
#######################################################################
#
#                 Cambridge Crystallographic Data Centre
#                                CCDC 
#
#######################################################################
#
# If this CIF has been generated from an entry in the Cambridge 
# Structural Database, then it will include bibliographic, chemical, 
# crystal, experimental, refinement or atomic coordinate data resulting 
# from the CCDC's data processing and validation procedures.
#
#######################################################################

data_VIWLIY
_symmetry_cell_setting           monoclinic
_symmetry_space_group_name_H-M   'P 21/n'
_symmetry_Int_Tables_number      14
_space_group_name_Hall           '-P 2yn'
loop_
_symmetry_equiv_pos_site_id
_symmetry_equiv_pos_as_xyz
1 x,y,z
2 1/2-x,1/2+y,1/2-z
3 -x,-y,-z
4 1/2+x,1/2-y,1/2+z
_cell_length_a                   10.985(2)
_cell_length_b                   20.450(4)
_cell_length_c                   19.856(4)
_cell_angle_alpha                90
_cell_angle_beta                 99.73(3)
_cell_angle_gamma                90
_cell_volume                     4396.35
loop_
_atom_site_label
_atom_site_type_symbol
_atom_site_fract_x
_atom_site_fract_y
_atom_site_fract_z
La1 La -0.46461(2) 0.126608(12) 0.345065(13)
La2 La 0.84030(2) 0.125996(12) 1.081721(14)
Cu1 Cu 0.08030(5) 0.17460(3) 0.83161(3)
Cu2 Cu 0.29254(5) 0.17407(3) 0.58927(3)
C1 C -0.2560(4) 0.2594(2) 0.5215(2)
C2 C -0.2878(4) 0.2952(2) 0.5760(2)
C3 C -0.2143(4) 0.2913(2) 0.6401(2)
H1 H -0.2334 0.3165 0.6758
C4 C -0.1124(4) 0.2499(2) 0.6511(2)
C5 C -0.0798(4) 0.2143(2) 0.5968(2)
C6 C -0.1521(4) 0.2190(2) 0.5322(2)
H2 H -0.1309 0.1951 0.4960
C7 C -0.3256(4) 0.2664(2) 0.4500(2)
C8 C -0.4091(4) 0.3297(2) 0.5702(2)
C9 C -0.0450(4) 0.2407(2) 0.7223(2)
C10 C 0.0353(4) 0.1726(2) 0.6058(2)
C11 C -0.1259(4) -0.0135(2) 0.4866(2)
C12 C -0.0774(4) 0.0343(2) 0.4492(2)
C13 C 0.0487(4) 0.0473(2) 0.4626(2)
H3 H 0.0815 0.0790 0.4373
C14 C -0.2606(4) -0.0316(2) 0.4753(2)
C15 C -0.1580(4) 0.0742(3) 0.3960(3)
C16 C 0.4553(4) 0.2077(2) 0.8261(2)
C17 C 0.4850(4) 0.2434(2) 0.7712(2)
C18 C 0.5877(4) 0.2849(2) 0.7824(2)
H4 H 0.6069 0.3097 0.7464
C19 C 0.6618(4) 0.2897(2) 0.8464(2)
C20 C 0.6320(4) 0.2532(2) 0.9005(2)
C21 C 0.5292(4) 0.2126(2) 0.8903(2)
H5 H 0.5094 0.1884 0.9266
C22 C 0.3392(4) 0.1673(2) 0.8230(2)
C23 C 0.4166(4) 0.2339(2) 0.7004(2)
C24 C 0.7817(4) 0.3276(2) 0.8534(2)
C25 C 0.7012(4) 0.2600(2) 0.9723(2)
O1 O -0.3617(3) 0.21651(19) 0.41628(18)
O2 O -0.3391(3) 0.32408(18) 0.42730(17)
O3 O -0.5013(3) 0.30548(17) 0.53236(17)
O4 O -0.4187(4) 0.37992(19) 0.6060(2)
O5 O -0.0382(3) 0.2874(2) 0.76297(18)
O6 O -0.0022(3) 0.18490(19) 0.73725(17)
O7 O 0.1358(3) 0.20531(18) 0.61464(17)
O8 O 0.0274(4) 0.1132(2) 0.6020(2)
O9 O -0.3052(3) -0.06582(18) 0.4239(2)
O10 O -0.3210(3) -0.0122(2) 0.5201(2)
O11 O -0.2735(3) 0.07424(19) 0.3964(2)
O12 O -0.1077(4) 0.1072(3) 0.3551(3)
O13 O 0.2390(3) 0.19868(18) 0.80368(17)
O14 O 0.3463(4) 0.1101(2) 0.8423(2)
O15 O 0.3736(3) 0.17779(17) 0.68468(17)
O16 O 0.4075(3) 0.28134(19) 0.65951(18)
O17 O 0.7895(4) 0.37941(18) 0.8219(2)
O18 O 0.8747(3) 0.30186(18) 0.89015(17)
O19 O 0.7300(3) 0.20937(19) 1.00678(18)
O20 O 0.7175(3) 0.31729(17) 0.99373(16)
O21 O -0.4883(3) 0.08763(18) 0.46554(18)
O22 O -0.4957(5) 0.0015(2) 0.3436(2)
O23 O -0.4894(6) 0.0794(3) 0.2253(3)
O24 O -0.2876(3) 0.17058(18) 0.28469(18)
O25 O 0.6618(4) 0.1639(2) 1.1429(2)
O26 O 0.8847(7) 0.0786(3) 1.2026(3)
O27 O 0.8885(5) 0.0036(2) 1.0790(2)
O28 O 0.6456(5) 0.0622(3) 1.0368(3)
O29 O 0.8831(5) 0.0829(2) 0.9669(2)
O30 O -0.0835(3) 0.1738(2) 0.8652(2)
O31 O 0.0732(7) 0.0676(3) 0.8102(3)
O32 O 0.4629(3) 0.17851(18) 0.56064(18)
C11B C 0.1259(4) 0.0135(2) 0.5134(2)
C12B C 0.0774(4) -0.0343(2) 0.5508(2)
C13B C -0.0487(4) -0.0473(2) 0.5374(2)
H3B H -0.0815 -0.0790 0.5627
C14B C 0.2606(4) 0.0316(2) 0.5247(2)
C15B C 0.1580(4) -0.0742(3) 0.6040(3)
O9B O 0.3052(3) 0.06582(18) 0.5761(2)
O10B O 0.3210(3) 0.0122(2) 0.4799(2)
O11B O 0.2735(3) -0.07424(19) 0.6036(2)
O12B O 0.1077(4) -0.1072(3) 0.6449(3)
La1B La 0.46461(2) -0.126608(12) 0.654935(13)
La2B La -0.84030(2) -0.125996(12) -0.081721(14)
Cu1B Cu -0.08030(5) -0.17460(3) 0.16839(3)
Cu2B Cu -0.29254(5) -0.17407(3) 0.41073(3)
C1B C 0.2560(4) -0.2594(2) 0.4785(2)
C2B C 0.2878(4) -0.2952(2) 0.4240(2)
C3B C 0.2143(4) -0.2913(2) 0.3599(2)
H1B H 0.2334 -0.3165 0.3242
C4B C 0.1124(4) -0.2499(2) 0.3489(2)
C5B C 0.0798(4) -0.2143(2) 0.4032(2)
C6B C 0.1521(4) -0.2190(2) 0.4678(2)
H2B H 0.1309 -0.1951 0.5040
C7B C 0.3256(4) -0.2664(2) 0.5500(2)
C8B C 0.4091(4) -0.3297(2) 0.4298(2)
C9B C 0.0450(4) -0.2407(2) 0.2777(2)
C10B C -0.0353(4) -0.1726(2) 0.3942(2)
C16B C -0.4553(4) -0.2077(2) 0.1739(2)
C17B C -0.4850(4) -0.2434(2) 0.2288(2)
C18B C -0.5877(4) -0.2849(2) 0.2176(2)
H4B H -0.6069 -0.3097 0.2536
C19B C -0.6618(4) -0.2897(2) 0.1536(2)
C20B C -0.6320(4) -0.2532(2) 0.0995(2)
C21B C -0.5292(4) -0.2126(2) 0.1097(2)
H5B H -0.5094 -0.1884 0.0734
C22B C -0.3392(4) -0.1673(2) 0.1770(2)
C23B C -0.4166(4) -0.2339(2) 0.2996(2)
C24B C -0.7817(4) -0.3276(2) 0.1466(2)
C25B C -0.7012(4) -0.2600(2) 0.0277(2)
O1B O 0.3617(3) -0.21651(19) 0.58372(18)
O2B O 0.3391(3) -0.32408(18) 0.57270(17)
O3B O 0.5013(3) -0.30548(17) 0.46764(17)
O4B O 0.4187(4) -0.37992(19) 0.3940(2)
O5B O 0.0382(3) -0.2874(2) 0.23703(18)
O6B O 0.0022(3) -0.18490(19) 0.26275(17)
O7B O -0.1358(3) -0.20531(18) 0.38536(17)
O8B O -0.0274(4) -0.1132(2) 0.3980(2)
O13B O -0.2390(3) -0.19868(18) 0.19632(17)
O14B O -0.3463(4) -0.1101(2) 0.1577(2)
O15B O -0.3736(3) -0.17779(17) 0.31532(17)
O16B O -0.4075(3) -0.28134(19) 0.34049(18)
O17B O -0.7895(4) -0.37941(18) 0.1781(2)
O18B O -0.8747(3) -0.30186(18) 0.10985(17)
O19B O -0.7300(3) -0.20937(19) -0.00678(18)
O20B O -0.7175(3) -0.31729(17) 0.00627(16)
O21B O 0.4883(3) -0.08763(18) 0.53446(18)
O22B O 0.4957(5) -0.0015(2) 0.6564(2)
O23B O 0.4894(6) -0.0794(3) 0.7747(3)
O24B O 0.2876(3) -0.17058(18) 0.71531(18)
O25B O -0.6618(4) -0.1639(2) -0.1429(2)
O26B O -0.8847(7) -0.0786(3) -0.2026(3)
O27B O -0.8885(5) -0.0036(2) -0.0790(2)
O28B O -0.6456(5) -0.0622(3) -0.0368(3)
O29B O -0.8831(5) -0.0829(2) 0.0331(2)
O30B O 0.0835(3) -0.1738(2) 0.1348(2)
O31B O -0.0732(7) -0.0676(3) 0.1898(3)
O32B O -0.4629(3) -0.17851(18) 0.43936(18)
La1A La -1.03539(2) -0.373392(12) 0.154935(13)
La1A_2 La -0.03539(2) -0.373392(12) 0.154935(13)
La1C La 0.03539(2) 0.373392(12) 0.845065(13)
La1C_2 La 1.03539(2) 0.373392(12) 0.845065(13)
La2A La -0.34030(2) -0.374004(12) 0.418279(14)
La2A_2 La 0.65970(2) -0.374004(12) 0.418279(14)
La2C La -0.65970(2) 0.374004(12) 0.581721(14)
La2C_2 La 0.34030(2) 0.374004(12) 0.581721(14)
Cu1A Cu 0.41970(5) -0.32540(3) 0.66839(3)
Cu1C Cu -0.41970(5) 0.32540(3) 0.33161(3)
Cu2A Cu -0.79254(5) -0.32593(3) -0.08927(3)
Cu2C Cu 0.79254(5) 0.32593(3) 1.08927(3)
O1A O -0.1383(3) -0.28349(19) 0.08372(18)
O1C O 0.1383(3) 0.28349(19) 0.91628(18)
O2A O -0.1609(3) -0.17592(18) 0.07270(17)
O2C O 0.1609(3) 0.17592(18) 0.92730(17)
O3A O -0.9987(3) -0.19452(17) -0.03236(17)
O3C O 0.9987(3) 0.19452(17) 1.03236(17)
O4A O -1.0813(4) -0.12008(19) -0.1060(2)
O4C O 1.0813(4) 0.12008(19) 1.1060(2)
O5A O 0.5382(3) -0.2126(2) 0.73703(18)
O5C O -0.5382(3) 0.2126(2) 0.26297(18)
O16A O -0.9075(3) -0.21866(19) -0.15951(18)
O16C O 0.9075(3) 0.21866(19) 1.15951(18)
O17A O 0.7105(4) -0.12059(18) 0.6781(2)
O17C O -0.7105(4) 0.12059(18) 0.3219(2)
O18A O 0.6253(3) -0.19814(18) 0.60985(17)
O18C O -0.6253(3) 0.19814(18) 0.39015(17)
O20A O -0.2175(3) -0.18271(17) 0.50627(16)
O20C O 0.2175(3) 0.18271(17) 0.49373(16)
O33 O 0.7512(6) -0.0242(3) 0.9112(4)
O34 O 0.8139(5) 0.0587(3) 0.6258(3)
O35 O 0.6149(6) -0.0764(3) 1.0108(4)
O36 O 0.5524(6) 0.0397(3) 0.8282(5)
O37 O 0.1941(6) 0.0452(4) 0.7091(3)
O38 O 0.6369(8) 0.1232(5) 0.6660(5)
O39 O 0.8614(7) -0.0162(5) 0.7440(4)
O40 O 0.7393(8) 0.1072(5) 0.7896(4)
loop_
_geom_bond_atom_site_label_1
_geom_bond_atom_site_label_2
_geom_bond_site_symmetry_1
_geom_bond_site_symmetry_2
La1 O1 1_555 1_555
La2 O19 1_555 1_555
Cu1 O6 1_555 1_555
Cu2 O7 1_555 1_555
C1 C2 1_555 1_555
C2 C3 1_555 1_555
C3 H1 1_555 1_555
C4 C3 1_555 1_555
C5 C4 1_555 1_555
C6 C1 1_555 1_555
H2 C6 1_555 1_555
C7 C1 1_555 1_555
C8 C2 1_555 1_555
C9 C4 1_555 1_555
C10 C5 1_555 1_555
C11 C12 1_555 1_555
C12 C13 1_555 1_555
C13 H3 1_555 1_555
C14 C11 1_555 1_555
C15 C12 1_555 1_555
C16 C17 1_555 1_555
C17 C18 1_555 1_555
C18 H4 1_555 1_555
C19 C18 1_555 1_555
C20 C19 1_555 1_555
C21 C16 1_555 1_555
H5 C21 1_555 1_555
C22 C16 1_555 1_555
C23 C17 1_555 1_555
C24 C19 1_555 1_555
C25 C20 1_555 1_555
O1 C7 1_555 1_555
O2 C7 1_555 1_555
O3 C8 1_555 1_555
O4 C8 1_555 1_555
O5 C9 1_555 1_555
O6 C9 1_555 1_555
O7 C10 1_555 1_555
O8 C10 1_555 1_555
O9 C14 1_555 1_555
O10 C14 1_555 1_555
O11 La1 1_555 1_555
O12 C15 1_555 1_555
O13 Cu1 1_555 1_555
O14 C22 1_555 1_555
O15 Cu2 1_555 1_555
O16 Cu2 1_555 1_555
O17 C24 1_555 1_555
O18 C24 1_555 1_555
O19 C25 1_555 1_555
O20 C25 1_555 1_555
O21 La1 1_555 1_555
O22 La1 1_555 1_555
O23 La1 1_555 1_555
O24 La1 1_555 1_555
O25 La2 1_555 1_555
O26 La2 1_555 1_555
O27 La2 1_555 1_555
O28 La2 1_555 1_555
O29 La2 1_555 1_555
O30 Cu1 1_555 1_555
O31 Cu1 1_555 1_555
O32 Cu2 1_555 1_555
C11B C13 1_555 1_555
C12B C11B 1_555 1_555
C13B C11 1_555 1_555
H3B C13B 1_555 1_555
C14B C11B 1_555 1_555
C15B C12B 1_555 1_555
O9B Cu2 1_555 1_555
O10B C14B 1_555 1_555
O11B C15B 1_555 1_555
O12B C15B 1_555 1_555
La1B O11B 1_555 1_555
La2B O19B 1_555 1_555
Cu1B O6B 1_555 1_555
Cu2B O9 1_555 1_555
C1B C2B 1_555 1_555
C2B C3B 1_555 1_555
C3B H1B 1_555 1_555
C4B C3B 1_555 1_555
C5B C4B 1_555 1_555
C6B C1B 1_555 1_555
H2B C6B 1_555 1_555
C7B C1B 1_555 1_555
C8B C2B 1_555 1_555
C9B C4B 1_555 1_555
C10B C5B 1_555 1_555
C16B C17B 1_555 1_555
C17B C18B 1_555 1_555
C18B H4B 1_555 1_555
C19B C18B 1_555 1_555
C20B C19B 1_555 1_555
C21B C16B 1_555 1_555
H5B C21B 1_555 1_555
C22B C16B 1_555 1_555
C23B C17B 1_555 1_555
C24B C19B 1_555 1_555
C25B C20B 1_555 1_555
O1B La1B 1_555 1_555
O2B C7B 1_555 1_555
O3B C8B 1_555 1_555
O4B C8B 1_555 1_555
O5B C9B 1_555 1_555
O6B C9B 1_555 1_555
O7B Cu2B 1_555 1_555
O8B C10B 1_555 1_555
O13B Cu1B 1_555 1_555
O14B C22B 1_555 1_555
O15B Cu2B 1_555 1_555
O16B Cu2B 1_555 1_555
O17B C24B 1_555 1_555
O18B C24B 1_555 1_555
O19B C25B 1_555 1_555
O20B C25B 1_555 1_555
O21B La1B 1_555 1_555
O22B La1B 1_555 1_555
O23B La1B 1_555 1_555
O24B La1B 1_555 1_555
O25B La2B 1_555 1_555
O26B La2B 1_555 1_555
O27B La2B 1_555 1_555
O28B La2B 1_555 1_555
O29B La2B 1_555 1_555
O30B Cu1B 1_555 1_555
O31B Cu1B 1_555 1_555
O32B Cu2B 1_555 1_555
La1A O17B 1_555 1_555
La1A_2 O5B 1_555 1_555
La1C O5 1_555 1_555
La1C_2 O17 1_555 1_555
La2A O16B 1_555 1_555
La2A_2 O3B 1_555 1_555
La2C O3 1_555 1_555
La2C_2 O16 1_555 1_555
Cu1A O1B 1_555 1_555
Cu1C O1 1_555 1_555
Cu2A O20B 1_555 1_555
Cu2C O20 1_555 1_555
O1A Cu1B 1_555 1_555
O1C Cu1 1_555 1_555
O2A Cu1B 1_555 1_555
O2C Cu1 1_555 1_555
O3A La2B 1_555 1_555
O3C La2 1_555 1_555
O4A La2B 1_555 1_555
O4C La2 1_555 1_555
O5A La1B 1_555 1_555
O5C La1 1_555 1_555
O16A La2B 1_555 1_555
O16C La2 1_555 1_555
O17A La1B 1_555 1_555
O17C La1 1_555 1_555
O18A La1B 1_555 1_555
O18C La1 1_555 1_555
O20A Cu2B 1_555 1_555
O20C Cu2 1_555 1_555
C5 C6 1_555 1_555
C15 O11 1_555 1_555
C20 C21 1_555 1_555
C22 O13 1_555 1_555
C23 O15 1_555 1_555
C23 O16 1_555 1_555
O2 Cu1C 1_555 1_555
O4 La2C 1_555 1_555
O18 La1C_2 1_555 1_555
C12B C13B 1_555 1_555
C14B O9B 1_555 1_555
C5B C6B 1_555 1_555
C7B O1B 1_555 1_555
C10B O7B 1_555 1_555
C20B C21B 1_555 1_555
C22B O13B 1_555 1_555
C23B O15B 1_555 1_555
C23B O16B 1_555 1_555
O2B Cu1A 1_555 1_555
O4B La2A_2 1_555 1_555
O18B La1A 1_555 1_555
La1A_2 O1A 1_555 1_555
La1C O1C 1_555 1_555
Cu2A O16A 1_555 1_555
Cu2C O16C 1_555 1_555

#END
