
#######################################################################
#
#                 Cambridge Crystallographic Data Centre
#                                CCDC 
#
#######################################################################
#
# If this CIF has been generated from an entry in the Cambridge 
# Structural Database, then it will include bibliographic, chemical, 
# crystal, experimental, refinement or atomic coordinate data resulting 
# from the CCDC's data processing and validation procedures.
#
#######################################################################

data_VIWLIX
_symmetry_cell_setting           monoclinic
_symmetry_space_group_name_H-M   'P 21/c'
_symmetry_Int_Tables_number      14
_space_group_name_Hall           '-P 2ybc'
loop_
_symmetry_equiv_pos_site_id
_symmetry_equiv_pos_as_xyz
1 x,y,z
2 -x,1/2+y,1/2-z
3 -x,-y,-z
4 x,1/2-y,1/2+z
_cell_length_a                   15.1652(9)
_cell_length_b                   14.6022(9)
_cell_length_c                   14.0711(9)
_cell_angle_alpha                90
_cell_angle_beta                 94.2570(10)
_cell_angle_gamma                90
_cell_volume                     3107.38
loop_
_atom_site_label
_atom_site_type_symbol
_atom_site_fract_x
_atom_site_fract_y
_atom_site_fract_z
Ag1 Ag 0.26219(4) 0.77830(5) 0.61460(4)
C1 C 0.4987(5) 0.4755(6) 0.6391(6)
H1 H 0.5226 0.5223 0.6778
C2 C 0.4174(5) 0.4864(6) 0.5913(6)
C3 C 0.3810(6) 0.4176(8) 0.5333(7)
H2 H 0.3258 0.4253 0.5010
C4 C 0.4269(6) 0.3387(7) 0.5240(7)
H3 H 0.4030 0.2924 0.4848
C5 C 0.5074(5) 0.3267(6) 0.5714(6)
H4 H 0.5378 0.2720 0.5647
C6 C 0.5449(5) 0.3952(5) 0.6299(5)
C7 C 0.6319(5) 0.3834(6) 0.6827(5)
H5 H 0.6514 0.4279 0.7267
C8 C 0.8302(4) 0.3068(4) 0.6906(5)
C9 C 0.9147(4) 0.3073(5) 0.7478(5)
C10 C 0.9276(6) 0.3656(6) 0.8236(6)
H6 H 0.8827 0.4052 0.8387
C11 C 1.0095(7) 0.3658(8) 0.8789(7)
H7 H 1.0183 0.4059 0.9300
C12 C 1.0742(7) 0.3087(9) 0.8585(8)
H8 H 1.1278 0.3092 0.8952
C13 C 1.0613(6) 0.2492(9) 0.7826(8)
H9 H 1.1056 0.2076 0.7706
C14 C 0.9840(5) 0.2501(7) 0.7240(6)
H10 H 0.9780 0.2136 0.6697
C15 C 0.8927(5) 0.3718(6) 0.4437(5)
H11 H 0.9021 0.3137 0.4194
C16 C 0.9164(6) 0.4484(7) 0.3933(6)
H12 H 0.9418 0.4414 0.3355
C17 C 0.9027(6) 0.5344(7) 0.4281(7)
H13 H 0.9177 0.5859 0.3940
C18 C 0.8671(6) 0.5432(6) 0.5126(9)
H14 H 0.8582 0.6017 0.5361
C19 C 0.8431(5) 0.4678(5) 0.5663(6)
H15 H 0.8195 0.4756 0.6249
C20 C 0.8556(4) 0.3808(5) 0.5294(5)
C21 C 0.8293(4) 0.3000(5) 0.5822(4)
C22 C 0.7157(5) 0.1122(5) 0.5833(5)
H16 H 0.6764 0.1364 0.5360
C23 C 0.7490(5) -0.0143(6) 0.6974(6)
H17 H 0.8042 0.0113 0.7134
C24 C 0.6885(5) 0.0302(5) 0.6329(5)
C25 C 0.6068(5) -0.0076(5) 0.6124(6)
H18 H 0.5662 0.0226 0.5706
C26 C 0.7258(6) -0.0966(6) 0.7370(7)
H19 H 0.7663 -0.1269 0.7789
C27 C 0.6439(5) -0.1342(5) 0.7155(6)
H20 H 0.6289 -0.1894 0.7430
C28 C 0.5833(5) -0.0895(5) 0.6522(5)
C29 C 0.4987(5) -0.1297(6) 0.6284(6)
C30 C 0.3696(6) 0.5721(7) 0.6043(7)
N1 N 0.3324(5) 0.6345(6) 0.6150(7)
N2 N 0.4312(5) -0.1629(5) 0.6104(6)
N3 N 0.8031(4) 0.2262(4) 0.5409(4)
N4 N 0.7873(4) 0.1519(4) 0.5999(4)
N5 N 0.7582(4) 0.3153(4) 0.7307(4)
N6 N 0.6802(4) 0.3160(4) 0.6707(4)
Ag1B Ag 0.73781(4) 0.22170(5) 0.38540(4)
Ag1A Ag 0.73781(4) 0.27830(5) 0.88540(4)
N3B N 0.1969(4) 0.7738(4) 0.4591(4)
N5A N 0.2418(4) 0.8153(4) 0.7693(4)
F1 F 0.7216(7) 0.8582(8) 0.4958(8)
F2 F 0.6267(14) 0.8795(14) 0.3382(15)
F3 F 0.8623(11) 0.9046(13) 0.3989(13)
F4 F 0.7568(6) 0.7731(7) 0.3528(7)
F5 F 0.7664(9) 0.9245(9) 0.2583(10)
F6 F 0.7215(7) 1.0152(8) 0.3911(7)
Sb1 Sb 0.73809(5) 0.89221(4) 0.37378(4)
loop_
_geom_bond_atom_site_label_1
_geom_bond_atom_site_label_2
_geom_bond_site_symmetry_1
_geom_bond_site_symmetry_2
Ag1 N1 1_555 1_555
C1 H1 1_555 1_555
C2 C1 1_555 1_555
C3 C2 1_555 1_555
H2 C3 1_555 1_555
C4 C3 1_555 1_555
H3 C4 1_555 1_555
C5 C4 1_555 1_555
H4 C5 1_555 1_555
C6 C1 1_555 1_555
C7 C6 1_555 1_555
H5 C7 1_555 1_555
C8 C9 1_555 1_555
C9 C10 1_555 1_555
C10 H6 1_555 1_555
C11 C10 1_555 1_555
H7 C11 1_555 1_555
C12 C11 1_555 1_555
H8 C12 1_555 1_555
C13 C12 1_555 1_555
H9 C13 1_555 1_555
C14 C9 1_555 1_555
H10 C14 1_555 1_555
C15 H11 1_555 1_555
C16 C15 1_555 1_555
H12 C16 1_555 1_555
C17 C16 1_555 1_555
H13 C17 1_555 1_555
C18 C17 1_555 1_555
H14 C18 1_555 1_555
C19 C18 1_555 1_555
H15 C19 1_555 1_555
C20 C15 1_555 1_555
C21 C8 1_555 1_555
C22 H16 1_555 1_555
C23 H17 1_555 1_555
C24 C22 1_555 1_555
C25 C24 1_555 1_555
H18 C25 1_555 1_555
C26 C23 1_555 1_555
H19 C26 1_555 1_555
C27 C26 1_555 1_555
H20 C27 1_555 1_555
C28 C25 1_555 1_555
C29 C28 1_555 1_555
C30 C2 1_555 1_555
F1 Sb1 1_555 1_555
F2 Sb1 1_555 1_555
F3 Sb1 1_555 1_555
F4 Sb1 1_555 1_555
F5 Sb1 1_555 1_555
F6 Sb1 1_555 1_555
N1 C30 1_555 1_555
N2 C29 1_555 1_555
N3 C21 1_555 1_555
N4 C22 1_555 1_555
N5 C8 1_555 1_555
N6 C7 1_555 1_555
Ag1B N3 1_555 1_555
Ag1A N5 1_555 1_555
N3B Ag1 1_555 1_555
N5A Ag1 1_555 1_555
C5 C6 1_555 1_555
C13 C14 1_555 1_555
C19 C20 1_555 1_555
C20 C21 1_555 1_555
C23 C24 1_555 1_555
C27 C28 1_555 1_555
N3 N4 1_555 1_555
N5 N6 1_555 1_555

#END
