
#######################################################################
#
#                 Cambridge Crystallographic Data Centre
#                                CCDC 
#
#######################################################################
#
# If this CIF has been generated from an entry in the Cambridge 
# Structural Database, then it will include bibliographic, chemical, 
# crystal, experimental, refinement or atomic coordinate data resulting 
# from the CCDC's data processing and validation procedures.
#
#######################################################################

data_VIWLOE
_symmetry_cell_setting           monoclinic
_symmetry_space_group_name_H-M   'P 21/n'
_symmetry_Int_Tables_number      14
_space_group_name_Hall           '-P 2yn'
loop_
_symmetry_equiv_pos_site_id
_symmetry_equiv_pos_as_xyz
1 x,y,z
2 1/2-x,1/2+y,1/2-z
3 -x,-y,-z
4 1/2+x,1/2-y,1/2+z
_cell_length_a                   10.9718(2)
_cell_length_b                   20.2668(3)
_cell_length_c                   19.7821(5)
_cell_angle_alpha                90
_cell_angle_beta                 99.312(2)
_cell_angle_gamma                90
_cell_volume                     4340.84
loop_
_atom_site_label
_atom_site_type_symbol
_atom_site_fract_x
_atom_site_fract_y
_atom_site_fract_z
Ce1 Ce -0.46259(3) 0.126387(14) 0.344202(16)
Ce2 Ce 0.84233(3) 0.124424(14) 1.081666(17)
Cu1 Cu 0.08106(6) 0.17329(3) 0.83090(3)
Cu2 Cu 0.29567(6) 0.17389(3) 0.58821(3)
C1 C -0.2536(5) 0.2594(3) 0.5202(3)
C2 C -0.2856(5) 0.2959(3) 0.5755(3)
C3 C -0.2124(5) 0.2922(3) 0.6394(3)
H1 H -0.2312 0.3179 0.6752
C4 C -0.1106(5) 0.2501(3) 0.6502(3)
C5 C -0.0784(5) 0.2136(3) 0.5958(3)
C6 C -0.1500(5) 0.2187(3) 0.5311(3)
H2 H -0.1284 0.1947 0.4947
C7 C -0.3232(4) 0.2672(3) 0.4489(3)
C8 C -0.4067(5) 0.3314(3) 0.5692(3)
C9 C -0.0433(5) 0.2405(3) 0.7214(3)
C10 C 0.0374(5) 0.1722(3) 0.6053(3)
C11 C -0.1260(5) -0.0130(3) 0.4878(3)
C12 C -0.0764(5) 0.0344(3) 0.4485(3)
C13 C 0.0497(5) 0.0462(3) 0.4612(3)
H3 H 0.0834 0.0772 0.4348
C14 C -0.2613(5) -0.0299(3) 0.4770(3)
C15 C -0.1559(5) 0.0739(3) 0.3948(3)
C16 C 0.4585(5) 0.2060(3) 0.8257(3)
C17 C 0.4875(5) 0.2427(3) 0.7698(3)
C18 C 0.5898(5) 0.2847(3) 0.7813(3)
H4 H 0.6089 0.3101 0.7452
C19 C 0.6637(5) 0.2894(3) 0.8451(3)
C20 C 0.6347(5) 0.2517(3) 0.8998(3)
C21 C 0.5319(5) 0.2104(3) 0.8893(3)
H5 H 0.5124 0.1855 0.9255
C22 C 0.4190(5) 0.2334(3) 0.6994(3)
C23 C 0.7834(5) 0.3274(3) 0.8527(3)
C24 C 0.7028(4) 0.2589(3) 0.9716(3)
O1 O -0.3592(3) 0.21692(19) 0.41510(19)
O2 O -0.3371(4) 0.32570(19) 0.4264(2)
O3 O -0.4998(3) 0.30619(18) 0.5313(2)
O4 O -0.4176(4) 0.38197(19) 0.6054(2)
O5 O -0.0379(4) 0.2876(2) 0.7626(2)
O6 O 0.0001(4) 0.1842(2) 0.7363(2)
O7 O 0.1375(3) 0.20500(19) 0.6136(2)
O8 O 0.0296(4) 0.1119(2) 0.6019(2)
O9 O -0.3068(4) -0.06485(19) 0.4260(2)
O10 O -0.3210(4) -0.0096(2) 0.5225(2)
O11 O -0.2717(3) 0.07398(18) 0.3956(2)
O12 O -0.1055(4) 0.1060(2) 0.3524(2)
O13 O 0.2413(3) 0.19707(19) 0.8024(2)
O14 O 0.3498(4) 0.1072(2) 0.8399(2)
O15 O 0.3763(3) 0.17686(19) 0.6840(2)
O16 O 0.4102(3) 0.28142(19) 0.6587(2)
O17 O 0.7922(4) 0.38034(18) 0.8211(2)
O18 O 0.8768(3) 0.30132(18) 0.88932(19)
O19 O 0.7312(3) 0.20790(19) 1.0065(2)
O20 O 0.7204(3) 0.31720(18) 0.99300(18)
O21 O -0.4892(3) 0.08738(19) 0.4643(2)
O22 O -0.4947(4) 0.0008(2) 0.3427(2)
O23 O -0.4808(5) 0.0791(2) 0.2239(3)
O24 O -0.2850(3) 0.17201(19) 0.2840(2)
O25 O 0.6654(4) 0.1631(2) 1.1439(2)
O26 O 0.8917(6) 0.0783(2) 1.2026(3)
O27 O 0.8892(5) 0.0014(2) 1.0795(3)
O28 O 0.6464(4) 0.0610(2) 1.0377(3)
O29 O 0.8870(4) 0.0807(2) 0.9664(2)
O30 O -0.0836(4) 0.1724(2) 0.8640(2)
O31 O 0.0770(9) 0.0670(3) 0.8081(3)
O32 O 0.4656(3) 0.17852(19) 0.5594(2)
C25 C 0.3421(5) 0.1654(3) 0.8217(3)
C11B C 0.1260(5) 0.0130(3) 0.5122(3)
C12B C 0.0764(5) -0.0344(3) 0.5515(3)
C13B C -0.0497(5) -0.0462(3) 0.5388(3)
H3B H -0.0834 -0.0772 0.5652
C14B C 0.2613(5) 0.0299(3) 0.5230(3)
C15B C 0.1559(5) -0.0739(3) 0.6052(3)
O9B O 0.3068(4) 0.06485(19) 0.5740(2)
O10B O 0.3210(4) 0.0096(2) 0.4775(2)
O11B O 0.2717(3) -0.07398(18) 0.6044(2)
O12B O 0.1055(4) -0.1060(2) 0.6476(2)
Ce1B Ce 0.46259(3) -0.126387(14) 0.655798(16)
Ce2B Ce -0.84233(3) -0.124424(14) -0.081666(17)
Cu1B Cu -0.08106(6) -0.17329(3) 0.16910(3)
Cu2B Cu -0.29567(6) -0.17389(3) 0.41179(3)
C1B C 0.2536(5) -0.2594(3) 0.4798(3)
C2B C 0.2856(5) -0.2959(3) 0.4245(3)
C3B C 0.2124(5) -0.2922(3) 0.3606(3)
H1B H 0.2312 -0.3179 0.3248
C4B C 0.1106(5) -0.2501(3) 0.3498(3)
C5B C 0.0784(5) -0.2136(3) 0.4042(3)
C6B C 0.1500(5) -0.2187(3) 0.4689(3)
H2B H 0.1284 -0.1947 0.5053
C7B C 0.3232(4) -0.2672(3) 0.5511(3)
C8B C 0.4067(5) -0.3314(3) 0.4308(3)
C9B C 0.0433(5) -0.2405(3) 0.2786(3)
C10B C -0.0374(5) -0.1722(3) 0.3947(3)
C16B C -0.4585(5) -0.2060(3) 0.1743(3)
C17B C -0.4875(5) -0.2427(3) 0.2302(3)
C18B C -0.5898(5) -0.2847(3) 0.2187(3)
H4B H -0.6089 -0.3101 0.2548
C19B C -0.6637(5) -0.2894(3) 0.1549(3)
C20B C -0.6347(5) -0.2517(3) 0.1002(3)
C21B C -0.5319(5) -0.2104(3) 0.1107(3)
H5B H -0.5124 -0.1855 0.0745
C22B C -0.4190(5) -0.2334(3) 0.3006(3)
C23B C -0.7834(5) -0.3274(3) 0.1473(3)
C24B C -0.7028(4) -0.2589(3) 0.0284(3)
O1B O 0.3592(3) -0.21692(19) 0.58490(19)
O2B O 0.3371(4) -0.32570(19) 0.5736(2)
O3B O 0.4998(3) -0.30619(18) 0.4687(2)
O4B O 0.4176(4) -0.38197(19) 0.3946(2)
O5B O 0.0379(4) -0.2876(2) 0.2374(2)
O6B O -0.0001(4) -0.1842(2) 0.2637(2)
O7B O -0.1375(3) -0.20500(19) 0.3864(2)
O8B O -0.0296(4) -0.1119(2) 0.3981(2)
O13B O -0.2413(3) -0.19707(19) 0.1976(2)
O14B O -0.3498(4) -0.1072(2) 0.1601(2)
O15B O -0.3763(3) -0.17686(19) 0.3160(2)
O16B O -0.4102(3) -0.28142(19) 0.3413(2)
O17B O -0.7922(4) -0.38034(18) 0.1789(2)
O18B O -0.8768(3) -0.30132(18) 0.11068(19)
O19B O -0.7312(3) -0.20790(19) -0.0065(2)
O20B O -0.7204(3) -0.31720(18) 0.00700(18)
O21B O 0.4892(3) -0.08738(19) 0.5357(2)
O22B O 0.4947(4) -0.0008(2) 0.6573(2)
O23B O 0.4808(5) -0.0791(2) 0.7761(3)
O24B O 0.2850(3) -0.17201(19) 0.7160(2)
O25B O -0.6654(4) -0.1631(2) -0.1439(2)
O26B O -0.8917(6) -0.0783(2) -0.2026(3)
O27B O -0.8892(5) -0.0014(2) -0.0795(3)
O28B O -0.6464(4) -0.0610(2) -0.0377(3)
O29B O -0.8870(4) -0.0807(2) 0.0336(2)
O30B O 0.0836(4) -0.1724(2) 0.1360(2)
O31B O -0.0770(9) -0.0670(3) 0.1919(3)
O32B O -0.4656(3) -0.17852(19) 0.4406(2)
C25B C -0.3421(5) -0.1654(3) 0.1783(3)
Ce1A Ce -1.03741(3) -0.373613(14) 0.155798(16)
Ce1A_2 Ce -0.03741(3) -0.373613(14) 0.155798(16)
Ce1C Ce 0.03741(3) 0.373613(14) 0.844202(16)
Ce1C_2 Ce 1.03741(3) 0.373613(14) 0.844202(16)
Ce2A Ce -0.34233(3) -0.375576(14) 0.418334(17)
Ce2A_2 Ce 0.65767(3) -0.375576(14) 0.418334(17)
Ce2C Ce -0.65767(3) 0.375576(14) 0.581666(17)
Ce2C_2 Ce 0.34233(3) 0.375576(14) 0.581666(17)
Cu1A Cu 0.41894(6) -0.32671(3) 0.66910(3)
Cu1C Cu -0.41894(6) 0.32671(3) 0.33090(3)
Cu2A Cu -0.79567(6) -0.32611(3) -0.08821(3)
Cu2C Cu 0.79567(6) 0.32611(3) 1.08821(3)
O1A O -0.1408(3) -0.28308(19) 0.08490(19)
O1C O 0.1408(3) 0.28308(19) 0.91510(19)
O2A O -0.1629(4) -0.17430(19) 0.0736(2)
O2C O 0.1629(4) 0.17430(19) 0.9264(2)
O3A O -1.0002(3) -0.19381(18) -0.0313(2)
O3C O 1.0002(3) 0.19381(18) 1.0313(2)
O4A O -1.0824(4) -0.11803(19) -0.1054(2)
O4C O 1.0824(4) 0.11803(19) 1.1054(2)
O5A O 0.5379(4) -0.2124(2) 0.7374(2)
O5C O -0.5379(4) 0.2124(2) 0.2626(2)
O16A O -0.9102(3) -0.21858(19) -0.1587(2)
O16C O 0.9102(3) 0.21858(19) 1.1587(2)
O17A O 0.7078(4) -0.11966(18) 0.6789(2)
O17C O -0.7078(4) 0.11966(18) 0.3211(2)
O18A O 0.6232(3) -0.19868(18) 0.61068(19)
O18C O -0.6232(3) 0.19868(18) 0.38932(19)
O20A O -0.2204(3) -0.18280(18) 0.50700(18)
O20C O 0.2204(3) 0.18280(18) 0.49300(18)
O33 O 0.7458(5) -0.0235(3) 0.9096(4)
O34 O 0.8169(5) 0.0590(3) 0.6300(3)
O35 O 0.6150(5) -0.0753(3) 1.0118(3)
O36 O 0.5591(6) 0.0418(3) 0.8218(6)
O37 O 0.1915(7) 0.0443(4) 0.7073(4)
O38 O 0.6334(8) 0.1203(4) 0.6641(5)
O39 O 0.8609(6) -0.0203(4) 0.7448(4)
O40 O 0.7422(8) 0.1125(6) 0.7787(6)
loop_
_geom_bond_atom_site_label_1
_geom_bond_atom_site_label_2
_geom_bond_site_symmetry_1
_geom_bond_site_symmetry_2
Ce1 O1 1_555 1_555
Ce2 O19 1_555 1_555
Cu1 O6 1_555 1_555
Cu2 O7 1_555 1_555
C1 C2 1_555 1_555
C2 C3 1_555 1_555
C3 H1 1_555 1_555
C4 C3 1_555 1_555
C5 C4 1_555 1_555
C6 C1 1_555 1_555
H2 C6 1_555 1_555
C7 C1 1_555 1_555
C8 C2 1_555 1_555
C9 C4 1_555 1_555
C10 C5 1_555 1_555
C11 C12 1_555 1_555
C12 C13 1_555 1_555
C13 H3 1_555 1_555
C14 C11 1_555 1_555
C15 C12 1_555 1_555
C16 C17 1_555 1_555
C17 C18 1_555 1_555
C18 H4 1_555 1_555
C19 C18 1_555 1_555
C20 C19 1_555 1_555
C21 C16 1_555 1_555
H5 C21 1_555 1_555
C22 C17 1_555 1_555
C23 C19 1_555 1_555
C24 C20 1_555 1_555
O1 C7 1_555 1_555
O2 C7 1_555 1_555
O3 C8 1_555 1_555
O4 C8 1_555 1_555
O5 C9 1_555 1_555
O6 C9 1_555 1_555
O7 C10 1_555 1_555
O8 C10 1_555 1_555
O9 C14 1_555 1_555
O10 C14 1_555 1_555
O11 Ce1 1_555 1_555
O12 C15 1_555 1_555
O13 Cu1 1_555 1_555
O14 C25 1_555 1_555
O15 Cu2 1_555 1_555
O16 Cu2 1_555 1_555
O17 C23 1_555 1_555
O18 C23 1_555 1_555
O19 C24 1_555 1_555
O20 C24 1_555 1_555
O21 Ce1 1_555 1_555
O22 Ce1 1_555 1_555
O23 Ce1 1_555 1_555
O24 Ce1 1_555 1_555
O25 Ce2 1_555 1_555
O26 Ce2 1_555 1_555
O27 Ce2 1_555 1_555
O28 Ce2 1_555 1_555
O29 Ce2 1_555 1_555
O30 Cu1 1_555 1_555
O31 Cu1 1_555 1_555
O32 Cu2 1_555 1_555
C25 C16 1_555 1_555
C11B C13 1_555 1_555
C12B C11B 1_555 1_555
C13B C11 1_555 1_555
H3B C13B 1_555 1_555
C14B C11B 1_555 1_555
C15B C12B 1_555 1_555
O9B Cu2 1_555 1_555
O10B C14B 1_555 1_555
O11B C15B 1_555 1_555
O12B C15B 1_555 1_555
Ce1B O11B 1_555 1_555
Ce2B O19B 1_555 1_555
Cu1B O6B 1_555 1_555
Cu2B O9 1_555 1_555
C1B C2B 1_555 1_555
C2B C3B 1_555 1_555
C3B H1B 1_555 1_555
C4B C3B 1_555 1_555
C5B C4B 1_555 1_555
C6B C1B 1_555 1_555
H2B C6B 1_555 1_555
C7B C1B 1_555 1_555
C8B C2B 1_555 1_555
C9B C4B 1_555 1_555
C10B C5B 1_555 1_555
C16B C17B 1_555 1_555
C17B C18B 1_555 1_555
C18B H4B 1_555 1_555
C19B C18B 1_555 1_555
C20B C19B 1_555 1_555
C21B C16B 1_555 1_555
H5B C21B 1_555 1_555
C22B C17B 1_555 1_555
C23B C19B 1_555 1_555
C24B C20B 1_555 1_555
O1B Ce1B 1_555 1_555
O2B C7B 1_555 1_555
O3B C8B 1_555 1_555
O4B C8B 1_555 1_555
O5B C9B 1_555 1_555
O6B C9B 1_555 1_555
O7B Cu2B 1_555 1_555
O8B C10B 1_555 1_555
O13B Cu1B 1_555 1_555
O14B C25B 1_555 1_555
O15B Cu2B 1_555 1_555
O16B Cu2B 1_555 1_555
O17B C23B 1_555 1_555
O18B C23B 1_555 1_555
O19B C24B 1_555 1_555
O20B C24B 1_555 1_555
O21B Ce1B 1_555 1_555
O22B Ce1B 1_555 1_555
O23B Ce1B 1_555 1_555
O24B Ce1B 1_555 1_555
O25B Ce2B 1_555 1_555
O26B Ce2B 1_555 1_555
O27B Ce2B 1_555 1_555
O28B Ce2B 1_555 1_555
O29B Ce2B 1_555 1_555
O30B Cu1B 1_555 1_555
O31B Cu1B 1_555 1_555
O32B Cu2B 1_555 1_555
C25B C16B 1_555 1_555
Ce1A O17B 1_555 1_555
Ce1A_2 O5B 1_555 1_555
Ce1C O5 1_555 1_555
Ce1C_2 O17 1_555 1_555
Ce2A O16B 1_555 1_555
Ce2A_2 O3B 1_555 1_555
Ce2C O3 1_555 1_555
Ce2C_2 O16 1_555 1_555
Cu1A O1B 1_555 1_555
Cu1C O1 1_555 1_555
Cu2A O20B 1_555 1_555
Cu2C O20 1_555 1_555
O1A Cu1B 1_555 1_555
O1C Cu1 1_555 1_555
O2A Cu1B 1_555 1_555
O2C Cu1 1_555 1_555
O3A Ce2B 1_555 1_555
O3C Ce2 1_555 1_555
O4A Ce2B 1_555 1_555
O4C Ce2 1_555 1_555
O5A Ce1B 1_555 1_555
O5C Ce1 1_555 1_555
O16A Ce2B 1_555 1_555
O16C Ce2 1_555 1_555
O17A Ce1B 1_555 1_555
O17C Ce1 1_555 1_555
O18A Ce1B 1_555 1_555
O18C Ce1 1_555 1_555
O20A Cu2B 1_555 1_555
O20C Cu2 1_555 1_555
C5 C6 1_555 1_555
C15 O11 1_555 1_555
C20 C21 1_555 1_555
C22 O15 1_555 1_555
C22 O16 1_555 1_555
O2 Cu1C 1_555 1_555
O4 Ce2C 1_555 1_555
O13 C25 1_555 1_555
O18 Ce1C_2 1_555 1_555
C12B C13B 1_555 1_555
C14B O9B 1_555 1_555
C5B C6B 1_555 1_555
C7B O1B 1_555 1_555
C10B O7B 1_555 1_555
C20B C21B 1_555 1_555
C22B O15B 1_555 1_555
C22B O16B 1_555 1_555
O2B Cu1A 1_555 1_555
O4B Ce2A_2 1_555 1_555
O13B C25B 1_555 1_555
O18B Ce1A 1_555 1_555
Ce1A_2 O1A 1_555 1_555
Ce1C O1C 1_555 1_555
Cu2A O16A 1_555 1_555
Cu2C O16C 1_555 1_555

#END
