
#######################################################################
#
#                 Cambridge Crystallographic Data Centre
#                                CCDC 
#
#######################################################################
#
# If this CIF has been generated from an entry in the Cambridge 
# Structural Database, then it will include bibliographic, chemical, 
# crystal, experimental, refinement or atomic coordinate data resulting 
# from the CCDC's data processing and validation procedures.
#
#######################################################################

data_VIWMAR
_symmetry_cell_setting           monoclinic
_symmetry_space_group_name_H-M   'P 21/n'
_symmetry_Int_Tables_number      14
_space_group_name_Hall           '-P 2yn'
loop_
_symmetry_equiv_pos_site_id
_symmetry_equiv_pos_as_xyz
1 x,y,z
2 1/2-x,1/2+y,1/2-z
3 -x,-y,-z
4 1/2+x,1/2-y,1/2+z
_cell_length_a                   10.927(2)
_cell_length_b                   20.391(4)
_cell_length_c                   19.807(4)
_cell_angle_alpha                90
_cell_angle_beta                 99.61(3)
_cell_angle_gamma                90
_cell_volume                     4351.31
loop_
_atom_site_label
_atom_site_type_symbol
_atom_site_fract_x
_atom_site_fract_y
_atom_site_fract_z
Nd1 Nd -0.46257(4) 0.12788(3) 0.34552(2)
Nd2 Nd 0.84111(4) 0.12698(3) 1.08197(2)
Cu1 Cu 0.08014(9) 0.17391(5) 0.83151(5)
Cu2 Cu 0.29529(9) 0.17337(5) 0.58979(5)
C1 C -0.2549(7) 0.2593(5) 0.5224(4)
C2 C -0.2886(7) 0.2964(4) 0.5761(4)
C3 C -0.2133(7) 0.2921(5) 0.6402(4)
H1 H -0.2317 0.3175 0.6762
C4 C -0.1111(7) 0.2504(4) 0.6507(4)
C5 C -0.0786(8) 0.2139(5) 0.5967(4)
C6 C -0.1518(7) 0.2199(4) 0.5325(4)
H2 H -0.1304 0.1968 0.4957
C7 C -0.3259(7) 0.2672(5) 0.4495(4)
C8 C -0.4093(7) 0.3313(5) 0.5705(4)
C9 C -0.0433(7) 0.2415(5) 0.7215(4)
C10 C 0.0347(8) 0.1721(5) 0.6055(4)
C11 C -0.1266(7) -0.0136(4) 0.4869(4)
C12 C -0.0785(7) 0.0346(4) 0.4495(4)
C13 C 0.0495(8) 0.0470(5) 0.4628(4)
H3 H 0.0828 0.0784 0.4371
C14 C -0.2617(7) -0.0319(5) 0.4755(5)
C15 C -0.1600(7) 0.0749(5) 0.3958(5)
C16 C 0.4552(8) 0.2068(5) 0.8274(4)
C17 C 0.4872(7) 0.2439(4) 0.7711(4)
C18 C 0.5882(7) 0.2858(5) 0.7830(4)
H4 H 0.6056 0.3124 0.7476
C19 C 0.6646(7) 0.2891(4) 0.8469(4)
C20 C 0.6343(7) 0.2529(4) 0.9008(4)
C21 C 0.5313(8) 0.2118(5) 0.8905(4)
H5 H 0.5131 0.1870 0.9270
C22 C 0.3398(8) 0.1677(4) 0.8227(4)
C23 C 0.4178(7) 0.2349(5) 0.7006(4)
C24 C 0.7849(8) 0.3279(5) 0.8537(4)
C25 C 0.7023(7) 0.2594(5) 0.9727(4)
O1 O -0.3602(6) 0.2168(3) 0.4160(3)
O2 O -0.3406(5) 0.3245(3) 0.4269(3)
O3 O -0.5030(5) 0.3058(3) 0.5325(3)
O4 O -0.4201(5) 0.3805(3) 0.6062(3)
O5 O -0.0367(6) 0.2881(3) 0.7633(3)
O6 O -0.0010(5) 0.1849(3) 0.7370(3)
O7 O 0.1376(5) 0.2048(3) 0.6143(3)
O8 O 0.0268(6) 0.1125(4) 0.6030(3)
O9 O -0.3079(5) -0.0648(3) 0.4235(3)
O10 O -0.3225(5) -0.0121(3) 0.5209(3)
O11 O -0.2741(5) 0.0751(3) 0.3969(3)
O12 O -0.1077(6) 0.1083(4) 0.3549(4)
O13 O 0.2407(5) 0.1979(3) 0.8038(3)
O14 O 0.3493(6) 0.1094(3) 0.8424(3)
O15 O 0.3755(5) 0.1779(3) 0.6855(3)
O16 O 0.4087(6) 0.2814(3) 0.6592(3)
O17 O 0.7934(5) 0.3798(3) 0.8223(3)
O18 O 0.8779(5) 0.3010(3) 0.8896(3)
O19 O 0.7305(5) 0.2088(3) 1.0079(3)
O20 O 0.7214(5) 0.3176(3) 0.9941(3)
O21 O -0.4878(5) 0.0894(3) 0.4647(3)
O22 O -0.4985(6) 0.0040(3) 0.3444(3)
O23 O -0.4859(8) 0.0795(4) 0.2265(4)
O24 O -0.2875(5) 0.1710(3) 0.2858(3)
O25 O 0.6646(5) 0.1639(3) 1.1422(3)
O26 O 0.8842(8) 0.0804(4) 1.2009(4)
O27 O 0.8880(8) 0.0057(4) 1.0799(4)
O28 O 0.6481(7) 0.0630(4) 1.0373(4)
O29 O 0.8806(7) 0.0841(3) 0.9683(3)
O30 O -0.0863(5) 0.1738(3) 0.8638(3)
O31 O 0.0753(10) 0.0668(4) 0.8100(4)
O32 O 0.4663(5) 0.1778(3) 0.5610(3)
C11B C 0.1266(7) 0.0136(4) 0.5131(4)
C12B C 0.0785(7) -0.0346(4) 0.5505(4)
C13B C -0.0495(8) -0.0470(5) 0.5372(4)
H3B H -0.0828 -0.0784 0.5629
C14B C 0.2617(7) 0.0319(5) 0.5245(5)
C15B C 0.1600(7) -0.0749(5) 0.6042(5)
O9B O 0.3079(5) 0.0648(3) 0.5765(3)
O10B O 0.3225(5) 0.0121(3) 0.4791(3)
O11B O 0.2741(5) -0.0751(3) 0.6031(3)
O12B O 0.1077(6) -0.1083(4) 0.6451(4)
Nd1B Nd 0.46257(4) -0.12788(3) 0.65448(2)
Nd2B Nd -0.84111(4) -0.12698(3) -0.08197(2)
Cu1B Cu -0.08014(9) -0.17391(5) 0.16849(5)
Cu2B Cu -0.29529(9) -0.17337(5) 0.41021(5)
C1B C 0.2549(7) -0.2593(5) 0.4776(4)
C2B C 0.2886(7) -0.2964(4) 0.4239(4)
C3B C 0.2133(7) -0.2921(5) 0.3598(4)
H1B H 0.2317 -0.3175 0.3238
C4B C 0.1111(7) -0.2504(4) 0.3493(4)
C5B C 0.0786(8) -0.2139(5) 0.4033(4)
C6B C 0.1518(7) -0.2199(4) 0.4675(4)
H2B H 0.1304 -0.1968 0.5043
C7B C 0.3259(7) -0.2672(5) 0.5505(4)
C8B C 0.4093(7) -0.3313(5) 0.4295(4)
C9B C 0.0433(7) -0.2415(5) 0.2785(4)
C10B C -0.0347(8) -0.1721(5) 0.3945(4)
C16B C -0.4552(8) -0.2068(5) 0.1726(4)
C17B C -0.4872(7) -0.2439(4) 0.2289(4)
C18B C -0.5882(7) -0.2858(5) 0.2170(4)
H4B H -0.6056 -0.3124 0.2524
C19B C -0.6646(7) -0.2891(4) 0.1531(4)
C20B C -0.6343(7) -0.2529(4) 0.0992(4)
C21B C -0.5313(8) -0.2118(5) 0.1095(4)
H5B H -0.5131 -0.1870 0.0730
C22B C -0.3398(8) -0.1677(4) 0.1773(4)
C23B C -0.4178(7) -0.2349(5) 0.2994(4)
C24B C -0.7849(8) -0.3279(5) 0.1463(4)
C25B C -0.7023(7) -0.2594(5) 0.0273(4)
O1B O 0.3602(6) -0.2168(3) 0.5840(3)
O2B O 0.3406(5) -0.3245(3) 0.5731(3)
O3B O 0.5030(5) -0.3058(3) 0.4675(3)
O4B O 0.4201(5) -0.3805(3) 0.3938(3)
O5B O 0.0367(6) -0.2881(3) 0.2367(3)
O6B O 0.0010(5) -0.1849(3) 0.2630(3)
O7B O -0.1376(5) -0.2048(3) 0.3857(3)
O8B O -0.0268(6) -0.1125(4) 0.3970(3)
O13B O -0.2407(5) -0.1979(3) 0.1962(3)
O14B O -0.3493(6) -0.1094(3) 0.1576(3)
O15B O -0.3755(5) -0.1779(3) 0.3145(3)
O16B O -0.4087(6) -0.2814(3) 0.3408(3)
O17B O -0.7934(5) -0.3798(3) 0.1777(3)
O18B O -0.8779(5) -0.3010(3) 0.1104(3)
O19B O -0.7305(5) -0.2088(3) -0.0079(3)
O20B O -0.7214(5) -0.3176(3) 0.0059(3)
O21B O 0.4878(5) -0.0894(3) 0.5353(3)
O22B O 0.4985(6) -0.0040(3) 0.6556(3)
O23B O 0.4859(8) -0.0795(4) 0.7735(4)
O24B O 0.2875(5) -0.1710(3) 0.7142(3)
O25B O -0.6646(5) -0.1639(3) -0.1422(3)
O26B O -0.8842(8) -0.0804(4) -0.2009(4)
O27B O -0.8880(8) -0.0057(4) -0.0799(4)
O28B O -0.6481(7) -0.0630(4) -0.0373(4)
O29B O -0.8806(7) -0.0841(3) 0.0317(3)
O30B O 0.0863(5) -0.1738(3) 0.1362(3)
O31B O -0.0753(10) -0.0668(4) 0.1900(4)
O32B O -0.4663(5) -0.1778(3) 0.4390(3)
Nd1A Nd -1.03743(4) -0.37212(3) 0.15448(2)
Nd1A_2 Nd -0.03743(4) -0.37212(3) 0.15448(2)
Nd1C Nd 0.03743(4) 0.37212(3) 0.84552(2)
Nd1C_2 Nd 1.03743(4) 0.37212(3) 0.84552(2)
Nd2A Nd -0.34111(4) -0.37302(3) 0.41803(2)
Nd2A_2 Nd 0.65889(4) -0.37302(3) 0.41803(2)
Nd2C Nd -0.65889(4) 0.37302(3) 0.58197(2)
Nd2C_2 Nd 0.34111(4) 0.37302(3) 0.58197(2)
Cu1A Cu 0.41986(9) -0.32609(5) 0.66849(5)
Cu1C Cu -0.41986(9) 0.32609(5) 0.33151(5)
Cu2A Cu -0.79529(9) -0.32663(5) -0.08979(5)
Cu2C Cu 0.79529(9) 0.32663(5) 1.08979(5)
O1A O -0.1398(6) -0.2832(3) 0.0840(3)
O1C O 0.1398(6) 0.2832(3) 0.9160(3)
O2A O -0.1594(5) -0.1755(3) 0.0731(3)
O2C O 0.1594(5) 0.1755(3) 0.9269(3)
O3A O -0.9970(5) -0.1942(3) -0.0325(3)
O3C O 0.9970(5) 0.1942(3) 1.0325(3)
O4A O -1.0799(5) -0.1195(3) -0.1062(3)
O4C O 1.0799(5) 0.1195(3) 1.1062(3)
O5A O 0.5367(6) -0.2119(3) 0.7367(3)
O5C O -0.5367(6) 0.2119(3) 0.2633(3)
O16A O -0.9087(6) -0.2186(3) -0.1592(3)
O16C O 0.9087(6) 0.2186(3) 1.1592(3)
O17A O 0.7066(5) -0.1202(3) 0.6777(3)
O17C O -0.7066(5) 0.1202(3) 0.3223(3)
O18A O 0.6221(5) -0.1990(3) 0.6104(3)
O18C O -0.6221(5) 0.1990(3) 0.3896(3)
O20A O -0.2214(5) -0.1824(3) 0.5059(3)
O20C O 0.2214(5) 0.1824(3) 0.4941(3)
O33 O 0.7511(8) -0.0230(5) 0.9108(5)
O34 O 0.8122(7) 0.0578(4) 0.6282(4)
O35 O 0.6151(8) -0.0748(5) 1.0113(5)
O36 O 0.5540(9) 0.0395(5) 0.8249(7)
O37 O 0.1953(10) 0.0433(5) 0.7074(5)
O38 O 0.8613(10) -0.0182(6) 0.7441(5)
O39 O 0.7382(13) 0.1057(9) 0.7870(8)
O40 O 0.6394(13) 0.1251(11) 0.6691(8)
loop_
_geom_bond_atom_site_label_1
_geom_bond_atom_site_label_2
_geom_bond_site_symmetry_1
_geom_bond_site_symmetry_2
Nd1 O1 1_555 1_555
Nd2 O19 1_555 1_555
Cu1 O6 1_555 1_555
Cu2 O7 1_555 1_555
C1 C2 1_555 1_555
C2 C3 1_555 1_555
C3 H1 1_555 1_555
C4 C3 1_555 1_555
C5 C4 1_555 1_555
C6 C1 1_555 1_555
H2 C6 1_555 1_555
C7 C1 1_555 1_555
C8 C2 1_555 1_555
C9 C4 1_555 1_555
C10 C5 1_555 1_555
C11 C12 1_555 1_555
C12 C13 1_555 1_555
C13 H3 1_555 1_555
C14 C11 1_555 1_555
C15 C12 1_555 1_555
C16 C17 1_555 1_555
C17 C18 1_555 1_555
C18 H4 1_555 1_555
C19 C18 1_555 1_555
C20 C19 1_555 1_555
C21 C16 1_555 1_555
H5 C21 1_555 1_555
C22 C16 1_555 1_555
C23 C17 1_555 1_555
C24 C19 1_555 1_555
C25 C20 1_555 1_555
O1 C7 1_555 1_555
O2 C7 1_555 1_555
O3 C8 1_555 1_555
O4 C8 1_555 1_555
O5 C9 1_555 1_555
O6 C9 1_555 1_555
O7 C10 1_555 1_555
O8 C10 1_555 1_555
O9 C14 1_555 1_555
O10 C14 1_555 1_555
O11 Nd1 1_555 1_555
O12 C15 1_555 1_555
O13 Cu1 1_555 1_555
O14 C22 1_555 1_555
O15 Cu2 1_555 1_555
O16 Cu2 1_555 1_555
O17 C24 1_555 1_555
O18 C24 1_555 1_555
O19 C25 1_555 1_555
O20 C25 1_555 1_555
O21 Nd1 1_555 1_555
O22 Nd1 1_555 1_555
O23 Nd1 1_555 1_555
O24 Nd1 1_555 1_555
O25 Nd2 1_555 1_555
O26 Nd2 1_555 1_555
O27 Nd2 1_555 1_555
O28 Nd2 1_555 1_555
O29 Nd2 1_555 1_555
O30 Cu1 1_555 1_555
O31 Cu1 1_555 1_555
O32 Cu2 1_555 1_555
C11B C13 1_555 1_555
C12B C11B 1_555 1_555
C13B C11 1_555 1_555
H3B C13B 1_555 1_555
C14B C11B 1_555 1_555
C15B C12B 1_555 1_555
O9B Cu2 1_555 1_555
O10B C14B 1_555 1_555
O11B C15B 1_555 1_555
O12B C15B 1_555 1_555
Nd1B O11B 1_555 1_555
Nd2B O19B 1_555 1_555
Cu1B O6B 1_555 1_555
Cu2B O9 1_555 1_555
C1B C2B 1_555 1_555
C2B C3B 1_555 1_555
C3B H1B 1_555 1_555
C4B C3B 1_555 1_555
C5B C4B 1_555 1_555
C6B C1B 1_555 1_555
H2B C6B 1_555 1_555
C7B C1B 1_555 1_555
C8B C2B 1_555 1_555
C9B C4B 1_555 1_555
C10B C5B 1_555 1_555
C16B C17B 1_555 1_555
C17B C18B 1_555 1_555
C18B H4B 1_555 1_555
C19B C18B 1_555 1_555
C20B C19B 1_555 1_555
C21B C16B 1_555 1_555
H5B C21B 1_555 1_555
C22B C16B 1_555 1_555
C23B C17B 1_555 1_555
C24B C19B 1_555 1_555
C25B C20B 1_555 1_555
O1B Nd1B 1_555 1_555
O2B C7B 1_555 1_555
O3B C8B 1_555 1_555
O4B C8B 1_555 1_555
O5B C9B 1_555 1_555
O6B C9B 1_555 1_555
O7B Cu2B 1_555 1_555
O8B C10B 1_555 1_555
O13B Cu1B 1_555 1_555
O14B C22B 1_555 1_555
O15B Cu2B 1_555 1_555
O16B Cu2B 1_555 1_555
O17B C24B 1_555 1_555
O18B C24B 1_555 1_555
O19B C25B 1_555 1_555
O20B C25B 1_555 1_555
O21B Nd1B 1_555 1_555
O22B Nd1B 1_555 1_555
O23B Nd1B 1_555 1_555
O24B Nd1B 1_555 1_555
O25B Nd2B 1_555 1_555
O26B Nd2B 1_555 1_555
O27B Nd2B 1_555 1_555
O28B Nd2B 1_555 1_555
O29B Nd2B 1_555 1_555
O30B Cu1B 1_555 1_555
O31B Cu1B 1_555 1_555
O32B Cu2B 1_555 1_555
Nd1A O17B 1_555 1_555
Nd1A_2 O5B 1_555 1_555
Nd1C O5 1_555 1_555
Nd1C_2 O17 1_555 1_555
Nd2A O16B 1_555 1_555
Nd2A_2 O3B 1_555 1_555
Nd2C O3 1_555 1_555
Nd2C_2 O16 1_555 1_555
Cu1A O1B 1_555 1_555
Cu1C O1 1_555 1_555
Cu2A O20B 1_555 1_555
Cu2C O20 1_555 1_555
O1A Cu1B 1_555 1_555
O1C Cu1 1_555 1_555
O2A Cu1B 1_555 1_555
O2C Cu1 1_555 1_555
O3A Nd2B 1_555 1_555
O3C Nd2 1_555 1_555
O4A Nd2B 1_555 1_555
O4C Nd2 1_555 1_555
O5A Nd1B 1_555 1_555
O5C Nd1 1_555 1_555
O16A Nd2B 1_555 1_555
O16C Nd2 1_555 1_555
O17A Nd1B 1_555 1_555
O17C Nd1 1_555 1_555
O18A Nd1B 1_555 1_555
O18C Nd1 1_555 1_555
O20A Cu2B 1_555 1_555
O20C Cu2 1_555 1_555
C5 C6 1_555 1_555
C15 O11 1_555 1_555
C20 C21 1_555 1_555
C22 O13 1_555 1_555
C23 O15 1_555 1_555
C23 O16 1_555 1_555
O2 Cu1C 1_555 1_555
O4 Nd2C 1_555 1_555
O18 Nd1C_2 1_555 1_555
C12B C13B 1_555 1_555
C14B O9B 1_555 1_555
C5B C6B 1_555 1_555
C7B O1B 1_555 1_555
C10B O7B 1_555 1_555
C20B C21B 1_555 1_555
C22B O13B 1_555 1_555
C23B O15B 1_555 1_555
C23B O16B 1_555 1_555
O2B Cu1A 1_555 1_555
O4B Nd2A_2 1_555 1_555
O18B Nd1A 1_555 1_555
Nd1A_2 O1A 1_555 1_555
Nd1C O1C 1_555 1_555
Cu2A O16A 1_555 1_555
Cu2C O16C 1_555 1_555

#END
