
#######################################################################
#
#                 Cambridge Crystallographic Data Centre
#                                CCDC 
#
#######################################################################
#
# If this CIF has been generated from an entry in the Cambridge 
# Structural Database, then it will include bibliographic, chemical, 
# crystal, experimental, refinement or atomic coordinate data resulting 
# from the CCDC's data processing and validation procedures.
#
#######################################################################

data_VIWMOF
_symmetry_cell_setting           cubic
_symmetry_space_group_name_H-M   'F 2 3'
_symmetry_Int_Tables_number      196
_space_group_name_Hall           'F 2 2 3'
loop_
_symmetry_equiv_pos_site_id
_symmetry_equiv_pos_as_xyz
1 x,y,z
2 -x,-y,z
3 -x,y,-z
4 x,-y,-z
5 z,x,y
6 z,-x,-y
7 -z,-x,y
8 -z,x,-y
9 y,z,x
10 -y,z,-x
11 y,-z,-x
12 -y,-z,x
13 x,1/2+y,1/2+z
14 -x,1/2-y,1/2+z
15 -x,1/2+y,1/2-z
16 x,1/2-y,1/2-z
17 z,1/2+x,1/2+y
18 z,1/2-x,1/2-y
19 -z,1/2-x,1/2+y
20 -z,1/2+x,1/2-y
21 y,1/2+z,1/2+x
22 -y,1/2+z,1/2-x
23 y,1/2-z,1/2-x
24 -y,1/2-z,1/2+x
25 1/2+x,y,1/2+z
26 1/2-x,-y,1/2+z
27 1/2-x,y,1/2-z
28 1/2+x,-y,1/2-z
29 1/2+z,x,1/2+y
30 1/2+z,-x,1/2-y
31 1/2-z,-x,1/2+y
32 1/2-z,x,1/2-y
33 1/2+y,z,1/2+x
34 1/2-y,z,1/2-x
35 1/2+y,-z,1/2-x
36 1/2-y,-z,1/2+x
37 1/2+x,1/2+y,z
38 1/2-x,1/2-y,z
39 1/2-x,1/2+y,-z
40 1/2+x,1/2-y,-z
41 1/2+z,1/2+x,y
42 1/2+z,1/2-x,-y
43 1/2-z,1/2-x,y
44 1/2-z,1/2+x,-y
45 1/2+y,1/2+z,x
46 1/2-y,1/2+z,-x
47 1/2+y,1/2-z,-x
48 1/2-y,1/2-z,x
_cell_length_a                   25.704(3)
_cell_length_b                   25.704(3)
_cell_length_c                   25.704(3)
_cell_angle_alpha                90
_cell_angle_beta                 90
_cell_angle_gamma                90
_cell_volume                     16982.5
loop_
_atom_site_label
_atom_site_type_symbol
_atom_site_fract_x
_atom_site_fract_y
_atom_site_fract_z
Cd1 Cd 0.199490(18) 0.800510(18) 0.300510(18)
O1 O 0.2022(2) 0.7022(2) 0.2978(2)
H1 H 0.1802 0.6802 0.3198
N1 N 0.1971(3) 0.8035(2) 0.3917(2)
C1 C 0.2359(3) 0.8123(3) 0.4235(3)
H2 H 0.2703 0.8148 0.4125
N2 N 0.2212(3) 0.8175(2) 0.4745(2)
C2 C 0.1552(4) 0.8030(5) 0.4233(3)
H3 H 0.1212 0.7999 0.4112
C3 C 0.1667(4) 0.8070(6) 0.4709(4)
H4 H 0.1438 0.8037 0.4987
C4 C 0.2520(4) 0.8254(3) 0.5214(4)
C5 C 0.3119(6) 0.8398(4) 0.6073(4)
C6 C 0.3341(4) 0.8274(5) 0.5660(5)
H5 H 0.3701 0.8240 0.5651
C7 C 0.2291(4) 0.8342(4) 0.5692(4)
H6 H 0.1931 0.8341 0.5727
C8 C 0.2598(5) 0.8428(5) 0.6106(4)
H7 H 0.2446 0.8511 0.6424
C9 C 0.3024(4) 0.8179(4) 0.5176(4)
H8 H 0.3178 0.8072 0.4866
N3 N 0.3432(4) 0.8432(4) 0.6568(4)
N1S N 0.6083(2) 0.6971(3) 0.6965(2)
C1S C 0.5765(3) 0.7359(3) 0.6877(3)
H2S H 0.5875 0.7703 0.6852
N2S N 0.5255(2) 0.7212(3) 0.6825(2)
C2S C 0.5767(3) 0.6552(4) 0.6970(5)
H3S H 0.5888 0.6212 0.7001
C3S C 0.5291(4) 0.6667(4) 0.6930(6)
H4S H 0.5013 0.6438 0.6963
C4S C 0.4786(4) 0.7520(4) 0.6746(3)
C5S C 0.3927(4) 0.8119(6) 0.6602(4)
C6S C 0.4340(5) 0.8341(4) 0.6726(5)
H5S H 0.4349 0.8701 0.6760
C7S C 0.4308(4) 0.7291(4) 0.6658(4)
H6S H 0.4273 0.6931 0.6659
C8S C 0.3894(4) 0.7598(5) 0.6572(5)
H7S H 0.3576 0.7446 0.6489
C9S C 0.4824(4) 0.8024(4) 0.6821(4)
H8S H 0.5134 0.8178 0.6928
N1TA N 0.3035(2) 1.1083(2) 0.8029(3)
C1TA C 0.3123(3) 1.0765(3) 0.7641(3)
H2TA H 0.3148 1.0875 0.7297
N2TA N 0.3175(2) 1.0255(2) 0.7788(3)
C2TA C 0.3030(5) 1.0767(3) 0.8448(4)
H3TA H 0.2999 1.0888 0.8788
C3TA C 0.3070(6) 1.0291(4) 0.8333(4)
H4TA H 0.3037 1.0013 0.8562
C4TA C 0.3254(3) 0.9786(4) 0.7480(4)
C5TA C 0.3398(4) 0.8927(4) 0.6881(6)
C6TA C 0.3274(5) 0.9340(5) 0.6659(4)
H5TA H 0.3240 0.9349 0.6299
C7TA C 0.3342(4) 0.9308(4) 0.7709(4)
H6TA H 0.3341 0.9273 0.8069
C8TA C 0.3428(5) 0.8894(4) 0.7402(5)
H7TA H 0.3511 0.8576 0.7554
C9TA C 0.3179(4) 0.9824(4) 0.6976(4)
H8TA H 0.3072 1.0134 0.6822
Cd1D Cd 0.300510(18) 1.199490(18) 0.800510(18)
Cd1K Cd 0.199490(18) 0.699490(18) 0.199490(18)
Cd1P Cd 0.300510(18) 0.699490(18) 0.300510(18)
Cd1S Cd 0.699490(18) 0.699490(18) 0.699490(18)
O1E O 0.2978(2) 0.7978(2) 0.2978(2)
O1O O 0.2022(2) 0.7978(2) 0.2022(2)
N1U N 0.1965(2) 0.8917(2) 0.3029(3)
N1DA N 0.1083(2) 0.8029(3) 0.3035(2)
loop_
_geom_bond_atom_site_label_1
_geom_bond_atom_site_label_2
_geom_bond_site_symmetry_1
_geom_bond_site_symmetry_2
Cd1 O1 1_555 1_555
O1 H1 1_555 1_555
N1 Cd1 1_555 1_555
C1 N1 1_555 1_555
H2 C1 1_555 1_555
N2 C1 1_555 1_555
C2 N1 1_555 1_555
H3 C2 1_555 1_555
C3 N2 1_555 1_555
H4 C3 1_555 1_555
C4 N2 1_555 1_555
C5 C6 1_555 1_555
C6 H5 1_555 1_555
C7 C4 1_555 1_555
H6 C7 1_555 1_555
C8 C5 1_555 1_555
H7 C8 1_555 1_555
C9 C4 1_555 1_555
H8 C9 1_555 1_555
N3 C5 1_555 1_555
N1S C1S 1_555 1_555
C1S H2S 1_555 1_555
N2S C1S 1_555 1_555
C2S N1S 1_555 1_555
H3S C2S 1_555 1_555
C3S N2S 1_555 1_555
H4S C3S 1_555 1_555
C4S N2S 1_555 1_555
C5S N3 1_555 1_555
C6S C5S 1_555 1_555
H5S C6S 1_555 1_555
C7S C4S 1_555 1_555
H6S C7S 1_555 1_555
C8S C5S 1_555 1_555
H7S C8S 1_555 1_555
C9S C4S 1_555 1_555
H8S C9S 1_555 1_555
N1TA C1TA 1_555 1_555
C1TA H2TA 1_555 1_555
N2TA C1TA 1_555 1_555
C2TA N1TA 1_555 1_555
H3TA C2TA 1_555 1_555
C3TA N2TA 1_555 1_555
H4TA C3TA 1_555 1_555
C4TA N2TA 1_555 1_555
C5TA N3 1_555 1_555
C6TA C5TA 1_555 1_555
H5TA C6TA 1_555 1_555
C7TA C4TA 1_555 1_555
H6TA C7TA 1_555 1_555
C8TA C5TA 1_555 1_555
H7TA C8TA 1_555 1_555
C9TA C4TA 1_555 1_555
H8TA C9TA 1_555 1_555
Cd1D N1TA 1_555 1_555
Cd1K O1 1_555 1_555
Cd1P O1 1_555 1_555
Cd1S N1S 1_555 1_555
O1E Cd1 1_555 1_555
O1O Cd1 1_555 1_555
N1U Cd1 1_555 1_555
N1DA Cd1 1_555 1_555
C2 C3 1_555 1_555
C6 C9 1_555 1_555
C7 C8 1_555 1_555
C2S C3S 1_555 1_555
C6S C9S 1_555 1_555
C7S C8S 1_555 1_555
C2TA C3TA 1_555 1_555
C6TA C9TA 1_555 1_555
C7TA C8TA 1_555 1_555
Cd1K O1O 1_555 1_555
Cd1P O1E 1_555 1_555

#END
