
#######################################################################
#
#                 Cambridge Crystallographic Data Centre
#                                CCDC 
#
#######################################################################
#
# If this CIF has been generated from an entry in the Cambridge 
# Structural Database, then it will include bibliographic, chemical, 
# crystal, experimental, refinement or atomic coordinate data resulting 
# from the CCDC's data processing and validation procedures.
#
#######################################################################

data_VIWMIZ
_symmetry_cell_setting           cubic
_symmetry_space_group_name_H-M   'F 2 3'
_symmetry_Int_Tables_number      196
_space_group_name_Hall           'F 2 2 3'
loop_
_symmetry_equiv_pos_site_id
_symmetry_equiv_pos_as_xyz
1 x,y,z
2 -x,-y,z
3 -x,y,-z
4 x,-y,-z
5 z,x,y
6 z,-x,-y
7 -z,-x,y
8 -z,x,-y
9 y,z,x
10 -y,z,-x
11 y,-z,-x
12 -y,-z,x
13 x,1/2+y,1/2+z
14 -x,1/2-y,1/2+z
15 -x,1/2+y,1/2-z
16 x,1/2-y,1/2-z
17 z,1/2+x,1/2+y
18 z,1/2-x,1/2-y
19 -z,1/2-x,1/2+y
20 -z,1/2+x,1/2-y
21 y,1/2+z,1/2+x
22 -y,1/2+z,1/2-x
23 y,1/2-z,1/2-x
24 -y,1/2-z,1/2+x
25 1/2+x,y,1/2+z
26 1/2-x,-y,1/2+z
27 1/2-x,y,1/2-z
28 1/2+x,-y,1/2-z
29 1/2+z,x,1/2+y
30 1/2+z,-x,1/2-y
31 1/2-z,-x,1/2+y
32 1/2-z,x,1/2-y
33 1/2+y,z,1/2+x
34 1/2-y,z,1/2-x
35 1/2+y,-z,1/2-x
36 1/2-y,-z,1/2+x
37 1/2+x,1/2+y,z
38 1/2-x,1/2-y,z
39 1/2-x,1/2+y,-z
40 1/2+x,1/2-y,-z
41 1/2+z,1/2+x,y
42 1/2+z,1/2-x,-y
43 1/2-z,1/2-x,y
44 1/2-z,1/2+x,-y
45 1/2+y,1/2+z,x
46 1/2-y,1/2+z,-x
47 1/2+y,1/2-z,-x
48 1/2-y,1/2-z,x
_cell_length_a                   25.3961(9)
_cell_length_b                   25.3961(9)
_cell_length_c                   25.3961(9)
_cell_angle_alpha                90
_cell_angle_beta                 90
_cell_angle_gamma                90
_cell_volume                     16379.5
loop_
_atom_site_label
_atom_site_type_symbol
_atom_site_fract_x
_atom_site_fract_y
_atom_site_fract_z
Cd1 Cd 0.20011(2) 0.29989(2) 0.20011(2)
O1 O 0.2964(3) 0.2964(3) 0.2036(3)
H1 H 0.3192 0.3192 0.1808
C1 C 0.1890(5) 0.4234(4) 0.2379(4)
H2 H 0.1864 0.4126 0.2737
C2 C 0.1960(6) 0.4243(4) 0.1574(4)
H3 H 0.2010 0.4142 0.1217
C3 C 0.1866(5) 0.4723(4) 0.1715(5)
H4 H 0.1824 0.5016 0.1487
C4 C 0.1770(4) 0.5182(3) 0.2536(3)
C5 C 0.1659(4) 0.5659(3) 0.2292(3)
H5 H 0.1652 0.5681 0.1918
C6 C 0.1559(4) 0.6105(3) 0.2593(3)
H6 H 0.1483 0.6431 0.2426
C7 C 0.1569(5) 0.6073(3) 0.3140(3)
C8 C 0.1680(5) 0.5596(3) 0.3384(3)
H7 H 0.1687 0.5574 0.3758
C9 C 0.1780(4) 0.5150(3) 0.3082(3)
H8 H 0.1855 0.4824 0.3249
N1 N 0.1980(4) 0.3893(3) 0.1982(3)
N2 N 0.1841(4) 0.4730(3) 0.2229(4)
N3 N 0.1553(7) 0.6553(7) 0.3447(7)
C1HA C -0.0766(4) 0.7621(4) 0.3110(5)
H2HA H -0.0874 0.7263 0.3136
C2HA C -0.0757(4) 0.8426(4) 0.3040(6)
H3HA H -0.0858 0.8783 0.2990
C3HA C -0.0277(4) 0.8285(5) 0.3134(5)
H4HA H 0.0016 0.8513 0.3176
C4HA C 0.0182(3) 0.7464(3) 0.3230(4)
C5HA C 0.0659(3) 0.7708(3) 0.3341(4)
H5HA H 0.0681 0.8082 0.3348
C6HA C 0.1105(3) 0.7407(3) 0.3441(4)
H6HA H 0.1431 0.7574 0.3517
C7HA C 0.1073(3) 0.6860(3) 0.3431(5)
C8HA C 0.0596(3) 0.6616(3) 0.3320(5)
H7HA H 0.0574 0.6242 0.3313
C9HA C 0.0150(3) 0.6918(3) 0.3220(4)
H8HA H -0.0176 0.6751 0.3145
N1HA N -0.1107(3) 0.8018(3) 0.3020(4)
N2HA N -0.0270(3) 0.7771(4) 0.3159(4)
C1QA C 0.2621(4) 0.6890(5) 0.5766(4)
H2QA H 0.2263 0.6864 0.5874
C2QA C 0.3426(4) 0.6960(6) 0.5757(4)
H3QA H 0.3783 0.7010 0.5858
C3QA C 0.3285(5) 0.6866(5) 0.5277(4)
H4QA H 0.3513 0.6824 0.4984
C4QA C 0.2464(3) 0.6770(4) 0.4818(3)
C5QA C 0.2708(3) 0.6659(4) 0.4341(3)
H5QA H 0.3082 0.6652 0.4319
C6QA C 0.2407(3) 0.6559(4) 0.3895(3)
H6QA H 0.2574 0.6483 0.3569
C7QA C 0.1860(3) 0.6569(5) 0.3927(3)
C8QA C 0.1616(3) 0.6680(5) 0.4404(3)
H7QA H 0.1242 0.6687 0.4426
C9QA C 0.1918(3) 0.6780(4) 0.4850(3)
H8QA H 0.1751 0.6855 0.5176
N1QA N 0.3018(3) 0.6980(4) 0.6107(3)
N2QA N 0.2771(4) 0.6841(4) 0.5270(3)
Cd1F Cd -0.20011(2) 0.79989(2) 0.29989(2)
Cd1H Cd 0.29989(2) 0.20011(2) 0.20011(2)
Cd1T Cd 0.29989(2) 0.70011(2) 0.70011(2)
Cd1V Cd 0.29989(2) 0.29989(2) 0.29989(2)
O1D O 0.2036(3) 0.2964(3) 0.2964(3)
O1Q O 0.2036(3) 0.2036(3) 0.2036(3)
N1Q N 0.1982(3) 0.3020(4) 0.1107(3)
N1UA N 0.1107(3) 0.3018(3) 0.1980(4)
loop_
_geom_bond_atom_site_label_1
_geom_bond_atom_site_label_2
_geom_bond_site_symmetry_1
_geom_bond_site_symmetry_2
Cd1 O1 1_555 1_555
O1 H1 1_555 1_555
C1 H2 1_555 1_555
C2 H3 1_555 1_555
C3 C2 1_555 1_555
H4 C3 1_555 1_555
C4 C5 1_555 1_555
C5 H5 1_555 1_555
C6 C5 1_555 1_555
H6 C6 1_555 1_555
C7 C6 1_555 1_555
C8 C7 1_555 1_555
H7 C8 1_555 1_555
C9 C4 1_555 1_555
H8 C9 1_555 1_555
N1 Cd1 1_555 1_555
N2 C1 1_555 1_555
N3 C7 1_555 1_555
C1HA H2HA 1_555 1_555
C2HA H3HA 1_555 1_555
C3HA C2HA 1_555 1_555
H4HA C3HA 1_555 1_555
C4HA C5HA 1_555 1_555
C5HA H5HA 1_555 1_555
C6HA C5HA 1_555 1_555
H6HA C6HA 1_555 1_555
C7HA N3 1_555 1_555
C8HA C7HA 1_555 1_555
H7HA C8HA 1_555 1_555
C9HA C4HA 1_555 1_555
H8HA C9HA 1_555 1_555
N1HA C1HA 1_555 1_555
N2HA C1HA 1_555 1_555
C1QA H2QA 1_555 1_555
C2QA H3QA 1_555 1_555
C3QA C2QA 1_555 1_555
H4QA C3QA 1_555 1_555
C4QA C5QA 1_555 1_555
C5QA H5QA 1_555 1_555
C6QA C5QA 1_555 1_555
H6QA C6QA 1_555 1_555
C7QA N3 1_555 1_555
C8QA C7QA 1_555 1_555
H7QA C8QA 1_555 1_555
C9QA C4QA 1_555 1_555
H8QA C9QA 1_555 1_555
N1QA C1QA 1_555 1_555
N2QA C1QA 1_555 1_555
Cd1F N1HA 1_555 1_555
Cd1H O1 1_555 1_555
Cd1T N1QA 1_555 1_555
Cd1V O1 1_555 1_555
O1D Cd1 1_555 1_555
O1Q Cd1 1_555 1_555
N1Q Cd1 1_555 1_555
N1UA Cd1 1_555 1_555
C1 N1 1_555 1_555
C2 N1 1_555 1_555
C3 N2 1_555 1_555
C4 N2 1_555 1_555
C8 C9 1_555 1_555
C2HA N1HA 1_555 1_555
C3HA N2HA 1_555 1_555
C4HA N2HA 1_555 1_555
C6HA C7HA 1_555 1_555
C8HA C9HA 1_555 1_555
C2QA N1QA 1_555 1_555
C3QA N2QA 1_555 1_555
C4QA N2QA 1_555 1_555
C6QA C7QA 1_555 1_555
C8QA C9QA 1_555 1_555
Cd1H O1Q 1_555 1_555
Cd1V O1D 1_555 1_555

#END
