
#######################################################################
#
#                 Cambridge Crystallographic Data Centre
#                                CCDC 
#
#######################################################################
#
# If this CIF has been generated from an entry in the Cambridge 
# Structural Database, then it will include bibliographic, chemical, 
# crystal, experimental, refinement or atomic coordinate data resulting 
# from the CCDC's data processing and validation procedures.
#
#######################################################################

data_VIWMUK
_symmetry_cell_setting           triclinic
_symmetry_space_group_name_H-M   'P -1'
_symmetry_Int_Tables_number      2
_space_group_name_Hall           '-P 1'
loop_
_symmetry_equiv_pos_site_id
_symmetry_equiv_pos_as_xyz
1 x,y,z
2 -x,-y,-z
_cell_length_a                   10.8111(4)
_cell_length_b                   12.1660(5)
_cell_length_c                   14.0402(5)
_cell_angle_alpha                96.0940(10)
_cell_angle_beta                 93.1690(10)
_cell_angle_gamma                113.8480(10)
_cell_volume                     1669.65
loop_
_atom_site_label
_atom_site_type_symbol
_atom_site_fract_x
_atom_site_fract_y
_atom_site_fract_z
Bi1 Bi 0.187854(12) 0.622892(10) 0.307230(9)
Bi2 Bi -0.184337(12) 0.356548(10) 0.178059(9)
O1 O 0.0427(2) 0.3934(2) 0.26028(18)
O2 O 0.0375(3) 0.2059(2) 0.23943(18)
O3 O 0.4159(2) 0.7303(2) 0.35552(17)
O4 O 0.6152(3) 0.7375(2) 0.41582(19)
O5 O 0.1821(3) 0.8179(2) 0.39201(17)
O6 O 0.2563(3) 1.0190(2) 0.39225(18)
O7 O 0.2296(2) 0.5669(2) 0.15750(17)
O8 O 0.2740(3) 0.6124(2) 0.01038(17)
O9 O -0.0239(2) 0.5885(2) 0.20041(18)
O10 O -0.0098(2) 0.7798(2) 0.21948(19)
O11 O -0.4218(2) 0.2606(2) 0.15982(18)
O12 O -0.6215(2) 0.2613(2) 0.11226(19)
O13 O 0.1855(3) 0.5630(2) 0.66433(17)
O14 O 0.2198(3) 0.5886(2) 0.51207(18)
O15 O 0.2214(2) 0.8519(2) 0.89877(17)
O16 O 0.2602(3) 1.0419(2) 0.87588(18)
N1 N 0.3057(3) 0.4903(3) 0.3281(2)
N2 N 0.2716(3) 0.7927(2) 0.2211(2)
N3 N -0.2965(3) 0.4993(2) 0.1700(2)
N4 N 0.2525(3) 0.7964(2) 0.7158(2)
C1 C 0.0944(4) 0.3157(3) 0.2662(2)
C2 C 0.2423(4) 0.3687(3) 0.3098(2)
C3 C 0.3090(4) 0.2964(3) 0.3301(2)
H1 H 0.2627 0.2105 0.3175
C4 C 0.4432(4) 0.3505(3) 0.3688(3)
H2 H 0.4899 0.3021 0.3841
C5 C 0.5101(4) 0.4771(3) 0.3854(3)
H3 H 0.6033 0.5165 0.4104
C6 C 0.4356(3) 0.5435(3) 0.3640(2)
C7 C 0.4970(3) 0.6814(3) 0.3806(2)
C8 C 0.2402(3) 0.9155(3) 0.3569(3)
C9 C 0.2945(3) 0.9050(3) 0.2603(2)
C10 C 0.3618(3) 1.0040(3) 0.2131(3)
H4 H 0.3786 1.0838 0.2414
C11 C 0.4038(4) 0.9842(3) 0.1244(3)
H5 H 0.4521 1.0509 0.0918
C12 C 0.3756(3) 0.8668(3) 0.0827(3)
H6 H 0.4016 0.8513 0.0209
C13 C 0.3087(3) 0.7735(3) 0.1339(2)
C14 C 0.2686(3) 0.6421(3) 0.0956(2)
C15 C -0.0753(4) 0.6690(3) 0.2024(2)
C16 C -0.2269(3) 0.6196(3) 0.1788(2)
C17 C -0.2899(4) 0.6960(3) 0.1640(3)
H7 H -0.2392 0.7816 0.1732
C18 C -0.4288(4) 0.6453(3) 0.1355(3)
H8 H -0.4743 0.6955 0.1229
C19 C -0.5008(4) 0.5192(3) 0.1255(3)
H9 H -0.5959 0.4819 0.1062
C20 C -0.4299(3) 0.4504(3) 0.1445(2)
C21 C -0.4988(3) 0.3139(3) 0.1373(2)
C22 C 0.2236(3) 0.6285(3) 0.5981(3)
C23 C 0.2778(3) 0.7640(3) 0.6278(2)
C24 C 0.3469(3) 0.8492(3) 0.5702(2)
H10 H 0.3693 0.8251 0.5093
C25 C 0.3832(3) 0.9717(3) 0.6035(3)
H11 H 0.4301 1.0325 0.5652
C26 C 0.3498(3) 1.0034(3) 0.6934(3)
H12 H 0.3702 1.0858 0.7166
C27 C 0.2863(3) 0.9129(3) 0.7482(2)
C28 C 0.2530(3) 0.9378(3) 0.8490(3)
O17 O 0.0082(3) 0.3774(2) 0.0319(2)
H13 H 0.0826 0.4211 0.0666
H14 H 0.0135 0.4062 -0.0211
Bi1A Bi -0.187854(12) 0.377108(10) -0.307230(9)
Bi1A_2 Bi -0.187854(12) 0.377108(10) 0.692770(9)
Bi2A Bi 0.184337(12) 0.643452(10) -0.178059(9)
Bi2A_2 Bi 0.184337(12) 0.643452(10) 0.821941(9)
O1A O -0.0427(2) 0.6066(2) -0.26028(18)
O2A O -0.0375(3) 0.7941(2) -0.23943(18)
O3A O -0.4159(2) 0.2697(2) -0.35552(17)
O4A O -0.6152(3) 0.2625(2) -0.41582(19)
O5A O -0.1821(3) 0.1821(2) -0.39201(17)
O6A O -0.2563(3) -0.0190(2) -0.39225(18)
O7A O -0.2296(2) 0.4331(2) -0.15750(17)
O8A O -0.2740(3) 0.3876(2) -0.01038(17)
O9A O 0.0239(2) 0.4115(2) -0.20041(18)
O10A O 0.0098(2) 0.2202(2) -0.21948(19)
O11A O 0.4218(2) 0.7394(2) -0.15982(18)
O12A O 0.6215(2) 0.7387(2) -0.11226(19)
O13A O -0.1855(3) 0.4370(2) 0.33567(17)
O13_2 O 0.1855(3) 0.5630(2) -0.33567(17)
O14A O -0.2198(3) 0.4114(2) 0.48793(18)
O14A_2 O -0.2198(3) 0.4114(2) -0.51207(18)
O15A O -0.2214(2) 0.1481(2) 0.10123(17)
O15_2 O 0.2214(2) 0.8519(2) -0.10123(17)
O16A O -0.2602(3) -0.0419(2) 0.12412(18)
N1A N -0.3057(3) 0.5097(3) -0.3281(2)
N2A N -0.2716(3) 0.2073(2) -0.2211(2)
N3A N 0.2965(3) 0.5007(2) -0.1700(2)
N4A N -0.2525(3) 0.2036(2) 0.2842(2)
N4_2 N 0.2525(3) 0.7964(2) -0.2842(2)
C1A C -0.0944(4) 0.6843(3) -0.2662(2)
C2A C -0.2423(4) 0.6313(3) -0.3098(2)
C3A C -0.3090(4) 0.7036(3) -0.3301(2)
H1A H -0.2627 0.7895 -0.3175
C4A C -0.4432(4) 0.6495(3) -0.3688(3)
H2A H -0.4899 0.6979 -0.3841
C5A C -0.5101(4) 0.5229(3) -0.3854(3)
H3A H -0.6033 0.4835 -0.4104
C6A C -0.4356(3) 0.4565(3) -0.3640(2)
C7A C -0.4970(3) 0.3186(3) -0.3806(2)
C8A C -0.2402(3) 0.0845(3) -0.3569(3)
C9A C -0.2945(3) 0.0950(3) -0.2603(2)
C10A C -0.3618(3) -0.0040(3) -0.2131(3)
H4A H -0.3786 -0.0838 -0.2414
C11A C -0.4038(4) 0.0158(3) -0.1244(3)
H5A H -0.4521 -0.0509 -0.0918
C12A C -0.3756(3) 0.1332(3) -0.0827(3)
H6A H -0.4016 0.1487 -0.0209
C13A C -0.3087(3) 0.2265(3) -0.1339(2)
C14A C -0.2686(3) 0.3579(3) -0.0956(2)
C15A C 0.0753(4) 0.3310(3) -0.2024(2)
C16A C 0.2269(3) 0.3804(3) -0.1788(2)
C17A C 0.2899(4) 0.3040(3) -0.1640(3)
H7A H 0.2392 0.2184 -0.1732
C18A C 0.4288(4) 0.3547(3) -0.1355(3)
H8A H 0.4743 0.3045 -0.1229
C19A C 0.5008(4) 0.4808(3) -0.1255(3)
H9A H 0.5959 0.5181 -0.1062
C20A C 0.4299(3) 0.5496(3) -0.1445(2)
C21A C 0.4988(3) 0.6861(3) -0.1373(2)
C22A C -0.2236(3) 0.3715(3) 0.4019(3)
C23A C -0.2778(3) 0.2360(3) 0.3722(2)
C24A C -0.3469(3) 0.1508(3) 0.4298(2)
H10A H -0.3693 0.1749 0.4907
C25A C -0.3832(3) 0.0283(3) 0.3965(3)
H11A H -0.4301 -0.0325 0.4348
C26A C -0.3498(3) -0.0034(3) 0.3066(3)
H12A H -0.3702 -0.0858 0.2834
C27A C -0.2863(3) 0.0871(3) 0.2518(2)
C28A C -0.2530(3) 0.0622(3) 0.1510(3)
O17A O -0.0082(3) 0.6226(2) -0.0319(2)
H13A H -0.0826 0.5789 -0.0666
H14A H -0.0135 0.5938 0.0211
N5 N 0.1037(3) 1.1154(3) 0.4887(2)
H15 H 0.1350 1.1969 0.4971
H16 H 0.1704 1.0994 0.4636
C29 C -0.0256(4) 1.0593(3) 0.4221(3)
H17 H -0.0078 1.0848 0.3577
H18 H -0.0931 1.0876 0.4471
C30 C 0.0819(4) 1.0776(3) 0.5865(3)
H19 H 0.0173 1.1065 0.6159
H20 H 0.1692 1.1143 0.6286
N5A N -0.1037(3) 0.8846(3) 0.5113(2)
H15A H -0.1350 0.8031 0.5029
H16A H -0.1704 0.9006 0.5364
C29A C 0.0256(4) 0.9407(3) 0.5779(3)
H17A H 0.0078 0.9152 0.6423
H18A H 0.0931 0.9124 0.5529
C30A C -0.0819(4) 0.9224(3) 0.4135(3)
H19A H -0.0173 0.8935 0.3841
H20A H -0.1692 0.8857 0.3714
N6 N -0.8584(3) 0.0656(3) 0.0345(2)
H21 H -0.8147 0.0590 -0.0171
H22 H -0.7844 0.1111 0.0761
C31 C -0.9440(4) 0.1308(3) 0.0061(3)
H23 H -0.8868 0.2061 -0.0189
H24 H -0.9830 0.1534 0.0632
C32 C -0.9431(4) -0.0495(3) 0.0703(3)
H25 H -0.9823 -0.0312 0.1287
H26 H -0.8854 -0.0917 0.0878
N6A N -1.1416(3) -0.0656(3) -0.0345(2)
H21A H -1.1853 -0.0590 0.0171
H22A H -1.2156 -0.1111 -0.0761
C31A C -1.0560(4) -0.1308(3) -0.0061(3)
H23A H -1.1132 -0.2061 0.0189
H24A H -1.0170 -0.1534 -0.0632
C32A C -1.0569(4) 0.0495(3) -0.0703(3)
H25A H -1.0177 0.0312 -0.1287
H26A H -1.1146 0.0917 -0.0878
O18 O -0.0696(3) 0.6708(2) 0.5000(2)
H27 H -0.1177 0.5951 0.4969
H28 H -0.0142 0.6958 0.4583
loop_
_geom_bond_atom_site_label_1
_geom_bond_atom_site_label_2
_geom_bond_site_symmetry_1
_geom_bond_site_symmetry_2
Bi1 O1 1_555 1_555
Bi2 O1 1_555 1_555
O1 C1 1_555 1_555
O2 C1 1_555 1_555
O3 Bi1 1_555 1_555
O4 C7 1_555 1_555
O5 Bi1 1_555 1_555
O6 C8 1_555 1_555
O7 Bi1 1_555 1_555
O8 C14 1_555 1_555
O9 Bi1 1_555 1_555
O10 C15 1_555 1_555
O11 Bi2 1_555 1_555
O12 C21 1_555 1_555
O13 C22 1_555 1_555
O14 Bi1 1_555 1_555
O15 C28 1_555 1_555
O16 C28 1_555 1_555
N1 Bi1 1_555 1_555
N2 Bi1 1_555 1_555
N3 Bi2 1_555 1_555
N4 C23 1_555 1_555
C1 C2 1_555 1_555
C2 N1 1_555 1_555
C3 C2 1_555 1_555
H1 C3 1_555 1_555
C4 C3 1_555 1_555
H2 C4 1_555 1_555
C5 C4 1_555 1_555
H3 C5 1_555 1_555
C6 N1 1_555 1_555
C7 O3 1_555 1_555
C8 O5 1_555 1_555
C9 N2 1_555 1_555
C10 C9 1_555 1_555
H4 C10 1_555 1_555
C11 C10 1_555 1_555
H5 C11 1_555 1_555
C12 C11 1_555 1_555
H6 C12 1_555 1_555
C13 N2 1_555 1_555
C14 O7 1_555 1_555
C15 O9 1_555 1_555
C16 N3 1_555 1_555
C17 C16 1_555 1_555
H7 C17 1_555 1_555
C18 C17 1_555 1_555
H8 C18 1_555 1_555
C19 C18 1_555 1_555
H9 C19 1_555 1_555
C20 N3 1_555 1_555
C21 O11 1_555 1_555
C22 O14 1_555 1_555
C23 C22 1_555 1_555
C24 C23 1_555 1_555
H10 C24 1_555 1_555
C25 C24 1_555 1_555
H11 C25 1_555 1_555
C26 C25 1_555 1_555
H12 C26 1_555 1_555
C27 N4 1_555 1_555
C28 C27 1_555 1_555
O17 Bi2 1_555 1_555
H13 O17 1_555 1_555
H14 O17 1_555 1_555
N5 H15 1_555 1_555
H16 N5 1_555 1_555
C29 N5 1_555 1_555
H17 C29 1_555 1_555
H18 C29 1_555 1_555
C30 N5 1_555 1_555
H19 C30 1_555 1_555
H20 C30 1_555 1_555
N6 H21 1_555 1_555
H22 N6 1_555 1_555
C31 N6 1_555 1_555
H23 C31 1_555 1_555
H24 C31 1_555 1_555
C32 N6 1_555 1_555
H25 C32 1_555 1_555
H26 C32 1_555 1_555
O18 H27 1_555 1_555
H28 O18 1_555 1_555
Bi1A O1A 1_555 1_555
Bi1A_2 O14A 1_555 1_555
Bi2A O8 1_555 1_555
Bi2A_2 O13 1_555 1_555
O1A Bi2A 1_555 1_555
O2A C1A 1_555 1_555
O3A Bi1A 1_555 1_555
O4A C7A 1_555 1_555
O5A Bi1A 1_555 1_555
O6A C8A 1_555 1_555
O7A Bi1A 1_555 1_555
O8A Bi2 1_555 1_555
O9A Bi1A 1_555 1_555
O10A C15A 1_555 1_555
O11A Bi2A 1_555 1_555
O12A C21A 1_555 1_555
O13A Bi2 1_555 1_555
O13_2 Bi2A 1_555 1_555
O14A C22A 1_555 1_555
O14A_2 Bi1A 1_555 1_555
O15A Bi2 1_555 1_555
O15_2 Bi2A 1_555 1_555
O16A C28A 1_555 1_555
N1A Bi1A 1_555 1_555
N2A Bi1A 1_555 1_555
N3A Bi2A 1_555 1_555
N4A Bi2 1_555 1_555
N4_2 Bi2A 1_555 1_555
C1A O1A 1_555 1_555
C2A N1A 1_555 1_555
C3A C2A 1_555 1_555
H1A C3A 1_555 1_555
C4A C3A 1_555 1_555
H2A C4A 1_555 1_555
C5A C4A 1_555 1_555
H3A C5A 1_555 1_555
C6A N1A 1_555 1_555
C7A O3A 1_555 1_555
C8A O5A 1_555 1_555
C9A N2A 1_555 1_555
C10A C9A 1_555 1_555
H4A C10A 1_555 1_555
C11A C10A 1_555 1_555
H5A C11A 1_555 1_555
C12A C11A 1_555 1_555
H6A C12A 1_555 1_555
C13A N2A 1_555 1_555
C14A O7A 1_555 1_555
C15A O9A 1_555 1_555
C16A N3A 1_555 1_555
C17A C16A 1_555 1_555
H7A C17A 1_555 1_555
C18A C17A 1_555 1_555
H8A C18A 1_555 1_555
C19A C18A 1_555 1_555
H9A C19A 1_555 1_555
C20A N3A 1_555 1_555
C21A O11A 1_555 1_555
C22A O13A 1_555 1_555
C23A N4A 1_555 1_555
C24A C23A 1_555 1_555
H10A C24A 1_555 1_555
C25A C24A 1_555 1_555
H11A C25A 1_555 1_555
C26A C25A 1_555 1_555
H12A C26A 1_555 1_555
C27A N4A 1_555 1_555
C28A O15A 1_555 1_555
O17A Bi2A 1_555 1_555
H13A O17A 1_555 1_555
H14A O17A 1_555 1_555
N5A H15A 1_555 1_555
H16A N5A 1_555 1_555
C29A C30 1_555 1_555
H17A C29A 1_555 1_555
H18A C29A 1_555 1_555
C30A C29 1_555 1_555
H19A C30A 1_555 1_555
H20A C30A 1_555 1_555
N6A H21A 1_555 1_555
H22A N6A 1_555 1_555
C31A C32 1_555 1_555
H23A C31A 1_555 1_555
H24A C31A 1_555 1_555
C32A C31 1_555 1_555
H25A C32A 1_555 1_555
H26A C32A 1_555 1_555
Bi2 O9 1_555 1_555
O15 Bi2A_2 1_555 1_555
N4 Bi2A_2 1_555 1_555
C5 C6 1_555 1_555
C6 C7 1_555 1_555
C8 C9 1_555 1_555
C12 C13 1_555 1_555
C13 C14 1_555 1_555
C15 C16 1_555 1_555
C19 C20 1_555 1_555
C20 C21 1_555 1_555
C26 C27 1_555 1_555
Bi2A O9A 1_555 1_555
O8A C14A 1_555 1_555
C1A C2A 1_555 1_555
C5A C6A 1_555 1_555
C6A C7A 1_555 1_555
C8A C9A 1_555 1_555
C12A C13A 1_555 1_555
C13A C14A 1_555 1_555
C15A C16A 1_555 1_555
C19A C20A 1_555 1_555
C20A C21A 1_555 1_555
C22A C23A 1_555 1_555
C26A C27A 1_555 1_555
C27A C28A 1_555 1_555
N5A C29A 1_555 1_555
N5A C30A 1_555 1_555
N6A C31A 1_555 1_555
N6A C32A 1_555 1_555

#END
