
#######################################################################
#
#                 Cambridge Crystallographic Data Centre
#                                CCDC 
#
#######################################################################
#
# If this CIF has been generated from an entry in the Cambridge 
# Structural Database, then it will include bibliographic, chemical, 
# crystal, experimental, refinement or atomic coordinate data resulting 
# from the CCDC's data processing and validation procedures.
#
#######################################################################

data_VIWNOF
_symmetry_cell_setting           monoclinic
_symmetry_space_group_name_H-M   'P 21/c'
_symmetry_Int_Tables_number      14
_space_group_name_Hall           '-P 2ybc'
loop_
_symmetry_equiv_pos_site_id
_symmetry_equiv_pos_as_xyz
1 x,y,z
2 -x,1/2+y,1/2-z
3 -x,-y,-z
4 x,1/2-y,1/2+z
_cell_length_a                   9.311(4)
_cell_length_b                   12.521(5)
_cell_length_c                   21.831(10)
_cell_angle_alpha                90
_cell_angle_beta                 102.31
_cell_angle_gamma                90
_cell_volume                     2486.61
loop_
_atom_site_label
_atom_site_type_symbol
_atom_site_fract_x
_atom_site_fract_y
_atom_site_fract_z
Co1 Co 0.02037(7) 0.27680(5) 0.19183(3)
O1 O 0.1414(3) 0.2191(3) 0.27808(13)
O2 O -0.0977(3) 0.2343(2) 0.26292(13)
N1 N 0.0064(4) 0.1293(3) 0.14589(18)
C1 C -0.3420(5) 0.1185(4) -0.0118(2)
N2 N -0.1583(4) 0.3017(3) 0.11521(17)
C2 C -0.3106(5) 0.2151(4) 0.0256(2)
C3 C -0.2475(5) 0.0282(4) 0.0016(2)
N3 N -0.4625(4) 0.1169(3) -0.05836(18)
C4 C -0.1245(5) 0.0309(4) 0.0561(2)
N4 N -0.2692(4) -0.0605(3) -0.03208(19)
C5 C -0.1927(5) 0.2156(4) 0.0769(2)
C6 C -0.1001(5) 0.1222(4) 0.0925(2)
C7 C 0.0254(5) 0.2107(4) 0.2984(2)
C8 C -0.4883(5) 0.0253(5) -0.0920(2)
C9 C 0.0350(5) 0.1783(3) 0.3653(2)
C10 C -0.2806(5) 0.0171(4) 0.3290(2)
C11 C -0.2356(5) 0.1185(4) 0.3516(2)
C12 C -0.3907(6) -0.0624(4) -0.0800(2)
C13 C 0.0737(5) 0.1393(4) 0.4925(2)
H1 H 0.0846 0.1279 0.5354
C14 C 0.1700(5) 0.1932(3) 0.4056(2)
H2 H 0.2490 0.2170 0.3894
C15 C -0.3955(5) 0.3080(4) 0.0141(2)
H3 H -0.4744 0.3108 -0.0201
C16 C -0.0827(5) 0.1402(4) 0.3883(2)
C17 C -0.0610(5) 0.1215(4) 0.4522(2)
H4 H -0.1390 0.0963 0.4686
C18 C -0.4302(6) -0.0057(4) 0.3079(2)
H5 H -0.4597 -0.0743 0.2944
C19 C -0.6179(5) 0.0173(4) -0.1408(2)
H6 H -0.6833 0.0743 -0.1490
C20 C -0.0337(5) -0.0574(4) 0.0756(2)
H7 H -0.0458 -0.1199 0.0520
C21 C -0.3441(6) 0.1970(4) 0.3493(2)
H8 H -0.3163 0.2656 0.3634
C22 C -0.3632(5) 0.3954(4) 0.0528(2)
H9 H -0.4201 0.4570 0.0460
C23 C 0.0876(5) 0.0434(5) 0.1629(2)
H10 H 0.1594 0.0471 0.1997
C24 C -0.2411(5) 0.3880(4) 0.1032(2)
H11 H -0.2174 0.4469 0.1294
C25 C -0.4203(6) -0.1538(4) -0.1182(3)
H12 H -0.3551 -0.2110 -0.1123
C26 C 0.0737(5) -0.0517(4) 0.1299(3)
H13 H 0.1344 -0.1097 0.1438
C27 C 0.1907(5) 0.1739(4) 0.4688(2)
H14 H 0.2823 0.1840 0.4951
C28 C -0.5345(6) 0.0734(5) 0.3071(2)
H15 H -0.6337 0.0578 0.2932
C29 C -0.4916(6) 0.1750(5) 0.3267(2)
H16 H -0.5613 0.2287 0.3248
C30 C -0.6444(6) -0.0731(5) -0.1747(2)
H17 H -0.7299 -0.0790 -0.2055
C31 C -0.5458(7) -0.1579(5) -0.1642(2)
H18 H -0.5655 -0.2188 -0.1890
C32 C -0.1725(6) -0.0692(4) 0.3244(2)
O3 O -0.1965(3) -0.1613(3) 0.34207(15)
O4 O -0.0650(3) -0.0519(2) 0.30026(15)
Co1A Co -0.02037(7) -0.22320(5) 0.30817(3)
O3A O 0.1965(3) 0.3387(3) 0.15793(15)
O4A O 0.0650(3) 0.4481(2) 0.19974(15)
loop_
_geom_bond_atom_site_label_1
_geom_bond_atom_site_label_2
_geom_bond_site_symmetry_1
_geom_bond_site_symmetry_2
Co1 O1 1_555 1_555
O1 C7 1_555 1_555
O2 Co1 1_555 1_555
N1 Co1 1_555 1_555
C1 C2 1_555 1_555
N2 Co1 1_555 1_555
C2 C5 1_555 1_555
C3 C1 1_555 1_555
N3 C1 1_555 1_555
C4 C3 1_555 1_555
N4 C3 1_555 1_555
C5 N2 1_555 1_555
C6 N1 1_555 1_555
C7 O2 1_555 1_555
C8 N3 1_555 1_555
C9 C7 1_555 1_555
C10 C11 1_555 1_555
C11 C16 1_555 1_555
C12 N4 1_555 1_555
C13 H1 1_555 1_555
C14 C9 1_555 1_555
H2 C14 1_555 1_555
C15 C2 1_555 1_555
H3 C15 1_555 1_555
C16 C9 1_555 1_555
C17 C13 1_555 1_555
H4 C17 1_555 1_555
C18 C10 1_555 1_555
H5 C18 1_555 1_555
C19 C8 1_555 1_555
H6 C19 1_555 1_555
C20 C4 1_555 1_555
H7 C20 1_555 1_555
C21 C11 1_555 1_555
H8 C21 1_555 1_555
C22 C15 1_555 1_555
H9 C22 1_555 1_555
C23 N1 1_555 1_555
H10 C23 1_555 1_555
C24 N2 1_555 1_555
H11 C24 1_555 1_555
C25 C12 1_555 1_555
H12 C25 1_555 1_555
C26 C20 1_555 1_555
H13 C26 1_555 1_555
C27 C13 1_555 1_555
H14 C27 1_555 1_555
C28 C18 1_555 1_555
H15 C28 1_555 1_555
C29 C21 1_555 1_555
H16 C29 1_555 1_555
C30 C19 1_555 1_555
H17 C30 1_555 1_555
C31 C25 1_555 1_555
H18 C31 1_555 1_555
C32 C10 1_555 1_555
O3 C32 1_555 1_555
O4 C32 1_555 1_555
Co1A O3 1_555 1_555
O3A Co1 1_555 1_555
O4A Co1 1_555 1_555
C4 C6 1_555 1_555
C5 C6 1_555 1_555
C8 C12 1_555 1_555
C14 C27 1_555 1_555
C16 C17 1_555 1_555
C22 C24 1_555 1_555
C23 C26 1_555 1_555
C28 C29 1_555 1_555
C30 C31 1_555 1_555
O4 Co1A 1_555 1_555

#END
