
#######################################################################
#
#                 Cambridge Crystallographic Data Centre
#                                CCDC 
#
#######################################################################
#
# If this CIF has been generated from an entry in the Cambridge 
# Structural Database, then it will include bibliographic, chemical, 
# crystal, experimental, refinement or atomic coordinate data resulting 
# from the CCDC's data processing and validation procedures.
#
#######################################################################

data_VIWPAT
_symmetry_cell_setting           monoclinic
_symmetry_space_group_name_H-M   'P 21/n'
_symmetry_Int_Tables_number      14
_space_group_name_Hall           '-P 2yn'
loop_
_symmetry_equiv_pos_site_id
_symmetry_equiv_pos_as_xyz
1 x,y,z
2 1/2-x,1/2+y,1/2-z
3 -x,-y,-z
4 1/2+x,1/2-y,1/2+z
_cell_length_a                   14.5500(6)
_cell_length_b                   9.2584(4)
_cell_length_c                   17.0287(7)
_cell_angle_alpha                90
_cell_angle_beta                 109.4280(10)
_cell_angle_gamma                90
_cell_volume                     2163.32
loop_
_atom_site_label
_atom_site_type_symbol
_atom_site_fract_x
_atom_site_fract_y
_atom_site_fract_z
Mn1 Mn -0.011720(18) 0.41137(2) 0.300840(15)
Mn2 Mn 0.390094(18) 0.24497(2) 0.132924(14)
Mn3 Mn 0.259381(17) -0.08392(2) 0.055454(15)
Mn4 Mn 0.0000 0.0000 0.0000
O1 O 0.12459(8) 0.51413(12) 0.33705(7)
O2 O -0.04803(9) 0.76306(12) 0.31237(8)
O3 O -0.11298(9) 0.57060(12) 0.23483(8)
O4 O 0.23333(9) 0.27956(13) 0.08895(8)
O5 O 0.14188(8) 0.10436(11) 0.01220(7)
N1 N 0.06358(10) 0.20871(14) 0.35527(8)
N2 N 0.15442(10) 0.20959(14) 0.41590(9)
N3 N 0.10188(11) -0.01920(14) 0.39616(9)
N4 N -0.11292(10) 0.34568(14) 0.51227(9)
N5 N -0.15856(10) 0.47589(14) 0.48426(8)
N6 N -0.07461(10) 0.41306(13) 0.40101(9)
N7 N 0.17775(11) -0.13971(16) 0.14054(9)
N8 N 0.08164(10) -0.10161(15) 0.11770(9)
N9 N 0.12163(11) -0.20114(16) 0.24299(9)
N10 N -0.05261(10) 0.15874(14) 0.07484(9)
N11 N -0.06278(10) 0.29438(14) 0.17995(8)
N12 N -0.14864(10) 0.19694(14) 0.05702(8)
C1 C -0.11472(12) 0.70096(17) 0.25569(10)
C2 C -0.20432(14) 0.7874(2) 0.20865(13)
H1 H -0.2063 0.8761 0.2395
H2 H -0.2628 0.7298 0.2026
H3 H -0.2019 0.8123 0.1534
C3 C 0.03572(13) 0.07159(16) 0.34629(11)
H4 H -0.0251 0.0405 0.3083
C4 C 0.17400(13) 0.07231(16) 0.43748(11)
H5 H 0.2330 0.0414 0.4781
C5 C -0.06450(12) 0.31323(17) 0.46138(10)
H6 H -0.0263 0.2282 0.4666
C6 C -0.13355(12) 0.51089(16) 0.41887(10)
H7 H -0.1550 0.5966 0.3875
C7 C 0.15983(12) 0.23741(16) 0.03162(10)
C8 C 0.08911(13) 0.35072(18) -0.01762(12)
H8 H 0.0969 0.4392 0.0155
H9 H 0.0223 0.3149 -0.0310
H10 H 0.1023 0.3715 -0.0693
C9 C 0.19809(14) -0.1980(2) 0.21515(12)
H11 H 0.2607 -0.2342 0.2463
C10 C 0.05164(12) -0.14003(17) 0.17975(10)
H12 H -0.0131 -0.1257 0.1795
C11 C -0.00536(12) 0.21803(17) 0.14747(10)
H13 H 0.0629 0.2078 0.1744
C12 C -0.15116(12) 0.27782(17) 0.12084(10)
H14 H -0.2092 0.3197 0.1245
H15 H 0.1448(18) 0.515(3) 0.3030(16)
Mn1B Mn 0.011720(18) -0.41137(2) -0.300840(15)
Mn1A Mn 0.511720(18) -0.08863(2) 0.199160(15)
Mn1A_2 Mn 0.511720(18) 0.91137(2) 0.199160(15)
Mn1C Mn 0.488280(18) 0.08863(2) -0.199160(15)
Mn2B Mn -0.390094(18) -0.24497(2) -0.132924(14)
Mn2A Mn 0.109906(18) 0.74497(2) 0.367076(14)
Mn2A_2 Mn 0.109906(18) -0.25503(2) 0.367076(14)
Mn2C Mn -0.109906(18) 0.25503(2) 0.632924(14)
Mn2C_2 Mn -0.109906(18) 0.25503(2) -0.367076(14)
Mn3B Mn -0.259381(17) 0.08392(2) -0.055454(15)
Mn3A Mn 0.240619(17) 0.41608(2) 0.444546(15)
Mn3C Mn -0.240619(17) 0.58392(2) 0.555454(15)
Mn3_2 Mn 0.259381(17) 0.91608(2) 0.055454(15)
O1A O 0.37541(8) 0.01413(12) 0.16295(7)
O1B O -0.12459(8) -0.51413(12) -0.33705(7)
O1C O -0.37541(8) -0.01413(12) -0.16295(7)
O2A O 0.54803(9) 0.26306(12) 0.18763(8)
O2C O -0.54803(9) -0.26306(12) -0.18763(8)
O3A O 0.61298(9) 0.07060(12) 0.26517(8)
O3B O 0.11298(9) -0.57060(12) -0.23483(8)
O4B O -0.23333(9) -0.27956(13) -0.08895(8)
O5B O -0.14188(8) -0.10436(11) -0.01220(7)
N1A N 0.43642(10) 0.70871(14) 0.14473(8)
N1B N -0.06358(10) -0.20871(14) -0.35527(8)
N2A N 0.34558(10) 0.70959(14) 0.08410(9)
N2A_2 N 0.34558(10) -0.29041(14) 0.08410(9)
N2C N -0.34558(10) 0.29041(14) -0.08410(9)
N3A N 0.39812(11) 0.48080(14) 0.10384(9)
N3C N -0.39812(11) -0.48080(14) -0.10384(9)
N4C N 0.38708(10) 0.15432(14) 0.01227(9)
N4A N -0.38708(10) -0.15432(14) -0.01227(9)
N5C N 0.34144(10) 0.02411(14) -0.01574(8)
N5A N -0.34144(10) -0.02411(14) 0.01574(8)
N6C N 0.42539(10) 0.08694(13) -0.09899(9)
N6B N 0.07461(10) -0.41306(13) -0.40101(9)
N7B N -0.17775(11) 0.13971(16) -0.14054(9)
N8B N -0.08164(10) 0.10161(15) -0.11770(9)
N9B N -0.12163(11) 0.20114(16) -0.24299(9)
N9A N 0.37837(11) 0.29886(16) 0.25701(9)
N9C N -0.37837(11) -0.29886(16) -0.25701(9)
N10B N 0.05261(10) -0.15874(14) -0.07484(9)
N11B N 0.06278(10) -0.29438(14) -0.17995(8)
N12B N 0.14864(10) -0.19694(14) -0.05702(8)
C1A C 0.61472(12) 0.20096(17) 0.24431(10)
C2A C 0.70432(14) 0.2874(2) 0.29135(13)
H1A H 0.7063 0.3761 0.2605
H2A H 0.7628 0.2298 0.2974
H3A H 0.7019 0.3123 0.3466
C3A C 0.46428(13) 0.57159(16) 0.15371(11)
H4A H 0.5251 0.5405 0.1917
C4A C 0.32600(13) 0.57231(16) 0.06252(11)
H5A H 0.2670 0.5414 0.0219
C5C C 0.43550(12) 0.18677(17) -0.03862(10)
H6C H 0.4737 0.2718 -0.0334
C6C C 0.36645(12) -0.01089(16) -0.08113(10)
H7C H 0.3450 -0.0966 -0.1125
C7B C -0.15983(12) -0.23741(16) -0.03162(10)
C8B C -0.08911(13) -0.35072(18) 0.01762(12)
H8B H -0.0969 -0.4392 -0.0155
H9B H -0.0223 -0.3149 0.0310
H10B H -0.1023 -0.3715 0.0693
C9B C -0.19809(14) 0.1980(2) -0.21515(12)
H11B H -0.2607 0.2342 -0.2463
C10B C -0.05164(12) 0.14003(17) -0.17975(10)
H12B H 0.0131 0.1257 -0.1795
C11B C 0.00536(12) -0.21803(17) -0.14747(10)
H13B H -0.0629 -0.2078 -0.1744
C12B C 0.15116(12) -0.27782(17) -0.12084(10)
H14B H 0.2092 -0.3197 -0.1245
H15A H 0.3552(18) 0.015(3) 0.1970(16)
H15B H -0.1448(18) -0.515(3) -0.3030(16)
H15C H -0.3552(18) -0.015(3) -0.1970(16)
O6 O 0.1648(5) 0.5040(6) 0.1758(4)
loop_
_geom_bond_atom_site_label_1
_geom_bond_atom_site_label_2
_geom_bond_site_symmetry_1
_geom_bond_site_symmetry_2
Mn1 O1 1_555 1_555
Mn2 O4 1_555 1_555
Mn3 O5 1_555 1_555
Mn4 O5 1_555 1_555
O1 H15 1_555 1_555
O2 C1 1_555 1_555
O3 Mn1 1_555 1_555
O4 C7 1_555 1_555
O5 C7 1_555 1_555
N1 Mn1 1_555 1_555
N2 N1 1_555 1_555
N3 C3 1_555 1_555
N4 N5 1_555 1_555
N5 C6 1_555 1_555
N6 Mn1 1_555 1_555
N7 Mn3 1_555 1_555
N8 Mn4 1_555 1_555
N9 C9 1_555 1_555
N10 Mn4 1_555 1_555
N11 Mn1 1_555 1_555
N12 N10 1_555 1_555
C1 O3 1_555 1_555
C2 C1 1_555 1_555
H1 C2 1_555 1_555
H2 C2 1_555 1_555
H3 C2 1_555 1_555
C3 N1 1_555 1_555
H4 C3 1_555 1_555
C4 N2 1_555 1_555
H5 C4 1_555 1_555
C5 N4 1_555 1_555
H6 C5 1_555 1_555
C6 N6 1_555 1_555
H7 C6 1_555 1_555
C7 C8 1_555 1_555
C8 H8 1_555 1_555
H9 C8 1_555 1_555
H10 C8 1_555 1_555
C9 N7 1_555 1_555
H11 C9 1_555 1_555
C10 N8 1_555 1_555
H12 C10 1_555 1_555
C11 N10 1_555 1_555
H13 C11 1_555 1_555
C12 N11 1_555 1_555
H14 C12 1_555 1_555
Mn1B O1B 1_555 1_555
Mn1A O1A 1_555 1_555
Mn1A_2 N1A 1_555 1_555
Mn1C N6C 1_555 1_555
Mn2B O1C 1_555 1_555
Mn2A O1 1_555 1_555
Mn2A_2 N3 1_555 1_555
Mn2C N4 1_555 1_555
Mn2C_2 N9B 1_555 1_555
Mn3B N12 1_555 1_555
Mn3A O1 1_555 1_555
Mn3C N5 1_555 1_555
Mn3_2 N2A 1_555 1_555
O1A Mn2 1_555 1_555
O1B H15B 1_555 1_555
O1C Mn3B 1_555 1_555
O2A Mn2 1_555 1_555
O2C Mn2B 1_555 1_555
O3A Mn1A 1_555 1_555
O3B Mn1B 1_555 1_555
O4B Mn2B 1_555 1_555
O5B Mn4 1_555 1_555
N1A N2A 1_555 1_555
N1B Mn1B 1_555 1_555
N2A C4A 1_555 1_555
N2A_2 Mn3 1_555 1_555
N2C Mn3B 1_555 1_555
N3A Mn2 1_555 1_555
N3C Mn2B 1_555 1_555
N4C Mn2 1_555 1_555
N4A Mn2B 1_555 1_555
N5C Mn3 1_555 1_555
N5A Mn3B 1_555 1_555
N6C C5C 1_555 1_555
N6B Mn1B 1_555 1_555
N7B Mn3B 1_555 1_555
N8B Mn4 1_555 1_555
N9B C9B 1_555 1_555
N9A Mn2 1_555 1_555
N9C Mn2B 1_555 1_555
N10B Mn4 1_555 1_555
N11B Mn1B 1_555 1_555
N12B Mn3 1_555 1_555
C1A O2A 1_555 1_555
C2A C1A 1_555 1_555
H1A C2A 1_555 1_555
H2A C2A 1_555 1_555
H3A C2A 1_555 1_555
C3A N1A 1_555 1_555
H4A C3A 1_555 1_555
C4A N3A 1_555 1_555
H5A C4A 1_555 1_555
C5C N4C 1_555 1_555
H6C C5C 1_555 1_555
C6C N5C 1_555 1_555
H7C C6C 1_555 1_555
C7B O4B 1_555 1_555
C8B C7B 1_555 1_555
H8B C8B 1_555 1_555
H9B C8B 1_555 1_555
H10B C8B 1_555 1_555
C9B N7B 1_555 1_555
H11B C9B 1_555 1_555
C10B N8B 1_555 1_555
H12B C10B 1_555 1_555
C11B N10B 1_555 1_555
H13B C11B 1_555 1_555
C12B N11B 1_555 1_555
H14B C12B 1_555 1_555
H15A O1A 1_555 1_555
H15C O1C 1_555 1_555
Mn3 O1A 1_555 1_555
O2 Mn2A 1_555 1_555
N2 Mn3A 1_555 1_555
N3 C4 1_555 1_555
N6 C5 1_555 1_555
N7 N8 1_555 1_555
N9 C10 1_555 1_555
N9 Mn2A_2 1_555 1_555
N11 C11 1_555 1_555
N12 C12 1_555 1_555
Mn3B O5B 1_555 1_555
O3A C1A 1_555 1_555
O5B C7B 1_555 1_555
N3A C3A 1_555 1_555
N4C N5C 1_555 1_555
N4A N5A 1_555 1_555
N6C C6C 1_555 1_555
N7B N8B 1_555 1_555
N9B C10B 1_555 1_555
N10B N12B 1_555 1_555
N11B C11B 1_555 1_555
N12B C12B 1_555 1_555

#END
