
#######################################################################
#
#                 Cambridge Crystallographic Data Centre
#                                CCDC 
#
#######################################################################
#
# If this CIF has been generated from an entry in the Cambridge 
# Structural Database, then it will include bibliographic, chemical, 
# crystal, experimental, refinement or atomic coordinate data resulting 
# from the CCDC's data processing and validation procedures.
#
#######################################################################

data_VIWQIB
_symmetry_cell_setting           tetragonal
_symmetry_space_group_name_H-M   'P -4 21 c'
_symmetry_Int_Tables_number      114
_space_group_name_Hall           'P -4 2n'
loop_
_symmetry_equiv_pos_site_id
_symmetry_equiv_pos_as_xyz
1 x,y,z
2 -x,-y,z
3 y,-x,-z
4 -y,x,-z
5 1/2-x,1/2+y,1/2-z
6 1/2+x,1/2-y,1/2-z
7 1/2-y,1/2-x,1/2+z
8 1/2+y,1/2+x,1/2+z
_cell_length_a                   16.331(3)
_cell_length_b                   16.331(3)
_cell_length_c                   7.5600(10)
_cell_angle_alpha                90
_cell_angle_beta                 90
_cell_angle_gamma                90
_cell_volume                     2016.26
loop_
_atom_site_label
_atom_site_type_symbol
_atom_site_fract_x
_atom_site_fract_y
_atom_site_fract_z
Cu1 Cu 0.32646(5) 0.40106(5) 0.03389(16)
O1 O 0.3235(4) 0.2851(3) 0.1884(8)
O2 O 0.4420(3) 0.3802(3) -0.0333(8)
O3 O 0.5365(3) 0.3648(4) -0.2388(8)
O4 O 0.2905(3) 0.3464(4) -0.1775(9)
O5 O 0.3174(4) 0.2991(5) -0.4449(9)
N1 N 0.2089(3) 0.4418(4) 0.0621(11)
C1 C 0.4650(4) 0.3836(4) -0.1922(12)
C2 C 0.4031(5) 0.4067(6) -0.3353(13)
C3 C 0.3323(5) 0.3460(5) -0.3205(11)
C4 C 0.1498(5) 0.3893(6) 0.1040(18)
C5 C 0.0687(5) 0.4088(6) 0.1078(17)
C6 C 0.0438(4) 0.4879(5) 0.0744(11)
C7 C 0.1063(5) 0.5436(5) 0.0341(18)
C8 C 0.1863(5) 0.5192(5) 0.0303(19)
H1 H 0.106(4) 0.596(4) 0.018(11)
H2 H 0.412(8) 0.417(8) -0.47(2)
H3 H 0.036(8) 0.356(8) 0.06(3)
H4 H 0.370(6) 0.458(6) -0.305(15)
H5 H 0.156(7) 0.337(7) 0.132(15)
H6 H 0.230(5) 0.551(5) 0.024(17)
C6A C -0.0438(4) 0.5121(5) 0.0744(11)
C5A C -0.0687(5) 0.5912(6) 0.1078(17)
C4A C -0.1498(5) 0.6107(6) 0.1040(18)
N1A N -0.2089(3) 0.5582(4) 0.0621(11)
C8A C -0.1863(5) 0.4808(5) 0.0303(19)
C7A C -0.1063(5) 0.4564(5) 0.0341(18)
H1A H -0.106(4) 0.404(4) 0.018(11)
H6A H -0.230(5) 0.449(5) 0.024(17)
H5A H -0.156(7) 0.663(7) 0.132(15)
H3A H -0.036(8) 0.644(8) 0.06(3)
O2B O 0.3802(3) 0.5580(3) 0.0333(8)
O3B O 0.3648(4) 0.4635(3) 0.2388(8)
O4B O 0.3464(4) 0.7095(3) 0.1775(9)
O5B O 0.2991(5) 0.6826(4) 0.4449(9)
C1B C 0.3836(4) 0.5350(4) 0.1922(12)
C2B C 0.4067(6) 0.5969(5) 0.3353(13)
C3B C 0.3460(5) 0.6677(5) 0.3205(11)
H2B H 0.417(8) 0.588(8) 0.47(2)
H4B H 0.458(6) 0.630(6) 0.305(15)
Cu1B Cu 0.40106(5) 0.67354(5) -0.03389(16)
O1B O 0.2851(3) 0.6765(4) -0.1884(8)
Cu1C Cu 0.59894(5) 0.32646(5) -0.03389(16)
Cu1A Cu -0.32646(5) 0.59894(5) 0.03389(16)
O3A O 0.4635(3) 0.6352(4) -0.2388(8)
N1B N 0.4418(4) 0.7911(3) -0.0621(11)
loop_
_geom_bond_atom_site_label_1
_geom_bond_atom_site_label_2
_geom_bond_site_symmetry_1
_geom_bond_site_symmetry_2
Cu1 O1 1_555 1_555
O2 Cu1 1_555 1_555
O3 C1 1_555 1_555
O4 Cu1 1_555 1_555
O5 C3 1_555 1_555
N1 Cu1 1_555 1_555
C1 O2 1_555 1_555
C2 C1 1_555 1_555
C3 O4 1_555 1_555
C4 N1 1_555 1_555
C5 C4 1_555 1_555
C6 C5 1_555 1_555
C7 C6 1_555 1_555
C8 N1 1_555 1_555
H1 C7 1_555 1_555
H2 C2 1_555 1_555
H3 C5 1_555 1_555
H4 C2 1_555 1_555
H5 C4 1_555 1_555
H6 C8 1_555 1_555
C6A C6 1_555 1_555
C5A C6A 1_555 1_555
C4A C5A 1_555 1_555
N1A C4A 1_555 1_555
C8A N1A 1_555 1_555
C7A C6A 1_555 1_555
H1A C7A 1_555 1_555
H6A C8A 1_555 1_555
H5A C4A 1_555 1_555
H3A C5A 1_555 1_555
O2B C1B 1_555 1_555
O3B Cu1 1_555 1_555
O4B C3B 1_555 1_555
O5B C3B 1_555 1_555
C1B O3B 1_555 1_555
C2B C1B 1_555 1_555
C3B C2B 1_555 1_555
H2B C2B 1_555 1_555
H4B C2B 1_555 1_555
Cu1B O2B 1_555 1_555
O1B Cu1B 1_555 1_555
Cu1C O3 1_555 1_555
Cu1A N1A 1_555 1_555
O3A Cu1B 1_555 1_555
N1B Cu1B 1_555 1_555
C2 C3 1_555 1_555
C7 C8 1_555 1_555
C8A C7A 1_555 1_555
O4B Cu1B 1_555 1_555

#END
