
#######################################################################
#
#                 Cambridge Crystallographic Data Centre
#                                CCDC 
#
#######################################################################
#
# If this CIF has been generated from an entry in the Cambridge 
# Structural Database, then it will include bibliographic, chemical, 
# crystal, experimental, refinement or atomic coordinate data resulting 
# from the CCDC's data processing and validation procedures.
#
#######################################################################

data_VIWVAA
_symmetry_cell_setting           orthorhombic
_symmetry_space_group_name_H-M   'P n m a'
_symmetry_Int_Tables_number      62
_space_group_name_Hall           '-P 2ac 2n'
loop_
_symmetry_equiv_pos_site_id
_symmetry_equiv_pos_as_xyz
1 x,y,z
2 1/2-x,-y,1/2+z
3 1/2+x,1/2-y,1/2-z
4 -x,1/2+y,-z
5 -x,-y,-z
6 1/2+x,y,1/2-z
7 1/2-x,1/2+y,1/2+z
8 x,1/2-y,z
_cell_length_a                   18.9292(16)
_cell_length_b                   24.320(2)
_cell_length_c                   9.6354(8)
_cell_angle_alpha                90
_cell_angle_beta                 90
_cell_angle_gamma                90
_cell_volume                     4435.73
loop_
_atom_site_label
_atom_site_type_symbol
_atom_site_fract_x
_atom_site_fract_y
_atom_site_fract_z
Zn1 Zn 0.16480(3) 0.56670(2) 0.60660(8)
O1 O 0.10132(17) 0.60893(15) 0.7255(4)
C1 C 0.1532(2) 0.30772(18) 0.6713(5)
O2 O 0.1394(3) 0.56768(19) 0.4010(5)
N1 N 0.1607(2) 0.4835(2) 0.6386(7)
C2 C 0.0970(3) 0.2782(2) 0.6142(5)
H1 H 0.0582 0.2974 0.5748
C3 C 0.1553(2) 0.3686(2) 0.6648(6)
C4 C 0.2076(2) 0.27838(17) 0.7334(4)
H2 H 0.2453 0.2976 0.7765
O3 O 0.0202(2) 0.55428(19) 0.6343(5)
C5 C 0.1965(2) 0.40070(18) 0.7514(5)
H3 H 0.2238 0.3838 0.8225
C6 C 0.1983(2) 0.45682(19) 0.7353(6)
H4 H 0.2276 0.4777 0.7956
C7 C 0.0370(3) 0.5930(2) 0.7086(5)
C8 C -0.1383(3) 0.6292(3) 0.8680(6)
C9 C -0.0021(2) 0.6712(2) 0.8642(5)
H5 H 0.0446 0.6856 0.8615
C10 C -0.0179(3) 0.6231(3) 0.7919(5)
C11 C -0.0533(3) 0.6982(3) 0.9395(5)
C12 C -0.0868(3) 0.6037(3) 0.7949(6)
H6 H -0.0982 0.5715 0.7438
C13 C 0.0763(4) 0.5638(3) 0.3411(9)
H7 H 0.0356 0.5582 0.3970
N2 N 0.0696(4) 0.5675(3) 0.2098(7)
C14 C 0.1150(4) 0.3964(2) 0.5672(9)
H8 H 0.0840 0.3764 0.5084
C15 C 0.1193(4) 0.4529(3) 0.5544(10)
H9 H 0.0924 0.4707 0.4844
C16 C -0.0360(4) 0.7500 1.0202(7)
H10 H 0.0149 0.7500 1.0437
H11 H -0.0630 0.7500 1.1081
O4 O -0.2573(3) 0.6305(4) 0.9425(5)
C17 C -0.1216(3) 0.6776(3) 0.9423(6)
H12 H -0.1572 0.6960 0.9941
C18 C -0.2127(3) 0.6077(5) 0.8670(9)
C19 C -0.0056(5) 0.5586(3) 0.1500(10)
H13 H -0.0380 0.5487 0.2254
H14 H -0.0045 0.5289 0.0813
H15 H -0.0219 0.5926 0.1057
O5 O -0.2287(3) 0.5691(2) 0.7955(11)
C20 C 0.1209(7) 0.5611(7) 0.1118(12)
H16 H 0.1660 0.5748 0.1481
H17 H 0.1081 0.5819 0.0283
H18 H 0.1256 0.5221 0.0885
O1G O 0.10132(17) 0.89107(15) 0.7255(4)
O3G O 0.0202(2) 0.94572(19) 0.6343(5)
C7G C 0.0370(3) 0.9070(2) 0.7086(5)
C8G C -0.1383(3) 0.8708(3) 0.8680(6)
C9G C -0.0021(2) 0.8288(2) 0.8642(5)
H5G H 0.0446 0.8144 0.8615
C10G C -0.0179(3) 0.8769(3) 0.7919(5)
C11G C -0.0533(3) 0.8018(3) 0.9395(5)
C12G C -0.0868(3) 0.8963(3) 0.7949(6)
H6G H -0.0982 0.9285 0.7438
O4G O -0.2573(3) 0.8695(4) 0.9425(5)
C17G C -0.1216(3) 0.8224(3) 0.9423(6)
H12G H -0.1572 0.8040 0.9941
C18G C -0.2127(3) 0.8923(5) 0.8670(9)
O5G O -0.2287(3) 0.9309(2) 0.7955(11)
C1G C 0.1532(2) 0.19228(18) 0.6713(5)
N1G N 0.1607(2) 0.0165(2) 0.6386(7)
C2G C 0.0970(3) 0.2218(2) 0.6142(5)
H1G H 0.0582 0.2026 0.5748
C3G C 0.1553(2) 0.1314(2) 0.6648(6)
C4G C 0.2076(2) 0.22162(17) 0.7334(4)
H2G H 0.2453 0.2024 0.7765
C5G C 0.1965(2) 0.09930(18) 0.7514(5)
H3G H 0.2238 0.1162 0.8225
C6G C 0.1983(2) 0.04318(19) 0.7353(6)
H4G H 0.2276 0.0223 0.7956
C14G C 0.1150(4) 0.1036(2) 0.5672(9)
H8G H 0.0840 0.1236 0.5084
C15G C 0.1193(4) 0.0471(3) 0.5544(10)
H9G H 0.0924 0.0293 0.4844
Zn1G Zn 0.16480(3) -0.06670(2) 0.60660(8)
O2G O 0.1394(3) -0.06768(19) 0.4010(5)
C13G C 0.0763(4) -0.0638(3) 0.3411(9)
H7G H 0.0356 -0.0582 0.3970
N2G N 0.0696(4) -0.0675(3) 0.2098(7)
C19G C -0.0056(5) -0.0586(3) 0.1500(10)
H13G H -0.0380 -0.0487 0.2254
H14G H -0.0045 -0.0289 0.0813
H15G H -0.0219 -0.0926 0.1057
C20G C 0.1209(7) -0.0611(7) 0.1118(12)
H16G H 0.1660 -0.0748 0.1481
H17G H 0.1081 -0.0819 0.0283
H18G H 0.1256 -0.0221 0.0885
Zn1B Zn -0.33520(3) 0.93330(2) 0.89340(8)
Zn1E Zn -0.33520(3) 0.56670(2) 0.89340(8)
Zn1G_2 Zn 0.16480(3) 0.93330(2) 0.60660(8)
O1G_2 O 0.10132(17) -0.10893(15) 0.7255(4)
O4B O 0.2427(3) -0.1305(4) 0.5575(5)
O4E O 0.2427(3) 0.6305(4) 0.5575(5)
O5B O 0.2713(3) -0.0691(2) 0.7045(11)
O5E O 0.2713(3) 0.5691(2) 0.7045(11)
loop_
_geom_bond_atom_site_label_1
_geom_bond_atom_site_label_2
_geom_bond_site_symmetry_1
_geom_bond_site_symmetry_2
Zn1 O1 1_555 1_555
O1 C7 1_555 1_555
C1 C2 1_555 1_555
O2 Zn1 1_555 1_555
N1 Zn1 1_555 1_555
C2 H1 1_555 1_555
C3 C1 1_555 1_555
C4 C1 1_555 1_555
H2 C4 1_555 1_555
O3 C7 1_555 1_555
C5 C3 1_555 1_555
H3 C5 1_555 1_555
C6 N1 1_555 1_555
H4 C6 1_555 1_555
C7 C10 1_555 1_555
C8 C12 1_555 1_555
C9 H5 1_555 1_555
C10 C9 1_555 1_555
C11 C9 1_555 1_555
C12 C10 1_555 1_555
H6 C12 1_555 1_555
C13 O2 1_555 1_555
H7 C13 1_555 1_555
N2 C13 1_555 1_555
C14 C3 1_555 1_555
H8 C14 1_555 1_555
C15 N1 1_555 1_555
H9 C15 1_555 1_555
C16 C11 1_555 1_555
H10 C16 1_555 1_555
H11 C16 1_555 1_555
O4 C18 1_555 1_555
C17 C8 1_555 1_555
H12 C17 1_555 1_555
C18 C8 1_555 1_555
C19 N2 1_555 1_555
H13 C19 1_555 1_555
H14 C19 1_555 1_555
H15 C19 1_555 1_555
O5 C18 1_555 1_555
C20 N2 1_555 1_555
H16 C20 1_555 1_555
H17 C20 1_555 1_555
H18 C20 1_555 1_555
O1G C7G 1_555 1_555
O3G C7G 1_555 1_555
C7G C10G 1_555 1_555
C8G C12G 1_555 1_555
C9G H5G 1_555 1_555
C10G C9G 1_555 1_555
C11G C16 1_555 1_555
C12G C10G 1_555 1_555
H6G C12G 1_555 1_555
O4G C18G 1_555 1_555
C17G C8G 1_555 1_555
H12G C17G 1_555 1_555
C18G C8G 1_555 1_555
O5G C18G 1_555 1_555
C1G C2G 1_555 1_555
N1G C6G 1_555 1_555
C2G C2 1_555 1_555
H1G C2G 1_555 1_555
C3G C1G 1_555 1_555
C4G C4 1_555 1_555
H2G C4G 1_555 1_555
C5G C3G 1_555 1_555
H3G C5G 1_555 1_555
C6G C5G 1_555 1_555
H4G C6G 1_555 1_555
C14G C3G 1_555 1_555
H8G C14G 1_555 1_555
C15G N1G 1_555 1_555
H9G C15G 1_555 1_555
Zn1G N1G 1_555 1_555
O2G Zn1G 1_555 1_555
C13G O2G 1_555 1_555
H7G C13G 1_555 1_555
N2G C13G 1_555 1_555
C19G N2G 1_555 1_555
H13G C19G 1_555 1_555
H14G C19G 1_555 1_555
H15G C19G 1_555 1_555
C20G N2G 1_555 1_555
H16G C20G 1_555 1_555
H17G C20G 1_555 1_555
H18G C20G 1_555 1_555
Zn1B O4G 1_555 1_555
Zn1E O4 1_555 1_555
Zn1G_2 O1G 1_555 1_555
O1G_2 Zn1G 1_555 1_555
O4B Zn1G 1_555 1_555
O4E Zn1 1_555 1_555
O5B Zn1G 1_555 1_555
O5E Zn1 1_555 1_555
C5 C6 1_555 1_555
C11 C17 1_555 1_555
C14 C15 1_555 1_555
O5 Zn1E 1_555 1_555
C9G C11G 1_555 1_555
C11G C17G 1_555 1_555
O5G Zn1B 1_555 1_555
C1G C4G 1_555 1_555
C14G C15G 1_555 1_555

#END
