
#######################################################################
#
#                 Cambridge Crystallographic Data Centre
#                                CCDC 
#
#######################################################################
#
# If this CIF has been generated from an entry in the Cambridge 
# Structural Database, then it will include bibliographic, chemical, 
# crystal, experimental, refinement or atomic coordinate data resulting 
# from the CCDC's data processing and validation procedures.
#
#######################################################################

data_VIWVIH
_symmetry_cell_setting           monoclinic
_symmetry_space_group_name_H-M   'P 21/c'
_symmetry_Int_Tables_number      14
_space_group_name_Hall           '-P 2ybc'
loop_
_symmetry_equiv_pos_site_id
_symmetry_equiv_pos_as_xyz
1 x,y,z
2 -x,1/2+y,1/2-z
3 -x,-y,-z
4 x,1/2-y,1/2+z
_cell_length_a                   15.804(3)
_cell_length_b                   7.4194(9)
_cell_length_c                   9.759(2)
_cell_angle_alpha                90.00
_cell_angle_beta                 106.924(18)
_cell_angle_gamma                90.00
_cell_volume                     1094.75
loop_
_atom_site_label
_atom_site_type_symbol
_atom_site_fract_x
_atom_site_fract_y
_atom_site_fract_z
Cu1 Cu 0.11950(3) 0.40319(6) 0.78578(5)
O1 O 0.2019(2) 0.3781(4) 0.6745(3)
O2 O 0.0235(2) 0.5519(4) 0.8323(3)
O3 O -0.02234(19) 0.8234(4) 0.8872(3)
O4 O 0.1266(3) 0.1388(4) 0.8844(4)
N1 N 0.2088(2) 0.5154(5) 0.9475(4)
C1 C 0.2830(3) 0.4453(6) 0.7021(5)
C2 C 0.3281(3) 0.5346(6) 0.8336(5)
C3 C 0.4151(4) 0.6016(6) 0.8544(6)
H1 H 0.4449 0.6582 0.9426
C4 C 0.4578(4) 0.5863(7) 0.7489(6)
H2 H 0.5153 0.6347 0.7628
C5 C 0.4134(3) 0.4972(7) 0.6212(6)
H3 H 0.4423 0.4832 0.5491
C6 C 0.3285(3) 0.4291(6) 0.5970(5)
H4 H 0.3005 0.3708 0.5088
C7 C 0.2882(3) 0.5599(6) 0.9496(5)
H5 H 0.3241 0.6144 1.0348
C8 C 0.1789(3) 0.5542(6) 1.0753(4)
H6 H 0.2306 0.5850 1.1574
H7 H 0.1504 0.4457 1.1012
C9 C 0.1125(3) 0.7127(6) 1.0442(4)
H8 H 0.0907 0.7295 1.1287
H9 H 0.1447 0.8238 1.0334
C10 C 0.0323(3) 0.6933(6) 0.9116(4)
H10 H 0.077(4) 0.101(6) 0.855(6)
H11 H 0.145(4) 0.130(8) 0.965(7)
Cu1A Cu -0.11950(3) 0.90319(6) 0.71422(5)
O3A O 0.02234(19) 0.3234(4) 0.6128(3)
loop_
_geom_bond_atom_site_label_1
_geom_bond_atom_site_label_2
_geom_bond_site_symmetry_1
_geom_bond_site_symmetry_2
Cu1 O1 1_555 1_555
O1 C1 1_555 1_555
O2 Cu1 1_555 1_555
O3 C10 1_555 1_555
O4 Cu1 1_555 1_555
N1 Cu1 1_555 1_555
C1 C2 1_555 1_555
C2 C3 1_555 1_555
C3 H1 1_555 1_555
C4 C3 1_555 1_555
H2 C4 1_555 1_555
C5 C4 1_555 1_555
H3 C5 1_555 1_555
C6 C1 1_555 1_555
H4 C6 1_555 1_555
C7 N1 1_555 1_555
H5 C7 1_555 1_555
C8 N1 1_555 1_555
H6 C8 1_555 1_555
H7 C8 1_555 1_555
C9 C8 1_555 1_555
H8 C9 1_555 1_555
H9 C9 1_555 1_555
C10 O2 1_555 1_555
H10 O4 1_555 1_555
H11 O4 1_555 1_555
Cu1A O3 1_555 1_555
O3A Cu1 1_555 1_555
C2 C7 1_555 1_555
C5 C6 1_555 1_555
C9 C10 1_555 1_555

#END
