
#######################################################################
#
#                 Cambridge Crystallographic Data Centre
#                                CCDC 
#
#######################################################################
#
# If this CIF has been generated from an entry in the Cambridge 
# Structural Database, then it will include bibliographic, chemical, 
# crystal, experimental, refinement or atomic coordinate data resulting 
# from the CCDC's data processing and validation procedures.
#
#######################################################################

data_VIWWOO
_symmetry_cell_setting           triclinic
_symmetry_space_group_name_H-M   'P -1'
_symmetry_Int_Tables_number      2
_space_group_name_Hall           '-P 1'
loop_
_symmetry_equiv_pos_site_id
_symmetry_equiv_pos_as_xyz
1 x,y,z
2 -x,-y,-z
_cell_length_a                   9.214(3)
_cell_length_b                   10.043(3)
_cell_length_c                   11.982(4)
_cell_angle_alpha                69.30(2)
_cell_angle_beta                 78.14(2)
_cell_angle_gamma                69.09(2)
_cell_volume                     964.88
loop_
_atom_site_label
_atom_site_type_symbol
_atom_site_fract_x
_atom_site_fract_y
_atom_site_fract_z
Mn1 Mn 0.06586(4) -0.39635(3) -0.39745(3)
O1 O -0.1505(2) -0.4021(2) -0.28046(19)
H1 H -0.181(4) -0.473(4) -0.272(3)
H2 H -0.160(4) -0.386(4) -0.216(3)
O2 O 0.1878(2) -0.37561(17) -0.25539(16)
O3 O 0.0254(2) -0.17687(17) -0.36819(16)
O4 O -0.0517(3) -0.32213(19) -0.55041(18)
O5 O -0.1729(2) -0.37123(17) -0.66354(17)
C1 C 0.1299(3) -0.2346(2) -0.2966(2)
C2 C 0.1918(3) -0.1344(2) -0.2653(2)
C3 C 0.3052(3) -0.1884(2) -0.1879(2)
H3 H 0.3422 -0.2908 -0.1495
C4 C 0.3658(3) -0.0920(3) -0.1659(2)
H4 H 0.4427 -0.1296 -0.1134
C5 C 0.3097(3) 0.0618(2) -0.2236(2)
H5 H 0.3489 0.1268 -0.2089
C6 C 0.1969(3) 0.1175(2) -0.3021(2)
C7 C 0.1394(3) 0.0193(2) -0.3234(2)
H6 H 0.0644 0.0566 -0.3774
C8 C -0.1352(3) -0.2827(2) -0.6318(2)
O6 O 0.2761(2) -0.35684(18) -0.52707(16)
N1 N 0.3415(2) -0.2582(2) -0.52393(18)
C9 C 0.4704(3) -0.3079(3) -0.4661(2)
H7 H 0.5165 -0.4103 -0.4325
C10 C 0.5344(3) -0.2088(2) -0.4562(2)
H8 H 0.6231 -0.2447 -0.4156
C11 C 0.4676(2) -0.0541(2) -0.50675(19)
C12 C 0.3371(3) -0.0079(2) -0.5682(2)
H9 H 0.2908 0.0937 -0.6048
C13 C 0.2755(3) -0.1101(3) -0.5758(2)
H10 H 0.1877 -0.0771 -0.6170
Mn1A Mn -0.06586(4) -0.60365(3) -0.60255(3)
Mn1A_2 Mn 0.93414(4) 0.39635(3) -0.60255(3)
Mn1A_3 Mn -0.06586(4) 0.39635(3) -0.60255(3)
Mn1_2 Mn 0.06586(4) 0.60365(3) -0.39745(3)
O1A O 0.1505(2) 0.4021(2) -0.71954(19)
H1A H 0.181(4) 0.473(4) -0.728(3)
H2A H 0.160(4) 0.386(4) -0.784(3)
O2A O -0.1878(2) 0.37561(17) -0.74461(16)
O3A O -0.0254(2) 0.17687(17) -0.63181(16)
O4A O 0.0517(3) 0.32213(19) -0.44959(18)
O5A O 0.1729(2) -0.62877(17) -0.33646(17)
O5A_2 O 0.1729(2) 0.37123(17) -0.33646(17)
O5_2 O -0.1729(2) 0.62877(17) -0.66354(17)
C1A C -0.1299(3) 0.2346(2) -0.7034(2)
C2A C -0.1918(3) 0.1344(2) -0.7347(2)
C3A C -0.3052(3) 0.1884(2) -0.8121(2)
H3A H -0.3422 0.2908 -0.8505
C4A C -0.3658(3) 0.0920(3) -0.8341(2)
H4A H -0.4427 0.1296 -0.8866
C5A C -0.3097(3) -0.0618(2) -0.7764(2)
H5A H -0.3489 -0.1268 -0.7911
C6A C -0.1969(3) -0.1175(2) -0.6979(2)
C7A C -0.1394(3) -0.0193(2) -0.6766(2)
H6A H -0.0644 -0.0566 -0.6226
C8A C 0.1352(3) 0.2827(2) -0.3682(2)
O6A O 0.7239(2) 0.35684(18) -0.47293(16)
O6A_2 O -0.2761(2) 0.35684(18) -0.47293(16)
N1A N 0.6585(2) 0.2582(2) -0.47607(18)
C9A C 0.5296(3) 0.3079(3) -0.5339(2)
H7A H 0.4835 0.4103 -0.5675
C10A C 0.4656(3) 0.2088(2) -0.5438(2)
H8A H 0.3769 0.2447 -0.5844
C11A C 0.5324(2) 0.0541(2) -0.49325(19)
C12A C 0.6629(3) 0.0079(2) -0.4318(2)
H9A H 0.7092 -0.0937 -0.3952
C13A C 0.7245(3) 0.1101(3) -0.4242(2)
H10A H 0.8123 0.0771 -0.3830
O7 O -0.2316(3) -0.3201(2) -0.07629(18)
N2 N -0.1678(3) -0.2339(3) -0.0554(2)
C14 C -0.0565(4) -0.2931(3) 0.0216(3)
H11 H -0.0245 -0.3957 0.0602
C15 C 0.0099(3) -0.2029(3) 0.0434(2)
H12 H 0.0867 -0.2459 0.0965
C16 C -0.0349(3) -0.0492(3) -0.0120(2)
C17 C -0.1507(3) 0.0078(3) -0.0902(2)
H13 H -0.1858 0.1102 -0.1290
C18 C -0.2138(4) -0.0859(3) -0.1104(2)
H14 H -0.2902 -0.0456 -0.1636
O7A O 0.2316(3) 0.3201(2) 0.07629(18)
N2A N 0.1678(3) 0.2339(3) 0.0554(2)
C14A C 0.0565(4) 0.2931(3) -0.0216(3)
H11A H 0.0245 0.3957 -0.0602
C15A C -0.0099(3) 0.2029(3) -0.0434(2)
H12A H -0.0867 0.2459 -0.0965
C16A C 0.0349(3) 0.0492(3) 0.0120(2)
C17A C 0.1507(3) -0.0078(3) 0.0902(2)
H13A H 0.1858 -0.1102 0.1290
C18A C 0.2138(4) 0.0859(3) 0.1104(2)
H14A H 0.2902 0.0456 0.1636
O8 O 0.2796(3) -0.3797(2) -0.75278(19)
H15 H 0.360(3) -0.373(4) -0.793(3)
H16 H 0.279(4) -0.372(4) -0.687(2)
O9 O 0.4279(3) -0.6167(4) -0.1388(3)
H17 H 0.383(6) -0.651(6) -0.071(3)
H18 H 0.361(5) -0.550(5) -0.182(4)
loop_
_geom_bond_atom_site_label_1
_geom_bond_atom_site_label_2
_geom_bond_site_symmetry_1
_geom_bond_site_symmetry_2
Mn1 O1 1_555 1_555
O1 H1 1_555 1_555
H2 O1 1_555 1_555
O2 Mn1 1_555 1_555
O3 Mn1 1_555 1_555
O4 Mn1 1_555 1_555
O5 C8 1_555 1_555
C1 O2 1_555 1_555
C2 C1 1_555 1_555
C3 C2 1_555 1_555
H3 C3 1_555 1_555
C4 C3 1_555 1_555
H4 C4 1_555 1_555
C5 C4 1_555 1_555
H5 C5 1_555 1_555
C6 C5 1_555 1_555
C7 C2 1_555 1_555
H6 C7 1_555 1_555
C8 O4 1_555 1_555
O6 Mn1 1_555 1_555
N1 O6 1_555 1_555
C9 N1 1_555 1_555
H7 C9 1_555 1_555
C10 C9 1_555 1_555
H8 C10 1_555 1_555
C11 C10 1_555 1_555
C12 C11 1_555 1_555
H9 C12 1_555 1_555
C13 N1 1_555 1_555
H10 C13 1_555 1_555
O7 N2 1_555 1_555
N2 C14 1_555 1_555
C14 H11 1_555 1_555
C15 C14 1_555 1_555
H12 C15 1_555 1_555
C16 C15 1_555 1_555
C17 C16 1_555 1_555
H13 C17 1_555 1_555
C18 N2 1_555 1_555
H14 C18 1_555 1_555
O8 H15 1_555 1_555
H16 O8 1_555 1_555
O9 H17 1_555 1_555
H18 O9 1_555 1_555
Mn1A O5 1_555 1_555
Mn1A_2 O6A 1_555 1_555
Mn1A_3 O1A 1_555 1_555
Mn1_2 O5A_2 1_555 1_555
O1A H1A 1_555 1_555
H2A O1A 1_555 1_555
O2A Mn1A_3 1_555 1_555
O3A Mn1A_3 1_555 1_555
O4A Mn1A_3 1_555 1_555
O5A Mn1 1_555 1_555
O5A_2 C8A 1_555 1_555
O5_2 Mn1A_3 1_555 1_555
C1A O2A 1_555 1_555
C2A C1A 1_555 1_555
C3A C2A 1_555 1_555
H3A C3A 1_555 1_555
C4A C3A 1_555 1_555
H4A C4A 1_555 1_555
C5A C4A 1_555 1_555
H5A C5A 1_555 1_555
C6A C8 1_555 1_555
C7A C2A 1_555 1_555
H6A C7A 1_555 1_555
C8A C6 1_555 1_555
O6A N1A 1_555 1_555
O6A_2 Mn1A_3 1_555 1_555
N1A C9A 1_555 1_555
C9A H7A 1_555 1_555
C10A C9A 1_555 1_555
H8A C10A 1_555 1_555
C11A C11 1_555 1_555
C12A C11A 1_555 1_555
H9A C12A 1_555 1_555
C13A N1A 1_555 1_555
H10A C13A 1_555 1_555
O7A N2A 1_555 1_555
N2A C14A 1_555 1_555
C14A H11A 1_555 1_555
C15A C14A 1_555 1_555
H12A C15A 1_555 1_555
C16A C16 1_555 1_555
C17A C16A 1_555 1_555
H13A C17A 1_555 1_555
C18A N2A 1_555 1_555
H14A C18A 1_555 1_555
O3 C1 1_555 1_555
C6 C7 1_555 1_555
C12 C13 1_555 1_555
C17 C18 1_555 1_555
O3A C1A 1_555 1_555
O4A C8A 1_555 1_555
C5A C6A 1_555 1_555
C6A C7A 1_555 1_555
C10A C11A 1_555 1_555
C12A C13A 1_555 1_555
C15A C16A 1_555 1_555
C17A C18A 1_555 1_555

#END
