
#######################################################################
#
#                 Cambridge Crystallographic Data Centre
#                                CCDC 
#
#######################################################################
#
# If this CIF has been generated from an entry in the Cambridge 
# Structural Database, then it will include bibliographic, chemical, 
# crystal, experimental, refinement or atomic coordinate data resulting 
# from the CCDC's data processing and validation procedures.
#
#######################################################################

data_VIWXOP
_symmetry_cell_setting           orthorhombic
_symmetry_space_group_name_H-M   'P 21 21 21'
_symmetry_Int_Tables_number      19
_space_group_name_Hall           'P 2ac 2ab'
loop_
_symmetry_equiv_pos_site_id
_symmetry_equiv_pos_as_xyz
1 x,y,z
2 1/2-x,-y,1/2+z
3 -x,1/2+y,1/2-z
4 1/2+x,1/2-y,-z
_cell_length_a                   4.7156(18)
_cell_length_b                   8.312(3)
_cell_length_c                   25.557(10)
_cell_angle_alpha                90
_cell_angle_beta                 90
_cell_angle_gamma                90
_cell_volume                     1001.73
loop_
_atom_site_label
_atom_site_type_symbol
_atom_site_fract_x
_atom_site_fract_y
_atom_site_fract_z
Cd1 Cd 0.1866(4) 0.15408(16) -0.06276(5)
S1 S 0.5491(15) 0.4087(7) -0.2251(2)
S2 S 0.9691(14) 0.2441(7) -0.30164(19)
S3 S 1.1915(16) 0.2512(6) -0.41296(19)
O1 O 0.371(3) 0.3122(13) -0.1258(4)
O2 O 0.739(3) 0.1782(19) -0.0976(5)
O3 O 1.292(4) 0.0471(17) -0.5036(5)
O4 O 0.962(3) -0.1343(17) -0.4878(5)
N1 N 0.650(4) 0.4848(18) -0.3234(5)
N2 N 0.808(5) 0.4452(19) -0.3681(6)
C1 C 0.611(4) 0.261(2) -0.1305(7)
C2 C 0.775(5) 0.287(2) -0.1832(6)
H1 H 0.8147 0.1844 -0.1997
H2 H 0.9535 0.3418 -0.1769
C3 C 0.728(4) 0.3875(19) -0.2843(6)
C4 C 0.979(4) 0.322(2) -0.3640(6)
C5 C 0.933(5) 0.106(2) -0.4386(9)
H3 H 0.8564 0.0424 -0.4100
H4 H 0.7778 0.1625 -0.4552
C6 C 1.072(5) -0.001(2) -0.4768(7)
Cd1_2 Cd 1.1866(4) 0.15408(16) -0.06276(5)
Cd1A Cd 1.3134(4) -0.15408(16) -0.56276(5)
Cd1B Cd 0.8134(4) -0.34592(16) -0.43724(5)
Cd1B_2 Cd 0.8134(4) 0.65408(16) -0.43724(5)
O2_2 O -0.261(3) 0.1782(19) -0.0976(5)
O3A O 0.208(4) -0.0471(17) -0.0036(5)
O4A O 0.538(3) 0.1343(17) 0.0122(5)
O4B O 0.038(3) 0.3657(17) -0.0122(5)
N2B N 0.192(5) -0.0548(19) -0.1319(6)
loop_
_geom_bond_atom_site_label_1
_geom_bond_atom_site_label_2
_geom_bond_site_symmetry_1
_geom_bond_site_symmetry_2
Cd1 O1 1_555 1_555
S1 C2 1_555 1_555
S2 C3 1_555 1_555
S3 C4 1_555 1_555
O1 C1 1_555 1_555
O2 C1 1_555 1_555
O3 C6 1_555 1_555
O4 C6 1_555 1_555
N1 N2 1_555 1_555
N2 C4 1_555 1_555
C1 C2 1_555 1_555
C2 H1 1_555 1_555
H2 C2 1_555 1_555
C3 S1 1_555 1_555
C4 S2 1_555 1_555
C5 S3 1_555 1_555
H3 C5 1_555 1_555
H4 C5 1_555 1_555
C6 C5 1_555 1_555
Cd1_2 O2 1_555 1_555
Cd1A O3 1_555 1_555
Cd1B O4 1_555 1_555
Cd1B_2 N2 1_555 1_555
O2_2 Cd1 1_555 1_555
O3A Cd1 1_555 1_555
O4A Cd1 1_555 1_555
O4B Cd1 1_555 1_555
N2B Cd1 1_555 1_555
O4 Cd1A 1_555 1_555
N1 C3 1_555 1_555

#END
