
#######################################################################
#
#                 Cambridge Crystallographic Data Centre
#                                CCDC 
#
#######################################################################
#
# If this CIF has been generated from an entry in the Cambridge 
# Structural Database, then it will include bibliographic, chemical, 
# crystal, experimental, refinement or atomic coordinate data resulting 
# from the CCDC's data processing and validation procedures.
#
#######################################################################

data_VIWXIK
_symmetry_cell_setting           orthorhombic
_symmetry_space_group_name_H-M   'P b c n'
_symmetry_Int_Tables_number      60
_space_group_name_Hall           '-P 2n 2ab'
loop_
_symmetry_equiv_pos_site_id
_symmetry_equiv_pos_as_xyz
1 x,y,z
2 1/2-x,1/2-y,1/2+z
3 -x,y,1/2-z
4 1/2+x,1/2-y,-z
5 -x,-y,-z
6 1/2+x,1/2+y,1/2-z
7 x,-y,1/2+z
8 1/2-x,1/2+y,z
_cell_length_a                   28.73200(10)
_cell_length_b                   13.59960(10)
_cell_length_c                   17.57500(10)
_cell_angle_alpha                90
_cell_angle_beta                 90
_cell_angle_gamma                90
_cell_volume                     6867.32
loop_
_atom_site_label
_atom_site_type_symbol
_atom_site_fract_x
_atom_site_fract_y
_atom_site_fract_z
C1 C 0.15940(5) 1.09799(11) 0.24403(7)
C2 C 0.11797(5) 1.08542(11) 0.29355(8)
C3 C 0.05081(5) 0.99469(12) 0.33578(9)
H1 H 0.0302 0.9431 0.3275
C4 C 0.07355(5) 1.12771(11) 0.40508(8)
H2 H 0.0690 1.1703 0.4458
C5 C 0.43120(5) 0.80496(12) -0.01351(10)
H3 H 0.4364 0.8606 -0.0431
C6 C 0.41952(6) 0.63872(12) 0.06859(9)
H4 H 0.4152 0.5822 0.0975
C7 C 0.17359(5) 1.02368(11) 0.19471(8)
H5 H 0.1564 0.9658 0.1922
C8 C 0.10967(5) 1.14757(11) 0.35509(8)
H6 H 0.1284 1.2025 0.3626
C9 C 0.39646(5) 0.80566(11) 0.04218(9)
C10 C 0.39091(6) 0.71846(12) 0.08256(9)
H7 H 0.3677 0.7138 0.1193
C11 C 0.18614(5) 1.18374(11) 0.24604(8)
H8 H 0.1775 1.2345 0.2786
C12 C 0.45788(5) 0.72145(12) -0.02466(10)
H9 H 0.4805 0.7231 -0.0624
C13 C 0.08597(5) 1.00943(12) 0.28314(9)
H10 H 0.0883 0.9687 0.2408
Mn1 Mn 0.5000 0.5000 0.0000
Cl1 Cl 0.448775(11) 0.40326(3) 0.089985(19)
N1 N 0.45311(4) 0.63840(9) 0.01557(7)
N2 N 0.27838(4) 1.13274(9) 0.10432(7)
C14 C 0.24912(5) 1.34287(11) -0.02124(9)
H11 H 0.2236 1.3656 -0.0486
C15 C 0.29103(5) 1.39505(10) -0.02399(8)
C16 C 0.30857(5) 1.05350(10) 0.08864(8)
C17 C 0.35804(5) 0.96292(12) 0.00269(8)
H12 H 0.3717 0.9567 -0.0451
C18 C 0.23883(5) 1.11983(11) 0.15155(8)
C19 C 0.31845(5) 0.98456(11) 0.14494(9)
H13 H 0.3058 0.9921 0.1933
C20 C 0.32841(5) 1.35820(11) 0.01826(9)
H14 H 0.3566 1.3920 0.0181
C21 C 0.28252(5) 1.22144(10) 0.06207(8)
C22 C 0.32443(5) 1.27259(11) 0.06037(8)
H15 H 0.3499 1.2492 0.0876
N3 N 0.04475(4) 1.05043(10) 0.39806(7)
C23 C 0.34686(5) 0.90527(11) 0.12963(9)
H16 H 0.3527 0.8595 0.1678
C24 C 0.36713(5) 0.89227(11) 0.05784(9)
C25 C 0.32920(5) 1.04222(11) 0.01706(9)
H17 H 0.3235 1.0882 -0.0210
C26 C 0.21269(5) 1.03388(11) 0.14933(8)
H18 H 0.2215 0.9829 0.1172
C27 C 0.24495(5) 1.25795(11) 0.02155(9)
H19 H 0.2166 1.2250 0.0231
C28 C 0.22521(5) 1.19474(11) 0.20060(8)
H20 H 0.2424 1.2526 0.2029
C29 C 0.33268(6) 1.55088(11) -0.05932(11)
H21 H 0.3562 1.5356 -0.0249
C30 C 0.26163(6) 1.51650(14) -0.12058(11)
H22 H 0.2358 1.4770 -0.1295
C31 C 0.29507(5) 1.48742(11) -0.06797(9)
N4 N 0.30290(6) 1.66529(12) -0.15102(10)
C32 C 0.33538(7) 1.63626(13) -0.10132(12)
H23 H 0.3614 1.6761 -0.0947
C33 C 0.26685(7) 1.60401(16) -0.15956(12)
H24 H 0.2437 1.6215 -0.1941
C1D C 0.84060(5) -0.09799(11) -0.24403(7)
C2D C 0.88203(5) -0.08542(11) -0.29355(8)
C3D C 0.94919(5) 0.00531(12) -0.33578(9)
H1D H 0.9698 0.0569 -0.3275
C4D C 0.92645(5) -0.12771(11) -0.40508(8)
H2D H 0.9310 -0.1703 -0.4458
C5D C 0.56880(5) 0.19504(12) 0.01351(10)
H3D H 0.5636 0.1394 0.0431
C6D C 0.58048(6) 0.36128(12) -0.06859(9)
H4D H 0.5848 0.4178 -0.0975
C7D C 0.82641(5) -0.02368(11) -0.19471(8)
H5D H 0.8436 0.0342 -0.1922
C8D C 0.89033(5) -0.14757(11) -0.35509(8)
H6D H 0.8716 -0.2025 -0.3626
C9D C 0.60354(5) 0.19434(11) -0.04218(9)
C10D C 0.60909(6) 0.28154(12) -0.08256(9)
H7D H 0.6323 0.2862 -0.1193
C11D C 0.81386(5) -0.18374(11) -0.24604(8)
H8D H 0.8225 -0.2345 -0.2786
C12D C 0.54212(5) 0.27855(12) 0.02466(10)
H9D H 0.5195 0.2769 0.0624
C13D C 0.91403(5) -0.00943(12) -0.28314(9)
H10D H 0.9117 0.0313 -0.2408
Cl1D Cl 0.551225(11) 0.59674(3) -0.089985(19)
N1D N 0.54689(4) 0.36160(9) -0.01557(7)
N2D N 0.72162(4) -0.13274(9) -0.10432(7)
C14D C 0.75088(5) -0.34287(11) 0.02124(9)
H11D H 0.7764 -0.3656 0.0486
C15D C 0.70897(5) -0.39505(10) 0.02399(8)
C16D C 0.69143(5) -0.05350(10) -0.08864(8)
C17D C 0.64196(5) 0.03708(12) -0.00269(8)
H12D H 0.6283 0.0433 0.0451
C18D C 0.76117(5) -0.11983(11) -0.15155(8)
C19D C 0.68155(5) 0.01544(11) -0.14494(9)
H13D H 0.6942 0.0079 -0.1933
C20D C 0.67159(5) -0.35820(11) -0.01826(9)
H14D H 0.6434 -0.3920 -0.0181
C21D C 0.71748(5) -0.22144(10) -0.06207(8)
C22D C 0.67557(5) -0.27259(11) -0.06037(8)
H15D H 0.6501 -0.2492 -0.0876
N3D N 0.95525(4) -0.05043(10) -0.39806(7)
C23D C 0.65314(5) 0.09473(11) -0.12963(9)
H16D H 0.6473 0.1405 -0.1678
C24D C 0.63287(5) 0.10773(11) -0.05784(9)
C25D C 0.67080(5) -0.04222(11) -0.01706(9)
H17D H 0.6765 -0.0882 0.0210
C26D C 0.78731(5) -0.03388(11) -0.14933(8)
H18D H 0.7785 0.0171 -0.1172
C27D C 0.75505(5) -0.25795(11) -0.02155(9)
H19D H 0.7834 -0.2250 -0.0231
C28D C 0.77479(5) -0.19474(11) -0.20060(8)
H20D H 0.7576 -0.2526 -0.2029
C29D C 0.66732(6) -0.55088(11) 0.05932(11)
H21D H 0.6438 -0.5356 0.0249
C30D C 0.73837(6) -0.51650(14) 0.12058(11)
H22D H 0.7642 -0.4770 0.1295
C31D C 0.70493(5) -0.48742(11) 0.06797(9)
N4D N 0.69710(6) -0.66529(12) 0.15102(10)
C32D C 0.66462(7) -0.63626(13) 0.10132(12)
H23D H 0.6386 -0.6761 0.0947
C33D C 0.73315(7) -0.60401(16) 0.15956(12)
H24D H 0.7563 -0.6215 0.1941
Mn1A Mn 0.0000 1.0000 0.5000
Mn1A_2 Mn 1.0000 0.0000 -0.5000
N3A N 0.45525(4) 0.44957(10) -0.10194(7)
N3E N 0.54475(4) 0.55043(10) 0.10194(7)
loop_
_geom_bond_atom_site_label_1
_geom_bond_atom_site_label_2
_geom_bond_site_symmetry_1
_geom_bond_site_symmetry_2
C1 C2 1_555 1_555
C2 C8 1_555 1_555
C3 H1 1_555 1_555
C4 H2 1_555 1_555
C5 H3 1_555 1_555
C6 H4 1_555 1_555
C7 C1 1_555 1_555
H5 C7 1_555 1_555
C8 C4 1_555 1_555
H6 C8 1_555 1_555
C9 C5 1_555 1_555
C10 C6 1_555 1_555
H7 C10 1_555 1_555
C11 C1 1_555 1_555
H8 C11 1_555 1_555
C12 C5 1_555 1_555
H9 C12 1_555 1_555
C13 C2 1_555 1_555
H10 C13 1_555 1_555
Mn1 Cl1 1_555 1_555
N1 C6 1_555 1_555
N2 C16 1_555 1_555
C14 H11 1_555 1_555
C15 C14 1_555 1_555
C16 C19 1_555 1_555
C17 H12 1_555 1_555
C18 N2 1_555 1_555
C19 H13 1_555 1_555
C20 C15 1_555 1_555
H14 C20 1_555 1_555
C21 N2 1_555 1_555
C22 C20 1_555 1_555
H15 C22 1_555 1_555
N3 C3 1_555 1_555
C23 C19 1_555 1_555
H16 C23 1_555 1_555
C24 C9 1_555 1_555
C25 C16 1_555 1_555
H17 C25 1_555 1_555
C26 C7 1_555 1_555
H18 C26 1_555 1_555
C27 C14 1_555 1_555
H19 C27 1_555 1_555
C28 C11 1_555 1_555
H20 C28 1_555 1_555
C29 H21 1_555 1_555
C30 H22 1_555 1_555
C31 C15 1_555 1_555
N4 C32 1_555 1_555
C32 C29 1_555 1_555
H23 C32 1_555 1_555
C33 C30 1_555 1_555
H24 C33 1_555 1_555
C1D C2D 1_555 1_555
C2D C8D 1_555 1_555
C3D H1D 1_555 1_555
C4D H2D 1_555 1_555
C5D H3D 1_555 1_555
C6D H4D 1_555 1_555
C7D C1D 1_555 1_555
H5D C7D 1_555 1_555
C8D C4D 1_555 1_555
H6D C8D 1_555 1_555
C9D C5D 1_555 1_555
C10D C6D 1_555 1_555
H7D C10D 1_555 1_555
C11D C1D 1_555 1_555
H8D C11D 1_555 1_555
C12D C5D 1_555 1_555
H9D C12D 1_555 1_555
C13D C2D 1_555 1_555
H10D C13D 1_555 1_555
Cl1D Mn1 1_555 1_555
N1D Mn1 1_555 1_555
N2D C16D 1_555 1_555
C14D H11D 1_555 1_555
C15D C14D 1_555 1_555
C16D C19D 1_555 1_555
C17D H12D 1_555 1_555
C18D N2D 1_555 1_555
C19D H13D 1_555 1_555
C20D C15D 1_555 1_555
H14D C20D 1_555 1_555
C21D N2D 1_555 1_555
C22D C20D 1_555 1_555
H15D C22D 1_555 1_555
N3D C3D 1_555 1_555
C23D C19D 1_555 1_555
H16D C23D 1_555 1_555
C24D C9D 1_555 1_555
C25D C16D 1_555 1_555
H17D C25D 1_555 1_555
C26D C7D 1_555 1_555
H18D C26D 1_555 1_555
C27D C14D 1_555 1_555
H19D C27D 1_555 1_555
C28D C11D 1_555 1_555
H20D C28D 1_555 1_555
C29D H21D 1_555 1_555
C30D H22D 1_555 1_555
C31D C15D 1_555 1_555
N4D C32D 1_555 1_555
C32D C29D 1_555 1_555
H23D C32D 1_555 1_555
C33D C30D 1_555 1_555
H24D C33D 1_555 1_555
Mn1A N3 1_555 1_555
Mn1A_2 N3D 1_555 1_555
N3A Mn1 1_555 1_555
N3E Mn1 1_555 1_555
C3 C13 1_555 1_555
C4 N3 1_555 1_555
C9 C10 1_555 1_555
C12 N1 1_555 1_555
Mn1 N1 1_555 1_555
C17 C24 1_555 1_555
C17 C25 1_555 1_555
C18 C26 1_555 1_555
C18 C28 1_555 1_555
C21 C22 1_555 1_555
C21 C27 1_555 1_555
C23 C24 1_555 1_555
C29 C31 1_555 1_555
C30 C31 1_555 1_555
N4 C33 1_555 1_555
C3D C13D 1_555 1_555
C4D N3D 1_555 1_555
C6D N1D 1_555 1_555
C9D C10D 1_555 1_555
C12D N1D 1_555 1_555
C17D C24D 1_555 1_555
C17D C25D 1_555 1_555
C18D C26D 1_555 1_555
C18D C28D 1_555 1_555
C21D C22D 1_555 1_555
C21D C27D 1_555 1_555
C23D C24D 1_555 1_555
C29D C31D 1_555 1_555
C30D C31D 1_555 1_555
N4D C33D 1_555 1_555

#END
