
#######################################################################
#
#                 Cambridge Crystallographic Data Centre
#                                CCDC 
#
#######################################################################
#
# If this CIF has been generated from an entry in the Cambridge 
# Structural Database, then it will include bibliographic, chemical, 
# crystal, experimental, refinement or atomic coordinate data resulting 
# from the CCDC's data processing and validation procedures.
#
#######################################################################

data_VIWYUV
_symmetry_cell_setting           monoclinic
_symmetry_space_group_name_H-M   'P 1 1 21/a'
_symmetry_Int_Tables_number      14
_space_group_name_Hall           '-P 2ac'
loop_
_symmetry_equiv_pos_site_id
_symmetry_equiv_pos_as_xyz
1 x,y,z
2 1/2-x,-y,1/2+z
3 -x,-y,-z
4 1/2+x,y,1/2-z
_cell_length_a                   24.117(7)
_cell_length_b                   7.498(2)
_cell_length_c                   6.514(2)
_cell_angle_alpha                90
_cell_angle_beta                 90
_cell_angle_gamma                95.91(2)
_cell_volume                     1171.66
loop_
_atom_site_label
_atom_site_type_symbol
_atom_site_fract_x
_atom_site_fract_y
_atom_site_fract_z
Cu1 Cu 0.06571(4) -0.5046(1) 0.8744(1)
Cu2 Cu 0.01718(4) -0.2541(1) 0.4301(1)
Cl1 Cl -0.06456(8) -0.2220(2) 0.2707(3)
Cl2 Cl -0.00981(7) -0.3831(2) 0.7416(3)
C1 C 0.1004(3) -0.1800(10) 0.4585(12)
C2 C 0.0830(3) -0.0905(9) 0.2946(12)
C3 C 0.0925(3) -0.1307(9) 0.0707(11)
C4 C 0.1107(3) -0.3083(9) 0.0349(10)
C5 C 0.1370(3) -0.4403(10) 0.0378(11)
C6 C 0.1738(3) -0.5761(9) 0.0809(12)
C7 C 0.1704(3) -0.6638(10) 0.2686(13)
C8 C 0.2082(4) -0.7882(11) 0.3170(20)
C9 C 0.2463(4) -0.8279(11) 0.1730(20)
C10 C 0.2478(4) -0.7438(12) -0.0140(20)
C11 C 0.2119(3) -0.6247(11) -0.0604(12)
H1 H 0.124(2) -0.288(7) 0.451(9)
H2 H 0.105(2) -0.129(7) 0.594(8)
H3 H 0.072(2) 0.012(7) 0.324(9)
H4 H 0.058(2) -0.114(7) -0.011(9)
H5 H 0.123(2) -0.028(7) 0.003(8)
H6 H 0.150(2) -0.620(7) 0.356(8)
H7 H 0.203(2) -0.847(7) 0.455(9)
H8 H 0.271(2) -0.899(7) 0.165(8)
H9 H 0.268(2) -0.762(7) -0.081(8)
H10 H 0.212(3) -0.586(9) -0.176(10)
Cu2B Cu -0.01718(4) -0.7459(1) 0.5699(1)
Cu1B Cu -0.06571(4) -0.4954(1) 0.1256(1)
Cl1B Cl 0.06456(8) -0.7780(2) 0.7293(3)
Cu1_2 Cu 0.06571(4) -0.5046(1) -0.1256(1)
C4_2 C 0.1107(3) -0.3083(9) 1.0349(10)
C5_2 C 0.1370(3) -0.4403(10) 1.0378(11)
loop_
_geom_bond_atom_site_label_1
_geom_bond_atom_site_label_2
_geom_bond_site_symmetry_1
_geom_bond_site_symmetry_2
Cu1 Cl2 1_555 1_555
Cu2 Cl1 1_555 1_555
Cl1 Cu1B 1_555 1_555
Cl2 Cu2 1_555 1_555
C1 Cu2 1_555 1_555
C2 Cu2 1_555 1_555
C3 C2 1_555 1_555
C4 C3 1_555 1_555
C5 C4 1_555 1_555
C6 C5 1_555 1_555
C7 C6 1_555 1_555
C8 C7 1_555 1_555
C9 C8 1_555 1_555
C10 C9 1_555 1_555
C11 C6 1_555 1_555
H1 C1 1_555 1_555
H2 C1 1_555 1_555
H3 C2 1_555 1_555
H4 C3 1_555 1_555
H5 C3 1_555 1_555
H6 C7 1_555 1_555
H7 C8 1_555 1_555
H8 C9 1_555 1_555
H9 C10 1_555 1_555
H10 C11 1_555 1_555
Cu2B Cu1 1_555 1_555
Cu1B Cu2 1_555 1_555
Cl1B Cu1 1_555 1_555
Cu1_2 C4 1_555 1_555
C4_2 Cu1 1_555 1_555
C5_2 Cu1 1_555 1_555
C1 C2 1_555 1_555
C5 Cu1_2 1_555 1_555
C10 C11 1_555 1_555
Cu2B Cl1B 1_555 1_555
C4_2 C5_2 1_555 1_555

#END
