
#######################################################################
#
#                 Cambridge Crystallographic Data Centre
#                                CCDC 
#
#######################################################################
#
# If this CIF has been generated from an entry in the Cambridge 
# Structural Database, then it will include bibliographic, chemical, 
# crystal, experimental, refinement or atomic coordinate data resulting 
# from the CCDC's data processing and validation procedures.
#
#######################################################################

data_VIWYIK
_symmetry_cell_setting           monoclinic
_symmetry_space_group_name_H-M   'C 2/c'
_symmetry_Int_Tables_number      15
_space_group_name_Hall           '-C 2yn'
loop_
_symmetry_equiv_pos_site_id
_symmetry_equiv_pos_as_xyz
1 x,y,z
2 1/2+x,1/2+y,z
3 -x,y,1/2-z
4 1/2-x,1/2+y,1/2-z
5 -x,-y,-z
6 1/2-x,1/2-y,-z
7 x,-y,1/2+z
8 1/2+x,1/2-y,1/2+z
_cell_length_a                   12.9416(8)
_cell_length_b                   16.9257(11)
_cell_length_c                   13.9262(9)
_cell_angle_alpha                90
_cell_angle_beta                 111.8610(10)
_cell_angle_gamma                90
_cell_volume                     2831.11
loop_
_atom_site_label
_atom_site_type_symbol
_atom_site_fract_x
_atom_site_fract_y
_atom_site_fract_z
Zn1 Zn 0.0000 0.27412(5) 1.2500
Zn2 Zn 0.24857(4) 0.27445(4) 1.39603(4)
O1 O 0.1209(3) 0.3583(2) 1.3703(3)
O2 O 0.1099(3) 0.1956(2) 1.3562(2)
O3 O 0.2694(3) 0.2708(3) 1.2656(2)
C1 C 0.1908(4) 0.2744(3) 1.1782(4)
O4 O 0.1355(3) 0.1513(2) 1.5147(3)
C2 C -0.1984(6) -0.0002(4) 1.3010(6)
H1 H -0.2615 -0.0319 1.2751
C3 C -0.0783(5) 0.0829(4) 1.4337(5)
H2 H -0.0593 0.1062 1.4984
C4 C -0.1720(6) 0.0358(4) 1.3955(6)
H3 H -0.2170 0.0285 1.4335
O5 O 0.0906(3) 0.2852(2) 1.1637(2)
C5 C -0.0012(5) 0.4881(4) 1.4012(4)
H4 H -0.0019 0.4801 1.3348
C6 C -0.0383(5) 0.0585(3) 1.2795(4)
C7 C 0.0846(4) 0.1509(3) 1.4190(4)
C8 C -0.0119(5) 0.0956(3) 1.3756(4)
C9 C -0.1316(6) 0.0104(4) 1.2440(5)
H5 H -0.1497 -0.0152 1.1808
C10 C 0.0553(5) 0.4477(4) 1.5784(4)
H6 H 0.0927 0.4124 1.6310
C11 C 0.1138(4) 0.3663(3) 1.4595(4)
O6 O 0.1579(3) 0.3193(2) 1.5328(3)
C12 C 0.0539(4) 0.4357(3) 1.4790(4)
C13 C 0.1415(4) 0.2679(4) 0.9872(4)
H7 H 0.0685 0.2803 0.9783
C14 C 0.3308(5) 0.2453(4) 1.0983(4)
C15 C 0.2214(4) 0.2628(3) 1.0851(4)
H8 H 0.381(4) 0.244(3) 1.165(4)
Zn1F Zn 0.0000 0.72588(5) 1.7500
Zn1G Zn 0.5000 0.22588(5) 0.7500
Zn2D Zn -0.24857(4) 0.72555(4) 1.60397(4)
Zn2E Zn 0.25143(4) 0.22555(4) 1.60397(4)
Zn2A Zn -0.25143(4) 0.77445(4) 1.39603(4)
Zn2B Zn -0.24857(4) 0.27445(4) 1.10397(4)
Zn2G Zn -0.25143(4) 0.22555(4) 0.89603(4)
Zn2E_2 Zn 0.25143(4) 0.22555(4) 0.60397(4)
O1D O -0.1209(3) 0.6417(2) 1.6297(3)
O1B O -0.1209(3) 0.3583(2) 1.1297(3)
O2B O -0.1099(3) 0.1956(2) 1.1438(2)
O2D O -0.1099(3) 0.8044(2) 1.6438(2)
O3E O 0.2306(3) 0.2292(3) 0.7344(2)
O3D O -0.2694(3) 0.7292(3) 1.7344(2)
C1E C 0.3092(4) 0.2256(3) 0.8218(4)
O4B O -0.1355(3) 0.1513(2) 0.9853(3)
O4E O 0.3645(3) 0.3487(2) 1.4853(3)
O4A O -0.3645(3) 0.6513(2) 1.5147(3)
C2B C 0.1984(6) -0.0002(4) 1.1990(6)
H1B H 0.2615 -0.0319 1.2249
C3B C 0.0783(5) 0.0829(4) 1.0663(5)
H2B H 0.0593 0.1062 1.0016
C4B C 0.1720(6) 0.0358(4) 1.1045(6)
H3B H 0.2170 0.0285 1.0665
O5E O 0.4094(3) 0.2148(2) 0.8363(2)
O5B O -0.0906(3) 0.2852(2) 1.3363(2)
C5D C 0.0012(5) 0.5119(4) 1.5988(4)
H4D H 0.0019 0.5199 1.6652
C6B C 0.0383(5) 0.0585(3) 1.2205(4)
C7B C -0.0846(4) 0.1509(3) 1.0810(4)
C8B C 0.0119(5) 0.0956(3) 1.1244(4)
C9B C 0.1316(6) 0.0104(4) 1.2560(5)
H5B H 0.1497 -0.0152 1.3192
C10D C -0.0553(5) 0.5523(4) 1.4216(4)
H6D H -0.0927 0.5876 1.3690
C11D C -0.1138(4) 0.6337(3) 1.5405(4)
O6D O -0.1579(3) 0.6807(2) 1.4672(3)
O6E O 0.3421(3) 0.1807(2) 1.4672(3)
O6A O -0.3421(3) 0.8193(2) 1.5328(3)
C12D C -0.0539(4) 0.5643(3) 1.5210(4)
C13E C 0.3585(4) 0.2321(4) 1.0128(4)
H7E H 0.4315 0.2197 1.0217
C14E C 0.1692(5) 0.2547(4) 0.9017(4)
C15E C 0.2786(4) 0.2372(3) 0.9149(4)
H8E H 0.119(4) 0.256(3) 0.835(4)
loop_
_geom_bond_atom_site_label_1
_geom_bond_atom_site_label_2
_geom_bond_site_symmetry_1
_geom_bond_site_symmetry_2
Zn1 O1 1_555 1_555
Zn2 O1 1_555 1_555
O1 C11 1_555 1_555
O2 Zn1 1_555 1_555
O3 Zn2 1_555 1_555
C1 O3 1_555 1_555
O4 C7 1_555 1_555
C2 H1 1_555 1_555
C3 H2 1_555 1_555
C4 C2 1_555 1_555
H3 C4 1_555 1_555
O5 Zn1 1_555 1_555
C5 H4 1_555 1_555
C6 C8 1_555 1_555
C7 O2 1_555 1_555
C8 C3 1_555 1_555
C9 C2 1_555 1_555
H5 C9 1_555 1_555
C10 H6 1_555 1_555
C11 O6 1_555 1_555
O6 Zn2E 1_555 1_555
C12 C5 1_555 1_555
C13 H7 1_555 1_555
C14 C15 1_555 1_555
C15 C1 1_555 1_555
H8 C14 1_555 1_555
Zn1F O1D 1_555 1_555
Zn1G O5E 1_555 1_555
Zn2D O1D 1_555 1_555
Zn2E O4 1_555 1_555
Zn2A O6D 1_555 1_555
Zn2B O1B 1_555 1_555
Zn2G O4B 1_555 1_555
Zn2E_2 O3E 1_555 1_555
O1D C11D 1_555 1_555
O1B Zn1 1_555 1_555
O2B Zn1 1_555 1_555
O2D Zn1F 1_555 1_555
O3E C1E 1_555 1_555
O3D Zn2D 1_555 1_555
C1E O5E 1_555 1_555
O4B C7B 1_555 1_555
O4E Zn2 1_555 1_555
O4A Zn2D 1_555 1_555
C2B H1B 1_555 1_555
C3B H2B 1_555 1_555
C4B C2B 1_555 1_555
H3B C4B 1_555 1_555
O5B Zn1 1_555 1_555
C5D C10 1_555 1_555
H4D C5D 1_555 1_555
C6B C6 1_555 1_555
C7B O2B 1_555 1_555
C8B C3B 1_555 1_555
C9B C2B 1_555 1_555
H5B C9B 1_555 1_555
C10D C5 1_555 1_555
H6D C10D 1_555 1_555
C11D O6D 1_555 1_555
O6E Zn2 1_555 1_555
O6A Zn2D 1_555 1_555
C12D C5D 1_555 1_555
C13E C14 1_555 1_555
H7E C13E 1_555 1_555
C14E C13 1_555 1_555
C15E C1E 1_555 1_555
H8E C14E 1_555 1_555
Zn2 O2 1_555 1_555
C1 O5 1_555 1_555
C3 C4 1_555 1_555
C6 C9 1_555 1_555
C7 C8 1_555 1_555
C10 C12 1_555 1_555
C11 C12 1_555 1_555
C13 C15 1_555 1_555
Zn2D O2D 1_555 1_555
Zn2B O2B 1_555 1_555
C3B C4B 1_555 1_555
C6B C8B 1_555 1_555
C6B C9B 1_555 1_555
C7B C8B 1_555 1_555
C10D C12D 1_555 1_555
C11D C12D 1_555 1_555
C13E C15E 1_555 1_555
C14E C15E 1_555 1_555

#END
