
#######################################################################
#
#                 Cambridge Crystallographic Data Centre
#                                CCDC 
#
#######################################################################
#
# If this CIF has been generated from an entry in the Cambridge 
# Structural Database, then it will include bibliographic, chemical, 
# crystal, experimental, refinement or atomic coordinate data resulting 
# from the CCDC's data processing and validation procedures.
#
#######################################################################

data_VIWZOR
_symmetry_cell_setting           monoclinic
_symmetry_space_group_name_H-M   'P 21/n'
_symmetry_Int_Tables_number      14
_space_group_name_Hall           '-P 2yn'
loop_
_symmetry_equiv_pos_site_id
_symmetry_equiv_pos_as_xyz
1 x,y,z
2 1/2-x,1/2+y,1/2-z
3 -x,-y,-z
4 1/2+x,1/2-y,1/2+z
_cell_length_a                   10.2511(7)
_cell_length_b                   13.8478(8)
_cell_length_c                   16.0022(10)
_cell_angle_alpha                90
_cell_angle_beta                 95.643(2)
_cell_angle_gamma                90
_cell_volume                     2260.59
loop_
_atom_site_label
_atom_site_type_symbol
_atom_site_fract_x
_atom_site_fract_y
_atom_site_fract_z
Zn1 Zn 0.876158(17) 0.032138(11) 0.045270(9)
Zn2 Zn 1.019210(19) 0.197620(12) -0.068820(11)
C1 C 0.61683(7) 0.17629(4) -0.14614(4)
C2 C 0.61498(8) 0.24751(5) -0.20746(4)
H1 H 0.6950 0.2732 -0.2231
C3 C 0.49608(9) 0.28110(7) -0.24586(6)
C4 C 0.37904(8) 0.24346(8) -0.22295(6)
H2 H 0.2978 0.2664 -0.2492
C5 C 0.38089(7) 0.17224(7) -0.16163(6)
C6 C 0.49979(7) 0.13865(5) -0.12323(5)
H3 H 0.5011 0.0900 -0.0813
C7 C 0.74494(16) 0.14424(10) -0.10073(9)
C8 C 0.49863(16) 0.35619(10) -0.31492(9)
C9 C 0.25572(16) 0.13401(10) -0.13311(8)
O1 O 0.84786(11) 0.17211(8) -0.13052(6)
O2 O 0.73941(11) 0.09259(7) -0.03603(6)
O3 O 0.60716(12) 0.38452(8) -0.33280(6)
O4 O 0.38807(11) 0.38505(7) -0.35000(6)
O5 O 0.26184(11) 0.05367(7) -0.09610(6)
O6 O 0.15456(11) 0.18539(8) -0.14753(7)
O7 O 1.04976(10) 0.08707(6) 0.00551(6)
I1 I 1.01793(2) 0.353760(9) 0.010780(9)
Zn1C Zn 0.376158(17) 0.467862(11) -0.454730(9)
Zn1B Zn 0.123842(17) -0.032138(11) -0.045270(9)
Zn1B_2 Zn 1.123842(17) -0.032138(11) -0.045270(9)
Zn2_2 Zn 0.019210(19) 0.197620(12) -0.068820(11)
O4C O 0.88807(11) 0.11495(7) 0.15000(6)
O5B O 0.73816(11) -0.05367(7) 0.09610(6)
O6_2 O 1.15456(11) 0.18539(8) -0.14753(7)
O7B O 0.95024(10) -0.08707(6) -0.00551(6)
C10 C 0.4027(4) 0.41427(18) 0.1566(2)
H4 H 0.4655 0.4587 0.1865
H5 H 0.3257 0.4076 0.1879
H6 H 0.3757 0.4398 0.1005
C11 C 0.4677(3) 0.31458(17) 0.14883(17)
H7 H 0.5503 0.3236 0.1225
H8 H 0.4911 0.2888 0.2060
C12 C 0.3891(3) 0.24322(16) 0.10086(13)
H9 H 0.3659 0.2692 0.0437
H10 H 0.3064 0.2346 0.1271
C13 C 0.4504(2) 0.14609(15) 0.09284(11)
H11 H 0.3886 0.1038 0.0583
H12 H 0.5305 0.1530 0.0634
C14 C 0.7112(2) 0.00824(17) 0.33891(15)
H13 H 0.7925 0.0253 0.3150
H14 H 0.7070 -0.0619 0.3461
H15 H 0.7092 0.0399 0.3936
N1 N 0.48522(15) 0.10003(10) 0.17548(8)
C15 C 0.60559(19) 0.08206(12) 0.20989(11)
H16 H 0.6841 0.0972 0.1857
N2 N 0.59867(15) 0.04037(11) 0.28215(9)
C16 C 0.46971(19) 0.02883(14) 0.29592(11)
H17 H 0.4376 -0.0003 0.3436
C17 C 0.39649(19) 0.06683(12) 0.22852(10)
H18 H 0.3036 0.0699 0.2197
loop_
_geom_bond_atom_site_label_1
_geom_bond_atom_site_label_2
_geom_bond_site_symmetry_1
_geom_bond_site_symmetry_2
Zn1 O2 1_555 1_555
Zn2 O1 1_555 1_555
C1 C2 1_555 1_555
C2 H1 1_555 1_555
C3 C2 1_555 1_555
C4 C3 1_555 1_555
H2 C4 1_555 1_555
C5 C4 1_555 1_555
C6 C1 1_555 1_555
H3 C6 1_555 1_555
C7 C1 1_555 1_555
C8 C3 1_555 1_555
C9 C5 1_555 1_555
O1 C7 1_555 1_555
O2 C7 1_555 1_555
O3 C8 1_555 1_555
O4 C8 1_555 1_555
O5 C9 1_555 1_555
O6 C9 1_555 1_555
O7 Zn1 1_555 1_555
I1 Zn2 1_555 1_555
C10 H4 1_555 1_555
H5 C10 1_555 1_555
H6 C10 1_555 1_555
C11 C10 1_555 1_555
H7 C11 1_555 1_555
H8 C11 1_555 1_555
C12 C11 1_555 1_555
H9 C12 1_555 1_555
H10 C12 1_555 1_555
C13 C12 1_555 1_555
H11 C13 1_555 1_555
H12 C13 1_555 1_555
C14 H13 1_555 1_555
H14 C14 1_555 1_555
H15 C14 1_555 1_555
N1 C13 1_555 1_555
C15 N1 1_555 1_555
H16 C15 1_555 1_555
N2 C14 1_555 1_555
C16 N2 1_555 1_555
H17 C16 1_555 1_555
C17 N1 1_555 1_555
H18 C17 1_555 1_555
Zn1C O4 1_555 1_555
Zn1B O5 1_555 1_555
Zn1B_2 O7 1_555 1_555
Zn2_2 O6 1_555 1_555
O4C Zn1 1_555 1_555
O5B Zn1 1_555 1_555
O6_2 Zn2 1_555 1_555
O7B Zn1 1_555 1_555
Zn2 O7 1_555 1_555
C5 C6 1_555 1_555
C15 N2 1_555 1_555
C16 C17 1_555 1_555
Zn1B_2 O7B 1_555 1_555

#END
