
#######################################################################
#
#                 Cambridge Crystallographic Data Centre
#                                CCDC 
#
#######################################################################
#
# If this CIF has been generated from an entry in the Cambridge 
# Structural Database, then it will include bibliographic, chemical, 
# crystal, experimental, refinement or atomic coordinate data resulting 
# from the CCDC's data processing and validation procedures.
#
#######################################################################

data_VIXBUA
_symmetry_cell_setting           monoclinic
_symmetry_space_group_name_H-M   'P 21'
_symmetry_Int_Tables_number      4
_space_group_name_Hall           'P 2yb'
loop_
_symmetry_equiv_pos_site_id
_symmetry_equiv_pos_as_xyz
1 x,y,z
2 -x,1/2+y,-z
_cell_length_a                   13.570(3)
_cell_length_b                   50.261(10)
_cell_length_c                   14.215(3)
_cell_angle_alpha                90
_cell_angle_beta                 104.09(3)
_cell_angle_gamma                90
_cell_volume                     9403.54
loop_
_atom_site_label
_atom_site_type_symbol
_atom_site_fract_x
_atom_site_fract_y
_atom_site_fract_z
Ag1 Ag 0.55800(4) 0.919856(10) 0.31660(3)
Ag2 Ag 0.56471(3) 0.927891(10) 0.80934(3)
N1 N 0.3214(3) 0.91922(10) 0.4986(3)
N2 N 0.5036(3) 0.91243(9) 0.6280(3)
N3 N 0.4721(4) 0.89244(9) 0.4452(3)
N4 N 0.6461(4) 0.94777(9) -0.0083(3)
N5 N 0.6303(3) 0.93952(9) 0.1759(3)
N6 N 0.8139(3) 0.93690(10) 0.1369(3)
N10 N 0.4284(4) 0.94842(10) 0.2939(4)
N14 N 0.3394(4) 0.85759(10) 0.5428(4)
N15 N 0.5420(4) 0.96884(10) 0.7270(3)
N16 N 0.4141(4) 0.90032(10) 0.8074(3)
N17 N 0.7411(4) 1.01107(11) -0.0033(4)
N18 N 0.6852(4) 0.89556(10) -0.1282(3)
N19 N 0.6872(4) 0.96093(10) 0.3888(3)
N20 N 0.6534(4) 0.88506(11) 0.2965(4)
P1 P 0.35529(12) 0.90093(3) 0.42196(10)
P2 P 0.39918(11) 0.92830(3) 0.59561(10)
P3 P 0.54372(12) 0.89467(3) 0.55290(11)
P4 P 0.76676(11) 0.94507(3) 0.02663(10)
P5 P 0.75060(11) 0.93828(3) 0.21611(11)
P6 P 0.57602(11) 0.94461(3) 0.06520(10)
O1 O 0.3230(3) 0.91461(8) 0.3180(3)
O2 O 0.2810(3) 0.87610(8) 0.3893(3)
O3 O 0.4162(3) 0.95919(8) 0.5830(3)
O4 O 0.3464(3) 0.92943(8) 0.6828(3)
O5 O 0.6493(3) 0.90548(8) 0.5383(3)
O6 O 0.5740(3) 0.86681(8) 0.6055(3)
O7 O 0.8219(3) 0.97088(8) -0.0007(3)
O8 O 0.8055(3) 0.92562(8) -0.0445(3)
O9 O 0.7969(3) 0.96244(9) 0.2853(3)
O10 O 0.7823(3) 0.91484(8) 0.2928(3)
O11 O 0.5046(3) 0.96988(8) 0.0643(3)
O12 O 0.5000(3) 0.92124(8) 0.0198(3)
C1 C 0.3381(4) 0.94142(12) 0.3039(4)
C2 C 0.2579(4) 0.95906(13) 0.2973(4)
C3 C 0.2727(5) 0.98549(13) 0.2771(5)
C4 C 0.3670(5) 0.99321(12) 0.2638(5)
C5 C 0.4416(5) 0.97439(12) 0.2730(5)
C6 C 0.2827(5) 0.85470(12) 0.4530(4)
C7 C 0.2236(5) 0.83281(13) 0.4149(5)
C8 C 0.2270(5) 0.81177(13) 0.4795(5)
C9 C 0.2856(5) 0.81358(13) 0.5741(5)
C10 C 0.3413(5) 0.83670(13) 0.6023(5)
C11 C 0.4796(4) 0.97720(11) 0.6430(4)
C12 C 0.4721(5) 1.00281(12) 0.6072(5)
C13 C 0.5349(5) 1.02210(13) 0.6624(5)
C14 C 0.6026(5) 1.01439(13) 0.7507(4)
C15 C 0.6023(5) 0.98858(12) 0.7790(4)
C16 C 0.3337(5) 0.90643(12) 0.7346(4)
C17 C 0.2417(5) 0.89279(14) 0.7100(5)
C18 C 0.2347(5) 0.87090(14) 0.7670(5)
C19 C 0.3161(6) 0.86390(13) 0.8435(5)
C20 C 0.4043(5) 0.87906(12) 0.8617(4)
C21 C 0.7373(4) 0.90297(12) 0.6173(4)
C22 C 0.7741(4) 0.92617(13) 0.6702(4)
C23 C 0.8592(4) 0.92436(13) 0.7450(4)
C24 C 0.9089(4) 0.89944(13) 0.7737(4)
C25 C 0.9935(5) 0.89730(14) 0.8554(4)
C26 C 1.0362(5) 0.87295(15) 0.8866(5)
C27 C 0.9970(5) 0.84997(14) 0.8343(5)
C28 C 0.9162(5) 0.85136(13) 0.7535(4)
C29 C 0.8701(4) 0.87620(13) 0.7190(4)
C30 C 0.7832(5) 0.87833(13) 0.6366(4)
C31 C 0.6351(5) 0.84915(12) 0.5665(4)
C32 C 0.5862(5) 0.82631(12) 0.5201(4)
C33 C 0.6427(5) 0.80833(13) 0.4827(5)
C34 C 0.7458(5) 0.81314(13) 0.4858(5)
C35 C 0.8040(6) 0.79584(14) 0.4408(5)
C36 C 0.9000(6) 0.80244(15) 0.4358(5)
C37 C 0.9437(5) 0.82633(15) 0.4766(5)
C38 C 0.8943(5) 0.84345(13) 0.5251(4)
C39 C 0.7934(5) 0.83719(13) 0.5313(4)
C40 C 0.7358(4) 0.85473(12) 0.5778(4)
C41 C 0.8130(5) 0.99534(12) 0.0473(4)
C42 C 0.8775(5) 1.00065(13) 0.1366(5)
C43 C 0.8675(5) 1.02500(13) 0.1778(5)
C44 C 0.7924(5) 1.04230(13) 0.1290(5)
C45 C 0.7319(5) 1.03478(13) 0.0376(5)
C46 C 0.7707(4) 0.89946(11) -0.0575(4)
C47 C 0.8273(5) 0.87952(13) -0.0008(5)
C48 C 0.7921(5) 0.85365(13) -0.0184(5)
C49 C 0.7035(5) 0.84919(13) -0.0917(5)
C50 C 0.6538(5) 0.87031(12) -0.1454(4)
C51 C 0.7705(5) 0.97054(12) 0.3697(4)
C52 C 0.8357(6) 0.98885(14) 0.4260(5)
C53 C 0.8117(6) 0.99846(14) 0.5086(5)
C54 C 0.7235(6) 0.98896(14) 0.5302(5)
C55 C 0.6649(6) 0.97064(13) 0.4694(5)
C56 C 0.7433(5) 0.88912(13) 0.2784(5)
C57 C 0.8038(6) 0.86942(15) 0.2529(6)
C58 C 0.7651(6) 0.84400(15) 0.2442(6)
C59 C 0.6696(6) 0.83931(15) 0.2619(6)
C60 C 0.6174(5) 0.86046(13) 0.2876(5)
C61 C 0.4283(4) 0.97508(12) -0.0226(4)
C62 C 0.4452(5) 0.99760(12) -0.0768(4)
C63 C 0.3732(5) 1.00359(12) -0.1616(5)
C64 C 0.2866(5) 0.98690(12) -0.1960(4)
C65 C 0.2137(5) 0.99217(14) -0.2860(5)
C66 C 0.1327(5) 0.97616(15) -0.3191(5)
C67 C 0.1182(5) 0.95354(14) -0.2662(4)
C68 C 0.1863(4) 0.94769(13) -0.1780(4)
C69 C 0.2713(4) 0.96460(12) -0.1398(4)
C70 C 0.3440(4) 0.95922(12) -0.0479(4)
C71 C 0.4066(4) 0.91776(12) 0.0451(4)
C72 C 0.3956(4) 0.89453(12) 0.0959(4)
C73 C 0.3052(4) 0.88983(13) 0.1199(4)
C74 C 0.2264(4) 0.90903(13) 0.0990(4)
C75 C 0.1363(5) 0.90562(14) 0.1313(4)
C76 C 0.0623(4) 0.92460(15) 0.1144(4)
C77 C 0.0766(5) 0.94861(15) 0.0683(4)
C78 C 0.1624(4) 0.95237(13) 0.0354(4)
C79 C 0.2397(4) 0.93287(12) 0.0490(4)
C80 C 0.3319(4) 0.93653(12) 0.0160(4)
H1 H 0.1957 0.9532 0.3061
H2 H 0.2208 0.9979 0.2725
H3 H 0.3790 1.0108 0.2491
H4 H 0.5046 0.9796 0.2644
H5 H 0.1848 0.8323 0.3512
H6 H 0.1898 0.7964 0.4591
H7 H 0.2875 0.7997 0.6177
H8 H 0.3818 0.8378 0.6653
H9 H 0.4270 1.0071 0.5486
H10 H 0.5323 1.0397 0.6415
H11 H 0.6461 1.0267 0.7883
H12 H 0.6460 0.9839 0.8377
H13 H 0.1886 0.8980 0.6587
H14 H 0.1755 0.8608 0.7542
H15 H 0.3115 0.8492 0.8819
H16 H 0.4582 0.8743 0.9131
H17 H 0.7411 0.9424 0.6545
H18 H 0.8856 0.9397 0.7781
H19 H 1.0206 0.9126 0.8884
H20 H 1.0899 0.8718 0.9414
H21 H 1.0259 0.8335 0.8544
H22 H 0.8913 0.8358 0.7209
H23 H 0.5173 0.8235 0.5150
H24 H 0.6123 0.7927 0.4548
H25 H 0.7761 0.7798 0.4146
H26 H 0.9365 0.7911 0.4051
H27 H 1.0084 0.8308 0.4708
H28 H 0.9261 0.8589 0.5534
H29 H 0.9256 0.9883 0.1675
H30 H 0.9102 1.0298 0.2371
H31 H 0.7822 1.0586 0.1562
H32 H 0.6836 1.0467 0.0042
H33 H 0.8860 0.8834 0.0467
H34 H 0.8264 0.8396 0.0175
H35 H 0.6783 0.8320 -0.1043
H36 H 0.5965 0.8669 -0.1951
H37 H 0.8940 0.9945 0.4085
H38 H 0.8530 1.0108 0.5484
H39 H 0.7043 0.9949 0.5851
H40 H 0.6060 0.9646 0.4849
H41 H 0.8673 0.8732 0.2422
H42 H 0.8020 0.8301 0.2266
H43 H 0.6421 0.8223 0.2565
H44 H 0.5539 0.8573 0.2992
H45 H 0.5030 1.0080 -0.0561
H46 H 0.3814 1.0187 -0.1966
H47 H 0.2226 1.0070 -0.3223
H48 H 0.0863 0.9802 -0.3772
H49 H 0.0630 0.9424 -0.2899
H50 H 0.1763 0.9326 -0.1437
H51 H 0.4488 0.8824 0.1131
H52 H 0.2956 0.8739 0.1500
H53 H 0.1276 0.8902 0.1645
H54 H 0.0022 0.9217 0.1334
H55 H 0.0276 0.9619 0.0602
H56 H 0.1699 0.9681 0.0033
Ag2_2 Ag 0.56471(3) 0.927891(10) -0.19066(3)
N4_2 N 0.6461(4) 0.94777(9) 0.9917(3)
N18_2 N 0.6852(4) 0.89556(10) 0.8718(3)
Ag3 Ag 0.04202(4) 0.665308(10) 0.64418(3)
Ag4 Ag -0.46101(11) 0.67434(6) 0.64086(9)
N7 N -0.2292(4) 0.72675(11) 0.5155(3)
N8 N -0.1263(4) 0.68830(10) 0.6329(3)
N9 N -0.3030(4) 0.70650(12) 0.6617(4)
N11 N 0.3309(5) 0.61060(11) 0.7366(4)
N12 N 0.1850(4) 0.63762(10) 0.6067(4)
N13 N 0.3844(4) 0.64798(10) 0.6214(4)
N21 N 0.5691(7) 0.62385(19) 0.5886(9)
N23 N -0.4889(4) 0.69075(13) 0.4807(4)
N24 N -0.1419(4) 0.75007(11) 0.7254(4)
N25 N -0.0699(4) 0.64870(11) 0.4955(4)
N26 N 0.0903(4) 0.71200(11) 0.6753(4)
N27 N 0.4994(4) 0.68431(14) 0.7986(4)
N28 N 0.2734(5) 0.59110(11) 0.5103(4)
N29 N 0.1011(4) 0.65030(10) 0.8045(4)
P7 P -0.30562(12) 0.72948(4) 0.58236(12)
P8 P -0.13952(12) 0.70616(3) 0.53888(11)
P9 P -0.20626(13) 0.68827(3) 0.69667(11)
P10 P 0.41859(16) 0.62545(4) 0.70232(13)
P11 P 0.21668(16) 0.61231(3) 0.67616(12)
P12 P 0.26849(13) 0.65429(3) 0.57203(11)
O13 O -0.1542(5) 0.68853(10) 0.4432(3)
O14 O -0.0365(4) 0.71972(12) 0.5354(3)
O15 O -0.2521(4) 0.65941(10) 0.7043(3)
O16 O -0.1430(3) 0.69394(8) 0.8055(3)
O17 O 0.4977(4) 0.63877(11) 0.7939(3)
O18 O 0.1734(4) 0.58566(8) 0.6178(3)
O19 O 0.1437(4) 0.61009(9) 0.7483(3)
O20 O 0.2578(3) 0.65276(8) 0.4580(3)
O21 O 0.2388(3) 0.68431(8) 0.5889(3)
O22 O 0.4746(8) 0.60081(19) 0.6764(6)
O23 O -0.4189(3) 0.73217(11) 0.5160(3)
O24 O -0.3036(3) 0.75816(10) 0.6306(3)
C81 C -0.4581(5) 0.71283(15) 0.4471(5)
C82 C -0.4660(5) 0.71838(15) 0.3503(5)
C83 C -0.5130(5) 0.69911(14) 0.2827(5)
C84 C -0.5461(6) 0.67579(14) 0.3150(6)
C85 C -0.5332(5) 0.67176(14) 0.4146(5)
C86 C -0.2224(5) 0.76519(13) 0.7102(4)
C87 C -0.2376(5) 0.78624(15) 0.7673(5)
C88 C -0.1573(5) 0.79187(14) 0.8478(5)
C89 C -0.0698(5) 0.77657(13) 0.8655(5)
C90 C -0.0632(5) 0.75586(13) 0.8047(4)
C91 C -0.1443(6) 0.66194(14) 0.4353(5)
C92 C -0.2150(6) 0.64954(17) 0.3576(5)
C93 C -0.2072(7) 0.62291(17) 0.3421(6)
C94 C -0.1307(7) 0.60892(16) 0.4056(6)
C95 C -0.0633(6) 0.62228(14) 0.4807(5)
C96 C 0.0390(5) 0.73005(14) 0.6145(5)
C97 C 0.0575(6) 0.75683(16) 0.6188(6)
C98 C 0.1380(7) 0.76584(16) 0.6941(7)
C99 C 0.1947(5) 0.74784(14) 0.7603(5)
C100 C 0.1674(5) 0.72107(13) 0.7475(5)
C101 C -0.1906(6) 0.63955(15) 0.7614(5)
C102 C -0.1593(7) 0.61822(17) 0.7119(6)
C103 C -0.1026(7) 0.59873(18) 0.7643(7)
C104 C -0.0705(7) 0.59985(16) 0.8667(6)
C105 C -0.0056(7) 0.57973(17) 0.9256(7)
C106 C 0.0294(7) 0.58179(17) 1.0232(7)
C107 C 0.0036(6) 0.60408(16) 1.0712(7)
C108 C -0.0607(6) 0.62316(14) 1.0194(6)
C109 C -0.1007(6) 0.62193(14) 0.9171(6)
C110 C -0.1677(5) 0.64147(13) 0.8615(5)
C111 C -0.1981(5) 0.69024(12) 0.8785(4)
C112 C -0.2369(5) 0.71261(12) 0.9133(4)
C113 C -0.2905(4) 0.70925(12) 0.9823(4)
C114 C -0.3070(4) 0.68323(12) 1.0150(4)
C115 C -0.3638(4) 0.67980(12) 1.0863(4)
C116 C -0.3857(4) 0.65501(13) 1.1141(4)
C117 C -0.3498(5) 0.63232(12) 1.0734(4)
C118 C -0.2938(5) 0.63499(12) 1.0063(4)
C119 C -0.2684(4) 0.66079(12) 0.9773(4)
C120 C -0.2091(5) 0.66442(13) 0.9077(4)
C121 C 0.4723(5) 0.66162(13) 0.8343(4)
C122 C 0.4213(5) 0.66074(12) 0.9059(4)
C123 C 0.3989(5) 0.68442(15) 0.9449(5)
C124 C 0.4280(7) 0.70778(17) 0.9123(7)
C125 C 0.4799(7) 0.70690(17) 0.8398(7)
C126 C 0.1894(6) 0.58175(12) 0.5251(5)
C127 C 0.1141(6) 0.56776(12) 0.4593(5)
C128 C 0.1306(5) 0.56388(12) 0.3672(5)
C129 C 0.2192(5) 0.57356(13) 0.3476(5)
C130 C 0.2892(5) 0.58707(14) 0.4207(5)
C131 C 0.1506(6) 0.62756(13) 0.8262(5)
C132 C 0.2009(6) 0.61933(13) 0.9196(5)
C133 C 0.1969(5) 0.63629(13) 0.9949(5)
C134 C 0.1446(5) 0.66000(14) 0.9751(5)
C135 C 0.0975(5) 0.66653(15) 0.8788(5)
C136 C 0.1685(5) 0.66293(12) 0.3942(4)
C137 C 0.0984(5) 0.64456(13) 0.3402(5)
C138 C 0.0097(5) 0.65400(13) 0.2794(5)
C139 C -0.0126(5) 0.68159(12) 0.2739(4)
C140 C -0.1083(5) 0.69111(13) 0.2176(4)
C141 C -0.1329(5) 0.71748(13) 0.2183(5)
C142 C -0.0621(5) 0.73566(13) 0.2728(4)
C143 C 0.0327(5) 0.72727(12) 0.3258(4)
C144 C 0.0593(5) 0.70002(12) 0.3276(4)
C145 C 0.1562(5) 0.69036(12) 0.3865(4)
C146 C 0.2731(5) 0.70569(12) 0.5404(4)
C147 C 0.3406(4) 0.72382(12) 0.5997(5)
C148 C 0.3745(4) 0.74545(12) 0.5574(4)
C149 C 0.3454(5) 0.74851(12) 0.4543(4)
C150 C 0.3848(5) 0.76979(13) 0.4086(5)
C151 C 0.3597(5) 0.77233(14) 0.3090(5)
C152 C 0.2943(5) 0.75327(15) 0.2512(5)
C153 C 0.2552(5) 0.73284(14) 0.2913(4)
C154 C 0.2770(4) 0.72986(12) 0.3954(4)
C155 C 0.2356(4) 0.70841(12) 0.4421(4)
C156 C 0.5373(11) 0.6007(2) 0.6119(10)
C157 C 0.5599(9) 0.5757(2) 0.5824(9)
C158 C 0.6206(11) 0.5747(3) 0.5182(10)
C159 C 0.6539(9) 0.5988(2) 0.4886(9)
C160 C 0.6266(9) 0.6223(2) 0.5231(9)
H57 H -0.4412 0.7342 0.3308
H58 H -0.5216 0.7021 0.2167
H59 H -0.5769 0.6628 0.2711
H60 H -0.5550 0.6559 0.4364
H61 H -0.2974 0.7961 0.7533
H62 H -0.1628 0.8059 0.8890
H63 H -0.0160 0.7803 0.9183
H64 H -0.0047 0.7455 0.8171
H65 H -0.2663 0.6595 0.3175
H66 H -0.2516 0.6144 0.2908
H67 H -0.1243 0.5907 0.3982
H68 H -0.0120 0.6126 0.5220
H69 H 0.0186 0.7685 0.5741
H70 H 0.1536 0.7839 0.6997
H71 H 0.2481 0.7534 0.8108
H72 H 0.2043 0.7088 0.7909
H73 H -0.1773 0.6175 0.6445
H74 H -0.0842 0.5842 0.7321
H75 H 0.0125 0.5648 0.8947
H76 H 0.0702 0.5685 1.0579
H77 H 0.0296 0.6060 1.1377
H78 H -0.0787 0.6375 1.0530
H79 H -0.2267 0.7295 0.8904
H80 H -0.3162 0.7240 1.0078
H81 H -0.3862 0.6947 1.1141
H82 H -0.4241 0.6530 1.1596
H83 H -0.3646 0.6154 1.0927
H84 H -0.2721 0.6199 0.9791
H85 H 0.4021 0.6446 0.9278
H86 H 0.3638 0.6844 0.9935
H87 H 0.4136 0.7239 0.9380
H88 H 0.5021 0.7228 0.8188
H89 H 0.0562 0.5614 0.4759
H90 H 0.0829 0.5549 0.3197
H91 H 0.2320 0.5711 0.2868
H92 H 0.3486 0.5935 0.4073
H93 H 0.2354 0.6032 0.9304
H94 H 0.2291 0.6318 1.0584
H95 H 0.1407 0.6715 1.0252
H96 H 0.0626 0.6826 0.8659
H97 H 0.1116 0.6264 0.3454
H98 H -0.0358 0.6421 0.2416
H99 H -0.1541 0.6792 0.1802
H100 H -0.1960 0.7234 0.1830
H101 H -0.0793 0.7536 0.2732
H102 H 0.0788 0.7396 0.3602
H103 H 0.3617 0.7211 0.6663
H104 H 0.4161 0.7580 0.5957
H105 H 0.4280 0.7822 0.4464
H106 H 0.3854 0.7864 0.2798
H107 H 0.2782 0.7550 0.1840
H108 H 0.2138 0.7205 0.2516
H109 H 0.5353 0.5603 0.6051
H110 H 0.6388 0.5585 0.4953
H111 H 0.6950 0.5989 0.4450
H112 H 0.6485 0.6380 0.5005
Ag4_2 Ag 0.53899(11) 0.67434(6) 0.64086(9)
N13_2 N -0.6156(4) 0.64798(10) 0.6214(4)
N21_2 N -0.4309(7) 0.62385(19) 0.5886(9)
N27_2 N -0.5006(4) 0.68431(14) 0.7986(4)
C166 C 0.8266(6) 0.56060(16) 0.1802(6)
C167 C 0.8683(6) 0.53972(18) 0.1250(6)
C168 C 1.0064(7) 0.51061(16) 0.1336(5)
C169 C 1.1100(7) 0.50379(17) 0.1950(6)
O26 O 0.9672(4) 0.53254(9) 0.1761(3)
H117 H 0.8255 0.5538 0.2431
H118 H 0.7588 0.5651 0.1454
H119 H 0.8688 0.5762 0.1874
H120 H 0.8247 0.5242 0.1159
H121 H 0.8699 0.5465 0.0615
H122 H 1.0110 0.5152 0.0685
H123 H 0.9615 0.4954 0.1295
H124 H 1.1523 0.5193 0.2035
H125 H 1.1398 0.4901 0.1636
H126 H 1.1040 0.4975 0.2572
C170 C 0.3760(5) 0.53616(14) 0.7046(6)
C171 C 0.4396(6) 0.54288(15) 0.8055(6)
C172 C 0.6041(6) 0.55900(17) 0.8891(6)
C173 C 0.7043(6) 0.56634(18) 0.8714(7)
O27 O 0.5391(3) 0.54901(9) 0.7990(3)
H127 H 0.3716 0.5515 0.6634
H128 H 0.3090 0.5310 0.7085
H129 H 0.4071 0.5218 0.6781
H130 H 0.4104 0.5580 0.8315
H131 H 0.4409 0.5279 0.8486
H132 H 0.6130 0.5454 0.9389
H133 H 0.5731 0.5744 0.9110
H134 H 0.7326 0.5513 0.8459
H135 H 0.7495 0.5718 0.9314
H136 H 0.6955 0.5807 0.8257
C174 C 0.6128(8) 0.76280(19) 0.1311(6)
C175 C 0.6834(9) 0.7824(2) 0.1092(7)
N30 N 0.5627(8) 0.74632(18) 0.1493(6)
H137 H 0.7305 0.7877 0.1682
H138 H 0.6463 0.7976 0.0790
H139 H 0.7200 0.7747 0.0660
C176 C 0.3565(9) 0.81453(18) 0.0919(7)
C177 C 0.2730(8) 0.8018(2) 0.0214(7)
N31 N 0.4193(8) 0.82512(18) 0.1469(7)
H140 H 0.2628 0.7841 0.0430
H141 H 0.2896 0.8008 -0.0405
H142 H 0.2120 0.8120 0.0153
C178 C 0.1166(6) 0.72838(15) 0.0235(5)
C179 C 0.0271(6) 0.72447(16) 0.0594(6)
N32 N 0.1875(6) 0.73079(15) -0.0053(5)
H143 H -0.0100 0.7094 0.0279
H144 H -0.0151 0.7400 0.0462
H145 H 0.0467 0.7214 0.1281
C180 C 0.0176(18) 0.9203(5) 0.4842(18)
C181 C 0.0519(14) 0.9356(3) 0.4111(12)
N33 N 0.0158(16) 0.9039(4) 0.5370(13)
H146 H 0.0062 0.9502 0.3899
H147 H 0.0533 0.9244 0.3569
H148 H 0.1189 0.9424 0.4386
P13 P 0.88377(13) 0.52860(4) 0.56775(12)
F1 F 0.8321(4) 0.55053(11) 0.4902(4)
F2 F 0.9770(4) 0.54819(9) 0.6138(3)
F3 F 0.9360(3) 0.50577(9) 0.6451(3)
F4 F 0.7927(3) 0.50849(11) 0.5237(3)
F5 F 0.9460(3) 0.51798(10) 0.4933(3)
F6 F 0.8231(4) 0.53888(9) 0.6432(3)
P14 P 0.42573(14) 0.59343(4) 0.17075(15)
F7 F 0.3141(3) 0.58212(9) 0.1231(4)
F8 F 0.4255(3) 0.58013(9) 0.2718(4)
F9 F 0.5367(4) 0.60492(12) 0.2178(3)
F10 F 0.4251(4) 0.60661(15) 0.0695(4)
F11 F 0.4739(5) 0.56690(14) 0.1392(5)
F12 F 0.3743(4) 0.61916(9) 0.2029(4)
P15 P 0.02888(14) 0.81171(4) 0.15130(13)
F13 F -0.0130(4) 0.83940(9) 0.1814(4)
F14 F 0.0122(3) 0.82226(9) 0.0415(3)
F15 F 0.0693(4) 0.78419(9) 0.1204(3)
F16 F 0.0437(3) 0.80095(10) 0.2597(3)
F17 F -0.0864(3) 0.80033(9) 0.1233(3)
F18 F 0.1419(3) 0.82353(10) 0.1784(3)
P16 P 0.47610(15) 0.79127(4) 0.84864(14)
F19 F 0.4383(4) 0.77220(10) 0.9223(3)
F20 F 0.5901(4) 0.78024(11) 0.8887(4)
F21 F 0.5150(4) 0.81055(10) 0.7763(3)
F22 F 0.3621(3) 0.80224(8) 0.8081(3)
F23 F 0.4520(5) 0.76840(10) 0.7676(4)
F24 F 0.4984(4) 0.81431(9) 0.9290(3)
Ag5? Ag 0.52269(10) 0.68973(6) 0.64931(8)
N22? N 0.5426(9) 0.6180(2) 0.5327(9)
O25? O 0.5179(11) 0.6086(3) 0.6838(7)
C161? C 0.5466(15) 0.6003(3) 0.6010(12)
C162? C 0.5835(12) 0.5745(2) 0.6038(10)
C163? C 0.6180(13) 0.5663(3) 0.5264(11)
C164? C 0.6132(10) 0.5843(3) 0.4501(10)
C165? C 0.5767(6) 0.60947(16) 0.4562(6)
C182? C -0.003(2) 0.9261(5) 0.488(2)
C183? C 0.0586(19) 0.9432(5) 0.4430(17)
N34? N -0.0299(13) 0.9128(3) 0.5383(12)
H113? H 0.5845 0.5633 0.6562
H114? H 0.6441 0.5493 0.5242
H115? H 0.6347 0.5791 0.3955
H116? H 0.5754 0.6212 0.4054
H149? H 0.1071 0.9326 0.4206
H150? H 0.0937 0.9560 0.4895
H151? H 0.0156 0.9523 0.3891
loop_
_geom_bond_atom_site_label_1
_geom_bond_atom_site_label_2
_geom_bond_site_symmetry_1
_geom_bond_site_symmetry_2
Ag1 N3 1_555 1_555
Ag2 N2 1_555 1_555
Ag3 N8 1_555 1_555
Ag4 N9 1_555 1_555
N1 P1 1_555 1_555
N2 P2 1_555 1_555
N3 P1 1_555 1_555
N4 P4 1_555 1_555
N5 Ag1 1_555 1_555
N6 P4 1_555 1_555
N7 P7 1_555 1_555
N8 P8 1_555 1_555
N9 P7 1_555 1_555
N10 Ag1 1_555 1_555
N11 P10 1_555 1_555
N12 Ag3 1_555 1_555
N13 P10 1_555 1_555
N14 C6 1_555 1_555
N15 Ag2 1_555 1_555
N16 Ag2 1_555 1_555
N17 C41 1_555 1_555
N18 C46 1_555 1_555
N19 Ag1 1_555 1_555
N20 Ag1 1_555 1_555
N21 C156 1_555 1_555
N23 Ag4 1_555 1_555
N24 C86 1_555 1_555
N25 Ag3 1_555 1_555
N26 Ag3 1_555 1_555
N27 C121 1_555 1_555
N28 C126 1_555 1_555
N29 Ag3 1_555 1_555
P1 O1 1_555 1_555
P2 N1 1_555 1_555
P3 N2 1_555 1_555
P4 O7 1_555 1_555
P5 N5 1_555 1_555
P6 N4 1_555 1_555
P7 O23 1_555 1_555
P8 N7 1_555 1_555
P9 N8 1_555 1_555
P10 O17 1_555 1_555
P11 N11 1_555 1_555
P12 N12 1_555 1_555
O1 C1 1_555 1_555
O2 P1 1_555 1_555
O3 P2 1_555 1_555
O4 P2 1_555 1_555
O5 P3 1_555 1_555
O6 P3 1_555 1_555
O7 C41 1_555 1_555
O8 P4 1_555 1_555
O9 P5 1_555 1_555
O10 P5 1_555 1_555
O11 P6 1_555 1_555
O12 P6 1_555 1_555
O13 P8 1_555 1_555
O14 P8 1_555 1_555
O15 P9 1_555 1_555
O16 P9 1_555 1_555
O17 C121 1_555 1_555
O18 P11 1_555 1_555
O19 P11 1_555 1_555
O20 P12 1_555 1_555
O21 P12 1_555 1_555
O22 P10 1_555 1_555
O23 C81 1_555 1_555
O24 P7 1_555 1_555
C1 N10 1_555 1_555
C2 C1 1_555 1_555
C3 C2 1_555 1_555
C4 C3 1_555 1_555
C5 N10 1_555 1_555
C6 O2 1_555 1_555
C7 C6 1_555 1_555
C8 C7 1_555 1_555
C9 C8 1_555 1_555
C10 N14 1_555 1_555
C11 N15 1_555 1_555
C12 C11 1_555 1_555
C13 C12 1_555 1_555
C14 C13 1_555 1_555
C15 N15 1_555 1_555
C16 N16 1_555 1_555
C17 C16 1_555 1_555
C18 C17 1_555 1_555
C19 C18 1_555 1_555
C20 N16 1_555 1_555
C21 O5 1_555 1_555
C22 C21 1_555 1_555
C23 C22 1_555 1_555
C24 C23 1_555 1_555
C25 C24 1_555 1_555
C26 C25 1_555 1_555
C27 C26 1_555 1_555
C28 C27 1_555 1_555
C29 C24 1_555 1_555
C30 C21 1_555 1_555
C31 O6 1_555 1_555
C32 C31 1_555 1_555
C33 C32 1_555 1_555
C34 C33 1_555 1_555
C35 C34 1_555 1_555
C36 C35 1_555 1_555
C37 C36 1_555 1_555
C38 C37 1_555 1_555
C39 C34 1_555 1_555
C40 C30 1_555 1_555
C41 C42 1_555 1_555
C42 C43 1_555 1_555
C43 C44 1_555 1_555
C44 C45 1_555 1_555
C45 N17 1_555 1_555
C46 O8 1_555 1_555
C47 C46 1_555 1_555
C48 C47 1_555 1_555
C49 C48 1_555 1_555
C50 N18 1_555 1_555
C51 N19 1_555 1_555
C52 C51 1_555 1_555
C53 C52 1_555 1_555
C54 C53 1_555 1_555
C55 N19 1_555 1_555
C56 N20 1_555 1_555
C57 C56 1_555 1_555
C58 C57 1_555 1_555
C59 C58 1_555 1_555
C60 N20 1_555 1_555
C61 O11 1_555 1_555
C62 C61 1_555 1_555
C63 C62 1_555 1_555
C64 C63 1_555 1_555
C65 C64 1_555 1_555
C66 C65 1_555 1_555
C67 C66 1_555 1_555
C68 C67 1_555 1_555
C69 C64 1_555 1_555
C70 C61 1_555 1_555
C71 O12 1_555 1_555
C72 C71 1_555 1_555
C73 C72 1_555 1_555
C74 C73 1_555 1_555
C75 C74 1_555 1_555
C76 C75 1_555 1_555
C77 C76 1_555 1_555
C78 C77 1_555 1_555
C79 C74 1_555 1_555
C80 C70 1_555 1_555
C81 N23 1_555 1_555
C82 C81 1_555 1_555
C83 C82 1_555 1_555
C84 C83 1_555 1_555
C85 N23 1_555 1_555
C86 O24 1_555 1_555
C87 C86 1_555 1_555
C88 C87 1_555 1_555
C89 C88 1_555 1_555
C90 N24 1_555 1_555
C91 N25 1_555 1_555
C92 C91 1_555 1_555
C93 C92 1_555 1_555
C94 C93 1_555 1_555
C95 N25 1_555 1_555
C96 N26 1_555 1_555
C97 C96 1_555 1_555
C98 C97 1_555 1_555
C99 C98 1_555 1_555
C100 N26 1_555 1_555
C101 O15 1_555 1_555
C102 C101 1_555 1_555
C103 C102 1_555 1_555
C104 C103 1_555 1_555
C105 C104 1_555 1_555
C106 C105 1_555 1_555
C107 C106 1_555 1_555
C108 C107 1_555 1_555
C109 C104 1_555 1_555
C110 C101 1_555 1_555
C111 O16 1_555 1_555
C112 C111 1_555 1_555
C113 C112 1_555 1_555
C114 C113 1_555 1_555
C115 C114 1_555 1_555
C116 C115 1_555 1_555
C117 C116 1_555 1_555
C118 C117 1_555 1_555
C119 C114 1_555 1_555
C120 C110 1_555 1_555
C121 C122 1_555 1_555
C122 C123 1_555 1_555
C123 C124 1_555 1_555
C124 C125 1_555 1_555
C125 N27 1_555 1_555
C126 O18 1_555 1_555
C127 C126 1_555 1_555
C128 C127 1_555 1_555
C129 C128 1_555 1_555
C130 N28 1_555 1_555
C131 N29 1_555 1_555
C132 C131 1_555 1_555
C133 C132 1_555 1_555
C134 C133 1_555 1_555
C135 N29 1_555 1_555
C136 O20 1_555 1_555
C137 C136 1_555 1_555
C138 C137 1_555 1_555
C139 C138 1_555 1_555
C140 C139 1_555 1_555
C141 C140 1_555 1_555
C142 C141 1_555 1_555
C143 C142 1_555 1_555
C144 C139 1_555 1_555
C145 C136 1_555 1_555
C146 O21 1_555 1_555
C147 C146 1_555 1_555
C148 C147 1_555 1_555
C149 C148 1_555 1_555
C150 C149 1_555 1_555
C151 C150 1_555 1_555
C152 C151 1_555 1_555
C153 C152 1_555 1_555
C154 C149 1_555 1_555
C155 C145 1_555 1_555
C156 O22 1_555 1_555
C157 C156 1_555 1_555
C158 C157 1_555 1_555
C159 C158 1_555 1_555
C160 N21 1_555 1_555
C166 C167 1_555 1_555
C167 O26 1_555 1_555
C168 C169 1_555 1_555
C169 H124 1_555 1_555
O26 C168 1_555 1_555
C170 C171 1_555 1_555
C171 O27 1_555 1_555
C172 C173 1_555 1_555
C173 H134 1_555 1_555
O27 C172 1_555 1_555
C174 C175 1_555 1_555
C175 H137 1_555 1_555
N30 C174 1_555 1_555
C176 C177 1_555 1_555
C177 H140 1_555 1_555
N31 C176 1_555 1_555
C178 C179 1_555 1_555
C179 H143 1_555 1_555
N32 C178 1_555 1_555
C180 C181 1_555 1_555
C181 H146 1_555 1_555
N33 C180 1_555 1_555
P13 F1 1_555 1_555
F2 P13 1_555 1_555
F3 P13 1_555 1_555
F4 P13 1_555 1_555
F5 P13 1_555 1_555
F6 P13 1_555 1_555
P14 F7 1_555 1_555
F8 P14 1_555 1_555
F9 P14 1_555 1_555
F10 P14 1_555 1_555
F11 P14 1_555 1_555
F12 P14 1_555 1_555
P15 F13 1_555 1_555
F14 P15 1_555 1_555
F15 P15 1_555 1_555
F16 P15 1_555 1_555
F17 P15 1_555 1_555
F18 P15 1_555 1_555
P16 F19 1_555 1_555
F20 P16 1_555 1_555
F21 P16 1_555 1_555
F22 P16 1_555 1_555
F23 P16 1_555 1_555
F24 P16 1_555 1_555
H1 C2 1_555 1_555
H2 C3 1_555 1_555
H3 C4 1_555 1_555
H4 C5 1_555 1_555
H5 C7 1_555 1_555
H6 C8 1_555 1_555
H7 C9 1_555 1_555
H8 C10 1_555 1_555
H9 C12 1_555 1_555
H10 C13 1_555 1_555
H11 C14 1_555 1_555
H12 C15 1_555 1_555
H13 C17 1_555 1_555
H14 C18 1_555 1_555
H15 C19 1_555 1_555
H16 C20 1_555 1_555
H17 C22 1_555 1_555
H18 C23 1_555 1_555
H19 C25 1_555 1_555
H20 C26 1_555 1_555
H21 C27 1_555 1_555
H22 C28 1_555 1_555
H23 C32 1_555 1_555
H24 C33 1_555 1_555
H25 C35 1_555 1_555
H26 C36 1_555 1_555
H27 C37 1_555 1_555
H28 C38 1_555 1_555
H29 C42 1_555 1_555
H30 C43 1_555 1_555
H31 C44 1_555 1_555
H32 C45 1_555 1_555
H33 C47 1_555 1_555
H34 C48 1_555 1_555
H35 C49 1_555 1_555
H36 C50 1_555 1_555
H37 C52 1_555 1_555
H38 C53 1_555 1_555
H39 C54 1_555 1_555
H40 C55 1_555 1_555
H41 C57 1_555 1_555
H42 C58 1_555 1_555
H43 C59 1_555 1_555
H44 C60 1_555 1_555
H45 C62 1_555 1_555
H46 C63 1_555 1_555
H47 C65 1_555 1_555
H48 C66 1_555 1_555
H49 C67 1_555 1_555
H50 C68 1_555 1_555
H51 C72 1_555 1_555
H52 C73 1_555 1_555
H53 C75 1_555 1_555
H54 C76 1_555 1_555
H55 C77 1_555 1_555
H56 C78 1_555 1_555
H57 C82 1_555 1_555
H58 C83 1_555 1_555
H59 C84 1_555 1_555
H60 C85 1_555 1_555
H61 C87 1_555 1_555
H62 C88 1_555 1_555
H63 C89 1_555 1_555
H64 C90 1_555 1_555
H65 C92 1_555 1_555
H66 C93 1_555 1_555
H67 C94 1_555 1_555
H68 C95 1_555 1_555
H69 C97 1_555 1_555
H70 C98 1_555 1_555
H71 C99 1_555 1_555
H72 C100 1_555 1_555
H73 C102 1_555 1_555
H74 C103 1_555 1_555
H75 C105 1_555 1_555
H76 C106 1_555 1_555
H77 C107 1_555 1_555
H78 C108 1_555 1_555
H79 C112 1_555 1_555
H80 C113 1_555 1_555
H81 C115 1_555 1_555
H82 C116 1_555 1_555
H83 C117 1_555 1_555
H84 C118 1_555 1_555
H85 C122 1_555 1_555
H86 C123 1_555 1_555
H87 C124 1_555 1_555
H88 C125 1_555 1_555
H89 C127 1_555 1_555
H90 C128 1_555 1_555
H91 C129 1_555 1_555
H92 C130 1_555 1_555
H93 C132 1_555 1_555
H94 C133 1_555 1_555
H95 C134 1_555 1_555
H96 C135 1_555 1_555
H97 C137 1_555 1_555
H98 C138 1_555 1_555
H99 C140 1_555 1_555
H100 C141 1_555 1_555
H101 C142 1_555 1_555
H102 C143 1_555 1_555
H103 C147 1_555 1_555
H104 C148 1_555 1_555
H105 C150 1_555 1_555
H106 C151 1_555 1_555
H107 C152 1_555 1_555
H108 C153 1_555 1_555
H109 C157 1_555 1_555
H110 C158 1_555 1_555
H111 C159 1_555 1_555
H112 C160 1_555 1_555
H117 C166 1_555 1_555
H118 C166 1_555 1_555
H119 C166 1_555 1_555
H120 C167 1_555 1_555
H121 C167 1_555 1_555
H122 C168 1_555 1_555
H123 C168 1_555 1_555
H125 C169 1_555 1_555
H126 C169 1_555 1_555
H127 C170 1_555 1_555
H128 C170 1_555 1_555
H129 C170 1_555 1_555
H130 C171 1_555 1_555
H131 C171 1_555 1_555
H132 C172 1_555 1_555
H133 C172 1_555 1_555
H135 C173 1_555 1_555
H136 C173 1_555 1_555
H138 C175 1_555 1_555
H139 C175 1_555 1_555
H141 C177 1_555 1_555
H142 C177 1_555 1_555
H144 C179 1_555 1_555
H145 C179 1_555 1_555
H147 C181 1_555 1_555
H148 C181 1_555 1_555
Ag2_2 N4 1_555 1_555
Ag4_2 N13 1_555 1_555
N4_2 Ag2 1_555 1_555
N13_2 Ag4 1_555 1_555
N18_2 Ag2 1_555 1_555
N21_2 Ag4 1_555 1_555
N27_2 Ag4 1_555 1_555
N3 P3 1_555 1_555
N5 P6 1_555 1_555
N6 P5 1_555 1_555
N9 P9 1_555 1_555
N12 P11 1_555 1_555
N13 P12 1_555 1_555
N18 Ag2_2 1_555 1_555
N21 Ag4_2 1_555 1_555
N27 Ag4_2 1_555 1_555
O3 C11 1_555 1_555
O4 C16 1_555 1_555
O9 C51 1_555 1_555
O10 C56 1_555 1_555
O13 C91 1_555 1_555
O14 C96 1_555 1_555
O19 C131 1_555 1_555
C4 C5 1_555 1_555
C9 C10 1_555 1_555
C14 C15 1_555 1_555
C19 C20 1_555 1_555
C28 C29 1_555 1_555
C29 C30 1_555 1_555
C31 C40 1_555 1_555
C38 C39 1_555 1_555
C39 C40 1_555 1_555
C49 C50 1_555 1_555
C54 C55 1_555 1_555
C59 C60 1_555 1_555
C68 C69 1_555 1_555
C69 C70 1_555 1_555
C71 C80 1_555 1_555
C78 C79 1_555 1_555
C79 C80 1_555 1_555
C84 C85 1_555 1_555
C89 C90 1_555 1_555
C94 C95 1_555 1_555
C99 C100 1_555 1_555
C108 C109 1_555 1_555
C109 C110 1_555 1_555
C111 C120 1_555 1_555
C118 C119 1_555 1_555
C119 C120 1_555 1_555
C129 C130 1_555 1_555
C134 C135 1_555 1_555
C143 C144 1_555 1_555
C144 C145 1_555 1_555
C146 C155 1_555 1_555
C153 C154 1_555 1_555
C154 C155 1_555 1_555
C159 C160 1_555 1_555

#END
