
#######################################################################
#
#                 Cambridge Crystallographic Data Centre
#                                CCDC 
#
#######################################################################
#
# If this CIF has been generated from an entry in the Cambridge 
# Structural Database, then it will include bibliographic, chemical, 
# crystal, experimental, refinement or atomic coordinate data resulting 
# from the CCDC's data processing and validation procedures.
#
#######################################################################

data_VIXBIO
_symmetry_cell_setting           monoclinic
_symmetry_space_group_name_H-M   'P 21/c'
_symmetry_Int_Tables_number      14
_space_group_name_Hall           '-P 2ybc'
loop_
_symmetry_equiv_pos_site_id
_symmetry_equiv_pos_as_xyz
1 x,y,z
2 -x,1/2+y,1/2-z
3 -x,-y,-z
4 x,1/2-y,1/2+z
_cell_length_a                   9.354(4)
_cell_length_b                   13.010(5)
_cell_length_c                   9.700(4)
_cell_angle_alpha                90
_cell_angle_beta                 101.973(5)
_cell_angle_gamma                90
_cell_volume                     1154.77
loop_
_atom_site_label
_atom_site_type_symbol
_atom_site_fract_x
_atom_site_fract_y
_atom_site_fract_z
Cu1 Cu 0.98591(7) 1.06526(5) 0.11500(6)
Br1 Br 0.86559(5) 0.89478(4) 0.06384(5)
S1 S 0.45339(16) 1.36859(12) 0.22293(13)
N1 N 0.8160(4) 1.1617(3) 0.1313(4)
N2 N 0.1338(4) 1.4144(3) -0.1969(4)
C1 C 0.8438(5) 1.2498(4) 0.2038(6)
H1 H 0.9408 1.2680 0.2379
C2 C 0.7369(6) 1.3145(4) 0.2303(5)
H2 H 0.7617 1.3743 0.2823
C3 C 0.5927(5) 1.2898(4) 0.1791(5)
C4 C 0.5609(5) 1.1991(4) 0.1042(5)
H3 H 0.4646 1.1799 0.0685
C5 C 0.6746(5) 1.1381(4) 0.0838(5)
H4 H 0.6524 1.0770 0.0342
C6 C 0.0925(6) 1.4078(4) -0.0740(5)
H5 H -0.0068 1.4142 -0.0749
C7 C 0.1850(6) 1.3923(4) 0.0547(5)
H6 H 0.1491 1.3880 0.1371
C8 C 0.3317(5) 1.3832(4) 0.0576(4)
C9 C 0.3787(6) 1.3888(4) -0.0688(5)
H7 H 0.4773 1.3825 -0.0707
C10 C 0.2766(6) 1.4040(4) -0.1910(5)
H8 H 0.3093 1.4073 -0.2751
Cu1B Cu 1.01409(7) 0.93474(5) -0.11500(6)
Cu1C Cu -0.01409(7) 1.43474(5) -0.38500(6)
Br1B Br 1.13441(5) 1.10522(4) -0.06384(5)
N2C N 1.1338(4) 1.0856(3) 0.3031(4)
loop_
_geom_bond_atom_site_label_1
_geom_bond_atom_site_label_2
_geom_bond_site_symmetry_1
_geom_bond_site_symmetry_2
Cu1 Br1 1_555 1_555
Br1 Cu1B 1_555 1_555
S1 C3 1_555 1_555
N1 Cu1 1_555 1_555
N2 C6 1_555 1_555
C1 N1 1_555 1_555
H1 C1 1_555 1_555
C2 C1 1_555 1_555
H2 C2 1_555 1_555
C3 C2 1_555 1_555
C4 C3 1_555 1_555
H3 C4 1_555 1_555
C5 N1 1_555 1_555
H4 C5 1_555 1_555
C6 H5 1_555 1_555
C7 C6 1_555 1_555
H6 C7 1_555 1_555
C8 S1 1_555 1_555
C9 C8 1_555 1_555
H7 C9 1_555 1_555
C10 N2 1_555 1_555
H8 C10 1_555 1_555
Cu1B Br1B 1_555 1_555
Cu1C N2 1_555 1_555
Br1B Cu1 1_555 1_555
N2C Cu1 1_555 1_555
C4 C5 1_555 1_555
C7 C8 1_555 1_555
C9 C10 1_555 1_555

#END
