
#######################################################################
#
#                 Cambridge Crystallographic Data Centre
#                                CCDC 
#
#######################################################################
#
# If this CIF has been generated from an entry in the Cambridge 
# Structural Database, then it will include bibliographic, chemical, 
# crystal, experimental, refinement or atomic coordinate data resulting 
# from the CCDC's data processing and validation procedures.
#
#######################################################################

data_VIXDIR
_symmetry_cell_setting           triclinic
_symmetry_space_group_name_H-M   'P -1'
_symmetry_Int_Tables_number      2
_space_group_name_Hall           '-P 1'
loop_
_symmetry_equiv_pos_site_id
_symmetry_equiv_pos_as_xyz
1 x,y,z
2 -x,-y,-z
_cell_length_a                   10.8622(5)
_cell_length_b                   11.5477(6)
_cell_length_c                   18.5728(9)
_cell_angle_alpha                77.413(2)
_cell_angle_beta                 73.8140(10)
_cell_angle_gamma                67.829(2)
_cell_volume                     2055.17
loop_
_atom_site_label
_atom_site_type_symbol
_atom_site_fract_x
_atom_site_fract_y
_atom_site_fract_z
C1 C 0.5586(2) 0.8519(3) 0.73070(14)
C2 C 0.5530(3) 0.9604(3) 0.75453(16)
H1 H 0.5655 1.0291 0.7181
C3 C 0.5292(3) 0.9692(3) 0.83072(16)
H2 H 0.5265 1.0430 0.8467
C4 C 0.5095(3) 0.8689(3) 0.88320(16)
H3 H 0.4931 0.8745 0.9355
C5 C 0.5133(3) 0.7605(3) 0.86089(14)
H4 H 0.4991 0.6928 0.8977
C6 C 0.5381(2) 0.7514(2) 0.78427(14)
C7 C 0.5168(4) 0.3726(3) 0.93756(17)
H5 H 0.4678 0.3226 0.9756
H6 H 0.4641 0.4625 0.9390
H7 H 0.6059 0.3547 0.9484
C8 C 0.5360(3) 0.3390(3) 0.86027(15)
C9 C 0.5421(2) 0.4379(2) 0.79404(14)
C10 C 0.5543(2) 0.4171(3) 0.71571(14)
C11 C 0.5671(3) 0.2933(3) 0.69721(15)
H8 H 0.5689 0.3005 0.6434
H9 H 0.4892 0.2687 0.7275
H10 H 0.6516 0.2294 0.7086
C12 C 0.2321(2) 0.4558(2) 0.69341(13)
C13 C 0.2404(2) 0.3395(2) 0.67952(14)
H11 H 0.2492 0.3269 0.6292
C14 C 0.2362(3) 0.2419(3) 0.73695(15)
H12 H 0.2426 0.1627 0.7264
C15 C 0.2225(3) 0.2611(3) 0.81047(15)
H13 H 0.2185 0.1945 0.8504
C16 C 0.2146(3) 0.3751(3) 0.82644(14)
H14 H 0.2056 0.3863 0.8771
C17 C 0.2197(2) 0.4749(2) 0.76806(14)
C18 C 0.1270(3) 0.5984(3) 1.00900(15)
H15 H 0.1129 0.6088 1.0620
H16 H 0.2021 0.5200 0.9976
H17 H 0.0437 0.5950 1.0002
C19 C 0.1613(3) 0.7080(3) 0.95876(15)
C20 C 0.1840(2) 0.7130(2) 0.87534(14)
C21 C 0.1923(2) 0.8263(2) 0.82160(14)
C22 C 0.1649(3) 0.9482(3) 0.84855(15)
H18 H 0.2412 0.9420 0.8693
H19 H 0.0810 0.9666 0.8879
H20 H 0.1546 1.0160 0.8061
C23 C -0.0659(2) 1.1848(2) 0.66453(13)
C24 C -0.0648(3) 1.3077(3) 0.64380(15)
H21 H -0.0436 1.3391 0.5918
C25 C -0.0944(3) 1.3845(3) 0.69844(15)
H22 H -0.0952 1.4689 0.6841
C26 C -0.1227(3) 1.3376(3) 0.77393(15)
H23 H -0.1415 1.3900 0.8113
C27 C -0.1240(2) 1.2160(3) 0.79599(14)
H24 H -0.1434 1.1851 0.8481
C28 C -0.0967(2) 1.1385(2) 0.74107(13)
C29 C -0.2521(4) 0.9437(3) 0.98202(16)
H25 H -0.2989 0.9192 1.0331
H26 H -0.3164 1.0150 0.9571
H27 H -0.1768 0.9682 0.9851
C30 C -0.1971(3) 0.8343(3) 0.93723(14)
C31 C -0.1486(2) 0.8600(3) 0.85423(13)
C32 C -0.1162(2) 0.7683(2) 0.80183(14)
C33 C -0.1250(3) 0.6393(3) 0.82911(15)
H28 H -0.1012 0.5936 0.7858
H29 H -0.2180 0.6463 0.8569
H30 H -0.0615 0.5935 0.8625
N1 N 0.5447(2) 0.6405(2) 0.76094(11)
H31 H 0.5536 0.6364 0.7129
N2 N 0.5374(2) 0.5436(2) 0.81195(11)
N3 N 0.2133(2) 0.5907(2) 0.78477(11)
H32 H 0.2228 0.6518 0.7483
N4 N 0.1929(2) 0.6058(2) 0.85540(11)
N5 N -0.1025(2) 1.0157(2) 0.76176(11)
H33 H -0.0786 0.9658 0.7269
N6 N -0.1434(2) 0.9755(2) 0.83270(11)
O1 O 0.5543(2) 0.50646(19) 0.66495(10)
O2 O 0.5470(2) 0.2332(2) 0.85401(12)
O3 O 0.21956(18) 0.81994(18) 0.75344(9)
O4 O 0.1716(3) 0.7902(2) 0.98595(12)
O5 O -0.08233(18) 0.79930(18) 0.73319(10)
O6 O -0.1945(2) 0.7294(2) 0.96837(11)
O7 O 0.7614(2) 0.6163(2) 0.50931(12)
O8 O 0.51479(17) 0.78146(17) 0.61977(9)
O9 O 0.5685(2) 0.97348(19) 0.59530(11)
O10 O 0.74448(17) 0.76991(19) 0.61437(10)
O11 O 0.28535(19) 1.07504(19) 0.59256(11)
O12 O 0.36226(17) 0.51677(17) 0.55902(9)
O13 O 0.11560(17) 0.59080(19) 0.58516(10)
O14 O 0.2321(2) 0.68347(18) 0.63703(10)
O15 O 0.37825(17) 0.81119(17) 0.49204(9)
O16 O 0.04183(17) 0.96542(17) 0.61482(9)
O17 O 0.0345(2) 1.15249(19) 0.52438(10)
O18 O -0.17183(19) 1.1026(2) 0.58672(12)
Na1 Na 0.53542(10) 0.61723(10) 0.54001(5)
Na2 Na 0.27287(10) 0.87253(10) 0.61830(5)
Na3 Na -0.04598(10) 0.80368(10) 0.60193(5)
S1 S 0.60003(6) 0.84427(7) 0.63180(4)
S2 S 0.23600(6) 0.57104(6) 0.61230(3)
S3 S -0.03834(6) 1.09484(6) 0.59095(3)
H34 H 0.7788 0.6437 0.5434
H35 H 0.8349 0.5418 0.4927
H36 H 0.2340 1.1194 0.5584
H37 H 0.3737 1.0620 0.5758
H38 H 0.3998 0.8746 0.4636
H39 H 0.3167 0.8232 0.4636
O10_2 O -0.25552(17) 0.76991(19) 0.61437(10)
O12A O 0.63774(17) 0.48323(17) 0.44098(9)
O17A O -0.0345(2) 0.84751(19) 0.47562(10)
Na1A Na 0.46458(10) 0.38277(10) 0.45999(5)
Na3_2 Na 0.95402(10) 0.80368(10) 0.60193(5)
Na3A Na 0.04598(10) 1.19632(10) 0.39807(5)
loop_
_geom_bond_atom_site_label_1
_geom_bond_atom_site_label_2
_geom_bond_site_symmetry_1
_geom_bond_site_symmetry_2
C1 C2 1_555 1_555
C2 H1 1_555 1_555
C3 C2 1_555 1_555
H2 C3 1_555 1_555
C4 C3 1_555 1_555
H3 C4 1_555 1_555
C5 C4 1_555 1_555
H4 C5 1_555 1_555
C6 C1 1_555 1_555
C7 H5 1_555 1_555
H6 C7 1_555 1_555
H7 C7 1_555 1_555
C8 C7 1_555 1_555
C9 C8 1_555 1_555
C10 C9 1_555 1_555
C11 C10 1_555 1_555
H8 C11 1_555 1_555
H9 C11 1_555 1_555
H10 C11 1_555 1_555
C12 C13 1_555 1_555
C13 H11 1_555 1_555
C14 C13 1_555 1_555
H12 C14 1_555 1_555
C15 C14 1_555 1_555
H13 C15 1_555 1_555
C16 C15 1_555 1_555
H14 C16 1_555 1_555
C17 C12 1_555 1_555
C18 H15 1_555 1_555
H16 C18 1_555 1_555
H17 C18 1_555 1_555
C19 C18 1_555 1_555
C20 C19 1_555 1_555
C21 C20 1_555 1_555
C22 C21 1_555 1_555
H18 C22 1_555 1_555
H19 C22 1_555 1_555
H20 C22 1_555 1_555
C23 C24 1_555 1_555
C24 H21 1_555 1_555
C25 C24 1_555 1_555
H22 C25 1_555 1_555
C26 C25 1_555 1_555
H23 C26 1_555 1_555
C27 C26 1_555 1_555
H24 C27 1_555 1_555
C28 C23 1_555 1_555
C29 H25 1_555 1_555
H26 C29 1_555 1_555
H27 C29 1_555 1_555
C30 C29 1_555 1_555
C31 C30 1_555 1_555
C32 C31 1_555 1_555
C33 C32 1_555 1_555
H28 C33 1_555 1_555
H29 C33 1_555 1_555
H30 C33 1_555 1_555
N1 C6 1_555 1_555
H31 N1 1_555 1_555
N2 C9 1_555 1_555
N3 C17 1_555 1_555
H32 N3 1_555 1_555
N4 C20 1_555 1_555
N5 C28 1_555 1_555
H33 N5 1_555 1_555
N6 C31 1_555 1_555
O1 C10 1_555 1_555
O2 C8 1_555 1_555
O3 C21 1_555 1_555
O4 C19 1_555 1_555
O5 C32 1_555 1_555
O6 C30 1_555 1_555
O7 Na1 1_555 1_555
O8 Na1 1_555 1_555
O9 S1 1_555 1_555
O10 S1 1_555 1_555
O11 Na2 1_555 1_555
O12 Na1 1_555 1_555
O13 Na3 1_555 1_555
O14 Na2 1_555 1_555
O15 Na1 1_555 1_555
O16 Na2 1_555 1_555
O17 S3 1_555 1_555
O18 S3 1_555 1_555
Na1 O1 1_555 1_555
Na2 O3 1_555 1_555
Na3 O5 1_555 1_555
S1 C1 1_555 1_555
S2 C12 1_555 1_555
S3 C23 1_555 1_555
H34 O7 1_555 1_555
H35 O7 1_555 1_555
H36 O11 1_555 1_555
H37 O11 1_555 1_555
H38 O15 1_555 1_555
H39 O15 1_555 1_555
O10_2 Na3 1_555 1_555
O12A Na1 1_555 1_555
O17A Na3 1_555 1_555
Na1A O12 1_555 1_555
Na3_2 O10 1_555 1_555
Na3A O17 1_555 1_555
C5 C6 1_555 1_555
C16 C17 1_555 1_555
C27 C28 1_555 1_555
N1 N2 1_555 1_555
N3 N4 1_555 1_555
N5 N6 1_555 1_555
O8 Na2 1_555 1_555
O8 S1 1_555 1_555
O12 S2 1_555 1_555
O13 S2 1_555 1_555
O14 Na3 1_555 1_555
O14 S2 1_555 1_555
O15 Na2 1_555 1_555
O16 Na3 1_555 1_555
O16 S3 1_555 1_555
O12A Na1A 1_555 1_555

#END
