
#######################################################################
#
#                 Cambridge Crystallographic Data Centre
#                                CCDC 
#
#######################################################################
#
# If this CIF has been generated from an entry in the Cambridge 
# Structural Database, then it will include bibliographic, chemical, 
# crystal, experimental, refinement or atomic coordinate data resulting 
# from the CCDC's data processing and validation procedures.
#
#######################################################################

data_VIXDAI
_symmetry_cell_setting           monoclinic
_symmetry_space_group_name_H-M   'P 21/c'
_symmetry_Int_Tables_number      14
_space_group_name_Hall           '-P 2ybc'
loop_
_symmetry_equiv_pos_site_id
_symmetry_equiv_pos_as_xyz
1 x,y,z
2 -x,1/2+y,1/2-z
3 -x,-y,-z
4 x,1/2-y,1/2+z
_cell_length_a                   5.0295(10)
_cell_length_b                   12.290(3)
_cell_length_c                   10.136(2)
_cell_angle_alpha                90
_cell_angle_beta                 95.00(3)
_cell_angle_gamma                90
_cell_volume                     624.148
loop_
_atom_site_label
_atom_site_type_symbol
_atom_site_fract_x
_atom_site_fract_y
_atom_site_fract_z
Pb1 Pb 1.03773(5) 0.63848(2) 0.61852(3)
C1 C 0.4977(16) 0.8052(7) 0.4944(8)
H1 H 0.4753 0.7678 0.4145
C2 C 0.4306(15) 0.9203(6) 0.6541(7)
C3 C 0.6511(15) 0.8575(6) 0.6897(8)
C4 C 0.8435(16) 0.8513(6) 0.8108(8)
C5 C 0.2709(15) 1.0060(6) 0.7157(7)
N1 N 0.6924(13) 0.7862(5) 0.5875(6)
N2 N 0.3353(14) 0.8853(6) 0.5297(7)
H2 H 0.1975 0.9101 0.4831
O1 O 0.0540(12) 1.0309(5) 0.6561(6)
O2 O 0.3577(12) 1.0486(6) 0.8239(7)
O3 O 1.0126(12) 0.7777(5) 0.8160(6)
O4 O 0.8190(13) 0.9202(5) 0.9036(6)
Pb1A Pb -0.03773(5) 1.13848(2) 0.88148(3)
Pb1C Pb 1.03773(5) 0.86152(2) 1.11852(3)
O1A O 0.9460(12) 0.5309(5) 0.8439(6)
O2A O 0.6423(12) 0.5486(6) 0.6761(7)
O4C O 0.8190(13) 0.5798(5) 0.4036(6)
loop_
_geom_bond_atom_site_label_1
_geom_bond_atom_site_label_2
_geom_bond_site_symmetry_1
_geom_bond_site_symmetry_2
Pb1 N1 1_555 1_555
C1 H1 1_555 1_555
C2 C3 1_555 1_555
C3 C4 1_555 1_555
C4 O3 1_555 1_555
C5 C2 1_555 1_555
N1 C1 1_555 1_555
N2 C1 1_555 1_555
H2 N2 1_555 1_555
O1 C5 1_555 1_555
O2 C5 1_555 1_555
O3 Pb1 1_555 1_555
O4 C4 1_555 1_555
Pb1A O1 1_555 1_555
Pb1C O4 1_555 1_555
O1A Pb1 1_555 1_555
O2A Pb1 1_555 1_555
O4C Pb1 1_555 1_555
C2 N2 1_555 1_555
C3 N1 1_555 1_555
O2 Pb1A 1_555 1_555

#END
