
#######################################################################
#
#                 Cambridge Crystallographic Data Centre
#                                CCDC 
#
#######################################################################
#
# If this CIF has been generated from an entry in the Cambridge 
# Structural Database, then it will include bibliographic, chemical, 
# crystal, experimental, refinement or atomic coordinate data resulting 
# from the CCDC's data processing and validation procedures.
#
#######################################################################

data_VIXDAI01
_symmetry_cell_setting           monoclinic
_symmetry_space_group_name_H-M   'P 21/c'
_symmetry_Int_Tables_number      14
_space_group_name_Hall           '-P 2ybc'
loop_
_symmetry_equiv_pos_site_id
_symmetry_equiv_pos_as_xyz
1 x,y,z
2 -x,1/2+y,1/2-z
3 -x,-y,-z
4 x,1/2-y,1/2+z
_cell_length_a                   5.02260(10)
_cell_length_b                   12.2832(3)
_cell_length_c                   10.1134(3)
_cell_angle_alpha                90
_cell_angle_beta                 94.9610(10)
_cell_angle_gamma                90
_cell_volume                     621.595
loop_
_atom_site_label
_atom_site_type_symbol
_atom_site_fract_x
_atom_site_fract_y
_atom_site_fract_z
Pb1 Pb 0.03807(6) 0.63836(3) 0.11854(3)
O1 O -0.0512(14) 0.5305(6) 0.3429(7)
O2 O -0.3591(14) 0.5491(6) 0.1754(8)
O3 O -1.0135(14) 0.2777(6) 0.1839(7)
O4 O -0.8176(14) 0.4203(5) 0.0968(6)
N1 N -0.3361(17) 0.3860(7) 0.4701(8)
N2 N -0.6923(15) 0.2860(6) 0.4124(7)
C1 C -0.5019(19) 0.3058(8) 0.5067(9)
C2 C -0.4310(18) 0.4209(7) 0.3445(9)
C3 C -0.652(2) 0.3581(7) 0.3099(11)
C4 C -0.2727(17) 0.5062(7) 0.2845(9)
C5 C -0.842(2) 0.3514(7) 0.1891(10)
H1 H -0.46(2) 0.271(10) 0.585(12)
Pb1A Pb -1.03807(6) 0.13836(3) 0.38146(3)
Pb1B Pb -1.03807(6) 0.36164(3) -0.11854(3)
O3A O 0.0135(14) 0.7777(6) 0.3161(7)
O4B O -0.1824(14) 0.5797(5) -0.0968(6)
N2A N -0.3077(15) 0.7860(6) 0.0876(7)
loop_
_geom_bond_atom_site_label_1
_geom_bond_atom_site_label_2
_geom_bond_site_symmetry_1
_geom_bond_site_symmetry_2
Pb1 O1 1_555 1_555
O1 C4 1_555 1_555
O2 Pb1 1_555 1_555
O3 C5 1_555 1_555
O4 C5 1_555 1_555
N1 C1 1_555 1_555
N2 C1 1_555 1_555
C1 H1 1_555 1_555
C2 N1 1_555 1_555
C3 N2 1_555 1_555
C4 O2 1_555 1_555
C5 C3 1_555 1_555
Pb1A O3 1_555 1_555
Pb1B O4 1_555 1_555
O3A Pb1 1_555 1_555
O4B Pb1 1_555 1_555
N2A Pb1 1_555 1_555
N2 Pb1A 1_555 1_555
C2 C3 1_555 1_555
C2 C4 1_555 1_555

#END
