
#######################################################################
#
#                 Cambridge Crystallographic Data Centre
#                                CCDC 
#
#######################################################################
#
# If this CIF has been generated from an entry in the Cambridge 
# Structural Database, then it will include bibliographic, chemical, 
# crystal, experimental, refinement or atomic coordinate data resulting 
# from the CCDC's data processing and validation procedures.
#
#######################################################################

data_VIXDEN
_symmetry_cell_setting           triclinic
_symmetry_space_group_name_H-M   'P -1'
_symmetry_Int_Tables_number      2
_space_group_name_Hall           '-P 1'
loop_
_symmetry_equiv_pos_site_id
_symmetry_equiv_pos_as_xyz
1 x,y,z
2 -x,-y,-z
_cell_length_a                   13.138(2)
_cell_length_b                   16.849(3)
_cell_length_c                   24.074(3)
_cell_angle_alpha                77.338(7)
_cell_angle_beta                 80.725(8)
_cell_angle_gamma                75.877(6)
_cell_volume                     5009.55
loop_
_atom_site_label
_atom_site_type_symbol
_atom_site_fract_x
_atom_site_fract_y
_atom_site_fract_z
Y1 Y 0.10222(6) -0.01316(5) 0.05280(3)
Y2 Y -0.06962(6) 0.02956(5) 0.24841(3)
Y3 Y -0.09833(6) 0.02495(5) 0.44407(3)
O1 O -0.0585(4) -0.0650(3) 0.5976(2)
O2 O -0.1720(4) -0.0324(3) 0.5331(2)
O3 O -0.2819(4) 0.0412(3) 0.4434(2)
O4 O 0.0351(4) -0.0809(3) 0.4837(2)
O5 O 0.1766(4) -0.1540(3) 0.5221(2)
O6 O -0.1041(4) -0.0828(3) 0.4052(2)
O7 O -0.1287(4) 0.0970(3) 0.3515(2)
O8 O -0.1421(4) -0.0607(3) 0.3153(2)
O9 O -0.0963(4) 0.1654(3) 0.2655(3)
O10 O -0.2514(4) 0.0950(3) 0.2400(2)
O11 O 0.0749(4) 0.0206(3) 0.2965(2)
O12 O -0.1343(4) -0.0286(3) 0.1844(2)
O13 O 0.0536(4) -0.0810(3) 0.2260(2)
O14 O 0.1451(4) -0.0838(3) 0.1402(2)
O15 O 0.0059(4) 0.0897(3) 0.1651(2)
O16 O 0.1245(4) 0.0987(3) 0.0894(2)
O17 O 0.2861(4) -0.0178(3) 0.0457(2)
O18 O -0.0597(4) 0.0642(3) 0.0300(2)
O19 O -0.1966(4) 0.1340(3) -0.0128(2)
O20 O 0.1438(4) 0.0817(3) -0.0313(2)
O21 O 0.0209(4) 0.0993(3) -0.0901(2)
N1 N 0.3625(5) -0.2615(4) 0.4605(3)
N2 N -0.4372(5) -0.0967(4) 0.3270(3)
N3 N 0.3617(6) -0.2144(4) 0.1156(3)
N4 N -0.4011(5) -0.1003(4) 0.5567(3)
N5 N -0.4007(5) 0.3025(4) 0.2936(3)
N6 N 0.3903(5) 0.1460(4) 0.1235(3)
N7 N -0.3949(5) 0.2498(4) 0.0645(3)
N8 N 0.3572(5) 0.0824(4) -0.0622(3)
C1 C 0.1161(6) -0.1410(5) 0.4832(3)
C2 C 0.1411(6) -0.1899(5) 0.4363(3)
H1 H 0.1941 -0.1679 0.4084
H2 H 0.0779 -0.1794 0.4175
C3 C 0.1812(6) -0.2856(5) 0.4520(3)
C4 C 0.0949(6) -0.3231(5) 0.4896(3)
H3 H 0.0299 -0.3017 0.4718
H4 H 0.0836 -0.3053 0.5261
C5 C 0.1186(7) -0.4184(5) 0.5002(4)
H5 H 0.0582 -0.4381 0.5225
H6 H 0.1785 -0.4406 0.5221
C6 C 0.1431(7) -0.4503(5) 0.4431(4)
H7 H 0.1635 -0.5107 0.4508
H8 H 0.0802 -0.4341 0.4235
C7 C 0.2311(7) -0.4151(5) 0.4051(4)
H9 H 0.2412 -0.4325 0.3684
H10 H 0.2963 -0.4372 0.4226
C8 C 0.2065(6) -0.3198(4) 0.3956(3)
H11 H 0.1467 -0.2979 0.3736
H12 H 0.2667 -0.2999 0.3732
C9 C 0.2807(6) -0.3095(5) 0.4843(3)
H13 H 0.2584 -0.3027 0.5237
H14 H 0.3120 -0.3680 0.4848
C10 C -0.1542(6) -0.0938(5) 0.3672(4)
C11 C -0.2314(6) -0.1501(5) 0.3884(3)
H15 H -0.2968 -0.1169 0.4037
H16 H -0.2036 -0.1918 0.4202
C12 C -0.2589(6) -0.1959(5) 0.3466(3)
C13 C -0.3157(6) -0.2632(5) 0.3805(3)
H17 H -0.3735 -0.2382 0.4062
H18 H -0.3458 -0.2845 0.3542
C14 C -0.2450(7) -0.3355(5) 0.4156(4)
H19 H -0.2247 -0.3161 0.4464
H20 H -0.2846 -0.3781 0.4327
C15 C -0.1465(7) -0.3733(5) 0.3804(4)
H21 H -0.1656 -0.4003 0.3531
H22 H -0.1008 -0.4152 0.4053
C16 C -0.0878(6) -0.3062(5) 0.3484(3)
H23 H -0.0263 -0.3309 0.3248
H24 H -0.0635 -0.2825 0.3759
C17 C -0.1589(6) -0.2373(5) 0.3107(3)
H25 H -0.1799 -0.2605 0.2820
H26 H -0.1197 -0.1953 0.2910
C18 C -0.3278(6) -0.1341(5) 0.3018(3)
H27 H -0.2921 -0.0894 0.2837
H28 H -0.3339 -0.1632 0.2723
C19 C 0.1294(6) -0.1109(5) 0.1930(4)
C20 C 0.2091(6) -0.1869(4) 0.2187(3)
H29 H 0.2769 -0.1715 0.2140
H30 H 0.1875 -0.1997 0.2595
C21 C 0.2254(6) -0.2662(5) 0.1950(3)
C22 C 0.3045(6) -0.3358(4) 0.2303(4)
H31 H 0.3742 -0.3233 0.2208
H32 H 0.2835 -0.3354 0.2707
C23 C 0.3108(7) -0.4228(5) 0.2194(4)
H33 H 0.3424 -0.4261 0.1805
H34 H 0.3562 -0.4634 0.2452
C24 C 0.2048(8) -0.4442(5) 0.2281(4)
H35 H 0.1762 -0.4473 0.2680
H36 H 0.2120 -0.4984 0.2184
C25 C 0.1297(7) -0.3797(5) 0.1911(5)
H37 H 0.0605 -0.3932 0.1990
H38 H 0.1546 -0.3809 0.1511
C26 C 0.1205(6) -0.2929(5) 0.2021(4)
H39 H 0.0869 -0.2903 0.2408
H40 H 0.0748 -0.2534 0.1761
C27 C 0.2668(7) -0.2538(5) 0.1310(3)
H41 H 0.2853 -0.3075 0.1193
H42 H 0.2104 -0.2190 0.1094
C28 C -0.1460(6) -0.0641(5) 0.5822(3)
C29 C -0.2244(6) -0.1042(5) 0.6248(3)
H43 H -0.2913 -0.0641 0.6269
H44 H -0.1997 -0.1178 0.6623
C30 C -0.2435(6) -0.1846(5) 0.6104(3)
C31 C -0.3098(6) -0.2257(5) 0.6620(3)
H45 H -0.2786 -0.2287 0.6966
H46 H -0.3802 -0.1907 0.6653
C32 C -0.3184(6) -0.3115(5) 0.6585(3)
H47 H -0.3587 -0.3078 0.6273
H48 H -0.3564 -0.3352 0.6937
C33 C -0.2106(7) -0.3685(5) 0.6489(4)
H49 H -0.2195 -0.4220 0.6440
H50 H -0.1735 -0.3778 0.6822
C34 C -0.1452(7) -0.3306(5) 0.5961(4)
H51 H -0.0748 -0.3657 0.5927
H52 H -0.1775 -0.3282 0.5621
C35 C -0.1374(6) -0.2442(4) 0.5997(3)
H53 H -0.1001 -0.2206 0.5642
H54 H -0.0956 -0.2484 0.6304
C36 C -0.3007(6) -0.1647(5) 0.5551(3)
H55 H -0.2530 -0.1459 0.5224
H56 H -0.3158 -0.2157 0.5494
C37 C -0.1298(6) 0.1649(5) 0.3171(4)
C38 C -0.1763(6) 0.2454(4) 0.3389(3)
H57 H -0.1234 0.2563 0.3583
H58 H -0.2353 0.2361 0.3676
C39 C -0.2162(6) 0.3265(5) 0.2951(3)
C40 C -0.2637(6) 0.3967(4) 0.3283(3)
H59 H -0.2999 0.4444 0.3028
H60 H -0.3158 0.3787 0.3588
C41 C -0.1827(6) 0.4233(5) 0.3541(3)
H61 H -0.1540 0.3782 0.3838
H62 H -0.2174 0.4708 0.3719
C42 C -0.0927(7) 0.4467(5) 0.3105(3)
H63 H -0.1191 0.4971 0.2839
H64 H -0.0397 0.4576 0.3299
C43 C -0.0431(7) 0.3768(5) 0.2778(4)
H65 H -0.0077 0.3289 0.3036
H66 H 0.0095 0.3947 0.2476
C44 C -0.1269(6) 0.3515(5) 0.2514(3)
H67 H -0.1564 0.3978 0.2226
H68 H -0.0928 0.3052 0.2323
C45 C -0.2978(7) 0.3131(5) 0.2602(3)
H69 H -0.3108 0.3605 0.2291
H70 H -0.2671 0.2641 0.2433
C46 C 0.0890(7) 0.1090(4) 0.1399(4)
C47 C 0.1518(6) 0.1462(5) 0.1720(3)
H71 H 0.2101 0.1022 0.1856
H72 H 0.1063 0.1618 0.2056
C48 C 0.1985(6) 0.2235(5) 0.1400(3)
C49 C 0.2281(6) 0.2611(5) 0.1857(3)
H73 H 0.1683 0.2691 0.2149
H74 H 0.2860 0.2219 0.2039
C50 C 0.2600(6) 0.3427(5) 0.1628(3)
H75 H 0.3238 0.3343 0.1362
H76 H 0.2753 0.3639 0.1941
C51 C 0.1720(7) 0.4073(5) 0.1319(4)
H77 H 0.1107 0.4206 0.1593
H78 H 0.1966 0.4581 0.1152
C52 C 0.1416(6) 0.3729(5) 0.0852(3)
H79 H 0.2004 0.3667 0.0553
H80 H 0.0822 0.4121 0.0684
C53 C 0.1117(6) 0.2884(5) 0.1085(3)
H81 H 0.0975 0.2670 0.0769
H82 H 0.0473 0.2962 0.1347
C54 C 0.2915(6) 0.1996(4) 0.0967(3)
H83 H 0.3091 0.2500 0.0729
H84 H 0.2711 0.1692 0.0719
C55 C -0.1389(6) 0.1262(5) 0.0263(3)
C56 C -0.1629(6) 0.1807(4) 0.0690(3)
H85 H -0.0986 0.1742 0.0861
H86 H -0.2137 0.1599 0.0991
C57 C -0.2059(6) 0.2740(5) 0.0497(3)
C58 C -0.2203(6) 0.3180(4) 0.1015(3)
H87 H -0.2772 0.3007 0.1289
H88 H -0.1561 0.2996 0.1202
C59 C -0.2444(6) 0.4111(5) 0.0861(3)
H89 H -0.2446 0.4337 0.1199
H90 H -0.3146 0.4302 0.0739
C60 C -0.1668(6) 0.4444(5) 0.0392(4)
H91 H -0.0987 0.4336 0.0534
H92 H -0.1907 0.5042 0.0282
C61 C -0.1544(6) 0.4044(5) -0.0127(4)
H93 H -0.0984 0.4227 -0.0403
H94 H -0.2194 0.4227 -0.0306
C62 C -0.1285(6) 0.3100(4) 0.0027(3)
H95 H -0.0583 0.2917 0.0149
H96 H -0.1273 0.2877 -0.0314
C63 C -0.3144(6) 0.2916(4) 0.0258(3)
H97 H -0.3426 0.3513 0.0187
H98 H -0.3028 0.2734 -0.0107
C64 C 0.1022(6) 0.1152(5) -0.0772(3)
C65 C 0.1506(6) 0.1786(5) -0.1218(3)
H99 H 0.0930 0.2258 -0.1313
H100 H 0.1731 0.1540 -0.1558
C66 C 0.2428(6) 0.2154(5) -0.1138(3)
C67 C 0.2186(6) 0.2568(5) -0.0612(3)
H101 H 0.1997 0.2169 -0.0278
H102 H 0.2819 0.2721 -0.0550
C68 C 0.1292(7) 0.3343(5) -0.0670(4)
H103 H 0.1181 0.3582 -0.0328
H104 H 0.0645 0.3187 -0.0705
C69 C 0.1546(7) 0.3993(5) -0.1195(4)
H105 H 0.0957 0.4470 -0.1232
H106 H 0.2163 0.4182 -0.1149
C70 C 0.1752(7) 0.3617(5) -0.1722(4)
H107 H 0.1959 0.4020 -0.2049
H108 H 0.1104 0.3492 -0.1790
C71 C 0.2605(6) 0.2829(5) -0.1677(3)
H109 H 0.3275 0.2974 -0.1674
H110 H 0.2657 0.2593 -0.2016
C72 C 0.3475(6) 0.1511(5) -0.1139(3)
H111 H 0.3572 0.1264 -0.1477
H112 H 0.4043 0.1799 -0.1172
Y1A Y -0.10222(6) 0.01316(5) -0.05280(3)
Y3A Y 0.09833(6) -0.02495(5) 0.55593(3)
O1A O 0.0585(4) 0.0650(3) 0.4024(2)
O4A O -0.0351(4) 0.0809(3) 0.5163(2)
O5A O -0.1766(4) 0.1540(3) 0.4779(2)
O18A O 0.0597(4) -0.0642(3) -0.0300(2)
O19A O 0.1966(4) -0.1340(3) 0.0128(2)
O21A O -0.0209(4) -0.0993(3) 0.0901(2)
Cl1 Cl 0.41191(19) -0.10036(19) -0.34572(10)
Cl2 Cl 0.5439(2) -0.37761(16) 0.53152(11)
Cl3 Cl 0.58113(16) -0.37670(13) -0.00661(9)
Cl4 Cl 0.48154(15) -0.13248(13) -0.00267(9)
Cl5 Cl 0.45790(16) -0.09739(13) 0.46051(9)
Cl6 Cl 0.39319(16) -0.04432(12) 0.15354(9)
Cl7 Cl 0.42400(17) -0.22312(13) 0.32568(9)
Cl8 Cl 0.34272(16) -0.04890(12) -0.13498(9)
Cl9 Cl 0.48314(17) -0.23417(13) -0.19719(9)
O22 O -0.5341(4) 0.4421(3) 0.3333(2)
O23 O 0.4924(5) -0.4266(3) -0.1745(3)
O24 O 0.5811(5) -0.5189(3) -0.0744(2)
O25 O 0.5350(4) -0.3376(3) 0.1184(2)
O26 O 0.5420(5) -0.4093(3) 0.3141(3)
O27 O 0.5811(5) -0.4757(4) 0.4269(3)
O28 O 0.2795(4) -0.0483(3) 0.2853(2)
O29 O 0.3953(4) 0.4638(3) -0.2056(2)
O30 O -0.5151(5) 0.0418(3) 0.2451(2)
O31 O 0.4278(10) -0.2403(7) 0.5823(5)
loop_
_geom_bond_atom_site_label_1
_geom_bond_atom_site_label_2
_geom_bond_site_symmetry_1
_geom_bond_site_symmetry_2
Y1 O14 1_555 1_555
Y2 O7 1_555 1_555
Y3 O2 1_555 1_555
O1 C28 1_555 1_555
O2 C28 1_555 1_555
O3 Y3 1_555 1_555
O4 Y3 1_555 1_555
O5 C1 1_555 1_555
O6 Y3 1_555 1_555
O7 Y3 1_555 1_555
O8 Y2 1_555 1_555
O9 Y2 1_555 1_555
O10 Y2 1_555 1_555
O11 Y2 1_555 1_555
O12 Y2 1_555 1_555
O13 Y2 1_555 1_555
O14 C19 1_555 1_555
O15 Y2 1_555 1_555
O16 Y1 1_555 1_555
O17 Y1 1_555 1_555
O18 Y1 1_555 1_555
O19 C55 1_555 1_555
O20 Y1 1_555 1_555
O21 C64 1_555 1_555
N1 C9 1_555 1_555
N2 C18 1_555 1_555
N3 C27 1_555 1_555
N4 C36 1_555 1_555
N5 C45 1_555 1_555
N6 C54 1_555 1_555
N7 C63 1_555 1_555
N8 C72 1_555 1_555
C1 O4 1_555 1_555
C2 C1 1_555 1_555
H1 C2 1_555 1_555
H2 C2 1_555 1_555
C3 C2 1_555 1_555
C4 C3 1_555 1_555
H3 C4 1_555 1_555
H4 C4 1_555 1_555
C5 C4 1_555 1_555
H5 C5 1_555 1_555
H6 C5 1_555 1_555
C6 C5 1_555 1_555
H7 C6 1_555 1_555
H8 C6 1_555 1_555
C7 C6 1_555 1_555
H9 C7 1_555 1_555
H10 C7 1_555 1_555
C8 C3 1_555 1_555
H11 C8 1_555 1_555
H12 C8 1_555 1_555
C9 C3 1_555 1_555
H13 C9 1_555 1_555
H14 C9 1_555 1_555
C10 O6 1_555 1_555
C11 C10 1_555 1_555
H15 C11 1_555 1_555
H16 C11 1_555 1_555
C12 C11 1_555 1_555
C13 C12 1_555 1_555
H17 C13 1_555 1_555
H18 C13 1_555 1_555
C14 C13 1_555 1_555
H19 C14 1_555 1_555
H20 C14 1_555 1_555
C15 C14 1_555 1_555
H21 C15 1_555 1_555
H22 C15 1_555 1_555
C16 C15 1_555 1_555
H23 C16 1_555 1_555
H24 C16 1_555 1_555
C17 C12 1_555 1_555
H25 C17 1_555 1_555
H26 C17 1_555 1_555
C18 C12 1_555 1_555
H27 C18 1_555 1_555
H28 C18 1_555 1_555
C19 O13 1_555 1_555
C20 C19 1_555 1_555
H29 C20 1_555 1_555
H30 C20 1_555 1_555
C21 C20 1_555 1_555
C22 C21 1_555 1_555
H31 C22 1_555 1_555
H32 C22 1_555 1_555
C23 C22 1_555 1_555
H33 C23 1_555 1_555
H34 C23 1_555 1_555
C24 C23 1_555 1_555
H35 C24 1_555 1_555
H36 C24 1_555 1_555
C25 C24 1_555 1_555
H37 C25 1_555 1_555
H38 C25 1_555 1_555
C26 C21 1_555 1_555
H39 C26 1_555 1_555
H40 C26 1_555 1_555
C27 C21 1_555 1_555
H41 C27 1_555 1_555
H42 C27 1_555 1_555
C28 C29 1_555 1_555
C29 H43 1_555 1_555
H44 C29 1_555 1_555
C30 C29 1_555 1_555
C31 C30 1_555 1_555
H45 C31 1_555 1_555
H46 C31 1_555 1_555
C32 C31 1_555 1_555
H47 C32 1_555 1_555
H48 C32 1_555 1_555
C33 C32 1_555 1_555
H49 C33 1_555 1_555
H50 C33 1_555 1_555
C34 C33 1_555 1_555
H51 C34 1_555 1_555
H52 C34 1_555 1_555
C35 C30 1_555 1_555
H53 C35 1_555 1_555
H54 C35 1_555 1_555
C36 C30 1_555 1_555
H55 C36 1_555 1_555
H56 C36 1_555 1_555
C37 O7 1_555 1_555
C38 C37 1_555 1_555
H57 C38 1_555 1_555
H58 C38 1_555 1_555
C39 C38 1_555 1_555
C40 C39 1_555 1_555
H59 C40 1_555 1_555
H60 C40 1_555 1_555
C41 C40 1_555 1_555
H61 C41 1_555 1_555
H62 C41 1_555 1_555
C42 C41 1_555 1_555
H63 C42 1_555 1_555
H64 C42 1_555 1_555
C43 C42 1_555 1_555
H65 C43 1_555 1_555
H66 C43 1_555 1_555
C44 C39 1_555 1_555
H67 C44 1_555 1_555
H68 C44 1_555 1_555
C45 C39 1_555 1_555
H69 C45 1_555 1_555
H70 C45 1_555 1_555
C46 O15 1_555 1_555
C47 C46 1_555 1_555
H71 C47 1_555 1_555
H72 C47 1_555 1_555
C48 C47 1_555 1_555
C49 C48 1_555 1_555
H73 C49 1_555 1_555
H74 C49 1_555 1_555
C50 C49 1_555 1_555
H75 C50 1_555 1_555
H76 C50 1_555 1_555
C51 C50 1_555 1_555
H77 C51 1_555 1_555
H78 C51 1_555 1_555
C52 C51 1_555 1_555
H79 C52 1_555 1_555
H80 C52 1_555 1_555
C53 C48 1_555 1_555
H81 C53 1_555 1_555
H82 C53 1_555 1_555
C54 C48 1_555 1_555
H83 C54 1_555 1_555
H84 C54 1_555 1_555
C55 O18 1_555 1_555
C56 C55 1_555 1_555
H85 C56 1_555 1_555
H86 C56 1_555 1_555
C57 C56 1_555 1_555
C58 C57 1_555 1_555
H87 C58 1_555 1_555
H88 C58 1_555 1_555
C59 C58 1_555 1_555
H89 C59 1_555 1_555
H90 C59 1_555 1_555
C60 C59 1_555 1_555
H91 C60 1_555 1_555
H92 C60 1_555 1_555
C61 C60 1_555 1_555
H93 C61 1_555 1_555
H94 C61 1_555 1_555
C62 C57 1_555 1_555
H95 C62 1_555 1_555
H96 C62 1_555 1_555
C63 C57 1_555 1_555
H97 C63 1_555 1_555
H98 C63 1_555 1_555
C64 O20 1_555 1_555
C65 C64 1_555 1_555
H99 C65 1_555 1_555
H100 C65 1_555 1_555
C66 C65 1_555 1_555
C67 C66 1_555 1_555
H101 C67 1_555 1_555
H102 C67 1_555 1_555
C68 C67 1_555 1_555
H103 C68 1_555 1_555
H104 C68 1_555 1_555
C69 C68 1_555 1_555
H105 C69 1_555 1_555
H106 C69 1_555 1_555
C70 C69 1_555 1_555
H107 C70 1_555 1_555
H108 C70 1_555 1_555
C71 C66 1_555 1_555
H109 C71 1_555 1_555
H110 C71 1_555 1_555
C72 C66 1_555 1_555
H111 C72 1_555 1_555
H112 C72 1_555 1_555
Y1A O18 1_555 1_555
Y3A O1 1_555 1_555
O1A Y3 1_555 1_555
O4A Y3 1_555 1_555
O5A Y3 1_555 1_555
O18A Y1 1_555 1_555
O19A Y1 1_555 1_555
O21A Y1 1_555 1_555
O4 Y3A 1_555 1_555
O5 Y3A 1_555 1_555
O8 C10 1_555 1_555
O9 C37 1_555 1_555
O16 C46 1_555 1_555
O19 Y1A 1_555 1_555
O21 Y1A 1_555 1_555
C7 C8 1_555 1_555
C16 C17 1_555 1_555
C25 C26 1_555 1_555
C34 C35 1_555 1_555
C43 C44 1_555 1_555
C52 C53 1_555 1_555
C61 C62 1_555 1_555
C70 C71 1_555 1_555
Y1A O18A 1_555 1_555
Y3A O4A 1_555 1_555

#END
