
#######################################################################
#
#                 Cambridge Crystallographic Data Centre
#                                CCDC 
#
#######################################################################
#
# If this CIF has been generated from an entry in the Cambridge 
# Structural Database, then it will include bibliographic, chemical, 
# crystal, experimental, refinement or atomic coordinate data resulting 
# from the CCDC's data processing and validation procedures.
#
#######################################################################

data_VIXFAL
_symmetry_cell_setting           triclinic
_symmetry_space_group_name_H-M   'P -1'
_symmetry_Int_Tables_number      2
_space_group_name_Hall           '-P 1'
loop_
_symmetry_equiv_pos_site_id
_symmetry_equiv_pos_as_xyz
1 x,y,z
2 -x,-y,-z
_cell_length_a                   5.4449(2)
_cell_length_b                   7.9375(3)
_cell_length_c                   16.8558(6)
_cell_angle_alpha                90.626(6)
_cell_angle_beta                 90.884(3)
_cell_angle_gamma                105.495(4)
_cell_volume                     701.842
loop_
_atom_site_label
_atom_site_type_symbol
_atom_site_fract_x
_atom_site_fract_y
_atom_site_fract_z
C1 C -0.0831(5) -0.0674(4) 0.27464(17)
C2 C -0.3138(6) -0.1841(5) 0.2529(2)
H1 H -0.4335 -0.2270 0.2916
C3 C -0.3684(7) -0.2372(5) 0.1753(2)
H2 H -0.5245 -0.3142 0.1613
C4 C -0.1889(7) -0.1749(6) 0.1186(2)
H3 H -0.2225 -0.2135 0.0662
C5 C 0.0388(7) -0.0568(5) 0.1380(2)
H4 H 0.1559 -0.0140 0.0986
C6 C 0.0955(5) -0.0008(4) 0.21608(18)
C7 C 1.0503(7) 0.5043(5) 0.2802(2)
H5 H 1.0659 0.5532 0.3329
H6 H 1.0691 0.5961 0.2423
H7 H 1.1804 0.4449 0.2724
C8 C 0.7954(6) 0.3781(4) 0.26917(19)
C9 C 0.7051(6) 0.2966(4) 0.19138(18)
C10 C 0.8541(7) 0.3399(5) 0.1177(2)
C11 C 0.7159(9) 0.2866(7) 0.0404(2)
H8 H 0.8239 0.3377 -0.0024
H9 H 0.5640 0.3262 0.0389
H10 H 0.6708 0.1615 0.0348
N1 N 0.3270(5) 0.1222(3) 0.23570(15)
H11 H 0.3635 0.1580 0.2839
N2 N 0.4856(5) 0.1808(3) 0.17838(15)
O1 O 0.6512(5) 0.3444(4) 0.32524(14)
O2 O 1.0787(5) 0.4147(5) 0.11922(17)
O3 O 0.1439(8) -0.1260(6) 0.40079(18)
O4 O -0.2544(6) -0.0634(6) 0.41578(17)
O5 O 0.1150(8) 0.1605(4) 0.38452(17)
O6 O 0.1865(15) 0.4182(9) 0.4959(4)
S1 S -0.01722(14) -0.02119(10) 0.37724(4)
K1 K 0.6043(2) 0.23155(14) 0.47802(5)
H12 H 0.1532 0.3395 0.4582
H13 H 0.1593 0.3572 0.5394
O3A O 0.8561(8) 0.1260(6) 0.59921(18)
O4_2 O 0.7456(6) -0.0634(6) 0.41578(17)
O4A O 0.2544(6) 0.0634(6) 0.58422(17)
O5_2 O 1.1150(8) 0.1605(4) 0.38452(17)
O6_2 O 1.1865(15) 0.4182(9) 0.4959(4)
O6A O 0.8135(15) 0.5818(9) 0.5041(4)
K1_2 K -0.3957(2) 0.23155(14) 0.47802(5)
K1A K -0.6043(2) -0.23155(14) 0.52198(5)
K1A_2 K 0.3957(2) -0.23155(14) 0.52198(5)
K1A_3 K 0.3957(2) 0.76845(14) 0.52198(5)
loop_
_geom_bond_atom_site_label_1
_geom_bond_atom_site_label_2
_geom_bond_site_symmetry_1
_geom_bond_site_symmetry_2
C1 C2 1_555 1_555
C2 H1 1_555 1_555
C3 C2 1_555 1_555
H2 C3 1_555 1_555
C4 C3 1_555 1_555
H3 C4 1_555 1_555
C5 C4 1_555 1_555
H4 C5 1_555 1_555
C6 C1 1_555 1_555
C7 H5 1_555 1_555
H6 C7 1_555 1_555
H7 C7 1_555 1_555
C8 C7 1_555 1_555
C9 C8 1_555 1_555
C10 C9 1_555 1_555
C11 C10 1_555 1_555
H8 C11 1_555 1_555
H9 C11 1_555 1_555
H10 C11 1_555 1_555
N1 C6 1_555 1_555
H11 N1 1_555 1_555
N2 C9 1_555 1_555
O1 C8 1_555 1_555
O2 C10 1_555 1_555
O3 S1 1_555 1_555
O4 S1 1_555 1_555
O5 S1 1_555 1_555
O6 K1 1_555 1_555
S1 C1 1_555 1_555
K1 O1 1_555 1_555
H12 O6 1_555 1_555
H13 O6 1_555 1_555
O3A K1 1_555 1_555
O4_2 K1 1_555 1_555
O4A K1 1_555 1_555
O5_2 K1 1_555 1_555
O6_2 K1 1_555 1_555
O6A K1 1_555 1_555
K1_2 O4 1_555 1_555
K1A O4 1_555 1_555
K1A_2 O3 1_555 1_555
K1A_3 O6 1_555 1_555
C5 C6 1_555 1_555
N1 N2 1_555 1_555
O5 K1 1_555 1_555
O5 K1_2 1_555 1_555
O6 K1_2 1_555 1_555
O4_2 K1A_2 1_555 1_555
O4A K1A_2 1_555 1_555
O6A K1A_3 1_555 1_555

#END
