
#######################################################################
#
#                 Cambridge Crystallographic Data Centre
#                                CCDC 
#
#######################################################################
#
# If this CIF has been generated from an entry in the Cambridge 
# Structural Database, then it will include bibliographic, chemical, 
# crystal, experimental, refinement or atomic coordinate data resulting 
# from the CCDC's data processing and validation procedures.
#
#######################################################################

data_VIXGAM01
_symmetry_cell_setting           tetragonal
_symmetry_space_group_name_H-M   'I 4/m'
_symmetry_Int_Tables_number      87
_space_group_name_Hall           '-I 4'
loop_
_symmetry_equiv_pos_site_id
_symmetry_equiv_pos_as_xyz
1 x,y,z
2 1/2+x,1/2+y,1/2+z
3 -y,x,z
4 1/2-y,1/2+x,1/2+z
5 -x,-y,z
6 1/2-x,1/2-y,1/2+z
7 y,-x,z
8 1/2+y,1/2-x,1/2+z
9 -x,-y,-z
10 1/2-x,1/2-y,1/2-z
11 y,-x,-z
12 1/2+y,1/2-x,1/2-z
13 x,y,-z
14 1/2+x,1/2+y,1/2-z
15 -y,x,-z
16 1/2-y,1/2+x,1/2-z
_cell_length_a                   12.7982(8)
_cell_length_b                   12.7982(8)
_cell_length_c                   7.5231(11)
_cell_angle_alpha                90
_cell_angle_beta                 90
_cell_angle_gamma                90
_cell_volume                     1232.24
loop_
_atom_site_label
_atom_site_type_symbol
_atom_site_fract_x
_atom_site_fract_y
_atom_site_fract_z
Zr1 Zr 0.80431(7) 0.69942(7) 1.0000
O1 O 0.6404(4) 0.7529(5) 0.8215(7)
O2 O 0.4678(5) 0.7679(7) 0.8230(9)
O3 O 0.9905(9) 0.6151(10) 1.0000
O4 O 0.8438(11) 0.8960(9) 1.0000
C1 C 0.5545(7) 0.7599(6) 0.8964(11)
O1L O 0.6404(4) 0.7529(5) 1.1785(7)
C1L C 0.5545(7) 0.7599(6) 1.1036(11)
O2L O 0.4678(5) 0.7679(7) 1.1770(9)
Zr1I Zr 0.69569(7) 0.80058(7) 0.5000
Zr1I_2 Zr 0.69569(7) 0.80058(7) 1.5000
Zr1B Zr 0.30058(7) 0.80431(7) 1.0000
O1I O 0.8596(4) 0.7471(5) 0.6785(7)
O1E O 0.8596(4) 0.7471(5) 1.3215(7)
O2J O 0.7679(7) 0.5322(5) 1.1770(9)
O2F O 0.7679(7) 0.5322(5) 0.8230(9)
O5 O 0.5000 0.5000 0.799(10)
loop_
_geom_bond_atom_site_label_1
_geom_bond_atom_site_label_2
_geom_bond_site_symmetry_1
_geom_bond_site_symmetry_2
Zr1 O1 1_555 1_555
O1 C1 1_555 1_555
O2 C1 1_555 1_555
O3 Zr1 1_555 1_555
O4 Zr1 1_555 1_555
C1 C1L 1_555 1_555
O1L Zr1 1_555 1_555
C1L O1L 1_555 1_555
O2L C1L 1_555 1_555
Zr1I O1 1_555 1_555
Zr1I_2 O1L 1_555 1_555
Zr1B O2 1_555 1_555
O1I Zr1 1_555 1_555
O1E Zr1 1_555 1_555
O2J Zr1 1_555 1_555
O2F Zr1 1_555 1_555
O2L Zr1B 1_555 1_555
Zr1I O1I 1_555 1_555
Zr1I_2 O1E 1_555 1_555

#END
