
#######################################################################
#
#                 Cambridge Crystallographic Data Centre
#                                CCDC 
#
#######################################################################
#
# If this CIF has been generated from an entry in the Cambridge 
# Structural Database, then it will include bibliographic, chemical, 
# crystal, experimental, refinement or atomic coordinate data resulting 
# from the CCDC's data processing and validation procedures.
#
#######################################################################

data_VIXGAM
_symmetry_cell_setting           tetragonal
_symmetry_space_group_name_H-M   'I 4/m'
_symmetry_Int_Tables_number      87
_space_group_name_Hall           '-I 4'
loop_
_symmetry_equiv_pos_site_id
_symmetry_equiv_pos_as_xyz
1 x,y,z
2 1/2+x,1/2+y,1/2+z
3 -y,x,z
4 1/2-y,1/2+x,1/2+z
5 -x,-y,z
6 1/2-x,1/2-y,1/2+z
7 y,-x,z
8 1/2+y,1/2-x,1/2+z
9 -x,-y,-z
10 1/2-x,1/2-y,1/2-z
11 y,-x,-z
12 1/2+y,1/2-x,1/2-z
13 x,y,-z
14 1/2+x,1/2+y,1/2-z
15 -y,x,-z
16 1/2-y,1/2+x,1/2-z
_cell_length_a                   12.799(5)
_cell_length_b                   12.799(5)
_cell_length_c                   7.527(5)
_cell_angle_alpha                90
_cell_angle_beta                 90
_cell_angle_gamma                90
_cell_volume                     1233.03
loop_
_atom_site_label
_atom_site_type_symbol
_atom_site_fract_x
_atom_site_fract_y
_atom_site_fract_z
Zr1 Zr 0.304405(15) 0.199390(15) 0.0000
C1 C 0.05436(12) 0.25944(14) 0.10324(18)
O1 O 0.14072(10) 0.25288(13) 0.17929(17)
O2 O -0.03242(12) 0.2679(2) 0.1779(2)
O3 O 0.3447(4) 0.3961(2) 0.0000
O4 O 0.4907(3) 0.1166(4) 0.0000
C1L C 0.05436(12) 0.25944(14) -0.10324(18)
O1L O 0.14072(10) 0.25288(13) -0.17929(17)
O2L O -0.03242(12) 0.2679(2) -0.1779(2)
Zr1I Zr 0.195595(15) 0.300610(15) -0.5000
Zr1I_2 Zr 0.195595(15) 0.300610(15) 0.5000
Zr1B Zr -0.199390(15) 0.304405(15) 0.0000
O1I O 0.35928(10) 0.24712(13) 0.32071(17)
O1E O 0.35928(10) 0.24712(13) -0.32071(17)
O2J O 0.2679(2) 0.03242(12) -0.1779(2)
O2F O 0.2679(2) 0.03242(12) 0.1779(2)
O5 O 0.5000 0.5000 0.286(3)
loop_
_geom_bond_atom_site_label_1
_geom_bond_atom_site_label_2
_geom_bond_site_symmetry_1
_geom_bond_site_symmetry_2
Zr1 O1 1_555 1_555
C1 O1 1_555 1_555
O1 Zr1I_2 1_555 1_555
O2 C1 1_555 1_555
O3 Zr1 1_555 1_555
O4 Zr1 1_555 1_555
C1L C1 1_555 1_555
O1L Zr1 1_555 1_555
O2L C1L 1_555 1_555
Zr1I O1L 1_555 1_555
Zr1I_2 O1I 1_555 1_555
Zr1B O2 1_555 1_555
O1I Zr1 1_555 1_555
O1E Zr1 1_555 1_555
O2J Zr1 1_555 1_555
O2F Zr1 1_555 1_555
C1L O1L 1_555 1_555
O2L Zr1B 1_555 1_555
Zr1I O1E 1_555 1_555

#END
