
#######################################################################
#
#                 Cambridge Crystallographic Data Centre
#                                CCDC 
#
#######################################################################
#
# If this CIF has been generated from an entry in the Cambridge 
# Structural Database, then it will include bibliographic, chemical, 
# crystal, experimental, refinement or atomic coordinate data resulting 
# from the CCDC's data processing and validation procedures.
#
#######################################################################

data_VIXGEQ
_symmetry_cell_setting           tetragonal
_symmetry_space_group_name_H-M   'I 4/m'
_symmetry_Int_Tables_number      87
_space_group_name_Hall           '-I 4'
loop_
_symmetry_equiv_pos_site_id
_symmetry_equiv_pos_as_xyz
1 x,y,z
2 1/2+x,1/2+y,1/2+z
3 -y,x,z
4 1/2-y,1/2+x,1/2+z
5 -x,-y,z
6 1/2-x,1/2-y,1/2+z
7 y,-x,z
8 1/2+y,1/2-x,1/2+z
9 -x,-y,-z
10 1/2-x,1/2-y,1/2-z
11 y,-x,-z
12 1/2+y,1/2-x,1/2-z
13 x,y,-z
14 1/2+x,1/2+y,1/2-z
15 -y,x,-z
16 1/2-y,1/2+x,1/2-z
_cell_length_a                   12.7611(8)
_cell_length_b                   12.7611(8)
_cell_length_c                   7.5400(6)
_cell_angle_alpha                90
_cell_angle_beta                 90
_cell_angle_gamma                90
_cell_volume                     1227.86
loop_
_atom_site_label
_atom_site_type_symbol
_atom_site_fract_x
_atom_site_fract_y
_atom_site_fract_z
C1 C 0.7574(4) 0.5546(4) 0.8975(6)
O1 O 0.7534(3) 0.6402(3) 0.8214(4)
O2 O 0.7636(4) 0.4674(3) 0.8230(5)
O3 O 0.6031(4) 0.6470(7) 0.5000
O4 O 0.8834(6) 0.5086(5) 0.5000
Zr1 Zr 0.79976(5) 0.69522(5) 0.5000
C1L C 0.7574(4) 0.5546(4) 1.1025(6)
O1L O 0.7534(3) 0.6402(3) 1.1786(4)
O2L O 0.7636(4) 0.4674(3) 1.1770(5)
O1I O 0.7466(3) 0.8598(3) 0.6786(4)
O1L_2 O 0.7534(3) 0.6402(3) 0.1786(4)
O1E O 0.7466(3) 0.8598(3) 0.3214(4)
O2K O 0.9674(3) 0.7364(4) 0.6770(5)
O2G O 0.9674(3) 0.7364(4) 0.3230(5)
Zr1_2 Zr 0.79976(5) 0.69522(5) 1.5000
Zr1I Zr 0.70024(5) 0.80478(5) 1.0000
Zr1C Zr 0.80478(5) 0.29976(5) 1.0000
loop_
_geom_bond_atom_site_label_1
_geom_bond_atom_site_label_2
_geom_bond_site_symmetry_1
_geom_bond_site_symmetry_2
C1 O1 1_555 1_555
O1 Zr1 1_555 1_555
O2 C1 1_555 1_555
O3 Zr1 1_555 1_555
O4 Zr1 1_555 1_555
Zr1 O1I 1_555 1_555
C1L C1 1_555 1_555
O1L C1L 1_555 1_555
O2L C1L 1_555 1_555
O1I Zr1I 1_555 1_555
O1L_2 Zr1 1_555 1_555
O1E Zr1 1_555 1_555
O2K Zr1 1_555 1_555
O2G Zr1 1_555 1_555
Zr1_2 O1L 1_555 1_555
Zr1I O1 1_555 1_555
Zr1C O2 1_555 1_555
O1L Zr1I 1_555 1_555
O2L Zr1C 1_555 1_555

#END
