
#######################################################################
#
#                 Cambridge Crystallographic Data Centre
#                                CCDC 
#
#######################################################################
#
# If this CIF has been generated from an entry in the Cambridge 
# Structural Database, then it will include bibliographic, chemical, 
# crystal, experimental, refinement or atomic coordinate data resulting 
# from the CCDC's data processing and validation procedures.
#
#######################################################################

data_VIXJAP
_symmetry_cell_setting           orthorhombic
_symmetry_space_group_name_H-M   'P b c a'
_symmetry_Int_Tables_number      61
_space_group_name_Hall           '-P 2ac 2ab'
loop_
_symmetry_equiv_pos_site_id
_symmetry_equiv_pos_as_xyz
1 x,y,z
2 1/2-x,-y,1/2+z
3 -x,1/2+y,1/2-z
4 1/2+x,1/2-y,-z
5 -x,-y,-z
6 1/2+x,y,1/2-z
7 x,1/2-y,1/2+z
8 1/2-x,1/2+y,z
_cell_length_a                   11.681(2)
_cell_length_b                   16.994(3)
_cell_length_c                   24.444(5)
_cell_angle_alpha                90
_cell_angle_beta                 90
_cell_angle_gamma                90
_cell_volume                     4852.3
loop_
_atom_site_label
_atom_site_type_symbol
_atom_site_fract_x
_atom_site_fract_y
_atom_site_fract_z
Mn1 Mn 0.86211(8) 0.20391(5) 0.54875(4)
Cu1 Cu 0.90068(8) 0.12435(6) 0.76148(4)
C1 C 0.5010(7) 0.3092(5) 0.7711(4)
H1 H 0.4347 0.3341 0.7831
C2 C 0.5243(7) 0.3048(6) 0.7162(3)
H2 H 0.4765 0.3290 0.6909
C3 C 0.6201(7) 0.2637(5) 0.6992(3)
H3 H 0.6343 0.2596 0.6618
C4 C 0.6973(6) 0.2275(4) 0.7357(3)
C5 C 0.6749(6) 0.2373(4) 0.7927(3)
C6 C 0.5747(7) 0.2774(4) 0.8079(3)
H4 H 0.5581 0.2825 0.8449
C7 C 0.7312(9) 0.2459(6) 0.8935(3)
H5 H 0.6877 0.2936 0.8902
H6 H 0.8033 0.2572 0.9107
H7 H 0.6894 0.2088 0.9154
C8 C 0.7519(7) 0.2116(5) 0.8372(3)
C9 C 0.9122(8) 0.1468(6) 0.8761(3)
H8 H 0.8654 0.1349 0.9078
H9 H 0.9580 0.1928 0.8847
C10 C 0.9898(8) 0.0787(6) 0.8646(3)
H10 H 1.0609 0.0861 0.8844
H11 H 0.9543 0.0309 0.8781
C11 C 1.1688(8) -0.0164(6) 0.8346(4)
H12 H 1.2202 -0.0531 0.8177
H13 H 1.1184 -0.0439 0.8590
H14 H 1.2121 0.0219 0.8549
C12 C 1.0996(7) 0.0245(5) 0.7913(3)
C13 C 1.1296(7) 0.0122(4) 0.7331(3)
C14 C 1.2298(7) -0.0321(5) 0.7231(4)
H15 H 1.2729 -0.0493 0.7528
C15 C 1.2661(9) -0.0509(6) 0.6709(4)
H16 H 1.3335 -0.0790 0.6657
C16 C 1.2022(8) -0.0277(6) 0.6271(4)
H17 H 1.2237 -0.0425 0.5919
C17 C 1.1062(7) 0.0173(5) 0.6349(3)
H18 H 1.0647 0.0337 0.6044
C18 C 1.0680(7) 0.0396(4) 0.6872(3)
C19 C 0.8228(6) 0.1812(4) 0.6645(3)
C20 C 0.9231(6) 0.1266(4) 0.6513(3)
C21 C 0.8887(6) 0.4866(4) 0.5159(3)
H19 H 0.8133 0.4770 0.5263
C22 C 0.9642(6) 0.4243(4) 0.5129(3)
C23 C 0.9240(6) 0.3436(4) 0.5309(3)
C24 C 0.9222(6) 0.5632(4) 0.5039(3)
C25 C 0.8402(6) 0.6301(5) 0.5167(3)
C26 C 1.0463(8) 0.1084(5) 0.4825(4)
H20 H 0.9916 0.0659 0.4866
H21 H 1.1048 0.1022 0.5103
C27 C 1.1003(8) 0.1040(5) 0.4271(3)
H22 H 1.0430 0.1125 0.3996
H23 H 1.1340 0.0529 0.4222
H24 H 1.1585 0.1436 0.4241
N1 N 0.8376(6) 0.1646(4) 0.8295(2)
N2 N 1.0157(6) 0.0690(4) 0.8061(2)
N3 N 0.9694(5) 0.0886(3) 0.6932(2)
N4 N 0.7911(5) 0.1828(3) 0.7170(2)
O1 O 0.9481(4) 0.1235(3) 0.60166(19)
O2 O 0.7832(4) 0.2196(3) 0.62540(19)
O3 O 0.9719(4) 0.3104(3) 0.5707(2)
O4 O 0.8388(4) 0.3128(3) 0.50760(19)
O5 O 0.8796(5) 0.6946(3) 0.5307(2)
O6 O 0.7346(4) 0.6142(3) 0.5163(2)
O7 O 0.9895(5) 0.1821(3) 0.4900(2)
H25 H 1.053(15) 0.241(11) 0.483(7)
C21D C 1.1113(6) 0.5134(4) 0.4841(3)
H19D H 1.1867 0.5230 0.4737
C22D C 1.0358(6) 0.5757(4) 0.4871(3)
C23D C 1.0760(6) 0.6564(4) 0.4691(3)
O3D O 1.0281(4) 0.6896(3) 0.4293(2)
O4D O 1.1612(4) 0.6872(3) 0.49240(19)
C24D C 1.0778(6) 0.4368(4) 0.4961(3)
C25D C 1.1598(6) 0.3699(5) 0.4833(3)
O5D O 1.1204(5) 0.3054(3) 0.4693(2)
O6D O 1.2654(4) 0.3858(3) 0.4837(2)
Mn1D Mn 1.13789(8) 0.79609(5) 0.45125(4)
Cu1D Cu 1.09932(8) 0.87565(6) 0.23852(4)
C1D C 1.4990(7) 0.6908(5) 0.2289(4)
H1D H 1.5653 0.6659 0.2169
C2D C 1.4757(7) 0.6952(6) 0.2838(3)
H2D H 1.5235 0.6710 0.3091
C3D C 1.3799(7) 0.7363(5) 0.3008(3)
H3D H 1.3657 0.7404 0.3382
C4D C 1.3027(6) 0.7725(4) 0.2643(3)
C5D C 1.3251(6) 0.7627(4) 0.2073(3)
C6D C 1.4253(7) 0.7226(4) 0.1921(3)
H4D H 1.4419 0.7175 0.1551
C7D C 1.2688(9) 0.7541(6) 0.1065(3)
H5D H 1.3123 0.7064 0.1098
H6D H 1.1967 0.7428 0.0893
H7D H 1.3106 0.7912 0.0846
C8D C 1.2481(7) 0.7884(5) 0.1628(3)
C9D C 1.0878(8) 0.8532(6) 0.1239(3)
H8D H 1.1346 0.8651 0.0922
H9D H 1.0420 0.8072 0.1153
C10D C 1.0102(8) 0.9213(6) 0.1354(3)
H10D H 0.9391 0.9139 0.1156
H11D H 1.0457 0.9691 0.1219
C11D C 0.8312(8) 1.0164(6) 0.1654(4)
H12D H 0.7798 1.0531 0.1823
H13D H 0.8816 1.0439 0.1410
H14D H 0.7879 0.9781 0.1451
C12D C 0.9004(7) 0.9755(5) 0.2087(3)
C13D C 0.8704(7) 0.9878(4) 0.2669(3)
C14D C 0.7702(7) 1.0321(5) 0.2769(4)
H15D H 0.7271 1.0493 0.2472
C15D C 0.7339(9) 1.0509(6) 0.3291(4)
H16D H 0.6665 1.0790 0.3343
C16D C 0.7978(8) 1.0277(6) 0.3729(4)
H17D H 0.7763 1.0425 0.4081
C17D C 0.8938(7) 0.9827(5) 0.3651(3)
H18D H 0.9353 0.9663 0.3956
C18D C 0.9320(7) 0.9604(4) 0.3128(3)
C19D C 1.1772(6) 0.8188(4) 0.3355(3)
C20D C 1.0769(6) 0.8734(4) 0.3487(3)
C26D C 0.9537(8) 0.8916(5) 0.5175(4)
H20D H 1.0084 0.9341 0.5134
H21D H 0.8952 0.8978 0.4897
C27D C 0.8997(8) 0.8960(5) 0.5729(3)
H22D H 0.9570 0.8875 0.6004
H23D H 0.8660 0.9471 0.5778
H24D H 0.8415 0.8564 0.5759
N1D N 1.1624(6) 0.8354(4) 0.1705(2)
N2D N 0.9843(6) 0.9310(4) 0.1939(2)
N3D N 1.0306(5) 0.9114(3) 0.3068(2)
N4D N 1.2089(5) 0.8172(3) 0.2830(2)
O1D O 1.0519(4) 0.8765(3) 0.39834(19)
O2D O 1.2168(4) 0.7804(3) 0.37460(19)
O7D O 1.0105(5) 0.8179(3) 0.5100(2)
H25D H 0.947(15) 0.759(11) 0.517(7)
Mn1C Mn 1.36211(8) 0.29609(5) 0.45125(4)
Mn1G Mn 0.63789(8) 0.70391(5) 0.54875(4)
O6C O 1.2346(4) 0.8858(3) 0.4837(2)
O6G O 0.7654(4) 0.1142(3) 0.5163(2)
loop_
_geom_bond_atom_site_label_1
_geom_bond_atom_site_label_2
_geom_bond_site_symmetry_1
_geom_bond_site_symmetry_2
Mn1 O1 1_555 1_555
Cu1 N1 1_555 1_555
C1 H1 1_555 1_555
C2 C1 1_555 1_555
H2 C2 1_555 1_555
C3 C2 1_555 1_555
H3 C3 1_555 1_555
C4 C3 1_555 1_555
C5 C4 1_555 1_555
C6 C1 1_555 1_555
H4 C6 1_555 1_555
C7 H5 1_555 1_555
H6 C7 1_555 1_555
H7 C7 1_555 1_555
C8 C5 1_555 1_555
C9 H8 1_555 1_555
H9 C9 1_555 1_555
C10 C9 1_555 1_555
H10 C10 1_555 1_555
H11 C10 1_555 1_555
C11 H12 1_555 1_555
H13 C11 1_555 1_555
H14 C11 1_555 1_555
C12 C11 1_555 1_555
C13 C12 1_555 1_555
C14 C13 1_555 1_555
H15 C14 1_555 1_555
C15 C14 1_555 1_555
H16 C15 1_555 1_555
C16 C15 1_555 1_555
H17 C16 1_555 1_555
C17 C16 1_555 1_555
H18 C17 1_555 1_555
C18 C13 1_555 1_555
C19 C20 1_555 1_555
C20 N3 1_555 1_555
C21 H19 1_555 1_555
C22 C21 1_555 1_555
C23 C22 1_555 1_555
C24 C21 1_555 1_555
C25 C24 1_555 1_555
C26 H20 1_555 1_555
H21 C26 1_555 1_555
C27 C26 1_555 1_555
H22 C27 1_555 1_555
H23 C27 1_555 1_555
H24 C27 1_555 1_555
N1 C8 1_555 1_555
N2 Cu1 1_555 1_555
N3 Cu1 1_555 1_555
N4 Cu1 1_555 1_555
O1 C20 1_555 1_555
O2 Mn1 1_555 1_555
O3 Mn1 1_555 1_555
O4 Mn1 1_555 1_555
O5 C25 1_555 1_555
O6 C25 1_555 1_555
O7 Mn1 1_555 1_555
H25 O7 1_555 1_555
C21D H19D 1_555 1_555
C22D C24 1_555 1_555
C23D C22D 1_555 1_555
O3D C23D 1_555 1_555
O4D C23D 1_555 1_555
C24D C22 1_555 1_555
C25D C24D 1_555 1_555
O5D C25D 1_555 1_555
O6D C25D 1_555 1_555
Mn1D O3D 1_555 1_555
Cu1D N1D 1_555 1_555
C1D H1D 1_555 1_555
C2D C1D 1_555 1_555
H2D C2D 1_555 1_555
C3D C2D 1_555 1_555
H3D C3D 1_555 1_555
C4D C3D 1_555 1_555
C5D C4D 1_555 1_555
C6D C1D 1_555 1_555
H4D C6D 1_555 1_555
C7D H5D 1_555 1_555
H6D C7D 1_555 1_555
H7D C7D 1_555 1_555
C8D C5D 1_555 1_555
C9D H8D 1_555 1_555
H9D C9D 1_555 1_555
C10D C9D 1_555 1_555
H10D C10D 1_555 1_555
H11D C10D 1_555 1_555
C11D H12D 1_555 1_555
H13D C11D 1_555 1_555
H14D C11D 1_555 1_555
C12D C11D 1_555 1_555
C13D C12D 1_555 1_555
C14D C13D 1_555 1_555
H15D C14D 1_555 1_555
C15D C14D 1_555 1_555
H16D C15D 1_555 1_555
C16D C15D 1_555 1_555
H17D C16D 1_555 1_555
C17D C16D 1_555 1_555
H18D C17D 1_555 1_555
C18D C13D 1_555 1_555
C19D C20D 1_555 1_555
C20D N3D 1_555 1_555
C26D H20D 1_555 1_555
H21D C26D 1_555 1_555
C27D C26D 1_555 1_555
H22D C27D 1_555 1_555
H23D C27D 1_555 1_555
H24D C27D 1_555 1_555
N1D C8D 1_555 1_555
N2D Cu1D 1_555 1_555
N3D Cu1D 1_555 1_555
N4D Cu1D 1_555 1_555
O1D Mn1D 1_555 1_555
O2D Mn1D 1_555 1_555
O7D Mn1D 1_555 1_555
H25D O7D 1_555 1_555
Mn1C O6D 1_555 1_555
Mn1G O6 1_555 1_555
O6C Mn1D 1_555 1_555
O6G Mn1 1_555 1_555
C4 N4 1_555 1_555
C5 C6 1_555 1_555
C7 C8 1_555 1_555
C9 N1 1_555 1_555
C10 N2 1_555 1_555
C12 N2 1_555 1_555
C17 C18 1_555 1_555
C18 N3 1_555 1_555
C19 N4 1_555 1_555
C19 O2 1_555 1_555
C23 O3 1_555 1_555
C23 O4 1_555 1_555
C26 O7 1_555 1_555
C21D C22D 1_555 1_555
C21D C24D 1_555 1_555
O4D Mn1D 1_555 1_555
C4D N4D 1_555 1_555
C5D C6D 1_555 1_555
C7D C8D 1_555 1_555
C9D N1D 1_555 1_555
C10D N2D 1_555 1_555
C12D N2D 1_555 1_555
C17D C18D 1_555 1_555
C18D N3D 1_555 1_555
C19D N4D 1_555 1_555
C19D O2D 1_555 1_555
C20D O1D 1_555 1_555
C26D O7D 1_555 1_555

#END
