
#######################################################################
#
#                 Cambridge Crystallographic Data Centre
#                                CCDC 
#
#######################################################################
#
# If this CIF has been generated from an entry in the Cambridge 
# Structural Database, then it will include bibliographic, chemical, 
# crystal, experimental, refinement or atomic coordinate data resulting 
# from the CCDC's data processing and validation procedures.
#
#######################################################################

data_VIXKOE
_symmetry_cell_setting           monoclinic
_symmetry_space_group_name_H-M   'C 2/c'
_symmetry_Int_Tables_number      15
_space_group_name_Hall           '-C 2yn'
loop_
_symmetry_equiv_pos_site_id
_symmetry_equiv_pos_as_xyz
1 x,y,z
2 -x,y,1/2-z
3 1/2+x,1/2+y,z
4 1/2-x,1/2+y,1/2-z
5 -x,-y,-z
6 x,-y,1/2+z
7 1/2-x,1/2-y,-z
8 1/2+x,1/2-y,1/2+z
_cell_length_a                   32.613(7)
_cell_length_b                   7.3748(15)
_cell_length_c                   11.306(2)
_cell_angle_alpha                90
_cell_angle_beta                 105.71(3)
_cell_angle_gamma                90
_cell_volume                     2617.68
loop_
_atom_site_label
_atom_site_type_symbol
_atom_site_fract_x
_atom_site_fract_y
_atom_site_fract_z
Pb1 Pb 0.239922(18) 0.22850(6) 0.30471(4)
C1 C 0.3185(5) 0.3691(17) 0.4536(11)
C2 C 0.3638(5) 0.3987(15) 0.5195(11)
C3 C 0.3801(5) 0.3310(19) 0.6390(12)
H1 H 0.3615 0.2788 0.6786
C4 C 0.4210(5) 0.339(2) 0.6969(12)
H2 H 0.4306 0.2936 0.7762
C5 C 0.4497(5) 0.4153(17) 0.6405(12)
C6 C 0.4354(5) 0.4829(16) 0.5238(11)
H3 H 0.4546 0.5311 0.4849
C7 C 0.3919(5) 0.4800(17) 0.4630(12)
H4 H 0.3820 0.5319 0.3855
C8 C 0.3242(4) 0.1237(15) 0.1912(12)
C9 C 0.3681(5) 0.1014(16) 0.2638(11)
C10 C 0.3787(5) 0.0126(17) 0.3767(13)
H5 H 0.3575 -0.0348 0.4083
C11 C 0.4207(6) -0.0044(18) 0.4409(14)
H6 H 0.4279 -0.0652 0.5158
C12 C 0.4525(5) 0.0682(19) 0.3952(13)
C13 C 0.4416(5) 0.1583(19) 0.2841(12)
H7 H 0.4628 0.2076 0.2533
C14 C 0.4004(5) 0.1759(18) 0.2192(12)
H8 H 0.3935 0.2378 0.1448
N1 N 0.4943(4) 0.4191(14) 0.6935(10)
N2 N 0.4962(5) 0.0512(18) 0.4556(11)
O1 O 0.2957(4) 0.2722(11) 0.4983(10)
O2 O 0.3044(3) 0.4408(12) 0.3493(8)
O3 O 0.2947(3) 0.0576(11) 0.2332(8)
O4 O 0.3154(4) 0.2044(13) 0.0879(9)
O5 O 0.2478(3) 0.4040(11) 0.1024(7)
H9 H 0.2442 0.4165 0.0255
H10 H 0.2451 0.2901 0.0916
C1A C 0.6815(5) 0.3691(17) 1.0464(11)
C2A C 0.6362(5) 0.3987(15) 0.9805(11)
C3A C 0.6199(5) 0.3310(19) 0.8610(12)
H1A H 0.6385 0.2788 0.8214
C4A C 0.5790(5) 0.339(2) 0.8031(12)
H2A H 0.5694 0.2936 0.7238
C5A C 0.5503(5) 0.4153(17) 0.8595(12)
C6A C 0.5646(5) 0.4829(16) 0.9762(11)
H3A H 0.5454 0.5311 1.0151
C7A C 0.6081(5) 0.4800(17) 1.0370(12)
H4A H 0.6180 0.5319 1.1145
N1A N 0.5057(4) 0.4191(14) 0.8065(10)
O1A O 0.7043(4) 0.2722(11) 1.0017(10)
O2A O 0.6956(3) 0.4408(12) 1.1507(8)
C8D C 0.6758(4) -0.1237(15) 0.8088(12)
C9D C 0.6319(5) -0.1014(16) 0.7362(11)
C10D C 0.6213(5) -0.0126(17) 0.6233(13)
H5D H 0.6425 0.0348 0.5917
C11D C 0.5793(6) 0.0044(18) 0.5591(14)
H6D H 0.5721 0.0652 0.4842
C12D C 0.5475(5) -0.0682(19) 0.6048(13)
C13D C 0.5584(5) -0.1583(19) 0.7159(12)
H7D H 0.5372 -0.2076 0.7467
C14D C 0.5996(5) -0.1759(18) 0.7808(12)
H8D H 0.6065 -0.2378 0.8552
N2D N 0.5038(5) -0.0512(18) 0.5444(11)
O3D O 0.7053(3) -0.0576(11) 0.7668(8)
O4D O 0.6846(4) -0.2044(13) 0.9121(9)
Pb1A Pb 0.760078(18) 0.22850(6) 1.19529(4)
O5A O 0.7522(3) 0.4040(11) 1.3976(7)
H9A H 0.7558 0.4165 1.4745
H10A H 0.7549 0.2901 1.4084
Pb1B Pb 0.739922(18) 0.72850(6) 1.30471(4)
Pb1C Pb 0.260078(18) -0.27150(6) 0.19529(4)
Pb1C_2 Pb 0.260078(18) 0.72850(6) 0.19529(4)
Pb1D Pb 0.760078(18) -0.22850(6) 0.69529(4)
Pb1F Pb 0.260078(18) 0.27150(6) 0.69529(4)
Pb1G Pb 0.739922(18) 0.27150(6) 0.80471(4)
O1F O 0.2043(4) 0.2278(11) 0.5017(10)
O1G O 0.7957(4) 0.2278(11) 0.9983(10)
O2B O 0.8044(3) -0.0592(12) 1.3493(8)
O2C O 0.1956(3) -0.0592(12) 0.1507(8)
O3A O 0.7053(3) 0.0576(11) 1.2668(8)
O3B O 0.7947(3) 0.5576(11) 1.2332(8)
O3C O 0.2053(3) 0.5576(11) 0.2668(8)
O5B O 0.7478(3) -0.0960(11) 1.1024(7)
O5C O 0.2522(3) -0.0960(11) 0.3976(7)
loop_
_geom_bond_atom_site_label_1
_geom_bond_atom_site_label_2
_geom_bond_site_symmetry_1
_geom_bond_site_symmetry_2
Pb1 O1 1_555 1_555
C1 C2 1_555 1_555
C2 C3 1_555 1_555
C3 H1 1_555 1_555
C4 C3 1_555 1_555
H2 C4 1_555 1_555
C5 C4 1_555 1_555
C6 C5 1_555 1_555
H3 C6 1_555 1_555
C7 C2 1_555 1_555
H4 C7 1_555 1_555
C8 C9 1_555 1_555
C9 C10 1_555 1_555
C10 H5 1_555 1_555
C11 C10 1_555 1_555
H6 C11 1_555 1_555
C12 C11 1_555 1_555
C13 C12 1_555 1_555
H7 C13 1_555 1_555
C14 C9 1_555 1_555
H8 C14 1_555 1_555
N1 C5 1_555 1_555
N2 C12 1_555 1_555
O1 C1 1_555 1_555
O2 Pb1 1_555 1_555
O3 Pb1 1_555 1_555
O4 C8 1_555 1_555
O5 Pb1 1_555 1_555
H9 O5 1_555 1_555
H10 O5 1_555 1_555
C1A C2A 1_555 1_555
C2A C3A 1_555 1_555
C3A H1A 1_555 1_555
C4A C3A 1_555 1_555
H2A C4A 1_555 1_555
C5A C4A 1_555 1_555
C6A C5A 1_555 1_555
H3A C6A 1_555 1_555
C7A C2A 1_555 1_555
H4A C7A 1_555 1_555
N1A N1 1_555 1_555
O1A C1A 1_555 1_555
O2A C1A 1_555 1_555
C8D C9D 1_555 1_555
C9D C10D 1_555 1_555
C10D H5D 1_555 1_555
C11D C10D 1_555 1_555
H6D C11D 1_555 1_555
C12D C11D 1_555 1_555
C13D C12D 1_555 1_555
H7D C13D 1_555 1_555
C14D C9D 1_555 1_555
H8D C14D 1_555 1_555
N2D N2 1_555 1_555
O3D C8D 1_555 1_555
O4D C8D 1_555 1_555
Pb1A O1A 1_555 1_555
O5A Pb1A 1_555 1_555
H9A O5A 1_555 1_555
H10A O5A 1_555 1_555
Pb1B O2A 1_555 1_555
Pb1C O3 1_555 1_555
Pb1C_2 O2 1_555 1_555
Pb1D O3D 1_555 1_555
Pb1F O1 1_555 1_555
Pb1G O1A 1_555 1_555
O1F Pb1 1_555 1_555
O1G Pb1A 1_555 1_555
O2B Pb1A 1_555 1_555
O2C Pb1 1_555 1_555
O3A Pb1A 1_555 1_555
O3B Pb1A 1_555 1_555
O3C Pb1 1_555 1_555
O5B Pb1A 1_555 1_555
O5C Pb1 1_555 1_555
C1 O2 1_555 1_555
C6 C7 1_555 1_555
C8 O3 1_555 1_555
C13 C14 1_555 1_555
O5 Pb1C_2 1_555 1_555
C5A N1A 1_555 1_555
C6A C7A 1_555 1_555
O2A Pb1A 1_555 1_555
C12D N2D 1_555 1_555
C13D C14D 1_555 1_555
O3D Pb1G 1_555 1_555
O5A Pb1B 1_555 1_555
Pb1B O3B 1_555 1_555
Pb1C O2C 1_555 1_555
Pb1C O5C 1_555 1_555
Pb1C_2 O3C 1_555 1_555
Pb1F O1F 1_555 1_555
Pb1G O1G 1_555 1_555

#END
