
#######################################################################
#
#                 Cambridge Crystallographic Data Centre
#                                CCDC 
#
#######################################################################
#
# If this CIF has been generated from an entry in the Cambridge 
# Structural Database, then it will include bibliographic, chemical, 
# crystal, experimental, refinement or atomic coordinate data resulting 
# from the CCDC's data processing and validation procedures.
#
#######################################################################

data_VIXKIY
_symmetry_cell_setting           monoclinic
_symmetry_space_group_name_H-M   'P 21/c'
_symmetry_Int_Tables_number      14
_space_group_name_Hall           '-P 2ybc'
loop_
_symmetry_equiv_pos_site_id
_symmetry_equiv_pos_as_xyz
1 x,y,z
2 -x,1/2+y,1/2-z
3 -x,-y,-z
4 x,1/2-y,1/2+z
_cell_length_a                   13.359(3)
_cell_length_b                   7.6450(15)
_cell_length_c                   17.209(3)
_cell_angle_alpha                90
_cell_angle_beta                 94.33(3)
_cell_angle_gamma                90
_cell_volume                     1752.53
loop_
_atom_site_label
_atom_site_type_symbol
_atom_site_fract_x
_atom_site_fract_y
_atom_site_fract_z
Pb1 Pb 1.032140(9) 0.190078(15) 0.690629(7)
C1 C 0.8730(2) 0.4383(4) 0.6434(2)
C2 C 0.7857(2) 0.5265(4) 0.60105(19)
C3 C 0.6969(3) 0.5520(5) 0.6360(2)
H1 H 0.6928 0.5202 0.6878
C4 C 0.6150(3) 0.6235(5) 0.5952(2)
H2 H 0.5554 0.6376 0.6191
C5 C 0.6204(3) 0.6749(4) 0.5183(2)
C6 C 0.7091(3) 0.6536(5) 0.4822(2)
H3 H 0.7132 0.6880 0.4306
C7 C 0.7914(3) 0.5806(5) 0.5239(2)
H4 H 0.8513 0.5673 0.5003
C8 C 0.4484(3) 0.8700(5) 0.3763(2)
C9 C 0.3586(3) 0.8749(6) 0.4109(2)
H5 H 0.3547 0.8318 0.4611
C10 C 0.2752(3) 0.9436(5) 0.3708(2)
H6 H 0.2149 0.9476 0.3944
C11 C 0.2793(2) 1.0071(5) 0.29588(19)
C12 C 0.3698(3) 1.0012(6) 0.2612(2)
H7 H 0.3738 1.0435 0.2109
C13 C 0.4535(3) 0.9326(7) 0.3015(2)
H8 H 0.5141 0.9284 0.2782
C14 C 0.1882(3) 1.0863(5) 0.2554(2)
C15 C 1.0591(4) -0.2523(7) 0.5892(3)
H9 H 1.0531 -0.2288 0.6434
H10 H 1.0873 -0.3667 0.5834
H11 H 0.9940 -0.2472 0.5616
C16 C 1.2459(4) -0.1200(9) 0.6161(4)
H12 H 1.2967 -0.0385 0.6032
H13 H 1.2710 -0.2371 0.6124
H14 H 1.2283 -0.0985 0.6683
N1 N 0.5311(2) 0.7480(5) 0.48107(19)
N2 N 0.5395(2) 0.7991(4) 0.4131(2)
O1 O 0.87383(19) 0.4140(4) 0.71540(14)
O2 O 0.94418(18) 0.3864(3) 0.60363(15)
O3 O 0.10727(18) 1.0853(4) 0.28876(16)
O4 O 0.1926(2) 1.1566(4) 0.18988(16)
O5 O 1.0931(2) 0.0802(3) 0.56962(15)
S1 S 1.13842(9) -0.09411(14) 0.55064(6)
Pb1A Pb 0.967860(9) 0.690078(15) 0.809371(7)
Pb1B Pb -0.032140(9) 0.809922(15) 0.309371(7)
Pb1C Pb 0.032140(9) 1.309922(15) 0.190629(7)
O1A O 1.12617(19) -0.0860(4) 0.78460(14)
O3B O 0.89273(18) -0.0853(4) 0.71124(16)
O3C O 1.10727(18) 0.4147(4) 0.78876(16)
O4C O 1.1926(2) 0.3434(4) 0.68988(16)
loop_
_geom_bond_atom_site_label_1
_geom_bond_atom_site_label_2
_geom_bond_site_symmetry_1
_geom_bond_site_symmetry_2
Pb1 O1 1_555 1_555
C1 C2 1_555 1_555
C2 C3 1_555 1_555
C3 H1 1_555 1_555
C4 C3 1_555 1_555
H2 C4 1_555 1_555
C5 C4 1_555 1_555
C6 C5 1_555 1_555
H3 C6 1_555 1_555
C7 C2 1_555 1_555
H4 C7 1_555 1_555
C8 C9 1_555 1_555
C9 H5 1_555 1_555
C10 C9 1_555 1_555
H6 C10 1_555 1_555
C11 C10 1_555 1_555
C12 C11 1_555 1_555
H7 C12 1_555 1_555
C13 C8 1_555 1_555
H8 C13 1_555 1_555
C14 C11 1_555 1_555
C15 H9 1_555 1_555
H10 C15 1_555 1_555
H11 C15 1_555 1_555
C16 H12 1_555 1_555
H13 C16 1_555 1_555
H14 C16 1_555 1_555
N1 C5 1_555 1_555
N2 C8 1_555 1_555
O1 C1 1_555 1_555
O2 Pb1 1_555 1_555
O3 C14 1_555 1_555
O4 C14 1_555 1_555
O5 Pb1 1_555 1_555
S1 C15 1_555 1_555
Pb1A O1 1_555 1_555
Pb1B O3 1_555 1_555
Pb1C O3 1_555 1_555
O1A Pb1 1_555 1_555
O3B Pb1 1_555 1_555
O3C Pb1 1_555 1_555
O4C Pb1 1_555 1_555
C1 O2 1_555 1_555
C6 C7 1_555 1_555
C12 C13 1_555 1_555
C16 S1 1_555 1_555
N1 N2 1_555 1_555
O4 Pb1C 1_555 1_555
O5 S1 1_555 1_555
Pb1A O3C 1_555 1_555

#END
