
#######################################################################
#
#                 Cambridge Crystallographic Data Centre
#                                CCDC 
#
#######################################################################
#
# If this CIF has been generated from an entry in the Cambridge 
# Structural Database, then it will include bibliographic, chemical, 
# crystal, experimental, refinement or atomic coordinate data resulting 
# from the CCDC's data processing and validation procedures.
#
#######################################################################

data_VIXKUJ
_symmetry_cell_setting           cubic
_symmetry_space_group_name_H-M   'P n -3 n'
_symmetry_Int_Tables_number      222
_space_group_name_Hall           '-P 4a 2bc 3'
loop_
_symmetry_equiv_pos_site_id
_symmetry_equiv_pos_as_xyz
1 x,y,z
2 1/2-y,x,z
3 y,x,1/2-z
4 y,1/2-x,z
5 y,z,x
6 1/2-z,y,x
7 z,1/2-y,x
8 z,y,1/2-x
9 z,x,y
10 1/2-x,z,y
11 x,1/2-z,y
12 x,z,1/2-y
13 x,1/2-y,1/2-z
14 1/2-x,1/2-y,z
15 1/2-x,y,1/2-z
16 1/2-y,1/2-x,1/2-z
17 1/2-y,1/2-z,x
18 y,1/2-z,1/2-x
19 1/2-y,z,1/2-x
20 1/2-z,1/2-y,1/2-x
21 1/2-z,x,1/2-y
22 1/2-z,1/2-x,y
23 z,1/2-x,1/2-y
24 1/2-x,1/2-z,1/2-y
25 -x,-y,-z
26 1/2+y,-x,-z
27 -y,-x,1/2+z
28 -y,1/2+x,-z
29 -y,-z,-x
30 1/2+z,-y,-x
31 -z,1/2+y,-x
32 -z,-y,1/2+x
33 -z,-x,-y
34 1/2+x,-z,-y
35 -x,1/2+z,-y
36 -x,-z,1/2+y
37 -x,1/2+y,1/2+z
38 1/2+x,1/2+y,-z
39 1/2+x,-y,1/2+z
40 1/2+y,1/2+x,1/2+z
41 1/2+y,1/2+z,-x
42 -y,1/2+z,1/2+x
43 1/2+y,-z,1/2+x
44 1/2+z,1/2+y,1/2+x
45 1/2+z,-x,1/2+y
46 1/2+z,1/2+x,-y
47 -z,1/2+x,1/2+y
48 1/2+x,1/2+z,1/2+y
_cell_length_a                   16.4943(14)
_cell_length_b                   16.4943(14)
_cell_length_c                   16.4943(14)
_cell_angle_alpha                90
_cell_angle_beta                 90
_cell_angle_gamma                90
_cell_volume                     4487.47
loop_
_atom_site_label
_atom_site_type_symbol
_atom_site_fract_x
_atom_site_fract_y
_atom_site_fract_z
Cu1 Cu 0.7500 0.2500 0.2500
V1 V 0.51442(5) 0.2500 0.2500
V2 V 0.2500 0.2500 0.2500
F1 F 0.49362(9) 0.36289(8) 0.24372(8)
F2 F 0.3678(2) 0.2500 0.2500
O1 O 0.61408(19) 0.2500 0.2500
N1 N 0.7500 0.33729(11) 0.16271(11)
C1 C 0.69232(13) 0.39545(13) 0.04315(13)
H1 H 0.6533 0.3931 0.0025
C2 C 0.69331(13) 0.33759(14) 0.10439(12)
H2 H 0.6534 0.2978 0.1050
C3 C 0.7500 0.45678(13) 0.04322(13)
H3 H 0.7500 0.4966 0.0034
Cu1A Cu 0.2500 0.7500 0.2500
Cu1A_2 Cu 0.2500 -0.2500 0.2500
Cu1D Cu 0.2500 0.2500 0.7500
Cu1D_2 Cu 0.2500 0.2500 -0.2500
Cu1_2 Cu -0.2500 0.2500 0.2500
V1A V 0.2500 0.51442(5) 0.2500
V1C V 0.2500 -0.01442(5) 0.2500
V1D V 0.2500 0.2500 0.51442(5)
V1G V 0.2500 0.2500 -0.01442(5)
V1I V -0.01442(5) 0.2500 0.2500
F1J F 0.49362(9) 0.25628(8) 0.36289(8)
F1K F 0.49362(9) 0.24372(8) 0.13711(8)
F1L F 0.49362(9) 0.13711(8) 0.25628(8)
F1A F 0.13711(8) 0.49362(9) 0.24372(8)
F1H F 0.24372(8) 0.49362(9) 0.36289(8)
F1T F 0.25628(8) 0.49362(9) 0.13711(8)
F1B F 0.36289(8) 0.49362(9) 0.25628(8)
F1C F 0.36289(8) 0.00638(9) 0.24372(8)
F1U F 0.25628(8) 0.00638(9) 0.36289(8)
F1V F 0.24372(8) 0.00638(9) 0.13711(8)
F1O F 0.13711(8) 0.00638(9) 0.25628(8)
F1D F 0.36289(8) 0.24372(8) 0.49362(9)
F1E F 0.25628(8) 0.36289(8) 0.49362(9)
F1F F 0.24372(8) 0.13711(8) 0.49362(9)
F1P F 0.13711(8) 0.25628(8) 0.49362(9)
F1G F 0.24372(8) 0.36289(8) 0.00638(9)
F1Q F 0.36289(8) 0.25628(8) 0.00638(9)
F1R F 0.13711(8) 0.24372(8) 0.00638(9)
F1S F 0.25628(8) 0.13711(8) 0.00638(9)
F1I F 0.00638(9) 0.24372(8) 0.36289(8)
F1N F 0.00638(9) 0.36289(8) 0.25628(8)
F1M F 0.00638(9) 0.13711(8) 0.24372(8)
F1W F 0.00638(9) 0.25628(8) 0.13711(8)
F2A F 0.2500 0.3678(2) 0.2500
F2C F 0.2500 0.1322(2) 0.2500
F2D F 0.2500 0.2500 0.3678(2)
F2G F 0.2500 0.2500 0.1322(2)
F2I F 0.1322(2) 0.2500 0.2500
O1A O 0.2500 0.61408(19) 0.2500
O1C O 0.2500 -0.11408(19) 0.2500
O1D O 0.2500 0.2500 0.61408(19)
O1G O 0.2500 0.2500 -0.11408(19)
O1I O -0.11408(19) 0.2500 0.2500
O1I_2 O 0.88592(19) 0.2500 0.2500
O1C_2 O 0.2500 0.88592(19) 0.2500
O1A_2 O 0.2500 -0.38592(19) 0.2500
N1I N 0.7500 0.16271(11) 0.33729(11)
N1J N 0.7500 0.33729(11) 0.33729(11)
N1K N 0.7500 0.16271(11) 0.16271(11)
N1A N 0.16271(11) 0.7500 0.16271(11)
N1B N 0.33729(11) 0.7500 0.33729(11)
N1H N 0.16271(11) 0.7500 0.33729(11)
N1C N 0.33729(11) 0.7500 0.16271(11)
N1C_2 N 0.33729(11) -0.2500 0.16271(11)
N1H_2 N 0.16271(11) -0.2500 0.33729(11)
N1B_2 N 0.33729(11) -0.2500 0.33729(11)
N1A_2 N 0.16271(11) -0.2500 0.16271(11)
C1W C 0.80768(13) 0.45685(13) 0.10455(13)
C1I C 0.80768(13) 0.04315(13) 0.39545(13)
C1L C 0.69232(13) 0.10455(13) 0.45685(13)
C1J C 0.69232(13) 0.45685(13) 0.39545(13)
C1N C 0.80768(13) 0.39545(13) 0.45685(13)
C1K C 0.69232(13) 0.04315(13) 0.10455(13)
C1M C 0.80768(13) 0.10455(13) 0.04315(13)
C1A C 0.10455(13) 0.69232(13) 0.04315(13)
C1V C 0.04315(13) 0.80768(13) 0.10455(13)
C1U C 0.45685(13) 0.80768(13) 0.39545(13)
C1B C 0.39545(13) 0.69232(13) 0.45685(13)
C1H C 0.04315(13) 0.69232(13) 0.39545(13)
C1O C 0.10455(13) 0.80768(13) 0.45685(13)
C1T C 0.45685(13) 0.69232(13) 0.10455(13)
C1C C 0.39545(13) 0.80768(13) 0.04315(13)
C1C_2 C 0.39545(13) -0.19232(13) 0.04315(13)
C1T_2 C 0.45685(13) -0.30768(13) 0.10455(13)
C1H_2 C 0.04315(13) -0.30768(13) 0.39545(13)
C1O_2 C 0.10455(13) -0.19232(13) 0.45685(13)
C1U_2 C 0.45685(13) -0.19232(13) 0.39545(13)
C1B_2 C 0.39545(13) -0.30768(13) 0.45685(13)
C1V_2 C 0.04315(13) -0.19232(13) 0.10455(13)
C1A_2 C 0.10455(13) -0.30768(13) 0.04315(13)
H1W H 0.8467 0.4975 0.1069
H1I H 0.8467 0.0025 0.3931
H1L H 0.6533 0.1069 0.4975
H1J H 0.6533 0.4975 0.3931
H1N H 0.8467 0.3931 0.4975
H1K H 0.6533 0.0025 0.1069
H1M H 0.8467 0.1069 0.0025
H1A H 0.1069 0.6533 0.0025
H1V H 0.0025 0.8467 0.1069
H1U H 0.4975 0.8467 0.3931
H1B H 0.3931 0.6533 0.4975
H1H H 0.0025 0.6533 0.3931
H1O H 0.1069 0.8467 0.4975
H1T H 0.4975 0.6533 0.1069
H1C H 0.3931 0.8467 0.0025
H1C_2 H 0.3931 -0.1533 0.0025
H1T_2 H 0.4975 -0.3467 0.1069
H1H_2 H 0.0025 -0.3467 0.3931
H1O_2 H 0.1069 -0.1533 0.4975
H1U_2 H 0.4975 -0.1533 0.3931
H1B_2 H 0.3931 -0.3467 0.4975
H1V_2 H 0.0025 -0.1533 0.1069
H1A_2 H 0.1069 -0.3467 0.0025
C2W C 0.80669(13) 0.39561(12) 0.16241(14)
C2I C 0.80669(13) 0.10439(12) 0.33759(14)
C2L C 0.69331(13) 0.16241(14) 0.39561(12)
C2J C 0.69331(13) 0.39561(12) 0.33759(14)
C2N C 0.80669(13) 0.33759(14) 0.39561(12)
C2K C 0.69331(13) 0.10439(12) 0.16241(14)
C2M C 0.80669(13) 0.16241(14) 0.10439(12)
C2A C 0.16241(14) 0.69331(13) 0.10439(12)
C2V C 0.10439(12) 0.80669(13) 0.16241(14)
C2U C 0.39561(12) 0.80669(13) 0.33759(14)
C2B C 0.33759(14) 0.69331(13) 0.39561(12)
C2H C 0.10439(12) 0.69331(13) 0.33759(14)
C2O C 0.16241(14) 0.80669(13) 0.39561(12)
C2T C 0.39561(12) 0.69331(13) 0.16241(14)
C2C C 0.33759(14) 0.80669(13) 0.10439(12)
C2C_2 C 0.33759(14) -0.19331(13) 0.10439(12)
C2T_2 C 0.39561(12) -0.30669(13) 0.16241(14)
C2H_2 C 0.10439(12) -0.30669(13) 0.33759(14)
C2O_2 C 0.16241(14) -0.19331(13) 0.39561(12)
C2U_2 C 0.39561(12) -0.19331(13) 0.33759(14)
C2B_2 C 0.33759(14) -0.30669(13) 0.39561(12)
C2V_2 C 0.10439(12) -0.19331(13) 0.16241(14)
C2A_2 C 0.16241(14) -0.30669(13) 0.10439(12)
H2W H 0.8466 0.3950 0.2022
H2I H 0.8466 0.1050 0.2978
H2L H 0.6534 0.2022 0.3950
H2J H 0.6534 0.3950 0.2978
H2N H 0.8466 0.2978 0.3950
H2K H 0.6534 0.1050 0.2022
H2M H 0.8466 0.2022 0.1050
H2A H 0.2022 0.6534 0.1050
H2V H 0.1050 0.8466 0.2022
H2U H 0.3950 0.8466 0.2978
H2B H 0.2978 0.6534 0.3950
H2H H 0.1050 0.6534 0.2978
H2O H 0.2022 0.8466 0.3950
H2T H 0.3950 0.6534 0.2022
H2C H 0.2978 0.8466 0.1050
H2C_2 H 0.2978 -0.1534 0.1050
H2T_2 H 0.3950 -0.3466 0.2022
H2H_2 H 0.1050 -0.3466 0.2978
H2O_2 H 0.2022 -0.1534 0.3950
H2U_2 H 0.3950 -0.1534 0.2978
H2B_2 H 0.2978 -0.3466 0.3950
H2V_2 H 0.1050 -0.1534 0.2022
H2A_2 H 0.2022 -0.3466 0.1050
C3I C 0.7500 0.04322(13) 0.45678(13)
C3J C 0.7500 0.45678(13) 0.45678(13)
C3K C 0.7500 0.04322(13) 0.04322(13)
C3A C 0.04322(13) 0.7500 0.04322(13)
C3B C 0.45678(13) 0.7500 0.45678(13)
C3H C 0.04322(13) 0.7500 0.45678(13)
C3C C 0.45678(13) 0.7500 0.04322(13)
C3C_2 C 0.45678(13) -0.2500 0.04322(13)
C3H_2 C 0.04322(13) -0.2500 0.45678(13)
C3B_2 C 0.45678(13) -0.2500 0.45678(13)
C3A_2 C 0.04322(13) -0.2500 0.04322(13)
H3I H 0.7500 0.0034 0.4966
H3J H 0.7500 0.4966 0.4966
H3K H 0.7500 0.0034 0.0034
H3A H 0.0034 0.7500 0.0034
H3B H 0.4966 0.7500 0.4966
H3H H 0.0034 0.7500 0.4966
H3C H 0.4966 0.7500 0.0034
H3C_2 H 0.4966 -0.2500 0.0034
H3H_2 H 0.0034 -0.2500 0.4966
H3B_2 H 0.4966 -0.2500 0.4966
H3A_2 H 0.0034 -0.2500 0.0034
N2 N 0.38118(13) 0.38118(13) 0.11882(13)
C4 C 0.43250(16) 0.43250(16) 0.06750(16)
H4 H 0.4004(18) 0.3705(19) 0.1633(17)
H5 H 0.407(2) 0.437(2) 0.0135(19)
H4Q H 0.3705(19) 0.3367(17) 0.0996(18)
H4T H 0.3367(17) 0.4004(18) 0.1295(19)
H5Q H 0.437(2) 0.4865(19) 0.093(2)
H5T H 0.4865(19) 0.407(2) 0.063(2)
loop_
_geom_bond_atom_site_label_1
_geom_bond_atom_site_label_2
_geom_bond_site_symmetry_1
_geom_bond_site_symmetry_2
Cu1 O1 1_555 1_555
V1 F1 1_555 1_555
V2 F2 1_555 1_555
F2 V1 1_555 1_555
O1 V1 1_555 1_555
N1 Cu1 1_555 1_555
N2 C4 1_555 1_555
C1 H1 1_555 1_555
C2 N1 1_555 1_555
H2 C2 1_555 1_555
C3 C1 1_555 1_555
H3 C3 1_555 1_555
C4 H5 1_555 1_555
H4 N2 1_555 1_555
Cu1A O1A 1_555 1_555
Cu1A_2 O1C 1_555 1_555
Cu1D O1D 1_555 1_555
Cu1D_2 O1G 1_555 1_555
Cu1_2 O1I 1_555 1_555
V1A F1A 1_555 1_555
V1C F1C 1_555 1_555
V1D F1D 1_555 1_555
V1G F1G 1_555 1_555
V1I F1I 1_555 1_555
F1J V1 1_555 1_555
F1K V1 1_555 1_555
F1L V1 1_555 1_555
F1H V1A 1_555 1_555
F1T V1A 1_555 1_555
F1B V1A 1_555 1_555
F1U V1C 1_555 1_555
F1V V1C 1_555 1_555
F1O V1C 1_555 1_555
F1E V1D 1_555 1_555
F1F V1D 1_555 1_555
F1P V1D 1_555 1_555
F1Q V1G 1_555 1_555
F1R V1G 1_555 1_555
F1S V1G 1_555 1_555
F1N V1I 1_555 1_555
F1M V1I 1_555 1_555
F1W V1I 1_555 1_555
F2A V2 1_555 1_555
F2C V2 1_555 1_555
F2D V2 1_555 1_555
F2G V2 1_555 1_555
F2I V2 1_555 1_555
O1A V1A 1_555 1_555
O1C V1C 1_555 1_555
O1D V1D 1_555 1_555
O1G V1G 1_555 1_555
O1I V1I 1_555 1_555
O1I_2 Cu1 1_555 1_555
O1C_2 Cu1A 1_555 1_555
O1A_2 Cu1A_2 1_555 1_555
N1I Cu1 1_555 1_555
N1J Cu1 1_555 1_555
N1K Cu1 1_555 1_555
N1A Cu1A 1_555 1_555
N1B Cu1A 1_555 1_555
N1H Cu1A 1_555 1_555
N1C Cu1A 1_555 1_555
N1C_2 Cu1A_2 1_555 1_555
N1H_2 Cu1A_2 1_555 1_555
N1B_2 Cu1A_2 1_555 1_555
N1A_2 Cu1A_2 1_555 1_555
C1W C3 1_555 1_555
C1I H1I 1_555 1_555
C1L H1L 1_555 1_555
C1J H1J 1_555 1_555
C1N H1N 1_555 1_555
C1K H1K 1_555 1_555
C1M H1M 1_555 1_555
C1A H1A 1_555 1_555
C1V H1V 1_555 1_555
C1U H1U 1_555 1_555
C1B H1B 1_555 1_555
C1H H1H 1_555 1_555
C1O H1O 1_555 1_555
C1T H1T 1_555 1_555
C1C H1C 1_555 1_555
C1C_2 H1C_2 1_555 1_555
C1T_2 H1T_2 1_555 1_555
C1H_2 H1H_2 1_555 1_555
C1O_2 H1O_2 1_555 1_555
C1U_2 H1U_2 1_555 1_555
C1B_2 H1B_2 1_555 1_555
C1V_2 H1V_2 1_555 1_555
C1A_2 H1A_2 1_555 1_555
H1W C1W 1_555 1_555
C2W N1 1_555 1_555
C2I N1I 1_555 1_555
C2L N1I 1_555 1_555
C2J N1J 1_555 1_555
C2N N1J 1_555 1_555
C2K N1K 1_555 1_555
C2M N1K 1_555 1_555
C2A N1A 1_555 1_555
C2V N1A 1_555 1_555
C2U N1B 1_555 1_555
C2B N1B 1_555 1_555
C2H N1H 1_555 1_555
C2O N1H 1_555 1_555
C2T N1C 1_555 1_555
C2C N1C 1_555 1_555
C2C_2 N1C_2 1_555 1_555
C2T_2 N1C_2 1_555 1_555
C2H_2 N1H_2 1_555 1_555
C2O_2 N1H_2 1_555 1_555
C2U_2 N1B_2 1_555 1_555
C2B_2 N1B_2 1_555 1_555
C2V_2 N1A_2 1_555 1_555
C2A_2 N1A_2 1_555 1_555
H2W C2W 1_555 1_555
H2I C2I 1_555 1_555
H2L C2L 1_555 1_555
H2J C2J 1_555 1_555
H2N C2N 1_555 1_555
H2K C2K 1_555 1_555
H2M C2M 1_555 1_555
H2A C2A 1_555 1_555
H2V C2V 1_555 1_555
H2U C2U 1_555 1_555
H2B C2B 1_555 1_555
H2H C2H 1_555 1_555
H2O C2O 1_555 1_555
H2T C2T 1_555 1_555
H2C C2C 1_555 1_555
H2C_2 C2C_2 1_555 1_555
H2T_2 C2T_2 1_555 1_555
H2H_2 C2H_2 1_555 1_555
H2O_2 C2O_2 1_555 1_555
H2U_2 C2U_2 1_555 1_555
H2B_2 C2B_2 1_555 1_555
H2V_2 C2V_2 1_555 1_555
H2A_2 C2A_2 1_555 1_555
C3I C1I 1_555 1_555
C3J C1J 1_555 1_555
C3K C1K 1_555 1_555
C3A C1A 1_555 1_555
C3B C1U 1_555 1_555
C3H C1H 1_555 1_555
C3C C1T 1_555 1_555
C3C_2 C1C_2 1_555 1_555
C3H_2 C1H_2 1_555 1_555
C3B_2 C1U_2 1_555 1_555
C3A_2 C1V_2 1_555 1_555
H3I C3I 1_555 1_555
H3J C3J 1_555 1_555
H3K C3K 1_555 1_555
H3A C3A 1_555 1_555
H3B C3B 1_555 1_555
H3H C3H 1_555 1_555
H3C C3C 1_555 1_555
H3C_2 C3C_2 1_555 1_555
H3H_2 C3H_2 1_555 1_555
H3B_2 C3B_2 1_555 1_555
H3A_2 C3A_2 1_555 1_555
H4Q N2 1_555 1_555
H4T N2 1_555 1_555
H5Q C4 1_555 1_555
H5T C4 1_555 1_555
C1 C2 1_555 1_555
V1A F2A 1_555 1_555
V1C F2C 1_555 1_555
V1D F2D 1_555 1_555
V1G F2G 1_555 1_555
V1I F2I 1_555 1_555
C1W C2W 1_555 1_555
C1I C2I 1_555 1_555
C1L C2L 1_555 1_555
C1L C3I 1_555 1_555
C1J C2J 1_555 1_555
C1N C2N 1_555 1_555
C1N C3J 1_555 1_555
C1K C2K 1_555 1_555
C1M C2M 1_555 1_555
C1M C3K 1_555 1_555
C1A C2A 1_555 1_555
C1V C2V 1_555 1_555
C1V C3A 1_555 1_555
C1U C2U 1_555 1_555
C1B C2B 1_555 1_555
C1B C3B 1_555 1_555
C1H C2H 1_555 1_555
C1O C2O 1_555 1_555
C1O C3H 1_555 1_555
C1T C2T 1_555 1_555
C1C C2C 1_555 1_555
C1C C3C 1_555 1_555
C1C_2 C2C_2 1_555 1_555
C1T_2 C2T_2 1_555 1_555
C1T_2 C3C_2 1_555 1_555
C1H_2 C2H_2 1_555 1_555
C1O_2 C2O_2 1_555 1_555
C1O_2 C3H_2 1_555 1_555
C1U_2 C2U_2 1_555 1_555
C1B_2 C2B_2 1_555 1_555
C1B_2 C3B_2 1_555 1_555
C1V_2 C2V_2 1_555 1_555
C1A_2 C2A_2 1_555 1_555
C1A_2 C3A_2 1_555 1_555

#END
