
#######################################################################
#
#                 Cambridge Crystallographic Data Centre
#                                CCDC 
#
#######################################################################
#
# If this CIF has been generated from an entry in the Cambridge 
# Structural Database, then it will include bibliographic, chemical, 
# crystal, experimental, refinement or atomic coordinate data resulting 
# from the CCDC's data processing and validation procedures.
#
#######################################################################

data_VIXMIA
_symmetry_cell_setting           monoclinic
_symmetry_space_group_name_H-M   'P 21/m'
_symmetry_Int_Tables_number      11
_space_group_name_Hall           '-P 2yb'
loop_
_symmetry_equiv_pos_site_id
_symmetry_equiv_pos_as_xyz
1 x,y,z
2 -x,1/2+y,-z
3 -x,-y,-z
4 x,1/2-y,z
_cell_length_a                   7.5683(8)
_cell_length_b                   15.1093(8)
_cell_length_c                   9.1624(6)
_cell_angle_alpha                90
_cell_angle_beta                 104.419(9)
_cell_angle_gamma                90
_cell_volume                     1014.73
loop_
_atom_site_label
_atom_site_type_symbol
_atom_site_fract_x
_atom_site_fract_y
_atom_site_fract_z
La1 La 0.39381(4) 0.2500 0.86849(3)
O1 O 0.3162(3) 0.64221(15) 1.0999(3)
O2 O 0.4398(3) 0.64975(18) 0.9065(3)
O3 O 0.3007(3) 0.40573(15) 0.7773(3)
O4 O 0.1681(4) 0.32109(16) 1.0200(3)
O5 O 0.0151(6) 0.2500 1.1543(5)
O6 O 0.0732(5) 0.2500 0.6959(5)
O7 O 0.4633(5) 0.2500 0.6152(4)
N1 N 0.1848(4) 0.54548(17) 0.7259(3)
N2 N 0.1482(4) 0.61787(19) 0.4904(4)
N3 N 0.2565(4) 0.5261(2) 0.3121(3)
H1 H 0.2381 0.5618 0.2339
N4 N 0.3379(4) 0.40491(19) 0.4524(4)
N5 N 0.1154(6) 0.2500 1.0666(5)
C1 C 0.3222(5) 0.6210(2) 0.9682(4)
C2 C 0.1762(5) 0.5573(2) 0.8829(4)
H2 H 0.1922 0.4992 0.9343
H3 H 0.0544 0.5804 0.8848
C3 C 0.1358(5) 0.6146(2) 0.6291(4)
H4 H 0.0879 0.6655 0.6666
C4 C 0.2567(4) 0.4661(2) 0.6839(4)
C5 C 0.2702(5) 0.4683(2) 0.5336(4)
C6 C 0.2192(5) 0.5429(2) 0.4467(4)
C7 C 0.3279(5) 0.4430(2) 0.3217(4)
H5 H 0.3666 0.4154 0.2418
H6 H 0.4220 0.2973 0.5395
H7 H 0.0034 0.1987 0.6540
O4C O 0.1681(4) 0.17891(16) 1.0200(3)
H7C H 0.0034 0.3013 0.6540
H6C H 0.4220 0.2027 0.5395
O1B O 0.6838(3) 0.35779(15) 0.9001(3)
O2B O 0.5602(3) 0.35025(18) 1.0935(3)
O3B O 0.6993(3) 0.59427(15) 1.2227(3)
N1B N 0.8152(4) 0.45452(17) 1.2741(3)
N2B N 0.8518(4) 0.38213(19) 1.5096(4)
N3B N 0.7435(4) 0.4739(2) 1.6879(3)
H1B H 0.7619 0.4382 1.7661
N4B N 0.6621(4) 0.59509(19) 1.5476(4)
C1B C 0.6778(5) 0.3790(2) 1.0318(4)
C2B C 0.8238(5) 0.4427(2) 1.1171(4)
H2B H 0.8078 0.5008 1.0657
H3B H 0.9456 0.4196 1.1152
C3B C 0.8642(5) 0.3854(2) 1.3709(4)
H4B H 0.9121 0.3345 1.3334
C4B C 0.7433(4) 0.5339(2) 1.3161(4)
C5B C 0.7298(5) 0.5317(2) 1.4664(4)
C6B C 0.7808(5) 0.4571(2) 1.5533(4)
C7B C 0.6721(5) 0.5570(2) 1.6783(4)
H5B H 0.6334 0.5846 1.7582
La1A La 0.60619(4) 0.7500 1.13151(3)
O1A O 0.6838(3) 0.14221(15) 0.9001(3)
O2A O 0.5602(3) 0.14975(18) 1.0935(3)
O3C O 0.3007(3) 0.09427(15) 0.7773(3)
loop_
_geom_bond_atom_site_label_1
_geom_bond_atom_site_label_2
_geom_bond_site_symmetry_1
_geom_bond_site_symmetry_2
La1 O3 1_555 1_555
O1 C1 1_555 1_555
O2 C1 1_555 1_555
O3 C4 1_555 1_555
O4 La1 1_555 1_555
O5 N5 1_555 1_555
O6 La1 1_555 1_555
O7 La1 1_555 1_555
N1 C2 1_555 1_555
N2 C3 1_555 1_555
N3 H1 1_555 1_555
N4 C5 1_555 1_555
N5 O4 1_555 1_555
C1 C2 1_555 1_555
C2 H2 1_555 1_555
H3 C2 1_555 1_555
C3 N1 1_555 1_555
H4 C3 1_555 1_555
C4 N1 1_555 1_555
C5 C4 1_555 1_555
C6 N2 1_555 1_555
C7 N3 1_555 1_555
H5 C7 1_555 1_555
H6 O7 1_555 1_555
H7 O6 1_555 1_555
O4C La1 1_555 1_555
H7C O6 1_555 1_555
H6C O7 1_555 1_555
O1B La1 1_555 1_555
O2B La1 1_555 1_555
O3B C4B 1_555 1_555
N1B C2B 1_555 1_555
N2B C3B 1_555 1_555
N3B H1B 1_555 1_555
N4B C5B 1_555 1_555
C1B O1B 1_555 1_555
C2B C1B 1_555 1_555
H2B C2B 1_555 1_555
H3B C2B 1_555 1_555
C3B N1B 1_555 1_555
H4B C3B 1_555 1_555
C4B N1B 1_555 1_555
C5B C4B 1_555 1_555
C6B N2B 1_555 1_555
C7B N3B 1_555 1_555
H5B C7B 1_555 1_555
La1A O1 1_555 1_555
O1A La1 1_555 1_555
O2A La1 1_555 1_555
O3C La1 1_555 1_555
O2 La1A 1_555 1_555
N3 C6 1_555 1_555
N4 C7 1_555 1_555
N5 O4C 1_555 1_555
C5 C6 1_555 1_555
O2B C1B 1_555 1_555
O3B La1A 1_555 1_555
N3B C6B 1_555 1_555
N4B C7B 1_555 1_555
C5B C6B 1_555 1_555

#END
