
#######################################################################
#
#                 Cambridge Crystallographic Data Centre
#                                CCDC 
#
#######################################################################
#
# If this CIF has been generated from an entry in the Cambridge 
# Structural Database, then it will include bibliographic, chemical, 
# crystal, experimental, refinement or atomic coordinate data resulting 
# from the CCDC's data processing and validation procedures.
#
#######################################################################

data_VIXMOG
_symmetry_cell_setting           monoclinic
_symmetry_space_group_name_H-M   'P 21/m'
_symmetry_Int_Tables_number      11
_space_group_name_Hall           '-P 2yb'
loop_
_symmetry_equiv_pos_site_id
_symmetry_equiv_pos_as_xyz
1 x,y,z
2 -x,1/2+y,-z
3 -x,-y,-z
4 x,1/2-y,z
_cell_length_a                   7.5429(5)
_cell_length_b                   15.1009(8)
_cell_length_c                   9.1529(5)
_cell_angle_alpha                90
_cell_angle_beta                 104.527(6)
_cell_angle_gamma                90
_cell_volume                     1009.23
loop_
_atom_site_label
_atom_site_type_symbol
_atom_site_fract_x
_atom_site_fract_y
_atom_site_fract_z
Ce1 Ce 0.60635(4) 0.2500 0.63161(3)
O1 O 0.6992(4) 0.09490(17) 0.7222(3)
O2 O 0.5586(4) -0.1509(2) 0.5918(3)
O3 O 0.6826(3) -0.14285(17) 0.3986(3)
O4 O 0.8302(4) 0.32122(18) 0.4806(3)
O5 O 0.9832(6) 0.2500 0.3467(5)
O6 O 0.9238(6) 0.2500 0.8033(5)
O7 O 0.5386(6) 0.2500 0.8823(4)
N1 N 0.6615(4) 0.0956(2) 1.0467(3)
N2 N 0.7429(4) -0.0265(2) 1.1878(3)
H1 H 0.7601 -0.0624 1.2658
N3 N 0.8528(5) -0.1186(2) 1.0100(3)
N4 N 0.8140(4) -0.04560(19) 0.7730(3)
N5 N 0.8837(6) 0.2500 0.4346(5)
C1 C 0.6728(6) 0.0570(3) 1.1780(4)
H2 H 0.6355 0.0850 1.2583
C2 C 0.7813(5) -0.0433(3) 1.0519(4)
C3 C 0.7301(5) 0.0318(2) 0.9669(4)
C4 C 0.7428(5) 0.0337(2) 0.8144(4)
C5 C 0.8641(5) -0.1154(3) 0.8689(4)
H3 H 0.9114 -0.1662 0.8305
C6 C 0.8230(5) -0.0573(2) 0.6158(4)
H4 H 0.9454 -0.0804 0.6142
H5 H 0.8070 0.0008 0.5643
C7 C 0.6756(5) -0.1214(2) 0.5301(4)
H6 H 0.975(6) 0.289(2) 0.841(4)
H7 H 0.576(5) 0.292(2) 0.943(4)
O4C O 0.8302(4) 0.17878(18) 0.4806(3)
H6C H 0.975(6) 0.211(2) 0.841(4)
H7C H 0.576(5) 0.208(2) 0.943(4)
O1B O 0.3008(4) -0.09490(17) 0.2778(3)
O2B O 0.4414(4) 0.1509(2) 0.4082(3)
O3B O 0.3174(3) 0.14285(17) 0.6014(3)
N1B N 0.3385(4) -0.0956(2) -0.0467(3)
N2B N 0.2571(4) 0.0265(2) -0.1878(3)
H1B H 0.2399 0.0624 -0.2658
N3B N 0.1472(5) 0.1186(2) -0.0100(3)
N4B N 0.1860(4) 0.04560(19) 0.2270(3)
C1B C 0.3272(6) -0.0570(3) -0.1780(4)
H2B H 0.3645 -0.0850 -0.2583
C2B C 0.2187(5) 0.0433(3) -0.0519(4)
C3B C 0.2699(5) -0.0318(2) 0.0331(4)
C4B C 0.2572(5) -0.0337(2) 0.1856(4)
C5B C 0.1359(5) 0.1154(3) 0.1311(4)
H3B H 0.0886 0.1662 0.1695
C6B C 0.1770(5) 0.0573(2) 0.3842(4)
H4B H 0.0546 0.0804 0.3858
H5B H 0.1930 -0.0008 0.4357
C7B C 0.3244(5) 0.1214(2) 0.4699(4)
Ce1A Ce 0.39365(4) -0.2500 0.36839(3)
O1C O 0.6992(4) 0.40510(17) 0.7222(3)
O2A O 0.4414(4) 0.3491(2) 0.4082(3)
O3A O 0.3174(3) 0.35715(17) 0.6014(3)
loop_
_geom_bond_atom_site_label_1
_geom_bond_atom_site_label_2
_geom_bond_site_symmetry_1
_geom_bond_site_symmetry_2
Ce1 O1 1_555 1_555
O1 C4 1_555 1_555
O2 C7 1_555 1_555
O3 C7 1_555 1_555
O4 Ce1 1_555 1_555
O5 N5 1_555 1_555
O6 Ce1 1_555 1_555
O7 Ce1 1_555 1_555
N1 C1 1_555 1_555
N2 H1 1_555 1_555
N3 C2 1_555 1_555
N4 C4 1_555 1_555
N5 O4 1_555 1_555
C1 N2 1_555 1_555
H2 C1 1_555 1_555
C2 N2 1_555 1_555
C3 N1 1_555 1_555
C4 C3 1_555 1_555
C5 N3 1_555 1_555
H3 C5 1_555 1_555
C6 N4 1_555 1_555
H4 C6 1_555 1_555
H5 C6 1_555 1_555
C7 C6 1_555 1_555
H6 O6 1_555 1_555
H7 O7 1_555 1_555
O4C Ce1 1_555 1_555
H6C O6 1_555 1_555
H7C O7 1_555 1_555
O1B C4B 1_555 1_555
O2B Ce1 1_555 1_555
O3B Ce1 1_555 1_555
N1B C1B 1_555 1_555
N2B H1B 1_555 1_555
N3B C2B 1_555 1_555
N4B C4B 1_555 1_555
C1B N2B 1_555 1_555
H2B C1B 1_555 1_555
C2B N2B 1_555 1_555
C3B N1B 1_555 1_555
C4B C3B 1_555 1_555
C5B N3B 1_555 1_555
H3B C5B 1_555 1_555
C6B N4B 1_555 1_555
H4B C6B 1_555 1_555
H5B C6B 1_555 1_555
C7B O2B 1_555 1_555
Ce1A O2 1_555 1_555
O1C Ce1 1_555 1_555
O2A Ce1 1_555 1_555
O3A Ce1 1_555 1_555
O3 Ce1A 1_555 1_555
N4 C5 1_555 1_555
N5 O4C 1_555 1_555
C2 C3 1_555 1_555
O1B Ce1A 1_555 1_555
O3B C7B 1_555 1_555
N4B C5B 1_555 1_555
C2B C3B 1_555 1_555
C6B C7B 1_555 1_555

#END
