
#######################################################################
#
#                 Cambridge Crystallographic Data Centre
#                                CCDC 
#
#######################################################################
#
# If this CIF has been generated from an entry in the Cambridge 
# Structural Database, then it will include bibliographic, chemical, 
# crystal, experimental, refinement or atomic coordinate data resulting 
# from the CCDC's data processing and validation procedures.
#
#######################################################################

data_VIXMUM
_symmetry_cell_setting           monoclinic
_symmetry_space_group_name_H-M   'P 21/n'
_symmetry_Int_Tables_number      14
_space_group_name_Hall           '-P 2yn'
loop_
_symmetry_equiv_pos_site_id
_symmetry_equiv_pos_as_xyz
1 x,y,z
2 1/2-x,1/2+y,1/2-z
3 -x,-y,-z
4 1/2+x,1/2-y,1/2+z
_cell_length_a                   6.8998(14)
_cell_length_b                   9.2699(19)
_cell_length_c                   13.549(3)
_cell_angle_alpha                90
_cell_angle_beta                 92.58(3)
_cell_angle_gamma                90
_cell_volume                     865.722
loop_
_atom_site_label
_atom_site_type_symbol
_atom_site_fract_x
_atom_site_fract_y
_atom_site_fract_z
Pb1 Pb 0.0000 0.5000 0.5000
N1 N 0.3143(6) 1.1101(5) 0.5255(4)
O1 O 0.0715(5) 0.7967(4) 0.3429(3)
C1 C 0.1457(7) 0.8814(5) 0.4014(4)
N2 N 0.1891(6) 1.0250(4) 0.3707(3)
N3 N 0.1870(6) 0.7397(5) 0.5595(4)
C2 C 0.1996(7) 0.8619(6) 0.5028(4)
C3 C 0.1374(8) 1.0626(6) 0.2687(4)
H1 H 0.1441 1.1688 0.2619
H2 H 0.0010 1.0336 0.2540
N4 N 0.3237(6) 0.9169(5) 0.6489(4)
H3 H 0.3777 0.9624 0.7001
C4 C 0.2823(7) 0.9720(5) 0.5577(4)
C5 C 0.2652(7) 1.1276(6) 0.4333(4)
H4 H 0.2839 1.2210 0.4064
C6 C 0.2653(8) 0.7782(6) 0.6450(5)
H5 H 0.2797 0.7142 0.6995
O2 O 0.1866(6) 0.9886(4) 0.1062(3)
C7 C 0.2623(8) 0.9954(5) 0.1918(4)
O3 O 0.4283(5) 0.9494(4) 0.2147(3)
O4 O 0.2964(6) 0.3964(4) 0.6063(3)
H6 H 0.328(8) 0.311(2) 0.593(5)
H7 H 0.390(6) 0.443(5) 0.586(5)
N1B N -0.3143(6) -0.1101(5) 0.4745(4)
O1B O -0.0715(5) 0.2033(4) 0.6571(3)
C1B C -0.1457(7) 0.1186(5) 0.5986(4)
N2B N -0.1891(6) -0.0250(4) 0.6293(3)
N3B N -0.1870(6) 0.2603(5) 0.4405(4)
C2B C -0.1996(7) 0.1381(6) 0.4972(4)
C3B C -0.1374(8) -0.0626(6) 0.7313(4)
H1B H -0.1441 -0.1688 0.7381
H2B H -0.0010 -0.0336 0.7460
N4B N -0.3237(6) 0.0831(5) 0.3511(4)
H3B H -0.3777 0.0376 0.2999
C4B C -0.2823(7) 0.0280(5) 0.4423(4)
C5B C -0.2652(7) -0.1276(6) 0.5667(4)
H4B H -0.2839 -0.2210 0.5936
C6B C -0.2653(8) 0.2218(6) 0.3550(5)
H5B H -0.2797 0.2858 0.3005
O2B O -0.1866(6) 0.0114(4) 0.8938(3)
C7B C -0.2623(8) 0.0046(5) 0.8082(4)
O3B O -0.4283(5) 0.0506(4) 0.7853(3)
O4B O -0.2964(6) 0.6036(4) 0.3937(3)
H6B H -0.328(8) 0.689(2) 0.407(5)
H7B H -0.390(6) 0.557(5) 0.414(5)
Pb1A Pb -0.5000 0.0000 1.0000
Pb1A_2 Pb 0.5000 1.0000 0.0000
O2A O 0.3134(6) 0.4886(4) 0.3938(3)
O2C O -0.3134(6) 0.5114(4) 0.6062(3)
loop_
_geom_bond_atom_site_label_1
_geom_bond_atom_site_label_2
_geom_bond_site_symmetry_1
_geom_bond_site_symmetry_2
Pb1 N3 1_555 1_555
N1 C4 1_555 1_555
O1 C1 1_555 1_555
C1 N2 1_555 1_555
N2 C3 1_555 1_555
N3 C2 1_555 1_555
C2 C1 1_555 1_555
C3 H1 1_555 1_555
H2 C3 1_555 1_555
N4 H3 1_555 1_555
C4 C2 1_555 1_555
C5 N1 1_555 1_555
H4 C5 1_555 1_555
C6 N3 1_555 1_555
H5 C6 1_555 1_555
O2 C7 1_555 1_555
C7 C3 1_555 1_555
O3 C7 1_555 1_555
O4 Pb1 1_555 1_555
H6 O4 1_555 1_555
H7 O4 1_555 1_555
N1B C4B 1_555 1_555
O1B C1B 1_555 1_555
C1B N2B 1_555 1_555
N2B C3B 1_555 1_555
N3B Pb1 1_555 1_555
C2B C1B 1_555 1_555
C3B H1B 1_555 1_555
H2B C3B 1_555 1_555
N4B H3B 1_555 1_555
C4B C2B 1_555 1_555
C5B N1B 1_555 1_555
H4B C5B 1_555 1_555
C6B N3B 1_555 1_555
H5B C6B 1_555 1_555
O2B C7B 1_555 1_555
C7B C3B 1_555 1_555
O3B C7B 1_555 1_555
O4B Pb1 1_555 1_555
H6B O4B 1_555 1_555
H7B O4B 1_555 1_555
Pb1A O2B 1_555 1_555
Pb1A_2 O2 1_555 1_555
O2A Pb1 1_555 1_555
O2C Pb1 1_555 1_555
N2 C5 1_555 1_555
N4 C4 1_555 1_555
N4 C6 1_555 1_555
N2B C5B 1_555 1_555
N3B C2B 1_555 1_555
N4B C4B 1_555 1_555
N4B C6B 1_555 1_555

#END
