
#######################################################################
#
#                 Cambridge Crystallographic Data Centre
#                                CCDC 
#
#######################################################################
#
# If this CIF has been generated from an entry in the Cambridge 
# Structural Database, then it will include bibliographic, chemical, 
# crystal, experimental, refinement or atomic coordinate data resulting 
# from the CCDC's data processing and validation procedures.
#
#######################################################################

data_VIXNIB
_symmetry_cell_setting           monoclinic
_symmetry_space_group_name_H-M   'P 21/c'
_symmetry_Int_Tables_number      14
_space_group_name_Hall           '-P 2ybc'
loop_
_symmetry_equiv_pos_site_id
_symmetry_equiv_pos_as_xyz
1 x,y,z
2 -x,1/2+y,1/2-z
3 -x,-y,-z
4 x,1/2-y,1/2+z
_cell_length_a                   9.2545(14)
_cell_length_b                   10.1923(10)
_cell_length_c                   8.8925(11)
_cell_angle_alpha                90
_cell_angle_beta                 111.412(16)
_cell_angle_gamma                90
_cell_volume                     780.889
loop_
_atom_site_label
_atom_site_type_symbol
_atom_site_fract_x
_atom_site_fract_y
_atom_site_fract_z
Zn1 Zn 0.83351(9) 0.80600(7) 0.15269(9)
O1 O 1.7668(5) 0.6994(4) 0.9522(5)
O2 O 1.6372(5) 0.6768(5) 0.6911(5)
O3 O 1.3838(6) 0.4711(5) 0.6945(6)
N1 N 1.3549(6) 0.6939(5) 0.7069(6)
N2 N 1.1658(6) 0.8207(5) 0.5074(6)
N3 N 0.9954(6) 0.6859(5) 0.2882(6)
N4 N 1.1063(6) 0.4884(5) 0.3709(6)
C1 C 1.6430(7) 0.6916(5) 0.8312(7)
C2 C 1.4883(7) 0.6982(6) 0.8583(7)
H1 H 1.4823 0.6237 0.9272
H2 H 1.4847 0.7804 0.9163
C3 C 1.3130(7) 0.5704(6) 0.6323(7)
C4 C 1.2849(8) 0.8082(6) 0.6406(8)
H3 H 1.3274 0.8866 0.6973
C5 C 1.1850(7) 0.5820(6) 0.4826(7)
C6 C 1.1184(7) 0.7032(6) 0.4304(7)
C7 C 0.9965(7) 0.5565(6) 0.2582(6)
H4 H 0.9244 0.5168 0.1640
Zn1_2 Zn 1.83351(9) 0.80600(7) 1.15269(9)
Zn1A Zn 1.16649(9) 0.30600(7) 0.34731(9)
Zn1C Zn 1.83351(9) 0.69400(7) 0.65269(9)
O1_2 O 0.7668(5) 0.6994(4) -0.0478(5)
O2C O 0.6372(5) 0.8232(5) 0.1911(5)
N4A N 0.8937(6) 0.9884(5) 0.1291(6)
loop_
_geom_bond_atom_site_label_1
_geom_bond_atom_site_label_2
_geom_bond_site_symmetry_1
_geom_bond_site_symmetry_2
Zn1 N3 1_555 1_555
O1 C1 1_555 1_555
O2 C1 1_555 1_555
O3 C3 1_555 1_555
N1 C2 1_555 1_555
N2 C4 1_555 1_555
N3 C6 1_555 1_555
N4 C5 1_555 1_555
C1 C2 1_555 1_555
C2 H1 1_555 1_555
H2 C2 1_555 1_555
C3 N1 1_555 1_555
C4 N1 1_555 1_555
H3 C4 1_555 1_555
C5 C3 1_555 1_555
C6 N2 1_555 1_555
C7 N3 1_555 1_555
H4 C7 1_555 1_555
Zn1_2 O1 1_555 1_555
Zn1A N4 1_555 1_555
Zn1C O2 1_555 1_555
O1_2 Zn1 1_555 1_555
O2C Zn1 1_555 1_555
N4A Zn1 1_555 1_555
N4 C7 1_555 1_555
C5 C6 1_555 1_555

#END
