
#######################################################################
#
#                 Cambridge Crystallographic Data Centre
#                                CCDC 
#
#######################################################################
#
# If this CIF has been generated from an entry in the Cambridge 
# Structural Database, then it will include bibliographic, chemical, 
# crystal, experimental, refinement or atomic coordinate data resulting 
# from the CCDC's data processing and validation procedures.
#
#######################################################################

data_VIXNAT
_symmetry_cell_setting           monoclinic
_symmetry_space_group_name_H-M   'P 21/n'
_symmetry_Int_Tables_number      14
_space_group_name_Hall           '-P 2yn'
loop_
_symmetry_equiv_pos_site_id
_symmetry_equiv_pos_as_xyz
1 x,y,z
2 1/2-x,1/2+y,1/2-z
3 -x,-y,-z
4 1/2+x,1/2-y,1/2+z
_cell_length_a                   7.201(8)
_cell_length_b                   9.044(2)
_cell_length_c                   13.816(5)
_cell_angle_alpha                90
_cell_angle_beta                 95.04(5)
_cell_angle_gamma                90
_cell_volume                     896.3
loop_
_atom_site_label
_atom_site_type_symbol
_atom_site_fract_x
_atom_site_fract_y
_atom_site_fract_z
Cd1 Cd 0.5000 0.5000 0.5000
O1 O 0.5288(12) 0.1969(8) 0.3220(5)
O2 O 0.9538(15) 0.0470(9) 0.2417(6)
O3 O 0.7680(14) 0.0025(9) 0.1071(5)
O4 O 0.7342(15) 0.6117(9) 0.6097(5)
N1 N 0.6296(13) 0.2721(8) 0.5413(5)
N2 N 0.7920(13) 0.0994(10) 0.6304(6)
H1 H 0.8475 0.0563 0.6803
N3 N 0.8170(15) -0.0946(10) 0.5126(6)
N4 N 0.6738(13) -0.0235(9) 0.3566(6)
C1 C 0.7147(15) 0.2385(11) 0.6270(7)
H2 H 0.7217 0.3026 0.6798
C2 C 0.7632(17) 0.0443(12) 0.5396(7)
C3 C 0.6630(17) 0.1449(10) 0.4850(7)
C4 C 0.6109(17) 0.1186(11) 0.3839(7)
C5 C 0.7689(18) -0.1178(12) 0.4217(8)
H3 H 0.8025 -0.2089 0.3972
C6 C 0.652(2) -0.0610(12) 0.2538(8)
H4 H 0.5320 -0.0254 0.2259
H5 H 0.6530 -0.1677 0.2469
C7 C 0.805(2) 0.0047(11) 0.1974(8)
O1B O 0.4712(12) 0.8031(8) 0.6780(5)
O2B O 0.0462(15) 0.9530(9) 0.7583(6)
O3B O 0.2320(14) 0.9975(9) 0.8929(5)
O4B O 0.2658(15) 0.3883(9) 0.3903(5)
N1B N 0.3704(13) 0.7279(8) 0.4587(5)
N2B N 0.2080(13) 0.9006(10) 0.3696(6)
H1B H 0.1525 0.9437 0.3197
N3B N 0.1830(15) 1.0946(10) 0.4874(6)
N4B N 0.3262(13) 1.0235(9) 0.6434(6)
C1B C 0.2853(15) 0.7615(11) 0.3730(7)
H2B H 0.2783 0.6974 0.3202
C2B C 0.2368(17) 0.9557(12) 0.4604(7)
C3B C 0.3370(17) 0.8551(10) 0.5150(7)
C4B C 0.3891(17) 0.8814(11) 0.6161(7)
C5B C 0.2311(18) 1.1178(12) 0.5783(8)
H3B H 0.1975 1.2089 0.6028
C6B C 0.348(2) 1.0610(12) 0.7462(8)
H4B H 0.4680 1.0254 0.7741
H5B H 0.3470 1.1677 0.7531
C7B C 0.195(2) 0.9953(11) 0.8026(8)
Cd1A Cd 0.0000 1.0000 1.0000
Cd1A_2 Cd 1.0000 0.0000 0.0000
O3A O 0.7320(14) 0.5025(9) 0.3929(5)
O3C O 0.2680(14) 0.4975(9) 0.6071(5)
loop_
_geom_bond_atom_site_label_1
_geom_bond_atom_site_label_2
_geom_bond_site_symmetry_1
_geom_bond_site_symmetry_2
Cd1 O4 1_555 1_555
O1 C4 1_555 1_555
O2 C7 1_555 1_555
O3 C7 1_555 1_555
N1 Cd1 1_555 1_555
N2 H1 1_555 1_555
N3 C2 1_555 1_555
N4 C4 1_555 1_555
C1 N1 1_555 1_555
H2 C1 1_555 1_555
C2 N2 1_555 1_555
C3 N1 1_555 1_555
C4 C3 1_555 1_555
C5 N3 1_555 1_555
H3 C5 1_555 1_555
C6 N4 1_555 1_555
H4 C6 1_555 1_555
H5 C6 1_555 1_555
C7 C6 1_555 1_555
O1B C4B 1_555 1_555
O2B C7B 1_555 1_555
O3B C7B 1_555 1_555
O4B Cd1 1_555 1_555
N1B Cd1 1_555 1_555
N2B H1B 1_555 1_555
N3B C2B 1_555 1_555
N4B C4B 1_555 1_555
C1B N1B 1_555 1_555
H2B C1B 1_555 1_555
C2B N2B 1_555 1_555
C3B N1B 1_555 1_555
C4B C3B 1_555 1_555
C5B N3B 1_555 1_555
H3B C5B 1_555 1_555
C6B N4B 1_555 1_555
H4B C6B 1_555 1_555
H5B C6B 1_555 1_555
C7B C6B 1_555 1_555
Cd1A O3B 1_555 1_555
Cd1A_2 O3 1_555 1_555
O3A Cd1 1_555 1_555
O3C Cd1 1_555 1_555
N2 C1 1_555 1_555
N4 C5 1_555 1_555
C2 C3 1_555 1_555
N2B C1B 1_555 1_555
N4B C5B 1_555 1_555
C2B C3B 1_555 1_555

#END
