
#######################################################################
#
#                 Cambridge Crystallographic Data Centre
#                                CCDC 
#
#######################################################################
#
# If this CIF has been generated from an entry in the Cambridge 
# Structural Database, then it will include bibliographic, chemical, 
# crystal, experimental, refinement or atomic coordinate data resulting 
# from the CCDC's data processing and validation procedures.
#
#######################################################################

data_VIXPEZ
_symmetry_cell_setting           monoclinic
_symmetry_space_group_name_H-M   'P 21/c'
_symmetry_Int_Tables_number      14
_space_group_name_Hall           '-P 2ybc'
loop_
_symmetry_equiv_pos_site_id
_symmetry_equiv_pos_as_xyz
1 x,y,z
2 -x,1/2+y,1/2-z
3 -x,-y,-z
4 x,1/2-y,1/2+z
_cell_length_a                   15.4729(5)
_cell_length_b                   12.5273(4)
_cell_length_c                   15.3919(6)
_cell_angle_alpha                90
_cell_angle_beta                 119.1130(10)
_cell_angle_gamma                90
_cell_volume                     2606.54
loop_
_atom_site_label
_atom_site_type_symbol
_atom_site_fract_x
_atom_site_fract_y
_atom_site_fract_z
Mn1 Mn 0.28725(4) 0.01663(4) 0.19470(3)
N1 N 0.4599(2) 0.2063(2) 0.26653(19)
O1 O 0.57350(17) 0.38457(18) 0.26701(16)
N2 N 0.41050(19) 0.1303(2) 0.28520(18)
N3 N 0.67905(19) 0.4937(2) 0.43218(19)
C1 C 0.5109(2) 0.2692(2) 0.3463(2)
N4 N 0.6281(2) 0.4050(2) 0.4319(2)
N5 N 0.3232(2) 0.0006(2) 0.3577(2)
C2 C 0.4291(2) 0.1475(2) 0.3786(2)
C3 C 0.4908(2) 0.2343(3) 0.4195(2)
N6 N 0.7677(2) 0.6657(2) 0.4184(2)
C4 C 0.5725(2) 0.3569(2) 0.3428(2)
C5 C 0.3858(2) 0.0739(2) 0.4216(2)
N7 N 0.2106(2) -0.1443(3) 0.1529(3)
C6 C 0.7094(3) 0.5585(3) 0.5051(3)
C7 C 0.4098(3) 0.0786(3) 0.5206(2)
C8 C 0.7589(2) 0.6553(3) 0.5009(2)
C9 C 0.3672(3) 0.0065(3) 0.5557(3)
C10 C 0.2820(3) -0.0684(3) 0.3939(3)
C11 C 0.8419(3) 0.8371(3) 0.4804(3)
C12 C 0.8335(3) 0.8233(3) 0.5634(3)
C13 C 0.1703(3) -0.2209(3) 0.1497(3)
N8 N 0.1336(3) 0.0573(3) 0.1753(3)
C14 C 0.0517(3) 0.0600(4) 0.1519(3)
C15 C 0.8082(3) 0.7565(3) 0.4090(3)
C16 C 0.3030(3) -0.0683(3) 0.4917(3)
C17 C 0.7907(3) 0.7315(3) 0.5748(3)
C18 C 0.1179(3) -0.3184(4) 0.1472(4)
H1 H 0.1580 -0.3602 0.2055
H2 H 0.1044 -0.3589 0.0889
H3 H 0.0567 -0.3006 0.1455
C19 C -0.0538(4) 0.0627(5) 0.1202(5)
H4 H -0.0853 0.1166 0.0701
H5 H -0.0629 0.0787 0.1762
H6 H -0.0826 -0.0056 0.0933
H7 H 0.470(2) 0.201(3) 0.215(3)
H8 H 0.454(3) 0.127(3) 0.558(3)
H9 H 0.514(3) 0.258(3) 0.480(3)
H10 H 0.622(3) 0.390(3) 0.476(3)
H11 H 0.383(3) 0.015(3) 0.619(3)
H12 H 0.697(3) 0.544(3) 0.551(3)
H13 H 0.787(3) 0.723(3) 0.632(3)
H14 H 0.244(3) -0.112(3) 0.347(3)
H15 H 0.275(3) -0.114(3) 0.509(3)
H16 H 0.856(3) 0.875(3) 0.611(3)
H17 H 0.808(3) 0.765(4) 0.346(4)
H18 H 0.867(3) 0.901(3) 0.464(3)
Mn1A Mn 0.71275(4) 0.51663(4) 0.30530(3)
N3A N 0.32095(19) -0.0063(2) 0.06782(19)
N6A N 0.2323(2) 0.1657(2) 0.0816(2)
Cl1 Cl 0.39405(7) 0.59646(7) 0.33103(6)
O2 O 0.49166(19) 0.6434(2) 0.38172(18)
O3 O 0.33517(19) 0.6423(2) 0.37084(18)
O4 O 0.3492(2) 0.6204(3) 0.22740(18)
O5 O 0.4008(3) 0.4844(3) 0.3469(3)
Cl2 Cl -0.00021(9) -0.12301(9) 0.33157(9)
O6 O -0.1055(3) -0.1024(5) 0.2813(4)
O7 O 0.0301(4) -0.1610(5) 0.2644(4)
O8 O 0.0433(5) -0.0295(5) 0.3682(7)
O9 O 0.0230(6) -0.1913(6) 0.4088(6)
loop_
_geom_bond_atom_site_label_1
_geom_bond_atom_site_label_2
_geom_bond_site_symmetry_1
_geom_bond_site_symmetry_2
Mn1 N2 1_555 1_555
N1 N2 1_555 1_555
O1 C4 1_555 1_555
N2 C2 1_555 1_555
N3 N4 1_555 1_555
C1 N1 1_555 1_555
N4 C4 1_555 1_555
N5 Mn1 1_555 1_555
C2 C3 1_555 1_555
C3 C1 1_555 1_555
N6 C8 1_555 1_555
C4 C1 1_555 1_555
C5 N5 1_555 1_555
N7 Mn1 1_555 1_555
C6 N3 1_555 1_555
C7 C5 1_555 1_555
C8 C6 1_555 1_555
C9 C7 1_555 1_555
C10 N5 1_555 1_555
C11 C12 1_555 1_555
C12 C17 1_555 1_555
C13 N7 1_555 1_555
N8 Mn1 1_555 1_555
C14 N8 1_555 1_555
C15 N6 1_555 1_555
C16 C9 1_555 1_555
C17 C8 1_555 1_555
C18 C13 1_555 1_555
H1 C18 1_555 1_555
H2 C18 1_555 1_555
H3 C18 1_555 1_555
C19 C14 1_555 1_555
H4 C19 1_555 1_555
H5 C19 1_555 1_555
H6 C19 1_555 1_555
H7 N1 1_555 1_555
H8 C7 1_555 1_555
H9 C3 1_555 1_555
H10 N4 1_555 1_555
H11 C9 1_555 1_555
H12 C6 1_555 1_555
H13 C17 1_555 1_555
H14 C10 1_555 1_555
H15 C16 1_555 1_555
H16 C12 1_555 1_555
H17 C15 1_555 1_555
H18 C11 1_555 1_555
Cl1 O2 1_555 1_555
O3 Cl1 1_555 1_555
O4 Cl1 1_555 1_555
O5 Cl1 1_555 1_555
Cl2 O6 1_555 1_555
O7 Cl2 1_555 1_555
O8 Cl2 1_555 1_555
O9 Cl2 1_555 1_555
Mn1A N3 1_555 1_555
N3A Mn1 1_555 1_555
N6A Mn1 1_555 1_555
C2 C5 1_555 1_555
N6 Mn1A 1_555 1_555
C10 C16 1_555 1_555
C11 C15 1_555 1_555

#END
