
#######################################################################
#
#                 Cambridge Crystallographic Data Centre
#                                CCDC 
#
#######################################################################
#
# If this CIF has been generated from an entry in the Cambridge 
# Structural Database, then it will include bibliographic, chemical, 
# crystal, experimental, refinement or atomic coordinate data resulting 
# from the CCDC's data processing and validation procedures.
#
#######################################################################

data_VIXVOP
_symmetry_cell_setting           triclinic
_symmetry_space_group_name_H-M   'P -1'
_symmetry_Int_Tables_number      2
_space_group_name_Hall           '-P 1'
loop_
_symmetry_equiv_pos_site_id
_symmetry_equiv_pos_as_xyz
1 x,y,z
2 -x,-y,-z
_cell_length_a                   8.5220(17)
_cell_length_b                   9.0910(18)
_cell_length_c                   11.361(2)
_cell_angle_alpha                91.44(3)
_cell_angle_beta                 110.86(3)
_cell_angle_gamma                98.38(3)
_cell_volume                     810.873
loop_
_atom_site_label
_atom_site_type_symbol
_atom_site_fract_x
_atom_site_fract_y
_atom_site_fract_z
Zn1 Zn 0.99559(13) 0.65099(10) 0.77771(10)
O1 O 1.1108(8) 0.8377(7) 0.7269(6)
O2 O 0.8684(11) 0.7645(7) 0.5717(6)
O3 O 1.1740(7) 0.6116(6) 0.9391(6)
O4 O 1.2590(8) 0.5312(7) 0.7922(6)
N1 N 0.8421(9) 0.7415(7) 0.8546(7)
N2 N 0.8523(8) 0.4555(7) 0.6887(7)
C1 C 0.9968(14) 0.8521(10) 0.6190(9)
C2 C 1.0411(11) 0.9897(10) 0.5594(8)
H1 H 1.1302 1.0631 0.6084
C3 C 1.2804(12) 0.5548(10) 0.9052(10)
C4 C 1.4366(9) 0.5237(8) 1.0089(9)
H2 H 1.4429 0.5396 1.0918
C5 C 0.5777(12) 0.8105(10) 0.8429(10)
H3 H 0.4645 0.8126 0.7937
C6 C 0.6789(12) 0.7477(9) 0.7927(8)
H4 H 0.6299 0.7065 0.7094
C7 C 0.9085(12) 0.8011(10) 0.9744(11)
H5 H 1.0228 0.7992 1.0203
C8 C 0.8141(12) 0.8659(10) 1.0335(9)
H6 H 0.8659 0.9054 1.1171
C9 C 0.6452(13) 0.8717(10) 0.9689(10)
C10 C 0.5311(12) 0.9322(9) 1.0273(9)
H7 H 0.4339 0.8555 1.0163
H8 H 0.5933 0.9546 1.1173
C11 C 0.7160(14) 0.2095(11) 0.6999(12)
H9 H 0.6859 0.1403 0.7503
C12 C 0.7999(11) 0.3497(10) 0.7519(9)
H10 H 0.8218 0.3726 0.8371
C13 C 0.8135(12) 0.4139(10) 0.5662(10)
H11 H 0.8470 0.4840 0.5179
C14 C 0.7295(12) 0.2785(10) 0.5064(10)
H12 H 0.7087 0.2591 0.4210
C15 C 0.6754(12) 0.1700(11) 0.5718(12)
C16 C 0.5822(11) 0.0145(12) 0.5107(13)
H13 H 0.5975 0.0003 0.4307
H14 H 0.6369 -0.0586 0.5646
O1A O 0.8892(8) 1.1623(7) 0.2731(6)
O2A O 1.1316(11) 1.2355(7) 0.4283(6)
C1A C 1.0032(14) 1.1479(10) 0.3810(9)
C2A C 0.9589(11) 1.0103(10) 0.4406(8)
H1A H 0.8698 0.9369 0.3916
O3A O 1.8260(7) 0.3884(6) 1.0609(6)
O4A O 1.7410(8) 0.4688(7) 1.2078(6)
C3A C 1.7196(12) 0.4452(10) 1.0948(10)
C4A C 1.5634(9) 0.4763(8) 0.9911(9)
H2A H 1.5571 0.4604 0.9082
N1A N 0.1579(9) 1.2585(7) 1.1454(7)
C5A C 0.4223(12) 1.1895(10) 1.1571(10)
H3A H 0.5355 1.1874 1.2063
C6A C 0.3211(12) 1.2523(9) 1.2073(8)
H4A H 0.3701 1.2935 1.2906
C7A C 0.0915(12) 1.1989(10) 1.0256(11)
H5A H -0.0228 1.2008 0.9797
C8A C 0.1859(12) 1.1341(10) 0.9665(9)
H6A H 0.1341 1.0946 0.8829
C9A C 0.3548(13) 1.1283(10) 1.0311(10)
C10A C 0.4689(12) 1.0678(9) 0.9727(9)
H7A H 0.5661 1.1445 0.9837
H8A H 0.4067 1.0454 0.8827
N2A N 0.1477(8) -0.4555(7) 0.3113(7)
C11A C 0.2840(14) -0.2095(11) 0.3001(12)
H9A H 0.3141 -0.1403 0.2497
C12A C 0.2001(11) -0.3497(10) 0.2481(9)
H10A H 0.1782 -0.3726 0.1629
C13A C 0.1865(12) -0.4139(10) 0.4338(10)
H11A H 0.1530 -0.4840 0.4821
C14A C 0.2705(12) -0.2785(10) 0.4936(10)
H12A H 0.2913 -0.2591 0.5790
C15A C 0.3246(12) -0.1700(11) 0.4282(12)
C16A C 0.4178(11) -0.0145(12) 0.4893(13)
H13A H 0.4025 -0.0003 0.5693
H14A H 0.3631 0.0586 0.4354
Zn1A Zn 0.00441(13) -0.65099(10) 0.22229(10)
Zn1A_2 Zn 0.00441(13) 1.34901(10) 1.22229(10)
Zn1A_3 Zn 1.00441(13) 1.34901(10) 0.22229(10)
Zn1A_4 Zn 2.00441(13) 0.34901(10) 1.22229(10)
O1A_2 O -0.1108(8) -0.8377(7) 0.2731(6)
O2A_2 O 0.1316(11) -0.7645(7) 0.4283(6)
O3A_2 O -0.1740(7) -0.6116(6) 0.0609(6)
N1A_2 N 0.1579(9) -0.7415(7) 0.1454(7)
O5 O 0.3640(13) 0.3048(10) 0.6835(10)
loop_
_geom_bond_atom_site_label_1
_geom_bond_atom_site_label_2
_geom_bond_site_symmetry_1
_geom_bond_site_symmetry_2
Zn1 O1 1_555 1_555
O1 C1 1_555 1_555
O2 Zn1 1_555 1_555
O3 Zn1 1_555 1_555
O4 C3 1_555 1_555
N1 Zn1 1_555 1_555
N2 Zn1 1_555 1_555
C1 O2 1_555 1_555
C2 C1 1_555 1_555
H1 C2 1_555 1_555
C3 O3 1_555 1_555
C4 C3 1_555 1_555
H2 C4 1_555 1_555
C5 H3 1_555 1_555
C6 N1 1_555 1_555
H4 C6 1_555 1_555
C7 N1 1_555 1_555
H5 C7 1_555 1_555
C8 C7 1_555 1_555
H6 C8 1_555 1_555
C9 C5 1_555 1_555
C10 C9 1_555 1_555
H7 C10 1_555 1_555
H8 C10 1_555 1_555
C11 H9 1_555 1_555
C12 N2 1_555 1_555
H10 C12 1_555 1_555
C13 N2 1_555 1_555
H11 C13 1_555 1_555
C14 C13 1_555 1_555
H12 C14 1_555 1_555
C15 C11 1_555 1_555
C16 C15 1_555 1_555
H13 C16 1_555 1_555
H14 C16 1_555 1_555
O1A C1A 1_555 1_555
O2A C1A 1_555 1_555
C1A C2A 1_555 1_555
C2A C2 1_555 1_555
H1A C2A 1_555 1_555
O3A C3A 1_555 1_555
O4A C3A 1_555 1_555
C3A C4A 1_555 1_555
C4A C4 1_555 1_555
H2A C4A 1_555 1_555
N1A C6A 1_555 1_555
C5A H3A 1_555 1_555
C6A C5A 1_555 1_555
H4A C6A 1_555 1_555
C7A N1A 1_555 1_555
H5A C7A 1_555 1_555
C8A C7A 1_555 1_555
H6A C8A 1_555 1_555
C9A C5A 1_555 1_555
C10A C10 1_555 1_555
H7A C10A 1_555 1_555
H8A C10A 1_555 1_555
N2A C12A 1_555 1_555
C11A H9A 1_555 1_555
C12A C11A 1_555 1_555
H10A C12A 1_555 1_555
C13A N2A 1_555 1_555
H11A C13A 1_555 1_555
C14A C13A 1_555 1_555
H12A C14A 1_555 1_555
C15A C11A 1_555 1_555
C16A C16 1_555 1_555
H13A C16A 1_555 1_555
H14A C16A 1_555 1_555
Zn1A N2A 1_555 1_555
Zn1A_2 N1A 1_555 1_555
Zn1A_3 O1A 1_555 1_555
Zn1A_4 O3A 1_555 1_555
O1A_2 Zn1A 1_555 1_555
O2A_2 Zn1A 1_555 1_555
O3A_2 Zn1A 1_555 1_555
N1A_2 Zn1A 1_555 1_555
C5 C6 1_555 1_555
C8 C9 1_555 1_555
C11 C12 1_555 1_555
C14 C15 1_555 1_555
O2A Zn1A_3 1_555 1_555
C8A C9A 1_555 1_555
C9A C10A 1_555 1_555
C14A C15A 1_555 1_555
C15A C16A 1_555 1_555

#END
