
#######################################################################
#
#                 Cambridge Crystallographic Data Centre
#                                CCDC 
#
#######################################################################
#
# If this CIF has been generated from an entry in the Cambridge 
# Structural Database, then it will include bibliographic, chemical, 
# crystal, experimental, refinement or atomic coordinate data resulting 
# from the CCDC's data processing and validation procedures.
#
#######################################################################

data_VIXVIJ
_symmetry_cell_setting           monoclinic
_symmetry_space_group_name_H-M   'P 21/c'
_symmetry_Int_Tables_number      14
_space_group_name_Hall           '-P 2ybc'
loop_
_symmetry_equiv_pos_site_id
_symmetry_equiv_pos_as_xyz
1 x,y,z
2 -x,1/2+y,1/2-z
3 -x,-y,-z
4 x,1/2-y,1/2+z
_cell_length_a                   11.025(2)
_cell_length_b                   14.176(3)
_cell_length_c                   16.191(3)
_cell_angle_alpha                90
_cell_angle_beta                 95.50(3)
_cell_angle_gamma                90
_cell_volume                     2518.85
loop_
_atom_site_label
_atom_site_type_symbol
_atom_site_fract_x
_atom_site_fract_y
_atom_site_fract_z
Zn1 Zn 0.58059(5) 0.69625(4) 1.12207(3)
Zn2 Zn -0.05368(6) 0.68688(4) 0.39079(3)
N1 N 0.4927(4) 0.6547(3) 1.0108(3)
N2 N 0.0381(4) 0.6587(3) 0.5047(3)
O1 O 0.7415(3) 0.6371(3) 1.1159(2)
H1 H 0.786(4) 0.656(3) 1.0728(19)
H2 H 0.775(4) 0.684(3) 1.152(2)
O2 O -0.2128(3) 0.6242(3) 0.3981(2)
H3 H -0.262(4) 0.643(4) 0.439(2)
H4 H -0.244(5) 0.670(3) 0.361(3)
O3 O 0.4545(4) 0.6468(4) 1.1920(2)
O4 O 0.6200(4) 0.6582(3) 1.2710(2)
O5 O 0.4288(4) 0.3326(3) 1.3610(3)
O6 O 0.3282(4) 0.3328(2) 1.4702(2)
O7 O 0.0742(4) 0.6350(4) 0.3226(2)
O8 O -0.0926(4) 0.6485(4) 0.2452(2)
O9 O 0.0521(4) 0.3225(3) 0.1307(3)
O10 O 0.1479(4) 0.3264(3) 0.0198(2)
C1 C 0.3781(6) 0.6276(6) 1.0056(4)
H5 H 0.3403 0.6216 1.0542
C2 C 0.3127(7) 0.6080(7) 0.9323(4)
H6 H 0.2301 0.5943 0.9314
C3 C 0.3671(7) 0.6080(5) 0.8596(4)
C4 C 0.4867(6) 0.6374(5) 0.8636(3)
H7 H 0.5268 0.6420 0.8158
C5 C 0.5453(5) 0.6596(5) 0.9395(3)
H8 H 0.6261 0.6793 0.9418
C6 C 0.2956(7) 0.5880(5) 0.7761(4)
H9 H 0.3506 0.5667 0.7367
H10 H 0.2363 0.5385 0.7823
C7 C 0.2373(8) 0.6686(7) 0.7476(4)
H11 H 0.2971 0.7183 0.7441
H12 H 0.1814 0.6884 0.7869
C8 C 0.1657(8) 0.6552(6) 0.6611(4)
C9 C 0.0400(7) 0.6530(6) 0.6518(4)
H13 H -0.0040 0.6496 0.6979
C10 C -0.0186(6) 0.6560(5) 0.5736(3)
H14 H -0.1034 0.6562 0.5682
C11 C 0.1583(6) 0.6578(5) 0.5135(4)
H15 H 0.2000 0.6575 0.4662
C12 C 0.2240(6) 0.6572(6) 0.5900(4)
H16 H 0.3087 0.6582 0.5936
C13 C 0.5123(6) 0.6393(5) 1.2612(4)
C14 C 0.4420(8) 0.6175(5) 1.3347(4)
H17 H 0.4846 0.6414 1.3856
H18 H 0.3614 0.6455 1.3275
C15 C 0.4340(10) 0.5137(5) 1.3368(5)
H19 H 0.5156 0.4875 1.3450
H20 H 0.3965 0.4913 1.2838
C16 C 0.3595(8) 0.4780(4) 1.4064(4)
H21 H 0.3883 0.5078 1.4585
H22 H 0.2743 0.4942 1.3935
C17 C 0.3729(5) 0.3747(3) 1.4138(3)
C18 C 0.0152(6) 0.6275(6) 0.2535(3)
C19 C 0.0823(8) 0.6058(5) 0.1795(4)
H23 H 0.0489 0.6413 0.1314
H24 H 0.1682 0.6206 0.1905
C20 C 0.0639(9) 0.5034(5) 0.1663(5)
H25 H -0.0226 0.4904 0.1565
H26 H 0.0952 0.4698 0.2160
C21 C 0.1284(8) 0.4673(4) 0.0921(5)
H27 H 0.0978 0.5014 0.0425
H28 H 0.2152 0.4795 0.1021
C22 C 0.1083(5) 0.3652(4) 0.0788(3)
Zn1A Zn 0.41941(5) 0.19625(4) 1.37793(3)
Zn2A Zn 0.05368(6) 0.18688(4) 0.10921(3)
O5A O 0.5712(4) 0.8326(3) 1.1390(3)
O9A O -0.0521(4) 0.8225(3) 0.3693(3)
loop_
_geom_bond_atom_site_label_1
_geom_bond_atom_site_label_2
_geom_bond_site_symmetry_1
_geom_bond_site_symmetry_2
Zn1 N1 1_555 1_555
Zn2 N2 1_555 1_555
N1 C1 1_555 1_555
N2 C10 1_555 1_555
O1 Zn1 1_555 1_555
H1 O1 1_555 1_555
H2 O1 1_555 1_555
O2 Zn2 1_555 1_555
H3 O2 1_555 1_555
H4 O2 1_555 1_555
O3 Zn1 1_555 1_555
O4 Zn1 1_555 1_555
O5 C17 1_555 1_555
O6 C17 1_555 1_555
O7 Zn2 1_555 1_555
O8 Zn2 1_555 1_555
O9 C22 1_555 1_555
O10 C22 1_555 1_555
C1 H5 1_555 1_555
C2 C1 1_555 1_555
H6 C2 1_555 1_555
C3 C2 1_555 1_555
C4 C3 1_555 1_555
H7 C4 1_555 1_555
C5 N1 1_555 1_555
H8 C5 1_555 1_555
C6 C3 1_555 1_555
H9 C6 1_555 1_555
H10 C6 1_555 1_555
C7 C6 1_555 1_555
H11 C7 1_555 1_555
H12 C7 1_555 1_555
C8 C7 1_555 1_555
C9 C8 1_555 1_555
H13 C9 1_555 1_555
C10 C9 1_555 1_555
H14 C10 1_555 1_555
C11 N2 1_555 1_555
H15 C11 1_555 1_555
C12 C8 1_555 1_555
H16 C12 1_555 1_555
C13 O3 1_555 1_555
C14 C13 1_555 1_555
H17 C14 1_555 1_555
H18 C14 1_555 1_555
C15 C14 1_555 1_555
H19 C15 1_555 1_555
H20 C15 1_555 1_555
C16 C15 1_555 1_555
H21 C16 1_555 1_555
H22 C16 1_555 1_555
C17 C16 1_555 1_555
C18 O7 1_555 1_555
C19 C18 1_555 1_555
H23 C19 1_555 1_555
H24 C19 1_555 1_555
C20 C19 1_555 1_555
H25 C20 1_555 1_555
H26 C20 1_555 1_555
C21 C20 1_555 1_555
H27 C21 1_555 1_555
H28 C21 1_555 1_555
C22 C21 1_555 1_555
Zn1A O5 1_555 1_555
Zn2A O9 1_555 1_555
O5A Zn1 1_555 1_555
O9A Zn2 1_555 1_555
O4 C13 1_555 1_555
O8 C18 1_555 1_555
C4 C5 1_555 1_555
C11 C12 1_555 1_555

#END
