
#######################################################################
#
#                 Cambridge Crystallographic Data Centre
#                                CCDC 
#
#######################################################################
#
# If this CIF has been generated from an entry in the Cambridge 
# Structural Database, then it will include bibliographic, chemical, 
# crystal, experimental, refinement or atomic coordinate data resulting 
# from the CCDC's data processing and validation procedures.
#
#######################################################################

data_VIXWEF
_symmetry_cell_setting           cubic
_symmetry_space_group_name_H-M   'F m -3'
_symmetry_Int_Tables_number      202
_space_group_name_Hall           '-F 2 2 3'
loop_
_symmetry_equiv_pos_site_id
_symmetry_equiv_pos_as_xyz
1 x,y,z
2 -x,-y,z
3 x,-y,-z
4 z,x,y
5 -x,y,-z
6 -z,-x,y
7 z,-x,-y
8 -z,x,-y
9 y,z,x
10 y,-z,-x
11 -y,z,-x
12 -y,-z,x
13 x,1/2+y,1/2+z
14 -x,1/2-y,1/2+z
15 x,1/2-y,1/2-z
16 z,1/2+x,1/2+y
17 -x,1/2+y,1/2-z
18 -z,1/2-x,1/2+y
19 z,1/2-x,1/2-y
20 -z,1/2+x,1/2-y
21 y,1/2+z,1/2+x
22 y,1/2-z,1/2-x
23 -y,1/2+z,1/2-x
24 -y,1/2-z,1/2+x
25 1/2+x,y,1/2+z
26 1/2-x,-y,1/2+z
27 1/2+x,-y,1/2-z
28 1/2+z,x,1/2+y
29 1/2-x,y,1/2-z
30 1/2-z,-x,1/2+y
31 1/2+z,-x,1/2-y
32 1/2-z,x,1/2-y
33 1/2+y,z,1/2+x
34 1/2+y,-z,1/2-x
35 1/2-y,z,1/2-x
36 1/2-y,-z,1/2+x
37 1/2+x,1/2+y,z
38 1/2-x,1/2-y,z
39 1/2+x,1/2-y,-z
40 1/2+z,1/2+x,y
41 1/2-x,1/2+y,-z
42 1/2-z,1/2-x,y
43 1/2+z,1/2-x,-y
44 1/2-z,1/2+x,-y
45 1/2+y,1/2+z,x
46 1/2+y,1/2-z,-x
47 1/2-y,1/2+z,-x
48 1/2-y,1/2-z,x
49 -x,-y,-z
50 x,y,-z
51 -x,y,z
52 -z,-x,-y
53 x,-y,z
54 z,x,-y
55 -z,x,y
56 z,-x,y
57 -y,-z,-x
58 -y,z,x
59 y,-z,x
60 y,z,-x
61 -x,1/2-y,1/2-z
62 x,1/2+y,1/2-z
63 -x,1/2+y,1/2+z
64 -z,1/2-x,1/2-y
65 x,1/2-y,1/2+z
66 z,1/2+x,1/2-y
67 -z,1/2+x,1/2+y
68 z,1/2-x,1/2+y
69 -y,1/2-z,1/2-x
70 -y,1/2+z,1/2+x
71 y,1/2-z,1/2+x
72 y,1/2+z,1/2-x
73 1/2-x,-y,1/2-z
74 1/2+x,y,1/2-z
75 1/2-x,y,1/2+z
76 1/2-z,-x,1/2-y
77 1/2+x,-y,1/2+z
78 1/2+z,x,1/2-y
79 1/2-z,x,1/2+y
80 1/2+z,-x,1/2+y
81 1/2-y,-z,1/2-x
82 1/2-y,z,1/2+x
83 1/2+y,-z,1/2+x
84 1/2+y,z,1/2-x
85 1/2-x,1/2-y,-z
86 1/2+x,1/2+y,-z
87 1/2-x,1/2+y,z
88 1/2-z,1/2-x,-y
89 1/2+x,1/2-y,z
90 1/2+z,1/2+x,-y
91 1/2-z,1/2+x,y
92 1/2+z,1/2-x,y
93 1/2-y,1/2-z,-x
94 1/2-y,1/2+z,x
95 1/2+y,1/2-z,x
96 1/2+y,1/2+z,-x
_cell_length_a                   31.3400(7)
_cell_length_b                   31.3400(7)
_cell_length_c                   31.3400(7)
_cell_angle_alpha                90
_cell_angle_beta                 90
_cell_angle_gamma                90
_cell_volume                     30782
loop_
_atom_site_label
_atom_site_type_symbol
_atom_site_fract_x
_atom_site_fract_y
_atom_site_fract_z
Ni1 Ni 0.32147(13) 0.0000 0.0000
O1 O 0.3255(9) 0.0644(8) 0.0000
O2 O 0.4323(6) 0.1773 0.0000(5)
O3 O 0.4084(12) 0.2441 0.0000(8)
C1 C 0.3586 0.1852 0.0000
C2 C 0.3468 0.1424 0.0000
H1 H 0.3680 0.1208 0.0000
C3 C 0.3038 0.1313 0.0000
C4 C 0.2727 0.1629 0.0000
H2 H 0.2434 0.1553 0.0000
C5 C 0.2845 0.2057 0.0000
C6 C 0.3275 0.2168 0.0000
H3 H 0.3356 0.2460 0.0000
C7 C 0.4034(17) 0.2036 0.0000(12)
C8 C 0.2857(12) 0.0849(15) 0.0000
O4 O 0.2550(11) 0.0000 0.0000
O5 O 0.3852(13) 0.0000 0.0000
N1 N 0.2439(9) 0.2313 0.0000(8)
Ni2 Ni 0.2161(18) 0.0360(17) 0.0342(17)
O6 O 0.2526(9) 0.0598(7) 0.0000
O7 O 0.171(12) 0.032(9) 0.047(11)
O1KA O 0.1745(9) 0.4356(8) 0.0000
O2KA O 0.0677(6) 0.3227 0.0000(5)
O3KA O 0.0916(12) 0.2559 0.0000(8)
C1KA C 0.1414 0.3148 0.0000
C2KA C 0.1532 0.3576 0.0000
H1KA H 0.1320 0.3792 0.0000
C3KA C 0.1962 0.3687 0.0000
C4KA C 0.2273 0.3371 0.0000
H2KA H 0.2566 0.3447 0.0000
C5KA C 0.2155 0.2943 0.0000
C6KA C 0.1725 0.2832 0.0000
H3KA H 0.1644 0.2540 0.0000
C7KA C 0.0966(17) 0.2964 0.0000(12)
C8KA C 0.2143(12) 0.4151(15) 0.0000
N1KA N 0.2561(9) 0.2687 0.0000(8)
O6KA O 0.2474(9) 0.4402(7) 0.0000
Ni2B Ni 0.2161(18) -0.0360(17) -0.0342(17)
O7B O 0.171(12) -0.032(9) -0.047(11)
Ni2C Ni 0.0342(17) 0.2161(18) 0.0360(17)
O7C O 0.047(11) 0.171(12) 0.032(9)
Ni2G Ni -0.0342(17) 0.2161(18) -0.0360(17)
O7G O -0.047(11) 0.171(12) -0.032(9)
Ni1C Ni 0.0000 0.32147(13) 0.0000
Ni1KA Ni 0.17853(13) 0.5000 0.0000
Ni1OA Ni 0.5000 0.17853(13) 0.0000
O1B O 0.3255(9) -0.0644(8) 0.0000
O2HA O 0.3227 0.0000(5) 0.0677(6)
O2IA O 0.3227 0.0000(5) -0.0677(6)
O3HA O 0.2559 0.0000(8) 0.0916(12)
O3IA O 0.2559 0.0000(8) -0.0916(12)
O3LA O -0.0916(12) 0.2559 0.0000(8)
O4C O 0.0000 0.2550(11) 0.0000
Ni2KA Ni 0.2839(18) 0.4640(17) 0.0342(17)
Ni2OA Ni 0.4658(17) 0.2839(18) 0.0360(17)
Ni2WA Ni 0.2161(18) 0.0360(17) -0.0342(17)
Ni2ZA Ni 0.2161(18) -0.0360(17) 0.0342(17)
Ni2AB Ni 0.0342(17) 0.2161(18) -0.0360(17)
Ni2BB Ni -0.0342(17) 0.2161(18) 0.0360(17)
Ni2FC Ni 0.2839(18) 0.4640(17) -0.0342(17)
Ni2IC Ni 0.4658(17) 0.2839(18) -0.0360(17)
O6B O 0.2526(9) -0.0598(7) 0.0000
O6C O 0.0000 0.2526(9) 0.0598(7)
O6G O 0.0000 0.2526(9) -0.0598(7)
O7WA O 0.171(12) 0.032(9) -0.047(11)
O7ZA O 0.171(12) -0.032(9) 0.047(11)
O7AB O 0.047(11) 0.171(12) -0.032(9)
O7BB O -0.047(11) 0.171(12) 0.032(9)
loop_
_geom_bond_atom_site_label_1
_geom_bond_atom_site_label_2
_geom_bond_site_symmetry_1
_geom_bond_site_symmetry_2
Ni1 O1 1_555 1_555
O1 C8 1_555 1_555
O2 C7 1_555 1_555
O3 C7 1_555 1_555
C1 C2 1_555 1_555
C2 H1 1_555 1_555
C3 C2 1_555 1_555
C4 C3 1_555 1_555
H2 C4 1_555 1_555
C5 C4 1_555 1_555
C6 C1 1_555 1_555
H3 C6 1_555 1_555
C7 C1 1_555 1_555
C8 C3 1_555 1_555
O4 Ni1 1_555 1_555
O5 Ni1 1_555 1_555
N1 C5 1_555 1_555
Ni2 O4 1_555 1_555
O6 C8 1_555 1_555
O7 Ni2 1_555 1_555
O1KA C8KA 1_555 1_555
O2KA C7KA 1_555 1_555
O3KA C7KA 1_555 1_555
C1KA C2KA 1_555 1_555
C2KA H1KA 1_555 1_555
C3KA C2KA 1_555 1_555
C4KA C3KA 1_555 1_555
H2KA C4KA 1_555 1_555
C5KA C4KA 1_555 1_555
C6KA C1KA 1_555 1_555
H3KA C6KA 1_555 1_555
C7KA C1KA 1_555 1_555
C8KA C3KA 1_555 1_555
N1KA N1 1_555 1_555
O6KA C8KA 1_555 1_555
Ni2B O4 1_555 1_555
O7B Ni2B 1_555 1_555
Ni2C O3KA 1_555 1_555
O7C Ni2C 1_555 1_555
Ni2G Ni2C 1_555 1_555
O7G Ni2G 1_555 1_555
Ni1C O2KA 1_555 1_555
Ni1KA O1KA 1_555 1_555
Ni1OA O2 1_555 1_555
O1B Ni1 1_555 1_555
O2HA Ni1 1_555 1_555
O2IA Ni1 1_555 1_555
O3HA Ni2 1_555 1_555
O3IA Ni2B 1_555 1_555
O3LA Ni2G 1_555 1_555
O4C Ni2C 1_555 1_555
Ni2KA O6KA 1_555 1_555
Ni2OA O3 1_555 1_555
Ni2WA O4 1_555 1_555
Ni2ZA O4 1_555 1_555
Ni2AB O3KA 1_555 1_555
Ni2BB Ni2C 1_555 1_555
Ni2FC O6KA 1_555 1_555
Ni2IC O3 1_555 1_555
O6B Ni2B 1_555 1_555
O6C Ni2C 1_555 1_555
O6G Ni2G 1_555 1_555
O7WA Ni2B 1_555 1_555
O7ZA Ni2 1_555 1_555
O7AB Ni2C 1_555 1_555
O7BB Ni2G 1_555 1_555
C5 C6 1_555 1_555
Ni2 O6 1_555 1_555
Ni2 Ni2B 1_555 1_555
Ni2 Ni2WA 1_555 1_555
Ni2 Ni2ZA 1_555 1_555
O6 Ni2WA 1_555 1_555
O7 Ni2ZA 1_555 1_555
C5KA C6KA 1_555 1_555
C5KA N1KA 1_555 1_555
Ni2B Ni2WA 1_555 1_555
Ni2B Ni2ZA 1_555 1_555
O7B Ni2WA 1_555 1_555
Ni2C Ni2AB 1_555 1_555
O7C Ni2AB 1_555 1_555
Ni2G O4C 1_555 1_555
Ni2G Ni2AB 1_555 1_555
Ni2G Ni2BB 1_555 1_555
O7G Ni2BB 1_555 1_555
Ni1C O4C 1_555 1_555
O3HA Ni2ZA 1_555 1_555
O3IA Ni2WA 1_555 1_555
O3LA Ni2BB 1_555 1_555
O4C Ni2AB 1_555 1_555
O4C Ni2BB 1_555 1_555
Ni2KA Ni2FC 1_555 1_555
Ni2OA Ni2IC 1_555 1_555
Ni2WA Ni2ZA 1_555 1_555
Ni2WA O7WA 1_555 1_555
Ni2ZA O6B 1_555 1_555
Ni2ZA O7ZA 1_555 1_555
Ni2AB Ni2BB 1_555 1_555
Ni2AB O6G 1_555 1_555
Ni2AB O7AB 1_555 1_555
Ni2BB O6C 1_555 1_555
Ni2BB O7BB 1_555 1_555

#END
