
#######################################################################
#
#                 Cambridge Crystallographic Data Centre
#                                CCDC 
#
#######################################################################
#
# If this CIF has been generated from an entry in the Cambridge 
# Structural Database, then it will include bibliographic, chemical, 
# crystal, experimental, refinement or atomic coordinate data resulting 
# from the CCDC's data processing and validation procedures.
#
#######################################################################

data_VIXWOP09
_symmetry_cell_setting           triclinic
_symmetry_space_group_name_H-M   'P -1'
_symmetry_Int_Tables_number      2
_space_group_name_Hall           '-P 1'
loop_
_symmetry_equiv_pos_site_id
_symmetry_equiv_pos_as_xyz
1 x,y,z
2 -x,-y,-z
_cell_length_a                   11.0009(16)
_cell_length_b                   13.3437(19)
_cell_length_c                   13.4475(19)
_cell_angle_alpha                98.807(2)
_cell_angle_beta                 96.408(2)
_cell_angle_gamma                112.541(2)
_cell_volume                     1770.06
loop_
_atom_site_label
_atom_site_type_symbol
_atom_site_fract_x
_atom_site_fract_y
_atom_site_fract_z
C28 C 0.6606(8) 1.0540(8) 0.7728(7)
H33 H 0.6729 1.0639 0.8475
H34 H 0.7436 1.0573 0.7504
H35 H 0.5877 0.9817 0.7411
C29 C 0.6291(10) 1.1378(12) 0.7437(12)
H36 H 0.7004 1.2114 0.7775
H37 H 0.5437 1.1337 0.7638
C30 C 0.6150(12) 1.1200(14) 0.6173(17)
H38 H 0.5834 1.1738 0.5931
H39 H 0.7038 1.1340 0.5987
C31 C 0.5247(18) 1.0118(15) 0.5699(13)
H40 H 0.4430 0.9937 0.6004
H41 H 0.5652 0.9599 0.5851
Cu1 Cu 0.5000 0.5000 0.5000
O1 O 0.37286(19) 0.47255(16) 0.37368(15)
C1 C 0.2077(4) 0.4829(3) 0.2560(3)
F1 F 0.2886(14) 0.5395(11) 0.2000(11)
F2 F 0.1213(18) 0.5100(15) 0.2460(12)
F3 F 0.1559(9) 0.3690(9) 0.2100(8)
C2 C 0.2809(3) 0.5062(2) 0.3661(2)
C3 C 0.2403(3) 0.5601(3) 0.4434(2)
H1 H 0.1686 0.5811 0.4262
C4 C 0.3014(3) 0.5842(2) 0.5450(2)
C5 C 0.2548(4) 0.6489(4) 0.6251(3)
F7 F 0.1677(12) 0.6818(10) 0.5923(9)
F8 F 0.3659(10) 0.7474(10) 0.6720(9)
F9 F 0.2280(15) 0.6025(11) 0.7010(11)
O2 O 0.39425(19) 0.56058(16) 0.58214(15)
Cu2 Cu 1.0000 1.0000 1.0000
O3 O 0.9680(2) 0.85870(16) 1.04384(15)
C6 C 0.9671(5) 0.6841(3) 1.0479(3)
F13 F 0.8418(16) 0.6502(12) 1.0586(12)
F14 F 0.9827(15) 0.6063(10) 0.9860(10)
F15 F 1.0435(16) 0.7014(16) 1.1469(13)
C7 C 1.0205(3) 0.7946(2) 1.0128(2)
C8 C 1.1222(3) 0.8142(3) 0.9553(2)
H2 H 1.1522 0.7574 0.9363
C9 C 1.1801(3) 0.9131(3) 0.9256(2)
C10 C 1.2976(4) 0.9321(3) 0.8689(3)
F19 F 1.265(2) 0.9415(18) 0.7894(13)
F20 F 1.3990(14) 1.0319(11) 0.9041(13)
F21 F 1.3494(18) 0.859(2) 0.8725(18)
O4 O 1.1499(2) 0.99580(16) 0.93901(15)
O5 O 0.59511(19) 0.68146(17) 0.48133(15)
N1 N 0.7202(2) 0.73219(19) 0.47406(18)
C11 C 0.7614(3) 0.7483(2) 0.3730(2)
C12 C 0.6892(4) 0.6418(3) 0.2914(2)
H3 H 0.5936 0.6258 0.2762
H4 H 0.7007 0.5802 0.3165
H5 H 0.7268 0.6508 0.2290
C13 C 0.7219(4) 0.8398(3) 0.3443(3)
H6 H 0.6242 0.8108 0.3251
H7 H 0.7627 0.8645 0.2864
H8 H 0.7535 0.9027 0.4030
C14 C 0.9149(3) 0.7854(2) 0.4038(2)
C15 C 0.9599(3) 0.6900(3) 0.3960(2)
H9 H 1.0574 0.7199 0.4174
H10 H 0.9343 0.6479 0.3250
H11 H 0.9168 0.6408 0.4407
C16 C 0.9998(3) 0.8748(3) 0.3530(3)
H12 H 1.0948 0.8932 0.3770
H13 H 0.9820 0.9413 0.3708
H14 H 0.9774 0.8478 0.2786
N2 N 0.9350(2) 0.83165(19) 0.51640(18)
O6 O 1.0515(2) 0.89042(18) 0.57068(16)
C17 C 0.8200(3) 0.7926(2) 0.5531(2)
C18 C 0.8082(3) 0.8146(2) 0.6589(2)
C19 C 0.9089(3) 0.8800(2) 0.7445(2)
H15 H 1.0009 0.9175 0.7414
N3 N 0.7259(2) 0.8177(2) 0.80057(19)
N4 N 0.8595(2) 0.8830(2) 0.83002(18)
C20 C 0.6380(4) 0.7974(3) 0.8764(3)
H16 H 0.5582 0.8105 0.8518
H17 H 0.6861 0.8524 0.9412
C21 C 0.5910(15) 0.6816(11) 0.8991(12)
H18 H 0.6685 0.6623 0.9136
H19 H 0.5277 0.6265 0.8389
C22 C 0.5218(16) 0.6795(14) 0.9919(12)
H20 H 0.5555 0.6427 1.0400
H21 H 0.5445 0.7566 1.0279
C23 C 0.3748(16) 0.6200(18) 0.9617(11)
H22 H 0.3344 0.6162 1.0231
H23 H 0.3522 0.5445 0.9234
H24 H 0.3403 0.6596 0.9185
C27 C 0.6923(3) 0.7767(2) 0.6999(2)
H32 H 0.6048 0.7299 0.6628
O1A O 0.62714(19) 0.52745(16) 0.62632(15)
C1A C 0.7923(4) 0.5171(3) 0.7440(3)
F1A F 0.7114(14) 0.4605(11) 0.8000(11)
F2A F 0.8787(18) 0.4900(15) 0.7540(12)
F3A F 0.8441(9) 0.6310(9) 0.7900(8)
C2A C 0.7191(3) 0.4938(2) 0.6339(2)
C3A C 0.7597(3) 0.4399(3) 0.5566(2)
H1A H 0.8314 0.4189 0.5738
C4A C 0.6986(3) 0.4158(2) 0.4550(2)
C5A C 0.7452(4) 0.3511(4) 0.3749(3)
F7A F 0.8323(12) 0.3182(10) 0.4077(9)
F8A F 0.6341(10) 0.2526(10) 0.3280(9)
F9A F 0.7720(15) 0.3975(11) 0.2990(11)
O2A O 0.60575(19) 0.43942(16) 0.41786(15)
Cu2_2 Cu 0.0000 0.0000 0.0000
O3A O 1.0320(2) 1.14130(16) 0.95616(15)
C6A C 1.0329(5) 1.3159(3) 0.9521(3)
F13A F 1.1582(16) 1.3498(12) 0.9414(12)
F14A F 1.0173(15) 1.3937(10) 1.0140(10)
F15A F 0.9565(16) 1.2986(16) 0.8531(13)
C7A C 0.9795(3) 1.2054(2) 0.9872(2)
C8A C 0.8778(3) 1.1858(3) 1.0447(2)
H2A H 0.8478 1.2426 1.0637
C9A C 0.8199(3) 1.0869(3) 1.0744(2)
C10A C 0.7024(4) 1.0679(3) 1.1311(3)
F19A F 0.735(2) 1.0585(18) 1.2106(13)
F20A F 0.6010(14) 0.9681(11) 1.0959(13)
F21A F 0.6506(18) 1.141(2) 1.1275(18)
O4A O 0.8501(2) 1.00420(16) 1.06099(15)
O5A O 0.40489(19) 0.31854(17) 0.51867(15)
N1A N 0.2798(2) 0.26781(19) 0.52594(18)
C11A C 0.2386(3) 0.2517(2) 0.6270(2)
C12A C 0.3108(4) 0.3582(3) 0.7086(2)
H3A H 0.4064 0.3742 0.7238
H4A H 0.2993 0.4198 0.6835
H5A H 0.2732 0.3492 0.7710
C13A C 0.2781(4) 0.1602(3) 0.6557(3)
H6A H 0.3758 0.1892 0.6749
H7A H 0.2373 0.1355 0.7136
H8A H 0.2465 0.0973 0.5970
C14A C 0.0851(3) 0.2146(2) 0.5962(2)
C15A C 0.0401(3) 0.3100(3) 0.6040(2)
H9A H -0.0574 0.2801 0.5826
H10A H 0.0657 0.3521 0.6750
H11A H 0.0832 0.3592 0.5593
C16A C 0.0002(3) 0.1252(3) 0.6470(3)
H12A H -0.0948 0.1068 0.6230
H13A H 0.0180 0.0587 0.6292
H14A H 0.0226 0.1522 0.7214
N2A N 0.0650(2) 0.16835(19) 0.48360(18)
O6A O -0.0515(2) 0.10958(18) 0.42932(16)
C17A C 0.1800(3) 0.2074(2) 0.4469(2)
C18A C 0.1918(3) 0.1854(2) 0.3411(2)
C19A C 0.0911(3) 0.1200(2) 0.2555(2)
H15A H -0.0009 0.0825 0.2586
N3A N 0.2741(2) 0.1823(2) 0.19943(19)
N4A N 0.1405(2) 0.1170(2) 0.16998(18)
N4A_2 N 1.1405(2) 1.1170(2) 1.16998(18)
C20A C 0.3620(4) 0.2026(3) 0.1236(3)
H16A H 0.4418 0.1895 0.1482
H17A H 0.3139 0.1476 0.0588
C21A C 0.4090(15) 0.3184(11) 0.1009(12)
H18A H 0.3315 0.3377 0.0864
H19A H 0.4723 0.3735 0.1611
C22A C 0.4782(16) 0.3205(14) 0.0081(12)
H20A H 0.4445 0.3573 -0.0400
H21A H 0.4555 0.2434 -0.0279
C23A C 0.6252(16) 0.3800(18) 0.0383(11)
H22A H 0.6656 0.3838 -0.0231
H23A H 0.6478 0.4555 0.0766
H24A H 0.6597 0.3404 0.0815
C27A C 0.3077(3) 0.2233(2) 0.3001(2)
H32A H 0.3952 0.2701 0.3372
F4? F 0.2943(14) 0.5230(13) 0.1969(12)
F5? F 0.1065(12) 0.5274(10) 0.2474(10)
F6? F 0.1544(16) 0.3892(13) 0.2206(11)
F10? F 0.2556(17) 0.6158(15) 0.7099(11)
F11? F 0.3067(15) 0.7482(8) 0.6327(11)
F12? F 0.1170(12) 0.6185(9) 0.5940(10)
F16? F 0.9906(15) 0.6926(13) 1.1409(9)
F17? F 0.8356(14) 0.6374(12) 1.0215(12)
F18? F 1.0068(18) 0.6086(13) 1.0063(12)
F22? F 1.327(2) 0.8459(17) 0.8502(19)
F23? F 1.2708(17) 0.9466(11) 0.7657(11)
F24? F 1.4029(12) 1.0108(14) 0.9267(13)
C24? C 0.5580(10) 0.6820(10) 0.8668(8)
H25? H 0.6182 0.6440 0.8785
H26? H 0.5072 0.6509 0.7957
C25? C 0.4582(9) 0.6556(12) 0.9407(7)
H27? H 0.4035 0.6990 0.9333
H28? H 0.3968 0.5760 0.9194
C26? C 0.5186(14) 0.6788(14) 1.0513(8)
H29? H 0.4511 0.6786 1.0932
H30? H 0.5944 0.7517 1.0697
H31? H 0.5499 0.6214 1.0636
loop_
_geom_bond_atom_site_label_1
_geom_bond_atom_site_label_2
_geom_bond_site_symmetry_1
_geom_bond_site_symmetry_2
Cu1 O1 1_555 1_555
O1 C2 1_555 1_555
C1 F1 1_555 1_555
F2 C1 1_555 1_555
F3 C1 1_555 1_555
C2 C1 1_555 1_555
C3 C2 1_555 1_555
H1 C3 1_555 1_555
C4 C3 1_555 1_555
C5 C4 1_555 1_555
F7 C5 1_555 1_555
F8 C5 1_555 1_555
F9 C5 1_555 1_555
O2 Cu1 1_555 1_555
Cu2 O3 1_555 1_555
O3 C7 1_555 1_555
C6 F13 1_555 1_555
F14 C6 1_555 1_555
F15 C6 1_555 1_555
C7 C6 1_555 1_555
C8 C7 1_555 1_555
H2 C8 1_555 1_555
C9 C8 1_555 1_555
C10 C9 1_555 1_555
F19 C10 1_555 1_555
F20 C10 1_555 1_555
F21 C10 1_555 1_555
O4 Cu2 1_555 1_555
O5 Cu1 1_555 1_555
N1 O5 1_555 1_555
C11 N1 1_555 1_555
C12 C11 1_555 1_555
H3 C12 1_555 1_555
H4 C12 1_555 1_555
H5 C12 1_555 1_555
C13 C11 1_555 1_555
H6 C13 1_555 1_555
H7 C13 1_555 1_555
H8 C13 1_555 1_555
C14 C11 1_555 1_555
C15 C14 1_555 1_555
H9 C15 1_555 1_555
H10 C15 1_555 1_555
H11 C15 1_555 1_555
C16 C14 1_555 1_555
H12 C16 1_555 1_555
H13 C16 1_555 1_555
H14 C16 1_555 1_555
N2 C14 1_555 1_555
O6 N2 1_555 1_555
C17 N1 1_555 1_555
C18 C17 1_555 1_555
C19 C18 1_555 1_555
H15 C19 1_555 1_555
N3 N4 1_555 1_555
N4 Cu2 1_555 1_555
C20 N3 1_555 1_555
H16 C20 1_555 1_555
H17 C20 1_555 1_555
C21 C20 1_555 1_555
H18 C21 1_555 1_555
H19 C21 1_555 1_555
C22 C21 1_555 1_555
H20 C22 1_555 1_555
H21 C22 1_555 1_555
C23 C22 1_555 1_555
H22 C23 1_555 1_555
H23 C23 1_555 1_555
H24 C23 1_555 1_555
C27 C18 1_555 1_555
H32 C27 1_555 1_555
C28 H33 1_555 1_555
H34 C28 1_555 1_555
H35 C28 1_555 1_555
C29 C28 1_555 1_555
H36 C29 1_555 1_555
H37 C29 1_555 1_555
C30 C29 1_555 1_555
H38 C30 1_555 1_555
H39 C30 1_555 1_555
C31 C30 1_555 1_555
H40 C31 1_555 1_555
H41 C31 1_555 1_555
O1A Cu1 1_555 1_555
C1A F1A 1_555 1_555
F2A C1A 1_555 1_555
F3A C1A 1_555 1_555
C2A O1A 1_555 1_555
C3A C2A 1_555 1_555
H1A C3A 1_555 1_555
C4A C3A 1_555 1_555
C5A C4A 1_555 1_555
F7A C5A 1_555 1_555
F8A C5A 1_555 1_555
F9A C5A 1_555 1_555
O2A Cu1 1_555 1_555
Cu2_2 N4A 1_555 1_555
O3A Cu2 1_555 1_555
C6A F13A 1_555 1_555
F14A C6A 1_555 1_555
F15A C6A 1_555 1_555
C7A O3A 1_555 1_555
C8A C7A 1_555 1_555
H2A C8A 1_555 1_555
C9A C8A 1_555 1_555
C10A C9A 1_555 1_555
F19A C10A 1_555 1_555
F20A C10A 1_555 1_555
F21A C10A 1_555 1_555
O4A Cu2 1_555 1_555
O5A Cu1 1_555 1_555
N1A O5A 1_555 1_555
C11A N1A 1_555 1_555
C12A C11A 1_555 1_555
H3A C12A 1_555 1_555
H4A C12A 1_555 1_555
H5A C12A 1_555 1_555
C13A C11A 1_555 1_555
H6A C13A 1_555 1_555
H7A C13A 1_555 1_555
H8A C13A 1_555 1_555
C14A C11A 1_555 1_555
C15A C14A 1_555 1_555
H9A C15A 1_555 1_555
H10A C15A 1_555 1_555
H11A C15A 1_555 1_555
C16A C14A 1_555 1_555
H12A C16A 1_555 1_555
H13A C16A 1_555 1_555
H14A C16A 1_555 1_555
N2A C14A 1_555 1_555
O6A N2A 1_555 1_555
C17A N1A 1_555 1_555
C18A C17A 1_555 1_555
C19A C18A 1_555 1_555
H15A C19A 1_555 1_555
N3A N4A 1_555 1_555
N4A C19A 1_555 1_555
N4A_2 Cu2 1_555 1_555
C20A N3A 1_555 1_555
H16A C20A 1_555 1_555
H17A C20A 1_555 1_555
C21A C20A 1_555 1_555
H18A C21A 1_555 1_555
H19A C21A 1_555 1_555
C22A C21A 1_555 1_555
H20A C22A 1_555 1_555
H21A C22A 1_555 1_555
C23A C22A 1_555 1_555
H22A C23A 1_555 1_555
H23A C23A 1_555 1_555
H24A C23A 1_555 1_555
C27A C18A 1_555 1_555
H32A C27A 1_555 1_555
C4 O2 1_555 1_555
C9 O4 1_555 1_555
N2 C17 1_555 1_555
C19 N4 1_555 1_555
N3 C27 1_555 1_555
C1A C2A 1_555 1_555
C4A O2A 1_555 1_555
C6A C7A 1_555 1_555
C9A O4A 1_555 1_555
N2A C17A 1_555 1_555
N3A C27A 1_555 1_555

#END
