
#######################################################################
#
#                 Cambridge Crystallographic Data Centre
#                                CCDC 
#
#######################################################################
#
# If this CIF has been generated from an entry in the Cambridge 
# Structural Database, then it will include bibliographic, chemical, 
# crystal, experimental, refinement or atomic coordinate data resulting 
# from the CCDC's data processing and validation procedures.
#
#######################################################################

data_VIXZUZ
_symmetry_cell_setting           triclinic
_symmetry_space_group_name_H-M   'P -1'
_symmetry_Int_Tables_number      2
_space_group_name_Hall           '-P 1'
loop_
_symmetry_equiv_pos_site_id
_symmetry_equiv_pos_as_xyz
1 x,y,z
2 -x,-y,-z
_cell_length_a                   8.4358(18)
_cell_length_b                   10.074(2)
_cell_length_c                   15.079(3)
_cell_angle_alpha                71.071(5)
_cell_angle_beta                 87.931(6)
_cell_angle_gamma                67.631(6)
_cell_volume                     1115.33
loop_
_atom_site_label
_atom_site_type_symbol
_atom_site_fract_x
_atom_site_fract_y
_atom_site_fract_z
N1 N 0.7808(7) -0.0875(5) 1.6063(3)
H1 H 0.7171 0.0082 1.5843
O1 O 0.5753(4) 0.3292(4) 1.1242(2)
O2 O 0.7685(4) 0.1313(4) 1.0905(2)
O3 O 0.8322(5) -0.6060(4) 1.8458(2)
O4 O 0.7652(4) -0.5514(4) 1.9744(2)
O5 O 0.8027(4) 0.0913(4) 1.8799(2)
O6 O 0.9234(4) -0.1251(4) 2.0015(2)
O7 O 0.9499(8) -0.2926(5) 1.5675(3)
C1 C 0.7235(6) 0.1037(5) 1.2495(3)
C2 C 0.8492(8) -0.0429(6) 1.2802(4)
H2 H 0.9084 -0.0867 1.2369
C3 C 0.8859(10) -0.1235(6) 1.3758(4)
H3 H 0.9699 -0.2221 1.3960
C4 C 0.8020(7) -0.0624(6) 1.4417(3)
C5 C 0.6754(8) 0.0813(9) 1.4096(4)
H4 H 0.6141 0.1240 1.4528
C6 C 0.6369(8) 0.1640(8) 1.3147(4)
H5 H 0.5512 0.2618 1.2948
C7 C 0.8042(7) -0.1595(6) 1.7065(3)
C8 C 0.8069(7) -0.3041(6) 1.7482(3)
H6 H 0.8017 -0.3607 1.7112
C9 C 0.8174(6) -0.3653(5) 1.8462(3)
C10 C 0.8353(6) -0.2847(5) 1.9021(3)
H7 H 0.8474 -0.3271 1.9675
C11 C 0.8346(6) -0.1391(5) 1.8584(3)
C12 C 0.8157(7) -0.0766(5) 1.7614(3)
H8 H 0.8107 0.0220 1.7328
C13 C 0.6855(6) 0.1955(5) 1.1459(3)
C14 C 0.8039(6) -0.5156(5) 1.8906(3)
C15 C 0.8572(5) -0.0532(5) 1.9183(3)
C16 C 0.8510(9) -0.1581(7) 1.5434(4)
O8 O 0.5005(5) 0.6517(4) 1.0708(2)
N2 N 0.6638(6) 0.6875(5) 1.1703(3)
C17 C 0.6126(8) 0.6029(7) 1.1393(3)
C18 C 0.7900(11) 0.6217(9) 1.2524(5)
H9 H 0.8243 0.5131 1.2760
H10 H 0.7398 0.6633 1.3005
H11 H 0.8890 0.6456 1.2347
C19 C 0.5999(8) 0.8529(7) 1.1258(5)
H12 H 0.5178 0.8847 1.0731
H13 H 0.6945 0.8819 1.1046
H14 H 0.5455 0.9009 1.1707
Zn1 Zn 0.5000 0.5000 1.0000
Zn2 Zn 0.81853(7) 0.21036(6) 0.95824(4)
N1A N 0.2192(7) 0.0875(5) 1.3937(3)
H1A H 0.2829 -0.0082 1.4157
O1A O 0.4247(4) -0.3292(4) 1.8758(2)
O2A O 0.2315(4) -0.1313(4) 1.9095(2)
O3A O 0.1678(5) 0.6060(4) 1.1542(2)
O4A O 0.2348(4) 0.5514(4) 1.0256(2)
O5A O 0.1973(4) -0.0913(4) 1.1201(2)
O6A O 0.0766(4) 0.1251(4) 0.9985(2)
O7A O 0.0501(8) 0.2926(5) 1.4325(3)
C1A C 0.2765(6) -0.1037(5) 1.7505(3)
C2A C 0.1508(8) 0.0429(6) 1.7198(4)
H2A H 0.0916 0.0867 1.7631
C3A C 0.1141(10) 0.1235(6) 1.6242(4)
H3A H 0.0301 0.2221 1.6040
C4A C 0.1980(7) 0.0624(6) 1.5583(3)
C5A C 0.3246(8) -0.0813(9) 1.5904(4)
H4A H 0.3859 -0.1240 1.5472
C6A C 0.3631(8) -0.1640(8) 1.6853(4)
H5A H 0.4488 -0.2618 1.7052
C7A C 0.1958(7) 0.1595(6) 1.2935(3)
C8A C 0.1931(7) 0.3041(6) 1.2518(3)
H6A H 0.1983 0.3607 1.2888
C9A C 0.1826(6) 0.3653(5) 1.1538(3)
C10A C 0.1647(6) 0.2847(5) 1.0979(3)
H7A H 0.1526 0.3271 1.0325
C11A C 0.1654(6) 0.1391(5) 1.1416(3)
C12A C 0.1843(7) 0.0766(5) 1.2386(3)
H8A H 0.1893 -0.0220 1.2672
C13A C 0.3145(6) -0.1955(5) 1.8541(3)
C14A C 0.1961(6) 0.5156(5) 1.1094(3)
C15A C 0.1428(5) 0.0532(5) 1.0817(3)
C16A C 0.1490(9) 0.1581(7) 1.4566(4)
Zn2A Zn 0.18147(7) -0.21036(6) 2.04176(4)
O8A O 0.4995(5) 0.3483(4) 0.9292(2)
N2A N 0.3362(6) 0.3125(5) 0.8297(3)
C17A C 0.3874(8) 0.3971(7) 0.8607(3)
C18A C 0.2100(11) 0.3783(9) 0.7476(5)
H9A H 0.1757 0.4869 0.7240
H10A H 0.2602 0.3367 0.6995
H11A H 0.1110 0.3544 0.7653
C19A C 0.4001(8) 0.1471(7) 0.8742(5)
H12A H 0.4822 0.1153 0.9269
H13A H 0.3055 0.1181 0.8954
H14A H 0.4545 0.0991 0.8293
O1A_2 O 0.4247(4) 0.6708(4) 0.8758(2)
O3_2 O 0.8322(5) 0.3940(4) 0.8458(2)
O3A_2 O 0.1678(5) -0.3940(4) 2.1542(2)
O4_2 O 0.7652(4) 0.4486(4) 0.9744(2)
O4A_2 O 0.2348(4) -0.4486(4) 2.0256(2)
O5_2 O 0.8027(4) 0.0913(4) 0.8799(2)
O5A_2 O 0.1973(4) -0.0913(4) 2.1201(2)
O6_2 O -0.0766(4) -0.1251(4) 2.0015(2)
O6A_2 O 1.0766(4) 0.1251(4) 0.9985(2)
O8_2 O 0.5005(5) -0.3483(4) 2.0708(2)
Zn1_2 Zn 0.5000 -0.5000 2.0000
Zn2_2 Zn -0.18147(7) 0.21036(6) 0.95824(4)
Zn2_3 Zn 0.81853(7) -0.78964(6) 1.95824(4)
Zn2_4 Zn 0.81853(7) 0.21036(6) 1.95824(4)
Zn2A_2 Zn 0.18147(7) -0.21036(6) 1.04176(4)
Zn2A_3 Zn 0.18147(7) 0.78964(6) 1.04176(4)
Zn2A_4 Zn 1.18147(7) -0.21036(6) 2.04176(4)
O9 O 0.5918(15) 0.2310(7) 0.5771(5)
N3 N 0.6845(15) 0.4198(12) 0.5788(9)
C20 C 0.6857(18) 0.3129(16) 0.5386(9)
H15 H 0.7482 0.2990 0.4879
C21 C 0.7785(11) 0.5258(9) 0.5223(7)
H16 H 0.8016 0.5119 0.4624
H17 H 0.8850 0.4994 0.5576
H18 H 0.7060 0.6303 0.5127
C22 C 0.6297(13) 0.4074(12) 0.6712(5)
H19 H 0.5758 0.3355 0.6891
H20 H 0.5490 0.5052 0.6711
H21 H 0.7278 0.3734 0.7154
loop_
_geom_bond_atom_site_label_1
_geom_bond_atom_site_label_2
_geom_bond_site_symmetry_1
_geom_bond_site_symmetry_2
N1 H1 1_555 1_555
O1 C13 1_555 1_555
O2 C13 1_555 1_555
O3 C14 1_555 1_555
O4 C14 1_555 1_555
O5 C15 1_555 1_555
O6 C15 1_555 1_555
O7 C16 1_555 1_555
C1 C2 1_555 1_555
C2 H2 1_555 1_555
C3 C2 1_555 1_555
H3 C3 1_555 1_555
C4 C3 1_555 1_555
C5 C4 1_555 1_555
H4 C5 1_555 1_555
C6 C1 1_555 1_555
H5 C6 1_555 1_555
C7 N1 1_555 1_555
C8 C7 1_555 1_555
H6 C8 1_555 1_555
C9 C8 1_555 1_555
C10 C9 1_555 1_555
H7 C10 1_555 1_555
C11 C10 1_555 1_555
C12 C7 1_555 1_555
H8 C12 1_555 1_555
C13 C1 1_555 1_555
C14 C9 1_555 1_555
C15 C11 1_555 1_555
C16 N1 1_555 1_555
O8 C17 1_555 1_555
N2 C17 1_555 1_555
C18 N2 1_555 1_555
H9 C18 1_555 1_555
H10 C18 1_555 1_555
H11 C18 1_555 1_555
C19 N2 1_555 1_555
H12 C19 1_555 1_555
H13 C19 1_555 1_555
H14 C19 1_555 1_555
Zn1 O1 1_555 1_555
Zn2 O2 1_555 1_555
O9 C20 1_555 1_555
N3 C20 1_555 1_555
C20 H15 1_555 1_555
C21 N3 1_555 1_555
H16 C21 1_555 1_555
H17 C21 1_555 1_555
H18 C21 1_555 1_555
C22 N3 1_555 1_555
H19 C22 1_555 1_555
H20 C22 1_555 1_555
H21 C22 1_555 1_555
N1A H1A 1_555 1_555
O1A C13A 1_555 1_555
O2A C13A 1_555 1_555
O3A C14A 1_555 1_555
O4A Zn1 1_555 1_555
O5A C15A 1_555 1_555
O6A C15A 1_555 1_555
O7A C16A 1_555 1_555
C1A C2A 1_555 1_555
C2A H2A 1_555 1_555
C3A C2A 1_555 1_555
H3A C3A 1_555 1_555
C4A C3A 1_555 1_555
C5A C4A 1_555 1_555
H4A C5A 1_555 1_555
C6A C1A 1_555 1_555
H5A C6A 1_555 1_555
C7A N1A 1_555 1_555
C8A C7A 1_555 1_555
H6A C8A 1_555 1_555
C9A C8A 1_555 1_555
C10A C9A 1_555 1_555
H7A C10A 1_555 1_555
C11A C10A 1_555 1_555
C12A C7A 1_555 1_555
H8A C12A 1_555 1_555
C13A C1A 1_555 1_555
C14A O4A 1_555 1_555
C15A C11A 1_555 1_555
C16A N1A 1_555 1_555
Zn2A O2A 1_555 1_555
O8A Zn1 1_555 1_555
N2A C17A 1_555 1_555
C17A O8A 1_555 1_555
C18A N2A 1_555 1_555
H9A C18A 1_555 1_555
H10A C18A 1_555 1_555
H11A C18A 1_555 1_555
C19A N2A 1_555 1_555
H12A C19A 1_555 1_555
H13A C19A 1_555 1_555
H14A C19A 1_555 1_555
O1A_2 Zn1 1_555 1_555
O3_2 Zn2 1_555 1_555
O3A_2 Zn2A 1_555 1_555
O4_2 Zn1 1_555 1_555
O4A_2 Zn2A 1_555 1_555
O5_2 Zn2 1_555 1_555
O5A_2 Zn2A 1_555 1_555
O6_2 Zn2A 1_555 1_555
O6A_2 Zn2 1_555 1_555
O8_2 Zn2A 1_555 1_555
Zn1_2 O4 1_555 1_555
Zn2_2 O6A 1_555 1_555
Zn2_3 O3 1_555 1_555
Zn2_4 O5 1_555 1_555
Zn2A_2 O5A 1_555 1_555
Zn2A_3 O8 1_555 1_555
Zn2A_4 O6 1_555 1_555
O4 Zn2_3 1_555 1_555
C4 C16 1_555 1_555
C5 C6 1_555 1_555
C11 C12 1_555 1_555
O8 Zn1 1_555 1_555
Zn2 O8A 1_555 1_555
Zn2 O4_2 1_555 1_555
O1A Zn1_2 1_555 1_555
O3A Zn2A_3 1_555 1_555
O4A Zn2A_3 1_555 1_555
C4A C16A 1_555 1_555
C5A C6A 1_555 1_555
C9A C14A 1_555 1_555
C11A C12A 1_555 1_555
O4A_2 Zn1_2 1_555 1_555
O8_2 Zn1_2 1_555 1_555

#END
