
#######################################################################
#
#                 Cambridge Crystallographic Data Centre
#                                CCDC 
#
#######################################################################
#
# If this CIF has been generated from an entry in the Cambridge 
# Structural Database, then it will include bibliographic, chemical, 
# crystal, experimental, refinement or atomic coordinate data resulting 
# from the CCDC's data processing and validation procedures.
#
#######################################################################

data_VIYFUG
_symmetry_cell_setting           monoclinic
_symmetry_space_group_name_H-M   'C 2/c'
_symmetry_Int_Tables_number      15
_space_group_name_Hall           '-C 2yn'
loop_
_symmetry_equiv_pos_site_id
_symmetry_equiv_pos_as_xyz
1 x,y,z
2 -x,y,1/2-z
3 1/2+x,1/2+y,z
4 1/2-x,1/2+y,1/2-z
5 -x,-y,-z
6 x,-y,1/2+z
7 1/2-x,1/2-y,-z
8 1/2+x,1/2-y,1/2+z
_cell_length_a                   20.073(9)
_cell_length_b                   17.960(8)
_cell_length_c                   10.293(6)
_cell_angle_alpha                90
_cell_angle_beta                 94.471(10)
_cell_angle_gamma                90
_cell_volume                     3699.45
loop_
_atom_site_label
_atom_site_type_symbol
_atom_site_fract_x
_atom_site_fract_y
_atom_site_fract_z
Cd1 Cd 0.29434(4) -0.04168(4) 0.09536(6)
C1 C 0.3189(5) 0.1085(5) 0.0843(9)
C2 C 0.4056(6) 0.4103(6) -0.1625(10)
H1 H 0.3611 0.4293 -0.1519
H2 H 0.4147 0.4176 -0.2528
C3 C 0.4532(7) 0.5303(7) -0.0846(14)
H3 H 0.4223 0.5531 -0.1437
O1 O 0.2899(4) 0.0811(3) 0.1788(6)
O2 O 0.2056(5) -0.0419(5) -0.0603(8)
H4 H 0.186(4) -0.002(3) -0.060(8)
H5 H 0.2203(18) -0.048(7) -0.134(2)
O3 O 0.3478(6) -0.1049(6) -0.0615(9)
H6 H 0.340(6) -0.084(9) -0.134(8)
H7 H 0.3887(18) -0.106(11) -0.043(14)
O4 O 0.3392(4) 0.0672(4) -0.0041(6)
O5 O 0.2421(4) 0.3352(4) 0.3393(7)
O6 O 0.3846(4) -0.0609(5) 0.2494(7)
H8 H 0.3688(15) -0.071(6) 0.320(3)
H9 H 0.406(3) -0.021(3) 0.255(8)
O7 O 0.2825(4) 0.4333(4) 0.2458(6)
C4 C 0.5022(6) 0.4249(7) 0.0030(14)
H10 H 0.5065 0.3733 0.0066
C5 C 0.3290(4) 0.1924(5) 0.0770(8)
C6 C 0.4552(5) 0.4544(5) -0.0771(9)
C7 C 0.3009(4) 0.2378(5) 0.1666(8)
H11 H 0.2769 0.2171 0.2313
C8 C 0.3447(4) 0.3452(5) 0.0609(8)
H12 H 0.3506 0.3966 0.0577
C9 C 0.2757(5) 0.3637(5) 0.2532(8)
C10 C 0.3088(5) 0.3144(5) 0.1594(8)
C11 C 0.3646(4) 0.2229(5) -0.0216(8)
H13 H 0.3836 0.1917 -0.0806
C12 C 0.3719(4) 0.3003(5) -0.0324(8)
N1 N 0.4069(5) 0.3289(5) -0.1335(8)
H14 H 0.4292 0.2993 -0.1794
C1D C 0.6811(5) 0.8915(5) -0.0843(9)
C2D C 0.5944(6) 0.5897(6) 0.1625(10)
H1D H 0.6389 0.5707 0.1519
H2D H 0.5853 0.5824 0.2528
C3D C 0.5468(7) 0.4697(7) 0.0846(14)
H3D H 0.5777 0.4469 0.1437
O1D O 0.7101(4) 0.9189(3) -0.1788(6)
O4D O 0.6608(4) 0.9328(4) 0.0041(6)
O5D O 0.7579(4) 0.6648(4) -0.3393(7)
O7D O 0.7175(4) 0.5667(4) -0.2458(6)
C4D C 0.4978(6) 0.5751(7) -0.0030(14)
H10D H 0.4935 0.6267 -0.0066
C5D C 0.6710(4) 0.8076(5) -0.0770(8)
C6D C 0.5448(5) 0.5456(5) 0.0771(9)
C7D C 0.6991(4) 0.7622(5) -0.1666(8)
H11D H 0.7231 0.7829 -0.2313
C8D C 0.6553(4) 0.6548(5) -0.0609(8)
H12D H 0.6494 0.6034 -0.0577
C9D C 0.7243(5) 0.6363(5) -0.2532(8)
C10D C 0.6912(5) 0.6856(5) -0.1594(8)
C11D C 0.6354(4) 0.7771(5) 0.0216(8)
H13D H 0.6164 0.8083 0.0806
C12D C 0.6281(4) 0.6997(5) 0.0324(8)
N1D N 0.5931(5) 0.6711(5) 0.1335(8)
H14D H 0.5708 0.7007 0.1794
Cd1D Cd 0.70566(4) 1.04168(4) -0.09536(6)
O2D O 0.7944(5) 1.0419(5) 0.0603(8)
H4D H 0.814(4) 1.002(3) 0.060(8)
H5D H 0.7797(18) 1.048(7) 0.134(2)
O3D O 0.6522(6) 1.1049(6) 0.0615(9)
H6D H 0.660(6) 1.084(9) 0.134(8)
H7D H 0.6113(18) 1.106(11) 0.043(14)
O6D O 0.6154(4) 1.0609(5) -0.2494(7)
H8D H 0.6312(15) 1.071(6) -0.320(3)
H9D H 0.594(3) 1.021(3) -0.255(8)
Cd1C Cd 0.20566(4) 0.45832(4) 0.40464(6)
Cd1G Cd 0.79434(4) 0.54168(4) -0.40464(6)
O5C O 0.2579(4) -0.1648(4) 0.1607(7)
O5G O 0.7421(4) 1.1648(4) -0.1607(7)
O7C O 0.2175(4) -0.0667(4) 0.2542(6)
O7G O 0.7825(4) 1.0667(4) -0.2542(6)
O8 O 0.1692(8) 0.2069(9) 0.4185(14)
H15 H 0.186(10) 0.230(10) 0.359(14)
H16 H 0.173(12) 0.234(11) 0.484(14)
loop_
_geom_bond_atom_site_label_1
_geom_bond_atom_site_label_2
_geom_bond_site_symmetry_1
_geom_bond_site_symmetry_2
Cd1 O1 1_555 1_555
C1 O1 1_555 1_555
C2 H1 1_555 1_555
H2 C2 1_555 1_555
C3 H3 1_555 1_555
O2 Cd1 1_555 1_555
H4 O2 1_555 1_555
H5 O2 1_555 1_555
O3 Cd1 1_555 1_555
H6 O3 1_555 1_555
H7 O3 1_555 1_555
O4 Cd1 1_555 1_555
O5 C9 1_555 1_555
O6 Cd1 1_555 1_555
H8 O6 1_555 1_555
H9 O6 1_555 1_555
O7 C9 1_555 1_555
C4 H10 1_555 1_555
C5 C1 1_555 1_555
C6 C2 1_555 1_555
C7 C5 1_555 1_555
H11 C7 1_555 1_555
C8 H12 1_555 1_555
C9 C10 1_555 1_555
C10 C7 1_555 1_555
C11 C5 1_555 1_555
H13 C11 1_555 1_555
C12 C8 1_555 1_555
N1 C2 1_555 1_555
H14 N1 1_555 1_555
O8 H15 1_555 1_555
H16 O8 1_555 1_555
C1D O1D 1_555 1_555
C2D H1D 1_555 1_555
H2D C2D 1_555 1_555
C3D C4 1_555 1_555
H3D C3D 1_555 1_555
O1D Cd1D 1_555 1_555
O4D C1D 1_555 1_555
O5D C9D 1_555 1_555
O7D C9D 1_555 1_555
C4D C3 1_555 1_555
H10D C4D 1_555 1_555
C5D C1D 1_555 1_555
C6D C2D 1_555 1_555
C7D C5D 1_555 1_555
H11D C7D 1_555 1_555
C8D H12D 1_555 1_555
C9D C10D 1_555 1_555
C10D C7D 1_555 1_555
C11D C5D 1_555 1_555
H13D C11D 1_555 1_555
C12D C8D 1_555 1_555
N1D C2D 1_555 1_555
H14D N1D 1_555 1_555
Cd1D O4D 1_555 1_555
O2D Cd1D 1_555 1_555
H4D O2D 1_555 1_555
H5D O2D 1_555 1_555
O3D Cd1D 1_555 1_555
H6D O3D 1_555 1_555
H7D O3D 1_555 1_555
O6D Cd1D 1_555 1_555
H8D O6D 1_555 1_555
H9D O6D 1_555 1_555
Cd1C O5 1_555 1_555
Cd1G O5D 1_555 1_555
O5C Cd1 1_555 1_555
O5G Cd1D 1_555 1_555
O7C Cd1 1_555 1_555
O7G Cd1D 1_555 1_555
C1 O4 1_555 1_555
C3 C6 1_555 1_555
O7 Cd1C 1_555 1_555
C4 C6 1_555 1_555
C8 C10 1_555 1_555
C11 C12 1_555 1_555
C12 N1 1_555 1_555
C3D C6D 1_555 1_555
O7D Cd1G 1_555 1_555
C4D C6D 1_555 1_555
C8D C10D 1_555 1_555
C11D C12D 1_555 1_555
C12D N1D 1_555 1_555

#END
