
#######################################################################
#
#                 Cambridge Crystallographic Data Centre
#                                CCDC 
#
#######################################################################
#
# If this CIF has been generated from an entry in the Cambridge 
# Structural Database, then it will include bibliographic, chemical, 
# crystal, experimental, refinement or atomic coordinate data resulting 
# from the CCDC's data processing and validation procedures.
#
#######################################################################

data_VIYGUH
_symmetry_cell_setting           monoclinic
_symmetry_space_group_name_H-M   'C 2/c'
_symmetry_Int_Tables_number      15
_space_group_name_Hall           '-C 2yn'
loop_
_symmetry_equiv_pos_site_id
_symmetry_equiv_pos_as_xyz
1 x,y,z
2 -x,y,1/2-z
3 1/2+x,1/2+y,z
4 1/2-x,1/2+y,1/2-z
5 -x,-y,-z
6 x,-y,1/2+z
7 1/2-x,1/2-y,-z
8 1/2+x,1/2-y,1/2+z
_cell_length_a                   19.0788(13)
_cell_length_b                   10.4693(5)
_cell_length_c                   17.9157(12)
_cell_angle_alpha                90
_cell_angle_beta                 115.263(9)
_cell_angle_gamma                90
_cell_volume                     3236.26
loop_
_atom_site_label
_atom_site_type_symbol
_atom_site_fract_x
_atom_site_fract_y
_atom_site_fract_z
Zn1 Zn 1.0000 0.44724(4) 0.7500
Zn2 Zn 0.790034(16) 0.76594(3) 0.298840(18)
N1 N 0.88149(12) 0.87292(19) 0.84510(14)
N2 N 0.84104(12) 1.06979(19) 0.84904(13)
N3 N 0.95456(12) 0.6995(2) 0.82383(15)
N4 N 0.93175(12) 0.5955(2) 0.77453(14)
N5 N 0.85634(12) 0.5923(2) 0.73289(14)
N6 N 0.82703(12) 0.6951(2) 0.75440(14)
N7 N 0.91702(12) 0.43349(18) 0.62586(13)
O1 O 0.78710(11) 0.62155(18) 0.36379(12)
O2 O 0.91500(13) 0.6293(2) 0.42496(14)
C1 C 0.90191(14) 0.8987(2) 0.92828(17)
C2 C 0.93934(16) 0.8268(3) 0.99860(18)
H1 H 0.9568 0.7445 0.9966
C3 C 0.94963(17) 0.8834(3) 1.07231(19)
H2 H 0.9744 0.8382 1.1214
C4 C 0.92331(17) 1.0073(3) 1.07420(19)
H3 H 0.9308 1.0425 1.1247
C5 C 0.88683(16) 1.0788(3) 1.00388(18)
H4 H 0.8702 1.1616 1.0060
C6 C 0.87570(14) 1.0229(2) 0.92965(16)
C7 C 0.84566(15) 0.9778(2) 0.80175(17)
H5 H 0.8264 0.9841 0.7446
C8 C 0.88876(15) 0.7568(2) 0.80909(17)
C9 C 0.91606(14) 0.4954(2) 0.56067(16)
H6 H 0.9618 0.5324 0.5646
C10 C 0.85022(15) 0.5074(2) 0.48737(16)
C11 C 0.85330(17) 0.5907(3) 0.42039(17)
O3 O 0.92091(10) 0.31034(16) 0.75683(11)
C12 C 0.85093(14) 0.3779(2) 0.61864(16)
C13 C 0.78333(15) 0.3839(2) 0.54756(16)
H7 H 0.7386 0.3440 0.5444
C14 C 0.85709(15) 0.3130(2) 0.69582(16)
C15 C 0.78329(16) 0.4499(2) 0.48137(17)
H8 H 0.7382 0.4556 0.4327
O4 O 0.79493(11) 0.26560(17) 0.69353(11)
Zn2A Zn 1.209966(16) 0.76594(3) 1.201160(18)
N1A N 1.11851(12) 0.87292(19) 0.65490(14)
N2A N 1.15896(12) 1.06979(19) 0.65096(13)
N3A N 1.04544(12) 0.6995(2) 0.67617(15)
N4A N 1.06825(12) 0.5955(2) 0.72547(14)
N5A N 1.14366(12) 0.5923(2) 0.76711(14)
N6A N 1.17297(12) 0.6951(2) 0.74560(14)
N7A N 1.08298(12) 0.43349(18) 0.87414(13)
O1A O 1.21290(11) 0.62155(18) 1.13621(12)
O2A O 1.08500(13) 0.6293(2) 1.07504(14)
C1A C 1.09809(14) 0.8987(2) 0.57172(17)
C2A C 1.06066(16) 0.8268(3) 0.50140(18)
H1A H 1.0432 0.7445 0.5034
C3A C 1.05037(17) 0.8834(3) 0.42769(19)
H2A H 1.0256 0.8382 0.3786
C4A C 1.07669(17) 1.0073(3) 0.42580(19)
H3A H 1.0692 1.0425 0.3753
C5A C 1.11317(16) 1.0788(3) 0.49612(18)
H4A H 1.1298 1.1616 0.4940
C6A C 1.12430(14) 1.0229(2) 0.57035(16)
C7A C 1.15434(15) 0.9778(2) 0.69825(17)
H5A H 1.1736 0.9841 0.7554
C8A C 1.11124(15) 0.7568(2) 0.69091(17)
C9A C 1.08394(14) 0.4954(2) 0.93933(16)
H6A H 1.0382 0.5324 0.9354
C10A C 1.14978(15) 0.5074(2) 1.01263(16)
C11A C 1.14670(17) 0.5907(3) 1.07961(17)
O3A O 1.07909(10) 0.31034(16) 0.74317(11)
C12A C 1.14907(14) 0.3779(2) 0.88136(16)
C13A C 1.21667(15) 0.3839(2) 0.95244(16)
H7A H 1.2614 0.3440 0.9556
C14A C 1.14291(15) 0.3130(2) 0.80418(16)
C15A C 1.21671(16) 0.4499(2) 1.01863(17)
H8A H 1.2618 0.4556 1.0673
O4A O 1.20507(11) 0.26560(17) 0.80647(11)
Zn2D Zn 1.209966(16) 0.23406(3) 0.701160(18)
Zn2D_2 Zn 1.209966(16) 1.23406(3) 0.701160(18)
Zn2E Zn 0.790034(16) 0.23406(3) 0.798840(18)
Zn2E_2 Zn 0.790034(16) 1.23406(3) 0.798840(18)
Zn2F Zn 0.709966(16) 0.73406(3) 0.701160(18)
Zn2G Zn 1.290034(16) 0.73406(3) 0.798840(18)
N2D N 1.15896(12) 0.93021(19) 1.15096(13)
N2E N 0.84104(12) 0.93021(19) 0.34904(13)
N6F N 0.67297(12) 0.8049(2) 0.24560(14)
N6G N 1.32703(12) 0.8049(2) 1.25440(14)
O4D O 1.20507(11) 0.73440(17) 1.30647(11)
O4E O 0.79493(11) 0.73440(17) 0.19353(11)
loop_
_geom_bond_atom_site_label_1
_geom_bond_atom_site_label_2
_geom_bond_site_symmetry_1
_geom_bond_site_symmetry_2
Zn1 N4 1_555 1_555
Zn2 O1 1_555 1_555
N1 C1 1_555 1_555
N2 C6 1_555 1_555
N3 N4 1_555 1_555
N4 N5 1_555 1_555
N5 N6 1_555 1_555
N6 C8 1_555 1_555
N7 Zn1 1_555 1_555
O1 C11 1_555 1_555
O2 C11 1_555 1_555
C1 C2 1_555 1_555
C2 H1 1_555 1_555
C3 C2 1_555 1_555
H2 C3 1_555 1_555
C4 C3 1_555 1_555
H3 C4 1_555 1_555
C5 C4 1_555 1_555
H4 C5 1_555 1_555
C6 C1 1_555 1_555
C7 N1 1_555 1_555
H5 C7 1_555 1_555
C8 N1 1_555 1_555
C9 N7 1_555 1_555
H6 C9 1_555 1_555
C10 C9 1_555 1_555
C11 C10 1_555 1_555
O3 Zn1 1_555 1_555
C12 N7 1_555 1_555
C13 C12 1_555 1_555
H7 C13 1_555 1_555
C14 O3 1_555 1_555
C15 C10 1_555 1_555
H8 C15 1_555 1_555
O4 C14 1_555 1_555
Zn2A O1A 1_555 1_555
N1A C1A 1_555 1_555
N2A C6A 1_555 1_555
N3A N4A 1_555 1_555
N4A Zn1 1_555 1_555
N5A N4A 1_555 1_555
N6A N5A 1_555 1_555
N7A Zn1 1_555 1_555
O1A C11A 1_555 1_555
O2A C11A 1_555 1_555
C1A C2A 1_555 1_555
C2A H1A 1_555 1_555
C3A C2A 1_555 1_555
H2A C3A 1_555 1_555
C4A C3A 1_555 1_555
H3A C4A 1_555 1_555
C5A C4A 1_555 1_555
H4A C5A 1_555 1_555
C6A C1A 1_555 1_555
C7A N1A 1_555 1_555
H5A C7A 1_555 1_555
C8A N1A 1_555 1_555
C9A N7A 1_555 1_555
H6A C9A 1_555 1_555
C10A C9A 1_555 1_555
C11A C10A 1_555 1_555
O3A Zn1 1_555 1_555
C12A N7A 1_555 1_555
C13A C12A 1_555 1_555
H7A C13A 1_555 1_555
C14A O3A 1_555 1_555
C15A C10A 1_555 1_555
H8A C15A 1_555 1_555
O4A C14A 1_555 1_555
Zn2D O4A 1_555 1_555
Zn2D_2 N2A 1_555 1_555
Zn2E O4 1_555 1_555
Zn2E_2 N2 1_555 1_555
Zn2F N6 1_555 1_555
Zn2G N6A 1_555 1_555
N2D Zn2A 1_555 1_555
N2E Zn2 1_555 1_555
N6F Zn2 1_555 1_555
N6G Zn2A 1_555 1_555
O4D Zn2A 1_555 1_555
O4E Zn2 1_555 1_555
N2 C7 1_555 1_555
N3 C8 1_555 1_555
C5 C6 1_555 1_555
C12 C14 1_555 1_555
C13 C15 1_555 1_555
N2A C7A 1_555 1_555
N3A C8A 1_555 1_555
N6A C8A 1_555 1_555
C5A C6A 1_555 1_555
C12A C14A 1_555 1_555
C13A C15A 1_555 1_555

#END
