
#######################################################################
#
#                 Cambridge Crystallographic Data Centre
#                                CCDC 
#
#######################################################################
#
# If this CIF has been generated from an entry in the Cambridge 
# Structural Database, then it will include bibliographic, chemical, 
# crystal, experimental, refinement or atomic coordinate data resulting 
# from the CCDC's data processing and validation procedures.
#
#######################################################################

data_VIYGAN
_symmetry_cell_setting           monoclinic
_symmetry_space_group_name_H-M   'P 2/c'
_symmetry_Int_Tables_number      13
_space_group_name_Hall           '-P 2yc'
loop_
_symmetry_equiv_pos_site_id
_symmetry_equiv_pos_as_xyz
1 x,y,z
2 -x,y,1/2-z
3 -x,-y,-z
4 x,-y,1/2+z
_cell_length_a                   10.235(5)
_cell_length_b                   9.554(5)
_cell_length_c                   24.242(9)
_cell_angle_alpha                90
_cell_angle_beta                 112.620(16)
_cell_angle_gamma                90
_cell_volume                     2188.16
loop_
_atom_site_label
_atom_site_type_symbol
_atom_site_fract_x
_atom_site_fract_y
_atom_site_fract_z
Cd1 Cd 0.07318(3) 0.83781(3) 0.181712(13)
O1 O 0.1841(4) 0.6598(3) 0.1483(2)
O2 O 0.3152(3) 0.8457(3) 0.18299(16)
O3 O 0.8380(3) 0.8254(3) 0.21421(13)
O4 O 0.8894(3) 0.6789(3) 0.15449(18)
N1 N -0.0486(4) 0.9575(4) 0.09004(17)
N2 N 0.0935(4) 1.0800(4) 0.19677(16)
N3 N 0.4766(4) 0.3349(4) 0.0760(2)
H1 H 0.3939 0.2976 0.0646
C1 C -0.1187(6) 0.8920(8) 0.0378(3)
H2 H -0.1221 0.7947 0.0370
C2 C -0.1872(6) 0.9673(10) -0.0159(2)
H3 H -0.2340 0.9203 -0.0517
C3 C -0.1835(7) 1.1094(10) -0.0142(3)
H4 H -0.2291 1.1608 -0.0489
C4 C -0.1125(6) 1.1765(7) 0.0388(2)
H5 H -0.1092 1.2738 0.0401
C5 C -0.0446(5) 1.0987(5) 0.0910(2)
C6 C 0.0347(5) 1.1666(5) 0.1486(2)
C7 C 0.0557(9) 1.3129(6) 0.1559(3)
H6 H 0.0162 1.3723 0.1233
C8 C 0.1336(12) 1.3666(7) 0.2107(4)
H7 H 0.1481 1.4627 0.2156
C9 C 0.1894(11) 1.2800(7) 0.2574(3)
H8 H 0.2412 1.3159 0.2952
C10 C 0.1696(7) 1.1360(5) 0.2492(2)
H9 H 0.2117 1.0771 0.2818
C11 C 0.3000(4) 0.7244(4) 0.16214(19)
C12 C 0.4206(4) 0.6547(4) 0.15166(18)
C13 C 0.5555(4) 0.7160(4) 0.17287(16)
H10 H 0.5727 0.7982 0.1951
C14 C 0.6638(4) 0.6523(4) 0.16028(16)
C15 C 0.6387(4) 0.5288(4) 0.12759(18)
H11 H 0.7113 0.4889 0.1188
C16 C 0.5058(4) 0.4629(4) 0.1076(2)
C17 C 0.3971(4) 0.5289(4) 0.1199(2)
H12 H 0.3078 0.4880 0.1066
C18 C 0.5898(5) 0.2667(5) 0.0627(2)
H13 H 0.6705 0.2507 0.0996
H14 H 0.6196 0.3282 0.0379
C19 C 0.5408(4) 0.1280(4) 0.0305(2)
C20 C 0.4706(5) 0.1245(4) -0.0311(2)
H15 H 0.4502 0.2079 -0.0525
C21 C 0.5699(5) 0.0027(5) 0.06164(19)
H16 H 0.6165 0.0031 0.1030
C22 C 0.8064(4) 0.7221(4) 0.17813(18)
O1B O 0.8159(4) -0.6598(3) -0.1483(2)
O2B O 0.6848(3) -0.8457(3) -0.18299(16)
O3B O 0.1620(3) -0.8254(3) -0.21421(13)
O4B O 0.1106(3) -0.6789(3) -0.15449(18)
N3B N 0.5234(4) -0.3349(4) -0.0760(2)
H1B H 0.6061 -0.2976 -0.0646
C11B C 0.7000(4) -0.7244(4) -0.16214(19)
C12B C 0.5794(4) -0.6547(4) -0.15166(18)
C13B C 0.4445(4) -0.7160(4) -0.17287(16)
H10B H 0.4273 -0.7982 -0.1951
C14B C 0.3362(4) -0.6523(4) -0.16028(16)
C15B C 0.3613(4) -0.5288(4) -0.12759(18)
H11B H 0.2887 -0.4889 -0.1188
C16B C 0.4942(4) -0.4629(4) -0.1076(2)
C17B C 0.6029(4) -0.5289(4) -0.1199(2)
H12B H 0.6922 -0.4880 -0.1066
C18B C 0.4102(5) -0.2667(5) -0.0627(2)
H13B H 0.3295 -0.2507 -0.0996
H14B H 0.3804 -0.3282 -0.0379
C19B C 0.4592(4) -0.1280(4) -0.0305(2)
C20B C 0.5294(5) -0.1245(4) 0.0311(2)
H15B H 0.5498 -0.2079 0.0525
C21B C 0.4301(5) -0.0027(5) -0.06164(19)
H16B H 0.3835 -0.0031 -0.1030
C22B C 0.1936(4) -0.7221(4) -0.17813(18)
Cd1A Cd 0.92682(3) 0.83781(3) 0.318288(13)
N1A N 1.0486(4) 0.9575(4) 0.40996(17)
N2A N 0.9065(4) 1.0800(4) 0.30323(16)
C1A C 1.1187(6) 0.8920(8) 0.4622(3)
H2A H 1.1221 0.7947 0.4630
C2A C 1.1872(6) 0.9673(10) 0.5159(2)
H3A H 1.2340 0.9203 0.5517
C3A C 1.1835(7) 1.1094(10) 0.5142(3)
H4A H 1.2291 1.1608 0.5489
C4A C 1.1125(6) 1.1765(7) 0.4612(2)
H5A H 1.1092 1.2738 0.4599
C5A C 1.0446(5) 1.0987(5) 0.4090(2)
C6A C 0.9653(5) 1.1666(5) 0.3514(2)
C7A C 0.9443(9) 1.3129(6) 0.3441(3)
H6A H 0.9838 1.3723 0.3767
C8A C 0.8664(12) 1.3666(7) 0.2893(4)
H7A H 0.8519 1.4627 0.2844
C9A C 0.8106(11) 1.2800(7) 0.2426(3)
H8A H 0.7588 1.3159 0.2048
C10A C 0.8304(7) 1.1360(5) 0.2508(2)
H9A H 0.7883 1.0771 0.2182
Cd1_2 Cd 1.07318(3) 0.83781(3) 0.181712(13)
Cd1B Cd -0.07318(3) -0.83781(3) -0.181712(13)
Cd1B_2 Cd 0.92682(3) -0.83781(3) -0.181712(13)
Cd1C Cd 0.07318(3) -0.83781(3) -0.318288(13)
O1A O 0.8159(4) 0.6598(3) 0.3517(2)
O2A O 0.6848(3) 0.8457(3) 0.31701(16)
O3A O 0.1620(3) 0.8254(3) 0.28579(13)
O4_2 O -0.1106(3) 0.6789(3) 0.15449(18)
O4A O 1.1106(3) 0.6789(3) 0.34551(18)
O5 O -0.0230(11) 0.4683(10) 0.9716(4)
O6 O 0.2116(11) 0.4483(7) 0.9712(3)
H17 H 0.256(12) 0.386(9) 0.998(3)
H18 H 0.201(11) 0.404(9) 0.938(2)
O7 O 0.4308(9) 0.1338(7) 0.1796(4)
loop_
_geom_bond_atom_site_label_1
_geom_bond_atom_site_label_2
_geom_bond_site_symmetry_1
_geom_bond_site_symmetry_2
Cd1 O1 1_555 1_555
O1 C11 1_555 1_555
O2 Cd1 1_555 1_555
O3 C22 1_555 1_555
O4 C22 1_555 1_555
N1 Cd1 1_555 1_555
N2 Cd1 1_555 1_555
N3 H1 1_555 1_555
C1 N1 1_555 1_555
H2 C1 1_555 1_555
C2 C1 1_555 1_555
H3 C2 1_555 1_555
C3 C2 1_555 1_555
H4 C3 1_555 1_555
C4 C3 1_555 1_555
H5 C4 1_555 1_555
C5 N1 1_555 1_555
C6 N2 1_555 1_555
C7 C6 1_555 1_555
H6 C7 1_555 1_555
C8 C7 1_555 1_555
H7 C8 1_555 1_555
C9 C8 1_555 1_555
H8 C9 1_555 1_555
C10 N2 1_555 1_555
H9 C10 1_555 1_555
C11 O2 1_555 1_555
C12 C11 1_555 1_555
C13 C12 1_555 1_555
H10 C13 1_555 1_555
C14 C13 1_555 1_555
C15 C14 1_555 1_555
H11 C15 1_555 1_555
C16 N3 1_555 1_555
C17 C12 1_555 1_555
H12 C17 1_555 1_555
C18 N3 1_555 1_555
H13 C18 1_555 1_555
H14 C18 1_555 1_555
C19 C18 1_555 1_555
C20 C19 1_555 1_555
H15 C20 1_555 1_555
C21 C19 1_555 1_555
H16 C21 1_555 1_555
C22 C14 1_555 1_555
O6 H17 1_555 1_555
H18 O6 1_555 1_555
O1B C11B 1_555 1_555
O2B C11B 1_555 1_555
O3B C22B 1_555 1_555
O4B C22B 1_555 1_555
N3B H1B 1_555 1_555
C11B C12B 1_555 1_555
C12B C13B 1_555 1_555
C13B H10B 1_555 1_555
C14B C13B 1_555 1_555
C15B C14B 1_555 1_555
H11B C15B 1_555 1_555
C16B N3B 1_555 1_555
C17B C12B 1_555 1_555
H12B C17B 1_555 1_555
C18B N3B 1_555 1_555
H13B C18B 1_555 1_555
H14B C18B 1_555 1_555
C19B C18B 1_555 1_555
C20B C21 1_555 1_555
H15B C20B 1_555 1_555
C21B C20 1_555 1_555
H16B C21B 1_555 1_555
C22B C14B 1_555 1_555
Cd1A O3 1_555 1_555
N1A Cd1A 1_555 1_555
N2A Cd1A 1_555 1_555
C1A N1A 1_555 1_555
H2A C1A 1_555 1_555
C2A C1A 1_555 1_555
H3A C2A 1_555 1_555
C3A C2A 1_555 1_555
H4A C3A 1_555 1_555
C4A C3A 1_555 1_555
H5A C4A 1_555 1_555
C5A N1A 1_555 1_555
C6A N2A 1_555 1_555
C7A C6A 1_555 1_555
H6A C7A 1_555 1_555
C8A C7A 1_555 1_555
H7A C8A 1_555 1_555
C9A C8A 1_555 1_555
H8A C9A 1_555 1_555
C10A N2A 1_555 1_555
H9A C10A 1_555 1_555
Cd1_2 O4 1_555 1_555
Cd1B O4B 1_555 1_555
Cd1B_2 O1B 1_555 1_555
Cd1C O3B 1_555 1_555
O1A Cd1A 1_555 1_555
O2A Cd1A 1_555 1_555
O3A Cd1 1_555 1_555
O4_2 Cd1 1_555 1_555
O4A Cd1A 1_555 1_555
C4 C5 1_555 1_555
C5 C6 1_555 1_555
C9 C10 1_555 1_555
C15 C16 1_555 1_555
C16 C17 1_555 1_555
O2B Cd1B_2 1_555 1_555
C15B C16B 1_555 1_555
C16B C17B 1_555 1_555
C19B C20B 1_555 1_555
C19B C21B 1_555 1_555
C4A C5A 1_555 1_555
C5A C6A 1_555 1_555
C9A C10A 1_555 1_555

#END
