
#######################################################################
#
#                 Cambridge Crystallographic Data Centre
#                                CCDC 
#
#######################################################################
#
# If this CIF has been generated from an entry in the Cambridge 
# Structural Database, then it will include bibliographic, chemical, 
# crystal, experimental, refinement or atomic coordinate data resulting 
# from the CCDC's data processing and validation procedures.
#
#######################################################################

data_VIYJUK
_symmetry_cell_setting           monoclinic
_symmetry_space_group_name_H-M   'P 21/c'
_symmetry_Int_Tables_number      14
_space_group_name_Hall           '-P 2ybc'
loop_
_symmetry_equiv_pos_site_id
_symmetry_equiv_pos_as_xyz
1 x,y,z
2 -x,1/2+y,1/2-z
3 -x,-y,-z
4 x,1/2-y,1/2+z
_cell_length_a                   10.746(4)
_cell_length_b                   15.840(5)
_cell_length_c                   15.859(6)
_cell_angle_alpha                90
_cell_angle_beta                 130.94(4)
_cell_angle_gamma                90
_cell_volume                     2039.17
loop_
_atom_site_label
_atom_site_type_symbol
_atom_site_fract_x
_atom_site_fract_y
_atom_site_fract_z
Cu1 Cu 0.19903(4) 0.54797(2) 0.44676(3)
O1 O 0.2454(2) 0.60871(12) 0.57365(16)
O2 O 0.4380(2) 0.68045(13) 0.58832(16)
O3 O 0.7523(3) 0.91115(14) 0.8843(2)
O4 O 0.6579(2) 0.95058(11) 0.96891(16)
O5 O -0.0302(2) 0.47566(13) 0.38944(18)
H1 H -0.0047 0.4352 0.4336
H2 H -0.1117 0.4835 0.3861
N1 N 0.0421(3) 0.63957(14) 0.3380(2)
N2 N 0.2105(3) 0.52767(13) 0.32309(19)
N3 N 0.2857(3) 0.71091(14) 0.8926(2)
H3 H 0.2726 0.7485 0.9253
C1 C -0.0416(4) 0.69412(18) 0.3480(3)
H4 H -0.0292 0.6919 0.4118
C2 C -0.1484(4) 0.7552(2) 0.2660(3)
H5 H -0.2060 0.7918 0.2755
C3 C -0.1667(4) 0.7601(2) 0.1720(3)
H6 H -0.2355 0.8006 0.1178
C4 C -0.0801(4) 0.7030(2) 0.1581(3)
C5 C 0.0217(3) 0.64290(17) 0.2439(2)
C6 C 0.1140(3) 0.58323(17) 0.2361(2)
C7 C 0.1070(4) 0.58518(19) 0.1445(2)
C8 C 0.0017(5) 0.6465(2) 0.0581(3)
H7 H -0.0050 0.6480 -0.0033
C9 C -0.0883(5) 0.7023(2) 0.0641(3)
H8 H -0.1564 0.7406 0.0063
C10 C 0.2064(4) 0.5268(2) 0.1449(3)
H9 H 0.2060 0.5256 0.0861
C11 C 0.3039(4) 0.4719(2) 0.2327(3)
H10 H 0.3698 0.4332 0.2335
C12 C 0.3040(4) 0.47412(18) 0.3210(2)
H11 H 0.3717 0.4369 0.3803
C13 C 0.3591(3) 0.66548(16) 0.6187(2)
C14 C 0.3966(3) 0.71500(16) 0.7152(2)
C15 C 0.3258(3) 0.68906(17) 0.7594(2)
H12 H 0.2578 0.6418 0.7302
C16 C 0.3565(3) 0.73375(16) 0.8478(2)
C17 C 0.2313(4) 0.62412(18) 0.8844(3)
H13 H 0.1497 0.6088 0.8062
H14 H 0.1783 0.6220 0.9157
C18 C 0.3696(4) 0.55948(18) 0.9439(3)
C19 C 0.5152(5) 0.5732(2) 1.0514(3)
H15 H 0.5284 0.6228 1.0880
C20 C 0.3575(5) 0.4854(2) 0.8941(3)
H16 H 0.2612 0.4742 0.8216
C21 C 0.6571(3) 0.90379(17) 0.9027(2)
C22 C 0.5346(3) 0.83078(16) 0.8480(2)
C23 C 0.4587(3) 0.80574(16) 0.8891(2)
H17 H 0.4760 0.8374 0.9454
C24 C 0.5033(3) 0.78471(16) 0.7604(2)
H18 H 0.5532 0.8003 0.7321
O1B O 0.7546(2) 0.39129(12) 1.42635(16)
O2B O 0.5620(2) 0.31955(13) 1.41168(16)
O3B O 0.2477(3) 0.08885(14) 1.1157(2)
O4B O 0.3421(2) 0.04942(11) 1.03109(16)
N3B N 0.7143(3) 0.28909(14) 1.1074(2)
H3B H 0.7274 0.2515 1.0747
C13B C 0.6409(3) 0.33452(16) 1.3813(2)
C14B C 0.6034(3) 0.28500(16) 1.2848(2)
C15B C 0.6742(3) 0.31094(17) 1.2406(2)
H12B H 0.7422 0.3582 1.2698
C16B C 0.6435(3) 0.26625(16) 1.1522(2)
C17B C 0.7687(4) 0.37588(18) 1.1156(3)
H13B H 0.8503 0.3912 1.1938
H14B H 0.8217 0.3780 1.0843
C18B C 0.6304(4) 0.44052(18) 1.0561(3)
C19B C 0.4848(5) 0.4268(2) 0.9486(3)
H15B H 0.4716 0.3772 0.9120
C20B C 0.6425(5) 0.5146(2) 1.1059(3)
H16B H 0.7388 0.5258 1.1784
C21B C 0.3429(3) 0.09621(17) 1.0973(2)
C22B C 0.4654(3) 0.16922(16) 1.1520(2)
C23B C 0.5413(3) 0.19426(16) 1.1109(2)
H17B H 0.5240 0.1626 1.0546
C24B C 0.4967(3) 0.21529(16) 1.2396(2)
H18B H 0.4468 0.1997 1.2679
Cu1B Cu 0.80097(4) 0.45203(2) 1.55324(3)
O5B O 1.0302(2) 0.52434(13) 1.61056(18)
H1B H 1.0047 0.5648 1.5664
H2B H 1.1117 0.5165 1.6139
N1B N 0.9579(3) 0.36043(14) 1.6620(2)
N2B N 0.7895(3) 0.47233(13) 1.67691(19)
C1B C 1.0416(4) 0.30588(18) 1.6520(3)
H4B H 1.0292 0.3081 1.5882
C2B C 1.1484(4) 0.2448(2) 1.7340(3)
H5B H 1.2060 0.2082 1.7245
C3B C 1.1667(4) 0.2399(2) 1.8280(3)
H6B H 1.2355 0.1994 1.8822
C4B C 1.0801(4) 0.2970(2) 1.8419(3)
C5B C 0.9783(3) 0.35710(17) 1.7561(2)
C6B C 0.8860(3) 0.41677(17) 1.7639(2)
C7B C 0.8930(4) 0.41482(19) 1.8555(2)
C8B C 0.9983(5) 0.3535(2) 1.9419(3)
H7B H 1.0050 0.3520 2.0033
C9B C 1.0883(5) 0.2977(2) 1.9359(3)
H8B H 1.1564 0.2594 1.9937
C10B C 0.7936(4) 0.4732(2) 1.8551(3)
H9B H 0.7940 0.4744 1.9139
C11B C 0.6961(4) 0.5281(2) 1.7673(3)
H10B H 0.6302 0.5668 1.7665
C12B C 0.6960(4) 0.52588(18) 1.6790(2)
H11B H 0.6283 0.5631 1.6197
Cu1A Cu 0.80097(4) 1.04797(2) 1.05324(3)
Cu1C Cu 0.19903(4) -0.04797(2) 0.94676(3)
O4A O 0.3421(2) 0.45058(11) 0.53109(16)
O4C O 0.6579(2) 0.54942(11) 1.46891(16)
loop_
_geom_bond_atom_site_label_1
_geom_bond_atom_site_label_2
_geom_bond_site_symmetry_1
_geom_bond_site_symmetry_2
Cu1 O1 1_555 1_555
O1 C13 1_555 1_555
O2 C13 1_555 1_555
O3 C21 1_555 1_555
O4 C21 1_555 1_555
O5 Cu1 1_555 1_555
H1 O5 1_555 1_555
H2 O5 1_555 1_555
N1 Cu1 1_555 1_555
N2 Cu1 1_555 1_555
N3 H3 1_555 1_555
C1 N1 1_555 1_555
H4 C1 1_555 1_555
C2 C1 1_555 1_555
H5 C2 1_555 1_555
C3 C2 1_555 1_555
H6 C3 1_555 1_555
C4 C3 1_555 1_555
C5 N1 1_555 1_555
C6 N2 1_555 1_555
C7 C6 1_555 1_555
C8 C7 1_555 1_555
H7 C8 1_555 1_555
C9 C4 1_555 1_555
H8 C9 1_555 1_555
C10 C7 1_555 1_555
H9 C10 1_555 1_555
C11 C10 1_555 1_555
H10 C11 1_555 1_555
C12 N2 1_555 1_555
H11 C12 1_555 1_555
C13 C14 1_555 1_555
C14 C15 1_555 1_555
C15 H12 1_555 1_555
C16 N3 1_555 1_555
C17 N3 1_555 1_555
H13 C17 1_555 1_555
H14 C17 1_555 1_555
C18 C17 1_555 1_555
C19 C18 1_555 1_555
H15 C19 1_555 1_555
C20 C18 1_555 1_555
H16 C20 1_555 1_555
C21 C22 1_555 1_555
C22 C23 1_555 1_555
C23 C16 1_555 1_555
H17 C23 1_555 1_555
C24 C14 1_555 1_555
H18 C24 1_555 1_555
O1B C13B 1_555 1_555
O2B C13B 1_555 1_555
O3B C21B 1_555 1_555
O4B C21B 1_555 1_555
N3B H3B 1_555 1_555
C13B C14B 1_555 1_555
C14B C15B 1_555 1_555
C15B H12B 1_555 1_555
C16B N3B 1_555 1_555
C17B N3B 1_555 1_555
H13B C17B 1_555 1_555
H14B C17B 1_555 1_555
C18B C17B 1_555 1_555
C19B C20 1_555 1_555
H15B C19B 1_555 1_555
C20B C19 1_555 1_555
H16B C20B 1_555 1_555
C21B C22B 1_555 1_555
C22B C23B 1_555 1_555
C23B C16B 1_555 1_555
H17B C23B 1_555 1_555
C24B C14B 1_555 1_555
H18B C24B 1_555 1_555
Cu1B O1B 1_555 1_555
O5B Cu1B 1_555 1_555
H1B O5B 1_555 1_555
H2B O5B 1_555 1_555
N1B Cu1B 1_555 1_555
N2B Cu1B 1_555 1_555
C1B N1B 1_555 1_555
H4B C1B 1_555 1_555
C2B C1B 1_555 1_555
H5B C2B 1_555 1_555
C3B C2B 1_555 1_555
H6B C3B 1_555 1_555
C4B C3B 1_555 1_555
C5B N1B 1_555 1_555
C6B N2B 1_555 1_555
C7B C6B 1_555 1_555
C8B C7B 1_555 1_555
H7B C8B 1_555 1_555
C9B C4B 1_555 1_555
H8B C9B 1_555 1_555
C10B C7B 1_555 1_555
H9B C10B 1_555 1_555
C11B C10B 1_555 1_555
H10B C11B 1_555 1_555
C12B N2B 1_555 1_555
H11B C12B 1_555 1_555
Cu1A O4 1_555 1_555
Cu1C O4B 1_555 1_555
O4A Cu1 1_555 1_555
O4C Cu1B 1_555 1_555
C4 C5 1_555 1_555
C5 C6 1_555 1_555
C8 C9 1_555 1_555
C11 C12 1_555 1_555
C15 C16 1_555 1_555
C22 C24 1_555 1_555
C15B C16B 1_555 1_555
C18B C19B 1_555 1_555
C18B C20B 1_555 1_555
C22B C24B 1_555 1_555
C4B C5B 1_555 1_555
C5B C6B 1_555 1_555
C8B C9B 1_555 1_555
C11B C12B 1_555 1_555

#END
