
#######################################################################
#
#                 Cambridge Crystallographic Data Centre
#                                CCDC 
#
#######################################################################
#
# If this CIF has been generated from an entry in the Cambridge 
# Structural Database, then it will include bibliographic, chemical, 
# crystal, experimental, refinement or atomic coordinate data resulting 
# from the CCDC's data processing and validation procedures.
#
#######################################################################

data_VIYJIY
_symmetry_cell_setting           monoclinic
_symmetry_space_group_name_H-M   'C 2/c'
_symmetry_Int_Tables_number      15
_space_group_name_Hall           '-C 2yn'
loop_
_symmetry_equiv_pos_site_id
_symmetry_equiv_pos_as_xyz
1 x,y,z
2 -x,y,1/2-z
3 1/2+x,1/2+y,z
4 1/2-x,1/2+y,1/2-z
5 -x,-y,-z
6 x,-y,1/2+z
7 1/2-x,1/2-y,-z
8 1/2+x,1/2-y,1/2+z
_cell_length_a                   27.733(15)
_cell_length_b                   10.217(6)
_cell_length_c                   14.405(8)
_cell_angle_alpha                90
_cell_angle_beta                 92.450(9)
_cell_angle_gamma                90
_cell_volume                     4077.9
loop_
_atom_site_label
_atom_site_type_symbol
_atom_site_fract_x
_atom_site_fract_y
_atom_site_fract_z
Zn1 Zn 0.592554(13) 0.80307(4) 0.60391(3)
O1 O 0.59850(9) 0.2831(3) 0.98263(17)
O2 O 0.63935(8) 0.7100(2) 0.68860(18)
N1 N 0.59856(9) 1.0031(3) 0.61608(18)
N2 N 0.51985(10) 0.8536(3) 0.62034(19)
C1 C 0.69571(10) 0.4780(3) 0.7300(2)
H1 H 0.7072 0.5261 0.6808
C2 C 0.64840(10) 0.4998(3) 0.75907(19)
C3 C 0.70708(11) 0.3151(3) 0.8502(2)
H2 H 0.7266 0.2546 0.8822
O3 O 0.57378(8) 0.5898(3) 0.69560(19)
C4 C 0.72564(10) 0.3841(3) 0.7749(2)
N3 N 0.77266(10) 0.3620(3) 0.7501(2)
C5 C 0.65995(12) 0.3357(3) 0.8778(2)
C6 C 0.61796(11) 0.6044(3) 0.7116(2)
C7 C 0.63014(11) 0.4278(3) 0.8314(2)
H3 H 0.5986 0.4405 0.8488
C8 C 0.76921(12) 0.3234(3) 0.5771(2)
C9 C 0.51226(11) 0.9845(4) 0.6231(2)
C10 C 0.55609(12) 1.0689(4) 0.6203(2)
C11 C 0.77133(15) 0.1858(4) 0.5750(3)
H4 H 0.7856 0.1414 0.6254
C12 C 0.79065(11) 0.3995(4) 0.6602(2)
H5 H 0.8254 0.3881 0.6624
H6 H 0.7841 0.4919 0.6504
C13 C 0.63962(13) 1.0728(4) 0.6121(3)
H7 H 0.6688 1.0281 0.6104
C14 C 0.55424(17) 1.2036(4) 0.6202(3)
H8 H 0.5249 1.2467 0.6247
C15 C 0.74736(14) 0.3855(4) 0.5005(3)
H9 H 0.7452 0.4764 0.4997
C16 C 0.46540(13) 1.0368(5) 0.6260(3)
H10 H 0.4605 1.1268 0.6272
C17 C 0.43497(15) 0.8186(5) 0.6253(4)
H11 H 0.4092 0.7603 0.6258
C18 C 0.64027(18) 1.2086(4) 0.6103(4)
H12 H 0.6692 1.2539 0.6071
C19 C 0.48231(14) 0.7728(5) 0.6229(3)
H13 H 0.4878 0.6830 0.6232
C20 C 0.42706(14) 0.9514(6) 0.6269(3)
H14 H 0.3957 0.9836 0.6286
O4 O 0.66868(12) 0.1769(3) 0.9995(2)
C21 C 0.64234(13) 0.2582(4) 0.9583(2)
C22 C 0.59708(18) 1.2748(5) 0.6133(4)
H15 H 0.5964 1.3657 0.6108
H16 H 0.7897(17) 0.298(4) 0.777(3)
O1F O 0.90150(9) 0.2169(3) 0.01737(17)
O2F O 0.86065(8) -0.2100(2) 0.31140(18)
C1F C 0.80429(10) 0.0220(3) 0.2700(2)
H1F H 0.7928 -0.0261 0.3192
C2F C 0.85160(10) 0.0002(3) 0.24093(19)
C3F C 0.79292(11) 0.1849(3) 0.1498(2)
H2F H 0.7734 0.2454 0.1178
O3F O 0.92622(8) -0.0898(3) 0.30440(19)
C4F C 0.77436(10) 0.1159(3) 0.2251(2)
N3F N 0.72734(10) 0.1380(3) 0.2499(2)
C5F C 0.84005(12) 0.1643(3) 0.1222(2)
C6F C 0.88204(11) -0.1044(3) 0.2884(2)
C7F C 0.86986(11) 0.0722(3) 0.1686(2)
H3F H 0.9014 0.0595 0.1512
C8F C 0.73079(12) 0.1766(3) 0.4229(2)
C11F C 0.72867(15) 0.3142(4) 0.4250(3)
H4F H 0.7144 0.3586 0.3746
C12F C 0.70935(11) 0.1005(4) 0.3398(2)
H5F H 0.6746 0.1119 0.3376
H6F H 0.7159 0.0081 0.3496
C15F C 0.75264(14) 0.1145(4) 0.4995(3)
H9F H 0.7548 0.0236 0.5003
O4F O 0.83132(12) 0.3231(3) 0.0005(2)
C21F C 0.85766(13) 0.2418(4) 0.0417(2)
H16F H 0.7103(17) 0.202(4) 0.223(3)
Zn1F Zn 0.907446(13) -0.30307(4) 0.39609(3)
N1F N 0.90144(9) -0.5031(3) 0.38392(18)
N2F N 0.98015(10) -0.3536(3) 0.37966(19)
C9F C 0.98774(11) -0.4845(4) 0.3769(2)
C10F C 0.94391(12) -0.5689(4) 0.3797(2)
C13F C 0.86038(13) -0.5728(4) 0.3879(3)
H7F H 0.8312 -0.5281 0.3896
C14F C 0.94576(17) -0.7036(4) 0.3798(3)
H8F H 0.9751 -0.7467 0.3753
C16F C 1.03460(13) -0.5368(5) 0.3740(3)
H10F H 1.0395 -0.6268 0.3728
C17F C 1.06503(15) -0.3186(5) 0.3747(4)
H11F H 1.0908 -0.2603 0.3742
C18F C 0.85973(18) -0.7086(4) 0.3897(4)
H12F H 0.8308 -0.7539 0.3929
C19F C 1.01769(14) -0.2728(5) 0.3771(3)
H13F H 1.0122 -0.1830 0.3768
C20F C 1.07294(14) -0.4514(6) 0.3731(3)
H14F H 1.1043 -0.4836 0.3714
C22F C 0.90292(18) -0.7748(5) 0.3867(4)
H15F H 0.9036 -0.8657 0.3892
Zn1C Zn 0.907446(13) 0.30307(4) -0.10391(3)
Zn1E Zn 0.592554(13) 0.19693(4) 1.10391(3)
O1C O 0.90150(9) -0.2169(3) 0.51737(17)
O1E O 0.59850(9) 0.7169(3) 0.48263(17)
O5 O 0.5000 0.4169(5) 0.7500
O6 O 0.5249(9) 0.475(3) 0.961(2)
loop_
_geom_bond_atom_site_label_1
_geom_bond_atom_site_label_2
_geom_bond_site_symmetry_1
_geom_bond_site_symmetry_2
Zn1 O2 1_555 1_555
O1 C21 1_555 1_555
O2 C6 1_555 1_555
N1 Zn1 1_555 1_555
N2 Zn1 1_555 1_555
C1 H1 1_555 1_555
C2 C1 1_555 1_555
C3 H2 1_555 1_555
O3 C6 1_555 1_555
C4 C1 1_555 1_555
N3 C4 1_555 1_555
C5 C3 1_555 1_555
C6 C2 1_555 1_555
C7 C2 1_555 1_555
H3 C7 1_555 1_555
C8 C11 1_555 1_555
C9 N2 1_555 1_555
C10 N1 1_555 1_555
C11 H4 1_555 1_555
C12 N3 1_555 1_555
H5 C12 1_555 1_555
H6 C12 1_555 1_555
C13 N1 1_555 1_555
H7 C13 1_555 1_555
C14 C10 1_555 1_555
H8 C14 1_555 1_555
C15 C8 1_555 1_555
H9 C15 1_555 1_555
C16 C9 1_555 1_555
H10 C16 1_555 1_555
C17 H11 1_555 1_555
C18 C13 1_555 1_555
H12 C18 1_555 1_555
C19 N2 1_555 1_555
H13 C19 1_555 1_555
C20 C16 1_555 1_555
H14 C20 1_555 1_555
O4 C21 1_555 1_555
C21 C5 1_555 1_555
C22 C14 1_555 1_555
H15 C22 1_555 1_555
H16 N3 1_555 1_555
O1F C21F 1_555 1_555
O2F C6F 1_555 1_555
C1F H1F 1_555 1_555
C2F C1F 1_555 1_555
C3F H2F 1_555 1_555
O3F C6F 1_555 1_555
C4F C1F 1_555 1_555
N3F C4F 1_555 1_555
C5F C3F 1_555 1_555
C6F C2F 1_555 1_555
C7F C2F 1_555 1_555
H3F C7F 1_555 1_555
C8F C11F 1_555 1_555
C11F C15 1_555 1_555
H4F C11F 1_555 1_555
C12F N3F 1_555 1_555
H5F C12F 1_555 1_555
H6F C12F 1_555 1_555
C15F C11 1_555 1_555
H9F C15F 1_555 1_555
O4F C21F 1_555 1_555
C21F C5F 1_555 1_555
H16F N3F 1_555 1_555
Zn1F O2F 1_555 1_555
N1F Zn1F 1_555 1_555
N2F Zn1F 1_555 1_555
C9F N2F 1_555 1_555
C10F N1F 1_555 1_555
C13F N1F 1_555 1_555
H7F C13F 1_555 1_555
C14F C10F 1_555 1_555
H8F C14F 1_555 1_555
C16F C9F 1_555 1_555
H10F C16F 1_555 1_555
C17F H11F 1_555 1_555
C18F C13F 1_555 1_555
H12F C18F 1_555 1_555
C19F N2F 1_555 1_555
H13F C19F 1_555 1_555
C20F C16F 1_555 1_555
H14F C20F 1_555 1_555
C22F C14F 1_555 1_555
H15F C22F 1_555 1_555
Zn1C O1F 1_555 1_555
Zn1E O1 1_555 1_555
O1C Zn1F 1_555 1_555
O1E Zn1 1_555 1_555
C3 C4 1_555 1_555
C5 C7 1_555 1_555
C8 C12 1_555 1_555
C9 C10 1_555 1_555
C17 C19 1_555 1_555
C17 C20 1_555 1_555
C18 C22 1_555 1_555
C3F C4F 1_555 1_555
C5F C7F 1_555 1_555
C8F C12F 1_555 1_555
C8F C15F 1_555 1_555
C9F C10F 1_555 1_555
C17F C19F 1_555 1_555
C17F C20F 1_555 1_555
C18F C22F 1_555 1_555

#END
