
#######################################################################
#
#                 Cambridge Crystallographic Data Centre
#                                CCDC 
#
#######################################################################
#
# If this CIF has been generated from an entry in the Cambridge 
# Structural Database, then it will include bibliographic, chemical, 
# crystal, experimental, refinement or atomic coordinate data resulting 
# from the CCDC's data processing and validation procedures.
#
#######################################################################

data_VIYKEV
_symmetry_cell_setting           monoclinic
_symmetry_space_group_name_H-M   'C 2/c'
_symmetry_Int_Tables_number      15
_space_group_name_Hall           '-C 2yn'
loop_
_symmetry_equiv_pos_site_id
_symmetry_equiv_pos_as_xyz
1 x,y,z
2 -x,y,1/2-z
3 1/2+x,1/2+y,z
4 1/2-x,1/2+y,1/2-z
5 -x,-y,-z
6 x,-y,1/2+z
7 1/2-x,1/2-y,-z
8 1/2+x,1/2-y,1/2+z
_cell_length_a                   19.8521(19)
_cell_length_b                   17.5183(10)
_cell_length_c                   10.0543(6)
_cell_angle_alpha                90
_cell_angle_beta                 90.024(7)
_cell_angle_gamma                90
_cell_volume                     3496.63
loop_
_atom_site_label
_atom_site_type_symbol
_atom_site_fract_x
_atom_site_fract_y
_atom_site_fract_z
O1 O 0.3451(3) 0.4343(2) -0.0239(4)
O2 O 0.2960(2) 0.4239(2) 0.1697(4)
C1 C 0.3239(3) 0.3941(3) 0.0702(5)
C2 C 0.2702(3) 0.1371(3) 0.2582(5)
C3 C 0.3050(3) 0.1848(3) 0.1563(5)
C4 C 0.3011(3) 0.2642(3) 0.1632(5)
H1 H 0.2787 0.2876 0.2336
C5 C 0.3308(3) 0.3082(3) 0.0641(5)
C6 C 0.3642(3) 0.2732(3) -0.0409(5)
H2 H 0.3840 0.3030 -0.1065
C7 C 0.3683(3) 0.1930(3) -0.0493(5)
C8 C 0.3393(3) 0.1495(3) 0.0516(5)
H3 H 0.3429 0.0966 0.0493
C9 C 0.4036(3) 0.0781(3) -0.1726(5)
H4 H 0.4154 0.0660 -0.2638
H5 H 0.3592 0.0572 -0.1560
C10 C 0.4533(3) 0.0388(3) -0.0812(5)
C11 C 0.4540(3) -0.0406(3) -0.0743(6)
H6 H 0.4232 -0.0686 -0.1241
C12 C 0.4998(3) 0.0784(3) -0.0065(7)
H7 H 0.5004 0.1315 -0.0101
Co1 Co 0.19997(5) 0.04369(4) 0.41722(7)
N1 N 0.4001(2) 0.1602(3) -0.1594(4)
H8 H 0.4176 0.1890 -0.2194
O3 O 0.2729(2) 0.0651(2) 0.2504(3)
O4 O 0.2370(3) 0.1683(2) 0.3509(4)
O5 O 0.2848(2) 0.0409(2) 0.5544(4)
O6 O 0.1460(2) 0.1009(2) 0.5815(4)
O7 O 0.1143(3) 0.0635(3) 0.2845(4)
H9 H 0.0704(13) 0.072(6) 0.297(4)
H10 H 0.107(3) 0.126(5) 0.587(4)
H11 H 0.314(3) 0.075(2) 0.589(8)
H12 H 0.154(5) 0.108(9) 0.667(4)
H13 H 0.300(3) 0.008(3) 0.616(7)
H14 H 0.108(2) 0.069(7) 0.197(2)
O1D O 0.6549(3) -0.4343(2) 0.0239(4)
O2D O 0.7040(2) -0.4239(2) -0.1697(4)
C1D C 0.6761(3) -0.3941(3) -0.0702(5)
C2D C 0.7298(3) -0.1371(3) -0.2582(5)
C3D C 0.6950(3) -0.1848(3) -0.1563(5)
C4D C 0.6989(3) -0.2642(3) -0.1632(5)
H1D H 0.7213 -0.2876 -0.2336
C5D C 0.6692(3) -0.3082(3) -0.0641(5)
C6D C 0.6358(3) -0.2732(3) 0.0409(5)
H2D H 0.6160 -0.3030 0.1065
C7D C 0.6317(3) -0.1930(3) 0.0493(5)
C8D C 0.6607(3) -0.1495(3) -0.0516(5)
H3D H 0.6571 -0.0966 -0.0493
C9D C 0.5964(3) -0.0781(3) 0.1726(5)
H4D H 0.5846 -0.0660 0.2638
H5D H 0.6408 -0.0572 0.1560
C10D C 0.5467(3) -0.0388(3) 0.0812(5)
C11D C 0.5460(3) 0.0406(3) 0.0743(6)
H6D H 0.5768 0.0686 0.1241
C12D C 0.5002(3) -0.0784(3) 0.0065(7)
H7D H 0.4996 -0.1315 0.0101
N1D N 0.5999(2) -0.1602(3) 0.1594(4)
H8D H 0.5824 -0.1890 0.2194
O3D O 0.7271(2) -0.0651(2) -0.2504(3)
O4D O 0.7630(3) -0.1683(2) -0.3509(4)
Co1D Co 0.80003(5) -0.04369(4) -0.41722(7)
O5D O 0.7152(2) -0.0409(2) -0.5544(4)
O6D O 0.8540(2) -0.1009(2) -0.5815(4)
O7D O 0.8857(3) -0.0635(3) -0.2845(4)
H9D H 0.9296(13) -0.072(6) -0.297(4)
H10D H 0.893(3) -0.126(5) -0.587(4)
H11D H 0.686(3) -0.075(2) -0.589(8)
H12D H 0.846(5) -0.108(9) -0.667(4)
H13D H 0.700(3) -0.008(3) -0.616(7)
H14D H 0.892(2) -0.069(7) -0.197(2)
O1C O 0.1549(3) -0.0657(2) 0.5239(4)
O1G O 0.8451(3) 0.0657(2) -0.5239(4)
O2C O 0.2040(2) -0.0761(2) 0.3303(4)
O2G O 0.7960(2) 0.0761(2) -0.3303(4)
Co1C Co 0.30003(5) 0.54369(4) 0.08278(7)
Co1G Co 0.69997(5) -0.54369(4) -0.08278(7)
O8 O 0.0784(4) 0.2364(4) 0.5597(8)
O9 O 0.1700(3) 0.3021(3) 0.4125(6)
H15 H 0.152(7) 0.328(6) 0.356(9)
H16 H 0.177(7) 0.317(7) 0.489(5)
O10 O 0.0322(9) 0.198(2) 0.367(2)
loop_
_geom_bond_atom_site_label_1
_geom_bond_atom_site_label_2
_geom_bond_site_symmetry_1
_geom_bond_site_symmetry_2
O1 C1 1_555 1_555
O2 C1 1_555 1_555
C1 C5 1_555 1_555
C2 C3 1_555 1_555
C3 C4 1_555 1_555
C4 H1 1_555 1_555
C5 C4 1_555 1_555
C6 C5 1_555 1_555
H2 C6 1_555 1_555
C7 C6 1_555 1_555
C8 C3 1_555 1_555
H3 C8 1_555 1_555
C9 H4 1_555 1_555
H5 C9 1_555 1_555
C10 C9 1_555 1_555
C11 C10 1_555 1_555
H6 C11 1_555 1_555
C12 C10 1_555 1_555
H7 C12 1_555 1_555
Co1 O3 1_555 1_555
N1 C7 1_555 1_555
H8 N1 1_555 1_555
O3 C2 1_555 1_555
O4 C2 1_555 1_555
O5 Co1 1_555 1_555
O6 Co1 1_555 1_555
O7 Co1 1_555 1_555
H9 O7 1_555 1_555
H10 O6 1_555 1_555
H11 O5 1_555 1_555
H12 O6 1_555 1_555
H13 O5 1_555 1_555
H14 O7 1_555 1_555
O9 H15 1_555 1_555
H16 O9 1_555 1_555
O1D C1D 1_555 1_555
O2D C1D 1_555 1_555
C1D C5D 1_555 1_555
C2D C3D 1_555 1_555
C3D C4D 1_555 1_555
C4D H1D 1_555 1_555
C5D C4D 1_555 1_555
C6D C5D 1_555 1_555
H2D C6D 1_555 1_555
C7D C6D 1_555 1_555
C8D C3D 1_555 1_555
H3D C8D 1_555 1_555
C9D H4D 1_555 1_555
H5D C9D 1_555 1_555
C10D C9D 1_555 1_555
C11D C12 1_555 1_555
H6D C11D 1_555 1_555
C12D C11 1_555 1_555
H7D C12D 1_555 1_555
N1D C7D 1_555 1_555
H8D N1D 1_555 1_555
O3D C2D 1_555 1_555
O4D C2D 1_555 1_555
Co1D O3D 1_555 1_555
O5D Co1D 1_555 1_555
O6D Co1D 1_555 1_555
O7D Co1D 1_555 1_555
H9D O7D 1_555 1_555
H10D O6D 1_555 1_555
H11D O5D 1_555 1_555
H12D O6D 1_555 1_555
H13D O5D 1_555 1_555
H14D O7D 1_555 1_555
O1C Co1 1_555 1_555
O1G Co1D 1_555 1_555
O2C Co1 1_555 1_555
O2G Co1D 1_555 1_555
Co1C O1 1_555 1_555
Co1G O1D 1_555 1_555
O2 Co1C 1_555 1_555
C7 C8 1_555 1_555
C9 N1 1_555 1_555
Co1 O4 1_555 1_555
O2D Co1G 1_555 1_555
C7D C8D 1_555 1_555
C9D N1D 1_555 1_555
C10D C11D 1_555 1_555
C10D C12D 1_555 1_555
O4D Co1D 1_555 1_555

#END
