
#######################################################################
#
#                 Cambridge Crystallographic Data Centre
#                                CCDC 
#
#######################################################################
#
# If this CIF has been generated from an entry in the Cambridge 
# Structural Database, then it will include bibliographic, chemical, 
# crystal, experimental, refinement or atomic coordinate data resulting 
# from the CCDC's data processing and validation procedures.
#
#######################################################################

data_VIYKIZ
_symmetry_cell_setting           monoclinic
_symmetry_space_group_name_H-M   'C 2'
_symmetry_Int_Tables_number      5
_space_group_name_Hall           'C 2y'
loop_
_symmetry_equiv_pos_site_id
_symmetry_equiv_pos_as_xyz
1 x,y,z
2 -x,y,-z
3 1/2+x,1/2+y,z
4 1/2-x,1/2+y,-z
_cell_length_a                   32.8047(8)
_cell_length_b                   16.8286(5)
_cell_length_c                   31.6834(8)
_cell_angle_alpha                90
_cell_angle_beta                 91.867(2)
_cell_angle_gamma                90
_cell_volume                     17481.8
loop_
_atom_site_label
_atom_site_type_symbol
_atom_site_fract_x
_atom_site_fract_y
_atom_site_fract_z
Cd1 Cd 0.590032(16) 0.33988(3) 0.913326(16)
Cd2 Cd 0.357569(18) 0.35993(4) 0.643308(19)
P1 P 0.56972(7) 0.54003(14) 0.91218(7)
P2 P 0.68113(7) 0.44968(13) 0.88383(7)
P3 P 0.38203(7) 0.17278(17) 0.58447(7)
P4 P 0.32186(7) 0.18951(14) 0.69373(7)
O1 O 0.55875(15) 0.4546(3) 0.92234(15)
O2 O 0.63946(16) 0.4239(3) 0.89598(16)
O3 O 0.4194(2) 0.4402(5) 0.6473(2)
O4 O 0.41089(17) 0.3473(5) 0.69137(19)
O5 O 0.88258(17) 0.8261(4) 1.01989(16)
O6 O 0.86274(18) 0.7409(3) 1.06816(19)
O7 O 0.36494(16) 0.2446(4) 0.60531(17)
O8 O 0.32661(17) 0.2759(3) 0.68740(15)
O9 O 0.1551(2) -0.0799(4) 0.4227(2)
O10 O 0.2083(2) -0.1210(4) 0.3910(2)
O11 O 0.5316(2) 0.2718(4) 0.8941(2)
O12 O 0.5732(2) 0.3020(4) 0.84551(18)
O13 O 0.3341(2) 0.4690(5) 0.6853(2)
H1 H 0.3325 0.5187 0.6686
H2 H 0.3069 0.4575 0.6965
C1 C 0.5871(2) 0.5500(5) 0.8583(2)
C2 C 0.6235(2) 0.5803(5) 0.8436(3)
C3 C 0.6300(2) 0.5841(5) 0.7994(2)
C4 C 0.6657(3) 0.6155(5) 0.7839(3)
H3 H 0.6865 0.6338 0.8031
C5 C 0.6715(3) 0.6206(6) 0.7411(3)
H4 H 0.6962 0.6417 0.731
C6 C 0.6415(3) 0.5953(6) 0.7131(3)
H5 H 0.6457 0.5981 0.6836
C7 C 0.6068(3) 0.5669(6) 0.7270(3)
H6 H 0.5862 0.5516 0.7069
C8 C 0.5989(3) 0.5584(5) 0.7707(2)
C9 C 0.5613(2) 0.5253(5) 0.7864(3)
C10 C 0.5568(3) 0.5236(5) 0.8283(2)
H7 H 0.5319 0.5036 0.8385
C11 C 0.6857(2) 0.5562(5) 0.8907(2)
C12 C 0.6576(2) 0.6072(5) 0.8724(2)
C13 C 0.6623(3) 0.6923(5) 0.8781(2)
C14 C 0.6341(3) 0.7474(6) 0.8585(3)
H8 H 0.612 0.7285 0.8411
C15 C 0.6392(3) 0.8265(6) 0.8649(3)
H9 H 0.6203 0.8626 0.852
C16 C 0.6729(3) 0.8574(7) 0.8910(3)
H10 H 0.6759 0.9129 0.8956
C17 C 0.7000(3) 0.8043(6) 0.9088(3)
H11 H 0.7225 0.8243 0.9253
C18 C 0.6963(2) 0.7225(5) 0.9038(2)
C19 C 0.7246(2) 0.6670(5) 0.9229(2)
C20 C 0.7198(2) 0.5899(6) 0.9168(2)
H12 H 0.7389 0.5546 0.9299
C21 C 0.5293(2) 0.4942(5) 0.7575(2)
C22 C 0.5120(3) 0.5419(6) 0.7254(3)
H13 H 0.5222 0.5937 0.7202
C23 C 0.4791(3) 0.5108(7) 0.7010(3)
H14 H 0.4667 0.5432 0.6796
C24 C 0.4643(3) 0.4357(6) 0.7070(3)
C25 C 0.4827(3) 0.3906(6) 0.7388(3)
H15 H 0.473 0.3384 0.744
C26 C 0.5151(3) 0.4207(6) 0.7632(3)
H16 H 0.5275 0.3882 0.7846
C27 C 0.4295(3) 0.4072(6) 0.6799(3)
C28 C 0.7598(2) 0.6932(5) 0.9491(2)
C29 C 0.7879(3) 0.7488(5) 0.9354(3)
H17 H 0.7849 0.7705 0.9078
C30 C 0.8203(3) 0.7726(5) 0.9618(3)
H18 H 0.8389 0.8116 0.9525
C31 C 0.8254(2) 0.7385(5) 1.0029(3)
C32 C 0.7978(2) 0.6831(5) 1.0158(2)
H19 H 0.8005 0.6604 1.0432
C33 C 0.7665(2) 0.6606(5) 0.9890(3)
H20 H 0.7483 0.6206 0.9982
C34 C 0.8598(3) 0.7720(6) 1.0311(3)
C35 C 0.5236(3) 0.6006(5) 0.9131(3)
C36 C 0.5187(3) 0.6682(7) 0.8891(3)
H21 H 0.5397 0.6862 0.8715
C37 C 0.4820(4) 0.7095(8) 0.8915(4)
H22 H 0.477 0.7534 0.8732
C38 C 0.4526(4) 0.6881(8) 0.9199(4)
H23 H 0.4282 0.7177 0.9227
C39 C 0.4610(3) 0.6217(7) 0.9435(3)
H24 H 0.4415 0.6052 0.9633
C40 C 0.4950(3) 0.5788(6) 0.9405(3)
H25 H 0.499 0.5329 0.9575
C41 C 0.6031(3) 0.5833(6) 0.9523(3)
C42 C 0.6056(2) 0.6639(6) 0.9581(3)
H26 H 0.5909 0.6983 0.9393
C43 C 0.6286(3) 0.6950(6) 0.9900(3)
H27 H 0.6293 0.7508 0.9946
C44 C 0.6519(3) 0.6424(7) 1.0170(3)
H28 H 0.6693 0.664 1.0386
C45 C 0.6496(3) 0.5633(7) 1.0123(3)
H29 H 0.6638 0.5287 1.0314
C46 C 0.6252(2) 0.5323(6) 0.9777(3)
H30 H 0.6243 0.4767 0.9725
C47 C 0.6902(3) 0.4288(6) 0.8295(3)
C48 C 0.6606(3) 0.3933(6) 0.8057(3)
H31 H 0.6358 0.3789 0.8185
C49 C 0.6654(4) 0.3765(6) 0.7612(3)
H32 H 0.6444 0.3527 0.7441
C50 C 0.7027(5) 0.3976(7) 0.7456(4)
H33 H 0.7078 0.3851 0.717
C51 C 0.7328(4) 0.4360(7) 0.7692(4)
H34 H 0.7577 0.4514 0.757
C52 C 0.7257(3) 0.4513(5) 0.8114(3)
H35 H 0.746 0.4782 0.828
C53 C 0.7200(3) 0.4023(5) 0.9147(3)
C54 C 0.7482(3) 0.3517(6) 0.9002(3)
H36 H 0.7485 0.3414 0.8707
C55 C 0.7764(3) 0.3149(7) 0.9260(4)
H37 H 0.7947 0.2769 0.915
C56 C 0.7779(3) 0.3347(8) 0.9703(4)
H38 H 0.7984 0.3119 0.9883
C57 C 0.7509(3) 0.3845(6) 0.9863(3)
H39 H 0.7517 0.3966 1.0156
C58 C 0.7217(3) 0.4181(5) 0.9597(3)
H40 H 0.7021 0.4527 0.9711
C59 C 0.3520(3) 0.0858(6) 0.5911(3)
C60 C 0.3514(3) 0.0435(6) 0.6299(3)
C61 C 0.3254(3) -0.0219(5) 0.6357(3)
C62 C 0.3242(3) -0.0645(6) 0.6744(3)
H41 H 0.3423 -0.0497 0.697
C63 C 0.2985(3) -0.1243(6) 0.6799(3)
H42 H 0.2982 -0.151 0.7063
C64 C 0.2724(3) -0.1476(7) 0.6475(4)
H43 H 0.2539 -0.19 0.6517
C65 C 0.2729(3) -0.1102(7) 0.6092(3)
H44 H 0.2551 -0.1284 0.587
C66 C 0.2984(3) -0.0467(6) 0.6018(3)
C67 C 0.2985(3) -0.0027(7) 0.5638(3)
C68 C 0.3243(3) 0.0585(6) 0.5593(3)
H45 H 0.3239 0.0852 0.5329
C69 C 0.3710(3) 0.1344(5) 0.6898(3)
C70 C 0.3793(2) 0.0697(5) 0.6665(2)
C71 C 0.4147(3) 0.0277(6) 0.6755(3)
C72 C 0.4246(3) -0.0412(6) 0.6526(3)
H46 H 0.4065 -0.0572 0.6302
C73 C 0.4590(3) -0.0868(7) 0.6608(4)
H47 H 0.4648 -0.1334 0.6452
C74 C 0.4860(3) -0.0577(7) 0.6955(3)
H48 H 0.5098 -0.0875 0.7027
C75 C 0.4792(3) 0.0035(7) 0.7156(3)
H49 H 0.4982 0.019 0.7374
C76 C 0.4432(3) 0.0532(5) 0.7072(3)
C77 C 0.4337(3) 0.1256(5) 0.7301(2)
C78 C 0.3985(2) 0.1634(5) 0.7224(2)
H50 H 0.3917 0.209 0.7383
C79 C 0.2690(3) -0.0231(6) 0.5276(3)
C80 C 0.2270(3) -0.0283(6) 0.5323(3)
H51 H 0.2154 -0.0189 0.5589
C81 C 0.2025(3) -0.0478(7) 0.4971(3)
H52 H 0.1738 -0.0491 0.5002
C82 C 0.2177(3) -0.0659(6) 0.4570(3)
C83 C 0.2611(4) -0.0609(7) 0.4550(3)
H53 H 0.2731 -0.0736 0.429
C84 C 0.2856(3) -0.0393(6) 0.4873(3)
H54 H 0.3141 -0.0348 0.4836
C85 C 0.1926(3) -0.0919(6) 0.4225(3)
C86 C 0.4636(3) 0.1579(5) 0.7624(3)
C87 C 0.4492(3) 0.1751(6) 0.8030(3)
H55 H 0.4218 0.1636 0.8097
C88 C 0.4753(3) 0.2083(6) 0.8324(3)
H56 H 0.4658 0.2185 0.8599
C89 C 0.5155(3) 0.2280(5) 0.8232(3)
C90 C 0.5282(3) 0.2153(5) 0.7837(3)
H57 H 0.5546 0.2318 0.776
C91 C 0.5025(3) 0.1783(6) 0.7545(3)
H58 H 0.5126 0.1665 0.7274
C92 C 0.5419(3) 0.2685(5) 0.8550(3)
C93 C 0.4347(3) 0.1567(6) 0.6019(3)
C94 C 0.4577(4) 0.0954(7) 0.5879(3)
H59 H 0.4455 0.0586 0.5686
C95 C 0.4978(3) 0.0842(8) 0.6005(4)
H60 H 0.5134 0.0404 0.591
C96 C 0.5138(4) 0.1401(10) 0.6274(4)
H61 H 0.5409 0.1335 0.6382
C97 C 0.4923(3) 0.2050(8) 0.6393(3)
H62 H 0.505 0.2456 0.6559
C98 C 0.4528(3) 0.2105(6) 0.6273(3)
H63 H 0.4373 0.254 0.637
C99 C 0.3848(3) 0.1879(8) 0.5277(3)
C100 C 0.3939(3) 0.1274(8) 0.5005(4)
H64 H 0.3964 0.074 0.51
C101 C 0.3995(4) 0.1477(12) 0.4579(4)
H65 H 0.4082 0.108 0.439
C102 C 0.3927(5) 0.2218(13) 0.4435(5)
H66 H 0.3961 0.2328 0.4144
C103 C 0.3808(4) 0.2830(12) 0.4703(4)
H67 H 0.3748 0.3351 0.4603
C104 C 0.3784(4) 0.2606(10) 0.5148(4)
H68 H 0.372 0.3001 0.5349
C105 C 0.3069(3) 0.1721(6) 0.7478(3)
C106 C 0.3190(3) 0.1035(6) 0.7691(3)
H69 H 0.3355 0.0648 0.7561
C107 C 0.3057(4) 0.0930(8) 0.8113(3)
H70 H 0.313 0.0463 0.8265
C108 C 0.2839(4) 0.1466(9) 0.8287(3)
H71 H 0.276 0.1389 0.857
C109 C 0.2716(3) 0.2138(8) 0.8082(3)
H72 H 0.2552 0.2518 0.8219
C110 C 0.2836(3) 0.2266(6) 0.7660(3)
H73 H 0.2752 0.273 0.751
C111 C 0.2799(3) 0.1493(5) 0.6622(3)
C112 C 0.2680(3) 0.1924(6) 0.6246(3)
H74 H 0.2835 0.2368 0.6159
C113 C 0.2345(3) 0.1698(6) 0.6016(3)
H75 H 0.2267 0.1974 0.5765
C114 C 0.2121(3) 0.1061(7) 0.6151(3)
H76 H 0.1878 0.0921 0.5997
C115 C 0.2239(3) 0.0614(7) 0.6504(3)
H77 H 0.2092 0.0151 0.658
C116 C 0.2570(3) 0.0864(6) 0.6738(3)
H78 H 0.2644 0.0587 0.6991
Cd1C Cd 0.909968(16) 0.83988(3) 1.086674(16)
Cd2C Cd 0.142431(18) -0.14007(4) 0.356692(19)
O5C O 0.61742(17) 0.3261(4) 0.98011(16)
O6C O 0.63726(18) 0.2409(3) 0.93184(19)
O9C O 0.3449(2) 0.4201(4) 0.5773(2)
O10C O 0.2917(2) 0.3790(4) 0.6090(2)
O14 O 0.3068(3) 0.3934(6) 0.8713(3)
N1 N 0.3491(3) 0.3642(5) 0.8209(2)
C117 C 0.3650(4) 0.2942(6) 0.8419(4)
H79 H 0.3869 0.2713 0.8254
H80 H 0.3432 0.2551 0.8447
H81 H 0.3759 0.3087 0.8701
C118 C 0.3650(4) 0.3822(8) 0.7784(3)
H82 H 0.3868 0.3448 0.7721
H83 H 0.3757 0.4365 0.7782
H84 H 0.3428 0.3771 0.7571
C119 C 0.3193(4) 0.4087(9) 0.8354(4)
H85 H 0.3078 0.4509 0.819
O15 O 0.3912(4) 0.5488(9) 0.8569(4)
N2 N 0.4232(4) 0.4446(8) 0.8947(4)
C120 C 0.4571(4) 0.4271(9) 0.8647(4)
H86 H 0.4757 0.3876 0.8774
H87 H 0.4722 0.4761 0.8592
H88 H 0.4454 0.4064 0.8381
C121 C 0.4275(6) 0.3924(11) 0.9299(6)
H89 H 0.4526 0.3615 0.9277
H90 H 0.4041 0.3562 0.9302
H91 H 0.4286 0.4235 0.9561
C122 C 0.3952(5) 0.5005(11) 0.8862(6)
H92 H 0.3745 0.5038 0.9064
O16 O 0.2635(3) 0.4276(6) 0.7232(3)
N3 N 0.2067(3) 0.3569(6) 0.7070(3)
C123 C 0.1919(4) 0.3566(10) 0.7502(4)
H93 H 0.1665 0.3262 0.751
H94 H 0.1869 0.4113 0.7592
H95 H 0.2124 0.3321 0.7691
C124 C 0.1834(4) 0.3168(8) 0.6719(4)
H96 H 0.1588 0.2924 0.6829
H97 H 0.2005 0.2756 0.6596
H98 H 0.1757 0.3559 0.6502
C125 C 0.2423(4) 0.3926(7) 0.6946(5)
H99 H 0.2506 0.391 0.6662
O17 O 0.8016(5) 0.5652(11) 1.1128(5)
N4 N 0.8343(4) 0.6066(9) 1.1703(5)
C126 C 0.8258(6) 0.5320(11) 1.1903(6)
H100 H 0.8355 0.5338 1.2199
H101 H 0.8397 0.4891 1.1757
H102 H 0.7963 0.5223 1.1891
C127 C 0.8598(5) 0.6692(11) 1.1914(6)
H103 H 0.8652 0.6545 1.221
H104 H 0.8452 0.72 1.19
H105 H 0.8857 0.6741 1.177
C128 C 0.8208(6) 0.6247(14) 1.1290(6)
H106 H 0.8252 0.6738 1.1151
O18 O 0.7779(5) 0.7050(12) 1.2941(6)
N5 N 0.7395(5) 0.6668(13) 1.2358(6)
C129 C 0.7445(8) 0.7308(14) 1.2063(8)
H107 H 0.7298 0.7182 1.1797
H108 H 0.7736 0.7378 1.201
H109 H 0.7336 0.78 1.218
C130 C 0.7160(7) 0.5955(14) 1.2185(8)
H110 H 0.706 0.6069 1.1896
H111 H 0.6928 0.5846 1.2363
H112 H 0.734 0.5491 1.2183
C131 C 0.7561(5) 0.6548(14) 1.2757(7)
H113 H 0.7508 0.6061 1.2896
O19 O 0.3348(6) 0.6060(11) 0.6453(5)
N6 N 0.3806(6) 0.6817(13) 0.6090(5)
C132 C 0.3626(7) 0.7617(14) 0.6102(8)
H114 H 0.3796 0.7987 0.5945
H115 H 0.3612 0.7794 0.6396
H116 H 0.3351 0.7603 0.5973
C133 C 0.4194(6) 0.6768(15) 0.5849(7)
H117 H 0.4266 0.7297 0.5745
H118 H 0.4154 0.6405 0.5609
H119 H 0.4415 0.6568 0.6036
C134 C 0.3672(6) 0.6109(14) 0.6247(5)
H120 H 0.3826 0.5641 0.6201
O20 O 0.3345(5) 0.9156(11) 0.7793(5)
N7 N 0.3865(6) 0.8645(11) 0.8158(6)
C135 C 0.4166(7) 0.9107(15) 0.7942(7)
H121 H 0.444 0.8948 0.8042
H122 H 0.4125 0.9673 0.8001
H123 H 0.4137 0.9014 0.7637
C136 C 0.3984(7) 0.8045(13) 0.8480(7)
H124 H 0.4282 0.8024 0.8511
H125 H 0.388 0.7523 0.8392
H126 H 0.387 0.8191 0.8751
C137 C 0.3444(6) 0.8666(12) 0.8081(6)
H127 H 0.3254 0.835 0.8227
O21 O 0.3054(4) 0.6763(8) 0.5024(4)
N8 N 0.2483(5) 0.6863(9) 0.5405(5)
C138 C 0.2323(6) 0.7475(11) 0.5135(6)
H128 H 0.2058 0.7648 0.5235
H129 H 0.229 0.7271 0.4847
H130 H 0.2512 0.7927 0.5139
C139 C 0.2270(6) 0.6561(11) 0.5772(5)
H131 H 0.201 0.6841 0.5796
H132 H 0.2439 0.6649 0.6028
H133 H 0.2219 0.599 0.5736
C140 C 0.2853(5) 0.6514(10) 0.5331(5)
H134 H 0.2956 0.6096 0.5505
loop_
_geom_bond_atom_site_label_1
_geom_bond_atom_site_label_2
_geom_bond_site_symmetry_1
_geom_bond_site_symmetry_2
Cd1 O1 1_555 1_555
Cd2 O3 1_555 1_555
P1 O1 1_555 1_555
P2 O2 1_555 1_555
P3 O7 1_555 1_555
P4 O8 1_555 1_555
O2 Cd1 1_555 1_555
O3 C27 1_555 1_555
O4 Cd2 1_555 1_555
O5 C34 1_555 1_555
O6 C34 1_555 1_555
O7 Cd2 1_555 1_555
O8 Cd2 1_555 1_555
O9 C85 1_555 1_555
O10 C85 1_555 1_555
O11 Cd1 1_555 1_555
O12 Cd1 1_555 1_555
O13 Cd2 1_555 1_555
H1 O13 1_555 1_555
H2 O13 1_555 1_555
C1 P1 1_555 1_555
C2 C1 1_555 1_555
C3 C2 1_555 1_555
C4 C3 1_555 1_555
H3 C4 1_555 1_555
C5 C4 1_555 1_555
H4 C5 1_555 1_555
C6 C5 1_555 1_555
H5 C6 1_555 1_555
C7 C6 1_555 1_555
H6 C7 1_555 1_555
C8 C3 1_555 1_555
C9 C8 1_555 1_555
C10 C1 1_555 1_555
H7 C10 1_555 1_555
C11 P2 1_555 1_555
C12 C2 1_555 1_555
C13 C12 1_555 1_555
C14 C13 1_555 1_555
H8 C14 1_555 1_555
C15 C14 1_555 1_555
H9 C15 1_555 1_555
C16 C15 1_555 1_555
H10 C16 1_555 1_555
C17 C16 1_555 1_555
H11 C17 1_555 1_555
C18 C13 1_555 1_555
C19 C18 1_555 1_555
C20 C11 1_555 1_555
H12 C20 1_555 1_555
C21 C9 1_555 1_555
C22 C21 1_555 1_555
H13 C22 1_555 1_555
C23 C22 1_555 1_555
H14 C23 1_555 1_555
C24 C23 1_555 1_555
C25 C24 1_555 1_555
H15 C25 1_555 1_555
C26 C21 1_555 1_555
H16 C26 1_555 1_555
C27 O4 1_555 1_555
C28 C19 1_555 1_555
C29 C28 1_555 1_555
H17 C29 1_555 1_555
C30 C29 1_555 1_555
H18 C30 1_555 1_555
C31 C30 1_555 1_555
C32 C31 1_555 1_555
H19 C32 1_555 1_555
C33 C28 1_555 1_555
H20 C33 1_555 1_555
C34 C31 1_555 1_555
C35 P1 1_555 1_555
C36 C35 1_555 1_555
H21 C36 1_555 1_555
C37 C36 1_555 1_555
H22 C37 1_555 1_555
C38 C37 1_555 1_555
H23 C38 1_555 1_555
C39 C38 1_555 1_555
H24 C39 1_555 1_555
C40 C35 1_555 1_555
H25 C40 1_555 1_555
C41 P1 1_555 1_555
C42 C41 1_555 1_555
H26 C42 1_555 1_555
C43 C42 1_555 1_555
H27 C43 1_555 1_555
C44 C43 1_555 1_555
H28 C44 1_555 1_555
C45 C44 1_555 1_555
H29 C45 1_555 1_555
C46 C41 1_555 1_555
H30 C46 1_555 1_555
C47 P2 1_555 1_555
C48 C47 1_555 1_555
H31 C48 1_555 1_555
C49 C48 1_555 1_555
H32 C49 1_555 1_555
C50 C49 1_555 1_555
H33 C50 1_555 1_555
C51 C50 1_555 1_555
H34 C51 1_555 1_555
C52 C47 1_555 1_555
H35 C52 1_555 1_555
C53 P2 1_555 1_555
C54 C53 1_555 1_555
H36 C54 1_555 1_555
C55 C54 1_555 1_555
H37 C55 1_555 1_555
C56 C55 1_555 1_555
H38 C56 1_555 1_555
C57 C56 1_555 1_555
H39 C57 1_555 1_555
C58 C53 1_555 1_555
H40 C58 1_555 1_555
C59 P3 1_555 1_555
C60 C59 1_555 1_555
C61 C60 1_555 1_555
C62 C61 1_555 1_555
H41 C62 1_555 1_555
C63 C62 1_555 1_555
H42 C63 1_555 1_555
C64 C63 1_555 1_555
H43 C64 1_555 1_555
C65 C64 1_555 1_555
H44 C65 1_555 1_555
C66 C61 1_555 1_555
C67 C66 1_555 1_555
C68 C59 1_555 1_555
H45 C68 1_555 1_555
C69 P4 1_555 1_555
C70 C60 1_555 1_555
C71 C70 1_555 1_555
C72 C71 1_555 1_555
H46 C72 1_555 1_555
C73 C72 1_555 1_555
H47 C73 1_555 1_555
C74 C73 1_555 1_555
H48 C74 1_555 1_555
C75 C74 1_555 1_555
H49 C75 1_555 1_555
C76 C71 1_555 1_555
C77 C76 1_555 1_555
C78 C69 1_555 1_555
H50 C78 1_555 1_555
C79 C67 1_555 1_555
C80 C79 1_555 1_555
H51 C80 1_555 1_555
C81 C80 1_555 1_555
H52 C81 1_555 1_555
C82 C81 1_555 1_555
C83 C82 1_555 1_555
H53 C83 1_555 1_555
C84 C79 1_555 1_555
H54 C84 1_555 1_555
C85 C82 1_555 1_555
C86 C77 1_555 1_555
C87 C86 1_555 1_555
H55 C87 1_555 1_555
C88 C87 1_555 1_555
H56 C88 1_555 1_555
C89 C88 1_555 1_555
C90 C89 1_555 1_555
H57 C90 1_555 1_555
C91 C86 1_555 1_555
H58 C91 1_555 1_555
C92 O11 1_555 1_555
C93 P3 1_555 1_555
C94 C93 1_555 1_555
H59 C94 1_555 1_555
C95 C94 1_555 1_555
H60 C95 1_555 1_555
C96 C95 1_555 1_555
H61 C96 1_555 1_555
C97 C96 1_555 1_555
H62 C97 1_555 1_555
C98 C93 1_555 1_555
H63 C98 1_555 1_555
C99 P3 1_555 1_555
C100 C99 1_555 1_555
H64 C100 1_555 1_555
C101 C100 1_555 1_555
H65 C101 1_555 1_555
C102 C101 1_555 1_555
H66 C102 1_555 1_555
C103 C102 1_555 1_555
H67 C103 1_555 1_555
C104 C99 1_555 1_555
H68 C104 1_555 1_555
C105 P4 1_555 1_555
C106 C105 1_555 1_555
H69 C106 1_555 1_555
C107 C106 1_555 1_555
H70 C107 1_555 1_555
C108 C107 1_555 1_555
H71 C108 1_555 1_555
C109 C108 1_555 1_555
H72 C109 1_555 1_555
C110 C105 1_555 1_555
H73 C110 1_555 1_555
C111 P4 1_555 1_555
C112 C111 1_555 1_555
H74 C112 1_555 1_555
C113 C112 1_555 1_555
H75 C113 1_555 1_555
C114 C113 1_555 1_555
H76 C114 1_555 1_555
C115 C114 1_555 1_555
H77 C115 1_555 1_555
C116 C111 1_555 1_555
H78 C116 1_555 1_555
O14 C119 1_555 1_555
N1 C117 1_555 1_555
C117 H79 1_555 1_555
H80 C117 1_555 1_555
H81 C117 1_555 1_555
C118 N1 1_555 1_555
H82 C118 1_555 1_555
H83 C118 1_555 1_555
H84 C118 1_555 1_555
C119 N1 1_555 1_555
H85 C119 1_555 1_555
O15 C122 1_555 1_555
N2 C120 1_555 1_555
C120 H86 1_555 1_555
H87 C120 1_555 1_555
H88 C120 1_555 1_555
C121 N2 1_555 1_555
H89 C121 1_555 1_555
H90 C121 1_555 1_555
H91 C121 1_555 1_555
C122 N2 1_555 1_555
H92 C122 1_555 1_555
O16 C125 1_555 1_555
N3 C123 1_555 1_555
C123 H93 1_555 1_555
H94 C123 1_555 1_555
H95 C123 1_555 1_555
C124 N3 1_555 1_555
H96 C124 1_555 1_555
H97 C124 1_555 1_555
H98 C124 1_555 1_555
C125 N3 1_555 1_555
H99 C125 1_555 1_555
O17 C128 1_555 1_555
N4 C126 1_555 1_555
C126 H100 1_555 1_555
H101 C126 1_555 1_555
H102 C126 1_555 1_555
C127 N4 1_555 1_555
H103 C127 1_555 1_555
H104 C127 1_555 1_555
H105 C127 1_555 1_555
C128 N4 1_555 1_555
H106 C128 1_555 1_555
O18 C131 1_555 1_555
N5 C129 1_555 1_555
C129 H107 1_555 1_555
H108 C129 1_555 1_555
H109 C129 1_555 1_555
C130 N5 1_555 1_555
H110 C130 1_555 1_555
H111 C130 1_555 1_555
H112 C130 1_555 1_555
C131 N5 1_555 1_555
H113 C131 1_555 1_555
O19 C134 1_555 1_555
N6 C132 1_555 1_555
C132 H114 1_555 1_555
H115 C132 1_555 1_555
H116 C132 1_555 1_555
C133 N6 1_555 1_555
H117 C133 1_555 1_555
H118 C133 1_555 1_555
H119 C133 1_555 1_555
C134 N6 1_555 1_555
H120 C134 1_555 1_555
O20 C137 1_555 1_555
N7 C135 1_555 1_555
C135 H121 1_555 1_555
H122 C135 1_555 1_555
H123 C135 1_555 1_555
C136 N7 1_555 1_555
H124 C136 1_555 1_555
H125 C136 1_555 1_555
H126 C136 1_555 1_555
C137 N7 1_555 1_555
H127 C137 1_555 1_555
O21 C140 1_555 1_555
N8 C138 1_555 1_555
C138 H128 1_555 1_555
H129 C138 1_555 1_555
H130 C138 1_555 1_555
C139 N8 1_555 1_555
H131 C139 1_555 1_555
H132 C139 1_555 1_555
H133 C139 1_555 1_555
C140 N8 1_555 1_555
H134 C140 1_555 1_555
Cd1C O5 1_555 1_555
Cd2C O9 1_555 1_555
O5C Cd1 1_555 1_555
O6C Cd1 1_555 1_555
O9C Cd2 1_555 1_555
O10C Cd2 1_555 1_555
O6 Cd1C 1_555 1_555
O10 Cd2C 1_555 1_555
O12 C92 1_555 1_555
C7 C8 1_555 1_555
C9 C10 1_555 1_555
C11 C12 1_555 1_555
C17 C18 1_555 1_555
C19 C20 1_555 1_555
C24 C27 1_555 1_555
C25 C26 1_555 1_555
C32 C33 1_555 1_555
C39 C40 1_555 1_555
C45 C46 1_555 1_555
C51 C52 1_555 1_555
C57 C58 1_555 1_555
C65 C66 1_555 1_555
C67 C68 1_555 1_555
C69 C70 1_555 1_555
C75 C76 1_555 1_555
C77 C78 1_555 1_555
C83 C84 1_555 1_555
C89 C92 1_555 1_555
C90 C91 1_555 1_555
C97 C98 1_555 1_555
C103 C104 1_555 1_555
C109 C110 1_555 1_555
C115 C116 1_555 1_555

#END
