
#######################################################################
#
#                 Cambridge Crystallographic Data Centre
#                                CCDC 
#
#######################################################################
#
# If this CIF has been generated from an entry in the Cambridge 
# Structural Database, then it will include bibliographic, chemical, 
# crystal, experimental, refinement or atomic coordinate data resulting 
# from the CCDC's data processing and validation procedures.
#
#######################################################################

data_VIYKAR
_symmetry_cell_setting           monoclinic
_symmetry_space_group_name_H-M   'C 2/c'
_symmetry_Int_Tables_number      15
_space_group_name_Hall           '-C 2yn'
loop_
_symmetry_equiv_pos_site_id
_symmetry_equiv_pos_as_xyz
1 x,y,z
2 -x,y,1/2-z
3 1/2+x,1/2+y,z
4 1/2-x,1/2+y,1/2-z
5 -x,-y,-z
6 x,-y,1/2+z
7 1/2-x,1/2-y,-z
8 1/2+x,1/2-y,1/2+z
_cell_length_a                   19.9019(15)
_cell_length_b                   17.4988(9)
_cell_length_c                   10.0418(4)
_cell_angle_alpha                90
_cell_angle_beta                 90.003(5)
_cell_angle_gamma                90
_cell_volume                     3497.15
loop_
_atom_site_label
_atom_site_type_symbol
_atom_site_fract_x
_atom_site_fract_y
_atom_site_fract_z
O1 O 0.2961(2) 0.4241(2) 0.8304(4)
O2 O 0.3435(3) 0.4342(2) 1.0250(4)
C1 C 0.3233(3) 0.3941(3) 0.9303(5)
Mn1 Mn 0.20054(5) 0.04377(4) 0.58207(7)
O3 O 0.2853(2) 0.0410(2) 0.4453(4)
O4 O 0.2371(3) 0.1684(2) 0.6490(4)
O5 O 0.2731(2) 0.06506(19) 0.7487(3)
C2 C 0.3309(3) 0.3080(3) 0.9365(5)
C3 C 0.2705(3) 0.1374(3) 0.7419(5)
O6 O 0.1147(3) 0.0635(3) 0.7150(4)
C4 C 0.3683(3) 0.1931(3) 1.0487(5)
C5 C 0.3009(3) 0.2641(3) 0.8376(5)
H1 H 0.2783 0.2876 0.7677
N1 N 0.4000(2) 0.1599(3) 1.1592(4)
H2 H 0.4173 0.1887 1.2195
C6 C 0.3636(3) 0.2732(3) 1.0406(5)
H3 H 0.3831 0.3031 1.1068
O7 O 0.1465(3) 0.1007(2) 0.4185(4)
C7 C 0.3049(3) 0.1848(3) 0.8437(5)
C8 C 0.4533(3) 0.0388(3) 1.0808(5)
C9 C 0.3392(3) 0.1497(3) 0.9478(5)
H4 H 0.3427 0.0967 0.9499
C10 C 0.4543(3) -0.0406(3) 1.0742(6)
H5 H 0.4236 -0.0688 1.1238
C11 C 0.4039(3) 0.0781(3) 1.1726(5)
H6 H 0.3596 0.0569 1.1566
H7 H 0.4160 0.0662 1.2638
C12 C 0.4992(3) 0.0782(3) 1.0060(6)
H8 H 0.4994 0.1314 1.0089
H9 H 0.162(3) 0.089(3) 0.344(3)
H10 H 0.282(3) 0.013(3) 0.378(4)
H11 H 0.110(2) 0.123(4) 0.411(6)
H12 H 0.1243(17) 0.065(4) 0.7928(17)
H13 H 0.302(3) 0.082(2) 0.417(6)
H14 H 0.0868(19) 0.091(4) 0.683(4)
O1D O 0.7039(2) -0.4241(2) 1.1696(4)
O2D O 0.6565(3) -0.4342(2) 0.9750(4)
C1D C 0.6767(3) -0.3941(3) 1.0697(5)
O4D O 0.7629(3) -0.1684(2) 1.3510(4)
O5D O 0.7269(2) -0.06506(19) 1.2513(3)
C2D C 0.6691(3) -0.3080(3) 1.0635(5)
C3D C 0.7295(3) -0.1374(3) 1.2581(5)
C4D C 0.6317(3) -0.1931(3) 0.9513(5)
C5D C 0.6991(3) -0.2641(3) 1.1624(5)
H1D H 0.7217 -0.2876 1.2323
N1D N 0.6000(2) -0.1599(3) 0.8408(4)
H2D H 0.5827 -0.1887 0.7805
C6D C 0.6364(3) -0.2732(3) 0.9594(5)
H3D H 0.6169 -0.3031 0.8932
C7D C 0.6951(3) -0.1848(3) 1.1563(5)
C8D C 0.5467(3) -0.0388(3) 0.9192(5)
C9D C 0.6608(3) -0.1497(3) 1.0522(5)
H4D H 0.6573 -0.0967 1.0501
C10D C 0.5457(3) 0.0406(3) 0.9258(6)
H5D H 0.5764 0.0688 0.8762
C11D C 0.5961(3) -0.0781(3) 0.8274(5)
H6D H 0.6404 -0.0569 0.8434
H7D H 0.5840 -0.0662 0.7362
C12D C 0.5008(3) -0.0782(3) 0.9940(6)
H8D H 0.5006 -0.1314 0.9911
Mn1D Mn 0.79946(5) -0.04377(4) 1.41793(7)
O3D O 0.7147(2) -0.0410(2) 1.5547(4)
O6D O 0.8853(3) -0.0635(3) 1.2850(4)
O7D O 0.8535(3) -0.1007(2) 1.5815(4)
H9D H 0.838(3) -0.089(3) 1.656(3)
H10D H 0.718(3) -0.013(3) 1.622(4)
H11D H 0.890(2) -0.123(4) 1.589(6)
H12D H 0.8757(17) -0.065(4) 1.2072(17)
H13D H 0.698(3) -0.082(2) 1.583(6)
H14D H 0.9132(19) -0.091(4) 1.317(4)
O1C O 0.2039(2) -0.0759(2) 0.6696(4)
O1G O 0.7961(2) 0.0759(2) 1.3304(4)
O2C O 0.1565(3) -0.0658(2) 0.4750(4)
O2G O 0.8435(3) 0.0658(2) 1.5250(4)
Mn1C Mn 0.29946(5) 0.54377(4) 0.91793(7)
Mn1G Mn 0.70054(5) -0.54377(4) 1.08207(7)
O8 O 0.3299(3) 0.1973(3) 0.4116(6)
H15 H 0.319(6) 0.242(3) 0.388(9)
H16 H 0.332(8) 0.200(3) 0.496(2)
O9 O 0.0789(4) 0.2365(4) 0.4398(8)
O10 O 0.0346(8) 0.2059(18) 0.6351(19)
loop_
_geom_bond_atom_site_label_1
_geom_bond_atom_site_label_2
_geom_bond_site_symmetry_1
_geom_bond_site_symmetry_2
O1 C1 1_555 1_555
O2 C1 1_555 1_555
C1 C2 1_555 1_555
Mn1 O3 1_555 1_555
O3 H10 1_555 1_555
O4 Mn1 1_555 1_555
O5 Mn1 1_555 1_555
C2 C5 1_555 1_555
C3 O4 1_555 1_555
O6 Mn1 1_555 1_555
C4 N1 1_555 1_555
C5 H1 1_555 1_555
N1 H2 1_555 1_555
C6 C2 1_555 1_555
H3 C6 1_555 1_555
O7 Mn1 1_555 1_555
C7 C3 1_555 1_555
C8 C10 1_555 1_555
C9 C4 1_555 1_555
H4 C9 1_555 1_555
C10 H5 1_555 1_555
C11 N1 1_555 1_555
H6 C11 1_555 1_555
H7 C11 1_555 1_555
C12 C8 1_555 1_555
H8 C12 1_555 1_555
H9 O7 1_555 1_555
H11 O7 1_555 1_555
H12 O6 1_555 1_555
H13 O3 1_555 1_555
H14 O6 1_555 1_555
O8 H15 1_555 1_555
H16 O8 1_555 1_555
O1D C1D 1_555 1_555
O2D C1D 1_555 1_555
C1D C2D 1_555 1_555
O4D C3D 1_555 1_555
O5D C3D 1_555 1_555
C2D C5D 1_555 1_555
C3D C7D 1_555 1_555
C4D N1D 1_555 1_555
C5D H1D 1_555 1_555
N1D H2D 1_555 1_555
C6D C2D 1_555 1_555
H3D C6D 1_555 1_555
C7D C5D 1_555 1_555
C8D C10D 1_555 1_555
C9D C4D 1_555 1_555
H4D C9D 1_555 1_555
C10D C12 1_555 1_555
H5D C10D 1_555 1_555
C11D N1D 1_555 1_555
H6D C11D 1_555 1_555
H7D C11D 1_555 1_555
C12D C10 1_555 1_555
H8D C12D 1_555 1_555
Mn1D O4D 1_555 1_555
O3D Mn1D 1_555 1_555
O6D Mn1D 1_555 1_555
O7D Mn1D 1_555 1_555
H9D O7D 1_555 1_555
H10D O3D 1_555 1_555
H11D O7D 1_555 1_555
H12D O6D 1_555 1_555
H13D O3D 1_555 1_555
H14D O6D 1_555 1_555
O1C Mn1 1_555 1_555
O1G Mn1D 1_555 1_555
O2C Mn1 1_555 1_555
O2G Mn1D 1_555 1_555
Mn1C O1 1_555 1_555
Mn1G O1D 1_555 1_555
O2 Mn1C 1_555 1_555
O5 C3 1_555 1_555
C4 C6 1_555 1_555
C5 C7 1_555 1_555
C7 C9 1_555 1_555
C8 C11 1_555 1_555
O2D Mn1G 1_555 1_555
O5D Mn1D 1_555 1_555
C4D C6D 1_555 1_555
C7D C9D 1_555 1_555
C8D C11D 1_555 1_555
C8D C12D 1_555 1_555

#END
