
#######################################################################
#
#                 Cambridge Crystallographic Data Centre
#                                CCDC 
#
#######################################################################
#
# If this CIF has been generated from an entry in the Cambridge 
# Structural Database, then it will include bibliographic, chemical, 
# crystal, experimental, refinement or atomic coordinate data resulting 
# from the CCDC's data processing and validation procedures.
#
#######################################################################

data_VIYLUM
_symmetry_cell_setting           triclinic
_symmetry_space_group_name_H-M   'P -1'
_symmetry_Int_Tables_number      2
_space_group_name_Hall           '-P 1'
loop_
_symmetry_equiv_pos_site_id
_symmetry_equiv_pos_as_xyz
1 x,y,z
2 -x,-y,-z
_cell_length_a                   10.4482(8)
_cell_length_b                   10.5816(8)
_cell_length_c                   12.1766(9)
_cell_angle_alpha                96.7210(10)
_cell_angle_beta                 101.8850(9)
_cell_angle_gamma                90.4690(10)
_cell_volume                     1307.59
loop_
_atom_site_label
_atom_site_type_symbol
_atom_site_fract_x
_atom_site_fract_y
_atom_site_fract_z
Co1 Co 0.16484(3) 0.26662(3) 0.20451(2)
N1 N 0.01388(18) 1.14149(18) 0.14132(17)
O1 O 0.28497(19) 0.30206(18) 0.11074(17)
O2 O 0.15648(18) 0.4302(2) 0.00797(18)
N2 N 0.09700(19) 0.42569(19) 0.27808(17)
C1 C 0.3863(2) 0.4447(2) 0.01926(18)
N3 N -0.0315(2) 0.5855(2) 0.31126(18)
N4 N -0.1201(2) 0.97912(19) 0.14592(19)
O3 O 0.1693(2) 0.1271(3) 0.4287(2)
C2 C -0.0947(2) 1.1423(2) 0.0530(2)
C3 C -0.1791(2) 1.0408(2) 0.0557(2)
C4 C 0.3818(2) 0.5573(2) -0.0290(2)
H1 H 0.3023 0.5964 -0.0487
C5 C 0.5054(2) 0.3878(2) 0.0482(2)
H2 H 0.5096 0.3123 0.0807
C6 C -0.0084(2) 0.4881(2) 0.2380(2)
H3 H -0.0609 0.4665 0.1666
C7 C -0.1256(2) 1.2238(2) -0.0299(2)
H4 H -0.0692 1.2917 -0.0318
C8 C 0.2637(2) 0.3903(2) 0.0456(2)
C9 C 0.1482(2) 0.4908(2) 0.3851(2)
C10 C 0.2609(2) 0.4704(2) 0.4644(2)
H5 H 0.3144 0.4034 0.4501
C11 C 0.2919(3) 0.5514(3) 0.5647(2)
C12 C -0.2413(3) 1.2021(2) -0.1092(2)
C13 C -0.2972(2) 1.0187(3) -0.0223(2)
H6 H -0.3533 0.9511 -0.0196
C14 C 0.3753(3) -0.0460(3) 0.4993(2)
H7 H 0.2918 -0.0772 0.4990
C15 C 0.2079(3) 0.6530(3) 0.5864(2)
C16 C 0.0966(3) 0.6728(2) 0.5079(2)
H8 H 0.0416 0.7387 0.5219
C17 C 0.0693(2) 0.5912(2) 0.4072(2)
C18 C -0.0067(2) 1.0429(2) 0.1932(2)
H9 H 0.0513 1.0199 0.2559
C19 C -0.1334(3) 0.6780(2) 0.2881(3)
H10 H -0.1632 0.7072 0.3568
H11 H -0.2075 0.6390 0.2326
C20 C 0.3911(2) 0.0664(2) 0.4541(2)
C21 C -0.3283(2) 1.1002(3) -0.1037(2)
C22 C -0.1770(3) 0.8724(3) 0.1889(3)
H12 H -0.2283 0.9056 0.2431
H13 H -0.2355 0.8220 0.1267
C23 C 0.4833(3) -0.1113(2) 0.5444(2)
H14 H 0.4718 -0.1865 0.5743
C24 C 0.2737(3) 0.1328(3) 0.3977(2)
C25 C -0.0769(3) 0.7903(3) 0.2432(4)
H15 H -0.0187 0.8411 0.3053
H16 H -0.0253 0.7579 0.1889
C26 C 0.4133(3) 0.5296(3) 0.6495(2)
H17 H 0.4607 0.4620 0.6183
H18 H 0.3897 0.5069 0.7169
H19 H 0.4673 0.6061 0.6675
C27 C 0.2412(3) 0.7405(3) 0.6966(3)
H20 H 0.1761 0.8038 0.6977
H21 H 0.3253 0.7814 0.7034
H22 H 0.2435 0.6918 0.7587
C28 C -0.4589(3) 1.0815(4) -0.1860(3)
H23 H -0.5035 1.0067 -0.1731
H24 H -0.4450 1.0717 -0.2620
H25 H -0.5111 1.1543 -0.1750
C29 C -0.2747(3) 1.2880(3) -0.2011(2)
H26 H -0.2116 1.3575 -0.1868
H27 H -0.3603 1.3207 -0.2018
H28 H -0.2736 1.2404 -0.2730
O4 O 0.29285(19) 0.19126(19) 0.31638(16)
O1A O 0.71503(19) 0.69794(18) -0.11074(17)
O2A O 0.84352(18) 0.5698(2) -0.00797(18)
C1A C 0.6137(2) 0.5553(2) -0.01926(18)
C4A C 0.6182(2) 0.4427(2) 0.0290(2)
H1A H 0.6977 0.4036 0.0487
C5A C 0.4946(2) 0.6122(2) -0.0482(2)
H2A H 0.4904 0.6877 -0.0807
C8A C 0.7363(2) 0.6097(2) -0.0456(2)
O3A O 0.8307(2) -0.1271(3) 0.5713(2)
C14A C 0.6247(3) 0.0460(3) 0.5007(2)
H7A H 0.7082 0.0772 0.5010
C20A C 0.6089(2) -0.0664(2) 0.5459(2)
C23A C 0.5167(3) 0.1113(2) 0.4556(2)
H14A H 0.5282 0.1865 0.4257
C24A C 0.7263(3) -0.1328(3) 0.6023(2)
O4A O 0.70715(19) -0.19126(19) 0.68362(16)
Co1A Co 0.83516(3) -0.26662(3) 0.79549(2)
N1A N 0.98612(18) -1.14149(18) 0.85868(17)
N2A N 0.90300(19) -0.42569(19) 0.72192(17)
N3A N 1.0315(2) -0.5855(2) 0.68874(18)
N4A N 1.1201(2) -0.97912(19) 0.85408(19)
C2A C 1.0947(2) -1.1423(2) 0.9470(2)
C3A C 1.1791(2) -1.0408(2) 0.9443(2)
C6A C 1.0084(2) -0.4881(2) 0.7620(2)
H3A H 1.0609 -0.4665 0.8334
C7A C 1.1256(2) -1.2238(2) 1.0299(2)
H4A H 1.0692 -1.2917 1.0318
C9A C 0.8518(2) -0.4908(2) 0.6149(2)
C10A C 0.7391(2) -0.4704(2) 0.5356(2)
H5A H 0.6856 -0.4034 0.5499
C11A C 0.7081(3) -0.5514(3) 0.4353(2)
C12A C 1.2413(3) -1.2021(2) 1.1092(2)
C13A C 1.2972(2) -1.0187(3) 1.0223(2)
H6A H 1.3533 -0.9511 1.0196
C15A C 0.7921(3) -0.6530(3) 0.4136(2)
C16A C 0.9034(3) -0.6728(2) 0.4921(2)
H8A H 0.9584 -0.7387 0.4781
C17A C 0.9307(2) -0.5912(2) 0.5928(2)
C18A C 1.0067(2) -1.0429(2) 0.8068(2)
H9A H 0.9487 -1.0199 0.7441
C19A C 1.1334(3) -0.6780(2) 0.7119(3)
H10A H 1.1632 -0.7072 0.6432
H11A H 1.2075 -0.6390 0.7674
C21A C 1.3283(2) -1.1002(3) 1.1037(2)
C22A C 1.1770(3) -0.8724(3) 0.8111(3)
H12A H 1.2283 -0.9056 0.7569
H13A H 1.2355 -0.8220 0.8733
C25A C 1.0769(3) -0.7903(3) 0.7568(4)
H15A H 1.0187 -0.8411 0.6947
H16A H 1.0253 -0.7579 0.8111
C26A C 0.5867(3) -0.5296(3) 0.3505(2)
H17A H 0.5393 -0.4620 0.3817
H18A H 0.6103 -0.5069 0.2831
H19A H 0.5327 -0.6061 0.3325
C27A C 0.7588(3) -0.7405(3) 0.3034(3)
H20A H 0.8239 -0.8038 0.3023
H21A H 0.6747 -0.7814 0.2966
H22A H 0.7565 -0.6918 0.2413
C28A C 1.4589(3) -1.0815(4) 1.1860(3)
H23A H 1.5035 -1.0067 1.1731
H24A H 1.4450 -1.0717 1.2620
H25A H 1.5111 -1.1543 1.1750
C29A C 1.2747(3) -1.2880(3) 1.2011(2)
H26A H 1.2116 -1.3575 1.1868
H27A H 1.3603 -1.3207 1.2018
H28A H 1.2736 -1.2404 1.2730
Co1_2 Co 0.16484(3) 1.26662(3) 0.20451(2)
Co1A_2 Co 0.83516(3) -1.26662(3) 0.79549(2)
Co1A_3 Co 0.83516(3) 0.73338(3) -0.20451(2)
N1_2 N 0.01388(18) 0.14149(18) 0.14132(17)
N1A_2 N 0.98612(18) -0.14149(18) 0.85868(17)
O1A_2 O 0.71503(19) -0.30206(18) 0.88926(17)
loop_
_geom_bond_atom_site_label_1
_geom_bond_atom_site_label_2
_geom_bond_site_symmetry_1
_geom_bond_site_symmetry_2
Co1 O1 1_555 1_555
N1 C2 1_555 1_555
O1 C8 1_555 1_555
O2 C8 1_555 1_555
N2 Co1 1_555 1_555
C1 C4 1_555 1_555
N3 C6 1_555 1_555
N4 C3 1_555 1_555
O3 C24 1_555 1_555
C2 C3 1_555 1_555
C3 C13 1_555 1_555
C4 H1 1_555 1_555
C5 C1 1_555 1_555
H2 C5 1_555 1_555
C6 N2 1_555 1_555
H3 C6 1_555 1_555
C7 C2 1_555 1_555
H4 C7 1_555 1_555
C8 C1 1_555 1_555
C9 N2 1_555 1_555
C10 C9 1_555 1_555
H5 C10 1_555 1_555
C11 C10 1_555 1_555
C12 C7 1_555 1_555
C13 H6 1_555 1_555
C14 H7 1_555 1_555
C15 C11 1_555 1_555
C16 C15 1_555 1_555
H8 C16 1_555 1_555
C17 N3 1_555 1_555
C18 N1 1_555 1_555
H9 C18 1_555 1_555
C19 N3 1_555 1_555
H10 C19 1_555 1_555
H11 C19 1_555 1_555
C20 C14 1_555 1_555
C21 C12 1_555 1_555
C22 N4 1_555 1_555
H12 C22 1_555 1_555
H13 C22 1_555 1_555
C23 C14 1_555 1_555
H14 C23 1_555 1_555
C24 C20 1_555 1_555
C25 C19 1_555 1_555
H15 C25 1_555 1_555
H16 C25 1_555 1_555
C26 C11 1_555 1_555
H17 C26 1_555 1_555
H18 C26 1_555 1_555
H19 C26 1_555 1_555
C27 C15 1_555 1_555
H20 C27 1_555 1_555
H21 C27 1_555 1_555
H22 C27 1_555 1_555
C28 C21 1_555 1_555
H23 C28 1_555 1_555
H24 C28 1_555 1_555
H25 C28 1_555 1_555
C29 C12 1_555 1_555
H26 C29 1_555 1_555
H27 C29 1_555 1_555
H28 C29 1_555 1_555
O4 Co1 1_555 1_555
O1A C8A 1_555 1_555
O2A C8A 1_555 1_555
C1A C4A 1_555 1_555
C4A C5 1_555 1_555
H1A C4A 1_555 1_555
C5A C4 1_555 1_555
H2A C5A 1_555 1_555
C8A C1A 1_555 1_555
O3A C24A 1_555 1_555
C14A H7A 1_555 1_555
C20A C23 1_555 1_555
C23A C20 1_555 1_555
H14A C23A 1_555 1_555
C24A C20A 1_555 1_555
O4A C24A 1_555 1_555
Co1A O4A 1_555 1_555
N1A C2A 1_555 1_555
N2A Co1A 1_555 1_555
N3A C6A 1_555 1_555
N4A C3A 1_555 1_555
C2A C3A 1_555 1_555
C3A C13A 1_555 1_555
C6A N2A 1_555 1_555
H3A C6A 1_555 1_555
C7A C2A 1_555 1_555
H4A C7A 1_555 1_555
C9A N2A 1_555 1_555
C10A C9A 1_555 1_555
H5A C10A 1_555 1_555
C11A C10A 1_555 1_555
C12A C7A 1_555 1_555
C13A H6A 1_555 1_555
C15A C11A 1_555 1_555
C16A C15A 1_555 1_555
H8A C16A 1_555 1_555
C17A N3A 1_555 1_555
C18A N1A 1_555 1_555
H9A C18A 1_555 1_555
C19A N3A 1_555 1_555
H10A C19A 1_555 1_555
H11A C19A 1_555 1_555
C21A C12A 1_555 1_555
C22A N4A 1_555 1_555
H12A C22A 1_555 1_555
H13A C22A 1_555 1_555
C25A C19A 1_555 1_555
H15A C25A 1_555 1_555
H16A C25A 1_555 1_555
C26A C11A 1_555 1_555
H17A C26A 1_555 1_555
H18A C26A 1_555 1_555
H19A C26A 1_555 1_555
C27A C15A 1_555 1_555
H20A C27A 1_555 1_555
H21A C27A 1_555 1_555
H22A C27A 1_555 1_555
C28A C21A 1_555 1_555
H23A C28A 1_555 1_555
H24A C28A 1_555 1_555
H25A C28A 1_555 1_555
C29A C12A 1_555 1_555
H26A C29A 1_555 1_555
H27A C29A 1_555 1_555
H28A C29A 1_555 1_555
Co1_2 N1 1_555 1_555
Co1A_2 N1A 1_555 1_555
Co1A_3 O1A 1_555 1_555
N1_2 Co1 1_555 1_555
N1A_2 Co1A 1_555 1_555
O1A_2 Co1A 1_555 1_555
N4 C18 1_555 1_555
C9 C17 1_555 1_555
C13 C21 1_555 1_555
C16 C17 1_555 1_555
C22 C25 1_555 1_555
C24 O4 1_555 1_555
C1A C5A 1_555 1_555
C14A C20A 1_555 1_555
C14A C23A 1_555 1_555
N4A C18A 1_555 1_555
C9A C17A 1_555 1_555
C13A C21A 1_555 1_555
C16A C17A 1_555 1_555
C22A C25A 1_555 1_555

#END
