
#######################################################################
#
#                 Cambridge Crystallographic Data Centre
#                                CCDC 
#
#######################################################################
#
# If this CIF has been generated from an entry in the Cambridge 
# Structural Database, then it will include bibliographic, chemical, 
# crystal, experimental, refinement or atomic coordinate data resulting 
# from the CCDC's data processing and validation procedures.
#
#######################################################################

data_VIYLOG
_symmetry_cell_setting           triclinic
_symmetry_space_group_name_H-M   'P -1'
_symmetry_Int_Tables_number      2
_space_group_name_Hall           '-P 1'
loop_
_symmetry_equiv_pos_site_id
_symmetry_equiv_pos_as_xyz
1 x,y,z
2 -x,-y,-z
_cell_length_a                   11.054(2)
_cell_length_b                   12.080(2)
_cell_length_c                   13.587(3)
_cell_angle_alpha                103.379(3)
_cell_angle_beta                 98.000(3)
_cell_angle_gamma                100.995(3)
_cell_volume                     1700.45
loop_
_atom_site_label
_atom_site_type_symbol
_atom_site_fract_x
_atom_site_fract_y
_atom_site_fract_z
C1 C 0.1916(7) 0.5255(7) 0.4643(6)
H1 H 0.1820 0.4828 0.3961
C2 C 0.2473(7) 0.5881(6) 0.6272(6)
C3 C 0.2957(7) 0.6091(6) 0.7305(7)
H2 H 0.3485 0.5641 0.7517
C4 C 0.2673(9) 0.6951(8) 0.8027(7)
C5 C 0.1858(11) 0.7599(8) 0.7702(8)
C6 C 0.3254(11) 0.7182(8) 0.9148(7)
H3 H 0.4001 0.7798 0.9318
H4 H 0.3464 0.6485 0.9271
H5 H 0.2668 0.7411 0.9568
C7 C 0.1477(12) 0.8555(8) 0.8484(8)
H6 H 0.2215 0.9132 0.8869
H7 H 0.1051 0.8208 0.8946
H8 H 0.0928 0.8918 0.8122
C8 C 0.1308(9) 0.7388(7) 0.6688(8)
H9 H 0.0733 0.7800 0.6483
C9 C 0.1650(8) 0.6534(7) 0.5982(6)
C10 C 0.0509(9) 0.6590(9) 0.4255(7)
H10 H 0.0519 0.7388 0.4609
H11 H -0.0346 0.6133 0.4139
C11 C 0.0865(8) 0.6579(8) 0.3244(7)
C12 C 0.0306(9) 0.5651(8) 0.2424(9)
H12 H -0.0324 0.5076 0.2518
C13 C 0.0608(14) 0.5511(12) 0.1485(10)
H13 H 0.0233 0.4835 0.0961
C14 C 0.1476(17) 0.638(2) 0.1311(13)
H14 H 0.1668 0.6324 0.0659
C15 C 0.2049(12) 0.7326(15) 0.2109(15)
H15 H 0.2647 0.7916 0.1998
C16 C 0.1764(9) 0.7438(10) 0.3100(10)
C17 C 0.2517(9) 0.8512(9) 0.3907(10)
H16 H 0.2844 0.9103 0.3574
H17 H 0.1973 0.8824 0.4346
C18 C 0.4225(8) 0.7456(7) 0.4267(7)
H18 H 0.4063 0.6968 0.3601
C19 C 0.5044(7) 0.8286(7) 0.5831(7)
C20 C 0.4098(8) 0.8848(8) 0.5573(9)
C21 C 0.3868(10) 0.9761(9) 0.6299(11)
H19 H 0.3242 1.0133 0.6116
C22 C 0.4543(12) 1.0111(10) 0.7267(11)
C23 C 0.5466(11) 0.9529(8) 0.7555(8)
C24 C 0.5714(8) 0.8608(7) 0.6819(7)
H20 H 0.6328 0.8223 0.7003
C25 C 0.6190(12) 0.9827(8) 0.8655(8)
H21 H 0.5617 0.9887 0.9124
H22 H 0.6618 0.9223 0.8732
H23 H 0.6792 1.0559 0.8803
C26 C 0.4276(10) 1.1119(9) 0.8059(10)
H24 H 0.3715 1.1489 0.7717
H25 H 0.3897 1.0820 0.8567
H26 H 0.5049 1.1680 0.8388
C27 C 0.1919(7) 0.2124(6) 0.5333(7)
C28 C 0.0921(6) 0.1022(5) 0.5186(6)
C29 C 0.0537(6) 0.0664(5) 0.5995(6)
H27 H 0.0888 0.1109 0.6666
C30 C 0.0388(6) 0.0372(5) 0.4177(5)
H28 H 0.0640 0.0621 0.3624
C31 C 0.5819(7) 0.5474(6) 0.6829(5)
C32 C 0.6397(6) 0.5840(6) 0.7928(5)
C33 C 0.5949(7) 0.5274(6) 0.8623(6)
H29 H 0.5294 0.4611 0.8378
C34 C 0.6428(7) 0.5648(6) 0.9652(6)
H30 H 0.6095 0.5250 1.0099
C35 C 0.7421(7) 0.6631(6) 1.0032(6)
C36 C 0.7933(7) 0.7192(7) 0.9366(6)
H31 H 0.8616 0.7829 0.9616
C37 C 0.7440(7) 0.6813(6) 0.8333(6)
H32 H 0.7794 0.7199 0.7887
Co1 Co 0.37046(9) 0.37929(8) 0.51972(8)
N1 N 0.2633(5) 0.5064(4) 0.5403(5)
N2 N 0.5101(6) 0.7400(5) 0.4983(5)
O1 O 0.4898(4) 0.4629(4) 0.6533(3)
O2 O 0.2168(4) 0.2417(4) 0.4561(4)
O3 O 0.2463(4) 0.2708(4) 0.6228(4)
N3 N 0.1319(7) 0.6130(6) 0.4929(5)
N4 N 0.3573(7) 0.8262(6) 0.4549(7)
O4 O 0.6289(5) 0.6056(4) 0.6246(4)
C38 C 0.7907(8) 0.7110(7) 1.1166(6)
O5 O 0.8751(6) 0.7987(5) 1.1530(4)
O6 O 0.7322(6) 0.6524(5) 1.1726(4)
H33 H 0.7532 0.6892 1.2335
C27A C -0.1919(7) -0.2124(6) 0.4667(7)
C28A C -0.0921(6) -0.1022(5) 0.4814(6)
C29A C -0.0537(6) -0.0664(5) 0.4005(6)
H27A H -0.0888 -0.1109 0.3334
C30A C -0.0388(6) -0.0372(5) 0.5823(5)
H28A H -0.0640 -0.0621 0.6376
O2A O -0.2168(4) -0.2417(4) 0.5439(4)
O3A O -0.2463(4) -0.2708(4) 0.3772(4)
C1A C -0.1916(7) -0.5255(7) 0.5357(6)
H1A H -0.1820 -0.4828 0.6039
C2A C -0.2473(7) -0.5881(6) 0.3728(6)
C3A C -0.2957(7) -0.6091(6) 0.2695(7)
H2A H -0.3485 -0.5641 0.2483
C4A C -0.2673(9) -0.6951(8) 0.1973(7)
C5A C -0.1858(11) -0.7599(8) 0.2298(8)
C6A C -0.3254(11) -0.7182(8) 0.0852(7)
H3A H -0.4001 -0.7798 0.0682
H4A H -0.3464 -0.6485 0.0729
H5A H -0.2668 -0.7411 0.0432
C7A C -0.1477(12) -0.8555(8) 0.1516(8)
H6A H -0.2215 -0.9132 0.1131
H7A H -0.1051 -0.8208 0.1054
H8A H -0.0928 -0.8918 0.1878
C8A C -0.1308(9) -0.7388(7) 0.3312(8)
H9A H -0.0733 -0.7800 0.3517
C9A C -0.1650(8) -0.6534(7) 0.4018(6)
C10A C -0.0509(9) -0.6590(9) 0.5745(7)
H10A H -0.0519 -0.7388 0.5391
H11A H 0.0346 -0.6133 0.5861
C11A C -0.0865(8) -0.6579(8) 0.6756(7)
C12A C -0.0306(9) -0.5651(8) 0.7576(9)
H12A H 0.0324 -0.5076 0.7482
C13A C -0.0608(14) -0.5511(12) 0.8515(10)
H13A H -0.0233 -0.4835 0.9039
C14A C -0.1476(17) -0.638(2) 0.8689(13)
H14A H -0.1668 -0.6324 0.9341
C15A C -0.2049(12) -0.7326(15) 0.7891(15)
H15A H -0.2647 -0.7916 0.8002
C16A C -0.1764(9) -0.7438(10) 0.6900(10)
C17A C -0.2517(9) -0.8512(9) 0.6093(10)
H16A H -0.2844 -0.9103 0.6426
H17A H -0.1973 -0.8824 0.5654
C18A C -0.4225(8) -0.7456(7) 0.5733(7)
H18A H -0.4063 -0.6968 0.6399
C19A C -0.5044(7) -0.8286(7) 0.4169(7)
C20A C -0.4098(8) -0.8848(8) 0.4427(9)
C21A C -0.3868(10) -0.9761(9) 0.3701(11)
H19A H -0.3242 -1.0133 0.3884
C22A C -0.4543(12) -1.0111(10) 0.2733(11)
C23A C -0.5466(11) -0.9529(8) 0.2445(8)
C24A C -0.5714(8) -0.8608(7) 0.3181(7)
H20A H -0.6328 -0.8223 0.2997
C25A C -0.6190(12) -0.9827(8) 0.1345(8)
H21A H -0.5617 -0.9887 0.0876
H22A H -0.6618 -0.9223 0.1268
H23A H -0.6792 -1.0559 0.1197
C26A C -0.4276(10) -1.1119(9) 0.1941(10)
H24A H -0.3715 -1.1489 0.2283
H25A H -0.3897 -1.0820 0.1433
H26A H -0.5049 -1.1680 0.1612
C31A C -0.5819(7) -0.5474(6) 0.3171(5)
C32A C -0.6397(6) -0.5840(6) 0.2072(5)
C33A C -0.5949(7) -0.5274(6) 0.1377(6)
H29A H -0.5294 -0.4611 0.1622
C34A C -0.6428(7) -0.5648(6) 0.0348(6)
H30A H -0.6095 -0.5250 -0.0099
C35A C -0.7421(7) -0.6631(6) -0.0032(6)
C36A C -0.7933(7) -0.7192(7) 0.0634(6)
H31A H -0.8616 -0.7829 0.0384
C37A C -0.7440(7) -0.6813(6) 0.1667(6)
H32A H -0.7794 -0.7199 0.2113
Co1A Co -0.37046(9) -0.37929(8) 0.48028(8)
N1A N -0.2633(5) -0.5064(4) 0.4597(5)
N2A N -0.5101(6) -0.7400(5) 0.5017(5)
O1A O -0.4898(4) -0.4629(4) 0.3467(3)
N3A N -0.1319(7) -0.6130(6) 0.5071(5)
N4A N -0.3573(7) -0.8262(6) 0.5451(7)
O4A O -0.6289(5) -0.6056(4) 0.3754(4)
C38A C -0.7907(8) -0.7110(7) -0.1166(6)
O5A O -0.8751(6) -0.7987(5) -0.1530(4)
O6A O -0.7322(6) -0.6524(5) -0.1726(4)
H33A H -0.7532 -0.6892 -0.2335
Co1_2 Co -0.62954(9) -0.62071(8) 0.51972(8)
Co1A_2 Co 0.62954(9) 0.62071(8) 0.48028(8)
N2_2 N -0.4899(6) -0.2600(5) 0.4983(5)
N2A_2 N 0.4899(6) 0.2600(5) 0.5017(5)
O4_2 O -0.3711(5) -0.3944(4) 0.6246(4)
O4A_2 O 0.3711(5) 0.3944(4) 0.3754(4)
loop_
_geom_bond_atom_site_label_1
_geom_bond_atom_site_label_2
_geom_bond_site_symmetry_1
_geom_bond_site_symmetry_2
C1 H1 1_555 1_555
C2 C3 1_555 1_555
C3 H2 1_555 1_555
C4 C3 1_555 1_555
C5 C4 1_555 1_555
C6 C4 1_555 1_555
H3 C6 1_555 1_555
H4 C6 1_555 1_555
H5 C6 1_555 1_555
C7 C5 1_555 1_555
H6 C7 1_555 1_555
H7 C7 1_555 1_555
H8 C7 1_555 1_555
C8 C5 1_555 1_555
H9 C8 1_555 1_555
C9 C2 1_555 1_555
C10 H10 1_555 1_555
H11 C10 1_555 1_555
C11 C10 1_555 1_555
C12 C11 1_555 1_555
H12 C12 1_555 1_555
C13 C12 1_555 1_555
H13 C13 1_555 1_555
C14 C13 1_555 1_555
H14 C14 1_555 1_555
C15 C14 1_555 1_555
H15 C15 1_555 1_555
C16 C11 1_555 1_555
C17 C16 1_555 1_555
H16 C17 1_555 1_555
H17 C17 1_555 1_555
C18 H18 1_555 1_555
C19 C20 1_555 1_555
C20 C21 1_555 1_555
C21 H19 1_555 1_555
C22 C21 1_555 1_555
C23 C22 1_555 1_555
C24 C19 1_555 1_555
H20 C24 1_555 1_555
C25 C23 1_555 1_555
H21 C25 1_555 1_555
H22 C25 1_555 1_555
H23 C25 1_555 1_555
C26 C22 1_555 1_555
H24 C26 1_555 1_555
H25 C26 1_555 1_555
H26 C26 1_555 1_555
C27 C28 1_555 1_555
C28 C29 1_555 1_555
C29 H27 1_555 1_555
C30 C28 1_555 1_555
H28 C30 1_555 1_555
C31 C32 1_555 1_555
C32 C33 1_555 1_555
C33 H29 1_555 1_555
C34 C33 1_555 1_555
H30 C34 1_555 1_555
C35 C34 1_555 1_555
C36 C35 1_555 1_555
H31 C36 1_555 1_555
C37 C32 1_555 1_555
H32 C37 1_555 1_555
Co1 N1 1_555 1_555
N1 C1 1_555 1_555
N2 C18 1_555 1_555
O1 C31 1_555 1_555
O2 C27 1_555 1_555
O3 C27 1_555 1_555
N3 C1 1_555 1_555
N4 C17 1_555 1_555
O4 C31 1_555 1_555
C38 C35 1_555 1_555
O5 C38 1_555 1_555
O6 C38 1_555 1_555
H33 O6 1_555 1_555
C27A C28A 1_555 1_555
C28A C29A 1_555 1_555
C29A C30 1_555 1_555
H27A C29A 1_555 1_555
C30A C29 1_555 1_555
H28A C30A 1_555 1_555
O2A C27A 1_555 1_555
O3A C27A 1_555 1_555
C1A H1A 1_555 1_555
C2A C3A 1_555 1_555
C3A H2A 1_555 1_555
C4A C3A 1_555 1_555
C5A C4A 1_555 1_555
C6A C4A 1_555 1_555
H3A C6A 1_555 1_555
H4A C6A 1_555 1_555
H5A C6A 1_555 1_555
C7A C5A 1_555 1_555
H6A C7A 1_555 1_555
H7A C7A 1_555 1_555
H8A C7A 1_555 1_555
C8A C5A 1_555 1_555
H9A C8A 1_555 1_555
C9A C2A 1_555 1_555
C10A H10A 1_555 1_555
H11A C10A 1_555 1_555
C11A C10A 1_555 1_555
C12A C11A 1_555 1_555
H12A C12A 1_555 1_555
C13A C12A 1_555 1_555
H13A C13A 1_555 1_555
C14A C13A 1_555 1_555
H14A C14A 1_555 1_555
C15A C14A 1_555 1_555
H15A C15A 1_555 1_555
C16A C11A 1_555 1_555
C17A C16A 1_555 1_555
H16A C17A 1_555 1_555
H17A C17A 1_555 1_555
C18A H18A 1_555 1_555
C19A C20A 1_555 1_555
C20A C21A 1_555 1_555
C21A H19A 1_555 1_555
C22A C21A 1_555 1_555
C23A C22A 1_555 1_555
C24A C19A 1_555 1_555
H20A C24A 1_555 1_555
C25A C23A 1_555 1_555
H21A C25A 1_555 1_555
H22A C25A 1_555 1_555
H23A C25A 1_555 1_555
C26A C22A 1_555 1_555
H24A C26A 1_555 1_555
H25A C26A 1_555 1_555
H26A C26A 1_555 1_555
C31A C32A 1_555 1_555
C32A C33A 1_555 1_555
C33A H29A 1_555 1_555
C34A C33A 1_555 1_555
H30A C34A 1_555 1_555
C35A C34A 1_555 1_555
C36A C35A 1_555 1_555
H31A C36A 1_555 1_555
C37A C32A 1_555 1_555
H32A C37A 1_555 1_555
Co1A O2A 1_555 1_555
N1A C1A 1_555 1_555
N2A C18A 1_555 1_555
O1A C31A 1_555 1_555
N3A C1A 1_555 1_555
N4A C17A 1_555 1_555
O4A C31A 1_555 1_555
C38A C35A 1_555 1_555
O5A C38A 1_555 1_555
O6A C38A 1_555 1_555
H33A O6A 1_555 1_555
Co1_2 N2A 1_555 1_555
Co1A_2 N2 1_555 1_555
N2_2 Co1A 1_555 1_555
N2A_2 Co1 1_555 1_555
O4_2 Co1A 1_555 1_555
O4A_2 Co1 1_555 1_555
C2 N1 1_555 1_555
C8 C9 1_555 1_555
C9 N3 1_555 1_555
C10 N3 1_555 1_555
C15 C16 1_555 1_555
C18 N4 1_555 1_555
C19 N2 1_555 1_555
C20 N4 1_555 1_555
C23 C24 1_555 1_555
C36 C37 1_555 1_555
Co1 O1 1_555 1_555
Co1 O2 1_555 1_555
O4 Co1A_2 1_555 1_555
C28A C30A 1_555 1_555
C2A N1A 1_555 1_555
C8A C9A 1_555 1_555
C9A N3A 1_555 1_555
C10A N3A 1_555 1_555
C15A C16A 1_555 1_555
C18A N4A 1_555 1_555
C19A N2A 1_555 1_555
C20A N4A 1_555 1_555
C23A C24A 1_555 1_555
C36A C37A 1_555 1_555
Co1A N1A 1_555 1_555
Co1A O1A 1_555 1_555
O4A Co1_2 1_555 1_555

#END
