
#######################################################################
#
#                 Cambridge Crystallographic Data Centre
#                                CCDC 
#
#######################################################################
#
# If this CIF has been generated from an entry in the Cambridge 
# Structural Database, then it will include bibliographic, chemical, 
# crystal, experimental, refinement or atomic coordinate data resulting 
# from the CCDC's data processing and validation procedures.
#
#######################################################################

data_VIYMAT
_symmetry_cell_setting           triclinic
_symmetry_space_group_name_H-M   'P -1'
_symmetry_Int_Tables_number      2
_space_group_name_Hall           '-P 1'
loop_
_symmetry_equiv_pos_site_id
_symmetry_equiv_pos_as_xyz
1 x,y,z
2 -x,-y,-z
_cell_length_a                   9.8035(3)
_cell_length_b                   10.9423(4)
_cell_length_c                   19.4289(6)
_cell_angle_alpha                85.596(3)
_cell_angle_beta                 75.686(3)
_cell_angle_gamma                63.622(4)
_cell_volume                     1807.91
loop_
_atom_site_label
_atom_site_type_symbol
_atom_site_fract_x
_atom_site_fract_y
_atom_site_fract_z
Nd1 Nd 0.71004(7) 0.02729(6) 0.50041(3)
Nd2 Nd 0.24949(7) 0.48030(6) 0.99082(3)
S1 S 1.2990(3) -0.4737(3) 0.46973(16)
S2 S 0.3377(3) 0.2228(3) 0.76153(15)
S3 S -0.2956(3) 0.9836(3) 0.96794(17)
O1 O 0.5330(10) 0.1132(9) 0.6192(4)
O2 O -0.5077(10) 1.2792(9) 0.9885(5)
O3 O 0.2342(11) 0.3412(9) 0.9039(5)
O4 O 0.7869(11) 0.1273(9) 0.3821(5)
O5 O 1.3145(10) -0.8305(8) 0.4483(5)
O6 O 0.9808(10) -0.1160(8) 0.4364(5)
O7 O 1.1988(10) -0.1849(8) 0.4759(5)
O8 O 0.4492(11) 0.4680(9) 0.8726(5)
O9 O 0.0888(10) 0.6420(9) 0.9193(5)
C1 C 0.9055(19) 0.2109(19) 0.2514(8)
H1 H 0.9292 0.2648 0.2132
H2 H 0.8528 0.1647 0.2373
H3 H 1.0011 0.1448 0.2625
O10 O 0.8782(10) -0.0744(9) 0.5893(5)
H4 H 0.8455 -0.1014 0.6340
H5 H 0.9347 -0.0352 0.5940
O11 O 1.4821(10) -0.7694(8) 0.4800(5)
O12 O -0.0135(11) 0.3710(9) 0.9269(5)
O13 O -0.1632(11) 0.6816(9) 0.9422(5)
C2 C 1.1019(13) -0.2067(11) 0.4533(6)
C3 C -0.0557(14) 0.7194(12) 0.9325(6)
C4 C 1.0579(14) -0.4072(12) 0.4188(6)
H6 H 0.9678 -0.3561 0.4025
C5 C 0.1555(13) 0.2688(12) 0.8172(6)
C6 C -0.1029(13) 0.8685(12) 0.9365(6)
C7 C 0.4021(14) 0.1120(12) 0.6260(6)
C8 C -0.3690(14) 1.2581(11) 0.9841(6)
N1 N 0.6146(14) 0.3501(13) 0.7705(6)
C9 C 0.5277(15) 0.3597(14) 0.8350(7)
C10 C 1.1290(14) -0.5512(12) 0.4196(6)
H7 H 1.0915 -0.6059 0.4040
N2 N 0.8052(17) 0.2989(13) 0.3135(7)
C11 C 1.2603(14) -0.6007(11) 0.4463(6)
C12 C 1.1363(13) -0.3509(11) 0.4446(6)
C13 C 1.3608(14) -0.7454(11) 0.4594(6)
C14 C 0.2869(14) 0.1672(12) 0.6963(6)
C15 C 0.1353(15) 0.1830(13) 0.7171(7)
H8 H 0.0880 0.1571 0.6888
C16 C -0.2455(14) 1.1173(12) 0.9617(6)
C17 C 0.767(3) 0.443(2) 0.3091(13)
H9 H 0.8122 0.4614 0.2621
H10 H 0.8083 0.4679 0.3429
H11 H 0.6552 0.4962 0.3195
C18 C 0.7556(18) 0.2487(14) 0.3734(7)
C19 C 0.0589(15) 0.2428(13) 0.7863(7)
H12 H -0.0445 0.2622 0.8083
C20 C 0.1218(14) 0.3324(12) 0.8882(6)
C21 C 0.623(2) 0.4689(19) 0.7347(8)
H13 H 0.6924 0.4415 0.6883
H14 H 0.6629 0.5100 0.7619
H15 H 0.5207 0.5338 0.7304
O14 O -0.3278(11) 1.3458(9) 0.9967(5)
O15 O 0.3133(19) 0.4616(17) 1.1120(8)
H16 H 0.3995 0.4689 1.1163
H17 H 0.2660 0.4485 1.1507
C22 C -0.0063(14) 0.9320(13) 0.9209(7)
H18 H 0.1015 0.8861 0.9026
C23 C -0.0874(15) 1.0744(13) 0.9354(7)
H19 H -0.0393 1.1324 0.9280
C24 C 0.7040(18) 0.2196(18) 0.7308(9)
H20 H 0.7598 0.2324 0.6849
H21 H 0.6337 0.1840 0.7250
H22 H 0.7773 0.1565 0.7563
O16 O 0.3625(11) 0.0662(9) 0.5824(5)
H23 H 0.530(18) 0.278(16) 0.852(8)
H24 H 0.70(2) 0.314(18) 0.408(10)
Nd1_2 Nd 1.71004(7) -0.97271(6) 0.50041(3)
Nd1A Nd 0.28996(7) -0.02729(6) 0.49959(3)
Nd1A_2 Nd 1.28996(7) -1.02729(6) 0.49959(3)
Nd1A_3 Nd 1.28996(7) -0.02729(6) 0.49959(3)
Nd2_2 Nd -0.75051(7) 1.48030(6) 0.99082(3)
Nd2A Nd -0.24949(7) 0.51970(6) 1.00918(3)
Nd2A_2 Nd -0.24949(7) 1.51970(6) 1.00918(3)
O2_2 O 0.4923(10) 0.2792(9) 0.9885(5)
O5A O 0.6855(10) -0.1695(8) 0.5517(5)
O7A O 0.8012(10) 0.1849(8) 0.5241(5)
O11_2 O 0.4821(10) 0.2306(8) 0.4800(5)
O12A O 0.0135(11) 0.6290(9) 1.0731(5)
O13A O 0.1632(11) 0.3184(9) 1.0578(5)
O14A O 0.3278(11) 0.6542(9) 1.0033(5)
O16A O 0.6375(11) -0.0662(9) 0.4176(5)
N3 N 0.4708(15) 0.1406(13) 0.2161(6)
C25 C 0.3668(18) 0.1567(17) 0.2806(8)
H25 H 0.3933 0.1660 0.3220
O17 O 0.2406(15) 0.1589(17) 0.2839(7)
C26 C 0.444(3) 0.1051(19) 0.1519(9)
H26 H 0.5307 0.0949 0.1126
H27 H 0.3492 0.1761 0.1427
H28 H 0.4355 0.0208 0.1578
C27 C 0.619(2) 0.1423(19) 0.2125(12)
H29 H 0.6791 0.1265 0.1641
H30 H 0.6760 0.0720 0.2413
H31 H 0.6003 0.2296 0.2298
O18 O 0.1135(19) 0.4134(18) 1.2117(8)
loop_
_geom_bond_atom_site_label_1
_geom_bond_atom_site_label_2
_geom_bond_site_symmetry_1
_geom_bond_site_symmetry_2
Nd1 O1 1_555 1_555
Nd2 O3 1_555 1_555
S1 C11 1_555 1_555
S2 C5 1_555 1_555
S3 C6 1_555 1_555
O1 C7 1_555 1_555
O2 C8 1_555 1_555
O3 C20 1_555 1_555
O4 Nd1 1_555 1_555
O5 C13 1_555 1_555
O6 Nd1 1_555 1_555
O7 C2 1_555 1_555
O8 Nd2 1_555 1_555
O9 Nd2 1_555 1_555
C1 H1 1_555 1_555
H2 C1 1_555 1_555
H3 C1 1_555 1_555
O10 Nd1 1_555 1_555
H4 O10 1_555 1_555
H5 O10 1_555 1_555
O11 C13 1_555 1_555
O12 C20 1_555 1_555
O13 C3 1_555 1_555
C2 O6 1_555 1_555
C3 O9 1_555 1_555
C4 H6 1_555 1_555
C5 C19 1_555 1_555
C6 C3 1_555 1_555
C7 C14 1_555 1_555
C8 C16 1_555 1_555
N1 C9 1_555 1_555
C9 O8 1_555 1_555
C10 C4 1_555 1_555
H7 C10 1_555 1_555
N2 C1 1_555 1_555
C11 C10 1_555 1_555
C12 S1 1_555 1_555
C13 C11 1_555 1_555
C14 S2 1_555 1_555
C15 C14 1_555 1_555
H8 C15 1_555 1_555
C16 S3 1_555 1_555
C17 N2 1_555 1_555
H9 C17 1_555 1_555
H10 C17 1_555 1_555
H11 C17 1_555 1_555
C18 O4 1_555 1_555
C19 C15 1_555 1_555
H12 C19 1_555 1_555
C20 C5 1_555 1_555
C21 N1 1_555 1_555
H13 C21 1_555 1_555
H14 C21 1_555 1_555
H15 C21 1_555 1_555
O14 C8 1_555 1_555
O15 Nd2 1_555 1_555
H16 O15 1_555 1_555
H17 O15 1_555 1_555
C22 C6 1_555 1_555
H18 C22 1_555 1_555
C23 C16 1_555 1_555
H19 C23 1_555 1_555
C24 N1 1_555 1_555
H20 C24 1_555 1_555
H21 C24 1_555 1_555
H22 C24 1_555 1_555
O16 C7 1_555 1_555
H23 C9 1_555 1_555
H24 C18 1_555 1_555
N3 C25 1_555 1_555
C25 H25 1_555 1_555
O17 C25 1_555 1_555
C26 N3 1_555 1_555
H26 C26 1_555 1_555
H27 C26 1_555 1_555
H28 C26 1_555 1_555
C27 N3 1_555 1_555
H29 C27 1_555 1_555
H30 C27 1_555 1_555
H31 C27 1_555 1_555
Nd1_2 O11 1_555 1_555
Nd1A O16 1_555 1_555
Nd1A_2 O5 1_555 1_555
Nd1A_3 O7 1_555 1_555
Nd2_2 O2 1_555 1_555
Nd2A O12 1_555 1_555
Nd2A_2 O14 1_555 1_555
O2_2 Nd2 1_555 1_555
O5A Nd1 1_555 1_555
O7A Nd1 1_555 1_555
O11_2 Nd1 1_555 1_555
O12A Nd2 1_555 1_555
O13A Nd2 1_555 1_555
O14A Nd2 1_555 1_555
O16A Nd1 1_555 1_555
O13 Nd2A 1_555 1_555
C2 C12 1_555 1_555
C4 C12 1_555 1_555
N2 C18 1_555 1_555
C22 C23 1_555 1_555

#END
