
#######################################################################
#
#                 Cambridge Crystallographic Data Centre
#                                CCDC 
#
#######################################################################
#
# If this CIF has been generated from an entry in the Cambridge 
# Structural Database, then it will include bibliographic, chemical, 
# crystal, experimental, refinement or atomic coordinate data resulting 
# from the CCDC's data processing and validation procedures.
#
#######################################################################

data_VIYPUP
_symmetry_cell_setting           monoclinic
_symmetry_space_group_name_H-M   'P 21/c'
_symmetry_Int_Tables_number      14
_space_group_name_Hall           '-P 2ybc'
loop_
_symmetry_equiv_pos_site_id
_symmetry_equiv_pos_as_xyz
1 x,y,z
2 -x,1/2+y,1/2-z
3 -x,-y,-z
4 x,1/2-y,1/2+z
_cell_length_a                   9.7671(13)
_cell_length_b                   14.0223(19)
_cell_length_c                   11.1479(13)
_cell_angle_alpha                90
_cell_angle_beta                 100.861(10)
_cell_angle_gamma                90
_cell_volume                     1499.44
loop_
_atom_site_label
_atom_site_type_symbol
_atom_site_fract_x
_atom_site_fract_y
_atom_site_fract_z
Cd1 Cd 0.854563(19) 0.145258(14) 0.562384(16)
C1 C 1.0667(3) 0.13832(19) 0.8311(3)
H1 H 1.0588 0.2044 0.8283
C2 C 1.1355(3) 0.0945(2) 0.9358(2)
H2 H 1.1774 0.1323 1.0010
C3 C 1.0853(3) -0.05161(19) 0.8503(2)
C4 C 1.0235(3) -0.00847(18) 0.7401(2)
C5 C 0.9729(3) -0.06179(18) 0.6207(2)
C6 C 1.0778(4) -0.1590(2) 0.8711(3)
C7 C 0.6293(4) 0.1557(2) 0.3072(3)
H3 H 0.7106 0.1610 0.2757
C8 C 0.5026(4) 0.1640(3) 0.2284(3)
H4 H 0.4989 0.1734 0.1452
C9 C 0.3834(4) 0.1583(3) 0.2744(4)
H5 H 0.2971 0.1651 0.2232
C10 C 0.3916(4) 0.1422(3) 0.3983(4)
H6 H 0.3110 0.1383 0.4311
C11 C 0.4237(4) 0.0937(3) 0.6603(3)
H7 H 0.3350 0.0880 0.6128
C12 C 0.4448(4) 0.0816(3) 0.7854(4)
H8 H 0.3696 0.0683 0.8229
C13 C 0.5762(4) 0.0889(3) 0.8544(3)
H9 H 0.5916 0.0821 0.9389
C14 C 0.6850(3) 0.1066(3) 0.7946(3)
H10 H 0.7747 0.1103 0.8407
C15 C 0.5377(3) 0.1148(2) 0.6068(3)
C16 C 0.5231(3) 0.1320(2) 0.4733(3)
N1 N 1.0111(2) 0.08631(16) 0.7332(2)
N2 N 1.1442(3) -0.00004(19) 0.9472(2)
N3 N 0.6399(2) 0.14020(17) 0.4274(2)
N4 N 0.6683(3) 0.11892(18) 0.6735(2)
O1 O 0.8750(2) -0.02576(14) 0.54786(17)
O2 O 1.0395(2) -0.13627(13) 0.60624(19)
O3 O 0.9629(3) -0.19754(17) 0.8492(2)
O4 O 1.1920(3) -0.19835(18) 0.9147(2)
Cd1B Cd 1.145437(19) -0.145258(14) 0.437616(16)
Cd1A Cd 1.145437(19) -0.354742(14) 0.937616(16)
O2B O 0.9605(2) 0.13627(13) 0.39376(19)
O4A O 0.8080(3) 0.30165(18) 0.5853(2)
loop_
_geom_bond_atom_site_label_1
_geom_bond_atom_site_label_2
_geom_bond_site_symmetry_1
_geom_bond_site_symmetry_2
Cd1 N1 1_555 1_555
C1 H1 1_555 1_555
C2 C1 1_555 1_555
H2 C2 1_555 1_555
C3 C4 1_555 1_555
C4 C5 1_555 1_555
C5 O1 1_555 1_555
C6 C3 1_555 1_555
C7 H3 1_555 1_555
C8 C7 1_555 1_555
H4 C8 1_555 1_555
C9 C8 1_555 1_555
H5 C9 1_555 1_555
C10 C9 1_555 1_555
H6 C10 1_555 1_555
C11 H7 1_555 1_555
C12 C11 1_555 1_555
H8 C12 1_555 1_555
C13 C12 1_555 1_555
H9 C13 1_555 1_555
C14 C13 1_555 1_555
H10 C14 1_555 1_555
C15 C11 1_555 1_555
C16 C10 1_555 1_555
N1 C1 1_555 1_555
N2 C2 1_555 1_555
N3 Cd1 1_555 1_555
N4 Cd1 1_555 1_555
O1 Cd1 1_555 1_555
O2 C5 1_555 1_555
O3 C6 1_555 1_555
O4 C6 1_555 1_555
Cd1B O2 1_555 1_555
Cd1A O4 1_555 1_555
O2B Cd1 1_555 1_555
O4A Cd1 1_555 1_555
C3 N2 1_555 1_555
C4 N1 1_555 1_555
C7 N3 1_555 1_555
C14 N4 1_555 1_555
C15 C16 1_555 1_555
C15 N4 1_555 1_555
C16 N3 1_555 1_555

#END
