
#######################################################################
#
#                 Cambridge Crystallographic Data Centre
#                                CCDC 
#
#######################################################################
#
# If this CIF has been generated from an entry in the Cambridge 
# Structural Database, then it will include bibliographic, chemical, 
# crystal, experimental, refinement or atomic coordinate data resulting 
# from the CCDC's data processing and validation procedures.
#
#######################################################################

data_VIYQAX
_symmetry_cell_setting           monoclinic
_symmetry_space_group_name_H-M   'P 21/c'
_symmetry_Int_Tables_number      14
_space_group_name_Hall           '-P 2ybc'
loop_
_symmetry_equiv_pos_site_id
_symmetry_equiv_pos_as_xyz
1 x,y,z
2 -x,1/2+y,1/2-z
3 -x,-y,-z
4 x,1/2-y,1/2+z
_cell_length_a                   8.910(3)
_cell_length_b                   16.557(6)
_cell_length_c                   18.873(5)
_cell_angle_alpha                90
_cell_angle_beta                 114.356(13)
_cell_angle_gamma                90
_cell_volume                     2536.41
loop_
_atom_site_label
_atom_site_type_symbol
_atom_site_fract_x
_atom_site_fract_y
_atom_site_fract_z
Zn1 Zn 0.93530(3) 0.838247(14) 0.894024(14)
O1 O 0.4624(2) 0.83359(10) 1.02489(11)
H1 H 0.3620 0.8321 1.0011
O2 O 1.2735(3) 0.84751(11) 0.65578(12)
H2 H 1.2387 0.8390 0.6089
O3 O 0.9298(2) 0.85377(10) 0.99528(10)
O4 O 1.0746(2) 0.74317(11) 1.03538(10)
O5 O 1.1641(2) 0.83755(10) 0.90309(10)
O6 O 1.0108(2) 0.80780(13) 0.78264(11)
N1 N 0.7566(2) 0.75236(11) 0.84208(10)
N2 N 0.1812(2) 0.44461(11) 0.65606(10)
C1 C 0.7260(3) 0.69289(15) 0.88295(13)
H3 H 0.7857 0.6915 0.9366
C2 C 0.6100(3) 0.63427(14) 0.84825(13)
H4 H 0.5943 0.5933 0.8782
C3 C 0.5164(3) 0.63583(13) 0.76898(12)
C4 C 0.5450(3) 0.69839(13) 0.72744(13)
H5 H 0.4833 0.7025 0.6741
C5 C 0.6648(3) 0.75421(14) 0.76558(13)
H6 H 0.6830 0.7955 0.7367
C6 C 0.2469(3) 0.49033(13) 0.61758(13)
H7 H 0.2199 0.4787 0.5655
C7 C 0.3206(3) 0.52665(14) 0.76737(13)
H8 H 0.3413 0.5386 0.8187
C8 C 0.3943(2) 0.57147(12) 0.72907(12)
C9 C 0.3515(3) 0.55324(13) 0.65091(12)
H9 H 0.3938 0.5836 0.6219
C10 C 0.2165(3) 0.46431(14) 0.72995(13)
H10 H 0.1687 0.4346 0.7571
C11 C 0.6941(3) 0.74735(13) 1.07694(12)
C12 C 0.7557(3) 0.66968(14) 1.08883(15)
H11 H 0.8685 0.6619 1.1161
C13 C 0.6547(3) 0.60338(15) 1.06139(15)
H12 H 0.6993 0.5516 1.0698
C14 C 0.4871(3) 0.61415(17) 1.02141(16)
H13 H 0.4183 0.5696 1.0033
C15 C 0.4216(3) 0.69100(17) 1.00830(15)
H14 H 0.3086 0.6984 0.9812
C16 C 0.5245(3) 0.75695(14) 1.03560(13)
C17 C 0.8025(3) 0.82050(15) 1.10964(15)
H15 H 0.7997 0.8341 1.1591
H16 H 0.7551 0.8656 1.0747
C18 C 0.9818(3) 0.81182(16) 1.12223(13)
H17 H 1.0422 0.8596 1.1485
H18 H 1.0297 0.7657 1.1557
C19 C 1.0003(3) 0.80075(14) 1.04702(13)
C20 C 1.2491(3) 0.93988(15) 0.74496(14)
C21 C 1.1790(3) 1.00914(17) 0.75818(17)
H19 H 1.2085 1.0259 0.8092
C22 C 1.0668(4) 1.05468(18) 0.69875(19)
H20 H 1.0224 1.1016 0.7094
C23 C 1.0218(4) 1.02936(19) 0.62329(18)
H21 H 0.9448 1.0589 0.5826
C24 C 1.0892(4) 0.96126(19) 0.60767(15)
H22 H 1.0589 0.9451 0.5564
C25 C 1.2031(3) 0.91583(15) 0.66797(14)
C26 C 1.3687(3) 0.89076(17) 0.81045(14)
H23 H 1.4006 0.9212 0.8583
H24 H 1.4670 0.8821 0.8014
C27 C 1.3012(3) 0.80878(16) 0.82079(14)
H25 H 1.2765 0.7764 0.7745
H26 H 1.3845 0.7806 0.8644
C28 C 1.1488(3) 0.81780(14) 0.83492(14)
Zn1A Zn 0.06470(3) 0.338247(14) 0.605976(14)
N2A N 0.8188(2) 0.94461(11) 0.84394(10)
loop_
_geom_bond_atom_site_label_1
_geom_bond_atom_site_label_2
_geom_bond_site_symmetry_1
_geom_bond_site_symmetry_2
Zn1 O3 1_555 1_555
O1 H1 1_555 1_555
O2 H2 1_555 1_555
O3 C19 1_555 1_555
O4 C19 1_555 1_555
O5 Zn1 1_555 1_555
O6 Zn1 1_555 1_555
N1 Zn1 1_555 1_555
N2 C6 1_555 1_555
C1 N1 1_555 1_555
H3 C1 1_555 1_555
C2 C1 1_555 1_555
H4 C2 1_555 1_555
C3 C2 1_555 1_555
C4 C3 1_555 1_555
H5 C4 1_555 1_555
C5 N1 1_555 1_555
H6 C5 1_555 1_555
C6 H7 1_555 1_555
C7 H8 1_555 1_555
C8 C3 1_555 1_555
C9 C6 1_555 1_555
H9 C9 1_555 1_555
C10 N2 1_555 1_555
H10 C10 1_555 1_555
C11 C12 1_555 1_555
C12 H11 1_555 1_555
C13 C12 1_555 1_555
H12 C13 1_555 1_555
C14 C13 1_555 1_555
H13 C14 1_555 1_555
C15 C14 1_555 1_555
H14 C15 1_555 1_555
C16 O1 1_555 1_555
C17 C11 1_555 1_555
H15 C17 1_555 1_555
H16 C17 1_555 1_555
C18 C17 1_555 1_555
H17 C18 1_555 1_555
H18 C18 1_555 1_555
C19 C18 1_555 1_555
C20 C21 1_555 1_555
C21 H19 1_555 1_555
C22 C21 1_555 1_555
H20 C22 1_555 1_555
C23 C22 1_555 1_555
H21 C23 1_555 1_555
C24 C23 1_555 1_555
H22 C24 1_555 1_555
C25 O2 1_555 1_555
C26 C20 1_555 1_555
H23 C26 1_555 1_555
H24 C26 1_555 1_555
C27 C26 1_555 1_555
H25 C27 1_555 1_555
H26 C27 1_555 1_555
C28 O5 1_555 1_555
Zn1A N2 1_555 1_555
N2A Zn1 1_555 1_555
O6 C28 1_555 1_555
C4 C5 1_555 1_555
C7 C8 1_555 1_555
C7 C10 1_555 1_555
C8 C9 1_555 1_555
C11 C16 1_555 1_555
C15 C16 1_555 1_555
C20 C25 1_555 1_555
C24 C25 1_555 1_555
C27 C28 1_555 1_555

#END
