
#######################################################################
#
#                 Cambridge Crystallographic Data Centre
#                                CCDC 
#
#######################################################################
#
# If this CIF has been generated from an entry in the Cambridge 
# Structural Database, then it will include bibliographic, chemical, 
# crystal, experimental, refinement or atomic coordinate data resulting 
# from the CCDC's data processing and validation procedures.
#
#######################################################################

data_VIYSON
_symmetry_cell_setting           orthorhombic
_symmetry_space_group_name_H-M   'P b c n'
_symmetry_Int_Tables_number      60
_space_group_name_Hall           '-P 2n 2ab'
loop_
_symmetry_equiv_pos_site_id
_symmetry_equiv_pos_as_xyz
1 x,y,z
2 1/2-x,1/2-y,1/2+z
3 1/2+x,1/2-y,-z
4 -x,y,1/2-z
5 -x,-y,-z
6 1/2+x,1/2+y,1/2-z
7 1/2-x,1/2+y,z
8 x,-y,1/2+z
_cell_length_a                   20.458(3)
_cell_length_b                   12.1157(17)
_cell_length_c                   16.971(2)
_cell_angle_alpha                90
_cell_angle_beta                 90
_cell_angle_gamma                90
_cell_volume                     4206.48
loop_
_atom_site_label
_atom_site_type_symbol
_atom_site_fract_x
_atom_site_fract_y
_atom_site_fract_z
Zn1 Zn -0.08750(3) 0.54354(4) 0.44291(3)
Zn2 Zn 0.0000 0.61899(6) 0.2500
O1 O -0.02377(16) 0.4408(3) 0.4029(2)
O2 O 0.05703(15) 0.5496(3) 0.32304(18)
O3 O 0.09417(15) 0.4623(3) 0.44514(18)
O4 O 0.0591(2) -0.2720(3) 0.2081(2)
O5 O 0.07665(17) -0.2952(3) 0.0803(2)
O6 O 0.32694(16) 0.0356(3) 0.1062(2)
O7 O 0.30719(17) -0.1217(3) 0.0428(2)
P1 P 0.04626(6) 0.45137(11) 0.37768(7)
C1 C 0.0687(2) 0.3298(4) 0.3228(3)
C2 C 0.1056(2) 0.3394(4) 0.2546(3)
H1 H 0.1160 0.4093 0.2356
C3 C 0.1271(2) 0.2474(4) 0.2144(3)
H2 H 0.1512 0.2563 0.1684
C4 C 0.1137(2) 0.1425(4) 0.2412(3)
C5 C 0.1384(2) 0.0444(4) 0.1977(3)
C6 C 0.1999(2) 0.0441(4) 0.1631(3)
H3 H 0.2265 0.1059 0.1686
C7 C 0.2230(2) -0.0455(4) 0.1206(3)
C8 C 0.1830(2) -0.1364(4) 0.1102(3)
H4 H 0.1969 -0.1951 0.0790
C9 C 0.1222(2) -0.1398(4) 0.1462(3)
C10 C 0.1006(2) -0.0505(4) 0.1900(3)
H5 H 0.0601 -0.0540 0.2147
C11 C 0.0770(3) 0.1329(4) 0.3096(3)
H6 H 0.0672 0.0631 0.3290
C12 C 0.0549(3) 0.2248(4) 0.3496(3)
H7 H 0.0304 0.2158 0.3952
C13 C 0.2905(2) -0.0448(4) 0.0859(3)
C14 C 0.0825(2) -0.2436(4) 0.1437(3)
Zn1C Zn 0.08750(3) 0.54354(4) 0.05709(3)
O1C O 0.02377(16) 0.4408(3) 0.0971(2)
O2C O -0.05703(15) 0.5496(3) 0.17696(18)
O3C O -0.09417(15) 0.4623(3) 0.05486(18)
O4C O -0.0591(2) -0.2720(3) 0.2919(2)
O5C O -0.07665(17) -0.2952(3) 0.4197(2)
O6C O -0.32694(16) 0.0356(3) 0.3938(2)
O7C O -0.30719(17) -0.1217(3) 0.4572(2)
P1C P -0.04626(6) 0.45137(11) 0.12232(7)
C1C C -0.0687(2) 0.3298(4) 0.1772(3)
C2C C -0.1056(2) 0.3394(4) 0.2454(3)
H1C H -0.1160 0.4093 0.2644
C3C C -0.1271(2) 0.2474(4) 0.2856(3)
H2C H -0.1512 0.2563 0.3316
C4C C -0.1137(2) 0.1425(4) 0.2588(3)
C5C C -0.1384(2) 0.0444(4) 0.3023(3)
C6C C -0.1999(2) 0.0441(4) 0.3369(3)
H3C H -0.2265 0.1059 0.3314
C7C C -0.2230(2) -0.0455(4) 0.3794(3)
C8C C -0.1830(2) -0.1364(4) 0.3898(3)
H4C H -0.1969 -0.1951 0.4210
C9C C -0.1222(2) -0.1398(4) 0.3538(3)
C10C C -0.1006(2) -0.0505(4) 0.3100(3)
H5C H -0.0601 -0.0540 0.2853
C11C C -0.0770(3) 0.1329(4) 0.1904(3)
H6C H -0.0672 0.0631 0.1710
C12C C -0.0549(3) 0.2248(4) 0.1504(3)
H7C H -0.0304 0.2158 0.1048
C13C C -0.2905(2) -0.0448(4) 0.4141(3)
C14C C -0.0825(2) -0.2436(4) 0.3563(3)
Zn1_2 Zn -0.08750(3) -0.45646(4) 0.44291(3)
Zn1C_2 Zn 0.08750(3) -0.45646(4) 0.05709(3)
Zn1D Zn 0.08750(3) 0.45646(4) 0.55709(3)
Zn1E Zn 0.41250(3) 0.04354(4) 0.05709(3)
Zn1F Zn -0.41250(3) 0.04354(4) 0.44291(3)
Zn1G Zn -0.08750(3) 0.45646(4) -0.05709(3)
Zn2_2 Zn 0.0000 -0.38101(6) 0.2500
O3D O -0.09417(15) 0.5377(3) 0.55486(18)
O3G O 0.09417(15) 0.5377(3) -0.05486(18)
O4_2 O 0.0591(2) 0.7280(3) 0.2081(2)
O4C_2 O -0.0591(2) 0.7280(3) 0.2919(2)
O5_2 O 0.07665(17) 0.7048(3) 0.0803(2)
O5C_2 O -0.07665(17) 0.7048(3) 0.4197(2)
O6E O -0.17306(16) 0.5356(3) 0.3938(2)
O6F O 0.17306(16) 0.5356(3) 0.1062(2)
N1 N 0.3534(2) 0.1920(4) 0.3983(3)
H8 H 0.3413 0.1615 0.4444
H9 H 0.3785 0.1427 0.3726
C15 C 0.2533(5) 0.3003(11) 0.3898(6)
H10 H 0.2359 0.2708 0.4386
H11 H 0.2167 0.3187 0.3559
C16 C 0.2944(4) 0.2149(7) 0.3506(4)
H12 H 0.2693 0.1475 0.3442
H13 H 0.3073 0.2405 0.2988
C17 C 0.3920(4) 0.2910(6) 0.4142(4)
H14 H 0.4086 0.3208 0.3650
H15 H 0.4290 0.2723 0.4473
C18 C 0.3508(6) 0.3752(7) 0.4543(6)
H16 H 0.3374 0.3474 0.5055
H17 H 0.3763 0.4417 0.4627
C19 C 0.2919(8) 0.4022(10) 0.4068(8)
H18 H 0.3051 0.4364 0.3577
H19 H 0.2649 0.4544 0.4354
loop_
_geom_bond_atom_site_label_1
_geom_bond_atom_site_label_2
_geom_bond_site_symmetry_1
_geom_bond_site_symmetry_2
Zn1 O1 1_555 1_555
Zn2 O2 1_555 1_555
O1 P1 1_555 1_555
O2 P1 1_555 1_555
O3 P1 1_555 1_555
O4 C14 1_555 1_555
O5 C14 1_555 1_555
O6 C13 1_555 1_555
O7 C13 1_555 1_555
P1 C1 1_555 1_555
C1 C2 1_555 1_555
C2 H1 1_555 1_555
C3 C2 1_555 1_555
H2 C3 1_555 1_555
C4 C3 1_555 1_555
C5 C4 1_555 1_555
C6 C5 1_555 1_555
H3 C6 1_555 1_555
C7 C6 1_555 1_555
C8 C7 1_555 1_555
H4 C8 1_555 1_555
C9 C8 1_555 1_555
C10 C5 1_555 1_555
H5 C10 1_555 1_555
C11 C4 1_555 1_555
H6 C11 1_555 1_555
C12 C1 1_555 1_555
H7 C12 1_555 1_555
C13 C7 1_555 1_555
C14 C9 1_555 1_555
N1 H8 1_555 1_555
H9 N1 1_555 1_555
C15 H10 1_555 1_555
H11 C15 1_555 1_555
C16 N1 1_555 1_555
H12 C16 1_555 1_555
H13 C16 1_555 1_555
C17 N1 1_555 1_555
H14 C17 1_555 1_555
H15 C17 1_555 1_555
C18 C17 1_555 1_555
H16 C18 1_555 1_555
H17 C18 1_555 1_555
C19 C15 1_555 1_555
H18 C19 1_555 1_555
H19 C19 1_555 1_555
Zn1C O1C 1_555 1_555
O1C P1C 1_555 1_555
O2C Zn2 1_555 1_555
O3C P1C 1_555 1_555
O4C C14C 1_555 1_555
O5C C14C 1_555 1_555
O6C C13C 1_555 1_555
O7C C13C 1_555 1_555
P1C O2C 1_555 1_555
C1C P1C 1_555 1_555
C2C C1C 1_555 1_555
H1C C2C 1_555 1_555
C3C C2C 1_555 1_555
H2C C3C 1_555 1_555
C4C C3C 1_555 1_555
C5C C4C 1_555 1_555
C6C C5C 1_555 1_555
H3C C6C 1_555 1_555
C7C C6C 1_555 1_555
C8C C7C 1_555 1_555
H4C C8C 1_555 1_555
C9C C8C 1_555 1_555
C10C C5C 1_555 1_555
H5C C10C 1_555 1_555
C11C C4C 1_555 1_555
H6C C11C 1_555 1_555
C12C C1C 1_555 1_555
H7C C12C 1_555 1_555
C13C C7C 1_555 1_555
C14C C9C 1_555 1_555
Zn1_2 O5C 1_555 1_555
Zn1C_2 O5 1_555 1_555
Zn1D O3 1_555 1_555
Zn1E O6 1_555 1_555
Zn1F O6C 1_555 1_555
Zn1G O3C 1_555 1_555
Zn2_2 O4 1_555 1_555
O3D Zn1 1_555 1_555
O3G Zn1C 1_555 1_555
O4_2 Zn2 1_555 1_555
O4C_2 Zn2 1_555 1_555
O5_2 Zn1C 1_555 1_555
O5C_2 Zn1 1_555 1_555
O6E Zn1 1_555 1_555
O6F Zn1C 1_555 1_555
C9 C10 1_555 1_555
C11 C12 1_555 1_555
C15 C16 1_555 1_555
C18 C19 1_555 1_555
O4C Zn2_2 1_555 1_555
C9C C10C 1_555 1_555
C11C C12C 1_555 1_555

#END
