
#######################################################################
#
#                 Cambridge Crystallographic Data Centre
#                                CCDC 
#
#######################################################################
#
# If this CIF has been generated from an entry in the Cambridge 
# Structural Database, then it will include bibliographic, chemical, 
# crystal, experimental, refinement or atomic coordinate data resulting 
# from the CCDC's data processing and validation procedures.
#
#######################################################################

data_VIYSUT
_symmetry_cell_setting           monoclinic
_symmetry_space_group_name_H-M   'C 2/c'
_symmetry_Int_Tables_number      15
_space_group_name_Hall           '-C 2yn'
loop_
_symmetry_equiv_pos_site_id
_symmetry_equiv_pos_as_xyz
1 x,y,z
2 -x,y,1/2-z
3 1/2+x,1/2+y,z
4 1/2-x,1/2+y,1/2-z
5 -x,-y,-z
6 x,-y,1/2+z
7 1/2-x,1/2-y,-z
8 1/2+x,1/2-y,1/2+z
_cell_length_a                   21.540(6)
_cell_length_b                   9.168(2)
_cell_length_c                   23.321(6)
_cell_angle_alpha                90
_cell_angle_beta                 101.736(3)
_cell_angle_gamma                90
_cell_volume                     4509.13
loop_
_atom_site_label
_atom_site_type_symbol
_atom_site_fract_x
_atom_site_fract_y
_atom_site_fract_z
Zn1 Zn 0.084778(18) 0.62344(5) 0.504138(17)
Zn2 Zn 0.08447(2) 0.84294(5) -0.063158(19)
O1 O 0.22256(14) 0.5559(4) 0.49331(14)
O2 O 0.13789(12) 0.6789(3) 0.44897(12)
O3 O 0.41960(12) 0.7614(3) 0.42695(11)
O4 O 0.41392(13) 0.7256(4) 0.33313(12)
O5 O 0.09825(13) 0.5800(3) 0.02091(12)
O6 O 0.06600(15) 0.8399(3) 0.01827(12)
O7 O -0.00430(12) 0.6480(3) 0.05061(12)
N1 N 0.1118(2) 0.8740(4) -0.15437(18)
N2 N 0.18202(18) 0.8318(5) -0.0400(2)
H1 H 0.1958 0.9074 -0.0162
H2 H 0.1926 0.7495 -0.0193
N3 N 0.0321(3) 1.0230(5) -0.0922(2)
H3 H -0.0085 1.0057 -0.0903
H4 H 0.0459 1.0977 -0.0679
N4 N 0.04585(18) 0.6595(4) -0.10648(15)
H5 H 0.0593 0.5813 -0.0840
H6 H 0.0034 0.6641 -0.1108
P1 P 0.06281(4) 0.69518(10) 0.04798(4)
C1 C 0.19356(17) 0.6268(4) 0.45248(16)
C2 C 0.22412(17) 0.6628(4) 0.40180(16)
C3 C 0.28932(16) 0.6828(4) 0.41168(16)
H7 H 0.3137 0.6716 0.4492
C4 C 0.31804(15) 0.7194(4) 0.36576(15)
C5 C 0.38850(16) 0.7375(4) 0.37544(15)
C6 C 0.28110(16) 0.7330(4) 0.30966(15)
H8 H 0.3006 0.7580 0.2789
C7 C 0.21636(16) 0.7103(4) 0.29835(15)
C8 C 0.17733(16) 0.7152(4) 0.23816(15)
C9 C 0.18496(18) 0.8221(4) 0.19792(17)
H9 H 0.2146 0.8958 0.2091
C10 C 0.14910(19) 0.8208(4) 0.14138(17)
H10 H 0.1550 0.8937 0.1152
C11 C 0.10444(16) 0.7120(4) 0.12318(15)
C12 C 0.09639(19) 0.6071(5) 0.16333(17)
H11 H 0.0662 0.5343 0.1524
C13 C 0.13231(19) 0.6085(5) 0.21939(17)
H12 H 0.1262 0.5357 0.2454
C14 C 0.18817(16) 0.6761(4) 0.34550(15)
H13 H 0.1445 0.6619 0.3391
C15 C 0.2142(3) 0.8337(10) -0.0865(3)
H14 H 0.2541 0.8844 -0.0737
H15 H 0.2241 0.7339 -0.0952
C16 C 0.1822(3) 0.8984(9) -0.1379(4)
H16 H 0.2009 0.8635 -0.1698
H17 H 0.1897 1.0027 -0.1346
C17 C 0.0343(4) 1.0641(8) -0.1477(3)
H18 H 0.0399 1.1691 -0.1470
H19 H -0.0073 1.0450 -0.1715
C18 C 0.0796(3) 1.0049(7) -0.1786(3)
H20 H 0.1113 1.0791 -0.1804
H21 H 0.0580 0.9844 -0.2185
C19 C 0.0606(3) 0.6375(6) -0.1624(2)
H22 H 0.0855 0.5488 -0.1604
H23 H 0.0210 0.6195 -0.1898
C20 C 0.0923(4) 0.7432(7) -0.1861(3)
H24 H 0.0656 0.7715 -0.2232
H25 H 0.1300 0.6984 -0.1952
Zn1A Zn -0.084778(18) 0.62344(5) -0.004138(17)
Zn1E Zn 0.084778(18) 0.37656(5) 0.004138(17)
Zn1F Zn 0.415222(18) 0.87656(5) 0.495862(17)
O3F O 0.08040(12) 0.7386(3) 0.57305(11)
O5E O 0.09825(13) 0.4200(3) 0.52091(12)
O7A O 0.00430(12) 0.6480(3) 0.44939(12)
loop_
_geom_bond_atom_site_label_1
_geom_bond_atom_site_label_2
_geom_bond_site_symmetry_1
_geom_bond_site_symmetry_2
Zn1 O2 1_555 1_555
Zn2 O6 1_555 1_555
O1 C1 1_555 1_555
O2 C1 1_555 1_555
O3 C5 1_555 1_555
O4 C5 1_555 1_555
O5 P1 1_555 1_555
O6 P1 1_555 1_555
O7 P1 1_555 1_555
N1 Zn2 1_555 1_555
N2 Zn2 1_555 1_555
H1 N2 1_555 1_555
H2 N2 1_555 1_555
N3 Zn2 1_555 1_555
H3 N3 1_555 1_555
H4 N3 1_555 1_555
N4 Zn2 1_555 1_555
H5 N4 1_555 1_555
H6 N4 1_555 1_555
P1 C11 1_555 1_555
C1 C2 1_555 1_555
C2 C3 1_555 1_555
C3 H7 1_555 1_555
C4 C3 1_555 1_555
C5 C4 1_555 1_555
C6 C4 1_555 1_555
H8 C6 1_555 1_555
C7 C6 1_555 1_555
C8 C7 1_555 1_555
C9 C8 1_555 1_555
H9 C9 1_555 1_555
C10 C9 1_555 1_555
H10 C10 1_555 1_555
C11 C10 1_555 1_555
C12 C11 1_555 1_555
H11 C12 1_555 1_555
C13 C8 1_555 1_555
H12 C13 1_555 1_555
C14 C2 1_555 1_555
H13 C14 1_555 1_555
C15 N2 1_555 1_555
H14 C15 1_555 1_555
H15 C15 1_555 1_555
C16 N1 1_555 1_555
H16 C16 1_555 1_555
H17 C16 1_555 1_555
C17 N3 1_555 1_555
H18 C17 1_555 1_555
H19 C17 1_555 1_555
C18 N1 1_555 1_555
H20 C18 1_555 1_555
H21 C18 1_555 1_555
C19 N4 1_555 1_555
H22 C19 1_555 1_555
H23 C19 1_555 1_555
C20 N1 1_555 1_555
H24 C20 1_555 1_555
H25 C20 1_555 1_555
Zn1A O7 1_555 1_555
Zn1E O5 1_555 1_555
Zn1F O3 1_555 1_555
O3F Zn1 1_555 1_555
O5E Zn1 1_555 1_555
O7A Zn1 1_555 1_555
C7 C14 1_555 1_555
C12 C13 1_555 1_555
C15 C16 1_555 1_555
C17 C18 1_555 1_555
C19 C20 1_555 1_555

#END
