
#######################################################################
#
#                 Cambridge Crystallographic Data Centre
#                                CCDC 
#
#######################################################################
#
# If this CIF has been generated from an entry in the Cambridge 
# Structural Database, then it will include bibliographic, chemical, 
# crystal, experimental, refinement or atomic coordinate data resulting 
# from the CCDC's data processing and validation procedures.
#
#######################################################################

data_VIYTAA
_symmetry_cell_setting           orthorhombic
_symmetry_space_group_name_H-M   'P b c n'
_symmetry_Int_Tables_number      60
_space_group_name_Hall           '-P 2n 2ab'
loop_
_symmetry_equiv_pos_site_id
_symmetry_equiv_pos_as_xyz
1 x,y,z
2 1/2-x,1/2-y,1/2+z
3 -x,y,1/2-z
4 1/2+x,1/2-y,-z
5 -x,-y,-z
6 1/2+x,1/2+y,1/2-z
7 x,-y,1/2+z
8 1/2-x,1/2+y,z
_cell_length_a                   20.5835(16)
_cell_length_b                   12.0082(9)
_cell_length_c                   17.0640(14)
_cell_angle_alpha                90
_cell_angle_beta                 90
_cell_angle_gamma                90
_cell_volume                     4217.72
loop_
_atom_site_label
_atom_site_type_symbol
_atom_site_fract_x
_atom_site_fract_y
_atom_site_fract_z
Zn1 Zn 0.587555(18) 0.04008(3) 0.05610(2)
O1 O 0.67402(13) 0.0347(2) 0.10392(18)
C1 C 0.70989(19) -0.0458(3) 0.0854(2)
C2 C 0.77804(18) -0.0439(3) 0.1181(2)
O2 O 0.69246(15) -0.1253(3) 0.0452(2)
C3 C 0.80009(18) 0.0471(3) 0.1605(2)
C4 C 0.8178(2) -0.1355(3) 0.1082(2)
H1 H 0.7734 0.1091 0.1659
C5 C 0.86153(18) 0.0475(3) 0.1952(2)
C6 C 0.87839(19) -0.1380(3) 0.1432(3)
H2 H 0.8039 -0.1954 0.0779
C7 C 0.88536(18) 0.1456(3) 0.2396(2)
C8 C 0.89978(19) -0.0474(3) 0.1872(3)
C9 C 0.9180(2) -0.2427(3) 0.1404(3)
C10 C 0.8709(2) 0.2527(3) 0.2146(2)
C11 C 0.9229(2) 0.1351(4) 0.3070(3)
H3 H 0.9402 -0.0504 0.2116
O3 O 0.92069(15) -0.2968(2) 0.0783(2)
O4 O 0.9456(3) -0.2653(3) 0.2020(2)
H4 H 0.8463 0.2628 0.1694
C12 C 0.8924(2) 0.3441(3) 0.2555(2)
H5 H 0.9337 0.0643 0.3248
C13 C 0.9444(2) 0.2268(3) 0.3478(3)
Zn2 Zn 1.0000 -0.37749(5) 0.2500
H6 H 0.8820 0.4148 0.2374
C14 C 0.92922(17) 0.3338(3) 0.3231(2)
H7 H 0.9694 0.2169 0.3926
O5 O 0.97659(13) 0.4409(2) 0.09735(17)
O6 O 0.90648(14) 0.5325(3) -0.05517(16)
P1 P 0.95344(4) 0.45530(8) 0.37745(5)
O7 O 0.94395(14) 0.5536(2) 0.32230(16)
O1G O 0.82598(13) 0.5347(2) 0.10392(18)
Zn1G Zn 0.912445(18) -0.45992(3) 0.05610(2)
Zn1G_2 Zn 0.912445(18) 0.54008(3) 0.05610(2)
O4B O 1.0544(3) -0.2653(3) 0.2980(2)
O3_2 O 0.92069(15) 0.7032(2) 0.0783(2)
C9B C 1.0820(2) -0.2427(3) 0.3596(3)
P1B P 1.04656(4) 0.45530(8) 0.12255(5)
O5B O 1.02341(13) 0.4409(2) 0.40265(17)
O6F O 0.90648(14) 0.4675(3) 0.44483(16)
O3B O 1.07931(15) -0.2968(2) 0.4217(2)
C6B C 1.12161(19) -0.1380(3) 0.3568(3)
O7B O 1.05605(14) 0.5536(2) 0.17770(16)
O6D O 1.09352(14) 0.4675(3) 0.05517(16)
C14B C 1.07078(17) 0.3338(3) 0.1769(2)
Zn1E Zn 1.087555(18) 0.54008(3) 0.44390(2)
Zn1A Zn 0.912445(18) 0.45992(3) 0.55610(2)
Zn2_2 Zn 1.0000 0.62251(5) 0.2500
Zn1E_2 Zn 1.087555(18) -0.45992(3) 0.44390(2)
C8B C 1.10022(19) -0.0474(3) 0.3128(3)
C4B C 1.1822(2) -0.1355(3) 0.3918(2)
Zn1C Zn 1.087555(18) 0.45992(3) -0.05610(2)
C12B C 1.1076(2) 0.3441(3) 0.2445(2)
C13B C 1.0556(2) 0.2268(3) 0.1522(3)
O6B O 1.09352(14) 0.5325(3) 0.55517(16)
O1E O 1.17402(13) 0.5347(2) 0.39608(18)
O3B_2 O 1.07931(15) 0.7032(2) 0.4217(2)
O4_2 O 0.9456(3) 0.7347(3) 0.2020(2)
O4B_2 O 1.0544(3) 0.7347(3) 0.2980(2)
H3B H 1.0598 -0.0504 0.2884
C5B C 1.13847(18) 0.0475(3) 0.3048(2)
C2B C 1.22196(18) -0.0439(3) 0.3819(2)
H2B H 1.1961 -0.1954 0.4221
C10B C 1.1291(2) 0.2527(3) 0.2854(2)
H6B H 1.1180 0.4148 0.2626
C11B C 1.0771(2) 0.1351(4) 0.1930(3)
H7B H 1.0306 0.2169 0.1074
C3B C 1.19991(18) 0.0471(3) 0.3395(2)
C7B C 1.11464(18) 0.1456(3) 0.2604(2)
C1B C 1.29011(19) -0.0458(3) 0.4146(2)
H4B H 1.1537 0.2628 0.3306
H5B H 1.0663 0.0643 0.1752
H1B H 1.2266 0.1091 0.3341
O1B O 1.32598(13) 0.0347(2) 0.39608(18)
O2B O 1.30754(15) -0.1253(3) 0.4548(2)
Zn1B Zn 1.412445(18) 0.04008(3) 0.44390(2)
C15 C 0.8928(12) 0.7885(11) 0.4098(16)
H8 H 0.8954 0.8402 0.3663
H9 H 0.9205 0.7252 0.3981
C16 C 0.9159(7) 0.8442(17) 0.4830(7)
H10 H 0.8837 0.8961 0.5006
H11 H 0.9557 0.8830 0.4725
H12 H 0.9232 0.7891 0.5228
C17 C 0.7763(14) 0.8351(12) 0.4436(9)
H13 H 0.7910 0.8699 0.4918
H14 H 0.7360 0.7967 0.4552
C18 C 0.7623(10) 0.9255(16) 0.3848(15)
H15 H 0.7251 0.9674 0.4014
H16 H 0.7538 0.8926 0.3346
H17 H 0.7992 0.9741 0.3808
N1 N 0.8255(9) 0.7509(10) 0.4196(5)
H18 H 0.8252 0.6949 0.4555
C19 C 0.8079(8) 0.7028(17) 0.3422(15)
H19 H 0.8466 0.6766 0.3156
H20 H 0.7876 0.7593 0.3098
C20 C 0.7616(13) 0.608(4) 0.3548(13)
H21 H 0.7464 0.5809 0.3051
H22 H 0.7253 0.6325 0.3856
H23 H 0.7836 0.5484 0.3819
loop_
_geom_bond_atom_site_label_1
_geom_bond_atom_site_label_2
_geom_bond_site_symmetry_1
_geom_bond_site_symmetry_2
Zn1 O1 1_555 1_555
O1 C1 1_555 1_555
C1 C2 1_555 1_555
C2 C3 1_555 1_555
O2 C1 1_555 1_555
C3 H1 1_555 1_555
C4 C2 1_555 1_555
C5 C3 1_555 1_555
C6 C4 1_555 1_555
H2 C4 1_555 1_555
C7 C5 1_555 1_555
C8 C5 1_555 1_555
C9 C6 1_555 1_555
C10 C7 1_555 1_555
C11 C7 1_555 1_555
H3 C8 1_555 1_555
O3 C9 1_555 1_555
O4 C9 1_555 1_555
H4 C10 1_555 1_555
C12 C10 1_555 1_555
H5 C11 1_555 1_555
C13 C11 1_555 1_555
Zn2 O4 1_555 1_555
H6 C12 1_555 1_555
C14 C12 1_555 1_555
H7 C13 1_555 1_555
O5 Zn1G_2 1_555 1_555
O6 Zn1G_2 1_555 1_555
P1 C14 1_555 1_555
O7 P1 1_555 1_555
C15 H8 1_555 1_555
H9 C15 1_555 1_555
C16 C15 1_555 1_555
H10 C16 1_555 1_555
H11 C16 1_555 1_555
H12 C16 1_555 1_555
C17 H13 1_555 1_555
H14 C17 1_555 1_555
C18 C17 1_555 1_555
H15 C18 1_555 1_555
H16 C18 1_555 1_555
H17 C18 1_555 1_555
N1 C15 1_555 1_555
H18 N1 1_555 1_555
C19 N1 1_555 1_555
H19 C19 1_555 1_555
H20 C19 1_555 1_555
C20 C19 1_555 1_555
H21 C20 1_555 1_555
H22 C20 1_555 1_555
H23 C20 1_555 1_555
O1G Zn1G_2 1_555 1_555
Zn1G O3 1_555 1_555
Zn1G_2 O3_2 1_555 1_555
O4B Zn2 1_555 1_555
C9B O4B 1_555 1_555
P1B O5 1_555 1_555
O5B P1 1_555 1_555
O6F P1 1_555 1_555
O3B C9B 1_555 1_555
C6B C9B 1_555 1_555
O7B P1B 1_555 1_555
O6D P1B 1_555 1_555
C14B P1B 1_555 1_555
Zn1E O5B 1_555 1_555
Zn1A O6F 1_555 1_555
Zn2_2 O7 1_555 1_555
Zn1E_2 O3B 1_555 1_555
C8B C6B 1_555 1_555
C4B C6B 1_555 1_555
Zn1C O6D 1_555 1_555
C12B C14B 1_555 1_555
C13B C14B 1_555 1_555
O6B Zn1E 1_555 1_555
O1E Zn1E 1_555 1_555
O3B_2 Zn1E 1_555 1_555
O4_2 Zn2_2 1_555 1_555
O4B_2 Zn2_2 1_555 1_555
H3B C8B 1_555 1_555
C5B C8B 1_555 1_555
C2B C4B 1_555 1_555
H2B C4B 1_555 1_555
C10B C12B 1_555 1_555
H6B C12B 1_555 1_555
C11B C13B 1_555 1_555
H7B C13B 1_555 1_555
C3B C5B 1_555 1_555
C7B C5B 1_555 1_555
C1B C2B 1_555 1_555
H4B C10B 1_555 1_555
H5B C11B 1_555 1_555
H1B C3B 1_555 1_555
O1B C1B 1_555 1_555
O2B C1B 1_555 1_555
Zn1B O1B 1_555 1_555
C6 C8 1_555 1_555
C13 C14 1_555 1_555
C17 N1 1_555 1_555
O7B Zn2_2 1_555 1_555
C2B C3B 1_555 1_555
C10B C7B 1_555 1_555
C11B C7B 1_555 1_555

#END
