
#######################################################################
#
#                 Cambridge Crystallographic Data Centre
#                                CCDC 
#
#######################################################################
#
# If this CIF has been generated from an entry in the Cambridge 
# Structural Database, then it will include bibliographic, chemical, 
# crystal, experimental, refinement or atomic coordinate data resulting 
# from the CCDC's data processing and validation procedures.
#
#######################################################################

data_VIYVIK
_symmetry_cell_setting           orthorhombic
_symmetry_space_group_name_H-M   'P b c n'
_symmetry_Int_Tables_number      60
_space_group_name_Hall           '-P 2n 2ab'
loop_
_symmetry_equiv_pos_site_id
_symmetry_equiv_pos_as_xyz
1 x,y,z
2 1/2-x,1/2-y,1/2+z
3 -x,y,1/2-z
4 1/2+x,1/2-y,-z
5 -x,-y,-z
6 1/2+x,1/2+y,1/2-z
7 x,-y,1/2+z
8 1/2-x,1/2+y,z
_cell_length_a                   20.4782(13)
_cell_length_b                   12.0724(8)
_cell_length_c                   16.9099(11)
_cell_angle_alpha                90
_cell_angle_beta                 90
_cell_angle_gamma                90
_cell_volume                     4180.48
loop_
_atom_site_label
_atom_site_type_symbol
_atom_site_fract_x
_atom_site_fract_y
_atom_site_fract_z
Zn1 Zn 0.587472(12) 0.04387(2) 0.057034(16)
Zn2 Zn 1.0000 0.62287(3) 0.2500
P1 P 0.95311(3) 0.45499(5) 0.37653(4)
O1 O 0.94214(15) -0.2673(2) 0.20604(15)
O2 O 0.92257(10) -0.29462(16) 0.07919(13)
O3 O 0.69408(11) -0.12018(18) 0.03987(14)
O4 O 0.67372(9) 0.03509(17) 0.10453(12)
O5 O 0.94183(9) 0.55392(14) 0.32150(10)
O6 O 0.90631(9) 0.46580(16) 0.44522(10)
O7 O 1.02391(9) 0.44426(15) 0.40037(12)
C1 C 0.92970(12) 0.3334(2) 0.32214(15)
C2 C 0.94435(15) 0.2284(2) 0.34849(18)
H1 H 0.9691 0.2196 0.3942
C3 C 0.92289(15) 0.1360(2) 0.30821(19)
H2 H 0.9335 0.0659 0.3271
C4 C 0.88563(12) 0.1459(2) 0.23980(16)
C5 C 0.86189(12) 0.0473(2) 0.19573(16)
C6 C 0.89982(12) -0.0478(2) 0.18860(17)
H3 H 0.9400 -0.0514 0.2141
C7 C 0.87855(12) -0.1373(2) 0.14384(16)
C8 C 0.81803(13) -0.1345(2) 0.10718(16)
H4 H 0.8042 -0.1934 0.0759
C9 C 0.77832(12) -0.0426(2) 0.11775(15)
C10 C 0.80045(12) 0.0476(2) 0.16035(16)
H5 H 0.7738 0.1096 0.1655
C11 C 0.87154(14) 0.2514(2) 0.21325(17)
H6 H 0.8471 0.2602 0.1673
C12 C 0.89294(14) 0.3440(2) 0.25333(16)
H7 H 0.8827 0.4142 0.2342
C13 C 0.91761(13) -0.2419(2) 0.14173(18)
C14 C 0.71018(13) -0.0436(2) 0.08365(16)
Zn1B Zn 1.412528(12) 0.04387(2) 0.442966(16)
P1B P 1.04689(3) 0.45499(5) 0.12347(4)
O1B O 1.05786(15) -0.2673(2) 0.29396(15)
O2B O 1.07743(10) -0.29462(16) 0.42081(13)
O3B O 1.30592(11) -0.12018(18) 0.46013(14)
O4B O 1.32628(9) 0.03509(17) 0.39547(12)
O5B O 1.05817(9) 0.55392(14) 0.17850(10)
O6B O 1.09369(9) 0.46580(16) 0.05478(10)
O7B O 0.97609(9) 0.44426(15) 0.09963(12)
C1B C 1.07030(12) 0.3334(2) 0.17786(15)
C2B C 1.05565(15) 0.2284(2) 0.15151(18)
H1B H 1.0309 0.2196 0.1058
C3B C 1.07711(15) 0.1360(2) 0.19179(19)
H2B H 1.0665 0.0659 0.1729
C4B C 1.11437(12) 0.1459(2) 0.26020(16)
C5B C 1.13811(12) 0.0473(2) 0.30427(16)
C6B C 1.10018(12) -0.0478(2) 0.31140(17)
H3B H 1.0600 -0.0514 0.2859
C7B C 1.12145(12) -0.1373(2) 0.35616(16)
C8B C 1.18197(13) -0.1345(2) 0.39282(16)
H4B H 1.1958 -0.1934 0.4241
C9B C 1.22168(12) -0.0426(2) 0.38225(15)
C10B C 1.19955(12) 0.0476(2) 0.33965(16)
H5B H 1.2262 0.1096 0.3345
C11B C 1.12846(14) 0.2514(2) 0.28675(17)
H6B H 1.1529 0.2602 0.3327
C12B C 1.10706(14) 0.3440(2) 0.24667(16)
H7B H 1.1173 0.4142 0.2658
C13B C 1.08239(13) -0.2419(2) 0.35827(18)
C14B C 1.28982(13) -0.0436(2) 0.41635(16)
Zn1A Zn 0.912528(12) 0.45613(2) 0.557034(16)
Zn1C Zn 1.087472(12) 0.45613(2) -0.057034(16)
Zn1E Zn 1.087472(12) -0.45613(2) 0.442966(16)
Zn1E_2 Zn 1.087472(12) 0.54387(2) 0.442966(16)
Zn1G Zn 0.912528(12) -0.45613(2) 0.057034(16)
Zn1G_2 Zn 0.912528(12) 0.54387(2) 0.057034(16)
Zn2_2 Zn 1.0000 -0.37713(3) 0.2500
O1_2 O 0.94214(15) 0.7327(2) 0.20604(15)
O1B_2 O 1.05786(15) 0.7327(2) 0.29396(15)
O2E O 1.42257(10) 0.20538(16) 0.42081(13)
O2G O 0.57743(10) 0.20538(16) 0.07919(13)
O6A O 0.59369(9) 0.03420(16) -0.05478(10)
O6C O 1.40631(9) 0.03420(16) 0.55478(10)
O7E O 0.52391(9) -0.05574(15) 0.09963(12)
O7G O 1.47609(9) -0.05574(15) 0.40037(12)
C15 C 0.6234(4) 0.7052(5) 0.9168(4)
H8 H 0.5925 0.6813 0.8768
H9 H 0.6012 0.7090 0.9674
C16 C 0.6805(6) 0.6289(7) 0.9206(7)
H10 H 0.6963 0.6227 0.9745
H11 H 0.6685 0.5557 0.9020
C17 C 0.7286(6) 0.6750(10) 0.8719(8)
H12 H 0.7321 0.6319 0.8237
H13 H 0.7704 0.6724 0.8987
C18 C 0.7128(3) 0.7884(7) 0.8525(4)
H14 H 0.7064 0.7971 0.7960
H15 H 0.7472 0.8382 0.8696
N1 N 0.65129(16) 0.8100(2) 0.89651(18)
H16 H 0.6597 0.8494 0.9406
H17 H 0.6234 0.8489 0.8662
loop_
_geom_bond_atom_site_label_1
_geom_bond_atom_site_label_2
_geom_bond_site_symmetry_1
_geom_bond_site_symmetry_2
Zn1 O4 1_555 1_555
Zn2 O5 1_555 1_555
P1 O5 1_555 1_555
O1 C13 1_555 1_555
O2 C13 1_555 1_555
O3 C14 1_555 1_555
O4 C14 1_555 1_555
O6 P1 1_555 1_555
O7 P1 1_555 1_555
C1 P1 1_555 1_555
C2 C1 1_555 1_555
H1 C2 1_555 1_555
C3 C2 1_555 1_555
H2 C3 1_555 1_555
C4 C3 1_555 1_555
C5 C4 1_555 1_555
C6 C5 1_555 1_555
H3 C6 1_555 1_555
C7 C6 1_555 1_555
C8 C7 1_555 1_555
H4 C8 1_555 1_555
C9 C8 1_555 1_555
C10 C5 1_555 1_555
H5 C10 1_555 1_555
C11 C4 1_555 1_555
H6 C11 1_555 1_555
C12 C1 1_555 1_555
H7 C12 1_555 1_555
C13 C7 1_555 1_555
C14 C9 1_555 1_555
C15 H8 1_555 1_555
H9 C15 1_555 1_555
C16 C15 1_555 1_555
H10 C16 1_555 1_555
H11 C16 1_555 1_555
C17 C16 1_555 1_555
H12 C17 1_555 1_555
H13 C17 1_555 1_555
C18 C17 1_555 1_555
H14 C18 1_555 1_555
H15 C18 1_555 1_555
N1 C15 1_555 1_555
H16 N1 1_555 1_555
H17 N1 1_555 1_555
Zn1B O4B 1_555 1_555
P1B O5B 1_555 1_555
O1B C13B 1_555 1_555
O2B C13B 1_555 1_555
O3B C14B 1_555 1_555
O4B C14B 1_555 1_555
O5B Zn2 1_555 1_555
O6B P1B 1_555 1_555
O7B P1B 1_555 1_555
C1B P1B 1_555 1_555
C2B C1B 1_555 1_555
H1B C2B 1_555 1_555
C3B C2B 1_555 1_555
H2B C3B 1_555 1_555
C4B C3B 1_555 1_555
C5B C4B 1_555 1_555
C6B C5B 1_555 1_555
H3B C6B 1_555 1_555
C7B C6B 1_555 1_555
C8B C7B 1_555 1_555
H4B C8B 1_555 1_555
C9B C8B 1_555 1_555
C10B C5B 1_555 1_555
H5B C10B 1_555 1_555
C11B C4B 1_555 1_555
H6B C11B 1_555 1_555
C12B C1B 1_555 1_555
H7B C12B 1_555 1_555
C13B C7B 1_555 1_555
C14B C9B 1_555 1_555
Zn1A O6 1_555 1_555
Zn1C O6B 1_555 1_555
Zn1E O2B 1_555 1_555
Zn1E_2 O7 1_555 1_555
Zn1G O2 1_555 1_555
Zn1G_2 O7B 1_555 1_555
Zn2_2 O1 1_555 1_555
O1_2 Zn2 1_555 1_555
O1B_2 Zn2 1_555 1_555
O2E Zn1B 1_555 1_555
O2G Zn1 1_555 1_555
O6A Zn1 1_555 1_555
O6C Zn1B 1_555 1_555
O7E Zn1 1_555 1_555
O7G Zn1B 1_555 1_555
C9 C10 1_555 1_555
C11 C12 1_555 1_555
C18 N1 1_555 1_555
O1B Zn2_2 1_555 1_555
C9B C10B 1_555 1_555
C11B C12B 1_555 1_555

#END
