
#######################################################################
#
#                 Cambridge Crystallographic Data Centre
#                                CCDC 
#
#######################################################################
#
# If this CIF has been generated from an entry in the Cambridge 
# Structural Database, then it will include bibliographic, chemical, 
# crystal, experimental, refinement or atomic coordinate data resulting 
# from the CCDC's data processing and validation procedures.
#
#######################################################################

data_VIYWOQ
_symmetry_cell_setting           monoclinic
_symmetry_space_group_name_H-M   'P 21/n'
_symmetry_Int_Tables_number      14
_space_group_name_Hall           '-P 2yn'
loop_
_symmetry_equiv_pos_site_id
_symmetry_equiv_pos_as_xyz
1 x,y,z
2 1/2-x,1/2+y,1/2-z
3 -x,-y,-z
4 1/2+x,1/2-y,1/2+z
_cell_length_a                   7.1237(4)
_cell_length_b                   14.5282(15)
_cell_length_c                   13.2247(14)
_cell_angle_alpha                90
_cell_angle_beta                 104.139(6)
_cell_angle_gamma                90
_cell_volume                     1327.22
loop_
_atom_site_label
_atom_site_type_symbol
_atom_site_fract_x
_atom_site_fract_y
_atom_site_fract_z
Cu1 Cu 0.95406(8) 0.22546(4) 0.88950(4)
O1 O 1.1811(4) 0.3045(2) 0.9245(2)
O2 O 1.1067(5) 0.4075(2) 0.7942(3)
O3 O 1.1052(5) 0.1321(2) 1.0328(3)
H1 H 1.1817 0.1637 1.0798
O4 O 0.7205(5) 0.1459(2) 0.8461(3)
H2 H 0.6265 0.1845 0.8238
O5 O 1.8125(4) 0.3163(2) 0.9492(3)
O6 O 1.5266(5) 0.2977(2) 0.8354(3)
O7 O 0.8727(5) 0.2818(3) 0.6899(3)
H3 H 0.9218 0.3326 0.7254
N1 N 1.0810(5) 0.1307(3) 0.8155(3)
C1 C 1.2057(6) 0.3789(3) 0.8788(3)
C2 C 1.3642(6) 0.4401(3) 0.9388(3)
C3 C 1.2199(7) 0.0659(3) 0.9944(4)
H4 H 1.1509 0.0062 0.9838
H5 H 1.3441 0.0568 1.0467
C4 C 1.2598(7) 0.0969(3) 0.8929(4)
H6 H 1.3157 0.0448 0.8617
H7 H 1.3571 0.1469 0.9071
C5 C 0.9386(7) 0.0555(4) 0.7800(4)
H8 H 0.9565 0.0075 0.8347
H9 H 0.9625 0.0269 0.7164
C6 C 0.7320(7) 0.0907(4) 0.7569(4)
H10 H 0.7024 0.1284 0.6926
H11 H 0.6394 0.0388 0.7479
C7 C 1.6369(6) 0.3379(3) 0.9082(3)
C8 C 1.5626(6) 0.4213(3) 0.9569(3)
C9 C 1.3053(6) 0.5188(3) 0.9819(3)
H12 H 1.1709 0.5321 0.9692
C10 C 1.1467(7) 0.1747(4) 0.7291(4)
H13 H 1.2110 0.1275 0.6952
H14 H 1.2448 0.2220 0.7588
C11 C 0.9900(8) 0.2190(4) 0.6476(4)
H15 H 1.0494 0.2528 0.5982
H16 H 0.9059 0.1704 0.6078
Cu1B Cu 2.04594(8) 0.77454(4) 1.11050(4)
Cu1_2 Cu 1.95406(8) 0.22546(4) 0.88950(4)
Cu1B_2 Cu 1.04594(8) 0.77454(4) 1.11050(4)
O1B O 1.8189(4) 0.6955(2) 1.0755(2)
O2B O 1.8933(5) 0.5925(2) 1.2058(3)
O3B O 1.8948(5) 0.8679(2) 0.9672(3)
H1B H 1.8183 0.8363 0.9202
O4B O 2.2795(5) 0.8541(2) 1.1539(3)
H2B H 2.3735 0.8155 1.1762
O5B O 1.1875(4) 0.6837(2) 1.0508(3)
O5_2 O 0.8125(4) 0.3163(2) 0.9492(3)
O5B_2 O 2.1875(4) 0.6837(2) 1.0508(3)
O6B O 1.4734(5) 0.7023(2) 1.1646(3)
O7B O 2.1273(5) 0.7182(3) 1.3101(3)
H3B H 2.0782 0.6674 1.2746
N1B N 1.9190(5) 0.8693(3) 1.1845(3)
C1B C 1.7943(6) 0.6211(3) 1.1212(3)
C2B C 1.6358(6) 0.5599(3) 1.0612(3)
C3B C 1.7801(7) 0.9341(3) 1.0056(4)
H4B H 1.8491 0.9938 1.0162
H5B H 1.6559 0.9432 0.9533
C4B C 1.7402(7) 0.9031(3) 1.1071(4)
H6B H 1.6843 0.9552 1.1383
H7B H 1.6429 0.8531 1.0929
C5B C 2.0614(7) 0.9445(4) 1.2200(4)
H8B H 2.0435 0.9925 1.1653
H9B H 2.0375 0.9731 1.2836
C6B C 2.2680(7) 0.9093(4) 1.2431(4)
H10B H 2.2976 0.8716 1.3074
H11B H 2.3606 0.9612 1.2521
C7B C 1.3631(6) 0.6621(3) 1.0918(3)
C8B C 1.4374(6) 0.5787(3) 1.0431(3)
C9B C 1.6947(6) 0.4812(3) 1.0181(3)
H12B H 1.8291 0.4679 1.0308
C10B C 1.8533(7) 0.8253(4) 1.2709(4)
H13B H 1.7890 0.8725 1.3048
H14B H 1.7552 0.7780 1.2412
C11B C 2.0100(8) 0.7810(4) 1.3524(4)
H15B H 1.9506 0.7472 1.4018
H16B H 2.0941 0.8296 1.3922
loop_
_geom_bond_atom_site_label_1
_geom_bond_atom_site_label_2
_geom_bond_site_symmetry_1
_geom_bond_site_symmetry_2
Cu1 O1 1_555 1_555
O1 C1 1_555 1_555
O2 C1 1_555 1_555
O3 Cu1 1_555 1_555
H1 O3 1_555 1_555
O4 Cu1 1_555 1_555
H2 O4 1_555 1_555
O5 C7 1_555 1_555
O6 C7 1_555 1_555
O7 H3 1_555 1_555
N1 Cu1 1_555 1_555
C1 C2 1_555 1_555
C2 C8 1_555 1_555
C3 O3 1_555 1_555
H4 C3 1_555 1_555
H5 C3 1_555 1_555
C4 N1 1_555 1_555
H6 C4 1_555 1_555
H7 C4 1_555 1_555
C5 N1 1_555 1_555
H8 C5 1_555 1_555
H9 C5 1_555 1_555
C6 O4 1_555 1_555
H10 C6 1_555 1_555
H11 C6 1_555 1_555
C7 C8 1_555 1_555
C8 C9B 1_555 1_555
C9 C2 1_555 1_555
H12 C9 1_555 1_555
C10 N1 1_555 1_555
H13 C10 1_555 1_555
H14 C10 1_555 1_555
C11 O7 1_555 1_555
H15 C11 1_555 1_555
H16 C11 1_555 1_555
Cu1B O1B 1_555 1_555
Cu1_2 O5 1_555 1_555
Cu1B_2 O5B 1_555 1_555
O1B C1B 1_555 1_555
O2B C1B 1_555 1_555
O3B Cu1B 1_555 1_555
H1B O3B 1_555 1_555
O4B Cu1B 1_555 1_555
H2B O4B 1_555 1_555
O5B C7B 1_555 1_555
O5_2 Cu1 1_555 1_555
O5B_2 Cu1B 1_555 1_555
O6B C7B 1_555 1_555
O7B H3B 1_555 1_555
N1B Cu1B 1_555 1_555
C1B C2B 1_555 1_555
C2B C8B 1_555 1_555
C3B O3B 1_555 1_555
H4B C3B 1_555 1_555
H5B C3B 1_555 1_555
C4B N1B 1_555 1_555
H6B C4B 1_555 1_555
H7B C4B 1_555 1_555
C5B N1B 1_555 1_555
H8B C5B 1_555 1_555
H9B C5B 1_555 1_555
C6B O4B 1_555 1_555
H10B C6B 1_555 1_555
H11B C6B 1_555 1_555
C7B C8B 1_555 1_555
C8B C9 1_555 1_555
C9B C2B 1_555 1_555
H12B C9B 1_555 1_555
C10B N1B 1_555 1_555
H13B C10B 1_555 1_555
H14B C10B 1_555 1_555
C11B O7B 1_555 1_555
H15B C11B 1_555 1_555
H16B C11B 1_555 1_555
C3 C4 1_555 1_555
C5 C6 1_555 1_555
C10 C11 1_555 1_555
C3B C4B 1_555 1_555
C5B C6B 1_555 1_555
C10B C11B 1_555 1_555

#END
