
#######################################################################
#
#                 Cambridge Crystallographic Data Centre
#                                CCDC 
#
#######################################################################
#
# If this CIF has been generated from an entry in the Cambridge 
# Structural Database, then it will include bibliographic, chemical, 
# crystal, experimental, refinement or atomic coordinate data resulting 
# from the CCDC's data processing and validation procedures.
#
#######################################################################

data_VIYXEG
_symmetry_cell_setting           monoclinic
_symmetry_space_group_name_H-M   'P 21/c'
_symmetry_Int_Tables_number      14
_space_group_name_Hall           '-P 2ybc'
loop_
_symmetry_equiv_pos_site_id
_symmetry_equiv_pos_as_xyz
1 x,y,z
2 -x,1/2+y,1/2-z
3 -x,-y,-z
4 x,1/2-y,1/2+z
_cell_length_a                   8.6169(8)
_cell_length_b                   16.0539(9)
_cell_length_c                   8.2504(6)
_cell_angle_alpha                90
_cell_angle_beta                 103.458(7)
_cell_angle_gamma                90
_cell_volume                     1109.98
loop_
_atom_site_label
_atom_site_type_symbol
_atom_site_fract_x
_atom_site_fract_y
_atom_site_fract_z
Cd1 Cd 0.08145(3) 0.16860(4) 0.11655(3)
P1 P 0.1580(1) 0.05942(8) 0.3452(1)
O1 O -0.1431(4) 0.2278(2) 0.1689(4)
O2 O 0.3082(3) 0.1112(2) 0.0108(4)
O5 O 0.0630(3) -0.1301(2) 0.1393(3)
O6 O 0.1758(3) -0.0435(2) -0.0067(3)
O7 O 0.1327(3) 0.2149(2) 0.4912(4)
O8 O 0.3058(4) 0.2045(2) 0.7298(4)
C1 C -0.0170(4) 0.0256(2) 0.4199(4)
C2 C 0.2551(4) -0.0359(2) 0.2915(4)
C3 C 0.1603(4) -0.0722(2) 0.1283(4)
C4 C 0.3043(3) 0.0978(2) 0.5266(4)
C5 C 0.2442(5) 0.1786(2) 0.5892(5)
C1B C 0.0170(4) -0.0256(2) 0.5801(4)
P1B P -0.1580(1) -0.05942(8) 0.6548(1)
C2B C -0.2551(4) 0.0359(2) 0.7085(4)
C3B C -0.1603(4) 0.0722(2) 0.8717(4)
O5B O -0.0630(3) 0.1301(2) 0.8607(3)
O6B O -0.1758(3) 0.0435(2) 1.0067(3)
C4B C -0.3043(3) -0.0978(2) 0.4734(4)
C5B C -0.2442(5) -0.1786(2) 0.4108(5)
O7B O -0.1327(3) -0.2149(2) 0.5088(4)
O8B O -0.3058(4) -0.2045(2) 0.2702(4)
Cd1B Cd -0.08145(3) -0.16860(4) 0.88345(3)
O1B O 0.1431(4) -0.2278(2) 0.8311(4)
O2B O -0.3082(3) -0.1112(2) 0.9892(4)
O5B_2 O -0.0630(3) 0.1301(2) -0.1393(3)
O7C O 0.1327(3) 0.2851(2) -0.0088(4)
Cd1B_2 Cd -0.08145(3) -0.16860(4) -0.11655(3)
Cd1C Cd 0.08145(3) 0.33140(4) 0.61655(3)
Cd1_2 Cd 0.08145(3) 0.16860(4) 1.11655(3)
Cd1A Cd -0.08145(3) -0.33140(4) 0.38345(3)
O5_2 O 0.0630(3) -0.1301(2) 1.1393(3)
O7A O -0.1327(3) -0.2851(2) 1.0088(4)
O3 O 0.3926(4) 0.5852(3) 0.2748(5)
O4 O 0.3944(5) 0.7297(4) 0.0811(6)
loop_
_geom_bond_atom_site_label_1
_geom_bond_atom_site_label_2
_geom_bond_site_symmetry_1
_geom_bond_site_symmetry_2
Cd1 P1 1_555 1_555
P1 C1 1_555 1_555
O1 Cd1 1_555 1_555
O2 Cd1 1_555 1_555
O5 C3 1_555 1_555
O6 C3 1_555 1_555
O7 C5 1_555 1_555
O8 C5 1_555 1_555
C1 C1B 1_555 1_555
C2 P1 1_555 1_555
C3 C2 1_555 1_555
C4 P1 1_555 1_555
C5 C4 1_555 1_555
C1B P1B 1_555 1_555
P1B C2B 1_555 1_555
C2B C3B 1_555 1_555
C3B O5B 1_555 1_555
O5B Cd1_2 1_555 1_555
O6B C3B 1_555 1_555
C4B P1B 1_555 1_555
C5B C4B 1_555 1_555
O7B C5B 1_555 1_555
O8B C5B 1_555 1_555
Cd1B P1B 1_555 1_555
O1B Cd1B 1_555 1_555
O2B Cd1B 1_555 1_555
O5B_2 Cd1 1_555 1_555
O7C Cd1 1_555 1_555
Cd1B_2 O5 1_555 1_555
Cd1C O7 1_555 1_555
Cd1A O7B 1_555 1_555
O5_2 Cd1B 1_555 1_555
O7A Cd1B 1_555 1_555

#END
