
#######################################################################
#
#                 Cambridge Crystallographic Data Centre
#                                CCDC 
#
#######################################################################
#
# If this CIF has been generated from an entry in the Cambridge 
# Structural Database, then it will include bibliographic, chemical, 
# crystal, experimental, refinement or atomic coordinate data resulting 
# from the CCDC's data processing and validation procedures.
#
#######################################################################

data_VIYYOT
_symmetry_cell_setting           triclinic
_symmetry_space_group_name_H-M   'P -1'
_symmetry_Int_Tables_number      2
_space_group_name_Hall           '-P 1'
loop_
_symmetry_equiv_pos_site_id
_symmetry_equiv_pos_as_xyz
1 x,y,z
2 -x,-y,-z
_cell_length_a                   12.3538(8)
_cell_length_b                   13.1179(9)
_cell_length_c                   15.5223(10)
_cell_angle_alpha                69.5600(10)
_cell_angle_beta                 86.2590(10)
_cell_angle_gamma                63.4450(10)
_cell_volume                     2096.01
loop_
_atom_site_label
_atom_site_type_symbol
_atom_site_fract_x
_atom_site_fract_y
_atom_site_fract_z
C1 C 0.1175(8) 0.1518(10) 0.6542(6)
C2 C 0.0144(8) 0.2121(9) 0.6863(6)
H1 H -0.0312 0.2959 0.6565
C3 C -0.0248(8) 0.1514(9) 0.7632(6)
H2 H -0.0960 0.1941 0.7856
C4 C 0.0418(9) 0.0275(11) 0.8067(6)
C5 C 0.1462(9) -0.0349(9) 0.7745(6)
H3 H 0.1918 -0.1187 0.8040
C6 C 0.1837(9) 0.0277(10) 0.6975(7)
H4 H 0.2546 -0.0146 0.6745
C7 C 0.0972(11) 0.3242(11) 0.5196(7)
H5 H 0.0598 0.3761 0.5556
H6 H 0.0327 0.3256 0.4861
C8 C 0.1716(14) 0.3761(13) 0.4493(8)
Cl1 Cl -0.0041(4) -0.0538(4) 0.9040(2)
O1 O 0.1708(7) 0.2029(8) 0.5802(5)
O2 O 0.2792(8) 0.3197(10) 0.4551(5)
O3 O 0.1018(11) 0.4770(10) 0.3914(7)
C9 C 0.1749(6) 0.3829(7) 0.1470(5)
C10 C 0.1474(7) 0.3388(8) 0.0870(5)
H7 H 0.1002 0.3928 0.0309
C11 C 0.1892(8) 0.2161(9) 0.1100(6)
H8 H 0.1704 0.1860 0.0700
C12 C 0.2601(8) 0.1370(8) 0.1934(6)
C13 C 0.2857(8) 0.1814(9) 0.2532(6)
H9 H 0.3325 0.1279 0.3095
C14 C 0.2425(7) 0.3043(8) 0.2301(5)
H10 H 0.2590 0.3345 0.2710
C15 C 0.1635(6) 0.5597(7) 0.1678(5)
H11 H 0.1566 0.5226 0.2327
H12 H 0.1074 0.6461 0.1484
C16 C 0.2934(5) 0.5454(5) 0.1581(3)
C17 C 0.6314(5) 0.3891(5) 0.2082(4)
H13 H 0.5560 0.3918 0.2221
C18 C 0.7218(5) 0.3384(5) 0.2805(4)
H14 H 0.7068 0.3073 0.3412
C19 C 0.8333(5) 0.3344(4) 0.2618(3)
C20 C 0.8496(5) 0.3825(6) 0.1706(4)
H15 H 0.9237 0.3823 0.1551
C21 C 0.7558(5) 0.4311(5) 0.1023(4)
H16 H 0.7685 0.4634 0.0412
C22 C 0.9365(5) 0.2750(5) 0.3381(4)
H17 H 0.9890 0.3144 0.3208
H18 H 0.9034 0.2858 0.3945
C23 C 1.0102(5) 0.1401(5) 0.3555(4)
H19 H 0.9568 0.1016 0.3708
H20 H 1.0447 0.1298 0.2994
C24 C 1.1119(5) 0.0773(5) 0.4332(4)
H21 H 1.1582 0.1233 0.4215
H22 H 1.0762 0.0796 0.4905
C25 C 1.1986(5) -0.0538(4) 0.4462(3)
C26 C 1.3169(5) -0.1046(5) 0.4847(4)
H23 H 1.3432 -0.0586 0.5033
C27 C 1.3961(5) -0.2236(5) 0.4954(4)
H24 H 1.4759 -0.2552 0.5201
C28 C 1.2496(5) -0.2474(5) 0.4341(4)
H25 H 1.2258 -0.2948 0.4151
C29 C 1.1650(5) -0.1288(5) 0.4220(4)
H26 H 1.0855 -0.0994 0.3975
C30 C 0.6211(7) 0.2318(6) -0.0200(4)
H27 H 0.6481 0.2732 -0.0712
C31 C 0.6536(8) 0.1114(6) -0.0025(5)
H28 H 0.7042 0.0728 -0.0402
C32 C 0.6126(6) 0.0473(5) 0.0696(4)
C33 C 0.5457(6) 0.1084(6) 0.1266(6)
H29 H 0.5197 0.0683 0.1793
C34 C 0.5178(6) 0.2298(6) 0.1042(5)
H30 H 0.4711 0.2699 0.1425
C35 C 0.6403(6) -0.0856(6) 0.0881(5)
H31 H 0.5834 -0.1051 0.1282
H32 H 0.6286 -0.0938 0.0301
C36 C 0.7673(6) -0.1744(6) 0.1321(4)
H33 H 0.7800 -0.1656 0.1896
H34 H 0.8247 -0.1568 0.0914
C37 C 0.7903(6) -0.3076(5) 0.1517(4)
H35 H 0.7639 -0.3120 0.0962
H36 H 0.8770 -0.3613 0.1664
C38 C 0.7252(5) -0.3519(5) 0.2298(4)
C39 C 0.7815(5) -0.4144(5) 0.3199(4)
H37 H 0.8614 -0.4309 0.3325
C40 C 0.7189(5) -0.4521(5) 0.3905(4)
H38 H 0.7589 -0.4945 0.4501
C41 C 0.5500(5) -0.3723(5) 0.2912(4)
H39 H 0.4702 -0.3573 0.2802
C42 C 0.6075(6) -0.3330(5) 0.2175(4)
H40 H 0.5662 -0.2929 0.1583
Cd1 Cd 0.5000 0.5000 0.0000
Cd2 Cd 1.5000 -0.5000 0.5000
Cl2 Cl 0.3193(3) -0.0216(3) 0.2221(2)
H41 H 1.375(5) -0.500(11) 0.343(2)
H42 H 1.304(4) -0.496(12) 0.416(4)
N1 N 0.6476(4) 0.4340(4) 0.1199(3)
N2 N 1.3639(4) -0.2968(4) 0.4720(3)
N3 N 0.5535(4) 0.2922(4) 0.0319(3)
N4 N 0.6042(4) -0.4314(4) 0.3781(3)
O4 O 0.1265(4) 0.5075(5) 0.1164(3)
O5 O 0.3488(3) 0.5023(4) 0.0988(2)
O6 O 0.3305(4) 0.5801(4) 0.2081(3)
O7 O 1.3708(4) -0.5083(4) 0.3974(3)
C9A C 0.8251(6) 0.6171(7) -0.1470(5)
C10A C 0.8526(7) 0.6612(8) -0.0870(5)
H7A H 0.8998 0.6072 -0.0309
C11A C 0.8108(8) 0.7839(9) -0.1100(6)
H8A H 0.8296 0.8140 -0.0700
C12A C 0.7399(8) 0.8630(8) -0.1934(6)
C13A C 0.7143(8) 0.8186(9) -0.2532(6)
H9A H 0.6675 0.8721 -0.3095
C14A C 0.7575(7) 0.6957(8) -0.2301(5)
H10A H 0.7410 0.6655 -0.2710
C15A C 0.8365(6) 0.4403(7) -0.1678(5)
H11A H 0.8434 0.4774 -0.2327
H12A H 0.8926 0.3539 -0.1484
C16A C 0.7066(5) 0.4546(5) -0.1581(3)
C17A C 0.3686(5) 0.6109(5) -0.2082(4)
H13A H 0.4440 0.6082 -0.2221
C18A C 0.2782(5) 0.6616(5) -0.2805(4)
H14A H 0.2932 0.6927 -0.3412
C19A C 0.1667(5) 0.6656(4) -0.2618(3)
C20A C 0.1504(5) 0.6175(6) -0.1706(4)
H15A H 0.0763 0.6177 -0.1551
C21A C 0.2442(5) 0.5689(5) -0.1023(4)
H16A H 0.2315 0.5366 -0.0412
C22A C 0.0635(5) 0.7250(5) -0.3381(4)
H17A H 0.0110 0.6856 -0.3208
H18A H 0.0966 0.7142 -0.3945
C23A C -0.0102(5) 0.8599(5) -0.3555(4)
H19A H 0.0432 0.8984 -0.3708
H20A H -0.0447 0.8702 -0.2994
C24A C -0.1119(5) 0.9227(5) -0.4332(4)
H21A H -0.1582 0.8767 -0.4215
H22A H -0.0762 0.9204 -0.4905
C25A C -0.1986(5) 1.0538(4) -0.4462(3)
C26A C -0.3169(5) 1.1046(5) -0.4847(4)
H23A H -0.3432 1.0586 -0.5033
C27A C -0.3961(5) 1.2236(5) -0.4954(4)
H24A H -0.4759 1.2552 -0.5201
C28A C -0.2496(5) 1.2474(5) -0.4341(4)
H25A H -0.2258 1.2948 -0.4151
C29A C -0.1650(5) 1.1288(5) -0.4220(4)
H26A H -0.0855 1.0994 -0.3975
C30A C 0.3789(7) 0.7682(6) 0.0200(4)
H27A H 0.3519 0.7268 0.0712
C31A C 0.3464(8) 0.8886(6) 0.0025(5)
H28A H 0.2958 0.9272 0.0402
C32A C 0.3874(6) 0.9527(5) -0.0696(4)
C33A C 0.4543(6) 0.8916(6) -0.1266(6)
H29A H 0.4803 0.9317 -0.1793
C34A C 0.4822(6) 0.7702(6) -0.1042(5)
H30A H 0.5289 0.7301 -0.1425
C35A C 0.3597(6) 1.0856(6) -0.0881(5)
H31A H 0.4166 1.1051 -0.1282
H32A H 0.3714 1.0938 -0.0301
C36A C 0.2327(6) 1.1744(6) -0.1321(4)
H33A H 0.2200 1.1656 -0.1896
H34A H 0.1753 1.1568 -0.0914
C37A C 0.2097(6) 1.3076(5) -0.1517(4)
H35A H 0.2361 1.3120 -0.0962
H36A H 0.1230 1.3613 -0.1664
C38A C 0.2748(5) 1.3519(5) -0.2298(4)
C39A C 0.2185(5) 1.4144(5) -0.3199(4)
H37A H 0.1386 1.4309 -0.3325
C40A C 0.2811(5) 1.4521(5) -0.3905(4)
H38A H 0.2411 1.4945 -0.4501
C41A C 0.4500(5) 1.3723(5) -0.2912(4)
H39A H 0.5298 1.3573 -0.2802
C42A C 0.3925(6) 1.3330(5) -0.2175(4)
H40A H 0.4338 1.2929 -0.1583
Cl2A Cl 0.6807(3) 1.0216(3) -0.2221(2)
N1A N 0.3524(4) 0.5660(4) -0.1199(3)
N2A N -0.3639(4) 1.2968(4) -0.4720(3)
N3A N 0.4465(4) 0.7078(4) -0.0319(3)
N4A N 0.3958(4) 1.4314(4) -0.3781(3)
O4A O 0.8735(4) 0.4925(5) -0.1164(3)
O5A O 0.6512(3) 0.4977(4) -0.0988(2)
O6A O 0.6695(4) 0.4199(4) -0.2081(3)
H41A H 1.625(5) -0.500(11) 0.657(2)
H42A H 1.696(4) -0.504(12) 0.584(4)
O7A O 1.6292(4) -0.4917(4) 0.6026(3)
Cd2_2 Cd -0.5000 1.5000 -0.5000
Cd2_3 Cd 0.5000 -0.5000 0.5000
Cd2_4 Cd 0.5000 1.5000 -0.5000
N2A_2 N 1.6361(4) -0.7032(4) 0.5280(3)
N4_2 N 1.6042(4) -0.4314(4) 0.3781(3)
N4A_2 N 1.3958(4) -0.5686(4) 0.6219(3)
loop_
_geom_bond_atom_site_label_1
_geom_bond_atom_site_label_2
_geom_bond_site_symmetry_1
_geom_bond_site_symmetry_2
C1 C2 1_555 1_555
C2 H1 1_555 1_555
C3 C2 1_555 1_555
H2 C3 1_555 1_555
C4 C3 1_555 1_555
C5 C4 1_555 1_555
H3 C5 1_555 1_555
C6 C1 1_555 1_555
H4 C6 1_555 1_555
C7 H5 1_555 1_555
H6 C7 1_555 1_555
C8 C7 1_555 1_555
Cl1 C4 1_555 1_555
O1 C1 1_555 1_555
O2 C8 1_555 1_555
O3 C8 1_555 1_555
C9 C10 1_555 1_555
C10 H7 1_555 1_555
C11 C10 1_555 1_555
H8 C11 1_555 1_555
C12 C11 1_555 1_555
C13 C12 1_555 1_555
H9 C13 1_555 1_555
C14 C9 1_555 1_555
H10 C14 1_555 1_555
C15 H11 1_555 1_555
H12 C15 1_555 1_555
C16 C15 1_555 1_555
C17 H13 1_555 1_555
C18 C17 1_555 1_555
H14 C18 1_555 1_555
C19 C18 1_555 1_555
C20 C19 1_555 1_555
H15 C20 1_555 1_555
C21 C20 1_555 1_555
H16 C21 1_555 1_555
C22 C19 1_555 1_555
H17 C22 1_555 1_555
H18 C22 1_555 1_555
C23 C22 1_555 1_555
H19 C23 1_555 1_555
H20 C23 1_555 1_555
C24 C23 1_555 1_555
H21 C24 1_555 1_555
H22 C24 1_555 1_555
C25 C24 1_555 1_555
C26 C25 1_555 1_555
H23 C26 1_555 1_555
C27 C26 1_555 1_555
H24 C27 1_555 1_555
C28 H25 1_555 1_555
C29 C25 1_555 1_555
H26 C29 1_555 1_555
C30 H27 1_555 1_555
C31 C30 1_555 1_555
H28 C31 1_555 1_555
C32 C31 1_555 1_555
C33 C32 1_555 1_555
H29 C33 1_555 1_555
C34 C33 1_555 1_555
H30 C34 1_555 1_555
C35 C32 1_555 1_555
H31 C35 1_555 1_555
H32 C35 1_555 1_555
C36 C35 1_555 1_555
H33 C36 1_555 1_555
H34 C36 1_555 1_555
C37 C36 1_555 1_555
H35 C37 1_555 1_555
H36 C37 1_555 1_555
C38 C37 1_555 1_555
C39 C38 1_555 1_555
H37 C39 1_555 1_555
C40 C39 1_555 1_555
H38 C40 1_555 1_555
C41 H39 1_555 1_555
C42 C38 1_555 1_555
H40 C42 1_555 1_555
Cd1 N1 1_555 1_555
Cd2 N2 1_555 1_555
Cl2 C12 1_555 1_555
H41 O7 1_555 1_555
H42 O7 1_555 1_555
N1 C17 1_555 1_555
N2 C27 1_555 1_555
N3 C30 1_555 1_555
N4 C40 1_555 1_555
O4 C9 1_555 1_555
O5 C16 1_555 1_555
O6 C16 1_555 1_555
O7 Cd2 1_555 1_555
C9A C10A 1_555 1_555
C10A H7A 1_555 1_555
C11A C10A 1_555 1_555
H8A C11A 1_555 1_555
C12A C11A 1_555 1_555
C13A C12A 1_555 1_555
H9A C13A 1_555 1_555
C14A C9A 1_555 1_555
H10A C14A 1_555 1_555
C15A H11A 1_555 1_555
H12A C15A 1_555 1_555
C16A C15A 1_555 1_555
C17A H13A 1_555 1_555
C18A C17A 1_555 1_555
H14A C18A 1_555 1_555
C19A C18A 1_555 1_555
C20A C19A 1_555 1_555
H15A C20A 1_555 1_555
C21A C20A 1_555 1_555
H16A C21A 1_555 1_555
C22A C19A 1_555 1_555
H17A C22A 1_555 1_555
H18A C22A 1_555 1_555
C23A C22A 1_555 1_555
H19A C23A 1_555 1_555
H20A C23A 1_555 1_555
C24A C23A 1_555 1_555
H21A C24A 1_555 1_555
H22A C24A 1_555 1_555
C25A C24A 1_555 1_555
C26A C25A 1_555 1_555
H23A C26A 1_555 1_555
C27A C26A 1_555 1_555
H24A C27A 1_555 1_555
C28A H25A 1_555 1_555
C29A C25A 1_555 1_555
H26A C29A 1_555 1_555
C30A H27A 1_555 1_555
C31A C30A 1_555 1_555
H28A C31A 1_555 1_555
C32A C31A 1_555 1_555
C33A C32A 1_555 1_555
H29A C33A 1_555 1_555
C34A C33A 1_555 1_555
H30A C34A 1_555 1_555
C35A C32A 1_555 1_555
H31A C35A 1_555 1_555
H32A C35A 1_555 1_555
C36A C35A 1_555 1_555
H33A C36A 1_555 1_555
H34A C36A 1_555 1_555
C37A C36A 1_555 1_555
H35A C37A 1_555 1_555
H36A C37A 1_555 1_555
C38A C37A 1_555 1_555
C39A C38A 1_555 1_555
H37A C39A 1_555 1_555
C40A C39A 1_555 1_555
H38A C40A 1_555 1_555
C41A H39A 1_555 1_555
C42A C38A 1_555 1_555
H40A C42A 1_555 1_555
Cl2A C12A 1_555 1_555
N1A Cd1 1_555 1_555
N2A C27A 1_555 1_555
N3A Cd1 1_555 1_555
N4A C40A 1_555 1_555
O4A C9A 1_555 1_555
O5A Cd1 1_555 1_555
O6A C16A 1_555 1_555
H41A O7A 1_555 1_555
H42A O7A 1_555 1_555
O7A Cd2 1_555 1_555
Cd2_2 N2A 1_555 1_555
Cd2_3 N4 1_555 1_555
Cd2_4 N4A 1_555 1_555
N2A_2 Cd2 1_555 1_555
N4_2 Cd2 1_555 1_555
N4A_2 Cd2 1_555 1_555
C5 C6 1_555 1_555
C7 O1 1_555 1_555
C13 C14 1_555 1_555
C15 O4 1_555 1_555
C21 N1 1_555 1_555
C28 C29 1_555 1_555
C28 N2 1_555 1_555
C34 N3 1_555 1_555
C41 C42 1_555 1_555
C41 N4 1_555 1_555
Cd1 N3 1_555 1_555
Cd1 O5 1_555 1_555
C13A C14A 1_555 1_555
C15A O4A 1_555 1_555
C16A O5A 1_555 1_555
C17A N1A 1_555 1_555
C21A N1A 1_555 1_555
C28A C29A 1_555 1_555
C28A N2A 1_555 1_555
C30A N3A 1_555 1_555
C34A N3A 1_555 1_555
C41A C42A 1_555 1_555
C41A N4A 1_555 1_555

#END
