
#######################################################################
#
#                 Cambridge Crystallographic Data Centre
#                                CCDC 
#
#######################################################################
#
# If this CIF has been generated from an entry in the Cambridge 
# Structural Database, then it will include bibliographic, chemical, 
# crystal, experimental, refinement or atomic coordinate data resulting 
# from the CCDC's data processing and validation procedures.
#
#######################################################################

data_VIYYUZ
_symmetry_cell_setting           triclinic
_symmetry_space_group_name_H-M   'P -1'
_symmetry_Int_Tables_number      2
_space_group_name_Hall           '-P 1'
loop_
_symmetry_equiv_pos_site_id
_symmetry_equiv_pos_as_xyz
1 x,y,z
2 -x,-y,-z
_cell_length_a                   8.2306(7)
_cell_length_b                   10.3658(9)
_cell_length_c                   15.5729(13)
_cell_angle_alpha                97.295(2)
_cell_angle_beta                 92.651(2)
_cell_angle_gamma                112.8010(10)
_cell_volume                     1208.25
loop_
_atom_site_label
_atom_site_type_symbol
_atom_site_fract_x
_atom_site_fract_y
_atom_site_fract_z
Tb1 Tb 0.40447(2) 0.511082(16) 0.150752(10)
Tb2 Tb 0.08142(2) -0.014053(16) 0.345451(10)
O1 O 0.0461(3) 0.1005(3) 0.22526(17)
O2 O 0.3406(3) 0.2020(3) 0.33533(17)
O3 O 0.4437(3) 0.3958(3) 0.27221(17)
O4 O 0.1548(3) 0.2889(3) 0.15797(17)
O5 O -0.0120(3) 0.1362(3) 0.43302(16)
O6 O 0.0502(3) 0.2003(3) 0.57685(16)
O7 O 0.3940(4) 0.7937(3) 0.4658(2)
H1 H 0.3589 0.8120 0.4207
O8 O 0.4657(3) 0.2966(3) -0.07566(17)
O9 O 0.5116(3) 0.3648(3) 0.06809(16)
O10 O 0.1121(4) -0.2910(3) 0.04393(19)
H2 H 0.1478 -0.3072 0.0897
O11 O 0.5195(3) 0.7161(3) 0.26127(17)
O12 O 0.7186(3) 0.5946(3) 0.18414(17)
O13 O 0.7644(3) 0.9086(3) 0.31408(17)
O14 O 0.9627(3) 0.7889(3) 0.23329(17)
N1 N 0.3530(5) 0.6108(4) 0.5394(2)
H3 H 0.444(6) 0.676(5) 0.578(3)
N2 N 0.1549(5) -0.1124(4) -0.0342(2)
H4 H 0.059(6) -0.177(5) -0.071(3)
C1 C 0.1613(5) 0.2170(4) 0.2153(2)
C2 C 0.3312(5) 0.2777(4) 0.2798(2)
C3 C 0.2719(5) 0.4745(4) 0.5509(3)
H5 H 0.3005 0.4463 0.6018
C4 C 0.1478(5) 0.3775(4) 0.4882(2)
C5 C 0.1079(5) 0.4262(4) 0.4126(2)
H6 H 0.0266 0.3620 0.3682
C6 C 0.1857(5) 0.5644(4) 0.4035(2)
H7 H 0.1539 0.5942 0.3538
C7 C 0.3155(5) 0.6648(4) 0.4686(3)
C8 C 0.0574(5) 0.2281(4) 0.5005(2)
C9 C 0.2365(5) 0.0234(4) -0.0473(2)
H8 H 0.2079 0.0498 -0.0989
C10 C 0.3599(5) 0.1216(4) 0.0141(2)
C11 C 0.4005(5) 0.0763(4) 0.0913(2)
H9 H 0.4819 0.1420 0.1352
C12 C 0.3224(5) -0.0613(4) 0.1023(2)
H10 H 0.3554 -0.0893 0.1523
C13 C 0.1911(5) -0.1635(4) 0.0387(3)
C14 C 0.4505(5) 0.2712(4) 0.0008(2)
C15 C 0.6833(5) 0.7870(4) 0.2711(2)
C16 C 0.7994(5) 0.7172(4) 0.2253(2)
O15 O 0.2249(3) 0.4431(3) 0.01587(17)
H11 H 0.276(4) 0.489(4) -0.022(2)
H12 H 0.1176(18) 0.399(4) 0.004(2)
O16 O 0.1676(4) 0.5838(3) 0.18080(19)
H13 H 0.085(4) 0.5046(19) 0.170(2)
H14 H 0.150(4) 0.6365(19) 0.2227(12)
O17 O 0.2714(3) 0.0486(3) 0.47706(17)
H15 H 0.377(2) 0.099(4) 0.488(2)
H16 H 0.224(4) 0.006(4) 0.516(2)
O18 O 0.3035(4) -0.1120(3) 0.32291(19)
H17 H 0.313(3) -0.157(2) 0.2667(9)
H18 H 0.1914(16) -0.159(2) 0.3260(13)
Tb1A Tb 0.59553(2) 0.488918(16) -0.150752(10)
Tb2_2 Tb 1.08142(2) 0.985947(16) 0.345451(10)
Tb2A Tb -0.08142(2) 0.014053(16) 0.654549(10)
O6A O -0.0502(3) -0.2003(3) 0.42315(16)
O8A O 0.5343(3) 0.7034(3) 0.07566(17)
O13_2 O -0.2356(3) -0.0914(3) 0.31408(17)
O14_2 O -0.0373(3) -0.2111(3) 0.23329(17)
O19 O 0.6699(5) 0.1434(5) 0.2873(3)
H19 H 0.721(5) 0.091(4) 0.295(4)
H20 H 0.579(5) 0.128(6) 0.312(4)
O20 O 0.8514(5) 0.3881(6) 0.2155(4)
H21 H 0.802(7) 0.443(5) 0.214(5)
H22 H 0.795(7) 0.315(4) 0.235(5)
loop_
_geom_bond_atom_site_label_1
_geom_bond_atom_site_label_2
_geom_bond_site_symmetry_1
_geom_bond_site_symmetry_2
Tb1 O3 1_555 1_555
Tb2 O1 1_555 1_555
O1 C1 1_555 1_555
O2 Tb2 1_555 1_555
O3 C2 1_555 1_555
O4 Tb1 1_555 1_555
O5 Tb2 1_555 1_555
O6 C8 1_555 1_555
O7 H1 1_555 1_555
O8 C14 1_555 1_555
O9 Tb1 1_555 1_555
O10 H2 1_555 1_555
O11 Tb1 1_555 1_555
O12 Tb1 1_555 1_555
O13 C15 1_555 1_555
O14 C16 1_555 1_555
N1 H3 1_555 1_555
N2 H4 1_555 1_555
C1 O4 1_555 1_555
C2 O2 1_555 1_555
C3 N1 1_555 1_555
H5 C3 1_555 1_555
C4 C3 1_555 1_555
C5 C4 1_555 1_555
H6 C5 1_555 1_555
C6 C5 1_555 1_555
H7 C6 1_555 1_555
C7 O7 1_555 1_555
C8 O5 1_555 1_555
C9 N2 1_555 1_555
H8 C9 1_555 1_555
C10 C9 1_555 1_555
C11 C10 1_555 1_555
H9 C11 1_555 1_555
C12 C11 1_555 1_555
H10 C12 1_555 1_555
C13 O10 1_555 1_555
C14 O9 1_555 1_555
C15 O11 1_555 1_555
C16 O12 1_555 1_555
O15 Tb1 1_555 1_555
H11 O15 1_555 1_555
H12 O15 1_555 1_555
O16 Tb1 1_555 1_555
H13 O16 1_555 1_555
H14 O16 1_555 1_555
O17 Tb2 1_555 1_555
H15 O17 1_555 1_555
H16 O17 1_555 1_555
O18 Tb2 1_555 1_555
H17 O18 1_555 1_555
H18 O18 1_555 1_555
O19 H19 1_555 1_555
H20 O19 1_555 1_555
O20 H21 1_555 1_555
H22 O20 1_555 1_555
Tb1A O8 1_555 1_555
Tb2_2 O13 1_555 1_555
Tb2A O6 1_555 1_555
O6A Tb2 1_555 1_555
O8A Tb1 1_555 1_555
O13_2 Tb2 1_555 1_555
O14_2 Tb2 1_555 1_555
O14 Tb2_2 1_555 1_555
N1 C7 1_555 1_555
N2 C13 1_555 1_555
C1 C2 1_555 1_555
C4 C8 1_555 1_555
C6 C7 1_555 1_555
C10 C14 1_555 1_555
C12 C13 1_555 1_555
C15 C16 1_555 1_555

#END
