
#######################################################################
#
#                 Cambridge Crystallographic Data Centre
#                                CCDC 
#
#######################################################################
#
# If this CIF has been generated from an entry in the Cambridge 
# Structural Database, then it will include bibliographic, chemical, 
# crystal, experimental, refinement or atomic coordinate data resulting 
# from the CCDC's data processing and validation procedures.
#
#######################################################################

data_VIYZAF
_symmetry_cell_setting           triclinic
_symmetry_space_group_name_H-M   'P -1'
_symmetry_Int_Tables_number      2
_space_group_name_Hall           '-P 1'
loop_
_symmetry_equiv_pos_site_id
_symmetry_equiv_pos_as_xyz
1 x,y,z
2 -x,-y,-z
_cell_length_a                   9.7503(2)
_cell_length_b                   10.9197(2)
_cell_length_c                   15.8132(4)
_cell_angle_alpha                71.339(8)
_cell_angle_beta                 82.4530(10)
_cell_angle_gamma                67.354(8)
_cell_volume                     1472.08
loop_
_atom_site_label
_atom_site_type_symbol
_atom_site_fract_x
_atom_site_fract_y
_atom_site_fract_z
Zn1 Zn 0.27823(4) 0.76563(3) 0.54949(2)
C1 C 0.2163(4) 0.5385(3) 0.6948(2)
C2 C 0.2760(4) 0.4023(3) 0.76512(19)
C3 C 0.1806(4) 0.3478(4) 0.8221(2)
H1 H 0.0786 0.3925 0.8136
C4 C 0.4261(4) 0.3295(3) 0.7770(2)
H2 H 0.4927 0.3617 0.7374
C5 C 0.2341(4) 0.2286(4) 0.8912(3)
H3 H 0.1671 0.1943 0.9288
C6 C 0.4796(4) 0.2099(3) 0.8463(2)
H4 H 0.5816 0.1628 0.8530
C7 C 0.3836(4) 0.1583(3) 0.9064(2)
C8 C 0.4324(4) 0.0347(3) 0.9846(2)
H5 H 0.3592 0.0023 1.0154
C9 C 0.2189(3) 0.8407(3) 0.38414(19)
C10 C 0.1777(3) 0.8659(3) 0.29042(18)
C11 C 0.1771(3) 0.7579(3) 0.26298(19)
H6 H 0.2049 0.6685 0.3023
C12 C 0.1355(3) 0.9987(3) 0.23086(19)
H7 H 0.1374 1.0716 0.2484
C13 C 0.1350(4) 0.7832(3) 0.1766(2)
H8 H 0.1382 0.7093 0.1582
C14 C 0.0907(4) 1.0234(3) 0.14584(19)
H9 H 0.0617 1.1132 0.1071
C15 C 0.0882(3) 0.9162(3) 0.11688(19)
C16 C 0.0391(4) 0.9394(3) 0.02793(19)
H10 H 0.0653 0.8615 0.0083
C17 C 0.2086(4) 0.9721(4) 0.6569(3)
H11 H 0.1123 0.9734 0.6585
C18 C 0.2359(5) 1.0518(5) 0.6989(3)
H12 H 0.1599 1.1057 0.7286
C19 C 0.3761(5) 1.0510(4) 0.6965(3)
H13 H 0.3972 1.1039 0.7252
C20 C 0.4877(4) 0.9711(4) 0.6512(2)
H14 H 0.5834 0.9717 0.6476
C21 C 0.4535(4) 0.8895(3) 0.6110(2)
C22 C 0.5648(3) 0.7957(3) 0.5650(2)
C23 C 0.7126(4) 0.7798(4) 0.5582(3)
H15 H 0.7463 0.8318 0.5809
C24 C 0.8092(4) 0.6856(5) 0.5172(3)
H16 H 0.9096 0.6727 0.5124
C25 C 0.7574(4) 0.6105(4) 0.4832(3)
H17 H 0.8216 0.5454 0.4560
C26 C 0.6080(4) 0.6344(3) 0.4907(2)
H18 H 0.5718 0.5856 0.4666
N1 N 0.3132(3) 0.8924(3) 0.61361(16)
N2 N 0.5123(3) 0.7244(2) 0.53106(15)
O1 O 0.3081(2) 0.5814(2) 0.64342(13)
O2 O 0.0794(3) 0.6015(3) 0.6920(2)
O3 O 0.2082(2) 0.9423(2) 0.41026(13)
O4 O 0.2629(3) 0.7183(2) 0.43523(13)
O5 O 0.0435(3) 0.8337(2) 0.56984(16)
H19 H -0.031(4) 0.890(4) 0.588(3)
H20 H 0.028(4) 0.772(3) 0.6139(18)
Zn1A Zn 0.72177(4) -0.76563(3) 1.45051(2)
Zn1A_2 Zn -0.27823(4) 1.23437(3) -0.54949(2)
C1A C 0.7837(4) -0.5385(3) 1.3052(2)
C2A C 0.7240(4) -0.4023(3) 1.23488(19)
C3A C 0.8194(4) -0.3478(4) 1.1779(2)
H1A H 0.9214 -0.3925 1.1864
C4A C 0.5739(4) -0.3295(3) 1.2230(2)
H2A H 0.5073 -0.3617 1.2626
C5A C 0.7659(4) -0.2286(4) 1.1088(3)
H3A H 0.8329 -0.1943 1.0712
C6A C 0.5204(4) -0.2099(3) 1.1537(2)
H4A H 0.4184 -0.1628 1.1470
C7A C 0.6164(4) -0.1583(3) 1.0936(2)
C8A C 0.5676(4) -0.0347(3) 1.0154(2)
H5A H 0.6408 -0.0023 0.9846
C9A C -0.2189(3) 1.1593(3) -0.38414(19)
C10A C -0.1777(3) 1.1341(3) -0.29042(18)
C11A C -0.1771(3) 1.2421(3) -0.26298(19)
H6A H -0.2049 1.3315 -0.3023
C12A C -0.1355(3) 1.0013(3) -0.23086(19)
H7A H -0.1374 0.9284 -0.2484
C13A C -0.1350(4) 1.2168(3) -0.1766(2)
H8A H -0.1382 1.2907 -0.1582
C14A C -0.0907(4) 0.9766(3) -0.14584(19)
H9A H -0.0617 0.8868 -0.1071
C15A C -0.0882(3) 1.0838(3) -0.11688(19)
C16A C -0.0391(4) 1.0606(3) -0.02793(19)
H10A H -0.0653 1.1385 -0.0083
C17A C 0.7914(4) -0.9721(4) 1.3431(3)
H11A H 0.8877 -0.9734 1.3415
C18A C 0.7641(5) -1.0518(5) 1.3011(3)
H12A H 0.8401 -1.1057 1.2714
C19A C 0.6239(5) -1.0510(4) 1.3035(3)
H13A H 0.6028 -1.1039 1.2748
C20A C 0.5123(4) -0.9711(4) 1.3488(2)
H14A H 0.4166 -0.9717 1.3524
C21A C 0.5465(4) -0.8895(3) 1.3890(2)
C22A C 0.4352(3) -0.7957(3) 1.4350(2)
C23A C 0.2874(4) -0.7798(4) 1.4418(3)
H15A H 0.2537 -0.8318 1.4191
C24A C 0.1908(4) -0.6856(5) 1.4828(3)
H16A H 0.0904 -0.6727 1.4876
C25A C 0.2426(4) -0.6105(4) 1.5168(3)
H17A H 0.1784 -0.5454 1.5440
C26A C 0.3920(4) -0.6344(3) 1.5093(2)
H18A H 0.4282 -0.5856 1.5334
N1A N 0.6868(3) -0.8924(3) 1.38639(16)
N2A N 0.4877(3) -0.7244(2) 1.46894(15)
O1A O 0.6919(2) -0.5814(2) 1.35658(13)
O2A O 0.9206(3) -0.6015(3) 1.3080(2)
O3A O -0.2082(2) 1.0577(2) -0.41026(13)
O3A_2 O 0.7918(2) -0.9423(2) 1.58974(13)
O4A O -0.2629(3) 1.2817(2) -0.43523(13)
O4A_2 O 0.7371(3) -0.7183(2) 1.56477(13)
O5A O 0.9565(3) -0.8337(2) 1.43016(16)
H19A H 1.031(4) -0.890(4) 1.412(3)
H20A H 0.972(4) -0.772(3) 1.3861(18)
C27 C 0.3809(14) 0.6279(11) 0.8509(7)
H21 H 0.3124 0.6088 0.8264
C28 C 0.5077(14) 0.6160(8) 0.8093(5)
H22 H 0.5274 0.5863 0.7585
C29 C 0.6116(12) 0.6465(9) 0.8390(7)
H23 H 0.7027 0.6390 0.8102
C30 C 0.5714(12) 0.6907(11) 0.9174(8)
H24 H 0.6364 0.7155 0.9405
C31 C 0.4432(13) 0.6966(10) 0.9572(6)
H25 H 0.4218 0.7235 1.0091
N3 N 0.3401(10) 0.6658(9) 0.9274(6)
O6 O 0.9398(8) 0.6466(6) 0.8667(6)
O7 O 0.0878(10) 0.6081(7) 1.0041(6)
loop_
_geom_bond_atom_site_label_1
_geom_bond_atom_site_label_2
_geom_bond_site_symmetry_1
_geom_bond_site_symmetry_2
Zn1 N1 1_555 1_555
C1 C2 1_555 1_555
C2 C3 1_555 1_555
C3 H1 1_555 1_555
C4 C2 1_555 1_555
H2 C4 1_555 1_555
C5 C3 1_555 1_555
H3 C5 1_555 1_555
C6 C4 1_555 1_555
H4 C6 1_555 1_555
C7 C5 1_555 1_555
C8 C7 1_555 1_555
H5 C8 1_555 1_555
C9 C10 1_555 1_555
C10 C11 1_555 1_555
C11 H6 1_555 1_555
C12 C10 1_555 1_555
H7 C12 1_555 1_555
C13 C11 1_555 1_555
H8 C13 1_555 1_555
C14 C12 1_555 1_555
H9 C14 1_555 1_555
C15 C13 1_555 1_555
C16 C15 1_555 1_555
H10 C16 1_555 1_555
C17 H11 1_555 1_555
C18 C17 1_555 1_555
H12 C18 1_555 1_555
C19 C18 1_555 1_555
H13 C19 1_555 1_555
C20 C19 1_555 1_555
H14 C20 1_555 1_555
C21 C20 1_555 1_555
C22 C21 1_555 1_555
C23 C22 1_555 1_555
H15 C23 1_555 1_555
C24 C23 1_555 1_555
H16 C24 1_555 1_555
C25 C24 1_555 1_555
H17 C25 1_555 1_555
C26 C25 1_555 1_555
H18 C26 1_555 1_555
N1 C17 1_555 1_555
N2 Zn1 1_555 1_555
O1 Zn1 1_555 1_555
O2 C1 1_555 1_555
O3 Zn1 1_555 1_555
O4 Zn1 1_555 1_555
O5 Zn1 1_555 1_555
H19 O5 1_555 1_555
H20 O5 1_555 1_555
C27 H21 1_555 1_555
C28 C27 1_555 1_555
H22 C28 1_555 1_555
C29 C28 1_555 1_555
H23 C29 1_555 1_555
C30 C29 1_555 1_555
H24 C30 1_555 1_555
C31 C30 1_555 1_555
H25 C31 1_555 1_555
N3 C27 1_555 1_555
Zn1A N1A 1_555 1_555
Zn1A_2 O3A 1_555 1_555
C1A C2A 1_555 1_555
C2A C3A 1_555 1_555
C3A H1A 1_555 1_555
C4A C2A 1_555 1_555
H2A C4A 1_555 1_555
C5A C3A 1_555 1_555
H3A C5A 1_555 1_555
C6A C4A 1_555 1_555
H4A C6A 1_555 1_555
C7A C5A 1_555 1_555
C8A C8 1_555 1_555
H5A C8A 1_555 1_555
C9A C10A 1_555 1_555
C10A C11A 1_555 1_555
C11A H6A 1_555 1_555
C12A C10A 1_555 1_555
H7A C12A 1_555 1_555
C13A C11A 1_555 1_555
H8A C13A 1_555 1_555
C14A C12A 1_555 1_555
H9A C14A 1_555 1_555
C15A C13A 1_555 1_555
C16A C16 1_555 1_555
H10A C16A 1_555 1_555
C17A H11A 1_555 1_555
C18A C17A 1_555 1_555
H12A C18A 1_555 1_555
C19A C18A 1_555 1_555
H13A C19A 1_555 1_555
C20A C19A 1_555 1_555
H14A C20A 1_555 1_555
C21A C20A 1_555 1_555
C22A C21A 1_555 1_555
C23A C22A 1_555 1_555
H15A C23A 1_555 1_555
C24A C23A 1_555 1_555
H16A C24A 1_555 1_555
C25A C24A 1_555 1_555
H17A C25A 1_555 1_555
C26A C25A 1_555 1_555
H18A C26A 1_555 1_555
N1A C17A 1_555 1_555
N2A Zn1A 1_555 1_555
O1A Zn1A 1_555 1_555
O2A C1A 1_555 1_555
O3A C9A 1_555 1_555
O3A_2 Zn1A 1_555 1_555
O4A Zn1A_2 1_555 1_555
O4A_2 Zn1A 1_555 1_555
O5A Zn1A 1_555 1_555
H19A O5A 1_555 1_555
H20A O5A 1_555 1_555
C1 O1 1_555 1_555
C6 C7 1_555 1_555
C9 O3 1_555 1_555
C9 O4 1_555 1_555
C14 C15 1_555 1_555
C21 N1 1_555 1_555
C22 N2 1_555 1_555
C26 N2 1_555 1_555
C31 N3 1_555 1_555
C1A O1A 1_555 1_555
C6A C7A 1_555 1_555
C7A C8A 1_555 1_555
C9A O4A 1_555 1_555
C14A C15A 1_555 1_555
C15A C16A 1_555 1_555
C21A N1A 1_555 1_555
C22A N2A 1_555 1_555
C26A N2A 1_555 1_555

#END
