
#######################################################################
#
#                 Cambridge Crystallographic Data Centre
#                                CCDC 
#
#######################################################################
#
# If this CIF has been generated from an entry in the Cambridge 
# Structural Database, then it will include bibliographic, chemical, 
# crystal, experimental, refinement or atomic coordinate data resulting 
# from the CCDC's data processing and validation procedures.
#
#######################################################################

data_VIYZOU
_symmetry_cell_setting           triclinic
_symmetry_space_group_name_H-M   'P -1'
_symmetry_Int_Tables_number      2
_space_group_name_Hall           '-P 1'
loop_
_symmetry_equiv_pos_site_id
_symmetry_equiv_pos_as_xyz
1 x,y,z
2 -x,-y,-z
_cell_length_a                   6.8785(14)
_cell_length_b                   9.4558(19)
_cell_length_c                   14.641(3)
_cell_angle_alpha                86.22(3)
_cell_angle_beta                 82.27(3)
_cell_angle_gamma                88.40(3)
_cell_volume                     941.395
loop_
_atom_site_label
_atom_site_type_symbol
_atom_site_fract_x
_atom_site_fract_y
_atom_site_fract_z
Ba1 Ba 0.71327(8) 0.92340(6) 0.08191(4)
Ba2 Ba 0.20891(8) 0.59984(6) 0.05271(4)
O1 O 0.4957(10) 0.6858(8) 0.1595(5)
O2 O 0.7881(10) 0.6152(7) 0.0932(5)
O3 O 0.9529(10) 1.1760(7) -0.1505(5)
O4 O 0.6854(10) 1.0735(7) -0.0768(5)
O5 O 0.9796(11) 0.6448(7) -0.1063(5)
O6 O 0.4981(11) 0.3858(8) 0.0927(5)
O7 O 0.9985(9) 0.8642(7) -0.0614(5)
O8 O 0.5783(12) 0.1698(8) 0.1459(6)
C1 C 0.5529(13) 0.2989(10) 0.1537(7)
C2 C 0.8383(14) 0.9814(10) -0.2187(7)
C3 C 0.7870(15) 1.0401(10) -0.3003(7)
H1 H 0.7495 1.1352 -0.3063
C4 C 0.7925(16) 0.9536(11) -0.3742(7)
C5 C 0.8510(15) 0.8118(11) -0.3659(7)
C6 C 0.9022(14) 0.7506(10) -0.2829(7)
H2 H 0.9384 0.6553 -0.2771
C7 C 0.8972(14) 0.8376(10) -0.2086(7)
N1 N 0.7490(15) 0.9798(10) -0.4621(6)
H3 H 0.7092 1.0589 -0.4864
C8 C 0.7812(19) 0.8566(13) -0.5029(8)
H4 H 0.7636 0.8467 -0.5640
N2 N 0.8392(14) 0.7519(9) -0.4498(6)
C9 C 0.7126(15) 0.5571(10) 0.3182(7)
H5 H 0.7511 0.6508 0.3171
C10 C 0.6534(15) 0.5026(10) 0.2405(7)
C11 C 0.6057(13) 0.3597(10) 0.2401(7)
C12 C 0.6108(14) 0.2703(10) 0.3197(7)
H6 H 0.5829 0.1746 0.3197
C13 C 0.6581(16) 0.3268(11) 0.3990(7)
C14 C 0.7126(16) 0.4693(11) 0.3963(7)
N3 N 0.7534(15) 0.4900(10) 0.4849(6)
H7 H 0.7898 0.5675 0.5045
C15 C 0.7246(17) 0.3655(12) 0.5339(8)
H8 H 0.7423 0.3524 0.5958
N4 N 0.6693(15) 0.2635(10) 0.4865(6)
C16 C 0.6474(14) 0.6060(10) 0.1568(7)
C17 C 0.8261(15) 1.0832(10) -0.1424(6)
C18 C 0.9608(13) 0.7757(10) -0.1197(7)
Ba1_2 Ba 0.71327(8) -0.07660(6) 0.08191(4)
Ba1A Ba 0.28673(8) 1.07660(6) -0.08191(4)
Ba1A_2 Ba 1.28673(8) 1.07660(6) -0.08191(4)
Ba2_2 Ba 1.20891(8) 0.59984(6) 0.05271(4)
Ba2A Ba 0.79109(8) 0.40016(6) -0.05271(4)
Ba2A_2 Ba 0.79109(8) 1.40016(6) -0.05271(4)
O2_2 O -0.2119(10) 0.6152(7) 0.0932(5)
O2A O 0.2119(10) 0.3848(7) -0.0932(5)
O3A O 0.0471(10) 0.8240(7) 0.1505(5)
O3A_2 O 1.0471(10) 0.8240(7) 0.1505(5)
O4A O 0.3146(10) 0.9265(7) 0.0768(5)
O5_2 O -0.0204(11) 0.6448(7) -0.1063(5)
O5A O 0.0204(11) 0.3552(7) 0.1063(5)
O6A O 0.5019(11) 0.6142(8) -0.0927(5)
O7A O 1.0015(9) 1.1358(7) 0.0614(5)
O8_2 O 0.5783(12) 1.1698(8) 0.1459(6)
loop_
_geom_bond_atom_site_label_1
_geom_bond_atom_site_label_2
_geom_bond_site_symmetry_1
_geom_bond_site_symmetry_2
Ba1 O1 1_555 1_555
Ba2 O1 1_555 1_555
O1 C16 1_555 1_555
O2 Ba1 1_555 1_555
O3 C17 1_555 1_555
O4 Ba1 1_555 1_555
O5 C18 1_555 1_555
O6 Ba2 1_555 1_555
O7 Ba1 1_555 1_555
O8 C1 1_555 1_555
C1 O6 1_555 1_555
C2 C3 1_555 1_555
C3 H1 1_555 1_555
C4 C3 1_555 1_555
C5 C4 1_555 1_555
C6 C5 1_555 1_555
H2 C6 1_555 1_555
C7 C2 1_555 1_555
N1 C4 1_555 1_555
H3 N1 1_555 1_555
C8 N1 1_555 1_555
H4 C8 1_555 1_555
N2 C5 1_555 1_555
C9 H5 1_555 1_555
C10 C9 1_555 1_555
C11 C1 1_555 1_555
C12 C11 1_555 1_555
H6 C12 1_555 1_555
C13 C12 1_555 1_555
C14 C9 1_555 1_555
N3 C14 1_555 1_555
H7 N3 1_555 1_555
C15 N3 1_555 1_555
H8 C15 1_555 1_555
N4 C13 1_555 1_555
C16 O2 1_555 1_555
C17 O4 1_555 1_555
C18 O7 1_555 1_555
Ba1_2 O8 1_555 1_555
Ba1A O4 1_555 1_555
Ba1A_2 O3 1_555 1_555
Ba2_2 O2 1_555 1_555
Ba2A O2 1_555 1_555
Ba2A_2 O3 1_555 1_555
O2_2 Ba2 1_555 1_555
O2A Ba2 1_555 1_555
O3A Ba2 1_555 1_555
O3A_2 Ba1 1_555 1_555
O4A Ba1 1_555 1_555
O5_2 Ba2 1_555 1_555
O5A Ba2 1_555 1_555
O6A Ba2 1_555 1_555
O7A Ba1 1_555 1_555
O8_2 Ba1 1_555 1_555
Ba2 O4A 1_555 1_555
O4 Ba2A_2 1_555 1_555
O5 Ba2_2 1_555 1_555
O5 Ba2A 1_555 1_555
O6 Ba2A 1_555 1_555
O7 Ba1A_2 1_555 1_555
C2 C17 1_555 1_555
C6 C7 1_555 1_555
C7 C18 1_555 1_555
C8 N2 1_555 1_555
C10 C11 1_555 1_555
C10 C16 1_555 1_555
C13 C14 1_555 1_555
C15 N4 1_555 1_555
Ba1A O4A 1_555 1_555
Ba1A_2 O7A 1_555 1_555
Ba2_2 O3A_2 1_555 1_555
Ba2A O6A 1_555 1_555

#END
