
#######################################################################
#
#                 Cambridge Crystallographic Data Centre
#                                CCDC 
#
#######################################################################
#
# If this CIF has been generated from an entry in the Cambridge 
# Structural Database, then it will include bibliographic, chemical, 
# crystal, experimental, refinement or atomic coordinate data resulting 
# from the CCDC's data processing and validation procedures.
#
#######################################################################

data_VIYZEJ
_symmetry_cell_setting           monoclinic
_symmetry_space_group_name_H-M   'P 21/c'
_symmetry_Int_Tables_number      14
_space_group_name_Hall           '-P 2ybc'
loop_
_symmetry_equiv_pos_site_id
_symmetry_equiv_pos_as_xyz
1 x,y,z
2 -x,1/2+y,1/2-z
3 -x,-y,-z
4 x,1/2-y,1/2+z
_cell_length_a                   11.0661(6)
_cell_length_b                   16.9926(8)
_cell_length_c                   13.9772(9)
_cell_angle_alpha                90
_cell_angle_beta                 102.210(2)
_cell_angle_gamma                90
_cell_volume                     2568.84
loop_
_atom_site_label
_atom_site_type_symbol
_atom_site_fract_x
_atom_site_fract_y
_atom_site_fract_z
Zn1 Zn 0.63440(6) 0.56886(3) 0.73365(4)
N1 N 0.7064(4) 0.4750(2) 0.6699(4)
N2 N 0.6060(4) 0.6076(3) 0.5892(3)
O1 O 0.5368(4) 0.4978(2) 0.8273(3)
O2 O 0.4395(3) 0.5868(2) 0.7290(3)
O3 O 0.7240(3) 0.64254(18) 0.8296(2)
O4 O 0.8460(4) 0.6674(2) 0.7290(3)
C1 C 0.4412(7) 0.5356(4) 0.7941(4)
C2 C 0.3258(6) 0.5233(3) 0.8346(4)
C3 C 0.2199(6) 0.5633(3) 0.7941(4)
H1 H 0.2180 0.5940 0.7388
C4 C 0.3266(6) 0.4759(3) 0.9126(4)
H2 H 0.3965 0.4463 0.9386
C5 C 0.1164(5) 0.5592(3) 0.8335(4)
H3 H 0.0454 0.5867 0.8047
C6 C 0.2231(7) 0.4714(3) 0.9537(4)
H4 H 0.2244 0.4392 1.0078
C7 C 0.1181(6) 0.5143(3) 0.9151(5)
C8 C 0.0073(6) 0.5166(3) 0.9609(4)
H5 H -0.0594 0.5460 0.9277
C9 C 0.8012(6) 0.6842(3) 0.7998(4)
C10 C 0.8470(5) 0.7579(3) 0.8568(4)
C11 C 0.8803(5) 0.8227(3) 0.8083(4)
H6 H 0.8752 0.8201 0.7411
C12 C 0.8537(4) 0.7637(3) 0.9552(4)
H7 H 0.8289 0.7214 0.9888
C13 C 0.9210(5) 0.8913(3) 0.8581(4)
H8 H 0.9413 0.9344 0.8237
C14 C 0.8966(5) 0.8313(3) 1.0055(4)
H9 H 0.9020 0.8329 1.0728
C15 C 0.9320(5) 0.8968(3) 0.9595(4)
C16 C 0.9786(5) 0.9677(2) 1.0161(4)
H10 H 0.9774 0.9666 1.0824
C17 C 0.7559(5) 0.4076(4) 0.7169(5)
C18 C 0.7795(5) 0.4027(3) 0.8168(5)
H11 H 0.7602 0.4452 0.8527
C19 C 0.8305(6) 0.3373(4) 0.8649(5)
H12 H 0.8485 0.3355 0.9329
C20 C 0.8556(6) 0.2725(4) 0.8100(7)
H13 H 0.8878 0.2270 0.8427
C21 C 0.8349(6) 0.2739(4) 0.7124(7)
H14 H 0.8532 0.2304 0.6777
C22 C 0.7849(6) 0.3425(4) 0.6632(6)
C23 C 0.7615(6) 0.3493(4) 0.5613(6)
H15 H 0.7772 0.3067 0.5241
C24 C 0.7157(5) 0.4178(4) 0.5148(4)
H16 H 0.7035 0.4225 0.4471
C25 C 0.6877(5) 0.4804(4) 0.5722(5)
C26 C 0.6362(5) 0.5547(3) 0.5278(4)
C27 C 0.6200(5) 0.5708(4) 0.4266(4)
H17 H 0.6416 0.5338 0.3841
C28 C 0.5719(6) 0.6420(4) 0.3927(5)
H18 H 0.5614 0.6537 0.3265
C29 C 0.5380(6) 0.6978(4) 0.4563(5)
C30 C 0.4857(6) 0.7706(4) 0.4245(5)
H19 H 0.4732 0.7843 0.3587
C31 C 0.4538(7) 0.8201(4) 0.4882(6)
H20 H 0.4159 0.8676 0.4664
C32 C 0.4768(6) 0.8015(4) 0.5888(5)
H21 H 0.4569 0.8375 0.6332
C33 C 0.5272(5) 0.7321(3) 0.6202(4)
H22 H 0.5411 0.7196 0.6864
C34 C 0.5587(5) 0.6785(4) 0.5544(5)
Zn1B Zn -0.63440(6) 0.43114(3) 1.26635(4)
Zn1B_2 Zn 1.36560(6) 1.43114(3) 1.26635(4)
N1B N -0.7064(4) 0.5250(2) 1.3301(4)
N2B N -0.6060(4) 0.3924(3) 1.4108(3)
O1B O -0.5368(4) 0.5022(2) 1.1727(3)
O2B O -0.4395(3) 0.4132(2) 1.2710(3)
O3B O 1.2760(3) 1.35746(18) 1.1704(2)
O3B_2 O -0.7240(3) 0.35746(18) 1.1704(2)
O4B O 1.1540(4) 1.3326(2) 1.2710(3)
C1B C -0.4412(7) 0.4644(4) 1.2059(4)
C2B C -0.3258(6) 0.4767(3) 1.1654(4)
C3B C -0.2199(6) 0.4367(3) 1.2059(4)
H1B H -0.2180 0.4060 1.2612
C4B C -0.3266(6) 0.5241(3) 1.0874(4)
H2B H -0.3965 0.5537 1.0614
C5B C -0.1164(5) 0.4408(3) 1.1665(4)
H3B H -0.0454 0.4133 1.1953
C6B C -0.2231(7) 0.5286(3) 1.0463(4)
H4B H -0.2244 0.5608 0.9922
C7B C -0.1181(6) 0.4857(3) 1.0849(5)
C8B C -0.0073(6) 0.4834(3) 1.0391(4)
H5B H 0.0594 0.4540 1.0723
C9B C 1.1988(6) 1.3158(3) 1.2002(4)
C10B C 1.1530(5) 1.2421(3) 1.1432(4)
C11B C 1.1197(5) 1.1773(3) 1.1917(4)
H6B H 1.1248 1.1799 1.2589
C12B C 1.1463(4) 1.2363(3) 1.0448(4)
H7B H 1.1711 1.2786 1.0112
C13B C 1.0790(5) 1.1087(3) 1.1419(4)
H8B H 1.0587 1.0656 1.1763
C14B C 1.1034(5) 1.1687(3) 0.9945(4)
H9B H 1.0980 1.1671 0.9272
C15B C 1.0680(5) 1.1032(3) 1.0405(4)
C16B C 1.0214(5) 1.0323(2) 0.9839(4)
H10B H 1.0226 1.0334 0.9176
C17B C -0.7559(5) 0.5924(4) 1.2831(5)
C18B C -0.7795(5) 0.5973(3) 1.1832(5)
H11B H -0.7602 0.5548 1.1473
C19B C -0.8305(6) 0.6627(4) 1.1351(5)
H12B H -0.8485 0.6645 1.0671
C20B C -0.8556(6) 0.7275(4) 1.1900(7)
H13B H -0.8878 0.7730 1.1573
C21B C -0.8349(6) 0.7261(4) 1.2876(7)
H14B H -0.8532 0.7696 1.3223
C22B C -0.7849(6) 0.6575(4) 1.3368(6)
C23B C -0.7615(6) 0.6507(4) 1.4387(6)
H15B H -0.7772 0.6933 1.4759
C24B C -0.7157(5) 0.5822(4) 1.4852(4)
H16B H -0.7035 0.5775 1.5529
C25B C -0.6877(5) 0.5196(4) 1.4278(5)
C26B C -0.6362(5) 0.4453(3) 1.4722(4)
C27B C -0.6200(5) 0.4292(4) 1.5734(4)
H17B H -0.6416 0.4662 1.6159
C28B C -0.5719(6) 0.3580(4) 1.6073(5)
H18B H -0.5614 0.3463 1.6735
C29B C -0.5380(6) 0.3022(4) 1.5437(5)
C30B C -0.4857(6) 0.2294(4) 1.5755(5)
H19B H -0.4732 0.2157 1.6413
C31B C -0.4538(7) 0.1799(4) 1.5118(6)
H20B H -0.4159 0.1324 1.5336
C32B C -0.4768(6) 0.1985(4) 1.4112(5)
H21B H -0.4569 0.1625 1.3668
C33B C -0.5272(5) 0.2679(3) 1.3798(4)
H22B H -0.5411 0.2804 1.3136
C34B C -0.5587(5) 0.3215(4) 1.4456(5)
loop_
_geom_bond_atom_site_label_1
_geom_bond_atom_site_label_2
_geom_bond_site_symmetry_1
_geom_bond_site_symmetry_2
Zn1 N1 1_555 1_555
N1 C17 1_555 1_555
N2 Zn1 1_555 1_555
O1 Zn1 1_555 1_555
O2 Zn1 1_555 1_555
O3 Zn1 1_555 1_555
O4 C9 1_555 1_555
C1 O1 1_555 1_555
C2 C1 1_555 1_555
C3 C2 1_555 1_555
H1 C3 1_555 1_555
C4 C2 1_555 1_555
H2 C4 1_555 1_555
C5 C3 1_555 1_555
H3 C5 1_555 1_555
C6 C4 1_555 1_555
H4 C6 1_555 1_555
C7 C5 1_555 1_555
C8 C7 1_555 1_555
H5 C8 1_555 1_555
C9 O3 1_555 1_555
C10 C9 1_555 1_555
C11 C10 1_555 1_555
H6 C11 1_555 1_555
C12 C10 1_555 1_555
H7 C12 1_555 1_555
C13 C11 1_555 1_555
H8 C13 1_555 1_555
C14 C12 1_555 1_555
H9 C14 1_555 1_555
C15 C13 1_555 1_555
C16 C15 1_555 1_555
H10 C16 1_555 1_555
C17 C18 1_555 1_555
C18 H11 1_555 1_555
C19 C18 1_555 1_555
H12 C19 1_555 1_555
C20 C19 1_555 1_555
H13 C20 1_555 1_555
C21 C20 1_555 1_555
H14 C21 1_555 1_555
C22 C17 1_555 1_555
C23 C22 1_555 1_555
H15 C23 1_555 1_555
C24 C23 1_555 1_555
H16 C24 1_555 1_555
C25 N1 1_555 1_555
C26 N2 1_555 1_555
C27 C26 1_555 1_555
H17 C27 1_555 1_555
C28 C27 1_555 1_555
H18 C28 1_555 1_555
C29 C28 1_555 1_555
C30 C29 1_555 1_555
H19 C30 1_555 1_555
C31 C30 1_555 1_555
H20 C31 1_555 1_555
C32 C31 1_555 1_555
H21 C32 1_555 1_555
C33 C32 1_555 1_555
H22 C33 1_555 1_555
C34 N2 1_555 1_555
Zn1B N1B 1_555 1_555
Zn1B_2 O3B 1_555 1_555
N1B C17B 1_555 1_555
N2B Zn1B 1_555 1_555
O1B Zn1B 1_555 1_555
O2B Zn1B 1_555 1_555
O3B C9B 1_555 1_555
O3B_2 Zn1B 1_555 1_555
O4B C9B 1_555 1_555
C1B O1B 1_555 1_555
C2B C1B 1_555 1_555
C3B C2B 1_555 1_555
H1B C3B 1_555 1_555
C4B C2B 1_555 1_555
H2B C4B 1_555 1_555
C5B C3B 1_555 1_555
H3B C5B 1_555 1_555
C6B C4B 1_555 1_555
H4B C6B 1_555 1_555
C7B C5B 1_555 1_555
C8B C8 1_555 1_555
H5B C8B 1_555 1_555
C9B C10B 1_555 1_555
C10B C11B 1_555 1_555
C11B H6B 1_555 1_555
C12B C10B 1_555 1_555
H7B C12B 1_555 1_555
C13B C11B 1_555 1_555
H8B C13B 1_555 1_555
C14B C12B 1_555 1_555
H9B C14B 1_555 1_555
C15B C13B 1_555 1_555
C16B C16 1_555 1_555
H10B C16B 1_555 1_555
C17B C18B 1_555 1_555
C18B H11B 1_555 1_555
C19B C18B 1_555 1_555
H12B C19B 1_555 1_555
C20B C19B 1_555 1_555
H13B C20B 1_555 1_555
C21B C20B 1_555 1_555
H14B C21B 1_555 1_555
C22B C17B 1_555 1_555
C23B C22B 1_555 1_555
H15B C23B 1_555 1_555
C24B C23B 1_555 1_555
H16B C24B 1_555 1_555
C25B N1B 1_555 1_555
C26B N2B 1_555 1_555
C27B C26B 1_555 1_555
H17B C27B 1_555 1_555
C28B C27B 1_555 1_555
H18B C28B 1_555 1_555
C29B C28B 1_555 1_555
C30B C29B 1_555 1_555
H19B C30B 1_555 1_555
C31B C30B 1_555 1_555
H20B C31B 1_555 1_555
C32B C31B 1_555 1_555
H21B C32B 1_555 1_555
C33B C32B 1_555 1_555
H22B C33B 1_555 1_555
C34B N2B 1_555 1_555
O2 C1 1_555 1_555
C6 C7 1_555 1_555
C14 C15 1_555 1_555
C21 C22 1_555 1_555
C24 C25 1_555 1_555
C25 C26 1_555 1_555
C29 C34 1_555 1_555
C33 C34 1_555 1_555
O2B C1B 1_555 1_555
C6B C7B 1_555 1_555
C7B C8B 1_555 1_555
C14B C15B 1_555 1_555
C15B C16B 1_555 1_555
C21B C22B 1_555 1_555
C24B C25B 1_555 1_555
C25B C26B 1_555 1_555
C29B C34B 1_555 1_555
C33B C34B 1_555 1_555

#END
