
#######################################################################
#
#                 Cambridge Crystallographic Data Centre
#                                CCDC 
#
#######################################################################
#
# If this CIF has been generated from an entry in the Cambridge 
# Structural Database, then it will include bibliographic, chemical, 
# crystal, experimental, refinement or atomic coordinate data resulting 
# from the CCDC's data processing and validation procedures.
#
#######################################################################

data_VIYZEK
_symmetry_cell_setting           orthorhombic
_symmetry_space_group_name_H-M   'P b c n'
_symmetry_Int_Tables_number      60
_space_group_name_Hall           '-P 2n 2ab'
loop_
_symmetry_equiv_pos_site_id
_symmetry_equiv_pos_as_xyz
1 x,y,z
2 1/2-x,1/2-y,1/2+z
3 -x,y,1/2-z
4 1/2+x,1/2-y,-z
5 -x,-y,-z
6 1/2+x,1/2+y,1/2-z
7 x,-y,1/2+z
8 1/2-x,1/2+y,z
_cell_length_a                   15.9532(15)
_cell_length_b                   14.8721(14)
_cell_length_c                   14.0829(13)
_cell_angle_alpha                90
_cell_angle_beta                 90
_cell_angle_gamma                90
_cell_volume                     3341.27
loop_
_atom_site_label
_atom_site_type_symbol
_atom_site_fract_x
_atom_site_fract_y
_atom_site_fract_z
C1 C 0.8228(2) 0.3986(2) 0.7531(2)
C2 C 0.7619(2) 0.3937(2) 0.6860(2)
H1 H 0.7628 0.3471 0.6419
C3 C 0.6984(2) 0.4569(2) 0.6822(2)
H2 H 0.6585 0.4536 0.6343
C4 C 0.6937(2) 0.5243(2) 0.7481(2)
C5 C 0.7602(2) 0.6079(2) 0.8822(3)
H3 H 0.7174 0.6503 0.8818
C6 C 0.8260(3) 0.6175(3) 0.9444(3)
H4 H 0.8278 0.6668 0.9849
C7 C 0.8894(3) 0.5543(3) 0.9471(3)
H5 H 0.9326 0.5611 0.9908
C8 C 0.8901(2) 0.4824(3) 0.8871(3)
H6 H 0.9342 0.4416 0.8893
C9 C 0.8232(2) 0.4696(2) 0.8207(2)
C10 C 0.7569(2) 0.5333(2) 0.8181(2)
C11 C 0.8889(2) 0.3253(2) 0.7536(2)
C12 C 0.6181(2) 0.5862(2) 0.7450(2)
C13 C 0.9542(3) 0.1438(3) 0.4495(3)
H7 H 0.9202 0.1030 0.4814
C14 C 0.9539(4) 0.1446(3) 0.3524(3)
H8 H 0.9214 0.1030 0.3194
C15 C 1.0009(3) 0.2060(3) 0.3031(3)
C16 C 1.0508(3) 0.2655(3) 0.3543(2)
C17 C 1.0488(3) 0.2589(3) 0.4523(2)
H9 H 1.0821 0.2983 0.4871
C18 C 1.1022(5) 0.3372(4) 0.3096(4)
H10 H 1.1523 0.3113 0.2835
H11 H 1.1169 0.3813 0.3565
H12 H 1.0705 0.3653 0.2598
N1 N 1.00224(17) 0.20014(17) 0.5000(2)
O1 O 0.91904(18) 0.30378(16) 0.6744(2)
O2 O 0.90699(18) 0.29012(17) 0.8322(2)
O3 O 0.58162(15) 0.60201(16) 0.82159(18)
O4 O 0.59717(15) 0.61452(17) 0.66397(17)
Zn1 Zn 0.99886(2) 0.20061(2) 0.64464(2)
C13B C 1.0458(3) 0.1438(3) 0.0505(3)
H7B H 1.0798 0.1030 0.0186
C14B C 1.0461(4) 0.1446(3) 0.1476(3)
H8B H 1.0786 0.1030 0.1806
C15B C 0.9991(3) 0.2060(3) 0.1969(3)
C16B C 0.9492(3) 0.2655(3) 0.1457(2)
C17B C 0.9512(3) 0.2589(3) 0.0477(2)
H9B H 0.9179 0.2983 0.0129
C18B C 0.8978(5) 0.3372(4) 0.1904(4)
H10B H 0.8477 0.3113 0.2165
H11B H 0.8831 0.3813 0.1435
H12B H 0.9295 0.3653 0.2402
N1B N 0.99776(17) 0.20014(17) 0.0000(2)
C1B C 1.1772(2) 0.3986(2) -0.2531(2)
C2B C 1.2381(2) 0.3937(2) -0.1860(2)
H1B H 1.2372 0.3471 -0.1419
C3B C 1.3016(2) 0.4569(2) -0.1822(2)
H2B H 1.3415 0.4536 -0.1343
C4B C 1.3063(2) 0.5243(2) -0.2481(2)
C5B C 1.2398(2) 0.6079(2) -0.3822(3)
H3B H 1.2826 0.6503 -0.3818
C6B C 1.1740(3) 0.6175(3) -0.4444(3)
H4B H 1.1722 0.6668 -0.4849
C7B C 1.1106(3) 0.5543(3) -0.4471(3)
H5B H 1.0674 0.5611 -0.4908
C8B C 1.1099(2) 0.4824(3) -0.3871(3)
H6B H 1.0658 0.4416 -0.3893
C9B C 1.1768(2) 0.4696(2) -0.3207(2)
C10B C 1.2431(2) 0.5333(2) -0.3181(2)
C11B C 1.1111(2) 0.3253(2) -0.2536(2)
C12B C 1.3819(2) 0.5862(2) -0.2450(2)
O1B O 1.08096(18) 0.30378(16) -0.1744(2)
O2B O 1.09301(18) 0.29012(17) -0.3322(2)
O3B O 1.41838(15) 0.60201(16) -0.32159(18)
O4B O 1.40283(15) 0.61452(17) -0.16397(17)
Zn1B Zn 1.00114(2) 0.20061(2) -0.14464(2)
O2_2 O 0.90699(18) 0.29012(17) -0.1678(2)
O2B_2 O 1.09301(18) 0.29012(17) 0.6678(2)
O3E O 1.08162(15) 0.10201(16) 0.67841(18)
O3G O 0.91838(15) 0.10201(16) -0.17841(18)
O4E O 1.09717(15) 0.11452(17) -0.16397(17)
O4G O 0.90283(15) 0.11452(17) 0.66397(17)
Zn1_2 Zn 0.99886(2) 0.20061(2) -0.35536(2)
Zn1B_2 Zn 1.00114(2) 0.20061(2) 0.85536(2)
Zn1E Zn 0.49886(2) 0.70061(2) 0.85536(2)
Zn1E_2 Zn 1.49886(2) 0.70061(2) -0.14464(2)
Zn1G Zn 0.50114(2) 0.70061(2) 0.64464(2)
Zn1G_2 Zn 1.50114(2) 0.70061(2) -0.35536(2)
loop_
_geom_bond_atom_site_label_1
_geom_bond_atom_site_label_2
_geom_bond_site_symmetry_1
_geom_bond_site_symmetry_2
C1 C2 1_555 1_555
C2 H1 1_555 1_555
C3 C2 1_555 1_555
H2 C3 1_555 1_555
C4 C3 1_555 1_555
C5 H3 1_555 1_555
C6 C5 1_555 1_555
H4 C6 1_555 1_555
C7 C6 1_555 1_555
H5 C7 1_555 1_555
C8 C7 1_555 1_555
H6 C8 1_555 1_555
C9 C1 1_555 1_555
C10 C4 1_555 1_555
C11 C1 1_555 1_555
C12 C4 1_555 1_555
C13 H7 1_555 1_555
C14 C13 1_555 1_555
H8 C14 1_555 1_555
C15 C14 1_555 1_555
C16 C15 1_555 1_555
C17 C16 1_555 1_555
H9 C17 1_555 1_555
C18 C16 1_555 1_555
H10 C18 1_555 1_555
H11 C18 1_555 1_555
H12 C18 1_555 1_555
N1 C13 1_555 1_555
O1 C11 1_555 1_555
O2 C11 1_555 1_555
O3 C12 1_555 1_555
O4 C12 1_555 1_555
Zn1 N1 1_555 1_555
C13B H7B 1_555 1_555
C14B C13B 1_555 1_555
H8B C14B 1_555 1_555
C15B C15 1_555 1_555
C16B C15B 1_555 1_555
C17B C16B 1_555 1_555
H9B C17B 1_555 1_555
C18B C16B 1_555 1_555
H10B C18B 1_555 1_555
H11B C18B 1_555 1_555
H12B C18B 1_555 1_555
N1B C13B 1_555 1_555
C1B C2B 1_555 1_555
C2B H1B 1_555 1_555
C3B C2B 1_555 1_555
H2B C3B 1_555 1_555
C4B C3B 1_555 1_555
C5B H3B 1_555 1_555
C6B C5B 1_555 1_555
H4B C6B 1_555 1_555
C7B C6B 1_555 1_555
H5B C7B 1_555 1_555
C8B C7B 1_555 1_555
H6B C8B 1_555 1_555
C9B C1B 1_555 1_555
C10B C4B 1_555 1_555
C11B C1B 1_555 1_555
C12B C4B 1_555 1_555
O1B C11B 1_555 1_555
O2B C11B 1_555 1_555
O3B C12B 1_555 1_555
O4B C12B 1_555 1_555
Zn1B N1B 1_555 1_555
O2_2 Zn1B 1_555 1_555
O2B_2 Zn1 1_555 1_555
O3E Zn1 1_555 1_555
O3G Zn1B 1_555 1_555
O4E Zn1B 1_555 1_555
O4G Zn1 1_555 1_555
Zn1_2 O2B 1_555 1_555
Zn1B_2 O2 1_555 1_555
Zn1E O3 1_555 1_555
Zn1E_2 O4B 1_555 1_555
Zn1G O4 1_555 1_555
Zn1G_2 O3B 1_555 1_555
C5 C10 1_555 1_555
C8 C9 1_555 1_555
C9 C10 1_555 1_555
C17 N1 1_555 1_555
O1 Zn1 1_555 1_555
C14B C15B 1_555 1_555
C17B N1B 1_555 1_555
C5B C10B 1_555 1_555
C8B C9B 1_555 1_555
C9B C10B 1_555 1_555
O1B Zn1B 1_555 1_555

#END
