
#######################################################################
#
#                 Cambridge Crystallographic Data Centre
#                                CCDC 
#
#######################################################################
#
# If this CIF has been generated from an entry in the Cambridge 
# Structural Database, then it will include bibliographic, chemical, 
# crystal, experimental, refinement or atomic coordinate data resulting 
# from the CCDC's data processing and validation procedures.
#
#######################################################################

data_VIZCEN
_symmetry_cell_setting           triclinic
_symmetry_space_group_name_H-M   'P -1'
_symmetry_Int_Tables_number      2
_space_group_name_Hall           '-P 1'
loop_
_symmetry_equiv_pos_site_id
_symmetry_equiv_pos_as_xyz
1 x,y,z
2 -x,-y,-z
_cell_length_a                   7.4889(4)
_cell_length_b                   11.0496(5)
_cell_length_c                   11.5924(5)
_cell_angle_alpha                116.319(4)
_cell_angle_beta                 90.635(4)
_cell_angle_gamma                108.260(4)
_cell_volume                     803.75
loop_
_atom_site_label
_atom_site_type_symbol
_atom_site_fract_x
_atom_site_fract_y
_atom_site_fract_z
Cu1 Cu 0.42695(3) 0.35207(2) 0.742574(19)
N1 N 0.3356(2) 0.13783(16) 0.61227(14)
N2 N 0.3112(2) 0.35686(17) 0.59090(15)
C1 C 0.1713(3) -0.0387(2) 0.39571(19)
N3 N 0.6143(2) 0.32983(18) 0.84801(15)
N4 N 1.1908(2) 0.33344(18) 0.85129(16)
N5 N 0.9104(5) 0.3396(5) 1.1874(3)
N6 N 0.5454(3) 0.56340(18) 0.83649(17)
N7 N 0.9217(3) 0.9940(2) 1.14833(18)
N8 N 0.5622(4) 0.9471(3) 0.8137(3)
C2 C 0.3486(3) 0.0327(2) 0.6362(2)
C3 C 0.2733(3) -0.1110(2) 0.5431(2)
C4 C 0.1831(3) -0.1468(2) 0.4221(2)
C5 C 0.2482(2) 0.10225(19) 0.49333(17)
C6 C 0.2396(3) 0.2280(2) 0.48590(17)
N9 N 0.1592(3) 0.2385(2) 0.38864(17)
C7 C 0.1783(4) 0.3788(3) 0.4330(2)
C8 C 0.2738(4) 0.4523(2) 0.5585(2)
C9 C 0.8993(3) 0.3243(2) 0.96259(18)
C10 C 0.7402(2) 0.32690(18) 0.90176(17)
C11 C 1.0609(3) 0.32915(18) 0.90279(17)
C12 C 0.9039(4) 0.3315(4) 1.0861(2)
C13 C 0.6053(3) 0.6870(2) 0.88469(18)
C14 C 0.6745(3) 0.83628(19) 0.93894(18)
C15 C 0.8104(3) 0.9228(2) 1.05446(19)
C16 C 0.6121(3) 0.8993(2) 0.8713(2)
H1 H 0.406(3) 0.060(2) 0.719(2)
H2 H 0.319(3) 0.548(3) 0.617(2)
H3 H 0.120(3) -0.057(2) 0.318(2)
H4 H 0.137(3) 0.411(2) 0.382(2)
H5 H 0.283(4) -0.185(3) 0.568(3)
H6 H 0.095(4) 0.169(3) 0.316(3)
H7 H 0.135(3) -0.242(3) 0.358(2)
Cu1_2 Cu 1.42695(3) 0.35207(2) 0.742574(19)
N4_2 N 0.1908(2) 0.33344(18) 0.85129(16)
loop_
_geom_bond_atom_site_label_1
_geom_bond_atom_site_label_2
_geom_bond_site_symmetry_1
_geom_bond_site_symmetry_2
Cu1 N1 1_555 1_555
N1 C2 1_555 1_555
N2 Cu1 1_555 1_555
C1 C4 1_555 1_555
N3 Cu1 1_555 1_555
N4 C11 1_555 1_555
N5 C12 1_555 1_555
N6 Cu1 1_555 1_555
N7 C15 1_555 1_555
N8 C16 1_555 1_555
C2 C3 1_555 1_555
C3 C4 1_555 1_555
C4 H7 1_555 1_555
C5 N1 1_555 1_555
C6 N2 1_555 1_555
N9 C6 1_555 1_555
C7 N9 1_555 1_555
C8 N2 1_555 1_555
C9 C10 1_555 1_555
C10 N3 1_555 1_555
C11 C9 1_555 1_555
C12 C9 1_555 1_555
C13 N6 1_555 1_555
C14 C13 1_555 1_555
C15 C14 1_555 1_555
C16 C14 1_555 1_555
H1 C2 1_555 1_555
H2 C8 1_555 1_555
H3 C1 1_555 1_555
H4 C7 1_555 1_555
H5 C3 1_555 1_555
H6 N9 1_555 1_555
Cu1_2 N4 1_555 1_555
N4_2 Cu1 1_555 1_555
C1 C5 1_555 1_555
C5 C6 1_555 1_555
C7 C8 1_555 1_555

#END
