
#######################################################################
#
#                 Cambridge Crystallographic Data Centre
#                                CCDC 
#
#######################################################################
#
# If this CIF has been generated from an entry in the Cambridge 
# Structural Database, then it will include bibliographic, chemical, 
# crystal, experimental, refinement or atomic coordinate data resulting 
# from the CCDC's data processing and validation procedures.
#
#######################################################################

data_VIZDIS
_symmetry_cell_setting           triclinic
_symmetry_space_group_name_H-M   'P -1'
_symmetry_Int_Tables_number      2
_space_group_name_Hall           '-P 1'
loop_
_symmetry_equiv_pos_site_id
_symmetry_equiv_pos_as_xyz
1 x,y,z
2 -x,-y,-z
_cell_length_a                   8.0255(7)
_cell_length_b                   8.4925(8)
_cell_length_c                   9.8866(9)
_cell_angle_alpha                68.130(7)
_cell_angle_beta                 85.256(7)
_cell_angle_gamma                85.432(7)
_cell_volume                     622.33
loop_
_atom_site_label
_atom_site_type_symbol
_atom_site_fract_x
_atom_site_fract_y
_atom_site_fract_z
C1 C 0.5886(2) 0.9918(2) 0.22131(19)
C2 C 0.6157(2) 1.1543(2) 0.2101(2)
H1 H 0.5687 1.1983 0.2787
C3 C 0.7168(2) 1.2491(2) 0.0914(2)
H2 H 0.7363 1.3606 0.0780
C4 C 0.7894(2) 1.1795(2) -0.0081(2)
H3 H 0.8582 1.2448 -0.0859
C5 C 0.7614(2) 1.0147(2) 0.0064(2)
H4 H 0.8105 0.9687 -0.0601
C6 C 0.6580(2) 0.9213(2) 0.1229(2)
C7 C 0.6054(2) 0.7442(2) 0.1602(2)
C8 C 0.0967(2) 0.2749(3) 0.2271(2)
H5 H 0.0909 0.1723 0.2068
H6 H 0.0142 0.3586 0.1712
C9 C 0.0604(2) 0.2373(2) 0.3874(2)
H7 H -0.0510 0.1951 0.4154
H8 H 0.1396 0.1487 0.4422
C10 C -0.0692(2) 0.5137(2) 0.3686(2)
H9 H -0.1747 0.4608 0.4059
H10 H -0.0643 0.5517 0.2630
C11 C 0.0600(2) 0.3353(2) 0.5866(2)
H11 H 0.1511 0.2530 0.6270
H12 H -0.0446 0.2811 0.6256
N1 N 0.50115(19) 0.69325(19) 0.28236(17)
N2 N 0.07095(18) 0.38844(19) 0.42605(17)
O1 O 0.65152(17) 0.65476(16) 0.08962(15)
O2 O 0.53709(17) 0.78433(16) 0.49343(14)
O3 O 0.29168(16) 0.89339(17) 0.35099(15)
O4 O 0.259131(15) 0.338062(15) 0.186419(13)
H13 H 0.2890 0.3374 0.1053
S1 S 0.465622(15) 0.838819(15) 0.352837(13)
Ag1 Ag 0.326366(15) 0.497353(15) 0.335999(13)
C1A C 0.4114(2) 0.0082(2) 0.77869(19)
C2A C 0.3843(2) -0.1543(2) 0.7899(2)
H1A H 0.4313 -0.1983 0.7213
C3A C 0.2832(2) -0.2491(2) 0.9086(2)
H2A H 0.2637 -0.3606 0.9220
C4A C 0.2106(2) -0.1795(2) 1.0081(2)
H3A H 0.1418 -0.2448 1.0859
C5A C 0.2386(2) -0.0147(2) 0.9936(2)
H4A H 0.1895 0.0313 1.0601
C6A C 0.3420(2) 0.0787(2) 0.8771(2)
C7A C 0.3946(2) 0.2558(2) 0.8398(2)
C8A C -0.0967(2) 0.7251(3) 0.7729(2)
H5A H -0.0909 0.8277 0.7932
H6A H -0.0142 0.6414 0.8288
C9A C -0.0604(2) 0.7627(2) 0.6126(2)
H7A H 0.0510 0.8049 0.5846
H8A H -0.1396 0.8513 0.5578
C10A C 0.0692(2) 0.4863(2) 0.6314(2)
H9A H 0.1747 0.5392 0.5941
H10A H 0.0643 0.4483 0.7370
C11A C -0.0600(2) 0.6647(2) 0.4134(2)
H11A H -0.1511 0.7470 0.3730
H12A H 0.0446 0.7189 0.3744
N1A N 0.49885(19) 0.30675(19) 0.71764(17)
N2A N -0.07095(18) 0.61156(19) 0.57395(17)
N2A_2 N 0.92905(18) 0.61156(19) 0.57395(17)
O1A O 0.34848(17) 0.34524(16) 0.91038(15)
O2A O 0.46291(17) 0.21567(16) 0.50657(14)
O3A O 0.70832(16) 0.10661(17) 0.64901(15)
O4A O -0.259131(15) 0.661938(15) 0.813581(13)
O4A_2 O 0.740869(15) 0.661938(15) 0.813581(13)
H13A H -0.2890 0.6626 0.8947
H13A_2 H 0.7110 0.6626 0.8947
S1A S 0.534378(15) 0.161181(15) 0.647163(13)
Ag1A Ag 0.673634(15) 0.502647(15) 0.664001(13)
Ag1A_2 Ag -0.326366(15) 0.502647(15) 0.664001(13)
loop_
_geom_bond_atom_site_label_1
_geom_bond_atom_site_label_2
_geom_bond_site_symmetry_1
_geom_bond_site_symmetry_2
C1 C2 1_555 1_555
C2 H1 1_555 1_555
C3 C2 1_555 1_555
H2 C3 1_555 1_555
C4 C3 1_555 1_555
H3 C4 1_555 1_555
C5 C4 1_555 1_555
H4 C5 1_555 1_555
C6 C1 1_555 1_555
C7 C6 1_555 1_555
C8 H5 1_555 1_555
H6 C8 1_555 1_555
C9 C8 1_555 1_555
H7 C9 1_555 1_555
H8 C9 1_555 1_555
C10 H9 1_555 1_555
H10 C10 1_555 1_555
C11 H11 1_555 1_555
H12 C11 1_555 1_555
N1 C7 1_555 1_555
N2 C9 1_555 1_555
O1 C7 1_555 1_555
O2 S1 1_555 1_555
O3 S1 1_555 1_555
O4 C8 1_555 1_555
H13 O4 1_555 1_555
S1 C1 1_555 1_555
Ag1 N1 1_555 1_555
C1A C2A 1_555 1_555
C2A H1A 1_555 1_555
C3A C2A 1_555 1_555
H2A C3A 1_555 1_555
C4A C3A 1_555 1_555
H3A C4A 1_555 1_555
C5A C4A 1_555 1_555
H4A C5A 1_555 1_555
C6A C1A 1_555 1_555
C7A C6A 1_555 1_555
C8A H5A 1_555 1_555
H6A C8A 1_555 1_555
C9A C8A 1_555 1_555
H7A C9A 1_555 1_555
H8A C9A 1_555 1_555
C10A C11 1_555 1_555
H9A C10A 1_555 1_555
H10A C10A 1_555 1_555
C11A C10 1_555 1_555
H11A C11A 1_555 1_555
H12A C11A 1_555 1_555
N1A C7A 1_555 1_555
N2A C9A 1_555 1_555
N2A_2 Ag1A 1_555 1_555
O1A C7A 1_555 1_555
O2A Ag1 1_555 1_555
O3A S1A 1_555 1_555
O4A C8A 1_555 1_555
O4A_2 H13A_2 1_555 1_555
H13A O4A 1_555 1_555
S1A C1A 1_555 1_555
Ag1A O2 1_555 1_555
Ag1A_2 N2A 1_555 1_555
C5 C6 1_555 1_555
C10 N2 1_555 1_555
C11 N2 1_555 1_555
N1 S1 1_555 1_555
N2 Ag1 1_555 1_555
O4 Ag1 1_555 1_555
C5A C6A 1_555 1_555
C10A N2A 1_555 1_555
C11A N2A 1_555 1_555
N1A S1A 1_555 1_555
N1A Ag1A 1_555 1_555
O2A S1A 1_555 1_555
O4A Ag1A_2 1_555 1_555
O4A_2 Ag1A 1_555 1_555

#END
