
#######################################################################
#
#                 Cambridge Crystallographic Data Centre
#                                CCDC 
#
#######################################################################
#
# If this CIF has been generated from an entry in the Cambridge 
# Structural Database, then it will include bibliographic, chemical, 
# crystal, experimental, refinement or atomic coordinate data resulting 
# from the CCDC's data processing and validation procedures.
#
#######################################################################

data_VIZPUR
_symmetry_cell_setting           trigonal
_symmetry_space_group_name_H-M   'P -3 1 c'
_symmetry_Int_Tables_number      163
_space_group_name_Hall           "-P 3 2'c"
loop_
_symmetry_equiv_pos_site_id
_symmetry_equiv_pos_as_xyz
1 x,y,z
2 -y,x-y,z
3 -x+y,-x,z
4 -y,-x,1/2-z
5 -x+y,y,1/2-z
6 x,x-y,1/2-z
7 -x,-y,-z
8 y,-x+y,-z
9 x-y,x,-z
10 y,x,1/2+z
11 x-y,-y,1/2+z
12 -x,-x+y,1/2+z
_cell_length_a                   14.620(2)
_cell_length_b                   14.620(2)
_cell_length_c                   11.698(2)
_cell_angle_alpha                90
_cell_angle_beta                 90
_cell_angle_gamma                120
_cell_volume                     2165.39
loop_
_atom_site_label
_atom_site_type_symbol
_atom_site_fract_x
_atom_site_fract_y
_atom_site_fract_z
Ti1 Ti 0.3333 0.6667 0.51125(4)
O1 O 0.39190(8) 0.79703(8) 0.58390(10)
C1 C 0.44507(10) 0.89575(11) 0.54156(13)
C2 C 0.44266(11) 0.97693(12) 0.60060(13)
H1 H 0.4044 0.9619 0.6683
C3 C 0.50389(10) 0.91996(10) 0.43936(14)
C4 C 0.51300(11) 0.83683(11) 0.37610(14)
O2 O 0.45479(8) 0.74097(8) 0.39857(10)
O3 O 0.58407(9) 0.86734(8) 0.29910(11)
O1F O 0.60810(8) 1.20297(8) 0.41610(10)
C1F C 0.55493(10) 1.10425(11) 0.45844(13)
C2F C 0.55734(11) 1.02307(12) 0.39940(13)
H1F H 0.5956 1.0381 0.3317
C3F C 0.49611(10) 1.08004(10) 0.56064(14)
C4F C 0.48700(11) 1.16317(11) 0.62390(14)
O2F O 0.54521(8) 1.25903(8) 0.60143(10)
O3F O 0.41593(9) 1.13266(8) 0.70090(11)
O1A O 0.20297(8) 0.59487(11) 0.58390(10)
C1A C 0.10425(11) 0.54932(15) 0.54156(13)
C2A C 0.02307(12) 0.46573(16) 0.60060(13)
H1A H 0.0381 0.4425 0.6683
C3A C 0.08004(10) 0.58393(14) 0.43936(14)
C4A C 0.16317(11) 0.67617(16) 0.37610(14)
O2A O 0.25903(8) 0.71382(11) 0.39857(10)
O3A O 0.13266(8) 0.71673(12) 0.29910(11)
O1G O -0.20297(8) 0.40513(11) 0.41610(10)
C1G C -0.10425(11) 0.45068(15) 0.45844(13)
C2G C -0.02307(12) 0.53427(16) 0.39940(13)
H1G H -0.0381 0.5575 0.3317
C3G C -0.08004(10) 0.41607(14) 0.56064(14)
C4G C -0.16317(11) 0.32383(16) 0.62390(14)
O2G O -0.25903(8) 0.28618(11) 0.60143(10)
O3G O -0.13266(8) 0.28327(12) 0.70090(11)
O1B O 0.40513(11) 0.60810(8) 0.58390(10)
C1B C 0.45068(15) 0.55493(10) 0.54156(13)
C2B C 0.53427(16) 0.55734(11) 0.60060(13)
H1B H 0.5575 0.5956 0.6683
C3B C 0.41607(14) 0.49611(10) 0.43936(14)
C4B C 0.32383(16) 0.48700(11) 0.37610(14)
O2B O 0.28618(11) 0.54521(8) 0.39857(10)
O3B O 0.28327(12) 0.41593(9) 0.29910(11)
O1H O 0.59487(11) 0.39190(8) 0.41610(10)
C1H C 0.54932(15) 0.44507(10) 0.45844(13)
C2H C 0.46573(16) 0.44266(11) 0.39940(13)
H1H H 0.4425 0.4044 0.3317
C3H C 0.58393(14) 0.50389(10) 0.56064(14)
C4H C 0.67617(16) 0.51300(11) 0.62390(14)
O2H O 0.71382(11) 0.45479(8) 0.60143(10)
O3H O 0.71673(12) 0.58407(9) 0.70090(11)
Ti1F Ti 0.6667 1.3333 0.48875(4)
Ti1F_2 Ti -0.3333 0.3333 0.48875(4)
Ti1F_3 Ti 0.6667 0.3333 0.48875(4)
O1G_2 O 0.79703(8) 1.40513(11) 0.41610(10)
O1H_2 O 0.59487(11) 1.39190(8) 0.41610(10)
O2G_2 O 0.74097(8) 1.28618(11) 0.60143(10)
O2H_2 O 0.71382(11) 1.45479(8) 0.60143(10)
loop_
_geom_bond_atom_site_label_1
_geom_bond_atom_site_label_2
_geom_bond_site_symmetry_1
_geom_bond_site_symmetry_2
Ti1 O1 1_555 1_555
O1 C1 1_555 1_555
C1 C2 1_555 1_555
C2 H1 1_555 1_555
C3 C1 1_555 1_555
C4 C3 1_555 1_555
O2 Ti1 1_555 1_555
O3 C4 1_555 1_555
O1F C1F 1_555 1_555
C1F C2F 1_555 1_555
C2F C3 1_555 1_555
H1F C2F 1_555 1_555
C3F C2 1_555 1_555
C4F C3F 1_555 1_555
O2F C4F 1_555 1_555
O3F C4F 1_555 1_555
O1A Ti1 1_555 1_555
C1A O1A 1_555 1_555
C2A C1A 1_555 1_555
H1A C2A 1_555 1_555
C3A C1A 1_555 1_555
C4A C3A 1_555 1_555
O2A Ti1 1_555 1_555
O3A C4A 1_555 1_555
O1G C1G 1_555 1_555
C1G C2G 1_555 1_555
C2G C3A 1_555 1_555
H1G C2G 1_555 1_555
C3G C2A 1_555 1_555
C4G C3G 1_555 1_555
O2G C4G 1_555 1_555
O3G C4G 1_555 1_555
O1B Ti1 1_555 1_555
C1B O1B 1_555 1_555
C2B C1B 1_555 1_555
H1B C2B 1_555 1_555
C3B C1B 1_555 1_555
C4B C3B 1_555 1_555
O2B Ti1 1_555 1_555
O3B C4B 1_555 1_555
O1H C1H 1_555 1_555
C1H C2H 1_555 1_555
C2H C3B 1_555 1_555
H1H C2H 1_555 1_555
C3H C2B 1_555 1_555
C4H C3H 1_555 1_555
O2H C4H 1_555 1_555
O3H C4H 1_555 1_555
Ti1F O1F 1_555 1_555
Ti1F_2 O1G 1_555 1_555
Ti1F_3 O1H 1_555 1_555
O1G_2 Ti1F 1_555 1_555
O1H_2 Ti1F 1_555 1_555
O2G_2 Ti1F 1_555 1_555
O2H_2 Ti1F 1_555 1_555
C4 O2 1_555 1_555
C1F C3F 1_555 1_555
O2F Ti1F 1_555 1_555
C4A O2A 1_555 1_555
C1G C3G 1_555 1_555
O2G Ti1F_2 1_555 1_555
C4B O2B 1_555 1_555
C1H C3H 1_555 1_555
O2H Ti1F_3 1_555 1_555

#END
