
#######################################################################
#
#                 Cambridge Crystallographic Data Centre
#                                CCDC 
#
#######################################################################
#
# If this CIF has been generated from an entry in the Cambridge 
# Structural Database, then it will include bibliographic, chemical, 
# crystal, experimental, refinement or atomic coordinate data resulting 
# from the CCDC's data processing and validation procedures.
#
#######################################################################

data_VIZQOM
_symmetry_cell_setting           tetragonal
_symmetry_space_group_name_H-M   'I 41/a'
_symmetry_Int_Tables_number      88
_space_group_name_Hall           '-I 4ad'
loop_
_symmetry_equiv_pos_site_id
_symmetry_equiv_pos_as_xyz
1 x,y,z
2 3/4-y,1/4+x,1/4+z
3 1/2-x,-y,1/2+z
4 3/4+y,3/4-x,3/4+z
5 1/2+x,1/2+y,1/2+z
6 1/4-y,3/4+x,3/4+z
7 -x,1/2-y,z
8 1/4+y,1/4-x,1/4+z
9 -x,-y,-z
10 1/4+y,3/4-x,3/4-z
11 1/2+x,y,1/2-z
12 1/4-y,1/4+x,1/4-z
13 1/2-x,1/2-y,1/2-z
14 3/4+y,1/4-x,1/4-z
15 x,1/2+y,-z
16 3/4-y,3/4+x,3/4-z
_cell_length_a                   25.370(10)
_cell_length_b                   25.370(10)
_cell_length_c                   15.204(3)
_cell_angle_alpha                90
_cell_angle_beta                 90
_cell_angle_gamma                90
_cell_volume                     9785.86
loop_
_atom_site_label
_atom_site_type_symbol
_atom_site_fract_x
_atom_site_fract_y
_atom_site_fract_z
Co1 Co 0.43655(5) 0.09547(5) 0.44319(9)
O1 O 0.3611(3) 0.0643(3) 0.4561(5)
O2 O 0.4643(2) 0.0354(2) 0.5262(4)
O3 O 0.4199(3) 0.1414(3) 0.5644(5)
N1 N 0.5145(3) 0.1186(3) 0.4254(5)
O4 O 0.4415(3) 0.0547(3) 0.3187(5)
N2 N 0.4004(3) 0.1568(3) 0.3753(5)
C1 C 0.3435(4) 0.0177(4) 0.4426(7)
Co2 Co 0.45090(5) -0.02999(5) 0.45411(9)
N3 N 0.5558(3) 0.0967(3) 0.4747(6)
C2 C 0.5399(4) 0.1492(4) 0.3674(7)
O5 O 0.3696(3) -0.0233(3) 0.4405(5)
C3 C 0.2842(4) 0.0154(4) 0.4300(6)
O6 O 0.4631(3) -0.0317(3) 0.3240(5)
C4 C 0.6006(4) 0.1175(4) 0.4461(7)
N4 N 0.5137(3) 0.1782(4) 0.3024(7)
C5 C 0.2542(4) 0.0613(4) 0.4284(7)
C6 C 0.2594(4) -0.0338(4) 0.4242(9)
H1 H 0.6332 0.1107 0.4713
H2 H 0.4800 0.1768 0.2985
H3 H 0.5314 0.1974 0.2664
C7 C 0.2001(4) 0.0587(4) 0.4176(7)
H4 H 0.2706 0.0938 0.4346
H5 H 0.2788 -0.0648 0.4272
C8 C 0.2037(4) -0.0351(4) 0.4134(8)
C9 C 0.1754(4) 0.0111(5) 0.4092(7)
H6 H 0.1804 0.0896 0.4160
H7 H 0.1863 -0.0673 0.4093
S1 S 0.10511(10) 0.00771(14) 0.3976(2)
O7 O 0.0868(3) 0.0570(4) 0.3611(6)
O8 O 0.0926(3) -0.0396(4) 0.3530(6)
C10 C 0.0829(4) 0.0018(5) 0.5074(7)
C11 C 0.0776(5) -0.0479(5) 0.5449(8)
C12 C 0.0738(5) 0.0461(5) 0.5534(8)
C13 C 0.0654(5) -0.0506(4) 0.6324(8)
H8 H 0.0822 -0.0783 0.5116
H9 H 0.0758 0.0788 0.5258
C14 C 0.0609(5) 0.0429(5) 0.6443(8)
C15 C 0.0571(4) -0.0063(4) 0.6826(7)
H10 H 0.0625 -0.0835 0.6588
H11 H 0.0551 0.0732 0.6773
C16 C 0.0501(4) -0.0121(5) 0.7822(7)
Co2H Co 0.54910(5) 0.02999(5) 0.54589(9)
O2H O 0.5357(2) -0.0354(2) 0.4738(4)
N3H N 0.4442(3) -0.0967(3) 0.5253(6)
N2O N 0.5932(3) 0.1504(3) 0.3747(5)
Co1O Co 0.65453(5) 0.18655(5) 0.30681(9)
O6B O 0.0369(3) 0.0317(3) 0.8240(5)
O4B O 0.0585(3) -0.0547(3) 0.8187(5)
Co2B Co 0.04910(5) 0.02999(5) 0.95411(9)
Co1B Co 0.06345(5) -0.09547(5) 0.94319(9)
loop_
_geom_bond_atom_site_label_1
_geom_bond_atom_site_label_2
_geom_bond_site_symmetry_1
_geom_bond_site_symmetry_2
Co1 O1 1_555 1_555
O1 C1 1_555 1_555
O2 Co1 1_555 1_555
O3 Co1 1_555 1_555
N1 Co1 1_555 1_555
O4 Co1 1_555 1_555
N2 Co1 1_555 1_555
C1 O5 1_555 1_555
Co2 O2 1_555 1_555
N3 N1 1_555 1_555
C2 N1 1_555 1_555
O5 Co2 1_555 1_555
C3 C1 1_555 1_555
O6 Co2 1_555 1_555
C4 N3 1_555 1_555
N4 C2 1_555 1_555
C5 C3 1_555 1_555
C6 C3 1_555 1_555
H1 C4 1_555 1_555
H2 N4 1_555 1_555
H3 N4 1_555 1_555
C7 C5 1_555 1_555
H4 C5 1_555 1_555
H5 C6 1_555 1_555
C8 C6 1_555 1_555
C9 C7 1_555 1_555
H6 C7 1_555 1_555
H7 C8 1_555 1_555
S1 C9 1_555 1_555
O7 S1 1_555 1_555
O8 S1 1_555 1_555
C10 S1 1_555 1_555
C11 C10 1_555 1_555
C12 C10 1_555 1_555
C13 C11 1_555 1_555
H8 C11 1_555 1_555
H9 C12 1_555 1_555
C14 C12 1_555 1_555
C15 C13 1_555 1_555
H10 C13 1_555 1_555
H11 C14 1_555 1_555
C16 C15 1_555 1_555
Co2H O2 1_555 1_555
O2H Co2 1_555 1_555
N3H Co2 1_555 1_555
N2O C2 1_555 1_555
Co1O N2O 1_555 1_555
O6B C16 1_555 1_555
O4B C16 1_555 1_555
Co2B O6B 1_555 1_555
Co1B O4B 1_555 1_555
N3 Co2H 1_555 1_555
C4 N2O 1_555 1_555
C8 C9 1_555 1_555
C14 C15 1_555 1_555
Co2H O2H 1_555 1_555

#END
