
#######################################################################
#
#                 Cambridge Crystallographic Data Centre
#                                CCDC 
#
#######################################################################
#
# If this CIF has been generated from an entry in the Cambridge 
# Structural Database, then it will include bibliographic, chemical, 
# crystal, experimental, refinement or atomic coordinate data resulting 
# from the CCDC's data processing and validation procedures.
#
#######################################################################

data_VIZQUS
_symmetry_cell_setting           monoclinic
_symmetry_space_group_name_H-M   'C 2/c'
_symmetry_Int_Tables_number      15
_space_group_name_Hall           '-C 2yn'
loop_
_symmetry_equiv_pos_site_id
_symmetry_equiv_pos_as_xyz
1 x,y,z
2 -x,y,1/2-z
3 1/2+x,1/2+y,z
4 1/2-x,1/2+y,1/2-z
5 -x,-y,-z
6 x,-y,1/2+z
7 1/2-x,1/2-y,-z
8 1/2+x,1/2-y,1/2+z
_cell_length_a                   23.564(5)
_cell_length_b                   7.1412(14)
_cell_length_c                   32.254(7)
_cell_angle_alpha                90
_cell_angle_beta                 105.50(3)
_cell_angle_gamma                90
_cell_volume                     5230.15
loop_
_atom_site_label
_atom_site_type_symbol
_atom_site_fract_x
_atom_site_fract_y
_atom_site_fract_z
H1 H 0.730(2) 0.574(7) 0.3492(15)
H2 H 0.707(3) 0.725(8) 0.3591(19)
Co1 Co 0.67448(2) 0.49331(7) 0.403445(15)
S1 S 0.64242(5) 0.12417(19) 0.17217(3)
S2 S 0.86245(5) 0.62699(17) 0.49576(4)
O1 O 0.42062(12) -0.5055(4) 0.13261(9)
O2 O 0.37410(12) -0.2547(4) 0.10113(9)
O3 O 0.68625(14) 0.0217(5) 0.15767(9)
O4 O 0.62733(15) 0.3118(5) 0.15694(10)
O5 O 0.74499(13) -0.0175(4) 0.38389(8)
O6 O 0.69525(15) 0.2393(4) 0.38691(9)
O7 O 0.70267(16) 0.6230(6) 0.35302(11)
N1 N 0.75994(14) 0.5527(5) 0.44836(10)
N2 N 0.69193(16) 0.4198(5) 0.53455(10)
N3 N 0.65842(14) 0.4216(4) 0.46244(9)
C1 C 0.42021(19) -0.3359(6) 0.12264(12)
C2 C 0.47612(18) -0.2212(6) 0.13620(12)
C3 C 0.53032(19) -0.3086(6) 0.14934(14)
H3 H 0.5323 -0.4386 0.1506
C4 C 0.58152(19) -0.2045(7) 0.16056(14)
H4 H 0.6180 -0.2631 0.1691
C5 C 0.57740(18) -0.0111(7) 0.15882(12)
C6 C 0.5241(2) 0.0787(7) 0.14680(15)
H5 H 0.5221 0.2088 0.1466
C7 C 0.47285(19) -0.0283(6) 0.13484(15)
H6 H 0.4364 0.0304 0.1259
C8 C 0.66480(18) 0.1270(6) 0.22900(12)
C9 C 0.71339(19) 0.0235(6) 0.25059(13)
H7 H 0.7350 -0.0451 0.2356
C10 C 0.72910(19) 0.0247(6) 0.29530(13)
H8 H 0.7618 -0.0435 0.3103
C11 C 0.69697(17) 0.1256(5) 0.31778(12)
C12 C 0.64922(19) 0.2297(7) 0.29558(14)
H9 H 0.6279 0.2994 0.3106
C13 C 0.6329(2) 0.2311(7) 0.25096(15)
H10 H 0.6007 0.3014 0.2360
C14 C 0.71358(18) 0.1157(6) 0.36626(13)
C15 C 0.81158(19) 0.6124(6) 0.44712(14)
H11 H 0.8201 0.6449 0.4215
C16 C 0.81146(18) 0.5463(6) 0.52030(13)
H12 H 0.8182 0.5266 0.5497
C17 C 0.75985(17) 0.5151(5) 0.49066(11)
C18 C 0.70411(17) 0.4504(5) 0.49631(11)
C19 C 0.63299(19) 0.3660(6) 0.52472(13)
C20 C 0.61274(19) 0.3659(5) 0.47970(13)
C21 C 0.5550(2) 0.3144(6) 0.45949(16)
H13 H 0.5406 0.3150 0.4297
C22 C 0.5202(2) 0.2623(7) 0.48587(19)
H14 H 0.4815 0.2255 0.4735
C23 C 0.5412(3) 0.2634(8) 0.53002(19)
H15 H 0.5161 0.2270 0.5464
C24 C 0.5973(2) 0.3154(7) 0.55083(16)
H16 H 0.6107 0.3169 0.5807
Co1A Co 0.32552(2) -0.50669(7) 0.096555(15)
O1A O 0.57938(12) 0.4945(4) 0.36739(9)
O2A O 0.62590(12) 0.7453(4) 0.39887(9)
loop_
_geom_bond_atom_site_label_1
_geom_bond_atom_site_label_2
_geom_bond_site_symmetry_1
_geom_bond_site_symmetry_2
H1 O7 1_555 1_555
H2 O7 1_555 1_555
Co1 O6 1_555 1_555
S1 O3 1_555 1_555
S2 C15 1_555 1_555
O1 C1 1_555 1_555
O2 C1 1_555 1_555
O4 S1 1_555 1_555
O5 C14 1_555 1_555
O6 C14 1_555 1_555
O7 Co1 1_555 1_555
N1 Co1 1_555 1_555
N2 C18 1_555 1_555
N3 Co1 1_555 1_555
C1 C2 1_555 1_555
C2 C3 1_555 1_555
C3 H3 1_555 1_555
C4 C3 1_555 1_555
H4 C4 1_555 1_555
C5 S1 1_555 1_555
C6 C5 1_555 1_555
H5 C6 1_555 1_555
C7 C2 1_555 1_555
H6 C7 1_555 1_555
C8 S1 1_555 1_555
C9 C8 1_555 1_555
H7 C9 1_555 1_555
C10 C9 1_555 1_555
H8 C10 1_555 1_555
C11 C10 1_555 1_555
C12 C11 1_555 1_555
H9 C12 1_555 1_555
C13 C8 1_555 1_555
H10 C13 1_555 1_555
C14 C11 1_555 1_555
C15 N1 1_555 1_555
H11 C15 1_555 1_555
C16 S2 1_555 1_555
H12 C16 1_555 1_555
C17 N1 1_555 1_555
C18 N3 1_555 1_555
C19 N2 1_555 1_555
C20 N3 1_555 1_555
C21 C20 1_555 1_555
H13 C21 1_555 1_555
C22 C21 1_555 1_555
H14 C22 1_555 1_555
C23 C22 1_555 1_555
H15 C23 1_555 1_555
C24 C19 1_555 1_555
H16 C24 1_555 1_555
Co1A O1 1_555 1_555
O1A Co1 1_555 1_555
O2A Co1 1_555 1_555
O2 Co1A 1_555 1_555
C4 C5 1_555 1_555
C6 C7 1_555 1_555
C12 C13 1_555 1_555
C16 C17 1_555 1_555
C17 C18 1_555 1_555
C19 C20 1_555 1_555
C23 C24 1_555 1_555

#END
