
#######################################################################
#
#                 Cambridge Crystallographic Data Centre
#                                CCDC 
#
#######################################################################
#
# If this CIF has been generated from an entry in the Cambridge 
# Structural Database, then it will include bibliographic, chemical, 
# crystal, experimental, refinement or atomic coordinate data resulting 
# from the CCDC's data processing and validation procedures.
#
#######################################################################

data_VIZQEC
_symmetry_cell_setting           monoclinic
_symmetry_space_group_name_H-M   'P 21/c'
_symmetry_Int_Tables_number      14
_space_group_name_Hall           '-P 2ybc'
loop_
_symmetry_equiv_pos_site_id
_symmetry_equiv_pos_as_xyz
1 x,y,z
2 -x,1/2+y,1/2-z
3 -x,-y,-z
4 x,1/2-y,1/2+z
_cell_length_a                   16.654(3)
_cell_length_b                   20.426(4)
_cell_length_c                   21.802(7)
_cell_angle_alpha                90
_cell_angle_beta                 128.991(18)
_cell_angle_gamma                90
_cell_volume                     5764.43
loop_
_atom_site_label
_atom_site_type_symbol
_atom_site_fract_x
_atom_site_fract_y
_atom_site_fract_z
Co1 Co 0.72097(8) 0.66415(5) 0.25883(5)
Co2 Co 0.80623(9) 0.62366(5) 0.44693(6)
Co3 Co 0.65431(8) 0.64265(5) 0.06501(5)
S1 S 0.78063(14) 0.27742(9) 0.22914(11)
S2 S 0.69970(18) 1.06254(10) 0.14609(17)
S3 S 1.14553(15) 0.98300(9) 0.54079(11)
O1 O 0.8820(5) 0.5442(3) 0.4447(4)
O2 O 0.7589(5) 0.5844(3) 0.3304(3)
O3 O 0.8638(4) 0.2357(2) 0.2884(3)
O4 O 0.7570(4) 0.2838(3) 0.1537(3)
O5 O 0.3919(4) 0.1888(2) 0.2308(3)
O6 O 0.3135(4) 0.1845(3) 0.1014(3)
O7 O 0.6735(5) 0.7411(3) 0.1823(3)
O8 O 0.6560(5) 0.7388(2) 0.0730(3)
O9 O 0.6366(8) 0.6310(4) -0.0409(6)
O10 O 0.6878(5) 1.0838(3) 0.2038(5)
O11 O 0.6358(5) 1.0875(3) 0.0673(5)
O12 O 1.2101(4) 1.1034(3) 0.3617(3)
O13 O 1.1611(4) 1.1329(3) 0.2444(3)
O14 O 0.8289(4) 0.7285(3) 0.3455(3)
O15 O 0.9077(4) 0.6940(3) 0.4688(3)
O16 O 0.6886(10) 0.5480(5) 0.4247(6)
O17 O 0.8666(5) 0.6247(3) 0.5632(3)
O18 O 1.0916(4) 1.0308(3) 0.4791(3)
O19 O 1.1729(5) 0.9975(3) 0.6165(3)
O20 O 1.5252(5) 0.8986(3) 0.5291(4)
O21 O 1.6106(5) 0.8933(3) 0.6576(4)
N1 N 0.9324(6) 0.6692(4) 0.6806(4)
C1 C 0.8234(7) 0.5388(4) 0.3720(6)
C2 C 0.8208(6) 0.4778(3) 0.3345(4)
C3 C 0.7505(7) 0.4688(4) 0.2538(5)
H1 H 0.7092 0.5037 0.2216
C4 C 0.7404(7) 0.4084(4) 0.2200(5)
H2 H 0.6940 0.4031 0.1656
C5 C 0.8002(6) 0.3565(3) 0.2685(4)
C6 C 0.8745(6) 0.3651(4) 0.3494(5)
H3 H 0.9168 0.3304 0.3814
C7 C 0.8848(6) 0.4260(4) 0.3822(5)
H4 H 0.9347 0.4322 0.4363
C8 C 0.6669(6) 0.2508(3) 0.2119(4)
C9 C 0.6712(6) 0.2385(4) 0.2764(4)
H5 H 0.7331 0.2423 0.3275
C10 C 0.5811(6) 0.2202(4) 0.2628(4)
H6 H 0.5830 0.2117 0.3056
C11 C 0.4889(5) 0.2141(3) 0.1877(4)
C12 C 0.4856(6) 0.2274(3) 0.1237(4)
H7 H 0.4238 0.2233 0.0726
C13 C 0.5757(6) 0.2470(4) 0.1367(4)
H8 H 0.5735 0.2574 0.0941
C14 C 0.3902(6) 0.1942(3) 0.1729(4)
C15 C 0.6659(5) 0.7677(3) 0.1282(4)
C16 C 0.6710(5) 0.8413(3) 0.1294(4)
C17 C 0.7040(7) 0.8741(4) 0.1967(4)
H9 H 0.7217 0.8502 0.2400
C18 C 0.7114(8) 0.9402(4) 0.2017(5)
H10 H 0.7335 0.9610 0.2479
C19 C 0.6863(6) 0.9767(4) 0.1386(5)
C20 C 0.6539(9) 0.9447(4) 0.0717(6)
H11 H 0.6349 0.9688 0.0282
C21 C 0.6487(9) 0.8770(4) 0.0675(5)
H12 H 0.6301 0.8559 0.0224
C22 C 0.8281(6) 1.0744(4) 0.1864(5)
C23 C 0.9067(7) 1.0702(4) 0.2680(5)
H13 H 0.8911 1.0603 0.3011
C24 C 1.0077(6) 1.0810(4) 0.2988(5)
H14 H 1.0599 1.0780 0.3531
C25 C 1.0329(6) 1.0958(3) 0.2517(4)
C26 C 0.9560(8) 1.0995(5) 0.1713(5)
H15 H 0.9725 1.1091 0.1387
C27 C 0.8554(7) 1.0893(5) 0.1395(5)
H16 H 0.8039 1.0923 0.0851
C28 C 1.1446(6) 1.1121(4) 0.2881(5)
C29 C 0.8873(7) 0.6721(4) 0.6044(6)
H17 H 0.8703 0.7133 0.5810
C30 C 0.9492(10) 0.7277(6) 0.7252(8)
H18 H 0.8990 0.7296 0.7334
H19 H 0.9425 0.7657 0.6964
H20 H 1.0173 0.7265 0.7753
C31 C 0.9627(9) 0.6056(6) 0.7204(6)
H21 H 0.9822 0.5769 0.6969
H22 H 0.9056 0.5870 0.7150
H23 H 1.0202 0.6113 0.7753
C32 C 0.8935(6) 0.7344(4) 0.4184(5)
C33 C 0.9592(5) 0.7947(4) 0.4494(4)
C34 C 1.0266(6) 0.8077(3) 0.5306(4)
H24 H 1.0324 0.7782 0.5656
C35 C 1.0847(6) 0.8645(4) 0.5585(4)
H25 H 1.1304 0.8729 0.6124
C36 C 1.0746(5) 0.9092(3) 0.5059(4)
C37 C 1.0087(6) 0.8965(4) 0.4259(4)
H26 H 1.0033 0.9261 0.3911
C38 C 0.9516(6) 0.8403(4) 0.3980(4)
H27 H 0.9069 0.8322 0.3440
C39 C 1.2602(6) 0.9635(3) 0.5561(4)
C40 C 1.3450(7) 0.9407(4) 0.6297(5)
H28 H 1.3422 0.9370 0.6708
C41 C 1.4346(6) 0.9236(4) 0.6407(5)
H29 H 1.4928 0.9093 0.6898
C42 C 1.4368(6) 0.9279(3) 0.5786(4)
C43 C 1.3529(6) 0.9525(4) 0.5062(5)
H30 H 1.3561 0.9566 0.4653
C44 C 1.2644(6) 0.9710(4) 0.4947(5)
H31 H 1.2083 0.9883 0.4466
C45 C 1.5309(6) 0.9050(4) 0.5892(6)
Co1A Co 0.27903(8) 0.16415(5) 0.24117(5)
Co1A_2 Co 1.27903(8) 1.16415(5) 0.24117(5)
Co1C Co 1.72097(8) 0.83585(5) 0.75883(5)
Co2A Co 0.19377(9) 0.12366(5) 0.05307(6)
Co3A Co 1.34569(8) 1.14265(5) 0.43499(5)
Co3C Co 1.65431(8) 0.85735(5) 0.56501(5)
O5A O 0.6081(4) 0.6888(2) 0.2692(3)
O6A O 0.6865(4) 0.6845(3) 0.3986(3)
O12A O 0.7899(4) 0.6034(3) 0.1383(3)
O13A O 0.8389(4) 0.6329(3) 0.2556(3)
O20C O 0.5252(5) 0.6014(3) 0.0291(4)
O21C O 0.6106(5) 0.6067(3) 0.1576(4)
O22 O 0.331(3) 0.6196(11) 0.6015(17)
N2 N 0.2972(14) 0.7130(10) 0.5348(8)
C46 C 0.2225(18) 0.7667(14) 0.4901(12)
H32 H 0.1932 0.7639 0.4357
H33 H 0.2571 0.8080 0.5113
H34 H 0.1685 0.7632 0.4942
C47 C 0.3922(16) 0.7224(11) 0.5481(12)
H35 H 0.4491 0.7114 0.6018
H36 H 0.3979 0.7674 0.5386
H37 H 0.3934 0.6949 0.5130
C48 C 0.278(3) 0.6669(15) 0.5615(16)
H38 H 0.2138 0.6686 0.5490
loop_
_geom_bond_atom_site_label_1
_geom_bond_atom_site_label_2
_geom_bond_site_symmetry_1
_geom_bond_site_symmetry_2
Co1 O2 1_555 1_555
Co2 O1 1_555 1_555
Co3 O8 1_555 1_555
S1 O3 1_555 1_555
S2 O10 1_555 1_555
S3 O18 1_555 1_555
O1 C1 1_555 1_555
O2 Co2 1_555 1_555
O4 S1 1_555 1_555
O5 C14 1_555 1_555
O6 C14 1_555 1_555
O7 Co1 1_555 1_555
O8 C15 1_555 1_555
O9 Co3 1_555 1_555
O11 S2 1_555 1_555
O12 C28 1_555 1_555
O13 C28 1_555 1_555
O14 Co1 1_555 1_555
O15 Co2 1_555 1_555
O16 Co2 1_555 1_555
O17 Co2 1_555 1_555
O19 S3 1_555 1_555
O20 C45 1_555 1_555
O21 C45 1_555 1_555
N1 C29 1_555 1_555
C1 O2 1_555 1_555
C2 C1 1_555 1_555
C3 C2 1_555 1_555
H1 C3 1_555 1_555
C4 C3 1_555 1_555
H2 C4 1_555 1_555
C5 S1 1_555 1_555
C6 C5 1_555 1_555
H3 C6 1_555 1_555
C7 C2 1_555 1_555
H4 C7 1_555 1_555
C8 S1 1_555 1_555
C9 C8 1_555 1_555
H5 C9 1_555 1_555
C10 C9 1_555 1_555
H6 C10 1_555 1_555
C11 C10 1_555 1_555
C12 C11 1_555 1_555
H7 C12 1_555 1_555
C13 C8 1_555 1_555
H8 C13 1_555 1_555
C14 C11 1_555 1_555
C15 O7 1_555 1_555
C16 C15 1_555 1_555
C17 C16 1_555 1_555
H9 C17 1_555 1_555
C18 C17 1_555 1_555
H10 C18 1_555 1_555
C19 S2 1_555 1_555
C20 C19 1_555 1_555
H11 C20 1_555 1_555
C21 C16 1_555 1_555
H12 C21 1_555 1_555
C22 S2 1_555 1_555
C23 C22 1_555 1_555
H13 C23 1_555 1_555
C24 C23 1_555 1_555
H14 C24 1_555 1_555
C25 C24 1_555 1_555
C26 C25 1_555 1_555
H15 C26 1_555 1_555
C27 C22 1_555 1_555
H16 C27 1_555 1_555
C28 C25 1_555 1_555
C29 O17 1_555 1_555
H17 C29 1_555 1_555
C30 N1 1_555 1_555
H18 C30 1_555 1_555
H19 C30 1_555 1_555
H20 C30 1_555 1_555
C31 N1 1_555 1_555
H21 C31 1_555 1_555
H22 C31 1_555 1_555
H23 C31 1_555 1_555
C32 O14 1_555 1_555
C33 C32 1_555 1_555
C34 C33 1_555 1_555
H24 C34 1_555 1_555
C35 C34 1_555 1_555
H25 C35 1_555 1_555
C36 S3 1_555 1_555
C37 C36 1_555 1_555
H26 C37 1_555 1_555
C38 C33 1_555 1_555
H27 C38 1_555 1_555
C39 S3 1_555 1_555
C40 C39 1_555 1_555
H28 C40 1_555 1_555
C41 C40 1_555 1_555
H29 C41 1_555 1_555
C42 C41 1_555 1_555
C43 C42 1_555 1_555
H30 C43 1_555 1_555
C44 C39 1_555 1_555
H31 C44 1_555 1_555
C45 C42 1_555 1_555
O22 C48 1_555 1_555
N2 C46 1_555 1_555
C46 H32 1_555 1_555
H33 C46 1_555 1_555
H34 C46 1_555 1_555
C47 N2 1_555 1_555
H35 C47 1_555 1_555
H36 C47 1_555 1_555
H37 C47 1_555 1_555
C48 N2 1_555 1_555
H38 C48 1_555 1_555
Co1A O5 1_555 1_555
Co1A_2 O13 1_555 1_555
Co1C O21 1_555 1_555
Co2A O6 1_555 1_555
Co3A O12 1_555 1_555
Co3C O20 1_555 1_555
O5A Co1 1_555 1_555
O6A Co2 1_555 1_555
O12A Co3 1_555 1_555
O13A Co1 1_555 1_555
O20C Co3 1_555 1_555
O21C Co1 1_555 1_555
O15 C32 1_555 1_555
C4 C5 1_555 1_555
C6 C7 1_555 1_555
C12 C13 1_555 1_555
C18 C19 1_555 1_555
C20 C21 1_555 1_555
C26 C27 1_555 1_555
C35 C36 1_555 1_555
C37 C38 1_555 1_555
C43 C44 1_555 1_555

#END
