
#######################################################################
#
#                 Cambridge Crystallographic Data Centre
#                                CCDC 
#
#######################################################################
#
# If this CIF has been generated from an entry in the Cambridge 
# Structural Database, then it will include bibliographic, chemical, 
# crystal, experimental, refinement or atomic coordinate data resulting 
# from the CCDC's data processing and validation procedures.
#
#######################################################################

data_VIZQIG
_symmetry_cell_setting           tetragonal
_symmetry_space_group_name_H-M   'I 41/a'
_symmetry_Int_Tables_number      88
_space_group_name_Hall           '-I 4ad'
loop_
_symmetry_equiv_pos_site_id
_symmetry_equiv_pos_as_xyz
1 x,y,z
2 1/2-x,-y,1/2+z
3 3/4-y,1/4+x,1/4+z
4 3/4+y,3/4-x,3/4+z
5 1/2+x,1/2+y,1/2+z
6 -x,1/2-y,z
7 1/4-y,3/4+x,3/4+z
8 1/4+y,1/4-x,1/4+z
9 -x,-y,-z
10 1/2+x,y,1/2-z
11 1/4+y,3/4-x,3/4-z
12 1/4-y,1/4+x,1/4-z
13 1/2-x,1/2-y,1/2-z
14 x,1/2+y,-z
15 3/4+y,1/4-x,1/4-z
16 3/4-y,3/4+x,3/4-z
_cell_length_a                   25.087(4)
_cell_length_b                   25.087(4)
_cell_length_c                   15.026(3)
_cell_angle_alpha                90
_cell_angle_beta                 90
_cell_angle_gamma                90
_cell_volume                     9456.73
loop_
_atom_site_label
_atom_site_type_symbol
_atom_site_fract_x
_atom_site_fract_y
_atom_site_fract_z
Co1 Co 1.049257(16) 0.529539(16) 0.04783(3)
Co2 Co 0.937594(16) 0.595920(16) -0.05857(3)
S1 S 0.60358(3) 0.50518(4) -0.10863(6)
O1 O 0.96415(8) 0.53606(8) 0.02562(14)
O2 O 0.91702(11) 0.64597(11) 0.05632(17)
O3 O 0.86077(9) 0.56615(9) -0.05237(17)
O4 O 0.86905(9) 0.47765(9) -0.06185(17)
O5 O 0.58478(10) 0.55421(13) -0.14751(18)
O6 O 0.59184(11) 0.45531(13) -0.15081(18)
O7 O 0.55157(11) 0.44950(11) 0.31787(17)
O8 O 0.53603(11) 0.53636(11) 0.32052(17)
N1 N 1.09302(10) 0.65710(10) -0.11183(19)
N2 N 1.01614(10) 0.62231(10) -0.06793(18)
N3 N 1.05687(10) 0.59828(10) -0.02073(18)
C1 C 1.04000(12) 0.65641(13) -0.1211(2)
H1 H 1.0218 0.6780 -0.1612
C2 C 1.10120(13) 0.62046(13) -0.0489(2)
H2 H 1.1348 0.6116 -0.0273
C3 C 0.84255(12) 0.52002(13) -0.0621(2)
C4 C 0.78279(12) 0.51579(13) -0.0737(2)
C5 C 0.75235(13) 0.56174(14) -0.0778(2)
H3 H 0.7688 0.5948 -0.0728
C6 C 0.69778(13) 0.55887(14) -0.0892(2)
H4 H 0.6774 0.5898 -0.0922
C7 C 0.67393(12) 0.50934(15) -0.0959(2)
C8 C 0.70344(14) 0.46334(16) -0.0922(3)
H5 H 0.6868 0.4304 -0.0971
C9 C 0.75828(14) 0.46623(15) -0.0812(3)
H6 H 0.7785 0.4352 -0.0787
C10 C 0.58047(13) 0.50153(14) 0.0022(2)
C11 C 0.57153(16) 0.54818(17) 0.0489(3)
H7 H 0.5742 0.5811 0.0208
C12 C 0.55844(16) 0.54494(16) 0.1389(3)
H8 H 0.5522 0.5761 0.1709
C13 C 0.55460(13) 0.49640(14) 0.1812(2)
C14 C 0.56183(16) 0.45030(15) 0.1326(2)
H9 H 0.5579 0.4174 0.1603
C15 C 0.57488(17) 0.45256(16) 0.0428(3)
H10 H 0.5798 0.4214 0.0104
C16 C 0.54614(13) 0.49304(15) 0.2800(2)
Co1H Co 0.950743(16) 0.470461(16) -0.04783(3)
Co1I Co 0.549257(16) 0.529539(16) 0.45217(3)
Co2A Co 0.562406(16) 0.404080(16) 0.44143(3)
Co2O Co 1.154080(16) 0.687594(16) -0.19143(3)
O1H O 1.03585(8) 0.46394(8) -0.02562(14)
O4H O 1.13095(9) 0.52235(9) 0.06185(17)
O7A O 0.94843(11) 0.55050(11) -0.18213(17)
O8I O 1.03603(11) 0.53636(11) 0.17948(17)
N1J N 0.90710(10) 0.65698(10) -0.13817(19)
loop_
_geom_bond_atom_site_label_1
_geom_bond_atom_site_label_2
_geom_bond_site_symmetry_1
_geom_bond_site_symmetry_2
Co1 O1 1_555 1_555
Co2 O1 1_555 1_555
S1 O5 1_555 1_555
O1 Co1H 1_555 1_555
O2 Co2 1_555 1_555
O3 Co2 1_555 1_555
O4 C3 1_555 1_555
O6 S1 1_555 1_555
O7 C16 1_555 1_555
O8 C16 1_555 1_555
N1 C1 1_555 1_555
N2 Co2 1_555 1_555
N3 Co1 1_555 1_555
C1 N2 1_555 1_555
H1 C1 1_555 1_555
C2 N1 1_555 1_555
H2 C2 1_555 1_555
C3 O3 1_555 1_555
C4 C3 1_555 1_555
C5 C4 1_555 1_555
H3 C5 1_555 1_555
C6 C5 1_555 1_555
H4 C6 1_555 1_555
C7 S1 1_555 1_555
C8 C7 1_555 1_555
H5 C8 1_555 1_555
C9 C4 1_555 1_555
H6 C9 1_555 1_555
C10 S1 1_555 1_555
C11 C10 1_555 1_555
H7 C11 1_555 1_555
C12 C11 1_555 1_555
H8 C12 1_555 1_555
C13 C12 1_555 1_555
C14 C13 1_555 1_555
H9 C14 1_555 1_555
C15 C10 1_555 1_555
H10 C15 1_555 1_555
C16 C13 1_555 1_555
Co1H O4 1_555 1_555
Co1I O8 1_555 1_555
Co2A O7 1_555 1_555
Co2O N1 1_555 1_555
O1H Co1 1_555 1_555
O4H Co1 1_555 1_555
O7A Co2 1_555 1_555
O8I Co1 1_555 1_555
N1J Co2 1_555 1_555
N2 N3 1_555 1_555
N3 C2 1_555 1_555
C6 C7 1_555 1_555
C8 C9 1_555 1_555
C14 C15 1_555 1_555
Co1H O1H 1_555 1_555

#END
