
#######################################################################
#
#                 Cambridge Crystallographic Data Centre
#                                CCDC 
#
#######################################################################
#
# If this CIF has been generated from an entry in the Cambridge 
# Structural Database, then it will include bibliographic, chemical, 
# crystal, experimental, refinement or atomic coordinate data resulting 
# from the CCDC's data processing and validation procedures.
#
#######################################################################

data_VIZRIH
_symmetry_cell_setting           orthorhombic
_symmetry_space_group_name_H-M   'P b c n'
_symmetry_Int_Tables_number      60
_space_group_name_Hall           '-P 2n 2ab'
loop_
_symmetry_equiv_pos_site_id
_symmetry_equiv_pos_as_xyz
1 x,y,z
2 1/2-x,1/2-y,1/2+z
3 -x,y,1/2-z
4 1/2+x,1/2-y,-z
5 -x,-y,-z
6 1/2+x,1/2+y,1/2-z
7 x,-y,1/2+z
8 1/2-x,1/2+y,z
_cell_length_a                   30.671(6)
_cell_length_b                   16.577(3)
_cell_length_c                   9.851(2)
_cell_angle_alpha                90
_cell_angle_beta                 90
_cell_angle_gamma                90
_cell_volume                     5008.58
loop_
_atom_site_label
_atom_site_type_symbol
_atom_site_fract_x
_atom_site_fract_y
_atom_site_fract_z
Zn1 Zn 0.349659(17) 1.10776(3) 0.83967(5)
Zn2 Zn 0.251301(17) 1.14181(3) 0.63341(5)
S1 S 0.10110(5) 0.75256(10) 0.36815(15)
O1 O -0.06487(12) 0.5536(2) 0.6584(4)
O2 O -0.09795(11) 0.6679(2) 0.6099(4)
O3 O 0.13162(13) 0.6863(3) 0.3647(5)
O4 O 0.08798(14) 0.7907(3) 0.2445(4)
O5 O 0.22936(14) 0.9815(2) 0.7545(4)
O6 O 0.19866(11) 1.0774(2) 0.6302(3)
N1 N 0.33652(12) 0.9748(2) 0.4830(4)
N2 N 0.39192(13) 0.9550(3) 0.6490(4)
H1 H 0.4036 0.9703 0.7240
H2 H 0.4026 0.9147 0.6052
N3 N 0.33817(12) 1.0570(2) 0.6610(4)
N4 N 0.30348(12) 1.0788(2) 0.5783(4)
N5 N 0.23545(12) 1.2164(2) 0.4806(4)
N6 N 0.16247(14) 1.2360(3) 0.5490(5)
H3 H 0.1380 1.2602 0.5370
H4 H 0.1654 1.2019 0.6141
N7 N 0.19468(12) 1.3030(2) 0.3631(4)
N8 N 0.23612(12) 1.3007(2) 0.3064(4)
C1 C -0.06411(17) 0.6229(4) 0.6159(5)
C2 C -0.02207(16) 0.6584(3) 0.5601(5)
C3 C 0.01496(18) 0.6133(3) 0.5605(6)
H5 H 0.0145 0.5620 0.5987
C4 C 0.05274(18) 0.6421(3) 0.5057(6)
H6 H 0.0778 0.6105 0.5056
C5 C 0.05342(16) 0.7178(3) 0.4513(5)
C6 C 0.01663(19) 0.7655(4) 0.4509(8)
H7 H 0.0171 0.8167 0.4126
C7 C -0.02075(18) 0.7354(4) 0.5086(7)
H8 H -0.0455 0.7676 0.5130
C8 C 0.12492(17) 0.8288(3) 0.4710(6)
C9 C 0.1467(2) 0.8092(3) 0.5868(6)
H9 H 0.1454 0.7568 0.6202
C10 C 0.1705(2) 0.8669(4) 0.6542(6)
H10 H 0.1855 0.8531 0.7328
C11 C 0.17219(16) 0.9435(3) 0.6073(5)
C12 C 0.1256(2) 0.9062(4) 0.4244(7)
H11 H 0.1103 0.9201 0.3463
C13 C 0.1491(2) 0.9637(4) 0.4942(7)
H12 H 0.1492 1.0168 0.4638
C14 C 0.20257(17) 1.0039(3) 0.6721(6)
C15 C 0.35689(15) 0.9940(3) 0.6000(5)
C16 C 0.30394(16) 1.0287(3) 0.4755(5)
H13 H 0.2839 1.0303 0.4048
C17 C 0.25868(15) 1.2486(3) 0.3768(5)
H14 H 0.2875 1.2350 0.3578
C18 C 0.19634(15) 1.2516(3) 0.4655(5)
Zn1A Zn 0.150341(17) 1.39224(3) 0.33967(5)
Zn1E Zn -0.150341(17) 0.60776(3) 0.66033(5)
Zn1F Zn 0.349659(17) 0.89224(3) 0.33967(5)
Zn2A Zn 0.248699(17) 1.35819(3) 0.13341(5)
O2E O 0.40205(11) 1.1679(2) 0.8901(4)
N1F N 0.33652(12) 1.0252(2) 0.9830(4)
N7A N 0.30532(12) 1.1970(2) 0.8631(4)
N8A N 0.26388(12) 1.1993(2) 0.8064(4)
loop_
_geom_bond_atom_site_label_1
_geom_bond_atom_site_label_2
_geom_bond_site_symmetry_1
_geom_bond_site_symmetry_2
Zn1 N3 1_555 1_555
Zn2 O6 1_555 1_555
S1 O3 1_555 1_555
O1 C1 1_555 1_555
O2 C1 1_555 1_555
O4 S1 1_555 1_555
O5 C14 1_555 1_555
O6 C14 1_555 1_555
N1 C15 1_555 1_555
N2 H1 1_555 1_555
H2 N2 1_555 1_555
N3 N4 1_555 1_555
N4 Zn2 1_555 1_555
N5 Zn2 1_555 1_555
N6 H3 1_555 1_555
H4 N6 1_555 1_555
N7 N8 1_555 1_555
N8 C17 1_555 1_555
C1 C2 1_555 1_555
C2 C3 1_555 1_555
C3 H5 1_555 1_555
C4 C3 1_555 1_555
H6 C4 1_555 1_555
C5 S1 1_555 1_555
C6 C5 1_555 1_555
H7 C6 1_555 1_555
C7 C2 1_555 1_555
H8 C7 1_555 1_555
C8 S1 1_555 1_555
C9 C8 1_555 1_555
H9 C9 1_555 1_555
C10 C9 1_555 1_555
H10 C10 1_555 1_555
C11 C10 1_555 1_555
C12 C8 1_555 1_555
H11 C12 1_555 1_555
C13 C11 1_555 1_555
H12 C13 1_555 1_555
C14 C11 1_555 1_555
C15 N2 1_555 1_555
C16 N1 1_555 1_555
H13 C16 1_555 1_555
C17 N5 1_555 1_555
H14 C17 1_555 1_555
C18 N5 1_555 1_555
Zn1A N7 1_555 1_555
Zn1E O2 1_555 1_555
Zn1F N1 1_555 1_555
Zn2A N8 1_555 1_555
O2E Zn1 1_555 1_555
N1F Zn1 1_555 1_555
N7A Zn1 1_555 1_555
N8A Zn2 1_555 1_555
N3 C15 1_555 1_555
N4 C16 1_555 1_555
N6 C18 1_555 1_555
N7 C18 1_555 1_555
C4 C5 1_555 1_555
C6 C7 1_555 1_555
C12 C13 1_555 1_555
N7A N8A 1_555 1_555

#END
