
#######################################################################
#
#                 Cambridge Crystallographic Data Centre
#                                CCDC 
#
#######################################################################
#
# If this CIF has been generated from an entry in the Cambridge 
# Structural Database, then it will include bibliographic, chemical, 
# crystal, experimental, refinement or atomic coordinate data resulting 
# from the CCDC's data processing and validation procedures.
#
#######################################################################

data_VIZRED
_symmetry_cell_setting           tetragonal
_symmetry_space_group_name_H-M   'I 41/a'
_symmetry_Int_Tables_number      88
_space_group_name_Hall           '-I 4ad'
loop_
_symmetry_equiv_pos_site_id
_symmetry_equiv_pos_as_xyz
1 x,y,z
2 1/2-x,-y,1/2+z
3 3/4-y,1/4+x,1/4+z
4 3/4+y,3/4-x,3/4+z
5 1/2+x,1/2+y,1/2+z
6 -x,1/2-y,z
7 1/4-y,3/4+x,3/4+z
8 1/4+y,1/4-x,1/4+z
9 -x,-y,-z
10 1/2+x,y,1/2-z
11 1/4+y,3/4-x,3/4-z
12 1/4-y,1/4+x,1/4-z
13 1/2-x,1/2-y,1/2-z
14 x,1/2+y,-z
15 3/4+y,1/4-x,1/4-z
16 3/4-y,3/4+x,3/4-z
_cell_length_a                   24.344(3)
_cell_length_b                   24.344(3)
_cell_length_c                   15.067(3)
_cell_angle_alpha                90
_cell_angle_beta                 90
_cell_angle_gamma                90
_cell_volume                     8929.16
loop_
_atom_site_label
_atom_site_type_symbol
_atom_site_fract_x
_atom_site_fract_y
_atom_site_fract_z
Cu1 Cu 0.93916(3) 0.40224(3) 1.05186(5)
Cu2 Cu 0.95484(3) 0.53485(3) 1.05401(5)
S1 S 0.60227(7) 0.50374(10) 1.10923(13)
O1 O 0.96702(16) 0.45757(18) 0.9696(3)
O2 O 0.9150(4) 0.3403(4) 0.9243(6)
O3 O 0.86493(17) 0.43434(18) 1.0450(3)
O4 O 0.87500(18) 0.52526(19) 1.0634(3)
O5 O 0.5919(2) 0.5578(4) 1.1427(5)
O6 O 0.5825(2) 0.4570(3) 1.1576(4)
O7 O 0.5348(4) 0.4559(6) 0.6935(7)
O8 O 0.5464(5) 0.5373(7) 0.6801(8)
N1 N 0.8720(2) 0.2657(2) 1.1763(4)
N2 N 0.9056(2) 0.3437(2) 1.1262(4)
N3 N 0.8455(2) 0.30775(19) 1.2190(4)
C1 C 0.9068(3) 0.2888(3) 1.1212(5)
H1 H 0.9297 0.2693 1.0831
C2 C 0.8672(3) 0.3534(2) 1.1874(4)
H2 H 0.8569 0.3884 1.2058
C3 C 0.8471(2) 0.4820(3) 1.0589(4)
C4 C 0.7860(2) 0.4875(3) 1.0705(4)
C5 C 0.7625(3) 0.5391(3) 1.0798(6)
H3 H 0.7845 0.5703 1.0784
C6 C 0.7061(3) 0.5442(4) 1.0911(6)
H4 H 0.6900 0.5787 1.0957
C7 C 0.6742(2) 0.4972(3) 1.0954(4)
C8 C 0.6973(3) 0.4457(3) 1.0873(5)
H5 H 0.6754 0.4145 1.0904
C9 C 0.7531(3) 0.4409(3) 1.0744(5)
H6 H 0.7688 0.4063 1.0683
C10 C 0.5773(3) 0.5004(3) 0.9995(5)
C11 C 0.5738(4) 0.5469(4) 0.9494(7)
H7 H 0.5807 0.5811 0.9746
C12 C 0.5597(4) 0.5427(5) 0.8594(7)
H8 H 0.5568 0.5744 0.8253
C13 C 0.5504(4) 0.4940(6) 0.8220(7)
C14 C 0.5522(4) 0.4472(5) 0.8726(7)
H9 H 0.5443 0.4133 0.8471
C15 C 0.5659(3) 0.4504(4) 0.9631(6)
H10 H 0.5672 0.4188 0.9977
C16 C 0.5416(6) 0.4952(9) 0.7188(10)
Cu1A Cu 0.56084(3) 0.59776(3) 0.55186(5)
Cu1K Cu 0.84776(3) 0.18916(3) 1.19814(5)
Cu2A Cu 0.54516(3) 0.46515(3) 0.55401(5)
Cu2G Cu 0.78485(3) 0.29516(3) 1.30401(5)
Cu2H Cu 1.04516(3) 0.46515(3) 0.94599(5)
O1H O 1.03298(16) 0.54243(18) 1.0304(3)
O7A O 0.9652(4) 0.5441(6) 1.1935(7)
O8A O 0.9536(5) 0.4627(7) 1.1801(8)
N1N N 1.0157(2) 0.3780(2) 1.0737(4)
N3F N 0.94225(19) 0.5955(2) 0.9690(4)
loop_
_geom_bond_atom_site_label_1
_geom_bond_atom_site_label_2
_geom_bond_site_symmetry_1
_geom_bond_site_symmetry_2
Cu1 O1 1_555 1_555
Cu2 O1 1_555 1_555
S1 O5 1_555 1_555
O1 Cu2H 1_555 1_555
O2 Cu1 1_555 1_555
O3 Cu1 1_555 1_555
O4 Cu2 1_555 1_555
O6 S1 1_555 1_555
O7 C16 1_555 1_555
O8 C16 1_555 1_555
N1 N3 1_555 1_555
N2 Cu1 1_555 1_555
N3 C2 1_555 1_555
C1 N1 1_555 1_555
H1 C1 1_555 1_555
C2 N2 1_555 1_555
H2 C2 1_555 1_555
C3 O3 1_555 1_555
C4 C3 1_555 1_555
C5 C4 1_555 1_555
H3 C5 1_555 1_555
C6 C5 1_555 1_555
H4 C6 1_555 1_555
C7 S1 1_555 1_555
C8 C7 1_555 1_555
H5 C8 1_555 1_555
C9 C4 1_555 1_555
H6 C9 1_555 1_555
C10 S1 1_555 1_555
C11 C10 1_555 1_555
H7 C11 1_555 1_555
C12 C11 1_555 1_555
H8 C12 1_555 1_555
C13 C12 1_555 1_555
C14 C13 1_555 1_555
H9 C14 1_555 1_555
C15 C10 1_555 1_555
H10 C15 1_555 1_555
C16 C13 1_555 1_555
Cu1A O8 1_555 1_555
Cu1K N1 1_555 1_555
Cu2A O7 1_555 1_555
Cu2G N3 1_555 1_555
Cu2H O1H 1_555 1_555
O1H Cu2 1_555 1_555
O7A Cu2 1_555 1_555
O8A Cu1 1_555 1_555
N1N Cu1 1_555 1_555
N3F Cu2 1_555 1_555
Cu2 O8A 1_555 1_555
O4 C3 1_555 1_555
O8 Cu2A 1_555 1_555
N2 C1 1_555 1_555
C6 C7 1_555 1_555
C8 C9 1_555 1_555
C14 C15 1_555 1_555

#END
