
#######################################################################
#
#                 Cambridge Crystallographic Data Centre
#                                CCDC 
#
#######################################################################
#
# If this CIF has been generated from an entry in the Cambridge 
# Structural Database, then it will include bibliographic, chemical, 
# crystal, experimental, refinement or atomic coordinate data resulting 
# from the CCDC's data processing and validation procedures.
#
#######################################################################

data_VIZRAZ
_symmetry_cell_setting           monoclinic
_symmetry_space_group_name_H-M   'C 2/m'
_symmetry_Int_Tables_number      12
_space_group_name_Hall           '-C 2y'
loop_
_symmetry_equiv_pos_site_id
_symmetry_equiv_pos_as_xyz
1 x,y,z
2 -x,y,-z
3 1/2+x,1/2+y,z
4 1/2-x,1/2+y,-z
5 -x,-y,-z
6 x,-y,z
7 1/2-x,1/2-y,-z
8 1/2+x,1/2-y,z
_cell_length_a                   12.248(2)
_cell_length_b                   22.262(5)
_cell_length_c                   7.1435(14)
_cell_angle_alpha                90
_cell_angle_beta                 124.47(3)
_cell_angle_gamma                90
_cell_volume                     1605.8
loop_
_atom_site_label
_atom_site_type_symbol
_atom_site_fract_x
_atom_site_fract_y
_atom_site_fract_z
Cu1 Cu 0.42127(5) 0.5000 1.06977(8)
S1 S 0.0000 0.23856(5) 0.0000
O1 O 0.4595(2) 0.43858(10) 0.7127(4)
O2 O 0.3276(2) 0.43763(11) 0.8376(4)
O3 O 0.0675(2) 0.20626(10) -0.0801(4)
O4 O 0.3027(5) 0.5000 1.2119(7)
C1 C 0.3619(3) 0.41963(14) 0.7109(5)
C2 C 0.2774(3) 0.37241(14) 0.5395(5)
C3 C 0.2999(3) 0.35412(15) 0.3780(5)
H1 H 0.3708 0.3701 0.3802
C4 C 0.2183(3) 0.31265(15) 0.2152(5)
H2 H 0.2329 0.3007 0.1063
C5 C 0.1134(3) 0.28869(13) 0.2158(5)
C6 C 0.0920(3) 0.30518(16) 0.3778(6)
H3 H 0.0223 0.2885 0.3776
C7 C 0.1751(3) 0.34673(16) 0.5411(6)
H4 H 0.1622 0.3575 0.6530
O1A O -0.4595(2) 0.43858(10) -0.7127(4)
O2A O -0.3276(2) 0.43763(11) -0.8376(4)
O3A O -0.0675(2) 0.20626(10) 0.0801(4)
C1A C -0.3619(3) 0.41963(14) -0.7109(5)
C2A C -0.2774(3) 0.37241(14) -0.5395(5)
C3A C -0.2999(3) 0.35412(15) -0.3780(5)
H1A H -0.3708 0.3701 -0.3802
C4A C -0.2183(3) 0.31265(15) -0.2152(5)
H2A H -0.2329 0.3007 -0.1063
C5A C -0.1134(3) 0.28869(13) -0.2158(5)
C6A C -0.0920(3) 0.30518(16) -0.3778(6)
H3A H -0.0223 0.2885 -0.3776
C7A C -0.1751(3) 0.34673(16) -0.5411(6)
H4A H -0.1622 0.3575 -0.6530
Cu1_2 Cu -0.57873(5) 0.5000 -0.93023(8)
Cu1A Cu -0.42127(5) 0.5000 -1.06977(8)
Cu1A_2 Cu 0.57873(5) 0.5000 0.93023(8)
O1A_2 O 0.5405(2) 0.43858(10) 1.2873(4)
O1D O 0.5405(2) 0.56142(10) 1.2873(4)
O2E O 0.3276(2) 0.56237(11) 0.8376(4)
loop_
_geom_bond_atom_site_label_1
_geom_bond_atom_site_label_2
_geom_bond_site_symmetry_1
_geom_bond_site_symmetry_2
Cu1 O2 1_555 1_555
S1 O3 1_555 1_555
O1 C1 1_555 1_555
O2 C1 1_555 1_555
O4 Cu1 1_555 1_555
C1 C2 1_555 1_555
C2 C3 1_555 1_555
C3 H1 1_555 1_555
C4 C3 1_555 1_555
H2 C4 1_555 1_555
C5 S1 1_555 1_555
C6 C5 1_555 1_555
H3 C6 1_555 1_555
C7 C2 1_555 1_555
H4 C7 1_555 1_555
O1A C1A 1_555 1_555
O2A C1A 1_555 1_555
O3A S1 1_555 1_555
C1A C2A 1_555 1_555
C2A C3A 1_555 1_555
C3A H1A 1_555 1_555
C4A C3A 1_555 1_555
H2A C4A 1_555 1_555
C5A S1 1_555 1_555
C6A C5A 1_555 1_555
H3A C6A 1_555 1_555
C7A C2A 1_555 1_555
H4A C7A 1_555 1_555
Cu1_2 O1A 1_555 1_555
Cu1A O2A 1_555 1_555
Cu1A_2 Cu1 1_555 1_555
O1A_2 Cu1 1_555 1_555
O1D Cu1 1_555 1_555
O2E Cu1 1_555 1_555
O1 Cu1A_2 1_555 1_555
C4 C5 1_555 1_555
C6 C7 1_555 1_555
C4A C5A 1_555 1_555
C6A C7A 1_555 1_555
Cu1_2 Cu1A 1_555 1_555

#END
