
#######################################################################
#
#                 Cambridge Crystallographic Data Centre
#                                CCDC 
#
#######################################################################
#
# If this CIF has been generated from an entry in the Cambridge 
# Structural Database, then it will include bibliographic, chemical, 
# crystal, experimental, refinement or atomic coordinate data resulting 
# from the CCDC's data processing and validation procedures.
#
#######################################################################

data_VIZSEE
_symmetry_cell_setting           monoclinic
_symmetry_space_group_name_H-M   'C 2/c'
_symmetry_Int_Tables_number      15
_space_group_name_Hall           '-C 2yn'
loop_
_symmetry_equiv_pos_site_id
_symmetry_equiv_pos_as_xyz
1 x,y,z
2 -x,y,1/2-z
3 1/2+x,1/2+y,z
4 1/2-x,1/2+y,1/2-z
5 -x,-y,-z
6 x,-y,1/2+z
7 1/2-x,1/2-y,-z
8 1/2+x,1/2-y,1/2+z
_cell_length_a                   26.47(2)
_cell_length_b                   15.79(1)
_cell_length_c                   13.591(9)
_cell_angle_alpha                90
_cell_angle_beta                 105.64(2)
_cell_angle_gamma                90
_cell_volume                     5470.19
loop_
_atom_site_label
_atom_site_type_symbol
_atom_site_fract_x
_atom_site_fract_y
_atom_site_fract_z
N1 N 0.41059(16) 1.0218(2) 0.6313(3)
C1 C 0.4571(2) 1.0162(3) 0.6096(5)
H1 H 0.4731 1.0668 0.5945
C2 C 0.4824(2) 0.9411(3) 0.6083(5)
H2 H 0.5157 0.9404 0.5945
C3 C 0.4597(2) 0.8657(3) 0.6271(4)
C4 C 0.4115(2) 0.8714(3) 0.6504(4)
H3 H 0.3944 0.8217 0.6642
C5 C 0.3890(2) 0.9501(3) 0.6533(5)
H4 H 0.3569 0.9534 0.6716
N2 N 0.79858(17) 0.6388(2) 0.6351(3)
C6 C 0.7657(2) 0.5839(3) 0.5774(4)
H5 H 0.7789 0.5458 0.5361
C7 C 0.7134(2) 0.5793(3) 0.5746(4)
H6 H 0.6917 0.5367 0.5354
C8 C 0.69257(19) 0.6383(3) 0.6301(4)
C9 C 0.7268(2) 0.6982(3) 0.6874(4)
H7 H 0.7140 0.7405 0.7242
C10 C 0.7792(2) 0.6958(3) 0.6905(4)
H8 H 0.8025 0.7352 0.7325
N3 N 0.41150(16) 0.2537(2) 0.6346(3)
C11 C 0.3867(2) 0.3265(3) 0.6409(4)
H9 H 0.3518 0.3240 0.6471
C12 C 0.4094(2) 0.4054(3) 0.6390(4)
H10 H 0.3905 0.4555 0.6445
C13 C 0.46043(18) 0.4104(3) 0.6290(3)
C14 C 0.4861(2) 0.3339(3) 0.6221(4)
H11 H 0.5208 0.3343 0.6149
C15 C 0.46085(19) 0.2583(3) 0.6256(4)
H12 H 0.4790 0.2070 0.6216
C16 C 0.48644(19) 0.7826(3) 0.6250(4)
N4 N 0.53744(16) 0.7896(2) 0.6236(3)
C17 C 0.56296(19) 0.7150(3) 0.6265(4)
N5 N 0.61423(16) 0.7144(2) 0.6263(3)
C18 C 0.63587(19) 0.6373(3) 0.6276(4)
N6 N 0.61483(16) 0.5604(2) 0.6279(3)
C19 C 0.56333(19) 0.5601(3) 0.6281(4)
N7 N 0.53792(16) 0.4867(2) 0.6266(3)
C20 C 0.48701(18) 0.4936(3) 0.6272(3)
N8 N 0.45820(15) 0.5628(2) 0.6279(3)
C21 C 0.48397(18) 0.6383(3) 0.6279(3)
C22 C 0.53660(19) 0.6379(3) 0.6288(3)
N9 N 0.45794(16) 0.7131(2) 0.6263(3)
Zn1 Zn 0.37712(2) 1.13829(3) 0.64126(5)
O1 O 0.35722(17) 1.1419(2) 0.4750(3)
I1 I 0.40814(19) 1.1465(2) 0.8520(3)
H13 H 0.363(2) 1.181(3) 0.440(4)
H14 H 0.349(2) 1.101(3) 0.435(4)
N2B N 0.29858(17) 1.1388(2) 0.6351(3)
N3_2 N 0.41150(16) 1.2537(2) 0.6346(3)
Zn1_2 Zn 0.37712(2) 0.13829(3) 0.64126(5)
Zn1B Zn 0.87712(2) 0.63829(3) 0.64126(5)
O2 O 0.1640(3) 0.8948(4) 0.6642(6)
O3 O 0.1574(13) 0.7582(15) 0.5451(17)
O4 O 0.3446(3) 0.6232(8) 0.6042(10)
O5 O 0.2710(3) 0.8881(5) 0.6863(8)
O6 O 0.2129(6) 1.0063(14) 0.3379(13)
O7 O 0.3185(3) 1.0046(4) 0.3553(5)
O8 O 0.2655(8) 0.8858(13) 0.4509(14)
Cl1? Cl 0.4106(6) 1.1291(9) 0.8379(13)
O9? O 0.2887(10) 0.7720(19) 0.559(2)
loop_
_geom_bond_atom_site_label_1
_geom_bond_atom_site_label_2
_geom_bond_site_symmetry_1
_geom_bond_site_symmetry_2
N1 C1 1_555 1_555
C1 H1 1_555 1_555
C2 C1 1_555 1_555
H2 C2 1_555 1_555
C3 C2 1_555 1_555
C4 C3 1_555 1_555
H3 C4 1_555 1_555
C5 N1 1_555 1_555
H4 C5 1_555 1_555
N2 C6 1_555 1_555
C6 H5 1_555 1_555
C7 C6 1_555 1_555
H6 C7 1_555 1_555
C8 C7 1_555 1_555
C9 C8 1_555 1_555
H7 C9 1_555 1_555
C10 N2 1_555 1_555
H8 C10 1_555 1_555
N3 C11 1_555 1_555
C11 H9 1_555 1_555
C12 C11 1_555 1_555
H10 C12 1_555 1_555
C13 C12 1_555 1_555
C14 C13 1_555 1_555
H11 C14 1_555 1_555
C15 N3 1_555 1_555
H12 C15 1_555 1_555
C16 C3 1_555 1_555
N4 C16 1_555 1_555
C17 N4 1_555 1_555
N5 C17 1_555 1_555
C18 C8 1_555 1_555
N6 C18 1_555 1_555
C19 N6 1_555 1_555
N7 C19 1_555 1_555
C20 C13 1_555 1_555
N8 C20 1_555 1_555
C21 N8 1_555 1_555
C22 C17 1_555 1_555
N9 C16 1_555 1_555
Zn1 N1 1_555 1_555
O1 Zn1 1_555 1_555
I1 Zn1 1_555 1_555
H13 O1 1_555 1_555
H14 O1 1_555 1_555
N2B Zn1 1_555 1_555
N3_2 Zn1 1_555 1_555
Zn1_2 N3 1_555 1_555
Zn1B N2 1_555 1_555
C4 C5 1_555 1_555
C9 C10 1_555 1_555
C14 C15 1_555 1_555
N5 C18 1_555 1_555
C19 C22 1_555 1_555
N7 C20 1_555 1_555
C21 C22 1_555 1_555
C21 N9 1_555 1_555

#END
