
#######################################################################
#
#                 Cambridge Crystallographic Data Centre
#                                CCDC 
#
#######################################################################
#
# If this CIF has been generated from an entry in the Cambridge 
# Structural Database, then it will include bibliographic, chemical, 
# crystal, experimental, refinement or atomic coordinate data resulting 
# from the CCDC's data processing and validation procedures.
#
#######################################################################

data_VIZSOO
_symmetry_cell_setting           orthorhombic
_symmetry_space_group_name_H-M   'P 21 21 21'
_symmetry_Int_Tables_number      19
_space_group_name_Hall           'P 2ac 2ab'
loop_
_symmetry_equiv_pos_site_id
_symmetry_equiv_pos_as_xyz
1 x,y,z
2 1/2-x,-y,1/2+z
3 1/2+x,1/2-y,-z
4 -x,1/2+y,1/2-z
_cell_length_a                   21.500(11)
_cell_length_b                   21.500(11)
_cell_length_c                   22.454(12)
_cell_angle_alpha                90
_cell_angle_beta                 90
_cell_angle_gamma                90
_cell_volume                     10379.4
loop_
_atom_site_label
_atom_site_type_symbol
_atom_site_fract_x
_atom_site_fract_y
_atom_site_fract_z
Zn1 Zn 1.00494(8) 1.01459(10) 0.49376(9)
I1 I 0.95241(6) 1.08771(8) 0.56474(6)
N1 N 0.9563(6) 0.9362(8) 0.4628(6)
C1 C 0.9433(8) 0.9347(9) 0.4058(9)
H1 H 0.9514 0.9696 0.3811
C2 C 0.9179(7) 0.8818(11) 0.3830(8)
H2 H 0.9060 0.8811 0.3423
C3 C 0.9087(7) 0.8290(9) 0.4172(8)
C4 C 0.9206(8) 0.8349(11) 0.4767(7)
H3 H 0.9120 0.8017 0.5034
C5 C 0.9461(10) 0.8912(11) 0.4977(9)
H4 H 0.9557 0.8955 0.5388
N2 N 0.9577(6) 0.5530(9) 0.0814(6)
C6 C 0.9215(8) 0.5189(10) 0.1196(8)
H5 H 0.9127 0.4768 0.1100
C7 C 0.8984(7) 0.5425(10) 0.1695(8)
H6 H 0.8741 0.5166 0.1947
C8 C 0.9079(7) 0.6008(10) 0.1855(8)
C9 C 0.9441(7) 0.6394(10) 0.1460(7)
H7 H 0.9532 0.6815 0.1553
C10 C 0.9641(10) 0.6128(12) 0.0959(9)
H8 H 0.9848 0.6388 0.0680
N3 N 0.5794(4) 0.5302(5) 0.4678(4)
C11 C 0.6055(4) 0.5827(5) 0.4939(4)
H9 H 0.5871 0.6003 0.5284
C12 C 0.6586(4) 0.6093(5) 0.4695(5)
H10 H 0.6765 0.6452 0.4873
C13 C 0.6856(4) 0.5835(5) 0.4189(5)
C14 C 0.6594(5) 0.5310(6) 0.3928(4)
H11 H 0.6778 0.5134 0.3583
C15 C 0.6063(5) 0.5044(5) 0.4172(5)
H12 H 0.5884 0.4686 0.3994
C16 C 0.8852(7) 0.7709(9) 0.3900(8)
N4 N 0.9096(6) 0.7531(8) 0.3371(6)
C17 C 0.8883(7) 0.7012(10) 0.3134(7)
N5 N 0.9086(5) 0.6815(7) 0.2636(6)
C18 C 0.8828(8) 0.6263(10) 0.2417(8)
N6 N 0.8363(6) 0.5952(7) 0.2654(6)
C19 C 0.8139(7) 0.6176(9) 0.3162(7)
N7 N 0.7619(6) 0.5888(8) 0.3423(6)
C20 C 0.7436(8) 0.6159(9) 0.3935(8)
N8 N 0.7644(6) 0.6641(7) 0.4233(6)
C21 C 0.8142(7) 0.6914(9) 0.3957(7)
N9 N 0.8380(6) 0.7439(7) 0.4230(6)
C22 C 0.8371(7) 0.6693(9) 0.3428(7)
Zn1B Zn 0.50494(8) 0.48541(10) 0.50624(9)
Zn1C Zn 0.99506(8) 0.51459(10) 0.00624(9)
N2C N 1.0423(6) 1.0530(9) 0.4186(6)
N3B N 1.0794(4) 0.9698(5) 0.5322(4)
Zn2 Zn 0.50672(8) 0.99309(10) 0.50131(8)
I2 I 0.43107(5) 0.94238(7) 0.57167(6)
N10 N 0.5381(4) 0.9465(5) 0.4292(3)
C23 C 0.4962(3) 0.9302(6) 0.3847(4)
H13 H 0.4528 0.9349 0.3912
C24 C 0.5178(4) 0.9070(6) 0.3308(4)
H14 H 0.4892 0.8959 0.3004
C25 C 0.5813(4) 0.9001(6) 0.3213(4)
C26 C 0.6232(3) 0.9164(6) 0.3658(4)
H15 H 0.6666 0.9117 0.3593
C27 C 0.6016(3) 0.9396(6) 0.4197(4)
H16 H 0.6302 0.9507 0.4502
N11 N 0.5334(7) 0.5685(8) 0.0388(6)
C28 C 0.5837(8) 0.5949(11) 0.0171(8)
H17 H 0.6026 0.5763 -0.0168
C29 C 0.6110(8) 0.6479(10) 0.0399(8)
H18 H 0.6463 0.6656 0.0211
C30 C 0.5863(7) 0.6747(9) 0.0903(7)
C31 C 0.5356(8) 0.6443(11) 0.1186(8)
H19 H 0.5190 0.6589 0.1553
C32 C 0.5108(8) 0.5908(10) 0.0893(8)
H20 H 0.4763 0.5702 0.1070
N12 N 0.9125(6) 0.9713(8) 0.0375(6)
C33 C 0.8945(8) 0.9867(10) 0.0922(8)
H21 H 0.9201 1.0130 0.1159
C34 C 0.8387(8) 0.9648(10) 0.1150(8)
H22 H 0.8237 0.9809 0.1517
C35 C 0.8057(7) 0.9216(10) 0.0862(7)
C36 C 0.8241(8) 0.9062(10) 0.0282(8)
H23 H 0.8011 0.8773 0.0049
C37 C 0.8779(8) 0.9352(10) 0.0057(9)
H24 H 0.8892 0.9279 -0.0346
C38 C 0.6038(8) 0.8767(11) 0.2596(8)
N13 N 0.5766(6) 0.8267(7) 0.2386(6)
C39 C 0.6035(7) 0.8052(10) 0.1894(7)
N14 N 0.5814(6) 0.7510(7) 0.1652(6)
C40 C 0.6106(7) 0.7326(10) 0.1172(8)
N15 N 0.6589(6) 0.7558(7) 0.0883(5)
C41 C 0.6815(8) 0.8074(10) 0.1133(8)
N16 N 0.7331(6) 0.8379(8) 0.0880(6)
C42 C 0.7487(7) 0.8896(9) 0.1150(8)
N17 N 0.7276(5) 0.9181(8) 0.1632(6)
C43 C 0.6798(9) 0.8879(9) 0.1887(8)
N18 N 0.6546(6) 0.9118(8) 0.2395(5)
C44 C 0.6547(7) 0.8340(9) 0.1630(8)
Zn2A Zn 0.99328(8) 1.00691(10) 0.00131(8)
Zn2C Zn 0.49328(8) 0.49309(10) -0.00131(8)
N11C N 0.4666(7) 1.0685(8) 0.4612(6)
N12A N 0.5875(6) 1.0287(8) 0.5375(6)
O1 O 0.5304(9) 0.1547(10) 0.1505(9)
C45 C 0.4953(9) 0.1117(9) 0.1819(9)
C46 C 0.5168(9) 0.0524(10) 0.1754(9)
H25 H 0.5535 0.0430 0.1536
C47 C 0.4817(10) 0.0073(11) 0.2025(9)
H26 H 0.4915 -0.0354 0.1973
C48 C 0.4304(12) 0.0254(12) 0.2385(12)
H27 H 0.4071 -0.0065 0.2575
C49 C 0.4132(9) 0.0824(10) 0.2470(9)
H28 H 0.3788 0.0923 0.2718
C50 C 0.4469(10) 0.1282(10) 0.2184(9)
H29 H 0.4367 0.1708 0.2241
O2 O 0.7019(15) 0.2910(18) 0.6616(14)
C51 C 0.7233(6) 0.2588(7) 0.7089(5)
C52 C 0.7012(5) 0.2046(6) 0.7351(6)
H30 H 0.6673 0.1829 0.7177
C53 C 0.7286(6) 0.1822(5) 0.7869(6)
H31 H 0.7134 0.1452 0.8049
C54 C 0.7781(6) 0.2140(7) 0.8125(5)
H32 H 0.7969 0.1987 0.8479
C55 C 0.8003(5) 0.2682(7) 0.7863(6)
H33 H 0.8341 0.2900 0.8037
C56 C 0.7728(6) 0.2907(6) 0.7345(6)
H34 H 0.7880 0.3277 0.7165
O3 O 0.7245(6) -0.0037(7) 0.2973(6)
C57 C 0.6923(8) 0.0479(10) 0.3124(8)
C58 C 0.6367(8) 0.0622(11) 0.2877(8)
H35 H 0.6169 0.0345 0.2609
C59 C 0.6095(12) 0.1184(13) 0.3027(11)
H36 H 0.5724 0.1309 0.2831
C60 C 0.6350(9) 0.1569(11) 0.3454(9)
H37 H 0.6133 0.1931 0.3578
C61 C 0.6893(10) 0.1433(13) 0.3690(10)
H38 H 0.7079 0.1706 0.3971
C62 C 0.7194(11) 0.0885(13) 0.3525(9)
H39 H 0.7589 0.0789 0.3690
O4 O 0.6529(6) 1.0256(8) 0.7832(6)
C63 C 0.6209(9) 0.9828(11) 0.7565(8)
C64 C 0.5556(10) 0.9932(12) 0.7499(9)
H40 H 0.5356 1.0298 0.7639
C65 C 0.5228(10) 0.9441(14) 0.7205(10)
H41 H 0.4790 0.9472 0.7154
C66 C 0.5547(11) 0.8905(13) 0.6988(10)
H42 H 0.5311 0.8598 0.6784
C67 C 0.6174(10) 0.8805(12) 0.7056(9)
H43 H 0.6373 0.8435 0.6924
C68 C 0.6506(10) 0.9300(11) 0.7342(8)
H44 H 0.6945 0.9267 0.7381
O5 O 0.3842(8) 1.4277(8) 0.5824(8)
C69 C 0.3756(11) 1.3647(10) 0.5953(9)
C70 C 0.3430(10) 1.3316(10) 0.5535(9)
H45 H 0.3315 1.3494 0.5164
C71 C 0.3278(9) 1.2714(10) 0.5679(9)
H46 H 0.3015 1.2471 0.5431
C72 C 0.3527(12) 1.2475(12) 0.6211(11)
H47 H 0.3448 1.2050 0.6299
C73 C 0.3858(11) 1.2789(11) 0.6591(10)
H48 H 0.4007 1.2600 0.6945
C74 C 0.3986(10) 1.3403(10) 0.6468(9)
H49 H 0.4227 1.3649 0.6733
O6 O 0.6790(11) -0.1608(13) 0.5467(10)
C75 C 0.6292(11) -0.1844(12) 0.5130(10)
C76 C 0.5721(10) -0.1741(11) 0.5298(9)
H50 H 0.5654 -0.1501 0.5648
C77 C 0.5204(11) -0.1962(13) 0.4992(11)
H51 H 0.4793 -0.1895 0.5134
C78 C 0.5318(13) -0.2280(16) 0.4477(12)
H52 H 0.4985 -0.2396 0.4221
C79 C 0.5920(10) -0.2431(13) 0.4336(11)
H53 H 0.5998 -0.2699 0.4008
C80 C 0.6401(11) -0.2208(13) 0.4651(10)
H54 H 0.6815 -0.2305 0.4537
O7 O -0.0040(6) 0.8192(8) 0.2685(6)
C81 C 0.0525(9) 0.8289(12) 0.2969(9)
C82 C 0.0901(10) 0.8695(12) 0.2667(9)
H55 H 0.0809 0.8852 0.2281
C83 C 0.1431(12) 0.8853(15) 0.2986(12)
H56 H 0.1702 0.9167 0.2837
C84 C 0.1573(12) 0.8555(15) 0.3529(12)
H57 H 0.1945 0.8669 0.3728
C85 C 0.1223(10) 0.8131(13) 0.3773(10)
H58 H 0.1348 0.7910 0.4119
C86 C 0.0662(9) 0.8022(11) 0.3499(8)
H59 H 0.0366 0.7757 0.3685
O8 O 0.0230(7) 1.2341(9) 0.7890(7)
C87 C 0.0741(8) 1.2183(10) 0.7545(8)
C88 C 0.0748(9) 1.1780(10) 0.7061(9)
H60 H 0.0368 1.1638 0.6893
C89 C 0.1312(12) 1.1584(11) 0.6822(9)
H61 H 0.1317 1.1309 0.6491
C90 C 0.1868(9) 1.1791(14) 0.7067(13)
H62 H 0.2253 1.1658 0.6904
C91 C 0.1861(8) 1.2194(14) 0.7551(12)
H63 H 0.2241 1.2336 0.7719
C92 C 0.1297(11) 1.2390(10) 0.7790(8)
H64 H 0.1292 1.2665 0.8121
O9 O 0.1929(10) 1.2561(15) 0.4826(10)
C93 C 0.1288(11) 1.2595(17) 0.4738(12)
C94 C 0.1129(12) 1.2850(18) 0.4198(12)
H65 H 0.1422 1.2997 0.3915
C95 C 0.0489(16) 1.287(6) 0.412(3)
H66 H 0.0302 1.3050 0.3777
C96 C 0.0140(14) 1.259(2) 0.4575(17)
H67 H -0.0275 1.2493 0.4467
C97 C 0.0286(14) 1.246(2) 0.5119(16)
H68 H -0.0012 1.2354 0.5416
C98 C 0.0921(15) 1.247(3) 0.5225(15)
H69 H 0.1092 1.2398 0.5609
O10 O 0.2492(12) 1.0861(12) 0.3857(11)
C99 C 0.2717(15) 1.0263(13) 0.3805(11)
C100 C 0.2791(15) 1.0074(15) 0.3234(11)
H70 H 0.2639 1.0295 0.2898
C101 C 0.3115(19) 0.9522(17) 0.3202(14)
H71 H 0.3215 0.9354 0.2822
C102 C 0.3298(18) 0.9204(17) 0.3713(16)
H72 H 0.3503 0.8816 0.3664
C103 C 0.3208(15) 0.9403(15) 0.4249(14)
H73 H 0.3339 0.9169 0.4585
C104 C 0.291(2) 0.9965(16) 0.4312(13)
H74 H 0.2847 1.0143 0.4694
O11 O 0.8129(8) 0.0053(9) 0.4932(8)
C105 C 0.7768(12) -0.0391(13) 0.4597(11)
O12 O 0.7903(8) 0.7898(10) 0.5287(8)
C106 C 0.7938(14) 0.7381(14) 0.5666(14)
O13 O 0.8188(19) -0.0371(19) 0.6058(17)
C107 C 0.8021(14) -0.0918(17) 0.6372(14)
O14 O 0.2650(14) 1.0457(17) 0.6819(14)
C108 C 0.307(2) 1.067(3) 0.637(2)
O15 O 0.2359(17) 1.140(2) 0.4918(18)
C109 C 0.218(4) 1.107(4) 0.544(3)
loop_
_geom_bond_atom_site_label_1
_geom_bond_atom_site_label_2
_geom_bond_site_symmetry_1
_geom_bond_site_symmetry_2
Zn1 I1 1_555 1_555
N1 Zn1 1_555 1_555
C1 N1 1_555 1_555
H1 C1 1_555 1_555
C2 C1 1_555 1_555
H2 C2 1_555 1_555
C3 C2 1_555 1_555
C4 C3 1_555 1_555
H3 C4 1_555 1_555
C5 N1 1_555 1_555
H4 C5 1_555 1_555
N2 C6 1_555 1_555
C6 H5 1_555 1_555
C7 C6 1_555 1_555
H6 C7 1_555 1_555
C8 C7 1_555 1_555
C9 C8 1_555 1_555
H7 C9 1_555 1_555
C10 N2 1_555 1_555
H8 C10 1_555 1_555
N3 C11 1_555 1_555
C11 H9 1_555 1_555
C12 C11 1_555 1_555
H10 C12 1_555 1_555
C13 C12 1_555 1_555
C14 C13 1_555 1_555
H11 C14 1_555 1_555
C15 N3 1_555 1_555
H12 C15 1_555 1_555
C16 C3 1_555 1_555
N4 C16 1_555 1_555
C17 N4 1_555 1_555
N5 C17 1_555 1_555
C18 C8 1_555 1_555
N6 C18 1_555 1_555
C19 N6 1_555 1_555
N7 C19 1_555 1_555
C20 C13 1_555 1_555
N8 C20 1_555 1_555
C21 N8 1_555 1_555
N9 C16 1_555 1_555
C22 C17 1_555 1_555
Zn2 I2 1_555 1_555
N10 Zn2 1_555 1_555
C23 N10 1_555 1_555
H13 C23 1_555 1_555
C24 C23 1_555 1_555
H14 C24 1_555 1_555
C25 C24 1_555 1_555
C26 C25 1_555 1_555
H15 C26 1_555 1_555
C27 N10 1_555 1_555
H16 C27 1_555 1_555
N11 C28 1_555 1_555
C28 H17 1_555 1_555
C29 C28 1_555 1_555
H18 C29 1_555 1_555
C30 C29 1_555 1_555
C31 C30 1_555 1_555
H19 C31 1_555 1_555
C32 N11 1_555 1_555
H20 C32 1_555 1_555
N12 C33 1_555 1_555
C33 H21 1_555 1_555
C34 C33 1_555 1_555
H22 C34 1_555 1_555
C35 C34 1_555 1_555
C36 C35 1_555 1_555
H23 C36 1_555 1_555
C37 N12 1_555 1_555
H24 C37 1_555 1_555
C38 C25 1_555 1_555
N13 C38 1_555 1_555
C39 N13 1_555 1_555
N14 C39 1_555 1_555
C40 C30 1_555 1_555
N15 C40 1_555 1_555
C41 N15 1_555 1_555
N16 C41 1_555 1_555
C42 C35 1_555 1_555
N17 C42 1_555 1_555
C43 N17 1_555 1_555
N18 C38 1_555 1_555
C44 C39 1_555 1_555
O1 C45 1_555 1_555
C45 C46 1_555 1_555
C46 H25 1_555 1_555
C47 C46 1_555 1_555
H26 C47 1_555 1_555
C48 C47 1_555 1_555
H27 C48 1_555 1_555
C49 C48 1_555 1_555
H28 C49 1_555 1_555
C50 C45 1_555 1_555
H29 C50 1_555 1_555
O2 C51 1_555 1_555
C51 C52 1_555 1_555
C52 H30 1_555 1_555
C53 C52 1_555 1_555
H31 C53 1_555 1_555
C54 C53 1_555 1_555
H32 C54 1_555 1_555
C55 C54 1_555 1_555
H33 C55 1_555 1_555
C56 C51 1_555 1_555
H34 C56 1_555 1_555
O3 C57 1_555 1_555
C57 C58 1_555 1_555
C58 H35 1_555 1_555
C59 C58 1_555 1_555
H36 C59 1_555 1_555
C60 C59 1_555 1_555
H37 C60 1_555 1_555
C61 C60 1_555 1_555
H38 C61 1_555 1_555
C62 C57 1_555 1_555
H39 C62 1_555 1_555
O4 C63 1_555 1_555
C63 C64 1_555 1_555
C64 H40 1_555 1_555
C65 C64 1_555 1_555
H41 C65 1_555 1_555
C66 C65 1_555 1_555
H42 C66 1_555 1_555
C67 C66 1_555 1_555
H43 C67 1_555 1_555
C68 C63 1_555 1_555
H44 C68 1_555 1_555
O5 C69 1_555 1_555
C69 C70 1_555 1_555
C70 H45 1_555 1_555
C71 C70 1_555 1_555
H46 C71 1_555 1_555
C72 C71 1_555 1_555
H47 C72 1_555 1_555
C73 C72 1_555 1_555
H48 C73 1_555 1_555
C74 C69 1_555 1_555
H49 C74 1_555 1_555
O6 C75 1_555 1_555
C75 C76 1_555 1_555
C76 H50 1_555 1_555
C77 C76 1_555 1_555
H51 C77 1_555 1_555
C78 C77 1_555 1_555
H52 C78 1_555 1_555
C79 C78 1_555 1_555
H53 C79 1_555 1_555
C80 C75 1_555 1_555
H54 C80 1_555 1_555
O7 C81 1_555 1_555
C81 C82 1_555 1_555
C82 H55 1_555 1_555
C83 C82 1_555 1_555
H56 C83 1_555 1_555
C84 C83 1_555 1_555
H57 C84 1_555 1_555
C85 C84 1_555 1_555
H58 C85 1_555 1_555
C86 C81 1_555 1_555
H59 C86 1_555 1_555
O8 C87 1_555 1_555
C87 C88 1_555 1_555
C88 H60 1_555 1_555
C89 C88 1_555 1_555
H61 C89 1_555 1_555
C90 C89 1_555 1_555
H62 C90 1_555 1_555
C91 C90 1_555 1_555
H63 C91 1_555 1_555
C92 C87 1_555 1_555
H64 C92 1_555 1_555
O9 C93 1_555 1_555
C93 C94 1_555 1_555
C94 H65 1_555 1_555
C95 C94 1_555 1_555
H66 C95 1_555 1_555
C96 C95 1_555 1_555
H67 C96 1_555 1_555
C97 C96 1_555 1_555
H68 C97 1_555 1_555
C98 C93 1_555 1_555
H69 C98 1_555 1_555
O10 C99 1_555 1_555
C99 C100 1_555 1_555
C100 H70 1_555 1_555
C101 C100 1_555 1_555
H71 C101 1_555 1_555
C102 C101 1_555 1_555
H72 C102 1_555 1_555
C103 C102 1_555 1_555
H73 C103 1_555 1_555
C104 C99 1_555 1_555
H74 C104 1_555 1_555
O11 C105 1_555 1_555
O12 C106 1_555 1_555
O13 C107 1_555 1_555
O14 C108 1_555 1_555
O15 C109 1_555 1_555
Zn1B N3 1_555 1_555
Zn1C N2 1_555 1_555
N2C Zn1 1_555 1_555
N3B Zn1 1_555 1_555
Zn2A N12 1_555 1_555
Zn2C N11 1_555 1_555
N11C Zn2 1_555 1_555
N12A Zn2 1_555 1_555
C4 C5 1_555 1_555
C9 C10 1_555 1_555
C14 C15 1_555 1_555
N5 C18 1_555 1_555
C19 C22 1_555 1_555
N7 C20 1_555 1_555
C21 N9 1_555 1_555
C21 C22 1_555 1_555
C26 C27 1_555 1_555
C31 C32 1_555 1_555
C36 C37 1_555 1_555
N14 C40 1_555 1_555
C41 C44 1_555 1_555
N16 C42 1_555 1_555
C43 N18 1_555 1_555
C43 C44 1_555 1_555
C49 C50 1_555 1_555
C55 C56 1_555 1_555
C61 C62 1_555 1_555
C67 C68 1_555 1_555
C73 C74 1_555 1_555
C79 C80 1_555 1_555
C85 C86 1_555 1_555
C91 C92 1_555 1_555
C97 C98 1_555 1_555
C103 C104 1_555 1_555

#END
