
#######################################################################
#
#                 Cambridge Crystallographic Data Centre
#                                CCDC 
#
#######################################################################
#
# If this CIF has been generated from an entry in the Cambridge 
# Structural Database, then it will include bibliographic, chemical, 
# crystal, experimental, refinement or atomic coordinate data resulting 
# from the CCDC's data processing and validation procedures.
#
#######################################################################

data_VIZSUU
_symmetry_cell_setting           rhombohedral
_symmetry_space_group_name_H-M   'R -3 c'
_symmetry_Int_Tables_number      167
_space_group_name_Hall           '-R 3 2"c'
loop_
_symmetry_equiv_pos_site_id
_symmetry_equiv_pos_as_xyz
1 x,y,z
2 -y,x-y,z
3 y,x,1/2-z
4 -x+y,-x,z
5 -x,-x+y,1/2-z
6 x-y,-y,1/2-z
7 2/3+x,1/3+y,1/3+z
8 2/3-y,1/3+x-y,1/3+z
9 2/3+y,1/3+x,5/6-z
10 2/3-x+y,1/3-x,1/3+z
11 2/3-x,1/3-x+y,5/6-z
12 2/3+x-y,1/3-y,5/6-z
13 1/3+x,2/3+y,2/3+z
14 1/3-y,2/3+x-y,2/3+z
15 1/3+y,2/3+x,1/6-z
16 1/3-x+y,2/3-x,2/3+z
17 1/3-x,2/3-x+y,1/6-z
18 1/3+x-y,2/3-y,1/6-z
19 -x,-y,-z
20 y,-x+y,-z
21 -y,-x,1/2+z
22 x-y,x,-z
23 x,x-y,1/2+z
24 -x+y,y,1/2+z
25 1/3-x,2/3-y,2/3-z
26 1/3+y,2/3-x+y,2/3-z
27 1/3-y,2/3-x,1/6+z
28 1/3+x-y,2/3+x,2/3-z
29 1/3+x,2/3+x-y,1/6+z
30 1/3-x+y,2/3+y,1/6+z
31 2/3-x,1/3-y,1/3-z
32 2/3+y,1/3-x+y,1/3-z
33 2/3-y,1/3-x,5/6+z
34 2/3+x-y,1/3+x,1/3-z
35 2/3+x,1/3+x-y,5/6+z
36 2/3-x+y,1/3+y,5/6+z
_cell_length_a                   44.006(1)
_cell_length_b                   44.006(1)
_cell_length_c                   28.267(1)
_cell_angle_alpha                90
_cell_angle_beta                 90
_cell_angle_gamma                120
_cell_volume                     47406.1
loop_
_atom_site_label
_atom_site_type_symbol
_atom_site_fract_x
_atom_site_fract_y
_atom_site_fract_z
Zn1 Zn 0.492837(19) 0.645565(17) -0.193100(19)
I1 I 0.454047(19) 0.671974(19) -0.19214(2)
N1 N 0.54373(13) 0.68255(11) -0.17890(13)
C1 C 0.55882(18) 0.71303(15) -0.20397(18)
H1 H 0.5453 0.7158 -0.2280
C2 C 0.59192(17) 0.73954(16) -0.19655(18)
H2 H 0.6017 0.7602 -0.2154
C3 C 0.61129(17) 0.73572(14) -0.16044(16)
C4 C 0.59688(16) 0.70488(14) -0.13556(16)
H3 H 0.6098 0.7016 -0.1112
C5 C 0.56288(18) 0.67842(15) -0.14658(17)
H4 H 0.5533 0.6567 -0.1302
N2 N 0.79538(13) 0.94234(12) -0.30932(13)
C6 C 0.81080(18) 0.94512(15) -0.26707(17)
H5 H 0.8336 0.9646 -0.2618
C7 C 0.79530(16) 0.92122(15) -0.23146(17)
H6 H 0.8069 0.9243 -0.2020
C8 C 0.76224(16) 0.89233(14) -0.23896(16)
C9 C 0.74532(17) 0.89022(17) -0.28168(18)
H7 H 0.7221 0.8716 -0.2872
C10 C 0.76252(18) 0.91507(16) -0.31525(18)
H8 H 0.7509 0.9132 -0.3443
N3 N 0.79362(15) 0.83520(13) 0.07889(13)
C11 C 0.7641(2) 0.8069(2) 0.0683(2)
H9 H 0.7541 0.7885 0.0909
C12 C 0.74650(18) 0.80237(17) 0.02634(19)
H10 H 0.7249 0.7813 0.0210
C13 C 0.75936(17) 0.82709(15) -0.00684(16)
C14 C 0.7898(3) 0.8578(2) 0.0037(2)
H11 H 0.7995 0.8767 -0.0181
C15 C 0.8063(3) 0.8605(2) 0.0475(2)
H12 H 0.8274 0.8815 0.0546
C16 C 0.64740(15) 0.76556(13) -0.15055(16)
N4 N 0.66181(13) 0.78894(12) -0.18643(13)
C17 C 0.69456(15) 0.81558(13) -0.17851(15)
N5 N 0.71119(13) 0.83996(11) -0.21264(13)
C18 C 0.74365(17) 0.86480(14) -0.20147(16)
N6 N 0.76233(13) 0.86996(12) -0.16166(14)
C19 C 0.74517(17) 0.84583(14) -0.12752(15)
N7 N 0.76101(14) 0.84842(12) -0.08504(13)
C20 C 0.74208(17) 0.82359(15) -0.05365(15)
N8 N 0.70915(14) 0.79542(12) -0.05741(13)
C21 C 0.69314(17) 0.79261(15) -0.10021(16)
N9 N 0.66088(13) 0.76572(12) -0.10788(14)
C22 C 0.71104(16) 0.81812(13) -0.13491(15)
Zn1I Zn 0.819395(25) 0.840496(19) 0.140233(19)
Zn1IA Zn 0.819395(25) 0.978898(17) -0.359767(19)
N2CA N 0.48029(18) 0.60901(12) -0.14265(13)
N3M N 0.49813(13) 0.62509(20) -0.25444(13)
O1 O 0.7303(4) 0.7077(3) 0.0560(5)
C23 C 0.7176(18) 0.6820(11) 0.0895(14)
O2 O 0.6872(13) 0.5398(9) 0.1668(13)
C24 C 0.6935(18) 0.5733(12) 0.149(2)
O3 O 0.6911(16) 0.6576(21) 0.242(2)
C25 C 0.686(3) 0.652(4) 0.192(2)
C26 C 0.7033(5) 0.6230(6) 0.1339(7)
C27 C 0.7126(7) 0.6035(7) 0.1049(10)
H13 H 0.7076 0.5807 0.1144
C28 C 0.7294(8) 0.6173(10) 0.0620(10)
H14 H 0.7358 0.6039 0.0422
C29 C 0.7368(7) 0.6506(11) 0.0482(8)
H15 H 0.7483 0.6601 0.0189
C30 C 0.7275(8) 0.6702(7) 0.0772(11)
C31 C 0.7108(7) 0.6564(6) 0.1200(10)
H16 H 0.7044 0.6697 0.1399
N10 N 0.6860(9) 0.6093(7) 0.1797(8)
O4 O 0.6808(9) 0.6303(7) 0.2014(10)
O5 O 0.6776(6) 0.5799(6) 0.1941(8)
O6 O 0.6812(22) 0.4525(15) -0.094(2)
C32 C 0.695(3) 0.471(2) -0.138(3)
O7 O 0.7104(15) 0.4810(14) 0.2251(17)
C33 C 0.6940(14) 0.4932(14) 0.1927(19)
O8 O 0.7540(15) 0.7451(15) -0.457(2)
C34 C 0.7263(14) 0.7292(14) -0.4235(19)
O9 O 0.6446(14) 0.2919(13) -0.1073(19)
C35 C 0.6681(16) 0.3030(16) -0.069(2)
O10 O 0.62642(19) 0.72594(19) -0.0231(3)
C36 C 0.6455(3) 0.7186(3) 0.0079(4)
C37? C 0.7199(4) 0.5103(4) 0.0253(5)
C38? C 0.7124(4) 0.5173(4) 0.0704(6)
H17? H 0.7113 0.5380 0.0762
C39? C 0.7066(5) 0.4940(5) 0.1072(5)
H18? H 0.7015 0.4988 0.1380
C40? C 0.7082(5) 0.4637(5) 0.0988(6)
H19? H 0.7042 0.4478 0.1239
C41? C 0.7157(6) 0.4567(4) 0.0537(8)
H20? H 0.7168 0.4360 0.0479
C42? C 0.7215(5) 0.4800(5) 0.0169(5)
H21? H 0.7266 0.4753 -0.0139
N11? N 0.7261(8) 0.5331(6) -0.0158(7)
O11? O 0.7389(6) 0.5254(6) -0.0488(8)
O12? O 0.7225(10) 0.5588(8) -0.0157(12)
O13? O 0.6990(7) 0.5116(8) -0.1571(10)
C43? C 0.7206(7) 0.5079(7) -0.1888(10)
O14? O 0.6907(17) 0.3499(18) 0.072(2)
C44? C 0.6908(13) 0.3648(12) 0.0276(18)
O15? O 0.8657(5) 0.6503(4) -0.0678(6)
C45? C 0.8159(6) 0.7037(4) -0.0556(5)
H22? H 0.7326 0.6929 0.0677
C46? C 0.8504(3) 0.6937(3) -0.0473(3)
C47? C 0.8477(3) 0.7219(3) -0.0641(3)
H23? H 0.8555 0.7306 -0.0951
C48? C 0.8336(3) 0.7375(3) -0.0355(5)
H24? H 0.8317 0.7568 -0.0469
C49? C 0.8221(3) 0.7247(3) 0.0099(4)
H25? H 0.8125 0.7353 0.0295
C50? C 0.8248(3) 0.6965(4) 0.0267(3)
H26? H 0.8170 0.6878 0.0577
C51? C 0.8389(3) 0.6809(3) -0.0019(4)
H27? H 0.8407 0.6616 0.0096
N12? N 0.8650(4) 0.6775(4) -0.0784(5)
O16? O 0.8771(4) 0.6929(3) -0.1153(4)
C52? C 0.7808(7) 0.6780(5) -0.0599(6)
H28? H 0.7681 0.6769 -0.0876
C53? C 0.7644(6) 0.6539(4) -0.0236(7)
H29? H 0.7405 0.6364 -0.0265
C54? C 0.7830(7) 0.6556(5) 0.0170(6)
H30? H 0.7718 0.6391 0.0418
C55? C 0.8181(6) 0.6813(5) 0.0212(5)
H31? H 0.8308 0.6824 0.0489
C56? C 0.8346(6) 0.7054(4) -0.0151(5)
H32? H 0.8586 0.7230 -0.0122
N13? N 0.8359(9) 0.7293(6) -0.0935(7)
O17? O 0.8206(9) 0.7225(6) -0.1312(7)
O18? O 0.8656(11) 0.7540(7) -0.0867(9)
loop_
_geom_bond_atom_site_label_1
_geom_bond_atom_site_label_2
_geom_bond_site_symmetry_1
_geom_bond_site_symmetry_2
Zn1 I1 1_555 1_555
N1 Zn1 1_555 1_555
C1 N1 1_555 1_555
H1 C1 1_555 1_555
C2 C1 1_555 1_555
H2 C2 1_555 1_555
C3 C2 1_555 1_555
C4 C3 1_555 1_555
H3 C4 1_555 1_555
C5 N1 1_555 1_555
H4 C5 1_555 1_555
N2 C6 1_555 1_555
C6 H5 1_555 1_555
C7 C6 1_555 1_555
H6 C7 1_555 1_555
C8 C7 1_555 1_555
C9 C8 1_555 1_555
H7 C9 1_555 1_555
C10 N2 1_555 1_555
H8 C10 1_555 1_555
N3 C11 1_555 1_555
C11 H9 1_555 1_555
C12 C11 1_555 1_555
H10 C12 1_555 1_555
C13 C12 1_555 1_555
C14 C13 1_555 1_555
H11 C14 1_555 1_555
C15 N3 1_555 1_555
H12 C15 1_555 1_555
C16 C3 1_555 1_555
N4 C16 1_555 1_555
C17 N4 1_555 1_555
N5 C17 1_555 1_555
C18 C8 1_555 1_555
N6 C18 1_555 1_555
C19 N6 1_555 1_555
N7 C19 1_555 1_555
C20 C13 1_555 1_555
N8 C20 1_555 1_555
C21 N8 1_555 1_555
N9 C16 1_555 1_555
C22 C17 1_555 1_555
O1 C23 1_555 1_555
O2 C24 1_555 1_555
O3 C25 1_555 1_555
C26 C27 1_555 1_555
C27 H13 1_555 1_555
C28 C27 1_555 1_555
H14 C28 1_555 1_555
C29 C28 1_555 1_555
H15 C29 1_555 1_555
C30 C29 1_555 1_555
C31 C26 1_555 1_555
H16 C31 1_555 1_555
N10 C26 1_555 1_555
O4 N10 1_555 1_555
O5 N10 1_555 1_555
O6 C32 1_555 1_555
O7 C33 1_555 1_555
O8 C34 1_555 1_555
O9 C35 1_555 1_555
O10 C36 1_555 1_555
Zn1I N3 1_555 1_555
Zn1IA N2 1_555 1_555
N2CA Zn1 1_555 1_555
N3M Zn1 1_555 1_555
C4 C5 1_555 1_555
C9 C10 1_555 1_555
C14 C15 1_555 1_555
N5 C18 1_555 1_555
C19 C22 1_555 1_555
N7 C20 1_555 1_555
C21 N9 1_555 1_555
C21 C22 1_555 1_555
C30 C31 1_555 1_555

#END
