
#######################################################################
#
#                 Cambridge Crystallographic Data Centre
#                                CCDC 
#
#######################################################################
#
# If this CIF has been generated from an entry in the Cambridge 
# Structural Database, then it will include bibliographic, chemical, 
# crystal, experimental, refinement or atomic coordinate data resulting 
# from the CCDC's data processing and validation procedures.
#
#######################################################################

data_VIZTOP
_symmetry_cell_setting           tetragonal
_symmetry_space_group_name_H-M   'P 42/n'
_symmetry_Int_Tables_number      86
_space_group_name_Hall           '-P 4bc'
loop_
_symmetry_equiv_pos_site_id
_symmetry_equiv_pos_as_xyz
1 x,y,z
2 1/2-x,1/2-y,z
3 -y,1/2+x,1/2+z
4 1/2+y,-x,1/2+z
5 -x,-y,-z
6 1/2+x,1/2+y,-z
7 y,1/2-x,1/2-z
8 1/2-y,x,1/2-z
_cell_length_a                   16.4481(4)
_cell_length_b                   16.4481(4)
_cell_length_c                   13.2722(6)
_cell_angle_alpha                90
_cell_angle_beta                 90
_cell_angle_gamma                90
_cell_volume                     3590.66
loop_
_atom_site_label
_atom_site_type_symbol
_atom_site_fract_x
_atom_site_fract_y
_atom_site_fract_z
Cd1 Cd 0.5000 0.5000 0.0000
N1 N 0.41793(15) 0.52895(15) 0.1440(2)
N2 N 0.50206(16) 0.63816(15) 0.0317(2)
N3 N 0.54589(18) 0.70187(17) -0.00752(18)
N4 N 0.48552(15) 0.74132(14) 0.13285(18)
N5 N 0.5418(2) 0.90594(18) 0.0885(3)
N6 N 0.47633(17) 0.89177(16) 0.3871(2)
C1 C 0.3705(2) 0.4748(2) 0.1905(3)
H1 H 0.3734 0.4206 0.1706
C2 C 0.3174(2) 0.4954(2) 0.2670(3)
H2 H 0.2854 0.4560 0.2978
C3 C 0.3128(2) 0.5752(2) 0.2963(3)
H3 H 0.2776 0.5907 0.3476
C4 C 0.3611(2) 0.6322(2) 0.2490(3)
H4 H 0.3587 0.6867 0.2677
C5 C 0.41311(18) 0.60720(18) 0.1732(2)
C6 C 0.46639(17) 0.66168(17) 0.1153(2)
C7 C 0.53592(19) 0.76337(18) 0.0545(2)
C8 C 0.5744(2) 0.8431(2) 0.0396(3)
C9 C 0.6390(3) 0.8500(3) -0.0242(3)
H5 H 0.6611 0.8044 -0.0554
C10 C 0.6710(3) 0.9269(3) -0.0414(4)
H6 H 0.7139 0.9338 -0.0862
C11 C 0.6393(4) 0.9920(3) 0.0075(4)
H7 H 0.6601 1.0439 -0.0023
C12 C 0.5754(3) 0.9787(2) 0.0720(4)
H8 H 0.5541 1.0231 0.1064
C13 C 0.47555(19) 0.78832(18) 0.2246(2)
C14 C 0.4150(2) 0.8454(2) 0.2342(3)
H9 H 0.3737 0.8499 0.1866
C15 C 0.4180(2) 0.8957(2) 0.3171(3)
H10 H 0.3773 0.9344 0.3248
C16 C 0.5311(2) 0.8334(2) 0.3781(3)
H11 H 0.5707 0.8286 0.4277
C17 C 0.5322(2) 0.7791(2) 0.2983(3)
H12 H 0.5706 0.7377 0.2952
N1D N 0.58207(15) 0.47105(15) -0.1440(2)
N2D N 0.49794(16) 0.36184(15) -0.0317(2)
N3D N 0.45411(18) 0.29813(17) 0.00752(18)
N4D N 0.51448(15) 0.25868(14) -0.13285(18)
N5D N 0.4582(2) 0.09406(18) -0.0885(3)
N6D N 0.52367(17) 0.10823(16) -0.3871(2)
C1D C 0.6295(2) 0.5252(2) -0.1905(3)
H1D H 0.6266 0.5794 -0.1706
C2D C 0.6826(2) 0.5046(2) -0.2670(3)
H2D H 0.7146 0.5440 -0.2978
C3D C 0.6872(2) 0.4248(2) -0.2963(3)
H3D H 0.7224 0.4093 -0.3476
C4D C 0.6389(2) 0.3678(2) -0.2490(3)
H4D H 0.6413 0.3133 -0.2677
C5D C 0.58689(18) 0.39280(18) -0.1732(2)
C6D C 0.53361(17) 0.33832(17) -0.1153(2)
C7D C 0.46408(19) 0.23663(18) -0.0545(2)
C8D C 0.4256(2) 0.1569(2) -0.0396(3)
C9D C 0.3610(3) 0.1500(3) 0.0242(3)
H5D H 0.3389 0.1956 0.0554
C10D C 0.3290(3) 0.0731(3) 0.0414(4)
H6D H 0.2861 0.0662 0.0862
C11D C 0.3607(4) 0.0080(3) -0.0075(4)
H7D H 0.3399 -0.0439 0.0023
C12D C 0.4246(3) 0.0213(2) -0.0720(4)
H8D H 0.4459 -0.0231 -0.1064
C13D C 0.52445(19) 0.21168(18) -0.2246(2)
C14D C 0.5850(2) 0.1546(2) -0.2342(3)
H9D H 0.6263 0.1501 -0.1866
C15D C 0.5820(2) 0.1043(2) -0.3171(3)
H10D H 0.6227 0.0656 -0.3248
C16D C 0.4689(2) 0.1666(2) -0.3781(3)
H11D H 0.4293 0.1714 -0.4277
C17D C 0.4678(2) 0.2209(2) -0.2983(3)
H12D H 0.4294 0.2623 -0.2952
Cd1B Cd 0.5000 0.0000 -0.5000
Cd1B_2 Cd 0.5000 1.0000 0.5000
N6C N 0.39177(16) 0.52367(17) -0.1129(2)
N6G N 0.60823(16) 0.47633(17) 0.1129(2)
Cl1 Cl 0.2500 0.2500 0.2500
O1 O 0.3017(2) 0.2975(2) 0.1887(3)
O1A O 0.1983(2) 0.2025(2) 0.1887(3)
O1F O 0.2975(2) 0.1983(2) 0.3113(3)
O1G O 0.2025(2) 0.3017(2) 0.3113(3)
Cl2 Cl 0.7500 0.7500 0.2500
O2 O 0.7146(3) 0.8116(3) 0.3129(3)
O2A O 0.7854(3) 0.6884(3) 0.3129(3)
O2F O 0.8116(3) 0.7854(3) 0.1871(3)
O2G O 0.6884(3) 0.7146(3) 0.1871(3)
O3? O 0.7500 0.2500 0.89353(13)
O4? O 0.7744(15) 0.1739(6) 1.0462(11)
O5? O 0.6676(5) 0.2693(17) 1.0300(11)
O6? O 0.8033(15) 0.3137(12) 1.0363(12)
Cl3? Cl 0.7500 0.2500 1.00202(10)
O7? O 0.7500 0.2500 1.11054(13)
O8? O 0.8286(3) 0.2752(7) 0.9661(7)
O9? O 0.6899(8) 0.3081(9) 0.9697(8)
O10? O 0.7283(11) 0.1729(6) 0.9582(13)
loop_
_geom_bond_atom_site_label_1
_geom_bond_atom_site_label_2
_geom_bond_site_symmetry_1
_geom_bond_site_symmetry_2
Cd1 N1 1_555 1_555
N1 C1 1_555 1_555
N2 Cd1 1_555 1_555
N3 N2 1_555 1_555
N4 C6 1_555 1_555
N5 C8 1_555 1_555
N6 C15 1_555 1_555
C1 H1 1_555 1_555
C2 C1 1_555 1_555
H2 C2 1_555 1_555
C3 C2 1_555 1_555
H3 C3 1_555 1_555
C4 C3 1_555 1_555
H4 C4 1_555 1_555
C5 N1 1_555 1_555
C6 N2 1_555 1_555
C7 N3 1_555 1_555
C8 C7 1_555 1_555
C9 C8 1_555 1_555
H5 C9 1_555 1_555
C10 C9 1_555 1_555
H6 C10 1_555 1_555
C11 C10 1_555 1_555
H7 C11 1_555 1_555
C12 N5 1_555 1_555
H8 C12 1_555 1_555
C13 N4 1_555 1_555
C14 C13 1_555 1_555
H9 C14 1_555 1_555
C15 C14 1_555 1_555
H10 C15 1_555 1_555
C16 N6 1_555 1_555
H11 C16 1_555 1_555
C17 C13 1_555 1_555
H12 C17 1_555 1_555
Cl1 O1 1_555 1_555
Cl2 O2 1_555 1_555
N1D Cd1 1_555 1_555
N2D Cd1 1_555 1_555
N3D N2D 1_555 1_555
N4D C6D 1_555 1_555
N5D C8D 1_555 1_555
N6D C15D 1_555 1_555
C1D N1D 1_555 1_555
H1D C1D 1_555 1_555
C2D C1D 1_555 1_555
H2D C2D 1_555 1_555
C3D C2D 1_555 1_555
H3D C3D 1_555 1_555
C4D C3D 1_555 1_555
H4D C4D 1_555 1_555
C5D N1D 1_555 1_555
C6D N2D 1_555 1_555
C7D N3D 1_555 1_555
C8D C7D 1_555 1_555
C9D C8D 1_555 1_555
H5D C9D 1_555 1_555
C10D C9D 1_555 1_555
H6D C10D 1_555 1_555
C11D C10D 1_555 1_555
H7D C11D 1_555 1_555
C12D N5D 1_555 1_555
H8D C12D 1_555 1_555
C13D N4D 1_555 1_555
C14D C13D 1_555 1_555
H9D C14D 1_555 1_555
C15D C14D 1_555 1_555
H10D C15D 1_555 1_555
C16D N6D 1_555 1_555
H11D C16D 1_555 1_555
C17D C13D 1_555 1_555
H12D C17D 1_555 1_555
Cd1B N6D 1_555 1_555
Cd1B_2 N6 1_555 1_555
N6C Cd1 1_555 1_555
N6G Cd1 1_555 1_555
O1A Cl1 1_555 1_555
O1F Cl1 1_555 1_555
O1G Cl1 1_555 1_555
O2A Cl2 1_555 1_555
O2F Cl2 1_555 1_555
O2G Cl2 1_555 1_555
N4 C7 1_555 1_555
C4 C5 1_555 1_555
C5 C6 1_555 1_555
C11 C12 1_555 1_555
C16 C17 1_555 1_555
N4D C7D 1_555 1_555
C4D C5D 1_555 1_555
C5D C6D 1_555 1_555
C11D C12D 1_555 1_555
C16D C17D 1_555 1_555

#END
