
#######################################################################
#
#                 Cambridge Crystallographic Data Centre
#                                CCDC 
#
#######################################################################
#
# If this CIF has been generated from an entry in the Cambridge 
# Structural Database, then it will include bibliographic, chemical, 
# crystal, experimental, refinement or atomic coordinate data resulting 
# from the CCDC's data processing and validation procedures.
#
#######################################################################

data_VOBCUM
_symmetry_cell_setting           triclinic
_symmetry_space_group_name_H-M   'P -1'
_symmetry_Int_Tables_number      2
_space_group_name_Hall           '-P 1'
loop_
_symmetry_equiv_pos_site_id
_symmetry_equiv_pos_as_xyz
1 x,y,z
2 -x,-y,-z
_cell_length_a                   8.486(2)
_cell_length_b                   17.861(5)
_cell_length_c                   26.410(8)
_cell_angle_alpha                86.811(4)
_cell_angle_beta                 89.356(3)
_cell_angle_gamma                88.768(4)
_cell_volume                     3995.6
loop_
_atom_site_label
_atom_site_type_symbol
_atom_site_fract_x
_atom_site_fract_y
_atom_site_fract_z
Sm1 Sm 0.967348(17) 0.469614(9) 0.267881(5)
Sm2 Sm 0.467129(17) 0.519787(9) 0.233342(5)
O1 O 0.9126(2) 0.59285(12) 0.23406(8)
O2 O 0.6534(2) 0.61284(12) 0.24425(8)
O3 O 0.3173(3) 0.63668(12) 0.24162(8)
O4 O 0.1931(2) 0.54475(11) 0.28360(7)
O5 O 0.0259(2) 0.46514(13) 0.17984(7)
O6 O 0.2822(2) 0.48992(13) 0.17204(7)
O7 O 0.1676(2) 0.37699(12) 0.26027(8)
O8 O 0.4237(2) 0.39698(12) 0.26723(8)
O9 O 0.7064(2) 0.44858(11) 0.21861(7)
O10 O 0.8284(2) 0.35239(12) 0.25793(8)
O11 O 1.2279(2) 0.49826(12) 0.67268(7)
O12 O 1.4871(2) 0.47611(13) 0.67712(7)
N1 N 0.8290(5) 0.9158(2) 0.07175(13)
N2 N 0.7237(5) 0.8848(3) -0.00205(14)
N3 N -0.1147(4) 0.91238(17) 0.36986(13)
N4 N -0.0936(5) 1.0348(2) 0.35024(18)
N5 N 0.2605(3) 0.39175(16) -0.08394(9)
N6 N 0.4320(3) 0.42958(15) -0.14429(9)
N7 N 0.5023(5) 0.07585(19) 0.43686(15)
N8 N 0.7084(5) 0.0375(3) 0.48411(17)
N9 N 0.3889(4) 0.10254(17) 0.12026(12)
N10 N 0.4043(5) -0.0234(2) 0.12702(15)
N11 N 1.2293(3) 0.39078(15) 0.41960(9)
N12 N 1.0616(3) 0.42251(15) 0.35764(9)
C1 C 0.7884(4) 0.63300(17) 0.22880(11)
C2 C 0.8051(4) 0.70934(18) 0.20372(12)
C3 C 0.9478(4) 0.73371(19) 0.18499(13)
H1 H 1.0372 0.7029 0.1882
C4 C 0.9575(5) 0.8039(2) 0.16142(14)
H2 H 1.0547 0.8204 0.1492
C5 C 0.8249(5) 0.85118(19) 0.15529(14)
C6 C 0.6800(5) 0.8251(2) 0.17300(15)
H3 H 0.5897 0.8550 0.1683
C7 C 0.6697(4) 0.7553(2) 0.19743(14)
H4 H 0.5728 0.7385 0.2098
C8 C 0.8381(6) 0.9265(2) 0.12551(16)
H5 H 0.7535 0.9601 0.1356
H6 H 0.9375 0.9492 0.1329
C9 C 0.9607(5) 0.9085(2) 0.03773(16)
C10 C 1.1177(6) 0.9202(2) 0.04118(18)
H7 H 1.1613 0.9335 0.0715
C11 C 1.2065(6) 0.9122(3) 0.00075(19)
H8 H 1.3131 0.9227 0.0027
C12 C 1.1472(6) 0.8883(3) -0.0463(2)
H9 H 1.2151 0.8799 -0.0734
C13 C 0.9937(7) 0.8784(3) -0.05034(18)
H10 H 0.9526 0.8651 -0.0810
C14 C 0.8913(6) 0.8878(3) -0.00820(17)
C15 C 0.6989(5) 0.9002(3) 0.04577(17)
H11 H 0.5988 0.9003 0.0605
C16 C 0.2210(3) 0.61509(18) 0.27495(11)
C17 C 0.1427(4) 0.67268(18) 0.30688(11)
C18 C 0.1733(4) 0.7468(2) 0.29777(14)
H12 H 0.2444 0.7613 0.2722
C19 C 0.0994(5) 0.8014(2) 0.32626(15)
H13 H 0.1235 0.8516 0.3198
C20 C -0.0078(5) 0.7819(2) 0.36347(14)
C21 C -0.0361(5) 0.7069(2) 0.37332(14)
H14 H -0.1058 0.6929 0.3994
C22 C 0.0361(4) 0.6513(2) 0.34547(13)
H15 H 0.0138 0.6010 0.3525
C23 C -0.0879(6) 0.8385(2) 0.39561(16)
H16 H -0.1886 0.8190 0.4072
H17 H -0.0242 0.8444 0.4253
C24 C -0.2304(5) 0.9312(2) 0.33397(15)
C25 C -0.3404(6) 0.8901(3) 0.31198(19)
H18 H -0.3467 0.8387 0.3189
C26 C -0.4391(9) 0.9267(4) 0.2799(2)
H19 H -0.5155 0.9000 0.2641
C27 C -0.4309(9) 1.0047(4) 0.2694(2)
H20 H -0.5068 1.0285 0.2487
C28 C -0.3156(7) 1.0464(3) 0.28849(19)
H21 H -0.3052 1.0972 0.2796
C29 C -0.2139(6) 1.0077(3) 0.32230(18)
C30 C -0.0402(5) 0.9775(3) 0.3782(2)
H22 H 0.0405 0.9807 0.4014
C31 C 0.1537(4) 0.46821(18) 0.15538(11)
C32 C 0.1481(4) 0.44613(18) 0.10121(11)
C33 C 0.0294(4) 0.4015(2) 0.08532(12)
H23 H -0.0471 0.3845 0.1084
C34 C 0.0227(4) 0.3819(2) 0.03601(12)
H24 H -0.0567 0.3506 0.0266
C35 C 0.1306(4) 0.4074(2) -0.00007(11)
C36 C 0.2491(4) 0.45249(19) 0.01576(12)
H25 H 0.3224 0.4714 -0.0078
C37 C 0.2606(4) 0.46987(19) 0.06585(11)
H26 H 0.3447 0.4978 0.0759
C38 C 0.1153(4) 0.3869(2) -0.05427(11)
H27 H 0.0775 0.3361 -0.0545
H28 H 0.0364 0.4199 -0.0706
C39 C 0.3942(4) 0.34982(19) -0.07526(12)
C40 C 0.4347(5) 0.2930(2) -0.03856(14)
H29 H 0.3635 0.2770 -0.0134
C41 C 0.5842(6) 0.2621(3) -0.04143(16)
H30 H 0.6142 0.2241 -0.0178
C42 C 0.6925(5) 0.2861(2) -0.07885(16)
H31 H 0.7934 0.2647 -0.0789
C43 C 0.6538(4) 0.3399(2) -0.11511(13)
H32 H 0.7252 0.3545 -0.1406
C44 C 0.5037(4) 0.37255(18) -0.11294(12)
C45 C 0.2898(4) 0.43738(19) -0.12517(11)
H33 H 0.2154 0.4715 -0.1389
C46 C 0.3023(4) 0.35827(17) 0.27468(11)
C47 C 0.3252(4) 0.28423(18) 0.30501(12)
C48 C 0.1946(4) 0.2408(2) 0.31752(15)
H34 H 0.0949 0.2563 0.3064
C49 C 0.2144(5) 0.1742(2) 0.34681(17)
H35 H 0.1270 0.1453 0.3551
C50 C 0.3607(5) 0.1502(2) 0.36366(16)
C51 C 0.4894(5) 0.19302(19) 0.35112(14)
H36 H 0.5889 0.1768 0.3620
C52 C 0.4725(4) 0.26090(18) 0.32207(13)
H37 H 0.5600 0.2900 0.3144
C53 C 0.3745(6) 0.0766(2) 0.3974(2)
H38 H 0.2742 0.0680 0.4144
H39 H 0.3945 0.0353 0.3757
C54 C 0.5024(5) 0.1187(2) 0.47666(16)
C55 C 0.4054(6) 0.1770(3) 0.4915(2)
H40 H 0.3175 0.1929 0.4728
C56 C 0.4444(6) 0.2105(3) 0.53520(19)
H41 H 0.3838 0.2509 0.5455
C57 C 0.5735(7) 0.1849(3) 0.5645(2)
H42 H 0.5971 0.2083 0.5940
C58 C 0.6645(6) 0.1260(3) 0.54989(18)
H43 H 0.7449 0.1069 0.5708
C59 C 0.6401(6) 0.0959(2) 0.50673(18)
C60 C 0.6272(6) 0.0283(3) 0.44261(19)
H44 H 0.6537 -0.0076 0.4196
C61 C 0.7350(3) 0.37685(17) 0.22492(11)
C62 C 0.6586(4) 0.32463(17) 0.19130(11)
C63 C 0.5653(4) 0.35170(19) 0.15141(13)
H45 H 0.5562 0.4031 0.1442
C64 C 0.4859(5) 0.3037(2) 0.12235(14)
H46 H 0.4211 0.3228 0.0964
C65 C 0.5022(5) 0.2269(2) 0.13163(14)
C66 C 0.6005(5) 0.1994(2) 0.17097(15)
H47 H 0.6127 0.1480 0.1776
C67 C 0.6797(5) 0.24838(19) 0.20000(14)
H48 H 0.7472 0.2298 0.2254
C68 C 0.4122(6) 0.1768(2) 0.09891(16)
H49 H 0.3099 0.2000 0.0918
H50 H 0.4681 0.1734 0.0668
C69 C 0.2864(5) 0.0784(2) 0.15985(15)
C70 C 0.1916(7) 0.1202(3) 0.1915(2)
H51 H 0.1902 0.1723 0.1897
C71 C 0.1002(7) 0.0793(4) 0.2257(2)
H52 H 0.0287 0.1041 0.2462
C72 C 0.1122(8) 0.0019(4) 0.2303(2)
H53 H 0.0514 -0.0235 0.2549
C73 C 0.2118(6) -0.0399(3) 0.1996(2)
H54 H 0.2190 -0.0919 0.2034
C74 C 0.3003(5) 0.0008(2) 0.16282(16)
C75 C 0.4520(5) 0.0384(2) 0.10274(17)
H55 H 0.5233 0.0381 0.0757
C76 C 1.3574(4) 0.47794(17) 0.65445(11)
C77 C 1.3616(3) 0.45407(18) 0.60069(11)
C78 C 1.2368(4) 0.46983(18) 0.56871(11)
H56 H 1.1485 0.4952 0.5808
C79 C 1.2397(4) 0.44890(19) 0.51903(11)
H57 H 1.1534 0.4597 0.4983
C80 C 1.3707(4) 0.41188(18) 0.50016(11)
C81 C 1.4972(4) 0.3962(2) 0.53153(12)
H58 H 1.5852 0.3707 0.5193
C82 C 1.4948(4) 0.4178(2) 0.58103(12)
H59 H 1.5823 0.4081 0.6014
C83 C 1.3798(4) 0.3851(2) 0.44631(11)
H60 H 1.4568 0.4146 0.4271
H61 H 1.4166 0.3333 0.4477
C84 C 1.0966(4) 0.34966(17) 0.43002(11)
C85 C 1.0572(4) 0.2982(2) 0.46958(13)
H62 H 1.1268 0.2855 0.4958
C86 C 0.9105(5) 0.2671(2) 0.46803(15)
H63 H 0.8800 0.2324 0.4936
C87 C 0.8074(5) 0.2867(2) 0.42901(15)
H64 H 0.7095 0.2644 0.4290
C88 C 0.8443(4) 0.3379(2) 0.39032(12)
H65 H 0.7735 0.3506 0.3644
C89 C 0.9924(4) 0.37034(17) 0.39131(11)
C90 C 1.2016(4) 0.43283(18) 0.37636(11)
H66 H 1.2742 0.4657 0.3614
Sm1_2 Sm -0.032652(17) 0.469614(9) 0.267881(5)
Sm1A Sm 1.032652(17) 0.530386(9) 0.732119(5)
Sm2A Sm 0.532871(17) 0.480213(9) -0.233342(5)
Sm2A_2 Sm 1.532871(17) 0.480213(9) 0.766658(5)
O4_2 O 1.1931(2) 0.54475(11) 0.28360(7)
O5_2 O 1.0259(2) 0.46514(13) 0.17984(7)
O7_2 O 1.1676(2) 0.37699(12) 0.26027(8)
O11A O 0.7721(2) 0.50174(12) 0.32732(7)
O12A O 0.5129(2) 0.52389(13) 0.32288(7)
N6A N 0.5680(3) 0.57042(15) 0.14429(9)
O13 O 0.9245(6) 0.9168(2) 0.5122(3)
H67 H 0.8340(7) 0.8965(6) 0.512(2)
H68 H 0.918(3) 0.9631(3) 0.5189(9)
loop_
_geom_bond_atom_site_label_1
_geom_bond_atom_site_label_2
_geom_bond_site_symmetry_1
_geom_bond_site_symmetry_2
Sm1 O1 1_555 1_555
Sm2 O2 1_555 1_555
O1 C1 1_555 1_555
O2 C1 1_555 1_555
O3 Sm2 1_555 1_555
O4 Sm2 1_555 1_555
O5 C31 1_555 1_555
O6 Sm2 1_555 1_555
O7 C46 1_555 1_555
O8 Sm2 1_555 1_555
O9 Sm1 1_555 1_555
O10 Sm1 1_555 1_555
O11 C76 1_555 1_555
O12 C76 1_555 1_555
N1 C8 1_555 1_555
N2 C14 1_555 1_555
N3 C23 1_555 1_555
N4 C29 1_555 1_555
N5 C38 1_555 1_555
N6 C44 1_555 1_555
N7 C53 1_555 1_555
N8 C59 1_555 1_555
N9 C68 1_555 1_555
N10 C74 1_555 1_555
N11 C83 1_555 1_555
N12 Sm1 1_555 1_555
C1 C2 1_555 1_555
C2 C3 1_555 1_555
C3 H1 1_555 1_555
C4 C3 1_555 1_555
H2 C4 1_555 1_555
C5 C4 1_555 1_555
C6 C5 1_555 1_555
H3 C6 1_555 1_555
C7 C2 1_555 1_555
H4 C7 1_555 1_555
C8 C5 1_555 1_555
H5 C8 1_555 1_555
H6 C8 1_555 1_555
C9 N1 1_555 1_555
C10 C9 1_555 1_555
H7 C10 1_555 1_555
C11 C10 1_555 1_555
H8 C11 1_555 1_555
C12 C11 1_555 1_555
H9 C12 1_555 1_555
C13 C12 1_555 1_555
H10 C13 1_555 1_555
C14 C9 1_555 1_555
C15 N1 1_555 1_555
H11 C15 1_555 1_555
C16 O3 1_555 1_555
C17 C16 1_555 1_555
C18 C17 1_555 1_555
H12 C18 1_555 1_555
C19 C18 1_555 1_555
H13 C19 1_555 1_555
C20 C19 1_555 1_555
C21 C20 1_555 1_555
H14 C21 1_555 1_555
C22 C17 1_555 1_555
H15 C22 1_555 1_555
C23 C20 1_555 1_555
H16 C23 1_555 1_555
H17 C23 1_555 1_555
C24 N3 1_555 1_555
C25 C24 1_555 1_555
H18 C25 1_555 1_555
C26 C25 1_555 1_555
H19 C26 1_555 1_555
C27 C26 1_555 1_555
H20 C27 1_555 1_555
C28 C27 1_555 1_555
H21 C28 1_555 1_555
C29 C24 1_555 1_555
C30 N3 1_555 1_555
H22 C30 1_555 1_555
C31 O6 1_555 1_555
C32 C31 1_555 1_555
C33 C32 1_555 1_555
H23 C33 1_555 1_555
C34 C33 1_555 1_555
H24 C34 1_555 1_555
C35 C34 1_555 1_555
C36 C35 1_555 1_555
H25 C36 1_555 1_555
C37 C32 1_555 1_555
H26 C37 1_555 1_555
C38 C35 1_555 1_555
H27 C38 1_555 1_555
H28 C38 1_555 1_555
C39 N5 1_555 1_555
C40 C39 1_555 1_555
H29 C40 1_555 1_555
C41 C40 1_555 1_555
H30 C41 1_555 1_555
C42 C41 1_555 1_555
H31 C42 1_555 1_555
C43 C42 1_555 1_555
H32 C43 1_555 1_555
C44 C39 1_555 1_555
C45 N5 1_555 1_555
H33 C45 1_555 1_555
C46 O8 1_555 1_555
C47 C46 1_555 1_555
C48 C47 1_555 1_555
H34 C48 1_555 1_555
C49 C48 1_555 1_555
H35 C49 1_555 1_555
C50 C49 1_555 1_555
C51 C50 1_555 1_555
H36 C51 1_555 1_555
C52 C47 1_555 1_555
H37 C52 1_555 1_555
C53 C50 1_555 1_555
H38 C53 1_555 1_555
H39 C53 1_555 1_555
C54 N7 1_555 1_555
C55 C54 1_555 1_555
H40 C55 1_555 1_555
C56 C55 1_555 1_555
H41 C56 1_555 1_555
C57 C56 1_555 1_555
H42 C57 1_555 1_555
C58 C57 1_555 1_555
H43 C58 1_555 1_555
C59 C54 1_555 1_555
C60 N7 1_555 1_555
H44 C60 1_555 1_555
C61 O9 1_555 1_555
C62 C61 1_555 1_555
C63 C62 1_555 1_555
H45 C63 1_555 1_555
C64 C63 1_555 1_555
H46 C64 1_555 1_555
C65 C64 1_555 1_555
C66 C65 1_555 1_555
H47 C66 1_555 1_555
C67 C62 1_555 1_555
H48 C67 1_555 1_555
C68 C65 1_555 1_555
H49 C68 1_555 1_555
H50 C68 1_555 1_555
C69 N9 1_555 1_555
C70 C69 1_555 1_555
H51 C70 1_555 1_555
C71 C70 1_555 1_555
H52 C71 1_555 1_555
C72 C71 1_555 1_555
H53 C72 1_555 1_555
C73 C72 1_555 1_555
H54 C73 1_555 1_555
C74 C69 1_555 1_555
C75 N9 1_555 1_555
H55 C75 1_555 1_555
C76 C77 1_555 1_555
C77 C78 1_555 1_555
C78 H56 1_555 1_555
C79 C78 1_555 1_555
H57 C79 1_555 1_555
C80 C79 1_555 1_555
C81 C80 1_555 1_555
H58 C81 1_555 1_555
C82 C77 1_555 1_555
H59 C82 1_555 1_555
C83 C80 1_555 1_555
H60 C83 1_555 1_555
H61 C83 1_555 1_555
C84 N11 1_555 1_555
C85 C84 1_555 1_555
H62 C85 1_555 1_555
C86 C85 1_555 1_555
H63 C86 1_555 1_555
C87 C86 1_555 1_555
H64 C87 1_555 1_555
C88 C87 1_555 1_555
H65 C88 1_555 1_555
C89 N12 1_555 1_555
C90 N11 1_555 1_555
H66 C90 1_555 1_555
O13 H67 1_555 1_555
H68 O13 1_555 1_555
Sm1_2 O4 1_555 1_555
Sm1A O11 1_555 1_555
Sm2A N6 1_555 1_555
Sm2A_2 O12 1_555 1_555
O4_2 Sm1 1_555 1_555
O5_2 Sm1 1_555 1_555
O7_2 Sm1 1_555 1_555
O11A Sm1 1_555 1_555
O12A Sm2 1_555 1_555
N6A Sm2 1_555 1_555
Sm2 O9 1_555 1_555
O4 C16 1_555 1_555
O5 Sm1_2 1_555 1_555
O7 Sm1_2 1_555 1_555
O10 C61 1_555 1_555
N2 C15 1_555 1_555
N4 C30 1_555 1_555
N6 C45 1_555 1_555
N8 C60 1_555 1_555
N10 C75 1_555 1_555
N12 C90 1_555 1_555
C6 C7 1_555 1_555
C13 C14 1_555 1_555
C21 C22 1_555 1_555
C28 C29 1_555 1_555
C36 C37 1_555 1_555
C43 C44 1_555 1_555
C51 C52 1_555 1_555
C58 C59 1_555 1_555
C66 C67 1_555 1_555
C73 C74 1_555 1_555
C81 C82 1_555 1_555
C84 C89 1_555 1_555
C88 C89 1_555 1_555

#END
