
#######################################################################
#
#                 Cambridge Crystallographic Data Centre
#                                CCDC 
#
#######################################################################
#
# If this CIF has been generated from an entry in the Cambridge 
# Structural Database, then it will include bibliographic, chemical, 
# crystal, experimental, refinement or atomic coordinate data resulting 
# from the CCDC's data processing and validation procedures.
#
#######################################################################

data_VOBDUN
_symmetry_cell_setting           orthorhombic
_symmetry_space_group_name_H-M   'P c a 21'
_symmetry_Int_Tables_number      29
_space_group_name_Hall           'P 2c -2ac'
loop_
_symmetry_equiv_pos_site_id
_symmetry_equiv_pos_as_xyz
1 x,y,z
2 -x,-y,1/2+z
3 1/2+x,-y,z
4 1/2-x,y,1/2+z
_cell_length_a                   11.481(2)
_cell_length_b                   3.9265(8)
_cell_length_c                   30.055(6)
_cell_angle_alpha                90
_cell_angle_beta                 90
_cell_angle_gamma                90
_cell_volume                     1354.88
loop_
_atom_site_label
_atom_site_type_symbol
_atom_site_fract_x
_atom_site_fract_y
_atom_site_fract_z
K1 K 0.67774(17) 0.5451(5) 0.94836(6)
K2 K 0.92907(19) 1.0392(5) 1.02129(6)
O1 O 0.5794(6) 0.4545(16) 1.0419(3)
O2 O 0.7732(6) 0.5643(19) 1.0329(3)
C1 C 0.5799(8) 0.909(3) 0.8494(3)
H1 H 0.6371 1.0155 0.8675
C2 C 0.4649(7) 0.846(2) 0.8671(3)
C3 C 0.6334(7) 0.205(2) 1.1308(3)
H2 H 0.5568 0.1596 1.1203
C4 C 0.3829(7) 0.702(2) 0.8386(3)
H3 H 0.3064 0.6609 0.8494
C5 C 0.4095(8) 0.616(3) 0.7952(4)
H4 H 0.3513 0.5259 0.7760
C6 C 0.7139(7) 0.363(2) 1.1029(3)
C7 C 0.6643(10) 0.113(3) 1.1734(3)
H5 H 0.6077 0.0103 1.1922
C8 C 0.5252(9) 0.664(3) 0.7797(3)
H6 H 0.5463 0.5924 0.7506
C9 C 0.6072(8) 0.817(3) 0.8071(3)
H7 H 0.6835 0.8572 0.7961
O3 O 0.5127(6) 1.0444(14) 0.9386(2)
C10 C 0.8262(8) 0.397(3) 1.1182(3)
H8 H 0.8844 0.4846 1.0989
C11 C 0.7731(9) 0.166(3) 1.1895(3)
H9 H 0.7916 0.1090 1.2194
C12 C 0.8564(8) 0.303(3) 1.1620(3)
H10 H 0.9338 0.3340 1.1725
C13 C 0.6896(10) 0.465(2) 1.0559(3)
O4 O 0.3314(6) 0.938(2) 0.9238(3)
C14 C 0.4303(9) 0.959(2) 0.9138(3)
K1_2 K 0.67774(17) 1.5451(5) 0.94836(6)
K1B K 0.17774(17) 0.4549(5) 0.94836(6)
K1B_2 K 0.17774(17) 1.4549(5) 0.94836(6)
K2_2 K 0.92907(19) 0.0392(5) 1.02129(6)
K2B K 0.42907(19) -0.0392(5) 1.02129(6)
K2B_2 K 0.42907(19) 0.9608(5) 1.02129(6)
O1B O 1.0794(6) 0.5455(16) 1.0419(3)
O1B_2 O 1.0794(6) 1.5455(16) 1.0419(3)
O2_2 O 0.7732(6) 1.5643(19) 1.0329(3)
O3_2 O 0.5127(6) 0.0444(14) 0.9386(2)
O3B O 1.0127(6) 0.9556(14) 0.9386(2)
O4B O 0.8314(6) 0.062(2) 0.9238(3)
O4B_2 O 0.8314(6) 1.062(2) 0.9238(3)
loop_
_geom_bond_atom_site_label_1
_geom_bond_atom_site_label_2
_geom_bond_site_symmetry_1
_geom_bond_site_symmetry_2
K1 O1 1_555 1_555
K2 O2 1_555 1_555
O1 C13 1_555 1_555
O2 K1 1_555 1_555
C1 H1 1_555 1_555
C2 C1 1_555 1_555
C3 H2 1_555 1_555
C4 C2 1_555 1_555
H3 C4 1_555 1_555
C5 C4 1_555 1_555
H4 C5 1_555 1_555
C6 C3 1_555 1_555
C7 C3 1_555 1_555
H5 C7 1_555 1_555
C8 C5 1_555 1_555
H6 C8 1_555 1_555
C9 C1 1_555 1_555
H7 C9 1_555 1_555
O3 K1 1_555 1_555
C10 C6 1_555 1_555
H8 C10 1_555 1_555
C11 C7 1_555 1_555
H9 C11 1_555 1_555
C12 C10 1_555 1_555
H10 C12 1_555 1_555
C13 O2 1_555 1_555
O4 C14 1_555 1_555
C14 C2 1_555 1_555
K1_2 O3 1_555 1_555
K1B O4 1_555 1_555
K1B_2 O4 1_555 1_555
K2_2 O2 1_555 1_555
K2B O1 1_555 1_555
K2B_2 O1 1_555 1_555
O1B K2 1_555 1_555
O1B_2 K2 1_555 1_555
O2_2 K2 1_555 1_555
O3_2 K1 1_555 1_555
O3B K2 1_555 1_555
O4B K1 1_555 1_555
O4B_2 K1 1_555 1_555
K2 O4B_2 1_555 1_555
C6 C13 1_555 1_555
C8 C9 1_555 1_555
O3 C14 1_555 1_555
O3 K2B_2 1_555 1_555
C11 C12 1_555 1_555
O4 K2B_2 1_555 1_555
K1_2 O2_2 1_555 1_555
K1_2 O4B_2 1_555 1_555
K2_2 O1B 1_555 1_555
K2_2 O4B 1_555 1_555
K2B O3_2 1_555 1_555

#END
