
#######################################################################
#
#                 Cambridge Crystallographic Data Centre
#                                CCDC 
#
#######################################################################
#
# If this CIF has been generated from an entry in the Cambridge 
# Structural Database, then it will include bibliographic, chemical, 
# crystal, experimental, refinement or atomic coordinate data resulting 
# from the CCDC's data processing and validation procedures.
#
#######################################################################

data_VOBDAT
_symmetry_cell_setting           monoclinic
_symmetry_space_group_name_H-M   'P 21/c'
_symmetry_Int_Tables_number      14
_space_group_name_Hall           '-P 2ybc'
loop_
_symmetry_equiv_pos_site_id
_symmetry_equiv_pos_as_xyz
1 x,y,z
2 -x,1/2+y,1/2-z
3 -x,-y,-z
4 x,1/2-y,1/2+z
_cell_length_a                   18.002(3)
_cell_length_b                   8.3689(16)
_cell_length_c                   26.064(5)
_cell_angle_alpha                90
_cell_angle_beta                 93.423(2)
_cell_angle_gamma                90
_cell_volume                     3919.72
loop_
_atom_site_label
_atom_site_type_symbol
_atom_site_fract_x
_atom_site_fract_y
_atom_site_fract_z
Lu1 Lu 0.523994(15) 0.97597(4) 0.767569(10)
O1 O 0.3879(3) 0.6618(6) 0.74315(19)
O2 O 0.4064(3) 0.9236(6) 0.73636(18)
O3 O 0.6331(3) 0.8350(7) 0.75715(19)
O4 O 0.5431(3) 0.7013(6) 0.71634(18)
O5 O 0.5241(3) 1.0262(6) 0.68156(18)
O6 O 0.5049(3) 1.2893(6) 0.67450(17)
N1 N 0.0845(6) 0.8319(16) 0.5728(4)
N2 N 0.1114(7) 0.7074(16) 0.4979(4)
N3 N 0.9015(4) 0.4030(11) 0.6244(3)
N4 N 1.0245(5) 0.4197(13) 0.6342(4)
N5 N 0.6089(4) 1.2662(8) 0.4178(2)
N6 N 0.5744(3) 1.4337(8) 0.3546(2)
C1 C 0.3676(4) 0.7990(10) 0.7299(3)
C2 C 0.2923(4) 0.8185(11) 0.7027(3)
C3 C 0.2667(5) 0.9647(12) 0.6854(4)
H1 H 0.2963 1.0547 0.6913
C4 C 0.1976(5) 0.9805(13) 0.6594(4)
H2 H 0.1808 1.0800 0.6478
C5 C 0.1539(5) 0.8448(14) 0.6509(4)
C6 C 0.1804(5) 0.6954(13) 0.6673(4)
H3 H 0.1515 0.6045 0.6613
C7 C 0.2496(5) 0.6835(13) 0.6925(4)
H4 H 0.2678 0.5838 0.7027
C8 C 0.0777(6) 0.8544(15) 0.6247(4)
H5 H 0.0458 0.7727 0.6381
H6 H 0.0557 0.9581 0.6308
C9 C 0.0997(7) 0.6871(18) 0.5467(5)
H7 H 0.1013 0.5877 0.5626
C10 C 0.0806(5) 1.1169(11) 0.5406(3)
H8 H 0.0675 1.1634 0.5712
C11 C 0.0906(5) 0.9525(10) 0.5378(3)
C12 C 0.1102(5) 0.8830(8) 0.4921(4)
C13 C 0.1198(5) 0.9778(11) 0.4492(3)
H9 H 0.1329 0.9313 0.4186
C14 C 0.1097(5) 1.1422(11) 0.4520(3)
H10 H 0.1161 1.2057 0.4233
C15 C 0.0901(5) 1.2117(8) 0.4977(3)
H11 H 0.0834 1.3217 0.4996
C16 C 0.6126(4) 0.7337(10) 0.7242(3)
C17 C 0.6682(4) 0.6585(10) 0.6918(3)
C18 C 0.7428(4) 0.6912(11) 0.7006(3)
H12 H 0.7580 0.7649 0.7258
C19 C 0.7955(5) 0.6161(12) 0.6726(3)
H13 H 0.8458 0.6378 0.6793
C20 C 0.7730(5) 0.5079(12) 0.6342(4)
C21 C 0.6991(5) 0.4780(11) 0.6249(4)
H14 H 0.6841 0.4055 0.5993
C22 C 0.6457(5) 0.5521(11) 0.6524(3)
H15 H 0.5955 0.5317 0.6449
C23 C 0.8268(5) 0.4213(15) 0.6014(4)
H16 H 0.8069 0.3160 0.5933
H17 H 0.8296 0.4789 0.5693
C24 C 0.9630(6) 0.4687(14) 0.6073(5)
H18 H 0.9630 0.5400 0.5799
C25 C 0.9250(6) 0.2973(15) 0.6634(4)
C26 C 0.8837(7) 0.1909(16) 0.6920(4)
H19 H 0.8322 0.1827 0.6883
C27 C 0.9274(8) 0.0990(19) 0.7265(5)
H20 H 0.9038 0.0265 0.7471
C28 C 1.0047(8) 0.1101(19) 0.7318(5)
H21 H 1.0307 0.0421 0.7547
C29 C 1.0433(7) 0.2161(16) 0.7047(5)
H22 H 1.0947 0.2259 0.7096
C30 C 1.0016(7) 0.3120(15) 0.6685(4)
C31 C 0.5244(4) 1.1550(10) 0.6576(2)
C32 C 0.5475(5) 1.1491(10) 0.6028(3)
C33 C 0.5888(6) 1.0201(11) 0.5866(3)
H23 H 0.6023 0.9384 0.6095
C34 C 0.6097(6) 1.0131(11) 0.5364(3)
H24 H 0.6373 0.9264 0.5259
C35 C 0.5902(5) 1.1324(10) 0.5017(3)
C36 C 0.5479(5) 1.2602(10) 0.5174(3)
H25 H 0.5331 1.3401 0.4942
C37 C 0.5277(5) 1.2680(10) 0.5681(3)
H26 H 0.5003 1.3550 0.5787
C38 C 0.6140(5) 1.1162(11) 0.4471(3)
H27 H 0.6650 1.0783 0.4481
H28 H 0.5830 1.0364 0.4293
C39 C 0.5657(5) 1.2908(10) 0.3741(3)
H29 H 0.5334 1.2145 0.3595
C40 C 0.6495(5) 1.4005(11) 0.4265(3)
C41 C 0.7023(5) 1.4448(12) 0.4653(3)
H30 H 0.7166 1.3753 0.4920
C42 C 0.7323(6) 1.5947(13) 0.4625(4)
H31 H 0.7674 1.6268 0.4881
C43 C 0.7126(5) 1.7004(13) 0.4232(3)
H32 H 0.7352 1.8003 0.4225
C44 C 0.6600(5) 1.6587(12) 0.3853(3)
H33 H 0.6458 1.7299 0.3591
C45 C 0.6285(5) 1.5067(10) 0.3870(3)
Lu1A Lu 0.476006(15) 0.47597(4) 0.732431(10)
Lu1A_2 Lu 0.476006(15) 1.47597(4) 0.732431(10)
Lu1C Lu 0.523994(15) 1.52403(4) 0.267569(10)
O1A O 0.6121(3) 1.1618(6) 0.75685(19)
O4A O 0.4569(3) 1.2013(6) 0.78366(18)
O6A O 0.4951(3) 0.7893(6) 0.82550(17)
N6C N 0.5744(3) 1.0663(8) 0.8546(2)
loop_
_geom_bond_atom_site_label_1
_geom_bond_atom_site_label_2
_geom_bond_site_symmetry_1
_geom_bond_site_symmetry_2
Lu1 O2 1_555 1_555
O1 C1 1_555 1_555
O2 C1 1_555 1_555
O3 Lu1 1_555 1_555
O4 Lu1 1_555 1_555
O5 Lu1 1_555 1_555
O6 C31 1_555 1_555
N1 C8 1_555 1_555
N2 C9 1_555 1_555
N3 C23 1_555 1_555
N4 C24 1_555 1_555
N5 C38 1_555 1_555
N6 C39 1_555 1_555
C1 C2 1_555 1_555
C2 C3 1_555 1_555
C3 H1 1_555 1_555
C4 C3 1_555 1_555
H2 C4 1_555 1_555
C5 C4 1_555 1_555
C6 C5 1_555 1_555
H3 C6 1_555 1_555
C7 C2 1_555 1_555
H4 C7 1_555 1_555
C8 C5 1_555 1_555
H5 C8 1_555 1_555
H6 C8 1_555 1_555
C9 N1 1_555 1_555
H7 C9 1_555 1_555
C10 H8 1_555 1_555
C11 N1 1_555 1_555
C12 N2 1_555 1_555
C13 C12 1_555 1_555
H9 C13 1_555 1_555
C14 C13 1_555 1_555
H10 C14 1_555 1_555
C15 C10 1_555 1_555
H11 C15 1_555 1_555
C16 O3 1_555 1_555
C17 C16 1_555 1_555
C18 C17 1_555 1_555
H12 C18 1_555 1_555
C19 C18 1_555 1_555
H13 C19 1_555 1_555
C20 C19 1_555 1_555
C21 C20 1_555 1_555
H14 C21 1_555 1_555
C22 C17 1_555 1_555
H15 C22 1_555 1_555
C23 C20 1_555 1_555
H16 C23 1_555 1_555
H17 C23 1_555 1_555
C24 N3 1_555 1_555
H18 C24 1_555 1_555
C25 N3 1_555 1_555
C26 C25 1_555 1_555
H19 C26 1_555 1_555
C27 C26 1_555 1_555
H20 C27 1_555 1_555
C28 C27 1_555 1_555
H21 C28 1_555 1_555
C29 C28 1_555 1_555
H22 C29 1_555 1_555
C30 N4 1_555 1_555
C31 O5 1_555 1_555
C32 C31 1_555 1_555
C33 C32 1_555 1_555
H23 C33 1_555 1_555
C34 C33 1_555 1_555
H24 C34 1_555 1_555
C35 C34 1_555 1_555
C36 C35 1_555 1_555
H25 C36 1_555 1_555
C37 C32 1_555 1_555
H26 C37 1_555 1_555
C38 C35 1_555 1_555
H27 C38 1_555 1_555
H28 C38 1_555 1_555
C39 N5 1_555 1_555
H29 C39 1_555 1_555
C40 N5 1_555 1_555
C41 C40 1_555 1_555
H30 C41 1_555 1_555
C42 C41 1_555 1_555
H31 C42 1_555 1_555
C43 C42 1_555 1_555
H32 C43 1_555 1_555
C44 C43 1_555 1_555
H33 C44 1_555 1_555
C45 N6 1_555 1_555
Lu1A O1 1_555 1_555
Lu1A_2 O6 1_555 1_555
Lu1C N6 1_555 1_555
O1A Lu1 1_555 1_555
O4A Lu1 1_555 1_555
O6A Lu1 1_555 1_555
N6C Lu1 1_555 1_555
O4 C16 1_555 1_555
O4 Lu1A 1_555 1_555
C6 C7 1_555 1_555
C10 C11 1_555 1_555
C11 C12 1_555 1_555
C14 C15 1_555 1_555
C21 C22 1_555 1_555
C25 C30 1_555 1_555
C29 C30 1_555 1_555
C36 C37 1_555 1_555
C40 C45 1_555 1_555
C44 C45 1_555 1_555
Lu1A_2 O4A 1_555 1_555

#END
