
#######################################################################
#
#                 Cambridge Crystallographic Data Centre
#                                CCDC 
#
#######################################################################
#
# If this CIF has been generated from an entry in the Cambridge 
# Structural Database, then it will include bibliographic, chemical, 
# crystal, experimental, refinement or atomic coordinate data resulting 
# from the CCDC's data processing and validation procedures.
#
#######################################################################

data_VOBFIC
_symmetry_cell_setting           orthorhombic
_symmetry_space_group_name_H-M   'P c a b'
_symmetry_Int_Tables_number      61
_space_group_name_Hall           '-P 2bc 2ac'
loop_
_symmetry_equiv_pos_site_id
_symmetry_equiv_pos_as_xyz
1 x,y,z
2 -x,1/2-y,1/2+z
3 1/2+x,-y,1/2-z
4 1/2-x,1/2+y,-z
5 -x,-y,-z
6 x,1/2+y,1/2-z
7 1/2-x,y,1/2+z
8 1/2+x,1/2-y,z
_cell_length_a                   13.3352(3)
_cell_length_b                   20.2099(5)
_cell_length_c                   21.6219(6)
_cell_angle_alpha                90
_cell_angle_beta                 90
_cell_angle_gamma                90
_cell_volume                     5827.17
loop_
_atom_site_label
_atom_site_type_symbol
_atom_site_fract_x
_atom_site_fract_y
_atom_site_fract_z
Fe1 Fe 0.49223(3) 0.29956(3) 0.41995(2)
Na1 Na 0.25693(9) 0.36217(7) 0.66907(6)
O1 O 0.7045(2) 0.29120(19) 0.41293(16)
O2 O 0.4328(3) 0.16499(16) 0.42593(17)
O3 O 0.40717(18) 0.36227(13) 0.74918(12)
O4 O 0.35123(18) 0.24615(13) 0.69155(12)
O5 O 0.16629(18) 0.25032(12) 0.63504(11)
O6 O 0.09576(19) 0.36968(13) 0.58743(11)
O7 O 0.15335(19) 0.49123(13) 0.63916(12)
O8 O 0.33606(18) 0.48546(12) 0.70590(11)
N1 N 0.6182(2) 0.30244(16) 0.41543(14)
N2 N 0.4451(2) 0.22216(17) 0.42350(14)
N3 N 0.44977(19) 0.34880(14) 0.49431(12)
N4 N 0.3648(2) 0.37559(16) 0.58081(14)
N5 N 0.43582(19) 0.34468(14) 0.34659(13)
N6 N 0.3453(2) 0.36475(16) 0.26095(14)
C1 C 0.4923(2) 0.40487(18) 0.51938(16)
H1 H 0.5468 0.4280 0.5035
C2 C 0.4407(3) 0.4202(2) 0.57107(16)
H2 H 0.4546 0.4560 0.5966
C3 C 0.3739(2) 0.33460(18) 0.53380(16)
H3 H 0.3315 0.2986 0.5281
C4 C 0.3616(2) 0.32503(19) 0.30816(16)
H4 H 0.3250 0.2865 0.3146
C5 C 0.4135(3) 0.41416(19) 0.26904(17)
H5 H 0.4211 0.4505 0.2431
C6 C 0.4690(3) 0.40251(18) 0.32074(17)
H6 H 0.5203 0.4291 0.3358
C7 C 0.4753(3) 0.3084(2) 0.7436(2)
H7 H 0.5127 0.3118 0.7052
H8 H 0.5225 0.3085 0.7777
C8 C 0.4149(3) 0.2466(2) 0.74428(19)
H9 H 0.3750 0.2446 0.7817
H10 H 0.4589 0.2084 0.7434
C9 C 0.2882(3) 0.19007(18) 0.6900(2)
H11 H 0.3283 0.1501 0.6901
H12 H 0.2455 0.1895 0.7263
C10 C 0.2260(3) 0.19273(19) 0.6335(2)
H13 H 0.1836 0.1538 0.6313
H14 H 0.2688 0.1934 0.5972
C11 C 0.0993(3) 0.2534(2) 0.58376(19)
H15 H 0.1371 0.2558 0.5455
H16 H 0.0581 0.2139 0.5826
C12 C 0.0348(3) 0.3127(2) 0.5901(2)
H17 H -0.0008 0.3114 0.6292
H18 H -0.0142 0.3138 0.5569
C13 C 0.0378(3) 0.4281(2) 0.58226(18)
H19 H -0.0022 0.4266 0.5448
H20 H -0.0072 0.4317 0.6173
C14 C 0.1059(4) 0.4859(2) 0.58047(18)
H21 H 0.0682 0.5259 0.5716
H22 H 0.1559 0.4801 0.5483
C15 C 0.2222(3) 0.54430(19) 0.6424(2)
H23 H 0.2715 0.5404 0.6096
H24 H 0.1872 0.5860 0.6375
C16 C 0.2728(3) 0.54208(19) 0.7040(2)
H25 H 0.2231 0.5396 0.7366
H26 H 0.3123 0.5819 0.7101
C17 C 0.3786(3) 0.4756(2) 0.76560(18)
H27 H 0.4087 0.5164 0.7802
H28 H 0.3268 0.4626 0.7946
C18 C 0.4563(3) 0.4229(2) 0.76115(19)
H29 H 0.4936 0.4201 0.7996
H30 H 0.5029 0.4330 0.7280
Na1F Na 0.24307(9) 0.36217(7) 0.16907(6)
N6F N 0.1547(2) 0.36475(16) 0.76095(14)
Cl1 Cl 0.15083(10) 0.39762(7) 0.42363(5)
Cl2 Cl 0.24488(10) 0.52652(6) 0.42371(6)
C19 C 0.2639(3) 0.4415(2) 0.4280(2)
H31 H 0.2972 0.4309 0.4667
H32 H 0.3074 0.4277 0.3945
loop_
_geom_bond_atom_site_label_1
_geom_bond_atom_site_label_2
_geom_bond_site_symmetry_1
_geom_bond_site_symmetry_2
Fe1 N1 1_555 1_555
Cl1 C19 1_555 1_555
Cl2 C19 1_555 1_555
Na1 O3 1_555 1_555
O1 N1 1_555 1_555
O2 N2 1_555 1_555
O3 C7 1_555 1_555
O4 Na1 1_555 1_555
O5 Na1 1_555 1_555
O6 Na1 1_555 1_555
O7 Na1 1_555 1_555
O8 Na1 1_555 1_555
N2 Fe1 1_555 1_555
N3 Fe1 1_555 1_555
N4 Na1 1_555 1_555
N5 Fe1 1_555 1_555
N6 C4 1_555 1_555
C1 N3 1_555 1_555
H1 C1 1_555 1_555
C2 N4 1_555 1_555
H2 C2 1_555 1_555
C3 N3 1_555 1_555
H3 C3 1_555 1_555
C4 N5 1_555 1_555
H4 C4 1_555 1_555
C5 N6 1_555 1_555
H5 C5 1_555 1_555
C6 N5 1_555 1_555
H6 C6 1_555 1_555
C7 H7 1_555 1_555
H8 C7 1_555 1_555
C8 O4 1_555 1_555
H9 C8 1_555 1_555
H10 C8 1_555 1_555
C9 O4 1_555 1_555
H11 C9 1_555 1_555
H12 C9 1_555 1_555
C10 O5 1_555 1_555
H13 C10 1_555 1_555
H14 C10 1_555 1_555
C11 O5 1_555 1_555
H15 C11 1_555 1_555
H16 C11 1_555 1_555
C12 O6 1_555 1_555
H17 C12 1_555 1_555
H18 C12 1_555 1_555
C13 O6 1_555 1_555
H19 C13 1_555 1_555
H20 C13 1_555 1_555
C14 O7 1_555 1_555
H21 C14 1_555 1_555
H22 C14 1_555 1_555
C15 O7 1_555 1_555
H23 C15 1_555 1_555
H24 C15 1_555 1_555
C16 O8 1_555 1_555
H25 C16 1_555 1_555
H26 C16 1_555 1_555
C17 O8 1_555 1_555
H27 C17 1_555 1_555
H28 C17 1_555 1_555
C18 O3 1_555 1_555
H29 C18 1_555 1_555
H30 C18 1_555 1_555
C19 H31 1_555 1_555
H32 C19 1_555 1_555
Na1F N6 1_555 1_555
N6F Na1 1_555 1_555
N4 C3 1_555 1_555
C1 C2 1_555 1_555
C5 C6 1_555 1_555
C7 C8 1_555 1_555
C9 C10 1_555 1_555
C11 C12 1_555 1_555
C13 C14 1_555 1_555
C15 C16 1_555 1_555
C17 C18 1_555 1_555

#END
