
#######################################################################
#
#                 Cambridge Crystallographic Data Centre
#                                CCDC 
#
#######################################################################
#
# If this CIF has been generated from an entry in the Cambridge 
# Structural Database, then it will include bibliographic, chemical, 
# crystal, experimental, refinement or atomic coordinate data resulting 
# from the CCDC's data processing and validation procedures.
#
#######################################################################

data_VOBFUP
_symmetry_cell_setting           monoclinic
_symmetry_space_group_name_H-M   'P 21/n'
_symmetry_Int_Tables_number      14
_space_group_name_Hall           '-P 2yn'
loop_
_symmetry_equiv_pos_site_id
_symmetry_equiv_pos_as_xyz
1 x,y,z
2 1/2-x,1/2+y,1/2-z
3 -x,-y,-z
4 1/2+x,1/2-y,1/2+z
_cell_length_a                   15.6575(3)
_cell_length_b                   14.3679(2)
_cell_length_c                   16.5975(2)
_cell_angle_alpha                90
_cell_angle_beta                 116.179(2)
_cell_angle_gamma                90
_cell_volume                     3350.84
loop_
_atom_site_label
_atom_site_type_symbol
_atom_site_fract_x
_atom_site_fract_y
_atom_site_fract_z
Co1 Co 0.5000 0.5000 0.5000
Co2 Co 0.70012(2) 0.45107(2) 0.48287(2)
Co3 Co 0.50293(2) 0.50351(2) 0.30438(2)
O1 O 0.23096(11) 0.94479(11) 0.07635(10)
O2 O 0.08634(11) 0.88218(11) 0.02125(10)
O3 O 0.31428(11) 0.64268(11) 0.42483(10)
O4 O 0.41006(11) 0.56637(10) 0.37786(9)
O5 O 0.55039(10) 0.44169(10) 0.41977(9)
O6 O 0.58541(11) 0.42550(11) 0.25766(10)
O7 O 0.68598(11) 0.35426(11) 0.38485(10)
O8 O 0.78736(11) 0.06124(11) 0.09866(10)
O9 O 0.93046(11) 0.12051(11) 0.19178(10)
N1 N 0.84830(13) 0.43115(13) 0.54031(12)
N2 N 1.00132(13) 0.46460(16) 0.60784(12)
N3 N 1.28947(15) 0.41617(15) 1.06153(13)
N4 N 1.38069(13) 0.47153(14) 1.19574(12)
C1 C 0.17381(15) 0.88055(15) 0.07185(13)
C2 C 0.21663(15) 0.80026(15) 0.13581(13)
C3 C 0.31249(15) 0.80582(15) 0.19313(14)
H1 H 0.3497 0.8528 0.1836
C4 C 0.35644(15) 0.74372(16) 0.26518(14)
H2 H 0.4232 0.7466 0.3017
C5 C 0.30216(15) 0.67891(15) 0.28237(14)
C6 C 0.20451(16) 0.66662(16) 0.22249(14)
C7 C 0.16119(15) 0.72575(15) 0.14543(14)
C8 C 0.06594(18) 0.70566(18) 0.08301(16)
H3 H 0.0358 0.7426 0.0304
C9 C 0.0168(2) 0.6337(2) 0.09757(19)
H4 H -0.0463 0.6205 0.0541
C10 C 0.0584(2) 0.5790(2) 0.1759(2)
H5 H 0.0225 0.5312 0.1864
C11 C 0.15018(18) 0.59498(19) 0.23657(16)
H6 H 0.1783 0.5576 0.2891
C12 C 0.34555(15) 0.62454(15) 0.36868(13)
C13 C 0.65254(15) 0.37047(15) 0.30156(14)
C14 C 0.70065(15) 0.31621(15) 0.25438(13)
C15 C 0.78098(15) 0.26755(15) 0.30964(14)
H7 H 0.8055 0.2745 0.3728
C16 C 0.82753(16) 0.20803(16) 0.27502(14)
H8 H 0.8840 0.1770 0.3149
C17 C 0.79254(15) 0.19393(15) 0.18406(14)
C18 C 0.71247(15) 0.24630(15) 0.12354(14)
C19 C 0.66676(15) 0.31014(15) 0.15852(14)
C20 C 0.58969(17) 0.36388(17) 0.09612(15)
H9 H 0.5585 0.4068 0.1178
C21 C 0.55947(17) 0.35496(18) 0.00548(15)
H10 H 0.5072 0.3911 -0.0347
C22 C 0.60496(17) 0.29294(18) -0.02883(14)
H11 H 0.5841 0.2880 -0.0918
C23 C 0.67928(16) 0.23993(16) 0.02893(14)
H12 H 0.7094 0.1979 0.0054
C24 C 0.83992(16) 0.11988(15) 0.15423(14)
C25 C 0.91206(16) 0.49822(17) 0.56476(14)
H13 H 0.8970 0.5624 0.5534
C26 C 0.99337(19) 0.36972(19) 0.61155(19)
H14 H 1.0439 0.3263 0.6384
C27 C 0.89918(18) 0.35028(18) 0.56939(17)
H15 H 0.8724 0.2897 0.5612
C28 C 1.08867(16) 0.5203(2) 0.65255(15)
H16 H 1.0787 0.5823 0.6237
H17 H 1.1413 0.4893 0.6452
C29 C 1.11616(16) 0.53224(18) 0.75180(15)
C30 C 1.08367(16) 0.60792(17) 0.78249(16)
H18 H 1.0443 0.6533 0.7411
C31 C 1.10859(17) 0.61753(17) 0.87368(16)
H19 H 1.0873 0.6702 0.8944
C32 C 1.16439(17) 0.55046(17) 0.93438(15)
H20 H 1.1808 0.5571 0.9964
C33 C 1.19631(17) 0.47348(18) 0.90451(15)
C34 C 1.17222(17) 0.46565(19) 0.81288(16)
H21 H 1.1946 0.4138 0.7921
C35 C 1.2550(2) 0.3962(2) 0.96567(16)
H22 H 1.2160 0.3388 0.9511
H23 H 1.3103 0.3839 0.9534
C36 C 1.2438(2) 0.3996(2) 1.11455(18)
H24 H 1.1844 0.3692 1.0970
C37 C 1.30039(19) 0.4353(2) 1.19671(17)
H25 H 1.2864 0.4352 1.2469
C38 C 1.37058(16) 0.46001(19) 1.11293(15)
H26 H 1.4154 0.4804 1.0926
H27 H 0.5436 0.3833 0.4161
Co2B Co 0.29988(2) 0.54893(2) 0.51713(2)
Co3B Co 0.49707(2) 0.49649(2) 0.69562(2)
O1B O 0.76904(11) 0.05521(11) 0.92365(10)
O2B O 0.91366(11) 0.11782(11) 0.97875(10)
O3B O 0.68572(11) 0.35732(11) 0.57517(10)
O4B O 0.58994(11) 0.43363(10) 0.62214(9)
O5B O 0.44961(10) 0.55831(10) 0.58023(9)
O6B O 0.41459(11) 0.57450(11) 0.74234(10)
O7B O 0.31402(11) 0.64574(11) 0.61515(10)
O8B O 0.21264(11) 0.93876(11) 0.90134(10)
O9B O 0.06954(11) 0.87949(11) 0.80822(10)
N1B N 0.15170(13) 0.56885(13) 0.45969(12)
N2B N -0.00132(13) 0.53540(16) 0.39216(12)
N3B N -0.28947(15) 0.58383(15) -0.06153(13)
N4B N -0.38069(13) 0.52847(14) -0.19574(12)
C1B C 0.82619(15) 0.11945(15) 0.92815(13)
C2B C 0.78337(15) 0.19974(15) 0.86419(13)
C3B C 0.68751(15) 0.19418(15) 0.80687(14)
H1B H 0.6503 0.1472 0.8164
C4B C 0.64356(15) 0.25628(16) 0.73482(14)
H2B H 0.5768 0.2534 0.6983
C5B C 0.69784(15) 0.32109(15) 0.71763(14)
C6B C 0.79549(16) 0.33338(16) 0.77751(14)
C7B C 0.83881(15) 0.27425(15) 0.85457(14)
C8B C 0.93406(18) 0.29434(18) 0.91699(16)
H3B H 0.9642 0.2574 0.9696
C9B C 0.9832(2) 0.3663(2) 0.90243(19)
H4B H 1.0463 0.3795 0.9459
C10B C 0.9416(2) 0.4210(2) 0.8241(2)
H5B H 0.9775 0.4688 0.8136
C11B C 0.84982(18) 0.40502(19) 0.76343(16)
H6B H 0.8217 0.4424 0.7109
C12B C 0.65445(15) 0.37546(15) 0.63132(13)
C13B C 0.34746(15) 0.62953(15) 0.69844(14)
C14B C 0.29935(15) 0.68379(15) 0.74562(13)
C15B C 0.21902(15) 0.73245(15) 0.69036(14)
H7B H 0.1945 0.7255 0.6272
C16B C 0.17247(16) 0.79197(16) 0.72498(14)
H8B H 0.1160 0.8230 0.6851
C17B C 0.20746(15) 0.80607(15) 0.81594(14)
C18B C 0.28753(15) 0.75370(15) 0.87646(14)
C19B C 0.33324(15) 0.68986(15) 0.84148(14)
C20B C 0.41031(17) 0.63612(17) 0.90388(15)
H9B H 0.4415 0.5932 0.8822
C21B C 0.44053(17) 0.64504(18) 0.99452(15)
H10B H 0.4928 0.6089 1.0347
C22B C 0.39504(17) 0.70706(18) 1.02883(14)
H11B H 0.4159 0.7120 1.0918
C23B C 0.32072(16) 0.76007(16) 0.97107(14)
H12B H 0.2906 0.8021 0.9946
C24B C 0.16008(16) 0.88012(15) 0.84577(14)
C25B C 0.08794(16) 0.50178(17) 0.43524(14)
H13B H 0.1030 0.4376 0.4466
C26B C 0.00663(19) 0.63028(19) 0.38845(19)
H14B H -0.0439 0.6737 0.3616
C27B C 0.10082(18) 0.64972(18) 0.43061(17)
H15B H 0.1276 0.7103 0.4388
C28B C -0.08867(16) 0.4797(2) 0.34745(15)
H16B H -0.0787 0.4177 0.3763
H17B H -0.1413 0.5107 0.3548
C29B C -0.11616(16) 0.46776(18) 0.24820(15)
C30B C -0.08367(16) 0.39208(17) 0.21751(16)
H18B H -0.0443 0.3467 0.2589
C31B C -0.10859(17) 0.38247(17) 0.12632(16)
H19B H -0.0873 0.3298 0.1056
C32B C -0.16439(17) 0.44954(17) 0.06562(15)
H20B H -0.1808 0.4429 0.0036
C33B C -0.19631(17) 0.52652(18) 0.09549(15)
C34B C -0.17222(17) 0.53435(19) 0.18712(16)
H21B H -0.1946 0.5862 0.2079
C35B C -0.2550(2) 0.6038(2) 0.03433(16)
H22B H -0.2160 0.6612 0.0489
H23B H -0.3103 0.6161 0.0466
C36B C -0.2438(2) 0.6004(2) -0.11455(18)
H24B H -0.1844 0.6308 -0.0970
C37B C -0.30039(19) 0.5647(2) -0.19671(17)
H25B H -0.2864 0.5648 -0.2469
C38B C -0.37058(16) 0.53999(19) -0.11293(15)
H26B H -0.4154 0.5196 -0.0926
H27B H 0.4564 0.6167 0.5839
Co1A Co 0.0000 1.0000 0.0000
Co1A_2 Co 1.0000 0.0000 1.0000
Co2A Co 0.79988(2) -0.04893(2) 0.01713(2)
Co2A_2 Co 0.79988(2) -0.04893(2) 1.01713(2)
Co2C Co 0.20012(2) 1.04893(2) -0.01713(2)
Co2C_2 Co 0.20012(2) 1.04893(2) 0.98287(2)
Co3_2 Co 1.50293(2) 0.50351(2) 1.30438(2)
Co3A Co 0.99707(2) 0.00351(2) 0.19562(2)
Co3B_2 Co -0.50293(2) 0.49649(2) -0.30438(2)
Co3C Co 0.00293(2) 0.99649(2) 0.80438(2)
O1A O 0.26904(11) 0.44479(11) 0.42365(10)
O1C O 0.73096(11) 0.55521(11) 0.57635(10)
O2A O 0.41366(11) 0.38218(11) 0.47875(10)
O2C O 0.58634(11) 0.61782(11) 0.52125(10)
O8A O 0.71264(11) 0.56124(11) 0.40134(10)
O8C O 0.28736(11) 0.43876(11) 0.59866(10)
O9A O 0.56954(11) 0.62051(11) 0.30822(10)
O9C O 0.43046(11) 0.37949(11) 0.69178(10)
N4_2 N 0.38069(13) 0.47153(14) 0.19574(12)
N4B_2 N 0.61931(13) 0.52847(14) 0.80426(12)
loop_
_geom_bond_atom_site_label_1
_geom_bond_atom_site_label_2
_geom_bond_site_symmetry_1
_geom_bond_site_symmetry_2
Co1 O4 1_555 1_555
Co2 O5 1_555 1_555
Co3 O4 1_555 1_555
O1 C1 1_555 1_555
O2 C1 1_555 1_555
O3 C12 1_555 1_555
O4 C12 1_555 1_555
O5 Co1 1_555 1_555
O6 Co3 1_555 1_555
O7 Co2 1_555 1_555
O8 C24 1_555 1_555
O9 C24 1_555 1_555
N1 Co2 1_555 1_555
N2 C25 1_555 1_555
N3 C35 1_555 1_555
N4 C37 1_555 1_555
C1 C2 1_555 1_555
C2 C3 1_555 1_555
C3 H1 1_555 1_555
C4 C3 1_555 1_555
H2 C4 1_555 1_555
C5 C4 1_555 1_555
C6 C5 1_555 1_555
C7 C2 1_555 1_555
C8 C7 1_555 1_555
H3 C8 1_555 1_555
C9 C8 1_555 1_555
H4 C9 1_555 1_555
C10 C9 1_555 1_555
H5 C10 1_555 1_555
C11 C6 1_555 1_555
H6 C11 1_555 1_555
C12 C5 1_555 1_555
C13 O6 1_555 1_555
C14 C13 1_555 1_555
C15 C14 1_555 1_555
H7 C15 1_555 1_555
C16 C15 1_555 1_555
H8 C16 1_555 1_555
C17 C16 1_555 1_555
C18 C17 1_555 1_555
C19 C14 1_555 1_555
C20 C19 1_555 1_555
H9 C20 1_555 1_555
C21 C20 1_555 1_555
H10 C21 1_555 1_555
C22 C21 1_555 1_555
H11 C22 1_555 1_555
C23 C18 1_555 1_555
H12 C23 1_555 1_555
C24 C17 1_555 1_555
C25 N1 1_555 1_555
H13 C25 1_555 1_555
C26 N2 1_555 1_555
H14 C26 1_555 1_555
C27 N1 1_555 1_555
H15 C27 1_555 1_555
C28 N2 1_555 1_555
H16 C28 1_555 1_555
H17 C28 1_555 1_555
C29 C28 1_555 1_555
C30 C29 1_555 1_555
H18 C30 1_555 1_555
C31 C30 1_555 1_555
H19 C31 1_555 1_555
C32 C31 1_555 1_555
H20 C32 1_555 1_555
C33 C32 1_555 1_555
C34 C29 1_555 1_555
H21 C34 1_555 1_555
C35 C33 1_555 1_555
H22 C35 1_555 1_555
H23 C35 1_555 1_555
C36 N3 1_555 1_555
H24 C36 1_555 1_555
C37 C36 1_555 1_555
H25 C37 1_555 1_555
C38 N3 1_555 1_555
H26 C38 1_555 1_555
H27 O5 1_555 1_555
Co2B O3 1_555 1_555
Co3B O4B 1_555 1_555
O1B C1B 1_555 1_555
O2B C1B 1_555 1_555
O3B Co2 1_555 1_555
O4B Co1 1_555 1_555
O5B Co1 1_555 1_555
O6B Co3B 1_555 1_555
O7B Co2B 1_555 1_555
O8B C24B 1_555 1_555
O9B C24B 1_555 1_555
N1B Co2B 1_555 1_555
N2B C25B 1_555 1_555
N3B C35B 1_555 1_555
N4B C37B 1_555 1_555
C1B C2B 1_555 1_555
C2B C3B 1_555 1_555
C3B H1B 1_555 1_555
C4B C3B 1_555 1_555
H2B C4B 1_555 1_555
C5B C4B 1_555 1_555
C6B C5B 1_555 1_555
C7B C2B 1_555 1_555
C8B C7B 1_555 1_555
H3B C8B 1_555 1_555
C9B C8B 1_555 1_555
H4B C9B 1_555 1_555
C10B C9B 1_555 1_555
H5B C10B 1_555 1_555
C11B C6B 1_555 1_555
H6B C11B 1_555 1_555
C12B O3B 1_555 1_555
C13B O6B 1_555 1_555
C14B C13B 1_555 1_555
C15B C14B 1_555 1_555
H7B C15B 1_555 1_555
C16B C15B 1_555 1_555
H8B C16B 1_555 1_555
C17B C16B 1_555 1_555
C18B C17B 1_555 1_555
C19B C14B 1_555 1_555
C20B C19B 1_555 1_555
H9B C20B 1_555 1_555
C21B C20B 1_555 1_555
H10B C21B 1_555 1_555
C22B C21B 1_555 1_555
H11B C22B 1_555 1_555
C23B C18B 1_555 1_555
H12B C23B 1_555 1_555
C24B C17B 1_555 1_555
C25B N1B 1_555 1_555
H13B C25B 1_555 1_555
C26B N2B 1_555 1_555
H14B C26B 1_555 1_555
C27B N1B 1_555 1_555
H15B C27B 1_555 1_555
C28B N2B 1_555 1_555
H16B C28B 1_555 1_555
H17B C28B 1_555 1_555
C29B C28B 1_555 1_555
C30B C29B 1_555 1_555
H18B C30B 1_555 1_555
C31B C30B 1_555 1_555
H19B C31B 1_555 1_555
C32B C31B 1_555 1_555
H20B C32B 1_555 1_555
C33B C32B 1_555 1_555
C34B C29B 1_555 1_555
H21B C34B 1_555 1_555
C35B C33B 1_555 1_555
H22B C35B 1_555 1_555
H23B C35B 1_555 1_555
C36B N3B 1_555 1_555
H24B C36B 1_555 1_555
C37B C36B 1_555 1_555
H25B C37B 1_555 1_555
C38B N3B 1_555 1_555
H26B C38B 1_555 1_555
H27B O5B 1_555 1_555
Co1A O2 1_555 1_555
Co1A_2 O2B 1_555 1_555
Co2A O8 1_555 1_555
Co2A_2 O1B 1_555 1_555
Co2C O1 1_555 1_555
Co2C_2 O8B 1_555 1_555
Co3_2 N4 1_555 1_555
Co3A O9 1_555 1_555
Co3B_2 N4B 1_555 1_555
Co3C O9B 1_555 1_555
O1A Co2B 1_555 1_555
O1C Co2 1_555 1_555
O2A Co1 1_555 1_555
O2C Co1 1_555 1_555
O8A Co2 1_555 1_555
O8C Co2B 1_555 1_555
O9A Co3 1_555 1_555
O9C Co3B 1_555 1_555
N4_2 Co3 1_555 1_555
N4B_2 Co3B 1_555 1_555
Co3 O5 1_555 1_555
O7 C13 1_555 1_555
N4 C38 1_555 1_555
C6 C7 1_555 1_555
C10 C11 1_555 1_555
C18 C19 1_555 1_555
C22 C23 1_555 1_555
C26 C27 1_555 1_555
C33 C34 1_555 1_555
Co2B O5B 1_555 1_555
Co3B O5B 1_555 1_555
O4B C12B 1_555 1_555
O7B C13B 1_555 1_555
N4B C38B 1_555 1_555
C5B C12B 1_555 1_555
C6B C7B 1_555 1_555
C10B C11B 1_555 1_555
C18B C19B 1_555 1_555
C22B C23B 1_555 1_555
C26B C27B 1_555 1_555
C33B C34B 1_555 1_555

#END
