
#######################################################################
#
#                 Cambridge Crystallographic Data Centre
#                                CCDC 
#
#######################################################################
#
# If this CIF has been generated from an entry in the Cambridge 
# Structural Database, then it will include bibliographic, chemical, 
# crystal, experimental, refinement or atomic coordinate data resulting 
# from the CCDC's data processing and validation procedures.
#
#######################################################################

data_VOBFAV
_symmetry_cell_setting           monoclinic
_symmetry_space_group_name_H-M   'P 21/n'
_symmetry_Int_Tables_number      14
_space_group_name_Hall           '-P 2yn'
loop_
_symmetry_equiv_pos_site_id
_symmetry_equiv_pos_as_xyz
1 x,y,z
2 1/2-x,1/2+y,1/2-z
3 -x,-y,-z
4 1/2+x,1/2-y,1/2+z
_cell_length_a                   15.113(3)
_cell_length_b                   6.4048(13)
_cell_length_c                   34.476(7)
_cell_angle_alpha                90
_cell_angle_beta                 100.18(3)
_cell_angle_gamma                90
_cell_volume                     3284.59
loop_
_atom_site_label
_atom_site_type_symbol
_atom_site_fract_x
_atom_site_fract_y
_atom_site_fract_z
Na1 Na 0.44133(17) 0.7486(5) -0.00279(10)
Na2 Na 0.45071(18) 0.4566(5) 0.08035(10)
Na3 Na 0.57122(18) 0.9569(5) 0.08615(10)
Na4 Na 0.57848(19) 0.6565(6) 0.16857(10)
O1 O 0.5932(3) 0.8997(9) 0.01999(17)
O2 O 0.6000(3) 0.6081(10) 0.10219(17)
O3 O 0.4097(3) 0.8024(9) 0.06392(18)
C1 C 0.3790(5) 0.9540(14) 0.0811(2)
C2 C 0.6437(5) 0.4560(14) 0.0919(2)
O4 O 0.4187(3) 0.4966(9) 0.15298(18)
O5 O 0.4347(3) 0.8247(10) 0.17439(17)
C3 C 0.6323(4) 0.7532(14) 0.0059(3)
C4 C 0.7832(5) 0.5866(15) 0.0036(3)
H1 H 0.7546 0.4587 -0.0020
C5 C 0.7344(4) 0.7598(13) 0.0092(2)
C6 C 0.7460(5) 0.4607(13) 0.1036(2)
C7 C 0.2803(5) 0.9399(14) 0.0856(2)
C8 C 0.3913(5) 0.6501(15) 0.1682(3)
C9 C 0.7792(5) 0.9464(15) 0.0179(3)
H2 H 0.7463 1.0653 0.0215
C10 C 0.2368(5) 1.1103(16) 0.0958(3)
H3 H 0.2664 1.2382 0.0991
C11 C 0.7891(5) 0.6449(17) 0.1161(3)
H4 H 0.7554 0.7660 0.1165
C12 C 0.7963(5) 0.2858(16) 0.1024(3)
H5 H 0.7684 0.1606 0.0938
C13 C 0.2355(5) 0.7527(15) 0.0814(3)
H6 H 0.2653 0.6332 0.0754
C14 C 0.8822(6) 0.654(2) 0.1280(3)
H7 H 0.9100 0.7788 0.1371
C15 C 0.3008(5) 0.6402(14) 0.1836(3)
C16 C 0.2546(6) 0.4614(16) 0.1810(3)
H8 H 0.2777 0.3435 0.1707
C17 C 0.8709(6) 0.9615(18) 0.0214(3)
H9 H 0.9001 1.0886 0.0271
C18 C 0.1470(6) 0.7395(16) 0.0860(3)
H10 H 0.1171 0.6123 0.0821
C19 C 0.8916(6) 0.2926(19) 0.1143(3)
H11 H 0.9262 0.1727 0.1139
C20 C 0.8754(6) 0.6022(19) 0.0062(3)
H12 H 0.9081 0.4860 0.0008
C21 C 0.1040(6) 0.9059(19) 0.0958(3)
H13 H 0.0444 0.8945 0.0990
C22 C 0.1470(6) 1.0953(18) 0.1014(3)
H14 H 0.1172 1.2119 0.1088
Na5 Na 0.47002(18) 1.1567(5) 0.16105(10)
O6 O 0.6089(3) 0.2988(9) 0.07381(16)
O7 O 0.5925(3) 0.5936(9) -0.01099(17)
O8 O 0.4227(3) 1.1116(9) 0.09367(16)
O9 O 0.6137(4) 0.3118(9) 0.18274(17)
C23 C 0.6615(5) 0.1560(15) 0.1798(2)
C24 C 0.7604(5) 0.1595(14) 0.1996(2)
C25 C 0.7947(5) 0.3436(18) 0.2171(3)
H15 H 0.7589 0.4620 0.2167
O10 O 0.6316(3) -0.0091(9) 0.16111(17)
C26 C 0.9384(7) 0.176(2) 0.2355(3)
H16 H 0.9988 0.1842 0.2470
C27 C 0.1724(7) 0.449(2) 0.1938(4)
H17 H 0.1399 0.3253 0.1917
C28 C 0.1392(7) 0.630(2) 0.2099(3)
H18 H 0.0844 0.6262 0.2187
C29 C 0.8854(7) 0.346(2) 0.2355(3)
H19 H 0.9094 0.4669 0.2480
C30 C 0.1862(7) 0.803(2) 0.2125(3)
H20 H 0.1639 0.9220 0.2229
C31 C 0.8125(6) -0.0140(16) 0.2002(3)
H21 H 0.7874 -0.1359 0.1884
C32 C 0.2667(6) 0.8132(18) 0.2003(3)
H22 H 0.2994 0.9369 0.2032
C33 C 0.9038(7) -0.013(2) 0.2183(3)
H23 H 0.9395 -0.1318 0.2188
C34 C 0.9312(6) 0.480(2) 0.1262(3)
H24 H 0.9934 0.4866 0.1333
C35 C 0.9182(6) 0.784(2) 0.0163(3)
H25 H 0.9806 0.7886 0.0199
Na1B Na 0.55867(17) 0.2514(5) 0.00279(10)
Na1B_2 Na 0.55867(17) 1.2514(5) 0.00279(10)
Na2_2 Na 0.45071(18) 1.4566(5) 0.08035(10)
Na2B Na 0.54929(18) 0.5434(5) -0.08035(10)
Na3_2 Na 0.57122(18) -0.0431(5) 0.08615(10)
Na4_2 Na 0.57848(19) -0.3435(6) 0.16857(10)
O1B O 0.4068(3) 1.1003(9) -0.01999(17)
O4_2 O 0.4187(3) 1.4966(9) 0.15298(18)
Na5_2 Na 0.47002(18) 0.1567(5) 0.16105(10)
O6_2 O 0.6089(3) 1.2988(9) 0.07381(16)
O6B O 0.3911(3) 0.7012(9) -0.07381(16)
O7B O 0.4075(3) 0.4064(9) 0.01099(17)
O8_2 O 0.4227(3) 0.1116(9) 0.09367(16)
O9_2 O 0.6137(4) 1.3118(9) 0.18274(17)
O10_2 O 0.6316(3) 0.9909(9) 0.16111(17)
loop_
_geom_bond_atom_site_label_1
_geom_bond_atom_site_label_2
_geom_bond_site_symmetry_1
_geom_bond_site_symmetry_2
Na1 O1 1_555 1_555
Na2 O2 1_555 1_555
Na3 O1 1_555 1_555
Na4 O2 1_555 1_555
O1 C3 1_555 1_555
O2 Na3 1_555 1_555
O3 Na1 1_555 1_555
C1 O3 1_555 1_555
C2 O2 1_555 1_555
O4 Na2 1_555 1_555
O5 Na4 1_555 1_555
C3 C5 1_555 1_555
C4 H1 1_555 1_555
C5 C4 1_555 1_555
C6 C2 1_555 1_555
C7 C1 1_555 1_555
C8 O4 1_555 1_555
C9 C5 1_555 1_555
H2 C9 1_555 1_555
C10 C7 1_555 1_555
H3 C10 1_555 1_555
C11 C6 1_555 1_555
H4 C11 1_555 1_555
C12 C6 1_555 1_555
H5 C12 1_555 1_555
C13 C7 1_555 1_555
H6 C13 1_555 1_555
C14 C11 1_555 1_555
H7 C14 1_555 1_555
C15 C8 1_555 1_555
C16 C15 1_555 1_555
H8 C16 1_555 1_555
C17 C9 1_555 1_555
H9 C17 1_555 1_555
C18 C13 1_555 1_555
H10 C18 1_555 1_555
C19 C12 1_555 1_555
H11 C19 1_555 1_555
C20 C4 1_555 1_555
H12 C20 1_555 1_555
C21 C18 1_555 1_555
H13 C21 1_555 1_555
C22 C10 1_555 1_555
H14 C22 1_555 1_555
Na5 O5 1_555 1_555
O6 Na2 1_555 1_555
O7 Na1 1_555 1_555
O8 Na3 1_555 1_555
O9 Na4 1_555 1_555
C23 O9 1_555 1_555
C24 C23 1_555 1_555
C25 C24 1_555 1_555
H15 C25 1_555 1_555
O10 C23 1_555 1_555
C26 H16 1_555 1_555
C27 C16 1_555 1_555
H17 C27 1_555 1_555
C28 C27 1_555 1_555
H18 C28 1_555 1_555
C29 C25 1_555 1_555
H19 C29 1_555 1_555
C30 C28 1_555 1_555
H20 C30 1_555 1_555
C31 C24 1_555 1_555
H21 C31 1_555 1_555
C32 C15 1_555 1_555
H22 C32 1_555 1_555
C33 C26 1_555 1_555
H23 C33 1_555 1_555
C34 C14 1_555 1_555
H24 C34 1_555 1_555
C35 C17 1_555 1_555
H25 C35 1_555 1_555
Na1B O6 1_555 1_555
Na1B_2 O1 1_555 1_555
Na2_2 O8 1_555 1_555
Na2B O7 1_555 1_555
Na3_2 O6 1_555 1_555
Na4_2 O10 1_555 1_555
O1B Na1 1_555 1_555
O4_2 Na5 1_555 1_555
Na5_2 O4 1_555 1_555
O6_2 Na3 1_555 1_555
O6B Na1 1_555 1_555
O7B Na1 1_555 1_555
O8_2 Na2 1_555 1_555
O9_2 Na5 1_555 1_555
O10_2 Na3 1_555 1_555
Na2 O3 1_555 1_555
Na2 O7B 1_555 1_555
Na3 O3 1_555 1_555
Na4 O4 1_555 1_555
Na4 O10_2 1_555 1_555
C1 O8 1_555 1_555
C2 O6 1_555 1_555
O5 C8 1_555 1_555
C3 O7 1_555 1_555
C19 C34 1_555 1_555
C20 C35 1_555 1_555
C21 C22 1_555 1_555
Na5 O8 1_555 1_555
Na5 O10_2 1_555 1_555
O7 Na1B 1_555 1_555
O9 Na5_2 1_555 1_555
O10 Na3_2 1_555 1_555
O10 Na5_2 1_555 1_555
C26 C29 1_555 1_555
C30 C32 1_555 1_555
C31 C33 1_555 1_555
Na1B O7B 1_555 1_555
Na1B_2 O1B 1_555 1_555
Na1B_2 O6_2 1_555 1_555
Na2_2 O4_2 1_555 1_555
Na2_2 O6_2 1_555 1_555
Na2B O6B 1_555 1_555
Na3_2 O8_2 1_555 1_555
Na5_2 O8_2 1_555 1_555

#END
