
#######################################################################
#
#                 Cambridge Crystallographic Data Centre
#                                CCDC 
#
#######################################################################
#
# If this CIF has been generated from an entry in the Cambridge 
# Structural Database, then it will include bibliographic, chemical, 
# crystal, experimental, refinement or atomic coordinate data resulting 
# from the CCDC's data processing and validation procedures.
#
#######################################################################

data_VOBJUT
_symmetry_cell_setting           tetragonal
_symmetry_space_group_name_H-M   'P 42/n'
_symmetry_Int_Tables_number      86
_space_group_name_Hall           '-P 4bc'
loop_
_symmetry_equiv_pos_site_id
_symmetry_equiv_pos_as_xyz
1 x,y,z
2 -y,1/2+x,1/2+z
3 1/2+y,-x,1/2+z
4 1/2-x,1/2-y,z
5 -x,-y,-z
6 y,1/2-x,1/2-z
7 1/2-y,x,1/2-z
8 1/2+x,1/2+y,-z
_cell_length_a                   12.4992(13)
_cell_length_b                   12.4992(13)
_cell_length_c                   8.3019(9)
_cell_angle_alpha                90
_cell_angle_beta                 90
_cell_angle_gamma                90
_cell_volume                     1297.01
loop_
_atom_site_label
_atom_site_type_symbol
_atom_site_fract_x
_atom_site_fract_y
_atom_site_fract_z
Zr1 Zr 0.750000 0.750000 1.250000
Zn1 Zn 0.750000 0.750000 1.750000
N1 N 0.59799(16) 0.67369(16) 1.7605(2)
C1 C 0.3674(2) 0.6154(2) 2.1285(3)
H1 H 0.4242(2) 0.6584(2) 2.1682(3)
H2 H 0.3103(2) 0.5956(2) 2.1979(3)
C2 C 0.5403(2) 0.6648(2) 1.8924(3)
H3 H 0.5599(2) 0.6939(2) 1.9939(3)
N2 N 0.44936(17) 0.60890(17) 1.8648(3)
C3 C 0.3676(2) 0.5834(2) 1.9778(3)
H4 H 0.3096(2) 0.5405(2) 1.9419(3)
C4 C 0.5421(2) 0.6203(2) 1.6417(3)
H5 H 0.5643(2) 0.6131(2) 1.5328(3)
C5 C 0.4506(2) 0.5795(2) 1.7047(3)
H6 H 0.3978(2) 0.5388(2) 1.6495(3)
F1 F 0.750000 0.750000 1.4937(2)
F2 F 0.90938(11) 0.74725(13) 1.24359(18)
N1C N 0.90201(16) 0.82631(16) 1.7605(2)
C1C C 1.1326(2) 0.8846(2) 2.1285(3)
H1C H 1.0758(2) 0.8416(2) 2.1682(3)
H2C H 1.1897(2) 0.9044(2) 2.1979(3)
C2C C 0.9597(2) 0.8352(2) 1.8924(3)
H3C H 0.9401(2) 0.8061(2) 1.9939(3)
N2C N 1.05064(17) 0.89110(17) 1.8648(3)
C3C C 1.1324(2) 0.9166(2) 1.9778(3)
H4C H 1.1904(2) 0.9595(2) 1.9419(3)
C4C C 0.9579(2) 0.8797(2) 1.6417(3)
H5C H 0.9357(2) 0.8869(2) 1.5328(3)
C5C C 1.0494(2) 0.9205(2) 1.7047(3)
H6C H 1.1022(2) 0.9612(2) 1.6495(3)
F2C F 0.59062(11) 0.75275(13) 1.24359(18)
F1E F 0.750000 0.750000 1.0063(2)
F2E F 0.74725(13) 0.59062(11) 1.25641(18)
F2F F 0.75275(13) 0.90938(11) 1.25641(18)
N1E N 0.67369(16) 0.90201(16) 1.7395(2)
C1E C 0.6154(2) 1.1326(2) 1.3715(3)
H1E H 0.6584(2) 1.0758(2) 1.3318(3)
H2E H 0.5956(2) 1.1897(2) 1.3021(3)
C2E C 0.6648(2) 0.9597(2) 1.6076(3)
H3E H 0.6939(2) 0.9401(2) 1.5061(3)
N2E N 0.60890(17) 1.05064(17) 1.6352(3)
C3E C 0.5834(2) 1.1324(2) 1.5222(3)
H4E H 0.5405(2) 1.1904(2) 1.5581(3)
C4E C 0.6203(2) 0.9579(2) 1.8583(3)
H5E H 0.6131(2) 0.9357(2) 1.9672(3)
C5E C 0.5795(2) 1.0494(2) 1.7953(3)
H6E H 0.5388(2) 1.1022(2) 1.8505(3)
N1F N 0.82631(16) 0.59799(16) 1.7395(2)
C1F C 0.8846(2) 0.3674(2) 1.3715(3)
H1F H 0.8416(2) 0.4242(2) 1.3318(3)
H2F H 0.9044(2) 0.3103(2) 1.3021(3)
C2F C 0.8352(2) 0.5403(2) 1.6076(3)
H3F H 0.8061(2) 0.5599(2) 1.5061(3)
N2F N 0.89110(17) 0.44936(17) 1.6352(3)
C3F C 0.9166(2) 0.3676(2) 1.5222(3)
H4F H 0.9595(2) 0.3096(2) 1.5581(3)
C4F C 0.8797(2) 0.5421(2) 1.8583(3)
H5F H 0.8869(2) 0.5643(2) 1.9672(3)
C5F C 0.9205(2) 0.4506(2) 1.7953(3)
H6F H 0.9612(2) 0.3978(2) 1.8505(3)
Zn1_2 Zn 0.750000 0.750000 0.750000
F1E_2 F 0.750000 0.750000 2.0063(2)
loop_
_geom_bond_atom_site_label_1
_geom_bond_atom_site_label_2
_geom_bond_site_symmetry_1
_geom_bond_site_symmetry_2
Zr1 F1 1_555 1_555
Zn1 N1 1_555 1_555
N1 C2 1_555 1_555
C1 H1 1_555 1_555
H2 C1 1_555 1_555
C2 H3 1_555 1_555
N2 C2 1_555 1_555
C3 C1 1_555 1_555
H4 C3 1_555 1_555
C4 N1 1_555 1_555
H5 C4 1_555 1_555
C5 N2 1_555 1_555
H6 C5 1_555 1_555
F1 Zn1 1_555 1_555
F2 Zr1 1_555 1_555
N1C Zn1 1_555 1_555
C1C H1C 1_555 1_555
H2C C1C 1_555 1_555
C2C N1C 1_555 1_555
H3C C2C 1_555 1_555
N2C C2C 1_555 1_555
C3C C1C 1_555 1_555
H4C C3C 1_555 1_555
C4C N1C 1_555 1_555
H5C C4C 1_555 1_555
C5C N2C 1_555 1_555
H6C C5C 1_555 1_555
F2C Zr1 1_555 1_555
F1E Zr1 1_555 1_555
F2E Zr1 1_555 1_555
F2F Zr1 1_555 1_555
N1E Zn1 1_555 1_555
C1E H1E 1_555 1_555
H2E C1E 1_555 1_555
C2E N1E 1_555 1_555
H3E C2E 1_555 1_555
N2E C2E 1_555 1_555
C3E C1E 1_555 1_555
H4E C3E 1_555 1_555
C4E N1E 1_555 1_555
H5E C4E 1_555 1_555
C5E N2E 1_555 1_555
H6E C5E 1_555 1_555
N1F Zn1 1_555 1_555
C1F H1F 1_555 1_555
H2F C1F 1_555 1_555
C2F N1F 1_555 1_555
H3F C2F 1_555 1_555
N2F C2F 1_555 1_555
C3F C1F 1_555 1_555
H4F C3F 1_555 1_555
C4F N1F 1_555 1_555
H5F C4F 1_555 1_555
C5F N2F 1_555 1_555
H6F C5F 1_555 1_555
Zn1_2 F1E 1_555 1_555
F1E_2 Zn1 1_555 1_555
N2 C3 1_555 1_555
C4 C5 1_555 1_555
N2C C3C 1_555 1_555
C4C C5C 1_555 1_555
N2E C3E 1_555 1_555
C4E C5E 1_555 1_555
N2F C3F 1_555 1_555
C4F C5F 1_555 1_555

#END
