
#######################################################################
#
#                 Cambridge Crystallographic Data Centre
#                                CCDC 
#
#######################################################################
#
# If this CIF has been generated from an entry in the Cambridge 
# Structural Database, then it will include bibliographic, chemical, 
# crystal, experimental, refinement or atomic coordinate data resulting 
# from the CCDC's data processing and validation procedures.
#
#######################################################################

data_VOBJON
_symmetry_cell_setting           tetragonal
_symmetry_space_group_name_H-M   'P 42/n'
_symmetry_Int_Tables_number      86
_space_group_name_Hall           '-P 4bc'
loop_
_symmetry_equiv_pos_site_id
_symmetry_equiv_pos_as_xyz
1 x,y,z
2 1/2-x,1/2-y,z
3 -y,1/2+x,1/2+z
4 1/2+y,-x,1/2+z
5 -x,-y,-z
6 1/2+x,1/2+y,-z
7 y,1/2-x,1/2-z
8 1/2-y,x,1/2-z
_cell_length_a                   12.4898(4)
_cell_length_b                   12.4898(4)
_cell_length_c                   8.0847(3)
_cell_angle_alpha                90
_cell_angle_beta                 90
_cell_angle_gamma                90
_cell_volume                     1261.17
loop_
_atom_site_label
_atom_site_type_symbol
_atom_site_fract_x
_atom_site_fract_y
_atom_site_fract_z
Re1 Re 0.7500 0.7500 0.2500
Ni1 Ni 0.7500 0.7500 -0.2500
N1 N 0.89856(14) 0.67635(14) -0.24171(18)
F1 F 0.7500 0.7500 0.0072(2)
F2 F 0.59467(11) 0.73460(14) 0.24832(13)
C1 C 0.95572(16) 0.66612(16) -0.1053(2)
H1 H 0.9353 0.6937 -0.0004
N2 N 1.04795(14) 0.61076(14) -0.1348(2)
C2 C 1.04746(18) 0.58420(18) -0.3008(3)
H2 H 1.1010 0.5452 -0.3585
C3 C 0.95545(17) 0.62473(17) -0.3654(3)
H3 H 0.9336 0.6186 -0.4775
C4 C 1.12879(18) 0.58445(19) -0.0182(3)
H4 H 1.1864 0.5406 -0.0545
C5 C 1.1292(2) 0.6169(2) 0.1373(3)
H5 H 1.0728 0.6608 0.1775
H6 H 1.1859 0.5963 0.2089
N1A N 0.60144(14) 0.82365(14) -0.24171(18)
F2A F 0.90533(11) 0.76540(14) 0.24832(13)
C1A C 0.54428(16) 0.83388(16) -0.1053(2)
H1A H 0.5647 0.8063 -0.0004
N2A N 0.45205(14) 0.88924(14) -0.1348(2)
C2A C 0.45254(18) 0.91580(18) -0.3008(3)
H2A H 0.3990 0.9548 -0.3585
C3A C 0.54455(17) 0.87527(17) -0.3654(3)
H3A H 0.5664 0.8814 -0.4775
C4A C 0.37121(18) 0.91555(19) -0.0182(3)
H4A H 0.3136 0.9594 -0.0545
C5A C 0.3708(2) 0.8831(2) 0.1373(3)
H5A H 0.4272 0.8392 0.1775
H6A H 0.3141 0.9037 0.2089
N1F N 0.67635(14) 0.60144(14) -0.25829(18)
F1F F 0.7500 0.7500 -0.5072(2)
C1F C 0.66612(16) 0.54428(16) -0.3947(2)
H1F H 0.6937 0.5647 -0.4996
N2F N 0.61076(14) 0.45205(14) -0.3652(2)
C2F C 0.58420(18) 0.45254(18) -0.1992(3)
H2F H 0.5452 0.3990 -0.1415
C3F C 0.62473(17) 0.54455(17) -0.1346(3)
H3F H 0.6186 0.5664 -0.0225
C4F C 0.58445(19) 0.37121(18) -0.4818(3)
H4F H 0.5406 0.3136 -0.4455
C5F C 0.6169(2) 0.3708(2) -0.6373(3)
H5F H 0.6608 0.4272 -0.6775
H6F H 0.5963 0.3141 -0.7089
N1G N 0.82365(14) 0.89856(14) -0.25829(18)
C1G C 0.83388(16) 0.95572(16) -0.3947(2)
H1G H 0.8063 0.9353 -0.4996
N2G N 0.88924(14) 1.04795(14) -0.3652(2)
C2G C 0.91580(18) 1.04746(18) -0.1992(3)
H2G H 0.9548 1.1010 -0.1415
C3G C 0.87527(17) 0.95545(17) -0.1346(3)
H3G H 0.8814 0.9336 -0.0225
C4G C 0.91555(19) 1.12879(18) -0.4818(3)
H4G H 0.9594 1.1864 -0.4455
C5G C 0.8831(2) 1.1292(2) -0.6373(3)
H5G H 0.8392 1.0728 -0.6775
H6G H 0.9037 1.1859 -0.7089
F2F F 0.73460(14) 0.90533(11) 0.25168(13)
F2G F 0.76540(14) 0.59467(11) 0.25168(13)
Re1_2 Re 0.7500 0.7500 -0.7500
F1F_2 F 0.7500 0.7500 0.4928(2)
loop_
_geom_bond_atom_site_label_1
_geom_bond_atom_site_label_2
_geom_bond_site_symmetry_1
_geom_bond_site_symmetry_2
Re1 F1 1_555 1_555
Ni1 N1 1_555 1_555
N1 C1 1_555 1_555
F1 Ni1 1_555 1_555
F2 Re1 1_555 1_555
C1 H1 1_555 1_555
N2 C1 1_555 1_555
C2 N2 1_555 1_555
H2 C2 1_555 1_555
C3 N1 1_555 1_555
H3 C3 1_555 1_555
C4 N2 1_555 1_555
H4 C4 1_555 1_555
C5 C4 1_555 1_555
H5 C5 1_555 1_555
H6 C5 1_555 1_555
N1A Ni1 1_555 1_555
F2A Re1 1_555 1_555
C1A N1A 1_555 1_555
H1A C1A 1_555 1_555
N2A C1A 1_555 1_555
C2A N2A 1_555 1_555
H2A C2A 1_555 1_555
C3A N1A 1_555 1_555
H3A C3A 1_555 1_555
C4A N2A 1_555 1_555
H4A C4A 1_555 1_555
C5A C4A 1_555 1_555
H5A C5A 1_555 1_555
H6A C5A 1_555 1_555
N1F Ni1 1_555 1_555
F1F Ni1 1_555 1_555
C1F N1F 1_555 1_555
H1F C1F 1_555 1_555
N2F C1F 1_555 1_555
C2F N2F 1_555 1_555
H2F C2F 1_555 1_555
C3F N1F 1_555 1_555
H3F C3F 1_555 1_555
C4F N2F 1_555 1_555
H4F C4F 1_555 1_555
C5F C4F 1_555 1_555
H5F C5F 1_555 1_555
H6F C5F 1_555 1_555
N1G Ni1 1_555 1_555
C1G N1G 1_555 1_555
H1G C1G 1_555 1_555
N2G C1G 1_555 1_555
C2G N2G 1_555 1_555
H2G C2G 1_555 1_555
C3G N1G 1_555 1_555
H3G C3G 1_555 1_555
C4G N2G 1_555 1_555
H4G C4G 1_555 1_555
C5G C4G 1_555 1_555
H5G C5G 1_555 1_555
H6G C5G 1_555 1_555
F2F Re1 1_555 1_555
F2G Re1 1_555 1_555
Re1_2 F1F 1_555 1_555
F1F_2 Re1 1_555 1_555
C2 C3 1_555 1_555
C2A C3A 1_555 1_555
C2F C3F 1_555 1_555
C2G C3G 1_555 1_555

#END
