
#######################################################################
#
#                 Cambridge Crystallographic Data Centre
#                                CCDC 
#
#######################################################################
#
# If this CIF has been generated from an entry in the Cambridge 
# Structural Database, then it will include bibliographic, chemical, 
# crystal, experimental, refinement or atomic coordinate data resulting 
# from the CCDC's data processing and validation procedures.
#
#######################################################################

data_VOBJIH
_symmetry_cell_setting           tetragonal
_symmetry_space_group_name_H-M   'P 42/n'
_symmetry_Int_Tables_number      86
_space_group_name_Hall           '-P 4bc'
loop_
_symmetry_equiv_pos_site_id
_symmetry_equiv_pos_as_xyz
1 x,y,z
2 -y,1/2+x,1/2+z
3 1/2+y,-x,1/2+z
4 1/2-x,1/2-y,z
5 -x,-y,-z
6 y,1/2-x,1/2-z
7 1/2-y,x,1/2-z
8 1/2+x,1/2+y,-z
_cell_length_a                   12.4804(9)
_cell_length_b                   12.4804(9)
_cell_length_c                   8.1937(7)
_cell_angle_alpha                90
_cell_angle_beta                 90
_cell_angle_gamma                90
_cell_volume                     1276.25
loop_
_atom_site_label
_atom_site_type_symbol
_atom_site_fract_x
_atom_site_fract_y
_atom_site_fract_z
Re1 Re 0.750000 0.750000 1.250000
Zn1 Zn 0.750000 0.750000 0.750000
F1 F 0.750000 0.750000 1.0102(5)
F2 F 0.5939(3) 0.7424(3) 1.24910(7)
N1 N 0.6736(3) 0.5992(3) 0.73755(15)
C1 C 0.66389(13) 0.54132(12) 0.60300(18)
C2 C 0.62098(13) 0.54171(13) 0.85792(19)
C3 C 0.57962(15) 0.45004(13) 0.7935(4)
C4 C 0.61604(12) 0.36844(12) 0.36336(18)
N2 N 0.60804(10) 0.45002(10) 0.6306(2)
C5 C 0.58238(11) 0.36873(11) 0.51520(17)
H1 H 0.66035(12) 0.42490(12) 0.32472(18)
H2 H 0.59609(12) 0.31178(12) 0.29216(18)
H3 H 0.53819(11) 0.31116(11) 0.55016(17)
H4 H 0.53937(15) 0.39684(13) 0.8494(4)
H5 H 0.61467(13) 0.56307(13) 0.96879(19)
H6 H 0.69249(13) 0.56132(12) 0.49996(18)
F2C F 0.9061(3) 0.7576(3) 1.24910(7)
N1C N 0.8264(3) 0.9008(3) 0.73755(15)
C1C C 0.83611(13) 0.95868(12) 0.60300(18)
C2C C 0.87902(13) 0.95829(13) 0.85792(19)
C3C C 0.92038(15) 1.04996(13) 0.7935(4)
C4C C 0.88396(12) 1.13156(12) 0.36336(18)
N2C N 0.89196(10) 1.04998(10) 0.6306(2)
C5C C 0.91762(11) 1.13127(11) 0.51520(17)
H1C H 0.83965(12) 1.07510(12) 0.32472(18)
H2C H 0.90391(12) 1.18822(12) 0.29216(18)
H3C H 0.96181(11) 1.18884(11) 0.55016(17)
H4C H 0.96063(15) 1.10316(13) 0.8494(4)
H5C H 0.88533(13) 0.93693(13) 0.96879(19)
H6C H 0.80751(13) 0.93868(12) 0.49996(18)
F1E F 0.750000 0.750000 0.4898(5)
N1E N 0.5992(3) 0.8264(3) 0.76245(15)
C1E C 0.54132(12) 0.83611(13) 0.89700(18)
C2E C 0.54171(13) 0.87902(13) 0.64208(19)
C3E C 0.45004(13) 0.92038(15) 0.7065(4)
C4E C 0.36844(12) 0.88396(12) 1.13664(18)
N2E N 0.45002(10) 0.89196(10) 0.8694(2)
C5E C 0.36873(11) 0.91762(11) 0.98480(17)
H1E H 0.42490(12) 0.83965(12) 1.17528(18)
H2E H 0.31178(12) 0.90391(12) 1.20784(18)
H3E H 0.31116(11) 0.96181(11) 0.94984(17)
H4E H 0.39684(13) 0.96063(15) 0.6506(4)
H5E H 0.56307(13) 0.88533(13) 0.53121(19)
H6E H 0.56132(12) 0.80751(13) 1.00004(18)
N1F N 0.9008(3) 0.6736(3) 0.76245(15)
C1F C 0.95868(12) 0.66389(13) 0.89700(18)
C2F C 0.95829(13) 0.62098(13) 0.64208(19)
C3F C 1.04996(13) 0.57962(15) 0.7065(4)
C4F C 1.13156(12) 0.61604(12) 1.13664(18)
N2F N 1.04998(10) 0.60804(10) 0.8694(2)
C5F C 1.13127(11) 0.58238(11) 0.98480(17)
H1F H 1.07510(12) 0.66035(12) 1.17528(18)
H2F H 1.18822(12) 0.59609(12) 1.20784(18)
H3F H 1.18884(11) 0.53819(11) 0.94984(17)
H4F H 1.10316(13) 0.53937(15) 0.6506(4)
H5F H 0.93693(13) 0.61467(13) 0.53121(19)
H6F H 0.93868(12) 0.69249(13) 1.00004(18)
F2E F 0.7424(3) 0.9061(3) 1.25090(7)
F2F F 0.7576(3) 0.5939(3) 1.25090(7)
Re1_2 Re 0.750000 0.750000 0.250000
F1E_2 F 0.750000 0.750000 1.4898(5)
loop_
_geom_bond_atom_site_label_1
_geom_bond_atom_site_label_2
_geom_bond_site_symmetry_1
_geom_bond_site_symmetry_2
Re1 F1 1_555 1_555
Zn1 F1 1_555 1_555
F2 Re1 1_555 1_555
N1 Zn1 1_555 1_555
C1 N1 1_555 1_555
C2 N1 1_555 1_555
C3 C2 1_555 1_555
C4 C5 1_555 1_555
N2 C1 1_555 1_555
C5 N2 1_555 1_555
H1 C4 1_555 1_555
H2 C4 1_555 1_555
H3 C5 1_555 1_555
H4 C3 1_555 1_555
H5 C2 1_555 1_555
H6 C1 1_555 1_555
F2C Re1 1_555 1_555
N1C Zn1 1_555 1_555
C1C N1C 1_555 1_555
C2C N1C 1_555 1_555
C3C C2C 1_555 1_555
C4C C5C 1_555 1_555
N2C C1C 1_555 1_555
C5C N2C 1_555 1_555
H1C C4C 1_555 1_555
H2C C4C 1_555 1_555
H3C C5C 1_555 1_555
H4C C3C 1_555 1_555
H5C C2C 1_555 1_555
H6C C1C 1_555 1_555
F1E Zn1 1_555 1_555
N1E Zn1 1_555 1_555
C1E N1E 1_555 1_555
C2E N1E 1_555 1_555
C3E C2E 1_555 1_555
C4E C5E 1_555 1_555
N2E C1E 1_555 1_555
C5E N2E 1_555 1_555
H1E C4E 1_555 1_555
H2E C4E 1_555 1_555
H3E C5E 1_555 1_555
H4E C3E 1_555 1_555
H5E C2E 1_555 1_555
H6E C1E 1_555 1_555
N1F Zn1 1_555 1_555
C1F N1F 1_555 1_555
C2F N1F 1_555 1_555
C3F C2F 1_555 1_555
C4F C5F 1_555 1_555
N2F C1F 1_555 1_555
C5F N2F 1_555 1_555
H1F C4F 1_555 1_555
H2F C4F 1_555 1_555
H3F C5F 1_555 1_555
H4F C3F 1_555 1_555
H5F C2F 1_555 1_555
H6F C1F 1_555 1_555
F2E Re1 1_555 1_555
F2F Re1 1_555 1_555
Re1_2 F1E 1_555 1_555
F1E_2 Re1 1_555 1_555
C3 N2 1_555 1_555
C3C N2C 1_555 1_555
C3E N2E 1_555 1_555
C3F N2F 1_555 1_555

#END
