
#######################################################################
#
#                 Cambridge Crystallographic Data Centre
#                                CCDC 
#
#######################################################################
#
# If this CIF has been generated from an entry in the Cambridge 
# Structural Database, then it will include bibliographic, chemical, 
# crystal, experimental, refinement or atomic coordinate data resulting 
# from the CCDC's data processing and validation procedures.
#
#######################################################################

data_VOBKUT
_symmetry_cell_setting           monoclinic
_symmetry_space_group_name_H-M   'P 21/n'
_symmetry_Int_Tables_number      14
_space_group_name_Hall           '-P 2yn'
loop_
_symmetry_equiv_pos_site_id
_symmetry_equiv_pos_as_xyz
1 x,y,z
2 1/2-x,1/2+y,1/2-z
3 -x,-y,-z
4 1/2+x,1/2-y,1/2+z
_cell_length_a                   11.997(4)
_cell_length_b                   14.8880(19)
_cell_length_c                   16.429(4)
_cell_angle_alpha                90
_cell_angle_beta                 102.35(2)
_cell_angle_gamma                90
_cell_volume                     2866.5
loop_
_atom_site_label
_atom_site_type_symbol
_atom_site_fract_x
_atom_site_fract_y
_atom_site_fract_z
Cu1 Cu 0.49768(7) 0.68849(5) 0.29636(5)
Mn1 Mn 0.68072(8) 0.56110(6) 0.22307(6)
O1 O 0.6217(3) 0.6042(3) 0.3347(2)
O2 O 0.5449(4) 0.6602(3) 0.1922(3)
O3 O 0.3514(4) 0.5763(3) 0.2588(3)
H1 H 0.3871 0.5196 0.2604
O4 O 0.7916(4) 0.4947(3) 0.3520(3)
O5 O 0.6201(4) 0.5861(3) 0.0719(3)
O6 O 0.6053(4) 0.4330(3) 0.2082(3)
O7 O 0.4541(5) 0.4145(3) 0.2651(4)
O8 O 0.6754(4) 0.0073(3) 0.3248(3)
O9 O 0.5222(5) 0.0384(4) 0.3761(4)
N1 N 0.4638(5) 0.6978(4) 0.4102(4)
N2 N 0.3977(5) 0.7863(4) 0.2426(4)
N3 N 0.6749(4) 0.2607(3) 0.2482(3)
N4 N 0.6896(4) 0.1732(3) 0.2711(3)
H2 H 0.7260 0.2846 0.2209
C1 C 0.3754(8) 0.7585(7) 0.4286(6)
H3 H 0.3360 0.7287 0.4668
H4 H 0.4118 0.8118 0.4561
C2 C 0.2924(9) 0.7853(8) 0.3547(8)
H5 H 0.2312 0.8173 0.3724
H6 H 0.2596 0.7313 0.3261
C3 C 0.3354(8) 0.8432(6) 0.2930(7)
H7 H 0.2718 0.8729 0.2566
H8 H 0.3862 0.8890 0.3223
C4 C 0.3825(6) 0.8054(5) 0.1660(6)
H9 H 0.3306 0.8515 0.1482
C5 C 0.4331(6) 0.7668(4) 0.1017(5)
C6 C 0.4065(8) 0.8034(6) 0.0195(6)
H10 H 0.3562 0.8516 0.0087
C7 C 0.4514(9) 0.7708(6) -0.0432(6)
H11 H 0.4346 0.7976 -0.0956
C8 C 0.5232(8) 0.6964(6) -0.0281(5)
H12 H 0.5517 0.6716 -0.0714
C9 C 0.5522(6) 0.6592(4) 0.0498(4)
C10 C 0.5103(5) 0.6961(4) 0.1182(4)
C11 C 0.6527(7) 0.5351(5) 0.0070(5)
H13 H 0.5868 0.5240 -0.0365
H14 H 0.6851 0.4790 0.0291
H15 H 0.7082 0.5682 -0.0152
C12 C 0.5121(6) 0.6488(5) 0.4712(5)
H16 H 0.4835 0.6552 0.5193
C13 C 0.6047(6) 0.5849(4) 0.4776(4)
C14 C 0.6440(7) 0.5396(6) 0.5536(5)
H17 H 0.6104 0.5514 0.5986
C15 C 0.7293(8) 0.4796(6) 0.5621(5)
H18 H 0.7542 0.4504 0.6128
C16 C 0.7801(7) 0.4609(5) 0.4967(5)
H19 H 0.8383 0.4185 0.5031
C17 C 0.7452(6) 0.5048(4) 0.4215(4)
C18 C 0.6540(5) 0.5664(4) 0.4086(4)
C19 C 0.8875(8) 0.4342(7) 0.3609(6)
H20 H 0.9488 0.4558 0.4039
H21 H 0.9124 0.4311 0.3092
H22 H 0.8650 0.3755 0.3754
C20 C 0.2733(10) 0.5816(7) 0.1862(8)
H23 H 0.2223 0.5313 0.1816
H24 H 0.3115 0.5809 0.1405
H25 H 0.2307 0.6363 0.1850
C21 C 0.5429(6) 0.3890(4) 0.2460(4)
C22 C 0.5790(5) 0.2931(4) 0.2670(4)
C23 C 0.5304(6) 0.2271(4) 0.3046(4)
H26 H 0.4639 0.2306 0.3250
C24 C 0.6022(5) 0.1524(4) 0.3062(4)
C25 C 0.5970(6) 0.0600(4) 0.3382(5)
O10 O 0.6686(4) 0.8239(3) 0.3449(3)
H27 H 0.6597 0.8155 0.3943
H28 H 0.6486 0.8776 0.3313
Mn1A Mn 0.81928(8) 0.06110(6) 0.27693(6)
O8A O 0.8246(4) 0.5073(3) 0.1752(3)
N4A N 0.8104(4) 0.6732(3) 0.2289(3)
O11 O 0.6008(9) 0.8983(7) 0.5021(7)
H29 H 0.6746 0.8980 0.5251
H30 H 0.5693 0.9139 0.5424
loop_
_geom_bond_atom_site_label_1
_geom_bond_atom_site_label_2
_geom_bond_site_symmetry_1
_geom_bond_site_symmetry_2
Cu1 O1 1_555 1_555
Mn1 O1 1_555 1_555
O1 C18 1_555 1_555
O2 Cu1 1_555 1_555
O3 Cu1 1_555 1_555
H1 O3 1_555 1_555
O4 Mn1 1_555 1_555
O5 Mn1 1_555 1_555
O6 Mn1 1_555 1_555
O7 C21 1_555 1_555
O8 C25 1_555 1_555
O9 C25 1_555 1_555
N1 Cu1 1_555 1_555
N2 Cu1 1_555 1_555
N3 N4 1_555 1_555
N4 C24 1_555 1_555
H2 N3 1_555 1_555
C1 N1 1_555 1_555
H3 C1 1_555 1_555
H4 C1 1_555 1_555
C2 C1 1_555 1_555
H5 C2 1_555 1_555
H6 C2 1_555 1_555
C3 N2 1_555 1_555
H7 C3 1_555 1_555
H8 C3 1_555 1_555
C4 N2 1_555 1_555
H9 C4 1_555 1_555
C5 C4 1_555 1_555
C6 C5 1_555 1_555
H10 C6 1_555 1_555
C7 C6 1_555 1_555
H11 C7 1_555 1_555
C8 C7 1_555 1_555
H12 C8 1_555 1_555
C9 O5 1_555 1_555
C10 O2 1_555 1_555
C11 O5 1_555 1_555
H13 C11 1_555 1_555
H14 C11 1_555 1_555
H15 C11 1_555 1_555
C12 N1 1_555 1_555
H16 C12 1_555 1_555
C13 C12 1_555 1_555
C14 C13 1_555 1_555
H17 C14 1_555 1_555
C15 C14 1_555 1_555
H18 C15 1_555 1_555
C16 C15 1_555 1_555
H19 C16 1_555 1_555
C17 O4 1_555 1_555
C18 C13 1_555 1_555
C19 O4 1_555 1_555
H20 C19 1_555 1_555
H21 C19 1_555 1_555
H22 C19 1_555 1_555
C20 O3 1_555 1_555
H23 C20 1_555 1_555
H24 C20 1_555 1_555
H25 C20 1_555 1_555
C21 O6 1_555 1_555
C22 N3 1_555 1_555
C23 C22 1_555 1_555
H26 C23 1_555 1_555
C24 C23 1_555 1_555
C25 C24 1_555 1_555
O10 Cu1 1_555 1_555
H27 O10 1_555 1_555
H28 O10 1_555 1_555
O11 H29 1_555 1_555
H30 O11 1_555 1_555
Mn1A O8 1_555 1_555
O8A Mn1 1_555 1_555
N4A Mn1 1_555 1_555
Mn1 O2 1_555 1_555
N4 Mn1A 1_555 1_555
C2 C3 1_555 1_555
C5 C10 1_555 1_555
C8 C9 1_555 1_555
C9 C10 1_555 1_555
C16 C17 1_555 1_555
C17 C18 1_555 1_555
C21 C22 1_555 1_555

#END
