
#######################################################################
#
#                 Cambridge Crystallographic Data Centre
#                                CCDC 
#
#######################################################################
#
# If this CIF has been generated from an entry in the Cambridge 
# Structural Database, then it will include bibliographic, chemical, 
# crystal, experimental, refinement or atomic coordinate data resulting 
# from the CCDC's data processing and validation procedures.
#
#######################################################################

data_VOBKED
_symmetry_cell_setting           monoclinic
_symmetry_space_group_name_H-M   'C c'
_symmetry_Int_Tables_number      9
_space_group_name_Hall           'C -2yc'
loop_
_symmetry_equiv_pos_site_id
_symmetry_equiv_pos_as_xyz
1 x,y,z
2 x,-y,1/2+z
3 1/2+x,1/2+y,z
4 1/2+x,1/2-y,1/2+z
_cell_length_a                   8.5707(8)
_cell_length_b                   13.9847(14)
_cell_length_c                   19.1698(18)
_cell_angle_alpha                90
_cell_angle_beta                 97.691(2)
_cell_angle_gamma                90
_cell_volume                     2277
loop_
_atom_site_label
_atom_site_type_symbol
_atom_site_fract_x
_atom_site_fract_y
_atom_site_fract_z
Hg1 Hg -0.02715(4) -0.29396(3) -0.70890(3)
Br1 Br -0.07543(14) -0.11752(9) -0.68722(6)
Br2 Br 0.02657(15) -0.41869(10) -0.61464(7)
S1 S -0.3059(3) -0.3470(2) -0.77826(14)
S2 S -0.8716(3) -0.31859(19) -0.81341(14)
O1 O -0.7341(8) -0.2964(6) -0.9534(4)
O2 O -0.3779(8) -0.4782(6) -0.9164(4)
C1 C -0.6096(13) -0.3391(9) -0.9871(6)
H1 H -0.5067 -0.3191 -0.9615
H2 H -0.6163 -0.3143 -1.0358
C2 C -0.6163(13) -0.4488(9) -0.9895(6)
H3 H -0.6655 -0.4728 -0.9490
H4 H -0.6822 -0.4695 -1.0333
C3 C -0.4533(12) -0.4909(9) -0.9871(5)
H5 H -0.4597 -0.5596 -0.9994
H6 H -0.3938 -0.4574 -1.0206
C4 C -0.2310(11) -0.5095(8) -0.8991(6)
C5 C -0.1320(13) -0.5413(8) -0.9465(6)
H7 H -0.1664 -0.5402 -0.9957
C6 C 0.0183(14) -0.5748(9) -0.9208(7)
H8 H 0.0849 -0.5970 -0.9532
C7 C 0.0725(13) -0.5766(8) -0.8500(7)
H9 H 0.1756 -0.5991 -0.8338
C8 C -0.0245(12) -0.5453(8) -0.8029(6)
H10 H 0.0124 -0.5471 -0.7539
C9 C -0.1764(12) -0.5108(8) -0.8256(5)
C10 C -0.2827(12) -0.4766(8) -0.7738(6)
H11 H -0.2373 -0.4953 -0.7255
H12 H -0.3871 -0.5074 -0.7845
C11 C -0.4216(13) -0.3286(9) -0.7072(6)
H13 H -0.3807 -0.3705 -0.6672
H14 H -0.4091 -0.2615 -0.6909
C12 C -0.5969(12) -0.3495(9) -0.7282(6)
H15 H -0.6092 -0.4142 -0.7493
H16 H -0.6506 -0.3490 -0.6856
C13 C -0.6731(11) -0.2783(8) -0.7796(6)
H17 H -0.6102 -0.2708 -0.8189
H18 H -0.6784 -0.2154 -0.7562
C14 C -0.9416(12) -0.2207(8) -0.8740(6)
H19 H -1.0291 -0.1867 -0.8559
H20 H -0.8551 -0.1745 -0.8766
C15 C -0.9973(13) -0.2592(9) -0.9466(6)
C16 C -1.1520(13) -0.2568(9) -0.9760(6)
H21 H -1.2277 -0.2303 -0.9496
C17 C -1.2011(13) -0.2914(9) -1.0422(6)
H22 H -1.3094 -0.2894 -1.0610
C18 C -1.0907(13) -0.3299(9) -1.0821(6)
H23 H -1.1236 -0.3542 -1.1280
C19 C -0.9317(14) -0.3321(8) -1.0538(5)
H24 H -0.8559 -0.3574 -1.0806
C20 C -0.8849(11) -0.2976(8) -0.9871(6)
Hg1_2 Hg -1.02715(4) -0.29396(3) -0.70890(3)
S2_2 S 0.1284(3) -0.31859(19) -0.81341(14)
loop_
_geom_bond_atom_site_label_1
_geom_bond_atom_site_label_2
_geom_bond_site_symmetry_1
_geom_bond_site_symmetry_2
Hg1 Br1 1_555 1_555
Br2 Hg1 1_555 1_555
S1 Hg1 1_555 1_555
S2 C13 1_555 1_555
O1 C1 1_555 1_555
O2 C3 1_555 1_555
C1 H1 1_555 1_555
H2 C1 1_555 1_555
C2 C1 1_555 1_555
H3 C2 1_555 1_555
H4 C2 1_555 1_555
C3 C2 1_555 1_555
H5 C3 1_555 1_555
H6 C3 1_555 1_555
C4 O2 1_555 1_555
C5 C4 1_555 1_555
H7 C5 1_555 1_555
C6 C5 1_555 1_555
H8 C6 1_555 1_555
C7 C6 1_555 1_555
H9 C7 1_555 1_555
C8 C7 1_555 1_555
H10 C8 1_555 1_555
C9 C4 1_555 1_555
C10 S1 1_555 1_555
H11 C10 1_555 1_555
H12 C10 1_555 1_555
C11 S1 1_555 1_555
H13 C11 1_555 1_555
H14 C11 1_555 1_555
C12 C11 1_555 1_555
H15 C12 1_555 1_555
H16 C12 1_555 1_555
C13 C12 1_555 1_555
H17 C13 1_555 1_555
H18 C13 1_555 1_555
C14 S2 1_555 1_555
H19 C14 1_555 1_555
H20 C14 1_555 1_555
C15 C14 1_555 1_555
C16 C15 1_555 1_555
H21 C16 1_555 1_555
C17 C16 1_555 1_555
H22 C17 1_555 1_555
C18 C17 1_555 1_555
H23 C18 1_555 1_555
C19 C18 1_555 1_555
H24 C19 1_555 1_555
C20 O1 1_555 1_555
Hg1_2 S2 1_555 1_555
S2_2 Hg1 1_555 1_555
C8 C9 1_555 1_555
C9 C10 1_555 1_555
C15 C20 1_555 1_555
C19 C20 1_555 1_555

#END
