
#######################################################################
#
#                 Cambridge Crystallographic Data Centre
#                                CCDC 
#
#######################################################################
#
# If this CIF has been generated from an entry in the Cambridge 
# Structural Database, then it will include bibliographic, chemical, 
# crystal, experimental, refinement or atomic coordinate data resulting 
# from the CCDC's data processing and validation procedures.
#
#######################################################################

data_VOBKAA
_symmetry_cell_setting           monoclinic
_symmetry_space_group_name_H-M   'P 21/c'
_symmetry_Int_Tables_number      14
_space_group_name_Hall           '-P 2ybc'
loop_
_symmetry_equiv_pos_site_id
_symmetry_equiv_pos_as_xyz
1 x,y,z
2 -x,1/2+y,1/2-z
3 -x,-y,-z
4 x,1/2-y,1/2+z
_cell_length_a                   18.1128(8)
_cell_length_b                   8.7931(3)
_cell_length_c                   19.2053(8)
_cell_angle_alpha                90
_cell_angle_beta                 102.909(4)
_cell_angle_gamma                90
_cell_volume                     2981.48
loop_
_atom_site_label
_atom_site_type_symbol
_atom_site_fract_x
_atom_site_fract_y
_atom_site_fract_z
Cd1 Cd 0.20866(3) 0.90703(5) 0.04758(2)
Cd2 Cd 0.0000 1.0000 0.0000
O1 O 0.0763(3) 1.1598(6) -0.0448(3)
C1 C 0.1171(4) 1.4196(8) -0.3494(3)
C2 C 0.1293(4) 1.2173(8) -0.1440(3)
O2 O 0.1783(3) 1.4342(6) -0.3703(3)
O3 O 0.1908(3) 1.0665(7) -0.0472(3)
C3 C 0.0586(4) 1.3492(9) -0.2475(4)
O4 O 0.0536(3) 1.4613(7) -0.3837(3)
O5 O 0.0874(3) 0.8150(6) 0.0054(3)
C4 C 0.0620(4) 1.2826(8) -0.1816(4)
C5 C 0.0979(4) 0.6963(8) -0.0286(4)
O6 O 0.3169(3) 0.8264(7) 0.0087(4)
C6 C 0.1886(4) 1.2869(10) -0.2394(4)
C7 C 0.1327(4) 1.1425(8) -0.0733(3)
C8 C 0.4765(5) 1.0900(9) 0.0482(5)
O7 O 0.3342(3) 1.0239(7) 0.0801(4)
C9 C 0.0310(6) 0.6167(11) -0.0709(6)
H1 H -0.0121 0.6365 -0.0508
H2 H 0.0406 0.5093 -0.0701
H3 H 0.0208 0.6524 -0.1193
C10 C 0.1920(4) 1.2181(9) -0.1738(4)
C11 C 0.1220(4) 1.3508(8) -0.2772(3)
C12 C 0.3558(4) 0.9371(10) 0.0376(5)
C13 C 0.4317(4) 0.9700(9) 0.0189(5)
O8 O 0.2358(4) 0.7337(7) 0.1415(3)
C14 C 0.2013(8) 0.7386(13) 0.1927(7)
H4 H 0.1492 0.7517 0.1778
N1 N 0.2230(5) 0.7296(13) 0.2558(4)
C15 C 0.5439(5) 1.1192(10) 0.0313(5)
O9 O 0.2592(6) 1.1406(17) -0.1450(6)
H5 H 0.2570 1.1049 -0.1060
O10 O -0.0070(6) 1.4087(17) -0.2778(6)
H6 H -0.0056 1.4400 -0.3177
O11 O 0.4621(8) 1.1661(18) 0.1010(10)
O12 O -0.0077(6) 1.2828(15) -0.1620(6)
H7 H -0.0066 1.2214 -0.1297
O13 O 0.2551(7) 1.305(2) -0.2602(7)
H8 H 0.2463 1.3232 -0.3032
O14 O 0.5802(8) 1.2493(17) 0.0581(9)
H9 H 0.6181 1.2606 0.0419
C16 C 0.1819(12) 0.742(2) 0.3113(10)
H10 H 0.2030 0.8228 0.3433
H11 H 0.1854 0.6481 0.3372
H12 H 0.1297 0.7641 0.2905
C17 C 0.3038(10) 0.688(4) 0.2833(14)
H13 H 0.3314 0.7058 0.2469
H14 H 0.3072 0.5822 0.2963
H15 H 0.3248 0.7486 0.3245
O15 O 0.1635(4) 0.6540(8) -0.0278(3)
O6B O 0.6831(3) 1.1736(7) -0.0087(4)
C8B C 0.5235(5) 0.9100(9) -0.0482(5)
O7B O 0.6658(3) 0.9761(7) -0.0801(4)
C12B C 0.6442(4) 1.0629(10) -0.0376(5)
C13B C 0.5683(4) 1.0300(9) -0.0189(5)
C15B C 0.4561(5) 0.8808(10) -0.0313(5)
O11B O 0.5379(8) 0.8339(18) -0.1010(10)
O14B O 0.4198(8) 0.7507(17) -0.0581(9)
H9B H 0.3819 0.7394 -0.0419
Cd1B Cd -0.20866(3) 1.09297(5) -0.04758(2)
O1B O -0.0763(3) 0.8402(6) 0.0448(3)
C1B C -0.1171(4) 0.5804(8) 0.3494(3)
C2B C -0.1293(4) 0.7827(8) 0.1440(3)
O2B O -0.1783(3) 0.5658(6) 0.3703(3)
O3B O -0.1908(3) 0.9335(7) 0.0472(3)
C3B C -0.0586(4) 0.6508(9) 0.2475(4)
O4B O -0.0536(3) 0.5387(7) 0.3837(3)
O5B O -0.0874(3) 1.1850(6) -0.0054(3)
C4B C -0.0620(4) 0.7174(8) 0.1816(4)
C5B C -0.0979(4) 1.3037(8) 0.0286(4)
C6B C -0.1886(4) 0.7131(10) 0.2394(4)
C7B C -0.1327(4) 0.8575(8) 0.0733(3)
C9B C -0.0310(6) 1.3833(11) 0.0709(6)
H1B H 0.0121 1.3635 0.0508
H2B H -0.0406 1.4907 0.0701
H3B H -0.0208 1.3476 0.1193
C10B C -0.1920(4) 0.7819(9) 0.1738(4)
C11B C -0.1220(4) 0.6492(8) 0.2772(3)
O8B O -0.2358(4) 1.2663(7) -0.1415(3)
C14B C -0.2013(8) 1.2614(13) -0.1927(7)
H4B H -0.1492 1.2483 -0.1778
N1B N -0.2230(5) 1.2704(13) -0.2558(4)
O9B O -0.2592(6) 0.8594(17) 0.1450(6)
H5B H -0.2570 0.8951 0.1060
O10B O 0.0070(6) 0.5913(17) 0.2778(6)
H6B H 0.0056 0.5600 0.3177
O12B O 0.0077(6) 0.7172(15) 0.1620(6)
H7B H 0.0066 0.7786 0.1297
O13B O -0.2551(7) 0.695(2) 0.2602(7)
H8B H -0.2463 0.6768 0.3032
C16B C -0.1819(12) 1.258(2) -0.3113(10)
H10B H -0.2030 1.1772 -0.3433
H11B H -0.1854 1.3519 -0.3372
H12B H -0.1297 1.2359 -0.2905
C17B C -0.3038(10) 1.312(4) -0.2833(14)
H13B H -0.3314 1.2942 -0.2469
H14B H -0.3072 1.4178 -0.2963
H15B H -0.3248 1.2514 -0.3245
O15B O -0.1635(4) 1.3460(8) 0.0278(3)
Cd1A Cd -0.20866(3) 0.40703(5) 0.45242(2)
Cd1B_2 Cd 0.79134(3) 1.09297(5) -0.04758(2)
Cd1C Cd 0.20866(3) 1.59297(5) -0.45242(2)
Cd2A Cd 0.0000 0.5000 0.5000
Cd2A_2 Cd 0.0000 1.5000 -0.5000
O2A O -0.1783(3) 0.9342(6) -0.1297(3)
O2C O 0.1783(3) 1.0658(6) 0.1297(3)
O4A O -0.0536(3) 0.9613(7) -0.1163(3)
O4C O 0.0536(3) 1.0387(7) 0.1163(3)
O6B_2 O -0.3169(3) 1.1736(7) -0.0087(4)
O7B_2 O -0.3342(3) 0.9761(7) -0.0801(4)
N2 N 0.2858(5) 2.0082(8) -0.4514(4)
H16 H 0.2517 1.9346 -0.4677
H17 H 0.3248 1.9659 -0.4201
C18 C 0.3130(8) 2.0735(14) -0.5112(8)
H18 H 0.3213 1.9936 -0.5426
H19 H 0.3596 2.1268 -0.4933
H20 H 0.2758 2.1430 -0.5369
C19 C 0.2508(9) 2.1244(12) -0.4153(8)
H21 H 0.2208 2.1908 -0.4501
H22 H 0.2896 2.1823 -0.3842
H23 H 0.2191 2.0768 -0.3878
N3 N 0.5212(7) 1.8019(19) -0.3222(8)
O16 O 0.4190(8) 1.9343(18) -0.3587(8)
C20 C 0.5607(15) 1.683(4) -0.293(2)
H24 H 0.5851 1.7055 -0.2448
H25 H 0.5983 1.6592 -0.3199
H26 H 0.5275 1.5975 -0.2945
C21 C 0.566(2) 1.920(9) -0.341(4)
H27 H 0.5340 2.0025 -0.3620
H28 H 0.5934 1.8823 -0.3750
H29 H 0.6013 1.9552 -0.2992
C22 C 0.4587(15) 1.835(4) -0.341(2)
H30 H 0.4296 1.7476 -0.3408
loop_
_geom_bond_atom_site_label_1
_geom_bond_atom_site_label_2
_geom_bond_site_symmetry_1
_geom_bond_site_symmetry_2
Cd1 O3 1_555 1_555
Cd2 O1 1_555 1_555
O1 C7 1_555 1_555
C1 O2 1_555 1_555
C2 C4 1_555 1_555
O2 Cd1C 1_555 1_555
O3 C7 1_555 1_555
C3 C4 1_555 1_555
O4 C1 1_555 1_555
O5 Cd1 1_555 1_555
C4 O12 1_555 1_555
C5 O5 1_555 1_555
O6 Cd1 1_555 1_555
C6 C10 1_555 1_555
C7 C2 1_555 1_555
C8 C13 1_555 1_555
O7 Cd1 1_555 1_555
C9 C5 1_555 1_555
H1 C9 1_555 1_555
H2 C9 1_555 1_555
H3 C9 1_555 1_555
C10 C2 1_555 1_555
C11 C1 1_555 1_555
C12 O6 1_555 1_555
C13 C12 1_555 1_555
O8 Cd1 1_555 1_555
C14 O8 1_555 1_555
H4 C14 1_555 1_555
N1 C14 1_555 1_555
C15 C8 1_555 1_555
O9 C10 1_555 1_555
H5 O9 1_555 1_555
O10 C3 1_555 1_555
H6 O10 1_555 1_555
O11 C8 1_555 1_555
O12 H7 1_555 1_555
O13 C6 1_555 1_555
H8 O13 1_555 1_555
O14 C15 1_555 1_555
H9 O14 1_555 1_555
C16 N1 1_555 1_555
H10 C16 1_555 1_555
H11 C16 1_555 1_555
H12 C16 1_555 1_555
C17 N1 1_555 1_555
H13 C17 1_555 1_555
H14 C17 1_555 1_555
H15 C17 1_555 1_555
O15 Cd1 1_555 1_555
N2 H16 1_555 1_555
H17 N2 1_555 1_555
C18 N2 1_555 1_555
H18 C18 1_555 1_555
H19 C18 1_555 1_555
H20 C18 1_555 1_555
C19 N2 1_555 1_555
H21 C19 1_555 1_555
H22 C19 1_555 1_555
H23 C19 1_555 1_555
N3 C20 1_555 1_555
O16 C22 1_555 1_555
C20 H24 1_555 1_555
H25 C20 1_555 1_555
H26 C20 1_555 1_555
C21 N3 1_555 1_555
H27 C21 1_555 1_555
H28 C21 1_555 1_555
H29 C21 1_555 1_555
C22 N3 1_555 1_555
H30 C22 1_555 1_555
O6B C12B 1_555 1_555
C8B C13B 1_555 1_555
O7B C12B 1_555 1_555
C12B C13B 1_555 1_555
C13B C15 1_555 1_555
C15B C13 1_555 1_555
O11B C8B 1_555 1_555
O14B C15B 1_555 1_555
H9B O14B 1_555 1_555
Cd1B O3B 1_555 1_555
O1B Cd2 1_555 1_555
C1B O2B 1_555 1_555
C2B C4B 1_555 1_555
O2B Cd1A 1_555 1_555
O3B C7B 1_555 1_555
C3B C4B 1_555 1_555
O4B C1B 1_555 1_555
O5B Cd2 1_555 1_555
C4B O12B 1_555 1_555
C5B O5B 1_555 1_555
C6B C10B 1_555 1_555
C7B O1B 1_555 1_555
C9B C5B 1_555 1_555
H1B C9B 1_555 1_555
H2B C9B 1_555 1_555
H3B C9B 1_555 1_555
C10B C2B 1_555 1_555
C11B C1B 1_555 1_555
O8B Cd1B 1_555 1_555
C14B O8B 1_555 1_555
H4B C14B 1_555 1_555
N1B C14B 1_555 1_555
O9B C10B 1_555 1_555
H5B O9B 1_555 1_555
O10B C3B 1_555 1_555
H6B O10B 1_555 1_555
O12B H7B 1_555 1_555
O13B C6B 1_555 1_555
H8B O13B 1_555 1_555
C16B N1B 1_555 1_555
H10B C16B 1_555 1_555
H11B C16B 1_555 1_555
H12B C16B 1_555 1_555
C17B N1B 1_555 1_555
H13B C17B 1_555 1_555
H14B C17B 1_555 1_555
H15B C17B 1_555 1_555
O15B Cd1B 1_555 1_555
Cd1B_2 O6B 1_555 1_555
Cd2A O4B 1_555 1_555
Cd2A_2 O4 1_555 1_555
O2A Cd1B 1_555 1_555
O2C Cd1 1_555 1_555
O4A Cd2 1_555 1_555
O4C Cd2 1_555 1_555
O6B_2 Cd1B 1_555 1_555
O7B_2 Cd1B 1_555 1_555
Cd2 O5 1_555 1_555
C3 C11 1_555 1_555
C5 O15 1_555 1_555
C6 C11 1_555 1_555
O7 C12 1_555 1_555
C8B C15B 1_555 1_555
O7B Cd1B_2 1_555 1_555
Cd1B O5B 1_555 1_555
C2B C7B 1_555 1_555
C3B C11B 1_555 1_555
C5B O15B 1_555 1_555
C6B C11B 1_555 1_555

#END
