
#######################################################################
#
#                 Cambridge Crystallographic Data Centre
#                                CCDC 
#
#######################################################################
#
# If this CIF has been generated from an entry in the Cambridge 
# Structural Database, then it will include bibliographic, chemical, 
# crystal, experimental, refinement or atomic coordinate data resulting 
# from the CCDC's data processing and validation procedures.
#
#######################################################################

data_VOBLII
_symmetry_cell_setting           triclinic
_symmetry_space_group_name_H-M   'P -1'
_symmetry_Int_Tables_number      2
_space_group_name_Hall           '-P 1'
loop_
_symmetry_equiv_pos_site_id
_symmetry_equiv_pos_as_xyz
1 x,y,z
2 -x,-y,-z
_cell_length_a                   9.179(5)
_cell_length_b                   10.958(5)
_cell_length_c                   15.453(5)
_cell_angle_alpha                87.149(5)
_cell_angle_beta                 82.558(5)
_cell_angle_gamma                80.138(5)
_cell_volume                     1517.85
loop_
_atom_site_label
_atom_site_type_symbol
_atom_site_fract_x
_atom_site_fract_y
_atom_site_fract_z
Mn1 Mn 0.65408(6) -0.23410(5) 0.23674(4)
Cu1 Cu 0.67330(5) 0.05628(4) 0.17055(3)
Ni1 Ni 1.0000 -0.5000 0.0000
Ni2 Ni 0.5000 -0.5000 0.5000
N1 N 0.5946(4) -0.3864(3) 0.3245(2)
N2 N 1.1780(4) -0.5969(3) 0.1472(2)
N3 N 0.2206(4) -0.5490(4) 0.4360(3)
N4 N 0.7755(4) -0.3389(3) 0.1236(2)
N5 N 0.8293(4) 0.1580(3) 0.1795(2)
N6 N 0.5362(4) 0.1788(3) 0.1073(2)
O1 O 0.4281(3) -0.2685(2) 0.18224(18)
O2 O 0.8864(3) -0.2991(3) 0.29258(19)
O3 O 0.7947(3) -0.0886(2) 0.21694(18)
O4 O 0.5591(3) -0.1261(3) 0.35574(19)
H1 H 0.544(6) -0.056(5) 0.345(3)
O5 O 0.5492(3) -0.0708(2) 0.16716(17)
O6 O 0.5352(4) 0.1170(3) 0.3114(2)
H2 H 0.574(6) 0.143(5) 0.350(4)
H3 H 0.467(8) 0.155(6) 0.302(4)
C1 C 0.3253(5) -0.5292(4) 0.4604(3)
C4 C 0.6183(6) -0.1424(5) 0.4382(3)
H9 H 0.6779 -0.2231 0.4416
H10 H 0.5378 -0.1346 0.4849
H11 H 0.6788 -0.0803 0.4430
C5 C 0.5594(4) -0.4317(4) 0.3906(3)
C6 C 0.6538(5) 0.3496(4) 0.1557(3)
H12 H 0.6513 0.4384 0.1483
H13 H 0.6092 0.3336 0.2146
C7 C 1.1789(5) -0.1246(4) 0.3364(3)
H14 H 1.2651 -0.1339 0.3635
C8 C 1.1021(5) -0.2237(4) 0.3356(3)
H15 H 1.136(5) -0.308(5) 0.357(3)
C9 C 0.3724(5) -0.3827(4) 0.1831(3)
H16 H 0.2690 -0.3699 0.2066
H17 H 0.4277 -0.4433 0.2188
H18 H 0.3831 -0.4117 0.1247
C10 C 0.9443(5) -0.4220(4) 0.3228(3)
H19 H 1.0438 -0.4469 0.2946
H20 H 0.8821 -0.4787 0.3092
H21 H 0.9456 -0.4225 0.3849
C11 C 1.1272(5) -0.0135(4) 0.2973(3)
H22 H 1.1796 0.0520 0.2975
C12 C 0.9724(4) -0.2086(4) 0.2964(3)
C13 C 0.9958(4) 0.0032(4) 0.2568(3)
C14 C 0.3594(4) -0.1723(3) 0.1344(3)
C15 C 0.2318(4) -0.1742(4) 0.0953(3)
H23 H 0.1861 -0.2442 0.1012
C16 C 0.9182(4) -0.0965(4) 0.2548(3)
C17 C 0.9468(5) 0.1219(4) 0.2181(3)
H24 H 1.0075 0.1810 0.2210
C18 C 0.5600(5) 0.3090(4) 0.0919(3)
H25 H 0.4639 0.3630 0.0965
H26 H 0.6086 0.3183 0.0329
C19 C 0.4281(4) -0.0668(3) 0.1278(2)
C20 C 0.1728(5) -0.0708(4) 0.0474(3)
H27 H 0.096(6) -0.068(4) 0.028(3)
C21 C 0.8117(5) 0.2873(4) 0.1457(4)
H28 H 0.8512 0.2883 0.0844
H29 H 0.8693 0.3333 0.1765
C22 C 0.3645(4) 0.0383(4) 0.0814(3)
C23 C 0.4222(5) 0.1529(4) 0.0746(3)
H30 H 0.3713 0.2167 0.0426
C24 C 0.2371(5) 0.0343(4) 0.0407(3)
H31 H 0.1961 0.1032 0.0090
C25 C 0.8620(5) -0.3987(4) 0.0762(3)
C26 C 1.1117(5) -0.5571(4) 0.0910(3)
Mn1A Mn 1.34592(6) -0.76590(5) -0.23674(4)
Mn1A_2 Mn 0.34592(6) -0.76590(5) 0.76326(4)
Cu1A Cu 1.32670(5) -1.05628(4) -0.17055(3)
N1A N 1.4054(4) -0.6136(3) -0.3245(2)
N1A_2 N 0.4054(4) -0.6136(3) 0.6755(2)
N2A N 0.8220(4) -0.4031(3) -0.1472(2)
N3A N 0.7794(4) -0.4510(4) 0.5640(3)
N4A N 1.2245(4) -0.6611(3) -0.1236(2)
N5A N 1.1707(4) -1.1580(3) -0.1795(2)
N6A N 1.4638(4) -1.1788(3) -0.1073(2)
O1A O 1.5719(3) -0.7315(2) -0.18224(18)
O2A O 1.1136(3) -0.7009(3) -0.29258(19)
O3A O 1.2053(3) -0.9114(2) -0.21694(18)
O4A O 1.4409(3) -0.8739(3) -0.35574(19)
H1A H 1.456(6) -0.944(5) -0.345(3)
O5A O 1.4508(3) -0.9292(2) -0.16716(17)
O6A O 1.4648(4) -1.1170(3) -0.3114(2)
H2A H 1.426(6) -1.143(5) -0.350(4)
H3A H 1.533(8) -1.155(6) -0.302(4)
C1A C 0.6747(5) -0.4708(4) 0.5396(3)
C4A C 1.3817(6) -0.8576(5) -0.4382(3)
H9A H 1.3221 -0.7769 -0.4416
H10A H 1.4622 -0.8654 -0.4849
H11A H 1.3212 -0.9197 -0.4430
C5A C 0.4406(4) -0.5683(4) 0.6094(3)
C6A C 1.3462(5) -1.3496(4) -0.1557(3)
H12A H 1.3487 -1.4384 -0.1483
H13A H 1.3908 -1.3336 -0.2146
C7A C 0.8211(5) -0.8754(4) -0.3364(3)
H14A H 0.7349 -0.8661 -0.3635
C8A C 0.8979(5) -0.7763(4) -0.3356(3)
H15A H 0.864(5) -0.692(5) -0.357(3)
C9A C 1.6276(5) -0.6173(4) -0.1831(3)
H16A H 1.7310 -0.6301 -0.2066
H17A H 1.5723 -0.5567 -0.2188
H18A H 1.6169 -0.5883 -0.1247
C10A C 1.0557(5) -0.5780(4) -0.3228(3)
H19A H 0.9562 -0.5531 -0.2946
H20A H 1.1179 -0.5213 -0.3092
H21A H 1.0544 -0.5775 -0.3849
C11A C 0.8728(5) -0.9865(4) -0.2973(3)
H22A H 0.8204 -1.0520 -0.2975
C12A C 1.0276(4) -0.7914(4) -0.2964(3)
C13A C 1.0042(4) -1.0032(4) -0.2568(3)
C14A C 1.6406(4) -0.8277(3) -0.1344(3)
C15A C 1.7682(4) -0.8258(4) -0.0953(3)
H23A H 1.8139 -0.7558 -0.1012
C16A C 1.0818(4) -0.9035(4) -0.2548(3)
C17A C 1.0532(5) -1.1219(4) -0.2181(3)
H24A H 0.9925 -1.1810 -0.2210
C18A C 1.4400(5) -1.3090(4) -0.0919(3)
H25A H 1.5361 -1.3630 -0.0965
H26A H 1.3914 -1.3183 -0.0329
C19A C 1.5719(4) -0.9332(3) -0.1278(2)
C20A C 1.8272(5) -0.9292(4) -0.0474(3)
H27A H 1.904(6) -0.932(4) -0.028(3)
C21A C 1.1883(5) -1.2873(4) -0.1457(4)
H28A H 1.1488 -1.2883 -0.0844
H29A H 1.1307 -1.3333 -0.1765
C22A C 1.6355(4) -1.0383(4) -0.0814(3)
C23A C 1.5778(5) -1.1529(4) -0.0746(3)
H30A H 1.6287 -1.2167 -0.0426
C24A C 1.7629(5) -1.0343(4) -0.0407(3)
H31A H 1.8039 -1.1032 -0.0090
C25A C 1.1380(5) -0.6013(4) -0.0762(3)
C26A C 0.8883(5) -0.4429(4) -0.0910(3)
N7 N 0.7174(6) 0.2190(5) 0.4130(4)
C2 C 0.8294(7) 0.2380(5) 0.4273(3)
C3 C 0.9736(7) 0.2617(6) 0.4426(4)
H6 H 1.0392 0.2561 0.3887
H7 H 1.0141 0.2015 0.4842
H8 H 0.9635 0.3432 0.4651
O7 O 0.2771(4) -0.7261(3) 0.2966(3)
H4 H 0.270(7) -0.675(6) 0.327(4)
H5 H 0.260(5) -0.695(5) 0.249(4)
loop_
_geom_bond_atom_site_label_1
_geom_bond_atom_site_label_2
_geom_bond_site_symmetry_1
_geom_bond_site_symmetry_2
Mn1 N1 1_555 1_555
Cu1 N5 1_555 1_555
Ni1 C25 1_555 1_555
Ni2 C1 1_555 1_555
N1 C5 1_555 1_555
N2 C26 1_555 1_555
N3 C1 1_555 1_555
N4 Mn1 1_555 1_555
N5 C17 1_555 1_555
N6 Cu1 1_555 1_555
N7 C2 1_555 1_555
O1 Mn1 1_555 1_555
O2 Mn1 1_555 1_555
O3 Mn1 1_555 1_555
O4 Mn1 1_555 1_555
H1 O4 1_555 1_555
O5 Mn1 1_555 1_555
O6 Cu1 1_555 1_555
H2 O6 1_555 1_555
H3 O6 1_555 1_555
O7 H4 1_555 1_555
H5 O7 1_555 1_555
C2 C3 1_555 1_555
C3 H6 1_555 1_555
H7 C3 1_555 1_555
H8 C3 1_555 1_555
C4 O4 1_555 1_555
H9 C4 1_555 1_555
H10 C4 1_555 1_555
H11 C4 1_555 1_555
C5 Ni2 1_555 1_555
C6 H12 1_555 1_555
H13 C6 1_555 1_555
C7 H14 1_555 1_555
C8 C7 1_555 1_555
H15 C8 1_555 1_555
C9 O1 1_555 1_555
H16 C9 1_555 1_555
H17 C9 1_555 1_555
H18 C9 1_555 1_555
C10 O2 1_555 1_555
H19 C10 1_555 1_555
H20 C10 1_555 1_555
H21 C10 1_555 1_555
C11 C7 1_555 1_555
H22 C11 1_555 1_555
C12 O2 1_555 1_555
C13 C11 1_555 1_555
C14 O1 1_555 1_555
C15 C14 1_555 1_555
H23 C15 1_555 1_555
C16 O3 1_555 1_555
C17 C13 1_555 1_555
H24 C17 1_555 1_555
C18 N6 1_555 1_555
H25 C18 1_555 1_555
H26 C18 1_555 1_555
C19 O5 1_555 1_555
C20 C15 1_555 1_555
H27 C20 1_555 1_555
C21 N5 1_555 1_555
H28 C21 1_555 1_555
H29 C21 1_555 1_555
C22 C19 1_555 1_555
C23 N6 1_555 1_555
H30 C23 1_555 1_555
C24 C20 1_555 1_555
H31 C24 1_555 1_555
C25 N4 1_555 1_555
C26 Ni1 1_555 1_555
Mn1A N1A 1_555 1_555
Mn1A_2 N1A_2 1_555 1_555
Cu1A N5A 1_555 1_555
N1A_2 C5A 1_555 1_555
N2A C26A 1_555 1_555
N3A C1A 1_555 1_555
N4A Mn1A 1_555 1_555
N5A C17A 1_555 1_555
N6A Cu1A 1_555 1_555
O1A Mn1A 1_555 1_555
O2A Mn1A 1_555 1_555
O3A Mn1A 1_555 1_555
O4A Mn1A 1_555 1_555
H1A O4A 1_555 1_555
O5A Mn1A 1_555 1_555
O6A Cu1A 1_555 1_555
H2A O6A 1_555 1_555
H3A O6A 1_555 1_555
C1A Ni2 1_555 1_555
C4A O4A 1_555 1_555
H9A C4A 1_555 1_555
H10A C4A 1_555 1_555
H11A C4A 1_555 1_555
C5A Ni2 1_555 1_555
C6A H12A 1_555 1_555
H13A C6A 1_555 1_555
C7A H14A 1_555 1_555
C8A C7A 1_555 1_555
H15A C8A 1_555 1_555
C9A O1A 1_555 1_555
H16A C9A 1_555 1_555
H17A C9A 1_555 1_555
H18A C9A 1_555 1_555
C10A O2A 1_555 1_555
H19A C10A 1_555 1_555
H20A C10A 1_555 1_555
H21A C10A 1_555 1_555
C11A C7A 1_555 1_555
H22A C11A 1_555 1_555
C12A O2A 1_555 1_555
C13A C11A 1_555 1_555
C14A O1A 1_555 1_555
C15A C14A 1_555 1_555
H23A C15A 1_555 1_555
C16A O3A 1_555 1_555
C17A C13A 1_555 1_555
H24A C17A 1_555 1_555
C18A N6A 1_555 1_555
H25A C18A 1_555 1_555
H26A C18A 1_555 1_555
C19A O5A 1_555 1_555
C20A C15A 1_555 1_555
H27A C20A 1_555 1_555
C21A N5A 1_555 1_555
H28A C21A 1_555 1_555
H29A C21A 1_555 1_555
C22A C19A 1_555 1_555
C23A N6A 1_555 1_555
H30A C23A 1_555 1_555
C24A C20A 1_555 1_555
H31A C24A 1_555 1_555
C25A Ni1 1_555 1_555
C26A Ni1 1_555 1_555
Cu1 O3 1_555 1_555
Cu1 O5 1_555 1_555
C6 C18 1_555 1_555
C6 C21 1_555 1_555
C8 C12 1_555 1_555
C12 C16 1_555 1_555
C13 C16 1_555 1_555
C14 C19 1_555 1_555
C22 C23 1_555 1_555
C22 C24 1_555 1_555
Cu1A O3A 1_555 1_555
Cu1A O5A 1_555 1_555
N4A C25A 1_555 1_555
C6A C18A 1_555 1_555
C6A C21A 1_555 1_555
C8A C12A 1_555 1_555
C12A C16A 1_555 1_555
C13A C16A 1_555 1_555
C14A C19A 1_555 1_555
C22A C23A 1_555 1_555
C22A C24A 1_555 1_555

#END
