
#######################################################################
#
#                 Cambridge Crystallographic Data Centre
#                                CCDC 
#
#######################################################################
#
# If this CIF has been generated from an entry in the Cambridge 
# Structural Database, then it will include bibliographic, chemical, 
# crystal, experimental, refinement or atomic coordinate data resulting 
# from the CCDC's data processing and validation procedures.
#
#######################################################################

data_VOBLOO
_symmetry_cell_setting           monoclinic
_symmetry_space_group_name_H-M   'C 2/m'
_symmetry_Int_Tables_number      12
_space_group_name_Hall           '-C 2y'
loop_
_symmetry_equiv_pos_site_id
_symmetry_equiv_pos_as_xyz
1 x,y,z
2 1/2+x,1/2+y,z
3 -x,y,-z
4 1/2-x,1/2+y,-z
5 -x,-y,-z
6 1/2-x,1/2-y,-z
7 x,-y,z
8 1/2+x,1/2-y,z
_cell_length_a                   13.813(5)
_cell_length_b                   15.387(5)
_cell_length_c                   9.766(5)
_cell_angle_alpha                90
_cell_angle_beta                 106.316(5)
_cell_angle_gamma                90
_cell_volume                     1992.08
loop_
_atom_site_label
_atom_site_type_symbol
_atom_site_fract_x
_atom_site_fract_y
_atom_site_fract_z
Ag1 Ag 0.5000 0.0000 0.0000
Cu1 Cu 0.89504(3) 0.0000 0.31695(4)
K1 K 1.0000 0.0000 0.0000
O1 O 1.10538(12) 0.15095(12) 0.12716(19)
O2 O 0.97244(12) 0.08045(11) 0.23697(18)
N1 N 0.7412(2) 0.0000 0.1288(4)
N2 N 0.84521(14) 0.09800(14) 0.4142(2)
C1 C 0.93119(17) 0.21623(16) 0.3257(3)
C2 C 0.98371(16) 0.16415(15) 0.2526(3)
C3 C 0.7955(3) 0.0000 0.5870(4)
H1 H 0.8659 0.0000 0.6422
H2 H 0.7551 0.0000 0.6537
C4 C 1.05457(17) 0.20642(17) 0.1921(3)
C5 C 1.06659(19) 0.29563(17) 0.2002(3)
H3 H 1.1127 0.3221 0.1602
C6 C 0.6552(3) 0.0000 0.0804(4)
C7 C 0.94392(19) 0.30792(17) 0.3307(3)
H4 H 0.9071 0.3420 0.3768
C8 C 1.18092(19) 0.1880(2) 0.0714(3)
H5 H 1.1508 0.2309 0.0009
H6 H 1.2111 0.1433 0.0285
H7 H 1.2318 0.2149 0.1473
C9 C 1.0100(2) 0.34617(17) 0.2681(3)
H8 H 1.0172 0.4063 0.2706
C10 C 0.77416(19) 0.08240(19) 0.4999(3)
H9 H 0.7062 0.0795 0.4364
H10 H 0.7771 0.1313 0.5636
C11 C 0.86628(17) 0.17865(17) 0.4028(3)
H11 H 0.8358 0.2178 0.4504
Cu1D Cu 0.10496(3) 0.0000 -0.31695(4)
K1_2 K 0.0000 0.0000 0.0000
O1F O 1.10538(12) -0.15095(12) 0.12716(19)
O1D O -0.10538(12) -0.15095(12) -0.12716(19)
O1B O -0.10538(12) 0.15095(12) -0.12716(19)
O1D_2 O 0.89462(12) -0.15095(12) -0.12716(19)
O1B_2 O 0.89462(12) 0.15095(12) -0.12716(19)
O2F O 0.97244(12) -0.08045(11) 0.23697(18)
O2D O 0.02756(12) -0.08045(11) -0.23697(18)
O2B O 0.02756(12) 0.08045(11) -0.23697(18)
O2D_2 O 1.02756(12) -0.08045(11) -0.23697(18)
O2B_2 O 1.02756(12) 0.08045(11) -0.23697(18)
N1D N 0.2588(2) 0.0000 -0.1288(4)
N2F N 0.84521(14) -0.09800(14) 0.4142(2)
N2D N 0.15479(14) -0.09800(14) -0.4142(2)
N2B N 0.15479(14) 0.09800(14) -0.4142(2)
C1F C 0.93119(17) -0.21623(16) 0.3257(3)
C1D C 0.06881(17) -0.21623(16) -0.3257(3)
C1B C 0.06881(17) 0.21623(16) -0.3257(3)
C2F C 0.98371(16) -0.16415(15) 0.2526(3)
C2D C 0.01629(16) -0.16415(15) -0.2526(3)
C2B C 0.01629(16) 0.16415(15) -0.2526(3)
C3D C 0.2045(3) 0.0000 -0.5870(4)
H1D H 0.1341 0.0000 -0.6422
H2D H 0.2449 0.0000 -0.6537
C4F C 1.05457(17) -0.20642(17) 0.1921(3)
C4D C -0.05457(17) -0.20642(17) -0.1921(3)
C4B C -0.05457(17) 0.20642(17) -0.1921(3)
C5F C 1.06659(19) -0.29563(17) 0.2002(3)
C5D C -0.06659(19) -0.29563(17) -0.2002(3)
C5B C -0.06659(19) 0.29563(17) -0.2002(3)
H3F H 1.1127 -0.3221 0.1602
H3D H -0.1127 -0.3221 -0.1602
H3B H -0.1127 0.3221 -0.1602
C6D C 0.3448(3) 0.0000 -0.0804(4)
C7F C 0.94392(19) -0.30792(17) 0.3307(3)
C7D C 0.05608(19) -0.30792(17) -0.3307(3)
C7B C 0.05608(19) 0.30792(17) -0.3307(3)
H4F H 0.9071 -0.3420 0.3768
H4D H 0.0929 -0.3420 -0.3768
H4B H 0.0929 0.3420 -0.3768
C8F C 1.18092(19) -0.1880(2) 0.0714(3)
C8D C -0.18092(19) -0.1880(2) -0.0714(3)
C8B C -0.18092(19) 0.1880(2) -0.0714(3)
H5F H 1.1508 -0.2309 0.0009
H5D H -0.1508 -0.2309 -0.0009
H5B H -0.1508 0.2309 -0.0009
H6F H 1.2111 -0.1433 0.0285
H6D H -0.2111 -0.1433 -0.0285
H6B H -0.2111 0.1433 -0.0285
H7F H 1.2318 -0.2149 0.1473
H7D H -0.2318 -0.2149 -0.1473
H7B H -0.2318 0.2149 -0.1473
C9F C 1.0100(2) -0.34617(17) 0.2681(3)
C9D C -0.0100(2) -0.34617(17) -0.2681(3)
C9B C -0.0100(2) 0.34617(17) -0.2681(3)
H8F H 1.0172 -0.4063 0.2706
H8D H -0.0172 -0.4063 -0.2706
H8B H -0.0172 0.4063 -0.2706
C10F C 0.77416(19) -0.08240(19) 0.4999(3)
C10D C 0.22584(19) -0.08240(19) -0.4999(3)
C10B C 0.22584(19) 0.08240(19) -0.4999(3)
H9F H 0.7062 -0.0795 0.4364
H9D H 0.2938 -0.0795 -0.4364
H9B H 0.2938 0.0795 -0.4364
H10F H 0.7771 -0.1313 0.5636
H10D H 0.2229 -0.1313 -0.5636
H10B H 0.2229 0.1313 -0.5636
C11F C 0.86628(17) -0.17865(17) 0.4028(3)
C11D C 0.13372(17) -0.17865(17) -0.4028(3)
C11B C 0.13372(17) 0.17865(17) -0.4028(3)
H11F H 0.8358 -0.2178 0.4504
H11D H 0.1642 -0.2178 -0.4504
H11B H 0.1642 0.2178 -0.4504
loop_
_geom_bond_atom_site_label_1
_geom_bond_atom_site_label_2
_geom_bond_site_symmetry_1
_geom_bond_site_symmetry_2
Ag1 C6 1_555 1_555
Cu1 O2 1_555 1_555
K1 O1 1_555 1_555
O1 C4 1_555 1_555
O2 K1 1_555 1_555
N1 Cu1 1_555 1_555
N2 Cu1 1_555 1_555
C1 C2 1_555 1_555
C2 O2 1_555 1_555
C3 H1 1_555 1_555
H2 C3 1_555 1_555
C4 C2 1_555 1_555
C5 C4 1_555 1_555
H3 C5 1_555 1_555
C6 N1 1_555 1_555
C7 C1 1_555 1_555
H4 C7 1_555 1_555
C8 O1 1_555 1_555
H5 C8 1_555 1_555
H6 C8 1_555 1_555
H7 C8 1_555 1_555
C9 C5 1_555 1_555
H8 C9 1_555 1_555
C10 N2 1_555 1_555
H9 C10 1_555 1_555
H10 C10 1_555 1_555
C11 N2 1_555 1_555
H11 C11 1_555 1_555
Cu1D O2D 1_555 1_555
K1_2 O1D 1_555 1_555
O1F K1 1_555 1_555
O1D C4D 1_555 1_555
O1B K1_2 1_555 1_555
O1D_2 K1 1_555 1_555
O1B_2 K1 1_555 1_555
O2F Cu1 1_555 1_555
O2D K1_2 1_555 1_555
O2B Cu1D 1_555 1_555
O2D_2 K1 1_555 1_555
O2B_2 K1 1_555 1_555
N1D Cu1D 1_555 1_555
N2F Cu1 1_555 1_555
N2D Cu1D 1_555 1_555
N2B Cu1D 1_555 1_555
C1F C2F 1_555 1_555
C1D C2D 1_555 1_555
C1B C2B 1_555 1_555
C2F O2F 1_555 1_555
C2D O2D 1_555 1_555
C2B O2B 1_555 1_555
C3D H1D 1_555 1_555
H2D C3D 1_555 1_555
C4F O1F 1_555 1_555
C4D C2D 1_555 1_555
C4B O1B 1_555 1_555
C5F C4F 1_555 1_555
C5D C4D 1_555 1_555
C5B C4B 1_555 1_555
H3F C5F 1_555 1_555
H3D C5D 1_555 1_555
H3B C5B 1_555 1_555
C6D Ag1 1_555 1_555
C7F C1F 1_555 1_555
C7D C1D 1_555 1_555
C7B C1B 1_555 1_555
H4F C7F 1_555 1_555
H4D C7D 1_555 1_555
H4B C7B 1_555 1_555
C8F O1F 1_555 1_555
C8D O1D 1_555 1_555
C8B O1B 1_555 1_555
H5F C8F 1_555 1_555
H5D C8D 1_555 1_555
H5B C8B 1_555 1_555
H6F C8F 1_555 1_555
H6D C8D 1_555 1_555
H6B C8B 1_555 1_555
H7F C8F 1_555 1_555
H7D C8D 1_555 1_555
H7B C8B 1_555 1_555
C9F C5F 1_555 1_555
C9D C5D 1_555 1_555
C9B C5B 1_555 1_555
H8F C9F 1_555 1_555
H8D C9D 1_555 1_555
H8B C9B 1_555 1_555
C10F C3 1_555 1_555
C10D N2D 1_555 1_555
C10B N2B 1_555 1_555
H9F C10F 1_555 1_555
H9D C10D 1_555 1_555
H9B C10B 1_555 1_555
H10F C10F 1_555 1_555
H10D C10D 1_555 1_555
H10B C10B 1_555 1_555
C11F N2F 1_555 1_555
C11D N2D 1_555 1_555
C11B N2B 1_555 1_555
H11F C11F 1_555 1_555
H11D C11D 1_555 1_555
H11B C11B 1_555 1_555
K1 O2F 1_555 1_555
C1 C11 1_555 1_555
C3 C10 1_555 1_555
C7 C9 1_555 1_555
K1_2 O2B 1_555 1_555
N1D C6D 1_555 1_555
N2F C10F 1_555 1_555
C1F C11F 1_555 1_555
C1D C11D 1_555 1_555
C1B C11B 1_555 1_555
C2F C4F 1_555 1_555
C2B C4B 1_555 1_555
C3D C10D 1_555 1_555
C3D C10B 1_555 1_555
C7F C9F 1_555 1_555
C7D C9D 1_555 1_555
C7B C9B 1_555 1_555

#END
