
#######################################################################
#
#                 Cambridge Crystallographic Data Centre
#                                CCDC 
#
#######################################################################
#
# If this CIF has been generated from an entry in the Cambridge 
# Structural Database, then it will include bibliographic, chemical, 
# crystal, experimental, refinement or atomic coordinate data resulting 
# from the CCDC's data processing and validation procedures.
#
#######################################################################

data_VOBLAA
_symmetry_cell_setting           monoclinic
_symmetry_space_group_name_H-M   'P 21/a'
_symmetry_Int_Tables_number      14
_space_group_name_Hall           '-P 2yab'
loop_
_symmetry_equiv_pos_site_id
_symmetry_equiv_pos_as_xyz
1 x,y,z
2 1/2-x,1/2+y,-z
3 -x,-y,-z
4 1/2+x,1/2-y,z
_cell_length_a                   12.5763(12)
_cell_length_b                   41.171(5)
_cell_length_c                   16.873(3)
_cell_angle_alpha                90.00
_cell_angle_beta                 94.435(12)
_cell_angle_gamma                90.00
_cell_volume                     8710.32
loop_
_atom_site_label
_atom_site_type_symbol
_atom_site_fract_x
_atom_site_fract_y
_atom_site_fract_z
C1 C 0.0085(6) 0.3317(2) 0.1879(4)
C2 C 0.0256(7) 0.3650(2) 0.2031(5)
C3 C 0.1087(8) 0.3808(3) 0.1718(6)
H1 H 0.1211 0.4026 0.1838
C4 C 0.1733(9) 0.3650(4) 0.1232(8)
H2 H 0.2292 0.3761 0.1025
C5 C 0.1576(8) 0.3334(4) 0.1048(6)
H3 H 0.2009 0.3232 0.0701
C6 C 0.0747(6) 0.3155(3) 0.1383(5)
C7 C 0.0667(7) 0.2816(3) 0.1192(5)
C8 C 0.0156(9) 0.2267(3) 0.1184(7)
H4 H 0.0713 0.2164 0.1527
H5 H 0.0392 0.2270 0.0650
C9 C -0.0829(9) 0.2066(3) 0.1182(7)
H6 H -0.1421 0.2181 0.0908
H7 H -0.0728 0.1864 0.0903
C10 C -0.1072(9) 0.1997(2) 0.2010(6)
H8 H -0.1530 0.1807 0.2016
H9 H -0.0415 0.1948 0.2327
C11 C -0.2407(8) 0.2192(2) 0.2747(5)
C12 C -0.3088(7) 0.2412(2) 0.3148(4)
C13 C -0.4007(8) 0.2284(3) 0.3486(5)
H10 H -0.4134 0.2062 0.3451
C14 C -0.4682(8) 0.2467(3) 0.3844(6)
H11 H -0.5254 0.2371 0.4075
C15 C -0.4544(7) 0.2801(3) 0.3879(5)
H12 H -0.5039 0.2933 0.4107
C16 C -0.3634(6) 0.2939(2) 0.3562(4)
C17 C -0.2922(6) 0.2755(2) 0.3191(4)
C18 C -0.0286(10) 0.4106(2) 0.2806(6)
H13 H -0.0864 0.4166 0.3115
H14 H -0.0241 0.4256 0.2376
H15 H 0.0370 0.4109 0.3138
C19 C -0.4217(8) 0.3495(3) 0.3733(6)
H16 H -0.3943 0.3712 0.3700
H17 H -0.4419 0.3456 0.4262
H18 H -0.4829 0.3470 0.3361
C20 C -0.4417(10) 0.4681(4) 0.9229(9)
H19 H -0.4879 0.4794 0.8840
H20 H -0.4474 0.4451 0.9139
H21 H -0.4622 0.4731 0.9751
C21 C -0.2602(10) 0.4642(3) 0.9672(6)
C22 C -0.2776(14) 0.4504(3) 1.0387(7)
H22 H -0.3471 0.4488 1.0534
C23 C -0.201(2) 0.4395(5) 1.0862(10)
H23 H -0.2159 0.4310 1.1353
C24 C -0.098(2) 0.4403(4) 1.0652(9)
H24 H -0.0433 0.4311 1.0985
C25 C -0.0730(12) 0.4554(3) 0.9915(7)
C26 C -0.1561(9) 0.4678(2) 0.9427(5)
C27 C 0.0335(14) 0.4564(3) 0.9721(8)
C28 C 0.1928(11) 0.4633(4) 0.8932(11)
H25 H 0.2228 0.4447 0.9224
H26 H 0.2255 0.4826 0.9172
C29 C 0.2195(16) 0.4613(10) 0.8196(17)
H27 H 0.2289 0.4380 0.8145
H28 H 0.2916 0.4698 0.8255
C30 C 0.1925(9) 0.4690(3) 0.7484(10)
H29 H 0.2467 0.4833 0.7300
H30 H 0.1922 0.4494 0.7163
C31 C 0.0751(8) 0.5012(3) 0.6647(7)
C32 C -0.0200(8) 0.5185(2) 0.6346(5)
C33 C -0.0150(10) 0.5332(3) 0.5596(6)
H31 H 0.0456 0.5311 0.5317
C34 C -0.1007(12) 0.5506(3) 0.5288(6)
H32 H -0.0969 0.5606 0.4797
C35 C -0.1916(8) 0.5539(2) 0.5669(5)
H33 H -0.2491 0.5659 0.5444
C36 C -0.1960(7) 0.5395(2) 0.6383(5)
C37 C -0.1110(7) 0.52207(18) 0.6760(5)
C38 C -0.8774(8) 0.3574(3) -0.1099(6)
H34 H -0.8386 0.3774 -0.1115
H35 H -0.9031 0.3547 -0.0581
H36 H -0.9367 0.3579 -0.1492
C39 C -0.8494(7) 0.3003(2) -0.1264(5)
C40 C -0.9407(7) 0.2913(3) -0.0934(5)
H37 H -0.9811 0.3068 -0.0689
C41 C -0.9737(8) 0.2585(3) -0.0965(6)
H38 H -1.0367 0.2526 -0.0749
C42 C -0.9156(7) 0.2359(3) -0.1299(5)
H39 H -0.9369 0.2143 -0.1295
C43 C -0.8222(7) 0.2446(2) -0.1659(4)
C44 C -0.7878(6) 0.2768(2) -0.1656(4)
C45 C -0.7640(8) 0.2187(2) -0.2012(5)
C46 C -0.3796(9) 0.5563(4) 0.6455(8)
H40 H -0.4346 0.5569 0.6819
H41 H -0.3642 0.5780 0.6290
H42 H -0.4031 0.5436 0.5998
C47 C -0.6388(9) 0.1904(2) -0.2681(6)
H43 H -0.6970 0.1749 -0.2731
H44 H -0.5859 0.1823 -0.2281
C48 C -0.5894(7) 0.1928(2) -0.3464(6)
H45 H -0.5780 0.1710 -0.3660
H46 H -0.6394 0.2035 -0.3845
C49 C -0.4858(8) 0.2108(2) -0.3426(7)
H47 H -0.4392 0.2023 -0.2990
H48 H -0.4516 0.2071 -0.3914
C50 C -0.4380(7) 0.2640(2) -0.3713(5)
C51 C -0.4293(6) 0.2988(2) -0.3685(5)
C52 C -0.4849(6) 0.3184(2) -0.3186(4)
C53 C -0.4662(7) 0.3521(2) -0.3192(5)
C54 C -0.3972(8) 0.3658(3) -0.3683(6)
H49 H -0.3868 0.3881 -0.3686
C55 C -0.3433(8) 0.3458(3) -0.4173(7)
H50 H -0.2952 0.3550 -0.4500
C56 C -0.3590(7) 0.3130(3) -0.4190(6)
H51 H -0.3231 0.3002 -0.4535
C57 C -0.5304(12) 0.4037(3) -0.2765(10)
H52 H -0.5717 0.4128 -0.2364
H53 H -0.5641 0.4086 -0.3281
H54 H -0.4600 0.4128 -0.2717
C58 C 0.0573(5) 0.36074(18) 0.5404(4)
H55 H 0.0946 0.3466 0.5097
C59 C -0.0417(6) 0.37238(17) 0.5116(4)
C60 C -0.0961(6) 0.39414(18) 0.5562(4)
H56 H -0.1613 0.4025 0.5359
C61 C -0.0532(6) 0.40373(17) 0.6325(4)
C62 C 0.0453(6) 0.39121(17) 0.6598(4)
H57 H 0.0744 0.3972 0.7100
C63 C 0.1012(5) 0.37033(17) 0.6155(4)
C64 C -0.0920(7) 0.3604(2) 0.4326(4)
C65 C -0.1147(7) 0.4259(2) 0.6831(5)
C66 C 0.2070(6) 0.35621(19) 0.6484(5)
C67 C -0.5594(5) 0.41882(18) 0.1075(4)
C68 C -0.4736(6) 0.40652(19) 0.1530(4)
H58 H -0.4519 0.4162 0.2014
C69 C -0.4192(6) 0.3798(2) 0.1275(4)
C70 C -0.4505(6) 0.36603(19) 0.0536(4)
H59 H -0.4135 0.3483 0.0356
C71 C -0.5364(5) 0.37865(18) 0.0070(4)
C72 C -0.5914(5) 0.40519(17) 0.0352(4)
H60 H -0.6499 0.4137 0.0050
C73 C -0.6236(7) 0.4467(2) 0.1382(4)
C74 C -0.5724(6) 0.3638(2) -0.0721(4)
C75 C -0.3296(7) 0.3647(3) 0.1804(5)
Cu1 Cu -0.11053(7) 0.27168(2) 0.21746(5)
Cu2 Cu -0.02320(8) 0.48103(3) 0.81024(6)
Cu3 Cu -0.60989(7) 0.26323(2) -0.26584(5)
Mn1 Mn -0.18143(9) 0.34220(3) 0.29357(6)
Mn2 Mn -0.26816(9) 0.50701(3) 0.80460(7)
Mn3 Mn -0.65261(9) 0.33802(3) -0.20298(6)
N1 N -0.1601(6) 0.22727(16) 0.2365(4)
N2 N 0.0015(5) 0.26056(18) 0.1454(4)
N3 N 0.0694(7) 0.4645(2) 0.9041(6)
N4 N 0.0857(6) 0.4854(2) 0.7330(6)
N5 N -0.6795(6) 0.22175(16) -0.2412(4)
N6 N -0.4993(5) 0.24610(17) -0.3313(4)
O1 O -0.2105(4) 0.28950(12) 0.2893(3)
O2 O -0.0686(4) 0.31732(13) 0.2198(3)
O3 O -0.3423(5) 0.32702(16) 0.3552(3)
O4 O -0.0468(5) 0.37819(15) 0.2492(4)
O5 O -0.1199(4) 0.50977(13) 0.7475(3)
O6 O -0.1436(4) 0.48294(14) 0.8750(3)
O7 O -0.2829(5) 0.54174(17) 0.6849(4)
O8 O -0.3384(6) 0.47777(17) 0.9165(4)
O9 O -0.5516(4) 0.30673(12) -0.2693(3)
O10 O -0.7027(4) 0.28711(13) -0.1997(3)
O11 O -0.5237(5) 0.36913(14) -0.2665(4)
O12 O -0.8082(5) 0.33072(15) -0.1259(3)
O13 O -0.5756(4) 0.46712(13) 0.1839(3)
O14 O -0.7210(4) 0.44938(14) 0.1169(3)
O15 O -0.2903(5) 0.37991(18) 0.2389(3)
O16 O -0.3002(7) 0.3372(2) 0.1652(5)
O17 O -0.5413(5) 0.33635(14) -0.0895(3)
O18 O -0.6378(5) 0.37942(14) -0.1172(3)
O19 O -0.0525(6) 0.33656(16) 0.3999(3)
O20 O -0.1733(4) 0.37467(16) 0.4020(3)
O21 O -0.2027(5) 0.43605(18) 0.6528(4)
O22 O -0.0750(5) 0.43196(14) 0.7518(3)
O23 O 0.2297(4) 0.36041(15) 0.7219(3)
O24 O 0.2622(5) 0.34121(16) 0.6033(3)
O25 O -0.2323(5) 0.28255(18) 0.1032(4)
O26 O -0.3334(4) 0.46913(14) 0.7328(4)
O27 O -0.7154(4) 0.27636(15) -0.3930(3)
C77 C -0.6921(8) 0.2708(3) -0.4743(5)
C78 C -0.2077(11) 0.2882(5) 0.0259(8)
Mn2B Mn -0.73184(9) 0.49299(3) 0.19540(7)
Mn3_2 Mn 0.34739(9) 0.33802(3) 0.79702(6)
O13B O -0.4244(4) 0.53288(13) 0.8161(3)
O14B O -0.2790(4) 0.55062(14) 0.8831(3)
O23_2 O -0.7703(4) 0.36041(15) -0.2781(3)
C76 C 0.270(2) 0.3575(5) 0.3980(15)
O28 O 0.3448(11) 0.3676(4) 0.4687(9)
O29 O -0.4687(11) 0.5248(4) 0.3454(13)
O30 O -0.3810(11) 0.4799(4) 0.2688(9)
loop_
_geom_bond_atom_site_label_1
_geom_bond_atom_site_label_2
_geom_bond_site_symmetry_1
_geom_bond_site_symmetry_2
C1 C2 1_555 1_555
C2 C3 1_555 1_555
C3 H1 1_555 1_555
C4 C3 1_555 1_555
H2 C4 1_555 1_555
C5 C4 1_555 1_555
H3 C5 1_555 1_555
C6 C1 1_555 1_555
C7 C6 1_555 1_555
C8 H4 1_555 1_555
H5 C8 1_555 1_555
C9 C8 1_555 1_555
H6 C9 1_555 1_555
H7 C9 1_555 1_555
C10 C9 1_555 1_555
H8 C10 1_555 1_555
H9 C10 1_555 1_555
C11 C12 1_555 1_555
C12 C13 1_555 1_555
C13 H10 1_555 1_555
C14 C13 1_555 1_555
H11 C14 1_555 1_555
C15 C14 1_555 1_555
H12 C15 1_555 1_555
C16 C15 1_555 1_555
C17 C12 1_555 1_555
C18 H13 1_555 1_555
H14 C18 1_555 1_555
H15 C18 1_555 1_555
C19 H16 1_555 1_555
H17 C19 1_555 1_555
H18 C19 1_555 1_555
C20 H19 1_555 1_555
H20 C20 1_555 1_555
H21 C20 1_555 1_555
C21 C22 1_555 1_555
C22 H22 1_555 1_555
C23 C22 1_555 1_555
H23 C23 1_555 1_555
C24 C23 1_555 1_555
H24 C24 1_555 1_555
C25 C24 1_555 1_555
C26 C21 1_555 1_555
C27 C25 1_555 1_555
C28 H25 1_555 1_555
H26 C28 1_555 1_555
C29 C28 1_555 1_555
H27 C29 1_555 1_555
H28 C29 1_555 1_555
C30 C29 1_555 1_555
H29 C30 1_555 1_555
H30 C30 1_555 1_555
C31 C32 1_555 1_555
C32 C33 1_555 1_555
C33 H31 1_555 1_555
C34 C33 1_555 1_555
H32 C34 1_555 1_555
C35 C34 1_555 1_555
H33 C35 1_555 1_555
C36 C35 1_555 1_555
C37 C32 1_555 1_555
C38 H34 1_555 1_555
H35 C38 1_555 1_555
H36 C38 1_555 1_555
C39 C40 1_555 1_555
C40 H37 1_555 1_555
C41 C40 1_555 1_555
H38 C41 1_555 1_555
C42 C41 1_555 1_555
H39 C42 1_555 1_555
C43 C42 1_555 1_555
C44 C39 1_555 1_555
C45 C43 1_555 1_555
C46 H40 1_555 1_555
H41 C46 1_555 1_555
H42 C46 1_555 1_555
C47 H43 1_555 1_555
H44 C47 1_555 1_555
C48 C47 1_555 1_555
H45 C48 1_555 1_555
H46 C48 1_555 1_555
C49 C48 1_555 1_555
H47 C49 1_555 1_555
H48 C49 1_555 1_555
C50 C51 1_555 1_555
C51 C52 1_555 1_555
C52 C53 1_555 1_555
C53 C54 1_555 1_555
C54 H49 1_555 1_555
C55 C54 1_555 1_555
H50 C55 1_555 1_555
C56 C51 1_555 1_555
H51 C56 1_555 1_555
C57 H52 1_555 1_555
H53 C57 1_555 1_555
H54 C57 1_555 1_555
C58 H55 1_555 1_555
C59 C58 1_555 1_555
C60 C59 1_555 1_555
H56 C60 1_555 1_555
C61 C60 1_555 1_555
C62 C61 1_555 1_555
H57 C62 1_555 1_555
C63 C58 1_555 1_555
C64 C59 1_555 1_555
C65 C61 1_555 1_555
C66 C63 1_555 1_555
C67 C68 1_555 1_555
C68 H58 1_555 1_555
C69 C68 1_555 1_555
C70 C69 1_555 1_555
H59 C70 1_555 1_555
C71 C70 1_555 1_555
C72 C67 1_555 1_555
H60 C72 1_555 1_555
C73 C67 1_555 1_555
C74 C71 1_555 1_555
C75 C69 1_555 1_555
Cu1 N1 1_555 1_555
Cu2 N3 1_555 1_555
Cu3 N5 1_555 1_555
Mn1 O1 1_555 1_555
Mn2 O5 1_555 1_555
Mn3 O9 1_555 1_555
N1 C10 1_555 1_555
N2 C7 1_555 1_555
N3 C27 1_555 1_555
N4 C30 1_555 1_555
N5 C45 1_555 1_555
N6 C49 1_555 1_555
O1 C17 1_555 1_555
O2 C1 1_555 1_555
O3 C16 1_555 1_555
O4 C2 1_555 1_555
O5 C37 1_555 1_555
O6 C26 1_555 1_555
O7 C36 1_555 1_555
O8 C20 1_555 1_555
O9 C52 1_555 1_555
O10 C44 1_555 1_555
O11 C53 1_555 1_555
O12 C38 1_555 1_555
O13 C73 1_555 1_555
O14 C73 1_555 1_555
O15 C75 1_555 1_555
O16 C75 1_555 1_555
O17 C74 1_555 1_555
O18 C74 1_555 1_555
O19 C64 1_555 1_555
O20 C64 1_555 1_555
O21 C65 1_555 1_555
O22 C65 1_555 1_555
O23 C66 1_555 1_555
O24 C66 1_555 1_555
O25 Cu1 1_555 1_555
O26 Mn2 1_555 1_555
O27 Cu3 1_555 1_555
C76 O28 1_555 1_555
C77 O27 1_555 1_555
C78 O25 1_555 1_555
Mn2B O13 1_555 1_555
Mn3_2 O23 1_555 1_555
O13B Mn2 1_555 1_555
O14B Mn2 1_555 1_555
O23_2 Mn3 1_555 1_555
C5 C6 1_555 1_555
C8 N2 1_555 1_555
C11 N1 1_555 1_555
C16 C17 1_555 1_555
C18 O4 1_555 1_555
C19 O3 1_555 1_555
C21 O8 1_555 1_555
C25 C26 1_555 1_555
C28 N3 1_555 1_555
C31 N4 1_555 1_555
C36 C37 1_555 1_555
C39 O12 1_555 1_555
C43 C44 1_555 1_555
C46 O7 1_555 1_555
C47 N5 1_555 1_555
C50 N6 1_555 1_555
C55 C56 1_555 1_555
C57 O11 1_555 1_555
C62 C63 1_555 1_555
C71 C72 1_555 1_555
Cu1 N2 1_555 1_555
Cu1 O1 1_555 1_555
Cu1 O2 1_555 1_555
Cu2 N4 1_555 1_555
Cu2 O5 1_555 1_555
Cu2 O6 1_555 1_555
Cu2 O22 1_555 1_555
Cu3 N6 1_555 1_555
Cu3 O9 1_555 1_555
Cu3 O10 1_555 1_555
Mn1 O2 1_555 1_555
Mn1 O3 1_555 1_555
Mn1 O4 1_555 1_555
Mn1 O15 1_555 1_555
Mn1 O16 1_555 1_555
Mn1 O19 1_555 1_555
Mn1 O20 1_555 1_555
Mn2 O6 1_555 1_555
Mn2 O7 1_555 1_555
Mn2 O8 1_555 1_555
Mn3 O10 1_555 1_555
Mn3 O11 1_555 1_555
Mn3 O12 1_555 1_555
Mn3 O17 1_555 1_555
Mn3 O18 1_555 1_555
O14 Mn2B 1_555 1_555

#END
