
#######################################################################
#
#                 Cambridge Crystallographic Data Centre
#                                CCDC 
#
#######################################################################
#
# If this CIF has been generated from an entry in the Cambridge 
# Structural Database, then it will include bibliographic, chemical, 
# crystal, experimental, refinement or atomic coordinate data resulting 
# from the CCDC's data processing and validation procedures.
#
#######################################################################

data_VOBNUW
_symmetry_cell_setting           triclinic
_symmetry_space_group_name_H-M   'P -1'
_symmetry_Int_Tables_number      2
_space_group_name_Hall           '-P 1'
loop_
_symmetry_equiv_pos_site_id
_symmetry_equiv_pos_as_xyz
1 x,y,z
2 -x,-y,-z
_cell_length_a                   9.715(3)
_cell_length_b                   10.638(3)
_cell_length_c                   10.931(3)
_cell_angle_alpha                98.241(3)
_cell_angle_beta                 112.615(3)
_cell_angle_gamma                113.644(3)
_cell_volume                     894.199
loop_
_atom_site_label
_atom_site_type_symbol
_atom_site_fract_x
_atom_site_fract_y
_atom_site_fract_z
Cl2 Cl 0.3339(5) 0.8149(6) 0.9208(6)
Cl3 Cl 0.1728(7) 0.5673(6) 0.9817(6)
C17 C 0.3273(17) 0.7337(14) 1.0358(13)
H17 H 0.4351 0.7339 1.0808
H18 H 0.323 0.7935 1.1085
Rh1 Rh 0.50000 0.00000 0.50000
P1 P 0.52308(13) -0.20765(11) 0.50582(11)
C1 C 0.2881(8) -0.1126(10) 0.3517(9)
O1 O 0.1518(9) -0.1825(13) 0.2643(13)
C2 C 0.5480(7) -0.3934(5) 0.3121(5)
H1 H 0.4582 -0.4717 0.3114
C3 C 0.7378(7) -0.1344(5) 0.3895(6)
H2 H 0.7798 -0.0392 0.4454
C4 C 0.6068(5) -0.2513(4) 0.3927(5)
C5 C 0.7551(8) -0.3024(5) 0.2321(7)
H3 H 0.8104 -0.3196 0.1841
C6 C 0.6224(7) -0.4194(6) 0.2325(6)
H4 H 0.5834 -0.5149 0.1796
C7 C 0.8056(8) -0.1579(6) 0.3045(7)
H5 H 0.8839 -0.0791 0.2951
C8 C 0.6660(5) -0.1993(4) 0.6773(4)
C9 C 0.3222(5) -0.3768(4) 0.4475(5)
H6 H 0.2479 -0.4037 0.3472
H7 H 0.3482 -0.4547 0.4597
C10 C 0.8914(8) -0.2361(7) 0.8298(5)
H8 H 0.9744 -0.2634 0.8426
C11 C 0.0497(6) -0.5039(5) 0.4614(5)
H9 H 0.0654 -0.5882 0.4639
H10 H -0.0175 -0.518 0.363
C12 C 0.7906(6) -0.2389(5) 0.6969(5)
H11 H 0.8069 -0.2672 0.6214
C13 C 0.6471(6) -0.1530(6) 0.7927(4)
H12 H 0.5671 -0.1224 0.7809
C14 C 0.2248(6) -0.3668(5) 0.5258(5)
H13 H 0.2923 -0.3525 0.6242
H14 H 0.2095 -0.2824 0.5231
C15 C 0.7456(7) -0.1517(7) 0.9253(5)
H15 H 0.7292 -0.1236 1.0008
C16 C 0.8687(8) -0.1930(7) 0.9435(6)
H16 H 0.9361 -0.1917 1.0319
Rh1_2 Rh -0.50000 -1.00000 0.50000
P1A P -0.52308(13) -0.79235(11) 0.49418(11)
P1A_2 P 0.47692(13) 0.20765(11) 0.49418(11)
C1A C 0.7119(8) 0.1126(10) 0.6483(9)
O1A O 0.8482(9) 0.1825(13) 0.7357(13)
C2A C -0.5480(7) -0.6066(5) 0.6879(5)
H1A H -0.4582 -0.5283 0.6886
C3A C -0.7378(7) -0.8656(5) 0.6105(6)
H2A H -0.7798 -0.9608 0.5546
C4A C -0.6068(5) -0.7487(4) 0.6073(5)
C5A C -0.7551(8) -0.6976(5) 0.7679(7)
H3A H -0.8104 -0.6804 0.8159
C6A C -0.6224(7) -0.5806(6) 0.7675(6)
H4A H -0.5834 -0.4851 0.8204
C7A C -0.8056(8) -0.8421(6) 0.6955(7)
H5A H -0.8839 -0.9209 0.7049
C8A C -0.6660(5) -0.8007(4) 0.3227(4)
C9A C -0.3222(5) -0.6232(4) 0.5525(5)
H6A H -0.2479 -0.5963 0.6528
H7A H -0.3482 -0.5453 0.5403
C10A C -0.8914(8) -0.7639(7) 0.1702(5)
H8A H -0.9744 -0.7366 0.1574
C11A C -0.0497(6) -0.4961(5) 0.5386(5)
H9A H -0.0654 -0.4118 0.5361
H10A H 0.0175 -0.482 0.637
C12A C -0.7906(6) -0.7611(5) 0.3031(5)
H11A H -0.8069 -0.7328 0.3786
C13A C -0.6471(6) -0.8470(6) 0.2073(4)
H12A H -0.5671 -0.8776 0.2191
C14A C -0.2248(6) -0.6332(5) 0.4742(5)
H13A H -0.2923 -0.6475 0.3758
H14A H -0.2095 -0.7176 0.4769
C15A C -0.7456(7) -0.8483(7) 0.0747(5)
H15A H -0.7292 -0.8764 -0.0008
C16A C -0.8687(8) -0.8070(7) 0.0565(6)
H16A H -0.9361 -0.8083 -0.0319
Cl1? Cl 0.2135(4) -0.1509(3) 0.3018(4)
loop_
_geom_bond_atom_site_label_1
_geom_bond_atom_site_label_2
_geom_bond_site_symmetry_1
_geom_bond_site_symmetry_2
Rh1 P1 1_555 1_555
P1 C4 1_555 1_555
C1 Rh1 1_555 1_555
O1 C1 1_555 1_555
C2 H1 1_555 1_555
C3 H2 1_555 1_555
C4 C2 1_555 1_555
C5 H3 1_555 1_555
C6 C2 1_555 1_555
H4 C6 1_555 1_555
C7 C3 1_555 1_555
H5 C7 1_555 1_555
C8 P1 1_555 1_555
C9 P1 1_555 1_555
H6 C9 1_555 1_555
H7 C9 1_555 1_555
C10 H8 1_555 1_555
C11 H9 1_555 1_555
H10 C11 1_555 1_555
C12 C8 1_555 1_555
H11 C12 1_555 1_555
C13 C8 1_555 1_555
H12 C13 1_555 1_555
C14 C9 1_555 1_555
H13 C14 1_555 1_555
H14 C14 1_555 1_555
C15 C13 1_555 1_555
H15 C15 1_555 1_555
C16 C10 1_555 1_555
H16 C16 1_555 1_555
Cl2 C17 1_555 1_555
Cl3 C17 1_555 1_555
C17 H17 1_555 1_555
H18 C17 1_555 1_555
Rh1_2 P1A 1_555 1_555
P1A C4A 1_555 1_555
P1A_2 Rh1 1_555 1_555
C1A Rh1 1_555 1_555
O1A C1A 1_555 1_555
C2A H1A 1_555 1_555
C3A H2A 1_555 1_555
C4A C2A 1_555 1_555
C5A H3A 1_555 1_555
C6A C2A 1_555 1_555
H4A C6A 1_555 1_555
C7A C3A 1_555 1_555
H5A C7A 1_555 1_555
C8A P1A 1_555 1_555
C9A P1A 1_555 1_555
H6A C9A 1_555 1_555
H7A C9A 1_555 1_555
C10A H8A 1_555 1_555
C11A C11 1_555 1_555
H9A C11A 1_555 1_555
H10A C11A 1_555 1_555
C12A C8A 1_555 1_555
H11A C12A 1_555 1_555
C13A C8A 1_555 1_555
H12A C13A 1_555 1_555
C14A C9A 1_555 1_555
H13A C14A 1_555 1_555
H14A C14A 1_555 1_555
C15A C13A 1_555 1_555
H15A C15A 1_555 1_555
C16A C10A 1_555 1_555
H16A C16A 1_555 1_555
C3 C4 1_555 1_555
C5 C6 1_555 1_555
C5 C7 1_555 1_555
C10 C12 1_555 1_555
C11 C14 1_555 1_555
C15 C16 1_555 1_555
C3A C4A 1_555 1_555
C5A C6A 1_555 1_555
C5A C7A 1_555 1_555
C10A C12A 1_555 1_555
C11A C14A 1_555 1_555
C15A C16A 1_555 1_555

#END
