
#######################################################################
#
#                 Cambridge Crystallographic Data Centre
#                                CCDC 
#
#######################################################################
#
# If this CIF has been generated from an entry in the Cambridge 
# Structural Database, then it will include bibliographic, chemical, 
# crystal, experimental, refinement or atomic coordinate data resulting 
# from the CCDC's data processing and validation procedures.
#
#######################################################################

data_VOBPIL01
_symmetry_cell_setting           monoclinic
_symmetry_space_group_name_H-M   'C 2/c'
_symmetry_Int_Tables_number      15
_space_group_name_Hall           '-C 2yn'
loop_
_symmetry_equiv_pos_site_id
_symmetry_equiv_pos_as_xyz
1 x,y,z
2 1/2+x,1/2+y,z
3 -x,y,1/2-z
4 1/2-x,1/2+y,1/2-z
5 -x,-y,-z
6 1/2-x,1/2-y,-z
7 x,-y,1/2+z
8 1/2+x,1/2-y,1/2+z
_cell_length_a                   11.1626(5)
_cell_length_b                   12.5839(6)
_cell_length_c                   12.7543(6)
_cell_angle_alpha                90
_cell_angle_beta                 92.284(3)
_cell_angle_gamma                90
_cell_volume                     1790.16
loop_
_atom_site_label
_atom_site_type_symbol
_atom_site_fract_x
_atom_site_fract_y
_atom_site_fract_z
Fe1 Fe 0.7500 0.2500 0.5000
N1 N 0.92010(4) 0.22709(4) 0.53297(4)
C1 C 1.01154(4) 0.18927(4) 0.56272(4)
S1 S 1.139871(12) 0.137262(12) 0.603467(11)
N2 N 0.77170(4) 0.20245(4) 0.35458(3)
N3 N 0.86124(4) 0.24239(4) 0.29202(4)
C2 C 0.85301(4) 0.19101(4) 0.20305(4)
C3 C 0.71209(4) 0.12884(4) 0.30205(4)
N4 N 0.76137(4) 0.11912(4) 0.20624(3)
N5 N 0.72884(4) 0.04519(4) 0.13155(3)
N6 N 0.72240(4) -0.10297(4) 0.04589(3)
N7 N 0.63167(4) -0.03776(4) 0.00462(4)
C4 C 0.63733(4) 0.05152(4) 0.05710(4)
C5 C 0.78011(4) -0.05258(4) 0.12204(4)
H1 H 0.9043(10) 0.1977(9) 0.1448(10)
H2 H 0.6502(11) 0.0851(10) 0.3236(10)
H3 H 0.5915(9) 0.1109(9) 0.0527(8)
H4 H 0.8434(11) -0.0778(10) 0.1654(10)
Fe1F Fe 0.7500 -0.2500 0.0000
Fe1F_2 Fe 0.7500 0.7500 1.0000
N1E N 0.57990(4) 0.27291(4) 0.46703(4)
C1E C 0.48846(4) 0.31073(4) 0.43728(4)
S1E S 0.360129(12) 0.362738(12) 0.396533(11)
N2E N 0.72830(4) 0.29755(4) 0.64542(3)
N3E N 0.63876(4) 0.25761(4) 0.70798(4)
C2E C 0.64699(4) 0.30899(4) 0.79695(4)
C3E C 0.78791(4) 0.37116(4) 0.69795(4)
N4E N 0.73863(4) 0.38088(4) 0.79376(3)
N5E N 0.77116(4) 0.45481(4) 0.86845(3)
N6E N 0.77760(4) 0.60297(4) 0.95411(3)
N6F N 0.72240(4) 0.10297(4) 0.54589(3)
N6C N 0.77760(4) 0.39703(4) 0.45411(3)
N7E N 0.86833(4) 0.53776(4) 0.99538(4)
C4E C 0.86267(4) 0.44848(4) 0.94290(4)
C5E C 0.71989(4) 0.55258(4) 0.87796(4)
H1E H 0.5957(10) 0.3023(9) 0.8552(10)
H2E H 0.8498(11) 0.4149(10) 0.6764(10)
H3E H 0.9085(9) 0.3891(9) 0.9473(8)
H4E H 0.6566(11) 0.5778(10) 0.8346(10)
O1 O 1.0000 0.44337(5) 0.2500
H5 H 0.9566(12) 0.4052(12) 0.2848(11)
H5B H 1.0434(12) 0.4052(12) 0.2152(11)
loop_
_geom_bond_atom_site_label_1
_geom_bond_atom_site_label_2
_geom_bond_site_symmetry_1
_geom_bond_site_symmetry_2
Fe1 N1 1_555 1_555
N1 C1 1_555 1_555
C1 S1 1_555 1_555
N2 Fe1 1_555 1_555
N3 N2 1_555 1_555
C2 N3 1_555 1_555
C3 N2 1_555 1_555
N4 C2 1_555 1_555
N5 N4 1_555 1_555
N6 N7 1_555 1_555
N7 C4 1_555 1_555
C4 N5 1_555 1_555
C5 N5 1_555 1_555
O1 H5 1_555 1_555
H1 C2 1_555 1_555
H2 C3 1_555 1_555
H3 C4 1_555 1_555
H4 C5 1_555 1_555
Fe1F N6 1_555 1_555
Fe1F_2 N6E 1_555 1_555
N1E Fe1 1_555 1_555
C1E N1E 1_555 1_555
S1E C1E 1_555 1_555
N2E Fe1 1_555 1_555
N3E N2E 1_555 1_555
C2E N3E 1_555 1_555
C3E N2E 1_555 1_555
N4E C2E 1_555 1_555
N5E N4E 1_555 1_555
N6E N7E 1_555 1_555
N6F Fe1 1_555 1_555
N6C Fe1 1_555 1_555
N7E C4E 1_555 1_555
C4E N5E 1_555 1_555
C5E N5E 1_555 1_555
H1E C2E 1_555 1_555
H2E C3E 1_555 1_555
H3E C4E 1_555 1_555
H4E C5E 1_555 1_555
H5B O1 1_555 1_555
C3 N4 1_555 1_555
N6 C5 1_555 1_555
C3E N4E 1_555 1_555
N6E C5E 1_555 1_555

#END
