
#######################################################################
#
#                 Cambridge Crystallographic Data Centre
#                                CCDC 
#
#######################################################################
#
# If this CIF has been generated from an entry in the Cambridge 
# Structural Database, then it will include bibliographic, chemical, 
# crystal, experimental, refinement or atomic coordinate data resulting 
# from the CCDC's data processing and validation procedures.
#
#######################################################################

data_VOBPIL04
_symmetry_cell_setting           monoclinic
_symmetry_space_group_name_H-M   'C 2/c'
_symmetry_Int_Tables_number      15
_space_group_name_Hall           '-C 2yn'
loop_
_symmetry_equiv_pos_site_id
_symmetry_equiv_pos_as_xyz
1 x,y,z
2 1/2+x,1/2+y,z
3 -x,y,1/2-z
4 1/2-x,1/2+y,1/2-z
5 -x,-y,-z
6 1/2-x,1/2-y,-z
7 x,-y,1/2+z
8 1/2+x,1/2-y,1/2+z
_cell_length_a                   10.9580(5)
_cell_length_b                   13.1506(4)
_cell_length_c                   13.1551(6)
_cell_angle_alpha                90
_cell_angle_beta                 91.151(4)
_cell_angle_gamma                90
_cell_volume                     1895.32
loop_
_atom_site_label
_atom_site_type_symbol
_atom_site_fract_x
_atom_site_fract_y
_atom_site_fract_z
Fe1 Fe 0.7500 0.2500 0.5000
S1 S 1.13827(3) 0.12347(3) 0.61243(2)
N1 N 0.85654(6) 0.24516(5) 0.27871(4)
N2 N 0.77008(6) 0.20314(4) 0.34237(4)
C1 C 0.85008(8) 0.19501(6) 0.19314(5)
C2 C 0.71399(7) 0.12927(5) 0.29425(5)
N3 N 0.76147(6) 0.12186(4) 0.19939(4)
N4 N 0.73050(6) 0.04983(4) 0.12800(4)
C3 C 0.63840(7) 0.05424(5) 0.05622(5)
C4 C 0.78312(7) -0.04356(5) 0.11939(5)
N5 N 0.63474(6) -0.03135(4) 0.00618(5)
N6 N 0.72658(5) -0.09297(4) 0.04664(4)
N7 N 0.94062(6) 0.23087(5) 0.52780(5)
C5 C 1.02266(7) 0.18539(6) 0.56398(5)
H1 H 0.5874(15) 0.1094(12) 0.0484(12)
H2 H 0.8451(13) -0.0644(12) 0.1627(11)
H3 H 0.6550(14) 0.0857(12) 0.3153(11)
H4 H 0.8992(15) 0.2033(13) 0.1339(12)
Fe1F Fe 0.7500 -0.2500 0.0000
Fe1F_2 Fe 0.7500 0.7500 1.0000
S1E S 0.36173(3) 0.37653(3) 0.38757(2)
N1E N 0.64346(6) 0.25484(5) 0.72129(4)
N2E N 0.72992(6) 0.29686(4) 0.65763(4)
C1E C 0.64992(8) 0.30499(6) 0.80686(5)
C2E C 0.78601(7) 0.37073(5) 0.70575(5)
N3E N 0.73853(6) 0.37814(4) 0.80061(4)
N4E N 0.76950(6) 0.45017(4) 0.87200(4)
C3E C 0.86160(7) 0.44576(5) 0.94378(5)
C4E C 0.71688(7) 0.54356(5) 0.88061(5)
N5E N 0.86526(6) 0.53135(4) 0.99382(5)
N6E N 0.77342(5) 0.59297(4) 0.95336(4)
N6F N 0.72658(5) 0.09297(4) 0.54664(4)
N6C N 0.77342(5) 0.40703(4) 0.45336(4)
N7E N 0.55938(6) 0.26913(5) 0.47220(5)
C5E C 0.47734(7) 0.31461(6) 0.43602(5)
H1E H 0.9126(15) 0.3906(12) 0.9516(12)
H2E H 0.6549(13) 0.5644(12) 0.8373(11)
H3E H 0.8450(14) 0.4143(12) 0.6847(11)
H4E H 0.6008(15) 0.2967(13) 0.8661(12)
O1 O 1.0000 0.44282(9) 0.2500
H5 H 1.040(2) 0.4083(18) 0.2178(17)
H5B H 0.960(2) 0.4083(18) 0.2822(17)
loop_
_geom_bond_atom_site_label_1
_geom_bond_atom_site_label_2
_geom_bond_site_symmetry_1
_geom_bond_site_symmetry_2
Fe1 N2 1_555 1_555
S1 C5 1_555 1_555
N1 N2 1_555 1_555
N2 C2 1_555 1_555
C1 N1 1_555 1_555
C2 N3 1_555 1_555
N3 C1 1_555 1_555
N4 N3 1_555 1_555
C3 N4 1_555 1_555
C4 N4 1_555 1_555
N5 C3 1_555 1_555
N6 C4 1_555 1_555
N7 Fe1 1_555 1_555
C5 N7 1_555 1_555
O1 H5 1_555 1_555
H1 C3 1_555 1_555
H2 C4 1_555 1_555
H3 C2 1_555 1_555
H4 C1 1_555 1_555
Fe1F N6 1_555 1_555
Fe1F_2 N6E 1_555 1_555
S1E C5E 1_555 1_555
N1E N2E 1_555 1_555
N2E Fe1 1_555 1_555
C1E N1E 1_555 1_555
C2E N2E 1_555 1_555
N3E C1E 1_555 1_555
N4E N3E 1_555 1_555
C3E N4E 1_555 1_555
C4E N4E 1_555 1_555
N5E C3E 1_555 1_555
N6E C4E 1_555 1_555
N6F Fe1 1_555 1_555
N6C Fe1 1_555 1_555
N7E Fe1 1_555 1_555
C5E N7E 1_555 1_555
H1E C3E 1_555 1_555
H2E C4E 1_555 1_555
H3E C2E 1_555 1_555
H4E C1E 1_555 1_555
H5B O1 1_555 1_555
N5 N6 1_555 1_555
C2E N3E 1_555 1_555
N5E N6E 1_555 1_555

#END
