
#######################################################################
#
#                 Cambridge Crystallographic Data Centre
#                                CCDC 
#
#######################################################################
#
# If this CIF has been generated from an entry in the Cambridge 
# Structural Database, then it will include bibliographic, chemical, 
# crystal, experimental, refinement or atomic coordinate data resulting 
# from the CCDC's data processing and validation procedures.
#
#######################################################################

data_VOBPIL05
_symmetry_cell_setting           monoclinic
_symmetry_space_group_name_H-M   'C 2/c'
_symmetry_Int_Tables_number      15
_space_group_name_Hall           '-C 2yn'
loop_
_symmetry_equiv_pos_site_id
_symmetry_equiv_pos_as_xyz
1 x,y,z
2 1/2+x,1/2+y,z
3 -x,y,1/2-z
4 1/2-x,1/2+y,1/2-z
5 -x,-y,-z
6 1/2-x,1/2-y,-z
7 x,-y,1/2+z
8 1/2+x,1/2-y,1/2+z
_cell_length_a                   11.1971(5)
_cell_length_b                   12.5847(6)
_cell_length_c                   12.7567(10)
_cell_angle_alpha                90
_cell_angle_beta                 92.307(8)
_cell_angle_gamma                90
_cell_volume                     1796.12
loop_
_atom_site_label
_atom_site_type_symbol
_atom_site_fract_x
_atom_site_fract_y
_atom_site_fract_z
Fe1 Fe 0.7500 0.2500 0.5000
N1 N 0.91949(15) 0.22697(13) 0.53326(12)
C1 C 1.01039(17) 0.18976(14) 0.56281(14)
S1 S 1.13880(5) 0.13800(5) 0.60259(5)
N2 N 0.77191(14) 0.20179(12) 0.35464(11)
N3 N 0.86106(15) 0.24182(13) 0.29229(12)
C2 C 0.85270(17) 0.18995(15) 0.20332(14)
C3 C 0.71239(16) 0.12867(14) 0.30221(14)
N4 N 0.76156(14) 0.11843(12) 0.20672(12)
N5 N 0.72852(14) 0.04438(12) 0.13220(11)
N6 N 0.72192(14) -0.10328(12) 0.04639(11)
N7 N 0.63158(14) -0.03791(12) 0.00494(12)
C4 C 0.63823(17) 0.05040(14) 0.05764(14)
C5 C 0.77963(17) -0.05312(14) 0.12244(14)
H1 H 0.901(3) 0.196(2) 0.145(2)
H2 H 0.652(2) 0.087(2) 0.322(2)
H3 H 0.594(3) 0.106(3) 0.054(2)
H4 H 0.839(3) -0.075(2) 0.170(2)
Fe1F Fe 0.7500 -0.2500 0.0000
Fe1F_2 Fe 0.7500 0.7500 1.0000
N1E N 0.58051(15) 0.27303(13) 0.46674(12)
C1E C 0.48961(17) 0.31024(14) 0.43719(14)
S1E S 0.36120(5) 0.36200(5) 0.39741(5)
N2E N 0.72809(14) 0.29821(12) 0.64536(11)
N3E N 0.63894(15) 0.25818(13) 0.70771(12)
C2E C 0.64730(17) 0.31005(15) 0.79668(14)
C3E C 0.78761(16) 0.37133(14) 0.69779(14)
N4E N 0.73844(14) 0.38157(12) 0.79328(12)
N5E N 0.77148(14) 0.45562(12) 0.86780(11)
N6E N 0.77808(14) 0.60328(12) 0.95361(11)
N6F N 0.72192(14) 0.10328(12) 0.54639(11)
N6C N 0.77808(14) 0.39672(12) 0.45361(11)
N7E N 0.86842(14) 0.53791(12) 0.99506(12)
C4E C 0.86177(17) 0.44960(14) 0.94236(14)
C5E C 0.72037(17) 0.55312(14) 0.87756(14)
H1E H 0.599(3) 0.304(2) 0.855(2)
H2E H 0.848(2) 0.413(2) 0.678(2)
H3E H 0.906(3) 0.394(3) 0.946(2)
H4E H 0.661(3) 0.575(2) 0.830(2)
O1 O 1.0000 0.4425(2) 0.2500
H5 H 0.959(4) 0.405(3) 0.286(3)
H5B H 1.041(4) 0.405(3) 0.214(3)
loop_
_geom_bond_atom_site_label_1
_geom_bond_atom_site_label_2
_geom_bond_site_symmetry_1
_geom_bond_site_symmetry_2
Fe1 N1 1_555 1_555
N1 C1 1_555 1_555
C1 S1 1_555 1_555
N2 Fe1 1_555 1_555
N3 N2 1_555 1_555
C2 N3 1_555 1_555
C3 N2 1_555 1_555
N4 C2 1_555 1_555
N5 N4 1_555 1_555
N6 N7 1_555 1_555
N7 C4 1_555 1_555
C4 N5 1_555 1_555
C5 N5 1_555 1_555
O1 H5 1_555 1_555
H1 C2 1_555 1_555
H2 C3 1_555 1_555
H3 C4 1_555 1_555
H4 C5 1_555 1_555
Fe1F N6 1_555 1_555
Fe1F_2 N6E 1_555 1_555
N1E Fe1 1_555 1_555
C1E N1E 1_555 1_555
S1E C1E 1_555 1_555
N2E Fe1 1_555 1_555
N3E N2E 1_555 1_555
C2E N3E 1_555 1_555
C3E N2E 1_555 1_555
N4E C2E 1_555 1_555
N5E N4E 1_555 1_555
N6E N7E 1_555 1_555
N6F Fe1 1_555 1_555
N6C Fe1 1_555 1_555
N7E C4E 1_555 1_555
C4E N5E 1_555 1_555
C5E N5E 1_555 1_555
H1E C2E 1_555 1_555
H2E C3E 1_555 1_555
H3E C4E 1_555 1_555
H4E C5E 1_555 1_555
H5B O1 1_555 1_555
C3 N4 1_555 1_555
N6 C5 1_555 1_555
C3E N4E 1_555 1_555
N6E C5E 1_555 1_555

#END
