
#######################################################################
#
#                 Cambridge Crystallographic Data Centre
#                                CCDC 
#
#######################################################################
#
# If this CIF has been generated from an entry in the Cambridge 
# Structural Database, then it will include bibliographic, chemical, 
# crystal, experimental, refinement or atomic coordinate data resulting 
# from the CCDC's data processing and validation procedures.
#
#######################################################################

data_VOBPIL03
_symmetry_cell_setting           monoclinic
_symmetry_space_group_name_H-M   'C 2/c'
_symmetry_Int_Tables_number      15
_space_group_name_Hall           '-C 2yn'
loop_
_symmetry_equiv_pos_site_id
_symmetry_equiv_pos_as_xyz
1 x,y,z
2 1/2+x,1/2+y,z
3 -x,y,1/2-z
4 1/2-x,1/2+y,1/2-z
5 -x,-y,-z
6 1/2-x,1/2-y,-z
7 x,-y,1/2+z
8 1/2+x,1/2-y,1/2+z
_cell_length_a                   10.874(2)
_cell_length_b                   13.063(2)
_cell_length_c                   13.147(2)
_cell_angle_alpha                90
_cell_angle_beta                 90.830(10)
_cell_angle_gamma                90
_cell_volume                     1867.3
loop_
_atom_site_label
_atom_site_type_symbol
_atom_site_fract_x
_atom_site_fract_y
_atom_site_fract_z
Fe1 Fe 0.7500 0.2500 0.5000
S1 S 1.13839(11) 0.12147(13) 0.61400(12)
N1 N 0.8561(4) 0.2475(4) 0.2784(4)
N2 N 0.7687(4) 0.2045(4) 0.3426(4)
C1 C 0.8501(4) 0.1974(5) 0.1926(5)
C2 C 0.7130(4) 0.1304(5) 0.2943(5)
N3 N 0.7612(4) 0.1239(5) 0.1993(4)
N4 N 0.7304(4) 0.0505(4) 0.1270(4)
C3 C 0.6382(4) 0.0543(5) 0.0554(5)
C4 C 0.7845(4) -0.0431(5) 0.1174(5)
N5 N 0.6348(4) -0.0310(4) 0.0056(4)
N6 N 0.7276(4) -0.0932(4) 0.0467(4)
N7 N 0.9424(4) 0.2312(4) 0.5259(4)
C5 C 1.0235(5) 0.1848(5) 0.5636(5)
H1 H 0.5880 0.1128 0.0493
H2 H 0.8562 -0.0681 0.1568
H3 H 0.6515 0.0826 0.3123
H4 H 0.9091 0.2045 0.1327
Fe1F Fe 0.7500 -0.2500 0.0000
Fe1F_2 Fe 0.7500 0.7500 1.0000
S1E S 0.36161(11) 0.37853(13) 0.38600(12)
N1E N 0.6439(4) 0.2525(4) 0.7216(4)
N2E N 0.7313(4) 0.2955(4) 0.6574(4)
C1E C 0.6499(4) 0.3026(5) 0.8074(5)
C2E C 0.7870(4) 0.3696(5) 0.7057(5)
N3E N 0.7388(4) 0.3761(5) 0.8007(4)
N4E N 0.7696(4) 0.4495(4) 0.8730(4)
C3E C 0.8618(4) 0.4457(5) 0.9446(5)
C4E C 0.7155(4) 0.5431(5) 0.8826(5)
N5E N 0.8652(4) 0.5310(4) 0.9944(4)
N6E N 0.7724(4) 0.5932(4) 0.9533(4)
N6F N 0.7276(4) 0.0932(4) 0.5467(4)
N6C N 0.7724(4) 0.4068(4) 0.4533(4)
N7E N 0.5576(4) 0.2688(4) 0.4741(4)
C5E C 0.4765(5) 0.3152(5) 0.4364(5)
H1E H 0.9120 0.3872 0.9507
H2E H 0.6438 0.5681 0.8432
H3E H 0.8485 0.4174 0.6877
H4E H 0.5909 0.2955 0.8673
O1 O 1.0000 0.4445(5) 0.2500
H5 H 0.9373 0.4059 0.2715
H5B H 1.0627 0.4059 0.2285
loop_
_geom_bond_atom_site_label_1
_geom_bond_atom_site_label_2
_geom_bond_site_symmetry_1
_geom_bond_site_symmetry_2
Fe1 N2 1_555 1_555
S1 C5 1_555 1_555
N1 N2 1_555 1_555
N2 C2 1_555 1_555
C1 N1 1_555 1_555
C2 N3 1_555 1_555
N3 C1 1_555 1_555
N4 N3 1_555 1_555
C3 N4 1_555 1_555
C4 N4 1_555 1_555
N5 C3 1_555 1_555
N6 C4 1_555 1_555
N7 Fe1 1_555 1_555
C5 N7 1_555 1_555
O1 H5 1_555 1_555
H1 C3 1_555 1_555
H2 C4 1_555 1_555
H3 C2 1_555 1_555
H4 C1 1_555 1_555
Fe1F N6 1_555 1_555
Fe1F_2 N6E 1_555 1_555
S1E C5E 1_555 1_555
N1E N2E 1_555 1_555
N2E Fe1 1_555 1_555
C1E N1E 1_555 1_555
C2E N2E 1_555 1_555
N3E C1E 1_555 1_555
N4E N3E 1_555 1_555
C3E N4E 1_555 1_555
C4E N4E 1_555 1_555
N5E C3E 1_555 1_555
N6E C4E 1_555 1_555
N6F Fe1 1_555 1_555
N6C Fe1 1_555 1_555
N7E Fe1 1_555 1_555
C5E N7E 1_555 1_555
H1E C3E 1_555 1_555
H2E C4E 1_555 1_555
H3E C2E 1_555 1_555
H4E C1E 1_555 1_555
H5B O1 1_555 1_555
N5 N6 1_555 1_555
C2E N3E 1_555 1_555
N5E N6E 1_555 1_555

#END
