
#######################################################################
#
#                 Cambridge Crystallographic Data Centre
#                                CCDC 
#
#######################################################################
#
# If this CIF has been generated from an entry in the Cambridge 
# Structural Database, then it will include bibliographic, chemical, 
# crystal, experimental, refinement or atomic coordinate data resulting 
# from the CCDC's data processing and validation procedures.
#
#######################################################################

data_VOBPIL
_symmetry_cell_setting           monoclinic
_symmetry_space_group_name_H-M   'C 2/c'
_symmetry_Int_Tables_number      15
_space_group_name_Hall           '-C 2yn'
loop_
_symmetry_equiv_pos_site_id
_symmetry_equiv_pos_as_xyz
1 x,y,z
2 1/2+x,1/2+y,z
3 -x,y,1/2-z
4 1/2-x,1/2+y,1/2-z
5 -x,-y,-z
6 1/2-x,1/2-y,-z
7 x,-y,1/2+z
8 1/2+x,1/2-y,1/2+z
_cell_length_a                   11.130(1)
_cell_length_b                   13.191(3)
_cell_length_c                   13.101(1)
_cell_angle_alpha                90
_cell_angle_beta                 91.82(4)
_cell_angle_gamma                90
_cell_volume                     1922.46
loop_
_atom_site_label
_atom_site_type_symbol
_atom_site_fract_x
_atom_site_fract_y
_atom_site_fract_z
O1 O 0.00000 0.44479(4) 0.25000
Fe1 Fe 0.25000 0.25000 0.00000
N1 N 0.43667(3) 0.26998(2) 0.03296(2)
C1 C 0.51855(3) 0.31349(3) 0.06578(2)
S1 S 0.63623(1) 0.37295(2) 0.11052(1)
N2 N 0.27607(3) 0.09299(2) -0.04630(2)
N3 N 0.36461(3) 0.03031(2) -0.00403(2)
C2 C 0.35856(4) -0.05430(2) -0.05441(2)
N4 N 0.27027(3) -0.04840(2) -0.12793(2)
C3 C 0.22051(3) 0.04458(2) -0.11981(2)
N5 N 0.22746(3) 0.20252(2) 0.15829(2)
N6 N 0.14039(3) 0.24128(2) 0.22111(2)
C4 C 0.14854(4) 0.19067(3) 0.30606(2)
N7 N 0.23730(3) -0.12050(2) -0.19974(2)
C5 C 0.28411(4) 0.13056(2) 0.20660(2)
H1 H 0.4059(3) -0.1117(2) -0.0492(2)
H2 H 0.1603(3) 0.0716(2) -0.1608(2)
H3 H 0.0945(4) 0.2030(3) 0.3663(3)
H4 H 0.3452(3) 0.0890(3) 0.1854(3)
N1E N 0.06333(3) 0.23002(2) -0.03296(2)
N2E N 0.22393(3) 0.40701(2) 0.04630(2)
N5E N 0.27254(3) 0.29748(2) -0.15829(2)
N7F N 0.23730(3) 0.12050(2) 0.30026(2)
C4F C 0.14854(4) -0.19067(3) -0.19394(2)
C5F C 0.28411(4) -0.13056(2) -0.29340(2)
C1E C -0.01855(3) 0.18651(3) -0.06578(2)
N3E N 0.13539(3) 0.46969(2) 0.00403(2)
C3E C 0.27949(3) 0.45542(2) 0.11981(2)
N6E N 0.35961(3) 0.25872(2) -0.22111(2)
C5E C 0.21589(4) 0.36944(2) -0.20660(2)
N4F N 0.27027(3) 0.04840(2) 0.37207(2)
N6F N 0.14039(3) -0.24128(2) -0.27889(2)
H3F H 0.0945(4) -0.2030(3) -0.1337(3)
N5F N 0.22746(3) -0.20252(2) -0.34171(2)
H4F H 0.3452(3) -0.0890(3) -0.3146(3)
S1E S -0.13623(1) 0.12705(2) -0.11052(1)
C2E C 0.14144(4) 0.55430(2) 0.05441(2)
N4E N 0.22973(3) 0.54840(2) 0.12793(2)
H2E H 0.3397(3) 0.4284(2) 0.1608(2)
C4E C 0.35146(4) 0.30933(3) -0.30606(2)
N7C N 0.26270(3) 0.37950(2) -0.30026(2)
H4E H 0.1548(3) 0.4110(3) -0.1854(3)
C2F C 0.35856(4) 0.05430(2) 0.44559(2)
C3F C 0.22051(3) -0.04458(2) 0.38019(2)
Fe1F Fe 0.25000 -0.25000 -0.50000
H1E H 0.0941(3) 0.6117(2) 0.0492(2)
N7E N 0.26270(3) 0.62050(2) 0.19974(2)
H3E H 0.4055(4) 0.2970(3) -0.3663(3)
N4C N 0.22973(3) 0.45160(2) -0.37207(2)
N3F N 0.36461(3) -0.03031(2) 0.49597(2)
H1F H 0.4059(3) 0.1117(2) 0.4508(2)
N2F N 0.27607(3) -0.09299(2) 0.45370(2)
H2F H 0.1603(3) -0.0716(2) 0.3392(2)
N1F N 0.43667(3) -0.26998(2) -0.46704(2)
N1C N 0.06333(3) -0.23002(2) -0.53296(2)
N2F_2 N 0.27607(3) -0.09299(2) -0.54630(2)
N2C N 0.22393(3) -0.40701(2) -0.45370(2)
N5C N 0.27254(3) -0.29748(2) -0.65829(2)
C4C C 0.35146(4) 0.69067(3) 0.19394(2)
C5C C 0.21589(4) 0.63056(2) 0.29340(2)
C2C C 0.14144(4) 0.44570(2) -0.44559(2)
C3C C 0.27949(3) 0.54458(2) -0.38019(2)
Fe1F_2 Fe 0.25000 -0.25000 0.50000
C1F C 0.51855(3) -0.31349(3) -0.43422(2)
C1C C -0.01855(3) -0.18651(3) -0.56578(2)
N3C N 0.13539(3) -0.46969(2) -0.49597(2)
C3C_2 C 0.27949(3) -0.45542(2) -0.38019(2)
N6C N 0.35961(3) -0.25872(2) -0.72111(2)
C5C_2 C 0.21589(4) -0.36944(2) -0.70660(2)
N6C_2 N 0.35961(3) 0.74128(2) 0.27889(2)
H3C H 0.4055(4) 0.7030(3) 0.1337(3)
N5C_2 N 0.27254(3) 0.70252(2) 0.34171(2)
H4C H 0.1548(3) 0.5890(3) 0.3146(3)
N3C_2 N 0.13539(3) 0.53031(2) -0.49597(2)
H1C H 0.0941(3) 0.3883(2) -0.4508(2)
N2C_2 N 0.22393(3) 0.59299(2) -0.45370(2)
H2C H 0.3397(3) 0.5716(2) -0.3392(2)
S1F S 0.63623(1) -0.37295(2) -0.38948(1)
S1C S -0.13623(1) -0.12705(2) -0.61052(1)
C2C_2 C 0.14144(4) -0.55430(2) -0.44559(2)
C4C_2 C 0.35146(4) -0.30933(3) -0.80606(2)
loop_
_geom_bond_atom_site_label_1
_geom_bond_atom_site_label_2
_geom_bond_site_symmetry_1
_geom_bond_site_symmetry_2
Fe1 N1 1_555 1_555
N1 C1 1_555 1_555
C1 S1 1_555 1_555
N2 Fe1 1_555 1_555
N3 N2 1_555 1_555
C2 N3 1_555 1_555
N4 C2 1_555 1_555
C3 N2 1_555 1_555
N5 Fe1 1_555 1_555
N6 N5 1_555 1_555
C4 N6 1_555 1_555
N7 N4 1_555 1_555
C5 N5 1_555 1_555
H1 C2 1_555 1_555
H2 C3 1_555 1_555
H3 C4 1_555 1_555
H4 C5 1_555 1_555
N1E Fe1 1_555 1_555
N2E Fe1 1_555 1_555
N5E Fe1 1_555 1_555
N7F C4 1_555 1_555
C4F N7 1_555 1_555
C5F N7 1_555 1_555
C1E N1E 1_555 1_555
N3E N2E 1_555 1_555
C3E N2E 1_555 1_555
N6E N5E 1_555 1_555
C5E N5E 1_555 1_555
N4F N7F 1_555 1_555
N6F C4F 1_555 1_555
H3F C4F 1_555 1_555
N5F C5F 1_555 1_555
H4F C5F 1_555 1_555
S1E C1E 1_555 1_555
C2E N3E 1_555 1_555
N4E C3E 1_555 1_555
H2E C3E 1_555 1_555
C4E N6E 1_555 1_555
N7C C5E 1_555 1_555
H4E C5E 1_555 1_555
C2F N4F 1_555 1_555
C3F N4F 1_555 1_555
Fe1F N5F 1_555 1_555
H1E C2E 1_555 1_555
N7E N4E 1_555 1_555
H3E C4E 1_555 1_555
N4C N7C 1_555 1_555
N3F C2F 1_555 1_555
H1F C2F 1_555 1_555
N2F C3F 1_555 1_555
H2F C3F 1_555 1_555
N1F Fe1F 1_555 1_555
N1C Fe1F 1_555 1_555
N2F_2 Fe1F 1_555 1_555
N2C Fe1F 1_555 1_555
N5C Fe1F 1_555 1_555
C4C N7E 1_555 1_555
C5C N7E 1_555 1_555
C2C N4C 1_555 1_555
C3C N4C 1_555 1_555
Fe1F_2 N2F 1_555 1_555
C1F N1F 1_555 1_555
C1C N1C 1_555 1_555
N3C N2C 1_555 1_555
C3C_2 N2C 1_555 1_555
N6C N5C 1_555 1_555
C5C_2 N5C 1_555 1_555
N6C_2 C4C 1_555 1_555
H3C C4C 1_555 1_555
N5C_2 C5C 1_555 1_555
H4C C5C 1_555 1_555
N3C_2 C2C 1_555 1_555
H1C C2C 1_555 1_555
N2C_2 C3C 1_555 1_555
H2C C3C 1_555 1_555
S1F C1F 1_555 1_555
S1C C1C 1_555 1_555
C2C_2 N3C 1_555 1_555
C4C_2 N6C 1_555 1_555
N4 C3 1_555 1_555
C5 N7F 1_555 1_555
N6F N5F 1_555 1_555
C2E N4E 1_555 1_555
C4E N7C 1_555 1_555
N3F N2F 1_555 1_555

#END
