
#######################################################################
#
#                 Cambridge Crystallographic Data Centre
#                                CCDC 
#
#######################################################################
#
# If this CIF has been generated from an entry in the Cambridge 
# Structural Database, then it will include bibliographic, chemical, 
# crystal, experimental, refinement or atomic coordinate data resulting 
# from the CCDC's data processing and validation procedures.
#
#######################################################################

data_VOBQOU
_symmetry_cell_setting           monoclinic
_symmetry_space_group_name_H-M   'P 21/c'
_symmetry_Int_Tables_number      14
_space_group_name_Hall           '-P 2ybc'
loop_
_symmetry_equiv_pos_site_id
_symmetry_equiv_pos_as_xyz
1 x,y,z
2 -x,1/2+y,1/2-z
3 -x,-y,-z
4 x,1/2-y,1/2+z
_cell_length_a                   20.6165(13)
_cell_length_b                   21.7877(12)
_cell_length_c                   33.9309(17)
_cell_angle_alpha                90
_cell_angle_beta                 98.215(6)
_cell_angle_gamma                90
_cell_volume                     15084.9
loop_
_atom_site_label
_atom_site_type_symbol
_atom_site_fract_x
_atom_site_fract_y
_atom_site_fract_z
U1 U -0.16507(4) 0.81204(3) 0.05119(2)
O1 O -0.2382(7) 0.7950(5) 0.0128(3)
O2 O -0.0925(6) 0.8272(5) 0.0899(4)
U2 U 0.17028(4) 0.78104(3) 0.21147(2)
O3 O 0.1013(6) 0.8095(6) 0.1735(3)
O4 O 0.2413(6) 0.7520(6) 0.2476(3)
U3 U 0.50902(4) 0.72672(4) 0.37509(2)
O5 O 0.4372(6) 0.7304(5) 0.3347(3)
O6 O 0.5804(7) 0.7242(5) 0.4166(3)
Cd1 Cd 0.00448(7) 0.81569(7) 0.13065(4)
Cd2 Cd 0.33720(7) 0.74099(6) 0.29284(4)
Cd3 Cd 0.67157(7) 0.71406(7) 0.46496(4)
O7 O -0.2073(7) 0.9056(5) 0.0600(4)
O8 O -0.1008(6) 0.7491(5) 0.0188(4)
N1 N -0.2388(7) 0.8042(7) 0.1063(5)
N2 N -0.1702(9) 0.7030(7) 0.0795(5)
C1 C -0.2248(10) 0.9405(10) 0.0900(7)
C2 C -0.2216(12) 1.0044(10) 0.0887(7)
H1 H -0.2071 1.0239 0.0665
C3 C -0.2391(13) 1.0392(11) 0.1190(7)
H2 H -0.2362 1.0826 0.1172
C4 C -0.2602(13) 1.0145(11) 0.1513(8)
H3 H -0.2684 1.0396 0.1730
C5 C -0.2695(12) 0.9522(10) 0.1521(8)
H4 H -0.2893 0.9349 0.1731
C6 C -0.2505(10) 0.9132(8) 0.1228(6)
C7 C -0.2614(10) 0.8486(10) 0.1277(5)
H5 H -0.2866 0.8367 0.1477
C8 C -0.2547(11) 0.7426(9) 0.1158(7)
H6 H -0.2699 0.7424 0.1422
H7 H -0.2914 0.7282 0.0959
C9 C -0.2016(11) 0.7009(9) 0.1166(6)
H8 H -0.2177 0.6587 0.1202
H9 H -0.1683 0.7105 0.1398
C10 C -0.1467(10) 0.6532(9) 0.0667(6)
H10 H -0.1485 0.6184 0.0833
C11 C -0.1187(10) 0.6422(9) 0.0317(6)
C12 C -0.0998(14) 0.5831(11) 0.0232(7)
H11 H -0.1111 0.5507 0.0397
C13 C -0.0661(12) 0.5685(11) -0.0072(8)
H12 H -0.0586 0.5269 -0.0134
C14 C -0.0428(11) 0.6163(12) -0.0292(7)
H13 H -0.0185 0.6074 -0.0503
C15 C -0.0558(12) 0.6768(11) -0.0198(6)
H14 H -0.0409 0.7094 -0.0347
C16 C -0.0913(11) 0.6899(10) 0.0122(6)
O9 O 0.2143(7) 0.8779(6) 0.2156(4)
O10 O 0.1076(6) 0.7044(5) 0.2324(4)
N3 N 0.2484(8) 0.7940(7) 0.1584(5)
N4 N 0.1795(9) 0.6856(8) 0.1678(4)
C17 C 0.2342(9) 0.9185(9) 0.1933(6)
C18 C 0.2351(11) 0.9812(9) 0.2052(7)
H15 H 0.2207 0.9916 0.2297
C19 C 0.2562(11) 1.0277(10) 0.1823(7)
H16 H 0.2558 1.0691 0.1909
C20 C 0.2784(14) 1.0130(11) 0.1457(8)
H17 H 0.2903 1.0443 0.1286
C21 C 0.2822(13) 0.9529(12) 0.1358(7)
H18 H 0.3004 0.9429 0.1124
C22 C 0.2609(10) 0.9050(9) 0.1580(6)
C23 C 0.2667(11) 0.8440(9) 0.1438(6)
H19 H 0.2868 0.8400 0.1204
C24 C 0.2672(11) 0.7338(10) 0.1425(7)
H20 H 0.2885 0.7403 0.1185
H21 H 0.2988 0.7126 0.1628
C25 C 0.2076(12) 0.6956(8) 0.1324(7)
H22 H 0.1758 0.7169 0.1123
H23 H 0.2192 0.6559 0.1211
C26 C 0.1586(12) 0.6300(9) 0.1719(7)
H24 H 0.1622 0.6017 0.1510
C27 C 0.1297(9) 0.6077(8) 0.2067(5)
C28 C 0.1240(10) 0.5432(9) 0.2107(7)
H25 H 0.1369 0.5177 0.1904
C29 C 0.1007(11) 0.5155(11) 0.2425(7)
H26 H 0.0998 0.4721 0.2451
C30 C 0.0789(11) 0.5533(10) 0.2700(8)
H27 H 0.0630 0.5353 0.2923
C31 C 0.0791(11) 0.6136(10) 0.2670(6)
H28 H 0.0600 0.6375 0.2857
C32 C 0.1077(9) 0.6441(9) 0.2359(6)
O11 O 0.5491(7) 0.6389(7) 0.3483(4)
O12 O 0.4478(6) 0.7777(7) 0.4172(4)
N5 N 0.5884(9) 0.7549(8) 0.3267(5)
N6 N 0.5245(9) 0.8435(8) 0.3691(5)
C33 C 0.5670(10) 0.6199(10) 0.3139(7)
C34 C 0.5631(10) 0.5567(10) 0.3042(7)
H29 H 0.5468 0.5275 0.3211
C35 C 0.5842(12) 0.5400(12) 0.2691(7)
H30 H 0.5790 0.4982 0.2612
C36 C 0.6114(12) 0.5781(12) 0.2453(8)
H31 H 0.6253 0.5633 0.2215
C37 C 0.6191(11) 0.6379(10) 0.2554(7)
H32 H 0.6393 0.6652 0.2390
C38 C 0.5967(11) 0.6602(10) 0.2908(6)
C39 C 0.6105(10) 0.7228(10) 0.2988(6)
H33 H 0.6379 0.7432 0.2827
C40 C 0.6128(12) 0.8189(12) 0.3322(7)
H34 H 0.6451 0.8214 0.3567
H35 H 0.6352 0.8307 0.3094
C41 C 0.5597(11) 0.8610(9) 0.3352(6)
H36 H 0.5287 0.8604 0.3100
H37 H 0.5772 0.9032 0.3393
C42 C 0.5095(11) 0.8882(11) 0.3912(6)
H38 H 0.5238 0.9282 0.3853
C43 C 0.4741(11) 0.8825(10) 0.4230(7)
C44 C 0.4701(16) 0.9369(11) 0.4479(8)
H39 H 0.4923 0.9730 0.4416
C45 C 0.4362(13) 0.9388(12) 0.4798(8)
H40 H 0.4313 0.9752 0.4945
C46 C 0.4101(11) 0.8843(11) 0.4885(7)
H41 H 0.3874 0.8837 0.5110
C47 C 0.4127(10) 0.8315(10) 0.4692(7)
H42 H 0.3931 0.7955 0.4780
C48 C 0.4432(11) 0.8301(11) 0.4375(8)
N7 N -0.1151(8) 0.8835(8) 0.0017(5)
C49 C -0.1021(14) 0.8683(12) -0.0314(8)
H43 H -0.1051 0.8257 -0.0372
C50 C -0.0835(15) 0.9063(13) -0.0618(7)
H44 H -0.0765 0.8904 -0.0869
C51 C -0.0761(16) 0.9674(12) -0.0527(8)
H45 H -0.0656 0.9960 -0.0720
C52 C -0.0844(11) 0.9865(10) -0.0149(7)
H46 H -0.0767 1.0280 -0.0070
C53 C -0.1034(10) 0.9458(11) 0.0100(6)
H47 H -0.1096 0.9601 0.0357
N8 N 0.1074(9) 0.8390(7) 0.2644(5)
C54 C 0.0909(11) 0.8981(9) 0.2576(6)
H48 H 0.1087 0.9179 0.2366
C55 C 0.0528(11) 0.9313(10) 0.2769(7)
H49 H 0.0423 0.9727 0.2701
C56 C 0.0282(12) 0.9012(13) 0.3088(8)
H50 H 0.0008 0.9231 0.3242
C57 C 0.0429(11) 0.8427(10) 0.3174(7)
H51 H 0.0280 0.8225 0.3393
C58 C 0.0820(10) 0.8122(9) 0.2923(6)
H52 H 0.0898 0.7695 0.2964
N9 N 0.4507(8) 0.6367(7) 0.4099(5)
C59 C 0.4549(13) 0.5773(10) 0.3950(7)
H53 H 0.4790 0.5700 0.3736
C60 C 0.4249(13) 0.5305(13) 0.4109(8)
H54 H 0.4307 0.4900 0.4017
C61 C 0.3865(14) 0.5397(12) 0.4398(8)
H55 H 0.3628 0.5069 0.4495
C62 C 0.3834(13) 0.5974(11) 0.4543(7)
H56 H 0.3597 0.6050 0.4759
C63 C 0.4143(11) 0.6448(9) 0.4380(6)
H57 H 0.4091 0.6852 0.4476
N10 N 0.0084(9) 0.9251(7) 0.1365(5)
C64 C 0.0608(11) 0.9541(10) 0.1530(5)
H58 H 0.0976 0.9293 0.1627
C65 C 0.0689(11) 1.0163(9) 0.1581(7)
H59 H 0.1094 1.0334 0.1701
C66 C 0.0150(10) 1.0534(9) 0.1447(6)
H60 H 0.0169 1.0968 0.1476
C67 C -0.0415(11) 1.0240(9) 0.1271(6)
H61 H -0.0797 1.0471 0.1178
C68 C -0.0416(11) 0.9610(10) 0.1232(6)
H62 H -0.0804 0.9422 0.1101
N11 N 0.0629(8) 0.8298(7) 0.0749(4)
C69 C 0.1234(14) 0.8498(10) 0.0822(7)
H63 H 0.1417 0.8567 0.1091
C70 C 0.1624(12) 0.8615(10) 0.0528(7)
H64 H 0.2056 0.8769 0.0596
C71 C 0.1369(13) 0.8502(10) 0.0133(7)
H65 H 0.1622 0.8566 -0.0077
C72 C 0.0723(12) 0.8290(10) 0.0060(6)
H66 H 0.0513 0.8211 -0.0203
C73 C 0.0412(12) 0.8204(9) 0.0376(6)
H67 H -0.0024 0.8054 0.0319
N12 N 0.0070(9) 0.7027(9) 0.1214(5)
C74 C 0.0300(12) 0.6777(11) 0.0919(7)
H68 H 0.0430 0.7029 0.0715
C75 C 0.0357(11) 0.6171(12) 0.0897(7)
H69 H 0.0581 0.6003 0.0695
C76 C 0.0109(12) 0.5780(10) 0.1150(7)
H70 H 0.0122 0.5349 0.1113
C77 C -0.0175(10) 0.6043(9) 0.1475(6)
H71 H -0.0327 0.5796 0.1674
C78 C -0.0211(9) 0.6682(9) 0.1480(6)
H72 H -0.0434 0.6880 0.1671
N13 N -0.0550(9) 0.8136(8) 0.1864(5)
C79 C -0.1120(9) 0.8445(10) 0.1838(5)
H73 H -0.1265 0.8670 0.1602
C80 C -0.1478(11) 0.8448(11) 0.2122(6)
H74 H -0.1877 0.8673 0.2089
C81 C -0.1288(12) 0.8127(10) 0.2473(7)
H75 H -0.1549 0.8134 0.2683
C82 C -0.0709(12) 0.7797(11) 0.2511(7)
H76 H -0.0556 0.7565 0.2743
C83 C -0.0367(10) 0.7825(10) 0.2189(6)
H77 H 0.0032 0.7602 0.2206
N14 N 0.3278(10) 0.8455(8) 0.3138(5)
C84 C 0.3766(12) 0.8823(12) 0.3226(7)
H78 H 0.4194 0.8653 0.3253
C85 C 0.3712(16) 0.9432(11) 0.3283(8)
H79 H 0.4091 0.9683 0.3338
C86 C 0.3117(18) 0.9673(13) 0.3262(8)
H80 H 0.3062 1.0100 0.3303
C87 C 0.2581(14) 0.9294(13) 0.3180(7)
H81 H 0.2153 0.9456 0.3181
C88 C 0.2659(11) 0.8694(9) 0.3097(6)
H82 H 0.2289 0.8443 0.3011
N15 N 0.4028(8) 0.7758(8) 0.2460(4)
C89 C 0.4620(10) 0.7507(11) 0.2435(7)
H83 H 0.4761 0.7153 0.2587
C90 C 0.5020(12) 0.7772(14) 0.2186(7)
H84 H 0.5426 0.7584 0.2157
C91 C 0.4832(14) 0.8319(13) 0.1974(8)
H85 H 0.5114 0.8500 0.1809
C92 C 0.4228(12) 0.8590(12) 0.2011(7)
H86 H 0.4101 0.8967 0.1881
C93 C 0.3836(13) 0.8304(12) 0.2232(8)
H87 H 0.3411 0.8468 0.2240
N16 N 0.3435(9) 0.6361(7) 0.2742(5)
C94 C 0.2966(11) 0.6112(12) 0.2479(8)
H88 H 0.2631 0.6367 0.2345
C95 C 0.2958(13) 0.5506(12) 0.2399(8)
H89 H 0.2605 0.5339 0.2221
C96 C 0.3430(13) 0.5140(11) 0.2563(7)
H90 H 0.3429 0.4716 0.2497
C97 C 0.3921(13) 0.5382(10) 0.2830(7)
H91 H 0.4258 0.5126 0.2960
C98 C 0.3924(13) 0.6020(10) 0.2911(7)
H92 H 0.4274 0.6199 0.3086
N17 N 0.2733(7) 0.7180(7) 0.3429(4)
C99 C 0.2118(11) 0.6996(9) 0.3341(6)
H93 H 0.1965 0.6904 0.3070
C100 C 0.1679(10) 0.6928(10) 0.3610(6)
H94 H 0.1238 0.6805 0.3529
C101 C 0.1919(11) 0.7049(8) 0.4008(6)
H95 H 0.1640 0.7007 0.4207
C102 C 0.2559(11) 0.7229(9) 0.4112(6)
H96 H 0.2728 0.7308 0.4383
C103 C 0.2951(11) 0.7293(9) 0.3820(6)
H97 H 0.3393 0.7421 0.3894
N18 N 0.6741(10) 0.8218(7) 0.4749(5)
C104 C 0.7049(14) 0.8468(12) 0.5068(8)
H98 H 0.7222 0.8214 0.5286
C105 C 0.7134(16) 0.9110(11) 0.5100(10)
H99 H 0.7385 0.9275 0.5332
C106 C 0.6879(12) 0.9481(11) 0.4819(8)
H100 H 0.6908 0.9915 0.4837
C107 C 0.6579(18) 0.9190(14) 0.4510(9)
H101 H 0.6400 0.9424 0.4284
C108 C 0.6507(16) 0.8568(11) 0.4492(9)
H102 H 0.6256 0.8398 0.4261
N19 N 0.7391(7) 0.7222(8) 0.4166(4)
C109 C 0.7942(11) 0.7583(10) 0.4228(7)
H103 H 0.8026 0.7810 0.4469
C110 C 0.8382(12) 0.7632(10) 0.3957(6)
H104 H 0.8775 0.7863 0.4018
C111 C 0.8233(11) 0.7339(12) 0.3598(6)
H105 H 0.8515 0.7370 0.3400
C112 C 0.7665(11) 0.6997(9) 0.3530(6)
H106 H 0.7555 0.6781 0.3287
C113 C 0.7265(12) 0.6975(10) 0.3815(7)
H107 H 0.6862 0.6760 0.3753
N20 N 0.6682(9) 0.6063(7) 0.4569(6)
C114 C 0.6134(14) 0.5783(12) 0.4441(9)
H108 H 0.5764 0.6023 0.4337
C115 C 0.6068(17) 0.5153(13) 0.4451(11)
H109 H 0.5656 0.4961 0.4371
C116 C 0.6618(17) 0.4812(11) 0.4580(9)
H110 H 0.6594 0.4377 0.4581
C117 C 0.7172(15) 0.5085(13) 0.4702(8)
H111 H 0.7555 0.4854 0.4792
C118 C 0.7189(13) 0.5709(10) 0.4696(7)
H112 H 0.7594 0.5904 0.4789
N21 N 0.6015(8) 0.6932(8) 0.5122(4)
C119 C 0.5393(11) 0.7131(11) 0.5058(7)
H113 H 0.5248 0.7390 0.4838
C120 C 0.4964(12) 0.6951(12) 0.5319(7)
H114 H 0.4512 0.7051 0.5257
C121 C 0.5169(11) 0.6644(12) 0.5650(7)
H115 H 0.4875 0.6558 0.5835
C122 C 0.5806(11) 0.6451(11) 0.5726(6)
H116 H 0.5956 0.6226 0.5961
C123 C 0.6240(10) 0.6592(10) 0.5449(6)
H117 H 0.6681 0.6450 0.5492
O1C O 0.7618(7) 0.7050(5) 0.5128(3)
Cd3C Cd -0.32843(7) 0.78594(7) -0.03504(4)
C124 C 0.149(2) 0.4010(15) 0.1579(10)
H118 H 0.1247 0.3752 0.1728
N22 N 0.1152(13) 0.4341(12) 0.1261(8)
C125 C 0.2123(16) 0.4032(14) 0.1682(10)
H119 H 0.2322 0.3758 0.1882
C126 C 0.2505(16) 0.4430(13) 0.1517(11)
H120 H 0.2958 0.4479 0.1612
C127 C 0.2170(19) 0.4785(15) 0.1176(10)
H121 H 0.2404 0.5065 0.1035
C128 C 0.1543(19) 0.4702(15) 0.1076(9)
H122 H 0.1341 0.4918 0.0848
N23 N 0.2424(12) 0.5915(10) 0.0329(7)
C129 C 0.1832(13) 0.5667(11) 0.0187(7)
H123 H 0.1783 0.5235 0.0201
C130 C 0.1310(13) 0.6002(13) 0.0027(8)
H124 H 0.0907 0.5808 -0.0072
C131 C 0.1372(15) 0.6619(13) 0.0011(10)
H125 H 0.1000 0.6863 -0.0082
C132 C 0.1966(15) 0.6896(12) 0.0127(8)
H126 H 0.2025 0.7323 0.0089
C133 C 0.2467(13) 0.6536(13) 0.0297(8)
H127 H 0.2870 0.6728 0.0400
N24 N 0.4112(14) 0.5244(10) 0.1374(8)
C134 C 0.3841(16) 0.5668(12) 0.1120(9)
H128 H 0.3630 0.5550 0.0864
C135 C 0.3867(14) 0.6270(13) 0.1226(8)
H129 H 0.3641 0.6565 0.1051
C136 C 0.4212(15) 0.6460(15) 0.1582(9)
H130 H 0.4281 0.6882 0.1647
C137 C 0.4455(14) 0.5988(13) 0.1839(9)
H131 H 0.4640 0.6079 0.2106
C138 C 0.4426(17) 0.5430(13) 0.1716(10)
H132 H 0.4650 0.5128 0.1886
N25 N 0.8027(19) 0.6580(11) 0.2485(9)
C139 C 0.7773(13) 0.6321(13) 0.2112(9)
H133 H 0.7355 0.6431 0.1975
C140 C 0.8172(17) 0.5900(11) 0.1962(7)
H134 H 0.8021 0.5737 0.1706
C141 C 0.8714(17) 0.5715(11) 0.2132(9)
H135 H 0.8939 0.5392 0.2021
C142 C 0.8953(14) 0.5959(14) 0.2449(12)
H136 H 0.9384 0.5839 0.2557
C143 C 0.8663(19) 0.6377(17) 0.2653(9)
H137 H 0.8873 0.6533 0.2900
N26 N 0.6361(12) 0.8867(13) 0.6354(8)
C144 C 0.619(2) 0.9108(17) 0.5996(11)
H138 H 0.6421 0.9464 0.5938
C145 C 0.572(2) 0.8917(17) 0.5701(10)
H139 H 0.5622 0.9133 0.5457
C146 C 0.5388(19) 0.8384(18) 0.5778(12)
H140 H 0.5054 0.8211 0.5589
C147 C 0.557(2) 0.8130(15) 0.6140(10)
H141 H 0.5362 0.7764 0.6208
C148 C 0.6036(17) 0.8377(15) 0.6402(9)
H142 H 0.6139 0.8172 0.6650
N27 N 0.2167(18) 0.9979(10) 0.4072(8)
C149 C 0.2578(16) 0.9517(16) 0.4219(7)
H143 H 0.3012 0.9622 0.4331
C150 C 0.2402(15) 0.8914(15) 0.4215(9)
H144 H 0.2710 0.8606 0.4312
C151 C 0.180(3) 0.8772(16) 0.4074(10)
H145 H 0.1664 0.8356 0.4052
C152 C 0.135(2) 0.926(2) 0.3952(9)
H146 H 0.0901 0.9175 0.3875
C153 C 0.156(2) 0.982(2) 0.3947(10)
H147 H 0.1262 1.0135 0.3847
N28 N 0.3366(12) 0.7005(10) 0.5454(9)
O13 O 0.3469(12) 0.6606(9) 0.5660(7)
O14 O 0.3611(11) 0.7508(11) 0.5587(7)
O15 O 0.3176(15) 0.7036(15) 0.5105(6)
N29 N 0.0090(11) 0.7226(12) 0.3862(7)
O16 O 0.0353(10) 0.6769(9) 0.4052(5)
O17 O -0.0113(8) 0.7088(8) 0.3500(5)
O18 O 0.0070(11) 0.7738(9) 0.3996(6)
N30 N 0.669(2) 0.8205(16) 0.2206(12)
O19 O 0.6712(17) 0.7716(12) 0.2095(9)
O20 O 0.6378(17) 0.8566(15) 0.1957(13)
O21 O 0.696(2) 0.849(2) 0.2484(13)
N31? N 0.692(3) 0.808(2) 0.2328(15)
O22? O 0.7261(19) 0.799(2) 0.2611(9)
O23? O 0.667(3) 0.861(2) 0.229(2)
O24? O 0.678(5) 0.780(3) 0.2023(17)
loop_
_geom_bond_atom_site_label_1
_geom_bond_atom_site_label_2
_geom_bond_site_symmetry_1
_geom_bond_site_symmetry_2
U1 O1 1_555 1_555
O1 Cd3C 1_555 1_555
O2 U1 1_555 1_555
U2 O3 1_555 1_555
O3 Cd1 1_555 1_555
O4 U2 1_555 1_555
U3 O5 1_555 1_555
O5 Cd2 1_555 1_555
O6 U3 1_555 1_555
Cd1 O2 1_555 1_555
Cd2 O4 1_555 1_555
Cd3 O6 1_555 1_555
O7 U1 1_555 1_555
O8 U1 1_555 1_555
N1 U1 1_555 1_555
N2 U1 1_555 1_555
C1 O7 1_555 1_555
C2 C1 1_555 1_555
H1 C2 1_555 1_555
C3 C2 1_555 1_555
H2 C3 1_555 1_555
C4 C3 1_555 1_555
H3 C4 1_555 1_555
C5 C4 1_555 1_555
H4 C5 1_555 1_555
C6 C1 1_555 1_555
C7 N1 1_555 1_555
H5 C7 1_555 1_555
C8 N1 1_555 1_555
H6 C8 1_555 1_555
H7 C8 1_555 1_555
C9 N2 1_555 1_555
H8 C9 1_555 1_555
H9 C9 1_555 1_555
C10 N2 1_555 1_555
H10 C10 1_555 1_555
C11 C10 1_555 1_555
C12 C11 1_555 1_555
H11 C12 1_555 1_555
C13 C12 1_555 1_555
H12 C13 1_555 1_555
C14 C13 1_555 1_555
H13 C14 1_555 1_555
C15 C14 1_555 1_555
H14 C15 1_555 1_555
C16 O8 1_555 1_555
O9 U2 1_555 1_555
O10 U2 1_555 1_555
N3 U2 1_555 1_555
N4 U2 1_555 1_555
C17 O9 1_555 1_555
C18 C17 1_555 1_555
H15 C18 1_555 1_555
C19 C18 1_555 1_555
H16 C19 1_555 1_555
C20 C19 1_555 1_555
H17 C20 1_555 1_555
C21 C20 1_555 1_555
H18 C21 1_555 1_555
C22 C17 1_555 1_555
C23 N3 1_555 1_555
H19 C23 1_555 1_555
C24 N3 1_555 1_555
H20 C24 1_555 1_555
H21 C24 1_555 1_555
C25 N4 1_555 1_555
H22 C25 1_555 1_555
H23 C25 1_555 1_555
C26 N4 1_555 1_555
H24 C26 1_555 1_555
C27 C26 1_555 1_555
C28 C27 1_555 1_555
H25 C28 1_555 1_555
C29 C28 1_555 1_555
H26 C29 1_555 1_555
C30 C29 1_555 1_555
H27 C30 1_555 1_555
C31 C30 1_555 1_555
H28 C31 1_555 1_555
C32 O10 1_555 1_555
O11 U3 1_555 1_555
O12 U3 1_555 1_555
N5 U3 1_555 1_555
N6 U3 1_555 1_555
C33 O11 1_555 1_555
C34 C33 1_555 1_555
H29 C34 1_555 1_555
C35 C34 1_555 1_555
H30 C35 1_555 1_555
C36 C35 1_555 1_555
H31 C36 1_555 1_555
C37 C36 1_555 1_555
H32 C37 1_555 1_555
C38 C33 1_555 1_555
C39 N5 1_555 1_555
H33 C39 1_555 1_555
C40 N5 1_555 1_555
H34 C40 1_555 1_555
H35 C40 1_555 1_555
C41 N6 1_555 1_555
H36 C41 1_555 1_555
H37 C41 1_555 1_555
C42 N6 1_555 1_555
H38 C42 1_555 1_555
C43 C42 1_555 1_555
C44 C43 1_555 1_555
H39 C44 1_555 1_555
C45 C44 1_555 1_555
H40 C45 1_555 1_555
C46 C45 1_555 1_555
H41 C46 1_555 1_555
C47 C46 1_555 1_555
H42 C47 1_555 1_555
C48 O12 1_555 1_555
N7 U1 1_555 1_555
C49 N7 1_555 1_555
H43 C49 1_555 1_555
C50 C49 1_555 1_555
H44 C50 1_555 1_555
C51 C50 1_555 1_555
H45 C51 1_555 1_555
C52 C51 1_555 1_555
H46 C52 1_555 1_555
C53 N7 1_555 1_555
H47 C53 1_555 1_555
N8 U2 1_555 1_555
C54 N8 1_555 1_555
H48 C54 1_555 1_555
C55 C54 1_555 1_555
H49 C55 1_555 1_555
C56 C55 1_555 1_555
H50 C56 1_555 1_555
C57 C56 1_555 1_555
H51 C57 1_555 1_555
C58 N8 1_555 1_555
H52 C58 1_555 1_555
N9 U3 1_555 1_555
C59 N9 1_555 1_555
H53 C59 1_555 1_555
C60 C59 1_555 1_555
H54 C60 1_555 1_555
C61 C60 1_555 1_555
H55 C61 1_555 1_555
C62 C61 1_555 1_555
H56 C62 1_555 1_555
C63 N9 1_555 1_555
H57 C63 1_555 1_555
N10 Cd1 1_555 1_555
C64 N10 1_555 1_555
H58 C64 1_555 1_555
C65 C64 1_555 1_555
H59 C65 1_555 1_555
C66 C65 1_555 1_555
H60 C66 1_555 1_555
C67 C66 1_555 1_555
H61 C67 1_555 1_555
C68 N10 1_555 1_555
H62 C68 1_555 1_555
N11 Cd1 1_555 1_555
C69 N11 1_555 1_555
H63 C69 1_555 1_555
C70 C69 1_555 1_555
H64 C70 1_555 1_555
C71 C70 1_555 1_555
H65 C71 1_555 1_555
C72 C71 1_555 1_555
H66 C72 1_555 1_555
C73 N11 1_555 1_555
H67 C73 1_555 1_555
N12 Cd1 1_555 1_555
C74 N12 1_555 1_555
H68 C74 1_555 1_555
C75 C74 1_555 1_555
H69 C75 1_555 1_555
C76 C75 1_555 1_555
H70 C76 1_555 1_555
C77 C76 1_555 1_555
H71 C77 1_555 1_555
C78 N12 1_555 1_555
H72 C78 1_555 1_555
N13 Cd1 1_555 1_555
C79 N13 1_555 1_555
H73 C79 1_555 1_555
C80 C79 1_555 1_555
H74 C80 1_555 1_555
C81 C80 1_555 1_555
H75 C81 1_555 1_555
C82 C81 1_555 1_555
H76 C82 1_555 1_555
C83 N13 1_555 1_555
H77 C83 1_555 1_555
N14 Cd2 1_555 1_555
C84 N14 1_555 1_555
H78 C84 1_555 1_555
C85 C84 1_555 1_555
H79 C85 1_555 1_555
C86 C85 1_555 1_555
H80 C86 1_555 1_555
C87 C86 1_555 1_555
H81 C87 1_555 1_555
C88 N14 1_555 1_555
H82 C88 1_555 1_555
N15 Cd2 1_555 1_555
C89 N15 1_555 1_555
H83 C89 1_555 1_555
C90 C89 1_555 1_555
H84 C90 1_555 1_555
C91 C90 1_555 1_555
H85 C91 1_555 1_555
C92 C91 1_555 1_555
H86 C92 1_555 1_555
C93 N15 1_555 1_555
H87 C93 1_555 1_555
N16 Cd2 1_555 1_555
C94 N16 1_555 1_555
H88 C94 1_555 1_555
C95 C94 1_555 1_555
H89 C95 1_555 1_555
C96 C95 1_555 1_555
H90 C96 1_555 1_555
C97 C96 1_555 1_555
H91 C97 1_555 1_555
C98 N16 1_555 1_555
H92 C98 1_555 1_555
N17 Cd2 1_555 1_555
C99 N17 1_555 1_555
H93 C99 1_555 1_555
C100 C99 1_555 1_555
H94 C100 1_555 1_555
C101 C100 1_555 1_555
H95 C101 1_555 1_555
C102 C101 1_555 1_555
H96 C102 1_555 1_555
C103 N17 1_555 1_555
H97 C103 1_555 1_555
N18 Cd3 1_555 1_555
C104 N18 1_555 1_555
H98 C104 1_555 1_555
C105 C104 1_555 1_555
H99 C105 1_555 1_555
C106 C105 1_555 1_555
H100 C106 1_555 1_555
C107 C106 1_555 1_555
H101 C107 1_555 1_555
C108 N18 1_555 1_555
H102 C108 1_555 1_555
N19 Cd3 1_555 1_555
C109 N19 1_555 1_555
H103 C109 1_555 1_555
C110 C109 1_555 1_555
H104 C110 1_555 1_555
C111 C110 1_555 1_555
H105 C111 1_555 1_555
C112 C111 1_555 1_555
H106 C112 1_555 1_555
C113 N19 1_555 1_555
H107 C113 1_555 1_555
N20 Cd3 1_555 1_555
C114 N20 1_555 1_555
H108 C114 1_555 1_555
C115 C114 1_555 1_555
H109 C115 1_555 1_555
C116 C115 1_555 1_555
H110 C116 1_555 1_555
C117 C116 1_555 1_555
H111 C117 1_555 1_555
C118 N20 1_555 1_555
H112 C118 1_555 1_555
N21 Cd3 1_555 1_555
C119 N21 1_555 1_555
H113 C119 1_555 1_555
C120 C119 1_555 1_555
H114 C120 1_555 1_555
C121 C120 1_555 1_555
H115 C121 1_555 1_555
C122 C121 1_555 1_555
H116 C122 1_555 1_555
C123 N21 1_555 1_555
H117 C123 1_555 1_555
C124 H118 1_555 1_555
N22 C124 1_555 1_555
C125 C124 1_555 1_555
H119 C125 1_555 1_555
C126 C125 1_555 1_555
H120 C126 1_555 1_555
C127 C126 1_555 1_555
H121 C127 1_555 1_555
C128 N22 1_555 1_555
H122 C128 1_555 1_555
N23 C129 1_555 1_555
C129 H123 1_555 1_555
C130 C129 1_555 1_555
H124 C130 1_555 1_555
C131 C130 1_555 1_555
H125 C131 1_555 1_555
C132 C131 1_555 1_555
H126 C132 1_555 1_555
C133 N23 1_555 1_555
H127 C133 1_555 1_555
N24 C134 1_555 1_555
C134 H128 1_555 1_555
C135 C134 1_555 1_555
H129 C135 1_555 1_555
C136 C135 1_555 1_555
H130 C136 1_555 1_555
C137 C136 1_555 1_555
H131 C137 1_555 1_555
C138 N24 1_555 1_555
H132 C138 1_555 1_555
N25 C139 1_555 1_555
C139 H133 1_555 1_555
C140 C139 1_555 1_555
H134 C140 1_555 1_555
C141 C140 1_555 1_555
H135 C141 1_555 1_555
C142 C141 1_555 1_555
H136 C142 1_555 1_555
C143 N25 1_555 1_555
H137 C143 1_555 1_555
N26 C144 1_555 1_555
C144 H138 1_555 1_555
C145 C144 1_555 1_555
H139 C145 1_555 1_555
C146 C145 1_555 1_555
H140 C146 1_555 1_555
C147 C146 1_555 1_555
H141 C147 1_555 1_555
C148 N26 1_555 1_555
H142 C148 1_555 1_555
N27 C149 1_555 1_555
C149 H143 1_555 1_555
C150 C149 1_555 1_555
H144 C150 1_555 1_555
C151 C150 1_555 1_555
H145 C151 1_555 1_555
C152 C151 1_555 1_555
H146 C152 1_555 1_555
C153 N27 1_555 1_555
H147 C153 1_555 1_555
N28 O13 1_555 1_555
O14 N28 1_555 1_555
O15 N28 1_555 1_555
N29 O16 1_555 1_555
O17 N29 1_555 1_555
O18 N29 1_555 1_555
N30 O19 1_555 1_555
O20 N30 1_555 1_555
O21 N30 1_555 1_555
O1C Cd3 1_555 1_555
C5 C6 1_555 1_555
C6 C7 1_555 1_555
C8 C9 1_555 1_555
C11 C16 1_555 1_555
C15 C16 1_555 1_555
C21 C22 1_555 1_555
C22 C23 1_555 1_555
C24 C25 1_555 1_555
C27 C32 1_555 1_555
C31 C32 1_555 1_555
C37 C38 1_555 1_555
C38 C39 1_555 1_555
C40 C41 1_555 1_555
C43 C48 1_555 1_555
C47 C48 1_555 1_555
C52 C53 1_555 1_555
C57 C58 1_555 1_555
C62 C63 1_555 1_555
C67 C68 1_555 1_555
C72 C73 1_555 1_555
C77 C78 1_555 1_555
C82 C83 1_555 1_555
C87 C88 1_555 1_555
C92 C93 1_555 1_555
C97 C98 1_555 1_555
C102 C103 1_555 1_555
C107 C108 1_555 1_555
C112 C113 1_555 1_555
C117 C118 1_555 1_555
C122 C123 1_555 1_555
C127 C128 1_555 1_555
C132 C133 1_555 1_555
C137 C138 1_555 1_555
C142 C143 1_555 1_555
C147 C148 1_555 1_555
C152 C153 1_555 1_555

#END
