
#######################################################################
#
#                 Cambridge Crystallographic Data Centre
#                                CCDC 
#
#######################################################################
#
# If this CIF has been generated from an entry in the Cambridge 
# Structural Database, then it will include bibliographic, chemical, 
# crystal, experimental, refinement or atomic coordinate data resulting 
# from the CCDC's data processing and validation procedures.
#
#######################################################################

data_VOBQEK
_symmetry_cell_setting           triclinic
_symmetry_space_group_name_H-M   'P -1'
_symmetry_Int_Tables_number      2
_space_group_name_Hall           '-P 1'
loop_
_symmetry_equiv_pos_site_id
_symmetry_equiv_pos_as_xyz
1 x,y,z
2 -x,-y,-z
_cell_length_a                   9.806
_cell_length_b                   9.998
_cell_length_c                   10.674
_cell_angle_alpha                99.98
_cell_angle_beta                 111.38
_cell_angle_gamma                108.56
_cell_volume                     872.754
loop_
_atom_site_label
_atom_site_type_symbol
_atom_site_fract_x
_atom_site_fract_y
_atom_site_fract_z
C1 C 0.2180(3) 0.0330(2) 0.3183(2)
C2 C 0.3644(3) 0.0159(2) 0.4129(2)
C3 C 0.4570(3) -0.0266(3) 0.3565(2)
H1 H 0.4282 -0.0446 0.2599
C4 C 0.4084(3) 0.0425(3) 0.5579(2)
H2 H 0.3471 0.0709 0.5967
C5 C 0.0160(3) 0.3096(3) 0.1744(3)
C6 C 0.0108(3) 0.4088(2) 0.0846(3)
C7 C -0.0862(3) 0.3468(3) -0.0613(3)
H3 H -0.1448 0.2439 -0.1024
C8 C 0.0965(3) 0.5630(3) 0.1459(3)
H4 H 0.1607 0.6055 0.2438
C9 C -0.2551(3) -0.1989(2) 0.0931(2)
C10 C -0.3824(3) -0.3552(2) 0.0446(2)
C11 C -0.3951(3) -0.4684(3) -0.0601(3)
H5 H -0.3253 -0.4476 -0.1012
C12 C -0.4891(3) -0.3876(3) 0.1041(3)
H6 H -0.4825 -0.3122 0.1737
C13 C 0.0793(4) 0.3090(3) 0.6210(3)
H7 H 0.0733 0.3092 0.7088
H8 H 0.0567 0.3890 0.5934
H9 H 0.1854 0.3225 0.6336
C14 C -0.3628(4) 0.2053(5) 0.1408(3)
H10 H -0.4350 0.2424 0.1595
H11 H -0.4240 0.1098 0.0671
H12 H -0.2987 0.2741 0.1105
O1 O 0.1211(2) 0.0435(2) 0.36892(18)
O2 O 0.19940(19) 0.03499(18) 0.19674(17)
O3 O -0.05511(19) 0.16831(17) 0.11155(17)
O4 O 0.0788(2) 0.36152(19) 0.30721(18)
O5 O -0.16858(19) -0.17398(18) 0.03041(18)
O6 O -0.2458(2) -0.10422(18) 0.19411(19)
O7 O -0.2611(2) 0.1903(2) 0.26611(19)
O8 O -0.0341(2) 0.1722(2) 0.51445(18)
Mn1 Mn 0.0000 0.0000 0.0000
Mn2 Mn -0.07009(4) 0.11316(4) 0.29804(4)
H13 H -0.259(3) 0.244(3) 0.340(2)
H14 H -0.066(3) 0.103(2) 0.549(3)
C1A C 0.7820(3) -0.0330(2) 0.6817(2)
C2A C 0.6356(3) -0.0159(2) 0.5871(2)
C3A C 0.5430(3) 0.0266(3) 0.6435(2)
H1A H 0.5718 0.0446 0.7401
C4A C 0.5916(3) -0.0425(3) 0.4421(2)
H2A H 0.6529 -0.0709 0.4033
O1A O 0.8789(2) -0.0435(2) 0.63108(18)
O2A O 0.80060(19) -0.03499(18) 0.80326(17)
C5A C -0.0160(3) 0.6904(3) -0.1744(3)
C6A C -0.0108(3) 0.5912(2) -0.0846(3)
C7A C 0.0862(3) 0.6532(3) 0.0613(3)
H3A H 0.1448 0.7561 0.1024
C8A C -0.0965(3) 0.4370(3) -0.1459(3)
H4A H -0.1607 0.3945 -0.2438
O3A O 0.05511(19) 0.83169(17) -0.11155(17)
O4A O -0.0788(2) 0.63848(19) -0.30721(18)
C9A C -0.7449(3) -0.8011(2) -0.0931(2)
C10A C -0.6176(3) -0.6448(2) -0.0446(2)
C11A C -0.6049(3) -0.5316(3) 0.0601(3)
H5A H -0.6747 -0.5524 0.1012
C12A C -0.5109(3) -0.6124(3) -0.1041(3)
H6A H -0.5175 -0.6878 -0.1737
O5A O -0.83142(19) -0.82602(18) -0.03041(18)
O6A O -0.7542(2) -0.89578(18) -0.19411(19)
C13A C -1.0793(4) -1.3090(3) -0.6210(3)
H7A H -1.0733 -1.3092 -0.7088
H8A H -1.0567 -1.3890 -0.5934
H9A H -1.1854 -1.3225 -0.6336
C14A C -0.6372(4) -1.2053(5) -0.1408(3)
H10A H -0.5650 -1.2424 -0.1595
H11A H -0.5760 -1.1098 -0.0671
H12A H -0.7013 -1.2741 -0.1105
O7A O -0.7389(2) -1.1903(2) -0.26611(19)
O8A O -0.9659(2) -1.1722(2) -0.51445(18)
Mn2A Mn -0.92991(4) -1.11316(4) -0.29804(4)
H13A H -0.741(3) -1.244(3) -0.340(2)
H14A H -0.934(3) -1.103(2) -0.549(3)
O1A_2 O -1.1211(2) -1.0435(2) -0.36892(18)
O2A_2 O -0.19940(19) -0.03499(18) -0.19674(17)
O3A_2 O -0.94489(19) -1.16831(17) -0.11155(17)
O3A_3 O 0.05511(19) -0.16831(17) -0.11155(17)
O4A_2 O -1.0788(2) -1.36152(19) -0.30721(18)
O5A_2 O 0.16858(19) 0.17398(18) -0.03041(18)
Mn1_2 Mn -1.0000 -1.0000 0.0000
Mn1_3 Mn 0.0000 1.0000 0.0000
Mn1_4 Mn 1.0000 0.0000 1.0000
Mn2A_2 Mn 0.07009(4) 0.88684(4) -0.29804(4)
Mn2A_3 Mn 1.07009(4) -0.11316(4) 0.70196(4)
C15 C -0.4260(5) 0.3844(4) 0.4250(5)
H15 H -0.4155 0.4761 0.4049
H16 H -0.4590 0.3825 0.4992
H17 H -0.5052 0.3016 0.3407
O9 O -0.2770(3) 0.3742(2) 0.4692(2)
H18 H -0.199(3) 0.456(2) 0.540(2)
loop_
_geom_bond_atom_site_label_1
_geom_bond_atom_site_label_2
_geom_bond_site_symmetry_1
_geom_bond_site_symmetry_2
C1 C2 1_555 1_555
C2 C3 1_555 1_555
C3 H1 1_555 1_555
C4 C2 1_555 1_555
H2 C4 1_555 1_555
C5 C6 1_555 1_555
C6 C7 1_555 1_555
C7 H3 1_555 1_555
C8 C6 1_555 1_555
H4 C8 1_555 1_555
C9 C10 1_555 1_555
C10 C11 1_555 1_555
C11 H5 1_555 1_555
C12 C10 1_555 1_555
H6 C12 1_555 1_555
C13 H7 1_555 1_555
H8 C13 1_555 1_555
H9 C13 1_555 1_555
C14 H10 1_555 1_555
H11 C14 1_555 1_555
H12 C14 1_555 1_555
O1 C1 1_555 1_555
O2 C1 1_555 1_555
O3 C5 1_555 1_555
O4 C5 1_555 1_555
O5 C9 1_555 1_555
O6 C9 1_555 1_555
O7 C14 1_555 1_555
O8 C13 1_555 1_555
Mn1 O2 1_555 1_555
Mn2 O1 1_555 1_555
H13 O7 1_555 1_555
H14 O8 1_555 1_555
C15 H15 1_555 1_555
H16 C15 1_555 1_555
H17 C15 1_555 1_555
O9 C15 1_555 1_555
H18 O9 1_555 1_555
C1A C2A 1_555 1_555
C2A C3A 1_555 1_555
C3A C4 1_555 1_555
H1A C3A 1_555 1_555
C4A C3 1_555 1_555
H2A C4A 1_555 1_555
O1A C1A 1_555 1_555
O2A C1A 1_555 1_555
C5A C6A 1_555 1_555
C6A C7A 1_555 1_555
C7A C8 1_555 1_555
H3A C7A 1_555 1_555
C8A C7 1_555 1_555
H4A C8A 1_555 1_555
O3A C5A 1_555 1_555
O4A C5A 1_555 1_555
C9A C10A 1_555 1_555
C10A C11A 1_555 1_555
C11A C12 1_555 1_555
H5A C11A 1_555 1_555
C12A C11 1_555 1_555
H6A C12A 1_555 1_555
O5A C9A 1_555 1_555
O6A C9A 1_555 1_555
C13A H7A 1_555 1_555
H8A C13A 1_555 1_555
H9A C13A 1_555 1_555
C14A H10A 1_555 1_555
H11A C14A 1_555 1_555
H12A C14A 1_555 1_555
O7A C14A 1_555 1_555
O8A C13A 1_555 1_555
Mn2A O6A 1_555 1_555
H13A O7A 1_555 1_555
H14A O8A 1_555 1_555
O1A_2 Mn2A 1_555 1_555
O2A_2 Mn1 1_555 1_555
O3A_2 Mn2A 1_555 1_555
O3A_3 Mn1 1_555 1_555
O4A_2 Mn2A 1_555 1_555
O5A_2 Mn1 1_555 1_555
Mn1_2 O5A 1_555 1_555
Mn1_3 O3A 1_555 1_555
Mn1_4 O2A 1_555 1_555
Mn2A_2 O3A 1_555 1_555
Mn2A_3 O1A 1_555 1_555
O3 Mn1 1_555 1_555
O3 Mn2 1_555 1_555
O4 Mn2 1_555 1_555
O5 Mn1 1_555 1_555
O6 Mn2 1_555 1_555
O7 Mn2 1_555 1_555
O8 Mn2 1_555 1_555
C2A C4A 1_555 1_555
C6A C8A 1_555 1_555
O4A Mn2A_2 1_555 1_555
C10A C12A 1_555 1_555
O7A Mn2A 1_555 1_555
O8A Mn2A 1_555 1_555
O3A_2 Mn1_2 1_555 1_555

#END
