
#######################################################################
#
#                 Cambridge Crystallographic Data Centre
#                                CCDC 
#
#######################################################################
#
# If this CIF has been generated from an entry in the Cambridge 
# Structural Database, then it will include bibliographic, chemical, 
# crystal, experimental, refinement or atomic coordinate data resulting 
# from the CCDC's data processing and validation procedures.
#
#######################################################################

data_VOBRUB
_symmetry_cell_setting           monoclinic
_symmetry_space_group_name_H-M   'C 2/c'
_symmetry_Int_Tables_number      15
_space_group_name_Hall           '-C 2yn'
loop_
_symmetry_equiv_pos_site_id
_symmetry_equiv_pos_as_xyz
1 x,y,z
2 -x,y,1/2-z
3 1/2+x,1/2+y,z
4 1/2-x,1/2+y,1/2-z
5 -x,-y,-z
6 x,-y,1/2+z
7 1/2-x,1/2-y,-z
8 1/2+x,1/2-y,1/2+z
_cell_length_a                   17.7637(17)
_cell_length_b                   11.7135(12)
_cell_length_c                   11.2193(12)
_cell_angle_alpha                90
_cell_angle_beta                 109.508(5)
_cell_angle_gamma                90
_cell_volume                     2200.45
loop_
_atom_site_label
_atom_site_type_symbol
_atom_site_fract_x
_atom_site_fract_y
_atom_site_fract_z
Cu1 Cu 0.0000 -0.13528(4) 0.2500
Na1 Na 0.0000 0.0000 0.5000
O1 O 0.07353(10) -0.01557(17) 0.22779(16)
O2 O 0.11396(11) -0.04738(19) 0.43388(17)
O3 O 0.44317(12) 0.3087(2) 0.47574(19)
O4 O 0.43194(11) 0.24915(17) 0.2809(2)
C1 C 0.20056(14) 0.0557(2) 0.3501(2)
C2 C 0.22059(16) 0.0791(3) 0.2432(3)
H1 H 0.1877 0.0538 0.1645
C3 C 0.28932(17) 0.1399(3) 0.2528(3)
H2 H 0.3028 0.1534 0.1808
C4 C 0.33833(15) 0.1808(2) 0.3691(2)
C5 C 0.31828(18) 0.1561(3) 0.4758(3)
H3 H 0.3507 0.1823 0.5545
C6 C 0.25060(18) 0.0929(3) 0.4667(3)
H4 H 0.2387 0.0755 0.5393
C7 C 0.12446(14) -0.0068(2) 0.3387(2)
C8 C 0.41069(15) 0.2532(2) 0.3796(3)
O1A O -0.07353(10) -0.01557(17) 0.27221(16)
O2A O -0.11396(11) -0.04738(19) 0.06612(17)
O3A O -0.44317(12) 0.3087(2) 0.02426(19)
O4A O -0.43194(11) 0.24915(17) 0.2191(2)
C1A C -0.20056(14) 0.0557(2) 0.1499(2)
C2A C -0.22059(16) 0.0791(3) 0.2568(3)
H1A H -0.1877 0.0538 0.3355
C3A C -0.28932(17) 0.1399(3) 0.2472(3)
H2A H -0.3028 0.1534 0.3192
C4A C -0.33833(15) 0.1808(2) 0.1309(2)
C5A C -0.31828(18) 0.1561(3) 0.0242(3)
H3A H -0.3507 0.1823 -0.0545
C6A C -0.25060(18) 0.0929(3) 0.0333(3)
H4A H -0.2387 0.0755 -0.0393
C7A C -0.12446(14) -0.0068(2) 0.1613(2)
C8A C -0.41069(15) 0.2532(2) 0.1204(3)
Cu1B Cu -0.5000 0.36472(4) 0.2500
Cu1B_2 Cu 0.5000 0.36472(4) 0.2500
Na1A Na 0.0000 0.0000 0.0000
Na1B Na 0.5000 0.5000 0.5000
Na1C Na -0.5000 0.5000 0.0000
O1E O 0.07353(10) 0.01557(17) 0.72779(16)
O2D O -0.11396(11) 0.04738(19) 0.56612(17)
O3B O -0.05683(12) -0.1913(2) 0.47574(19)
O3F O 0.05683(12) 0.1913(2) 0.52426(19)
O4B O -0.06806(11) -0.25085(17) 0.2809(2)
O4C O 0.06806(11) -0.25085(17) 0.2191(2)
N1 N 0.0446(2) 0.3595(3) 0.2054(3)
C9 C 0.0279(3) 0.4696(4) 0.2233(6)
H5 H 0.0515 0.5337 0.2019
C10 C 0.0000 0.2956(5) 0.2500
H6 H 0.0000 0.2162 0.2500
C11 C 0.1037(4) 0.3188(8) 0.1556(6)
H7 H 0.1546 0.3334 0.2210
H8 H 0.0975 0.2365 0.1511
C12 C 0.1136(8) 0.3480(10) 0.0514(11)
H9 H 0.1562 0.3040 0.0398
H10 H 0.1267 0.4277 0.0543
H11 H 0.0652 0.3342 -0.0178
N1A N -0.0446(2) 0.3595(3) 0.2946(3)
C9A C -0.0279(3) 0.4696(4) 0.2767(6)
H5A H -0.0515 0.5337 0.2981
C11A C -0.1037(4) 0.3188(8) 0.3444(6)
H7A H -0.1546 0.3334 0.2790
H8A H -0.0975 0.2365 0.3489
C12A C -0.1136(8) 0.3480(10) 0.4486(11)
H9A H -0.1562 0.3040 0.4602
H10A H -0.1267 0.4277 0.4457
H11A H -0.0652 0.3342 0.5178
loop_
_geom_bond_atom_site_label_1
_geom_bond_atom_site_label_2
_geom_bond_site_symmetry_1
_geom_bond_site_symmetry_2
Cu1 O1 1_555 1_555
Na1 O2 1_555 1_555
O1 C7 1_555 1_555
O2 Cu1 1_555 1_555
O3 C8 1_555 1_555
O4 C8 1_555 1_555
C1 C2 1_555 1_555
C2 H1 1_555 1_555
C3 C2 1_555 1_555
H2 C3 1_555 1_555
C4 C3 1_555 1_555
C5 C4 1_555 1_555
H3 C5 1_555 1_555
C6 C1 1_555 1_555
H4 C6 1_555 1_555
C7 O2 1_555 1_555
C8 C4 1_555 1_555
N1 C9 1_555 1_555
C9 H5 1_555 1_555
C10 N1 1_555 1_555
H6 C10 1_555 1_555
C11 N1 1_555 1_555
H7 C11 1_555 1_555
H8 C11 1_555 1_555
C12 C11 1_555 1_555
H9 C12 1_555 1_555
H10 C12 1_555 1_555
H11 C12 1_555 1_555
O1A Cu1 1_555 1_555
O2A Cu1 1_555 1_555
O3A C8A 1_555 1_555
O4A C8A 1_555 1_555
C1A C2A 1_555 1_555
C2A H1A 1_555 1_555
C3A C2A 1_555 1_555
H2A C3A 1_555 1_555
C4A C3A 1_555 1_555
C5A C4A 1_555 1_555
H3A C5A 1_555 1_555
C6A C1A 1_555 1_555
H4A C6A 1_555 1_555
C7A O1A 1_555 1_555
C8A C4A 1_555 1_555
Cu1B O4A 1_555 1_555
Cu1B_2 O4 1_555 1_555
Na1A O1 1_555 1_555
Na1B O3 1_555 1_555
Na1C O3A 1_555 1_555
O1E Na1 1_555 1_555
O2D Na1 1_555 1_555
O3B Na1 1_555 1_555
O3F Na1 1_555 1_555
O4B Cu1 1_555 1_555
O4C Cu1 1_555 1_555
N1A C10 1_555 1_555
C9A C9 1_555 1_555
H5A C9A 1_555 1_555
C11A N1A 1_555 1_555
H7A C11A 1_555 1_555
H8A C11A 1_555 1_555
C12A C11A 1_555 1_555
H9A C12A 1_555 1_555
H10A C12A 1_555 1_555
H11A C12A 1_555 1_555
Na1 O1A 1_555 1_555
C1 C7 1_555 1_555
C5 C6 1_555 1_555
O2A C7A 1_555 1_555
O2A Na1A 1_555 1_555
C1A C7A 1_555 1_555
C5A C6A 1_555 1_555
N1A C9A 1_555 1_555

#END
