
#######################################################################
#
#                 Cambridge Crystallographic Data Centre
#                                CCDC 
#
#######################################################################
#
# If this CIF has been generated from an entry in the Cambridge 
# Structural Database, then it will include bibliographic, chemical, 
# crystal, experimental, refinement or atomic coordinate data resulting 
# from the CCDC's data processing and validation procedures.
#
#######################################################################

data_VOBSEM
_symmetry_cell_setting           monoclinic
_symmetry_space_group_name_H-M   'P 21/n'
_symmetry_Int_Tables_number      14
_space_group_name_Hall           '-P 2yn'
loop_
_symmetry_equiv_pos_site_id
_symmetry_equiv_pos_as_xyz
1 x,y,z
2 1/2-x,1/2+y,1/2-z
3 -x,-y,-z
4 1/2+x,1/2-y,1/2+z
_cell_length_a                   8.618(2)
_cell_length_b                   29.035(6)
_cell_length_c                   10.673(3)
_cell_angle_alpha                90
_cell_angle_beta                 111.284(4)
_cell_angle_gamma                90
_cell_volume                     2488.48
loop_
_atom_site_label
_atom_site_type_symbol
_atom_site_fract_x
_atom_site_fract_y
_atom_site_fract_z
Zn1 Zn 0.32006(4) 0.096135(12) 0.85637(3)
O1 O 0.2438(3) 0.03442(7) 0.8849(2)
O2 O 0.1022(3) 0.04053(8) 0.6673(2)
O3 O -0.6692(3) -0.35367(8) 0.6556(2)
O4 O -0.6047(3) -0.34294(8) 0.8736(2)
N1 N -0.2348(4) -0.17306(10) 0.7106(3)
N2 N -0.1787(4) -0.14960(10) 0.8108(3)
C1 C 0.1370(4) 0.01942(10) 0.7749(3)
C2 C 0.0528(3) -0.02532(10) 0.7805(3)
C3 C -0.0397(4) -0.04765(11) 0.6624(3)
H1 H -0.0499 -0.0349 0.5799
C4 C -0.1164(4) -0.08872(11) 0.6676(3)
H2 H -0.1776 -0.1040 0.5885
C5 C -0.1022(4) -0.10750(11) 0.7918(3)
C6 C -0.0143(4) -0.08428(12) 0.9073(3)
H3 H -0.0087 -0.0962 0.9898
C7 C 0.0651(4) -0.04400(11) 0.9035(3)
H4 H 0.1274 -0.0291 0.9830
C8 C -0.5969(4) -0.33269(11) 0.7633(3)
C9 C -0.4908(4) -0.29198(11) 0.7544(3)
C10 C -0.4586(5) -0.28370(13) 0.6393(4)
H5 H -0.4958 -0.3044 0.5680
C11 C -0.3709(5) -0.24461(13) 0.6289(4)
H6 H -0.3488 -0.2394 0.5511
C12 C -0.3173(4) -0.21399(12) 0.7324(3)
C13 C -0.3458(4) -0.22245(12) 0.8509(4)
H7 H -0.3062 -0.2020 0.9226
C14 C -0.4339(4) -0.26167(12) 0.8615(4)
H8 H -0.4542 -0.2674 0.9400
N3 N 0.4730(3) 0.09668(9) 0.7522(2)
N4 N 0.4898(3) 0.10286(8) 0.0512(2)
N5 N 0.7993(3) 0.12072(11) 0.4507(2)
H9 H 0.8600 0.1451 0.4733
N6 N 0.8015(3) 0.08800(11) 0.5478(3)
H10 H 0.8694 0.0651 0.5647
C15 C 0.4824(4) 0.07472(12) 0.1479(3)
H11 H 0.4038 0.0512 0.1239
C16 C 0.5833(4) 0.07852(12) 0.2797(3)
H12 H 0.5736 0.0575 0.3422
C17 C 0.7002(4) 0.11351(12) 0.3209(3)
C18 C 0.7094(4) 0.14332(12) 0.2206(3)
H13 H 0.7863 0.1673 0.2415
C19 C 0.6022(4) 0.13639(12) 0.0906(3)
H14 H 0.6087 0.1567 0.0253
C20 C 0.5909(4) 0.06459(13) 0.7783(3)
H15 H 0.5987 0.0433 0.8454
C21 C 0.7005(4) 0.06064(13) 0.7143(3)
H16 H 0.7782 0.0369 0.7361
C22 C 0.6955(4) 0.09277(12) 0.6152(3)
C23 C 0.5746(4) 0.12699(12) 0.5877(3)
H17 H 0.5658 0.1493 0.5231
C24 C 0.4690(4) 0.12736(12) 0.6570(3)
H18 H 0.3888 0.1504 0.6369
Zn1_2 Zn 0.32006(4) 0.096135(12) -0.14363(3)
Zn1A Zn -0.82006(4) -0.403865(12) 0.64363(3)
O3A O 0.1692(3) 0.14633(8) 0.8444(2)
N4_2 N 0.4898(3) 0.10286(8) 1.0512(2)
loop_
_geom_bond_atom_site_label_1
_geom_bond_atom_site_label_2
_geom_bond_site_symmetry_1
_geom_bond_site_symmetry_2
Zn1 O1 1_555 1_555
O1 C1 1_555 1_555
O2 C1 1_555 1_555
O3 C8 1_555 1_555
O4 C8 1_555 1_555
N1 N2 1_555 1_555
N2 C5 1_555 1_555
C1 C2 1_555 1_555
C2 C3 1_555 1_555
C3 H1 1_555 1_555
C4 C3 1_555 1_555
H2 C4 1_555 1_555
C5 C4 1_555 1_555
C6 C5 1_555 1_555
H3 C6 1_555 1_555
C7 C2 1_555 1_555
H4 C7 1_555 1_555
C8 C9 1_555 1_555
C9 C10 1_555 1_555
C10 H5 1_555 1_555
C11 C10 1_555 1_555
H6 C11 1_555 1_555
C12 N1 1_555 1_555
C13 C12 1_555 1_555
H7 C13 1_555 1_555
C14 C9 1_555 1_555
H8 C14 1_555 1_555
N3 Zn1 1_555 1_555
N4 C15 1_555 1_555
N5 H9 1_555 1_555
N6 N5 1_555 1_555
H10 N6 1_555 1_555
C15 H11 1_555 1_555
C16 C15 1_555 1_555
H12 C16 1_555 1_555
C17 N5 1_555 1_555
C18 C17 1_555 1_555
H13 C18 1_555 1_555
C19 N4 1_555 1_555
H14 C19 1_555 1_555
C20 N3 1_555 1_555
H15 C20 1_555 1_555
C21 C20 1_555 1_555
H16 C21 1_555 1_555
C22 N6 1_555 1_555
C23 C22 1_555 1_555
H17 C23 1_555 1_555
C24 N3 1_555 1_555
H18 C24 1_555 1_555
Zn1_2 N4 1_555 1_555
Zn1A O3 1_555 1_555
O3A Zn1 1_555 1_555
N4_2 Zn1 1_555 1_555
C6 C7 1_555 1_555
C11 C12 1_555 1_555
C13 C14 1_555 1_555
C16 C17 1_555 1_555
C18 C19 1_555 1_555
C21 C22 1_555 1_555
C23 C24 1_555 1_555

#END
