
#######################################################################
#
#                 Cambridge Crystallographic Data Centre
#                                CCDC 
#
#######################################################################
#
# If this CIF has been generated from an entry in the Cambridge 
# Structural Database, then it will include bibliographic, chemical, 
# crystal, experimental, refinement or atomic coordinate data resulting 
# from the CCDC's data processing and validation procedures.
#
#######################################################################

data_VOBSAI
_symmetry_cell_setting           monoclinic
_symmetry_space_group_name_H-M   'C 2/c'
_symmetry_Int_Tables_number      15
_space_group_name_Hall           '-C 2yn'
loop_
_symmetry_equiv_pos_site_id
_symmetry_equiv_pos_as_xyz
1 x,y,z
2 -x,y,1/2-z
3 1/2+x,1/2+y,z
4 1/2-x,1/2+y,1/2-z
5 -x,-y,-z
6 x,-y,1/2+z
7 1/2-x,1/2-y,-z
8 1/2+x,1/2-y,1/2+z
_cell_length_a                   50.685(8)
_cell_length_b                   17.854(3)
_cell_length_c                   20.834(3)
_cell_angle_alpha                90
_cell_angle_beta                 110.6860(10)
_cell_angle_gamma                90
_cell_volume                     17637.8
loop_
_atom_site_label
_atom_site_type_symbol
_atom_site_fract_x
_atom_site_fract_y
_atom_site_fract_z
Zn1 Zn 0.073476(6) 1.729383(18) 1.880215(17)
Zn2 Zn 0.052434(6) 0.771943(17) 1.451795(17)
Zn3 Zn 0.197251(6) 1.260629(17) 2.20510(2)
O1 O 0.05343(4) 1.73652(10) 1.75943(10)
O2 O 0.05380(4) 1.63866(10) 1.82408(10)
O3 O 0.11140(4) 1.74630(14) 1.88007(11)
O4 O 0.11470(4) 1.84395(14) 1.94912(13)
O5 O 0.07398(3) 0.84486(10) 1.52213(9)
O6 O 0.07387(4) 0.75555(10) 1.59584(10)
O7 O 0.17447(4) 1.19678(11) 2.12974(10)
O8 O 0.17010(4) 1.29694(11) 2.06376(10)
O9 O 0.23367(4) 1.28668(10) 2.20104(9)
O10 O 0.23977(4) 1.36432(13) 2.28838(10)
O11 O 0.50905(4) 1.20154(13) 2.36060(13)
O12 O 0.51307(4) 1.27493(11) 2.44906(10)
N1 N -0.00207(5) 1.49032(15) 1.52631(11)
N2 N 0.24499(4) 1.77419(11) 2.01351(11)
N3 N 0.12105(5) 1.04459(18) 1.79644(13)
N4 N 0.12427(5) 1.01618(15) 1.84746(15)
N5 N 0.36835(4) 1.31996(13) 2.31951(12)
N6 N 0.37798(5) 1.27134(13) 2.29108(13)
N7 N 0.08362(4) 1.67488(13) 1.97501(12)
N8 N 0.16921(4) 1.32728(11) 2.22719(10)
N9 N 0.20458(4) 1.17902(12) 2.27943(11)
N10 N 0.29916(6) 0.85881(16) 2.59829(15)
N11 N 0.05185(5) 0.84127(12) 1.37100(11)
N12 N -0.04445(4) 1.19641(12) 1.11050(11)
N13 N 0.07408(4) 0.67679(11) 1.45196(11)
N14 N 0.20562(6) 0.40862(17) 1.69070(14)
C1 C 0.04808(5) 1.66874(17) 1.76506(15)
C2 C 0.03481(5) 1.62241(16) 1.70222(14)
C3 C 0.02401(5) 1.55111(16) 1.70621(16)
H1 H 0.0250 1.5314 1.7483
C4 C 0.01181(5) 1.51033(17) 1.64632(15)
H2 H 0.0042 1.4634 1.6484
C5 C 0.01081(6) 1.53781(17) 1.58408(16)
C6 C 0.02183(6) 1.60803(17) 1.57911(16)
H3 H 0.0214 1.6267 1.5370
C7 C 0.03363(5) 1.64968(17) 1.63927(15)
H4 H 0.0409 1.6970 1.6368
C8 C 0.12529(6) 1.7967(2) 1.92297(17)
C9 C 0.15674(5) 1.79287(17) 1.94151(15)
C10 C 0.17348(6) 1.83312(17) 1.99734(16)
H5 H 0.1654 1.8652 2.0203
C11 C 0.20268(6) 1.82551(16) 2.01921(16)
H6 H 0.2141 1.8525 2.0570
C12 C 0.21484(5) 1.77799(15) 1.98507(14)
C13 C 0.19808(5) 1.73800(15) 1.92783(14)
H7 H 0.2062 1.7068 1.9042
C14 C 0.16894(6) 1.74577(16) 1.90669(15)
H8 H 0.1575 1.7191 1.8688
C15 C 0.07918(5) 0.81987(15) 1.58308(14)
C16 C 0.09190(5) 0.87433(14) 1.64050(13)
C17 C 0.09891(5) 0.94670(15) 1.62798(14)
H9 H 0.0970 0.9608 1.5836
C18 C 0.10867(5) 0.99807(16) 1.68083(15)
H10 H 0.1130 1.0467 1.6720
C19 C 0.11192(5) 0.97673(16) 1.74611(16)
C20 C 0.10560(5) 0.90496(16) 1.76062(14)
H11 H 0.1081 0.8911 1.8054
C21 C 0.09547(5) 0.85382(15) 1.70733(14)
H12 H 0.0910 0.8054 1.7165
C22 C 0.16679(6) 1.22952(18) 2.07093(15)
C23 C 0.15310(6) 1.17839(18) 2.01117(15)
C24 C 0.15046(6) 1.10218(18) 2.02175(18)
H13 H 0.1553 1.0848 2.0665
C25 C 0.14096(7) 1.0512(2) 1.96855(18)
H14 H 0.1397 1.0004 1.9767
C26 C 0.13364(7) 1.07870(19) 1.9043(2)
C27 C 0.13405(6) 1.1528(2) 1.88894(16)
H15 H 0.1279 1.1691 1.8436
C28 C 0.14450(6) 1.2062(2) 1.94564(16)
H16 H 0.1453 1.2572 1.9375
C29 C 0.24866(5) 1.32912(16) 2.24960(14)
C30 C 0.27987(5) 1.33118(15) 2.26062(13)
C31 C 0.29129(6) 1.28175(16) 2.22710(16)
H17 H 0.2794 1.2503 2.1938
C32 C 0.32026(6) 1.27766(17) 2.24186(17)
H18 H 0.3277 1.2449 2.2180
C33 C 0.33777(5) 1.32343(16) 2.29281(15)
C34 C 0.32647(6) 1.37603(18) 2.32474(15)
H19 H 0.3383 1.4086 2.3570
C35 C 0.29754(6) 1.38019(18) 2.30870(15)
H20 H 0.2900 1.4156 2.3300
C36 C 0.49806(6) 1.23839(18) 2.39595(19)
C37 C 0.46670(6) 1.24404(16) 2.37353(17)
C38 C 0.45397(6) 1.28981(15) 2.40868(15)
H21 H 0.4650 1.3132 2.4491
C39 C 0.42502(6) 1.30053(16) 2.38361(16)
H22 H 0.4166 1.3305 2.4075
C40 C 0.40855(6) 1.26607(16) 2.32227(17)
C41 C 0.42093(6) 1.21870(17) 2.28781(18)
H23 H 0.4099 1.1951 2.2474
C42 C 0.44968(6) 1.20717(18) 2.31432(18)
H24 H 0.4579 1.1742 2.2923
C43 C 0.11718(6) 1.64926(16) 2.08725(15)
H25 H 0.1346 1.6598 2.1208
C44 C 0.10794(6) 1.68856(17) 2.02720(15)
H26 H 0.1192 1.7275 2.0220
C45 C 0.06765(6) 1.62171(18) 1.98358(16)
H27 H 0.0508 1.6110 1.9480
C46 C 0.07498(6) 1.57852(19) 2.04619(17)
H28 H 0.0631 1.5416 2.0522
C47 C 0.10062(6) 1.59516(17) 2.09668(15)
C48 C 0.11144(6) 1.54897(18) 2.16329(17)
H29 H 0.1246 1.5122 2.1580
H30 H 0.1221 1.5825 2.1999
C49 C 0.09095(6) 1.50869(16) 2.18693(15)
H31 H 0.0807 1.4728 2.1521
H32 H 0.0774 1.5444 2.1923
C50 C 0.10502(5) 1.46727(15) 2.25519(14)
H33 H 0.1131 1.5034 2.2917
H34 H 0.0910 1.4383 2.2661
C51 C 0.12776(5) 1.41611(14) 2.25066(13)
C52 C 0.15614(5) 1.43281(15) 2.27966(13)
H35 H 0.1618 1.4745 2.3079
C53 C 0.17607(5) 1.38876(14) 2.26739(13)
H36 H 0.1950 1.4018 2.2875
C54 C 0.14165(5) 1.30897(15) 2.19998(13)
H37 H 0.1365 1.2664 2.1726
C55 C 0.12094(5) 1.35088(15) 2.21122(14)
H38 H 0.1022 1.3357 2.1924
C56 C 0.18519(6) 1.08343(17) 2.32930(17)
H39 H 0.1693 1.0573 2.3292
C57 C 0.18261(6) 1.13931(16) 2.28156(16)
H40 H 0.1648 1.1496 2.2496
C58 C 0.22943(6) 1.16304(15) 2.32670(15)
H41 H 0.2449 1.1912 2.3271
C59 C 0.23369(6) 1.10800(16) 2.37463(15)
H42 H 0.2518 1.0987 2.4056
C60 C 0.21430(6) 1.00439(16) 2.42923(15)
H43 H 0.2001 1.0108 2.4501
H44 H 0.2327 1.0074 2.4652
C61 C 0.21142(6) 1.06624(15) 2.37736(15)
C62 C 0.21072(7) 0.92740(15) 2.39449(16)
H45 H 0.2245 0.9218 2.3724
H46 H 0.1921 0.9241 2.3594
C63 C 0.21447(7) 0.86318(16) 2.44717(17)
H47 H 0.2007 0.8694 2.4694
H48 H 0.2107 0.8158 2.4229
C64 C 0.24370(7) 0.86040(16) 2.50167(19)
C65 C 0.25009(8) 0.88063(19) 2.57147(18)
H49 H 0.2360 0.8948 2.5879
C66 C 0.27824(8) 0.8784(2) 2.6142(2)
H50 H 0.2822 0.8929 2.6595
C67 C 0.29309(8) 0.83806(17) 2.53308(19)
H51 H 0.3079 0.8226 2.5197
C68 C 0.26599(7) 0.83797(16) 2.48364(18)
H52 H 0.2631 0.8228 2.4389
C69 C 0.05628(6) 0.96391(17) 1.33350(15)
H53 H 0.0632 1.0120 1.3465
C70 C 0.06075(6) 0.91013(18) 1.38343(16)
H54 H 0.0707 0.9236 1.4287
C71 C 0.03947(11) 0.82537(19) 1.3069(2)
H55 H 0.0333 0.7764 1.2958
C72 C 0.03466(11) 0.87616(19) 1.2527(2)
H56 H 0.0264 0.8597 1.2076
C73 C 0.04205(6) 0.94960(15) 1.26564(15)
C74 C 0.03500(6) 1.00970(15) 1.21290(14)
H57 H 0.0515 1.0412 1.2218
H58 H 0.0203 1.0406 1.2189
C75 C 0.02529(6) 0.98484(15) 1.13850(14)
H59 H 0.0080 0.9562 1.1277
H60 H 0.0395 0.9525 1.1319
C76 C -0.00243(5) 1.10343(15) 1.09537(14)
C77 C 0.02015(6) 1.05206(16) 1.08957(15)
H61 H 0.0376 1.0800 1.0998
H62 H 0.0147 1.0340 1.0428
C78 C -0.03092(5) 1.08767(16) 1.06346(14)
H63 H -0.0364 1.0449 1.0366
C79 C -0.05106(5) 1.13459(16) 1.07112(14)
H64 H -0.0700 1.1232 1.0482
C80 C -0.01717(5) 1.21206(16) 1.14155(16)
H65 H -0.0121 1.2547 1.1689
C81 C 0.00405(6) 1.16707(16) 1.13465(16)
H66 H 0.0228 1.1803 1.1569
C82 C 0.08264(5) 0.56237(16) 1.40285(15)
H67 H 0.0765 0.5280 1.3671
C83 C 0.06658(6) 0.62459(16) 1.40266(15)
H68 H 0.0496 0.6307 1.3663
C84 C 0.09837(5) 0.66611(16) 1.50376(15)
H69 H 0.1040 0.7015 1.5387
C85 C 0.11547(6) 0.60470(16) 1.50779(15)
H70 H 0.1321 0.5992 1.5452
C86 C 0.10786(5) 0.55101(15) 1.45592(14)
C87 C 0.12791(5) 0.48761(16) 1.45917(15)
H71 H 0.1191 0.4527 1.4221
H72 H 0.1321 0.4610 1.5022
C88 C 0.15545(6) 0.51796(17) 1.45324(16)
H73 H 0.1518 0.5317 1.4058
H74 H 0.1608 0.5631 1.4806
C89 C 0.17978(6) 0.46410(18) 1.47577(16)
H75 H 0.1743 0.4181 1.4497
H76 H 0.1954 0.4854 1.4655
C90 C 0.18917(6) 0.44644(17) 1.54977(15)
C91 C 0.19924(7) 0.50093(18) 1.60064(18)
H77 H 0.2007 0.5506 1.5888
C92 C 0.20711(8) 0.4800(2) 1.66996(19)
H78 H 0.2137 0.5170 1.7033
C93 C 0.19588(7) 0.3607(2) 1.64045(18)
H79 H 0.1945 0.3112 1.6528
C94 C 0.18748(6) 0.37538(18) 1.57156(16)
H80 H 0.1807 0.3370 1.5399
O1D O -0.05343(4) 1.26348(10) 1.24057(10)
O2D O -0.05380(4) 1.36134(10) 1.17592(10)
N1D N 0.00207(5) 1.50968(15) 1.47369(11)
C1D C -0.04808(5) 1.33126(17) 1.23494(15)
C2D C -0.03481(5) 1.37759(16) 1.29778(14)
C3D C -0.02401(5) 1.44889(16) 1.29379(16)
H1D H -0.0250 1.4686 1.2517
C4D C -0.01181(5) 1.48967(17) 1.35368(15)
H2D H -0.0042 1.5366 1.3516
C5D C -0.01081(6) 1.46219(17) 1.41592(16)
C6D C -0.02183(6) 1.39197(17) 1.42089(16)
H3D H -0.0214 1.3733 1.4630
C7D C -0.03363(5) 1.35032(17) 1.36073(15)
H4D H -0.0409 1.3030 1.3632
O3F O 0.38860(4) 1.75370(14) 2.11993(11)
O4F O 0.38530(4) 1.65605(14) 2.05088(13)
N2F N 0.25501(4) 1.72581(11) 1.98649(11)
C8F C 0.37471(6) 1.7033(2) 2.07703(17)
C9F C 0.34326(5) 1.70713(17) 2.05849(15)
C10F C 0.32652(6) 1.66688(17) 2.00266(16)
H5F H 0.3346 1.6348 1.9797
C11F C 0.29732(6) 1.67449(16) 1.98079(16)
H6F H 0.2859 1.6475 1.9430
C12F C 0.28516(5) 1.72201(15) 2.01493(14)
C13F C 0.30192(5) 1.76200(15) 2.07217(14)
H7F H 0.2938 1.7932 2.0958
C14F C 0.33106(6) 1.75423(16) 2.09331(15)
H8F H 0.3425 1.7809 2.1312
Zn1D Zn -0.073476(6) 1.270617(18) 1.119785(17)
Zn2D Zn -0.052434(6) 2.228057(17) 1.548205(17)
Zn3D Zn -0.197251(6) 1.739371(17) 0.79490(2)
O5D O -0.07398(3) 2.15514(10) 1.47787(9)
O6D O -0.07387(4) 2.24445(10) 1.40416(10)
O7D O -0.17447(4) 1.80322(11) 0.87026(10)
O8D O -0.17010(4) 1.70306(11) 0.93624(10)
O9D O -0.23367(4) 1.71332(10) 0.79896(9)
O10D O -0.23977(4) 1.63568(13) 0.71162(10)
O11D O -0.50905(4) 1.79846(13) 0.63940(13)
O12D O -0.51307(4) 1.72507(11) 0.55094(10)
N3D N -0.12105(5) 1.95541(18) 1.20356(13)
N4D N -0.12427(5) 1.98382(15) 1.15254(15)
N5D N -0.36835(4) 1.68004(13) 0.68049(12)
N6D N -0.37798(5) 1.72866(13) 0.70892(13)
N7D N -0.08362(4) 1.32512(13) 1.02499(12)
N8D N -0.16921(4) 1.67272(11) 0.77281(10)
N9D N -0.20458(4) 1.82098(12) 0.72057(11)
N10D N -0.29916(6) 2.14119(16) 0.40171(15)
N11D N -0.05185(5) 2.15873(12) 1.62900(11)
N12D N 0.04445(4) 1.80359(12) 1.88950(11)
N13D N -0.07408(4) 2.32321(11) 1.54804(11)
N14D N -0.20562(6) 2.59138(17) 1.30930(14)
C15D C -0.07918(5) 2.18013(15) 1.41692(14)
C16D C -0.09190(5) 2.12567(14) 1.35950(13)
C17D C -0.09891(5) 2.05330(15) 1.37202(14)
H9D H -0.0970 2.0392 1.4164
C18D C -0.10867(5) 2.00193(16) 1.31917(15)
H10D H -0.1130 1.9533 1.3280
C19D C -0.11192(5) 2.02327(16) 1.25389(16)
C20D C -0.10560(5) 2.09504(16) 1.23938(14)
H11D H -0.1081 2.1089 1.1946
C21D C -0.09547(5) 2.14618(15) 1.29267(14)
H12D H -0.0910 2.1946 1.2835
C22D C -0.16679(6) 1.77048(18) 0.92907(15)
C23D C -0.15310(6) 1.82161(18) 0.98883(15)
C24D C -0.15046(6) 1.89782(18) 0.97825(18)
H13D H -0.1553 1.9152 0.9335
C25D C -0.14096(7) 1.9488(2) 1.03145(18)
H14D H -0.1397 1.9996 1.0233
C26D C -0.13364(7) 1.92130(19) 1.0957(2)
C27D C -0.13405(6) 1.8472(2) 1.11106(16)
H15D H -0.1279 1.8309 1.1564
C28D C -0.14450(6) 1.7938(2) 1.05436(16)
H16D H -0.1453 1.7428 1.0625
C29D C -0.24866(5) 1.67088(16) 0.75040(14)
C30D C -0.27987(5) 1.66882(15) 0.73938(13)
C31D C -0.29129(6) 1.71825(16) 0.77290(16)
H17D H -0.2794 1.7497 0.8062
C32D C -0.32026(6) 1.72234(17) 0.75814(17)
H18D H -0.3277 1.7551 0.7820
C33D C -0.33777(5) 1.67657(16) 0.70719(15)
C34D C -0.32647(6) 1.62397(18) 0.67526(15)
H19D H -0.3383 1.5914 0.6430
C35D C -0.29754(6) 1.61981(18) 0.69130(15)
H20D H -0.2900 1.5844 0.6700
C36D C -0.49806(6) 1.76161(18) 0.60405(19)
C37D C -0.46670(6) 1.75596(16) 0.62647(17)
C38D C -0.45397(6) 1.71019(15) 0.59132(15)
H21D H -0.4650 1.6868 0.5509
C39D C -0.42502(6) 1.69947(16) 0.61639(16)
H22D H -0.4166 1.6695 0.5925
C40D C -0.40855(6) 1.73393(16) 0.67773(17)
C41D C -0.42093(6) 1.78130(17) 0.71219(18)
H23D H -0.4099 1.8049 0.7526
C42D C -0.44968(6) 1.79283(18) 0.68568(18)
H24D H -0.4579 1.8258 0.7077
C43D C -0.11718(6) 1.35074(16) 0.91275(15)
H25D H -0.1346 1.3402 0.8792
C44D C -0.10794(6) 1.31144(17) 0.97280(15)
H26D H -0.1192 1.2725 0.9780
C45D C -0.06765(6) 1.37829(18) 1.01642(16)
H27D H -0.0508 1.3890 1.0520
C46D C -0.07498(6) 1.42148(19) 0.95381(17)
H28D H -0.0631 1.4584 0.9478
C47D C -0.10062(6) 1.40484(17) 0.90332(15)
C48D C -0.11144(6) 1.45103(18) 0.83671(17)
H29D H -0.1246 1.4878 0.8420
H30D H -0.1221 1.4175 0.8001
C49D C -0.09095(6) 1.49131(16) 0.81307(15)
H31D H -0.0807 1.5272 0.8479
H32D H -0.0774 1.4556 0.8077
C50D C -0.10502(5) 1.53273(15) 0.74481(14)
H33D H -0.1131 1.4966 0.7083
H34D H -0.0910 1.5617 0.7339
C51D C -0.12776(5) 1.58389(14) 0.74934(13)
C52D C -0.15614(5) 1.56719(15) 0.72034(13)
H35D H -0.1618 1.5255 0.6921
C53D C -0.17607(5) 1.61124(14) 0.73261(13)
H36D H -0.1950 1.5982 0.7125
C54D C -0.14165(5) 1.69103(15) 0.80002(13)
H37D H -0.1365 1.7336 0.8274
C55D C -0.12094(5) 1.64912(15) 0.78878(14)
H38D H -0.1022 1.6643 0.8076
C56D C -0.18519(6) 1.91657(17) 0.67070(17)
H39D H -0.1693 1.9427 0.6708
C57D C -0.18261(6) 1.86069(16) 0.71844(16)
H40D H -0.1648 1.8504 0.7504
C58D C -0.22943(6) 1.83696(15) 0.67330(15)
H41D H -0.2449 1.8088 0.6729
C59D C -0.23369(6) 1.89200(16) 0.62537(15)
H42D H -0.2518 1.9013 0.5944
C60D C -0.21430(6) 1.99561(16) 0.57077(15)
H43D H -0.2001 1.9892 0.5499
H44D H -0.2327 1.9926 0.5348
C61D C -0.21142(6) 1.93376(15) 0.62264(15)
C62D C -0.21072(7) 2.07260(15) 0.60551(16)
H45D H -0.2245 2.0782 0.6276
H46D H -0.1921 2.0759 0.6406
C63D C -0.21447(7) 2.13682(16) 0.55283(17)
H47D H -0.2007 2.1306 0.5306
H48D H -0.2107 2.1842 0.5771
C64D C -0.24370(7) 2.13960(16) 0.49833(19)
C65D C -0.25009(8) 2.11937(19) 0.42853(18)
H49D H -0.2360 2.1052 0.4121
C66D C -0.27824(8) 2.1216(2) 0.3858(2)
H50D H -0.2822 2.1071 0.3405
C67D C -0.29309(8) 2.16194(17) 0.46692(19)
H51D H -0.3079 2.1774 0.4803
C68D C -0.26599(7) 2.16203(16) 0.51636(18)
H52D H -0.2631 2.1772 0.5611
C69D C -0.05628(6) 2.03609(17) 1.66650(15)
H53D H -0.0632 1.9880 1.6535
C70D C -0.06075(6) 2.08987(18) 1.61657(16)
H54D H -0.0707 2.0764 1.5713
C71D C -0.03947(11) 2.17463(19) 1.6931(2)
H55D H -0.0333 2.2236 1.7042
C72D C -0.03466(11) 2.12384(19) 1.7473(2)
H56D H -0.0264 2.1403 1.7924
C73D C -0.04205(6) 2.05040(15) 1.73436(15)
C74D C -0.03500(6) 1.99030(15) 1.78710(14)
H57D H -0.0515 1.9588 1.7782
H58D H -0.0203 1.9594 1.7811
C75D C -0.02529(6) 2.01516(15) 1.86150(14)
H59D H -0.0080 2.0438 1.8723
H60D H -0.0395 2.0475 1.8681
C76D C 0.00243(5) 1.89657(15) 1.90463(14)
C77D C -0.02015(6) 1.94794(16) 1.91043(15)
H61D H -0.0376 1.9200 1.9002
H62D H -0.0147 1.9660 1.9572
C78D C 0.03092(5) 1.91233(16) 1.93654(14)
H63D H 0.0364 1.9551 1.9634
C79D C 0.05106(5) 1.86541(16) 1.92888(14)
H64D H 0.0700 1.8768 1.9518
C80D C 0.01717(5) 1.78794(16) 1.85845(16)
H65D H 0.0121 1.7453 1.8311
C81D C -0.00405(6) 1.83293(16) 1.86535(16)
H66D H -0.0228 1.8197 1.8431
C82D C -0.08264(5) 2.43763(16) 1.59715(15)
H67D H -0.0765 2.4720 1.6329
C83D C -0.06658(6) 2.37541(16) 1.59734(15)
H68D H -0.0496 2.3693 1.6337
C84D C -0.09837(5) 2.33389(16) 1.49624(15)
H69D H -0.1040 2.2985 1.4613
C85D C -0.11547(6) 2.39530(16) 1.49221(15)
H70D H -0.1321 2.4008 1.4548
C86D C -0.10786(5) 2.44899(15) 1.54408(14)
C87D C -0.12791(5) 2.51239(16) 1.54083(15)
H71D H -0.1191 2.5473 1.5779
H72D H -0.1321 2.5390 1.4978
C88D C -0.15545(6) 2.48204(17) 1.54676(16)
H73D H -0.1518 2.4683 1.5942
H74D H -0.1608 2.4369 1.5194
C89D C -0.17978(6) 2.53590(18) 1.52423(16)
H75D H -0.1743 2.5819 1.5503
H76D H -0.1954 2.5146 1.5345
C90D C -0.18917(6) 2.55356(17) 1.45023(15)
C91D C -0.19924(7) 2.49907(18) 1.39936(18)
H77D H -0.2007 2.4494 1.4112
C92D C -0.20711(8) 2.5200(2) 1.33004(19)
H78D H -0.2137 2.4830 1.2967
C93D C -0.19588(7) 2.6393(2) 1.35955(18)
H79D H -0.1945 2.6888 1.3472
C94D C -0.18748(6) 2.62462(18) 1.42844(16)
H80D H -0.1807 2.6630 1.4601
Zn1F Zn 0.426524(6) 1.770617(18) 2.119785(17)
Zn2B Zn 0.552434(6) 1.271943(17) 2.451795(17)
Zn2F Zn -0.552434(6) 1.728057(17) 0.548205(17)
O3D O -0.11140(4) 1.25370(14) 1.11993(11)
O12B O 0.01307(4) 0.77493(11) 1.44906(10)
O12F O -0.01307(4) 2.22507(11) 1.55094(10)
O13 O 0.14109(6) 0.64583(15) 1.32265(14)
H81 H 0.1509(3) 0.6842(6) 1.3421(11)
H82 H 0.1377(3) 0.6224(10) 1.3550(7)
O14 O 0.0000 1.38664(14) 1.7500
H83 H 0.0000 1.3422(4) 1.7500
H84 H 0.0000 1.4309(4) 1.7500
loop_
_geom_bond_atom_site_label_1
_geom_bond_atom_site_label_2
_geom_bond_site_symmetry_1
_geom_bond_site_symmetry_2
Zn1 O1 1_555 1_555
Zn2 O5 1_555 1_555
Zn3 O7 1_555 1_555
O1 C1 1_555 1_555
O2 Zn1 1_555 1_555
O3 Zn1 1_555 1_555
O4 C8 1_555 1_555
O5 C15 1_555 1_555
O6 C15 1_555 1_555
O7 C22 1_555 1_555
O8 C22 1_555 1_555
O9 Zn3 1_555 1_555
O10 C29 1_555 1_555
O11 C36 1_555 1_555
O12 C36 1_555 1_555
N1 C5 1_555 1_555
N2 C12 1_555 1_555
N3 N4 1_555 1_555
N4 C26 1_555 1_555
N5 N6 1_555 1_555
N6 C40 1_555 1_555
N7 Zn1 1_555 1_555
N8 Zn3 1_555 1_555
N9 Zn3 1_555 1_555
N10 C66 1_555 1_555
N11 Zn2 1_555 1_555
N12 C79 1_555 1_555
N13 Zn2 1_555 1_555
N14 C92 1_555 1_555
C1 O2 1_555 1_555
C2 C1 1_555 1_555
C3 C2 1_555 1_555
H1 C3 1_555 1_555
C4 C3 1_555 1_555
H2 C4 1_555 1_555
C5 C4 1_555 1_555
C6 C5 1_555 1_555
H3 C6 1_555 1_555
C7 C2 1_555 1_555
H4 C7 1_555 1_555
C8 O3 1_555 1_555
C9 C8 1_555 1_555
C10 C9 1_555 1_555
H5 C10 1_555 1_555
C11 C10 1_555 1_555
H6 C11 1_555 1_555
C12 C11 1_555 1_555
C13 C12 1_555 1_555
H7 C13 1_555 1_555
C14 C9 1_555 1_555
H8 C14 1_555 1_555
C15 C16 1_555 1_555
C16 C17 1_555 1_555
C17 H9 1_555 1_555
C18 C17 1_555 1_555
H10 C18 1_555 1_555
C19 N3 1_555 1_555
C20 C19 1_555 1_555
H11 C20 1_555 1_555
C21 C16 1_555 1_555
H12 C21 1_555 1_555
C22 C23 1_555 1_555
C23 C24 1_555 1_555
C24 H13 1_555 1_555
C25 C24 1_555 1_555
H14 C25 1_555 1_555
C26 C25 1_555 1_555
C27 C26 1_555 1_555
H15 C27 1_555 1_555
C28 C23 1_555 1_555
H16 C28 1_555 1_555
C29 O9 1_555 1_555
C30 C29 1_555 1_555
C31 C30 1_555 1_555
H17 C31 1_555 1_555
C32 C31 1_555 1_555
H18 C32 1_555 1_555
C33 N5 1_555 1_555
C34 C33 1_555 1_555
H19 C34 1_555 1_555
C35 C30 1_555 1_555
H20 C35 1_555 1_555
C36 C37 1_555 1_555
C37 C38 1_555 1_555
C38 H21 1_555 1_555
C39 C38 1_555 1_555
H22 C39 1_555 1_555
C40 C39 1_555 1_555
C41 C40 1_555 1_555
H23 C41 1_555 1_555
C42 C37 1_555 1_555
H24 C42 1_555 1_555
C43 H25 1_555 1_555
C44 N7 1_555 1_555
H26 C44 1_555 1_555
C45 N7 1_555 1_555
H27 C45 1_555 1_555
C46 C45 1_555 1_555
H28 C46 1_555 1_555
C47 C43 1_555 1_555
C48 C47 1_555 1_555
H29 C48 1_555 1_555
H30 C48 1_555 1_555
C49 C48 1_555 1_555
H31 C49 1_555 1_555
H32 C49 1_555 1_555
C50 C49 1_555 1_555
H33 C50 1_555 1_555
H34 C50 1_555 1_555
C51 C50 1_555 1_555
C52 C51 1_555 1_555
H35 C52 1_555 1_555
C53 N8 1_555 1_555
H36 C53 1_555 1_555
C54 N8 1_555 1_555
H37 C54 1_555 1_555
C55 C51 1_555 1_555
H38 C55 1_555 1_555
C56 H39 1_555 1_555
C57 N9 1_555 1_555
H40 C57 1_555 1_555
C58 N9 1_555 1_555
H41 C58 1_555 1_555
C59 C58 1_555 1_555
H42 C59 1_555 1_555
C60 H43 1_555 1_555
H44 C60 1_555 1_555
C61 C56 1_555 1_555
C62 C60 1_555 1_555
H45 C62 1_555 1_555
H46 C62 1_555 1_555
C63 C62 1_555 1_555
H47 C63 1_555 1_555
H48 C63 1_555 1_555
C64 C63 1_555 1_555
C65 C64 1_555 1_555
H49 C65 1_555 1_555
C66 C65 1_555 1_555
H50 C66 1_555 1_555
C67 N10 1_555 1_555
H51 C67 1_555 1_555
C68 C64 1_555 1_555
H52 C68 1_555 1_555
C69 H53 1_555 1_555
C70 N11 1_555 1_555
H54 C70 1_555 1_555
C71 N11 1_555 1_555
H55 C71 1_555 1_555
C72 C71 1_555 1_555
H56 C72 1_555 1_555
C73 C69 1_555 1_555
C74 C73 1_555 1_555
H57 C74 1_555 1_555
H58 C74 1_555 1_555
C75 C74 1_555 1_555
H59 C75 1_555 1_555
H60 C75 1_555 1_555
C76 C77 1_555 1_555
C77 C75 1_555 1_555
H61 C77 1_555 1_555
H62 C77 1_555 1_555
C78 C76 1_555 1_555
H63 C78 1_555 1_555
C79 C78 1_555 1_555
H64 C79 1_555 1_555
C80 N12 1_555 1_555
H65 C80 1_555 1_555
C81 C76 1_555 1_555
H66 C81 1_555 1_555
C82 H67 1_555 1_555
C83 N13 1_555 1_555
H68 C83 1_555 1_555
C84 N13 1_555 1_555
H69 C84 1_555 1_555
C85 C84 1_555 1_555
H70 C85 1_555 1_555
C86 C82 1_555 1_555
C87 C86 1_555 1_555
H71 C87 1_555 1_555
H72 C87 1_555 1_555
C88 C87 1_555 1_555
H73 C88 1_555 1_555
H74 C88 1_555 1_555
C89 C88 1_555 1_555
H75 C89 1_555 1_555
H76 C89 1_555 1_555
C90 C89 1_555 1_555
C91 C90 1_555 1_555
H77 C91 1_555 1_555
C92 C91 1_555 1_555
H78 C92 1_555 1_555
C93 N14 1_555 1_555
H79 C93 1_555 1_555
C94 C90 1_555 1_555
H80 C94 1_555 1_555
O13 H81 1_555 1_555
H82 O13 1_555 1_555
O14 H83 1_555 1_555
H84 O14 1_555 1_555
O1D C1D 1_555 1_555
O2D C1D 1_555 1_555
N1D N1 1_555 1_555
C1D C2D 1_555 1_555
C2D C3D 1_555 1_555
C3D H1D 1_555 1_555
C4D C3D 1_555 1_555
H2D C4D 1_555 1_555
C5D N1D 1_555 1_555
C6D C5D 1_555 1_555
H3D C6D 1_555 1_555
C7D C2D 1_555 1_555
H4D C7D 1_555 1_555
O3F C8F 1_555 1_555
O4F C8F 1_555 1_555
N2F N2 1_555 1_555
C8F C9F 1_555 1_555
C9F C10F 1_555 1_555
C10F H5F 1_555 1_555
C11F C10F 1_555 1_555
H6F C11F 1_555 1_555
C12F N2F 1_555 1_555
C13F C12F 1_555 1_555
H7F C13F 1_555 1_555
C14F C9F 1_555 1_555
H8F C14F 1_555 1_555
Zn1D N12 1_555 1_555
Zn2D O5D 1_555 1_555
Zn3D O7D 1_555 1_555
O5D C15D 1_555 1_555
O6D C15D 1_555 1_555
O7D C22D 1_555 1_555
O8D C22D 1_555 1_555
O9D Zn3D 1_555 1_555
O10D C29D 1_555 1_555
O11D C36D 1_555 1_555
O12D C36D 1_555 1_555
N3D N4D 1_555 1_555
N4D C26D 1_555 1_555
N5D N6D 1_555 1_555
N6D C40D 1_555 1_555
N7D Zn1D 1_555 1_555
N8D Zn3D 1_555 1_555
N9D Zn3D 1_555 1_555
N10D C66D 1_555 1_555
N11D Zn2D 1_555 1_555
N12D Zn1 1_555 1_555
N13D Zn2D 1_555 1_555
N14D C92D 1_555 1_555
C15D C16D 1_555 1_555
C16D C17D 1_555 1_555
C17D H9D 1_555 1_555
C18D C17D 1_555 1_555
H10D C18D 1_555 1_555
C19D N3D 1_555 1_555
C20D C19D 1_555 1_555
H11D C20D 1_555 1_555
C21D C16D 1_555 1_555
H12D C21D 1_555 1_555
C22D C23D 1_555 1_555
C23D C24D 1_555 1_555
C24D H13D 1_555 1_555
C25D C24D 1_555 1_555
H14D C25D 1_555 1_555
C26D C25D 1_555 1_555
C27D C26D 1_555 1_555
H15D C27D 1_555 1_555
C28D C23D 1_555 1_555
H16D C28D 1_555 1_555
C29D O9D 1_555 1_555
C30D C29D 1_555 1_555
C31D C30D 1_555 1_555
H17D C31D 1_555 1_555
C32D C31D 1_555 1_555
H18D C32D 1_555 1_555
C33D N5D 1_555 1_555
C34D C33D 1_555 1_555
H19D C34D 1_555 1_555
C35D C30D 1_555 1_555
H20D C35D 1_555 1_555
C36D C37D 1_555 1_555
C37D C38D 1_555 1_555
C38D H21D 1_555 1_555
C39D C38D 1_555 1_555
H22D C39D 1_555 1_555
C40D C39D 1_555 1_555
C41D C40D 1_555 1_555
H23D C41D 1_555 1_555
C42D C37D 1_555 1_555
H24D C42D 1_555 1_555
C43D H25D 1_555 1_555
C44D N7D 1_555 1_555
H26D C44D 1_555 1_555
C45D N7D 1_555 1_555
H27D C45D 1_555 1_555
C46D C45D 1_555 1_555
H28D C46D 1_555 1_555
C47D C43D 1_555 1_555
C48D C47D 1_555 1_555
H29D C48D 1_555 1_555
H30D C48D 1_555 1_555
C49D C48D 1_555 1_555
H31D C49D 1_555 1_555
H32D C49D 1_555 1_555
C50D C49D 1_555 1_555
H33D C50D 1_555 1_555
H34D C50D 1_555 1_555
C51D C50D 1_555 1_555
C52D C51D 1_555 1_555
H35D C52D 1_555 1_555
C53D N8D 1_555 1_555
H36D C53D 1_555 1_555
C54D N8D 1_555 1_555
H37D C54D 1_555 1_555
C55D C51D 1_555 1_555
H38D C55D 1_555 1_555
C56D H39D 1_555 1_555
C57D N9D 1_555 1_555
H40D C57D 1_555 1_555
C58D N9D 1_555 1_555
H41D C58D 1_555 1_555
C59D C58D 1_555 1_555
H42D C59D 1_555 1_555
C60D H43D 1_555 1_555
H44D C60D 1_555 1_555
C61D C56D 1_555 1_555
C62D C60D 1_555 1_555
H45D C62D 1_555 1_555
H46D C62D 1_555 1_555
C63D C62D 1_555 1_555
H47D C63D 1_555 1_555
H48D C63D 1_555 1_555
C64D C63D 1_555 1_555
C65D C64D 1_555 1_555
H49D C65D 1_555 1_555
C66D C65D 1_555 1_555
H50D C66D 1_555 1_555
C67D N10D 1_555 1_555
H51D C67D 1_555 1_555
C68D C64D 1_555 1_555
H52D C68D 1_555 1_555
C69D H53D 1_555 1_555
C70D N11D 1_555 1_555
H54D C70D 1_555 1_555
C71D N11D 1_555 1_555
H55D C71D 1_555 1_555
C72D C71D 1_555 1_555
H56D C72D 1_555 1_555
C73D C69D 1_555 1_555
C74D C73D 1_555 1_555
H57D C74D 1_555 1_555
H58D C74D 1_555 1_555
C75D C74D 1_555 1_555
H59D C75D 1_555 1_555
H60D C75D 1_555 1_555
C76D C77D 1_555 1_555
C77D C75D 1_555 1_555
H61D C77D 1_555 1_555
H62D C77D 1_555 1_555
C78D C76D 1_555 1_555
H63D C78D 1_555 1_555
C79D N12D 1_555 1_555
H64D C79D 1_555 1_555
C80D N12D 1_555 1_555
H65D C80D 1_555 1_555
C81D C76D 1_555 1_555
H66D C81D 1_555 1_555
C82D H67D 1_555 1_555
C83D N13D 1_555 1_555
H68D C83D 1_555 1_555
C84D N13D 1_555 1_555
H69D C84D 1_555 1_555
C85D C84D 1_555 1_555
H70D C85D 1_555 1_555
C86D C82D 1_555 1_555
C87D C86D 1_555 1_555
H71D C87D 1_555 1_555
H72D C87D 1_555 1_555
C88D C87D 1_555 1_555
H73D C88D 1_555 1_555
H74D C88D 1_555 1_555
C89D C88D 1_555 1_555
H75D C89D 1_555 1_555
H76D C89D 1_555 1_555
C90D C89D 1_555 1_555
C91D C90D 1_555 1_555
H77D C91D 1_555 1_555
C92D C91D 1_555 1_555
H78D C92D 1_555 1_555
C93D N14D 1_555 1_555
H79D C93D 1_555 1_555
C94D C90D 1_555 1_555
H80D C94D 1_555 1_555
Zn1F O3F 1_555 1_555
Zn2B O12 1_555 1_555
Zn2F O12D 1_555 1_555
O3D Zn1D 1_555 1_555
O12B Zn2 1_555 1_555
O12F Zn2D 1_555 1_555
C6 C7 1_555 1_555
C13 C14 1_555 1_555
C18 C19 1_555 1_555
C20 C21 1_555 1_555
C27 C28 1_555 1_555
C32 C33 1_555 1_555
C34 C35 1_555 1_555
C41 C42 1_555 1_555
C43 C44 1_555 1_555
C46 C47 1_555 1_555
C52 C53 1_555 1_555
C54 C55 1_555 1_555
C56 C57 1_555 1_555
C59 C61 1_555 1_555
C60 C61 1_555 1_555
C67 C68 1_555 1_555
C69 C70 1_555 1_555
C72 C73 1_555 1_555
C80 C81 1_555 1_555
C82 C83 1_555 1_555
C85 C86 1_555 1_555
C93 C94 1_555 1_555
O1D Zn1D 1_555 1_555
O2D Zn1D 1_555 1_555
C4D C5D 1_555 1_555
C6D C7D 1_555 1_555
C11F C12F 1_555 1_555
C13F C14F 1_555 1_555
C18D C19D 1_555 1_555
C20D C21D 1_555 1_555
C27D C28D 1_555 1_555
C32D C33D 1_555 1_555
C34D C35D 1_555 1_555
C41D C42D 1_555 1_555
C43D C44D 1_555 1_555
C46D C47D 1_555 1_555
C52D C53D 1_555 1_555
C54D C55D 1_555 1_555
C56D C57D 1_555 1_555
C59D C61D 1_555 1_555
C60D C61D 1_555 1_555
C67D C68D 1_555 1_555
C69D C70D 1_555 1_555
C72D C73D 1_555 1_555
C78D C79D 1_555 1_555
C80D C81D 1_555 1_555
C82D C83D 1_555 1_555
C85D C86D 1_555 1_555
C93D C94D 1_555 1_555

#END
