
#######################################################################
#
#                 Cambridge Crystallographic Data Centre
#                                CCDC 
#
#######################################################################
#
# If this CIF has been generated from an entry in the Cambridge 
# Structural Database, then it will include bibliographic, chemical, 
# crystal, experimental, refinement or atomic coordinate data resulting 
# from the CCDC's data processing and validation procedures.
#
#######################################################################

data_VOBTAJ
_symmetry_cell_setting           hexagonal
_symmetry_space_group_name_H-M   'P 65 2 2'
_symmetry_Int_Tables_number      179
_space_group_name_Hall           "P 65 2' (0,0,1)"
loop_
_symmetry_equiv_pos_site_id
_symmetry_equiv_pos_as_xyz
1 x,y,z
2 -y,x-y,2/3+z
3 -x+y,-x,1/3+z
4 -x,-y,1/2+z
5 y,-x+y,1/6+z
6 x-y,x,5/6+z
7 y,x,2/3-z
8 x-y,-y,-z
9 -x,-x+y,1/3-z
10 -y,-x,1/6-z
11 -x+y,y,1/2-z
12 x,x-y,5/6-z
_cell_length_a                   11.4708(6)
_cell_length_b                   11.4708(6)
_cell_length_c                   18.4672(17)
_cell_angle_alpha                90
_cell_angle_beta                 90
_cell_angle_gamma                120
_cell_volume                     2104.36
loop_
_atom_site_label
_atom_site_type_symbol
_atom_site_fract_x
_atom_site_fract_y
_atom_site_fract_z
Cu1 Cu 0.10134(6) 0.41000(6) 0.06106(4)
Cu2 Cu 0.18169(9) 0.59084(4) -0.0833
N1 N -0.1011(3) 0.3074(3) 0.0792(2)
N2 N 0.2981(4) 0.7019(4) 0.0833
N3 N -0.3078(2) 0.3078(2) 0.0833
N4 N -0.1052(3) 0.1052(3) 0.0833
H1 H -0.0148 0.1501 0.0806
N5 N 0.1981(5) 0.6068(5) 0.0674(3)
N6 N 0.0818(4) 0.3944(5) -0.0695(3)
C1 C -0.1716(3) 0.1716(3) 0.0833
N7 N -0.1062(4) 0.5034(4) 0.0779(3)
H2 H -0.0197 0.5465 0.0763
H3 H -0.1494 0.5467 0.0782
C2 C -0.1729(4) 0.3701(4) 0.0798(2)
N8 N -0.1136(6) 0.1981(6) -0.1012(3)
N9 N -0.0170(4) 0.3005(4) -0.0856(2)
N1I N -0.3074(3) 0.1011(3) 0.0875(2)
H1I H -0.1501 0.0148 0.0861
N7I N -0.5034(4) 0.1062(4) 0.0888(3)
H2I H -0.5465 0.0197 0.0904
H3I H -0.5467 0.1494 0.0885
C2I C -0.3701(4) 0.1729(4) 0.0869(2)
N5I N 0.3932(5) 0.8019(5) 0.0993(3)
Cu1I Cu -0.41000(6) -0.10134(6) 0.10561(4)
N6I N -0.3944(5) -0.0818(4) 0.2362(3)
N8I N -0.1981(6) 0.1136(6) 0.2679(3)
N9I N -0.3005(4) 0.0170(4) 0.2523(2)
Cu1E Cu -0.30866(8) 0.10134(6) -0.10561(4)
Cu1H Cu -0.10134(6) 0.30866(8) 0.27227(4)
Cu1I_2 Cu 0.59000(6) 0.89866(6) 0.10561(4)
Cu2B Cu -0.59085(10) -0.18169(9) 0.2500
Cu2D Cu -0.40916(4) 0.40915(10) 0.0834
N3E N 0.3844(3) 0.6922(2) -0.0834
N5I_2 N -0.6068(5) -0.1981(5) 0.0993(3)
N6K N 0.0818(4) 0.6874(6) -0.0972(3)
N8D N 0.1981(6) 0.3117(8) 0.0655(3)
N8G N -0.3117(8) -0.1981(6) 0.1012(3)
loop_
_geom_bond_atom_site_label_1
_geom_bond_atom_site_label_2
_geom_bond_site_symmetry_1
_geom_bond_site_symmetry_2
Cu1 N1 1_555 1_555
Cu2 N6 1_555 1_555
N1 C1 1_555 1_555
N2 N5 1_555 1_555
N3 C2 1_555 1_555
N4 H1 1_555 1_555
N5 Cu1 1_555 1_555
N6 Cu1 1_555 1_555
C1 N4 1_555 1_555
N7 H2 1_555 1_555
H3 N7 1_555 1_555
C2 N1 1_555 1_555
N8 N9 1_555 1_555
N9 N6 1_555 1_555
N1I C1 1_555 1_555
H1I N4 1_555 1_555
N7I H2I 1_555 1_555
H3I N7I 1_555 1_555
C2I N3 1_555 1_555
N5I N2 1_555 1_555
Cu1I N1I 1_555 1_555
N6I Cu1I 1_555 1_555
N8I N9I 1_555 1_555
N9I N6I 1_555 1_555
Cu1E N8 1_555 1_555
Cu1H N8I 1_555 1_555
Cu1I_2 N5I 1_555 1_555
Cu2B N6I 1_555 1_555
Cu2D N3 1_555 1_555
N3E Cu2 1_555 1_555
N5I_2 Cu1I 1_555 1_555
N6K Cu2 1_555 1_555
N8D Cu1 1_555 1_555
N8G Cu1I 1_555 1_555
N7 C2 1_555 1_555
N1I C2I 1_555 1_555
N7I C2I 1_555 1_555

#END
