
#######################################################################
#
#                 Cambridge Crystallographic Data Centre
#                                CCDC 
#
#######################################################################
#
# If this CIF has been generated from an entry in the Cambridge 
# Structural Database, then it will include bibliographic, chemical, 
# crystal, experimental, refinement or atomic coordinate data resulting 
# from the CCDC's data processing and validation procedures.
#
#######################################################################

data_VOCBEW
_symmetry_cell_setting           triclinic
_symmetry_space_group_name_H-M   'P -1'
_symmetry_Int_Tables_number      2
_space_group_name_Hall           '-P 1'
loop_
_symmetry_equiv_pos_site_id
_symmetry_equiv_pos_as_xyz
1 x,y,z
2 -x,-y,-z
_cell_length_a                   4.8147(4)
_cell_length_b                   7.3772(5)
_cell_length_c                   9.3569(6)
_cell_angle_alpha                106.138(5)
_cell_angle_beta                 101.275(6)
_cell_angle_gamma                101.725(7)
_cell_volume                     301.161
loop_
_atom_site_label
_atom_site_type_symbol
_atom_site_fract_x
_atom_site_fract_y
_atom_site_fract_z
Ag1 Ag -0.25167(6) 0.05443(3) 0.31377(3)
O1 O 0.1990(5) 0.4071(3) 0.0619(3)
N1 N 0.1848(6) 0.2163(4) -0.0308(4)
O2 O 0.4079(5) 0.7522(3) 0.2347(3)
O3 O 0.1890(5) 0.8991(3) 0.3935(3)
O4 O -0.1782(5) 0.6764(3) 0.4767(3)
O5 O -0.3778(5) 0.3826(3) 0.3161(3)
N2 N -0.0532(6) 0.2032(4) 0.1542(3)
N3 N 0.2135(6) 0.7451(4) 0.3064(4)
N4 N -0.1826(6) 0.5421(4) 0.3628(4)
C1 C 0.0546(7) 0.3887(5) 0.1697(4)
C2 C 0.0352(7) 0.1069(4) 0.0305(4)
C3 C 0.0293(7) 0.5596(4) 0.2791(4)
O1A O -0.1990(5) -0.4071(3) -0.0619(3)
N1A N -0.1848(6) -0.2163(4) 0.0308(4)
O2A O -0.4079(5) -0.7522(3) -0.2347(3)
O3A O -0.1890(5) -0.8991(3) -0.3935(3)
O4A O 0.1782(5) -0.6764(3) -0.4767(3)
O5A O 0.3778(5) -0.3826(3) -0.3161(3)
N2A N 0.0532(6) -0.2032(4) -0.1542(3)
N3A N -0.2135(6) -0.7451(4) -0.3064(4)
N4A N 0.1826(6) -0.5421(4) -0.3628(4)
C1A C -0.0546(7) -0.3887(5) -0.1697(4)
C2A C -0.0352(7) -0.1069(4) -0.0305(4)
C3A C -0.0293(7) -0.5596(4) -0.2791(4)
Ag1A Ag -0.74833(6) -1.05443(3) -0.31377(3)
Ag1_2 Ag -0.25167(6) -0.94557(3) -0.68623(3)
Ag1_3 Ag -0.25167(6) 1.05443(3) 0.31377(3)
Ag1_4 Ag 0.74833(6) 1.05443(3) 0.31377(3)
Ag1A_2 Ag 0.25167(6) -1.05443(3) -0.31377(3)
Ag1A_3 Ag 0.25167(6) -0.05443(3) -0.31377(3)
Ag1A_4 Ag 0.25167(6) 0.94557(3) 0.68623(3)
O2_2 O -0.5921(5) -0.2478(3) 0.2347(3)
O3_2 O -0.8110(5) -1.1009(3) -0.6065(3)
O3_3 O 0.1890(5) -0.1009(3) 0.3935(3)
O3A_2 O -1.1890(5) -0.8991(3) -0.3935(3)
O3A_3 O -0.1890(5) 0.1009(3) 0.6065(3)
O4_2 O -1.1782(5) -1.3236(3) -0.5233(3)
O4A_2 O 0.1782(5) 0.3236(3) 0.5233(3)
O5A_2 O -0.6222(5) -1.3826(3) -0.3161(3)
N2A_2 N -0.9468(6) -1.2032(4) -0.1542(3)
loop_
_geom_bond_atom_site_label_1
_geom_bond_atom_site_label_2
_geom_bond_site_symmetry_1
_geom_bond_site_symmetry_2
Ag1 O5 1_555 1_555
O1 N1 1_555 1_555
N1 C2 1_555 1_555
O2 N3 1_555 1_555
O3 N3 1_555 1_555
O4 N4 1_555 1_555
O5 N4 1_555 1_555
N2 Ag1 1_555 1_555
N3 C3 1_555 1_555
N4 C3 1_555 1_555
C1 O1 1_555 1_555
C2 N2 1_555 1_555
C3 C1 1_555 1_555
O1A N1A 1_555 1_555
N1A C2A 1_555 1_555
O2A N3A 1_555 1_555
O3A N3A 1_555 1_555
O4A N4A 1_555 1_555
O5A N4A 1_555 1_555
N2A C1A 1_555 1_555
N3A C3A 1_555 1_555
N4A C3A 1_555 1_555
C1A O1A 1_555 1_555
C2A C2 1_555 1_555
C3A C1A 1_555 1_555
Ag1A O2A 1_555 1_555
Ag1_2 O3A 1_555 1_555
Ag1_3 O3 1_555 1_555
Ag1_4 O2 1_555 1_555
Ag1A_2 O3A 1_555 1_555
Ag1A_3 O5A 1_555 1_555
Ag1A_4 O3 1_555 1_555
O2_2 Ag1 1_555 1_555
O3_2 Ag1A 1_555 1_555
O3_3 Ag1 1_555 1_555
O3A_2 Ag1A 1_555 1_555
O3A_3 Ag1 1_555 1_555
O4_2 Ag1A 1_555 1_555
O4A_2 Ag1 1_555 1_555
O5A_2 Ag1A 1_555 1_555
N2A_2 Ag1A 1_555 1_555
O4 Ag1A_4 1_555 1_555
N2 C1 1_555 1_555
O4A Ag1_2 1_555 1_555
N2A C2A 1_555 1_555
N2A Ag1A_3 1_555 1_555

#END
