
#######################################################################
#
#                 Cambridge Crystallographic Data Centre
#                                CCDC 
#
#######################################################################
#
# If this CIF has been generated from an entry in the Cambridge 
# Structural Database, then it will include bibliographic, chemical, 
# crystal, experimental, refinement or atomic coordinate data resulting 
# from the CCDC's data processing and validation procedures.
#
#######################################################################

data_VOCFUQ
_symmetry_cell_setting           orthorhombic
_symmetry_space_group_name_H-M   'P c a 21'
_symmetry_Int_Tables_number      29
_space_group_name_Hall           'P 2c -2ac'
loop_
_symmetry_equiv_pos_site_id
_symmetry_equiv_pos_as_xyz
1 x,y,z
2 -x,-y,1/2+z
3 1/2+x,-y,z
4 1/2-x,y,1/2+z
_cell_length_a                   20.125(5)
_cell_length_b                   21.665(6)
_cell_length_c                   26.558(7)
_cell_angle_alpha                90
_cell_angle_beta                 90
_cell_angle_gamma                90
_cell_volume                     11579.5
loop_
_atom_site_label
_atom_site_type_symbol
_atom_site_fract_x
_atom_site_fract_y
_atom_site_fract_z
Cd1 Cd 0.913472(18) 0.15367(2) 0.22817(2)
Cd2 Cd 0.46561(2) 0.29547(2) 0.185079(18)
Cd3 Cd 0.36446(2) 0.29233(2) 0.299614(18)
Na1 Na 1.04931(11) 0.22931(13) 0.26745(11)
Na2 Na 0.78066(11) 0.23498(12) 0.19409(12)
Na3 Na 0.63329(11) 0.29028(11) 0.17216(11)
Na4 Na 0.19356(11) 0.28459(12) 0.30542(10)
C1 C 0.9456(3) 0.2644(4) 0.1656(3)
C2 C 0.9858(3) 0.3141(4) 0.1397(3)
C3 C 0.9534(4) 0.3617(4) 0.1140(4)
H1 H 0.9072 0.3639 0.1147
C4 C 0.9887(4) 0.4052(4) 0.0878(3)
H2 H 0.9663 0.4359 0.0700
C5 C 1.0576(4) 0.4039(4) 0.0876(3)
H3 H 1.0813 0.4332 0.0693
C6 C 1.0913(3) 0.3587(4) 0.1147(3)
C7 C 1.0538(3) 0.3127(4) 0.1398(3)
H4 H 1.0757 0.2811 0.1566
C8 C 1.1643(3) 0.3572(4) 0.1155(3)
C9 C 1.1975(3) 0.3453(3) 0.1599(3)
H5 H 1.1737 0.3388 0.1895
C10 C 1.2687(3) 0.3431(3) 0.1606(3)
C11 C 1.3035(4) 0.3504(4) 0.1163(3)
H6 H 1.3495 0.3467 0.1163
C12 C 1.2699(4) 0.3632(4) 0.0716(3)
H7 H 1.2938 0.3698 0.0421
C13 C 1.2012(3) 0.3662(4) 0.0709(3)
H8 H 1.1791 0.3742 0.0408
C14 C 1.3019(3) 0.3320(3) 0.2096(3)
C15 C 0.8846(3) 0.2550(4) 0.2979(3)
C16 C 0.8515(4) 0.3057(4) 0.3282(3)
C17 C 0.8904(4) 0.3478(4) 0.3529(4)
H9 H 0.9363 0.3428 0.3525
C18 C 0.8639(4) 0.3971(5) 0.3781(4)
H10 H 0.8910 0.4272 0.3922
C19 C 0.7944(4) 0.4008(4) 0.3819(4)
H11 H 0.7753 0.4311 0.4020
C20 C 0.7532(4) 0.3591(4) 0.3553(3)
C21 C 0.7839(4) 0.3124(4) 0.3284(3)
H12 H 0.7579 0.2849 0.3100
C22 C 0.6789(3) 0.3620(4) 0.3589(3)
C23 C 0.6489(4) 0.3812(4) 0.4039(3)
H13 H 0.6750 0.3949 0.4306
C24 C 0.5812(4) 0.3799(4) 0.4085(3)
H14 H 0.5620 0.3901 0.4393
C25 C 0.5401(4) 0.3636(4) 0.3681(3)
H15 H 0.4942 0.3619 0.3720
C26 C 0.5700(4) 0.3497(4) 0.3213(3)
C27 C 0.6400(4) 0.3487(4) 0.3170(3)
H16 H 0.6599 0.3392 0.2864
C28 C 0.5285(3) 0.3322(4) 0.2766(3)
C29 C 0.5013(4) 0.1937(4) 0.1323(3)
C30 C 0.5230(4) 0.1359(4) 0.1051(3)
C31 C 0.4775(4) 0.0984(4) 0.0798(3)
H17 H 0.4326 0.1086 0.0786
C32 C 0.5012(4) 0.0455(4) 0.0566(3)
H18 H 0.4715 0.0185 0.0412
C33 C 0.5680(4) 0.0325(4) 0.0560(3)
H19 H 0.5830 -0.0005 0.0366
C34 C 0.6139(4) 0.0664(4) 0.0831(3)
C35 C 0.5905(4) 0.1178(4) 0.1068(3)
H20 H 0.6203 0.1421 0.1249
C36 C 0.6850(4) 0.0485(4) 0.0846(3)
C37 C 0.7135(4) 0.0082(4) 0.0500(3)
H21 H 0.6865 -0.0100 0.0257
C38 C 0.7794(4) -0.0057(4) 0.0504(3)
H22 H 0.7968 -0.0325 0.0264
C39 C 0.8211(4) 0.0206(4) 0.0869(3)
H23 H 0.8660 0.0105 0.0881
C40 C 0.7945(4) 0.0614(4) 0.1208(3)
C41 C 0.7274(4) 0.0738(4) 0.1213(3)
H24 H 0.7099 0.0993 0.1462
C42 C 0.8383(4) 0.0918(3) 0.1592(3)
C43 C 0.5248(3) 0.3758(3) 0.1026(3)
C44 C 0.5221(3) 0.4162(3) 0.0571(2)
C45 C 0.4616(3) 0.4277(3) 0.0328(3)
H25 H 0.4219 0.4136 0.0466
C46 C 0.4614(3) 0.4602(4) -0.0119(3)
H26 H 0.4219 0.4643 -0.0298
C47 C 0.5191(3) 0.4867(3) -0.0307(3)
H27 H 0.5172 0.5102 -0.0600
C48 C 0.5810(3) 0.4784(3) -0.0058(2)
C49 C 0.5804(3) 0.4410(3) 0.0369(2)
H28 H 0.6206 0.4321 0.0526
C50 C 0.6427(3) 0.5082(3) -0.0243(2)
C51 C 0.7049(3) 0.4927(3) -0.0037(2)
H29 H 0.7071 0.4635 0.0220
C52 C 0.7623(3) 0.5196(3) -0.0206(3)
H30 H 0.8029 0.5082 -0.0066
C53 C 0.7604(3) 0.5640(3) -0.0585(2)
H31 H 0.7995 0.5829 -0.0691
C54 C 0.7006(3) 0.5800(3) -0.0805(2)
C55 C 0.6422(3) 0.5511(3) -0.0634(2)
H32 H 0.6019 0.5609 -0.0787
C56 C 0.6980(3) 0.6273(3) -0.1224(2)
C57 C -0.0167(3) 0.0917(3) 0.2981(3)
C58 C 0.0239(4) 0.0627(4) 0.3402(3)
C59 C -0.0069(4) 0.0285(4) 0.3766(3)
H33 H -0.0527 0.0229 0.3751
C60 C 0.0292(4) 0.0016(4) 0.4161(3)
H34 H 0.0081 -0.0234 0.4397
C61 C 0.0960(4) 0.0128(4) 0.4193(3)
H35 H 0.1201 -0.0030 0.4463
C62 C 0.1293(4) 0.0487(4) 0.3815(3)
C63 C 0.0923(4) 0.0723(4) 0.3426(3)
H36 H 0.1131 0.0951 0.3174
C64 C 0.2031(4) 0.0608(4) 0.3836(3)
C65 C 0.2462(4) 0.0168(4) 0.4060(3)
H37 H 0.2300 -0.0203 0.4186
C66 C 0.3157(4) 0.0317(4) 0.4086(3)
H38 H 0.3445 0.0051 0.4252
C67 C 0.3396(4) 0.0830(4) 0.3875(3)
H39 H 0.3852 0.0901 0.3877
C68 C 0.2974(3) 0.1265(4) 0.3651(3)
C69 C 0.2294(4) 0.1146(4) 0.3627(3)
H40 H 0.2013 0.1427 0.3470
C70 C 0.3245(4) 0.1852(4) 0.3429(3)
C71 C 0.6401(5) 0.1988(5) 0.2645(4)
H41 H 0.5972 0.2147 0.2633
C72 C 0.7201(6) 0.1312(6) 0.3073(5)
H42 H 0.7532 0.1572 0.2913
H43 H 0.7319 0.1273 0.3426
C73 C 0.7214(7) 0.0691(7) 0.2836(6)
H44 H 0.7650 0.0516 0.2871
H45 H 0.7106 0.0728 0.2485
H46 H 0.6895 0.0429 0.2998
C74 C 0.5997(6) 0.1456(6) 0.3404(5)
H47 H 0.5963 0.1012 0.3442
H48 H 0.5572 0.1614 0.3290
C75 C 0.6198(8) 0.1761(8) 0.3911(6)
H49 H 0.5867 0.1671 0.4161
H50 H 0.6231 0.2199 0.3867
H51 H 0.6619 0.1600 0.4018
C76 C 0.7227(5) 0.2147(5) 0.0789(3)
H52 H 0.7331 0.1731 0.0821
C77 C 0.7109(7) 0.3106(6) 0.0347(6)
H53 H 0.6831 0.3198 0.0636
H54 H 0.6893 0.3269 0.0048
C78 C 0.7787(7) 0.3402(7) 0.0411(7)
H55 H 0.7739 0.3842 0.0425
H56 H 0.8065 0.3292 0.0131
H57 H 0.7986 0.3257 0.0718
C79 C 0.7345(7) 0.2131(7) -0.0202(5)
H58 H 0.7382 0.2452 -0.0455
H59 H 0.7769 0.1919 -0.0184
C80 C 0.6823(9) 0.1683(7) -0.0360(6)
H60 H 0.6981 0.1446 -0.0640
H61 H 0.6429 0.1903 -0.0456
H62 H 0.6723 0.1412 -0.0084
C81 C 0.7746(5) 0.3801(4) 0.2096(4)
H63 H 0.8120 0.3687 0.2279
C82 C 0.3986(5) 0.1745(4) 0.2239(4)
H64 H 0.3640 0.1856 0.2025
C83 C 0.3654(5) 0.0767(6) 0.2042(4)
H65 H 0.3490 0.1036 0.1777
H66 H 0.3861 0.0411 0.1886
C84 C 0.3088(6) 0.0563(6) 0.2370(5)
H67 H 0.2778 0.0327 0.2174
H68 H 0.2868 0.0919 0.2507
H69 H 0.3256 0.0313 0.2640
C85 C 0.4625(5) 0.0769(6) 0.2671(4)
H70 H 0.4409 0.0412 0.2820
H71 H 0.4780 0.1033 0.2942
C86 C 0.5214(6) 0.0559(7) 0.2351(5)
H72 H 0.5527 0.0344 0.2560
H73 H 0.5425 0.0913 0.2203
H74 H 0.5060 0.0289 0.2090
C87 C 0.0560(10) 0.3763(8) 0.2600(7)
H75 H 0.0204 0.3679 0.2387
C88 C 0.0699(6) 0.2220(6) 0.3830(4)
H76 H 0.0314 0.2004 0.3749
C89 C 0.0408(8) 0.2120(7) 0.4742(6)
H77 H 0.0140 0.1781 0.4615
H78 H 0.0700 0.1954 0.4999
C90 C -0.0029(8) 0.2569(8) 0.4973(7)
H79 H -0.0305 0.2368 0.5218
H80 H -0.0303 0.2754 0.4718
H81 H 0.0232 0.2882 0.5134
C91 C 0.1417(7) 0.2710(8) 0.4481(6)
H82 H 0.1573 0.2952 0.4197
H83 H 0.1305 0.2993 0.4751
C92 C 0.1888(8) 0.2348(8) 0.4629(6)
H84 H 0.2271 0.2589 0.4717
H85 H 0.2000 0.2067 0.4363
H86 H 0.1742 0.2119 0.4918
C93 C 0.1939(6) 0.1975(5) 0.2037(5)
H87 H 0.2362 0.2147 0.2054
C94 C 0.1206(7) 0.1328(6) 0.1610(5)
H88 H 0.0903 0.1539 0.1835
H89 H 0.1050 0.1405 0.1270
C95 C 0.1137(8) 0.0709(6) 0.1697(6)
H90 H 0.0680 0.0593 0.1655
H91 H 0.1275 0.0618 0.2035
H92 H 0.1408 0.0483 0.1464
O1 O 0.8835(2) 0.2642(3) 0.1599(3)
O2 O 0.9785(2) 0.2242(2) 0.1899(2)
O3 O 1.3632(3) 0.3256(5) 0.2107(3)
O4 O 1.2717(3) 0.3277(3) 0.24823(19)
O5 O 0.8487(2) 0.2233(2) 0.2694(2)
O6 O 0.9466(2) 0.2484(3) 0.3009(3)
O7 O 0.4685(3) 0.3349(4) 0.2795(3)
O8 O 0.5551(3) 0.3251(3) 0.2357(2)
O9 O 0.5428(3) 0.2213(3) 0.1593(3)
O10 O 0.4427(3) 0.2128(3) 0.1275(3)
O11 O 0.8129(2) 0.1319(2) 0.1877(2)
O12 O 0.9000(3) 0.0771(3) 0.1623(3)
O13 O 0.5810(3) 0.3574(3) 0.1178(3)
O14 O 0.4697(2) 0.3667(3) 0.1254(2)
O15 O 0.7507(3) 0.6523(3) -0.1357(2)
O16 O 0.6412(2) 0.6388(3) -0.1405(2)
O17 O 0.0136(2) 0.1264(2) 0.2671(2)
O18 O -0.0776(2) 0.0804(3) 0.2956(3)
O19 O 0.3816(3) 0.2026(3) 0.3532(2)
O20 O 0.2862(3) 0.2162(3) 0.3140(3)
O21 O 0.6763(2) 0.2144(3) 0.2312(2)
O22 O 0.7112(3) 0.2457(4) 0.1170(2)
O23 O 0.7353(3) 0.3391(3) 0.1985(3)
O24 O 0.4346(4) 0.2120(3) 0.2446(3)
O25 O 0.0930(3) 0.3353(3) 0.2702(3)
O26 O 0.1056(3) 0.2357(3) 0.3502(2)
O27 O 0.1554(3) 0.2115(3) 0.2377(2)
N1 N 0.6535(4) 0.1617(4) 0.3033(3)
N2 N 0.7201(6) 0.2424(5) 0.0297(3)
N3 N 0.7678(5) 0.4446(4) 0.1969(5)
N4 N 0.4152(4) 0.1105(3) 0.2360(3)
N5 N 0.0633(6) 0.4377(5) 0.2785(5)
N6 N 0.0813(6) 0.2360(6) 0.4330(4)
N7 N 0.1823(4) 0.1615(4) 0.1656(3)
C96 C 0.0893(7) 0.4462(8) 0.3322(6)
H93 H 0.0567 0.4703 0.3507
H94 H 0.0910 0.4058 0.3479
C97 C 0.1540(8) 0.4755(9) 0.3393(8)
H95 H 0.1654 0.4752 0.3744
H96 H 0.1522 0.5173 0.3275
H97 H 0.1871 0.4532 0.3207
C98 C 0.2322(7) 0.1519(6) 0.1282(5)
H98 H 0.2371 0.1079 0.1224
H99 H 0.2743 0.1674 0.1407
C99 C 0.2153(8) 0.1850(7) 0.0760(6)
H100 H 0.2494 0.1759 0.0519
H101 H 0.2128 0.2288 0.0811
H102 H 0.1733 0.1702 0.0637
C100 C 0.0162(8) 0.4878(8) 0.2606(7)
H103 H 0.0415 0.5252 0.2546
H104 H -0.0030 0.4751 0.2288
C101 C 0.8273(6) 0.4830(7) 0.2129(5)
H105 H 0.8323 0.5188 0.1913
H106 H 0.8678 0.4588 0.2114
C102 C 0.8127(9) 0.5029(8) 0.2671(5)
H107 H 0.7705 0.4866 0.2774
H108 H 0.8117 0.5471 0.2690
H109 H 0.8468 0.4874 0.2890
C103 C 0.7179(6) 0.4607(8) 0.1580(5)
H110 H 0.7191 0.4285 0.1327
H111 H 0.7328 0.4984 0.1418
C104 C 0.6474(6) 0.4699(8) 0.1722(6)
H112 H 0.6225 0.4824 0.1432
H113 H 0.6445 0.5012 0.1977
H114 H 0.6296 0.4319 0.1851
C105 C -0.0391(7) 0.5024(9) 0.2966(7)
H115 H -0.0690 0.5314 0.2813
H116 H -0.0210 0.5199 0.3268
H117 H -0.0628 0.4652 0.3047
Cd1_2 Cd -0.086528(18) 0.15367(2) 0.22817(2)
Cd2_2 Cd 1.46561(2) 0.29547(2) 0.185079(18)
Cd3_2 Cd 1.36446(2) 0.29233(2) 0.299614(18)
Cd3A Cd 0.63554(2) 0.70767(2) -0.200386(18)
Na1_2 Na 0.04931(11) 0.22931(13) 0.26745(11)
Na4_2 Na 1.19356(11) 0.28459(12) 0.30542(10)
Na4A Na 0.80644(11) 0.71541(12) -0.19458(10)
O3_2 O 0.3632(3) 0.3256(5) 0.2107(3)
O4_2 O 0.2717(3) 0.3277(3) 0.24823(19)
O15A O 0.2493(3) 0.3477(3) 0.3643(2)
O16A O 0.3588(2) 0.3612(3) 0.3595(2)
O17_2 O 1.0136(2) 0.1264(2) 0.2671(2)
O18_2 O 0.9224(2) 0.0804(3) 0.2956(3)
O25_2 O 1.0930(3) 0.3353(3) 0.2702(3)
O26_2 O 1.1056(3) 0.2357(3) 0.3502(2)
O27_2 O 1.1554(3) 0.2115(3) 0.2377(2)
C106 C 0.5283(11) -0.2551(10) -0.0322(9)
H118 H 0.4997 -0.2650 -0.0586
C107 C 0.4885(11) -0.1817(10) 0.0445(8)
H119 H 0.4929 -0.2183 0.0652
H120 H 0.5097 -0.1485 0.0630
C108 C 0.4200(10) -0.1675(10) 0.0438(9)
H121 H 0.4038 -0.1647 0.0778
H122 H 0.3964 -0.1994 0.0263
H123 H 0.4133 -0.1288 0.0270
O28 O 0.578(2) -0.289(2) -0.0137(15)
N8 N 0.5287(7) -0.1921(5) 0.0014(5)
C109 C 0.5688(8) -0.0964(5) -0.0095(6)
H124 H 0.5996 -0.0721 -0.0286
H125 H 0.5902 -0.1115 0.0203
H126 H 0.5313 -0.0714 -0.0002
C110 C 0.5464(11) -0.1482(7) -0.0397(6)
H127 H 0.5815 -0.1642 -0.0610
H128 H 0.5081 -0.1375 -0.0601
loop_
_geom_bond_atom_site_label_1
_geom_bond_atom_site_label_2
_geom_bond_site_symmetry_1
_geom_bond_site_symmetry_2
Cd1 O2 1_555 1_555
Cd2 O7 1_555 1_555
Cd3 O7 1_555 1_555
Na1 O2 1_555 1_555
Na2 O1 1_555 1_555
Na3 O8 1_555 1_555
Na4 O20 1_555 1_555
C1 C2 1_555 1_555
C2 C3 1_555 1_555
C3 H1 1_555 1_555
C4 C3 1_555 1_555
H2 C4 1_555 1_555
C5 C4 1_555 1_555
H3 C5 1_555 1_555
C6 C5 1_555 1_555
C7 C2 1_555 1_555
H4 C7 1_555 1_555
C8 C6 1_555 1_555
C9 C8 1_555 1_555
H5 C9 1_555 1_555
C10 C9 1_555 1_555
C11 C10 1_555 1_555
H6 C11 1_555 1_555
C12 C11 1_555 1_555
H7 C12 1_555 1_555
C13 C8 1_555 1_555
H8 C13 1_555 1_555
C14 C10 1_555 1_555
C15 C16 1_555 1_555
C16 C17 1_555 1_555
C17 H9 1_555 1_555
C18 C17 1_555 1_555
H10 C18 1_555 1_555
C19 C18 1_555 1_555
H11 C19 1_555 1_555
C20 C19 1_555 1_555
C21 C16 1_555 1_555
H12 C21 1_555 1_555
C22 C20 1_555 1_555
C23 C22 1_555 1_555
H13 C23 1_555 1_555
C24 C23 1_555 1_555
H14 C24 1_555 1_555
C25 C24 1_555 1_555
H15 C25 1_555 1_555
C26 C25 1_555 1_555
C27 C22 1_555 1_555
H16 C27 1_555 1_555
C28 C26 1_555 1_555
C29 C30 1_555 1_555
C30 C31 1_555 1_555
C31 H17 1_555 1_555
C32 C31 1_555 1_555
H18 C32 1_555 1_555
C33 C32 1_555 1_555
H19 C33 1_555 1_555
C34 C33 1_555 1_555
C35 C30 1_555 1_555
H20 C35 1_555 1_555
C36 C34 1_555 1_555
C37 C36 1_555 1_555
H21 C37 1_555 1_555
C38 C37 1_555 1_555
H22 C38 1_555 1_555
C39 C38 1_555 1_555
H23 C39 1_555 1_555
C40 C39 1_555 1_555
C41 C36 1_555 1_555
H24 C41 1_555 1_555
C42 C40 1_555 1_555
C43 C44 1_555 1_555
C44 C45 1_555 1_555
C45 H25 1_555 1_555
C46 C45 1_555 1_555
H26 C46 1_555 1_555
C47 C46 1_555 1_555
H27 C47 1_555 1_555
C48 C47 1_555 1_555
C49 C44 1_555 1_555
H28 C49 1_555 1_555
C50 C48 1_555 1_555
C51 C50 1_555 1_555
H29 C51 1_555 1_555
C52 C51 1_555 1_555
H30 C52 1_555 1_555
C53 C52 1_555 1_555
H31 C53 1_555 1_555
C54 C53 1_555 1_555
C55 C50 1_555 1_555
H32 C55 1_555 1_555
C56 C54 1_555 1_555
C57 C58 1_555 1_555
C58 C59 1_555 1_555
C59 H33 1_555 1_555
C60 C59 1_555 1_555
H34 C60 1_555 1_555
C61 C60 1_555 1_555
H35 C61 1_555 1_555
C62 C61 1_555 1_555
C63 C58 1_555 1_555
H36 C63 1_555 1_555
C64 C62 1_555 1_555
C65 C64 1_555 1_555
H37 C65 1_555 1_555
C66 C65 1_555 1_555
H38 C66 1_555 1_555
C67 C66 1_555 1_555
H39 C67 1_555 1_555
C68 C67 1_555 1_555
C69 C64 1_555 1_555
H40 C69 1_555 1_555
C70 C68 1_555 1_555
C71 H41 1_555 1_555
C72 H42 1_555 1_555
H43 C72 1_555 1_555
C73 C72 1_555 1_555
H44 C73 1_555 1_555
H45 C73 1_555 1_555
H46 C73 1_555 1_555
C74 H47 1_555 1_555
H48 C74 1_555 1_555
C75 C74 1_555 1_555
H49 C75 1_555 1_555
H50 C75 1_555 1_555
H51 C75 1_555 1_555
C76 H52 1_555 1_555
C77 H53 1_555 1_555
H54 C77 1_555 1_555
C78 C77 1_555 1_555
H55 C78 1_555 1_555
H56 C78 1_555 1_555
H57 C78 1_555 1_555
C79 H58 1_555 1_555
H59 C79 1_555 1_555
C80 C79 1_555 1_555
H60 C80 1_555 1_555
H61 C80 1_555 1_555
H62 C80 1_555 1_555
C81 H63 1_555 1_555
C82 H64 1_555 1_555
C83 H65 1_555 1_555
H66 C83 1_555 1_555
C84 C83 1_555 1_555
H67 C84 1_555 1_555
H68 C84 1_555 1_555
H69 C84 1_555 1_555
C85 H70 1_555 1_555
H71 C85 1_555 1_555
C86 C85 1_555 1_555
H72 C86 1_555 1_555
H73 C86 1_555 1_555
H74 C86 1_555 1_555
C87 H75 1_555 1_555
C88 H76 1_555 1_555
C89 H77 1_555 1_555
H78 C89 1_555 1_555
C90 C89 1_555 1_555
H79 C90 1_555 1_555
H80 C90 1_555 1_555
H81 C90 1_555 1_555
C91 H82 1_555 1_555
H83 C91 1_555 1_555
C92 C91 1_555 1_555
H84 C92 1_555 1_555
H85 C92 1_555 1_555
H86 C92 1_555 1_555
C93 H87 1_555 1_555
C94 H88 1_555 1_555
H89 C94 1_555 1_555
C95 C94 1_555 1_555
H90 C95 1_555 1_555
H91 C95 1_555 1_555
H92 C95 1_555 1_555
O1 C1 1_555 1_555
O2 C1 1_555 1_555
O3 C14 1_555 1_555
O4 C14 1_555 1_555
O5 Cd1 1_555 1_555
O6 Na1 1_555 1_555
O7 C28 1_555 1_555
O8 Cd2 1_555 1_555
O9 Cd2 1_555 1_555
O10 Cd2 1_555 1_555
O11 Cd1 1_555 1_555
O12 Cd1 1_555 1_555
O13 Na3 1_555 1_555
O14 Cd2 1_555 1_555
O15 C56 1_555 1_555
O16 C56 1_555 1_555
O17 C57 1_555 1_555
O18 C57 1_555 1_555
O19 Cd3 1_555 1_555
O20 Cd3 1_555 1_555
O21 Na2 1_555 1_555
O22 Na2 1_555 1_555
O23 Na2 1_555 1_555
O24 Cd2 1_555 1_555
O25 Na4 1_555 1_555
O26 Na4 1_555 1_555
O27 Na4 1_555 1_555
N1 C71 1_555 1_555
N2 C76 1_555 1_555
N3 C81 1_555 1_555
N4 C82 1_555 1_555
N5 C87 1_555 1_555
N6 C88 1_555 1_555
N7 C93 1_555 1_555
C96 N5 1_555 1_555
H93 C96 1_555 1_555
H94 C96 1_555 1_555
C97 C96 1_555 1_555
H95 C97 1_555 1_555
H96 C97 1_555 1_555
H97 C97 1_555 1_555
C98 N7 1_555 1_555
H98 C98 1_555 1_555
H99 C98 1_555 1_555
C99 C98 1_555 1_555
H100 C99 1_555 1_555
H101 C99 1_555 1_555
H102 C99 1_555 1_555
C100 N5 1_555 1_555
H103 C100 1_555 1_555
H104 C100 1_555 1_555
C101 N3 1_555 1_555
H105 C101 1_555 1_555
H106 C101 1_555 1_555
C102 C101 1_555 1_555
H107 C102 1_555 1_555
H108 C102 1_555 1_555
H109 C102 1_555 1_555
C103 N3 1_555 1_555
H110 C103 1_555 1_555
H111 C103 1_555 1_555
C104 C103 1_555 1_555
H112 C104 1_555 1_555
H113 C104 1_555 1_555
H114 C104 1_555 1_555
C105 C100 1_555 1_555
H115 C105 1_555 1_555
H116 C105 1_555 1_555
H117 C105 1_555 1_555
C106 H118 1_555 1_555
C107 H119 1_555 1_555
H120 C107 1_555 1_555
C108 C107 1_555 1_555
H121 C108 1_555 1_555
H122 C108 1_555 1_555
H123 C108 1_555 1_555
O28 C106 1_555 1_555
N8 C106 1_555 1_555
C109 H124 1_555 1_555
H125 C109 1_555 1_555
H126 C109 1_555 1_555
C110 N8 1_555 1_555
H127 C110 1_555 1_555
H128 C110 1_555 1_555
Cd1_2 O17 1_555 1_555
Cd2_2 O3 1_555 1_555
Cd3_2 O3 1_555 1_555
Cd3A O16 1_555 1_555
Na1_2 O17 1_555 1_555
Na4_2 O4 1_555 1_555
Na4A O15 1_555 1_555
O3_2 Cd2 1_555 1_555
O4_2 Cd3 1_555 1_555
O15A Na4 1_555 1_555
O16A Cd3 1_555 1_555
O17_2 Cd1 1_555 1_555
O18_2 Cd1 1_555 1_555
O25_2 Na1 1_555 1_555
O26_2 Na1 1_555 1_555
O27_2 Na1 1_555 1_555
Cd3 O24 1_555 1_555
Cd3 O3_2 1_555 1_555
Na1 O17_2 1_555 1_555
Na2 O5 1_555 1_555
Na2 O11 1_555 1_555
Na3 O9 1_555 1_555
Na3 O21 1_555 1_555
Na3 O22 1_555 1_555
Na3 O23 1_555 1_555
Na4 O4_2 1_555 1_555
C6 C7 1_555 1_555
C12 C13 1_555 1_555
C15 O5 1_555 1_555
C15 O6 1_555 1_555
C20 C21 1_555 1_555
C26 C27 1_555 1_555
C28 O8 1_555 1_555
C29 O9 1_555 1_555
C29 O10 1_555 1_555
C34 C35 1_555 1_555
C40 C41 1_555 1_555
C42 O11 1_555 1_555
C42 O12 1_555 1_555
C43 O13 1_555 1_555
C43 O14 1_555 1_555
C48 C49 1_555 1_555
C54 C55 1_555 1_555
C62 C63 1_555 1_555
C68 C69 1_555 1_555
C70 O19 1_555 1_555
C70 O20 1_555 1_555
C71 O21 1_555 1_555
C72 N1 1_555 1_555
C74 N1 1_555 1_555
C76 O22 1_555 1_555
C77 N2 1_555 1_555
C79 N2 1_555 1_555
C81 O23 1_555 1_555
C82 O24 1_555 1_555
C83 N4 1_555 1_555
C85 N4 1_555 1_555
C87 O25 1_555 1_555
C88 O26 1_555 1_555
C89 N6 1_555 1_555
C91 N6 1_555 1_555
C93 O27 1_555 1_555
C94 N7 1_555 1_555
O4 Cd3_2 1_555 1_555
O18 Cd1_2 1_555 1_555
O25 Na1_2 1_555 1_555
O26 Na1_2 1_555 1_555
O27 Na1_2 1_555 1_555
C107 N8 1_555 1_555
C109 C110 1_555 1_555
Na4_2 O25_2 1_555 1_555
Na4_2 O26_2 1_555 1_555
Na4_2 O27_2 1_555 1_555

#END
