
#######################################################################
#
#                 Cambridge Crystallographic Data Centre
#                                CCDC 
#
#######################################################################
#
# If this CIF has been generated from an entry in the Cambridge 
# Structural Database, then it will include bibliographic, chemical, 
# crystal, experimental, refinement or atomic coordinate data resulting 
# from the CCDC's data processing and validation procedures.
#
#######################################################################

data_VOCGUR
_symmetry_cell_setting           monoclinic
_symmetry_space_group_name_H-M   'P 21/c'
_symmetry_Int_Tables_number      14
_space_group_name_Hall           '-P 2ybc'
loop_
_symmetry_equiv_pos_site_id
_symmetry_equiv_pos_as_xyz
1 x,y,z
2 -x,1/2+y,1/2-z
3 -x,-y,-z
4 x,1/2-y,1/2+z
_cell_length_a                   11.3741(7)
_cell_length_b                   17.2718(11)
_cell_length_c                   17.6846(8)
_cell_angle_alpha                90
_cell_angle_beta                 127.324(3)
_cell_angle_gamma                90
_cell_volume                     2762.72
loop_
_atom_site_label
_atom_site_type_symbol
_atom_site_fract_x
_atom_site_fract_y
_atom_site_fract_z
Cu1 Cu 0.30936(3) -0.436318(13) 0.092203(17)
C1 C 0.2848(2) -0.54956(11) 0.16010(14)
C2 C 0.2823(2) -0.62244(11) 0.20569(14)
C3 C 0.3841(2) -0.68126(11) 0.23034(13)
H1 H 0.4490 -0.6761 0.2152
C4 C 0.3898(2) -0.74757(11) 0.27728(14)
C5 C 0.5000(2) -0.81066(11) 0.30116(14)
C6 C 0.2933(2) -0.75456(11) 0.30054(14)
H2 H 0.2990 -0.7976 0.3342
C7 C 0.1880(2) -0.69737(11) 0.27369(15)
C8 C 0.0810(3) -0.70997(12) 0.29514(17)
C9 C 0.1815(2) -0.63147(11) 0.22511(14)
H3 H 0.1100 -0.5938 0.2059
C10 C 0.0747(3) -0.33100(13) 0.04101(17)
H4 H 0.0614 -0.3658 0.0753
C11 C -0.0113(3) -0.26539(13) 0.00572(16)
H5 H -0.0814 -0.2564 0.0158
C12 C 0.0084(2) -0.21247(12) -0.04549(14)
C13 C 0.1125(3) -0.22987(13) -0.05969(17)
H6 H 0.1270 -0.1966 -0.0947
C14 C 0.1947(3) -0.29684(13) -0.02166(17)
H7 H 0.2652 -0.3076 -0.0310
C15 C -0.0785(2) -0.13991(12) -0.08459(15)
C16 C -0.1324(3) -0.10418(12) -0.04159(15)
H8 H -0.1170 -0.1263 0.0117
C17 C -0.2100(2) -0.03479(12) -0.07840(15)
C18 C -0.2340(2) -0.00626(12) -0.16024(15)
H9 H -0.2850 0.0399 -0.1870
C19 C -0.1812(2) -0.04714(12) -0.20213(14)
C20 C -0.2641(2) 0.00635(12) -0.03105(15)
C21 C -0.2041(3) -0.00786(15) 0.06375(18)
H10 H -0.1265 -0.0429 0.0988
C22 C -0.2573(3) 0.02878(15) 0.10590(17)
H11 H -0.2169 0.0177 0.1688
C23 C -0.3706(3) 0.08202(16) 0.05586(18)
C24 C -0.4271(4) 0.1239(2) 0.1008(2)
C25 C -0.4324(4) 0.0958(2) -0.0385(2)
H12 H -0.5111 0.1302 -0.0737
C26 C -0.3786(4) 0.05905(17) -0.08065(19)
H13 H -0.4201 0.0698 -0.1438
C27 C -0.2118(2) -0.02148(11) -0.29278(14)
C28 C -0.3282(2) 0.02784(11) -0.35520(14)
H14 H -0.3891 0.0465 -0.3407
C29 C -0.3527(2) 0.04892(12) -0.43905(15)
H15 H -0.4308 0.0823 -0.4799
C30 C -0.1577(3) -0.02356(14) -0.40390(16)
H16 H -0.0980 -0.0408 -0.4200
C31 C -0.1256(3) -0.04827(14) -0.31926(17)
H17 H -0.0476 -0.0823 -0.2803
N1 N 0.17627(19) -0.34696(10) 0.02828(12)
N2 N -0.1008(2) -0.11222(10) -0.16354(12)
N3 N -0.27029(19) 0.02403(10) -0.46453(12)
O1 O 0.17767(17) -0.50409(9) 0.11738(12)
O2 O 0.39858(18) -0.53318(9) 0.16660(12)
O3 O 0.57824(19) -0.80092(9) 0.27421(12)
O4 O 0.50915(16) -0.86863(8) 0.34894(11)
O5 O 0.0917(2) -0.76295(12) 0.34349(17)
O6 O -0.0256(2) -0.65801(11) 0.25630(16)
H18 H -0.091(3) -0.6728(18) 0.262(2)
O7 O -0.3659(3) 0.10366(14) 0.18778(16)
H19 H -0.380(4) 0.1372(17) 0.217(2)
O8 O -0.5447(4) 0.1613(2) 0.0539(2)
Cu1A Cu -0.30936(3) 0.063682(13) -0.592203(17)
Cu1A_2 Cu 0.69064(3) -0.936318(13) 0.407797(17)
N3A N 0.27029(19) -0.47597(10) -0.03547(12)
O4A O 0.49085(16) -0.36863(8) 0.15106(11)
O10 O -0.4329(7) -0.1786(3) 0.4509(4)
O11 O -0.7385(3) -0.18952(15) 0.2503(2)
H20 H -0.724(4) -0.2226(18) 0.222(2)
H21 H -0.680(4) -0.199(2) 0.3096(8)
O9? O -0.4297(11) 0.2029(4) 0.0919(6)
loop_
_geom_bond_atom_site_label_1
_geom_bond_atom_site_label_2
_geom_bond_site_symmetry_1
_geom_bond_site_symmetry_2
Cu1 N1 1_555 1_555
C1 C2 1_555 1_555
C2 C3 1_555 1_555
C3 H1 1_555 1_555
C4 C3 1_555 1_555
C5 C4 1_555 1_555
C6 C4 1_555 1_555
H2 C6 1_555 1_555
C7 C6 1_555 1_555
C8 C7 1_555 1_555
C9 C2 1_555 1_555
H3 C9 1_555 1_555
C10 H4 1_555 1_555
C11 C10 1_555 1_555
H5 C11 1_555 1_555
C12 C11 1_555 1_555
C13 C12 1_555 1_555
H6 C13 1_555 1_555
C14 C13 1_555 1_555
H7 C14 1_555 1_555
C15 C12 1_555 1_555
C16 C15 1_555 1_555
H8 C16 1_555 1_555
C17 C16 1_555 1_555
C18 C17 1_555 1_555
H9 C18 1_555 1_555
C19 C18 1_555 1_555
C20 C17 1_555 1_555
C21 C20 1_555 1_555
H10 C21 1_555 1_555
C22 C21 1_555 1_555
H11 C22 1_555 1_555
C23 C22 1_555 1_555
C24 C23 1_555 1_555
C25 C23 1_555 1_555
H12 C25 1_555 1_555
C26 C20 1_555 1_555
H13 C26 1_555 1_555
C27 C19 1_555 1_555
C28 C27 1_555 1_555
H14 C28 1_555 1_555
C29 C28 1_555 1_555
H15 C29 1_555 1_555
C30 H16 1_555 1_555
C31 C27 1_555 1_555
H17 C31 1_555 1_555
N1 C10 1_555 1_555
N2 C15 1_555 1_555
N3 C29 1_555 1_555
O1 Cu1 1_555 1_555
O2 Cu1 1_555 1_555
O3 C5 1_555 1_555
O4 C5 1_555 1_555
O5 C8 1_555 1_555
O6 C8 1_555 1_555
H18 O6 1_555 1_555
O7 C24 1_555 1_555
H19 O7 1_555 1_555
O8 C24 1_555 1_555
O11 H20 1_555 1_555
H21 O11 1_555 1_555
Cu1A N3 1_555 1_555
Cu1A_2 O4 1_555 1_555
N3A Cu1 1_555 1_555
O4A Cu1 1_555 1_555
C1 O1 1_555 1_555
C1 O2 1_555 1_555
C7 C9 1_555 1_555
C14 N1 1_555 1_555
C19 N2 1_555 1_555
C25 C26 1_555 1_555
C30 C31 1_555 1_555
C30 N3 1_555 1_555

#END
