
#######################################################################
#
#                 Cambridge Crystallographic Data Centre
#                                CCDC 
#
#######################################################################
#
# If this CIF has been generated from an entry in the Cambridge 
# Structural Database, then it will include bibliographic, chemical, 
# crystal, experimental, refinement or atomic coordinate data resulting 
# from the CCDC's data processing and validation procedures.
#
#######################################################################

data_VOCLUV
_symmetry_cell_setting           triclinic
_symmetry_space_group_name_H-M   'P -1'
_symmetry_Int_Tables_number      2
_space_group_name_Hall           '-P 1'
loop_
_symmetry_equiv_pos_site_id
_symmetry_equiv_pos_as_xyz
1 x,y,z
2 -x,-y,-z
_cell_length_a                   6.7556(7)
_cell_length_b                   8.362(2)
_cell_length_c                   8.6526(9)
_cell_angle_alpha                76.909(17)
_cell_angle_beta                 71.051(9)
_cell_angle_gamma                69.101(16)
_cell_volume                     428.485
loop_
_atom_site_label
_atom_site_type_symbol
_atom_site_fract_x
_atom_site_fract_y
_atom_site_fract_z
Np1 Np 0.03587(4) 0.16326(3) 0.27375(3)
O1 O 0.2873(12) 0.1833(9) 0.2956(9)
O2 O -0.2095(12) 0.1419(10) 0.2465(10)
O3 O -0.1126(11) 0.1373(8) 0.5777(8)
O4 O -0.2512(13) 0.4194(8) 0.5933(8)
O5 O -0.2761(12) 0.0658(8) 0.8934(8)
O6 O -0.3792(13) 0.3404(8) 0.9313(8)
O7 O -0.1384(13) 0.4767(9) 0.2085(9)
O8 O -0.1454(11) 0.7157(8) 0.0224(7)
C1 C -0.2147(15) 0.2675(11) 0.6551(11)
C2 C -0.2975(14) 0.2243(9) 0.8453(11)
C3 C -0.0832(13) 0.5560(10) 0.0699(10)
Np1A Np -0.03587(4) -0.16326(3) 0.72625(3)
Np1A_2 Np -0.03587(4) 0.83674(3) -0.27375(3)
O1A O -0.2873(12) -0.1833(9) 0.7044(9)
O2A O 0.2095(12) -0.1419(10) 0.7535(10)
O3A O 0.1126(11) -0.1373(8) 0.4223(8)
O4A O 0.2512(13) -0.4194(8) 0.4067(8)
O5A O 0.2761(12) -0.0658(8) 0.1066(8)
O6A O 0.3792(13) -0.3404(8) 0.0687(8)
O7A O 0.1384(13) 0.5233(9) -0.2085(9)
O7A_2 O 0.1384(13) -0.4767(9) 0.7915(9)
O8A O 0.1454(11) 0.2843(8) -0.0224(7)
O8_2 O -0.1454(11) -0.2843(8) 1.0224(7)
C1A C 0.2147(15) -0.2675(11) 0.3449(11)
C2A C 0.2975(14) -0.2243(9) 0.1547(11)
C3A C 0.0832(13) 0.4440(10) -0.0699(10)
Na1 Na 0.3619(6) 0.0370(4) -0.1760(5)
Na2 Na 0.4894(6) 0.3858(5) 0.2118(5)
O9 O 0.3480(19) 0.2319(10) 0.5961(11)
H1 H 0.28(2) 0.23(2) 0.530(17)
H2 H 0.40(3) 0.314(16) 0.57(2)
loop_
_geom_bond_atom_site_label_1
_geom_bond_atom_site_label_2
_geom_bond_site_symmetry_1
_geom_bond_site_symmetry_2
Np1 O1 1_555 1_555
O2 Np1 1_555 1_555
O3 Np1 1_555 1_555
O4 C1 1_555 1_555
O5 C2 1_555 1_555
O6 C2 1_555 1_555
O7 Np1 1_555 1_555
O8 C3 1_555 1_555
C1 O3 1_555 1_555
C2 C1 1_555 1_555
C3 O7 1_555 1_555
O9 H1 1_555 1_555
H2 O9 1_555 1_555
Np1A O3 1_555 1_555
Np1A_2 O8 1_555 1_555
O1A Np1A 1_555 1_555
O2A Np1A 1_555 1_555
O3A Np1 1_555 1_555
O4A C1A 1_555 1_555
O5A Np1 1_555 1_555
O6A C2A 1_555 1_555
O7A Np1A_2 1_555 1_555
O7A_2 Np1A 1_555 1_555
O8A Np1 1_555 1_555
O8_2 Np1A 1_555 1_555
C1A O3A 1_555 1_555
C2A O5A 1_555 1_555
C3A C3 1_555 1_555
O5 Np1A 1_555 1_555
Np1A O3A 1_555 1_555
O7A C3A 1_555 1_555
O8A C3A 1_555 1_555
C1A C2A 1_555 1_555

#END
