
#######################################################################
#
#                 Cambridge Crystallographic Data Centre
#                                CCDC 
#
#######################################################################
#
# If this CIF has been generated from an entry in the Cambridge 
# Structural Database, then it will include bibliographic, chemical, 
# crystal, experimental, refinement or atomic coordinate data resulting 
# from the CCDC's data processing and validation procedures.
#
#######################################################################

data_VOCLUW
_symmetry_cell_setting           triclinic
_symmetry_space_group_name_H-M   'P -1'
_symmetry_Int_Tables_number      2
_space_group_name_Hall           '-P 1'
loop_
_symmetry_equiv_pos_site_id
_symmetry_equiv_pos_as_xyz
1 x,y,z
2 -x,-y,-z
_cell_length_a                   9.2990(2)
_cell_length_b                   13.8249(4)
_cell_length_c                   14.4792(4)
_cell_angle_alpha                97.345(2)
_cell_angle_beta                 96.112(2)
_cell_angle_gamma                98.502(2)
_cell_volume                     1810.88
loop_
_atom_site_label
_atom_site_type_symbol
_atom_site_fract_x
_atom_site_fract_y
_atom_site_fract_z
Gd1 Gd 0.69945(4) 0.46040(3) 0.50651(2)
O1 O 0.9112(5) 0.5520(4) 0.5814(3)
O2 O 1.1533(5) 0.5993(4) 0.6049(3)
O3 O 0.6039(5) 0.6078(4) 0.5487(3)
O4 O 0.4278(5) 0.6958(4) 0.5659(4)
O5 O 0.6304(5) 0.5154(4) 0.3666(3)
O6 O 0.4163(5) 0.5712(4) 0.3620(3)
O7 O 0.8176(6) 0.3436(4) 0.5832(4)
N1 N 1.2732(7) 0.6930(5) 0.7748(4)
H1 H 1.2740 0.6881 0.7137
N2 N 0.4898(7) 0.8884(5) 0.6223(5)
H2 H 0.4256 0.8397 0.5895
N3 N 0.3376(6) 0.6663(5) 0.2193(4)
H3 H 0.3180 0.6462 0.2725
N4 N 0.9682(7) 0.2293(5) 0.5692(5)
C1 C 1.0315(7) 0.5830(5) 0.6354(5)
C2 C 1.0258(7) 0.6001(5) 0.7392(5)
C3 C 0.8971(8) 0.5598(6) 0.7715(5)
H4 H 0.8168 0.5265 0.7272
C4 C 0.8830(8) 0.5668(6) 0.8661(5)
H5 H 0.7942 0.5394 0.8867
C5 C 1.0014(9) 0.6148(6) 0.9305(5)
H6 H 0.9947 0.6185 0.9959
C6 C 1.1290(8) 0.6573(6) 0.9002(5)
H7 H 1.2078 0.6912 0.9454
C7 C 1.1447(8) 0.6516(5) 0.8050(5)
C8 C 1.4033(8) 0.7424(6) 0.8315(5)
C9 C 1.5384(8) 0.7167(6) 0.8107(5)
H8 H 1.5406 0.6635 0.7626
C10 C 1.6677(9) 0.7687(6) 0.8602(6)
H9 H 1.7588 0.7530 0.8438
C11 C 1.6662(9) 0.8430(6) 0.9330(6)
H10 H 1.7557 0.8777 0.9674
C12 C 1.5344(9) 0.8669(6) 0.9557(6)
H11 H 1.5332 0.9169 1.0070
C13 C 1.4036(8) 0.8187(6) 0.9043(5)
H12 H 1.3136 0.8377 0.9188
C14 C 0.5630(7) 0.6905(5) 0.5741(5)
C15 C 0.6728(8) 0.7796(5) 0.6146(5)
C16 C 0.8178(8) 0.7666(6) 0.6339(6)
H13 H 0.8430 0.7033 0.6163
C17 C 0.9260(9) 0.8422(6) 0.6775(6)
H14 H 1.0238 0.8313 0.6920
C18 C 0.8880(9) 0.9353(6) 0.6999(6)
H15 H 0.9619 0.9889 0.7285
C19 C 0.7459(8) 0.9518(6) 0.6815(5)
H16 H 0.7234 1.0160 0.6985
C20 C 0.6336(8) 0.8746(5) 0.6378(5)
C21 C 0.4387(8) 0.9771(5) 0.6561(5)
C22 C 0.4760(9) 1.0647(6) 0.6188(6)
H17 H 0.5378 1.0655 0.5706
C23 C 0.4244(9) 1.1499(6) 0.6508(6)
H18 H 0.4510 1.2092 0.6256
C24 C 0.3323(9) 1.1473(7) 0.7209(6)
H19 H 0.2965 1.2056 0.7436
C25 C 0.2923(9) 1.0613(7) 0.7581(6)
H20 H 0.2291 1.0603 0.8055
C26 C 0.3458(8) 0.9762(6) 0.7250(6)
H21 H 0.3184 0.9168 0.7500
C27 C 0.5304(7) 0.5546(5) 0.3257(5)
C28 C 0.5489(7) 0.5808(5) 0.2307(5)
C29 C 0.6666(8) 0.5492(5) 0.1882(5)
H22 H 0.7307 0.5148 0.2219
C30 C 0.6915(8) 0.5667(6) 0.0995(5)
H23 H 0.7724 0.5456 0.0725
C31 C 0.5964(9) 0.6157(6) 0.0502(5)
H24 H 0.6110 0.6265 -0.0118
C32 C 0.4811(8) 0.6490(6) 0.0896(5)
H25 H 0.4193 0.6840 0.0548
C33 C 0.4525(8) 0.6323(5) 0.1806(5)
C34 C 0.2475(8) 0.7299(6) 0.1834(5)
C35 C 0.3053(9) 0.8146(6) 0.1476(5)
H26 H 0.4079 0.8300 0.1460
C36 C 0.2124(9) 0.8766(6) 0.1142(5)
H27 H 0.2525 0.9339 0.0898
C37 C 0.0636(9) 0.8559(6) 0.1163(5)
H28 H 0.0010 0.8976 0.0920
C38 C 0.0055(9) 0.7733(6) 0.1543(5)
H29 H -0.0969 0.7596 0.1572
C39 C 0.0967(8) 0.7104(6) 0.1881(5)
H30 H 0.0563 0.6544 0.2142
C40 C 0.8389(8) 0.2568(6) 0.5623(5)
H31 H 0.7558 0.2074 0.5401
C41 C 1.0985(8) 0.3025(6) 0.6031(6)
H32 H 1.0803 0.3676 0.5895
H33 H 1.1810 0.2844 0.5716
H34 H 1.1221 0.3048 0.6710
C42 C 0.9857(10) 0.1271(7) 0.5531(7)
H35 H 0.8922 0.0867 0.5246
H36 H 1.0169 0.1058 0.6130
H37 H 1.0600 0.1192 0.5107
Gd1A Gd 0.30055(4) 0.53960(3) 0.49349(2)
Gd1A_2 Gd 1.30055(4) 0.53960(3) 0.49349(2)
O2A O 0.8467(5) 0.4007(4) 0.3951(3)
O3A O 0.3961(5) 0.3922(4) 0.4513(3)
O4A O 0.5722(5) 0.3042(4) 0.4341(4)
O6A O 0.5837(5) 0.4288(4) 0.6380(3)
loop_
_geom_bond_atom_site_label_1
_geom_bond_atom_site_label_2
_geom_bond_site_symmetry_1
_geom_bond_site_symmetry_2
Gd1 O1 1_555 1_555
O1 C1 1_555 1_555
O2 C1 1_555 1_555
O3 Gd1 1_555 1_555
O4 C14 1_555 1_555
O5 Gd1 1_555 1_555
O6 C27 1_555 1_555
O7 Gd1 1_555 1_555
N1 H1 1_555 1_555
N2 H2 1_555 1_555
N3 H3 1_555 1_555
N4 C40 1_555 1_555
C1 C2 1_555 1_555
C2 C3 1_555 1_555
C3 H4 1_555 1_555
C4 C3 1_555 1_555
H5 C4 1_555 1_555
C5 C4 1_555 1_555
H6 C5 1_555 1_555
C6 C5 1_555 1_555
H7 C6 1_555 1_555
C7 N1 1_555 1_555
C8 N1 1_555 1_555
C9 C8 1_555 1_555
H8 C9 1_555 1_555
C10 C9 1_555 1_555
H9 C10 1_555 1_555
C11 C10 1_555 1_555
H10 C11 1_555 1_555
C12 C11 1_555 1_555
H11 C12 1_555 1_555
C13 C8 1_555 1_555
H12 C13 1_555 1_555
C14 O3 1_555 1_555
C15 C14 1_555 1_555
C16 C15 1_555 1_555
H13 C16 1_555 1_555
C17 C16 1_555 1_555
H14 C17 1_555 1_555
C18 C17 1_555 1_555
H15 C18 1_555 1_555
C19 C18 1_555 1_555
H16 C19 1_555 1_555
C20 N2 1_555 1_555
C21 N2 1_555 1_555
C22 C21 1_555 1_555
H17 C22 1_555 1_555
C23 C22 1_555 1_555
H18 C23 1_555 1_555
C24 C23 1_555 1_555
H19 C24 1_555 1_555
C25 C24 1_555 1_555
H20 C25 1_555 1_555
C26 C21 1_555 1_555
H21 C26 1_555 1_555
C27 O5 1_555 1_555
C28 C27 1_555 1_555
C29 C28 1_555 1_555
H22 C29 1_555 1_555
C30 C29 1_555 1_555
H23 C30 1_555 1_555
C31 C30 1_555 1_555
H24 C31 1_555 1_555
C32 C31 1_555 1_555
H25 C32 1_555 1_555
C33 N3 1_555 1_555
C34 N3 1_555 1_555
C35 C34 1_555 1_555
H26 C35 1_555 1_555
C36 C35 1_555 1_555
H27 C36 1_555 1_555
C37 C36 1_555 1_555
H28 C37 1_555 1_555
C38 C37 1_555 1_555
H29 C38 1_555 1_555
C39 C34 1_555 1_555
H30 C39 1_555 1_555
C40 O7 1_555 1_555
H31 C40 1_555 1_555
C41 N4 1_555 1_555
H32 C41 1_555 1_555
H33 C41 1_555 1_555
H34 C41 1_555 1_555
C42 N4 1_555 1_555
H35 C42 1_555 1_555
H36 C42 1_555 1_555
H37 C42 1_555 1_555
Gd1A O3 1_555 1_555
Gd1A_2 O2 1_555 1_555
O2A Gd1 1_555 1_555
O3A Gd1 1_555 1_555
O4A Gd1 1_555 1_555
O6A Gd1 1_555 1_555
O4 Gd1A 1_555 1_555
O6 Gd1A 1_555 1_555
C2 C7 1_555 1_555
C6 C7 1_555 1_555
C12 C13 1_555 1_555
C15 C20 1_555 1_555
C19 C20 1_555 1_555
C25 C26 1_555 1_555
C28 C33 1_555 1_555
C32 C33 1_555 1_555
C38 C39 1_555 1_555
Gd1A O3A 1_555 1_555

#END
