
#######################################################################
#
#                 Cambridge Crystallographic Data Centre
#                                CCDC 
#
#######################################################################
#
# If this CIF has been generated from an entry in the Cambridge 
# Structural Database, then it will include bibliographic, chemical, 
# crystal, experimental, refinement or atomic coordinate data resulting 
# from the CCDC's data processing and validation procedures.
#
#######################################################################

data_VOCLOQ
_symmetry_cell_setting           triclinic
_symmetry_space_group_name_H-M   'P -1'
_symmetry_Int_Tables_number      2
_space_group_name_Hall           '-P 1'
loop_
_symmetry_equiv_pos_site_id
_symmetry_equiv_pos_as_xyz
1 x,y,z
2 -x,-y,-z
_cell_length_a                   9.2927(3)
_cell_length_b                   13.8088(3)
_cell_length_c                   14.4762(5)
_cell_angle_alpha                97.319(2)
_cell_angle_beta                 96.124(3)
_cell_angle_gamma                98.362(2)
_cell_volume                     1807.98
loop_
_atom_site_label
_atom_site_type_symbol
_atom_site_fract_x
_atom_site_fract_y
_atom_site_fract_z
Eu1 Eu 0.69915(3) 0.45992(2) 0.50664(2)
O1 O 0.9122(5) 0.5525(3) 0.5822(3)
O2 O 1.1520(5) 0.6010(3) 0.6047(3)
O3 O 0.6016(5) 0.6082(3) 0.5487(3)
O4 O 0.4275(5) 0.6985(3) 0.5664(3)
O5 O 0.6305(5) 0.5152(3) 0.3657(3)
O6 O 0.4158(5) 0.5706(3) 0.3608(3)
O7 O 0.8184(6) 0.3425(3) 0.5843(3)
N1 N 1.2729(6) 0.6938(4) 0.7746(4)
H1 H 1.2733 0.6891 0.7135
N2 N 0.4911(7) 0.8901(4) 0.6228(4)
H2 H 0.4269 0.8415 0.5899
N3 N 0.3377(6) 0.6659(4) 0.2188(4)
H3 H 0.3182 0.6451 0.2718
N4 N 0.9698(6) 0.2292(4) 0.5707(4)
C1 C 1.0319(7) 0.5840(4) 0.6360(4)
C2 C 1.0264(7) 0.6005(4) 0.7394(4)
C3 C 0.8971(7) 0.5598(5) 0.7721(5)
H4 H 0.8166 0.5271 0.7277
C4 C 0.8833(8) 0.5659(5) 0.8664(5)
H5 H 0.7955 0.5369 0.8871
C5 C 1.0009(8) 0.6153(5) 0.9305(4)
H6 H 0.9934 0.6199 0.9958
C6 C 1.1284(8) 0.6577(5) 0.9009(5)
H7 H 1.2069 0.6911 0.9465
C7 C 1.1452(7) 0.6528(4) 0.8058(4)
C8 C 1.4027(7) 0.7424(5) 0.8317(4)
C9 C 1.5371(8) 0.7176(5) 0.8101(5)
H8 H 1.5389 0.6651 0.7612
C10 C 1.6672(8) 0.7685(5) 0.8593(5)
H9 H 1.7578 0.7524 0.8425
C11 C 1.6666(9) 0.8427(5) 0.9325(5)
H10 H 1.7565 0.8767 0.9668
C12 C 1.5339(9) 0.8676(5) 0.9560(5)
H11 H 1.5334 0.9180 1.0071
C13 C 1.4023(8) 0.8193(5) 0.9054(5)
H12 H 1.3122 0.8381 0.9204
C14 C 0.5627(7) 0.6915(4) 0.5738(4)
C15 C 0.6725(8) 0.7799(4) 0.6144(4)
C16 C 0.8176(7) 0.7661(5) 0.6332(5)
H13 H 0.8422 0.7023 0.6163
C17 C 0.9267(8) 0.8421(5) 0.6757(6)
H14 H 1.0250 0.8311 0.6885
C18 C 0.8892(8) 0.9358(5) 0.6997(5)
H15 H 0.9627 0.9890 0.7294
C19 C 0.7462(8) 0.9519(5) 0.6805(5)
H16 H 0.7238 1.0165 0.6962
C20 C 0.6334(8) 0.8750(5) 0.6383(4)
C21 C 0.4398(8) 0.9776(5) 0.6557(5)
C22 C 0.4776(8) 1.0653(5) 0.6184(5)
H17 H 0.5400 1.0669 0.5706
C23 C 0.4238(9) 1.1497(5) 0.6516(5)
H18 H 0.4496 1.2089 0.6260
C24 C 0.3332(8) 1.1494(5) 0.7215(6)
H19 H 0.2987 1.2082 0.7448
C25 C 0.2937(9) 1.0628(6) 0.7568(6)
H20 H 0.2291 1.0616 0.8034
C26 C 0.3471(8) 0.9766(5) 0.7253(5)
H21 H 0.3204 0.9177 0.7512
C27 C 0.5305(7) 0.5546(4) 0.3249(4)
C28 C 0.5487(7) 0.5808(4) 0.2302(4)
C29 C 0.6663(7) 0.5497(5) 0.1883(4)
H22 H 0.7308 0.5158 0.2226
C30 C 0.6924(8) 0.5666(5) 0.0986(5)
H23 H 0.7739 0.5455 0.0721
C31 C 0.5956(8) 0.6153(5) 0.0482(5)
H24 H 0.6096 0.6258 -0.0140
C32 C 0.4806(8) 0.6482(5) 0.0878(5)
H25 H 0.4174 0.6822 0.0526
C33 C 0.4532(7) 0.6327(4) 0.1797(4)
C34 C 0.2469(7) 0.7299(5) 0.1830(4)
C35 C 0.3063(8) 0.8149(5) 0.1474(5)
H26 H 0.4091 0.8301 0.1464
C36 C 0.2135(9) 0.8768(5) 0.1138(5)
H27 H 0.2531 0.9336 0.0884
C37 C 0.0630(9) 0.8562(5) 0.1170(5)
H28 H 0.0002 0.8984 0.0936
C38 C 0.0052(8) 0.7735(5) 0.1548(5)
H29 H -0.0970 0.7599 0.1585
C39 C 0.0973(8) 0.7107(5) 0.1871(5)
H30 H 0.0571 0.6540 0.2124
C40 C 0.8384(8) 0.2559(5) 0.5629(5)
H31 H 0.7556 0.2065 0.5399
C41 C 1.1003(8) 0.3032(5) 0.6024(5)
H32 H 1.0796 0.3682 0.5900
H33 H 1.1810 0.2859 0.5686
H34 H 1.1278 0.3051 0.6700
C42 C 0.9877(10) 0.1259(6) 0.5538(6)
H35 H 0.8965 0.0865 0.5204
H36 H 1.0108 0.1025 0.6140
H37 H 1.0677 0.1191 0.5158
Eu1A Eu 0.30085(3) 0.54008(2) 0.49336(2)
Eu1A_2 Eu 1.30085(3) 0.54008(2) 0.49336(2)
O2A O 0.8480(5) 0.3990(3) 0.3953(3)
O3A O 0.3984(5) 0.3918(3) 0.4513(3)
O4A O 0.5725(5) 0.3015(3) 0.4336(3)
O6A O 0.5842(5) 0.4294(3) 0.6392(3)
loop_
_geom_bond_atom_site_label_1
_geom_bond_atom_site_label_2
_geom_bond_site_symmetry_1
_geom_bond_site_symmetry_2
Eu1 O1 1_555 1_555
O1 C1 1_555 1_555
O2 C1 1_555 1_555
O3 Eu1 1_555 1_555
O4 C14 1_555 1_555
O5 Eu1 1_555 1_555
O6 C27 1_555 1_555
O7 Eu1 1_555 1_555
N1 H1 1_555 1_555
N2 H2 1_555 1_555
N3 H3 1_555 1_555
N4 C40 1_555 1_555
C1 C2 1_555 1_555
C2 C3 1_555 1_555
C3 H4 1_555 1_555
C4 C3 1_555 1_555
H5 C4 1_555 1_555
C5 C4 1_555 1_555
H6 C5 1_555 1_555
C6 C5 1_555 1_555
H7 C6 1_555 1_555
C7 N1 1_555 1_555
C8 N1 1_555 1_555
C9 C8 1_555 1_555
H8 C9 1_555 1_555
C10 C9 1_555 1_555
H9 C10 1_555 1_555
C11 C10 1_555 1_555
H10 C11 1_555 1_555
C12 C11 1_555 1_555
H11 C12 1_555 1_555
C13 C8 1_555 1_555
H12 C13 1_555 1_555
C14 O3 1_555 1_555
C15 C14 1_555 1_555
C16 C15 1_555 1_555
H13 C16 1_555 1_555
C17 C16 1_555 1_555
H14 C17 1_555 1_555
C18 C17 1_555 1_555
H15 C18 1_555 1_555
C19 C18 1_555 1_555
H16 C19 1_555 1_555
C20 N2 1_555 1_555
C21 N2 1_555 1_555
C22 C21 1_555 1_555
H17 C22 1_555 1_555
C23 C22 1_555 1_555
H18 C23 1_555 1_555
C24 C23 1_555 1_555
H19 C24 1_555 1_555
C25 C24 1_555 1_555
H20 C25 1_555 1_555
C26 C21 1_555 1_555
H21 C26 1_555 1_555
C27 O5 1_555 1_555
C28 C27 1_555 1_555
C29 C28 1_555 1_555
H22 C29 1_555 1_555
C30 C29 1_555 1_555
H23 C30 1_555 1_555
C31 C30 1_555 1_555
H24 C31 1_555 1_555
C32 C31 1_555 1_555
H25 C32 1_555 1_555
C33 N3 1_555 1_555
C34 N3 1_555 1_555
C35 C34 1_555 1_555
H26 C35 1_555 1_555
C36 C35 1_555 1_555
H27 C36 1_555 1_555
C37 C36 1_555 1_555
H28 C37 1_555 1_555
C38 C37 1_555 1_555
H29 C38 1_555 1_555
C39 C34 1_555 1_555
H30 C39 1_555 1_555
C40 O7 1_555 1_555
H31 C40 1_555 1_555
C41 N4 1_555 1_555
H32 C41 1_555 1_555
H33 C41 1_555 1_555
H34 C41 1_555 1_555
C42 N4 1_555 1_555
H35 C42 1_555 1_555
H36 C42 1_555 1_555
H37 C42 1_555 1_555
Eu1A O3 1_555 1_555
Eu1A_2 O2 1_555 1_555
O2A Eu1 1_555 1_555
O3A Eu1 1_555 1_555
O4A Eu1 1_555 1_555
O6A Eu1 1_555 1_555
O4 Eu1A 1_555 1_555
O6 Eu1A 1_555 1_555
C2 C7 1_555 1_555
C6 C7 1_555 1_555
C12 C13 1_555 1_555
C15 C20 1_555 1_555
C19 C20 1_555 1_555
C25 C26 1_555 1_555
C28 C33 1_555 1_555
C32 C33 1_555 1_555
C38 C39 1_555 1_555
Eu1A O3A 1_555 1_555

#END
