
#######################################################################
#
#                 Cambridge Crystallographic Data Centre
#                                CCDC 
#
#######################################################################
#
# If this CIF has been generated from an entry in the Cambridge 
# Structural Database, then it will include bibliographic, chemical, 
# crystal, experimental, refinement or atomic coordinate data resulting 
# from the CCDC's data processing and validation procedures.
#
#######################################################################

data_VOCMOR
_symmetry_cell_setting           monoclinic
_symmetry_space_group_name_H-M   'C 2/c'
_symmetry_Int_Tables_number      15
_space_group_name_Hall           '-C 2yn'
loop_
_symmetry_equiv_pos_site_id
_symmetry_equiv_pos_as_xyz
1 x,y,z
2 -x,y,1/2-z
3 1/2+x,1/2+y,z
4 1/2-x,1/2+y,1/2-z
5 -x,-y,-z
6 x,-y,1/2+z
7 1/2-x,1/2-y,-z
8 1/2+x,1/2-y,1/2+z
_cell_length_a                   37.712(6)
_cell_length_b                   9.3734(14)
_cell_length_c                   26.150(4)
_cell_angle_alpha                90
_cell_angle_beta                 129.367(2)
_cell_angle_gamma                90
_cell_volume                     7146.34
loop_
_atom_site_label
_atom_site_type_symbol
_atom_site_fract_x
_atom_site_fract_y
_atom_site_fract_z
Tb1 Tb 0.249064(6) -0.02916(2) 0.483932(9)
O1 O 0.22889(9) -0.1562(3) 0.53727(13)
O2 O 0.31730(8) -0.3518(3) 0.60360(13)
O3 O 0.20487(8) 0.1430(3) 0.47943(13)
O4 O 0.19321(8) 0.3687(3) 0.48988(14)
O5 O 0.21050(10) 0.1119(3) 0.38062(14)
H1 H 0.2129(16) 0.1983(17) 0.3936(18)
O6 O 0.22432(9) -0.3695(3) 0.56875(13)
O7 O 0.31827(8) -0.1321(3) 0.57192(13)
N1 N 0.38972(11) -0.4368(3) 0.72565(16)
H2 H 0.3619 -0.4552 0.6889
N2 N 0.11179(11) 0.4380(4) 0.45716(18)
H3 H 0.1413 0.4567 0.4815
C1 C 0.17857(15) -0.4861(5) 0.6612(2)
C2 C 0.40991(13) -0.5396(4) 0.7759(2)
C3 C 0.18556(15) -0.0237(4) 0.5786(2)
H4 H 0.1926 0.0278 0.5547
C4 C 0.40933(13) -0.3088(4) 0.72824(19)
C5 C 0.38442(12) -0.2087(4) 0.67589(19)
C6 C 0.40567(13) -0.0796(4) 0.6821(2)
H5 H 0.3891 -0.0122 0.6471
C7 C 0.08485(14) 0.5401(4) 0.4578(2)
C8 C 0.17843(13) 0.2424(4) 0.46912(18)
C9 C 0.19535(13) -0.1689(4) 0.58943(19)
N3 N 0.19337(12) -0.3909(4) 0.63586(18)
H6 H 0.2106 -0.4274 0.6273
C10 C 0.09680(13) 0.3109(4) 0.42225(19)
C11 C 0.12863(13) 0.2125(4) 0.43030(19)
C12 C 0.33688(13) -0.2333(4) 0.6131(2)
C13 C 0.05075(15) 0.5045(5) 0.4617(2)
H7 H 0.0447 0.4071 0.4636
C14 C 0.40580(14) -0.6829(5) 0.7591(2)
H8 H 0.3912 -0.7092 0.7146
C15 C 0.45514(14) -0.2764(5) 0.7826(2)
H9 H 0.4728 -0.3442 0.8172
C16 C 0.11243(13) 0.0815(5) 0.3974(2)
H10 H 0.1338 0.0137 0.4041
C17 C 0.18351(14) -0.2468(4) 0.6233(2)
C18 C 0.13291(15) -0.4971(5) 0.6342(2)
H11 H 0.1106 -0.4358 0.5989
C19 C 0.21724(13) -0.2355(4) 0.5637(2)
C20 C 0.09406(14) 0.6842(5) 0.4573(2)
H12 H 0.1170 0.7108 0.4544
C21 C 0.15509(16) -0.0296(5) 0.6351(3)
H13 H 0.1415 0.0177 0.6509
C22 C 0.43161(15) -0.5041(5) 0.8414(2)
H14 H 0.4342 -0.4067 0.8534
C23 C 0.04998(14) 0.2757(5) 0.3769(2)
H15 H 0.0280 0.3425 0.3689
C24 C 0.06608(14) 0.0476(5) 0.3550(2)
H16 H 0.0559 -0.0429 0.3340
C25 C 0.44950(14) -0.0476(5) 0.7368(2)
H17 H 0.4625 0.0427 0.7408
C26 C 0.06967(15) 0.7889(5) 0.4612(2)
H18 H 0.0769 0.8866 0.4626
C27 C 0.16366(14) -0.1730(5) 0.6457(2)
H19 H 0.1559 -0.2233 0.6689
C28 C 0.42321(15) -0.7882(5) 0.8076(2)
H20 H 0.4196 -0.8859 0.7956
C29 C 0.11976(15) -0.5958(5) 0.6579(2)
H21 H 0.0886 -0.6001 0.6399
C30 C 0.47491(14) -0.1492(5) 0.7868(2)
H22 H 0.5060 -0.1304 0.8238
C31 C 0.16608(17) 0.0480(5) 0.6013(3)
H23 H 0.1603 0.1476 0.5941
C32 C 0.21023(15) -0.5787(5) 0.7123(2)
H24 H 0.2417 -0.5712 0.7322
C33 C 0.03513(14) 0.1481(5) 0.3440(2)
H25 H 0.0032 0.1285 0.3133
C34 C 0.44530(16) -0.7519(5) 0.8721(2)
H26 H 0.4576 -0.8239 0.9050
C35 C 0.15121(16) -0.6891(5) 0.7077(3)
H27 H 0.1417 -0.7582 0.7235
C36 C 0.21580(17) 0.1061(6) 0.3316(2)
H28 H 0.1925 0.1661 0.2939
H29 H 0.2122 0.0073 0.3166
H30 H 0.2464 0.1408 0.3502
C37 C 0.44956(15) -0.6091(6) 0.8893(2)
H31 H 0.4648 -0.5832 0.9340
C38 C 0.03534(16) 0.7526(5) 0.4631(2)
H32 H 0.0182 0.8247 0.4644
C39 C 0.19649(16) -0.6809(5) 0.7343(2)
H33 H 0.2183 -0.7459 0.7679
C40 C 0.02583(14) 0.6101(5) 0.4630(2)
H34 H 0.0018 0.5845 0.4639
Tb1F Tb 0.250936(6) -0.47084(2) 0.516068(9)
Tb1F_2 Tb 0.250936(6) 0.52916(2) 0.516068(9)
O2F O 0.18270(8) -0.1482(3) 0.39640(13)
O4F O 0.30679(8) 0.1313(3) 0.51012(14)
O6F O 0.27568(9) -0.1305(3) 0.43125(13)
O8 O 0.29823(11) 0.0981(4) 0.61337(17)
H35 H 0.3216(11) 0.073(5) 0.616(2)
C41 C 0.3031(2) 0.0353(7) 0.6657(3)
H36 H 0.3010 -0.0686 0.6604
H37 H 0.2787 0.0695 0.6662
H38 H 0.3330 0.0608 0.7075
loop_
_geom_bond_atom_site_label_1
_geom_bond_atom_site_label_2
_geom_bond_site_symmetry_1
_geom_bond_site_symmetry_2
Tb1 O1 1_555 1_555
O1 C19 1_555 1_555
O2 C12 1_555 1_555
O3 Tb1 1_555 1_555
O4 C8 1_555 1_555
O5 Tb1 1_555 1_555
H1 O5 1_555 1_555
O6 C19 1_555 1_555
O7 Tb1 1_555 1_555
N1 H2 1_555 1_555
N2 H3 1_555 1_555
C1 N3 1_555 1_555
C2 N1 1_555 1_555
C3 H4 1_555 1_555
C4 N1 1_555 1_555
C5 C4 1_555 1_555
C6 C5 1_555 1_555
H5 C6 1_555 1_555
C7 N2 1_555 1_555
C8 O3 1_555 1_555
C9 C3 1_555 1_555
N3 H6 1_555 1_555
C10 N2 1_555 1_555
C11 C8 1_555 1_555
C12 O7 1_555 1_555
C13 C7 1_555 1_555
H7 C13 1_555 1_555
C14 C2 1_555 1_555
H8 C14 1_555 1_555
C15 C4 1_555 1_555
H9 C15 1_555 1_555
C16 C11 1_555 1_555
H10 C16 1_555 1_555
C17 C9 1_555 1_555
C18 C1 1_555 1_555
H11 C18 1_555 1_555
C19 C9 1_555 1_555
C20 C7 1_555 1_555
H12 C20 1_555 1_555
C21 H13 1_555 1_555
C22 C2 1_555 1_555
H14 C22 1_555 1_555
C23 C10 1_555 1_555
H15 C23 1_555 1_555
C24 C16 1_555 1_555
H16 C24 1_555 1_555
C25 C6 1_555 1_555
H17 C25 1_555 1_555
C26 C20 1_555 1_555
H18 C26 1_555 1_555
C27 C17 1_555 1_555
H19 C27 1_555 1_555
C28 C14 1_555 1_555
H20 C28 1_555 1_555
C29 C18 1_555 1_555
H21 C29 1_555 1_555
C30 C15 1_555 1_555
H22 C30 1_555 1_555
C31 C3 1_555 1_555
H23 C31 1_555 1_555
C32 C1 1_555 1_555
H24 C32 1_555 1_555
C33 C23 1_555 1_555
H25 C33 1_555 1_555
C34 C28 1_555 1_555
H26 C34 1_555 1_555
C35 C29 1_555 1_555
H27 C35 1_555 1_555
C36 O5 1_555 1_555
H28 C36 1_555 1_555
H29 C36 1_555 1_555
H30 C36 1_555 1_555
C37 C22 1_555 1_555
H31 C37 1_555 1_555
C38 C26 1_555 1_555
H32 C38 1_555 1_555
C39 C32 1_555 1_555
H33 C39 1_555 1_555
C40 C13 1_555 1_555
H34 C40 1_555 1_555
O8 H35 1_555 1_555
C41 O8 1_555 1_555
H36 C41 1_555 1_555
H37 C41 1_555 1_555
H38 C41 1_555 1_555
Tb1F O2 1_555 1_555
Tb1F_2 O4 1_555 1_555
O2F Tb1 1_555 1_555
O4F Tb1 1_555 1_555
O6F Tb1 1_555 1_555
O6 Tb1F 1_555 1_555
C5 C12 1_555 1_555
N3 C17 1_555 1_555
C10 C11 1_555 1_555
C21 C27 1_555 1_555
C21 C31 1_555 1_555
C24 C33 1_555 1_555
C25 C30 1_555 1_555
C34 C37 1_555 1_555
C35 C39 1_555 1_555
C38 C40 1_555 1_555

#END
