
#######################################################################
#
#                 Cambridge Crystallographic Data Centre
#                                CCDC 
#
#######################################################################
#
# If this CIF has been generated from an entry in the Cambridge 
# Structural Database, then it will include bibliographic, chemical, 
# crystal, experimental, refinement or atomic coordinate data resulting 
# from the CCDC's data processing and validation procedures.
#
#######################################################################

data_VOCNIM
_symmetry_cell_setting           monoclinic
_symmetry_space_group_name_H-M   'C 2/c'
_symmetry_Int_Tables_number      15
_space_group_name_Hall           '-C 2yn'
loop_
_symmetry_equiv_pos_site_id
_symmetry_equiv_pos_as_xyz
1 x,y,z
2 -x,y,1/2-z
3 1/2+x,1/2+y,z
4 1/2-x,1/2+y,1/2-z
5 -x,-y,-z
6 x,-y,1/2+z
7 1/2-x,1/2-y,-z
8 1/2+x,1/2-y,1/2+z
_cell_length_a                   24.053(7)
_cell_length_b                   6.463(2)
_cell_length_c                   26.158(8)
_cell_angle_alpha                90
_cell_angle_beta                 94.991(5)
_cell_angle_gamma                90
_cell_volume                     4050.96
loop_
_atom_site_label
_atom_site_type_symbol
_atom_site_fract_x
_atom_site_fract_y
_atom_site_fract_z
Mn1 Mn 0.419604(15) 0.57823(6) 0.033734(14)
S1 S 0.5000 -0.16637(17) 0.2500
O1 O 0.43115(8) 0.2213(3) 0.03270(6)
O2 O 0.50218(8) 0.5675(3) 0.06899(8)
O3 O 0.56197(8) 0.3419(4) 0.04098(7)
O4 O 0.55115(11) -0.2791(4) 0.25994(8)
O5 O 0.41571(8) -0.1003(3) 0.05672(8)
N1 N 0.32989(9) 0.5445(3) -0.00164(8)
N2 N 0.36594(9) 0.5052(4) 0.09810(8)
N3 N 0.17050(10) 0.3851(4) 0.13315(9)
N4 N 0.14134(10) 0.4111(4) 0.05091(10)
H1 H 0.1187 0.4116 0.0235
C1 C 0.52760(10) 0.3991(4) 0.07083(10)
C2 C 0.43960(10) 0.0726(4) 0.06323(10)
C3 C 0.47822(11) 0.1023(4) 0.11087(9)
C4 C 0.51895(10) 0.2558(4) 0.11475(9)
C5 C 0.55335(12) 0.2776(5) 0.15963(10)
H2 H 0.5806 0.3799 0.1619
C6 C 0.54770(13) 0.1497(5) 0.20111(11)
H3 H 0.5713 0.1641 0.2310
C7 C 0.50686(12) 0.0010(5) 0.19772(10)
C8 C 0.47208(11) -0.0257(4) 0.15311(10)
H4 H 0.4448 -0.1281 0.1513
C9 C 0.31328(12) 0.5619(4) -0.05122(10)
H5 H 0.3398 0.5893 -0.0741
C10 C 0.25743(12) 0.5408(4) -0.07038(11)
H6 H 0.2474 0.5521 -0.1054
C11 C 0.23438(11) 0.4856(4) 0.01485(10)
C12 C 0.21832(11) 0.5041(4) -0.03770(10)
H7 H 0.1810 0.4911 -0.0499
C13 C 0.29113(10) 0.5049(4) 0.03143(10)
C14 C 0.31086(10) 0.4862(4) 0.08521(10)
C15 C 0.38522(12) 0.4830(5) 0.14662(11)
H8 H 0.4234 0.4948 0.1551
C16 C 0.35078(14) 0.4428(6) 0.18560(12)
H9 H 0.3658 0.4280 0.2194
C17 C 0.29502(13) 0.4255(5) 0.17342(12)
H10 H 0.2715 0.3998 0.1991
C18 C 0.27263(11) 0.4462(4) 0.12248(10)
C19 C 0.21543(12) 0.4290(4) 0.10475(11)
C20 C 0.19735(11) 0.4453(4) 0.05366(11)
C21 C 0.12816(12) 0.3769(5) 0.09835(12)
H11 H 0.0919 0.3493 0.1062
O1A O 0.56885(8) 0.2213(3) 0.46730(6)
O2A O 0.49782(8) 0.5675(3) 0.43101(8)
O3A O 0.43803(8) 0.3419(4) 0.45902(7)
O4A O 0.44885(11) -0.2791(4) 0.24006(8)
O5A O 0.58429(8) -0.1003(3) 0.44328(8)
C1A C 0.47240(10) 0.3991(4) 0.42917(10)
C2A C 0.56040(10) 0.0726(4) 0.43677(10)
C3A C 0.52178(11) 0.1023(4) 0.38913(9)
C4A C 0.48105(10) 0.2558(4) 0.38525(9)
C5A C 0.44665(12) 0.2776(5) 0.34037(10)
H2A H 0.4194 0.3799 0.3381
C6A C 0.45230(13) 0.1497(5) 0.29889(11)
H3A H 0.4287 0.1641 0.2690
C7A C 0.49314(12) 0.0010(5) 0.30228(10)
C8A C 0.52792(11) -0.0257(4) 0.34689(10)
H4A H 0.5552 -0.1281 0.3487
Mn1A Mn 0.580396(15) 0.57823(6) 0.466266(14)
N1A N 0.67011(9) 0.5445(3) 0.50164(8)
N2A N 0.63406(9) 0.5052(4) 0.40190(8)
N3A N 0.82950(10) 0.3851(4) 0.36685(9)
N4A N 0.85866(10) 0.4111(4) 0.44909(10)
H1A H 0.8813 0.4116 0.4765
C9A C 0.68672(12) 0.5619(4) 0.55122(10)
H5A H 0.6602 0.5893 0.5741
C10A C 0.74257(12) 0.5408(4) 0.57038(11)
H6A H 0.7526 0.5521 0.6054
C11A C 0.76562(11) 0.4856(4) 0.48515(10)
C12A C 0.78168(11) 0.5041(4) 0.53770(10)
H7A H 0.8190 0.4911 0.5499
C13A C 0.70887(10) 0.5049(4) 0.46857(10)
C14A C 0.68914(10) 0.4862(4) 0.41479(10)
C15A C 0.61478(12) 0.4830(5) 0.35338(11)
H8A H 0.5766 0.4948 0.3449
C16A C 0.64922(14) 0.4428(6) 0.31440(12)
H9A H 0.6342 0.4280 0.2806
C17A C 0.70498(13) 0.4255(5) 0.32658(12)
H10A H 0.7285 0.3998 0.3009
C18A C 0.72737(11) 0.4462(4) 0.37752(10)
C19A C 0.78457(12) 0.4290(4) 0.39525(11)
C20A C 0.80265(11) 0.4453(4) 0.44634(11)
C21A C 0.87184(12) 0.3769(5) 0.40165(12)
H11A H 0.9081 0.3493 0.3938
Mn1_2 Mn 0.419604(15) -0.42177(6) 0.033734(14)
Mn1A_2 Mn 0.580396(15) -0.42177(6) 0.466266(14)
Mn1D Mn 0.580396(15) 0.42177(6) -0.033734(14)
Mn1E Mn 0.419604(15) 0.42177(6) 0.533734(14)
O3D O 0.43803(8) 0.6581(4) -0.04098(7)
O3E O 0.56197(8) 0.6581(4) 0.54098(7)
O5_2 O 0.41571(8) 0.8997(3) 0.05672(8)
O5A_2 O 0.58429(8) 0.8997(3) 0.44328(8)
O6 O 0.1716(7) 0.275(4) 0.2318(6)
O7 O 0.2271(5) 0.9305(14) 0.1977(2)
O8 O 0.1783(6) 0.563(4) 0.2337(7)
loop_
_geom_bond_atom_site_label_1
_geom_bond_atom_site_label_2
_geom_bond_site_symmetry_1
_geom_bond_site_symmetry_2
Mn1 O1 1_555 1_555
S1 O4 1_555 1_555
O1 C2 1_555 1_555
O2 Mn1 1_555 1_555
O3 C1 1_555 1_555
O5 C2 1_555 1_555
N1 Mn1 1_555 1_555
N2 Mn1 1_555 1_555
N3 C19 1_555 1_555
N4 H1 1_555 1_555
C1 O2 1_555 1_555
C2 C3 1_555 1_555
C3 C4 1_555 1_555
C4 C1 1_555 1_555
C5 C4 1_555 1_555
H2 C5 1_555 1_555
C6 C5 1_555 1_555
H3 C6 1_555 1_555
C7 S1 1_555 1_555
C8 C3 1_555 1_555
H4 C8 1_555 1_555
C9 N1 1_555 1_555
H5 C9 1_555 1_555
C10 C9 1_555 1_555
H6 C10 1_555 1_555
C11 C12 1_555 1_555
C12 C10 1_555 1_555
H7 C12 1_555 1_555
C13 N1 1_555 1_555
C14 N2 1_555 1_555
C15 N2 1_555 1_555
H8 C15 1_555 1_555
C16 C15 1_555 1_555
H9 C16 1_555 1_555
C17 C16 1_555 1_555
H10 C17 1_555 1_555
C18 C14 1_555 1_555
C19 C18 1_555 1_555
C20 N4 1_555 1_555
C21 N3 1_555 1_555
H11 C21 1_555 1_555
O1A C2A 1_555 1_555
O2A C1A 1_555 1_555
O3A C1A 1_555 1_555
O4A S1 1_555 1_555
O5A C2A 1_555 1_555
C1A C4A 1_555 1_555
C2A C3A 1_555 1_555
C3A C4A 1_555 1_555
C4A C5A 1_555 1_555
C5A H2A 1_555 1_555
C6A C5A 1_555 1_555
H3A C6A 1_555 1_555
C7A S1 1_555 1_555
C8A C3A 1_555 1_555
H4A C8A 1_555 1_555
Mn1A O1A 1_555 1_555
N1A Mn1A 1_555 1_555
N2A Mn1A 1_555 1_555
N3A C19A 1_555 1_555
N4A H1A 1_555 1_555
C9A N1A 1_555 1_555
H5A C9A 1_555 1_555
C10A C9A 1_555 1_555
H6A C10A 1_555 1_555
C11A C12A 1_555 1_555
C12A C10A 1_555 1_555
H7A C12A 1_555 1_555
C13A N1A 1_555 1_555
C14A N2A 1_555 1_555
C15A N2A 1_555 1_555
H8A C15A 1_555 1_555
C16A C15A 1_555 1_555
H9A C16A 1_555 1_555
C17A C16A 1_555 1_555
H10A C17A 1_555 1_555
C18A C14A 1_555 1_555
C19A C18A 1_555 1_555
C20A N4A 1_555 1_555
C21A N3A 1_555 1_555
H11A C21A 1_555 1_555
Mn1_2 O5 1_555 1_555
Mn1A_2 O5A 1_555 1_555
Mn1D O3 1_555 1_555
Mn1E O3A 1_555 1_555
O3D Mn1 1_555 1_555
O3E Mn1A 1_555 1_555
O5_2 Mn1 1_555 1_555
O5A_2 Mn1A 1_555 1_555
N4 C21 1_555 1_555
C6 C7 1_555 1_555
C7 C8 1_555 1_555
C11 C13 1_555 1_555
C11 C20 1_555 1_555
C13 C14 1_555 1_555
C17 C18 1_555 1_555
C19 C20 1_555 1_555
O2A Mn1A 1_555 1_555
C6A C7A 1_555 1_555
C7A C8A 1_555 1_555
N4A C21A 1_555 1_555
C11A C13A 1_555 1_555
C11A C20A 1_555 1_555
C13A C14A 1_555 1_555
C17A C18A 1_555 1_555
C19A C20A 1_555 1_555

#END
