
#######################################################################
#
#                 Cambridge Crystallographic Data Centre
#                                CCDC 
#
#######################################################################
#
# If this CIF has been generated from an entry in the Cambridge 
# Structural Database, then it will include bibliographic, chemical, 
# crystal, experimental, refinement or atomic coordinate data resulting 
# from the CCDC's data processing and validation procedures.
#
#######################################################################

data_VOCNAE
_symmetry_cell_setting           triclinic
_symmetry_space_group_name_H-M   'P -1'
_symmetry_Int_Tables_number      2
_space_group_name_Hall           '-P 1'
loop_
_symmetry_equiv_pos_site_id
_symmetry_equiv_pos_as_xyz
1 x,y,z
2 -x,-y,-z
_cell_length_a                   7.563(7)
_cell_length_b                   16.203(15)
_cell_length_c                   18.020(17)
_cell_angle_alpha                107.926(17)
_cell_angle_beta                 101.079(18)
_cell_angle_gamma                97.177(17)
_cell_volume                     2021.41
loop_
_atom_site_label
_atom_site_type_symbol
_atom_site_fract_x
_atom_site_fract_y
_atom_site_fract_z
Zn1 Zn 0.57616(13) 0.54203(6) 0.41641(7)
Zn2 Zn -0.17044(15) 0.19029(7) -0.14378(7)
S1 S 0.6571(3) 0.10400(14) 0.19768(15)
O1 O 0.9623(8) 0.5086(3) 0.4028(4)
O2 O 0.6763(7) 0.4337(3) 0.3771(4)
O3 O 1.2808(9) 0.4331(4) 0.4715(4)
O4 O 1.3244(7) 0.4684(4) 0.3648(4)
O5 O 0.5380(8) 0.0965(4) 0.2500(4)
O6 O 0.7521(9) 0.0350(4) 0.1694(4)
O7 O 0.0366(9) 0.1953(5) -0.0601(4)
O8 O 0.2384(9) 0.1766(4) -0.1352(4)
O9 O 0.6500(10) 0.2518(5) -0.0589(5)
O10 O 0.6394(9) 0.1116(6) -0.1137(4)
N1 N 0.5264(9) 0.6707(4) 0.4605(4)
N2 N 0.6202(9) 0.5923(4) 0.3253(4)
N3 N 0.5850(10) 0.9460(4) 0.3962(5)
N4 N 0.6377(9) 0.8770(5) 0.2776(5)
H1 H 0.6609 0.8702 0.2314
N5 N -0.1607(9) 0.2852(5) -0.1957(5)
N6 N -0.1553(9) 0.1153(5) -0.2538(4)
N7 N -0.0300(9) 0.3067(5) -0.4466(4)
H2 H -0.0221 0.3611 -0.4438
N8 N -0.0217(9) 0.1643(4) -0.4964(5)
C1 C 0.8471(12) 0.4396(5) 0.3768(5)
C2 C 0.9024(11) 0.3551(5) 0.3369(5)
C3 C 1.0884(11) 0.3506(5) 0.3439(5)
C4 C 1.1381(12) 0.2734(5) 0.3020(6)
H3 H 1.2617 0.2714 0.3055
C5 C 1.0047(12) 0.1989(5) 0.2547(5)
H4 H 1.0377 0.1470 0.2267
C6 C 0.8245(12) 0.2036(5) 0.2503(5)
C7 C 0.7714(12) 0.2798(5) 0.2896(5)
H5 H 0.6471 0.2810 0.2847
C8 C 1.2446(12) 0.4259(5) 0.4005(7)
C9 C 0.5245(12) 0.1221(5) 0.1145(5)
C10 C 0.5968(13) 0.1354(6) 0.0562(6)
H6 H 0.7191 0.1315 0.0581
C11 C 0.4979(13) 0.1545(6) -0.0062(5)
C12 C 0.3110(13) 0.1574(6) -0.0086(6)
C13 C 0.2377(14) 0.1389(7) 0.0481(6)
H7 H 0.1131 0.1378 0.0446
C14 C 0.3417(14) 0.1216(7) 0.1116(6)
H8 H 0.2895 0.1100 0.1509
C15 C 0.1913(14) 0.1771(6) -0.0754(6)
C16 C 0.5964(14) 0.1753(9) -0.0636(6)
C17 C 0.4806(11) 0.7081(5) 0.5274(5)
H9 H 0.4562 0.6734 0.5582
C18 C 0.4661(11) 0.7962(5) 0.5556(5)
H10 H 0.4347 0.8198 0.6042
C19 C 0.4989(11) 0.8474(5) 0.5105(5)
H11 H 0.4894 0.9066 0.5279
C20 C 0.5464(10) 0.8108(5) 0.4386(5)
C21 C 0.5561(10) 0.7211(5) 0.4149(5)
C22 C 0.6022(10) 0.6781(5) 0.3408(5)
C23 C 0.6498(12) 0.5488(6) 0.2542(6)
H12 H 0.6586 0.4897 0.2429
C24 C 0.6680(12) 0.5869(6) 0.1967(6)
H13 H 0.6888 0.5541 0.1480
C25 C 0.6550(12) 0.6742(6) 0.2126(6)
H14 H 0.6644 0.7010 0.1743
C26 C 0.6273(11) 0.7224(6) 0.2872(5)
C27 C 0.6137(11) 0.8138(5) 0.3133(5)
C28 C 0.5811(11) 0.8565(5) 0.3856(5)
C29 C 0.6164(13) 0.9517(6) 0.3311(7)
H15 H 0.6244 1.0048 0.3209
C30 C -0.1736(13) 0.3700(7) -0.1649(6)
H16 H -0.1945 0.3906 -0.1137
C31 C -0.1568(13) 0.4274(6) -0.2067(6)
H17 H -0.1669 0.4859 -0.1837
C32 C -0.1253(12) 0.3991(6) -0.2822(6)
H18 H -0.1161 0.4375 -0.3111
C33 C -0.1075(11) 0.3114(5) -0.3144(6)
C34 C -0.1328(11) 0.2560(6) -0.2706(6)
C35 C -0.1246(11) 0.1631(6) -0.3017(6)
C36 C -0.0962(11) 0.1247(5) -0.3791(5)
C37 C -0.0970(12) 0.0340(6) -0.4055(6)
H19 H -0.0805 0.0059 -0.4564
C38 C -0.1224(13) -0.0129(6) -0.3559(6)
H20 H -0.1212 -0.0731 -0.3722
C39 C -0.1498(12) 0.0296(6) -0.2816(6)
H21 H -0.1656 -0.0036 -0.2486
C40 C -0.0691(11) 0.2722(5) -0.3910(5)
C41 C -0.0626(11) 0.1835(6) -0.4215(5)
C42 C -0.0057(11) 0.2394(6) -0.5074(6)
H22 H 0.0205 0.2466 -0.5536
Zn1_2 Zn 1.57616(13) 0.54203(6) 0.41641(7)
Zn1A Zn 1.42384(13) 0.45797(6) 0.58359(7)
Zn2_2 Zn 0.82956(15) 0.19029(7) -0.14378(7)
O3A O 0.7192(9) 0.5669(4) 0.5285(4)
O4_2 O 0.3244(7) 0.4684(4) 0.3648(4)
O9_2 O -0.3500(10) 0.2518(5) -0.0589(5)
O10_2 O -0.3606(9) 0.1116(6) -0.1137(4)
O11 O 0.3749(18) 0.3535(7) 0.1958(7)
H23 H 0.4653 0.3579 0.1747
H24 H 0.2705 0.3461 0.1642
O12 O 0.033(3) 0.3288(14) 0.0903(12)
H25 H 0.0224 0.3158 0.0417
H26 H -0.0660 0.3407 0.1026
O13 O 0.541(4) 0.3988(12) 0.0204(14)
H27 H 0.4902 0.3921 0.0570
H28 H 0.5592 0.3512 -0.0065
O14 O 0.698(4) 0.3695(13) 0.1267(15)
H29 H 0.6853 0.3353 0.0809
H30 H 0.7962 0.3957 0.1248
O15 O 0.220(3) 0.4483(14) 0.0057(12)
H31 H 0.2422 0.4207 0.0366
H32 H 0.2852 0.4907 -0.0014
loop_
_geom_bond_atom_site_label_1
_geom_bond_atom_site_label_2
_geom_bond_site_symmetry_1
_geom_bond_site_symmetry_2
Zn1 O2 1_555 1_555
Zn2 O7 1_555 1_555
S1 O5 1_555 1_555
O1 C1 1_555 1_555
O2 C1 1_555 1_555
O3 C8 1_555 1_555
O4 C8 1_555 1_555
O6 S1 1_555 1_555
O7 C15 1_555 1_555
O8 C15 1_555 1_555
O9 C16 1_555 1_555
O10 C16 1_555 1_555
N1 Zn1 1_555 1_555
N2 Zn1 1_555 1_555
N3 C28 1_555 1_555
N4 H1 1_555 1_555
N5 Zn2 1_555 1_555
N6 Zn2 1_555 1_555
N7 H2 1_555 1_555
N8 C41 1_555 1_555
C1 C2 1_555 1_555
C2 C3 1_555 1_555
C3 C4 1_555 1_555
C4 H3 1_555 1_555
C5 C4 1_555 1_555
H4 C5 1_555 1_555
C6 S1 1_555 1_555
C7 C2 1_555 1_555
H5 C7 1_555 1_555
C8 C3 1_555 1_555
C9 S1 1_555 1_555
C10 C9 1_555 1_555
H6 C10 1_555 1_555
C11 C10 1_555 1_555
C12 C11 1_555 1_555
C13 C12 1_555 1_555
H7 C13 1_555 1_555
C14 C9 1_555 1_555
H8 C14 1_555 1_555
C15 C12 1_555 1_555
C16 C11 1_555 1_555
C17 N1 1_555 1_555
H9 C17 1_555 1_555
C18 C17 1_555 1_555
H10 C18 1_555 1_555
C19 C18 1_555 1_555
H11 C19 1_555 1_555
C20 C19 1_555 1_555
C21 N1 1_555 1_555
C22 N2 1_555 1_555
C23 N2 1_555 1_555
H12 C23 1_555 1_555
C24 C23 1_555 1_555
H13 C24 1_555 1_555
C25 C24 1_555 1_555
H14 C25 1_555 1_555
C26 C22 1_555 1_555
C27 N4 1_555 1_555
C28 C20 1_555 1_555
C29 N3 1_555 1_555
H15 C29 1_555 1_555
C30 N5 1_555 1_555
H16 C30 1_555 1_555
C31 C30 1_555 1_555
H17 C31 1_555 1_555
C32 C31 1_555 1_555
H18 C32 1_555 1_555
C33 C32 1_555 1_555
C34 N5 1_555 1_555
C35 N6 1_555 1_555
C36 C35 1_555 1_555
C37 C36 1_555 1_555
H19 C37 1_555 1_555
C38 C37 1_555 1_555
H20 C38 1_555 1_555
C39 N6 1_555 1_555
H21 C39 1_555 1_555
C40 N7 1_555 1_555
C41 C36 1_555 1_555
C42 N7 1_555 1_555
H22 C42 1_555 1_555
O11 H23 1_555 1_555
H24 O11 1_555 1_555
O12 H25 1_555 1_555
H26 O12 1_555 1_555
O13 H27 1_555 1_555
H28 O13 1_555 1_555
O14 H29 1_555 1_555
H30 O14 1_555 1_555
O15 H31 1_555 1_555
H32 O15 1_555 1_555
Zn1_2 O4 1_555 1_555
Zn1A O3 1_555 1_555
Zn2_2 O9 1_555 1_555
O3A Zn1 1_555 1_555
O4_2 Zn1 1_555 1_555
O9_2 Zn2 1_555 1_555
O10_2 Zn2 1_555 1_555
O10 Zn2_2 1_555 1_555
N4 C29 1_555 1_555
N8 C42 1_555 1_555
C5 C6 1_555 1_555
C6 C7 1_555 1_555
C13 C14 1_555 1_555
C20 C21 1_555 1_555
C21 C22 1_555 1_555
C25 C26 1_555 1_555
C26 C27 1_555 1_555
C27 C28 1_555 1_555
C33 C34 1_555 1_555
C33 C40 1_555 1_555
C34 C35 1_555 1_555
C38 C39 1_555 1_555
C40 C41 1_555 1_555

#END
