
#######################################################################
#
#                 Cambridge Crystallographic Data Centre
#                                CCDC 
#
#######################################################################
#
# If this CIF has been generated from an entry in the Cambridge 
# Structural Database, then it will include bibliographic, chemical, 
# crystal, experimental, refinement or atomic coordinate data resulting 
# from the CCDC's data processing and validation procedures.
#
#######################################################################

data_VOCNEI
_symmetry_cell_setting           triclinic
_symmetry_space_group_name_H-M   'P -1'
_symmetry_Int_Tables_number      2
_space_group_name_Hall           '-P 1'
loop_
_symmetry_equiv_pos_site_id
_symmetry_equiv_pos_as_xyz
1 x,y,z
2 -x,-y,-z
_cell_length_a                   10.487(2)
_cell_length_b                   11.388(3)
_cell_length_c                   12.826(3)
_cell_angle_alpha                95.745(4)
_cell_angle_beta                 106.160(4)
_cell_angle_gamma                108.206(4)
_cell_volume                     1367.9
loop_
_atom_site_label
_atom_site_type_symbol
_atom_site_fract_x
_atom_site_fract_y
_atom_site_fract_z
Cd1 Cd 0.22076(3) 0.07384(3) 0.08871(2)
O1 O -0.0072(3) 0.0801(4) 0.1080(3)
O2 O -0.2374(3) 0.0332(3) 0.0625(2)
O3 O 0.1455(3) 0.0392(3) 0.4140(3)
H1 H 0.1671 -0.0240 0.4104
O4 O -0.0455(4) -0.0821(3) 0.2759(3)
O5 O -0.2389(5) 0.4337(3) 0.4407(3)
O6 O -0.5904(3) 0.6408(4) 0.0695(3)
H2 H -0.5344 0.6649 0.0357
O7 O -0.5917(4) 0.5688(4) 0.2213(4)
O8 O -0.1955(3) 0.7686(3) 0.0045(3)
O9 O -0.4200(4) 0.7299(4) -0.0179(3)
O10 O 0.1061(4) -0.1224(4) 0.1245(3)
N1 N 0.3148(4) 0.2103(3) 0.2600(3)
N2 N 0.4282(4) 0.0435(3) 0.1944(3)
N3 N 0.7328(4) 0.1277(4) 0.5837(3)
N4 N 0.6472(4) 0.2693(4) 0.6364(3)
H3 H 0.6380 0.3266 0.6796
C1 C 0.2633(4) 0.2964(4) 0.2885(4)
H4 H 0.1948 0.3122 0.2341
C2 C 0.3074(5) 0.3636(4) 0.3962(4)
H5 H 0.2697 0.4241 0.4131
C3 C 0.4074(5) 0.3398(4) 0.4778(4)
H6 H 0.4353 0.3818 0.5509
C4 C 0.4665(4) 0.2527(4) 0.4501(3)
C5 C 0.4171(4) 0.1887(4) 0.3378(3)
C6 C 0.4768(4) 0.0982(4) 0.3037(3)
C7 C 0.4824(5) -0.0366(4) 0.1600(4)
H7 H 0.4482 -0.0740 0.0851
C8 C 0.5885(5) -0.0679(4) 0.2306(4)
H8 H 0.6253 -0.1238 0.2029
C9 C 0.6372(4) -0.0160(4) 0.3402(4)
H9 H 0.7069 -0.0369 0.3889
C10 C 0.5818(4) 0.0697(4) 0.3798(3)
C11 C 0.6283(4) 0.1346(4) 0.4932(3)
C12 C 0.5740(4) 0.2209(4) 0.5242(3)
C13 C 0.7355(4) 0.2058(5) 0.6611(4)
H10 H 0.7965 0.2189 0.7329
C14 C -0.1143(4) 0.0833(4) 0.1296(3)
C15 C 0.0238(4) 0.0166(4) 0.3389(3)
C16 C -0.0260(4) 0.1262(4) 0.3403(3)
C17 C -0.0071(4) 0.1970(4) 0.4422(3)
H11 H 0.0440 0.1811 0.5076
C18 C -0.0642(5) 0.2906(4) 0.4463(3)
H12 H -0.0535 0.3363 0.5144
C19 C -0.1375(4) 0.3168(4) 0.3490(3)
C20 C -0.1542(4) 0.2479(4) 0.2472(3)
H13 H -0.2030 0.2658 0.1820
C21 C -0.0982(4) 0.1522(4) 0.2422(3)
C22 C -0.2076(5) 0.4116(4) 0.3580(4)
C23 C -0.2365(5) 0.4825(4) 0.2676(4)
C24 C -0.1412(5) 0.5283(4) 0.2125(4)
H14 H -0.0589 0.5091 0.2259
C25 C -0.1697(5) 0.6028(4) 0.1376(4)
H15 H -0.1036 0.6350 0.1025
C26 C -0.2921(4) 0.6321(4) 0.1118(3)
C27 C -0.3921(5) 0.5822(4) 0.1670(4)
C28 C -0.5328(5) 0.5986(4) 0.1521(5)
C29 C -0.3595(5) 0.5107(4) 0.2435(4)
H16 H -0.4232 0.4797 0.2810
C30 C -0.3042(5) 0.7148(4) 0.0270(3)
H17 H 0.059(10) -0.185(8) 0.069(7)
H18 H 0.057(9) -0.074(8) 0.119(9)
Cd1A Cd -0.22076(3) -0.07384(3) -0.08871(2)
Cd1A_2 Cd -0.22076(3) 0.92616(3) -0.08871(2)
O2A O 0.2374(3) -0.0332(3) -0.0625(2)
O8A O 0.1955(3) 0.2314(3) -0.0045(3)
O11 O 0.115(2) 0.543(2) 0.1067(16)
O12 O 0.1310(9) 0.6557(9) 0.0259(8)
loop_
_geom_bond_atom_site_label_1
_geom_bond_atom_site_label_2
_geom_bond_site_symmetry_1
_geom_bond_site_symmetry_2
Cd1 O1 1_555 1_555
O1 C14 1_555 1_555
O2 C14 1_555 1_555
O3 H1 1_555 1_555
O4 C15 1_555 1_555
O5 C22 1_555 1_555
O6 H2 1_555 1_555
O7 C28 1_555 1_555
O8 C30 1_555 1_555
O9 C30 1_555 1_555
O10 Cd1 1_555 1_555
N1 Cd1 1_555 1_555
N2 Cd1 1_555 1_555
N3 C11 1_555 1_555
N4 H3 1_555 1_555
C1 N1 1_555 1_555
H4 C1 1_555 1_555
C2 C1 1_555 1_555
H5 C2 1_555 1_555
C3 C2 1_555 1_555
H6 C3 1_555 1_555
C4 C3 1_555 1_555
C5 N1 1_555 1_555
C6 N2 1_555 1_555
C7 N2 1_555 1_555
H7 C7 1_555 1_555
C8 C7 1_555 1_555
H8 C8 1_555 1_555
C9 C8 1_555 1_555
H9 C9 1_555 1_555
C10 C6 1_555 1_555
C11 C10 1_555 1_555
C12 N4 1_555 1_555
C13 N3 1_555 1_555
H10 C13 1_555 1_555
C14 C21 1_555 1_555
C15 O3 1_555 1_555
C16 C15 1_555 1_555
C17 C16 1_555 1_555
H11 C17 1_555 1_555
C18 C17 1_555 1_555
H12 C18 1_555 1_555
C19 C18 1_555 1_555
C20 C19 1_555 1_555
H13 C20 1_555 1_555
C21 C16 1_555 1_555
C22 C19 1_555 1_555
C23 C22 1_555 1_555
C24 C23 1_555 1_555
H14 C24 1_555 1_555
C25 C24 1_555 1_555
H15 C25 1_555 1_555
C26 C25 1_555 1_555
C27 C26 1_555 1_555
C28 O6 1_555 1_555
C29 C23 1_555 1_555
H16 C29 1_555 1_555
C30 C26 1_555 1_555
H17 O10 1_555 1_555
H18 O10 1_555 1_555
Cd1A O2 1_555 1_555
Cd1A_2 O8 1_555 1_555
O2A Cd1 1_555 1_555
O8A Cd1 1_555 1_555
N4 C13 1_555 1_555
C4 C5 1_555 1_555
C4 C12 1_555 1_555
C5 C6 1_555 1_555
C9 C10 1_555 1_555
C11 C12 1_555 1_555
C20 C21 1_555 1_555
C27 C28 1_555 1_555
C27 C29 1_555 1_555

#END
