
#######################################################################
#
#                 Cambridge Crystallographic Data Centre
#                                CCDC 
#
#######################################################################
#
# If this CIF has been generated from an entry in the Cambridge 
# Structural Database, then it will include bibliographic, chemical, 
# crystal, experimental, refinement or atomic coordinate data resulting 
# from the CCDC's data processing and validation procedures.
#
#######################################################################

data_VOCQIP
_symmetry_cell_setting           rhombohedral
_symmetry_space_group_name_H-M   'R -3'
_symmetry_Int_Tables_number      148
_space_group_name_Hall           '-R 3'
loop_
_symmetry_equiv_pos_site_id
_symmetry_equiv_pos_as_xyz
1 x,y,z
2 -y,x-y,z
3 -x+y,-x,z
4 2/3+x,1/3+y,1/3+z
5 2/3-y,1/3+x-y,1/3+z
6 2/3-x+y,1/3-x,1/3+z
7 1/3+x,2/3+y,2/3+z
8 1/3-y,2/3+x-y,2/3+z
9 1/3-x+y,2/3-x,2/3+z
10 -x,-y,-z
11 y,-x+y,-z
12 x-y,x,-z
13 1/3-x,2/3-y,2/3-z
14 1/3+y,2/3-x+y,2/3-z
15 1/3+x-y,2/3+x,2/3-z
16 2/3-x,1/3-y,1/3-z
17 2/3+y,1/3-x+y,1/3-z
18 2/3+x-y,1/3+x,1/3-z
_cell_length_a                   16.1557(14)
_cell_length_b                   16.1557(14)
_cell_length_c                   16.807(3)
_cell_angle_alpha                90
_cell_angle_beta                 90
_cell_angle_gamma                120
_cell_volume                     3799.03
loop_
_atom_site_label
_atom_site_type_symbol
_atom_site_fract_x
_atom_site_fract_y
_atom_site_fract_z
C1 C 0.0254(4) 0.1517(4) 0.1182(4)
C2 C 0.0170(5) 0.2367(4) 0.0969(4)
C3 C -0.0469(5) 0.2559(5) 0.1356(5)
H1 H -0.0826 0.2179 0.1781
C4 C -0.0580(7) 0.3318(6) 0.1111(6)
H2 H -0.1031 0.3425 0.1362
C5 C -0.0043(7) 0.3910(6) 0.0508(5)
C6 C 0.0619(9) 0.3741(7) 0.0146(6)
H3 H 0.1009 0.4156 -0.0249
C7 C 0.0717(7) 0.2971(6) 0.0355(6)
H4 H 0.1150 0.2854 0.0085
C8 C -0.0233(9) 0.4688(7) 0.0266(6)
H5 H -0.0726 0.4720 0.0522
O1 O -0.0052(3) 0.1164(3) 0.1867(3)
O2 O 0.0633(3) 0.1222(2) 0.0703(2)
O3 O 0.0000 0.0000 0.3264(7)
H6 H 0.0315 -0.0176 0.3529
Zn1 Zn 0.0000 0.0000 0.20790(7)
Zn2 Zn 0.0000 0.0000 0.0000
C1I C -0.0254(4) 0.8483(4) -0.1182(4)
C2I C -0.0170(5) 0.7633(4) -0.0969(4)
C3I C 0.0469(5) 0.7441(5) -0.1356(5)
H1I H 0.0826 0.7821 -0.1781
C4I C 0.0580(7) 0.6682(6) -0.1111(6)
H2I H 0.1031 0.6575 -0.1362
C5I C 0.0043(7) 0.6090(6) -0.0508(5)
C6I C -0.0619(9) 0.6259(7) -0.0146(6)
H3I H -0.1009 0.5844 0.0249
C7I C -0.0717(7) 0.7029(6) -0.0355(6)
H4I H -0.1150 0.7146 -0.0085
C8I C 0.0233(9) 0.5312(7) -0.0266(6)
H5I H 0.0726 0.5280 -0.0522
O1I O 0.0052(3) 0.8836(3) -0.1867(3)
O2I O -0.0633(3) 0.8778(2) -0.0703(2)
H6B H -0.0491 -0.0315 0.3529
C1A C -0.1517(4) -0.1263(6) 0.1182(4)
C2A C -0.2367(4) -0.2197(6) 0.0969(4)
C3A C -0.2559(5) -0.3028(7) 0.1356(5)
H1A H -0.2179 -0.3005 0.1781
C4A C -0.3318(6) -0.3898(9) 0.1111(6)
H2A H -0.3425 -0.4456 0.1362
C5A C -0.3910(6) -0.3953(9) 0.0508(5)
C6A C -0.3741(7) -0.3122(11) 0.0146(6)
H3A H -0.4156 -0.3147 -0.0249
C7A C -0.2971(6) -0.2254(9) 0.0355(6)
H4A H -0.2854 -0.1704 0.0085
C8A C -0.4688(7) -0.4921(11) 0.0266(6)
H5A H -0.4720 -0.5446 0.0522
O1A O -0.1164(3) -0.1216(4) 0.1867(3)
O2A O -0.1222(2) -0.0589(4) 0.0703(2)
C1J C -0.8483(4) -0.8737(6) -0.1182(4)
C2J C -0.7633(4) -0.7803(6) -0.0969(4)
C3J C -0.7441(5) -0.6972(7) -0.1356(5)
H1J H -0.7821 -0.6995 -0.1781
C4J C -0.6682(6) -0.6102(9) -0.1111(6)
H2J H -0.6575 -0.5544 -0.1362
C5J C -0.6090(6) -0.6047(9) -0.0508(5)
C6J C -0.6259(7) -0.6878(11) -0.0146(6)
H3J H -0.5844 -0.6853 0.0249
C7J C -0.7029(6) -0.7746(9) -0.0355(6)
H4J H -0.7146 -0.8296 -0.0085
C8J C -0.5312(7) -0.5079(11) -0.0266(6)
H5J H -0.5280 -0.4554 -0.0522
O1J O -0.8836(3) -0.8784(4) -0.1867(3)
O2J O -0.8778(2) -0.9411(4) -0.0703(2)
C1B C -0.8737(6) -0.0254(4) 0.1182(4)
C2B C -0.7803(6) -0.0170(5) 0.0969(4)
C3B C -0.6972(7) 0.0469(5) 0.1356(5)
H1B H -0.6995 0.0826 0.1781
C4B C -0.6102(9) 0.0580(7) 0.1111(6)
H2B H -0.5544 0.1031 0.1362
C5B C -0.6047(9) 0.0043(7) 0.0508(5)
C6B C -0.6878(11) -0.0619(9) 0.0146(6)
H3B H -0.6853 -0.1009 -0.0249
C7B C -0.7746(9) -0.0717(7) 0.0355(6)
H4B H -0.8296 -0.1150 0.0085
C8B C -0.5079(11) 0.0233(9) 0.0266(6)
H5B H -0.4554 0.0726 0.0522
O1B O -0.8784(4) 0.0052(3) 0.1867(3)
O2B O -0.9411(4) -0.0633(3) 0.0703(2)
C1K C -0.1263(6) 0.0254(4) -0.1182(4)
C2K C -0.2197(6) 0.0170(5) -0.0969(4)
C3K C -0.3028(7) -0.0469(5) -0.1356(5)
H1K H -0.3005 -0.0826 -0.1781
C4K C -0.3898(9) -0.0580(7) -0.1111(6)
H2K H -0.4456 -0.1031 -0.1362
C5K C -0.3953(9) -0.0043(7) -0.0508(5)
C6K C -0.3122(11) 0.0619(9) -0.0146(6)
H3K H -0.3147 0.1009 0.0249
C7K C -0.2254(9) 0.0717(7) -0.0355(6)
H4K H -0.1704 0.1150 -0.0085
C8K C -0.4921(11) -0.0233(9) -0.0266(6)
H5K H -0.5446 -0.0726 -0.0522
O1K O -0.1216(4) -0.0052(3) -0.1867(3)
O2K O -0.0589(4) 0.0633(3) -0.0703(2)
O3I O 0.0000 0.0000 -0.3264(7)
H6I H -0.0315 0.0176 -0.3529
Zn1I Zn 0.0000 0.0000 -0.20790(7)
H6K H 0.0491 0.0315 -0.3529
O1B_2 O 0.1216(4) 0.0052(3) 0.1867(3)
O1I_2 O 0.0052(3) -0.1164(3) -0.1867(3)
O1J_2 O 0.1164(3) 0.1216(4) -0.1867(3)
O2B_2 O 0.0589(4) -0.0633(3) 0.0703(2)
O2I_2 O -0.0633(3) -0.1222(2) -0.0703(2)
O2J_2 O 0.1222(2) 0.0589(4) -0.0703(2)
Zn1_2 Zn -1.0000 0.0000 0.20790(7)
Zn1I_2 Zn -1.0000 -1.0000 -0.20790(7)
Zn1I_3 Zn 0.0000 1.0000 -0.20790(7)
Zn2_2 Zn -1.0000 -1.0000 0.0000
Zn2_3 Zn -1.0000 0.0000 0.0000
Zn2_4 Zn 0.0000 1.0000 0.0000
loop_
_geom_bond_atom_site_label_1
_geom_bond_atom_site_label_2
_geom_bond_site_symmetry_1
_geom_bond_site_symmetry_2
C1 C2 1_555 1_555
C2 C3 1_555 1_555
C3 H1 1_555 1_555
C4 C3 1_555 1_555
H2 C4 1_555 1_555
C5 C4 1_555 1_555
C6 C5 1_555 1_555
H3 C6 1_555 1_555
C7 C2 1_555 1_555
H4 C7 1_555 1_555
C8 C5 1_555 1_555
H5 C8 1_555 1_555
O1 C1 1_555 1_555
O2 C1 1_555 1_555
O3 H6 1_555 1_555
Zn1 O1 1_555 1_555
Zn2 O2 1_555 1_555
C1I C2I 1_555 1_555
C2I C3I 1_555 1_555
C3I H1I 1_555 1_555
C4I C3I 1_555 1_555
H2I C4I 1_555 1_555
C5I C4I 1_555 1_555
C6I C5I 1_555 1_555
H3I C6I 1_555 1_555
C7I C2I 1_555 1_555
H4I C7I 1_555 1_555
C8I C8 1_555 1_555
H5I C8I 1_555 1_555
O1I C1I 1_555 1_555
O2I C1I 1_555 1_555
H6B O3 1_555 1_555
C1A C2A 1_555 1_555
C2A C3A 1_555 1_555
C3A H1A 1_555 1_555
C4A C3A 1_555 1_555
H2A C4A 1_555 1_555
C5A C4A 1_555 1_555
C6A C5A 1_555 1_555
H3A C6A 1_555 1_555
C7A C2A 1_555 1_555
H4A C7A 1_555 1_555
C8A C5A 1_555 1_555
H5A C8A 1_555 1_555
O1A Zn1 1_555 1_555
O2A Zn2 1_555 1_555
C1J C2J 1_555 1_555
C2J C3J 1_555 1_555
C3J H1J 1_555 1_555
C4J C3J 1_555 1_555
H2J C4J 1_555 1_555
C5J C4J 1_555 1_555
C6J C5J 1_555 1_555
H3J C6J 1_555 1_555
C7J C2J 1_555 1_555
H4J C7J 1_555 1_555
C8J C8A 1_555 1_555
H5J C8J 1_555 1_555
O1J C1J 1_555 1_555
O2J C1J 1_555 1_555
C1B C2B 1_555 1_555
C2B C3B 1_555 1_555
C3B H1B 1_555 1_555
C4B C3B 1_555 1_555
H2B C4B 1_555 1_555
C5B C4B 1_555 1_555
C6B C5B 1_555 1_555
H3B C6B 1_555 1_555
C7B C2B 1_555 1_555
H4B C7B 1_555 1_555
C8B C5B 1_555 1_555
H5B C8B 1_555 1_555
O1B C1B 1_555 1_555
O2B C1B 1_555 1_555
C1K C2K 1_555 1_555
C2K C3K 1_555 1_555
C3K H1K 1_555 1_555
C4K C3K 1_555 1_555
H2K C4K 1_555 1_555
C5K C4K 1_555 1_555
C6K C5K 1_555 1_555
H3K C6K 1_555 1_555
C7K C2K 1_555 1_555
H4K C7K 1_555 1_555
C8K C8B 1_555 1_555
H5K C8K 1_555 1_555
O1K C1K 1_555 1_555
O2K Zn2 1_555 1_555
O3I H6I 1_555 1_555
Zn1I O1K 1_555 1_555
H6K O3I 1_555 1_555
O1B_2 Zn1 1_555 1_555
O1I_2 Zn1I 1_555 1_555
O1J_2 Zn1I 1_555 1_555
O2B_2 Zn2 1_555 1_555
O2I_2 Zn2 1_555 1_555
O2J_2 Zn2 1_555 1_555
Zn1_2 O1B 1_555 1_555
Zn1I_2 O1J 1_555 1_555
Zn1I_3 O1I 1_555 1_555
Zn2_2 O2J 1_555 1_555
Zn2_3 O2B 1_555 1_555
Zn2_4 O2I 1_555 1_555
C6 C7 1_555 1_555
O3 Zn1 1_555 1_555
C5I C8I 1_555 1_555
C6I C7I 1_555 1_555
C1A O1A 1_555 1_555
C1A O2A 1_555 1_555
C6A C7A 1_555 1_555
C5J C8J 1_555 1_555
C6J C7J 1_555 1_555
C6B C7B 1_555 1_555
C1K O2K 1_555 1_555
C5K C8K 1_555 1_555
C6K C7K 1_555 1_555
O3I Zn1I 1_555 1_555

#END
