
#######################################################################
#
#                 Cambridge Crystallographic Data Centre
#                                CCDC 
#
#######################################################################
#
# If this CIF has been generated from an entry in the Cambridge 
# Structural Database, then it will include bibliographic, chemical, 
# crystal, experimental, refinement or atomic coordinate data resulting 
# from the CCDC's data processing and validation procedures.
#
#######################################################################

data_VOCRAI
_symmetry_cell_setting           monoclinic
_symmetry_space_group_name_H-M   'P 21/c'
_symmetry_Int_Tables_number      14
_space_group_name_Hall           '-P 2ybc'
loop_
_symmetry_equiv_pos_site_id
_symmetry_equiv_pos_as_xyz
1 x,y,z
2 -x,1/2+y,1/2-z
3 -x,-y,-z
4 x,1/2-y,1/2+z
_cell_length_a                   14.8168(5)
_cell_length_b                   11.9549(4)
_cell_length_c                   11.1068(4)
_cell_angle_alpha                90
_cell_angle_beta                 108.06
_cell_angle_gamma                90
_cell_volume                     1870.46
loop_
_atom_site_label
_atom_site_type_symbol
_atom_site_fract_x
_atom_site_fract_y
_atom_site_fract_z
Cu1 Cu 0.576658(15) 0.052966(19) 0.49738(2)
N1 N 0.70224(11) 0.13342(13) 0.48091(15)
N2 N 0.98009(11) 0.09003(15) 0.75466(15)
N3 N 1.04757(12) 0.12618(16) 0.60832(15)
O1 O 1.05884(11) 0.13829(15) 0.49993(14)
O2 O 0.91976(13) 0.07125(16) 0.81032(17)
O3 O 0.61986(11) 0.03852(13) 0.68300(14)
O4 O 0.48948(11) -0.05285(13) 0.68636(14)
O5 O 0.62240(10) -0.40116(12) 0.97898(15)
O6 O 0.49151(11) -0.31048(12) 0.98140(17)
C1 C 0.87155(13) 0.15194(16) 0.54623(17)
C2 C 0.78852(13) 0.10504(16) 0.55727(17)
H1 H 0.7931 0.0519 0.6201
C3 C 0.69627(14) 0.21016(17) 0.39083(19)
H2 H 0.6365 0.2299 0.3377
C4 C 0.77472(14) 0.26128(17) 0.37327(19)
H3 H 0.7678 0.3144 0.3099
C5 C 0.86400(14) 0.23187(17) 0.45209(18)
H4 H 0.9181 0.2650 0.4423
C6 C 0.96440(13) 0.12190(17) 0.63493(18)
C7 C 1.08239(14) 0.05900(17) 0.81518(19)
C8 C 1.11488(15) 0.0952(2) 0.95258(19)
H5 H 1.1035 0.1738 0.9578
H6 H 1.1815 0.0803 0.9888
H7 H 1.0803 0.0543 0.9983
C9 C 1.08604(17) -0.06838(18) 0.8053(2)
H8 H 1.0447 -0.1014 0.8471
H9 H 1.1499 -0.0937 0.8450
H10 H 1.0658 -0.0900 0.7178
C10 C 1.12987(13) 0.12161(18) 0.72832(18)
C11 C 1.15526(15) 0.24350(18) 0.76736(19)
H11 H 1.1702 0.2822 0.7002
H12 H 1.2092 0.2454 0.8425
H13 H 1.1023 0.2792 0.7838
C12 C 1.21386(16) 0.0618(2) 0.7061(2)
H14 H 1.1948 -0.0118 0.6732
H15 H 1.2644 0.0559 0.7847
H16 H 1.2355 0.1034 0.6464
C13 C 0.56801(14) -0.00697(16) 0.73953(18)
C14 C 0.60105(15) -0.00266(17) 0.88287(19)
H17 H 0.5783 0.0661 0.9098
H18 H 0.6699 -0.0007 0.9127
C15 C 0.56707(15) -0.10162(17) 0.94457(19)
H19 H 0.5855 -0.0899 1.0354
H20 H 0.4983 -0.1054 0.9130
C16 C 0.60821(14) -0.21165(17) 0.9177(2)
H21 H 0.5952 -0.2184 0.8269
H22 H 0.6766 -0.2090 0.9558
C17 C 0.57158(13) -0.31531(17) 0.96479(18)
Cu1A Cu 0.423342(15) -0.447034(19) 1.00262(2)
Cu1B Cu 0.423342(15) -0.052966(19) 0.50262(2)
Cu1C Cu 0.576658(15) -0.552966(19) 0.99738(2)
O4B O 0.51052(11) 0.05285(13) 0.31364(14)
O5C O 0.62240(10) -0.09884(12) 0.47898(15)
O6A O 0.50849(11) 0.18952(12) 0.51860(17)
loop_
_geom_bond_atom_site_label_1
_geom_bond_atom_site_label_2
_geom_bond_site_symmetry_1
_geom_bond_site_symmetry_2
Cu1 N1 1_555 1_555
N1 C2 1_555 1_555
N2 O2 1_555 1_555
N3 O1 1_555 1_555
O3 Cu1 1_555 1_555
O4 C13 1_555 1_555
O5 C17 1_555 1_555
O6 C17 1_555 1_555
C1 C2 1_555 1_555
C2 H1 1_555 1_555
C3 N1 1_555 1_555
H2 C3 1_555 1_555
C4 C3 1_555 1_555
H3 C4 1_555 1_555
C5 C1 1_555 1_555
H4 C5 1_555 1_555
C6 N2 1_555 1_555
C7 N2 1_555 1_555
C8 C7 1_555 1_555
H5 C8 1_555 1_555
H6 C8 1_555 1_555
H7 C8 1_555 1_555
C9 C7 1_555 1_555
H8 C9 1_555 1_555
H9 C9 1_555 1_555
H10 C9 1_555 1_555
C10 N3 1_555 1_555
C11 C10 1_555 1_555
H11 C11 1_555 1_555
H12 C11 1_555 1_555
H13 C11 1_555 1_555
C12 C10 1_555 1_555
H14 C12 1_555 1_555
H15 C12 1_555 1_555
H16 C12 1_555 1_555
C13 O3 1_555 1_555
C14 C13 1_555 1_555
H17 C14 1_555 1_555
H18 C14 1_555 1_555
C15 C14 1_555 1_555
H19 C15 1_555 1_555
H20 C15 1_555 1_555
C16 C15 1_555 1_555
H21 C16 1_555 1_555
H22 C16 1_555 1_555
C17 C16 1_555 1_555
Cu1A O6 1_555 1_555
Cu1B O4 1_555 1_555
Cu1C O5 1_555 1_555
O4B Cu1 1_555 1_555
O5C Cu1 1_555 1_555
O6A Cu1 1_555 1_555
N3 C6 1_555 1_555
C1 C6 1_555 1_555
C4 C5 1_555 1_555
C7 C10 1_555 1_555

#END
