
#######################################################################
#
#                 Cambridge Crystallographic Data Centre
#                                CCDC 
#
#######################################################################
#
# If this CIF has been generated from an entry in the Cambridge 
# Structural Database, then it will include bibliographic, chemical, 
# crystal, experimental, refinement or atomic coordinate data resulting 
# from the CCDC's data processing and validation procedures.
#
#######################################################################

data_VOCSUC
_symmetry_cell_setting           tetragonal
_symmetry_space_group_name_H-M   'P 4/n c c'
_symmetry_Int_Tables_number      130
_space_group_name_Hall           '-P 4a 2ac'
loop_
_symmetry_equiv_pos_site_id
_symmetry_equiv_pos_as_xyz
1 x,y,z
2 1/2+y,1/2+x,1/2-z
3 y,1/2-x,z
4 1/2-y,x,z
5 1/2+x,-y,1/2-z
6 1/2-x,1/2-y,z
7 -x,1/2+y,1/2-z
8 -y,-x,1/2-z
9 -x,-y,-z
10 1/2-y,1/2-x,1/2+z
11 -y,1/2+x,-z
12 1/2+y,-x,-z
13 1/2-x,y,1/2+z
14 1/2+x,1/2+y,-z
15 x,1/2-y,1/2+z
16 y,x,1/2+z
_cell_length_a                   16.1919(6)
_cell_length_b                   16.1919(6)
_cell_length_c                   19.7472(8)
_cell_angle_alpha                90
_cell_angle_beta                 90
_cell_angle_gamma                90
_cell_volume                     5177.27
loop_
_atom_site_label
_atom_site_type_symbol
_atom_site_fract_x
_atom_site_fract_y
_atom_site_fract_z
Zn1 Zn 0.55601(7) 0.05601(7) 0.2500
N1 N 0.4484(5) 0.0253(5) 0.1974(4)
O1 O 0.5223(4) 0.1609(4) 0.2891(4)
O2 O 0.6178(4) 0.1281(4) 0.3635(4)
C1 C 0.5633(6) 0.1760(6) 0.3429(5)
C2 C 0.5407(6) 0.2519(6) 0.3798(5)
C3 C 0.4782(7) 0.3019(6) 0.3563(5)
H1 H 0.4499 0.2862 0.3174
C4 C 0.5792(7) 0.2737(6) 0.4360(5)
H2 H 0.6199 0.2391 0.4534
C5 C 0.4558(6) 0.3744(7) 0.3883(5)
H3 H 0.4122 0.4060 0.3719
C6 C 0.5607(6) 0.3480(7) 0.4707(6)
H4 H 0.5890 0.3622 0.5100
C7 C 0.4994(7) 0.3993(6) 0.4451(6)
C8 C 0.4785(7) 0.4795(7) 0.4773(5)
H5 H 0.4290 0.5036 0.4638
C9 C 0.4107(7) 0.0641(6) 0.1467(6)
H6 H 0.4342 0.1117 0.1288
C10 C 0.3373(7) 0.0350(7) 0.1200(6)
H7 H 0.3119 0.0644 0.0853
C11 C 0.3014(7) -0.0351(7) 0.1432(5)
H8 H 0.2521 -0.0541 0.1247
C12 C 0.3399(6) -0.0777(6) 0.1950(5)
C13 C 0.4137(6) -0.0460(6) 0.2215(6)
C14 C 0.3080(7) -0.1520(6) 0.2239(5)
H9 H 0.2591 -0.1740 0.2070
Zn1H Zn 0.44399(7) 0.94399(7) 0.7500
N1A N 0.5253(5) -0.0516(5) 0.3026(4)
O1H O 0.4777(4) 0.8391(4) 0.7109(4)
O1A O 0.6609(4) 0.0223(4) 0.2109(4)
O2H O 0.3822(4) 0.8719(4) 0.6365(4)
O2A O 0.6281(4) 0.1178(4) 0.1365(4)
C1H C 0.4367(6) 0.8240(6) 0.6571(5)
C2H C 0.4593(6) 0.7481(6) 0.6202(5)
C3H C 0.5218(7) 0.6981(6) 0.6437(5)
H1H H 0.5501 0.7138 0.6826
C4H C 0.4208(7) 0.7263(6) 0.5640(5)
H2H H 0.3801 0.7609 0.5466
C5H C 0.5442(6) 0.6256(7) 0.6117(5)
H3H H 0.5878 0.5940 0.6281
C6H C 0.4393(6) 0.6520(7) 0.5293(6)
H4H H 0.4110 0.6378 0.4900
C7H C 0.5006(7) 0.6007(6) 0.5549(6)
C8H C 0.5215(7) 0.5205(7) 0.5227(5)
H5H H 0.5710 0.4964 0.5362
C9A C 0.5641(6) -0.0893(7) 0.3533(6)
H6A H 0.6117 -0.0658 0.3712
C10A C 0.5350(7) -0.1627(7) 0.3800(6)
H7A H 0.5644 -0.1881 0.4147
C11A C 0.4649(7) -0.1986(7) 0.3568(5)
H8A H 0.4459 -0.2479 0.3753
C12A C 0.4223(6) -0.1601(6) 0.3050(5)
C13A C 0.4540(6) -0.0863(6) 0.2785(6)
C14A C 0.3480(6) -0.1920(7) 0.2761(5)
H9A H 0.3260 -0.2409 0.2930
loop_
_geom_bond_atom_site_label_1
_geom_bond_atom_site_label_2
_geom_bond_site_symmetry_1
_geom_bond_site_symmetry_2
Zn1 N1 1_555 1_555
N1 C9 1_555 1_555
O1 Zn1 1_555 1_555
O2 Zn1 1_555 1_555
C1 O1 1_555 1_555
C2 C1 1_555 1_555
C3 C2 1_555 1_555
H1 C3 1_555 1_555
C4 C2 1_555 1_555
H2 C4 1_555 1_555
C5 C3 1_555 1_555
H3 C5 1_555 1_555
C6 C4 1_555 1_555
H4 C6 1_555 1_555
C7 C5 1_555 1_555
C8 C7 1_555 1_555
H5 C8 1_555 1_555
C9 H6 1_555 1_555
C10 C9 1_555 1_555
H7 C10 1_555 1_555
C11 C10 1_555 1_555
H8 C11 1_555 1_555
C12 C11 1_555 1_555
C13 N1 1_555 1_555
C14 C12 1_555 1_555
H9 C14 1_555 1_555
Zn1H O1H 1_555 1_555
N1A Zn1 1_555 1_555
O1H C1H 1_555 1_555
O1A Zn1 1_555 1_555
O2H Zn1H 1_555 1_555
O2A Zn1 1_555 1_555
C1H O2H 1_555 1_555
C2H C1H 1_555 1_555
C3H C2H 1_555 1_555
H1H C3H 1_555 1_555
C4H C2H 1_555 1_555
H2H C4H 1_555 1_555
C5H C3H 1_555 1_555
H3H C5H 1_555 1_555
C6H C4H 1_555 1_555
H4H C6H 1_555 1_555
C7H C5H 1_555 1_555
C8H C8 1_555 1_555
H5H C8H 1_555 1_555
C9A N1A 1_555 1_555
H6A C9A 1_555 1_555
C10A C9A 1_555 1_555
H7A C10A 1_555 1_555
C11A C10A 1_555 1_555
H8A C11A 1_555 1_555
C12A C11A 1_555 1_555
C13A C13 1_555 1_555
C14A C14 1_555 1_555
H9A C14A 1_555 1_555
O2 C1 1_555 1_555
C6 C7 1_555 1_555
C12 C13 1_555 1_555
N1A C13A 1_555 1_555
C6H C7H 1_555 1_555
C7H C8H 1_555 1_555
C12A C13A 1_555 1_555
C12A C14A 1_555 1_555

#END
