
#######################################################################
#
#                 Cambridge Crystallographic Data Centre
#                                CCDC 
#
#######################################################################
#
# If this CIF has been generated from an entry in the Cambridge 
# Structural Database, then it will include bibliographic, chemical, 
# crystal, experimental, refinement or atomic coordinate data resulting 
# from the CCDC's data processing and validation procedures.
#
#######################################################################

data_VOCVEO
_symmetry_cell_setting           monoclinic
_symmetry_space_group_name_H-M   'C 2/c'
_symmetry_Int_Tables_number      15
_space_group_name_Hall           '-C 2yn'
loop_
_symmetry_equiv_pos_site_id
_symmetry_equiv_pos_as_xyz
1 x,y,z
2 1/2+x,1/2+y,z
3 -x,y,1/2-z
4 1/2-x,1/2+y,1/2-z
5 -x,-y,-z
6 1/2-x,1/2-y,-z
7 x,-y,1/2+z
8 1/2+x,1/2-y,1/2+z
_cell_length_a                   13.536(5)
_cell_length_b                   12.462(2)
_cell_length_c                   26.580(9)
_cell_angle_alpha                90
_cell_angle_beta                 104.62(3)
_cell_angle_gamma                90
_cell_volume                     4338.49
loop_
_atom_site_label
_atom_site_type_symbol
_atom_site_fract_x
_atom_site_fract_y
_atom_site_fract_z
Hg1 Hg 0.2530(1) 0.3525(1) 0.1511(1)
Hg2 Hg 0.1289(1) 0.6191(1) 0.1337(1)
N1 N 0.1138(7) 0.2165(7) 0.0056(3)
C1 C 0.0962(10) 0.1305(10) -0.0302(5)
C2 C 0.1756(7) 0.2104(8) 0.0555(4)
O1 O 0.2195(7) 0.1327(6) 0.0765(3)
N2 N 0.1770(6) 0.3144(6) 0.0782(3)
C3 C 0.1183(8) 0.3822(7) 0.0455(4)
O2 O 0.1002(5) 0.4750(5) 0.0539(3)
C4 C 0.0750(8) 0.3244(9) -0.0069(4)
N3 N 0.3869(6) 0.5153(6) 0.2877(3)
C5 C 0.4157(9) 0.6171(7) 0.3145(4)
C6 C 0.3322(6) 0.5101(7) 0.2370(3)
O3 O 0.2945(6) 0.5819(5) 0.2097(2)
N4 N 0.3223(6) 0.3990(6) 0.2240(3)
C7 C 0.3671(7) 0.3360(8) 0.2665(3)
O4 O 0.3631(6) 0.2416(6) 0.2684(3)
C8 C 0.4157(7) 0.4124(8) 0.3102(4)
N5 N -0.0889(6) 0.4502(6) 0.1865(3)
C9 C -0.1297(8) 0.3489(7) 0.2023(4)
C10 C -0.0042(6) 0.4581(7) 0.1706(3)
O5 O 0.0565(5) 0.3856(5) 0.1673(3)
N6 N 0.0085(5) 0.5648(5) 0.1581(3)
C11 C -0.0700(8) 0.6239(7) 0.1648(4)
O6 O -0.0834(5) 0.7203(5) 0.1541(3)
C12 C -0.1404(7) 0.5516(7) 0.1848(4)
N7 N 0.3120(6) 0.7989(6) 0.0615(3)
C13 C 0.3370(9) 0.9023(9) 0.0427(4)
C14 C 0.2298(7) 0.7805(8) 0.0805(3)
O7 O 0.1596(5) 0.8422(6) 0.0806(3)
N8 N 0.2361(5) 0.6786(6) 0.1002(3)
C15 C 0.3217(7) 0.6267(8) 0.0950(4)
O8 O 0.3477(5) 0.5349(6) 0.1064(3)
C16 C 0.3782(8) 0.7061(8) 0.0691(4)
H1 H 0.0306 0.0977 -0.0337
H2 H 0.1487 0.0820 -0.0125
H3 H 0.1054 0.1466 -0.0640
H4 H 0.1005 0.3554 -0.0342
H5 H 0.0017 0.3256 -0.0167
H6 H 0.4880 0.6048 0.3223
H7 H 0.3971 0.6393 0.3454
H8 H 0.3975 0.6722 0.2885
H9 H 0.4886 0.4044 0.3200
H10 H 0.3894 0.4010 0.3401
H11 H -0.1379 0.3608 0.2367
H12 H -0.0767 0.2969 0.2036
H13 H -0.1927 0.3226 0.1804
H14 H -0.2073 0.5495 0.1614
H15 H -0.1456 0.5732 0.2187
H16 H 0.3287 0.9053 0.0058
H17 H 0.4067 0.9177 0.0602
H18 H 0.2931 0.9542 0.0526
H19 H 0.3859 0.6789 0.0365
H20 H 0.4441 0.7228 0.0913
O6A O 0.4166(5) 0.2203(5) 0.1541(3)
Hg1A Hg -0.2470(1) 0.8525(1) 0.1511(1)
loop_
_geom_bond_atom_site_label_1
_geom_bond_atom_site_label_2
_geom_bond_site_symmetry_1
_geom_bond_site_symmetry_2
Hg1 N2 1_555 1_555
Hg2 O2 1_555 1_555
N1 C1 1_555 1_555
C1 H1 1_555 1_555
C2 N1 1_555 1_555
O1 C2 1_555 1_555
N2 C2 1_555 1_555
C3 N2 1_555 1_555
O2 C3 1_555 1_555
C4 N1 1_555 1_555
N3 C5 1_555 1_555
C5 H6 1_555 1_555
C6 N3 1_555 1_555
O3 Hg2 1_555 1_555
N4 Hg1 1_555 1_555
C7 N4 1_555 1_555
O4 C7 1_555 1_555
C8 N3 1_555 1_555
N5 C9 1_555 1_555
C9 H11 1_555 1_555
C10 N5 1_555 1_555
O5 C10 1_555 1_555
N6 Hg2 1_555 1_555
C11 N6 1_555 1_555
O6 C11 1_555 1_555
C12 N5 1_555 1_555
N7 C13 1_555 1_555
C13 H16 1_555 1_555
C14 N7 1_555 1_555
O7 C14 1_555 1_555
N8 Hg2 1_555 1_555
C15 N8 1_555 1_555
O8 C15 1_555 1_555
C16 N7 1_555 1_555
H2 C1 1_555 1_555
H3 C1 1_555 1_555
H4 C4 1_555 1_555
H5 C4 1_555 1_555
H7 C5 1_555 1_555
H8 C5 1_555 1_555
H9 C8 1_555 1_555
H10 C8 1_555 1_555
H12 C9 1_555 1_555
H13 C9 1_555 1_555
H14 C12 1_555 1_555
H15 C12 1_555 1_555
H17 C13 1_555 1_555
H18 C13 1_555 1_555
H19 C16 1_555 1_555
H20 C16 1_555 1_555
O6A Hg1 1_555 1_555
Hg1A O6 1_555 1_555
C3 C4 1_555 1_555
C6 O3 1_555 1_555
C6 N4 1_555 1_555
C7 C8 1_555 1_555
C10 N6 1_555 1_555
C11 C12 1_555 1_555
C14 N8 1_555 1_555
C15 C16 1_555 1_555

#END
