
#######################################################################
#
#                 Cambridge Crystallographic Data Centre
#                                CCDC 
#
#######################################################################
#
# If this CIF has been generated from an entry in the Cambridge 
# Structural Database, then it will include bibliographic, chemical, 
# crystal, experimental, refinement or atomic coordinate data resulting 
# from the CCDC's data processing and validation procedures.
#
#######################################################################

data_VOCZUJ
_symmetry_cell_setting           monoclinic
_symmetry_space_group_name_H-M   'P 21/c'
_symmetry_Int_Tables_number      14
_space_group_name_Hall           '-P 2ybc'
loop_
_symmetry_equiv_pos_site_id
_symmetry_equiv_pos_as_xyz
1 x,y,z
2 -x,1/2+y,1/2-z
3 -x,-y,-z
4 x,1/2-y,1/2+z
_cell_length_a                   22.5407(19)
_cell_length_b                   17.8834(15)
_cell_length_c                   9.1269(8)
_cell_angle_alpha                90
_cell_angle_beta                 95.905(2)
_cell_angle_gamma                90
_cell_volume                     3659.57
loop_
_atom_site_label
_atom_site_type_symbol
_atom_site_fract_x
_atom_site_fract_y
_atom_site_fract_z
Ni1 Ni 1.167710(18) 0.17625(2) 0.22272(5)
Ni2 Ni 0.669143(18) 0.17521(2) 0.25832(5)
S1 S 1.12343(6) -0.08726(7) 0.05521(13)
S2 S 0.99092(5) -0.08782(7) 0.08600(12)
S3 S 0.89851(5) -0.05959(6) 0.31011(12)
S4 S 0.65154(6) -0.08918(7) 0.43822(14)
S5 S 0.51812(7) -0.08972(8) 0.44366(13)
S6 S 0.39858(6) -0.05592(7) 0.25219(13)
O1 O 1.16539(11) 0.06252(14) 0.1868(3)
O2 O 1.21042(18) 0.01165(18) 0.3938(4)
O3 O 0.84520(13) -0.20142(15) 0.0051(3)
O4 O 0.83406(11) -0.20834(14) 0.2458(3)
O5 O 0.67198(12) 0.06113(14) 0.2972(3)
O6 O 0.71287(18) 0.01512(19) 0.1027(4)
O7 O 0.32799(11) -0.20071(15) 0.5190(3)
O8 O 0.33849(11) -0.20734(15) 0.2788(3)
O9 O 1.18974(14) 0.15414(16) 0.4447(3)
O10 O 0.66586(15) 0.14847(16) 0.0397(3)
N1 N 1.07011(18) -0.0677(2) 0.3050(4)
N2 N 1.01622(18) -0.0625(2) 0.3628(4)
N3 N 0.56735(19) -0.0699(2) 0.2071(4)
N4 N 0.50660(18) -0.0643(2) 0.1676(4)
N5 N 1.07562(13) 0.17788(17) 0.2318(3)
N6 N 0.76214(13) 0.18237(17) 0.2753(3)
N7 N 1.57571(13) 0.17666(17) 0.2434(4)
N8 N 1.25947(13) 0.18012(17) 0.2083(4)
C1 C 1.18660(17) 0.0088(2) 0.2648(5)
C2 C 1.1856(2) -0.0684(2) 0.1926(6)
H1 H 1.1856 -0.1059 0.2694
H2 H 1.2223 -0.0745 0.1467
C3 C 1.0648(2) -0.0804(2) 0.1638(5)
C4 C 0.9706(2) -0.0711(2) 0.2622(4)
C5 C 0.85327(19) -0.0890(2) 0.1445(5)
H3 H 0.8144 -0.0656 0.1426
H4 H 0.8717 -0.0711 0.0597
C6 C 0.84466(14) -0.17315(19) 0.1300(4)
C7 C 0.69250(18) 0.0094(2) 0.2242(4)
C8 C 0.6960(2) -0.0689(2) 0.2908(5)
H5 H 0.7373 -0.0785 0.3264
H6 H 0.6851 -0.1043 0.2121
C9 C 0.5802(2) -0.0820(2) 0.3458(5)
C10 C 0.4756(2) -0.0726(2) 0.2784(5)
C11 C 0.3685(2) -0.0948(2) 0.4113(5)
H7 H 0.3995 -0.0927 0.4932
H8 H 0.3365 -0.0623 0.4357
C12 C 0.34455(15) -0.1742(2) 0.4016(4)
C13 C 1.04836(16) 0.1246(2) 0.3036(4)
H9 H 1.0712 0.0854 0.3459
C14 C 0.98783(16) 0.1252(2) 0.3180(4)
H10 H 0.9710 0.0869 0.3688
C15 C 0.95212(15) 0.1831(2) 0.2563(4)
C16 C 0.98061(16) 0.2378(2) 0.1793(5)
H11 H 0.9587 0.2772 0.1346
C17 C 1.04166(16) 0.2333(2) 0.1694(5)
H12 H 1.0597 0.2702 0.1175
C18 C 0.88690(15) 0.18510(19) 0.2698(4)
C19 C 0.86004(16) 0.1388(2) 0.3660(4)
H13 H 0.8833 0.1079 0.4309
C20 C 0.79818(15) 0.1387(2) 0.3649(4)
H14 H 0.7810 0.1068 0.4292
C21 C 0.78847(17) 0.2274(2) 0.1842(5)
H15 H 0.7643 0.2581 0.1211
C22 C 0.84914(17) 0.2310(2) 0.1784(5)
H16 H 0.8650 0.2639 0.1138
C23 C 1.54291(16) 0.1242(2) 0.1689(4)
H17 H 1.5623 0.0857 0.1246
C24 C 1.48119(16) 0.1249(2) 0.1549(4)
H18 H 1.4601 0.0869 0.1033
C25 C 1.45065(15) 0.1821(2) 0.2175(4)
C26 C 1.48532(16) 0.2373(2) 0.2941(5)
H19 H 1.4670 0.2770 0.3377
C27 C 1.54655(16) 0.2326(2) 0.3046(5)
H20 H 1.5689 0.2696 0.3562
C28 C 1.38416(15) 0.18317(19) 0.2095(4)
C29 C 1.34928(16) 0.1339(2) 0.1202(4)
H21 H 1.3670 0.1011 0.0586
C30 C 1.28778(16) 0.1339(2) 0.1235(4)
H22 H 1.2652 0.1001 0.0638
C31 C 1.29330(17) 0.2275(2) 0.2951(5)
H23 H 1.2746 0.2593 0.3566
C32 C 1.35426(17) 0.2313(2) 0.2974(5)
H24 H 1.3757 0.2659 0.3576
H25 H 1.1727(16) 0.1772(17) 0.514(3)
H26 H 0.670(2) 0.1788(18) -0.033(3)
H27 H 1.201(2) 0.1087(11) 0.467(4)
H28 H 0.6835(18) 0.1051(12) 0.033(5)
Ni1B Ni 0.832290(18) -0.17625(2) -0.22272(5)
Ni1A Ni 0.832290(18) -0.32375(2) 0.27728(5)
Ni2B Ni 0.330857(18) -0.17521(2) 0.74168(5)
Ni2A Ni 0.330857(18) -0.32479(2) 0.24168(5)
Ni2_2 Ni 1.669143(18) 0.17521(2) 0.25832(5)
O3B O 1.15480(13) 0.20142(15) -0.0051(3)
O4A O 1.16594(11) 0.29166(14) 0.2542(3)
O7B O 0.67201(11) 0.20071(15) 0.4810(3)
O8A O 0.66151(11) 0.29266(15) 0.2212(3)
N7_2 N 0.57571(13) 0.17666(17) 0.2434(4)
loop_
_geom_bond_atom_site_label_1
_geom_bond_atom_site_label_2
_geom_bond_site_symmetry_1
_geom_bond_site_symmetry_2
Ni1 O1 1_555 1_555
Ni2 O5 1_555 1_555
S1 C2 1_555 1_555
S2 C3 1_555 1_555
S3 C4 1_555 1_555
S4 C8 1_555 1_555
S5 C9 1_555 1_555
S6 C10 1_555 1_555
O1 C1 1_555 1_555
O2 C1 1_555 1_555
O3 C6 1_555 1_555
O4 C6 1_555 1_555
O5 C7 1_555 1_555
O6 C7 1_555 1_555
O7 C12 1_555 1_555
O8 C12 1_555 1_555
O9 Ni1 1_555 1_555
O10 Ni2 1_555 1_555
N1 N2 1_555 1_555
N2 C4 1_555 1_555
N3 N4 1_555 1_555
N4 C10 1_555 1_555
N5 Ni1 1_555 1_555
N6 Ni2 1_555 1_555
N7 C23 1_555 1_555
N8 Ni1 1_555 1_555
C1 C2 1_555 1_555
C2 H1 1_555 1_555
H2 C2 1_555 1_555
C3 S1 1_555 1_555
C4 S2 1_555 1_555
C5 S3 1_555 1_555
H3 C5 1_555 1_555
H4 C5 1_555 1_555
C6 C5 1_555 1_555
C7 C8 1_555 1_555
C8 H5 1_555 1_555
H6 C8 1_555 1_555
C9 S4 1_555 1_555
C10 S5 1_555 1_555
C11 S6 1_555 1_555
H7 C11 1_555 1_555
H8 C11 1_555 1_555
C12 C11 1_555 1_555
C13 N5 1_555 1_555
H9 C13 1_555 1_555
C14 C13 1_555 1_555
H10 C14 1_555 1_555
C15 C14 1_555 1_555
C16 C15 1_555 1_555
H11 C16 1_555 1_555
C17 N5 1_555 1_555
H12 C17 1_555 1_555
C18 C15 1_555 1_555
C19 C18 1_555 1_555
H13 C19 1_555 1_555
C20 N6 1_555 1_555
H14 C20 1_555 1_555
C21 N6 1_555 1_555
H15 C21 1_555 1_555
C22 C18 1_555 1_555
H16 C22 1_555 1_555
C23 H17 1_555 1_555
C24 C23 1_555 1_555
H18 C24 1_555 1_555
C25 C24 1_555 1_555
C26 C25 1_555 1_555
H19 C26 1_555 1_555
C27 N7 1_555 1_555
H20 C27 1_555 1_555
C28 C25 1_555 1_555
C29 C28 1_555 1_555
H21 C29 1_555 1_555
C30 N8 1_555 1_555
H22 C30 1_555 1_555
C31 N8 1_555 1_555
H23 C31 1_555 1_555
C32 C28 1_555 1_555
H24 C32 1_555 1_555
H25 O9 1_555 1_555
H26 O10 1_555 1_555
H27 O9 1_555 1_555
H28 O10 1_555 1_555
Ni1B O3 1_555 1_555
Ni1A O4 1_555 1_555
Ni2B O7 1_555 1_555
Ni2A O8 1_555 1_555
Ni2_2 N7 1_555 1_555
O3B Ni1 1_555 1_555
O4A Ni1 1_555 1_555
O7B Ni2 1_555 1_555
O8A Ni2 1_555 1_555
N7_2 Ni2 1_555 1_555
N1 C3 1_555 1_555
N3 C9 1_555 1_555
C16 C17 1_555 1_555
C19 C20 1_555 1_555
C21 C22 1_555 1_555
C26 C27 1_555 1_555
C29 C30 1_555 1_555
C31 C32 1_555 1_555

#END
