
#######################################################################
#
#                 Cambridge Crystallographic Data Centre
#                                CCDC 
#
#######################################################################
#
# If this CIF has been generated from an entry in the Cambridge 
# Structural Database, then it will include bibliographic, chemical, 
# crystal, experimental, refinement or atomic coordinate data resulting 
# from the CCDC's data processing and validation procedures.
#
#######################################################################

data_VODBIA
_symmetry_cell_setting           monoclinic
_symmetry_space_group_name_H-M   'P 21/c'
_symmetry_Int_Tables_number      14
_space_group_name_Hall           '-P 2ybc'
loop_
_symmetry_equiv_pos_site_id
_symmetry_equiv_pos_as_xyz
1 x,y,z
2 -x,1/2+y,1/2-z
3 -x,-y,-z
4 x,1/2-y,1/2+z
_cell_length_a                   10.434(2)
_cell_length_b                   12.510(3)
_cell_length_c                   10.249(2)
_cell_angle_alpha                90
_cell_angle_beta                 93.95(3)
_cell_angle_gamma                90
_cell_volume                     1334.62
loop_
_atom_site_label
_atom_site_type_symbol
_atom_site_fract_x
_atom_site_fract_y
_atom_site_fract_z
O1 O -0.2711(2) -0.2664(2) -0.3610(2)
O2 O -0.4140(3) -0.3288(2) -0.5896(3)
O3 O -0.5194(3) -0.1305(2) -0.7025(2)
C1 C 0.1638(3) -0.4271(4) -0.3976(3)
H1 H 0.2424 -0.4513 -0.4234
C2 C 0.1253(3) -0.4525(3) -0.2739(3)
O4 O 0.32406(18) -0.54183(17) -0.21121(19)
C3 C 0.2093(3) -0.5189(3) -0.1822(3)
O5 O 0.1682(2) -0.5501(2) -0.0768(2)
Nd1 Nd -0.374210(13) -0.139950(11) -0.504590(13)
O6 O -0.59292(19) -0.04972(17) -0.4382(2)
O7 O -0.5578(2) -0.21533(19) -0.3840(2)
O8 O -0.2274(2) -0.3393(2) -0.1678(2)
C4 C 0.0079(3) -0.4158(3) -0.2358(3)
H2 H -0.0182 -0.4328 -0.1533
C5 C -0.1994(3) -0.3167(2) -0.2806(3)
C6 C -0.0709(3) -0.3537(3) -0.3211(3)
C7 C -0.6270(3) -0.1337(3) -0.3829(3)
C8 C 0.0853(4) -0.3662(4) -0.4815(3)
H3 H 0.1111 -0.3495 -0.5641
C9 C -0.7499(5) -0.1355(4) -0.3173(6)
H4 H -0.7706 -0.2079 -0.2955
H5 H -0.8174 -0.1065 -0.3751
H6 H -0.7411 -0.0934 -0.2389
C10 C -0.0318(3) -0.3295(3) -0.4437(3)
H7 H -0.0843 -0.2885 -0.5011
H8 H -0.579(3) -0.086(2) -0.711(4)
H9 H -0.550(3) -0.177(2) -0.754(3)
H10 H -0.421(7) -0.385(3) -0.543(5)
H11 H -0.369(4) -0.359(3) -0.645(3)
O4A O -0.32406(18) -0.04183(17) -0.28879(19)
O5A O -0.1682(2) -0.0501(2) -0.4232(2)
Nd1B Nd -0.625790(13) 0.139950(11) -0.495410(13)
Nd1C Nd -0.374210(13) -0.360050(11) -0.004590(13)
Nd1A Nd 0.374210(13) -0.639950(11) 0.004590(13)
O6B O -0.40708(19) 0.04972(17) -0.5618(2)
O8C O -0.2274(2) -0.1607(2) -0.6678(2)
O9 O -0.4021(6) -0.0054(5) -0.9074(6)
loop_
_geom_bond_atom_site_label_1
_geom_bond_atom_site_label_2
_geom_bond_site_symmetry_1
_geom_bond_site_symmetry_2
O1 Nd1 1_555 1_555
O2 Nd1 1_555 1_555
O3 Nd1 1_555 1_555
C1 H1 1_555 1_555
C2 C1 1_555 1_555
O4 C3 1_555 1_555
C3 C2 1_555 1_555
O5 C3 1_555 1_555
Nd1 O6 1_555 1_555
O6 C7 1_555 1_555
O7 Nd1 1_555 1_555
O8 C5 1_555 1_555
C4 C2 1_555 1_555
H2 C4 1_555 1_555
C5 O1 1_555 1_555
C6 C4 1_555 1_555
C7 O7 1_555 1_555
C8 C1 1_555 1_555
H3 C8 1_555 1_555
C9 C7 1_555 1_555
H4 C9 1_555 1_555
H5 C9 1_555 1_555
H6 C9 1_555 1_555
C10 C6 1_555 1_555
H7 C10 1_555 1_555
H8 O3 1_555 1_555
H9 O3 1_555 1_555
H10 O2 1_555 1_555
H11 O2 1_555 1_555
O4A Nd1 1_555 1_555
O5A Nd1 1_555 1_555
Nd1B O6 1_555 1_555
Nd1C O8 1_555 1_555
Nd1A O4 1_555 1_555
O6B Nd1 1_555 1_555
O8C Nd1 1_555 1_555
O5 Nd1A 1_555 1_555
C5 C6 1_555 1_555
C8 C10 1_555 1_555
Nd1B O6B 1_555 1_555

#END
