
#######################################################################
#
#                 Cambridge Crystallographic Data Centre
#                                CCDC 
#
#######################################################################
#
# If this CIF has been generated from an entry in the Cambridge 
# Structural Database, then it will include bibliographic, chemical, 
# crystal, experimental, refinement or atomic coordinate data resulting 
# from the CCDC's data processing and validation procedures.
#
#######################################################################

data_VODDAU
_symmetry_cell_setting           monoclinic
_symmetry_space_group_name_H-M   'P 21/n'
_symmetry_Int_Tables_number      14
_space_group_name_Hall           '-P 2yn'
loop_
_symmetry_equiv_pos_site_id
_symmetry_equiv_pos_as_xyz
1 x,y,z
2 1/2-x,1/2+y,1/2-z
3 -x,-y,-z
4 1/2+x,1/2-y,1/2+z
_cell_length_a                   11.522(2)
_cell_length_b                   11.955(2)
_cell_length_c                   18.2063(5)
_cell_angle_alpha                90
_cell_angle_beta                 100.7234(7)
_cell_angle_gamma                90
_cell_volume                     2464.04
loop_
_atom_site_label
_atom_site_type_symbol
_atom_site_fract_x
_atom_site_fract_y
_atom_site_fract_z
Ag1 Ag 0.77210(3) 0.12388(3) 0.22242(2)
O1 O 1.2220(3) -0.0837(3) 0.0450(2)
O2 O 0.2266(3) 0.1147(3) 0.3605(2)
N1 N 0.9122(3) 0.0094(3) 0.1904(2)
N2 N 1.6112(3) -0.2502(4) 0.1871(2)
N3 N 1.3201(3) -0.1223(3) 0.1626(2)
N4 N 0.6125(3) 0.0891(3) 0.2753(2)
N5 N 0.2228(3) 0.2462(3) 0.6247(2)
N6 N 0.3542(3) 0.1457(3) 0.4690(2)
C1 C 0.9099(4) -0.0243(4) 0.1207(3)
C2 C 1.0076(4) -0.0608(4) 0.0944(2)
C3 C 1.1155(3) -0.0640(3) 0.1435(2)
C4 C 1.1188(3) -0.0329(4) 0.2166(2)
C5 C 1.0163(4) 0.0023(4) 0.2377(2)
C6 C 1.6492(5) -0.2135(5) 0.1268(3)
C7 C 1.5854(6) -0.1455(6) 0.0758(4)
C8 C 1.4739(5) -0.1131(5) 0.0843(4)
C9 C 1.4314(4) -0.1509(3) 0.1466(3)
C10 C 1.5036(4) -0.2190(4) 0.1962(2)
C11 C 1.2252(4) -0.0909(3) 0.1118(2)
C12 C 0.5039(4) 0.1160(4) 0.2419(2)
C13 C 0.4118(4) 0.1271(3) 0.2797(2)
C14 C 0.4303(3) 0.1113(3) 0.3555(2)
C15 C 0.5428(3) 0.0794(4) 0.3909(2)
C16 C 0.6294(3) 0.0686(4) 0.3491(2)
C17 C 0.1194(5) 0.1912(5) 0.6118(3)
C18 C 0.0885(5) 0.1208(5) 0.5538(4)
C19 C 0.1631(5) 0.1034(4) 0.5033(3)
C20 C 0.2690(3) 0.1594(3) 0.5149(2)
C21 C 0.2950(4) 0.2298(4) 0.5757(2)
C22 C 0.3281(3) 0.1243(3) 0.3948(2)
H1 H 0.8361 -0.0226 0.0870
H2 H 1.0015 -0.0830 0.0437
H3 H 1.1906 -0.0355 0.2519
H4 H 1.0192 0.0227 0.2885
H5 H 1.7254 -0.2356 0.1193
H6 H 1.6149 -0.1226 0.0329
H7 H 1.4274 -0.0647 0.0494
H8 H 1.4758 -0.2448 0.2391
H9 H 1.3116 -0.1262 0.2133
H10 H 0.4898 0.1276 0.1897
H11 H 0.3357 0.1451 0.2528
H12 H 0.5597 0.0666 0.4433
H13 H 0.7055 0.0455 0.3735
H14 H 0.0660 0.2020 0.6452
H15 H 0.0148 0.0826 0.5474
H16 H 0.1407 0.0553 0.4615
H17 H 0.3683 0.2690 0.5835
H18 H 0.4352 0.1529 0.4916
Ag1A Ag 1.72790(3) -0.37612(3) 0.27758(2)
Ag1C Ag 0.27210(3) 0.37612(3) 0.72242(2)
N2A N 0.8888(3) 0.2498(4) 0.3129(2)
N5C N 0.7228(3) 0.2538(3) 0.1247(2)
P1 P 1.19852(9) 0.27431(9) 0.09209(6)
F1 F 1.2094(6) 0.2594(6) 0.0085(2)
F2 F 1.3141(5) 0.3411(5) 0.1105(5)
F3 F 1.1878(4) 0.2893(4) 0.1756(2)
F4 F 1.0813(4) 0.2108(5) 0.0726(4)
F5 F 1.1191(5) 0.3811(3) 0.0732(3)
F6 F 1.2732(4) 0.1650(3) 0.1093(2)
loop_
_geom_bond_atom_site_label_1
_geom_bond_atom_site_label_2
_geom_bond_site_symmetry_1
_geom_bond_site_symmetry_2
Ag1 N1 1_555 1_555
P1 F1 1_555 1_555
F2 P1 1_555 1_555
F3 P1 1_555 1_555
F4 P1 1_555 1_555
F5 P1 1_555 1_555
F6 P1 1_555 1_555
O1 C11 1_555 1_555
O2 C22 1_555 1_555
N1 C1 1_555 1_555
N2 C6 1_555 1_555
N3 C9 1_555 1_555
N4 Ag1 1_555 1_555
N5 C17 1_555 1_555
N6 C20 1_555 1_555
C1 C2 1_555 1_555
C2 C3 1_555 1_555
C3 C4 1_555 1_555
C4 C5 1_555 1_555
C5 N1 1_555 1_555
C6 C7 1_555 1_555
C7 C8 1_555 1_555
C8 C9 1_555 1_555
C9 C10 1_555 1_555
C10 N2 1_555 1_555
C11 N3 1_555 1_555
C12 N4 1_555 1_555
C13 C12 1_555 1_555
C14 C13 1_555 1_555
C15 C14 1_555 1_555
C16 N4 1_555 1_555
C17 C18 1_555 1_555
C18 C19 1_555 1_555
C19 C20 1_555 1_555
C20 C21 1_555 1_555
C21 N5 1_555 1_555
C22 N6 1_555 1_555
H1 C1 1_555 1_555
H2 C2 1_555 1_555
H3 C4 1_555 1_555
H4 C5 1_555 1_555
H5 C6 1_555 1_555
H6 C7 1_555 1_555
H7 C8 1_555 1_555
H8 C10 1_555 1_555
H9 N3 1_555 1_555
H10 C12 1_555 1_555
H11 C13 1_555 1_555
H12 C15 1_555 1_555
H13 C16 1_555 1_555
H14 C17 1_555 1_555
H15 C18 1_555 1_555
H16 C19 1_555 1_555
H17 C21 1_555 1_555
H18 N6 1_555 1_555
Ag1A N2 1_555 1_555
Ag1C N5 1_555 1_555
N2A Ag1 1_555 1_555
N5C Ag1 1_555 1_555
C3 C11 1_555 1_555
C14 C22 1_555 1_555
C15 C16 1_555 1_555

#END
