
#######################################################################
#
#                 Cambridge Crystallographic Data Centre
#                                CCDC 
#
#######################################################################
#
# If this CIF has been generated from an entry in the Cambridge 
# Structural Database, then it will include bibliographic, chemical, 
# crystal, experimental, refinement or atomic coordinate data resulting 
# from the CCDC's data processing and validation procedures.
#
#######################################################################

data_VODFEA
_symmetry_cell_setting           orthorhombic
_symmetry_space_group_name_H-M   'P b c n'
_symmetry_Int_Tables_number      60
_space_group_name_Hall           '-P 2n 2ab'
loop_
_symmetry_equiv_pos_site_id
_symmetry_equiv_pos_as_xyz
1 x,y,z
2 1/2-x,1/2-y,1/2+z
3 -x,y,1/2-z
4 1/2+x,1/2-y,-z
5 -x,-y,-z
6 1/2+x,1/2+y,1/2-z
7 x,-y,1/2+z
8 1/2-x,1/2+y,z
_cell_length_a                   7.1037(5)
_cell_length_b                   12.5806(7)
_cell_length_c                   15.9824(11)
_cell_angle_alpha                90
_cell_angle_beta                 90
_cell_angle_gamma                90
_cell_volume                     1428.33
loop_
_atom_site_label
_atom_site_type_symbol
_atom_site_fract_x
_atom_site_fract_y
_atom_site_fract_z
Fe1 Fe 0.18588(6) 0.63922(3) 0.39965(2)
Fe2 Fe 0.5000 0.5000 0.5000
O1 O 0.1019(3) 0.64362(15) 0.52377(11)
O2 O 0.3380(3) 0.56060(14) 0.59048(11)
O3 O 0.4970(3) 0.64734(14) 0.42412(11)
O4 O 0.2407(3) 0.63259(16) 0.27277(12)
O5 O 0.0938(3) 0.63783(17) 0.14897(12)
O6 O -0.2658(2) 0.52347(14) 0.57412(10)
O7 O -0.3272(3) 0.69602(13) 0.58151(11)
C1 C 0.0960(4) 0.6354(2) 0.22687(16)
C2 C 0.1836(4) 0.60768(18) 0.58814(16)
C3 C 0.0860(4) 0.6195(2) 0.67108(17)
C4 C -0.1093(4) 0.6230(2) 0.67856(16)
C5 C -0.2382(4) 0.6158(2) 0.60530(17)
C6 C 0.1933(4) 0.6214(2) 0.74362(17)
H1 H 0.338(5) 0.618(2) 0.7331(18)
Fe1B Fe -0.18588(6) 0.63922(3) 1.10035(2)
Fe1B_2 Fe -0.18588(6) 0.63922(3) 0.10035(2)
Fe1D Fe -0.18588(6) 0.36078(3) 0.60035(2)
Fe1C Fe -0.31412(6) 0.86078(3) 0.60035(2)
Fe1F Fe 0.18588(6) 0.36078(3) 0.89965(2)
Fe1A Fe 0.31412(6) 0.86078(3) 0.89965(2)
Fe1D_2 Fe 0.81412(6) 0.36078(3) 0.60035(2)
Fe2_2 Fe -0.5000 0.5000 0.5000
Fe2F Fe -0.5000 0.5000 1.0000
Fe2F_2 Fe 0.5000 0.5000 1.0000
O1B O -0.1019(3) 0.64362(15) 0.97623(11)
O2B O -0.3380(3) 0.56060(14) 0.90952(11)
O2D O 0.6620(3) 0.43940(14) 0.40952(11)
O3D O 0.5030(3) 0.35266(14) 0.57588(11)
O3B O -0.4970(3) 0.64734(14) 1.07588(11)
O3F O 0.4970(3) 0.35266(14) 0.92412(11)
O4B O -0.2407(3) 0.63259(16) 0.22723(12)
O4B_2 O -0.2407(3) 0.63259(16) 1.22723(12)
O5B O -0.0938(3) 0.63783(17) 0.35103(12)
O5_2 O 0.0938(3) 0.63783(17) 1.14897(12)
O6B O 0.2658(2) 0.52347(14) 0.92588(10)
O6D O 0.2658(2) 0.47653(14) 0.42588(10)
O6_2 O 0.7342(2) 0.52347(14) 0.57412(10)
O6F O -0.2658(2) 0.47653(14) 1.07412(10)
O7B O 0.3272(3) 0.69602(13) 0.91849(11)
O7C O 0.1728(3) 0.80398(13) 0.41849(11)
O7A O -0.1728(3) 0.80398(13) 1.08151(11)
C1B C -0.0960(4) 0.6354(2) 0.27313(16)
C2B C -0.1836(4) 0.60768(18) 0.91186(16)
C3B C -0.0860(4) 0.6195(2) 0.82892(17)
C4B C 0.1093(4) 0.6230(2) 0.82144(16)
C5B C 0.2382(4) 0.6158(2) 0.89470(17)
C6B C -0.1933(4) 0.6214(2) 0.75638(17)
H1B H -0.338(5) 0.618(2) 0.7669(18)
loop_
_geom_bond_atom_site_label_1
_geom_bond_atom_site_label_2
_geom_bond_site_symmetry_1
_geom_bond_site_symmetry_2
Fe1 O1 1_555 1_555
Fe2 O2 1_555 1_555
O1 C2 1_555 1_555
O2 C2 1_555 1_555
O3 Fe1 1_555 1_555
O4 Fe1 1_555 1_555
O5 C1 1_555 1_555
O6 C5 1_555 1_555
O7 C5 1_555 1_555
C1 O4 1_555 1_555
C2 C3 1_555 1_555
C3 C4 1_555 1_555
C4 C5 1_555 1_555
C6 C3 1_555 1_555
H1 C6 1_555 1_555
Fe1B O1B 1_555 1_555
Fe1B_2 O5 1_555 1_555
Fe1D O6 1_555 1_555
Fe1C O7 1_555 1_555
Fe1F O3F 1_555 1_555
Fe1A O7B 1_555 1_555
Fe1D_2 O3D 1_555 1_555
Fe2_2 O6 1_555 1_555
Fe2F O2B 1_555 1_555
Fe2F_2 O3F 1_555 1_555
O1B C2B 1_555 1_555
O2B C2B 1_555 1_555
O2D Fe2 1_555 1_555
O3D Fe2 1_555 1_555
O3B Fe1B 1_555 1_555
O4B Fe1B_2 1_555 1_555
O4B_2 Fe1B 1_555 1_555
O5B Fe1 1_555 1_555
O5_2 Fe1B 1_555 1_555
O6B Fe1F 1_555 1_555
O6D Fe1 1_555 1_555
O6_2 Fe2 1_555 1_555
O6F Fe1B 1_555 1_555
O7B C5B 1_555 1_555
O7C Fe1 1_555 1_555
O7A Fe1B 1_555 1_555
C1B C1 1_555 1_555
C2B C3B 1_555 1_555
C3B C4B 1_555 1_555
C4B C6 1_555 1_555
C5B O6B 1_555 1_555
C6B C4 1_555 1_555
H1B C6B 1_555 1_555
Fe2 O3 1_555 1_555
Fe2 O6D 1_555 1_555
Fe1D_2 O6_2 1_555 1_555
Fe2F O3B 1_555 1_555
Fe2F O6F 1_555 1_555
Fe2F_2 O6B 1_555 1_555
O4B C1B 1_555 1_555
O5B C1B 1_555 1_555
C3B C6B 1_555 1_555
C4B C5B 1_555 1_555

#END
