
#######################################################################
#
#                 Cambridge Crystallographic Data Centre
#                                CCDC 
#
#######################################################################
#
# If this CIF has been generated from an entry in the Cambridge 
# Structural Database, then it will include bibliographic, chemical, 
# crystal, experimental, refinement or atomic coordinate data resulting 
# from the CCDC's data processing and validation procedures.
#
#######################################################################

data_VODLEG
_symmetry_cell_setting           triclinic
_symmetry_space_group_name_H-M   'P -1'
_symmetry_Int_Tables_number      2
_space_group_name_Hall           '-P 1'
loop_
_symmetry_equiv_pos_site_id
_symmetry_equiv_pos_as_xyz
1 x,y,z
2 -x,-y,-z
_cell_length_a                   3.9940(10)
_cell_length_b                   7.986(3)
_cell_length_c                   14.442(5)
_cell_angle_alpha                99.74(3)
_cell_angle_beta                 94.30(2)
_cell_angle_gamma                91.06(3)
_cell_volume                     452.497
loop_
_atom_site_label
_atom_site_type_symbol
_atom_site_fract_x
_atom_site_fract_y
_atom_site_fract_z
K1 K 0.8059(7) 0.1192(3) 0.12833(17)
K2 K 1.3103(6) 0.1011(3) 0.37730(17)
O1 O 0.7707(18) -0.0939(9) 0.2750(5)
C1 C 0.393(3) -0.5013(16) 0.1509(8)
C2 C 0.816(3) -0.5259(15) 0.3199(7)
C3 C 0.707(3) -0.2546(14) 0.2572(8)
C4 C 0.508(3) -0.3290(14) 0.1765(8)
C5 C 1.032(3) -0.2650(15) 0.4088(9)
C6 C 0.843(3) -0.3530(14) 0.3277(7)
C7 C 0.377(3) -0.2189(14) 0.1147(7)
N1 N 0.800(2) -0.6717(13) 0.3177(6)
N2 N 0.307(2) -0.6379(12) 0.1313(7)
N3 N 1.170(3) -0.1893(13) 0.4744(7)
N4 N 0.276(2) -0.1273(11) 0.0681(6)
K1_2 K 0.8059(7) -0.8808(3) 0.12833(17)
K1_3 K -0.1941(7) -0.8808(3) 0.12833(17)
K1_4 K -0.1941(7) 0.1192(3) 0.12833(17)
K1A K 0.1941(7) -0.1192(3) -0.12833(17)
K2_2 K 0.3103(6) 0.1011(3) 0.37730(17)
K2_3 K 0.3103(6) -0.8989(3) 0.37730(17)
K2_4 K 1.3103(6) -0.8989(3) 0.37730(17)
K2A K 0.6897(6) -0.1011(3) 0.62270(17)
K2A_2 K 1.6897(6) -0.1011(3) 0.62270(17)
O1_2 O 1.7707(18) -0.0939(9) 0.2750(5)
N1_2 N 0.800(2) 0.3283(13) 0.3177(6)
N1_3 N 1.800(2) 0.3283(13) 0.3177(6)
N2_2 N 0.307(2) 0.3621(12) 0.1313(7)
N2_3 N 1.307(2) 0.3621(12) 0.1313(7)
N3A N 0.830(3) 0.1893(13) 0.5256(7)
N3A_2 N 1.830(3) 0.1893(13) 0.5256(7)
N4_2 N 1.276(2) -0.1273(11) 0.0681(6)
N4A N 0.724(2) 0.1273(11) -0.0681(6)
loop_
_geom_bond_atom_site_label_1
_geom_bond_atom_site_label_2
_geom_bond_site_symmetry_1
_geom_bond_site_symmetry_2
K1 O1 1_555 1_555
K2 O1 1_555 1_555
O1 C3 1_555 1_555
C1 C4 1_555 1_555
C2 C6 1_555 1_555
C3 C4 1_555 1_555
C4 C7 1_555 1_555
C5 C6 1_555 1_555
C6 C3 1_555 1_555
C7 N4 1_555 1_555
N1 C2 1_555 1_555
N2 C1 1_555 1_555
N3 K2 1_555 1_555
N4 K1 1_555 1_555
K1_2 N1 1_555 1_555
K1_3 N2 1_555 1_555
K1_4 N4 1_555 1_555
K1A N4 1_555 1_555
K2_2 O1 1_555 1_555
K2_3 N1 1_555 1_555
K2_4 N1 1_555 1_555
K2A N3 1_555 1_555
K2A_2 N3 1_555 1_555
O1_2 K2 1_555 1_555
N1_2 K1 1_555 1_555
N1_3 K2 1_555 1_555
N2_2 K1 1_555 1_555
N2_3 K1 1_555 1_555
N3A K2 1_555 1_555
N3A_2 K2 1_555 1_555
N4_2 K1 1_555 1_555
N4A K1 1_555 1_555
K2 N1_2 1_555 1_555
C5 N3 1_555 1_555
N2 K1_2 1_555 1_555
K1_4 N2_2 1_555 1_555
K1A N4A 1_555 1_555
K2_2 N1_2 1_555 1_555
K2_2 N3A 1_555 1_555
K2A N3A 1_555 1_555
K2A_2 N3A_2 1_555 1_555

#END
