
#######################################################################
#
#                 Cambridge Crystallographic Data Centre
#                                CCDC 
#
#######################################################################
#
# If this CIF has been generated from an entry in the Cambridge 
# Structural Database, then it will include bibliographic, chemical, 
# crystal, experimental, refinement or atomic coordinate data resulting 
# from the CCDC's data processing and validation procedures.
#
#######################################################################

data_VODLIK
_symmetry_cell_setting           triclinic
_symmetry_space_group_name_H-M   'P -1'
_symmetry_Int_Tables_number      2
_space_group_name_Hall           '-P 1'
loop_
_symmetry_equiv_pos_site_id
_symmetry_equiv_pos_as_xyz
1 x,y,z
2 -x,-y,-z
_cell_length_a                   6.7975(3)
_cell_length_b                   8.3478(4)
_cell_length_c                   8.7114(4)
_cell_angle_alpha                110.170(4)
_cell_angle_beta                 109.248(4)
_cell_angle_gamma                97.275(4)
_cell_volume                     421.656
loop_
_atom_site_label
_atom_site_type_symbol
_atom_site_fract_x
_atom_site_fract_y
_atom_site_fract_z
C1 C 0.2707(3) 0.2400(2) 0.4479(2)
C2 C 0.5162(3) 0.4002(3) 0.7510(3)
C3 C 0.1266(3) -0.1365(3) 0.3372(3)
C4 C 0.2382(3) -0.2321(3) 0.5748(3)
C5 C 0.3715(3) 0.2378(3) 0.6144(2)
C6 C 0.3593(3) 0.0833(3) 0.6522(2)
C7 C 0.2354(3) -0.0906(3) 0.5192(2)
N1 N 0.1903(3) 0.2454(2) 0.3119(2)
N2 N 0.6362(3) 0.5311(3) 0.8564(3)
N3 N 0.0381(3) -0.1805(2) 0.1858(2)
N4 N 0.2423(3) -0.3428(3) 0.6225(3)
O1 O 0.4660(2) 0.10278(19) 0.81193(17)
O2 O -0.1122(3) 0.3743(3) 0.1135(3)
O3 O 0.2509(2) 0.0521(2) 0.0101(2)
Cu1 Cu 0.09696(4) 0.23812(3) 0.07112(3)
H1 H -0.132(6) 0.413(5) 0.205(3)
H2 H -0.223(4) 0.366(6) 0.036(4)
H3 H 0.319(5) 0.068(5) -0.049(4)
H4 H 0.352(4) 0.044(4) 0.094(3)
N2A N 0.3638(3) 0.4689(3) 0.1436(3)
N3A N -0.0381(3) 0.1805(2) -0.1858(2)
Cu1A Cu 0.90304(4) 0.76188(3) 0.92888(3)
Cu1A_2 Cu -0.09696(4) -0.23812(3) -0.07112(3)
loop_
_geom_bond_atom_site_label_1
_geom_bond_atom_site_label_2
_geom_bond_site_symmetry_1
_geom_bond_site_symmetry_2
C1 C5 1_555 1_555
C2 C5 1_555 1_555
C3 C7 1_555 1_555
C4 C7 1_555 1_555
C5 C6 1_555 1_555
C6 C7 1_555 1_555
N1 C1 1_555 1_555
N2 C2 1_555 1_555
N3 C3 1_555 1_555
N4 C4 1_555 1_555
O1 C6 1_555 1_555
O2 Cu1 1_555 1_555
O3 Cu1 1_555 1_555
Cu1 N1 1_555 1_555
H1 O2 1_555 1_555
H2 O2 1_555 1_555
H3 O3 1_555 1_555
H4 O3 1_555 1_555
N2A Cu1 1_555 1_555
N3A Cu1 1_555 1_555
Cu1A N2 1_555 1_555
Cu1A_2 N3 1_555 1_555

#END
