
#######################################################################
#
#                 Cambridge Crystallographic Data Centre
#                                CCDC 
#
#######################################################################
#
# If this CIF has been generated from an entry in the Cambridge 
# Structural Database, then it will include bibliographic, chemical, 
# crystal, experimental, refinement or atomic coordinate data resulting 
# from the CCDC's data processing and validation procedures.
#
#######################################################################

data_VODLAC
_symmetry_cell_setting           orthorhombic
_symmetry_space_group_name_H-M   'P 21 21 2'
_symmetry_Int_Tables_number      18
_space_group_name_Hall           'P 2 2ab'
loop_
_symmetry_equiv_pos_site_id
_symmetry_equiv_pos_as_xyz
1 x,y,z
2 -x,-y,z
3 1/2-x,1/2+y,-z
4 1/2+x,1/2-y,-z
_cell_length_a                   20.405(4)
_cell_length_b                   21.821(4)
_cell_length_c                   10.917(2)
_cell_angle_alpha                90
_cell_angle_beta                 90
_cell_angle_gamma                90
_cell_volume                     4860.88
loop_
_atom_site_label
_atom_site_type_symbol
_atom_site_fract_x
_atom_site_fract_y
_atom_site_fract_z
O31 O -0.6006(6) 0.0609(6) 0.3452(12)
O32 O -0.6006(5) 0.0697(7) 0.1432(11)
C9 C -0.5810(8) 0.0532(8) 0.2313(19)
C10 C -0.4835(8) 0.0336(7) 0.1413(16)
C11 C -0.5095(7) 0.0244(6) 0.2208(15)
N5 N -0.4811(6) 0.0065(7) 0.3418(12)
O31A O -0.3994(6) -0.0609(6) 0.3452(12)
O32A O -0.3994(5) -0.0697(7) 0.1432(11)
C9A C -0.4190(8) -0.0532(8) 0.2313(19)
C10A C -0.5165(8) -0.0336(7) 0.1413(16)
C11A C -0.4905(7) -0.0244(6) 0.2208(15)
N5A N -0.5189(6) -0.0065(7) 0.3418(12)
O43 O -0.4554(9) 0.5591(7) 0.0611(18)
O44 O -0.3136(6) 0.4796(5) 0.5878(11)
O45 O -0.5586(4) 0.1188(4) -0.0275(9)
O46 O -0.3787(5) 0.4658(4) 0.4071(8)
Cr1 Cr -0.25986(5) 0.25168(5) 0.23098(11)
Mo1 Mo -0.22477(3) 0.40055(3) 0.21830(6)
Mo2 Mo -0.11703(3) 0.30307(3) 0.33759(6)
Mo3 Mo -0.15035(3) 0.15451(3) 0.34986(6)
Mo4 Mo -0.29662(3) 0.10438(3) 0.25285(6)
Mo5 Mo -0.40461(3) 0.20182(3) 0.13128(6)
Mo6 Mo -0.36932(3) 0.35027(3) 0.11551(6)
Zn1 Zn -0.25917(5) 0.82798(4) 0.26821(9)
Na1 Na -0.2822(2) 0.57211(17) 0.1799(4)
Na2 Na -0.1170(2) 0.6028(2) 0.4384(4)
O1 O -0.1864(2) 0.3037(2) 0.1738(5)
O2 O -0.2069(2) 0.2439(2) 0.3808(5)
O3 O -0.2192(2) 0.1738(2) 0.1829(4)
O4 O -0.3316(2) 0.2012(2) 0.2934(5)
O5 O -0.3145(2) 0.2595(2) 0.0830(5)
O6 O -0.3013(2) 0.3305(2) 0.2774(5)
O7 O -0.1789(3) 0.3704(2) 0.3604(5)
O8 O -0.0991(2) 0.2210(2) 0.2820(5)
O9 O -0.2348(2) 0.1204(2) 0.3848(5)
O10 O -0.3453(2) 0.1323(2) 0.1130(5)
O11 O -0.4217(2) 0.2856(2) 0.1811(5)
O12 O -0.2820(3) 0.3858(2) 0.0819(5)
O13 O -0.2634(3) 0.4599(3) 0.2858(6)
O14 O -0.1626(3) 0.4325(3) 0.1347(6)
O15 O -0.0886(3) 0.3003(3) 0.4869(5)
O16 O -0.0577(3) 0.3389(3) 0.2561(6)
O17 O -0.1205(3) 0.1525(3) 0.4959(5)
O18 O -0.1131(3) 0.0958(3) 0.2721(6)
O19 O -0.2590(3) 0.0439(2) 0.1820(5)
O20 O -0.3568(3) 0.0743(3) 0.3432(5)
O21 O -0.4339(4) 0.2014(3) -0.0122(6)
O22 O -0.4648(3) 0.1703(3) 0.2197(7)
O23 O -0.3975(3) 0.3553(3) -0.0295(6)
O24 O -0.4042(3) 0.4092(2) 0.1927(5)
O25 O -0.2493(3) 0.7561(2) 0.1286(5)
O26 O -0.2947(3) 0.6670(2) 0.0749(5)
O27 O -0.3953(3) 0.7789(3) 0.0083(5)
O28 O -0.2316(3) 0.7621(3) 0.4091(6)
O29 O -0.1446(4) 0.7077(3) 0.4688(7)
O30 O -0.1192(3) 0.8493(4) 0.5294(6)
C1 C -0.2942(4) 0.7168(3) 0.1360(7)
C2 C -0.3506(4) 0.7275(3) 0.2245(7)
H1 H -0.3428 0.7023 0.2973
C3 C -0.4150(4) 0.7061(4) 0.1661(7)
H2 H -0.4168 0.6617 0.1661
H3 H -0.4518 0.7213 0.2136
C4 C -0.4198(4) 0.7295(4) 0.0366(8)
C5 C -0.1714(5) 0.7482(4) 0.4039(9)
C6 C -0.1275(5) 0.7842(4) 0.3175(9)
H4 H -0.1213 0.7586 0.2446
C7 C -0.0606(5) 0.7951(6) 0.3706(10)
H5 H -0.0358 0.7572 0.3716
H6 H -0.0370 0.8247 0.3212
C8 C -0.0684(5) 0.8183(7) 0.4954(10)
N1 N -0.3533(4) 0.7927(3) 0.2645(7)
N2 N -0.4496(4) 0.6938(4) -0.0415(8)
H7 H -0.4497 0.7113 -0.1150
H8 H -0.4907 0.6876 -0.0170
H9 H -0.4287 0.6580 -0.0456
N3 N -0.1598(4) 0.8415(3) 0.2756(6)
N4 N -0.0194(6) 0.8051(7) 0.5741(11)
H10 H -0.0285 0.8210 0.6473
H11 H 0.0179 0.8210 0.5463
H12 H -0.0152 0.7646 0.5807
O34 O -0.2736(3) 0.8983(3) 0.1399(6)
O35 O -0.2865(3) 0.8969(3) 0.4034(6)
O36 O -0.1749(3) 0.5620(3) 0.0907(6)
O37 O -0.3242(4) 0.5126(3) 0.0103(7)
O38 O -0.3836(5) 0.5653(4) 0.2939(10)
O39 O -0.1012(5) 0.4924(4) 0.4260(9)
O40 O -0.0866(6) 0.6236(6) 0.2383(10)
O41 O -0.0184(3) 0.6189(3) 0.5403(8)
O42 O -0.2314(4) 0.5826(5) 0.3807(7)
Na2B Na -0.3830(2) 0.1028(2) 0.5616(4)
O20B O -0.1432(3) 0.5743(3) 0.6568(5)
O33? O -0.5557(12) 0.0574(10) 0.104(2)
loop_
_geom_bond_atom_site_label_1
_geom_bond_atom_site_label_2
_geom_bond_site_symmetry_1
_geom_bond_site_symmetry_2
Cr1 O1 1_555 1_555
Mo1 O1 1_555 1_555
Mo2 O1 1_555 1_555
Mo3 O2 1_555 1_555
Mo4 O3 1_555 1_555
Mo5 O4 1_555 1_555
Mo6 O5 1_555 1_555
Zn1 O25 1_555 1_555
Na1 O13 1_555 1_555
Na2 O29 1_555 1_555
O2 Cr1 1_555 1_555
O3 Cr1 1_555 1_555
O4 Cr1 1_555 1_555
O5 Cr1 1_555 1_555
O6 Cr1 1_555 1_555
O7 Mo1 1_555 1_555
O8 Mo2 1_555 1_555
O9 Mo3 1_555 1_555
O10 Mo4 1_555 1_555
O11 Mo5 1_555 1_555
O12 Mo1 1_555 1_555
O13 Mo1 1_555 1_555
O14 Mo1 1_555 1_555
O15 Mo2 1_555 1_555
O16 Mo2 1_555 1_555
O17 Mo3 1_555 1_555
O18 Mo3 1_555 1_555
O19 Mo4 1_555 1_555
O20 Mo4 1_555 1_555
O21 Mo5 1_555 1_555
O22 Mo5 1_555 1_555
O23 Mo6 1_555 1_555
O24 Mo6 1_555 1_555
O25 C1 1_555 1_555
O26 Na1 1_555 1_555
O27 C4 1_555 1_555
O28 Zn1 1_555 1_555
O29 C5 1_555 1_555
O30 C8 1_555 1_555
O31 C9 1_555 1_555
O32 C9 1_555 1_555
C1 O26 1_555 1_555
C2 C1 1_555 1_555
H1 C2 1_555 1_555
C3 C2 1_555 1_555
H2 C3 1_555 1_555
H3 C3 1_555 1_555
C4 C3 1_555 1_555
C5 O28 1_555 1_555
C6 C5 1_555 1_555
H4 C6 1_555 1_555
C7 C6 1_555 1_555
H5 C7 1_555 1_555
H6 C7 1_555 1_555
C8 C7 1_555 1_555
C9 C11 1_555 1_555
C10 C11 1_555 1_555
C11 N5 1_555 1_555
N1 Zn1 1_555 1_555
N2 C4 1_555 1_555
H7 N2 1_555 1_555
H8 N2 1_555 1_555
H9 N2 1_555 1_555
N3 Zn1 1_555 1_555
N4 C8 1_555 1_555
H10 N4 1_555 1_555
H11 N4 1_555 1_555
H12 N4 1_555 1_555
N5 C11A 1_555 1_555
O34 Zn1 1_555 1_555
O35 Zn1 1_555 1_555
O36 Na1 1_555 1_555
O37 Na1 1_555 1_555
O38 Na1 1_555 1_555
O39 Na2 1_555 1_555
O40 Na2 1_555 1_555
O41 Na2 1_555 1_555
O42 Na1 1_555 1_555
Na2B O20 1_555 1_555
O20B Na2 1_555 1_555
O31A C9A 1_555 1_555
O32A C9A 1_555 1_555
C9A C11A 1_555 1_555
C10A C10 1_555 1_555
C11A C10 1_555 1_555
N5A C11 1_555 1_555
Mo1 O6 1_555 1_555
Mo2 O2 1_555 1_555
Mo2 O7 1_555 1_555
Mo3 O3 1_555 1_555
Mo3 O8 1_555 1_555
Mo4 O4 1_555 1_555
Mo4 O9 1_555 1_555
Mo5 O5 1_555 1_555
Mo5 O10 1_555 1_555
Mo6 O6 1_555 1_555
Mo6 O11 1_555 1_555
Mo6 O12 1_555 1_555
Na2 O42 1_555 1_555
C2 N1 1_555 1_555
C6 N3 1_555 1_555
C11 C10A 1_555 1_555
C11 C11A 1_555 1_555
N5 N5A 1_555 1_555
C10A C11A 1_555 1_555
C11A N5A 1_555 1_555

#END
