
#######################################################################
#
#                 Cambridge Crystallographic Data Centre
#                                CCDC 
#
#######################################################################
#
# If this CIF has been generated from an entry in the Cambridge 
# Structural Database, then it will include bibliographic, chemical, 
# crystal, experimental, refinement or atomic coordinate data resulting 
# from the CCDC's data processing and validation procedures.
#
#######################################################################

data_VODNOS
_symmetry_cell_setting           monoclinic
_symmetry_space_group_name_H-M   'P 21/c'
_symmetry_Int_Tables_number      14
_space_group_name_Hall           '-P 2ybc'
loop_
_symmetry_equiv_pos_site_id
_symmetry_equiv_pos_as_xyz
1 x,y,z
2 -x,1/2+y,1/2-z
3 -x,-y,-z
4 x,1/2-y,1/2+z
_cell_length_a                   9.751(2)
_cell_length_b                   11.711(3)
_cell_length_c                   11.481(3)
_cell_angle_alpha                90
_cell_angle_beta                 112.694(4)
_cell_angle_gamma                90
_cell_volume                     1209.56
loop_
_atom_site_label
_atom_site_type_symbol
_atom_site_fract_x
_atom_site_fract_y
_atom_site_fract_z
Co1 Co -0.35233(4) 0.13395(3) -0.46254(3)
C1 C -0.5881(4) 0.3238(3) -0.5076(3)
H1 H -0.5957 0.2906 -0.4367
C2 C -0.6748(4) 0.4192(3) -0.5598(3)
H2 H -0.7390 0.4486 -0.5250
C3 C -0.6635(4) 0.4694(3) -0.6649(3)
H3 H -0.7172 0.5349 -0.7003
C4 C -0.5708(3) 0.4199(2) -0.7159(2)
C5 C -0.4878(3) 0.3241(2) -0.6576(2)
H4 H -0.4253 0.2916 -0.6924
C6 C -0.5584(3) 0.4687(2) -0.8321(2)
C7 C -0.0753(4) -0.1066(3) -0.1753(3)
H5 H -0.0629 -0.1223 -0.0924
C8 C -0.1828(4) -0.0304(3) -0.2474(3)
H6 H -0.2416 0.0048 -0.2106
C9 C -0.1222(3) -0.0574(3) -0.4169(3)
H7 H -0.1385 -0.0416 -0.5006
C10 C -0.0118(3) -0.1344(2) -0.3528(3)
H8 H 0.0445 -0.1690 -0.3924
C11 C 0.0134(3) -0.1592(2) -0.2288(3)
C12 C 0.1403(3) -0.2369(2) -0.1520(3)
N1 N -0.4943(3) 0.2771(2) -0.5537(2)
N2 N -0.2068(3) -0.0044(2) -0.3665(2)
O1 O -0.5010(2) 0.40729(17) -0.88885(18)
O2 O -0.6107(2) 0.56668(15) -0.86593(16)
O3 O 0.1534(2) -0.26772(19) -0.04455(19)
O4 O 0.2308(2) -0.26566(18) -0.19941(19)
Co1C Co -0.35233(4) 0.36605(3) -0.96254(3)
Co1A Co -0.64767(4) 0.63395(3) -1.03746(3)
Co1A_2 Co 0.35233(4) -0.36605(3) -0.03746(3)
O1C O -0.5010(2) 0.09271(17) -0.38885(18)
O2A O -0.3893(2) 0.06668(15) -0.63407(16)
O3A O -0.1534(2) 0.23228(19) -0.45545(19)
O4A O -0.2308(2) 0.23434(18) -0.30059(19)
loop_
_geom_bond_atom_site_label_1
_geom_bond_atom_site_label_2
_geom_bond_site_symmetry_1
_geom_bond_site_symmetry_2
Co1 N1 1_555 1_555
C1 H1 1_555 1_555
C2 C1 1_555 1_555
H2 C2 1_555 1_555
C3 C2 1_555 1_555
H3 C3 1_555 1_555
C4 C3 1_555 1_555
C5 C4 1_555 1_555
H4 C5 1_555 1_555
C6 C4 1_555 1_555
C7 H5 1_555 1_555
C8 C7 1_555 1_555
H6 C8 1_555 1_555
C9 H7 1_555 1_555
C10 C9 1_555 1_555
H8 C10 1_555 1_555
C11 C7 1_555 1_555
C12 C11 1_555 1_555
N1 C1 1_555 1_555
N2 Co1 1_555 1_555
O1 C6 1_555 1_555
O2 C6 1_555 1_555
O3 C12 1_555 1_555
O4 C12 1_555 1_555
Co1C O1 1_555 1_555
Co1A O2 1_555 1_555
Co1A_2 O3 1_555 1_555
O1C Co1 1_555 1_555
O2A Co1 1_555 1_555
O3A Co1 1_555 1_555
O4A Co1 1_555 1_555
C5 N1 1_555 1_555
C8 N2 1_555 1_555
C9 N2 1_555 1_555
C10 C11 1_555 1_555
O4 Co1A_2 1_555 1_555

#END
