
#######################################################################
#
#                 Cambridge Crystallographic Data Centre
#                                CCDC 
#
#######################################################################
#
# If this CIF has been generated from an entry in the Cambridge 
# Structural Database, then it will include bibliographic, chemical, 
# crystal, experimental, refinement or atomic coordinate data resulting 
# from the CCDC's data processing and validation procedures.
#
#######################################################################

data_VODNAE
_symmetry_cell_setting           triclinic
_symmetry_space_group_name_H-M   'P -1'
_symmetry_Int_Tables_number      2
_space_group_name_Hall           '-P 1'
loop_
_symmetry_equiv_pos_site_id
_symmetry_equiv_pos_as_xyz
1 x,y,z
2 -x,-y,-z
_cell_length_a                   9.948(4)
_cell_length_b                   11.034(4)
_cell_length_c                   12.462(5)
_cell_angle_alpha                64.050(5)
_cell_angle_beta                 73.257(5)
_cell_angle_gamma                71.480(5)
_cell_volume                     1148.32
loop_
_atom_site_label
_atom_site_type_symbol
_atom_site_fract_x
_atom_site_fract_y
_atom_site_fract_z
Ag1 Ag 0.63204(4) 0.77475(5) 0.57482(4)
C1 C 0.7569(7) 0.5916(7) 0.8438(5)
H1 H 0.7938 0.6701 0.8134
C2 C 0.7893(8) 0.4906(7) 0.9504(6)
H2 H 0.8439 0.5011 0.9937
C3 C 0.7407(10) 0.3751(8) 0.9919(7)
H3 H 0.7654 0.3024 1.0629
C4 C 0.6545(9) 0.3640(7) 0.9298(6)
H4 H 0.6190 0.2848 0.9587
C5 C 0.6220(6) 0.4709(6) 0.8253(5)
C6 C 0.4491(7) 0.3195(6) 0.8155(5)
H5 H 0.4054 0.3113 0.8980
H6 H 0.5288 0.2404 0.8181
C7 C 0.3403(6) 0.3236(6) 0.7513(5)
C8 C 0.1948(7) 0.3454(6) 0.7965(5)
H7 H 0.1606 0.3633 0.8671
C9 C 0.1008(6) 0.3407(6) 0.7383(5)
H8 H 0.0027 0.3549 0.7695
C10 C 0.1509(5) 0.3146(5) 0.6324(4)
C11 C 0.3816(6) 0.3008(6) 0.6449(5)
H9 H 0.4791 0.2878 0.6118
C12 C 0.0552(5) 0.3006(5) 0.5688(4)
C13 C -0.0909(6) 0.3513(6) 0.5838(5)
H10 H -0.1355 0.3960 0.6374
C14 C -0.1711(6) 0.3357(6) 0.5195(5)
H11 H -0.2700 0.3716 0.5284
C15 C -0.1051(5) 0.2669(5) 0.4416(4)
C16 C 0.0403(5) 0.2166(6) 0.4344(5)
H12 H 0.0863 0.1667 0.3850
C17 C -0.1824(6) 0.2508(6) 0.3639(5)
H13 H -0.2420 0.3395 0.3226
H14 H -0.1128 0.2205 0.3029
C18 C -0.3216(5) 0.0873(5) 0.3382(4)
C19 C -0.2064(6) 0.0408(5) 0.2613(4)
H15 H -0.1122 0.0284 0.2691
C20 C -0.2342(7) 0.0134(6) 0.1729(5)
H16 H -0.1592 -0.0147 0.1181
C21 C -0.3742(7) 0.0283(6) 0.1674(5)
H17 H -0.3958 0.0094 0.1093
C22 C -0.4816(6) 0.0713(6) 0.2483(5)
H18 H -0.5762 0.0785 0.2452
N1 N 0.6741(5) 0.5838(5) 0.7801(4)
N2 N 0.2918(4) 0.2960(4) 0.5862(3)
N3 N 0.1203(4) 0.2341(4) 0.4932(4)
N4 N -0.4579(4) 0.1036(4) 0.3322(3)
S1 S 0.51305(16) 0.47805(15) 0.73318(12)
S2 S -0.29494(14) 0.12538(15) 0.45411(11)
Ag1A Ag 0.36796(4) 0.22525(5) 0.42518(4)
Ag1A_2 Ag -0.63204(4) 0.22525(5) 0.42518(4)
N2A N 0.7082(4) 0.7040(4) 0.4138(3)
N3A N 0.8797(4) 0.7659(4) 0.5068(4)
N4A N 0.4579(4) 0.8964(4) 0.6678(3)
Cl1 Cl 0.81370(17) 0.9381(2) 0.86548(13)
O1 O 0.6794(5) 0.9156(8) 0.9338(5)
O2 O 0.8673(8) 1.0159(11) 0.8928(7)
O3 O 0.8261(7) 0.9721(8) 0.7448(5)
O4 O 0.9093(8) 0.8045(9) 0.8955(8)
loop_
_geom_bond_atom_site_label_1
_geom_bond_atom_site_label_2
_geom_bond_site_symmetry_1
_geom_bond_site_symmetry_2
Ag1 N1 1_555 1_555
C1 H1 1_555 1_555
C2 C1 1_555 1_555
H2 C2 1_555 1_555
C3 C2 1_555 1_555
H3 C3 1_555 1_555
C4 C3 1_555 1_555
H4 C4 1_555 1_555
C5 C4 1_555 1_555
C6 H5 1_555 1_555
H6 C6 1_555 1_555
C7 C6 1_555 1_555
C8 C7 1_555 1_555
H7 C8 1_555 1_555
C9 C8 1_555 1_555
H8 C9 1_555 1_555
C10 C9 1_555 1_555
C11 C7 1_555 1_555
H9 C11 1_555 1_555
C12 C10 1_555 1_555
C13 C12 1_555 1_555
H10 C13 1_555 1_555
C14 C13 1_555 1_555
H11 C14 1_555 1_555
C15 C14 1_555 1_555
C16 C15 1_555 1_555
H12 C16 1_555 1_555
C17 C15 1_555 1_555
H13 C17 1_555 1_555
H14 C17 1_555 1_555
C18 C19 1_555 1_555
C19 H15 1_555 1_555
C20 C19 1_555 1_555
H16 C20 1_555 1_555
C21 C20 1_555 1_555
H17 C21 1_555 1_555
C22 C21 1_555 1_555
H18 C22 1_555 1_555
Cl1 O1 1_555 1_555
N1 C1 1_555 1_555
N2 C10 1_555 1_555
N3 C12 1_555 1_555
N4 C18 1_555 1_555
O2 Cl1 1_555 1_555
O3 Cl1 1_555 1_555
O4 Cl1 1_555 1_555
S1 C5 1_555 1_555
S2 C17 1_555 1_555
Ag1A N2 1_555 1_555
Ag1A_2 N4 1_555 1_555
N2A Ag1 1_555 1_555
N3A Ag1 1_555 1_555
N4A Ag1 1_555 1_555
C5 N1 1_555 1_555
C6 S1 1_555 1_555
C11 N2 1_555 1_555
C16 N3 1_555 1_555
C18 S2 1_555 1_555
C22 N4 1_555 1_555
N3 Ag1A 1_555 1_555

#END
