
#######################################################################
#
#                 Cambridge Crystallographic Data Centre
#                                CCDC 
#
#######################################################################
#
# If this CIF has been generated from an entry in the Cambridge 
# Structural Database, then it will include bibliographic, chemical, 
# crystal, experimental, refinement or atomic coordinate data resulting 
# from the CCDC's data processing and validation procedures.
#
#######################################################################

data_VODPOU
_symmetry_cell_setting           orthorhombic
_symmetry_space_group_name_H-M   'P b c a'
_symmetry_Int_Tables_number      61
_space_group_name_Hall           '-P 2ac 2ab'
loop_
_symmetry_equiv_pos_site_id
_symmetry_equiv_pos_as_xyz
1 x,y,z
2 1/2-x,-y,1/2+z
3 -x,1/2+y,1/2-z
4 1/2+x,1/2-y,-z
5 -x,-y,-z
6 1/2+x,y,1/2-z
7 x,1/2-y,1/2+z
8 1/2-x,1/2+y,z
_cell_length_a                   15.2396(3)
_cell_length_b                   13.4770(3)
_cell_length_c                   26.2200(5)
_cell_angle_alpha                90
_cell_angle_beta                 90
_cell_angle_gamma                90
_cell_volume                     5385.17
loop_
_atom_site_label
_atom_site_type_symbol
_atom_site_fract_x
_atom_site_fract_y
_atom_site_fract_z
Mn1 Mn 0.04072(6) 0.69633(8) 0.36018(4)
Mn2 Mn -0.25026(7) 0.68906(7) 0.69257(3)
Mn3 Mn 0.53024(6) 0.42180(7) 0.17424(4)
N1 N -0.1773(4) 0.6925(4) 0.61673(19)
N2 N 0.1295(5) 0.9416(6) 0.4200(3)
N3 N 0.1254(4) 0.8270(4) 0.3494(2)
N4 N -0.2019(4) 0.7418(5) 0.5744(2)
N5 N 0.4963(4) 0.4940(4) 0.2509(2)
C1 C 0.4403(4) 0.5959(5) 0.3367(3)
H1 H 0.4213 0.6313 0.3651
N6 N -0.0740(4) 0.7709(4) 0.2564(2)
C2 C 0.5534(5) 0.5263(5) 0.2855(3)
H2 H 0.6126 0.5120 0.2810
C3 C 0.4117(5) 0.5103(5) 0.2601(3)
H3 H 0.3711 0.4879 0.2362
C4 C 0.3808(4) 0.5578(5) 0.3024(2)
C5 C -0.0689(4) 0.6774(5) 0.5633(2)
C6 C -0.0692(5) 0.7366(6) 0.4567(3)
H4 H -0.0294 0.6892 0.4681
C7 C 0.2836(4) 0.5625(5) 0.3100(2)
C8 C 0.5277(5) 0.5807(6) 0.3282(3)
H5 H 0.5694 0.6062 0.3506
N7 N -0.0979(4) 0.6551(4) 0.6094(2)
C9 C -0.1314(5) 0.7703(7) 0.4906(3)
N8 N 0.1267(4) 0.8854(5) 0.3857(3)
C10 C -0.1849(11) 0.8453(13) 0.4738(5)
H6 H -0.2229 0.8766 0.4964
C11 C -0.1822(12) 0.8742(15) 0.4234(5)
H7 H -0.2233 0.9186 0.4105
N9 N -0.1017(7) 0.5522(6) 0.3725(4)
N10 N -0.2987(5) 0.7083(5) 0.7683(2)
N11 N -0.3586(4) 0.6875(4) 0.7967(3)
N12 N -0.0350(4) 0.7312(5) 0.2894(2)
N13 N 0.2368(3) 0.6448(4) 0.31722(19)
O1 O 0.1241(3) 0.6684(4) 0.42881(17)
N14 N -0.4167(4) 0.6688(5) 0.8274(2)
N15 N 0.2349(3) 0.4807(4) 0.31058(18)
N16 N 0.1525(3) 0.5151(4) 0.31906(19)
N17 N -0.1119(4) 0.8116(4) 0.2224(2)
N18 N -0.0242(4) 0.5499(4) 0.3653(2)
N19 N -0.1322(5) 0.7292(6) 0.5432(3)
C12 C -0.1187(7) 0.8366(8) 0.3931(4)
H8 H -0.1142 0.8603 0.3599
N20 N -0.1803(7) 0.5556(9) 0.3748(7)
N21 N -0.0626(4) 0.7680(4) 0.4082(2)
N22 N 0.1541(3) 0.6115(4) 0.32296(19)
Mn2C Mn 0.24974(7) 0.81094(7) 0.30743(3)
Mn2D Mn 0.25026(7) 0.31094(7) 0.30743(3)
Mn2F Mn -0.25026(7) 0.81094(7) 0.19257(3)
Mn3A Mn -0.03024(6) 0.57820(7) 0.67424(4)
Mn3D Mn -0.53024(6) 0.57820(7) 0.82576(4)
Mn3E Mn 0.03024(6) 0.42180(7) 0.32576(4)
Mn3G Mn -0.03024(6) 0.92180(7) 0.17424(4)
N3C N -0.3746(4) 0.6730(4) 0.6506(2)
N7A N 0.5979(4) 0.3449(4) 0.1094(2)
N13C N -0.2632(3) 0.8552(4) 0.68278(19)
N14D N 0.4167(4) 0.3312(5) 0.1726(2)
N15D N -0.2349(3) 0.5193(4) 0.68942(18)
N16E N 0.6525(3) 0.5151(4) 0.18094(19)
N17F N -0.1119(4) 0.6884(4) 0.7224(2)
N17G N 0.6119(4) 0.3116(4) 0.2224(2)
N18E N 0.4758(4) 0.5499(4) 0.1347(2)
O2 O 0.5832(9) 0.9218(13) 0.4834(5)
C13 C 0.526(8) 1.004(7) 0.454(3)
O3 O 0.687(3) 0.008(3) 0.5209(15)
loop_
_geom_bond_atom_site_label_1
_geom_bond_atom_site_label_2
_geom_bond_site_symmetry_1
_geom_bond_site_symmetry_2
Mn1 N3 1_555 1_555
Mn2 N1 1_555 1_555
Mn3 N5 1_555 1_555
N1 N4 1_555 1_555
N2 N8 1_555 1_555
N3 N8 1_555 1_555
N4 N19 1_555 1_555
N5 C2 1_555 1_555
C1 H1 1_555 1_555
N6 N12 1_555 1_555
C2 H2 1_555 1_555
C3 N5 1_555 1_555
H3 C3 1_555 1_555
C4 C1 1_555 1_555
C5 N7 1_555 1_555
C6 H4 1_555 1_555
C7 C4 1_555 1_555
C8 C1 1_555 1_555
H5 C8 1_555 1_555
N7 N1 1_555 1_555
C9 C6 1_555 1_555
C10 C9 1_555 1_555
H6 C10 1_555 1_555
C11 C10 1_555 1_555
H7 C11 1_555 1_555
N9 N18 1_555 1_555
N10 Mn2 1_555 1_555
N11 N10 1_555 1_555
N12 Mn1 1_555 1_555
N13 C7 1_555 1_555
O1 Mn1 1_555 1_555
N14 N11 1_555 1_555
N15 C7 1_555 1_555
N16 N15 1_555 1_555
N17 N6 1_555 1_555
N18 Mn1 1_555 1_555
N19 C5 1_555 1_555
C12 C11 1_555 1_555
H8 C12 1_555 1_555
N20 N9 1_555 1_555
N21 Mn1 1_555 1_555
N22 Mn1 1_555 1_555
O2 C13 1_555 1_555
Mn2C N3 1_555 1_555
Mn2D N15 1_555 1_555
Mn2F N17 1_555 1_555
Mn3A N7 1_555 1_555
Mn3D N14 1_555 1_555
Mn3E N16 1_555 1_555
Mn3G N17 1_555 1_555
N3C Mn2 1_555 1_555
N7A Mn3 1_555 1_555
N13C Mn2 1_555 1_555
N14D Mn3 1_555 1_555
N15D Mn2 1_555 1_555
N16E Mn3 1_555 1_555
N17F Mn2 1_555 1_555
N17G Mn3 1_555 1_555
N18E Mn3 1_555 1_555
C2 C8 1_555 1_555
C3 C4 1_555 1_555
C6 N21 1_555 1_555
C9 N19 1_555 1_555
N13 N22 1_555 1_555
N13 Mn2C 1_555 1_555
N16 N22 1_555 1_555
N18 Mn3E 1_555 1_555
C12 N21 1_555 1_555
Mn3A N17F 1_555 1_555

#END
