
#######################################################################
#
#                 Cambridge Crystallographic Data Centre
#                                CCDC 
#
#######################################################################
#
# If this CIF has been generated from an entry in the Cambridge 
# Structural Database, then it will include bibliographic, chemical, 
# crystal, experimental, refinement or atomic coordinate data resulting 
# from the CCDC's data processing and validation procedures.
#
#######################################################################

data_VODPAG
_symmetry_cell_setting           orthorhombic
_symmetry_space_group_name_H-M   'P b c n'
_symmetry_Int_Tables_number      60
_space_group_name_Hall           '-P 2n 2ab'
loop_
_symmetry_equiv_pos_site_id
_symmetry_equiv_pos_as_xyz
1 x,y,z
2 1/2-x,1/2-y,1/2+z
3 -x,y,1/2-z
4 1/2+x,1/2-y,-z
5 -x,-y,-z
6 1/2+x,1/2+y,1/2-z
7 x,-y,1/2+z
8 1/2-x,1/2+y,z
_cell_length_a                   10.407(5)
_cell_length_b                   13.821(7)
_cell_length_c                   24.351(13)
_cell_angle_alpha                90
_cell_angle_beta                 90
_cell_angle_gamma                90
_cell_volume                     3502.53
loop_
_atom_site_label
_atom_site_type_symbol
_atom_site_fract_x
_atom_site_fract_y
_atom_site_fract_z
Zn1 Zn 0.5000 1.06547(2) 0.2500
Zn2 Zn 0.0000 1.29232(3) 0.2500
C1 C 0.2260(2) 1.14801(16) 0.23972(9)
C2 C 0.1700(2) 1.07457(15) 0.20258(9)
C3 C 0.1649(2) 0.97766(17) 0.21842(11)
H1 H 0.1901 0.9596 0.2536
C4 C 0.1219(3) 0.90818(19) 0.18161(12)
H2 H 0.1186 0.8432 0.1915
C5 C 0.0846(3) 0.9376(2) 0.13028(12)
C6 C 0.0850(3) 1.0331(2) 0.11384(11)
H3 H 0.0567 1.0507 0.0790
C7 C 0.1286(3) 1.10219(19) 0.15068(11)
H4 H 0.1302 1.1671 0.1406
C8 C 0.5809(2) 0.93298(16) 0.39285(9)
C9 C 0.6268(2) 0.93715(18) 0.44996(10)
C10 C 0.6432(3) 0.8530(2) 0.48008(11)
H5 H 0.6238 0.7933 0.4645
C11 C 0.6886(3) 0.8582(3) 0.53348(12)
H6 H 0.7004 0.8024 0.5542
C12 C 0.7159(3) 0.9475(2) 0.55524(10)
C13 C 0.6975(3) 1.0323(2) 0.52703(11)
H7 H 0.7143 1.0918 0.5434
C14 C 0.6532(3) 1.0267(2) 0.47344(10)
H8 H 0.6412 1.0830 0.4531
N1 N 0.34575(18) 1.14784(14) 0.25849(8)
N2 N 0.3605(2) 1.22983(14) 0.28912(9)
N3 N 0.2541(2) 1.27669(14) 0.28891(9)
N4 N 0.16663(19) 1.22721(14) 0.25790(8)
N5 N 0.0449(3) 0.8627(2) 0.08990(13)
N6 N 0.5562(2) 1.01206(14) 0.36284(8)
N7 N 0.52311(18) 0.97741(14) 0.31422(8)
N8 N 0.52660(18) 0.88139(14) 0.31483(8)
N9 N 0.5631(2) 0.85105(14) 0.36418(8)
N10 N 0.7652(3) 0.9528(3) 0.61220(10)
O1 O -0.0086(3) 0.8896(3) 0.04816(14)
O2 O 0.0740(4) 0.7786(2) 0.09984(13)
O3 O 0.8097(3) 0.8790(2) 0.63169(10)
O4 O 0.7614(3) 1.0303(3) 0.63558(10)
Zn2E Zn 0.5000 0.79232(3) 0.2500
Zn2_2 Zn 1.0000 1.29232(3) 0.2500
C1B C 0.7740(2) 1.14801(16) 0.26028(9)
C2B C 0.8300(2) 1.07457(15) 0.29742(9)
C3B C 0.8351(2) 0.97766(17) 0.28158(11)
H1B H 0.8099 0.9596 0.2464
C4B C 0.8781(3) 0.90818(19) 0.31839(12)
H2B H 0.8814 0.8432 0.3085
C5B C 0.9154(3) 0.9376(2) 0.36972(12)
C6B C 0.9150(3) 1.0331(2) 0.38616(11)
H3B H 0.9433 1.0507 0.4210
C7B C 0.8714(3) 1.10219(19) 0.34932(11)
H4B H 0.8698 1.1671 0.3594
C8B C 0.4191(2) 0.93298(16) 0.10715(9)
C9B C 0.3732(2) 0.93715(18) 0.05004(10)
C10B C 0.3568(3) 0.8530(2) 0.01992(11)
H5B H 0.3762 0.7933 0.0355
C11B C 0.3114(3) 0.8582(3) -0.03348(12)
H6B H 0.2996 0.8024 -0.0542
C12B C 0.2841(3) 0.9475(2) -0.05524(10)
C13B C 0.3025(3) 1.0323(2) -0.02703(11)
H7B H 0.2857 1.0918 -0.0434
C14B C 0.3468(3) 1.0267(2) 0.02656(10)
H8B H 0.3588 1.0830 0.0469
N1B N 0.65425(18) 1.14784(14) 0.24151(8)
N2B N 0.6395(2) 1.22983(14) 0.21088(9)
N3B N 0.7459(2) 1.27669(14) 0.21109(9)
N4B N 0.83337(19) 1.22721(14) 0.24210(8)
N4B_2 N -0.16663(19) 1.22721(14) 0.24210(8)
N5B N 0.9551(3) 0.8627(2) 0.41010(13)
N6B N 0.4438(2) 1.01206(14) 0.13716(8)
N7B N 0.47689(18) 0.97741(14) 0.18578(8)
N8B N 0.47340(18) 0.88139(14) 0.18517(8)
N8E N 0.02660(18) 1.38139(14) 0.18517(8)
N8G N -0.02660(18) 1.38139(14) 0.31483(8)
N9B N 0.4369(2) 0.85105(14) 0.13582(8)
N10B N 0.2348(3) 0.9528(3) -0.11220(10)
O1B O 1.0086(3) 0.8896(3) 0.45184(14)
O2B O 0.9260(4) 0.7786(2) 0.40016(13)
O3B O 0.1903(3) 0.8790(2) -0.13169(10)
O4B O 0.2386(3) 1.0303(3) -0.13558(10)
loop_
_geom_bond_atom_site_label_1
_geom_bond_atom_site_label_2
_geom_bond_site_symmetry_1
_geom_bond_site_symmetry_2
Zn1 N1 1_555 1_555
Zn2 N4 1_555 1_555
C1 C2 1_555 1_555
C2 C3 1_555 1_555
C3 H1 1_555 1_555
C4 C3 1_555 1_555
H2 C4 1_555 1_555
C5 C4 1_555 1_555
C6 C5 1_555 1_555
H3 C6 1_555 1_555
C7 C2 1_555 1_555
H4 C7 1_555 1_555
C8 C9 1_555 1_555
C9 C10 1_555 1_555
C10 H5 1_555 1_555
C11 C10 1_555 1_555
H6 C11 1_555 1_555
C12 C11 1_555 1_555
C13 C12 1_555 1_555
H7 C13 1_555 1_555
C14 C9 1_555 1_555
H8 C14 1_555 1_555
N1 C1 1_555 1_555
N2 N1 1_555 1_555
N3 N2 1_555 1_555
N4 C1 1_555 1_555
N5 C5 1_555 1_555
N6 C8 1_555 1_555
N7 Zn1 1_555 1_555
N8 N7 1_555 1_555
N9 C8 1_555 1_555
N10 C12 1_555 1_555
O1 N5 1_555 1_555
O2 N5 1_555 1_555
O3 N10 1_555 1_555
O4 N10 1_555 1_555
Zn2E N8 1_555 1_555
Zn2_2 N4B 1_555 1_555
C1B C2B 1_555 1_555
C2B C3B 1_555 1_555
C3B H1B 1_555 1_555
C4B C3B 1_555 1_555
H2B C4B 1_555 1_555
C5B C4B 1_555 1_555
C6B C5B 1_555 1_555
H3B C6B 1_555 1_555
C7B C2B 1_555 1_555
H4B C7B 1_555 1_555
C8B C9B 1_555 1_555
C9B C10B 1_555 1_555
C10B H5B 1_555 1_555
C11B C10B 1_555 1_555
H6B C11B 1_555 1_555
C12B C11B 1_555 1_555
C13B C12B 1_555 1_555
H7B C13B 1_555 1_555
C14B C9B 1_555 1_555
H8B C14B 1_555 1_555
N1B Zn1 1_555 1_555
N2B N1B 1_555 1_555
N3B N2B 1_555 1_555
N4B C1B 1_555 1_555
N4B_2 Zn2 1_555 1_555
N5B C5B 1_555 1_555
N6B C8B 1_555 1_555
N7B Zn1 1_555 1_555
N8B Zn2E 1_555 1_555
N8E Zn2 1_555 1_555
N8G Zn2 1_555 1_555
N9B C8B 1_555 1_555
N10B C12B 1_555 1_555
O1B N5B 1_555 1_555
O2B N5B 1_555 1_555
O3B N10B 1_555 1_555
O4B N10B 1_555 1_555
C6 C7 1_555 1_555
C13 C14 1_555 1_555
N3 N4 1_555 1_555
N6 N7 1_555 1_555
N8 N9 1_555 1_555
C1B N1B 1_555 1_555
C6B C7B 1_555 1_555
C13B C14B 1_555 1_555
N3B N4B 1_555 1_555
N6B N7B 1_555 1_555
N7B N8B 1_555 1_555
N8B N9B 1_555 1_555

#END
