
#######################################################################
#
#                 Cambridge Crystallographic Data Centre
#                                CCDC 
#
#######################################################################
#
# If this CIF has been generated from an entry in the Cambridge 
# Structural Database, then it will include bibliographic, chemical, 
# crystal, experimental, refinement or atomic coordinate data resulting 
# from the CCDC's data processing and validation procedures.
#
#######################################################################

data_VODQIP
_symmetry_cell_setting           triclinic
_symmetry_space_group_name_H-M   'P -1'
_symmetry_Int_Tables_number      2
_space_group_name_Hall           '-P 1'
loop_
_symmetry_equiv_pos_site_id
_symmetry_equiv_pos_as_xyz
1 x,y,z
2 -x,-y,-z
_cell_length_a                   14.883(3)
_cell_length_b                   16.795(4)
_cell_length_c                   17.490(4)
_cell_angle_alpha                93.192(4)
_cell_angle_beta                 114.063(3)
_cell_angle_gamma                103.782(4)
_cell_volume                     3818.95
loop_
_atom_site_label
_atom_site_type_symbol
_atom_site_fract_x
_atom_site_fract_y
_atom_site_fract_z
O25 O 0.622(3) 0.704(3) 1.130(3)
N5 N 0.766(2) 0.786(2) 1.120(2)
C60 C 0.705(3) 0.752(3) 1.167(3)
H61 H 0.7327 0.7695 1.2250
C61 C 0.727(4) 0.754(3) 1.027(2)
H62 H 0.7198 0.6954 1.0188
H63 H 0.7739 0.7827 1.0066
H64 H 0.6609 0.7630 0.9966
C62 C 0.872(3) 0.843(3) 1.167(3)
H65 H 0.8775 0.8928 1.1428
H66 H 0.9210 0.8164 1.1642
H67 H 0.8858 0.8574 1.2258
O26 O 0.6384(19) 0.1766(17) 0.1209(17)
N6 N 0.5936(14) 0.2264(14) 0.2168(13)
C63 C 0.568(2) 0.168(2) 0.1395(17)
H68 H 0.5045 0.1284 0.1090
C64 C 0.5130(18) 0.2379(19) 0.2422(18)
H69 H 0.4665 0.2608 0.1996
H70 H 0.5445 0.2752 0.2955
H71 H 0.4759 0.1851 0.2478
C65 C 0.7035(15) 0.274(2) 0.2713(19)
H72 H 0.7341 0.2435 0.3146
H73 H 0.7066 0.3272 0.2974
H74 H 0.7401 0.2824 0.2368
O27 O 0.612(2) 0.1285(19) 0.671(2)
N7 N 0.6002(19) 0.2439(14) 0.7207(15)
C66 C 0.666(3) 0.199(2) 0.702(5)
H75 H 0.7342 0.2201 0.7119
C67 C 0.639(4) 0.3352(16) 0.750(4)
H76 H 0.5859 0.3551 0.7556
H77 H 0.6585 0.3621 0.7103
H78 H 0.6975 0.3477 0.8048
C68 C 0.496(3) 0.197(3) 0.709(4)
H79 H 0.4621 0.2345 0.7202
H80 H 0.5025 0.1579 0.7483
H81 H 0.4571 0.1667 0.6521
Nd1 Nd 0.87550(4) 0.03455(3) 0.42093(3)
Nd2 Nd 0.87389(4) 0.53489(3) 0.99633(3)
S1 S 0.7917(2) -0.01930(16) 0.90682(18)
S2 S 0.7890(2) -0.51033(14) 0.44720(14)
S3 S 0.4371(2) 0.2892(2) 0.47426(19)
O1 O 0.8621(5) -0.0025(4) 0.5508(4)
O2 O 1.0124(6) -0.0184(6) 0.6427(4)
O3 O 0.8659(7) -0.0454(5) 0.9779(5)
O4 O 0.6824(7) -0.0582(5) 0.8765(5)
O5 O 0.7911(6) 0.3819(4) 0.9636(5)
O6 O 0.9530(6) 0.4018(4) 0.9867(4)
O7 O 0.9530(5) -0.0962(4) 0.4659(4)
O8 O 0.7896(5) -0.1190(4) 0.3814(4)
O9 O 0.6800(5) -0.5498(4) 0.4049(4)
O10 O 0.8570(6) -0.5431(4) 0.4237(4)
O11 O 1.0249(6) -0.5030(5) 0.8659(4)
O12 O 0.8712(6) -0.4945(5) 0.8562(4)
O13 O 0.8309(5) 0.1505(4) 0.4841(5)
O14 O 0.7022(5) 0.0457(5) 0.3995(5)
O15 O 0.3539(7) 0.2292(6) 0.4783(6)
O16 O 0.4921(7) 0.3640(6) 0.5373(5)
O17 O 0.1751(7) 0.3489(5) 0.0785(5)
O18 O 0.3014(6) 0.4657(6) 0.1206(5)
C1 C 0.9214(9) -0.0144(7) 0.6201(6)
C2 C 0.8840(7) -0.0219(6) 0.6909(6)
C3 C 0.7894(8) -0.0125(6) 0.6760(6)
H1 H 0.7463 -0.0042 0.6228
C4 C 0.7589(8) -0.0155(6) 0.7412(6)
H2 H 0.6948 -0.0097 0.7318
C5 C 0.8235(8) -0.0272(6) 0.8199(6)
C6 C 0.9183(9) -0.0374(7) 0.8324(6)
H3 H 0.9621 -0.0456 0.8853
C7 C 0.9475(8) -0.0353(7) 0.7687(6)
H4 H 1.0107 -0.0429 0.7775
C8 C 0.8132(9) 0.0902(6) 0.9307(6)
C9 C 0.7309(9) 0.1212(7) 0.9118(7)
H5 H 0.6644 0.0857 0.8891
C10 C 0.7489(9) 0.2064(7) 0.9272(7)
H6 H 0.6937 0.2283 0.9152
C11 C 0.8492(8) 0.2609(6) 0.9606(6)
C12 C 0.9321(8) 0.2278(6) 0.9817(6)
H7 H 0.9989 0.2628 1.0051
C13 C 0.9141(8) 0.1416(7) 0.9674(6)
H8 H 0.9688 0.1188 0.9823
C14 C 0.8658(9) 0.3545(7) 0.9705(6)
C15 C 0.8631(8) -0.1441(5) 0.4247(6)
C16 C 0.8463(7) -0.2369(6) 0.4275(5)
C17 C 0.9279(7) -0.2711(6) 0.4547(6)
H9 H 0.9940 -0.2377 0.4692
C18 C 0.9109(7) -0.3552(6) 0.4603(6)
H10 H 0.9652 -0.3786 0.4794
C19 C 0.8105(7) -0.4034(5) 0.4367(5)
C20 C 0.7276(8) -0.3711(7) 0.4089(6)
H11 H 0.6613 -0.4042 0.3942
C21 C 0.7479(8) -0.2873(6) 0.4041(7)
H12 H 0.6935 -0.2641 0.3844
C22 C 0.8304(7) -0.5069(6) 0.5583(5)
C23 C 0.7640(7) -0.5003(6) 0.5941(6)
H13 H 0.6981 -0.4972 0.5607
C24 C 0.7989(8) -0.4983(6) 0.6819(6)
H14 H 0.7556 -0.4943 0.7071
C25 C 0.8966(8) -0.5022(6) 0.7310(6)
C26 C 0.9632(8) -0.5074(7) 0.6960(6)
H15 H 1.0297 -0.5088 0.7298
C27 C 0.9277(8) -0.5105(7) 0.6068(6)
H16 H 0.9708 -0.5150 0.5814
C28 C 0.9332(9) -0.4994(6) 0.8272(6)
C29 C 0.7364(8) 0.1151(6) 0.4476(6)
C30 C 0.6630(7) 0.1568(6) 0.4601(6)
C31 C 0.5652(8) 0.1127(7) 0.4405(8)
H17 H 0.5447 0.0554 0.4233
C32 C 0.4951(9) 0.1519(8) 0.4457(9)
H18 H 0.4279 0.1213 0.4316
C33 C 0.5264(8) 0.2368(7) 0.4721(6)
C34 C 0.6262(9) 0.2812(6) 0.4938(7)
H19 H 0.6477 0.3384 0.5122
C35 C 0.6946(8) 0.2407(6) 0.4884(7)
H20 H 0.7624 0.2707 0.5041
C36 C 0.3899(8) 0.3195(7) 0.3740(7)
C37 C 0.3075(9) 0.2647(8) 0.3057(8)
H21 H 0.2795 0.2116 0.3131
C38 C 0.2655(9) 0.2878(8) 0.2254(7)
H22 H 0.2091 0.2514 0.1801
C39 C 0.3115(8) 0.3681(7) 0.2154(6)
C40 C 0.3953(8) 0.4226(7) 0.2842(7)
H23 H 0.4246 0.4754 0.2772
C41 C 0.4355(8) 0.3980(7) 0.3638(7)
H24 H 0.4921 0.4340 0.4093
C42 C 0.2622(10) 0.3958(8) 0.1337(8)
O19 O 0.7686(6) 0.0018(5) 0.2632(4)
N1 N 0.6358(9) -0.0510(10) 0.1339(7)
C43 C 0.6829(10) -0.0390(12) 0.2271(7)
H26 H 0.6463 -0.0627 0.2564
C44 C 0.5237(11) -0.0975(17) 0.0850(11)
H27 H 0.5119 -0.1528 0.0978
H28 H 0.5043 -0.1003 0.0252
H29 H 0.4834 -0.0690 0.1008
C45 C 0.6919(14) -0.0092(13) 0.0872(10)
H30 H 0.7193 0.0493 0.1097
H31 H 0.6456 -0.0174 0.0280
H32 H 0.7470 -0.0324 0.0935
O20 O 0.9142(7) 0.1613(5) 0.3614(5)
N2 N 0.9700(9) 0.2298(8) 0.2703(6)
C46 C 0.8947(9) 0.1737(8) 0.2913(7)
H33 H 0.8297 0.1472 0.2483
C47 C 0.9418(13) 0.2450(12) 0.1809(7)
H34 H 0.9928 0.2365 0.1637
H35 H 0.9381 0.3011 0.1780
H36 H 0.8762 0.2070 0.1438
C48 C 1.0772(9) 0.2685(11) 0.3364(9)
H37 H 1.0899 0.2399 0.3841
H38 H 1.0863 0.3260 0.3546
H39 H 1.1245 0.2643 0.3130
O21 O 0.7549(8) 0.5146(6) 1.0653(6)
N3 N 0.6340(17) 0.4737(15) 1.1135(13)
C49 C 0.6656(15) 0.482(3) 1.0432(15)
H40 H 0.6193 0.4639 0.9864
C50 C 0.550(4) 0.400(3) 1.106(3)
H41 H 0.5215 0.3662 1.0508
H42 H 0.4969 0.4183 1.1130
H43 H 0.5767 0.3677 1.1490
C51 C 0.686(4) 0.539(3) 1.192(2)
H44 H 0.7401 0.5803 1.1872
H45 H 0.7154 0.5135 1.2404
H46 H 0.6376 0.5640 1.1972
O22 O 0.9351(8) 0.6623(5) 1.1056(6)
N4 N 1.008(3) 0.734(2) 1.2353(13)
C55 C 0.916(2) 0.703(3) 1.1523(16)
H54 H 0.8525 0.7125 1.1389
C56 C 1.001(4) 0.721(4) 1.3163(17)
H55 H 0.9325 0.6886 1.3039
H56 H 1.0170 0.7735 1.3504
H57 H 1.0487 0.6913 1.3468
C57 C 1.109(3) 0.779(4) 1.237(3)
H58 H 1.1018 0.7782 1.1802
H59 H 1.1594 0.7518 1.2676
H60 H 1.1299 0.8355 1.2652
Nd1A Nd 1.12450(4) -0.03455(3) 0.57907(3)
Nd2A Nd 1.12611(4) 0.46511(3) 1.00367(3)
Nd2A_2 Nd 1.12611(4) -0.53489(3) 1.00367(3)
Nd2_2 Nd 0.87389(4) -0.46511(3) 0.99633(3)
Nd2A_3 Nd 0.12611(4) 0.46511(3) 0.00367(3)
O2A O 0.9876(6) 0.0184(6) 0.3573(4)
O6A O 1.0470(6) 0.5982(4) 1.0133(4)
O7A O 1.0470(5) 0.0962(4) 0.5341(4)
O11A O 0.9751(6) 0.5030(5) 1.1341(4)
O12_2 O 0.8712(6) 0.5055(5) 0.8562(4)
O17A O 0.8249(7) 0.6511(5) 0.9215(5)
O18A O 0.6986(6) 0.5343(6) 0.8794(5)
H25? H 0.8001 0.0242 0.2299
C52? C 0.683(3) 0.461(2) 1.058(3)
H47? H 0.6578 0.4130 1.0183
C53? C 0.5229(18) 0.442(4) 1.088(3)
H48? H 0.4922 0.4865 1.0768
H49? H 0.5119 0.4174 1.1331
H50? H 0.4921 0.4001 1.0377
C54? C 0.712(3) 0.500(4) 1.2017(18)
H51? H 0.7658 0.5469 1.2052
H52? H 0.7397 0.4551 1.2211
H53? H 0.6810 0.5155 1.2368
O23? O 0.974(2) 0.6834(14) 1.1755(16)
C58? C 0.966(3) 0.7616(18) 1.208(3)
O24? O 1.063(4) 0.769(3) 1.316(3)
C59? C 1.034(5) 0.716(3) 1.236(3)
C69? C 0.551(3) 0.1540(18) 0.686(4)
H82? H 0.4857 0.1234 0.6785
C70? C 0.704(3) 0.285(3) 0.727(4)
H83? H 0.7191 0.3445 0.7410
H84? H 0.7063 0.2713 0.6743
H85? H 0.7548 0.2665 0.7714
C71? C 0.550(4) 0.293(2) 0.756(3)
H86? H 0.4835 0.2908 0.7122
H87? H 0.5916 0.3504 0.7744
H88? H 0.5427 0.2710 0.8028
loop_
_geom_bond_atom_site_label_1
_geom_bond_atom_site_label_2
_geom_bond_site_symmetry_1
_geom_bond_site_symmetry_2
Nd1 O1 1_555 1_555
Nd2 O5 1_555 1_555
S1 O3 1_555 1_555
S2 O9 1_555 1_555
S3 O15 1_555 1_555
O1 C1 1_555 1_555
O2 C1 1_555 1_555
O4 S1 1_555 1_555
O5 C14 1_555 1_555
O6 Nd2 1_555 1_555
O7 Nd1 1_555 1_555
O8 Nd1 1_555 1_555
O10 S2 1_555 1_555
O11 C28 1_555 1_555
O12 C28 1_555 1_555
O13 Nd1 1_555 1_555
O14 Nd1 1_555 1_555
O16 S3 1_555 1_555
O17 C42 1_555 1_555
O18 C42 1_555 1_555
C1 C2 1_555 1_555
C2 C3 1_555 1_555
C3 H1 1_555 1_555
C4 C3 1_555 1_555
H2 C4 1_555 1_555
C5 S1 1_555 1_555
C6 C5 1_555 1_555
H3 C6 1_555 1_555
C7 C2 1_555 1_555
H4 C7 1_555 1_555
C8 S1 1_555 1_555
C9 C8 1_555 1_555
H5 C9 1_555 1_555
C10 C9 1_555 1_555
H6 C10 1_555 1_555
C11 C10 1_555 1_555
C12 C11 1_555 1_555
H7 C12 1_555 1_555
C13 C8 1_555 1_555
H8 C13 1_555 1_555
C14 O6 1_555 1_555
C15 O7 1_555 1_555
C16 C15 1_555 1_555
C17 C16 1_555 1_555
H9 C17 1_555 1_555
C18 C17 1_555 1_555
H10 C18 1_555 1_555
C19 S2 1_555 1_555
C20 C19 1_555 1_555
H11 C20 1_555 1_555
C21 C16 1_555 1_555
H12 C21 1_555 1_555
C22 S2 1_555 1_555
C23 C22 1_555 1_555
H13 C23 1_555 1_555
C24 C23 1_555 1_555
H14 C24 1_555 1_555
C25 C24 1_555 1_555
C26 C25 1_555 1_555
H15 C26 1_555 1_555
C27 C22 1_555 1_555
H16 C27 1_555 1_555
C28 C25 1_555 1_555
C29 O13 1_555 1_555
C30 C29 1_555 1_555
C31 C30 1_555 1_555
H17 C31 1_555 1_555
C32 C31 1_555 1_555
H18 C32 1_555 1_555
C33 S3 1_555 1_555
C34 C33 1_555 1_555
H19 C34 1_555 1_555
C35 C30 1_555 1_555
H20 C35 1_555 1_555
C36 S3 1_555 1_555
C37 C36 1_555 1_555
H21 C37 1_555 1_555
C38 C37 1_555 1_555
H22 C38 1_555 1_555
C39 C38 1_555 1_555
C40 C39 1_555 1_555
H23 C40 1_555 1_555
C41 C36 1_555 1_555
H24 C41 1_555 1_555
C42 C39 1_555 1_555
O19 Nd1 1_555 1_555
N1 C43 1_555 1_555
C43 O19 1_555 1_555
H26 C43 1_555 1_555
C44 N1 1_555 1_555
H27 C44 1_555 1_555
H28 C44 1_555 1_555
H29 C44 1_555 1_555
C45 N1 1_555 1_555
H30 C45 1_555 1_555
H31 C45 1_555 1_555
H32 C45 1_555 1_555
O20 Nd1 1_555 1_555
N2 C46 1_555 1_555
C46 O20 1_555 1_555
H33 C46 1_555 1_555
C47 N2 1_555 1_555
H34 C47 1_555 1_555
H35 C47 1_555 1_555
H36 C47 1_555 1_555
C48 N2 1_555 1_555
H37 C48 1_555 1_555
H38 C48 1_555 1_555
H39 C48 1_555 1_555
O21 Nd2 1_555 1_555
N3 C49 1_555 1_555
C49 O21 1_555 1_555
H40 C49 1_555 1_555
C50 N3 1_555 1_555
H41 C50 1_555 1_555
H42 C50 1_555 1_555
H43 C50 1_555 1_555
C51 N3 1_555 1_555
H44 C51 1_555 1_555
H45 C51 1_555 1_555
H46 C51 1_555 1_555
O22 Nd2 1_555 1_555
N4 C55 1_555 1_555
C55 O22 1_555 1_555
H54 C55 1_555 1_555
C56 N4 1_555 1_555
H55 C56 1_555 1_555
H56 C56 1_555 1_555
H57 C56 1_555 1_555
C57 N4 1_555 1_555
H58 C57 1_555 1_555
H59 C57 1_555 1_555
H60 C57 1_555 1_555
O25 C60 1_555 1_555
N5 C60 1_555 1_555
C60 H61 1_555 1_555
C61 N5 1_555 1_555
H62 C61 1_555 1_555
H63 C61 1_555 1_555
H64 C61 1_555 1_555
C62 N5 1_555 1_555
H65 C62 1_555 1_555
H66 C62 1_555 1_555
H67 C62 1_555 1_555
O26 C63 1_555 1_555
N6 C63 1_555 1_555
C63 H68 1_555 1_555
C64 N6 1_555 1_555
H69 C64 1_555 1_555
H70 C64 1_555 1_555
H71 C64 1_555 1_555
C65 N6 1_555 1_555
H72 C65 1_555 1_555
H73 C65 1_555 1_555
H74 C65 1_555 1_555
O27 C66 1_555 1_555
N7 C66 1_555 1_555
C66 H75 1_555 1_555
C67 N7 1_555 1_555
H76 C67 1_555 1_555
H77 C67 1_555 1_555
H78 C67 1_555 1_555
C68 N7 1_555 1_555
H79 C68 1_555 1_555
H80 C68 1_555 1_555
H81 C68 1_555 1_555
Nd1A O2 1_555 1_555
Nd2A O6 1_555 1_555
Nd2A_2 O11 1_555 1_555
Nd2_2 O12 1_555 1_555
Nd2A_3 O17 1_555 1_555
O2A Nd1 1_555 1_555
O6A Nd2 1_555 1_555
O7A Nd1 1_555 1_555
O11A Nd2 1_555 1_555
O12_2 Nd2 1_555 1_555
O17A Nd2 1_555 1_555
O18A Nd2 1_555 1_555
O7 Nd1A 1_555 1_555
O8 C15 1_555 1_555
O14 C29 1_555 1_555
O18 Nd2A_3 1_555 1_555
C4 C5 1_555 1_555
C6 C7 1_555 1_555
C11 C14 1_555 1_555
C12 C13 1_555 1_555
C18 C19 1_555 1_555
C20 C21 1_555 1_555
C26 C27 1_555 1_555
C32 C33 1_555 1_555
C34 C35 1_555 1_555
C40 C41 1_555 1_555
Nd1A O7A 1_555 1_555
Nd2A O6A 1_555 1_555

#END
