
#######################################################################
#
#                 Cambridge Crystallographic Data Centre
#                                CCDC 
#
#######################################################################
#
# If this CIF has been generated from an entry in the Cambridge 
# Structural Database, then it will include bibliographic, chemical, 
# crystal, experimental, refinement or atomic coordinate data resulting 
# from the CCDC's data processing and validation procedures.
#
#######################################################################

data_VODQUB
_symmetry_cell_setting           triclinic
_symmetry_space_group_name_H-M   'P -1'
_symmetry_Int_Tables_number      2
_space_group_name_Hall           '-P 1'
loop_
_symmetry_equiv_pos_site_id
_symmetry_equiv_pos_as_xyz
1 x,y,z
2 -x,-y,-z
_cell_length_a                   12.6140(11)
_cell_length_b                   12.7074(11)
_cell_length_c                   17.6356(17)
_cell_angle_alpha                101.4740(10)
_cell_angle_beta                 94.904(2)
_cell_angle_gamma                117.6450(10)
_cell_volume                     2402.06
loop_
_atom_site_label
_atom_site_type_symbol
_atom_site_fract_x
_atom_site_fract_y
_atom_site_fract_z
Er1 Er 0.96430(2) 0.97937(2) 0.377539(14)
Er2 Er 0.90897(2) 0.95947(2) 0.084532(15)
S1 S 0.24432(13) 0.47210(13) 0.47362(9)
S2 S 0.47060(13) 1.25051(14) 0.19538(9)
S3 S 1.47005(14) 0.75365(14) 0.19780(10)
O1 O 0.8025(4) 0.8517(4) 0.4219(3)
O2 O 0.8361(4) 0.9062(4) 0.5538(3)
O3 O 0.1982(4) 0.3797(4) 0.3992(3)
O4 O 0.2299(4) 0.4359(4) 0.5461(3)
O5 O 0.0193(4) 0.8335(4) 0.3953(3)
O6 O 0.0378(4) 0.8779(4) 0.5262(3)
O7 O 0.8186(4) 1.0173(4) 0.3143(3)
O8 O 0.8431(4) 1.0108(4) 0.1907(3)
O9 O 0.3973(4) 1.1894(4) 0.1166(3)
O10 O 0.4112(4) 1.2541(4) 0.2607(3)
O11 O 0.8506(4) 1.7855(4) 0.1276(2)
O12 O 0.9064(4) 1.8434(4) 0.2582(2)
O13 O 1.0829(4) 0.9486(4) 0.1017(3)
O14 O 1.1586(4) 0.9471(4) -0.0081(3)
O15 O 1.5675(4) 0.7742(4) 0.1556(3)
O16 O 1.4979(4) 0.7950(4) 0.2820(3)
O17 O 1.0535(4) 0.1631(4) 0.1551(3)
O18 O 1.0982(4) 0.1448(4) 0.0376(2)
O19 O 1.0816(5) 1.1250(4) 0.3115(3)
H1 H 1.076(9) 1.129(7) 0.2600(17)
H2 H 1.118(8) 1.203(4) 0.346(4)
O20 O 0.6929(4) 0.8282(6) 0.0367(3)
H3 H 0.651(7) 0.821(9) -0.012(3)
H4 H 0.639(6) 0.813(9) 0.072(4)
C1 C 0.7701(5) 0.8425(5) 0.4869(4)
C2 C 0.6405(5) 0.7458(5) 0.4837(4)
C3 C 0.5944(6) 0.7418(6) 0.5526(4)
H5 H 0.6443 0.7966 0.6006
C4 C 0.4736(6) 0.6560(6) 0.5498(4)
H6 H 0.4419 0.6546 0.5956
C5 C 0.4009(5) 0.5727(5) 0.4784(4)
C6 C 0.4482(6) 0.5719(6) 0.4102(4)
H7 H 0.4004 0.5132 0.3629
C7 C 0.5684(6) 0.6606(6) 0.4137(4)
H8 H 0.6001 0.6620 0.3680
C8 C 0.1773(5) 0.5676(5) 0.4701(4)
C9 C 0.1671(6) 0.6317(6) 0.5388(4)
H9 H 0.1909 0.6218 0.5871
C10 C 0.1213(6) 0.7113(6) 0.5361(4)
H10 H 0.1140 0.7545 0.5827
C11 C 0.0865(5) 0.7270(5) 0.4644(4)
C12 C 0.0942(7) 0.6598(7) 0.3953(4)
H11 H 0.0691 0.6687 0.3470
C13 C 0.1391(7) 0.5789(7) 0.3976(4)
H12 H 0.1435 0.5329 0.3510
C14 C 0.0436(5) 0.8193(5) 0.4624(4)
C15 C 0.7983(5) 1.0333(5) 0.2485(4)
C16 C 0.7147(5) 1.0854(5) 0.2361(4)
C17 C 0.6417(6) 1.0917(6) 0.2890(4)
H13 H 0.6436 1.0624 0.3331
C18 C 0.5656(6) 1.1409(6) 0.2773(4)
H14 H 0.5165 1.1444 0.3131
C19 C 0.5640(5) 1.1846(5) 0.2118(4)
C20 C 0.6354(7) 1.1796(7) 0.1588(4)
H15 H 0.6336 1.2095 0.1150
C21 C 0.7108(7) 1.1297(8) 0.1704(4)
H16 H 0.7590 1.1259 0.1340
C22 C 0.5772(5) 1.4027(5) 0.1956(4)
C23 C 0.6617(6) 1.4821(6) 0.2645(4)
H17 H 0.6611 1.4564 0.3103
C24 C 0.7473(6) 1.6005(6) 0.2642(4)
H18 H 0.8043 1.6543 0.3101
C25 C 0.7485(6) 1.6390(5) 0.1964(3)
C26 C 0.6619(7) 1.5598(6) 0.1289(4)
H19 H 0.6610 1.5868 0.0836
C27 C 0.5759(7) 1.4402(6) 0.1274(4)
H20 H 0.5188 1.3867 0.0815
C28 C 0.8423(6) 1.7663(5) 0.1944(4)
C29 C 1.1538(6) 0.9344(6) 0.0607(4)
C30 C 1.2369(6) 0.8954(6) 0.0963(4)
C31 C 1.3187(7) 0.8782(8) 0.0552(4)
H21 H 1.3242 0.8943 0.0061
C32 C 1.3921(7) 0.8375(8) 0.0864(4)
H22 H 1.4466 0.8256 0.0584
C33 C 1.3842(6) 0.8145(6) 0.1597(4)
C34 C 1.3064(7) 0.8361(7) 0.2031(4)
H23 H 1.3033 0.8226 0.2529
C35 C 1.2334(7) 0.8779(7) 0.1718(4)
H24 H 1.1822 0.8943 0.2011
C36 C 1.3655(6) 0.5928(5) 0.1697(4)
C37 C 1.3449(8) 0.5254(7) 0.0942(5)
H25 H 1.3852 0.5627 0.0572
C38 C 1.2626(7) 0.3997(6) 0.0738(4)
H26 H 1.2463 0.3524 0.0223
C39 C 1.2048(5) 0.3446(6) 0.1293(4)
C40 C 1.2279(7) 0.4153(6) 0.2045(4)
H27 H 1.1894 0.3783 0.2421
C41 C 1.3073(7) 0.5404(6) 0.2252(4)
H28 H 1.3211 0.5885 0.2760
C42 C 1.1145(6) 0.2093(6) 0.1061(4)
Er1A Er 1.03570(2) 1.02063(2) 0.622461(14)
Er1_2 Er -0.03570(2) 0.97937(2) 0.377539(14)
Er1A_2 Er 0.03570(2) 1.02063(2) 0.622461(14)
Er1_3 Er 0.96430(2) 1.97937(2) 0.377539(14)
Er2_2 Er 0.90897(2) 1.95947(2) 0.084532(15)
Er2A Er 1.09103(2) 1.04053(2) -0.084532(15)
Er2_3 Er 0.90897(2) -0.04053(2) 0.084532(15)
Er2A_2 Er 1.09103(2) 0.04053(2) -0.084532(15)
O2A O 1.1639(4) 1.0938(4) 0.4462(3)
O5_2 O 1.0193(4) 0.8335(4) 0.3953(3)
O6A O 0.9622(4) 1.1221(4) 0.4738(3)
O11_2 O 0.8506(4) 0.7855(4) 0.1276(2)
O12_2 O 0.9064(4) 0.8434(4) 0.2582(2)
O14A O 0.8414(4) 1.0529(4) 0.0081(3)
O17_2 O 1.0535(4) 1.1631(4) 0.1551(3)
O18_2 O 1.0982(4) 1.1448(4) 0.0376(2)
O18A O 0.9018(4) 0.8552(4) -0.0376(2)
O22 O 0.928(5) 0.445(5) 0.108(3)
O21? O 0.450(3) 0.963(3) 0.479(2)
O23? O 0.976(4) 0.555(5) 0.115(3)
loop_
_geom_bond_atom_site_label_1
_geom_bond_atom_site_label_2
_geom_bond_site_symmetry_1
_geom_bond_site_symmetry_2
Er1 O1 1_555 1_555
Er2 O8 1_555 1_555
S1 O3 1_555 1_555
S2 O9 1_555 1_555
S3 O15 1_555 1_555
O1 C1 1_555 1_555
O2 C1 1_555 1_555
O4 S1 1_555 1_555
O5 C14 1_555 1_555
O6 C14 1_555 1_555
O7 Er1 1_555 1_555
O8 C15 1_555 1_555
O10 S2 1_555 1_555
O11 C28 1_555 1_555
O12 C28 1_555 1_555
O13 Er2 1_555 1_555
O14 C29 1_555 1_555
O16 S3 1_555 1_555
O17 C42 1_555 1_555
O18 C42 1_555 1_555
O19 Er1 1_555 1_555
H1 O19 1_555 1_555
H2 O19 1_555 1_555
O20 Er2 1_555 1_555
H3 O20 1_555 1_555
H4 O20 1_555 1_555
C1 C2 1_555 1_555
C2 C3 1_555 1_555
C3 H5 1_555 1_555
C4 C3 1_555 1_555
H6 C4 1_555 1_555
C5 S1 1_555 1_555
C6 C5 1_555 1_555
H7 C6 1_555 1_555
C7 C2 1_555 1_555
H8 C7 1_555 1_555
C8 S1 1_555 1_555
C9 C8 1_555 1_555
H9 C9 1_555 1_555
C10 C9 1_555 1_555
H10 C10 1_555 1_555
C11 C10 1_555 1_555
C12 C11 1_555 1_555
H11 C12 1_555 1_555
C13 C8 1_555 1_555
H12 C13 1_555 1_555
C14 C11 1_555 1_555
C15 O7 1_555 1_555
C16 C15 1_555 1_555
C17 C16 1_555 1_555
H13 C17 1_555 1_555
C18 C17 1_555 1_555
H14 C18 1_555 1_555
C19 S2 1_555 1_555
C20 C19 1_555 1_555
H15 C20 1_555 1_555
C21 C16 1_555 1_555
H16 C21 1_555 1_555
C22 S2 1_555 1_555
C23 C22 1_555 1_555
H17 C23 1_555 1_555
C24 C23 1_555 1_555
H18 C24 1_555 1_555
C25 C24 1_555 1_555
C26 C25 1_555 1_555
H19 C26 1_555 1_555
C27 C22 1_555 1_555
H20 C27 1_555 1_555
C28 C25 1_555 1_555
C29 O13 1_555 1_555
C30 C29 1_555 1_555
C31 C30 1_555 1_555
H21 C31 1_555 1_555
C32 C31 1_555 1_555
H22 C32 1_555 1_555
C33 S3 1_555 1_555
C34 C33 1_555 1_555
H23 C34 1_555 1_555
C35 C30 1_555 1_555
H24 C35 1_555 1_555
C36 S3 1_555 1_555
C37 C36 1_555 1_555
H25 C37 1_555 1_555
C38 C37 1_555 1_555
H26 C38 1_555 1_555
C39 C38 1_555 1_555
C40 C39 1_555 1_555
H27 C40 1_555 1_555
C41 C36 1_555 1_555
H28 C41 1_555 1_555
C42 C39 1_555 1_555
Er1A O2 1_555 1_555
Er1_2 O5 1_555 1_555
Er1A_2 O6 1_555 1_555
Er1_3 O12 1_555 1_555
Er2_2 O11 1_555 1_555
Er2A O14 1_555 1_555
Er2_3 O17 1_555 1_555
Er2A_2 O18 1_555 1_555
O2A Er1 1_555 1_555
O5_2 Er1 1_555 1_555
O6A Er1 1_555 1_555
O11_2 Er2 1_555 1_555
O12_2 Er1 1_555 1_555
O14A Er2 1_555 1_555
O17_2 Er2 1_555 1_555
O18_2 Er2 1_555 1_555
O18A Er2 1_555 1_555
O18 Er2_3 1_555 1_555
C4 C5 1_555 1_555
C6 C7 1_555 1_555
C12 C13 1_555 1_555
C18 C19 1_555 1_555
C20 C21 1_555 1_555
C26 C27 1_555 1_555
C32 C33 1_555 1_555
C34 C35 1_555 1_555
C40 C41 1_555 1_555
Er2A O18_2 1_555 1_555
Er2A O18A 1_555 1_555

#END
