
#######################################################################
#
#                 Cambridge Crystallographic Data Centre
#                                CCDC 
#
#######################################################################
#
# If this CIF has been generated from an entry in the Cambridge 
# Structural Database, then it will include bibliographic, chemical, 
# crystal, experimental, refinement or atomic coordinate data resulting 
# from the CCDC's data processing and validation procedures.
#
#######################################################################

data_VODRUC
_symmetry_cell_setting           monoclinic
_symmetry_space_group_name_H-M   'P 21/c'
_symmetry_Int_Tables_number      14
_space_group_name_Hall           '-P 2ybc'
loop_
_symmetry_equiv_pos_site_id
_symmetry_equiv_pos_as_xyz
1 x,y,z
2 -x,1/2+y,1/2-z
3 -x,-y,-z
4 x,1/2-y,1/2+z
_cell_length_a                   9.2841(19)
_cell_length_b                   7.5723(16)
_cell_length_c                   20.124(4)
_cell_angle_alpha                90
_cell_angle_beta                 101.043(4)
_cell_angle_gamma                90
_cell_volume                     1388.56
loop_
_atom_site_label
_atom_site_type_symbol
_atom_site_fract_x
_atom_site_fract_y
_atom_site_fract_z
C1 C 0.1247(5) 0.2165(6) 0.1887(2)
C2 C 0.1342(5) 0.0907(6) 0.1377(2)
C3 C 0.0033(5) 0.0501(6) 0.0924(2)
H1 H 0.0063 -0.0290 0.0574
C4 C -0.1282(5) 0.1235(6) 0.0984(2)
H2 H -0.2127 0.0939 0.0675
C5 C -0.1367(4) 0.2424(6) 0.1504(2)
C6 C -0.0122(4) 0.2881(6) 0.1946(2)
H3 H -0.0178 0.3676 0.2292
C7 C 0.2542(5) 0.2935(6) 0.2328(2)
C8 C 0.8560(5) 0.1406(6) 0.3593(2)
H4 H 0.8766 0.1960 0.3209
C9 C 0.9680(5) 0.1024(6) 0.4126(2)
H5 H 1.0638 0.1322 0.4098
C10 C 0.9407(5) 0.0202(6) 0.4705(2)
C11 C 0.7955(5) -0.0222(7) 0.4701(3)
H6 H 0.7714 -0.0778 0.5077
C12 C 0.6868(5) 0.0149(7) 0.4163(3)
H7 H 0.5907 -0.0181 0.4171
N1 N 0.7173(4) 0.0984(5) 0.36220(19)
O1 O 0.2442(3) 0.4111(5) 0.27415(17)
O2 O 0.3833(3) 0.2456(4) 0.22420(15)
O3 O 0.2566(3) 0.0109(4) 0.13077(16)
O4 O -0.3008(3) 0.4023(4) 0.22286(16)
O5 O -0.4154(3) 0.1953(4) 0.13744(15)
O6 O -0.3329(4) 0.4769(4) 0.10432(17)
O7 O 0.6066(3) 0.1414(4) 0.31114(15)
O8 O 0.4587(4) 0.3225(4) 0.39757(16)
H8 H 0.4130 0.3952 0.4182
H9 H 0.4044 0.2335 0.3851
S1 S -0.30698(11) 0.33756(15) 0.15429(6)
Sm1 Sm 0.51917(2) 0.46732(3) 0.297119(11)
C1A C 0.8753(5) 0.7165(6) 0.3113(2)
C2A C 0.8658(5) 0.5907(6) 0.3623(2)
C3A C 0.9967(5) 0.5501(6) 0.4076(2)
H1A H 0.9937 0.4710 0.4426
C4A C 1.1282(5) 0.6235(6) 0.4016(2)
H2A H 1.2127 0.5939 0.4325
C5A C 1.1367(4) 0.7424(6) 0.3496(2)
C6A C 1.0122(4) 0.7881(6) 0.3054(2)
H3A H 1.0178 0.8676 0.2708
C7A C 0.7458(5) 0.7935(6) 0.2672(2)
C8B C 1.1440(5) -0.1406(6) 0.6407(2)
H4B H 1.1234 -0.1960 0.6791
C9B C 1.0320(5) -0.1024(6) 0.5874(2)
H5B H 0.9362 -0.1322 0.5902
C10B C 1.0593(5) -0.0202(6) 0.5295(2)
C11B C 1.2045(5) 0.0222(7) 0.5299(3)
H6B H 1.2286 0.0778 0.4923
C12B C 1.3132(5) -0.0149(7) 0.5837(3)
H7B H 1.4093 0.0181 0.5829
N1B N 1.2827(4) -0.0984(5) 0.63780(19)
O1A O 0.7558(3) 0.9111(5) 0.22585(17)
O2A O 0.6167(3) 0.7456(4) 0.27580(15)
O2_2 O 0.3833(3) 1.2456(4) 0.22420(15)
O3A O 0.7434(3) 0.5109(4) 0.36923(16)
O3_2 O 0.2566(3) 1.0109(4) 0.13077(16)
O4A O 1.3008(3) 0.9023(4) 0.27714(16)
O4_2 O 0.6992(3) 0.4023(4) 0.22286(16)
O4A_2 O 0.3008(3) 0.9023(4) 0.27714(16)
O5A O 1.4154(3) 0.6953(4) 0.36256(15)
O5A_2 O 0.4154(3) 0.6953(4) 0.36256(15)
O5_2 O 0.5846(3) 1.1953(4) 0.13744(15)
O6A O 1.3329(4) 0.9769(4) 0.39568(17)
O7B O 1.3934(3) -0.1414(4) 0.68886(15)
O7A O 0.3934(3) 0.6414(4) 0.18886(15)
O7_2 O 0.6066(3) 1.1414(4) 0.31114(15)
O8A O 0.5413(4) 0.8225(4) 0.10243(16)
H8A H 0.5870 0.8952 0.0818
H9A H 0.5956 0.7335 0.1149
S1A S 1.30698(11) 0.83756(15) 0.34571(6)
Sm1A Sm 0.48083(2) 0.96732(3) 0.202881(11)
Sm1A_2 Sm 0.48083(2) -0.03268(3) 0.202881(11)
Sm1_2 Sm -0.48083(2) 0.46732(3) 0.297119(11)
Sm1A_3 Sm -0.51917(2) -0.03268(3) 0.202881(11)
Sm1C Sm 1.51917(2) 0.03268(3) 0.797119(11)
Sm1B Sm 1.48083(2) -0.46732(3) 0.702881(11)
Sm1A_4 Sm 1.48083(2) 0.96732(3) 0.202881(11)
Sm1_3 Sm 1.51917(2) 0.46732(3) 0.297119(11)
O9 O 0.3660(4) 0.3878(6) 0.5159(2)
H10 H 0.3325 0.4193 0.5506
H11 H 0.4181 0.2955 0.5251
loop_
_geom_bond_atom_site_label_1
_geom_bond_atom_site_label_2
_geom_bond_site_symmetry_1
_geom_bond_site_symmetry_2
C1 C2 1_555 1_555
C2 C3 1_555 1_555
C3 H1 1_555 1_555
C4 C3 1_555 1_555
H2 C4 1_555 1_555
C5 C4 1_555 1_555
C6 C1 1_555 1_555
H3 C6 1_555 1_555
C7 C1 1_555 1_555
C8 H4 1_555 1_555
C9 C8 1_555 1_555
H5 C9 1_555 1_555
C10 C9 1_555 1_555
C11 C10 1_555 1_555
H6 C11 1_555 1_555
C12 C11 1_555 1_555
H7 C12 1_555 1_555
N1 C8 1_555 1_555
O1 C7 1_555 1_555
O2 C7 1_555 1_555
O3 C2 1_555 1_555
O4 S1 1_555 1_555
O5 S1 1_555 1_555
O6 S1 1_555 1_555
O7 N1 1_555 1_555
O8 H8 1_555 1_555
H9 O8 1_555 1_555
O9 H10 1_555 1_555
H11 O9 1_555 1_555
S1 C5 1_555 1_555
Sm1 O1 1_555 1_555
C1A C2A 1_555 1_555
C2A C3A 1_555 1_555
C3A H1A 1_555 1_555
C4A C3A 1_555 1_555
H2A C4A 1_555 1_555
C5A C4A 1_555 1_555
C6A C1A 1_555 1_555
H3A C6A 1_555 1_555
C7A C1A 1_555 1_555
C8B H4B 1_555 1_555
C9B C8B 1_555 1_555
H5B C9B 1_555 1_555
C10B C10 1_555 1_555
C11B C10B 1_555 1_555
H6B C11B 1_555 1_555
C12B C11B 1_555 1_555
H7B C12B 1_555 1_555
N1B C8B 1_555 1_555
O1A C7A 1_555 1_555
O2A Sm1 1_555 1_555
O2_2 Sm1A 1_555 1_555
O3A Sm1 1_555 1_555
O3_2 Sm1A 1_555 1_555
O4A S1A 1_555 1_555
O4_2 Sm1 1_555 1_555
O4A_2 Sm1A 1_555 1_555
O5A S1A 1_555 1_555
O5A_2 Sm1 1_555 1_555
O5_2 Sm1A 1_555 1_555
O6A S1A 1_555 1_555
O7B N1B 1_555 1_555
O7A Sm1 1_555 1_555
O7_2 Sm1A 1_555 1_555
O8A H8A 1_555 1_555
H9A O8A 1_555 1_555
S1A C5A 1_555 1_555
Sm1A O1A 1_555 1_555
Sm1A_2 O2 1_555 1_555
Sm1_2 O4 1_555 1_555
Sm1A_3 O5 1_555 1_555
Sm1C O7B 1_555 1_555
Sm1B O7B 1_555 1_555
Sm1A_4 O4A 1_555 1_555
Sm1_3 O5A 1_555 1_555
C5 C6 1_555 1_555
C12 N1 1_555 1_555
O2 Sm1 1_555 1_555
O3 Sm1A_2 1_555 1_555
O7 Sm1 1_555 1_555
O7 Sm1A_2 1_555 1_555
O8 Sm1 1_555 1_555
C2A O3A 1_555 1_555
C5A C6A 1_555 1_555
C7A O2A 1_555 1_555
C9B C10B 1_555 1_555
C12B N1B 1_555 1_555
O2A Sm1A 1_555 1_555
O7A Sm1A 1_555 1_555
O8A Sm1A 1_555 1_555

#END
