
#######################################################################
#
#                 Cambridge Crystallographic Data Centre
#                                CCDC 
#
#######################################################################
#
# If this CIF has been generated from an entry in the Cambridge 
# Structural Database, then it will include bibliographic, chemical, 
# crystal, experimental, refinement or atomic coordinate data resulting 
# from the CCDC's data processing and validation procedures.
#
#######################################################################

data_VODROW
_symmetry_cell_setting           monoclinic
_symmetry_space_group_name_H-M   'P 21/c'
_symmetry_Int_Tables_number      14
_space_group_name_Hall           '-P 2ybc'
loop_
_symmetry_equiv_pos_site_id
_symmetry_equiv_pos_as_xyz
1 x,y,z
2 -x,1/2+y,1/2-z
3 -x,-y,-z
4 x,1/2-y,1/2+z
_cell_length_a                   9.2984(15)
_cell_length_b                   7.6038(12)
_cell_length_c                   20.115(3)
_cell_angle_alpha                90
_cell_angle_beta                 101.336(4)
_cell_angle_gamma                90
_cell_volume                     1394.45
loop_
_atom_site_label
_atom_site_type_symbol
_atom_site_fract_x
_atom_site_fract_y
_atom_site_fract_z
C1 C -0.3774(8) 0.7183(10) 0.1883(4)
C2 C -0.3689(8) 0.5945(11) 0.1375(4)
C3 C -0.4988(8) 0.5528(11) 0.0923(4)
H1 H -0.4956 0.4732 0.0575
C4 C -0.6297(8) 0.6251(10) 0.0977(4)
H2 H -0.7143 0.5953 0.0668
C5 C -0.6370(8) 0.7445(10) 0.1499(4)
C6 C -0.5134(8) 0.7903(10) 0.1936(4)
H3 H -0.5185 0.8711 0.2278
C7 C -0.2469(9) 0.7949(10) 0.2315(4)
C8 C 0.3546(8) 0.6416(10) 0.3600(4)
H4 H 0.3747 0.6967 0.3215
C9 C 0.4682(8) 0.6045(11) 0.4130(4)
H5 H 0.5637 0.6351 0.4102
C10 C 0.4407(8) 0.5213(10) 0.4708(4)
C11 C 0.2954(9) 0.4792(11) 0.4699(4)
H6 H 0.2713 0.4234 0.5074
C12 C 0.1882(9) 0.5166(11) 0.4166(4)
H7 H 0.0922 0.4835 0.4174
N1 N 0.2178(7) 0.6009(8) 0.3623(3)
Nd1 Nd 0.01911(4) 0.96949(5) 0.29741(2)
O1 O -0.2570(6) 0.9129(8) 0.2728(3)
O2 O -0.1190(5) 0.7482(6) 0.2237(3)
O3 O -0.2463(5) 0.5124(7) 0.1298(3)
O4 O -0.8011(6) 0.9042(7) 0.2221(3)
O5 O -0.8331(6) 0.9797(7) 0.1040(3)
O6 O -0.9152(5) 0.6985(7) 0.1364(3)
O7 O 0.1079(5) 0.6435(7) 0.3113(3)
O8 O -0.0439(6) 0.8214(7) 0.3986(3)
H8 H -0.0908 0.8934 0.4187
H9 H -0.0979 0.7331 0.3852
S1 S -0.8067(2) 0.8402(3) 0.15378(11)
C1A C 0.3774(8) 1.2183(10) 0.3117(4)
C2A C 0.3689(8) 1.0945(11) 0.3625(4)
C3A C 0.4988(8) 1.0528(11) 0.4077(4)
H1A H 0.4956 0.9732 0.4425
C4A C 0.6297(8) 1.1251(10) 0.4023(4)
H2A H 0.7143 1.0953 0.4332
C5A C 0.6370(8) 1.2445(10) 0.3501(4)
C6A C 0.5134(8) 1.2903(10) 0.3064(4)
H3A H 0.5185 1.3711 0.2722
C7A C 0.2469(9) 1.2949(10) 0.2685(4)
C8B C 0.6454(8) 0.3584(10) 0.6400(4)
H4B H 0.6253 0.3033 0.6785
C9B C 0.5318(8) 0.3955(11) 0.5870(4)
H5B H 0.4363 0.3649 0.5898
C10B C 0.5593(8) 0.4787(10) 0.5292(4)
C11B C 0.7046(9) 0.5208(11) 0.5301(4)
H6B H 0.7287 0.5766 0.4926
C12B C 0.8118(9) 0.4834(11) 0.5834(4)
H7B H 0.9078 0.5165 0.5826
N1B N 0.7822(7) 0.3991(8) 0.6377(3)
Nd1A Nd -0.01911(4) 1.46949(5) 0.20259(2)
Nd1A_2 Nd -0.01911(4) 0.46949(5) 0.20259(2)
Nd1_2 Nd -0.98089(4) 0.96949(5) 0.29741(2)
Nd1A_3 Nd -1.01911(4) 0.46949(5) 0.20259(2)
Nd1C Nd 1.01911(4) 0.53051(5) 0.79741(2)
Nd1B Nd 0.98089(4) 0.03051(5) 0.70259(2)
Nd1A_4 Nd 0.98089(4) 1.46949(5) 0.20259(2)
Nd1_3 Nd 1.01911(4) 0.96949(5) 0.29741(2)
O1A O 0.2570(6) 1.4129(8) 0.2272(3)
O2A O 0.1190(5) 1.2482(6) 0.2763(3)
O2_2 O -0.1190(5) 1.7482(6) 0.2237(3)
O3A O 0.2463(5) 1.0124(7) 0.3702(3)
O3_2 O -0.2463(5) 1.5124(7) 0.1298(3)
O4A O 0.8011(6) 1.4042(7) 0.2779(3)
O4_2 O 0.1989(6) 0.9042(7) 0.2221(3)
O4A_2 O -0.1989(6) 1.4042(7) 0.2779(3)
O5A O 0.8331(6) 1.4797(7) 0.3960(3)
O6A O 0.9152(5) 1.1985(7) 0.3636(3)
O6A_2 O -0.0848(5) 1.1985(7) 0.3636(3)
O6_2 O 0.0848(5) 1.6985(7) 0.1364(3)
O7B O 0.8921(5) 0.3565(7) 0.6887(3)
O7A O -0.1079(5) 1.1435(7) 0.1887(3)
O7_2 O 0.1079(5) 1.6435(7) 0.3113(3)
O8A O 0.0439(6) 1.3214(7) 0.1014(3)
H8A H 0.0908 1.3934 0.0813
H9A H 0.0979 1.2331 0.1148
S1A S 0.8067(2) 1.3402(3) 0.34622(11)
O9 O 0.8672(7) 0.6164(10) 0.0157(4)
H10 H 0.9350 0.6396 0.0495
H11 H 0.7862 0.6098 0.0290
loop_
_geom_bond_atom_site_label_1
_geom_bond_atom_site_label_2
_geom_bond_site_symmetry_1
_geom_bond_site_symmetry_2
C1 C2 1_555 1_555
C2 C3 1_555 1_555
C3 H1 1_555 1_555
C4 C3 1_555 1_555
H2 C4 1_555 1_555
C5 C4 1_555 1_555
C6 C1 1_555 1_555
H3 C6 1_555 1_555
C7 C1 1_555 1_555
C8 H4 1_555 1_555
C9 C8 1_555 1_555
H5 C9 1_555 1_555
C10 C9 1_555 1_555
C11 C10 1_555 1_555
H6 C11 1_555 1_555
C12 C11 1_555 1_555
H7 C12 1_555 1_555
N1 C8 1_555 1_555
Nd1 O1 1_555 1_555
O1 C7 1_555 1_555
O2 C7 1_555 1_555
O3 C2 1_555 1_555
O4 S1 1_555 1_555
O5 S1 1_555 1_555
O6 S1 1_555 1_555
O7 N1 1_555 1_555
O8 Nd1 1_555 1_555
H8 O8 1_555 1_555
H9 O8 1_555 1_555
O9 H10 1_555 1_555
H11 O9 1_555 1_555
S1 C5 1_555 1_555
C1A C2A 1_555 1_555
C2A C3A 1_555 1_555
C3A H1A 1_555 1_555
C4A C3A 1_555 1_555
H2A C4A 1_555 1_555
C5A C4A 1_555 1_555
C6A C1A 1_555 1_555
H3A C6A 1_555 1_555
C7A C1A 1_555 1_555
C8B H4B 1_555 1_555
C9B C8B 1_555 1_555
H5B C9B 1_555 1_555
C10B C10 1_555 1_555
C11B C10B 1_555 1_555
H6B C11B 1_555 1_555
C12B C11B 1_555 1_555
H7B C12B 1_555 1_555
N1B C8B 1_555 1_555
Nd1A O1A 1_555 1_555
Nd1A_2 O2 1_555 1_555
Nd1_2 O4 1_555 1_555
Nd1A_3 O6 1_555 1_555
Nd1C O7B 1_555 1_555
Nd1B O7B 1_555 1_555
Nd1A_4 O4A 1_555 1_555
Nd1_3 O6A 1_555 1_555
O1A C7A 1_555 1_555
O2A Nd1 1_555 1_555
O2_2 Nd1A 1_555 1_555
O3A Nd1 1_555 1_555
O3_2 Nd1A 1_555 1_555
O4A S1A 1_555 1_555
O4_2 Nd1 1_555 1_555
O4A_2 Nd1A 1_555 1_555
O5A S1A 1_555 1_555
O6A S1A 1_555 1_555
O6A_2 Nd1 1_555 1_555
O6_2 Nd1A 1_555 1_555
O7B N1B 1_555 1_555
O7A Nd1 1_555 1_555
O7_2 Nd1A 1_555 1_555
O8A Nd1A 1_555 1_555
H8A O8A 1_555 1_555
H9A O8A 1_555 1_555
S1A C5A 1_555 1_555
C5 C6 1_555 1_555
C12 N1 1_555 1_555
Nd1 O2 1_555 1_555
Nd1 O7 1_555 1_555
O3 Nd1A_2 1_555 1_555
O7 Nd1A_2 1_555 1_555
C2A O3A 1_555 1_555
C5A C6A 1_555 1_555
C7A O2A 1_555 1_555
C9B C10B 1_555 1_555
C12B N1B 1_555 1_555
Nd1A O2A 1_555 1_555
Nd1A O7A 1_555 1_555

#END
