
#######################################################################
#
#                 Cambridge Crystallographic Data Centre
#                                CCDC 
#
#######################################################################
#
# If this CIF has been generated from an entry in the Cambridge 
# Structural Database, then it will include bibliographic, chemical, 
# crystal, experimental, refinement or atomic coordinate data resulting 
# from the CCDC's data processing and validation procedures.
#
#######################################################################

data_VODSUC
_symmetry_cell_setting           monoclinic
_symmetry_space_group_name_H-M   'P 21/c'
_symmetry_Int_Tables_number      14
_space_group_name_Hall           '-P 2ybc'
loop_
_symmetry_equiv_pos_site_id
_symmetry_equiv_pos_as_xyz
1 x,y,z
2 x,1/2-y,1/2+z
3 -x,-y,-z
4 -x,1/2+y,1/2-z
_cell_length_a                   11.176(2)
_cell_length_b                   9.6880(10)
_cell_length_c                   37.842(6)
_cell_angle_alpha                90
_cell_angle_beta                 90.060(10)
_cell_angle_gamma                90
_cell_volume                     4097.27
loop_
_atom_site_label
_atom_site_type_symbol
_atom_site_fract_x
_atom_site_fract_y
_atom_site_fract_z
Mn1 Mn 0.94885(9) 0.81895(9) 0.09624(3)
N1 N 0.8966(4) 0.7757(6) 0.03935(14)
N2 N 0.8784(4) 1.0209(5) 0.07005(15)
O1 O 1.1277(3) 0.8802(4) 0.07758(11)
O2 O 0.7826(3) 0.7549(4) 0.12035(12)
C1 C 0.9019(6) 0.6484(6) 0.02481(19)
H1 H 0.9235 0.5741 0.0390
C2 C 0.8763(6) 0.6247(7) -0.0103(2)
H2 H 0.8790 0.5352 -0.0192
C3 C 0.8469(6) 0.7319(8) -0.03229(18)
H3 H 0.8315 0.7179 -0.0562
C4 C 0.8411(5) 0.8625(7) -0.01723(19)
H4 H 0.8187 0.9380 -0.0309
C5 C 0.8682(5) 0.8797(7) 0.01729(19)
C6 C 0.8596(5) 1.0181(6) 0.03564(18)
C7 C 0.8350(6) 1.1384(6) 0.01619(19)
H5 H 0.8261 1.1355 -0.0082
C8 C 0.8244(6) 1.2604(7) 0.0345(2)
H6 H 0.8039 1.3409 0.0226
C9 C 0.8435(6) 1.2639(7) 0.0697(2)
H7 H 0.8389 1.3468 0.0820
C10 C 0.8707(6) 1.1403(7) 0.08744(19)
H8 H 0.8835 1.1418 0.1117
O7 O 0.9830(4) 0.9326(4) 0.14435(12)
O8 O 1.1591(4) 1.0268(5) 0.13514(14)
C11 C 1.0669(7) 1.0059(7) 0.1541(2)
C12 C 1.0571(6) 1.0843(7) 0.18794(18)
H9 H 0.9888 1.1460 0.1867
H10 H 1.1284 1.1401 0.1912
C13 C 1.0429(6) 0.9892(6) 0.21877(18)
H11 H 1.1136 0.9317 0.2208
H12 H 0.9748 0.9292 0.2147
C14 C 1.0243(6) 1.0684(7) 0.25360(19)
H13 H 1.0887 1.1347 0.2563
H14 H 0.9499 1.1196 0.2521
C15 C 1.0205(7) 0.9774(7) 0.2862(2)
H15 H 0.9626 0.9044 0.2822
H16 H 1.0982 0.9341 0.2890
C16 C 0.9893(7) 1.0485(7) 0.31996(18)
H17 H 0.9123 1.0935 0.3172
H18 H 1.0484 1.1196 0.3246
C17 C 0.9836(7) 0.9536(7) 0.35126(18)
H19 H 0.9356 0.8736 0.3451
H20 H 1.0637 0.9215 0.3567
C18 C 0.9330(7) 1.0183(7) 0.3825(2)
O9 O 0.9904(4) 1.1141(4) 0.39852(13)
O10 O 0.8385(5) 0.9767(5) 0.39576(14)
H41 H 1.1582 0.9342 0.0986
H42 H 1.1779 0.8191 0.0655
H43 H 0.7682 0.6733 0.1238
H44 H 0.7201 0.7991 0.1213
O9C O 1.0096(4) 0.6141(4) 0.10148(13)
Mn1C Mn 1.05115(9) 1.31895(9) 0.40376(3)
Mn2 Mn 0.46146(9) 0.27338(10) 0.15684(3)
N3 N 0.3986(5) 0.2154(6) 0.21131(15)
N4 N 0.3951(5) 0.4730(5) 0.18478(18)
O3 O 0.2878(4) 0.2615(4) 0.13215(12)
O4 O 0.6504(4) 0.3027(4) 0.18163(12)
C19 C 0.4026(6) 0.0895(7) 0.2244(2)
H21 H 0.4269 0.0180 0.2097
C20 C 0.3735(6) 0.0590(9) 0.2579(3)
H22 H 0.3769 -0.0321 0.2655
C21 C 0.3383(7) 0.1621(11) 0.2812(2)
H23 H 0.3207 0.1428 0.3047
C22 C 0.3306(6) 0.2947(9) 0.2679(2)
H24 H 0.3042 0.3666 0.2822
C23 C 0.3624(6) 0.3195(8) 0.2335(2)
C24 C 0.3578(6) 0.4573(8) 0.2173(2)
C25 C 0.3142(6) 0.5733(8) 0.2368(2)
H25 H 0.2889 0.5652 0.2601
C26 C 0.3119(7) 0.6972(9) 0.2193(3)
H26 H 0.2819 0.7748 0.2307
C27 C 0.3516(7) 0.7088(8) 0.1863(3)
H27 H 0.3516 0.7952 0.1757
C28 C 0.3926(6) 0.5978(7) 0.1676(2)
H28 H 0.4176 0.6064 0.1443
O11 O 0.5051(4) 0.0669(5) 0.14507(14)
O12 O 0.5720(6) -0.1157(6) 0.12033(17)
C29 C 0.5192(7) -0.0078(7) 0.1170(2)
C30 C 0.4717(7) 0.0414(8) 0.0833(2)
H29 H 0.4863 0.1400 0.0820
H30 H 0.3856 0.0284 0.0836
C31 C 0.5182(7) -0.0220(8) 0.05085(19)
H31 H 0.6047 -0.0133 0.0514
H32 H 0.5001 -0.1198 0.0519
C32 C 0.4777(8) 0.0282(9) 0.0170(2)
H33 H 0.4937 0.1266 0.0166
H34 H 0.3913 0.0178 0.0167
O13 O 0.5280(4) 0.3858(5) 0.11559(14)
O14 O 0.6944(4) 0.4938(4) 0.13116(14)
C33 C 0.6117(7) 0.4685(7) 0.1100(2)
C34 C 0.6100(6) 0.5494(7) 0.07532(19)
H35 H 0.5749 0.6396 0.0793
H36 H 0.6913 0.5627 0.0671
C35 C 0.5390(7) 0.4740(9) 0.0475(2)
H37 H 0.5746 0.3838 0.0438
H38 H 0.4582 0.4599 0.0561
C36 C 0.5333(7) 0.5440(11) 0.0146(2)
H39 H 0.6138 0.5643 0.0066
H40 H 0.4917 0.6309 0.0178
H45 H 0.2634 0.1879 0.1358
H46 H 0.2419 0.3173 0.1108
H47 H 0.6733 0.3565 0.1663
H48 H 0.7081 0.2200 0.1797
C32B C 0.5223(8) -0.0282(9) -0.0170(2)
C31B C 0.4818(7) 0.0220(8) -0.05085(19)
C30B C 0.5283(7) -0.0414(8) -0.0833(2)
C29B C 0.4808(7) 0.0078(7) -0.1170(2)
O11B O 0.4949(4) -0.0669(5) -0.14507(14)
O12B O 0.4280(6) 0.1157(6) -0.12033(17)
H29B H 0.5137 -0.1400 -0.0820
H30B H 0.6144 -0.0284 -0.0836
H31B H 0.3953 0.0133 -0.0514
H32B H 0.4999 0.1198 -0.0519
H33B H 0.5063 -0.1266 -0.0166
H34B H 0.6087 -0.0178 -0.0167
C36B C 0.4667(7) 0.4560(11) -0.0146(2)
C35B C 0.4610(7) 0.5260(9) -0.0475(2)
C34B C 0.3900(6) 0.4506(7) -0.07532(19)
C33B C 0.3883(7) 0.5315(7) -0.1100(2)
O13B O 0.4720(4) 0.6142(5) -0.11559(14)
O14B O 0.3056(4) 0.5062(4) -0.13116(14)
H35B H 0.4251 0.3604 -0.0793
H36B H 0.3087 0.4373 -0.0671
H37B H 0.4254 0.6162 -0.0438
H38B H 0.5418 0.5401 -0.0561
H39B H 0.3862 0.4357 -0.0066
H40B H 0.5083 0.3691 -0.0178
Mn2B Mn 0.53854(9) -0.27338(10) -0.15684(3)
N3B N 0.6014(5) -0.2154(6) -0.21131(15)
N4B N 0.6049(5) -0.4730(5) -0.18478(18)
C19B C 0.5974(6) -0.0895(7) -0.2244(2)
H21B H 0.5731 -0.0180 -0.2097
C20B C 0.6265(6) -0.0590(9) -0.2579(3)
H22B H 0.6231 0.0321 -0.2655
C21B C 0.6617(7) -0.1621(11) -0.2812(2)
H23B H 0.6793 -0.1428 -0.3047
C22B C 0.6694(6) -0.2947(9) -0.2679(2)
H24B H 0.6958 -0.3666 -0.2822
C23B C 0.6376(6) -0.3195(8) -0.2335(2)
C24B C 0.6422(6) -0.4573(8) -0.2173(2)
C25B C 0.6858(6) -0.5733(8) -0.2368(2)
H25B H 0.7111 -0.5652 -0.2601
C26B C 0.6881(7) -0.6972(9) -0.2193(3)
H26B H 0.7181 -0.7748 -0.2307
C27B C 0.6484(7) -0.7088(8) -0.1863(3)
H27B H 0.6484 -0.7952 -0.1757
C28B C 0.6074(6) -0.5978(7) -0.1676(2)
H28B H 0.5824 -0.6064 -0.1443
O3B O 0.7122(4) -0.2615(4) -0.13215(12)
H45B H 0.7366 -0.1879 -0.1358
H46B H 0.7581 -0.3173 -0.1108
O4B O 0.3496(4) -0.3027(4) -0.18163(12)
H47B H 0.3267 -0.3565 -0.1663
H48B H 0.2919 -0.2200 -0.1797
Mn2B_2 Mn 0.53854(9) 0.72662(10) -0.15684(3)
O13B_2 O 0.4720(4) -0.3858(5) -0.11559(14)
O5 O 0.7559(4) 0.0347(5) 0.17335(13)
H49 H 0.8005 -0.0037 0.1609
H50 H 0.6835 0.0446 0.1648
O6 O 0.7321(6) 1.1619(6) 0.4373(2)
H51 H 0.7779 1.0960 0.4267
H52 H 0.6709 1.0906 0.4491
loop_
_geom_bond_atom_site_label_1
_geom_bond_atom_site_label_2
_geom_bond_site_symmetry_1
_geom_bond_site_symmetry_2
Mn1 N1 1_555 1_555
Mn2 N3 1_555 1_555
N1 C1 1_555 1_555
N2 Mn1 1_555 1_555
N3 C19 1_555 1_555
N4 Mn2 1_555 1_555
O1 Mn1 1_555 1_555
O2 Mn1 1_555 1_555
O3 Mn2 1_555 1_555
O4 Mn2 1_555 1_555
O5 H49 1_555 1_555
O6 H51 1_555 1_555
C1 H1 1_555 1_555
C2 C1 1_555 1_555
H2 C2 1_555 1_555
C3 C2 1_555 1_555
H3 C3 1_555 1_555
C4 C3 1_555 1_555
H4 C4 1_555 1_555
C5 N1 1_555 1_555
C6 N2 1_555 1_555
C7 C6 1_555 1_555
H5 C7 1_555 1_555
C8 C7 1_555 1_555
H6 C8 1_555 1_555
C9 C8 1_555 1_555
H7 C9 1_555 1_555
C10 N2 1_555 1_555
H8 C10 1_555 1_555
O7 Mn1 1_555 1_555
O8 C11 1_555 1_555
C11 O7 1_555 1_555
C12 C11 1_555 1_555
H9 C12 1_555 1_555
H10 C12 1_555 1_555
C13 C12 1_555 1_555
H11 C13 1_555 1_555
H12 C13 1_555 1_555
C14 C13 1_555 1_555
H13 C14 1_555 1_555
H14 C14 1_555 1_555
C15 C14 1_555 1_555
H15 C15 1_555 1_555
H16 C15 1_555 1_555
C16 C15 1_555 1_555
H17 C16 1_555 1_555
H18 C16 1_555 1_555
C17 C16 1_555 1_555
H19 C17 1_555 1_555
H20 C17 1_555 1_555
C18 C17 1_555 1_555
O9 C18 1_555 1_555
O10 C18 1_555 1_555
C19 H21 1_555 1_555
C20 C19 1_555 1_555
H22 C20 1_555 1_555
C21 C20 1_555 1_555
H23 C21 1_555 1_555
C22 C21 1_555 1_555
H24 C22 1_555 1_555
C23 N3 1_555 1_555
C24 N4 1_555 1_555
C25 C24 1_555 1_555
H25 C25 1_555 1_555
C26 C25 1_555 1_555
H26 C26 1_555 1_555
C27 C26 1_555 1_555
H27 C27 1_555 1_555
C28 N4 1_555 1_555
H28 C28 1_555 1_555
O11 Mn2 1_555 1_555
O12 C29 1_555 1_555
C29 O11 1_555 1_555
C30 C29 1_555 1_555
H29 C30 1_555 1_555
H30 C30 1_555 1_555
C31 C30 1_555 1_555
H31 C31 1_555 1_555
H32 C31 1_555 1_555
C32 C31 1_555 1_555
H33 C32 1_555 1_555
H34 C32 1_555 1_555
O13 Mn2 1_555 1_555
O14 C33 1_555 1_555
C33 O13 1_555 1_555
C34 C33 1_555 1_555
H35 C34 1_555 1_555
H36 C34 1_555 1_555
C35 C34 1_555 1_555
H37 C35 1_555 1_555
H38 C35 1_555 1_555
C36 C35 1_555 1_555
H39 C36 1_555 1_555
H40 C36 1_555 1_555
H41 O1 1_555 1_555
H42 O1 1_555 1_555
H43 O2 1_555 1_555
H44 O2 1_555 1_555
H45 O3 1_555 1_555
H46 O3 1_555 1_555
H47 O4 1_555 1_555
H48 O4 1_555 1_555
H50 O5 1_555 1_555
H52 O6 1_555 1_555
C32B C32 1_555 1_555
C31B C32B 1_555 1_555
C30B C31B 1_555 1_555
C29B C30B 1_555 1_555
O11B C29B 1_555 1_555
O12B C29B 1_555 1_555
H29B C30B 1_555 1_555
H30B C30B 1_555 1_555
H31B C31B 1_555 1_555
H32B C31B 1_555 1_555
H33B C32B 1_555 1_555
H34B C32B 1_555 1_555
C36B C36 1_555 1_555
C35B C36B 1_555 1_555
C34B C35B 1_555 1_555
C33B C34B 1_555 1_555
O13B C33B 1_555 1_555
O14B C33B 1_555 1_555
H35B C34B 1_555 1_555
H36B C34B 1_555 1_555
H37B C35B 1_555 1_555
H38B C35B 1_555 1_555
H39B C36B 1_555 1_555
H40B C36B 1_555 1_555
O9C Mn1 1_555 1_555
Mn2B O11B 1_555 1_555
N3B Mn2B 1_555 1_555
N4B Mn2B 1_555 1_555
C19B N3B 1_555 1_555
H21B C19B 1_555 1_555
C20B C19B 1_555 1_555
H22B C20B 1_555 1_555
C21B C20B 1_555 1_555
H23B C21B 1_555 1_555
C22B C21B 1_555 1_555
H24B C22B 1_555 1_555
C23B N3B 1_555 1_555
C24B N4B 1_555 1_555
C25B C24B 1_555 1_555
H25B C25B 1_555 1_555
C26B C25B 1_555 1_555
H26B C26B 1_555 1_555
C27B C26B 1_555 1_555
H27B C27B 1_555 1_555
C28B N4B 1_555 1_555
H28B C28B 1_555 1_555
O3B Mn2B 1_555 1_555
H45B O3B 1_555 1_555
H46B O3B 1_555 1_555
O4B Mn2B 1_555 1_555
H47B O4B 1_555 1_555
H48B O4B 1_555 1_555
Mn1C O9 1_555 1_555
Mn2B_2 O13B 1_555 1_555
O13B_2 Mn2B 1_555 1_555
C4 C5 1_555 1_555
C5 C6 1_555 1_555
C9 C10 1_555 1_555
C22 C23 1_555 1_555
C23 C24 1_555 1_555
C27 C28 1_555 1_555
C22B C23B 1_555 1_555
C23B C24B 1_555 1_555
C27B C28B 1_555 1_555

#END
