
#######################################################################
#
#                 Cambridge Crystallographic Data Centre
#                                CCDC 
#
#######################################################################
#
# If this CIF has been generated from an entry in the Cambridge 
# Structural Database, then it will include bibliographic, chemical, 
# crystal, experimental, refinement or atomic coordinate data resulting 
# from the CCDC's data processing and validation procedures.
#
#######################################################################

data_VODSAJ
_symmetry_cell_setting           monoclinic
_symmetry_space_group_name_H-M   'P 21/c'
_symmetry_Int_Tables_number      14
_space_group_name_Hall           '-P 2ybc'
loop_
_symmetry_equiv_pos_site_id
_symmetry_equiv_pos_as_xyz
1 x,y,z
2 -x,1/2+y,1/2-z
3 -x,-y,-z
4 x,1/2-y,1/2+z
_cell_length_a                   9.268(2)
_cell_length_b                   7.5619(17)
_cell_length_c                   20.103(5)
_cell_angle_alpha                90
_cell_angle_beta                 101.067(4)
_cell_angle_gamma                90
_cell_volume                     1382.69
loop_
_atom_site_label
_atom_site_type_symbol
_atom_site_fract_x
_atom_site_fract_y
_atom_site_fract_z
C1 C 0.8745(7) 1.2806(9) 0.3117(3)
C2 C 0.8648(7) 1.4050(9) 0.3621(3)
C3 C 0.9954(7) 1.4473(9) 0.4077(3)
H1 H 0.9923 1.5268 0.4427
C4 C 1.1266(7) 1.3733(10) 0.4014(3)
H2 H 1.2112 1.4025 0.4324
C5 C 1.1358(7) 1.2543(9) 0.3491(3)
C6 C 1.0123(7) 1.2088(9) 0.3049(3)
H3 H 1.0177 1.1302 0.2699
C7 C 0.7438(7) 1.2067(9) 0.2679(3)
C8 C 0.3130(7) 1.4836(9) 0.0842(4)
H4 H 0.4095 1.5152 0.0830
C9 C 0.2034(7) 1.5236(9) 0.0306(3)
H5 H 0.2268 1.5832 -0.0064
C10 C 0.0593(7) 1.4781(9) 0.0298(3)
C11 C 0.0315(6) 1.3949(9) 0.0870(3)
H6 H -0.0644 1.3644 0.0896
C12 C 0.1439(7) 1.3565(9) 0.1402(3)
H7 H 0.1231 1.2995 0.1783
Eu1 Eu 0.48124(3) 1.02936(4) 0.203550(16)
N1 N 0.2828(5) 1.3998(7) 0.1380(3)
O1 O 0.7557(5) 1.0863(7) 0.2262(2)
O2 O 0.6154(4) 1.2526(6) 0.2754(2)
O3 O 0.7407(5) 1.4876(6) 0.3696(2)
O4 O 1.4144(4) 1.3046(6) 0.3621(2)
O5 O 1.3326(5) 1.0224(6) 0.3956(2)
O6 O 1.3024(5) 1.0928(6) 0.2771(2)
O7 O 0.3923(4) 1.3560(6) 0.1890(2)
O8 O 0.5432(5) 1.1745(6) 0.1043(2)
H8 H 0.5897 1.1024 0.0837
H9 H 0.5971 1.2639 0.1170
S1 S 1.30635(16) 1.1605(2) 0.34528(8)
C1A C 0.1255(7) 0.7806(9) 0.1883(3)
C2A C 0.1352(7) 0.9050(9) 0.1379(3)
C3A C 0.0046(7) 0.9473(9) 0.0923(3)
H1A H 0.0077 1.0268 0.0573
C4A C -0.1266(7) 0.8733(10) 0.0986(3)
H2A H -0.2112 0.9025 0.0676
C5A C -0.1358(7) 0.7543(9) 0.1509(3)
C6A C -0.0123(7) 0.7088(9) 0.1951(3)
H3A H -0.0177 0.6302 0.2301
C7A C 0.2562(7) 0.7067(9) 0.2321(3)
C8B C -0.3130(7) 1.5164(9) -0.0842(4)
H4B H -0.4095 1.4848 -0.0830
C9B C -0.2034(7) 1.4764(9) -0.0306(3)
H5B H -0.2268 1.4168 0.0064
C10B C -0.0593(7) 1.5219(9) -0.0298(3)
C11B C -0.0315(6) 1.6051(9) -0.0870(3)
H6B H 0.0644 1.6356 -0.0896
C12B C -0.1439(7) 1.6435(9) -0.1402(3)
H7B H -0.1231 1.7005 -0.1783
Eu1A Eu 0.51876(3) 0.52936(4) 0.296450(16)
Eu1A_2 Eu 0.51876(3) 1.52936(4) 0.296450(16)
Eu1A_3 Eu 1.51876(3) 1.52936(4) 0.296450(16)
Eu1_2 Eu 1.48124(3) 1.02936(4) 0.203550(16)
Eu1C Eu -0.51876(3) 1.47064(4) -0.296450(16)
Eu1B Eu -0.48124(3) 1.97064(4) -0.203550(16)
Eu1_3 Eu -0.51876(3) 1.02936(4) 0.203550(16)
Eu1A_4 Eu -0.48124(3) 0.52936(4) 0.296450(16)
N1B N -0.2828(5) 1.6002(7) -0.1380(3)
O1A O 0.2443(5) 0.5863(7) 0.2738(2)
O2A O 0.3846(4) 0.7526(6) 0.2246(2)
O2_2 O 0.6154(4) 0.2526(6) 0.2754(2)
O3A O 0.2593(5) 0.9876(6) 0.1304(2)
O3_2 O 0.7407(5) 0.4876(6) 0.3696(2)
O4A O -0.4144(4) 0.8046(6) 0.1379(2)
O4A_2 O 0.5856(4) 0.8046(6) 0.1379(2)
O4_2 O 0.4144(4) 0.3046(6) 0.3621(2)
O5A O -0.3326(5) 0.5224(6) 0.1044(2)
O6A O -0.3024(5) 0.5928(6) 0.2229(2)
O6_2 O 0.3024(5) 1.0928(6) 0.2771(2)
O6A_2 O 0.6976(5) 0.5928(6) 0.2229(2)
O7B O -0.3923(4) 1.6440(6) -0.1890(2)
O7A O 0.6077(4) 0.8560(6) 0.3110(2)
O7_2 O 0.3923(4) 0.3560(6) 0.1890(2)
O8A O 0.4568(5) 0.6745(6) 0.3957(2)
H8A H 0.4103 0.6024 0.4163
H9A H 0.4029 0.7639 0.3830
S1A S -0.30635(16) 0.6605(2) 0.15472(8)
O9 O 0.3670(6) 0.8869(9) 0.0150(3)
H10 H 0.3340 0.9185 0.0498
H11 H 0.4186 0.7938 0.0241
loop_
_geom_bond_atom_site_label_1
_geom_bond_atom_site_label_2
_geom_bond_site_symmetry_1
_geom_bond_site_symmetry_2
C1 C2 1_555 1_555
C2 C3 1_555 1_555
C3 H1 1_555 1_555
C4 C3 1_555 1_555
H2 C4 1_555 1_555
C5 C4 1_555 1_555
C6 C1 1_555 1_555
H3 C6 1_555 1_555
C7 C1 1_555 1_555
C8 H4 1_555 1_555
C9 C8 1_555 1_555
H5 C9 1_555 1_555
C10 C9 1_555 1_555
C11 C10 1_555 1_555
H6 C11 1_555 1_555
C12 C11 1_555 1_555
H7 C12 1_555 1_555
Eu1 O1 1_555 1_555
N1 C8 1_555 1_555
O1 C7 1_555 1_555
O2 C7 1_555 1_555
O3 C2 1_555 1_555
O4 S1 1_555 1_555
O5 S1 1_555 1_555
O6 S1 1_555 1_555
O7 Eu1 1_555 1_555
O8 Eu1 1_555 1_555
H8 O8 1_555 1_555
H9 O8 1_555 1_555
O9 H10 1_555 1_555
H11 O9 1_555 1_555
S1 C5 1_555 1_555
C1A C2A 1_555 1_555
C2A C3A 1_555 1_555
C3A H1A 1_555 1_555
C4A C3A 1_555 1_555
H2A C4A 1_555 1_555
C5A C4A 1_555 1_555
C6A C1A 1_555 1_555
H3A C6A 1_555 1_555
C7A C1A 1_555 1_555
C8B H4B 1_555 1_555
C9B C8B 1_555 1_555
H5B C9B 1_555 1_555
C10B C10 1_555 1_555
C11B C10B 1_555 1_555
H6B C11B 1_555 1_555
C12B C11B 1_555 1_555
H7B C12B 1_555 1_555
Eu1A O1A 1_555 1_555
Eu1A_2 O2 1_555 1_555
Eu1A_3 O4 1_555 1_555
Eu1_2 O6 1_555 1_555
Eu1C O7B 1_555 1_555
Eu1B O7B 1_555 1_555
Eu1_3 O4A 1_555 1_555
Eu1A_4 O6A 1_555 1_555
N1B C8B 1_555 1_555
O1A C7A 1_555 1_555
O2A Eu1 1_555 1_555
O2_2 Eu1A 1_555 1_555
O3A Eu1 1_555 1_555
O3_2 Eu1A 1_555 1_555
O4A S1A 1_555 1_555
O4A_2 Eu1 1_555 1_555
O4_2 Eu1A 1_555 1_555
O5A S1A 1_555 1_555
O6A S1A 1_555 1_555
O6_2 Eu1 1_555 1_555
O6A_2 Eu1A 1_555 1_555
O7B N1B 1_555 1_555
O7A Eu1 1_555 1_555
O7_2 Eu1A 1_555 1_555
O8A Eu1A 1_555 1_555
H8A O8A 1_555 1_555
H9A O8A 1_555 1_555
S1A C5A 1_555 1_555
C5 C6 1_555 1_555
C12 N1 1_555 1_555
Eu1 O2 1_555 1_555
N1 O7 1_555 1_555
O3 Eu1A_2 1_555 1_555
O7 Eu1A_2 1_555 1_555
C2A O3A 1_555 1_555
C5A C6A 1_555 1_555
C7A O2A 1_555 1_555
C9B C10B 1_555 1_555
C12B N1B 1_555 1_555
Eu1A O2A 1_555 1_555
Eu1A O7A 1_555 1_555

#END
