
#######################################################################
#
#                 Cambridge Crystallographic Data Centre
#                                CCDC 
#
#######################################################################
#
# If this CIF has been generated from an entry in the Cambridge 
# Structural Database, then it will include bibliographic, chemical, 
# crystal, experimental, refinement or atomic coordinate data resulting 
# from the CCDC's data processing and validation procedures.
#
#######################################################################

data_VOFBOI
_symmetry_cell_setting           triclinic
_symmetry_space_group_name_H-M   'P -1'
_symmetry_Int_Tables_number      2
_space_group_name_Hall           '-P 1'
loop_
_symmetry_equiv_pos_site_id
_symmetry_equiv_pos_as_xyz
1 x,y,z
2 -x,-y,-z
_cell_length_a                   11.5160(2)
_cell_length_b                   13.9090(3)
_cell_length_c                   16.5790(4)
_cell_angle_alpha                109.1710(10)
_cell_angle_beta                 96.9680(10)
_cell_angle_gamma                104.6850(10)
_cell_volume                     2364.76
loop_
_atom_site_label
_atom_site_type_symbol
_atom_site_fract_x
_atom_site_fract_y
_atom_site_fract_z
Au1 Au 0.17211(4) 0.19973(4) 0.39630(3)
Tl1 Tl 0.22193(4) 0.43286(4) 0.46119(3)
Au2 Au 0.00000 0.50000 0.50000
Au3 Au 0.50000 0.50000 0.50000
C1 C 0.2621(10) 0.2123(8) 0.5172(8)
C2 C 0.2337(9) 0.2532(8) 0.5975(7)
C3 C 0.2839(12) 0.2372(11) 0.6702(8)
C4 C 0.3637(14) 0.1781(13) 0.6645(10)
C5 C 0.3955(13) 0.1387(12) 0.5873(9)
C6 C 0.3459(12) 0.1551(11) 0.5155(9)
Br1 Br 0.12740(14) 0.33852(12) 0.61320(10)
F1 F 0.2539(10) 0.2790(8) 0.7480(5)
F2 F 0.4096(10) 0.1628(9) 0.7359(6)
F3 F 0.4765(8) 0.0823(8) 0.5819(7)
F4 F 0.3839(9) 0.1120(7) 0.4423(5)
C7 C 0.0858(10) 0.1716(8) 0.2694(8)
C8 C -0.0140(12) 0.0805(10) 0.2196(9)
C9 C -0.0601(15) 0.0568(13) 0.1295(10)
C10 C -0.0051(15) 0.1244(14) 0.0933(11)
C11 C 0.0902(19) 0.2118(17) 0.1372(11)
C12 C 0.1390(19) 0.2392(17) 0.2261(9)
Br2 Br -0.09205(16) -0.01154(14) 0.26886(12)
F5 F -0.1534(10) -0.0292(10) 0.0830(7)
F6 F -0.0511(14) 0.1019(12) 0.0064(6)
F7 F 0.1411(16) 0.2778(12) 0.0976(8)
F8 F 0.2309(5) 0.3284(4) 0.2551(4)
C13 C 0.0936(12) 0.6297(11) 0.6166(9)
C14 C 0.0782(12) 0.6222(12) 0.6978(9)
C15 C 0.1541(17) 0.7113(17) 0.7768(11)
C16 C 0.2363(17) 0.7974(16) 0.7716(13)
C17 C 0.2435(17) 0.8000(16) 0.6918(17)
C18 C 0.1758(14) 0.7176(11) 0.6073(16)
Br3 Br -0.0374(2) 0.51047(18) 0.70897(13)
F9 F 0.1403(15) 0.7032(14) 0.8547(7)
F10 F 0.2994(13) 0.8749(12) 0.8471(10)
F11 F 0.3242(11) 0.8886(10) 0.6871(12)
F12 F 0.1942(8) 0.7339(7) 0.5499(6)
C19 C 0.4991(9) 0.4885(8) 0.6211(9)
C20 C 0.5605(10) 0.4307(9) 0.6539(10)
C21 C 0.5584(14) 0.4308(12) 0.7372(11)
C22 C 0.4997(15) 0.4882(12) 0.7894(10)
C23 C 0.4364(15) 0.5431(13) 0.7585(10)
C24 C 0.4376(12) 0.5443(11) 0.6762(9)
Br4 Br 0.64217(15) 0.34599(13) 0.58465(14)
F13 F 0.6208(11) 0.3770(10) 0.7703(8)
F14 F 0.5002(14) 0.4874(11) 0.8715(7)
F15 F 0.3696(11) 0.5975(9) 0.8084(6)
F16 F 0.3705(7) 0.6024(6) 0.6548(6)
Au1A Au -0.17211(4) 0.80027(4) 0.60370(3)
Tl1A Tl -0.22193(4) 0.56714(4) 0.53881(3)
Tl1A_2 Tl 0.77807(4) 0.56714(4) 0.53881(3)
Au3_2 Au -0.50000 0.50000 0.50000
C1A C -0.2621(10) 0.7877(8) 0.4828(8)
C2A C -0.2337(9) 0.7468(8) 0.4025(7)
C3A C -0.2839(12) 0.7628(11) 0.3298(8)
C4A C -0.3637(14) 0.8219(13) 0.3355(10)
C5A C -0.3955(13) 0.8613(12) 0.4127(9)
C6A C -0.3459(12) 0.8449(11) 0.4845(9)
Br1A Br -0.12740(14) 0.66148(12) 0.38680(10)
F1A F -0.2539(10) 0.7210(8) 0.2520(5)
F2A F -0.4096(10) 0.8372(9) 0.2641(6)
F3A F -0.4765(8) 0.9177(8) 0.4181(7)
F4A F -0.3839(9) 0.8880(7) 0.5577(5)
C7A C -0.0858(10) 0.8284(8) 0.7306(8)
C8A C 0.0140(12) 0.9195(10) 0.7804(9)
C9A C 0.0601(15) 0.9432(13) 0.8705(10)
C10A C 0.0051(15) 0.8756(14) 0.9067(11)
C11A C -0.0902(19) 0.7882(17) 0.8628(11)
C12A C -0.1390(19) 0.7608(17) 0.7739(9)
Br2A Br 0.09205(16) 1.01154(14) 0.73114(12)
F5A F 0.1534(10) 1.0292(10) 0.9170(7)
F6A F 0.0511(14) 0.8981(12) 0.9936(6)
F7A F -0.1411(16) 0.7222(12) 0.9024(8)
F8A F -0.2309(5) 0.6716(4) 0.7449(4)
C13A C -0.0936(12) 0.3703(11) 0.3834(9)
C14A C -0.0782(12) 0.3778(12) 0.3022(9)
C15A C -0.1541(17) 0.2887(17) 0.2232(11)
C16A C -0.2363(17) 0.2026(16) 0.2284(13)
C17A C -0.2435(17) 0.2000(16) 0.3082(17)
C18A C -0.1758(14) 0.2824(11) 0.3927(16)
Br3A Br 0.0374(2) 0.48953(18) 0.29103(13)
F9A F -0.1403(15) 0.2968(14) 0.1453(7)
F10A F -0.2994(13) 0.1251(12) 0.1529(10)
F11A F -0.3242(11) 0.1114(10) 0.3129(12)
F12A F -0.1942(8) 0.2661(7) 0.4501(6)
C19A C 0.5009(9) 0.5115(8) 0.3789(9)
C20A C 0.4395(10) 0.5693(9) 0.3461(10)
C21A C 0.4416(14) 0.5692(12) 0.2628(11)
C22A C 0.5003(15) 0.5118(12) 0.2106(10)
C23A C 0.5636(15) 0.4569(13) 0.2415(10)
C24A C 0.5624(12) 0.4557(11) 0.3238(9)
Br4A Br 0.35783(15) 0.65401(13) 0.41535(14)
F13A F 0.3792(11) 0.6230(10) 0.2297(8)
F14A F 0.4998(14) 0.5126(11) 0.1285(7)
F15A F 0.6304(11) 0.4025(9) 0.1916(6)
F16A F 0.6295(7) 0.3976(6) 0.3452(6)
N1 N 0.2227(11) -0.1554(9) 0.1920(7)
C25 C 0.0893(14) -0.2097(13) 0.1410(10)
H1 H 0.0395 -0.1649 0.1681
H2 H 0.0852 -0.2115 0.0805
C26 C 0.0315(17) -0.3208(13) 0.1362(11)
H3 H 0.0286 -0.3201 0.1958
H4 H 0.0815 -0.3666 0.1111
C27 C -0.103(2) -0.368(2) 0.0770(15)
H5 H -0.1492 -0.3169 0.0987
H6 H -0.0984 -0.3741 0.0164
C28 C -0.171(3) -0.471(2) 0.075(2)
H7 H -0.2533 -0.4946 0.0382
H8 H -0.1769 -0.4651 0.1351
H9 H -0.1275 -0.5224 0.0519
C29 C 0.2571(12) -0.0398(11) 0.1971(10)
H10 H 0.2334 -0.0405 0.1375
H11 H 0.2079 -0.0027 0.2337
C30 C 0.3898(14) 0.0237(12) 0.2336(10)
H12 H 0.4402 -0.0084 0.1951
H13 H 0.4164 0.0228 0.2924
C31 C 0.4090(15) 0.1410(12) 0.2405(10)
H14 H 0.3509 0.1696 0.2731
H15 H 0.4937 0.1857 0.2737
C32 C 0.3885(19) 0.1480(16) 0.1500(14)
H16 H 0.4012 0.2229 0.1567
H17 H 0.3041 0.1048 0.1174
H18 H 0.4469 0.121 0.118
C33 C 0.3081(15) -0.2105(12) 0.1451(9)
H19 H 0.3926 -0.1747 0.1821
H20 H 0.2833 -0.2854 0.1419
C34 C 0.3135(19) -0.2132(18) 0.0536(10)
H21 H 0.2338 -0.2605 0.0132
H22 H 0.3251 -0.1402 0.0537
C35 C 0.412(3) -0.2508(18) 0.0210(13)
H23 H 0.4098 -0.3165 0.0327
H24 H 0.394 -0.2713 -0.0434
C36 C 0.527(3) -0.182(3) 0.0542(15)
H25 H 0.5854 -0.2163 0.0292
H26 H 0.5463 -0.1604 0.118
H27 H 0.5323 -0.1182 0.0396
C37 C 0.2391(12) -0.1638(11) 0.2800(9)
H28 H 0.3264 -0.1266 0.311
H29 H 0.2217 -0.2403 0.2714
C38 C 0.1572(13) -0.1168(11) 0.3399(9)
H30 H 0.1738 -0.04 0.3496
H31 H 0.0693 -0.1545 0.3105
C39 C 0.1823(14) -0.1286(12) 0.4269(9)
H32 H 0.1604 -0.2059 0.4167
H33 H 0.2716 -0.0961 0.4533
C40 C 0.1140(16) -0.0786(13) 0.4907(11)
H34 H 0.1353 -0.0896 0.5454
H35 H 0.0253 -0.1116 0.4661
H36 H 0.1366 -0.0016 0.5027
loop_
_geom_bond_atom_site_label_1
_geom_bond_atom_site_label_2
_geom_bond_site_symmetry_1
_geom_bond_site_symmetry_2
Au1 Tl1 1_555 1_555
Tl1 Au2 1_555 1_555
Au2 C13 1_555 1_555
Au3 Tl1 1_555 1_555
C1 Au1 1_555 1_555
C2 C1 1_555 1_555
C3 C2 1_555 1_555
C4 C3 1_555 1_555
C5 C4 1_555 1_555
C6 C1 1_555 1_555
Br1 C2 1_555 1_555
F1 C3 1_555 1_555
F2 C4 1_555 1_555
F3 C5 1_555 1_555
F4 C6 1_555 1_555
C7 Au1 1_555 1_555
C8 C7 1_555 1_555
C9 C8 1_555 1_555
C10 C9 1_555 1_555
C11 C10 1_555 1_555
C12 C7 1_555 1_555
Br2 C8 1_555 1_555
F5 C9 1_555 1_555
F6 C10 1_555 1_555
F7 C11 1_555 1_555
F8 C12 1_555 1_555
C13 C14 1_555 1_555
C14 C15 1_555 1_555
C15 C16 1_555 1_555
C16 C17 1_555 1_555
C17 C18 1_555 1_555
C18 C13 1_555 1_555
Br3 C14 1_555 1_555
F9 C15 1_555 1_555
F10 C16 1_555 1_555
F11 C17 1_555 1_555
F12 C18 1_555 1_555
C19 Au3 1_555 1_555
C20 C19 1_555 1_555
C21 C20 1_555 1_555
C22 C21 1_555 1_555
C23 C22 1_555 1_555
C24 C19 1_555 1_555
Br4 C20 1_555 1_555
F13 C21 1_555 1_555
F14 C22 1_555 1_555
F15 C23 1_555 1_555
F16 C24 1_555 1_555
N1 C25 1_555 1_555
C25 H1 1_555 1_555
H2 C25 1_555 1_555
C26 C25 1_555 1_555
H3 C26 1_555 1_555
H4 C26 1_555 1_555
C27 C26 1_555 1_555
H5 C27 1_555 1_555
H6 C27 1_555 1_555
C28 C27 1_555 1_555
H7 C28 1_555 1_555
H8 C28 1_555 1_555
H9 C28 1_555 1_555
C29 N1 1_555 1_555
H10 C29 1_555 1_555
H11 C29 1_555 1_555
C30 C29 1_555 1_555
H12 C30 1_555 1_555
H13 C30 1_555 1_555
C31 C30 1_555 1_555
H14 C31 1_555 1_555
H15 C31 1_555 1_555
C32 C31 1_555 1_555
H16 C32 1_555 1_555
H17 C32 1_555 1_555
H18 C32 1_555 1_555
C33 N1 1_555 1_555
H19 C33 1_555 1_555
H20 C33 1_555 1_555
C34 C33 1_555 1_555
H21 C34 1_555 1_555
H22 C34 1_555 1_555
C35 C34 1_555 1_555
H23 C35 1_555 1_555
H24 C35 1_555 1_555
C36 C35 1_555 1_555
H25 C36 1_555 1_555
H26 C36 1_555 1_555
H27 C36 1_555 1_555
C37 N1 1_555 1_555
H28 C37 1_555 1_555
H29 C37 1_555 1_555
C38 C37 1_555 1_555
H30 C38 1_555 1_555
H31 C38 1_555 1_555
C39 C38 1_555 1_555
H32 C39 1_555 1_555
H33 C39 1_555 1_555
C40 C39 1_555 1_555
H34 C40 1_555 1_555
H35 C40 1_555 1_555
H36 C40 1_555 1_555
Au1A Tl1A 1_555 1_555
Tl1A Au2 1_555 1_555
Tl1A_2 Au3 1_555 1_555
Au3_2 Tl1A 1_555 1_555
C1A Au1A 1_555 1_555
C2A C1A 1_555 1_555
C3A C2A 1_555 1_555
C4A C3A 1_555 1_555
C5A C4A 1_555 1_555
C6A C1A 1_555 1_555
Br1A C2A 1_555 1_555
F1A C3A 1_555 1_555
F2A C4A 1_555 1_555
F3A C5A 1_555 1_555
F4A C6A 1_555 1_555
C7A Au1A 1_555 1_555
C8A C7A 1_555 1_555
C9A C8A 1_555 1_555
C10A C9A 1_555 1_555
C11A C10A 1_555 1_555
C12A C7A 1_555 1_555
Br2A C8A 1_555 1_555
F5A C9A 1_555 1_555
F6A C10A 1_555 1_555
F7A C11A 1_555 1_555
F8A C12A 1_555 1_555
C13A Au2 1_555 1_555
C14A C13A 1_555 1_555
C15A C14A 1_555 1_555
C16A C15A 1_555 1_555
C17A C16A 1_555 1_555
C18A C13A 1_555 1_555
Br3A C14A 1_555 1_555
F9A C15A 1_555 1_555
F10A C16A 1_555 1_555
F11A C17A 1_555 1_555
F12A C18A 1_555 1_555
C19A Au3 1_555 1_555
C20A C19A 1_555 1_555
C21A C20A 1_555 1_555
C22A C21A 1_555 1_555
C23A C22A 1_555 1_555
C24A C19A 1_555 1_555
Br4A C20A 1_555 1_555
F13A C21A 1_555 1_555
F14A C22A 1_555 1_555
F15A C23A 1_555 1_555
F16A C24A 1_555 1_555
C5 C6 1_555 1_555
C11 C12 1_555 1_555
C23 C24 1_555 1_555
C5A C6A 1_555 1_555
C11A C12A 1_555 1_555
C17A C18A 1_555 1_555
C23A C24A 1_555 1_555

#END
