
#######################################################################
#
#                 Cambridge Crystallographic Data Centre
#                                CCDC 
#
#######################################################################
#
# If this CIF has been generated from an entry in the Cambridge 
# Structural Database, then it will include bibliographic, chemical, 
# crystal, experimental, refinement or atomic coordinate data resulting 
# from the CCDC's data processing and validation procedures.
#
#######################################################################

data_VOFBIC
_symmetry_cell_setting           triclinic
_symmetry_space_group_name_H-M   'P -1'
_symmetry_Int_Tables_number      2
_space_group_name_Hall           '-P 1'
loop_
_symmetry_equiv_pos_site_id
_symmetry_equiv_pos_as_xyz
1 x,y,z
2 -x,-y,-z
_cell_length_a                   13.7380(2)
_cell_length_b                   15.2812(2)
_cell_length_c                   18.1752(3)
_cell_angle_alpha                102.7040(10)
_cell_angle_beta                 104.6180(10)
_cell_angle_gamma                96.8470(10)
_cell_volume                     3539.45
loop_
_atom_site_label
_atom_site_type_symbol
_atom_site_fract_x
_atom_site_fract_y
_atom_site_fract_z
Au1 Au 0.00000 0.00000 0.00000
Tl1 Tl 0.05374(4) -0.00307(4) 0.19045(4)
Au2 Au 0.07893(3) 0.05327(3) 0.39062(3)
Tl2 Tl 0.28700(4) -0.01259(4) 0.39885(3)
Au3 Au 0.22059(3) -0.11773(3) 0.22372(3)
Au4 Au 0.50000 0.00000 0.50000
C1 C 0.1246(9) 0.1054(8) 0.0424(6)
C2 C 0.2065(8) 0.1071(8) 0.0125(6)
C3 C 0.2867(9) 0.1805(10) 0.0402(8)
C4 C 0.2857(12) 0.2546(10) 0.0982(9)
C5 C 0.2056(13) 0.2547(10) 0.1294(9)
C6 C 0.1266(10) 0.1796(8) 0.1004(8)
I1 I 0.21662(8) 0.00036(8) -0.07788(6)
F1 F 0.3665(7) 0.1853(8) 0.0101(7)
F2 F 0.3625(9) 0.3269(8) 0.1254(8)
F3 F 0.2057(10) 0.3247(6) 0.1910(6)
F4 F 0.0501(8) 0.1840(6) 0.1376(6)
C7 C 0.1117(7) 0.1813(8) 0.3775(6)
C8 C 0.1992(8) 0.2484(7) 0.4247(6)
C9 C 0.2154(10) 0.3349(8) 0.4157(7)
C10 C 0.1467(10) 0.3625(9) 0.3600(7)
C11 C 0.0613(11) 0.3003(8) 0.3130(7)
C12 C 0.0458(9) 0.2136(8) 0.3225(7)
I2 I 0.30783(7) 0.21655(6) 0.51432(5)
F5 F 0.2988(7) 0.3961(5) 0.4607(6)
F6 F 0.1631(9) 0.4456(6) 0.3498(6)
F7 F -0.0086(7) 0.3255(6) 0.2581(5)
F8 F -0.0415(6) 0.1553(5) 0.2728(5)
C13 C 0.0351(7) -0.0696(8) 0.4111(6)
C14 C -0.0532(8) -0.1317(7) 0.3642(6)
C15 C -0.0867(9) -0.2129(7) 0.3814(8)
C16 C -0.0309(9) -0.2334(9) 0.4467(8)
C17 C 0.0571(11) -0.1765(9) 0.4946(9)
C18 C 0.0866(9) -0.0962(9) 0.4757(7)
I3 I -0.14443(7) -0.10445(7) 0.26316(6)
F9 F -0.1698(7) -0.2715(6) 0.3352(6)
F10 F -0.0615(8) -0.3136(6) 0.4629(6)
F11 F 0.1099(8) -0.1956(7) 0.5590(6)
F12 F 0.1736(5) -0.0410(5) 0.5294(4)
C19 C 0.1250(9) -0.2176(8) 0.2438(6)
C20 C 0.0329(9) -0.2668(7) 0.1892(7)
C21 C -0.0256(9) -0.3379(8) 0.1984(8)
C22 C 0.0038(10) -0.3683(10) 0.2661(7)
C23 C 0.0950(11) -0.3241(9) 0.3214(8)
C24 C 0.1494(9) -0.2519(8) 0.3106(7)
I4 I -0.01862(9) -0.23013(7) 0.08252(6)
F13 F -0.1148(8) -0.3838(7) 0.1457(6)
F14 F -0.0535(9) -0.4387(7) 0.2769(7)
F15 F 0.1261(8) -0.3526(6) 0.3885(5)
F16 F 0.2371(6) -0.2117(6) 0.3685(5)
C25 C 0.3207(8) -0.0360(8) 0.1852(6)
C26 C 0.3579(8) 0.0548(10) 0.2070(7)
C27 C 0.4304(9) 0.0917(13) 0.1752(9)
C28 C 0.4671(14) 0.0429(12) 0.1230(11)
C29 C 0.4324(12) -0.0449(15) 0.1025(9)
C30 C 0.3599(11) -0.0856(7) 0.1310(8)
I5 I 0.30903(10) 0.14263(8) 0.28772(7)
F17 F 0.4682(9) 0.1815(9) 0.1990(7)
F18 F 0.5358(9) 0.0749(12) 0.0901(8)
F19 F 0.4692(11) -0.1078(12) 0.0435(8)
F20 F 0.3342(6) -0.1718(4) 0.0903(4)
C31 C 0.5539(9) 0.0209(9) 0.4077(7)
C32 C 0.5546(8) -0.0477(11) 0.3442(8)
C33 C 0.5998(10) -0.0282(14) 0.2870(8)
C34 C 0.6451(13) 0.0593(11) 0.2955(11)
C35 C 0.6424(13) 0.1285(13) 0.3567(13)
C36 C 0.5969(13) 0.1085(8) 0.4115(8)
I6 I 0.48259(10) -0.17698(8) 0.32839(8)
F21 F 0.5978(8) -0.0950(9) 0.2255(7)
F22 F 0.6882(11) 0.0757(12) 0.2381(9)
F23 F 0.6872(11) 0.2078(11) 0.3539(11)
F24 F 0.6022(6) 0.1886(5) 0.4593(5)
Tl1A Tl -0.05374(4) 0.00307(4) -0.19045(4)
Au2A Au -0.07893(3) -0.05327(3) -0.39062(3)
Tl2A Tl -0.28700(4) 0.01259(4) -0.39885(3)
Tl2A_2 Tl 0.71300(4) 0.01259(4) 0.60115(3)
Au3A Au -0.22059(3) 0.11773(3) -0.22372(3)
Au4_2 Au -0.50000 0.00000 -0.50000
C1A C -0.1246(9) -0.1054(8) -0.0424(6)
C2A C -0.2065(8) -0.1071(8) -0.0125(6)
C3A C -0.2867(9) -0.1805(10) -0.0402(8)
C4A C -0.2857(12) -0.2546(10) -0.0982(9)
C5A C -0.2056(13) -0.2547(10) -0.1294(9)
C6A C -0.1266(10) -0.1796(8) -0.1004(8)
I1A I -0.21662(8) -0.00036(8) 0.07788(6)
F1A F -0.3665(7) -0.1853(8) -0.0101(7)
F2A F -0.3625(9) -0.3269(8) -0.1254(8)
F3A F -0.2057(10) -0.3247(6) -0.1910(6)
F4A F -0.0501(8) -0.1840(6) -0.1376(6)
C7A C -0.1117(7) -0.1813(8) -0.3775(6)
C8A C -0.1992(8) -0.2484(7) -0.4247(6)
C9A C -0.2154(10) -0.3349(8) -0.4157(7)
C10A C -0.1467(10) -0.3625(9) -0.3600(7)
C11A C -0.0613(11) -0.3003(8) -0.3130(7)
C12A C -0.0458(9) -0.2136(8) -0.3225(7)
I2A I -0.30783(7) -0.21655(6) -0.51432(5)
F5A F -0.2988(7) -0.3961(5) -0.4607(6)
F6A F -0.1631(9) -0.4456(6) -0.3498(6)
F7A F 0.0086(7) -0.3255(6) -0.2581(5)
F8A F 0.0415(6) -0.1553(5) -0.2728(5)
C13A C -0.0351(7) 0.0696(8) -0.4111(6)
C14A C 0.0532(8) 0.1317(7) -0.3642(6)
C15A C 0.0867(9) 0.2129(7) -0.3814(8)
C16A C 0.0309(9) 0.2334(9) -0.4467(8)
C17A C -0.0571(11) 0.1765(9) -0.4946(9)
C18A C -0.0866(9) 0.0962(9) -0.4757(7)
I3A I 0.14443(7) 0.10445(7) -0.26316(6)
F9A F 0.1698(7) 0.2715(6) -0.3352(6)
F10A F 0.0615(8) 0.3136(6) -0.4629(6)
F11A F -0.1099(8) 0.1956(7) -0.5590(6)
F12A F -0.1736(5) 0.0410(5) -0.5294(4)
C19A C -0.1250(9) 0.2176(8) -0.2438(6)
C20A C -0.0329(9) 0.2668(7) -0.1892(7)
C21A C 0.0256(9) 0.3379(8) -0.1984(8)
C22A C -0.0038(10) 0.3683(10) -0.2661(7)
C23A C -0.0950(11) 0.3241(9) -0.3214(8)
C24A C -0.1494(9) 0.2519(8) -0.3106(7)
I4A I 0.01862(9) 0.23013(7) -0.08252(6)
F13A F 0.1148(8) 0.3838(7) -0.1457(6)
F14A F 0.0535(9) 0.4387(7) -0.2769(7)
F15A F -0.1261(8) 0.3526(6) -0.3885(5)
F16A F -0.2371(6) 0.2117(6) -0.3685(5)
C25A C -0.3207(8) 0.0360(8) -0.1852(6)
C26A C -0.3579(8) -0.0548(10) -0.2070(7)
C27A C -0.4304(9) -0.0917(13) -0.1752(9)
C28A C -0.4671(14) -0.0429(12) -0.1230(11)
C29A C -0.4324(12) 0.0449(15) -0.1025(9)
C30A C -0.3599(11) 0.0856(7) -0.1310(8)
I5A I -0.30903(10) -0.14263(8) -0.28772(7)
F17A F -0.4682(9) -0.1815(9) -0.1990(7)
F18A F -0.5358(9) -0.0749(12) -0.0901(8)
F19A F -0.4692(11) 0.1078(12) -0.0435(8)
F20A F -0.3342(6) 0.1718(4) -0.0903(4)
C31A C 0.4461(9) -0.0209(9) 0.5923(7)
C32A C 0.4454(8) 0.0477(11) 0.6558(8)
C33A C 0.4002(10) 0.0282(14) 0.7130(8)
C34A C 0.3549(13) -0.0593(11) 0.7045(11)
C35A C 0.3576(13) -0.1285(13) 0.6433(13)
C36A C 0.4031(13) -0.1085(8) 0.5885(8)
I6A I 0.51741(10) 0.17698(8) 0.67161(8)
F21A F 0.4022(8) 0.0950(9) 0.7745(7)
F22A F 0.3118(11) -0.0757(12) 0.7619(9)
F23A F 0.3128(11) -0.2078(11) 0.6461(11)
F24A F 0.3978(6) -0.1886(5) 0.5407(5)
N1 N 0.6334(9) 0.4797(8) 0.2612(7)
C37 C 0.7223(11) 0.4964(10) 0.3346(9)
H1 H 0.7247 0.5569 0.3693
H2 H 0.7864 0.4992 0.319
C38 C 0.7198(13) 0.4256(15) 0.3819(12)
H3 H 0.664 0.4311 0.4071
H4 H 0.7047 0.3638 0.3458
C39 C 0.8194(15) 0.4368(17) 0.4446(12)
H5 H 0.8382 0.5006 0.4776
H6 H 0.8102 0.3964 0.479
C40 C 0.9027(18) 0.4151(17) 0.4114(15)
H7 H 0.9661 0.4251 0.4541
H8 H 0.9116 0.4545 0.3768
H9 H 0.8861 0.351 0.381
C41 C 0.5320(11) 0.4682(9) 0.2779(9)
H10 H 0.5232 0.4116 0.2955
H11 H 0.4776 0.4592 0.2279
C42 C 0.5147(13) 0.5475(10) 0.3402(11)
H12 H 0.5729 0.5622 0.3887
H13 H 0.5129 0.6024 0.3199
C43 C 0.4176(17) 0.5237(13) 0.3597(17)
H14 H 0.4187 0.4677 0.3785
H15 H 0.3594 0.5107 0.3114
C44 C 0.4020(19) 0.5997(14) 0.4220(17)
H16 H 0.3374 0.5816 0.433
H17 H 0.3999 0.655 0.4032
H18 H 0.4587 0.6117 0.4703
C45 C 0.6342(13) 0.3930(10) 0.2007(9)
H19 H 0.6215 0.3406 0.223
H20 H 0.5756 0.3854 0.1536
C46 C 0.7281(17) 0.3867(14) 0.1740(12)
H21 H 0.7874 0.3922 0.2201
H22 H 0.7418 0.4382 0.151
C47 C 0.718(2) 0.2966(19) 0.1127(15)
H23 H 0.6592 0.2926 0.0665
H24 H 0.7007 0.2456 0.1355
C48 C 0.813(3) 0.282(3) 0.083(2)
H25 H 0.7995 0.2221 0.0461
H26 H 0.8723 0.2862 0.1284
H27 H 0.8285 0.3297 0.0571
C49 C 0.6487(13) 0.5634(10) 0.2290(10)
H28 H 0.6492 0.6181 0.2701
H29 H 0.7172 0.5696 0.2203
C50 C 0.5716(16) 0.5641(14) 0.1540(12)
H30 H 0.5025 0.5591 0.1616
H31 H 0.5711 0.5107 0.1115
C51 C 0.5969(19) 0.651(2) 0.1302(16)
H32 H 0.5984 0.7036 0.1737
H33 H 0.6666 0.6553 0.1237
C52 C 0.528(4) 0.660(4) 0.059(3)
H34 H 0.5516 0.7169 0.0475
H35 H 0.4589 0.6594 0.0652
H36 H 0.5253 0.6081 0.0147
loop_
_geom_bond_atom_site_label_1
_geom_bond_atom_site_label_2
_geom_bond_site_symmetry_1
_geom_bond_site_symmetry_2
Au1 Tl1 1_555 1_555
Tl1 Au2 1_555 1_555
Au2 Tl2 1_555 1_555
Tl2 Au3 1_555 1_555
Au3 Tl1 1_555 1_555
Au4 Tl2 1_555 1_555
C1 Au1 1_555 1_555
C2 C1 1_555 1_555
C3 C2 1_555 1_555
C4 C3 1_555 1_555
C5 C4 1_555 1_555
C6 C1 1_555 1_555
I1 C2 1_555 1_555
F1 C3 1_555 1_555
F2 C4 1_555 1_555
F3 C5 1_555 1_555
F4 C6 1_555 1_555
C7 Au2 1_555 1_555
C8 C7 1_555 1_555
C9 C8 1_555 1_555
C10 C9 1_555 1_555
C11 C10 1_555 1_555
C12 C7 1_555 1_555
I2 C8 1_555 1_555
F5 C9 1_555 1_555
F6 C10 1_555 1_555
F7 C11 1_555 1_555
F8 C12 1_555 1_555
C13 Au2 1_555 1_555
C14 C13 1_555 1_555
C15 C14 1_555 1_555
C16 C15 1_555 1_555
C17 C16 1_555 1_555
C18 C13 1_555 1_555
I3 C14 1_555 1_555
F9 C15 1_555 1_555
F10 C16 1_555 1_555
F11 C17 1_555 1_555
F12 C18 1_555 1_555
C19 Au3 1_555 1_555
C20 C19 1_555 1_555
C21 C20 1_555 1_555
C22 C21 1_555 1_555
C23 C22 1_555 1_555
C24 C19 1_555 1_555
I4 C20 1_555 1_555
F13 C21 1_555 1_555
F14 C22 1_555 1_555
F15 C23 1_555 1_555
F16 C24 1_555 1_555
C25 Au3 1_555 1_555
C26 C25 1_555 1_555
C27 C26 1_555 1_555
C28 C27 1_555 1_555
C29 C28 1_555 1_555
C30 C25 1_555 1_555
I5 C26 1_555 1_555
F17 C27 1_555 1_555
F18 C28 1_555 1_555
F19 C29 1_555 1_555
F20 C30 1_555 1_555
C31 Au4 1_555 1_555
C32 C31 1_555 1_555
C33 C32 1_555 1_555
C34 C33 1_555 1_555
C35 C34 1_555 1_555
C36 C31 1_555 1_555
I6 C32 1_555 1_555
F21 C33 1_555 1_555
F22 C34 1_555 1_555
F23 C35 1_555 1_555
F24 C36 1_555 1_555
N1 C37 1_555 1_555
C37 H1 1_555 1_555
H2 C37 1_555 1_555
C38 C37 1_555 1_555
H3 C38 1_555 1_555
H4 C38 1_555 1_555
C39 C38 1_555 1_555
H5 C39 1_555 1_555
H6 C39 1_555 1_555
C40 C39 1_555 1_555
H7 C40 1_555 1_555
H8 C40 1_555 1_555
H9 C40 1_555 1_555
C41 N1 1_555 1_555
H10 C41 1_555 1_555
H11 C41 1_555 1_555
C42 C41 1_555 1_555
H12 C42 1_555 1_555
H13 C42 1_555 1_555
C43 C42 1_555 1_555
H14 C43 1_555 1_555
H15 C43 1_555 1_555
C44 C43 1_555 1_555
H16 C44 1_555 1_555
H17 C44 1_555 1_555
H18 C44 1_555 1_555
C45 N1 1_555 1_555
H19 C45 1_555 1_555
H20 C45 1_555 1_555
C46 C45 1_555 1_555
H21 C46 1_555 1_555
H22 C46 1_555 1_555
C47 C46 1_555 1_555
H23 C47 1_555 1_555
H24 C47 1_555 1_555
C48 C47 1_555 1_555
H25 C48 1_555 1_555
H26 C48 1_555 1_555
H27 C48 1_555 1_555
C49 N1 1_555 1_555
H28 C49 1_555 1_555
H29 C49 1_555 1_555
C50 C49 1_555 1_555
H30 C50 1_555 1_555
H31 C50 1_555 1_555
C51 C50 1_555 1_555
H32 C51 1_555 1_555
H33 C51 1_555 1_555
C52 C51 1_555 1_555
H34 C52 1_555 1_555
H35 C52 1_555 1_555
H36 C52 1_555 1_555
Tl1A Au1 1_555 1_555
Au2A Tl1A 1_555 1_555
Tl2A Au2A 1_555 1_555
Tl2A_2 Au4 1_555 1_555
Au3A Tl1A 1_555 1_555
Au4_2 Tl2A 1_555 1_555
C1A Au1 1_555 1_555
C2A C1A 1_555 1_555
C3A C2A 1_555 1_555
C4A C3A 1_555 1_555
C5A C4A 1_555 1_555
C6A C1A 1_555 1_555
I1A C2A 1_555 1_555
F1A C3A 1_555 1_555
F2A C4A 1_555 1_555
F3A C5A 1_555 1_555
F4A C6A 1_555 1_555
C7A Au2A 1_555 1_555
C8A C7A 1_555 1_555
C9A C8A 1_555 1_555
C10A C9A 1_555 1_555
C11A C10A 1_555 1_555
C12A C7A 1_555 1_555
I2A C8A 1_555 1_555
F5A C9A 1_555 1_555
F6A C10A 1_555 1_555
F7A C11A 1_555 1_555
F8A C12A 1_555 1_555
C13A Au2A 1_555 1_555
C14A C13A 1_555 1_555
C15A C14A 1_555 1_555
C16A C15A 1_555 1_555
C17A C16A 1_555 1_555
C18A C13A 1_555 1_555
I3A C14A 1_555 1_555
F9A C15A 1_555 1_555
F10A C16A 1_555 1_555
F11A C17A 1_555 1_555
F12A C18A 1_555 1_555
C19A Au3A 1_555 1_555
C20A C19A 1_555 1_555
C21A C20A 1_555 1_555
C22A C21A 1_555 1_555
C23A C22A 1_555 1_555
C24A C19A 1_555 1_555
I4A C20A 1_555 1_555
F13A C21A 1_555 1_555
F14A C22A 1_555 1_555
F15A C23A 1_555 1_555
F16A C24A 1_555 1_555
C25A Au3A 1_555 1_555
C26A C25A 1_555 1_555
C27A C26A 1_555 1_555
C28A C27A 1_555 1_555
C29A C28A 1_555 1_555
C30A C25A 1_555 1_555
I5A C26A 1_555 1_555
F17A C27A 1_555 1_555
F18A C28A 1_555 1_555
F19A C29A 1_555 1_555
F20A C30A 1_555 1_555
C31A Au4 1_555 1_555
C32A C31A 1_555 1_555
C33A C32A 1_555 1_555
C34A C33A 1_555 1_555
C35A C34A 1_555 1_555
C36A C31A 1_555 1_555
I6A C32A 1_555 1_555
F21A C33A 1_555 1_555
F22A C34A 1_555 1_555
F23A C35A 1_555 1_555
F24A C36A 1_555 1_555
C5 C6 1_555 1_555
C11 C12 1_555 1_555
C17 C18 1_555 1_555
C23 C24 1_555 1_555
C29 C30 1_555 1_555
C35 C36 1_555 1_555
Tl2A Au3A 1_555 1_555
C5A C6A 1_555 1_555
C11A C12A 1_555 1_555
C17A C18A 1_555 1_555
C23A C24A 1_555 1_555
C29A C30A 1_555 1_555
C35A C36A 1_555 1_555

#END
