
#######################################################################
#
#                 Cambridge Crystallographic Data Centre
#                                CCDC 
#
#######################################################################
#
# If this CIF has been generated from an entry in the Cambridge 
# Structural Database, then it will include bibliographic, chemical, 
# crystal, experimental, refinement or atomic coordinate data resulting 
# from the CCDC's data processing and validation procedures.
#
#######################################################################

data_VOFCOI
_symmetry_cell_setting           monoclinic
_symmetry_space_group_name_H-M   'P 21/n'
_symmetry_Int_Tables_number      14
_space_group_name_Hall           '-P 2yn'
loop_
_symmetry_equiv_pos_site_id
_symmetry_equiv_pos_as_xyz
1 x,y,z
2 1/2-x,1/2+y,1/2-z
3 -x,-y,-z
4 1/2+x,1/2-y,1/2+z
_cell_length_a                   11.150(1)
_cell_length_b                   12.719(3)
_cell_length_c                   15.164(2)
_cell_angle_alpha                90
_cell_angle_beta                 94.05(1)
_cell_angle_gamma                90
_cell_volume                     2145.14
loop_
_atom_site_label
_atom_site_type_symbol
_atom_site_fract_x
_atom_site_fract_y
_atom_site_fract_z
Sn1 Sn 0.25100(2) 0.19965(2) 0.11505(1)
O1 O 0.1770(2) 0.2445(2) -0.0137(1)
O2 O 0.1589(2) 0.4174(2) 0.0061(2)
O3 O 0.3527(2) 0.1357(2) 0.2453(2)
N1 N -0.0599(3) 0.4583(2) -0.1424(2)
N2 N 0.2352(3) 0.0494(3) 0.3384(2)
C1 C 0.1043(3) 0.2430(3) 0.1893(2)
C2 C -0.0115(4) 0.2115(4) 0.1639(3)
C3 C -0.1072(4) 0.2387(5) 0.2129(3)
C4 C -0.0885(4) 0.2980(3) 0.2866(3)
C5 C 0.0240(4) 0.3315(3) 0.3120(3)
C6 C 0.1194(3) 0.3035(3) 0.2637(3)
C7 C 0.4064(3) 0.2961(3) 0.1117(2)
C8 C 0.4632(3) 0.3373(3) 0.1870(3)
C9 C 0.5640(5) 0.4007(4) 0.1815(4)
C10 C 0.6076(5) 0.4197(5) 0.1007(6)
C11 C 0.5528(5) 0.3778(5) 0.0264(5)
C12 C 0.4525(4) 0.3179(3) 0.0308(3)
C13 C 0.2484(3) 0.0435(3) 0.0657(2)
C14 C 0.3256(4) 0.0105(4) 0.0048(3)
C15 C 0.3226(5) -0.0907(5) -0.0313(4)
C16 C 0.2410(6) -0.1594(4) -0.0022(4)
C17 C 0.1619(6) -0.1294(4) 0.0563(4)
C18 C 0.1657(5) -0.0293(3) 0.0917(3)
C19 C 0.1535(3) 0.3389(3) -0.0407(2)
C20 C 0.1220(3) 0.3456(3) -0.1388(2)
C21 C 0.0606(3) 0.4462(3) -0.1710(2)
C22 C 0.3430(3) 0.0778(3) 0.3113(2)
C22C C -0.1570(3) 0.4222(3) -0.1887(2)
N1C N 0.4401(3) 0.0417(2) 0.3576(2)
O3C O -0.1473(2) 0.3643(2) -0.2547(2)
N2C N -0.2648(3) 0.4506(3) -0.1616(2)
C21C C 0.5606(3) 0.0538(3) 0.3290(2)
Sn1C Sn -0.24900(2) 0.30035(2) -0.38495(1)
C20C C 0.6220(3) 0.1544(3) 0.3612(2)
O1C O -0.3230(2) 0.2555(2) -0.5137(1)
C1C C -0.3957(3) 0.2570(3) -0.3107(2)
C7C C -0.0936(3) 0.2039(3) -0.3883(2)
C13C C -0.2516(3) 0.4565(3) -0.4343(2)
C19C C 0.6535(3) 0.1611(3) 0.4593(2)
C2C C -0.5115(4) 0.2885(4) -0.3361(3)
C6C C -0.3806(3) 0.1965(3) -0.2363(3)
C8C C -0.0368(3) 0.1627(3) -0.3130(3)
C12C C -0.0475(4) 0.1821(3) -0.4692(3)
C14C C -0.1744(4) 0.4895(4) -0.4952(3)
C18C C -0.3343(5) 0.5293(3) -0.4083(3)
O1C_2 O 0.6770(2) 0.2555(2) 0.4863(1)
O2C O 0.6589(2) 0.0826(2) 0.5061(2)
C3C C -0.6072(4) 0.2613(5) -0.2871(3)
C5C C -0.4760(4) 0.1685(3) -0.1880(3)
C9C C 0.0640(5) 0.0993(4) -0.3185(4)
C11C C 0.0528(5) 0.1222(5) -0.4736(5)
C15C C -0.1774(5) 0.5907(5) -0.5313(4)
C17C C -0.3381(6) 0.6294(4) -0.4437(4)
C4C C -0.5885(4) 0.2020(3) -0.2134(3)
C10C C 0.1076(5) 0.0803(5) -0.3993(6)
C16C C -0.2590(6) 0.6594(4) -0.5022(4)
Sn1C_2 Sn 0.75100(2) 0.30035(2) 0.61505(1)
loop_
_geom_bond_atom_site_label_1
_geom_bond_atom_site_label_2
_geom_bond_site_symmetry_1
_geom_bond_site_symmetry_2
Sn1 O1 1_555 1_555
O1 C19 1_555 1_555
O2 C19 1_555 1_555
O3 Sn1 1_555 1_555
N1 C21 1_555 1_555
N2 C22 1_555 1_555
C1 Sn1 1_555 1_555
C2 C1 1_555 1_555
C3 C2 1_555 1_555
C4 C3 1_555 1_555
C5 C4 1_555 1_555
C6 C1 1_555 1_555
C7 Sn1 1_555 1_555
C8 C7 1_555 1_555
C9 C8 1_555 1_555
C10 C9 1_555 1_555
C11 C10 1_555 1_555
C12 C7 1_555 1_555
C13 Sn1 1_555 1_555
C14 C13 1_555 1_555
C15 C14 1_555 1_555
C16 C15 1_555 1_555
C17 C16 1_555 1_555
C18 C13 1_555 1_555
C19 C20 1_555 1_555
C20 C21 1_555 1_555
C22 O3 1_555 1_555
C22C N1 1_555 1_555
N1C C22 1_555 1_555
O3C C22C 1_555 1_555
N2C C22C 1_555 1_555
C21C N1C 1_555 1_555
Sn1C O3C 1_555 1_555
C20C C21C 1_555 1_555
O1C Sn1C 1_555 1_555
C1C Sn1C 1_555 1_555
C7C Sn1C 1_555 1_555
C13C Sn1C 1_555 1_555
C19C C20C 1_555 1_555
C2C C1C 1_555 1_555
C6C C1C 1_555 1_555
C8C C7C 1_555 1_555
C12C C7C 1_555 1_555
C14C C13C 1_555 1_555
C18C C13C 1_555 1_555
O1C_2 C19C 1_555 1_555
O2C C19C 1_555 1_555
C3C C2C 1_555 1_555
C5C C6C 1_555 1_555
C9C C8C 1_555 1_555
C11C C12C 1_555 1_555
C15C C14C 1_555 1_555
C17C C18C 1_555 1_555
C4C C3C 1_555 1_555
C10C C9C 1_555 1_555
C16C C15C 1_555 1_555
Sn1C_2 O1C_2 1_555 1_555
C5 C6 1_555 1_555
C11 C12 1_555 1_555
C17 C18 1_555 1_555
C5C C4C 1_555 1_555
C11C C10C 1_555 1_555
C17C C16C 1_555 1_555

#END
