
#######################################################################
#
#                 Cambridge Crystallographic Data Centre
#                                CCDC 
#
#######################################################################
#
# If this CIF has been generated from an entry in the Cambridge 
# Structural Database, then it will include bibliographic, chemical, 
# crystal, experimental, refinement or atomic coordinate data resulting 
# from the CCDC's data processing and validation procedures.
#
#######################################################################

data_VOFGII
_symmetry_cell_setting           triclinic
_symmetry_space_group_name_H-M   'P -1'
_symmetry_Int_Tables_number      2
_space_group_name_Hall           '-P 1'
loop_
_symmetry_equiv_pos_site_id
_symmetry_equiv_pos_as_xyz
1 x,y,z
2 -x,-y,-z
_cell_length_a                   10.0167(5)
_cell_length_b                   10.3882(5)
_cell_length_c                   11.9528(5)
_cell_angle_alpha                90.132(3)
_cell_angle_beta                 107.246(3)
_cell_angle_gamma                111.158(3)
_cell_volume                     1099.39
loop_
_atom_site_label
_atom_site_type_symbol
_atom_site_fract_x
_atom_site_fract_y
_atom_site_fract_z
Ni1 Ni 0.10909(6) 0.65927(5) 0.02037(5)
Ni2 Ni -0.52061(6) 0.44181(6) 0.12504(5)
Ni3 Ni -0.02826(6) 0.91420(5) 0.11143(4)
P1 P 0.14508(12) 1.24197(10) 0.16328(9)
P2 P -0.19050(11) 0.57155(10) 0.11237(9)
O1 O 0.0303(3) 1.3108(3) 0.1325(2)
O2 O 0.3095(3) 0.7810(3) -0.0126(3)
H1 H 0.331(6) 0.860(5) 0.044(5)
H2 H 0.397(4) 0.766(6) -0.024(5)
O3 O 0.2325(4) 0.6148(3) 0.1820(3)
H3 H 0.166(4) 0.523(3) 0.185(4)
H4 H 0.342(2) 0.650(5) 0.202(4)
O4 O 0.1513(3) 0.8554(3) 0.1164(2)
O5 O -0.0842(3) 0.5375(3) 0.0587(2)
O6 O -0.1430(3) 0.7234(3) 0.1510(2)
O7 O -0.1969(3) 0.9914(3) 0.1137(3)
H5 H -0.229(5) 0.985(4) 0.184(2)
H6 H -0.191(6) 1.071(4) 0.070(3)
O8 O 0.1051(3) 1.1180(3) 0.0718(2)
O9 O -0.3570(3) 0.5078(3) 0.0324(2)
O10 O -0.4717(3) 0.6311(3) 0.2133(3)
O11 O 0.3064(3) 1.3438(3) 0.1910(2)
O12 O -0.5668(4) 0.2468(3) 0.0280(3)
H7 H -0.597(8) 0.168(5) 0.071(5)
H8 H -0.629(9) 0.257(9) -0.051(5)
O13 O 0.3986(4) 0.9771(3) 0.1679(3)
O14 O -0.3515(5) 0.7688(4) 0.3847(3)
N1 N 0.1191(4) 1.0138(3) 0.2863(3)
C1 C 0.2708(5) 1.0112(4) 0.2973(4)
H9 H 0.3470 1.1062 0.3181
C2 C 0.3039(6) 0.9249(5) 0.3985(4)
H10 H 0.3532 0.8661 0.3807
H11 H 0.3677 0.9846 0.4718
C3 C 0.1492(6) 0.8381(5) 0.4062(4)
H12 H 0.0979 0.7574 0.3469
H13 H 0.1560 0.8079 0.4838
C4 C 0.0704(5) 0.9401(5) 0.3832(4)
H14 H -0.0384 0.8917 0.3586
H15 H 0.1018 1.0049 0.4533
C5 C 0.1239(5) 1.1585(4) 0.2952(3)
H16 H 0.2077 1.2130 0.3635
H17 H 0.0316 1.1568 0.3069
C6 C 0.2749(5) 0.9456(4) 0.1854(4)
N2 N -0.3216(4) 0.4544(3) 0.2794(3)
C7 C -0.2857(5) 0.5770(4) 0.3642(4)
H18 H -0.1788 0.6357 0.3809
C8 C -0.3062(7) 0.5183(6) 0.4783(4)
H19 H -0.2101 0.5264 0.5344
H20 H -0.3529 0.5661 0.5147
C9 C -0.4098(7) 0.3657(5) 0.4366(4)
H21 H -0.4003 0.3089 0.5005
H22 H -0.5146 0.3551 0.4033
C10 C -0.3520(5) 0.3300(5) 0.3455(4)
H23 H -0.4264 0.2475 0.2933
H24 H -0.2601 0.3135 0.3816
C11 C -0.1939(5) 0.4700(4) 0.2347(3)
H25 H -0.2003 0.3784 0.2100
H26 H -0.0998 0.5140 0.2985
C12 C -0.3777(5) 0.6655(5) 0.3170(4)
Ni1A Ni -0.10909(6) 0.34073(5) -0.02037(5)
Ni1A_2 Ni -0.10909(6) 1.34073(5) -0.02037(5)
Ni2_2 Ni 0.47939(6) 1.44181(6) 0.12504(5)
Ni2A Ni -0.47939(6) 0.55819(6) -0.12504(5)
Ni3A Ni 0.02826(6) 1.08580(5) -0.11143(4)
O1A O -0.0303(3) 0.6892(3) -0.1325(2)
O5A O 0.0842(3) 0.4625(3) -0.0587(2)
O8A O -0.1051(3) 0.8820(3) -0.0718(2)
O9A O -0.6430(3) 0.4922(3) -0.0324(2)
O11_2 O -0.6936(3) 0.3438(3) 0.1910(2)
O15 O -0.3032(4) 1.0092(4) 0.2886(3)
H27 H -0.332(6) 0.928(4) 0.334(4)
H28 H -0.390(5) 1.037(6) 0.246(5)
loop_
_geom_bond_atom_site_label_1
_geom_bond_atom_site_label_2
_geom_bond_site_symmetry_1
_geom_bond_site_symmetry_2
Ni1 O2 1_555 1_555
Ni2 O9 1_555 1_555
Ni3 O4 1_555 1_555
P1 O1 1_555 1_555
P2 O5 1_555 1_555
O1 Ni1A_2 1_555 1_555
O2 H1 1_555 1_555
H2 O2 1_555 1_555
O3 Ni1 1_555 1_555
H3 O3 1_555 1_555
H4 O3 1_555 1_555
O4 Ni1 1_555 1_555
O5 Ni1 1_555 1_555
O6 Ni3 1_555 1_555
O7 Ni3 1_555 1_555
H5 O7 1_555 1_555
H6 O7 1_555 1_555
O8 Ni3 1_555 1_555
O9 P2 1_555 1_555
O10 Ni2 1_555 1_555
O11 P1 1_555 1_555
O12 Ni2 1_555 1_555
H7 O12 1_555 1_555
H8 O12 1_555 1_555
O13 C6 1_555 1_555
O14 C12 1_555 1_555
N1 Ni3 1_555 1_555
C1 N1 1_555 1_555
H9 C1 1_555 1_555
C2 C1 1_555 1_555
H10 C2 1_555 1_555
H11 C2 1_555 1_555
C3 C2 1_555 1_555
H12 C3 1_555 1_555
H13 C3 1_555 1_555
C4 N1 1_555 1_555
H14 C4 1_555 1_555
H15 C4 1_555 1_555
C5 P1 1_555 1_555
H16 C5 1_555 1_555
H17 C5 1_555 1_555
C6 O4 1_555 1_555
N2 Ni2 1_555 1_555
C7 N2 1_555 1_555
H18 C7 1_555 1_555
C8 C7 1_555 1_555
H19 C8 1_555 1_555
H20 C8 1_555 1_555
C9 C8 1_555 1_555
H21 C9 1_555 1_555
H22 C9 1_555 1_555
C10 N2 1_555 1_555
H23 C10 1_555 1_555
H24 C10 1_555 1_555
C11 P2 1_555 1_555
H25 C11 1_555 1_555
H26 C11 1_555 1_555
C12 O10 1_555 1_555
O15 H27 1_555 1_555
H28 O15 1_555 1_555
Ni1A O5 1_555 1_555
Ni2_2 O11 1_555 1_555
Ni2A O9 1_555 1_555
Ni3A O8 1_555 1_555
O1A Ni1 1_555 1_555
O5A Ni1 1_555 1_555
O8A Ni3 1_555 1_555
O9A Ni2 1_555 1_555
O11_2 Ni2 1_555 1_555
P1 O8 1_555 1_555
P2 O6 1_555 1_555
N1 C5 1_555 1_555
C1 C6 1_555 1_555
C3 C4 1_555 1_555
N2 C11 1_555 1_555
C7 C12 1_555 1_555
C9 C10 1_555 1_555
Ni1A O5A 1_555 1_555
Ni2A O9A 1_555 1_555
Ni3A O8A 1_555 1_555

#END
