
#######################################################################
#
#                 Cambridge Crystallographic Data Centre
#                                CCDC 
#
#######################################################################
#
# If this CIF has been generated from an entry in the Cambridge 
# Structural Database, then it will include bibliographic, chemical, 
# crystal, experimental, refinement or atomic coordinate data resulting 
# from the CCDC's data processing and validation procedures.
#
#######################################################################

data_VOFMUA
_symmetry_cell_setting           triclinic
_symmetry_space_group_name_H-M   'P -1'
_symmetry_Int_Tables_number      2
_space_group_name_Hall           '-P 1'
loop_
_symmetry_equiv_pos_site_id
_symmetry_equiv_pos_as_xyz
1 x,y,z
2 -x,-y,-z
_cell_length_a                   9.9036(4)
_cell_length_b                   9.9448(4)
_cell_length_c                   13.9265(6)
_cell_angle_alpha                75.321(4)
_cell_angle_beta                 76.496(4)
_cell_angle_gamma                81.470(3)
_cell_volume                     1284.35
loop_
_atom_site_label
_atom_site_type_symbol
_atom_site_fract_x
_atom_site_fract_y
_atom_site_fract_z
Cd1 Cd 0.51489(2) 0.91259(2) 0.139544(18)
C1 C 0.0536(3) 0.9848(3) 0.2229(3)
H1 H -0.0375 0.9766 0.2197
C2 C 0.2282(3) 1.0342(3) 0.2672(3)
H2 H 0.2834 1.0664 0.3006
C3 C -0.0037(3) 1.1107(3) 0.3655(3)
C4 C 0.0529(3) 1.1767(3) 0.4198(3)
H3 H 0.1487 1.1815 0.4068
C5 C -0.0349(4) 1.2365(3) 0.4947(3)
C6 C -0.1767(4) 1.2315(4) 0.5121(3)
H4 H -0.2360 1.2731 0.5611
C7 C -0.2294(4) 1.1643(4) 0.4565(3)
H5 H -0.3253 1.1600 0.4688
C8 C -0.1444(3) 1.1027(4) 0.3826(3)
H6 H -0.1816 1.0572 0.3455
C9 C -0.0525(4) 1.3637(4) 0.6235(3)
H7 H -0.1131 1.3002 0.6737
H8 H -0.1092 1.4444 0.5935
C10 C 0.0512(4) 1.4066(4) 0.6702(3)
H9 H 0.1109 1.3260 0.6968
H10 H 0.1091 1.4730 0.6202
C11 C 0.0407(4) 1.5356(3) 0.7960(3)
C12 C -0.0429(3) 1.6029(3) 0.8676(3)
H11 H -0.1388 1.5980 0.8832
C13 C 0.0154(3) 1.6767(3) 0.9154(3)
C14 C 0.1562(4) 1.6861(5) 0.8926(3)
H12 H 0.1960 1.7378 0.9240
C15 C 0.2374(4) 1.6170(6) 0.8220(4)
H13 H 0.3334 1.6220 0.8063
C16 C 0.1814(4) 1.5411(4) 0.7742(3)
H14 H 0.2385 1.4941 0.7276
C17 C -0.2115(3) 1.7644(3) 1.0127(3)
H15 H -0.2692 1.7260 0.9849
C18 C -0.0337(4) 1.8204(4) 1.0475(3)
H16 H 0.0582 1.8287 1.0487
C19 C 0.5145(3) 1.3562(3) 0.0337(2)
C20 C 0.4393(3) 1.4389(3) 0.0987(2)
H17 H 0.3989 1.3976 0.1650
C21 C 0.5755(3) 1.4176(3) -0.0647(2)
H18 H 0.6265 1.3623 -0.1080
C22 C 0.5284(3) 1.1995(3) 0.0700(3)
C23 C 0.5093(3) 0.6026(3) 0.4103(2)
C24 C 0.4536(3) 0.4787(3) 0.4194(2)
H19 H 0.4225 0.4641 0.3652
C25 C 0.4441(3) 0.3770(3) 0.5087(3)
H20 H 0.4063 0.2945 0.5143
C26 C 0.5138(3) 0.7148(3) 0.3145(3)
N1 N 0.2767(3) 0.9709(2) 0.1937(2)
N2 N 0.1641(3) 0.9374(3) 0.1648(2)
N3 N 0.0881(3) 1.0476(3) 0.2889(2)
N4 N -0.0709(2) 1.7483(2) 0.9890(2)
N5 N -0.2560(2) 1.8400(2) 1.0789(2)
N6 N -0.1409(3) 1.8766(3) 1.1016(3)
O1 O 0.0303(2) 1.2960(3) 0.5477(2)
O2 O -0.0287(3) 1.4694(3) 0.7502(2)
O3 O 0.5228(2) 1.14670(19) 0.16194(17)
O4 O 0.5404(2) 1.12611(18) 0.00721(17)
O5 O 0.5488(2) 0.8323(2) 0.31074(17)
O6 O 0.4814(3) 0.6873(2) 0.24054(19)
C19A C 0.4855(3) 1.6438(3) -0.0337(2)
C20A C 0.5607(3) 1.5611(3) -0.0987(2)
H17A H 0.6011 1.6024 -0.1650
C21A C 0.4245(3) 1.5824(3) 0.0647(2)
H18A H 0.3735 1.6377 0.1080
C22A C 0.4716(3) 1.8005(3) -0.0700(3)
O3A O 0.4772(2) 1.85330(19) -0.16194(17)
O4A O 0.4596(2) 1.87389(18) -0.00721(17)
C23A C 0.4907(3) 0.3974(3) 0.5897(2)
C24A C 0.5464(3) 0.5213(3) 0.5806(2)
H19A H 0.5775 0.5359 0.6348
C25A C 0.5559(3) 0.6230(3) 0.4913(3)
H20A H 0.5937 0.7055 0.4857
C26A C 0.4862(3) 0.2852(3) 0.6855(3)
O5A O 0.4512(2) 0.1677(2) 0.68926(17)
O6A O 0.5186(3) 0.3127(2) 0.75946(19)
Cd1A Cd 0.48511(2) 0.08741(2) 0.860456(18)
C1A C 0.9464(3) 0.0152(3) 0.7771(3)
H1A H 1.0375 0.0234 0.7803
C2A C 0.7718(3) -0.0342(3) 0.7328(3)
H2A H 0.7166 -0.0664 0.6994
C3A C 1.0037(3) -0.1107(3) 0.6345(3)
C4A C 0.9471(3) -0.1767(3) 0.5802(3)
H3A H 0.8513 -0.1815 0.5932
C5A C 1.0349(4) -0.2365(3) 0.5053(3)
C6A C 1.1767(4) -0.2315(4) 0.4879(3)
H4A H 1.2360 -0.2731 0.4389
C7A C 1.2294(4) -0.1643(4) 0.5435(3)
H5A H 1.3253 -0.1600 0.5312
C8A C 1.1444(3) -0.1027(4) 0.6174(3)
H6A H 1.1816 -0.0572 0.6545
C9A C 1.0525(4) -0.3637(4) 0.3765(3)
H7A H 1.1131 -0.3002 0.3263
H8A H 1.1092 -0.4444 0.4065
C10A C 0.9488(4) -0.4066(4) 0.3298(3)
H9A H 0.8891 -0.3260 0.3032
H10A H 0.8909 -0.4730 0.3798
C11A C 0.9593(4) -0.5356(3) 0.2040(3)
C12A C 1.0429(3) -0.6029(3) 0.1324(3)
H11A H 1.1388 -0.5980 0.1168
C13A C 0.9846(3) -0.6767(3) 0.0846(3)
C14A C 0.8438(4) -0.6861(5) 0.1074(3)
H12A H 0.8040 -0.7378 0.0760
C15A C 0.7626(4) -0.6170(6) 0.1780(4)
H13A H 0.6666 -0.6220 0.1937
C16A C 0.8186(4) -0.5411(4) 0.2258(3)
H14A H 0.7615 -0.4941 0.2724
C17A C 1.2115(3) -0.7644(3) -0.0127(3)
H15A H 1.2692 -0.7260 0.0151
C18A C 1.0337(4) -0.8204(4) -0.0475(3)
H16A H 0.9418 -0.8287 -0.0487
N1A N 0.7233(3) 0.0291(2) 0.8063(2)
N2A N 0.8359(3) 0.0626(3) 0.8352(2)
N3A N 0.9119(3) -0.0476(3) 0.7111(2)
N4A N 1.0709(2) -0.7483(2) 0.0110(2)
N5A N 1.2560(2) -0.8400(2) -0.0789(2)
N6A N 1.1409(3) -0.8766(3) -0.1016(3)
O1A O 0.9697(2) -0.2960(3) 0.4523(2)
O2A O 1.0287(3) -0.4694(3) 0.2498(2)
Cd1_2 Cd -0.48511(2) 1.91259(2) 1.139544(18)
Cd1_3 Cd 0.51489(2) 1.91259(2) 0.139544(18)
Cd1A_2 Cd 0.48511(2) 1.08741(2) -0.139544(18)
Cd1A_3 Cd 0.48511(2) 2.08741(2) -0.139544(18)
Cd1A_4 Cd 1.48511(2) -0.91259(2) -0.139544(18)
N5_2 N 0.7440(2) 0.8400(2) 0.0789(2)
N5A_2 N 0.2560(2) 0.1600(2) 0.9211(2)
O3A_2 O 0.4772(2) -0.14670(19) 0.83806(17)
O4_2 O 0.5404(2) 0.12611(18) 1.00721(17)
O4A_2 O 0.4596(2) -0.12611(18) 0.99279(17)
O4A_3 O 0.4596(2) 0.87389(18) -0.00721(17)
O7 O 0.4740(4) 1.0924(4) 0.3820(3)
loop_
_geom_bond_atom_site_label_1
_geom_bond_atom_site_label_2
_geom_bond_site_symmetry_1
_geom_bond_site_symmetry_2
Cd1 N1 1_555 1_555
C1 H1 1_555 1_555
C2 H2 1_555 1_555
C3 C4 1_555 1_555
C4 H3 1_555 1_555
C5 C4 1_555 1_555
C6 C5 1_555 1_555
H4 C6 1_555 1_555
C7 C6 1_555 1_555
H5 C7 1_555 1_555
C8 C3 1_555 1_555
H6 C8 1_555 1_555
C9 H7 1_555 1_555
H8 C9 1_555 1_555
C10 C9 1_555 1_555
H9 C10 1_555 1_555
H10 C10 1_555 1_555
C11 C12 1_555 1_555
C12 H11 1_555 1_555
C13 C12 1_555 1_555
C14 C13 1_555 1_555
H12 C14 1_555 1_555
C15 C14 1_555 1_555
H13 C15 1_555 1_555
C16 C11 1_555 1_555
H14 C16 1_555 1_555
C17 H15 1_555 1_555
C18 H16 1_555 1_555
C19 C20 1_555 1_555
C20 H17 1_555 1_555
C21 C19 1_555 1_555
H18 C21 1_555 1_555
C22 C19 1_555 1_555
C23 C24 1_555 1_555
C24 H19 1_555 1_555
C25 C24 1_555 1_555
H20 C25 1_555 1_555
C26 C23 1_555 1_555
N1 C2 1_555 1_555
N2 C1 1_555 1_555
N3 C1 1_555 1_555
N4 C13 1_555 1_555
N5 C17 1_555 1_555
N6 C18 1_555 1_555
O1 C5 1_555 1_555
O2 C10 1_555 1_555
O3 Cd1 1_555 1_555
O4 Cd1 1_555 1_555
O5 Cd1 1_555 1_555
O6 Cd1 1_555 1_555
C19A C20A 1_555 1_555
C20A C21 1_555 1_555
H17A C20A 1_555 1_555
C21A C20 1_555 1_555
H18A C21A 1_555 1_555
C22A C19A 1_555 1_555
O3A C22A 1_555 1_555
O4A C22A 1_555 1_555
C23A C25 1_555 1_555
C24A C23A 1_555 1_555
H19A C24A 1_555 1_555
C25A C23 1_555 1_555
H20A C25A 1_555 1_555
C26A C23A 1_555 1_555
O5A C26A 1_555 1_555
O6A C26A 1_555 1_555
Cd1A O5A 1_555 1_555
C1A H1A 1_555 1_555
C2A H2A 1_555 1_555
C3A C4A 1_555 1_555
C4A H3A 1_555 1_555
C5A C4A 1_555 1_555
C6A C5A 1_555 1_555
H4A C6A 1_555 1_555
C7A C6A 1_555 1_555
H5A C7A 1_555 1_555
C8A C3A 1_555 1_555
H6A C8A 1_555 1_555
C9A H7A 1_555 1_555
H8A C9A 1_555 1_555
C10A C9A 1_555 1_555
H9A C10A 1_555 1_555
H10A C10A 1_555 1_555
C11A C12A 1_555 1_555
C12A H11A 1_555 1_555
C13A C12A 1_555 1_555
C14A C13A 1_555 1_555
H12A C14A 1_555 1_555
C15A C14A 1_555 1_555
H13A C15A 1_555 1_555
C16A C11A 1_555 1_555
H14A C16A 1_555 1_555
C17A H15A 1_555 1_555
C18A H16A 1_555 1_555
N1A Cd1A 1_555 1_555
N2A C1A 1_555 1_555
N3A C1A 1_555 1_555
N4A C13A 1_555 1_555
N5A C17A 1_555 1_555
N6A C18A 1_555 1_555
O1A C5A 1_555 1_555
O2A C10A 1_555 1_555
Cd1_2 N5 1_555 1_555
Cd1_3 O4A 1_555 1_555
Cd1A_2 O4 1_555 1_555
Cd1A_3 O3A 1_555 1_555
Cd1A_4 N5A 1_555 1_555
N5_2 Cd1 1_555 1_555
N5A_2 Cd1A 1_555 1_555
O3A_2 Cd1A 1_555 1_555
O4_2 Cd1A 1_555 1_555
O4A_2 Cd1A 1_555 1_555
O4A_3 Cd1 1_555 1_555
C2 N3 1_555 1_555
C3 N3 1_555 1_555
C7 C8 1_555 1_555
C9 O1 1_555 1_555
C11 O2 1_555 1_555
C15 C16 1_555 1_555
C17 N4 1_555 1_555
C18 N4 1_555 1_555
C22 O3 1_555 1_555
C22 O4 1_555 1_555
C26 O5 1_555 1_555
C26 O6 1_555 1_555
N1 N2 1_555 1_555
N5 N6 1_555 1_555
C19A C21A 1_555 1_555
O4A Cd1A_3 1_555 1_555
C24A C25A 1_555 1_555
O6A Cd1A 1_555 1_555
C2A N1A 1_555 1_555
C2A N3A 1_555 1_555
C3A N3A 1_555 1_555
C7A C8A 1_555 1_555
C9A O1A 1_555 1_555
C11A O2A 1_555 1_555
C15A C16A 1_555 1_555
C17A N4A 1_555 1_555
C18A N4A 1_555 1_555
N1A N2A 1_555 1_555
N5A N6A 1_555 1_555
Cd1A_2 O4A_3 1_555 1_555

#END
