
#######################################################################
#
#                 Cambridge Crystallographic Data Centre
#                                CCDC 
#
#######################################################################
#
# If this CIF has been generated from an entry in the Cambridge 
# Structural Database, then it will include bibliographic, chemical, 
# crystal, experimental, refinement or atomic coordinate data resulting 
# from the CCDC's data processing and validation procedures.
#
#######################################################################

data_VOFNAH
_symmetry_cell_setting           triclinic
_symmetry_space_group_name_H-M   'P -1'
_symmetry_Int_Tables_number      2
_space_group_name_Hall           '-P 1'
loop_
_symmetry_equiv_pos_site_id
_symmetry_equiv_pos_as_xyz
1 x,y,z
2 -x,-y,-z
_cell_length_a                   7.5009(7)
_cell_length_b                   9.6296(6)
_cell_length_c                   10.3322(9)
_cell_angle_alpha                92.856(6)
_cell_angle_beta                 108.841(8)
_cell_angle_gamma                111.401(7)
_cell_volume                     645.599
loop_
_atom_site_label
_atom_site_type_symbol
_atom_site_fract_x
_atom_site_fract_y
_atom_site_fract_z
Zn1 Zn 0.26486(7) 0.45830(5) 0.06448(6)
C1 C 0.4626(9) 0.6610(7) 0.4644(6)
H1 H 0.4645 0.6592 0.5548
C2 C 0.5281(6) 0.7371(5) 0.2871(5)
H2 H 0.5825 0.7968 0.2299
C3 C 0.7163(7) 0.9262(8) 0.5068(6)
C4 C 0.7414(7) 1.0505(7) 0.4458(7)
H3 H 0.6697 1.0412 0.3515
C5 C 0.8755(8) 1.1900(8) 0.5278(8)
C6 C 0.9810(8) 1.2057(9) 0.6711(7)
H4 H 1.0698 1.3008 0.7262
C7 C 0.9498(9) 1.0795(11) 0.7258(8)
H5 H 1.0190 1.0881 0.8204
C8 C 0.8200(7) 0.9396(8) 0.6472(5)
H6 H 0.8012 0.8538 0.6876
C9 C 1.0223(11) 1.4447(7) 0.5466(8)
H7 H 1.1652 1.4586 0.5751
H8 H 0.9884 1.4547 0.6286
C10 C 0.4822(5) 0.1342(4) 0.0402(4)
C11 C 0.6640(5) 0.1421(4) 0.0253(4)
C12 C 0.3224(5) -0.0079(4) 0.0138(4)
H9 H 0.2010 -0.0129 0.0230
C13 C 0.4445(5) 0.2700(4) 0.0818(5)
C14 C 0.8424(5) 0.2919(4) 0.0490(4)
N1 N 0.3927(5) 0.5982(4) 0.2469(4)
N2 N 0.3499(6) 0.5490(5) 0.3613(5)
N3 N 0.5781(5) 0.7820(5) 0.4237(4)
O1 O 0.8923(6) 1.3072(6) 0.4581(5)
O2 O 0.3755(3) 0.3341(3) -0.0159(3)
O3 O 0.4638(5) 0.3051(3) 0.2022(3)
O4 O 0.8179(3) 0.4130(3) 0.0669(3)
O5 O 1.0054(4) 0.2850(3) 0.0476(3)
C1A C 1.5374(9) 2.3390(7) 0.5356(6)
H1A H 1.5355 2.3408 0.4452
C2A C 1.4719(6) 2.2629(5) 0.7129(5)
H2A H 1.4175 2.2032 0.7701
C3A C 1.2837(7) 2.0738(8) 0.4932(6)
C4A C 1.2586(7) 1.9495(7) 0.5542(7)
H3A H 1.3303 1.9588 0.6485
C5A C 1.1245(8) 1.8100(8) 0.4722(8)
C6A C 1.0190(8) 1.7943(9) 0.3289(7)
H4A H 0.9302 1.6992 0.2738
C7A C 1.0502(9) 1.9205(11) 0.2742(8)
H5A H 0.9810 1.9119 0.1796
C8A C 1.1800(7) 2.0604(8) 0.3528(5)
H6A H 1.1988 2.1462 0.3124
C9A C 0.9777(11) 1.5553(7) 0.4534(8)
H7A H 0.8348 1.5414 0.4249
H8A H 1.0116 1.5453 0.3714
N1A N 1.6073(5) 2.4018(4) 0.7531(4)
N2A N 1.6501(6) 2.4510(5) 0.6387(5)
N3A N 1.4219(5) 2.2180(5) 0.5763(4)
O1A O 1.1077(6) 1.6928(6) 0.5419(5)
C10A C 0.5178(5) -0.1342(4) -0.0402(4)
C11A C 0.3360(5) -0.1421(4) -0.0253(4)
C12A C 0.6776(5) 0.0079(4) -0.0138(4)
H9A H 0.7990 0.0129 -0.0230
C13A C 0.5555(5) -0.2700(4) -0.0818(5)
C14A C 0.1576(5) -0.2919(4) -0.0490(4)
O2A O 0.6245(3) -0.3341(3) 0.0159(3)
O3A O 0.5362(5) -0.3051(3) -0.2022(3)
O4A O 0.1821(3) -0.4130(3) -0.0669(3)
O5A O -0.0054(4) -0.2850(3) -0.0476(3)
Zn1A Zn -0.26486(7) -0.45830(5) -0.06448(6)
Zn1_2 Zn 0.26486(7) -0.54170(5) 0.06448(6)
Zn1_3 Zn 1.26486(7) 0.45830(5) 0.06448(6)
Zn1A_2 Zn 0.73514(7) -0.45830(5) -0.06448(6)
Zn1A_3 Zn 0.73514(7) 0.54170(5) -0.06448(6)
Zn1A_4 Zn 1.73514(7) 2.54170(5) 0.93552(6)
N1A_2 N -0.3927(5) -0.5982(4) -0.2469(4)
O2A_2 O -0.3755(3) -0.3341(3) 0.0159(3)
O4_2 O -0.1821(3) -0.5870(3) 0.0669(3)
O4A_2 O 0.1821(3) 0.5870(3) -0.0669(3)
O5_2 O 0.0054(4) 0.2850(3) 0.0476(3)
loop_
_geom_bond_atom_site_label_1
_geom_bond_atom_site_label_2
_geom_bond_site_symmetry_1
_geom_bond_site_symmetry_2
Zn1 N1 1_555 1_555
C1 H1 1_555 1_555
C2 H2 1_555 1_555
C3 C4 1_555 1_555
C4 H3 1_555 1_555
C5 C4 1_555 1_555
C6 C5 1_555 1_555
H4 C6 1_555 1_555
C7 C6 1_555 1_555
H5 C7 1_555 1_555
C8 C3 1_555 1_555
H6 C8 1_555 1_555
C9 H7 1_555 1_555
H8 C9 1_555 1_555
C10 C11 1_555 1_555
C11 C14 1_555 1_555
C12 C10 1_555 1_555
H9 C12 1_555 1_555
C13 C10 1_555 1_555
C14 O4 1_555 1_555
N1 C2 1_555 1_555
N2 C1 1_555 1_555
N3 C1 1_555 1_555
O1 C5 1_555 1_555
O2 Zn1 1_555 1_555
O3 C13 1_555 1_555
O4 Zn1A_3 1_555 1_555
O5 C14 1_555 1_555
C1A H1A 1_555 1_555
C2A H2A 1_555 1_555
C3A C4A 1_555 1_555
C4A H3A 1_555 1_555
C5A C4A 1_555 1_555
C6A C5A 1_555 1_555
H4A C6A 1_555 1_555
C7A C6A 1_555 1_555
H5A C7A 1_555 1_555
C8A C3A 1_555 1_555
H6A C8A 1_555 1_555
C9A C9 1_555 1_555
H7A C9A 1_555 1_555
H8A C9A 1_555 1_555
N1A C2A 1_555 1_555
N2A C1A 1_555 1_555
N3A C1A 1_555 1_555
O1A C5A 1_555 1_555
C10A C11A 1_555 1_555
C11A C12 1_555 1_555
C12A C11 1_555 1_555
H9A C12A 1_555 1_555
C13A C10A 1_555 1_555
C14A C11A 1_555 1_555
O2A C13A 1_555 1_555
O3A C13A 1_555 1_555
O4A C14A 1_555 1_555
O5A C14A 1_555 1_555
Zn1A O5A 1_555 1_555
Zn1_2 O4A 1_555 1_555
Zn1_3 O5 1_555 1_555
Zn1A_2 O2A 1_555 1_555
Zn1A_4 N1A 1_555 1_555
N1A_2 Zn1A 1_555 1_555
O2A_2 Zn1A 1_555 1_555
O4_2 Zn1A 1_555 1_555
O4A_2 Zn1 1_555 1_555
O5_2 Zn1 1_555 1_555
C2 N3 1_555 1_555
C3 N3 1_555 1_555
C7 C8 1_555 1_555
C9 O1 1_555 1_555
C13 O2 1_555 1_555
N1 N2 1_555 1_555
C2A N3A 1_555 1_555
C3A N3A 1_555 1_555
C7A C8A 1_555 1_555
C9A O1A 1_555 1_555
N1A N2A 1_555 1_555
C10A C12A 1_555 1_555

#END
