
#######################################################################
#
#                 Cambridge Crystallographic Data Centre
#                                CCDC 
#
#######################################################################
#
# If this CIF has been generated from an entry in the Cambridge 
# Structural Database, then it will include bibliographic, chemical, 
# crystal, experimental, refinement or atomic coordinate data resulting 
# from the CCDC's data processing and validation procedures.
#
#######################################################################

data_VOFNUB
_symmetry_cell_setting           monoclinic
_symmetry_space_group_name_H-M   'P 21/n'
_symmetry_Int_Tables_number      14
_space_group_name_Hall           '-P 2yn'
loop_
_symmetry_equiv_pos_site_id
_symmetry_equiv_pos_as_xyz
1 x,y,z
2 1/2-x,1/2+y,1/2-z
3 -x,-y,-z
4 1/2+x,1/2-y,1/2+z
_cell_length_a                   13.1229(4)
_cell_length_b                   11.3044(2)
_cell_length_c                   15.9681(4)
_cell_angle_alpha                90
_cell_angle_beta                 109.751(3)
_cell_angle_gamma                90
_cell_volume                     2229.45
loop_
_atom_site_label
_atom_site_type_symbol
_atom_site_fract_x
_atom_site_fract_y
_atom_site_fract_z
Cd1 Cd 0.839771(14) -0.082339(14) 0.318785(11)
C1 C 0.8452(2) 0.1153(2) 0.55118(17)
H1 H 0.8681 0.1279 0.6123
C2 C 0.7706(2) 0.1408(2) 0.41048(17)
H2 H 0.7322 0.1726 0.3551
C3 C 0.7444(2) 0.3063(2) 0.50542(16)
C4 C 0.6458(2) 0.3486(2) 0.44985(17)
H3 H 0.6024 0.3020 0.4035
C5 C 0.6125(2) 0.4603(2) 0.46358(18)
H4 H 0.5461 0.4888 0.4264
C6 C 0.6767(2) 0.5304(2) 0.53205(19)
C7 C 0.7732(2) 0.4854(2) 0.58999(19)
H5 H 0.8151 0.5306 0.6380
C8 C 0.8070(2) 0.3733(2) 0.57628(18)
H6 H 0.8718 0.3432 0.6148
C9 C 0.7164(3) 0.7250(3) 0.5872(2)
H7 H 0.7809 0.7197 0.5707
H8 H 0.7365 0.7076 0.6502
C10 C 0.6698(3) 0.8479(3) 0.5688(2)
H9 H 0.7273 0.9059 0.5893
H10 H 0.6340 0.8586 0.5054
C11 C 0.5708(2) 0.9782(2) 0.63134(19)
C12 C 0.5137(3) 0.9927(3) 0.6894(2)
H11 H 0.4894 0.9267 0.7119
C13 C 0.4929(3) 1.1044(2) 0.7139(2)
H12 H 0.4552 1.1138 0.7534
C14 C 0.5280(2) 1.2025(2) 0.67999(18)
C15 C 0.5792(3) 1.1887(3) 0.6189(2)
H13 H 0.5996 1.2548 0.5937
C16 C 0.6010(3) 1.0761(2) 0.5945(2)
H14 H 0.6361 1.0671 0.5531
C17 C 0.4286(2) 1.3622(2) 0.73056(18)
H15 H 0.3651 1.3208 0.7241
C18 C 0.5859(2) 1.4094(2) 0.72901(19)
H16 H 0.6530 1.4061 0.7213
C19 C 0.58072(18) -0.01684(19) 0.08234(15)
C20 C 0.55470(19) 0.09760(19) 0.04911(15)
C21 C 0.47481(19) 0.1123(2) -0.03320(15)
H17 H 0.4580 0.1883 -0.0561
C22 C 0.66902(18) -0.0371(2) 0.17007(15)
C23 C 0.6056(2) 0.2080(2) 0.09969(16)
N1 N 0.82074(18) 0.03945(18) 0.42365(14)
N2 N 0.86881(19) 0.02211(19) 0.51410(14)
N3 N 0.78272(16) 0.19275(17) 0.48957(13)
N4 N 0.51325(17) 1.31922(18) 0.70971(14)
N5 N 0.44876(17) 1.47000(19) 0.76102(14)
N6 N 0.54982(18) 1.5011(2) 0.75967(15)
O1 O 0.63865(16) 0.64187(18) 0.53755(15)
O2 O 0.59326(18) 0.86432(17) 0.61455(15)
O3 O 0.70452(15) -0.14048(14) 0.18999(11)
O4 O 0.70347(15) 0.04888(15) 0.22074(11)
O5 O 0.55342(14) 0.25789(15) 0.14352(13)
O6 O 0.69023(15) 0.24863(16) 0.09338(12)
C19B C 0.41928(18) 0.01684(19) -0.08234(15)
C20B C 0.44530(19) -0.09760(19) -0.04911(15)
C21B C 0.52519(19) -0.1123(2) 0.03320(15)
H17B H 0.5420 -0.1883 0.0561
C22B C 0.33098(18) 0.0371(2) -0.17007(15)
C23B C 0.3944(2) -0.2080(2) -0.09969(16)
O3B O 0.29548(15) 0.14048(14) -0.18999(11)
O4B O 0.29653(15) -0.04888(15) -0.22074(11)
O5B O 0.44658(14) -0.25789(15) -0.14352(13)
O6B O 0.30977(15) -0.24863(16) -0.09338(12)
Cd1B Cd 0.160229(14) 0.082339(14) -0.318785(11)
C1B C 0.1548(2) -0.1153(2) -0.55118(17)
H1B H 0.1319 -0.1279 -0.6123
C2B C 0.2294(2) -0.1408(2) -0.41048(17)
H2B H 0.2678 -0.1726 -0.3551
C3B C 0.2556(2) -0.3063(2) -0.50542(16)
C4B C 0.3542(2) -0.3486(2) -0.44985(17)
H3B H 0.3976 -0.3020 -0.4035
C5B C 0.3875(2) -0.4603(2) -0.46358(18)
H4B H 0.4539 -0.4888 -0.4264
C6B C 0.3233(2) -0.5304(2) -0.53205(19)
C7B C 0.2268(2) -0.4854(2) -0.58999(19)
H5B H 0.1849 -0.5306 -0.6380
C8B C 0.1930(2) -0.3733(2) -0.57628(18)
H6B H 0.1282 -0.3432 -0.6148
C9B C 0.2836(3) -0.7250(3) -0.5872(2)
H7B H 0.2191 -0.7197 -0.5707
H8B H 0.2635 -0.7076 -0.6502
C10B C 0.3302(3) -0.8479(3) -0.5688(2)
H9B H 0.2727 -0.9059 -0.5893
H10B H 0.3660 -0.8586 -0.5054
C11B C 0.4292(2) -0.9782(2) -0.63134(19)
C12B C 0.4863(3) -0.9927(3) -0.6894(2)
H11B H 0.5106 -0.9267 -0.7119
C13B C 0.5071(3) -1.1044(2) -0.7139(2)
H12B H 0.5448 -1.1138 -0.7534
C14B C 0.4720(2) -1.2025(2) -0.67999(18)
C15B C 0.4208(3) -1.1887(3) -0.6189(2)
H13B H 0.4004 -1.2548 -0.5937
C16B C 0.3990(3) -1.0761(2) -0.5945(2)
H14B H 0.3639 -1.0671 -0.5531
C17B C 0.5714(2) -1.3622(2) -0.73056(18)
H15B H 0.6349 -1.3208 -0.7241
C18B C 0.4141(2) -1.4094(2) -0.72901(19)
H16B H 0.3470 -1.4061 -0.7213
N1B N 0.17926(18) -0.03945(18) -0.42365(14)
N2B N 0.13119(19) -0.02211(19) -0.51410(14)
N3B N 0.21728(16) -0.19275(17) -0.48957(13)
N4B N 0.48675(17) -1.31922(18) -0.70971(14)
N5B N 0.55124(17) -1.47000(19) -0.76102(14)
N6B N 0.45018(18) -1.5011(2) -0.75967(15)
O1B O 0.36135(16) -0.64187(18) -0.53755(15)
O2B O 0.40674(18) -0.86432(17) -0.61455(15)
Cd1A Cd 0.660229(14) -1.582339(14) -0.818785(11)
Cd1A_2 Cd 0.660229(14) 0.417661(14) 0.181215(11)
Cd1C Cd 0.339771(14) -0.417661(14) -0.181215(11)
Cd1C_2 Cd 0.339771(14) 1.582339(14) 0.818785(11)
N5A N 0.05124(17) -0.03000(19) -0.26102(14)
N5C N 0.94876(17) 0.03000(19) 0.26102(14)
O5A O 0.94658(14) -0.24211(15) 0.35648(13)
O5C O 0.05342(14) 0.24211(15) -0.35648(13)
O6A O 0.80977(15) -0.25137(16) 0.40662(12)
O6C O 0.19023(15) 0.25137(16) -0.40662(12)
loop_
_geom_bond_atom_site_label_1
_geom_bond_atom_site_label_2
_geom_bond_site_symmetry_1
_geom_bond_site_symmetry_2
Cd1 N1 1_555 1_555
C1 H1 1_555 1_555
C2 H2 1_555 1_555
C3 C4 1_555 1_555
C4 H3 1_555 1_555
C5 C4 1_555 1_555
H4 C5 1_555 1_555
C6 C5 1_555 1_555
C7 C6 1_555 1_555
H5 C7 1_555 1_555
C8 C3 1_555 1_555
H6 C8 1_555 1_555
C9 H7 1_555 1_555
H8 C9 1_555 1_555
C10 C9 1_555 1_555
H9 C10 1_555 1_555
H10 C10 1_555 1_555
C11 C12 1_555 1_555
C12 H11 1_555 1_555
C13 C12 1_555 1_555
H12 C13 1_555 1_555
C14 C13 1_555 1_555
C15 C14 1_555 1_555
H13 C15 1_555 1_555
C16 C11 1_555 1_555
H14 C16 1_555 1_555
C17 H15 1_555 1_555
C18 H16 1_555 1_555
C19 C20 1_555 1_555
C20 C21 1_555 1_555
C21 H17 1_555 1_555
C22 C19 1_555 1_555
C23 C20 1_555 1_555
N1 C2 1_555 1_555
N2 C1 1_555 1_555
N3 C1 1_555 1_555
N4 C14 1_555 1_555
N5 C17 1_555 1_555
N6 C18 1_555 1_555
O1 C6 1_555 1_555
O2 C10 1_555 1_555
O3 Cd1 1_555 1_555
O4 Cd1 1_555 1_555
O5 C23 1_555 1_555
O6 C23 1_555 1_555
C19B C21 1_555 1_555
C20B C19B 1_555 1_555
C21B C19 1_555 1_555
H17B C21B 1_555 1_555
C22B C19B 1_555 1_555
C23B C20B 1_555 1_555
O3B C22B 1_555 1_555
O4B C22B 1_555 1_555
O5B C23B 1_555 1_555
O6B C23B 1_555 1_555
Cd1B O3B 1_555 1_555
C1B H1B 1_555 1_555
C2B H2B 1_555 1_555
C3B C4B 1_555 1_555
C4B H3B 1_555 1_555
C5B C4B 1_555 1_555
H4B C5B 1_555 1_555
C6B C5B 1_555 1_555
C7B C6B 1_555 1_555
H5B C7B 1_555 1_555
C8B C3B 1_555 1_555
H6B C8B 1_555 1_555
C9B H7B 1_555 1_555
H8B C9B 1_555 1_555
C10B C9B 1_555 1_555
H9B C10B 1_555 1_555
H10B C10B 1_555 1_555
C11B C12B 1_555 1_555
C12B H11B 1_555 1_555
C13B C12B 1_555 1_555
H12B C13B 1_555 1_555
C14B C13B 1_555 1_555
C15B C14B 1_555 1_555
H13B C15B 1_555 1_555
C16B C11B 1_555 1_555
H14B C16B 1_555 1_555
C17B H15B 1_555 1_555
C18B H16B 1_555 1_555
N1B Cd1B 1_555 1_555
N2B C1B 1_555 1_555
N3B C1B 1_555 1_555
N4B C14B 1_555 1_555
N5B C17B 1_555 1_555
N6B C18B 1_555 1_555
O1B C6B 1_555 1_555
O2B C10B 1_555 1_555
Cd1A N5B 1_555 1_555
Cd1A_2 O5 1_555 1_555
Cd1C O5B 1_555 1_555
Cd1C_2 N5 1_555 1_555
N5A Cd1B 1_555 1_555
N5C Cd1 1_555 1_555
O5A Cd1 1_555 1_555
O5C Cd1B 1_555 1_555
O6A Cd1 1_555 1_555
O6C Cd1B 1_555 1_555
C2 N3 1_555 1_555
C3 N3 1_555 1_555
C7 C8 1_555 1_555
C9 O1 1_555 1_555
C11 O2 1_555 1_555
C15 C16 1_555 1_555
C17 N4 1_555 1_555
C18 N4 1_555 1_555
C22 O3 1_555 1_555
C22 O4 1_555 1_555
N1 N2 1_555 1_555
N5 N6 1_555 1_555
O6 Cd1A_2 1_555 1_555
C20B C21B 1_555 1_555
O4B Cd1B 1_555 1_555
O6B Cd1C 1_555 1_555
C2B N1B 1_555 1_555
C2B N3B 1_555 1_555
C3B N3B 1_555 1_555
C7B C8B 1_555 1_555
C9B O1B 1_555 1_555
C11B O2B 1_555 1_555
C15B C16B 1_555 1_555
C17B N4B 1_555 1_555
C18B N4B 1_555 1_555
N1B N2B 1_555 1_555
N5B N6B 1_555 1_555

#END
