
#######################################################################
#
#                 Cambridge Crystallographic Data Centre
#                                CCDC 
#
#######################################################################
#
# If this CIF has been generated from an entry in the Cambridge 
# Structural Database, then it will include bibliographic, chemical, 
# crystal, experimental, refinement or atomic coordinate data resulting 
# from the CCDC's data processing and validation procedures.
#
#######################################################################

data_VOFNOV
_symmetry_cell_setting           orthorhombic
_symmetry_space_group_name_H-M   'P 21 21 21'
_symmetry_Int_Tables_number      19
_space_group_name_Hall           'P 2ac 2ab'
loop_
_symmetry_equiv_pos_site_id
_symmetry_equiv_pos_as_xyz
1 x,y,z
2 1/2-x,-y,1/2+z
3 1/2+x,1/2-y,-z
4 -x,1/2+y,1/2-z
_cell_length_a                   10.8285(2)
_cell_length_b                   16.4265(4)
_cell_length_c                   25.1152(6)
_cell_angle_alpha                90
_cell_angle_beta                 90
_cell_angle_gamma                90
_cell_volume                     4467.35
loop_
_atom_site_label
_atom_site_type_symbol
_atom_site_fract_x
_atom_site_fract_y
_atom_site_fract_z
Zn1 Zn 0.80140(3) 0.40168(2) 0.723096(15)
Zn2 Zn -0.84682(3) 0.44721(2) 0.217286(15)
C1 C 0.7139(4) 0.3721(3) 0.56459(16)
H1 H 0.7369 0.3707 0.5289
C2 C 0.6044(4) 0.3763(2) 0.63558(15)
H2 H 0.5378 0.3779 0.6589
C3 C 0.4842(4) 0.3678(2) 0.55032(15)
C4 C 0.3786(4) 0.4033(3) 0.56671(17)
H3 H 0.3773 0.4318 0.5987
C5 C 0.2708(4) 0.3978(3) 0.53616(17)
H4 H 0.1981 0.4226 0.5474
C6 C 0.2749(4) 0.3553(3) 0.48942(16)
C7 C 0.3810(4) 0.3174(4) 0.47305(18)
H5 H 0.3812 0.2873 0.4417
C8 C 0.4879(4) 0.3236(3) 0.50304(16)
H6 H 0.5606 0.2988 0.4918
C9 C 0.0654(4) 0.3838(3) 0.46910(18)
H7 H 0.0780 0.4422 0.4687
H8 H 0.0359 0.3678 0.5041
C10 C -0.0279(5) 0.3579(3) 0.42520(19)
H9 H 0.0036 0.3713 0.3901
H10 H -0.0436 0.2998 0.4268
C11 C -0.2366(4) 0.3883(3) 0.40448(15)
C12 C -0.2895(4) 0.3131(2) 0.39502(15)
H11 H -0.2506 0.2662 0.4072
C13 C -0.4000(3) 0.3071(2) 0.36757(14)
H12 H -0.4345 0.2564 0.3605
C14 C -0.4581(3) 0.37738(19) 0.35084(13)
C15 C -0.4051(4) 0.4524(2) 0.35884(15)
H13 H -0.4439 0.4993 0.3466
C16 C -0.2928(4) 0.4574(2) 0.38546(16)
H14 H -0.2556 0.5079 0.3904
C17 C -0.6231(3) 0.42549(19) 0.28805(13)
H15 H -0.5831 0.4717 0.2755
C18 C -0.6660(4) 0.3158(2) 0.32989(14)
H16 H -0.6596 0.2710 0.3524
C19 C 0.5963(4) 0.2735(2) 0.83134(14)
H17 H 0.5760 0.2272 0.8508
C20 C 0.5892(3) 0.3940(2) 0.79794(13)
H18 H 0.5655 0.4469 0.7896
C21 C 0.4111(3) 0.3569(2) 0.85664(13)
C22 C 0.3756(4) 0.4356(2) 0.86795(16)
H19 H 0.4254 0.4793 0.8584
C23 C 0.2638(4) 0.4481(2) 0.89398(16)
H20 H 0.2386 0.5009 0.9021
C24 C 0.1900(4) 0.3834(2) 0.90787(14)
C25 C 0.2254(4) 0.3055(2) 0.89521(15)
H21 H 0.1746 0.2618 0.9038
C26 C 0.3371(4) 0.2921(2) 0.86954(14)
H22 H 0.3617 0.2394 0.8611
C27 C -0.0209(4) 0.3547(3) 0.92898(18)
H23 H -0.0014 0.2974 0.9327
H24 H -0.0549 0.3639 0.8938
C28 C -0.1117(4) 0.3811(3) 0.97145(17)
H25 H -0.0826 0.3653 1.0065
H26 H -0.1229 0.4397 0.9708
C29 C -0.3245(4) 0.3573(2) 0.99029(15)
C30 C -0.3216(4) 0.4056(3) 1.03491(16)
H27 H -0.2485 0.4301 1.0458
C31 C -0.4306(4) 0.4172(3) 1.06356(16)
H28 H -0.4303 0.4498 1.0938
C32 C -0.5374(4) 0.3809(2) 1.04745(15)
C33 C -0.5392(4) 0.3319(2) 1.00269(14)
H29 H -0.6121 0.3069 0.9919
C34 C -0.4320(4) 0.3205(3) 0.97424(16)
H30 H -0.4324 0.2878 0.9440
C35 C -0.6592(3) 0.4114(2) 1.13009(14)
H31 H -0.5931 0.4217 1.1528
C36 C -0.7666(4) 0.3830(2) 1.06159(15)
H32 H -0.7886 0.3697 1.0269
C37 C 0.7896(3) 0.65284(17) 0.73456(11)
C38 C 0.6731(3) 0.67610(16) 0.75320(12)
C39 C 0.6536(3) 0.75686(17) 0.76728(12)
H33 H 0.5756 0.7726 0.7789
C40 C 0.7474(3) 0.81516(17) 0.76454(12)
C41 C 0.8652(3) 0.79132(17) 0.74687(12)
C42 C 0.8830(3) 0.71078(17) 0.73155(12)
H34 H 0.9601 0.6951 0.7189
C43 C 0.8218(3) 0.56635(17) 0.71985(13)
C44 C 0.5635(3) 0.61771(17) 0.75678(13)
C45 C 0.7264(3) 0.90230(18) 0.77934(13)
C46 C 0.9755(3) 0.84745(18) 0.74438(14)
N1 N 0.7193(3) 0.37859(17) 0.64979(11)
N2 N 0.7906(3) 0.3749(2) 0.60390(13)
N3 N 0.5952(3) 0.37148(18) 0.58201(12)
N4 N -0.5757(3) 0.37239(15) 0.32397(11)
N5 N -0.7335(2) 0.40196(15) 0.27373(11)
N6 N -0.7619(3) 0.33068(17) 0.30087(12)
N7 N 0.6892(2) 0.35716(15) 0.78026(12)
N8 N 0.6945(3) 0.28014(16) 0.80192(12)
N9 N 0.5267(3) 0.34257(16) 0.83018(11)
N10 N -0.6487(3) 0.39108(17) 1.07828(11)
N11 N -0.7751(2) 0.41448(15) 1.14384(10)
N12 N -0.8459(3) 0.39597(18) 1.09950(11)
O1 O 0.1750(3) 0.3428(2) 0.45645(12)
O2 O -0.1327(3) 0.4004(3) 0.43564(14)
O3 O 0.0855(3) 0.4027(2) 0.93692(12)
O4 O -0.2239(3) 0.3407(2) 0.95901(12)
O5 O 0.9196(2) 0.55047(15) 0.69803(11)
O6 O 0.7436(2) 0.51324(12) 0.73313(11)
O7 O 0.5058(2) 0.60898(12) 0.71267(9)
O8 O 0.5346(2) 0.58634(14) 0.79915(9)
O9 O 0.61623(19) 0.93073(12) 0.77917(10)
O10 O 0.8162(2) 0.94580(13) 0.78991(10)
O11 O 0.9952(2) 0.88989(14) 0.70536(10)
O12 O 1.04778(19) 0.84083(12) 0.78464(10)
Zn1C Zn 1.19860(3) 0.90168(2) 0.776904(15)
Zn2_2 Zn -0.84682(3) 0.44721(2) 1.217286(15)
Zn2A Zn 0.34682(3) 0.55279(2) 0.717286(15)
Zn2B Zn 0.65318(3) 1.05279(2) 0.782714(15)
N11_2 N -0.7751(2) 0.41448(15) 0.14384(10)
O7A O -1.0058(2) 0.39102(12) 0.21267(9)
O9B O -0.88377(19) 0.56927(12) 0.22083(10)
O10B O -0.6838(2) 0.55420(13) 0.21009(10)
O12C O 0.95222(19) 0.34083(12) 0.71536(10)
O13 O 1.0513(3) 0.4098(2) 0.61223(12)
O14 O -1.1006(3) 0.4427(2) 0.11237(14)
loop_
_geom_bond_atom_site_label_1
_geom_bond_atom_site_label_2
_geom_bond_site_symmetry_1
_geom_bond_site_symmetry_2
Zn1 N1 1_555 1_555
Zn2 N5 1_555 1_555
C1 H1 1_555 1_555
C2 H2 1_555 1_555
C3 C4 1_555 1_555
C4 H3 1_555 1_555
C5 C4 1_555 1_555
H4 C5 1_555 1_555
C6 C5 1_555 1_555
C7 C6 1_555 1_555
H5 C7 1_555 1_555
C8 C3 1_555 1_555
H6 C8 1_555 1_555
C9 H7 1_555 1_555
H8 C9 1_555 1_555
C10 C9 1_555 1_555
H9 C10 1_555 1_555
H10 C10 1_555 1_555
C11 C12 1_555 1_555
C12 H11 1_555 1_555
C13 C12 1_555 1_555
H12 C13 1_555 1_555
C14 C13 1_555 1_555
C15 C14 1_555 1_555
H13 C15 1_555 1_555
C16 C11 1_555 1_555
H14 C16 1_555 1_555
C17 H15 1_555 1_555
C18 H16 1_555 1_555
C19 H17 1_555 1_555
C20 H18 1_555 1_555
C21 C22 1_555 1_555
C22 H19 1_555 1_555
C23 C22 1_555 1_555
H20 C23 1_555 1_555
C24 C23 1_555 1_555
C25 C24 1_555 1_555
H21 C25 1_555 1_555
C26 C21 1_555 1_555
H22 C26 1_555 1_555
C27 H23 1_555 1_555
H24 C27 1_555 1_555
C28 C27 1_555 1_555
H25 C28 1_555 1_555
H26 C28 1_555 1_555
C29 C30 1_555 1_555
C30 H27 1_555 1_555
C31 C30 1_555 1_555
H28 C31 1_555 1_555
C32 C31 1_555 1_555
C33 C32 1_555 1_555
H29 C33 1_555 1_555
C34 C29 1_555 1_555
H30 C34 1_555 1_555
C35 H31 1_555 1_555
C36 H32 1_555 1_555
C37 C38 1_555 1_555
C38 C39 1_555 1_555
C39 H33 1_555 1_555
C40 C39 1_555 1_555
C41 C40 1_555 1_555
C42 C37 1_555 1_555
H34 C42 1_555 1_555
C43 C37 1_555 1_555
C44 C38 1_555 1_555
C45 C40 1_555 1_555
C46 C41 1_555 1_555
N1 C2 1_555 1_555
N2 C1 1_555 1_555
N3 C1 1_555 1_555
N4 C14 1_555 1_555
N5 C17 1_555 1_555
N6 C18 1_555 1_555
N7 Zn1 1_555 1_555
N8 C19 1_555 1_555
N9 C19 1_555 1_555
N10 C32 1_555 1_555
N11 C35 1_555 1_555
N12 C36 1_555 1_555
O1 C6 1_555 1_555
O2 C10 1_555 1_555
O3 C24 1_555 1_555
O4 C28 1_555 1_555
O5 C43 1_555 1_555
O6 Zn1 1_555 1_555
O7 C44 1_555 1_555
O8 C44 1_555 1_555
O9 C45 1_555 1_555
O10 C45 1_555 1_555
O11 C46 1_555 1_555
O12 C46 1_555 1_555
Zn1C O12 1_555 1_555
Zn2_2 N11 1_555 1_555
Zn2A O7 1_555 1_555
Zn2B O9 1_555 1_555
N11_2 Zn2 1_555 1_555
O7A Zn2 1_555 1_555
O9B Zn2 1_555 1_555
O10B Zn2 1_555 1_555
O12C Zn1 1_555 1_555
C2 N3 1_555 1_555
C3 N3 1_555 1_555
C7 C8 1_555 1_555
C9 O1 1_555 1_555
C11 O2 1_555 1_555
C15 C16 1_555 1_555
C17 N4 1_555 1_555
C18 N4 1_555 1_555
C20 N7 1_555 1_555
C20 N9 1_555 1_555
C21 N9 1_555 1_555
C25 C26 1_555 1_555
C27 O3 1_555 1_555
C29 O4 1_555 1_555
C33 C34 1_555 1_555
C35 N10 1_555 1_555
C36 N10 1_555 1_555
C41 C42 1_555 1_555
C43 O6 1_555 1_555
N1 N2 1_555 1_555
N5 N6 1_555 1_555
N7 N8 1_555 1_555
N11 N12 1_555 1_555
O10 Zn2B 1_555 1_555

#END
