
#######################################################################
#
#                 Cambridge Crystallographic Data Centre
#                                CCDC 
#
#######################################################################
#
# If this CIF has been generated from an entry in the Cambridge 
# Structural Database, then it will include bibliographic, chemical, 
# crystal, experimental, refinement or atomic coordinate data resulting 
# from the CCDC's data processing and validation procedures.
#
#######################################################################

data_VOFNIP
_symmetry_cell_setting           monoclinic
_symmetry_space_group_name_H-M   'P 21/n'
_symmetry_Int_Tables_number      14
_space_group_name_Hall           '-P 2yn'
loop_
_symmetry_equiv_pos_site_id
_symmetry_equiv_pos_as_xyz
1 x,y,z
2 1/2-x,1/2+y,1/2-z
3 -x,-y,-z
4 1/2+x,1/2-y,1/2+z
_cell_length_a                   10.7686(4)
_cell_length_b                   13.3285(5)
_cell_length_c                   12.0109(4)
_cell_angle_alpha                90
_cell_angle_beta                 95.967(3)
_cell_angle_gamma                90
_cell_volume                     1714.58
loop_
_atom_site_label
_atom_site_type_symbol
_atom_site_fract_x
_atom_site_fract_y
_atom_site_fract_z
Zn1 Zn 0.39142(2) 1.014107(19) 0.41082(2)
C1 C 0.1722(3) 1.1836(2) 0.1856(3)
H1 H 0.1524 1.2436 0.1484
C2 C 0.1616(2) 1.03348(19) 0.2448(2)
H2 H 0.1344 0.9686 0.2574
C3 C -0.0238(2) 1.08922(19) 0.1171(2)
C4 C -0.0569(2) 1.14688(19) 0.0227(2)
H3 H -0.0001 1.1918 -0.0027
C5 C -0.1741(2) 1.1373(2) -0.0331(2)
H4 H -0.1972 1.1773 -0.0953
C6 C -0.2583(2) 1.0688(2) 0.0021(2)
C7 C -0.2243(3) 1.0105(2) 0.0956(3)
H5 H -0.2798 0.9636 0.1194
C8 C -0.1072(3) 1.0224(2) 0.1537(2)
H6 H -0.0851 0.9848 0.2179
C9 C -0.4578(3) 0.9858(2) -0.0440(3)
H7 H -0.4116 0.9256 -0.0208
H8 H -0.5079 0.9717 -0.1140
C10 C 0.6620(2) 0.81646(17) 0.2880(2)
C11 C 0.7858(2) 0.7895(2) 0.3152(2)
H9 H 0.8283 0.8107 0.3825
C12 C 0.8458(3) 0.7314(2) 0.2426(2)
H10 H 0.9291 0.7139 0.2609
C13 C 0.7835(2) 0.69868(17) 0.1425(2)
C14 C 0.6601(2) 0.72649(19) 0.1149(2)
H11 H 0.6178 0.7053 0.0475
C15 C 0.5996(2) 0.78547(19) 0.1870(2)
H12 H 0.5170 0.8044 0.1678
C16 C 0.5970(2) 0.88139(17) 0.3674(2)
C17 C 0.8495(2) 0.63124(17) 0.0678(2)
N1 N 0.26671(18) 1.07123(15) 0.28900(16)
N2 N 0.2747(2) 1.16856(17) 0.2510(2)
N3 N 0.09737(19) 1.10124(15) 0.17821(17)
O1 O -0.37234(18) 1.06515(17) -0.06029(18)
O2 O 0.48741(16) 0.90895(14) 0.33433(15)
O3 O 0.65754(16) 0.90264(13) 0.45890(14)
O4 O 0.96037(17) 0.60882(14) 0.10203(17)
O5 O 0.79221(18) 0.60082(13) -0.02260(15)
C1B C -1.1722(3) 0.8164(2) -0.1856(3)
H1B H -1.1524 0.7564 -0.1484
C2B C -1.1616(2) 0.96652(19) -0.2448(2)
H2B H -1.1344 1.0314 -0.2574
C3B C -0.9762(2) 0.91078(19) -0.1171(2)
C4B C -0.9431(2) 0.85312(19) -0.0227(2)
H3B H -0.9999 0.8082 0.0027
C5B C -0.8259(2) 0.8627(2) 0.0331(2)
H4B H -0.8028 0.8227 0.0953
C6B C -0.7417(2) 0.9312(2) -0.0021(2)
C7B C -0.7757(3) 0.9895(2) -0.0956(3)
H5B H -0.7202 1.0364 -0.1194
C8B C -0.8928(3) 0.9776(2) -0.1537(2)
H6B H -0.9149 1.0152 -0.2179
C9B C -0.5422(3) 1.0142(2) 0.0440(3)
H7B H -0.5884 1.0744 0.0208
H8B H -0.4921 1.0283 0.1140
N1B N -1.26671(18) 0.92877(15) -0.28900(16)
N2B N -1.2747(2) 0.83144(17) -0.2510(2)
N3B N -1.09737(19) 0.89876(15) -0.17821(17)
O1B O -0.62766(18) 0.93485(17) 0.06029(18)
Zn1B Zn -1.39142(2) 0.985893(19) -0.41082(2)
C10B C -1.6620(2) 1.18354(17) -0.2880(2)
C11B C -1.7858(2) 1.2105(2) -0.3152(2)
H9B H -1.8283 1.1893 -0.3825
C12B C -1.8458(3) 1.2686(2) -0.2426(2)
H10B H -1.9291 1.2861 -0.2609
C13B C -1.7835(2) 1.30132(17) -0.1425(2)
C14B C -1.6601(2) 1.27351(19) -0.1149(2)
H11B H -1.6178 1.2947 -0.0475
C15B C -1.5996(2) 1.21453(19) -0.1870(2)
H12B H -1.5170 1.1956 -0.1678
C16B C -1.5970(2) 1.11861(17) -0.3674(2)
C17B C -1.8495(2) 1.36876(17) -0.0678(2)
O2B O -1.48741(16) 1.09105(14) -0.33433(15)
O3B O -1.65754(16) 1.09736(13) -0.45890(14)
O4B O -1.96037(17) 1.39118(14) -0.10203(17)
O5B O -1.79221(18) 1.39918(13) 0.02260(15)
Zn1_2 Zn -1.60858(2) 1.014107(19) -0.58918(2)
Zn1A Zn -1.89142(2) 1.514107(19) 0.08918(2)
Zn1A_2 Zn 1.10858(2) 0.514107(19) 0.08918(2)
Zn1B_2 Zn 0.60858(2) 0.985893(19) 0.58918(2)
Zn1C Zn -2.10858(2) 1.485893(19) -0.08918(2)
Zn1C_2 Zn 0.89142(2) 0.485893(19) -0.08918(2)
O3_2 O -1.34246(16) 0.90264(13) -0.54110(14)
O3B_2 O 0.34246(16) 1.09736(13) 0.54110(14)
O4A O 0.53963(17) 1.10882(14) 0.39797(17)
O4C O -1.53963(17) 0.89118(14) -0.39797(17)
O5A O -1.29221(18) 1.10082(13) -0.47740(15)
O5C O 0.29221(18) 0.89918(13) 0.47740(15)
O6 O 0.5000 0.5000 0.0000
O7 O 0.4633(14) 0.4339(14) 0.0782(12)
O8 O 0.0895(11) 0.8317(9) 0.3310(10)
loop_
_geom_bond_atom_site_label_1
_geom_bond_atom_site_label_2
_geom_bond_site_symmetry_1
_geom_bond_site_symmetry_2
Zn1 N1 1_555 1_555
C1 H1 1_555 1_555
C2 H2 1_555 1_555
C3 C4 1_555 1_555
C4 H3 1_555 1_555
C5 C4 1_555 1_555
H4 C5 1_555 1_555
C6 C5 1_555 1_555
C7 C6 1_555 1_555
H5 C7 1_555 1_555
C8 C3 1_555 1_555
H6 C8 1_555 1_555
C9 H7 1_555 1_555
H8 C9 1_555 1_555
C10 C11 1_555 1_555
C11 H9 1_555 1_555
C12 C11 1_555 1_555
H10 C12 1_555 1_555
C13 C12 1_555 1_555
C14 C13 1_555 1_555
H11 C14 1_555 1_555
C15 C10 1_555 1_555
H12 C15 1_555 1_555
C16 C10 1_555 1_555
C17 C13 1_555 1_555
N1 C2 1_555 1_555
N2 C1 1_555 1_555
N3 C1 1_555 1_555
O1 C6 1_555 1_555
O2 Zn1 1_555 1_555
O3 C16 1_555 1_555
O4 C17 1_555 1_555
O5 C17 1_555 1_555
C1B H1B 1_555 1_555
C2B H2B 1_555 1_555
C3B C4B 1_555 1_555
C4B H3B 1_555 1_555
C5B C4B 1_555 1_555
H4B C5B 1_555 1_555
C6B C5B 1_555 1_555
C7B C6B 1_555 1_555
H5B C7B 1_555 1_555
C8B C3B 1_555 1_555
H6B C8B 1_555 1_555
C9B C9 1_555 1_555
H7B C9B 1_555 1_555
H8B C9B 1_555 1_555
N1B C2B 1_555 1_555
N2B C1B 1_555 1_555
N3B C1B 1_555 1_555
O1B C6B 1_555 1_555
Zn1B N1B 1_555 1_555
C10B C11B 1_555 1_555
C11B H9B 1_555 1_555
C12B C11B 1_555 1_555
H10B C12B 1_555 1_555
C13B C12B 1_555 1_555
C14B C13B 1_555 1_555
H11B C14B 1_555 1_555
C15B C10B 1_555 1_555
H12B C15B 1_555 1_555
C16B C10B 1_555 1_555
C17B C13B 1_555 1_555
O2B Zn1B 1_555 1_555
O3B C16B 1_555 1_555
O4B C17B 1_555 1_555
O5B C17B 1_555 1_555
Zn1_2 O3B 1_555 1_555
Zn1A O5B 1_555 1_555
Zn1A_2 O4 1_555 1_555
Zn1B_2 O3 1_555 1_555
Zn1C O4B 1_555 1_555
Zn1C_2 O5 1_555 1_555
O3_2 Zn1B 1_555 1_555
O3B_2 Zn1 1_555 1_555
O4A Zn1 1_555 1_555
O4C Zn1B 1_555 1_555
O5A Zn1B 1_555 1_555
O5C Zn1 1_555 1_555
C2 N3 1_555 1_555
C3 N3 1_555 1_555
C7 C8 1_555 1_555
C9 O1 1_555 1_555
C14 C15 1_555 1_555
C16 O2 1_555 1_555
N1 N2 1_555 1_555
C2B N3B 1_555 1_555
C3B N3B 1_555 1_555
C7B C8B 1_555 1_555
C9B O1B 1_555 1_555
N1B N2B 1_555 1_555
C14B C15B 1_555 1_555
C16B O2B 1_555 1_555

#END
