
#######################################################################
#
#                 Cambridge Crystallographic Data Centre
#                                CCDC 
#
#######################################################################
#
# If this CIF has been generated from an entry in the Cambridge 
# Structural Database, then it will include bibliographic, chemical, 
# crystal, experimental, refinement or atomic coordinate data resulting 
# from the CCDC's data processing and validation procedures.
#
#######################################################################

data_VOFNEL
_symmetry_cell_setting           monoclinic
_symmetry_space_group_name_H-M   'P 21/c'
_symmetry_Int_Tables_number      14
_space_group_name_Hall           '-P 2ybc'
loop_
_symmetry_equiv_pos_site_id
_symmetry_equiv_pos_as_xyz
1 x,y,z
2 -x,1/2+y,1/2-z
3 -x,-y,-z
4 x,1/2-y,1/2+z
_cell_length_a                   10.8647(4)
_cell_length_b                   34.1221(13)
_cell_length_c                   15.9502(7)
_cell_angle_alpha                90
_cell_angle_beta                 103.229(4)
_cell_angle_gamma                90
_cell_volume                     5756.24
loop_
_atom_site_label
_atom_site_type_symbol
_atom_site_fract_x
_atom_site_fract_y
_atom_site_fract_z
Zn1 Zn 0.39524(5) 0.186116(17) 0.79023(4)
Zn2 Zn 0.90864(5) 0.053865(16) 1.30245(3)
C1 C 0.1444(5) 0.27631(18) 0.7814(5)
H1 H 0.1243 0.3013 0.7971
C2 C 0.1304(4) 0.21900(15) 0.7260(4)
H2 H 0.0990 0.1963 0.6963
C3 C -0.0688(4) 0.25846(15) 0.6905(4)
C4 C -0.1076(5) 0.29513(17) 0.6615(5)
H3 H -0.0495 0.3155 0.6671
C5 C -0.2335(5) 0.30170(17) 0.6237(5)
H4 H -0.2600 0.3267 0.6047
C6 C -0.3197(4) 0.27187(15) 0.6140(4)
C7 C -0.2803(4) 0.23533(16) 0.6419(4)
H5 H -0.3380 0.2148 0.6346
C8 C -0.1554(4) 0.22862(15) 0.6809(4)
H6 H -0.1295 0.2037 0.7008
C9 C -0.5336(4) 0.25175(17) 0.5687(4)
H7 H -0.5323 0.2411 0.6253
H8 H -0.5170 0.2307 0.5319
C10 C -0.6603(4) 0.27038(18) 0.5308(5)
H9 H -0.6733 0.2933 0.5636
H10 H -0.6664 0.2780 0.4714
C11 C -0.8746(4) 0.24766(15) 0.4980(4)
C12 C -0.9550(4) 0.21689(15) 0.5020(4)
H11 H -0.9232 0.1939 0.5299
C13 C -1.0825(4) 0.22001(16) 0.4647(4)
H12 H -1.1369 0.1993 0.4677
C14 C -1.1279(4) 0.25400(15) 0.4234(3)
C15 C -1.0486(5) 0.28507(16) 0.4191(4)
H13 H -1.0805 0.3081 0.3910
C16 C -0.9202(4) 0.28174(16) 0.4573(4)
H14 H -0.8658 0.3026 0.4552
C17 C -1.3369(4) 0.28817(16) 0.3757(4)
H15 H -1.3126 0.3127 0.3992
C18 C -1.3340(5) 0.22800(17) 0.3387(4)
H16 H -1.3066 0.2026 0.3324
C19 C 1.1172(5) -0.02535(16) 1.2005(3)
H17 H 1.1577 -0.0491 1.1974
C20 C 1.0505(5) 0.03277(16) 1.1735(3)
H18 H 1.0342 0.0574 1.1487
C21 C 1.1773(4) 0.00779(14) 1.0740(3)
C22 C 1.2849(5) -0.01323(16) 1.0732(4)
H19 H 1.3197 -0.0298 1.1187
C23 C 1.3408(5) -0.00942(16) 1.0037(4)
H20 H 1.4130 -0.0238 1.0023
C24 C 1.2901(4) 0.01563(14) 0.9366(3)
C25 C 1.1812(4) 0.03611(15) 0.9376(3)
H21 H 1.1459 0.0527 0.8921
C26 C 1.1244(4) 0.03197(15) 1.0068(3)
H22 H 1.0505 0.0456 1.0075
C27 C 1.3072(5) 0.04287(15) 0.8027(3)
H23 H 1.2802 0.0678 0.8217
H24 H 1.2340 0.0301 0.7668
C28 C 1.4052(5) 0.04961(14) 0.7519(4)
H25 H 1.3731 0.0676 0.7049
H26 H 1.4803 0.0611 0.7885
C29 C 1.5215(4) 0.01335(14) 0.6680(3)
C30 C 1.5810(5) 0.04664(14) 0.6476(3)
H27 H 1.5663 0.0708 0.6704
C31 C 1.6633(5) 0.04362(14) 0.5925(3)
H28 H 1.7034 0.0659 0.5784
C32 C 1.6856(4) 0.00816(14) 0.5589(3)
C33 C 1.6257(4) -0.02510(13) 0.5794(3)
H29 H 1.6398 -0.0492 0.5559
C34 C 1.5456(5) -0.02256(14) 0.6344(3)
H30 H 1.5072 -0.0451 0.6492
C35 C 1.7825(5) 0.03351(15) 0.4429(3)
H31 H 1.7464 0.0583 0.4390
C36 C 1.8345(5) -0.02457(14) 0.4813(3)
H32 H 1.8415 -0.0484 0.5102
C37 C 0.4560(5) 0.11769(14) 1.0048(4)
C38 C 0.5739(6) 0.10637(15) 1.0529(4)
H33 H 0.6432 0.1082 1.0281
C39 C 0.5915(7) 0.09292(19) 1.1331(5)
C40 C 0.4931(9) 0.0876(3) 1.1650(5)
H34 H 0.5044 0.0762 1.2192
C41 C 0.3681(8) 0.0984(3) 1.1204(5)
H35 H 0.2996 0.0953 1.1457
C42 C 0.3527(6) 0.11362(19) 1.0388(4)
H36 H 0.2731 0.1210 1.0074
C43 C 0.4494(6) 0.13599(16) 0.9164(4)
C44 C 0.3345(5) 0.14110(13) 0.5438(3)
C45 C 0.2256(4) 0.12857(12) 0.4868(3)
H37 H 0.1538 0.1232 0.5073
C46 C 0.2211(5) 0.12393(14) 0.4003(3)
C47 C 0.3278(6) 0.13206(17) 0.3705(4)
H38 H 0.3247 0.1303 0.3119
C48 C 0.4393(6) 0.14276(18) 0.4267(4)
H39 H 0.5121 0.1469 0.4065
C49 C 0.4419(5) 0.14732(15) 0.5130(4)
H40 H 0.5168 0.1547 0.5509
C50 C 0.3311(5) 0.14979(14) 0.6353(3)
C51 C 0.1033(5) 0.10900(16) 0.3392(4)
N1 N 0.2463(3) 0.22379(12) 0.7693(3)
N2 N 0.2561(4) 0.26013(15) 0.8058(4)
N3 N 0.0622(3) 0.25177(12) 0.7303(3)
N4 N -1.2605(3) 0.25664(12) 0.3821(3)
N5 N -1.4498(3) 0.27920(12) 0.3317(3)
N6 N -1.4491(4) 0.24064(14) 0.3066(4)
N7 N 1.0098(4) 0.02046(12) 1.2396(3)
N8 N 1.0515(4) -0.01716(13) 1.2577(3)
N9 N 1.1188(4) 0.00511(12) 1.1464(2)
N10 N 1.7660(3) 0.00576(11) 0.4988(2)
N11 N 1.8557(4) 0.02097(11) 0.3949(2)
N12 N 1.8899(4) -0.01680(12) 0.4192(3)
O1 O -0.4415(3) 0.28155(10) 0.5747(3)
O2 O -0.7501(3) 0.24071(11) 0.5362(3)
O3 O 1.3582(3) 0.01911(11) 0.8747(2)
O4 O 1.4359(3) 0.01314(10) 0.7187(2)
O5 O 0.3496(4) 0.15338(11) 0.8835(2)
O6 O 0.5397(5) 0.13377(14) 0.8828(3)
C52 C 0.7211(14) 0.0831(6) 1.1751(14)
O7 O 0.7263(19) 0.0780(6) 1.2253(14)
O8 O 0.4293(3) 0.16576(11) 0.6823(2)
O9 O 0.2349(4) 0.14229(11) 0.6627(2)
O10 O 0.0274(3) 0.08986(11) 0.3741(2)
O11 O 0.0876(4) 0.11495(14) 0.2611(3)
O12 O 0.8191(8) 0.0839(2) 1.1386(7)
Zn1C Zn -1.60476(5) 0.313884(17) 0.29023(4)
Zn2_2 Zn -0.09136(5) 0.053865(16) 0.30245(3)
Zn2_3 Zn 1.90864(5) 0.053865(16) 0.30245(3)
N5C N 0.5502(3) 0.22080(12) 0.8317(3)
N11_2 N 0.8557(4) 0.02097(11) 1.3949(2)
O10_2 O 1.0274(3) 0.08986(11) 1.3741(2)
O13 O 0.0803(6) 0.13064(19) 0.8283(5)
O14 O -0.1851(7) 0.1320(2) 0.5628(9)
O15 O 0.0306(5) 0.09369(13) 0.6554(4)
O16 O 0.1439(9) 0.1521(4) 1.1348(7)
O17 O 0.9217(9) 0.1142(2) 1.0289(12)
O18 O 1.2077(12) -0.1101(3) 1.1391(7)
O19 O 0.6934(6) 0.14042(19) 0.7080(6)
O20 O 0.7415(12) 0.1363(3) 1.3875(10)
O21 O -1.6014(10) 0.1789(3) 0.2062(7)
O22? O 0.7678(17) 0.0758(5) 1.1794(13)
O23? O 0.6840(18) 0.0861(6) 1.2978(11)
C53? C 0.7508(12) 0.0718(4) 1.2576(10)
loop_
_geom_bond_atom_site_label_1
_geom_bond_atom_site_label_2
_geom_bond_site_symmetry_1
_geom_bond_site_symmetry_2
Zn1 N1 1_555 1_555
Zn2 N7 1_555 1_555
C1 H1 1_555 1_555
C2 H2 1_555 1_555
C3 C4 1_555 1_555
C4 H3 1_555 1_555
C5 C4 1_555 1_555
H4 C5 1_555 1_555
C6 C5 1_555 1_555
C7 C6 1_555 1_555
H5 C7 1_555 1_555
C8 C3 1_555 1_555
H6 C8 1_555 1_555
C9 H7 1_555 1_555
H8 C9 1_555 1_555
C10 C9 1_555 1_555
H9 C10 1_555 1_555
H10 C10 1_555 1_555
C11 C12 1_555 1_555
C12 H11 1_555 1_555
C13 C12 1_555 1_555
H12 C13 1_555 1_555
C14 C13 1_555 1_555
C15 C14 1_555 1_555
H13 C15 1_555 1_555
C16 C11 1_555 1_555
H14 C16 1_555 1_555
C17 H15 1_555 1_555
C18 H16 1_555 1_555
C19 H17 1_555 1_555
C20 H18 1_555 1_555
C21 C22 1_555 1_555
C22 H19 1_555 1_555
C23 C22 1_555 1_555
H20 C23 1_555 1_555
C24 C23 1_555 1_555
C25 C24 1_555 1_555
H21 C25 1_555 1_555
C26 C21 1_555 1_555
H22 C26 1_555 1_555
C27 H23 1_555 1_555
H24 C27 1_555 1_555
C28 C27 1_555 1_555
H25 C28 1_555 1_555
H26 C28 1_555 1_555
C29 C30 1_555 1_555
C30 H27 1_555 1_555
C31 C30 1_555 1_555
H28 C31 1_555 1_555
C32 C31 1_555 1_555
C33 C32 1_555 1_555
H29 C33 1_555 1_555
C34 C29 1_555 1_555
H30 C34 1_555 1_555
C35 H31 1_555 1_555
C36 H32 1_555 1_555
C37 C38 1_555 1_555
C38 H33 1_555 1_555
C39 C38 1_555 1_555
C40 C39 1_555 1_555
H34 C40 1_555 1_555
C41 C40 1_555 1_555
H35 C41 1_555 1_555
C42 C37 1_555 1_555
H36 C42 1_555 1_555
C43 C37 1_555 1_555
C44 C45 1_555 1_555
C45 H37 1_555 1_555
C46 C45 1_555 1_555
C47 C46 1_555 1_555
H38 C47 1_555 1_555
C48 C47 1_555 1_555
H39 C48 1_555 1_555
C49 C44 1_555 1_555
H40 C49 1_555 1_555
C50 C44 1_555 1_555
C51 C46 1_555 1_555
N1 C2 1_555 1_555
N2 C1 1_555 1_555
N3 C1 1_555 1_555
N4 C14 1_555 1_555
N5 C17 1_555 1_555
N6 C18 1_555 1_555
N7 C20 1_555 1_555
N8 C19 1_555 1_555
N9 C19 1_555 1_555
N10 C32 1_555 1_555
N11 C35 1_555 1_555
N12 C36 1_555 1_555
O1 C6 1_555 1_555
O2 C10 1_555 1_555
O3 C24 1_555 1_555
O4 C28 1_555 1_555
O5 Zn1 1_555 1_555
O6 C43 1_555 1_555
C52 C39 1_555 1_555
O7 Zn2 1_555 1_555
O8 Zn1 1_555 1_555
O9 C50 1_555 1_555
O10 C51 1_555 1_555
O11 C51 1_555 1_555
O12 C52 1_555 1_555
Zn1C N5 1_555 1_555
Zn2_2 O10 1_555 1_555
Zn2_3 N11 1_555 1_555
N5C Zn1 1_555 1_555
N11_2 Zn2 1_555 1_555
O10_2 Zn2 1_555 1_555
C2 N3 1_555 1_555
C3 N3 1_555 1_555
C7 C8 1_555 1_555
C9 O1 1_555 1_555
C11 O2 1_555 1_555
C15 C16 1_555 1_555
C17 N4 1_555 1_555
C18 N4 1_555 1_555
C20 N9 1_555 1_555
C21 N9 1_555 1_555
C25 C26 1_555 1_555
C27 O3 1_555 1_555
C29 O4 1_555 1_555
C33 C34 1_555 1_555
C35 N10 1_555 1_555
C36 N10 1_555 1_555
C41 C42 1_555 1_555
C43 O5 1_555 1_555
C48 C49 1_555 1_555
C50 O8 1_555 1_555
N1 N2 1_555 1_555
N5 N6 1_555 1_555
N7 N8 1_555 1_555
N11 N12 1_555 1_555
C52 O7 1_555 1_555

#END
