
#######################################################################
#
#                 Cambridge Crystallographic Data Centre
#                                CCDC 
#
#######################################################################
#
# If this CIF has been generated from an entry in the Cambridge 
# Structural Database, then it will include bibliographic, chemical, 
# crystal, experimental, refinement or atomic coordinate data resulting 
# from the CCDC's data processing and validation procedures.
#
#######################################################################

data_VOFQEN
_symmetry_cell_setting           monoclinic
_symmetry_space_group_name_H-M   'P 21/c'
_symmetry_Int_Tables_number      14
_space_group_name_Hall           '-P 2ybc'
loop_
_symmetry_equiv_pos_site_id
_symmetry_equiv_pos_as_xyz
1 x,y,z
2 -x,1/2+y,1/2-z
3 -x,-y,-z
4 x,1/2-y,1/2+z
_cell_length_a                   8.351(5)
_cell_length_b                   11.489(6)
_cell_length_c                   7.930(4)
_cell_angle_alpha                90.00
_cell_angle_beta                 105.046(8)
_cell_angle_gamma                90.00
_cell_volume                     734.758
loop_
_atom_site_label
_atom_site_type_symbol
_atom_site_fract_x
_atom_site_fract_y
_atom_site_fract_z
Ag1 Ag 0.07228(8) 0.56229(5) 0.20727(8)
S1 S 0.7770(2) 0.43586(15) 0.3418(3)
N1 N 0.2796(8) 0.4403(4) 0.1710(8)
N2 N 0.0823(7) 0.3131(5) 0.0036(7)
H1 H 0.0055 0.3532 0.0304
H2 H 0.0569 0.2530 -0.0627
O1 O 0.7939(8) 0.3741(5) 0.5063(7)
O2 O 0.7930(9) 0.5596(4) 0.3650(10)
O3 O 0.8867(8) 0.3868(7) 0.2445(8)
C1 C 0.2514(9) 0.3461(6) 0.0691(9)
C2 C 0.3773(10) 0.2820(7) 0.0277(10)
H3 H 0.3521 0.2195 -0.0491
C3 C 0.5386(10) 0.3123(7) 0.1015(10)
H4 H 0.6249 0.2710 0.0753
C4 C 0.5712(8) 0.4059(7) 0.2162(8)
C5 C 0.4407(9) 0.4686(7) 0.2439(10)
H5 H 0.4635 0.5336 0.3161
Ag1B Ag -0.07228(8) 0.43771(5) -0.20727(8)
Ag1B_2 Ag 0.92772(8) 0.43771(5) 0.79273(8)
Ag1_2 Ag 1.07228(8) 0.56229(5) 0.20727(8)
N2B N -0.0823(7) 0.6869(5) -0.0036(7)
H1B H -0.0055 0.6468 -0.0304
H2B H -0.0569 0.7470 0.0627
O1B O 0.2061(8) 0.6259(5) 0.4937(7)
O3_2 O -0.1133(8) 0.3868(7) 0.2445(8)
loop_
_geom_bond_atom_site_label_1
_geom_bond_atom_site_label_2
_geom_bond_site_symmetry_1
_geom_bond_site_symmetry_2
Ag1 N1 1_555 1_555
S1 O1 1_555 1_555
N1 C1 1_555 1_555
N2 H1 1_555 1_555
H2 N2 1_555 1_555
O1 Ag1B_2 1_555 1_555
O2 S1 1_555 1_555
O3 S1 1_555 1_555
C1 N2 1_555 1_555
C2 C1 1_555 1_555
H3 C2 1_555 1_555
C3 C2 1_555 1_555
H4 C3 1_555 1_555
C4 S1 1_555 1_555
C5 N1 1_555 1_555
H5 C5 1_555 1_555
Ag1B N2 1_555 1_555
Ag1_2 O3 1_555 1_555
N2B Ag1 1_555 1_555
H1B N2B 1_555 1_555
H2B N2B 1_555 1_555
O1B Ag1 1_555 1_555
O3_2 Ag1 1_555 1_555
C3 C4 1_555 1_555
C4 C5 1_555 1_555

#END
