
#######################################################################
#
#                 Cambridge Crystallographic Data Centre
#                                CCDC 
#
#######################################################################
#
# If this CIF has been generated from an entry in the Cambridge 
# Structural Database, then it will include bibliographic, chemical, 
# crystal, experimental, refinement or atomic coordinate data resulting 
# from the CCDC's data processing and validation procedures.
#
#######################################################################

data_VOFSUG
_symmetry_cell_setting           monoclinic
_symmetry_space_group_name_H-M   'P 21/c'
_symmetry_Int_Tables_number      14
_space_group_name_Hall           '-P 2ybc'
loop_
_symmetry_equiv_pos_site_id
_symmetry_equiv_pos_as_xyz
1 x,y,z
2 -x,1/2+y,1/2-z
3 -x,-y,-z
4 x,1/2-y,1/2+z
_cell_length_a                   13.9742(12)
_cell_length_b                   15.7792(14)
_cell_length_c                   14.0779(11)
_cell_angle_alpha                90
_cell_angle_beta                 116.132(5)
_cell_angle_gamma                90
_cell_volume                     2786.89
loop_
_atom_site_label
_atom_site_type_symbol
_atom_site_fract_x
_atom_site_fract_y
_atom_site_fract_z
Zn1 Zn 0.13509(7) 0.70666(6) 0.86119(7)
N1 N 0.0722(6) 0.6351(5) 0.7229(5)
N2 N 0.2789(5) 0.6377(4) 0.9275(5)
O1 O 0.1750(6) 0.8054(5) 0.7994(7)
O2 O 0.2472(7) 0.8360(5) 0.9677(7)
O3 O 0.3669(6) 1.1617(5) 0.7813(6)
O4 O -0.0027(6) 1.2529(6) 1.1164(7)
O5 O -0.0753(6) 1.3654(6) 1.0437(7)
O6 O 0.2635(7) 1.3255(7) 0.8612(9)
C1 C 0.0032(8) 0.5722(8) 0.7031(8)
H1 H -0.0274 0.5641 0.7493
C2 C -0.0263(8) 0.5174(8) 0.6167(8)
H2 H -0.0742 0.4735 0.6068
C3 C 0.0157(7) 0.5292(7) 0.5483(7)
C4 C 0.0844(8) 0.5941(7) 0.5655(7)
H3 H 0.1121 0.6048 0.5175
C5 C 0.1138(8) 0.6448(7) 0.6548(8)
H4 H 0.1643 0.6871 0.6673
C6 C 0.2908(8) 0.5726(7) 0.9843(8)
H5 H 0.2391 0.5608 1.0071
C7 C 0.3774(8) 0.5177(7) 1.0144(9)
H6 H 0.3803 0.4704 1.0550
C8 C 0.4552(7) 0.5303(6) 0.9875(7)
C9 C 0.4461(8) 0.6023(7) 0.9315(9)
H7 H 0.5000 0.6174 0.9130
C10 C 0.3571(8) 0.6538(7) 0.9019(9)
H8 H 0.3523 0.7019 0.8619
C11 C -0.0132(10) 1.3102(9) 1.0535(11)
C12 C 0.0599(9) 1.3164(8) 1.0032(11)
C13 C 0.0523(10) 1.3751(9) 0.9379(11)
H9 H -0.0023 1.4144 0.9216
C14 C 0.1191(10) 1.3849(10) 0.8893(11)
H10 H 0.1144 1.4329 0.8491
C15 C 0.1897(10) 1.3246(9) 0.9010(12)
C16 C 0.1979(10) 1.2622(10) 0.9645(12)
H11 H 0.2473 1.2194 0.9745
C17 C 0.1340(10) 1.2580(10) 1.0182(11)
H12 H 0.1436 1.2136 1.0651
C18 C 0.2232(9) 0.8524(7) 0.8737(11)
C19 C 0.2616(8) 0.9378(6) 0.8510(9)
C20 C 0.2276(8) 0.9652(6) 0.7511(9)
H13 H 0.1800 0.9312 0.6969
C21 C 0.2593(8) 1.0417(6) 0.7237(9)
H14 H 0.2339 1.0595 0.6538
C22 C 0.3314(8) 1.0897(6) 0.8082(9)
C23 C 0.3683(8) 1.0616(6) 0.9109(9)
H15 H 0.4184 1.0931 0.9663
C24 C 0.3312(8) 0.9879(6) 0.9306(9)
H16 H 0.3537 0.9708 1.0004
C25 C 0.2707(13) 1.3390(13) 0.7968(16)
H17 H 0.2321 1.3918 0.7719
H18 H 0.2285 1.2962 0.7462
C26 C 0.4363(15) 1.2074(10) 0.8540(14)
H19 H 0.5045 1.1785 0.8854
H20 H 0.4140 1.2185 0.9091
C27 C 0.4452(9) 1.2861(6) 0.8055(9)
C28 C 0.5313(8) 1.2972(6) 0.7822(9)
H21 H 0.5831 1.2552 0.7999
C29 C 0.5401(8) 1.3709(7) 0.7326(9)
H22 H 0.5977 1.3783 0.7170
C30 C 0.4627(10) 1.4336(6) 0.7062(10)
H23 H 0.4685 1.4829 0.6730
C31 C 0.3766(8) 1.4226(6) 0.7294(10)
H24 H 0.3248 1.4645 0.7117
C32 C 0.3678(8) 1.3489(7) 0.7791(10)
N1B N -0.0722(6) 0.3649(5) 0.2771(5)
C1B C -0.0032(8) 0.4278(8) 0.2969(8)
H1B H 0.0274 0.4359 0.2507
C2B C 0.0263(8) 0.4826(8) 0.3833(8)
H2B H 0.0742 0.5265 0.3932
C3B C -0.0157(7) 0.4708(7) 0.4517(7)
C4B C -0.0844(8) 0.4059(7) 0.4345(7)
H3B H -0.1121 0.3952 0.4825
C5B C -0.1138(8) 0.3552(7) 0.3452(8)
H4B H -0.1643 0.3129 0.3327
N2B N 0.7211(5) 0.3623(4) 1.0725(5)
C6B C 0.7092(8) 0.4274(7) 1.0157(8)
H5B H 0.7609 0.4392 0.9929
C7B C 0.6226(8) 0.4823(7) 0.9856(9)
H6B H 0.6197 0.5296 0.9450
C8B C 0.5448(7) 0.4697(6) 1.0125(7)
C9B C 0.5539(8) 0.3977(7) 1.0685(9)
H7B H 0.5000 0.3826 1.0870
C10B C 0.6429(8) 0.3462(7) 1.0981(9)
H8B H 0.6477 0.2981 1.1381
Zn1B Zn -0.13509(7) 0.29334(6) 0.13881(7)
O1B O -0.1750(6) 0.1946(5) 0.2006(7)
O2B O -0.2472(7) 0.1640(5) 0.0323(7)
O3B O -0.3669(6) -0.1617(5) 0.2187(6)
O4B O 0.0027(6) -0.2529(6) -0.1164(7)
O5B O 0.0753(6) -0.3654(6) -0.0437(7)
O6B O -0.2635(7) -0.3255(7) 0.1388(9)
C11B C 0.0132(10) -0.3102(9) -0.0535(11)
C12B C -0.0599(9) -0.3164(8) -0.0032(11)
C13B C -0.0523(10) -0.3751(9) 0.0621(11)
H9B H 0.0023 -0.4144 0.0784
C14B C -0.1191(10) -0.3849(10) 0.1107(11)
H10B H -0.1144 -0.4329 0.1509
C15B C -0.1897(10) -0.3246(9) 0.0990(12)
C16B C -0.1979(10) -0.2622(10) 0.0355(12)
H11B H -0.2473 -0.2194 0.0255
C17B C -0.1340(10) -0.2580(10) -0.0182(11)
H12B H -0.1436 -0.2136 -0.0651
C18B C -0.2232(9) 0.1476(7) 0.1263(11)
C19B C -0.2616(8) 0.0622(6) 0.1490(9)
C20B C -0.2276(8) 0.0348(6) 0.2489(9)
H13B H -0.1800 0.0688 0.3031
C21B C -0.2593(8) -0.0417(6) 0.2763(9)
H14B H -0.2339 -0.0595 0.3462
C22B C -0.3314(8) -0.0897(6) 0.1918(9)
C23B C -0.3683(8) -0.0616(6) 0.0891(9)
H15B H -0.4184 -0.0931 0.0337
C24B C -0.3312(8) 0.0121(6) 0.0694(9)
H16B H -0.3537 0.0292 -0.0004
C25B C -0.2707(13) -0.3390(13) 0.2032(16)
H17B H -0.2321 -0.3918 0.2281
H18B H -0.2285 -0.2962 0.2538
C26B C -0.4363(15) -0.2074(10) 0.1460(14)
H19B H -0.5045 -0.1785 0.1146
H20B H -0.4140 -0.2185 0.0909
C27B C -0.4452(9) -0.2861(6) 0.1945(9)
C28B C -0.5313(8) -0.2972(6) 0.2178(9)
H21B H -0.5831 -0.2552 0.2001
C29B C -0.5401(8) -0.3709(7) 0.2674(9)
H22B H -0.5977 -0.3783 0.2830
C30B C -0.4627(10) -0.4336(6) 0.2938(10)
H23B H -0.4685 -0.4829 0.3270
C31B C -0.3766(8) -0.4226(6) 0.2706(10)
H24B H -0.3248 -0.4645 0.2883
C32B C -0.3678(8) -0.3489(7) 0.2209(10)
Zn1_2 Zn 0.13509(7) -0.29334(6) -0.13881(7)
Zn1B_2 Zn -0.13509(7) 1.29334(6) 1.13881(7)
Zn1B_3 Zn 0.86491(7) 0.29334(6) 1.13881(7)
N2B_2 N -0.2789(5) 0.3623(4) 0.0725(5)
O4_2 O -0.0027(6) 0.2529(6) 0.1164(7)
O4B_2 O 0.0027(6) 0.7471(6) 0.8836(7)
O5_2 O -0.0753(6) 0.3654(6) 0.0437(7)
O5B_2 O 0.0753(6) 0.6346(6) 0.9563(7)
O7 O 0.382(2) 0.844(2) 0.1500(17)
C33? C 0.2164(19) 1.3761(19) 0.748(2)
H25? H 0.1572 1.3462 0.6935
H26? H 0.1948 1.4334 0.7547
C34? C 0.313(2) 1.2146(16) 0.701(2)
H27? H 0.2414 1.2208 0.6946
H28? H 0.3074 1.1888 0.6362
C35? C 0.3636(14) 1.3057(9) 0.7115(15)
C36? C 0.4520(14) 1.3185(9) 0.6925(15)
H29? H 0.4865 1.2725 0.6802
C37? C 0.4890(12) 1.4002(11) 0.6920(15)
H30? H 0.5482 1.4088 0.6793
C38? C 0.4375(15) 1.4691(8) 0.7104(17)
H31? H 0.4622 1.5238 0.7101
C39? C 0.3490(15) 1.4563(9) 0.7294(16)
H32? H 0.3145 1.5024 0.7418
C40? C 0.3120(12) 1.3746(11) 0.7299(14)
loop_
_geom_bond_atom_site_label_1
_geom_bond_atom_site_label_2
_geom_bond_site_symmetry_1
_geom_bond_site_symmetry_2
Zn1 N1 1_555 1_555
N1 C1 1_555 1_555
N2 Zn1 1_555 1_555
O1 Zn1 1_555 1_555
O2 C18 1_555 1_555
O3 C22 1_555 1_555
O4 C11 1_555 1_555
O5 C11 1_555 1_555
O6 C15 1_555 1_555
C1 H1 1_555 1_555
C2 C1 1_555 1_555
H2 C2 1_555 1_555
C3 C2 1_555 1_555
C4 C3 1_555 1_555
H3 C4 1_555 1_555
C5 N1 1_555 1_555
H4 C5 1_555 1_555
C6 N2 1_555 1_555
H5 C6 1_555 1_555
C7 C6 1_555 1_555
H6 C7 1_555 1_555
C8 C7 1_555 1_555
C9 C8 1_555 1_555
H7 C9 1_555 1_555
C10 N2 1_555 1_555
H8 C10 1_555 1_555
C11 C12 1_555 1_555
C12 C13 1_555 1_555
C13 H9 1_555 1_555
C14 C13 1_555 1_555
H10 C14 1_555 1_555
C15 C14 1_555 1_555
C16 C15 1_555 1_555
H11 C16 1_555 1_555
C17 C12 1_555 1_555
H12 C17 1_555 1_555
C18 O1 1_555 1_555
C19 C18 1_555 1_555
C20 C19 1_555 1_555
H13 C20 1_555 1_555
C21 C20 1_555 1_555
H14 C21 1_555 1_555
C22 C21 1_555 1_555
C23 C22 1_555 1_555
H15 C23 1_555 1_555
C24 C19 1_555 1_555
H16 C24 1_555 1_555
C25 O6 1_555 1_555
H17 C25 1_555 1_555
H18 C25 1_555 1_555
C26 O3 1_555 1_555
H19 C26 1_555 1_555
H20 C26 1_555 1_555
C27 C26 1_555 1_555
C28 C27 1_555 1_555
H21 C28 1_555 1_555
C29 C28 1_555 1_555
H22 C29 1_555 1_555
C30 C29 1_555 1_555
H23 C30 1_555 1_555
C31 C30 1_555 1_555
H24 C31 1_555 1_555
C32 C25 1_555 1_555
N1B C1B 1_555 1_555
C1B H1B 1_555 1_555
C2B C1B 1_555 1_555
H2B C2B 1_555 1_555
C3B C3 1_555 1_555
C4B C3B 1_555 1_555
H3B C4B 1_555 1_555
C5B N1B 1_555 1_555
H4B C5B 1_555 1_555
N2B C6B 1_555 1_555
C6B H5B 1_555 1_555
C7B C6B 1_555 1_555
H6B C7B 1_555 1_555
C8B C8 1_555 1_555
C9B C8B 1_555 1_555
H7B C9B 1_555 1_555
C10B N2B 1_555 1_555
H8B C10B 1_555 1_555
Zn1B N1B 1_555 1_555
O1B Zn1B 1_555 1_555
O2B C18B 1_555 1_555
O3B C22B 1_555 1_555
O4B C11B 1_555 1_555
O5B C11B 1_555 1_555
O6B C15B 1_555 1_555
C11B C12B 1_555 1_555
C12B C13B 1_555 1_555
C13B H9B 1_555 1_555
C14B C13B 1_555 1_555
H10B C14B 1_555 1_555
C15B C14B 1_555 1_555
C16B C15B 1_555 1_555
H11B C16B 1_555 1_555
C17B C12B 1_555 1_555
H12B C17B 1_555 1_555
C18B O1B 1_555 1_555
C19B C18B 1_555 1_555
C20B C19B 1_555 1_555
H13B C20B 1_555 1_555
C21B C20B 1_555 1_555
H14B C21B 1_555 1_555
C22B C21B 1_555 1_555
C23B C22B 1_555 1_555
H15B C23B 1_555 1_555
C24B C19B 1_555 1_555
H16B C24B 1_555 1_555
C25B O6B 1_555 1_555
H17B C25B 1_555 1_555
H18B C25B 1_555 1_555
C26B O3B 1_555 1_555
H19B C26B 1_555 1_555
H20B C26B 1_555 1_555
C27B C26B 1_555 1_555
C28B C27B 1_555 1_555
H21B C28B 1_555 1_555
C29B C28B 1_555 1_555
H22B C29B 1_555 1_555
C30B C29B 1_555 1_555
H23B C30B 1_555 1_555
C31B C30B 1_555 1_555
H24B C31B 1_555 1_555
C32B C25B 1_555 1_555
Zn1_2 O4B 1_555 1_555
Zn1B_2 O4 1_555 1_555
Zn1B_3 N2B 1_555 1_555
N2B_2 Zn1B 1_555 1_555
O4_2 Zn1B 1_555 1_555
O4B_2 Zn1 1_555 1_555
O5_2 Zn1B 1_555 1_555
O5B_2 Zn1 1_555 1_555
O5 Zn1B_2 1_555 1_555
C4 C5 1_555 1_555
C9 C10 1_555 1_555
C16 C17 1_555 1_555
C23 C24 1_555 1_555
C27 C32 1_555 1_555
C31 C32 1_555 1_555
C2B C3B 1_555 1_555
C4B C5B 1_555 1_555
C7B C8B 1_555 1_555
C9B C10B 1_555 1_555
O5B Zn1_2 1_555 1_555
C16B C17B 1_555 1_555
C23B C24B 1_555 1_555
C27B C32B 1_555 1_555
C31B C32B 1_555 1_555

#END
