
#######################################################################
#
#                 Cambridge Crystallographic Data Centre
#                                CCDC 
#
#######################################################################
#
# If this CIF has been generated from an entry in the Cambridge 
# Structural Database, then it will include bibliographic, chemical, 
# crystal, experimental, refinement or atomic coordinate data resulting 
# from the CCDC's data processing and validation procedures.
#
#######################################################################

data_VOFSEQ
_symmetry_cell_setting           orthorhombic
_symmetry_space_group_name_H-M   'P b c n'
_symmetry_Int_Tables_number      60
_space_group_name_Hall           '-P 2n 2ab'
loop_
_symmetry_equiv_pos_site_id
_symmetry_equiv_pos_as_xyz
1 x,y,z
2 1/2-x,1/2-y,1/2+z
3 -x,y,1/2-z
4 1/2+x,1/2-y,-z
5 -x,-y,-z
6 1/2+x,1/2+y,1/2-z
7 x,-y,1/2+z
8 1/2-x,1/2+y,z
_cell_length_a                   12.3961(6)
_cell_length_b                   21.0059(11)
_cell_length_c                   22.8699(11)
_cell_angle_alpha                90
_cell_angle_beta                 90
_cell_angle_gamma                90
_cell_volume                     5955.12
loop_
_atom_site_label
_atom_site_type_symbol
_atom_site_fract_x
_atom_site_fract_y
_atom_site_fract_z
Cu1 Cu 0.50608(2) 0.245876(16) 0.364458(16)
O1 O 1.86053(16) 0.27973(10) 0.60931(11)
O2 O 0.65580(16) 0.27182(10) 0.34424(10)
C1 C 1.6864(2) 0.31708(14) 0.63538(13)
C2 C 0.8162(2) 0.30725(14) 0.39024(13)
N1 N 0.5520(2) 0.15572(12) 0.36817(11)
N2 N 0.9581(2) -0.16540(12) 0.14713(12)
O3 O 1.14370(17) 0.34895(13) 0.38554(10)
C3 C 0.6995(2) 0.28755(14) 0.39261(14)
O4 O 0.65066(17) 0.28700(12) 0.43995(10)
C4 C 1.5442(3) 0.33305(16) 0.56506(14)
H1 H 1.5211 0.3330 0.5264
N3 N 0.8834(2) -0.08247(11) 0.18876(12)
N4 N 0.6275(2) 0.06815(12) 0.33545(12)
C5 C 1.6496(2) 0.31719(15) 0.57849(13)
H2 H 1.6968 0.3064 0.5485
C6 C 0.8759(2) 0.30403(17) 0.33911(14)
H3 H 0.8426 0.2913 0.3046
O5 O 1.36638(18) 0.36320(14) 0.60289(11)
C7 C 1.0351(2) 0.33788(16) 0.38924(15)
C8 C 1.2328(2) 0.40923(14) 0.46320(14)
C9 C 1.7995(2) 0.29801(15) 0.65082(15)
C10 C 1.4732(2) 0.34898(16) 0.60947(15)
C11 C 1.2059(3) 0.34512(16) 0.43827(15)
H4 H 1.2724 0.3224 0.4303
H5 H 1.1658 0.3209 0.4671
C12 C 0.9838(3) 0.31950(18) 0.33872(15)
H6 H 1.0224 0.3175 0.3039
C13 C 1.2914(2) 0.41235(15) 0.51533(15)
C14 C 0.6232(2) 0.13202(14) 0.33166(15)
H7 H 0.6653 0.1563 0.3064
O6 O 1.8279(2) 0.29950(14) 0.70249(12)
C15 C 0.8178(3) -0.04539(14) 0.22714(15)
C16 C 0.9765(3) 0.3430(2) 0.44051(16)
H8 H 1.0097 0.3567 0.4747
C17 C 1.3144(3) 0.35179(17) 0.54790(16)
H9 H 1.2472 0.3293 0.5546
H10 H 1.3601 0.3248 0.5241
C18 C 0.6920(3) 0.02815(15) 0.29941(15)
C19 C 0.8677(3) 0.32741(19) 0.44031(15)
H11 H 0.8286 0.3307 0.4749
C20 C 0.8933(3) -0.14627(14) 0.18866(15)
H12 H 0.8585 -0.1733 0.2148
C21 C 1.6143(3) 0.33437(19) 0.67927(15)
H13 H 1.6373 0.3350 0.7180
C22 C 0.5089(3) 0.10493(16) 0.39756(16)
H14 H 0.4564 0.1074 0.4265
C23 C 1.5102(3) 0.3504(2) 0.66617(15)
H15 H 1.4637 0.3625 0.6961
C24 C 0.9455(3) -0.06052(17) 0.14330(18)
H16 H 0.9545 -0.0183 0.1321
C25 C 0.9910(3) -0.11178(17) 0.11804(18)
H17 H 1.0372 -0.1110 0.0860
C26 C 0.5547(3) 0.05071(16) 0.37797(16)
H18 H 0.5399 0.0096 0.3907
C27 C 1.3233(3) 0.47109(18) 0.53636(18)
H19 H 1.3629 0.4734 0.5708
C28 C 1.2067(3) 0.46526(18) 0.43487(18)
H20 H 1.1664 0.4636 0.4006
C29 C 0.7890(3) -0.06678(18) 0.27944(19)
H21 H 0.8121 -0.1068 0.2916
C30 C 0.7248(4) -0.03039(18) 0.31623(19)
H22 H 0.7044 -0.0463 0.3525
C31 C 0.7830(4) 0.01389(19) 0.2078(2)
H23 H 0.8028 0.0289 0.1711
C32 C 1.2974(4) 0.5262(2) 0.5071(2)
H24 H 1.3192 0.5655 0.5217
C33 C 1.2391(4) 0.52297(19) 0.4561(2)
H25 H 1.2216 0.5601 0.4360
C34 C 0.7184(4) 0.05010(18) 0.24432(19)
H26 H 0.6926 0.0893 0.2317
O7 O 0.5000 0.2422(3) 0.2500
Cu1B Cu 0.49392(2) 0.245876(16) 0.135542(16)
O1B O -0.86053(16) 0.27973(10) -0.10931(11)
O2B O 0.34420(16) 0.27182(10) 0.15576(10)
C1B C -0.6864(2) 0.31708(14) -0.13538(13)
C2B C 0.1838(2) 0.30725(14) 0.10976(13)
N1B N 0.4480(2) 0.15572(12) 0.13183(11)
N2B N 0.0419(2) -0.16540(12) 0.35287(12)
O3B O -0.14370(17) 0.34895(13) 0.11446(10)
C3B C 0.3005(2) 0.28755(14) 0.10739(14)
O4B O 0.34934(17) 0.28700(12) 0.06005(10)
C4B C -0.5442(3) 0.33305(16) -0.06506(14)
H1B H -0.5211 0.3330 -0.0264
N3B N 0.1166(2) -0.08247(11) 0.31124(12)
N4B N 0.3725(2) 0.06815(12) 0.16455(12)
C5B C -0.6496(2) 0.31719(15) -0.07849(13)
H2B H -0.6968 0.3064 -0.0485
C6B C 0.1241(2) 0.30403(17) 0.16089(14)
H3B H 0.1574 0.2913 0.1954
O5B O -0.36638(18) 0.36320(14) -0.10289(11)
C7B C -0.0351(2) 0.33788(16) 0.11076(15)
C8B C -0.2328(2) 0.40923(14) 0.03680(14)
C9B C -0.7995(2) 0.29801(15) -0.15082(15)
C10B C -0.4732(2) 0.34898(16) -0.10947(15)
C11B C -0.2059(3) 0.34512(16) 0.06173(15)
H4B H -0.2724 0.3224 0.0697
H5B H -0.1658 0.3209 0.0329
C12B C 0.0162(3) 0.31950(18) 0.16128(15)
H6B H -0.0224 0.3175 0.1961
C13B C -0.2914(2) 0.41235(15) -0.01533(15)
C14B C 0.3768(2) 0.13202(14) 0.16834(15)
H7B H 0.3347 0.1563 0.1936
O6B O -0.8279(2) 0.29950(14) -0.20249(12)
C15B C 0.1822(3) -0.04539(14) 0.27286(15)
C16B C 0.0235(3) 0.3430(2) 0.05949(16)
H8B H -0.0097 0.3567 0.0253
C17B C -0.3144(3) 0.35179(17) -0.04790(16)
H9B H -0.2472 0.3293 -0.0546
H10B H -0.3601 0.3248 -0.0241
C18B C 0.3080(3) 0.02815(15) 0.20059(15)
C19B C 0.1323(3) 0.32741(19) 0.05969(15)
H11B H 0.1714 0.3307 0.0251
C20B C 0.1067(3) -0.14627(14) 0.31134(15)
H12B H 0.1415 -0.1733 0.2852
C21B C -0.6143(3) 0.33437(19) -0.17927(15)
H13B H -0.6373 0.3350 -0.2180
C22B C 0.4911(3) 0.10493(16) 0.10244(16)
H14B H 0.5436 0.1074 0.0735
C23B C -0.5102(3) 0.3504(2) -0.16617(15)
H15B H -0.4637 0.3625 -0.1961
C24B C 0.0545(3) -0.06052(17) 0.35670(18)
H16B H 0.0455 -0.0183 0.3679
C25B C 0.0090(3) -0.11178(17) 0.38196(18)
H17B H -0.0372 -0.1110 0.4140
C26B C 0.4453(3) 0.05071(16) 0.12203(16)
H18B H 0.4601 0.0096 0.1093
C27B C -0.3233(3) 0.47109(18) -0.03636(18)
H19B H -0.3629 0.4734 -0.0708
C28B C -0.2067(3) 0.46526(18) 0.06513(18)
H20B H -0.1664 0.4636 0.0994
C29B C 0.2110(3) -0.06678(18) 0.22056(19)
H21B H 0.1879 -0.1068 0.2084
C30B C 0.2752(4) -0.03039(18) 0.18377(19)
H22B H 0.2956 -0.0463 0.1475
C31B C 0.2170(4) 0.01389(19) 0.2922(2)
H23B H 0.1972 0.0289 0.3289
C32B C -0.2974(4) 0.5262(2) -0.0071(2)
H24B H -0.3192 0.5655 -0.0217
C33B C -0.2391(4) 0.52297(19) 0.0439(2)
H25B H -0.2216 0.5601 0.0640
C34B C 0.2816(4) 0.05010(18) 0.25568(19)
H26B H 0.3074 0.0893 0.2683
Cu1A Cu -1.00608(2) 0.254124(16) -0.135542(16)
Cu1C Cu 2.00608(2) 0.254124(16) 0.635542(16)
Cu1E Cu 1.00608(2) -0.254124(16) 0.135542(16)
Cu1G Cu -0.00608(2) -0.254124(16) 0.364458(16)
O1A O 0.63947(16) 0.22027(10) 0.10931(11)
O1C O 0.36053(16) 0.22027(10) 0.39069(11)
N2E N 0.4581(2) 0.33460(12) 0.35287(12)
N2G N 0.5419(2) 0.33460(12) 0.14713(12)
loop_
_geom_bond_atom_site_label_1
_geom_bond_atom_site_label_2
_geom_bond_site_symmetry_1
_geom_bond_site_symmetry_2
Cu1 O2 1_555 1_555
O1 C9 1_555 1_555
O2 C3 1_555 1_555
C1 C5 1_555 1_555
C2 C3 1_555 1_555
N1 Cu1 1_555 1_555
N2 C20 1_555 1_555
O3 C7 1_555 1_555
C3 O4 1_555 1_555
O4 Cu1 1_555 1_555
C4 H1 1_555 1_555
N3 C15 1_555 1_555
N4 C14 1_555 1_555
C5 C4 1_555 1_555
H2 C5 1_555 1_555
C6 C2 1_555 1_555
H3 C6 1_555 1_555
O5 C10 1_555 1_555
C7 C12 1_555 1_555
C8 C11 1_555 1_555
C9 C1 1_555 1_555
C10 C4 1_555 1_555
C11 O3 1_555 1_555
H4 C11 1_555 1_555
H5 C11 1_555 1_555
C12 C6 1_555 1_555
H6 C12 1_555 1_555
C13 C8 1_555 1_555
C14 N1 1_555 1_555
H7 C14 1_555 1_555
O6 C9 1_555 1_555
C15 C29 1_555 1_555
C16 C7 1_555 1_555
H8 C16 1_555 1_555
C17 O5 1_555 1_555
H9 C17 1_555 1_555
H10 C17 1_555 1_555
C18 N4 1_555 1_555
C19 C2 1_555 1_555
H11 C19 1_555 1_555
C20 N3 1_555 1_555
H12 C20 1_555 1_555
C21 C1 1_555 1_555
H13 C21 1_555 1_555
C22 N1 1_555 1_555
H14 C22 1_555 1_555
C23 C10 1_555 1_555
H15 C23 1_555 1_555
C24 N3 1_555 1_555
H16 C24 1_555 1_555
C25 N2 1_555 1_555
H17 C25 1_555 1_555
C26 N4 1_555 1_555
H18 C26 1_555 1_555
C27 C13 1_555 1_555
H19 C27 1_555 1_555
C28 C8 1_555 1_555
H20 C28 1_555 1_555
C29 H21 1_555 1_555
C30 C18 1_555 1_555
H22 C30 1_555 1_555
C31 C15 1_555 1_555
H23 C31 1_555 1_555
C32 C27 1_555 1_555
H24 C32 1_555 1_555
C33 C28 1_555 1_555
H25 C33 1_555 1_555
C34 C18 1_555 1_555
H26 C34 1_555 1_555
O7 Cu1 1_555 1_555
Cu1B O7 1_555 1_555
O1B C9B 1_555 1_555
O2B Cu1B 1_555 1_555
C1B C5B 1_555 1_555
C2B C3B 1_555 1_555
N1B Cu1B 1_555 1_555
N2B C20B 1_555 1_555
O3B C7B 1_555 1_555
C3B O2B 1_555 1_555
O4B Cu1B 1_555 1_555
C4B H1B 1_555 1_555
N3B C15B 1_555 1_555
N4B C14B 1_555 1_555
C5B C4B 1_555 1_555
H2B C5B 1_555 1_555
C6B C2B 1_555 1_555
H3B C6B 1_555 1_555
O5B C10B 1_555 1_555
C7B C12B 1_555 1_555
C8B C11B 1_555 1_555
C9B C1B 1_555 1_555
C10B C4B 1_555 1_555
C11B O3B 1_555 1_555
H4B C11B 1_555 1_555
H5B C11B 1_555 1_555
C12B C6B 1_555 1_555
H6B C12B 1_555 1_555
C13B C8B 1_555 1_555
C14B N1B 1_555 1_555
H7B C14B 1_555 1_555
O6B C9B 1_555 1_555
C15B C29B 1_555 1_555
C16B C7B 1_555 1_555
H8B C16B 1_555 1_555
C17B O5B 1_555 1_555
H9B C17B 1_555 1_555
H10B C17B 1_555 1_555
C18B N4B 1_555 1_555
C19B C2B 1_555 1_555
H11B C19B 1_555 1_555
C20B N3B 1_555 1_555
H12B C20B 1_555 1_555
C21B C1B 1_555 1_555
H13B C21B 1_555 1_555
C22B N1B 1_555 1_555
H14B C22B 1_555 1_555
C23B C10B 1_555 1_555
H15B C23B 1_555 1_555
C24B N3B 1_555 1_555
H16B C24B 1_555 1_555
C25B N2B 1_555 1_555
H17B C25B 1_555 1_555
C26B N4B 1_555 1_555
H18B C26B 1_555 1_555
C27B C13B 1_555 1_555
H19B C27B 1_555 1_555
C28B C8B 1_555 1_555
H20B C28B 1_555 1_555
C29B H21B 1_555 1_555
C30B C18B 1_555 1_555
H22B C30B 1_555 1_555
C31B C15B 1_555 1_555
H23B C31B 1_555 1_555
C32B C27B 1_555 1_555
H24B C32B 1_555 1_555
C33B C28B 1_555 1_555
H25B C33B 1_555 1_555
C34B C18B 1_555 1_555
H26B C34B 1_555 1_555
Cu1A O1B 1_555 1_555
Cu1C O1 1_555 1_555
Cu1E N2 1_555 1_555
Cu1G N2B 1_555 1_555
O1A Cu1B 1_555 1_555
O1C Cu1 1_555 1_555
N2E Cu1 1_555 1_555
N2G Cu1B 1_555 1_555
C13 C17 1_555 1_555
C16 C19 1_555 1_555
C21 C23 1_555 1_555
C22 C26 1_555 1_555
C24 C25 1_555 1_555
C29 C30 1_555 1_555
C31 C34 1_555 1_555
C32 C33 1_555 1_555
C3B O4B 1_555 1_555
C13B C17B 1_555 1_555
C16B C19B 1_555 1_555
C21B C23B 1_555 1_555
C22B C26B 1_555 1_555
C24B C25B 1_555 1_555
C29B C30B 1_555 1_555
C31B C34B 1_555 1_555
C32B C33B 1_555 1_555

#END
