
#######################################################################
#
#                 Cambridge Crystallographic Data Centre
#                                CCDC 
#
#######################################################################
#
# If this CIF has been generated from an entry in the Cambridge 
# Structural Database, then it will include bibliographic, chemical, 
# crystal, experimental, refinement or atomic coordinate data resulting 
# from the CCDC's data processing and validation procedures.
#
#######################################################################

data_VOFSAM
_symmetry_cell_setting           triclinic
_symmetry_space_group_name_H-M   'P -1'
_symmetry_Int_Tables_number      2
_space_group_name_Hall           '-P 1'
loop_
_symmetry_equiv_pos_site_id
_symmetry_equiv_pos_as_xyz
1 x,y,z
2 -x,-y,-z
_cell_length_a                   14.6755(14)
_cell_length_b                   17.0604(14)
_cell_length_c                   20.1262(18)
_cell_angle_alpha                103.720(5)
_cell_angle_beta                 94.693(6)
_cell_angle_gamma                92.822(5)
_cell_volume                     4866.53
loop_
_atom_site_label
_atom_site_type_symbol
_atom_site_fract_x
_atom_site_fract_y
_atom_site_fract_z
Mn1 Mn 0.40614(3) 0.68443(2) 0.299787(19)
Mn2 Mn 0.58090(3) 0.81050(2) 0.202468(19)
N1 N 0.41439(18) 0.58916(14) 0.20219(11)
N2 N 0.42286(17) 0.28537(14) -0.10465(11)
N3 N 0.41724(17) 0.78767(13) 0.39381(11)
N4 N 0.42687(17) 1.09735(14) 0.69922(11)
O1 O 0.65336(15) 0.73312(12) 0.25202(10)
O2 O 0.54828(15) 0.69220(12) 0.31220(10)
O3 O 0.84989(15) 0.44148(13) 0.32976(12)
O4 O 1.28705(16) 0.62764(13) 0.32944(10)
O5 O 1.40272(16) 0.58028(12) 0.37998(11)
O6 O 1.06591(17) 0.40042(15) 0.47802(11)
O7 O 0.43644(14) 0.80233(11) 0.18915(10)
O8 O 0.33084(14) 0.75699(11) 0.24678(9)
O9 O 0.13040(15) 1.04815(12) 0.17136(13)
O10 O -0.08288(17) 1.09581(15) 0.02354(11)
O11 O -0.30079(16) 0.87225(13) 0.17733(11)
O12 O -0.41657(15) 0.91341(12) 0.12152(11)
C1 C 1.3178(2) 0.58296(17) 0.36674(14)
C2 C 1.2503(2) 0.53411(17) 0.39537(14)
C3 C 1.1593(2) 0.52595(19) 0.37125(15)
H1 H 1.1402 0.5522 0.3375
C4 C 1.0947(2) 0.48028(19) 0.39511(15)
H2 H 1.0336 0.4748 0.3771
C5 C 1.1236(2) 0.44275(18) 0.44679(15)
C6 C 1.2148(2) 0.45059(19) 0.47221(16)
H3 H 1.2337 0.4258 0.5069
C7 C 1.2775(2) 0.49474(19) 0.44647(15)
H4 H 1.3390 0.4986 0.4632
C8 C 0.9710(2) 0.3856(2) 0.45128(17)
H5 H 0.9503 0.4336 0.4385
H6 H 0.9350 0.3758 0.4871
C9 C 0.6257(2) 0.68818(16) 0.28856(13)
C10 C 0.68601(19) 0.62601(16) 0.30454(14)
C11 C 0.7753(2) 0.62304(19) 0.28573(18)
H7 H 0.7993 0.6626 0.2659
C12 C 0.8281(2) 0.5619(2) 0.29635(19)
H8 H 0.8878 0.5607 0.2840
C13 C 0.7931(2) 0.50201(18) 0.32527(16)
C14 C 0.7056(2) 0.50552(18) 0.34561(15)
H9 H 0.6817 0.4663 0.3658
C15 C 0.6539(2) 0.56765(18) 0.33577(14)
H10 H 0.5955 0.5704 0.3506
C16 C 0.8099(2) 0.37261(18) 0.35105(18)
H11 H 0.7531 0.3518 0.3227
H12 H 0.7963 0.3891 0.3985
C17 C 0.8767(2) 0.30839(18) 0.34350(16)
C18 C 0.9543(2) 0.31471(18) 0.38979(16)
C19 C 1.0127(3) 0.2523(2) 0.3813(2)
H13 H 1.0647 0.2564 0.4120
C20 C 0.9952(4) 0.1852(2) 0.3287(3)
H14 H 1.0354 0.1442 0.3235
C21 C 0.9189(4) 0.1776(2) 0.2835(2)
H15 H 0.9065 0.1311 0.2482
C22 C 0.8597(3) 0.2395(2) 0.29032(19)
H16 H 0.8083 0.2347 0.2590
C23 C 0.3590(2) 0.84464(18) 0.40129(14)
H17 H 0.3137 0.8422 0.3656
C24 C 0.3611(2) 0.90769(18) 0.45877(14)
H18 H 0.3182 0.9463 0.4609
C25 C 0.4268(2) 0.91356(15) 0.51319(13)
C26 C 0.4884(2) 0.85386(19) 0.50506(15)
H19 H 0.5344 0.8548 0.5399
C27 C 0.4820(2) 0.79314(18) 0.44573(15)
H20 H 0.5246 0.7541 0.4416
C28 C 0.3731(2) 1.09879(19) 0.64327(16)
H21 H 0.3339 1.1404 0.6456
C29 C 0.3723(2) 1.04197(19) 0.58210(16)
H22 H 0.3336 1.0459 0.5443
C30 C 0.42907(19) 0.97886(15) 0.57679(12)
C31 C 0.4859(2) 0.97862(17) 0.63451(14)
H23 H 0.5267 0.9384 0.6334
C32 C 0.4824(2) 1.03775(17) 0.69385(14)
H24 H 0.5211 1.0358 0.7323
C33 C 0.3592(2) 0.80380(15) 0.21168(13)
C34 C 0.29616(19) 0.86483(16) 0.19601(13)
C35 C 0.3261(2) 0.92188(17) 0.16240(14)
H25 H 0.3836 0.9187 0.1460
C36 C 0.2729(2) 0.98318(18) 0.15275(15)
H26 H 0.2948 1.0214 0.1307
C37 C 0.1868(2) 0.98785(17) 0.17587(16)
C38 C 0.1540(2) 0.92959(18) 0.20722(18)
H27 H 0.0953 0.9313 0.2214
C39 C 0.2084(2) 0.86883(17) 0.21749(16)
H28 H 0.1862 0.8302 0.2390
C40 C 0.1711(2) 1.11718(19) 0.1515(2)
H29 H 0.1847 1.1016 0.1040
H30 H 0.2279 1.1370 0.1801
C41 C 0.1046(2) 1.18236(18) 0.16031(18)
C42 C 0.1209(3) 1.2491(2) 0.21607(19)
H31 H 0.1716 1.2522 0.2478
C43 C 0.0621(4) 1.3109(2) 0.2246(2)
H32 H 0.0738 1.3557 0.2616
C44 C -0.0124(3) 1.3064(2) 0.1791(3)
H33 H -0.0525 1.3475 0.1857
C45 C -0.0291(3) 1.2414(2) 0.1232(2)
H34 H -0.0799 1.2394 0.0918
C46 C 0.0289(2) 1.17890(17) 0.11306(17)
C47 C 0.0121(2) 1.1112(2) 0.04907(17)
H35 H 0.0466 1.1246 0.0136
H36 H 0.0348 1.0623 0.0589
C48 C -0.1385(2) 1.05300(19) 0.05586(15)
C49 C -0.1099(2) 1.01629(19) 0.10738(16)
H37 H -0.0486 1.0217 0.1246
C50 C -0.1729(2) 0.97145(19) 0.13313(16)
H38 H -0.1530 0.9459 0.1671
C51 C -0.2652(2) 0.96356(16) 0.10950(14)
C52 C -0.2928(2) 1.00252(18) 0.05838(15)
H39 H -0.3544 0.9987 0.0420
C53 C -0.2305(2) 1.04625(18) 0.03195(15)
H40 H -0.2501 1.0716 -0.0023
C54 C -0.3312(2) 0.91440(17) 0.13814(14)
C55 C 0.3830(2) 0.59952(18) 0.14102(15)
H41 H 0.3588 0.6485 0.1393
C56 C 0.3843(2) 0.54210(17) 0.08037(14)
H42 H 0.3599 0.5520 0.0392
C57 C 0.42213(19) 0.46929(15) 0.08093(13)
C58 C 0.4574(2) 0.45967(17) 0.14400(14)
H43 H 0.4848 0.4125 0.1470
C59 C 0.4521(3) 0.51976(18) 0.20217(15)
H44 H 0.4761 0.5115 0.2440
C60 C 0.3611(2) 0.34007(19) -0.09697(15)
H45 H 0.3167 0.3375 -0.1333
C61 C 0.3591(2) 0.40043(18) -0.03836(14)
H46 H 0.3151 0.4381 -0.0361
C62 C 0.4226(2) 0.40487(15) 0.01706(13)
C63 C 0.4858(2) 0.34639(17) 0.01012(14)
H47 H 0.5293 0.3460 0.0463
C64 C 0.4833(2) 0.28896(18) -0.05106(15)
H48 H 0.5265 0.2504 -0.0551
Mn1_2 Mn 1.40614(3) 0.68443(2) 0.299787(19)
Mn2_2 Mn -0.41910(3) 0.81050(2) 0.202468(19)
Mn2A Mn 0.41910(3) 0.18950(2) -0.202468(19)
Mn2A_2 Mn 0.41910(3) 1.18950(2) 0.797532(19)
N2A N 0.57714(17) 0.71463(14) 0.10465(11)
N4A N 0.57313(17) 0.90265(14) 0.30078(11)
O4_2 O 0.28705(16) 0.62764(13) 0.32944(10)
O11_2 O 0.69921(16) 0.87225(13) 0.17733(11)
Mn3 Mn 0.47771(3) 0.32911(3) 0.29809(2)
Mn4 Mn 0.48657(3) 0.15272(3) 0.21402(2)
O13 O 1.38969(18) 0.19456(16) 0.14724(13)
O14 O 1.37809(17) 0.31680(16) 0.21549(12)
O15 O 0.38560(19) 0.26513(16) 0.34662(15)
O16 O 0.38620(16) 0.14074(15) 0.28056(12)
O17 O 0.57694(16) 0.35367(15) 0.23339(11)
O18 O 0.58182(19) 0.22414(15) 0.17923(14)
O19 O 0.49313(16) 0.04819(12) 0.13453(10)
H49 H 0.5287 0.0100 0.1322
H50 H 0.4992 0.0611 0.0983
O20 O 0.48349(16) 0.44008(12) 0.37255(10)
H51 H 0.4812 0.4302 0.4119
H52 H 0.4396 0.4655 0.3647
O21 O 0.1243(2) 0.0681(2) 0.4958(2)
O22 O 0.83094(18) 0.38155(14) -0.00054(12)
O23 O 1.10084(17) 0.33137(14) -0.03942(12)
O24 O -0.12042(18) 0.16856(15) 0.54515(13)
O25 O -0.41194(17) 0.15489(17) 0.29508(13)
O26 O -0.42054(19) 0.28311(18) 0.35366(14)
C65 C 0.3612(2) 0.1909(2) 0.33005(18)
C66 C 0.2983(2) 0.1617(2) 0.37597(16)
C67 C 0.2649(2) 0.0808(2) 0.35977(19)
H53 H 0.2821 0.0458 0.3207
C68 C 0.2071(3) 0.0516(3) 0.4003(2)
H54 H 0.1853 -0.0025 0.3884
C69 C 0.1822(3) 0.1019(3) 0.4573(2)
C70 C 0.2151(3) 0.1809(3) 0.4771(2)
H55 H 0.2001 0.2141 0.5180
C71 C 0.2725(3) 0.2116(2) 0.4344(2)
H56 H 0.2928 0.2660 0.4461
C72 C 0.0505(3) 0.1141(3) 0.5234(2)
H57 H -0.0063 0.0803 0.5099
H58 H 0.0456 0.1597 0.5027
C73 C 0.0598(3) 0.1459(3) 0.6014(2)
C74 C 0.1256(3) 0.1174(4) 0.6405(3)
H59 H 0.1658 0.0815 0.6188
C75 C 0.1327(5) 0.1408(5) 0.7098(4)
H60 H 0.1770 0.1194 0.7349
C76 C 0.0771(5) 0.1946(4) 0.7441(3)
H61 H 0.0840 0.2118 0.7918
C77 C 0.0093(4) 0.2229(3) 0.7051(2)
H62 H -0.0305 0.2588 0.7275
C78 C -0.0005(3) 0.1993(3) 0.63406(19)
C79 C -0.0715(3) 0.2335(2) 0.5945(2)
H63 H -0.1130 0.2624 0.6252
H64 H -0.0429 0.2711 0.5718
C80 C -0.1796(2) 0.1865(2) 0.49573(17)
C81 C -0.1975(2) 0.1267(2) 0.43505(18)
H65 H -0.1655 0.0802 0.4280
C82 C -0.2633(2) 0.1370(2) 0.38529(16)
H66 H -0.2752 0.0974 0.3444
C83 C -0.3116(2) 0.2057(2) 0.39585(16)
C84 C -0.2904(2) 0.26564(19) 0.45566(17)
H67 H -0.3210 0.3130 0.4622
C85 C -0.2251(2) 0.25639(19) 0.50556(17)
H68 H -0.2118 0.2970 0.5457
C86 C -0.3862(2) 0.2152(3) 0.34416(19)
C87 C 1.3576(2) 0.2633(2) 0.16050(18)
C88 C 1.2895(2) 0.2828(2) 0.10805(15)
C89 C 1.2694(2) 0.22911(19) 0.04385(16)
H69 H 1.2984 0.1810 0.0334
C90 C 1.2065(2) 0.2472(2) -0.00426(16)
H70 H 1.1941 0.2118 -0.0474
C91 C 1.1618(2) 0.3181(2) 0.01166(16)
C92 C 1.1807(2) 0.3709(2) 0.07564(16)
H71 H 1.1505 0.4183 0.0867
C93 C 1.2447(2) 0.3528(2) 0.12295(16)
H72 H 1.2577 0.3887 0.1658
C94 C 1.0538(3) 0.4056(2) -0.02407(18)
H73 H 1.0978 0.4522 -0.0130
H74 H 1.0185 0.4073 0.0149
C95 C 0.6047(2) 0.2975(2) 0.18842(17)
C96 C 0.6689(2) 0.31951(19) 0.14020(15)
C97 C 0.6973(2) 0.39924(19) 0.14509(16)
H75 H 0.6802 0.4402 0.1803
C98 C 0.7518(2) 0.4173(2) 0.09669(17)
H76 H 0.7712 0.4707 0.0992
C99 C 0.7773(2) 0.3557(2) 0.04451(16)
C100 C 0.7494(2) 0.2767(2) 0.04014(18)
H77 H 0.7668 0.2355 0.0053
C101 C 0.6956(2) 0.2596(2) 0.08792(17)
H78 H 0.6766 0.2060 0.0851
C102 C 0.8674(3) 0.3202(2) -0.05325(18)
H79 H 0.8192 0.2802 -0.0774
H80 H 0.9149 0.2931 -0.0330
C103 C 0.9061(2) 0.3654(2) -0.10127(16)
C104 C 0.8528(3) 0.3692(3) -0.15892(18)
H81 H 0.7965 0.3394 -0.1695
C105 C 0.8793(3) 0.4151(3) -0.20130(19)
H82 H 0.8415 0.4160 -0.2405
C106 C 0.9603(3) 0.4598(3) -0.18725(19)
H83 H 0.9771 0.4933 -0.2152
C107 C 1.0187(3) 0.4548(2) -0.1297(2)
H84 H 1.0754 0.4838 -0.1202
C108 C 0.9918(2) 0.4064(2) -0.08663(15)
Mn3_2 Mn -0.52229(3) 0.32911(3) 0.29809(2)
Mn3_3 Mn 1.47771(3) 0.32911(3) 0.29809(2)
Mn4_2 Mn -0.51343(3) 0.15272(3) 0.21402(2)
Mn4_3 Mn 1.48657(3) 0.15272(3) 0.21402(2)
O13_2 O 0.38969(18) 0.19456(16) 0.14724(13)
O14_2 O 0.37809(17) 0.31680(16) 0.21549(12)
O25_2 O 0.58806(17) 0.15489(17) 0.29508(13)
O26_2 O 0.57946(19) 0.28311(18) 0.35366(14)
O27 O 0.4978(2) 0.11764(16) 0.02226(13)
O28 O 0.4875(2) 0.38239(17) 0.48816(13)
loop_
_geom_bond_atom_site_label_1
_geom_bond_atom_site_label_2
_geom_bond_site_symmetry_1
_geom_bond_site_symmetry_2
Mn1 N1 1_555 1_555
Mn2 O1 1_555 1_555
N1 C55 1_555 1_555
N2 C60 1_555 1_555
N3 Mn1 1_555 1_555
N4 C28 1_555 1_555
O1 C9 1_555 1_555
O2 Mn1 1_555 1_555
O3 C13 1_555 1_555
O4 C1 1_555 1_555
O5 C1 1_555 1_555
O6 C5 1_555 1_555
O7 Mn2 1_555 1_555
O8 Mn1 1_555 1_555
O9 C37 1_555 1_555
O10 C47 1_555 1_555
O11 C54 1_555 1_555
O12 C54 1_555 1_555
C1 C2 1_555 1_555
C2 C3 1_555 1_555
C3 H1 1_555 1_555
C4 C3 1_555 1_555
H2 C4 1_555 1_555
C5 C4 1_555 1_555
C6 C5 1_555 1_555
H3 C6 1_555 1_555
C7 C2 1_555 1_555
H4 C7 1_555 1_555
C8 O6 1_555 1_555
H5 C8 1_555 1_555
H6 C8 1_555 1_555
C9 O2 1_555 1_555
C10 C9 1_555 1_555
C11 C10 1_555 1_555
H7 C11 1_555 1_555
C12 C11 1_555 1_555
H8 C12 1_555 1_555
C13 C12 1_555 1_555
C14 C13 1_555 1_555
H9 C14 1_555 1_555
C15 C10 1_555 1_555
H10 C15 1_555 1_555
C16 O3 1_555 1_555
H11 C16 1_555 1_555
H12 C16 1_555 1_555
C17 C16 1_555 1_555
C18 C8 1_555 1_555
C19 C18 1_555 1_555
H13 C19 1_555 1_555
C20 C19 1_555 1_555
H14 C20 1_555 1_555
C21 C20 1_555 1_555
H15 C21 1_555 1_555
C22 C17 1_555 1_555
H16 C22 1_555 1_555
C23 N3 1_555 1_555
H17 C23 1_555 1_555
C24 C23 1_555 1_555
H18 C24 1_555 1_555
C25 C24 1_555 1_555
C26 C25 1_555 1_555
H19 C26 1_555 1_555
C27 N3 1_555 1_555
H20 C27 1_555 1_555
C28 H21 1_555 1_555
C29 C28 1_555 1_555
H22 C29 1_555 1_555
C30 C25 1_555 1_555
C31 C30 1_555 1_555
H23 C31 1_555 1_555
C32 N4 1_555 1_555
H24 C32 1_555 1_555
C33 O7 1_555 1_555
C34 C33 1_555 1_555
C35 C34 1_555 1_555
H25 C35 1_555 1_555
C36 C35 1_555 1_555
H26 C36 1_555 1_555
C37 C36 1_555 1_555
C38 C37 1_555 1_555
H27 C38 1_555 1_555
C39 C34 1_555 1_555
H28 C39 1_555 1_555
C40 O9 1_555 1_555
H29 C40 1_555 1_555
H30 C40 1_555 1_555
C41 C40 1_555 1_555
C42 C41 1_555 1_555
H31 C42 1_555 1_555
C43 C42 1_555 1_555
H32 C43 1_555 1_555
C44 C43 1_555 1_555
H33 C44 1_555 1_555
C45 C44 1_555 1_555
H34 C45 1_555 1_555
C46 C41 1_555 1_555
C47 C46 1_555 1_555
H35 C47 1_555 1_555
H36 C47 1_555 1_555
C48 O10 1_555 1_555
C49 C48 1_555 1_555
H37 C49 1_555 1_555
C50 C49 1_555 1_555
H38 C50 1_555 1_555
C51 C50 1_555 1_555
C52 C51 1_555 1_555
H39 C52 1_555 1_555
C53 C48 1_555 1_555
H40 C53 1_555 1_555
C54 C51 1_555 1_555
C55 H41 1_555 1_555
C56 C55 1_555 1_555
H42 C56 1_555 1_555
C57 C56 1_555 1_555
C58 C57 1_555 1_555
H43 C58 1_555 1_555
C59 N1 1_555 1_555
H44 C59 1_555 1_555
C60 H45 1_555 1_555
C61 C60 1_555 1_555
H46 C61 1_555 1_555
C62 C57 1_555 1_555
C63 C62 1_555 1_555
H47 C63 1_555 1_555
C64 N2 1_555 1_555
H48 C64 1_555 1_555
Mn3 O15 1_555 1_555
Mn4 O16 1_555 1_555
O13 C87 1_555 1_555
O14 C87 1_555 1_555
O15 C65 1_555 1_555
O16 C65 1_555 1_555
O17 Mn3 1_555 1_555
O18 Mn4 1_555 1_555
O19 Mn4 1_555 1_555
H49 O19 1_555 1_555
H50 O19 1_555 1_555
O20 Mn3 1_555 1_555
H51 O20 1_555 1_555
H52 O20 1_555 1_555
O21 C69 1_555 1_555
O22 C99 1_555 1_555
O23 C91 1_555 1_555
O24 C79 1_555 1_555
O25 C86 1_555 1_555
O26 C86 1_555 1_555
C65 C66 1_555 1_555
C66 C67 1_555 1_555
C67 H53 1_555 1_555
C68 C67 1_555 1_555
H54 C68 1_555 1_555
C69 C68 1_555 1_555
C70 C69 1_555 1_555
H55 C70 1_555 1_555
C71 C66 1_555 1_555
H56 C71 1_555 1_555
C72 O21 1_555 1_555
H57 C72 1_555 1_555
H58 C72 1_555 1_555
C73 C72 1_555 1_555
C74 C73 1_555 1_555
H59 C74 1_555 1_555
C75 C74 1_555 1_555
H60 C75 1_555 1_555
C76 C75 1_555 1_555
H61 C76 1_555 1_555
C77 C76 1_555 1_555
H62 C77 1_555 1_555
C78 C73 1_555 1_555
C79 C78 1_555 1_555
H63 C79 1_555 1_555
H64 C79 1_555 1_555
C80 O24 1_555 1_555
C81 C80 1_555 1_555
H65 C81 1_555 1_555
C82 C81 1_555 1_555
H66 C82 1_555 1_555
C83 C82 1_555 1_555
C84 C83 1_555 1_555
H67 C84 1_555 1_555
C85 C80 1_555 1_555
H68 C85 1_555 1_555
C86 C83 1_555 1_555
C87 C88 1_555 1_555
C88 C89 1_555 1_555
C89 H69 1_555 1_555
C90 C89 1_555 1_555
H70 C90 1_555 1_555
C91 C90 1_555 1_555
C92 C91 1_555 1_555
H71 C92 1_555 1_555
C93 C88 1_555 1_555
H72 C93 1_555 1_555
C94 O23 1_555 1_555
H73 C94 1_555 1_555
H74 C94 1_555 1_555
C95 O17 1_555 1_555
C96 C95 1_555 1_555
C97 C96 1_555 1_555
H75 C97 1_555 1_555
C98 C97 1_555 1_555
H76 C98 1_555 1_555
C99 C98 1_555 1_555
C100 C99 1_555 1_555
H77 C100 1_555 1_555
C101 C96 1_555 1_555
H78 C101 1_555 1_555
C102 O22 1_555 1_555
H79 C102 1_555 1_555
H80 C102 1_555 1_555
C103 C102 1_555 1_555
C104 C103 1_555 1_555
H81 C104 1_555 1_555
C105 C104 1_555 1_555
H82 C105 1_555 1_555
C106 C105 1_555 1_555
H83 C106 1_555 1_555
C107 C106 1_555 1_555
H84 C107 1_555 1_555
C108 C94 1_555 1_555
Mn1_2 O4 1_555 1_555
Mn2_2 O11 1_555 1_555
Mn2A N2 1_555 1_555
Mn2A_2 N4 1_555 1_555
N2A Mn2 1_555 1_555
N4A Mn2 1_555 1_555
O4_2 Mn1 1_555 1_555
O11_2 Mn2 1_555 1_555
Mn3_2 O26 1_555 1_555
Mn3_3 O14 1_555 1_555
Mn4_2 O25 1_555 1_555
Mn4_3 O13 1_555 1_555
O13_2 Mn4 1_555 1_555
O14_2 Mn3 1_555 1_555
O25_2 Mn4 1_555 1_555
O26_2 Mn3 1_555 1_555
O8 C33 1_555 1_555
C6 C7 1_555 1_555
C14 C15 1_555 1_555
C17 C18 1_555 1_555
C21 C22 1_555 1_555
C26 C27 1_555 1_555
C29 C30 1_555 1_555
C31 C32 1_555 1_555
C38 C39 1_555 1_555
C45 C46 1_555 1_555
C52 C53 1_555 1_555
C58 C59 1_555 1_555
C61 C62 1_555 1_555
C63 C64 1_555 1_555
O18 C95 1_555 1_555
C70 C71 1_555 1_555
C77 C78 1_555 1_555
C84 C85 1_555 1_555
C92 C93 1_555 1_555
C100 C101 1_555 1_555
C103 C108 1_555 1_555
C107 C108 1_555 1_555

#END
