
#######################################################################
#
#                 Cambridge Crystallographic Data Centre
#                                CCDC 
#
#######################################################################
#
# If this CIF has been generated from an entry in the Cambridge 
# Structural Database, then it will include bibliographic, chemical, 
# crystal, experimental, refinement or atomic coordinate data resulting 
# from the CCDC's data processing and validation procedures.
#
#######################################################################

data_VOFSIU
_symmetry_cell_setting           monoclinic
_symmetry_space_group_name_H-M   'P 21/c'
_symmetry_Int_Tables_number      14
_space_group_name_Hall           '-P 2ybc'
loop_
_symmetry_equiv_pos_site_id
_symmetry_equiv_pos_as_xyz
1 x,y,z
2 -x,1/2+y,1/2-z
3 -x,-y,-z
4 x,1/2-y,1/2+z
_cell_length_a                   8.001(3)
_cell_length_b                   10.600(4)
_cell_length_c                   28.861(10)
_cell_angle_alpha                90
_cell_angle_beta                 103.98(2)
_cell_angle_gamma                90
_cell_volume                     2375.22
loop_
_atom_site_label
_atom_site_type_symbol
_atom_site_fract_x
_atom_site_fract_y
_atom_site_fract_z
Cu1 Cu 1.35795(6) 0.56055(5) -0.023725(18)
N1 N 1.1568(4) 0.7072(3) -0.03166(13)
O1 O 1.2932(4) 0.4874(3) 0.03209(11)
O2 O 1.5303(4) 0.3897(3) 0.07444(10)
O3 O 0.4956(4) -0.3100(3) 0.01870(11)
O4 O 0.7262(4) -0.4089(3) 0.06227(10)
O5 O 0.6872(4) 0.0985(3) 0.17892(11)
O6 O 1.0215(3) 0.3231(3) 0.20957(10)
C1 C 0.6240(6) -0.3156(4) 0.05343(15)
C2 C 0.6556(5) -0.2049(4) 0.08599(15)
C3 C 0.5464(6) -0.1013(4) 0.07570(16)
H1 H 0.4609 -0.0999 0.0474
C4 C 0.5626(6) -0.0001(4) 0.10687(15)
H2 H 0.4899 0.0692 0.0993
C5 C 0.6882(6) -0.0031(4) 0.14941(15)
C6 C 0.7996(6) -0.1040(4) 0.16005(17)
H3 H 0.8851 -0.1052 0.1883
C7 C 0.7829(6) -0.2038(4) 0.12811(16)
H4 H 0.8590 -0.2714 0.1352
C8 C 0.7983(6) 0.0947(4) 0.22616(15)
H5 H 0.9177 0.1007 0.2245
H6 H 0.7830 0.0157 0.2416
C9 C 0.7541(5) 0.2038(4) 0.25453(15)
C10 C 0.7778(5) 0.3291(4) 0.24274(15)
C11 C 0.7337(6) 0.4249(5) 0.27031(18)
H7 H 0.7489 0.5086 0.2625
C12 C 0.6684(8) 0.3982(6) 0.3087(2)
H8 H 0.6398 0.4633 0.3270
C13 C 0.6450(8) 0.2753(7) 0.3204(2)
H9 H 0.6010 0.2571 0.3467
C14 C 0.6866(7) 0.1782(5) 0.29324(18)
H10 H 0.6689 0.0950 0.3011
C15 C 0.8469(5) 0.3655(4) 0.20111(16)
H11 H 0.7783 0.3273 0.1722
H12 H 0.8421 0.4564 0.1971
C16 C 1.1030(5) 0.3525(4) 0.17451(15)
C17 C 1.2665(5) 0.3013(4) 0.17991(16)
H13 H 1.3146 0.2514 0.2062
C18 C 1.3561(5) 0.3255(4) 0.14576(15)
H14 H 1.4650 0.2907 0.1490
C19 C 1.2860(5) 0.4013(4) 0.10645(15)
C20 C 1.1261(5) 0.4524(4) 0.10275(15)
H15 H 1.0789 0.5043 0.0769
C21 C 1.0342(5) 0.4290(4) 0.13604(15)
H16 H 0.9257 0.4646 0.1327
C22 C 1.3766(5) 0.4275(4) 0.06826(15)
C23 C 1.1752(7) 0.8125(5) -0.05332(19)
H17 H 1.2335 0.8092 -0.0775
C24 C 1.1142(7) 0.9288(5) -0.0429(2)
H18 H 1.1307 0.9999 -0.0601
C25 C 1.0300(5) 0.9384(4) -0.00727(17)
C26 C 1.0045(8) 0.8268(5) 0.0135(2)
H19 H 0.9427 0.8262 0.0370
C27 C 1.0680(7) 0.7157(5) 0.0006(2)
H20 H 1.0465 0.6421 0.0157
N1B N 0.8432(4) 1.2928(3) 0.03166(13)
C23B C 0.8248(7) 1.1875(5) 0.05332(19)
H17B H 0.7665 1.1908 0.0775
C24B C 0.8858(7) 1.0712(5) 0.0429(2)
H18B H 0.8693 1.0001 0.0601
C25B C 0.9700(5) 1.0616(4) 0.00727(17)
C26B C 0.9955(8) 1.1732(5) -0.0135(2)
H19B H 1.0573 1.1738 -0.0370
C27B C 0.9320(7) 1.2843(5) -0.0006(2)
H20B H 0.9535 1.3579 -0.0157
Cu1B Cu 0.64205(6) -0.56055(5) 0.023725(18)
O1B O 0.7068(4) -0.4874(3) -0.03209(11)
O2B O 0.4697(4) -0.3897(3) -0.07444(10)
O3B O 1.5044(4) 0.3100(3) -0.01870(11)
O4B O 1.2738(4) 0.4089(3) -0.06227(10)
O5B O 1.3128(4) -0.0985(3) -0.17892(11)
O6B O 0.9785(3) -0.3231(3) -0.20957(10)
C1B C 1.3760(6) 0.3156(4) -0.05343(15)
C2B C 1.3444(5) 0.2049(4) -0.08599(15)
C3B C 1.4536(6) 0.1013(4) -0.07570(16)
H1B H 1.5391 0.0999 -0.0474
C4B C 1.4374(6) 0.0001(4) -0.10687(15)
H2B H 1.5101 -0.0692 -0.0993
C5B C 1.3118(6) 0.0031(4) -0.14941(15)
C6B C 1.2004(6) 0.1040(4) -0.16005(17)
H3B H 1.1149 0.1052 -0.1883
C7B C 1.2171(6) 0.2038(4) -0.12811(16)
H4B H 1.1410 0.2714 -0.1352
C8B C 1.2017(6) -0.0947(4) -0.22616(15)
H5B H 1.0823 -0.1007 -0.2245
H6B H 1.2170 -0.0157 -0.2416
C9B C 1.2459(5) -0.2038(4) -0.25453(15)
C10B C 1.2222(5) -0.3291(4) -0.24274(15)
C11B C 1.2663(6) -0.4249(5) -0.27031(18)
H7B H 1.2511 -0.5086 -0.2625
C12B C 1.3316(8) -0.3982(6) -0.3087(2)
H8B H 1.3602 -0.4633 -0.3270
C13B C 1.3550(8) -0.2753(7) -0.3204(2)
H9B H 1.3990 -0.2571 -0.3467
C14B C 1.3134(7) -0.1782(5) -0.29324(18)
H10B H 1.3311 -0.0950 -0.3011
C15B C 1.1531(5) -0.3655(4) -0.20111(16)
H11B H 1.2217 -0.3273 -0.1722
H12B H 1.1579 -0.4564 -0.1971
C16B C 0.8970(5) -0.3525(4) -0.17451(15)
C17B C 0.7335(5) -0.3013(4) -0.17991(16)
H13B H 0.6854 -0.2514 -0.2062
C18B C 0.6439(5) -0.3255(4) -0.14576(15)
H14B H 0.5350 -0.2907 -0.1490
C19B C 0.7140(5) -0.4013(4) -0.10645(15)
C20B C 0.8739(5) -0.4524(4) -0.10275(15)
H15B H 0.9211 -0.5043 -0.0769
C21B C 0.9658(5) -0.4290(4) -0.13604(15)
H16B H 1.0743 -0.4646 -0.1327
C22B C 0.6234(5) -0.4275(4) -0.06826(15)
Cu1_2 Cu 0.35795(6) -0.43945(5) -0.023725(18)
Cu1B_2 Cu 0.64205(6) 1.43945(5) 0.023725(18)
Cu1B_3 Cu 1.64205(6) 0.43945(5) 0.023725(18)
N1B_2 N 0.8432(4) -0.7072(3) 0.03166(13)
O2_2 O 0.5303(4) -0.6103(3) 0.07444(10)
O2B_2 O 1.4697(4) 0.6103(3) -0.07444(10)
O3_2 O 1.4956(4) 0.6900(3) 0.01870(11)
O3B_2 O 0.5044(4) -0.6900(3) -0.01870(11)
loop_
_geom_bond_atom_site_label_1
_geom_bond_atom_site_label_2
_geom_bond_site_symmetry_1
_geom_bond_site_symmetry_2
Cu1 N1 1_555 1_555
N1 C23 1_555 1_555
O1 Cu1 1_555 1_555
O2 C22 1_555 1_555
O3 C1 1_555 1_555
O4 C1 1_555 1_555
O5 C5 1_555 1_555
O6 C15 1_555 1_555
C1 C2 1_555 1_555
C2 C3 1_555 1_555
C3 H1 1_555 1_555
C4 C3 1_555 1_555
H2 C4 1_555 1_555
C5 C4 1_555 1_555
C6 C5 1_555 1_555
H3 C6 1_555 1_555
C7 C2 1_555 1_555
H4 C7 1_555 1_555
C8 O5 1_555 1_555
H5 C8 1_555 1_555
H6 C8 1_555 1_555
C9 C8 1_555 1_555
C10 C9 1_555 1_555
C11 C10 1_555 1_555
H7 C11 1_555 1_555
C12 C11 1_555 1_555
H8 C12 1_555 1_555
C13 C12 1_555 1_555
H9 C13 1_555 1_555
C14 C9 1_555 1_555
H10 C14 1_555 1_555
C15 C10 1_555 1_555
H11 C15 1_555 1_555
H12 C15 1_555 1_555
C16 O6 1_555 1_555
C17 C16 1_555 1_555
H13 C17 1_555 1_555
C18 C17 1_555 1_555
H14 C18 1_555 1_555
C19 C18 1_555 1_555
C20 C19 1_555 1_555
H15 C20 1_555 1_555
C21 C16 1_555 1_555
H16 C21 1_555 1_555
C22 O1 1_555 1_555
C23 H17 1_555 1_555
C24 C23 1_555 1_555
H18 C24 1_555 1_555
C25 C24 1_555 1_555
C26 C25 1_555 1_555
H19 C26 1_555 1_555
C27 N1 1_555 1_555
H20 C27 1_555 1_555
N1B C23B 1_555 1_555
C23B H17B 1_555 1_555
C24B C23B 1_555 1_555
H18B C24B 1_555 1_555
C25B C25 1_555 1_555
C26B C25B 1_555 1_555
H19B C26B 1_555 1_555
C27B N1B 1_555 1_555
H20B C27B 1_555 1_555
Cu1B O4 1_555 1_555
O1B Cu1B 1_555 1_555
O2B C22B 1_555 1_555
O3B C1B 1_555 1_555
O4B Cu1 1_555 1_555
O5B C5B 1_555 1_555
O6B C15B 1_555 1_555
C1B O4B 1_555 1_555
C2B C1B 1_555 1_555
C3B C2B 1_555 1_555
H1B C3B 1_555 1_555
C4B C3B 1_555 1_555
H2B C4B 1_555 1_555
C5B C4B 1_555 1_555
C6B C5B 1_555 1_555
H3B C6B 1_555 1_555
C7B C2B 1_555 1_555
H4B C7B 1_555 1_555
C8B O5B 1_555 1_555
H5B C8B 1_555 1_555
H6B C8B 1_555 1_555
C9B C8B 1_555 1_555
C10B C9B 1_555 1_555
C11B C10B 1_555 1_555
H7B C11B 1_555 1_555
C12B C11B 1_555 1_555
H8B C12B 1_555 1_555
C13B C12B 1_555 1_555
H9B C13B 1_555 1_555
C14B C9B 1_555 1_555
H10B C14B 1_555 1_555
C15B C10B 1_555 1_555
H11B C15B 1_555 1_555
H12B C15B 1_555 1_555
C16B O6B 1_555 1_555
C17B C16B 1_555 1_555
H13B C17B 1_555 1_555
C18B C17B 1_555 1_555
H14B C18B 1_555 1_555
C19B C18B 1_555 1_555
C20B C19B 1_555 1_555
H15B C20B 1_555 1_555
C21B C16B 1_555 1_555
H16B C21B 1_555 1_555
C22B O1B 1_555 1_555
Cu1_2 O3 1_555 1_555
Cu1B_2 N1B 1_555 1_555
Cu1B_3 Cu1 1_555 1_555
N1B_2 Cu1B 1_555 1_555
O2_2 Cu1B 1_555 1_555
O2B_2 Cu1 1_555 1_555
O3_2 Cu1 1_555 1_555
O3B_2 Cu1B 1_555 1_555
O2 Cu1B_3 1_555 1_555
C6 C7 1_555 1_555
C13 C14 1_555 1_555
C19 C22 1_555 1_555
C20 C21 1_555 1_555
C26 C27 1_555 1_555
C24B C25B 1_555 1_555
C26B C27B 1_555 1_555
Cu1B Cu1_2 1_555 1_555
O2B Cu1_2 1_555 1_555
O3B Cu1B_3 1_555 1_555
C6B C7B 1_555 1_555
C13B C14B 1_555 1_555
C19B C22B 1_555 1_555
C20B C21B 1_555 1_555

#END
