
#######################################################################
#
#                 Cambridge Crystallographic Data Centre
#                                CCDC 
#
#######################################################################
#
# If this CIF has been generated from an entry in the Cambridge 
# Structural Database, then it will include bibliographic, chemical, 
# crystal, experimental, refinement or atomic coordinate data resulting 
# from the CCDC's data processing and validation procedures.
#
#######################################################################

data_VOFVIW
_symmetry_cell_setting           triclinic
_symmetry_space_group_name_H-M   'P -1'
_symmetry_Int_Tables_number      2
_space_group_name_Hall           '-P 1'
loop_
_symmetry_equiv_pos_site_id
_symmetry_equiv_pos_as_xyz
1 x,y,z
2 -x,-y,-z
_cell_length_a                   8.2133(6)
_cell_length_b                   9.1739(7)
_cell_length_c                   15.3408(11)
_cell_angle_alpha                100.0800(10)
_cell_angle_beta                 96.9150(10)
_cell_angle_gamma                100.3360(10)
_cell_volume                     1105.75
loop_
_atom_site_label
_atom_site_type_symbol
_atom_site_fract_x
_atom_site_fract_y
_atom_site_fract_z
Cd1 Cd -0.67452(4) 0.34406(3) 0.92603(2)
Cd2 Cd -0.51618(4) 0.19267(4) 0.61916(2)
O1 O -0.4064(5) 0.3935(5) 0.5571(3)
H1 H -0.3046 0.3936 0.5523
H2 H -0.4627 0.3853 0.5056
O2 O -0.6096(4) 0.2225(4) 0.7823(2)
O3 O -0.5816(5) 0.0058(4) 0.7025(2)
O4 O -0.6601(5) -0.4489(4) 0.8606(2)
O5 O -0.6224(4) -0.3885(3) 1.0077(2)
O6 O -0.8416(7) 0.0916(5) 1.1220(3)
O7 O -0.7636(5) 0.2834(4) 1.0547(2)
N1 N -0.6956(4) 0.0929(4) 0.9169(2)
N2 N -1.3173(5) 0.0540(4) 0.5794(2)
N3 N -1.3088(5) -0.0574(4) 0.5105(2)
N4 N -1.0891(5) -0.0369(4) 0.6171(2)
N5 N -1.2582(5) 0.2723(4) 0.7336(3)
N6 N -0.9663(5) 0.3102(4) 0.8553(3)
N7 N -1.2385(5) -0.2989(4) 0.4020(2)
N8 N -0.9387(5) -0.3915(5) 0.4359(3)
C1 C -0.6492(5) 0.0064(5) 0.8485(3)
C2 C -0.6373(6) -0.1419(5) 0.8498(3)
H3 H -0.6082 -0.2019 0.8011
C3 C -0.6697(5) -0.1989(5) 0.9251(3)
C4 C -0.7192(6) -0.1089(5) 0.9953(3)
H4 H -0.7432 -0.1459 1.0460
C5 C -0.7325(6) 0.0377(5) 0.9883(3)
C6 C -0.6105(5) 0.0840(5) 0.7721(3)
C7 C -0.6482(6) -0.3557(5) 0.9314(3)
C8 C -0.7850(7) 0.1465(6) 1.0614(3)
C9 C -1.1853(5) 0.0629(5) 0.6406(3)
C10 C -1.1721(5) -0.1086(5) 0.5354(3)
C11 C -1.1513(5) 0.1778(5) 0.7231(3)
C12 C -1.0106(6) 0.1945(5) 0.7852(3)
H5 H -0.9438 0.1227 0.7782
C13 C -1.0704(6) 0.4066(6) 0.8640(3)
H6 H -1.0430 0.4900 0.9112
C14 C -1.2172(6) 0.3859(6) 0.8052(3)
H7 H -1.2892 0.4523 0.8155
C15 C -1.1264(6) -0.2327(5) 0.4759(3)
C16 C -0.9758(6) -0.2792(5) 0.4921(3)
H8 H -0.8995 -0.2308 0.5433
C17 C -1.0509(7) -0.4587(6) 0.3647(4)
H9 H -1.0286 -0.5392 0.3252
C18 C -1.2012(6) -0.4125(6) 0.3471(3)
H10 H -1.2770 -0.4619 0.2960
Cd1_2 Cd -0.67452(4) -0.65594(3) 0.92603(2)
Cd1A Cd -0.32548(4) -0.34406(3) 1.07397(2)
Cd2_2 Cd -1.51618(4) 0.19267(4) 0.61916(2)
Cd2A Cd -1.48382(4) -0.19267(4) 0.38084(2)
O4_2 O -0.6601(5) 0.5511(4) 0.8606(2)
O5_2 O -0.6224(4) 0.6115(3) 1.0077(2)
O5A O -0.3776(4) 0.3885(3) 0.9923(2)
N2_2 N -0.3173(5) 0.0540(4) 0.5794(2)
N3A N -0.6912(5) 0.0574(4) 0.4895(2)
N5_2 N -0.2582(5) 0.2723(4) 0.7336(3)
N7A N -0.7615(5) 0.2989(4) 0.5980(2)
O8 O -0.5122(10) 0.2940(8) 0.3548(5)
H11 H -0.6153 0.2840 0.3344
H12 H -0.4855 0.2081 0.3436
O9 O -0.8897(9) 0.2690(7) 0.2709(4)
H13 H -0.9005 0.2080 0.3066
H14 H -0.8646 0.2234 0.2227
loop_
_geom_bond_atom_site_label_1
_geom_bond_atom_site_label_2
_geom_bond_site_symmetry_1
_geom_bond_site_symmetry_2
Cd1 O2 1_555 1_555
Cd2 O1 1_555 1_555
O1 H1 1_555 1_555
H2 O1 1_555 1_555
O2 C6 1_555 1_555
O3 Cd2 1_555 1_555
O4 C7 1_555 1_555
O5 C7 1_555 1_555
O6 C8 1_555 1_555
O7 Cd1 1_555 1_555
N1 Cd1 1_555 1_555
N2 N3 1_555 1_555
N3 C10 1_555 1_555
N4 C9 1_555 1_555
N5 C11 1_555 1_555
N6 Cd1 1_555 1_555
N7 C15 1_555 1_555
N8 C16 1_555 1_555
C1 N1 1_555 1_555
C2 C1 1_555 1_555
H3 C2 1_555 1_555
C3 C2 1_555 1_555
C4 C3 1_555 1_555
H4 C4 1_555 1_555
C5 N1 1_555 1_555
C6 O3 1_555 1_555
C7 C3 1_555 1_555
C8 O7 1_555 1_555
C9 N2 1_555 1_555
C10 N4 1_555 1_555
C11 C9 1_555 1_555
C12 N6 1_555 1_555
H5 C12 1_555 1_555
C13 N6 1_555 1_555
H6 C13 1_555 1_555
C14 N5 1_555 1_555
H7 C14 1_555 1_555
C15 C10 1_555 1_555
C16 C15 1_555 1_555
H8 C16 1_555 1_555
C17 N8 1_555 1_555
H9 C17 1_555 1_555
C18 N7 1_555 1_555
H10 C18 1_555 1_555
O8 H11 1_555 1_555
H12 O8 1_555 1_555
O9 H13 1_555 1_555
H14 O9 1_555 1_555
Cd1_2 O4 1_555 1_555
Cd1A O5 1_555 1_555
Cd2_2 N2 1_555 1_555
Cd2A N3 1_555 1_555
O4_2 Cd1 1_555 1_555
O5_2 Cd1 1_555 1_555
O5A Cd1 1_555 1_555
N2_2 Cd2 1_555 1_555
N3A Cd2 1_555 1_555
N5_2 Cd2 1_555 1_555
N7A Cd2 1_555 1_555
O5 Cd1_2 1_555 1_555
N5 Cd2_2 1_555 1_555
N7 Cd2A 1_555 1_555
C1 C6 1_555 1_555
C4 C5 1_555 1_555
C5 C8 1_555 1_555
C11 C12 1_555 1_555
C13 C14 1_555 1_555
C17 C18 1_555 1_555

#END
