
#######################################################################
#
#                 Cambridge Crystallographic Data Centre
#                                CCDC 
#
#######################################################################
#
# If this CIF has been generated from an entry in the Cambridge 
# Structural Database, then it will include bibliographic, chemical, 
# crystal, experimental, refinement or atomic coordinate data resulting 
# from the CCDC's data processing and validation procedures.
#
#######################################################################

data_VOFVES
_symmetry_cell_setting           triclinic
_symmetry_space_group_name_H-M   'P -1'
_symmetry_Int_Tables_number      2
_space_group_name_Hall           '-P 1'
loop_
_symmetry_equiv_pos_site_id
_symmetry_equiv_pos_as_xyz
1 x,y,z
2 -x,-y,-z
_cell_length_a                   12.448(6)
_cell_length_b                   13.316(6)
_cell_length_c                   13.365(6)
_cell_angle_alpha                81.410(8)
_cell_angle_beta                 82.604(7)
_cell_angle_gamma                74.083(9)
_cell_volume                     2097.52
loop_
_atom_site_label
_atom_site_type_symbol
_atom_site_fract_x
_atom_site_fract_y
_atom_site_fract_z
Cd1 Cd 0.33802(3) 0.25872(3) 0.19089(3)
Cd2 Cd 0.02283(3) 0.16823(3) 0.22545(3)
Cd3 Cd 0.65399(3) 0.25564(3) 0.27723(3)
O1 O 0.5408(3) 0.1730(3) 0.2105(3)
O2 O 0.4370(3) 0.0861(3) 0.1597(3)
O3 O 0.2159(3) 0.1961(3) 0.3109(3)
O4 O 0.0333(3) 0.2493(3) 0.3577(3)
O5 O -0.1270(3) 0.3189(3) 0.1854(3)
O6 O -0.2876(3) 0.3261(3) 0.1257(3)
N1 N 0.2241(3) 0.2448(3) 0.0771(3)
N2 N 0.1319(3) 0.2080(3) 0.0874(3)
N3 N 0.1860(3) 0.2312(3) -0.0786(3)
N4 N 0.4147(4) 0.3061(4) 0.0123(3)
N5 N 0.4967(4) 0.3154(5) -0.1935(4)
N6 N -0.0406(4) 0.1297(4) 0.0607(3)
N7 N -0.1169(5) 0.1498(4) -0.1303(4)
N8 N -0.1034(3) 0.0862(3) 0.3110(3)
N9 N -0.2143(3) 0.1225(3) 0.3413(3)
N10 N -0.1460(3) -0.0235(3) 0.4450(3)
N11 N 0.1192(3) -0.0084(3) 0.2990(3)
N12 N 0.2011(4) -0.2079(3) 0.4008(3)
N13 N -0.4203(3) 0.1669(3) 0.4405(3)
N14 N -0.4815(4) 0.0401(4) 0.6112(3)
N15 N 0.4857(3) 0.3762(3) 0.2879(3)
N16 N 0.3827(3) 0.3812(3) 0.2617(3)
N17 N 0.3705(3) 0.5267(3) 0.3337(3)
N18 N 0.6686(3) 0.4019(3) 0.3597(3)
N19 N 0.6647(4) 0.5860(3) 0.4367(3)
N20 N 0.1634(4) 0.4394(3) 0.2232(3)
N21 N 0.0141(4) 0.6164(4) 0.2965(4)
C1 C 0.2550(4) 0.2562(4) -0.0220(4)
C2 C 0.1119(4) 0.2015(4) -0.0068(4)
C3 C 0.3581(4) 0.2877(4) -0.0591(4)
C4 C 0.3991(5) 0.2932(5) -0.1611(4)
H1 H 0.3560 0.2807 -0.2093
C5 C 0.5535(5) 0.3318(6) -0.1214(5)
H2 H 0.6247 0.3456 -0.1407
C6 C 0.5123(5) 0.3294(5) -0.0194(4)
H3 H 0.5542 0.3444 0.0284
C7 C 0.0144(4) 0.1666(4) -0.0232(4)
C8 C -0.0236(5) 0.1752(5) -0.1182(4)
H4 H 0.0185 0.2001 -0.1765
C9 C -0.1706(5) 0.1137(5) -0.0466(5)
H5 H -0.2377 0.0948 -0.0519
C10 C -0.1325(5) 0.1026(5) 0.0482(4)
H6 H -0.1732 0.0748 0.1058
C11 C -0.0659(4) 0.0003(4) 0.3746(4)
C12 C -0.2359(4) 0.0551(4) 0.4212(4)
C13 C 0.0520(4) -0.0567(4) 0.3635(4)
C14 C 0.0941(4) -0.1547(4) 0.4154(4)
H7 H 0.0451 -0.1852 0.4631
C15 C 0.2666(4) -0.1614(4) 0.3338(4)
H8 H 0.3428 -0.1980 0.3192
C16 C 0.2266(4) -0.0611(4) 0.2847(4)
H9 H 0.2768 -0.0292 0.2399
C17 C -0.3480(4) 0.0775(4) 0.4754(4)
C18 C -0.3788(4) 0.0137(4) 0.5603(4)
H10 H -0.3265 -0.0498 0.5830
C19 C -0.5508(4) 0.1297(4) 0.5765(4)
H11 H -0.6230 0.1518 0.6116
C20 C -0.5215(4) 0.1921(4) 0.4907(4)
H12 H -0.5749 0.2545 0.4671
C21 C 0.4757(4) 0.4631(4) 0.3301(3)
C22 C 0.3164(4) 0.4726(4) 0.2901(4)
C23 C 0.5743(4) 0.4808(4) 0.3673(4)
C24 C 0.5731(4) 0.5723(4) 0.4064(4)
H13 H 0.5051 0.6262 0.4115
C25 C 0.7580(4) 0.5072(4) 0.4300(4)
H14 H 0.8248 0.5144 0.4521
C26 C 0.7600(4) 0.4160(4) 0.3919(4)
H15 H 0.8280 0.3619 0.3885
C27 C 0.1971(4) 0.5029(4) 0.2742(4)
C28 C 0.1232(4) 0.5908(4) 0.3108(4)
H16 H 0.1505 0.6337 0.3467
C29 C -0.0189(4) 0.5540(5) 0.2463(4)
H17 H -0.0957 0.5706 0.2343
C30 C 0.0532(5) 0.4660(4) 0.2105(4)
H18 H 0.0246 0.4229 0.1760
C31 C 0.5298(4) 0.0894(4) 0.1850(4)
C32 C 0.6281(5) -0.0052(4) 0.1807(4)
H19 H 0.6016 -0.0692 0.1952
H20 H 0.6786 -0.0054 0.2313
H21 H 0.6684 -0.0029 0.1128
C33 C 0.1349(4) 0.2413(4) 0.3697(4)
C34 C 0.1578(5) 0.2847(4) 0.4594(4)
H22 H 0.2215 0.3159 0.4406
H23 H 0.1756 0.2280 0.5153
H24 H 0.0913 0.3388 0.4810
C35 C -0.1949(4) 0.3487(4) 0.1199(4)
C36 C -0.1667(6) 0.4191(5) 0.0262(5)
H25 H -0.0855 0.3993 0.0076
H26 H -0.1903 0.4925 0.0403
H27 H -0.2059 0.4111 -0.0300
Cd3_2 Cd -0.34601(3) 0.25564(3) 0.27723(3)
O6_2 O 0.7124(3) 0.3261(3) 0.1257(3)
N9_2 N 0.7857(3) 0.1225(3) 0.3413(3)
N13_2 N 0.5797(3) 0.1669(3) 0.4405(3)
O7 O 0.4256(6) -0.0759(6) 0.0614(6)
H28 H 0.4226 -0.0245 0.0933
H29 H 0.4557 -0.0670 0.0011
O8 O 0.1980(9) 0.2127(9) -0.2943(7)
H30 H 0.2059 0.2087 -0.2315
H31 H 0.1383 0.2601 -0.3070
loop_
_geom_bond_atom_site_label_1
_geom_bond_atom_site_label_2
_geom_bond_site_symmetry_1
_geom_bond_site_symmetry_2
Cd1 O1 1_555 1_555
Cd2 O4 1_555 1_555
Cd3 O1 1_555 1_555
O1 C31 1_555 1_555
O2 Cd1 1_555 1_555
O3 Cd1 1_555 1_555
O4 C33 1_555 1_555
O5 Cd2 1_555 1_555
O6 C35 1_555 1_555
N1 Cd1 1_555 1_555
N2 Cd2 1_555 1_555
N3 C1 1_555 1_555
N4 Cd1 1_555 1_555
N5 C4 1_555 1_555
N6 Cd2 1_555 1_555
N7 C8 1_555 1_555
N8 Cd2 1_555 1_555
N9 N8 1_555 1_555
N10 C11 1_555 1_555
N11 Cd2 1_555 1_555
N12 C14 1_555 1_555
N13 C17 1_555 1_555
N14 C18 1_555 1_555
N15 Cd3 1_555 1_555
N16 Cd1 1_555 1_555
N17 C21 1_555 1_555
N18 Cd3 1_555 1_555
N19 C24 1_555 1_555
N20 Cd1 1_555 1_555
N21 C28 1_555 1_555
C1 N1 1_555 1_555
C2 N2 1_555 1_555
C3 N4 1_555 1_555
C4 C3 1_555 1_555
H1 C4 1_555 1_555
C5 N5 1_555 1_555
H2 C5 1_555 1_555
C6 N4 1_555 1_555
H3 C6 1_555 1_555
C7 N6 1_555 1_555
C8 C7 1_555 1_555
H4 C8 1_555 1_555
C9 N7 1_555 1_555
H5 C9 1_555 1_555
C10 N6 1_555 1_555
H6 C10 1_555 1_555
C11 N8 1_555 1_555
C12 N9 1_555 1_555
C13 N11 1_555 1_555
C14 C13 1_555 1_555
H7 C14 1_555 1_555
C15 N12 1_555 1_555
H8 C15 1_555 1_555
C16 N11 1_555 1_555
H9 C16 1_555 1_555
C17 C12 1_555 1_555
C18 C17 1_555 1_555
H10 C18 1_555 1_555
C19 N14 1_555 1_555
H11 C19 1_555 1_555
C20 N13 1_555 1_555
H12 C20 1_555 1_555
C21 N15 1_555 1_555
C22 N16 1_555 1_555
C23 N18 1_555 1_555
C24 C23 1_555 1_555
H13 C24 1_555 1_555
C25 N19 1_555 1_555
H14 C25 1_555 1_555
C26 N18 1_555 1_555
H15 C26 1_555 1_555
C27 N20 1_555 1_555
C28 C27 1_555 1_555
H16 C28 1_555 1_555
C29 N21 1_555 1_555
H17 C29 1_555 1_555
C30 N20 1_555 1_555
H18 C30 1_555 1_555
C31 O2 1_555 1_555
C32 C31 1_555 1_555
H19 C32 1_555 1_555
H20 C32 1_555 1_555
H21 C32 1_555 1_555
C33 O3 1_555 1_555
C34 C33 1_555 1_555
H22 C34 1_555 1_555
H23 C34 1_555 1_555
H24 C34 1_555 1_555
C35 O5 1_555 1_555
C36 C35 1_555 1_555
H25 C36 1_555 1_555
H26 C36 1_555 1_555
H27 C36 1_555 1_555
O7 H28 1_555 1_555
H29 O7 1_555 1_555
O8 H30 1_555 1_555
H31 O8 1_555 1_555
Cd3_2 O6 1_555 1_555
O6_2 Cd3 1_555 1_555
N9_2 Cd3 1_555 1_555
N13_2 Cd3 1_555 1_555
N1 N2 1_555 1_555
N3 C2 1_555 1_555
N9 Cd3_2 1_555 1_555
N10 C12 1_555 1_555
N13 Cd3_2 1_555 1_555
N15 N16 1_555 1_555
N17 C22 1_555 1_555
C1 C3 1_555 1_555
C2 C7 1_555 1_555
C5 C6 1_555 1_555
C9 C10 1_555 1_555
C11 C13 1_555 1_555
C15 C16 1_555 1_555
C19 C20 1_555 1_555
C21 C23 1_555 1_555
C22 C27 1_555 1_555
C25 C26 1_555 1_555
C29 C30 1_555 1_555

#END
