
#######################################################################
#
#                 Cambridge Crystallographic Data Centre
#                                CCDC 
#
#######################################################################
#
# If this CIF has been generated from an entry in the Cambridge 
# Structural Database, then it will include bibliographic, chemical, 
# crystal, experimental, refinement or atomic coordinate data resulting 
# from the CCDC's data processing and validation procedures.
#
#######################################################################

data_VOFXUL
_symmetry_cell_setting           orthorhombic
_symmetry_space_group_name_H-M   'P n n a'
_symmetry_Int_Tables_number      52
_space_group_name_Hall           '-P 2a 2bc'
loop_
_symmetry_equiv_pos_site_id
_symmetry_equiv_pos_as_xyz
1 x,y,z
2 1/2-x,-y,z
3 x,1/2-y,1/2-z
4 1/2-x,1/2+y,1/2-z
5 -x,-y,-z
6 1/2+x,y,-z
7 -x,1/2+y,1/2+z
8 1/2+x,1/2-y,1/2+z
_cell_length_a                   7.8576(10)
_cell_length_b                   24.637(3)
_cell_length_c                   13.7898(17)
_cell_angle_alpha                90
_cell_angle_beta                 90
_cell_angle_gamma                90
_cell_volume                     2669.54
loop_
_atom_site_label
_atom_site_type_symbol
_atom_site_fract_x
_atom_site_fract_y
_atom_site_fract_z
C1 C 0.994(2) 0.1875(12) 0.2110(15)
H1 H 1.1094 0.1887 0.2263
N1 N 0.922(3) 0.1991(11) 0.1190(11)
N2 N 0.743(3) 0.1924(9) 0.1266(12)
C2 C 0.705(2) 0.1767(11) 0.2233(14)
H2 H 0.5968 0.1697 0.2481
N3 N 0.860(3) 0.1737(9) 0.2754(10)
Ag1 Ag 1.0630(5) 0.20886(12) -0.01299(18)
O1 O 0.742(6) 0.2720(16) -0.112(3)
O2 O 0.831(4) 0.3461(12) -0.182(2)
O3 O 0.996(3) 0.3008(9) -0.0821(15)
N4 N 0.855(5) 0.3037(15) -0.137(3)
C3 C 0.886(6) 0.1598(17) 0.372(3)
H3 H 0.8037 0.1781 0.4129
H4 H 0.9994 0.1703 0.3923
C4 C 0.705(4) 0.0727(12) 0.384(3)
H5 H 0.6070 0.0939 0.3879
C5 C 0.864(4) 0.0961(12) 0.379(3)
C6 C 0.695(4) 0.0165(11) 0.382(3)
C7 C 0.527(5) -0.003(2) 0.379(3)
H6 H 0.4357 0.0212 0.3766
C8 C 1.004(5) 0.0617(19) 0.379(4)
H7 H 1.1136 0.0756 0.3793
C1A C 0.506(2) -0.1875(12) 0.2110(15)
H1A H 0.3906 -0.1887 0.2263
N1A N 0.578(3) -0.1991(11) 0.1190(11)
N2A N 0.757(3) -0.1924(9) 0.1266(12)
C2A C 0.795(2) -0.1767(11) 0.2233(14)
H2A H 0.9032 -0.1697 0.2481
N3A N 0.640(3) -0.1737(9) 0.2754(10)
C3A C 0.614(6) -0.1598(17) 0.372(3)
H3A H 0.6963 -0.1781 0.4129
H4A H 0.5006 -0.1703 0.3923
C4A C 0.795(4) -0.0727(12) 0.384(3)
H5A H 0.8930 -0.0939 0.3879
C5A C 0.636(4) -0.0961(12) 0.379(3)
C6A C 0.805(4) -0.0165(11) 0.382(3)
C7A C 0.973(5) 0.003(2) 0.379(3)
H6A H 1.0643 -0.0212 0.3766
C8A C 0.496(5) -0.0617(19) 0.379(4)
H7A H 0.3864 -0.0756 0.3793
Ag1A Ag 0.4370(5) -0.20886(12) -0.01299(18)
O1A O 0.758(6) -0.2720(16) -0.112(3)
O2A O 0.669(4) -0.3461(12) -0.182(2)
O3A O 0.504(3) -0.3008(9) -0.0821(15)
N4A N 0.645(5) -0.3037(15) -0.137(3)
N2D N 0.257(3) -0.1924(9) -0.1266(12)
N2E N 1.243(3) 0.1924(9) -0.1266(12)
Ag1D Ag 0.9370(5) -0.20886(12) 0.01299(18)
Ag1E Ag 0.5630(5) 0.20886(12) 0.01299(18)
O1D O 0.258(6) -0.2720(16) 0.112(3)
O1E O 1.242(6) 0.2720(16) 0.112(3)
loop_
_geom_bond_atom_site_label_1
_geom_bond_atom_site_label_2
_geom_bond_site_symmetry_1
_geom_bond_site_symmetry_2
C1 H1 1_555 1_555
N1 C1 1_555 1_555
N2 N1 1_555 1_555
C2 N2 1_555 1_555
H2 C2 1_555 1_555
N3 C1 1_555 1_555
Ag1 N1 1_555 1_555
O1 N4 1_555 1_555
O2 N4 1_555 1_555
O3 Ag1 1_555 1_555
N4 O3 1_555 1_555
C3 N3 1_555 1_555
H3 C3 1_555 1_555
H4 C3 1_555 1_555
C4 H5 1_555 1_555
C5 C3 1_555 1_555
C6 C4 1_555 1_555
C7 C6 1_555 1_555
H6 C7 1_555 1_555
C8 C5 1_555 1_555
H7 C8 1_555 1_555
C1A H1A 1_555 1_555
N1A C1A 1_555 1_555
N2A N1A 1_555 1_555
C2A N2A 1_555 1_555
H2A C2A 1_555 1_555
N3A C1A 1_555 1_555
C3A N3A 1_555 1_555
H3A C3A 1_555 1_555
H4A C3A 1_555 1_555
C4A H5A 1_555 1_555
C5A C3A 1_555 1_555
C6A C6 1_555 1_555
C7A C8 1_555 1_555
H6A C7A 1_555 1_555
C8A C7 1_555 1_555
H7A C8A 1_555 1_555
Ag1A N1A 1_555 1_555
O1A N4A 1_555 1_555
O2A N4A 1_555 1_555
O3A Ag1A 1_555 1_555
N4A O3A 1_555 1_555
N2D Ag1A 1_555 1_555
N2E Ag1 1_555 1_555
Ag1D N2A 1_555 1_555
Ag1E N2 1_555 1_555
O1D Ag1A 1_555 1_555
O1E Ag1 1_555 1_555
C2 N3 1_555 1_555
O1 Ag1E 1_555 1_555
C4 C5 1_555 1_555
C2A N3A 1_555 1_555
C4A C5A 1_555 1_555
C4A C6A 1_555 1_555
C5A C8A 1_555 1_555
C6A C7A 1_555 1_555
O1A Ag1D 1_555 1_555

#END
