
#######################################################################
#
#                 Cambridge Crystallographic Data Centre
#                                CCDC 
#
#######################################################################
#
# If this CIF has been generated from an entry in the Cambridge 
# Structural Database, then it will include bibliographic, chemical, 
# crystal, experimental, refinement or atomic coordinate data resulting 
# from the CCDC's data processing and validation procedures.
#
#######################################################################

data_VOGDUS
_symmetry_cell_setting           monoclinic
_symmetry_space_group_name_H-M   'P 21/c'
_symmetry_Int_Tables_number      14
_space_group_name_Hall           '-P 2ybc'
loop_
_symmetry_equiv_pos_site_id
_symmetry_equiv_pos_as_xyz
1 x,y,z
2 -x,1/2+y,1/2-z
3 -x,-y,-z
4 x,1/2-y,1/2+z
_cell_length_a                   17.772(4)
_cell_length_b                   12.695(3)
_cell_length_c                   22.095(9)
_cell_angle_alpha                90
_cell_angle_beta                 119.79(2)
_cell_angle_gamma                90
_cell_volume                     4326.22
loop_
_atom_site_label
_atom_site_type_symbol
_atom_site_fract_x
_atom_site_fract_y
_atom_site_fract_z
Dy1 Dy 0.33514(2) -0.97956(3) -0.106799(16)
Dy2 Dy 1.06569(2) -1.01770(3) -0.226338(16)
S1 S 0.19024(13) -0.50988(14) 0.09035(9)
S2 S 0.18558(13) -0.48793(14) -0.43276(9)
S3 S 0.49855(12) -0.93280(17) -0.41425(9)
C1 C 0.1567(5) -0.8679(6) -0.0995(4)
C2 C 0.1683(5) -0.7830(6) -0.0488(4)
C3 C 0.0951(5) -0.7376(6) -0.0540(4)
H1 H 0.0408 -0.7624 -0.0871
C4 C 0.1010(5) -0.6554(7) -0.0104(4)
H2 H 0.0513 -0.6249 -0.0140
C5 C 0.1823(5) -0.6198(6) 0.0384(4)
C6 C 0.2562(6) -0.6652(7) 0.0452(5)
H3 H 0.3107 -0.6416 0.0789
C7 C 0.2477(5) -0.7474(6) 0.0006(4)
H4 H 0.2973 -0.7788 0.0045
C8 C 0.1966(5) -0.4018(6) 0.0424(4)
C9 C 0.1229(5) -0.3451(6) -0.0004(4)
H5 H 0.0703 -0.3621 -0.0032
C10 C 0.1278(5) -0.2623(6) -0.0395(4)
H6 H 0.0785 -0.2232 -0.0683
C11 C 0.2058(5) -0.2376(6) -0.0358(4)
C12 C 0.2795(5) -0.2934(7) 0.0084(4)
H7 H 0.3324 -0.2752 0.0122
C13 C 0.2751(5) -0.3774(6) 0.0476(4)
H8 H 0.3245 -0.4162 0.0767
C14 C 0.2065(5) -0.1510(5) -0.0821(4)
C15 C 0.1936(5) -0.8438(6) -0.2491(4)
C16 C 0.1908(5) -0.7591(6) -0.2979(4)
C17 C 0.1130(5) -0.7135(6) -0.3450(4)
H9 H 0.0618 -0.7371 -0.3478
C18 C 0.1104(5) -0.6324(6) -0.3884(4)
H10 H 0.0578 -0.6025 -0.4207
C19 C 0.1871(5) -0.5970(6) -0.3826(4)
C20 C 0.2642(5) -0.6422(7) -0.3359(4)
H11 H 0.3156 -0.6172 -0.3320
C21 C 0.2662(5) -0.7250(6) -0.2944(4)
H12 H 0.3185 -0.7575 -0.2642
C22 C 0.2013(5) -0.3783(6) -0.3774(4)
C23 C 0.1317(5) -0.3419(6) -0.3721(4)
H13 H 0.0772 -0.3725 -0.3980
C24 C 0.1448(5) -0.2587(7) -0.3272(4)
H14 H 0.0987 -0.2332 -0.3229
C25 C 0.2256(5) -0.2132(6) -0.2890(4)
C26 C 0.2947(5) -0.2498(6) -0.2960(4)
H15 H 0.3491 -0.2187 -0.2709
C27 C 0.2817(5) -0.3326(6) -0.3407(4)
H16 H 0.3274 -0.3575 -0.3460
C28 C 0.2409(5) -0.1278(6) -0.2360(4)
C29 C 0.4674(5) -0.8678(6) -0.1568(4)
C30 C 0.4765(5) -0.8863(6) -0.2199(4)
C31 C 0.4817(5) -0.8010(6) -0.2564(4)
H17 H 0.4805 -0.7331 -0.2411
C32 C 0.4888(5) -0.8153(6) -0.3154(4)
H18 H 0.4931 -0.7577 -0.3395
C33 C 0.4895(5) -0.9161(6) -0.3378(4)
C34 C 0.4852(5) -1.0019(6) -0.3021(4)
H19 H 0.4873 -1.0695 -0.3174
C35 C 0.4777(5) -0.9876(6) -0.2430(4)
H20 H 0.4735 -1.0455 -0.2191
C36 C 0.6112(5) -0.9441(6) -0.3805(4)
C37 C 0.6599(5) -0.8543(6) -0.3730(4)
H21 H 0.6330 -0.7891 -0.3881
C38 C 0.7491(5) -0.8633(6) -0.3430(4)
H22 H 0.7823 -0.8039 -0.3379
C39 C 0.7886(5) -0.9598(6) -0.3205(4)
C40 C 0.7396(5) -1.0471(7) -0.3273(5)
H23 H 0.7669 -1.1117 -0.3108
C41 C 0.6500(5) -1.0410(7) -0.3584(5)
H24 H 0.6170 -1.1009 -0.3643
C42 C 0.8850(5) -0.9688(6) -0.2856(4)
O1 O 0.3907(4) -0.8029(5) -0.0681(3)
O2 O 0.2247(3) -0.9076(4) -0.0965(3)
O3 O 0.4463(3) -1.1130(4) -0.0442(3)
O4 O 0.0814(4) -0.8966(4) -0.1428(3)
O5 O 0.3883(3) -0.9622(4) 0.0213(3)
O6 O 0.2797(3) -0.1238(4) -0.0741(3)
O7 O 1.0183(4) -1.1992(4) -0.2588(3)
O8 O 0.1350(3) -0.1122(4) -0.1251(3)
O9 O 1.0025(4) -1.0181(4) -0.3521(3)
O10 O 0.1090(4) -0.5009(4) 0.0900(3)
O11 O 0.2698(4) -0.5162(4) 0.1548(3)
O12 O 0.2667(3) -0.8811(4) -0.2065(2)
O13 O 0.1225(3) -0.8708(4) -0.2541(3)
O14 O 0.3171(3) -0.1048(4) -0.1921(3)
O15 O 0.1758(3) -0.0883(4) -0.2367(3)
O16 O 0.2608(4) -0.4941(4) -0.4409(3)
O17 O 0.1009(4) -0.4802(4) -0.4932(3)
O18 O 0.4549(3) -0.9480(4) -0.1268(3)
O19 O 0.4723(4) -0.7755(5) -0.1362(3)
O20 O 0.9216(4) -1.0512(4) -0.2498(3)
O21 O 0.9300(3) -0.8959(4) -0.2908(3)
O22 O 0.4579(4) -1.0313(5) -0.4458(3)
O23 O 0.4686(4) -0.8362(5) -0.4536(3)
H25 H 0.4292 -0.7997 -0.0805
H26 H 0.3965 -0.7641 -0.0343
H27 H 0.4796 -1.0914 -0.0027
H28 H 0.4164 -1.1626 -0.0411
H29 H 0.3590 -0.9732 0.0413
H30 H 0.4367 -0.9915 0.0507
H31 H 0.9682 -1.2022 -0.2629
H32 H 1.0307 -1.2585 -0.2387
H33 H 0.9922 -0.9630 -0.3349
H34 H 1.0277 -1.0179 -0.3760
Dy1_2 Dy 0.33514(2) 0.02044(3) -0.106799(16)
Dy2_2 Dy 0.06569(2) -1.01770(3) -0.226338(16)
Dy2_3 Dy 0.06569(2) -0.01770(3) -0.226338(16)
O4_2 O 1.0814(4) -0.8966(4) -0.1428(3)
O6_2 O 0.2797(3) -1.1238(4) -0.0741(3)
O8_2 O 1.1350(3) -1.1122(4) -0.1251(3)
O13_2 O 1.1225(3) -0.8708(4) -0.2541(3)
O14_2 O 0.3171(3) -1.1048(4) -0.1921(3)
O15_2 O 1.1758(3) -1.0883(4) -0.2367(3)
loop_
_geom_bond_atom_site_label_1
_geom_bond_atom_site_label_2
_geom_bond_site_symmetry_1
_geom_bond_site_symmetry_2
Dy1 O1 1_555 1_555
Dy2 O7 1_555 1_555
S1 C5 1_555 1_555
S2 C19 1_555 1_555
S3 C33 1_555 1_555
C1 C2 1_555 1_555
C2 C3 1_555 1_555
C3 H1 1_555 1_555
C4 C3 1_555 1_555
H2 C4 1_555 1_555
C5 C4 1_555 1_555
C6 C5 1_555 1_555
H3 C6 1_555 1_555
C7 C2 1_555 1_555
H4 C7 1_555 1_555
C8 S1 1_555 1_555
C9 C8 1_555 1_555
H5 C9 1_555 1_555
C10 C9 1_555 1_555
H6 C10 1_555 1_555
C11 C10 1_555 1_555
C12 C11 1_555 1_555
H7 C12 1_555 1_555
C13 C8 1_555 1_555
H8 C13 1_555 1_555
C14 C11 1_555 1_555
C15 C16 1_555 1_555
C16 C17 1_555 1_555
C17 H9 1_555 1_555
C18 C17 1_555 1_555
H10 C18 1_555 1_555
C19 C18 1_555 1_555
C20 C19 1_555 1_555
H11 C20 1_555 1_555
C21 C16 1_555 1_555
H12 C21 1_555 1_555
C22 S2 1_555 1_555
C23 C22 1_555 1_555
H13 C23 1_555 1_555
C24 C23 1_555 1_555
H14 C24 1_555 1_555
C25 C24 1_555 1_555
C26 C25 1_555 1_555
H15 C26 1_555 1_555
C27 C22 1_555 1_555
H16 C27 1_555 1_555
C28 C25 1_555 1_555
C29 C30 1_555 1_555
C30 C31 1_555 1_555
C31 H17 1_555 1_555
C32 C31 1_555 1_555
H18 C32 1_555 1_555
C33 C32 1_555 1_555
C34 C33 1_555 1_555
H19 C34 1_555 1_555
C35 C30 1_555 1_555
H20 C35 1_555 1_555
C36 S3 1_555 1_555
C37 C36 1_555 1_555
H21 C37 1_555 1_555
C38 C37 1_555 1_555
H22 C38 1_555 1_555
C39 C38 1_555 1_555
C40 C39 1_555 1_555
H23 C40 1_555 1_555
C41 C36 1_555 1_555
H24 C41 1_555 1_555
C42 C39 1_555 1_555
O1 H25 1_555 1_555
O2 Dy1 1_555 1_555
O3 Dy1 1_555 1_555
O4 C1 1_555 1_555
O5 Dy1 1_555 1_555
O6 C14 1_555 1_555
O7 H31 1_555 1_555
O8 C14 1_555 1_555
O9 Dy2 1_555 1_555
O10 S1 1_555 1_555
O11 S1 1_555 1_555
O12 Dy1 1_555 1_555
O13 C15 1_555 1_555
O14 C28 1_555 1_555
O15 C28 1_555 1_555
O16 S2 1_555 1_555
O17 S2 1_555 1_555
O18 Dy1 1_555 1_555
O19 C29 1_555 1_555
O20 Dy2 1_555 1_555
O21 Dy2 1_555 1_555
O22 S3 1_555 1_555
O23 S3 1_555 1_555
H26 O1 1_555 1_555
H27 O3 1_555 1_555
H28 O3 1_555 1_555
H29 O5 1_555 1_555
H30 O5 1_555 1_555
H32 O7 1_555 1_555
H33 O9 1_555 1_555
H34 O9 1_555 1_555
Dy1_2 O6 1_555 1_555
Dy2_2 O4 1_555 1_555
Dy2_3 O8 1_555 1_555
O4_2 Dy2 1_555 1_555
O6_2 Dy1 1_555 1_555
O8_2 Dy2 1_555 1_555
O13_2 Dy2 1_555 1_555
O14_2 Dy1 1_555 1_555
O15_2 Dy2 1_555 1_555
C1 O2 1_555 1_555
C6 C7 1_555 1_555
C12 C13 1_555 1_555
C15 O12 1_555 1_555
C20 C21 1_555 1_555
C26 C27 1_555 1_555
C29 O18 1_555 1_555
C34 C35 1_555 1_555
C40 C41 1_555 1_555
C42 O20 1_555 1_555
C42 O21 1_555 1_555
O13 Dy2_2 1_555 1_555
O14 Dy1_2 1_555 1_555
O15 Dy2_3 1_555 1_555

#END
