
#######################################################################
#
#                 Cambridge Crystallographic Data Centre
#                                CCDC 
#
#######################################################################
#
# If this CIF has been generated from an entry in the Cambridge 
# Structural Database, then it will include bibliographic, chemical, 
# crystal, experimental, refinement or atomic coordinate data resulting 
# from the CCDC's data processing and validation procedures.
#
#######################################################################

data_VOGGON
_symmetry_cell_setting           tetragonal
_symmetry_space_group_name_H-M   'P 42/m'
_symmetry_Int_Tables_number      84
_space_group_name_Hall           '-P 4c'
loop_
_symmetry_equiv_pos_site_id
_symmetry_equiv_pos_as_xyz
1 x,y,z
2 -y,x,1/2+z
3 -x,-y,z
4 y,-x,1/2+z
5 -x,-y,-z
6 y,-x,1/2-z
7 x,y,-z
8 -y,x,1/2-z
_cell_length_a                   8.379(1)
_cell_length_b                   8.379(1)
_cell_length_c                   15.832(4)
_cell_angle_alpha                90
_cell_angle_beta                 90
_cell_angle_gamma                90
_cell_volume                     1111.53
loop_
_atom_site_label
_atom_site_type_symbol
_atom_site_fract_x
_atom_site_fract_y
_atom_site_fract_z
Cu1 Cu 0.0000 0.5000 0.0000
N1 N 0.2009(6) 0.2991(5) 0.0000
O1 O -0.1208(3) 0.3793(3) 0.0854(2)
C1 C 0.1670(7) 0.1472(8) 0.0000
C2 C 0.2773(7) 0.0272(8) 0.0000
C3 C 0.4367(6) 0.0632(6) 0.0000
C4 C 0.4731(8) 0.2214(8) 0.0000
C5 C 0.3524(7) 0.3338(7) 0.0000
C6 C -0.1032(5) 0.3973(5) 0.1640(3)
C7 C 0.0000 0.5000 0.2040(4)
C8 C -0.2104(7) 0.2907(8) 0.2172(5)
F1 F -0.3539(9) 0.3188(3) 0.1958(7)
F2 F -0.1959(12) 0.3054(12) 0.2943(5)
F3 F -0.1874(13) 0.1482(9) 0.1940(6)
H1 H 0.05608 0.14113 0.00000
H2 H 0.24282 -0.08260 0.00000
H3 H 0.58244 0.26037 0.00000
H4 H 0.35751 0.45118 0.00000
H5 H 0.00000 0.50000 0.26487
N1D N -0.2009(6) 0.7009(5) 0.0000
O1D O 0.1208(3) 0.6207(3) -0.0854(2)
O1B O 0.1208(3) 0.6207(3) 0.0854(2)
O1F O -0.1208(3) 0.3793(3) -0.0854(2)
C3D C 0.5633(6) -0.0632(6) 0.0000
C6B C 0.1032(5) 0.6027(5) 0.1640(3)
C1D C -0.1670(7) 0.8528(8) 0.0000
C5D C -0.3524(7) 0.6662(7) 0.0000
C6D C 0.1032(5) 0.6027(5) -0.1640(3)
C6F C -0.1032(5) 0.3973(5) -0.1640(3)
C2D C 0.7227(7) -0.0272(8) 0.0000
C4D C 0.5269(8) -0.2214(8) 0.0000
C8B C 0.2104(7) 0.7093(8) 0.2172(5)
C2D_2 C -0.2773(7) 0.9728(8) 0.0000
H1D H -0.05608 0.85887 0.00000
C4D_2 C -0.4731(8) 0.7786(8) 0.0000
H4D H -0.35751 0.54882 0.00000
C7D C 0.0000 0.5000 -0.2040(4)
C8D C 0.2104(7) 0.7093(8) -0.2172(5)
C8F C -0.2104(7) 0.2907(8) -0.2172(5)
C1D_2 C 0.8330(7) -0.1472(8) 0.0000
H2D H 0.75718 0.08260 0.00000
C5D_2 C 0.6476(7) -0.3338(7) 0.0000
H3D H 0.41756 -0.26037 0.00000
F1B F 0.3539(9) 0.6812(3) 0.1958(7)
F2B F 0.1959(12) 0.6946(12) 0.2943(5)
F3B F 0.1874(13) 0.8518(9) 0.1940(6)
H5D H 0.00000 0.50000 -0.26487
F1D F 0.3539(9) 0.6812(3) -0.1958(7)
F2D F 0.1959(12) 0.6946(12) -0.2943(5)
F3D F 0.1874(13) 0.8518(9) -0.1940(6)
F1F F -0.3539(9) 0.3188(3) -0.1958(7)
F2F F -0.1959(12) 0.3054(12) -0.2943(5)
F3F F -0.1874(13) 0.1482(9) -0.1940(6)
loop_
_geom_bond_atom_site_label_1
_geom_bond_atom_site_label_2
_geom_bond_site_symmetry_1
_geom_bond_site_symmetry_2
Cu1 N1 1_555 1_555
N1 C1 1_555 1_555
O1 Cu1 1_555 1_555
C1 C2 1_555 1_555
C2 C3 1_555 1_555
C3 C4 1_555 1_555
C4 C5 1_555 1_555
C5 N1 1_555 1_555
C6 O1 1_555 1_555
C7 C6 1_555 1_555
C8 C6 1_555 1_555
F1 C8 1_555 1_555
F2 C8 1_555 1_555
F3 C8 1_555 1_555
H1 C1 1_555 1_555
H2 C2 1_555 1_555
H3 C4 1_555 1_555
H4 C5 1_555 1_555
H5 C7 1_555 1_555
N1D Cu1 1_555 1_555
O1D Cu1 1_555 1_555
O1B Cu1 1_555 1_555
O1F Cu1 1_555 1_555
C3D C3 1_555 1_555
C6B C7 1_555 1_555
C1D N1D 1_555 1_555
C5D N1D 1_555 1_555
C6D O1D 1_555 1_555
C6F O1F 1_555 1_555
C2D C3D 1_555 1_555
C4D C3D 1_555 1_555
C8B C6B 1_555 1_555
C2D_2 C1D 1_555 1_555
H1D C1D 1_555 1_555
C4D_2 C5D 1_555 1_555
H4D C5D 1_555 1_555
C7D C6D 1_555 1_555
C8D C6D 1_555 1_555
C8F C6F 1_555 1_555
C1D_2 C2D 1_555 1_555
H2D C2D 1_555 1_555
C5D_2 C4D 1_555 1_555
H3D C4D 1_555 1_555
F1B C8B 1_555 1_555
F2B C8B 1_555 1_555
F3B C8B 1_555 1_555
H5D C7D 1_555 1_555
F1D C8D 1_555 1_555
F2D C8D 1_555 1_555
F3D C8D 1_555 1_555
F1F C8F 1_555 1_555
F2F C8F 1_555 1_555
F3F C8F 1_555 1_555
O1B C6B 1_555 1_555
C6F C7D 1_555 1_555

#END
