
#######################################################################
#
#                 Cambridge Crystallographic Data Centre
#                                CCDC 
#
#######################################################################
#
# If this CIF has been generated from an entry in the Cambridge 
# Structural Database, then it will include bibliographic, chemical, 
# crystal, experimental, refinement or atomic coordinate data resulting 
# from the CCDC's data processing and validation procedures.
#
#######################################################################

data_VOGPUE
_symmetry_cell_setting           triclinic
_symmetry_space_group_name_H-M   'P -1'
_symmetry_Int_Tables_number      2
_space_group_name_Hall           '-P 1'
loop_
_symmetry_equiv_pos_site_id
_symmetry_equiv_pos_as_xyz
1 x,y,z
2 -x,-y,-z
_cell_length_a                   9.0727(2)
_cell_length_b                   9.0760(2)
_cell_length_c                   15.3648(3)
_cell_angle_alpha                106.099(2)
_cell_angle_beta                 90.817(2)
_cell_angle_gamma                93.146(2)
_cell_volume                     1213.18
loop_
_atom_site_label
_atom_site_type_symbol
_atom_site_fract_x
_atom_site_fract_y
_atom_site_fract_z
C1 C 0.6175(6) 0.8336(6) 0.9833(3)
H1 H 0.5799 0.8609 1.0412
C2 C 0.6928(7) 0.9448(6) 0.9531(4)
H2 H 0.7053 1.0451 0.9901
C3 C 0.7496(6) 0.9059(6) 0.8673(4)
H3 H 0.8029 0.9786 0.8461
C4 C 0.7255(5) 0.7579(5) 0.8144(3)
C5 C 0.6490(5) 0.6535(5) 0.8500(3)
H4 H 0.6334 0.5529 0.8139
C6 C 0.8087(6) 0.7872(6) 0.6671(4)
C7 C 0.8759(7) 0.6951(6) 0.5807(4)
H5 H 0.9708 0.6626 0.5956
H6 H 0.8124 0.6034 0.5544
C8 C 0.8970(10) 0.7839(7) 0.5112(5)
H7 H 0.8017 0.8151 0.4958
H8 H 0.9591 0.8763 0.538
C9 C 0.9658(7) 0.6937(6) 0.4255(4)
H9 H 1.065 0.6707 0.4396
H10 H 0.9087 0.5971 0.401
C10 C 0.9724(9) 0.7808(7) 0.3552(5)
H11 H 0.8726 0.8008 0.3403
H12 H 1.0256 0.8793 0.3812
C11 C 1.0449(6) 0.7001(5) 0.2691(4)
C12 C 1.0742(5) 0.7100(5) 0.1115(3)
C13 C 0.9950(6) 0.7261(6) 0.0376(4)
H13 H 0.9021 0.7656 0.0444
C14 C 1.0575(6) 0.6817(7) -0.0476(4)
H14 H 1.0067 0.6906 -0.0987
C15 C 1.1939(6) 0.6253(6) -0.0545(3)
H15 H 1.2346 0.5948 -0.1115
C16 C 1.2133(5) 0.6566(6) 0.0982(3)
H16 H 1.2694 0.6515 0.1483
Cd1 Cd 0.500 0.500 1.0
N1 N 0.5963(4) 0.6887(4) 0.9329(3)
N2 N 0.7824(5) 0.7028(5) 0.7272(3)
H17 H 0.8023 0.6077 0.7103
N3 N 1.0138(5) 0.7554(5) 0.1976(3)
H18 H 0.9509 0.8252 0.2061
N4 N 1.2715(4) 0.6118(4) 0.0163(3)
O1 O 0.7829(5) 0.9203(4) 0.6822(3)
O2 O 1.1265(5) 0.5978(5) 0.2640(3)
O3 O 0.5793(4) 0.6557(4) 1.1442(2)
H19 H 0.5577 0.6096 1.1849
H20 H 0.5363 0.7411 1.1564
C1A C 0.3825(6) 0.1664(6) 1.0167(3)
H1A H 0.4201 0.1391 0.9588
C2A C 0.3072(7) 0.0552(6) 1.0469(4)
H2A H 0.2947 -0.0451 1.0099
C3A C 0.2504(6) 0.0941(6) 1.1327(4)
H3A H 0.1971 0.0214 1.1539
C4A C 0.2745(5) 0.2421(5) 1.1856(3)
C5A C 0.3510(5) 0.3465(5) 1.1500(3)
H4A H 0.3666 0.4471 1.1861
C6A C 0.1913(6) 0.2128(6) 1.3329(4)
C7A C 0.1241(7) 0.3049(6) 1.4193(4)
H5A H 0.0292 0.3374 1.4044
H6A H 0.1876 0.3966 1.4456
C8A C 0.1030(10) 0.2161(7) 1.4888(5)
H7A H 0.1983 0.1849 1.5042
H8A H 0.0409 0.1237 1.462
C9A C 0.0342(7) 0.3063(6) 1.5745(4)
H9A H -0.065 0.3293 1.5604
H10A H 0.0913 0.4029 1.599
C10A C 0.0276(9) 0.2192(7) 1.6448(5)
H11A H 0.1274 0.1992 1.6597
H12A H -0.0256 0.1207 1.6188
C11A C -0.0449(6) 0.2999(5) 1.7309(4)
C12A C -0.0742(5) 0.2900(5) 1.8885(3)
C13A C 0.0050(6) 0.2739(6) 1.9624(4)
H13A H 0.0979 0.2344 1.9556
C14A C -0.0575(6) 0.3183(7) 2.0476(4)
H14A H -0.0067 0.3094 2.0987
C15A C -0.1939(6) 0.3747(6) 2.0545(3)
H15A H -0.2346 0.4052 2.1115
C16A C -0.2133(5) 0.3434(6) 1.9018(3)
H16A H -0.2694 0.3485 1.8517
N1A N 0.4037(4) 0.3113(4) 1.0671(3)
N2A N 0.2176(5) 0.2972(5) 1.2728(3)
H17A H 0.1977 0.3923 1.2897
N3A N -0.0138(5) 0.2446(5) 1.8024(3)
H18A H 0.0491 0.1748 1.7939
N4A N -0.2715(4) 0.3882(4) 1.9837(3)
O1A O 0.2171(5) 0.0797(4) 1.3178(3)
O2A O -0.1265(5) 0.4022(5) 1.7360(3)
O3A O 0.4207(4) 0.3443(4) 0.8558(2)
H19A H 0.4423 0.3904 0.8151
H20A H 0.4637 0.2589 0.8436
Cd1_2 Cd -0.500 0.500 2.0
Cd1_3 Cd 1.500 0.500 0.0
N4_2 N 0.2715(4) 0.6118(4) 1.0163(3)
N4A_2 N 0.7285(4) 0.3882(4) 0.9837(3)
Cl1 Cl 0.7604(3) 0.1224(3) 0.24172(13)
O4 O 0.6462(10) 0.1520(11) 0.1888(7)
O5 O 0.8829(16) 0.0638(17) 0.1934(10)
O6 O 0.781(3) 0.146(3) 0.3307(16)
O7 O 0.849(2) 0.294(2) 0.2634(13)
O10 O 0.4507(12) 0.9028(13) 0.2409(8)
O8? O 0.7711(19) -0.046(2) 0.1903(12)
O9? O 0.708(3) 0.094(3) 0.3187(17)
loop_
_geom_bond_atom_site_label_1
_geom_bond_atom_site_label_2
_geom_bond_site_symmetry_1
_geom_bond_site_symmetry_2
C1 H1 1_555 1_555
C2 C1 1_555 1_555
H2 C2 1_555 1_555
C3 C2 1_555 1_555
H3 C3 1_555 1_555
C4 C3 1_555 1_555
C5 C4 1_555 1_555
H4 C5 1_555 1_555
C6 C7 1_555 1_555
C7 H5 1_555 1_555
H6 C7 1_555 1_555
C8 C7 1_555 1_555
H7 C8 1_555 1_555
H8 C8 1_555 1_555
C9 C8 1_555 1_555
H9 C9 1_555 1_555
H10 C9 1_555 1_555
C10 C9 1_555 1_555
H11 C10 1_555 1_555
H12 C10 1_555 1_555
C11 C10 1_555 1_555
C12 C13 1_555 1_555
C13 H13 1_555 1_555
C14 C13 1_555 1_555
H14 C14 1_555 1_555
C15 C14 1_555 1_555
H15 C15 1_555 1_555
C16 C12 1_555 1_555
H16 C16 1_555 1_555
Cd1 N1 1_555 1_555
N1 C1 1_555 1_555
N2 C4 1_555 1_555
H17 N2 1_555 1_555
N3 C11 1_555 1_555
H18 N3 1_555 1_555
N4 C15 1_555 1_555
O1 C6 1_555 1_555
O2 C11 1_555 1_555
O3 Cd1 1_555 1_555
H19 O3 1_555 1_555
H20 O3 1_555 1_555
Cl1 O4 1_555 1_555
O5 Cl1 1_555 1_555
O6 Cl1 1_555 1_555
O7 Cl1 1_555 1_555
C1A H1A 1_555 1_555
C2A C1A 1_555 1_555
H2A C2A 1_555 1_555
C3A C2A 1_555 1_555
H3A C3A 1_555 1_555
C4A C3A 1_555 1_555
C5A C4A 1_555 1_555
H4A C5A 1_555 1_555
C6A C7A 1_555 1_555
C7A H5A 1_555 1_555
H6A C7A 1_555 1_555
C8A C7A 1_555 1_555
H7A C8A 1_555 1_555
H8A C8A 1_555 1_555
C9A C8A 1_555 1_555
H9A C9A 1_555 1_555
H10A C9A 1_555 1_555
C10A C9A 1_555 1_555
H11A C10A 1_555 1_555
H12A C10A 1_555 1_555
C11A C10A 1_555 1_555
C12A C13A 1_555 1_555
C13A H13A 1_555 1_555
C14A C13A 1_555 1_555
H14A C14A 1_555 1_555
C15A C14A 1_555 1_555
H15A C15A 1_555 1_555
C16A C12A 1_555 1_555
H16A C16A 1_555 1_555
N1A Cd1 1_555 1_555
N2A C4A 1_555 1_555
H17A N2A 1_555 1_555
N3A C11A 1_555 1_555
H18A N3A 1_555 1_555
N4A C15A 1_555 1_555
O1A C6A 1_555 1_555
O2A C11A 1_555 1_555
O3A Cd1 1_555 1_555
H19A O3A 1_555 1_555
H20A O3A 1_555 1_555
Cd1_2 N4A 1_555 1_555
Cd1_3 N4 1_555 1_555
N4_2 Cd1 1_555 1_555
N4A_2 Cd1 1_555 1_555
C5 N1 1_555 1_555
C6 N2 1_555 1_555
C12 N3 1_555 1_555
C16 N4 1_555 1_555
C1A N1A 1_555 1_555
C5A N1A 1_555 1_555
C6A N2A 1_555 1_555
C12A N3A 1_555 1_555
C16A N4A 1_555 1_555

#END
