
#######################################################################
#
#                 Cambridge Crystallographic Data Centre
#                                CCDC 
#
#######################################################################
#
# If this CIF has been generated from an entry in the Cambridge 
# Structural Database, then it will include bibliographic, chemical, 
# crystal, experimental, refinement or atomic coordinate data resulting 
# from the CCDC's data processing and validation procedures.
#
#######################################################################

data_VOGPOY
_symmetry_cell_setting           orthorhombic
_symmetry_space_group_name_H-M   'P 21 21 2'
_symmetry_Int_Tables_number      18
_space_group_name_Hall           'P 2 2ab'
loop_
_symmetry_equiv_pos_site_id
_symmetry_equiv_pos_as_xyz
1 x,y,z
2 -x,-y,z
3 1/2+x,1/2-y,-z
4 1/2-x,1/2+y,-z
_cell_length_a                   11.3423(3)
_cell_length_b                   19.2826(7)
_cell_length_c                   9.5549(3)
_cell_angle_alpha                90
_cell_angle_beta                 90
_cell_angle_gamma                90
_cell_volume                     2089.74
loop_
_atom_site_label
_atom_site_type_symbol
_atom_site_fract_x
_atom_site_fract_y
_atom_site_fract_z
C1 C 0.6117(5) 0.3808(3) 0.3618(6)
H1 H 0.6728 0.3893 0.4244
C2 C 0.6141(6) 0.3228(4) 0.2810(6)
H2 H 0.6758 0.2914 0.2904
C3 C 0.5256(6) 0.3100(3) 0.1850(6)
H3 H 0.5255 0.2696 0.1317
C4 C 0.4368(5) 0.3593(3) 0.1702(6)
C5 C 0.4376(5) 0.4162(3) 0.2567(6)
H4 H 0.3776 0.4488 0.2484
C6 C 0.2818(5) 0.3943(3) 0.0056(8)
C7 C 0.1917(6) 0.3665(3) -0.0988(7)
H5 H 0.2145 0.3801 -0.1928
H6 H 0.1905 0.3163 -0.0947
C8 C 0.0693(6) 0.3946(4) -0.0667(7)
H7 H 0.0711 0.4447 -0.0736
H8 H 0.0149 0.3776 -0.137
C9 C 0.0236(5) 0.3747(3) 0.0760(7)
H9 H 0.0744 0.3951 0.1466
H10 H 0.0281 0.3247 0.0858
C10 C -0.1046(6) 0.3980(3) 0.1041(6)
H11 H -0.1246 0.3882 0.2008
H12 H -0.1107 0.4477 0.0901
C11 C -0.1901(5) 0.3620(3) 0.0102(7)
C12 C -0.5240(5) 0.3641(3) -0.3528(6)
H13 H -0.5836 0.3564 -0.4178
C13 C -0.4903(7) 0.3109(3) -0.2647(7)
H14 H -0.5266 0.2678 -0.2714
C14 C -0.4037(6) 0.3217(3) -0.1674(7)
H15 H -0.3787 0.2856 -0.1101
C15 C -0.3539(5) 0.3868(3) -0.1556(6)
C16 C -0.3913(5) 0.4376(3) -0.2462(6)
H16 H -0.3588 0.4817 -0.2376
Cu1 Cu 0.500 0.500 0.50370(10)
N1 N 0.5213(5) 0.4261(3) 0.3520(5)
N2 N 0.3457(4) 0.3456(2) 0.0740(5)
H17 H 0.3294 0.3028 0.0573
N3 N -0.4724(4) 0.4269(3) -0.3467(5)
N4 N -0.2665(4) 0.4045(2) -0.0572(5)
H18 H -0.2609 0.4478 -0.0373
O1 O 0.2955(4) 0.4560(2) 0.0224(6)
O2 O -0.1925(4) 0.2987(2) -0.0025(6)
O3 O 0.2846(4) 0.4720(3) 0.5056(8)
H19 H 0.2662 0.4293 0.4598
H20 H 0.2359 0.5057 0.4597
C1A C 0.3883(5) 0.6192(3) 0.3618(6)
H1A H 0.3272 0.6107 0.4244
C2A C 0.3859(6) 0.6772(4) 0.2810(6)
H2A H 0.3242 0.7086 0.2904
C3A C 0.4744(6) 0.6900(3) 0.1850(6)
H3A H 0.4745 0.7304 0.1317
C4A C 0.5632(5) 0.6407(3) 0.1702(6)
C5A C 0.5624(5) 0.5838(3) 0.2567(6)
H4A H 0.6224 0.5512 0.2484
C6A C 0.7182(5) 0.6057(3) 0.0056(8)
C7A C 0.8083(6) 0.6335(3) -0.0988(7)
H5A H 0.7855 0.6199 -0.1928
H6A H 0.8095 0.6837 -0.0947
C8A C 0.9307(6) 0.6054(4) -0.0667(7)
H7A H 0.9289 0.5553 -0.0736
H8A H 0.9851 0.6224 -0.137
C9A C 0.9764(5) 0.6253(3) 0.0760(7)
H9A H 0.9256 0.6049 0.1466
H10A H 0.9719 0.6753 0.0858
C10A C 1.1046(6) 0.6020(3) 0.1041(6)
H11A H 1.1246 0.6118 0.2008
H12A H 1.1107 0.5523 0.0901
C11A C 1.1901(5) 0.6380(3) 0.0102(7)
C12A C 1.5240(5) 0.6359(3) -0.3528(6)
H13A H 1.5836 0.6436 -0.4178
C13A C 1.4903(7) 0.6891(3) -0.2647(7)
H14A H 1.5266 0.7322 -0.2714
C14A C 1.4037(6) 0.6783(3) -0.1674(7)
H15A H 1.3787 0.7144 -0.1101
C15A C 1.3539(5) 0.6132(3) -0.1556(6)
C16A C 1.3913(5) 0.5624(3) -0.2462(6)
H16A H 1.3588 0.5183 -0.2376
N1A N 0.4787(5) 0.5739(3) 0.3520(5)
N2A N 0.6543(4) 0.6544(2) 0.0740(5)
H17A H 0.6706 0.6972 0.0573
N3A N 1.4724(4) 0.5731(3) -0.3467(5)
N4A N 1.2665(4) 0.5955(2) -0.0572(5)
H18A H 1.2609 0.5522 -0.0373
O1A O 0.7045(4) 0.5440(2) 0.0224(6)
O2A O 1.1925(4) 0.7013(2) -0.0025(6)
O3A O 0.7154(4) 0.5280(3) 0.5056(8)
H19A H 0.7338 0.5707 0.4598
H20A H 0.7641 0.4943 0.4597
Cu1_2 Cu -0.500 0.500 -0.49630(10)
Cu1_3 Cu 1.500 0.500 -0.49630(10)
N3_2 N 0.5276(4) 0.4269(3) 0.6533(5)
N3A_2 N 0.4724(4) 0.5731(3) 0.6533(5)
Cl1 Cl 0.3980(6) 0.1684(5) 0.4364(5)
O4 O 0.3993(9) 0.1644(5) 0.5735(10)
O5 O 0.3375(14) 0.2160(15) 0.3459(18)
O6 O 0.5133(6) 0.1738(4) 0.3973(8)
O7 O 0.3508(13) 0.1048(10) 0.3950(17)
O9 O 0.2099(10) 0.3429(6) 0.4163(13)
H21 H 0.1351 0.3409 0.414
H22 H 0.2362 0.3113 0.4701
O8? O 0.3490(17) 0.1964(10) 0.567(2)
loop_
_geom_bond_atom_site_label_1
_geom_bond_atom_site_label_2
_geom_bond_site_symmetry_1
_geom_bond_site_symmetry_2
C1 H1 1_555 1_555
C2 C1 1_555 1_555
H2 C2 1_555 1_555
C3 C2 1_555 1_555
H3 C3 1_555 1_555
C4 C3 1_555 1_555
C5 C4 1_555 1_555
H4 C5 1_555 1_555
C6 C7 1_555 1_555
C7 H5 1_555 1_555
H6 C7 1_555 1_555
C8 C7 1_555 1_555
H7 C8 1_555 1_555
H8 C8 1_555 1_555
C9 C8 1_555 1_555
H9 C9 1_555 1_555
H10 C9 1_555 1_555
C10 C9 1_555 1_555
H11 C10 1_555 1_555
H12 C10 1_555 1_555
C11 C10 1_555 1_555
C12 H13 1_555 1_555
C13 C12 1_555 1_555
H14 C13 1_555 1_555
C14 C13 1_555 1_555
H15 C14 1_555 1_555
C15 C14 1_555 1_555
C16 C15 1_555 1_555
H16 C16 1_555 1_555
Cu1 N1 1_555 1_555
N1 C1 1_555 1_555
N2 C4 1_555 1_555
H17 N2 1_555 1_555
N3 C12 1_555 1_555
N4 C11 1_555 1_555
H18 N4 1_555 1_555
O1 C6 1_555 1_555
O2 C11 1_555 1_555
O3 Cu1 1_555 1_555
H19 O3 1_555 1_555
H20 O3 1_555 1_555
Cl1 O4 1_555 1_555
O5 Cl1 1_555 1_555
O6 Cl1 1_555 1_555
O7 Cl1 1_555 1_555
O9 H21 1_555 1_555
H22 O9 1_555 1_555
C1A H1A 1_555 1_555
C2A C1A 1_555 1_555
H2A C2A 1_555 1_555
C3A C2A 1_555 1_555
H3A C3A 1_555 1_555
C4A C3A 1_555 1_555
C5A C4A 1_555 1_555
H4A C5A 1_555 1_555
C6A C7A 1_555 1_555
C7A H5A 1_555 1_555
H6A C7A 1_555 1_555
C8A C7A 1_555 1_555
H7A C8A 1_555 1_555
H8A C8A 1_555 1_555
C9A C8A 1_555 1_555
H9A C9A 1_555 1_555
H10A C9A 1_555 1_555
C10A C9A 1_555 1_555
H11A C10A 1_555 1_555
H12A C10A 1_555 1_555
C11A C10A 1_555 1_555
C12A H13A 1_555 1_555
C13A C12A 1_555 1_555
H14A C13A 1_555 1_555
C14A C13A 1_555 1_555
H15A C14A 1_555 1_555
C15A C14A 1_555 1_555
C16A C15A 1_555 1_555
H16A C16A 1_555 1_555
N1A Cu1 1_555 1_555
N2A C4A 1_555 1_555
H17A N2A 1_555 1_555
N3A C12A 1_555 1_555
N4A C11A 1_555 1_555
H18A N4A 1_555 1_555
O1A C6A 1_555 1_555
O2A C11A 1_555 1_555
O3A Cu1 1_555 1_555
H19A O3A 1_555 1_555
H20A O3A 1_555 1_555
Cu1_2 N3 1_555 1_555
Cu1_3 N3A 1_555 1_555
N3_2 Cu1 1_555 1_555
N3A_2 Cu1 1_555 1_555
C5 N1 1_555 1_555
C6 N2 1_555 1_555
C15 N4 1_555 1_555
C16 N3 1_555 1_555
C1A N1A 1_555 1_555
C5A N1A 1_555 1_555
C6A N2A 1_555 1_555
C15A N4A 1_555 1_555
C16A N3A 1_555 1_555

#END
