
#######################################################################
#
#                 Cambridge Crystallographic Data Centre
#                                CCDC 
#
#######################################################################
#
# If this CIF has been generated from an entry in the Cambridge 
# Structural Database, then it will include bibliographic, chemical, 
# crystal, experimental, refinement or atomic coordinate data resulting 
# from the CCDC's data processing and validation procedures.
#
#######################################################################

data_VOGQAJ01
_symmetry_cell_setting           triclinic
_symmetry_space_group_name_H-M   'P -1'
_symmetry_Int_Tables_number      2
_space_group_name_Hall           '-P 1'
loop_
_symmetry_equiv_pos_site_id
_symmetry_equiv_pos_as_xyz
1 x,y,z
2 -x,-y,-z
_cell_length_a                   11.3132(6)
_cell_length_b                   12.8735(7)
_cell_length_c                   18.2974(10)
_cell_angle_alpha                71.6900(10)
_cell_angle_beta                 82.9100(10)
_cell_angle_gamma                65.5800(10)
_cell_volume                     2303.53
loop_
_atom_site_label
_atom_site_type_symbol
_atom_site_fract_x
_atom_site_fract_y
_atom_site_fract_z
O23 O 0.8714(9) 0.7808(8) 0.0550(5)
Mo1 Mo 0.12237(7) 0.81541(7) 0.34571(4)
Mo2 Mo 0.35251(8) 0.92698(7) 0.28429(4)
Mo3 Mo 0.14364(8) 0.63228(7) 0.23950(5)
Mo4 Mo 0.40177(8) 0.60329(7) 0.12196(5)
Mo5 Mo 0.57159(8) 0.74099(7) 0.16460(5)
Cu1 Cu -0.23206(11) 0.91604(10) 0.37526(6)
Cu2 Cu 0.22152(11) 1.14022(10) 0.12325(6)
P1 P 0.4228(2) 0.6210(2) 0.30772(13)
P2 P 0.2136(2) 0.8789(2) 0.14673(13)
O1 O -0.0427(6) 0.9027(5) 0.3314(3)
O2 O 0.1402(6) 0.7736(6) 0.4433(3)
O3 O 0.1351(6) 0.6682(5) 0.3366(3)
O4 O 0.1347(6) 0.8261(5) 0.2109(3)
O5 O 0.1793(5) 0.9436(5) 0.3180(3)
O6 O 0.3314(5) 0.7457(5) 0.3181(3)
O7 O -0.0149(6) 0.6945(6) 0.2138(4)
O8 O 0.1743(6) 0.4842(5) 0.2760(4)
O9 O 0.2184(6) 0.6437(5) 0.1402(3)
O10 O 0.3606(5) 0.5865(5) 0.2539(3)
O11 O 0.4598(6) 0.4520(5) 0.1452(4)
O12 O 0.3962(7) 0.6491(6) 0.0243(4)
O13 O 0.3485(6) 0.7844(5) 0.1364(3)
O14 O 0.5645(6) 0.6160(5) 0.1361(3)
O15 O 0.5583(7) 0.8462(5) 0.0743(4)
O16 O 0.7329(6) 0.6883(6) 0.1841(4)
O17 O 0.4880(5) 0.8545(5) 0.2215(3)
O18 O 0.5519(6) 0.6240(5) 0.2779(3)
O19 O 0.2315(6) 0.9784(5) 0.1673(3)
O20 O 0.3246(6) 1.0751(5) 0.2437(3)
O21 O 0.4319(6) 0.8900(5) 0.3676(3)
O22 O 0.3822(7) 1.0775(6) 0.0673(4)
N1 N -0.2974(7) 0.9831(6) 0.2700(4)
N2 N -0.3806(7) 1.0670(6) 0.3869(4)
N3 N -0.1572(7) 0.8595(7) 0.4794(4)
N4 N -0.2094(7) 0.7413(6) 0.4040(4)
N5 N 0.2034(8) 1.3094(7) 0.0822(4)
N6 N 0.0447(7) 1.2168(7) 0.1641(4)
C1 C -0.2452(10) 0.9352(9) 0.2122(6)
H1 H -0.1806 0.8585 0.2232
C2 C -0.2856(10) 0.9976(9) 0.1360(6)
H2 H -0.2502 0.9613 0.0972
C3 C -0.3782(10) 1.1138(9) 0.1180(6)
H3 H -0.4033 1.1579 0.0672
C4 C -0.4324(9) 1.1619(8) 0.1787(6)
H4 H -0.4953 1.2394 0.1686
C5 C -0.3944(8) 1.0967(8) 0.2527(5)
C6 C -0.4453(9) 1.1387(8) 0.3211(5)
C7 C -0.5531(9) 1.2425(8) 0.3170(5)
H5 H -0.5960 1.2897 0.2704
C8 C -0.5968(9) 1.2754(8) 0.3847(5)
H6 H -0.6698 1.3448 0.3839
C9 C -0.5314(8) 1.2048(8) 0.4511(6)
H7 H -0.5577 1.2264 0.4963
C10 C -0.4246(8) 1.0996(8) 0.4519(6)
H8 H -0.3823 1.0503 0.4983
C11 C -0.1247(9) 0.9224(8) 0.5119(5)
H9 H -0.1366 1.0001 0.4838
C12 C -0.0742(9) 0.8788(9) 0.5851(6)
H10 H -0.0536 0.9262 0.6063
C13 C -0.0548(9) 0.7639(9) 0.6263(6)
H11 H -0.0232 0.7331 0.6765
C14 C -0.0822(9) 0.6942(8) 0.5932(5)
H12 H -0.0661 0.6151 0.6200
C15 C -0.1348(9) 0.7439(8) 0.5187(5)
C16 C -0.1647(8) 0.6773(8) 0.4768(5)
C17 C -0.1518(8) 0.5602(8) 0.5071(5)
H13 H -0.1246 0.5185 0.5579
C18 C -0.1795(9) 0.5061(8) 0.4617(5)
H14 H -0.1712 0.4274 0.4813
C19 C -0.2194(9) 0.5688(8) 0.3874(6)
H15 H -0.2352 0.5326 0.3552
C20 C -0.2359(9) 0.6863(9) 0.3611(6)
H16 H -0.2668 0.7295 0.3112
C21 C 0.2869(10) 1.3496(9) 0.0392(5)
H17 H 0.3627 1.2942 0.0252
C22 C 0.2697(10) 1.4670(8) 0.0137(5)
H18 H 0.3327 1.4909 -0.0149
C23 C 0.1525(10) 1.5494(8) 0.0330(5)
H19 H 0.1338 1.6307 0.0154
C24 C 0.0657(9) 1.5082(9) 0.0784(5)
H20 H -0.0103 1.5616 0.0938
C25 C 0.0000(9) 1.3380(8) 0.1470(5)
C26 C -0.1224(9) 1.4041(9) 0.1711(6)
H21 H -0.1517 1.4865 0.1591
C27 C -0.2002(10) 1.3470(9) 0.2128(6)
H22 H -0.2823 1.3903 0.2286
C28 C -0.1538(9) 1.2258(9) 0.2303(6)
H23 H -0.2043 1.1856 0.2587
C29 C -0.0317(10) 1.1626(9) 0.2057(6)
H24 H -0.0014 1.0800 0.2184
C30 C 0.4460(9) 0.5146(8) 0.3994(5)
H25 H 0.3684 0.4983 0.4126
H26 H 0.5171 0.4409 0.3964
C31 C 0.4756(8) 0.5527(7) 0.4638(4)
H27 H 0.5409 0.5856 0.4465
H28 H 0.3976 0.6146 0.4757
C32 C 0.1239(11) 0.9455(10) 0.0572(7)
C33 C -0.003(2) 1.033(2) 0.0543(13)
C34 C 0.085(3) 0.880(3) 0.0243(17)
C35 C 0.0896(9) 1.3898(8) 0.1011(5)
C31A C 0.5244(8) 0.4473(7) 0.5362(4)
C34A C -0.085(3) 1.120(3) -0.0243(17)
C33A C 0.003(2) 0.967(2) -0.0543(13)
loop_
_geom_bond_atom_site_label_1
_geom_bond_atom_site_label_2
_geom_bond_site_symmetry_1
_geom_bond_site_symmetry_2
Mo1 O1 1_555 1_555
Mo2 O5 1_555 1_555
Mo3 O3 1_555 1_555
Mo4 O9 1_555 1_555
Mo5 O13 1_555 1_555
Cu1 O1 1_555 1_555
Cu2 O19 1_555 1_555
P1 O6 1_555 1_555
P2 O4 1_555 1_555
O2 Mo1 1_555 1_555
O3 Mo1 1_555 1_555
O4 Mo1 1_555 1_555
O5 Mo1 1_555 1_555
O6 Mo1 1_555 1_555
O7 Mo3 1_555 1_555
O8 Mo3 1_555 1_555
O9 Mo3 1_555 1_555
O10 Mo3 1_555 1_555
O11 Mo4 1_555 1_555
O12 Mo4 1_555 1_555
O13 Mo4 1_555 1_555
O14 Mo4 1_555 1_555
O15 Mo5 1_555 1_555
O16 Mo5 1_555 1_555
O17 Mo2 1_555 1_555
O18 Mo5 1_555 1_555
O19 Mo2 1_555 1_555
O20 Mo2 1_555 1_555
O21 Mo2 1_555 1_555
O22 Cu2 1_555 1_555
N1 Cu1 1_555 1_555
N2 Cu1 1_555 1_555
N3 Cu1 1_555 1_555
N4 Cu1 1_555 1_555
N5 Cu2 1_555 1_555
N6 Cu2 1_555 1_555
C1 N1 1_555 1_555
H1 C1 1_555 1_555
C2 C1 1_555 1_555
H2 C2 1_555 1_555
C3 C2 1_555 1_555
H3 C3 1_555 1_555
C4 C3 1_555 1_555
H4 C4 1_555 1_555
C5 N1 1_555 1_555
C6 N2 1_555 1_555
C7 C6 1_555 1_555
H5 C7 1_555 1_555
C8 C7 1_555 1_555
H6 C8 1_555 1_555
C9 C8 1_555 1_555
H7 C9 1_555 1_555
C10 N2 1_555 1_555
H8 C10 1_555 1_555
C11 N3 1_555 1_555
H9 C11 1_555 1_555
C12 C11 1_555 1_555
H10 C12 1_555 1_555
C13 C12 1_555 1_555
H11 C13 1_555 1_555
C14 C13 1_555 1_555
H12 C14 1_555 1_555
C15 N3 1_555 1_555
C16 N4 1_555 1_555
C17 C16 1_555 1_555
H13 C17 1_555 1_555
C18 C17 1_555 1_555
H14 C18 1_555 1_555
C19 C18 1_555 1_555
H15 C19 1_555 1_555
C20 N4 1_555 1_555
H16 C20 1_555 1_555
C21 N5 1_555 1_555
H17 C21 1_555 1_555
C22 C21 1_555 1_555
H18 C22 1_555 1_555
C23 C22 1_555 1_555
H19 C23 1_555 1_555
C24 C23 1_555 1_555
H20 C24 1_555 1_555
C25 N6 1_555 1_555
C26 C25 1_555 1_555
H21 C26 1_555 1_555
C27 C26 1_555 1_555
H22 C27 1_555 1_555
C28 C27 1_555 1_555
H23 C28 1_555 1_555
C29 N6 1_555 1_555
H24 C29 1_555 1_555
C30 P1 1_555 1_555
H25 C30 1_555 1_555
H26 C30 1_555 1_555
C31 C30 1_555 1_555
H27 C31 1_555 1_555
H28 C31 1_555 1_555
C32 P2 1_555 1_555
C33 C32 1_555 1_555
C34 C32 1_555 1_555
C35 N5 1_555 1_555
C31A C31 1_555 1_555
C34A C33 1_555 1_555
C33A C34 1_555 1_555
Mo2 O6 1_555 1_555
Mo3 O4 1_555 1_555
Mo4 O10 1_555 1_555
Mo5 O14 1_555 1_555
Mo5 O17 1_555 1_555
Cu2 O20 1_555 1_555
P1 O10 1_555 1_555
P1 O18 1_555 1_555
P2 O13 1_555 1_555
P2 O19 1_555 1_555
C4 C5 1_555 1_555
C5 C6 1_555 1_555
C9 C10 1_555 1_555
C14 C15 1_555 1_555
C15 C16 1_555 1_555
C19 C20 1_555 1_555
C24 C35 1_555 1_555
C25 C35 1_555 1_555
C28 C29 1_555 1_555

#END
