
#######################################################################
#
#                 Cambridge Crystallographic Data Centre
#                                CCDC 
#
#######################################################################
#
# If this CIF has been generated from an entry in the Cambridge 
# Structural Database, then it will include bibliographic, chemical, 
# crystal, experimental, refinement or atomic coordinate data resulting 
# from the CCDC's data processing and validation procedures.
#
#######################################################################

data_VOGTER
_symmetry_cell_setting           monoclinic
_symmetry_space_group_name_H-M   'C 2/c'
_symmetry_Int_Tables_number      15
_space_group_name_Hall           '-C 2yn'
loop_
_symmetry_equiv_pos_site_id
_symmetry_equiv_pos_as_xyz
1 x,y,z
2 1/2+x,1/2+y,z
3 -x,y,1/2-z
4 1/2-x,1/2+y,1/2-z
5 -x,-y,-z
6 1/2-x,1/2-y,-z
7 x,-y,1/2+z
8 1/2+x,1/2-y,1/2+z
_cell_length_a                   8.349(3)
_cell_length_b                   16.645(6)
_cell_length_c                   6.997(2)
_cell_angle_alpha                90
_cell_angle_beta                 108.236(3)
_cell_angle_gamma                90
_cell_volume                     923.53
loop_
_atom_site_label
_atom_site_type_symbol
_atom_site_fract_x
_atom_site_fract_y
_atom_site_fract_z
Mg1 Mg 1.0000 0.30909(5) 0.2500
C1 C 0.8989(2) 0.16761(11) -0.0515(3)
C2 C 0.9520(2) 0.08100(10) -0.0279(3)
C3 C 0.8363(2) 0.02054(11) -0.1077(3)
H1 H 0.728(3) 0.0332(12) -0.184(3)
C4 C 1.1179(2) 0.05909(11) 0.0810(3)
O1 O 1.00681(16) 0.21832(8) 0.0482(2)
O2 O 0.75509(15) 0.18574(8) -0.1625(2)
O3 O 1.24034(15) 0.11619(8) 0.1614(2)
H2 H 1.186(3) 0.1643(17) 0.135(4)
O4 O 1.0012(2) 0.39429(9) 0.0312(2)
H3 H 0.919(3) 0.3915(15) -0.066(4)
H4 H 1.088(3) 0.3925(15) -0.012(4)
Mg1G Mg 0.5000 0.19091(5) -0.2500
Mg1F Mg 1.0000 -0.30909(5) -0.2500
Mg1A Mg 1.5000 -0.19091(5) 0.2500
C1D C 1.1011(2) -0.16761(11) 0.0515(3)
C2D C 1.0480(2) -0.08100(10) 0.0279(3)
C3D C 1.1637(2) -0.02054(11) 0.1077(3)
H1D H 1.272(3) -0.0332(12) 0.184(3)
C4D C 0.8821(2) -0.05909(11) -0.0810(3)
O1D O 0.99319(16) -0.21832(8) -0.0482(2)
O1B O 0.99319(16) 0.21832(8) 0.4518(2)
O2D O 1.24491(15) -0.18574(8) 0.1625(2)
O2G O 1.25509(15) 0.31426(8) 0.3375(2)
O2E O 0.74491(15) 0.31426(8) 0.1625(2)
O3D O 0.75966(15) -0.11619(8) -0.1614(2)
H2D H 0.814(3) -0.1643(17) -0.135(4)
O4B O 0.9988(2) 0.39429(9) 0.4688(2)
H3B H 1.081(3) 0.3915(15) 0.566(4)
H4B H 0.912(3) 0.3925(15) 0.512(4)
loop_
_geom_bond_atom_site_label_1
_geom_bond_atom_site_label_2
_geom_bond_site_symmetry_1
_geom_bond_site_symmetry_2
Mg1 O1 1_555 1_555
C1 C2 1_555 1_555
C2 C3 1_555 1_555
C3 H1 1_555 1_555
C4 C2 1_555 1_555
O1 C1 1_555 1_555
O2 C1 1_555 1_555
O3 C4 1_555 1_555
H2 O3 1_555 1_555
O4 Mg1 1_555 1_555
H3 O4 1_555 1_555
H4 O4 1_555 1_555
Mg1G O2 1_555 1_555
Mg1F O1D 1_555 1_555
Mg1A O2D 1_555 1_555
C1D C2D 1_555 1_555
C2D C3D 1_555 1_555
C3D C4 1_555 1_555
H1D C3D 1_555 1_555
C4D C3 1_555 1_555
O1D C1D 1_555 1_555
O1B Mg1 1_555 1_555
O2D C1D 1_555 1_555
O2G Mg1 1_555 1_555
O2E Mg1 1_555 1_555
O3D C4D 1_555 1_555
H2D O3D 1_555 1_555
O4B Mg1 1_555 1_555
H3B O4B 1_555 1_555
H4B O4B 1_555 1_555
C2D C4D 1_555 1_555

#END
