
#######################################################################
#
#                 Cambridge Crystallographic Data Centre
#                                CCDC 
#
#######################################################################
#
# If this CIF has been generated from an entry in the Cambridge 
# Structural Database, then it will include bibliographic, chemical, 
# crystal, experimental, refinement or atomic coordinate data resulting 
# from the CCDC's data processing and validation procedures.
#
#######################################################################

data_VOGVET
_symmetry_cell_setting           orthorhombic
_symmetry_space_group_name_H-M   'P b c a'
_symmetry_Int_Tables_number      61
_space_group_name_Hall           '-P 2ac 2ab'
loop_
_symmetry_equiv_pos_site_id
_symmetry_equiv_pos_as_xyz
1 x,y,z
2 1/2-x,-y,1/2+z
3 -x,1/2+y,1/2-z
4 1/2+x,1/2-y,-z
5 -x,-y,-z
6 1/2+x,y,1/2-z
7 x,1/2-y,1/2+z
8 1/2-x,1/2+y,z
_cell_length_a                   21.515(4)
_cell_length_b                   9.808(2)
_cell_length_c                   25.504(5)
_cell_angle_alpha                90
_cell_angle_beta                 90
_cell_angle_gamma                90
_cell_volume                     5381.83
loop_
_atom_site_label
_atom_site_type_symbol
_atom_site_fract_x
_atom_site_fract_y
_atom_site_fract_z
Cu1 Cu 0.119503(16) 0.39091(4) 0.337981(14)
Cu2 Cu 0.030735(17) 0.15659(4) 0.335985(14)
Cl1 Cl 0.09614(4) 0.66991(8) 0.25338(3)
O1 O 0.09969(10) 0.2352(2) 0.29479(8)
O2 O 0.03928(9) 0.3354(2) 0.36645(8)
O3 O 0.21443(16) 0.0521(6) 0.11495(15)
O4 O -0.12325(14) 0.5848(3) 0.50326(11)
N1 N 0.14968(13) 0.5231(3) 0.39104(11)
H1 H 0.1364 0.6077 0.3831
H2 H 0.1352 0.5008 0.4230
N2 N 0.20115(12) 0.4096(3) 0.30767(10)
N3 N 0.02807(16) -0.0368(3) 0.31509(13)
H3 H 0.0230 -0.0427 0.2801
H4 H 0.0644 -0.0770 0.3234
N4 N -0.03243(13) 0.1042(3) 0.38550(11)
C1 C 0.21823(17) 0.5178(5) 0.39043(16)
H5 H 0.2327 0.4374 0.4089
H6 H 0.2353 0.5977 0.4076
C2 C 0.23898(17) 0.5132(5) 0.33392(14)
H7 H 0.2330 0.6014 0.3175
H8 H 0.2827 0.4895 0.3318
C3 C 0.22107(15) 0.3486(4) 0.26689(13)
H9 H 0.2608 0.3710 0.2554
C4 C 0.18762(14) 0.2488(4) 0.23719(12)
C5 C 0.21725(17) 0.2013(6) 0.19112(15)
H10 H 0.2560 0.2359 0.1819
C6 C 0.1898(2) 0.1054(6) 0.15996(15)
C7 C 0.13195(18) 0.0549(5) 0.17348(14)
H11 H 0.1132 -0.0111 0.1526
C8 C 0.10193(17) 0.1016(4) 0.21745(12)
H12 H 0.0623 0.0692 0.2251
C9 C 0.12946(13) 0.1964(3) 0.25082(11)
C10 C 0.2719(3) 0.1072(12) 0.0988(3)
H13 H 0.2858 0.0613 0.0677
H14 H 0.3021 0.0951 0.1262
H15 H 0.2671 0.2026 0.0916
C11 C -0.0213(3) -0.1057(4) 0.34063(19)
H16 H -0.0539 -0.1219 0.3150
H17 H -0.0061 -0.1941 0.3519
C12 C -0.0482(2) -0.0406(4) 0.3843(2)
H18 H -0.0336 -0.0838 0.4162
H19 H -0.0930 -0.0507 0.3828
C13 C -0.05950(15) 0.1813(3) 0.41837(12)
H20 H -0.0894 0.1418 0.4399
C14 C -0.04787(14) 0.3242(3) 0.42518(11)
C15 C -0.08751(16) 0.3926(3) 0.45918(12)
H21 H -0.1184 0.3439 0.4765
C16 C -0.08236(16) 0.5301(4) 0.46780(12)
C17 C -0.03687(16) 0.6020(3) 0.44245(12)
H22 H -0.0326 0.6951 0.4484
C18 C 0.00298(15) 0.5362(3) 0.40779(12)
H23 H 0.0329 0.5868 0.3901
C19 C -0.00084(13) 0.3976(3) 0.39908(10)
C20 C -0.1291(3) 0.7281(5) 0.5046(2)
H24 H -0.1592 0.7533 0.5307
H25 H -0.1425 0.7604 0.4709
H26 H -0.0896 0.7681 0.5131
O5 O 0.06860(13) 0.5548(3) 0.27896(12)
O6 O 0.04717(12) 0.7476(3) 0.22947(10)
O7 O 0.12787(14) 0.7506(3) 0.29128(13)
O8 O 0.13771(16) 0.6221(4) 0.21559(13)
Cu2B Cu -0.030735(17) 0.65659(4) 0.164015(14)
O6B O -0.04717(12) 0.2476(3) 0.27053(10)
Cl2 Cl 0.12381(5) -0.07821(14) 0.43982(4)
O9 O 0.0680(3) -0.0529(9) 0.4697(2)
O10 O 0.12808(17) 0.0279(4) 0.40243(12)
O11 O 0.1585(5) -0.0350(9) 0.4821(3)
O14 O 0.1458(12) -0.1808(10) 0.4147(5)
O12? O 0.0909(4) -0.1947(8) 0.4206(5)
O13? O 0.1748(6) -0.1256(19) 0.4649(7)
loop_
_geom_bond_atom_site_label_1
_geom_bond_atom_site_label_2
_geom_bond_site_symmetry_1
_geom_bond_site_symmetry_2
Cu1 O1 1_555 1_555
Cu2 O1 1_555 1_555
Cl1 O5 1_555 1_555
Cl2 O9 1_555 1_555
O1 C9 1_555 1_555
O2 Cu1 1_555 1_555
O3 C6 1_555 1_555
O4 C16 1_555 1_555
N1 Cu1 1_555 1_555
H1 N1 1_555 1_555
H2 N1 1_555 1_555
N2 Cu1 1_555 1_555
N3 Cu2 1_555 1_555
H3 N3 1_555 1_555
H4 N3 1_555 1_555
N4 Cu2 1_555 1_555
C1 N1 1_555 1_555
H5 C1 1_555 1_555
H6 C1 1_555 1_555
C2 N2 1_555 1_555
H7 C2 1_555 1_555
H8 C2 1_555 1_555
C3 N2 1_555 1_555
H9 C3 1_555 1_555
C4 C3 1_555 1_555
C5 C4 1_555 1_555
H10 C5 1_555 1_555
C6 C5 1_555 1_555
C7 C6 1_555 1_555
H11 C7 1_555 1_555
C8 C7 1_555 1_555
H12 C8 1_555 1_555
C9 C4 1_555 1_555
C10 O3 1_555 1_555
H13 C10 1_555 1_555
H14 C10 1_555 1_555
H15 C10 1_555 1_555
C11 N3 1_555 1_555
H16 C11 1_555 1_555
H17 C11 1_555 1_555
C12 N4 1_555 1_555
H18 C12 1_555 1_555
H19 C12 1_555 1_555
C13 N4 1_555 1_555
H20 C13 1_555 1_555
C14 C13 1_555 1_555
C15 C14 1_555 1_555
H21 C15 1_555 1_555
C16 C15 1_555 1_555
C17 C16 1_555 1_555
H22 C17 1_555 1_555
C18 C17 1_555 1_555
H23 C18 1_555 1_555
C19 O2 1_555 1_555
C20 O4 1_555 1_555
H24 C20 1_555 1_555
H25 C20 1_555 1_555
H26 C20 1_555 1_555
O5 Cu1 1_555 1_555
O6 Cl1 1_555 1_555
O7 Cl1 1_555 1_555
O8 Cl1 1_555 1_555
O10 Cl2 1_555 1_555
O11 Cl2 1_555 1_555
O14 Cl2 1_555 1_555
Cu2B O6 1_555 1_555
O6B Cu2 1_555 1_555
Cu2 O2 1_555 1_555
C1 C2 1_555 1_555
C8 C9 1_555 1_555
C11 C12 1_555 1_555
C14 C19 1_555 1_555
C18 C19 1_555 1_555

#END
