
#######################################################################
#
#                 Cambridge Crystallographic Data Centre
#                                CCDC 
#
#######################################################################
#
# If this CIF has been generated from an entry in the Cambridge 
# Structural Database, then it will include bibliographic, chemical, 
# crystal, experimental, refinement or atomic coordinate data resulting 
# from the CCDC's data processing and validation procedures.
#
#######################################################################

data_VOHHUX
_symmetry_cell_setting           rhombohedral
_symmetry_space_group_name_H-M   'R -3'
_symmetry_Int_Tables_number      148
_space_group_name_Hall           '-R 3'
loop_
_symmetry_equiv_pos_site_id
_symmetry_equiv_pos_as_xyz
1 x,y,z
2 -y,x-y,z
3 -x+y,-x,z
4 2/3+x,1/3+y,1/3+z
5 2/3-y,1/3+x-y,1/3+z
6 2/3-x+y,1/3-x,1/3+z
7 1/3+x,2/3+y,2/3+z
8 1/3-y,2/3+x-y,2/3+z
9 1/3-x+y,2/3-x,2/3+z
10 -x,-y,-z
11 y,-x+y,-z
12 x-y,x,-z
13 1/3-x,2/3-y,2/3-z
14 1/3+y,2/3-x+y,2/3-z
15 1/3+x-y,2/3+x,2/3-z
16 2/3-x,1/3-y,1/3-z
17 2/3+y,1/3-x+y,1/3-z
18 2/3+x-y,1/3+x,1/3-z
_cell_length_a                   17.068(2)
_cell_length_b                   17.068(2)
_cell_length_c                   20.364(4)
_cell_angle_alpha                90
_cell_angle_beta                 90
_cell_angle_gamma                120
_cell_volume                     5137.58
loop_
_atom_site_label
_atom_site_type_symbol
_atom_site_fract_x
_atom_site_fract_y
_atom_site_fract_z
In1 In -0.428688(16) -0.261416(17) -0.220295(11)
In2 In -0.6667 -0.3333 -0.156178(19)
O1 O -0.29008(17) -0.20763(18) -0.16713(13)
O2 O -0.2117(3) -0.2594(2) -0.1119(2)
O3 O -0.51639(19) -0.49130(27) -0.36342(13)
O4 O -0.51292(19) -0.37516(28) -0.30700(14)
O5 O -0.4678(2) -0.3380(2) -0.12793(14)
O6 O -0.60911(19) -0.3928(2) -0.08881(13)
O7 O -0.55185(17) -0.26825(18) -0.21775(12)
H1 H -0.5363 -0.2053 -0.2164
N1 N -0.3794(2) -0.3617(2) -0.23376(14)
C1 C -0.3117(2) -0.3518(3) -0.19438(17)
C2 C -0.2845(3) -0.4164(3) -0.1935(2)
H2 H -0.2381 -0.4094 -0.1658
C3 C -0.3267(3) -0.4903(3) -0.2340(2)
H3 H -0.3099 -0.5344 -0.2333
C4 C -0.3950(3) -0.4988(3) -0.2760(2)
H4 H -0.4235 -0.5475 -0.3047
C5 C -0.4195(2) -0.4322(3) -0.27375(17)
C6 C -0.2661(3) -0.2667(3) -0.15381(18)
C7 C -0.4903(2) -0.4323(4) -0.31819(17)
C8 C -0.5163(3) -0.4465(2) -0.04382(17)
C9 C -0.4284(2) -0.4297(2) -0.03296(17)
H5 H -0.3804 -0.3826 -0.0552
C10 C -0.5883(2) -0.5174(3) -0.01060(18)
H6 H -0.6471 -0.5294 -0.0175
C11 C -0.5330(2) -0.3884(2) -0.09092(16)
O5I O -0.5322(2) -0.6620(2) 0.12793(14)
O6I O -0.39089(19) -0.6072(2) 0.08881(13)
C8I C -0.4837(3) -0.5535(2) 0.04382(17)
C9I C -0.5716(2) -0.5703(2) 0.03296(17)
H5I H -0.6196 -0.6174 0.0552
C10I C -0.4117(2) -0.4826(3) 0.01060(18)
H6I H -0.3529 -0.4706 0.0175
C11I C -0.4670(2) -0.6116(2) 0.09092(16)
In1A In -0.738584(17) -0.167272(23) -0.220295(11)
O1A O -0.79237(18) -0.08245(25) -0.16713(13)
O2A O -0.7406(2) 0.0477(4) -0.1119(2)
O3A O -0.50870(27) -0.02509(33) -0.36342(13)
O4A O -0.62484(28) -0.13776(34) -0.30700(14)
O5A O -0.6620(2) -0.1298(3) -0.12793(14)
O6A O -0.6072(2) -0.21631(28) -0.08881(13)
O7A O -0.73175(18) -0.28360(25) -0.21775(12)
H1A H -0.7947 -0.3310 -0.2164
N1A N -0.6383(2) -0.0177(3) -0.23376(14)
C1A C -0.6482(3) 0.0401(4) -0.19438(17)
C2A C -0.5836(3) 0.1319(4) -0.1935(2)
H2A H -0.5906 0.1713 -0.1658
C3A C -0.5097(3) 0.1636(4) -0.2340(2)
H3A H -0.4656 0.2245 -0.2333
C4A C -0.5012(3) 0.1038(4) -0.2760(2)
H4A H -0.4525 0.1240 -0.3047
C5A C -0.5678(3) 0.0127(4) -0.27375(17)
C6A C -0.7333(3) 0.0006(4) -0.15381(18)
C7A C -0.5677(4) -0.0580(4) -0.31819(17)
C8A C -0.5535(2) -0.0698(4) -0.04382(17)
C9A C -0.5703(2) 0.0013(3) -0.03296(17)
H5A H -0.6174 0.0022 -0.0552
C10A C -0.4826(3) -0.0709(4) -0.01060(18)
H6A H -0.4706 -0.1177 -0.0175
C11A C -0.6116(2) -0.1446(3) -0.09092(16)
O5J O -0.3380(2) 0.1298(3) 0.12793(14)
O6J O -0.3928(2) 0.21631(28) 0.08881(13)
C8J C -0.4465(2) 0.0698(4) 0.04382(17)
C9J C -0.4297(2) -0.0013(3) 0.03296(17)
H5J H -0.3826 -0.0022 0.0552
C10J C -0.5174(3) 0.0709(4) 0.01060(18)
H6J H -0.5294 0.1177 0.0175
C11J C -0.3884(2) 0.1446(3) 0.09092(16)
In1B In -0.832728(23) -0.571312(16) -0.220295(11)
O1B O -0.91755(25) -0.70992(17) -0.16713(13)
O2B O -1.0477(4) -0.7883(3) -0.1119(2)
O3B O -0.97491(33) -0.48361(19) -0.36342(13)
O4B O -0.86224(34) -0.48708(19) -0.30700(14)
O5B O -0.8702(3) -0.5322(2) -0.12793(14)
O6B O -0.78369(28) -0.39089(19) -0.08881(13)
O7B O -0.71640(25) -0.44815(17) -0.21775(12)
H1B H -0.6690 -0.4637 -0.2164
N1B N -0.9823(3) -0.6206(2) -0.23376(14)
C1B C -1.0401(4) -0.6883(2) -0.19438(17)
C2B C -1.1319(4) -0.7155(3) -0.1935(2)
H2B H -1.1713 -0.7619 -0.1658
C3B C -1.1636(4) -0.6733(3) -0.2340(2)
H3B H -1.2245 -0.6901 -0.2333
C4B C -1.1038(4) -0.6050(3) -0.2760(2)
H4B H -1.1240 -0.5765 -0.3047
C5B C -1.0127(4) -0.5805(2) -0.27375(17)
C6B C -1.0006(4) -0.7339(3) -0.15381(18)
C7B C -0.9420(4) -0.5097(2) -0.31819(17)
C8B C -0.9302(4) -0.4837(3) -0.04382(17)
C9B C -1.0013(3) -0.5716(2) -0.03296(17)
H5B H -1.0022 -0.6196 -0.0552
C10B C -0.9291(4) -0.4117(2) -0.01060(18)
H6B H -0.8823 -0.3529 -0.0175
C11B C -0.8554(3) -0.4670(2) -0.09092(16)
O5K O -1.1298(3) -0.4678(2) 0.12793(14)
O6K O -1.21631(28) -0.60911(19) 0.08881(13)
C8K C -1.0698(4) -0.5163(3) 0.04382(17)
C9K C -0.9987(3) -0.4284(2) 0.03296(17)
H5K H -0.9978 -0.3804 0.0552
C10K C -1.0709(4) -0.5883(2) 0.01060(18)
H6K H -1.1177 -0.6471 0.0175
C11K C -1.1446(3) -0.5330(2) 0.09092(16)
In1I In -0.571312(16) -0.738584(17) 0.220295(11)
In2I In -0.3333 -0.6667 0.156178(19)
O1I O -0.70992(17) -0.79237(18) 0.16713(13)
O2I O -0.7883(3) -0.7406(2) 0.1119(2)
O3I O -0.48361(19) -0.50870(27) 0.36342(13)
O4I O -0.48708(19) -0.62484(28) 0.30700(14)
O7I O -0.44815(17) -0.73175(18) 0.21775(12)
H1I H -0.4637 -0.7947 0.2164
N1I N -0.6206(2) -0.6383(2) 0.23376(14)
C1I C -0.6883(2) -0.6482(3) 0.19438(17)
C2I C -0.7155(3) -0.5836(3) 0.1935(2)
H2I H -0.7619 -0.5906 0.1658
C3I C -0.6733(3) -0.5097(3) 0.2340(2)
H3I H -0.6901 -0.4656 0.2333
C4I C -0.6050(3) -0.5012(3) 0.2760(2)
H4I H -0.5765 -0.4525 0.3047
C5I C -0.5805(2) -0.5678(3) 0.27375(17)
C6I C -0.7339(3) -0.7333(3) 0.15381(18)
C7I C -0.5097(2) -0.5677(4) 0.31819(17)
In1J In -0.261416(17) -0.832728(23) 0.220295(11)
O1J O -0.20763(18) -0.91755(25) 0.16713(13)
O2J O -0.2594(2) -1.0477(4) 0.1119(2)
O3J O -0.49130(27) -0.97491(33) 0.36342(13)
O4J O -0.37516(28) -0.86224(34) 0.30700(14)
O7J O -0.26825(18) -0.71640(25) 0.21775(12)
H1J H -0.2053 -0.6690 0.2164
N1J N -0.3617(2) -0.9823(3) 0.23376(14)
C1J C -0.3518(3) -1.0401(4) 0.19438(17)
C2J C -0.4164(3) -1.1319(4) 0.1935(2)
H2J H -0.4094 -1.1713 0.1658
C3J C -0.4903(3) -1.1636(4) 0.2340(2)
H3J H -0.5344 -1.2245 0.2333
C4J C -0.4988(3) -1.1038(4) 0.2760(2)
H4J H -0.5475 -1.1240 0.3047
C5J C -0.4322(3) -1.0127(4) 0.27375(17)
C6J C -0.2667(3) -1.0006(4) 0.15381(18)
C7J C -0.4323(4) -0.9420(4) 0.31819(17)
In1K In -1.167272(23) -0.428688(16) 0.220295(11)
O1K O -1.08245(25) -0.29008(17) 0.16713(13)
O2K O -0.9523(4) -0.2117(3) 0.1119(2)
O3K O -1.02509(33) -0.51639(19) 0.36342(13)
O4K O -1.13776(34) -0.51292(19) 0.30700(14)
O7K O -1.28360(25) -0.55185(17) 0.21775(12)
H1K H -1.3310 -0.5363 0.2164
N1K N -1.0177(3) -0.3794(2) 0.23376(14)
C1K C -0.9599(4) -0.3117(2) 0.19438(17)
C2K C -0.8681(4) -0.2845(3) 0.1935(2)
H2K H -0.8287 -0.2381 0.1658
C3K C -0.8364(4) -0.3267(3) 0.2340(2)
H3K H -0.7755 -0.3099 0.2333
C4K C -0.8962(4) -0.3950(3) 0.2760(2)
H4K H -0.8760 -0.4235 0.3047
C5K C -0.9873(4) -0.4195(2) 0.27375(17)
C6K C -0.9994(4) -0.2661(3) 0.15381(18)
C7K C -1.0580(4) -0.4903(2) 0.31819(17)
In1C In -0.762021(16) -0.928083(17) 0.113038(11)
In1D In -0.071917(17) -0.833939(23) 0.113038(11)
In1E In -1.166061(23) -0.237979(16) 0.113038(11)
In1F In -1.095355(16) -0.594749(17) 0.446372(11)
In1G In -0.405251(17) -0.500605(23) 0.446372(11)
In1H In -0.499395(23) -0.904645(16) 0.446372(11)
In1J_2 In -0.261416(17) 0.167272(23) 0.220295(11)
In1O In -0.904645(16) -0.405251(17) -0.446372(11)
In1P In -0.594749(17) -0.499395(23) -0.446372(11)
In1Q In -0.500605(23) -0.095355(16) -0.446372(11)
In1L In -0.237979(16) -0.071917(17) -0.113038(11)
In1M In -0.928083(17) -0.166061(23) -0.113038(11)
In1N In -0.833939(23) -0.762021(16) -0.113038(11)
In2I_2 In -1.3333 -0.6667 0.156178(19)
In2I_3 In -0.3333 0.3333 0.156178(19)
O1C O -0.62341(17) -0.87430(18) 0.16620(13)
O1D O -0.12570(18) -0.74912(25) 0.16620(13)
O1E O -1.25088(25) -0.37659(17) 0.16620(13)
O1L O -0.37659(17) -0.12570(18) -0.16620(13)
O1M O -0.87430(18) -0.25088(25) -0.16620(13)
O1N O -0.74912(25) -0.62341(17) -0.16620(13)
O3F O -0.18306(19) -0.82463(27) 0.30325(13)
O3G O -1.17537(27) -0.35842(33) 0.30325(13)
O3H O -0.64158(33) -0.81694(19) 0.30325(13)
O3O O -0.81694(19) -0.17537(27) -0.30325(13)
O3P O -0.82463(27) -0.64158(33) -0.30325(13)
O3Q O -0.35842(33) -0.18306(19) -0.30325(13)
O5J_2 O -0.3380(2) -0.8702(3) 0.12793(14)
O6J_2 O -0.3928(2) -0.78369(28) 0.08881(13)
O6K_2 O -0.21631(28) -0.60911(19) 0.08881(13)
O7K_2 O -0.28360(25) -0.55185(17) 0.21775(12)
O8 O -0.6667 -0.3333 -0.3333
O9 O -0.6667 -0.3333 0.0303(5)
H7? H -0.7164 -0.3437 0.0157
H8? H -0.6535 -0.3219 0.0708
H9? H -0.7102 -0.3846 -0.3247
H10? H -0.6579 -0.3426 -0.3730
loop_
_geom_bond_atom_site_label_1
_geom_bond_atom_site_label_2
_geom_bond_site_symmetry_1
_geom_bond_site_symmetry_2
In1 O1 1_555 1_555
In2 O6 1_555 1_555
O1 C6 1_555 1_555
O2 C6 1_555 1_555
O3 C7 1_555 1_555
O4 In1 1_555 1_555
O5 In1 1_555 1_555
O6 C11 1_555 1_555
O7 In1 1_555 1_555
H1 O7 1_555 1_555
N1 In1 1_555 1_555
C1 N1 1_555 1_555
C2 C1 1_555 1_555
H2 C2 1_555 1_555
C3 C2 1_555 1_555
H3 C3 1_555 1_555
C4 C3 1_555 1_555
H4 C4 1_555 1_555
C5 N1 1_555 1_555
C6 C1 1_555 1_555
C7 O4 1_555 1_555
C8 C9 1_555 1_555
C9 H5 1_555 1_555
C10 C8 1_555 1_555
H6 C10 1_555 1_555
C11 O5 1_555 1_555
O5I C11I 1_555 1_555
O6I C11I 1_555 1_555
C8I C9I 1_555 1_555
C9I C10 1_555 1_555
H5I C9I 1_555 1_555
C10I C9 1_555 1_555
H6I C10I 1_555 1_555
C11I C8I 1_555 1_555
In1A O1A 1_555 1_555
O1A C6A 1_555 1_555
O2A C6A 1_555 1_555
O3A C7A 1_555 1_555
O4A In1A 1_555 1_555
O5A In1A 1_555 1_555
O6A In2 1_555 1_555
O7A In2 1_555 1_555
H1A O7A 1_555 1_555
N1A In1A 1_555 1_555
C1A N1A 1_555 1_555
C2A C1A 1_555 1_555
H2A C2A 1_555 1_555
C3A C2A 1_555 1_555
H3A C3A 1_555 1_555
C4A C3A 1_555 1_555
H4A C4A 1_555 1_555
C5A N1A 1_555 1_555
C6A C1A 1_555 1_555
C7A O4A 1_555 1_555
C8A C9A 1_555 1_555
C9A H5A 1_555 1_555
C10A C8A 1_555 1_555
H6A C10A 1_555 1_555
C11A O5A 1_555 1_555
O5J C11J 1_555 1_555
O6J C11J 1_555 1_555
C8J C9J 1_555 1_555
C9J C10A 1_555 1_555
H5J C9J 1_555 1_555
C10J C9A 1_555 1_555
H6J C10J 1_555 1_555
C11J C8J 1_555 1_555
In1B O1B 1_555 1_555
O1B C6B 1_555 1_555
O2B C6B 1_555 1_555
O3B C7B 1_555 1_555
O4B In1B 1_555 1_555
O5B In1B 1_555 1_555
O6B In2 1_555 1_555
O7B In2 1_555 1_555
H1B O7B 1_555 1_555
N1B In1B 1_555 1_555
C1B N1B 1_555 1_555
C2B C1B 1_555 1_555
H2B C2B 1_555 1_555
C3B C2B 1_555 1_555
H3B C3B 1_555 1_555
C4B C3B 1_555 1_555
H4B C4B 1_555 1_555
C5B N1B 1_555 1_555
C6B C1B 1_555 1_555
C7B O4B 1_555 1_555
C8B C9B 1_555 1_555
C9B H5B 1_555 1_555
C10B C8B 1_555 1_555
H6B C10B 1_555 1_555
C11B O5B 1_555 1_555
O5K C11K 1_555 1_555
O6K C11K 1_555 1_555
C8K C9K 1_555 1_555
C9K C10B 1_555 1_555
H5K C9K 1_555 1_555
C10K C9B 1_555 1_555
H6K C10K 1_555 1_555
C11K C8K 1_555 1_555
In1I O5I 1_555 1_555
In2I O6I 1_555 1_555
O1I In1I 1_555 1_555
O2I C6I 1_555 1_555
O3I C7I 1_555 1_555
O4I In1I 1_555 1_555
O7I In1I 1_555 1_555
H1I O7I 1_555 1_555
N1I In1I 1_555 1_555
C1I N1I 1_555 1_555
C2I C1I 1_555 1_555
H2I C2I 1_555 1_555
C3I C2I 1_555 1_555
H3I C3I 1_555 1_555
C4I C3I 1_555 1_555
H4I C4I 1_555 1_555
C5I N1I 1_555 1_555
C6I O1I 1_555 1_555
C7I O4I 1_555 1_555
In1J O1J 1_555 1_555
O1J C6J 1_555 1_555
O2J C6J 1_555 1_555
O3J C7J 1_555 1_555
O4J In1J 1_555 1_555
O7J In2I 1_555 1_555
H1J O7J 1_555 1_555
N1J In1J 1_555 1_555
C1J N1J 1_555 1_555
C2J C1J 1_555 1_555
H2J C2J 1_555 1_555
C3J C2J 1_555 1_555
H3J C3J 1_555 1_555
C4J C3J 1_555 1_555
H4J C4J 1_555 1_555
C5J N1J 1_555 1_555
C6J C1J 1_555 1_555
C7J O4J 1_555 1_555
In1K O5K 1_555 1_555
O1K In1K 1_555 1_555
O2K C6K 1_555 1_555
O3K C7K 1_555 1_555
O4K In1K 1_555 1_555
O7K In1K 1_555 1_555
H1K O7K 1_555 1_555
N1K In1K 1_555 1_555
C1K N1K 1_555 1_555
C2K C1K 1_555 1_555
H2K C2K 1_555 1_555
C3K C2K 1_555 1_555
H3K C3K 1_555 1_555
C4K C3K 1_555 1_555
H4K C4K 1_555 1_555
C5K N1K 1_555 1_555
C6K O1K 1_555 1_555
C7K O4K 1_555 1_555
In1C O1I 1_555 1_555
In1D O1J 1_555 1_555
In1E O1K 1_555 1_555
In1F O3K 1_555 1_555
In1G O3I 1_555 1_555
In1H O3J 1_555 1_555
In1J_2 O5J 1_555 1_555
In1O O3B 1_555 1_555
In1P O3 1_555 1_555
In1Q O3A 1_555 1_555
In1L O1 1_555 1_555
In1M O1A 1_555 1_555
In1N O1B 1_555 1_555
In2I_2 O6K 1_555 1_555
In2I_3 O6J 1_555 1_555
O1C In1I 1_555 1_555
O1D In1J 1_555 1_555
O1E In1K 1_555 1_555
O1L In1 1_555 1_555
O1M In1A 1_555 1_555
O1N In1B 1_555 1_555
O3F In1J 1_555 1_555
O3G In1K 1_555 1_555
O3H In1I 1_555 1_555
O3O In1A 1_555 1_555
O3P In1B 1_555 1_555
O3Q In1 1_555 1_555
O5J_2 In1J 1_555 1_555
O6J_2 In2I 1_555 1_555
O6K_2 In2I 1_555 1_555
O7K_2 In2I 1_555 1_555
In2 O7 1_555 1_555
C4 C5 1_555 1_555
C5 C7 1_555 1_555
C8 C11 1_555 1_555
C8I C10I 1_555 1_555
In1A O7A 1_555 1_555
O6A C11A 1_555 1_555
C4A C5A 1_555 1_555
C5A C7A 1_555 1_555
C8A C11A 1_555 1_555
C8J C10J 1_555 1_555
In1B O7B 1_555 1_555
O6B C11B 1_555 1_555
C4B C5B 1_555 1_555
C5B C7B 1_555 1_555
C8B C11B 1_555 1_555
C8K C10K 1_555 1_555
In2I O7I 1_555 1_555
C1I C6I 1_555 1_555
C4I C5I 1_555 1_555
C5I C7I 1_555 1_555
In1J O7J 1_555 1_555
C4J C5J 1_555 1_555
C5J C7J 1_555 1_555
O7K In2I_2 1_555 1_555
C1K C6K 1_555 1_555
C4K C5K 1_555 1_555
C5K C7K 1_555 1_555
In1C O1C 1_555 1_555
In1D O1D 1_555 1_555
In1E O1E 1_555 1_555
In1L O1L 1_555 1_555
In1M O1M 1_555 1_555
In1N O1N 1_555 1_555

#END
