
#######################################################################
#
#                 Cambridge Crystallographic Data Centre
#                                CCDC 
#
#######################################################################
#
# If this CIF has been generated from an entry in the Cambridge 
# Structural Database, then it will include bibliographic, chemical, 
# crystal, experimental, refinement or atomic coordinate data resulting 
# from the CCDC's data processing and validation procedures.
#
#######################################################################

data_VOHSIU
_symmetry_cell_setting           monoclinic
_symmetry_space_group_name_H-M   'P 21/c'
_symmetry_Int_Tables_number      14
_space_group_name_Hall           '-P 2ybc'
loop_
_symmetry_equiv_pos_site_id
_symmetry_equiv_pos_as_xyz
1 x,y,z
2 -x,1/2+y,1/2-z
3 -x,-y,-z
4 x,1/2-y,1/2+z
_cell_length_a                   6.2094(4)
_cell_length_b                   11.052(1)
_cell_length_c                   6.195(1)
_cell_angle_alpha                90
_cell_angle_beta                 112.87(1)
_cell_angle_gamma                90
_cell_volume                     391.719
loop_
_atom_site_label
_atom_site_type_symbol
_atom_site_fract_x
_atom_site_fract_y
_atom_site_fract_z
Cs1 Cs 0.8813(5) 0.1145(2) 0.2020(3)
O1 O 0.7246(4) 0.396(5) 0.133(7)
O2 O 0.3653(8) 0.402(1) 0.130(8)
O3 O 1.3035(6) 0.156(3) 0.038(4)
C1 C 0.528(1) 0.440(4) 0.076(4)
H1 H 1.30(1) 0.116(6) -0.11(3)
H2 H 1.39(3) 0.21(4) 0.10(8)
C1B C 0.472(1) 0.560(4) -0.076(4)
O1B O 0.2754(4) 0.604(5) -0.133(7)
O2B O 0.6347(8) 0.598(1) -0.130(8)
Cs1B Cs 0.1187(5) 0.8855(2) -0.2020(3)
O3B O -0.3035(6) 0.844(3) -0.038(4)
H1B H -0.30(1) 0.884(6) 0.11(3)
H2B H -0.39(3) 0.79(4) -0.10(8)
O1A O 1.2754(4) -0.104(5) 0.367(7)
O1C O 0.7246(4) 0.104(5) -0.367(7)
O1C_2 O 0.7246(4) 0.104(5) 0.633(7)
O2A O 0.6347(8) -0.098(1) 0.370(8)
O2C O 1.3653(8) 0.098(1) 0.630(8)
Cs1A Cs 1.1187(5) 0.6145(2) 0.2980(3)
Cs1C Cs 0.8813(5) 0.3855(2) -0.2980(3)
Cs1C_2 Cs 0.8813(5) 0.3855(2) 0.7020(3)
Cs1A_2 Cs 0.1187(5) 0.6145(2) 0.2980(3)
Cs1C_3 Cs -0.1187(5) 0.3855(2) -0.2980(3)
Cs1A_3 Cs 0.1187(5) 0.6145(2) -0.7020(3)
O1A_2 O 0.2754(4) 0.896(5) -0.633(7)
O1A_3 O 0.2754(4) 0.896(5) 0.367(7)
O1C_3 O -0.2754(4) 1.104(5) -0.367(7)
O2A_2 O -0.3653(8) 0.902(1) -0.630(8)
O2C_2 O 0.3653(8) 1.098(1) -0.370(8)
loop_
_geom_bond_atom_site_label_1
_geom_bond_atom_site_label_2
_geom_bond_site_symmetry_1
_geom_bond_site_symmetry_2
Cs1 O1 1_555 1_555
O1 C1 1_555 1_555
O2 C1 1_555 1_555
O3 Cs1 1_555 1_555
C1 C1B 1_555 1_555
H1 O3 1_555 1_555
H2 O3 1_555 1_555
C1B O1B 1_555 1_555
O1B Cs1B 1_555 1_555
O2B C1B 1_555 1_555
Cs1B O3B 1_555 1_555
O3B H1B 1_555 1_555
H2B O3B 1_555 1_555
O1A Cs1 1_555 1_555
O1C Cs1 1_555 1_555
O1C_2 Cs1 1_555 1_555
O2A Cs1 1_555 1_555
O2C Cs1 1_555 1_555
Cs1A O1 1_555 1_555
Cs1C O1 1_555 1_555
Cs1C_2 O1 1_555 1_555
Cs1A_2 O2 1_555 1_555
Cs1C_3 O2 1_555 1_555
Cs1A_3 O1B 1_555 1_555
O1A_2 Cs1B 1_555 1_555
O1A_3 Cs1B 1_555 1_555
O1C_3 Cs1B 1_555 1_555
O2A_2 Cs1B 1_555 1_555
O2C_2 Cs1B 1_555 1_555
O1B Cs1A_2 1_555 1_555
O1B Cs1C_3 1_555 1_555
O2B Cs1A 1_555 1_555
O2B Cs1C 1_555 1_555
O1C Cs1C 1_555 1_555
O1C_2 Cs1C_2 1_555 1_555
Cs1A_2 O1A_3 1_555 1_555
Cs1A_3 O1A_2 1_555 1_555

#END
