
#######################################################################
#
#                 Cambridge Crystallographic Data Centre
#                                CCDC 
#
#######################################################################
#
# If this CIF has been generated from an entry in the Cambridge 
# Structural Database, then it will include bibliographic, chemical, 
# crystal, experimental, refinement or atomic coordinate data resulting 
# from the CCDC's data processing and validation procedures.
#
#######################################################################

data_VOHVEU
_symmetry_cell_setting           triclinic
_symmetry_space_group_name_H-M   'P -1'
_symmetry_Int_Tables_number      2
_space_group_name_Hall           '-P 1'
loop_
_symmetry_equiv_pos_site_id
_symmetry_equiv_pos_as_xyz
1 x,y,z
2 -x,-y,-z
_cell_length_a                   9.5780(13)
_cell_length_b                   10.2149(14)
_cell_length_c                   21.246(3)
_cell_angle_alpha                78.801(2)
_cell_angle_beta                 86.868(2)
_cell_angle_gamma                87.773(2)
_cell_volume                     2035.2
loop_
_atom_site_label
_atom_site_type_symbol
_atom_site_fract_x
_atom_site_fract_y
_atom_site_fract_z
Zn1 Zn 0.19902(3) 0.26767(3) 0.246490(13)
Zn2 Zn 0.26205(3) 0.12585(3) 0.120459(13)
Zn3 Zn 0.12868(3) 0.40139(3) 0.372471(12)
O1 O 0.25397(19) 0.31307(16) 0.07148(8)
O3 O 0.24293(18) 0.39914(16) 0.16108(8)
O5 O 0.3008(2) 1.01970(17) 0.04816(8)
O7 O 0.2498(2) 0.89274(18) 0.14176(8)
O8 O 0.16648(18) 0.22390(16) 0.42778(8)
O9 O 0.15301(18) 0.14730(16) 0.33667(8)
O10 O 0.12225(19) -0.47631(16) 0.43426(8)
O11 O 0.1139(2) -0.33392(17) 0.34139(8)
O12 O 0.01511(17) 0.36945(17) 0.24508(8)
O13 O -0.06132(17) 0.39961(17) 0.34319(8)
O14 O -0.71777(16) 0.41254(16) 0.30577(8)
O15 O -0.58193(19) 0.4146(2) 0.38758(8)
O16 O 0.45204(17) 0.12092(17) 0.15619(8)
O17 O 0.38613(17) 0.17370(17) 0.25117(8)
O18 O 0.9879(2) 0.1151(2) 0.11281(9)
O19 O 1.11797(17) 0.12825(16) 0.19406(8)
C1 C 0.2898(3) 0.5447(2) 0.06242(11)
C2 C 0.2758(3) 0.6576(2) 0.09009(11)
H6 H 0.2443 0.6497 0.1328
C3 C 0.3089(3) 0.7831(2) 0.05381(11)
C4 C 0.3613(3) 0.7939(2) -0.00916(12)
H7 H 0.3863 0.8767 -0.0330
C5 C 0.3764(3) 0.6809(3) -0.03659(12)
H8 H 0.4120 0.6881 -0.0787
C6 C 0.3384(3) 0.5574(3) -0.00129(12)
H9 H 0.3455 0.4827 -0.0204
C7 C 0.2587(2) 0.4086(2) 0.10189(11)
C8 C 0.2853(3) 0.9050(2) 0.08303(12)
C9 C 0.1663(2) -0.0103(2) 0.43341(11)
C10 C 0.1514(2) -0.1155(2) 0.40159(11)
H10 H 0.1466 -0.0985 0.3571
C11 C 0.1436(2) -0.2461(2) 0.43602(11)
C12 C 0.1530(3) -0.2708(2) 0.50250(11)
H11 H 0.1470 -0.3577 0.5258
C13 C 0.1712(3) -0.1665(2) 0.53413(12)
H12 H 0.1796 -0.1837 0.5784
C14 C 0.1768(3) -0.0366(2) 0.49976(12)
H13 H 0.1877 0.0333 0.5212
C15 C 0.1636(2) 0.1306(2) 0.39605(11)
C16 C 0.1254(2) -0.3577(2) 0.40070(11)
C17 C -0.2241(2) 0.4197(2) 0.26180(11)
C18 C -0.3393(2) 0.4109(2) 0.30544(11)
H14 H -0.3264 0.3884 0.3493
C19 C -0.4731(2) 0.4356(2) 0.28326(11)
C20 C -0.4919(3) 0.4767(2) 0.21774(11)
H15 H -0.5812 0.4978 0.2030
C21 C -0.3769(3) 0.4861(2) 0.17443(11)
H16 H -0.3895 0.5137 0.1307
C22 C -0.2433(3) 0.4545(2) 0.19603(11)
H17 H -0.1671 0.4566 0.1668
C23 C -0.0791(2) 0.3933(2) 0.28499(11)
C24 C -0.5976(2) 0.4193(2) 0.32967(11)
C35 C 0.6209(2) 0.1089(2) 0.23487(11)
C36 C 0.7377(2) 0.1208(2) 0.19237(11)
H26 H 0.7264 0.1428 0.1483
C37 C 0.8713(2) 0.0996(2) 0.21573(11)
C38 C 0.8875(2) 0.0575(2) 0.28136(12)
H27 H 0.9766 0.0409 0.2970
C39 C 0.7707(3) 0.0402(2) 0.32346(11)
H28 H 0.7816 0.0085 0.3671
C40 C 0.6379(3) 0.0698(2) 0.30081(12)
H29 H 0.5604 0.0638 0.3294
C41 C 0.4750(2) 0.1373(2) 0.21204(11)
C42 C 0.9977(2) 0.1169(2) 0.17032(12)
Zn1_2 Zn -0.80098(3) 0.26767(3) 0.246490(13)
Zn1_3 Zn 1.19902(3) 0.26767(3) 0.246490(13)
Zn2_2 Zn 0.26205(3) 1.12585(3) 0.120459(13)
Zn2_3 Zn 1.26205(3) 0.12585(3) 0.120459(13)
Zn3_2 Zn 0.12868(3) -0.59861(3) 0.372471(12)
Zn3_3 Zn -0.87132(3) 0.40139(3) 0.372471(12)
O5_2 O 0.3008(2) 0.01970(17) 0.04816(8)
O7_2 O 0.2498(2) -0.10726(18) 0.14176(8)
O10_2 O 0.12225(19) 0.52369(16) 0.43426(8)
O14_2 O 0.28223(16) 0.41254(16) 0.30577(8)
O19_2 O 0.11797(17) 0.12825(16) 0.19406(8)
O2 O 0.3318(2) 0.7891(3) 0.26301(11)
H1 H 0.263(3) 0.747(4) 0.2846(15)
H2 H 0.304(4) 0.816(4) 0.2245(10)
O4 O 0.0297(4) 1.2705(5) -0.01008(17)
N1 N -0.1435(3) 0.8121(4) 0.11834(13)
H3 H -0.096(4) 0.819(4) 0.0802(13)
N2 N -0.3877(2) 0.7558(2) 0.28617(10)
H4 H -0.4749(19) 0.770(3) 0.2783(14)
N3 N -0.3498(2) 0.6593(2) 0.48259(11)
H5 H -0.346(3) 0.635(3) 0.5245(9)
C25 C -0.0791(3) 0.7817(4) 0.17389(15)
H18 H 0.0181 0.7741 0.1731
C26 C -0.1520(3) 0.7618(3) 0.23121(13)
H19 H -0.1054 0.7407 0.2693
C27 C -0.2983(3) 0.7733(2) 0.23259(12)
C28 C -0.3620(3) 0.8093(3) 0.17313(13)
H20 H -0.4588 0.8202 0.1723
C29 C -0.2832(4) 0.8282(4) 0.11717(14)
H21 H -0.3259 0.8522 0.0781
C30 C -0.2372(3) 0.6433(3) 0.44465(13)
H22 H -0.1537 0.6113 0.4632
C31 C -0.2419(3) 0.6728(3) 0.37923(13)
H23 H -0.1625 0.6596 0.3537
C32 C -0.3657(3) 0.7229(2) 0.35070(12)
C33 C -0.4817(3) 0.7387(3) 0.39210(13)
H24 H -0.5664 0.7717 0.3752
C34 C -0.4708(3) 0.7060(4) 0.45719(14)
H25 H -0.5486 0.7162 0.4842
O6? O 0.0059(6) 0.9448(6) 0.0086(2)
loop_
_geom_bond_atom_site_label_1
_geom_bond_atom_site_label_2
_geom_bond_site_symmetry_1
_geom_bond_site_symmetry_2
Zn1 O3 1_555 1_555
Zn2 O1 1_555 1_555
Zn3 O8 1_555 1_555
O1 C7 1_555 1_555
O2 H1 1_555 1_555
H2 O2 1_555 1_555
O3 C7 1_555 1_555
O5 C8 1_555 1_555
O7 C8 1_555 1_555
O8 C15 1_555 1_555
O9 Zn1 1_555 1_555
O10 C16 1_555 1_555
O11 C16 1_555 1_555
O12 Zn1 1_555 1_555
O13 Zn3 1_555 1_555
O14 C24 1_555 1_555
O15 C24 1_555 1_555
O16 Zn2 1_555 1_555
O17 Zn1 1_555 1_555
O18 C42 1_555 1_555
O19 C42 1_555 1_555
N1 H3 1_555 1_555
N2 H4 1_555 1_555
N3 H5 1_555 1_555
C1 C2 1_555 1_555
C2 H6 1_555 1_555
C3 C2 1_555 1_555
C4 C3 1_555 1_555
H7 C4 1_555 1_555
C5 C4 1_555 1_555
H8 C5 1_555 1_555
C6 C1 1_555 1_555
H9 C6 1_555 1_555
C7 C1 1_555 1_555
C8 C3 1_555 1_555
C9 C10 1_555 1_555
C10 H10 1_555 1_555
C11 C10 1_555 1_555
C12 C11 1_555 1_555
H11 C12 1_555 1_555
C13 C12 1_555 1_555
H12 C13 1_555 1_555
C14 C9 1_555 1_555
H13 C14 1_555 1_555
C15 O9 1_555 1_555
C16 C11 1_555 1_555
C17 C18 1_555 1_555
C18 H14 1_555 1_555
C19 C18 1_555 1_555
C20 C19 1_555 1_555
H15 C20 1_555 1_555
C21 C20 1_555 1_555
H16 C21 1_555 1_555
C22 C17 1_555 1_555
H17 C22 1_555 1_555
C23 O12 1_555 1_555
C24 C19 1_555 1_555
C25 N1 1_555 1_555
H18 C25 1_555 1_555
C26 C25 1_555 1_555
H19 C26 1_555 1_555
C27 N2 1_555 1_555
C28 C27 1_555 1_555
H20 C28 1_555 1_555
C29 N1 1_555 1_555
H21 C29 1_555 1_555
C30 N3 1_555 1_555
H22 C30 1_555 1_555
C31 C30 1_555 1_555
H23 C31 1_555 1_555
C32 N2 1_555 1_555
C33 C32 1_555 1_555
H24 C33 1_555 1_555
C34 N3 1_555 1_555
H25 C34 1_555 1_555
C35 C36 1_555 1_555
C36 H26 1_555 1_555
C37 C36 1_555 1_555
C38 C37 1_555 1_555
H27 C38 1_555 1_555
C39 C38 1_555 1_555
H28 C39 1_555 1_555
C40 C35 1_555 1_555
H29 C40 1_555 1_555
C41 O16 1_555 1_555
C42 C37 1_555 1_555
Zn1_2 O14 1_555 1_555
Zn1_3 O19 1_555 1_555
Zn2_2 O5 1_555 1_555
Zn2_3 O19 1_555 1_555
Zn3_2 O10 1_555 1_555
Zn3_3 O14 1_555 1_555
O5_2 Zn2 1_555 1_555
O7_2 Zn2 1_555 1_555
O10_2 Zn3 1_555 1_555
O14_2 Zn1 1_555 1_555
O19_2 Zn1 1_555 1_555
Zn2 O19_2 1_555 1_555
Zn3 O14_2 1_555 1_555
O7 Zn2_2 1_555 1_555
O13 C23 1_555 1_555
O17 C41 1_555 1_555
C5 C6 1_555 1_555
C9 C15 1_555 1_555
C13 C14 1_555 1_555
C17 C23 1_555 1_555
C21 C22 1_555 1_555
C26 C27 1_555 1_555
C28 C29 1_555 1_555
C31 C32 1_555 1_555
C33 C34 1_555 1_555
C35 C41 1_555 1_555
C39 C40 1_555 1_555

#END
