
#######################################################################
#
#                 Cambridge Crystallographic Data Centre
#                                CCDC 
#
#######################################################################
#
# If this CIF has been generated from an entry in the Cambridge 
# Structural Database, then it will include bibliographic, chemical, 
# crystal, experimental, refinement or atomic coordinate data resulting 
# from the CCDC's data processing and validation procedures.
#
#######################################################################

data_VOJBUT01
_symmetry_cell_setting           tetragonal
_symmetry_space_group_name_H-M   'I 41/a'
_symmetry_Int_Tables_number      88
_space_group_name_Hall           '-I 4ad'
loop_
_symmetry_equiv_pos_site_id
_symmetry_equiv_pos_as_xyz
1 x,y,z
2 1/2-x,-y,1/2+z
3 3/4-y,1/4+x,1/4+z
4 3/4+y,3/4-x,3/4+z
5 1/2+x,1/2+y,1/2+z
6 -x,1/2-y,z
7 1/4-y,3/4+x,3/4+z
8 1/4+y,1/4-x,1/4+z
9 -x,-y,-z
10 1/2+x,y,1/2-z
11 1/4+y,3/4-x,3/4-z
12 1/4-y,1/4+x,1/4-z
13 1/2-x,1/2-y,1/2-z
14 x,1/2+y,-z
15 3/4+y,1/4-x,1/4-z
16 3/4-y,3/4+x,3/4-z
_cell_length_a                   18.0155(3)
_cell_length_b                   18.0155(3)
_cell_length_c                   22.8292(8)
_cell_angle_alpha                90
_cell_angle_beta                 90
_cell_angle_gamma                90
_cell_volume                     7409.4
loop_
_atom_site_label
_atom_site_type_symbol
_atom_site_fract_x
_atom_site_fract_y
_atom_site_fract_z
Cl1 Cl -0.053(2) 0.309(4) 0.063(2)
C11 C 0.007(7) 0.271(6) 0.087(4)
Cl1E Cl 0.053(2) 0.191(4) 0.063(2)
C11E C -0.007(7) 0.229(6) 0.087(4)
Au1 Au 0.239756(14) 0.532671(15) 0.055737(11)
Au2 Au 0.264734(15) 0.525174(14) -0.073624(11)
S1 S 0.12015(10) 0.57650(11) 0.04742(8)
S2 S 0.36097(10) 0.49315(11) 0.05975(8)
C1 C 0.0662(4) 0.5395(4) 0.1037(3)
C2 C 0.3986(4) 0.5124(4) 0.1280(3)
S3 S 0.34971(10) 0.53273(12) 0.19152(8)
S4 S 0.09911(10) 0.49872(12) 0.16726(8)
N1 N -0.0072(3) 0.5441(4) 0.0974(3)
N2 N 0.4722(3) 0.5112(4) 0.1322(3)
C3 C -0.0441(4) 0.5766(5) 0.0452(4)
C4 C -0.0588(5) 0.5178(7) 0.1434(4)
C5 C 0.5220(4) 0.4964(5) 0.0813(3)
C6 C 0.5117(5) 0.5254(5) 0.1879(3)
H1 H -0.0901 0.5502 0.0376
H2 H -0.0123 0.5708 0.0113
C7 C -0.0607(6) 0.6581(6) 0.0544(5)
H3 H -0.0381 0.5293 0.1816
H4 H -0.1056 0.5439 0.1397
C8 C -0.0726(7) 0.4360(8) 0.1394(6)
H5 H 0.5697 0.5199 0.0880
H6 H 0.5005 0.5181 0.0462
C9 C 0.5331(5) 0.4134(5) 0.0720(4)
H7 H 0.5576 0.4972 0.1885
H8 H 0.4813 0.5089 0.2204
C10 C 0.5290(6) 0.6072(6) 0.1949(4)
H9 H -0.0851 0.6776 0.0204
H10 H -0.0151 0.6845 0.0608
H11 H -0.0924 0.6639 0.0880
H12 H -0.1062 0.4212 0.1699
H13 H -0.0265 0.4098 0.1438
H14 H -0.0939 0.4244 0.1019
H15 H 0.5655 0.4055 0.0392
H16 H 0.4860 0.3904 0.0644
H17 H 0.5547 0.3920 0.1065
H18 H 0.5547 0.6149 0.2313
H19 H 0.4836 0.6350 0.1950
H20 H 0.5597 0.6234 0.1630
Au2B Au 0.224826(14) 0.514734(15) 0.176376(11)
Au1B Au 0.217329(15) 0.489756(14) 0.305737(11)
loop_
_geom_bond_atom_site_label_1
_geom_bond_atom_site_label_2
_geom_bond_site_symmetry_1
_geom_bond_site_symmetry_2
Au1 Au2 1_555 1_555
S1 Au1 1_555 1_555
S2 Au1 1_555 1_555
C1 S1 1_555 1_555
C2 S2 1_555 1_555
S3 C2 1_555 1_555
S4 C1 1_555 1_555
N1 C1 1_555 1_555
N2 C2 1_555 1_555
C3 N1 1_555 1_555
C4 N1 1_555 1_555
C5 N2 1_555 1_555
C6 N2 1_555 1_555
H1 C3 1_555 1_555
H2 C3 1_555 1_555
C7 C3 1_555 1_555
H3 C4 1_555 1_555
H4 C4 1_555 1_555
C8 C4 1_555 1_555
H5 C5 1_555 1_555
H6 C5 1_555 1_555
C9 C5 1_555 1_555
H7 C6 1_555 1_555
H8 C6 1_555 1_555
C10 C6 1_555 1_555
H9 C7 1_555 1_555
H10 C7 1_555 1_555
H11 C7 1_555 1_555
H12 C8 1_555 1_555
H13 C8 1_555 1_555
H14 C8 1_555 1_555
H15 C9 1_555 1_555
H16 C9 1_555 1_555
H17 C9 1_555 1_555
H18 C10 1_555 1_555
H19 C10 1_555 1_555
H20 C10 1_555 1_555
Cl1 C11 1_555 1_555
C11 Cl1E 1_555 1_555
Au2B Au1 1_555 1_555
Au1B Au2B 1_555 1_555
Cl1E C11E 1_555 1_555
C11E Cl1 1_555 1_555
S3 Au2B 1_555 1_555
S4 Au2B 1_555 1_555
C11 C11E 1_555 1_555

#END
