
#######################################################################
#
#                 Cambridge Crystallographic Data Centre
#                                CCDC 
#
#######################################################################
#
# If this CIF has been generated from an entry in the Cambridge 
# Structural Database, then it will include bibliographic, chemical, 
# crystal, experimental, refinement or atomic coordinate data resulting 
# from the CCDC's data processing and validation procedures.
#
#######################################################################

data_VOJBUT
_symmetry_cell_setting           tetragonal
_symmetry_space_group_name_H-M   'I 41/a'
_symmetry_Int_Tables_number      88
_space_group_name_Hall           '-I 4ad'
loop_
_symmetry_equiv_pos_site_id
_symmetry_equiv_pos_as_xyz
1 x,y,z
2 1/2-x,-y,1/2+z
3 3/4-y,1/4+x,1/4+z
4 3/4+y,3/4-x,3/4+z
5 1/2+x,1/2+y,1/2+z
6 -x,1/2-y,z
7 1/4-y,3/4+x,3/4+z
8 1/4+y,1/4-x,1/4+z
9 -x,-y,-z
10 1/2+x,y,1/2-z
11 1/4+y,3/4-x,3/4-z
12 1/4-y,1/4+x,1/4-z
13 1/2-x,1/2-y,1/2-z
14 x,1/2+y,-z
15 3/4+y,1/4-x,1/4-z
16 3/4-y,3/4+x,3/4-z
_cell_length_a                   17.9837(3)
_cell_length_b                   17.9837(3)
_cell_length_c                   22.7807(9)
_cell_angle_alpha                90
_cell_angle_beta                 90
_cell_angle_gamma                90
_cell_volume                     7367.59
loop_
_atom_site_label
_atom_site_type_symbol
_atom_site_fract_x
_atom_site_fract_y
_atom_site_fract_z
Cl1 Cl 0.441(3) 0.306(2) -0.187(2)
C11 C 0.475(6) 0.242(7) -0.165(4)
Cl1E Cl 0.559(3) 0.194(2) -0.187(2)
C11E C 0.525(6) 0.258(7) -0.165(4)
Au1 Au 0.260763(16) 0.033513(17) 0.055499(13)
Au2 Au 0.234970(17) 0.025943(16) -0.073723(13)
S1 S 0.38064(11) 0.07770(12) 0.04714(9)
S2 S 0.13934(11) -0.00621(12) 0.05937(9)
S3 S 0.15095(13) 0.03274(11) 0.19170(9)
S4 S 0.40187(14) -0.00071(12) 0.16718(9)
C1 C 0.4353(5) 0.0404(5) 0.1033(4)
C2 C 0.1016(4) 0.0128(5) 0.1286(4)
N1 N 0.5081(4) 0.0446(4) 0.0968(3)
N2 N 0.0284(4) 0.0112(4) 0.1328(3)
C3 C 0.5457(5) 0.0774(5) 0.0445(4)
C4 C 0.5602(8) 0.0180(6) 0.1422(5)
C5 C -0.0220(5) -0.0030(5) 0.0813(4)
C6 C -0.0114(5) 0.0248(5) 0.1882(4)
C7 C 0.5622(7) 0.1587(7) 0.0536(6)
H1 H 0.5140 0.0715 0.0103
H2 H 0.5918 0.0509 0.0370
C8 C 0.5733(9) -0.0641(7) 0.1392(7)
H3 H 0.5405 0.0305 0.1806
H4 H 0.6073 0.0436 0.1376
C9 C -0.0333(6) -0.0853(5) 0.0713(4)
H5 H -0.0006 0.0191 0.0463
H6 H -0.0698 0.0204 0.0883
C10 C -0.0284(6) 0.1072(6) 0.1955(5)
H7 H -0.0574 -0.0033 0.1886
H8 H 0.0189 0.0080 0.2209
H9 H 0.5166 0.1851 0.0601
H10 H 0.5865 0.1783 0.0194
H11 H 0.5941 0.1645 0.0871
H12 H 0.6074 -0.0785 0.1696
H13 H 0.5270 -0.0899 0.1445
H14 H 0.5939 -0.0767 0.1016
H15 H 0.0138 -0.1083 0.0632
H16 H -0.0660 -0.0926 0.0385
H17 H -0.0547 -0.1073 0.1057
H18 H 0.0172 0.1349 0.1957
H19 H -0.0590 0.1236 0.1635
H20 H -0.0543 0.1150 0.2318
Au2G Au 0.275943(16) 0.015030(17) 0.176277(13)
Au1G Au 0.283513(17) -0.010763(16) 0.305499(13)
loop_
_geom_bond_atom_site_label_1
_geom_bond_atom_site_label_2
_geom_bond_site_symmetry_1
_geom_bond_site_symmetry_2
Au1 Au2 1_555 1_555
S1 Au1 1_555 1_555
S2 Au1 1_555 1_555
S3 C2 1_555 1_555
S4 C1 1_555 1_555
C1 S1 1_555 1_555
C2 S2 1_555 1_555
N1 C1 1_555 1_555
N2 C2 1_555 1_555
C3 N1 1_555 1_555
C4 N1 1_555 1_555
C5 N2 1_555 1_555
C6 N2 1_555 1_555
C7 C3 1_555 1_555
H1 C3 1_555 1_555
H2 C3 1_555 1_555
C8 C4 1_555 1_555
H3 C4 1_555 1_555
H4 C4 1_555 1_555
C9 C5 1_555 1_555
H5 C5 1_555 1_555
H6 C5 1_555 1_555
C10 C6 1_555 1_555
H7 C6 1_555 1_555
H8 C6 1_555 1_555
H9 C7 1_555 1_555
H10 C7 1_555 1_555
H11 C7 1_555 1_555
H12 C8 1_555 1_555
H13 C8 1_555 1_555
H14 C8 1_555 1_555
H15 C9 1_555 1_555
H16 C9 1_555 1_555
H17 C9 1_555 1_555
H18 C10 1_555 1_555
H19 C10 1_555 1_555
H20 C10 1_555 1_555
Cl1 C11 1_555 1_555
C11 Cl1E 1_555 1_555
Au2G Au1 1_555 1_555
Au1G Au2G 1_555 1_555
Cl1E C11E 1_555 1_555
C11E Cl1 1_555 1_555
S3 Au2G 1_555 1_555
S4 Au2G 1_555 1_555
C11 C11E 1_555 1_555

#END
