
#######################################################################
#
#                 Cambridge Crystallographic Data Centre
#                                CCDC 
#
#######################################################################
#
# If this CIF has been generated from an entry in the Cambridge 
# Structural Database, then it will include bibliographic, chemical, 
# crystal, experimental, refinement or atomic coordinate data resulting 
# from the CCDC's data processing and validation procedures.
#
#######################################################################

data_VOJLEM
_symmetry_cell_setting           orthorhombic
_symmetry_space_group_name_H-M   'P 21 21 2'
_symmetry_Int_Tables_number      18
_space_group_name_Hall           'P 2 2ab'
loop_
_symmetry_equiv_pos_site_id
_symmetry_equiv_pos_as_xyz
1 x,y,z
2 -x,-y,z
3 1/2-x,1/2+y,-z
4 1/2+x,1/2-y,-z
_cell_length_a                   20.454(4)
_cell_length_b                   21.822(4)
_cell_length_c                   10.918(2)
_cell_angle_alpha                90
_cell_angle_beta                 90
_cell_angle_gamma                90
_cell_volume                     4873.22
loop_
_atom_site_label
_atom_site_type_symbol
_atom_site_fract_x
_atom_site_fract_y
_atom_site_fract_z
O31 O -0.0989(7) 0.0647(7) -0.8405(16)
O32 O -0.0955(8) 0.0742(9) -0.6387(16)
C9 C -0.0730(8) 0.0572(9) -0.724(3)
C10 C -0.0067(9) 0.0236(8) -0.720(2)
C11 C 0.0180(11) 0.0354(10) -0.645(2)
N5 N 0.0195(8) 0.0068(13) -0.8467(15)
O31A O 0.0989(7) -0.0647(7) -0.8405(16)
O32A O 0.0955(8) -0.0742(9) -0.6387(16)
C9A C 0.0730(8) -0.0572(9) -0.724(3)
C10A C 0.0067(9) -0.0236(8) -0.720(2)
C11A C -0.0180(11) -0.0354(10) -0.645(2)
N5A N -0.0195(8) -0.0068(13) -0.8467(15)
O43 O 0.3833(5) -0.0411(4) -0.0895(9)
O44 O 0.0535(5) -0.1189(4) -0.4703(10)
O45 O 0.3176(7) -0.0216(6) -0.9169(13)
O46 O 0.0386(10) -0.4405(9) -0.561(2)
Cr1 Cr -0.25932(6) 0.25047(6) -0.26514(13)
Mo1 Mo -0.22445(4) 0.10186(4) -0.27734(8)
Mo2 Mo -0.11681(4) 0.19923(4) -0.15801(7)
Mo3 Mo -0.14995(4) 0.34761(4) -0.14720(8)
Mo4 Mo -0.29593(4) 0.39791(4) -0.24472(8)
Mo5 Mo -0.40361(4) 0.30034(4) -0.36620(8)
Mo6 Mo -0.36804(4) 0.15194(4) -0.38146(7)
Zn1 Zn -0.26008(5) -0.32633(5) -0.23524(11)
Na1 Na -0.2826(3) -0.0700(2) -0.3221(5)
Na2 Na -0.1169(3) -0.1002(3) -0.0664(5)
O1 O -0.1854(3) 0.1985(3) -0.3209(5)
O2 O -0.2060(3) 0.2592(3) -0.1162(5)
O3 O -0.2186(3) 0.3285(3) -0.3128(5)
O4 O -0.3314(3) 0.3009(3) -0.2035(5)
O5 O -0.3136(3) 0.2425(3) -0.4141(5)
O6 O -0.3012(3) 0.1722(3) -0.2173(6)
O7 O -0.1783(3) 0.1322(3) -0.1346(6)
O8 O -0.0985(3) 0.2809(3) -0.2137(6)
O9 O -0.2340(3) 0.3820(3) -0.1122(6)
O10 O -0.3452(3) 0.3693(3) -0.3852(6)
O11 O -0.4208(3) 0.2169(3) -0.3171(5)
O12 O -0.2807(3) 0.1166(3) -0.4129(6)
O13 O -0.2636(4) 0.0426(3) -0.2074(7)
O14 O -0.1613(3) 0.0698(3) -0.3579(7)
O15 O -0.0886(3) 0.2024(3) -0.0101(6)
O16 O -0.0575(3) 0.1623(3) -0.2386(7)
O17 O -0.1202(4) 0.3503(4) -0.0021(6)
O18 O -0.1138(4) 0.4065(3) -0.2243(8)
O19 O -0.2594(4) 0.4588(3) -0.3160(7)
O20 O -0.3559(3) 0.4281(3) -0.1550(7)
O21 O -0.4333(3) 0.3011(3) -0.5103(7)
O22 O -0.4637(3) 0.3321(3) -0.2796(8)
O23 O -0.3956(3) 0.1470(3) -0.5272(6)
O24 O -0.4024(3) 0.0928(3) -0.3050(6)
O25 O -0.2501(3) -0.2548(3) -0.3750(6)
O26 O -0.2958(3) -0.1665(3) -0.4271(7)
O27 O -0.3956(3) -0.2793(3) -0.4954(6)
O28 O -0.2317(3) -0.2603(3) -0.0945(6)
O29 O -0.1470(4) -0.2051(4) -0.0357(7)
O30 O -0.1191(4) -0.3458(4) 0.0258(6)
C1 C -0.2948(5) -0.2150(4) -0.3684(8)
C2 C -0.3525(5) -0.2267(4) -0.2777(9)
H1 H -0.3457 -0.2011 -0.2050
C3 C -0.4164(5) -0.2072(6) -0.3382(10)
H2 H -0.4529 -0.2225 -0.2905
H3 H -0.4190 -0.1628 -0.3390
C4 C -0.4214(5) -0.2301(5) -0.4634(9)
C5 C -0.1716(5) -0.2446(5) -0.1017(10)
C6 C -0.1301(5) -0.2821(5) -0.1882(9)
H4 H -0.1236 -0.2571 -0.2619
C7 C -0.0629(5) -0.2933(6) -0.1340(10)
H5 H -0.0396 -0.3231 -0.1833
H6 H -0.0380 -0.2555 -0.1342
C8 C -0.0696(5) -0.3164(7) -0.0061(11)
N1 N -0.1607(4) -0.3392(4) -0.2279(7)
N2 N -0.0205(5) -0.3025(7) 0.0713(10)
H7 H -0.0290 -0.3183 0.1448
H8 H -0.0170 -0.2619 0.0774
H9 H 0.0167 -0.3180 0.0428
N3 N -0.3537(4) -0.2921(4) -0.2380(7)
N4 N -0.4506(5) -0.1949(5) -0.5469(8)
H10 H -0.4502 -0.2139 -0.6190
H11 H -0.4292 -0.1594 -0.5531
H12 H -0.4917 -0.1878 -0.5243
O34 O -0.2747(4) -0.3972(3) -0.3638(6)
O35 O -0.2863(4) -0.3954(3) -0.1013(6)
O36 O -0.1757(5) -0.0595(4) -0.4147(8)
O37 O -0.3279(6) -0.0110(5) -0.4922(10)
O38 O -0.3828(6) -0.0625(5) -0.2072(12)
O39 O -0.0846(7) -0.1199(7) -0.2666(12)
O40 O -0.0191(4) -0.1188(4) 0.0368(9)
O41 O -0.0966(6) 0.0106(5) -0.0752(10)
O42 O -0.2310(5) -0.0831(5) -0.1237(9)
Na2B Na -0.3831(3) 0.3998(3) 0.0664(5)
O20B O -0.1441(3) -0.0719(3) 0.1550(7)
O33? O -0.096(2) 0.037(2) -0.622(4)
loop_
_geom_bond_atom_site_label_1
_geom_bond_atom_site_label_2
_geom_bond_site_symmetry_1
_geom_bond_site_symmetry_2
Cr1 O1 1_555 1_555
Mo1 O1 1_555 1_555
Mo2 O1 1_555 1_555
Mo3 O2 1_555 1_555
Mo4 O3 1_555 1_555
Mo5 O4 1_555 1_555
Mo6 O5 1_555 1_555
Zn1 O25 1_555 1_555
Na1 O13 1_555 1_555
Na2 O29 1_555 1_555
O2 Cr1 1_555 1_555
O3 Cr1 1_555 1_555
O4 Cr1 1_555 1_555
O5 Cr1 1_555 1_555
O6 Cr1 1_555 1_555
O7 Mo1 1_555 1_555
O8 Mo2 1_555 1_555
O9 Mo3 1_555 1_555
O10 Mo4 1_555 1_555
O11 Mo5 1_555 1_555
O12 Mo1 1_555 1_555
O13 Mo1 1_555 1_555
O14 Mo1 1_555 1_555
O15 Mo2 1_555 1_555
O16 Mo2 1_555 1_555
O17 Mo3 1_555 1_555
O18 Mo3 1_555 1_555
O19 Mo4 1_555 1_555
O20 Mo4 1_555 1_555
O21 Mo5 1_555 1_555
O22 Mo5 1_555 1_555
O23 Mo6 1_555 1_555
O24 Mo6 1_555 1_555
O25 C1 1_555 1_555
O26 Na1 1_555 1_555
O27 C4 1_555 1_555
O28 Zn1 1_555 1_555
O29 C5 1_555 1_555
O30 C8 1_555 1_555
O31 C9 1_555 1_555
O32 C9 1_555 1_555
C1 O26 1_555 1_555
C2 C1 1_555 1_555
H1 C2 1_555 1_555
C3 C2 1_555 1_555
H2 C3 1_555 1_555
H3 C3 1_555 1_555
C4 C3 1_555 1_555
C5 O28 1_555 1_555
C6 C5 1_555 1_555
H4 C6 1_555 1_555
C7 C6 1_555 1_555
H5 C7 1_555 1_555
H6 C7 1_555 1_555
C8 C7 1_555 1_555
C9 C10 1_555 1_555
C10 C11 1_555 1_555
C11 C10A 1_555 1_555
N1 Zn1 1_555 1_555
N2 C8 1_555 1_555
H7 N2 1_555 1_555
H8 N2 1_555 1_555
H9 N2 1_555 1_555
N3 Zn1 1_555 1_555
N4 C4 1_555 1_555
H10 N4 1_555 1_555
H11 N4 1_555 1_555
H12 N4 1_555 1_555
N5 C10 1_555 1_555
O34 Zn1 1_555 1_555
O35 Zn1 1_555 1_555
O36 Na1 1_555 1_555
O37 Na1 1_555 1_555
O38 Na1 1_555 1_555
O39 Na2 1_555 1_555
O40 Na2 1_555 1_555
O41 Na2 1_555 1_555
O42 Na1 1_555 1_555
Na2B O20 1_555 1_555
O20B Na2 1_555 1_555
O31A C9A 1_555 1_555
O32A C9A 1_555 1_555
C9A C10A 1_555 1_555
C10A C10 1_555 1_555
C11A C10 1_555 1_555
N5A C10 1_555 1_555
Mo1 O6 1_555 1_555
Mo2 O2 1_555 1_555
Mo2 O7 1_555 1_555
Mo3 O3 1_555 1_555
Mo3 O8 1_555 1_555
Mo4 O4 1_555 1_555
Mo4 O9 1_555 1_555
Mo5 O5 1_555 1_555
Mo5 O10 1_555 1_555
Mo6 O6 1_555 1_555
Mo6 O11 1_555 1_555
Mo6 O12 1_555 1_555
Na2 O42 1_555 1_555
C2 N3 1_555 1_555
C6 N1 1_555 1_555
C11 C11A 1_555 1_555
N5 C10A 1_555 1_555
N5 N5A 1_555 1_555
C10A C11A 1_555 1_555
C10A N5A 1_555 1_555

#END
