
#######################################################################
#
#                 Cambridge Crystallographic Data Centre
#                                CCDC 
#
#######################################################################
#
# If this CIF has been generated from an entry in the Cambridge 
# Structural Database, then it will include bibliographic, chemical, 
# crystal, experimental, refinement or atomic coordinate data resulting 
# from the CCDC's data processing and validation procedures.
#
#######################################################################

data_VOJMIS
_symmetry_cell_setting           monoclinic
_symmetry_space_group_name_H-M   'P 21/c'
_symmetry_Int_Tables_number      14
_space_group_name_Hall           '-P 2ybc'
loop_
_symmetry_equiv_pos_site_id
_symmetry_equiv_pos_as_xyz
1 x,y,z
2 -x,1/2+y,1/2-z
3 -x,-y,-z
4 x,1/2-y,1/2+z
_cell_length_a                   17.1162(13)
_cell_length_b                   27.675(2)
_cell_length_c                   20.4248(16)
_cell_angle_alpha                90
_cell_angle_beta                 97.399(2)
_cell_angle_gamma                90
_cell_volume                     9594.48
loop_
_atom_site_label
_atom_site_type_symbol
_atom_site_fract_x
_atom_site_fract_y
_atom_site_fract_z
Cl1 Cl 0.9646(5) -0.0440(3) 0.6436(4)
Cl2 Cl 1.2780(5) 0.2672(6) 0.8028(4)
Cl3 Cl 0.3166(8) 0.3062(8) 0.6057(11)
Cl4 Cl 1.3302(11) 0.1765(10) 0.8144(8)
Cl5 Cl 1.2395(11) 0.3204(8) 0.4848(13)
Cl6 Cl 0.3654(13) 0.4397(7) 0.4659(12)
Co1 Co 0.28501(15) 0.07691(11) 0.55061(14)
Cl7 Cl 0.3089(3) 0.1214(2) 0.6446(3)
Cl8 Cl 0.3984(3) 0.0362(2) 0.5395(3)
Cl9 Cl 0.2595(3) 0.1223(2) 0.4569(3)
Cl10 Cl 0.1789(4) 0.0299(2) 0.5603(3)
Ho1 Ho 0.54252(5) 0.21299(3) 0.71377(4)
O1 O 0.5892(9) 0.2892(5) 0.7439(6)
O2 O 0.4629(8) 0.1474(5) 0.7465(6)
O3 O 0.6568(8) 0.2233(5) 0.6594(7)
O4 O 0.6422(7) 0.1618(5) 0.7601(6)
O5 O 0.4171(8) 0.2465(6) 0.7177(7)
O6 O 0.5063(7) 0.2608(4) 0.6181(5)
O7 O 0.5297(7) 0.1542(5) 0.6328(5)
O8 O 0.5460(7) 0.2194(4) 0.8306(5)
C1 C 0.4801(12) 0.2714(7) 0.5601(8)
C2 C 0.5249(10) 0.1401(6) 0.5747(8)
N1 N 0.4852(8) 0.3146(5) 0.5313(6)
N2 N 0.4357(10) 0.2377(6) 0.5131(6)
N3 N 0.5719(8) 0.1058(5) 0.5520(7)
N4 N 0.4742(7) 0.1538(4) 0.5260(7)
C3 C 0.5038(11) 0.3572(7) 0.5706(8)
C4 C 0.4485(10) 0.3147(6) 0.4651(7)
C5 C 0.4193(10) 0.2628(6) 0.4523(8)
C6 C 0.4109(6) 0.1902(6) 0.5306(10)
C7 C 0.6225(10) 0.0747(7) 0.5956(9)
C8 C 0.5502(10) 0.0964(6) 0.4820(8)
C9 C 0.4801(10) 0.1321(6) 0.4630(7)
H1 H 0.5019 0.3492 0.6172
H2 H 0.4634 0.3818 0.5579
N5 N 0.5807(9) 0.3775(5) 0.5639(7)
H3 H 0.4038 0.3376 0.4596
N6 N 0.5008(9) 0.3232(5) 0.4148(7)
H4 H 0.3623 0.2622 0.4362
N7 N 0.4659(8) 0.2464(5) 0.4007(6)
H5 H 0.3637 0.1809 0.5009
H6 H 0.3973 0.1908 0.5758
H7 H 0.6130 0.0811 0.6411
H8 H 0.6075 0.0410 0.5854
N8 N 0.7050(8) 0.0799(5) 0.5918(7)
H9 H 0.5345 0.0624 0.4734
N9 N 0.6086(8) 0.1122(6) 0.4408(7)
H10 H 0.4310 0.1154 0.4445
N10 N 0.5105(8) 0.1643(5) 0.4149(7)
C10 C 0.5939(10) 0.4085(7) 0.5091(8)
C11 C 0.6398(11) 0.3787(6) 0.6154(9)
C12 C 0.5325(11) 0.3698(6) 0.4006(8)
C13 C 0.5065(10) 0.2834(7) 0.3779(8)
C14 C 0.4624(9) 0.1969(6) 0.3760(8)
C15 C 0.7440(10) 0.0560(7) 0.5394(8)
C16 C 0.7581(11) 0.0930(7) 0.6425(8)
C17 C 0.6752(11) 0.0829(7) 0.4272(9)
C18 C 0.5843(10) 0.1511(7) 0.4026(8)
C19 C 0.6798(10) 0.4272(7) 0.5307(8)
H11 H 0.5552 0.4352 0.5028
N11 N 0.5998(9) 0.3829(6) 0.4486(7)
N12 N 0.7008(8) 0.4063(6) 0.5953(7)
O9 O 0.6416(8) 0.3581(5) 0.6682(6)
H12 H 0.4914 0.3943 0.4008
H13 H 0.5489 0.3691 0.3563
H14 H 0.4078 0.1856 0.3726
H15 H 0.4778 0.1968 0.3314
H16 H 0.7229 0.0231 0.5298
C20 C 0.8307(10) 0.0546(6) 0.5682(8)
N13 N 0.7422(8) 0.0842(5) 0.4799(7)
N14 N 0.8331(8) 0.0812(6) 0.6293(7)
O10 O 0.7436(8) 0.1094(5) 0.6962(6)
H17 H 0.6928 0.0942 0.3861
H18 H 0.6577 0.0494 0.4205
O11 O 0.6206(8) 0.1698(5) 0.3608(6)
H19 H 0.6824 0.4629 0.5317
N15 N 0.7232(8) 0.4069(6) 0.4807(7)
C21 C 0.6761(12) 0.3838(8) 0.4310(10)
C22 C 0.7640(10) 0.4239(8) 0.6425(8)
H20 H 0.8502 0.0211 0.5756
N16 N 0.8682(8) 0.0790(5) 0.5185(7)
C23 C 0.8163(11) 0.0945(7) 0.4646(8)
C24 C 0.8997(11) 0.0789(7) 0.6808(8)
C25 C 0.7997(10) 0.4238(8) 0.4679(9)
O12 O 0.6966(8) 0.3666(7) 0.3815(7)
H21 H 0.7538 0.4150 0.6871
H22 H 0.7657 0.4592 0.6401
N17 N 0.8408(9) 0.4042(6) 0.6307(7)
C26 C 0.9510(10) 0.0722(7) 0.5129(9)
O13 O 0.8325(7) 0.1114(5) 0.4140(6)
H23 H 0.9186 0.0455 0.6852
H24 H 0.8827 0.0886 0.7228
N18 N 0.9650(9) 0.1106(6) 0.6665(7)
H25 H 0.8006 0.4592 0.4693
H26 H 0.8085 0.4138 0.4234
N19 N 0.8639(9) 0.4049(6) 0.5159(7)
C27 C 0.8853(10) 0.4260(7) 0.5809(8)
C28 C 0.8897(12) 0.3813(8) 0.6781(9)
H27 H 0.9598 0.0781 0.4671
H28 H 0.9653 0.0385 0.5235
N20 N 1.0029(9) 0.1043(5) 0.5568(7)
C29 C 1.0251(10) 0.0951(6) 0.6246(8)
C30 C 0.9904(10) 0.1486(6) 0.7069(8)
C31 C 0.9218(11) 0.3777(7) 0.4959(8)
C32 C 0.9682(10) 0.4068(6) 0.6008(8)
H29 H 0.8829 0.4617 0.5806
N21 N 0.9627(9) 0.3805(6) 0.6608(7)
O14 O 0.8676(8) 0.3622(6) 0.7280(7)
C33 C 1.0460(10) 0.1392(6) 0.5337(8)
H30 H 1.0418 0.0611 0.6331
C34 C 1.0927(10) 0.1315(6) 0.6454(8)
N22 N 1.0629(7) 0.1622(5) 0.6934(6)
O15 O 0.9531(8) 0.1651(5) 0.7480(7)
N23 N 0.9820(9) 0.3767(6) 0.5465(7)
O16 O 0.9218(9) 0.3587(6) 0.4417(6)
H31 H 1.0072 0.4333 0.6079
C35 C 1.0306(11) 0.3677(7) 0.7089(8)
N24 N 1.0997(8) 0.1543(5) 0.5820(7)
O17 O 1.0372(7) 0.1555(5) 0.4762(5)
H32 H 1.1420 0.1150 0.6638
C36 C 1.1090(10) 0.1969(6) 0.7328(8)
C37 C 1.0588(11) 0.3572(7) 0.5381(9)
H33 H 1.0702 0.3933 0.7098
H34 H 1.0136 0.3659 0.7529
N25 N 1.0665(8) 0.3218(5) 0.6943(6)
C38 C 1.1548(9) 0.1961(7) 0.5768(10)
Ho2 Ho 1.02546(4) 0.21426(3) 0.39489(4)
H35 H 1.1643 0.1868 0.7370
H36 H 1.0929 0.1968 0.7771
N26 N 1.1034(8) 0.2463(5) 0.7074(6)
H37 H 1.0594 0.3495 0.4913
H38 H 1.0986 0.3823 0.5499
N27 N 1.0806(9) 0.3148(5) 0.5766(6)
C39 C 1.1182(9) 0.3155(6) 0.6446(8)
C40 C 1.0598(9) 0.2814(6) 0.7302(8)
H39 H 1.2035 0.1896 0.6062
H40 H 1.1683 0.1967 0.5316
N28 N 1.1295(9) 0.2414(5) 0.5911(6)
O18 O 0.9804(10) 0.2916(5) 0.3660(6)
O19 O 1.1041(7) 0.1488(5) 0.3619(6)
O20 O 0.9111(8) 0.2254(6) 0.4474(7)
O21 O 0.9294(8) 0.1621(5) 0.3483(6)
O22 O 1.1542(8) 0.2439(6) 0.3931(7)
O23 O 1.0628(7) 0.2615(4) 0.4904(6)
O24 O 1.0223(7) 0.2219(4) 0.2788(5)
C41 C 1.1492(10) 0.2626(6) 0.6564(7)
C42 C 1.0876(10) 0.2718(6) 0.5481(8)
H41 H 1.1621 0.3391 0.6505
H42 H 1.2065 0.2617 0.6714
O8C O 0.5460(7) 0.2806(4) 0.3306(5)
Ho1C Ho 0.54252(5) 0.28701(3) 0.21377(4)
O24C O 1.0223(7) 0.2781(4) 0.7788(5)
Ho2C Ho 1.02546(4) 0.28574(3) 0.89489(4)
loop_
_geom_bond_atom_site_label_1
_geom_bond_atom_site_label_2
_geom_bond_site_symmetry_1
_geom_bond_site_symmetry_2
Ho1 O1 1_555 1_555
O2 Ho1 1_555 1_555
O3 Ho1 1_555 1_555
O4 Ho1 1_555 1_555
O5 Ho1 1_555 1_555
O6 Ho1 1_555 1_555
O7 Ho1 1_555 1_555
O8 Ho1 1_555 1_555
C1 O6 1_555 1_555
C2 O7 1_555 1_555
N1 C1 1_555 1_555
N2 C1 1_555 1_555
N3 C2 1_555 1_555
N4 C2 1_555 1_555
C3 N1 1_555 1_555
C4 N1 1_555 1_555
C5 N2 1_555 1_555
C6 N2 1_555 1_555
C7 N3 1_555 1_555
C8 N3 1_555 1_555
C9 N4 1_555 1_555
H1 C3 1_555 1_555
H2 C3 1_555 1_555
N5 C3 1_555 1_555
H3 C4 1_555 1_555
N6 C4 1_555 1_555
H4 C5 1_555 1_555
N7 C5 1_555 1_555
H5 C6 1_555 1_555
H6 C6 1_555 1_555
H7 C7 1_555 1_555
H8 C7 1_555 1_555
N8 C7 1_555 1_555
H9 C8 1_555 1_555
N9 C8 1_555 1_555
H10 C9 1_555 1_555
N10 C9 1_555 1_555
C10 N5 1_555 1_555
C11 N5 1_555 1_555
C12 N6 1_555 1_555
C13 N6 1_555 1_555
C14 N7 1_555 1_555
C15 N8 1_555 1_555
C16 N8 1_555 1_555
C17 N9 1_555 1_555
C18 N9 1_555 1_555
C19 C10 1_555 1_555
H11 C10 1_555 1_555
N11 C10 1_555 1_555
N12 C11 1_555 1_555
O9 C11 1_555 1_555
H12 C12 1_555 1_555
H13 C12 1_555 1_555
H14 C14 1_555 1_555
H15 C14 1_555 1_555
H16 C15 1_555 1_555
C20 C15 1_555 1_555
N13 C15 1_555 1_555
N14 C16 1_555 1_555
O10 C16 1_555 1_555
H17 C17 1_555 1_555
H18 C17 1_555 1_555
O11 C18 1_555 1_555
H19 C19 1_555 1_555
N15 C19 1_555 1_555
C21 N11 1_555 1_555
C22 N12 1_555 1_555
H20 C20 1_555 1_555
N16 C20 1_555 1_555
C23 N13 1_555 1_555
C24 N14 1_555 1_555
C25 N15 1_555 1_555
O12 C21 1_555 1_555
H21 C22 1_555 1_555
H22 C22 1_555 1_555
N17 C22 1_555 1_555
C26 N16 1_555 1_555
O13 C23 1_555 1_555
H23 C24 1_555 1_555
H24 C24 1_555 1_555
N18 C24 1_555 1_555
H25 C25 1_555 1_555
H26 C25 1_555 1_555
N19 C25 1_555 1_555
C27 N17 1_555 1_555
C28 N17 1_555 1_555
H27 C26 1_555 1_555
H28 C26 1_555 1_555
N20 C26 1_555 1_555
C29 N18 1_555 1_555
C30 N18 1_555 1_555
C31 N19 1_555 1_555
C32 C27 1_555 1_555
H29 C27 1_555 1_555
N21 C28 1_555 1_555
O14 C28 1_555 1_555
C33 N20 1_555 1_555
H30 C29 1_555 1_555
C34 C29 1_555 1_555
N22 C30 1_555 1_555
O15 C30 1_555 1_555
N23 C31 1_555 1_555
O16 C31 1_555 1_555
H31 C32 1_555 1_555
C35 N21 1_555 1_555
N24 C33 1_555 1_555
O17 C33 1_555 1_555
H32 C34 1_555 1_555
C36 N22 1_555 1_555
C37 N23 1_555 1_555
H33 C35 1_555 1_555
H34 C35 1_555 1_555
N25 C35 1_555 1_555
C38 N24 1_555 1_555
Ho2 O17 1_555 1_555
H35 C36 1_555 1_555
H36 C36 1_555 1_555
N26 C36 1_555 1_555
H37 C37 1_555 1_555
H38 C37 1_555 1_555
N27 C37 1_555 1_555
C39 N25 1_555 1_555
C40 N25 1_555 1_555
H39 C38 1_555 1_555
H40 C38 1_555 1_555
N28 C38 1_555 1_555
O18 Ho2 1_555 1_555
O19 Ho2 1_555 1_555
O20 Ho2 1_555 1_555
O21 Ho2 1_555 1_555
O22 Ho2 1_555 1_555
O23 Ho2 1_555 1_555
O24 Ho2 1_555 1_555
C41 N26 1_555 1_555
C42 N27 1_555 1_555
H41 C39 1_555 1_555
H42 C41 1_555 1_555
Co1 Cl7 1_555 1_555
Cl8 Co1 1_555 1_555
Cl9 Co1 1_555 1_555
Cl10 Co1 1_555 1_555
O8C C13 1_555 1_555
Ho1C O8C 1_555 1_555
O24C C40 1_555 1_555
Ho2C O24C 1_555 1_555
N4 C6 1_555 1_555
C4 C5 1_555 1_555
C8 C9 1_555 1_555
N7 C13 1_555 1_555
N10 C14 1_555 1_555
N10 C18 1_555 1_555
C12 N11 1_555 1_555
C17 N13 1_555 1_555
C19 N12 1_555 1_555
C20 N14 1_555 1_555
N15 C21 1_555 1_555
N16 C23 1_555 1_555
N19 C27 1_555 1_555
N20 C29 1_555 1_555
C32 N21 1_555 1_555
C32 N23 1_555 1_555
C34 N22 1_555 1_555
C34 N24 1_555 1_555
N26 C40 1_555 1_555
N27 C39 1_555 1_555
C39 C41 1_555 1_555
N28 C41 1_555 1_555
N28 C42 1_555 1_555
O23 C42 1_555 1_555

#END
