
#######################################################################
#
#                 Cambridge Crystallographic Data Centre
#                                CCDC 
#
#######################################################################
#
# If this CIF has been generated from an entry in the Cambridge 
# Structural Database, then it will include bibliographic, chemical, 
# crystal, experimental, refinement or atomic coordinate data resulting 
# from the CCDC's data processing and validation procedures.
#
#######################################################################

data_VOJMOY
_symmetry_cell_setting           monoclinic
_symmetry_space_group_name_H-M   'P 21/c'
_symmetry_Int_Tables_number      14
_space_group_name_Hall           '-P 2ybc'
loop_
_symmetry_equiv_pos_site_id
_symmetry_equiv_pos_as_xyz
1 x,y,z
2 -x,1/2+y,1/2-z
3 -x,-y,-z
4 x,1/2-y,1/2+z
_cell_length_a                   17.084(2)
_cell_length_b                   27.493(4)
_cell_length_c                   20.428(3)
_cell_angle_alpha                90
_cell_angle_beta                 99.261(4)
_cell_angle_gamma                90
_cell_volume                     9469.77
loop_
_atom_site_label
_atom_site_type_symbol
_atom_site_fract_x
_atom_site_fract_y
_atom_site_fract_z
Cl2 Cl 0.1835(2) 0.30958(15) 0.70687(17)
Cl3 Cl -0.8106(4) 0.3065(4) 0.3932(5)
Cl4 Cl 0.2446(5) 0.2040(3) 0.6780(5)
Cl5 Cl -0.1382(6) 0.5584(3) 0.4512(5)
Cl6 Cl -0.09636(15) -0.04195(9) 0.54316(14)
Cl7 Cl -0.33408(16) -0.03803(11) 0.54968(16)
Cl8 Cl -0.1974(2) -0.10642(14) 0.64731(18)
Cl9 Cl -0.2379(2) -0.10715(14) 0.44420(19)
Cu1 Cu -0.21797(7) -0.07502(5) 0.54649(6)
O1 O -0.0914(5) 0.2111(2) 0.7634(3)
O2 O -0.1420(4) 0.3389(3) 0.7459(3)
O3 O 0.0364(4) 0.3534(2) 0.7630(3)
O4 O 0.0828(4) 0.2548(3) 0.7896(4)
O5 O -0.1573(4) 0.2774(3) 0.8484(3)
O6 O -0.4788(5) 0.2080(2) 0.1283(3)
O7 O -0.4226(4) 0.3386(2) 0.1472(3)
O8 O -0.5985(4) 0.3547(2) 0.1300(3)
O9 O -0.6509(4) 0.2607(3) 0.1000(3)
O10 O -0.4084(5) 0.2750(3) 0.0454(4)
Dy1 Dy -0.04343(3) 0.287577(15) 0.794643(19)
Dy2 Dy -0.52259(3) 0.286876(15) 0.097913(19)
C1 C -0.0090(5) 0.2821(3) 0.6311(4)
C2 C 0.0810(5) 0.2620(3) 0.5588(4)
H1 H 0.1385 0.2596 0.5760
C3 C 0.0549(5) 0.3150(3) 0.5472(4)
H2 H 0.1006 0.3376 0.5545
C4 C 0.0215(5) 0.2703(3) 0.4472(4)
C5 C -0.0302(5) 0.3702(3) 0.6063(4)
H3 H 0.0119 0.3945 0.6069
H4 H -0.0454 0.3697 0.6506
C6 C -0.0029(6) 0.3592(3) 0.4376(4)
H5 H 0.0376 0.3840 0.4517
H6 H -0.0019 0.3520 0.3907
C7 C -0.1697(6) 0.3855(3) 0.5736(4)
C8 C -0.0925(6) 0.4094(3) 0.4972(4)
H7 H -0.0530 0.4360 0.5039
C9 C -0.1757(5) 0.4295(3) 0.4747(4)
H8 H -0.1768 0.4655 0.4741
C10 C -0.1402(6) 0.3802(3) 0.3903(5)
C11 C -0.2982(5) 0.4276(4) 0.5309(4)
H9 H -0.2976 0.4631 0.5270
H10 H -0.3081 0.4196 0.5756
C12 C -0.2640(6) 0.4271(4) 0.3596(4)
H11 H -0.2650 0.4627 0.3630
H12 H -0.2545 0.4188 0.3149
C13 C -0.4234(5) 0.3793(3) 0.4995(4)
C14 C -0.3855(5) 0.4285(3) 0.4162(4)
H13 H -0.3843 0.4645 0.4164
C15 C -0.4687(6) 0.4092(3) 0.3937(4)
H14 H -0.5088 0.4354 0.3860
C16 C -0.3861(5) 0.3846(3) 0.3193(4)
C17 C -0.5580(5) 0.3581(3) 0.4533(4)
H15 H -0.5971 0.3836 0.4391
H16 H -0.5600 0.3511 0.5000
C18 C -0.5296(6) 0.3686(3) 0.2855(4)
H17 H -0.5704 0.3937 0.2849
H18 H -0.5144 0.3676 0.2413
C19 C -0.5862(5) 0.2720(3) 0.4440(4)
C20 C -0.6173(6) 0.3152(3) 0.3468(4)
H19 H -0.6623 0.3383 0.3393
C21 C -0.6449(5) 0.2627(3) 0.3324(4)
H20 H -0.7024 0.2616 0.3151
C22 C -0.5554(5) 0.2818(3) 0.2628(4)
C23 C -0.6545(6) 0.1935(3) 0.4128(5)
H21 H -0.7040 0.1859 0.3831
H22 H -0.6662 0.1942 0.4582
C24 C -0.6049(5) 0.1972(3) 0.2552(4)
H23 H -0.5862 0.1980 0.2124
H24 H -0.6607 0.1872 0.2472
C25 C -0.5452(5) 0.1388(3) 0.4578(4)
C26 C -0.5907(5) 0.1298(3) 0.3443(4)
H25 H -0.6405 0.1136 0.3243
C27 C -0.5231(5) 0.0941(3) 0.3669(4)
H26 H -0.5406 0.0600 0.3584
C28 C -0.4871(6) 0.1455(3) 0.2867(4)
C29 C -0.4501(5) 0.0698(3) 0.4813(4)
H27 H -0.4601 0.0752 0.5266
H28 H -0.4659 0.0363 0.4689
C30 C -0.3971(4) 0.0756(3) 0.3166(4)
H29 H -0.4165 0.0420 0.3126
H30 H -0.3795 0.0844 0.2748
C31 C -0.3138(6) 0.0896(3) 0.5342(4)
C32 C -0.3267(6) 0.0500(3) 0.4327(4)
H31 H -0.3467 0.0164 0.4246
C33 C -0.2403(5) 0.0507(3) 0.4616(4)
H32 H -0.2191 0.0174 0.4705
C34 C -0.2555(5) 0.0877(3) 0.3587(4)
C35 C -0.1729(5) 0.0770(3) 0.5767(4)
H33 H -0.1535 0.0435 0.5820
H34 H -0.1913 0.0865 0.6179
C36 C -0.1180(5) 0.0711(3) 0.4108(4)
H35 H -0.1008 0.0378 0.4228
H36 H -0.1078 0.0773 0.3657
C37 C -0.0824(5) 0.1467(3) 0.6070(4)
C38 C -0.0467(5) 0.0940(3) 0.5276(4)
H37 H -0.0289 0.0600 0.5363
C39 C 0.0199(5) 0.1315(3) 0.5478(4)
H38 H 0.0698 0.1156 0.5684
C40 C -0.0262(5) 0.1393(3) 0.4339(4)
C41 C 0.0377(5) 0.1970(3) 0.6357(4)
H39 H 0.0215 0.1978 0.6796
H40 H 0.0930 0.1861 0.6415
C42 C 0.0865(5) 0.1928(3) 0.4785(4)
H41 H 0.1368 0.1855 0.5071
H42 H 0.0961 0.1933 0.4324
N1 N 0.0329(4) 0.2457(2) 0.6083(3)
N2 N 0.0014(4) 0.3233(3) 0.5936(3)
N3 N 0.0600(4) 0.2365(3) 0.4945(3)
N4 N 0.0170(5) 0.3141(3) 0.4776(4)
N5 N -0.0977(4) 0.3853(3) 0.5592(3)
N6 N -0.2217(5) 0.4090(3) 0.5229(4)
N7 N -0.0781(5) 0.3779(3) 0.4444(3)
N8 N -0.1983(5) 0.4084(3) 0.4080(4)
N9 N -0.3621(4) 0.4085(3) 0.4831(3)
N10 N -0.4810(4) 0.3767(3) 0.4483(3)
N11 N -0.3397(4) 0.4084(3) 0.3685(3)
N12 N -0.4608(4) 0.3826(3) 0.3332(3)
N13 N -0.5811(4) 0.3144(2) 0.4145(3)
N14 N -0.6279(4) 0.2405(3) 0.3966(4)
N15 N -0.5636(4) 0.3222(3) 0.2984(3)
N16 N -0.5994(4) 0.2453(3) 0.2833(3)
N17 N -0.5968(5) 0.1546(2) 0.4077(3)
N18 N -0.4995(4) 0.1030(3) 0.4370(3)
N19 N -0.5585(4) 0.1608(3) 0.2982(3)
N20 N -0.4629(4) 0.1078(3) 0.3267(3)
N21 N -0.3660(4) 0.0749(3) 0.4805(3)
N22 N -0.2384(4) 0.0788(3) 0.5233(3)
N23 N -0.3308(4) 0.0781(3) 0.3692(3)
N24 N -0.2028(5) 0.0752(3) 0.4118(3)
N25 N -0.1071(4) 0.1089(3) 0.5664(3)
N26 N -0.0117(5) 0.1617(3) 0.5944(3)
N27 N -0.0723(4) 0.1045(3) 0.4556(3)
N28 N 0.0284(4) 0.1548(3) 0.4861(3)
O11 O -0.0470(4) 0.2798(2) 0.6759(3)
O12 O -0.1945(4) 0.3687(3) 0.6222(3)
O13 O -0.4193(4) 0.3601(3) 0.5551(3)
O14 O -0.5638(4) 0.2618(2) 0.5033(3)
O15 O -0.5349(4) 0.1540(2) 0.5159(3)
O16 O -0.3298(4) 0.1069(3) 0.5851(3)
O17 O -0.1206(4) 0.1651(2) 0.6468(3)
O18 O -0.0015(4) 0.2610(2) 0.3902(3)
O19 O -0.1404(4) 0.3604(2) 0.3367(3)
O20 O -0.3639(4) 0.3662(3) 0.2701(3)
O21 O -0.5165(4) 0.2780(2) 0.2160(3)
O22 O -0.4484(4) 0.1633(2) 0.2460(3)
O23 O -0.2410(4) 0.1050(3) 0.3047(3)
O24 O -0.0296(4) 0.1524(2) 0.3763(3)
Dy1C Dy -0.04343(3) 0.212423(15) 0.294643(19)
Dy2C Dy -0.52259(3) 0.213124(15) 0.597913(19)
O14C O -0.5638(4) 0.2382(2) 0.0033(3)
O15C O -0.5349(4) 0.3460(2) 0.0159(3)
O18C O -0.0015(4) 0.2390(2) 0.8902(3)
O24C O -0.0296(4) 0.3476(2) 0.8763(3)
Cl1 Cl -0.5223(2) 0.45682(11) 0.14663(16)
loop_
_geom_bond_atom_site_label_1
_geom_bond_atom_site_label_2
_geom_bond_site_symmetry_1
_geom_bond_site_symmetry_2
Cl6 Cu1 1_555 1_555
Cl7 Cu1 1_555 1_555
Cl8 Cu1 1_555 1_555
Cl9 Cu1 1_555 1_555
O1 Dy1 1_555 1_555
O2 Dy1 1_555 1_555
O3 Dy1 1_555 1_555
O4 Dy1 1_555 1_555
O5 Dy1 1_555 1_555
O6 Dy2 1_555 1_555
O7 Dy2 1_555 1_555
O8 Dy2 1_555 1_555
O9 Dy2 1_555 1_555
O10 Dy2 1_555 1_555
Dy1 O11 1_555 1_555
Dy2 O21 1_555 1_555
C1 N1 1_555 1_555
C2 H1 1_555 1_555
C3 C2 1_555 1_555
H2 C3 1_555 1_555
C4 N3 1_555 1_555
C5 H3 1_555 1_555
H4 C5 1_555 1_555
C6 H5 1_555 1_555
H6 C6 1_555 1_555
C7 N5 1_555 1_555
C8 H7 1_555 1_555
C9 C8 1_555 1_555
H8 C9 1_555 1_555
C10 N7 1_555 1_555
C11 H9 1_555 1_555
H10 C11 1_555 1_555
C12 H11 1_555 1_555
H12 C12 1_555 1_555
C13 N9 1_555 1_555
C14 H13 1_555 1_555
C15 C14 1_555 1_555
H14 C15 1_555 1_555
C16 N11 1_555 1_555
C17 H15 1_555 1_555
H16 C17 1_555 1_555
C18 H17 1_555 1_555
H18 C18 1_555 1_555
C19 N13 1_555 1_555
C20 H19 1_555 1_555
C21 C20 1_555 1_555
H20 C21 1_555 1_555
C22 N15 1_555 1_555
C23 H21 1_555 1_555
H22 C23 1_555 1_555
C24 H23 1_555 1_555
H24 C24 1_555 1_555
C25 N17 1_555 1_555
C26 H25 1_555 1_555
C27 C26 1_555 1_555
H26 C27 1_555 1_555
C28 N19 1_555 1_555
C29 H27 1_555 1_555
H28 C29 1_555 1_555
C30 H29 1_555 1_555
H30 C30 1_555 1_555
C31 N21 1_555 1_555
C32 H31 1_555 1_555
C33 C32 1_555 1_555
H32 C33 1_555 1_555
C34 N23 1_555 1_555
C35 H33 1_555 1_555
H34 C35 1_555 1_555
C36 H35 1_555 1_555
H36 C36 1_555 1_555
C37 N25 1_555 1_555
C38 H37 1_555 1_555
C39 C38 1_555 1_555
H38 C39 1_555 1_555
C40 N27 1_555 1_555
C41 H39 1_555 1_555
H40 C41 1_555 1_555
C42 H41 1_555 1_555
H42 C42 1_555 1_555
N1 C2 1_555 1_555
N2 C1 1_555 1_555
N3 C2 1_555 1_555
N4 C3 1_555 1_555
N5 C5 1_555 1_555
N6 C7 1_555 1_555
N7 C6 1_555 1_555
N8 C9 1_555 1_555
N9 C11 1_555 1_555
N10 C13 1_555 1_555
N11 C12 1_555 1_555
N12 C15 1_555 1_555
N13 C17 1_555 1_555
N14 C19 1_555 1_555
N15 C18 1_555 1_555
N16 C21 1_555 1_555
N17 C23 1_555 1_555
N18 C25 1_555 1_555
N19 C24 1_555 1_555
N20 C27 1_555 1_555
N21 C29 1_555 1_555
N22 C31 1_555 1_555
N23 C30 1_555 1_555
N24 C33 1_555 1_555
N25 C35 1_555 1_555
N26 C37 1_555 1_555
N27 C36 1_555 1_555
N28 C39 1_555 1_555
O11 C1 1_555 1_555
O12 C7 1_555 1_555
O13 C13 1_555 1_555
O14 C19 1_555 1_555
O15 C25 1_555 1_555
O16 C31 1_555 1_555
O17 C37 1_555 1_555
O18 C4 1_555 1_555
O19 C10 1_555 1_555
O20 C16 1_555 1_555
O21 C22 1_555 1_555
O22 C28 1_555 1_555
O23 C34 1_555 1_555
O24 C40 1_555 1_555
Dy1C O18 1_555 1_555
Dy2C O14 1_555 1_555
O14C Dy2 1_555 1_555
O15C Dy2 1_555 1_555
O18C Dy1 1_555 1_555
O24C Dy1 1_555 1_555
C3 N2 1_555 1_555
C4 N4 1_555 1_555
C5 N2 1_555 1_555
C6 N4 1_555 1_555
C8 N5 1_555 1_555
C8 N7 1_555 1_555
C9 N6 1_555 1_555
C10 N8 1_555 1_555
C11 N6 1_555 1_555
C12 N8 1_555 1_555
C14 N9 1_555 1_555
C14 N11 1_555 1_555
C15 N10 1_555 1_555
C16 N12 1_555 1_555
C17 N10 1_555 1_555
C18 N12 1_555 1_555
C20 N13 1_555 1_555
C20 N15 1_555 1_555
C21 N14 1_555 1_555
C22 N16 1_555 1_555
C23 N14 1_555 1_555
C24 N16 1_555 1_555
C26 N17 1_555 1_555
C26 N19 1_555 1_555
C27 N18 1_555 1_555
C28 N20 1_555 1_555
C29 N18 1_555 1_555
C30 N20 1_555 1_555
C32 N21 1_555 1_555
C32 N23 1_555 1_555
C33 N22 1_555 1_555
C34 N24 1_555 1_555
C35 N22 1_555 1_555
C36 N24 1_555 1_555
C38 N25 1_555 1_555
C38 N27 1_555 1_555
C39 N26 1_555 1_555
C40 N28 1_555 1_555
C41 N1 1_555 1_555
C41 N26 1_555 1_555
C42 N3 1_555 1_555
C42 N28 1_555 1_555
O15 Dy2C 1_555 1_555
O24 Dy1C 1_555 1_555

#END
