
#######################################################################
#
#                 Cambridge Crystallographic Data Centre
#                                CCDC 
#
#######################################################################
#
# If this CIF has been generated from an entry in the Cambridge 
# Structural Database, then it will include bibliographic, chemical, 
# crystal, experimental, refinement or atomic coordinate data resulting 
# from the CCDC's data processing and validation procedures.
#
#######################################################################

data_VOJMUE
_symmetry_cell_setting           triclinic
_symmetry_space_group_name_H-M   'P -1'
_symmetry_Int_Tables_number      2
_space_group_name_Hall           '-P 1'
loop_
_symmetry_equiv_pos_site_id
_symmetry_equiv_pos_as_xyz
1 x,y,z
2 -x,-y,-z
_cell_length_a                   17.085(4)
_cell_length_b                   17.228(4)
_cell_length_c                   20.219(6)
_cell_angle_alpha                97.325(10)
_cell_angle_beta                 113.561(7)
_cell_angle_gamma                111.615(7)
_cell_volume                     4800.73
loop_
_atom_site_label
_atom_site_type_symbol
_atom_site_fract_x
_atom_site_fract_y
_atom_site_fract_z
Cl3 Cl 0.0000 0.5000 0.5000
Cl4 Cl 0.7700(6) 0.3626(10) 0.2572(6)
Cl5 Cl 0.0863(16) 0.8022(18) 0.3637(17)
Cl6 Cl 0.4835(13) 0.051(2) -0.0305(9)
Cl7 Cl 0.2263(14) 0.177(2) -0.2247(18)
Cl8 Cl 0.7334(9) 0.2624(12) 0.1360(16)
Cl9 Cl 0.8616(3) 0.0053(3) 0.4320(3)
Cl10 Cl 0.6725(3) 0.0021(3) 0.2579(2)
Cl11 Cl 0.8114(3) 0.1904(3) 0.4458(3)
Cl12 Cl 0.6194(3) -0.0243(4) 0.4141(3)
Co1 Co 0.73870(16) 0.04156(16) 0.38673(13)
O1 O 0.4802(6) 0.3219(7) 0.3748(5)
O2 O 0.6385(7) 0.4874(7) 0.4081(6)
O3 O 0.5919(6) 0.3478(6) 0.5250(5)
O4 O 0.7543(6) 0.3166(7) 0.5221(5)
O5 O 0.7799(7) 0.4036(7) 0.4177(5)
O6 O 0.1289(8) -0.1128(8) -0.0294(5)
O7 O -0.0177(6) -0.1143(7) -0.1679(6)
O8 O 0.2706(6) 0.0652(6) -0.1369(5)
O9 O 0.1058(7) 0.0631(7) -0.1127(5)
O10 O 0.2799(6) -0.0812(7) -0.0891(6)
Er1 Er 0.64607(4) 0.36334(4) 0.43752(3)
Er2 Er 0.15234(4) -0.04784(4) -0.11946(3)
C1 C 0.5207(8) 0.1325(9) 0.3568(7)
C2 C 0.4048(8) -0.0114(8) 0.2994(6)
H1 H 0.4098 -0.0615 0.3166
C3 C 0.4535(9) 0.0123(9) 0.2499(7)
H2 H 0.4827 -0.0262 0.2435
C4 C 0.2943(9) -0.0258(9) 0.1780(7)
C5 C 0.5807(11) 0.1563(9) 0.2496(18)
H3 H 0.6464 0.1990 0.2887
H4 H 0.5865 0.1119 0.2190
C6 C 0.3894(10) 0.0073(9) 0.1119(7)
H5 H 0.4396 -0.0093 0.1154
H6 H 0.3291 -0.0370 0.0673
C7 C 0.5619(8) 0.2800(8) 0.2401(6)
C8 C 0.5123(8) 0.1610(8) 0.1382(7)
H7 H 0.5509 0.1433 0.1199
C9 C 0.5001(8) 0.2368(8) 0.1082(6)
H8 H 0.5409 0.2583 0.0843
C10 C 0.3511(8) 0.1105(9) 0.0473(6)
C11 C 0.5529(9) 0.3946(9) 0.1822(8)
H9 H 0.5833 0.4116 0.1507
H10 H 0.6000 0.4319 0.2351
C12 C 0.3587(10) 0.2416(9) 0.0018(7)
H11 H 0.4057 0.2750 -0.0129
H12 H 0.3002 0.1982 -0.0446
C13 C 0.4612(11) 0.4635(9) 0.2090(8)
C14 C 0.4063(8) 0.3952(8) 0.0814(6)
H13 H 0.4401 0.4208 0.0535
C15 C 0.3425(9) 0.4375(9) 0.0863(7)
H14 H 0.3427 0.4806 0.0583
C16 C 0.2453(10) 0.2867(9) 0.0234(7)
C17 C 0.3718(10) 0.5469(11) 0.2017(7)
H15 H 0.3739 0.5890 0.1733
H16 H 0.4245 0.5787 0.2541
C18 C 0.1594(10) 0.3720(9) 0.0255(7)
H17 H 0.1633 0.4158 -0.0012
H18 H 0.1044 0.3155 -0.0106
C19 C 0.2800(10) 0.5363(9) 0.2708(7)
C20 C 0.1864(10) 0.4894(9) 0.1347(8)
H19 H 0.1905 0.5316 0.1057
C21 C 0.1231(9) 0.4865(9) 0.1732(7)
H20 H 0.0930 0.5256 0.1602
C22 C 0.0626(9) 0.3447(9) 0.0909(6)
C23 C 0.1650(10) 0.5473(10) 0.3103(8)
H21 H 0.1256 0.5766 0.2899
H22 H 0.2255 0.5913 0.3550
C24 C -0.0299(9) 0.3648(10) 0.1491(6)
H23 H -0.0782 0.3092 0.1076
H24 H -0.0552 0.4074 0.1420
C25 C 0.1539(9) 0.4666(8) 0.4014(7)
C26 C 0.0121(9) 0.4215(9) 0.2915(6)
H25 H -0.0241 0.4560 0.2795
C27 C -0.0107(8) 0.3680(7) 0.3420(6)
H26 H -0.0570 0.3753 0.3566
C28 C -0.0616(8) 0.2661(8) 0.2261(6)
C29 C 0.1043(9) 0.3697(8) 0.4700(6)
H27 H 0.0529 0.3627 0.4826
H28 H 0.1652 0.4144 0.5140
C30 C -0.0854(6) 0.2334(9) 0.3298(5)
H29 H -0.1557 0.1995 0.2994
H30 H -0.0705 0.2756 0.3758
C31 C 0.1928(10) 0.2799(10) 0.4807(7)
C32 C 0.0263(9) 0.2010(9) 0.4323(7)
H31 H -0.0037 0.1998 0.4653
C33 C 0.0748(9) 0.1365(8) 0.4426(6)
H32 H 0.0629 0.1037 0.4772
C34 C -0.0371(9) 0.1001(9) 0.3163(7)
C35 C 0.2514(10) 0.1740(8) 0.5094(6)
H33 H 0.2368 0.1390 0.5414
H34 H 0.3107 0.2288 0.5430
C36 C 0.0310(9) -0.0032(9) 0.3440(8)
H35 H 0.0181 -0.0370 0.3772
H36 H -0.0205 -0.0378 0.2916
C37 C 0.3578(9) 0.1525(9) 0.4626(6)
C38 C 0.2056(8) 0.0271(8) 0.4157(7)
H37 H 0.1917 -0.0032 0.4511
C39 C 0.2631(9) -0.0004(10) 0.3905(7)
H38 H 0.2721 -0.0484 0.4094
C40 C 0.1188(9) -0.0295(10) 0.2828(7)
C41 C 0.4410(9) 0.0738(10) 0.4312(6)
H39 H 0.4404 0.0217 0.4461
H40 H 0.4972 0.1258 0.4728
C42 C 0.2219(9) -0.0849(10) 0.2560(7)
H41 H 0.1633 -0.1145 0.2063
H42 H 0.2330 -0.1304 0.2769
N1 N 0.4518(7) 0.0684(8) 0.3615(6)
N2 N 0.5272(7) 0.1045(7) 0.2959(5)
N3 N 0.3035(7) -0.0329(8) 0.2458(6)
N4 N 0.3785(7) 0.0019(7) 0.1797(5)
N5 N 0.5592(8) 0.1852(11) 0.2187(5)
N6 N 0.5300(7) 0.3052(7) 0.1770(5)
N7 N 0.4125(7) 0.0882(7) 0.0985(5)
N8 N 0.3986(8) 0.1945(8) 0.0526(5)
N9 N 0.4725(8) 0.4114(7) 0.1589(6)
N10 N 0.3865(8) 0.4792(7) 0.1681(6)
N11 N 0.3360(7) 0.3022(7) 0.0400(6)
N12 N 0.2497(8) 0.3628(8) 0.0531(6)
N13 N 0.2793(7) 0.5123(7) 0.2023(6)
N14 N 0.1862(8) 0.5145(8) 0.2526(6)
N15 N 0.1452(8) 0.3994(8) 0.0892(6)
N16 N 0.0505(7) 0.3943(8) 0.1423(6)
N17 N 0.1143(7) 0.4773(7) 0.3340(6)
N18 N 0.0883(7) 0.4002(6) 0.4074(5)
N19 N -0.0187(7) 0.3499(6) 0.2215(5)
N20 N -0.0492(6) 0.2816(5) 0.2862(5)
N21 N 0.1081(7) 0.2864(7) 0.4582(5)
N22 N 0.1751(7) 0.1952(7) 0.4730(6)
N23 N -0.0460(8) 0.1734(6) 0.3522(6)
N24 N 0.0281(8) 0.0786(8) 0.3653(6)
N25 N 0.2689(8) 0.1233(6) 0.4550(6)
N26 N 0.3553(7) 0.0791(7) 0.4220(6)
N27 N 0.1180(8) 0.0077(7) 0.3487(6)
N28 N 0.2081(7) -0.0304(7) 0.3066(5)
O11 O 0.5740(6) 0.2115(6) 0.4036(5)
O12 O 0.5930(6) 0.3269(6) 0.3051(5)
O13 O 0.5152(7) 0.4975(7) 0.2794(5)
O14 O 0.3496(7) 0.5629(7) 0.3354(5)
O15 O 0.2401(6) 0.5101(6) 0.4510(4)
O16 O 0.2726(7) 0.3445(7) 0.5080(6)
O17 O 0.4258(7) 0.2223(7) 0.5003(6)
O18 O 0.2150(6) -0.0451(7) 0.1215(5)
O19 O 0.2653(5) 0.0602(5) 0.0028(4)
O20 O 0.1718(7) 0.2141(8) -0.0134(6)
O21 O 0.0074(8) 0.2698(7) 0.0526(6)
O22 O -0.0898(6) 0.2024(7) 0.1774(5)
O23 O -0.0891(6) 0.0536(7) 0.2460(5)
O24 O 0.0534(6) -0.0613(7) 0.2184(5)
Er1A Er 0.35393(4) 0.63666(4) 0.56248(3)
Er2A Er -0.15234(4) 0.04784(4) 0.11946(3)
O15A O 0.7599(6) 0.4899(6) 0.5490(4)
O22A O 0.0898(6) -0.2024(7) -0.1774(5)
O23A O 0.0891(6) -0.0536(7) -0.2460(5)
Cl1 Cl 0.3196(4) -0.1939(4) 0.3896(3)
Cl2? Cl 0.1924(11) -0.2467(11) 0.4052(10)
loop_
_geom_bond_atom_site_label_1
_geom_bond_atom_site_label_2
_geom_bond_site_symmetry_1
_geom_bond_site_symmetry_2
Cl9 Co1 1_555 1_555
Cl10 Co1 1_555 1_555
Cl11 Co1 1_555 1_555
Cl12 Co1 1_555 1_555
O1 Er1 1_555 1_555
O2 Er1 1_555 1_555
O3 Er1 1_555 1_555
O4 Er1 1_555 1_555
O5 Er1 1_555 1_555
O6 Er2 1_555 1_555
O7 Er2 1_555 1_555
O8 Er2 1_555 1_555
O9 Er2 1_555 1_555
O10 Er2 1_555 1_555
Er1 O11 1_555 1_555
Er2 O19 1_555 1_555
C1 N1 1_555 1_555
C2 H1 1_555 1_555
C3 C2 1_555 1_555
H2 C3 1_555 1_555
C4 N3 1_555 1_555
C5 H3 1_555 1_555
H4 C5 1_555 1_555
C6 H5 1_555 1_555
H6 C6 1_555 1_555
C7 N5 1_555 1_555
C8 H7 1_555 1_555
C9 C8 1_555 1_555
H8 C9 1_555 1_555
C10 N7 1_555 1_555
C11 H9 1_555 1_555
H10 C11 1_555 1_555
C12 H11 1_555 1_555
H12 C12 1_555 1_555
C13 N9 1_555 1_555
C14 H13 1_555 1_555
C15 C14 1_555 1_555
H14 C15 1_555 1_555
C16 N11 1_555 1_555
C17 H15 1_555 1_555
H16 C17 1_555 1_555
C18 H17 1_555 1_555
H18 C18 1_555 1_555
C19 N13 1_555 1_555
C20 H19 1_555 1_555
C21 C20 1_555 1_555
H20 C21 1_555 1_555
C22 N15 1_555 1_555
C23 H21 1_555 1_555
H22 C23 1_555 1_555
C24 H23 1_555 1_555
H24 C24 1_555 1_555
C25 N17 1_555 1_555
C26 H25 1_555 1_555
C27 C26 1_555 1_555
H26 C27 1_555 1_555
C28 N19 1_555 1_555
C29 H27 1_555 1_555
H28 C29 1_555 1_555
C30 H29 1_555 1_555
H30 C30 1_555 1_555
C31 N21 1_555 1_555
C32 H31 1_555 1_555
C33 C32 1_555 1_555
H32 C33 1_555 1_555
C34 N23 1_555 1_555
C35 H33 1_555 1_555
H34 C35 1_555 1_555
C36 H35 1_555 1_555
H36 C36 1_555 1_555
C37 N25 1_555 1_555
C38 H37 1_555 1_555
C39 C38 1_555 1_555
H38 C39 1_555 1_555
C40 N27 1_555 1_555
C41 H39 1_555 1_555
H40 C41 1_555 1_555
C42 H41 1_555 1_555
H42 C42 1_555 1_555
N1 C2 1_555 1_555
N2 C1 1_555 1_555
N3 C2 1_555 1_555
N4 C3 1_555 1_555
N5 C5 1_555 1_555
N6 C7 1_555 1_555
N7 C6 1_555 1_555
N8 C9 1_555 1_555
N9 C11 1_555 1_555
N10 C13 1_555 1_555
N11 C12 1_555 1_555
N12 C15 1_555 1_555
N13 C17 1_555 1_555
N14 C19 1_555 1_555
N15 C18 1_555 1_555
N16 C21 1_555 1_555
N17 C23 1_555 1_555
N18 C25 1_555 1_555
N19 C24 1_555 1_555
N20 C27 1_555 1_555
N21 C29 1_555 1_555
N22 C31 1_555 1_555
N23 C30 1_555 1_555
N24 C33 1_555 1_555
N25 C35 1_555 1_555
N26 C37 1_555 1_555
N27 C36 1_555 1_555
N28 C39 1_555 1_555
O11 C1 1_555 1_555
O12 Er1 1_555 1_555
O13 C13 1_555 1_555
O14 C19 1_555 1_555
O15 C25 1_555 1_555
O16 C31 1_555 1_555
O17 C37 1_555 1_555
O18 C4 1_555 1_555
O19 C10 1_555 1_555
O20 C16 1_555 1_555
O21 C22 1_555 1_555
O22 C28 1_555 1_555
O23 C34 1_555 1_555
O24 C40 1_555 1_555
Er1A O15 1_555 1_555
Er2A O22 1_555 1_555
O15A Er1 1_555 1_555
O22A Er2 1_555 1_555
O23A Er2 1_555 1_555
C3 N2 1_555 1_555
C4 N4 1_555 1_555
C5 N2 1_555 1_555
C6 N4 1_555 1_555
C7 O12 1_555 1_555
C8 N5 1_555 1_555
C8 N7 1_555 1_555
C9 N6 1_555 1_555
C10 N8 1_555 1_555
C11 N6 1_555 1_555
C12 N8 1_555 1_555
C14 N9 1_555 1_555
C14 N11 1_555 1_555
C15 N10 1_555 1_555
C16 N12 1_555 1_555
C17 N10 1_555 1_555
C18 N12 1_555 1_555
C20 N13 1_555 1_555
C20 N15 1_555 1_555
C21 N14 1_555 1_555
C22 N16 1_555 1_555
C23 N14 1_555 1_555
C24 N16 1_555 1_555
C26 N17 1_555 1_555
C26 N19 1_555 1_555
C27 N18 1_555 1_555
C28 N20 1_555 1_555
C29 N18 1_555 1_555
C30 N20 1_555 1_555
C32 N21 1_555 1_555
C32 N23 1_555 1_555
C33 N22 1_555 1_555
C34 N24 1_555 1_555
C35 N22 1_555 1_555
C36 N24 1_555 1_555
C38 N25 1_555 1_555
C38 N27 1_555 1_555
C39 N26 1_555 1_555
C40 N28 1_555 1_555
C41 N1 1_555 1_555
C41 N26 1_555 1_555
C42 N3 1_555 1_555
C42 N28 1_555 1_555
O23 Er2A 1_555 1_555

#END
