
#######################################################################
#
#                 Cambridge Crystallographic Data Centre
#                                CCDC 
#
#######################################################################
#
# If this CIF has been generated from an entry in the Cambridge 
# Structural Database, then it will include bibliographic, chemical, 
# crystal, experimental, refinement or atomic coordinate data resulting 
# from the CCDC's data processing and validation procedures.
#
#######################################################################

data_VOJNIT
_symmetry_cell_setting           monoclinic
_symmetry_space_group_name_H-M   'P 21/c'
_symmetry_Int_Tables_number      14
_space_group_name_Hall           '-P 2ybc'
loop_
_symmetry_equiv_pos_site_id
_symmetry_equiv_pos_as_xyz
1 x,y,z
2 -x,1/2+y,1/2-z
3 -x,-y,-z
4 x,1/2-y,1/2+z
_cell_length_a                   17.0739(11)
_cell_length_b                   27.7218(18)
_cell_length_c                   20.6280(14)
_cell_angle_alpha                90
_cell_angle_beta                 97.558(2)
_cell_angle_gamma                90
_cell_volume                     9678.81
loop_
_atom_site_label
_atom_site_type_symbol
_atom_site_fract_x
_atom_site_fract_y
_atom_site_fract_z
Cl2 Cl 0.22133(10) 0.23284(9) 0.69814(8)
Cl3 Cl 1.18649(11) 0.19876(9) 0.90200(11)
Cl4 Cl 1.1612(3) 0.3299(2) 0.6791(2)
Cl5 Cl 0.2736(3) 0.1801(2) 1.0335(3)
Cl6 Cl 1.19106(8) 0.37825(4) 0.85735(6)
Cl7 Cl 1.10159(7) 0.46311(4) 0.96165(7)
Cl8 Cl 1.32058(8) 0.47024(4) 0.94133(7)
Cl9 Cl 1.23990(8) 0.37622(5) 1.04265(7)
Co1 Co 1.21525(4) 0.42213(2) 0.95029(3)
O1 O 0.9086(2) 0.20942(11) 0.75424(16)
O2 O 0.8393(2) 0.27698(13) 0.83865(18)
O3 O 1.0371(2) 0.35254(12) 0.75126(15)
O4 O 0.8561(2) 0.34057(12) 0.73858(15)
O5 O 1.0853(2) 0.25188(13) 0.78337(17)
O6 O 0.39479(18) 0.35104(11) 1.13793(15)
O7 O 0.57297(19) 0.33842(11) 1.15155(15)
O8 O 0.5169(3) 0.20415(12) 1.13460(16)
O9 O 0.34541(19) 0.25450(13) 1.10684(18)
O10 O 0.5941(2) 0.27217(15) 1.05354(19)
Eu1 Eu 0.956594(13) 0.287020(7) 0.785143(10)
Eu2 Eu 0.475667(13) 0.283883(7) 1.105102(10)
C1 C 0.9735(2) 0.36049(14) 0.92488(19)
C2 C 0.9490(2) 0.40332(14) 1.01716(19)
H1 H 0.9649 0.4373 1.0262
C3 C 1.0187(2) 0.36723(14) 1.0366(2)
H2 H 1.0674 0.3840 1.0560
C4 C 0.9155(2) 0.34915(14) 1.09611(19)
C5 C 1.0840(2) 0.30602(15) 0.9679(2)
H3 H 1.0962 0.3051 0.9228
H4 H 1.1332 0.3127 0.9966
C6 C 1.0380(3) 0.30216(14) 1.1233(2)
H5 H 1.0220 0.3021 1.1672
H6 H 1.0928 0.3135 1.1273
C7 C 1.0183(2) 0.22967(14) 0.9393(2)
C8 C 1.0793(2) 0.23758(14) 1.04678(19)
H7 H 1.1371 0.2396 1.0602
C9 C 1.0513(2) 0.18493(13) 1.03452(19)
H8 H 1.0960 0.1620 1.0406
C10 C 0.9927(3) 0.21703(14) 1.1205(2)
C11 C 0.9956(3) 0.14215(15) 0.9285(2)
H9 H 0.9976 0.1498 0.8824
H10 H 1.0362 0.1178 0.9417
C12 C 0.9658(2) 0.13042(14) 1.0966(2)
H11 H 1.0075 0.1061 1.0962
H12 H 0.9499 0.1308 1.1405
C13 C 0.8594(3) 0.12079(14) 0.8852(2)
C14 C 0.9052(3) 0.09098(14) 0.9895(2)
H13 H 0.9438 0.0642 0.9961
C15 C 0.8213(2) 0.07273(14) 0.9682(2)
H14 H 0.8195 0.0370 0.9668
C16 C 0.8245(3) 0.11474(15) 1.0662(2)
C17 C 0.7363(3) 0.07551(16) 0.8565(2)
H15 H 0.7351 0.0402 0.8584
H16 H 0.7462 0.0848 0.8125
C18 C 0.7001(3) 0.07313(17) 1.0270(2)
H17 H 0.6905 0.0808 1.0717
H18 H 0.7005 0.0379 1.0228
C19 C 0.6125(3) 0.11869(15) 0.8207(2)
C20 C 0.6150(3) 0.07355(15) 0.9166(2)
H19 H 0.6167 0.0379 0.9159
C21 C 0.5310(3) 0.09277(14) 0.8959(2)
H20 H 0.4919 0.0663 0.8885
C22 C 0.5774(3) 0.12057(14) 1.0009(2)
C23 C 0.4693(3) 0.13328(15) 0.7903(2)
H21 H 0.4850 0.1348 0.7464
H22 H 0.4286 0.1083 0.7900
C24 C 0.4412(3) 0.14131(15) 0.9589(2)
H23 H 0.4399 0.1483 1.0053
H24 H 0.4016 0.1163 0.9459
C25 C 0.4409(2) 0.21971(14) 0.7693(2)
C26 C 0.3816(2) 0.18514(14) 0.85403(19)
H25 H 0.3372 0.1619 0.8472
C27 C 0.3528(2) 0.23764(14) 0.84390(19)
H26 H 0.2951 0.2393 0.8297
C28 C 0.4133(2) 0.22808(14) 0.9509(2)
C29 C 0.3896(3) 0.30339(14) 0.7675(2)
H27 H 0.3338 0.3127 0.7642
H28 H 0.4046 0.3038 0.7233
C30 C 0.3465(2) 0.30495(14) 0.9247(2)
H29 H 0.3362 0.3039 0.9704
H30 H 0.2961 0.3116 0.8975
C31 C 0.5088(3) 0.35316(14) 0.7941(2)
C32 C 0.4066(2) 0.36885(14) 0.85578(19)
H31 H 0.3565 0.3850 0.8382
C33 C 0.4743(2) 0.40558(14) 0.8753(2)
H32 H 0.4570 0.4393 0.8664
C34 C 0.4554(2) 0.36030(13) 0.9667(2)
C35 C 0.5982(2) 0.42195(15) 0.8216(2)
H33 H 0.5788 0.4552 0.8177
H34 H 0.6146 0.4128 0.7796
C36 C 0.5483(2) 0.42854(14) 0.9875(2)
H35 H 0.5339 0.4621 0.9769
H36 H 0.5396 0.4227 1.0329
C37 C 0.7406(3) 0.40900(14) 0.8570(2)
C38 C 0.6694(2) 0.44612(14) 0.93280(19)
H37 H 0.6502 0.4797 0.9258
C39 C 0.7572(2) 0.44469(14) 0.96048(19)
H38 H 0.7786 0.4775 0.9700
C40 C 0.6843(3) 0.40704(15) 1.0338(2)
C41 C 0.8771(2) 0.42646(15) 0.9047(2)
H39 H 0.8930 0.4598 0.9153
H40 H 0.8859 0.4203 0.8595
C42 C 0.8249(2) 0.41726(15) 1.0707(2)
H41 H 0.8073 0.4067 1.1118
H42 H 0.8436 0.4506 1.0768
N1 N 0.9268(2) 0.39424(12) 0.94756(17)
N2 N 1.0279(2) 0.34535(11) 0.97399(16)
N3 N 0.8896(2) 0.38715(12) 1.05715(16)
N4 N 0.9885(2) 0.33561(12) 1.08286(17)
N5 N 1.0555(2) 0.26099(12) 0.98387(16)
N6 N 1.0136(2) 0.18569(11) 0.96751(16)
N7 N 1.0349(2) 0.25320(11) 1.09873(16)
N8 N 0.9976(2) 0.17762(11) 1.08287(16)
N9 N 0.9198(2) 0.12235(12) 0.93517(17)
N10 N 0.8004(2) 0.09320(13) 0.90385(17)
N11 N 0.8989(2) 0.11676(12) 1.05005(17)
N12 N 0.7767(2) 0.09139(13) 1.01734(17)
N13 N 0.6593(2) 0.09444(13) 0.86815(17)
N14 N 0.5374(2) 0.11935(13) 0.83635(17)
N15 N 0.6359(2) 0.09235(13) 0.98161(17)
N16 N 0.5173(2) 0.12287(12) 0.95090(17)
N17 N 0.4356(2) 0.17926(11) 0.80509(16)
N18 N 0.39816(19) 0.25509(11) 0.79292(16)
N19 N 0.4194(2) 0.18496(12) 0.92111(17)
N20 N 0.3740(2) 0.25936(12) 0.90763(16)
N21 N 0.4368(2) 0.33899(12) 0.80717(16)
N22 N 0.5341(2) 0.39075(12) 0.83478(16)
N23 N 0.4009(2) 0.34467(11) 0.91729(17)
N24 N 0.4971(2) 0.39673(11) 0.94460(16)
N25 N 0.6667(2) 0.42021(12) 0.87160(16)
N26 N 0.7946(2) 0.42142(12) 0.90951(17)
N27 N 0.6308(2) 0.42174(12) 0.98199(16)
N28 N 0.7586(2) 0.41623(11) 1.01981(16)
O11 O 0.96922(18) 0.34741(10) 0.86644(14)
O12 O 0.99405(17) 0.23894(10) 0.88177(14)
O13 O 0.8590(2) 0.14005(12) 0.83187(15)
O14 O 0.63440(19) 0.13693(13) 0.77154(15)
O15 O 0.47919(18) 0.22374(10) 0.72256(14)
O16 O 0.54708(18) 0.33581(11) 0.75383(15)
O17 O 0.75527(19) 0.39228(12) 0.80515(15)
O18 O 0.87852(18) 0.33069(11) 1.13655(15)
O19 O 0.95454(18) 0.21984(9) 1.16778(14)
O20 O 0.8032(2) 0.13064(13) 1.11668(15)
O21 O 0.5790(2) 0.13927(12) 1.05507(15)
O22 O 0.43775(17) 0.23689(10) 1.00874(14)
O23 O 0.46405(18) 0.34482(10) 1.02338(14)
O24 O 0.66816(18) 0.38929(12) 1.08485(16)
Eu1C Eu 0.956594(13) 0.212980(7) 1.285143(10)
Eu2C Eu 0.475667(13) 0.216117(7) 0.605102(10)
O15C O 0.47919(18) 0.27626(10) 1.22256(14)
O19C O 0.95454(18) 0.28016(9) 0.66778(14)
Cl1 Cl 0.53485(10) 0.54507(5) 0.85766(8)
loop_
_geom_bond_atom_site_label_1
_geom_bond_atom_site_label_2
_geom_bond_site_symmetry_1
_geom_bond_site_symmetry_2
Cl6 Co1 1_555 1_555
Cl7 Co1 1_555 1_555
Cl8 Co1 1_555 1_555
Cl9 Co1 1_555 1_555
O1 Eu1 1_555 1_555
O2 Eu1 1_555 1_555
O3 Eu1 1_555 1_555
O4 Eu1 1_555 1_555
O5 Eu1 1_555 1_555
O6 Eu2 1_555 1_555
O7 Eu2 1_555 1_555
O8 Eu2 1_555 1_555
O9 Eu2 1_555 1_555
O10 Eu2 1_555 1_555
Eu1 O11 1_555 1_555
Eu2 O22 1_555 1_555
C1 N1 1_555 1_555
C2 H1 1_555 1_555
C3 C2 1_555 1_555
H2 C3 1_555 1_555
C4 N3 1_555 1_555
C5 H3 1_555 1_555
H4 C5 1_555 1_555
C6 H5 1_555 1_555
H6 C6 1_555 1_555
C7 N5 1_555 1_555
C8 H7 1_555 1_555
C9 C8 1_555 1_555
H8 C9 1_555 1_555
C10 N7 1_555 1_555
C11 H9 1_555 1_555
H10 C11 1_555 1_555
C12 H11 1_555 1_555
H12 C12 1_555 1_555
C13 N9 1_555 1_555
C14 H13 1_555 1_555
C15 C14 1_555 1_555
H14 C15 1_555 1_555
C16 N11 1_555 1_555
C17 H15 1_555 1_555
H16 C17 1_555 1_555
C18 H17 1_555 1_555
H18 C18 1_555 1_555
C19 N13 1_555 1_555
C20 H19 1_555 1_555
C21 C20 1_555 1_555
H20 C21 1_555 1_555
C22 N15 1_555 1_555
C23 H21 1_555 1_555
H22 C23 1_555 1_555
C24 H23 1_555 1_555
H24 C24 1_555 1_555
C25 N17 1_555 1_555
C26 H25 1_555 1_555
C27 C26 1_555 1_555
H26 C27 1_555 1_555
C28 N19 1_555 1_555
C29 H27 1_555 1_555
H28 C29 1_555 1_555
C30 H29 1_555 1_555
H30 C30 1_555 1_555
C31 N21 1_555 1_555
C32 H31 1_555 1_555
C33 C32 1_555 1_555
H32 C33 1_555 1_555
C34 N23 1_555 1_555
C35 H33 1_555 1_555
H34 C35 1_555 1_555
C36 H35 1_555 1_555
H36 C36 1_555 1_555
C37 N25 1_555 1_555
C38 H37 1_555 1_555
C39 C38 1_555 1_555
H38 C39 1_555 1_555
C40 N27 1_555 1_555
C41 H39 1_555 1_555
H40 C41 1_555 1_555
C42 H41 1_555 1_555
H42 C42 1_555 1_555
N1 C2 1_555 1_555
N2 C1 1_555 1_555
N3 C2 1_555 1_555
N4 C3 1_555 1_555
N5 C5 1_555 1_555
N6 C7 1_555 1_555
N7 C6 1_555 1_555
N8 C9 1_555 1_555
N9 C11 1_555 1_555
N10 C13 1_555 1_555
N11 C12 1_555 1_555
N12 C15 1_555 1_555
N13 C17 1_555 1_555
N14 C19 1_555 1_555
N15 C18 1_555 1_555
N16 C21 1_555 1_555
N17 C23 1_555 1_555
N18 C25 1_555 1_555
N19 C24 1_555 1_555
N20 C27 1_555 1_555
N21 C29 1_555 1_555
N22 C31 1_555 1_555
N23 C30 1_555 1_555
N24 C33 1_555 1_555
N25 C35 1_555 1_555
N26 C37 1_555 1_555
N27 C36 1_555 1_555
N28 C39 1_555 1_555
O11 C1 1_555 1_555
O12 Eu1 1_555 1_555
O13 C13 1_555 1_555
O14 C19 1_555 1_555
O15 C25 1_555 1_555
O16 C31 1_555 1_555
O17 C37 1_555 1_555
O18 C4 1_555 1_555
O19 C10 1_555 1_555
O20 C16 1_555 1_555
O21 C22 1_555 1_555
O22 C28 1_555 1_555
O23 Eu2 1_555 1_555
O24 C40 1_555 1_555
Eu1C O19 1_555 1_555
Eu2C O15 1_555 1_555
O15C Eu2 1_555 1_555
O19C Eu1 1_555 1_555
C3 N2 1_555 1_555
C4 N4 1_555 1_555
C5 N2 1_555 1_555
C6 N4 1_555 1_555
C7 O12 1_555 1_555
C8 N5 1_555 1_555
C8 N7 1_555 1_555
C9 N6 1_555 1_555
C10 N8 1_555 1_555
C11 N6 1_555 1_555
C12 N8 1_555 1_555
C14 N9 1_555 1_555
C14 N11 1_555 1_555
C15 N10 1_555 1_555
C16 N12 1_555 1_555
C17 N10 1_555 1_555
C18 N12 1_555 1_555
C20 N13 1_555 1_555
C20 N15 1_555 1_555
C21 N14 1_555 1_555
C22 N16 1_555 1_555
C23 N14 1_555 1_555
C24 N16 1_555 1_555
C26 N17 1_555 1_555
C26 N19 1_555 1_555
C27 N18 1_555 1_555
C28 N20 1_555 1_555
C29 N18 1_555 1_555
C30 N20 1_555 1_555
C32 N21 1_555 1_555
C32 N23 1_555 1_555
C33 N22 1_555 1_555
C34 N24 1_555 1_555
C34 O23 1_555 1_555
C35 N22 1_555 1_555
C36 N24 1_555 1_555
C38 N25 1_555 1_555
C38 N27 1_555 1_555
C39 N26 1_555 1_555
C40 N28 1_555 1_555
C41 N1 1_555 1_555
C41 N26 1_555 1_555
C42 N3 1_555 1_555
C42 N28 1_555 1_555

#END
