
#######################################################################
#
#                 Cambridge Crystallographic Data Centre
#                                CCDC 
#
#######################################################################
#
# If this CIF has been generated from an entry in the Cambridge 
# Structural Database, then it will include bibliographic, chemical, 
# crystal, experimental, refinement or atomic coordinate data resulting 
# from the CCDC's data processing and validation procedures.
#
#######################################################################

data_VOJNUF
_symmetry_cell_setting           triclinic
_symmetry_space_group_name_H-M   'P -1'
_symmetry_Int_Tables_number      2
_space_group_name_Hall           '-P 1'
loop_
_symmetry_equiv_pos_site_id
_symmetry_equiv_pos_as_xyz
1 x,y,z
2 -x,-y,-z
_cell_length_a                   17.0566(17)
_cell_length_b                   17.1421(17)
_cell_length_c                   20.041(3)
_cell_angle_alpha                97.415(5)
_cell_angle_beta                 112.647(5)
_cell_angle_gamma                111.089(4)
_cell_volume                     4795.84
loop_
_atom_site_label
_atom_site_type_symbol
_atom_site_fract_x
_atom_site_fract_y
_atom_site_fract_z
Cl2 Cl -0.03334(16) -0.4378(3) -0.54937(16)
Cl3 Cl 0.27360(15) -0.1448(3) -0.24363(17)
Cl4 Cl 0.0842(4) -0.1199(4) -0.4999(3)
Cl5 Cl -0.2762(5) -0.3578(5) -0.7661(5)
Cl6 Cl -0.36255(7) -0.50592(7) 0.07754(7)
Cl7 Cl -0.11679(7) -0.49150(10) 0.08253(7)
Cl8 Cl -0.16179(9) -0.48014(11) 0.23434(8)
Cl9 Cl -0.31978(10) -0.68179(11) 0.03774(10)
Cu1 Cu -0.23872(3) -0.54028(4) 0.10929(3)
O1 O 0.24890(18) -0.18958(18) 0.02039(16)
O2 O 0.08665(18) -0.1561(2) 0.02482(16)
O3 O -0.02568(19) -0.1791(2) -0.12845(19)
O4 O 0.1330(2) -0.01442(19) -0.09694(19)
O5 O 0.2787(2) -0.1040(3) -0.08624(18)
O6 O -0.5233(2) -0.6170(2) -0.6681(2)
O7 O -0.23406(19) -0.4392(2) -0.64355(16)
O8 O -0.3971(2) -0.4353(2) -0.6205(2)
O9 O -0.3722(2) -0.6186(3) -0.53019(17)
O10 O -0.2216(2) -0.5853(2) -0.5941(2)
Eu1 Eu 0.142374(11) -0.140200(12) -0.065608(10)
Eu2 Eu -0.352084(12) -0.550623(13) -0.622597(11)
C1 C 0.0168(2) -0.3703(3) -0.1463(2)
C2 C -0.1004(2) -0.5169(2) -0.2033(2)
H1 H -0.0944 -0.5663 -0.1858
C3 C -0.0497(2) -0.4917(2) -0.2522(2)
H2 H -0.0202 -0.5298 -0.2586
C4 C -0.2105(2) -0.5318(2) -0.3238(2)
C5 C 0.08216(15) -0.35421(10) -0.23942(11)
H3 H 0.1424 -0.3118 -0.1967
H4 H 0.0946 -0.3959 -0.2662
C6 C -0.1154(2) -0.4997(2) -0.3927(2)
H5 H -0.0668 -0.5176 -0.3905
H6 H -0.1746 -0.5419 -0.4364
C7 C 0.0578(2) -0.2263(2) -0.2662(2)
C8 C 0.0065(2) -0.3456(2) -0.3684(2)
H7 H 0.0473 -0.3643 -0.3828
C9 C -0.0042(2) -0.2693(2) -0.3977(2)
H8 H 0.0351 -0.2492 -0.4228
C10 C -0.1517(2) -0.3923(2) -0.45448(19)
C11 C 0.05113(19) -0.1095(3) -0.3243(2)
H9 H 0.0982 -0.0718 -0.2729
H10 H 0.0788 -0.0946 -0.3578
C12 C -0.1445(2) -0.2636(2) -0.5020(2)
H11 H -0.1006 -0.2345 -0.5206
H12 H -0.2029 -0.3075 -0.5455
C13 C -0.0410(3) -0.0374(2) -0.2970(2)
C14 C -0.0952(3) -0.1070(3) -0.4243(2)
H13 H -0.0602 -0.0823 -0.4515
C15 C -0.1562(2) -0.0623(3) -0.4191(2)
H14 H -0.1543 -0.0190 -0.4467
C16 C -0.2550(3) -0.2127(3) -0.4822(2)
C17 C -0.1296(2) 0.0495(3) -0.3042(2)
H15 H -0.1310 0.0882 -0.3355
H16 H -0.0767 0.0835 -0.2538
C18 C -0.3348(2) -0.1216(3) -0.4747(2)
H17 H -0.3891 -0.1753 -0.5121
H18 H -0.3279 -0.0758 -0.4989
C19 C -0.2175(3) 0.0387(2) -0.2305(2)
C20 C -0.3089(2) -0.0061(2) -0.3635(2)
H19 H -0.3048 0.0363 -0.3920
C21 C -0.3720(3) -0.0085(3) -0.3258(2)
H20 H -0.4025 0.0298 -0.3396
C22 C -0.4316(3) -0.1488(3) -0.4075(2)
C23 C -0.3316(3) 0.0507(3) -0.1870(2)
H21 H -0.2732 0.0936 -0.1429
H22 H -0.3708 0.0800 -0.2061
C24 C -0.5261(3) -0.1300(3) -0.3464(2)
H23 H -0.5735 -0.1847 -0.3866
H24 H -0.5507 -0.0870 -0.3530
C25 C -0.3396(2) -0.0304(2) -0.0951(2)
C26 C -0.4811(2) -0.0741(2) -0.2054(2)
H25 H -0.5167 -0.0394 -0.2163
C27 C -0.5017(2) -0.1257(2) -0.1509(2)
H26 H -0.5417 -0.1099 -0.1331
C28 C -0.5510(2) -0.2244(2) -0.2656(2)
C29 C -0.3896(2) -0.1273(2) -0.0234(2)
H27 H -0.4392 -0.1335 -0.0090
H28 H -0.3296 -0.0840 0.0190
C30 C -0.5779(2) -0.2573(3) -0.1684(2)
H29 H -0.6456 -0.2915 -0.2019
H30 H -0.5704 -0.2193 -0.1238
C31 C -0.3021(2) -0.2173(2) -0.0131(2)
C32 C -0.4660(2) -0.2960(2) -0.0594(2)
H31 H -0.4970 -0.2963 -0.0271
C33 C -0.4216(2) -0.3600(2) -0.0514(2)
H32 H -0.4333 -0.3924 -0.0167
C34 C -0.5311(2) -0.3985(3) -0.1780(2)
C35 C -0.2449(2) -0.3290(2) 0.0142(2)
H33 H -0.1858 -0.2761 0.0457
H34 H -0.2594 -0.3621 0.0472
C36 C -0.4665(2) -0.5011(2) -0.1474(2)
H35 H -0.5193 -0.5366 -0.1975
H36 H -0.4768 -0.5309 -0.1114
C37 C -0.1448(2) -0.3569(3) -0.0360(2)
C38 C -0.2932(2) -0.4746(2) -0.0792(2)
H37 H -0.3082 -0.5052 -0.0445
C39 C -0.2360(2) -0.5058(3) -0.1068(2)
H38 H -0.2274 -0.5539 -0.0884
C40 C -0.3772(2) -0.5331(3) -0.2104(2)
C41 C -0.0600(2) -0.4307(3) -0.0712(2)
H39 H -0.0054 -0.3792 -0.0312
H40 H -0.0582 -0.4821 -0.0565
C42 C -0.2776(2) -0.5884(2) -0.2412(2)
H41 H -0.3352 -0.6175 -0.2894
H42 H -0.2661 -0.6335 -0.2202
N1 N -0.0525(2) -0.4350(2) -0.14009(18)
N2 N 0.0204(2) -0.40195(19) -0.20926(17)
N3 N -0.19833(19) -0.5383(2) -0.25410(16)
N4 N -0.12579(19) -0.5030(2) -0.32374(17)
N5 N 0.04757(17) -0.30815(12) -0.29004(12)
N6 N 0.0277(2) -0.2012(2) -0.32775(17)
N7 N -0.0904(2) -0.4143(2) -0.40392(17)
N8 N -0.1037(2) -0.30755(19) -0.45020(17)
N9 N -0.0320(2) -0.0926(2) -0.34639(19)
N10 N -0.1151(2) -0.0219(2) -0.33690(19)
N11 N -0.1647(2) -0.1984(2) -0.46557(18)
N12 N -0.2509(2) -0.1350(2) -0.45093(19)
N13 N -0.2183(2) 0.0162(2) -0.29891(18)
N14 N -0.3085(2) 0.0216(2) -0.24517(18)
N15 N -0.3526(2) -0.0969(2) -0.41183(18)
N16 N -0.4422(2) -0.1007(2) -0.35488(18)
N17 N -0.3799(2) -0.0179(2) -0.16373(18)
N18 N -0.40727(19) -0.0957(2) -0.08865(17)
N19 N -0.5135(2) -0.1440(2) -0.27322(17)
N20 N -0.5502(2) -0.2186(2) -0.19539(18)
N21 N -0.38634(19) -0.21172(19) -0.03731(18)
N22 N -0.32188(19) -0.3040(2) -0.02308(18)
N23 N -0.5335(2) -0.3279(2) -0.13994(17)
N24 N -0.4658(2) -0.4183(2) -0.12838(18)
N25 N -0.2326(2) -0.38124(19) -0.04010(18)
N26 N -0.14615(18) -0.4267(2) -0.07698(17)
N27 N -0.37875(19) -0.4948(2) -0.14720(18)
N28 N -0.29100(19) -0.5332(2) -0.18978(17)
O11 O 0.06887(18) -0.29540(16) -0.10032(15)
O12 O 0.09274(18) -0.17903(17) -0.19973(15)
O13 O 0.0108(2) -0.0068(2) -0.22792(17)
O14 O -0.14922(19) 0.0655(2) -0.16851(16)
O15 O -0.25630(16) 0.01167(16) -0.04639(14)
O16 O -0.22358(18) -0.15594(17) 0.01261(18)
O17 O -0.07742(18) -0.28439(19) 0.00095(17)
O18 O -0.28749(18) -0.5508(2) -0.37836(15)
O19 O -0.23681(17) -0.44107(18) -0.49845(14)
O20 O -0.32597(19) -0.2812(2) -0.51670(19)
O21 O -0.4850(2) -0.2270(2) -0.44631(18)
O22 O -0.58789(18) -0.29485(18) -0.31799(15)
O23 O -0.58321(19) -0.43964(19) -0.24651(15)
O24 O -0.44288(17) -0.5621(2) -0.27604(16)
Eu1A Eu -0.142374(11) 0.140200(12) 0.065608(10)
Eu2A Eu -0.647916(12) -0.449377(13) -0.377403(11)
O15A O 0.25630(16) -0.01167(16) 0.04639(14)
O22A O -0.41211(18) -0.70515(18) -0.68201(15)
O23A O -0.41679(19) -0.56036(19) -0.75349(15)
Cl1 Cl -0.17516(10) -0.69856(10) -0.11261(9)
loop_
_geom_bond_atom_site_label_1
_geom_bond_atom_site_label_2
_geom_bond_site_symmetry_1
_geom_bond_site_symmetry_2
Cl6 Cu1 1_555 1_555
Cl7 Cu1 1_555 1_555
Cl8 Cu1 1_555 1_555
Cl9 Cu1 1_555 1_555
O1 Eu1 1_555 1_555
O2 Eu1 1_555 1_555
O3 Eu1 1_555 1_555
O4 Eu1 1_555 1_555
O5 Eu1 1_555 1_555
O6 Eu2 1_555 1_555
O7 Eu2 1_555 1_555
O8 Eu2 1_555 1_555
O9 Eu2 1_555 1_555
O10 Eu2 1_555 1_555
Eu1 O11 1_555 1_555
Eu2 O19 1_555 1_555
C1 N1 1_555 1_555
C2 H1 1_555 1_555
C3 C2 1_555 1_555
H2 C3 1_555 1_555
C4 N3 1_555 1_555
C5 H3 1_555 1_555
H4 C5 1_555 1_555
C6 H5 1_555 1_555
H6 C6 1_555 1_555
C7 N5 1_555 1_555
C8 H7 1_555 1_555
C9 C8 1_555 1_555
H8 C9 1_555 1_555
C10 N7 1_555 1_555
C11 H9 1_555 1_555
H10 C11 1_555 1_555
C12 H11 1_555 1_555
H12 C12 1_555 1_555
C13 N9 1_555 1_555
C14 H13 1_555 1_555
C15 C14 1_555 1_555
H14 C15 1_555 1_555
C16 N11 1_555 1_555
C17 H15 1_555 1_555
H16 C17 1_555 1_555
C18 H17 1_555 1_555
H18 C18 1_555 1_555
C19 N13 1_555 1_555
C20 H19 1_555 1_555
C21 C20 1_555 1_555
H20 C21 1_555 1_555
C22 N15 1_555 1_555
C23 H21 1_555 1_555
H22 C23 1_555 1_555
C24 H23 1_555 1_555
H24 C24 1_555 1_555
C25 N17 1_555 1_555
C26 H25 1_555 1_555
C27 C26 1_555 1_555
H26 C27 1_555 1_555
C28 N19 1_555 1_555
C29 H27 1_555 1_555
H28 C29 1_555 1_555
C30 H29 1_555 1_555
H30 C30 1_555 1_555
C31 N21 1_555 1_555
C32 H31 1_555 1_555
C33 C32 1_555 1_555
H32 C33 1_555 1_555
C34 N23 1_555 1_555
C35 H33 1_555 1_555
H34 C35 1_555 1_555
C36 H35 1_555 1_555
H36 C36 1_555 1_555
C37 N25 1_555 1_555
C38 H37 1_555 1_555
C39 C38 1_555 1_555
H38 C39 1_555 1_555
C40 N27 1_555 1_555
C41 H39 1_555 1_555
H40 C41 1_555 1_555
C42 H41 1_555 1_555
H42 C42 1_555 1_555
N1 C2 1_555 1_555
N2 C1 1_555 1_555
N3 C2 1_555 1_555
N4 C3 1_555 1_555
N5 C5 1_555 1_555
N6 C7 1_555 1_555
N7 C6 1_555 1_555
N8 C9 1_555 1_555
N9 C11 1_555 1_555
N10 C13 1_555 1_555
N11 C12 1_555 1_555
N12 C15 1_555 1_555
N13 C17 1_555 1_555
N14 C19 1_555 1_555
N15 C18 1_555 1_555
N16 C21 1_555 1_555
N17 C23 1_555 1_555
N18 C25 1_555 1_555
N19 C24 1_555 1_555
N20 C27 1_555 1_555
N21 C29 1_555 1_555
N22 C31 1_555 1_555
N23 C30 1_555 1_555
N24 C33 1_555 1_555
N25 C35 1_555 1_555
N26 C37 1_555 1_555
N27 C36 1_555 1_555
N28 C39 1_555 1_555
O11 C1 1_555 1_555
O12 Eu1 1_555 1_555
O13 C13 1_555 1_555
O14 C19 1_555 1_555
O15 C25 1_555 1_555
O16 C31 1_555 1_555
O17 C37 1_555 1_555
O18 C4 1_555 1_555
O19 C10 1_555 1_555
O20 C16 1_555 1_555
O21 C22 1_555 1_555
O22 C28 1_555 1_555
O23 C34 1_555 1_555
O24 C40 1_555 1_555
Eu1A O15 1_555 1_555
Eu2A O22 1_555 1_555
O15A Eu1 1_555 1_555
O22A Eu2 1_555 1_555
O23A Eu2 1_555 1_555
C3 N2 1_555 1_555
C4 N4 1_555 1_555
C5 N2 1_555 1_555
C6 N4 1_555 1_555
C7 O12 1_555 1_555
C8 N5 1_555 1_555
C8 N7 1_555 1_555
C9 N6 1_555 1_555
C10 N8 1_555 1_555
C11 N6 1_555 1_555
C12 N8 1_555 1_555
C14 N9 1_555 1_555
C14 N11 1_555 1_555
C15 N10 1_555 1_555
C16 N12 1_555 1_555
C17 N10 1_555 1_555
C18 N12 1_555 1_555
C20 N13 1_555 1_555
C20 N15 1_555 1_555
C21 N14 1_555 1_555
C22 N16 1_555 1_555
C23 N14 1_555 1_555
C24 N16 1_555 1_555
C26 N17 1_555 1_555
C26 N19 1_555 1_555
C27 N18 1_555 1_555
C28 N20 1_555 1_555
C29 N18 1_555 1_555
C30 N20 1_555 1_555
C32 N21 1_555 1_555
C32 N23 1_555 1_555
C33 N22 1_555 1_555
C34 N24 1_555 1_555
C35 N22 1_555 1_555
C36 N24 1_555 1_555
C38 N25 1_555 1_555
C38 N27 1_555 1_555
C39 N26 1_555 1_555
C40 N28 1_555 1_555
C41 N1 1_555 1_555
C41 N26 1_555 1_555
C42 N3 1_555 1_555
C42 N28 1_555 1_555
O23 Eu2A 1_555 1_555

#END
