
#######################################################################
#
#                 Cambridge Crystallographic Data Centre
#                                CCDC 
#
#######################################################################
#
# If this CIF has been generated from an entry in the Cambridge 
# Structural Database, then it will include bibliographic, chemical, 
# crystal, experimental, refinement or atomic coordinate data resulting 
# from the CCDC's data processing and validation procedures.
#
#######################################################################

data_VOJNOZ
_symmetry_cell_setting           triclinic
_symmetry_space_group_name_H-M   'P -1'
_symmetry_Int_Tables_number      2
_space_group_name_Hall           '-P 1'
loop_
_symmetry_equiv_pos_site_id
_symmetry_equiv_pos_as_xyz
1 x,y,z
2 -x,-y,-z
_cell_length_a                   17.045(4)
_cell_length_b                   17.080(4)
_cell_length_c                   19.983(7)
_cell_angle_alpha                112.825(11)
_cell_angle_beta                 96.852(11)
_cell_angle_gamma                111.574(8)
_cell_volume                     4747.86
loop_
_atom_site_label
_atom_site_type_symbol
_atom_site_fract_x
_atom_site_fract_y
_atom_site_fract_z
Cl2 Cl 0.5000 0.5000 0.5000
Cl3 Cl 0.9258(3) 1.03087(18) 1.05261(16)
Cl3A Cl 1.0742(3) 0.96913(18) 0.94739(16)
Cl5 Cl 0.6444(2) 1.7648(2) 0.9175(3)
Cl7 Cl 0.5000 1.5000 1.0000
Cl8 Cl 1.00345(8) 1.36048(8) 0.42216(7)
Cl9 Cl 0.98987(11) 1.11531(9) 0.41772(7)
Cl10 Cl 0.97885(12) 1.16070(11) 0.26612(9)
Cl11 Cl 1.18058(12) 1.32066(12) 0.46295(11)
Cu1 Cu 1.03882(4) 1.23788(4) 0.39139(3)
O1 O 0.9373(2) 1.2313(2) 1.14404(17)
O2 O 1.1146(2) 1.3700(2) 1.02996(16)
O3 O 1.1154(2) 1.5191(2) 1.1647(2)
O4 O 0.9377(2) 1.3961(2) 1.11921(19)
O5 O 1.0822(2) 1.2176(2) 1.0944(2)
O6 O 0.6906(2) 0.7494(2) 0.47949(17)
O7 O 0.5134(2) 0.8599(3) 0.59743(19)
O8 O 0.6560(2) 0.9110(2) 0.47589(16)
O9 O 0.6031(3) 0.7177(2) 0.58732(18)
O10 O 0.6758(3) 1.0215(2) 0.6264(2)
Gd1 Gd 1.049469(13) 1.348405(13) 1.122612(10)
Gd2 Gd 0.640018(13) 0.853849(13) 0.565418(10)
C1 C 0.8927(2) 1.1504(3) 0.95587(19)
C2 C 0.7673(2) 1.0012(3) 0.8965(2)
H1 H 0.7460 0.9604 0.9211
C3 C 0.8445(3) 0.9914(2) 0.8671(2)
H2 H 0.8642 0.9540 0.8860
C4 C 0.7250(2) 0.9404(2) 0.7664(2)
C5 C 0.9997(3) 1.1146(3) 0.8917(2)
H3 H 1.0433 1.1747 0.9357
H4 H 1.0175 1.0652 0.8889
C6 C 0.8517(2) 0.9224(2) 0.7461(3)
H5 H 0.8063 0.8616 0.7040
H6 H 0.8932 0.9077 0.7713
C7 C 1.0312(3) 1.2122(3) 0.8244(2)
C8 C 0.9923(3) 1.0495(3) 0.7520(2)
H7 H 1.0317 1.0203 0.7572
C9 C 1.0158(2) 1.1022(3) 0.7032(2)
H8 H 1.0664 1.0979 0.6852
C10 C 0.8714(2) 0.9855(3) 0.64767(19)
C11 C 1.0873(3) 1.2789(3) 0.7413(2)
H9 H 1.1178 1.3373 0.7902
H10 H 1.1325 1.2667 0.7191
C12 C 0.9321(3) 1.0618(3) 0.5708(2)
H11 H 0.8810 1.0064 0.5289
H12 H 0.9858 1.0631 0.5572
C13 C 1.0304(3) 1.3794(3) 0.7127(2)
C14 C 1.0055(3) 1.2373(3) 0.6087(2)
H13 H 1.0546 1.2285 0.5903
C15 C 0.9744(3) 1.2968(3) 0.5807(2)
H14 H 1.0052 1.3119 0.5451
C16 C 0.8556(3) 1.1466(3) 0.5392(2)
C17 C 1.0021(3) 1.4682(3) 0.6478(2)
H15 H 1.0392 1.5219 0.6983
H16 H 1.0321 1.4775 0.6107
C18 C 0.8282(3) 1.2483(3) 0.4874(2)
H17 H 0.8637 1.2652 0.4555
H18 H 0.7748 1.1885 0.4539
C19 C 0.8995(3) 1.5337(3) 0.6778(2)
C20 C 0.8624(3) 1.4248(3) 0.5535(2)
H19 H 0.8958 1.4362 0.5182
C21 C 0.7980(3) 1.4685(3) 0.5604(2)
H20 H 0.8003 1.5007 0.5282
C22 C 0.7182(3) 1.3051(3) 0.5149(2)
C23 C 0.7641(3) 1.58013(18) 0.66816(13)
H21 H 0.8007 1.6476 0.7048
H22 H 0.7307 1.5780 0.6235
C24 C 0.6290(2) 1.3927(3) 0.5242(2)
H23 H 0.6352 1.4427 0.5096
H24 H 0.5847 1.3319 0.4815
C25 C 0.7246(3) 1.5546(3) 0.76740(18)
C26 C 0.6268(2) 1.5053(3) 0.65288(19)
H25 H 0.6087 1.5444 0.6350
C27 C 0.5757(2) 1.4840(3) 0.70733(19)
H26 H 0.5409 1.5202 0.7193
C28 C 0.5315(2) 1.3430(3) 0.5958(2)
C29 C 0.6305(3) 1.5258(3) 0.8470(2)
H27 H 0.6859 1.5741 0.8879
H28 H 0.5863 1.5496 0.8542
C30 C 0.4487(3) 1.3311(3) 0.6870(2)
H29 H 0.4066 1.2716 0.6418
H30 H 0.4170 1.3686 0.7061
C31 C 0.6509(3) 1.4307(3) 0.9070(2)
C32 C 0.5096(3) 1.3712(3) 0.8245(2)
H31 H 0.4706 1.4014 0.8396
C33 C 0.5092(3) 1.3062(3) 0.8629(2)
H32 H 0.4662 1.3012 0.8921
C34 C 0.4623(3) 1.2173(3) 0.7297(2)
C35 C 0.6204(3) 1.3331(3) 0.9726(2)
H33 H 0.5723 1.3254 0.9957
H34 H 0.6743 1.3880 1.0117
C36 C 0.4523(3) 1.1275(3) 0.8023(2)
H35 H 0.4126 1.1282 0.8341
H36 H 0.4178 1.0742 0.7512
C37 C 0.7118(3) 1.2536(3) 0.9810(2)
C38 C 0.5613(3) 1.1550(3) 0.9159(2)
H37 H 0.5157 1.1526 0.9426
C39 C 0.6051(3) 1.0939(3) 0.9233(2)
H38 H 0.5784 1.0598 0.9514
C40 C 0.5379(3) 1.0404(3) 0.7945(2)
C41 C 0.7609(2) 1.1419(3) 1.0007(2)
H39 H 0.8055 1.2007 1.0451
H40 H 0.7300 1.0973 1.0190
C42 C 0.6092(3) 0.9488(3) 0.8242(2)
H41 H 0.5715 0.9009 0.7721
H42 H 0.5932 0.9205 0.8579
N1 N 0.9342(2) 1.0522(2) 0.64012(17)
N2 N 0.9027(2) 0.9798(2) 0.70994(16)
N3 N 1.0367(2) 1.1999(2) 0.75478(17)
N4 N 1.0025(2) 1.1246(2) 0.82465(18)
N5 N 0.8208(3) 0.9458(2) 0.78408(16)
N6 N 0.7011(2) 0.9711(2) 0.82788(17)
N7 N 0.9137(2) 1.0900(2) 0.90435(16)
N8 N 0.8055(2) 1.1014(2) 0.95043(17)
N9 N 0.5906(2) 1.0281(3) 0.84517(18)
N10 N 0.5226(2) 1.1128(2) 0.83391(19)
N11 N 0.6974(2) 1.1633(2) 0.96524(19)
N12 N 0.6339(2) 1.2490(2) 0.94977(19)
N13 N 0.4854(2) 1.2170(2) 0.79761(18)
N14 N 0.4785(2) 1.3082(2) 0.74541(19)
N15 N 0.5992(2) 1.3522(2) 0.91105(18)
N16 N 0.6015(2) 1.4411(3) 0.85467(19)
N17 N 0.5180(2) 1.3828(2) 0.66484(17)
N18 N 0.5971(2) 1.4103(2) 0.58924(17)
N19 N 0.6451(2) 1.5154(2) 0.77448(17)
N20 N 0.72288(19) 1.5544(2) 0.6900(3)
N21 N 0.7133(2) 1.3896(2) 0.53636(18)
N22 N 0.8031(2) 1.3211(2) 0.52402(19)
N23 N 0.8313(2) 1.5361(2) 0.64101(17)
N24 N 0.9202(2) 1.4693(2) 0.63007(18)
N25 N 0.8799(2) 1.2337(2) 0.54240(18)
N26 N 0.9264(2) 1.1482(2) 0.57995(18)
N27 N 0.9947(2) 1.3803(2) 0.64804(18)
N28 N 1.0320(2) 1.2929(2) 0.69071(17)
O11 O 0.79534(19) 0.9309(2) 0.60108(15)
O12 O 0.67855(19) 0.90655(19) 0.69983(15)
O13 O 0.5080(2) 0.9895(2) 0.72632(16)
O14 O 0.4340(2) 1.1491(2) 0.66654(17)
O15 O 0.48746(19) 1.25927(19) 0.54668(15)
O16 O 0.65581(19) 1.2271(2) 0.48894(18)
O17 O 0.7827(2) 1.0788(2) 0.5016(2)
O18 O 1.0498(2) 1.2878(2) 0.87925(16)
O19 O 0.94133(19) 1.23500(18) 0.99954(14)
O20 O 0.7816(2) 1.3261(2) 1.0183(2)
O21 O 0.7280(2) 1.4854(2) 0.94597(17)
O22 O 0.79550(19) 1.5877(2) 0.81790(15)
O23 O 0.9416(2) 1.5861(2) 0.74740(15)
O24 O 1.0625(2) 1.4461(2) 0.77835(17)
Gd1A Gd 0.950531(13) 1.651595(13) 0.877388(10)
Gd2A Gd 0.359982(13) 1.146151(13) 0.434582(10)
O15A O 0.51254(19) 0.74073(19) 0.45332(15)
O22A O 1.20450(19) 1.4123(2) 1.18210(15)
O23A O 1.0584(2) 1.4139(2) 1.25260(15)
Cl1 Cl 0.80167(10) 0.82096(12) 0.38597(9)
Cl4? Cl 1.0000 1.0000 1.0000
Cl6? Cl 0.7472(7) 1.7759(7) 0.8925(5)
loop_
_geom_bond_atom_site_label_1
_geom_bond_atom_site_label_2
_geom_bond_site_symmetry_1
_geom_bond_site_symmetry_2
Cl8 Cu1 1_555 1_555
Cl9 Cu1 1_555 1_555
Cl10 Cu1 1_555 1_555
Cl11 Cu1 1_555 1_555
O1 Gd1 1_555 1_555
O2 Gd1 1_555 1_555
O3 Gd1 1_555 1_555
O4 Gd1 1_555 1_555
O5 Gd1 1_555 1_555
O6 Gd2 1_555 1_555
O7 Gd2 1_555 1_555
O8 Gd2 1_555 1_555
O9 Gd2 1_555 1_555
O10 Gd2 1_555 1_555
Gd1 O19 1_555 1_555
Gd2 O11 1_555 1_555
C1 N7 1_555 1_555
C2 H1 1_555 1_555
C3 C2 1_555 1_555
H2 C3 1_555 1_555
C4 N5 1_555 1_555
C5 H3 1_555 1_555
H4 C5 1_555 1_555
C6 H5 1_555 1_555
H6 C6 1_555 1_555
C7 N3 1_555 1_555
C8 H7 1_555 1_555
C9 C8 1_555 1_555
H8 C9 1_555 1_555
C10 N1 1_555 1_555
C11 H9 1_555 1_555
H10 C11 1_555 1_555
C12 H11 1_555 1_555
H12 C12 1_555 1_555
C13 N27 1_555 1_555
C14 H13 1_555 1_555
C15 C14 1_555 1_555
H14 C15 1_555 1_555
C16 N25 1_555 1_555
C17 H15 1_555 1_555
H16 C17 1_555 1_555
C18 H17 1_555 1_555
H18 C18 1_555 1_555
C19 N23 1_555 1_555
C20 H19 1_555 1_555
C21 C20 1_555 1_555
H20 C21 1_555 1_555
C22 N21 1_555 1_555
C23 H21 1_555 1_555
H22 C23 1_555 1_555
C24 H23 1_555 1_555
H24 C24 1_555 1_555
C25 N19 1_555 1_555
C26 H25 1_555 1_555
C27 C26 1_555 1_555
H26 C27 1_555 1_555
C28 N17 1_555 1_555
C29 H27 1_555 1_555
H28 C29 1_555 1_555
C30 H29 1_555 1_555
H30 C30 1_555 1_555
C31 N15 1_555 1_555
C32 H31 1_555 1_555
C33 C32 1_555 1_555
H32 C33 1_555 1_555
C34 N13 1_555 1_555
C35 H33 1_555 1_555
H34 C35 1_555 1_555
C36 H35 1_555 1_555
H36 C36 1_555 1_555
C37 N11 1_555 1_555
C38 H37 1_555 1_555
C39 C38 1_555 1_555
H38 C39 1_555 1_555
C40 N9 1_555 1_555
C41 H39 1_555 1_555
H40 C41 1_555 1_555
C42 H41 1_555 1_555
H42 C42 1_555 1_555
N1 C9 1_555 1_555
N2 C6 1_555 1_555
N3 C9 1_555 1_555
N4 C5 1_555 1_555
N5 C3 1_555 1_555
N6 C2 1_555 1_555
N7 C3 1_555 1_555
N8 C1 1_555 1_555
N9 C39 1_555 1_555
N10 C36 1_555 1_555
N11 C39 1_555 1_555
N12 C35 1_555 1_555
N13 C33 1_555 1_555
N14 C30 1_555 1_555
N15 C33 1_555 1_555
N16 C29 1_555 1_555
N17 C27 1_555 1_555
N18 C24 1_555 1_555
N19 C27 1_555 1_555
N20 C23 1_555 1_555
N21 C21 1_555 1_555
N22 C18 1_555 1_555
N23 C21 1_555 1_555
N24 C17 1_555 1_555
N25 C15 1_555 1_555
N26 C12 1_555 1_555
N27 C15 1_555 1_555
N28 C11 1_555 1_555
O11 C10 1_555 1_555
O12 Gd2 1_555 1_555
O13 C40 1_555 1_555
O14 C34 1_555 1_555
O15 C28 1_555 1_555
O16 C22 1_555 1_555
O17 C16 1_555 1_555
O18 C7 1_555 1_555
O19 C1 1_555 1_555
O20 C37 1_555 1_555
O21 C31 1_555 1_555
O22 C25 1_555 1_555
O23 C19 1_555 1_555
O24 C13 1_555 1_555
Gd1A O22 1_555 1_555
Gd2A O15 1_555 1_555
O15A Gd2 1_555 1_555
O22A Gd1 1_555 1_555
O23A Gd1 1_555 1_555
C2 N8 1_555 1_555
C4 N6 1_555 1_555
C4 O12 1_555 1_555
C5 N7 1_555 1_555
C6 N5 1_555 1_555
C7 N4 1_555 1_555
C8 N2 1_555 1_555
C8 N4 1_555 1_555
C10 N2 1_555 1_555
C11 N3 1_555 1_555
C12 N1 1_555 1_555
C13 N28 1_555 1_555
C14 N26 1_555 1_555
C14 N28 1_555 1_555
C16 N26 1_555 1_555
C17 N27 1_555 1_555
C18 N25 1_555 1_555
C19 N24 1_555 1_555
C20 N22 1_555 1_555
C20 N24 1_555 1_555
C22 N22 1_555 1_555
C23 N23 1_555 1_555
C24 N21 1_555 1_555
C25 N20 1_555 1_555
C26 N18 1_555 1_555
C26 N20 1_555 1_555
C28 N18 1_555 1_555
C29 N19 1_555 1_555
C30 N17 1_555 1_555
C31 N16 1_555 1_555
C32 N14 1_555 1_555
C32 N16 1_555 1_555
C34 N14 1_555 1_555
C35 N15 1_555 1_555
C36 N13 1_555 1_555
C37 N12 1_555 1_555
C38 N10 1_555 1_555
C38 N12 1_555 1_555
C40 N10 1_555 1_555
C41 N8 1_555 1_555
C41 N11 1_555 1_555
C42 N6 1_555 1_555
C42 N9 1_555 1_555
O23 Gd1A 1_555 1_555

#END
