
#######################################################################
#
#                 Cambridge Crystallographic Data Centre
#                                CCDC 
#
#######################################################################
#
# If this CIF has been generated from an entry in the Cambridge 
# Structural Database, then it will include bibliographic, chemical, 
# crystal, experimental, refinement or atomic coordinate data resulting 
# from the CCDC's data processing and validation procedures.
#
#######################################################################

data_VOJNAL
_symmetry_cell_setting           triclinic
_symmetry_space_group_name_H-M   'P -1'
_symmetry_Int_Tables_number      2
_space_group_name_Hall           '-P 1'
loop_
_symmetry_equiv_pos_site_id
_symmetry_equiv_pos_as_xyz
1 x,y,z
2 -x,-y,-z
_cell_length_a                   16.979(3)
_cell_length_b                   17.140(3)
_cell_length_c                   20.168(3)
_cell_angle_alpha                97.223(7)
_cell_angle_beta                 113.441(6)
_cell_angle_gamma                111.556(6)
_cell_volume                     4747.24
loop_
_atom_site_label
_atom_site_type_symbol
_atom_site_fract_x
_atom_site_fract_y
_atom_site_fract_z
Cl2 Cl 0.5000 0.5000 0.5000
Cl3 Cl 1.2710(4) 0.3614(7) 0.2562(4)
Cl4 Cl 1.0153(11) -0.0530(13) 0.0299(8)
Cl5 Cl 1.1693(9) 0.7991(10) 0.7971(6)
Cl7 Cl 0.3612(2) 0.0030(2) 0.43053(19)
Cl8 Cl 0.1742(2) 0.0027(2) 0.25955(17)
Cl9 Cl 0.3117(2) 0.1901(2) 0.44514(18)
Cl10 Cl 0.1208(2) -0.0249(2) 0.41516(19)
Co1 Co 0.24017(11) 0.04173(10) 0.38742(9)
Dy1 Dy 0.34728(3) 0.04795(3) 0.11842(2)
Dy2 Dy 0.85347(3) 0.63632(3) 0.56215(2)
O1 O 0.3696(6) 0.1127(5) 0.0296(4)
O2 O 0.5168(5) 0.1131(5) 0.1645(4)
O3 O 0.2285(5) -0.0649(5) 0.1367(4)
O4 O 0.3947(5) -0.0624(5) 0.1132(4)
O5 O 0.2193(5) 0.0830(5) 0.0890(5)
O6 O 1.0211(5) 0.6776(5) 0.6239(4)
O7 O 0.7444(5) 0.6820(4) 0.4773(4)
O8 O 0.9088(5) 0.6537(4) 0.4746(4)
O9 O 0.8633(6) 0.5126(5) 0.5920(4)
O10 O 0.7192(5) 0.5968(6) 0.5833(4)
C1 C 0.4619(6) 0.0972(6) 0.3149(5)
C2 C 0.5758(7) 0.1365(6) 0.4422(5)
H1 H 0.5654 0.1041 0.4777
C3 C 0.5276(7) 0.1990(6) 0.4324(5)
H2 H 0.4959 0.1974 0.4645
C4 C 0.6927(6) 0.2806(6) 0.4801(5)
C5 C 0.4015(5) 0.2115(7) 0.3213(5)
H3 H 0.3381 0.1686 0.2788
H4 H 0.3913 0.2383 0.3610
C6 C 0.6036(7) 0.3673(6) 0.4693(5)
H5 H 0.5519 0.3590 0.4823
H6 H 0.6644 0.4121 0.5133
C7 C 0.4431(6) 0.2705(6) 0.2275(5)
C8 C 0.4901(6) 0.3695(6) 0.3423(5)
H7 H 0.4457 0.3808 0.3576
C9 C 0.5124(6) 0.4214(6) 0.2886(5)
H8 H 0.4760 0.4560 0.2764
C10 C 0.6545(6) 0.4670(5) 0.4008(5)
C11 C 0.4682(7) 0.3666(6) 0.1490(5)
H9 H 0.4192 0.3109 0.1078
H10 H 0.4435 0.4101 0.1424
C12 C 0.6664(7) 0.5475(6) 0.3109(5)
H11 H 0.7267 0.5908 0.3562
H12 H 0.6275 0.5779 0.2912
C13 C 0.5620(8) 0.3468(7) 0.0895(5)
C14 C 0.6250(7) 0.4881(6) 0.1732(5)
H13 H 0.5950 0.5275 0.1594
C15 C 0.6887(8) 0.4912(6) 0.1380(6)
H14 H 0.6929 0.5346 0.1098
C16 C 0.7802(7) 0.5355(6) 0.2704(5)
C17 C 0.6637(6) 0.3766(6) 0.0281(5)
H15 H 0.6702 0.4225 0.0032
H16 H 0.6083 0.3213 -0.0100
C18 C 0.8716(8) 0.5487(6) 0.2013(6)
H17 H 0.9250 0.5824 0.2533
H18 H 0.8717 0.5896 0.1714
C19 C 0.7460(7) 0.2876(7) 0.0222(5)
C20 C 0.8444(7) 0.4394(6) 0.0869(5)
H19 H 0.8453 0.4834 0.0594
C21 C 0.9061(7) 0.3949(6) 0.0802(5)
H20 H 0.9396 0.4195 0.0515
C22 C 0.9629(8) 0.4663(7) 0.2082(6)
C23 C 0.8565(7) 0.2396(6) 0.0035(5)
H21 H 0.7959 0.1946 -0.0407
H22 H 0.9004 0.2703 -0.0152
C24 C 1.0545(7) 0.3972(6) 0.1825(6)
H23 H 1.1016 0.4346 0.2354
H24 H 1.0849 0.4142 0.1507
C25 C 0.8525(7) 0.1108(6) 0.0496(5)
C26 C 1.0013(6) 0.2367(5) 0.1086(5)
H25 H 1.0423 0.2584 0.0846
C27 C 1.0139(6) 0.1617(5) 0.1397(5)
H26 H 1.0538 0.1434 0.1231
C28 C 1.0605(6) 0.2804(5) 0.2405(5)
C29 C 0.8905(7) 0.0050(5) 0.1124(5)
H27 H 0.8301 -0.0400 0.0682
H28 H 0.9417 -0.0110 0.1166
C30 C 1.0943(6) 0.1581(6) 0.2740(5)
H29 H 1.1473 0.2089 0.3186
H30 H 1.1222 0.1234 0.2581
C31 C 0.7941(6) -0.0267(6) 0.1778(5)
C32 C 0.9562(7) 0.0123(6) 0.2516(5)
H31 H 0.9856 -0.0266 0.2454
C33 C 0.9058(6) -0.0109(6) 0.3001(5)
H32 H 0.9108 -0.0612 0.3175
C34 C 1.0208(7) 0.1340(6) 0.3582(4)
C35 C 0.7238(7) -0.0843(6) 0.2568(5)
H33 H 0.6653 -0.1135 0.2070
H34 H 0.7345 -0.1305 0.2774
C36 C 0.9423(7) 0.0737(7) 0.4304(5)
H35 H 0.9978 0.1265 0.4717
H36 H 0.9432 0.0219 0.4458
C37 C 0.6194(7) -0.0336(6) 0.2837(5)
C38 C 0.7638(7) -0.0027(6) 0.3901(5)
H37 H 0.7727 -0.0511 0.4088
C39 C 0.7058(6) 0.0269(5) 0.4164(5)
H38 H 0.6909 -0.0040 0.4514
C40 C 0.8565(6) 0.1478(6) 0.4615(5)
C41 C 0.5300(6) -0.0048(6) 0.3469(6)
H39 H 0.5221 -0.0346 0.3839
H40 H 0.4751 -0.0426 0.2964
C42 C 0.7529(7) 0.1738(6) 0.5085(5)
H41 H 0.8129 0.2286 0.5409
H42 H 0.7386 0.1401 0.5416
N1 N 0.5284(5) 0.0784(5) 0.3656(4)
N2 N 0.4579(5) 0.1657(4) 0.3515(4)
N3 N 0.6749(5) 0.1960(4) 0.4707(4)
N4 N 0.6088(5) 0.2851(5) 0.4567(4)
N5 N 0.4489(5) 0.2796(4) 0.2952(4)
N6 N 0.4815(5) 0.3523(4) 0.2214(4)
N7 N 0.5863(5) 0.4000(5) 0.4065(4)
N8 N 0.6150(5) 0.4784(5) 0.3333(4)
N9 N 0.5526(6) 0.3963(5) 0.1424(4)
N10 N 0.6446(6) 0.4009(5) 0.0881(4)
N11 N 0.6890(6) 0.5174(6) 0.2539(4)
N12 N 0.7825(6) 0.5157(5) 0.2039(4)
N13 N 0.7507(6) 0.3649(5) 0.0537(4)
N14 N 0.8368(6) 0.3034(5) 0.0412(4)
N15 N 0.8886(6) 0.4794(5) 0.1682(4)
N16 N 0.9738(6) 0.4131(5) 0.1593(4)
N17 N 0.8993(5) 0.1962(5) 0.0540(4)
N18 N 0.9133(5) 0.0906(5) 0.0996(4)
N19 N 1.0308(5) 0.3039(5) 0.1774(4)
N20 N 1.0566(6) 0.1874(8) 0.2189(4)
N21 N 0.8805(5) 0.0037(5) 0.1793(4)
N22 N 0.8048(5) -0.0335(5) 0.2468(4)
N23 N 1.0293(5) 0.1052(4) 0.2962(4)
N24 N 0.9526(5) 0.0693(5) 0.3636(4)
N25 N 0.7093(5) -0.0307(5) 0.3072(4)
N26 N 0.6174(5) 0.0049(5) 0.3467(4)
N27 N 0.8549(5) 0.0769(5) 0.4208(4)
N28 N 0.7680(5) 0.1222(4) 0.4559(4)
O11 O 0.4109(5) 0.0558(4) 0.2453(4)
O12 O 0.4087(4) 0.2014(3) 0.1766(3)
O13 O 0.5074(5) 0.2701(5) 0.0512(4)
O14 O 0.6732(5) 0.2160(5) -0.0132(5)
O15 O 0.7676(4) 0.0603(4) 0.0041(3)
O16 O 0.7169(5) -0.0449(5) 0.1235(4)
O17 O 0.5553(5) -0.0630(5) 0.2186(4)
O18 O 0.7723(5) 0.3440(4) 0.5061(4)
O19 O 0.7404(4) 0.5108(4) 0.4513(3)
O20 O 0.8493(5) 0.5621(5) 0.3340(4)
O21 O 1.0157(6) 0.4968(5) 0.2779(4)
O22 O 1.0926(5) 0.3258(4) 0.3045(3)
O23 O 1.0739(5) 0.2110(4) 0.4035(4)
O24 O 0.9245(5) 0.2193(5) 0.4991(4)
Dy1A Dy 0.65272(3) -0.04795(3) -0.11842(2)
Dy2A Dy 1.14653(3) 0.36368(3) 0.43785(2)
O15A O 0.2324(4) -0.0603(4) -0.0041(3)
O22A O 0.9074(5) 0.6742(4) 0.6955(3)
O23A O 0.9261(5) 0.7890(4) 0.5965(4)
Cl1 Cl 0.8194(3) -0.1959(2) 0.3896(2)
Cl6? Cl 1.2627(11) 0.8243(10) 0.8968(8)
loop_
_geom_bond_atom_site_label_1
_geom_bond_atom_site_label_2
_geom_bond_site_symmetry_1
_geom_bond_site_symmetry_2
Cl7 Co1 1_555 1_555
Cl8 Co1 1_555 1_555
Cl9 Co1 1_555 1_555
Cl10 Co1 1_555 1_555
Dy1 O1 1_555 1_555
Dy2 O6 1_555 1_555
O2 Dy1 1_555 1_555
O3 Dy1 1_555 1_555
O4 Dy1 1_555 1_555
O5 Dy1 1_555 1_555
O7 Dy2 1_555 1_555
O8 Dy2 1_555 1_555
O9 Dy2 1_555 1_555
O10 Dy2 1_555 1_555
C1 N1 1_555 1_555
C2 H1 1_555 1_555
C3 C2 1_555 1_555
H2 C3 1_555 1_555
C4 N3 1_555 1_555
C5 H3 1_555 1_555
H4 C5 1_555 1_555
C6 H5 1_555 1_555
H6 C6 1_555 1_555
C7 N5 1_555 1_555
C8 H7 1_555 1_555
C9 C8 1_555 1_555
H8 C9 1_555 1_555
C10 N7 1_555 1_555
C11 H9 1_555 1_555
H10 C11 1_555 1_555
C12 H11 1_555 1_555
H12 C12 1_555 1_555
C13 N9 1_555 1_555
C14 H13 1_555 1_555
C15 C14 1_555 1_555
H14 C15 1_555 1_555
C16 N11 1_555 1_555
C17 H15 1_555 1_555
H16 C17 1_555 1_555
C18 H17 1_555 1_555
H18 C18 1_555 1_555
C19 N13 1_555 1_555
C20 H19 1_555 1_555
C21 C20 1_555 1_555
H20 C21 1_555 1_555
C22 N15 1_555 1_555
C23 H21 1_555 1_555
H22 C23 1_555 1_555
C24 H23 1_555 1_555
H24 C24 1_555 1_555
C25 N17 1_555 1_555
C26 H25 1_555 1_555
C27 C26 1_555 1_555
H26 C27 1_555 1_555
C28 N19 1_555 1_555
C29 H27 1_555 1_555
H28 C29 1_555 1_555
C30 H29 1_555 1_555
H30 C30 1_555 1_555
C31 N21 1_555 1_555
C32 H31 1_555 1_555
C33 C32 1_555 1_555
H32 C33 1_555 1_555
C34 N23 1_555 1_555
C35 H33 1_555 1_555
H34 C35 1_555 1_555
C36 H35 1_555 1_555
H36 C36 1_555 1_555
C37 N25 1_555 1_555
C38 H37 1_555 1_555
C39 C38 1_555 1_555
H38 C39 1_555 1_555
C40 N27 1_555 1_555
C41 H39 1_555 1_555
H40 C41 1_555 1_555
C42 H41 1_555 1_555
H42 C42 1_555 1_555
N1 C2 1_555 1_555
N2 C1 1_555 1_555
N3 C2 1_555 1_555
N4 C3 1_555 1_555
N5 C5 1_555 1_555
N6 C7 1_555 1_555
N7 C6 1_555 1_555
N8 C9 1_555 1_555
N9 C11 1_555 1_555
N10 C13 1_555 1_555
N11 C12 1_555 1_555
N12 C15 1_555 1_555
N13 C17 1_555 1_555
N14 C19 1_555 1_555
N15 C18 1_555 1_555
N16 C21 1_555 1_555
N17 C23 1_555 1_555
N18 C25 1_555 1_555
N19 C24 1_555 1_555
N20 C27 1_555 1_555
N21 C29 1_555 1_555
N22 C31 1_555 1_555
N23 C30 1_555 1_555
N24 C33 1_555 1_555
N25 C35 1_555 1_555
N26 C37 1_555 1_555
N27 C36 1_555 1_555
N28 C39 1_555 1_555
O11 Dy1 1_555 1_555
O12 Dy1 1_555 1_555
O13 C13 1_555 1_555
O14 C19 1_555 1_555
O15 C25 1_555 1_555
O16 C31 1_555 1_555
O17 C37 1_555 1_555
O18 C4 1_555 1_555
O19 Dy2 1_555 1_555
O20 C16 1_555 1_555
O21 C22 1_555 1_555
O22 C28 1_555 1_555
O23 C34 1_555 1_555
O24 C40 1_555 1_555
Dy1A O15 1_555 1_555
Dy2A O22 1_555 1_555
O15A Dy1 1_555 1_555
O22A Dy2 1_555 1_555
O23A Dy2 1_555 1_555
C1 O11 1_555 1_555
C3 N2 1_555 1_555
C4 N4 1_555 1_555
C5 N2 1_555 1_555
C6 N4 1_555 1_555
C7 O12 1_555 1_555
C8 N5 1_555 1_555
C8 N7 1_555 1_555
C9 N6 1_555 1_555
C10 N8 1_555 1_555
C10 O19 1_555 1_555
C11 N6 1_555 1_555
C12 N8 1_555 1_555
C14 N9 1_555 1_555
C14 N11 1_555 1_555
C15 N10 1_555 1_555
C16 N12 1_555 1_555
C17 N10 1_555 1_555
C18 N12 1_555 1_555
C20 N13 1_555 1_555
C20 N15 1_555 1_555
C21 N14 1_555 1_555
C22 N16 1_555 1_555
C23 N14 1_555 1_555
C24 N16 1_555 1_555
C26 N17 1_555 1_555
C26 N19 1_555 1_555
C27 N18 1_555 1_555
C28 N20 1_555 1_555
C29 N18 1_555 1_555
C30 N20 1_555 1_555
C32 N21 1_555 1_555
C32 N23 1_555 1_555
C33 N22 1_555 1_555
C34 N24 1_555 1_555
C35 N22 1_555 1_555
C36 N24 1_555 1_555
C38 N25 1_555 1_555
C38 N27 1_555 1_555
C39 N26 1_555 1_555
C40 N28 1_555 1_555
C41 N1 1_555 1_555
C41 N26 1_555 1_555
C42 N3 1_555 1_555
C42 N28 1_555 1_555
O23 Dy2A 1_555 1_555

#END
