
#######################################################################
#
#                 Cambridge Crystallographic Data Centre
#                                CCDC 
#
#######################################################################
#
# If this CIF has been generated from an entry in the Cambridge 
# Structural Database, then it will include bibliographic, chemical, 
# crystal, experimental, refinement or atomic coordinate data resulting 
# from the CCDC's data processing and validation procedures.
#
#######################################################################

data_VOJPUG01
_symmetry_cell_setting           orthorhombic
_symmetry_space_group_name_H-M   'P n a 21'
_symmetry_Int_Tables_number      33
_space_group_name_Hall           'P 2c -2n'
loop_
_symmetry_equiv_pos_site_id
_symmetry_equiv_pos_as_xyz
1 x,y,z
2 -x,-y,1/2+z
3 1/2+x,1/2-y,z
4 1/2-x,1/2+y,1/2+z
_cell_length_a                   21.248(7)
_cell_length_b                   9.117(2)
_cell_length_c                   6.3802(15)
_cell_angle_alpha                90
_cell_angle_beta                 90
_cell_angle_gamma                90
_cell_volume                     1235.96
loop_
_atom_site_label
_atom_site_type_symbol
_atom_site_fract_x
_atom_site_fract_y
_atom_site_fract_z
Cu1 Cu 0.411570(11) 0.10989(3) 0.37670(8)
O1 O 0.47329(9) 0.0640(2) 0.5960(3)
O2 O 0.57651(9) 0.0804(2) 0.6592(4)
O3 O 0.34765(8) 0.2069(2) 0.1994(3)
O4 O 0.33382(11) 0.3391(3) 0.4880(4)
N1 N 0.48182(10) 0.2329(2) 0.2671(4)
N2 N 0.15683(10) 0.5001(2) 0.0241(4)
C1 C 0.48299(16) 0.3181(3) 0.0971(6)
H1 H 0.4473 0.3243 0.0129
C2 C 0.5360(2) 0.3972(4) 0.0435(7)
H2 H 0.5358 0.4570 -0.0746
C3 C 0.58899(16) 0.3868(4) 0.1661(9)
H3 H 0.6250 0.4394 0.1318
C4 C 0.58819(13) 0.2974(3) 0.3406(7)
H4 H 0.6233 0.2898 0.4268
C5 C 0.53398(10) 0.2194(2) 0.3844(6)
C6 C 0.52839(13) 0.1134(3) 0.5623(5)
C7 C 0.31957(14) 0.3036(3) 0.3095(5)
C8 C 0.26285(13) 0.3742(3) 0.2051(5)
C9 C 0.22305(13) 0.4650(3) 0.3191(4)
H5 H 0.2317 0.4854 0.4590
C10 C 0.17081(13) 0.5246(3) 0.2248(5)
H6 H 0.1443 0.5840 0.3037
C11 C 0.19499(13) 0.4123(3) -0.0857(5)
H7 H 0.1853 0.3931 -0.2252
C12 C 0.24793(13) 0.3492(3) -0.0007(5)
H8 H 0.2736 0.2897 -0.0827
Cu1A Cu 0.588430(11) -0.10989(3) 0.87670(8)
Cu1C Cu 0.088430(11) 0.60989(3) -0.12330(8)
O2A O 0.42349(9) -0.0804(2) 0.1592(4)
N2C N 0.34317(10) 0.0001(2) 0.5241(4)
loop_
_geom_bond_atom_site_label_1
_geom_bond_atom_site_label_2
_geom_bond_site_symmetry_1
_geom_bond_site_symmetry_2
Cu1 O1 1_555 1_555
O1 C6 1_555 1_555
O2 C6 1_555 1_555
O3 Cu1 1_555 1_555
O4 C7 1_555 1_555
N1 Cu1 1_555 1_555
N2 C10 1_555 1_555
C1 N1 1_555 1_555
H1 C1 1_555 1_555
C2 C1 1_555 1_555
H2 C2 1_555 1_555
C3 C2 1_555 1_555
H3 C3 1_555 1_555
C4 C3 1_555 1_555
H4 C4 1_555 1_555
C5 N1 1_555 1_555
C6 C5 1_555 1_555
C7 O3 1_555 1_555
C8 C7 1_555 1_555
C9 C8 1_555 1_555
H5 C9 1_555 1_555
C10 C9 1_555 1_555
H6 C10 1_555 1_555
C11 N2 1_555 1_555
H7 C11 1_555 1_555
C12 C8 1_555 1_555
H8 C12 1_555 1_555
Cu1A O2 1_555 1_555
Cu1C N2 1_555 1_555
O2A Cu1 1_555 1_555
N2C Cu1 1_555 1_555
C4 C5 1_555 1_555
C11 C12 1_555 1_555

#END
