
#######################################################################
#
#                 Cambridge Crystallographic Data Centre
#                                CCDC 
#
#######################################################################
#
# If this CIF has been generated from an entry in the Cambridge 
# Structural Database, then it will include bibliographic, chemical, 
# crystal, experimental, refinement or atomic coordinate data resulting 
# from the CCDC's data processing and validation procedures.
#
#######################################################################

data_VOJPAN
_symmetry_cell_setting           triclinic
_symmetry_space_group_name_H-M   'P -1'
_symmetry_Int_Tables_number      2
_space_group_name_Hall           '-P 1'
loop_
_symmetry_equiv_pos_site_id
_symmetry_equiv_pos_as_xyz
1 x,y,z
2 -x,-y,-z
_cell_length_a                   17.0773(11)
_cell_length_b                   17.3435(11)
_cell_length_c                   18.243(2)
_cell_angle_alpha                103.410(3)
_cell_angle_beta                 103.249(3)
_cell_angle_gamma                110.144(2)
_cell_volume                     4643.25
loop_
_atom_site_label
_atom_site_type_symbol
_atom_site_fract_x
_atom_site_fract_y
_atom_site_fract_z
Cl2 Cl 1.38264(13) 0.67995(14) 0.71863(12)
Cl3 Cl 0.38396(16) -0.08726(14) 0.37369(12)
Cl4 Cl 0.6708(3) -0.2891(2) 0.1199(2)
Cl5 Cl 0.36160(11) 0.51765(14) 0.09149(10)
Cl6 Cl 0.28916(11) 0.51282(11) 0.26477(9)
Cl7 Cl 0.18513(12) 0.30917(12) 0.08012(11)
Cl8 Cl 0.12911(10) 0.49151(11) 0.08089(11)
Co1 Co 0.24366(5) 0.45775(6) 0.12867(5)
O1 O 0.7530(3) -0.1805(3) 0.0178(2)
O2 O 0.5941(3) -0.1687(3) 0.0408(2)
O3 O 0.7957(3) -0.1012(3) -0.0986(3)
O4 O 0.6742(3) -0.0001(3) -0.1141(2)
O5 O 0.5985(4) -0.0149(4) 0.0092(3)
O6 O 0.4946(3) -0.1682(4) -0.1281(3)
O7 O 1.1708(3) 0.5198(3) 0.3965(2)
O8 O 1.2443(2) 0.3898(3) 0.3647(2)
O9 O 1.2198(3) 0.2916(3) 0.4643(3)
O10 O 1.2088(3) 0.5577(3) 0.5848(3)
O11 O 1.0435(3) 0.4422(4) 0.4664(3)
O12 O 1.1047(3) 0.3425(3) 0.5539(3)
Ce1 Ce 0.655746(19) -0.12315(2) -0.061176(17)
Ce2 Ce 1.18761(2) 0.42650(2) 0.480070(17)
C1 C 0.8452(4) 0.0499(3) 0.1091(3)
C2 C 0.9913(4) 0.1551(3) 0.1728(3)
H1 H 1.0401 0.1513 0.1538
C3 C 0.9690(3) 0.0965(3) 0.2235(3)
H2 H 1.0061 0.0635 0.2268
C4 C 1.0227(3) 0.2411(3) 0.3024(3)
C5 C 0.8275(4) -0.0353(3) 0.2011(3)
H3 H 0.7790 -0.0800 0.1534
H4 H 0.8679 -0.0609 0.2196
C6 C 0.9917(4) 0.1344(4) 0.3727(3)
H5 H 1.0345 0.1857 0.4191
H6 H 1.0134 0.0887 0.3695
C7 C 0.7065(4) -0.0231(4) 0.2485(3)
C8 C 0.8406(4) 0.0149(4) 0.3476(3)
H7 H 0.8652 -0.0267 0.3590
C9 C 0.7680(4) 0.0136(4) 0.3861(3)
H8 H 0.7568 -0.0301 0.4135
C10 C 0.8864(3) 0.1538(4) 0.4407(3)
C11 C 0.6019(4) -0.0329(4) 0.3215(4)
H9 H 0.5599 -0.0675 0.2670
H10 H 0.5935 -0.0706 0.3542
C12 C 0.7720(4) 0.1300(4) 0.5054(3)
H11 H 0.7550 0.0839 0.5287
H12 H 0.8196 0.1824 0.5476
C13 C 0.5142(4) 0.0516(4) 0.3117(3)
C14 C 0.6079(4) 0.0807(4) 0.4399(3)
H13 H 0.5969 0.0374 0.4677
C15 C 0.5481(4) 0.1296(4) 0.4453(3)
H14 H 0.5093 0.1096 0.4762
C16 C 0.6970(4) 0.2292(4) 0.5081(3)
C17 C 0.4150(3) 0.1187(4) 0.3429(3)
H15 H 0.3771 0.0781 0.2887
H16 H 0.3842 0.1023 0.3799
C18 C 0.5874(4) 0.2883(4) 0.5221(3)
H17 H 0.6406 0.3373 0.5624
H18 H 0.5465 0.2657 0.5498
C19 C 0.4031(3) 0.2263(4) 0.2789(3)
C20 C 0.4507(4) 0.2771(4) 0.4186(3)
H19 H 0.4144 0.2600 0.4522
C21 C 0.4349(4) 0.3481(4) 0.3869(3)
H20 H 0.3868 0.3602 0.4012
C22 C 0.5826(3) 0.4026(4) 0.4651(3)
C23 C 0.3707(3) 0.3419(4) 0.2436(3)
H21 H 0.3425 0.3759 0.2686
H22 H 0.3243 0.2924 0.1977
C24 C 0.5375(4) 0.5021(4) 0.4076(3)
H23 H 0.5882 0.5492 0.4522
H24 H 0.4865 0.5166 0.4044
C25 C 0.4526(3) 0.3632(3) 0.1499(3)
C26 C 0.4911(3) 0.4852(3) 0.2597(3)
H25 H 0.4582 0.5218 0.2674
C27 C 0.5493(3) 0.5104(3) 0.2079(3)
H26 H 0.5405 0.5562 0.1878
C28 C 0.6395(3) 0.5339(3) 0.3338(3)
C29 C 0.5378(3) 0.4230(4) 0.0692(3)
H27 H 0.5330 0.4711 0.0519
H28 H 0.4933 0.3681 0.0277
C30 C 0.7164(4) 0.5908(3) 0.2459(3)
H29 H 0.7651 0.6256 0.2970
H30 H 0.7037 0.6316 0.2211
C31 C 0.6383(3) 0.3581(3) 0.0362(3)
C32 C 0.7036(3) 0.5063(3) 0.1084(3)
H31 H 0.6933 0.5517 0.0885
C33 C 0.7718(3) 0.4805(3) 0.0788(3)
H32 H 0.7890 0.5088 0.0402
C34 C 0.8290(3) 0.5447(3) 0.2174(3)
C35 C 0.7536(3) 0.3358(3) -0.0125(3)
H33 H 0.7768 0.3696 -0.0450
H34 H 0.7027 0.2818 -0.0489
C36 C 0.9336(3) 0.5190(3) 0.1507(3)
H35 H 0.9461 0.5416 0.1082
H36 H 0.9777 0.5615 0.2020
C37 C 0.8068(4) 0.2276(3) 0.0167(3)
C38 C 0.9141(3) 0.3724(3) 0.0613(3)
H37 H 0.9331 0.3993 0.0224
C39 C 0.9608(3) 0.3122(3) 0.0789(3)
H38 H 1.0066 0.3158 0.0533
C40 C 0.9913(3) 0.4215(3) 0.1992(3)
C41 C 0.9001(4) 0.1474(3) 0.0362(3)
H39 H 0.9535 0.1547 0.0218
H40 H 0.8494 0.1005 -0.0085
C42 C 1.0602(3) 0.3205(3) 0.2108(3)
H41 H 1.0976 0.3682 0.2616
H42 H 1.0988 0.3109 0.1808
N1 N 0.9082(3) 0.1215(3) 0.1060(2)
N2 N 0.8749(3) 0.0375(3) 0.1790(3)
N3 N 1.0166(3) 0.2414(3) 0.2277(2)
N4 N 0.9880(3) 0.1574(3) 0.3011(2)
N5 N 0.7918(3) -0.0124(3) 0.2622(2)
N6 N 0.6913(3) -0.0068(3) 0.3190(3)
N7 N 0.9069(3) 0.1037(3) 0.3853(3)
N8 N 0.8048(3) 0.1025(3) 0.4420(3)
N9 N 0.5820(3) 0.0385(3) 0.3529(3)
N10 N 0.4968(3) 0.1093(3) 0.3630(3)
N11 N 0.6964(3) 0.1487(3) 0.4770(3)
N12 N 0.6119(3) 0.2206(3) 0.4866(3)
N13 N 0.4266(3) 0.2056(3) 0.3462(3)
N14 N 0.4102(3) 0.3089(3) 0.3007(2)
N15 N 0.5458(3) 0.3204(3) 0.4647(3)
N16 N 0.5186(3) 0.4232(3) 0.4256(2)
N17 N 0.4334(3) 0.3962(3) 0.2152(2)
N18 N 0.5192(3) 0.4294(3) 0.1429(2)
N19 N 0.5571(3) 0.5001(3) 0.3350(3)
N20 N 0.6396(3) 0.5417(3) 0.2619(2)
N21 N 0.6259(3) 0.4261(3) 0.0771(2)
N22 N 0.7245(3) 0.3855(3) 0.0413(3)
N23 N 0.7452(3) 0.5384(3) 0.1946(3)
N24 N 0.8455(3) 0.5097(3) 0.1509(2)
N25 N 0.8221(3) 0.3138(3) 0.0295(3)
N26 N 0.8886(3) 0.2266(3) 0.0471(2)
N27 N 0.9415(3) 0.4366(3) 0.1382(3)
N28 N 0.9987(3) 0.3462(3) 0.1656(2)
O13 O 0.7721(2) 0.0018(2) 0.0552(2)
O14 O 0.6524(3) -0.0442(3) 0.1824(2)
O15 O 0.4743(3) 0.0169(3) 0.2385(2)
O16 O 0.3771(2) 0.1758(2) 0.2090(2)
O17 O 0.4156(2) 0.2868(2) 0.1042(2)
O18 O 0.5808(3) 0.2835(3) -0.0022(3)
O19 O 0.7356(2) 0.1655(2) -0.0149(2)
O20 O 1.0564(2) 0.3063(2) 0.3638(2)
O21 O 0.9320(3) 0.2292(3) 0.4824(3)
O22 O 0.7630(3) 0.2969(3) 0.5478(3)
O23 O 0.6613(3) 0.4541(3) 0.4999(2)
O24 O 0.7090(2) 0.5596(3) 0.3920(2)
O25 O 0.8831(3) 0.5792(3) 0.2859(2)
O26 O 1.0245(3) 0.4680(3) 0.2690(2)
Ce1A Ce 0.344254(19) 0.12315(2) 0.061176(17)
Ce2A Ce 0.81239(2) 0.57350(2) 0.519930(17)
O16A O 0.6229(2) -0.1758(2) -0.2090(2)
O17A O 0.5844(2) -0.2868(2) -0.1042(2)
O23A O 1.3387(3) 0.5459(3) 0.5001(2)
O24A O 1.2910(2) 0.4404(3) 0.6080(2)
Cl1 Cl 1.19940(10) 0.19318(11) 0.28528(10)
loop_
_geom_bond_atom_site_label_1
_geom_bond_atom_site_label_2
_geom_bond_site_symmetry_1
_geom_bond_site_symmetry_2
Cl5 Co1 1_555 1_555
Cl6 Co1 1_555 1_555
Cl7 Co1 1_555 1_555
Cl8 Co1 1_555 1_555
O1 Ce1 1_555 1_555
O2 Ce1 1_555 1_555
O3 Ce1 1_555 1_555
O4 Ce1 1_555 1_555
O5 Ce1 1_555 1_555
O6 Ce1 1_555 1_555
O7 Ce2 1_555 1_555
O8 Ce2 1_555 1_555
O9 Ce2 1_555 1_555
O10 Ce2 1_555 1_555
O11 Ce2 1_555 1_555
O12 Ce2 1_555 1_555
Ce1 O13 1_555 1_555
Ce2 O20 1_555 1_555
C1 N1 1_555 1_555
C2 H1 1_555 1_555
C3 C2 1_555 1_555
H2 C3 1_555 1_555
C4 N3 1_555 1_555
C5 H3 1_555 1_555
H4 C5 1_555 1_555
C6 H5 1_555 1_555
H6 C6 1_555 1_555
C7 N5 1_555 1_555
C8 H7 1_555 1_555
C9 C8 1_555 1_555
H8 C9 1_555 1_555
C10 N7 1_555 1_555
C11 H9 1_555 1_555
H10 C11 1_555 1_555
C12 H11 1_555 1_555
H12 C12 1_555 1_555
C13 N9 1_555 1_555
C14 H13 1_555 1_555
C15 C14 1_555 1_555
H14 C15 1_555 1_555
C16 N11 1_555 1_555
C17 H15 1_555 1_555
H16 C17 1_555 1_555
C18 H17 1_555 1_555
H18 C18 1_555 1_555
C19 N13 1_555 1_555
C20 H19 1_555 1_555
C21 C20 1_555 1_555
H20 C21 1_555 1_555
C22 N15 1_555 1_555
C23 H21 1_555 1_555
H22 C23 1_555 1_555
C24 H23 1_555 1_555
H24 C24 1_555 1_555
C25 N17 1_555 1_555
C26 H25 1_555 1_555
C27 C26 1_555 1_555
H26 C27 1_555 1_555
C28 N19 1_555 1_555
C29 H27 1_555 1_555
H28 C29 1_555 1_555
C30 H29 1_555 1_555
H30 C30 1_555 1_555
C31 N21 1_555 1_555
C32 H31 1_555 1_555
C33 C32 1_555 1_555
H32 C33 1_555 1_555
C34 N23 1_555 1_555
C35 H33 1_555 1_555
H34 C35 1_555 1_555
C36 H35 1_555 1_555
H36 C36 1_555 1_555
C37 N25 1_555 1_555
C38 H37 1_555 1_555
C39 C38 1_555 1_555
H38 C39 1_555 1_555
C40 N27 1_555 1_555
C41 H39 1_555 1_555
H40 C41 1_555 1_555
C42 H41 1_555 1_555
H42 C42 1_555 1_555
N1 C2 1_555 1_555
N2 C1 1_555 1_555
N3 C2 1_555 1_555
N4 C3 1_555 1_555
N5 C5 1_555 1_555
N6 C7 1_555 1_555
N7 C6 1_555 1_555
N8 C9 1_555 1_555
N9 C11 1_555 1_555
N10 C13 1_555 1_555
N11 C12 1_555 1_555
N12 C15 1_555 1_555
N13 C17 1_555 1_555
N14 C19 1_555 1_555
N15 C18 1_555 1_555
N16 C21 1_555 1_555
N17 C23 1_555 1_555
N18 C25 1_555 1_555
N19 C24 1_555 1_555
N20 C27 1_555 1_555
N21 C29 1_555 1_555
N22 C31 1_555 1_555
N23 C30 1_555 1_555
N24 C33 1_555 1_555
N25 C35 1_555 1_555
N26 C37 1_555 1_555
N27 C36 1_555 1_555
N28 C39 1_555 1_555
O13 C1 1_555 1_555
O14 C7 1_555 1_555
O15 C13 1_555 1_555
O16 C19 1_555 1_555
O17 C25 1_555 1_555
O18 C31 1_555 1_555
O19 C37 1_555 1_555
O20 C4 1_555 1_555
O21 C10 1_555 1_555
O22 C16 1_555 1_555
O23 C22 1_555 1_555
O24 C28 1_555 1_555
O25 C34 1_555 1_555
O26 C40 1_555 1_555
Ce1A O16 1_555 1_555
Ce2A O23 1_555 1_555
O16A Ce1 1_555 1_555
O17A Ce1 1_555 1_555
O23A Ce2 1_555 1_555
O24A Ce2 1_555 1_555
C3 N2 1_555 1_555
C4 N4 1_555 1_555
C5 N2 1_555 1_555
C6 N4 1_555 1_555
C8 N5 1_555 1_555
C8 N7 1_555 1_555
C9 N6 1_555 1_555
C10 N8 1_555 1_555
C11 N6 1_555 1_555
C12 N8 1_555 1_555
C14 N9 1_555 1_555
C14 N11 1_555 1_555
C15 N10 1_555 1_555
C16 N12 1_555 1_555
C17 N10 1_555 1_555
C18 N12 1_555 1_555
C20 N13 1_555 1_555
C20 N15 1_555 1_555
C21 N14 1_555 1_555
C22 N16 1_555 1_555
C23 N14 1_555 1_555
C24 N16 1_555 1_555
C26 N17 1_555 1_555
C26 N19 1_555 1_555
C27 N18 1_555 1_555
C28 N20 1_555 1_555
C29 N18 1_555 1_555
C30 N20 1_555 1_555
C32 N21 1_555 1_555
C32 N23 1_555 1_555
C33 N22 1_555 1_555
C34 N24 1_555 1_555
C35 N22 1_555 1_555
C36 N24 1_555 1_555
C38 N25 1_555 1_555
C38 N27 1_555 1_555
C39 N26 1_555 1_555
C40 N28 1_555 1_555
C41 N1 1_555 1_555
C41 N26 1_555 1_555
C42 N3 1_555 1_555
C42 N28 1_555 1_555
O17 Ce1A 1_555 1_555
O24 Ce2A 1_555 1_555

#END
