
#######################################################################
#
#                 Cambridge Crystallographic Data Centre
#                                CCDC 
#
#######################################################################
#
# If this CIF has been generated from an entry in the Cambridge 
# Structural Database, then it will include bibliographic, chemical, 
# crystal, experimental, refinement or atomic coordinate data resulting 
# from the CCDC's data processing and validation procedures.
#
#######################################################################

data_VOJPIV
_symmetry_cell_setting           triclinic
_symmetry_space_group_name_H-M   'P -1'
_symmetry_Int_Tables_number      2
_space_group_name_Hall           '-P 1'
loop_
_symmetry_equiv_pos_site_id
_symmetry_equiv_pos_as_xyz
1 x,y,z
2 -x,-y,-z
_cell_length_a                   17.2440(6)
_cell_length_b                   17.3617(6)
_cell_length_c                   18.1955(11)
_cell_angle_alpha                102.902(2)
_cell_angle_beta                 103.810(2)
_cell_angle_gamma                110.4590(10)
_cell_volume                     4666.19
loop_
_atom_site_label
_atom_site_type_symbol
_atom_site_fract_x
_atom_site_fract_y
_atom_site_fract_z
Cl2 Cl 0.38865(18) 0.41140(15) 0.37432(14)
O1 O 0.7543(3) 0.3220(3) 1.0131(3)
O2 O 0.5982(3) 0.3294(3) 1.0403(3)
O3 O 0.6713(4) 0.5005(3) 0.8863(3)
O4 O 0.6000(4) 0.4832(4) 1.0096(3)
O5 O 0.4982(3) 0.3346(4) 0.8719(3)
O6 O 0.7931(3) 0.4046(5) 0.9015(3)
O7 O -0.1740(3) -0.0213(3) 0.6067(3)
O8 O -0.2484(3) 0.1056(3) 0.6353(3)
O9 O -0.1080(3) 0.1541(3) 0.4504(3)
O10 O -0.2198(4) 0.2035(3) 0.5367(3)
O11 O -0.0484(3) 0.0543(3) 0.5373(3)
O12 O -0.2102(3) -0.0582(3) 0.4186(3)
Nd1 Nd 0.656190(18) 0.378853(19) 0.938870(18)
Nd2 Nd -0.189958(18) 0.070655(18) 0.522666(17)
C1 C 0.5464(3) 0.1409(4) 0.8494(3)
C2 C 0.4509(3) -0.0080(3) 0.7916(3)
H1 H 0.4605 -0.0530 0.8128
C3 C 0.5072(3) 0.0174(3) 0.7392(3)
H2 H 0.5404 -0.0183 0.7317
C4 C 0.3582(3) -0.0339(3) 0.6646(3)
C5 C 0.6286(3) 0.1630(4) 0.7563(3)
H3 H 0.6754 0.2120 0.8026
H4 H 0.6557 0.1282 0.7316
C6 C 0.4608(3) 0.0006(3) 0.5911(3)
H5 H 0.4101 -0.0463 0.5463
H6 H 0.5115 -0.0136 0.5947
C7 C 0.5956(3) 0.2776(4) 0.7214(3)
C8 C 0.5645(3) 0.1588(4) 0.6123(3)
H7 H 0.6117 0.1475 0.5967
C9 C 0.5468(3) 0.2287(3) 0.5814(3)
H8 H 0.5820 0.2471 0.5475
C10 C 0.4155(4) 0.1017(4) 0.5350(3)
C11 C 0.5815(3) 0.3857(3) 0.6581(3)
H9 H 0.6117 0.4033 0.6213
H10 H 0.6193 0.4260 0.7126
C12 C 0.4092(4) 0.2169(4) 0.4789(3)
H11 H 0.4497 0.2415 0.4519
H12 H 0.3569 0.1673 0.4378
C13 C 0.4820(4) 0.4502(4) 0.6896(4)
C14 C 0.4465(3) 0.3735(3) 0.5540(3)
H13 H 0.4843 0.3936 0.5227
C15 C 0.3876(4) 0.4222(4) 0.5605(3)
H14 H 0.3974 0.4657 0.5326
C16 C 0.2985(4) 0.2731(4) 0.4933(3)
C17 C 0.3927(4) 0.5347(4) 0.6788(4)
H15 H 0.3995 0.5721 0.6455
H16 H 0.4353 0.5697 0.7332
C18 C 0.2229(4) 0.3710(4) 0.4962(3)
H17 H 0.2397 0.4184 0.4740
H18 H 0.1757 0.3192 0.4527
C19 C 0.2899(4) 0.5232(4) 0.7533(4)
C20 C 0.2262(3) 0.4846(3) 0.6139(3)
H19 H 0.2369 0.5280 0.5859
C21 C 0.1560(4) 0.4846(4) 0.6532(3)
H20 H 0.1308 0.5255 0.6411
C22 C 0.1103(4) 0.3447(4) 0.5606(3)
C23 C 0.1694(4) 0.5335(4) 0.7998(3)
H21 H 0.1293 0.5590 0.7812
H22 H 0.2182 0.5782 0.8477
C24 C 0.0059(4) 0.3633(4) 0.6290(3)
H23 H -0.0151 0.4091 0.6321
H24 H -0.0372 0.3121 0.5825
C25 C 0.1542(4) 0.4486(3) 0.8921(3)
C26 C 0.0304(3) 0.4016(3) 0.7786(3)
H25 H -0.0068 0.4340 0.7747
C27 C 0.0094(4) 0.3435(4) 0.8314(3)
H26 H -0.0377 0.3486 0.8516
C28 C -0.0265(3) 0.2560(4) 0.7001(3)
C29 C 0.1027(4) 0.3512(4) 0.9679(3)
H27 H 0.1536 0.3986 1.0124
H28 H 0.0502 0.3428 0.9829
C30 C -0.0611(3) 0.1777(4) 0.7942(3)
H29 H -0.0972 0.1874 0.8263
H30 H -0.1005 0.1298 0.7438
C31 C 0.1951(3) 0.2706(4) 0.9864(3)
C32 C 0.0428(4) 0.1859(4) 0.9258(4)
H31 H -0.0013 0.1829 0.9526
C33 C 0.0889(4) 0.1253(4) 0.9421(3)
H32 H 0.0709 0.0971 0.9807
C34 C 0.0100(3) 0.0786(4) 0.8042(4)
C35 C 0.2490(4) 0.1620(4) 1.0150(3)
H33 H 0.2999 0.2157 1.0522
H34 H 0.2255 0.1274 1.0469
C36 C 0.0701(4) -0.0182(4) 0.8499(4)
H35 H 0.0257 -0.0605 0.7984
H36 H 0.0582 -0.0417 0.8923
C37 C 0.3644(4) 0.1423(4) 0.9664(3)
C38 C 0.2303(4) 0.0182(4) 0.9221(3)
H37 H 0.2125 -0.0120 0.9595
C39 C 0.2988(3) -0.0058(3) 0.8928(3)
H38 H 0.3096 -0.0509 0.9129
C40 C 0.1725(4) -0.0446(4) 0.7823(4)
C41 C 0.4629(4) 0.0792(4) 0.9306(3)
H39 H 0.4680 0.0306 0.9469
H40 H 0.5080 0.1337 0.9724
C42 C 0.2849(4) -0.0909(4) 0.7540(3)
H41 H 0.2987 -0.1311 0.7792
H42 H 0.2359 -0.1261 0.7030
N1 N 0.4799(3) 0.0743(3) 0.8559(3)
N2 N 0.5653(3) 0.1095(3) 0.7843(3)
N3 N 0.3610(3) -0.0399(3) 0.7377(3)
N4 N 0.4420(3) 0.0035(3) 0.6641(2)
N5 N 0.5911(3) 0.1967(3) 0.6992(3)
N6 N 0.5715(3) 0.2992(3) 0.6544(3)
N7 N 0.4801(3) 0.0821(3) 0.5739(3)
N8 N 0.4515(3) 0.1852(3) 0.5353(3)
N9 N 0.4989(3) 0.3942(3) 0.6378(3)
N10 N 0.4126(3) 0.4628(3) 0.6468(3)
N11 N 0.3827(3) 0.2817(3) 0.5133(3)
N12 N 0.2990(3) 0.3522(3) 0.5235(3)
N13 N 0.3039(3) 0.5060(3) 0.6818(3)
N14 N 0.2044(3) 0.5111(3) 0.7380(3)
N15 N 0.1891(3) 0.3956(3) 0.5583(3)
N16 N 0.0903(3) 0.3938(3) 0.6166(3)
N17 N 0.1227(3) 0.4607(3) 0.8223(3)
N18 N 0.0922(3) 0.3770(3) 0.8963(3)
N19 N 0.0104(3) 0.3402(3) 0.7016(3)
N20 N -0.0192(3) 0.2571(3) 0.7761(3)
N21 N 0.1156(3) 0.2713(3) 0.9563(3)
N22 N 0.1817(3) 0.1848(3) 0.9734(3)
N23 N 0.0023(3) 0.1522(3) 0.8376(3)
N24 N 0.0609(3) 0.0625(3) 0.8630(3)
N25 N 0.2781(3) 0.1136(3) 0.9624(3)
N26 N 0.3768(3) 0.0761(3) 0.9251(3)
N27 N 0.1580(3) -0.0094(3) 0.8492(3)
N28 N 0.2569(3) -0.0383(3) 0.8059(3)
O13 O 0.5847(3) 0.2171(3) 0.8960(2)
O14 O 0.6221(2) 0.3274(2) 0.7916(2)
O15 O 0.5210(3) 0.4842(3) 0.7624(2)
O16 O 0.3449(3) 0.5451(3) 0.8193(2)
O17 O 0.2269(3) 0.4961(3) 0.9448(2)
O18 O 0.2670(3) 0.3335(3) 1.0186(3)
O19 O 0.4216(3) 0.2176(3) 1.0047(3)
O20 O 0.2913(2) -0.0590(3) 0.6058(2)
O21 O 0.3372(2) 0.0495(3) 0.5004(2)
O22 O 0.2327(3) 0.2045(3) 0.4529(3)
O23 O 0.0644(3) 0.2682(3) 0.5190(3)
O24 O -0.0608(2) 0.1905(2) 0.6392(2)
O25 O -0.0238(3) 0.0329(3) 0.7326(3)
O26 O 0.1192(3) -0.0777(3) 0.7135(3)
Nd1A Nd 0.343810(18) 0.621147(19) 1.061130(18)
Nd2A Nd 0.189958(18) -0.070655(18) 0.477334(17)
O17A O 0.7731(3) 0.5039(3) 1.0552(2)
O20A O -0.2913(2) 0.0590(3) 0.3942(2)
O21A O -0.3372(2) -0.0495(3) 0.4996(2)
Cl3 Cl -0.36256(12) -0.00450(19) 0.90797(13)
Cl4 Cl -0.12732(11) 0.01059(13) 0.91299(14)
Cl5 Cl -0.29299(14) -0.01629(15) 0.74083(13)
Cl6 Cl -0.1754(2) 0.19114(19) 0.9387(2)
Cu1 Cu -0.24129(6) 0.04554(7) 0.87523(6)
Cl7 Cl 0.45547(17) 0.81843(14) 0.62213(16)
Cl8 Cl 0.3259(3) 0.61447(16) 0.50231(17)
Cl9 Cl 0.3622(3) 0.7277(2) 0.74218(19)
Cl10 Cl 0.1896(2) 0.6845(2) 0.5811(3)
Cu2 Cu 0.33241(8) 0.71371(7) 0.61067(7)
Cl1 Cl 0.79941(11) 0.30222(12) 0.71412(12)
loop_
_geom_bond_atom_site_label_1
_geom_bond_atom_site_label_2
_geom_bond_site_symmetry_1
_geom_bond_site_symmetry_2
O1 Nd1 1_555 1_555
O2 Nd1 1_555 1_555
O3 Nd1 1_555 1_555
O4 Nd1 1_555 1_555
O5 Nd1 1_555 1_555
O6 Nd1 1_555 1_555
O7 Nd2 1_555 1_555
O8 Nd2 1_555 1_555
O9 Nd2 1_555 1_555
O10 Nd2 1_555 1_555
O11 Nd2 1_555 1_555
O12 Nd2 1_555 1_555
Nd1 O13 1_555 1_555
Nd2 O24 1_555 1_555
C1 N1 1_555 1_555
C2 H1 1_555 1_555
C3 C2 1_555 1_555
H2 C3 1_555 1_555
C4 N3 1_555 1_555
C5 H3 1_555 1_555
H4 C5 1_555 1_555
C6 H5 1_555 1_555
H6 C6 1_555 1_555
C7 N5 1_555 1_555
C8 H7 1_555 1_555
C9 C8 1_555 1_555
H8 C9 1_555 1_555
C10 N7 1_555 1_555
C11 H9 1_555 1_555
H10 C11 1_555 1_555
C12 H11 1_555 1_555
H12 C12 1_555 1_555
C13 N9 1_555 1_555
C14 H13 1_555 1_555
C15 C14 1_555 1_555
H14 C15 1_555 1_555
C16 N11 1_555 1_555
C17 H15 1_555 1_555
H16 C17 1_555 1_555
C18 H17 1_555 1_555
H18 C18 1_555 1_555
C19 N13 1_555 1_555
C20 H19 1_555 1_555
C21 C20 1_555 1_555
H20 C21 1_555 1_555
C22 N15 1_555 1_555
C23 H21 1_555 1_555
H22 C23 1_555 1_555
C24 H23 1_555 1_555
H24 C24 1_555 1_555
C25 N17 1_555 1_555
C26 H25 1_555 1_555
C27 C26 1_555 1_555
H26 C27 1_555 1_555
C28 N19 1_555 1_555
C29 H27 1_555 1_555
H28 C29 1_555 1_555
C30 H29 1_555 1_555
H30 C30 1_555 1_555
C31 N21 1_555 1_555
C32 H31 1_555 1_555
C33 C32 1_555 1_555
H32 C33 1_555 1_555
C34 N23 1_555 1_555
C35 H33 1_555 1_555
H34 C35 1_555 1_555
C36 H35 1_555 1_555
H36 C36 1_555 1_555
C37 N25 1_555 1_555
C38 H37 1_555 1_555
C39 C38 1_555 1_555
H38 C39 1_555 1_555
C40 N27 1_555 1_555
C41 H39 1_555 1_555
H40 C41 1_555 1_555
C42 H41 1_555 1_555
H42 C42 1_555 1_555
N1 C2 1_555 1_555
N2 C1 1_555 1_555
N3 C2 1_555 1_555
N4 C3 1_555 1_555
N5 C5 1_555 1_555
N6 C7 1_555 1_555
N7 C6 1_555 1_555
N8 C9 1_555 1_555
N9 C11 1_555 1_555
N10 C13 1_555 1_555
N11 C12 1_555 1_555
N12 C15 1_555 1_555
N13 C17 1_555 1_555
N14 C19 1_555 1_555
N15 C18 1_555 1_555
N16 C21 1_555 1_555
N17 C23 1_555 1_555
N18 C25 1_555 1_555
N19 C24 1_555 1_555
N20 C27 1_555 1_555
N21 C29 1_555 1_555
N22 C31 1_555 1_555
N23 C30 1_555 1_555
N24 C33 1_555 1_555
N25 C35 1_555 1_555
N26 C37 1_555 1_555
N27 C36 1_555 1_555
N28 C39 1_555 1_555
O13 C1 1_555 1_555
O14 Nd1 1_555 1_555
O15 C13 1_555 1_555
O16 C19 1_555 1_555
O17 C25 1_555 1_555
O18 C31 1_555 1_555
O19 C37 1_555 1_555
O20 C4 1_555 1_555
O21 C10 1_555 1_555
O22 C16 1_555 1_555
O23 C22 1_555 1_555
O24 C28 1_555 1_555
O25 C34 1_555 1_555
O26 C40 1_555 1_555
Cl3 Cu1 1_555 1_555
Cl4 Cu1 1_555 1_555
Cl5 Cu1 1_555 1_555
Cl6 Cu1 1_555 1_555
Cl7 Cu2 1_555 1_555
Cl8 Cu2 1_555 1_555
Cl9 Cu2 1_555 1_555
Cl10 Cu2 1_555 1_555
Nd1A O17 1_555 1_555
Nd2A O20 1_555 1_555
O17A Nd1 1_555 1_555
O20A Nd2 1_555 1_555
O21A Nd2 1_555 1_555
C3 N2 1_555 1_555
C4 N4 1_555 1_555
C5 N2 1_555 1_555
C6 N4 1_555 1_555
C7 O14 1_555 1_555
C8 N5 1_555 1_555
C8 N7 1_555 1_555
C9 N6 1_555 1_555
C10 N8 1_555 1_555
C11 N6 1_555 1_555
C12 N8 1_555 1_555
C14 N9 1_555 1_555
C14 N11 1_555 1_555
C15 N10 1_555 1_555
C16 N12 1_555 1_555
C17 N10 1_555 1_555
C18 N12 1_555 1_555
C20 N13 1_555 1_555
C20 N15 1_555 1_555
C21 N14 1_555 1_555
C22 N16 1_555 1_555
C23 N14 1_555 1_555
C24 N16 1_555 1_555
C26 N17 1_555 1_555
C26 N19 1_555 1_555
C27 N18 1_555 1_555
C28 N20 1_555 1_555
C29 N18 1_555 1_555
C30 N20 1_555 1_555
C32 N21 1_555 1_555
C32 N23 1_555 1_555
C33 N22 1_555 1_555
C34 N24 1_555 1_555
C35 N22 1_555 1_555
C36 N24 1_555 1_555
C38 N25 1_555 1_555
C38 N27 1_555 1_555
C39 N26 1_555 1_555
C40 N28 1_555 1_555
C41 N1 1_555 1_555
C41 N26 1_555 1_555
C42 N3 1_555 1_555
C42 N28 1_555 1_555
O21 Nd2A 1_555 1_555

#END
