
#######################################################################
#
#                 Cambridge Crystallographic Data Centre
#                                CCDC 
#
#######################################################################
#
# If this CIF has been generated from an entry in the Cambridge 
# Structural Database, then it will include bibliographic, chemical, 
# crystal, experimental, refinement or atomic coordinate data resulting 
# from the CCDC's data processing and validation procedures.
#
#######################################################################

data_VOJPIU
_symmetry_cell_setting           orthorhombic
_symmetry_space_group_name_H-M   'P b c n'
_symmetry_Int_Tables_number      60
_space_group_name_Hall           '-P 2n 2ab'
loop_
_symmetry_equiv_pos_site_id
_symmetry_equiv_pos_as_xyz
1 x,y,z
2 1/2-x,1/2-y,1/2+z
3 -x,y,1/2-z
4 1/2+x,1/2-y,-z
5 -x,-y,-z
6 1/2+x,1/2+y,1/2-z
7 x,-y,1/2+z
8 1/2-x,1/2+y,z
_cell_length_a                   23.0085(19)
_cell_length_b                   14.6379(12)
_cell_length_c                   23.6226(19)
_cell_angle_alpha                90
_cell_angle_beta                 90
_cell_angle_gamma                90
_cell_volume                     7956
loop_
_atom_site_label
_atom_site_type_symbol
_atom_site_fract_x
_atom_site_fract_y
_atom_site_fract_z
O2 O 0.1953(14) 0.0331(19) 0.7736(13)
W1 W 0.37378(5) 0.38016(8) 0.53843(5)
W2 W 0.63202(5) 0.38114(9) 0.48266(6)
W3 W 0.50588(6) 0.26195(8) 0.52218(5)
W4 W 0.43375(5) 0.35031(8) 0.40182(5)
W5 W 0.57285(5) 0.41251(9) 0.61903(5)
W6 W 0.56037(5) 0.47078(8) 0.36370(5)
Si1 Si 0.5000 0.5000 0.5000
O3 O 0.5424(14) 0.413(2) 0.5231(13)
O4 O 0.4851(14) 0.479(2) 0.4326(14)
O5 O 0.4420(15) 0.497(3) 0.5358(16)
O6 O 0.5313(15) 0.586(2) 0.5033(14)
O7 O 0.4014(10) 0.2752(16) 0.3577(9)
O8 O 0.5088(12) 0.1453(18) 0.5337(11)
O9 O 0.5040(11) 0.3769(17) 0.3729(12)
O10 O 0.6056(10) 0.3681(16) 0.6753(9)
O11 O 0.4321(12) 0.295(2) 0.5481(11)
O12 O 0.3787(11) 0.3545(18) 0.4600(10)
O13 O 0.6942(12) 0.327(2) 0.4737(12)
O14 O 0.5885(12) 0.4608(18) 0.2986(11)
O15 O 0.4028(13) 0.463(2) 0.3758(14)
O16 O 0.3141(11) 0.3261(19) 0.5558(11)
O17 O 0.3440(14) 0.4960(19) 0.5211(12)
O18 O 0.6066(13) 0.3922(18) 0.4063(12)
O19 O 0.4767(13) 0.268(2) 0.4498(13)
O20 O 0.3941(15) 0.430(2) 0.6094(13)
O21 O 0.5860(13) 0.269(2) 0.4927(13)
O22 O 0.5354(16) 0.306(3) 0.5917(15)
O23 O 0.6309(14) 0.390(2) 0.5618(13)
O24 O 0.5010(15) 0.448(2) 0.6559(16)
W1D W 0.62622(5) 0.61984(8) 0.46157(5)
W2D W 0.36798(5) 0.61886(9) 0.51734(6)
W3D W 0.49412(6) 0.73805(8) 0.47782(5)
W4D W 0.56625(5) 0.64969(8) 0.59818(5)
W5D W 0.42715(5) 0.58749(9) 0.38097(5)
W6D W 0.43963(5) 0.52922(8) 0.63630(5)
O3D O 0.4576(14) 0.587(2) 0.4769(13)
O4D O 0.5149(14) 0.521(2) 0.5674(14)
O5D O 0.5580(15) 0.503(3) 0.4642(16)
O6D O 0.4687(15) 0.414(2) 0.4967(14)
O7D O 0.5986(10) 0.7248(16) 0.6423(9)
O8D O 0.4912(12) 0.8547(18) 0.4663(11)
O9D O 0.4960(11) 0.6231(17) 0.6271(12)
O10D O 0.3944(10) 0.6319(16) 0.3247(9)
O11D O 0.5679(12) 0.705(2) 0.4519(11)
O12D O 0.6213(11) 0.6455(18) 0.5400(10)
O13D O 0.3058(12) 0.673(2) 0.5263(12)
O14D O 0.4115(12) 0.5392(18) 0.7014(11)
O15D O 0.5972(13) 0.537(2) 0.6242(14)
O16D O 0.6859(11) 0.6739(19) 0.4442(11)
O17D O 0.6560(14) 0.5040(19) 0.4789(12)
O18D O 0.3934(13) 0.6078(18) 0.5937(12)
O19D O 0.5233(13) 0.732(2) 0.5502(13)
O20D O 0.6059(15) 0.570(2) 0.3906(13)
O21D O 0.4140(13) 0.731(2) 0.5073(13)
O22D O 0.4646(16) 0.694(3) 0.4083(15)
O23D O 0.3691(14) 0.610(2) 0.4382(13)
O24D O 0.4990(15) 0.552(2) 0.3441(16)
O1 O 0.3507(12) 0.3117(17) 0.7151(11)
Cu1 Cu 0.28929(19) 0.1748(3) 0.74235(15)
N1 N 0.2699(11) 0.2359(18) 0.8159(11)
N2 N 0.1924(10) 0.3886(16) 1.1702(10)
N3 N 0.3532(11) 0.1008(15) 0.7820(9)
N4 N 0.7176(9) -0.2714(15) 0.7926(8)
C1 C 0.2602(13) 0.322(2) 0.8173(13)
H1 H 0.2683 0.3543 0.7844
C2 C 0.2387(12) 0.3723(19) 0.8630(12)
H2 H 0.2354 0.4356 0.8611
C3 C 0.2228(15) 0.326(2) 0.9103(14)
C4 C 0.2353(13) 0.2356(19) 0.9076(12)
H3 H 0.2286 0.2020 0.9404
C5 C 0.2570(19) 0.188(3) 0.8621(17)
H4 H 0.2622 0.1247 0.8635
C6 C 0.1412(13) 0.372(2) 1.1461(13)
H5 H 0.1155 0.3314 1.1629
C7 C 0.1257(13) 0.4163(19) 1.0955(12)
H6 H 0.0877 0.4120 1.0824
C8 C 0.1653(13) 0.465(2) 1.0655(13)
C9 C 0.2197(16) 0.482(2) 1.0896(15)
H7 H 0.2464 0.5207 1.0722
C10 C 0.2327(14) 0.438(2) 1.1418(14)
H8 H 0.2700 0.4435 1.1567
C11 C 0.1905(15) 0.368(2) 0.9566(14)
H9 H 0.2059 0.3433 0.9918
H10 H 0.1505 0.3473 0.9537
C12 C 0.1901(16) 0.470(2) 0.9613(14)
H11 H 0.2295 0.4909 0.9686
H12 H 0.1782 0.4956 0.9251
C13 C 0.1509(17) 0.507(3) 1.0067(14)
H13 H 0.1108 0.4940 0.9971
H14 H 0.1552 0.5731 1.0086
C14 C 0.3539(13) 0.012(2) 0.7790(12)
H15 H 0.3269 -0.0158 0.7551
C15 C 0.3903(11) -0.0449(17) 0.8075(11)
H16 H 0.3870 -0.1082 0.8069
C16 C 0.4339(13) 0.002(2) 0.8385(12)
C17 C 0.4329(13) 0.096(2) 0.8430(13)
H17 H 0.4582 0.1282 0.8665
C18 C 0.3940(15) 0.138(2) 0.8122(15)
H18 H 0.3957 0.2011 0.8119
C19 C 0.7207(12) -0.230(2) 0.8444(13)
H19 H 0.7562 -0.2262 0.8630
C20 C 0.6719(14) -0.196(2) 0.8690(13)
H20 H 0.6749 -0.1763 0.9063
C21 C 0.6205(12) -0.1872(18) 0.8442(12)
C22 C 0.6162(12) -0.2276(18) 0.7909(11)
H21 H 0.5814 -0.2280 0.7708
C23 C 0.6684(12) -0.2686(19) 0.7683(12)
H22 H 0.6657 -0.2955 0.7327
C24 C 0.4785(13) -0.058(2) 0.8726(13)
H23 H 0.4947 -0.0212 0.9030
H24 H 0.4582 -0.1089 0.8894
C25 C 0.5261(13) -0.092(2) 0.8370(13)
H25 H 0.5482 -0.0414 0.8216
H26 H 0.5104 -0.1271 0.8056
C26 C 0.5646(12) -0.151(2) 0.8717(12)
H27 H 0.5755 -0.1169 0.9052
H28 H 0.5420 -0.2032 0.8842
O1A O 0.1493(12) 0.1883(17) 0.2151(11)
Cu1A Cu 0.21071(19) 0.3252(3) 0.24235(15)
Cu1A_2 Cu 0.21071(19) 0.3252(3) 1.24235(15)
Cu1E Cu 0.78929(19) -0.3252(3) 0.75765(15)
Cu1E_2 Cu -0.21071(19) 0.6748(3) 0.75765(15)
N1A N 0.2301(11) 0.2641(18) 0.3159(11)
N2A N 0.3076(10) 0.1114(16) 0.6702(10)
N2_2 N 0.1924(10) 0.3886(16) 0.1702(10)
N3E N -0.1468(11) 0.6008(15) 0.7180(9)
N3A N 0.1468(11) 0.3992(15) 0.2820(9)
N4E N 0.2176(9) 0.2286(15) 0.7074(8)
N4D N 0.2824(9) 0.2714(15) 0.2074(8)
C1A C 0.2398(13) 0.178(2) 0.3173(13)
H1A H 0.2317 0.1457 0.2844
C2A C 0.2613(12) 0.1277(19) 0.3630(12)
H2A H 0.2646 0.0644 0.3611
C3A C 0.2772(15) 0.174(2) 0.4103(14)
C4A C 0.2647(13) 0.2644(19) 0.4076(12)
H3A H 0.2714 0.2980 0.4404
C5A C 0.2430(19) 0.312(3) 0.3621(17)
H4A H 0.2378 0.3753 0.3635
C6A C 0.3588(13) 0.128(2) 0.6461(13)
H5A H 0.3845 0.1686 0.6629
C7A C 0.3743(13) 0.0837(19) 0.5955(12)
H6A H 0.4123 0.0880 0.5824
C8A C 0.3347(13) 0.035(2) 0.5655(13)
C9A C 0.2803(16) 0.018(2) 0.5896(15)
H7A H 0.2536 -0.0207 0.5722
C10A C 0.2673(14) 0.062(2) 0.6418(14)
H8A H 0.2300 0.0565 0.6567
C11A C 0.3095(15) 0.132(2) 0.4566(14)
H9A H 0.2941 0.1567 0.4918
H10A H 0.3495 0.1527 0.4537
C12A C 0.3099(16) 0.030(2) 0.4613(14)
H11A H 0.2705 0.0091 0.4686
H12A H 0.3218 0.0044 0.4251
C13A C 0.3491(17) -0.007(3) 0.5067(14)
H13A H 0.3892 0.0060 0.4971
H14A H 0.3448 -0.0731 0.5086
C14E C -0.1461(13) 0.512(2) 0.7210(12)
H15E H -0.1731 0.4842 0.7449
C15E C -0.1097(11) 0.4551(17) 0.6925(11)
H16E H -0.1130 0.3918 0.6931
C16E C -0.0661(13) 0.502(2) 0.6615(12)
C17E C -0.0671(13) 0.596(2) 0.6570(13)
H17E H -0.0418 0.6282 0.6335
C18E C -0.1060(15) 0.638(2) 0.6878(15)
H18E H -0.1043 0.7011 0.6881
C19E C 0.2207(12) 0.270(2) 0.6556(13)
H19E H 0.2562 0.2738 0.6370
C20E C 0.1719(14) 0.304(2) 0.6310(13)
H20E H 0.1749 0.3237 0.5937
C21E C 0.1205(12) 0.3128(18) 0.6558(12)
C22E C 0.1162(12) 0.2724(18) 0.7091(11)
H21E H 0.0814 0.2720 0.7292
C23E C 0.1684(12) 0.2314(19) 0.7317(12)
H22E H 0.1657 0.2045 0.7673
C24E C -0.0215(13) 0.442(2) 0.6274(13)
H23E H -0.0053 0.4788 0.5970
H24E H -0.0418 0.3911 0.6106
C25E C 0.0261(13) 0.408(2) 0.6630(13)
H25E H 0.0482 0.4586 0.6784
H26E H 0.0104 0.3729 0.6944
C26E C 0.0646(12) 0.349(2) 0.6283(12)
H27E H 0.0755 0.3831 0.5948
H28E H 0.0420 0.2968 0.6158
loop_
_geom_bond_atom_site_label_1
_geom_bond_atom_site_label_2
_geom_bond_site_symmetry_1
_geom_bond_site_symmetry_2
O1 Cu1 1_555 1_555
Cu1 N1 1_555 1_555
N1 C1 1_555 1_555
N2 C6 1_555 1_555
N3 Cu1 1_555 1_555
N4 C19 1_555 1_555
C1 H1 1_555 1_555
C2 C1 1_555 1_555
H2 C2 1_555 1_555
C3 C2 1_555 1_555
C4 C3 1_555 1_555
H3 C4 1_555 1_555
C5 N1 1_555 1_555
H4 C5 1_555 1_555
C6 H5 1_555 1_555
C7 C6 1_555 1_555
H6 C7 1_555 1_555
C8 C7 1_555 1_555
C9 C8 1_555 1_555
H7 C9 1_555 1_555
C10 N2 1_555 1_555
H8 C10 1_555 1_555
C11 C3 1_555 1_555
H9 C11 1_555 1_555
H10 C11 1_555 1_555
C12 C11 1_555 1_555
H11 C12 1_555 1_555
H12 C12 1_555 1_555
C13 C8 1_555 1_555
H13 C13 1_555 1_555
H14 C13 1_555 1_555
C14 N3 1_555 1_555
H15 C14 1_555 1_555
C15 C14 1_555 1_555
H16 C15 1_555 1_555
C16 C15 1_555 1_555
C17 C16 1_555 1_555
H17 C17 1_555 1_555
C18 N3 1_555 1_555
H18 C18 1_555 1_555
C19 H19 1_555 1_555
C20 C19 1_555 1_555
H20 C20 1_555 1_555
C21 C20 1_555 1_555
C22 C21 1_555 1_555
H21 C22 1_555 1_555
C23 N4 1_555 1_555
H22 C23 1_555 1_555
C24 C16 1_555 1_555
H23 C24 1_555 1_555
H24 C24 1_555 1_555
C25 C24 1_555 1_555
H25 C25 1_555 1_555
H26 C25 1_555 1_555
C26 C21 1_555 1_555
H27 C26 1_555 1_555
H28 C26 1_555 1_555
W1 O5 1_555 1_555
W2 O3 1_555 1_555
W3 O3 1_555 1_555
W4 O4 1_555 1_555
W5 O3 1_555 1_555
W6 O4 1_555 1_555
Si1 O3 1_555 1_555
O3 O5D 1_555 1_555
O4 Si1 1_555 1_555
O5 Si1 1_555 1_555
O6 Si1 1_555 1_555
O7 W4 1_555 1_555
O8 W3 1_555 1_555
O9 W4 1_555 1_555
O10 W5 1_555 1_555
O11 W1 1_555 1_555
O12 W1 1_555 1_555
O13 W2 1_555 1_555
O14 W6 1_555 1_555
O15 W4 1_555 1_555
O16 W1 1_555 1_555
O17 W1 1_555 1_555
O18 W2 1_555 1_555
O19 W3 1_555 1_555
O20 W1 1_555 1_555
O21 W2 1_555 1_555
O22 W3 1_555 1_555
O23 W2 1_555 1_555
O24 W5 1_555 1_555
O1A Cu1A 1_555 1_555
Cu1A N1A 1_555 1_555
Cu1A_2 N2 1_555 1_555
Cu1E N4 1_555 1_555
Cu1E_2 N3E 1_555 1_555
N1A C1A 1_555 1_555
N2A Cu1 1_555 1_555
N2_2 Cu1A 1_555 1_555
N3E C14E 1_555 1_555
N3A Cu1A 1_555 1_555
N4E Cu1 1_555 1_555
N4D Cu1A 1_555 1_555
C1A H1A 1_555 1_555
C2A C1A 1_555 1_555
H2A C2A 1_555 1_555
C3A C2A 1_555 1_555
C4A C3A 1_555 1_555
H3A C4A 1_555 1_555
C5A N1A 1_555 1_555
H4A C5A 1_555 1_555
C6A N2A 1_555 1_555
H5A C6A 1_555 1_555
C7A C6A 1_555 1_555
H6A C7A 1_555 1_555
C8A C7A 1_555 1_555
C9A C8A 1_555 1_555
H7A C9A 1_555 1_555
C10A N2A 1_555 1_555
H8A C10A 1_555 1_555
C11A C3A 1_555 1_555
H9A C11A 1_555 1_555
H10A C11A 1_555 1_555
C12A C11A 1_555 1_555
H11A C12A 1_555 1_555
H12A C12A 1_555 1_555
C13A C8A 1_555 1_555
H13A C13A 1_555 1_555
H14A C13A 1_555 1_555
C14E H15E 1_555 1_555
C15E C14E 1_555 1_555
H16E C15E 1_555 1_555
C16E C15E 1_555 1_555
C17E C16E 1_555 1_555
H17E C17E 1_555 1_555
C18E N3E 1_555 1_555
H18E C18E 1_555 1_555
C19E N4E 1_555 1_555
H19E C19E 1_555 1_555
C20E C19E 1_555 1_555
H20E C20E 1_555 1_555
C21E C20E 1_555 1_555
C22E C21E 1_555 1_555
H21E C22E 1_555 1_555
C23E N4E 1_555 1_555
H22E C23E 1_555 1_555
C24E C16E 1_555 1_555
H23E C24E 1_555 1_555
H24E C24E 1_555 1_555
C25E C24E 1_555 1_555
H25E C25E 1_555 1_555
H26E C25E 1_555 1_555
C26E C21E 1_555 1_555
H27E C26E 1_555 1_555
H28E C26E 1_555 1_555
W1D O6 1_555 1_555
W2D O5 1_555 1_555
W3D O6 1_555 1_555
W4D O6 1_555 1_555
W5D O4 1_555 1_555
W6D O5 1_555 1_555
O3D Si1 1_555 1_555
O4D W5 1_555 1_555
O5D W2 1_555 1_555
O6D W1 1_555 1_555
O7D W4D 1_555 1_555
O8D W3D 1_555 1_555
O9D W4D 1_555 1_555
O10D W5D 1_555 1_555
O11D W1D 1_555 1_555
O12D W1D 1_555 1_555
O13D W2D 1_555 1_555
O14D W6D 1_555 1_555
O15D W5 1_555 1_555
O16D W1D 1_555 1_555
O17D W2 1_555 1_555
O18D W2D 1_555 1_555
O19D W3D 1_555 1_555
O20D W6 1_555 1_555
O21D W2D 1_555 1_555
O22D W3D 1_555 1_555
O23D W2D 1_555 1_555
O24D W6 1_555 1_555
C4 C5 1_555 1_555
C9 C10 1_555 1_555
C12 C13 1_555 1_555
C17 C18 1_555 1_555
C22 C23 1_555 1_555
C25 C26 1_555 1_555
W3 O11 1_555 1_555
W3 O21 1_555 1_555
W3 O6D 1_555 1_555
W4 O12 1_555 1_555
W4 O19 1_555 1_555
W4 O6D 1_555 1_555
W5 O22 1_555 1_555
W5 O23 1_555 1_555
W6 O9 1_555 1_555
W6 O18 1_555 1_555
W6 O5D 1_555 1_555
Si1 O4D 1_555 1_555
Si1 O5D 1_555 1_555
Si1 O6D 1_555 1_555
O3 O6D 1_555 1_555
O4 O5D 1_555 1_555
O4 O6D 1_555 1_555
O5 O3D 1_555 1_555
O5 O4D 1_555 1_555
O5 O6D 1_555 1_555
O6 O3D 1_555 1_555
O6 O4D 1_555 1_555
O6 O5D 1_555 1_555
O15 W5D 1_555 1_555
O17 W2D 1_555 1_555
O20 W6D 1_555 1_555
O24 W6D 1_555 1_555
C4A C5A 1_555 1_555
C9A C10A 1_555 1_555
C12A C13A 1_555 1_555
C17E C18E 1_555 1_555
C22E C23E 1_555 1_555
C25E C26E 1_555 1_555
W1D O5D 1_555 1_555
W1D O17D 1_555 1_555
W1D O20D 1_555 1_555
W2D O3D 1_555 1_555
W3D O3D 1_555 1_555
W3D O11D 1_555 1_555
W3D O21D 1_555 1_555
W4D O4D 1_555 1_555
W4D O12D 1_555 1_555
W4D O15D 1_555 1_555
W4D O19D 1_555 1_555
W5D O3D 1_555 1_555
W5D O22D 1_555 1_555
W5D O23D 1_555 1_555
W5D O24D 1_555 1_555
W6D O4D 1_555 1_555
W6D O9D 1_555 1_555
W6D O18D 1_555 1_555

#END
