
#######################################################################
#
#                 Cambridge Crystallographic Data Centre
#                                CCDC 
#
#######################################################################
#
# If this CIF has been generated from an entry in the Cambridge 
# Structural Database, then it will include bibliographic, chemical, 
# crystal, experimental, refinement or atomic coordinate data resulting 
# from the CCDC's data processing and validation procedures.
#
#######################################################################

data_VOJQIV
_symmetry_cell_setting           orthorhombic
_symmetry_space_group_name_H-M   'I b a 2'
_symmetry_Int_Tables_number      45
_space_group_name_Hall           'I 2 -2c'
loop_
_symmetry_equiv_pos_site_id
_symmetry_equiv_pos_as_xyz
1 x,y,z
2 -x,-y,z
3 1/2+x,1/2-y,z
4 1/2-x,1/2+y,z
5 1/2+x,1/2+y,1/2+z
6 1/2-x,1/2-y,1/2+z
7 x,-y,1/2+z
8 -x,y,1/2+z
_cell_length_a                   22.277(8)
_cell_length_b                   47.04(2)
_cell_length_c                   22.153(8)
_cell_angle_alpha                90
_cell_angle_beta                 90
_cell_angle_gamma                90
_cell_volume                     23214.4
loop_
_atom_site_label
_atom_site_type_symbol
_atom_site_fract_x
_atom_site_fract_y
_atom_site_fract_z
W1 W -0.210170(10) 0.393450(4) -0.471640(10)
W2 W -0.262670(10) 0.457800(4) -0.427500(10)
W3 W -0.127020(9) 0.434400(5) -0.377930(11)
W4 W -0.181250(9) 0.446780(5) -0.222260(10)
W5 W -0.118360(9) 0.376830(5) -0.263610(10)
W6 W -0.193620(9) 0.335040(4) -0.360420(10)
W7 W -0.344990(9) 0.356100(4) -0.411860(9)
W8 W -0.399830(9) 0.420600(4) -0.376450(9)
W9 W -0.318500(9) 0.466720(4) -0.270330(10)
W10 W -0.387540(8) 0.432160(4) -0.133520(9)
W11 W -0.250750(9) 0.411040(5) -0.089270(10)
W12 W -0.192600(9) 0.340470(5) -0.132250(11)
W13 W -0.270970(9) 0.300310(4) -0.229100(10)
W14 W -0.421330(9) 0.322610(4) -0.277370(10)
W15 W -0.473140(8) 0.387400(4) -0.240060(9)
W16 W -0.457130(9) 0.365550(4) -0.079680(10)
W17 W -0.320410(9) 0.346490(5) -0.025410(10)
W18 W -0.396100(10) 0.301890(4) -0.117960(10)
P1 P -0.25725(5) 0.40121(3) -0.32149(6)
P2 P -0.33473(5) 0.36477(2) -0.17988(5)
O1 O -0.19023(17) 0.38235(9) -0.54282(19)
O2 O -0.13480(15) 0.41349(7) -0.44981(16)
O3 O -0.22604(15) 0.41555(7) -0.37727(19)
O4 O -0.28556(18) 0.37755(7) -0.45887(18)
O5 O -0.18242(14) 0.36226(7) -0.42250(16)
O6 O -0.24223(18) 0.43021(7) -0.48974(19)
O7 O -0.2806(2) 0.48578(9) -0.47027(19)
O8 O -0.28089(17) 0.47031(8) -0.34934(18)
O9 O -0.33900(17) 0.43833(6) -0.42073(17)
O10 O -0.17744(16) 0.46296(7) -0.41383(17)
O11 O -0.05777(15) 0.45072(8) -0.38728(19)
O12 O -0.10658(16) 0.40282(10) -0.33488(18)
O13 O -0.15249(14) 0.45014(7) -0.30242(15)
O14 O -0.12728(18) 0.46648(10) -0.18557(19)
O15 O -0.22461(15) 0.43331(8) -0.15307(19)
O16 O -0.26053(14) 0.42367(6) -0.27080(18)
O17 O -0.24076(15) 0.47495(7) -0.23543(15)
O18 O -0.14510(16) 0.40925(8) -0.22391(18)
O19 O -0.04406(15) 0.37517(10) -0.24393(17)
O20 O -0.15111(15) 0.35365(8) -0.2036(2)
O21 O -0.21772(13) 0.37565(7) -0.30393(15)
O22 O -0.12207(15) 0.34627(8) -0.32222(17)
O23 O -0.16812(17) 0.30566(8) -0.39770(19)
O24 O -0.22130(14) 0.31633(8) -0.28785(17)
O25 O -0.27571(17) 0.33659(8) -0.38391(15)
O26 O -0.36762(15) 0.33430(7) -0.46869(18)
O27 O -0.39187(16) 0.34234(8) -0.34888(17)
O28 O -0.31893(13) 0.39095(6) -0.34269(17)
O29 O -0.39878(14) 0.38718(8) -0.42469(15)
O30 O -0.46150(18) 0.43680(7) -0.40659(18)
O31 O -0.44215(14) 0.39924(7) -0.31336(15)
O32 O -0.37655(15) 0.44516(8) -0.31123(18)
O33 O -0.3495(2) 0.49954(8) -0.26712(19)
O34 O -0.34583(16) 0.45212(7) -0.19622(16)
O35 O -0.42953(14) 0.45932(7) -0.10715(15)
O36 O -0.42094(13) 0.40247(8) -0.08861(16)
O37 O -0.32013(13) 0.39538(7) -0.16137(15)
O38 O -0.43447(15) 0.41800(7) -0.19881(16)
O39 O -0.32253(15) 0.43559(7) -0.08208(16)
O40 O -0.2077(2) 0.42663(10) -0.0327(2)
O41 O -0.2953(2) 0.38398(8) -0.03958(17)
O42 O -0.20428(14) 0.38035(8) -0.11572(16)
O43 O -0.13077(17) 0.33208(10) -0.0921(2)
O44 O -0.25205(15) 0.33339(8) -0.07029(18)
O45 O -0.27835(14) 0.34679(7) -0.19480(16)
O46 O -0.20881(14) 0.30498(7) -0.16906(19)
O47 O -0.26308(15) 0.26524(7) -0.2439(2)
O48 O -0.32565(17) 0.29476(8) -0.1593(2)
O49 O -0.34070(13) 0.30908(7) -0.27230(17)
O50 O -0.45682(18) 0.29422(8) -0.31160(19)
O51 O -0.38130(15) 0.36383(7) -0.23168(17)
O52 O -0.42849(15) 0.31131(7) -0.19633(17)
O53 O -0.48412(15) 0.34928(7) -0.26900(19)
O54 O -0.54584(14) 0.39988(7) -0.24711(16)
O55 O -0.48220(13) 0.37054(6) -0.15774(16)
O56 O -0.51898(16) 0.37190(8) -0.03880(17)
O57 O -0.36606(13) 0.35020(6) -0.12266(14)
O58 O -0.46066(12) 0.32568(6) -0.08472(15)
O59 O -0.40012(15) 0.35960(9) -0.01358(19)
O60 O -0.29745(17) 0.34059(10) 0.04690(19)
O61 O -0.35502(15) 0.30980(7) -0.04691(17)
O62 O -0.42142(19) 0.26868(10) -0.1029(2)
Cu1 Cu -0.5000 0.5000 -0.09581(4)
Cu2 Cu -0.81431(3) 0.328790(14) -0.21099(4)
O63 O -0.75544(16) 0.30647(8) -0.2788(2)
N1 N -0.5000 0.5000 -0.1881(3)
N2 N -0.5000 0.5000 -0.5064(3)
N3 N -0.57014(18) 0.47210(9) -0.0956(2)
N4 N -0.7559(2) 0.36065(10) -0.1909(3)
N5 N -0.7854(2) 0.30645(9) -0.1364(3)
N6 N -0.7003(3) 0.22509(13) 0.1171(3)
N7 N -0.8832(2) 0.30152(10) -0.2192(2)
N8 N -1.1548(3) 0.22463(13) -0.2523(3)
N9 N -0.84734(19) 0.35203(11) -0.2823(2)
N10 N -0.9797(2) 0.40236(12) -0.5540(3)
C1 C -0.5094(2) 0.47552(10) -0.2203(2)
H1 H -0.5166 0.4586 -0.2000
C2 C -0.50834(19) 0.47583(9) -0.2829(2)
H2 H -0.5136 0.4587 -0.3033
C3 C -0.5000 0.5000 -0.3159(4)
C4 C -0.5000 0.5000 -0.3802(4)
C5 C -0.5508(2) 0.49177(9) -0.4727(2)
H3 H -0.5853 0.4859 -0.4929
C6 C -0.5506(2) 0.49227(12) -0.4109(2)
H4 H -0.5850 0.4873 -0.3897
C7 C -0.65796(19) 0.45654(10) -0.1464(2)
H5 H -0.6890 0.4603 -0.1733
C8 C -0.6178(2) 0.47809(12) -0.1276(3)
H6 H -0.6255 0.4969 -0.1381
C9 C -0.5633(2) 0.44566(10) -0.0705(3)
H7 H -0.5321 0.4423 -0.0436
C10 C -0.6017(2) 0.42459(13) -0.0847(3)
H8 H -0.5957 0.4067 -0.0680
C11 C -0.6487(2) 0.42852(10) -0.1223(2)
C12 C -0.6856(2) 0.40431(10) -0.1461(3)
C13 C -0.6642(2) 0.37864(12) -0.1505(3)
H9 H -0.6256 0.3748 -0.1370
C14 C -0.7000(3) 0.35611(13) -0.1761(3)
H10 H -0.6832 0.3382 -0.1821
C15 C -0.7780(2) 0.38769(10) -0.1837(3)
H11 H -0.8180 0.3907 -0.1938
C16 C -0.7462(2) 0.41068(14) -0.1630(4)
H12 H -0.7625 0.4288 -0.1602
C17 C -0.7575(3) 0.26154(12) -0.0957(3)
H13 H -0.7513 0.2421 -0.1003
C18 C -0.7759(3) 0.27817(14) -0.1419(3)
H14 H -0.7823 0.2698 -0.1794
C19 C -0.7761(3) 0.31864(12) -0.0809(3)
H15 H -0.7845 0.3379 -0.0758
C20 C -0.7559(3) 0.30395(11) -0.0349(3)
H16 H -0.7466 0.3129 0.0013
C21 C -0.7486(3) 0.27516(12) -0.0411(3)
C22 C -0.7235(3) 0.25668(12) 0.0119(3)
C23 C -0.7069(4) 0.26820(18) 0.0677(4)
H17 H -0.7102 0.2878 0.0722
C24 C -0.6860(3) 0.25292(15) 0.1165(4)
H18 H -0.6635 0.2613 0.1471
C25 C -0.7127(4) 0.21093(17) 0.0655(4)
H19 H -0.7080 0.1914 0.0621
C26 C -0.7335(5) 0.22807(19) 0.0167(4)
H20 H -0.7552 0.2192 -0.0138
C27 C -0.9513(3) 0.27524(17) -0.2830(4)
H21 H -0.9595 0.2685 -0.3216
C28 C -0.9032(3) 0.29101(13) -0.2688(3)
H22 H -0.8792 0.2953 -0.3020
C29 C -0.9191(3) 0.29478(16) -0.1707(3)
H23 H -0.9063 0.2998 -0.1322
C30 C -0.9744(3) 0.2806(2) -0.1770(3)
H24 H -1.0004 0.2786 -0.1445
C31 C -0.9881(3) 0.27009(11) -0.2321(4)
C32 C -1.0475(3) 0.25542(12) -0.2427(3)
C33 C -1.0615(3) 0.23348(15) -0.2026(3)
H25 H -1.0378 0.2307 -0.1685
C34 C -1.1112(4) 0.2155(2) -0.2133(5)
H26 H -1.1142 0.1980 -0.1943
C35 C -1.1418(3) 0.24777(16) -0.2864(4)
H27 H -1.1718 0.2530 -0.3134
C36 C -1.0916(3) 0.26480(16) -0.2878(4)
H28 H -1.0863 0.2801 -0.3138
C37 C -0.9337(3) 0.36993(15) -0.3390(3)
H29 H -0.9741 0.3749 -0.3391
C38 C -0.9072(2) 0.35853(18) -0.2848(3)
H30 H -0.9311 0.3555 -0.2510
C39 C -0.8169(3) 0.35677(16) -0.3298(3)
H31 H -0.7759 0.3531 -0.3283
C40 C -0.8404(3) 0.36712(13) -0.3843(3)
H32 H -0.8147 0.3697 -0.4169
C41 C -0.8998(3) 0.37357(16) -0.3910(3)
C42 C -0.9279(3) 0.38477(13) -0.4458(3)
C43 C -0.8970(3) 0.38284(18) -0.5009(3)
H33 H -0.8597 0.3740 -0.5028
C44 C -0.9232(3) 0.3944(2) -0.5534(4)
H34 H -0.9001 0.3964 -0.5881
C45 C -1.0106(3) 0.40404(19) -0.5016(3)
H35 H -1.0472 0.4136 -0.5001
C46 C -0.9870(3) 0.39123(14) -0.4495(4)
H36 H -1.0122 0.3871 -0.4172
Cu1F Cu -0.5000 0.5000 -0.59581(4)
Cu2A Cu -0.18569(3) 0.671210(14) -0.21099(4)
O63A O -0.24456(16) 0.69353(8) -0.2788(2)
N2F N -0.5000 0.5000 -0.0064(3)
N3A N -0.42986(18) 0.52790(9) -0.0956(2)
N4A N -0.2441(2) 0.63935(10) -0.1909(3)
N5A N -0.2146(2) 0.69355(9) -0.1364(3)
N6A N -0.2997(3) 0.77491(13) 0.1171(3)
N7A N -0.1168(2) 0.69848(10) -0.2192(2)
N8A N 0.1548(3) 0.77537(13) -0.2523(3)
N9A N -0.15266(19) 0.64797(11) -0.2823(2)
N10A N -0.0203(2) 0.59764(12) -0.5540(3)
C1A C -0.4906(2) 0.52448(10) -0.2203(2)
H1A H -0.4834 0.5414 -0.2000
C2A C -0.49166(19) 0.52417(9) -0.2829(2)
H2A H -0.4864 0.5413 -0.3033
C5A C -0.4492(2) 0.50823(9) -0.4727(2)
H3A H -0.4147 0.5141 -0.4929
C6A C -0.4494(2) 0.50773(12) -0.4109(2)
H4A H -0.4150 0.5127 -0.3897
C7A C -0.34204(19) 0.54346(10) -0.1464(2)
H5A H -0.3110 0.5397 -0.1733
C8A C -0.3822(2) 0.52191(12) -0.1276(3)
H6A H -0.3745 0.5031 -0.1381
C9A C -0.4367(2) 0.55434(10) -0.0705(3)
H7A H -0.4679 0.5577 -0.0436
C10A C -0.3983(2) 0.57541(13) -0.0847(3)
H8A H -0.4043 0.5933 -0.0680
C11A C -0.3513(2) 0.57148(10) -0.1223(2)
C12A C -0.3144(2) 0.59569(10) -0.1461(3)
C13A C -0.3358(2) 0.62136(12) -0.1505(3)
H9A H -0.3744 0.6252 -0.1370
C14A C -0.3000(3) 0.64389(13) -0.1761(3)
H10A H -0.3168 0.6618 -0.1821
C15A C -0.2220(2) 0.61231(10) -0.1837(3)
H11A H -0.1820 0.6093 -0.1938
C16A C -0.2538(2) 0.58932(14) -0.1630(4)
H12A H -0.2375 0.5712 -0.1602
C17A C -0.2425(3) 0.73846(12) -0.0957(3)
H13A H -0.2487 0.7579 -0.1003
C18A C -0.2241(3) 0.72183(14) -0.1419(3)
H14A H -0.2177 0.7302 -0.1794
C19A C -0.2239(3) 0.68136(12) -0.0809(3)
H15A H -0.2155 0.6621 -0.0758
C20A C -0.2441(3) 0.69605(11) -0.0349(3)
H16A H -0.2534 0.6871 0.0013
C21A C -0.2514(3) 0.72484(12) -0.0411(3)
C22A C -0.2765(3) 0.74332(12) 0.0119(3)
C23A C -0.2931(4) 0.73180(18) 0.0677(4)
H17A H -0.2898 0.7122 0.0722
C24A C -0.3140(3) 0.74708(15) 0.1165(4)
H18A H -0.3365 0.7387 0.1471
C25A C -0.2873(4) 0.78907(17) 0.0655(4)
H19A H -0.2920 0.8086 0.0621
C26A C -0.2665(5) 0.77193(19) 0.0167(4)
H20A H -0.2448 0.7808 -0.0138
C27A C -0.0487(3) 0.72476(17) -0.2830(4)
H21A H -0.0405 0.7315 -0.3216
C28A C -0.0968(3) 0.70899(13) -0.2688(3)
H22A H -0.1208 0.7047 -0.3020
C29A C -0.0809(3) 0.70522(16) -0.1707(3)
H23A H -0.0937 0.7002 -0.1322
C30A C -0.0256(3) 0.7194(2) -0.1770(3)
H24A H 0.0004 0.7214 -0.1445
C31A C -0.0119(3) 0.72991(11) -0.2321(4)
C32A C 0.0475(3) 0.74458(12) -0.2427(3)
C33A C 0.0615(3) 0.76652(15) -0.2026(3)
H25A H 0.0378 0.7693 -0.1685
C34A C 0.1112(4) 0.7845(2) -0.2133(5)
H26A H 0.1142 0.8020 -0.1943
C35A C 0.1418(3) 0.75223(16) -0.2864(4)
H27A H 0.1718 0.7470 -0.3134
C36A C 0.0916(3) 0.73520(16) -0.2878(4)
H28A H 0.0863 0.7199 -0.3138
C37A C -0.0663(3) 0.63007(15) -0.3390(3)
H29A H -0.0259 0.6251 -0.3391
C38A C -0.0928(2) 0.64147(18) -0.2848(3)
H30A H -0.0689 0.6445 -0.2510
C39A C -0.1831(3) 0.64323(16) -0.3298(3)
H31A H -0.2241 0.6469 -0.3283
C40A C -0.1596(3) 0.63288(13) -0.3843(3)
H32A H -0.1853 0.6303 -0.4169
C41A C -0.1002(3) 0.62643(16) -0.3910(3)
C42A C -0.0721(3) 0.61523(13) -0.4458(3)
C43A C -0.1030(3) 0.61716(18) -0.5009(3)
H33A H -0.1403 0.6260 -0.5028
C44A C -0.0768(3) 0.6056(2) -0.5534(4)
H34A H -0.0999 0.6036 -0.5881
C45A C 0.0106(3) 0.59596(19) -0.5016(3)
H35A H 0.0472 0.5864 -0.5001
C46A C -0.0130(3) 0.60877(14) -0.4495(4)
H36A H 0.0122 0.6129 -0.4172
Cu3 Cu 0.0000 0.5000 -0.38011(4)
N11 N 0.0000 0.5000 -0.2916(3)
N12 N 0.0000 0.5000 -0.4704(3)
N13 N -0.08305(17) 0.51836(14) -0.3778(2)
N14 N -0.3654(2) 0.58387(14) -0.3630(3)
C47 C -0.0064(2) 0.52305(12) -0.2588(2)
H37 H -0.0130 0.5400 -0.2794
C48 C -0.0042(3) 0.52457(16) -0.1949(4)
H38 H -0.0056 0.5419 -0.1746
C49 C 0.0000 0.5000 -0.1655(4)
C50 C 0.0000 0.5000 -0.0987(4)
C51 C -0.0455(3) 0.48943(16) -0.5019(3)
H39 H -0.0793 0.4829 -0.4816
C52 C -0.0438(3) 0.5121(2) -0.0643(3)
H40 H -0.0743 0.5219 -0.0839
C53 C -0.1789(2) 0.52361(11) -0.3323(3)
H41 H -0.2046 0.5183 -0.3013
C54 C -0.1228(3) 0.51091(12) -0.3352(3)
H42 H -0.1126 0.4970 -0.3071
C55 C -0.0985(3) 0.53941(14) -0.4138(4)
H43 H -0.0699 0.5472 -0.4394
C56 C -0.1563(2) 0.55019(15) -0.4144(3)
H44 H -0.1676 0.5628 -0.4447
C57 C -0.1974(3) 0.54253(16) -0.3705(4)
C58 C -0.2571(3) 0.55592(13) -0.3687(3)
C59 C -0.2903(3) 0.56164(13) -0.4190(3)
H45 H -0.2786 0.5549 -0.4566
C60 C -0.3439(3) 0.57845(18) -0.4120(3)
H46 H -0.3628 0.5854 -0.4464
C61 C -0.3380(3) 0.57637(16) -0.3142(4)
H47 H -0.3546 0.5815 -0.2773
C62 C -0.2820(3) 0.56022(19) -0.3145(4)
H48 H -0.2648 0.5533 -0.2792
Cu3F Cu 0.0000 0.5000 -0.88011(4)
Cu3F_2 Cu 0.0000 0.5000 0.11989(4)
N11F N 0.0000 0.5000 -0.7916(3)
N11F_2 N 0.0000 0.5000 0.2084(3)
N12F N 0.0000 0.5000 0.0296(3)
N13A N 0.08305(17) 0.48164(14) -0.3778(2)
N13F N -0.08305(17) 0.48164(14) 0.1222(2)
N13G N 0.08305(17) 0.51836(14) 0.1222(2)
N14A N 0.3654(2) 0.41613(14) -0.3630(3)
N14G N 0.3654(2) 0.58387(14) 0.1370(3)
N14F N -0.3654(2) 0.41613(14) 0.1370(3)
C47A C 0.0064(2) 0.47695(12) -0.2588(2)
C47G C 0.0064(2) 0.52305(12) -0.7588(2)
C47F C -0.0064(2) 0.47695(12) -0.7588(2)
H37A H 0.0130 0.4600 -0.2794
H37G H 0.0130 0.5400 -0.7794
H37F H -0.0130 0.4600 -0.7794
C48A C 0.0042(3) 0.47543(16) -0.1949(4)
C48F C -0.0042(3) 0.47543(16) -0.6949(4)
C48G C 0.0042(3) 0.52457(16) -0.6949(4)
H38A H 0.0056 0.4581 -0.1746
H38G H 0.0056 0.5419 -0.6746
H38F H -0.0056 0.4581 -0.6746
C49F C 0.0000 0.5000 -0.6655(4)
C50F C 0.0000 0.5000 -0.5987(4)
C51A C 0.0455(3) 0.51057(16) -0.5019(3)
C51F C -0.0455(3) 0.51057(16) -0.0019(3)
C51G C 0.0455(3) 0.48943(16) -0.0019(3)
H39A H 0.0793 0.5171 -0.4816
H39F H -0.0793 0.5171 0.0184
H39G H 0.0793 0.4829 0.0184
C52A C 0.0438(3) 0.4879(2) -0.0643(3)
C52F C -0.0438(3) 0.4879(2) -0.5643(3)
C52G C 0.0438(3) 0.5121(2) -0.5643(3)
H40A H 0.0743 0.4781 -0.0839
H40F H -0.0743 0.4781 -0.5839
H40G H 0.0743 0.5219 -0.5839
C53A C 0.1789(2) 0.47639(11) -0.3323(3)
C53G C 0.1789(2) 0.52361(11) 0.1677(3)
C53F C -0.1789(2) 0.47639(11) 0.1677(3)
H41A H 0.2046 0.4817 -0.3013
H41G H 0.2046 0.5183 0.1987
H41F H -0.2046 0.4817 0.1987
C54A C 0.1228(3) 0.48909(12) -0.3352(3)
C54F C -0.1228(3) 0.48909(12) 0.1648(3)
C54G C 0.1228(3) 0.51091(12) 0.1648(3)
H42A H 0.1126 0.5030 -0.3071
H42G H 0.1126 0.4970 0.1929
H42F H -0.1126 0.5030 0.1929
C55A C 0.0985(3) 0.46059(14) -0.4138(4)
C55F C -0.0985(3) 0.46059(14) 0.0862(4)
C55G C 0.0985(3) 0.53941(14) 0.0862(4)
H43A H 0.0699 0.4528 -0.4394
H43G H 0.0699 0.5472 0.0606
H43F H -0.0699 0.4528 0.0606
C56A C 0.1563(2) 0.44981(15) -0.4144(3)
C56G C 0.1563(2) 0.55019(15) 0.0856(3)
C56F C -0.1563(2) 0.44981(15) 0.0856(3)
H44A H 0.1676 0.4372 -0.4447
H44G H 0.1676 0.5628 0.0553
H44F H -0.1676 0.4372 0.0553
C57A C 0.1974(3) 0.45747(16) -0.3705(4)
C57G C 0.1974(3) 0.54253(16) 0.1295(4)
C57F C -0.1974(3) 0.45747(16) 0.1295(4)
C58A C 0.2571(3) 0.44408(13) -0.3687(3)
C58G C 0.2571(3) 0.55592(13) 0.1313(3)
C58F C -0.2571(3) 0.44408(13) 0.1313(3)
C59A C 0.2903(3) 0.43836(13) -0.4190(3)
C59G C 0.2903(3) 0.56164(13) 0.0810(3)
C59F C -0.2903(3) 0.43836(13) 0.0810(3)
H45A H 0.2786 0.4451 -0.4566
H45G H 0.2786 0.5549 0.0434
H45F H -0.2786 0.4451 0.0434
C60A C 0.3439(3) 0.42155(18) -0.4120(3)
C60G C 0.3439(3) 0.57845(18) 0.0880(3)
C60F C -0.3439(3) 0.42155(18) 0.0880(3)
H46A H 0.3628 0.4146 -0.4464
H46G H 0.3628 0.5854 0.0536
H46F H -0.3628 0.4146 0.0536
C61A C 0.3380(3) 0.42363(16) -0.3142(4)
C61G C 0.3380(3) 0.57637(16) 0.1858(4)
C61F C -0.3380(3) 0.42363(16) 0.1858(4)
H47A H 0.3546 0.4185 -0.2773
H47G H 0.3546 0.5815 0.2227
H47F H -0.3546 0.4185 0.2227
C62A C 0.2820(3) 0.43978(19) -0.3145(4)
C62G C 0.2820(3) 0.56022(19) 0.1855(4)
C62F C -0.2820(3) 0.43978(19) 0.1855(4)
H48A H 0.2648 0.4467 -0.2792
H48G H 0.2648 0.5533 0.2208
H48F H -0.2648 0.4467 0.2208
O64 O -0.8923(3) 0.35783(15) -0.1250(4)
O65 O -1.0313(3) 0.59741(16) -1.1647(4)
O66 O -0.1818(5) 0.5287(3) -0.1639(6)
O67 O -0.4030(4) 0.3096(2) -0.5841(5)
N15 N -0.4811(6) 0.7717(3) -0.4855(7)
N16 N -0.4262(2) 0.63226(16) -0.3726(3)
C63 C -0.5224(4) 0.7276(2) -0.4479(5)
H49 H -0.5562 0.7162 -0.4435
C64 C -0.5284(7) 0.7573(3) -0.4728(8)
H50 H -0.5662 0.7652 -0.4788
C65 C -0.4284(6) 0.7626(2) -0.4725(6)
H51 H -0.3951 0.7741 -0.4795
C66 C -0.4204(5) 0.7349(2) -0.4474(5)
H52 H -0.3814 0.7285 -0.4412
C67 C -0.4665(3) 0.71730(13) -0.4319(5)
C68 C -0.4521(3) 0.68760(15) -0.4114(3)
C69 C -0.4045(3) 0.68405(17) -0.3719(4)
H53 H -0.3802 0.6989 -0.3587
C70 C -0.3974(4) 0.6567(2) -0.3547(3)
H54 H -0.3678 0.6540 -0.3257
C71 C -0.4724(3) 0.63874(17) -0.4064(4)
H55 H -0.4977 0.6239 -0.4177
C72 C -0.4868(3) 0.66508(15) -0.4263(3)
H56 H -0.5206 0.6677 -0.4503
loop_
_geom_bond_atom_site_label_1
_geom_bond_atom_site_label_2
_geom_bond_site_symmetry_1
_geom_bond_site_symmetry_2
W1 O1 1_555 1_555
W2 O3 1_555 1_555
W3 O2 1_555 1_555
W4 O13 1_555 1_555
W5 O12 1_555 1_555
W6 O5 1_555 1_555
W7 O4 1_555 1_555
W8 O9 1_555 1_555
W9 O8 1_555 1_555
W10 O34 1_555 1_555
W11 O15 1_555 1_555
W12 O20 1_555 1_555
W13 O24 1_555 1_555
W14 O27 1_555 1_555
W15 O31 1_555 1_555
W16 O36 1_555 1_555
W17 O41 1_555 1_555
W18 O48 1_555 1_555
P1 O3 1_555 1_555
P2 O37 1_555 1_555
O2 W1 1_555 1_555
O3 W1 1_555 1_555
O4 W1 1_555 1_555
O5 W1 1_555 1_555
O6 W1 1_555 1_555
O7 W2 1_555 1_555
O8 W2 1_555 1_555
O9 W2 1_555 1_555
O10 W2 1_555 1_555
O11 W3 1_555 1_555
O12 W3 1_555 1_555
O13 W3 1_555 1_555
O14 W4 1_555 1_555
O15 W4 1_555 1_555
O16 W4 1_555 1_555
O17 W4 1_555 1_555
O18 W4 1_555 1_555
O19 W5 1_555 1_555
O20 W5 1_555 1_555
O21 W5 1_555 1_555
O22 W5 1_555 1_555
O23 W6 1_555 1_555
O24 W6 1_555 1_555
O25 W6 1_555 1_555
O26 W7 1_555 1_555
O27 W7 1_555 1_555
O28 W7 1_555 1_555
O29 W7 1_555 1_555
O30 W8 1_555 1_555
O31 W8 1_555 1_555
O32 W8 1_555 1_555
O33 W9 1_555 1_555
O34 W9 1_555 1_555
O35 W10 1_555 1_555
O36 W10 1_555 1_555
O37 W10 1_555 1_555
O38 W10 1_555 1_555
O39 W10 1_555 1_555
O40 W11 1_555 1_555
O41 W11 1_555 1_555
O42 W11 1_555 1_555
O43 W12 1_555 1_555
O44 W12 1_555 1_555
O45 W12 1_555 1_555
O46 W12 1_555 1_555
O47 W13 1_555 1_555
O48 W13 1_555 1_555
O49 W13 1_555 1_555
O50 W14 1_555 1_555
O51 W14 1_555 1_555
O52 W14 1_555 1_555
O53 W14 1_555 1_555
O54 W15 1_555 1_555
O55 W15 1_555 1_555
O56 W16 1_555 1_555
O57 W16 1_555 1_555
O58 W16 1_555 1_555
O59 W16 1_555 1_555
O60 W17 1_555 1_555
O61 W17 1_555 1_555
O62 W18 1_555 1_555
Cu1 N1 1_555 1_555
Cu2 O63 1_555 1_555
N1 C1 1_555 1_555
N2 C5 1_555 1_555
N3 Cu1 1_555 1_555
N4 Cu2 1_555 1_555
N5 Cu2 1_555 1_555
N6 C24 1_555 1_555
N7 Cu2 1_555 1_555
N8 C34 1_555 1_555
N9 Cu2 1_555 1_555
N10 C44 1_555 1_555
C1 H1 1_555 1_555
C2 C1 1_555 1_555
H2 C2 1_555 1_555
C3 C2 1_555 1_555
C4 C3 1_555 1_555
C5 H3 1_555 1_555
C6 C4 1_555 1_555
H4 C6 1_555 1_555
C7 H5 1_555 1_555
C8 N3 1_555 1_555
H6 C8 1_555 1_555
C9 N3 1_555 1_555
H7 C9 1_555 1_555
C10 C9 1_555 1_555
H8 C10 1_555 1_555
C11 C7 1_555 1_555
C12 C11 1_555 1_555
C13 C12 1_555 1_555
H9 C13 1_555 1_555
C14 N4 1_555 1_555
H10 C14 1_555 1_555
C15 N4 1_555 1_555
H11 C15 1_555 1_555
C16 C12 1_555 1_555
H12 C16 1_555 1_555
C17 H13 1_555 1_555
C18 N5 1_555 1_555
H14 C18 1_555 1_555
C19 N5 1_555 1_555
H15 C19 1_555 1_555
C20 C19 1_555 1_555
H16 C20 1_555 1_555
C21 C17 1_555 1_555
C22 C21 1_555 1_555
C23 C22 1_555 1_555
H17 C23 1_555 1_555
C24 C23 1_555 1_555
H18 C24 1_555 1_555
C25 N6 1_555 1_555
H19 C25 1_555 1_555
C26 C22 1_555 1_555
H20 C26 1_555 1_555
C27 H21 1_555 1_555
C28 N7 1_555 1_555
H22 C28 1_555 1_555
C29 N7 1_555 1_555
H23 C29 1_555 1_555
C30 C29 1_555 1_555
H24 C30 1_555 1_555
C31 C27 1_555 1_555
C32 C31 1_555 1_555
C33 C32 1_555 1_555
H25 C33 1_555 1_555
C34 C33 1_555 1_555
H26 C34 1_555 1_555
C35 N8 1_555 1_555
H27 C35 1_555 1_555
C36 C32 1_555 1_555
H28 C36 1_555 1_555
C37 H29 1_555 1_555
C38 N9 1_555 1_555
H30 C38 1_555 1_555
C39 N9 1_555 1_555
H31 C39 1_555 1_555
C40 C39 1_555 1_555
H32 C40 1_555 1_555
C41 C37 1_555 1_555
C42 C41 1_555 1_555
C43 C42 1_555 1_555
H33 C43 1_555 1_555
C44 C43 1_555 1_555
H34 C44 1_555 1_555
C45 N10 1_555 1_555
H35 C45 1_555 1_555
C46 C42 1_555 1_555
H36 C46 1_555 1_555
Cu3 N11 1_555 1_555
N11 C47 1_555 1_555
N12 Cu3 1_555 1_555
N13 Cu3 1_555 1_555
N14 C60 1_555 1_555
C47 H37 1_555 1_555
C48 C47 1_555 1_555
H38 C48 1_555 1_555
C49 C48 1_555 1_555
C50 C49 1_555 1_555
C51 N12 1_555 1_555
H39 C51 1_555 1_555
C52 C50 1_555 1_555
H40 C52 1_555 1_555
C53 H41 1_555 1_555
C54 N13 1_555 1_555
H42 C54 1_555 1_555
C55 N13 1_555 1_555
H43 C55 1_555 1_555
C56 C55 1_555 1_555
H44 C56 1_555 1_555
C57 C53 1_555 1_555
C58 C57 1_555 1_555
C59 C58 1_555 1_555
H45 C59 1_555 1_555
C60 C59 1_555 1_555
H46 C60 1_555 1_555
C61 N14 1_555 1_555
H47 C61 1_555 1_555
C62 C58 1_555 1_555
H48 C62 1_555 1_555
N15 C64 1_555 1_555
N16 C70 1_555 1_555
C63 H49 1_555 1_555
C64 C63 1_555 1_555
H50 C64 1_555 1_555
C65 N15 1_555 1_555
H51 C65 1_555 1_555
C66 C65 1_555 1_555
H52 C66 1_555 1_555
C67 C63 1_555 1_555
C68 C67 1_555 1_555
C69 C68 1_555 1_555
H53 C69 1_555 1_555
C70 C69 1_555 1_555
H54 C70 1_555 1_555
C71 N16 1_555 1_555
H55 C71 1_555 1_555
C72 C68 1_555 1_555
H56 C72 1_555 1_555
Cu1F N2 1_555 1_555
Cu2A O63A 1_555 1_555
N2F Cu1 1_555 1_555
N3A Cu1 1_555 1_555
N4A Cu2A 1_555 1_555
N5A Cu2A 1_555 1_555
N6A C24A 1_555 1_555
N7A Cu2A 1_555 1_555
N8A C34A 1_555 1_555
N9A Cu2A 1_555 1_555
N10A C44A 1_555 1_555
C1A N1 1_555 1_555
H1A C1A 1_555 1_555
C2A C3 1_555 1_555
H2A C2A 1_555 1_555
C5A N2 1_555 1_555
H3A C5A 1_555 1_555
C6A C4 1_555 1_555
H4A C6A 1_555 1_555
C7A H5A 1_555 1_555
C8A N3A 1_555 1_555
H6A C8A 1_555 1_555
C9A N3A 1_555 1_555
H7A C9A 1_555 1_555
C10A C9A 1_555 1_555
H8A C10A 1_555 1_555
C11A C7A 1_555 1_555
C12A C11A 1_555 1_555
C13A C12A 1_555 1_555
H9A C13A 1_555 1_555
C14A N4A 1_555 1_555
H10A C14A 1_555 1_555
C15A N4A 1_555 1_555
H11A C15A 1_555 1_555
C16A C12A 1_555 1_555
H12A C16A 1_555 1_555
C17A H13A 1_555 1_555
C18A N5A 1_555 1_555
H14A C18A 1_555 1_555
C19A N5A 1_555 1_555
H15A C19A 1_555 1_555
C20A C19A 1_555 1_555
H16A C20A 1_555 1_555
C21A C17A 1_555 1_555
C22A C21A 1_555 1_555
C23A C22A 1_555 1_555
H17A C23A 1_555 1_555
C24A C23A 1_555 1_555
H18A C24A 1_555 1_555
C25A N6A 1_555 1_555
H19A C25A 1_555 1_555
C26A C22A 1_555 1_555
H20A C26A 1_555 1_555
C27A H21A 1_555 1_555
C28A N7A 1_555 1_555
H22A C28A 1_555 1_555
C29A N7A 1_555 1_555
H23A C29A 1_555 1_555
C30A C29A 1_555 1_555
H24A C30A 1_555 1_555
C31A C27A 1_555 1_555
C32A C31A 1_555 1_555
C33A C32A 1_555 1_555
H25A C33A 1_555 1_555
C34A C33A 1_555 1_555
H26A C34A 1_555 1_555
C35A N8A 1_555 1_555
H27A C35A 1_555 1_555
C36A C32A 1_555 1_555
H28A C36A 1_555 1_555
C37A H29A 1_555 1_555
C38A N9A 1_555 1_555
H30A C38A 1_555 1_555
C39A N9A 1_555 1_555
H31A C39A 1_555 1_555
C40A C39A 1_555 1_555
H32A C40A 1_555 1_555
C41A C37A 1_555 1_555
C42A C41A 1_555 1_555
C43A C42A 1_555 1_555
H33A C43A 1_555 1_555
C44A C43A 1_555 1_555
H34A C44A 1_555 1_555
C45A N10A 1_555 1_555
H35A C45A 1_555 1_555
C46A C42A 1_555 1_555
H36A C46A 1_555 1_555
Cu3F N11F 1_555 1_555
Cu3F_2 N11F_2 1_555 1_555
N11F C47G 1_555 1_555
N12F Cu3F_2 1_555 1_555
N13A Cu3 1_555 1_555
N13F Cu3F_2 1_555 1_555
N13G Cu3F_2 1_555 1_555
N14A C60A 1_555 1_555
N14G C60G 1_555 1_555
N14F C60F 1_555 1_555
C47A N11 1_555 1_555
C47G H37G 1_555 1_555
C47F N11F 1_555 1_555
H37A C47A 1_555 1_555
H37F C47F 1_555 1_555
C48A C49 1_555 1_555
C48F C47F 1_555 1_555
C48G C47G 1_555 1_555
H38A C48A 1_555 1_555
H38G C48G 1_555 1_555
H38F C48F 1_555 1_555
C49F C48F 1_555 1_555
C50F C49F 1_555 1_555
C51A N12 1_555 1_555
C51F C52 1_555 1_555
C51G N12F 1_555 1_555
H39A C51A 1_555 1_555
H39F C51F 1_555 1_555
H39G C51G 1_555 1_555
C52A C50 1_555 1_555
C52F C51 1_555 1_555
C52G C50F 1_555 1_555
H40A C52A 1_555 1_555
H40F C52F 1_555 1_555
H40G C52G 1_555 1_555
C53A H41A 1_555 1_555
C53G H41G 1_555 1_555
C53F H41F 1_555 1_555
C54A N13A 1_555 1_555
C54F N13F 1_555 1_555
C54G N13G 1_555 1_555
H42A C54A 1_555 1_555
H42G C54G 1_555 1_555
H42F C54F 1_555 1_555
C55A N13A 1_555 1_555
C55F N13F 1_555 1_555
C55G N13G 1_555 1_555
H43A C55A 1_555 1_555
H43G C55G 1_555 1_555
H43F C55F 1_555 1_555
C56A C55A 1_555 1_555
C56G C55G 1_555 1_555
C56F C55F 1_555 1_555
H44A C56A 1_555 1_555
H44G C56G 1_555 1_555
H44F C56F 1_555 1_555
C57A C53A 1_555 1_555
C57G C53G 1_555 1_555
C57F C53F 1_555 1_555
C58A C57A 1_555 1_555
C58G C57G 1_555 1_555
C58F C57F 1_555 1_555
C59A C58A 1_555 1_555
C59G C58G 1_555 1_555
C59F C58F 1_555 1_555
H45A C59A 1_555 1_555
H45G C59G 1_555 1_555
H45F C59F 1_555 1_555
C60A C59A 1_555 1_555
C60G C59G 1_555 1_555
C60F C59F 1_555 1_555
H46A C60A 1_555 1_555
H46G C60G 1_555 1_555
H46F C60F 1_555 1_555
C61A N14A 1_555 1_555
C61G N14G 1_555 1_555
C61F N14F 1_555 1_555
H47A C61A 1_555 1_555
H47G C61G 1_555 1_555
H47F C61F 1_555 1_555
C62A C58A 1_555 1_555
C62G C58G 1_555 1_555
C62F C58F 1_555 1_555
H48A C62A 1_555 1_555
H48G C62G 1_555 1_555
H48F C62F 1_555 1_555
W2 O6 1_555 1_555
W3 O3 1_555 1_555
W3 O10 1_555 1_555
W5 O18 1_555 1_555
W6 O21 1_555 1_555
W6 O22 1_555 1_555
W7 O25 1_555 1_555
W8 O28 1_555 1_555
W8 O29 1_555 1_555
W9 O16 1_555 1_555
W9 O17 1_555 1_555
W9 O32 1_555 1_555
W11 O37 1_555 1_555
W11 O39 1_555 1_555
W12 O42 1_555 1_555
W13 O45 1_555 1_555
W13 O46 1_555 1_555
W14 O49 1_555 1_555
W15 O38 1_555 1_555
W15 O51 1_555 1_555
W15 O53 1_555 1_555
W16 O55 1_555 1_555
W17 O44 1_555 1_555
W17 O57 1_555 1_555
W17 O59 1_555 1_555
W18 O52 1_555 1_555
W18 O57 1_555 1_555
W18 O58 1_555 1_555
W18 O61 1_555 1_555
P1 O16 1_555 1_555
P1 O21 1_555 1_555
P1 O28 1_555 1_555
P2 O45 1_555 1_555
P2 O51 1_555 1_555
P2 O57 1_555 1_555
C5 C6 1_555 1_555
C7 C8 1_555 1_555
C10 C11 1_555 1_555
C13 C14 1_555 1_555
C15 C16 1_555 1_555
C17 C18 1_555 1_555
C20 C21 1_555 1_555
C25 C26 1_555 1_555
C27 C28 1_555 1_555
C30 C31 1_555 1_555
C35 C36 1_555 1_555
C37 C38 1_555 1_555
C40 C41 1_555 1_555
C45 C46 1_555 1_555
C53 C54 1_555 1_555
C56 C57 1_555 1_555
C61 C62 1_555 1_555
C66 C67 1_555 1_555
C71 C72 1_555 1_555
C1A C2A 1_555 1_555
C5A C6A 1_555 1_555
C7A C8A 1_555 1_555
C10A C11A 1_555 1_555
C13A C14A 1_555 1_555
C15A C16A 1_555 1_555
C17A C18A 1_555 1_555
C20A C21A 1_555 1_555
C25A C26A 1_555 1_555
C27A C28A 1_555 1_555
C30A C31A 1_555 1_555
C35A C36A 1_555 1_555
C37A C38A 1_555 1_555
C40A C41A 1_555 1_555
C45A C46A 1_555 1_555
N12F C51F 1_555 1_555
C47A C48A 1_555 1_555
C48G C49F 1_555 1_555
C50F C52F 1_555 1_555
C51A C52G 1_555 1_555
C51G C52A 1_555 1_555
C53A C54A 1_555 1_555
C53G C54G 1_555 1_555
C53F C54F 1_555 1_555
C56A C57A 1_555 1_555
C56G C57G 1_555 1_555
C56F C57F 1_555 1_555
C61A C62A 1_555 1_555
C61G C62G 1_555 1_555
C61F C62F 1_555 1_555

#END
