
#######################################################################
#
#                 Cambridge Crystallographic Data Centre
#                                CCDC 
#
#######################################################################
#
# If this CIF has been generated from an entry in the Cambridge 
# Structural Database, then it will include bibliographic, chemical, 
# crystal, experimental, refinement or atomic coordinate data resulting 
# from the CCDC's data processing and validation procedures.
#
#######################################################################

data_VOJRIW
_symmetry_cell_setting           orthorhombic
_symmetry_space_group_name_H-M   'P 21 21 21'
_symmetry_Int_Tables_number      19
_space_group_name_Hall           'P 2ac 2ab'
loop_
_symmetry_equiv_pos_site_id
_symmetry_equiv_pos_as_xyz
1 x,y,z
2 1/2-x,-y,1/2+z
3 -x,1/2+y,1/2-z
4 1/2+x,1/2-y,-z
_cell_length_a                   7.0194(14)
_cell_length_b                   9.5224(19)
_cell_length_c                   14.208(3)
_cell_angle_alpha                90
_cell_angle_beta                 90
_cell_angle_gamma                90
_cell_volume                     949.685
loop_
_atom_site_label
_atom_site_type_symbol
_atom_site_fract_x
_atom_site_fract_y
_atom_site_fract_z
O1 O 1.0061(7) 0.2841(2) 0.29064(16)
O2 O 1.1772(5) 0.5917(4) 0.6689(3)
O3 O 1.0886(9) 0.6605(4) 0.5190(3)
O4 O 0.8498(6) 0.6149(5) 0.6406(6)
C1 C 1.0146(6) 0.1838(4) 0.3483(2)
Ce1 Ce 0.98979(3) 0.318631(19) 0.122552(14)
C2 C 1.0135(7) 0.3015(4) 0.6394(3)
S1 S 1.0290(2) 0.57925(10) 0.59890(7)
O5 O 1.0282(7) 0.0568(3) 0.32038(19)
O6 O 1.0072(7) -0.0237(2) 0.50838(16)
C3 C 1.0121(7) 0.1618(3) 0.6166(2)
C4 C 1.0122(7) 0.1143(3) 0.5226(2)
O7 O 1.2125(5) 0.1138(4) 0.1420(3)
C5 C 1.0183(9) 0.3587(4) 0.4744(3)
O8 O 0.7736(6) 0.1086(5) 0.1606(3)
C6 C 1.0130(7) 0.2160(3) 0.4503(2)
C7 C 1.0180(8) 0.4015(3) 0.5668(2)
H1 H 1.023(6) 0.332(4) 0.702(2)
H2 H 1.013(8) 0.101(4) 0.669(2)
H3 H 0.983(9) 0.424(5) 0.424(3)
H4 H 1.296(7) 0.081(7) 0.105(4)
H5 H 0.695(7) 0.078(7) 0.120(4)
H6 H 1.203(7) 0.071(5) 0.194(2)
H7 H 0.814(9) 0.039(5) 0.192(4)
O2A O 1.3228(5) 0.4083(4) 0.1689(3)
O3B O 0.9114(9) 0.1605(4) -0.0190(3)
O4A O 0.6502(6) 0.3851(5) 0.1406(6)
Ce1A Ce 1.51021(3) 0.681369(19) 0.622552(14)
Ce1B Ce 1.01021(3) 0.818631(19) 0.377448(14)
Ce1A_2 Ce 0.51021(3) 0.681369(19) 0.622552(14)
Ce1B_2 Ce 1.01021(3) -0.181369(19) 0.377448(14)
O5B O 0.9718(7) 0.5568(3) 0.17962(19)
O6B O 0.9928(7) 0.4763(2) -0.00838(16)
loop_
_geom_bond_atom_site_label_1
_geom_bond_atom_site_label_2
_geom_bond_site_symmetry_1
_geom_bond_site_symmetry_2
O1 C1 1_555 1_555
O2 S1 1_555 1_555
O3 S1 1_555 1_555
O4 S1 1_555 1_555
C1 O5 1_555 1_555
Ce1 O1 1_555 1_555
C2 C3 1_555 1_555
S1 C7 1_555 1_555
O5 Ce1B_2 1_555 1_555
O6 C4 1_555 1_555
C3 C4 1_555 1_555
C4 C6 1_555 1_555
O7 Ce1 1_555 1_555
C5 C6 1_555 1_555
O8 Ce1 1_555 1_555
C6 C1 1_555 1_555
C7 C2 1_555 1_555
H1 C2 1_555 1_555
H2 C3 1_555 1_555
H3 C5 1_555 1_555
H4 O7 1_555 1_555
H5 O8 1_555 1_555
H6 O7 1_555 1_555
H7 O8 1_555 1_555
O2A Ce1 1_555 1_555
O3B Ce1 1_555 1_555
O4A Ce1 1_555 1_555
Ce1A O2 1_555 1_555
Ce1B O3 1_555 1_555
Ce1A_2 O4 1_555 1_555
Ce1B_2 O6 1_555 1_555
O5B Ce1 1_555 1_555
O6B Ce1 1_555 1_555
C5 C7 1_555 1_555

#END
