
#######################################################################
#
#                 Cambridge Crystallographic Data Centre
#                                CCDC 
#
#######################################################################
#
# If this CIF has been generated from an entry in the Cambridge 
# Structural Database, then it will include bibliographic, chemical, 
# crystal, experimental, refinement or atomic coordinate data resulting 
# from the CCDC's data processing and validation procedures.
#
#######################################################################

data_VOJRIX
_symmetry_cell_setting           triclinic
_symmetry_space_group_name_H-M   'P -1'
_symmetry_Int_Tables_number      2
_space_group_name_Hall           '-P 1'
loop_
_symmetry_equiv_pos_site_id
_symmetry_equiv_pos_as_xyz
1 x,y,z
2 -x,-y,-z
_cell_length_a                   17.267(6)
_cell_length_b                   17.380(6)
_cell_length_c                   18.306(10)
_cell_angle_alpha                102.659(5)
_cell_angle_beta                 103.677(5)
_cell_angle_gamma                110.207(3)
_cell_volume                     4728.87
loop_
_atom_site_label
_atom_site_type_symbol
_atom_site_fract_x
_atom_site_fract_y
_atom_site_fract_z
Cl2 Cl 0.6082(2) 1.0889(2) 0.6242(2)
Cl3 Cl -0.36107(17) 0.4982(2) 0.90988(19)
Cl4 Cl -0.12580(16) 0.5127(2) 0.9164(2)
Cl5 Cl -0.2905(2) 0.4875(2) 0.7453(2)
Cl6 Cl -0.1742(3) 0.6919(3) 0.9373(4)
Cu1 Cu -0.23925(9) 0.54884(11) 0.87825(10)
Cl7 Cl 0.4583(2) 1.3220(2) 0.6207(2)
Cl8 Cl 0.3310(3) 1.1162(2) 0.5057(2)
Cl9 Cl 0.1958(3) 1.1855(3) 0.5841(4)
Cl10 Cl 0.3689(4) 1.2296(3) 0.7411(3)
Cu2 Cu 0.33760(10) 1.21607(10) 0.61151(11)
O1 O 0.3984(5) 1.0107(6) 0.9858(6)
O2 O 0.1761(4) 0.5252(4) 0.3915(4)
O3 O 0.2494(4) 0.3939(4) 0.3626(4)
O4 O 0.0470(4) 0.4479(5) 0.4631(5)
O5 O 0.2205(5) 0.2922(5) 0.4618(5)
O6 O 0.1071(4) 0.3448(5) 0.5517(5)
O7 O 0.2105(4) 0.5626(5) 0.5835(5)
O8 O 0.4047(4) 1.1717(4) 0.9572(5)
O9 O 0.2443(5) 1.1803(5) 0.9853(5)
O10 O 0.2044(5) 1.0925(7) 1.0968(5)
O11 O 0.3261(6) 0.9943(5) 1.1131(5)
O12 O 0.5023(5) 1.1602(6) 1.1277(6)
La1 La 0.19094(3) 0.43078(3) 0.47779(3)
La2 La 0.34287(3) 1.11936(3) 1.05972(3)
C1 C 0.4170(5) 0.6050(7) 0.5367(6)
C2 C 0.5473(5) 0.7312(6) 0.5834(6)
H1 H 0.5823 0.7490 0.5494
C3 C 0.5659(5) 0.6622(6) 0.6155(6)
H2 H 0.6138 0.6517 0.6006
C4 C 0.5958(5) 0.7810(6) 0.7238(6)
C5 C 0.4632(5) 0.5059(6) 0.5938(6)
H3 H 0.4129 0.4596 0.5493
H4 H 0.5135 0.4912 0.5966
C6 C 0.6290(5) 0.6659(6) 0.7583(5)
H5 H 0.6584 0.6325 0.7358
H6 H 0.6736 0.7154 0.8043
C7 C 0.3608(5) 0.4685(6) 0.6657(6)
C8 C 0.5098(5) 0.5187(6) 0.7396(5)
H7 H 0.5445 0.4845 0.7323
C9 C 0.4529(5) 0.4921(6) 0.7915(6)
H8 H 0.4623 0.4469 0.8122
C10 C 0.5455(5) 0.6393(6) 0.8493(6)
C11 C 0.2871(5) 0.4110(6) 0.7550(7)
H9 H 0.2386 0.3750 0.7047
H10 H 0.3017 0.3717 0.7810
C12 C 0.4636(5) 0.5776(6) 0.9286(6)
H11 H 0.5085 0.6311 0.9704
H12 H 0.4689 0.5286 0.9440
C13 C 0.1738(6) 0.4550(6) 0.7824(7)
C14 C 0.2991(5) 0.4917(6) 0.8908(6)
H13 H 0.3096 0.4461 0.9102
C15 C 0.2307(5) 0.5175(6) 0.9209(5)
H14 H 0.2130 0.4874 0.9582
C16 C 0.3640(5) 0.6404(6) 0.9679(6)
C17 C 0.0713(5) 0.4797(5) 0.8482(6)
H15 H 0.0584 0.4542 0.8890
H16 H 0.0282 0.4390 0.7965
C18 C 0.2473(5) 0.6612(6) 1.0148(6)
H17 H 0.2231 0.6268 1.0464
H18 H 0.2975 0.7147 1.0516
C19 C 0.0086(5) 0.5766(6) 0.8033(7)
C20 C 0.0879(5) 0.6250(6) 0.9403(6)
H19 H 0.0694 0.5980 0.9792
C21 C 0.0417(5) 0.6833(5) 0.9212(6)
H20 H -0.0031 0.6793 0.9472
C22 C 0.1937(5) 0.7671(6) 0.9821(6)
C23 C -0.0616(5) 0.6755(6) 0.7926(6)
H21 H -0.0983 0.6845 0.8242
H22 H -0.1000 0.6285 0.7424
C24 C 0.1011(6) 0.8482(5) 0.9645(6)
H23 H 0.1520 0.8954 1.0078
H24 H 0.0493 0.8408 0.9803
C25 C -0.0268(5) 0.7562(6) 0.7007(6)
C26 C 0.0068(5) 0.8431(5) 0.8313(5)
H25 H -0.0399 0.8479 0.8521
C27 C 0.0278(5) 0.9007(6) 0.7776(5)
H26 H -0.0091 0.9334 0.7733
C28 C 0.1519(5) 0.9463(5) 0.8883(5)
C29 C 0.0045(5) 0.8625(6) 0.6285(6)
H27 H -0.0372 0.8112 0.5827
H28 H -0.0176 0.9076 0.6304
C30 C 0.1660(6) 1.0327(6) 0.7978(6)
H29 H 0.1255 1.0578 0.7793
H30 H 0.2140 1.0771 0.8452
C31 C 0.1095(6) 0.8464(7) 0.5625(7)
C32 C 0.1528(5) 0.9854(6) 0.6533(5)
H31 H 0.1271 1.0257 0.6408
C33 C 0.2246(5) 0.9851(6) 0.6155(6)
H32 H 0.2354 1.0284 0.5876
C34 C 0.2863(5) 1.0214(6) 0.7507(6)
C35 C 0.2228(6) 0.8744(7) 0.4986(6)
H33 H 0.2396 0.9226 0.4776
H34 H 0.1762 0.8237 0.4549
C36 C 0.3894(5) 1.0340(6) 0.6786(7)
H35 H 0.3962 1.0710 0.6450
H36 H 0.4320 1.0688 0.7321
C37 C 0.2980(5) 0.7754(6) 0.4938(6)
C38 C 0.3865(5) 0.9244(6) 0.5622(6)
H37 H 0.3973 0.9691 0.5357
C39 C 0.4460(5) 0.8760(5) 0.5562(6)
H38 H 0.4846 0.8971 0.5259
C40 C 0.4798(6) 0.9502(6) 0.6891(7)
C41 C 0.4090(6) 0.7209(6) 0.4823(5)
H39 H 0.4484 0.7442 0.4541
H40 H 0.3564 0.6719 0.4427
C42 C 0.5806(5) 0.8885(6) 0.6579(6)
H41 H 0.6189 0.9291 0.7113
H42 H 0.6091 0.9058 0.6201
N1 N 0.4522(4) 0.6886(5) 0.5381(5)
N2 N 0.4821(4) 0.5845(5) 0.5761(5)
N3 N 0.5724(4) 0.8008(5) 0.6551(5)
N4 N 0.5907(4) 0.6977(5) 0.6994(5)
N5 N 0.4445(4) 0.5058(5) 0.6649(5)
N6 N 0.3628(4) 0.4610(5) 0.7371(5)
N7 N 0.5649(4) 0.6116(5) 0.7848(5)
N8 N 0.4814(4) 0.5745(5) 0.8560(5)
N9 N 0.2579(4) 0.4619(5) 0.8047(5)
N10 N 0.1576(4) 0.4894(5) 0.8484(5)
N11 N 0.3759(4) 0.5748(5) 0.9252(5)
N12 N 0.2769(4) 0.6118(5) 0.9607(5)
N13 N 0.0607(4) 0.5619(5) 0.8633(5)
N14 N 0.0017(4) 0.6495(5) 0.8357(5)
N15 N 0.1812(4) 0.6828(5) 0.9707(5)
N16 N 0.1136(4) 0.7696(5) 0.9546(5)
N17 N -0.0198(4) 0.7560(4) 0.7750(5)
N18 N 0.0088(4) 0.8399(5) 0.7018(5)
N19 N 0.0898(4) 0.8735(4) 0.8932(4)
N20 N 0.1197(4) 0.9588(4) 0.8200(4)
N21 N 0.0893(4) 0.8937(5) 0.6171(5)
N22 N 0.1881(4) 0.8969(5) 0.5598(5)
N23 N 0.2017(4) 1.0112(5) 0.7365(5)
N24 N 0.3008(4) 1.0074(5) 0.6828(5)
N25 N 0.2980(4) 0.8550(5) 0.5238(5)
N26 N 0.3845(4) 0.7850(5) 0.5154(5)
N27 N 0.4095(4) 0.9618(5) 0.6470(5)
N28 N 0.4966(4) 0.8960(5) 0.6392(5)
O13 O 0.3388(4) 0.5524(4) 0.5007(4)
O14 O 0.2932(4) 0.4418(4) 0.6067(4)
O15 O 0.1217(4) 0.4238(5) 0.7133(4)
O16 O -0.0255(4) 0.5304(5) 0.7320(4)
O17 O -0.0604(4) 0.6898(4) 0.6388(4)
O18 O 0.0640(4) 0.7686(4) 0.5190(5)
O19 O 0.2344(4) 0.7074(4) 0.4527(5)
O20 O 0.6234(4) 0.8302(4) 0.7919(4)
O21 O 0.5828(4) 0.7174(4) 0.8982(4)
O22 O 0.4214(4) 0.7145(4) 1.0048(5)
O23 O 0.2648(4) 0.8301(4) 1.0159(4)
O24 O 0.2233(4) 0.9944(4) 0.9429(4)
O25 O 0.3410(4) 1.0478(4) 0.8197(4)
O26 O 0.5172(5) 0.9831(5) 0.7620(4)
La1A La -0.19094(3) 0.56922(3) 0.52221(3)
La2A La 0.65713(3) 0.88064(3) 0.94028(3)
O17A O 0.0604(4) 0.3102(4) 0.3612(4)
O20A O 0.3766(4) 1.1698(4) 1.2081(4)
O21A O 0.4172(4) 1.2826(4) 1.1018(4)
Cl1 Cl 0.79871(17) 0.8008(2) 0.7144(2)
loop_
_geom_bond_atom_site_label_1
_geom_bond_atom_site_label_2
_geom_bond_site_symmetry_1
_geom_bond_site_symmetry_2
Cl3 Cu1 1_555 1_555
Cl4 Cu1 1_555 1_555
Cl5 Cu1 1_555 1_555
Cl6 Cu1 1_555 1_555
Cl7 Cu2 1_555 1_555
Cl8 Cu2 1_555 1_555
Cl9 Cu2 1_555 1_555
Cl10 Cu2 1_555 1_555
O1 La2 1_555 1_555
O2 La1 1_555 1_555
O3 La1 1_555 1_555
O4 La1 1_555 1_555
O5 La1 1_555 1_555
O6 La1 1_555 1_555
O7 La1 1_555 1_555
O8 La2 1_555 1_555
O9 La2 1_555 1_555
O10 La2 1_555 1_555
O11 La2 1_555 1_555
O12 La2 1_555 1_555
La1 O13 1_555 1_555
La2 O24 1_555 1_555
C1 N1 1_555 1_555
C2 H1 1_555 1_555
C3 C2 1_555 1_555
H2 C3 1_555 1_555
C4 N3 1_555 1_555
C5 H3 1_555 1_555
H4 C5 1_555 1_555
C6 H5 1_555 1_555
H6 C6 1_555 1_555
C7 N5 1_555 1_555
C8 H7 1_555 1_555
C9 C8 1_555 1_555
H8 C9 1_555 1_555
C10 N7 1_555 1_555
C11 H9 1_555 1_555
H10 C11 1_555 1_555
C12 H11 1_555 1_555
H12 C12 1_555 1_555
C13 N9 1_555 1_555
C14 H13 1_555 1_555
C15 C14 1_555 1_555
H14 C15 1_555 1_555
C16 N11 1_555 1_555
C17 H15 1_555 1_555
H16 C17 1_555 1_555
C18 H17 1_555 1_555
H18 C18 1_555 1_555
C19 N13 1_555 1_555
C20 H19 1_555 1_555
C21 C20 1_555 1_555
H20 C21 1_555 1_555
C22 N15 1_555 1_555
C23 H21 1_555 1_555
H22 C23 1_555 1_555
C24 H23 1_555 1_555
H24 C24 1_555 1_555
C25 N17 1_555 1_555
C26 H25 1_555 1_555
C27 C26 1_555 1_555
H26 C27 1_555 1_555
C28 N19 1_555 1_555
C29 H27 1_555 1_555
H28 C29 1_555 1_555
C30 H29 1_555 1_555
H30 C30 1_555 1_555
C31 N21 1_555 1_555
C32 H31 1_555 1_555
C33 C32 1_555 1_555
H32 C33 1_555 1_555
C34 N23 1_555 1_555
C35 H33 1_555 1_555
H34 C35 1_555 1_555
C36 H35 1_555 1_555
H36 C36 1_555 1_555
C37 N25 1_555 1_555
C38 H37 1_555 1_555
C39 C38 1_555 1_555
H38 C39 1_555 1_555
C40 N27 1_555 1_555
C41 H39 1_555 1_555
H40 C41 1_555 1_555
C42 H41 1_555 1_555
H42 C42 1_555 1_555
N1 C2 1_555 1_555
N2 C1 1_555 1_555
N3 C2 1_555 1_555
N4 C3 1_555 1_555
N5 C5 1_555 1_555
N6 C7 1_555 1_555
N7 C6 1_555 1_555
N8 C9 1_555 1_555
N9 C11 1_555 1_555
N10 C13 1_555 1_555
N11 C12 1_555 1_555
N12 C15 1_555 1_555
N13 C17 1_555 1_555
N14 C19 1_555 1_555
N15 C18 1_555 1_555
N16 C21 1_555 1_555
N17 C23 1_555 1_555
N18 C25 1_555 1_555
N19 C24 1_555 1_555
N20 C27 1_555 1_555
N21 C29 1_555 1_555
N22 C31 1_555 1_555
N23 C30 1_555 1_555
N24 C33 1_555 1_555
N25 C35 1_555 1_555
N26 C37 1_555 1_555
N27 C36 1_555 1_555
N28 C39 1_555 1_555
O13 C1 1_555 1_555
O14 La1 1_555 1_555
O15 C13 1_555 1_555
O16 C19 1_555 1_555
O17 C25 1_555 1_555
O18 C31 1_555 1_555
O19 C37 1_555 1_555
O20 C4 1_555 1_555
O21 C10 1_555 1_555
O22 C16 1_555 1_555
O23 C22 1_555 1_555
O24 C28 1_555 1_555
O25 C34 1_555 1_555
O26 C40 1_555 1_555
La1A O17 1_555 1_555
La2A O20 1_555 1_555
O17A La1 1_555 1_555
O20A La2 1_555 1_555
O21A La2 1_555 1_555
C3 N2 1_555 1_555
C4 N4 1_555 1_555
C5 N2 1_555 1_555
C6 N4 1_555 1_555
C7 O14 1_555 1_555
C8 N5 1_555 1_555
C8 N7 1_555 1_555
C9 N6 1_555 1_555
C10 N8 1_555 1_555
C11 N6 1_555 1_555
C12 N8 1_555 1_555
C14 N9 1_555 1_555
C14 N11 1_555 1_555
C15 N10 1_555 1_555
C16 N12 1_555 1_555
C17 N10 1_555 1_555
C18 N12 1_555 1_555
C20 N13 1_555 1_555
C20 N15 1_555 1_555
C21 N14 1_555 1_555
C22 N16 1_555 1_555
C23 N14 1_555 1_555
C24 N16 1_555 1_555
C26 N17 1_555 1_555
C26 N19 1_555 1_555
C27 N18 1_555 1_555
C28 N20 1_555 1_555
C29 N18 1_555 1_555
C30 N20 1_555 1_555
C32 N21 1_555 1_555
C32 N23 1_555 1_555
C33 N22 1_555 1_555
C34 N24 1_555 1_555
C35 N22 1_555 1_555
C36 N24 1_555 1_555
C38 N25 1_555 1_555
C38 N27 1_555 1_555
C39 N26 1_555 1_555
C40 N28 1_555 1_555
C41 N1 1_555 1_555
C41 N26 1_555 1_555
C42 N3 1_555 1_555
C42 N28 1_555 1_555
O21 La2A 1_555 1_555

#END
