
#######################################################################
#
#                 Cambridge Crystallographic Data Centre
#                                CCDC 
#
#######################################################################
#
# If this CIF has been generated from an entry in the Cambridge 
# Structural Database, then it will include bibliographic, chemical, 
# crystal, experimental, refinement or atomic coordinate data resulting 
# from the CCDC's data processing and validation procedures.
#
#######################################################################

data_VOJRUI
_symmetry_cell_setting           orthorhombic
_symmetry_space_group_name_H-M   'P 21 21 21'
_symmetry_Int_Tables_number      19
_space_group_name_Hall           'P 2ac 2ab'
loop_
_symmetry_equiv_pos_site_id
_symmetry_equiv_pos_as_xyz
1 x,y,z
2 1/2-x,-y,1/2+z
3 -x,1/2+y,1/2-z
4 1/2+x,1/2-y,-z
_cell_length_a                   6.9758(14)
_cell_length_b                   9.4687(19)
_cell_length_c                   14.191(3)
_cell_angle_alpha                90
_cell_angle_beta                 90
_cell_angle_gamma                90
_cell_volume                     937.34
loop_
_atom_site_label
_atom_site_type_symbol
_atom_site_fract_x
_atom_site_fract_y
_atom_site_fract_z
H1 H -0.520(8) 1.074(4) 0.577(3)
H2 H -0.530(6) 1.408(3) 0.332(2)
H3 H -0.504(7) 1.175(3) 0.304(2)
O1 O -0.3470(6) 0.8848(5) 0.3574(5)
O2 O -0.6801(5) 0.9062(4) 0.3339(3)
O3 O -0.5760(9) 0.8356(4) 0.4828(2)
S1 S -0.5263(2) 0.91955(9) 0.40172(6)
O4 O -0.5064(7) 1.5261(2) 0.49220(16)
O5 O -0.5272(7) 1.4442(3) 0.68087(18)
Nd1 Nd -0.00949(3) 0.818502(18) 0.376637(13)
C1 C -0.5147(6) 1.3174(4) 0.6535(2)
O6 O -0.5058(6) 1.2152(2) 0.71053(15)
O7 O 0.2131(8) 0.6149(5) 0.3573(4)
O8 O -0.2253(6) 0.6110(5) 0.3413(3)
C2 C -0.5146(9) 1.1409(4) 0.5264(2)
C3 C -0.5093(8) 1.3877(3) 0.4784(2)
C4 C -0.5108(8) 1.2844(3) 0.5504(2)
C5 C -0.5087(8) 1.1977(3) 0.3609(2)
C6 C -0.5083(7) 1.3395(3) 0.3835(2)
C7 C -0.5150(8) 1.0984(3) 0.4333(2)
H4 H -0.294(7) 0.578(5) 0.395(4)
H5 H -0.208(7) 0.566(5) 0.306(3)
H6 H 0.300(12) 0.602(9) 0.352(8)
H7 H 0.168(9) 0.578(7) 0.337(5)
O2_2 O 0.3199(5) 0.9062(4) 0.3339(3)
O3C O -0.0760(9) 0.6644(4) 0.5172(2)
O4C O -0.0064(7) 0.9739(2) 0.50780(16)
O5C O -0.0272(7) 1.0558(3) 0.31913(18)
Nd1_2 Nd -1.00949(3) 0.818502(18) 0.376637(13)
Nd1C Nd -0.50949(3) 0.681498(18) 0.623363(13)
Nd1C_2 Nd -0.50949(3) 1.681498(18) 0.623363(13)
Nd1A Nd -0.49051(3) 1.181498(18) 0.876637(13)
O6A O 0.0058(6) 0.7848(2) 0.21053(15)
loop_
_geom_bond_atom_site_label_1
_geom_bond_atom_site_label_2
_geom_bond_site_symmetry_1
_geom_bond_site_symmetry_2
H1 C2 1_555 1_555
H2 C6 1_555 1_555
H3 C5 1_555 1_555
O1 S1 1_555 1_555
O2 S1 1_555 1_555
O3 S1 1_555 1_555
S1 C7 1_555 1_555
O4 C3 1_555 1_555
O5 C1 1_555 1_555
Nd1 O1 1_555 1_555
C1 O6 1_555 1_555
O6 Nd1A 1_555 1_555
O7 Nd1 1_555 1_555
O8 Nd1 1_555 1_555
C2 C4 1_555 1_555
C3 C4 1_555 1_555
C4 C1 1_555 1_555
C5 C6 1_555 1_555
C6 C3 1_555 1_555
C7 C2 1_555 1_555
H4 O8 1_555 1_555
H5 O8 1_555 1_555
H6 O7 1_555 1_555
H7 O7 1_555 1_555
O2_2 Nd1 1_555 1_555
O3C Nd1 1_555 1_555
O4C Nd1 1_555 1_555
O5C Nd1 1_555 1_555
Nd1_2 O2 1_555 1_555
Nd1C O3 1_555 1_555
Nd1C_2 O4 1_555 1_555
O6A Nd1 1_555 1_555
O5 Nd1C_2 1_555 1_555
C5 C7 1_555 1_555

#END
