
#######################################################################
#
#                 Cambridge Crystallographic Data Centre
#                                CCDC 
#
#######################################################################
#
# If this CIF has been generated from an entry in the Cambridge 
# Structural Database, then it will include bibliographic, chemical, 
# crystal, experimental, refinement or atomic coordinate data resulting 
# from the CCDC's data processing and validation procedures.
#
#######################################################################

data_VOJRES
_symmetry_cell_setting           triclinic
_symmetry_space_group_name_H-M   'P -1'
_symmetry_Int_Tables_number      2
_space_group_name_Hall           '-P 1'
loop_
_symmetry_equiv_pos_site_id
_symmetry_equiv_pos_as_xyz
1 x,y,z
2 -x,-y,-z
_cell_length_a                   11.1785(15)
_cell_length_b                   15.816(2)
_cell_length_c                   18.092(3)
_cell_angle_alpha                92.045(4)
_cell_angle_beta                 103.565(4)
_cell_angle_gamma                110.238(4)
_cell_volume                     2893.43
loop_
_atom_site_label
_atom_site_type_symbol
_atom_site_fract_x
_atom_site_fract_y
_atom_site_fract_z
Co1 Co 0.23992(2) 0.733365(15) -0.029162(13)
Co2 Co 1.22781(2) 1.234179(15) 0.507798(13)
N1 N 0.33352(15) 0.83144(10) 0.07434(8)
C1 C 0.32263(19) 0.80803(13) 0.14426(11)
H1 H 0.2664 0.7482 0.1475
C2 C 0.38946(19) 0.86701(13) 0.21144(11)
H2 H 0.3786 0.8472 0.2592
C3 C 0.47250(17) 0.95521(12) 0.20906(10)
C4 C 0.48212(19) 0.98012(13) 0.13672(11)
H3 H 0.5367 1.0398 0.1320
C5 C 0.41163(19) 0.91733(12) 0.07180(11)
H4 H 0.4189 0.9359 0.0232
C6 C 0.55059(19) 1.01935(13) 0.28228(10)
H5 H 0.6443 1.0254 0.2921
H6 H 0.5177 0.9918 0.3253
C7 C 0.54402(18) 1.11456(13) 0.28197(11)
H7 H 0.4506 1.1093 0.2650
H8 H 0.5906 1.1470 0.2452
C8 C 0.60801(18) 1.16941(13) 0.36265(11)
H9 H 0.6003 1.2298 0.3608
H10 H 0.5585 1.1377 0.3986
C9 C 0.75257(18) 1.18226(12) 0.39319(10)
C10 C 0.79117(18) 1.11897(13) 0.43500(10)
H11 H 0.7262 1.0663 0.4446
C11 C 0.01425(17) 0.65701(11) 0.05982(10)
N2 N 0.07700(15) 0.67354(10) 0.01543(9)
Se1 Se -0.078706(19) 0.632064(13) 0.129876(10)
C12 C 0.92452(18) 1.13319(12) 0.46246(10)
H12 H 0.9482 1.0888 0.4899
C13 C 0.51744(18) 0.81107(12) -0.07266(10)
N3 N 0.40727(15) 0.79251(10) -0.07137(9)
Se2 Se 0.686845(19) 0.839601(16) -0.073061(13)
N4 N 1.02192(15) 1.20723(10) 0.45194(9)
C14 C 0.98480(18) 1.26817(13) 0.41146(11)
H13 H 1.0517 1.3207 0.4033
C15 C 0.85350(19) 1.25776(12) 0.38111(11)
H14 H 0.8324 1.3020 0.3521
C16 C 1.22834(17) 1.04637(12) 0.43290(10)
N5 N 1.20927(15) 1.10227(10) 0.46715(9)
Se3 Se 1.26234(2) 0.962938(14) 0.379948(11)
C17 C 1.25262(17) 1.44150(12) 0.55544(10)
N6 N 1.24540(16) 1.36616(11) 0.54833(9)
Se4 Se 1.26622(2) 1.558113(12) 0.563879(11)
N7 N 0.13819(14) 0.63870(10) -0.13401(8)
C18 C 0.00618(17) 0.61061(13) -0.16172(11)
H15 H -0.0435 0.6247 -0.1305
C19 C -0.06082(17) 0.56193(13) -0.23383(11)
H16 H -0.1540 0.5446 -0.2511
C20 C 0.00815(17) 0.53827(11) -0.28105(10)
C21 C 0.14511(17) 0.56489(12) -0.25099(10)
H17 H 0.1966 0.5487 -0.2799
C22 C 0.20522(16) 0.61493(11) -0.17894(10)
H18 H 0.2984 0.6334 -0.1602
C23 C -0.05938(18) 0.48775(12) -0.36097(10)
H19 H -0.0146 0.5223 -0.3976
H20 H -0.1520 0.4847 -0.3751
C24 C -0.05875(18) 0.39068(13) -0.36870(11)
H21 H 0.0326 0.3931 -0.3474
H22 H -0.0858 0.3669 -0.4238
C25 C -0.15101(19) 0.32425(13) -0.32766(12)
H23 H -0.1351 0.2665 -0.3282
H24 H -0.1292 0.3504 -0.2735
C26 C -0.29535(18) 0.30476(12) -0.36447(10)
C27 C -0.37230(19) 0.33861(13) -0.33070(11)
H25 H -0.3345 0.3750 -0.2822
C28 C -0.50450(19) 0.31909(12) -0.36803(11)
H26 H -0.5548 0.3434 -0.3442
N8 N -0.56432(15) 0.26721(10) -0.43650(8)
C29 C -0.49010(18) 0.23429(13) -0.46912(11)
H27 H -0.5304 0.1980 -0.5176
C30 C -0.35768(18) 0.25067(13) -0.43550(11)
H28 H -0.3098 0.2253 -0.4606
N9 N 0.33701(15) 0.64658(10) 0.02658(8)
C31 C 0.27084(18) 0.55627(12) 0.01721(10)
H29 H 0.1800 0.5332 -0.0100
C32 C 0.32887(18) 0.49512(12) 0.04541(10)
H30 H 0.2788 0.4317 0.0360
C33 C 0.46119(18) 0.52718(13) 0.08769(10)
C34 C 0.52939(18) 0.62098(13) 0.09794(11)
H31 H 0.6195 0.6459 0.1264
C35 C 0.46574(18) 0.67778(13) 0.06657(11)
H32 H 0.5146 0.7413 0.0734
C36 C 0.52736(19) 0.46269(14) 0.12050(11)
H33 H 0.6234 0.4907 0.1255
H34 H 0.4921 0.4059 0.0844
C37 C 0.50519(18) 0.43932(14) 0.19984(11)
H35 H 0.5527 0.3988 0.2193
H36 H 0.5430 0.4959 0.2363
C38 C 0.35901(18) 0.39287(13) 0.19670(10)
H37 H 0.3148 0.4372 0.1855
H38 H 0.3180 0.3425 0.1539
C39 C 0.33453(17) 0.35529(13) 0.26994(10)
C40 C 0.2556(2) 0.26497(13) 0.26873(11)
H39 H 0.2187 0.2253 0.2218
C41 C 0.23066(19) 0.23273(13) 0.33622(11)
H40 H 0.1755 0.1710 0.3338
N10 N 0.28098(14) 0.28478(10) 0.40483(9)
C42 C 0.36020(18) 0.37154(13) 0.40628(11)
H41 H 0.3989 0.4091 0.4543
C43 C 0.38810(19) 0.40885(13) 0.34112(11)
H42 H 0.4436 0.4708 0.3450
N11 N 0.15055(14) 0.82460(10) -0.08387(8)
C44 C 0.15498(18) 0.84477(12) -0.15526(10)
H43 H 0.2026 0.8202 -0.1813
C45 C 0.09301(18) 0.89988(13) -0.19249(10)
H44 H 0.0993 0.9126 -0.2427
C46 C 0.02154(17) 0.93659(12) -0.15595(11)
C47 C 0.01736(17) 0.91534(12) -0.08192(10)
H45 H -0.0295 0.9390 -0.0546
C48 C 0.08148(18) 0.85987(12) -0.04848(10)
H46 H 0.0766 0.8460 0.0016
C49 C -0.04834(19) 0.99699(13) -0.19290(12)
H47 H -0.1425 0.9712 -0.1927
H48 H -0.0444 0.9984 -0.2470
C50 C 0.0139(2) 1.09467(13) -0.15091(12)
H49 H -0.0406 1.1296 -0.1738
H50 H 0.0123 1.0927 -0.0965
C51 C 0.1570(2) 1.14465(13) -0.15439(10)
H51 H 0.1931 1.2044 -0.1223
H52 H 0.2114 1.1091 -0.1327
C52 C 0.16726(17) 1.15896(12) -0.23523(10)
C53 C 0.10347(18) 1.21049(13) -0.27800(10)
H53 H 0.0523 1.2365 -0.2565
C54 C 0.11503(18) 1.22349(12) -0.35171(10)
H54 H 0.0712 1.2590 -0.3794
N12 N 0.18517(15) 1.18838(10) -0.38613(8)
C55 C 0.24436(19) 1.13707(13) -0.34573(11)
H55 H 0.2924 1.1101 -0.3692
C56 C 0.23826(19) 1.12183(13) -0.27124(11)
H56 H 0.2828 1.0859 -0.2448
Co2_2 Co -0.77219(2) 0.234179(15) -0.492202(13)
Co2_3 Co 0.22781(2) 0.234179(15) 0.507798(13)
Co2_4 Co 0.22781(2) 1.234179(15) -0.492202(13)
N8_2 N 1.43568(15) 1.26721(10) 0.56350(8)
N10_2 N 1.28098(14) 1.28478(10) 0.40483(9)
N12_2 N 1.18517(15) 1.18838(10) 0.61387(8)
loop_
_geom_bond_atom_site_label_1
_geom_bond_atom_site_label_2
_geom_bond_site_symmetry_1
_geom_bond_site_symmetry_2
Co1 N1 1_555 1_555
Co2 N4 1_555 1_555
N1 C1 1_555 1_555
C1 H1 1_555 1_555
C2 C1 1_555 1_555
H2 C2 1_555 1_555
C3 C2 1_555 1_555
C4 C3 1_555 1_555
H3 C4 1_555 1_555
C5 N1 1_555 1_555
H4 C5 1_555 1_555
C6 C3 1_555 1_555
H5 C6 1_555 1_555
H6 C6 1_555 1_555
C7 C6 1_555 1_555
H7 C7 1_555 1_555
H8 C7 1_555 1_555
C8 C7 1_555 1_555
H9 C8 1_555 1_555
H10 C8 1_555 1_555
C9 C8 1_555 1_555
C10 C9 1_555 1_555
H11 C10 1_555 1_555
C11 N2 1_555 1_555
N2 Co1 1_555 1_555
Se1 C11 1_555 1_555
C12 C10 1_555 1_555
H12 C12 1_555 1_555
C13 N3 1_555 1_555
N3 Co1 1_555 1_555
Se2 C13 1_555 1_555
N4 C12 1_555 1_555
C14 N4 1_555 1_555
H13 C14 1_555 1_555
C15 C9 1_555 1_555
H14 C15 1_555 1_555
C16 N5 1_555 1_555
N5 Co2 1_555 1_555
Se3 C16 1_555 1_555
C17 N6 1_555 1_555
N6 Co2 1_555 1_555
Se4 C17 1_555 1_555
N7 Co1 1_555 1_555
C18 N7 1_555 1_555
H15 C18 1_555 1_555
C19 C18 1_555 1_555
H16 C19 1_555 1_555
C20 C19 1_555 1_555
C21 C20 1_555 1_555
H17 C21 1_555 1_555
C22 N7 1_555 1_555
H18 C22 1_555 1_555
C23 C20 1_555 1_555
H19 C23 1_555 1_555
H20 C23 1_555 1_555
C24 C23 1_555 1_555
H21 C24 1_555 1_555
H22 C24 1_555 1_555
C25 C24 1_555 1_555
H23 C25 1_555 1_555
H24 C25 1_555 1_555
C26 C25 1_555 1_555
C27 C26 1_555 1_555
H25 C27 1_555 1_555
C28 C27 1_555 1_555
H26 C28 1_555 1_555
N8 C28 1_555 1_555
C29 N8 1_555 1_555
H27 C29 1_555 1_555
C30 C26 1_555 1_555
H28 C30 1_555 1_555
N9 Co1 1_555 1_555
C31 N9 1_555 1_555
H29 C31 1_555 1_555
C32 C31 1_555 1_555
H30 C32 1_555 1_555
C33 C32 1_555 1_555
C34 C33 1_555 1_555
H31 C34 1_555 1_555
C35 N9 1_555 1_555
H32 C35 1_555 1_555
C36 C33 1_555 1_555
H33 C36 1_555 1_555
H34 C36 1_555 1_555
C37 C36 1_555 1_555
H35 C37 1_555 1_555
H36 C37 1_555 1_555
C38 C37 1_555 1_555
H37 C38 1_555 1_555
H38 C38 1_555 1_555
C39 C38 1_555 1_555
C40 C39 1_555 1_555
H39 C40 1_555 1_555
C41 C40 1_555 1_555
H40 C41 1_555 1_555
N10 C41 1_555 1_555
C42 N10 1_555 1_555
H41 C42 1_555 1_555
C43 C39 1_555 1_555
H42 C43 1_555 1_555
N11 Co1 1_555 1_555
C44 N11 1_555 1_555
H43 C44 1_555 1_555
C45 C44 1_555 1_555
H44 C45 1_555 1_555
C46 C45 1_555 1_555
C47 C46 1_555 1_555
H45 C47 1_555 1_555
C48 N11 1_555 1_555
H46 C48 1_555 1_555
C49 C46 1_555 1_555
H47 C49 1_555 1_555
H48 C49 1_555 1_555
C50 C49 1_555 1_555
H49 C50 1_555 1_555
H50 C50 1_555 1_555
C51 C50 1_555 1_555
H51 C51 1_555 1_555
H52 C51 1_555 1_555
C52 C51 1_555 1_555
C53 C52 1_555 1_555
H53 C53 1_555 1_555
C54 C53 1_555 1_555
H54 C54 1_555 1_555
N12 C54 1_555 1_555
C55 N12 1_555 1_555
H55 C55 1_555 1_555
C56 C52 1_555 1_555
H56 C56 1_555 1_555
Co2_2 N8 1_555 1_555
Co2_3 N10 1_555 1_555
Co2_4 N12 1_555 1_555
N8_2 Co2 1_555 1_555
N10_2 Co2 1_555 1_555
N12_2 Co2 1_555 1_555
C4 C5 1_555 1_555
C14 C15 1_555 1_555
C21 C22 1_555 1_555
C29 C30 1_555 1_555
C34 C35 1_555 1_555
C42 C43 1_555 1_555
C47 C48 1_555 1_555
C55 C56 1_555 1_555

#END
