
#######################################################################
#
#                 Cambridge Crystallographic Data Centre
#                                CCDC 
#
#######################################################################
#
# If this CIF has been generated from an entry in the Cambridge 
# Structural Database, then it will include bibliographic, chemical, 
# crystal, experimental, refinement or atomic coordinate data resulting 
# from the CCDC's data processing and validation procedures.
#
#######################################################################

data_VOJVUM
_symmetry_cell_setting           orthorhombic
_symmetry_space_group_name_H-M   'P n m a'
_symmetry_Int_Tables_number      62
_space_group_name_Hall           '-P 2ac 2n'
loop_
_symmetry_equiv_pos_site_id
_symmetry_equiv_pos_as_xyz
1 x,y,z
2 1/2+x,1/2-y,1/2-z
3 -x,1/2+y,-z
4 1/2-x,-y,1/2+z
5 -x,-y,-z
6 1/2-x,1/2+y,1/2+z
7 x,1/2-y,z
8 1/2+x,y,1/2-z
_cell_length_a                   21.387(2)
_cell_length_b                   41.838(5)
_cell_length_c                   3.8011(4)
_cell_angle_alpha                90
_cell_angle_beta                 90
_cell_angle_gamma                90
_cell_volume                     3401.18
loop_
_atom_site_label
_atom_site_type_symbol
_atom_site_fract_x
_atom_site_fract_y
_atom_site_fract_z
Cu1 Cu 0.41343(5) -0.16839(2) -0.1149(3)
Cu2 Cu 0.30952(12) -0.15741(5) 0.4100(5)
Cl1 Cl 0.44985(10) -0.14383(5) -0.6154(5)
Cl2 Cl 0.29803(10) -0.15990(5) -0.0917(7)
S5 S 0.52957(9) -0.21420(4) -0.4236(5)
S6 S 0.66353(10) -0.28524(5) -0.8026(5)
N3 N 0.4172(3) -0.21629(14) -0.1172(17)
C9 C 0.3692(3) -0.23388(18) 0.018(2)
C10 C 0.4639(3) -0.23317(17) -0.251(2)
C11 C 0.5693(5) -0.2500 -0.533(3)
C12 C 0.6245(5) -0.2500 -0.694(3)
C13 C 0.7261(4) -0.26581(19) -1.001(2)
H5 H 0.3331 -0.2233 0.1157
H6 H 0.7598 -0.2783 -1.0986
Cu1_2 Cu 0.41343(5) -0.16839(2) 0.8851(3)
Cu1_3 Cu 0.41343(5) -0.16839(2) -1.1149(3)
Cu1F Cu 0.41343(5) -0.33161(2) -0.1149(3)
Cu2_2 Cu 0.30952(12) -0.15741(5) -0.5900(5)
Cu2_3 Cu 0.30952(12) -0.15741(5) 1.4100(5)
Cl1_2 Cl 0.44985(10) -0.14383(5) 0.3846(5)
Cl1_3 Cl 0.44985(10) -0.14383(5) 1.3846(5)
Cl2_2 Cl 0.29803(10) -0.15990(5) 0.9083(7)
Cl2_3 Cl 0.29803(10) -0.15990(5) -1.0917(7)
S5F S 0.52957(9) -0.28580(4) -0.4236(5)
S6F S 0.66353(10) -0.21476(5) -0.8026(5)
N3F N 0.4172(3) -0.28371(14) -0.1172(17)
N3_2 N 0.4172(3) -0.21629(14) 0.8828(17)
C9F C 0.3692(3) -0.26612(18) 0.018(2)
C10F C 0.4639(3) -0.26683(17) -0.251(2)
C13F C 0.7261(4) -0.23419(19) -1.001(2)
H5F H 0.3331 -0.2767 0.1157
H6F H 0.7598 -0.2217 -1.0986
S1 S 0.56511(10) -0.01773(5) 0.2037(5)
S2 S 0.69168(10) -0.01666(5) -0.1151(5)
S3 S 0.56338(10) -0.09395(5) 0.1540(6)
S4 S 0.69065(10) -0.09406(5) -0.1308(6)
N1 N 0.5674(3) 0.04603(16) 0.2140(19)
N2 N 0.6865(3) 0.04743(16) -0.1090(19)
C1 C 0.5964(4) 0.07363(19) 0.135(2)
C2 C 0.6540(4) 0.07409(19) -0.024(2)
C3 C 0.5987(3) 0.01961(19) 0.126(2)
C4 C 0.6568(3) 0.02045(19) -0.027(2)
C5 C 0.6296(3) -0.03908(19) 0.036(2)
C6 C 0.6280(3) -0.07158(18) 0.022(2)
C7 C 0.5968(4) -0.1304(2) 0.039(2)
C8 C 0.6535(4) -0.1303(2) -0.087(2)
H1 H 0.5759 0.0935 0.1928
H2 H 0.6722 0.0945 -0.0791
H3 H 0.5739 -0.1500 0.0702
H4 H 0.6737 -0.1499 -0.1565
loop_
_geom_bond_atom_site_label_1
_geom_bond_atom_site_label_2
_geom_bond_site_symmetry_1
_geom_bond_site_symmetry_2
S1 C3 1_555 1_555
S2 C4 1_555 1_555
S3 C6 1_555 1_555
S4 C6 1_555 1_555
N1 C1 1_555 1_555
N2 C2 1_555 1_555
C1 C2 1_555 1_555
C2 H2 1_555 1_555
C3 N1 1_555 1_555
C4 N2 1_555 1_555
C5 S1 1_555 1_555
C6 C5 1_555 1_555
C7 S3 1_555 1_555
C8 S4 1_555 1_555
H1 C1 1_555 1_555
H3 C7 1_555 1_555
H4 C8 1_555 1_555
Cu1 Cl1 1_555 1_555
Cu2 Cl2 1_555 1_555
Cl1 Cu1_3 1_555 1_555
Cl2 Cu1 1_555 1_555
S5 C10 1_555 1_555
S6 C12 1_555 1_555
N3 Cu1 1_555 1_555
C9 N3 1_555 1_555
C10 N3 1_555 1_555
C11 S5 1_555 1_555
C12 C11 1_555 1_555
C13 S6 1_555 1_555
H5 C9 1_555 1_555
H6 C13 1_555 1_555
Cu1_2 Cl1_2 1_555 1_555
Cu1_3 Cl2_3 1_555 1_555
Cu1F N3F 1_555 1_555
Cu2_2 Cl2 1_555 1_555
Cu2_3 Cl2_2 1_555 1_555
Cl1_2 Cu1 1_555 1_555
Cl1_3 Cu1_2 1_555 1_555
Cl2_2 Cu2 1_555 1_555
Cl2_3 Cu2_2 1_555 1_555
S5F C11 1_555 1_555
S6F C12 1_555 1_555
N3F C9F 1_555 1_555
N3_2 Cu1_2 1_555 1_555
C9F C9 1_555 1_555
C10F C10 1_555 1_555
C13F C13 1_555 1_555
H5F C9F 1_555 1_555
H6F C13F 1_555 1_555
S2 C5 1_555 1_555
C3 C4 1_555 1_555
C7 C8 1_555 1_555
Cu1_2 Cl2_2 1_555 1_555
S5F C10F 1_555 1_555
S6F C13F 1_555 1_555
N3F C10F 1_555 1_555

#END
