
#######################################################################
#
#                 Cambridge Crystallographic Data Centre
#                                CCDC 
#
#######################################################################
#
# If this CIF has been generated from an entry in the Cambridge 
# Structural Database, then it will include bibliographic, chemical, 
# crystal, experimental, refinement or atomic coordinate data resulting 
# from the CCDC's data processing and validation procedures.
#
#######################################################################

data_VOJWUO
_symmetry_cell_setting           monoclinic
_symmetry_space_group_name_H-M   'P 21'
_symmetry_Int_Tables_number      4
_space_group_name_Hall           'P 2yb'
loop_
_symmetry_equiv_pos_site_id
_symmetry_equiv_pos_as_xyz
1 x,y,z
2 -x,1/2+y,-z
_cell_length_a                   8.4407(5)
_cell_length_b                   12.0976(5)
_cell_length_c                   10.2448(6)
_cell_angle_alpha                90
_cell_angle_beta                 95.656(5)
_cell_angle_gamma                90
_cell_volume                     1041.03
loop_
_atom_site_label
_atom_site_type_symbol
_atom_site_fract_x
_atom_site_fract_y
_atom_site_fract_z
C1 C 0.4505(3) 0.5522(2) 0.0610(3)
C2 C 0.5464(3) 0.6098(2) 0.1767(3)
H1 H 0.4697 0.6347 0.2363
C3 C 0.6343(3) 0.7117(2) 0.1363(3)
H2 H 0.5588 0.7621 0.0904
H3 H 0.7106 0.6901 0.0762
C4 C 0.7217(3) 0.7715(2) 0.2534(3)
H4 H 0.6515 0.7788 0.3224
H5 H 0.8134 0.7283 0.2875
C5 C 0.7760(3) 0.8851(3) 0.2142(2)
H6 H 0.8437 0.8786 0.1434
H7 H 0.6846 0.9300 0.1839
C6 C 0.9039(3) 1.0424(2) 0.3360(3)
C7 C 0.5586(3) 0.2242(2) 0.4256(3)
C8 C 0.4110(3) 0.1860(2) 0.3377(2)
H8 H 0.3171 0.2057 0.3819
C9 C 0.4124(3) 0.0603(2) 0.3229(3)
H9 H 0.5167 0.0381 0.3003
H10 H 0.3976 0.0276 0.4073
C10 C 0.2881(3) 0.0126(2) 0.2215(3)
H11 H 0.1860 0.0473 0.2297
H12 H 0.3179 0.0276 0.1341
C11 C 0.2746(3) -0.1104(3) 0.2410(3)
H13 H 0.3799 -0.1431 0.2448
H14 H 0.2326 -0.1243 0.3243
C12 C 0.1185(3) -0.2654(2) 0.1475(3)
N1 N 0.6479(3) 0.52533(19) 0.2479(3)
H15 H 0.6739 0.5460 0.3316
H16 H 0.7379 0.5149 0.2092
N2 N 0.4008(3) 0.24615(19) 0.2125(2)
H17 H 0.2982 0.2591 0.1840
H18 H 0.4442 0.2055 0.1516
N3 N 0.8642(3) 0.9370(2) 0.3281(2)
H19 H 0.8922 0.8958 0.3948
N4 N 0.9957(3) 1.0787(2) 0.4420(2)
H20 H 1.0279 1.0334 0.5036
H21 H 1.0223 1.1473 0.4482
N5 N 0.8581(3) 1.1128(2) 0.2412(2)
H22 H 0.8011 1.0902 0.1721
H23 H 0.8854 1.1812 0.2484
N6 N 0.1722(3) -0.16309(19) 0.1368(2)
H24 H 0.1455 -0.1268 0.0659
N7 N 0.1526(3) -0.3240(2) 0.2556(2)
H25 H 0.1144 -0.3895 0.2615
H26 H 0.2130 -0.2966 0.3201
N8 N 0.0253(3) -0.3091(2) 0.0493(2)
H27 H -0.0121 -0.3747 0.0564
H28 H 0.0022 -0.2719 -0.0215
O1 O 0.4234(3) 0.45031(17) 0.0750(2)
O2 O 0.4021(3) 0.60653(18) -0.0374(2)
O3 O 0.6313(2) 0.30972(17) 0.3885(2)
O4 O 0.5999(3) 0.1731(2) 0.5269(2)
Cu1 Cu 0.51665(3) 0.38766(3) 0.23982(3)
Na1 Na 0.9576(3) 1.31099(19) 0.4697(2)
N9 N 0.9991(3) 1.4098(2) 0.1845(3)
O5 O 0.9212(3) 1.45829(18) 0.0881(2)
O6 O 1.0302(3) 1.46364(18) 0.2935(2)
O7 O 1.0441(3) 1.30875(19) 0.1801(2)
O8 O 0.3435(3) 0.44747(19) 0.3864(2)
H29 H 0.249(3) 0.439(3) 0.361(4)
H30 H 0.352(5) 0.508(3) 0.428(4)
O3_2 O 0.6313(2) 1.30972(17) 0.3885(2)
Na1_2 Na 0.9576(3) 0.31099(19) 0.4697(2)
loop_
_geom_bond_atom_site_label_1
_geom_bond_atom_site_label_2
_geom_bond_site_symmetry_1
_geom_bond_site_symmetry_2
C1 C2 1_555 1_555
C2 H1 1_555 1_555
C3 C2 1_555 1_555
H2 C3 1_555 1_555
H3 C3 1_555 1_555
C4 C3 1_555 1_555
H4 C4 1_555 1_555
H5 C4 1_555 1_555
C5 C4 1_555 1_555
H6 C5 1_555 1_555
H7 C5 1_555 1_555
C6 N3 1_555 1_555
C7 C8 1_555 1_555
C8 H8 1_555 1_555
C9 C8 1_555 1_555
H9 C9 1_555 1_555
H10 C9 1_555 1_555
C10 C9 1_555 1_555
H11 C10 1_555 1_555
H12 C10 1_555 1_555
C11 C10 1_555 1_555
H13 C11 1_555 1_555
H14 C11 1_555 1_555
C12 N6 1_555 1_555
N1 C2 1_555 1_555
H15 N1 1_555 1_555
H16 N1 1_555 1_555
N2 C8 1_555 1_555
H17 N2 1_555 1_555
H18 N2 1_555 1_555
N3 C5 1_555 1_555
H19 N3 1_555 1_555
N4 C6 1_555 1_555
H20 N4 1_555 1_555
H21 N4 1_555 1_555
N5 C6 1_555 1_555
H22 N5 1_555 1_555
H23 N5 1_555 1_555
N6 C11 1_555 1_555
H24 N6 1_555 1_555
N7 C12 1_555 1_555
H25 N7 1_555 1_555
H26 N7 1_555 1_555
N8 C12 1_555 1_555
H27 N8 1_555 1_555
H28 N8 1_555 1_555
O1 C1 1_555 1_555
O2 C1 1_555 1_555
O3 C7 1_555 1_555
O4 C7 1_555 1_555
Cu1 N1 1_555 1_555
Na1 N4 1_555 1_555
N9 O5 1_555 1_555
O6 Na1 1_555 1_555
O7 N9 1_555 1_555
O8 Cu1 1_555 1_555
H29 O8 1_555 1_555
H30 O8 1_555 1_555
O3_2 Na1 1_555 1_555
Na1_2 O3 1_555 1_555
N2 Cu1 1_555 1_555
O1 Cu1 1_555 1_555
O3 Cu1 1_555 1_555
N9 O6 1_555 1_555

#END
