
#######################################################################
#
#                 Cambridge Crystallographic Data Centre
#                                CCDC 
#
#######################################################################
#
# If this CIF has been generated from an entry in the Cambridge 
# Structural Database, then it will include bibliographic, chemical, 
# crystal, experimental, refinement or atomic coordinate data resulting 
# from the CCDC's data processing and validation procedures.
#
#######################################################################

data_VOKCOP
_symmetry_cell_setting           tetragonal
_symmetry_space_group_name_H-M   'I 41/a c d'
_symmetry_Int_Tables_number      142
_space_group_name_Hall           '-I 4bd 2c'
loop_
_symmetry_equiv_pos_site_id
_symmetry_equiv_pos_as_xyz
1 x,y,z
2 1/4-y,3/4+x,1/4+z
3 1/2-x,-y,1/2+z
4 1/4+y,1/4-x,3/4+z
5 x,-y,1/2-z
6 1/4+y,3/4+x,3/4-z
7 1/2-x,y,-z
8 1/4-y,1/4-x,1/4-z
9 1/2+x,1/2+y,1/2+z
10 3/4-y,1/4+x,3/4+z
11 -x,1/2-y,z
12 3/4+y,3/4-x,1/4+z
13 1/2+x,1/2-y,-z
14 3/4+y,1/4+x,1/4-z
15 -x,1/2+y,1/2-z
16 3/4-y,3/4-x,3/4-z
17 -x,-y,-z
18 3/4+y,1/4-x,3/4-z
19 1/2+x,y,1/2-z
20 3/4-y,3/4+x,1/4-z
21 -x,y,1/2+z
22 3/4-y,1/4-x,1/4+z
23 1/2+x,-y,z
24 3/4+y,3/4+x,3/4+z
25 1/2-x,1/2-y,1/2-z
26 1/4+y,3/4-x,1/4-z
27 x,1/2+y,-z
28 1/4-y,1/4+x,3/4-z
29 1/2-x,1/2+y,z
30 1/4-y,3/4-x,3/4+z
31 x,1/2-y,1/2+z
32 1/4+y,1/4+x,1/4+z
_cell_length_a                   28.6610(16)
_cell_length_b                   28.6610(16)
_cell_length_c                   22.9776(12)
_cell_angle_alpha                90
_cell_angle_beta                 90
_cell_angle_gamma                90
_cell_volume                     18875
loop_
_atom_site_label
_atom_site_type_symbol
_atom_site_fract_x
_atom_site_fract_y
_atom_site_fract_z
C1 C 0.6220(2) 0.66012(19) 0.7315(2)
C2 C 0.57985(19) 0.63002(18) 0.73473(19)
C3 C 0.57084(19) 0.60331(18) 0.78439(19)
H1 H 0.5910 0.6049 0.8171
C4 C 0.53227(18) 0.57459(18) 0.78532(19)
C5 C 0.50153(19) 0.56967(19) 0.73826(19)
H2 H 0.4755 0.5492 0.7400
C6 C 0.51100(19) 0.59649(19) 0.6884(2)
C7 C 0.54875(19) 0.62696(19) 0.6880(2)
H3 H 0.5536 0.6463 0.6550
C8 C 0.4648(2) 0.6419(2) 0.8802(3)
H4 H 0.4746 0.6425 0.9211
H5 H 0.4396 0.6646 0.8743
H6 H 0.4914 0.6501 0.8554
C9 C 0.4476(2) 0.5934(2) 0.8646(2)
H7 H 0.4200 0.5857 0.8887
H8 H 0.4379 0.5929 0.8233
C10 C 0.48458(19) 0.5579(2) 0.8742(2)
C11 C 0.54964(19) 0.51634(19) 0.8647(2)
C12 C 0.5928(2) 0.4974(2) 0.8383(2)
H9 H 0.6139 0.5238 0.8293
H10 H 0.5845 0.4823 0.8009
C13 C 0.6192(2) 0.4624(2) 0.8755(2)
H11 H 0.6306 0.4778 0.9108
H12 H 0.6457 0.4500 0.8534
H13 H 0.5983 0.4367 0.8863
C14 C 0.4447(2) 0.5713(2) 0.6280(2)
C15 C 0.4231(2) 0.5763(2) 0.5688(2)
C16 C 0.4400(2) 0.6055(3) 0.5269(3)
H14 H 0.4672 0.6233 0.5347
C17 C 0.4183(3) 0.6098(3) 0.4735(3)
H15 H 0.4302 0.6307 0.4450
C18 C 0.3789(2) 0.5833(3) 0.4618(3)
H16 H 0.3633 0.5864 0.4255
C19 C 0.3629(3) 0.5531(3) 0.5025(3)
H17 H 0.3361 0.5346 0.4943
C20 C 0.3847(3) 0.5490(3) 0.5548(3)
H18 H 0.3734 0.5269 0.5824
Ag1 Ag 0.715809(16) 0.701868(17) 0.743511(16)
N1 N 0.48939(16) 0.53156(16) 0.92009(17)
N2 N 0.52998(16) 0.50567(15) 0.91400(17)
N3 N 0.52155(15) 0.54939(16) 0.83805(17)
N4 N 0.48432(17) 0.59397(17) 0.63735(17)
H19 H 0.4954 0.6096 0.6074
O1 O 0.65777(13) 0.64726(14) 0.75917(15)
O2 O 0.61951(15) 0.69722(13) 0.70116(15)
O3 O 0.42640(18) 0.5462(2) 0.66512(18)
Ag1A Ag 0.548132(17) 0.465809(16) 0.993511(16)
Ag1Q Ag 0.451868(17) 0.534191(16) 1.006489(16)
N1AA N 0.71844(16) 0.73939(16) 0.82991(17)
N2C N 0.75567(15) 0.72002(16) 0.66400(17)
loop_
_geom_bond_atom_site_label_1
_geom_bond_atom_site_label_2
_geom_bond_site_symmetry_1
_geom_bond_site_symmetry_2
C1 C2 1_555 1_555
C2 C3 1_555 1_555
C3 H1 1_555 1_555
C4 C3 1_555 1_555
C5 C4 1_555 1_555
H2 C5 1_555 1_555
C6 C5 1_555 1_555
C7 C2 1_555 1_555
H3 C7 1_555 1_555
C8 H4 1_555 1_555
H5 C8 1_555 1_555
H6 C8 1_555 1_555
C9 C8 1_555 1_555
H7 C9 1_555 1_555
H8 C9 1_555 1_555
C10 C9 1_555 1_555
C11 C12 1_555 1_555
C12 H9 1_555 1_555
H10 C12 1_555 1_555
C13 C12 1_555 1_555
H11 C13 1_555 1_555
H12 C13 1_555 1_555
H13 C13 1_555 1_555
C14 C15 1_555 1_555
C15 C16 1_555 1_555
C16 H14 1_555 1_555
C17 C16 1_555 1_555
H15 C17 1_555 1_555
C18 C17 1_555 1_555
H16 C18 1_555 1_555
C19 C18 1_555 1_555
H17 C19 1_555 1_555
C20 C15 1_555 1_555
H18 C20 1_555 1_555
Ag1 O1 1_555 1_555
N1 C10 1_555 1_555
N2 C11 1_555 1_555
N3 C4 1_555 1_555
N4 C6 1_555 1_555
H19 N4 1_555 1_555
O1 C1 1_555 1_555
O2 C1 1_555 1_555
O3 C14 1_555 1_555
Ag1A N2 1_555 1_555
Ag1Q N1 1_555 1_555
N1AA Ag1 1_555 1_555
N2C Ag1 1_555 1_555
C6 C7 1_555 1_555
C10 N3 1_555 1_555
C11 N3 1_555 1_555
C14 N4 1_555 1_555
C19 C20 1_555 1_555
N1 N2 1_555 1_555

#END
