
#######################################################################
#
#                 Cambridge Crystallographic Data Centre
#                                CCDC 
#
#######################################################################
#
# If this CIF has been generated from an entry in the Cambridge 
# Structural Database, then it will include bibliographic, chemical, 
# crystal, experimental, refinement or atomic coordinate data resulting 
# from the CCDC's data processing and validation procedures.
#
#######################################################################

data_VOKJUA
_symmetry_cell_setting           triclinic
_symmetry_space_group_name_H-M   'P -1'
_symmetry_Int_Tables_number      2
_space_group_name_Hall           '-P 1'
loop_
_symmetry_equiv_pos_site_id
_symmetry_equiv_pos_as_xyz
1 x,y,z
2 -x,-y,-z
_cell_length_a                   15.700(2)
_cell_length_b                   11.738(1)
_cell_length_c                   9.281(1)
_cell_angle_alpha                98.61(1)
_cell_angle_beta                 97.34(1)
_cell_angle_gamma                98.16(1)
_cell_volume                     1654.45
loop_
_atom_site_label
_atom_site_type_symbol
_atom_site_fract_x
_atom_site_fract_y
_atom_site_fract_z
Cu1 Cu -0.86038(3) 0.07351(4) -0.81494(5)
P1 P -0.5003(1) 0.2544(1) -0.3182(1)
O1 O -0.9080(2) -0.0833(2) -0.7885(3)
O2 O -0.9414(1) -0.1881(2) -0.6184(3)
O3 O -0.7913(2) 0.2153(3) -0.8378(3)
O4 O -0.6007(2) 0.2584(2) -0.3058(3)
O5 O -0.4884(2) 0.1334(2) -0.3000(3)
O6 O -0.4434(2) 0.3543(2) -0.2152(3)
O7 O -0.4898(2) 0.2763(2) -0.4801(3)
O8 O -0.8905(2) 0.0388(3) -1.0311(3)
N1 N -0.6382(2) 0.4686(3) -0.6853(4)
N2 N -0.8159(2) 0.0957(3) -0.6049(3)
C1 C -0.6926(3) 0.3884(3) -0.7839(4)
C2 C -0.7386(2) 0.2899(3) -0.7369(4)
C3 C -0.7221(2) 0.2817(3) -0.5845(4)
C4 C -0.6611(2) 0.3691(3) -0.4873(4)
C5 C -0.6217(3) 0.4620(3) -0.5400(4)
C6 C -0.9052(3) -0.0980(3) -0.6540(4)
C7 C -0.8547(2) 0.0001(3) -0.5402(4)
C8 C -0.8104(3) -0.0295(4) -0.3995(4)
C9 C -0.8882(3) 0.0272(4) -0.3939(5)
C10 C -0.7011(3) 0.4018(4) -0.9423(5)
C11 C -0.7635(2) 0.1823(3) -0.5273(4)
C12 C -0.6372(3) 0.3629(4) -0.3257(4)
Cu2 Cu -0.35955(3) 0.06688(4) -0.33929(5)
P2 P -0.0115(1) 0.2547(1) 0.2475(1)
O9 O -0.4122(2) -0.0933(2) -0.3306(3)
O10 O -0.4395(2) -0.2148(3) -0.1746(4)
O11 O -0.2840(2) 0.2086(2) -0.3490(3)
O12 O -0.1151(2) 0.2390(2) 0.2050(3)
O13 O 0.0089(2) 0.1351(2) 0.2078(3)
O14 O 0.0312(2) 0.3498(3) 0.1783(3)
O15 O 0.0072(2) 0.2988(3) 0.4194(3)
O16 O -0.3874(2) 0.0375(3) -0.5547(3)
N3 N -0.1300(2) 0.4529(3) -0.1660(4)
N4 N -0.3201(2) 0.0752(3) -0.1300(3)
C13 C -0.1815(3) 0.3773(3) -0.2742(4)
C14 C -0.2339(2) 0.2775(3) -0.2404(4)
C15 C -0.2251(2) 0.2632(3) -0.0898(4)
C16 C -0.1687(2) 0.3473(3) 0.0190(4)
C17 C -0.1223(3) 0.4412(3) -0.0215(4)
C18 C -0.4079(3) -0.1196(4) -0.1994(4)
C19 C -0.3596(3) -0.0262(3) -0.0767(4)
C20 C -0.3165(3) -0.0640(4) 0.0590(5)
C21 C -0.3955(3) -0.0111(4) 0.0689(5)
C22 C -0.1809(3) 0.3997(4) -0.4281(5)
C23 C -0.2700(3) 0.1604(4) -0.0436(4)
C24 C -0.1566(3) 0.3384(4) 0.1808(4)
H1 H -0.519(4) 0.216(5) -0.548(7)
H2 H -0.609(4) 0.536(5) -0.713(6)
H3 H -0.580(3) 0.525(4) -0.482(5)
H4 H -0.816(3) -0.116(3) -0.399(4)
H5 H -0.758(3) 0.019(4) -0.362(5)
H6 H -0.881(3) 0.111(3) -0.358(4)
H7 H -0.939(3) -0.017(4) -0.383(5)
H8 H -0.694(3) 0.483(4) -0.952(5)
H9 H -0.751(4) 0.366(5) -0.987(6)
H10 H -0.656(4) 0.372(5) -0.977(6)
H11 H -0.748(3) 0.182(4) -0.432(5)
H12 H -0.691(3) 0.358(4) -0.277(5)
H13 H -0.595(3) 0.433(4) -0.277(5)
H14 H -0.009(3) 0.258(4) 0.476(6)
H15 H -0.099(3) 0.518(4) -0.187(5)
H16 H -0.088(3) 0.504(4) 0.052(5)
H17 H -0.322(3) -0.149(4) 0.051(5)
H18 H -0.265(3) -0.021(4) 0.095(5)
H19 H -0.390(3) 0.071(4) 0.111(5)
H20 H -0.443(3) -0.060(4) 0.064(5)
H21 H -0.169(4) 0.335(5) -0.486(6)
H22 H -0.228(4) 0.413(6) -0.463(7)
H23 H -0.139(4) 0.459(5) -0.435(6)
H24 H -0.257(3) 0.158(4) 0.058(5)
H25 H -0.209(3) 0.325(4) 0.214(5)
H26 H -0.125(3) 0.414(4) 0.235(4)
H27 H -0.936 -0.019 -1.072
H28 H -0.897 0.104 -1.074
H29 H -0.433 -0.024 -0.604
H30 H -0.388 0.101 -0.607
O13_2 O -0.9911(2) 0.1351(2) -0.7922(3)
Cu1_2 Cu 0.13962(3) 0.07351(4) 0.18506(5)
O17 O -0.4199(3) 0.3424(5) 0.0936(5)
H31 H -0.432 0.351 -0.012
O18 O -0.3493(3) 0.2420(4) -0.6743(4)
H32 H -0.390 0.283 -0.603
O19 O 0.0682(2) 0.2522(3) -0.1030(4)
H33 H 0.070 0.280 0.000
H34 H 0.000 0.220 -0.140
O20 O 0.1473(3) 0.3689(4) -0.3135(5)
H35 H 0.111 0.337 -0.235
loop_
_geom_bond_atom_site_label_1
_geom_bond_atom_site_label_2
_geom_bond_site_symmetry_1
_geom_bond_site_symmetry_2
Cu1 O1 1_555 1_555
P1 O4 1_555 1_555
O1 C6 1_555 1_555
O2 C6 1_555 1_555
O3 Cu1 1_555 1_555
O4 C12 1_555 1_555
O5 P1 1_555 1_555
O6 P1 1_555 1_555
O7 P1 1_555 1_555
O8 Cu1 1_555 1_555
N1 C1 1_555 1_555
N2 Cu1 1_555 1_555
C1 C2 1_555 1_555
C2 O3 1_555 1_555
C3 C2 1_555 1_555
C4 C3 1_555 1_555
C5 N1 1_555 1_555
C6 C7 1_555 1_555
C7 N2 1_555 1_555
C8 C7 1_555 1_555
C9 C7 1_555 1_555
C10 C1 1_555 1_555
C11 N2 1_555 1_555
C12 C4 1_555 1_555
Cu2 O5 1_555 1_555
P2 O12 1_555 1_555
O9 Cu2 1_555 1_555
O10 C18 1_555 1_555
O11 Cu2 1_555 1_555
O12 C24 1_555 1_555
O13 P2 1_555 1_555
O14 P2 1_555 1_555
O15 P2 1_555 1_555
O16 Cu2 1_555 1_555
N3 C13 1_555 1_555
N4 Cu2 1_555 1_555
C13 C14 1_555 1_555
C14 O11 1_555 1_555
C15 C14 1_555 1_555
C16 C15 1_555 1_555
C17 N3 1_555 1_555
C18 O9 1_555 1_555
C19 N4 1_555 1_555
C20 C19 1_555 1_555
C21 C19 1_555 1_555
C22 C13 1_555 1_555
C23 N4 1_555 1_555
C24 C16 1_555 1_555
O17 H31 1_555 1_555
O18 H32 1_555 1_555
O19 H33 1_555 1_555
O20 H35 1_555 1_555
H1 O7 1_555 1_555
H2 N1 1_555 1_555
H3 C5 1_555 1_555
H4 C8 1_555 1_555
H5 C8 1_555 1_555
H6 C9 1_555 1_555
H7 C9 1_555 1_555
H8 C10 1_555 1_555
H9 C10 1_555 1_555
H10 C10 1_555 1_555
H11 C11 1_555 1_555
H12 C12 1_555 1_555
H13 C12 1_555 1_555
H14 O15 1_555 1_555
H15 N3 1_555 1_555
H16 C17 1_555 1_555
H17 C20 1_555 1_555
H18 C20 1_555 1_555
H19 C21 1_555 1_555
H20 C21 1_555 1_555
H21 C22 1_555 1_555
H22 C22 1_555 1_555
H23 C22 1_555 1_555
H24 C23 1_555 1_555
H25 C24 1_555 1_555
H26 C24 1_555 1_555
H27 O8 1_555 1_555
H28 O8 1_555 1_555
H29 O16 1_555 1_555
H30 O16 1_555 1_555
H34 O19 1_555 1_555
O13_2 Cu1 1_555 1_555
Cu1_2 O13 1_555 1_555
C3 C11 1_555 1_555
C4 C5 1_555 1_555
C8 C9 1_555 1_555
C15 C23 1_555 1_555
C16 C17 1_555 1_555
C18 C19 1_555 1_555
C20 C21 1_555 1_555

#END
