
#######################################################################
#
#                 Cambridge Crystallographic Data Centre
#                                CCDC 
#
#######################################################################
#
# If this CIF has been generated from an entry in the Cambridge 
# Structural Database, then it will include bibliographic, chemical, 
# crystal, experimental, refinement or atomic coordinate data resulting 
# from the CCDC's data processing and validation procedures.
#
#######################################################################

data_VOKJOU
_symmetry_cell_setting           monoclinic
_symmetry_space_group_name_H-M   'P 21/c'
_symmetry_Int_Tables_number      14
_space_group_name_Hall           '-P 2ybc'
loop_
_symmetry_equiv_pos_site_id
_symmetry_equiv_pos_as_xyz
1 x,y,z
2 -x,1/2+y,1/2-z
3 -x,-y,-z
4 x,1/2-y,1/2+z
_cell_length_a                   12.896(2)
_cell_length_b                   10.667(2)
_cell_length_c                   12.628(3)
_cell_angle_alpha                90
_cell_angle_beta                 111.23(2)
_cell_angle_gamma                90
_cell_volume                     1619.24
loop_
_atom_site_label
_atom_site_type_symbol
_atom_site_fract_x
_atom_site_fract_y
_atom_site_fract_z
Ni1 Ni 0.14619(6) 0.15712(7) 0.14534(6)
O1 O 0.1005(3) 0.3037(4) 0.2205(3)
O2 O 0.1006(3) 0.5116(4) 0.2318(3)
O3 O 0.1984(3) 0.0280(4) 0.0641(3)
O4 O 0.2975(3) 0.3611(4) -0.2072(3)
N1 N 0.3682(4) -0.0534(5) -0.0906(4)
N2 N 0.2052(4) 0.2956(4) 0.0746(4)
C1 C 0.3066(5) -0.0643(6) -0.0259(5)
C2 C 0.2626(5) 0.0458(6) 0.0060(5)
C3 C 0.2901(4) 0.1641(6) -0.0285(4)
C4 C 0.3552(4) 0.1668(6) -0.1002(4)
C5 C 0.3915(5) 0.0580(6) -0.1287(5)
C6 C 0.1223(5) 0.4122(6) 0.1931(5)
C7 C 0.1781(5) 0.4186(5) 0.1060(5)
C8 C 0.1425(5) 0.5227(6) 0.0191(5)
C9 C 0.2519(5) 0.5300(6) 0.1109(5)
C10 C 0.2853(6) -0.1912(6) 0.0116(6)
C11 C 0.2587(5) 0.2830(5) 0.0073(5)
C12 C 0.3902(5) 0.2858(6) -0.1415(5)
O5 O 0.0926(3) 0.0194(4) 0.2276(3)
O6 O -0.0136(3) 0.1552(4) 0.0207(3)
H1 H 0.399(6) -0.135(7) -0.112(6)
H2 H 0.438(4) 0.059(5) -0.172(4)
H3 H 0.137(4) 0.502(5) -0.060(4)
H4 H 0.077(4) 0.572(5) 0.023(5)
H5 H 0.323(5) 0.506(6) 0.092(5)
H6 H 0.261(4) 0.587(5) 0.164(4)
H7 H 0.287(5) 0.356(6) -0.019(5)
H8 H 0.440(4) 0.337(5) -0.073(4)
H9 H 0.437(4) 0.268(5) -0.181(4)
H10 H 0.332(5) -0.252(6) 0.005(5)
H11 H 0.277(7) -0.189(8) 0.084(7)
H12 H 0.210(6) -0.218(7) -0.047(6)
H13 H 0.332(7) 0.426(8) -0.208(7)
H14 H 0.020 0.000 0.240
H15 H -0.025 0.187 -0.053
H16 H -0.046 0.080 0.021
O4C O 0.2975(3) 0.1389(4) 0.2928(3)
Ni1C Ni 0.14619(6) 0.34288(7) -0.35466(6)
H13C H 0.332(7) 0.074(8) 0.292(7)
O7 O 0.0590(4) 0.7611(4) 0.1891(4)
H17 H 0.074 0.669 0.207
H18 H 0.000 0.780 0.220
N3 N 0.4232(5) 0.6445(6) -0.1771(5)
O8 O 0.4668(4) 0.7478(5) -0.1620(5)
O9 O 0.3306(6) 0.6309(8) -0.1744(8)
O10 O 0.4666(6) 0.5535(5) -0.2006(7)
loop_
_geom_bond_atom_site_label_1
_geom_bond_atom_site_label_2
_geom_bond_site_symmetry_1
_geom_bond_site_symmetry_2
Ni1 O1 1_555 1_555
O1 C6 1_555 1_555
O2 C6 1_555 1_555
O3 Ni1 1_555 1_555
O4 C12 1_555 1_555
N1 C1 1_555 1_555
N2 Ni1 1_555 1_555
C1 C2 1_555 1_555
C2 O3 1_555 1_555
C3 C2 1_555 1_555
C4 C3 1_555 1_555
C5 N1 1_555 1_555
C6 C7 1_555 1_555
C7 N2 1_555 1_555
C8 C7 1_555 1_555
C9 C7 1_555 1_555
C10 C1 1_555 1_555
C11 N2 1_555 1_555
C12 C4 1_555 1_555
O5 Ni1 1_555 1_555
O6 Ni1 1_555 1_555
H1 N1 1_555 1_555
H2 C5 1_555 1_555
H3 C8 1_555 1_555
H4 C8 1_555 1_555
H5 C9 1_555 1_555
H6 C9 1_555 1_555
H7 C11 1_555 1_555
H8 C12 1_555 1_555
H9 C12 1_555 1_555
H10 C10 1_555 1_555
H11 C10 1_555 1_555
H12 C10 1_555 1_555
H13 O4 1_555 1_555
H14 O5 1_555 1_555
H15 O6 1_555 1_555
H16 O6 1_555 1_555
O7 H17 1_555 1_555
H18 O7 1_555 1_555
N3 O8 1_555 1_555
O9 N3 1_555 1_555
O10 N3 1_555 1_555
O4C Ni1 1_555 1_555
Ni1C O4 1_555 1_555
H13C O4C 1_555 1_555
C3 C11 1_555 1_555
C4 C5 1_555 1_555
C8 C9 1_555 1_555

#END
