
#######################################################################
#
#                 Cambridge Crystallographic Data Centre
#                                CCDC 
#
#######################################################################
#
# If this CIF has been generated from an entry in the Cambridge 
# Structural Database, then it will include bibliographic, chemical, 
# crystal, experimental, refinement or atomic coordinate data resulting 
# from the CCDC's data processing and validation procedures.
#
#######################################################################

data_VOKKOX
_symmetry_cell_setting           monoclinic
_symmetry_space_group_name_H-M   'P 21'
_symmetry_Int_Tables_number      4
_space_group_name_Hall           'P 2yb'
loop_
_symmetry_equiv_pos_site_id
_symmetry_equiv_pos_as_xyz
1 x,y,z
2 -x,1/2+y,-z
_cell_length_a                   7.6816(14)
_cell_length_b                   6.3608(11)
_cell_length_c                   14.582(3)
_cell_angle_alpha                90
_cell_angle_beta                 102.898(3)
_cell_angle_gamma                90
_cell_volume                     694.516
loop_
_atom_site_label
_atom_site_type_symbol
_atom_site_fract_x
_atom_site_fract_y
_atom_site_fract_z
Cu1 Cu 0.99459(15) 1.1950(3) 0.49825(9)
O1 O 0.9039(7) 1.1162(7) 0.6083(4)
N1 N 0.8401(6) 1.4498(16) 0.4816(3)
C1 C 0.8328(7) 0.945(2) 0.7379(3)
N2 N 0.7000(6) 1.4481(17) 0.5065(3)
C2 C 0.7272(7) 0.955(2) 0.9094(4)
C3 C 0.6829(8) 0.965(2) 0.9983(4)
H1 H 0.6292 1.0847 1.0160
C4 C 0.8148(9) 0.7807(11) 0.8850(4)
N3 N 0.5661(7) 1.451(2) 0.5258(5)
C5 C 0.6941(10) 1.1300(12) 0.8477(5)
H2 H 0.6370 1.2483 0.8643
C6 C 0.8543(10) 0.6144(11) 0.9490(5)
H3 H 0.9134 0.4962 0.9338
C7 C 0.8632(9) 0.7752(10) 0.7967(5)
H4 H 0.9162 0.6552 0.7787
C8 C 0.8060(10) 0.6249(12) 1.0347(5)
H5 H 0.8329 0.5133 1.0767
C9 C 0.7194(11) 0.7971(13) 1.0585(5)
H6 H 0.6850 0.8004 1.1157
C10 C 0.8907(7) 0.945(2) 0.6446(4)
C11 C 0.7466(9) 1.1252(11) 0.7632(5)
H7 H 0.7254 1.2403 0.7229
O2 O 0.9216(7) 0.7635(7) 0.6138(4)
O3 O 0.7718(5) 0.9461(14) 0.4143(2)
C12 C 0.7267(9) 0.948(3) 0.3133(4)
H8 H 0.6554 0.8249 0.2911
H9 H 0.8358 0.9390 0.2904
C13 C 0.6269(11) 1.1379(13) 0.2728(5)
H10 H 0.6935 1.2613 0.2971
H11 H 0.5129 1.1405 0.2895
H12 H 0.6097 1.1351 0.2055
H13 H 0.6873 0.9033 0.4358
Cu1A Cu 1.00541(15) 0.6950(3) 0.50175(9)
Cu1A_2 Cu 1.00541(15) 1.6950(3) 0.50175(9)
N1A N 1.1599(6) 0.9498(16) 0.5184(3)
O2A O 1.0784(7) 1.2635(7) 0.3862(4)
O3A O 1.2282(5) 1.4461(14) 0.5857(2)
loop_
_geom_bond_atom_site_label_1
_geom_bond_atom_site_label_2
_geom_bond_site_symmetry_1
_geom_bond_site_symmetry_2
Cu1 O1 1_555 1_555
O1 C10 1_555 1_555
N1 Cu1 1_555 1_555
C1 C7 1_555 1_555
N2 N1 1_555 1_555
C2 C3 1_555 1_555
C3 H1 1_555 1_555
C4 C2 1_555 1_555
N3 N2 1_555 1_555
C5 C2 1_555 1_555
H2 C5 1_555 1_555
C6 C4 1_555 1_555
H3 C6 1_555 1_555
C7 C4 1_555 1_555
H4 C7 1_555 1_555
C8 C6 1_555 1_555
H5 C8 1_555 1_555
C9 C3 1_555 1_555
H6 C9 1_555 1_555
C10 C1 1_555 1_555
C11 C1 1_555 1_555
H7 C11 1_555 1_555
O2 C10 1_555 1_555
O3 Cu1 1_555 1_555
C12 O3 1_555 1_555
H8 C12 1_555 1_555
H9 C12 1_555 1_555
C13 C12 1_555 1_555
H10 C13 1_555 1_555
H11 C13 1_555 1_555
H12 C13 1_555 1_555
H13 O3 1_555 1_555
Cu1A O2 1_555 1_555
Cu1A_2 N1 1_555 1_555
N1A Cu1 1_555 1_555
O2A Cu1 1_555 1_555
O3A Cu1 1_555 1_555
C5 C11 1_555 1_555
C8 C9 1_555 1_555
O3 Cu1A 1_555 1_555
Cu1A N1A 1_555 1_555
Cu1A_2 O3A 1_555 1_555

#END
