
#######################################################################
#
#                 Cambridge Crystallographic Data Centre
#                                CCDC 
#
#######################################################################
#
# If this CIF has been generated from an entry in the Cambridge 
# Structural Database, then it will include bibliographic, chemical, 
# crystal, experimental, refinement or atomic coordinate data resulting 
# from the CCDC's data processing and validation procedures.
#
#######################################################################

data_VOKKIP02
_symmetry_cell_setting           monoclinic
_symmetry_space_group_name_H-M   'C 2/m'
_symmetry_Int_Tables_number      12
_space_group_name_Hall           '-C 2y'
loop_
_symmetry_equiv_pos_site_id
_symmetry_equiv_pos_as_xyz
1 x,y,z
2 1/2+x,1/2+y,z
3 -x,y,-z
4 1/2-x,1/2+y,-z
5 -x,-y,-z
6 1/2-x,1/2-y,-z
7 x,-y,z
8 1/2+x,1/2-y,z
_cell_length_a                   11.037(2)
_cell_length_b                   16.419(3)
_cell_length_c                   7.1497(14)
_cell_angle_alpha                90
_cell_angle_beta                 103.68(3)
_cell_angle_gamma                90
_cell_volume                     1258.89
loop_
_atom_site_label
_atom_site_type_symbol
_atom_site_fract_x
_atom_site_fract_y
_atom_site_fract_z
K1 K 0.07998(8) 0.0000 0.25778(12)
K2 K -0.07633(8) -0.5000 0.25455(12)
O1 O 0.0000 0.12659(15) 0.0000
O2 O 0.19766(18) 0.36493(11) 0.1904(3)
O3 O -0.19373(18) -0.34325(12) 0.2989(3)
O4 O 0.0000 -0.10424(16) 0.5000
O5 O 0.3059(3) 0.0000 0.5514(5)
H1 H 0.295(3) 0.0334(18) 0.616(4)
O6 O 0.1953(3) 0.0000 -0.0351(5)
H2 H 0.220(3) 0.0300(19) -0.087(5)
N1 N 0.0995(2) 0.24638(15) 0.0967(3)
H3 H 0.164(3) 0.217(2) 0.149(4)
N2 N 0.0000 0.37320(19) 0.0000
N3 N 0.0000 -0.35121(19) 0.5000
N4 N -0.0989(2) -0.22423(15) 0.4039(3)
H4 H -0.164(3) -0.195(2) 0.344(4)
C1 C 0.0000 0.2008(2) 0.0000
C2 C 0.1003(3) 0.33052(17) 0.0964(4)
C3 C -0.0995(3) -0.30893(17) 0.3995(4)
C4 C 0.0000 -0.1790(2) 0.5000
K1D K -0.07998(8) 0.0000 -0.25778(12)
K1A K -0.42002(8) -0.5000 0.25778(12)
K1D_2 K -0.07998(8) 0.0000 0.74222(12)
K2A K 0.42367(8) 0.0000 0.25455(12)
K2D K 0.07633(8) -0.5000 0.74545(12)
K2_2 K -0.07633(8) 0.5000 0.25455(12)
K2D_2 K 0.07633(8) 0.5000 -0.25455(12)
O1F O 0.0000 -0.12659(15) 0.0000
O2B O -0.19766(18) 0.36493(11) -0.1904(3)
O3B O 0.19373(18) -0.34325(12) 0.7011(3)
O3F O -0.19373(18) -0.65675(12) 0.2989(3)
O4F O 0.0000 0.10424(16) 0.5000
O5A O -0.1941(3) -0.5000 0.5514(5)
H1F H 0.295(3) -0.0334(18) 0.616(4)
H1A H -0.205(3) -0.4666(18) 0.616(4)
H1G H -0.205(3) -0.5334(18) 0.616(4)
O6A O -0.3047(3) -0.5000 -0.0351(5)
H2F H 0.220(3) -0.0300(19) -0.087(5)
H2A H -0.280(3) -0.4700(19) -0.087(5)
H2G H -0.280(3) -0.5300(19) -0.087(5)
N1B N -0.0995(2) 0.24638(15) -0.0967(3)
H3B H -0.164(3) 0.217(2) -0.149(4)
N2_2 N 0.0000 -0.62680(19) 0.0000
N2F N 0.0000 -0.37320(19) 0.0000
N3F N 0.0000 -0.64879(19) 0.5000
N4B N 0.0989(2) -0.22423(15) 0.5961(3)
H4B H 0.164(3) -0.195(2) 0.656(4)
C2B C -0.1003(3) 0.33052(17) -0.0964(4)
C3B C 0.0995(3) -0.30893(17) 0.6005(4)
loop_
_geom_bond_atom_site_label_1
_geom_bond_atom_site_label_2
_geom_bond_site_symmetry_1
_geom_bond_site_symmetry_2
K1 O1 1_555 1_555
K2 O3 1_555 1_555
O1 C1 1_555 1_555
O2 C2 1_555 1_555
O3 C3 1_555 1_555
O4 K1 1_555 1_555
O5 K1 1_555 1_555
H1 O5 1_555 1_555
O6 K1 1_555 1_555
H2 O6 1_555 1_555
N1 H3 1_555 1_555
N2 C2 1_555 1_555
N3 K2 1_555 1_555
N4 H4 1_555 1_555
C1 N1 1_555 1_555
C2 N1 1_555 1_555
C3 N3 1_555 1_555
C4 O4 1_555 1_555
K1D O1 1_555 1_555
K1A O5A 1_555 1_555
K1D_2 O4 1_555 1_555
K2A O5 1_555 1_555
K2D N3 1_555 1_555
K2_2 N2 1_555 1_555
K2D_2 N2 1_555 1_555
O1F K1 1_555 1_555
O2B C2B 1_555 1_555
O3B K2D 1_555 1_555
O3F K2 1_555 1_555
O4F K1 1_555 1_555
O5A K2 1_555 1_555
H1F O5 1_555 1_555
H1A O5A 1_555 1_555
H1G O5A 1_555 1_555
O6A K2 1_555 1_555
H2F O6 1_555 1_555
H2A O6A 1_555 1_555
H2G O6A 1_555 1_555
N1B C1 1_555 1_555
H3B N1B 1_555 1_555
N2_2 K2 1_555 1_555
N2F K2 1_555 1_555
N3F K2 1_555 1_555
N4B C4 1_555 1_555
H4B N4B 1_555 1_555
C2B N2 1_555 1_555
C3B N3 1_555 1_555
O6 K2A 1_555 1_555
N4 C3 1_555 1_555
N4 C4 1_555 1_555
K1D O1F 1_555 1_555
K1A O6A 1_555 1_555
K1D_2 O4F 1_555 1_555
K2D N3F 1_555 1_555
O3B C3B 1_555 1_555
N1B C2B 1_555 1_555
N4B C3B 1_555 1_555

#END
