
#######################################################################
#
#                 Cambridge Crystallographic Data Centre
#                                CCDC 
#
#######################################################################
#
# If this CIF has been generated from an entry in the Cambridge 
# Structural Database, then it will include bibliographic, chemical, 
# crystal, experimental, refinement or atomic coordinate data resulting 
# from the CCDC's data processing and validation procedures.
#
#######################################################################

data_VOKKIP
_symmetry_cell_setting           monoclinic
_symmetry_space_group_name_H-M   'C m'
_symmetry_Int_Tables_number      8
_space_group_name_Hall           'C -2y'
loop_
_symmetry_equiv_pos_site_id
_symmetry_equiv_pos_as_xyz
1 x,y,z
2 1/2+x,1/2+y,z
3 x,-y,z
4 1/2+x,1/2-y,z
_cell_length_a                   11.044(3)
_cell_length_b                   16.390(3)
_cell_length_c                   7.199(2)
_cell_angle_alpha                90
_cell_angle_beta                 103.80(2)
_cell_angle_gamma                90
_cell_volume                     1265.48
loop_
_atom_site_label
_atom_site_type_symbol
_atom_site_fract_x
_atom_site_fract_y
_atom_site_fract_z
K1 K 0.9840(1) 0.0000 0.1878(2)
K2 K 0.8323(1) 0.0000 -0.3025(2)
K3 K 0.4883(1) 0.0000 -0.2994(2)
K4 K 1.3272(1) 0.0000 0.1839(2)
O1 O 0.7159(4) 0.0000 0.0000
O2 O 1.2187(5) 0.0000 0.4823(8)
O3 O 1.1025(4) 0.0000 -0.1043(6)
O4 O 0.6098(4) 0.0000 -0.5887(5)
O5 O 0.7184(3) -0.1582(2) -0.2659(4)
O6 O 1.1056(3) -0.1561(2) 0.1313(5)
O7 O 0.9099(7) -0.3960(1) -0.0661(5)
N1 N 0.8106(3) -0.2767(2) -0.1539(5)
N2 N 0.9090(7) -0.1495(1) -0.0624(5)
N3 N 1.0074(3) -0.2753(2) 0.0381(5)
C1 C 0.8067(4) -0.1908(2) -0.1528(5)
C2 C 1.0053(3) -0.1922(2) 0.0472(5)
C3 C 0.9055(7) -0.3210(2) -0.0605(7)
O8 O 0.7127(2) -0.1366(2) 0.2559(4)
O9 O 1.1064(3) -0.1335(2) 0.6341(4)
O10 O 0.9114(8) -0.3734(1) 0.4428(2)
N4 N 0.8100(3) -0.2516(2) 0.3485(5)
N5 N 0.9094(8) -0.1272(1) 0.4399(9)
N6 N 1.0087(3) -0.2555(2) 0.5391(5)
C4 C 0.8078(4) -0.1674(2) 0.3489(5)
C5 C 1.0082(3) -0.1717(2) 0.5391(5)
C6 C 0.9068(7) -0.2989(2) 0.4447(8)
H1 H 0.702(4) 0.046(3) 0.063(7)
H2 H 1.190(3) -0.036(2) 0.519(4)
H3 H 1.113(3) -0.037(2) -0.159(5)
H4 H 0.649(4) 0.052(3) -0.642(6)
H5 H 0.756(4) -0.294(3) -0.214(6)
H6 H 1.083(4) -0.315(3) 0.107(7)
H7 H 0.768(4) -0.280(3) 0.281(7)
H8 H 1.065(4) -0.287(3) 0.589(7)
H1B H 0.702(4) -0.046(3) 0.063(7)
H2B H 1.190(3) 0.036(2) 0.519(4)
H3B H 1.113(3) 0.037(2) -0.159(5)
H4B H 0.649(4) -0.052(3) -0.642(6)
O5B O 0.7184(3) 0.1582(2) -0.2659(4)
O6B O 1.1056(3) 0.1561(2) 0.1313(5)
O7B O 0.9099(7) 0.3960(1) -0.0661(5)
N1B N 0.8106(3) 0.2767(2) -0.1539(5)
N2B N 0.9090(7) 0.1495(1) -0.0624(5)
N3B N 1.0074(3) 0.2753(2) 0.0381(5)
C1B C 0.8067(4) 0.1908(2) -0.1528(5)
C2B C 1.0053(3) 0.1922(2) 0.0472(5)
C3B C 0.9055(7) 0.3210(2) -0.0605(7)
H5B H 0.756(4) 0.294(3) -0.214(6)
H6B H 1.083(4) 0.315(3) 0.107(7)
O8B O 0.7127(2) 0.1366(2) 0.2559(4)
O9B O 1.1064(3) 0.1335(2) 0.6341(4)
O10B O 0.9114(8) 0.3734(1) 0.4428(2)
N4B N 0.8100(3) 0.2516(2) 0.3485(5)
N5B N 0.9094(8) 0.1272(1) 0.4399(9)
N6B N 1.0087(3) 0.2555(2) 0.5391(5)
C4B C 0.8078(4) 0.1674(2) 0.3489(5)
C5B C 1.0082(3) 0.1717(2) 0.5391(5)
C6B C 0.9068(7) 0.2989(2) 0.4447(8)
H7B H 0.768(4) 0.280(3) 0.281(7)
H8B H 1.065(4) 0.287(3) 0.589(7)
K2_2 K 0.8323(1) 0.0000 0.6975(2)
K1_2 K 0.9840(1) 0.0000 -0.8122(2)
N5_2 N 0.9094(8) -0.1272(1) -0.5601(9)
N5B_2 N 0.9094(8) 0.1272(1) -0.5601(9)
K4_2 K 0.3272(1) 0.0000 -0.8161(2)
K4_3 K 0.3272(1) 0.0000 0.1839(2)
O2_2 O 0.2187(5) 0.0000 -0.5177(8)
O7A O 0.4099(7) 0.1040(1) -0.0661(5)
O7C O 0.4099(7) -0.1040(1) -0.0661(5)
O10A O 0.4114(8) 0.1266(1) -0.5572(2)
O10C O 0.4114(8) -0.1266(1) -0.5572(2)
K3_2 K 1.4883(1) 0.0000 -0.2994(2)
K3_3 K 1.4883(1) 0.0000 0.7006(2)
O7A_2 O 1.4099(7) 0.1040(1) -0.0661(5)
O7C_2 O 1.4099(7) -0.1040(1) -0.0661(5)
O10A_2 O 1.4114(8) 0.1266(1) 0.4428(2)
O10C_2 O 1.4114(8) -0.1266(1) 0.4428(2)
K3A K 0.9883(1) -0.5000 -0.2994(2)
K4A K 0.8272(1) -0.5000 0.1839(2)
K3A_2 K 0.9883(1) -0.5000 0.7006(2)
K3A_3 K 0.9883(1) 0.5000 -0.2994(2)
K4A_2 K 0.8272(1) 0.5000 0.1839(2)
K3A_4 K 0.9883(1) 0.5000 0.7006(2)
H2_2 H 0.190(3) -0.036(2) -0.481(4)
H2B_2 H 0.190(3) 0.036(2) -0.481(4)
loop_
_geom_bond_atom_site_label_1
_geom_bond_atom_site_label_2
_geom_bond_site_symmetry_1
_geom_bond_site_symmetry_2
K1 O1 1_555 1_555
K2 O1 1_555 1_555
K3 O1 1_555 1_555
K4 O2 1_555 1_555
O1 H1 1_555 1_555
O2 K1 1_555 1_555
O3 K1 1_555 1_555
O4 K2 1_555 1_555
O5 K2 1_555 1_555
O6 K1 1_555 1_555
O7 C3 1_555 1_555
N1 C1 1_555 1_555
N2 K1 1_555 1_555
N3 C2 1_555 1_555
C1 O5 1_555 1_555
C2 O6 1_555 1_555
C3 N1 1_555 1_555
O8 C4 1_555 1_555
O9 C5 1_555 1_555
O10 C6 1_555 1_555
N4 C4 1_555 1_555
N5 K1 1_555 1_555
N6 C5 1_555 1_555
C4 N5 1_555 1_555
C5 N5 1_555 1_555
C6 N4 1_555 1_555
H2 O2 1_555 1_555
H3 O3 1_555 1_555
H4 O4 1_555 1_555
H5 N1 1_555 1_555
H6 N3 1_555 1_555
H7 N4 1_555 1_555
H8 N6 1_555 1_555
H1B O1 1_555 1_555
H2B O2 1_555 1_555
H3B O3 1_555 1_555
H4B O4 1_555 1_555
O5B K2 1_555 1_555
O6B K1 1_555 1_555
O7B C3B 1_555 1_555
N1B C1B 1_555 1_555
N2B K1 1_555 1_555
N3B C2B 1_555 1_555
C1B O5B 1_555 1_555
C2B O6B 1_555 1_555
C3B N1B 1_555 1_555
H5B N1B 1_555 1_555
H6B N3B 1_555 1_555
O8B C4B 1_555 1_555
O9B C5B 1_555 1_555
O10B C6B 1_555 1_555
N4B C4B 1_555 1_555
N5B K1 1_555 1_555
N6B C5B 1_555 1_555
C4B N5B 1_555 1_555
C5B N5B 1_555 1_555
C6B N4B 1_555 1_555
H7B N4B 1_555 1_555
H8B N6B 1_555 1_555
K2_2 N5 1_555 1_555
K1_2 N5_2 1_555 1_555
N5_2 K2 1_555 1_555
N5B_2 K2 1_555 1_555
K4_2 O2_2 1_555 1_555
K4_3 O7A 1_555 1_555
O2_2 K3 1_555 1_555
O7A K3 1_555 1_555
O7C K3 1_555 1_555
O10A K3 1_555 1_555
O10C K3 1_555 1_555
K3_2 O7A_2 1_555 1_555
K3_3 O2 1_555 1_555
O7A_2 K4 1_555 1_555
O7C_2 K4 1_555 1_555
O10A_2 K4 1_555 1_555
O10C_2 K4 1_555 1_555
K3A O7 1_555 1_555
K4A O7 1_555 1_555
K3A_2 O10 1_555 1_555
K3A_3 O7B 1_555 1_555
K4A_2 O7B 1_555 1_555
K3A_4 O10B 1_555 1_555
H2_2 O2_2 1_555 1_555
H2B_2 O2_2 1_555 1_555
K2 O3 1_555 1_555
K2 N2 1_555 1_555
K2 N2B 1_555 1_555
K3 O4 1_555 1_555
K4 O3 1_555 1_555
N2 C2 1_555 1_555
N2 C1 1_555 1_555
N3 C3 1_555 1_555
O10 K4A 1_555 1_555
N6 C6 1_555 1_555
N2B C2B 1_555 1_555
N2B C1B 1_555 1_555
N3B C3B 1_555 1_555
O10B K4A_2 1_555 1_555
N5B K2_2 1_555 1_555
N6B C6B 1_555 1_555
K1_2 N5B_2 1_555 1_555
K4_2 O10A 1_555 1_555
K4_2 O10C 1_555 1_555
K4_3 O7C 1_555 1_555
K3_2 O7C_2 1_555 1_555
K3_3 O10A_2 1_555 1_555
K3_3 O10C_2 1_555 1_555

#END
