
#######################################################################
#
#                 Cambridge Crystallographic Data Centre
#                                CCDC 
#
#######################################################################
#
# If this CIF has been generated from an entry in the Cambridge 
# Structural Database, then it will include bibliographic, chemical, 
# crystal, experimental, refinement or atomic coordinate data resulting 
# from the CCDC's data processing and validation procedures.
#
#######################################################################

data_VOKLAK
_symmetry_cell_setting           monoclinic
_symmetry_space_group_name_H-M   'C 2'
_symmetry_Int_Tables_number      5
_space_group_name_Hall           'C 2y'
loop_
_symmetry_equiv_pos_site_id
_symmetry_equiv_pos_as_xyz
1 x,y,z
2 -x,y,-z
3 1/2+x,1/2+y,z
4 1/2-x,1/2+y,-z
_cell_length_a                   26.095(3)
_cell_length_b                   7.4603(7)
_cell_length_c                   28.384(3)
_cell_angle_alpha                90
_cell_angle_beta                 111.599(2)
_cell_angle_gamma                90
_cell_volume                     5137.7
loop_
_atom_site_label
_atom_site_type_symbol
_atom_site_fract_x
_atom_site_fract_y
_atom_site_fract_z
Pb1 Pb 0.675067(18) 0.1920(3) 0.274249(17)
Pb2 Pb 0.625475(18) 0.7127(3) 0.225631(16)
C1 C 0.7359(6) 0.459(2) 0.1712(5)
C2 C 0.7438(6) 0.427(2) 0.2227(5)
C3 C 0.7968(5) 0.386(2) 0.2576(5)
C4 C 0.8422(6) 0.393(2) 0.2394(6)
H1 H 0.8781 0.3744 0.2620
C5 C 0.8332(7) 0.424(3) 0.1911(6)
C6 C 0.7808(7) 0.456(2) 0.1556(6)
H2 H 0.7757 0.4762 0.1218
C7 C 0.6786(6) 0.495(2) 0.1327(6)
H3 H 0.6523 0.4814 0.1492
H4 H 0.6769 0.6187 0.1216
C8 C 0.6151(6) 0.468(3) 0.0482(5)
H5 H 0.5885 0.5105 0.0626
C9 C 0.5860(10) 0.346(4) 0.0025(8)
H6 H 0.5556 0.4096 -0.0215
H7 H 0.5727 0.2407 0.0137
H8 H 0.6115 0.3124 -0.0131
C10 C 0.6363(7) 0.627(2) 0.0259(6)
C11 C 0.6024(8) 0.773(2) 0.0053(6)
H9 H 0.5688 0.7816 0.0097
C12 C 0.6170(8) 0.906(3) -0.0216(6)
H10 H 0.5934 1.0018 -0.0353
C13 C 0.6671(7) 0.894(3) -0.0278(6)
H11 H 0.6772 0.9823 -0.0457
C14 C 0.7033(9) 0.747(3) -0.0071(6)
H12 H 0.7373 0.7391 -0.0105
C15 C 0.6858(7) 0.618(3) 0.0180(7)
H13 H 0.7084 0.5193 0.0305
C16 C 0.6464(5) 0.197(3) 0.1016(5)
H14 H 0.6232 0.2116 0.1214
H15 H 0.6252 0.1333 0.0708
C17 C 0.6960(6) 0.088(2) 0.1313(5)
C18 C 0.7042(6) 0.022(2) 0.1804(5)
C19 C 0.7501(7) -0.069(2) 0.2065(6)
C20 C 0.7895(6) -0.111(2) 0.1839(6)
H16 H 0.8203 -0.1807 0.2014
C21 C 0.7816(8) -0.049(3) 0.1359(7)
C22 C 0.7346(8) 0.042(3) 0.1102(6)
H17 H 0.7278 0.0741 0.0768
C23 C 0.7673(6) -0.128(2) 0.2602(5)
H18 H 0.7959 -0.2101 0.2725
C24 C 0.7700(6) -0.136(3) 0.3436(6)
H19 H 0.8078 -0.1731 0.3511
H20 H 0.7495 -0.2394 0.3480
C25 C 0.7683(7) 0.012(3) 0.3799(5)
H21 H 0.7825 -0.0356 0.4141
H22 H 0.7301 0.0450 0.3722
C26 C 0.8004(6) 0.183(4) 0.3792(5)
H23 H 0.7985 0.2655 0.4049
H24 H 0.8389 0.1538 0.3868
C27 C 0.8114(6) 0.325(2) 0.3090(5)
H25 H 0.8484 0.3273 0.3299
C28 C 0.5602(5) 0.453(2) 0.3276(5)
C29 C 0.5569(6) 0.483(2) 0.2772(5)
C30 C 0.5020(5) 0.511(2) 0.2402(5)
C31 C 0.4555(5) 0.507(3) 0.2541(5)
H26 H 0.4204 0.5236 0.2298
C32 C 0.4621(7) 0.478(3) 0.3033(6)
C33 C 0.5127(7) 0.450(3) 0.3406(6)
H27 H 0.5158 0.4298 0.3739
C34 C 0.6157(6) 0.421(2) 0.3689(5)
H28 H 0.6161 0.3010 0.3825
H29 H 0.6439 0.4255 0.3542
C35 C 0.6704(5) 0.483(3) 0.4578(6)
H30 H 0.6817 0.5866 0.4803
C36 C 0.7216(5) 0.412(3) 0.4536(6)
H31 H 0.7286 0.4728 0.4268
H32 H 0.7175 0.2857 0.4463
H33 H 0.7520 0.4309 0.4850
C37 C 0.6423(9) 0.360(3) 0.4818(8)
C38 C 0.6520(6) 0.176(3) 0.4846(6)
H34 H 0.6764 0.1353 0.4699
C39 C 0.6301(7) 0.046(3) 0.5065(6)
H35 H 0.6387 -0.0752 0.5080
C40 C 0.5934(7) 0.121(4) 0.5262(6)
H36 H 0.5764 0.0443 0.5418
C41 C 0.5802(8) 0.302(3) 0.5242(6)
H37 H 0.5552 0.3419 0.5382
C42 C 0.6042(8) 0.424(3) 0.5014(7)
H38 H 0.5950 0.5451 0.4993
C43 C 0.6457(6) 0.727(3) 0.3943(5)
H39 H 0.6675 0.7934 0.4244
H40 H 0.6688 0.7039 0.3749
C44 C 0.5982(6) 0.839(2) 0.3634(4)
C45 C 0.5934(5) 0.892(2) 0.3145(4)
C46 C 0.5455(5) 0.982(2) 0.2856(5)
C47 C 0.5027(6) 1.024(2) 0.3057(6)
H41 H 0.4709 1.0863 0.2866
C48 C 0.5114(9) 0.968(3) 0.3540(8)
C49 C 0.5570(7) 0.872(3) 0.3825(6)
H42 H 0.5604 0.8292 0.4143
C50 C 0.5283(6) 1.032(2) 0.2326(6)
H43 H 0.4999 1.1148 0.2192
C51 C 0.5261(6) 1.018(3) 0.1496(6)
H44 H 0.5429 1.1285 0.1442
H45 H 0.4871 1.0401 0.1409
C52 C 0.5339(7) 0.873(3) 0.1154(6)
H46 H 0.5731 0.8521 0.1244
H47 H 0.5192 0.9150 0.0807
C53 C 0.5060(6) 0.694(4) 0.1185(5)
H48 H 0.4666 0.7115 0.1079
H49 H 0.5125 0.6077 0.0957
C54 C 0.4914(6) 0.564(2) 0.1881(5)
H50 H 0.4551 0.5537 0.1655
Cl1 Cl 0.88838(19) 0.4209(10) 0.1703(2)
Cl2 Cl 0.8285(2) -0.1071(10) 0.10920(19)
Cl3 Cl 0.4048(2) 0.4744(11) 0.3217(2)
Cl4 Cl 0.4602(2) 1.0186(12) 0.3777(2)
N1 N 0.6619(5) 0.3792(19) 0.0881(4)
N2 N 0.7451(5) -0.072(2) 0.2893(5)
N3 N 0.7765(5) 0.269(2) 0.3279(4)
N4 N 0.6292(4) 0.5501(19) 0.4103(4)
N5 N 0.5516(5) 0.965(2) 0.2041(5)
N6 N 0.5272(5) 0.6235(19) 0.1695(4)
O1 O 0.7013(4) 0.4330(17) 0.2376(3)
O2 O 0.6640(4) 0.0599(16) 0.1993(3)
O3 O 0.5999(4) 0.4837(16) 0.2651(3)
O4 O 0.6334(3) 0.8634(15) 0.2978(4)
Pb1_2 Pb 0.675067(18) 1.1920(3) 0.274249(17)
O4_2 O 0.6334(3) -0.1366(15) 0.2978(4)
loop_
_geom_bond_atom_site_label_1
_geom_bond_atom_site_label_2
_geom_bond_site_symmetry_1
_geom_bond_site_symmetry_2
Pb1 N2 1_555 1_555
Pb2 N5 1_555 1_555
C1 C2 1_555 1_555
C2 C3 1_555 1_555
C3 C4 1_555 1_555
C4 H1 1_555 1_555
C5 C4 1_555 1_555
C6 C1 1_555 1_555
H2 C6 1_555 1_555
C7 C1 1_555 1_555
H3 C7 1_555 1_555
H4 C7 1_555 1_555
C8 H5 1_555 1_555
C9 C8 1_555 1_555
H6 C9 1_555 1_555
H7 C9 1_555 1_555
H8 C9 1_555 1_555
C10 C8 1_555 1_555
C11 C10 1_555 1_555
H9 C11 1_555 1_555
C12 C11 1_555 1_555
H10 C12 1_555 1_555
C13 C12 1_555 1_555
H11 C13 1_555 1_555
C14 C13 1_555 1_555
H12 C14 1_555 1_555
C15 C10 1_555 1_555
H13 C15 1_555 1_555
C16 H14 1_555 1_555
H15 C16 1_555 1_555
C17 C16 1_555 1_555
C18 C17 1_555 1_555
C19 C18 1_555 1_555
C20 C19 1_555 1_555
H16 C20 1_555 1_555
C21 C20 1_555 1_555
C22 C17 1_555 1_555
H17 C22 1_555 1_555
C23 C19 1_555 1_555
H18 C23 1_555 1_555
C24 H19 1_555 1_555
H20 C24 1_555 1_555
C25 C24 1_555 1_555
H21 C25 1_555 1_555
H22 C25 1_555 1_555
C26 C25 1_555 1_555
H23 C26 1_555 1_555
H24 C26 1_555 1_555
C27 C3 1_555 1_555
H25 C27 1_555 1_555
C28 C29 1_555 1_555
C29 C30 1_555 1_555
C30 C31 1_555 1_555
C31 H26 1_555 1_555
C32 C31 1_555 1_555
C33 C28 1_555 1_555
H27 C33 1_555 1_555
C34 C28 1_555 1_555
H28 C34 1_555 1_555
H29 C34 1_555 1_555
C35 H30 1_555 1_555
C36 C35 1_555 1_555
H31 C36 1_555 1_555
H32 C36 1_555 1_555
H33 C36 1_555 1_555
C37 C35 1_555 1_555
C38 C37 1_555 1_555
H34 C38 1_555 1_555
C39 C38 1_555 1_555
H35 C39 1_555 1_555
C40 C39 1_555 1_555
H36 C40 1_555 1_555
C41 C40 1_555 1_555
H37 C41 1_555 1_555
C42 C37 1_555 1_555
H38 C42 1_555 1_555
C43 H39 1_555 1_555
H40 C43 1_555 1_555
C44 C43 1_555 1_555
C45 C44 1_555 1_555
C46 C45 1_555 1_555
C47 C46 1_555 1_555
H41 C47 1_555 1_555
C48 C47 1_555 1_555
C49 C44 1_555 1_555
H42 C49 1_555 1_555
C50 C46 1_555 1_555
H43 C50 1_555 1_555
C51 H44 1_555 1_555
H45 C51 1_555 1_555
C52 C51 1_555 1_555
H46 C52 1_555 1_555
H47 C52 1_555 1_555
C53 C52 1_555 1_555
H48 C53 1_555 1_555
H49 C53 1_555 1_555
C54 C30 1_555 1_555
H50 C54 1_555 1_555
Cl1 C5 1_555 1_555
Cl2 C21 1_555 1_555
Cl3 C32 1_555 1_555
Cl4 C48 1_555 1_555
N1 C7 1_555 1_555
N2 C23 1_555 1_555
N3 Pb1 1_555 1_555
N4 C34 1_555 1_555
N5 C50 1_555 1_555
N6 Pb2 1_555 1_555
O1 Pb1 1_555 1_555
O2 Pb1 1_555 1_555
O3 Pb1 1_555 1_555
O4 Pb2 1_555 1_555
Pb1_2 O4 1_555 1_555
O4_2 Pb1 1_555 1_555
Pb2 O1 1_555 1_555
Pb2 O3 1_555 1_555
C2 O1 1_555 1_555
C5 C6 1_555 1_555
C8 N1 1_555 1_555
C14 C15 1_555 1_555
C16 N1 1_555 1_555
C18 O2 1_555 1_555
C21 C22 1_555 1_555
C24 N2 1_555 1_555
C26 N3 1_555 1_555
C27 N3 1_555 1_555
C29 O3 1_555 1_555
C32 C33 1_555 1_555
C35 N4 1_555 1_555
C41 C42 1_555 1_555
C43 N4 1_555 1_555
C45 O4 1_555 1_555
C48 C49 1_555 1_555
C51 N5 1_555 1_555
C53 N6 1_555 1_555
C54 N6 1_555 1_555

#END
