
#######################################################################
#
#                 Cambridge Crystallographic Data Centre
#                                CCDC 
#
#######################################################################
#
# If this CIF has been generated from an entry in the Cambridge 
# Structural Database, then it will include bibliographic, chemical, 
# crystal, experimental, refinement or atomic coordinate data resulting 
# from the CCDC's data processing and validation procedures.
#
#######################################################################

data_VOKMAL
_symmetry_cell_setting           orthorhombic
_symmetry_space_group_name_H-M   'I b a 2'
_symmetry_Int_Tables_number      45
_space_group_name_Hall           'I 2 -2c'
loop_
_symmetry_equiv_pos_site_id
_symmetry_equiv_pos_as_xyz
1 x,y,z
2 -x,-y,z
3 -x,y,1/2+z
4 x,-y,1/2+z
5 1/2+x,1/2+y,1/2+z
6 1/2-x,1/2-y,1/2+z
7 1/2-x,1/2+y,z
8 1/2+x,1/2-y,z
_cell_length_a                   23.407(3)
_cell_length_b                   29.545(4)
_cell_length_c                   29.171(4)
_cell_angle_alpha                90
_cell_angle_beta                 90
_cell_angle_gamma                90
_cell_volume                     20173.5
loop_
_atom_site_label
_atom_site_type_symbol
_atom_site_fract_x
_atom_site_fract_y
_atom_site_fract_z
C1 C 0.7259(2) 0.37525(18) 0.37370(19)
C2 C 0.7228(2) 0.33570(16) 0.34036(17)
C3 C 0.7721(2) 0.32110(16) 0.31850(19)
H1 H 0.8075 0.3362 0.3230
C4 C 0.7679(2) 0.28388(16) 0.28998(17)
C5 C 0.7169(2) 0.26083(15) 0.28170(17)
H2 H 0.7156 0.2354 0.2618
C6 C 0.6679(2) 0.27651(16) 0.30375(16)
C7 C 0.6725(2) 0.31311(16) 0.33405(17)
H3 H 0.6396 0.3225 0.3507
C8 C 0.8319(2) 0.33397(18) 0.21341(18)
H4 H 0.7966 0.3448 0.2278
H5 H 0.8254 0.3295 0.1805
H6 H 0.8622 0.3564 0.2178
C9 C 0.8493(2) 0.29015(15) 0.23479(15)
C10 C 0.8505(2) 0.22965(15) 0.27777(18)
C11 C 0.8335(3) 0.19578(19) 0.3126(2)
H7 H 0.8641 0.1735 0.3163
H8 H 0.7985 0.1804 0.3025
H9 H 0.8264 0.2110 0.3419
C12 C 0.5996(2) 0.22215(17) 0.27072(17)
C13 C 0.5423(2) 0.19946(16) 0.28058(19)
C14 C 0.5073(2) 0.21242(18) 0.3155(2)
H10 H 0.5174 0.2382 0.3331
C15 C 0.4569(3) 0.1893(2) 0.3264(2)
C16 C 0.4440(3) 0.1513(2) 0.2996(3)
H11 H 0.4112 0.1336 0.3063
C17 C 0.4789(3) 0.1396(2) 0.2635(3)
H12 H 0.4688 0.1145 0.2448
C18 C 0.5270(2) 0.16286(17) 0.2542(2)
H13 H 0.5505 0.1539 0.2293
C19 C 0.4218(3) 0.2036(3) 0.3645(3)
H14 H 0.4464 0.2126 0.3901
H15 H 0.3971 0.1786 0.3740
H16 H 0.3982 0.2294 0.3551
C20 C 0.7585(2) 0.60881(18) 0.57295(18)
C21 C 0.7444(2) 0.65102(18) 0.59867(17)
C22 C 0.6916(2) 0.65723(15) 0.61956(16)
H17 H 0.6638 0.6338 0.6187
C23 C 0.6796(2) 0.69749(16) 0.64158(16)
C24 C 0.7189(2) 0.73204(16) 0.64518(18)
H18 H 0.7102 0.7589 0.6617
C25 C 0.7722(2) 0.72647(17) 0.62362(17)
C26 C 0.7839(2) 0.68653(17) 0.60044(17)
H19 H 0.8196 0.6832 0.5854
C27 C 0.6230(2) 0.64426(18) 0.72231(18)
H20 H 0.5976 0.6361 0.7477
H21 H 0.6602 0.6535 0.7345
H22 H 0.6280 0.6181 0.7020
C28 C 0.5979(2) 0.68179(14) 0.69642(16)
C29 C 0.5857(2) 0.73673(16) 0.64715(19)
C30 C 0.5933(3) 0.7677(2) 0.6074(2)
H23 H 0.5562 0.7734 0.5930
H24 H 0.6191 0.7537 0.5850
H25 H 0.6097 0.7964 0.6179
C31 C 0.8204(2) 0.79572(16) 0.65187(19)
C32 C 0.8713(3) 0.82518(18) 0.6465(2)
C33 C 0.9113(3) 0.8185(2) 0.6111(2)
H26 H 0.9053 0.7951 0.5893
C34 C 0.9601(3) 0.8462(2) 0.6076(3)
C35 C 0.9678(3) 0.8793(2) 0.6388(3)
H27 H 1.0009 0.8979 0.6367
C36 C 0.9294(4) 0.8869(3) 0.6732(3)
H28 H 0.9357 0.9109 0.6943
C37 C 0.8810(3) 0.8597(2) 0.6775(3)
H29 H 0.8547 0.8648 0.7018
C38 C 1.0014(4) 0.8376(3) 0.5693(4)
H30 H 0.9883 0.8117 0.5512
H31 H 1.0392 0.8310 0.5821
H32 H 1.0037 0.8644 0.5497
C39 C 1.0288(2) 0.3520(2) 0.6150(2)
C40 C 1.0212(2) 0.38361(17) 0.57481(18)
C41 C 0.9666(2) 0.39988(18) 0.56408(19)
H33 H 0.9347 0.3932 0.5831
C42 C 0.9604(2) 0.42521(16) 0.52619(16)
C43 C 1.0046(2) 0.43938(14) 0.49864(17)
H34 H 0.9980 0.4586 0.4731
C44 C 1.0602(2) 0.42423(15) 0.50969(16)
C45 C 1.0672(2) 0.39550(16) 0.54758(17)
H35 H 1.1041 0.3840 0.5546
C46 C 0.8920(3) 0.3988(2) 0.4395(2)
H36 H 0.9092 0.3714 0.4525
H37 H 0.9205 0.4150 0.4212
H38 H 0.8596 0.3904 0.4200
C47 C 0.8715(2) 0.42876(17) 0.47755(17)
C48 C 0.8699(2) 0.46863(15) 0.54011(16)
C49 C 0.8864(3) 0.4906(2) 0.58450(19)
H39 H 0.8534 0.5068 0.5972
H40 H 0.9176 0.5121 0.5791
H41 H 0.8990 0.4674 0.6063
C50 C 1.1136(2) 0.45775(16) 0.44466(17)
C51 C 1.1682(2) 0.45295(17) 0.41955(16)
C52 C 1.2077(2) 0.41821(18) 0.42841(18)
H42 H 1.2011 0.3982 0.4533
C53 C 1.2564(2) 0.4124(2) 0.4015(2)
C54 C 1.2651(3) 0.4423(2) 0.3652(2)
H43 H 1.2977 0.4384 0.3462
C55 C 1.2272(3) 0.4779(2) 0.3559(2)
H44 H 1.2342 0.4978 0.3310
C56 C 1.1796(3) 0.48353(19) 0.3834(2)
H45 H 1.1544 0.5082 0.3779
C57 C 1.2964(3) 0.3737(2) 0.4113(3)
H46 H 1.2946 0.3660 0.4439
H47 H 1.3355 0.3825 0.4032
H48 H 1.2850 0.3473 0.3930
C58 C 0.4979(2) 0.64605(18) 0.3438(2)
C59 C 0.4987(2) 0.61636(15) 0.38598(19)
C60 C 0.5465(2) 0.58923(15) 0.39566(19)
H49 H 0.5780 0.5882 0.3752
C61 C 0.5466(2) 0.56447(15) 0.43491(18)
C62 C 0.5007(2) 0.56365(15) 0.46529(17)
H50 H 0.5013 0.5449 0.4917
C63 C 0.4535(2) 0.59140(16) 0.4556(2)
C64 C 0.4529(2) 0.61692(16) 0.4167(2)
H51 H 0.4207 0.6354 0.4103
C65 C 0.6070(2) 0.48730(17) 0.37974(18)
H52 H 0.6115 0.5103 0.3558
H53 H 0.5669 0.4782 0.3817
H54 H 0.6306 0.4609 0.3723
C66 C 0.6252(2) 0.50605(15) 0.42372(16)
C67 C 0.6280(2) 0.54689(16) 0.48704(17)
C68 C 0.6133(3) 0.5791(2) 0.5237(2)
H55 H 0.5830 0.5663 0.5429
H56 H 0.6000 0.6075 0.5101
H57 H 0.6472 0.5849 0.5426
C69 C 0.3952(2) 0.56932(17) 0.52403(19)
C70 C 0.3408(3) 0.57850(19) 0.5499(2)
C71 C 0.3029(3) 0.6124(2) 0.5384(3)
H58 H 0.3091 0.6307 0.5122
C72 C 0.2538(3) 0.6194(3) 0.5671(3)
C73 C 0.2456(4) 0.5927(3) 0.6029(3)
H59 H 0.2125 0.5970 0.6211
C74 C 0.2819(3) 0.5604(3) 0.6142(3)
H60 H 0.2750 0.5427 0.6407
C75 C 0.3294(3) 0.5522(3) 0.5880(2)
H61 H 0.3546 0.5283 0.5961
C76 C 0.2144(4) 0.6576(3) 0.5530(4)
H62 H 0.1795 0.6451 0.5394
H63 H 0.2337 0.6769 0.5305
H64 H 0.2044 0.6756 0.5801
Ag1 Ag 0.745479(15) 0.450312(13) 0.432200(14)
Ag2 Ag 0.745722(16) 0.514496(13) 0.536337(14)
Ag3 Ag 0.976102(16) 0.185747(12) 0.251328(14)
Ag4 Ag 0.967153(19) 0.282341(15) 0.179767(16)
N1 N 0.89604(17) 0.22892(12) 0.25231(15)
N2 N 0.89398(17) 0.26707(12) 0.22470(13)
N3 N 0.81888(17) 0.26845(12) 0.26737(14)
N4 N 0.61443(18) 0.25564(15) 0.29929(15)
H65 H 0.5873 0.2658 0.3175
N5 N 0.5393(2) 0.73395(14) 0.67146(17)
N6 N 0.54775(17) 0.69951(12) 0.70320(14)
N7 N 0.62389(18) 0.70458(13) 0.66089(14)
N8 N 0.8150(2) 0.76061(16) 0.62415(16)
H66 H 0.8416 0.7580 0.6030
N9 N 0.81997(17) 0.47293(14) 0.51979(13)
N10 N 0.82058(18) 0.44774(13) 0.48007(14)
N11 N 0.90373(18) 0.44164(14) 0.51388(14)
N12 N 1.10946(17) 0.43433(14) 0.48463(14)
H67 H 1.1418 0.4243 0.4961
N13 N 0.67268(17) 0.52071(13) 0.48708(14)
N14 N 0.67055(17) 0.49441(12) 0.44690(13)
N15 N 0.59663(17) 0.53936(13) 0.44786(14)
N16 N 0.40495(19) 0.59351(15) 0.48515(19)
H68 H 0.3781 0.6128 0.4772
O1 O 0.76764(18) 0.40238(15) 0.36987(17)
O2 O 0.68905(18) 0.37944(15) 0.40309(15)
O3 O 0.63057(17) 0.21002(14) 0.23888(15)
O4 O 0.73396(17) 0.57364(12) 0.58607(13)
O5 O 0.79329(15) 0.61071(13) 0.54028(13)
O6 O 0.78520(19) 0.80344(14) 0.68311(18)
O7 O 0.99488(19) 0.35358(17) 0.64637(16)
O8 O 1.07042(19) 0.32511(16) 0.61317(16)
O9 O 1.07334(16) 0.48050(12) 0.42931(13)
O10 O 0.5314(2) 0.63638(14) 0.31170(16)
O11 O 0.46460(19) 0.67988(15) 0.34422(18)
O12 O 0.42852(17) 0.53995(16) 0.53625(16)
Ag3D Ag 0.476102(16) 0.685747(12) 0.751328(14)
Ag3F Ag 0.523898(16) 0.685747(12) 0.251328(14)
Ag4B Ag 1.032847(19) 0.282341(15) 0.679767(16)
Ag4D Ag 0.467153(19) 0.782341(15) 0.679767(16)
N5D N 1.0393(2) 0.23395(14) 0.17146(17)
N6D N 1.04775(17) 0.19951(12) 0.20320(14)
O7B O 1.00512(19) 0.35358(17) 0.14637(16)
O8B O 0.92958(19) 0.32511(16) 0.11317(16)
O10F O 0.9686(2) 0.13638(14) 0.31170(16)
loop_
_geom_bond_atom_site_label_1
_geom_bond_atom_site_label_2
_geom_bond_site_symmetry_1
_geom_bond_site_symmetry_2
C1 C2 1_555 1_555
C2 C3 1_555 1_555
C3 H1 1_555 1_555
C4 C3 1_555 1_555
C5 C4 1_555 1_555
H2 C5 1_555 1_555
C6 C5 1_555 1_555
C7 C2 1_555 1_555
H3 C7 1_555 1_555
C8 H4 1_555 1_555
H5 C8 1_555 1_555
H6 C8 1_555 1_555
C9 C8 1_555 1_555
C10 C11 1_555 1_555
C11 H7 1_555 1_555
H8 C11 1_555 1_555
H9 C11 1_555 1_555
C12 C13 1_555 1_555
C13 C14 1_555 1_555
C14 H10 1_555 1_555
C15 C14 1_555 1_555
C16 C15 1_555 1_555
H11 C16 1_555 1_555
C17 C16 1_555 1_555
H12 C17 1_555 1_555
C18 C13 1_555 1_555
H13 C18 1_555 1_555
C19 C15 1_555 1_555
H14 C19 1_555 1_555
H15 C19 1_555 1_555
H16 C19 1_555 1_555
C20 C21 1_555 1_555
C21 C22 1_555 1_555
C22 H17 1_555 1_555
C23 C22 1_555 1_555
C24 C23 1_555 1_555
H18 C24 1_555 1_555
C25 C24 1_555 1_555
C26 C21 1_555 1_555
H19 C26 1_555 1_555
C27 H20 1_555 1_555
H21 C27 1_555 1_555
H22 C27 1_555 1_555
C28 C27 1_555 1_555
C29 C30 1_555 1_555
C30 H23 1_555 1_555
H24 C30 1_555 1_555
H25 C30 1_555 1_555
C31 C32 1_555 1_555
C32 C33 1_555 1_555
C33 H26 1_555 1_555
C34 C33 1_555 1_555
C35 C34 1_555 1_555
H27 C35 1_555 1_555
C36 C35 1_555 1_555
H28 C36 1_555 1_555
C37 C32 1_555 1_555
H29 C37 1_555 1_555
C38 C34 1_555 1_555
H30 C38 1_555 1_555
H31 C38 1_555 1_555
H32 C38 1_555 1_555
C39 C40 1_555 1_555
C40 C41 1_555 1_555
C41 H33 1_555 1_555
C42 C41 1_555 1_555
C43 C42 1_555 1_555
H34 C43 1_555 1_555
C44 C43 1_555 1_555
C45 C40 1_555 1_555
H35 C45 1_555 1_555
C46 H36 1_555 1_555
H37 C46 1_555 1_555
H38 C46 1_555 1_555
C47 C46 1_555 1_555
C48 C49 1_555 1_555
C49 H39 1_555 1_555
H40 C49 1_555 1_555
H41 C49 1_555 1_555
C50 C51 1_555 1_555
C51 C52 1_555 1_555
C52 H42 1_555 1_555
C53 C52 1_555 1_555
C54 C53 1_555 1_555
H43 C54 1_555 1_555
C55 C54 1_555 1_555
H44 C55 1_555 1_555
C56 C51 1_555 1_555
H45 C56 1_555 1_555
C57 C53 1_555 1_555
H46 C57 1_555 1_555
H47 C57 1_555 1_555
H48 C57 1_555 1_555
C58 C59 1_555 1_555
C59 C60 1_555 1_555
C60 H49 1_555 1_555
C61 C60 1_555 1_555
C62 C61 1_555 1_555
H50 C62 1_555 1_555
C63 C62 1_555 1_555
C64 C59 1_555 1_555
H51 C64 1_555 1_555
C65 H52 1_555 1_555
H53 C65 1_555 1_555
H54 C65 1_555 1_555
C66 C65 1_555 1_555
C67 C68 1_555 1_555
C68 H55 1_555 1_555
H56 C68 1_555 1_555
H57 C68 1_555 1_555
C69 C70 1_555 1_555
C70 C71 1_555 1_555
C71 H58 1_555 1_555
C72 C71 1_555 1_555
C73 C72 1_555 1_555
H59 C73 1_555 1_555
C74 C73 1_555 1_555
H60 C74 1_555 1_555
C75 C70 1_555 1_555
H61 C75 1_555 1_555
C76 C72 1_555 1_555
H62 C76 1_555 1_555
H63 C76 1_555 1_555
H64 C76 1_555 1_555
Ag1 N10 1_555 1_555
Ag2 N9 1_555 1_555
Ag3 N1 1_555 1_555
Ag4 N2 1_555 1_555
N1 C10 1_555 1_555
N2 C9 1_555 1_555
N3 C4 1_555 1_555
N4 C6 1_555 1_555
H65 N4 1_555 1_555
N5 C29 1_555 1_555
N6 C28 1_555 1_555
N7 C23 1_555 1_555
N8 C25 1_555 1_555
H66 N8 1_555 1_555
N9 C48 1_555 1_555
N10 C47 1_555 1_555
N11 C42 1_555 1_555
N12 C44 1_555 1_555
H67 N12 1_555 1_555
N13 C67 1_555 1_555
N14 C66 1_555 1_555
N15 C61 1_555 1_555
N16 C63 1_555 1_555
H68 N16 1_555 1_555
O1 C1 1_555 1_555
O2 C1 1_555 1_555
O3 C12 1_555 1_555
O4 C20 1_555 1_555
O5 C20 1_555 1_555
O6 C31 1_555 1_555
O7 C39 1_555 1_555
O8 C39 1_555 1_555
O9 C50 1_555 1_555
O10 C58 1_555 1_555
O11 C58 1_555 1_555
O12 C69 1_555 1_555
Ag3D N6 1_555 1_555
Ag3F O10 1_555 1_555
Ag4B O7 1_555 1_555
Ag4D N5 1_555 1_555
N5D Ag4 1_555 1_555
N6D Ag3 1_555 1_555
O7B Ag4 1_555 1_555
O8B Ag4 1_555 1_555
O10F Ag3 1_555 1_555
C6 C7 1_555 1_555
C9 N3 1_555 1_555
C10 N3 1_555 1_555
C12 N4 1_555 1_555
C17 C18 1_555 1_555
C25 C26 1_555 1_555
C28 N7 1_555 1_555
C29 N7 1_555 1_555
C31 N8 1_555 1_555
C36 C37 1_555 1_555
C44 C45 1_555 1_555
C47 N11 1_555 1_555
C48 N11 1_555 1_555
C50 N12 1_555 1_555
C55 C56 1_555 1_555
C63 C64 1_555 1_555
C66 N15 1_555 1_555
C67 N15 1_555 1_555
C69 N16 1_555 1_555
C74 C75 1_555 1_555
Ag1 N14 1_555 1_555
Ag1 O1 1_555 1_555
Ag1 O2 1_555 1_555
Ag2 N13 1_555 1_555
Ag2 O4 1_555 1_555
N1 N2 1_555 1_555
N5 N6 1_555 1_555
N9 N10 1_555 1_555
N13 N14 1_555 1_555
O8 Ag4B 1_555 1_555
N5D N6D 1_555 1_555

#END
