
#######################################################################
#
#                 Cambridge Crystallographic Data Centre
#                                CCDC 
#
#######################################################################
#
# If this CIF has been generated from an entry in the Cambridge 
# Structural Database, then it will include bibliographic, chemical, 
# crystal, experimental, refinement or atomic coordinate data resulting 
# from the CCDC's data processing and validation procedures.
#
#######################################################################

data_VOKMUE
_symmetry_cell_setting           monoclinic
_symmetry_space_group_name_H-M   'P 21'
_symmetry_Int_Tables_number      4
_space_group_name_Hall           'P 2yb'
loop_
_symmetry_equiv_pos_site_id
_symmetry_equiv_pos_as_xyz
1 x,y,z
2 -x,1/2+y,-z
_cell_length_a                   5.7070(11)
_cell_length_b                   4.8108(10)
_cell_length_c                   11.818(2)
_cell_angle_alpha                90
_cell_angle_beta                 98.62(3)
_cell_angle_gamma                90
_cell_volume                     320.801
loop_
_atom_site_label
_atom_site_type_symbol
_atom_site_fract_x
_atom_site_fract_y
_atom_site_fract_z
Fe1 Fe 0.7446(2) 0.2500 0.9814(1)
P1 P 0.7934(5) 0.8109(7) 1.1425(2)
O1 O 0.788(2) 0.501(2) 1.1284(8)
O2 O 0.705(2) -0.053(3) 0.8413(9)
H1 H 0.58(2) -0.17(2) 0.85(1)
H2 H 0.84(1) -0.15(3) 0.86(1)
O3 O 0.983(2) 0.954(2) 1.0839(6)
O4 O 0.559(2) 0.952(2) 1.0901(6)
C1 C 0.852(3) 0.889(3) 1.2896(11)
H3 H 0.99(1) 0.81(2) 1.333(10)
H4 H 0.87(2) 1.085(8) 1.28(1)
C2 C 0.681(3) 0.787(4) 1.364(1)
H5 H 0.66(3) 0.590(8) 1.35(2)
H6 H 0.55(2) 0.89(3) 1.32(1)
C3 C 0.737(4) 0.885(6) 1.489(2)
H7 H 0.63(2) 0.86(3) 1.544(11)
H8 H 0.89(1) 0.81(3) 1.52(1)
H9 H 0.75(2) 1.081(10) 1.48(2)
Fe1A Fe 1.2554(2) 0.7500 1.0186(1)
Fe1_2 Fe 0.7446(2) 1.2500 0.9814(1)
Fe1A_2 Fe 0.2554(2) 0.7500 1.0186(1)
O3A O 1.017(2) 0.454(2) 0.9161(6)
O3_2 O 0.983(2) -0.046(2) 1.0839(6)
O4A O 0.441(2) 0.452(2) 0.9099(6)
O4_2 O 0.559(2) -0.048(2) 1.0901(6)
loop_
_geom_bond_atom_site_label_1
_geom_bond_atom_site_label_2
_geom_bond_site_symmetry_1
_geom_bond_site_symmetry_2
Fe1 O1 1_555 1_555
P1 O1 1_555 1_555
O2 Fe1 1_555 1_555
H1 O2 1_555 1_555
H2 O2 1_555 1_555
O3 P1 1_555 1_555
O4 P1 1_555 1_555
C1 P1 1_555 1_555
H3 C1 1_555 1_555
H4 C1 1_555 1_555
C2 C1 1_555 1_555
H5 C2 1_555 1_555
H6 C2 1_555 1_555
C3 C2 1_555 1_555
H7 C3 1_555 1_555
H8 C3 1_555 1_555
H9 C3 1_555 1_555
Fe1A O3 1_555 1_555
Fe1_2 O3 1_555 1_555
Fe1A_2 O4 1_555 1_555
O3A Fe1 1_555 1_555
O3_2 Fe1 1_555 1_555
O4A Fe1 1_555 1_555
O4_2 Fe1 1_555 1_555
O4 Fe1_2 1_555 1_555
Fe1A O3A 1_555 1_555
Fe1A_2 O4A 1_555 1_555

#END
