
#######################################################################
#
#                 Cambridge Crystallographic Data Centre
#                                CCDC 
#
#######################################################################
#
# If this CIF has been generated from an entry in the Cambridge 
# Structural Database, then it will include bibliographic, chemical, 
# crystal, experimental, refinement or atomic coordinate data resulting 
# from the CCDC's data processing and validation procedures.
#
#######################################################################

data_VOKNEO
_symmetry_cell_setting           triclinic
_symmetry_space_group_name_H-M   'P -1'
_symmetry_Int_Tables_number      2
_space_group_name_Hall           '-P 1'
loop_
_symmetry_equiv_pos_site_id
_symmetry_equiv_pos_as_xyz
1 x,y,z
2 -x,-y,-z
_cell_length_a                   7.297(1)
_cell_length_b                   17.704(2)
_cell_length_c                   6.343(1)
_cell_angle_alpha                94.03(1)
_cell_angle_beta                 107.71(1)
_cell_angle_gamma                83.40(1)
_cell_volume                     774.88
loop_
_atom_site_label
_atom_site_type_symbol
_atom_site_fract_x
_atom_site_fract_y
_atom_site_fract_z
Na1 Na 0.0000 0.0000 0.0000
Na2 Na 0.5000 0.0000 0.0000
O1 O 0.0691(2) 0.1273(1) 0.1513(2)
O2 O -0.0303(2) 0.1180(1) 0.4464(2)
O3 O 0.4260(2) 0.7680(1) 1.1018(3)
O4 O 0.3284(2) -0.0270(1) 0.2619(3)
O5 O 0.1873(2) 0.0105(1) -0.2517(2)
O6 O 0.5721(2) -0.1309(1) -0.1054(3)
N1 N 0.2298(2) 0.4560(1) 0.6230(3)
N2 N 0.2227(2) 0.4773(1) 0.8138(3)
C1 C 0.1769(3) 0.3807(1) 0.5578(3)
C2 C 0.1748(3) 0.3558(1) 0.3454(4)
C3 C 0.1305(3) 0.2829(1) 0.2697(3)
C4 C 0.0854(3) 0.2340(1) 0.4063(3)
C5 C 0.0863(3) 0.2599(1) 0.6189(3)
C6 C 0.1314(3) 0.3324(1) 0.6956(3)
C7 C 0.0399(3) 0.1545(1) 0.3258(3)
C8 C 0.2796(3) 0.5513(1) 0.8814(3)
C9 C 0.2612(3) 0.5795(1) 1.0840(4)
C10 C 0.3111(3) 0.6515(1) 1.1634(3)
C11 C 0.3781(3) 0.6957(1) 1.0366(3)
C12 C 0.3980(3) 0.6679(1) 0.8332(4)
C13 C 0.3511(3) 0.5959(1) 0.7568(4)
H1 H 0.1976(30) 0.3884(12) 0.2530(36)
H2 H 0.1254(28) 0.2661(11) 0.1245(34)
H3 H 0.4116(34) 0.7830(14) 1.2304(41)
H4 H 0.3350(46) -0.0715(19) 0.3123(52)
H5 H 0.3288(41) 0.0050(17) 0.3614(47)
H6 H 0.0541(34) 0.2260(14) 0.7169(40)
H7 H 0.1239(36) 0.0482(14) -0.3361(41)
H8 H 0.1435(37) -0.0285(15) -0.3166(42)
H9 H 0.1408(31) 0.3488(12) 0.8410(37)
H10 H 0.6959(44) -0.1383(16) -0.0938(47)
H11 H 0.5460(37) -0.1628(15) -0.0432(43)
H14 H 0.2117(29) 0.5456(12) 1.1652(34)
H15 H 0.2979(29) 0.6715(11) 1.2995(35)
H16 H 0.4479(33) 0.6981(13) 0.7472(39)
H17 H 0.3629(28) 0.5751(11) 0.6183(34)
O1A O -0.0691(2) -0.1273(1) -0.1513(2)
O4A O -0.3284(2) 0.0270(1) -0.2619(3)
O5A O -0.1873(2) -0.0105(1) 0.2517(2)
O4A_2 O 0.6716(2) 0.0270(1) -0.2619(3)
O5A_2 O 0.8127(2) -0.0105(1) 0.2517(2)
O6A O 0.4279(2) 0.1309(1) 0.1054(3)
C7A C -0.0399(3) -0.1545(1) -0.3258(3)
Na2_2 Na -0.5000 0.0000 0.0000
H4A H -0.3350(46) 0.0715(19) -0.3123(52)
H5A H -0.3288(41) -0.0050(17) -0.3614(47)
H7A H -0.1239(36) -0.0482(14) 0.3361(41)
H8A H -0.1435(37) 0.0285(15) 0.3166(42)
H10A H 0.3041(44) 0.1383(16) 0.0938(47)
H11A H 0.4540(37) 0.1628(15) 0.0432(43)
O2A O 0.0303(2) -0.1180(1) -0.4464(2)
C4A C -0.0854(3) -0.2340(1) -0.4063(3)
C3A C -0.1305(3) -0.2829(1) -0.2697(3)
C5A C -0.0863(3) -0.2599(1) -0.6189(3)
C2A C -0.1748(3) -0.3558(1) -0.3454(4)
H2A H -0.1254(28) -0.2661(11) -0.1245(34)
C6A C -0.1314(3) -0.3324(1) -0.6956(3)
H6A H -0.0541(34) -0.2260(14) -0.7169(40)
C1A C -0.1769(3) -0.3807(1) -0.5578(3)
H1A H -0.1976(30) -0.3884(12) -0.2530(36)
H9A H -0.1408(31) -0.3488(12) -0.8410(37)
N1A N -0.2298(2) -0.4560(1) -0.6230(3)
N2A N -0.2227(2) -0.4773(1) -0.8138(3)
C8A C -0.2796(3) -0.5513(1) -0.8814(3)
C9A C -0.2612(3) -0.5795(1) -1.0840(4)
C13A C -0.3511(3) -0.5959(1) -0.7568(4)
C10A C -0.3111(3) -0.6515(1) -1.1634(3)
H14A H -0.2117(29) -0.5456(12) -1.1652(34)
C12A C -0.3980(3) -0.6679(1) -0.8332(4)
H17A H -0.3629(28) -0.5751(11) -0.6183(34)
C11A C -0.3781(3) -0.6957(1) -1.0366(3)
H15A H -0.2979(29) -0.6715(11) -1.2995(35)
H16A H -0.4479(33) -0.6981(13) -0.7472(39)
O3A O -0.4260(2) -0.7680(1) -1.1018(3)
H3A H -0.4116(34) -0.7830(14) -1.2304(41)
O7 O -0.3622(3) 0.1641(1) 0.5362(3)
H12 H -0.2399(45) 0.1578(16) 0.5167(49)
H13 H -0.4387(36) 0.1563(14) 0.4144(43)
loop_
_geom_bond_atom_site_label_1
_geom_bond_atom_site_label_2
_geom_bond_site_symmetry_1
_geom_bond_site_symmetry_2
Na1 O1 1_555 1_555
Na2 O4 1_555 1_555
O1 C7 1_555 1_555
O2 C7 1_555 1_555
O3 C11 1_555 1_555
O4 Na1 1_555 1_555
O5 Na1 1_555 1_555
O6 Na2 1_555 1_555
O7 H12 1_555 1_555
N1 N2 1_555 1_555
N2 C8 1_555 1_555
C1 N1 1_555 1_555
C2 C1 1_555 1_555
C3 C2 1_555 1_555
C4 C3 1_555 1_555
C5 C4 1_555 1_555
C6 C1 1_555 1_555
C7 C4 1_555 1_555
C8 C9 1_555 1_555
C9 C10 1_555 1_555
C10 C11 1_555 1_555
C11 C12 1_555 1_555
C12 C13 1_555 1_555
C13 C8 1_555 1_555
H1 C2 1_555 1_555
H2 C3 1_555 1_555
H3 O3 1_555 1_555
H4 O4 1_555 1_555
H5 O4 1_555 1_555
H6 C5 1_555 1_555
H7 O5 1_555 1_555
H8 O5 1_555 1_555
H9 C6 1_555 1_555
H10 O6 1_555 1_555
H11 O6 1_555 1_555
H13 O7 1_555 1_555
H14 C9 1_555 1_555
H15 C10 1_555 1_555
H16 C12 1_555 1_555
H17 C13 1_555 1_555
O1A Na1 1_555 1_555
O4A Na1 1_555 1_555
O5A Na1 1_555 1_555
O4A_2 Na2 1_555 1_555
O5A_2 Na2 1_555 1_555
O6A Na2 1_555 1_555
C7A O1A 1_555 1_555
Na2_2 O4A 1_555 1_555
H4A O4A 1_555 1_555
H5A O4A 1_555 1_555
H7A O5A 1_555 1_555
H8A O5A 1_555 1_555
H10A O6A 1_555 1_555
H11A O6A 1_555 1_555
O2A C7A 1_555 1_555
C4A C7A 1_555 1_555
C3A C4A 1_555 1_555
C5A C4A 1_555 1_555
C2A C3A 1_555 1_555
H2A C3A 1_555 1_555
C6A C5A 1_555 1_555
H6A C5A 1_555 1_555
C1A C2A 1_555 1_555
H1A C2A 1_555 1_555
H9A C6A 1_555 1_555
N1A C1A 1_555 1_555
N2A N1A 1_555 1_555
C8A N2A 1_555 1_555
C9A C8A 1_555 1_555
C13A C8A 1_555 1_555
C10A C9A 1_555 1_555
H14A C9A 1_555 1_555
C12A C13A 1_555 1_555
H17A C13A 1_555 1_555
C11A C10A 1_555 1_555
H15A C10A 1_555 1_555
H16A C12A 1_555 1_555
O3A C11A 1_555 1_555
H3A O3A 1_555 1_555
Na2 O5 1_555 1_555
C5 C6 1_555 1_555
O5A Na2_2 1_555 1_555
C6A C1A 1_555 1_555
C12A C11A 1_555 1_555

#END
