
#######################################################################
#
#                 Cambridge Crystallographic Data Centre
#                                CCDC 
#
#######################################################################
#
# If this CIF has been generated from an entry in the Cambridge 
# Structural Database, then it will include bibliographic, chemical, 
# crystal, experimental, refinement or atomic coordinate data resulting 
# from the CCDC's data processing and validation procedures.
#
#######################################################################

data_VOKQIX
_symmetry_cell_setting           orthorhombic
_symmetry_space_group_name_H-M   'A b a 2'
_symmetry_Int_Tables_number      41
_space_group_name_Hall           'A 2 -2ab'
loop_
_symmetry_equiv_pos_site_id
_symmetry_equiv_pos_as_xyz
1 x,y,z
2 -x,-y,z
3 1/2+x,1/2-y,z
4 1/2-x,1/2+y,z
5 x,1/2+y,1/2+z
6 -x,1/2-y,1/2+z
7 1/2+x,-y,1/2+z
8 1/2-x,y,1/2+z
_cell_length_a                   27.757(3)
_cell_length_b                   10.7340(11)
_cell_length_c                   14.1940(15)
_cell_angle_alpha                90
_cell_angle_beta                 90
_cell_angle_gamma                90
_cell_volume                     4229.01
loop_
_atom_site_label
_atom_site_type_symbol
_atom_site_fract_x
_atom_site_fract_y
_atom_site_fract_z
Cu1 Cu -0.15046(6) 0.41192(15) 0.54270(13)
U1 U 0.073694(12) 0.84912(3) 0.27288(5)
N1 N 0.1282(5) 0.2426(12) 0.1011(9)
N2 N -0.1166(4) 0.5531(9) 0.4822(7)
N3 N 0.2871(4) 1.1034(10) 0.4584(9)
O1 O 0.0481(3) 0.6395(8) 0.2131(8)
O2 O 0.1252(3) 0.6899(8) 0.2008(7)
O3 O -0.0082(3) 0.8358(8) 0.3026(7)
O4 O -0.0636(3) 0.9659(8) 0.3606(7)
O5 O 0.1502(3) 0.9318(8) 0.2764(10)
O6 O 0.1953(4) 1.0138(13) 0.1644(8)
O7 O 0.0860(4) 0.7767(9) 0.3816(7)
O8 O 0.0602(3) 0.9193(10) 0.1666(6)
C1 C 0.0823(6) 0.2744(14) 0.1120(12)
C2 C 0.0671(5) 0.3959(18) 0.1406(13)
C3 C 0.1035(5) 0.4810(12) 0.1604(10)
C4 C 0.1512(5) 0.4476(13) 0.1535(12)
C5 C 0.1628(5) 0.3274(12) 0.1229(12)
C6 C 0.0907(5) 0.6104(12) 0.1907(10)
C7 C -0.0765(5) 0.5336(13) 0.4300(11)
C8 C -0.0525(7) 0.6308(14) 0.3845(13)
C9 C -0.0705(4) 0.7510(14) 0.3973(10)
C10 C -0.1117(6) 0.7702(14) 0.4498(13)
C11 C -0.1338(5) 0.6694(12) 0.4930(12)
C12 C -0.0453(5) 0.8577(12) 0.3514(9)
C13 C 0.2494(5) 1.0280(14) 0.4806(9)
C14 C 0.2151(5) 0.9949(13) 0.4135(9)
C15 C 0.2200(4) 1.0376(11) 0.3220(8)
C16 C 0.2575(4) 1.1167(11) 0.2994(8)
C17 C 0.2896(5) 1.1478(13) 0.3681(11)
C18 C 0.1862(4) 0.9935(11) 0.2450(10)
Cu1B Cu 0.34954(6) 1.08808(15) 0.54270(13)
Cu1E Cu 0.15046(6) 0.08808(15) 0.04270(13)
Cu1E_2 Cu 0.15046(6) 1.08808(15) 0.04270(13)
U1A U -0.073694(12) 1.15088(3) 0.27288(5)
N1E N -0.1282(5) 0.2574(12) 0.6011(9)
N3B N -0.2129(4) 0.3966(10) 0.4584(9)
O4A O 0.0636(3) 1.0341(8) 0.3606(7)
O6E O -0.1953(4) 0.4862(13) 0.6644(8)
loop_
_geom_bond_atom_site_label_1
_geom_bond_atom_site_label_2
_geom_bond_site_symmetry_1
_geom_bond_site_symmetry_2
Cu1 N2 1_555 1_555
U1 O1 1_555 1_555
N1 C1 1_555 1_555
N2 C7 1_555 1_555
N3 C13 1_555 1_555
O1 C6 1_555 1_555
O2 U1 1_555 1_555
O3 U1 1_555 1_555
O4 C12 1_555 1_555
O5 U1 1_555 1_555
O6 C18 1_555 1_555
O7 U1 1_555 1_555
O8 U1 1_555 1_555
C1 C2 1_555 1_555
C2 C3 1_555 1_555
C3 C4 1_555 1_555
C4 C5 1_555 1_555
C5 N1 1_555 1_555
C6 O2 1_555 1_555
C7 C8 1_555 1_555
C8 C9 1_555 1_555
C9 C10 1_555 1_555
C10 C11 1_555 1_555
C11 N2 1_555 1_555
C12 O3 1_555 1_555
C13 C14 1_555 1_555
C14 C15 1_555 1_555
C15 C16 1_555 1_555
C16 C17 1_555 1_555
C17 N3 1_555 1_555
C18 O5 1_555 1_555
Cu1B N3 1_555 1_555
Cu1E N1 1_555 1_555
Cu1E_2 O6 1_555 1_555
U1A O4 1_555 1_555
N1E Cu1 1_555 1_555
N3B Cu1 1_555 1_555
O4A U1 1_555 1_555
O6E Cu1 1_555 1_555
C3 C6 1_555 1_555
C9 C12 1_555 1_555
C15 C18 1_555 1_555

#END
