
#######################################################################
#
#                 Cambridge Crystallographic Data Centre
#                                CCDC 
#
#######################################################################
#
# If this CIF has been generated from an entry in the Cambridge 
# Structural Database, then it will include bibliographic, chemical, 
# crystal, experimental, refinement or atomic coordinate data resulting 
# from the CCDC's data processing and validation procedures.
#
#######################################################################

data_VOKQET
_symmetry_cell_setting           monoclinic
_symmetry_space_group_name_H-M   'P 2/c'
_symmetry_Int_Tables_number      13
_space_group_name_Hall           '-P 2yc'
loop_
_symmetry_equiv_pos_site_id
_symmetry_equiv_pos_as_xyz
1 x,y,z
2 -x,y,1/2-z
3 -x,-y,-z
4 x,-y,1/2+z
_cell_length_a                   9.7137(11)
_cell_length_b                   14.5743(16)
_cell_length_c                   14.5114(16)
_cell_angle_alpha                90
_cell_angle_beta                 105.0120(13)
_cell_angle_gamma                90
_cell_volume                     1984.27
loop_
_atom_site_label
_atom_site_type_symbol
_atom_site_fract_x
_atom_site_fract_y
_atom_site_fract_z
C1 C 0.9144(7) 0.8493(5) 0.5673(5)
C2 C 0.9862(7) 0.5726(4) 0.6433(5)
C3 C 0.7738(8) 1.0859(5) 0.4838(6)
C4 C 0.7820(7) 0.5087(5) 0.5340(5)
C5 C 0.8182(7) 1.0020(5) 0.5445(5)
C6 C 0.7123(8) 0.4304(5) 0.4700(5)
C7 C 0.8677(8) 0.9241(5) 0.5069(5)
C8 C 0.9259(7) 0.5000(5) 0.5875(5)
C9 C 0.7747(7) 0.6563(5) 0.6031(5)
C10 C 0.8462(8) 0.9219(5) 0.6917(5)
C11 C 0.8065(8) 1.0013(5) 0.6385(6)
C12 C 0.5000 0.7743(7) 0.2500
C13 C 0.5000 0.6712(7) 0.2500
C14 C 0.7079(7) 0.5880(5) 0.5410(5)
C15 C 0.4849(9) 0.8205(6) 0.1639(7)
C16 C 0.4840(9) 0.9167(6) 0.1672(7)
N1 N 0.9046(6) 0.8481(4) 0.6584(4)
N2 N 0.9123(6) 0.6489(4) 0.6530(4)
N3 N 0.5000 0.9633(7) 0.2500
O1 O 0.5000 0.3245(4) 0.2500
O2 O 0.7845(5) 0.2474(3) 0.3115(3)
O3 O 0.5068(5) 0.2294(3) 0.4308(4)
O4 O 0.5000 0.1477(4) 0.2500
O5 O 0.7880(6) 1.1636(3) 0.5215(4)
O6 O 0.7209(6) 1.0760(3) 0.3959(4)
O7 O 0.7741(6) 0.3557(4) 0.4759(4)
O8 O 0.5901(6) 0.4449(4) 0.4131(4)
O9 O 0.4697(7) 0.6288(4) 0.1722(4)
O10 O 0.3202(5) 0.4813(4) 0.2557(4)
Cu1 Cu 1.0000 0.74715(7) 0.7500
U1 U 0.63924(3) 0.237828(16) 0.366657(17)
U2 U 0.5000 0.47866(2) 0.2500
C15A C 0.5151(9) 0.8205(6) 0.3361(7)
C16A C 0.5160(9) 0.9167(6) 0.3328(7)
O9A O 0.5303(7) 0.6288(4) 0.3278(4)
C2A C 0.0138(7) 0.5726(4) -0.1433(5)
C4A C 0.2180(7) 0.5087(5) -0.0340(5)
C6A C 0.2877(8) 0.4304(5) 0.0300(5)
C8A C 0.0741(7) 0.5000(5) -0.0875(5)
C9A C 0.2253(7) 0.6563(5) -0.1031(5)
C14A C 0.2921(7) 0.5880(5) -0.0410(5)
N2A N 0.0877(6) 0.6489(4) -0.1530(4)
O2A O 0.2155(5) 0.2474(3) 0.1885(3)
O3A O 0.4932(5) 0.2294(3) 0.0692(4)
O7A O 0.2259(6) 0.3557(4) 0.0241(4)
O8A O 0.4099(6) 0.4449(4) 0.0869(4)
O10A O 0.6798(5) 0.4813(4) 0.2443(4)
U1A U 0.36076(3) 0.237828(16) 0.133343(17)
C1A C 1.0856(7) 0.8493(5) 0.9327(5)
C3A C 1.2262(8) 1.0859(5) 1.0162(6)
C5A C 1.1818(7) 1.0020(5) 0.9555(5)
C7A C 1.1323(8) 0.9241(5) 0.9931(5)
C10A C 1.1538(8) 0.9219(5) 0.8083(5)
C11A C 1.1935(8) 1.0013(5) 0.8615(6)
N1A N 1.0954(6) 0.8481(4) 0.8416(4)
O5A O 1.2120(6) 1.1636(3) 0.9785(4)
O6A O 1.2791(6) 1.0760(3) 1.1041(4)
N2A_2 N 1.0877(6) 0.6489(4) 0.8470(4)
O2B O 1.2155(5) 0.7526(3) 0.6885(3)
O2C O 0.7845(5) 0.7526(3) 0.8115(3)
O5_2 O 0.7880(6) 0.1636(3) 0.5215(4)
O5A_2 O 0.2120(6) 0.1636(3) -0.0215(4)
O6_2 O 0.7209(6) 0.0760(3) 0.3959(4)
O6A_2 O 0.2791(6) 0.0760(3) 0.1041(4)
Cu1_2 Cu 0.0000 0.74715(7) -0.2500
Cu1B Cu 0.0000 0.25285(7) 0.2500
Cu1B_2 Cu 1.0000 0.25285(7) 0.2500
U1_2 U 0.63924(3) 1.237828(16) 0.366657(17)
U1A_2 U 1.36076(3) 1.237828(16) 1.133343(17)
O11 O 0.830(3) 1.3014(18) 0.6975(18)
O12 O 0.942(4) 0.814(3) 0.318(3)
O13 O 1.122(4) 0.300(3) 0.616(3)
loop_
_geom_bond_atom_site_label_1
_geom_bond_atom_site_label_2
_geom_bond_site_symmetry_1
_geom_bond_site_symmetry_2
C1 C7 1_555 1_555
C2 C8 1_555 1_555
C3 C5 1_555 1_555
C4 C6 1_555 1_555
C5 C7 1_555 1_555
C6 O7 1_555 1_555
C8 C4 1_555 1_555
C9 C14 1_555 1_555
C10 C11 1_555 1_555
C11 C5 1_555 1_555
C12 C13 1_555 1_555
C13 O9 1_555 1_555
C14 C4 1_555 1_555
C15 C12 1_555 1_555
C16 C15 1_555 1_555
N1 C1 1_555 1_555
N2 C2 1_555 1_555
N3 C16 1_555 1_555
O1 U1 1_555 1_555
O2 U1 1_555 1_555
O3 U1 1_555 1_555
O4 U1 1_555 1_555
O5 C3 1_555 1_555
O6 C3 1_555 1_555
O7 U1 1_555 1_555
O8 C6 1_555 1_555
O9 U2 1_555 1_555
O10 U2 1_555 1_555
Cu1 N1 1_555 1_555
U1 O5_2 1_555 1_555
U2 O1 1_555 1_555
C15A C12 1_555 1_555
C16A N3 1_555 1_555
O9A C13 1_555 1_555
C2A C8A 1_555 1_555
C4A C6A 1_555 1_555
C6A O7A 1_555 1_555
C8A C4A 1_555 1_555
C9A C14A 1_555 1_555
C14A C4A 1_555 1_555
N2A C2A 1_555 1_555
O2A U1A 1_555 1_555
O3A U1A 1_555 1_555
O7A U1A 1_555 1_555
O8A U2 1_555 1_555
O10A U2 1_555 1_555
U1A O1 1_555 1_555
C1A C7A 1_555 1_555
C3A C5A 1_555 1_555
C5A C7A 1_555 1_555
C10A C11A 1_555 1_555
C11A C5A 1_555 1_555
N1A Cu1 1_555 1_555
O5A C3A 1_555 1_555
O6A C3A 1_555 1_555
N2A_2 Cu1 1_555 1_555
O2B Cu1 1_555 1_555
O2C Cu1 1_555 1_555
O5A_2 U1A 1_555 1_555
O6_2 U1 1_555 1_555
O6A_2 U1A 1_555 1_555
Cu1_2 N2A 1_555 1_555
Cu1B O2A 1_555 1_555
Cu1B_2 O2 1_555 1_555
U1_2 O5 1_555 1_555
U1A_2 O5A 1_555 1_555
C9 N2 1_555 1_555
C10 N1 1_555 1_555
N2 Cu1 1_555 1_555
O4 U1A 1_555 1_555
O6 U1_2 1_555 1_555
O8 U2 1_555 1_555
U2 O9A 1_555 1_555
C15A C16A 1_555 1_555
C6A O8A 1_555 1_555
C9A N2A 1_555 1_555
C1A N1A 1_555 1_555
C10A N1A 1_555 1_555
O6A U1A_2 1_555 1_555

#END
