
#######################################################################
#
#                 Cambridge Crystallographic Data Centre
#                                CCDC 
#
#######################################################################
#
# If this CIF has been generated from an entry in the Cambridge 
# Structural Database, then it will include bibliographic, chemical, 
# crystal, experimental, refinement or atomic coordinate data resulting 
# from the CCDC's data processing and validation procedures.
#
#######################################################################

data_VOKSIZ
_symmetry_cell_setting           monoclinic
_symmetry_space_group_name_H-M   'C 2/c'
_symmetry_Int_Tables_number      15
_space_group_name_Hall           '-C 2yn'
loop_
_symmetry_equiv_pos_site_id
_symmetry_equiv_pos_as_xyz
1 x,y,z
2 -x,y,1/2-z
3 1/2+x,1/2+y,z
4 1/2-x,1/2+y,1/2-z
5 -x,-y,-z
6 x,-y,1/2+z
7 1/2-x,1/2-y,-z
8 1/2+x,1/2-y,1/2+z
_cell_length_a                   19.4761(13)
_cell_length_b                   12.4556(9)
_cell_length_c                   13.9142(9)
_cell_angle_alpha                90
_cell_angle_beta                 124.811(2)
_cell_angle_gamma                90
_cell_volume                     2771.33
loop_
_atom_site_label
_atom_site_type_symbol
_atom_site_fract_x
_atom_site_fract_y
_atom_site_fract_z
Ag1 Ag -0.11922(2) 1.09933(3) -0.07463(2)
Fe1 Fe 0.0000 1.20268(6) -0.2500
N1 N -0.06824(19) 1.3259(3) -0.3971(3)
N2 N -0.11370(17) 1.2395(3) -0.2651(2)
N3 N -0.14995(18) 1.2141(3) -0.2084(2)
N4 N -0.2619(2) 1.1886(3) -0.1478(3)
N5 N -0.23069(18) 1.3381(3) -0.3446(3)
N6 N -0.0429(2) 0.9173(3) 0.1200(3)
C1 C -0.0469(3) 1.3599(4) -0.4682(4)
H1 H 0.0051 1.3402 -0.4508
C2 C -0.0981(3) 1.4226(4) -0.5654(4)
H2 H -0.0806 1.4451 -0.6119
C3 C -0.1754(3) 1.4514(4) -0.5928(4)
H3 H -0.2112 1.4930 -0.6587
C4 C -0.1995(3) 1.4179(4) -0.5213(3)
H4 H -0.2514 1.4367 -0.5377
C5 C -0.1442(2) 1.3555(3) -0.4247(3)
C6 C -0.1639(2) 1.3125(3) -0.3451(3)
C7 C -0.2196(2) 1.2742(3) -0.2592(3)
C8 C -0.2775(2) 1.2659(4) -0.2243(3)
C9 C -0.3455(2) 1.3352(4) -0.2693(4)
H5 H -0.3553 1.3884 -0.3226
C10 C -0.3981(3) 1.3238(5) -0.2336(4)
H6 H -0.4430 1.3702 -0.2610
C11 C -0.3831(3) 1.2427(5) -0.1566(4)
H7 H -0.4183 1.2320 -0.1324
C12 C -0.3149(3) 1.1781(5) -0.1166(4)
H8 H -0.3049 1.1236 -0.0644
C13 C -0.0689(2) 0.9839(4) 0.0526(3)
Ag1A Ag 0.11922(2) 1.09933(3) -0.42537(2)
N1A N 0.06824(19) 1.3259(3) -0.1029(3)
N2A N 0.11370(17) 1.2395(3) -0.2349(2)
N3A N 0.14995(18) 1.2141(3) -0.2916(2)
N4A N 0.2619(2) 1.1886(3) -0.3522(3)
N5A N 0.23069(18) 1.3381(3) -0.1554(3)
N6A N 0.0429(2) 0.9173(3) -0.6200(3)
C1A C 0.0469(3) 1.3599(4) -0.0318(4)
H1A H -0.0051 1.3402 -0.0492
C2A C 0.0981(3) 1.4226(4) 0.0654(4)
H2A H 0.0806 1.4451 0.1119
C3A C 0.1754(3) 1.4514(4) 0.0928(4)
H3A H 0.2112 1.4930 0.1587
C4A C 0.1995(3) 1.4179(4) 0.0213(3)
H4A H 0.2514 1.4367 0.0377
C5A C 0.1442(2) 1.3555(3) -0.0753(3)
C6A C 0.1639(2) 1.3125(3) -0.1549(3)
C7A C 0.2196(2) 1.2742(3) -0.2408(3)
C8A C 0.2775(2) 1.2659(4) -0.2757(3)
C9A C 0.3455(2) 1.3352(4) -0.2307(4)
H5A H 0.3553 1.3884 -0.1774
C10A C 0.3981(3) 1.3238(5) -0.2664(4)
H6A H 0.4430 1.3702 -0.2390
C11A C 0.3831(3) 1.2427(5) -0.3434(4)
H7A H 0.4183 1.2320 -0.3676
C12A C 0.3149(3) 1.1781(5) -0.3834(4)
H8A H 0.3049 1.1236 -0.4356
C13A C 0.0689(2) 0.9839(4) -0.5526(3)
Fe1D Fe 0.0000 0.79732(6) -0.7500
Fe1D_2 Fe 0.0000 0.79732(6) 0.2500
N6D N 0.0429(2) 1.0827(3) -0.1200(3)
N6E N -0.0429(2) 1.0827(3) -0.3800(3)
loop_
_geom_bond_atom_site_label_1
_geom_bond_atom_site_label_2
_geom_bond_site_symmetry_1
_geom_bond_site_symmetry_2
Ag1 N3 1_555 1_555
Fe1 N1 1_555 1_555
N1 C1 1_555 1_555
N2 Fe1 1_555 1_555
N3 N2 1_555 1_555
N4 Ag1 1_555 1_555
N5 C6 1_555 1_555
N6 C13 1_555 1_555
C1 H1 1_555 1_555
C2 C1 1_555 1_555
H2 C2 1_555 1_555
C3 C2 1_555 1_555
H3 C3 1_555 1_555
C4 C3 1_555 1_555
H4 C4 1_555 1_555
C5 N1 1_555 1_555
C6 N2 1_555 1_555
C7 N3 1_555 1_555
C8 N4 1_555 1_555
C9 C8 1_555 1_555
H5 C9 1_555 1_555
C10 C9 1_555 1_555
H6 C10 1_555 1_555
C11 C10 1_555 1_555
H7 C11 1_555 1_555
C12 N4 1_555 1_555
H8 C12 1_555 1_555
C13 Ag1 1_555 1_555
Ag1A N3A 1_555 1_555
N1A Fe1 1_555 1_555
N2A Fe1 1_555 1_555
N3A N2A 1_555 1_555
N4A Ag1A 1_555 1_555
N5A C6A 1_555 1_555
N6A C13A 1_555 1_555
C1A N1A 1_555 1_555
H1A C1A 1_555 1_555
C2A C1A 1_555 1_555
H2A C2A 1_555 1_555
C3A C2A 1_555 1_555
H3A C3A 1_555 1_555
C4A C3A 1_555 1_555
H4A C4A 1_555 1_555
C5A N1A 1_555 1_555
C6A N2A 1_555 1_555
C7A N3A 1_555 1_555
C8A N4A 1_555 1_555
C9A C8A 1_555 1_555
H5A C9A 1_555 1_555
C10A C9A 1_555 1_555
H6A C10A 1_555 1_555
C11A C10A 1_555 1_555
H7A C11A 1_555 1_555
C12A N4A 1_555 1_555
H8A C12A 1_555 1_555
C13A Ag1A 1_555 1_555
Fe1D N6A 1_555 1_555
Fe1D_2 N6 1_555 1_555
N6D Fe1 1_555 1_555
N6E Fe1 1_555 1_555
N5 C7 1_555 1_555
C4 C5 1_555 1_555
C5 C6 1_555 1_555
C7 C8 1_555 1_555
C11 C12 1_555 1_555
N5A C7A 1_555 1_555
C4A C5A 1_555 1_555
C5A C6A 1_555 1_555
C7A C8A 1_555 1_555
C11A C12A 1_555 1_555

#END
