
#######################################################################
#
#                 Cambridge Crystallographic Data Centre
#                                CCDC 
#
#######################################################################
#
# If this CIF has been generated from an entry in the Cambridge 
# Structural Database, then it will include bibliographic, chemical, 
# crystal, experimental, refinement or atomic coordinate data resulting 
# from the CCDC's data processing and validation procedures.
#
#######################################################################

data_VOKSOF01
_symmetry_cell_setting           monoclinic
_symmetry_space_group_name_H-M   'C 2/c'
_symmetry_Int_Tables_number      15
_space_group_name_Hall           '-C 2yn'
loop_
_symmetry_equiv_pos_site_id
_symmetry_equiv_pos_as_xyz
1 x,y,z
2 -x,y,1/2-z
3 1/2+x,1/2+y,z
4 1/2-x,1/2+y,1/2-z
5 -x,-y,-z
6 x,-y,1/2+z
7 1/2-x,1/2-y,-z
8 1/2+x,1/2-y,1/2+z
_cell_length_a                   21.236(2)
_cell_length_b                   13.6005(12)
_cell_length_c                   12.9411(12)
_cell_angle_alpha                90
_cell_angle_beta                 112.208(2)
_cell_angle_gamma                90
_cell_volume                     3460.38
loop_
_atom_site_label
_atom_site_type_symbol
_atom_site_fract_x
_atom_site_fract_y
_atom_site_fract_z
Ag1 Ag 0.41360(3) 0.07674(4) 0.92518(5)
Fe1 Fe 0.5000 0.21580(8) 1.2500
N1 N 0.4422(3) 0.3361(3) 1.2925(4)
N2 N 0.4137(3) 0.2408(3) 1.1035(4)
N3 N 0.3865(3) 0.2038(3) 0.9975(4)
N4 N 0.3122(3) 0.1746(5) 0.7713(5)
N5 N 0.3227(3) 0.3332(3) 1.0036(4)
N6 N 0.4615(3) -0.1102(4) 0.8261(5)
C1 C 0.4580(4) 0.3733(6) 1.3957(6)
H1 H 0.4953 0.3473 1.4567
C2 C 0.4198(4) 0.4499(6) 1.4129(7)
H2 H 0.4310 0.4754 1.4860
C3 C 0.3668(4) 0.4886(6) 1.3268(7)
H3 H 0.3416 0.5418 1.3397
C4 C 0.3491(4) 0.4509(5) 1.2201(6)
C5 C 0.3888(3) 0.3716(4) 1.2077(5)
C6 C 0.3734(3) 0.3187(4) 1.1024(6)
C7 C 0.3333(3) 0.2605(4) 0.9424(5)
C8 C 0.2901(3) 0.2427(5) 0.8229(6)
C9 C 0.2305(3) 0.2971(5) 0.7683(6)
H4 H 0.2152 0.3458 0.8060
C10 C 0.1951(4) 0.2757(6) 0.6558(7)
H5 H 0.1545 0.3106 0.6153
C11 C 0.2173(4) 0.2068(6) 0.6038(7)
H6 H 0.1928 0.1926 0.5271
C12 C 0.2757(4) 0.1575(6) 0.6626(7)
H7 H 0.2913 0.1088 0.6252
C13 C 0.2899(6) 0.4950(7) 1.1229(8)
H8 H 0.2861 0.4622 1.0534
H9 H 0.2978 0.5654 1.1173
H10 H 0.2476 0.4856 1.1357
C14 C 0.4435(4) -0.0484(5) 0.8644(6)
Ag1A Ag 0.58640(3) 0.07674(4) 1.57482(5)
N1A N 0.5578(3) 0.3361(3) 1.2075(4)
N2A N 0.5863(3) 0.2408(3) 1.3965(4)
N3A N 0.6135(3) 0.2038(3) 1.5025(4)
N4A N 0.6878(3) 0.1746(5) 1.7287(5)
N5A N 0.6773(3) 0.3332(3) 1.4964(4)
N6A N 0.5385(3) -0.1102(4) 1.6739(5)
C1A C 0.5420(4) 0.3733(6) 1.1043(6)
H1A H 0.5047 0.3473 1.0433
C2A C 0.5802(4) 0.4499(6) 1.0871(7)
H2A H 0.5690 0.4754 1.0140
C3A C 0.6332(4) 0.4886(6) 1.1732(7)
H3A H 0.6584 0.5418 1.1603
C4A C 0.6509(4) 0.4509(5) 1.2799(6)
C5A C 0.6112(3) 0.3716(4) 1.2923(5)
C6A C 0.6266(3) 0.3187(4) 1.3976(6)
C7A C 0.6667(3) 0.2605(4) 1.5576(5)
C8A C 0.7099(3) 0.2427(5) 1.6771(6)
C9A C 0.7695(3) 0.2971(5) 1.7317(6)
H4A H 0.7848 0.3458 1.6940
C10A C 0.8049(4) 0.2757(6) 1.8442(7)
H5A H 0.8455 0.3106 1.8847
C11A C 0.7827(4) 0.2068(6) 1.8962(7)
H6A H 0.8072 0.1926 1.9729
C12A C 0.7243(4) 0.1575(6) 1.8374(7)
H7A H 0.7087 0.1088 1.8748
C13A C 0.7101(6) 0.4950(7) 1.3771(8)
H8A H 0.7139 0.4622 1.4466
H9A H 0.7022 0.5654 1.3827
H10A H 0.7524 0.4856 1.3643
C14A C 0.5565(4) -0.0484(5) 1.6356(6)
Fe1D Fe 0.5000 -0.21580(8) 0.7500
Fe1D_2 Fe 0.5000 -0.21580(8) 1.7500
N6D N 0.5385(3) 0.1102(4) 1.1739(5)
N6E N 0.4615(3) 0.1102(4) 1.3261(5)
loop_
_geom_bond_atom_site_label_1
_geom_bond_atom_site_label_2
_geom_bond_site_symmetry_1
_geom_bond_site_symmetry_2
Ag1 N3 1_555 1_555
Fe1 N1 1_555 1_555
N1 C1 1_555 1_555
N2 Fe1 1_555 1_555
N3 N2 1_555 1_555
N4 Ag1 1_555 1_555
N5 C6 1_555 1_555
N6 C14 1_555 1_555
C1 H1 1_555 1_555
C2 C1 1_555 1_555
H2 C2 1_555 1_555
C3 C2 1_555 1_555
H3 C3 1_555 1_555
C4 C3 1_555 1_555
C5 N1 1_555 1_555
C6 N2 1_555 1_555
C7 N3 1_555 1_555
C8 N4 1_555 1_555
C9 C8 1_555 1_555
H4 C9 1_555 1_555
C10 C9 1_555 1_555
H5 C10 1_555 1_555
C11 C10 1_555 1_555
H6 C11 1_555 1_555
C12 N4 1_555 1_555
H7 C12 1_555 1_555
C13 C4 1_555 1_555
H8 C13 1_555 1_555
H9 C13 1_555 1_555
H10 C13 1_555 1_555
C14 Ag1 1_555 1_555
Ag1A N3A 1_555 1_555
N1A Fe1 1_555 1_555
N2A Fe1 1_555 1_555
N3A N2A 1_555 1_555
N4A Ag1A 1_555 1_555
N5A C6A 1_555 1_555
N6A C14A 1_555 1_555
C1A N1A 1_555 1_555
H1A C1A 1_555 1_555
C2A C1A 1_555 1_555
H2A C2A 1_555 1_555
C3A C2A 1_555 1_555
H3A C3A 1_555 1_555
C4A C3A 1_555 1_555
C5A N1A 1_555 1_555
C6A N2A 1_555 1_555
C7A N3A 1_555 1_555
C8A N4A 1_555 1_555
C9A C8A 1_555 1_555
H4A C9A 1_555 1_555
C10A C9A 1_555 1_555
H5A C10A 1_555 1_555
C11A C10A 1_555 1_555
H6A C11A 1_555 1_555
C12A N4A 1_555 1_555
H7A C12A 1_555 1_555
C13A C4A 1_555 1_555
H8A C13A 1_555 1_555
H9A C13A 1_555 1_555
H10A C13A 1_555 1_555
C14A Ag1A 1_555 1_555
Fe1D N6 1_555 1_555
Fe1D_2 N6A 1_555 1_555
N6D Fe1 1_555 1_555
N6E Fe1 1_555 1_555
N5 C7 1_555 1_555
C4 C5 1_555 1_555
C5 C6 1_555 1_555
C7 C8 1_555 1_555
C11 C12 1_555 1_555
N5A C7A 1_555 1_555
C4A C5A 1_555 1_555
C5A C6A 1_555 1_555
C7A C8A 1_555 1_555
C11A C12A 1_555 1_555

#END
