
#######################################################################
#
#                 Cambridge Crystallographic Data Centre
#                                CCDC 
#
#######################################################################
#
# If this CIF has been generated from an entry in the Cambridge 
# Structural Database, then it will include bibliographic, chemical, 
# crystal, experimental, refinement or atomic coordinate data resulting 
# from the CCDC's data processing and validation procedures.
#
#######################################################################

data_VOKSOF
_symmetry_cell_setting           monoclinic
_symmetry_space_group_name_H-M   'C 2/c'
_symmetry_Int_Tables_number      15
_space_group_name_Hall           '-C 2yn'
loop_
_symmetry_equiv_pos_site_id
_symmetry_equiv_pos_as_xyz
1 x,y,z
2 -x,y,1/2-z
3 1/2+x,1/2+y,z
4 1/2-x,1/2+y,1/2-z
5 -x,-y,-z
6 x,-y,1/2+z
7 1/2-x,1/2-y,-z
8 1/2+x,1/2-y,1/2+z
_cell_length_a                   20.9431(15)
_cell_length_b                   13.3205(4)
_cell_length_c                   12.8167(9)
_cell_angle_alpha                90
_cell_angle_beta                 112.733(9)
_cell_angle_gamma                90
_cell_volume                     3297.75
loop_
_atom_site_label
_atom_site_type_symbol
_atom_site_fract_x
_atom_site_fract_y
_atom_site_fract_z
Ag1 Ag 0.41822(2) 0.06623(3) 0.93253(4)
Fe1 Fe 0.5000 0.22158(7) 1.2500
N1 N 0.4490(2) 0.3294(3) 1.2983(4)
N2 N 0.4173(2) 0.2368(3) 1.1102(4)
N3 N 0.3903(2) 0.1967(3) 1.0046(4)
N4 N 0.3163(3) 0.1693(4) 0.7726(4)
N5 N 0.3252(2) 0.3313(3) 1.0051(4)
N6 N 0.4615(2) -0.1199(3) 0.8151(4)
C1 C 0.4655(3) 0.3626(4) 1.4048(5)
H1 H 0.5037 0.3334 1.4645
C2 C 0.4282(3) 0.4380(4) 1.4295(6)
H2 H 0.4399 0.4595 1.5054
C3 C 0.3739(4) 0.4815(4) 1.3430(7)
H3 H 0.3491 0.5346 1.3598
C4 C 0.3538(3) 0.4493(4) 1.2289(6)
C5 C 0.3931(3) 0.3687(3) 1.2135(5)
C6 C 0.3768(3) 0.3167(3) 1.1065(5)
C7 C 0.3361(3) 0.2556(4) 0.9454(5)
C8 C 0.2934(3) 0.2384(4) 0.8260(5)
C9 C 0.2322(3) 0.2920(4) 0.7697(6)
H4 H 0.2160 0.3397 0.8088
C10 C 0.1951(3) 0.2735(4) 0.6532(6)
H5 H 0.1538 0.3095 0.6125
C11 C 0.2192(3) 0.2032(5) 0.5995(5)
H6 H 0.1952 0.1897 0.5212
C12 C 0.2788(4) 0.1531(5) 0.6615(6)
H7 H 0.2949 0.1036 0.6241
C13 C 0.2928(4) 0.4937(5) 1.1307(7)
H8 H 0.2887 0.4605 1.0601
H9 H 0.3003 0.5658 1.1251
H10 H 0.2501 0.4833 1.1437
C14 C 0.4434(3) -0.0574(4) 0.8599(5)
Ag1A Ag 0.58178(2) 0.06623(3) 1.56747(4)
N1A N 0.5510(2) 0.3294(3) 1.2017(4)
N2A N 0.5827(2) 0.2368(3) 1.3898(4)
N3A N 0.6097(2) 0.1967(3) 1.4954(4)
N4A N 0.6837(3) 0.1693(4) 1.7274(4)
N5A N 0.6748(2) 0.3313(3) 1.4949(4)
N6A N 0.5385(2) -0.1199(3) 1.6849(4)
C1A C 0.5345(3) 0.3626(4) 1.0952(5)
H1A H 0.4963 0.3334 1.0355
C2A C 0.5718(3) 0.4380(4) 1.0705(6)
H2A H 0.5601 0.4595 0.9946
C3A C 0.6261(4) 0.4815(4) 1.1570(7)
H3A H 0.6509 0.5346 1.1402
C4A C 0.6462(3) 0.4493(4) 1.2711(6)
C5A C 0.6069(3) 0.3687(3) 1.2865(5)
C6A C 0.6232(3) 0.3167(3) 1.3935(5)
C7A C 0.6639(3) 0.2556(4) 1.5546(5)
C8A C 0.7066(3) 0.2384(4) 1.6740(5)
C9A C 0.7678(3) 0.2920(4) 1.7303(6)
H4A H 0.7840 0.3397 1.6912
C10A C 0.8049(3) 0.2735(4) 1.8468(6)
H5A H 0.8462 0.3095 1.8875
C11A C 0.7808(3) 0.2032(5) 1.9005(5)
H6A H 0.8048 0.1897 1.9788
C12A C 0.7212(4) 0.1531(5) 1.8385(6)
H7A H 0.7051 0.1036 1.8759
C13A C 0.7072(4) 0.4937(5) 1.3693(7)
H8A H 0.7113 0.4605 1.4399
H9A H 0.6997 0.5658 1.3749
H10A H 0.7499 0.4833 1.3563
C14A C 0.5566(3) -0.0574(4) 1.6401(5)
Fe1D Fe 0.5000 -0.22158(7) 0.7500
Fe1D_2 Fe 0.5000 -0.22158(7) 1.7500
N6D N 0.5385(2) 0.1199(3) 1.1849(4)
N6E N 0.4615(2) 0.1199(3) 1.3151(4)
loop_
_geom_bond_atom_site_label_1
_geom_bond_atom_site_label_2
_geom_bond_site_symmetry_1
_geom_bond_site_symmetry_2
Ag1 N3 1_555 1_555
Fe1 N1 1_555 1_555
N1 C1 1_555 1_555
N2 Fe1 1_555 1_555
N3 N2 1_555 1_555
N4 Ag1 1_555 1_555
N5 C6 1_555 1_555
N6 C14 1_555 1_555
C1 H1 1_555 1_555
C2 C1 1_555 1_555
H2 C2 1_555 1_555
C3 C2 1_555 1_555
H3 C3 1_555 1_555
C4 C3 1_555 1_555
C5 N1 1_555 1_555
C6 N2 1_555 1_555
C7 N3 1_555 1_555
C8 N4 1_555 1_555
C9 C8 1_555 1_555
H4 C9 1_555 1_555
C10 C9 1_555 1_555
H5 C10 1_555 1_555
C11 C10 1_555 1_555
H6 C11 1_555 1_555
C12 N4 1_555 1_555
H7 C12 1_555 1_555
C13 C4 1_555 1_555
H8 C13 1_555 1_555
H9 C13 1_555 1_555
H10 C13 1_555 1_555
C14 Ag1 1_555 1_555
Ag1A N3A 1_555 1_555
N1A Fe1 1_555 1_555
N2A Fe1 1_555 1_555
N3A N2A 1_555 1_555
N4A Ag1A 1_555 1_555
N5A C6A 1_555 1_555
N6A C14A 1_555 1_555
C1A N1A 1_555 1_555
H1A C1A 1_555 1_555
C2A C1A 1_555 1_555
H2A C2A 1_555 1_555
C3A C2A 1_555 1_555
H3A C3A 1_555 1_555
C4A C3A 1_555 1_555
C5A N1A 1_555 1_555
C6A N2A 1_555 1_555
C7A N3A 1_555 1_555
C8A N4A 1_555 1_555
C9A C8A 1_555 1_555
H4A C9A 1_555 1_555
C10A C9A 1_555 1_555
H5A C10A 1_555 1_555
C11A C10A 1_555 1_555
H6A C11A 1_555 1_555
C12A N4A 1_555 1_555
H7A C12A 1_555 1_555
C13A C4A 1_555 1_555
H8A C13A 1_555 1_555
H9A C13A 1_555 1_555
H10A C13A 1_555 1_555
C14A Ag1A 1_555 1_555
Fe1D N6 1_555 1_555
Fe1D_2 N6A 1_555 1_555
N6D Fe1 1_555 1_555
N6E Fe1 1_555 1_555
N5 C7 1_555 1_555
C4 C5 1_555 1_555
C5 C6 1_555 1_555
C7 C8 1_555 1_555
C11 C12 1_555 1_555
N5A C7A 1_555 1_555
C4A C5A 1_555 1_555
C5A C6A 1_555 1_555
C7A C8A 1_555 1_555
C11A C12A 1_555 1_555

#END
