
#######################################################################
#
#                 Cambridge Crystallographic Data Centre
#                                CCDC 
#
#######################################################################
#
# If this CIF has been generated from an entry in the Cambridge 
# Structural Database, then it will include bibliographic, chemical, 
# crystal, experimental, refinement or atomic coordinate data resulting 
# from the CCDC's data processing and validation procedures.
#
#######################################################################

data_VOKTUM
_symmetry_cell_setting           triclinic
_symmetry_space_group_name_H-M   'P -1'
_symmetry_Int_Tables_number      2
_space_group_name_Hall           '-P 1'
loop_
_symmetry_equiv_pos_site_id
_symmetry_equiv_pos_as_xyz
1 x,y,z
2 -x,-y,-z
_cell_length_a                   14.4580(11)
_cell_length_b                   14.7080(11)
_cell_length_c                   15.9930(13)
_cell_angle_alpha                89.0220(10)
_cell_angle_beta                 85.0310(10)
_cell_angle_gamma                68.6280(10)
_cell_volume                     3154.73
loop_
_atom_site_label
_atom_site_type_symbol
_atom_site_fract_x
_atom_site_fract_y
_atom_site_fract_z
N9 N 0.8812(6) -0.3635(5) -0.1608(4)
O9 O 0.8629(6) -0.4377(5) -0.1424(4)
O10 O 0.8181(6) -0.2864(4) -0.1749(5)
O11 O 0.9699(6) -0.3722(7) -0.1692(5)
O12 O 0.8984(5) -0.0560(5) -0.3133(3)
N10 N 0.9754(6) 0.0323(5) -0.3803(5)
C53 C 1.0758(8) -0.1031(8) -0.3063(7)
H46 H 1.1264 -0.0787 -0.3274
H47 H 1.0921 -0.1682 -0.3274
H48 H 1.0721 -0.1036 -0.2461
C54 C 1.0636(8) 0.0584(8) -0.4058(6)
H49 H 1.0445 0.1140 -0.4417
H50 H 1.1141 0.0042 -0.4353
H51 H 1.0891 0.0739 -0.3567
C55 C 0.9758(8) -0.0376(6) -0.3348(5)
C56 C 0.8790(9) 0.1027(7) -0.4025(7)
H52 H 0.8900 0.1518 -0.4379
H53 H 0.8389 0.1328 -0.3523
H54 H 0.8452 0.0693 -0.4319
O13 O 0.6061(7) -0.5396(7) -0.1648(6)
N11 N 0.5692(10) -0.6400(11) -0.0819(8)
C57 C 0.6131(12) -0.5909(11) -0.1013(10)
C58 C 0.6928(10) -0.5945(12) -0.0409(8)
H55 H 0.7244 -0.5495 -0.0592
H56 H 0.7420 -0.6594 -0.0410
H57 H 0.6614 -0.5768 0.0149
C59 C 0.4855(11) -0.6366(13) -0.1438(12)
H58 H 0.4543 -0.6817 -0.1249
H59 H 0.5163 -0.6544 -0.1998
H60 H 0.4362 -0.5718 -0.1435
C60 C 0.5795(12) -0.7056(14) -0.0086(9)
H61 H 0.5336 -0.7389 -0.0100
H62 H 0.5652 -0.6675 0.0424
H63 H 0.6464 -0.7525 -0.0108
Tb1 Tb 0.112620(16) 0.043590(17) 0.023846(15)
Eu1 Eu 0.112620(16) 0.043590(17) 0.023846(15)
Cd1 Cd 0.70072(2) -0.34639(3) -0.52749(2)
Cl1 Cl 0.71594(13) -0.34662(14) -0.67901(9)
O1 O 1.0030(3) -0.9460(3) -0.0816(2)
O2 O 0.0444(3) -0.1543(3) -0.0845(3)
O3 O 0.1667(3) -0.1152(3) -0.0392(2)
N1 N 0.9389(3) -0.5593(3) -0.3968(3)
O4 O 0.2203(3) 0.0360(3) -0.1060(3)
O5 O 0.1489(3) 0.1090(3) 0.1518(2)
N2 N 0.4649(3) -0.4115(3) -0.3824(3)
N3 N 0.6943(3) -0.3610(3) -0.3672(3)
C1 C 0.9531(4) -0.8233(4) -0.1846(3)
N4 N 0.6766(3) -0.1988(3) -0.4707(3)
C2 C 0.4699(3) -0.3555(3) -0.5122(3)
O6 O 0.1199(3) 0.1979(3) -0.0055(3)
C3 C 0.3961(4) -0.0172(4) -0.1192(4)
C4 C 1.0495(4) -0.7012(4) -0.4925(4)
H1 H 1.0928 -0.7355 -0.4534
C5 C 0.1329(4) -0.1620(4) -0.0847(3)
N5 N 0.5587(3) -0.3671(3) -0.4791(3)
C6 C 0.2080(4) -0.2359(3) -0.1440(3)
C7 C 0.9761(4) -0.6683(4) -0.2758(3)
N6 N 0.8340(3) -0.4767(3) -0.4895(3)
C8 C 0.3523(3) -0.3740(3) -0.2507(3)
C9 C 0.2637(4) -0.3858(4) -0.2246(3)
H2 H 0.2523 -0.4404 -0.2425
C10 C 0.6471(4) -0.2621(4) -0.3296(3)
H3 H 0.6747 -0.2595 -0.2769
H4 H 0.5759 -0.2466 -0.3182
N7 N 0.6639(3) -0.1023(3) -0.3627(3)
C11 C 0.4099(3) -0.3827(3) -0.4513(3)
C12 C 1.0582(4) -0.7340(4) -0.5729(4)
H5 H 1.1083 -0.7931 -0.5891
C13 C 0.5530(3) -0.4010(3) -0.4020(3)
C14 C 0.9063(3) -0.5597(3) -0.5299(3)
C15 C 0.6694(4) -0.0729(5) -0.2759(4)
H6 H 0.6853 -0.0143 -0.2773
H7 H 0.7227 -0.1241 -0.2510
C16 C 0.6679(4) -0.0485(4) -0.4348(4)
C17 C 0.3139(4) -0.3759(4) -0.4655(4)
H8 H 0.2733 -0.3930 -0.4250
C18 C 0.9706(4) -0.6116(4) -0.4723(3)
C19 C 0.2964(4) -0.2235(4) -0.1716(4)
H9 H 0.3076 -0.1687 -0.1542
C20 C 0.8567(3) -0.4809(3) -0.4114(3)
C21 C 0.5734(4) -0.0539(4) -0.2220(4)
C22 C 0.4855(5) -0.0708(6) -0.0908(4)
H10 H 0.4875 -0.0962 -0.0371
C23 C 0.6654(3) -0.1893(4) -0.3889(3)
C24 C 0.9384(4) -0.9026(4) -0.1327(3)
C25 C 0.6347(4) -0.4227(4) -0.3452(3)
H11 H 0.6065 -0.4098 -0.2874
H12 H 0.6772 -0.4911 -0.3507
C26 C 0.4327(4) -0.4506(4) -0.3056(3)
H13 H 0.4898 -0.4813 -0.2737
H14 H 0.4078 -0.5006 -0.3205
C27 C 0.1916(4) -0.3174(4) -0.1720(3)
H15 H 0.1320 -0.3260 -0.1554
C28 C 0.7985(3) -0.4078(4) -0.3453(3)
H16 H 0.8280 -0.3587 -0.3408
H17 H 0.7996 -0.4396 -0.2916
C29 C 0.6763(4) -0.1092(4) -0.5017(4)
C30 C 0.9905(4) -0.5833(4) -0.3190(4)
H18 H 0.9652 -0.5270 -0.2813
H19 H 1.0612 -0.5979 -0.3325
C31 C 0.3675(4) -0.2914(4) -0.2243(4)
H20 H 0.4261 -0.2818 -0.2424
C32 C 0.3408(4) -0.3156(4) -0.6036(4)
H21 H 0.3157 -0.2927 -0.6546
C33 C 0.8709(4) -0.7510(4) -0.2140(4)
H22 H 0.8081 -0.7550 -0.2045
N8 N 0.1641(6) 0.3170(5) -0.0592(4)
C34 C 0.9939(4) -0.6813(4) -0.6320(4)
H23 H 1.0034 -0.7063 -0.6865
C35 C 0.8818(5) -0.6733(5) -0.2573(4)
H24 H 0.8258 -0.6236 -0.2744
C36 C 0.4372(4) -0.3224(4) -0.5896(3)
H25 H 0.4774 -0.3054 -0.6306
C37 C 1.0468(4) -0.8200(4) -0.2029(3)
H26 H 1.1023 -0.8695 -0.1847
C38 C 0.1423(8) 0.4158(5) -0.0911(6)
H27 H 0.2037 0.4248 -0.1084
H28 H 0.1059 0.4626 -0.0477
H29 H 0.1031 0.4250 -0.1382
C39 C 0.9169(4) -0.5935(4) -0.6125(3)
H30 H 0.8746 -0.5588 -0.6522
C40 C 1.0586(4) -0.7437(4) -0.2480(3)
H31 H 1.1221 -0.7422 -0.2601
O7 O 0.2974(3) -0.0110(3) 0.0097(2)
C41 C 0.4835(5) 0.0013(6) -0.2510(4)
H32 H 0.4814 0.0275 -0.3045
C42 C 0.2825(4) -0.3424(4) -0.5429(4)
H33 H 0.2190 -0.3377 -0.5547
C43 C 0.6589(6) 0.0486(5) -0.4437(5)
H34 H 0.6503 0.0898 -0.3979
C44 C 0.6744(6) 0.0182(5) -0.5927(5)
H35 H 0.6764 0.0427 -0.6466
C45 C 0.6824(5) -0.0789(5) -0.5828(4)
H36 H 0.6913 -0.1204 -0.6285
C46 C 0.0992(7) 0.2816(5) -0.0320(4)
C47 C 0.2704(7) 0.2523(7) -0.0533(7)
H37 H 0.3133 0.2852 -0.0758
H38 H 0.2845 0.1931 -0.0847
H39 H 0.2817 0.2371 0.0044
C48 C 0.3952(5) 0.0181(6) -0.1998(4)
H40 H 0.3345 0.0539 -0.2206
C49 C 0.6637(7) 0.0791(5) -0.5242(5)
H41 H 0.6597 0.1429 -0.5337
C50 C 0.5747(5) -0.0886(6) -0.1412(5)
H42 H 0.6352 -0.1239 -0.1200
C51 C -0.0117(6) 0.3470(6) -0.0335(5)
H43 H -0.0169 0.4097 -0.0554
H44 H -0.0437 0.3549 0.0225
H45 H -0.0436 0.3170 -0.0686
O8 O 0.8648(3) -0.9261(3) -0.1388(2)
C52 C 0.2994(4) 0.0037(4) -0.0686(3)
Tb1_2 Tb 1.112620(16) -0.956410(17) 0.023846(15)
Tb1A Tb -0.112620(16) -0.043590(17) -0.023846(15)
Tb1A_2 Tb 0.887380(16) -1.043590(17) -0.023846(15)
Eu1_2 Eu 1.112620(16) -0.956410(17) 0.023846(15)
Eu1A Eu -0.112620(16) -0.043590(17) -0.023846(15)
Eu1A_2 Eu 0.887380(16) -1.043590(17) -0.023846(15)
O1_2 O 0.0030(3) 0.0540(3) -0.0816(2)
O1A O -0.0030(3) -0.0540(3) 0.0816(2)
O2A O -0.0444(3) 0.1543(3) 0.0845(3)
O8A O 0.1352(3) -0.0739(3) 0.1388(2)
loop_
_geom_bond_atom_site_label_1
_geom_bond_atom_site_label_2
_geom_bond_site_symmetry_1
_geom_bond_site_symmetry_2
Tb1 O3 1_555 1_555
Eu1 O3 1_555 1_555
Cd1 Cl1 1_555 1_555
O1 C24 1_555 1_555
O2 C5 1_555 1_555
O3 C5 1_555 1_555
N1 C18 1_555 1_555
O4 Tb1 1_555 1_555
O5 Tb1 1_555 1_555
N2 C11 1_555 1_555
N3 Cd1 1_555 1_555
C1 C24 1_555 1_555
N4 Cd1 1_555 1_555
C2 N5 1_555 1_555
O6 Tb1 1_555 1_555
C3 C22 1_555 1_555
C4 H1 1_555 1_555
C5 C6 1_555 1_555
N5 Cd1 1_555 1_555
C6 C19 1_555 1_555
C7 C30 1_555 1_555
N6 Cd1 1_555 1_555
C8 C9 1_555 1_555
C9 H2 1_555 1_555
C10 N3 1_555 1_555
H3 C10 1_555 1_555
H4 C10 1_555 1_555
N7 C15 1_555 1_555
C11 C2 1_555 1_555
C12 C4 1_555 1_555
H5 C12 1_555 1_555
C13 N2 1_555 1_555
C14 N6 1_555 1_555
C15 H6 1_555 1_555
H7 C15 1_555 1_555
C16 N7 1_555 1_555
C17 C11 1_555 1_555
H8 C17 1_555 1_555
C18 C4 1_555 1_555
C19 H9 1_555 1_555
C20 N1 1_555 1_555
C21 C15 1_555 1_555
C22 H10 1_555 1_555
C23 N4 1_555 1_555
C24 O8 1_555 1_555
C25 N3 1_555 1_555
H11 C25 1_555 1_555
H12 C25 1_555 1_555
C26 N2 1_555 1_555
H13 C26 1_555 1_555
H14 C26 1_555 1_555
C27 C6 1_555 1_555
H15 C27 1_555 1_555
C28 N3 1_555 1_555
H16 C28 1_555 1_555
H17 C28 1_555 1_555
C29 N4 1_555 1_555
C30 N1 1_555 1_555
H18 C30 1_555 1_555
H19 C30 1_555 1_555
C31 C8 1_555 1_555
H20 C31 1_555 1_555
C32 H21 1_555 1_555
C33 C1 1_555 1_555
H22 C33 1_555 1_555
N8 C38 1_555 1_555
C34 C12 1_555 1_555
H23 C34 1_555 1_555
C35 C7 1_555 1_555
H24 C35 1_555 1_555
C36 C2 1_555 1_555
H25 C36 1_555 1_555
C37 C1 1_555 1_555
H26 C37 1_555 1_555
C38 H27 1_555 1_555
H28 C38 1_555 1_555
H29 C38 1_555 1_555
C39 C14 1_555 1_555
H30 C39 1_555 1_555
C40 C7 1_555 1_555
H31 C40 1_555 1_555
O7 Tb1 1_555 1_555
C41 C21 1_555 1_555
H32 C41 1_555 1_555
C42 C17 1_555 1_555
H33 C42 1_555 1_555
C43 C16 1_555 1_555
H34 C43 1_555 1_555
C44 H35 1_555 1_555
C45 C29 1_555 1_555
H36 C45 1_555 1_555
C46 O6 1_555 1_555
C47 N8 1_555 1_555
H37 C47 1_555 1_555
H38 C47 1_555 1_555
H39 C47 1_555 1_555
C48 C3 1_555 1_555
H40 C48 1_555 1_555
C49 C43 1_555 1_555
H41 C49 1_555 1_555
C50 C21 1_555 1_555
H42 C50 1_555 1_555
C51 C46 1_555 1_555
H43 C51 1_555 1_555
H44 C51 1_555 1_555
H45 C51 1_555 1_555
O8 Tb1A_2 1_555 1_555
C52 O4 1_555 1_555
N9 O9 1_555 1_555
O10 N9 1_555 1_555
O11 N9 1_555 1_555
O12 C55 1_555 1_555
N10 C54 1_555 1_555
C53 H46 1_555 1_555
H47 C53 1_555 1_555
H48 C53 1_555 1_555
C54 H49 1_555 1_555
H50 C54 1_555 1_555
H51 C54 1_555 1_555
C55 N10 1_555 1_555
C56 N10 1_555 1_555
H52 C56 1_555 1_555
H53 C56 1_555 1_555
H54 C56 1_555 1_555
O13 C57 1_555 1_555
N11 C57 1_555 1_555
C57 C58 1_555 1_555
C58 H55 1_555 1_555
H56 C58 1_555 1_555
H57 C58 1_555 1_555
C59 N11 1_555 1_555
H58 C59 1_555 1_555
H59 C59 1_555 1_555
H60 C59 1_555 1_555
C60 N11 1_555 1_555
H61 C60 1_555 1_555
H62 C60 1_555 1_555
H63 C60 1_555 1_555
Tb1_2 O1 1_555 1_555
Tb1A O2 1_555 1_555
Tb1A_2 O1 1_555 1_555
Eu1_2 O1 1_555 1_555
Eu1A O2 1_555 1_555
Eu1A_2 O1 1_555 1_555
O1_2 Tb1 1_555 1_555
O1A Tb1 1_555 1_555
O2A Tb1 1_555 1_555
O8A Tb1 1_555 1_555
Eu1 O4 1_555 1_555
Eu1 O5 1_555 1_555
Eu1 O6 1_555 1_555
Eu1 O7 1_555 1_555
Eu1 O1_2 1_555 1_555
Eu1 O1A 1_555 1_555
Eu1 O2A 1_555 1_555
Eu1 O8A 1_555 1_555
C3 C52 1_555 1_555
N5 C13 1_555 1_555
N6 C20 1_555 1_555
C8 C26 1_555 1_555
C9 C27 1_555 1_555
C10 C23 1_555 1_555
N7 C23 1_555 1_555
C13 C25 1_555 1_555
C14 C18 1_555 1_555
C16 C29 1_555 1_555
C19 C31 1_555 1_555
C20 C28 1_555 1_555
C22 C50 1_555 1_555
C32 C36 1_555 1_555
C32 C42 1_555 1_555
C33 C35 1_555 1_555
N8 C46 1_555 1_555
C34 C39 1_555 1_555
C37 C40 1_555 1_555
O7 C52 1_555 1_555
C41 C48 1_555 1_555
C44 C45 1_555 1_555
C44 C49 1_555 1_555
O8 Eu1A_2 1_555 1_555
C53 C55 1_555 1_555
Tb1A O1_2 1_555 1_555
Tb1A O1A 1_555 1_555
Eu1A O1_2 1_555 1_555
Eu1A O1A 1_555 1_555

#END
