
#######################################################################
#
#                 Cambridge Crystallographic Data Centre
#                                CCDC 
#
#######################################################################
#
# If this CIF has been generated from an entry in the Cambridge 
# Structural Database, then it will include bibliographic, chemical, 
# crystal, experimental, refinement or atomic coordinate data resulting 
# from the CCDC's data processing and validation procedures.
#
#######################################################################

data_VOKTOG
_symmetry_cell_setting           triclinic
_symmetry_space_group_name_H-M   'P -1'
_symmetry_Int_Tables_number      2
_space_group_name_Hall           '-P 1'
loop_
_symmetry_equiv_pos_site_id
_symmetry_equiv_pos_as_xyz
1 x,y,z
2 -x,-y,-z
_cell_length_a                   14.4460(11)
_cell_length_b                   14.7170(11)
_cell_length_c                   16.0500(12)
_cell_angle_alpha                89.0180(10)
_cell_angle_beta                 85.0270(10)
_cell_angle_gamma                68.4380(10)
_cell_volume                     3161.13
loop_
_atom_site_label
_atom_site_type_symbol
_atom_site_fract_x
_atom_site_fract_y
_atom_site_fract_z
N9 N 0.8846(4) -0.3649(3) -0.1618(3)
O9 O 0.9729(4) -0.3737(6) -0.1698(4)
O10 O 0.8640(5) -0.4368(3) -0.1445(4)
O11 O 0.8193(4) -0.2862(3) -0.1751(4)
O12 O 0.8982(4) -0.0548(4) -0.3129(3)
N10 N 0.9765(5) 0.0324(4) -0.3811(4)
C53 C 1.0642(7) 0.0564(6) -0.4048(5)
H46 H 1.0465 0.1116 -0.4412
H47 H 1.1150 0.0014 -0.4334
H48 H 1.0890 0.0721 -0.3556
C54 C 0.9748(6) -0.0373(5) -0.3337(4)
C55 C 1.0760(7) -0.1039(6) -0.3071(6)
H49 H 1.1263 -0.0793 -0.3282
H50 H 1.0919 -0.1686 -0.3292
H51 H 1.0734 -0.1059 -0.2471
C56 C 0.8826(8) 0.1029(6) -0.4023(6)
H52 H 0.8944 0.1512 -0.4380
H53 H 0.8434 0.1340 -0.3521
H54 H 0.8473 0.0706 -0.4308
C57 C 0.5647(9) -0.6376(9) -0.0789(8)
C58 C 0.6057(6) -0.5372(6) -0.1645(5)
H55 H 0.6525 -0.5048 -0.1639
H56 H 0.5391 -0.4893 -0.1638
H57 H 0.6204 -0.5771 -0.2142
O13 O 0.4826(11) -0.6284(13) -0.1366(11)
C59 C 0.5798(12) -0.7023(13) -0.0060(9)
H58 H 0.5348 -0.7368 -0.0048
H59 H 0.5672 -0.6639 0.0444
H60 H 0.6474 -0.7484 -0.0101
N11 N 0.6128(9) -0.5925(11) -0.0983(9)
C60 C 0.6991(9) -0.5952(12) -0.0418(8)
H61 H 0.6975 -0.6341 0.0065
H62 H 0.6890 -0.5300 -0.0244
H63 H 0.7627 -0.6232 -0.0735
Tb1 Tb 0.112878(12) 0.042932(12) 0.023874(11)
Cd1 Cd 0.700545(19) -0.34643(2) -0.527570(17)
Cl1 Cl 0.71640(11) -0.34695(12) -0.67861(7)
O1 O 0.8645(2) -0.9249(2) -0.13832(19)
O2 O 1.0027(2) -0.9449(2) -0.08106(17)
O3 O 0.2212(2) 0.0360(3) -0.1058(2)
O4 O 0.1671(2) -0.1148(2) -0.03955(19)
N1 N 0.6946(2) -0.3612(2) -0.3677(2)
O5 O 0.1493(2) 0.1074(2) 0.15130(18)
N2 N 0.4647(2) -0.4116(2) -0.3823(2)
N3 N 0.9393(2) -0.5601(2) -0.3974(2)
C1 C 0.4694(3) -0.3558(3) -0.5117(3)
N4 N 0.5594(2) -0.3676(2) -0.4792(2)
N5 N 0.6755(3) -0.1985(2) -0.4714(2)
O6 O 0.1199(3) 0.1970(2) -0.0050(2)
N6 N 0.6638(3) -0.1022(3) -0.3629(2)
C2 C 0.1331(3) -0.1616(3) -0.0852(3)
C3 C 0.5535(3) -0.4003(3) -0.4030(2)
C4 C 0.2643(3) -0.3860(3) -0.2251(3)
H1 H 0.2531 -0.4408 -0.2423
C5 C 0.9769(3) -0.6690(3) -0.2759(3)
C6 C 1.0586(3) -0.7437(3) -0.2480(3)
H2 H 1.1223 -0.7424 -0.2602
C7 C 1.0471(3) -0.8203(3) -0.2022(3)
H3 H 1.1026 -0.8694 -0.1834
C8 C 0.9530(3) -0.8234(3) -0.1846(2)
C9 C 0.8703(3) -0.7506(3) -0.2139(3)
H4 H 0.8072 -0.7538 -0.2036
C10 C 0.3528(3) -0.3740(3) -0.2516(2)
N7 N 0.8349(2) -0.4771(2) -0.4895(2)
C11 C 0.6672(3) -0.0479(3) -0.4347(3)
C12 C 0.3135(3) -0.3763(3) -0.4658(3)
H5 H 0.2731 -0.3936 -0.4254
C13 C 0.2081(3) -0.2359(3) -0.1448(2)
C14 C 0.6478(3) -0.2625(3) -0.3308(3)
H6 H 0.6754 -0.2599 -0.2783
H7 H 0.5765 -0.2467 -0.3194
C15 C 0.8818(3) -0.6735(3) -0.2583(3)
H8 H 0.8260 -0.6242 -0.2766
C16 C 0.9720(3) -0.6126(3) -0.4727(3)
C17 C 1.0491(3) -0.7011(3) -0.4925(3)
H9 H 1.0922 -0.7359 -0.4534
C18 C 1.0578(3) -0.7341(3) -0.5731(4)
H10 H 1.1081 -0.7935 -0.5891
C19 C 0.9942(4) -0.6819(3) -0.6320(3)
H11 H 1.0031 -0.7069 -0.6862
C20 C 0.9177(3) -0.5936(3) -0.6115(3)
H12 H 0.8755 -0.5584 -0.6510
C21 C 0.4097(3) -0.3826(3) -0.4516(3)
C22 C 0.6743(5) 0.0185(4) -0.5939(4)
H13 H 0.6781 0.0422 -0.6477
C23 C 0.4327(3) -0.4512(3) -0.3058(3)
H14 H 0.4901 -0.4822 -0.2740
H15 H 0.4075 -0.5009 -0.3205
C24 C 0.6759(3) -0.1096(3) -0.5022(3)
C25 C 0.1917(3) -0.3162(3) -0.1727(3)
H16 H 0.1317 -0.3239 -0.1565
C26 C 0.8568(3) -0.4814(3) -0.4115(2)
C27 C 0.6699(3) -0.0745(4) -0.2767(3)
H17 H 0.6869 -0.0165 -0.2775
H18 H 0.7229 -0.1267 -0.2523
C28 C 0.6352(3) -0.4220(3) -0.3456(2)
H19 H 0.6066 -0.4085 -0.2882
H20 H 0.6778 -0.4906 -0.3506
C29 C 0.3411(3) -0.3168(3) -0.6031(3)
H21 H 0.3162 -0.2948 -0.6542
C30 C 0.2966(3) -0.2235(3) -0.1712(3)
H22 H 0.3084 -0.1695 -0.1528
C31 C 0.7982(3) -0.4077(3) -0.3457(3)
H23 H 0.7993 -0.4392 -0.2920
H24 H 0.8278 -0.3587 -0.3414
C32 C 0.2820(3) -0.3432(4) -0.5424(4)
H25 H 0.2184 -0.3382 -0.5541
C33 C 0.6606(5) 0.0475(4) -0.4448(4)
H26 H 0.6554 0.0880 -0.3994
C34 C 0.6659(3) -0.1897(3) -0.3896(3)
C35 C 0.3679(3) -0.2918(3) -0.2253(3)
H27 H 0.4263 -0.2821 -0.2439
C36 C 0.0992(5) 0.2808(4) -0.0318(3)
C37 C 0.9906(3) -0.5842(3) -0.3205(3)
H28 H 0.9657 -0.5275 -0.2833
H29 H 1.0614 -0.5991 -0.3343
C38 C 0.9381(3) -0.9017(3) -0.1315(2)
C39 C 0.4367(3) -0.3225(3) -0.5897(3)
H30 H 0.4766 -0.3050 -0.6304
N8 N 0.1636(5) 0.3169(4) -0.0587(4)
C40 C 0.5735(3) -0.0544(3) -0.2229(3)
C41 C 0.4832(4) 0.0003(5) -0.2506(4)
H31 H 0.4807 0.0256 -0.3043
C42 C 0.3952(4) 0.0187(5) -0.2004(4)
H32 H 0.3345 0.0560 -0.2206
C43 C 0.3969(3) -0.0176(3) -0.1211(3)
C44 C 0.4860(4) -0.0717(5) -0.0917(3)
H33 H 0.4881 -0.0967 -0.0379
C45 C 0.5741(4) -0.0893(5) -0.1428(4)
H34 H 0.6349 -0.1255 -0.1223
C46 C 0.3000(3) 0.0028(3) -0.0684(3)
C47 C 0.6622(6) 0.0795(4) -0.5257(5)
H35 H 0.6549 0.1443 -0.5350
C48 C -0.0105(5) 0.3466(4) -0.0345(4)
H36 H -0.0148 0.4091 -0.0562
H37 H -0.0435 0.3551 0.0210
H38 H -0.0421 0.3171 -0.0699
C49 C 0.6810(4) -0.0785(4) -0.5832(3)
H39 H 0.6884 -0.1197 -0.6287
C50 C 0.2708(5) 0.2530(6) -0.0519(6)
H40 H 0.3133 0.2861 -0.0747
H41 H 0.2860 0.1931 -0.0826
H42 H 0.2819 0.2389 0.0058
C51 C 0.1434(7) 0.4145(5) -0.0920(6)
H43 H 0.2053 0.4224 -0.1089
H44 H 0.1064 0.4625 -0.0497
H45 H 0.1049 0.4230 -0.1394
O7 O 0.2984(2) -0.0126(2) 0.0090(2)
O8 O 0.0439(2) -0.1535(2) -0.0843(2)
C52 C 0.9065(3) -0.5596(3) -0.5303(2)
Tb1_2 Tb 1.112878(12) -0.957068(12) 0.023874(11)
Tb1A Tb -0.112878(12) -0.042932(12) -0.023874(11)
Tb1A_2 Tb 0.887122(12) -1.042932(12) -0.023874(11)
O1A O 0.1355(2) -0.0751(2) 0.13832(19)
O2_2 O 0.0027(2) 0.0551(2) -0.08106(17)
O2A O -0.0027(2) -0.0551(2) 0.08106(17)
O8A O -0.0439(2) 0.1535(2) 0.0843(2)
Eu1? Eu 0.112878(12) 0.042932(12) 0.023874(11)
loop_
_geom_bond_atom_site_label_1
_geom_bond_atom_site_label_2
_geom_bond_site_symmetry_1
_geom_bond_site_symmetry_2
Tb1 O3 1_555 1_555
Cd1 Cl1 1_555 1_555
O1 C38 1_555 1_555
O2 C38 1_555 1_555
O3 C46 1_555 1_555
O4 Tb1 1_555 1_555
N1 Cd1 1_555 1_555
O5 Tb1 1_555 1_555
N2 C3 1_555 1_555
N3 C16 1_555 1_555
C1 N4 1_555 1_555
N4 Cd1 1_555 1_555
N5 Cd1 1_555 1_555
O6 Tb1 1_555 1_555
N6 C11 1_555 1_555
C2 O4 1_555 1_555
C3 N4 1_555 1_555
C4 H1 1_555 1_555
C5 C6 1_555 1_555
C6 H2 1_555 1_555
C7 C6 1_555 1_555
H3 C7 1_555 1_555
C8 C7 1_555 1_555
C9 C8 1_555 1_555
H4 C9 1_555 1_555
C10 C4 1_555 1_555
N7 Cd1 1_555 1_555
C11 C24 1_555 1_555
C12 H5 1_555 1_555
C13 C2 1_555 1_555
C14 N1 1_555 1_555
H6 C14 1_555 1_555
H7 C14 1_555 1_555
C15 C5 1_555 1_555
H8 C15 1_555 1_555
C16 C17 1_555 1_555
C17 H9 1_555 1_555
C18 C17 1_555 1_555
H10 C18 1_555 1_555
C19 C18 1_555 1_555
H11 C19 1_555 1_555
C20 C19 1_555 1_555
H12 C20 1_555 1_555
C21 N2 1_555 1_555
C22 H13 1_555 1_555
C23 N2 1_555 1_555
H14 C23 1_555 1_555
H15 C23 1_555 1_555
C24 N5 1_555 1_555
C25 C4 1_555 1_555
H16 C25 1_555 1_555
C26 N3 1_555 1_555
C27 N6 1_555 1_555
H17 C27 1_555 1_555
H18 C27 1_555 1_555
C28 N1 1_555 1_555
H19 C28 1_555 1_555
H20 C28 1_555 1_555
C29 H21 1_555 1_555
C30 C13 1_555 1_555
H22 C30 1_555 1_555
C31 N1 1_555 1_555
H23 C31 1_555 1_555
H24 C31 1_555 1_555
C32 C12 1_555 1_555
H25 C32 1_555 1_555
C33 C11 1_555 1_555
H26 C33 1_555 1_555
C34 N5 1_555 1_555
C35 C10 1_555 1_555
H27 C35 1_555 1_555
C36 O6 1_555 1_555
C37 N3 1_555 1_555
H28 C37 1_555 1_555
H29 C37 1_555 1_555
C38 C8 1_555 1_555
C39 C1 1_555 1_555
H30 C39 1_555 1_555
N8 C36 1_555 1_555
C40 C27 1_555 1_555
C41 C40 1_555 1_555
H31 C41 1_555 1_555
C42 C41 1_555 1_555
H32 C42 1_555 1_555
C43 C42 1_555 1_555
C44 C43 1_555 1_555
H33 C44 1_555 1_555
C45 C40 1_555 1_555
H34 C45 1_555 1_555
C46 C43 1_555 1_555
C47 C22 1_555 1_555
H35 C47 1_555 1_555
C48 C36 1_555 1_555
H36 C48 1_555 1_555
H37 C48 1_555 1_555
H38 C48 1_555 1_555
C49 C22 1_555 1_555
H39 C49 1_555 1_555
C50 N8 1_555 1_555
H40 C50 1_555 1_555
H41 C50 1_555 1_555
H42 C50 1_555 1_555
C51 N8 1_555 1_555
H43 C51 1_555 1_555
H44 C51 1_555 1_555
H45 C51 1_555 1_555
O7 Tb1 1_555 1_555
O8 C2 1_555 1_555
C52 N7 1_555 1_555
N9 O9 1_555 1_555
O10 N9 1_555 1_555
O11 N9 1_555 1_555
O12 C54 1_555 1_555
N10 C53 1_555 1_555
C53 H46 1_555 1_555
H47 C53 1_555 1_555
H48 C53 1_555 1_555
C54 N10 1_555 1_555
C55 C54 1_555 1_555
H49 C55 1_555 1_555
H50 C55 1_555 1_555
H51 C55 1_555 1_555
C56 N10 1_555 1_555
H52 C56 1_555 1_555
H53 C56 1_555 1_555
H54 C56 1_555 1_555
C57 O13 1_555 1_555
C58 H55 1_555 1_555
H56 C58 1_555 1_555
H57 C58 1_555 1_555
C59 C57 1_555 1_555
H58 C59 1_555 1_555
H59 C59 1_555 1_555
H60 C59 1_555 1_555
N11 C57 1_555 1_555
C60 N11 1_555 1_555
H61 C60 1_555 1_555
H62 C60 1_555 1_555
H63 C60 1_555 1_555
Tb1_2 O2 1_555 1_555
Tb1A O8 1_555 1_555
Tb1A_2 O1 1_555 1_555
O1A Tb1 1_555 1_555
O2_2 Tb1 1_555 1_555
O2A Tb1 1_555 1_555
O8A Tb1 1_555 1_555
O2 Tb1A_2 1_555 1_555
C1 C21 1_555 1_555
N6 C34 1_555 1_555
C3 C28 1_555 1_555
C5 C37 1_555 1_555
C9 C15 1_555 1_555
C10 C23 1_555 1_555
N7 C26 1_555 1_555
C12 C21 1_555 1_555
C13 C25 1_555 1_555
C14 C34 1_555 1_555
C16 C52 1_555 1_555
C20 C52 1_555 1_555
C24 C49 1_555 1_555
C26 C31 1_555 1_555
C29 C32 1_555 1_555
C29 C39 1_555 1_555
C30 C35 1_555 1_555
C33 C47 1_555 1_555
C44 C45 1_555 1_555
C46 O7 1_555 1_555
C58 N11 1_555 1_555
Tb1A O2_2 1_555 1_555
Tb1A O2A 1_555 1_555

#END
