
#######################################################################
#
#                 Cambridge Crystallographic Data Centre
#                                CCDC 
#
#######################################################################
#
# If this CIF has been generated from an entry in the Cambridge 
# Structural Database, then it will include bibliographic, chemical, 
# crystal, experimental, refinement or atomic coordinate data resulting 
# from the CCDC's data processing and validation procedures.
#
#######################################################################

data_VOKTAS01
_symmetry_cell_setting           monoclinic
_symmetry_space_group_name_H-M   'P 2/c'
_symmetry_Int_Tables_number      13
_space_group_name_Hall           '-P 2yc'
loop_
_symmetry_equiv_pos_site_id
_symmetry_equiv_pos_as_xyz
1 x,y,z
2 -x,y,1/2-z
3 -x,-y,-z
4 x,-y,1/2+z
_cell_length_a                   9.8571(3)
_cell_length_b                   9.4122(2)
_cell_length_c                   14.2352(5)
_cell_angle_alpha                90
_cell_angle_beta                 103.610(3)
_cell_angle_gamma                90
_cell_volume                     1283.61
loop_
_atom_site_label
_atom_site_type_symbol
_atom_site_fract_x
_atom_site_fract_y
_atom_site_fract_z
Fe1 Fe 0.0000 0.75137(10) -0.2500
Ag1 Ag 0.24140(5) 0.92384(4) 0.03624(4)
N1 N 0.0914(4) 0.5694(4) -0.3131(3)
N2 N 0.2268(6) 0.3389(5) -0.3708(4)
N3 N 0.2042(4) 0.7232(4) -0.1570(3)
N4 N 0.2848(4) 0.7844(4) -0.0778(3)
N5 N 0.4175(4) 0.6269(5) -0.1339(3)
N6 N 0.5063(5) 0.8622(5) 0.0757(3)
N7 N 0.7692(5) 0.7427(6) 0.0919(4)
N8 N 0.0749(5) 1.1107(5) 0.1587(3)
C1 C 0.0275(6) 0.4796(6) -0.3796(4)
H1 H -0.0664 0.4942 -0.4085
C2 C 0.0941(7) 0.3647(6) -0.4079(5)
H2 H 0.0439 0.3036 -0.4547
C3 C 0.2918(6) 0.4260(6) -0.3022(5)
H3 H 0.3855 0.4095 -0.2737
C4 C 0.2262(6) 0.5412(5) -0.2708(4)
C5 C 0.2874(5) 0.6309(5) -0.1877(4)
C6 C 0.4111(5) 0.7243(5) -0.0663(4)
C7 C 0.5292(6) 0.7635(5) 0.0123(4)
C8 C 0.6593(6) 0.7046(7) 0.0229(5)
H4 H 0.6712 0.6344 -0.0205
C9 C 0.7470(7) 0.8416(7) 0.1527(5)
H5 H 0.8209 0.8718 0.2021
C10 C 0.6171(6) 0.9008(6) 0.1443(5)
H6 H 0.6061 0.9704 0.1883
C11 C 0.1346(6) 1.0478(6) 0.1139(4)
Ag1A Ag -0.24140(5) 0.92384(4) -0.53624(4)
N1A N -0.0914(4) 0.5694(4) -0.1869(3)
N2A N -0.2268(6) 0.3389(5) -0.1292(4)
N3A N -0.2042(4) 0.7232(4) -0.3430(3)
N4A N -0.2848(4) 0.7844(4) -0.4222(3)
N5A N -0.4175(4) 0.6269(5) -0.3661(3)
N6A N -0.5063(5) 0.8622(5) -0.5757(3)
N7A N -0.7692(5) 0.7427(6) -0.5919(4)
N8A N -0.0749(5) 1.1107(5) -0.6587(3)
C1A C -0.0275(6) 0.4796(6) -0.1204(4)
H1A H 0.0664 0.4942 -0.0915
C2A C -0.0941(7) 0.3647(6) -0.0921(5)
H2A H -0.0439 0.3036 -0.0453
C3A C -0.2918(6) 0.4260(6) -0.1978(5)
H3A H -0.3855 0.4095 -0.2263
C4A C -0.2262(6) 0.5412(5) -0.2292(4)
C5A C -0.2874(5) 0.6309(5) -0.3123(4)
C6A C -0.4111(5) 0.7243(5) -0.4337(4)
C7A C -0.5292(6) 0.7635(5) -0.5123(4)
C8A C -0.6593(6) 0.7046(7) -0.5229(5)
H4A H -0.6712 0.6344 -0.4795
C9A C -0.7470(7) 0.8416(7) -0.6527(5)
H5A H -0.8209 0.8718 -0.7021
C10A C -0.6171(6) 0.9008(6) -0.6443(5)
H6A H -0.6061 0.9704 -0.6883
C11A C -0.1346(6) 1.0478(6) -0.6139(4)
Fe1B Fe 0.0000 1.24863(10) -0.7500
Fe1B_2 Fe 0.0000 1.24863(10) 0.2500
N8B N -0.0749(5) 0.8893(5) -0.1587(3)
N8C N 0.0749(5) 0.8893(5) -0.3413(3)
loop_
_geom_bond_atom_site_label_1
_geom_bond_atom_site_label_2
_geom_bond_site_symmetry_1
_geom_bond_site_symmetry_2
Fe1 N1 1_555 1_555
Ag1 N4 1_555 1_555
N1 C1 1_555 1_555
N2 C2 1_555 1_555
N3 Fe1 1_555 1_555
N4 N3 1_555 1_555
N5 C5 1_555 1_555
N6 Ag1 1_555 1_555
N7 C8 1_555 1_555
N8 C11 1_555 1_555
C1 H1 1_555 1_555
C2 C1 1_555 1_555
H2 C2 1_555 1_555
C3 N2 1_555 1_555
H3 C3 1_555 1_555
C4 N1 1_555 1_555
C5 N3 1_555 1_555
C6 N4 1_555 1_555
C7 N6 1_555 1_555
C8 C7 1_555 1_555
H4 C8 1_555 1_555
C9 N7 1_555 1_555
H5 C9 1_555 1_555
C10 N6 1_555 1_555
H6 C10 1_555 1_555
C11 Ag1 1_555 1_555
Ag1A N4A 1_555 1_555
N1A Fe1 1_555 1_555
N2A C2A 1_555 1_555
N3A Fe1 1_555 1_555
N4A N3A 1_555 1_555
N5A C5A 1_555 1_555
N6A Ag1A 1_555 1_555
N7A C8A 1_555 1_555
N8A C11A 1_555 1_555
C1A N1A 1_555 1_555
H1A C1A 1_555 1_555
C2A C1A 1_555 1_555
H2A C2A 1_555 1_555
C3A N2A 1_555 1_555
H3A C3A 1_555 1_555
C4A N1A 1_555 1_555
C5A N3A 1_555 1_555
C6A N4A 1_555 1_555
C7A N6A 1_555 1_555
C8A C7A 1_555 1_555
H4A C8A 1_555 1_555
C9A N7A 1_555 1_555
H5A C9A 1_555 1_555
C10A N6A 1_555 1_555
H6A C10A 1_555 1_555
C11A Ag1A 1_555 1_555
Fe1B N8A 1_555 1_555
Fe1B_2 N8 1_555 1_555
N8B Fe1 1_555 1_555
N8C Fe1 1_555 1_555
N5 C6 1_555 1_555
C3 C4 1_555 1_555
C4 C5 1_555 1_555
C6 C7 1_555 1_555
C9 C10 1_555 1_555
N5A C6A 1_555 1_555
C3A C4A 1_555 1_555
C4A C5A 1_555 1_555
C6A C7A 1_555 1_555
C9A C10A 1_555 1_555

#END
