
#######################################################################
#
#                 Cambridge Crystallographic Data Centre
#                                CCDC 
#
#######################################################################
#
# If this CIF has been generated from an entry in the Cambridge 
# Structural Database, then it will include bibliographic, chemical, 
# crystal, experimental, refinement or atomic coordinate data resulting 
# from the CCDC's data processing and validation procedures.
#
#######################################################################

data_VOKTIA
_symmetry_cell_setting           triclinic
_symmetry_space_group_name_H-M   'P -1'
_symmetry_Int_Tables_number      2
_space_group_name_Hall           '-P 1'
loop_
_symmetry_equiv_pos_site_id
_symmetry_equiv_pos_as_xyz
1 x,y,z
2 -x,-y,-z
_cell_length_a                   14.535(7)
_cell_length_b                   14.754(7)
_cell_length_c                   16.061(8)
_cell_angle_alpha                89.062(7)
_cell_angle_beta                 85.034(7)
_cell_angle_gamma                68.457(7)
_cell_volume                     3191.2
loop_
_atom_site_label
_atom_site_type_symbol
_atom_site_fract_x
_atom_site_fract_y
_atom_site_fract_z
Eu1 Eu 0.61270(2) 0.54399(2) 0.02364(2)
Cd1 Cd -0.20033(3) 0.84592(3) 0.52751(3)
Cl1 Cl -0.21535(17) 0.84604(19) 0.67914(12)
O1 O -0.3636(4) 1.4241(4) 0.1394(3)
N1 N -0.4383(4) 1.0596(4) 0.3973(3)
N2 N -0.1940(4) 0.8609(4) 0.3668(3)
O2 O 0.3327(3) 0.6158(4) 0.0397(3)
O3 O 0.6478(4) 0.6096(4) 0.1534(3)
N3 N 0.0349(3) 0.9118(4) 0.3822(3)
C1 C 0.1031(5) 0.5166(5) 0.1212(4)
C2 C 0.2000(5) 0.4966(5) 0.0693(5)
O4 O 0.4551(3) 0.6563(3) 0.0834(3)
N4 N -0.3343(3) 0.9772(4) 0.4895(3)
C3 C 0.0301(4) 0.8560(5) 0.5119(4)
C4 C 0.0904(4) 0.8827(5) 0.4513(4)
C5 C 0.1859(5) 0.8763(5) 0.4652(5)
H1 H 0.2260 0.8935 0.4247
C6 C 0.2175(5) 0.8432(6) 0.5420(6)
H2 H 0.2808 0.8379 0.5535
C7 C 0.1580(6) 0.8169(6) 0.6037(5)
H3 H 0.1828 0.7951 0.6549
C8 C 0.0626(5) 0.8227(5) 0.5902(5)
H4 H 0.0228 0.8054 0.6309
C9 C 0.2910(4) 0.7360(5) 0.1441(4)
C10 C 0.3667(4) 0.6627(5) 0.0844(4)
N5 N -0.1767(4) 0.6989(4) 0.4717(4)
N6 N -0.0590(3) 0.8665(4) 0.4791(3)
C11 C 0.1471(4) 0.8737(4) 0.2509(4)
O5 O 0.6202(4) 0.6999(4) -0.0051(4)
N7 N -0.1642(4) 0.6009(4) 0.3628(4)
C12 C -0.4517(5) 1.3230(5) 0.1843(4)
C13 C -0.3571(4) 0.9800(4) 0.4110(4)
C14 C 0.2355(5) 0.8879(5) 0.2235(4)
H5 H 0.2459 0.9432 0.2401
C15 C -0.4763(5) 1.1677(6) 0.2753(5)
C16 C -0.4709(4) 1.1114(4) 0.4723(4)
C17 C -0.4054(4) 1.0589(4) 0.5303(4)
C18 C -0.4167(5) 1.0927(5) 0.6125(4)
H6 H -0.3749 1.0576 0.6520
C19 C -0.4932(5) 1.1811(5) 0.6329(5)
H7 H -0.5028 1.2064 0.6869
C20 C -0.5558(5) 1.2322(5) 0.5731(5)
H8 H -0.6057 1.2914 0.5892
C21 C -0.5488(5) 1.2007(5) 0.4917(5)
H9 H -0.5918 1.2356 0.4530
C22 C -0.1755(5) 0.6081(5) 0.5012(5)
C23 C -0.1677(6) 0.5471(6) 0.4346(5)
C24 C -0.1611(7) 0.4519(6) 0.4445(6)
H10 H -0.1565 0.4117 0.3991
C25 C -0.1617(9) 0.4199(7) 0.5259(7)
H11 H -0.1538 0.3552 0.5354
C26 C -0.1738(8) 0.4811(7) 0.5931(7)
H12 H -0.1773 0.4574 0.6468
C27 C -0.1810(6) 0.5776(6) 0.5833(6)
H13 H -0.1889 0.6189 0.6287
C28 C -0.0528(4) 0.9006(5) 0.4030(4)
C29 C -0.1478(5) 0.7624(5) 0.3311(4)
H14 H -0.0769 0.7465 0.3203
H15 H -0.1745 0.7598 0.2783
C30 C -0.4900(5) 1.0829(6) 0.3187(5)
H16 H -0.5604 1.0972 0.3321
H17 H -0.4644 1.0264 0.2815
C31 C -0.1360(4) 0.9230(5) 0.3459(4)
H18 H -0.1790 0.9911 0.3523
H19 H -0.1083 0.9113 0.2882
C32 C -0.1687(5) 0.5737(6) 0.2752(5)
H20 H -0.1864 0.5164 0.2752
H21 H -0.2208 0.6264 0.2506
C33 C 0.0669(5) 0.9515(5) 0.3055(4)
H22 H 0.0920 1.0011 0.3203
H23 H 0.0100 0.9825 0.2737
C34 C -0.5586(5) 1.2439(6) 0.2480(5)
H24 H -0.6220 1.2432 0.2605
C35 C 0.3072(5) 0.8180(5) 0.1713(4)
H25 H 0.3665 0.8259 0.1543
C36 C 0.5984(8) 0.7831(8) -0.0331(5)
C37 C 0.1325(5) 0.7923(5) 0.2246(5)
H26 H 0.0746 0.7823 0.2432
C38 C -0.1661(5) 0.6894(5) 0.3887(5)
C39 C -0.3828(6) 1.1737(6) 0.2582(5)
H27 H -0.3275 1.1251 0.2772
C40 C -0.0730(5) 0.5530(6) 0.2217(5)
C41 C -0.3704(5) 1.2503(6) 0.2136(5)
H28 H -0.3074 1.2528 0.2034
C42 C -0.5462(5) 1.3206(5) 0.2021(5)
H29 H -0.6012 1.3701 0.1836
C43 C -0.4372(5) 1.4002(5) 0.1326(4)
C44 C 0.2019(5) 0.7262(5) 0.1715(5)
H30 H 0.1893 0.6727 0.1531
C45 C -0.2977(4) 0.9076(5) 0.3459(4)
H31 H -0.2990 0.9395 0.2925
H32 H -0.3264 0.8583 0.3409
C46 C 0.0146(6) 0.5704(7) 0.0899(6)
H33 H 0.0128 0.5958 0.0364
C47 C 0.1036(6) 0.4808(9) 0.2007(6)
H34 H 0.1636 0.4430 0.2210
C48 C -0.0731(5) 0.5859(7) 0.1415(6)
H35 H -0.1337 0.6199 0.1203
N8 N 0.6635(8) 0.8182(6) -0.0596(6)
C49 C 0.0156(6) 0.5002(8) 0.2514(6)
H36 H 0.0175 0.4770 0.3056
C50 C 0.4883(7) 0.8491(8) -0.0338(7)
H37 H 0.4833 0.9112 -0.0564
H38 H 0.4572 0.8580 0.0223
H39 H 0.4556 0.8192 -0.0676
C51 C 0.6415(11) 0.9172(8) -0.0928(8)
H40 H 0.7025 0.9264 -0.1092
H41 H 0.6037 0.9646 -0.0505
H42 H 0.6039 0.9250 -0.1405
C52 C 0.7717(8) 0.7523(9) -0.0541(9)
H43 H 0.8141 0.7854 -0.0763
H44 H 0.7859 0.6935 -0.0858
H45 H 0.7832 0.7367 0.0033
O6 O 0.2023(3) 0.5104(4) -0.0089(3)
O7 O 0.2795(3) 0.4629(4) 0.1062(3)
O8 O -0.5023(3) 1.4466(3) 0.0827(3)
Eu1_2 Eu -0.38730(2) 1.54399(2) 0.02364(2)
Eu1A Eu -0.61270(2) 1.45601(2) -0.02364(2)
Eu1A_2 Eu 0.38730(2) 0.45601(2) -0.02364(2)
O1_2 O 0.6364(4) 0.4241(4) 0.1394(3)
O2A O 0.6673(3) 0.3842(4) -0.0397(3)
O6A O 0.7977(3) 0.4896(4) 0.0089(3)
O7A O 0.7205(3) 0.5371(4) -0.1062(3)
O8_2 O 0.4977(3) 0.4466(3) 0.0827(3)
O8A O 0.5023(3) 0.5534(3) -0.0827(3)
N9 N -0.3831(7) 0.8645(6) 0.1622(5)
O9 O -0.3658(8) 0.9387(6) 0.1443(6)
O10 O -0.3175(7) 0.7864(6) 0.1742(6)
O11 O -0.4695(8) 0.8702(10) 0.1697(7)
O12 O -0.3981(6) 0.5542(6) 0.3137(4)
N10 N -0.4756(8) 0.4673(7) 0.3802(6)
C53 C -0.4737(9) 0.5366(8) 0.3352(6)
C54 C -0.5723(9) 0.6030(9) 0.3060(9)
H46 H -0.5624 0.6537 0.2725
H47 H -0.6180 0.6315 0.3536
H48 H -0.5987 0.5659 0.2733
C55 C -0.5633(11) 0.4426(10) 0.4054(8)
H49 H -0.5443 0.3859 0.4397
H50 H -0.5902 0.4295 0.3565
H51 H -0.6125 0.4963 0.4364
C56 C -0.3835(11) 0.3982(10) 0.4030(9)
H52 H -0.3957 0.3489 0.4369
H53 H -0.3507 0.4307 0.4341
H54 H -0.3421 0.3686 0.3535
O13 O -0.1050(8) 1.0402(9) 0.1647(7)
N11 N -0.0684(11) 1.1406(14) 0.0808(10)
C57 C -0.1119(14) 1.0919(15) 0.1013(12)
C58 C -0.1932(15) 1.0951(17) 0.0424(11)
H55 H -0.2265 1.0529 0.0634
H56 H -0.1626 1.0738 -0.0128
H57 H -0.2405 1.1606 0.0404
C59 C 0.0140(13) 1.1374(16) 0.1404(14)
H58 H 0.0468 1.1802 0.1197
H59 H 0.0617 1.0721 0.1418
H60 H -0.0165 1.1580 0.1957
C60 C -0.0790(17) 1.207(2) 0.0091(14)
H61 H -0.0321 1.2383 0.0101
H62 H -0.1451 1.2547 0.0127
H63 H -0.0667 1.1696 -0.0420
loop_
_geom_bond_atom_site_label_1
_geom_bond_atom_site_label_2
_geom_bond_site_symmetry_1
_geom_bond_site_symmetry_2
Eu1 O3 1_555 1_555
Cd1 Cl1 1_555 1_555
O1 C43 1_555 1_555
N1 C13 1_555 1_555
N2 Cd1 1_555 1_555
O2 C10 1_555 1_555
N3 C4 1_555 1_555
C1 C2 1_555 1_555
C2 O6 1_555 1_555
O4 Eu1 1_555 1_555
N4 Cd1 1_555 1_555
C3 C4 1_555 1_555
C4 C5 1_555 1_555
C5 H1 1_555 1_555
C6 C5 1_555 1_555
H2 C6 1_555 1_555
C7 C6 1_555 1_555
H3 C7 1_555 1_555
C8 C3 1_555 1_555
H4 C8 1_555 1_555
C9 C10 1_555 1_555
C10 O4 1_555 1_555
N5 Cd1 1_555 1_555
N6 Cd1 1_555 1_555
C11 C14 1_555 1_555
O5 Eu1 1_555 1_555
N7 C23 1_555 1_555
C12 C41 1_555 1_555
C13 N4 1_555 1_555
C14 H5 1_555 1_555
C15 C30 1_555 1_555
C16 N1 1_555 1_555
C17 N4 1_555 1_555
C18 C17 1_555 1_555
H6 C18 1_555 1_555
C19 C18 1_555 1_555
H7 C19 1_555 1_555
C20 C19 1_555 1_555
H8 C20 1_555 1_555
C21 C16 1_555 1_555
H9 C21 1_555 1_555
C22 N5 1_555 1_555
C23 C22 1_555 1_555
C24 C23 1_555 1_555
H10 C24 1_555 1_555
C25 C24 1_555 1_555
H11 C25 1_555 1_555
C26 C25 1_555 1_555
H12 C26 1_555 1_555
C27 C22 1_555 1_555
H13 C27 1_555 1_555
C28 N3 1_555 1_555
C29 N2 1_555 1_555
H14 C29 1_555 1_555
H15 C29 1_555 1_555
C30 N1 1_555 1_555
H16 C30 1_555 1_555
H17 C30 1_555 1_555
C31 N2 1_555 1_555
H18 C31 1_555 1_555
H19 C31 1_555 1_555
C32 N7 1_555 1_555
H20 C32 1_555 1_555
H21 C32 1_555 1_555
C33 N3 1_555 1_555
H22 C33 1_555 1_555
H23 C33 1_555 1_555
C34 C15 1_555 1_555
H24 C34 1_555 1_555
C35 C9 1_555 1_555
H25 C35 1_555 1_555
C36 O5 1_555 1_555
C37 C11 1_555 1_555
H26 C37 1_555 1_555
C38 N5 1_555 1_555
C39 C15 1_555 1_555
H27 C39 1_555 1_555
C40 C32 1_555 1_555
C41 C39 1_555 1_555
H28 C41 1_555 1_555
C42 C12 1_555 1_555
H29 C42 1_555 1_555
C43 C12 1_555 1_555
C44 C9 1_555 1_555
H30 C44 1_555 1_555
C45 N2 1_555 1_555
H31 C45 1_555 1_555
H32 C45 1_555 1_555
C46 C1 1_555 1_555
H33 C46 1_555 1_555
C47 C1 1_555 1_555
H34 C47 1_555 1_555
C48 C40 1_555 1_555
H35 C48 1_555 1_555
N8 C36 1_555 1_555
C49 C40 1_555 1_555
H36 C49 1_555 1_555
C50 C36 1_555 1_555
H37 C50 1_555 1_555
H38 C50 1_555 1_555
H39 C50 1_555 1_555
C51 N8 1_555 1_555
H40 C51 1_555 1_555
H41 C51 1_555 1_555
H42 C51 1_555 1_555
C52 N8 1_555 1_555
H43 C52 1_555 1_555
H44 C52 1_555 1_555
H45 C52 1_555 1_555
O6 Eu1A_2 1_555 1_555
O7 C2 1_555 1_555
O8 C43 1_555 1_555
N9 O9 1_555 1_555
O10 N9 1_555 1_555
O11 N9 1_555 1_555
O12 C53 1_555 1_555
N10 C53 1_555 1_555
C53 C54 1_555 1_555
C54 H46 1_555 1_555
H47 C54 1_555 1_555
H48 C54 1_555 1_555
C55 N10 1_555 1_555
H49 C55 1_555 1_555
H50 C55 1_555 1_555
H51 C55 1_555 1_555
C56 N10 1_555 1_555
H52 C56 1_555 1_555
H53 C56 1_555 1_555
H54 C56 1_555 1_555
O13 C57 1_555 1_555
N11 C57 1_555 1_555
C57 C58 1_555 1_555
C58 H55 1_555 1_555
H56 C58 1_555 1_555
H57 C58 1_555 1_555
C59 N11 1_555 1_555
H58 C59 1_555 1_555
H59 C59 1_555 1_555
H60 C59 1_555 1_555
C60 N11 1_555 1_555
H61 C60 1_555 1_555
H62 C60 1_555 1_555
H63 C60 1_555 1_555
Eu1_2 O1 1_555 1_555
Eu1A O8 1_555 1_555
Eu1A_2 O2 1_555 1_555
O1_2 Eu1 1_555 1_555
O2A Eu1 1_555 1_555
O6A Eu1 1_555 1_555
O7A Eu1 1_555 1_555
O8_2 Eu1 1_555 1_555
O8A Eu1 1_555 1_555
C3 N6 1_555 1_555
C7 C8 1_555 1_555
N6 C28 1_555 1_555
C11 C33 1_555 1_555
N7 C38 1_555 1_555
C13 C45 1_555 1_555
C14 C35 1_555 1_555
C16 C17 1_555 1_555
C20 C21 1_555 1_555
C26 C27 1_555 1_555
C28 C31 1_555 1_555
C29 C38 1_555 1_555
C34 C42 1_555 1_555
C37 C44 1_555 1_555
C46 C48 1_555 1_555
C47 C49 1_555 1_555
O7 Eu1A_2 1_555 1_555
O8 Eu1_2 1_555 1_555
Eu1A_2 O8_2 1_555 1_555
Eu1A_2 O8A 1_555 1_555

#END
