
#######################################################################
#
#                 Cambridge Crystallographic Data Centre
#                                CCDC 
#
#######################################################################
#
# If this CIF has been generated from an entry in the Cambridge 
# Structural Database, then it will include bibliographic, chemical, 
# crystal, experimental, refinement or atomic coordinate data resulting 
# from the CCDC's data processing and validation procedures.
#
#######################################################################

data_VOKVEY
_symmetry_cell_setting           triclinic
_symmetry_space_group_name_H-M   'P -1'
_symmetry_Int_Tables_number      2
_space_group_name_Hall           '-P 1'
loop_
_symmetry_equiv_pos_site_id
_symmetry_equiv_pos_as_xyz
1 x,y,z
2 -x,-y,-z
_cell_length_a                   14.4430(12)
_cell_length_b                   14.7290(12)
_cell_length_c                   16.0200(13)
_cell_angle_alpha                89.0650(10)
_cell_angle_beta                 85.0140(10)
_cell_angle_gamma                68.4630(10)
_cell_volume                     3157.57
loop_
_atom_site_label
_atom_site_type_symbol
_atom_site_fract_x
_atom_site_fract_y
_atom_site_fract_z
Tb1 Tb -0.612636(12) -0.042764(11) -0.024060(10)
Cd1 Cd 0.200725(19) -0.346546(19) -0.527523(16)
Cl1 Cl 0.21672(11) -0.34744(11) -0.67901(7)
O1 O 0.3652(2) -0.9257(2) -0.13796(18)
O2 O -0.2791(2) 0.0353(2) -0.10480(19)
O3 O -0.3338(2) -0.1142(2) -0.03916(18)
N1 N 0.4387(2) -0.5591(2) -0.3969(2)
O4 O -0.4569(2) -0.1519(2) -0.08539(19)
O5 O -0.6186(3) -0.1966(2) 0.0045(2)
N2 N 0.1945(2) -0.3615(2) -0.36711(19)
N3 N -0.0350(2) -0.4120(2) -0.38243(19)
O6 O -0.6498(2) -0.1070(2) -0.15094(18)
N4 N 0.0592(2) -0.3671(2) -0.47909(19)
N5 N 0.1759(2) -0.1989(2) -0.4714(2)
N6 N 0.3345(2) -0.4770(2) -0.48959(18)
N7 N 0.1643(3) -0.1023(2) -0.3625(2)
C1 C 0.4528(3) -0.8234(3) -0.1843(2)
C2 C -0.3673(3) -0.1605(3) -0.0849(2)
C3 C -0.1476(3) -0.3734(3) -0.2513(2)
C4 C -0.1321(3) -0.2915(3) -0.2249(3)
H1 H -0.0733 -0.2823 -0.2431
C5 C -0.2040(3) -0.2228(3) -0.1712(3)
H2 H -0.1926 -0.1683 -0.1533
C6 C -0.2920(3) -0.2353(3) -0.1446(2)
C7 C -0.3090(3) -0.3161(3) -0.1722(3)
H3 H -0.3689 -0.3239 -0.1557
C8 C -0.2366(3) -0.3852(3) -0.2246(2)
H4 H -0.2478 -0.4400 -0.2419
C9 C 0.0531(3) -0.4000(2) -0.4027(2)
C10 C 0.1643(6) 0.0784(4) -0.5255(4)
H5 H 0.1596 0.1423 -0.5352
C11 C 0.4767(3) -0.6690(3) -0.2753(2)
C12 C 0.1354(3) -0.4231(3) -0.3454(2)
H6 H 0.1072 -0.4106 -0.2876
H7 H 0.1781 -0.4915 -0.3514
C13 C 0.1676(4) -0.0484(3) -0.4340(3)
C14 C -0.1039(3) -0.0170(3) -0.1199(3)
C15 C 0.1481(3) -0.2626(3) -0.3300(3)
H8 H 0.1762 -0.2601 -0.2776
H9 H 0.0769 -0.2466 -0.3182
C16 C 0.4393(3) -0.9025(3) -0.1318(2)
C17 C -0.0677(3) -0.4511(3) -0.3053(2)
H10 H -0.0106 -0.4821 -0.2734
H11 H -0.0933 -0.5005 -0.3201
C18 C 0.0720(3) -0.0537(3) -0.2222(3)
C19 C 0.2980(3) -0.4071(3) -0.3452(2)
H12 H 0.2993 -0.4384 -0.2914
H13 H 0.3271 -0.3577 -0.3410
C20 C -0.0305(3) -0.3560(3) -0.5124(2)
C21 C -0.0645(3) -0.3225(3) -0.5896(3)
H14 H -0.0247 -0.3046 -0.6303
C22 C -0.1589(3) -0.3165(3) -0.6040(3)
H15 H -0.1833 -0.2949 -0.6555
C23 C -0.2190(3) -0.3424(3) -0.5424(3)
H16 H -0.2831 -0.3362 -0.5536
C24 C -0.1862(3) -0.3770(3) -0.4652(3)
H17 H -0.2259 -0.3954 -0.4248
C25 C -0.0904(3) -0.3825(2) -0.4518(2)
C26 C 0.1751(5) 0.0173(4) -0.5934(4)
H18 H 0.1771 0.0414 -0.6472
C27 C 0.3570(3) -0.4809(3) -0.4112(2)
N8 N -0.6626(5) -0.3164(4) 0.0590(3)
C28 C 0.1767(3) -0.1101(3) -0.5019(3)
C29 C 0.4901(3) -0.5834(3) -0.3197(3)
H19 H 0.4647 -0.5270 -0.2821
H20 H 0.5608 -0.5978 -0.3334
C30 C 0.3705(3) -0.7509(3) -0.2134(3)
H21 H 0.3074 -0.7540 -0.2030
C31 C -0.5969(5) -0.2800(4) 0.0312(3)
C32 C 0.4063(3) -0.5594(3) -0.5301(2)
C33 C 0.4714(3) -0.6120(3) -0.4720(2)
C34 C 0.5493(3) -0.7009(3) -0.4922(3)
H22 H 0.5923 -0.7356 -0.4530
C35 C 0.5586(3) -0.7341(3) -0.5735(3)
H23 H 0.6093 -0.7931 -0.5896
C36 C 0.4950(3) -0.6827(3) -0.6317(3)
H24 H 0.5040 -0.7081 -0.6859
C37 C 0.4176(3) -0.5935(3) -0.6118(3)
H25 H 0.3756 -0.5586 -0.6515
C38 C 0.1662(3) -0.1899(3) -0.3892(2)
C39 C -0.0138(4) -0.0717(4) -0.0910(3)
H26 H -0.0113 -0.0964 -0.0371
C40 C 0.1605(5) 0.0478(4) -0.4445(4)
H27 H 0.1535 0.0891 -0.3991
C41 C 0.3821(3) -0.6739(3) -0.2581(3)
H28 H 0.3264 -0.6250 -0.2768
C42 C 0.5473(3) -0.8199(3) -0.2022(2)
H29 H 0.6028 -0.8688 -0.1831
C43 C 0.0742(4) -0.0901(5) -0.1425(3)
H30 H 0.1351 -0.1275 -0.1227
C44 C 0.1705(3) -0.0752(3) -0.2759(3)
H31 H 0.1886 -0.0180 -0.2762
H32 H 0.2227 -0.1281 -0.2513
C45 C -0.6413(7) -0.4144(4) 0.0907(5)
H33 H -0.7030 -0.4229 0.1077
H34 H -0.6023 -0.4236 0.1378
H35 H -0.6047 -0.4613 0.0474
C46 C -0.2015(3) 0.0029(3) -0.0682(3)
C47 C -0.0165(4) 0.0001(5) -0.2500(3)
H36 H -0.0186 0.0256 -0.3036
C48 C 0.5594(3) -0.7437(3) -0.2482(2)
H37 H 0.6230 -0.7426 -0.2609
C49 C -0.7700(6) -0.2526(6) 0.0514(6)
H38 H -0.8125 -0.2856 0.0743
H39 H -0.7805 -0.2392 -0.0066
H40 H -0.7855 -0.1924 0.0817
C50 C 0.1828(4) -0.0788(3) -0.5833(3)
H41 H 0.1916 -0.1201 -0.6290
C51 C -0.4873(5) -0.3448(4) 0.0328(4)
H42 H -0.4822 -0.4073 0.0548
H43 H -0.4554 -0.3148 0.0676
H44 H -0.4552 -0.3531 -0.0231
C52 C -0.1050(4) 0.0180(5) -0.1996(3)
H45 H -0.1656 0.0543 -0.2204
O7 O 0.5034(2) -0.94473(19) -0.08087(16)
O8 O -0.2031(2) -0.0123(2) 0.00963(18)
Tb1_2 Tb 0.387364(12) -1.042764(11) -0.024060(10)
Tb1A Tb -0.387364(12) 0.042764(11) 0.024060(10)
Tb1A_2 Tb 0.612636(12) -0.957236(11) 0.024060(10)
O1_2 O -0.6348(2) 0.0743(2) -0.13796(18)
O2A O -0.7209(2) -0.0353(2) 0.10480(19)
O3A O -0.6662(2) 0.1142(2) 0.03916(18)
O7_2 O -0.4966(2) 0.05527(19) -0.08087(16)
O7A O -0.5034(2) -0.05527(19) 0.08087(16)
O8A O -0.7969(2) 0.0123(2) -0.00963(18)
N9 N 0.3846(4) -0.3650(3) -0.1613(3)
O9 O 0.4709(5) -0.3724(6) -0.1692(4)
O10 O 0.3647(5) -0.4371(3) -0.1439(3)
O11 O 0.3195(5) -0.2873(3) -0.1744(4)
C53 C 0.5632(7) 0.0574(6) -0.4054(5)
H46 H 0.5443 0.1133 -0.4408
H47 H 0.6138 0.0033 -0.4352
H48 H 0.5887 0.0721 -0.3561
O12 O 0.3990(4) -0.0553(4) -0.3129(3)
N10 N 0.4769(5) 0.0323(4) -0.3814(4)
C54 C 0.5762(7) -0.1043(6) -0.3066(6)
H49 H 0.6269 -0.0804 -0.3282
H50 H 0.5919 -0.1693 -0.3279
H51 H 0.5734 -0.1051 -0.2466
C55 C 0.4755(6) -0.0380(5) -0.3340(4)
C56 C 0.3796(7) 0.1024(6) -0.4026(6)
H52 H 0.3896 0.1521 -0.4377
H53 H 0.3397 0.1319 -0.3522
H54 H 0.3460 0.0689 -0.4319
C57 C 0.0669(8) -0.6377(10) -0.0826(7)
C58 C 0.0825(10) -0.7049(13) -0.0073(9)
H55 H 0.0348 -0.7364 -0.0044
H56 H 0.0737 -0.6672 0.0431
H57 H 0.1489 -0.7534 -0.0131
O13 O -0.0134(11) -0.6333(11) -0.1396(10)
N11 N 0.1161(7) -0.5903(11) -0.0971(11)
C59 C 0.1973(10) -0.5937(11) -0.0409(7)
H58 H 0.1964 -0.6352 0.0057
H59 H 0.1852 -0.5290 -0.0206
H60 H 0.2613 -0.6188 -0.0724
C60 C 0.1063(7) -0.5380(6) -0.1652(5)
H61 H 0.1514 -0.5036 -0.1672
H62 H 0.0389 -0.4920 -0.1646
H63 H 0.1213 -0.5802 -0.2135
loop_
_geom_bond_atom_site_label_1
_geom_bond_atom_site_label_2
_geom_bond_site_symmetry_1
_geom_bond_site_symmetry_2
Tb1 O4 1_555 1_555
Cd1 Cl1 1_555 1_555
O1 C16 1_555 1_555
O2 C46 1_555 1_555
O3 C2 1_555 1_555
N1 C27 1_555 1_555
O4 C2 1_555 1_555
O5 Tb1 1_555 1_555
N2 Cd1 1_555 1_555
N3 C9 1_555 1_555
O6 Tb1 1_555 1_555
N4 Cd1 1_555 1_555
N5 Cd1 1_555 1_555
N6 Cd1 1_555 1_555
N7 C13 1_555 1_555
C1 C16 1_555 1_555
C2 C6 1_555 1_555
C3 C4 1_555 1_555
C4 H1 1_555 1_555
C5 C4 1_555 1_555
H2 C5 1_555 1_555
C6 C5 1_555 1_555
C7 C6 1_555 1_555
H3 C7 1_555 1_555
C8 C3 1_555 1_555
H4 C8 1_555 1_555
C9 N4 1_555 1_555
C10 H5 1_555 1_555
C11 C29 1_555 1_555
C12 N2 1_555 1_555
H6 C12 1_555 1_555
H7 C12 1_555 1_555
C13 C28 1_555 1_555
C14 C39 1_555 1_555
C15 N2 1_555 1_555
H8 C15 1_555 1_555
H9 C15 1_555 1_555
C16 O7 1_555 1_555
C17 N3 1_555 1_555
H10 C17 1_555 1_555
H11 C17 1_555 1_555
C18 C43 1_555 1_555
C19 N2 1_555 1_555
H12 C19 1_555 1_555
H13 C19 1_555 1_555
C20 N4 1_555 1_555
C21 C20 1_555 1_555
H14 C21 1_555 1_555
C22 C21 1_555 1_555
H15 C22 1_555 1_555
C23 C22 1_555 1_555
H16 C23 1_555 1_555
C24 C23 1_555 1_555
H17 C24 1_555 1_555
C25 N3 1_555 1_555
C26 C10 1_555 1_555
H18 C26 1_555 1_555
C27 N6 1_555 1_555
N8 C31 1_555 1_555
C28 N5 1_555 1_555
C29 N1 1_555 1_555
H19 C29 1_555 1_555
H20 C29 1_555 1_555
C30 C1 1_555 1_555
H21 C30 1_555 1_555
C31 O5 1_555 1_555
C32 N6 1_555 1_555
C33 N1 1_555 1_555
C34 C33 1_555 1_555
H22 C34 1_555 1_555
C35 C34 1_555 1_555
H23 C35 1_555 1_555
C36 C35 1_555 1_555
H24 C36 1_555 1_555
C37 C32 1_555 1_555
H25 C37 1_555 1_555
C38 N5 1_555 1_555
C39 H26 1_555 1_555
C40 C10 1_555 1_555
H27 C40 1_555 1_555
C41 C11 1_555 1_555
H28 C41 1_555 1_555
C42 C1 1_555 1_555
H29 C42 1_555 1_555
C43 C39 1_555 1_555
H30 C43 1_555 1_555
C44 N7 1_555 1_555
H31 C44 1_555 1_555
H32 C44 1_555 1_555
C45 N8 1_555 1_555
H33 C45 1_555 1_555
H34 C45 1_555 1_555
H35 C45 1_555 1_555
C46 C14 1_555 1_555
C47 C18 1_555 1_555
H36 C47 1_555 1_555
C48 C11 1_555 1_555
H37 C48 1_555 1_555
C49 N8 1_555 1_555
H38 C49 1_555 1_555
H39 C49 1_555 1_555
H40 C49 1_555 1_555
C50 C26 1_555 1_555
H41 C50 1_555 1_555
C51 C31 1_555 1_555
H42 C51 1_555 1_555
H43 C51 1_555 1_555
H44 C51 1_555 1_555
C52 C14 1_555 1_555
H45 C52 1_555 1_555
O7 Tb1_2 1_555 1_555
O8 C46 1_555 1_555
N9 O9 1_555 1_555
O10 N9 1_555 1_555
O11 N9 1_555 1_555
C53 H46 1_555 1_555
H47 C53 1_555 1_555
H48 C53 1_555 1_555
O12 C55 1_555 1_555
N10 C53 1_555 1_555
C54 H49 1_555 1_555
H50 C54 1_555 1_555
H51 C54 1_555 1_555
C55 N10 1_555 1_555
C56 N10 1_555 1_555
H52 C56 1_555 1_555
H53 C56 1_555 1_555
H54 C56 1_555 1_555
C57 C58 1_555 1_555
C58 H55 1_555 1_555
H56 C58 1_555 1_555
H57 C58 1_555 1_555
O13 C57 1_555 1_555
N11 C57 1_555 1_555
C59 N11 1_555 1_555
H58 C59 1_555 1_555
H59 C59 1_555 1_555
H60 C59 1_555 1_555
C60 N11 1_555 1_555
H61 C60 1_555 1_555
H62 C60 1_555 1_555
H63 C60 1_555 1_555
Tb1_2 O1 1_555 1_555
Tb1A O2 1_555 1_555
Tb1A_2 O7 1_555 1_555
O1_2 Tb1 1_555 1_555
O2A Tb1 1_555 1_555
O3A Tb1 1_555 1_555
O7_2 Tb1 1_555 1_555
O7A Tb1 1_555 1_555
O8A Tb1 1_555 1_555
O3 Tb1A 1_555 1_555
N7 C38 1_555 1_555
C3 C17 1_555 1_555
C7 C8 1_555 1_555
C9 C12 1_555 1_555
C13 C40 1_555 1_555
C15 C38 1_555 1_555
C18 C44 1_555 1_555
C19 C27 1_555 1_555
C20 C25 1_555 1_555
C24 C25 1_555 1_555
C28 C50 1_555 1_555
C30 C41 1_555 1_555
C32 C33 1_555 1_555
C36 C37 1_555 1_555
C42 C48 1_555 1_555
C47 C52 1_555 1_555
O8 Tb1A 1_555 1_555
C54 C55 1_555 1_555
Tb1A O7_2 1_555 1_555
Tb1A O7A 1_555 1_555

#END
