
#######################################################################
#
#                 Cambridge Crystallographic Data Centre
#                                CCDC 
#
#######################################################################
#
# If this CIF has been generated from an entry in the Cambridge 
# Structural Database, then it will include bibliographic, chemical, 
# crystal, experimental, refinement or atomic coordinate data resulting 
# from the CCDC's data processing and validation procedures.
#
#######################################################################

data_VOKVAU
_symmetry_cell_setting           triclinic
_symmetry_space_group_name_H-M   'P -1'
_symmetry_Int_Tables_number      2
_space_group_name_Hall           '-P 1'
loop_
_symmetry_equiv_pos_site_id
_symmetry_equiv_pos_as_xyz
1 x,y,z
2 -x,-y,-z
_cell_length_a                   14.461(2)
_cell_length_b                   14.710(2)
_cell_length_c                   16.057(2)
_cell_angle_alpha                88.998(2)
_cell_angle_beta                 85.103(2)
_cell_angle_gamma                68.404(2)
_cell_volume                     3163.94
loop_
_atom_site_label
_atom_site_type_symbol
_atom_site_fract_x
_atom_site_fract_y
_atom_site_fract_z
N9 N -0.3837(6) 0.3643(5) 0.1621(3)
O9 O -0.3186(6) 0.2863(4) 0.1746(4)
O10 O -0.3641(6) 0.4366(4) 0.1443(4)
O11 O -0.4701(6) 0.3715(7) 0.1698(5)
O12 O -0.3979(4) 0.0541(4) 0.3126(3)
N10 N -0.4773(6) -0.0317(5) 0.3810(4)
C53 C -0.5624(8) -0.0586(7) 0.4047(6)
H46 H -0.5432 -0.1133 0.4416
H47 H -0.5860 -0.0761 0.3556
H48 H -0.6146 -0.0043 0.4327
C54 C -0.5768(7) 0.1036(6) 0.3062(6)
H49 H -0.6272 0.0794 0.3276
H50 H -0.5736 0.1040 0.2462
H51 H -0.5931 0.1689 0.3270
C55 C -0.3809(7) -0.1038(7) 0.4028(6)
H52 H -0.3924 -0.1520 0.4388
H53 H -0.3456 -0.0712 0.4309
H54 H -0.3419 -0.1351 0.3527
C56 C -0.4763(7) 0.0381(6) 0.3342(4)
C57 C -0.0823(12) -0.2942(12) 0.0075(8)
H55 H -0.0335 -0.2640 0.0056
H56 H -0.1480 -0.2447 0.0145
H57 H -0.0749 -0.3299 -0.0437
C58 C -0.1067(7) -0.4624(7) 0.1654(5)
H58 H -0.1482 -0.5002 0.1631
H59 H -0.1283 -0.4202 0.2139
H60 H -0.0386 -0.5056 0.1687
C59 C -0.0672(10) -0.3631(10) 0.0798(8)
O13 O 0.0138(11) -0.3656(11) 0.1412(11)
C60 C -0.1990(10) -0.4071(12) 0.0400(8)
H61 H -0.1959 -0.3677 -0.0077
H62 H -0.2633 -0.3791 0.0705
H63 H -0.1887 -0.4721 0.0217
N11 N -0.1131(10) -0.4110(10) 0.1000(11)
Eu1 Eu 0.613007(17) 0.043082(17) 0.023840(15)
Tb1 Tb 0.613007(17) 0.043082(17) 0.023840(15)
Cd1 Cd -0.20040(3) 0.34624(2) 0.52764(2)
Cl1 Cl -0.21552(13) 0.34614(14) 0.67869(9)
O1 O -0.3636(3) 0.9245(3) 0.1381(2)
O2 O 0.3331(3) 0.1149(2) 0.0396(2)
O3 O 0.2784(3) -0.0361(3) 0.1062(2)
N1 N -0.1949(3) 0.3616(3) 0.3682(2)
C1 C -0.4065(3) 0.5597(3) 0.5301(3)
C2 C -0.4720(3) 0.6127(3) 0.4719(3)
C3 C -0.5504(4) 0.7020(4) 0.4926(4)
H1 H -0.5946 0.7369 0.4542
C4 C -0.5569(4) 0.7336(4) 0.5727(4)
H2 H -0.6063 0.7937 0.5881
C5 C -0.4951(4) 0.6828(4) 0.6331(4)
H3 H -0.5048 0.7079 0.6873
C6 C -0.4184(4) 0.5939(3) 0.6119(3)
H4 H -0.3763 0.5584 0.6514
N2 N -0.4383(3) 0.5600(3) 0.3970(3)
O4 O 0.4558(3) 0.1546(3) 0.0836(2)
O5 O 0.6482(3) 0.1086(3) 0.1521(2)
N3 N 0.0345(3) 0.4117(3) 0.3830(2)
O6 O 0.6193(3) 0.1977(3) -0.0045(3)
C7 C -0.4516(4) 0.8225(4) 0.1836(3)
N4 N -0.0589(3) 0.3674(3) 0.4793(2)
N5 N -0.3353(3) 0.4772(3) 0.4902(2)
N6 N -0.1762(3) 0.1987(3) 0.4719(3)
C8 C 0.0310(4) 0.3554(3) 0.5122(3)
C9 C 0.3667(4) 0.1618(3) 0.0846(3)
C10 C 0.0668(4) 0.4515(3) 0.3059(3)
H5 H 0.0921 0.5011 0.3207
H6 H 0.0095 0.4826 0.2741
C11 C -0.0533(4) 0.4001(3) 0.4031(3)
C12 C 0.2356(4) 0.3853(4) 0.2247(3)
H7 H 0.2470 0.4400 0.2418
C13 C -0.1356(3) 0.4225(4) 0.3461(3)
H8 H -0.1781 0.4911 0.3514
H9 H -0.1075 0.4093 0.2885
C14 C -0.4755(4) 0.6680(4) 0.2751(3)
N7 N -0.1631(3) 0.1015(3) 0.3637(3)
C15 C -0.1726(6) -0.0190(5) 0.5940(5)
H10 H -0.1746 -0.0435 0.6476
C16 C 0.1858(4) 0.3770(4) 0.4660(4)
H11 H 0.2256 0.3953 0.4258
C17 C -0.1467(4) 0.2615(4) 0.3307(3)
H12 H -0.0755 0.2459 0.3196
H13 H -0.1741 0.2587 0.2781
C18 C 0.1046(4) 0.0172(4) 0.1202(4)
C19 C 0.0900(4) 0.3829(3) 0.4521(3)
C20 C -0.1679(4) 0.0487(4) 0.4350(4)
C21 C 0.2918(4) 0.2357(3) 0.1442(3)
C22 C -0.1742(4) 0.1089(4) 0.5026(4)
C23 C 0.1457(4) 0.3750(3) 0.2524(3)
C24 C -0.2977(4) 0.4067(4) 0.3462(3)
H14 H -0.3266 0.3571 0.3423
H15 H -0.2991 0.4378 0.2923
C25 C -0.3568(4) 0.4810(4) 0.4118(3)
C26 C -0.1649(4) 0.1894(3) 0.3896(3)
N8 N 0.6645(6) 0.3163(5) -0.0584(4)
C27 C -0.1689(4) 0.0736(4) 0.2766(4)
H16 H -0.2218 0.1260 0.2520
H17 H -0.1861 0.0157 0.2773
C28 C -0.0731(4) 0.0533(4) 0.2232(3)
C29 C 0.3088(4) 0.3160(4) 0.1723(3)
H18 H 0.3687 0.3238 0.1564
C30 C 0.0644(4) 0.3221(4) 0.5889(3)
H19 H 0.0248 0.3038 0.6292
C31 C 0.1325(4) 0.2919(4) 0.2253(4)
H20 H 0.0747 0.2814 0.2441
C32 C -0.3816(5) 0.6736(4) 0.2577(4)
H21 H -0.3256 0.6242 0.2755
C33 C -0.0742(5) 0.0893(5) 0.1434(4)
H22 H -0.1351 0.1257 0.1231
C34 C 0.0129(5) 0.0729(5) 0.0927(4)
H23 H 0.0097 0.0996 0.0396
C35 C -0.4899(4) 0.5838(4) 0.3195(3)
H24 H -0.5607 0.5990 0.3331
H25 H -0.4650 0.5269 0.2825
C36 C 0.2181(4) 0.3427(4) 0.5420(4)
H26 H 0.2822 0.3365 0.5531
C37 C 0.2015(4) -0.0033(4) 0.0682(3)
C38 C 0.1589(4) 0.3167(4) 0.6037(4)
H27 H 0.1832 0.2956 0.6552
C39 C -0.3705(4) 0.7515(4) 0.2141(4)
H28 H -0.3078 0.7557 0.2055
C40 C 0.2030(4) 0.2238(4) 0.1708(4)
H29 H 0.1907 0.1702 0.1522
C41 C -0.4381(4) 0.9016(3) 0.1314(3)
C42 C -0.5473(4) 0.8209(4) 0.2027(3)
H30 H -0.6026 0.8708 0.1845
C43 C 0.0144(5) 0.0000(6) 0.2510(4)
H31 H 0.0166 -0.0249 0.3047
C44 C 0.6469(8) 0.4137(5) -0.0904(6)
H32 H 0.7096 0.4203 -0.1060
H33 H 0.6102 0.4615 -0.0479
H34 H 0.6091 0.4237 -0.1384
C45 C 0.5979(6) 0.2824(5) -0.0316(4)
C46 C 0.7716(6) 0.2526(6) -0.0514(7)
H35 H 0.8138 0.2860 -0.0739
H36 H 0.7870 0.1927 -0.0821
H37 H 0.7825 0.2384 0.0064
C47 C -0.1797(5) 0.0777(4) 0.5839(4)
H38 H -0.1877 0.1189 0.6295
C48 C -0.5597(4) 0.7446(4) 0.2486(3)
H39 H -0.6233 0.7440 0.2619
C49 C -0.1577(6) -0.0485(4) 0.4447(5)
H40 H -0.1482 -0.0904 0.3994
C50 C 0.4869(5) 0.3483(5) -0.0324(4)
H41 H 0.4815 0.4109 -0.0546
H42 H 0.4555 0.3567 0.0235
H43 H 0.4544 0.3184 -0.0668
C51 C 0.1032(5) -0.0187(6) 0.2001(4)
H44 H 0.1633 -0.0568 0.2209
C52 C -0.1627(6) -0.0784(5) 0.5267(5)
H45 H -0.1592 -0.1421 0.5364
O7 O -0.5027(3) 0.9449(2) 0.0813(2)
O8 O 0.2007(3) 0.0129(3) -0.0086(2)
Eu1_2 Eu -0.386993(17) 1.043082(17) 0.023840(15)
Eu1A Eu -0.613007(17) 0.956918(17) -0.023840(15)
Eu1A_2 Eu 0.386993(17) -0.043082(17) -0.023840(15)
O1_2 O 0.6364(3) -0.0755(3) 0.1381(2)
O2A O 0.6669(3) -0.1149(2) -0.0396(2)
O3A O 0.7216(3) 0.0361(3) -0.1062(2)
O7_2 O 0.4973(3) -0.0551(2) 0.0813(2)
O7A O 0.5027(3) 0.0551(2) -0.0813(2)
O8A O 0.7993(3) -0.0129(3) 0.0086(2)
loop_
_geom_bond_atom_site_label_1
_geom_bond_atom_site_label_2
_geom_bond_site_symmetry_1
_geom_bond_site_symmetry_2
Eu1 O4 1_555 1_555
Tb1 O4 1_555 1_555
Cd1 Cl1 1_555 1_555
O1 C41 1_555 1_555
O2 C9 1_555 1_555
O3 C37 1_555 1_555
N1 Cd1 1_555 1_555
C1 C2 1_555 1_555
C2 C3 1_555 1_555
C3 H1 1_555 1_555
C4 C3 1_555 1_555
H2 C4 1_555 1_555
C5 C4 1_555 1_555
H3 C5 1_555 1_555
C6 C1 1_555 1_555
H4 C6 1_555 1_555
N2 C2 1_555 1_555
O4 C9 1_555 1_555
O5 Eu1 1_555 1_555
N3 C10 1_555 1_555
O6 Eu1 1_555 1_555
C7 C39 1_555 1_555
N4 Cd1 1_555 1_555
N5 Cd1 1_555 1_555
N6 Cd1 1_555 1_555
C8 N4 1_555 1_555
C9 C21 1_555 1_555
C10 H5 1_555 1_555
H6 C10 1_555 1_555
C11 N3 1_555 1_555
C12 H7 1_555 1_555
C13 N1 1_555 1_555
H8 C13 1_555 1_555
H9 C13 1_555 1_555
C14 C32 1_555 1_555
N7 C20 1_555 1_555
C15 H10 1_555 1_555
C16 H11 1_555 1_555
C17 N1 1_555 1_555
H12 C17 1_555 1_555
H13 C17 1_555 1_555
C18 C34 1_555 1_555
C19 N3 1_555 1_555
C20 C22 1_555 1_555
C21 C29 1_555 1_555
C22 N6 1_555 1_555
C23 C10 1_555 1_555
C24 N1 1_555 1_555
H14 C24 1_555 1_555
H15 C24 1_555 1_555
C25 N2 1_555 1_555
C26 N6 1_555 1_555
N8 C44 1_555 1_555
C27 N7 1_555 1_555
H16 C27 1_555 1_555
H17 C27 1_555 1_555
C28 C27 1_555 1_555
C29 C12 1_555 1_555
H18 C29 1_555 1_555
C30 C8 1_555 1_555
H19 C30 1_555 1_555
C31 C23 1_555 1_555
H20 C31 1_555 1_555
C32 H21 1_555 1_555
C33 C28 1_555 1_555
H22 C33 1_555 1_555
C34 C33 1_555 1_555
H23 C34 1_555 1_555
C35 N2 1_555 1_555
H24 C35 1_555 1_555
H25 C35 1_555 1_555
C36 C16 1_555 1_555
H26 C36 1_555 1_555
C37 C18 1_555 1_555
C38 C30 1_555 1_555
H27 C38 1_555 1_555
C39 C32 1_555 1_555
H28 C39 1_555 1_555
C40 C21 1_555 1_555
H29 C40 1_555 1_555
C41 C7 1_555 1_555
C42 C7 1_555 1_555
H30 C42 1_555 1_555
C43 C28 1_555 1_555
H31 C43 1_555 1_555
C44 H32 1_555 1_555
H33 C44 1_555 1_555
H34 C44 1_555 1_555
C45 O6 1_555 1_555
C46 N8 1_555 1_555
H35 C46 1_555 1_555
H36 C46 1_555 1_555
H37 C46 1_555 1_555
C47 C15 1_555 1_555
H38 C47 1_555 1_555
C48 C14 1_555 1_555
H39 C48 1_555 1_555
C49 C20 1_555 1_555
H40 C49 1_555 1_555
C50 C45 1_555 1_555
H41 C50 1_555 1_555
H42 C50 1_555 1_555
H43 C50 1_555 1_555
C51 C18 1_555 1_555
H44 C51 1_555 1_555
C52 C15 1_555 1_555
H45 C52 1_555 1_555
O7 C41 1_555 1_555
O8 C37 1_555 1_555
N9 O9 1_555 1_555
O10 N9 1_555 1_555
O11 N9 1_555 1_555
O12 C56 1_555 1_555
N10 C53 1_555 1_555
C53 H46 1_555 1_555
H47 C53 1_555 1_555
H48 C53 1_555 1_555
C54 H49 1_555 1_555
H50 C54 1_555 1_555
H51 C54 1_555 1_555
C55 N10 1_555 1_555
H52 C55 1_555 1_555
H53 C55 1_555 1_555
H54 C55 1_555 1_555
C56 N10 1_555 1_555
C57 H55 1_555 1_555
H56 C57 1_555 1_555
H57 C57 1_555 1_555
C58 H58 1_555 1_555
H59 C58 1_555 1_555
H60 C58 1_555 1_555
C59 C57 1_555 1_555
O13 C59 1_555 1_555
C60 H61 1_555 1_555
H62 C60 1_555 1_555
H63 C60 1_555 1_555
N11 C58 1_555 1_555
Eu1_2 O1 1_555 1_555
Eu1A O7 1_555 1_555
Eu1A_2 O2 1_555 1_555
O1_2 Eu1 1_555 1_555
O2A Eu1 1_555 1_555
O3A Eu1 1_555 1_555
O7_2 Eu1 1_555 1_555
O7A Eu1 1_555 1_555
O8A Eu1 1_555 1_555
Tb1 O5 1_555 1_555
Tb1 O6 1_555 1_555
Tb1 O1_2 1_555 1_555
Tb1 O2A 1_555 1_555
Tb1 O3A 1_555 1_555
Tb1 O7_2 1_555 1_555
Tb1 O7A 1_555 1_555
Tb1 O8A 1_555 1_555
O3 Eu1A_2 1_555 1_555
C1 N5 1_555 1_555
C5 C6 1_555 1_555
N4 C11 1_555 1_555
N5 C25 1_555 1_555
C8 C19 1_555 1_555
C11 C13 1_555 1_555
C12 C23 1_555 1_555
C14 C35 1_555 1_555
N7 C26 1_555 1_555
C16 C19 1_555 1_555
C17 C26 1_555 1_555
C22 C47 1_555 1_555
C24 C25 1_555 1_555
N8 C45 1_555 1_555
C31 C40 1_555 1_555
C36 C38 1_555 1_555
C42 C48 1_555 1_555
C43 C51 1_555 1_555
C49 C52 1_555 1_555
O7 Eu1_2 1_555 1_555
O8 Eu1A_2 1_555 1_555
C54 C56 1_555 1_555
C59 N11 1_555 1_555
C60 N11 1_555 1_555
Eu1A_2 O7_2 1_555 1_555
Eu1A_2 O7A 1_555 1_555

#END
