
#######################################################################
#
#                 Cambridge Crystallographic Data Centre
#                                CCDC 
#
#######################################################################
#
# If this CIF has been generated from an entry in the Cambridge 
# Structural Database, then it will include bibliographic, chemical, 
# crystal, experimental, refinement or atomic coordinate data resulting 
# from the CCDC's data processing and validation procedures.
#
#######################################################################

data_VOKWID
_symmetry_cell_setting           monoclinic
_symmetry_space_group_name_H-M   'C 2/c'
_symmetry_Int_Tables_number      15
_space_group_name_Hall           '-C 2yn'
loop_
_symmetry_equiv_pos_site_id
_symmetry_equiv_pos_as_xyz
1 x,y,z
2 -x,y,1/2-z
3 1/2+x,1/2+y,z
4 1/2-x,1/2+y,1/2-z
5 -x,-y,-z
6 x,-y,1/2+z
7 1/2-x,1/2-y,-z
8 1/2+x,1/2-y,1/2+z
_cell_length_a                   47.125(3)
_cell_length_b                   13.7727(9)
_cell_length_c                   22.1743(14)
_cell_angle_alpha                90
_cell_angle_beta                 92.3240(10)
_cell_angle_gamma                90
_cell_volume                     14380.1
loop_
_atom_site_label
_atom_site_type_symbol
_atom_site_fract_x
_atom_site_fract_y
_atom_site_fract_z
Cs1 Cs 0.13186(2) 0.86591(2) 0.69125(2)
N1 N 0.10925(4) 0.78976(15) 0.56880(9)
N2 N 0.14271(4) 0.69470(14) 0.61652(8)
N3 N 0.10563(5) 0.62323(15) 0.55067(9)
C1 C 0.08466(5) 0.80278(17) 0.53100(10)
C2 C 0.05704(5) 0.78904(18) 0.55193(11)
C3 C 0.03357(5) 0.80430(18) 0.51298(11)
H1 H 0.0152 0.7908 0.5270
C4 C 0.03595(6) 0.83882(19) 0.45400(11)
C5 C 0.06339(6) 0.86182(18) 0.43633(11)
H2 H 0.0657 0.8897 0.3976
C6 C 0.08734(5) 0.84519(18) 0.47343(11)
C7 C 0.05368(5) 0.76896(18) 0.61921(10)
H3 H 0.0700 0.7264 0.6323
C8 C 0.02673(6) 0.7148(2) 0.63540(11)
C9 C 0.00026(6) 0.7603(3) 0.63331(13)
H4 H -0.0012 0.8265 0.6217
C10 C -0.02404(7) 0.7094(3) 0.64808(16)
H5 H -0.0420 0.7407 0.6457
C11 C -0.02206(9) 0.6139(3) 0.66619(16)
H6 H -0.0387 0.5795 0.6763
C12 C 0.00393(8) 0.5683(3) 0.66971(14)
H7 H 0.0053 0.5027 0.6827
C13 C 0.02821(7) 0.6181(2) 0.65429(12)
H8 H 0.0461 0.5860 0.6566
C14 C 0.05689(6) 0.86308(19) 0.65630(11)
C15 C 0.06818(6) 0.9482(2) 0.63364(12)
H9 H 0.0726 0.9512 0.5923
C16 C 0.07311(6) 1.0294(2) 0.67032(13)
H10 H 0.0812 1.0864 0.6539
C17 C 0.06637(7) 1.0274(2) 0.73035(13)
H11 H 0.0699 1.0825 0.7554
C18 C 0.05434(8) 0.9441(2) 0.75375(14)
H12 H 0.0493 0.9423 0.7948
C19 C 0.04967(7) 0.8634(2) 0.71703(13)
H13 H 0.0414 0.8070 0.7335
C20 C 0.01024(6) 0.8579(2) 0.41110(12)
C21 C 0.01418(7) 0.8046(3) 0.35136(13)
H14 H 0.0146 0.7344 0.3586
H15 H 0.0321 0.8251 0.3342
H16 H -0.0017 0.8203 0.3230
C22 C 0.00792(7) 0.9680(2) 0.39843(14)
H17 H -0.0078 0.9801 0.3692
H18 H 0.0257 0.9913 0.3820
H19 H 0.0044 1.0025 0.4361
C23 C -0.01766(6) 0.8259(3) 0.43762(14)
H20 H -0.0334 0.8384 0.4083
H21 H -0.0207 0.8624 0.4747
H22 H -0.0168 0.7563 0.4468
C24 C 0.11633(5) 0.88614(18) 0.45894(11)
H23 H 0.1307 0.8427 0.4794
C25 C 0.12352(5) 0.88915(19) 0.39245(11)
C26 C 0.14100(6) 0.9624(2) 0.37095(12)
H24 H 0.1466 1.0146 0.3967
C27 C 0.15018(6) 0.9594(2) 0.31232(13)
H25 H 0.1622 1.0094 0.2985
C28 C 0.14207(7) 0.8847(2) 0.27375(13)
H26 H 0.1484 0.8834 0.2336
C29 C 0.12463(6) 0.8116(2) 0.29425(12)
H27 H 0.1190 0.7597 0.2682
C30 C 0.11536(6) 0.8142(2) 0.35316(11)
H28 H 0.1033 0.7642 0.3667
C31 C 0.11904(6) 0.98476(19) 0.49036(11)
C32 C 0.13905(6) 0.9974(2) 0.53792(11)
H29 H 0.1514 0.9455 0.5495
C33 C 0.14100(7) 1.0857(2) 0.56851(13)
H30 H 0.1549 1.0938 0.6004
C34 C 0.12297(8) 1.1616(2) 0.55283(16)
H31 H 0.1244 1.2216 0.5738
C35 C 0.10295(8) 1.1490(2) 0.50647(16)
H32 H 0.0904 1.2007 0.4955
C36 C 0.10095(7) 1.0609(2) 0.47549(14)
H33 H 0.0870 1.0532 0.4438
C37 C 0.15638(5) 0.60813(18) 0.63237(10)
C38 C 0.18605(5) 0.60190(19) 0.62572(10)
C39 C 0.20049(5) 0.51639(19) 0.64077(11)
H34 H 0.2203 0.5128 0.6344
C40 C 0.18708(5) 0.43626(19) 0.66469(11)
C41 C 0.15837(5) 0.44741(19) 0.67753(11)
H35 H 0.1490 0.3956 0.6967
C42 C 0.14313(5) 0.53132(18) 0.66323(10)
C43 C 0.20184(5) 0.69189(19) 0.60438(11)
H36 H 0.1911 0.7162 0.5676
C44 C 0.23206(5) 0.6693(2) 0.58526(11)
C45 C 0.25612(6) 0.6925(2) 0.62054(13)
H37 H 0.2542 0.7261 0.6575
C46 C 0.28314(6) 0.6670(3) 0.60228(14)
H38 H 0.2994 0.6835 0.6268
C47 C 0.28629(6) 0.6179(2) 0.54886(14)
H39 H 0.3046 0.6003 0.5364
C48 C 0.26246(6) 0.5948(3) 0.51366(13)
H40 H 0.2644 0.5602 0.4770
C49 C 0.23569(6) 0.6213(2) 0.53118(13)
H41 H 0.2196 0.6065 0.5057
C50 C 0.20183(5) 0.7739(2) 0.65067(12)
C51 C 0.20232(6) 0.8700(2) 0.63120(14)
H42 H 0.2008 0.8839 0.5892
C52 C 0.20507(7) 0.9462(2) 0.67265(17)
H43 H 0.2057 1.0114 0.6587
C53 C 0.20690(6) 0.9273(3) 0.73371(16)
H44 H 0.2092 0.9790 0.7618
C54 C 0.20533(6) 0.8330(3) 0.75366(14)
H45 H 0.2058 0.8200 0.7958
C55 C 0.20308(5) 0.7563(2) 0.71257(12)
H46 H 0.2024 0.6915 0.7270
C56 C 0.20223(6) 0.3400(2) 0.67773(13)
C57 C 0.20442(8) 0.3218(3) 0.74617(14)
H47 H 0.2163 0.3721 0.7656
H48 H 0.2129 0.2579 0.7541
H49 H 0.1854 0.3238 0.7625
C58 C 0.23187(7) 0.3381(2) 0.65232(18)
H50 H 0.2305 0.3532 0.6091
H51 H 0.2402 0.2735 0.6583
H52 H 0.2439 0.3865 0.6733
C59 C 0.18529(7) 0.2570(2) 0.64739(14)
H53 H 0.1661 0.2558 0.6626
H54 H 0.1947 0.1951 0.6566
H55 H 0.1842 0.2671 0.6036
C60 C 0.11425(5) 0.55050(18) 0.69002(10)
H56 H 0.1029 0.5881 0.6589
C61 C 0.09706(5) 0.45941(18) 0.70256(11)
C62 C 0.09331(6) 0.3904(2) 0.65649(12)
H57 H 0.1032 0.3975 0.6203
C63 C 0.07538(6) 0.3119(2) 0.66311(13)
H58 H 0.0730 0.2660 0.6313
C64 C 0.06082(6) 0.2994(2) 0.71565(14)
H59 H 0.0482 0.2461 0.7197
C65 C 0.06483(7) 0.3656(2) 0.76213(13)
H60 H 0.0553 0.3570 0.7986
C66 C 0.08283(5) 0.44469(19) 0.75571(11)
H61 H 0.0855 0.4894 0.7881
C67 C 0.11840(6) 0.61803(18) 0.74487(11)
C68 C 0.14422(6) 0.62396(19) 0.77779(11)
H62 H 0.1596 0.5836 0.7671
C69 C 0.14782(6) 0.6884(2) 0.82621(11)
H63 H 0.1656 0.6921 0.8477
C70 C 0.12555(6) 0.7466(2) 0.84292(11)
H64 H 0.1279 0.7899 0.8761
C71 C 0.09980(6) 0.7411(2) 0.81088(12)
H65 H 0.0845 0.7814 0.8219
C72 C 0.09610(6) 0.6773(2) 0.76266(11)
H66 H 0.0782 0.6738 0.7415
C73 C 0.10709(6) 0.57173(19) 0.50303(12)
C74 C 0.13448(6) 0.5583(2) 0.46577(12)
C75 C 0.12941(6) 0.5395(2) 0.39747(11)
H67 H 0.1195 0.5952 0.3789
H68 H 0.1178 0.4810 0.3915
H69 H 0.1477 0.5303 0.3787
C76 C 0.15100(6) 0.4712(2) 0.49339(12)
H70 H 0.1691 0.4640 0.4734
H71 H 0.1397 0.4120 0.4876
H72 H 0.1547 0.4824 0.5366
C77 C 0.15347(6) 0.6484(2) 0.46986(12)
H73 H 0.1583 0.6627 0.5123
H74 H 0.1434 0.7038 0.4515
H75 H 0.1709 0.6363 0.4484
C78 C 0.07942(6) 0.5149(2) 0.48521(11)
C79 C 0.05790(6) 0.5240(2) 0.53535(12)
H76 H 0.0404 0.4894 0.5232
H77 H 0.0536 0.5927 0.5420
H78 H 0.0660 0.4956 0.5727
C80 C 0.06510(6) 0.5633(2) 0.42872(12)
H79 H 0.0764 0.5504 0.3935
H80 H 0.0639 0.6336 0.4352
H81 H 0.0460 0.5367 0.4218
C81 C 0.08358(7) 0.4056(2) 0.47396(13)
H82 H 0.0919 0.3752 0.5105
H83 H 0.0963 0.3965 0.4406
H84 H 0.0652 0.3756 0.4636
C82 C 0.12038(5) 0.70206(18) 0.57780(10)
Cs1E Cs 0.13186(2) 1.13409(2) 0.19125(2)
C27E C 0.15018(6) 1.0406(2) 0.81232(13)
O1 O 0.21016(4) 0.69447(16) 0.90767(9)
C83 C 0.22730(7) 0.6099(3) 0.91522(16)
H85 H 0.2223 0.5752 0.9524
H86 H 0.2476 0.6285 0.9191
C84 C 0.22240(8) 0.5455(3) 0.8618(2)
H87 H 0.2022 0.5293 0.8574
H88 H 0.2335 0.4858 0.8674
H89 H 0.2283 0.5791 0.8254
C85 C 0.21164(7) 0.7566(3) 0.95831(14)
H90 H 0.2314 0.7794 0.9655
H91 H 0.2059 0.7207 0.9945
C86 C 0.19250(9) 0.8416(3) 0.94776(18)
H92 H 0.1979 0.8759 0.9112
H93 H 0.1942 0.8858 0.9824
H94 H 0.1728 0.8191 0.9428
loop_
_geom_bond_atom_site_label_1
_geom_bond_atom_site_label_2
_geom_bond_site_symmetry_1
_geom_bond_site_symmetry_2
Cs1 N1 1_555 1_555
N1 C1 1_555 1_555
N2 Cs1 1_555 1_555
N3 C73 1_555 1_555
C1 C2 1_555 1_555
C2 C3 1_555 1_555
C3 H1 1_555 1_555
C4 C3 1_555 1_555
C5 C4 1_555 1_555
H2 C5 1_555 1_555
C6 C1 1_555 1_555
C7 C2 1_555 1_555
H3 C7 1_555 1_555
C8 C7 1_555 1_555
C9 C8 1_555 1_555
H4 C9 1_555 1_555
C10 C9 1_555 1_555
H5 C10 1_555 1_555
C11 C10 1_555 1_555
H6 C11 1_555 1_555
C12 C11 1_555 1_555
H7 C12 1_555 1_555
C13 C8 1_555 1_555
H8 C13 1_555 1_555
C14 Cs1 1_555 1_555
C15 Cs1 1_555 1_555
H9 C15 1_555 1_555
C16 Cs1 1_555 1_555
H10 C16 1_555 1_555
C17 C16 1_555 1_555
H11 C17 1_555 1_555
C18 C17 1_555 1_555
H12 C18 1_555 1_555
C19 C14 1_555 1_555
H13 C19 1_555 1_555
C20 C4 1_555 1_555
C21 C20 1_555 1_555
H14 C21 1_555 1_555
H15 C21 1_555 1_555
H16 C21 1_555 1_555
C22 C20 1_555 1_555
H17 C22 1_555 1_555
H18 C22 1_555 1_555
H19 C22 1_555 1_555
C23 C20 1_555 1_555
H20 C23 1_555 1_555
H21 C23 1_555 1_555
H22 C23 1_555 1_555
C24 C6 1_555 1_555
H23 C24 1_555 1_555
C25 C24 1_555 1_555
C26 C25 1_555 1_555
H24 C26 1_555 1_555
C27 C26 1_555 1_555
H25 C27 1_555 1_555
C28 C27 1_555 1_555
H26 C28 1_555 1_555
C29 C28 1_555 1_555
H27 C29 1_555 1_555
C30 C25 1_555 1_555
H28 C30 1_555 1_555
C31 C24 1_555 1_555
C32 C31 1_555 1_555
H29 C32 1_555 1_555
C33 C32 1_555 1_555
H30 C33 1_555 1_555
C34 C33 1_555 1_555
H31 C34 1_555 1_555
C35 C34 1_555 1_555
H32 C35 1_555 1_555
C36 C31 1_555 1_555
H33 C36 1_555 1_555
C37 N2 1_555 1_555
C38 C37 1_555 1_555
C39 C38 1_555 1_555
H34 C39 1_555 1_555
C40 C39 1_555 1_555
C41 C40 1_555 1_555
H35 C41 1_555 1_555
C42 C37 1_555 1_555
C43 C38 1_555 1_555
H36 C43 1_555 1_555
C44 C43 1_555 1_555
C45 C44 1_555 1_555
H37 C45 1_555 1_555
C46 C45 1_555 1_555
H38 C46 1_555 1_555
C47 C46 1_555 1_555
H39 C47 1_555 1_555
C48 C47 1_555 1_555
H40 C48 1_555 1_555
C49 C44 1_555 1_555
H41 C49 1_555 1_555
C50 Cs1 1_555 1_555
C51 Cs1 1_555 1_555
H42 C51 1_555 1_555
C52 Cs1 1_555 1_555
H43 C52 1_555 1_555
C53 Cs1 1_555 1_555
H44 C53 1_555 1_555
C54 Cs1 1_555 1_555
H45 C54 1_555 1_555
C55 Cs1 1_555 1_555
H46 C55 1_555 1_555
C56 C40 1_555 1_555
C57 C56 1_555 1_555
H47 C57 1_555 1_555
H48 C57 1_555 1_555
H49 C57 1_555 1_555
C58 C56 1_555 1_555
H50 C58 1_555 1_555
H51 C58 1_555 1_555
H52 C58 1_555 1_555
C59 C56 1_555 1_555
H53 C59 1_555 1_555
H54 C59 1_555 1_555
H55 C59 1_555 1_555
C60 C42 1_555 1_555
H56 C60 1_555 1_555
C61 C60 1_555 1_555
C62 C61 1_555 1_555
H57 C62 1_555 1_555
C63 C62 1_555 1_555
H58 C63 1_555 1_555
C64 C63 1_555 1_555
H59 C64 1_555 1_555
C65 C64 1_555 1_555
H60 C65 1_555 1_555
C66 C61 1_555 1_555
H61 C66 1_555 1_555
C67 Cs1 1_555 1_555
C68 C67 1_555 1_555
H62 C68 1_555 1_555
C69 C68 1_555 1_555
H63 C69 1_555 1_555
C70 C69 1_555 1_555
H64 C70 1_555 1_555
C71 Cs1 1_555 1_555
H65 C71 1_555 1_555
C72 Cs1 1_555 1_555
H66 C72 1_555 1_555
C73 C74 1_555 1_555
C74 C75 1_555 1_555
C75 H67 1_555 1_555
H68 C75 1_555 1_555
H69 C75 1_555 1_555
C76 C74 1_555 1_555
H70 C76 1_555 1_555
H71 C76 1_555 1_555
H72 C76 1_555 1_555
C77 C74 1_555 1_555
H73 C77 1_555 1_555
H74 C77 1_555 1_555
H75 C77 1_555 1_555
C78 C73 1_555 1_555
C79 C78 1_555 1_555
H76 C79 1_555 1_555
H77 C79 1_555 1_555
H78 C79 1_555 1_555
C80 C78 1_555 1_555
H79 C80 1_555 1_555
H80 C80 1_555 1_555
H81 C80 1_555 1_555
C81 C78 1_555 1_555
H82 C81 1_555 1_555
H83 C81 1_555 1_555
H84 C81 1_555 1_555
C82 N1 1_555 1_555
O1 C83 1_555 1_555
C83 H85 1_555 1_555
H86 C83 1_555 1_555
C84 C83 1_555 1_555
H87 C84 1_555 1_555
H88 C84 1_555 1_555
H89 C84 1_555 1_555
C85 O1 1_555 1_555
H90 C85 1_555 1_555
H91 C85 1_555 1_555
C86 C85 1_555 1_555
H92 C86 1_555 1_555
H93 C86 1_555 1_555
H94 C86 1_555 1_555
Cs1E C27 1_555 1_555
C27E Cs1 1_555 1_555
N2 C82 1_555 1_555
N3 C82 1_555 1_555
C5 C6 1_555 1_555
C7 C14 1_555 1_555
C12 C13 1_555 1_555
C14 C15 1_555 1_555
C15 C16 1_555 1_555
C18 C19 1_555 1_555
C29 C30 1_555 1_555
C35 C36 1_555 1_555
C41 C42 1_555 1_555
C43 C50 1_555 1_555
C48 C49 1_555 1_555
C50 C51 1_555 1_555
C50 C55 1_555 1_555
C51 C52 1_555 1_555
C52 C53 1_555 1_555
C53 C54 1_555 1_555
C54 C55 1_555 1_555
C60 C67 1_555 1_555
C65 C66 1_555 1_555
C67 C72 1_555 1_555
C70 C71 1_555 1_555
C71 C72 1_555 1_555

#END
