
#######################################################################
#
#                 Cambridge Crystallographic Data Centre
#                                CCDC 
#
#######################################################################
#
# If this CIF has been generated from an entry in the Cambridge 
# Structural Database, then it will include bibliographic, chemical, 
# crystal, experimental, refinement or atomic coordinate data resulting 
# from the CCDC's data processing and validation procedures.
#
#######################################################################

data_VOKZOM
_symmetry_cell_setting           triclinic
_symmetry_space_group_name_H-M   'P -1'
_symmetry_Int_Tables_number      2
_space_group_name_Hall           '-P 1'
loop_
_symmetry_equiv_pos_site_id
_symmetry_equiv_pos_as_xyz
1 x,y,z
2 -x,-y,-z
_cell_length_a                   8.149(2)
_cell_length_b                   12.850(4)
_cell_length_c                   15.218(4)
_cell_angle_alpha                91.946(4)
_cell_angle_beta                 94.533(5)
_cell_angle_gamma                101.076(6)
_cell_volume                     1557.01
loop_
_atom_site_label
_atom_site_type_symbol
_atom_site_fract_x
_atom_site_fract_y
_atom_site_fract_z
Cd1 Cd 0.77233(4) 0.55673(3) 0.04808(2)
N1 N 0.3844(5) 0.6136(4) -0.0260(3)
N2 N 0.5535(5) 0.6392(3) 0.0075(3)
N3 N 0.4450(6) 0.7827(3) 0.0144(3)
N4 N 0.4351(7) 0.8865(4) 0.0416(4)
H1 H 0.3764 0.9116 -0.0014
H2 H 0.3719 0.8733 0.0860
N5 N 0.7275(6) 0.7969(4) 0.0741(3)
H3 H 0.7340 0.8602 0.0996
N6 N 0.8693(6) 0.7457(3) 0.0740(3)
H4 H 0.9325 0.7594 0.1274
H5 H 0.9358 0.7718 0.0305
N7 N 1.1350(5) 0.4530(4) 0.0919(3)
N8 N 0.9985(5) 0.4946(3) 0.1152(3)
N9 N 1.1552(6) 0.4791(4) 0.2359(3)
N10 N 1.2109(6) 0.4878(4) 0.3264(3)
H6 H 1.1590 0.4267 0.3444
H7 H 1.3195 0.4963 0.3418
N11 N 0.9114(6) 0.5532(4) 0.2521(3)
H8 H 0.9390 0.5764 0.3074
N12 N 0.7529(6) 0.5574(4) 0.2061(3)
H9 H 0.7182 0.6180 0.2244
H10 H 0.6743 0.4998 0.2193
C1 C 0.3243(7) 0.7007(4) -0.0214(4)
H11 H 0.2124 0.7060 -0.0403
C2 C 0.5844(6) 0.7417(4) 0.0327(3)
C3 C 1.2266(6) 0.4447(4) 0.1649(3)
H12 H 1.3281 0.4185 0.1682
C4 C 1.0158(6) 0.5098(4) 0.2021(3)
Cd1A Cd 0.22767(4) 0.44327(3) -0.04808(2)
Cd1A_2 Cd 1.22767(4) 0.44327(3) -0.04808(2)
N1A N 0.6156(5) 0.3864(4) 0.0260(3)
N7A N 0.8650(5) 0.5470(4) -0.0919(3)
Cd2 Cd 0.72362(4) 0.94632(3) 0.45467(2)
N13 N 0.3741(5) 1.0618(3) 0.4057(3)
N14 N 0.5035(5) 1.0102(3) 0.3836(3)
N15 N 0.3954(6) 1.0686(4) 0.2634(3)
N16 N 0.3839(7) 1.0946(4) 0.1741(3)
H13 H 0.2790 1.0776 0.1520
H14 H 0.4171 1.1639 0.1769
N17 N 0.6160(6) 0.9736(4) 0.2481(3)
H15 H 0.5940 0.9565 0.1913
N18 N 0.7645(7) 0.9588(5) 0.2981(3)
H16 H 0.8504 1.0149 0.2907
H17 H 0.7948 0.8978 0.2774
N19 N 1.1192(6) 0.8862(3) 0.5091(3)
N20 N 0.9490(5) 0.8642(3) 0.4786(3)
N21 N 1.0468(6) 0.7167(3) 0.4722(3)
N22 N 1.0407(7) 0.6069(4) 0.4623(4)
H18 H 1.0816 0.5799 0.5098
H19 H 1.0976 0.5944 0.4171
N23 N 0.7598(6) 0.7056(3) 0.4222(3)
H20 H 0.7475 0.6415 0.3971
N24 N 0.6238(5) 0.7593(3) 0.4285(3)
H21 H 0.5622 0.7332 0.4739
H22 H 0.5545 0.7469 0.3770
C5 C 0.3122(7) 1.0956(4) 0.3333(3)
H23 H 0.2227 1.1334 0.3293
C6 C 0.5116(6) 1.0171(4) 0.2978(3)
C7 C 1.1740(7) 0.7969(4) 0.5040(4)
H24 H 1.2859 0.7893 0.5201
C8 C 0.9100(6) 0.7611(4) 0.4580(4)
Cd2A Cd 0.27638(4) 1.05368(3) 0.54533(2)
Cd2A_2 Cd 1.27638(4) 1.05368(3) 0.54533(2)
N13A N 0.6259(5) 0.9382(3) 0.5943(3)
N19A N 0.8808(6) 1.1138(3) 0.4909(3)
N25 N 0.5677(6) 1.4242(4) 0.4240(3)
O1 O 0.4706(6) 1.3367(4) 0.3997(3)
O2 O 0.5975(6) 1.4941(3) 0.3702(3)
O3 O 0.6322(6) 1.4369(5) 0.5017(3)
N26 N 1.0533(7) 0.9378(4) -0.0995(3)
O4 O 1.2079(6) 0.9716(4) -0.0884(3)
O5 O 0.9914(7) 0.8445(4) -0.0842(3)
O6 O 0.9632(7) 0.9989(5) -0.1284(6)
N27 N 0.9129(7) 0.2605(5) 0.3049(4)
O7 O 0.8611(6) 0.3421(4) 0.3296(5)
O8 O 1.0585(7) 0.2530(4) 0.3298(4)
O9 O 0.8198(9) 0.1899(6) 0.2601(4)
O10 O 0.5315(6) 1.3182(4) 0.2209(3)
H25 H 0.5378 1.3429 0.2738
H26 H 0.6237 1.3019 0.2103
N28 N 0.3452(9) 0.7243(5) 0.2387(4)
O11 O 0.4768(7) 0.6846(5) 0.2411(4)
O12 O 0.2975(7) 0.7546(6) 0.3089(4)
O13 O 0.2642(9) 0.7308(7) 0.1662(4)
N29? N 0.1409(15) 0.7855(12) 0.2559(7)
O14? O 0.0092(15) 0.8254(12) 0.2561(8)
O15? O 0.2279(16) 0.7827(15) 0.3264(7)
O16? O 0.200(2) 0.7672(16) 0.1842(7)
loop_
_geom_bond_atom_site_label_1
_geom_bond_atom_site_label_2
_geom_bond_site_symmetry_1
_geom_bond_site_symmetry_2
Cd1 N2 1_555 1_555
N1 N2 1_555 1_555
N2 C2 1_555 1_555
N3 N4 1_555 1_555
N4 H1 1_555 1_555
H2 N4 1_555 1_555
N5 H3 1_555 1_555
N6 Cd1 1_555 1_555
H4 N6 1_555 1_555
H5 N6 1_555 1_555
N7 N8 1_555 1_555
N8 Cd1 1_555 1_555
N9 N10 1_555 1_555
N10 H6 1_555 1_555
H7 N10 1_555 1_555
N11 H8 1_555 1_555
N12 Cd1 1_555 1_555
H9 N12 1_555 1_555
H10 N12 1_555 1_555
C1 N1 1_555 1_555
H11 C1 1_555 1_555
C2 N3 1_555 1_555
C3 N7 1_555 1_555
H12 C3 1_555 1_555
C4 N8 1_555 1_555
Cd2 N14 1_555 1_555
N13 N14 1_555 1_555
N14 C6 1_555 1_555
N15 N16 1_555 1_555
N16 H13 1_555 1_555
H14 N16 1_555 1_555
N17 H15 1_555 1_555
N18 Cd2 1_555 1_555
H16 N18 1_555 1_555
H17 N18 1_555 1_555
N19 N20 1_555 1_555
N20 Cd2 1_555 1_555
N21 N22 1_555 1_555
N22 H18 1_555 1_555
H19 N22 1_555 1_555
N23 H20 1_555 1_555
N24 Cd2 1_555 1_555
H21 N24 1_555 1_555
H22 N24 1_555 1_555
C5 N13 1_555 1_555
H23 C5 1_555 1_555
C6 N15 1_555 1_555
C7 N19 1_555 1_555
H24 C7 1_555 1_555
C8 N20 1_555 1_555
N25 O1 1_555 1_555
O2 N25 1_555 1_555
O3 N25 1_555 1_555
N26 O4 1_555 1_555
O5 N26 1_555 1_555
O6 N26 1_555 1_555
N27 O7 1_555 1_555
O8 N27 1_555 1_555
O9 N27 1_555 1_555
O10 H25 1_555 1_555
H26 O10 1_555 1_555
N28 O11 1_555 1_555
O12 N28 1_555 1_555
O13 N28 1_555 1_555
Cd1A N1 1_555 1_555
Cd1A_2 N7 1_555 1_555
N1A Cd1 1_555 1_555
N7A Cd1 1_555 1_555
Cd2A N13 1_555 1_555
Cd2A_2 N19 1_555 1_555
N13A Cd2 1_555 1_555
N19A Cd2 1_555 1_555
N3 C1 1_555 1_555
N5 N6 1_555 1_555
N5 C2 1_555 1_555
N9 C3 1_555 1_555
N9 C4 1_555 1_555
N11 N12 1_555 1_555
N11 C4 1_555 1_555
N15 C5 1_555 1_555
N17 N18 1_555 1_555
N17 C6 1_555 1_555
N21 C7 1_555 1_555
N21 C8 1_555 1_555
N23 N24 1_555 1_555
N23 C8 1_555 1_555

#END
