
#######################################################################
#
#                 Cambridge Crystallographic Data Centre
#                                CCDC 
#
#######################################################################
#
# If this CIF has been generated from an entry in the Cambridge 
# Structural Database, then it will include bibliographic, chemical, 
# crystal, experimental, refinement or atomic coordinate data resulting 
# from the CCDC's data processing and validation procedures.
#
#######################################################################

data_VOLBIJ
_symmetry_cell_setting           monoclinic
_symmetry_space_group_name_H-M   'P 21/n'
_symmetry_Int_Tables_number      14
_space_group_name_Hall           '-P 2yn'
loop_
_symmetry_equiv_pos_site_id
_symmetry_equiv_pos_as_xyz
1 x,y,z
2 1/2-x,1/2+y,1/2-z
3 -x,-y,-z
4 1/2+x,1/2-y,1/2+z
_cell_length_a                   10.1192(13)
_cell_length_b                   23.290(3)
_cell_length_c                   11.2686(14)
_cell_angle_alpha                90
_cell_angle_beta                 113.551(6)
_cell_angle_gamma                90
_cell_volume                     2434.53
loop_
_atom_site_label
_atom_site_type_symbol
_atom_site_fract_x
_atom_site_fract_y
_atom_site_fract_z
Mn1 Mn 0.61772(4) 1.018487(15) 0.79304(3)
N1 N 0.5000 1.0000 0.5000
N2 N 0.5831(3) 1.02871(10) 0.5815(2)
N3 N 0.5458(2) 0.93877(8) 0.74097(17)
N4 N 0.40961(19) 1.03811(8) 0.73864(17)
N5 N 0.6114(2) 1.00366(11) 0.99127(19)
N6 N 0.5000 1.0000 1.0000
O1 O 0.80676(17) 0.99337(7) 0.85065(16)
O2 O 0.67067(17) 1.09542(7) 0.82677(16)
C1 C 0.6167(3) 0.89643(10) 0.7197(2)
C2 C 0.5419(3) 0.84128(10) 0.6610(2)
C3 C 0.4888(3) 0.83288(11) 0.5290(3)
H1 H 0.4932 0.8624 0.4751
C4 C 0.4289(4) 0.78046(13) 0.4766(3)
H2 H 0.3928 0.7749 0.3875
C5 C 0.4225(3) 0.73715(13) 0.5548(4)
H3 H 0.3835 0.7019 0.5192
C6 C 0.4733(4) 0.74525(13) 0.6855(4)
H4 H 0.4680 0.7156 0.7386
C7 C 0.5322(3) 0.79730(12) 0.7390(3)
H5 H 0.5655 0.8028 0.8279
C8 C 0.7718(3) 0.89886(10) 0.7536(2)
C9 C 0.8576(3) 0.94606(10) 0.8203(2)
C10 C 1.0075(3) 0.94240(11) 0.8609(2)
H6 H 1.0650 0.9728 0.9066
C11 C 1.0706(3) 0.89530(12) 0.8345(3)
H7 H 1.1703 0.8940 0.8619
C12 C 0.9877(3) 0.84914(12) 0.7673(3)
H8 H 1.0314 0.8172 0.7489
C13 C 0.8416(3) 0.85089(11) 0.7282(2)
H9 H 0.7867 0.8197 0.6837
C14 C 0.3936(3) 0.93347(10) 0.7212(2)
H10 H 0.3872 0.9236 0.8023
H11 H 0.3482 0.9031 0.6594
C15 C 0.3155(3) 0.98984(10) 0.6709(2)
H12 H 0.2902 0.9929 0.5786
H13 H 0.2273 0.9910 0.6855
C16 C 0.3582(3) 1.08572(10) 0.7618(2)
C17 C 0.1983(3) 1.09264(10) 0.7166(2)
C18 C 0.1171(3) 1.10759(12) 0.5894(3)
H14 H 0.1621 1.1137 0.5329
C19 C -0.0302(3) 1.11343(13) 0.5459(3)
H15 H -0.0843 1.1234 0.4601
C20 C -0.0973(3) 1.10461(13) 0.6288(4)
H16 H -0.1968 1.1084 0.5991
C21 C -0.0178(3) 1.09031(12) 0.7550(3)
H17 H -0.0636 1.0845 0.8110
C22 C 0.1301(3) 1.08432(11) 0.8000(3)
H18 H 0.1837 1.0747 0.8861
C23 C 0.4509(3) 1.13369(10) 0.8304(2)
C24 C 0.5998(3) 1.13594(10) 0.8579(2)
C25 C 0.6784(3) 1.18465(10) 0.9208(3)
H19 H 0.7757 1.1870 0.9367
C26 C 0.6152(3) 1.22866(11) 0.9595(3)
H20 H 0.6704 1.2598 1.0038
C27 C 0.4690(4) 1.22695(12) 0.9326(3)
H21 H 0.4256 1.2569 0.9584
C28 C 0.3897(3) 1.18080(11) 0.8680(3)
H22 H 0.2912 1.1805 0.8481
N2B N 0.4169(3) 0.97129(10) 0.4185(2)
N5B N 0.3886(2) 0.99634(11) 1.00873(19)
Mn1B Mn 0.38228(4) 0.981513(15) 0.20696(3)
N3B N 0.4542(2) 1.06123(8) 0.25903(17)
N4B N 0.59039(19) 0.96189(8) 0.26136(17)
O1B O 0.19324(17) 1.00663(7) 0.14935(16)
O2B O 0.32933(17) 0.90458(7) 0.17323(16)
C1B C 0.3833(3) 1.10357(10) 0.2803(2)
C2B C 0.4581(3) 1.15872(10) 0.3390(2)
C3B C 0.5112(3) 1.16712(11) 0.4710(3)
H1B H 0.5068 1.1376 0.5249
C4B C 0.5711(4) 1.21954(13) 0.5234(3)
H2B H 0.6072 1.2251 0.6125
C5B C 0.5775(3) 1.26285(13) 0.4452(4)
H3B H 0.6165 1.2981 0.4808
C6B C 0.5267(4) 1.25475(13) 0.3145(4)
H4B H 0.5320 1.2844 0.2614
C7B C 0.4678(3) 1.20270(12) 0.2610(3)
H5B H 0.4345 1.1972 0.1721
C8B C 0.2282(3) 1.10114(10) 0.2464(2)
C9B C 0.1424(3) 1.05394(10) 0.1797(2)
C10B C -0.0075(3) 1.05760(11) 0.1391(2)
H6B H -0.0650 1.0272 0.0934
C11B C -0.0706(3) 1.10470(12) 0.1655(3)
H7B H -0.1703 1.1060 0.1381
C12B C 0.0123(3) 1.15086(12) 0.2327(3)
H8B H -0.0314 1.1828 0.2511
C13B C 0.1584(3) 1.14911(11) 0.2718(2)
H9B H 0.2133 1.1803 0.3163
C14B C 0.6064(3) 1.06653(10) 0.2788(2)
H10B H 0.6128 1.0764 0.1977
H11B H 0.6518 1.0969 0.3406
C15B C 0.6845(3) 1.01016(10) 0.3291(2)
H12B H 0.7098 1.0071 0.4214
H13B H 0.7727 1.0090 0.3145
C16B C 0.6418(3) 0.91428(10) 0.2382(2)
C17B C 0.8017(3) 0.90736(10) 0.2834(2)
C18B C 0.8829(3) 0.89241(12) 0.4106(3)
H14B H 0.8379 0.8863 0.4671
C19B C 1.0302(3) 0.88657(13) 0.4541(3)
H15B H 1.0843 0.8766 0.5399
C20B C 1.0973(3) 0.89539(13) 0.3712(4)
H16B H 1.1968 0.8916 0.4009
C21B C 1.0178(3) 0.90969(12) 0.2450(3)
H17B H 1.0636 0.9155 0.1890
C22B C 0.8699(3) 0.91568(11) 0.2000(3)
H18B H 0.8163 0.9253 0.1139
C23B C 0.5491(3) 0.86631(10) 0.1696(2)
C24B C 0.4002(3) 0.86406(10) 0.1421(2)
C25B C 0.3216(3) 0.81535(10) 0.0792(3)
H19B H 0.2243 0.8130 0.0633
C26B C 0.3848(3) 0.77134(11) 0.0405(3)
H20B H 0.3296 0.7402 -0.0038
C27B C 0.5310(4) 0.77305(12) 0.0674(3)
H21B H 0.5744 0.7431 0.0416
C28B C 0.6103(3) 0.81920(11) 0.1320(3)
H22B H 0.7088 0.8195 0.1519
Mn1B_2 Mn 0.38228(4) 0.981513(15) 1.20696(3)
N5B_2 N 0.3886(2) 0.99634(11) 0.00873(19)
loop_
_geom_bond_atom_site_label_1
_geom_bond_atom_site_label_2
_geom_bond_site_symmetry_1
_geom_bond_site_symmetry_2
Mn1 N2 1_555 1_555
N1 N2 1_555 1_555
N3 Mn1 1_555 1_555
N4 Mn1 1_555 1_555
N5 Mn1 1_555 1_555
N6 N5 1_555 1_555
O1 Mn1 1_555 1_555
O2 Mn1 1_555 1_555
C1 N3 1_555 1_555
C2 C1 1_555 1_555
C3 C2 1_555 1_555
H1 C3 1_555 1_555
C4 C3 1_555 1_555
H2 C4 1_555 1_555
C5 C4 1_555 1_555
H3 C5 1_555 1_555
C6 C5 1_555 1_555
H4 C6 1_555 1_555
C7 C2 1_555 1_555
H5 C7 1_555 1_555
C8 C1 1_555 1_555
C9 O1 1_555 1_555
C10 C9 1_555 1_555
H6 C10 1_555 1_555
C11 C10 1_555 1_555
H7 C11 1_555 1_555
C12 C11 1_555 1_555
H8 C12 1_555 1_555
C13 C8 1_555 1_555
H9 C13 1_555 1_555
C14 N3 1_555 1_555
H10 C14 1_555 1_555
H11 C14 1_555 1_555
C15 N4 1_555 1_555
H12 C15 1_555 1_555
H13 C15 1_555 1_555
C16 N4 1_555 1_555
C17 C16 1_555 1_555
C18 C17 1_555 1_555
H14 C18 1_555 1_555
C19 C18 1_555 1_555
H15 C19 1_555 1_555
C20 C19 1_555 1_555
H16 C20 1_555 1_555
C21 C20 1_555 1_555
H17 C21 1_555 1_555
C22 C17 1_555 1_555
H18 C22 1_555 1_555
C23 C16 1_555 1_555
C24 O2 1_555 1_555
C25 C24 1_555 1_555
H19 C25 1_555 1_555
C26 C25 1_555 1_555
H20 C26 1_555 1_555
C27 C26 1_555 1_555
H21 C27 1_555 1_555
C28 C23 1_555 1_555
H22 C28 1_555 1_555
N2B N1 1_555 1_555
N5B N6 1_555 1_555
Mn1B N2B 1_555 1_555
N3B Mn1B 1_555 1_555
N4B Mn1B 1_555 1_555
O1B Mn1B 1_555 1_555
O2B Mn1B 1_555 1_555
C1B N3B 1_555 1_555
C2B C1B 1_555 1_555
C3B C2B 1_555 1_555
H1B C3B 1_555 1_555
C4B C3B 1_555 1_555
H2B C4B 1_555 1_555
C5B C4B 1_555 1_555
H3B C5B 1_555 1_555
C6B C5B 1_555 1_555
H4B C6B 1_555 1_555
C7B C2B 1_555 1_555
H5B C7B 1_555 1_555
C8B C1B 1_555 1_555
C9B O1B 1_555 1_555
C10B C9B 1_555 1_555
H6B C10B 1_555 1_555
C11B C10B 1_555 1_555
H7B C11B 1_555 1_555
C12B C11B 1_555 1_555
H8B C12B 1_555 1_555
C13B C8B 1_555 1_555
H9B C13B 1_555 1_555
C14B N3B 1_555 1_555
H10B C14B 1_555 1_555
H11B C14B 1_555 1_555
C15B N4B 1_555 1_555
H12B C15B 1_555 1_555
H13B C15B 1_555 1_555
C16B N4B 1_555 1_555
C17B C16B 1_555 1_555
C18B C17B 1_555 1_555
H14B C18B 1_555 1_555
C19B C18B 1_555 1_555
H15B C19B 1_555 1_555
C20B C19B 1_555 1_555
H16B C20B 1_555 1_555
C21B C20B 1_555 1_555
H17B C21B 1_555 1_555
C22B C17B 1_555 1_555
H18B C22B 1_555 1_555
C23B C16B 1_555 1_555
C24B O2B 1_555 1_555
C25B C24B 1_555 1_555
H19B C25B 1_555 1_555
C26B C25B 1_555 1_555
H20B C26B 1_555 1_555
C27B C26B 1_555 1_555
H21B C27B 1_555 1_555
C28B C23B 1_555 1_555
H22B C28B 1_555 1_555
Mn1B_2 N5B 1_555 1_555
N5B_2 Mn1B 1_555 1_555
C6 C7 1_555 1_555
C8 C9 1_555 1_555
C12 C13 1_555 1_555
C14 C15 1_555 1_555
C21 C22 1_555 1_555
C23 C24 1_555 1_555
C27 C28 1_555 1_555
C6B C7B 1_555 1_555
C8B C9B 1_555 1_555
C12B C13B 1_555 1_555
C14B C15B 1_555 1_555
C21B C22B 1_555 1_555
C23B C24B 1_555 1_555
C27B C28B 1_555 1_555

#END
