
#######################################################################
#
#                 Cambridge Crystallographic Data Centre
#                                CCDC 
#
#######################################################################
#
# If this CIF has been generated from an entry in the Cambridge 
# Structural Database, then it will include bibliographic, chemical, 
# crystal, experimental, refinement or atomic coordinate data resulting 
# from the CCDC's data processing and validation procedures.
#
#######################################################################

data_VOLBOP
_symmetry_cell_setting           orthorhombic
_symmetry_space_group_name_H-M   'P 21 21 21'
_symmetry_Int_Tables_number      19
_space_group_name_Hall           'P 2ac 2ab'
loop_
_symmetry_equiv_pos_site_id
_symmetry_equiv_pos_as_xyz
1 x,y,z
2 1/2-x,-y,1/2+z
3 -x,1/2+y,1/2-z
4 1/2+x,1/2-y,-z
_cell_length_a                   13.4912(3)
_cell_length_b                   18.9024(5)
_cell_length_c                   31.0832(7)
_cell_angle_alpha                90
_cell_angle_beta                 90
_cell_angle_gamma                90
_cell_volume                     7926.72
loop_
_atom_site_label
_atom_site_type_symbol
_atom_site_fract_x
_atom_site_fract_y
_atom_site_fract_z
Mn1 Mn 0.68771(4) 0.46062(3) 0.210961(18)
N1 N 0.4954(3) 0.55591(18) 0.11869(10)
N2 N 0.5638(2) 0.52487(17) 0.13297(10)
N3 N 0.6324(3) 0.49268(19) 0.14571(10)
N4 N 0.6046(2) 0.54414(19) 0.23105(10)
N5 N 0.8087(2) 0.52366(17) 0.20253(10)
N6 N 0.7483(3) 0.44112(19) 0.27920(11)
N7 N 0.8176(3) 0.47262(18) 0.29215(10)
O1 O 0.5813(2) 0.39984(15) 0.22252(9)
O2 O 0.7621(2) 0.38482(15) 0.18819(9)
C1 C 0.4873(3) 0.4149(2) 0.21504(12)
C2 C 0.4221(3) 0.3583(2) 0.20733(13)
H1 H 0.4466 0.3112 0.2078
C3 C 0.3227(3) 0.3703(2) 0.19908(13)
H2 H 0.2797 0.3314 0.1941
C4 C 0.2852(3) 0.4390(3) 0.19801(14)
H3 H 0.2175 0.4471 0.1914
C5 C 0.3472(3) 0.4950(2) 0.20665(13)
H4 H 0.3210 0.5416 0.2062
C6 C 0.4487(3) 0.4851(2) 0.21611(13)
C7 C 0.5081(3) 0.5461(2) 0.22955(12)
C8 C 0.4516(3) 0.6093(2) 0.24464(13)
C9 C 0.4023(3) 0.6082(2) 0.28350(14)
H5 H 0.4003 0.5658 0.2998
C10 C 0.3557(3) 0.6683(3) 0.29896(15)
H6 H 0.3221 0.6667 0.3258
C11 C 0.3575(3) 0.7308(3) 0.27565(16)
H7 H 0.3279 0.7725 0.2869
C12 C 0.4033(3) 0.7314(3) 0.23551(17)
H8 H 0.4030 0.7734 0.2188
C13 C 0.4494(3) 0.6714(2) 0.21980(14)
H9 H 0.4795 0.6721 0.1922
C14 C 0.6625(3) 0.6007(2) 0.25262(13)
H10 H 0.6993 0.5791 0.2769
H11 H 0.6153 0.6352 0.2650
C15 C 0.7372(3) 0.6416(2) 0.22443(14)
C16 C 0.8154(4) 0.6705(2) 0.25552(15)
H12 H 0.7837 0.7019 0.2765
H13 H 0.8655 0.6969 0.2393
H14 H 0.8472 0.6310 0.2707
C17 C 0.6897(4) 0.7042(2) 0.20065(17)
H15 H 0.6552 0.7346 0.2214
H16 H 0.6423 0.6865 0.1794
H17 H 0.7414 0.7316 0.1861
C18 C 0.7861(3) 0.5967(2) 0.18917(14)
H18 H 0.7416 0.5952 0.1639
H19 H 0.8485 0.6200 0.1801
C19 C 0.8538(3) 0.3714(2) 0.20080(13)
C20 C 0.8851(3) 0.3005(2) 0.20343(15)
H20 H 0.8405 0.2638 0.1957
C21 C 0.9791(3) 0.2834(2) 0.21705(16)
H21 H 0.9986 0.2351 0.2184
C22 C 1.0461(3) 0.3359(2) 0.22882(15)
H22 H 1.1099 0.3238 0.2395
C23 C 1.0182(3) 0.4059(2) 0.22479(14)
H23 H 1.0648 0.4419 0.2316
C24 C 0.9228(3) 0.4253(2) 0.21082(13)
C25 C 0.8998(3) 0.5007(2) 0.20380(12)
C26 C 0.9875(3) 0.5472(2) 0.19481(13)
C27 C 1.0240(3) 0.5502(2) 0.15315(15)
H24 H 0.9908 0.5256 0.1307
C28 C 1.1094(4) 0.5894(3) 0.14410(18)
H25 H 1.1346 0.5914 0.1156
C29 C 1.1569(4) 0.6250(3) 0.1769(2)
H26 H 1.2149 0.6517 0.1708
C30 C 1.1214(3) 0.6221(2) 0.21776(19)
H27 H 1.1553 0.6464 0.2401
C31 C 1.0356(3) 0.5837(2) 0.22742(16)
H28 H 1.0106 0.5826 0.2560
Mn2 Mn 0.93348(4) 0.53210(3) 0.370843(18)
N8 N 0.8883(3) 0.5047(2) 0.30372(11)
N9 N 1.0560(2) 0.46960(19) 0.36499(10)
N10 N 0.8507(3) 0.44756(18) 0.38992(11)
N11 N 0.9702(3) 0.5475(2) 0.44016(11)
N12 N 1.0347(2) 0.52070(19) 0.45975(10)
O3 O 1.0147(2) 0.60947(15) 0.35451(9)
O4 O 0.8243(2) 0.59265(15) 0.37652(10)
C32 C 1.0998(3) 0.6200(2) 0.37492(13)
C33 C 1.1274(3) 0.6890(2) 0.38596(15)
H29 H 1.0844 0.7270 0.3788
C34 C 1.2145(3) 0.7034(2) 0.40682(16)
H30 H 1.2308 0.7509 0.4140
C35 C 1.2791(3) 0.6491(2) 0.41753(15)
H31 H 1.3394 0.6591 0.4321
C36 C 1.2551(3) 0.5807(2) 0.40692(13)
H32 H 1.2995 0.5436 0.4142
C37 C 1.1661(3) 0.5645(2) 0.38556(13)
C38 C 1.1455(3) 0.4911(2) 0.37293(12)
C39 C 1.2335(3) 0.4440(2) 0.36672(13)
C40 C 1.2749(3) 0.4384(2) 0.32590(14)
H33 H 1.2459 0.4626 0.3023
C41 C 1.3586(4) 0.3972(3) 0.31978(16)
H34 H 1.3873 0.3935 0.2920
C42 C 1.4003(3) 0.3616(3) 0.35392(16)
H35 H 1.4570 0.3328 0.3494
C43 C 1.3605(3) 0.3674(2) 0.39428(16)
H36 H 1.3903 0.3431 0.4177
C44 C 1.2766(3) 0.4086(2) 0.40112(13)
H37 H 1.2489 0.4126 0.4291
C45 C 1.0361(3) 0.3987(2) 0.34731(14)
H38 H 1.1001 0.3760 0.3401
H39 H 0.9981 0.4039 0.3203
C46 C 0.9785(3) 0.3500(2) 0.37776(17)
C47 C 1.0504(4) 0.3085(3) 0.4068(2)
H40 H 1.0128 0.2756 0.4249
H41 H 1.0871 0.3416 0.4251
H42 H 1.0970 0.2818 0.3888
C48 C 0.9211(4) 0.2976(3) 0.3492(2)
H43 H 0.9681 0.2692 0.3324
H44 H 0.8777 0.3239 0.3295
H45 H 0.8809 0.2664 0.3673
C49 C 0.9094(3) 0.3897(2) 0.40873(15)
H46 H 0.8631 0.3551 0.4216
H47 H 0.9501 0.4095 0.4324
C50 C 0.7298(3) 0.5772(2) 0.37625(13)
C51 C 0.6620(3) 0.6331(2) 0.37100(13)
H48 H 0.6865 0.6798 0.3675
C52 C 0.5617(3) 0.6219(2) 0.37081(14)
H49 H 0.5178 0.6607 0.3671
C53 C 0.5240(3) 0.5540(3) 0.37604(15)
H50 H 0.4544 0.5464 0.3759
C54 C 0.5872(3) 0.4984(2) 0.38143(14)
H51 H 0.5604 0.4523 0.3849
C55 C 0.6916(3) 0.5072(2) 0.38198(12)
C56 C 0.7533(3) 0.4459(2) 0.39128(13)
C57 C 0.7018(3) 0.3787(2) 0.40381(13)
C58 C 0.6773(3) 0.3643(2) 0.44632(14)
H52 H 0.6907 0.3983 0.4681
C59 C 0.6332(3) 0.3002(3) 0.45701(16)
H53 H 0.6173 0.2901 0.4862
C60 C 0.6124(3) 0.2506(3) 0.42521(17)
H54 H 0.5825 0.2067 0.4326
C61 C 0.6352(3) 0.2654(3) 0.38306(16)
H55 H 0.6210 0.2315 0.3613
C62 C 0.6789(3) 0.3293(2) 0.37191(15)
H56 H 0.6933 0.3394 0.3426
Mn3 Mn 1.05742(4) 0.46861(3) 0.549447(18)
N13 N 1.0986(3) 0.4945(2) 0.47987(11)
N14 N 0.9360(2) 0.53300(18) 0.54532(10)
N15 N 1.1430(2) 0.55239(18) 0.56614(10)
O5 O 0.9805(2) 0.39266(15) 0.52880(9)
O6 O 1.1693(2) 0.41086(15) 0.55399(9)
C63 C 0.8881(3) 0.3807(2) 0.54128(13)
C64 C 0.8558(3) 0.3101(2) 0.54344(15)
H57 H 0.9001 0.2732 0.5358
C65 C 0.7608(4) 0.2936(2) 0.55649(16)
H58 H 0.7408 0.2455 0.5584
C66 C 0.6940(3) 0.3472(2) 0.56694(15)
H59 H 0.6290 0.3359 0.5765
C67 C 0.7232(3) 0.4164(2) 0.56327(14)
H60 H 0.6765 0.4527 0.5692
C68 C 0.8197(3) 0.4354(2) 0.55113(13)
C69 C 0.8452(3) 0.5108(2) 0.54621(12)
C70 C 0.7586(3) 0.5597(2) 0.54046(13)
C71 C 0.7087(3) 0.5867(2) 0.57590(14)
H61 H 0.7324 0.5775 0.6041
C72 C 0.6237(3) 0.6273(2) 0.56997(15)
H62 H 0.5892 0.6453 0.5942
C73 C 0.5893(3) 0.6415(2) 0.52879(15)
H63 H 0.5313 0.6692 0.5248
C74 C 0.6401(3) 0.6149(2) 0.49366(15)
H64 H 0.6170 0.6249 0.4654
C75 C 0.7243(3) 0.5738(2) 0.49919(14)
H65 H 0.7584 0.5555 0.4749
C76 C 0.9579(3) 0.6081(2) 0.53639(12)
H66 H 0.8948 0.6324 0.5297
H67 H 1.0000 0.6106 0.5103
C77 C 1.0097(3) 0.6486(2) 0.57251(13)
C78 C 0.9364(3) 0.6705(2) 0.60798(13)
H68 H 0.8859 0.7020 0.5958
H69 H 0.9721 0.6953 0.6309
H70 H 0.9043 0.6282 0.6198
C79 C 1.0496(3) 0.7169(2) 0.55128(14)
H71 H 1.0943 0.7044 0.5276
H72 H 1.0858 0.7449 0.5727
H73 H 0.9940 0.7448 0.5401
C80 C 1.0930(3) 0.6053(2) 0.59379(12)
H74 H 1.1437 0.6387 0.6046
H75 H 1.0648 0.5804 0.6190
C81 C 1.2577(3) 0.4282(2) 0.53941(13)
C82 C 1.3206(3) 0.3736(2) 0.52572(14)
H76 H 1.2983 0.3260 0.5272
C83 C 1.4142(3) 0.3879(3) 0.51022(16)
H77 H 1.4557 0.3501 0.5011
C84 C 1.4485(3) 0.4577(3) 0.50780(16)
H78 H 1.5128 0.4673 0.4968
C85 C 1.3888(3) 0.5121(3) 0.52134(16)
H79 H 1.4125 0.5593 0.5197
C86 C 1.2929(3) 0.4993(2) 0.53766(14)
C87 C 1.2359(3) 0.5574(2) 0.55635(12)
C88 C 1.2913(3) 0.6252(2) 0.56469(14)
C89 C 1.3422(3) 0.6366(3) 0.60259(15)
H80 H 1.3476 0.6000 0.6234
C90 C 1.3858(4) 0.7026(3) 0.61005(19)
H81 H 1.4198 0.7111 0.6363
C91 C 1.3800(4) 0.7555(3) 0.5797(2)
H82 H 1.4094 0.8004 0.5850
C92 C 1.3313(4) 0.7429(3) 0.5416(2)
H83 H 1.3279 0.7791 0.5204
C93 C 1.2874(3) 0.6782(3) 0.53387(16)
H84 H 1.2544 0.6699 0.5074
N1A N 1.0046(3) 0.44409(18) 0.61869(10)
Mn3A Mn 0.44258(4) 0.53139(3) 0.049447(18)
loop_
_geom_bond_atom_site_label_1
_geom_bond_atom_site_label_2
_geom_bond_site_symmetry_1
_geom_bond_site_symmetry_2
Mn1 N3 1_555 1_555
N1 N2 1_555 1_555
N2 N3 1_555 1_555
N4 Mn1 1_555 1_555
N5 Mn1 1_555 1_555
N6 Mn1 1_555 1_555
N7 N6 1_555 1_555
O1 Mn1 1_555 1_555
O2 Mn1 1_555 1_555
C1 O1 1_555 1_555
C2 C1 1_555 1_555
H1 C2 1_555 1_555
C3 C2 1_555 1_555
H2 C3 1_555 1_555
C4 C3 1_555 1_555
H3 C4 1_555 1_555
C5 C4 1_555 1_555
H4 C5 1_555 1_555
C6 C1 1_555 1_555
C7 N4 1_555 1_555
C8 C7 1_555 1_555
C9 C8 1_555 1_555
H5 C9 1_555 1_555
C10 C9 1_555 1_555
H6 C10 1_555 1_555
C11 C10 1_555 1_555
H7 C11 1_555 1_555
C12 C11 1_555 1_555
H8 C12 1_555 1_555
C13 C8 1_555 1_555
H9 C13 1_555 1_555
C14 N4 1_555 1_555
H10 C14 1_555 1_555
H11 C14 1_555 1_555
C15 C14 1_555 1_555
C16 C15 1_555 1_555
H12 C16 1_555 1_555
H13 C16 1_555 1_555
H14 C16 1_555 1_555
C17 C15 1_555 1_555
H15 C17 1_555 1_555
H16 C17 1_555 1_555
H17 C17 1_555 1_555
C18 N5 1_555 1_555
H18 C18 1_555 1_555
H19 C18 1_555 1_555
C19 O2 1_555 1_555
C20 C19 1_555 1_555
H20 C20 1_555 1_555
C21 C20 1_555 1_555
H21 C21 1_555 1_555
C22 C21 1_555 1_555
H22 C22 1_555 1_555
C23 C22 1_555 1_555
H23 C23 1_555 1_555
C24 C19 1_555 1_555
C25 N5 1_555 1_555
C26 C25 1_555 1_555
C27 C26 1_555 1_555
H24 C27 1_555 1_555
C28 C27 1_555 1_555
H25 C28 1_555 1_555
C29 C28 1_555 1_555
H26 C29 1_555 1_555
C30 C29 1_555 1_555
H27 C30 1_555 1_555
C31 C26 1_555 1_555
H28 C31 1_555 1_555
Mn2 N8 1_555 1_555
N8 N7 1_555 1_555
N9 Mn2 1_555 1_555
N10 Mn2 1_555 1_555
N11 Mn2 1_555 1_555
N12 N11 1_555 1_555
O3 Mn2 1_555 1_555
O4 Mn2 1_555 1_555
C32 O3 1_555 1_555
C33 C32 1_555 1_555
H29 C33 1_555 1_555
C34 C33 1_555 1_555
H30 C34 1_555 1_555
C35 C34 1_555 1_555
H31 C35 1_555 1_555
C36 C35 1_555 1_555
H32 C36 1_555 1_555
C37 C32 1_555 1_555
C38 N9 1_555 1_555
C39 C38 1_555 1_555
C40 C39 1_555 1_555
H33 C40 1_555 1_555
C41 C40 1_555 1_555
H34 C41 1_555 1_555
C42 C41 1_555 1_555
H35 C42 1_555 1_555
C43 C42 1_555 1_555
H36 C43 1_555 1_555
C44 C39 1_555 1_555
H37 C44 1_555 1_555
C45 N9 1_555 1_555
H38 C45 1_555 1_555
H39 C45 1_555 1_555
C46 C45 1_555 1_555
C47 C46 1_555 1_555
H40 C47 1_555 1_555
H41 C47 1_555 1_555
H42 C47 1_555 1_555
C48 C46 1_555 1_555
H43 C48 1_555 1_555
H44 C48 1_555 1_555
H45 C48 1_555 1_555
C49 N10 1_555 1_555
H46 C49 1_555 1_555
H47 C49 1_555 1_555
C50 O4 1_555 1_555
C51 C50 1_555 1_555
H48 C51 1_555 1_555
C52 C51 1_555 1_555
H49 C52 1_555 1_555
C53 C52 1_555 1_555
H50 C53 1_555 1_555
C54 C53 1_555 1_555
H51 C54 1_555 1_555
C55 C50 1_555 1_555
C56 N10 1_555 1_555
C57 C56 1_555 1_555
C58 C57 1_555 1_555
H52 C58 1_555 1_555
C59 C58 1_555 1_555
H53 C59 1_555 1_555
C60 C59 1_555 1_555
H54 C60 1_555 1_555
C61 C60 1_555 1_555
H55 C61 1_555 1_555
C62 C57 1_555 1_555
H56 C62 1_555 1_555
Mn3 N13 1_555 1_555
N13 N12 1_555 1_555
N14 Mn3 1_555 1_555
N15 Mn3 1_555 1_555
O5 Mn3 1_555 1_555
O6 Mn3 1_555 1_555
C63 O5 1_555 1_555
C64 C63 1_555 1_555
H57 C64 1_555 1_555
C65 C64 1_555 1_555
H58 C65 1_555 1_555
C66 C65 1_555 1_555
H59 C66 1_555 1_555
C67 C66 1_555 1_555
H60 C67 1_555 1_555
C68 C63 1_555 1_555
C69 N14 1_555 1_555
C70 C69 1_555 1_555
C71 C70 1_555 1_555
H61 C71 1_555 1_555
C72 C71 1_555 1_555
H62 C72 1_555 1_555
C73 C72 1_555 1_555
H63 C73 1_555 1_555
C74 C73 1_555 1_555
H64 C74 1_555 1_555
C75 C70 1_555 1_555
H65 C75 1_555 1_555
C76 N14 1_555 1_555
H66 C76 1_555 1_555
H67 C76 1_555 1_555
C77 C76 1_555 1_555
C78 C77 1_555 1_555
H68 C78 1_555 1_555
H69 C78 1_555 1_555
H70 C78 1_555 1_555
C79 C77 1_555 1_555
H71 C79 1_555 1_555
H72 C79 1_555 1_555
H73 C79 1_555 1_555
C80 N15 1_555 1_555
H74 C80 1_555 1_555
H75 C80 1_555 1_555
C81 O6 1_555 1_555
C82 C81 1_555 1_555
H76 C82 1_555 1_555
C83 C82 1_555 1_555
H77 C83 1_555 1_555
C84 C83 1_555 1_555
H78 C84 1_555 1_555
C85 C84 1_555 1_555
H79 C85 1_555 1_555
C86 C81 1_555 1_555
C87 N15 1_555 1_555
C88 C87 1_555 1_555
C89 C88 1_555 1_555
H80 C89 1_555 1_555
C90 C89 1_555 1_555
H81 C90 1_555 1_555
C91 C90 1_555 1_555
H82 C91 1_555 1_555
C92 C91 1_555 1_555
H83 C92 1_555 1_555
C93 C88 1_555 1_555
H84 C93 1_555 1_555
N1A Mn3 1_555 1_555
Mn3A N1 1_555 1_555
C5 C6 1_555 1_555
C6 C7 1_555 1_555
C12 C13 1_555 1_555
C15 C18 1_555 1_555
C23 C24 1_555 1_555
C24 C25 1_555 1_555
C30 C31 1_555 1_555
C36 C37 1_555 1_555
C37 C38 1_555 1_555
C43 C44 1_555 1_555
C46 C49 1_555 1_555
C54 C55 1_555 1_555
C55 C56 1_555 1_555
C61 C62 1_555 1_555
C67 C68 1_555 1_555
C68 C69 1_555 1_555
C74 C75 1_555 1_555
C77 C80 1_555 1_555
C85 C86 1_555 1_555
C86 C87 1_555 1_555
C92 C93 1_555 1_555

#END
