
#######################################################################
#
#                 Cambridge Crystallographic Data Centre
#                                CCDC 
#
#######################################################################
#
# If this CIF has been generated from an entry in the Cambridge 
# Structural Database, then it will include bibliographic, chemical, 
# crystal, experimental, refinement or atomic coordinate data resulting 
# from the CCDC's data processing and validation procedures.
#
#######################################################################

data_VOLFEJ
_symmetry_cell_setting           triclinic
_symmetry_space_group_name_H-M   'P -1'
_symmetry_Int_Tables_number      2
_space_group_name_Hall           '-P 1'
loop_
_symmetry_equiv_pos_site_id
_symmetry_equiv_pos_as_xyz
1 x,y,z
2 -x,-y,-z
_cell_length_a                   11.8408(14)
_cell_length_b                   12.4848(15)
_cell_length_c                   12.5343(15)
_cell_angle_alpha                61.610(2)
_cell_angle_beta                 71.862(2)
_cell_angle_gamma                70.647(2)
_cell_volume                     1511.37
loop_
_atom_site_label
_atom_site_type_symbol
_atom_site_fract_x
_atom_site_fract_y
_atom_site_fract_z
O23 O 1.027(2) 1.104(2) 0.192(2)
O24 O 1.055(2) 0.842(2) 0.190(2)
Cu1 Cu 0.7532(4) 0.6124(5) 0.8630(4)
Cu2 Cu 0.9214(4) 0.9717(4) 0.2653(4)
Cu3 Cu 0.5000 1.0000 0.0000
C1 C 0.760(3) 0.849(3) 0.638(3)
H1 H 0.6957 0.8857 0.6834
C2 C 0.801(4) 0.922(3) 0.517(3)
H2 H 0.7622 1.0053 0.4822
C3 C 0.945(3) 0.758(3) 0.496(3)
H3 H 1.0054 0.7221 0.4472
C4 C 0.905(3) 0.680(3) 0.626(3)
H4 H 0.9487 0.5986 0.6611
C5 C 0.984(3) 0.443(3) 0.939(3)
H5 H 0.9761 0.4038 0.8956
C6 C 0.915(3) 0.600(3) 1.010(3)
H6 H 0.8591 0.6707 1.0156
C7 C 0.608(3) 0.432(3) 1.032(3)
H7 H 0.6819 0.3814 1.0539
C8 C 0.496(2) 0.615(3) 0.913(3)
H8 H 0.4918 0.6953 0.8502
C9 C 0.673(4) 1.021(4) 0.228(4)
H9 H 0.6464 1.0307 0.3010
C10 C 0.586(4) 1.024(4) 0.169(4)
H10 H 0.5037 1.0408 0.2030
C11 C 0.739(4) 0.972(4) 0.021(4)
H11 H 0.7638 0.9487 -0.0439
C12 C 0.822(4) 0.977(4) 0.076(4)
H12 H 0.9037 0.9617 0.0409
N1 N 0.809(3) 0.724(3) 0.694(3)
N2 N 0.898(3) 0.872(2) 0.449(2)
N3 N 0.892(2) 0.544(2) 0.950(2)
N4 N 0.602(2) 0.550(2) 0.9461(19)
N5 N 0.789(3) 1.004(3) 0.181(2)
N6 N 0.617(2) 1.004(3) 0.069(3)
C5A C 1.016(3) 0.557(3) 1.061(3)
H5A H 1.0239 0.5962 1.1044
C6A C 1.085(3) 0.400(3) 0.990(3)
H6A H 1.1409 0.3293 0.9844
N3A N 1.108(2) 0.456(2) 1.050(2)
C7A C 0.392(3) 0.568(3) 0.968(3)
H7A H 0.3181 0.6186 0.9461
C8A C 0.504(2) 0.385(3) 1.087(3)
H8A H 0.5082 0.3047 1.1498
N4A N 0.398(2) 0.450(2) 1.0539(19)
O23A O -0.027(2) -0.104(2) 1.808(2)
O24A O -0.055(2) 0.158(2) 1.810(2)
Cu1A Cu 0.2468(4) 0.3876(5) 1.1370(4)
Cu2A Cu 0.0786(4) 0.0283(4) 1.7347(4)
C1A C 0.240(3) 0.151(3) 1.362(3)
H1A H 0.3043 0.1143 1.3166
C2A C 0.199(4) 0.078(3) 1.483(3)
H2A H 0.2378 -0.0053 1.5178
C3A C 0.055(3) 0.242(3) 1.504(3)
H3A H -0.0054 0.2779 1.5528
C4A C 0.095(3) 0.320(3) 1.374(3)
H4A H 0.0513 0.4014 1.3389
C9A C 0.327(4) -0.021(4) 1.772(4)
H9A H 0.3536 -0.0307 1.6990
C10A C 0.414(4) -0.024(4) 1.831(4)
H10A H 0.4963 -0.0408 1.7970
C11A C 0.261(4) 0.028(4) 1.979(4)
H11A H 0.2362 0.0513 2.0439
C12A C 0.178(4) 0.023(4) 1.924(4)
H12A H 0.0963 0.0383 1.9591
N1A N 0.191(3) 0.276(3) 1.306(3)
N2A N 0.102(3) 0.128(2) 1.551(2)
N5A N 0.211(3) -0.004(3) 1.819(2)
N6A N 0.383(2) -0.004(3) 1.931(3)
Cu1A_2 Cu 1.2468(4) 0.3876(5) 1.1370(4)
Cu3_2 Cu 0.5000 0.0000 2.0000
N3A_2 N 0.108(2) 0.456(2) 1.050(2)
N6A_2 N 0.383(2) 0.996(3) -0.069(3)
P1 P 0.5000 0.5000 0.5000
W1 W 0.69748(10) 0.44796(10) 0.69221(10)
W2 W 0.76945(9) 0.62021(10) 0.36739(10)
W3 W 0.57284(11) 0.66969(10) 0.17530(10)
W4 W 0.75009(10) 0.36539(11) 0.32291(10)
W5 W 0.67495(11) 0.19455(10) 0.64690(11)
W6 W 0.47981(11) 0.24773(10) 0.45266(10)
O1 O 0.686(3) 0.697(3) 0.231(3)
O2 O 0.790(3) 0.514(3) 0.533(3)
O3 O 0.816(3) 0.473(2) 0.340(2)
O4 O 0.608(2) 0.756(2) 0.0182(19)
O5 O 0.8978(19) 0.672(2) 0.302(2)
O6 O 0.7936(19) 0.421(2) 0.7825(19)
O7 O 0.744(2) 0.290(2) 0.680(2)
O8 O 0.7581(19) 0.0512(19) 0.7161(18)
O9 O 0.543(3) 0.208(3) 0.775(3)
O10 O 0.574(3) 0.156(3) 0.582(3)
O11 O 0.338(3) 0.263(3) 0.572(2)
O12 O 0.471(2) 0.1320(19) 0.4265(19)
O13 O 0.391(3) 0.387(3) 0.338(3)
O14 O 0.629(3) 0.289(3) 0.343(3)
O15 O 0.412(3) 0.448(3) 0.481(3)
O16 O 0.449(3) 0.588(3) 0.384(3)
O17 O 0.572(3) 0.380(3) 0.484(3)
O18 O 0.602(3) 0.529(3) 0.389(3)
O19 O 0.676(2) 0.512(2) 0.199(2)
O20 O 0.444(2) 0.605(2) 0.194(2)
O21 O 0.870(2) 0.303(2) 0.237(2)
O22 O 0.771(3) 0.249(3) 0.484(3)
O15A O 0.588(3) 0.552(3) 0.519(3)
O16A O 0.551(3) 0.412(3) 0.616(3)
O17A O 0.428(3) 0.620(3) 0.516(3)
O18A O 0.398(3) 0.471(3) 0.611(3)
W1A W 0.30252(10) 0.55204(10) 0.30779(10)
W2A W 0.23055(9) 0.37979(10) 0.63261(10)
W3A W 0.42716(11) 0.33031(10) 0.82470(10)
W4A W 0.24991(10) 0.63461(11) 0.67709(10)
W5A W 0.32505(11) 0.80545(10) 0.35310(11)
W6A W 0.52019(11) 0.75227(10) 0.54734(10)
O1A O 0.314(3) 0.303(3) 0.769(3)
O2A O 0.210(3) 0.486(3) 0.467(3)
O3A O 0.184(3) 0.527(2) 0.660(2)
O4A O 0.392(2) 0.244(2) 0.9818(19)
O5A O 0.1022(19) 0.328(2) 0.698(2)
O6A O 0.2064(19) 0.579(2) 0.2175(19)
O7A O 0.256(2) 0.710(2) 0.320(2)
O8A O 0.2419(19) 0.9488(19) 0.2839(18)
O9A O 0.457(3) 0.792(3) 0.225(3)
O10A O 0.426(3) 0.844(3) 0.418(3)
O11A O 0.662(3) 0.737(3) 0.428(2)
O12A O 0.529(2) 0.8680(19) 0.5735(19)
O13A O 0.609(3) 0.613(3) 0.662(3)
O14A O 0.371(3) 0.711(3) 0.657(3)
O19A O 0.324(2) 0.488(2) 0.801(2)
O20A O 0.556(2) 0.395(2) 0.806(2)
O21A O 0.130(2) 0.697(2) 0.763(2)
O22A O 0.229(3) 0.751(3) 0.516(3)
loop_
_geom_bond_atom_site_label_1
_geom_bond_atom_site_label_2
_geom_bond_site_symmetry_1
_geom_bond_site_symmetry_2
P1 O15 1_555 1_555
W1 O2 1_555 1_555
W2 O1 1_555 1_555
W3 O1 1_555 1_555
W4 O3 1_555 1_555
W5 O7 1_555 1_555
W6 O10 1_555 1_555
O2 W2 1_555 1_555
O3 W2 1_555 1_555
O4 W3 1_555 1_555
O5 W2 1_555 1_555
O6 W1 1_555 1_555
O7 W1 1_555 1_555
O8 W5 1_555 1_555
O9 W5 1_555 1_555
O10 W5 1_555 1_555
O11 W6 1_555 1_555
O12 W6 1_555 1_555
O13 W6 1_555 1_555
O14 W4 1_555 1_555
O15 O16 1_555 1_555
O16 P1 1_555 1_555
O17 P1 1_555 1_555
O18 P1 1_555 1_555
O19 W3 1_555 1_555
O20 W3 1_555 1_555
O21 W4 1_555 1_555
O22 W4 1_555 1_555
O23 Cu2 1_555 1_555
O24 Cu2 1_555 1_555
Cu1 N1 1_555 1_555
Cu2 N2 1_555 1_555
Cu3 N6 1_555 1_555
C1 H1 1_555 1_555
C2 C1 1_555 1_555
H2 C2 1_555 1_555
C3 H3 1_555 1_555
C4 C3 1_555 1_555
H4 C4 1_555 1_555
C5 H5 1_555 1_555
C6 H6 1_555 1_555
C7 H7 1_555 1_555
C8 H8 1_555 1_555
C9 H9 1_555 1_555
C10 C9 1_555 1_555
H10 C10 1_555 1_555
C11 H11 1_555 1_555
C12 C11 1_555 1_555
H12 C12 1_555 1_555
N1 C1 1_555 1_555
N2 C2 1_555 1_555
N3 Cu1 1_555 1_555
N4 Cu1 1_555 1_555
N5 Cu2 1_555 1_555
N6 C10 1_555 1_555
O15A P1 1_555 1_555
O16A P1 1_555 1_555
O17A P1 1_555 1_555
O18A P1 1_555 1_555
W1A O13 1_555 1_555
W2A O11 1_555 1_555
W3A O9 1_555 1_555
W4A O17A 1_555 1_555
W5A O17A 1_555 1_555
W6A O17A 1_555 1_555
O1A W2A 1_555 1_555
O2A W1A 1_555 1_555
O3A W2A 1_555 1_555
O4A W3A 1_555 1_555
O5A W2A 1_555 1_555
O6A W1A 1_555 1_555
O7A W1A 1_555 1_555
O8A W5A 1_555 1_555
O9A W3 1_555 1_555
O10A W5A 1_555 1_555
O11A W2 1_555 1_555
O12A W6A 1_555 1_555
O13A W1 1_555 1_555
O14A W4A 1_555 1_555
O19A W3A 1_555 1_555
O20A W1 1_555 1_555
O21A W4A 1_555 1_555
O22A W4A 1_555 1_555
C5A C6 1_555 1_555
H5A C5A 1_555 1_555
C6A C5 1_555 1_555
H6A C6A 1_555 1_555
N3A C5A 1_555 1_555
C7A C8 1_555 1_555
H7A C7A 1_555 1_555
C8A C7 1_555 1_555
H8A C8A 1_555 1_555
N4A C7A 1_555 1_555
O23A Cu2A 1_555 1_555
O24A Cu2A 1_555 1_555
Cu1A N4A 1_555 1_555
Cu2A N2A 1_555 1_555
C1A H1A 1_555 1_555
C2A C1A 1_555 1_555
H2A C2A 1_555 1_555
C3A H3A 1_555 1_555
C4A C3A 1_555 1_555
H4A C4A 1_555 1_555
C9A H9A 1_555 1_555
C10A C9A 1_555 1_555
H10A C10A 1_555 1_555
C11A H11A 1_555 1_555
C12A C11A 1_555 1_555
H12A C12A 1_555 1_555
N1A Cu1A 1_555 1_555
N2A C2A 1_555 1_555
N5A Cu2A 1_555 1_555
N6A C10A 1_555 1_555
Cu1A_2 N3A 1_555 1_555
Cu3_2 N6A 1_555 1_555
N3A_2 Cu1A 1_555 1_555
N6A_2 Cu3 1_555 1_555
W1 O15A 1_555 1_555
W1 O16A 1_555 1_555
W2 O18 1_555 1_555
W2 O15A 1_555 1_555
W3 O16 1_555 1_555
W3 O18 1_555 1_555
W4 O17 1_555 1_555
W4 O19 1_555 1_555
W5 O17 1_555 1_555
W5 O22 1_555 1_555
W6 O14 1_555 1_555
W6 O17 1_555 1_555
O15 O17 1_555 1_555
O15 O18A 1_555 1_555
O15 W1A 1_555 1_555
O15 W2A 1_555 1_555
O16 O18 1_555 1_555
O16 O17A 1_555 1_555
O16 W1A 1_555 1_555
O17 O18 1_555 1_555
O17 O16A 1_555 1_555
O18 O15A 1_555 1_555
O20 W1A 1_555 1_555
C3 N2 1_555 1_555
C4 N1 1_555 1_555
C5 N3 1_555 1_555
C6 N3 1_555 1_555
C7 N4 1_555 1_555
C8 N4 1_555 1_555
C9 N5 1_555 1_555
C11 N6 1_555 1_555
C12 N5 1_555 1_555
O15A O16A 1_555 1_555
O15A O17A 1_555 1_555
O16A O18A 1_555 1_555
O16A W3A 1_555 1_555
O17A O18A 1_555 1_555
O18A W2A 1_555 1_555
O18A W3A 1_555 1_555
W2A O2A 1_555 1_555
W3A O1A 1_555 1_555
W3A O20A 1_555 1_555
W4A O3A 1_555 1_555
W4A O19A 1_555 1_555
W5A O7A 1_555 1_555
W5A O9A 1_555 1_555
W5A O22A 1_555 1_555
W6A O10A 1_555 1_555
W6A O11A 1_555 1_555
W6A O13A 1_555 1_555
W6A O14A 1_555 1_555
C6A N3A 1_555 1_555
C8A N4A 1_555 1_555
C1A N1A 1_555 1_555
C3A N2A 1_555 1_555
C4A N1A 1_555 1_555
C9A N5A 1_555 1_555
C11A N6A 1_555 1_555
C12A N5A 1_555 1_555

#END
