
#######################################################################
#
#                 Cambridge Crystallographic Data Centre
#                                CCDC 
#
#######################################################################
#
# If this CIF has been generated from an entry in the Cambridge 
# Structural Database, then it will include bibliographic, chemical, 
# crystal, experimental, refinement or atomic coordinate data resulting 
# from the CCDC's data processing and validation procedures.
#
#######################################################################

data_VOLJAH
_symmetry_cell_setting           monoclinic
_symmetry_space_group_name_H-M   'C 2/m'
_symmetry_Int_Tables_number      12
_space_group_name_Hall           '-C 2y'
loop_
_symmetry_equiv_pos_site_id
_symmetry_equiv_pos_as_xyz
1 x,y,z
2 1/2+x,1/2+y,z
3 -x,y,-z
4 1/2-x,1/2+y,-z
5 -x,-y,-z
6 1/2-x,1/2-y,-z
7 x,-y,z
8 1/2+x,1/2-y,z
_cell_length_a                   13.065(1)
_cell_length_b                   20.065(2)
_cell_length_c                   3.6957(4)
_cell_angle_alpha                90
_cell_angle_beta                 90.75(1)
_cell_angle_gamma                90
_cell_volume                     968.742
loop_
_atom_site_label
_atom_site_type_symbol
_atom_site_fract_x
_atom_site_fract_y
_atom_site_fract_z
Na1 Na 0.0000 0.5000 0.0000
Na2 Na 0.0000 0.0000 0.5000
C1 C 0.0000 0.3674(1) 0.5000
O1 O 0.0000 0.4293(1) 0.5000
C2 C 0.0835(1) 0.3267(1) 0.6402(6)
N1 N 0.1749(1) 0.3592(1) 0.7873(6)
O2 O -0.1692(2) 0.4152(1) 0.0891(7)
O3 O 0.2538(1) 0.3281(1) 0.7952(8)
C3 C 0.0842(2) 0.2584(1) 0.6373(6)
H1 H 0.140(2) 0.236(2) 0.72(1)
C4 C 0.0000 0.2253(1) 0.5000
N2 N 0.0000 0.1529(1) 0.5000
O4 O 0.0676(2) 0.1238(1) 0.6611(7)
O5 O 0.1283(2) 0.0000 0.0415(8)
H2 H 0.171(2) 0.028(1) 0.05(1)
O1_2 O 0.0000 0.4293(1) -0.5000
O1D O 0.0000 0.5707(1) -0.5000
O1D_2 O 0.0000 0.5707(1) 0.5000
O2B O 0.1692(2) 0.4152(1) -0.0891(7)
O2F O -0.1692(2) 0.5848(1) 0.0891(7)
O2D O 0.1692(2) 0.5848(1) -0.0891(7)
O4B O -0.0676(2) 0.1238(1) 0.3389(7)
O4D O -0.0676(2) -0.1238(1) 0.3389(7)
O4F O 0.0676(2) -0.1238(1) 0.6611(7)
O5_2 O 0.1283(2) 0.0000 1.0415(8)
O5B O -0.1283(2) 0.0000 -0.0415(8)
O5B_2 O -0.1283(2) 0.0000 0.9585(8)
C2B C -0.0835(1) 0.3267(1) 0.3598(6)
Na1_2 Na 0.0000 0.5000 1.0000
O2B_2 O 0.1692(2) 0.4152(1) 0.9109(7)
C3B C -0.0842(2) 0.2584(1) 0.3627(6)
H2F H 0.171(2) -0.028(1) 0.05(1)
Na2_2 Na 0.0000 0.0000 -0.5000
N1B N -0.1749(1) 0.3592(1) 0.2127(6)
H1B H -0.140(2) 0.236(2) 0.28(1)
O3B O -0.2538(1) 0.3281(1) 0.2048(8)
N2D N 0.0000 -0.1529(1) 0.5000
C4D C 0.0000 -0.2253(1) 0.5000
C3D C -0.0842(2) -0.2584(1) 0.3627(6)
C3F C 0.0842(2) -0.2584(1) 0.6373(6)
C2D C -0.0835(1) -0.3267(1) 0.3598(6)
H1D H -0.140(2) -0.236(2) 0.28(1)
C2F C 0.0835(1) -0.3267(1) 0.6402(6)
H1F H 0.140(2) -0.236(2) 0.72(1)
C1D C 0.0000 -0.3674(1) 0.5000
N1D N -0.1749(1) -0.3592(1) 0.2127(6)
N1F N 0.1749(1) -0.3592(1) 0.7873(6)
O1D_3 O 0.0000 -0.4293(1) 0.5000
O2F_2 O -0.1692(2) -0.4152(1) 0.0891(7)
O3D O -0.2538(1) -0.3281(1) 0.2048(8)
O2D_2 O 0.1692(2) -0.4152(1) 0.9109(7)
O3F O 0.2538(1) -0.3281(1) 0.7952(8)
Na1_3 Na 0.0000 -0.5000 0.0000
Na1_4 Na 0.0000 -0.5000 1.0000
Na2_3 Na 0.0000 0.0000 1.5000
H2_2 H 0.171(2) 0.028(1) 1.05(1)
H2F_2 H 0.171(2) -0.028(1) 1.05(1)
H2B H -0.171(2) 0.028(1) -0.05(1)
H2D H -0.171(2) -0.028(1) -0.05(1)
H2B_2 H -0.171(2) 0.028(1) 0.95(1)
H2D_2 H -0.171(2) -0.028(1) 0.95(1)
loop_
_geom_bond_atom_site_label_1
_geom_bond_atom_site_label_2
_geom_bond_site_symmetry_1
_geom_bond_site_symmetry_2
Na1 O1 1_555 1_555
Na2 O4 1_555 1_555
C1 O1 1_555 1_555
O1 Na1_2 1_555 1_555
C2 C1 1_555 1_555
N1 C2 1_555 1_555
O2 Na1 1_555 1_555
O3 N1 1_555 1_555
C3 C2 1_555 1_555
H1 C3 1_555 1_555
C4 C3 1_555 1_555
N2 C4 1_555 1_555
O4 N2 1_555 1_555
O5 Na2 1_555 1_555
H2 O5 1_555 1_555
O1_2 Na1 1_555 1_555
O1D Na1 1_555 1_555
O1D_2 Na1 1_555 1_555
O2B Na1 1_555 1_555
O2F Na1 1_555 1_555
O2D Na1 1_555 1_555
O4B Na2 1_555 1_555
O4D Na2 1_555 1_555
O4F Na2 1_555 1_555
O5_2 Na2 1_555 1_555
O5B Na2 1_555 1_555
O5B_2 Na2 1_555 1_555
C2B C1 1_555 1_555
Na1_2 O1D_2 1_555 1_555
O2B_2 N1 1_555 1_555
C3B C4 1_555 1_555
H2F O5 1_555 1_555
Na2_2 O5 1_555 1_555
N1B O2 1_555 1_555
H1B C3B 1_555 1_555
O3B N1B 1_555 1_555
N2D O4D 1_555 1_555
C4D N2D 1_555 1_555
C3D C4D 1_555 1_555
C3F C4D 1_555 1_555
C2D C3D 1_555 1_555
H1D C3D 1_555 1_555
C2F C3F 1_555 1_555
H1F C3F 1_555 1_555
C1D C2D 1_555 1_555
N1D C2D 1_555 1_555
N1F C2F 1_555 1_555
O1D_3 C1D 1_555 1_555
O2F_2 N1D 1_555 1_555
O3D N1D 1_555 1_555
O2D_2 N1F 1_555 1_555
O3F N1F 1_555 1_555
Na1_3 O1D_3 1_555 1_555
Na1_4 O1D_3 1_555 1_555
Na2_3 O5_2 1_555 1_555
H2_2 O5_2 1_555 1_555
H2F_2 O5_2 1_555 1_555
H2B O5B 1_555 1_555
H2D O5B 1_555 1_555
H2B_2 O5B_2 1_555 1_555
H2D_2 O5B_2 1_555 1_555
N2 O4B 1_555 1_555
O4F N2D 1_555 1_555
O5B Na2_2 1_555 1_555
O5B_2 Na2_3 1_555 1_555
C2B C3B 1_555 1_555
C2B N1B 1_555 1_555
Na1_2 O2B_2 1_555 1_555
C2F C1D 1_555 1_555
O2F_2 Na1_3 1_555 1_555
O2D_2 Na1_4 1_555 1_555

#END
