
#######################################################################
#
#                 Cambridge Crystallographic Data Centre
#                                CCDC 
#
#######################################################################
#
# If this CIF has been generated from an entry in the Cambridge 
# Structural Database, then it will include bibliographic, chemical, 
# crystal, experimental, refinement or atomic coordinate data resulting 
# from the CCDC's data processing and validation procedures.
#
#######################################################################

data_VOLJAH02
_symmetry_cell_setting           monoclinic
_symmetry_space_group_name_H-M   'C 2/m'
_symmetry_Int_Tables_number      12
_space_group_name_Hall           '-C 2y'
loop_
_symmetry_equiv_pos_site_id
_symmetry_equiv_pos_as_xyz
1 x,y,z
2 1/2+x,1/2+y,z
3 -x,y,-z
4 1/2-x,1/2+y,-z
5 -x,-y,-z
6 1/2-x,1/2-y,-z
7 x,-y,z
8 1/2+x,1/2-y,z
_cell_length_a                   12.9762(8)
_cell_length_b                   20.0292(9)
_cell_length_c                   3.6607(2)
_cell_angle_alpha                90
_cell_angle_beta                 90.596(5)
_cell_angle_gamma                90
_cell_volume                     951.375
loop_
_atom_site_label
_atom_site_type_symbol
_atom_site_fract_x
_atom_site_fract_y
_atom_site_fract_z
Na1 Na 0.5000 0.5000 0.5000
Na2 Na 0.5000 0.0000 0.0000
O1 O 0.43160(11) 0.37732(6) 0.3339(4)
O2 O 0.24309(9) 0.17256(7) 0.2090(4)
O3 O 0.33060(10) 0.08451(6) 0.0810(4)
O4 O 0.5000 0.07079(7) 0.5000
O5 O 0.37079(12) 0.5000 0.9609(4)
N1 N 0.5000 0.34776(9) 0.5000
N2 N 0.32415(10) 0.14100(7) 0.2085(3)
C1 C 0.5000 0.27565(10) 0.5000
C2 C 0.41494(11) 0.24212(7) 0.3599(3)
C3 C 0.41597(11) 0.17345(7) 0.3575(3)
C4 C 0.5000 0.13281(10) 0.5000
H1 H 0.3578(15) 0.2652(10) 0.262(5)
H2 H 0.3288(19) 0.4681(13) 0.970(7)
O1B O 0.56840(11) 0.37732(6) 0.6661(4)
O2B O 0.75691(9) 0.17256(7) 0.7910(4)
O3B O 0.66940(10) 0.08451(6) 0.9190(4)
N2B N 0.67585(10) 0.14100(7) 0.7915(3)
C2B C 0.58506(11) 0.24212(7) 0.6401(3)
C3B C 0.58403(11) 0.17345(7) 0.6425(3)
H1B H 0.6422(15) 0.2652(10) 0.738(5)
H2F H 0.3288(19) 0.5319(13) 0.970(7)
O1F O 0.43160(11) -0.37732(6) 0.3339(4)
O2F O 0.24309(9) -0.17256(7) 0.2090(4)
O3F O 0.33060(10) -0.08451(6) 0.0810(4)
O4D O 0.5000 -0.07079(7) 0.5000
N1D N 0.5000 -0.34776(9) 0.5000
N2F N 0.32415(10) -0.14100(7) 0.2085(3)
C1D C 0.5000 -0.27565(10) 0.5000
C2F C 0.41494(11) -0.24212(7) 0.3599(3)
C3F C 0.41597(11) -0.17345(7) 0.3575(3)
C4D C 0.5000 -0.13281(10) 0.5000
H1F H 0.3578(15) -0.2652(10) 0.262(5)
O1D O 0.56840(11) -0.37732(6) 0.6661(4)
O2D O 0.75691(9) -0.17256(7) 0.7910(4)
O3D O 0.66940(10) -0.08451(6) 0.9190(4)
N2D N 0.67585(10) -0.14100(7) 0.7915(3)
C2D C 0.58506(11) -0.24212(7) 0.6401(3)
C3D C 0.58403(11) -0.17345(7) 0.6425(3)
H1D H 0.6422(15) -0.2652(10) 0.738(5)
O5D O 0.62921(12) 0.5000 0.0391(4)
H2B H 0.6712(19) 0.4681(13) 0.030(7)
H2D H 0.6712(19) 0.5319(13) 0.030(7)
Na1_2 Na 0.5000 -0.5000 0.5000
Na1_3 Na 0.5000 0.5000 -0.5000
Na1_4 Na 0.5000 0.5000 1.5000
Na2_2 Na 0.5000 0.0000 1.0000
O1D_2 O 0.56840(11) 0.62268(6) 0.6661(4)
O1F_2 O 0.43160(11) 0.62268(6) 0.3339(4)
O3D_2 O 0.66940(10) -0.08451(6) -0.0810(4)
O3B_2 O 0.66940(10) 0.08451(6) -0.0810(4)
O4_2 O 0.5000 0.07079(7) -0.5000
O4D_2 O 0.5000 -0.07079(7) -0.5000
O5_2 O 0.37079(12) 0.5000 -0.0391(4)
O5D_2 O 0.62921(12) 0.5000 1.0391(4)
loop_
_geom_bond_atom_site_label_1
_geom_bond_atom_site_label_2
_geom_bond_site_symmetry_1
_geom_bond_site_symmetry_2
Na1 O1 1_555 1_555
Na2 O3 1_555 1_555
O1 N1 1_555 1_555
O2 N2 1_555 1_555
O3 N2 1_555 1_555
O4 Na2 1_555 1_555
O5 Na1 1_555 1_555
N1 C1 1_555 1_555
N2 C3 1_555 1_555
C1 C2 1_555 1_555
C2 C3 1_555 1_555
C3 C4 1_555 1_555
C4 O4 1_555 1_555
H1 C2 1_555 1_555
H2 O5 1_555 1_555
O1B Na1 1_555 1_555
O2B N2B 1_555 1_555
O3B N2B 1_555 1_555
N2B C3B 1_555 1_555
C2B C1 1_555 1_555
C3B C4 1_555 1_555
H1B C2B 1_555 1_555
H2F O5 1_555 1_555
O1F N1D 1_555 1_555
O2F N2F 1_555 1_555
O3F Na2 1_555 1_555
O4D Na2 1_555 1_555
N1D C1D 1_555 1_555
N2F O3F 1_555 1_555
C1D C2F 1_555 1_555
C2F C3F 1_555 1_555
C3F N2F 1_555 1_555
C4D O4D 1_555 1_555
H1F C2F 1_555 1_555
O1D N1D 1_555 1_555
O2D N2D 1_555 1_555
O3D N2D 1_555 1_555
N2D C3D 1_555 1_555
C2D C1D 1_555 1_555
C3D C4D 1_555 1_555
H1D C2D 1_555 1_555
O5D Na1 1_555 1_555
H2B O5D 1_555 1_555
H2D O5D 1_555 1_555
Na1_2 O1F 1_555 1_555
Na1_3 O5D 1_555 1_555
Na1_4 O5 1_555 1_555
Na2_2 O4 1_555 1_555
O1D_2 Na1 1_555 1_555
O1F_2 Na1 1_555 1_555
O3D_2 Na2 1_555 1_555
O3B_2 Na2 1_555 1_555
O4_2 Na2 1_555 1_555
O4D_2 Na2 1_555 1_555
O5_2 Na1 1_555 1_555
O5D_2 Na1 1_555 1_555
N1 O1B 1_555 1_555
O3B Na2_2 1_555 1_555
C2B C3B 1_555 1_555
O4D Na2_2 1_555 1_555
C3F C4D 1_555 1_555
O1D Na1_2 1_555 1_555
O3D Na2_2 1_555 1_555
C2D C3D 1_555 1_555
Na1_3 O5_2 1_555 1_555
Na1_4 O5D_2 1_555 1_555

#END
