
#######################################################################
#
#                 Cambridge Crystallographic Data Centre
#                                CCDC 
#
#######################################################################
#
# If this CIF has been generated from an entry in the Cambridge 
# Structural Database, then it will include bibliographic, chemical, 
# crystal, experimental, refinement or atomic coordinate data resulting 
# from the CCDC's data processing and validation procedures.
#
#######################################################################

data_VOLKAJ
_symmetry_cell_setting           triclinic
_symmetry_space_group_name_H-M   'P -1'
_symmetry_Int_Tables_number      2
_space_group_name_Hall           '-P 1'
loop_
_symmetry_equiv_pos_site_id
_symmetry_equiv_pos_as_xyz
1 x,y,z
2 -x,-y,-z
_cell_length_a                   11.3760(5)
_cell_length_b                   11.8230(5)
_cell_length_c                   11.8710(6)
_cell_angle_alpha                87.6040(10)
_cell_angle_beta                 67.5150(10)
_cell_angle_gamma                62.8610(10)
_cell_volume                     1295.64
loop_
_atom_site_label
_atom_site_type_symbol
_atom_site_fract_x
_atom_site_fract_y
_atom_site_fract_z
C6 C 0.6704(5) 0.1178(5) 0.8289(4)
H9 H 0.7552 0.0395 0.7977
C7 C 0.4497(5) 0.2591(4) 0.9321(4)
H10 H 0.3524 0.2977 0.9862
C8 C 0.6571(6) 0.2333(5) 0.7973(5)
H11 H 0.7297 0.2490 0.7417
C9 C 0.4508(6) 0.4629(5) 0.8710(5)
H12 H 0.3467 0.5018 0.9164
H13 H 0.4708 0.4847 0.7885
C10 C 0.5118(7) 0.5152(5) 0.9346(5)
H14 H 0.4676 0.6079 0.9383
H15 H 0.6149 0.4800 0.8854
C11 C 0.2139(6) 0.1519(5) 0.9716(5)
C12 C 0.1380(5) 0.1343(5) 0.9165(5)
C13 C -0.1931(12) 0.0719(12) 1.2083(10)
C14 C -0.0182(12) 0.2312(12) 0.9502(13)
C15 C -0.1172(12) 0.1757(11) 1.0225(11)
C16 C -0.0774(11) 0.1062(11) 1.1225(10)
C17 C 0.3413(5) -0.0460(5) 0.8763(5)
O1 O -0.1847(4) 0.5704(4) 1.1535(4)
O2 O -0.1971(4) 0.3866(3) 1.2938(4)
O3 O 0.2996(3) 0.3755(3) 1.5847(3)
O4 O 0.0585(3) 0.3647(3) 1.7074(3)
O5 O 0.3408(4) 0.5383(3) 1.4157(3)
O6 O 0.4556(3) 0.2867(3) 1.3313(3)
O7 O 0.1785(3) 0.2905(2) 1.4538(3)
O8 O 0.3213(3) 0.1975(3) 1.1950(3)
O9 O 0.0756(3) 0.1896(3) 1.3291(3)
O10 O 0.0618(3) 0.3916(3) 1.1967(3)
O11 O -0.0619(3) 0.4579(2) 1.4438(2)
O12 O 0.1920(3) 0.4638(3) 1.3190(3)
O13 O -0.0638(3) 0.2672(3) 1.6112(3)
Cu1 Cu 0.5000 0.0000 1.0000
Mo1 Mo -0.00862(3) 0.38014(3) 1.59486(3)
Mo2 Mo 0.30020(4) 0.41599(3) 1.42706(4)
Mo3 Mo 0.14807(4) 0.29112(3) 1.29952(3)
Mo4 Mo -0.14519(4) 0.50313(4) 1.27164(4)
N3 N 0.5406(4) 0.1342(4) 0.9133(4)
N4 N 0.5157(5) 0.3220(4) 0.8637(4)
N5 N 0.3393(4) 0.0424(4) 0.9485(4)
N6 N 0.2221(5) 0.0058(5) 0.8554(4)
C6A C 0.3296(5) 0.8822(5) 1.1711(4)
H9A H 0.2448 0.9605 1.2023
C7A C 0.5503(5) 0.7409(4) 1.0679(4)
H10A H 0.6476 0.7023 1.0138
C8A C 0.3429(6) 0.7667(5) 1.2027(5)
H11A H 0.2703 0.7510 1.2583
C9A C 0.5492(6) 0.5371(5) 1.1290(5)
H12A H 0.6533 0.4982 1.0836
H13A H 0.5292 0.5153 1.2115
C10A C 0.4882(7) 0.4848(5) 1.0654(5)
H14A H 0.5324 0.3921 1.0617
H15A H 0.3851 0.5200 1.1146
C11A C -0.2139(6) -0.1519(5) 1.0284(5)
C12A C -0.1380(5) -0.1343(5) 1.0835(5)
C13A C 0.1931(12) -0.0719(12) 0.7917(10)
C14A C 0.0182(12) -0.2312(12) 1.0498(13)
C15A C 0.1172(12) -0.1757(11) 0.9775(11)
C16A C 0.0774(11) -0.1062(11) 0.8775(10)
C17A C -0.3413(5) 0.0460(5) 1.1237(5)
O1A O 1.1847(4) -0.5704(4) 0.8465(4)
O1A_2 O 0.1847(4) 0.4296(4) 1.8465(4)
O2A O 1.1971(4) -0.3866(3) 0.7062(4)
O2A_2 O 0.1971(4) 0.6134(3) 1.7062(4)
O3A O -0.2996(3) 0.6245(3) 1.4153(3)
O3A_2 O 0.7004(3) -0.3755(3) 0.4153(3)
O3_2 O 1.2996(3) -0.6245(3) 0.5847(3)
O4A O -0.0585(3) 0.6353(3) 1.2926(3)
O4A_2 O 0.9415(3) -0.3647(3) 0.2926(3)
O4_2 O 1.0585(3) -0.6353(3) 0.7074(3)
O5A O 0.6592(4) -0.5383(3) 0.5843(3)
O5A_2 O -0.3408(4) 0.4617(3) 1.5843(3)
O6A O 0.5444(3) -0.2867(3) 0.6687(3)
O6A_2 O -0.4556(3) 0.7133(3) 1.6687(3)
O7A O 0.8215(3) -0.2905(2) 0.5462(3)
O7A_2 O -0.1785(3) 0.7095(2) 1.5462(3)
O8A O 0.6787(3) -0.1975(3) 0.8050(3)
O8A_2 O -0.3213(3) 0.8025(3) 1.8050(3)
O9A O 0.9244(3) -0.1896(3) 0.6709(3)
O9A_2 O -0.0756(3) 0.8104(3) 1.6709(3)
O10A O 0.9382(3) -0.3916(3) 0.8033(3)
O10A_2 O -0.0618(3) 0.6084(3) 1.8033(3)
O11A O 1.0619(3) -0.4579(2) 0.5562(2)
O11A_2 O 0.0619(3) 0.5421(2) 1.5562(2)
O11_2 O 0.9381(3) -0.5421(2) 0.4438(2)
O12A O 0.8080(3) -0.4638(3) 0.6810(3)
O12A_2 O -0.1920(3) 0.5362(3) 1.6810(3)
O12_2 O 1.1920(3) -0.5362(3) 0.3190(3)
O13A O 1.0638(3) -0.2672(3) 0.3888(3)
O13A_2 O 0.0638(3) 0.7328(3) 1.3888(3)
Cu1_2 Cu 0.5000 1.0000 1.0000
Cu1_3 Cu -0.5000 0.0000 1.0000
Cu1_4 Cu -0.5000 1.0000 2.0000
Mo1A Mo 1.00862(3) -0.38014(3) 0.40514(3)
Mo1A_2 Mo 0.00862(3) 0.61986(3) 1.40514(3)
Mo1_2 Mo 0.99138(3) -0.61986(3) 0.59486(3)
Mo2A Mo 0.69980(4) -0.41599(3) 0.57294(4)
Mo2A_2 Mo -0.30020(4) 0.58401(3) 1.57294(4)
Mo2_2 Mo 1.30020(4) -0.58401(3) 0.42706(4)
Mo3A Mo 0.85193(4) -0.29112(3) 0.70048(3)
Mo3A_2 Mo -0.14807(4) 0.70888(3) 1.70048(3)
Mo4A Mo 1.14519(4) -0.50313(4) 0.72836(4)
Mo4A_2 Mo 0.14519(4) 0.49687(4) 1.72836(4)
N3A N 0.4594(4) 0.8658(4) 1.0867(4)
N3A_2 N 0.4594(4) -0.1342(4) 1.0867(4)
N4A N 0.4843(5) 0.6780(4) 1.1363(4)
N5A N -0.3393(4) -0.0424(4) 1.0515(4)
N5A_2 N 0.6607(4) -0.0424(4) 1.0515(4)
N6A N -0.2221(5) -0.0058(5) 1.1446(4)
C1 C 0.8599(6) 0.0757(6) 0.4479(8)
H1 H 0.9602 0.0386 0.4089
C2 C 0.7849(6) 0.0159(5) 0.5042(6)
H2 H 0.8220 -0.0710 0.5113
C3 C 0.6329(6) 0.2185(5) 0.5212(6)
H3 H 0.5478 0.2962 0.5428
C4 C 0.5200(6) 0.0842(6) 0.6239(5)
H4 H 0.4458 0.1601 0.6851
H5 H 0.5527 0.0129 0.6675
C5 C 0.4549(7) 0.0545(7) 0.5477(7)
H6 H 0.3739 0.0434 0.6037
H7 H 0.4157 0.1295 0.5103
N1 N 0.6424(4) 0.1066(4) 0.5498(4)
N2 N 0.7636(6) 0.2017(5) 0.4576(6)
H8 H 0.786(7) 0.261(4) 0.439(6)
C1A C 0.1401(6) -0.0757(6) 0.5521(8)
H1A H 0.0398 -0.0386 0.5911
C2A C 0.2151(6) -0.0159(5) 0.4958(6)
H2A H 0.1780 0.0710 0.4887
C3A C 0.3671(6) -0.2185(5) 0.4788(6)
H3A H 0.4522 -0.2962 0.4572
C4A C 0.4800(6) -0.0842(6) 0.3761(5)
H4A H 0.5542 -0.1601 0.3149
H5A H 0.4473 -0.0129 0.3325
C5A C 0.5451(7) -0.0545(7) 0.4523(7)
H6A H 0.6261 -0.0434 0.3963
H7A H 0.5843 -0.1295 0.4897
N1A N 0.3576(4) -0.1066(4) 0.4502(4)
N2A N 0.2364(6) -0.2017(5) 0.5424(6)
H8A H 0.214(7) -0.261(4) 0.561(6)
N7? N 0.1380(5) 0.1343(5) 0.9165(5)
C18? C 0.2221(5) 0.0058(5) 0.8554(4)
loop_
_geom_bond_atom_site_label_1
_geom_bond_atom_site_label_2
_geom_bond_site_symmetry_1
_geom_bond_site_symmetry_2
C1 H1 1_555 1_555
C2 C1 1_555 1_555
H2 C2 1_555 1_555
C3 H3 1_555 1_555
C4 H4 1_555 1_555
H5 C4 1_555 1_555
C5 C4 1_555 1_555
H6 C5 1_555 1_555
H7 C5 1_555 1_555
N1 C2 1_555 1_555
N2 C1 1_555 1_555
H8 N2 1_555 1_555
C6 H9 1_555 1_555
C7 H10 1_555 1_555
C8 C6 1_555 1_555
H11 C8 1_555 1_555
C9 H12 1_555 1_555
H13 C9 1_555 1_555
C10 C9 1_555 1_555
H14 C10 1_555 1_555
H15 C10 1_555 1_555
C11 C12 1_555 1_555
C12 C14 1_555 1_555
C13 C16 1_555 1_555
C14 C15 1_555 1_555
C15 C16 1_555 1_555
C17 N5 1_555 1_555
O1 Mo4 1_555 1_555
O2 Mo4 1_555 1_555
O3 Mo2 1_555 1_555
O4 Mo1 1_555 1_555
O5 Mo2 1_555 1_555
O6 Mo2 1_555 1_555
O7 Mo1 1_555 1_555
O8 Cu1 1_555 1_555
O9 Mo3 1_555 1_555
O10 Mo3 1_555 1_555
O11 Mo1 1_555 1_555
O12 Mo2 1_555 1_555
O13 Mo1 1_555 1_555
Cu1 N3 1_555 1_555
Mo1 O11A_2 1_555 1_555
Mo2 O7 1_555 1_555
Mo3 O7 1_555 1_555
Mo4 O10 1_555 1_555
N3 C6 1_555 1_555
N4 C7 1_555 1_555
N5 C11 1_555 1_555
N6 C12 1_555 1_555
C1A H1A 1_555 1_555
C2A C1A 1_555 1_555
H2A C2A 1_555 1_555
C3A H3A 1_555 1_555
C4A H4A 1_555 1_555
H5A C4A 1_555 1_555
C5A C5 1_555 1_555
H6A C5A 1_555 1_555
H7A C5A 1_555 1_555
N1A C2A 1_555 1_555
N2A C1A 1_555 1_555
H8A N2A 1_555 1_555
C6A H9A 1_555 1_555
C7A H10A 1_555 1_555
C8A C6A 1_555 1_555
H11A C8A 1_555 1_555
C9A H12A 1_555 1_555
H13A C9A 1_555 1_555
C10A C10 1_555 1_555
H14A C10A 1_555 1_555
H15A C10A 1_555 1_555
C11A C12A 1_555 1_555
C12A C14A 1_555 1_555
C13A N6 1_555 1_555
C14A C15A 1_555 1_555
C15A C16A 1_555 1_555
C16A C13A 1_555 1_555
C17A N5A 1_555 1_555
O1A Mo4A 1_555 1_555
O1A_2 Mo4A_2 1_555 1_555
O2A Mo4A 1_555 1_555
O2A_2 Mo4A_2 1_555 1_555
O3A Mo4 1_555 1_555
O3A_2 Mo2A 1_555 1_555
O3_2 Mo2_2 1_555 1_555
O4A Mo4 1_555 1_555
O4A_2 Mo1A 1_555 1_555
O4_2 Mo1_2 1_555 1_555
O5A Mo2A 1_555 1_555
O5A_2 Mo2A_2 1_555 1_555
O6A Mo2A 1_555 1_555
O6A_2 Mo2A_2 1_555 1_555
O7A Mo1A 1_555 1_555
O7A_2 Mo1A_2 1_555 1_555
O8A Cu1 1_555 1_555
O8A_2 Cu1_4 1_555 1_555
O9A Mo3A 1_555 1_555
O9A_2 Mo3A_2 1_555 1_555
O10A Mo3A 1_555 1_555
O10A_2 Mo3A_2 1_555 1_555
O11A Mo1A 1_555 1_555
O11A_2 Mo2 1_555 1_555
O11_2 Mo1A 1_555 1_555
O12A Mo1_2 1_555 1_555
O12A_2 Mo1 1_555 1_555
O12_2 Mo1A 1_555 1_555
O13A Mo1A 1_555 1_555
O13A_2 Mo1A_2 1_555 1_555
Cu1_2 N3A 1_555 1_555
Cu1_3 N5A 1_555 1_555
Mo1A_2 O11 1_555 1_555
Mo1_2 O11A 1_555 1_555
Mo2A O7A 1_555 1_555
Mo2A_2 O11 1_555 1_555
Mo2_2 O11A 1_555 1_555
Mo3A O7A 1_555 1_555
Mo3A_2 O7A_2 1_555 1_555
Mo4A O3_2 1_555 1_555
Mo4A_2 O3 1_555 1_555
N3A C6A 1_555 1_555
N3A_2 Cu1 1_555 1_555
N4A C7A 1_555 1_555
N5A C11A 1_555 1_555
N5A_2 Cu1 1_555 1_555
N6A C13 1_555 1_555
C3 N1 1_555 1_555
C3 N2 1_555 1_555
C4 N1 1_555 1_555
C7 N3 1_555 1_555
C8 N4 1_555 1_555
C9 N4 1_555 1_555
C17 N6 1_555 1_555
O4 Mo4A_2 1_555 1_555
O8 Mo3 1_555 1_555
O11 Mo3 1_555 1_555
O11 Mo4 1_555 1_555
O12 Mo3 1_555 1_555
O12 Mo1A_2 1_555 1_555
Cu1 N5 1_555 1_555
C3A N1A 1_555 1_555
C3A N2A 1_555 1_555
C4A C5A 1_555 1_555
C4A N1A 1_555 1_555
C7A N3A 1_555 1_555
C8A N4A 1_555 1_555
C9A C10A 1_555 1_555
C9A N4A 1_555 1_555
C12A N6A 1_555 1_555
C17A N6A 1_555 1_555
O3A Mo2A_2 1_555 1_555
O4A Mo1A_2 1_555 1_555
O4_2 Mo4A 1_555 1_555
O7A_2 Mo2A_2 1_555 1_555
O8A Mo3A 1_555 1_555
O8A_2 Mo3A_2 1_555 1_555
O10A Mo4A 1_555 1_555
O10A_2 Mo4A_2 1_555 1_555
O11A Mo3A 1_555 1_555
O11A Mo4A 1_555 1_555
O11A_2 Mo1A_2 1_555 1_555
O11A_2 Mo3A_2 1_555 1_555
O11A_2 Mo4A_2 1_555 1_555
O11_2 Mo1_2 1_555 1_555
O11_2 Mo2A 1_555 1_555
O12A Mo2A 1_555 1_555
O12A Mo3A 1_555 1_555
O12A_2 Mo2A_2 1_555 1_555
O12A_2 Mo3A_2 1_555 1_555
O12_2 Mo2_2 1_555 1_555

#END
