
#######################################################################
#
#                 Cambridge Crystallographic Data Centre
#                                CCDC 
#
#######################################################################
#
# If this CIF has been generated from an entry in the Cambridge 
# Structural Database, then it will include bibliographic, chemical, 
# crystal, experimental, refinement or atomic coordinate data resulting 
# from the CCDC's data processing and validation procedures.
#
#######################################################################

data_VOLKEM
_symmetry_cell_setting           triclinic
_symmetry_space_group_name_H-M   'P -1'
_symmetry_Int_Tables_number      2
_space_group_name_Hall           '-P 1'
loop_
_symmetry_equiv_pos_site_id
_symmetry_equiv_pos_as_xyz
1 x,y,z
2 -x,-y,-z
_cell_length_a                   9.424(4)
_cell_length_b                   12.103(4)
_cell_length_c                   9.113(4)
_cell_angle_alpha                110.97(3)
_cell_angle_beta                 117.20(3)
_cell_angle_gamma                80.26(3)
_cell_volume                     863.225
loop_
_atom_site_label
_atom_site_type_symbol
_atom_site_fract_x
_atom_site_fract_y
_atom_site_fract_z
Cu1 Cu 0.32664(3) 0.25447(2) 0.15988(3)
S1 S 0.14852(7) 0.20881(5) 0.41331(8)
F1 F -0.0747(3) 0.1201(2) 0.4295(4)
F2 F -0.1222(3) 0.1087(2) 0.1735(3)
F3 F 0.0495(3) -0.0067(2) 0.3004(4)
O1 O 0.2020(2) 0.1774(2) 0.2794(3)
O2 O 0.2617(3) 0.1872(2) 0.5696(3)
O3 O 0.0672(3) 0.3196(2) 0.4351(3)
N1 N 0.4310(2) 0.1035(1) 0.0706(2)
N2 N 0.4374(2) 0.3957(1) 0.3634(2)
N3 N 0.1164(2) 0.2962(2) -0.0188(2)
N4 N -0.1786(3) 0.3542(3) -0.2518(3)
C1 C -0.0070(4) 0.1017(3) 0.3239(5)
C2 C 0.4058(3) 0.0653(2) -0.0967(3)
C3 C 0.5268(3) 0.0371(2) 0.1695(3)
C4 C 0.5616(4) 0.0766(3) 0.3578(3)
C5 C 0.3649(3) 0.4566(2) 0.4650(3)
C6 C 0.5754(2) 0.4394(2) 0.3993(3)
C7 C 0.6648(4) 0.3736(3) 0.2946(4)
C8 C 0.1064(3) 0.3642(2) -0.1123(2)
C9 C -0.0424(4) 0.3903(3) -0.2274(4)
C10 C -0.1685(3) 0.2876(3) -0.1586(3)
C11 C -0.0209(3) 0.2594(2) -0.0443(3)
C12 C 0.2565(5) 0.4079(3) -0.0869(5)
C13 C -0.3177(5) 0.2453(5) -0.1800(6)
H1 H 0.340(4) 0.112(3) -0.168(4)
H2 H 0.470(4) 0.075(3) 0.369(4)
H3 H 0.628(4) 0.028(3) 0.414(4)
H4 H 0.600(5) 0.144(4) 0.406(5)
H5 H 0.264(3) 0.427(2) 0.444(3)
H6 H 0.757(4) 0.408(3) 0.328(4)
H7 H 0.694(7) 0.292(6) 0.307(8)
H8 H 0.611(6) 0.360(4) 0.189(7)
H9 H -0.049(4) 0.438(3) -0.291(4)
H10 H -0.014(3) 0.213(2) 0.013(4)
H11 H 0.330(5) 0.342(4) -0.104(5)
H12 H 0.320(4) 0.450(3) 0.033(5)
H13 H 0.225(5) 0.443(4) -0.150(6)
H14 H -0.395(7) 0.254(5) -0.256(8)
H15 H -0.318(6) 0.163(4) -0.221(6)
H16 H -0.339(6) 0.292(5) -0.097(8)
C3A C 0.4732(3) -0.0371(2) -0.1695(3)
C2A C 0.5942(3) -0.0653(2) 0.0967(3)
C6A C 0.4246(2) 0.5606(2) 0.6007(3)
C5A C 0.6351(3) 0.5434(2) 0.5350(3)
N1A N 0.5690(2) -0.1035(1) -0.0706(2)
C4A C 0.4384(4) -0.0766(3) -0.3578(3)
H1A H 0.660(4) -0.112(3) 0.168(4)
N2A N 0.5626(2) 0.6043(1) 0.6366(2)
C7A C 0.3352(4) 0.6264(3) 0.7054(4)
H5A H 0.736(3) 0.573(2) 0.556(3)
Cu1A Cu 0.67336(3) -0.25447(2) -0.15988(3)
H2A H 0.530(4) -0.075(3) -0.369(4)
H3A H 0.372(4) -0.028(3) -0.414(4)
H4A H 0.400(5) -0.144(4) -0.406(5)
Cu1A_2 Cu 0.67336(3) 0.74553(2) 0.84012(3)
H6A H 0.243(4) 0.592(3) 0.672(4)
H7A H 0.306(7) 0.708(6) 0.693(8)
H8A H 0.389(6) 0.640(4) 0.811(7)
O1A O 0.7980(2) -0.1774(2) -0.2794(3)
N2A_2 N 0.5626(2) -0.3957(1) -0.3634(2)
N3A N 0.8836(2) -0.2962(2) 0.0188(2)
S1A S 0.85148(7) -0.20881(5) -0.41331(8)
C8A C 0.8936(3) -0.3642(2) 0.1123(2)
C11A C 1.0209(3) -0.2594(2) 0.0443(3)
O2A O 0.7383(3) -0.1872(2) -0.5696(3)
O3A O 0.9328(3) -0.3196(2) -0.4351(3)
C1A C 1.0070(4) -0.1017(3) -0.3239(5)
C9A C 1.0424(4) -0.3903(3) 0.2274(4)
C12A C 0.7435(5) -0.4079(3) 0.0869(5)
C10A C 1.1685(3) -0.2876(3) 0.1586(3)
H10A H 1.014(3) -0.213(2) -0.013(4)
F1A F 1.0747(3) -0.1201(2) -0.4295(4)
F2A F 1.1222(3) -0.1087(2) -0.1735(3)
F3A F 0.9505(3) 0.0067(2) -0.3004(4)
N4A N 1.1786(3) -0.3542(3) 0.2518(3)
H9A H 1.049(4) -0.438(3) 0.291(4)
H11A H 0.670(5) -0.342(4) 0.104(5)
H12A H 0.680(4) -0.450(3) -0.033(5)
H13A H 0.775(5) -0.443(4) 0.150(6)
C13A C 1.3177(5) -0.2453(5) 0.1800(6)
H14A H 1.395(7) -0.254(5) 0.256(8)
H15A H 1.318(6) -0.163(4) 0.221(6)
H16A H 1.339(6) -0.292(5) 0.097(8)
loop_
_geom_bond_atom_site_label_1
_geom_bond_atom_site_label_2
_geom_bond_site_symmetry_1
_geom_bond_site_symmetry_2
Cu1 O1 1_555 1_555
S1 O1 1_555 1_555
F1 C1 1_555 1_555
F2 C1 1_555 1_555
F3 C1 1_555 1_555
O2 S1 1_555 1_555
O3 S1 1_555 1_555
N1 Cu1 1_555 1_555
N2 Cu1 1_555 1_555
N3 Cu1 1_555 1_555
N4 C9 1_555 1_555
C1 S1 1_555 1_555
C2 N1 1_555 1_555
C3 N1 1_555 1_555
C4 C3 1_555 1_555
C5 N2 1_555 1_555
C6 N2 1_555 1_555
C7 C6 1_555 1_555
C8 N3 1_555 1_555
C9 C8 1_555 1_555
C10 N4 1_555 1_555
C11 N3 1_555 1_555
C12 C8 1_555 1_555
C13 C10 1_555 1_555
H1 C2 1_555 1_555
H2 C4 1_555 1_555
H3 C4 1_555 1_555
H4 C4 1_555 1_555
H5 C5 1_555 1_555
H6 C7 1_555 1_555
H7 C7 1_555 1_555
H8 C7 1_555 1_555
H9 C9 1_555 1_555
H10 C11 1_555 1_555
H11 C12 1_555 1_555
H12 C12 1_555 1_555
H13 C12 1_555 1_555
H14 C13 1_555 1_555
H15 C13 1_555 1_555
H16 C13 1_555 1_555
C3A C2 1_555 1_555
C2A C3 1_555 1_555
C6A C5 1_555 1_555
C5A C6 1_555 1_555
N1A C3A 1_555 1_555
C4A C3A 1_555 1_555
H1A C2A 1_555 1_555
N2A C6A 1_555 1_555
C7A C6A 1_555 1_555
H5A C5A 1_555 1_555
Cu1A N1A 1_555 1_555
H2A C4A 1_555 1_555
H3A C4A 1_555 1_555
H4A C4A 1_555 1_555
Cu1A_2 N2A 1_555 1_555
H6A C7A 1_555 1_555
H7A C7A 1_555 1_555
H8A C7A 1_555 1_555
O1A Cu1A 1_555 1_555
N2A_2 Cu1A 1_555 1_555
N3A Cu1A 1_555 1_555
S1A O1A 1_555 1_555
C8A N3A 1_555 1_555
C11A N3A 1_555 1_555
O2A S1A 1_555 1_555
O3A S1A 1_555 1_555
C1A S1A 1_555 1_555
C9A C8A 1_555 1_555
C12A C8A 1_555 1_555
C10A C11A 1_555 1_555
H10A C11A 1_555 1_555
F1A C1A 1_555 1_555
F2A C1A 1_555 1_555
F3A C1A 1_555 1_555
N4A C9A 1_555 1_555
H9A C9A 1_555 1_555
H11A C12A 1_555 1_555
H12A C12A 1_555 1_555
H13A C12A 1_555 1_555
C13A C10A 1_555 1_555
H14A C13A 1_555 1_555
H15A C13A 1_555 1_555
H16A C13A 1_555 1_555
C10 C11 1_555 1_555
C2A N1A 1_555 1_555
C5A N2A 1_555 1_555
C10A N4A 1_555 1_555

#END
