
#######################################################################
#
#                 Cambridge Crystallographic Data Centre
#                                CCDC 
#
#######################################################################
#
# If this CIF has been generated from an entry in the Cambridge 
# Structural Database, then it will include bibliographic, chemical, 
# crystal, experimental, refinement or atomic coordinate data resulting 
# from the CCDC's data processing and validation procedures.
#
#######################################################################

data_VOLKIR
_symmetry_cell_setting           triclinic
_symmetry_space_group_name_H-M   'P -1'
_symmetry_Int_Tables_number      2
_space_group_name_Hall           '-P 1'
loop_
_symmetry_equiv_pos_site_id
_symmetry_equiv_pos_as_xyz
1 x,y,z
2 -x,-y,-z
_cell_length_a                   12.2270(16)
_cell_length_b                   12.5960(17)
_cell_length_c                   12.9240(18)
_cell_angle_alpha                97.3260(10)
_cell_angle_beta                 111.837(2)
_cell_angle_gamma                113.946(2)
_cell_volume                     1595.02
loop_
_atom_site_label
_atom_site_type_symbol
_atom_site_fract_x
_atom_site_fract_y
_atom_site_fract_z
C11 C -0.1653(7) -0.1843(7) 0.1895(7)
H15 H -0.1662 -0.1934 0.2595
C12 C -0.0731(6) -0.0883(6) 0.1782(5)
H16 H 0.0014 -0.0189 0.2399
C13 C -0.2167(6) -0.2165(5) 0.0067(6)
H17 H -0.2621 -0.2547 -0.0746
C14 C -0.3765(11) -0.3825(9) 0.0491(13)
C15 C -0.4863(15) -0.4318(13) -0.0691(13)
C16 C -0.380(2) -0.456(2) 0.126(2)
C17 C 0.1519(6) -0.1419(5) 0.0723(5)
H18 H 0.0865 -0.2119 0.0070
C18 C 0.2596(6) -0.1336(5) 0.1631(5)
H19 H 0.2818 -0.1954 0.1714
C19 C 0.2638(5) 0.0419(5) 0.1939(4)
H20 H 0.2917 0.1237 0.2293
C20 C 0.4534(6) 0.0365(5) 0.3539(5)
H21 H 0.4826 0.1225 0.3875
H22 H 0.5246 0.0326 0.3400
C21 C 0.4347(6) -0.0282(5) 0.4423(4)
H23 H 0.4046 -0.1145 0.4088
H24 H 0.3650 -0.0229 0.4578
N5 N -0.2554(6) -0.2639(5) 0.0808(6)
N6 N -0.1066(4) -0.1092(4) 0.0621(4)
N7 N 0.1540(4) -0.0309(4) 0.0914(4)
N8 N 0.3290(4) -0.0171(4) 0.2397(4)
O1 O 0.4726(3) 0.2525(3) 0.5737(3)
O2 O 0.2427(4) 0.2006(4) 0.6068(3)
O3 O 0.2169(4) 0.0843(3) 0.4050(3)
O4 O 0.4403(4) 0.4392(3) 0.6243(3)
O5 O 0.3846(4) 0.3204(3) 0.3746(3)
O6 O 0.1871(3) 0.2934(3) 0.4218(3)
O7 O 0.6083(5) 0.3593(4) 0.3334(4)
O8 O 0.1072(4) 0.1935(3) 0.1806(3)
O9 O 0.0495(4) 0.3645(3) 0.2512(4)
O10 O 0.3399(4) 0.5307(3) 0.4349(3)
O11 O 0.2828(4) 0.4366(3) 0.2219(3)
O12 O 0.2587(4) 0.6475(4) 0.2675(4)
O13 O 0.4306(5) 0.6510(4) 0.1860(4)
Cu2 Cu 0.0000 0.0000 0.0000
Mo1 Mo 0.29244(5) 0.22561(4) 0.50217(4)
Mo2 Mo 0.17763(4) 0.33329(4) 0.28254(4)
Mo3 Mo 0.55399(5) 0.42658(4) 0.41042(4)
Mo4 Mo 0.38259(5) 0.61180(4) 0.28994(4)
C11A C -0.8347(7) -0.8157(7) -0.1895(7)
H15A H -0.8338 -0.8066 -0.2595
C12A C -0.9269(6) -0.9117(6) -0.1782(5)
C12A_2 C 0.0731(6) 0.0883(6) -0.1782(5)
H16A H -1.0014 -0.9811 -0.2399
C13A C -0.7833(6) -0.7835(5) -0.0067(6)
C13A_2 C 0.2167(6) 0.2165(5) -0.0067(6)
H17A H -0.7379 -0.7453 0.0746
C14A C -0.6235(11) -0.6175(9) -0.0491(13)
C15A C -0.5137(15) -0.5682(13) 0.0691(13)
C16A C -0.620(2) -0.544(2) -0.126(2)
C17A C 0.8481(6) 0.1419(5) 0.9277(5)
C17A_2 C -0.1519(6) 0.1419(5) -0.0723(5)
H18A H 0.9135 0.2119 0.9930
C18A C 0.7404(6) 0.1336(5) 0.8369(5)
H19A H 0.7182 0.1954 0.8286
C19A C 0.7362(5) -0.0419(5) 0.8061(4)
C19A_2 C -0.2638(5) -0.0419(5) -0.1939(4)
H20A H 0.7083 -0.1237 0.7707
C20A C 0.5466(6) -0.0365(5) 0.6461(5)
H21A H 0.5174 -0.1225 0.6125
H22A H 0.4754 -0.0326 0.6600
C21A C 0.5653(6) 0.0282(5) 0.5577(4)
H23A H 0.5954 0.1145 0.5912
H24A H 0.6350 0.0229 0.5422
N5A N -0.7446(6) -0.7361(5) -0.0808(6)
N6A N -0.8934(4) -0.8908(4) -0.0621(4)
N6A_2 N 0.1066(4) 0.1092(4) -0.0621(4)
N6_2 N -1.1066(4) -1.1092(4) 0.0621(4)
N6_3 N 0.8934(4) -0.1092(4) 1.0621(4)
N6A_3 N 1.1066(4) 0.1092(4) 0.9379(4)
N7A N 0.8460(4) 0.0309(4) 0.9086(4)
N7A_2 N -0.1540(4) 0.0309(4) -0.0914(4)
N7_2 N -0.8460(4) -1.0309(4) 0.0914(4)
N7A_3 N -1.1540(4) -0.9691(4) -0.0914(4)
N7_3 N 1.1540(4) -0.0309(4) 1.0914(4)
N8A N 0.6710(4) 0.0171(4) 0.7603(4)
O1A O 0.5274(3) 0.7475(3) 0.4263(3)
O1A_2 O -0.4726(3) -0.2525(3) -0.5737(3)
O1_2 O -0.5274(3) -0.7475(3) -0.4263(3)
O2A O -0.2427(4) -0.2006(4) -0.6068(3)
O2A_2 O 0.7573(4) 0.7994(4) 0.3932(3)
O3A O -0.2169(4) -0.0843(3) -0.4050(3)
O3A_2 O 0.7831(4) 0.9157(3) 0.5950(3)
O4A O 0.5597(4) 0.5608(3) 0.3757(3)
O4A_2 O -0.4403(4) -0.4392(3) -0.6243(3)
O4_2 O -0.5597(4) -0.5608(3) -0.3757(3)
O5A O -0.3846(4) -0.3204(3) -0.3746(3)
O5A_2 O 0.6154(4) 0.6796(3) 0.6254(3)
O5_2 O -0.6154(4) -0.6796(3) -0.6254(3)
O6A O -0.1871(3) -0.2934(3) -0.4218(3)
O6A_2 O 0.8129(3) 0.7066(3) 0.5782(3)
O7A O -0.6083(5) -0.3593(4) -0.3334(4)
O7A_2 O 0.3917(5) 0.6407(4) 0.6666(4)
O7_2 O -0.3917(5) -0.6407(4) -0.6666(4)
O8A O -0.1072(4) -0.1935(3) -0.1806(3)
O8_2 O -0.8928(4) -0.8065(3) 0.1806(3)
O8A_2 O -1.1072(4) -1.1935(3) -0.1806(3)
O8_3 O 1.1072(4) 0.1935(3) 1.1806(3)
O8A_3 O 0.8928(4) -0.1935(3) 0.8194(3)
O8A_4 O 0.8928(4) 0.8065(3) 0.8194(3)
O9A O -0.0495(4) -0.3645(3) -0.2512(4)
O9A_2 O 0.9505(4) 0.6355(3) 0.7488(4)
O10A O -0.3399(4) -0.5307(3) -0.4349(3)
O10A_2 O 0.6601(4) 0.4693(3) 0.5651(3)
O10_2 O -0.6601(4) -0.4693(3) -0.5651(3)
O11A O -0.2828(4) -0.4366(3) -0.2219(3)
O11A_2 O 0.7172(4) 0.5634(3) 0.7781(3)
O12A O -0.2587(4) -0.6475(4) -0.2675(4)
O12A_2 O 0.7413(4) 0.3525(4) 0.7325(4)
O13A O -0.4306(5) -0.6510(4) -0.1860(4)
O13A_2 O 0.5694(5) 0.3490(4) 0.8140(4)
Cu2_2 Cu -1.0000 -1.0000 0.0000
Cu2_3 Cu 1.0000 0.0000 1.0000
Cu2_4 Cu 1.0000 1.0000 1.0000
Mo1A Mo -0.29244(5) -0.22561(4) -0.50217(4)
Mo1A_2 Mo 0.70756(5) 0.77439(4) 0.49783(4)
Mo1_2 Mo -0.70756(5) -0.77439(4) -0.49783(4)
Mo2A Mo -0.17763(4) -0.33329(4) -0.28254(4)
Mo2A_2 Mo 0.82237(4) 0.66671(4) 0.71746(4)
Mo2_2 Mo -0.82237(4) -0.66671(4) -0.71746(4)
Mo3A Mo -0.55399(5) -0.42658(4) -0.41042(4)
Mo3A_2 Mo 0.44601(5) 0.57342(4) 0.58958(4)
Mo3_2 Mo -0.44601(5) -0.57342(4) -0.58958(4)
Mo4A Mo -0.38259(5) -0.61180(4) -0.28994(4)
Mo4A_2 Mo 0.61741(5) 0.38820(4) 0.71006(4)
Mo4_2 Mo -0.61741(5) -0.38820(4) -0.71006(4)
C1 C 0.3496(6) 0.0037(6) 0.9163(6)
H1 H 0.3729 0.0021 0.9930
C2 C 0.2371(6) -0.0827(6) 0.8198(6)
H2 H 0.1699 -0.1547 0.8172
C3 C 0.3556(5) 0.0626(5) 0.7677(5)
H3 H 0.3833 0.1079 0.7220
C4 C 0.1393(6) -0.1062(5) 0.6008(5)
H4 H 0.1660 -0.0552 0.5550
H5 H 0.0529 -0.1166 0.5920
C5 C 0.1233(6) -0.2304(5) 0.5532(5)
H6 H 0.0899 -0.2834 0.5951
H7 H 0.2111 -0.2207 0.5677
C6 C 0.0262(6) -0.2915(5) 0.4213(5)
H8 H -0.0620 -0.3020 0.4065
H9 H 0.0593 -0.2387 0.3791
C7 C 0.0127(7) -0.4138(6) 0.3764(5)
H10 H 0.1016 -0.4024 0.3929
H11 H -0.0202 -0.4657 0.4192
C8 C -0.1933(6) -0.5828(5) 0.2009(5)
H12 H -0.2333 -0.6234 0.2431
C9 C -0.0502(6) -0.4464(6) 0.1618(6)
H13 H 0.0247 -0.3775 0.1697
C10 C -0.1546(6) -0.5377(6) 0.0600(6)
H14 H -0.1636 -0.5412 -0.0152
N1 N 0.2400(5) -0.0444(4) 0.7246(4)
N2 N 0.4256(5) 0.0952(4) 0.8844(4)
N3 N -0.0787(5) -0.4774(4) 0.2495(4)
N4 N -0.2440(5) -0.6232(4) 0.0854(4)
Cu1 Cu 0.59172(8) 0.23769(7) 0.97866(7)
C1_2 C 1.3496(6) 1.0037(6) 1.9163(6)
H1_2 H 1.3729 1.0021 1.9930
C2_2 C 1.2371(6) 0.9173(6) 1.8198(6)
H2_2 H 1.1699 0.8453 1.8172
C3_2 C 1.3556(5) 1.0626(5) 1.7677(5)
H3_2 H 1.3833 1.1079 1.7220
C4_2 C 1.1393(6) 0.8938(5) 1.6008(5)
H4_2 H 1.1660 0.9448 1.5550
H5_2 H 1.0529 0.8834 1.5920
C5_2 C 1.1233(6) 0.7696(5) 1.5532(5)
H6_2 H 1.0899 0.7166 1.5951
H7_2 H 1.2111 0.7793 1.5677
C6_2 C 1.0262(6) 0.7085(5) 1.4213(5)
H8_2 H 0.9380 0.6980 1.4065
H9_2 H 1.0593 0.7613 1.3791
C7_2 C 1.0127(7) 0.5862(6) 1.3764(5)
H10_2 H 1.1016 0.5976 1.3929
H11_2 H 0.9798 0.5343 1.4192
C8_2 C 0.8067(6) 0.4172(5) 1.2009(5)
H12_2 H 0.7667 0.3766 1.2431
C9_2 C 0.9498(6) 0.5536(6) 1.1618(6)
H13_2 H 1.0247 0.6225 1.1697
C10_2 C 0.8454(6) 0.4623(6) 1.0600(6)
H14_2 H 0.8364 0.4588 0.9848
N1_2 N 1.2400(5) 0.9556(4) 1.7246(4)
N2_2 N 1.4256(5) 1.0952(4) 1.8844(4)
N3_2 N 0.9213(5) 0.5226(4) 1.2495(4)
N4_2 N 0.7560(5) 0.3768(4) 1.0854(4)
N4_3 N 1.7560(5) 1.3768(4) 2.0854(4)
Cu1_2 Cu 1.59172(8) 1.23769(7) 1.97866(7)
Cu1_3 Cu -0.40828(8) -0.76231(7) -0.02134(7)
loop_
_geom_bond_atom_site_label_1
_geom_bond_atom_site_label_2
_geom_bond_site_symmetry_1
_geom_bond_site_symmetry_2
C1 H1 1_555 1_555
C2 C1 1_555 1_555
H2 C2 1_555 1_555
C3 H3 1_555 1_555
C4 H4 1_555 1_555
H5 C4 1_555 1_555
C5 C4 1_555 1_555
H6 C5 1_555 1_555
H7 C5 1_555 1_555
C6 C5 1_555 1_555
H8 C6 1_555 1_555
H9 C6 1_555 1_555
C7 C6 1_555 1_555
H10 C7 1_555 1_555
H11 C7 1_555 1_555
C8 H12 1_555 1_555
C9 H13 1_555 1_555
C10 C9 1_555 1_555
H14 C10 1_555 1_555
N1 C2 1_555 1_555
N2 C1 1_555 1_555
N3 C7 1_555 1_555
N4 C8 1_555 1_555
Cu1 N2 1_555 1_555
C11 H15 1_555 1_555
C12 C11 1_555 1_555
H16 C12 1_555 1_555
C13 H17 1_555 1_555
C14 C15 1_555 1_555
C15 C16A 1_555 1_555
C16 C14 1_555 1_555
C17 H18 1_555 1_555
C18 C17 1_555 1_555
H19 C18 1_555 1_555
C19 H20 1_555 1_555
C20 H21 1_555 1_555
H22 C20 1_555 1_555
C21 C20 1_555 1_555
H23 C21 1_555 1_555
H24 C21 1_555 1_555
N5 C11 1_555 1_555
N6 C12 1_555 1_555
N7 C17 1_555 1_555
N8 C18 1_555 1_555
O1 Mo1 1_555 1_555
O2 Mo1 1_555 1_555
O3 Mo1 1_555 1_555
O4 Mo1 1_555 1_555
O5 Mo1 1_555 1_555
O6 Mo1 1_555 1_555
O7 Mo3 1_555 1_555
O8 Cu2 1_555 1_555
O9 Mo2 1_555 1_555
O10 Mo2 1_555 1_555
O11 Mo2 1_555 1_555
O12 Mo4 1_555 1_555
O13 Mo4 1_555 1_555
Cu2 N6 1_555 1_555
Mo2 O5 1_555 1_555
Mo3 O5 1_555 1_555
Mo4 O10 1_555 1_555
C1_2 H1_2 1_555 1_555
C2_2 C1_2 1_555 1_555
H2_2 C2_2 1_555 1_555
C3_2 H3_2 1_555 1_555
C4_2 H4_2 1_555 1_555
H5_2 C4_2 1_555 1_555
C5_2 C4_2 1_555 1_555
H6_2 C5_2 1_555 1_555
H7_2 C5_2 1_555 1_555
C6_2 C5_2 1_555 1_555
H8_2 C6_2 1_555 1_555
H9_2 C6_2 1_555 1_555
C7_2 C6_2 1_555 1_555
H10_2 C7_2 1_555 1_555
H11_2 C7_2 1_555 1_555
C8_2 H12_2 1_555 1_555
C9_2 H13_2 1_555 1_555
C10_2 C9_2 1_555 1_555
H14_2 C10_2 1_555 1_555
N1_2 C2_2 1_555 1_555
N2_2 C1_2 1_555 1_555
N3_2 C7_2 1_555 1_555
N4_2 Cu1 1_555 1_555
N4_3 Cu1_2 1_555 1_555
Cu1_2 N2_2 1_555 1_555
Cu1_3 N4 1_555 1_555
C11A H15A 1_555 1_555
C12A C11A 1_555 1_555
C12A_2 N6A_2 1_555 1_555
H16A C12A 1_555 1_555
C13A H17A 1_555 1_555
C13A_2 N6A_2 1_555 1_555
C14A C15A 1_555 1_555
C15A C16 1_555 1_555
C16A C14A 1_555 1_555
C17A H18A 1_555 1_555
C17A_2 N7A_2 1_555 1_555
C18A C17A 1_555 1_555
H19A C18A 1_555 1_555
C19A H20A 1_555 1_555
C19A_2 N7A_2 1_555 1_555
C20A H21A 1_555 1_555
H22A C20A 1_555 1_555
C21A C21 1_555 1_555
H23A C21A 1_555 1_555
H24A C21A 1_555 1_555
N5A C11A 1_555 1_555
N6A C12A 1_555 1_555
N6A_2 Cu2 1_555 1_555
N6_2 Cu2_2 1_555 1_555
N6_3 Cu2_3 1_555 1_555
N6A_3 Cu2_3 1_555 1_555
N7A C17A 1_555 1_555
N7A_2 Cu2 1_555 1_555
N7_2 Cu2_2 1_555 1_555
N7A_3 Cu2_2 1_555 1_555
N7_3 Cu2_3 1_555 1_555
N8A C18A 1_555 1_555
O1A Mo4 1_555 1_555
O1A_2 Mo1A 1_555 1_555
O1_2 Mo1_2 1_555 1_555
O2A Mo1A 1_555 1_555
O2A_2 Mo1A_2 1_555 1_555
O3A Mo1A 1_555 1_555
O3A_2 Mo1A_2 1_555 1_555
O4A Mo3 1_555 1_555
O4A_2 Mo1A 1_555 1_555
O4_2 Mo1_2 1_555 1_555
O5A Mo1A 1_555 1_555
O5A_2 Mo1A_2 1_555 1_555
O5_2 Mo2_2 1_555 1_555
O6A Mo1A 1_555 1_555
O6A_2 Mo1A_2 1_555 1_555
O7A Mo3A 1_555 1_555
O7A_2 Mo3A_2 1_555 1_555
O7_2 Mo3_2 1_555 1_555
O8A Cu2 1_555 1_555
O8_2 Cu2_2 1_555 1_555
O8A_2 Cu2_2 1_555 1_555
O8_3 Cu2_3 1_555 1_555
O8A_3 Cu2_3 1_555 1_555
O8A_4 Cu2_4 1_555 1_555
O9A Mo2A 1_555 1_555
O9A_2 Mo2A_2 1_555 1_555
O10A Mo2A 1_555 1_555
O10A_2 Mo3 1_555 1_555
O10_2 Mo2_2 1_555 1_555
O11A Mo2A 1_555 1_555
O11A_2 Mo2A_2 1_555 1_555
O12A Mo4A 1_555 1_555
O12A_2 Mo4A_2 1_555 1_555
O13A Mo4A 1_555 1_555
O13A_2 Mo4A_2 1_555 1_555
Cu2_2 N6A 1_555 1_555
Cu2_3 N7A 1_555 1_555
Mo1A_2 O1A 1_555 1_555
Mo2A O5A 1_555 1_555
Mo2A_2 O5A_2 1_555 1_555
Mo3A O4_2 1_555 1_555
Mo3A_2 O4 1_555 1_555
Mo3_2 O4A_2 1_555 1_555
Mo4A O1_2 1_555 1_555
Mo4A_2 O1 1_555 1_555
Mo4_2 O1A_2 1_555 1_555
C3 N1 1_555 1_555
C3 N2 1_555 1_555
C4 N1 1_555 1_555
C8 N3 1_555 1_555
C9 N3 1_555 1_555
C10 N4 1_555 1_555
C13 N5 1_555 1_555
C13 N6 1_555 1_555
C14 N5 1_555 1_555
C19 N7 1_555 1_555
C19 N8 1_555 1_555
C20 N8 1_555 1_555
N7 Cu2 1_555 1_555
O4 Mo4A_2 1_555 1_555
O6 Mo2 1_555 1_555
O8 Mo2 1_555 1_555
O10 Mo3A_2 1_555 1_555
O11 Mo4 1_555 1_555
Mo4 O4A 1_555 1_555
C3_2 N1_2 1_555 1_555
C3_2 N2_2 1_555 1_555
C4_2 N1_2 1_555 1_555
C8_2 N3_2 1_555 1_555
C8_2 N4_2 1_555 1_555
C9_2 N3_2 1_555 1_555
C10_2 N4_2 1_555 1_555
C13A N5A 1_555 1_555
C13A N6A 1_555 1_555
C14A N5A 1_555 1_555
C19A N7A 1_555 1_555
C19A N8A 1_555 1_555
C20A C21A 1_555 1_555
C20A N8A 1_555 1_555
O4A Mo1A_2 1_555 1_555
O4A_2 Mo4_2 1_555 1_555
O4_2 Mo4A 1_555 1_555
O5A Mo3A 1_555 1_555
O5A_2 Mo3A_2 1_555 1_555
O5_2 Mo3_2 1_555 1_555
O6A Mo2A 1_555 1_555
O6A_2 Mo2A_2 1_555 1_555
O8A Mo2A 1_555 1_555
O8A_4 Mo2A_2 1_555 1_555
O10A Mo3_2 1_555 1_555
O10A Mo4A 1_555 1_555
O10A_2 Mo2A_2 1_555 1_555
O10A_2 Mo4A_2 1_555 1_555
O10_2 Mo3A 1_555 1_555
O10_2 Mo4_2 1_555 1_555
O11A Mo4A 1_555 1_555
O11A_2 Mo4A_2 1_555 1_555

#END
