
#######################################################################
#
#                 Cambridge Crystallographic Data Centre
#                                CCDC 
#
#######################################################################
#
# If this CIF has been generated from an entry in the Cambridge 
# Structural Database, then it will include bibliographic, chemical, 
# crystal, experimental, refinement or atomic coordinate data resulting 
# from the CCDC's data processing and validation procedures.
#
#######################################################################

data_VOLNUH
_symmetry_cell_setting           orthorhombic
_symmetry_space_group_name_H-M   'F d d d'
_symmetry_Int_Tables_number      70
_space_group_name_Hall           '-F 2uv 2vw'
loop_
_symmetry_equiv_pos_site_id
_symmetry_equiv_pos_as_xyz
1 x,y,z
2 1/4-x,1/4-y,z
3 x,1/4-y,1/4-z
4 1/4-x,y,1/4-z
5 x,1/2+y,1/2+z
6 1/4-x,3/4-y,1/2+z
7 x,3/4-y,3/4-z
8 1/4-x,1/2+y,3/4-z
9 1/2+x,y,1/2+z
10 3/4-x,1/4-y,1/2+z
11 1/2+x,1/4-y,3/4-z
12 3/4-x,y,3/4-z
13 1/2+x,1/2+y,z
14 3/4-x,3/4-y,z
15 1/2+x,3/4-y,1/4-z
16 3/4-x,1/2+y,1/4-z
17 -x,-y,-z
18 3/4+x,3/4+y,-z
19 -x,3/4+y,3/4+z
20 3/4+x,-y,3/4+z
21 -x,1/2-y,1/2-z
22 3/4+x,1/4+y,1/2-z
23 -x,1/4+y,1/4+z
24 3/4+x,1/2-y,1/4+z
25 1/2-x,-y,1/2-z
26 1/4+x,3/4+y,1/2-z
27 1/2-x,3/4+y,1/4+z
28 1/4+x,-y,1/4+z
29 1/2-x,1/2-y,-z
30 1/4+x,1/4+y,-z
31 1/2-x,1/4+y,3/4+z
32 1/4+x,1/2-y,3/4+z
_cell_length_a                   33.1272(12)
_cell_length_b                   65.1158(10)
_cell_length_c                   19.1804(3)
_cell_angle_alpha                90
_cell_angle_beta                 90
_cell_angle_gamma                90
_cell_volume                     41374.1
loop_
_atom_site_label
_atom_site_type_symbol
_atom_site_fract_x
_atom_site_fract_y
_atom_site_fract_z
Zn1 Zn 0.50213(4) 0.057929(19) 0.31253(7)
Zn2 Zn 0.26950(4) -0.00923(2) 0.00879(7)
Zn3 Zn 0.24480(5) 0.04157(3) -0.01375(10)
S1 S 0.39099(13) 0.02133(6) 0.1297(2)
S2 S 0.49482(17) 0.12816(8) 0.3992(3)
S3 S 0.1293(18) 0.02666(13) 0.124(3)
S4 S 0.6292(7) 0.03565(7) 0.1324(12)
S5 S 0.5153(3) -0.00494(13) 0.4720(4)
S6 S 0.2711(3) -0.00630(12) -0.2320(4)
O1 O 0.3153(3) 0.00870(14) 0.0483(5)
O2 O 0.2926(3) 0.04179(16) 0.0403(6)
O3 O 0.5476(3) 0.06144(15) 0.2488(5)
O4 O 0.5597(3) 0.02846(13) 0.2203(5)
O5 O 0.4559(3) 0.05427(17) 0.2492(6)
O6 O 0.4703(3) 0.02358(16) 0.2061(6)
O7 O 0.4696(4) 0.0421(2) 0.4069(7)
O8 O 0.4748(5) 0.1724(2) 0.4184(8)
O9 O 0.5212(3) 0.02981(15) 0.3550(5)
O10 O 0.2692(4) 0.01042(17) -0.0794(6)
O11 O 0.2257(4) 0.0326(2) -0.1146(7)
O12 O 0.2234(4) 0.00292(17) 0.0623(6)
O13 O 0.1972(4) 0.03206(17) 0.0363(7)
O14 O 0.4935(3) 0.08619(16) 0.3435(6)
O15 O 0.5485(4) 0.0752(2) 0.4062(7)
O16 O 0.5228(5) 0.1807(2) 0.4765(9)
C1 C 0.5665(4) 0.04749(17) 0.2173(7)
C2 C 0.1953(4) 0.01492(19) 0.0635(7)
C3 C 0.3180(4) 0.0275(2) 0.0605(8)
C4 C 0.3516(4) 0.0352(2) 0.1030(8)
C5 C 0.5973(4) 0.05373(17) 0.1655(8)
C6 C 0.4490(4) 0.0400(2) 0.2123(8)
C7 C 0.1572(4) 0.00963(19) 0.0954(7)
C8 C 0.5263(6) 0.0901(3) 0.3912(11)
C9 C 0.3569(4) 0.0546(2) 0.1259(8)
C10 C 0.4119(4) 0.0416(2) 0.1720(8)
C11 C 0.5262(6) 0.1096(3) 0.4209(11)
C12 C 0.1448(5) -0.0097(2) 0.1049(9)
C13 C 0.6102(4) 0.07330(19) 0.1502(9)
C14 C 0.5175(6) 0.1428(3) 0.4292(11)
C15 C 0.3874(5) 0.0585(2) 0.1663(9)
C16 C 0.5578(6) 0.1165(3) 0.4638(11)
C17 C 0.5513(6) 0.1390(3) 0.4749(11)
C18 C 0.5059(7) 0.1671(3) 0.4556(13)
C19 C 0.2484(4) 0.0170(2) -0.1260(7)
C20 C 0.2439(9) 0.0140(5) -0.1986(14)
C21 C 0.2524(9) 0.0018(5) -0.1879(15)
C22 C 0.4958(5) 0.0296(2) 0.4034(8)
C23 C 0.5488(9) 0.0007(4) 0.4585(14)
C24 C 0.4487(9) 0.0146(4) 0.4965(14)
C25 C 0.5152(9) 0.0139(4) 0.4608(14)
C26 C 0.4821(10) 0.0130(4) 0.4533(15)
C27 C 0.2204(9) 0.0238(4) -0.2398(14)
C28 C 0.2783(9) -0.0152(4) -0.1854(15)
S3C S 0.1207(18) 0.02666(13) 0.126(3)
O12C O 0.0266(4) 0.00292(17) 0.1877(6)
O13C O 0.0528(4) 0.03206(17) 0.2137(7)
C2C C 0.0547(4) 0.01492(19) 0.1865(7)
C7C C 0.0928(4) 0.00963(19) 0.1546(7)
C12C C 0.1052(5) -0.0097(2) 0.1451(9)
S4C S 0.6208(7) 0.03565(7) 0.1176(12)
O3C O 0.7024(3) 0.06144(15) 0.0012(5)
O4C O 0.6903(3) 0.02846(13) 0.0297(5)
C1C C 0.6835(4) 0.04749(17) 0.0327(7)
C5C C 0.6527(4) 0.05373(17) 0.0845(8)
C13C C 0.6398(4) 0.07330(19) 0.0998(9)
S5P S 0.4847(3) 0.00494(13) 0.5280(4)
O7P O 0.5304(4) -0.0421(2) 0.5931(7)
O9P O 0.4788(3) -0.02981(15) 0.6450(5)
C22P C 0.5042(5) -0.0296(2) 0.5966(8)
C23P C 0.4512(9) -0.0007(4) 0.5415(14)
C24P C 0.5513(9) -0.0146(4) 0.5035(14)
C25P C 0.4848(9) -0.0139(4) 0.5392(14)
C26P C 0.5179(10) -0.0130(4) 0.5467(15)
S6X S 0.2289(3) 0.00630(12) -0.2680(4)
O10X O 0.2308(4) -0.01042(17) -0.4206(6)
O11X O 0.2743(4) -0.0326(2) -0.3854(7)
C19X C 0.2516(4) -0.0170(2) -0.3740(7)
C20X C 0.2561(9) -0.0140(5) -0.3014(14)
C21X C 0.2476(9) -0.0018(5) -0.3121(15)
C27X C 0.2796(9) -0.0238(4) -0.2602(14)
C28X C 0.2217(9) 0.0152(4) -0.3146(15)
Zn1C Zn -0.25213(4) 0.057929(19) -0.06253(7)
Zn2C Zn -0.01950(4) -0.00923(2) 0.24121(7)
Zn3C Zn 0.00520(5) 0.04157(3) 0.26375(10)
S1C S -0.14099(13) 0.02133(6) 0.1203(2)
S2C S -0.24482(17) 0.12816(8) -0.1492(3)
O1C O -0.0653(3) 0.00870(14) 0.2017(5)
O2C O -0.0426(3) 0.04179(16) 0.2097(6)
O5C O -0.2059(3) 0.05427(17) 0.0008(6)
O6C O -0.2203(3) 0.02358(16) 0.0439(6)
O8C O -0.2248(5) 0.1724(2) -0.1684(8)
O14C O -0.2435(3) 0.08619(16) -0.0935(6)
O15C O -0.2985(4) 0.0752(2) -0.1562(7)
O16C O -0.2728(5) 0.1807(2) -0.2265(9)
C3C C -0.0680(4) 0.0275(2) 0.1895(8)
C4C C -0.1016(4) 0.0352(2) 0.1470(8)
C6C C -0.1990(4) 0.0400(2) 0.0377(8)
C8C C -0.2763(6) 0.0901(3) -0.1412(11)
C9C C -0.1069(4) 0.0546(2) 0.1241(8)
C10C C -0.1619(4) 0.0416(2) 0.0780(8)
C11C C -0.2762(6) 0.1096(3) -0.1709(11)
C14C C -0.2675(6) 0.1428(3) -0.1792(11)
C15C C -0.1374(5) 0.0585(2) 0.0837(9)
C16C C -0.3078(6) 0.1165(3) -0.2138(11)
C17C C -0.3013(6) 0.1390(3) -0.2249(11)
C18C C -0.2559(7) 0.1671(3) -0.2056(13)
Zn1C_2 Zn 0.74787(4) 0.057929(19) -0.06253(7)
Zn1P Zn 0.49787(4) -0.057929(19) 0.68747(7)
Zn2K Zn 0.48050(4) -0.00923(2) 0.74121(7)
Zn2P Zn -0.26950(4) 0.00923(2) -0.00879(7)
Zn2P_2 Zn 0.73050(4) 0.00923(2) -0.00879(7)
Zn2X Zn 0.23050(4) 0.00923(2) -0.50879(7)
Zn2AA Zn 0.51950(4) 0.00923(2) 0.25879(7)
Zn3I Zn 0.50520(5) 0.20843(3) 0.48625(10)
Zn3J Zn -0.25520(5) 0.20843(3) -0.23625(10)
Zn3X Zn 0.25520(5) -0.04157(3) -0.48625(10)
O3C_2 O -0.2976(3) 0.06144(15) 0.0012(5)
O4S O 0.3097(3) -0.02846(13) -0.0297(5)
O4X O -0.0597(3) -0.02846(13) 0.2797(5)
O6S O 0.2203(3) -0.02358(16) -0.0439(6)
O6X O 0.0297(3) -0.02358(16) 0.2939(6)
O7C O -0.2196(4) 0.0421(2) -0.1569(7)
O9C O -0.2712(3) 0.02981(15) -0.1050(5)
O9S O 0.2712(3) -0.02981(15) 0.1050(5)
O9X O -0.0212(3) -0.02981(15) 0.1450(5)
O10C O -0.0192(4) 0.01042(17) 0.3294(6)
O11C O 0.0243(4) 0.0326(2) 0.3646(7)
O16I O 0.2272(5) 0.0693(2) -0.0235(9)
O16J O 0.0228(5) 0.0693(2) 0.2735(9)
loop_
_geom_bond_atom_site_label_1
_geom_bond_atom_site_label_2
_geom_bond_site_symmetry_1
_geom_bond_site_symmetry_2
Zn1 O3 1_555 1_555
Zn2 O1 1_555 1_555
Zn3 O2 1_555 1_555
S1 C4 1_555 1_555
S2 C11 1_555 1_555
S3 C7 1_555 1_555
S4 C5 1_555 1_555
S5 C26 1_555 1_555
S6 C20 1_555 1_555
O1 C3 1_555 1_555
O2 C3 1_555 1_555
O3 C1 1_555 1_555
O4 C1 1_555 1_555
O5 Zn1 1_555 1_555
O6 C6 1_555 1_555
O7 Zn1 1_555 1_555
O8 C18 1_555 1_555
O9 Zn1 1_555 1_555
O10 Zn2 1_555 1_555
O11 Zn3 1_555 1_555
O12 Zn2 1_555 1_555
O13 Zn3 1_555 1_555
O14 Zn1 1_555 1_555
O15 C8 1_555 1_555
O16 C18 1_555 1_555
C1 C5 1_555 1_555
C2 O12 1_555 1_555
C3 C4 1_555 1_555
C4 C9 1_555 1_555
C5 C13 1_555 1_555
C6 O5 1_555 1_555
C7 C2 1_555 1_555
C8 O14 1_555 1_555
C9 C15 1_555 1_555
C10 S1 1_555 1_555
C11 C8 1_555 1_555
C12 C7 1_555 1_555
C13 C13C 1_555 1_555
C14 S2 1_555 1_555
C15 C10 1_555 1_555
C16 C11 1_555 1_555
C17 C14 1_555 1_555
C18 C14 1_555 1_555
C19 O10 1_555 1_555
C20 C19 1_555 1_555
C21 C19 1_555 1_555
C22 O7 1_555 1_555
C23 C25 1_555 1_555
C24 C26 1_555 1_555
C25 C22 1_555 1_555
C26 C22 1_555 1_555
C27 C20 1_555 1_555
C28 C21 1_555 1_555
S3C C7 1_555 1_555
O12C C2C 1_555 1_555
O13C C2C 1_555 1_555
C2C C7C 1_555 1_555
C7C S3 1_555 1_555
C12C C12 1_555 1_555
S4C C5 1_555 1_555
O3C C1C 1_555 1_555
O4C C1C 1_555 1_555
C1C C5C 1_555 1_555
C5C S4 1_555 1_555
C13C C5C 1_555 1_555
S5P C25 1_555 1_555
O7P C22P 1_555 1_555
O9P C22P 1_555 1_555
C22P C25P 1_555 1_555
C23P C24 1_555 1_555
C24P C23 1_555 1_555
C25P S5 1_555 1_555
C26P S5P 1_555 1_555
S6X C21 1_555 1_555
O10X C19X 1_555 1_555
O11X C19X 1_555 1_555
C19X C20X 1_555 1_555
C20X S6X 1_555 1_555
C21X S6 1_555 1_555
C27X C28 1_555 1_555
C28X C27 1_555 1_555
Zn1C O5C 1_555 1_555
Zn2C O12C 1_555 1_555
Zn3C O13C 1_555 1_555
S1C C4C 1_555 1_555
S2C C11C 1_555 1_555
O1C Zn2C 1_555 1_555
O2C Zn3C 1_555 1_555
O5C C6C 1_555 1_555
O6C C6C 1_555 1_555
O8C C18C 1_555 1_555
O14C Zn1C 1_555 1_555
O15C C8C 1_555 1_555
O16C C18C 1_555 1_555
C3C O1C 1_555 1_555
C4C C3C 1_555 1_555
C6C C10C 1_555 1_555
C8C O14C 1_555 1_555
C9C C4C 1_555 1_555
C10C S1C 1_555 1_555
C11C C8C 1_555 1_555
C14C S2C 1_555 1_555
C15C C9C 1_555 1_555
C16C C11C 1_555 1_555
C17C C14C 1_555 1_555
C18C C14C 1_555 1_555
Zn1C_2 O3C 1_555 1_555
Zn1P O7P 1_555 1_555
Zn2K O9P 1_555 1_555
Zn2P O6C 1_555 1_555
Zn2P_2 O4C 1_555 1_555
Zn2X O10X 1_555 1_555
Zn2AA O4 1_555 1_555
Zn3I O16 1_555 1_555
Zn3J O16C 1_555 1_555
Zn3X O10X 1_555 1_555
O3C_2 Zn1C 1_555 1_555
O4S Zn2 1_555 1_555
O4X Zn2C 1_555 1_555
O6S Zn2 1_555 1_555
O6X Zn2C 1_555 1_555
O7C Zn1C 1_555 1_555
O9C Zn1C 1_555 1_555
O9S Zn2 1_555 1_555
O9X Zn2C 1_555 1_555
O10C Zn2C 1_555 1_555
O11C Zn3C 1_555 1_555
O16I Zn3 1_555 1_555
O16J Zn3C 1_555 1_555
Zn3 O10 1_555 1_555
O6 Zn2AA 1_555 1_555
O9 C22 1_555 1_555
O9 Zn2AA 1_555 1_555
O11 C19 1_555 1_555
O13 C2 1_555 1_555
C6 C10 1_555 1_555
C16 C17 1_555 1_555
S3C C7C 1_555 1_555
C7C C12C 1_555 1_555
S4C C5C 1_555 1_555
O9P Zn1P 1_555 1_555
C22P C26P 1_555 1_555
C23P C25P 1_555 1_555
C24P C26P 1_555 1_555
O11X Zn3X 1_555 1_555
C19X C21X 1_555 1_555
C20X C27X 1_555 1_555
C21X C28X 1_555 1_555
Zn3C O10C 1_555 1_555
O2C C3C 1_555 1_555
C10C C15C 1_555 1_555
C16C C17C 1_555 1_555
Zn2P O9C 1_555 1_555

#END
