
#######################################################################
#
#                 Cambridge Crystallographic Data Centre
#                                CCDC 
#
#######################################################################
#
# If this CIF has been generated from an entry in the Cambridge 
# Structural Database, then it will include bibliographic, chemical, 
# crystal, experimental, refinement or atomic coordinate data resulting 
# from the CCDC's data processing and validation procedures.
#
#######################################################################

data_VOLPET
_symmetry_cell_setting           triclinic
_symmetry_space_group_name_H-M   'P -1'
_symmetry_Int_Tables_number      2
_space_group_name_Hall           '-P 1'
loop_
_symmetry_equiv_pos_site_id
_symmetry_equiv_pos_as_xyz
1 x,y,z
2 -x,-y,-z
_cell_length_a                   15.5168(7)
_cell_length_b                   16.7790(8)
_cell_length_c                   18.7394(11)
_cell_angle_alpha                94.142(4)
_cell_angle_beta                 113.527(5)
_cell_angle_gamma                110.215(4)
_cell_volume                     4070.64
loop_
_atom_site_label
_atom_site_type_symbol
_atom_site_fract_x
_atom_site_fract_y
_atom_site_fract_z
Zn1 Zn 0.5000 0.5000 0.5000
Zn2 Zn 0.42982(5) 0.41057(4) 0.28820(4)
Zn3 Zn 1.19115(4) 0.87693(4) 0.46624(4)
Zn4 Zn 1.00845(5) 0.80840(4) 0.27560(4)
S1 S 0.26838(13) 0.13098(10) 0.31983(10)
S2 S 0.76722(11) 0.62936(11) 0.35886(10)
S3 S 1.29331(11) 0.65218(9) 0.38312(9)
S4 S 0.74845(13) 0.72240(12) -0.00409(10)
O1 O 0.1095(3) -0.0817(2) 0.3637(2)
O2 O 0.1259(4) -0.0575(3) 0.2549(3)
O3 O 0.3937(3) 0.3708(2) 0.4424(2)
O4 O 0.3947(3) 0.3105(2) 0.3323(3)
O5 O 0.6024(3) 0.4954(2) 0.4546(2)
O6 O 0.5682(3) 0.5021(3) 0.3279(3)
O7 O 0.9333(3) 0.7457(3) 0.3336(3)
O8 O 1.0563(3) 0.7868(2) 0.4581(2)
O9 O 0.9056(3) 0.7712(3) 0.1625(3)
O10 O 0.8671(6) 0.8677(5) 0.2099(3)
O11 O 0.6269(3) 0.6397(3) -0.1749(2)
O12 O 0.5085(4) 0.6924(4) -0.1999(3)
O13 O 1.4219(3) 0.5515(2) 0.4095(2)
O14 O 1.3390(3) 0.4693(3) 0.2857(3)
O15 O 1.2089(3) 0.7842(3) 0.3980(3)
O16 O 1.0870(3) 0.7402(3) 0.2703(3)
O17 O 1.3292(3) 0.9737(3) 0.4844(3)
O18 O 1.2750(3) 0.8381(3) 0.5669(2)
O19 O 1.1794(3) 0.9657(3) 0.5422(3)
N1 N 1.3341(6) 0.7374(5) 0.6076(4)
N2 N 1.4847(4) 1.0800(4) 0.5668(4)
N3 N 1.1077(5) 0.9806(5) 0.6252(4)
C1 C 1.4378(7) 0.7990(8) 0.6599(8)
H1 H 1.4419 0.8575 0.6609
H2 H 1.4836 0.7907 0.6406
H3 H 1.4572 0.7900 0.7131
C2 C 1.5737(7) 1.1152(7) 0.6472(5)
H4 H 1.5572 1.0830 0.6836
H5 H 1.5902 1.1759 0.6659
H6 H 1.6319 1.1097 0.6443
C3 C 1.3181(10) 0.6487(7) 0.6012(6)
H7 H 1.2475 0.6122 0.5645
H8 H 1.3335 0.6362 0.6530
H9 H 1.3624 0.6372 0.5818
C4 C 1.1675(7) 0.6226(6) 0.2403(5)
H10 H 1.1166 0.6241 0.1931
C5 C 1.0685(8) 0.9421(7) 0.6802(6)
H11 H 1.0784 0.8891 0.6859
H12 H 0.9965 0.9293 0.6588
H13 H 1.1052 0.9829 0.7317
C6 C 1.2179(7) 0.5659(7) 0.2442(5)
H14 H 1.2034 0.5259 0.1996
C7 C 0.6889(9) 0.8194(8) 0.0531(5)
H15 H 0.6827 0.8565 0.0884
C8 C 1.4982(5) 1.1218(4) 0.5060(5)
H16 H 1.4361 1.0948 0.4564
H17 H 1.5540 1.1157 0.4993
H18 H 1.5137 1.1828 0.5216
C9 C 1.0999(8) 1.0620(6) 0.6091(5)
H19 H 1.1276 1.0799 0.5725
H20 H 1.1379 1.1066 0.6584
H21 H 1.0288 1.0533 0.5858
C10 C 0.7653(6) 0.7907(5) 0.0749(4)
C11 C 0.6392(6) 0.7310(5) -0.0691(4)
C12 C 0.6209(8) 0.7866(8) -0.0285(5)
H22 H 0.5662 0.8024 -0.0531
C13 C 0.8521(7) 0.8129(6) 0.1556(5)
C14 C 0.8092(5) 0.6274(4) 0.5020(4)
H23 H 0.8043 0.6152 0.5482
C15 C 1.2012(5) 0.6732(4) 0.3114(4)
C16 C 1.2877(5) 0.5755(4) 0.3178(4)
C17 C 0.5866(6) 0.6836(5) -0.1554(4)
C18 C 0.1441(5) -0.0311(4) 0.3258(5)
C19 C 1.2646(5) 0.7632(5) 0.5649(4)
H24 H 1.2005 0.7198 0.5291
C20 C 1.4010(5) 1.0106(5) 0.5521(5)
H25 H 1.3959 0.9885 0.5950
C21 C 1.1465(6) 0.9419(5) 0.5904(5)
H26 H 1.1494 0.8903 0.6038
C22 C 0.2208(4) 0.1083(4) 0.4336(4)
H27 H 0.1932 0.0820 0.4661
C23 C 0.8990(4) 0.6860(4) 0.5022(4)
H28 H 0.9599 0.7170 0.5489
C24 C 1.3570(5) 0.5287(4) 0.3408(4)
C25 C 0.2084(4) 0.0642(4) 0.3656(4)
C26 C 0.6243(4) 0.5254(4) 0.4013(4)
C27 C 0.8893(4) 0.6933(3) 0.4294(4)
C28 C 1.1604(5) 0.7381(4) 0.3282(4)
C29 C 0.3733(4) 0.3093(4) 0.3900(4)
C30 C 0.7310(4) 0.5910(3) 0.4279(4)
C31 C 0.9662(5) 0.7465(4) 0.4070(4)
C32 C 0.3113(4) 0.2196(3) 0.3946(3)
C33 C 0.2793(4) 0.1980(4) 0.4509(4)
H29 H 0.2947 0.2382 0.4957
Zn2A Zn 0.57018(5) 0.58943(4) -0.28820(4)
Zn3A Zn -0.19115(4) 0.12307(4) -0.46624(4)
Zn4A Zn -0.00845(5) 0.19160(4) -0.27560(4)
S1A S 0.73162(13) 0.86902(10) -0.31983(10)
S2A S 0.23278(11) 0.37064(11) -0.35886(10)
S3A S -0.29331(11) 0.34782(9) -0.38312(9)
S4A S 0.25155(13) 0.27760(12) 0.00409(10)
O1A O 0.8905(3) 1.0817(2) -0.3637(2)
O2A O 0.8741(4) 1.0575(3) -0.2549(3)
O3A O 0.6063(3) 0.6292(2) -0.4424(2)
O4A O 0.6053(3) 0.6895(2) -0.3323(3)
O5A O 0.3976(3) 0.5046(2) -0.4546(2)
O6A O 0.4318(3) 0.4979(3) -0.3279(3)
O7A O 0.0667(3) 0.2543(3) -0.3336(3)
O8A O -0.0563(3) 0.2132(2) -0.4581(2)
O9A O 0.0944(3) 0.2288(3) -0.1625(3)
O10A O 0.1329(6) 0.1323(5) -0.2099(3)
O11A O 0.3731(3) 0.3603(3) 0.1749(2)
O12A O 0.4915(4) 0.3076(4) 0.1999(3)
O13A O -0.4219(3) 0.4485(2) -0.4095(2)
O14A O -0.3390(3) 0.5307(3) -0.2857(3)
O15A O -0.2089(3) 0.2158(3) -0.3980(3)
O16A O -0.0870(3) 0.2598(3) -0.2703(3)
O17A O -0.3292(3) 0.0263(3) -0.4844(3)
O18A O -0.2750(3) 0.1619(3) -0.5669(2)
O19A O -0.1794(3) 0.0343(3) -0.5422(3)
N1A N -0.3341(6) 0.2626(5) -0.6076(4)
N2A N -0.4847(4) -0.0800(4) -0.5668(4)
N3A N -0.1077(5) 0.0194(5) -0.6252(4)
C1A C -0.4378(7) 0.2010(8) -0.6599(8)
H1A H -0.4419 0.1425 -0.6609
H2A H -0.4836 0.2093 -0.6406
H3A H -0.4572 0.2100 -0.7131
C2A C -0.5737(7) -0.1152(7) -0.6472(5)
H4A H -0.5572 -0.0830 -0.6836
H5A H -0.5902 -0.1759 -0.6659
H6A H -0.6319 -0.1097 -0.6443
C3A C -0.3181(10) 0.3513(7) -0.6012(6)
H7A H -0.2475 0.3878 -0.5645
H8A H -0.3335 0.3638 -0.6530
H9A H -0.3624 0.3628 -0.5818
C4A C -0.1675(7) 0.3774(6) -0.2403(5)
H10A H -0.1166 0.3759 -0.1931
C5A C -0.0685(8) 0.0579(7) -0.6802(6)
H11A H -0.0784 0.1109 -0.6859
H12A H 0.0035 0.0707 -0.6588
H13A H -0.1052 0.0171 -0.7317
C6A C -0.2179(7) 0.4341(7) -0.2442(5)
H14A H -0.2034 0.4741 -0.1996
C7A C 0.3111(9) 0.1806(8) -0.0531(5)
H15A H 0.3173 0.1435 -0.0884
C8A C -0.4982(5) -0.1218(4) -0.5060(5)
H16A H -0.4361 -0.0948 -0.4564
H17A H -0.5540 -0.1157 -0.4993
H18A H -0.5137 -0.1828 -0.5216
C9A C -0.0999(8) -0.0620(6) -0.6091(5)
H19A H -0.1276 -0.0799 -0.5725
H20A H -0.1379 -0.1066 -0.6584
H21A H -0.0288 -0.0533 -0.5858
C10A C 0.2347(6) 0.2093(5) -0.0749(4)
C11A C 0.3608(6) 0.2690(5) 0.0691(4)
C12A C 0.3791(8) 0.2134(8) 0.0285(5)
H22A H 0.4338 0.1976 0.0531
C13A C 0.1479(7) 0.1871(6) -0.1556(5)
C14A C 0.1908(5) 0.3726(4) -0.5020(4)
H23A H 0.1957 0.3848 -0.5482
C15A C -0.2012(5) 0.3268(4) -0.3114(4)
C16A C -0.2877(5) 0.4245(4) -0.3178(4)
C17A C 0.4134(6) 0.3164(5) 0.1554(4)
C18A C 0.8559(5) 1.0311(4) -0.3258(5)
C19A C -0.2646(5) 0.2368(5) -0.5649(4)
H24A H -0.2005 0.2802 -0.5291
C20A C -0.4010(5) -0.0106(5) -0.5521(5)
H25A H -0.3959 0.0115 -0.5950
C21A C -0.1465(6) 0.0581(5) -0.5904(5)
H26A H -0.1494 0.1097 -0.6038
C22A C 0.7792(4) 0.8917(4) -0.4336(4)
H27A H 0.8068 0.9180 -0.4661
C23A C 0.1010(4) 0.3140(4) -0.5022(4)
H28A H 0.0401 0.2830 -0.5489
C24A C -0.3570(5) 0.4713(4) -0.3408(4)
C25A C 0.7916(4) 0.9358(4) -0.3656(4)
C26A C 0.3757(4) 0.4746(4) -0.4013(4)
C27A C 0.1107(4) 0.3067(3) -0.4294(4)
C28A C -0.1604(5) 0.2619(4) -0.3282(4)
C29A C 0.6267(4) 0.6907(4) -0.3900(4)
C30A C 0.2690(4) 0.4090(3) -0.4279(4)
C31A C 0.0338(5) 0.2535(4) -0.4070(4)
C32A C 0.6887(4) 0.7804(3) -0.3946(3)
C33A C 0.7207(4) 0.8020(4) -0.4509(4)
H29A H 0.7053 0.7618 -0.4957
Zn1_2 Zn -0.5000 0.5000 -0.5000
Zn1_3 Zn 0.5000 0.5000 -0.5000
Zn1_4 Zn 1.5000 0.5000 0.5000
Zn2_2 Zn 1.42982(5) 0.41057(4) 0.28820(4)
Zn2A_2 Zn -0.42982(5) 0.58943(4) -0.28820(4)
Zn3_2 Zn 0.19115(4) -0.12307(4) 0.46624(4)
Zn3A_2 Zn 0.80885(4) 1.12307(4) -0.46624(4)
Zn4_2 Zn 0.00845(5) -0.19160(4) 0.27560(4)
Zn4A_2 Zn 0.99155(5) 1.19160(4) -0.27560(4)
O1_2 O 1.1095(3) 0.9183(2) 0.3637(2)
O1A_2 O -0.1095(3) 0.0817(2) -0.3637(2)
O2_2 O 1.1259(4) 0.9425(3) 0.2549(3)
O2A_2 O -0.1259(4) 0.0575(3) -0.2549(3)
O3A_2 O 0.6063(3) 0.6292(2) 0.5576(2)
O5A_2 O 0.3976(3) 0.5046(2) 0.5454(2)
O13_2 O 0.4219(3) 0.5515(2) 0.4095(2)
O13A_2 O 0.5781(3) 0.4485(2) 0.5905(2)
O14_2 O 0.3390(3) 0.4693(3) 0.2857(3)
O14A_2 O 0.6610(3) 0.5307(3) -0.2857(3)
loop_
_geom_bond_atom_site_label_1
_geom_bond_atom_site_label_2
_geom_bond_site_symmetry_1
_geom_bond_site_symmetry_2
Zn1 O3 1_555 1_555
Zn2 O4 1_555 1_555
Zn3 O8 1_555 1_555
Zn4 O7 1_555 1_555
S1 C25 1_555 1_555
S2 C27 1_555 1_555
S3 C15 1_555 1_555
S4 C10 1_555 1_555
O1 C18 1_555 1_555
O2 C18 1_555 1_555
O3 C29 1_555 1_555
O4 C29 1_555 1_555
O5 Zn1 1_555 1_555
O6 Zn2 1_555 1_555
O7 C31 1_555 1_555
O8 C31 1_555 1_555
O9 Zn4 1_555 1_555
O10 C13 1_555 1_555
O11 C17 1_555 1_555
O12 C17 1_555 1_555
O13 C24 1_555 1_555
O14 C24 1_555 1_555
O15 Zn3 1_555 1_555
O16 Zn4 1_555 1_555
O17 Zn3 1_555 1_555
O18 Zn3 1_555 1_555
O19 Zn3 1_555 1_555
N1 C1 1_555 1_555
N2 C2 1_555 1_555
N3 C5 1_555 1_555
C1 H1 1_555 1_555
H2 C1 1_555 1_555
H3 C1 1_555 1_555
C2 H4 1_555 1_555
H5 C2 1_555 1_555
H6 C2 1_555 1_555
C3 N1 1_555 1_555
H7 C3 1_555 1_555
H8 C3 1_555 1_555
H9 C3 1_555 1_555
C4 H10 1_555 1_555
C5 H11 1_555 1_555
H12 C5 1_555 1_555
H13 C5 1_555 1_555
C6 C4 1_555 1_555
H14 C6 1_555 1_555
C7 H15 1_555 1_555
C8 N2 1_555 1_555
H16 C8 1_555 1_555
H17 C8 1_555 1_555
H18 C8 1_555 1_555
C9 N3 1_555 1_555
H19 C9 1_555 1_555
H20 C9 1_555 1_555
H21 C9 1_555 1_555
C10 C7 1_555 1_555
C11 S4 1_555 1_555
C12 C7 1_555 1_555
H22 C12 1_555 1_555
C13 O9 1_555 1_555
C14 H23 1_555 1_555
C15 C4 1_555 1_555
C16 S3 1_555 1_555
C17 C11 1_555 1_555
C18 C25 1_555 1_555
C19 O18 1_555 1_555
H24 C19 1_555 1_555
C20 O17 1_555 1_555
H25 C20 1_555 1_555
C21 O19 1_555 1_555
H26 C21 1_555 1_555
C22 H27 1_555 1_555
C23 C14 1_555 1_555
H28 C23 1_555 1_555
C24 C16 1_555 1_555
C25 C22 1_555 1_555
C26 O5 1_555 1_555
C27 C23 1_555 1_555
C28 O15 1_555 1_555
C29 C32 1_555 1_555
C30 S2 1_555 1_555
C31 C27 1_555 1_555
C32 S1 1_555 1_555
C33 C22 1_555 1_555
H29 C33 1_555 1_555
Zn2A O11 1_555 1_555
Zn3A O8A 1_555 1_555
Zn4A O7A 1_555 1_555
S1A C25A 1_555 1_555
S2A C27A 1_555 1_555
S3A C15A 1_555 1_555
S4A C10A 1_555 1_555
O1A C18A 1_555 1_555
O2A C18A 1_555 1_555
O3A C29A 1_555 1_555
O4A Zn2A 1_555 1_555
O5A C26A 1_555 1_555
O6A Zn2A 1_555 1_555
O7A C31A 1_555 1_555
O8A C31A 1_555 1_555
O9A Zn4A 1_555 1_555
O10A C13A 1_555 1_555
O11A Zn2 1_555 1_555
O12A C17A 1_555 1_555
O13A C24A 1_555 1_555
O14A C24A 1_555 1_555
O15A Zn3A 1_555 1_555
O16A Zn4A 1_555 1_555
O17A Zn3A 1_555 1_555
O18A Zn3A 1_555 1_555
O19A Zn3A 1_555 1_555
N1A C1A 1_555 1_555
N2A C2A 1_555 1_555
N3A C5A 1_555 1_555
C1A H1A 1_555 1_555
H2A C1A 1_555 1_555
H3A C1A 1_555 1_555
C2A H4A 1_555 1_555
H5A C2A 1_555 1_555
H6A C2A 1_555 1_555
C3A N1A 1_555 1_555
H7A C3A 1_555 1_555
H8A C3A 1_555 1_555
H9A C3A 1_555 1_555
C4A H10A 1_555 1_555
C5A H11A 1_555 1_555
H12A C5A 1_555 1_555
H13A C5A 1_555 1_555
C6A C4A 1_555 1_555
H14A C6A 1_555 1_555
C7A H15A 1_555 1_555
C8A N2A 1_555 1_555
H16A C8A 1_555 1_555
H17A C8A 1_555 1_555
H18A C8A 1_555 1_555
C9A N3A 1_555 1_555
H19A C9A 1_555 1_555
H20A C9A 1_555 1_555
H21A C9A 1_555 1_555
C10A C7A 1_555 1_555
C11A S4A 1_555 1_555
C12A C7A 1_555 1_555
H22A C12A 1_555 1_555
C13A O9A 1_555 1_555
C14A H23A 1_555 1_555
C15A C4A 1_555 1_555
C16A S3A 1_555 1_555
C17A O11A 1_555 1_555
C18A C25A 1_555 1_555
C19A O18A 1_555 1_555
H24A C19A 1_555 1_555
C20A O17A 1_555 1_555
H25A C20A 1_555 1_555
C21A O19A 1_555 1_555
H26A C21A 1_555 1_555
C22A H27A 1_555 1_555
C23A C14A 1_555 1_555
H28A C23A 1_555 1_555
C24A C16A 1_555 1_555
C25A C22A 1_555 1_555
C26A O6A 1_555 1_555
C27A C23A 1_555 1_555
C28A O15A 1_555 1_555
C29A O4A 1_555 1_555
C30A S2A 1_555 1_555
C31A C27A 1_555 1_555
C32A S1A 1_555 1_555
C33A C22A 1_555 1_555
H29A C33A 1_555 1_555
Zn1_2 O13A 1_555 1_555
Zn1_3 O3A 1_555 1_555
Zn1_4 O13 1_555 1_555
Zn2_2 O14 1_555 1_555
Zn2A_2 O14A 1_555 1_555
Zn3_2 O1 1_555 1_555
Zn3A_2 O1A 1_555 1_555
Zn4_2 O1 1_555 1_555
Zn4A_2 O1A 1_555 1_555
O1_2 Zn3 1_555 1_555
O1A_2 Zn3A 1_555 1_555
O2_2 Zn4 1_555 1_555
O2A_2 Zn4A 1_555 1_555
O3A_2 Zn1 1_555 1_555
O5A_2 Zn1 1_555 1_555
O13_2 Zn1 1_555 1_555
O13A_2 Zn1 1_555 1_555
O14_2 Zn2 1_555 1_555
O14A_2 Zn2A 1_555 1_555
Zn4 O1_2 1_555 1_555
O2 Zn4_2 1_555 1_555
O6 C26 1_555 1_555
O16 C28 1_555 1_555
N1 C19 1_555 1_555
N2 C20 1_555 1_555
N3 C21 1_555 1_555
C6 C16 1_555 1_555
C10 C13 1_555 1_555
C11 C12 1_555 1_555
C14 C30 1_555 1_555
C15 C28 1_555 1_555
C26 C30 1_555 1_555
C32 C33 1_555 1_555
Zn4A O1A_2 1_555 1_555
O2A Zn4A_2 1_555 1_555
O5A Zn1_3 1_555 1_555
O16A C28A 1_555 1_555
N1A C19A 1_555 1_555
N2A C20A 1_555 1_555
N3A C21A 1_555 1_555
C6A C16A 1_555 1_555
C10A C13A 1_555 1_555
C11A C12A 1_555 1_555
C11A C17A 1_555 1_555
C14A C30A 1_555 1_555
C15A C28A 1_555 1_555
C26A C30A 1_555 1_555
C29A C32A 1_555 1_555
C32A C33A 1_555 1_555

#END
