
#######################################################################
#
#                 Cambridge Crystallographic Data Centre
#                                CCDC 
#
#######################################################################
#
# If this CIF has been generated from an entry in the Cambridge 
# Structural Database, then it will include bibliographic, chemical, 
# crystal, experimental, refinement or atomic coordinate data resulting 
# from the CCDC's data processing and validation procedures.
#
#######################################################################

data_VOLPAP
_symmetry_cell_setting           orthorhombic
_symmetry_space_group_name_H-M   'P n c 2'
_symmetry_Int_Tables_number      30
_space_group_name_Hall           'P 2 -2bc'
loop_
_symmetry_equiv_pos_site_id
_symmetry_equiv_pos_as_xyz
1 x,y,z
2 -x,-y,z
3 x,1/2-y,1/2+z
4 -x,1/2+y,1/2+z
_cell_length_a                   14.6561(5)
_cell_length_b                   23.4491(6)
_cell_length_c                   16.0392(7)
_cell_angle_alpha                90
_cell_angle_beta                 90
_cell_angle_gamma                90
_cell_volume                     5512.23
loop_
_atom_site_label
_atom_site_type_symbol
_atom_site_fract_x
_atom_site_fract_y
_atom_site_fract_z
Zn1 Zn 0.88248(4) 0.36605(2) 0.05774(5)
Zn2 Zn 0.62738(4) 0.61430(2) -0.44387(5)
Zn3 Zn 1.0000 0.5000 0.10651(6)
Zn4 Zn 0.5000 0.5000 -0.39452(6)
O1 O 0.5033(2) 0.09134(15) 0.1048(3)
O2 O 0.5053(3) 0.1484(2) -0.0073(4)
O3 O 0.8159(3) 0.29436(18) 0.0462(3)
O4 O 0.9058(4) 0.2519(3) 0.1382(5)
O5 O 0.6030(3) 0.50499(16) -0.3085(3)
O6 O 0.6860(3) 0.58247(19) -0.3434(3)
O7 O 0.8279(3) 0.4113(2) -0.0343(3)
O8 O 0.9105(4) 0.4839(3) 0.0074(3)
O9 O 0.9429(3) 0.57987(17) 0.1155(3)
O10 O 0.9888(3) 0.65071(17) 0.0350(4)
O11 O 0.6950(3) 0.81523(17) 0.0472(4)
O12 O 0.5877(5) 0.7763(3) 0.1280(5)
O13 O 1.0975(3) 0.52117(18) 0.1922(3)
O14 O 1.1610(3) 0.60588(17) 0.1619(3)
O15 O 1.3257(3) 0.43259(17) 0.4644(3)
O16 O 1.4040(3) 0.50883(16) 0.5069(3)
C1 C 1.3509(4) 0.4850(3) 0.4596(4)
C2 C 0.6672(4) 0.5393(2) -0.2996(4)
C3 C 0.8560(5) 0.4607(4) -0.0392(4)
C4 C 0.5436(4) 0.1276(2) 0.0544(6)
C5 C 0.8422(4) 0.6527(2) 0.0902(5)
C6 C 1.1547(4) 0.5603(3) 0.2021(4)
C7 C 0.7674(6) 0.6321(3) 0.1277(7)
H1 H 0.7635 0.5957 0.1504
C8 C 0.7964(5) 0.5682(3) -0.2024(5)
H2 H 0.8088 0.6030 -0.2280
C9 C 1.3111(4) 0.5187(3) 0.3913(4)
C10 C 0.6955(5) 0.1244(3) 0.1337(6)
H3 H 0.6855 0.0905 0.1623
C11 C 1.2821(5) 0.5917(3) 0.2982(5)
H4 H 1.2919 0.6267 0.2723
C12 C 1.3318(5) 0.5726(3) 0.3681(4)
H5 H 1.3747 0.5950 0.3957
C13 C 0.8177(4) 0.4965(3) -0.1087(4)
C14 C 0.9320(4) 0.6245(2) 0.0789(4)
C15 C 0.7708(4) 0.2056(3) 0.0952(5)
C16 C 0.6359(4) 0.1464(2) 0.0771(4)
C17 C 0.7740(5) 0.1582(3) 0.1445(6)
H6 H 0.8218 0.1494 0.1805
C18 C 0.7163(5) 0.7211(3) 0.0940(6)
C19 C 0.7312(4) 0.5319(3) -0.2295(4)
C20 C 1.2185(4) 0.5538(2) 0.2727(4)
C21 C 0.8436(5) 0.5484(3) -0.1317(5)
H7 H 0.8882 0.5694 -0.1041
C22 C 0.8356(5) 0.2563(3) 0.0908(5)
C23 C 0.6619(6) 0.7768(3) 0.0883(6)
C24 C 0.6960(6) 0.6715(4) 0.1287(7)
H8 H 0.6392 0.6635 0.1517
S1 S 0.73168(10) 0.47069(7) -0.17016(11)
S2 S 1.22592(11) 0.49151(6) 0.32915(11)
S3 S 0.67438(11) 0.20883(6) 0.03939(12)
S4 S 0.82518(11) 0.72095(6) 0.05587(14)
Zn1A Zn 0.11752(4) 0.63395(2) 0.05774(5)
Zn2A Zn 0.37262(4) 0.38570(2) -0.44387(5)
O1A O 0.4967(2) 0.90866(15) 0.1048(3)
O2A O 0.4947(3) 0.8516(2) -0.0073(4)
O3A O 0.1841(3) 0.70564(18) 0.0462(3)
O4A O 0.0942(4) 0.7481(3) 0.1382(5)
O5A O 0.3970(3) 0.49501(16) -0.3085(3)
O6A O 0.3140(3) 0.41753(19) -0.3434(3)
O7A O 0.1721(3) 0.5887(2) -0.0343(3)
O8A O 0.0895(4) 0.5161(3) 0.0074(3)
C2A C 0.3328(4) 0.4607(2) -0.2996(4)
C3A C 0.1440(5) 0.5393(4) -0.0392(4)
C4A C 0.4564(4) 0.8724(2) 0.0544(6)
C8A C 0.2036(5) 0.4318(3) -0.2024(5)
H2A H 0.1912 0.3970 -0.2280
C10A C 0.3045(5) 0.8756(3) 0.1337(6)
H3A H 0.3145 0.9095 0.1623
C13A C 0.1823(4) 0.5035(3) -0.1087(4)
C15A C 0.2292(4) 0.7944(3) 0.0952(5)
C16A C 0.3641(4) 0.8536(2) 0.0771(4)
C17A C 0.2260(5) 0.8418(3) 0.1445(6)
H6A H 0.1782 0.8506 0.1805
C19A C 0.2688(4) 0.4681(3) -0.2295(4)
C21A C 0.1564(5) 0.4516(3) -0.1317(5)
H7A H 0.1118 0.4306 -0.1041
C22A C 0.1644(5) 0.7437(3) 0.0908(5)
S1A S 0.26832(10) 0.52931(7) -0.17016(11)
S3A S 0.32562(11) 0.79117(6) 0.03939(12)
O9A O 1.0571(3) 0.42013(17) 0.1155(3)
O10A O 1.0112(3) 0.34929(17) 0.0350(4)
O11A O 1.3050(3) 0.18477(17) 0.0472(4)
O12A O 1.4123(5) 0.2237(3) 0.1280(5)
C5A C 1.1578(4) 0.3473(2) 0.0902(5)
C7A C 1.2326(6) 0.3679(3) 0.1277(7)
H1A H 1.2365 0.4043 0.1504
C14A C 1.0680(4) 0.3755(2) 0.0789(4)
C18A C 1.2837(5) 0.2789(3) 0.0940(6)
C23A C 1.3381(6) 0.2232(3) 0.0883(6)
C24A C 1.3040(6) 0.3285(4) 0.1287(7)
H8A H 1.3608 0.3365 0.1517
S4A S 1.17482(11) 0.27905(6) 0.05587(14)
O13A O 0.9025(3) 0.47883(18) 0.1922(3)
O14A O 0.8390(3) 0.39412(17) 0.1619(3)
O15A O 0.6743(3) 0.56741(17) 0.4644(3)
O16A O 0.5960(3) 0.49117(16) 0.5069(3)
C1A C 0.6491(4) 0.5150(3) 0.4596(4)
C6A C 0.8453(4) 0.4397(3) 0.2021(4)
C9A C 0.6889(4) 0.4813(3) 0.3913(4)
C11A C 0.7179(5) 0.4083(3) 0.2982(5)
H4A H 0.7081 0.3733 0.2723
C12A C 0.6682(5) 0.4274(3) 0.3681(4)
H5A H 0.6253 0.4050 0.3957
C20A C 0.7815(4) 0.4462(2) 0.2727(4)
S2A S 0.77408(11) 0.50849(6) 0.32915(11)
Zn1A_2 Zn 1.11752(4) 0.63395(2) 0.05774(5)
Zn2_2 Zn 0.62738(4) 0.61430(2) 0.55613(5)
Zn2A_2 Zn 1.37262(4) 0.38570(2) 0.55613(5)
Zn2B Zn 0.62738(4) 0.88570(2) 0.05613(5)
Zn2C Zn 0.37262(4) 0.11430(2) 0.05613(5)
Zn2C_2 Zn 1.37262(4) 0.11430(2) 0.05613(5)
Zn3_2 Zn 0.0000 0.5000 0.10651(6)
Zn4_2 Zn 0.5000 0.5000 0.60548(6)
Zn4_3 Zn 1.5000 0.5000 0.60548(6)
Zn4B Zn 0.5000 0.0000 0.10548(6)
Zn4B_2 Zn 0.5000 1.0000 0.10548(6)
O1B O 0.5033(2) 0.40866(15) -0.3952(3)
O1C O 0.4967(2) 0.59134(15) -0.3952(3)
O2B O 0.5053(3) 0.3516(2) -0.5073(4)
O2C O 0.4947(3) 0.6484(2) -0.5073(4)
O8A_2 O 1.0895(4) 0.5161(3) 0.0074(3)
O10_2 O -0.0112(3) 0.65071(17) 0.0350(4)
O11B O 0.6950(3) 0.68477(17) -0.4528(4)
O11C O 0.3050(3) 0.31523(17) -0.4528(4)
O14_2 O 0.1610(3) 0.60588(17) 0.1619(3)
O15_2 O 0.3257(3) 0.43259(17) -0.5356(3)
O15A_2 O 0.6743(3) 0.56741(17) -0.5356(3)
O16_2 O 0.4040(3) 0.50883(16) -0.4931(3)
O16A_2 O 0.5960(3) 0.49117(16) -0.4931(3)
loop_
_geom_bond_atom_site_label_1
_geom_bond_atom_site_label_2
_geom_bond_site_symmetry_1
_geom_bond_site_symmetry_2
Zn1 O3 1_555 1_555
Zn2 O6 1_555 1_555
Zn3 O8 1_555 1_555
Zn4 O5 1_555 1_555
O1 C4 1_555 1_555
O2 C4 1_555 1_555
O3 C22 1_555 1_555
O4 C22 1_555 1_555
O5 C2 1_555 1_555
O6 C2 1_555 1_555
O7 Zn1 1_555 1_555
O8 C3 1_555 1_555
O9 Zn3 1_555 1_555
O10 C14 1_555 1_555
O11 C23 1_555 1_555
O12 C23 1_555 1_555
O13 Zn3 1_555 1_555
O14 C6 1_555 1_555
O15 C1 1_555 1_555
O16 C1 1_555 1_555
C1 C9 1_555 1_555
C2 C19 1_555 1_555
C3 O7 1_555 1_555
C4 C16 1_555 1_555
C5 C7 1_555 1_555
C6 O13 1_555 1_555
C7 H1 1_555 1_555
C8 H2 1_555 1_555
C9 C12 1_555 1_555
C10 H3 1_555 1_555
C11 H4 1_555 1_555
C12 C11 1_555 1_555
H5 C12 1_555 1_555
C13 C3 1_555 1_555
C14 O9 1_555 1_555
C15 C17 1_555 1_555
C16 C10 1_555 1_555
C17 C10 1_555 1_555
H6 C17 1_555 1_555
C18 C23 1_555 1_555
C19 C8 1_555 1_555
C20 C6 1_555 1_555
C21 C8 1_555 1_555
H7 C21 1_555 1_555
C22 C15 1_555 1_555
C24 C7 1_555 1_555
H8 C24 1_555 1_555
S1 C13 1_555 1_555
S2 C9 1_555 1_555
S3 C15 1_555 1_555
S4 C5 1_555 1_555
Zn1A O3A 1_555 1_555
Zn2A O6A 1_555 1_555
O1A C4A 1_555 1_555
O2A C4A 1_555 1_555
O3A C22A 1_555 1_555
O4A C22A 1_555 1_555
O5A Zn4 1_555 1_555
O6A C2A 1_555 1_555
O7A Zn1A 1_555 1_555
O8A C3A 1_555 1_555
C2A O5A 1_555 1_555
C3A O7A 1_555 1_555
C4A C16A 1_555 1_555
C8A H2A 1_555 1_555
C10A H3A 1_555 1_555
C13A C3A 1_555 1_555
C15A C17A 1_555 1_555
C16A C10A 1_555 1_555
C17A C10A 1_555 1_555
H6A C17A 1_555 1_555
C19A C2A 1_555 1_555
C21A C8A 1_555 1_555
H7A C21A 1_555 1_555
C22A C15A 1_555 1_555
S1A C13A 1_555 1_555
S3A C15A 1_555 1_555
O9A Zn3 1_555 1_555
O10A Zn1 1_555 1_555
O11A C23A 1_555 1_555
O12A C23A 1_555 1_555
C5A C7A 1_555 1_555
C7A H1A 1_555 1_555
C14A O9A 1_555 1_555
C18A C23A 1_555 1_555
C24A C7A 1_555 1_555
H8A C24A 1_555 1_555
S4A C5A 1_555 1_555
O13A Zn3 1_555 1_555
O14A Zn1 1_555 1_555
O15A C1A 1_555 1_555
O16A C1A 1_555 1_555
C1A C9A 1_555 1_555
C6A O13A 1_555 1_555
C9A C12A 1_555 1_555
C11A H4A 1_555 1_555
C12A C11A 1_555 1_555
H5A C12A 1_555 1_555
C20A C6A 1_555 1_555
S2A C9A 1_555 1_555
Zn1A_2 O10 1_555 1_555
Zn2_2 O15A 1_555 1_555
Zn2A_2 O15 1_555 1_555
Zn2B O11 1_555 1_555
Zn2C O1 1_555 1_555
Zn2C_2 O11A 1_555 1_555
Zn3_2 O8A 1_555 1_555
Zn4_2 O16A 1_555 1_555
Zn4_3 O16 1_555 1_555
Zn4B O1 1_555 1_555
Zn4B_2 O1A 1_555 1_555
O1B Zn4 1_555 1_555
O1C Zn2 1_555 1_555
O2B Zn2A 1_555 1_555
O2C Zn2 1_555 1_555
O8A_2 Zn3 1_555 1_555
O10_2 Zn1A 1_555 1_555
O11B Zn2 1_555 1_555
O11C Zn2A 1_555 1_555
O14_2 Zn1A 1_555 1_555
O15_2 Zn2A 1_555 1_555
O15A_2 Zn2 1_555 1_555
O16_2 Zn4 1_555 1_555
O16A_2 Zn4 1_555 1_555
Zn4 O1C 1_555 1_555
O2 Zn2C 1_555 1_555
O14 Zn1A_2 1_555 1_555
C5 C14 1_555 1_555
C11 C20 1_555 1_555
C13 C21 1_555 1_555
C16 S3 1_555 1_555
C18 C24 1_555 1_555
C18 S4 1_555 1_555
C19 S1 1_555 1_555
C20 S2 1_555 1_555
Zn2A O1B 1_555 1_555
O1A Zn2B 1_555 1_555
O2A Zn2B 1_555 1_555
C8A C19A 1_555 1_555
C13A C21A 1_555 1_555
C16A S3A 1_555 1_555
C19A S1A 1_555 1_555
O10A C14A 1_555 1_555
C5A C14A 1_555 1_555
C18A C24A 1_555 1_555
C18A S4A 1_555 1_555
O14A C6A 1_555 1_555
C11A C20A 1_555 1_555
C20A S2A 1_555 1_555

#END
