
#######################################################################
#
#                 Cambridge Crystallographic Data Centre
#                                CCDC 
#
#######################################################################
#
# If this CIF has been generated from an entry in the Cambridge 
# Structural Database, then it will include bibliographic, chemical, 
# crystal, experimental, refinement or atomic coordinate data resulting 
# from the CCDC's data processing and validation procedures.
#
#######################################################################

data_VOLQUI
_symmetry_cell_setting           monoclinic
_symmetry_space_group_name_H-M   'P 21/n'
_symmetry_Int_Tables_number      14
_space_group_name_Hall           '-P 2yn'
loop_
_symmetry_equiv_pos_site_id
_symmetry_equiv_pos_as_xyz
1 x,y,z
2 1/2+x,1/2-y,1/2+z
3 -x,-y,-z
4 1/2-x,1/2+y,1/2-z
_cell_length_a                   10.815(9)
_cell_length_b                   9.072(2)
_cell_length_c                   19.985(3)
_cell_angle_alpha                90
_cell_angle_beta                 98.640(5)
_cell_angle_gamma                90
_cell_volume                     1938.55
loop_
_atom_site_label
_atom_site_type_symbol
_atom_site_fract_x
_atom_site_fract_y
_atom_site_fract_z
Br1 Br 0.72838(16) 1.2592(2) 0.48485(10)
Cu1 Cu 0.16319(18) 0.3988(2) 0.34553(10)
Cl1 Cl 0.1810(4) 0.4089(6) 0.45841(10)
Cl2 Cl 0.3038(4) 0.2192(5) 0.3496(2)
O1 O 0.2761(10) 0.6031(13) 0.3285(5)
O2 O 0.1146(10) 0.9014(14) 0.3489(4)
O3 O -0.0103(12) 1.0785(18) 0.2947(7)
N1 N 0.4629(12) 0.7035(14) 0.3738(5)
N2 N 0.3796(12) 0.8976(15) 0.2578(6)
N3 N 0.5003(12) 1.0104(16) 0.1679(7)
C1 C 0.3447(15) 0.7088(19) 0.3374(7)
C2 C 0.3025(14) 0.8590(18) 0.3108(7)
C3 C 0.4917(14) 0.9470(19) 0.2816(7)
C4 C 0.6013(13) 1.0752(18) 0.3818(7)
C5 C 0.6563(13) 1.0795(19) 0.4485(7)
C6 C 0.6541(14) 0.9594(18) 0.4871(7)
C7 C 0.5918(14) 0.8348(19) 0.4645(7)
C8 C 0.4997(15) 0.557(2) 0.4025(7)
C9 C 0.1642(14) 0.8678(19) 0.2871(7)
C10 C 0.0313(19) 1.014(2) 0.3444(10)
C11 C -0.008(2) 1.045(3) 0.4117(10)
C12 C 0.5648(16) 1.0019(18) 0.2305(7)
C13 C 0.5531(17) 1.069(2) 0.1193(8)
C14 C 0.6726(17) 1.131(3) 0.1307(8)
C15 C 0.7456(16) 1.112(2) 0.1953(8)
C16 C 0.6890(16) 1.049(2) 0.2453(8)
C17 C 0.5448(14) 0.9504(18) 0.3549(7)
C18 C 0.5297(14) 0.828(2) 0.3955(8)
H1 H 0.322740 0.929530 0.347950
H2 H 0.602740 1.158660 0.354910
H3 H 0.696800 0.961290 0.531150
H4 H 0.589300 0.754520 0.493240
H5 H 0.471880 0.482120 0.369680
H6 H 0.589100 0.552470 0.413860
H7 H 0.462140 0.541130 0.442440
H8 H 0.131850 0.774880 0.267920
H9 H 0.144450 0.945220 0.253760
H10 H -0.083400 1.102310 0.405460
H11 H -0.023160 0.953030 0.433210
H12 H 0.056820 1.097850 0.439690
H13 H 0.509220 1.069330 0.075510
H14 H 0.703590 1.183230 0.096770
H15 H 0.828870 1.141910 0.203440
H16 H 0.732910 1.038530 0.288770
N2C N 0.1204(12) 0.3976(15) 0.2422(6)
N3C N -0.0003(12) 0.5104(16) 0.3321(7)
Cu1C Cu 0.33681(18) 0.8988(2) 0.15447(10)
loop_
_geom_bond_atom_site_label_1
_geom_bond_atom_site_label_2
_geom_bond_site_symmetry_1
_geom_bond_site_symmetry_2
Br1 C5 1_555 1_555
Cu1 Cl1 1_555 1_555
Cl2 Cu1 1_555 1_555
O1 Cu1 1_555 1_555
O2 C9 1_555 1_555
O3 C10 1_555 1_555
N1 C1 1_555 1_555
N2 C2 1_555 1_555
N3 C12 1_555 1_555
C1 O1 1_555 1_555
C2 C1 1_555 1_555
C3 N2 1_555 1_555
C4 C5 1_555 1_555
C5 C6 1_555 1_555
C6 C7 1_555 1_555
C7 C18 1_555 1_555
C8 N1 1_555 1_555
C9 C2 1_555 1_555
C10 O2 1_555 1_555
C11 C10 1_555 1_555
C12 C3 1_555 1_555
C13 N3 1_555 1_555
C14 C13 1_555 1_555
C15 C14 1_555 1_555
C16 C12 1_555 1_555
C17 C3 1_555 1_555
C18 N1 1_555 1_555
H1 C2 1_555 1_555
H2 C4 1_555 1_555
H3 C6 1_555 1_555
H4 C7 1_555 1_555
H5 C8 1_555 1_555
H6 C8 1_555 1_555
H7 C8 1_555 1_555
H8 C9 1_555 1_555
H9 C9 1_555 1_555
H10 C11 1_555 1_555
H11 C11 1_555 1_555
H12 C11 1_555 1_555
H13 C13 1_555 1_555
H14 C14 1_555 1_555
H15 C15 1_555 1_555
H16 C16 1_555 1_555
N2C Cu1 1_555 1_555
N3C Cu1 1_555 1_555
Cu1C N2 1_555 1_555
N3 Cu1C 1_555 1_555
C4 C17 1_555 1_555
C15 C16 1_555 1_555
C17 C18 1_555 1_555

#END
