
#######################################################################
#
#                 Cambridge Crystallographic Data Centre
#                                CCDC 
#
#######################################################################
#
# If this CIF has been generated from an entry in the Cambridge 
# Structural Database, then it will include bibliographic, chemical, 
# crystal, experimental, refinement or atomic coordinate data resulting 
# from the CCDC's data processing and validation procedures.
#
#######################################################################

data_VOLQUJ
_symmetry_cell_setting           cubic
_symmetry_space_group_name_H-M   'F d -3'
_symmetry_Int_Tables_number      203
_space_group_name_Hall           '-F 2uv 2vw 3'
loop_
_symmetry_equiv_pos_site_id
_symmetry_equiv_pos_as_xyz
1 x,y,z
2 y,z,x
3 z,x,y
4 1/2+y,1/4-z,3/4-x
5 1/2+z,1/4-x,3/4-y
6 1/4-z,1/2+x,3/4-y
7 1/4-x,1/2+y,3/4-z
8 1/4-y,1/2+z,3/4-x
9 1/2+x,1/4-y,3/4-z
10 x,1/2+y,1/2+z
11 y,1/2+z,1/2+x
12 z,1/2+x,1/2+y
13 1/2+y,3/4-z,1/4-x
14 1/2+z,3/4-x,1/4-y
15 1/4-z,x,1/4-y
16 1/4-x,y,1/4-z
17 1/4-y,z,1/4-x
18 1/2+x,3/4-y,1/4-z
19 1/2+x,y,1/2+z
20 1/2+y,z,1/2+x
21 1/2+z,x,1/2+y
22 y,1/4-z,1/4-x
23 z,1/4-x,1/4-y
24 3/4-z,1/2+x,1/4-y
25 3/4-x,1/2+y,1/4-z
26 3/4-y,1/2+z,1/4-x
27 x,1/4-y,1/4-z
28 1/2+x,1/2+y,z
29 1/2+y,1/2+z,x
30 1/2+z,1/2+x,y
31 y,3/4-z,3/4-x
32 z,3/4-x,3/4-y
33 3/4-z,x,3/4-y
34 3/4-x,y,3/4-z
35 3/4-y,z,3/4-x
36 x,3/4-y,3/4-z
37 3/4-x,3/4-y,z
38 3/4-y,3/4-z,x
39 3/4-z,3/4-x,y
40 3/4-x,1/4-y,1/2+z
41 3/4-y,1/4-z,1/2+x
42 3/4-z,1/4-x,1/2+y
43 1/4-x,3/4-y,1/2+z
44 1/4-y,3/4-z,1/2+x
45 1/4-z,3/4-x,1/2+y
46 1/4-x,1/4-y,z
47 1/4-y,1/4-z,x
48 1/4-z,1/4-x,y
49 -x,-y,-z
50 -y,-z,-x
51 -z,-x,-y
52 1/2-y,3/4+z,1/4+x
53 1/2-z,3/4+x,1/4+y
54 3/4+z,1/2-x,1/4+y
55 3/4+x,1/2-y,1/4+z
56 3/4+y,1/2-z,1/4+x
57 1/2-x,3/4+y,1/4+z
58 -x,1/2-y,1/2-z
59 -y,1/2-z,1/2-x
60 -z,1/2-x,1/2-y
61 1/2-y,1/4+z,3/4+x
62 1/2-z,1/4+x,3/4+y
63 3/4+z,-x,3/4+y
64 3/4+x,-y,3/4+z
65 3/4+y,-z,3/4+x
66 1/2-x,1/4+y,3/4+z
67 1/2-x,-y,1/2-z
68 1/2-y,-z,1/2-x
69 1/2-z,-x,1/2-y
70 -y,3/4+z,3/4+x
71 -z,3/4+x,3/4+y
72 1/4+z,1/2-x,3/4+y
73 1/4+x,1/2-y,3/4+z
74 1/4+y,1/2-z,3/4+x
75 -x,3/4+y,3/4+z
76 1/2-x,1/2-y,-z
77 1/2-y,1/2-z,-x
78 1/2-z,1/2-x,-y
79 -y,1/4+z,1/4+x
80 -z,1/4+x,1/4+y
81 1/4+z,-x,1/4+y
82 1/4+x,-y,1/4+z
83 1/4+y,-z,1/4+x
84 -x,1/4+y,1/4+z
85 1/4+x,1/4+y,-z
86 1/4+y,1/4+z,-x
87 1/4+z,1/4+x,-y
88 1/4+x,3/4+y,1/2-z
89 1/4+y,3/4+z,1/2-x
90 1/4+z,3/4+x,1/2-y
91 3/4+x,1/4+y,1/2-z
92 3/4+y,1/4+z,1/2-x
93 3/4+z,1/4+x,1/2-y
94 3/4+x,3/4+y,-z
95 3/4+y,3/4+z,-x
96 3/4+z,3/4+x,-y
_cell_length_a                   25.9759(5)
_cell_length_b                   25.9759(5)
_cell_length_c                   25.9759(5)
_cell_angle_alpha                90
_cell_angle_beta                 90
_cell_angle_gamma                90
_cell_volume                     17527.2
loop_
_atom_site_label
_atom_site_type_symbol
_atom_site_fract_x
_atom_site_fract_y
_atom_site_fract_z
Zn1 Zn 0.0000 0.2500 0.2500
Zn2 Zn 0.07877(2) 0.17123(2) 0.17123(2)
O1 O 0.1250 0.1250 0.1250
O2 O 0.06142(16) 0.22663(17) 0.12360(17)
O3 O -0.0074(3) 0.2466(3) 0.1709(3)
C1 C 0.0326(3) 0.2604(3) 0.1376(4)
C2 C 0.0170(3) 0.3010(3) 0.0995(3)
C3 C -0.0198(5) 0.3364(4) 0.1115(6)
H1 H -0.0354 0.3351 0.1437
C4 C -0.0348(5) 0.3746(4) 0.0767(5)
H2 H -0.0585 0.3995 0.0868
C5 C -0.0154(3) 0.3758(3) 0.0288(3)
C6 C 0.0181(3) 0.3390(3) 0.0165(4)
H3 H 0.0313 0.3378 -0.0167
C7 C 0.0340(3) 0.3022(3) 0.0524(3)
H4 H 0.0577 0.2774 0.0421
C8 C -0.0289(3) 0.4182(3) -0.0073(3)
C9 C -0.0703(3) 0.4507(3) 0.0026(3)
H5 H -0.0910 0.4442 0.0311
Zn1M Zn -0.2500 0.7500 0.0000
Zn1K Zn 0.2500 0.5000 -0.2500
Zn1H Zn -0.5000 0.0000 0.5000
Zn1M_2 Zn -0.2500 -0.2500 0.0000
Zn1K_2 Zn 0.2500 0.5000 0.7500
Zn1H_2 Zn 0.5000 0.0000 0.5000
Zn1Q Zn 0.5000 0.5000 0.0000
Zn1F Zn 0.2500 0.7500 0.5000
Zn2M Zn -0.32877(2) 0.67123(2) 0.07877(2)
Zn2K Zn 0.17123(2) 0.57877(2) -0.32877(2)
Zn2H Zn -0.42123(2) 0.07877(2) 0.57877(2)
Zn2B Zn 0.17123(2) 0.07877(2) 0.17123(2)
Zn2A Zn 0.17123(2) 0.17123(2) 0.07877(2)
Zn2N Zn 0.07877(2) 0.07877(2) 0.07877(2)
Zn2M_2 Zn -0.32877(2) -0.32877(2) 0.07877(2)
Zn2K_2 Zn 0.17123(2) 0.57877(2) 0.67123(2)
Zn2H_2 Zn 0.57877(2) 0.07877(2) 0.57877(2)
Zn2CB Zn -0.07877(2) 0.32877(2) 0.32877(2)
Zn2MB Zn 0.42123(2) 0.42123(2) -0.07877(2)
Zn2ZA Zn 0.32877(2) 0.82877(2) 0.42123(2)
O1L O -0.3750 0.6250 0.1250
O1E O 0.1250 0.6250 -0.3750
O1C O -0.3750 0.1250 0.6250
O2BA O -0.27337(17) 0.62360(17) 0.06142(16)
O2K O 0.12360(17) 0.56142(16) -0.27337(17)
O2P O 0.02337(17) 0.12360(17) 0.18858(16)
O2FA O -0.37360(17) 0.06142(16) 0.52337(17)
O2X O -0.31142(16) -0.27337(17) 0.12640(17)
O2UA O 0.12640(17) 0.18858(16) 0.22663(17)
O2PA O 0.18858(16) 0.52337(17) 0.62360(17)
O2NA O 0.52337(17) 0.12640(17) 0.56142(16)
O2CB O -0.02337(17) 0.37640(17) 0.31142(16)
O2SB O 0.37360(17) 0.43858(16) -0.02337(17)
O2CC O 0.31142(16) 0.77337(17) 0.37360(17)
O2M O -0.37640(17) 0.68858(16) 0.02337(17)
O2X_2 O -0.31142(16) 0.72663(17) 0.12640(17)
O2PA_2 O 0.18858(16) 0.52337(17) -0.37640(17)
O2DA O 0.22663(17) 0.62640(17) -0.31142(16)
O2H O -0.43858(16) 0.02337(17) 0.62640(17)
O2NA_2 O -0.47663(17) 0.12640(17) 0.56142(16)
O3BA O -0.2534(3) 0.6709(3) -0.0074(3)
O3K O 0.1709(3) 0.4926(3) -0.2534(3)
O3P O 0.0034(3) 0.1709(3) 0.2574(3)
O3FA O -0.4209(3) -0.0074(3) 0.5034(3)
O3X O -0.2426(3) -0.2534(3) 0.0791(3)
O3UA O 0.0791(3) 0.2574(3) 0.2466(3)
O3PA O 0.2574(3) 0.5034(3) 0.6709(3)
O3NA O 0.5034(3) 0.0791(3) 0.4926(3)
O3CB O -0.0034(3) 0.3291(3) 0.2426(3)
O3SB O 0.4209(3) 0.5074(3) -0.0034(3)
O3CC O 0.2426(3) 0.7534(3) 0.4209(3)
O3EB O 0.0074(3) 0.2534(3) 0.3291(3)
O3NC O -0.0791(3) 0.2426(3) 0.2534(3)
O3M O -0.3291(3) 0.7574(3) 0.0034(3)
O3X_2 O -0.2426(3) 0.7466(3) 0.0791(3)
O3RB O -0.1709(3) 0.7426(3) -0.0034(3)
O3WA O -0.2466(3) 0.8291(3) 0.0074(3)
O3KB O -0.2574(3) 0.7534(3) -0.0791(3)
C1BA C -0.2396(3) 0.6376(4) 0.0326(3)
C1K C 0.1376(4) 0.5326(3) -0.2396(3)
C1P C -0.0104(3) 0.1376(4) 0.2174(3)
C1FA C -0.3876(4) 0.0326(3) 0.4896(3)
C1X C -0.2826(3) -0.2396(3) 0.1124(4)
C1UA C 0.1124(4) 0.2174(3) 0.2604(3)
C1PA C 0.2174(3) 0.4896(3) 0.6376(4)
C1NA C 0.4896(3) 0.1124(4) 0.5326(3)
C1CB C 0.0104(3) 0.3624(4) 0.2826(3)
C1SB C 0.3876(4) 0.4674(3) 0.0104(3)
C1CC C 0.2826(3) 0.7396(3) 0.3876(4)
C2BA C -0.1990(3) 0.5995(3) 0.0170(3)
C2K C 0.0995(3) 0.5170(3) -0.1990(3)
C2P C -0.0510(3) 0.0995(3) 0.2330(3)
C2FA C -0.3495(3) 0.0170(3) 0.4490(3)
C2X C -0.2670(3) -0.1990(3) 0.1505(3)
C2UA C 0.1505(3) 0.2330(3) 0.3010(3)
C2PA C 0.2330(3) 0.4490(3) 0.5995(3)
C2NA C 0.4490(3) 0.1505(3) 0.5170(3)
C2CB C 0.0510(3) 0.4005(3) 0.2670(3)
C2SB C 0.3495(3) 0.4830(3) 0.0510(3)
C2CC C 0.2670(3) 0.6990(3) 0.3495(3)
C3BA C -0.1636(4) 0.6115(6) -0.0198(5)
C3K C 0.1115(6) 0.4802(5) -0.1636(4)
C3P C -0.0864(4) 0.1115(6) 0.2698(5)
C3FA C -0.3615(6) -0.0198(5) 0.4136(4)
C3X C -0.2302(5) -0.1636(4) 0.1385(6)
C3UA C 0.1385(6) 0.2698(5) 0.3364(4)
C3PA C 0.2698(5) 0.4136(4) 0.6115(6)
C3NA C 0.4136(4) 0.1385(6) 0.4802(5)
C3CB C 0.0864(4) 0.3885(6) 0.2302(5)
C3SB C 0.3615(6) 0.5198(5) 0.0864(4)
C3CC C 0.2302(5) 0.6636(4) 0.3615(6)
H1BA H -0.1649 0.6437 -0.0354
H1K H 0.1437 0.4646 -0.1649
H1P H -0.0851 0.1437 0.2854
H1FA H -0.3937 -0.0354 0.4149
H1X H -0.2146 -0.1649 0.1063
H1UA H 0.1063 0.2854 0.3351
H1PA H 0.2854 0.4149 0.6437
H1NA H 0.4149 0.1063 0.4646
H1CB H 0.0851 0.3563 0.2146
H1SB H 0.3937 0.5354 0.0851
H1CC H 0.2146 0.6649 0.3937
C4BA C -0.1254(4) 0.5767(5) -0.0348(5)
C4K C 0.0767(5) 0.4652(5) -0.1254(4)
C4P C -0.1246(4) 0.0767(5) 0.2848(5)
C4FA C -0.3267(5) -0.0348(5) 0.3754(4)
C4X C -0.2152(5) -0.1254(4) 0.1733(5)
C4UA C 0.1733(5) 0.2848(5) 0.3746(4)
C4PA C 0.2848(5) 0.3754(4) 0.5767(5)
C4NA C 0.3754(4) 0.1733(5) 0.4652(5)
C4CB C 0.1246(4) 0.4233(5) 0.2152(5)
C4SB C 0.3267(5) 0.5348(5) 0.1246(4)
C4CC C 0.2152(5) 0.6254(4) 0.3267(5)
H2BA H -0.1005 0.5868 -0.0585
H2K H 0.0868 0.4415 -0.1005
H2P H -0.1495 0.0868 0.3085
H2FA H -0.3368 -0.0585 0.3505
H2X H -0.1915 -0.1005 0.1632
H2UA H 0.1632 0.3085 0.3995
H2PA H 0.3085 0.3505 0.5868
H2NA H 0.3505 0.1632 0.4415
H2CB H 0.1495 0.4132 0.1915
H2SB H 0.3368 0.5585 0.1495
H2CC H 0.1915 0.6005 0.3368
C5BA C -0.1242(3) 0.5288(3) -0.0154(3)
C5K C 0.0288(3) 0.4846(3) -0.1242(3)
C5P C -0.1258(3) 0.0288(3) 0.2654(3)
C5FA C -0.2788(3) -0.0154(3) 0.3742(3)
C5X C -0.2346(3) -0.1242(3) 0.2212(3)
C5UA C 0.2212(3) 0.2654(3) 0.3758(3)
C5PA C 0.2654(3) 0.3742(3) 0.5288(3)
C5NA C 0.3742(3) 0.2212(3) 0.4846(3)
C5CB C 0.1258(3) 0.4712(3) 0.2346(3)
C5SB C 0.2788(3) 0.5154(3) 0.1258(3)
C5CC C 0.2346(3) 0.6242(3) 0.2788(3)
C6BA C -0.1610(3) 0.5165(4) 0.0181(3)
C6K C 0.0165(4) 0.5181(3) -0.1610(3)
C6P C -0.0890(3) 0.0165(4) 0.2319(3)
C6FA C -0.2665(4) 0.0181(3) 0.4110(3)
C6X C -0.2681(3) -0.1610(3) 0.2335(4)
C6UA C 0.2335(4) 0.2319(3) 0.3390(3)
C6PA C 0.2319(3) 0.4110(3) 0.5165(4)
C6NA C 0.4110(3) 0.2335(4) 0.5181(3)
C6CB C 0.0890(3) 0.4835(4) 0.2681(3)
C6SB C 0.2665(4) 0.4819(3) 0.0890(3)
C6CC C 0.2681(3) 0.6610(3) 0.2665(4)
H3BA H -0.1622 0.4833 0.0313
H3K H -0.0167 0.5313 -0.1622
H3P H -0.0878 -0.0167 0.2187
H3FA H -0.2333 0.0313 0.4122
H3X H -0.2813 -0.1622 0.2667
H3UA H 0.2667 0.2187 0.3378
H3PA H 0.2187 0.4122 0.4833
H3NA H 0.4122 0.2667 0.5313
H3CB H 0.0878 0.5167 0.2813
H3SB H 0.2333 0.4687 0.0878
H3CC H 0.2813 0.6622 0.2333
C7BA C -0.1978(3) 0.5524(3) 0.0340(3)
C7K C 0.0524(3) 0.5340(3) -0.1978(3)
C7P C -0.0522(3) 0.0524(3) 0.2160(3)
C7FA C -0.3024(3) 0.0340(3) 0.4478(3)
C7X C -0.2840(3) -0.1978(3) 0.1976(3)
C7UA C 0.1976(3) 0.2160(3) 0.3022(3)
C7PA C 0.2160(3) 0.4478(3) 0.5524(3)
C7NA C 0.4478(3) 0.1976(3) 0.5340(3)
C7CB C 0.0522(3) 0.4476(3) 0.2840(3)
C7SB C 0.3024(3) 0.4660(3) 0.0522(3)
C7CC C 0.2840(3) 0.6978(3) 0.3024(3)
H4BA H -0.2226 0.5421 0.0577
H4K H 0.0421 0.5577 -0.2226
H4P H -0.0274 0.0421 0.1923
H4FA H -0.2921 0.0577 0.4726
H4X H -0.3077 -0.2226 0.2079
H4UA H 0.2079 0.1923 0.2774
H4PA H 0.1923 0.4726 0.5421
H4NA H 0.4726 0.2079 0.5577
H4CB H 0.0274 0.4579 0.3077
H4SB H 0.2921 0.4423 0.0274
H4CC H 0.3077 0.7226 0.2921
C8BA C -0.0818(3) 0.4927(3) -0.0289(3)
C8K C -0.0073(3) 0.4711(3) -0.0818(3)
C8P C -0.1682(3) -0.0073(3) 0.2789(3)
C8FA C -0.2427(3) -0.0289(3) 0.3318(3)
C8X C -0.2211(3) -0.0818(3) 0.2573(3)
C8UA C 0.2573(3) 0.2789(3) 0.4182(3)
C8PA C 0.2789(3) 0.3318(3) 0.4927(3)
C8NA C 0.3318(3) 0.2573(3) 0.4711(3)
C8CB C 0.1682(3) 0.5073(3) 0.2211(3)
C8SB C 0.2427(3) 0.5289(3) 0.1682(3)
C8CC C 0.2211(3) 0.5818(3) 0.2427(3)
C9BA C -0.0493(3) 0.5026(3) -0.0703(3)
C9K C 0.0026(3) 0.4297(3) -0.0493(3)
C9P C -0.2007(3) 0.0026(3) 0.3203(3)
C9FA C -0.2526(3) -0.0703(3) 0.2993(3)
C9X C -0.1797(3) -0.0493(3) 0.2474(3)
C9UA C 0.2474(3) 0.3203(3) 0.4507(3)
C9PA C 0.3203(3) 0.2993(3) 0.5026(3)
C9NA C 0.2993(3) 0.2474(3) 0.4297(3)
C9CB C 0.2007(3) 0.4974(3) 0.1797(3)
C9SB C 0.2526(3) 0.5703(3) 0.2007(3)
C9CC C 0.1797(3) 0.5493(3) 0.2526(3)
H5K H 0.0311 0.4090 -0.0558
H5BA H -0.0558 0.5311 -0.0910
H5P H -0.1942 0.0311 0.3410
H5X H -0.1590 -0.0558 0.2189
H5FA H -0.2811 -0.0910 0.3058
H5UA H 0.2189 0.3410 0.4442
H5NA H 0.3058 0.2189 0.4090
H5PA H 0.3410 0.3058 0.5311
H5CB H 0.1942 0.4689 0.1590
H5CC H 0.1590 0.5558 0.2811
H5SB H 0.2811 0.5910 0.1942
O5 O 0.1250 0.6250 0.1250
O4? O 0.0405(3) 0.2770(3) 0.1864(3)
loop_
_geom_bond_atom_site_label_1
_geom_bond_atom_site_label_2
_geom_bond_site_symmetry_1
_geom_bond_site_symmetry_2
Zn1 O3 1_555 1_555
Zn2 O1 1_555 1_555
O1 Zn2B 1_555 1_555
O2 Zn2 1_555 1_555
O3 C1 1_555 1_555
C1 O2 1_555 1_555
C2 C1 1_555 1_555
C3 C2 1_555 1_555
H1 C3 1_555 1_555
C4 C3 1_555 1_555
H2 C4 1_555 1_555
C5 C4 1_555 1_555
C6 C5 1_555 1_555
H3 C6 1_555 1_555
C7 C2 1_555 1_555
H4 C7 1_555 1_555
C8 C5 1_555 1_555
C9 C8 1_555 1_555
H5 C9 1_555 1_555
Zn1M O3BA 1_555 1_555
Zn1K O3K 1_555 1_555
Zn1H O3FA 1_555 1_555
Zn1M_2 O3X 1_555 1_555
Zn1K_2 O3PA 1_555 1_555
Zn1H_2 O3NA 1_555 1_555
Zn1Q O3SB 1_555 1_555
Zn1F O3CC 1_555 1_555
Zn2M O1L 1_555 1_555
Zn2K O1E 1_555 1_555
Zn2H O1C 1_555 1_555
Zn2A O1 1_555 1_555
Zn2N O1 1_555 1_555
Zn2M_2 O2X 1_555 1_555
Zn2K_2 O2PA 1_555 1_555
Zn2H_2 O2NA 1_555 1_555
Zn2CB O2CB 1_555 1_555
Zn2MB O2SB 1_555 1_555
Zn2ZA O2CC 1_555 1_555
O2BA Zn2M 1_555 1_555
O2K Zn2K 1_555 1_555
O2P Zn2 1_555 1_555
O2FA Zn2H 1_555 1_555
O2X C1X 1_555 1_555
O2UA Zn2 1_555 1_555
O2PA C1PA 1_555 1_555
O2NA C1NA 1_555 1_555
O2CB C1CB 1_555 1_555
O2SB C1SB 1_555 1_555
O2CC C1CC 1_555 1_555
O2M Zn2M 1_555 1_555
O2X_2 Zn2M 1_555 1_555
O2PA_2 Zn2K 1_555 1_555
O2DA Zn2K 1_555 1_555
O2H Zn2H 1_555 1_555
O2NA_2 Zn2H 1_555 1_555
O3BA C1BA 1_555 1_555
O3K C1K 1_555 1_555
O3P Zn1 1_555 1_555
O3FA C1FA 1_555 1_555
O3X C1X 1_555 1_555
O3UA Zn1 1_555 1_555
O3PA C1PA 1_555 1_555
O3NA C1NA 1_555 1_555
O3CB Zn1 1_555 1_555
O3SB C1SB 1_555 1_555
O3CC C1CC 1_555 1_555
O3EB Zn1 1_555 1_555
O3NC Zn1 1_555 1_555
O3M Zn1M 1_555 1_555
O3X_2 Zn1M 1_555 1_555
O3RB Zn1M 1_555 1_555
O3WA Zn1M 1_555 1_555
O3KB Zn1M 1_555 1_555
C1BA O2BA 1_555 1_555
C1K O2K 1_555 1_555
C1P O2P 1_555 1_555
C1FA O2FA 1_555 1_555
C1X C2X 1_555 1_555
C1UA O2UA 1_555 1_555
C1PA C2PA 1_555 1_555
C1NA C2NA 1_555 1_555
C1CB O3CB 1_555 1_555
C1SB C2SB 1_555 1_555
C1CC C2CC 1_555 1_555
C2BA C1BA 1_555 1_555
C2K C1K 1_555 1_555
C2P C1P 1_555 1_555
C2FA C1FA 1_555 1_555
C2X C3X 1_555 1_555
C2UA C1UA 1_555 1_555
C2PA C3PA 1_555 1_555
C2NA C3NA 1_555 1_555
C2CB C1CB 1_555 1_555
C2SB C3SB 1_555 1_555
C2CC C3CC 1_555 1_555
C3BA C2BA 1_555 1_555
C3K C2K 1_555 1_555
C3P C2P 1_555 1_555
C3FA C2FA 1_555 1_555
C3X H1X 1_555 1_555
C3UA C2UA 1_555 1_555
C3PA H1PA 1_555 1_555
C3NA H1NA 1_555 1_555
C3CB C2CB 1_555 1_555
C3SB H1SB 1_555 1_555
C3CC H1CC 1_555 1_555
H1BA C3BA 1_555 1_555
H1K C3K 1_555 1_555
H1P C3P 1_555 1_555
H1FA C3FA 1_555 1_555
H1UA C3UA 1_555 1_555
H1CB C3CB 1_555 1_555
C4BA C3BA 1_555 1_555
C4K C3K 1_555 1_555
C4P C3P 1_555 1_555
C4FA C3FA 1_555 1_555
C4X C3X 1_555 1_555
C4UA C3UA 1_555 1_555
C4PA C3PA 1_555 1_555
C4NA C3NA 1_555 1_555
C4CB C3CB 1_555 1_555
C4SB C3SB 1_555 1_555
C4CC C3CC 1_555 1_555
H2BA C4BA 1_555 1_555
H2K C4K 1_555 1_555
H2P C4P 1_555 1_555
H2FA C4FA 1_555 1_555
H2X C4X 1_555 1_555
H2UA C4UA 1_555 1_555
H2PA C4PA 1_555 1_555
H2NA C4NA 1_555 1_555
H2CB C4CB 1_555 1_555
H2SB C4SB 1_555 1_555
H2CC C4CC 1_555 1_555
C5BA C4BA 1_555 1_555
C5K C4K 1_555 1_555
C5P C4P 1_555 1_555
C5FA C4FA 1_555 1_555
C5X C4X 1_555 1_555
C5UA C4UA 1_555 1_555
C5PA C4PA 1_555 1_555
C5NA C4NA 1_555 1_555
C5CB C4CB 1_555 1_555
C5SB C4SB 1_555 1_555
C5CC C4CC 1_555 1_555
C6BA C5BA 1_555 1_555
C6K C5K 1_555 1_555
C6P C5P 1_555 1_555
C6FA C5FA 1_555 1_555
C6X C5X 1_555 1_555
C6UA C5UA 1_555 1_555
C6PA C5PA 1_555 1_555
C6NA C5NA 1_555 1_555
C6CB C5CB 1_555 1_555
C6SB C5SB 1_555 1_555
C6CC C5CC 1_555 1_555
H3BA C6BA 1_555 1_555
H3K C6K 1_555 1_555
H3P C6P 1_555 1_555
H3FA C6FA 1_555 1_555
H3X C6X 1_555 1_555
H3UA C6UA 1_555 1_555
H3PA C6PA 1_555 1_555
H3NA C6NA 1_555 1_555
H3CB C6CB 1_555 1_555
H3SB C6SB 1_555 1_555
H3CC C6CC 1_555 1_555
C7BA C2BA 1_555 1_555
C7K C2K 1_555 1_555
C7P C2P 1_555 1_555
C7FA C2FA 1_555 1_555
C7X C2X 1_555 1_555
C7UA C2UA 1_555 1_555
C7PA C2PA 1_555 1_555
C7NA C2NA 1_555 1_555
C7CB C2CB 1_555 1_555
C7SB C2SB 1_555 1_555
C7CC C2CC 1_555 1_555
H4BA C7BA 1_555 1_555
H4K C7K 1_555 1_555
H4P C7P 1_555 1_555
H4FA C7FA 1_555 1_555
H4X C7X 1_555 1_555
H4UA C7UA 1_555 1_555
H4PA C7PA 1_555 1_555
H4NA C7NA 1_555 1_555
H4CB C7CB 1_555 1_555
H4SB C7SB 1_555 1_555
H4CC C7CC 1_555 1_555
C8BA C9 1_555 1_555
C8K C5K 1_555 1_555
C8P C5P 1_555 1_555
C8FA C5FA 1_555 1_555
C8X C5X 1_555 1_555
C8UA C5UA 1_555 1_555
C8PA C5PA 1_555 1_555
C8NA C5NA 1_555 1_555
C8CB C5CB 1_555 1_555
C8SB C5SB 1_555 1_555
C8CC C5CC 1_555 1_555
C9BA C8BA 1_555 1_555
C9K C8 1_555 1_555
C9P C8P 1_555 1_555
C9FA C8FA 1_555 1_555
C9X C8P 1_555 1_555
C9UA C8UA 1_555 1_555
C9PA C8PA 1_555 1_555
C9NA C8UA 1_555 1_555
C9CB C8CB 1_555 1_555
C9SB C8SB 1_555 1_555
C9CC C8CB 1_555 1_555
H5K C9K 1_555 1_555
H5BA C9BA 1_555 1_555
H5P C9P 1_555 1_555
H5X C9X 1_555 1_555
H5FA C9FA 1_555 1_555
H5UA C9UA 1_555 1_555
H5NA C9NA 1_555 1_555
H5PA C9PA 1_555 1_555
H5CB C9CB 1_555 1_555
H5CC C9CC 1_555 1_555
H5SB C9SB 1_555 1_555
C6 C7 1_555 1_555
O3P C1P 1_555 1_555
O3UA C1UA 1_555 1_555
C5BA C8BA 1_555 1_555
C6BA C7BA 1_555 1_555
C6K C7K 1_555 1_555
C6P C7P 1_555 1_555
C6FA C7FA 1_555 1_555
C6X C7X 1_555 1_555
C6UA C7UA 1_555 1_555
C6PA C7PA 1_555 1_555
C6NA C7NA 1_555 1_555
C6CB C7CB 1_555 1_555
C6SB C7SB 1_555 1_555
C6CC C7CC 1_555 1_555
C8K C9BA 1_555 1_555
C8K C9K 1_555 1_555
C8FA C9P 1_555 1_555
C8X C9FA 1_555 1_555
C8X C9X 1_555 1_555
C8PA C9UA 1_555 1_555
C8NA C9PA 1_555 1_555
C8NA C9NA 1_555 1_555
C8SB C9CB 1_555 1_555
C8CC C9SB 1_555 1_555
C8CC C9CC 1_555 1_555

#END
