
#######################################################################
#
#                 Cambridge Crystallographic Data Centre
#                                CCDC 
#
#######################################################################
#
# If this CIF has been generated from an entry in the Cambridge 
# Structural Database, then it will include bibliographic, chemical, 
# crystal, experimental, refinement or atomic coordinate data resulting 
# from the CCDC's data processing and validation procedures.
#
#######################################################################

data_VOLRIZ
_symmetry_cell_setting           orthorhombic
_symmetry_space_group_name_H-M   'P 21 21 21'
_symmetry_Int_Tables_number      19
_space_group_name_Hall           'P 2ac 2ab'
loop_
_symmetry_equiv_pos_site_id
_symmetry_equiv_pos_as_xyz
1 x,y,z
2 1/2-x,-y,1/2+z
3 1/2+x,1/2-y,-z
4 -x,1/2+y,1/2-z
_cell_length_a                   14.5160(10)
_cell_length_b                   14.9160(11)
_cell_length_c                   23.2960(16)
_cell_angle_alpha                90
_cell_angle_beta                 90
_cell_angle_gamma                90
_cell_volume                     5044.07
loop_
_atom_site_label
_atom_site_type_symbol
_atom_site_fract_x
_atom_site_fract_y
_atom_site_fract_z
Ag1 Ag 1.00329(7) 0.55159(8) 0.48260(4)
Ag2 Ag 0.75873(7) 0.27475(8) 0.65248(5)
N1 N 1.1270(7) 0.5269(7) 0.5380(5)
N2 N 1.1373(6) 0.5579(8) 0.5913(4)
N3 N 0.9735(9) 0.6721(9) 0.5517(5)
N4 N 1.0210(7) 0.6699(7) 0.6025(5)
N5 N 0.8599(7) 0.3790(8) 0.6496(5)
N6 N 0.8822(7) 0.5226(8) 0.4271(4)
N7 N 0.8799(6) 0.5301(7) 0.3681(4)
N8 N 1.0662(7) 0.6282(9) 0.3987(5)
N9 N 1.0060(7) 0.6283(6) 0.3520(4)
N10 N 1.1573(7) 0.3284(7) 0.3407(5)
C1 C 1.2112(9) 0.5025(9) 0.5200(7)
C2 C 1.2742(10) 0.5166(11) 0.5655(7)
H1 H 1.3370 0.5042 0.5655
C3 C 1.2246(9) 0.5515(10) 0.6086(5)
C4 C 1.2251(12) 0.4649(15) 0.4614(7)
H2 H 1.1673 0.4639 0.4413
H3 H 1.2487 0.4050 0.4643
H4 H 1.2682 0.5015 0.4407
C5 C 1.2573(12) 0.5722(14) 0.6703(7)
H5 H 1.2067 0.5952 0.6923
H6 H 1.3058 0.6159 0.6691
H7 H 1.2799 0.5182 0.6879
C6 C 1.0264(13) 0.7532(11) 0.6226(8)
C7 C 0.9836(17) 0.8048(12) 0.5834(9)
H8 H 0.9769 0.8667 0.5859
C8 C 0.9521(12) 0.7539(11) 0.5401(8)
C9 C 1.0769(16) 0.7752(13) 0.6750(10)
H9 H 1.0991 0.7211 0.6925
H10 H 1.0368 0.8058 0.7012
H11 H 1.1282 0.8132 0.6657
C10 C 0.9001(13) 0.7793(14) 0.4882(8)
H12 H 0.8876 0.7267 0.4658
H13 H 0.9358 0.8208 0.4659
H14 H 0.8431 0.8070 0.4992
C11 C 1.0607(8) 0.5904(9) 0.6254(5)
H15 H 1.0845 0.6048 0.6636
C12 C 0.9868(10) 0.5139(9) 0.6327(5)
C13 C 1.0113(11) 0.4274(10) 0.6333(7)
H16 H 1.0720 0.4113 0.6257
C14 C 0.9471(11) 0.3626(11) 0.6449(9)
H17 H 0.9672 0.3039 0.6497
C15 C 0.8382(9) 0.4642(10) 0.6496(6)
H18 H 0.7766 0.4781 0.6563
C16 C 0.8959(8) 0.5342(9) 0.6411(5)
H19 H 0.8749 0.5931 0.6409
C17 C 0.7910(10) 0.5235(12) 0.3497(7)
C18 C 0.7402(12) 0.5119(12) 0.3984(8)
H20 H 0.6765 0.5055 0.3999
C19 C 0.7977(10) 0.5114(13) 0.4444(6)
C20 C 0.7667(12) 0.5260(13) 0.2859(6)
H21 H 0.8216 0.5361 0.2638
H22 H 0.7237 0.5736 0.2789
H23 H 0.7396 0.4699 0.2748
C21 C 0.7764(14) 0.5056(17) 0.5077(7)
H24 H 0.8327 0.5081 0.5292
H25 H 0.7453 0.4502 0.5156
H26 H 0.7375 0.5549 0.5185
C22 C 0.9957(13) 0.7099(11) 0.3296(6)
C23 C 1.0511(14) 0.7658(13) 0.3610(9)
H27 H 1.0589 0.8270 0.3550
C24 C 1.0948(11) 0.7136(12) 0.4044(7)
C25 C 0.9401(18) 0.7320(13) 0.2779(9)
H28 H 0.9082 0.6793 0.2650
H29 H 0.9801 0.7530 0.2479
H30 H 0.8962 0.7778 0.2872
C26 C 1.1689(17) 0.7355(13) 0.4486(8)
H31 H 1.1821 0.6830 0.4710
H32 H 1.1474 0.7825 0.4734
H33 H 1.2239 0.7547 0.4293
C27 C 0.9631(8) 0.5460(9) 0.3358(5)
H34 H 0.9447 0.5524 0.2955
C28 C 1.0311(8) 0.4698(7) 0.3381(5)
C29 C 1.0105(9) 0.3861(8) 0.3631(5)
H35 H 0.9537 0.3762 0.3805
C30 C 1.0743(10) 0.3208(9) 0.3614(7)
H36 H 1.0577 0.2653 0.3764
C31 C 1.1782(9) 0.4049(11) 0.3186(5)
H37 H 1.2380 0.4122 0.3050
C32 C 1.1178(8) 0.4786(9) 0.3135(5)
H38 H 1.1353 0.5307 0.2944
Ag2B Ag 1.25873(7) 0.22525(8) 0.34752(5)
N10B N 0.6573(7) 0.1716(7) 0.6593(5)
P1 P 0.5451(3) 0.4628(3) 0.6379(2)
F1 F 0.6274(11) 0.5292(11) 0.6192(7)
F2 F 0.5189(19) 0.5189(19) 0.6936(11)
F3 F 0.6053(15) 0.4035(14) 0.5915(9)
F4 F 0.6009(14) 0.4003(14) 0.6831(9)
F5 F 0.4692(14) 0.3874(15) 0.6424(11)
F6 F 0.491(2) 0.5295(18) 0.5970(12)
P2 P 0.4656(3) 0.4254(3) 0.3179(2)
F13 F 0.5199(18) 0.3876(17) 0.2619(10)
F14 F 0.400(3) 0.427(3) 0.3688(15)
F15 F 0.5327(17) 0.3694(17) 0.3601(12)
F16 F 0.4033(18) 0.467(2) 0.2653(11)
F17 F 0.5370(17) 0.5002(17) 0.3190(11)
F18 F 0.4009(16) 0.3420(16) 0.3041(10)
Cl1 Cl 0.588(3) 0.251(2) 0.4836(16)
Cl2 Cl 0.390(2) 0.248(2) 0.5010(14)
C33 C 0.5012(16) 0.2979(16) 0.4879(12)
H39 H 0.4949 0.3313 0.4524
H40 H 0.5094 0.3421 0.5180
O1 O 0.7440(16) 0.1296(16) 0.2647(12)
C34 C 0.7619(16) 0.1661(16) 0.3001(12)
H41 H 0.8196 0.1451 0.3163
H42 H 0.7144 0.1633 0.3293
C35 C 0.7703(16) 0.2489(16) 0.2790(12)
H43 H 0.8331 0.2605 0.2669
H44 H 0.7527 0.2934 0.3074
C36 C 0.7125(16) 0.2498(16) 0.2341(12)
H45 H 0.6525 0.2728 0.2452
H46 H 0.7368 0.2861 0.2031
C37 C 0.7068(16) 0.1635(16) 0.2186(12)
H47 H 0.6436 0.1440 0.2133
H48 H 0.7425 0.1506 0.1844
F7? F 0.4761(17) 0.3928(16) 0.6079(11)
F8? F 0.6156(19) 0.5313(18) 0.6619(12)
F9? F 0.6137(19) 0.3872(18) 0.6503(14)
F10? F 0.543(3) 0.485(3) 0.569(2)
F11? F 0.4669(17) 0.5443(17) 0.6368(12)
F12? F 0.477(3) 0.446(4) 0.693(2)
F19? F 0.4038(15) 0.3562(16) 0.3566(10)
F20? F 0.402(2) 0.403(3) 0.2668(14)
F21? F 0.5198(19) 0.4912(18) 0.2792(12)
F22? F 0.5335(14) 0.3482(14) 0.3208(10)
F23? F 0.512(2) 0.468(2) 0.3729(13)
F24? F 0.3891(14) 0.4979(14) 0.3397(9)
loop_
_geom_bond_atom_site_label_1
_geom_bond_atom_site_label_2
_geom_bond_site_symmetry_1
_geom_bond_site_symmetry_2
Ag1 N1 1_555 1_555
Ag2 N5 1_555 1_555
N1 N2 1_555 1_555
N2 C3 1_555 1_555
N3 Ag1 1_555 1_555
N4 N3 1_555 1_555
N5 C14 1_555 1_555
N6 Ag1 1_555 1_555
N7 N6 1_555 1_555
N8 Ag1 1_555 1_555
N9 N8 1_555 1_555
N10 C30 1_555 1_555
C1 N1 1_555 1_555
C2 C1 1_555 1_555
H1 C2 1_555 1_555
C3 C2 1_555 1_555
C4 C1 1_555 1_555
H2 C4 1_555 1_555
H3 C4 1_555 1_555
H4 C4 1_555 1_555
C5 C3 1_555 1_555
H5 C5 1_555 1_555
H6 C5 1_555 1_555
H7 C5 1_555 1_555
C6 N4 1_555 1_555
C7 C6 1_555 1_555
H8 C7 1_555 1_555
C8 N3 1_555 1_555
C9 C6 1_555 1_555
H9 C9 1_555 1_555
H10 C9 1_555 1_555
H11 C9 1_555 1_555
C10 C8 1_555 1_555
H12 C10 1_555 1_555
H13 C10 1_555 1_555
H14 C10 1_555 1_555
C11 N2 1_555 1_555
H15 C11 1_555 1_555
C12 C11 1_555 1_555
C13 C12 1_555 1_555
H16 C13 1_555 1_555
C14 C13 1_555 1_555
H17 C14 1_555 1_555
C15 N5 1_555 1_555
H18 C15 1_555 1_555
C16 C12 1_555 1_555
H19 C16 1_555 1_555
C17 N7 1_555 1_555
C18 C17 1_555 1_555
H20 C18 1_555 1_555
C19 N6 1_555 1_555
C20 C17 1_555 1_555
H21 C20 1_555 1_555
H22 C20 1_555 1_555
H23 C20 1_555 1_555
C21 C19 1_555 1_555
H24 C21 1_555 1_555
H25 C21 1_555 1_555
H26 C21 1_555 1_555
C22 N9 1_555 1_555
C23 C22 1_555 1_555
H27 C23 1_555 1_555
C24 N8 1_555 1_555
C25 C22 1_555 1_555
H28 C25 1_555 1_555
H29 C25 1_555 1_555
H30 C25 1_555 1_555
C26 C24 1_555 1_555
H31 C26 1_555 1_555
H32 C26 1_555 1_555
H33 C26 1_555 1_555
C27 N7 1_555 1_555
H34 C27 1_555 1_555
C28 C27 1_555 1_555
C29 C28 1_555 1_555
H35 C29 1_555 1_555
C30 C29 1_555 1_555
H36 C30 1_555 1_555
C31 N10 1_555 1_555
H37 C31 1_555 1_555
C32 C28 1_555 1_555
H38 C32 1_555 1_555
P1 F1 1_555 1_555
F2 P1 1_555 1_555
F3 P1 1_555 1_555
F4 P1 1_555 1_555
F5 P1 1_555 1_555
F6 P1 1_555 1_555
P2 F13 1_555 1_555
F14 P2 1_555 1_555
F15 P2 1_555 1_555
F16 P2 1_555 1_555
F17 P2 1_555 1_555
F18 P2 1_555 1_555
Cl1 C33 1_555 1_555
Cl2 C33 1_555 1_555
C33 H39 1_555 1_555
H40 C33 1_555 1_555
O1 C34 1_555 1_555
C34 H41 1_555 1_555
H42 C34 1_555 1_555
C35 C34 1_555 1_555
H43 C35 1_555 1_555
H44 C35 1_555 1_555
C36 C35 1_555 1_555
H45 C36 1_555 1_555
H46 C36 1_555 1_555
C37 O1 1_555 1_555
H47 C37 1_555 1_555
H48 C37 1_555 1_555
Ag2B N10 1_555 1_555
N10B Ag2 1_555 1_555
N4 C11 1_555 1_555
N9 C27 1_555 1_555
C7 C8 1_555 1_555
C15 C16 1_555 1_555
C18 C19 1_555 1_555
C23 C24 1_555 1_555
C31 C32 1_555 1_555
C36 C37 1_555 1_555

#END
