
#######################################################################
#
#                 Cambridge Crystallographic Data Centre
#                                CCDC 
#
#######################################################################
#
# If this CIF has been generated from an entry in the Cambridge 
# Structural Database, then it will include bibliographic, chemical, 
# crystal, experimental, refinement or atomic coordinate data resulting 
# from the CCDC's data processing and validation procedures.
#
#######################################################################

data_VOLROF
_symmetry_cell_setting           orthorhombic
_symmetry_space_group_name_H-M   'P 21 21 21'
_symmetry_Int_Tables_number      19
_space_group_name_Hall           'P 2ac 2ab'
loop_
_symmetry_equiv_pos_site_id
_symmetry_equiv_pos_as_xyz
1 x,y,z
2 1/2-x,-y,1/2+z
3 1/2+x,1/2-y,-z
4 -x,1/2+y,1/2-z
_cell_length_a                   14.1019(8)
_cell_length_b                   14.7080(7)
_cell_length_c                   23.1792(10)
_cell_angle_alpha                90
_cell_angle_beta                 90
_cell_angle_gamma                90
_cell_volume                     4807.62
loop_
_atom_site_label
_atom_site_type_symbol
_atom_site_fract_x
_atom_site_fract_y
_atom_site_fract_z
Ag1 Ag 0.50327(6) 0.55903(6) 0.01676(3)
Ag2 Ag 0.76845(7) 0.22993(7) 0.15639(4)
N1 N 0.5610(6) 0.6426(6) 0.1021(4)
N2 N 0.5015(6) 0.6371(5) 0.1496(3)
N3 N 0.3787(5) 0.5255(6) 0.0724(3)
N4 N 0.3745(5) 0.5323(6) 0.1306(3)
N5 N 0.6655(6) 0.3357(6) 0.1591(3)
N6 N 0.6317(5) 0.5356(6) -0.0382(3)
N7 N 0.6445(5) 0.5677(6) -0.0921(3)
N8 N 0.4720(6) 0.6762(6) -0.0524(3)
N9 N 0.5233(7) 0.6801(6) -0.1031(3)
N10 N 0.3675(6) 0.3805(6) -0.1542(4)
C1 C 0.4929(9) 0.7172(7) 0.1752(4)
C2 C 0.5456(9) 0.7778(9) 0.1458(5)
H1 H 0.5525 0.8394 0.1538
C3 C 0.5874(8) 0.7302(9) 0.1015(5)
C4 C 0.4368(10) 0.7346(10) 0.2270(5)
H2 H 0.4061 0.6795 0.2389
H3 H 0.3898 0.7800 0.2187
H4 H 0.4776 0.7558 0.2573
C5 C 0.6583(11) 0.7573(10) 0.0534(7)
H5 H 0.6713 0.7055 0.0296
H6 H 0.7162 0.7785 0.0706
H7 H 0.6313 0.8049 0.0303
C6 C 0.2844(7) 0.5161(8) 0.1512(5)
C7 C 0.2340(8) 0.4989(10) 0.1049(5)
H8 H 0.1699 0.4842 0.1043
C8 C 0.2933(8) 0.5064(9) 0.0561(5)
C9 C 0.2606(8) 0.5160(9) 0.2127(4)
H9 H 0.3158 0.5314 0.2348
H10 H 0.2387 0.4567 0.2237
H11 H 0.2116 0.5599 0.2199
C10 C 0.2684(8) 0.4945(11) -0.0078(5)
H12 H 0.3241 0.5037 -0.0308
H13 H 0.2208 0.5381 -0.0185
H14 H 0.2445 0.4341 -0.0141
C11 C 0.4597(6) 0.5494(7) 0.1643(3)
H15 H 0.4401 0.5531 0.2048
C12 C 0.5311(6) 0.4763(6) 0.1605(4)
C13 C 0.5097(9) 0.3902(7) 0.1372(4)
H16 H 0.4503 0.3775 0.1218
C14 C 0.5806(7) 0.3255(8) 0.1383(5)
H17 H 0.5662 0.2690 0.1225
C15 C 0.6864(7) 0.4164(8) 0.1808(4)
H18 H 0.7475 0.4271 0.1943
C16 C 0.6201(6) 0.4851(8) 0.1839(4)
H19 H 0.6361 0.5391 0.2024
C17 C 0.7353(7) 0.5555(8) -0.1113(4)
C18 C 0.7833(7) 0.5154(9) -0.0670(5)
H20 H 0.8467 0.4982 -0.0659
C19 C 0.7128(7) 0.5060(8) -0.0220(5)
C20 C 0.7299(9) 0.4684(11) 0.0398(5)
H21 H 0.6717 0.4702 0.0612
H22 H 0.7767 0.5051 0.0589
H23 H 0.7521 0.4068 0.0375
C21 C 0.7685(8) 0.5825(10) -0.1689(4)
H24 H 0.7167 0.6082 -0.1903
H25 H 0.7923 0.5301 -0.1889
H26 H 0.8181 0.6268 -0.1651
C22 C 0.5265(8) 0.7642(9) -0.1235(5)
C23 C 0.4798(12) 0.8198(10) -0.0850(6)
H27 H 0.4730 0.8827 -0.0868
C24 C 0.4451(9) 0.7612(10) -0.0426(6)
C25 C 0.5765(11) 0.7867(10) -0.1775(6)
H28 H 0.6016 0.7321 -0.1943
H29 H 0.6274 0.8281 -0.1693
H30 H 0.5330 0.8145 -0.2040
C26 C 0.3888(10) 0.7799(11) 0.0123(6)
H31 H 0.3753 0.7235 0.0315
H32 H 0.3304 0.8098 0.0026
H33 H 0.4253 0.8183 0.0374
C27 C 0.5667(7) 0.5996(7) -0.1263(4)
H34 H 0.5917 0.6149 -0.1645
C28 C 0.4598(8) 0.3671(9) -0.1481(6)
H35 H 0.4830 0.3080 -0.1497
C29 C 0.5210(8) 0.4355(8) -0.1395(6)
H36 H 0.5855 0.4228 -0.1371
C30 C 0.4911(8) 0.5231(7) -0.1344(3)
C31 C 0.3988(7) 0.5388(7) -0.1411(4)
H37 H 0.3752 0.5977 -0.1387
C32 C 0.3394(8) 0.4679(9) -0.1512(5)
H38 H 0.2754 0.4805 -0.1565
Ag2B Ag 0.26845(7) 0.27007(7) -0.15639(4)
N10B N 0.8675(6) 0.1195(6) 0.1542(4)
Cl1 Cl 0.5446(2) 0.0506(2) 0.14299(15)
O1 O 0.6216(10) 0.1075(11) 0.1594(8)
O2 O 0.4708(13) 0.1142(13) 0.1225(9)
O3 O 0.5705(19) -0.0113(16) 0.1002(9)
O4 O 0.5073(15) 0.0074(12) 0.1946(6)
Cl2 Cl 0.9668(2) 0.4105(2) 0.18762(14)
O9 O 0.9062(13) 0.3499(14) 0.2134(8)
O10 O 1.009(2) 0.4706(18) 0.2226(11)
O11 O 1.0359(16) 0.3632(18) 0.1538(12)
O12 O 0.9129(16) 0.4571(17) 0.1453(9)
O17 O 1.2281(8) 0.1194(9) 0.2295(5)
C33 C 1.1827(8) 0.1666(9) 0.2767(5)
H39 H 1.2010 0.1428 0.3141
H40 H 1.1141 0.1674 0.2733
C34 C 1.2286(8) 0.2616(9) 0.2636(5)
H41 H 1.1788 0.3070 0.2620
H42 H 1.2706 0.2776 0.2951
C35 C 1.2683(8) 0.2635(9) 0.2236(5)
H43 H 1.3350 0.2710 0.2324
H44 H 1.2482 0.3159 0.2013
C36 C 1.2583(8) 0.1960(9) 0.1947(5)
H45 H 1.3178 0.1813 0.1759
H46 H 1.2114 0.2075 0.1649
O5? O 0.6236(10) 0.1051(11) 0.1224(7)
O6? O 0.4651(14) 0.1076(16) 0.1569(11)
O7? O 0.5194(13) -0.0086(10) 0.0962(6)
O8? O 0.5686(17) -0.0047(14) 0.1909(8)
O13? O 0.9142(13) 0.3626(14) 0.1442(7)
O14? O 0.9975(19) 0.4875(14) 0.1673(11)
O15? O 1.0448(15) 0.3512(17) 0.1981(12)
O16? O 0.9051(8) 0.4088(9) 0.2342(5)
loop_
_geom_bond_atom_site_label_1
_geom_bond_atom_site_label_2
_geom_bond_site_symmetry_1
_geom_bond_site_symmetry_2
Ag1 N1 1_555 1_555
Ag2 N5 1_555 1_555
N1 N2 1_555 1_555
N2 C1 1_555 1_555
N3 Ag1 1_555 1_555
N4 N3 1_555 1_555
N5 C14 1_555 1_555
N6 Ag1 1_555 1_555
N7 N6 1_555 1_555
N8 Ag1 1_555 1_555
N9 N8 1_555 1_555
N10 C28 1_555 1_555
C1 C2 1_555 1_555
C2 H1 1_555 1_555
C3 N1 1_555 1_555
C4 C1 1_555 1_555
H2 C4 1_555 1_555
H3 C4 1_555 1_555
H4 C4 1_555 1_555
C5 C3 1_555 1_555
H5 C5 1_555 1_555
H6 C5 1_555 1_555
H7 C5 1_555 1_555
C6 N4 1_555 1_555
C7 C6 1_555 1_555
H8 C7 1_555 1_555
C8 N3 1_555 1_555
C9 C6 1_555 1_555
H9 C9 1_555 1_555
H10 C9 1_555 1_555
H11 C9 1_555 1_555
C10 C8 1_555 1_555
H12 C10 1_555 1_555
H13 C10 1_555 1_555
H14 C10 1_555 1_555
C11 N2 1_555 1_555
H15 C11 1_555 1_555
C12 C11 1_555 1_555
C13 C12 1_555 1_555
H16 C13 1_555 1_555
C14 C13 1_555 1_555
H17 C14 1_555 1_555
C15 N5 1_555 1_555
H18 C15 1_555 1_555
C16 C12 1_555 1_555
H19 C16 1_555 1_555
C17 N7 1_555 1_555
C18 C17 1_555 1_555
H20 C18 1_555 1_555
C19 N6 1_555 1_555
C20 C19 1_555 1_555
H21 C20 1_555 1_555
H22 C20 1_555 1_555
H23 C20 1_555 1_555
C21 C17 1_555 1_555
H24 C21 1_555 1_555
H25 C21 1_555 1_555
H26 C21 1_555 1_555
C22 N9 1_555 1_555
C23 C22 1_555 1_555
H27 C23 1_555 1_555
C24 N8 1_555 1_555
C25 C22 1_555 1_555
H28 C25 1_555 1_555
H29 C25 1_555 1_555
H30 C25 1_555 1_555
C26 C24 1_555 1_555
H31 C26 1_555 1_555
H32 C26 1_555 1_555
H33 C26 1_555 1_555
C27 N7 1_555 1_555
H34 C27 1_555 1_555
C28 H35 1_555 1_555
C29 C28 1_555 1_555
H36 C29 1_555 1_555
C30 C27 1_555 1_555
C31 C30 1_555 1_555
H37 C31 1_555 1_555
C32 N10 1_555 1_555
H38 C32 1_555 1_555
Cl1 O1 1_555 1_555
O2 Cl1 1_555 1_555
O3 Cl1 1_555 1_555
O4 Cl1 1_555 1_555
Cl2 O9 1_555 1_555
O10 Cl2 1_555 1_555
O11 Cl2 1_555 1_555
O12 Cl2 1_555 1_555
O17 C33 1_555 1_555
C33 H39 1_555 1_555
H40 C33 1_555 1_555
C34 C33 1_555 1_555
H41 C34 1_555 1_555
H42 C34 1_555 1_555
C35 C34 1_555 1_555
H43 C35 1_555 1_555
H44 C35 1_555 1_555
C36 O17 1_555 1_555
H45 C36 1_555 1_555
H46 C36 1_555 1_555
Ag2B N10 1_555 1_555
N10B Ag2 1_555 1_555
N4 C11 1_555 1_555
N9 C27 1_555 1_555
C2 C3 1_555 1_555
C7 C8 1_555 1_555
C15 C16 1_555 1_555
C18 C19 1_555 1_555
C23 C24 1_555 1_555
C29 C30 1_555 1_555
C31 C32 1_555 1_555
C35 C36 1_555 1_555

#END
