
#######################################################################
#
#                 Cambridge Crystallographic Data Centre
#                                CCDC 
#
#######################################################################
#
# If this CIF has been generated from an entry in the Cambridge 
# Structural Database, then it will include bibliographic, chemical, 
# crystal, experimental, refinement or atomic coordinate data resulting 
# from the CCDC's data processing and validation procedures.
#
#######################################################################

data_VOLSOG
_symmetry_cell_setting           triclinic
_symmetry_space_group_name_H-M   'P -1'
_symmetry_Int_Tables_number      2
_space_group_name_Hall           '-P 1'
loop_
_symmetry_equiv_pos_site_id
_symmetry_equiv_pos_as_xyz
1 x,y,z
2 -x,-y,-z
_cell_length_a                   16.346(5)
_cell_length_b                   17.081(5)
_cell_length_c                   17.163(5)
_cell_angle_alpha                68.749(5)
_cell_angle_beta                 86.941(5)
_cell_angle_gamma                66.545(5)
_cell_volume                     4073.91
loop_
_atom_site_label
_atom_site_type_symbol
_atom_site_fract_x
_atom_site_fract_y
_atom_site_fract_z
C1 C 0.2256(4) 0.0762(4) 0.5792(4)
C2 C 0.2773(4) 0.1007(4) 0.6291(4)
C3 C 0.3070(4) 0.0418(5) 0.7116(4)
H1 H 0.2947 -0.0103 0.7331
C4 C 0.3548(5) 0.0591(5) 0.7626(4)
C5 C 0.3778(4) 0.1337(5) 0.7280(4)
H2 H 0.4124 0.1447 0.7609
C6 C 0.3493(4) 0.1925(4) 0.6441(4)
C7 C 0.2967(4) 0.1773(4) 0.5961(4)
H3 H 0.2744 0.2186 0.5413
C8 C 0.3838(4) 0.2663(4) 0.6086(4)
C9 C 0.4254(9) 0.0172(9) 0.9023(5)
H4 H 0.3973 0.0815 0.8953
H5 H 0.4872 0.0029 0.8905
C10 C 0.4223(12) -0.0430(11) 0.9929(6)
C11 C 0.3426(13) -0.0120(13) 1.0338(7)
C12 C 0.2725(14) 0.0665(17) 0.9951(11)
H6 H 0.2720 0.1026 0.9393
C13 C 0.1990(13) 0.094(2) 1.0403(13)
H7 H 0.1487 0.1469 1.0117
C14 C 0.1966(15) 0.0459(18) 1.1264(13)
H8 H 0.1499 0.0702 1.1557
C15 C 0.2698(13) -0.0423(15) 1.1669(9)
H9 H 0.2690 -0.0824 1.2205
C16 C 0.3409(12) -0.0629(11) 1.1204(9)
C17 C 0.4089(13) -0.1466(11) 1.1640(9)
H10 H 0.4070 -0.1806 1.2198
C18 C 0.4779(12) -0.1763(9) 1.1215(7)
C19 C 0.5520(11) -0.2598(10) 1.1585(8)
H11 H 0.5529 -0.2950 1.2147
C20 C 0.6267(13) -0.2943(10) 1.1146(7)
H12 H 0.6742 -0.3500 1.1434
C21 C 0.6303(14) -0.2461(10) 1.0290(8)
H13 H 0.6777 -0.2707 1.0004
C22 C 0.5592(12) -0.1590(10) 0.9881(9)
C23 C 0.4848(13) -0.1233(10) 1.0311(7)
C24 C 0.2074(4) -0.1721(4) 0.6057(4)
C25 C 0.2571(5) -0.2729(5) 0.6569(4)
C26 C 0.2502(7) -0.3092(6) 0.7416(5)
H14 H 0.2101 -0.2726 0.7675
C27 C 0.3021(9) -0.3989(6) 0.7870(5)
C28 C 0.3496(7) -0.4579(6) 0.7477(4)
H15 H 0.3777 -0.5208 0.7780
C29 C 0.3549(5) -0.4216(5) 0.6617(4)
C30 C 0.3120(4) -0.3283(4) 0.6166(4)
H16 H 0.3197 -0.3033 0.5602
C31 C 0.4020(4) -0.4858(4) 0.6179(4)
C32 C 0.2411(13) -0.3835(9) 0.9211(6)
H17 H 0.1806 -0.3727 0.9046
H18 H 0.2441 -0.3243 0.9060
C33 C 0.2621(15) -0.4335(12) 1.0129(6)
C34 C 0.3142(16) -0.4161(13) 1.0663(8)
C35 C 0.3449(18) -0.3469(15) 1.0358(10)
H19 H 0.3352 -0.3122 0.9784
C36 C 0.3898(17) -0.3278(15) 1.0883(9)
H20 H 0.4074 -0.2793 1.0657
C37 C 0.4089(16) -0.3808(13) 1.1753(10)
H21 H 0.4455 -0.3740 1.2098
C38 C 0.3702(16) -0.4443(14) 1.2070(9)
H22 H 0.3791 -0.4786 1.2644
C39 C 0.318(2) -0.4581(18) 1.1543(8)
C40 C 0.290(2) -0.5319(16) 1.1879(9)
H23 H 0.2994 -0.5647 1.2456
C41 C 0.2491(19) -0.5563(16) 1.1369(9)
C42 C 0.205(2) -0.6142(18) 1.1711(11)
H24 H 0.1928 -0.6286 1.2270
C43 C 0.178(2) -0.6501(19) 1.1209(10)
H25 H 0.1715 -0.7052 1.1451
C44 C 0.162(2) -0.6015(17) 1.0315(11)
H26 H 0.1344 -0.6178 0.9973
C45 C 0.1883(19) -0.5289(16) 0.9980(10)
H27 H 0.1774 -0.4954 0.9404
C46 C 0.2318(19) -0.5046(15) 1.0500(8)
C47 C 0.0349(4) -0.0835(5) 0.3991(4)
C48 C 0.1070(4) -0.1321(5) 0.3544(4)
C49 C 0.0807(4) -0.1398(6) 0.2835(5)
H28 H 0.0205 -0.1103 0.2624
C50 C 0.1428(5) -0.1913(7) 0.2429(5)
C51 C 0.2324(4) -0.2387(5) 0.2781(4)
H29 H 0.2747 -0.2762 0.2541
C52 C 0.2575(4) -0.2291(4) 0.3491(4)
C53 C 0.1950(4) -0.1737(4) 0.3867(4)
H30 H 0.2130 -0.1654 0.4325
C54 C 0.3536(4) -0.2796(4) 0.3858(4)
C55 C 0.1789(9) -0.2485(11) 0.1308(7)
H31 H 0.2050 -0.3129 0.1673
H32 H 0.2266 -0.2272 0.1168
C56 C 0.1297(8) -0.2358(11) 0.0506(8)
C57 C 0.0777(17) -0.2898(18) 0.0546(10)
C58 C 0.0825(12) -0.3593(13) 0.1364(11)
H33 H 0.1104 -0.3615 0.1835
C59 C 0.0434(13) -0.4264(15) 0.1456(13)
H34 H 0.0425 -0.4691 0.1976
C60 C 0.0067(13) -0.4212(14) 0.0677(12)
H35 H -0.0157 -0.4639 0.0690
C61 C 0.0043(13) -0.3517(12) -0.0104(12)
H36 H -0.0227 -0.3483 -0.0585
C62 C 0.0415(12) -0.2873(14) -0.0179(10)
C63 C 0.0376(12) -0.2182(13) -0.0994(10)
H37 H 0.0089 -0.2144 -0.1468
C64 C 0.0777(12) -0.1570(14) -0.1061(8)
C65 C 0.0931(7) -0.1069(9) -0.1826(7)
H38 H 0.0725 -0.1102 -0.2302
C66 C 0.1387(8) -0.0504(10) -0.1925(8)
H39 H 0.1453 -0.0138 -0.2457
C67 C 0.1744(12) -0.0507(14) -0.1198(9)
H40 H 0.2130 -0.0216 -0.1244
C68 C 0.153(2) -0.093(2) -0.0420(11)
H41 H 0.1645 -0.0807 0.0037
C69 C 0.1134(19) -0.1573(17) -0.0317(8)
C70 C 0.2804(5) -0.0111(5) 0.3823(5)
H42 H 0.3093 -0.0731 0.4160
C71 C 0.2800(8) 0.1201(6) 0.2650(6)
H43 H 0.3205 0.1347 0.2255
H44 H 0.2640 0.1595 0.2964
H45 H 0.2269 0.1290 0.2353
C72 C 0.4114(6) -0.0281(7) 0.3086(7)
H46 H 0.4314 0.0094 0.2622
H47 H 0.4109 -0.0786 0.2966
H48 H 0.4512 -0.0513 0.3585
C73 C 0.4754(5) -0.2392(5) 0.5704(4)
H49 H 0.4141 -0.2154 0.5551
C74 C 0.4460(6) -0.1053(6) 0.6041(7)
H50 H 0.4810 -0.0809 0.6235
H51 H 0.4050 -0.1172 0.6443
H52 H 0.4128 -0.0616 0.5509
C75 C 0.6001(5) -0.2189(7) 0.6163(6)
H53 H 0.6084 -0.1749 0.6338
H54 H 0.6317 -0.2227 0.5681
H55 H 0.6231 -0.2781 0.6613
N1 N 0.3791(7) 0.0009(6) 0.8451(4)
N2 N 0.3040(11) -0.4357(6) 0.8762(5)
N3 N 0.1161(5) -0.1971(7) 0.1705(5)
N4 N 0.3226(4) 0.0260(4) 0.3214(4)
N5 N 0.5049(4) -0.1901(5) 0.5946(4)
O1 O 0.1769(3) 0.1339(3) 0.5120(3)
O2 O 0.2312(3) -0.0058(3) 0.6075(3)
O3 O 0.3405(3) 0.3390(3) 0.5457(3)
O4 O 0.4584(3) 0.2529(3) 0.6392(3)
O5 O 0.2403(3) -0.1355(3) 0.5430(3)
O6 O 0.1325(3) -0.1255(3) 0.6271(3)
O7 O 0.4455(3) -0.4626(3) 0.5554(3)
O8 O 0.3950(3) -0.5609(3) 0.6397(3)
O9 O 0.0518(3) -0.0499(3) 0.4485(3)
O10 O -0.0423(3) -0.0790(4) 0.3885(3)
O11 O 0.0155(3) 0.1511(3) 0.4018(3)
O12 O 0.2052(3) 0.0325(3) 0.3961(3)
O13 O 0.4057(3) -0.3465(3) 0.3666(2)
O14 O 0.3816(3) -0.2552(3) 0.4365(2)
O15 O 0.5218(3) -0.3138(3) 0.5659(3)
O16 O 0.6413(3) -0.5087(3) 0.5741(3)
Gd1 Gd 0.118464(18) 0.01648(2) 0.510424(19)
Gd2 Gd 0.529072(18) -0.383414(19) 0.466998(17)
H56 H 0.377(7) -0.058(4) 0.861(7)
H57 H 0.253(2) -0.447(2) 0.8636(15)
H58 H 0.061(3) -0.152(4) 0.130(3)
O3A O 0.6595(3) -0.3390(3) 0.4543(3)
O4A O 0.5416(3) -0.2529(3) 0.3608(3)
O7A O 0.5545(3) -0.5374(3) 0.4446(3)
O8A O 0.6050(3) -0.4391(3) 0.3603(3)
O9A O -0.0518(3) 0.0499(3) 0.5515(3)
O10A O 0.0423(3) 0.0790(4) 0.6115(3)
Gd1A Gd -0.118464(18) -0.01648(2) 0.489576(19)
Gd2A Gd 0.470928(18) -0.616586(19) 0.533002(17)
Gd2A_2 Gd 0.470928(18) 0.383414(19) 0.533002(17)
loop_
_geom_bond_atom_site_label_1
_geom_bond_atom_site_label_2
_geom_bond_site_symmetry_1
_geom_bond_site_symmetry_2
C1 C2 1_555 1_555
C2 C3 1_555 1_555
C3 H1 1_555 1_555
C4 C3 1_555 1_555
C5 C4 1_555 1_555
H2 C5 1_555 1_555
C6 C5 1_555 1_555
C7 C2 1_555 1_555
H3 C7 1_555 1_555
C8 C6 1_555 1_555
C9 H4 1_555 1_555
H5 C9 1_555 1_555
C10 C9 1_555 1_555
C11 C10 1_555 1_555
C12 C11 1_555 1_555
H6 C12 1_555 1_555
C13 C12 1_555 1_555
H7 C13 1_555 1_555
C14 C13 1_555 1_555
H8 C14 1_555 1_555
C15 C14 1_555 1_555
H9 C15 1_555 1_555
C16 C11 1_555 1_555
C17 C16 1_555 1_555
H10 C17 1_555 1_555
C18 C17 1_555 1_555
C19 C18 1_555 1_555
H11 C19 1_555 1_555
C20 C19 1_555 1_555
H12 C20 1_555 1_555
C21 C20 1_555 1_555
H13 C21 1_555 1_555
C22 C21 1_555 1_555
C23 C10 1_555 1_555
C24 C25 1_555 1_555
C25 C26 1_555 1_555
C26 H14 1_555 1_555
C27 C26 1_555 1_555
C28 C27 1_555 1_555
H15 C28 1_555 1_555
C29 C28 1_555 1_555
C30 C25 1_555 1_555
H16 C30 1_555 1_555
C31 C29 1_555 1_555
C32 H17 1_555 1_555
H18 C32 1_555 1_555
C33 C32 1_555 1_555
C34 C33 1_555 1_555
C35 C34 1_555 1_555
H19 C35 1_555 1_555
C36 C35 1_555 1_555
H20 C36 1_555 1_555
C37 C36 1_555 1_555
H21 C37 1_555 1_555
C38 C37 1_555 1_555
H22 C38 1_555 1_555
C39 C34 1_555 1_555
C40 C39 1_555 1_555
H23 C40 1_555 1_555
C41 C40 1_555 1_555
C42 C41 1_555 1_555
H24 C42 1_555 1_555
C43 C42 1_555 1_555
H25 C43 1_555 1_555
C44 C43 1_555 1_555
H26 C44 1_555 1_555
C45 C44 1_555 1_555
H27 C45 1_555 1_555
C46 C33 1_555 1_555
C47 C48 1_555 1_555
C48 C49 1_555 1_555
C49 H28 1_555 1_555
C50 C49 1_555 1_555
C51 C50 1_555 1_555
H29 C51 1_555 1_555
C52 C51 1_555 1_555
C53 C48 1_555 1_555
H30 C53 1_555 1_555
C54 C52 1_555 1_555
C55 H31 1_555 1_555
H32 C55 1_555 1_555
C56 C55 1_555 1_555
C57 C56 1_555 1_555
C58 C57 1_555 1_555
H33 C58 1_555 1_555
C59 C58 1_555 1_555
H34 C59 1_555 1_555
C60 C59 1_555 1_555
H35 C60 1_555 1_555
C61 C60 1_555 1_555
H36 C61 1_555 1_555
C62 C57 1_555 1_555
C63 C62 1_555 1_555
H37 C63 1_555 1_555
C64 C63 1_555 1_555
C65 C64 1_555 1_555
H38 C65 1_555 1_555
C66 C65 1_555 1_555
H39 C66 1_555 1_555
C67 C66 1_555 1_555
H40 C67 1_555 1_555
C68 C67 1_555 1_555
H41 C68 1_555 1_555
C69 C56 1_555 1_555
C70 H42 1_555 1_555
C71 H43 1_555 1_555
H44 C71 1_555 1_555
H45 C71 1_555 1_555
C72 H46 1_555 1_555
H47 C72 1_555 1_555
H48 C72 1_555 1_555
C73 H49 1_555 1_555
C74 H50 1_555 1_555
H51 C74 1_555 1_555
H52 C74 1_555 1_555
C75 H53 1_555 1_555
H54 C75 1_555 1_555
H55 C75 1_555 1_555
N1 C4 1_555 1_555
N2 C27 1_555 1_555
N3 C50 1_555 1_555
N4 C70 1_555 1_555
N5 C73 1_555 1_555
O1 C1 1_555 1_555
O2 C1 1_555 1_555
O3 C8 1_555 1_555
O4 C8 1_555 1_555
O5 C24 1_555 1_555
O6 C24 1_555 1_555
O7 C31 1_555 1_555
O8 C31 1_555 1_555
O9 C47 1_555 1_555
O10 C47 1_555 1_555
O11 Gd1 1_555 1_555
O12 C70 1_555 1_555
O13 C54 1_555 1_555
O14 C54 1_555 1_555
O15 C73 1_555 1_555
O16 Gd2 1_555 1_555
Gd1 O1 1_555 1_555
Gd2 O7 1_555 1_555
H56 N1 1_555 1_555
H57 N2 1_555 1_555
H58 N3 1_555 1_555
O3A Gd2 1_555 1_555
O4A Gd2 1_555 1_555
O7A Gd2 1_555 1_555
O8A Gd2 1_555 1_555
O9A Gd1 1_555 1_555
O10A Gd1 1_555 1_555
Gd1A O9 1_555 1_555
Gd2A O7 1_555 1_555
Gd2A_2 O3 1_555 1_555
C6 C7 1_555 1_555
C9 N1 1_555 1_555
C15 C16 1_555 1_555
C18 C23 1_555 1_555
C22 C23 1_555 1_555
C29 C30 1_555 1_555
C32 N2 1_555 1_555
C38 C39 1_555 1_555
C41 C46 1_555 1_555
C45 C46 1_555 1_555
C52 C53 1_555 1_555
C55 N3 1_555 1_555
C61 C62 1_555 1_555
C64 C69 1_555 1_555
C68 C69 1_555 1_555
C71 N4 1_555 1_555
C72 N4 1_555 1_555
C74 N5 1_555 1_555
C75 N5 1_555 1_555
O2 Gd1 1_555 1_555
O4 Gd2A_2 1_555 1_555
O5 Gd1 1_555 1_555
O6 Gd1 1_555 1_555
O8 Gd2A 1_555 1_555
O9 Gd1 1_555 1_555
O10 Gd1A 1_555 1_555
O12 Gd1 1_555 1_555
O13 Gd2 1_555 1_555
O14 Gd2 1_555 1_555
O15 Gd2 1_555 1_555
O7A Gd2A 1_555 1_555
O9A Gd1A 1_555 1_555

#END
