
#######################################################################
#
#                 Cambridge Crystallographic Data Centre
#                                CCDC 
#
#######################################################################
#
# If this CIF has been generated from an entry in the Cambridge 
# Structural Database, then it will include bibliographic, chemical, 
# crystal, experimental, refinement or atomic coordinate data resulting 
# from the CCDC's data processing and validation procedures.
#
#######################################################################

data_VOLSUK
_symmetry_cell_setting           monoclinic
_symmetry_space_group_name_H-M   'P 21/n'
_symmetry_Int_Tables_number      14
_space_group_name_Hall           '-P 2yn'
loop_
_symmetry_equiv_pos_site_id
_symmetry_equiv_pos_as_xyz
1 x,y,z
2 1/2-x,1/2+y,1/2-z
3 -x,-y,-z
4 1/2+x,1/2-y,1/2+z
_cell_length_a                   8.723(1)
_cell_length_b                   21.957(2)
_cell_length_c                   11.302(1)
_cell_angle_alpha                90
_cell_angle_beta                 90.94(1)
_cell_angle_gamma                90
_cell_volume                     2164.39
loop_
_atom_site_label
_atom_site_type_symbol
_atom_site_fract_x
_atom_site_fract_y
_atom_site_fract_z
Zn1 Zn 0.5000 0.5000 0.5000
Zn2 Zn 0.2379(1) 0.6037(1) 0.5807(1)
Zn3 Zn 0.1704(1) 0.5045(1) 0.3750(1)
O1 O 0.2693(4) 0.5192(2) 0.5302(3)
O2 O 0.5958(4) 0.5722(1) 0.5997(3)
O3 O 0.4268(4) 0.6477(2) 0.5938(4)
C1 C 0.5607(6) 0.6272(2) 0.6131(5)
C2 C 0.6800(7) 0.6692(3) 0.6557(6)
C3 C 0.6531(8) 0.7260(3) 0.6837(9)
C4 C 0.7737(12) 0.7690(5) 0.7275(14)
O4 O 0.4968(4) 0.5554(2) 0.3489(3)
O5 O 0.2843(4) 0.5351(2) 0.2424(3)
C5 C 0.4179(6) 0.5555(2) 0.2552(5)
C6 C 0.4894(7) 0.5818(3) 0.1468(6)
C7 C 0.4326(8) 0.5771(3) 0.0399(6)
C8 C 0.5053(10) 0.6026(4) -0.0692(7)
O6 O 0.1047(5) 0.6418(2) 0.4598(4)
O7 O -0.0138(6) 0.5604(2) 0.3852(4)
C9 C -0.0091(6) 0.6140(3) 0.4081(5)
C10 C -0.1471(9) 0.6504(3) 0.3726(7)
C11 C -0.1533(11) 0.7067(4) 0.3799(10)
C12 C -0.2997(13) 0.7426(5) 0.3439(10)
O8 O 0.1612(4) 0.6086(2) 0.7444(4)
O9 O -0.0325(4) 0.5623(2) 0.6592(3)
C13 C 0.0334(6) 0.5827(3) 0.7519(5)
C14 C -0.0395(7) 0.5761(3) 0.8665(6)
C15 C 0.0145(9) 0.6006(3) 0.9639(6)
C16 C -0.0572(11) 0.5977(5) 1.0838(6)
H1 H 0.2332 0.4975 0.5855
H2 H 0.7832 0.6543 0.6635
H3 H 0.5499 0.7408 0.6756
H4 H 0.8685 0.7472 0.7371
H5 H 0.7289 0.7753 0.8035
H6 H 0.7930 0.8077 0.6910
H7 H 0.5840 0.6036 0.1569
H8 H 0.3371 0.5558 0.0301
H9 H 0.5261 0.5684 -0.1194
H10 H 0.5997 0.6227 -0.0485
H11 H 0.4388 0.6306 -0.1104
H12 H -0.2356 0.6291 0.3426
H13 H -0.0650 0.7287 0.4085
H14 H -0.3676 0.7206 0.2917
H15 H -0.2660 0.7791 0.3054
H16 H -0.3527 0.7531 0.4148
H17 H -0.1320 0.5526 0.8704
H18 H 0.1092 0.6226 0.9584
H19 H -0.1072 0.5592 1.0945
H20 H -0.1305 0.6300 1.0921
H21 H 0.0230 0.6023 1.1422
O1B O 0.7307(4) 0.4808(2) 0.4698(3)
H1B H 0.7668 0.5025 0.4145
O2B O 0.4042(4) 0.4278(1) 0.4003(3)
O3B O 0.5732(4) 0.3523(2) 0.4062(4)
C1B C 0.4393(6) 0.3728(2) 0.3869(5)
C2B C 0.3200(7) 0.3308(3) 0.3443(6)
C3B C 0.3469(8) 0.2740(3) 0.3163(9)
C4B C 0.2263(12) 0.2310(5) 0.2725(14)
H2B H 0.2168 0.3457 0.3365
H3B H 0.4501 0.2592 0.3244
H4B H 0.1315 0.2528 0.2629
H5B H 0.2711 0.2247 0.1965
H6B H 0.2070 0.1923 0.3090
O4B O 0.5032(4) 0.4446(2) 0.6511(3)
O5B O 0.7157(4) 0.4649(2) 0.7576(3)
C5B C 0.5821(6) 0.4445(2) 0.7448(5)
C6B C 0.5106(7) 0.4182(3) 0.8532(6)
C7B C 0.5674(8) 0.4229(3) 0.9601(6)
C8B C 0.4947(10) 0.3974(4) 1.0692(7)
H7B H 0.4160 0.3964 0.8431
H8B H 0.6629 0.4442 0.9699
H9B H 0.4739 0.4316 1.1194
H10B H 0.4003 0.3773 1.0485
H11B H 0.5612 0.3694 1.1104
Zn2B Zn 0.7621(1) 0.3963(1) 0.4193(1)
Zn3B Zn 0.8296(1) 0.4955(1) 0.6250(1)
O8B O -0.1612(4) 0.3914(2) 0.2556(4)
O9B O 0.0325(4) 0.4377(2) 0.3408(3)
C13B C -0.0334(6) 0.4173(3) 0.2481(5)
C14B C 0.0395(7) 0.4239(3) 0.1335(6)
C15B C -0.0145(9) 0.3994(3) 0.0361(6)
C16B C 0.0572(11) 0.4023(5) -0.0838(6)
H17B H 0.1320 0.4474 0.1296
H18B H -0.1092 0.3774 0.0416
H19B H 0.1072 0.4408 -0.0945
H20B H 0.1305 0.3700 -0.0921
H21B H -0.0230 0.3977 -0.1422
O6B O 0.8953(5) 0.3582(2) 0.5402(4)
O7B O 1.0138(6) 0.4396(2) 0.6148(4)
C9B C 1.0091(6) 0.3860(3) 0.5919(5)
C10B C 1.1471(9) 0.3496(3) 0.6274(7)
C11B C 1.1533(11) 0.2933(4) 0.6201(10)
C12B C 1.2997(13) 0.2574(5) 0.6561(10)
H12B H 1.2356 0.3709 0.6574
H13B H 1.0650 0.2713 0.5915
H14B H 1.3676 0.2794 0.7083
H15B H 1.2660 0.2209 0.6946
H16B H 1.3527 0.2469 0.5852
Zn3B_2 Zn -0.1704(1) 0.4955(1) 0.6250(1)
O8B_2 O 0.8388(4) 0.3914(2) 0.2556(4)
O9_2 O 0.9675(4) 0.5623(2) 0.6592(3)
Zn2B_2 Zn -0.2379(1) 0.3963(1) 0.4193(1)
loop_
_geom_bond_atom_site_label_1
_geom_bond_atom_site_label_2
_geom_bond_site_symmetry_1
_geom_bond_site_symmetry_2
Zn1 O1 1_555 1_555
Zn2 O1 1_555 1_555
Zn3 O1 1_555 1_555
O1 H1 1_555 1_555
O2 Zn1 1_555 1_555
O3 Zn2 1_555 1_555
C1 O2 1_555 1_555
C2 C1 1_555 1_555
C3 C2 1_555 1_555
C4 C3 1_555 1_555
O4 Zn1 1_555 1_555
O5 Zn3 1_555 1_555
C5 O4 1_555 1_555
C6 C5 1_555 1_555
C7 C6 1_555 1_555
C8 C7 1_555 1_555
O6 Zn2 1_555 1_555
O7 Zn3 1_555 1_555
C9 O6 1_555 1_555
C10 C9 1_555 1_555
C11 C10 1_555 1_555
C12 C11 1_555 1_555
O8 Zn2 1_555 1_555
O9 C13 1_555 1_555
C13 O8 1_555 1_555
C14 C13 1_555 1_555
C15 C14 1_555 1_555
C16 C15 1_555 1_555
H2 C2 1_555 1_555
H3 C3 1_555 1_555
H4 C4 1_555 1_555
H5 C4 1_555 1_555
H6 C4 1_555 1_555
H7 C6 1_555 1_555
H8 C7 1_555 1_555
H9 C8 1_555 1_555
H10 C8 1_555 1_555
H11 C8 1_555 1_555
H12 C10 1_555 1_555
H13 C11 1_555 1_555
H14 C12 1_555 1_555
H15 C12 1_555 1_555
H16 C12 1_555 1_555
H17 C14 1_555 1_555
H18 C15 1_555 1_555
H19 C16 1_555 1_555
H20 C16 1_555 1_555
H21 C16 1_555 1_555
O1B Zn1 1_555 1_555
H1B O1B 1_555 1_555
O2B Zn1 1_555 1_555
O3B C1B 1_555 1_555
C1B O2B 1_555 1_555
C2B C1B 1_555 1_555
C3B C2B 1_555 1_555
C4B C3B 1_555 1_555
H2B C2B 1_555 1_555
H3B C3B 1_555 1_555
H4B C4B 1_555 1_555
H5B C4B 1_555 1_555
H6B C4B 1_555 1_555
O4B Zn1 1_555 1_555
O5B C5B 1_555 1_555
C5B O4B 1_555 1_555
C6B C5B 1_555 1_555
C7B C6B 1_555 1_555
C8B C7B 1_555 1_555
H7B C6B 1_555 1_555
H8B C7B 1_555 1_555
H9B C8B 1_555 1_555
H10B C8B 1_555 1_555
H11B C8B 1_555 1_555
Zn2B O1B 1_555 1_555
Zn3B O1B 1_555 1_555
O8B C13B 1_555 1_555
O9B Zn3 1_555 1_555
C13B O9B 1_555 1_555
C14B C13B 1_555 1_555
C15B C14B 1_555 1_555
C16B C15B 1_555 1_555
H17B C14B 1_555 1_555
H18B C15B 1_555 1_555
H19B C16B 1_555 1_555
H20B C16B 1_555 1_555
H21B C16B 1_555 1_555
O6B Zn2B 1_555 1_555
O7B Zn3B 1_555 1_555
C9B O6B 1_555 1_555
C10B C9B 1_555 1_555
C11B C10B 1_555 1_555
C12B C11B 1_555 1_555
H12B C10B 1_555 1_555
H13B C11B 1_555 1_555
H14B C12B 1_555 1_555
H15B C12B 1_555 1_555
H16B C12B 1_555 1_555
Zn3B_2 O9 1_555 1_555
O8B_2 Zn2B 1_555 1_555
O9_2 Zn3B 1_555 1_555
Zn2B_2 O8B 1_555 1_555
O3 C1 1_555 1_555
O5 C5 1_555 1_555
O7 C9 1_555 1_555
O3B Zn2B 1_555 1_555
O5B Zn3B 1_555 1_555
O7B C9B 1_555 1_555

#END
