
#######################################################################
#
#                 Cambridge Crystallographic Data Centre
#                                CCDC 
#
#######################################################################
#
# If this CIF has been generated from an entry in the Cambridge 
# Structural Database, then it will include bibliographic, chemical, 
# crystal, experimental, refinement or atomic coordinate data resulting 
# from the CCDC's data processing and validation procedures.
#
#######################################################################

data_VOLSUM
_symmetry_cell_setting           monoclinic
_symmetry_space_group_name_H-M   'P 21/c'
_symmetry_Int_Tables_number      14
_space_group_name_Hall           '-P 2ybc'
loop_
_symmetry_equiv_pos_site_id
_symmetry_equiv_pos_as_xyz
1 x,y,z
2 -x,1/2+y,1/2-z
3 -x,-y,-z
4 x,1/2-y,1/2+z
_cell_length_a                   17.779(5)
_cell_length_b                   19.772(5)
_cell_length_c                   20.507(5)
_cell_angle_alpha                90
_cell_angle_beta                 98.486(5)
_cell_angle_gamma                90
_cell_volume                     7129.83
loop_
_atom_site_label
_atom_site_type_symbol
_atom_site_fract_x
_atom_site_fract_y
_atom_site_fract_z
Gd1 Gd 0.062228(19) 0.070903(18) 0.326552(16)
Gd2 Gd -0.06642(2) -0.021254(19) 0.172016(17)
O1 O -0.1564(3) -0.0192(3) 0.2456(2)
O2 O -0.0583(3) 0.0247(3) 0.3093(3)
O3 O -0.0655(3) -0.0146(2) 0.5595(2)
O4 O -0.1701(3) -0.0607(3) 0.5859(2)
O5 O -0.0087(3) -0.1004(2) 0.2492(3)
O6 O 0.0828(3) -0.0440(2) 0.3160(2)
O7 O 0.0530(3) 0.0251(2) 0.1914(3)
O8 O 0.1573(3) 0.0615(3) 0.2532(2)
O9 O 0.0898(3) -0.4041(3) 0.3277(2)
O10 O 0.0050(3) -0.3540(2) 0.2519(2)
O11 O 0.1769(3) 0.0118(3) -0.0867(2)
O12 O -0.1277(4) -0.1315(3) 0.1534(3)
O13 O 0.0097(3) 0.1461(3) 0.4013(2)
O14 O 0.1330(3) 0.1761(3) 0.3313(3)
O15 O 0.0654(3) 0.0064(4) -0.0561(3)
C1 C -0.1245(4) 0.0006(4) 0.3016(3)
C2 C -0.1669(4) -0.0096(3) 0.3585(3)
C3 C -0.1311(4) -0.0094(3) 0.4241(3)
H1 H -0.0794 -0.0002 0.4343
C4 C -0.1741(4) -0.0233(3) 0.4736(3)
C5 C -0.1355(4) -0.0334(4) 0.5431(4)
C6 C -0.2495(4) -0.0363(4) 0.4597(3)
H2 H -0.2768 -0.0461 0.4938
C7 C -0.2872(4) -0.0351(4) 0.3945(3)
C8 C -0.2448(4) -0.0221(4) 0.3442(3)
H3 H -0.2686 -0.0217 0.3006
C9 C -0.4033(5) -0.0624(5) 0.3144(4)
H4 H -0.3660 -0.0725 0.2858
H5 H -0.4301 -0.0216 0.2984
C10 C -0.4601(4) -0.1215(5) 0.3129(4)
C11 C -0.4325(5) -0.1872(5) 0.3148(4)
C12 C -0.3536(5) -0.2035(6) 0.3200(4)
H6 H -0.3181 -0.1687 0.3239
C13 C -0.3296(6) -0.2671(6) 0.3194(5)
H7 H -0.2778 -0.2757 0.3226
C14 C -0.3814(6) -0.3224(6) 0.3140(4)
H8 H -0.3635 -0.3665 0.3139
C15 C -0.4548(6) -0.3106(5) 0.3093(4)
H9 H -0.4879 -0.3473 0.3057
C16 C -0.4864(5) -0.2429(5) 0.3094(4)
C17 C -0.5627(6) -0.2302(6) 0.3061(5)
H10 H -0.5963 -0.2664 0.3038
C18 C -0.5915(5) -0.1640(6) 0.3062(4)
C19 C -0.6707(5) -0.1483(6) 0.3068(5)
H11 H -0.7050 -0.1839 0.3060
C20 C -0.6968(6) -0.0869(8) 0.3082(5)
H12 H -0.7487 -0.0796 0.3061
C21 C -0.6460(5) -0.0308(6) 0.3128(4)
H13 H -0.6643 0.0130 0.3157
C22 C -0.5698(5) -0.0421(6) 0.3130(4)
H14 H -0.5371 -0.0051 0.3162
C23 C -0.5386(5) -0.1077(5) 0.3084(4)
C24 C 0.0513(4) -0.0989(4) 0.2950(4)
C25 C 0.0813(4) -0.1632(4) 0.3222(3)
C26 C 0.1406(4) -0.1594(4) 0.3739(3)
H15 H 0.1586 -0.1171 0.3888
C27 C 0.1745(4) -0.2184(4) 0.4048(3)
C28 C 0.1464(4) -0.2811(4) 0.3799(3)
H16 H 0.1672 -0.3209 0.3987
C29 C 0.0865(4) -0.2839(4) 0.3262(3)
C30 C 0.0535(4) -0.2256(4) 0.2970(3)
H17 H 0.0141 -0.2279 0.2618
C31 C 0.2509(4) -0.1443(4) 0.4854(4)
H18 H 0.2041 -0.1229 0.4939
H19 H 0.2717 -0.1169 0.4531
C32 C 0.3063(4) -0.1447(4) 0.5482(4)
C33 C 0.3845(4) -0.1338(4) 0.5436(4)
C34 C 0.4153(5) -0.1325(5) 0.4845(4)
H20 H 0.3835 -0.1391 0.4448
C35 C 0.4894(5) -0.1218(6) 0.4841(4)
H21 H 0.5078 -0.1231 0.4440
C36 C 0.5415(5) -0.1086(6) 0.5428(5)
H22 H 0.5920 -0.0975 0.5409
C37 C 0.5150(5) -0.1128(5) 0.6008(4)
H23 H 0.5489 -0.1081 0.6397
C38 C 0.4366(4) -0.1243(4) 0.6045(4)
C39 C 0.4093(5) -0.1264(5) 0.6640(4)
H24 H 0.4432 -0.1203 0.7026
C40 C 0.3315(4) -0.1374(4) 0.6684(3)
C41 C 0.3049(4) -0.1385(4) 0.7299(4)
H25 H 0.3388 -0.1317 0.7684
C42 C 0.2307(5) -0.1493(4) 0.7331(4)
H26 H 0.2133 -0.1485 0.7737
C43 C 0.1802(5) -0.1617(4) 0.6757(4)
H27 H 0.1295 -0.1713 0.6785
C44 C 0.2039(4) -0.1599(4) 0.6157(3)
H28 H 0.1685 -0.1665 0.5780
C45 C 0.2810(4) -0.1484(4) 0.6086(4)
C46 C 0.1248(4) 0.0374(4) 0.1994(3)
C47 C 0.1686(4) 0.0256(4) 0.1430(3)
C48 C 0.1307(4) 0.0188(4) 0.0788(4)
H29 H 0.0779 0.0208 0.0699
C49 C 0.1735(5) 0.0090(4) 0.0291(4)
C50 C 0.2514(4) 0.0029(4) 0.0417(3)
H30 H 0.2787 -0.0048 0.0071
C51 C 0.2896(4) 0.0081(3) 0.1052(3)
C52 C 0.2458(4) 0.0208(3) 0.1563(3)
H31 H 0.2700 0.0259 0.1995
C53 C 0.4136(4) -0.0162(4) 0.0681(3)
H32 H 0.4053 0.0160 0.0320
H33 H 0.3958 -0.0600 0.0511
C54 C 0.4975(4) -0.0203(4) 0.0930(3)
C55 C 0.5463(5) 0.0345(4) 0.0903(4)
C56 C 0.5205(4) 0.0977(5) 0.0675(4)
H34 H 0.4686 0.1043 0.0553
C57 C 0.5698(5) 0.1520(5) 0.0622(4)
H35 H 0.5511 0.1932 0.0449
C58 C 0.6486(5) 0.1429(5) 0.0836(4)
H36 H 0.6816 0.1790 0.0813
C59 C 0.6765(5) 0.0832(5) 0.1071(4)
H37 H 0.7285 0.0785 0.1207
C60 C 0.6267(4) 0.0262(5) 0.1114(4)
C61 C 0.6557(5) -0.0364(5) 0.1345(4)
H38 H 0.7076 -0.0413 0.1487
C62 C 0.6075(5) -0.0914(5) 0.1364(4)
C63 C 0.6377(5) -0.1575(5) 0.1579(4)
H39 H 0.6896 -0.1631 0.1717
C64 C 0.5887(6) -0.2124(5) 0.1577(5)
H40 H 0.6086 -0.2550 0.1694
C65 C 0.5099(5) -0.2048(5) 0.1403(4)
H41 H 0.4779 -0.2416 0.1424
C66 C 0.4803(5) -0.1435(4) 0.1202(4)
H42 H 0.4279 -0.1398 0.1085
C67 C 0.5266(4) -0.0837(5) 0.1163(4)
C68 C 0.0581(4) -0.3513(4) 0.3031(4)
C69 C 0.1367(4) 0.0092(4) -0.0416(4)
N1 N -0.3653(3) -0.0519(4) 0.3815(3)
N2 N 0.2327(3) -0.2124(3) 0.4572(3)
N3 N 0.3696(3) 0.0045(4) 0.1196(3)
O16 O 0.0076(9) -0.0973(6) 0.1234(6)
H43 H 0.241(4) -0.250(2) 0.482(3)
H44 H 0.389(3) -0.003(3) 0.158(3)
H45 H -0.3726(14) -0.0116(17) 0.399(2)
Gd1A Gd -0.062228(19) -0.429097(18) 0.173448(16)
Gd1B Gd -0.062228(19) -0.070903(18) 0.673448(16)
Gd2A Gd 0.06642(2) -0.521254(19) 0.327984(17)
Gd2B Gd 0.06642(2) 0.021254(19) -0.172016(17)
O3B O 0.0655(3) 0.0146(2) 0.4405(2)
O4B O 0.1701(3) 0.0607(3) 0.4141(2)
O9A O -0.0898(3) 0.0959(3) 0.1723(2)
O10A O -0.0050(3) 0.1460(2) 0.2481(2)
O11B O -0.1769(3) -0.0118(3) 0.0867(2)
O15B O -0.0654(3) -0.0064(4) 0.0561(3)
loop_
_geom_bond_atom_site_label_1
_geom_bond_atom_site_label_2
_geom_bond_site_symmetry_1
_geom_bond_site_symmetry_2
Gd1 O2 1_555 1_555
Gd2 O1 1_555 1_555
O1 C1 1_555 1_555
O2 C1 1_555 1_555
O3 C5 1_555 1_555
O4 C5 1_555 1_555
O5 Gd2 1_555 1_555
O6 Gd1 1_555 1_555
O7 Gd1 1_555 1_555
O8 Gd1 1_555 1_555
O9 C68 1_555 1_555
O10 C68 1_555 1_555
O11 C69 1_555 1_555
O12 Gd2 1_555 1_555
O13 Gd1 1_555 1_555
O14 Gd1 1_555 1_555
O15 C69 1_555 1_555
C1 C2 1_555 1_555
C2 C3 1_555 1_555
C3 H1 1_555 1_555
C4 C3 1_555 1_555
C5 C4 1_555 1_555
C6 C4 1_555 1_555
H2 C6 1_555 1_555
C7 C6 1_555 1_555
C8 C2 1_555 1_555
H3 C8 1_555 1_555
C9 H4 1_555 1_555
H5 C9 1_555 1_555
C10 C9 1_555 1_555
C11 C10 1_555 1_555
C12 C11 1_555 1_555
H6 C12 1_555 1_555
C13 C12 1_555 1_555
H7 C13 1_555 1_555
C14 C13 1_555 1_555
H8 C14 1_555 1_555
C15 C14 1_555 1_555
H9 C15 1_555 1_555
C16 C11 1_555 1_555
C17 C16 1_555 1_555
H10 C17 1_555 1_555
C18 C17 1_555 1_555
C19 C18 1_555 1_555
H11 C19 1_555 1_555
C20 C19 1_555 1_555
H12 C20 1_555 1_555
C21 C20 1_555 1_555
H13 C21 1_555 1_555
C22 C21 1_555 1_555
H14 C22 1_555 1_555
C23 C10 1_555 1_555
C24 O5 1_555 1_555
C25 C24 1_555 1_555
C26 C25 1_555 1_555
H15 C26 1_555 1_555
C27 C26 1_555 1_555
C28 C27 1_555 1_555
H16 C28 1_555 1_555
C29 C28 1_555 1_555
C30 C25 1_555 1_555
H17 C30 1_555 1_555
C31 H18 1_555 1_555
H19 C31 1_555 1_555
C32 C31 1_555 1_555
C33 C32 1_555 1_555
C34 C33 1_555 1_555
H20 C34 1_555 1_555
C35 C34 1_555 1_555
H21 C35 1_555 1_555
C36 C35 1_555 1_555
H22 C36 1_555 1_555
C37 C36 1_555 1_555
H23 C37 1_555 1_555
C38 C33 1_555 1_555
C39 C38 1_555 1_555
H24 C39 1_555 1_555
C40 C39 1_555 1_555
C41 C40 1_555 1_555
H25 C41 1_555 1_555
C42 C41 1_555 1_555
H26 C42 1_555 1_555
C43 C42 1_555 1_555
H27 C43 1_555 1_555
C44 C43 1_555 1_555
H28 C44 1_555 1_555
C45 C32 1_555 1_555
C46 O7 1_555 1_555
C47 C46 1_555 1_555
C48 C47 1_555 1_555
H29 C48 1_555 1_555
C49 C48 1_555 1_555
C50 C49 1_555 1_555
H30 C50 1_555 1_555
C51 C50 1_555 1_555
C52 C47 1_555 1_555
H31 C52 1_555 1_555
C53 H32 1_555 1_555
H33 C53 1_555 1_555
C54 C53 1_555 1_555
C55 C54 1_555 1_555
C56 C55 1_555 1_555
H34 C56 1_555 1_555
C57 C56 1_555 1_555
H35 C57 1_555 1_555
C58 C57 1_555 1_555
H36 C58 1_555 1_555
C59 C58 1_555 1_555
H37 C59 1_555 1_555
C60 C55 1_555 1_555
C61 C60 1_555 1_555
H38 C61 1_555 1_555
C62 C61 1_555 1_555
C63 C62 1_555 1_555
H39 C63 1_555 1_555
C64 C63 1_555 1_555
H40 C64 1_555 1_555
C65 C64 1_555 1_555
H41 C65 1_555 1_555
C66 C65 1_555 1_555
H42 C66 1_555 1_555
C67 C54 1_555 1_555
C68 C29 1_555 1_555
C69 C49 1_555 1_555
N1 C7 1_555 1_555
N2 C27 1_555 1_555
N3 C51 1_555 1_555
O16 Gd2 1_555 1_555
H43 N2 1_555 1_555
H44 N3 1_555 1_555
H45 N1 1_555 1_555
Gd1A O10 1_555 1_555
Gd1B O3 1_555 1_555
Gd2A O9 1_555 1_555
Gd2B O11 1_555 1_555
O3B Gd1 1_555 1_555
O4B Gd1 1_555 1_555
O9A Gd2 1_555 1_555
O10A Gd1 1_555 1_555
O11B Gd2 1_555 1_555
O15B Gd2 1_555 1_555
Gd2 O7 1_555 1_555
O4 Gd1B 1_555 1_555
O6 C24 1_555 1_555
O8 C46 1_555 1_555
O15 Gd2B 1_555 1_555
C7 C8 1_555 1_555
C9 N1 1_555 1_555
C15 C16 1_555 1_555
C18 C23 1_555 1_555
C22 C23 1_555 1_555
C29 C30 1_555 1_555
C31 N2 1_555 1_555
C37 C38 1_555 1_555
C40 C45 1_555 1_555
C44 C45 1_555 1_555
C51 C52 1_555 1_555
C53 N3 1_555 1_555
C59 C60 1_555 1_555
C62 C67 1_555 1_555
C66 C67 1_555 1_555

#END
