
#######################################################################
#
#                 Cambridge Crystallographic Data Centre
#                                CCDC 
#
#######################################################################
#
# If this CIF has been generated from an entry in the Cambridge 
# Structural Database, then it will include bibliographic, chemical, 
# crystal, experimental, refinement or atomic coordinate data resulting 
# from the CCDC's data processing and validation procedures.
#
#######################################################################

data_VOLTIB
_symmetry_cell_setting           monoclinic
_symmetry_space_group_name_H-M   'P 21/c'
_symmetry_Int_Tables_number      14
_space_group_name_Hall           '-P 2ybc'
loop_
_symmetry_equiv_pos_site_id
_symmetry_equiv_pos_as_xyz
1 x,y,z
2 -x,1/2+y,1/2-z
3 -x,-y,-z
4 x,1/2-y,1/2+z
_cell_length_a                   25.571(5)
_cell_length_b                   10.862(5)
_cell_length_c                   16.025(5)
_cell_angle_alpha                90
_cell_angle_beta                 105.819(5)
_cell_angle_gamma                90
_cell_volume                     4282.41
loop_
_atom_site_label
_atom_site_type_symbol
_atom_site_fract_x
_atom_site_fract_y
_atom_site_fract_z
Gd1 Gd 0.525735(9) 0.00326(3) 0.175980(15)
O1 O 0.49672(14) 0.2066(3) 0.1589(2)
O2 O 0.46110(15) 0.3684(3) 0.2076(2)
O3 O 0.40668(15) 0.1360(3) -0.1649(2)
O4 O 0.31991(14) 0.0785(3) -0.1864(2)
O5 O 0.47516(14) -0.0973(3) 0.0579(2)
O6 O 0.42710(14) -0.0873(3) -0.0812(2)
O7 O 0.31312(15) -0.4048(3) 0.2151(2)
O8 O 0.40197(15) -0.4016(3) 0.2276(2)
O9 O 0.44206(15) 0.0118(4) 0.2147(2)
N1 N 0.2574(2) 0.2874(5) 0.0455(3)
N2 N 0.2337(2) -0.1789(5) -0.0679(3)
N3 N 0.3745(2) -0.0306(5) 0.2776(4)
C1 C 0.4585(2) 0.2809(5) 0.1554(3)
C2 C 0.4067(2) 0.2644(5) 0.0842(3)
C3 C 0.3573(2) 0.2976(5) 0.0955(4)
H1 H 0.3559 0.3389 0.1457
C4 C 0.3086(2) 0.2700(5) 0.0320(4)
C5 C 0.3122(2) 0.2140(5) -0.0443(3)
H2 H 0.2804 0.1939 -0.0865
C6 C 0.3616(2) 0.1877(4) -0.0589(3)
C7 C 0.4098(2) 0.2106(5) 0.0059(3)
H3 H 0.4433 0.1905 -0.0027
C8 C 0.3636(2) 0.1307(5) -0.1419(3)
C9 C 0.2474(2) 0.3867(5) 0.1007(4)
H4 H 0.2621 0.4634 0.0858
H5 H 0.2651 0.3684 0.1610
C10 C 0.1872(2) 0.3992(5) 0.0876(4)
C11 C 0.1562(2) 0.4569(5) 0.0113(4)
C12 C 0.1799(3) 0.5142(5) -0.0512(4)
H6 H 0.2174 0.5140 -0.0413
C13 C 0.1487(3) 0.5680(5) -0.1233(4)
H7 H 0.1653 0.6051 -0.1617
C14 C 0.0916(3) 0.5697(6) -0.1423(4)
H8 H 0.0709 0.6066 -0.1929
C15 C 0.0674(3) 0.5169(6) -0.0861(4)
H9 H 0.0297 0.5186 -0.0986
C16 C 0.0979(3) 0.4590(5) -0.0086(4)
C17 C 0.0735(2) 0.4032(6) 0.0492(4)
H10 H 0.0357 0.4015 0.0357
C18 C 0.1033(2) 0.3495(5) 0.1265(4)
C19 C 0.0767(3) 0.2943(6) 0.1854(4)
H11 H 0.0390 0.2965 0.1728
C20 C 0.1056(3) 0.2396(6) 0.2585(4)
H12 H 0.0879 0.2043 0.2961
C21 C 0.1636(3) 0.2356(6) 0.2784(4)
H13 H 0.1834 0.1973 0.3291
C22 C 0.1901(2) 0.2868(5) 0.2246(4)
H14 H 0.2278 0.2831 0.2392
C23 C 0.1616(2) 0.3462(5) 0.1459(4)
C24 C 0.4318(2) -0.1122(4) -0.0031(3)
C25 C 0.3832(2) -0.1650(4) 0.0201(3)
C26 C 0.3311(2) -0.1460(5) -0.0342(3)
H15 H 0.3266 -0.0999 -0.0846
C27 C 0.2858(2) -0.1944(5) -0.0144(4)
C28 C 0.2937(2) -0.2666(5) 0.0606(3)
H16 H 0.2639 -0.3013 0.0746
C29 C 0.3453(2) -0.2867(5) 0.1138(3)
C30 C 0.3900(2) -0.2348(5) 0.0943(3)
H17 H 0.4247 -0.2471 0.1311
C31 C 0.3551(2) -0.3702(4) 0.1911(3)
C32 C 0.2211(2) -0.0941(5) -0.1411(4)
H18 H 0.2388 -0.1208 -0.1843
H19 H 0.2341 -0.0122 -0.1218
C33 C 0.1602(2) -0.0922(5) -0.1796(4)
C34 C 0.1282(2) -0.0359(5) -0.1312(4)
C35 C 0.1514(3) 0.0277(5) -0.0510(4)
H20 H 0.1890 0.0325 -0.0293
C36 C 0.1192(3) 0.0807(6) -0.0070(5)
H21 H 0.1351 0.1218 0.0446
C37 C 0.0622(3) 0.0753(6) -0.0369(5)
H22 H 0.0409 0.1129 -0.0055
C38 C 0.0382(3) 0.0149(6) -0.1121(5)
H23 H 0.0005 0.0103 -0.1312
C39 C 0.0701(3) -0.0409(5) -0.1614(4)
C40 C 0.0467(3) -0.1020(6) -0.2388(4)
H24 H 0.0090 -0.1075 -0.2581
C41 C 0.0779(3) -0.1557(5) -0.2885(4)
C42 C 0.0527(3) -0.2185(6) -0.3679(4)
H25 H 0.0150 -0.2224 -0.3870
C43 C 0.0824(3) -0.2718(6) -0.4153(4)
H26 H 0.0652 -0.3118 -0.4667
C44 C 0.1401(3) -0.2671(6) -0.3868(4)
H27 H 0.1606 -0.3042 -0.4197
C45 C 0.1657(3) -0.2086(6) -0.3117(4)
H28 H 0.2035 -0.2061 -0.2943
C46 C 0.1358(2) -0.1508(5) -0.2585(4)
C47 C 0.4219(3) -0.0506(6) 0.2634(5)
H29 H 0.4421 -0.1168 0.2920
C48 C 0.3593(4) -0.1090(7) 0.3417(5)
H30 H 0.3865 -0.1724 0.3615
H31 H 0.3248 -0.1490 0.3153
C49 C 0.3545(6) -0.0320(8) 0.4183(7)
H32 H 0.3445 -0.0840 0.4599
H33 H 0.3272 0.0301 0.3986
H34 H 0.3888 0.0065 0.4448
C50 C 0.3379(4) 0.0638(8) 0.2335(7)
H35 H 0.3561 0.1124 0.1990
H36 H 0.3299 0.1180 0.2766
C51 C 0.2851(5) 0.0166(10) 0.1753(8)
H37 H 0.2630 0.0849 0.1484
H38 H 0.2662 -0.0297 0.2090
H39 H 0.2924 -0.0353 0.1313
H40 H 0.2296(17) 0.282(5) -0.007(2)
H41 H 0.208(2) -0.218(6) -0.052(4)
Gd1A Gd 0.474265(9) -0.49674(3) 0.324020(15)
Gd1A_2 Gd 0.474265(9) 0.50326(3) 0.324020(15)
Gd1B Gd 0.474265(9) -0.00326(3) -0.175980(15)
O2A O 0.53890(15) -0.1316(3) 0.2924(2)
O3B O 0.59332(15) -0.1360(3) 0.1649(2)
O6B O 0.57290(14) 0.0873(3) 0.0812(2)
O8A O 0.59803(15) 0.0984(3) 0.2724(2)
loop_
_geom_bond_atom_site_label_1
_geom_bond_atom_site_label_2
_geom_bond_site_symmetry_1
_geom_bond_site_symmetry_2
Gd1 O1 1_555 1_555
O1 C1 1_555 1_555
O2 C1 1_555 1_555
O3 C8 1_555 1_555
O4 C8 1_555 1_555
O5 Gd1 1_555 1_555
O6 C24 1_555 1_555
O7 C31 1_555 1_555
O8 C31 1_555 1_555
O9 Gd1 1_555 1_555
N1 C4 1_555 1_555
N2 C27 1_555 1_555
N3 C47 1_555 1_555
C1 C2 1_555 1_555
C2 C3 1_555 1_555
C3 H1 1_555 1_555
C4 C3 1_555 1_555
C5 C4 1_555 1_555
H2 C5 1_555 1_555
C6 C5 1_555 1_555
C7 C2 1_555 1_555
H3 C7 1_555 1_555
C8 C6 1_555 1_555
C9 N1 1_555 1_555
H4 C9 1_555 1_555
H5 C9 1_555 1_555
C10 C9 1_555 1_555
C11 C10 1_555 1_555
C12 C11 1_555 1_555
H6 C12 1_555 1_555
C13 C12 1_555 1_555
H7 C13 1_555 1_555
C14 C13 1_555 1_555
H8 C14 1_555 1_555
C15 C14 1_555 1_555
H9 C15 1_555 1_555
C16 C11 1_555 1_555
C17 C16 1_555 1_555
H10 C17 1_555 1_555
C18 C17 1_555 1_555
C19 C18 1_555 1_555
H11 C19 1_555 1_555
C20 C19 1_555 1_555
H12 C20 1_555 1_555
C21 C20 1_555 1_555
H13 C21 1_555 1_555
C22 C21 1_555 1_555
H14 C22 1_555 1_555
C23 C10 1_555 1_555
C24 O5 1_555 1_555
C25 C24 1_555 1_555
C26 C25 1_555 1_555
H15 C26 1_555 1_555
C27 C26 1_555 1_555
C28 C27 1_555 1_555
H16 C28 1_555 1_555
C29 C28 1_555 1_555
C30 C25 1_555 1_555
H17 C30 1_555 1_555
C31 C29 1_555 1_555
C32 N2 1_555 1_555
H18 C32 1_555 1_555
H19 C32 1_555 1_555
C33 C32 1_555 1_555
C34 C33 1_555 1_555
C35 C34 1_555 1_555
H20 C35 1_555 1_555
C36 C35 1_555 1_555
H21 C36 1_555 1_555
C37 C36 1_555 1_555
H22 C37 1_555 1_555
C38 C37 1_555 1_555
H23 C38 1_555 1_555
C39 C34 1_555 1_555
C40 C39 1_555 1_555
H24 C40 1_555 1_555
C41 C40 1_555 1_555
C42 C41 1_555 1_555
H25 C42 1_555 1_555
C43 C42 1_555 1_555
H26 C43 1_555 1_555
C44 C43 1_555 1_555
H27 C44 1_555 1_555
C45 C44 1_555 1_555
H28 C45 1_555 1_555
C46 C33 1_555 1_555
C47 O9 1_555 1_555
H29 C47 1_555 1_555
C48 N3 1_555 1_555
H30 C48 1_555 1_555
H31 C48 1_555 1_555
C49 C48 1_555 1_555
H32 C49 1_555 1_555
H33 C49 1_555 1_555
H34 C49 1_555 1_555
C50 N3 1_555 1_555
H35 C50 1_555 1_555
H36 C50 1_555 1_555
C51 C50 1_555 1_555
H37 C51 1_555 1_555
H38 C51 1_555 1_555
H39 C51 1_555 1_555
H40 N1 1_555 1_555
H41 N2 1_555 1_555
Gd1A O8 1_555 1_555
Gd1A_2 O2 1_555 1_555
Gd1B O3 1_555 1_555
O2A Gd1 1_555 1_555
O3B Gd1 1_555 1_555
O6B Gd1 1_555 1_555
O8A Gd1 1_555 1_555
O6 Gd1B 1_555 1_555
C6 C7 1_555 1_555
C15 C16 1_555 1_555
C18 C23 1_555 1_555
C22 C23 1_555 1_555
C29 C30 1_555 1_555
C38 C39 1_555 1_555
C41 C46 1_555 1_555
C45 C46 1_555 1_555

#END
