
#######################################################################
#
#                 Cambridge Crystallographic Data Centre
#                                CCDC 
#
#######################################################################
#
# If this CIF has been generated from an entry in the Cambridge 
# Structural Database, then it will include bibliographic, chemical, 
# crystal, experimental, refinement or atomic coordinate data resulting 
# from the CCDC's data processing and validation procedures.
#
#######################################################################

data_VOLTAT
_symmetry_cell_setting           triclinic
_symmetry_space_group_name_H-M   'P -1'
_symmetry_Int_Tables_number      2
_space_group_name_Hall           '-P 1'
loop_
_symmetry_equiv_pos_site_id
_symmetry_equiv_pos_as_xyz
1 x,y,z
2 -x,-y,-z
_cell_length_a                   15.418(5)
_cell_length_b                   16.274(5)
_cell_length_c                   17.876(5)
_cell_angle_alpha                109.838(5)
_cell_angle_beta                 93.621(5)
_cell_angle_gamma                111.141(5)
_cell_volume                     3846.15
loop_
_atom_site_label
_atom_site_type_symbol
_atom_site_fract_x
_atom_site_fract_y
_atom_site_fract_z
C1 C -0.0378(6) 0.0807(7) 0.3980(6)
C2 C -0.0847(6) -0.0178(7) 0.3362(6)
C3 C -0.1171(7) -0.0966(7) 0.3582(6)
H1 H -0.1009 -0.0891 0.4118
C4 C -0.1733(7) -0.1855(7) 0.2993(6)
C5 C -0.1936(7) -0.1982(8) 0.2190(7)
H2 H -0.2332 -0.2582 0.1802
C6 C -0.1543(8) -0.1203(7) 0.1959(6)
C7 C -0.1038(7) -0.0305(7) 0.2552(6)
H3 H -0.0821 0.0222 0.2410
C8 C -0.2126(7) -0.2708(7) 0.3205(6)
C9 C -0.1109(9) -0.0671(8) 0.0838(7)
H4 H -0.0489 -0.0696 0.0861
H5 H -0.1023 -0.0031 0.1187
C10 C -0.1540(8) -0.0885(8) -0.0034(7)
C11 C -0.2321(8) -0.0668(7) -0.0155(7)
C12 C -0.2725(9) -0.0289(9) 0.0504(8)
H6 H -0.2487 -0.0198 0.1031
C13 C -0.3485(9) -0.0059(8) 0.0343(8)
H7 H -0.3741 0.0200 0.0774
C14 C -0.3875(10) -0.0202(9) -0.0440(9)
H8 H -0.4376 -0.0032 -0.0524
C15 C -0.3525(8) -0.0586(9) -0.1070(8)
H9 H -0.3816 -0.0720 -0.1595
C16 C -0.2696(9) -0.0796(8) -0.0951(8)
C17 C -0.2285(8) -0.1138(8) -0.1587(7)
H10 H -0.2552 -0.1239 -0.2108
C18 C -0.1483(9) -0.1341(8) -0.1481(7)
C19 C -0.1030(8) -0.1641(8) -0.2125(7)
H11 H -0.1261 -0.1698 -0.2642
C20 C -0.0274(9) -0.1846(8) -0.2004(8)
H12 H 0.0026 -0.2024 -0.2428
C21 C 0.0055(9) -0.1788(8) -0.1233(7)
H13 H 0.0552 -0.1969 -0.1163
C22 C -0.0322(8) -0.1480(8) -0.0584(7)
H14 H -0.0069 -0.1432 -0.0078
C23 C -0.1111(7) -0.1226(7) -0.0677(6)
C24 C 0.7536(7) 0.7471(8) 0.5550(7)
C25 C 0.1607(7) 0.4754(7) 0.6650(6)
C26 C 0.0884(7) 0.5172(7) 0.6804(6)
C27 C 0.0548(8) 0.5232(7) 0.7516(7)
H15 H 0.0777 0.5020 0.7875
C28 C -0.0145(7) 0.5616(7) 0.7698(6)
C29 C -0.0458(7) 0.5918(7) 0.7137(6)
H16 H -0.0928 0.6149 0.7230
C30 C -0.0097(7) 0.5887(7) 0.6444(6)
C31 C 0.0563(7) 0.5495(6) 0.6263(6)
H17 H 0.0789 0.5448 0.5786
C32 C -0.0374(7) 0.6340(8) 0.5920(7)
C33 C -0.0042(8) 0.5537(8) 0.9046(6)
H18 H 0.0640 0.5892 0.9147
H19 H -0.0171 0.4865 0.8881
C34 C -0.0388(7) 0.5866(8) 0.9820(7)
C35 C 0.0109(7) 0.6783(8) 1.0398(7)
C36 C 0.0941(8) 0.7495(9) 1.0322(8)
H20 H 0.1183 0.7326 0.9857
C37 C 0.1394(8) 0.8397(9) 1.0887(9)
H21 H 0.1934 0.8829 1.0810
C38 C 0.1035(9) 0.8675(9) 1.1596(9)
H22 H 0.1327 0.9302 1.1975
C39 C 0.0275(9) 0.8044(9) 1.1733(8)
H23 H 0.0072 0.8234 1.2217
C40 C -0.0220(8) 0.7091(8) 1.1146(7)
C41 C -0.1020(8) 0.6429(8) 1.1267(7)
H24 H -0.1198 0.6609 1.1765
C42 C -0.1572(8) 0.5503(8) 1.0673(7)
C43 C -0.2391(8) 0.4878(8) 1.0802(7)
H25 H -0.2594 0.5060 1.1288
C44 C -0.2884(9) 0.3996(8) 1.0201(8)
H26 H -0.3413 0.3571 1.0298
C45 C -0.2633(9) 0.3688(9) 0.9429(8)
H27 H -0.3016 0.3098 0.9019
C46 C -0.1810(8) 0.4287(7) 0.9306(7)
H28 H -0.1613 0.4087 0.8820
C47 C -0.1251(7) 0.5221(7) 0.9927(6)
C48 C 0.4386(7) 0.5867(7) 0.6160(6)
C49 C 0.5178(7) 0.6756(7) 0.6184(6)
C50 C 0.5135(7) 0.7654(7) 0.6556(6)
H29 H 0.4604 0.7687 0.6761
C51 C 0.5873(7) 0.8479(7) 0.6617(7)
C52 C 0.6651(7) 0.8426(7) 0.6306(7)
H30 H 0.7159 0.8981 0.6355
C53 C 0.6676(8) 0.7529(7) 0.5914(6)
C54 C 0.5945(7) 0.6689(7) 0.5841(7)
H31 H 0.5966 0.6099 0.5572
C55 C 0.6520(8) 1.0294(7) 0.7113(7)
H32 H 0.6928 1.0230 0.6725
H33 H 0.6912 1.0585 0.7657
C56 C 0.6036(7) 1.0920(7) 0.7008(7)
C57 C 0.5964(8) 1.1051(7) 0.6273(7)
C58 C 0.6370(9) 1.0673(8) 0.5602(8)
H34 H 0.6659 1.0269 0.5630
C59 C 0.6346(10) 1.0885(10) 0.4929(8)
H35 H 0.6645 1.0656 0.4521
C60 C 0.5865(9) 1.1456(9) 0.4851(8)
H36 H 0.5832 1.1581 0.4382
C61 C 0.5451(8) 1.1821(8) 0.5449(8)
H37 H 0.5155 1.2208 0.5387
C62 C 0.5457(8) 1.1628(8) 0.6178(8)
C63 C 0.5043(9) 1.2000(8) 0.6825(8)
H38 H 0.4712 1.2357 0.6757
C64 C 0.5095(8) 1.1872(8) 0.7535(8)
C65 C 0.4653(10) 1.2210(10) 0.8142(9)
H39 H 0.4341 1.2583 0.8078
C66 C 0.4650(10) 1.2024(10) 0.8829(9)
H40 H 0.4317 1.2241 0.9211
C67 C 0.5159(9) 1.1499(9) 0.8952(9)
H41 H 0.5174 1.1378 0.9424
C68 C 0.5631(8) 1.1167(8) 0.8378(7)
H42 H 0.5981 1.0840 0.8478
C69 C 0.5604(8) 1.1307(8) 0.7633(7)
C70 C -0.0883(7) 0.3079(7) 0.5914(6)
H43 H -0.0966 0.3360 0.5556
C71 C -0.1326(9) 0.2620(9) 0.7039(8)
H44 H -0.1769 0.2669 0.7389
H45 H -0.0690 0.2948 0.7361
H46 H -0.1456 0.1958 0.6748
C72 C -0.2116(8) 0.3481(8) 0.6521(8)
H47 H -0.2441 0.3396 0.6948
H48 H -0.2569 0.3178 0.6014
H49 H -0.1792 0.4151 0.6640
N1 N -0.1727(7) -0.1365(6) 0.1137(5)
N2 N -0.0503(6) 0.5676(6) 0.8391(5)
N3 N 0.5782(6) 0.9331(6) 0.6979(6)
N4 N -0.1425(7) 0.3051(7) 0.6463(6)
O1 O -0.0055(5) 0.0975(5) 0.4718(4)
O2 O -0.0300(5) 0.1494(5) 0.3775(4)
O3 O -0.1784(5) -0.2712(5) 0.3882(4)
O4 O -0.2849(5) -0.3421(5) 0.2721(4)
O5 O 0.8294(5) 0.8186(5) 0.5773(4)
O6 O 0.7435(5) 0.6648(5) 0.5016(4)
O7 O 0.1670(5) 0.4345(5) 0.5909(4)
O8 O -0.0261(5) 0.2739(5) 0.5861(4)
O9 O 0.0122(5) 0.6533(5) 0.5425(4)
O10 O -0.1107(5) 0.6513(5) 0.5980(4)
O11 O 0.2181(5) 0.4857(5) 0.7229(4)
O12 O 0.3654(5) 0.5881(5) 0.6391(5)
O13 O 0.4516(5) 0.5101(5) 0.5908(5)
O14 O 0.4424(6) 0.5201(6) 0.7566(5)
O15 O 0.4029(5) 0.3257(5) 0.6101(5)
Gd1 Gd 0.08124(3) 0.27006(3) 0.49861(3)
Gd2 Gd 0.31794(3) 0.42723(3) 0.63895(3)
C73 C 0.5068(14) 0.4969(13) 0.7802(12)
H50 H 0.4889 0.4324 0.7698
N5 N 0.5951(13) 0.5537(13) 0.8172(15)
C74 C 0.662(2) 0.519(3) 0.847(2)
H51 H 0.7254 0.5684 0.8639
H52 H 0.6610 0.4637 0.8032
H53 H 0.6434 0.5021 0.8914
C75 C 0.622(3) 0.6565(16) 0.843(3)
H54 H 0.6882 0.6902 0.8690
H55 H 0.5847 0.6757 0.8812
H56 H 0.6105 0.6710 0.7969
H57 H -0.193(6) -0.193(7) 0.080(6)
H58 H -0.090(5) 0.600(5) 0.857(5)
H59 H 0.511(2) 0.898(6) 0.690(7)
O3A O 0.1784(5) 0.2712(5) 0.6118(4)
O4A O 0.2849(5) 0.3421(5) 0.7279(4)
O5A O 0.1706(5) 0.1814(5) 0.4227(4)
O6A O 0.2565(5) 0.3352(5) 0.4984(4)
O9A O -0.0122(5) 0.3467(5) 0.4575(4)
O10A O 0.1107(5) 0.3487(5) 0.4020(4)
Gd1A Gd -0.08124(3) -0.27006(3) 0.50139(3)
Gd1A_2 Gd -0.08124(3) 0.72994(3) 0.50139(3)
Gd1A_3 Gd 0.91876(3) 0.72994(3) 0.50139(3)
Gd2A Gd -0.31794(3) -0.42723(3) 0.36105(3)
Gd2A_2 Gd 0.68206(3) 0.57277(3) 0.36105(3)
loop_
_geom_bond_atom_site_label_1
_geom_bond_atom_site_label_2
_geom_bond_site_symmetry_1
_geom_bond_site_symmetry_2
C1 C2 1_555 1_555
C2 C3 1_555 1_555
C3 H1 1_555 1_555
C4 C3 1_555 1_555
C5 C4 1_555 1_555
H2 C5 1_555 1_555
C6 C5 1_555 1_555
C7 C2 1_555 1_555
H3 C7 1_555 1_555
C8 C4 1_555 1_555
C9 H4 1_555 1_555
H5 C9 1_555 1_555
C10 C9 1_555 1_555
C11 C10 1_555 1_555
C12 C11 1_555 1_555
H6 C12 1_555 1_555
C13 C12 1_555 1_555
H7 C13 1_555 1_555
C14 C13 1_555 1_555
H8 C14 1_555 1_555
C15 C14 1_555 1_555
H9 C15 1_555 1_555
C16 C11 1_555 1_555
C17 C16 1_555 1_555
H10 C17 1_555 1_555
C18 C17 1_555 1_555
C19 C18 1_555 1_555
H11 C19 1_555 1_555
C20 C19 1_555 1_555
H12 C20 1_555 1_555
C21 C20 1_555 1_555
H13 C21 1_555 1_555
C22 C21 1_555 1_555
H14 C22 1_555 1_555
C23 C10 1_555 1_555
C24 C53 1_555 1_555
C25 C26 1_555 1_555
C26 C27 1_555 1_555
C27 H15 1_555 1_555
C28 C27 1_555 1_555
C29 C28 1_555 1_555
H16 C29 1_555 1_555
C30 C29 1_555 1_555
C31 C26 1_555 1_555
H17 C31 1_555 1_555
C32 C30 1_555 1_555
C33 H18 1_555 1_555
H19 C33 1_555 1_555
C34 C33 1_555 1_555
C35 C34 1_555 1_555
C36 C35 1_555 1_555
H20 C36 1_555 1_555
C37 C36 1_555 1_555
H21 C37 1_555 1_555
C38 C37 1_555 1_555
H22 C38 1_555 1_555
C39 C38 1_555 1_555
H23 C39 1_555 1_555
C40 C35 1_555 1_555
C41 C40 1_555 1_555
H24 C41 1_555 1_555
C42 C41 1_555 1_555
C43 C42 1_555 1_555
H25 C43 1_555 1_555
C44 C43 1_555 1_555
H26 C44 1_555 1_555
C45 C44 1_555 1_555
H27 C45 1_555 1_555
C46 C45 1_555 1_555
H28 C46 1_555 1_555
C47 C34 1_555 1_555
C48 C49 1_555 1_555
C49 C50 1_555 1_555
C50 H29 1_555 1_555
C51 C50 1_555 1_555
C52 C51 1_555 1_555
H30 C52 1_555 1_555
C53 C52 1_555 1_555
C54 C49 1_555 1_555
H31 C54 1_555 1_555
C55 H32 1_555 1_555
H33 C55 1_555 1_555
C56 C55 1_555 1_555
C57 C56 1_555 1_555
C58 C57 1_555 1_555
H34 C58 1_555 1_555
C59 C58 1_555 1_555
H35 C59 1_555 1_555
C60 C59 1_555 1_555
H36 C60 1_555 1_555
C61 C60 1_555 1_555
H37 C61 1_555 1_555
C62 C57 1_555 1_555
C63 C62 1_555 1_555
H38 C63 1_555 1_555
C64 C63 1_555 1_555
C65 C64 1_555 1_555
H39 C65 1_555 1_555
C66 C65 1_555 1_555
H40 C66 1_555 1_555
C67 C66 1_555 1_555
H41 C67 1_555 1_555
C68 C67 1_555 1_555
H42 C68 1_555 1_555
C69 C56 1_555 1_555
C70 H43 1_555 1_555
C71 H44 1_555 1_555
H45 C71 1_555 1_555
H46 C71 1_555 1_555
C72 H47 1_555 1_555
H48 C72 1_555 1_555
H49 C72 1_555 1_555
N1 C6 1_555 1_555
N2 C28 1_555 1_555
N3 C51 1_555 1_555
N4 C70 1_555 1_555
O1 C1 1_555 1_555
O2 C1 1_555 1_555
O3 C8 1_555 1_555
O4 C8 1_555 1_555
O5 C24 1_555 1_555
O6 C24 1_555 1_555
O7 C25 1_555 1_555
O8 C70 1_555 1_555
O9 C32 1_555 1_555
O10 C32 1_555 1_555
O11 C25 1_555 1_555
O12 C48 1_555 1_555
O13 C48 1_555 1_555
O14 Gd2 1_555 1_555
O15 Gd2 1_555 1_555
Gd1 O1 1_555 1_555
Gd2 O7 1_555 1_555
C73 O14 1_555 1_555
H50 C73 1_555 1_555
N5 C73 1_555 1_555
C74 N5 1_555 1_555
H51 C74 1_555 1_555
H52 C74 1_555 1_555
H53 C74 1_555 1_555
C75 N5 1_555 1_555
H54 C75 1_555 1_555
H55 C75 1_555 1_555
H56 C75 1_555 1_555
H57 N1 1_555 1_555
H58 N2 1_555 1_555
H59 N3 1_555 1_555
O3A Gd1 1_555 1_555
O4A Gd2 1_555 1_555
O5A Gd1 1_555 1_555
O6A Gd1 1_555 1_555
O9A Gd1 1_555 1_555
O10A Gd1 1_555 1_555
Gd1A O3 1_555 1_555
Gd1A_2 O9 1_555 1_555
Gd1A_3 O5 1_555 1_555
Gd2A O3 1_555 1_555
Gd2A_2 O6 1_555 1_555
C6 C7 1_555 1_555
C9 N1 1_555 1_555
C15 C16 1_555 1_555
C18 C23 1_555 1_555
C22 C23 1_555 1_555
C30 C31 1_555 1_555
C33 N2 1_555 1_555
C39 C40 1_555 1_555
C42 C47 1_555 1_555
C46 C47 1_555 1_555
C53 C54 1_555 1_555
C55 N3 1_555 1_555
C61 C62 1_555 1_555
C64 C69 1_555 1_555
C68 C69 1_555 1_555
C71 N4 1_555 1_555
C72 N4 1_555 1_555
O2 Gd1 1_555 1_555
O4 Gd2A 1_555 1_555
O6 Gd1A_3 1_555 1_555
O7 Gd1 1_555 1_555
O8 Gd1 1_555 1_555
O10 Gd1A_2 1_555 1_555
O11 Gd2 1_555 1_555
O12 Gd2 1_555 1_555
O13 Gd2 1_555 1_555
Gd2 O3A 1_555 1_555
Gd2 O6A 1_555 1_555

#END
