
#######################################################################
#
#                 Cambridge Crystallographic Data Centre
#                                CCDC 
#
#######################################################################
#
# If this CIF has been generated from an entry in the Cambridge 
# Structural Database, then it will include bibliographic, chemical, 
# crystal, experimental, refinement or atomic coordinate data resulting 
# from the CCDC's data processing and validation procedures.
#
#######################################################################

data_VOLZUS
_symmetry_cell_setting           triclinic
_symmetry_space_group_name_H-M   'P -1'
_symmetry_Int_Tables_number      2
_space_group_name_Hall           '-P 1'
loop_
_symmetry_equiv_pos_site_id
_symmetry_equiv_pos_as_xyz
1 x,y,z
2 -x,-y,-z
_cell_length_a                   10.1272(2)
_cell_length_b                   10.9746(2)
_cell_length_c                   9.9608(2)
_cell_angle_alpha                104.077(2)
_cell_angle_beta                 103.004(3)
_cell_angle_gamma                95.874(2)
_cell_volume                     1031.73
loop_
_atom_site_label
_atom_site_type_symbol
_atom_site_fract_x
_atom_site_fract_y
_atom_site_fract_z
C1 C 0.3732(10) 0.8180(6) 0.9836(8)
C2 C 0.3749(10) 0.8827(6) 1.1127(8)
N1 N 0.316(1) 0.9862(6) 1.0955(8)
C3 C 0.2853(10) 0.9772(6) 0.9557(8)
N2 N 0.317(1) 0.8750(6) 0.8832(8)
Mn1 Mn 0.2913(10) 0.8091(6) 0.6528(8)
C4 C 0.9288(10) 1.3582(8) 1.0615(10)
C5 C 0.9796(10) 1.253(8) 1.0549(10)
N3 N 0.9522(10) 1.1932(8) 0.9127(10)
C6 C 0.8843(10) 1.2667(8) 0.8431(10)
N4 N 0.8686(10) 1.3691(8) 0.9301(10)
Mn2 Mn 0.7681(10) 1.5236(8) 0.882(1)
C7 C 0.3026(5) 1.1168(3) 0.6455(5)
Nb1 Nb 0.2651(5) 1.2884(3) 0.5661(5)
C8 C 0.2844(5) 0.4987(3) 0.6239(5)
N5 N 0.3002(5) 0.6070(3) 0.6514(5)
N6 N 0.3260(5) 1.0326(3) 0.6892(5)
C9 C 0.1720(5) 1.1131(3) 0.3792(5)
N7 N 0.1230(5) 1.0263(3) 0.2837(5)
C10 C 0.4591(5) 1.3582(3) 0.7388(5)
N8 N 0.5594(5) 1.3988(3) 0.8262(5)
C11 C 0.2042(5) 1.3300(3) 0.7739(5)
N9 N 0.1650(5) 1.3524(3) 0.8750(5)
C12 C 0.5631(5) 0.7442(3) 0.5363(5)
N10 N 0.4731(5) 0.7605(3) 0.5858(5)
C13 C -0.0346(5) 0.7218(3) 0.4726(5)
N11 N 0.0811(5) 0.7250(3) 0.4880(5)
C14 C 0.2016(5) 1.3530(3) 0.3674(5)
N12 N 0.1694(5) 1.3931(3) 0.2714(5)
Mn2A Mn 0.2319(10) 1.4764(8) 1.118(1)
Mn2A_2 Mn 0.2319(10) 1.4764(8) 0.118(1)
Nb1_2 Nb 0.2651(5) 0.2884(3) 0.5661(5)
Nb1A Nb 0.7349(5) 0.7116(3) 0.4339(5)
Nb1A_2 Nb -0.2651(5) 0.7116(3) 0.4339(5)
C8_2 C 0.2844(5) 1.4987(3) 0.6239(5)
N9A N 0.8350(5) 1.6476(3) 1.1250(5)
C12A C 0.4369(5) 1.2558(3) 0.4637(5)
C13A C 0.0346(5) 1.2782(3) 0.5274(5)
N12A N 0.8306(5) 1.6069(3) 0.7286(5)
loop_
_geom_bond_atom_site_label_1
_geom_bond_atom_site_label_2
_geom_bond_site_symmetry_1
_geom_bond_site_symmetry_2
C1 C2 1_555 1_555
C2 N1 1_555 1_555
N1 C3 1_555 1_555
C3 N2 1_555 1_555
N2 C1 1_555 1_555
Mn1 N2 1_555 1_555
C4 C5 1_555 1_555
C5 N3 1_555 1_555
N3 C6 1_555 1_555
C6 N4 1_555 1_555
N4 C4 1_555 1_555
Mn2 N4 1_555 1_555
C7 Nb1 1_555 1_555
Nb1 C9 1_555 1_555
C8 N5 1_555 1_555
N5 Mn1 1_555 1_555
N6 Mn1 1_555 1_555
C9 N7 1_555 1_555
C10 Nb1 1_555 1_555
N8 Mn2 1_555 1_555
C11 Nb1 1_555 1_555
N9 C11 1_555 1_555
C12 N10 1_555 1_555
N10 Mn1 1_555 1_555
C13 N11 1_555 1_555
N11 Mn1 1_555 1_555
C14 Nb1 1_555 1_555
N12 C14 1_555 1_555
Mn2A N9 1_555 1_555
Mn2A_2 N12 1_555 1_555
Nb1_2 C8 1_555 1_555
Nb1A C12 1_555 1_555
Nb1A_2 C13 1_555 1_555
C8_2 Nb1 1_555 1_555
N9A Mn2 1_555 1_555
C12A Nb1 1_555 1_555
C13A Nb1 1_555 1_555
N12A Mn2 1_555 1_555
C7 N6 1_555 1_555
C10 N8 1_555 1_555

#END
