
#######################################################################
#
#                 Cambridge Crystallographic Data Centre
#                                CCDC 
#
#######################################################################
#
# If this CIF has been generated from an entry in the Cambridge 
# Structural Database, then it will include bibliographic, chemical, 
# crystal, experimental, refinement or atomic coordinate data resulting 
# from the CCDC's data processing and validation procedures.
#
#######################################################################

data_VOMJAK
_symmetry_cell_setting           orthorhombic
_symmetry_space_group_name_H-M   'P n a 21'
_symmetry_Int_Tables_number      33
_space_group_name_Hall           'P 2c -2n'
loop_
_symmetry_equiv_pos_site_id
_symmetry_equiv_pos_as_xyz
1 x,y,z
2 -x,-y,1/2+z
3 1/2+x,1/2-y,z
4 1/2-x,1/2+y,1/2+z
_cell_length_a                   13.1154(16)
_cell_length_b                   6.6813(5)
_cell_length_c                   29.007(3)
_cell_angle_alpha                90
_cell_angle_beta                 90
_cell_angle_gamma                90
_cell_volume                     2541.82
loop_
_atom_site_label
_atom_site_type_symbol
_atom_site_fract_x
_atom_site_fract_y
_atom_site_fract_z
Eu1 Eu 0.65658(6) 0.32816(14) 0.06701(2)
Eu2 Eu 0.66590(6) 0.32869(16) 0.41890(2)
O1 O 0.9961(10) 0.214(2) 0.4407(6)
C1 C 0.4052(10) 0.214(2) 0.0571(5)
O2 O 0.6095(10) -0.329(2) 0.0572(5)
O3 O 1.1212(10) 0.851(2) 0.4268(5)
O4 O 0.3180(11) 0.301(2) 0.0494(6)
C2 C 0.5790(12) -0.149(2) 0.0608(7)
O5 O 0.6816(12) 0.364(3) -0.0145(6)
H1 H 0.6938 0.2546 -0.0259
H2 H 0.6743 0.4866 -0.0220
O6 O 0.6699(14) 0.133(3) 0.1398(7)
O7 O 0.6800(13) 0.167(3) 0.3463(7)
O8 O 0.6933(11) 0.355(2) 0.5006(5)
H3 H 0.7095 0.2455 0.5110
H4 H 0.6838 0.4755 0.5092
C3 C 1.0871(13) 0.679(3) 0.4239(7)
C4 C 0.9150(13) 0.272(3) 0.4338(7)
O9 O 1.1378(13) 0.517(3) 0.4394(6)
O10 O 0.4880(9) 0.314(2) 0.0400(4)
O11 O 0.5649(13) 0.400(2) 0.3499(5)
O12 O 0.5549(12) 0.368(3) 0.1362(6)
N1 N 0.4227(13) -0.288(3) 0.1005(6)
H5 H 0.4502 -0.4011 0.1074
N2 N 0.3180(15) -0.049(3) 0.0955(6)
N3 N 0.8111(15) 0.540(3) 0.3932(6)
C5 C 0.9106(11) 0.467(3) 0.4099(6)
C6 C 0.4040(13) -0.001(3) 0.0754(7)
N4 N 0.9342(12) 0.791(3) 0.3848(6)
H6 H 0.9578 0.9084 0.3788
C7 C 0.8345(16) 0.717(4) 0.3754(9)
H7 H 0.7881 0.7886 0.3577
C8 C 0.4738(13) -0.128(3) 0.0787(6)
C9 C 0.3263(14) -0.241(4) 0.1091(8)
H8 H 0.2759 -0.3219 0.1216
C10 C 0.9842(14) 0.635(4) 0.4054(7)
C11 C 0.5999(16) 0.259(3) 0.3302(7)
O13 O 0.6279(11) -0.010(2) 0.0484(5)
C12 C 0.5993(18) 0.217(3) 0.1581(9)
C13 C 0.6789(12) 0.383(2) 0.2463(9)
H9 H 0.7304 0.3678 0.2696
H10 H 0.6328 0.4877 0.2551
H11 H 0.7105 0.4159 0.2175
C14 C 0.5533(11) 0.159(2) 0.2841(5)
H12 H 0.5323 0.0201 0.2887
C15 C 0.5397(16) 0.229(3) 0.2028(6)
O14 O 0.8301(9) 0.187(2) 0.4322(5)
C16 C 0.660(2) -0.022(3) 0.2293(9)
H13 H 0.7098 -0.0619 0.2518
H14 H 0.6914 -0.0185 0.1994
H15 H 0.6048 -0.1154 0.2292
C17 C 0.4618(15) 0.301(4) 0.2759(7)
H16 H 0.3981 0.2280 0.2780
H17 H 0.4613 0.4075 0.2987
C18 C 0.476(2) 0.387(4) 0.2275(6)
H18 H 0.5110 0.5147 0.2286
H19 H 0.4104 0.4055 0.2124
C19 C 0.475(2) 0.041(5) 0.1941(11)
H20 H 0.4260 0.0676 0.1704
H21 H 0.4408 0.0033 0.2220
H22 H 0.5190 -0.0669 0.1844
C20 C 0.6200(12) 0.187(2) 0.2413(7)
Eu1_2 Eu 0.65658(6) -0.67184(14) 0.06701(2)
Eu1B Eu 0.15658(6) 0.17184(14) 0.06701(2)
Eu2B Eu 1.16590(6) 0.17131(16) 0.41890(2)
Eu2B_2 Eu 1.16590(6) 1.17131(16) 0.41890(2)
O1B O 0.4961(10) 0.286(2) 0.4407(6)
O2_2 O 0.6095(10) 0.671(2) 0.0572(5)
O3B O 0.6212(10) 0.649(2) 0.4268(5)
O4B O 0.8180(11) 0.199(2) 0.0494(6)
O9B O 0.6378(13) -0.017(3) 0.4394(6)
N2B N 0.8180(15) 0.549(3) 0.0955(6)
loop_
_geom_bond_atom_site_label_1
_geom_bond_atom_site_label_2
_geom_bond_site_symmetry_1
_geom_bond_site_symmetry_2
Eu1 O5 1_555 1_555
Eu2 O7 1_555 1_555
O1 C4 1_555 1_555
C1 O4 1_555 1_555
O2 C2 1_555 1_555
O3 C3 1_555 1_555
O4 Eu1B 1_555 1_555
C2 C8 1_555 1_555
O5 H1 1_555 1_555
H2 O5 1_555 1_555
O6 Eu1 1_555 1_555
O7 C11 1_555 1_555
O8 Eu2 1_555 1_555
H3 O8 1_555 1_555
H4 O8 1_555 1_555
C3 O9 1_555 1_555
C4 C5 1_555 1_555
O9 Eu2B 1_555 1_555
O10 Eu1 1_555 1_555
O11 Eu2 1_555 1_555
O12 Eu1 1_555 1_555
N1 H5 1_555 1_555
N2 C6 1_555 1_555
N3 Eu2 1_555 1_555
C5 N3 1_555 1_555
C6 C1 1_555 1_555
N4 H6 1_555 1_555
C7 N3 1_555 1_555
H7 C7 1_555 1_555
C8 N1 1_555 1_555
C9 N1 1_555 1_555
H8 C9 1_555 1_555
C10 C3 1_555 1_555
C11 O11 1_555 1_555
O13 Eu1 1_555 1_555
C12 O6 1_555 1_555
C13 H9 1_555 1_555
H10 C13 1_555 1_555
H11 C13 1_555 1_555
C14 C11 1_555 1_555
H12 C14 1_555 1_555
C15 C12 1_555 1_555
O14 Eu2 1_555 1_555
C16 H13 1_555 1_555
H14 C16 1_555 1_555
H15 C16 1_555 1_555
C17 C14 1_555 1_555
H16 C17 1_555 1_555
H17 C17 1_555 1_555
C18 C15 1_555 1_555
H18 C18 1_555 1_555
H19 C18 1_555 1_555
C19 C15 1_555 1_555
H20 C19 1_555 1_555
H21 C19 1_555 1_555
H22 C19 1_555 1_555
C20 C13 1_555 1_555
Eu1_2 O2 1_555 1_555
Eu1B N2 1_555 1_555
Eu2B O1 1_555 1_555
Eu2B_2 O3 1_555 1_555
O1B Eu2 1_555 1_555
O2_2 Eu1 1_555 1_555
O3B Eu2 1_555 1_555
O4B Eu1 1_555 1_555
O9B Eu2 1_555 1_555
N2B Eu1 1_555 1_555
C1 O10 1_555 1_555
C2 O13 1_555 1_555
C4 O14 1_555 1_555
O12 C12 1_555 1_555
N2 C9 1_555 1_555
C5 C10 1_555 1_555
C6 C8 1_555 1_555
N4 C7 1_555 1_555
N4 C10 1_555 1_555
C14 C20 1_555 1_555
C15 C20 1_555 1_555
C16 C20 1_555 1_555
C17 C18 1_555 1_555

#END
