
#######################################################################
#
#                 Cambridge Crystallographic Data Centre
#                                CCDC 
#
#######################################################################
#
# If this CIF has been generated from an entry in the Cambridge 
# Structural Database, then it will include bibliographic, chemical, 
# crystal, experimental, refinement or atomic coordinate data resulting 
# from the CCDC's data processing and validation procedures.
#
#######################################################################

data_VOMJIS
_symmetry_cell_setting           monoclinic
_symmetry_space_group_name_H-M   'C c'
_symmetry_Int_Tables_number      9
_space_group_name_Hall           'C -2yc'
loop_
_symmetry_equiv_pos_site_id
_symmetry_equiv_pos_as_xyz
1 x,y,z
2 x,-y,1/2+z
3 1/2+x,1/2+y,z
4 1/2+x,1/2-y,1/2+z
_cell_length_a                   16.545(7)
_cell_length_b                   11.629(5)
_cell_length_c                   11.952(5)
_cell_angle_alpha                90
_cell_angle_beta                 90.080(2)
_cell_angle_gamma                90
_cell_volume                     2299.58
loop_
_atom_site_label
_atom_site_type_symbol
_atom_site_fract_x
_atom_site_fract_y
_atom_site_fract_z
Ni1 Ni 0.71331(12) 0.2504(2) 0.24228(15)
Fe1 Fe 0.47030(11) 0.31175(11) 0.50404(15)
N1 N 0.6109(7) 0.2953(11) 0.3352(9)
N2 N 0.3195(7) 0.2901(11) 0.6535(10)
N3 N 0.5843(8) 0.2832(11) 0.7129(9)
N4 N 0.3514(7) 0.3393(14) 0.3100(9)
N5 N 0.4664(12) 0.0483(8) 0.483(2)
N6 N 0.4807(6) 0.4798(6) 0.5205(8)
N7 N 0.4729(6) 0.6528(8) 0.5909(9)
H1 H 0.4643 0.7093 0.6384
N8 N 0.7030(8) 0.3982(12) 0.1433(11)
H2 H 0.7212 0.3854 0.0717
H3 H 0.6505 0.4242 0.1406
N9 N 0.7842(9) 0.3470(13) 0.3498(10)
H4 H 0.8370 0.3356 0.3253
N10 N 0.7340(10) 0.1106(15) 0.3402(15)
H5 H 0.7846 0.0817 0.3218
N11 N 0.6483(8) 0.1317(12) 0.1419(13)
H6 H 0.5937 0.1464 0.1432
H7 H 0.6662 0.1322 0.0691
C1 C 0.5592(7) 0.3066(10) 0.3977(11)
C2 C 0.3768(8) 0.3005(13) 0.6016(11)
C3 C 0.5421(7) 0.2896(9) 0.6337(10)
C4 C 0.3956(7) 0.3269(11) 0.3790(11)
C5 C 0.4679(12) 0.1466(11) 0.493(2)
C6 C 0.5104(8) 0.5574(10) 0.4441(10)
H8 H 0.5313 0.5377 0.3726
C7 C 0.4563(6) 0.5430(9) 0.6100(9)
H9 H 0.4314 0.5133 0.6756
C8 C 0.5057(8) 0.6653(10) 0.4848(11)
H10 H 0.5214 0.7347 0.4489
C9 C 0.6680(15) 0.0215(15) 0.1989(15)
H11 H 0.6263 -0.0352 0.1770
H12 H 0.7201 -0.0062 0.1681
C10 C 0.6746(12) 0.0191(18) 0.3212(15)
H13 H 0.6222 0.0367 0.3574
H14 H 0.6945 -0.0562 0.3484
C11 C 0.7230(17) 0.096(3) 0.4600(16)
H15 H 0.7392 0.0191 0.4870
H16 H 0.6676 0.1150 0.4853
C12 C 0.7822(14) 0.1861(16) 0.4878(14)
H17 H 0.8330 0.1583 0.4533
H18 H 0.7902 0.1775 0.5695
C13 C 0.7847(12) 0.3120(16) 0.4699(10)
H19 H 0.8341 0.3431 0.5058
H20 H 0.7375 0.3472 0.5075
C14 C 0.7672(12) 0.4670(14) 0.3267(13)
H21 H 0.8123 0.5157 0.3536
H22 H 0.7173 0.4909 0.3660
C15 C 0.7570(11) 0.4810(15) 0.2051(12)
H23 H 0.8113 0.4769 0.1707
H24 H 0.7360 0.5595 0.1916
Ni1C Ni 0.21331(12) 0.2496(2) 0.74228(15)
N2C N 0.8195(7) 0.2099(11) 0.1535(10)
O1 O 0.1952(5) 0.2340(7) 0.4033(7)
H25 H 0.1554 0.2140 0.3625
H26 H 0.2369 0.2528 0.3661
O2 O 0.4585(7) 0.0923(14) 0.8018(14)
H27 H 0.4846 0.1343 0.7562
H28 H 0.4837 0.0910 0.8638
O3 O 0.4626(7) 0.1172(11) 0.1675(12)
H29 H 0.4463 0.0968 0.2319
H30 H 0.4418 0.0770 0.1154
loop_
_geom_bond_atom_site_label_1
_geom_bond_atom_site_label_2
_geom_bond_site_symmetry_1
_geom_bond_site_symmetry_2
Ni1 N1 1_555 1_555
Fe1 N6 1_555 1_555
N1 C1 1_555 1_555
N2 C2 1_555 1_555
N3 C3 1_555 1_555
N4 C4 1_555 1_555
N5 C5 1_555 1_555
N6 C6 1_555 1_555
N7 H1 1_555 1_555
N8 Ni1 1_555 1_555
H2 N8 1_555 1_555
H3 N8 1_555 1_555
N9 Ni1 1_555 1_555
H4 N9 1_555 1_555
N10 Ni1 1_555 1_555
H5 N10 1_555 1_555
N11 Ni1 1_555 1_555
H6 N11 1_555 1_555
H7 N11 1_555 1_555
C1 Fe1 1_555 1_555
C2 Fe1 1_555 1_555
C3 Fe1 1_555 1_555
C4 Fe1 1_555 1_555
C5 Fe1 1_555 1_555
C6 H8 1_555 1_555
C7 N6 1_555 1_555
H9 C7 1_555 1_555
C8 N7 1_555 1_555
H10 C8 1_555 1_555
C9 N11 1_555 1_555
H11 C9 1_555 1_555
H12 C9 1_555 1_555
C10 N10 1_555 1_555
H13 C10 1_555 1_555
H14 C10 1_555 1_555
C11 N10 1_555 1_555
H15 C11 1_555 1_555
H16 C11 1_555 1_555
C12 C11 1_555 1_555
H17 C12 1_555 1_555
H18 C12 1_555 1_555
C13 N9 1_555 1_555
H19 C13 1_555 1_555
H20 C13 1_555 1_555
C14 N9 1_555 1_555
H21 C14 1_555 1_555
H22 C14 1_555 1_555
C15 N8 1_555 1_555
H23 C15 1_555 1_555
H24 C15 1_555 1_555
O1 H25 1_555 1_555
H26 O1 1_555 1_555
O2 H27 1_555 1_555
H28 O2 1_555 1_555
O3 H29 1_555 1_555
H30 O3 1_555 1_555
Ni1C N2 1_555 1_555
N2C Ni1 1_555 1_555
N7 C7 1_555 1_555
C6 C8 1_555 1_555
C9 C10 1_555 1_555
C12 C13 1_555 1_555
C14 C15 1_555 1_555

#END
