
#######################################################################
#
#                 Cambridge Crystallographic Data Centre
#                                CCDC 
#
#######################################################################
#
# If this CIF has been generated from an entry in the Cambridge 
# Structural Database, then it will include bibliographic, chemical, 
# crystal, experimental, refinement or atomic coordinate data resulting 
# from the CCDC's data processing and validation procedures.
#
#######################################################################

data_VOMJEN
_symmetry_cell_setting           orthorhombic
_symmetry_space_group_name_H-M   'P b c a'
_symmetry_Int_Tables_number      61
_space_group_name_Hall           '-P 2ac 2ab'
loop_
_symmetry_equiv_pos_site_id
_symmetry_equiv_pos_as_xyz
1 x,y,z
2 1/2+x,1/2-y,-z
3 -x,1/2+y,1/2-z
4 1/2-x,-y,1/2+z
5 -x,-y,-z
6 1/2-x,1/2+y,z
7 x,1/2-y,1/2+z
8 1/2+x,y,1/2-z
_cell_length_a                   13.5648(3)
_cell_length_b                   7.2039(2)
_cell_length_c                   24.3207(5)
_cell_angle_alpha                90
_cell_angle_beta                 90
_cell_angle_gamma                90
_cell_volume                     2376.61
loop_
_atom_site_label
_atom_site_type_symbol
_atom_site_fract_x
_atom_site_fract_y
_atom_site_fract_z
K1 K 0.02506(4) 0.38918(8) 0.21163(2)
K2 K 0.70487(4) 0.58771(7) 0.18923(2)
O1 O 0.21100(13) 0.4563(3) 0.19657(8)
O2 O 0.34111(13) 0.3808(3) 0.24807(8)
C1 C 0.29938(17) 0.4123(3) 0.20312(10)
C2 C 0.36061(16) 0.3879(3) 0.15035(10)
H1 H 0.349(2) 0.271(5) 0.1350(13)
N1 N 0.46685(14) 0.3928(3) 0.16319(8)
O3 O 0.50654(13) 0.5467(2) 0.17997(8)
N2 N 0.51360(15) 0.2401(3) 0.15651(9)
O4 O 0.60767(13) 0.2499(3) 0.16848(9)
C3 C 0.3374(2) 0.5263(4) 0.10482(11)
H2 H 0.262(3) 0.514(5) 0.0975(12)
H3 H 0.346(3) 0.646(6) 0.1176(15)
C4 C 0.3969(3) 0.4894(6) 0.05286(13)
H4 H 0.466(3) 0.506(7) 0.0597(17)
H5 H 0.385(4) 0.345(9) 0.038(2)
H6 H 0.381(3) 0.573(6) 0.0249(19)
K1G K 0.52506(4) 0.38918(8) 0.28837(2)
K1E K 0.47494(4) 0.88918(8) 0.21163(2)
K2B K 0.29513(4) 0.08771(7) 0.31077(2)
O2G O -0.15889(13) 0.3808(3) 0.25193(8)
O2B O 0.65889(13) 0.8808(3) 0.25193(8)
O3E O -0.00654(13) 0.0467(2) 0.17997(8)
O5 O 0.14019(17) 0.9045(3) 0.37347(9)
H7 H 0.136(3) 1.007(6) 0.3637(17)
C5 C 0.1036(3) 0.8863(6) 0.42765(14)
H8 H 0.1171 0.7590 0.4410
H9 H 0.0312 0.9038 0.4272
C6 C 0.1476(6) 1.0208(9) 0.4663(2)
H10 H 0.1197 1.0021 0.5030
H11 H 0.1333 1.1473 0.4538
H12 H 0.2192 1.0023 0.4677
loop_
_geom_bond_atom_site_label_1
_geom_bond_atom_site_label_2
_geom_bond_site_symmetry_1
_geom_bond_site_symmetry_2
K1 O1 1_555 1_555
K2 O3 1_555 1_555
O1 C1 1_555 1_555
O2 C1 1_555 1_555
C1 C2 1_555 1_555
C2 H1 1_555 1_555
N1 C2 1_555 1_555
O3 N1 1_555 1_555
N2 N1 1_555 1_555
O4 N2 1_555 1_555
C3 C2 1_555 1_555
H2 C3 1_555 1_555
H3 C3 1_555 1_555
C4 C3 1_555 1_555
H4 C4 1_555 1_555
H5 C4 1_555 1_555
H6 C4 1_555 1_555
O5 H7 1_555 1_555
C5 O5 1_555 1_555
H8 C5 1_555 1_555
H9 C5 1_555 1_555
C6 C5 1_555 1_555
H10 C6 1_555 1_555
H11 C6 1_555 1_555
H12 C6 1_555 1_555
K1G O2 1_555 1_555
K1E O3 1_555 1_555
K2B O2 1_555 1_555
O2G K1 1_555 1_555
O2B K2 1_555 1_555
O3E K1 1_555 1_555
K1E O2B 1_555 1_555

#END
