
#######################################################################
#
#                 Cambridge Crystallographic Data Centre
#                                CCDC 
#
#######################################################################
#
# If this CIF has been generated from an entry in the Cambridge 
# Structural Database, then it will include bibliographic, chemical, 
# crystal, experimental, refinement or atomic coordinate data resulting 
# from the CCDC's data processing and validation procedures.
#
#######################################################################

data_VOMLUG
_symmetry_cell_setting           triclinic
_symmetry_space_group_name_H-M   'P -1'
_symmetry_Int_Tables_number      2
_space_group_name_Hall           '-P 1'
loop_
_symmetry_equiv_pos_site_id
_symmetry_equiv_pos_as_xyz
1 x,y,z
2 -x,-y,-z
_cell_length_a                   7.5539(9)
_cell_length_b                   8.4979(8)
_cell_length_c                   20.6375(12)
_cell_angle_alpha                87.947(11)
_cell_angle_beta                 83.923(10)
_cell_angle_gamma                72.251(12)
_cell_volume                     1254.61
loop_
_atom_site_label
_atom_site_type_symbol
_atom_site_fract_x
_atom_site_fract_y
_atom_site_fract_z
Co1 Co 0.0000 0.5000 0.5000
Co2 Co 1.0000 -1.0000 0.0000
O1 O -0.2156(2) 0.56995(19) 0.43891(7)
H1 H -0.200(4) 0.486(4) 0.4198(14)
H2 H -0.309(4) 0.596(4) 0.4565(14)
O2 O 0.7815(2) -0.9115(2) -0.05885(8)
H3 H 0.800(4) -0.987(4) -0.0837(15)
H4 H 0.673(5) -0.870(4) -0.0452(15)
O3 O 1.1637(3) -0.8809(2) -0.06460(9)
H5 H 1.225(5) -0.826(4) -0.0497(16)
H6 H 1.159(5) -0.880(4) -0.1025(17)
N1 N 0.2026(2) 0.5598(2) 0.37307(7)
N2 N 0.3827(2) 0.3184(2) 0.04461(7)
O4 O 0.1655(2) 0.60561(19) 0.43584(6)
O5 O 0.4114(2) 0.2685(2) -0.01699(7)
O6 O -0.0678(2) 0.28979(19) 0.37109(7)
C1 C 0.3493(3) 0.4281(3) 0.35504(9)
H7 H 0.4246 0.3689 0.3860
C2 C 0.3882(3) 0.3806(3) 0.29073(9)
H8 H 0.4893 0.2888 0.2787
C3 C 0.2785(3) 0.4681(2) 0.24350(8)
C4 C 0.1300(3) 0.6051(2) 0.26447(9)
H9 H 0.0542 0.6680 0.2344
C5 C 0.0941(3) 0.6485(2) 0.32917(9)
H10 H -0.0060 0.7400 0.3425
C6 C 0.4614(3) 0.2138(3) 0.09115(10)
H11 H 0.5374 0.1081 0.0798
C7 C 0.4310(3) 0.2611(2) 0.15541(9)
H12 H 0.4877 0.1871 0.1869
C8 C 0.3169(3) 0.4179(2) 0.17406(8)
C9 C 0.2416(3) 0.5236(2) 0.12435(9)
H13 H 0.1665 0.6305 0.1345
C10 C 0.2761(3) 0.4733(3) 0.06038(9)
H14 H 0.2255 0.5466 0.0278
O7 O 0.1047(2) 0.27180(17) 0.45401(6)
O8 O 0.8999(2) -0.78180(18) 0.04903(7)
O9 O 1.0469(2) -0.83293(18) 0.13926(7)
C11 C 0.0701(3) 0.2203(2) 0.40118(9)
C12 C 0.2130(3) 0.0687(2) 0.37415(10)
H15 H 0.2877 -0.0021 0.4027
C13 C 0.2395(3) 0.0293(2) 0.31174(9)
H16 H 0.1562 0.0963 0.2847
C14 C 0.3877(3) -0.1100(2) 0.28112(8)
C15 C 0.5185(3) -0.2224(2) 0.31628(9)
H17 H 0.5168 -0.2076 0.3608
C16 C 0.6503(3) -0.3554(2) 0.28564(9)
H18 H 0.7360 -0.4296 0.3099
C17 C 0.6578(2) -0.3811(2) 0.21877(8)
C18 C 0.5302(3) -0.2664(2) 0.18310(8)
H19 H 0.5346 -0.2793 0.1383
C19 C 0.3972(3) -0.1336(2) 0.21402(8)
H20 H 0.3125 -0.0586 0.1897
C20 C 0.7914(3) -0.5323(2) 0.19011(9)
H21 H 0.8753 -0.5992 0.2170
C21 C 0.8027(3) -0.5816(2) 0.12951(9)
H22 H 0.7284 -0.5113 0.1008
C22 C 0.9285(3) -0.7441(2) 0.10476(9)
O1A O 0.2156(2) 0.43005(19) 0.56109(7)
H1A H 0.200(4) 0.514(4) 0.5802(14)
H2A H 0.309(4) 0.404(4) 0.5435(14)
N1A N -0.2026(2) 0.4402(2) 0.62693(7)
N2A N -0.3827(2) 0.6816(2) 0.95539(7)
O4A O -0.1655(2) 0.39439(19) 0.56416(6)
O5A O -0.4114(2) 0.7315(2) 1.01699(7)
O6A O 0.0678(2) 0.71021(19) 0.62891(7)
C1A C -0.3493(3) 0.5719(3) 0.64496(9)
H7A H -0.4246 0.6311 0.6140
C2A C -0.3882(3) 0.6194(3) 0.70927(9)
H8A H -0.4893 0.7112 0.7213
C3A C -0.2785(3) 0.5319(2) 0.75650(8)
C4A C -0.1300(3) 0.3949(2) 0.73553(9)
H9A H -0.0542 0.3320 0.7656
C5A C -0.0941(3) 0.3515(2) 0.67083(9)
H10A H 0.0060 0.2600 0.6575
C6A C -0.4614(3) 0.7862(3) 0.90885(10)
H11A H -0.5374 0.8919 0.9202
C7A C -0.4310(3) 0.7389(2) 0.84459(9)
H12A H -0.4877 0.8129 0.8131
C8A C -0.3169(3) 0.5821(2) 0.82594(8)
C9A C -0.2416(3) 0.4764(2) 0.87565(9)
H13A H -0.1665 0.3695 0.8655
C10A C -0.2761(3) 0.5267(3) 0.93962(9)
H14A H -0.2255 0.4534 0.9722
O7A O -0.1047(2) 0.72820(17) 0.54599(6)
O8A O -0.8999(2) 1.78180(18) 0.95097(7)
O9A O -1.0469(2) 1.83293(18) 0.86074(7)
C11A C -0.0701(3) 0.7797(2) 0.59882(9)
C12A C -0.2130(3) 0.9313(2) 0.62585(10)
H15A H -0.2877 1.0021 0.5973
C13A C -0.2395(3) 0.9707(2) 0.68826(9)
H16A H -0.1562 0.9037 0.7153
C14A C -0.3877(3) 1.1100(2) 0.71888(8)
C15A C -0.5185(3) 1.2224(2) 0.68372(9)
H17A H -0.5168 1.2076 0.6392
C16A C -0.6503(3) 1.3554(2) 0.71436(9)
H18A H -0.7360 1.4296 0.6901
C17A C -0.6578(2) 1.3811(2) 0.78123(8)
C18A C -0.5302(3) 1.2664(2) 0.81690(8)
H19A H -0.5346 1.2793 0.8617
C19A C -0.3972(3) 1.1336(2) 0.78598(8)
H20A H -0.3125 1.0586 0.8103
C20A C -0.7914(3) 1.5323(2) 0.80989(9)
H21A H -0.8753 1.5992 0.7830
C21A C -0.8027(3) 1.5816(2) 0.87049(9)
H22A H -0.7284 1.5113 0.8992
C22A C -0.9285(3) 1.7441(2) 0.89524(9)
O2A O 1.2185(2) -1.0885(2) 0.05885(8)
H3A H 1.200(4) -1.013(4) 0.0837(15)
H4A H 1.327(5) -1.130(4) 0.0452(15)
O3A O 0.8363(3) -1.1191(2) 0.06460(9)
H5A H 0.775(5) -1.174(4) 0.0497(16)
H6A H 0.841(5) -1.120(4) 0.1025(17)
Co2_2 Co -1.0000 2.0000 1.0000
O8A_2 O 1.1001(2) -1.21820(18) -0.04903(7)
O10 O 0.4230(3) 0.7074(3) 0.49712(9)
H23 H 0.3412 0.6874 0.4760
H24 H 0.3510 0.8133 0.5108
O11 O -0.2469(3) 0.0717(3) 0.32565(11)
H25 H -0.188(5) 0.143(5) 0.3367(18)
H26 H -0.263(6) 0.026(5) 0.359(2)
O12 O -0.1378(3) -0.0544(3) 0.19559(10)
H27 H -0.088(5) 0.024(5) 0.1832(19)
H28 H -0.174(6) -0.030(5) 0.232(2)
O13 O 0.3110(5) 0.0387(3) 0.54078(12)
H29 H 0.2202 0.1038 0.5228
H30 H 0.3807 0.0946 0.5503
loop_
_geom_bond_atom_site_label_1
_geom_bond_atom_site_label_2
_geom_bond_site_symmetry_1
_geom_bond_site_symmetry_2
Co1 O1 1_555 1_555
Co2 O2 1_555 1_555
O1 H1 1_555 1_555
H2 O1 1_555 1_555
O2 H3 1_555 1_555
H4 O2 1_555 1_555
O3 Co2 1_555 1_555
H5 O3 1_555 1_555
H6 O3 1_555 1_555
N1 O4 1_555 1_555
N2 O5 1_555 1_555
O4 Co1 1_555 1_555
O6 C11 1_555 1_555
C1 N1 1_555 1_555
H7 C1 1_555 1_555
C2 C1 1_555 1_555
H8 C2 1_555 1_555
C3 C2 1_555 1_555
C4 C3 1_555 1_555
H9 C4 1_555 1_555
C5 N1 1_555 1_555
H10 C5 1_555 1_555
C6 N2 1_555 1_555
H11 C6 1_555 1_555
C7 C6 1_555 1_555
H12 C7 1_555 1_555
C8 C3 1_555 1_555
C9 C8 1_555 1_555
H13 C9 1_555 1_555
C10 N2 1_555 1_555
H14 C10 1_555 1_555
O7 Co1 1_555 1_555
O8 Co2 1_555 1_555
O9 C22 1_555 1_555
C11 O7 1_555 1_555
C12 C11 1_555 1_555
H15 C12 1_555 1_555
C13 C12 1_555 1_555
H16 C13 1_555 1_555
C14 C13 1_555 1_555
C15 C14 1_555 1_555
H17 C15 1_555 1_555
C16 C15 1_555 1_555
H18 C16 1_555 1_555
C17 C16 1_555 1_555
C18 C17 1_555 1_555
H19 C18 1_555 1_555
C19 C14 1_555 1_555
H20 C19 1_555 1_555
C20 C17 1_555 1_555
H21 C20 1_555 1_555
C21 C20 1_555 1_555
H22 C21 1_555 1_555
C22 O8 1_555 1_555
O10 H23 1_555 1_555
H24 O10 1_555 1_555
O11 H25 1_555 1_555
H26 O11 1_555 1_555
O12 H27 1_555 1_555
H28 O12 1_555 1_555
O13 H29 1_555 1_555
H30 O13 1_555 1_555
O1A Co1 1_555 1_555
H1A O1A 1_555 1_555
H2A O1A 1_555 1_555
N1A O4A 1_555 1_555
N2A O5A 1_555 1_555
O4A Co1 1_555 1_555
O6A C11A 1_555 1_555
C1A N1A 1_555 1_555
H7A C1A 1_555 1_555
C2A C1A 1_555 1_555
H8A C2A 1_555 1_555
C3A C2A 1_555 1_555
C4A C3A 1_555 1_555
H9A C4A 1_555 1_555
C5A N1A 1_555 1_555
H10A C5A 1_555 1_555
C6A N2A 1_555 1_555
H11A C6A 1_555 1_555
C7A C6A 1_555 1_555
H12A C7A 1_555 1_555
C8A C3A 1_555 1_555
C9A C8A 1_555 1_555
H13A C9A 1_555 1_555
C10A N2A 1_555 1_555
H14A C10A 1_555 1_555
O7A Co1 1_555 1_555
O8A C22A 1_555 1_555
O9A C22A 1_555 1_555
C11A O7A 1_555 1_555
C12A C11A 1_555 1_555
H15A C12A 1_555 1_555
C13A C12A 1_555 1_555
H16A C13A 1_555 1_555
C14A C13A 1_555 1_555
C15A C14A 1_555 1_555
H17A C15A 1_555 1_555
C16A C15A 1_555 1_555
H18A C16A 1_555 1_555
C17A C16A 1_555 1_555
C18A C17A 1_555 1_555
H19A C18A 1_555 1_555
C19A C14A 1_555 1_555
H20A C19A 1_555 1_555
C20A C17A 1_555 1_555
H21A C20A 1_555 1_555
C21A C20A 1_555 1_555
H22A C21A 1_555 1_555
C22A C21A 1_555 1_555
O2A Co2 1_555 1_555
H3A O2A 1_555 1_555
H4A O2A 1_555 1_555
O3A Co2 1_555 1_555
H5A O3A 1_555 1_555
H6A O3A 1_555 1_555
Co2_2 O8A 1_555 1_555
O8A_2 Co2 1_555 1_555
C4 C5 1_555 1_555
C7 C8 1_555 1_555
C9 C10 1_555 1_555
C18 C19 1_555 1_555
C21 C22 1_555 1_555
C4A C5A 1_555 1_555
C7A C8A 1_555 1_555
C9A C10A 1_555 1_555
C18A C19A 1_555 1_555

#END
