
#######################################################################
#
#                 Cambridge Crystallographic Data Centre
#                                CCDC 
#
#######################################################################
#
# If this CIF has been generated from an entry in the Cambridge 
# Structural Database, then it will include bibliographic, chemical, 
# crystal, experimental, refinement or atomic coordinate data resulting 
# from the CCDC's data processing and validation procedures.
#
#######################################################################

data_VOMMUH
_symmetry_cell_setting           triclinic
_symmetry_space_group_name_H-M   'P -1'
_symmetry_Int_Tables_number      2
_space_group_name_Hall           '-P 1'
loop_
_symmetry_equiv_pos_site_id
_symmetry_equiv_pos_as_xyz
1 x,y,z
2 -x,-y,-z
_cell_length_a                   7.506(4)
_cell_length_b                   13.073(7)
_cell_length_c                   14.254(8)
_cell_angle_alpha                83.339(12)
_cell_angle_beta                 87.563(11)
_cell_angle_gamma                84.085(9)
_cell_volume                     1381.19
loop_
_atom_site_label
_atom_site_type_symbol
_atom_site_fract_x
_atom_site_fract_y
_atom_site_fract_z
Ag1 Ag 0.13224(4) 0.40525(2) 0.40916(2)
Ag2 Ag 0.35928(5) 0.30634(2) 0.27286(3)
S1 S 0.47488(17) 0.85318(8) 0.29798(8)
S2 S 0.68039(15) 0.47401(7) 0.20697(8)
C1 C 0.5245(5) 0.9719(3) 0.2339(3)
C2 C 0.5924(5) 0.6040(3) 0.1789(3)
C3 C 0.5540(6) 0.6330(3) 0.0850(3)
H1 H 0.5770 0.5847 0.0419
C4 C 0.4584(5) 0.7938(3) 0.1183(3)
H2 H 0.4076 0.8607 0.1000
C5 C 0.5037(5) 0.7662(3) 0.2111(3)
C6 C 0.6689(5) 0.4546(3) 0.3318(3)
C7 C 0.7592(5) 0.5104(3) 0.3882(3)
H3 H 0.8189 0.5657 0.3605
C8 C 0.6773(5) 0.4045(3) 0.5175(3)
H4 H 0.6818 0.3833 0.5820
C9 C 0.5837(5) 0.3515(3) 0.4614(3)
H5 H 0.5225 0.2970 0.4894
C10 C 0.4477(5) 1.0627(3) 0.2646(3)
H6 H 0.3681 1.0596 0.3165
C11 C 0.1709(5) 0.5166(3) 0.2077(3)
C12 C 0.6715(6) 1.0639(3) 0.1180(3)
H7 H 0.7493 1.0668 0.0654
C13 C 0.0975(4) 0.6098(3) 0.1431(3)
C14 C 0.5970(5) 1.1543(3) 0.1478(3)
H8 H 0.6254 1.2169 0.1157
C15 C 0.0888(5) 0.6044(3) 0.0474(3)
H9 H 0.1336 0.5442 0.0221
C16 C 0.0145(6) 0.6875(3) -0.0109(3)
H10 H 0.0043 0.6821 -0.0749
C17 C -0.0453(5) 0.7791(3) 0.0254(3)
C18 C -0.1216(6) 0.8664(4) -0.0344(3)
C19 C -0.0332(5) 0.7857(3) 0.1212(3)
H11 H -0.0725 0.8470 0.1461
C20 C 0.0372(5) 0.7010(3) 0.1792(3)
H12 H 0.0442 0.7053 0.2436
C21 C 0.1781(5) 0.1943(3) 0.4906(3)
C22 C 0.1553(5) 0.0948(3) 0.5528(2)
C23 C 0.2474(5) 0.0039(3) 0.5328(3)
H13 H 0.3307 0.0046 0.4826
C24 C 0.2202(6) -0.0881(3) 0.5846(3)
H14 H 0.2825 -0.1495 0.5692
C25 C 0.0981(5) -0.0887(3) 0.6608(3)
C26 C 0.0639(6) -0.1867(3) 0.7116(3)
C27 C 0.0087(5) 0.0029(3) 0.6840(3)
H15 H -0.0690 0.0028 0.7366
C28 C 0.0341(5) 0.0940(3) 0.6298(3)
H16 H -0.0294 0.1553 0.6442
N1 N 0.5779(4) 0.3758(2) 0.3683(2)
N2 N 0.7619(4) 0.4861(2) 0.4813(2)
N3 N 0.5690(4) 0.6701(2) 0.2426(2)
N4 N 0.4853(5) 0.7277(3) 0.0548(3)
N5 N 0.4837(4) 1.1544(2) 0.2226(2)
N6 N 0.6382(4) 0.9716(3) 0.1607(3)
N7 N -0.1790(6) 0.9383(3) -0.0808(3)
N8 N 0.0374(7) -0.2644(3) 0.7490(3)
O1 O 0.1588(4) 0.5277(2) 0.2947(2)
O2 O 0.2333(4) 0.4389(2) 0.1721(2)
O3 O 0.0741(4) 0.2717(2) 0.5069(2)
O4 O 0.2957(4) 0.1929(2) 0.4273(2)
Ag1A Ag 0.86776(4) 0.59475(2) 0.59084(2)
Ag2_2 Ag 0.35928(5) 1.30634(2) 0.27286(3)
N2A N 0.2381(4) 0.5139(2) 0.5187(2)
N5_2 N 0.4837(4) 0.1544(2) 0.2226(2)
loop_
_geom_bond_atom_site_label_1
_geom_bond_atom_site_label_2
_geom_bond_site_symmetry_1
_geom_bond_site_symmetry_2
Ag1 Ag2 1_555 1_555
Ag2 N1 1_555 1_555
S1 C1 1_555 1_555
S2 C2 1_555 1_555
C1 C10 1_555 1_555
C2 C3 1_555 1_555
C3 H1 1_555 1_555
C4 H2 1_555 1_555
C5 S1 1_555 1_555
C6 S2 1_555 1_555
C7 C6 1_555 1_555
H3 C7 1_555 1_555
C8 H4 1_555 1_555
C9 C8 1_555 1_555
H5 C9 1_555 1_555
C10 H6 1_555 1_555
C11 C13 1_555 1_555
C12 H7 1_555 1_555
C13 C15 1_555 1_555
C14 C12 1_555 1_555
H8 C14 1_555 1_555
C15 H9 1_555 1_555
C16 C15 1_555 1_555
H10 C16 1_555 1_555
C17 C16 1_555 1_555
C18 C17 1_555 1_555
C19 C17 1_555 1_555
H11 C19 1_555 1_555
C20 C13 1_555 1_555
H12 C20 1_555 1_555
C21 C22 1_555 1_555
C22 C23 1_555 1_555
C23 H13 1_555 1_555
C24 C23 1_555 1_555
H14 C24 1_555 1_555
C25 C24 1_555 1_555
C26 C25 1_555 1_555
C27 C25 1_555 1_555
H15 C27 1_555 1_555
C28 C22 1_555 1_555
H16 C28 1_555 1_555
N1 C6 1_555 1_555
N2 C7 1_555 1_555
N3 C2 1_555 1_555
N4 C3 1_555 1_555
N5 C10 1_555 1_555
N6 C1 1_555 1_555
N7 C18 1_555 1_555
N8 C26 1_555 1_555
O1 Ag1 1_555 1_555
O2 Ag2 1_555 1_555
O3 Ag1 1_555 1_555
O4 Ag2 1_555 1_555
Ag1A N2 1_555 1_555
Ag2_2 N5 1_555 1_555
N2A Ag1 1_555 1_555
N5_2 Ag2 1_555 1_555
C4 C5 1_555 1_555
C4 N4 1_555 1_555
C5 N3 1_555 1_555
C8 N2 1_555 1_555
C9 N1 1_555 1_555
C11 O1 1_555 1_555
C11 O2 1_555 1_555
C12 N6 1_555 1_555
C14 N5 1_555 1_555
C19 C20 1_555 1_555
C21 O3 1_555 1_555
C21 O4 1_555 1_555
C27 C28 1_555 1_555

#END
