
#######################################################################
#
#                 Cambridge Crystallographic Data Centre
#                                CCDC 
#
#######################################################################
#
# If this CIF has been generated from an entry in the Cambridge 
# Structural Database, then it will include bibliographic, chemical, 
# crystal, experimental, refinement or atomic coordinate data resulting 
# from the CCDC's data processing and validation procedures.
#
#######################################################################

data_VOMNAM
_symmetry_cell_setting           triclinic
_symmetry_space_group_name_H-M   'P -1'
_symmetry_Int_Tables_number      2
_space_group_name_Hall           '-P 1'
loop_
_symmetry_equiv_pos_site_id
_symmetry_equiv_pos_as_xyz
1 x,y,z
2 -x,-y,-z
_cell_length_a                   7.040(4)
_cell_length_b                   7.962(4)
_cell_length_c                   9.364(5)
_cell_angle_alpha                84.58(3)
_cell_angle_beta                 89.25(3)
_cell_angle_gamma                76.53(3)
_cell_volume                     508.133
loop_
_atom_site_label
_atom_site_type_symbol
_atom_site_fract_x
_atom_site_fract_y
_atom_site_fract_z
Cl1 Cl 0.2611(3) -0.0910(2) 0.5264(2)
Cu1 Cu 0.2480(1) 0.47500(9) 0.18565(8)
Cl2 Cl 0.2502(2) 0.0348(2) -0.1534(1)
O1 O 0.2600(6) 0.2925(5) 0.0560(4)
O2 O 0.2462(6) 0.2405(5) 0.3423(4)
O3 O 0.2401(6) -0.3437(5) 0.3157(4)
O4 O 0.2429(6) -0.2900(5) 0.0305(4)
O5 O 0.5388(6) 0.4234(7) 0.2003(5)
O6 O -0.0456(6) 0.5196(5) 0.1799(5)
C1 C 0.2528(8) 0.1413(7) 0.1122(6)
C2 C 0.2506(8) 0.1118(8) 0.2761(6)
C3 C 0.2539(9) -0.0571(8) 0.3409(6)
C4 C 0.2473(8) -0.1905(7) 0.2619(6)
C5 C 0.2443(8) -0.1615(7) 0.0981(7)
C6 C 0.2486(9) 0.0034(8) 0.0323(6)
O3_2 O 0.2401(6) 0.6563(5) 0.3157(4)
Cu1_2 Cu 0.2480(1) -0.52500(9) 0.18565(8)
O4_2 O 0.2429(6) 0.7100(5) 0.0305(4)
O7 O 0.2672(7) 0.4498(6) -0.4197(5)
loop_
_geom_bond_atom_site_label_1
_geom_bond_atom_site_label_2
_geom_bond_site_symmetry_1
_geom_bond_site_symmetry_2
Cl1 C3 1_555 1_555
Cu1 O1 1_555 1_555
Cl2 C6 1_555 1_555
O1 C1 1_555 1_555
O2 Cu1 1_555 1_555
O3 C4 1_555 1_555
O4 C5 1_555 1_555
O5 Cu1 1_555 1_555
O6 Cu1 1_555 1_555
C1 C2 1_555 1_555
C2 O2 1_555 1_555
C3 C2 1_555 1_555
C4 C3 1_555 1_555
C5 C4 1_555 1_555
C6 C1 1_555 1_555
O3_2 Cu1 1_555 1_555
Cu1_2 O3 1_555 1_555
O4_2 Cu1 1_555 1_555
O4 Cu1_2 1_555 1_555
C5 C6 1_555 1_555

#END
