
#######################################################################
#
#                 Cambridge Crystallographic Data Centre
#                                CCDC 
#
#######################################################################
#
# If this CIF has been generated from an entry in the Cambridge 
# Structural Database, then it will include bibliographic, chemical, 
# crystal, experimental, refinement or atomic coordinate data resulting 
# from the CCDC's data processing and validation procedures.
#
#######################################################################

data_VOMNES
_symmetry_cell_setting           triclinic
_symmetry_space_group_name_H-M   'P -1'
_symmetry_Int_Tables_number      2
_space_group_name_Hall           '-P 1'
loop_
_symmetry_equiv_pos_site_id
_symmetry_equiv_pos_as_xyz
1 x,y,z
2 -x,-y,-z
_cell_length_a                   7.9886(12)
_cell_length_b                   12.4368(19)
_cell_length_c                   15.866(2)
_cell_angle_alpha                101.685(3)
_cell_angle_beta                 101.743(3)
_cell_angle_gamma                96.666(3)
_cell_volume                     1490.87
loop_
_atom_site_label
_atom_site_type_symbol
_atom_site_fract_x
_atom_site_fract_y
_atom_site_fract_z
C1 C 1.1215(14) 0.6425(10) 0.4892(7)
H1 H 1.1305 0.7045 0.5348
C2 C 1.0200(14) 0.6382(10) 0.4074(7)
H2 H 0.9648 0.6983 0.3990
C3 C 1.0852(13) 0.4683(10) 0.3546(7)
H3 H 1.0756 0.4061 0.3090
C4 C 1.1897(13) 0.4738(9) 0.4369(7)
C5 C 1.4065(12) 0.3350(9) 0.3747(7)
C6 C 1.4986(14) 0.2445(9) 0.3724(7)
H4 H 1.4906 0.1994 0.4121
C7 C 1.5991(14) 0.2907(10) 0.2570(7)
H5 H 1.6676 0.2802 0.2161
C8 C 1.5017(12) 0.3741(8) 0.2590(7)
C9 C 1.4011(13) 0.5678(9) 0.2132(7)
C10 C 1.4555(14) 0.6313(9) 0.2979(7)
H6 H 1.5448 0.6132 0.3374
C11 C 1.2543(13) 0.7429(9) 0.2647(7)
H7 H 1.1999 0.8034 0.2811
C12 C 1.2032(13) 0.6788(9) 0.1794(7)
H8 H 1.1168 0.6984 0.1392
C13 C 0.9751(12) 0.3343(8) 0.0926(7)
C14 C 1.0672(13) 0.2366(9) 0.0942(7)
C15 C 1.1285(13) 0.1887(9) 0.0228(7)
H9 H 1.1097 0.2165 -0.0279
C16 C 1.2174(13) 0.1002(9) 0.0253(7)
H10 H 1.2604 0.0711 -0.0232
C17 C 1.2446(12) 0.0527(9) 0.0998(7)
C18 C 1.1775(13) 0.0988(10) 0.1695(7)
H11 H 1.1929 0.0697 0.2196
C19 C 1.0878(13) 0.1873(9) 0.1669(7)
H12 H 1.0404 0.2146 0.2143
C20 C 1.3432(13) -0.0378(9) 0.1042(7)
C21 C 1.3393(13) -0.1204(9) 0.0274(7)
H13 H 1.2717 -0.1174 -0.0269
C22 C 1.4361(13) -0.2059(10) 0.0328(7)
H14 H 1.4279 -0.2614 -0.0177
C23 C 1.5442(13) -0.2098(9) 0.1119(7)
C24 C 1.5547(13) -0.1270(10) 0.1873(7)
H15 H 1.6285 -0.1278 0.2406
C25 C 1.4539(13) -0.0426(9) 0.1826(7)
H16 H 1.4614 0.0120 0.2336
C26 C 1.6478(14) -0.3032(9) 0.1145(7)
N1 N 0.9976(11) 0.5506(8) 0.3392(6)
N2 N 1.2078(11) 0.5607(8) 0.5053(6)
N3 N 1.5966(12) 0.2227(8) 0.3146(6)
N4 N 1.4056(10) 0.3989(7) 0.3176(5)
N5 N 1.3812(12) 0.7197(8) 0.3247(6)
N6 N 1.2741(11) 0.5886(8) 0.1522(5)
O1 O 0.9072(9) 0.3662(6) 0.1561(5)
O2 O 0.9678(9) 0.3784(6) 0.0272(5)
O3 O 1.7758(10) -0.2919(6) 0.1807(5)
O4 O 1.6022(9) -0.3875(6) 0.0512(4)
S1 S 1.3002(4) 0.3643(3) 0.46226(18)
S2 S 1.4933(3) 0.4486(2) 0.17324(17)
Ag1 Ag 0.84794(11) 0.54010(7) 0.19203(5)
Ag2 Ag 0.77077(10) 0.49543(7) 0.00255(5)
N6A N 0.7259(11) 0.4114(8) -0.1522(5)
O2A O 1.0322(9) 0.6216(6) -0.0272(5)
O3_2 O 0.7758(10) 0.7081(6) 0.1807(5)
O4_2 O 0.6022(9) 0.6125(6) 0.0512(4)
S2_2 S 0.4933(3) 0.4486(2) 0.17324(17)
Ag1_2 Ag 1.84794(11) -0.45990(7) 0.19203(5)
Ag1_3 Ag 1.84794(11) 0.54010(7) 0.19203(5)
Ag2_2 Ag 1.77077(10) -0.50457(7) 0.00255(5)
Ag2A Ag 1.22923(10) 0.50457(7) -0.00255(5)
O5 O 0.9626(12) -0.1032(8) 0.3109(6)
H17 H 0.940(18) -0.098(12) 0.362(4)
H18 H 0.894(16) -0.162(8) 0.279(7)
O6 O 0.9145(13) 0.1222(9) 0.3439(6)
H19 H 0.925(18) 0.060(7) 0.313(8)
H20 H 0.819(11) 0.136(11) 0.315(8)
O7 O 0.9168(12) -0.1087(8) 0.4860(6)
H21 H 0.962(14) -0.108(14) 0.539(3)
H22 H 0.814(8) -0.097(14) 0.485(8)
O8 O 1.4338(12) 0.0994(8) 0.5222(6)
loop_
_geom_bond_atom_site_label_1
_geom_bond_atom_site_label_2
_geom_bond_site_symmetry_1
_geom_bond_site_symmetry_2
C1 H1 1_555 1_555
C2 C1 1_555 1_555
H2 C2 1_555 1_555
C3 H3 1_555 1_555
C4 C3 1_555 1_555
C5 C6 1_555 1_555
C6 H4 1_555 1_555
C7 H5 1_555 1_555
C8 C7 1_555 1_555
C9 C10 1_555 1_555
C10 H6 1_555 1_555
C11 H7 1_555 1_555
C12 C11 1_555 1_555
H8 C12 1_555 1_555
C13 C14 1_555 1_555
C14 C15 1_555 1_555
C15 H9 1_555 1_555
C16 C15 1_555 1_555
H10 C16 1_555 1_555
C17 C16 1_555 1_555
C18 C17 1_555 1_555
H11 C18 1_555 1_555
C19 C14 1_555 1_555
H12 C19 1_555 1_555
C20 C17 1_555 1_555
C21 C20 1_555 1_555
H13 C21 1_555 1_555
C22 C21 1_555 1_555
H14 C22 1_555 1_555
C23 C22 1_555 1_555
C24 C23 1_555 1_555
H15 C24 1_555 1_555
C25 C20 1_555 1_555
H16 C25 1_555 1_555
C26 C23 1_555 1_555
N1 C2 1_555 1_555
N2 C1 1_555 1_555
N3 C6 1_555 1_555
N4 C5 1_555 1_555
N5 C10 1_555 1_555
N6 C9 1_555 1_555
O1 C13 1_555 1_555
O2 C13 1_555 1_555
O3 C26 1_555 1_555
O4 C26 1_555 1_555
S1 C4 1_555 1_555
S2 C8 1_555 1_555
Ag1 N1 1_555 1_555
Ag2 O2 1_555 1_555
O5 H17 1_555 1_555
H18 O5 1_555 1_555
O6 H19 1_555 1_555
H20 O6 1_555 1_555
O7 H21 1_555 1_555
H22 O7 1_555 1_555
N6A Ag2 1_555 1_555
O2A Ag2 1_555 1_555
O3_2 Ag1 1_555 1_555
O4_2 Ag2 1_555 1_555
S2_2 Ag1 1_555 1_555
Ag1_2 O3 1_555 1_555
Ag1_3 S2 1_555 1_555
Ag2_2 O4 1_555 1_555
Ag2A N6 1_555 1_555
C3 N1 1_555 1_555
C4 N2 1_555 1_555
C5 S1 1_555 1_555
C7 N3 1_555 1_555
C8 N4 1_555 1_555
C9 S2 1_555 1_555
C11 N5 1_555 1_555
C12 N6 1_555 1_555
C18 C19 1_555 1_555
C24 C25 1_555 1_555
O1 Ag1 1_555 1_555
O2 Ag2A 1_555 1_555
Ag1 Ag2 1_555 1_555
O2A Ag2A 1_555 1_555
Ag1_2 Ag2_2 1_555 1_555

#END
