
#######################################################################
#
#                 Cambridge Crystallographic Data Centre
#                                CCDC 
#
#######################################################################
#
# If this CIF has been generated from an entry in the Cambridge 
# Structural Database, then it will include bibliographic, chemical, 
# crystal, experimental, refinement or atomic coordinate data resulting 
# from the CCDC's data processing and validation procedures.
#
#######################################################################

data_VOMNIW
_symmetry_cell_setting           triclinic
_symmetry_space_group_name_H-M   'P -1'
_symmetry_Int_Tables_number      2
_space_group_name_Hall           '-P 1'
loop_
_symmetry_equiv_pos_site_id
_symmetry_equiv_pos_as_xyz
1 x,y,z
2 -x,-y,-z
_cell_length_a                   7.8173(10)
_cell_length_b                   9.3157(11)
_cell_length_c                   18.564(2)
_cell_angle_alpha                95.834(2)
_cell_angle_beta                 96.049(2)
_cell_angle_gamma                92.507(2)
_cell_volume                     1335.38
loop_
_atom_site_label
_atom_site_type_symbol
_atom_site_fract_x
_atom_site_fract_y
_atom_site_fract_z
C1 C 0.2317(8) 0.6299(7) 0.2555(4)
H1 H 0.2012 0.5337 0.2598
C2 C 0.2290(9) 0.8243(7) 0.1915(4)
H2 H 0.1996 0.8658 0.1487
C3 C 0.3135(9) 0.9084(7) 0.2501(4)
H3 H 0.3385 1.0057 0.2464
C4 C 0.3238(7) 0.7144(6) 0.3148(3)
C5 C 0.4806(7) 0.4829(6) 0.3632(3)
C6 C 0.4602(8) 0.3558(6) 0.3941(3)
H4 H 0.3921 0.3532 0.4321
C7 C 0.6302(8) 0.2441(7) 0.3155(4)
H5 H 0.6826 0.1623 0.2975
C8 C 0.6519(7) 0.3724(7) 0.2845(3)
C9 C 0.6832(7) 0.4879(6) 0.1570(3)
C10 C 0.5084(8) 0.4659(7) 0.1356(3)
H6 H 0.4472 0.3920 0.1536
C11 C 0.5179(8) 0.6483(7) 0.0656(4)
H7 H 0.4632 0.7099 0.0353
C12 C 0.6921(9) 0.6667(8) 0.0829(5)
H8 H 0.7534 0.7373 0.0626
C13 C 0.8148(7) 0.8698(6) 0.4840(4)
C14 C 0.9899(8) 0.8041(7) 0.4776(4)
H9 H 1.0227 0.8142 0.4293
H10 H 1.0757 0.8586 0.5126
C15 C 0.9919(7) 0.6470(6) 0.4903(4)
C16 C 1.0329(8) 0.6047(7) 0.5581(4)
H11 H 1.0566 0.6742 0.5979
C17 C 1.0399(8) 0.4596(7) 0.5683(4)
H12 H 1.0661 0.4332 0.6150
N1 N 0.1871(6) 0.6841(6) 0.1936(3)
N2 N 0.3618(6) 0.8538(5) 0.3135(3)
N3 N 0.5793(6) 0.4933(5) 0.3084(3)
N4 N 0.5350(7) 0.2363(5) 0.3711(3)
N5 N 0.4249(6) 0.5474(6) 0.0901(3)
O1 O 0.7344(6) 0.9044(5) 0.4277(2)
O2 O 0.7662(5) 0.8882(5) 0.5461(3)
S1 S 0.3846(2) 0.64030(17) 0.39785(9)
S2 S 0.7948(2) 0.37790(19) 0.21696(9)
Ag1 Ag 0.09496(6) 0.53764(5) 0.07376(3)
Ag2 Ag 0.47886(6) 1.00928(5) 0.42336(2)
N6 N 0.7766(7) 0.5843(7) 0.1289(4)
O3 O 0.0262(6) 0.3043(5) 0.0871(2)
O4 O -0.1257(6) 0.2536(5) -0.0199(2)
C18 C -0.0789(6) 0.2268(6) 0.0431(3)
C19 C -0.1488(6) 0.0856(6) 0.0677(3)
H13 H -0.0720 0.0097 0.0559
H14 H -0.1488 0.0978 0.1203
C20 C -0.3309(7) 0.0381(6) 0.0327(3)
C21 C -0.4731(7) 0.0728(6) 0.0691(3)
H15 H -0.4565 0.1217 0.1158
C22 C -0.3596(7) -0.0349(6) -0.0363(3)
H16 H -0.2662 -0.0592 -0.0614
C13A C 1.1852(7) 0.1302(6) 0.5160(4)
C14A C 1.0101(8) 0.1959(7) 0.5224(4)
H9A H 0.9773 0.1858 0.5707
H10A H 0.9243 0.1414 0.4874
C15A C 1.0081(7) 0.3530(6) 0.5097(4)
C16A C 0.9671(8) 0.3953(7) 0.4419(4)
H11A H 0.9434 0.3258 0.4021
C17A C 0.9601(8) 0.5404(7) 0.4317(4)
H12A H 0.9339 0.5668 0.3850
O1A O 1.2656(6) 0.0956(5) 0.5723(2)
O2A O 1.2338(5) 0.1118(5) 0.4539(3)
O3A O -1.0262(6) -0.3043(5) -0.0871(2)
O4A O -0.8743(6) -0.2536(5) 0.0199(2)
C18A C -0.9211(6) -0.2268(6) -0.0431(3)
C19A C -0.8512(6) -0.0856(6) -0.0677(3)
H13A H -0.9280 -0.0097 -0.0559
H14A H -0.8512 -0.0978 -0.1203
C20A C -0.6691(7) -0.0381(6) -0.0327(3)
C21A C -0.5269(7) -0.0728(6) -0.0691(3)
H15A H -0.5435 -0.1217 -0.1158
C22A C -0.6404(7) 0.0349(6) 0.0363(3)
H16A H -0.7338 0.0592 0.0614
C1A C -1.2317(8) -0.6299(7) -0.2555(4)
H1A H -1.2012 -0.5337 -0.2598
C2A C -1.2290(9) -0.8243(7) -0.1915(4)
H2A H -1.1996 -0.8658 -0.1487
C3A C -1.3135(9) -0.9084(7) -0.2501(4)
H3A H -1.3385 -1.0057 -0.2464
C4A C -1.3238(7) -0.7144(6) -0.3148(3)
C5A C -1.4806(7) -0.4829(6) -0.3632(3)
C6A C -1.4602(8) -0.3558(6) -0.3941(3)
H4A H -1.3921 -0.3532 -0.4321
C7A C -1.6302(8) -0.2441(7) -0.3155(4)
H5A H -1.6826 -0.1623 -0.2975
C8A C -1.6519(7) -0.3724(7) -0.2845(3)
C9A C -1.6832(7) -0.4879(6) -0.1570(3)
C10A C -1.5084(8) -0.4659(7) -0.1356(3)
H6A H -1.4472 -0.3920 -0.1536
C11A C -1.5179(8) -0.6483(7) -0.0656(4)
H7A H -1.4632 -0.7099 -0.0353
C12A C -1.6921(9) -0.6667(8) -0.0829(5)
H8A H -1.7534 -0.7373 -0.0626
N1A N -1.1871(6) -0.6841(6) -0.1936(3)
N2A N -1.3618(6) -0.8538(5) -0.3135(3)
N3A N -1.5793(6) -0.4933(5) -0.3084(3)
N4A N -1.5350(7) -0.2363(5) -0.3711(3)
N5A N -1.4249(6) -0.5474(6) -0.0901(3)
S1A S -1.3846(2) -0.64030(17) -0.39785(9)
S2A S -1.7948(2) -0.37790(19) -0.21696(9)
Ag1A Ag -1.09496(6) -0.53764(5) -0.07376(3)
Ag2A Ag -1.47886(6) -1.00928(5) -0.42336(2)
N6A N -1.7766(7) -0.5843(7) -0.1289(4)
N4_2 N 0.5350(7) 1.2363(5) 0.3711(3)
N4A_2 N -1.5350(7) -1.2363(5) -0.3711(3)
O1A_2 O -1.7344(6) -0.9044(5) -0.4277(2)
O2_2 O -1.2338(5) -1.1118(5) -0.4539(3)
O2A_2 O 0.2338(5) 1.1118(5) 0.4539(3)
Ag1_2 Ag -0.90504(6) -0.46236(5) 0.07376(3)
Ag1A_2 Ag -0.09496(6) 0.46236(5) -0.07376(3)
Ag2_2 Ag -1.52114(6) -0.99072(5) -0.57664(2)
Ag2_3 Ag 0.47886(6) 0.00928(5) 0.42336(2)
Ag2_4 Ag 1.47886(6) 0.00928(5) 0.42336(2)
Ag2A_2 Ag -1.47886(6) -0.00928(5) -0.42336(2)
Ag2A_3 Ag 0.52114(6) 0.99072(5) 0.57664(2)
Ag2A_4 Ag 1.52114(6) -0.00928(5) 0.57664(2)
O4_2 O -1.1257(6) -0.7464(5) -0.0199(2)
O4A_2 O 0.1257(6) 0.7464(5) 0.0199(2)
O5 O -0.2317(6) 0.7489(6) -0.2143(3)
H17 H -0.164(9) 0.755(9) -0.172(2)
H18 H -0.149(8) 0.794(8) -0.234(4)
O6 O 0.9592(7) 0.8813(6) 0.6852(3)
H19 H 1.019(10) 0.965(6) 0.703(5)
H20 H 0.914(10) 0.896(10) 0.640(2)
O7 O 0.8247(13) 0.8622(10) 0.2857(4)
H21 H 0.83(2) 0.839(17) 0.331(3)
H22 H 0.778(17) 0.773(7) 0.271(7)
loop_
_geom_bond_atom_site_label_1
_geom_bond_atom_site_label_2
_geom_bond_site_symmetry_1
_geom_bond_site_symmetry_2
C1 H1 1_555 1_555
C2 H2 1_555 1_555
C3 C2 1_555 1_555
H3 C3 1_555 1_555
C4 C1 1_555 1_555
C5 C6 1_555 1_555
C6 H4 1_555 1_555
C7 H5 1_555 1_555
C8 C7 1_555 1_555
C9 C10 1_555 1_555
C10 H6 1_555 1_555
C11 H7 1_555 1_555
C12 C11 1_555 1_555
H8 C12 1_555 1_555
C13 C14 1_555 1_555
C14 H9 1_555 1_555
H10 C14 1_555 1_555
C15 C14 1_555 1_555
C16 C15 1_555 1_555
H11 C16 1_555 1_555
C17 C16 1_555 1_555
H12 C17 1_555 1_555
N1 C1 1_555 1_555
N2 C3 1_555 1_555
N3 C5 1_555 1_555
N4 C6 1_555 1_555
N5 C10 1_555 1_555
O1 C13 1_555 1_555
O2 C13 1_555 1_555
S1 C4 1_555 1_555
S2 C8 1_555 1_555
Ag1 N1 1_555 1_555
Ag2 N2 1_555 1_555
N6 C9 1_555 1_555
O3 Ag1 1_555 1_555
O4 C18 1_555 1_555
C18 O3 1_555 1_555
C19 C18 1_555 1_555
H13 C19 1_555 1_555
H14 C19 1_555 1_555
C20 C19 1_555 1_555
C21 C20 1_555 1_555
H15 C21 1_555 1_555
C22 C20 1_555 1_555
H16 C22 1_555 1_555
O5 H17 1_555 1_555
H18 O5 1_555 1_555
O6 H19 1_555 1_555
H20 O6 1_555 1_555
O7 H21 1_555 1_555
H22 O7 1_555 1_555
C13A C14A 1_555 1_555
C14A H9A 1_555 1_555
H10A C14A 1_555 1_555
C15A C17 1_555 1_555
C16A C15A 1_555 1_555
H11A C16A 1_555 1_555
C17A C15 1_555 1_555
H12A C17A 1_555 1_555
O1A C13A 1_555 1_555
O2A C13A 1_555 1_555
O3A C18A 1_555 1_555
O4A C18A 1_555 1_555
C18A C19A 1_555 1_555
C19A H13A 1_555 1_555
H14A C19A 1_555 1_555
C20A C19A 1_555 1_555
C21A C22 1_555 1_555
H15A C21A 1_555 1_555
C22A C21 1_555 1_555
H16A C22A 1_555 1_555
C1A H1A 1_555 1_555
C2A H2A 1_555 1_555
C3A C2A 1_555 1_555
H3A C3A 1_555 1_555
C4A C1A 1_555 1_555
C5A C6A 1_555 1_555
C6A H4A 1_555 1_555
C7A H5A 1_555 1_555
C8A C7A 1_555 1_555
C9A C10A 1_555 1_555
C10A H6A 1_555 1_555
C11A H7A 1_555 1_555
C12A C11A 1_555 1_555
H8A C12A 1_555 1_555
N1A C1A 1_555 1_555
N2A C3A 1_555 1_555
N3A C5A 1_555 1_555
N4A C6A 1_555 1_555
N5A C10A 1_555 1_555
S1A C4A 1_555 1_555
S2A C8A 1_555 1_555
Ag1A O3A 1_555 1_555
Ag2A N2A 1_555 1_555
N6A C9A 1_555 1_555
N4_2 Ag2 1_555 1_555
N4A_2 Ag2A 1_555 1_555
O1A_2 Ag2A 1_555 1_555
O2_2 Ag2A 1_555 1_555
O2A_2 Ag2 1_555 1_555
Ag1_2 O4A 1_555 1_555
Ag1A_2 Ag1 1_555 1_555
Ag2_2 Ag2A 1_555 1_555
Ag2_3 N4 1_555 1_555
Ag2_4 O2A 1_555 1_555
Ag2A_2 N4A 1_555 1_555
Ag2A_3 O2 1_555 1_555
Ag2A_4 O1A 1_555 1_555
O4_2 Ag1A 1_555 1_555
O4A_2 Ag1 1_555 1_555
C2 N1 1_555 1_555
C4 N2 1_555 1_555
C5 S1 1_555 1_555
C7 N4 1_555 1_555
C8 N3 1_555 1_555
C9 S2 1_555 1_555
C11 N5 1_555 1_555
C12 N6 1_555 1_555
N5 Ag1 1_555 1_555
O1 Ag2 1_555 1_555
Ag2 Ag2A_3 1_555 1_555
O4 Ag1A_2 1_555 1_555
C14A C15A 1_555 1_555
C16A C17A 1_555 1_555
C20A C21A 1_555 1_555
C20A C22A 1_555 1_555
C2A N1A 1_555 1_555
C4A N2A 1_555 1_555
C5A S1A 1_555 1_555
C7A N4A 1_555 1_555
C8A N3A 1_555 1_555
C9A S2A 1_555 1_555
C11A N5A 1_555 1_555
C12A N6A 1_555 1_555
N1A Ag1A 1_555 1_555
N5A Ag1A 1_555 1_555
Ag1A Ag1_2 1_555 1_555
Ag2_4 Ag2A_4 1_555 1_555

#END
