
#######################################################################
#
#                 Cambridge Crystallographic Data Centre
#                                CCDC 
#
#######################################################################
#
# If this CIF has been generated from an entry in the Cambridge 
# Structural Database, then it will include bibliographic, chemical, 
# crystal, experimental, refinement or atomic coordinate data resulting 
# from the CCDC's data processing and validation procedures.
#
#######################################################################

data_VOMQUL
_symmetry_cell_setting           monoclinic
_symmetry_space_group_name_H-M   'P 21/a'
_symmetry_Int_Tables_number      14
_space_group_name_Hall           '-P 2yab'
loop_
_symmetry_equiv_pos_site_id
_symmetry_equiv_pos_as_xyz
1 x,y,z
2 1/2-x,1/2+y,-z
3 -x,-y,-z
4 1/2+x,1/2-y,z
_cell_length_a                   8.3919(6)
_cell_length_b                   13.5662(8)
_cell_length_c                   9.4690(8)
_cell_angle_alpha                90
_cell_angle_beta                 107.389(8)
_cell_angle_gamma                90
_cell_volume                     1028.74
loop_
_atom_site_label
_atom_site_type_symbol
_atom_site_fract_x
_atom_site_fract_y
_atom_site_fract_z
Mn1 Mn 1.0000 0.0000 0.5000
N1 N 1.0735(2) 0.03304(13) 0.7421(2)
N2 N 1.2192(2) 0.04549(14) 0.9790(2)
H1 H 1.2986 0.0365 1.0598
C1 C 1.3357(3) 0.10243(17) 0.4565(3)
C2 C 1.0792(2) 0.10219(16) 0.9631(3)
O1 O 1.48106(18) 0.00226(14) 0.80917(19)
H2 H 1.4560 0.0240 0.7246
C3 C 0.9880(2) 0.09371(16) 0.8143(3)
C4 C 0.8363(3) 0.14304(17) 0.7601(3)
H3 H 0.7727 0.1375 0.6615
N3 N 1.2658(2) 0.04109(16) 0.4957(2)
N4 N 1.4462(3) 0.34014(15) 0.4547(2)
C5 C 1.0265(3) 0.15910(18) 1.0615(3)
H4 H 1.0886 0.1638 1.1607
C6 C 0.7840(3) 0.20031(19) 0.8579(3)
H5 H 0.6835 0.2343 0.8244
C7 C 1.2105(3) 0.00665(16) 0.8464(3)
C8 C 0.8782(3) 0.20843(19) 1.0059(3)
H6 H 0.8397 0.2483 1.0686
N5 N 1.4196(3) 0.16425(16) 0.4034(3)
C9 C 1.3481(3) -0.05636(19) 0.8264(3)
H7 H 1.3893 -0.0990 0.9118
H8 H 1.3052 -0.0978 0.7398
C10 C 1.4302(3) 0.25722(18) 0.4371(3)
N1B N 0.9265(2) -0.03304(13) 0.2579(2)
N2B N 0.7808(2) -0.04549(14) 0.0210(2)
H1B H 0.7014 -0.0365 -0.0598
C1B C 0.6643(3) -0.10243(17) 0.5435(3)
C2B C 0.9208(2) -0.10219(16) 0.0369(3)
O1B O 0.51894(18) -0.00226(14) 0.19083(19)
H2B H 0.5440 -0.0240 0.2754
C3B C 1.0120(2) -0.09371(16) 0.1857(3)
C4B C 1.1637(3) -0.14304(17) 0.2399(3)
H3B H 1.2273 -0.1375 0.3385
N3B N 0.7342(2) -0.04109(16) 0.5043(2)
N4B N 0.5538(3) -0.34014(15) 0.5453(2)
C5B C 0.9735(3) -0.15910(18) -0.0615(3)
H4B H 0.9114 -0.1638 -0.1607
C6B C 1.2160(3) -0.20031(19) 0.1421(3)
H5B H 1.3165 -0.2343 0.1756
C7B C 0.7895(3) -0.00665(16) 0.1536(3)
C8B C 1.1218(3) -0.20843(19) -0.0059(3)
H6B H 1.1603 -0.2483 -0.0686
N5B N 0.5804(3) -0.16425(16) 0.5966(3)
C9B C 0.6519(3) 0.05636(19) 0.1736(3)
H7B H 0.6107 0.0990 0.0882
H8B H 0.6948 0.0978 0.2602
C10B C 0.5698(3) -0.25722(18) 0.5629(3)
Mn1A Mn 0.5000 -0.5000 0.5000
Mn1A_2 Mn 1.5000 0.5000 0.5000
N4A N 1.0538(3) -0.15986(15) 0.5453(2)
N4C N 0.9462(3) 0.15986(15) 0.4547(2)
loop_
_geom_bond_atom_site_label_1
_geom_bond_atom_site_label_2
_geom_bond_site_symmetry_1
_geom_bond_site_symmetry_2
Mn1 N1 1_555 1_555
N1 C3 1_555 1_555
N2 H1 1_555 1_555
C1 N3 1_555 1_555
C2 N2 1_555 1_555
O1 H2 1_555 1_555
C3 C2 1_555 1_555
C4 C3 1_555 1_555
H3 C4 1_555 1_555
N3 Mn1 1_555 1_555
N4 C10 1_555 1_555
C5 C2 1_555 1_555
H4 C5 1_555 1_555
C6 C4 1_555 1_555
H5 C6 1_555 1_555
C7 N1 1_555 1_555
C8 C5 1_555 1_555
H6 C8 1_555 1_555
N5 C1 1_555 1_555
C9 O1 1_555 1_555
H7 C9 1_555 1_555
H8 C9 1_555 1_555
C10 N5 1_555 1_555
N1B Mn1 1_555 1_555
N2B H1B 1_555 1_555
C1B N3B 1_555 1_555
C2B N2B 1_555 1_555
O1B H2B 1_555 1_555
C3B N1B 1_555 1_555
C4B C3B 1_555 1_555
H3B C4B 1_555 1_555
N3B Mn1 1_555 1_555
N4B C10B 1_555 1_555
C5B C2B 1_555 1_555
H4B C5B 1_555 1_555
C6B C4B 1_555 1_555
H5B C6B 1_555 1_555
C7B N1B 1_555 1_555
C8B C5B 1_555 1_555
H6B C8B 1_555 1_555
N5B C1B 1_555 1_555
C9B O1B 1_555 1_555
H7B C9B 1_555 1_555
H8B C9B 1_555 1_555
C10B N5B 1_555 1_555
Mn1A N4B 1_555 1_555
Mn1A_2 N4 1_555 1_555
N4A Mn1 1_555 1_555
N4C Mn1 1_555 1_555
N2 C7 1_555 1_555
C6 C8 1_555 1_555
C7 C9 1_555 1_555
N2B C7B 1_555 1_555
C2B C3B 1_555 1_555
C6B C8B 1_555 1_555
C7B C9B 1_555 1_555

#END
