
#######################################################################
#
#                 Cambridge Crystallographic Data Centre
#                                CCDC 
#
#######################################################################
#
# If this CIF has been generated from an entry in the Cambridge 
# Structural Database, then it will include bibliographic, chemical, 
# crystal, experimental, refinement or atomic coordinate data resulting 
# from the CCDC's data processing and validation procedures.
#
#######################################################################

data_VOMSEW03
_symmetry_cell_setting           tetragonal
_symmetry_space_group_name_H-M   'P 4/n'
_symmetry_Int_Tables_number      85
_space_group_name_Hall           '-P 4a'
loop_
_symmetry_equiv_pos_site_id
_symmetry_equiv_pos_as_xyz
1 x,y,z
2 1/2-x,1/2-y,z
3 1/2-y,x,z
4 y,1/2-x,z
5 -x,-y,-z
6 1/2+x,1/2+y,-z
7 1/2+y,-x,-z
8 -y,1/2+x,-z
_cell_length_a                   24.3448(2)
_cell_length_b                   24.3448(2)
_cell_length_c                   9.5798(2)
_cell_angle_alpha                90
_cell_angle_beta                 90
_cell_angle_gamma                90
_cell_volume                     5677.65
loop_
_atom_site_label
_atom_site_type_symbol
_atom_site_fract_x
_atom_site_fract_y
_atom_site_fract_z
Zn1 Zn 0.37876(5) 0.54666(5) 0.90015(11)
O1 O 0.3793(3) 0.5809(3) 0.7179(7)
O2 O 0.4694(4) 0.5930(4) 0.6922(9)
O3 O 0.3383(8) 0.5770(11) 0.1127(18)
O4 O 0.4119(4) 0.5911(5) 0.0539(10)
I1 I 0.42648(8) 0.51785(4) 0.38549(10)
I2 I 0.34383(4) 0.72497(4) 0.10456(8)
I3 I 0.39833(4) 0.72611(4) 0.71395(9)
C1 C 0.4218(5) 0.5986(4) 0.6546(11)
C2 C 0.4069(4) 0.6282(4) 0.5196(9)
C3 C 0.4038(4) 0.6002(4) 0.3931(9)
C4 C 0.3870(4) 0.6268(4) 0.2733(9)
C5 C 0.3793(5) 0.5964(5) 0.1366(12)
C6 C 0.3714(4) 0.6824(4) 0.2821(9)
C7 C 0.3746(4) 0.7119(4) 0.4069(10)
C8 C 0.3937(4) 0.6837(4) 0.5249(9)
C9 C 0.2718(5) 0.5118(5) 0.7667(11)
H1 H 0.2885 0.5241 0.6852
C10 C 0.2175(5) 0.4945(5) 0.7602(12)
H2 H 0.1984 0.4957 0.6762
C11 C 0.1922(5) 0.4754(5) 0.8808(11)
C12 C 0.2231(6) 0.4748(7) 1.0016(14)
H3 H 0.2074 0.4631 1.0850
C13 C 0.2765(6) 0.4914(6) 0.9983(12)
H4 H 0.2971 0.4888 1.0799
C14 C 0.0549(5) 0.4195(6) 0.7744(13)
H5 H 0.0388 0.4044 0.6952
C15 C 0.1074(5) 0.4381(6) 0.7650(12)
H6 H 0.1259 0.4366 0.6802
C16 C 0.1330(5) 0.4591(5) 0.8801(11)
C17 C 0.1018(6) 0.4631(6) 1.0017(13)
H7 H 0.1164 0.4794 1.0812
C18 C 0.0494(5) 0.4428(5) 1.0029(14)
H8 H 0.0299 0.4438 1.0862
N1 N 0.3624(5) 0.7666(4) 0.4129(10)
N2 N 0.3011(4) 0.5115(4) 0.8834(9)
N3 N 0.0251(4) 0.4218(4) 0.8915(9)
Zn1_2 Zn 0.37876(5) 0.54666(5) -0.09985(11)
Zn1B Zn -0.04666(5) 0.37876(5) 0.90015(11)
O3_2 O 0.3383(8) 0.5770(11) 1.1127(18)
O4_2 O 0.4119(4) 0.5911(5) 1.0539(10)
N3C N 0.4218(4) 0.4749(4) 0.8915(9)
O5 O 0.5576(7) 0.6570(9) 0.5966(17)
O6 O 0.2711(15) 0.4567(14) 0.387(3)
O7 O 0.3383(16) 0.3648(19) 0.320(9)
loop_
_geom_bond_atom_site_label_1
_geom_bond_atom_site_label_2
_geom_bond_site_symmetry_1
_geom_bond_site_symmetry_2
Zn1 O1 1_555 1_555
O1 C1 1_555 1_555
O2 C1 1_555 1_555
O3 C5 1_555 1_555
O4 C5 1_555 1_555
I1 C3 1_555 1_555
I2 C6 1_555 1_555
I3 C8 1_555 1_555
C1 C2 1_555 1_555
C2 C3 1_555 1_555
C3 C4 1_555 1_555
C4 C5 1_555 1_555
C6 C4 1_555 1_555
C7 C6 1_555 1_555
C8 C2 1_555 1_555
C9 H1 1_555 1_555
C10 C9 1_555 1_555
H2 C10 1_555 1_555
C11 C10 1_555 1_555
C12 C11 1_555 1_555
H3 C12 1_555 1_555
C13 C12 1_555 1_555
H4 C13 1_555 1_555
C14 H5 1_555 1_555
C15 C14 1_555 1_555
H6 C15 1_555 1_555
C16 C11 1_555 1_555
C17 C16 1_555 1_555
H7 C17 1_555 1_555
C18 C17 1_555 1_555
H8 C18 1_555 1_555
N1 C7 1_555 1_555
N2 Zn1 1_555 1_555
N3 C14 1_555 1_555
Zn1_2 O3 1_555 1_555
Zn1B N3 1_555 1_555
O3_2 Zn1 1_555 1_555
O4_2 Zn1 1_555 1_555
N3C Zn1 1_555 1_555
O4 Zn1_2 1_555 1_555
C7 C8 1_555 1_555
C9 N2 1_555 1_555
C13 N2 1_555 1_555
C15 C16 1_555 1_555
C18 N3 1_555 1_555

#END
