
#######################################################################
#
#                 Cambridge Crystallographic Data Centre
#                                CCDC 
#
#######################################################################
#
# If this CIF has been generated from an entry in the Cambridge 
# Structural Database, then it will include bibliographic, chemical, 
# crystal, experimental, refinement or atomic coordinate data resulting 
# from the CCDC's data processing and validation procedures.
#
#######################################################################

data_VOMSEW06
_symmetry_cell_setting           tetragonal
_symmetry_space_group_name_H-M   'I 41/a'
_symmetry_Int_Tables_number      88
_space_group_name_Hall           '-I 4ad'
loop_
_symmetry_equiv_pos_site_id
_symmetry_equiv_pos_as_xyz
1 x,y,z
2 1/2-x,-y,1/2+z
3 3/4-y,1/4+x,1/4+z
4 3/4+y,3/4-x,3/4+z
5 1/2+x,1/2+y,1/2+z
6 -x,1/2-y,z
7 1/4-y,3/4+x,3/4+z
8 1/4+y,1/4-x,1/4+z
9 -x,-y,-z
10 1/2+x,y,1/2-z
11 1/4+y,3/4-x,3/4-z
12 1/4-y,1/4+x,1/4-z
13 1/2-x,1/2-y,1/2-z
14 x,1/2+y,-z
15 3/4+y,1/4-x,1/4-z
16 3/4-y,3/4+x,3/4-z
_cell_length_a                   34.3706(11)
_cell_length_b                   34.3706(11)
_cell_length_c                   9.5456(6)
_cell_angle_alpha                90
_cell_angle_beta                 90
_cell_angle_gamma                90
_cell_volume                     11276.6
loop_
_atom_site_label
_atom_site_type_symbol
_atom_site_fract_x
_atom_site_fract_y
_atom_site_fract_z
Zn1 Zn 0.04294(3) 0.08839(3) 0.22725(10)
I1 I 0.03711(3) 0.04982(2) 0.72363(8)
I2 I -0.06719(3) 0.16369(3) 0.42357(8)
I3 I -0.03122(2) 0.18850(2) 1.03097(7)
O1 O 0.0469(3) 0.1161(3) 1.0234(10)
O2 O -0.0055(3) 0.0875(3) 1.0712(9)
O3 O 0.0201(2) 0.1057(2) 0.3999(7)
O4 O -0.0271(3) 0.0628(2) 0.4355(9)
C1 C 0.0140(4) 0.1066(3) 0.9919(11)
C2 C -0.0036(3) 0.1201(3) 0.8556(9)
C3 C 0.0014(3) 0.0998(3) 0.7279(9)
C4 C -0.0155(2) 0.1114(3) 0.6053(9)
C5 C -0.0077(3) 0.0904(3) 0.4665(10)
C6 C -0.0384(3) 0.1459(3) 0.6071(9)
C7 C -0.0424(3) 0.1691(3) 0.7260(10)
C8 C -0.0252(3) 0.1543(3) 0.8501(8)
C9 C 0.0661(12) 0.0200(6) 0.0864(18)
H1 H 0.0637 0.0376 0.0130
C10 C 0.0781(12) -0.0188(7) 0.0552(17)
H2 H 0.0781 -0.0268 -0.0378
C11 C 0.0885(3) -0.0421(3) 0.1461(12)
C12 C 0.0843(7) -0.0298(5) 0.2704(16)
H3 H 0.0924 -0.0453 0.3448
C13 C 0.0678(6) 0.0068(4) 0.2981(14)
H4 H 0.0633 0.0133 0.3913
C14 C 0.1233(4) -0.1282(3) -0.0635(12)
H5 H 0.1245 -0.1354 -0.1574
C15 C 0.1060(4) -0.0930(3) -0.0274(12)
H6 H 0.0950 -0.0777 -0.0970
C16 C 0.1050(3) -0.0804(3) 0.1113(11)
C17 C 0.1202(4) -0.1057(3) 0.2086(11)
H7 H 0.1200 -0.0989 0.3029
C18 C 0.1359(3) -0.1415(3) 0.1681(12)
H8 H 0.1450 -0.1584 0.2369
N1 N -0.0615(3) 0.2043(3) 0.7248(10)
N2 N 0.0587(3) 0.0314(3) 0.2070(9)
N3 N 0.1382(2) -0.1523(2) 0.0344(8)
Zn1_2 Zn 0.04294(3) 0.08839(3) 1.22725(10)
Zn1F Zn 0.16161(3) -0.20706(3) -0.02275(10)
O1_2 O 0.0469(3) 0.1161(3) 0.0234(10)
O2_2 O -0.0055(3) 0.0875(3) 0.0712(9)
N3G N 0.0977(2) 0.1118(2) 0.2844(8)
O5 O 0.0000 0.2500 -0.3750
O6 O 0.2077(15) -0.0401(16) 0.150(8)
O7 O 0.173(3) -0.056(2) -0.408(6)
O8 O -0.0925(7) 0.0304(6) 0.314(2)
loop_
_geom_bond_atom_site_label_1
_geom_bond_atom_site_label_2
_geom_bond_site_symmetry_1
_geom_bond_site_symmetry_2
Zn1 O3 1_555 1_555
I1 C3 1_555 1_555
I2 C6 1_555 1_555
I3 C8 1_555 1_555
O1 C1 1_555 1_555
O2 C1 1_555 1_555
O3 C5 1_555 1_555
O4 C5 1_555 1_555
C1 C2 1_555 1_555
C2 C3 1_555 1_555
C3 C4 1_555 1_555
C4 C5 1_555 1_555
C6 C4 1_555 1_555
C7 C6 1_555 1_555
C8 C2 1_555 1_555
C9 H1 1_555 1_555
C10 C9 1_555 1_555
H2 C10 1_555 1_555
C11 C10 1_555 1_555
C12 C11 1_555 1_555
H3 C12 1_555 1_555
C13 C12 1_555 1_555
H4 C13 1_555 1_555
C14 H5 1_555 1_555
C15 C14 1_555 1_555
H6 C15 1_555 1_555
C16 C11 1_555 1_555
C17 C16 1_555 1_555
H7 C17 1_555 1_555
C18 C17 1_555 1_555
H8 C18 1_555 1_555
N1 C7 1_555 1_555
N2 Zn1 1_555 1_555
N3 C14 1_555 1_555
Zn1_2 O1 1_555 1_555
Zn1F N3 1_555 1_555
O1_2 Zn1 1_555 1_555
O2_2 Zn1 1_555 1_555
N3G Zn1 1_555 1_555
O2 Zn1_2 1_555 1_555
C7 C8 1_555 1_555
C9 N2 1_555 1_555
C13 N2 1_555 1_555
C15 C16 1_555 1_555
C18 N3 1_555 1_555

#END
