
#######################################################################
#
#                 Cambridge Crystallographic Data Centre
#                                CCDC 
#
#######################################################################
#
# If this CIF has been generated from an entry in the Cambridge 
# Structural Database, then it will include bibliographic, chemical, 
# crystal, experimental, refinement or atomic coordinate data resulting 
# from the CCDC's data processing and validation procedures.
#
#######################################################################

data_VOMSEW01
_symmetry_cell_setting           tetragonal
_symmetry_space_group_name_H-M   'P 4/n'
_symmetry_Int_Tables_number      85
_space_group_name_Hall           '-P 4a'
loop_
_symmetry_equiv_pos_site_id
_symmetry_equiv_pos_as_xyz
1 x,y,z
2 1/2-x,1/2-y,z
3 1/2-y,x,z
4 y,1/2-x,z
5 -x,-y,-z
6 1/2+x,1/2+y,-z
7 1/2+y,-x,-z
8 -y,1/2+x,-z
_cell_length_a                   24.3030(4)
_cell_length_b                   24.3030(4)
_cell_length_c                   9.5709(5)
_cell_angle_alpha                90
_cell_angle_beta                 90
_cell_angle_gamma                90
_cell_volume                     5652.92
loop_
_atom_site_label
_atom_site_type_symbol
_atom_site_fract_x
_atom_site_fract_y
_atom_site_fract_z
Zn1 Zn 0.54668(11) 0.37908(11) 0.9004(2)
I1 I 0.51818(10) 0.42732(19) 0.3843(2)
I2 I 0.72445(9) 0.34364(9) 0.10460(16)
I3 I 0.72664(8) 0.39823(9) 0.71400(18)
O1 O 0.5822(7) 0.3790(7) 0.7182(13)
O2 O 0.5950(8) 0.4688(8) 0.6935(16)
O3 O 0.5794(19) 0.3384(16) 0.109(3)
O4 O 0.5937(9) 0.4118(9) 0.055(2)
C1 C 0.5974(9) 0.4210(9) 0.6514(18)
C2 C 0.6287(7) 0.4074(8) 0.5188(17)
C3 C 0.6001(9) 0.4042(11) 0.3986(19)
C4 C 0.6275(11) 0.3854(10) 0.2725(19)
C5 C 0.5962(10) 0.3795(11) 0.137(2)
C6 C 0.6827(11) 0.3708(7) 0.2825(18)
C7 C 0.7116(9) 0.3754(10) 0.410(2)
C8 C 0.6848(8) 0.3934(8) 0.5248(17)
C9 C 0.4920(12) 0.2778(11) 1.005(2)
H1 H 0.4864 0.2992 1.0841
C10 C 0.4792(14) 0.2216(13) 1.003(3)
H2 H 0.4729 0.2037 1.0879
C11 C 0.4755(10) 0.1914(10) 0.880(2)
C12 C 0.4939(10) 0.2178(11) 0.760(2)
H3 H 0.4954 0.1989 0.6759
C13 C 0.5104(10) 0.2734(11) 0.7677(18)
H4 H 0.5194 0.2912 0.6848
C14 C 0.4203(13) 0.0544(14) 0.769(3)
H5 H 0.4057 0.0378 0.6894
C15 C 0.4374(12) 0.1071(11) 0.760(2)
H6 H 0.4340 0.1267 0.6772
C16 C 0.4603(11) 0.1319(10) 0.879(2)
C17 C 0.4637(14) 0.1007(14) 1.007(2)
H7 H 0.4781 0.1159 1.0880
C18 C 0.4443(13) 0.0468(11) 1.003(3)
H8 H 0.4462 0.0257 1.0837
N1 N 0.7657(10) 0.3615(10) 0.417(2)
N2 N 0.5136(8) 0.3007(9) 0.8812(18)
N3 N 0.4235(10) 0.0244(9) 0.8897(17)
Zn1_2 Zn 0.54668(11) 0.37908(11) -0.0996(2)
Zn1C Zn 0.37908(11) -0.04668(11) 0.9004(2)
O3_2 O 0.5794(19) 0.3384(16) 1.109(3)
O4_2 O 0.5937(9) 0.4118(9) 1.055(2)
N3B N 0.4756(9) 0.4235(10) 0.8897(17)
O5 O 0.6545(12) 0.5642(13) 0.615(3)
O6 O 0.656(3) 0.673(4) 0.810(17)
O7 O 0.781(2) 0.556(2) 0.607(4)
loop_
_geom_bond_atom_site_label_1
_geom_bond_atom_site_label_2
_geom_bond_site_symmetry_1
_geom_bond_site_symmetry_2
Zn1 O1 1_555 1_555
I1 C3 1_555 1_555
I2 C6 1_555 1_555
I3 C8 1_555 1_555
O1 C1 1_555 1_555
O2 C1 1_555 1_555
O3 C5 1_555 1_555
O4 C5 1_555 1_555
C1 C2 1_555 1_555
C2 C3 1_555 1_555
C3 C4 1_555 1_555
C4 C5 1_555 1_555
C6 C4 1_555 1_555
C7 C6 1_555 1_555
C8 C2 1_555 1_555
C9 H1 1_555 1_555
C10 C9 1_555 1_555
H2 C10 1_555 1_555
C11 C10 1_555 1_555
C12 C11 1_555 1_555
H3 C12 1_555 1_555
C13 C12 1_555 1_555
H4 C13 1_555 1_555
C14 H5 1_555 1_555
C15 C14 1_555 1_555
H6 C15 1_555 1_555
C16 C11 1_555 1_555
C17 C16 1_555 1_555
H7 C17 1_555 1_555
C18 C17 1_555 1_555
H8 C18 1_555 1_555
N1 C7 1_555 1_555
N2 Zn1 1_555 1_555
N3 C14 1_555 1_555
Zn1_2 O3 1_555 1_555
Zn1C N3 1_555 1_555
O3_2 Zn1 1_555 1_555
O4_2 Zn1 1_555 1_555
N3B Zn1 1_555 1_555
O4 Zn1_2 1_555 1_555
C7 C8 1_555 1_555
C9 N2 1_555 1_555
C13 N2 1_555 1_555
C15 C16 1_555 1_555
C18 N3 1_555 1_555

#END
