
#######################################################################
#
#                 Cambridge Crystallographic Data Centre
#                                CCDC 
#
#######################################################################
#
# If this CIF has been generated from an entry in the Cambridge 
# Structural Database, then it will include bibliographic, chemical, 
# crystal, experimental, refinement or atomic coordinate data resulting 
# from the CCDC's data processing and validation procedures.
#
#######################################################################

data_VOMSEW04
_symmetry_cell_setting           tetragonal
_symmetry_space_group_name_H-M   'P 4/n'
_symmetry_Int_Tables_number      85
_space_group_name_Hall           '-P 4a'
loop_
_symmetry_equiv_pos_site_id
_symmetry_equiv_pos_as_xyz
1 x,y,z
2 1/2-x,1/2-y,z
3 1/2-y,x,z
4 y,1/2-x,z
5 -x,-y,-z
6 1/2+x,1/2+y,-z
7 1/2+y,-x,-z
8 -y,1/2+x,-z
_cell_length_a                   24.3170(3)
_cell_length_b                   24.3170(3)
_cell_length_c                   9.5795(3)
_cell_angle_alpha                90
_cell_angle_beta                 90
_cell_angle_gamma                90
_cell_volume                     5664.52
loop_
_atom_site_label
_atom_site_type_symbol
_atom_site_fract_x
_atom_site_fract_y
_atom_site_fract_z
Zn1 Zn 0.37956(7) 0.54654(6) -0.40037(15)
I1 I 0.42591(12) 0.51763(6) 0.11472(14)
I2 I 0.34405(5) 0.72528(6) 0.39555(10)
I3 I 0.39902(6) 0.72650(5) -0.21392(11)
O1 O 0.3792(4) 0.5814(4) -0.2186(10)
O2 O 0.4691(5) 0.5936(5) -0.1910(11)
O3 O 0.3371(10) 0.5775(15) 0.389(2)
O4 O 0.4115(6) 0.5921(7) 0.4490(14)
C1 C 0.4218(6) 0.5982(6) -0.1547(12)
C2 C 0.4076(5) 0.6273(5) -0.0199(12)
C3 C 0.4041(6) 0.6008(5) 0.1075(13)
C4 C 0.3860(5) 0.6279(6) 0.2273(11)
C5 C 0.3784(7) 0.5958(7) 0.3625(14)
C6 C 0.3714(5) 0.6823(6) 0.2180(13)
C7 C 0.3753(6) 0.7125(5) 0.0930(13)
C8 C 0.3941(5) 0.6838(5) -0.0243(13)
C9 C 0.2778(8) 0.4898(8) -0.4978(16)
H1 H 0.2984 0.4873 -0.5794
C10 C 0.2233(8) 0.4716(8) -0.5003(18)
H2 H 0.2082 0.4570 -0.5814
C11 C 0.1923(6) 0.4756(6) -0.3799(14)
C12 C 0.2192(7) 0.4946(6) -0.2616(16)
H3 H 0.2004 0.4957 -0.1771
C13 C 0.2739(7) 0.5120(7) -0.2666(15)
H4 H 0.2906 0.5246 -0.1853
C14 C 0.0493(7) 0.4449(7) -0.5019(17)
H5 H 0.0289 0.4494 -0.5833
C15 C 0.1037(8) 0.4620(7) -0.5034(17)
H6 H 0.1196 0.4758 -0.5846
C16 C 0.1340(6) 0.4581(6) -0.3812(14)
C17 C 0.1084(7) 0.4362(8) -0.2658(16)
H7 H 0.1279 0.4322 -0.1829
C18 C 0.0541(7) 0.4202(9) -0.2722(18)
H8 H 0.0372 0.4073 -0.1916
N1 N 0.3620(7) 0.7666(6) 0.0875(14)
N2 N 0.3022(6) 0.5110(5) -0.3823(11)
N3 N 0.0243(5) 0.4227(5) -0.3929(12)
Zn1_2 Zn 0.37956(7) 0.54654(6) 0.59963(15)
Zn1B Zn -0.04654(6) 0.37956(7) -0.40037(15)
O3_2 O 0.3371(10) 0.5775(15) -0.611(2)
O4_2 O 0.4115(6) 0.5921(7) -0.5510(14)
N3C N 0.4227(5) 0.4757(5) -0.3929(12)
O5 O 0.5595(11) 0.6525(13) -0.100(3)
O6 O 0.5399(16) 0.7738(18) -0.115(3)
O7 O 0.622(2) 0.838(2) -0.114(14)
loop_
_geom_bond_atom_site_label_1
_geom_bond_atom_site_label_2
_geom_bond_site_symmetry_1
_geom_bond_site_symmetry_2
Zn1 O1 1_555 1_555
I1 C3 1_555 1_555
I2 C6 1_555 1_555
I3 C8 1_555 1_555
O1 C1 1_555 1_555
O2 C1 1_555 1_555
O3 C5 1_555 1_555
O4 C5 1_555 1_555
C1 C2 1_555 1_555
C2 C3 1_555 1_555
C3 C4 1_555 1_555
C4 C5 1_555 1_555
C6 C4 1_555 1_555
C7 C6 1_555 1_555
C8 C2 1_555 1_555
C9 H1 1_555 1_555
C10 C9 1_555 1_555
H2 C10 1_555 1_555
C11 C10 1_555 1_555
C12 C11 1_555 1_555
H3 C12 1_555 1_555
C13 C12 1_555 1_555
H4 C13 1_555 1_555
C14 H5 1_555 1_555
C15 C14 1_555 1_555
H6 C15 1_555 1_555
C16 C11 1_555 1_555
C17 C16 1_555 1_555
H7 C17 1_555 1_555
C18 C17 1_555 1_555
H8 C18 1_555 1_555
N1 C7 1_555 1_555
N2 Zn1 1_555 1_555
N3 C14 1_555 1_555
Zn1_2 O3 1_555 1_555
Zn1B N3 1_555 1_555
O3_2 Zn1 1_555 1_555
O4_2 Zn1 1_555 1_555
N3C Zn1 1_555 1_555
O4 Zn1_2 1_555 1_555
C7 C8 1_555 1_555
C9 N2 1_555 1_555
C13 N2 1_555 1_555
C15 C16 1_555 1_555
C18 N3 1_555 1_555

#END
