
#######################################################################
#
#                 Cambridge Crystallographic Data Centre
#                                CCDC 
#
#######################################################################
#
# If this CIF has been generated from an entry in the Cambridge 
# Structural Database, then it will include bibliographic, chemical, 
# crystal, experimental, refinement or atomic coordinate data resulting 
# from the CCDC's data processing and validation procedures.
#
#######################################################################

data_VOMSEW02
_symmetry_cell_setting           tetragonal
_symmetry_space_group_name_H-M   'P 4/n'
_symmetry_Int_Tables_number      85
_space_group_name_Hall           '-P 4a'
loop_
_symmetry_equiv_pos_site_id
_symmetry_equiv_pos_as_xyz
1 x,y,z
2 1/2-x,1/2-y,z
3 1/2-y,x,z
4 y,1/2-x,z
5 -x,-y,-z
6 1/2+x,1/2+y,-z
7 1/2+y,-x,-z
8 -y,1/2+x,-z
_cell_length_a                   24.3373(3)
_cell_length_b                   24.3373(3)
_cell_length_c                   9.5814(3)
_cell_angle_alpha                90
_cell_angle_beta                 90
_cell_angle_gamma                90
_cell_volume                     5675.1
loop_
_atom_site_label
_atom_site_type_symbol
_atom_site_fract_x
_atom_site_fract_y
_atom_site_fract_z
Zn1 Zn 0.54648(5) 0.37935(5) 0.89962(11)
N1 N 0.7661(4) 0.3615(5) 0.4136(12)
N2 N 0.5111(4) 0.3018(4) 0.8831(9)
N3 N 0.4216(4) 0.0255(4) 0.8909(9)
I1 I 0.51774(4) 0.42643(9) 0.38500(11)
I2 I 0.72498(4) 0.34383(4) 0.10450(8)
I3 I 0.72624(4) 0.39871(4) 0.71335(9)
O1 O 0.5811(3) 0.3796(3) 0.7179(7)
O2 O 0.5932(4) 0.4694(4) 0.6904(9)
O3 O 0.5767(13) 0.3377(9) 0.111(2)
O4 O 0.5908(5) 0.4111(4) 0.0538(10)
C1 C 0.5981(4) 0.4216(5) 0.6544(11)
C2 C 0.6279(4) 0.4078(4) 0.5196(9)
C3 C 0.6002(4) 0.4037(5) 0.3932(10)
C4 C 0.6267(4) 0.3867(4) 0.2734(10)
C5 C 0.5959(5) 0.3786(5) 0.1361(12)
C6 C 0.6824(4) 0.3721(4) 0.2822(9)
C7 C 0.7119(4) 0.3748(4) 0.4060(10)
C8 C 0.6834(4) 0.3937(4) 0.5257(9)
C9 C 0.5128(5) 0.2718(5) 0.7669(11)
H1 H 0.5266 0.2879 0.6861
C10 C 0.4950(5) 0.2176(5) 0.7608(13)
H2 H 0.4963 0.1984 0.6769
C11 C 0.4753(5) 0.1924(4) 0.8786(10)
C12 C 0.4735(7) 0.2240(6) 0.9993(15)
H3 H 0.4606 0.2084 1.0817
C13 C 0.4902(7) 0.2773(6) 0.9988(14)
H4 H 0.4873 0.2977 1.0805
C14 C 0.4189(6) 0.0553(5) 0.7743(14)
H5 H 0.4037 0.0391 0.6952
C15 C 0.4374(6) 0.1087(6) 0.7646(13)
H6 H 0.4359 0.1274 0.6799
C16 C 0.4582(4) 0.1340(5) 0.8806(11)
C17 C 0.4627(6) 0.1028(6) 1.0010(14)
H7 H 0.4781 0.1177 1.0815
C18 C 0.4440(6) 0.0493(5) 0.9990(14)
H8 H 0.4476 0.0287 1.0803
Zn1C Zn 0.37935(5) -0.04648(5) 0.89962(11)
Zn1_2 Zn 0.54648(5) 0.37935(5) -0.10038(11)
N3B N 0.4745(4) 0.4216(4) 0.8909(9)
O3_2 O 0.5767(13) 0.3377(9) 1.111(2)
O4_2 O 0.5908(5) 0.4111(4) 1.0538(10)
O5 O 0.6551(11) 0.5590(9) 0.6000(19)
O6 O 0.7704(17) 0.5455(17) 0.614(3)
O7 O 0.841(6) 0.641(5) 0.684(12)
loop_
_geom_bond_atom_site_label_1
_geom_bond_atom_site_label_2
_geom_bond_site_symmetry_1
_geom_bond_site_symmetry_2
Zn1 N2 1_555 1_555
N1 C7 1_555 1_555
N2 C9 1_555 1_555
N3 C14 1_555 1_555
I1 C3 1_555 1_555
I2 C6 1_555 1_555
I3 C8 1_555 1_555
O1 Zn1 1_555 1_555
O2 C1 1_555 1_555
O3 C5 1_555 1_555
O4 C5 1_555 1_555
C1 O1 1_555 1_555
C2 C1 1_555 1_555
C3 C2 1_555 1_555
C4 C3 1_555 1_555
C5 C4 1_555 1_555
C6 C4 1_555 1_555
C7 C6 1_555 1_555
C8 C2 1_555 1_555
C9 H1 1_555 1_555
C10 C9 1_555 1_555
H2 C10 1_555 1_555
C11 C10 1_555 1_555
C12 C11 1_555 1_555
H3 C12 1_555 1_555
C13 N2 1_555 1_555
H4 C13 1_555 1_555
C14 H5 1_555 1_555
C15 C14 1_555 1_555
H6 C15 1_555 1_555
C16 C11 1_555 1_555
C17 C16 1_555 1_555
H7 C17 1_555 1_555
C18 N3 1_555 1_555
H8 C18 1_555 1_555
Zn1C N3 1_555 1_555
Zn1_2 O3 1_555 1_555
N3B Zn1 1_555 1_555
O3_2 Zn1 1_555 1_555
O4_2 Zn1 1_555 1_555
O4 Zn1_2 1_555 1_555
C7 C8 1_555 1_555
C12 C13 1_555 1_555
C15 C16 1_555 1_555
C17 C18 1_555 1_555

#END
