
#######################################################################
#
#                 Cambridge Crystallographic Data Centre
#                                CCDC 
#
#######################################################################
#
# If this CIF has been generated from an entry in the Cambridge 
# Structural Database, then it will include bibliographic, chemical, 
# crystal, experimental, refinement or atomic coordinate data resulting 
# from the CCDC's data processing and validation procedures.
#
#######################################################################

data_VOMVEA
_symmetry_cell_setting           triclinic
_symmetry_space_group_name_H-M   'P -1'
_symmetry_Int_Tables_number      2
_space_group_name_Hall           '-P 1'
loop_
_symmetry_equiv_pos_site_id
_symmetry_equiv_pos_as_xyz
1 x,y,z
2 -x,-y,-z
_cell_length_a                   6.0900(2)
_cell_length_b                   10.5263(4)
_cell_length_c                   12.4493(4)
_cell_angle_alpha                92.506(2)
_cell_angle_beta                 102.217(2)
_cell_angle_gamma                98.667(2)
_cell_volume                     768.719
loop_
_atom_site_label
_atom_site_type_symbol
_atom_site_fract_x
_atom_site_fract_y
_atom_site_fract_z
Se1 Se 0.26974(5) 0.32767(3) 0.94631(2)
Cu1 Cu 0.38297(6) 0.58239(4) 0.91079(3)
N1 N -0.1185(4) 0.3619(2) 1.0477(2)
N2 N 0.4936(4) 0.5722(2) 0.76981(19)
N3 N 0.8035(5) 0.5326(3) 0.6336(2)
C1 C 0.5071(7) 0.4425(3) 0.7232(3)
H1 H 0.4030 0.4235 0.6518
H2 H 0.4642 0.3779 0.7715
C2 C 0.7468(7) 0.4395(3) 0.7116(3)
H3 H 0.8514 0.4613 0.7827
H4 H 0.7605 0.3537 0.6850
C3 C 0.7232(5) 0.6366(3) 0.6391(2)
C4 C 0.7600(5) 0.7306(3) 0.5556(2)
C5 C 0.9507(5) 0.7327(3) 0.5095(3)
H5 H 1.0576 0.6799 0.5338
C6 C 0.9789(6) 0.8141(3) 0.4270(3)
H6 H 1.1078 0.8177 0.3977
C7 C 0.8200(6) 0.8888(3) 0.3888(3)
H7 H 0.8401 0.9420 0.3328
C8 C 0.6300(6) 0.8866(3) 0.4321(3)
H8 H 0.5217 0.9376 0.4053
C9 C 0.6009(5) 0.8075(3) 0.5162(2)
H9 H 0.4732 0.8064 0.5461
C10 C 0.5983(5) 0.6659(3) 0.7261(2)
C11 C 0.6079(5) 0.7998(3) 0.7704(2)
C12 C 0.8075(5) 0.8889(3) 0.7840(3)
H10 H 0.9320 0.8663 0.7600
C13 C 0.8208(6) 1.0108(3) 0.8332(3)
H11 H 0.9551 1.0696 0.8429
C14 C 0.6377(6) 1.0457(3) 0.8676(3)
H12 H 0.6480 1.1277 0.9011
C15 C 0.4382(6) 0.9590(3) 0.8526(3)
H13 H 0.3134 0.9827 0.8757
C16 C 0.4235(5) 0.8373(3) 0.8032(2)
H14 H 0.2874 0.7798 0.7920
C17 C 0.0350(5) 0.3490(3) 1.0104(2)
Se1A Se 0.73026(5) 0.67233(3) 1.05369(2)
Cu1A Cu -0.38297(6) 0.41761(4) 1.08921(3)
Cu1A_2 Cu 0.61703(6) 0.41761(4) 1.08921(3)
N1A N 0.1185(4) 0.6381(2) 0.9523(2)
loop_
_geom_bond_atom_site_label_1
_geom_bond_atom_site_label_2
_geom_bond_site_symmetry_1
_geom_bond_site_symmetry_2
Se1 Cu1 1_555 1_555
Cu1 N2 1_555 1_555
N1 C17 1_555 1_555
N2 C1 1_555 1_555
N3 C2 1_555 1_555
C1 H1 1_555 1_555
H2 C1 1_555 1_555
C2 C1 1_555 1_555
H3 C2 1_555 1_555
H4 C2 1_555 1_555
C3 N3 1_555 1_555
C4 C3 1_555 1_555
C5 C4 1_555 1_555
H5 C5 1_555 1_555
C6 C5 1_555 1_555
H6 C6 1_555 1_555
C7 C6 1_555 1_555
H7 C7 1_555 1_555
C8 C7 1_555 1_555
H8 C8 1_555 1_555
C9 C4 1_555 1_555
H9 C9 1_555 1_555
C10 N2 1_555 1_555
C11 C10 1_555 1_555
C12 C11 1_555 1_555
H10 C12 1_555 1_555
C13 C12 1_555 1_555
H11 C13 1_555 1_555
C14 C13 1_555 1_555
H12 C14 1_555 1_555
C15 C14 1_555 1_555
H13 C15 1_555 1_555
C16 C11 1_555 1_555
H14 C16 1_555 1_555
C17 Se1 1_555 1_555
Se1A Cu1 1_555 1_555
Cu1A N1 1_555 1_555
Cu1A_2 Se1 1_555 1_555
N1A Cu1 1_555 1_555
C3 C10 1_555 1_555
C8 C9 1_555 1_555
C15 C16 1_555 1_555
Se1A Cu1A_2 1_555 1_555

#END
