
#######################################################################
#
#                 Cambridge Crystallographic Data Centre
#                                CCDC 
#
#######################################################################
#
# If this CIF has been generated from an entry in the Cambridge 
# Structural Database, then it will include bibliographic, chemical, 
# crystal, experimental, refinement or atomic coordinate data resulting 
# from the CCDC's data processing and validation procedures.
#
#######################################################################

data_VOMVIE
_symmetry_cell_setting           monoclinic
_symmetry_space_group_name_H-M   'P 21/c'
_symmetry_Int_Tables_number      14
_space_group_name_Hall           '-P 2ybc'
loop_
_symmetry_equiv_pos_site_id
_symmetry_equiv_pos_as_xyz
1 x,y,z
2 -x,1/2+y,1/2-z
3 -x,-y,-z
4 x,1/2-y,1/2+z
_cell_length_a                   10.0065(3)
_cell_length_b                   20.4846(6)
_cell_length_c                   15.6454(4)
_cell_angle_alpha                90
_cell_angle_beta                 94.2420(10)
_cell_angle_gamma                90
_cell_volume                     3198.2
loop_
_atom_site_label
_atom_site_type_symbol
_atom_site_fract_x
_atom_site_fract_y
_atom_site_fract_z
I1 I 0.11501(3) 0.667053(17) -0.175236(17)
I2 I 0.64009(3) 0.803538(18) 0.409123(17)
Cu1 Cu 0.12599(5) 0.69931(3) -0.02057(3)
Cu2 Cu 0.65980(5) 0.76004(3) 0.26156(3)
N1 N 0.2947(3) 0.70726(16) 0.05545(19)
N2 N 0.4936(3) 0.73377(16) 0.19079(19)
N3 N 0.8130(3) 0.75078(16) 0.18829(18)
N4 N 0.9767(3) 0.72138(16) 0.05121(18)
C1 C 0.3416(4) 0.66289(19) 0.1076(2)
C2 C 0.4627(4) 0.6749(2) 0.1674(2)
C3 C 0.5483(4) 0.6204(2) 0.1976(2)
C4 C 0.6032(4) 0.6182(2) 0.2828(2)
H1 H 0.5803 0.6503 0.3212
C5 C 0.6900(4) 0.5695(2) 0.3103(3)
H2 H 0.7266 0.5693 0.3666
C6 C 0.7228(5) 0.5215(3) 0.2556(3)
H3 H 0.7823 0.4888 0.2744
C7 C 0.6680(6) 0.5214(3) 0.1725(3)
H4 H 0.6889 0.4878 0.1358
C8 C 0.5817(5) 0.5709(2) 0.1425(3)
H5 H 0.5466 0.5708 0.0858
C9 C 0.8967(4) 0.6917(2) 0.1895(2)
H6 H 0.8543 0.6574 0.2206
H7 H 0.9832 0.7009 0.2190
C10 C 0.9160(4) 0.66869(19) 0.0995(2)
H8 H 0.9738 0.6306 0.1015
H9 H 0.8303 0.6565 0.0710
C11 C 0.8332(4) 0.79142(19) 0.1284(2)
C12 C 0.7429(4) 0.84947(19) 0.1184(2)
C13 C 0.6768(4) 0.8631(2) 0.0405(3)
H10 H 0.6970 0.8397 -0.0078
C14 C 0.5798(5) 0.9118(2) 0.0336(3)
H11 H 0.5325 0.9198 -0.0188
C15 C 0.5543(5) 0.9477(2) 0.1042(4)
H12 H 0.4896 0.9804 0.0997
C16 C 0.6238(5) 0.9359(2) 0.1820(3)
H13 H 0.6069 0.9612 0.2294
C17 C 0.7185(4) 0.8867(2) 0.1904(3)
H14 H 0.7651 0.8786 0.2430
C18 C 0.9373(4) 0.77935(19) 0.0671(2)
C19 C 0.4055(4) 0.7849(2) 0.1546(3)
H15 H 0.4512 0.8267 0.1593
H16 H 0.3261 0.7876 0.1864
C20 C 0.3656(4) 0.7706(2) 0.0623(2)
H17 H 0.3076 0.8050 0.0385
H18 H 0.4447 0.7691 0.0301
C21 C 0.2697(4) 0.6000(2) 0.1104(2)
C22 C 0.2254(4) 0.5781(2) 0.1871(3)
H19 H 0.2459 0.6015 0.2373
C23 C 0.1502(5) 0.5214(3) 0.1886(3)
H20 H 0.1174 0.5074 0.2396
C24 C 0.1243(6) 0.4858(3) 0.1149(4)
H21 H 0.0761 0.4470 0.1163
C25 C 0.1694(6) 0.5073(3) 0.0395(4)
H22 H 0.1516 0.4828 -0.0101
C26 C 0.2408(5) 0.5646(2) 0.0355(3)
H23 H 0.2691 0.5793 -0.0164
C27 C 0.9976(4) 0.83540(19) 0.0242(2)
C28 C 1.0557(5) 0.8858(2) 0.0704(3)
H24 H 1.0515 0.8866 0.1296
C29 C 1.1207(6) 0.9355(3) 0.0306(3)
H25 H 1.1618 0.9691 0.0628
C30 C 1.1242(5) 0.9349(3) -0.0568(3)
H26 H 1.1684 0.9681 -0.0838
C31 C 1.0639(5) 0.8865(3) -0.1042(3)
H27 H 1.0642 0.8875 -0.1636
C32 C 1.0025(4) 0.8359(2) -0.0651(3)
H28 H 0.9640 0.8020 -0.0978
Cu1_2 Cu 1.12599(5) 0.69931(3) -0.02057(3)
N4_2 N -0.0233(3) 0.72138(16) 0.05121(18)
loop_
_geom_bond_atom_site_label_1
_geom_bond_atom_site_label_2
_geom_bond_site_symmetry_1
_geom_bond_site_symmetry_2
I1 Cu1 1_555 1_555
I2 Cu2 1_555 1_555
Cu1 N1 1_555 1_555
Cu2 N2 1_555 1_555
N1 C1 1_555 1_555
N2 C2 1_555 1_555
N3 Cu2 1_555 1_555
N4 C10 1_555 1_555
C1 C2 1_555 1_555
C2 C3 1_555 1_555
C3 C4 1_555 1_555
C4 H1 1_555 1_555
C5 C4 1_555 1_555
H2 C5 1_555 1_555
C6 C5 1_555 1_555
H3 C6 1_555 1_555
C7 C6 1_555 1_555
H4 C7 1_555 1_555
C8 C3 1_555 1_555
H5 C8 1_555 1_555
C9 N3 1_555 1_555
H6 C9 1_555 1_555
H7 C9 1_555 1_555
C10 C9 1_555 1_555
H8 C10 1_555 1_555
H9 C10 1_555 1_555
C11 N3 1_555 1_555
C12 C11 1_555 1_555
C13 C12 1_555 1_555
H10 C13 1_555 1_555
C14 C13 1_555 1_555
H11 C14 1_555 1_555
C15 C14 1_555 1_555
H12 C15 1_555 1_555
C16 C15 1_555 1_555
H13 C16 1_555 1_555
C17 C12 1_555 1_555
H14 C17 1_555 1_555
C18 N4 1_555 1_555
C19 N2 1_555 1_555
H15 C19 1_555 1_555
H16 C19 1_555 1_555
C20 N1 1_555 1_555
H17 C20 1_555 1_555
H18 C20 1_555 1_555
C21 C1 1_555 1_555
C22 C21 1_555 1_555
H19 C22 1_555 1_555
C23 C22 1_555 1_555
H20 C23 1_555 1_555
C24 C23 1_555 1_555
H21 C24 1_555 1_555
C25 C24 1_555 1_555
H22 C25 1_555 1_555
C26 C21 1_555 1_555
H23 C26 1_555 1_555
C27 C18 1_555 1_555
C28 C27 1_555 1_555
H24 C28 1_555 1_555
C29 C28 1_555 1_555
H25 C29 1_555 1_555
C30 C29 1_555 1_555
H26 C30 1_555 1_555
C31 C30 1_555 1_555
H27 C31 1_555 1_555
C32 C27 1_555 1_555
H28 C32 1_555 1_555
Cu1_2 N4 1_555 1_555
N4_2 Cu1 1_555 1_555
C7 C8 1_555 1_555
C11 C18 1_555 1_555
C16 C17 1_555 1_555
C19 C20 1_555 1_555
C25 C26 1_555 1_555
C31 C32 1_555 1_555

#END
