
#######################################################################
#
#                 Cambridge Crystallographic Data Centre
#                                CCDC 
#
#######################################################################
#
# If this CIF has been generated from an entry in the Cambridge 
# Structural Database, then it will include bibliographic, chemical, 
# crystal, experimental, refinement or atomic coordinate data resulting 
# from the CCDC's data processing and validation procedures.
#
#######################################################################

data_VOMXUS
_symmetry_cell_setting           orthorhombic
_symmetry_space_group_name_H-M   'P b c n'
_symmetry_Int_Tables_number      60
_space_group_name_Hall           '-P 2n 2ab'
loop_
_symmetry_equiv_pos_site_id
_symmetry_equiv_pos_as_xyz
1 x,y,z
2 1/2-x,1/2-y,1/2+z
3 -x,y,1/2-z
4 1/2+x,1/2-y,-z
5 -x,-y,-z
6 1/2+x,1/2+y,1/2-z
7 x,-y,1/2+z
8 1/2-x,1/2+y,z
_cell_length_a                   6.4020(2)
_cell_length_b                   21.5818(7)
_cell_length_c                   12.0799(4)
_cell_angle_alpha                90
_cell_angle_beta                 90
_cell_angle_gamma                90
_cell_volume                     1669.04
loop_
_atom_site_label
_atom_site_type_symbol
_atom_site_fract_x
_atom_site_fract_y
_atom_site_fract_z
Co1 Co 0.5000 0.39701(2) 0.2500
N1 N 0.32649(19) 0.31942(6) 0.19186(11)
C1 C 0.4006(2) 0.26266(7) 0.21767(13)
C2 C 0.2964(2) 0.20892(8) 0.18715(14)
H1 H 0.3505 0.1695 0.2071
C3 C 0.1123(2) 0.21348(8) 0.12713(13)
H2 H 0.0387 0.1772 0.1054
C4 C 0.1485(2) 0.32315(8) 0.13373(13)
H3 H 0.0960 0.3630 0.1153
C5 C -0.0626(3) 0.57456(8) 0.09955(14)
C6 C 0.1414(2) 0.55380(7) 0.07319(13)
N2 N -0.2279(2) 0.59226(8) 0.11972(14)
N3 N 0.3065(2) 0.46346(7) 0.17821(11)
N4 N 0.3244(2) 0.59738(6) -0.09833(12)
C7 C 0.2321(2) 0.50456(8) 0.13189(13)
C8 C 0.2435(2) 0.57735(7) -0.02092(14)
C9 C 0.0377(3) 0.27146(9) 0.09940(15)
H4 H -0.0872 0.2758 0.0576
N1B N 0.67351(19) 0.31942(6) 0.30814(11)
C1B C 0.5994(2) 0.26266(7) 0.28233(13)
C2B C 0.7036(2) 0.20892(8) 0.31285(14)
H1B H 0.6495 0.1695 0.2929
C3B C 0.8877(2) 0.21348(8) 0.37287(13)
H2B H 0.9613 0.1772 0.3946
C4B C 0.8515(2) 0.32315(8) 0.36627(13)
H3B H 0.9040 0.3630 0.3847
C9B C 0.9623(3) 0.27146(9) 0.40060(15)
H4B H 1.0872 0.2758 0.4424
C5B C 1.0626(3) 0.57456(8) 0.40045(14)
C6B C 0.8586(2) 0.55380(7) 0.42681(13)
N2B N 1.2279(2) 0.59226(8) 0.38028(14)
N3B N 0.6935(2) 0.46346(7) 0.32179(11)
N4B N 0.6756(2) 0.59738(6) 0.59833(12)
C7B C 0.7679(2) 0.50456(8) 0.36811(13)
C8B C 0.7565(2) 0.57735(7) 0.52092(14)
Co1D Co 0.5000 0.60299(2) -0.2500
Co1D_2 Co 0.5000 0.60299(2) 0.7500
N4D N 0.6756(2) 0.40262(6) 0.09833(12)
N4F N 0.3244(2) 0.40262(6) 0.40167(12)
loop_
_geom_bond_atom_site_label_1
_geom_bond_atom_site_label_2
_geom_bond_site_symmetry_1
_geom_bond_site_symmetry_2
Co1 N1 1_555 1_555
N1 C1 1_555 1_555
C1 C2 1_555 1_555
C2 H1 1_555 1_555
C3 C2 1_555 1_555
H2 C3 1_555 1_555
C4 N1 1_555 1_555
H3 C4 1_555 1_555
C5 C6 1_555 1_555
C6 C7 1_555 1_555
N2 C5 1_555 1_555
N3 Co1 1_555 1_555
N4 C8 1_555 1_555
C7 N3 1_555 1_555
C8 C6 1_555 1_555
C9 C3 1_555 1_555
H4 C9 1_555 1_555
N1B Co1 1_555 1_555
C1B C1 1_555 1_555
C2B C1B 1_555 1_555
H1B C2B 1_555 1_555
C3B C2B 1_555 1_555
H2B C3B 1_555 1_555
C4B N1B 1_555 1_555
H3B C4B 1_555 1_555
C9B C3B 1_555 1_555
H4B C9B 1_555 1_555
C5B C6B 1_555 1_555
C6B C7B 1_555 1_555
N2B C5B 1_555 1_555
N3B Co1 1_555 1_555
N4B C8B 1_555 1_555
C7B N3B 1_555 1_555
C8B C6B 1_555 1_555
Co1D N4 1_555 1_555
Co1D_2 N4B 1_555 1_555
N4D Co1 1_555 1_555
N4F Co1 1_555 1_555
C4 C9 1_555 1_555
N1B C1B 1_555 1_555
C4B C9B 1_555 1_555

#END
