
#######################################################################
#
#                 Cambridge Crystallographic Data Centre
#                                CCDC 
#
#######################################################################
#
# If this CIF has been generated from an entry in the Cambridge 
# Structural Database, then it will include bibliographic, chemical, 
# crystal, experimental, refinement or atomic coordinate data resulting 
# from the CCDC's data processing and validation procedures.
#
#######################################################################

data_VOMYAZ
_symmetry_cell_setting           monoclinic
_symmetry_space_group_name_H-M   'C 2/c'
_symmetry_Int_Tables_number      15
_space_group_name_Hall           '-C 2yn'
loop_
_symmetry_equiv_pos_site_id
_symmetry_equiv_pos_as_xyz
1 x,y,z
2 -x,y,1/2-z
3 1/2+x,1/2+y,z
4 1/2-x,1/2+y,1/2-z
5 -x,-y,-z
6 x,-y,1/2+z
7 1/2-x,1/2-y,-z
8 1/2+x,1/2-y,1/2+z
_cell_length_a                   6.7193(2)
_cell_length_b                   17.0816(5)
_cell_length_c                   12.6142(4)
_cell_angle_alpha                90
_cell_angle_beta                 90.632(3)
_cell_angle_gamma                90
_cell_volume                     1447.72
loop_
_atom_site_label
_atom_site_type_symbol
_atom_site_fract_x
_atom_site_fract_y
_atom_site_fract_z
C1 C 0.2498(3) 0.58566(11) -0.03621(15)
N1 N 0.1672(3) 0.56656(12) 0.05238(14)
C2 C 0.2518(3) 0.51443(11) 0.11273(14)
Co1 Co 0.5000 0.38809(2) 0.2500
N2 N 0.3139(3) 0.60771(10) -0.11417(13)
N3 N 0.3325(2) 0.29043(9) 0.19399(11)
N4 N 0.3175(3) 0.47049(10) 0.17238(13)
C3 C 0.4063(2) 0.21942(11) 0.21789(13)
C4 C 0.3127(3) 0.15154(12) 0.18452(16)
H1 H 0.3674 0.1018 0.2017
C5 C 0.1619(3) 0.29459(13) 0.13851(16)
H2 H 0.1081 0.3448 0.1227
C6 C 0.1389(3) 0.15711(14) 0.12591(18)
H3 H 0.0735 0.1112 0.1013
C7 C 0.0613(3) 0.22951(14) 0.10350(18)
H4 H -0.0598 0.2345 0.0645
N3A N 0.6675(2) 0.29043(9) 0.30601(11)
C3A C 0.5937(2) 0.21942(11) 0.28211(13)
C4A C 0.6873(3) 0.15154(12) 0.31548(16)
H1A H 0.6326 0.1018 0.2983
C5A C 0.8381(3) 0.29459(13) 0.36149(16)
H2A H 0.8919 0.3448 0.3773
C6A C 0.8611(3) 0.15711(14) 0.37409(18)
H3A H 0.9265 0.1112 0.3987
C7A C 0.9387(3) 0.22951(14) 0.39650(18)
H4A H 1.0598 0.2345 0.4355
C1A C 0.7502(3) 0.58566(11) 0.53621(15)
N1A N 0.8328(3) 0.56656(12) 0.44762(14)
C2A C 0.7482(3) 0.51443(11) 0.38727(14)
N2A N 0.6861(3) 0.60771(10) 0.61417(13)
N4A N 0.6825(3) 0.47049(10) 0.32762(13)
Co1D Co 0.5000 0.61191(2) -0.2500
Co1D_2 Co 0.5000 0.61191(2) 0.7500
N2D N 0.6861(3) 0.39229(10) 0.11417(13)
N2E N 0.3139(3) 0.39229(10) 0.38583(13)
loop_
_geom_bond_atom_site_label_1
_geom_bond_atom_site_label_2
_geom_bond_site_symmetry_1
_geom_bond_site_symmetry_2
C1 N1 1_555 1_555
N1 C2 1_555 1_555
C2 N4 1_555 1_555
Co1 N3 1_555 1_555
N2 C1 1_555 1_555
N3 C3 1_555 1_555
N4 Co1 1_555 1_555
C3 C4 1_555 1_555
C4 H1 1_555 1_555
C5 N3 1_555 1_555
H2 C5 1_555 1_555
C6 C4 1_555 1_555
H3 C6 1_555 1_555
C7 C5 1_555 1_555
H4 C7 1_555 1_555
N3A Co1 1_555 1_555
C3A C3 1_555 1_555
C4A C3A 1_555 1_555
H1A C4A 1_555 1_555
C5A N3A 1_555 1_555
H2A C5A 1_555 1_555
C6A C4A 1_555 1_555
H3A C6A 1_555 1_555
C7A C5A 1_555 1_555
H4A C7A 1_555 1_555
C1A N1A 1_555 1_555
N1A C2A 1_555 1_555
C2A N4A 1_555 1_555
N2A C1A 1_555 1_555
N4A Co1 1_555 1_555
Co1D N2 1_555 1_555
Co1D_2 N2A 1_555 1_555
N2D Co1 1_555 1_555
N2E Co1 1_555 1_555
C6 C7 1_555 1_555
N3A C3A 1_555 1_555
C6A C7A 1_555 1_555

#END
