
#######################################################################
#
#                 Cambridge Crystallographic Data Centre
#                                CCDC 
#
#######################################################################
#
# If this CIF has been generated from an entry in the Cambridge 
# Structural Database, then it will include bibliographic, chemical, 
# crystal, experimental, refinement or atomic coordinate data resulting 
# from the CCDC's data processing and validation procedures.
#
#######################################################################

data_VOMYIF
_symmetry_cell_setting           triclinic
_symmetry_space_group_name_H-M   'P -1'
_symmetry_Int_Tables_number      2
_space_group_name_Hall           '-P 1'
loop_
_symmetry_equiv_pos_site_id
_symmetry_equiv_pos_as_xyz
1 x,y,z
2 -x,-y,-z
_cell_length_a                   3.786(2)
_cell_length_b                   10.804(5)
_cell_length_c                   11.508(5)
_cell_angle_alpha                105.02(3)
_cell_angle_beta                 92.37(4)
_cell_angle_gamma                98.24(4)
_cell_volume                     448.427
loop_
_atom_site_label
_atom_site_type_symbol
_atom_site_fract_x
_atom_site_fract_y
_atom_site_fract_z
Tl1 Tl 0.14059(5) 0.42671(2) 0.13951(2)
N1 N 0.7661(9) 0.8429(4) 0.1889(4)
C1 C 0.701(1) 0.9146(6) 0.1013(6)
H1 H 0.814(1) 1.0036(6) 0.1305(6)
H2 H 0.796(1) 0.8751(6) 0.0271(6)
H3 H 0.447(1) 0.9110(6) 0.0875(6)
C2 C 0.6269(9) 0.7126(5) 0.1639(5)
O1 O 0.449(1) 0.6587(5) 0.0653(4)
N2 N 0.6876(9) 0.6454(5) 0.2450(4)
C3 C 0.877(1) 0.7062(5) 0.3500(4)
N3 N 0.929(1) 0.6375(6) 0.4270(5)
H4 H 1.058(1) 0.6759(6) 0.4979(5)
H5 H 0.837(1) 0.5526(6) 0.4088(5)
C4 C 1.029(1) 0.8415(5) 0.3779(5)
H6 H 1.164(1) 0.8849(5) 0.4534(5)
C5 C 0.964(1) 0.9044(5) 0.2955(5)
H7 H 1.059(1) 0.9949(5) 0.3115(5)
N4 N 0.509(1) 0.2444(5) 0.2956(4)
O2 O 0.612(1) 0.3635(5) 0.3227(6)
O3 O 0.332(1) 0.1917(6) 0.1979(5)
O4 O 0.584(1) 0.1787(6) 0.3633(5)
Tl1A Tl -0.14059(5) 0.57329(2) -0.13951(2)
O1A O -0.449(1) 0.3413(5) -0.0653(4)
O1A_2 O 0.551(1) 0.3413(5) -0.0653(4)
N2_2 N -0.3124(9) 0.6454(5) 0.2450(4)
O2_2 O -0.388(1) 0.3635(5) 0.3227(6)
Tl1A_2 Tl 0.85941(5) 0.57329(2) -0.13951(2)
Tl1_2 Tl 1.14059(5) 0.42671(2) 0.13951(2)
loop_
_geom_bond_atom_site_label_1
_geom_bond_atom_site_label_2
_geom_bond_site_symmetry_1
_geom_bond_site_symmetry_2
Tl1 O1 1_555 1_555
N1 C1 1_555 1_555
C1 H1 1_555 1_555
H2 C1 1_555 1_555
H3 C1 1_555 1_555
C2 N1 1_555 1_555
O1 C2 1_555 1_555
N2 Tl1 1_555 1_555
C3 N2 1_555 1_555
N3 C3 1_555 1_555
H4 N3 1_555 1_555
H5 N3 1_555 1_555
C4 C3 1_555 1_555
H6 C4 1_555 1_555
C5 N1 1_555 1_555
H7 C5 1_555 1_555
N4 O2 1_555 1_555
O2 Tl1 1_555 1_555
O3 Tl1 1_555 1_555
O4 N4 1_555 1_555
Tl1A O1 1_555 1_555
O1A Tl1 1_555 1_555
O1A_2 Tl1 1_555 1_555
N2_2 Tl1 1_555 1_555
O2_2 Tl1 1_555 1_555
Tl1A_2 O1 1_555 1_555
Tl1_2 N2 1_555 1_555
C2 N2 1_555 1_555
C4 C5 1_555 1_555
N4 O3 1_555 1_555
O2 Tl1_2 1_555 1_555
Tl1A O1A 1_555 1_555
O1A_2 Tl1_2 1_555 1_555
O1A_2 Tl1A_2 1_555 1_555

#END
