
#######################################################################
#
#                 Cambridge Crystallographic Data Centre
#                                CCDC 
#
#######################################################################
#
# If this CIF has been generated from an entry in the Cambridge 
# Structural Database, then it will include bibliographic, chemical, 
# crystal, experimental, refinement or atomic coordinate data resulting 
# from the CCDC's data processing and validation procedures.
#
#######################################################################

data_VONBIK
_symmetry_cell_setting           monoclinic
_symmetry_space_group_name_H-M   'P 21/n'
_symmetry_Int_Tables_number      14
_space_group_name_Hall           '-P 2yn'
loop_
_symmetry_equiv_pos_site_id
_symmetry_equiv_pos_as_xyz
1 x,y,z
2 1/2-x,1/2+y,1/2-z
3 -x,-y,-z
4 1/2+x,1/2-y,1/2+z
_cell_length_a                   17.309(3)
_cell_length_b                   16.441(2)
_cell_length_c                   18.128(3)
_cell_angle_alpha                90
_cell_angle_beta                 92.439(3)
_cell_angle_gamma                90
_cell_volume                     5154.14
loop_
_atom_site_label
_atom_site_type_symbol
_atom_site_fract_x
_atom_site_fract_y
_atom_site_fract_z
Zn1 Zn 0.27597(3) 0.50093(3) 0.77244(3)
Zn2 Zn 0.29169(3) -0.00625(3) 0.20914(2)
O1 O -0.18637(17) -0.51630(18) 0.59543(16)
N1 N 0.25581(17) 0.20018(18) 0.32783(16)
O2 O -0.00044(19) -0.36644(19) 0.33179(15)
N2 N 0.25233(18) 0.28462(19) 0.66326(16)
O3 O -0.13614(18) -0.40861(18) 0.65063(16)
O4 O 0.18965(18) -0.07397(17) 0.20646(16)
N3 N 0.38405(18) 0.03364(19) 0.27827(17)
O5 O 0.49025(19) 0.61755(19) 1.16962(16)
C1 C 0.2843(2) 0.3551(2) 0.68756(19)
O6 O 0.26470(19) -0.0991(2) 0.30263(19)
O7 O 0.2819(2) 0.4728(2) 0.90109(19)
C2 C -0.1439(2) -0.4530(2) 0.5944(2)
C3 C 0.2641(3) 0.2100(2) 0.4649(2)
H1 H 0.3064 0.1725 0.4753
H2 H 0.2165 0.1788 0.4614
C4 C 0.2759(2) 0.2523(2) 0.39199(19)
H3 H 0.2443 0.3011 0.3893
H4 H 0.3296 0.2688 0.3900
N4 N 0.36715(19) 0.4663(2) 0.70513(19)
O8 O 0.34829(19) 0.5650(2) 0.84456(17)
N5 N 0.24076(18) 0.3883(2) 0.73853(16)
C5 C 0.2922(2) 0.1345(2) 0.30074(18)
C6 C 0.1860(2) 0.2724(3) 0.7008(2)
H5 H 0.1523 0.2285 0.6958
N6 N 0.24824(18) 0.10131(19) 0.24682(17)
C7 C 0.2743(2) 0.2311(2) 0.60221(18)
H6 H 0.2448 0.1810 0.6039
H7 H 0.3287 0.2173 0.6086
C8 C 0.3692(2) 0.1008(2) 0.31898(19)
C9 C 0.2042(2) -0.1125(2) 0.2657(2)
C10 C 0.1487(2) -0.1759(2) 0.2895(2)
C11 C 0.6369(2) 0.8150(2) 1.2048(2)
C12 C 0.4551(2) 0.5973(3) 1.1020(2)
C13 C 0.3326(3) 0.5264(3) 0.9027(3)
C14 C 0.0488(2) -0.3000(2) 0.3242(2)
C15 C -0.0306(2) -0.3859(2) 0.3988(2)
C16 C 0.4242(2) 0.1311(3) 0.3690(2)
H8 H 0.4135 0.1764 0.3975
C17 C 0.0265(2) -0.2448(3) 0.2700(2)
H9 H -0.0218 -0.2487 0.2458
C18 C -0.1134(3) -0.4760(3) 0.4617(2)
H10 H -0.1450 -0.5219 0.4611
C19 C 0.2600(2) 0.2709(2) 0.52759(19)
H11 H 0.2983 0.3132 0.5212
H12 H 0.2094 0.2963 0.5258
C20 C 0.5389(2) 0.6848(3) 1.1766(2)
C21 C 0.3570(2) 0.3950(2) 0.66881(19)
C22 C 0.1823(2) 0.1468(3) 0.2391(2)
H13 H 0.1413 0.1369 0.2055
C23 C 0.3759(2) 0.5493(2) 0.9727(2)
C24 C 0.0769(2) -0.1839(3) 0.2525(2)
H14 H 0.0628 -0.1474 0.2151
C25 C -0.0773(3) -0.4537(3) 0.3979(3)
H15 H -0.0845 -0.4843 0.3550
C26 C 0.5705(2) 0.8054(3) 1.2435(2)
H16 H 0.5590 0.8432 1.2796
C27 C 0.5208(2) 0.7413(3) 1.2298(2)
H17 H 0.4759 0.7360 1.2559
C28 C 0.4657(3) 0.6382(3) 1.0378(2)
H18 H 0.4989 0.6826 1.0373
C29 C -0.0191(3) -0.3415(3) 0.4626(2)
H19 H 0.0131 -0.2962 0.4635
C30 C 0.5106(3) 0.0274(3) 0.3339(3)
H20 H 0.5585 0.0017 0.3380
C31 C 0.4125(2) 0.3655(3) 0.6239(2)
H21 H 0.4050 0.3164 0.5991
C32 C -0.1034(2) -0.4314(2) 0.5261(2)
C33 C 0.1686(2) -0.2311(3) 0.3451(2)
H22 H 0.2159 -0.2259 0.3710
C34 C 0.6535(2) 0.7577(3) 1.1514(2)
H23 H 0.6977 0.7638 1.1244
C35 C 0.4532(2) -0.0009(3) 0.2848(3)
H24 H 0.4636 -0.0456 0.2554
C36 C 0.1865(2) 0.2090(3) 0.2886(2)
H25 H 0.1498 0.2494 0.2947
C37 C 0.1189(3) -0.2938(3) 0.3625(2)
H26 H 0.1327 -0.3310 0.3993
C38 C 0.4797(3) 0.4096(3) 0.6160(3)
H27 H 0.5175 0.3910 0.5852
C39 C 0.6055(3) 0.6916(3) 1.1377(3)
H28 H 0.6178 0.6525 1.1030
C40 C 0.4040(3) 0.5328(3) 1.1029(3)
H29 H 0.3960 0.5055 1.1469
C41 C -0.0560(3) -0.3649(3) 0.5257(2)
H30 H -0.0484 -0.3347 0.5688
C42 C 0.4954(3) 0.0935(3) 0.3761(2)
H31 H 0.5330 0.1133 0.4097
C43 C 0.1793(2) 0.3376(3) 0.7469(2)
H32 H 0.1394 0.3460 0.7788
C44 C 0.4269(3) 0.6133(3) 0.9729(2)
H33 H 0.4356 0.6404 0.9290
C45 C 0.4325(3) 0.5068(3) 0.6984(3)
H34 H 0.4398 0.5548 0.7250
C46 C 0.4897(3) 0.4812(3) 0.6542(3)
H35 H 0.5346 0.5117 0.6500
C47 C 0.3651(3) 0.5091(3) 1.0388(3)
H36 H 0.3310 0.4654 1.0398
C48 C 0.6913(3) 0.8838(3) 1.2229(3)
O9 O 0.67600(18) 0.93173(18) 1.2741(2)
O11 O 0.7510(2) 0.8930(2) 1.1879(2)
Zn1C Zn 0.77597(3) 0.99907(3) 1.27244(3)
Zn2C Zn -0.20831(3) -0.49375(3) 0.70914(2)
O1C O 0.31363(17) 0.01630(18) 0.09543(16)
O3C O 0.36386(18) -0.09139(18) 0.15063(16)
O9C O 0.17600(18) 0.56827(18) 0.7741(2)
O11C O 0.2510(2) 0.6070(2) 0.6879(2)
O10 O 0.1219(2) -0.0836(2) 0.0604(2)
H38 H 0.154(6) -0.084(7) 0.093(5)
H39 H 0.112(6) -0.041(4) 0.040(6)
O12 O 0.4894(2) 0.2949(2) 0.4588(2)
H37 H 0.528(4) 0.305(7) 0.437(6)
H50 H 0.453(4) 0.325(6) 0.454(7)
O13 O 0.6421(3) 0.3137(3) 0.4040(4)
H51 H 0.658(4) 0.268(3) 0.412(7)
H52 H 0.665(6) 0.341(5) 0.375(6)
O14 O 0.3664(3) -0.0988(3) 0.4297(2)
H41 H 0.394(6) -0.137(5) 0.421(7)
H42 H 0.327(4) -0.094(7) 0.406(6)
O15 O 0.1331(3) 0.5397(3) 0.9716(3)
H45 H 0.125(8) 0.506(6) 1.003(6)
H46 H 0.165(6) 0.530(8) 0.942(6)
O16 O 0.5190(3) 0.8350(3) 1.4351(2)
H44 H 0.549(6) 0.870(5) 1.448(7)
H47 H 0.514(7) 0.797(5) 1.462(6)
O17 O 0.2016(4) 0.3319(3) 0.9499(3)
H48 H 0.227(7) 0.367(5) 0.932(6)
H49 H 0.182(7) 0.341(7) 0.988(4)
O18 O 0.1689(3) 0.0732(5) 0.0289(5)
H40 H 0.181(7) 0.068(6) -0.013(2)
H43 H 0.204(5) 0.078(9) 0.060(4)
loop_
_geom_bond_atom_site_label_1
_geom_bond_atom_site_label_2
_geom_bond_site_symmetry_1
_geom_bond_site_symmetry_2
Zn1 O7 1_555 1_555
Zn2 O4 1_555 1_555
O1 C2 1_555 1_555
N1 C4 1_555 1_555
O2 C14 1_555 1_555
N2 C1 1_555 1_555
O3 C2 1_555 1_555
O4 C9 1_555 1_555
N3 Zn2 1_555 1_555
O5 C12 1_555 1_555
C1 N5 1_555 1_555
O6 Zn2 1_555 1_555
O7 C13 1_555 1_555
C2 C32 1_555 1_555
C3 H1 1_555 1_555
H2 C3 1_555 1_555
C4 C3 1_555 1_555
H3 C4 1_555 1_555
H4 C4 1_555 1_555
N4 Zn1 1_555 1_555
O8 Zn1 1_555 1_555
N5 Zn1 1_555 1_555
C5 N1 1_555 1_555
C6 N2 1_555 1_555
H5 C6 1_555 1_555
N6 Zn2 1_555 1_555
C7 N2 1_555 1_555
H6 C7 1_555 1_555
H7 C7 1_555 1_555
C8 N3 1_555 1_555
C9 O6 1_555 1_555
C10 C9 1_555 1_555
C11 C26 1_555 1_555
C12 C28 1_555 1_555
C13 O8 1_555 1_555
C14 C17 1_555 1_555
C15 O2 1_555 1_555
C16 C8 1_555 1_555
H8 C16 1_555 1_555
C17 H9 1_555 1_555
C18 H10 1_555 1_555
C19 C3 1_555 1_555
H11 C19 1_555 1_555
H12 C19 1_555 1_555
C20 O5 1_555 1_555
C21 C1 1_555 1_555
C22 N6 1_555 1_555
H13 C22 1_555 1_555
C23 C13 1_555 1_555
C24 C10 1_555 1_555
H14 C24 1_555 1_555
C25 C15 1_555 1_555
H15 C25 1_555 1_555
C26 H16 1_555 1_555
C27 C20 1_555 1_555
H17 C27 1_555 1_555
C28 H18 1_555 1_555
C29 C15 1_555 1_555
H19 C29 1_555 1_555
C30 H20 1_555 1_555
C31 C21 1_555 1_555
H21 C31 1_555 1_555
C32 C18 1_555 1_555
C33 C10 1_555 1_555
H22 C33 1_555 1_555
C34 C11 1_555 1_555
H23 C34 1_555 1_555
C35 N3 1_555 1_555
H24 C35 1_555 1_555
C36 N1 1_555 1_555
H25 C36 1_555 1_555
C37 C14 1_555 1_555
H26 C37 1_555 1_555
C38 C31 1_555 1_555
H27 C38 1_555 1_555
C39 C20 1_555 1_555
H28 C39 1_555 1_555
C40 C12 1_555 1_555
H29 C40 1_555 1_555
C41 C29 1_555 1_555
H30 C41 1_555 1_555
C42 C16 1_555 1_555
H31 C42 1_555 1_555
C43 N5 1_555 1_555
H32 C43 1_555 1_555
C44 C23 1_555 1_555
H33 C44 1_555 1_555
C45 N4 1_555 1_555
H34 C45 1_555 1_555
C46 C38 1_555 1_555
H35 C46 1_555 1_555
C47 C23 1_555 1_555
H36 C47 1_555 1_555
C48 C11 1_555 1_555
O9 C48 1_555 1_555
O10 H38 1_555 1_555
O11 C48 1_555 1_555
O12 H37 1_555 1_555
O13 H51 1_555 1_555
O14 H41 1_555 1_555
O15 H45 1_555 1_555
O16 H44 1_555 1_555
O17 H48 1_555 1_555
O18 H40 1_555 1_555
H39 O10 1_555 1_555
H42 O14 1_555 1_555
H43 O18 1_555 1_555
H46 O15 1_555 1_555
H47 O16 1_555 1_555
H49 O17 1_555 1_555
H50 O12 1_555 1_555
H52 O13 1_555 1_555
Zn1C O9 1_555 1_555
Zn2C O1 1_555 1_555
O1C Zn2 1_555 1_555
O3C Zn2 1_555 1_555
O9C Zn1 1_555 1_555
O11C Zn1 1_555 1_555
O3 Zn2C 1_555 1_555
N4 C21 1_555 1_555
C5 N6 1_555 1_555
C5 C8 1_555 1_555
C6 C43 1_555 1_555
C7 C19 1_555 1_555
C17 C24 1_555 1_555
C18 C25 1_555 1_555
C22 C36 1_555 1_555
C26 C27 1_555 1_555
C28 C44 1_555 1_555
C30 C35 1_555 1_555
C30 C42 1_555 1_555
C32 C41 1_555 1_555
C33 C37 1_555 1_555
C34 C39 1_555 1_555
C40 C47 1_555 1_555
C45 C46 1_555 1_555
O11 Zn1C 1_555 1_555

#END
