
#######################################################################
#
#                 Cambridge Crystallographic Data Centre
#                                CCDC 
#
#######################################################################
#
# If this CIF has been generated from an entry in the Cambridge 
# Structural Database, then it will include bibliographic, chemical, 
# crystal, experimental, refinement or atomic coordinate data resulting 
# from the CCDC's data processing and validation procedures.
#
#######################################################################

data_VONBIL
_symmetry_cell_setting           monoclinic
_symmetry_space_group_name_H-M   'C 2/c'
_symmetry_Int_Tables_number      15
_space_group_name_Hall           '-C 2yn'
loop_
_symmetry_equiv_pos_site_id
_symmetry_equiv_pos_as_xyz
1 x,y,z
2 -x,y,1/2-z
3 1/2+x,1/2+y,z
4 1/2-x,1/2+y,1/2-z
5 -x,-y,-z
6 x,-y,1/2+z
7 1/2-x,1/2-y,-z
8 1/2+x,1/2-y,1/2+z
_cell_length_a                   15.9924(8)
_cell_length_b                   10.3620(5)
_cell_length_c                   29.014(2)
_cell_angle_alpha                90
_cell_angle_beta                 90.826(6)
_cell_angle_gamma                90
_cell_volume                     4807.5
loop_
_atom_site_label
_atom_site_type_symbol
_atom_site_fract_x
_atom_site_fract_y
_atom_site_fract_z
Ag1 Ag 0.461448(19) 0.73088(3) 0.053897(10)
N1 N 0.40226(19) 0.5334(3) 0.06141(11)
N2 N 0.4399(2) -0.0931(3) 0.09708(12)
N3 N 0.3139(2) 0.2035(3) 0.19940(12)
H1 H 0.3359 0.2800 0.1945
H2 H 0.2747 0.1940 0.2201
N4 N 0.5236(2) 0.2023(3) 0.02027(11)
N5 N 0.6126(2) 0.2021(4) 0.17810(11)
H3 H 0.5681 0.2158 0.1949
H4 H 0.6619 0.1924 0.1915
C1 C 0.3282(2) 0.5039(3) 0.03926(12)
C2 C 0.2965(2) 0.5874(4) 0.00457(13)
H5 H 0.3276 0.6613 -0.0041
C3 C 0.2212(2) 0.5620(4) -0.01641(13)
H6 H 0.2007 0.6182 -0.0398
C4 C 0.1739(2) 0.4541(4) -0.00378(14)
H7 H 0.1207 0.4395 -0.0178
C5 C 0.2042(2) 0.3697(4) 0.02876(13)
H8 H 0.1721 0.2961 0.0368
C6 C 0.2828(2) 0.3911(4) 0.05042(12)
C7 C 0.3197(2) 0.3027(3) 0.08208(12)
H9 H 0.2911 0.2255 0.0898
C8 C 0.3965(2) 0.3288(3) 0.10146(12)
C9 C 0.4336(2) 0.4492(4) 0.09102(12)
H10 H 0.4845 0.4708 0.1064
C10 C 0.4465(2) 0.2350(3) 0.13143(12)
H11 H 0.4584 0.2794 0.1614
C11 C 0.4008(2) 0.1098(3) 0.14245(12)
C12 C 0.4219(2) -0.0023(4) 0.11746(13)
C13 C 0.3401(3) 0.1010(4) 0.17517(15)
C14 C 0.2962(3) -0.0238(4) 0.18590(15)
H12 H 0.2896 -0.0317 0.2193
H13 H 0.3295 -0.0964 0.1746
H14 H 0.2411 -0.0247 0.1708
C15 C 0.5307(2) 0.2102(3) 0.10866(12)
C16 C 0.5291(2) 0.2046(4) 0.05991(13)
C17 C 0.6052(2) 0.1960(4) 0.13184(13)
C18 C 0.6852(2) 0.1726(4) 0.10694(13)
H15 H 0.7177 0.1060 0.1231
H16 H 0.7177 0.2527 0.1060
H17 H 0.6725 0.1437 0.0754
N6 N 0.5930(3) 0.6671(5) 0.10794(18)
C19 C 0.6050(4) 0.7460(6) 0.1345(2)
C20 C 0.6188(4) 0.8505(6) 0.1668(2)
H18 H 0.5820 0.8395 0.1933
H19 H 0.6065 0.9329 0.1517
H20 H 0.6772 0.8497 0.1775
Ag1_2 Ag 0.461448(19) -0.26912(3) 0.053897(10)
Ag1D Ag 0.538552(19) 0.26912(3) -0.053897(10)
N2_2 N 0.4399(2) 0.9069(3) 0.09708(12)
N4D N 0.4764(2) 0.7977(3) -0.02027(11)
Cl1 Cl 0.13823(7) 0.09818(11) 0.28728(4)
O1 O 0.22172(19) 0.1519(4) 0.28209(11)
O2 O 0.1199(2) -0.0369(3) 0.29508(12)
O3 O 0.0797(4) 0.1825(7) 0.3144(3)
O4 O 0.0913(4) 0.1277(8) 0.2387(3)
O7 O 0.0000 -0.1877(4) 0.2500
H21 H 0.036(3) -0.143(5) 0.2601(19)
H21A H -0.036(3) -0.143(5) 0.2399(19)
O5? O 0.1123(6) 0.1650(11) 0.3367(4)
O6? O 0.0783(11) 0.175(2) 0.2629(8)
loop_
_geom_bond_atom_site_label_1
_geom_bond_atom_site_label_2
_geom_bond_site_symmetry_1
_geom_bond_site_symmetry_2
Ag1 N1 1_555 1_555
N1 C1 1_555 1_555
N2 C12 1_555 1_555
N3 H1 1_555 1_555
H2 N3 1_555 1_555
N4 C16 1_555 1_555
N5 H3 1_555 1_555
H4 N5 1_555 1_555
C1 C2 1_555 1_555
C2 H5 1_555 1_555
C3 C2 1_555 1_555
H6 C3 1_555 1_555
C4 C3 1_555 1_555
H7 C4 1_555 1_555
C5 C4 1_555 1_555
H8 C5 1_555 1_555
C6 C1 1_555 1_555
C7 C6 1_555 1_555
H9 C7 1_555 1_555
C8 C7 1_555 1_555
C9 N1 1_555 1_555
H10 C9 1_555 1_555
C10 C8 1_555 1_555
H11 C10 1_555 1_555
C11 C10 1_555 1_555
C12 C11 1_555 1_555
C13 N3 1_555 1_555
C14 C13 1_555 1_555
H12 C14 1_555 1_555
H13 C14 1_555 1_555
H14 C14 1_555 1_555
C15 C10 1_555 1_555
C16 C15 1_555 1_555
C17 N5 1_555 1_555
C18 C17 1_555 1_555
H15 C18 1_555 1_555
H16 C18 1_555 1_555
H17 C18 1_555 1_555
N6 Ag1 1_555 1_555
C19 N6 1_555 1_555
C20 C19 1_555 1_555
H18 C20 1_555 1_555
H19 C20 1_555 1_555
H20 C20 1_555 1_555
Cl1 O1 1_555 1_555
O2 Cl1 1_555 1_555
O3 Cl1 1_555 1_555
O4 Cl1 1_555 1_555
O7 H21 1_555 1_555
Ag1_2 N2 1_555 1_555
Ag1D N4 1_555 1_555
N2_2 Ag1 1_555 1_555
N4D Ag1 1_555 1_555
H21A O7 1_555 1_555
C5 C6 1_555 1_555
C8 C9 1_555 1_555
C11 C13 1_555 1_555
C15 C17 1_555 1_555

#END
