
#######################################################################
#
#                 Cambridge Crystallographic Data Centre
#                                CCDC 
#
#######################################################################
#
# If this CIF has been generated from an entry in the Cambridge 
# Structural Database, then it will include bibliographic, chemical, 
# crystal, experimental, refinement or atomic coordinate data resulting 
# from the CCDC's data processing and validation procedures.
#
#######################################################################

data_VONBUX02
_symmetry_cell_setting           monoclinic
_symmetry_space_group_name_H-M   'C 2/c'
_symmetry_Int_Tables_number      15
_space_group_name_Hall           '-C 2yn'
loop_
_symmetry_equiv_pos_site_id
_symmetry_equiv_pos_as_xyz
1 x,y,z
2 -x,y,1/2-z
3 1/2+x,1/2+y,z
4 1/2-x,1/2+y,1/2-z
5 -x,-y,-z
6 x,-y,1/2+z
7 1/2-x,1/2-y,-z
8 1/2+x,1/2-y,1/2+z
_cell_length_a                   19.782(4)
_cell_length_b                   8.430(3)
_cell_length_c                   7.7146(12)
_cell_angle_alpha                90
_cell_angle_beta                 128.672(12)
_cell_angle_gamma                90
_cell_volume                     1004.42
loop_
_atom_site_label
_atom_site_type_symbol
_atom_site_fract_x
_atom_site_fract_y
_atom_site_fract_z
Zn1 Zn 0.5000 1.0465(2) 0.2500
P1 P 0.39867(15) 0.8017(4) 0.2761(4)
O1 O 0.4794(4) 0.8170(9) 0.5185(10)
O2 O 0.3980(4) 0.9233(10) 0.1325(11)
O3 O 0.3980(4) 0.6379(10) 0.1980(10)
H1 H 0.4044 0.5587 0.2711
C1 C 0.3080(6) 0.8188(14) 0.2714(15)
H2 H 0.3126 0.9143 0.3483
H3 H 0.2548 0.8239 0.1195
C2 C 0.3078(7) 0.6715(16) 0.3881(17)
H4 H 0.2948 0.5793 0.2967
H5 H 0.3655 0.6572 0.5277
C3 C 0.2442(7) 0.6779(16) 0.4344(17)
H6 H 0.1858 0.6776 0.2945
H7 H 0.2510 0.5835 0.5159
P1F P 0.10133(15) 0.6983(4) 0.7239(4)
O1F O 0.0206(4) 0.6830(9) 0.4815(10)
O2F O 0.1020(4) 0.5767(10) 0.8675(11)
O3F O 0.1020(4) 0.8621(10) 0.8020(10)
H1F H 0.0956 0.9413 0.7289
C1F C 0.1920(6) 0.6812(14) 0.7286(15)
H2F H 0.1874 0.5857 0.6517
H3F H 0.2452 0.6761 0.8805
C2F C 0.1922(7) 0.8285(16) 0.6119(17)
H4F H 0.2052 0.9207 0.7033
H5F H 0.1345 0.8428 0.4723
C3F C 0.2558(7) 0.8221(16) 0.5656(17)
H6F H 0.3142 0.8224 0.7055
H7F H 0.2490 0.9165 0.4841
Zn1B Zn 0.0000 0.5465(2) 0.2500
Zn1D Zn 0.5000 0.9535(2) 0.7500
Zn1F Zn 0.0000 0.4535(2) 0.7500
O1D O 0.5206(4) 1.1830(9) 0.4815(10)
O1E O 0.4794(4) 1.1830(9) 0.0185(10)
O2A O 0.6020(4) 0.9233(10) 0.3675(11)
O4 O 0.4147(5) 0.3939(12) 0.4043(12)
H8 H 0.4084 0.3839 0.4973
H9 H 0.4438 0.3279 0.4107
loop_
_geom_bond_atom_site_label_1
_geom_bond_atom_site_label_2
_geom_bond_site_symmetry_1
_geom_bond_site_symmetry_2
Zn1 O2 1_555 1_555
P1 O1 1_555 1_555
O1 Zn1D 1_555 1_555
O2 P1 1_555 1_555
O3 P1 1_555 1_555
H1 O3 1_555 1_555
C1 P1 1_555 1_555
H2 C1 1_555 1_555
H3 C1 1_555 1_555
C2 C1 1_555 1_555
H4 C2 1_555 1_555
H5 C2 1_555 1_555
C3 C2 1_555 1_555
H6 C3 1_555 1_555
H7 C3 1_555 1_555
O4 H8 1_555 1_555
H9 O4 1_555 1_555
P1F O1F 1_555 1_555
O1F Zn1B 1_555 1_555
O2F P1F 1_555 1_555
O3F P1F 1_555 1_555
H1F O3F 1_555 1_555
C1F P1F 1_555 1_555
H2F C1F 1_555 1_555
H3F C1F 1_555 1_555
C2F C1F 1_555 1_555
H4F C2F 1_555 1_555
H5F C2F 1_555 1_555
C3F C3 1_555 1_555
H6F C3F 1_555 1_555
H7F C3F 1_555 1_555
Zn1F O2F 1_555 1_555
O1D Zn1 1_555 1_555
O1E Zn1 1_555 1_555
O2A Zn1 1_555 1_555
C2F C3F 1_555 1_555

#END
