
#######################################################################
#
#                 Cambridge Crystallographic Data Centre
#                                CCDC 
#
#######################################################################
#
# If this CIF has been generated from an entry in the Cambridge 
# Structural Database, then it will include bibliographic, chemical, 
# crystal, experimental, refinement or atomic coordinate data resulting 
# from the CCDC's data processing and validation procedures.
#
#######################################################################

data_VONBEG
_symmetry_cell_setting           monoclinic
_symmetry_space_group_name_H-M   'P 21/c'
_symmetry_Int_Tables_number      14
_space_group_name_Hall           '-P 2ybc'
loop_
_symmetry_equiv_pos_site_id
_symmetry_equiv_pos_as_xyz
1 x,y,z
2 -x,1/2+y,1/2-z
3 -x,-y,-z
4 x,1/2-y,1/2+z
_cell_length_a                   11.7140(4)
_cell_length_b                   16.0590(4)
_cell_length_c                   11.2640(5)
_cell_angle_alpha                90
_cell_angle_beta                 96.4820(10)
_cell_angle_gamma                90
_cell_volume                     2105.38
loop_
_atom_site_label
_atom_site_type_symbol
_atom_site_fract_x
_atom_site_fract_y
_atom_site_fract_z
Cd1 Cd 0.511767(12) 0.454350(9) 0.152860(12)
O1 O -0.37762(11) 0.01642(9) 0.50686(12)
O2 O 0.39117(12) 0.34834(9) 0.11499(12)
O3 O -0.32414(13) 0.14154(10) 0.57113(15)
N1 N 0.52546(16) 0.62997(12) 0.44486(17)
O4 O 0.42395(15) 0.35688(11) 0.30993(14)
O5 O 0.07801(14) 0.05046(9) 0.25710(17)
N2 N 0.48869(15) 0.56792(11) 0.27063(16)
N3 N 0.65737(16) 0.44904(11) 0.32030(17)
C1 C 0.29860(15) 0.24994(12) 0.22789(17)
C2 C -0.20419(16) 0.07101(13) 0.44741(18)
C3 C 0.64325(17) 0.50448(14) 0.40683(18)
C4 C 0.55251(18) 0.56575(13) 0.37555(18)
C5 C 0.37698(16) 0.32252(12) 0.21765(18)
C6 C -0.08121(18) -0.00843(14) 0.33293(19)
H1 H -0.0628 -0.0586 0.2985
C7 C 0.4417(2) 0.67503(15) 0.3809(2)
H2 H 0.4064 0.7228 0.4059
C8 C 0.30879(17) 0.20142(13) 0.32968(18)
H3 H 0.3651 0.2138 0.3922
C9 C -0.17723(17) -0.00280(13) 0.39263(18)
H4 H -0.2246 -0.0490 0.3963
C10 C 0.41964(19) 0.63680(14) 0.2740(2)
H5 H 0.3658 0.6544 0.2121
C11 C 0.23629(19) 0.13477(14) 0.3395(2)
H6 H 0.2448 0.1014 0.4074
C12 C -0.13234(18) 0.13898(14) 0.4407(2)
H7 H -0.1481 0.1883 0.4790
C13 C -0.30862(17) 0.07823(14) 0.51232(18)
C14 C -0.01210(17) 0.06092(14) 0.3243(2)
C15 C -0.03749(19) 0.13482(15) 0.3780(2)
H8 H 0.0087 0.1814 0.3721
C16 C 0.1407(2) 0.16450(17) 0.1456(2)
H9 H 0.0841 0.1518 0.0836
C17 C 0.15157(18) 0.11819(14) 0.2484(2)
C18 C 0.7409(2) 0.39273(17) 0.3414(2)
H10 H 0.7511 0.3541 0.2820
C19 C 0.21511(19) 0.23059(16) 0.1351(2)
H11 H 0.2088 0.2621 0.0654
C20 C 0.7968(3) 0.4447(2) 0.5343(3)
H12 H 0.8438 0.4428 0.6065
C21 C 0.8120(3) 0.3890(2) 0.4457(3)
H13 H 0.8700 0.3492 0.4565
C22 C 0.7110(2) 0.50357(18) 0.5157(2)
H14 H 0.6989 0.5418 0.5750
H15 H 0.554(3) 0.6376(19) 0.519(3)
Cd1A Cd -0.511767(12) -0.045650(9) 0.347140(12)
Cd1C Cd -0.488233(12) 0.045650(9) 0.652860(12)
O1A O 0.37762(11) 0.51642(9) -0.00686(12)
O1C O 0.62238(11) 0.48358(9) 0.00686(12)
O3C O 0.67586(13) 0.35846(10) 0.07113(15)
loop_
_geom_bond_atom_site_label_1
_geom_bond_atom_site_label_2
_geom_bond_site_symmetry_1
_geom_bond_site_symmetry_2
Cd1 O2 1_555 1_555
O1 C13 1_555 1_555
O2 C5 1_555 1_555
O3 C13 1_555 1_555
N1 C4 1_555 1_555
O4 Cd1 1_555 1_555
O5 C14 1_555 1_555
N2 Cd1 1_555 1_555
N3 Cd1 1_555 1_555
C1 C5 1_555 1_555
C2 C9 1_555 1_555
C3 N3 1_555 1_555
C4 N2 1_555 1_555
C5 O4 1_555 1_555
C6 H1 1_555 1_555
C7 N1 1_555 1_555
H2 C7 1_555 1_555
C8 C1 1_555 1_555
H3 C8 1_555 1_555
C9 C6 1_555 1_555
H4 C9 1_555 1_555
C10 N2 1_555 1_555
H5 C10 1_555 1_555
C11 C8 1_555 1_555
H6 C11 1_555 1_555
C12 C2 1_555 1_555
H7 C12 1_555 1_555
C13 C2 1_555 1_555
C14 C6 1_555 1_555
C15 C12 1_555 1_555
H8 C15 1_555 1_555
C16 H9 1_555 1_555
C17 O5 1_555 1_555
C18 N3 1_555 1_555
H10 C18 1_555 1_555
C19 C1 1_555 1_555
H11 C19 1_555 1_555
C20 H12 1_555 1_555
C21 C18 1_555 1_555
H13 C21 1_555 1_555
C22 C3 1_555 1_555
H14 C22 1_555 1_555
H15 N1 1_555 1_555
Cd1A O1 1_555 1_555
Cd1C O1 1_555 1_555
O1A Cd1 1_555 1_555
O1C Cd1 1_555 1_555
O3C Cd1 1_555 1_555
O3 Cd1C 1_555 1_555
C3 C4 1_555 1_555
C7 C10 1_555 1_555
C11 C17 1_555 1_555
C14 C15 1_555 1_555
C16 C17 1_555 1_555
C16 C19 1_555 1_555
C20 C21 1_555 1_555
C20 C22 1_555 1_555

#END
