
#######################################################################
#
#                 Cambridge Crystallographic Data Centre
#                                CCDC 
#
#######################################################################
#
# If this CIF has been generated from an entry in the Cambridge 
# Structural Database, then it will include bibliographic, chemical, 
# crystal, experimental, refinement or atomic coordinate data resulting 
# from the CCDC's data processing and validation procedures.
#
#######################################################################

data_VONBOQ
_symmetry_cell_setting           triclinic
_symmetry_space_group_name_H-M   'P -1'
_symmetry_Int_Tables_number      2
_space_group_name_Hall           '-P 1'
loop_
_symmetry_equiv_pos_site_id
_symmetry_equiv_pos_as_xyz
1 x,y,z
2 -x,-y,-z
_cell_length_a                   10.0580(4)
_cell_length_b                   10.6750(4)
_cell_length_c                   12.0480(5)
_cell_angle_alpha                85.8410(10)
_cell_angle_beta                 68.7740(10)
_cell_angle_gamma                66.1710(10)
_cell_volume                     1098.9
loop_
_atom_site_label
_atom_site_type_symbol
_atom_site_fract_x
_atom_site_fract_y
_atom_site_fract_z
Cd1 Cd 0.42887(2) 0.40157(2) -0.073500(19)
O1 O 0.5563(2) 0.3855(2) 0.05890(18)
O2 O 0.3325(2) -0.0203(2) 0.41412(19)
N1 N 0.2997(3) 0.3072(3) -0.1363(2)
O3 O 1.3518(2) 0.6606(2) -0.7678(2)
N2 N 0.2039(3) 0.4099(3) 0.0888(2)
C1 C 0.1360(3) -0.0410(3) 0.5853(3)
H1 H 0.2004 -0.1333 0.5823
N3 N 0.1209(3) 0.2269(3) -0.1075(2)
C2 C 0.1605(4) 0.4678(3) 0.1981(3)
H2 H 0.2190 0.5104 0.2106
O4 O 1.3127(3) 0.8539(2) -0.85726(19)
C3 C 0.3990(3) 0.0667(3) 0.3479(3)
C4 C 0.3218(4) 0.2513(3) -0.2433(3)
H3 H 0.3999 0.2474 -0.3159
C5 C 0.1786(3) 0.2910(3) -0.0547(3)
C6 C 0.5839(3) 0.3444(3) 0.1528(3)
C7 C 0.1866(3) 0.0418(3) 0.5015(2)
C8 C 0.1209(3) 0.3463(3) 0.0702(3)
C9 C -0.1090(3) 0.1519(3) 0.6797(2)
C10 C 0.0630(4) 0.0280(3) -0.0249(3)
H4 H 0.1089 0.0246 0.0341
H5 H 0.1448 -0.0298 -0.0955
C11 C 0.5294(3) 0.2389(3) 0.2174(3)
C12 C -0.0020(4) 0.1748(3) -0.0571(3)
H6 H -0.0500 0.1787 -0.1149
H7 H -0.0822 0.2332 0.0138
C13 C 0.4444(4) 0.1430(3) 0.4032(3)
H8 H 0.4315 0.1362 0.4835
C14 C 0.4887(3) 0.1574(3) 0.1630(3)
H9 H 0.5058 0.1607 0.0818
C15 C 0.4227(3) 0.0709(3) 0.2282(3)
H10 H 0.3949 0.0166 0.1916
C16 C -0.0113(3) 0.0150(3) 0.6735(2)
H11 H -0.0451 -0.0407 0.7297
C17 C -0.0566(3) 0.2331(3) 0.5944(3)
H12 H -0.1215 0.3252 0.5971
C18 C 0.5091(4) 0.2296(3) 0.3374(3)
H13 H 0.5393 0.2818 0.3739
C19 C -0.2689(3) 0.2143(3) 0.7759(3)
C20 C -0.0505(4) 0.4010(4) 0.2747(3)
H14 H -0.1368 0.3982 0.3371
C21 C -0.0051(4) 0.3388(4) 0.1626(3)
H15 H -0.0594 0.2921 0.1497
C22 C 0.0329(4) 0.4670(4) 0.2929(3)
H16 H 0.0040 0.5100 0.3674
C23 C 0.0904(4) 0.1796(3) 0.5053(3)
H17 H 0.1240 0.2351 0.4489
C24 C 0.2116(4) 0.2023(3) -0.2264(3)
H18 H 0.1999 0.1598 -0.2848
O5 O 0.3503(3) 0.6050(2) -0.1949(2)
Cd1A Cd 0.57113(2) 0.59843(2) 0.073500(19)
Cd1A_2 Cd 1.57113(2) 0.59843(2) -0.926500(19)
Cd1A_3 Cd -0.42887(2) -0.40157(2) 0.073500(19)
Cd1_2 Cd -0.57113(2) 0.40157(2) 0.926500(19)
O1A O 0.4437(2) 0.6145(2) -0.05890(18)
O2A O 0.6675(2) 1.0203(2) -0.41412(19)
N1A N -0.2997(3) -0.3072(3) 0.1363(2)
N1A_2 N 0.7003(3) 0.6928(3) 0.1363(2)
O3A O 0.6482(2) 0.3394(2) -0.2322(2)
O3A_2 O -0.3518(2) 0.3394(2) 0.7678(2)
O3_2 O 0.3518(2) 0.6606(2) 0.2322(2)
N2A N -0.2039(3) -0.4099(3) -0.0888(2)
N2A_2 N 0.7961(3) 0.5901(3) -0.0888(2)
C1A C 0.8640(3) 1.0410(3) -0.5853(3)
H1A H 0.7996 1.1333 -0.5823
N3A N -0.1209(3) -0.2269(3) 0.1075(2)
C2A C -0.1605(4) -0.4678(3) -0.1981(3)
H2A H -0.2190 -0.5104 -0.2106
O4A O -0.3127(3) 0.1461(2) 0.85726(19)
C3A C 0.6010(3) 0.9333(3) -0.3479(3)
C4A C -0.3218(4) -0.2513(3) 0.2433(3)
H3A H -0.3999 -0.2474 0.3159
C5A C -0.1786(3) -0.2910(3) 0.0547(3)
C6A C 0.4161(3) 0.6556(3) -0.1528(3)
C7A C 0.8134(3) 0.9582(3) -0.5015(2)
C8A C -0.1209(3) -0.3463(3) -0.0702(3)
C9A C 1.1090(3) 0.8481(3) -0.6797(2)
C10A C -0.0630(4) -0.0280(3) 0.0249(3)
H4A H -0.1089 -0.0246 -0.0341
H5A H -0.1448 0.0298 0.0955
C11A C 0.4706(3) 0.7611(3) -0.2174(3)
C12A C 0.0020(4) -0.1748(3) 0.0571(3)
H6A H 0.0500 -0.1787 0.1149
H7A H 0.0822 -0.2332 -0.0138
C13A C 0.5556(4) 0.8570(3) -0.4032(3)
H8A H 0.5685 0.8638 -0.4835
C14A C 0.5113(3) 0.8426(3) -0.1630(3)
H9A H 0.4942 0.8393 -0.0818
C15A C 0.5773(3) 0.9291(3) -0.2282(3)
H10A H 0.6051 0.9834 -0.1916
C16A C 1.0113(3) 0.9850(3) -0.6735(2)
H11A H 1.0451 1.0407 -0.7297
C17A C 1.0566(3) 0.7669(3) -0.5944(3)
H12A H 1.1215 0.6748 -0.5971
C18A C 0.4909(4) 0.7704(3) -0.3374(3)
H13A H 0.4607 0.7182 -0.3739
C19A C 1.2689(3) 0.7857(3) -0.7759(3)
C20A C 0.0505(4) -0.4010(4) -0.2747(3)
H14A H 0.1368 -0.3982 -0.3371
C21A C 0.0051(4) -0.3388(4) -0.1626(3)
H15A H 0.0594 -0.2921 -0.1497
C22A C -0.0329(4) -0.4670(4) -0.2929(3)
H16A H -0.0040 -0.5100 -0.3674
C23A C 0.9096(4) 0.8204(3) -0.5053(3)
H17A H 0.8760 0.7649 -0.4489
C24A C -0.2116(4) -0.2023(3) 0.2264(3)
H18A H -0.1999 -0.1598 0.2848
O5A O 0.6497(3) 0.3950(2) 0.1949(2)
O6 O 0.5856(6) 0.3962(5) -0.4450(4)
H19 H 0.491(3) 0.453(7) -0.416(5)
H20 H 0.619(6) 0.376(6) -0.388(4)
loop_
_geom_bond_atom_site_label_1
_geom_bond_atom_site_label_2
_geom_bond_site_symmetry_1
_geom_bond_site_symmetry_2
Cd1 O1 1_555 1_555
O1 C6 1_555 1_555
O2 C3 1_555 1_555
N1 Cd1 1_555 1_555
O3 Cd1A_2 1_555 1_555
N2 Cd1 1_555 1_555
C1 H1 1_555 1_555
N3 C5 1_555 1_555
C2 N2 1_555 1_555
H2 C2 1_555 1_555
O4 C19A 1_555 1_555
C3 C13 1_555 1_555
C4 N1 1_555 1_555
H3 C4 1_555 1_555
C5 N1 1_555 1_555
C6 C11 1_555 1_555
C7 O2 1_555 1_555
C8 N2 1_555 1_555
C9 C16 1_555 1_555
C10 H4 1_555 1_555
H5 C10 1_555 1_555
C11 C14 1_555 1_555
C12 N3 1_555 1_555
H6 C12 1_555 1_555
H7 C12 1_555 1_555
C13 H8 1_555 1_555
C14 H9 1_555 1_555
C15 C3 1_555 1_555
H10 C15 1_555 1_555
C16 C1 1_555 1_555
H11 C16 1_555 1_555
C17 C9 1_555 1_555
H12 C17 1_555 1_555
C18 C11 1_555 1_555
H13 C18 1_555 1_555
C19 C9 1_555 1_555
C20 H14 1_555 1_555
C21 C8 1_555 1_555
H15 C21 1_555 1_555
C22 C2 1_555 1_555
H16 C22 1_555 1_555
C23 C7 1_555 1_555
H17 C23 1_555 1_555
C24 N3 1_555 1_555
H18 C24 1_555 1_555
O5 Cd1 1_555 1_555
O6 H19 1_555 1_555
H20 O6 1_555 1_555
Cd1A O1 1_555 1_555
Cd1A_3 N1A 1_555 1_555
Cd1_2 O3A_2 1_555 1_555
O1A Cd1 1_555 1_555
O2A C3A 1_555 1_555
N1A C4A 1_555 1_555
N1A_2 Cd1A 1_555 1_555
O3A Cd1 1_555 1_555
O3A_2 C19 1_555 1_555
O3_2 Cd1A 1_555 1_555
N2A Cd1A_3 1_555 1_555
N2A_2 Cd1A 1_555 1_555
C1A H1A 1_555 1_555
N3A C5A 1_555 1_555
C2A N2A 1_555 1_555
H2A C2A 1_555 1_555
O4A C19 1_555 1_555
C3A C13A 1_555 1_555
C4A H3A 1_555 1_555
C5A N1A 1_555 1_555
C6A O5 1_555 1_555
C7A O2A 1_555 1_555
C8A N2A 1_555 1_555
C9A C16A 1_555 1_555
C10A C10 1_555 1_555
H4A C10A 1_555 1_555
H5A C10A 1_555 1_555
C11A C6A 1_555 1_555
C12A N3A 1_555 1_555
H6A C12A 1_555 1_555
H7A C12A 1_555 1_555
C13A H8A 1_555 1_555
C14A C11A 1_555 1_555
H9A C14A 1_555 1_555
C15A C3A 1_555 1_555
H10A C15A 1_555 1_555
C16A C1A 1_555 1_555
H11A C16A 1_555 1_555
C17A C9A 1_555 1_555
H12A C17A 1_555 1_555
C18A C11A 1_555 1_555
H13A C18A 1_555 1_555
C19A O3 1_555 1_555
C20A H14A 1_555 1_555
C21A C8A 1_555 1_555
H15A C21A 1_555 1_555
C22A C2A 1_555 1_555
H16A C22A 1_555 1_555
C23A C7A 1_555 1_555
H17A C23A 1_555 1_555
C24A N3A 1_555 1_555
H18A C24A 1_555 1_555
O5A C6 1_555 1_555
C1 C7 1_555 1_555
C4 C24 1_555 1_555
C5 C8 1_555 1_555
C10 C12 1_555 1_555
C13 C18 1_555 1_555
C14 C15 1_555 1_555
C17 C23 1_555 1_555
C20 C21 1_555 1_555
C20 C22 1_555 1_555
Cd1A O1A 1_555 1_555
Cd1A O5A 1_555 1_555
O1A C6A 1_555 1_555
C1A C7A 1_555 1_555
C4A C24A 1_555 1_555
C5A C8A 1_555 1_555
C9A C19A 1_555 1_555
C10A C12A 1_555 1_555
C13A C18A 1_555 1_555
C14A C15A 1_555 1_555
C17A C23A 1_555 1_555
C20A C21A 1_555 1_555
C20A C22A 1_555 1_555

#END
