
#######################################################################
#
#                 Cambridge Crystallographic Data Centre
#                                CCDC 
#
#######################################################################
#
# If this CIF has been generated from an entry in the Cambridge 
# Structural Database, then it will include bibliographic, chemical, 
# crystal, experimental, refinement or atomic coordinate data resulting 
# from the CCDC's data processing and validation procedures.
#
#######################################################################

data_VONBUX
_symmetry_cell_setting           monoclinic
_symmetry_space_group_name_H-M   'C 2/c'
_symmetry_Int_Tables_number      15
_space_group_name_Hall           '-C 2yn'
loop_
_symmetry_equiv_pos_site_id
_symmetry_equiv_pos_as_xyz
1 x,y,z
2 -x,y,1/2-z
3 1/2+x,1/2+y,z
4 1/2-x,1/2+y,1/2-z
5 -x,-y,-z
6 x,-y,1/2+z
7 1/2-x,1/2-y,-z
8 1/2+x,1/2-y,1/2+z
_cell_length_a                   20.388(4)
_cell_length_b                   8.2663(13)
_cell_length_c                   8.1857(13)
_cell_angle_alpha                90
_cell_angle_beta                 102.720(13)
_cell_angle_gamma                90
_cell_volume                     1345.71
loop_
_atom_site_label
_atom_site_type_symbol
_atom_site_fract_x
_atom_site_fract_y
_atom_site_fract_z
Zn1 Zn 0.5000 0.44174(6) 0.7500
P1 P 0.41286(4) 0.68877(10) 0.50258(10)
O1 O 0.42333(11) 0.5691(3) 0.6439(3)
O2 O 0.47004(12) 0.6974(2) 0.4109(3)
O3 O 0.40496(13) 0.8587(3) 0.5806(3)
H1 H 0.4157 0.9312 0.5195
C1 C 0.33581(18) 0.6440(4) 0.3579(4)
H2 H 0.3374 0.5305 0.3204
H3 H 0.2985 0.6526 0.4172
C2 C 0.3202(2) 0.7519(5) 0.2051(4)
H4 H 0.3582 0.7479 0.1479
H5 H 0.3157 0.8649 0.2412
C3 C 0.2560(2) 0.7030(5) 0.0819(5)
H6 H 0.2173 0.7201 0.1348
H7 H 0.2582 0.5861 0.0572
P1F P 0.08714(4) 0.81123(10) -0.50258(10)
O1F O 0.07667(11) 0.9309(3) -0.6439(3)
O3F O 0.09504(13) 0.6413(3) -0.5806(3)
H1F H 0.0843 0.5688 -0.5195
C1F C 0.16419(18) 0.8560(4) -0.3579(4)
H2F H 0.1626 0.9695 -0.3204
H3F H 0.2015 0.8474 -0.4172
C2F C 0.1798(2) 0.7481(5) -0.2051(4)
H4F H 0.1418 0.7521 -0.1479
H5F H 0.1843 0.6351 -0.2412
C3F C 0.2440(2) 0.7970(5) -0.0819(5)
H6F H 0.2827 0.7799 -0.1348
H7F H 0.2418 0.9139 -0.0572
O2F O 0.02996(12) 0.8026(2) -0.4109(3)
Zn1B Zn 0.0000 0.94174(6) -0.2500
Zn1D Zn 0.5000 0.55826(6) 0.2500
Zn1F Zn 0.0000 1.05826(6) -0.7500
O1A O 0.57667(11) 0.5691(3) 0.8561(3)
O2D O 0.52996(12) 0.3026(2) 0.5891(3)
O2E O 0.47004(12) 0.3026(2) 0.9109(3)
O4 O 0.42021(14) 1.1163(3) 0.4283(3)
H8 H 0.416(2) 1.124(5) 0.324(5)
H9 H 0.4552(15) 1.167(5) 0.466(5)
loop_
_geom_bond_atom_site_label_1
_geom_bond_atom_site_label_2
_geom_bond_site_symmetry_1
_geom_bond_site_symmetry_2
Zn1 O1 1_555 1_555
P1 O1 1_555 1_555
O2 P1 1_555 1_555
O3 P1 1_555 1_555
H1 O3 1_555 1_555
C1 P1 1_555 1_555
H2 C1 1_555 1_555
H3 C1 1_555 1_555
C2 C1 1_555 1_555
H4 C2 1_555 1_555
H5 C2 1_555 1_555
C3 C2 1_555 1_555
H6 C3 1_555 1_555
H7 C3 1_555 1_555
O4 H8 1_555 1_555
H9 O4 1_555 1_555
P1F O1F 1_555 1_555
O1F Zn1F 1_555 1_555
O3F P1F 1_555 1_555
H1F O3F 1_555 1_555
C1F P1F 1_555 1_555
H2F C1F 1_555 1_555
H3F C1F 1_555 1_555
C2F C1F 1_555 1_555
H4F C2F 1_555 1_555
H5F C2F 1_555 1_555
C3F C3 1_555 1_555
H6F C3F 1_555 1_555
H7F C3F 1_555 1_555
O2F P1F 1_555 1_555
Zn1B O2F 1_555 1_555
Zn1D O2 1_555 1_555
O1A Zn1 1_555 1_555
O2D Zn1 1_555 1_555
O2E Zn1 1_555 1_555
C2F C3F 1_555 1_555

#END
