
#######################################################################
#
#                 Cambridge Crystallographic Data Centre
#                                CCDC 
#
#######################################################################
#
# If this CIF has been generated from an entry in the Cambridge 
# Structural Database, then it will include bibliographic, chemical, 
# crystal, experimental, refinement or atomic coordinate data resulting 
# from the CCDC's data processing and validation procedures.
#
#######################################################################

data_VONCOS
_symmetry_cell_setting           orthorhombic
_symmetry_space_group_name_H-M   'P m m n'
_symmetry_Int_Tables_number      59
_space_group_name_Hall           '-P 2ab 2a'
loop_
_symmetry_equiv_pos_site_id
_symmetry_equiv_pos_as_xyz
1 x,y,z
2 1/2-x,1/2-y,z
3 -x,1/2+y,-z
4 1/2+x,-y,-z
5 -x,-y,-z
6 1/2+x,1/2+y,-z
7 x,1/2-y,z
8 1/2-x,y,z
_cell_length_a                   24.408(4)
_cell_length_b                   27.827(5)
_cell_length_c                   5.1509(7)
_cell_angle_alpha                90
_cell_angle_beta                 90
_cell_angle_gamma                90
_cell_volume                     3498.5
loop_
_atom_site_label
_atom_site_type_symbol
_atom_site_fract_x
_atom_site_fract_y
_atom_site_fract_z
Zn1 Zn 0.46491(3) 0.45070(3) 0.28711(14)
Zn2 Zn 0.46138(5) 0.2500 0.3061(2)
P1 P 0.58125(8) 0.50163(8) 0.2240(3)
P2 P 0.41671(8) 0.35413(8) 0.0768(3)
O1 O 0.57957(19) 0.5097(2) -0.0640(8)
O2 O 0.5417(2) 0.4627(2) 0.3187(9)
O3 O 0.5697(2) 0.54847(19) 0.3722(8)
O4 O 0.46338(19) 0.3825(2) 0.1991(8)
O5 O 0.4159(2) 0.3630(2) -0.2243(8)
H1 H 0.4136 0.3926 -0.2538
O6 O 0.4211(2) 0.3012(2) 0.1051(10)
O7 O 0.4043(3) 0.2500 0.6218(13)
O8 O 0.5067(2) 0.3020(2) 0.5257(12)
O9 O 0.5262(3) 0.2500 0.0324(16)
C1 C 0.6479(3) 0.4802(3) 0.3142(14)
H2 H 0.6490 0.4775 0.5058
H3 H 0.6523 0.4474 0.2429
C2 C 0.3018(3) 0.3539(4) 0.0712(14)
H4 H 0.3017 0.3614 -0.1168
H5 H 0.3031 0.3186 0.0908
C3 C 0.3524(3) 0.3759(3) 0.1957(13)
H6 H 0.3508 0.3699 0.3850
H7 H 0.3512 0.4111 0.1694
C4 C 0.6968(3) 0.5098(3) 0.2294(13)
H8 H 0.6971 0.5122 0.0376
H9 H 0.6934 0.5428 0.3003
C5 C 0.7500 0.4879(5) 0.321(2)
H10 H 0.7500 0.4537 0.2687
H11 H 0.7500 0.4887 0.5132
C6 C 0.2500 0.3726(5) 0.191(2)
H12 H 0.2500 0.4081 0.1786
H13 H 0.2500 0.3641 0.3778
P1G P 0.91875(8) 0.50163(8) 0.2240(3)
O1G O 0.92043(19) 0.5097(2) -0.0640(8)
O2G O 0.9583(2) 0.4627(2) 0.3187(9)
O3G O 0.9303(2) 0.54847(19) 0.3722(8)
C1G C 0.8521(3) 0.4802(3) 0.3142(14)
H2G H 0.8510 0.4775 0.5058
H3G H 0.8477 0.4474 0.2429
C4G C 0.8032(3) 0.5098(3) 0.2294(13)
H8G H 0.8029 0.5122 0.0376
H9G H 0.8066 0.5428 0.3003
P2G P 0.08329(8) 0.35413(8) 0.0768(3)
O4G O 0.03662(19) 0.3825(2) 0.1991(8)
O5G O 0.0841(2) 0.3630(2) -0.2243(8)
H1G H 0.0864 0.3926 -0.2538
O6G O 0.0789(2) 0.3012(2) 0.1051(10)
C2G C 0.1982(3) 0.3539(4) 0.0712(14)
H4G H 0.1983 0.3614 -0.1168
H5G H 0.1969 0.3186 0.0908
C3G C 0.1476(3) 0.3759(3) 0.1957(13)
H6G H 0.1492 0.3699 0.3850
H7G H 0.1488 0.4111 0.1694
Zn1D Zn 0.53509(3) 0.54930(3) -0.28711(14)
O8F O 0.5067(2) 0.1980(2) 0.5257(12)
Zn1C Zn 0.96491(3) 0.54930(3) -0.28711(14)
Zn1C_2 Zn 0.96491(3) 0.54930(3) 0.71289(14)
Zn1D_2 Zn 0.53509(3) 0.54930(3) 0.71289(14)
Zn1G Zn 0.03509(3) 0.45070(3) 0.28711(14)
Zn1G_2 Zn 1.03509(3) 0.45070(3) 0.28711(14)
Zn2A Zn 0.03862(5) 0.2500 0.3061(2)
O1D O 0.42043(19) 0.4903(2) 0.0640(8)
O2D O 0.4583(2) 0.5373(2) -0.3187(9)
O3_2 O 0.5697(2) 0.54847(19) -0.6278(8)
O3D O 0.4303(2) 0.45153(19) 0.6278(8)
O4D O 0.53662(19) 0.6175(2) -0.1991(8)
O6F O 0.4211(2) 0.1988(2) 0.1051(10)
loop_
_geom_bond_atom_site_label_1
_geom_bond_atom_site_label_2
_geom_bond_site_symmetry_1
_geom_bond_site_symmetry_2
Zn1 O2 1_555 1_555
Zn2 O6 1_555 1_555
P1 O1 1_555 1_555
P2 O4 1_555 1_555
O1 Zn1D 1_555 1_555
O2 P1 1_555 1_555
O3 P1 1_555 1_555
O4 Zn1 1_555 1_555
O5 P2 1_555 1_555
H1 O5 1_555 1_555
O6 P2 1_555 1_555
O7 Zn2 1_555 1_555
O8 Zn2 1_555 1_555
O9 Zn2 1_555 1_555
C1 P1 1_555 1_555
H2 C1 1_555 1_555
H3 C1 1_555 1_555
C2 H4 1_555 1_555
H5 C2 1_555 1_555
C3 P2 1_555 1_555
H6 C3 1_555 1_555
H7 C3 1_555 1_555
C4 C1 1_555 1_555
H8 C4 1_555 1_555
H9 C4 1_555 1_555
C5 C4 1_555 1_555
H10 C5 1_555 1_555
H11 C5 1_555 1_555
C6 C2 1_555 1_555
H12 C6 1_555 1_555
H13 C6 1_555 1_555
P1G O1G 1_555 1_555
O1G Zn1C 1_555 1_555
O2G P1G 1_555 1_555
O3G P1G 1_555 1_555
C1G P1G 1_555 1_555
H2G C1G 1_555 1_555
H3G C1G 1_555 1_555
C4G C5 1_555 1_555
H8G C4G 1_555 1_555
H9G C4G 1_555 1_555
P2G O4G 1_555 1_555
O4G Zn1G 1_555 1_555
O5G P2G 1_555 1_555
H1G O5G 1_555 1_555
O6G P2G 1_555 1_555
C2G C6 1_555 1_555
H4G C2G 1_555 1_555
H5G C2G 1_555 1_555
C3G P2G 1_555 1_555
H6G C3G 1_555 1_555
H7G C3G 1_555 1_555
Zn1D O2D 1_555 1_555
O8F Zn2 1_555 1_555
Zn1C_2 O3G 1_555 1_555
Zn1D_2 O3 1_555 1_555
Zn1G_2 O2G 1_555 1_555
Zn2A O6G 1_555 1_555
O1D Zn1 1_555 1_555
O3_2 Zn1D 1_555 1_555
O3D Zn1 1_555 1_555
O4D Zn1D 1_555 1_555
O6F Zn2 1_555 1_555
C2 C3 1_555 1_555
C1G C4G 1_555 1_555
C2G C3G 1_555 1_555

#END
