
#######################################################################
#
#                 Cambridge Crystallographic Data Centre
#                                CCDC 
#
#######################################################################
#
# If this CIF has been generated from an entry in the Cambridge 
# Structural Database, then it will include bibliographic, chemical, 
# crystal, experimental, refinement or atomic coordinate data resulting 
# from the CCDC's data processing and validation procedures.
#
#######################################################################

data_VONCIL
_symmetry_cell_setting           triclinic
_symmetry_space_group_name_H-M   'P -1'
_symmetry_Int_Tables_number      2
_space_group_name_Hall           '-P 1'
loop_
_symmetry_equiv_pos_site_id
_symmetry_equiv_pos_as_xyz
1 x,y,z
2 -x,-y,-z
_cell_length_a                   11.4920(4)
_cell_length_b                   11.7810(4)
_cell_length_c                   14.6520(5)
_cell_angle_alpha                71.9450(10)
_cell_angle_beta                 73.4360(10)
_cell_angle_gamma                80.0840(10)
_cell_volume                     1800.08
loop_
_atom_site_label
_atom_site_type_symbol
_atom_site_fract_x
_atom_site_fract_y
_atom_site_fract_z
Cd1 Cd 0.146753(14) 0.060121(15) 0.497420(11)
O1 O 0.03962(18) 0.19811(19) 0.57891(14)
O2 O 0.17972(16) 0.08200(17) 0.64880(13)
N1 N 0.35181(18) 0.11643(19) 0.43330(15)
O3 O -0.0915(2) 0.35911(18) 0.97248(13)
N2 N 0.27263(18) -0.09162(19) 0.44844(16)
N3 N 0.44624(19) -0.16749(19) 0.36824(17)
N4 N 0.4751(2) -0.2574(2) 0.0666(2)
C1 C 0.0926(2) 0.1620(2) 0.64879(17)
C2 C 0.4367(2) 0.0408(2) 0.39213(17)
C3 C 0.5566(2) 0.0692(3) 0.3513(2)
H1 H 0.6154 0.0168 0.3231
C4 C -0.0818(2) 0.3620(2) 0.81071(18)
H2 H -0.1391 0.4284 0.8078
C5 C -0.0390(2) 0.3100(2) 0.89440(17)
C6 C 0.0484(2) 0.2158(2) 0.73403(17)
C7 C 0.3638(3) -0.2519(3) 0.3988(2)
H3 H 0.3782 -0.3276 0.3883
C8 C 0.3879(2) -0.0708(2) 0.40031(18)
C9 C 0.7854(3) 0.0523(3) -0.1054(4)
H4 H 0.8381 0.1109 -0.1208
C10 C 0.5000(3) 0.2535(3) 0.3948(2)
H5 H 0.5190 0.3264 0.3963
C11 C 0.2578(3) -0.2033(3) 0.4470(2)
H6 H 0.1858 -0.2405 0.4749
C12 C 0.5746(3) -0.3230(2) 0.2071(2)
C13 C 0.0496(3) 0.2130(3) 0.89884(19)
H7 H 0.0791 0.1794 0.9552
N5 N 0.6442(2) -0.0780(2) 0.0177(2)
C14 C -0.0385(2) 0.3139(2) 0.73085(17)
H8 H -0.0679 0.3476 0.6744
C15 C 0.6292(3) -0.1171(2) -0.0538(2)
C16 C 0.0927(2) 0.1676(2) 0.81775(19)
H9 H 0.1527 0.1035 0.8195
C17 C 0.4753(3) -0.2439(3) 0.1618(2)
H10 H 0.3969 -0.2623 0.2075
H11 H 0.4850 -0.1609 0.1536
C18 C 0.3836(3) 0.2193(2) 0.4342(2)
H12 H 0.3240 0.2707 0.4630
C19 C 0.5423(3) -0.2070(3) -0.0264(2)
C20 C 0.5732(2) -0.1795(3) 0.3064(2)
H13 H 0.6290 -0.1689 0.3412
H14 H 0.5814 -0.1154 0.2451
C21 C 0.6108(2) -0.2972(3) 0.2814(2)
C22 C 0.5869(3) 0.1770(3) 0.3534(2)
H15 H 0.6668 0.1973 0.3265
C23 C 0.6940(3) -0.3773(3) 0.3278(3)
H16 H 0.7158 -0.3615 0.3788
C24 C 0.7216(3) 0.0065(3) -0.0090(3)
H17 H 0.7327 0.0356 0.0399
N6 N 0.5164(3) -0.2485(3) -0.0921(2)
C25 C 0.6270(3) -0.4270(3) 0.1798(3)
H18 H 0.6045 -0.4450 0.1300
C26 C 0.6906(3) -0.0747(3) -0.1528(3)
H19 H 0.6778 -0.1038 -0.2011
C27 C 0.4037(3) -0.3331(4) 0.0573(4)
H20 H 0.3481 -0.3801 0.1081
C28 C 0.7703(4) 0.0107(3) -0.1779(3)
H21 H 0.8134 0.0396 -0.2433
C29 C 0.7449(3) -0.4801(3) 0.2998(3)
H22 H 0.8011 -0.5325 0.3312
C30 C 0.7122(3) -0.5042(3) 0.2256(3)
H23 H 0.7472 -0.5727 0.2056
C31 C 0.4296(4) -0.3264(4) -0.0387(4)
H24 H 0.3936 -0.3687 -0.0657
C32 C -0.0546(2) 0.3081(2) 1.06053(17)
C33 C -0.1156(3) 0.2182(2) 1.1322(2)
H25 H -0.1783 0.1877 1.1211
C34 C 0.0380(3) 0.3542(3) 1.0748(2)
H26 H 0.0798 0.4143 1.0246
C35 C 0.0085(2) 0.2192(2) 1.23923(16)
C36 C -0.0831(2) 0.1728(2) 1.22175(19)
H27 H -0.1234 0.1106 1.2705
C37 C 0.0688(3) 0.3102(3) 1.1651(2)
H28 H 0.1306 0.3421 1.1760
O4 O -0.00154(17) 0.08082(17) 1.39964(13)
O5 O 0.13298(19) 0.21069(19) 1.34557(14)
C38 C 0.0476(2) 0.1680(2) 1.33408(17)
Cd1A Cd -0.146753(14) -0.060121(15) 1.502580(11)
Cd1_2 Cd 0.146753(14) 0.060121(15) 1.497420(11)
O4A O 0.00154(17) -0.08082(17) 0.60036(13)
O4_2 O -0.00154(17) 0.08082(17) 0.39964(13)
O5_2 O 0.13298(19) 0.21069(19) 0.34557(14)
O6 O 0.0778(8) 0.4218(4) 0.4528(5)
O7 O 0.3151(4) 0.5205(3) 0.3475(4)
H29 H 0.257(4) 0.505(5) 0.395(3)
H31 H 0.327(4) 0.477(4) 0.311(3)
O8 O 0.3122(3) 0.3752(2) 0.2287(2)
H30 H 0.259(3) 0.337(3) 0.270(3)
H32 H 0.373(3) 0.337(3) 0.206(4)
loop_
_geom_bond_atom_site_label_1
_geom_bond_atom_site_label_2
_geom_bond_site_symmetry_1
_geom_bond_site_symmetry_2
Cd1 O1 1_555 1_555
O1 C1 1_555 1_555
O2 Cd1 1_555 1_555
N1 Cd1 1_555 1_555
O3 C5 1_555 1_555
N2 Cd1 1_555 1_555
N3 C7 1_555 1_555
N4 C17 1_555 1_555
C1 O2 1_555 1_555
C2 N1 1_555 1_555
C3 C2 1_555 1_555
H1 C3 1_555 1_555
C4 H2 1_555 1_555
C5 C4 1_555 1_555
C6 C1 1_555 1_555
C7 H3 1_555 1_555
C8 N2 1_555 1_555
C9 H4 1_555 1_555
C10 H5 1_555 1_555
C11 N2 1_555 1_555
H6 C11 1_555 1_555
C12 C17 1_555 1_555
C13 C5 1_555 1_555
H7 C13 1_555 1_555
N5 C15 1_555 1_555
C14 C4 1_555 1_555
H8 C14 1_555 1_555
C15 C19 1_555 1_555
C16 C6 1_555 1_555
H9 C16 1_555 1_555
C17 H10 1_555 1_555
H11 C17 1_555 1_555
C18 N1 1_555 1_555
H12 C18 1_555 1_555
C19 N4 1_555 1_555
C20 N3 1_555 1_555
H13 C20 1_555 1_555
H14 C20 1_555 1_555
C21 C12 1_555 1_555
C22 C3 1_555 1_555
H15 C22 1_555 1_555
C23 C21 1_555 1_555
H16 C23 1_555 1_555
C24 C9 1_555 1_555
H17 C24 1_555 1_555
N6 C19 1_555 1_555
C25 C12 1_555 1_555
H18 C25 1_555 1_555
C26 C15 1_555 1_555
H19 C26 1_555 1_555
C27 N4 1_555 1_555
H20 C27 1_555 1_555
C28 C9 1_555 1_555
H21 C28 1_555 1_555
C29 C23 1_555 1_555
H22 C29 1_555 1_555
C30 C25 1_555 1_555
H23 C30 1_555 1_555
C31 N6 1_555 1_555
H24 C31 1_555 1_555
C32 O3 1_555 1_555
C33 C32 1_555 1_555
H25 C33 1_555 1_555
C34 C32 1_555 1_555
H26 C34 1_555 1_555
C35 C36 1_555 1_555
C36 C33 1_555 1_555
H27 C36 1_555 1_555
C37 C34 1_555 1_555
H28 C37 1_555 1_555
O4 C38 1_555 1_555
O5 C38 1_555 1_555
C38 C35 1_555 1_555
O7 H29 1_555 1_555
O8 H30 1_555 1_555
H31 O7 1_555 1_555
H32 O8 1_555 1_555
Cd1A O4 1_555 1_555
Cd1_2 O4 1_555 1_555
O4A Cd1 1_555 1_555
O4_2 Cd1 1_555 1_555
O5_2 Cd1 1_555 1_555
N3 C8 1_555 1_555
C2 C8 1_555 1_555
C6 C14 1_555 1_555
C7 C11 1_555 1_555
C10 C18 1_555 1_555
C10 C22 1_555 1_555
C13 C16 1_555 1_555
N5 C24 1_555 1_555
C20 C21 1_555 1_555
C26 C28 1_555 1_555
C27 C31 1_555 1_555
C29 C30 1_555 1_555
C35 C37 1_555 1_555
O5 Cd1_2 1_555 1_555

#END
