
#######################################################################
#
#                 Cambridge Crystallographic Data Centre
#                                CCDC 
#
#######################################################################
#
# If this CIF has been generated from an entry in the Cambridge 
# Structural Database, then it will include bibliographic, chemical, 
# crystal, experimental, refinement or atomic coordinate data resulting 
# from the CCDC's data processing and validation procedures.
#
#######################################################################

data_VONCAD
_symmetry_cell_setting           triclinic
_symmetry_space_group_name_H-M   'P -1'
_symmetry_Int_Tables_number      2
_space_group_name_Hall           '-P 1'
loop_
_symmetry_equiv_pos_site_id
_symmetry_equiv_pos_as_xyz
1 x,y,z
2 -x,-y,-z
_cell_length_a                   9.6950(11)
_cell_length_b                   12.4600(13)
_cell_length_c                   15.1400(16)
_cell_angle_alpha                111.061(2)
_cell_angle_beta                 96.603(2)
_cell_angle_gamma                101.133(2)
_cell_volume                     1640.31
loop_
_atom_site_label
_atom_site_type_symbol
_atom_site_fract_x
_atom_site_fract_y
_atom_site_fract_z
Cd1 Cd 0.53968(4) 0.14232(3) 0.48075(3)
O1 O 0.5745(4) 0.0717(3) 0.5977(2)
O2 O 0.7169(4) 0.0980(4) 1.3861(3)
O3 O 0.5678(5) 0.1924(4) 1.3477(3)
N1 N 0.1682(5) 0.2795(4) 0.5611(3)
O4 O 0.7756(4) 0.2077(3) 0.6222(3)
O5 O 0.8984(4) 0.1016(4) 0.9988(3)
C1 C 0.6677(6) 0.1435(5) 1.3321(4)
N2 N 0.3109(5) 0.1688(4) 0.4941(4)
N3 N 0.5532(4) 0.3478(4) 0.5667(3)
C2 C 0.0538(5) 0.4410(4) 0.5537(4)
C3 C 0.7280(6) 0.1371(4) 1.2436(4)
C4 C 0.1064(6) 0.3771(5) 0.6145(4)
H1 H 0.1785 0.4343 0.6697
H2 H 0.0268 0.3452 0.6387
C5 C 0.4303(5) 0.3814(4) 0.5776(4)
C6 C 0.6718(6) 0.1798(5) 1.1788(4)
H3 H 0.5970 0.2161 1.1915
C7 C 0.7236(6) 0.1700(5) 1.0956(4)
H4 H 0.6851 0.2000 1.0531
C8 C 0.3034(5) 0.2801(4) 0.5464(4)
C9 C 0.9362(6) 0.1635(5) 0.8739(4)
H5 H 1.0327 0.1915 0.9038
C10 C 0.4287(6) 0.5011(5) 0.6134(4)
H6 H 0.3425 0.5228 0.6185
C11 C 0.6827(6) 0.5524(5) 0.6306(4)
H7 H 0.7703 0.6086 0.6488
C12 C 0.6993(6) 0.1371(5) 0.6480(4)
C13 C 0.8373(7) 0.1121(5) 0.9152(4)
C14 C 0.0638(5) 0.5604(5) 0.5949(4)
H8 H 0.1066 0.6022 0.6598
C15 C 0.8325(6) 0.1153(5) 1.0770(4)
C16 C 0.8928(6) 0.0736(5) 1.1417(4)
H9 H 0.9681 0.0378 1.1290
C17 C 0.7484(6) 0.1266(4) 0.7413(4)
C18 C 0.5559(6) 0.5865(5) 0.6409(4)
H10 H 0.5569 0.6667 0.6662
C21 C -0.0125(6) 0.3796(5) 0.4565(4)
H11 H -0.0219 0.2983 0.4267
C22 C 0.8411(6) 0.0850(5) 1.2244(4)
H12 H 0.8824 0.0576 1.2679
C23 C 0.8904(6) 0.1730(5) 0.7876(4)
H13 H 0.9554 0.2107 0.7608
C24 C 0.1762(7) 0.0980(5) 0.4778(5)
H14 H 0.1502 0.0159 0.4445
C26 C 0.6973(7) 0.0663(6) 0.8710(4)
H17 H 0.6321 0.0310 0.8992
C27 C 0.0868(6) 0.1631(5) 0.5165(6)
H18 H -0.0105 0.1356 0.5139
C28 C 0.6528(7) 0.0729(5) 0.7837(4)
H19 H 0.5570 0.0407 0.7526
C32 C 0.6748(6) 0.4314(5) 0.5921(4)
H22 H 0.7594 0.4079 0.5837
Cd1A Cd 0.46032(4) -0.14232(3) 0.51925(3)
Cd1_2 Cd 0.53968(4) 0.14232(3) 1.48075(3)
Cd1A_2 Cd -0.53968(4) 0.85768(3) 0.51925(3)
Cd1A_3 Cd 0.46032(4) -0.14232(3) -0.48075(3)
O1A O 0.4255(4) -0.0717(3) 0.4023(2)
O2A O 0.2831(4) -0.0980(4) -0.3861(3)
O2_2 O 0.7169(4) 0.0980(4) 0.3861(3)
O2A_2 O 0.2831(4) -0.0980(4) 0.6139(3)
O3A O 0.4322(5) -0.1924(4) -0.3477(3)
O3_2 O 0.5678(5) 0.1924(4) 0.3477(3)
O3A_2 O 0.4322(5) -0.1924(4) 0.6523(3)
N1A N -0.1682(5) 0.7205(4) 0.4389(3)
O4A O 0.2244(4) -0.2077(3) 0.3778(3)
O5A O 0.1016(4) -0.1016(4) 0.0012(3)
C1A C 0.3323(6) -0.1435(5) -0.3321(4)
N2A N -0.3109(5) 0.8312(4) 0.5059(4)
N2A_2 N 0.6891(5) -0.1688(4) 0.5059(4)
N3A N -0.5532(4) 0.6522(4) 0.4333(3)
N3A_2 N 0.4468(4) -0.3478(4) 0.4333(3)
C2A C -0.0538(5) 0.5590(4) 0.4463(4)
C3A C 0.2720(6) -0.1371(4) -0.2436(4)
C4A C -0.1064(6) 0.6229(5) 0.3855(4)
H1A H -0.1785 0.5657 0.3303
H2A H -0.0268 0.6548 0.3613
C5A C -0.4303(5) 0.6186(4) 0.4224(4)
C6A C 0.3282(6) -0.1798(5) -0.1788(4)
H3A H 0.4030 -0.2161 -0.1915
C7A C 0.2764(6) -0.1700(5) -0.0956(4)
H4A H 0.3149 -0.2000 -0.0531
C8A C -0.3034(5) 0.7199(4) 0.4536(4)
C9A C 0.0638(6) -0.1635(5) 0.1261(4)
H5A H -0.0327 -0.1915 0.0962
C10A C -0.4287(6) 0.4989(5) 0.3866(4)
H6A H -0.3425 0.4772 0.3815
C11A C -0.6827(6) 0.4476(5) 0.3694(4)
H7A H -0.7703 0.3914 0.3512
C12A C 0.3007(6) -0.1371(5) 0.3520(4)
C13A C 0.1627(7) -0.1121(5) 0.0848(4)
C14A C -0.0638(5) 0.4396(5) 0.4051(4)
H8A H -0.1066 0.3978 0.3402
C15A C 0.1675(6) -0.1153(5) -0.0770(4)
C16A C 0.1072(6) -0.0736(5) -0.1417(4)
H9A H 0.0319 -0.0378 -0.1290
C17A C 0.2516(6) -0.1266(4) 0.2587(4)
C18A C -0.5559(6) 0.4135(5) 0.3591(4)
H10A H -0.5569 0.3333 0.3338
C21A C 0.0125(6) 0.6204(5) 0.5435(4)
H11A H 0.0219 0.7017 0.5733
C22A C 0.1589(6) -0.0850(5) -0.2244(4)
H12A H 0.1176 -0.0576 -0.2679
C23A C 0.1096(6) -0.1730(5) 0.2124(4)
H13A H 0.0446 -0.2107 0.2392
C24A C -0.1762(7) 0.9020(5) 0.5222(5)
H14A H -0.1502 0.9841 0.5555
C26A C 0.3027(7) -0.0663(6) 0.1290(4)
H17A H 0.3679 -0.0310 0.1008
C27A C -0.0868(6) 0.8369(5) 0.4835(6)
H18A H 0.0105 0.8644 0.4861
C28A C 0.3472(7) -0.0729(5) 0.2163(4)
H19A H 0.4430 -0.0407 0.2474
C32A C -0.6748(6) 0.5686(5) 0.4079(4)
H22A H -0.7594 0.5921 0.4163
N4 N 0.2649(7) 0.4191(5) 0.1434(4)
C19 C 0.5099(7) 0.5470(6) 0.1571(4)
C20 C 0.4061(7) 0.4351(6) 0.1325(5)
N5 N 0.4881(7) 0.6485(6) 0.2174(4)
C25 C 0.1775(8) 0.5065(7) 0.1709(5)
H15 H 0.2403 0.5856 0.2058
H16 H 0.1174 0.4888 0.2134
C29 C 0.1400(7) 0.5687(6) 0.0322(5)
H20 H 0.2339 0.6154 0.0528
C30 C 0.0851(7) 0.5037(6) 0.0837(5)
C31 C -0.0542(8) 0.4361(7) 0.0501(5)
H21 H -0.0926 0.3918 0.0836
C33 C 0.5895(9) 0.7474(7) 0.2404(6)
H23 H 0.5762 0.8176 0.2840
N6 N 0.4373(7) 0.3309(6) 0.0979(5)
C34 C 0.6308(9) 0.5445(8) 0.1218(7)
H24 H 0.6445 0.4725 0.0815
C35 C 0.2111(10) 0.2999(8) 0.1120(6)
H25 H 0.1171 0.2618 0.1089
C36 C 0.3148(11) 0.2466(8) 0.0863(7)
H26 H 0.3059 0.1652 0.0641
C37 C 0.7341(11) 0.6483(9) 0.1452(8)
H27 H 0.8181 0.6472 0.1212
C38 C 0.7118(9) 0.7533(7) 0.2044(7)
H28 H 0.7774 0.8255 0.2194
N4A N -0.2649(7) 0.5809(5) -0.1434(4)
C19A C -0.5099(7) 0.4530(6) -0.1571(4)
C20A C -0.4061(7) 0.5649(6) -0.1325(5)
N5A N -0.4881(7) 0.3515(6) -0.2174(4)
C25A C -0.1775(8) 0.4935(7) -0.1709(5)
H15A H -0.2403 0.4144 -0.2058
H16A H -0.1174 0.5112 -0.2134
C29A C -0.1400(7) 0.4313(6) -0.0322(5)
H20A H -0.2339 0.3846 -0.0528
C30A C -0.0851(7) 0.4963(6) -0.0837(5)
C31A C 0.0542(8) 0.5639(7) -0.0501(5)
H21A H 0.0926 0.6082 -0.0836
C33A C -0.5895(9) 0.2526(7) -0.2404(6)
H23A H -0.5762 0.1824 -0.2840
N6A N -0.4373(7) 0.6691(6) -0.0979(5)
C34A C -0.6308(9) 0.4555(8) -0.1218(7)
H24A H -0.6445 0.5275 -0.0815
C35A C -0.2111(10) 0.7001(8) -0.1120(6)
H25A H -0.1171 0.7382 -0.1089
C36A C -0.3148(11) 0.7534(8) -0.0863(7)
H26A H -0.3059 0.8348 -0.0641
C37A C -0.7341(11) 0.3517(9) -0.1452(8)
H27A H -0.8181 0.3528 -0.1212
C38A C -0.7118(9) 0.2467(7) -0.2044(7)
H28A H -0.7774 0.1745 -0.2194
loop_
_geom_bond_atom_site_label_1
_geom_bond_atom_site_label_2
_geom_bond_site_symmetry_1
_geom_bond_site_symmetry_2
Cd1 O1 1_555 1_555
O1 C12 1_555 1_555
O2 C1 1_555 1_555
O3 C1 1_555 1_555
N1 C4 1_555 1_555
O4 C12 1_555 1_555
O5 C13 1_555 1_555
C1 C3 1_555 1_555
N2 Cd1 1_555 1_555
N3 Cd1 1_555 1_555
C2 C4 1_555 1_555
C3 C6 1_555 1_555
C4 H1 1_555 1_555
H2 C4 1_555 1_555
C5 N3 1_555 1_555
N4 C20 1_555 1_555
C6 H3 1_555 1_555
C7 C6 1_555 1_555
H4 C7 1_555 1_555
C8 N1 1_555 1_555
C9 H5 1_555 1_555
C10 C5 1_555 1_555
H6 C10 1_555 1_555
C11 H7 1_555 1_555
C12 C17 1_555 1_555
C13 C9 1_555 1_555
C14 C2 1_555 1_555
H8 C14 1_555 1_555
C15 O5 1_555 1_555
C16 C15 1_555 1_555
H9 C16 1_555 1_555
C17 C23 1_555 1_555
C18 C10 1_555 1_555
H10 C18 1_555 1_555
C19 C20 1_555 1_555
C20 N6 1_555 1_555
C21 C2 1_555 1_555
H11 C21 1_555 1_555
C22 C3 1_555 1_555
H12 C22 1_555 1_555
N5 C19 1_555 1_555
C23 C9 1_555 1_555
H13 C23 1_555 1_555
C24 N2 1_555 1_555
H14 C24 1_555 1_555
C25 N4 1_555 1_555
H15 C25 1_555 1_555
H16 C25 1_555 1_555
C26 C13 1_555 1_555
H17 C26 1_555 1_555
C27 N1 1_555 1_555
H18 C27 1_555 1_555
C28 C17 1_555 1_555
H19 C28 1_555 1_555
C29 H20 1_555 1_555
C30 C25 1_555 1_555
C31 C30 1_555 1_555
H21 C31 1_555 1_555
C32 N3 1_555 1_555
H22 C32 1_555 1_555
C33 N5 1_555 1_555
H23 C33 1_555 1_555
N6 C36 1_555 1_555
C34 C19 1_555 1_555
H24 C34 1_555 1_555
C35 N4 1_555 1_555
H25 C35 1_555 1_555
C36 C35 1_555 1_555
H26 C36 1_555 1_555
C37 C34 1_555 1_555
H27 C37 1_555 1_555
C38 C33 1_555 1_555
H28 C38 1_555 1_555
Cd1A O1 1_555 1_555
Cd1_2 O2 1_555 1_555
Cd1A_2 N2A 1_555 1_555
Cd1A_3 O2A 1_555 1_555
O1A Cd1 1_555 1_555
O2A C1A 1_555 1_555
O2_2 Cd1 1_555 1_555
O2A_2 Cd1A 1_555 1_555
O3A Cd1A_3 1_555 1_555
O3_2 Cd1 1_555 1_555
O3A_2 Cd1A 1_555 1_555
N1A C4A 1_555 1_555
O4A C12A 1_555 1_555
O5A C13A 1_555 1_555
C1A O3A 1_555 1_555
N2A C8A 1_555 1_555
N2A_2 Cd1A 1_555 1_555
N3A Cd1A_2 1_555 1_555
N3A_2 Cd1A 1_555 1_555
C2A C4A 1_555 1_555
C3A C1A 1_555 1_555
C4A H1A 1_555 1_555
H2A C4A 1_555 1_555
C5A N3A 1_555 1_555
N4A C20A 1_555 1_555
C6A C3A 1_555 1_555
H3A C6A 1_555 1_555
C7A C6A 1_555 1_555
H4A C7A 1_555 1_555
C8A N1A 1_555 1_555
C9A H5A 1_555 1_555
C10A C5A 1_555 1_555
H6A C10A 1_555 1_555
C11A H7A 1_555 1_555
C12A O1A 1_555 1_555
C13A C9A 1_555 1_555
C14A C21 1_555 1_555
H8A C14A 1_555 1_555
C15A O5A 1_555 1_555
C16A C15A 1_555 1_555
H9A C16A 1_555 1_555
C17A C12A 1_555 1_555
C18A C10A 1_555 1_555
H10A C18A 1_555 1_555
C19A C20A 1_555 1_555
C20A N6A 1_555 1_555
C21A C14 1_555 1_555
H11A C21A 1_555 1_555
C22A C3A 1_555 1_555
H12A C22A 1_555 1_555
N5A C19A 1_555 1_555
C23A C9A 1_555 1_555
H13A C23A 1_555 1_555
C24A N2A 1_555 1_555
H14A C24A 1_555 1_555
C25A N4A 1_555 1_555
H15A C25A 1_555 1_555
H16A C25A 1_555 1_555
C26A C13A 1_555 1_555
H17A C26A 1_555 1_555
C27A N1A 1_555 1_555
H18A C27A 1_555 1_555
C28A C17A 1_555 1_555
H19A C28A 1_555 1_555
C29A C31 1_555 1_555
H20A C29A 1_555 1_555
C30A C25A 1_555 1_555
C31A C29 1_555 1_555
H21A C31A 1_555 1_555
C32A N3A 1_555 1_555
H22A C32A 1_555 1_555
C33A N5A 1_555 1_555
H23A C33A 1_555 1_555
N6A C36A 1_555 1_555
C34A C19A 1_555 1_555
H24A C34A 1_555 1_555
C35A N4A 1_555 1_555
H25A C35A 1_555 1_555
C36A C35A 1_555 1_555
H26A C36A 1_555 1_555
C37A C34A 1_555 1_555
H27A C37A 1_555 1_555
C38A C33A 1_555 1_555
H28A C38A 1_555 1_555
O3 Cd1_2 1_555 1_555
N2 C8 1_555 1_555
C5 C8 1_555 1_555
C7 C15 1_555 1_555
C11 C18 1_555 1_555
C11 C32 1_555 1_555
C16 C22 1_555 1_555
C24 C27 1_555 1_555
C26 C28 1_555 1_555
C29 C30 1_555 1_555
C37 C38 1_555 1_555
Cd1A O1A 1_555 1_555
C2A C14A 1_555 1_555
C2A C21A 1_555 1_555
C5A C8A 1_555 1_555
C7A C15A 1_555 1_555
C11A C18A 1_555 1_555
C11A C32A 1_555 1_555
C16A C22A 1_555 1_555
C17A C23A 1_555 1_555
C24A C27A 1_555 1_555
C26A C28A 1_555 1_555
C29A C30A 1_555 1_555
C30A C31A 1_555 1_555
C37A C38A 1_555 1_555

#END
