
#######################################################################
#
#                 Cambridge Crystallographic Data Centre
#                                CCDC 
#
#######################################################################
#
# If this CIF has been generated from an entry in the Cambridge 
# Structural Database, then it will include bibliographic, chemical, 
# crystal, experimental, refinement or atomic coordinate data resulting 
# from the CCDC's data processing and validation procedures.
#
#######################################################################

data_VONCUY
_symmetry_cell_setting           monoclinic
_symmetry_space_group_name_H-M   'C 2/c'
_symmetry_Int_Tables_number      15
_space_group_name_Hall           '-C 2yn'
loop_
_symmetry_equiv_pos_site_id
_symmetry_equiv_pos_as_xyz
1 x,y,z
2 -x,y,1/2-z
3 1/2+x,1/2+y,z
4 1/2-x,1/2+y,1/2-z
5 -x,-y,-z
6 x,-y,1/2+z
7 1/2-x,1/2-y,-z
8 1/2+x,1/2-y,1/2+z
_cell_length_a                   21.775(4)
_cell_length_b                   4.8267(8)
_cell_length_c                   9.5273(17)
_cell_angle_alpha                90
_cell_angle_beta                 95.233(2)
_cell_angle_gamma                90
_cell_volume                     997.159
loop_
_atom_site_label
_atom_site_type_symbol
_atom_site_fract_x
_atom_site_fract_y
_atom_site_fract_z
Zn1 Zn 0.29629(2) 0.12014(6) 0.60637(3)
P1 P 0.33605(3) -0.33617(13) 0.42548(7)
O1 O 0.35581(9) -0.1424(3) 0.5481(2)
O2 O 0.29095(8) -0.5589(4) 0.47358(19)
O3 O 0.30342(9) -0.1809(4) 0.3019(2)
C1 C 0.45060(12) -0.3332(5) 0.3127(3)
H1 H 0.4302 -0.2120 0.2386
H2 H 0.4703 -0.2133 0.3883
C2 C 0.40211(11) -0.5174(5) 0.3734(3)
H3 H 0.4219 -0.6172 0.4563
H4 H 0.3880 -0.6578 0.3018
C3 C 0.5000 -0.5077(8) 0.2500
H5 H 0.4805 -0.6249 0.1777
P1A P 0.66395(3) -0.33617(13) 0.07452(7)
O1A O 0.64419(9) -0.1424(3) -0.0481(2)
O2A O 0.70905(8) -0.5589(4) 0.02642(19)
O3A O 0.69658(9) -0.1809(4) 0.1981(2)
C1A C 0.54940(12) -0.3332(5) 0.1873(3)
H1A H 0.5698 -0.2120 0.2614
H2A H 0.5297 -0.2133 0.1117
C2A C 0.59789(11) -0.5174(5) 0.1266(3)
H3A H 0.5781 -0.6172 0.0437
H4A H 0.6120 -0.6578 0.1982
H5A H 0.5195 -0.6249 0.3223
Zn1A Zn 0.70371(2) 0.12014(6) -0.10637(3)
Zn1_2 Zn 0.29629(2) -0.87986(6) 0.60637(3)
Zn1A_2 Zn 0.70371(2) -0.87986(6) -0.10637(3)
Zn1D Zn 0.70371(2) -0.12014(6) 0.39363(3)
Zn1E Zn 0.29629(2) -0.12014(6) 0.10637(3)
Zn1F Zn 0.20371(2) -0.62014(6) 0.39363(3)
Zn1G Zn 0.79629(2) -0.62014(6) 0.10637(3)
O2_2 O 0.29095(8) 0.4411(4) 0.47358(19)
O2A_2 O 0.70905(8) 0.4411(4) 0.02642(19)
O2F O 0.20905(8) 0.0589(4) 0.52642(19)
O2G O 0.79095(8) 0.0589(4) -0.02642(19)
O3D O 0.69658(9) 0.1809(4) -0.3019(2)
O3E O 0.30342(9) 0.1809(4) 0.8019(2)
loop_
_geom_bond_atom_site_label_1
_geom_bond_atom_site_label_2
_geom_bond_site_symmetry_1
_geom_bond_site_symmetry_2
Zn1 O1 1_555 1_555
P1 O1 1_555 1_555
O2 P1 1_555 1_555
O3 P1 1_555 1_555
C1 H1 1_555 1_555
H2 C1 1_555 1_555
C2 P1 1_555 1_555
H3 C2 1_555 1_555
H4 C2 1_555 1_555
C3 C1 1_555 1_555
H5 C3 1_555 1_555
P1A O1A 1_555 1_555
O1A Zn1A 1_555 1_555
O2A P1A 1_555 1_555
O3A P1A 1_555 1_555
C1A C3 1_555 1_555
H1A C1A 1_555 1_555
H2A C1A 1_555 1_555
C2A P1A 1_555 1_555
H3A C2A 1_555 1_555
H4A C2A 1_555 1_555
H5A C3 1_555 1_555
Zn1A O2A_2 1_555 1_555
Zn1_2 O2 1_555 1_555
Zn1A_2 O2A 1_555 1_555
Zn1D O3A 1_555 1_555
Zn1E O3 1_555 1_555
Zn1F O2 1_555 1_555
Zn1G O2A 1_555 1_555
O2_2 Zn1 1_555 1_555
O2F Zn1 1_555 1_555
O2G Zn1A 1_555 1_555
O3D Zn1A 1_555 1_555
O3E Zn1 1_555 1_555
C1 C2 1_555 1_555
C1A C2A 1_555 1_555

#END
