
#######################################################################
#
#                 Cambridge Crystallographic Data Centre
#                                CCDC 
#
#######################################################################
#
# If this CIF has been generated from an entry in the Cambridge 
# Structural Database, then it will include bibliographic, chemical, 
# crystal, experimental, refinement or atomic coordinate data resulting 
# from the CCDC's data processing and validation procedures.
#
#######################################################################

data_VONDAF
_symmetry_cell_setting           triclinic
_symmetry_space_group_name_H-M   'P -1'
_symmetry_Int_Tables_number      2
_space_group_name_Hall           '-P 1'
loop_
_symmetry_equiv_pos_site_id
_symmetry_equiv_pos_as_xyz
1 x,y,z
2 -x,-y,-z
_cell_length_a                   8.6850(13)
_cell_length_b                   9.9739(15)
_cell_length_c                   12.8831(19)
_cell_angle_alpha                100.409(2)
_cell_angle_beta                 104.701(2)
_cell_angle_gamma                90.945(2)
_cell_volume                     1059.4
loop_
_atom_site_label
_atom_site_type_symbol
_atom_site_fract_x
_atom_site_fract_y
_atom_site_fract_z
Zn1 Zn 0.35382(3) 0.44854(3) 0.57583(2)
Zn2 Zn -0.24604(3) 0.25532(3) 0.49562(2)
Zn3 Zn 0.29850(3) 0.04432(3) 0.44900(2)
P1 P 0.54489(7) 0.21866(6) -0.34794(5)
P2 P 0.03414(7) 0.47031(7) 0.65856(5)
P3 P 0.41102(7) 0.28506(7) 0.36142(5)
P4 P -0.08768(7) 0.02999(7) 0.34738(6)
O1 O 0.2973(2) 0.35863(19) 0.42228(15)
O2 O 0.6690(2) 0.15353(18) -0.40736(15)
O3 O 0.2044(2) 0.4423(2) 0.66123(15)
O4 O 0.5830(2) 0.35460(18) 0.41220(15)
O5 O 0.4142(2) 0.13423(18) 0.36424(15)
O6 O 0.3790(2) 0.1496(2) -0.40295(15)
O7 O 0.0826(2) 0.0821(2) 0.39515(17)
O8 O -0.2030(2) 0.0934(2) 0.40864(18)
O9 O 0.5483(2) 0.37084(19) -0.34702(15)
O10 O -0.0900(2) 0.3999(2) 0.55780(16)
O11 O -0.1011(2) -0.1296(2) 0.34157(17)
H1 H -0.1868 -0.1517 0.3549
O12 O 0.0195(2) 0.6294(2) 0.67017(16)
H2 H -0.0752 0.6452 0.6420
C1 C 0.6030(3) 0.1885(3) -0.2111(2)
H3 H 0.5998 0.0887 -0.2133
H4 H 0.7144 0.2254 -0.1768
C2 C 0.4966(3) 0.2532(3) -0.1404(2)
H5 H 0.3839 0.2235 -0.1783
H6 H 0.5084 0.3538 -0.1318
C3 C 0.3535(3) 0.3080(3) 0.2225(2)
H7 H 0.2446 0.2655 0.1874
H8 H 0.3505 0.4070 0.2214
C4 C -0.0060(3) 0.4272(3) 0.7789(2)
H9 H -0.1160 0.4497 0.7805
H10 H 0.0006 0.3276 0.7754
C5 C 0.4265(3) 0.2769(3) 0.0410(2)
H11 H 0.4319 0.3772 0.0463
H12 H 0.3154 0.2418 0.0030
C6 C 0.4672(3) 0.2457(3) 0.1558(2)
H13 H 0.5778 0.2818 0.1944
H14 H 0.4625 0.1454 0.1508
C7 C -0.1441(3) 0.0536(3) 0.2086(2)
H15 H -0.2521 0.0096 0.1725
H16 H -0.1486 0.1525 0.2076
C8 C 0.5365(3) 0.2152(3) -0.0271(2)
H17 H 0.5277 0.1145 -0.0355
H18 H 0.6481 0.2474 0.0118
C9 C 0.1107(3) 0.5029(3) 0.8847(2)
H19 H 0.1070 0.6024 0.8864
H20 H 0.2202 0.4778 0.8837
C10 C -0.0598(4) 0.0285(3) 0.0309(2)
H21 H -0.1684 -0.0084 -0.0118
H22 H -0.0562 0.1291 0.0379
C11 C -0.0272(4) -0.0067(3) 0.1442(2)
H23 H 0.0827 0.0277 0.1859
H24 H -0.0337 -0.1073 0.1369
C12 C 0.0762(3) 0.4721(3) 0.9896(2)
H25 H 0.0698 0.3719 0.9848
H26 H 0.1665 0.5114 1.0526
P2A P -0.03414(7) 0.52969(7) 1.34144(5)
O3A O -0.2044(2) 0.5577(2) 1.33877(15)
O10A O 0.0900(2) 0.6001(2) 1.44220(16)
O12A O -0.0195(2) 0.3706(2) 1.32983(16)
H2A H 0.0752 0.3548 1.3580
C4A C 0.0060(3) 0.5728(3) 1.2211(2)
H9A H 0.1160 0.5503 1.2195
H10A H -0.0006 0.6724 1.2246
C9A C -0.1107(3) 0.4971(3) 1.1153(2)
H19A H -0.1070 0.3976 1.1136
H20A H -0.2202 0.5222 1.1163
C12A C -0.0762(3) 0.5279(3) 1.0104(2)
H25A H -0.0698 0.6281 1.0152
H26A H -0.1665 0.4886 0.9474
P4A P 0.08768(7) -0.02999(7) -0.34738(6)
O7A O -0.0826(2) -0.0821(2) -0.39515(17)
O8A O 0.2030(2) -0.0934(2) -0.40864(18)
O11A O 0.1011(2) 0.1296(2) -0.34157(17)
H1A H 0.1868 0.1517 -0.3549
C7A C 0.1441(3) -0.0536(3) -0.2086(2)
H15A H 0.2521 -0.0096 -0.1725
H16A H 0.1486 -0.1525 -0.2076
C10A C 0.0598(4) -0.0285(3) -0.0309(2)
H21A H 0.1684 0.0084 0.0118
H22A H 0.0562 -0.1291 -0.0379
C11A C 0.0272(4) 0.0067(3) -0.1442(2)
H23A H -0.0827 -0.0277 -0.1859
H24A H 0.0337 0.1073 -0.1369
Zn1A Zn -0.35382(3) -0.44854(3) -0.57583(2)
Zn2A Zn 0.24604(3) -0.25532(3) -0.49562(2)
Zn3A Zn -0.29850(3) -0.04432(3) -0.44900(2)
P1A P -0.54489(7) -0.21866(6) 0.34794(5)
P3A P -0.41102(7) -0.28506(7) -0.36142(5)
O1A O -0.2973(2) -0.35863(19) -0.42228(15)
O2A O -0.6690(2) -0.15353(18) 0.40736(15)
O4A O -0.5830(2) -0.35460(18) -0.41220(15)
O5A O -0.4142(2) -0.13423(18) -0.36424(15)
O6A O -0.3790(2) -0.1496(2) 0.40295(15)
O9A O -0.5483(2) -0.37084(19) 0.34702(15)
C1A C -0.6030(3) -0.1885(3) 0.2111(2)
H3A H -0.5998 -0.0887 0.2133
H4A H -0.7144 -0.2254 0.1768
C2A C -0.4966(3) -0.2532(3) 0.1404(2)
H5A H -0.3839 -0.2235 0.1783
H6A H -0.5084 -0.3538 0.1318
C3A C -0.3535(3) -0.3080(3) -0.2225(2)
H7A H -0.2446 -0.2655 -0.1874
H8A H -0.3505 -0.4070 -0.2214
C5A C -0.4265(3) -0.2769(3) -0.0410(2)
H11A H -0.4319 -0.3772 -0.0463
H12A H -0.3154 -0.2418 -0.0030
C6A C -0.4672(3) -0.2457(3) -0.1558(2)
H13A H -0.5778 -0.2818 -0.1944
H14A H -0.4625 -0.1454 -0.1508
C8A C -0.5365(3) -0.2152(3) 0.0271(2)
H17A H -0.5277 -0.1145 0.0355
H18A H -0.6481 -0.2474 -0.0118
Zn1_2 Zn -0.64618(3) -0.55146(3) -0.42417(2)
Zn1_3 Zn 0.35382(3) 0.44854(3) -0.42417(2)
Zn1A_2 Zn -0.35382(3) -0.44854(3) 0.42417(2)
Zn1A_3 Zn -0.35382(3) 0.55146(3) 1.42417(2)
Zn1A_4 Zn 0.64618(3) 0.55146(3) 0.42417(2)
Zn2_2 Zn 0.75396(3) 0.25532(3) -0.50438(2)
Zn2_3 Zn 0.75396(3) 0.25532(3) 0.49562(2)
Zn2A_2 Zn -0.75396(3) -0.25532(3) -0.49562(2)
Zn2A_3 Zn -0.75396(3) -0.25532(3) 0.50438(2)
Zn2A_4 Zn 0.24604(3) 0.74468(3) 1.50438(2)
Zn3_2 Zn -0.70150(3) 0.04432(3) 0.44900(2)
Zn3_3 Zn 0.29850(3) 0.04432(3) -0.55100(2)
Zn3A_2 Zn -0.29850(3) -0.04432(3) 0.55100(2)
Zn3A_3 Zn 0.70150(3) -0.04432(3) -0.44900(2)
O2_2 O -0.3310(2) 0.15353(18) -0.40736(15)
O2_3 O -0.3310(2) 0.15353(18) 0.59264(15)
O2A_2 O 0.3310(2) -0.15353(18) -0.59264(15)
O2A_3 O 0.3310(2) -0.15353(18) 0.40736(15)
O3A_2 O -0.2044(2) -0.4423(2) -0.66123(15)
O4_2 O -0.4170(2) -0.64540(18) -0.58780(15)
O4_3 O -0.4170(2) 0.35460(18) 0.41220(15)
O4A_2 O 0.4170(2) -0.35460(18) -0.41220(15)
O4A_3 O 0.4170(2) 0.64540(18) 0.58780(15)
O6_2 O 0.3790(2) 0.1496(2) 0.59705(15)
O6A_2 O -0.3790(2) -0.1496(2) -0.59705(15)
O9_2 O 0.5483(2) 0.37084(19) 0.65298(15)
O9A_2 O -0.5483(2) -0.37084(19) -0.65298(15)
O10A_2 O 0.0900(2) -0.3999(2) -0.55780(16)
loop_
_geom_bond_atom_site_label_1
_geom_bond_atom_site_label_2
_geom_bond_site_symmetry_1
_geom_bond_site_symmetry_2
Zn1 O1 1_555 1_555
Zn2 O8 1_555 1_555
Zn3 O5 1_555 1_555
P1 O2 1_555 1_555
P2 O3 1_555 1_555
P3 O1 1_555 1_555
P4 O7 1_555 1_555
O2 Zn2_2 1_555 1_555
O3 Zn1 1_555 1_555
O4 P3 1_555 1_555
O5 P3 1_555 1_555
O6 P1 1_555 1_555
O7 Zn3 1_555 1_555
O8 P4 1_555 1_555
O9 P1 1_555 1_555
O10 Zn2 1_555 1_555
O11 P4 1_555 1_555
H1 O11 1_555 1_555
O12 P2 1_555 1_555
H2 O12 1_555 1_555
C1 P1 1_555 1_555
H3 C1 1_555 1_555
H4 C1 1_555 1_555
C2 C1 1_555 1_555
H5 C2 1_555 1_555
H6 C2 1_555 1_555
C3 P3 1_555 1_555
H7 C3 1_555 1_555
H8 C3 1_555 1_555
C4 P2 1_555 1_555
H9 C4 1_555 1_555
H10 C4 1_555 1_555
C5 H11 1_555 1_555
H12 C5 1_555 1_555
C6 C3 1_555 1_555
H13 C6 1_555 1_555
H14 C6 1_555 1_555
C7 P4 1_555 1_555
H15 C7 1_555 1_555
H16 C7 1_555 1_555
C8 C2 1_555 1_555
H17 C8 1_555 1_555
H18 C8 1_555 1_555
C9 C4 1_555 1_555
H19 C9 1_555 1_555
H20 C9 1_555 1_555
C10 H21 1_555 1_555
H22 C10 1_555 1_555
C11 C7 1_555 1_555
H23 C11 1_555 1_555
H24 C11 1_555 1_555
C12 C9 1_555 1_555
H25 C12 1_555 1_555
H26 C12 1_555 1_555
P2A O3A 1_555 1_555
O3A Zn1A_3 1_555 1_555
O10A P2A 1_555 1_555
O12A P2A 1_555 1_555
H2A O12A 1_555 1_555
C4A P2A 1_555 1_555
H9A C4A 1_555 1_555
H10A C4A 1_555 1_555
C9A C4A 1_555 1_555
H19A C9A 1_555 1_555
H20A C9A 1_555 1_555
C12A C12 1_555 1_555
H25A C12A 1_555 1_555
H26A C12A 1_555 1_555
P4A O7A 1_555 1_555
O7A Zn3A 1_555 1_555
O8A P4A 1_555 1_555
O11A P4A 1_555 1_555
H1A O11A 1_555 1_555
C7A P4A 1_555 1_555
H15A C7A 1_555 1_555
H16A C7A 1_555 1_555
C10A C10 1_555 1_555
H21A C10A 1_555 1_555
H22A C10A 1_555 1_555
C11A C7A 1_555 1_555
H23A C11A 1_555 1_555
H24A C11A 1_555 1_555
Zn1A O1A 1_555 1_555
Zn2A O8A 1_555 1_555
Zn3A O5A 1_555 1_555
P1A O2A 1_555 1_555
P3A O1A 1_555 1_555
O2A Zn2A_3 1_555 1_555
O4A P3A 1_555 1_555
O5A P3A 1_555 1_555
O6A P1A 1_555 1_555
O9A P1A 1_555 1_555
C1A P1A 1_555 1_555
H3A C1A 1_555 1_555
H4A C1A 1_555 1_555
C2A C1A 1_555 1_555
H5A C2A 1_555 1_555
H6A C2A 1_555 1_555
C3A P3A 1_555 1_555
H7A C3A 1_555 1_555
H8A C3A 1_555 1_555
C5A H11A 1_555 1_555
H12A C5A 1_555 1_555
C6A C3A 1_555 1_555
H13A C6A 1_555 1_555
H14A C6A 1_555 1_555
C8A C2A 1_555 1_555
H17A C8A 1_555 1_555
H18A C8A 1_555 1_555
Zn1_2 O4A 1_555 1_555
Zn1_3 O9 1_555 1_555
Zn1A_2 O9A 1_555 1_555
Zn1A_4 O4 1_555 1_555
Zn2_3 O4 1_555 1_555
Zn2A_2 O4A 1_555 1_555
Zn2A_4 O10A 1_555 1_555
Zn3_2 O2A 1_555 1_555
Zn3_3 O6 1_555 1_555
Zn3A_2 O6A 1_555 1_555
Zn3A_3 O2 1_555 1_555
O2_2 Zn3A 1_555 1_555
O2_3 Zn2 1_555 1_555
O2A_2 Zn2A 1_555 1_555
O2A_3 Zn3 1_555 1_555
O3A_2 Zn1A 1_555 1_555
O4_2 Zn1A 1_555 1_555
O4_3 Zn2 1_555 1_555
O4A_2 Zn2A 1_555 1_555
O4A_3 Zn1 1_555 1_555
O6_2 Zn3 1_555 1_555
O6A_2 Zn3A 1_555 1_555
O9_2 Zn1 1_555 1_555
O9A_2 Zn1A 1_555 1_555
O10A_2 Zn2A 1_555 1_555
P2 O10 1_555 1_555
C5 C6 1_555 1_555
C5 C8 1_555 1_555
C10 C11 1_555 1_555
C9A C12A 1_555 1_555
C10A C11A 1_555 1_555
C5A C6A 1_555 1_555
C5A C8A 1_555 1_555
Zn3_3 O2A_2 1_555 1_555
Zn3A_2 O2_3 1_555 1_555

#END
