
#######################################################################
#
#                 Cambridge Crystallographic Data Centre
#                                CCDC 
#
#######################################################################
#
# If this CIF has been generated from an entry in the Cambridge 
# Structural Database, then it will include bibliographic, chemical, 
# crystal, experimental, refinement or atomic coordinate data resulting 
# from the CCDC's data processing and validation procedures.
#
#######################################################################

data_VONDAE
_symmetry_cell_setting           monoclinic
_symmetry_space_group_name_H-M   'C 2/c'
_symmetry_Int_Tables_number      15
_space_group_name_Hall           '-C 2yn'
loop_
_symmetry_equiv_pos_site_id
_symmetry_equiv_pos_as_xyz
1 x,y,z
2 -x,y,1/2-z
3 1/2+x,1/2+y,z
4 1/2-x,1/2+y,1/2-z
5 -x,-y,-z
6 x,-y,1/2+z
7 1/2-x,1/2-y,-z
8 1/2+x,1/2-y,1/2+z
_cell_length_a                   23.643(3)
_cell_length_b                   8.9890(18)
_cell_length_c                   36.249(3)
_cell_angle_alpha                90
_cell_angle_beta                 100.896(2)
_cell_angle_gamma                90
_cell_volume                     7565
loop_
_atom_site_label
_atom_site_type_symbol
_atom_site_fract_x
_atom_site_fract_y
_atom_site_fract_z
Zn1 Zn 0.5000 0.5000 0.0000
Zn2 Zn 0.61667(4) 0.28543(10) 0.02110(3)
Zn3 Zn 0.57968(5) 0.54536(12) 0.23507(3)
N1 N 0.6879(3) 0.1665(7) 0.04441(17)
N2 N 0.6573(3) 0.2698(7) 0.09462(17)
N3 N 0.6233(4) 0.3716(8) 0.14527(19)
H1 H 0.6292 0.3887 0.1690
N4 N 0.5781(3) 0.7695(8) 0.22665(18)
N5 N 0.5779(3) 0.6796(7) 0.16822(16)
N6 N 0.5779(3) 0.5827(8) 0.10936(18)
H2 H 0.5823 0.5968 0.0866
O1 O 0.5361(2) 0.3085(5) 0.03030(13)
O2 O 0.5588(3) 0.0738(7) 0.03824(17)
O3 O 0.5712(3) 0.6215(5) 0.02709(14)
O4 O 0.6505(2) 0.4905(6) 0.02442(16)
O5 O 0.5389(2) 0.4453(6) -0.04642(14)
O6 O 0.6021(3) 0.2599(7) -0.03421(16)
O7 O 0.6489(3) 0.4291(7) 0.22724(16)
O8 O 0.6811(4) 0.5910(9) 0.2718(2)
O9 O 0.5206(4) 0.4112(7) 0.20373(17)
C1 C 0.6969(3) 0.1831(8) 0.0828(2)
C2 C 0.6637(4) 0.2898(9) 0.1316(2)
C3 C 0.7088(5) 0.2239(11) 0.1579(3)
H3 H 0.7109 0.2396 0.1835
C4 C 0.7481(5) 0.1395(11) 0.1459(3)
H4 H 0.7780 0.0973 0.1630
C5 C 0.7437(4) 0.1142(9) 0.1063(2)
C6 C 0.7804(4) 0.0283(10) 0.0898(3)
H5 H 0.8114 -0.0196 0.1047
C7 C 0.7718(4) 0.0130(10) 0.0518(3)
H6 H 0.7971 -0.0442 0.0410
C8 C 0.7256(3) 0.0821(9) 0.0293(2)
C9 C 0.7137(4) 0.0644(10) -0.0119(2)
H7 H 0.6846 -0.0103 -0.0189
H8 H 0.7483 0.0347 -0.0201
H9 H 0.7004 0.1572 -0.0235
C10 C 0.5777(4) 0.8027(9) 0.1899(2)
C11 C 0.5772(4) 0.7005(10) 0.1320(2)
C12 C 0.5749(4) 0.8483(12) 0.1158(3)
H10 H 0.5730 0.8595 0.0901
C13 C 0.5754(5) 0.9655(12) 0.1370(3)
H11 H 0.5745 1.0600 0.1264
C14 C 0.5775(4) 0.9496(10) 0.1760(3)
C15 C 0.5792(5) 1.0607(13) 0.2024(4)
H12 H 0.5795 1.1595 0.1948
C16 C 0.5806(6) 1.0309(14) 0.2382(4)
H13 H 0.5816 1.1094 0.2551
C17 C 0.5806(4) 0.8838(13) 0.2518(3)
C18 C 0.5839(6) 0.8457(14) 0.2922(3)
H14 H 0.5458 0.8442 0.2978
H15 H 0.6067 0.9189 0.3076
H16 H 0.6013 0.7495 0.2972
C19 C 0.5715(4) 0.4314(10) 0.1223(2)
H17 H 0.5408 0.4299 0.1368
H18 H 0.5599 0.3674 0.1007
C20 C 0.5225(4) 0.1746(10) 0.0376(2)
C21 C 0.4643(4) 0.1457(12) 0.0458(3)
H19 H 0.4393 0.1115 0.0234
H20 H 0.4491 0.2358 0.0543
H21 H 0.4669 0.0711 0.0650
C22 C 0.6242(4) 0.6102(9) 0.0286(2)
C23 C 0.6604(4) 0.7450(11) 0.0358(3)
H22 H 0.6822 0.7569 0.0162
H23 H 0.6862 0.7353 0.0596
H24 H 0.6362 0.8305 0.0364
C24 C 0.5692(4) 0.3485(10) -0.0556(2)
C25 C 0.5695(4) 0.3251(13) -0.0977(2)
H25 H 0.5354 0.2723 -0.1091
H26 H 0.6029 0.2683 -0.1004
H27 H 0.5706 0.4199 -0.1097
C26 C 0.6914(5) 0.4906(14) 0.2510(3)
C27 C 0.7526(6) 0.4378(19) 0.2509(4)
O10 O 0.4485(3) 0.5211(7) 0.21795(13)
C28 C 0.4412(3) 0.3054(7) 0.17205(13)
H28 H 0.4009 0.3207 0.1627
H29 H 0.4471 0.2082 0.1831
H30 H 0.4618 0.3135 0.1517
C29 C 0.4628(3) 0.4208(7) 0.20115(13)
Zn2D Zn 0.38333(4) 0.71457(10) -0.02110(3)
Zn3D Zn 0.42032(5) 0.45464(12) -0.23507(3)
Zn3A Zn 0.42032(5) 0.54536(12) 0.26493(3)
N1D N 0.3121(3) 0.8335(7) -0.04441(17)
N2D N 0.3427(3) 0.7302(7) -0.09462(17)
N3D N 0.3767(4) 0.6284(8) -0.14527(19)
H1D H 0.3708 0.6113 -0.1690
N4D N 0.4219(3) 0.2305(8) -0.22665(18)
N5D N 0.4221(3) 0.3204(7) -0.16822(16)
N6D N 0.4221(3) 0.4173(8) -0.10936(18)
H2D H 0.4177 0.4032 -0.0866
O1D O 0.4639(2) 0.6915(5) -0.03030(13)
O2D O 0.4412(3) 0.9262(7) -0.03824(17)
O3D O 0.4288(3) 0.3785(5) -0.02709(14)
O4D O 0.3495(2) 0.5095(6) -0.02442(16)
O5D O 0.4611(2) 0.5547(6) 0.04642(14)
O6D O 0.3979(3) 0.7401(7) 0.03421(16)
O7D O 0.3511(3) 0.5709(7) -0.22724(16)
O8D O 0.3189(4) 0.4090(9) -0.2718(2)
O9A O 0.4794(4) 0.4112(7) 0.29627(17)
O9D O 0.4794(4) 0.5888(7) -0.20373(17)
C1D C 0.3031(3) 0.8169(8) -0.0828(2)
C2D C 0.3363(4) 0.7102(9) -0.1316(2)
C3D C 0.2912(5) 0.7761(11) -0.1579(3)
H3D H 0.2891 0.7604 -0.1835
C4D C 0.2519(5) 0.8605(11) -0.1459(3)
H4D H 0.2220 0.9027 -0.1630
C5D C 0.2563(4) 0.8858(9) -0.1063(2)
C6D C 0.2196(4) 0.9717(10) -0.0898(3)
H5D H 0.1886 1.0196 -0.1047
C7D C 0.2282(4) 0.9870(10) -0.0518(3)
H6D H 0.2029 1.0442 -0.0410
C8D C 0.2744(3) 0.9179(9) -0.0293(2)
C9D C 0.2863(4) 0.9356(10) 0.0119(2)
H7D H 0.3154 1.0103 0.0189
H8D H 0.2517 0.9653 0.0201
H9D H 0.2996 0.8428 0.0235
C10D C 0.4223(4) 0.1973(9) -0.1899(2)
C11D C 0.4228(4) 0.2995(10) -0.1320(2)
C12D C 0.4251(4) 0.1517(12) -0.1158(3)
H10D H 0.4270 0.1405 -0.0901
C13D C 0.4246(5) 0.0345(12) -0.1370(3)
H11D H 0.4255 -0.0600 -0.1264
C14D C 0.4225(4) 0.0504(10) -0.1760(3)
C15D C 0.4208(5) -0.0607(13) -0.2024(4)
H12D H 0.4205 -0.1595 -0.1948
C16D C 0.4194(6) -0.0309(14) -0.2382(4)
H13D H 0.4184 -0.1094 -0.2551
C17D C 0.4194(4) 0.1162(13) -0.2518(3)
C18D C 0.4161(6) 0.1543(14) -0.2922(3)
H14D H 0.4542 0.1558 -0.2978
H15D H 0.3933 0.0811 -0.3076
H16D H 0.3987 0.2505 -0.2972
C19D C 0.4285(4) 0.5686(10) -0.1223(2)
H17D H 0.4592 0.5701 -0.1368
H18D H 0.4401 0.6326 -0.1007
C20D C 0.4775(4) 0.8254(10) -0.0376(2)
C21D C 0.5357(4) 0.8543(12) -0.0458(3)
H19D H 0.5607 0.8885 -0.0234
H20D H 0.5509 0.7642 -0.0543
H21D H 0.5331 0.9289 -0.0650
C22D C 0.3758(4) 0.3898(9) -0.0286(2)
C23D C 0.3396(4) 0.2550(11) -0.0358(3)
H22D H 0.3178 0.2431 -0.0162
H23D H 0.3138 0.2647 -0.0596
H24D H 0.3638 0.1695 -0.0364
C24D C 0.4308(4) 0.6515(10) 0.0556(2)
C25D C 0.4305(4) 0.6749(13) 0.0977(2)
H25D H 0.4646 0.7277 0.1091
H26D H 0.3971 0.7317 0.1004
H27D H 0.4294 0.5801 0.1097
C26D C 0.3086(5) 0.5094(14) -0.2510(3)
C27D C 0.2474(6) 0.5622(19) -0.2509(4)
O10A O 0.5515(3) 0.5211(7) 0.28205(13)
O10E O 0.4485(3) 0.4789(7) -0.28205(13)
C28A C 0.5588(3) 0.3054(7) 0.32795(13)
H28A H 0.5991 0.3207 0.3373
H29A H 0.5529 0.2082 0.3169
H30A H 0.5382 0.3135 0.3483
C29A C 0.5372(3) 0.4208(7) 0.29885(13)
O11 O 0.7465(3) 0.6743(7) 0.14746(13)
O12 O 0.8259(3) 0.5630(7) 0.10885(13)
loop_
_geom_bond_atom_site_label_1
_geom_bond_atom_site_label_2
_geom_bond_site_symmetry_1
_geom_bond_site_symmetry_2
Zn1 O1 1_555 1_555
Zn2 N1 1_555 1_555
Zn3 N4 1_555 1_555
N1 C1 1_555 1_555
N2 C1 1_555 1_555
N3 H1 1_555 1_555
N4 C10 1_555 1_555
N5 C10 1_555 1_555
N6 H2 1_555 1_555
O1 Zn2 1_555 1_555
O2 C20 1_555 1_555
O3 Zn1 1_555 1_555
O4 Zn2 1_555 1_555
O5 Zn1 1_555 1_555
O6 Zn2 1_555 1_555
O7 Zn3 1_555 1_555
O8 C26 1_555 1_555
O9 Zn3 1_555 1_555
C1 C5 1_555 1_555
C2 N2 1_555 1_555
C3 C2 1_555 1_555
H3 C3 1_555 1_555
C4 C3 1_555 1_555
H4 C4 1_555 1_555
C5 C4 1_555 1_555
C6 C5 1_555 1_555
H5 C6 1_555 1_555
C7 C6 1_555 1_555
H6 C7 1_555 1_555
C8 N1 1_555 1_555
C9 C8 1_555 1_555
H7 C9 1_555 1_555
H8 C9 1_555 1_555
H9 C9 1_555 1_555
C10 C14 1_555 1_555
C11 N5 1_555 1_555
C12 C11 1_555 1_555
H10 C12 1_555 1_555
C13 C12 1_555 1_555
H11 C13 1_555 1_555
C14 C13 1_555 1_555
C15 C14 1_555 1_555
H12 C15 1_555 1_555
C16 C15 1_555 1_555
H13 C16 1_555 1_555
C17 N4 1_555 1_555
C18 C17 1_555 1_555
H14 C18 1_555 1_555
H15 C18 1_555 1_555
H16 C18 1_555 1_555
C19 N3 1_555 1_555
H17 C19 1_555 1_555
H18 C19 1_555 1_555
C20 O1 1_555 1_555
C21 C20 1_555 1_555
H19 C21 1_555 1_555
H20 C21 1_555 1_555
H21 C21 1_555 1_555
C22 O3 1_555 1_555
C23 C22 1_555 1_555
H22 C23 1_555 1_555
H23 C23 1_555 1_555
H24 C23 1_555 1_555
C24 O5 1_555 1_555
C25 C24 1_555 1_555
H25 C25 1_555 1_555
H26 C25 1_555 1_555
H27 C25 1_555 1_555
C26 O7 1_555 1_555
C27 C26 1_555 1_555
O10 C29 1_555 1_555
C28 H28 1_555 1_555
H29 C28 1_555 1_555
H30 C28 1_555 1_555
C29 O9 1_555 1_555
Zn2D N1D 1_555 1_555
Zn3D N4D 1_555 1_555
Zn3A O10 1_555 1_555
N1D C1D 1_555 1_555
N2D C1D 1_555 1_555
N3D H1D 1_555 1_555
N4D C10D 1_555 1_555
N5D C10D 1_555 1_555
N6D H2D 1_555 1_555
O1D Zn1 1_555 1_555
O2D C20D 1_555 1_555
O3D Zn1 1_555 1_555
O4D Zn2D 1_555 1_555
O5D Zn1 1_555 1_555
O6D Zn2D 1_555 1_555
O7D Zn3D 1_555 1_555
O8D C26D 1_555 1_555
O9A Zn3A 1_555 1_555
O9D Zn3D 1_555 1_555
C1D C5D 1_555 1_555
C2D N2D 1_555 1_555
C3D C2D 1_555 1_555
H3D C3D 1_555 1_555
C4D C3D 1_555 1_555
H4D C4D 1_555 1_555
C5D C4D 1_555 1_555
C6D C5D 1_555 1_555
H5D C6D 1_555 1_555
C7D C6D 1_555 1_555
H6D C7D 1_555 1_555
C8D N1D 1_555 1_555
C9D C8D 1_555 1_555
H7D C9D 1_555 1_555
H8D C9D 1_555 1_555
H9D C9D 1_555 1_555
C10D C14D 1_555 1_555
C11D N5D 1_555 1_555
C12D C11D 1_555 1_555
H10D C12D 1_555 1_555
C13D C12D 1_555 1_555
H11D C13D 1_555 1_555
C14D C13D 1_555 1_555
C15D C14D 1_555 1_555
H12D C15D 1_555 1_555
C16D C15D 1_555 1_555
H13D C16D 1_555 1_555
C17D N4D 1_555 1_555
C18D C17D 1_555 1_555
H14D C18D 1_555 1_555
H15D C18D 1_555 1_555
H16D C18D 1_555 1_555
C19D N3D 1_555 1_555
H17D C19D 1_555 1_555
H18D C19D 1_555 1_555
C20D O1D 1_555 1_555
C21D C20D 1_555 1_555
H19D C21D 1_555 1_555
H20D C21D 1_555 1_555
H21D C21D 1_555 1_555
C22D O3D 1_555 1_555
C23D C22D 1_555 1_555
H22D C23D 1_555 1_555
H23D C23D 1_555 1_555
H24D C23D 1_555 1_555
C24D O5D 1_555 1_555
C25D C24D 1_555 1_555
H25D C25D 1_555 1_555
H26D C25D 1_555 1_555
H27D C25D 1_555 1_555
C26D O7D 1_555 1_555
C27D C26D 1_555 1_555
O10A Zn3 1_555 1_555
O10E Zn3D 1_555 1_555
C28A H28A 1_555 1_555
H29A C28A 1_555 1_555
H30A C28A 1_555 1_555
C29A O9A 1_555 1_555
N3 C2 1_555 1_555
N6 C11 1_555 1_555
N6 C19 1_555 1_555
O4 C22 1_555 1_555
O6 C24 1_555 1_555
C7 C8 1_555 1_555
C16 C17 1_555 1_555
C28 C29 1_555 1_555
Zn2D O1D 1_555 1_555
N3D C2D 1_555 1_555
N6D C11D 1_555 1_555
N6D C19D 1_555 1_555
O4D C22D 1_555 1_555
O6D C24D 1_555 1_555
C7D C8D 1_555 1_555
C16D C17D 1_555 1_555
O10A C29A 1_555 1_555
C28A C29A 1_555 1_555

#END
