
#######################################################################
#
#                 Cambridge Crystallographic Data Centre
#                                CCDC 
#
#######################################################################
#
# If this CIF has been generated from an entry in the Cambridge 
# Structural Database, then it will include bibliographic, chemical, 
# crystal, experimental, refinement or atomic coordinate data resulting 
# from the CCDC's data processing and validation procedures.
#
#######################################################################

data_VONDEJ
_symmetry_cell_setting           monoclinic
_symmetry_space_group_name_H-M   'P 21/c'
_symmetry_Int_Tables_number      14
_space_group_name_Hall           '-P 2ybc'
loop_
_symmetry_equiv_pos_site_id
_symmetry_equiv_pos_as_xyz
1 x,y,z
2 -x,1/2+y,1/2-z
3 -x,-y,-z
4 x,1/2-y,1/2+z
_cell_length_a                   10.5536(9)
_cell_length_b                   17.3130(11)
_cell_length_c                   10.3937(7)
_cell_angle_alpha                90
_cell_angle_beta                 99.502(5)
_cell_angle_gamma                90
_cell_volume                     1873.02
loop_
_atom_site_label
_atom_site_type_symbol
_atom_site_fract_x
_atom_site_fract_y
_atom_site_fract_z
Zn1 Zn 1.15130(14) 0.16519(8) 0.82231(14)
Zn2 Zn 0.94998(14) 0.16724(8) 1.11638(14)
P1 P 1.8700(3) 0.28625(19) 1.3260(3)
P2 P 1.2256(3) 0.2267(2) 1.1000(3)
O1 O 1.1359(9) 0.1597(5) 1.1234(9)
O2 O 1.9672(9) 0.3500(5) 1.3032(10)
O3 O 1.9096(9) 0.2072(5) 1.2790(9)
O4 O 0.9037(9) 0.0570(5) 1.1177(9)
O5 O 1.2318(10) 0.2361(6) 0.9560(10)
O6 O 1.8543(9) 0.2817(5) 1.4688(9)
O7 O 1.1801(9) 0.3034(5) 1.1504(9)
O8 O 0.7761(9) -0.0611(5) 1.1484(9)
C1 C 1.4862(14) 0.2661(9) 1.1653(18)
H1 H 1.5015 0.2629 1.0740
H2 H 1.4550 0.3189 1.1793
C2 C 1.3815(14) 0.2078(8) 1.1847(15)
H3 H 1.3773 0.2051 1.2790
H4 H 1.4082 0.1562 1.1578
C3 C 1.6110(13) 0.2534(9) 1.2552(15)
H5 H 1.6403 0.1999 1.2441
H6 H 1.5965 0.2591 1.3464
C4 C 1.7176(14) 0.3097(8) 1.2313(14)
H7 H 1.7251 0.3088 1.1376
H8 H 1.6934 0.3628 1.2532
P3 P 0.7892(4) 0.0090(2) 1.0634(4)
O9 O 0.7961(10) -0.0154(6) 0.9202(10)
H9 H 0.8186 -0.0619 0.9189
C5 C 0.5266(15) 0.0358(9) 0.9673(17)
H10 H 0.5464 0.0207 0.8809
H11 H 0.4599 0.0765 0.9535
C6 C 0.6478(15) 0.0683(9) 1.0507(17)
H12 H 0.6293 0.0776 1.1397
H13 H 0.6671 0.1189 1.0141
O4B O 0.0963(9) -0.0570(5) 0.8823(9)
P3B P 0.2108(4) -0.0090(2) 0.9366(4)
O9B O 0.2039(10) 0.0154(6) 1.0798(10)
H9B H 0.1814 0.0619 1.0811
C5B C 0.4734(15) -0.0358(9) 1.0327(17)
H10B H 0.4536 -0.0207 1.1191
H11B H 0.5401 -0.0765 1.0465
C6B C 0.3522(15) -0.0683(9) 0.9493(17)
H12B H 0.3707 -0.0776 0.8603
H13B H 0.3329 -0.1189 0.9859
O8B O 0.2239(9) 0.0611(5) 0.8516(9)
Zn1B Zn -0.15130(14) -0.16519(8) 1.17769(14)
Zn2B Zn 0.05002(14) -0.16724(8) 0.88362(14)
P1B P -0.8700(3) -0.28625(19) 0.6740(3)
P2B P -0.2256(3) -0.2267(2) 0.9000(3)
O1B O -0.1359(9) -0.1597(5) 0.8766(9)
O2B O -0.9672(9) -0.3500(5) 0.6968(10)
O3B O -0.9096(9) -0.2072(5) 0.7210(9)
O5B O -0.2318(10) -0.2361(6) 1.0440(10)
O6B O -0.8543(9) -0.2817(5) 0.5312(9)
O7B O -0.1801(9) -0.3034(5) 0.8496(9)
C1B C -0.4862(14) -0.2661(9) 0.8347(18)
H1B H -0.5015 -0.2629 0.9260
H2B H -0.4550 -0.3189 0.8207
C2B C -0.3815(14) -0.2078(8) 0.8153(15)
H3B H -0.3773 -0.2051 0.7210
H4B H -0.4082 -0.1562 0.8422
C3B C -0.6110(13) -0.2534(9) 0.7448(15)
H5B H -0.6403 -0.1999 0.7559
H6B H -0.5965 -0.2591 0.6536
C4B C -0.7176(14) -0.3097(8) 0.7687(14)
H7B H -0.7251 -0.3088 0.8624
H8B H -0.6934 -0.3628 0.7468
Zn1_2 Zn 0.15130(14) 0.16519(8) 0.82231(14)
Zn1A Zn -1.15130(14) -0.33481(8) 0.67769(14)
Zn1A_2 Zn -0.15130(14) -0.33481(8) 0.67769(14)
Zn1B_2 Zn 0.84870(14) -0.16519(8) 1.17769(14)
Zn1C Zn 1.15130(14) 0.33481(8) 1.32231(14)
Zn1C_2 Zn 2.15130(14) 0.33481(8) 1.32231(14)
Zn2_2 Zn 1.94998(14) 0.16724(8) 1.11638(14)
Zn2A Zn -0.94998(14) -0.33276(8) 0.38362(14)
Zn2B_2 Zn -0.94998(14) -0.16724(8) 0.88362(14)
Zn2C Zn 1.94998(14) 0.33276(8) 1.61638(14)
O2A O 0.0328(9) -0.1500(5) 1.1968(10)
O2C O 0.9672(9) 0.1500(5) 0.8032(10)
O3_2 O 0.9096(9) 0.2072(5) 1.2790(9)
O3B_2 O 0.0904(9) -0.2072(5) 0.7210(9)
O6A O 0.1457(9) -0.2183(5) 1.0312(9)
O6C O 0.8543(9) 0.2183(5) 0.9688(9)
O7A O -0.1801(9) -0.1966(5) 1.3496(9)
O7C O 1.1801(9) 0.1966(5) 0.6504(9)
O8_2 O -0.2239(9) -0.0611(5) 1.1484(9)
O8B_2 O 1.2239(9) 0.0611(5) 0.8516(9)
Zn3 Zn 1.0000 0.0000 1.5000
O10 O 1.0610(11) -0.0124(6) 1.3189(11)
H14 H 1.0463 0.0313 1.2693
H15 H 1.1471 -0.0225 1.3279
O11 O 1.1936(13) 0.0025(8) 1.5941(13)
H16 H 1.2225 -0.0428 1.6496
H17 H 1.2576 0.0051 1.5351
O12 O 1.0011(16) -0.1152(7) 1.5185(12)
H18 H 0.9209 -0.1336 1.5224
H19 H 1.0282 -0.1396 1.4500
O10B O 0.9390(11) 0.0124(6) 1.6811(11)
H14B H 0.9537 -0.0313 1.7307
H15B H 0.8529 0.0225 1.6721
O11B O 0.8064(13) -0.0025(8) 1.4059(13)
H16B H 0.7775 0.0428 1.3504
H17B H 0.7424 -0.0051 1.4649
O12B O 0.9989(16) 0.1152(7) 1.4815(12)
H18B H 1.0791 0.1336 1.4776
H19B H 0.9718 0.1396 1.5500
O13 O 1.295(2) 0.091(2) 1.410(2)
loop_
_geom_bond_atom_site_label_1
_geom_bond_atom_site_label_2
_geom_bond_site_symmetry_1
_geom_bond_site_symmetry_2
Zn1 O5 1_555 1_555
Zn2 O1 1_555 1_555
P1 O2 1_555 1_555
P2 O1 1_555 1_555
O2 Zn1C_2 1_555 1_555
O3 P1 1_555 1_555
O4 Zn2 1_555 1_555
O5 P2 1_555 1_555
O6 P1 1_555 1_555
O7 P2 1_555 1_555
O8 P3 1_555 1_555
C1 H1 1_555 1_555
H2 C1 1_555 1_555
C2 P2 1_555 1_555
H3 C2 1_555 1_555
H4 C2 1_555 1_555
C3 C1 1_555 1_555
H5 C3 1_555 1_555
H6 C3 1_555 1_555
C4 P1 1_555 1_555
H7 C4 1_555 1_555
H8 C4 1_555 1_555
P3 O4 1_555 1_555
O9 P3 1_555 1_555
H9 O9 1_555 1_555
C5 H10 1_555 1_555
H11 C5 1_555 1_555
C6 P3 1_555 1_555
H12 C6 1_555 1_555
H13 C6 1_555 1_555
Zn3 O10 1_555 1_555
O10 H14 1_555 1_555
H15 O10 1_555 1_555
O11 Zn3 1_555 1_555
H16 O11 1_555 1_555
H17 O11 1_555 1_555
O12 Zn3 1_555 1_555
H18 O12 1_555 1_555
H19 O12 1_555 1_555
O4B P3B 1_555 1_555
P3B O9B 1_555 1_555
O9B H9B 1_555 1_555
C5B C5 1_555 1_555
H10B C5B 1_555 1_555
H11B C5B 1_555 1_555
C6B P3B 1_555 1_555
H12B C6B 1_555 1_555
H13B C6B 1_555 1_555
O8B P3B 1_555 1_555
Zn1B O5B 1_555 1_555
Zn2B O4B 1_555 1_555
P1B O2B 1_555 1_555
P2B O1B 1_555 1_555
O1B Zn2B 1_555 1_555
O2B Zn1A 1_555 1_555
O3B P1B 1_555 1_555
O5B P2B 1_555 1_555
O6B P1B 1_555 1_555
O7B P2B 1_555 1_555
C1B H1B 1_555 1_555
H2B C1B 1_555 1_555
C2B P2B 1_555 1_555
H3B C2B 1_555 1_555
H4B C2B 1_555 1_555
C3B C1B 1_555 1_555
H5B C3B 1_555 1_555
H6B C3B 1_555 1_555
C4B P1B 1_555 1_555
H7B C4B 1_555 1_555
H8B C4B 1_555 1_555
Zn1_2 O8B 1_555 1_555
Zn1A_2 O7B 1_555 1_555
Zn1B_2 O8 1_555 1_555
Zn1C O7 1_555 1_555
Zn2_2 O3 1_555 1_555
Zn2A O6B 1_555 1_555
Zn2B_2 O3B 1_555 1_555
Zn2C O6 1_555 1_555
O2A Zn1B 1_555 1_555
O2C Zn1 1_555 1_555
O3_2 Zn2 1_555 1_555
O3B_2 Zn2B 1_555 1_555
O6A Zn2B 1_555 1_555
O6C Zn2 1_555 1_555
O7A Zn1B 1_555 1_555
O7C Zn1 1_555 1_555
O8_2 Zn1B 1_555 1_555
O8B_2 Zn1 1_555 1_555
O10B Zn3 1_555 1_555
H14B O10B 1_555 1_555
H15B O10B 1_555 1_555
O11B Zn3 1_555 1_555
H16B O11B 1_555 1_555
H17B O11B 1_555 1_555
O12B Zn3 1_555 1_555
H18B O12B 1_555 1_555
H19B O12B 1_555 1_555
C1 C2 1_555 1_555
C3 C4 1_555 1_555
C5 C6 1_555 1_555
C5B C6B 1_555 1_555
C1B C2B 1_555 1_555
C3B C4B 1_555 1_555

#END
