
#######################################################################
#
#                 Cambridge Crystallographic Data Centre
#                                CCDC 
#
#######################################################################
#
# If this CIF has been generated from an entry in the Cambridge 
# Structural Database, then it will include bibliographic, chemical, 
# crystal, experimental, refinement or atomic coordinate data resulting 
# from the CCDC's data processing and validation procedures.
#
#######################################################################

data_VONFAH
_symmetry_cell_setting           monoclinic
_symmetry_space_group_name_H-M   'P 21/n'
_symmetry_Int_Tables_number      14
_space_group_name_Hall           '-P 2yn'
loop_
_symmetry_equiv_pos_site_id
_symmetry_equiv_pos_as_xyz
1 x,y,z
2 1/2-x,1/2+y,1/2-z
3 -x,-y,-z
4 1/2+x,1/2-y,1/2+z
_cell_length_a                   11.3508(4)
_cell_length_b                   11.6668(4)
_cell_length_c                   17.6152(6)
_cell_angle_alpha                90
_cell_angle_beta                 103.204(2)
_cell_angle_gamma                90
_cell_volume                     2271.07
loop_
_atom_site_label
_atom_site_type_symbol
_atom_site_fract_x
_atom_site_fract_y
_atom_site_fract_z
Zn1 Zn 0.46527(3) 0.64002(3) 0.18465(2)
I1 I 0.40352(2) 0.84658(2) 0.20361(2)
I2 I 0.64456(2) 0.58561(2) 0.12806(2)
N1 N 0.3117(2) 0.5561(2) 0.12312(13)
N2 N 0.0217(2) 0.25460(19) -0.00813(13)
N3 N -0.0226(2) -0.0548(2) -0.21103(13)
C1 C 0.2022(3) 0.5813(2) 0.13605(16)
H1 H 0.1941 0.6496 0.1637
C2 C 0.1022(3) 0.5140(2) 0.11157(16)
H2 H 0.0270 0.5354 0.1225
C3 C 0.1116(3) 0.4135(2) 0.07035(16)
C4 C 0.2232(3) 0.3897(3) 0.05328(17)
H3 H 0.2323 0.3244 0.0229
C5 C 0.3203(3) 0.4613(3) 0.08058(17)
H4 H 0.3960 0.4434 0.0691
C6 C 0.0089(2) 0.3316(2) 0.04612(16)
C7 C -0.0912(3) 0.3332(2) 0.07947(16)
H5 H -0.0977 0.3895 0.1173
C8 C -0.1812(2) 0.2515(2) 0.05671(16)
C9 C -0.1679(2) 0.1710(2) 0.00102(17)
H6 H -0.2280 0.1140 -0.0159
C10 C -0.0654(2) 0.1752(2) -0.02953(16)
C11 C 0.0410(3) 0.0435(3) -0.19678(18)
H7 H 0.0945 0.0624 -0.2292
C12 C 0.0322(3) 0.1178(3) -0.13756(17)
H8 H 0.0802 0.1853 -0.1289
C13 C -0.0476(2) 0.0928(2) -0.09057(16)
C14 C -0.1108(2) -0.0112(2) -0.10314(16)
H9 H -0.1633 -0.0330 -0.0707
C15 C -0.0958(3) -0.0814(2) -0.16320(17)
H10 H -0.1391 -0.1517 -0.1712
C16 C -0.2804(3) 0.2639(3) 0.17059(18)
H11 H -0.2051 0.2871 0.2026
C17 C -0.2882(3) 0.2459(2) 0.09168(17)
C18 C -0.4021(3) 0.2180(3) 0.04733(18)
H12 H -0.4124 0.2087 -0.0074
N4 N -0.3747(2) 0.2499(2) 0.20345(15)
N5 N -0.4978(2) 0.2037(2) 0.07871(16)
C19 C -0.4792(3) 0.2178(2) 0.15615(18)
C20 C -0.5838(3) 0.1952(3) 0.1927(2)
H13 H -0.5565 0.1484 0.2397
H14 H -0.6473 0.1542 0.1556
H15 H -0.6159 0.2681 0.2068
Zn1C Zn -0.03473(3) -0.14002(3) -0.31535(2)
N3C N 0.4774(2) 0.5548(2) 0.28897(13)
O1 O -0.6880(2) 0.0679(2) -0.01228(16)
H16 H -0.6353 0.1050 0.0195
C21 C -0.6572(4) 0.0652(3) -0.0858(2)
H17 H -0.6736 0.1403 -0.1110
H18 H -0.7057 0.0066 -0.1187
H19 H -0.5711 0.0469 -0.0786
loop_
_geom_bond_atom_site_label_1
_geom_bond_atom_site_label_2
_geom_bond_site_symmetry_1
_geom_bond_site_symmetry_2
Zn1 I1 1_555 1_555
I2 Zn1 1_555 1_555
N1 Zn1 1_555 1_555
N2 C6 1_555 1_555
N3 C11 1_555 1_555
C1 N1 1_555 1_555
H1 C1 1_555 1_555
C2 C1 1_555 1_555
H2 C2 1_555 1_555
C3 C2 1_555 1_555
C4 C3 1_555 1_555
H3 C4 1_555 1_555
C5 N1 1_555 1_555
H4 C5 1_555 1_555
C6 C3 1_555 1_555
C7 C6 1_555 1_555
H5 C7 1_555 1_555
C8 C7 1_555 1_555
C9 C8 1_555 1_555
H6 C9 1_555 1_555
C10 N2 1_555 1_555
C11 H7 1_555 1_555
C12 C11 1_555 1_555
H8 C12 1_555 1_555
C13 C10 1_555 1_555
C14 C13 1_555 1_555
H9 C14 1_555 1_555
C15 N3 1_555 1_555
H10 C15 1_555 1_555
C16 H11 1_555 1_555
C17 C8 1_555 1_555
C18 C17 1_555 1_555
H12 C18 1_555 1_555
N4 C16 1_555 1_555
N5 C18 1_555 1_555
C19 N4 1_555 1_555
C20 C19 1_555 1_555
H13 C20 1_555 1_555
H14 C20 1_555 1_555
H15 C20 1_555 1_555
O1 H16 1_555 1_555
C21 O1 1_555 1_555
H17 C21 1_555 1_555
H18 C21 1_555 1_555
H19 C21 1_555 1_555
Zn1C N3 1_555 1_555
N3C Zn1 1_555 1_555
C4 C5 1_555 1_555
C9 C10 1_555 1_555
C12 C13 1_555 1_555
C14 C15 1_555 1_555
C16 C17 1_555 1_555
N5 C19 1_555 1_555

#END
