
#######################################################################
#
#                 Cambridge Crystallographic Data Centre
#                                CCDC 
#
#######################################################################
#
# If this CIF has been generated from an entry in the Cambridge 
# Structural Database, then it will include bibliographic, chemical, 
# crystal, experimental, refinement or atomic coordinate data resulting 
# from the CCDC's data processing and validation procedures.
#
#######################################################################

data_VONHOW
_symmetry_cell_setting           orthorhombic
_symmetry_space_group_name_H-M   'P b c a'
_symmetry_Int_Tables_number      61
_space_group_name_Hall           '-P 2ac 2ab'
loop_
_symmetry_equiv_pos_site_id
_symmetry_equiv_pos_as_xyz
1 x,y,z
2 1/2-x,-y,1/2+z
3 -x,1/2+y,1/2-z
4 1/2+x,1/2-y,-z
5 -x,-y,-z
6 1/2+x,y,1/2-z
7 x,1/2-y,1/2+z
8 1/2-x,1/2+y,z
_cell_length_a                   25.354(5)
_cell_length_b                   14.478(3)
_cell_length_c                   34.667(7)
_cell_angle_alpha                90
_cell_angle_beta                 90
_cell_angle_gamma                90
_cell_volume                     12725.4
loop_
_atom_site_label
_atom_site_type_symbol
_atom_site_fract_x
_atom_site_fract_y
_atom_site_fract_z
Mn1 Mn 0.482551(11) 1.01465(2) 0.136966(7)
O1 O 0.43461(6) 0.73995(9) 0.12138(4)
O2 O 0.43615(6) 1.05190(9) 0.09471(4)
N1 N 0.52210(7) 0.95333(13) 0.17616(5)
H1 H 0.5424(11) 0.9881(19) 0.1876(8)
N2 N 0.45505(6) 0.89359(11) 0.12151(4)
N3 N 0.42222(6) 0.89629(11) 0.08846(4)
N4 N 0.41393(7) 1.04951(12) 0.17936(5)
C1 C 0.52076(8) 0.86469(14) 0.18900(5)
C2 C 0.49054(8) 0.79363(14) 0.17117(5)
C3 C 0.49084(9) 0.70336(15) 0.18650(6)
H2 H 0.4705 0.6567 0.1742
C4 C 0.51993(10) 0.68096(16) 0.21888(6)
H3 H 0.5194 0.6200 0.2290
C5 C 0.55030(10) 0.75055(16) 0.23644(6)
H4 H 0.5710 0.7361 0.2585
C6 C 0.55050(9) 0.83936(16) 0.22221(5)
H5 H 0.5711 0.8850 0.2349
C7 C 0.45879(8) 0.80953(13) 0.13661(5)
C8 C 0.41527(8) 0.98124(13) 0.07716(5)
C9 C 0.38147(9) 0.99913(15) 0.04260(6)
H6 H 0.3552 1.0464 0.0489
H7 H 0.3635 0.9420 0.0351
H8 H 0.4036 1.0207 0.0212
C10 C 0.40876(10) 1.00373(18) 0.21237(6)
H9 H 0.4326 0.9547 0.2177
C11 C 0.37046(12) 1.0241(2) 0.23933(7)
H10 H 0.3683 0.9892 0.2625
C12 C 0.33514(9) 1.09535(19) 0.23271(6)
C13 C 0.34121(9) 1.14450(17) 0.19876(6)
H11 H 0.3187 1.1951 0.1931
C14 C 0.38044(9) 1.11914(16) 0.17318(6)
H12 H 0.3838 1.1532 0.1499
C15 C 0.29133(12) 1.1181(3) 0.26065(7)
H13 H 0.2788 1.1817 0.2555
H14 H 0.2615 1.0755 0.2560
Mn2 Mn 0.404457(12) 0.749933(19) 0.069331(7)
O3 O 0.32131(5) 0.77264(9) -0.03423(4)
O4 O 0.47059(5) 0.75493(10) 0.04102(4)
O5 O 0.41505(7) 0.59059(11) 0.07033(4)
N5 N 0.33342(7) 0.73961(13) 0.08709(5)
H15 H 0.3286(11) 0.7293(19) 0.1129(8)
N6 N 0.37718(6) 0.76092(10) 0.01688(4)
N7 N 0.41697(6) 0.77265(11) -0.01138(4)
N8 N 0.40382(8) 0.45954(14) 0.10597(6)
C16 C 0.28691(8) 0.73844(13) 0.06798(5)
C17 C 0.28274(7) 0.74892(12) 0.02738(5)
C18 C 0.23299(8) 0.74490(12) 0.00975(6)
H16 H 0.2307 0.7514 -0.0175
C19 C 0.18724(8) 0.73176(14) 0.03068(6)
H17 H 0.1540 0.7290 0.0181
C20 C 0.19076(9) 0.72271(15) 0.07054(6)
H18 H 0.1596 0.7140 0.0853
C21 C 0.23892(9) 0.72628(15) 0.08886(6)
H19 H 0.2402 0.7205 0.1161
C22 C 0.32886(7) 0.76125(11) 0.00222(5)
C23 C 0.46337(7) 0.76830(13) 0.00430(5)
C24 C 0.51092(8) 0.77896(19) -0.02088(6)
H20 H 0.5022 0.7603 -0.0473
H21 H 0.5395 0.7399 -0.0110
H22 H 0.5223 0.8437 -0.0208
C25 C 0.39836(9) 0.54924(16) 0.09974(6)
H23 H 0.3806 0.5847 0.1188
C26 C 0.38150(13) 0.4154(2) 0.14002(9)
H24 H 0.3658 0.4625 0.1568
H25 H 0.4094 0.3828 0.1541
H26 H 0.3542 0.3713 0.1321
C27 C 0.43151(13) 0.40081(19) 0.07847(9)
H27 H 0.4458 0.4389 0.0576
H28 H 0.4069 0.3553 0.0678
H29 H 0.4604 0.3687 0.0916
Mn3 Mn 0.380486(11) 0.806934(18) -0.069214(7)
O6 O 0.49805(6) 0.85769(9) -0.15144(4)
O7 O 0.38281(5) 0.93674(9) -0.05430(4)
N9 N 0.38889(7) 0.68802(11) -0.09140(5)
H30 H 0.3687(11) 0.6513(18) -0.0831(8)
N10 N 0.43706(6) 0.85102(10) -0.10319(4)
N11 N 0.44877(6) 0.94607(11) -0.09905(4)
N12 N 0.18662(7) 1.15699(11) 0.38718(4)
C28 C 0.41851(8) 0.65796(12) -0.12133(5)
C29 C 0.45637(7) 0.71379(13) -0.14064(5)
C30 C 0.48693(9) 0.67581(14) -0.17075(6)
H31 H 0.5125 0.7135 -0.1832
C31 C 0.48085(10) 0.58577(16) -0.18265(7)
H32 H 0.5020 0.5614 -0.2028
C32 C 0.44286(10) 0.53075(15) -0.16444(7)
H33 H 0.4379 0.4687 -0.1726
C33 C 0.41250(9) 0.56544(14) -0.13471(6)
H34 H 0.3870 0.5267 -0.1229
C34 C 0.46453(7) 0.81139(12) -0.13128(5)
C35 C 0.41825(7) 0.98337(13) -0.07307(5)
C36 C 0.42458(9) 1.08391(14) -0.06416(6)
H35 H 0.3902 1.1146 -0.0658
H36 H 0.4489 1.1119 -0.0828
H37 H 0.4388 1.0911 -0.0381
C37 C 0.23815(8) 1.16011(16) 0.39549(6)
H38 H 0.2483 1.1733 0.4213
C38 C 0.27728(9) 1.14512(17) 0.36848(6)
H39 H 0.3133 1.1466 0.3760
C39 C 0.26426(9) 1.1281(2) 0.33079(6)
C40 C 0.21096(10) 1.1249(3) 0.32205(7)
H40 H 0.1998 1.1131 0.2963
C41 C 0.17378(10) 1.1389(2) 0.35093(6)
H41 H 0.1375 1.1354 0.3444
C42 C 0.30698(11) 1.1114(3) 0.30152(7)
H42 H 0.3357 1.1564 0.3062
H43 H 0.3217 1.0490 0.3060
Mn1D Mn 0.517449(11) 0.98535(2) -0.136966(7)
O1D O 0.56539(6) 1.26005(9) -0.12138(4)
O2D O 0.56385(6) 0.94810(9) -0.09471(4)
N1D N 0.47790(7) 1.04667(13) -0.17616(5)
H1D H 0.4576(11) 1.0119(19) -0.1876(8)
N2D N 0.54495(6) 1.10641(11) -0.12151(4)
N3D N 0.57778(6) 1.10371(11) -0.08846(4)
N4D N 0.58607(7) 0.95049(12) -0.17936(5)
C1D C 0.47924(8) 1.13531(14) -0.18900(5)
C2D C 0.50946(8) 1.20637(14) -0.17117(5)
C3D C 0.50916(9) 1.29664(15) -0.18650(6)
H2D H 0.5295 1.3433 -0.1742
C4D C 0.48007(10) 1.31904(16) -0.21888(6)
H3D H 0.4806 1.3800 -0.2290
C5D C 0.44970(10) 1.24945(16) -0.23644(6)
H4D H 0.4290 1.2639 -0.2585
C6D C 0.44950(9) 1.16064(16) -0.22221(5)
H5D H 0.4289 1.1150 -0.2349
C7D C 0.54121(8) 1.19047(13) -0.13661(5)
C8D C 0.58473(8) 1.01876(13) -0.07716(5)
C9D C 0.61853(9) 1.00087(15) -0.04260(6)
H6D H 0.6448 0.9536 -0.0489
H7D H 0.6365 1.0580 -0.0351
H8D H 0.5964 0.9793 -0.0212
C10D C 0.59124(10) 0.99627(18) -0.21237(6)
H9D H 0.5674 1.0453 -0.2177
C11D C 0.62954(12) 0.9759(2) -0.23933(7)
H10D H 0.6317 1.0108 -0.2625
C12D C 0.66486(9) 0.90465(19) -0.23271(6)
C13D C 0.65879(9) 0.85550(17) -0.19876(6)
H11D H 0.6813 0.8049 -0.1931
C14D C 0.61956(9) 0.88086(16) -0.17318(6)
H12D H 0.6162 0.8468 -0.1499
C15D C 0.70867(12) 0.8819(3) -0.26065(7)
H13D H 0.7212 0.8183 -0.2555
H14D H 0.7385 0.9245 -0.2560
Mn2D Mn 0.595543(12) 1.250067(19) -0.069331(7)
O3D O 0.67869(5) 1.22736(9) 0.03423(4)
O4D O 0.52941(5) 1.24507(10) -0.04102(4)
O5D O 0.58495(7) 1.40941(11) -0.07033(4)
N5D N 0.66658(7) 1.26039(13) -0.08709(5)
H15D H 0.6714(11) 1.2707(19) -0.1129(8)
N6D N 0.62282(6) 1.23908(10) -0.01688(4)
N7D N 0.58303(6) 1.22735(11) 0.01138(4)
N8D N 0.59618(8) 1.54046(14) -0.10597(6)
C16D C 0.71309(8) 1.26156(13) -0.06798(5)
C17D C 0.71726(7) 1.25108(12) -0.02738(5)
C18D C 0.76701(8) 1.25510(12) -0.00975(6)
H16D H 0.7693 1.2486 0.0175
C19D C 0.81276(8) 1.26824(14) -0.03068(6)
H17D H 0.8460 1.2710 -0.0181
C20D C 0.80924(9) 1.27729(15) -0.07054(6)
H18D H 0.8404 1.2860 -0.0853
C21D C 0.76108(9) 1.27372(15) -0.08886(6)
H19D H 0.7598 1.2795 -0.1161
C22D C 0.67114(7) 1.23875(11) -0.00222(5)
C23D C 0.53663(7) 1.23170(13) -0.00430(5)
C24D C 0.48908(8) 1.22104(19) 0.02088(6)
H20D H 0.4978 1.2397 0.0473
H21D H 0.4605 1.2601 0.0110
H22D H 0.4777 1.1563 0.0208
C25D C 0.60164(9) 1.45076(16) -0.09974(6)
H23D H 0.6194 1.4153 -0.1188
C26D C 0.61850(13) 1.5846(2) -0.14002(9)
H24D H 0.6342 1.5375 -0.1568
H25D H 0.5906 1.6172 -0.1541
H26D H 0.6458 1.6287 -0.1321
C27D C 0.56849(13) 1.59919(19) -0.07847(9)
H27D H 0.5542 1.5611 -0.0576
H28D H 0.5931 1.6447 -0.0678
H29D H 0.5396 1.6313 -0.0916
Mn3D Mn 0.619514(11) 1.193066(18) 0.069214(7)
Mn3A Mn 0.119514(11) 1.193066(18) 0.430786(7)
Mn3E Mn 0.880486(11) 0.806934(18) -0.430786(7)
O6D O 0.50195(6) 1.14231(9) 0.15144(4)
O7D O 0.61719(5) 1.06326(9) 0.05430(4)
N9D N 0.61111(7) 1.31198(11) 0.09140(5)
H30D H 0.6313(11) 1.3487(18) 0.0831(8)
N10D N 0.56294(6) 1.14898(10) 0.10319(4)
N11D N 0.55123(6) 1.05393(11) 0.09905(4)
N12D N 0.81338(7) 0.84301(11) -0.38718(4)
N12A N 0.31338(7) 0.84301(11) -0.11282(4)
N12E N 0.68662(7) 1.15699(11) 0.11282(4)
C28D C 0.58149(8) 1.34204(12) 0.12133(5)
C29D C 0.54363(7) 1.28621(13) 0.14064(5)
C30D C 0.51307(9) 1.32419(14) 0.17075(6)
H31D H 0.4875 1.2865 0.1832
C31D C 0.51915(10) 1.41423(16) 0.18265(7)
H32D H 0.4980 1.4386 0.2028
C32D C 0.55714(10) 1.46925(15) 0.16444(7)
H33D H 0.5621 1.5313 0.1726
C33D C 0.58750(9) 1.43456(14) 0.13471(6)
H34D H 0.6130 1.4733 0.1229
C34D C 0.53547(7) 1.18861(12) 0.13128(5)
C35D C 0.58175(7) 1.01663(13) 0.07307(5)
C36D C 0.57542(9) 0.91609(14) 0.06416(6)
H35D H 0.6098 0.8854 0.0658
H36D H 0.5511 0.8881 0.0828
H37D H 0.5612 0.9089 0.0381
C37D C 0.76185(8) 0.83989(16) -0.39549(6)
H38D H 0.7517 0.8267 -0.4213
C38D C 0.72272(9) 0.85488(17) -0.36848(6)
H39D H 0.6867 0.8534 -0.3760
C39D C 0.73574(9) 0.8719(2) -0.33079(6)
C40D C 0.78904(10) 0.8751(3) -0.32205(7)
H40D H 0.8002 0.8869 -0.2963
C41D C 0.82622(10) 0.8611(2) -0.35093(6)
H41D H 0.8625 0.8646 -0.3444
C42D C 0.69302(11) 0.8886(3) -0.30152(7)
H42D H 0.6643 0.8436 -0.3062
H43D H 0.6783 0.9510 -0.3060
O8 O 0.32236(10) 0.54158(15) 0.93842(8)
N13 N 0.27895(8) 0.51450(13) 0.99458(6)
C43 C 0.32040(11) 0.53939(18) 0.97375(11)
H44 H 0.3513 0.5571 0.9874
C44 C 0.22843(11) 0.49771(19) 0.97664(8)
H45 H 0.2319 0.5033 0.9486
H46 H 0.2028 0.5431 0.9860
H47 H 0.2163 0.4354 0.9832
C45 C 0.28050(13) 0.50910(19) 1.03627(9)
H48 H 0.3160 0.5250 1.0454
H49 H 0.2717 0.4462 1.0445
H50 H 0.2549 0.5525 1.0472
O9 O 0.65048(8) 0.72455(14) 0.06243(6)
N14 N 0.57862(8) 0.63020(15) 0.06261(6)
C46 C 0.62341(10) 0.66381(17) 0.04768(7)
H51 H 0.6351 0.6387 0.0238
C47 C 0.54908(11) 0.55726(19) 0.04331(8)
H52 H 0.5646 0.5454 0.0179
H53 H 0.5123 0.5766 0.0402
H54 H 0.5505 0.5008 0.0589
C48 C 0.55845(10) 0.66580(19) 0.09882(7)
H55 H 0.5579 0.7334 0.0979
H56 H 0.5813 0.6454 0.1200
H57 H 0.5226 0.6426 0.1030
O10 O 0.21497(11) 1.0847(2) 0.15915(8)
N15 N 0.26637(11) 0.95606(18) 0.15967(7)
C49 C 0.2374(2) 1.0098(4) 0.17601(15)
H58 H 0.2299 0.9988 0.2025
C50 C 0.2888(2) 0.9674(4) 0.12117(15)
H59 H 0.2782 1.0274 0.1106
H60 H 0.2759 0.9180 0.1043
H61 H 0.3273 0.9645 0.1227
C51 C 0.2920(2) 0.8708(4) 0.18038(15)
H62 H 0.2815 0.8703 0.2076
H63 H 0.3305 0.8751 0.1786
H64 H 0.2801 0.8137 0.1679
O11 O 0.2550(4) 0.1121(7) 0.7707(2)
N16 N 0.28168(11) 0.11661(19) 0.83577(9)
C52 C 0.2904(4) 0.1126(7) 0.7949(2)
H65 H 0.3258 0.1101 0.7860
C53 C 0.2323(3) 0.1152(4) 0.8504(2)
H66 H 0.2067 0.1238 0.8296
H67 H 0.2284 0.1650 0.8694
H68 H 0.2260 0.0556 0.8630
C54 C 0.3293(3) 0.1089(5) 0.85862(19)
H69 H 0.3339 0.1651 0.8740
H70 H 0.3597 0.1011 0.8415
H71 H 0.3266 0.0554 0.8758
O12 O 0.40686(13) 0.54812(16) 0.26494(9)
N17 N 0.38272(18) 0.6929(3) 0.25042(12)
C55 C 0.41116(17) 0.6329(3) 0.27180(12)
H72 H 0.4339 0.6545 0.2916
C56 C 0.35318(19) 0.6624(3) 0.21851(13)
H73 H 0.3581 0.5957 0.2152
H74 H 0.3651 0.6947 0.1952
H75 H 0.3157 0.6755 0.2229
C57 C 0.3845(2) 0.7901(3) 0.25875(15)
H76 H 0.3995 0.8231 0.2366
H77 H 0.4066 0.8007 0.2815
H78 H 0.3487 0.8127 0.2637
C58? C 0.3483(3) 0.7457(5) 0.2117(2)
C59? C 0.3765(3) 0.5980(4) 0.23777(19)
C60? C 0.4046(3) 0.7392(4) 0.26931(19)
C61? C 0.2456(3) 1.0430(5) 0.14539(17)
C62? C 0.3036(3) 0.9124(6) 0.1425(3)
C63? C 0.2357(4) 0.9244(6) 0.1952(3)
C64? C 0.2336(3) 0.1305(6) 0.8211(2)
C65? C 0.2788(3) 0.1064(5) 0.8810(2)
C66? C 0.3289(4) 0.1273(8) 0.8205(4)
H79? H 0.3625 0.8049 0.2061
H80? H 0.3408 0.5723 0.2374
H81? H 0.3949 0.5770 0.2611
H82? H 0.3959 0.5770 0.2149
H83? H 0.4278 0.7854 0.2575
H84? H 0.4259 0.6948 0.2839
H85? H 0.3798 0.7700 0.2867
H86? H 0.2599 1.0657 0.1219
H87? H 0.2910 0.8512 0.1347
H88? H 0.3336 0.9054 0.1601
H89? H 0.3148 0.9471 0.1197
H90? H 0.2148 0.8696 0.1887
H91? H 0.2121 0.9740 0.2037
H92? H 0.2604 0.9092 0.2159
H93? H 0.2035 0.1330 0.8374
H94? H 0.2956 0.0483 0.8888
H95? H 0.2418 0.1061 0.8893
H96? H 0.2972 0.1583 0.8932
H97? H 0.3420 0.0675 0.8114
H98? H 0.3530 0.1521 0.8400
H99? H 0.3267 0.1704 0.7988
N18? N 0.26637(11) 0.95606(18) 0.15967(7)
N19? N 0.28168(11) 0.11661(19) 0.83577(9)
N20? N 0.3740(3) 0.6885(7) 0.2377(2)
O13? O 0.21497(11) 1.0847(2) 0.15915(8)
O14? O 0.2290(4) 0.1402(6) 0.78538(19)
O15? O 0.3177(11) 0.727(3) 0.1999(14)
loop_
_geom_bond_atom_site_label_1
_geom_bond_atom_site_label_2
_geom_bond_site_symmetry_1
_geom_bond_site_symmetry_2
Mn1 O2 1_555 1_555
O1 C7 1_555 1_555
O2 C8 1_555 1_555
N1 Mn1 1_555 1_555
H1 N1 1_555 1_555
N2 Mn1 1_555 1_555
N3 N2 1_555 1_555
N4 Mn1 1_555 1_555
C1 N1 1_555 1_555
C2 C1 1_555 1_555
C3 C2 1_555 1_555
H2 C3 1_555 1_555
C4 C3 1_555 1_555
H3 C4 1_555 1_555
C5 C4 1_555 1_555
H4 C5 1_555 1_555
C6 C1 1_555 1_555
H5 C6 1_555 1_555
C7 N2 1_555 1_555
C8 N3 1_555 1_555
C9 C8 1_555 1_555
H6 C9 1_555 1_555
H7 C9 1_555 1_555
H8 C9 1_555 1_555
C10 N4 1_555 1_555
H9 C10 1_555 1_555
C11 C10 1_555 1_555
H10 C11 1_555 1_555
C12 C11 1_555 1_555
C13 C12 1_555 1_555
H11 C13 1_555 1_555
C14 N4 1_555 1_555
H12 C14 1_555 1_555
C15 C12 1_555 1_555
H13 C15 1_555 1_555
H14 C15 1_555 1_555
Mn2 O1 1_555 1_555
O3 C22 1_555 1_555
O4 Mn2 1_555 1_555
O5 Mn2 1_555 1_555
N5 Mn2 1_555 1_555
H15 N5 1_555 1_555
N6 Mn2 1_555 1_555
N7 N6 1_555 1_555
N8 C25 1_555 1_555
C16 N5 1_555 1_555
C17 C16 1_555 1_555
C18 C17 1_555 1_555
H16 C18 1_555 1_555
C19 C18 1_555 1_555
H17 C19 1_555 1_555
C20 C19 1_555 1_555
H18 C20 1_555 1_555
C21 C16 1_555 1_555
H19 C21 1_555 1_555
C22 N6 1_555 1_555
C23 O4 1_555 1_555
C24 C23 1_555 1_555
H20 C24 1_555 1_555
H21 C24 1_555 1_555
H22 C24 1_555 1_555
C25 O5 1_555 1_555
H23 C25 1_555 1_555
C26 N8 1_555 1_555
H24 C26 1_555 1_555
H25 C26 1_555 1_555
H26 C26 1_555 1_555
C27 N8 1_555 1_555
H27 C27 1_555 1_555
H28 C27 1_555 1_555
H29 C27 1_555 1_555
Mn3 O3 1_555 1_555
O6 C34 1_555 1_555
O7 Mn3 1_555 1_555
N9 Mn3 1_555 1_555
H30 N9 1_555 1_555
N10 Mn3 1_555 1_555
N11 N10 1_555 1_555
N12 C37 1_555 1_555
C28 N9 1_555 1_555
C29 C28 1_555 1_555
C30 C29 1_555 1_555
H31 C30 1_555 1_555
C31 C30 1_555 1_555
H32 C31 1_555 1_555
C32 C31 1_555 1_555
H33 C32 1_555 1_555
C33 C28 1_555 1_555
H34 C33 1_555 1_555
C34 N10 1_555 1_555
C35 O7 1_555 1_555
C36 C35 1_555 1_555
H35 C36 1_555 1_555
H36 C36 1_555 1_555
H37 C36 1_555 1_555
C37 H38 1_555 1_555
C38 C37 1_555 1_555
H39 C38 1_555 1_555
C39 C38 1_555 1_555
C40 C39 1_555 1_555
H40 C40 1_555 1_555
C41 N12 1_555 1_555
H41 C41 1_555 1_555
C42 C15 1_555 1_555
H42 C42 1_555 1_555
H43 C42 1_555 1_555
O8 C43 1_555 1_555
N13 C43 1_555 1_555
C43 H44 1_555 1_555
C44 N13 1_555 1_555
H45 C44 1_555 1_555
H46 C44 1_555 1_555
H47 C44 1_555 1_555
C45 N13 1_555 1_555
H48 C45 1_555 1_555
H49 C45 1_555 1_555
H50 C45 1_555 1_555
O9 C46 1_555 1_555
N14 C46 1_555 1_555
C46 H51 1_555 1_555
C47 N14 1_555 1_555
H52 C47 1_555 1_555
H53 C47 1_555 1_555
H54 C47 1_555 1_555
C48 N14 1_555 1_555
H55 C48 1_555 1_555
H56 C48 1_555 1_555
H57 C48 1_555 1_555
O10 C49 1_555 1_555
N15 C49 1_555 1_555
C49 H58 1_555 1_555
C50 N15 1_555 1_555
H59 C50 1_555 1_555
H60 C50 1_555 1_555
H61 C50 1_555 1_555
C51 N15 1_555 1_555
H62 C51 1_555 1_555
H63 C51 1_555 1_555
H64 C51 1_555 1_555
O11 C52 1_555 1_555
N16 C52 1_555 1_555
C52 H65 1_555 1_555
C53 N16 1_555 1_555
H66 C53 1_555 1_555
H67 C53 1_555 1_555
H68 C53 1_555 1_555
C54 N16 1_555 1_555
H69 C54 1_555 1_555
H70 C54 1_555 1_555
H71 C54 1_555 1_555
O12 C55 1_555 1_555
N17 C55 1_555 1_555
C55 H72 1_555 1_555
C56 N17 1_555 1_555
H73 C56 1_555 1_555
H74 C56 1_555 1_555
H75 C56 1_555 1_555
C57 N17 1_555 1_555
H76 C57 1_555 1_555
H77 C57 1_555 1_555
H78 C57 1_555 1_555
Mn1D O6 1_555 1_555
O1D C7D 1_555 1_555
O2D Mn1D 1_555 1_555
N1D Mn1D 1_555 1_555
H1D N1D 1_555 1_555
N2D Mn1D 1_555 1_555
N3D N2D 1_555 1_555
N4D Mn1D 1_555 1_555
C1D N1D 1_555 1_555
C2D C1D 1_555 1_555
C3D C2D 1_555 1_555
H2D C3D 1_555 1_555
C4D C3D 1_555 1_555
H3D C4D 1_555 1_555
C5D C4D 1_555 1_555
H4D C5D 1_555 1_555
C6D C1D 1_555 1_555
H5D C6D 1_555 1_555
C7D N2D 1_555 1_555
C8D O2D 1_555 1_555
C9D C8D 1_555 1_555
H6D C9D 1_555 1_555
H7D C9D 1_555 1_555
H8D C9D 1_555 1_555
C10D N4D 1_555 1_555
H9D C10D 1_555 1_555
C11D C10D 1_555 1_555
H10D C11D 1_555 1_555
C12D C11D 1_555 1_555
C13D C12D 1_555 1_555
H11D C13D 1_555 1_555
C14D N4D 1_555 1_555
H12D C14D 1_555 1_555
C15D C12D 1_555 1_555
H13D C15D 1_555 1_555
H14D C15D 1_555 1_555
Mn2D O1D 1_555 1_555
O3D C22D 1_555 1_555
O4D Mn2D 1_555 1_555
O5D Mn2D 1_555 1_555
N5D Mn2D 1_555 1_555
H15D N5D 1_555 1_555
N6D Mn2D 1_555 1_555
N7D N6D 1_555 1_555
N8D C25D 1_555 1_555
C16D N5D 1_555 1_555
C17D C16D 1_555 1_555
C18D C17D 1_555 1_555
H16D C18D 1_555 1_555
C19D C18D 1_555 1_555
H17D C19D 1_555 1_555
C20D C19D 1_555 1_555
H18D C20D 1_555 1_555
C21D C16D 1_555 1_555
H19D C21D 1_555 1_555
C22D N6D 1_555 1_555
C23D O4D 1_555 1_555
C24D C23D 1_555 1_555
H20D C24D 1_555 1_555
H21D C24D 1_555 1_555
H22D C24D 1_555 1_555
C25D O5D 1_555 1_555
H23D C25D 1_555 1_555
C26D N8D 1_555 1_555
H24D C26D 1_555 1_555
H25D C26D 1_555 1_555
H26D C26D 1_555 1_555
C27D N8D 1_555 1_555
H27D C27D 1_555 1_555
H28D C27D 1_555 1_555
H29D C27D 1_555 1_555
Mn3D O3D 1_555 1_555
Mn3A N12 1_555 1_555
Mn3E N12D 1_555 1_555
O6D Mn1 1_555 1_555
O7D Mn3D 1_555 1_555
N9D Mn3D 1_555 1_555
H30D N9D 1_555 1_555
N10D Mn3D 1_555 1_555
N11D Mn1 1_555 1_555
N12D C37D 1_555 1_555
N12A Mn3 1_555 1_555
N12E Mn3D 1_555 1_555
C28D N9D 1_555 1_555
C29D C28D 1_555 1_555
C30D C29D 1_555 1_555
H31D C30D 1_555 1_555
C31D C30D 1_555 1_555
H32D C31D 1_555 1_555
C32D C31D 1_555 1_555
H33D C32D 1_555 1_555
C33D C28D 1_555 1_555
H34D C33D 1_555 1_555
C34D O6D 1_555 1_555
C35D O7D 1_555 1_555
C36D C35D 1_555 1_555
H35D C36D 1_555 1_555
H36D C36D 1_555 1_555
H37D C36D 1_555 1_555
C37D H38D 1_555 1_555
C38D C37D 1_555 1_555
H39D C38D 1_555 1_555
C39D C38D 1_555 1_555
C40D C39D 1_555 1_555
H40D C40D 1_555 1_555
C41D N12D 1_555 1_555
H41D C41D 1_555 1_555
C42D C15D 1_555 1_555
H42D C42D 1_555 1_555
H43D C42D 1_555 1_555
N3 Mn2 1_555 1_555
C2 C7 1_555 1_555
C5 C6 1_555 1_555
C13 C14 1_555 1_555
N7 C23 1_555 1_555
N7 Mn3 1_555 1_555
C17 C22 1_555 1_555
C20 C21 1_555 1_555
N11 C35 1_555 1_555
N11 Mn1D 1_555 1_555
C29 C34 1_555 1_555
C32 C33 1_555 1_555
C39 C42 1_555 1_555
C40 C41 1_555 1_555
N3D C8D 1_555 1_555
N3D Mn2D 1_555 1_555
C2D C7D 1_555 1_555
C5D C6D 1_555 1_555
C13D C14D 1_555 1_555
N7D C23D 1_555 1_555
N7D Mn3D 1_555 1_555
C17D C22D 1_555 1_555
C20D C21D 1_555 1_555
N10D N11D 1_555 1_555
N10D C34D 1_555 1_555
N11D C35D 1_555 1_555
C29D C34D 1_555 1_555
C32D C33D 1_555 1_555
C39D C42D 1_555 1_555
C40D C41D 1_555 1_555

#END
