
#######################################################################
#
#                 Cambridge Crystallographic Data Centre
#                                CCDC 
#
#######################################################################
#
# If this CIF has been generated from an entry in the Cambridge 
# Structural Database, then it will include bibliographic, chemical, 
# crystal, experimental, refinement or atomic coordinate data resulting 
# from the CCDC's data processing and validation procedures.
#
#######################################################################

data_VONPUL
_symmetry_cell_setting           triclinic
_symmetry_space_group_name_H-M   'P -1'
_symmetry_Int_Tables_number      2
_space_group_name_Hall           '-P 1'
loop_
_symmetry_equiv_pos_site_id
_symmetry_equiv_pos_as_xyz
1 x,y,z
2 -x,-y,-z
_cell_length_a                   4.3589(3)
_cell_length_b                   8.6387(6)
_cell_length_c                   12.4732(9)
_cell_angle_alpha                82.023(6)
_cell_angle_beta                 83.790(6)
_cell_angle_gamma                85.384(6)
_cell_volume                     461.384
loop_
_atom_site_label
_atom_site_type_symbol
_atom_site_fract_x
_atom_site_fract_y
_atom_site_fract_z
Cu1 Cu 0.69702(19) 0.43402(9) 0.11104(6)
I1 I 1.17098(8) 0.61355(4) 0.10406(3)
N1 N 0.6636(12) 0.2546(6) 0.2315(4)
N2 N 0.5385(12) 0.1154(6) 0.2243(4)
C1 C 0.9235(18) 0.3614(9) 0.3691(5)
H1 H 0.7910 0.4584 0.3592
H2 H 1.1261 0.3774 0.3283
H3 H 0.9493 0.3323 0.4465
C2 C 0.7778(15) 0.2338(8) 0.3283(5)
C3 C 0.7304(15) 0.0838(8) 0.3815(5)
H4 H 0.7906 0.0410 0.4510
C4 C 0.5788(15) 0.0091(7) 0.3135(5)
C5 C 0.4738(19) -0.1523(8) 0.3258(5)
H5 H 0.2511 -0.1474 0.3191
H6 H 0.5161 -0.2071 0.3974
H7 H 0.5848 -0.2088 0.2689
C6 C 0.3801(14) 0.0950(7) 0.1302(5)
H8 H 0.3120 0.1993 0.0936
H9 H 0.1932 0.0370 0.1556
C7 C 0.5814(14) 0.0079(7) 0.0494(5)
H10 H 0.6436 -0.0979 0.0852
H11 H 0.7715 0.0639 0.0258
N1A N 0.3364(12) -0.2546(6) -0.2315(4)
N2A N 0.4615(12) -0.1154(6) -0.2243(4)
C1A C 0.0765(18) -0.3614(9) -0.3691(5)
H1A H 0.2090 -0.4584 -0.3592
H2A H -0.1261 -0.3774 -0.3283
H3A H 0.0507 -0.3323 -0.4465
C2A C 0.2222(15) -0.2338(8) -0.3283(5)
C3A C 0.2696(15) -0.0838(8) -0.3815(5)
H4A H 0.2094 -0.0410 -0.4510
C4A C 0.4212(15) -0.0091(7) -0.3135(5)
C5A C 0.5262(19) 0.1523(8) -0.3258(5)
H5A H 0.7489 0.1474 -0.3191
H6A H 0.4839 0.2071 -0.3974
H7A H 0.4152 0.2088 -0.2689
C6A C 0.6199(14) -0.0950(7) -0.1302(5)
H8A H 0.6880 -0.1993 -0.0936
H9A H 0.8068 -0.0370 -0.1556
C7A C 0.4186(14) -0.0079(7) -0.0494(5)
H10A H 0.3564 0.0979 -0.0852
H11A H 0.2285 -0.0639 -0.0258
Cu1A Cu 0.30298(19) -0.43402(9) -0.11104(6)
I1A I -0.17098(8) -0.61355(4) -0.10406(3)
Cu1_2 Cu -0.30298(19) -0.56598(9) 0.11104(6)
Cu1_3 Cu 1.69702(19) 0.43402(9) 0.11104(6)
Cu1A_2 Cu -0.69702(19) -0.43402(9) -0.11104(6)
Cu1A_3 Cu 1.30298(19) 0.56598(9) -0.11104(6)
I1_2 I 0.17098(8) -0.38645(4) 0.10406(3)
I1_3 I 0.17098(8) 0.61355(4) 0.10406(3)
I1A_2 I 0.82902(8) -0.61355(4) -0.10406(3)
I1A_3 I 0.82902(8) 0.38645(4) -0.10406(3)
loop_
_geom_bond_atom_site_label_1
_geom_bond_atom_site_label_2
_geom_bond_site_symmetry_1
_geom_bond_site_symmetry_2
Cu1 I1 1_555 1_555
I1 Cu1_3 1_555 1_555
N1 Cu1 1_555 1_555
N2 N1 1_555 1_555
C1 H1 1_555 1_555
H2 C1 1_555 1_555
H3 C1 1_555 1_555
C2 N1 1_555 1_555
C3 C2 1_555 1_555
H4 C3 1_555 1_555
C4 N2 1_555 1_555
C5 C4 1_555 1_555
H5 C5 1_555 1_555
H6 C5 1_555 1_555
H7 C5 1_555 1_555
C6 N2 1_555 1_555
H8 C6 1_555 1_555
H9 C6 1_555 1_555
C7 C6 1_555 1_555
H10 C7 1_555 1_555
H11 C7 1_555 1_555
N1A N2A 1_555 1_555
N2A C4A 1_555 1_555
C1A H1A 1_555 1_555
H2A C1A 1_555 1_555
H3A C1A 1_555 1_555
C2A N1A 1_555 1_555
C3A C2A 1_555 1_555
H4A C3A 1_555 1_555
C4A C3A 1_555 1_555
C5A C4A 1_555 1_555
H5A C5A 1_555 1_555
H6A C5A 1_555 1_555
H7A C5A 1_555 1_555
C6A N2A 1_555 1_555
H8A C6A 1_555 1_555
H9A C6A 1_555 1_555
C7A C7 1_555 1_555
H10A C7A 1_555 1_555
H11A C7A 1_555 1_555
Cu1A N1A 1_555 1_555
I1A Cu1A 1_555 1_555
Cu1_2 I1A 1_555 1_555
Cu1A_2 I1A 1_555 1_555
Cu1A_3 I1 1_555 1_555
I1_2 Cu1A 1_555 1_555
I1_3 Cu1 1_555 1_555
I1A_2 Cu1A 1_555 1_555
I1A_3 Cu1 1_555 1_555
C1 C2 1_555 1_555
C3 C4 1_555 1_555
C1A C2A 1_555 1_555
C6A C7A 1_555 1_555
Cu1_2 I1_2 1_555 1_555
Cu1A_3 I1A_3 1_555 1_555

#END
