
#######################################################################
#
#                 Cambridge Crystallographic Data Centre
#                                CCDC 
#
#######################################################################
#
# If this CIF has been generated from an entry in the Cambridge 
# Structural Database, then it will include bibliographic, chemical, 
# crystal, experimental, refinement or atomic coordinate data resulting 
# from the CCDC's data processing and validation procedures.
#
#######################################################################

data_VONQIZ
_symmetry_cell_setting           triclinic
_symmetry_space_group_name_H-M   'P -1'
_symmetry_Int_Tables_number      2
_space_group_name_Hall           '-P 1'
loop_
_symmetry_equiv_pos_site_id
_symmetry_equiv_pos_as_xyz
1 x,y,z
2 -x,-y,-z
_cell_length_a                   8.3955(3)
_cell_length_b                   9.4837(3)
_cell_length_c                   20.8959(7)
_cell_angle_alpha                101.901(2)
_cell_angle_beta                 91.298(2)
_cell_angle_gamma                99.455(2)
_cell_volume                     1603.11
loop_
_atom_site_label
_atom_site_type_symbol
_atom_site_fract_x
_atom_site_fract_y
_atom_site_fract_z
Sm1 Sm 0.484369(15) 0.685963(11) 0.469177(6)
O1 O 0.4815(2) 0.78805(18) 0.34759(9)
O2 O 0.2141(3) 0.7159(3) 0.43292(12)
H1 H 0.162(4) 0.659(3) 0.4002(14)
H2 H 0.158(4) 0.779(3) 0.4418(18)
O4 O 0.6180(2) 0.92017(18) 0.46186(9)
O5 O 0.6159(2) 1.14299(18) 0.44327(9)
O7 O 0.8694(3) 0.8769(2) 0.66454(11)
O8 O 0.6767(2) 0.72929(19) 0.56231(10)
O9 O 0.6379(2) 0.52944(18) 0.60583(9)
O10 O 0.9606(2) 0.4785(2) 0.35475(11)
O11 O 0.6482(2) 0.46636(18) 0.46689(9)
O12 O 0.7216(2) 0.6242(2) 0.40558(10)
C1 C 0.3404(3) 0.7759(3) 0.24289(14)
H7 H 0.3187 0.8703 0.2562
C2 C 0.2889(3) 0.6940(3) 0.17912(14)
C3 C 0.2075(4) 0.7524(3) 0.13320(16)
H8 H 0.1851 0.8468 0.1453
C4 C 0.1616(4) 0.6733(4) 0.07193(16)
H9 H 0.1084 0.7139 0.0426
C5 C 0.1939(4) 0.5305(4) 0.05235(16)
H10 H 0.1626 0.4771 0.0102
C6 C 0.2710(4) 0.4705(4) 0.09522(15)
H11 H 0.2916 0.3757 0.0821
C7 C 0.3204(3) 0.5501(3) 0.15949(14)
C8 C 0.4020(3) 0.4914(3) 0.20496(14)
H12 H 0.4208 0.3958 0.1931
C9 C 0.4541(3) 0.5723(3) 0.26597(14)
H13 H 0.5101 0.5327 0.2948
C10 C 0.4224(3) 0.7159(3) 0.28499(13)
C11 C 0.4954(4) 0.9443(3) 0.36193(14)
H14 H 0.5536 0.9842 0.3283
H15 H 0.3885 0.9707 0.3625
C12 C 0.5840(3) 1.0064(3) 0.42739(13)
C13 C 0.9697(4) 0.9254(3) 0.77802(16)
H16 H 0.9032 0.8430 0.7860
C14 C 1.0762(4) 1.0201(3) 0.82968(16)
C15 C 1.0795(5) 0.9934(4) 0.89337(19)
H17 H 1.0130 0.9126 0.9029
C16 C 1.1833(6) 1.0891(5) 0.9419(2)
H18 H 1.1854 1.0722 0.9842
C17 C 1.2836(5) 1.2093(5) 0.9282(2)
H19 H 1.3526 1.2718 0.9613
C18 C 1.2825(4) 1.2365(4) 0.8676(2)
H20 H 1.3503 1.3179 0.8594
C19 C 1.1787(4) 1.1425(4) 0.81576(19)
C20 C 1.1718(4) 1.1684(4) 0.7522(2)
H21 H 1.2392 1.2490 0.7429
C21 C 1.0698(4) 1.0796(3) 0.70370(19)
H22 H 1.0676 1.0990 0.6619
C22 C 0.9668(3) 0.9569(3) 0.71752(16)
C23 C 0.7711(3) 0.7456(3) 0.67239(14)
H23 H 0.8373 0.6856 0.6896
H24 H 0.6901 0.7684 0.7034
C24 C 0.6895(3) 0.6628(3) 0.60752(13)
C25 C 0.7571(4) 0.3134(3) 0.27784(15)
H25 H 0.7124 0.2674 0.3101
C26 C 0.6931(4) 0.2660(3) 0.21225(16)
C27 C 0.5658(4) 0.1453(4) 0.19266(18)
H26 H 0.5232 0.0938 0.2235
C28 C 0.5052(5) 0.1040(4) 0.1298(2)
H27 H 0.4219 0.0241 0.1180
C29 C 0.5660(5) 0.1795(5) 0.0822(2)
H28 H 0.5223 0.1510 0.0393
C30 C 0.6887(5) 0.2943(4) 0.09917(19)
H29 H 0.7286 0.3445 0.0675
C31 C 0.7580(4) 0.3399(3) 0.16422(17)
C32 C 0.8898(4) 0.4561(4) 0.18305(17)
H30 H 0.9347 0.5052 0.1518
C33 C 0.9516(4) 0.4971(4) 0.24533(18)
H31 H 1.0396 0.5729 0.2565
C34 C 0.8835(3) 0.4258(3) 0.29371(15)
C35 C 0.8808(4) 0.4365(3) 0.40855(15)
H32 H 0.9579 0.4569 0.4460
H33 H 0.8416 0.3318 0.3977
C36 C 0.7409(3) 0.5145(3) 0.42698(13)
Sm1A Sm 0.515631(15) 1.314037(11) 0.530823(6)
Sm1A_2 Sm 0.515631(15) 0.314037(11) 0.530823(6)
O5A O 0.3841(2) 0.85701(18) 0.55673(9)
O9A O 0.3621(2) 0.47056(18) 0.39417(9)
O11A O 0.3518(2) 0.53364(18) 0.53311(9)
O3 O -0.0115(8) 0.8519(7) 0.5098(4)
H3 H -0.086(11) 0.861(12) 0.536(5)
H4 H 0.033(12) 0.940(5) 0.513(6)
O6 O 0.1100(7) 0.9732(6) 0.4482(3)
H6 H 0.027(7) 0.904(6) 0.441(5)
H5? H 0.061(9) 1.045(6) 0.457(5)
loop_
_geom_bond_atom_site_label_1
_geom_bond_atom_site_label_2
_geom_bond_site_symmetry_1
_geom_bond_site_symmetry_2
Sm1 O2 1_555 1_555
O1 C10 1_555 1_555
O2 H1 1_555 1_555
H2 O2 1_555 1_555
O3 H3 1_555 1_555
H4 O3 1_555 1_555
O4 Sm1 1_555 1_555
O5 C12 1_555 1_555
O6 H6 1_555 1_555
O7 C22 1_555 1_555
O8 Sm1 1_555 1_555
O9 C24 1_555 1_555
O10 C34 1_555 1_555
O11 Sm1 1_555 1_555
O12 Sm1 1_555 1_555
C1 H7 1_555 1_555
C2 C1 1_555 1_555
C3 C2 1_555 1_555
H8 C3 1_555 1_555
C4 C3 1_555 1_555
H9 C4 1_555 1_555
C5 C4 1_555 1_555
H10 C5 1_555 1_555
C6 C5 1_555 1_555
H11 C6 1_555 1_555
C7 C2 1_555 1_555
C8 C7 1_555 1_555
H12 C8 1_555 1_555
C9 C8 1_555 1_555
H13 C9 1_555 1_555
C10 C1 1_555 1_555
C11 O1 1_555 1_555
H14 C11 1_555 1_555
H15 C11 1_555 1_555
C12 O4 1_555 1_555
C13 H16 1_555 1_555
C14 C13 1_555 1_555
C15 C14 1_555 1_555
H17 C15 1_555 1_555
C16 C15 1_555 1_555
H18 C16 1_555 1_555
C17 C16 1_555 1_555
H19 C17 1_555 1_555
C18 C17 1_555 1_555
H20 C18 1_555 1_555
C19 C14 1_555 1_555
C20 C19 1_555 1_555
H21 C20 1_555 1_555
C21 C20 1_555 1_555
H22 C21 1_555 1_555
C22 C13 1_555 1_555
C23 O7 1_555 1_555
H23 C23 1_555 1_555
H24 C23 1_555 1_555
C24 O8 1_555 1_555
C25 H25 1_555 1_555
C26 C25 1_555 1_555
C27 C26 1_555 1_555
H26 C27 1_555 1_555
C28 C27 1_555 1_555
H27 C28 1_555 1_555
C29 C28 1_555 1_555
H28 C29 1_555 1_555
C30 C29 1_555 1_555
H29 C30 1_555 1_555
C31 C26 1_555 1_555
C32 C31 1_555 1_555
H30 C32 1_555 1_555
C33 C32 1_555 1_555
H31 C33 1_555 1_555
C34 C25 1_555 1_555
C35 O10 1_555 1_555
H32 C35 1_555 1_555
H33 C35 1_555 1_555
C36 O11 1_555 1_555
Sm1A O5 1_555 1_555
Sm1A_2 O9 1_555 1_555
O5A Sm1 1_555 1_555
O9A Sm1 1_555 1_555
O11A Sm1 1_555 1_555
O11 Sm1A_2 1_555 1_555
O12 C36 1_555 1_555
C6 C7 1_555 1_555
C9 C10 1_555 1_555
C11 C12 1_555 1_555
C18 C19 1_555 1_555
C21 C22 1_555 1_555
C23 C24 1_555 1_555
C30 C31 1_555 1_555
C33 C34 1_555 1_555
C35 C36 1_555 1_555
Sm1A_2 O11A 1_555 1_555

#END
