
#######################################################################
#
#                 Cambridge Crystallographic Data Centre
#                                CCDC 
#
#######################################################################
#
# If this CIF has been generated from an entry in the Cambridge 
# Structural Database, then it will include bibliographic, chemical, 
# crystal, experimental, refinement or atomic coordinate data resulting 
# from the CCDC's data processing and validation procedures.
#
#######################################################################

data_VONQEV
_symmetry_cell_setting           triclinic
_symmetry_space_group_name_H-M   'P -1'
_symmetry_Int_Tables_number      2
_space_group_name_Hall           '-P 1'
loop_
_symmetry_equiv_pos_site_id
_symmetry_equiv_pos_as_xyz
1 x,y,z
2 -x,-y,-z
_cell_length_a                   8.3893(2)
_cell_length_b                   9.4600(2)
_cell_length_c                   20.9105(5)
_cell_angle_alpha                101.8340(10)
_cell_angle_beta                 91.3790(10)
_cell_angle_gamma                99.4690(10)
_cell_volume                     1599.24
loop_
_atom_site_label
_atom_site_type_symbol
_atom_site_fract_x
_atom_site_fract_y
_atom_site_fract_z
Eu1 Eu 0.484330 0.6862 0.4696
O1 O 0.481240(2) 0.787530(1) 0.347220(1)
O2 O 0.215960(2) 0.717790(2) 0.433350(1)
H1 H 0.16373(3) 0.66776(2) 0.399840(9)
H2 H 0.16063(3) 0.777100(19) 0.448220(11)
O4 O 0.616940(2) 0.919570(1) 0.461790(1)
O5 O 0.614960(2) 1.143190(1) 0.443380(1)
O7 O 0.869650(2) 0.875250(2) 0.664040(1)
O8 O 0.676450(2) 0.728600(2) 0.562170(1)
O9 O 0.637460(2) 0.528110(1) 0.605360(1)
O10 O 0.960450(2) 0.480480(2) 0.355260(1)
O11 O 0.647480(2) 0.465800(1) 0.467130(1)
O12 O 0.720330(2) 0.624910(2) 0.406400(1)
C1 C 0.340210(3) 0.775540(2) 0.242680(1)
H7 H 0.3188 0.8702 0.2560
C2 C 0.288180(3) 0.693960(2) 0.178790(1)
C3 C 0.207030(3) 0.753080(3) 0.133160(1)
H8 H 0.1843 0.8475 0.1454
C4 C 0.161590(3) 0.673770(3) 0.071460(1)
H9 H 0.1093 0.7148 0.0420
C5 C 0.193330(3) 0.530240(3) 0.052170(1)
H10 H 0.1616 0.4764 0.0101
C6 C 0.270400(3) 0.470100(3) 0.095040(1)
H11 H 0.2912 0.3752 0.0818
C7 C 0.319380(3) 0.549140(2) 0.159300(1)
C8 C 0.401490(3) 0.490910(2) 0.204960(1)
H12 H 0.4204 0.3951 0.1932
C9 C 0.453340(3) 0.571270(2) 0.265440(1)
H13 H 0.5097 0.5314 0.2942
C10 C 0.421690(3) 0.715730(2) 0.284750(1)
C11 C 0.494530(3) 0.943690(2) 0.361900(1)
H14 H 0.5527 0.9843 0.3284
H15 H 0.3874 0.9697 0.3623
C12 C 0.582700(3) 1.006390(2) 0.427370(1)
C13 C 0.969330(3) 0.924650(2) 0.777690(1)
H16 H 0.9016 0.8427 0.7857
C14 C 1.075540(3) 1.018310(3) 0.828980(1)
C15 C 1.078470(4) 0.993180(3) 0.893130(1)
H17 H 1.0112 0.9128 0.9028
C16 C 1.181010(4) 1.087810(4) 0.941360(2)
H18 H 1.1822 1.0705 0.9836
C17 C 1.282700(4) 1.208470(4) 0.928290(2)
H19 H 1.3510 1.2711 0.9616
C18 C 1.282620(3) 1.235070(3) 0.867250(2)
H20 H 1.3520 1.3158 0.8589
C19 C 1.178390(3) 1.141970(3) 0.815420(1)
C20 C 1.172990(3) 1.167890(3) 0.751820(2)
H21 H 1.2412 1.2483 0.7426
C21 C 1.070960(3) 1.078830(3) 0.703460(2)
H22 H 1.0688 1.0984 0.6617
C22 C 0.967390(3) 0.955340(2) 0.717240(1)
C23 C 0.771680(3) 0.743900(2) 0.672010(1)
H23 H 0.8379 0.6836 0.6891
H24 H 0.6906 0.7666 0.7030
C24 C 0.689840(2) 0.661470(2) 0.606840(1)
C25 C 0.757030(3) 0.314140(2) 0.278210(1)
H25 H 0.7125 0.2680 0.3105
C26 C 0.693070(3) 0.266410(2) 0.212720(1)
C27 C 0.565750(3) 0.145410(3) 0.193120(1)
H26 H 0.5229 0.0938 0.2239
C28 C 0.505010(4) 0.103480(3) 0.129730(2)
H27 H 0.4220 0.0232 0.1177
C29 C 0.566220(4) 0.179910(3) 0.082600(2)
H28 H 0.5224 0.1517 0.0397
C30 C 0.689520(4) 0.295210(3) 0.099440(1)
H29 H 0.7297 0.3454 0.0678
C31 C 0.758070(3) 0.340520(3) 0.164370(1)
C32 C 0.889850(3) 0.457230(3) 0.183010(1)
H30 H 0.9348 0.5061 0.1517
C33 C 0.952140(3) 0.499340(3) 0.245900(1)
H31 H 1.0399 0.5756 0.2571
C34 C 0.884170(3) 0.427920(2) 0.294060(1)
C35 C 0.881020(3) 0.437390(3) 0.408630(1)
H32 H 0.9582 0.4574 0.4460
H33 H 0.8420 0.3325 0.3975
C36 C 0.740180(3) 0.515350(2) 0.427350(1)
Eu1A Eu 0.515670 1.3138 0.5304
Eu1A_2 Eu 0.515670 0.3138 0.5304
O5A O 0.385040(2) 0.856810(1) 0.556620(1)
O9A O 0.362540(2) 0.471890(1) 0.394640(1)
O11A O 0.352520(2) 0.534200(1) 0.532870(1)
O3 O -0.011220(5) 0.852140(5) 0.510490(3)
H3 H -0.08286(3) 0.84164(3) 0.537010(12)
H4 H 0.02155(4) 0.942360(19) 0.51908(2)
O6 O 0.107640(5) 0.972990(4) 0.448260(2)
H5 H 0.15904(5) 1.01759(3) 0.422180(8)
H6 H 0.16414(5) 1.01078(5) 0.483800(8)
loop_
_geom_bond_atom_site_label_1
_geom_bond_atom_site_label_2
_geom_bond_site_symmetry_1
_geom_bond_site_symmetry_2
Eu1 O2 1_555 1_555
O1 C10 1_555 1_555
O2 H1 1_555 1_555
H2 O2 1_555 1_555
O3 H3 1_555 1_555
H4 O3 1_555 1_555
O4 Eu1 1_555 1_555
O5 C12 1_555 1_555
O6 H5 1_555 1_555
H6 O6 1_555 1_555
O7 C22 1_555 1_555
O8 Eu1 1_555 1_555
O9 C24 1_555 1_555
O10 C34 1_555 1_555
O11 Eu1 1_555 1_555
O12 Eu1 1_555 1_555
C1 H7 1_555 1_555
C2 C1 1_555 1_555
C3 C2 1_555 1_555
H8 C3 1_555 1_555
C4 C3 1_555 1_555
H9 C4 1_555 1_555
C5 C4 1_555 1_555
H10 C5 1_555 1_555
C6 C5 1_555 1_555
H11 C6 1_555 1_555
C7 C2 1_555 1_555
C8 C7 1_555 1_555
H12 C8 1_555 1_555
C9 C8 1_555 1_555
H13 C9 1_555 1_555
C10 C1 1_555 1_555
C11 O1 1_555 1_555
H14 C11 1_555 1_555
H15 C11 1_555 1_555
C12 O4 1_555 1_555
C13 H16 1_555 1_555
C14 C13 1_555 1_555
C15 C14 1_555 1_555
H17 C15 1_555 1_555
C16 C15 1_555 1_555
H18 C16 1_555 1_555
C17 C16 1_555 1_555
H19 C17 1_555 1_555
C18 C17 1_555 1_555
H20 C18 1_555 1_555
C19 C14 1_555 1_555
C20 C19 1_555 1_555
H21 C20 1_555 1_555
C21 C20 1_555 1_555
H22 C21 1_555 1_555
C22 C13 1_555 1_555
C23 O7 1_555 1_555
H23 C23 1_555 1_555
H24 C23 1_555 1_555
C24 O8 1_555 1_555
C25 H25 1_555 1_555
C26 C25 1_555 1_555
C27 C26 1_555 1_555
H26 C27 1_555 1_555
C28 C27 1_555 1_555
H27 C28 1_555 1_555
C29 C28 1_555 1_555
H28 C29 1_555 1_555
C30 C29 1_555 1_555
H29 C30 1_555 1_555
C31 C26 1_555 1_555
C32 C31 1_555 1_555
H30 C32 1_555 1_555
C33 C32 1_555 1_555
H31 C33 1_555 1_555
C34 C25 1_555 1_555
C35 O10 1_555 1_555
H32 C35 1_555 1_555
H33 C35 1_555 1_555
C36 O11 1_555 1_555
Eu1A O5 1_555 1_555
Eu1A_2 O9 1_555 1_555
O5A Eu1 1_555 1_555
O9A Eu1 1_555 1_555
O11A Eu1 1_555 1_555
O11 Eu1A_2 1_555 1_555
O12 C36 1_555 1_555
C6 C7 1_555 1_555
C9 C10 1_555 1_555
C11 C12 1_555 1_555
C18 C19 1_555 1_555
C21 C22 1_555 1_555
C23 C24 1_555 1_555
C30 C31 1_555 1_555
C33 C34 1_555 1_555
C35 C36 1_555 1_555
Eu1A_2 O11A 1_555 1_555

#END
