
#######################################################################
#
#                 Cambridge Crystallographic Data Centre
#                                CCDC 
#
#######################################################################
#
# If this CIF has been generated from an entry in the Cambridge 
# Structural Database, then it will include bibliographic, chemical, 
# crystal, experimental, refinement or atomic coordinate data resulting 
# from the CCDC's data processing and validation procedures.
#
#######################################################################

data_VONQOE
_symmetry_cell_setting           orthorhombic
_symmetry_space_group_name_H-M   'P c a b'
_symmetry_Int_Tables_number      61
_space_group_name_Hall           '-P 2bc 2ac'
loop_
_symmetry_equiv_pos_site_id
_symmetry_equiv_pos_as_xyz
1 x,y,z
2 x,1/2+y,1/2-z
3 1/2-x,y,1/2+z
4 1/2+x,1/2-y,z
5 -x,-y,-z
6 -x,1/2-y,1/2+z
7 1/2+x,-y,1/2-z
8 1/2-x,1/2+y,-z
_cell_length_a                   8.2383(9)
_cell_length_b                   11.2779(15)
_cell_length_c                   17.257(2)
_cell_angle_alpha                90
_cell_angle_beta                 90
_cell_angle_gamma                90
_cell_volume                     1603.36
loop_
_atom_site_label
_atom_site_type_symbol
_atom_site_fract_x
_atom_site_fract_y
_atom_site_fract_z
Cu1 Cu 0.0000 0.0000 0.5000
O1 O 0.07787(15) -0.16248(10) 0.46838(7)
O2 O 0.38578(15) -0.14763(11) 0.42739(7)
N1 N 0.08120(19) 0.06866(12) 0.40004(7)
O3 O 0.25577(15) 0.04353(11) 0.55678(6)
C1 C 0.4474(2) -0.06558(14) 0.46730(9)
C2 C 0.2211(2) 0.22131(17) 0.33040(10)
H1 H 0.2783 0.2924 0.3320
C3 C 0.1045(3) 0.05912(16) 0.26187(10)
H2 H 0.0812 0.0186 0.2163
C4 C 0.3881(2) 0.01901(14) 0.52541(10)
C5 C 0.1645(2) 0.17102(15) 0.39733(9)
H3 H 0.1850 0.2101 0.4438
C6 C 0.1922(2) 0.16492(16) 0.25938(9)
N2 N 0.2462(2) 0.20995(15) 0.19148(9)
C7 C 0.0527(3) 0.01502(16) 0.33155(11)
H4 H -0.0053 -0.0557 0.3316
H5 H 0.0183 -0.2189 0.4505
H6 H 0.3024 0.2789 0.1884
H7 H 0.1816 -0.1656 0.4505
H8 H 0.2377 0.1706 0.1487
C1D C 0.5526(2) 0.06558(14) 0.53270(9)
O2D O 0.61422(15) 0.14763(11) 0.57261(7)
C4D C 0.6119(2) -0.01901(14) 0.47459(10)
O3D O 0.74423(15) -0.04353(11) 0.44322(6)
O1D O -0.07787(15) 0.16248(10) 0.53162(7)
H5D H -0.0183 0.2189 0.5495
H7D H -0.1816 0.1656 0.5495
N1D N -0.08120(19) -0.06866(12) 0.59996(7)
C2D C -0.2211(2) -0.22131(17) 0.66960(10)
H1D H -0.2783 -0.2924 0.6680
C3D C -0.1045(3) -0.05912(16) 0.73813(10)
H2D H -0.0812 -0.0186 0.7837
C5D C -0.1645(2) -0.17102(15) 0.60267(9)
H3D H -0.1850 -0.2101 0.5562
C6D C -0.1922(2) -0.16492(16) 0.74062(9)
N2D N -0.2462(2) -0.20995(15) 0.80852(9)
C7D C -0.0527(3) -0.01502(16) 0.66845(11)
H4D H 0.0053 0.0557 0.6684
H6D H -0.3024 -0.2789 0.8116
H8D H -0.2377 -0.1706 0.8513
O3D_2 O -0.25577(15) -0.04353(11) 0.44322(6)
Cu1_2 Cu 1.0000 0.0000 0.5000
loop_
_geom_bond_atom_site_label_1
_geom_bond_atom_site_label_2
_geom_bond_site_symmetry_1
_geom_bond_site_symmetry_2
Cu1 O1 1_555 1_555
O1 H5 1_555 1_555
O2 C1 1_555 1_555
N1 Cu1 1_555 1_555
O3 Cu1 1_555 1_555
C1 C4 1_555 1_555
C2 H1 1_555 1_555
C3 H2 1_555 1_555
C4 O3 1_555 1_555
C5 N1 1_555 1_555
H3 C5 1_555 1_555
C6 C2 1_555 1_555
N2 C6 1_555 1_555
C7 N1 1_555 1_555
H4 C7 1_555 1_555
H6 N2 1_555 1_555
H7 O1 1_555 1_555
H8 N2 1_555 1_555
C1D C4 1_555 1_555
O2D C1D 1_555 1_555
C4D C1 1_555 1_555
O3D C4D 1_555 1_555
O1D Cu1 1_555 1_555
H5D O1D 1_555 1_555
H7D O1D 1_555 1_555
N1D Cu1 1_555 1_555
C2D H1D 1_555 1_555
C3D H2D 1_555 1_555
C5D N1D 1_555 1_555
H3D C5D 1_555 1_555
C6D C2D 1_555 1_555
N2D C6D 1_555 1_555
C7D N1D 1_555 1_555
H4D C7D 1_555 1_555
H6D N2D 1_555 1_555
H8D N2D 1_555 1_555
O3D_2 Cu1 1_555 1_555
Cu1_2 O3D 1_555 1_555
C2 C5 1_555 1_555
C3 C6 1_555 1_555
C3 C7 1_555 1_555
C1D C4D 1_555 1_555
C2D C5D 1_555 1_555
C3D C6D 1_555 1_555
C3D C7D 1_555 1_555

#END
