
#######################################################################
#
#                 Cambridge Crystallographic Data Centre
#                                CCDC 
#
#######################################################################
#
# If this CIF has been generated from an entry in the Cambridge 
# Structural Database, then it will include bibliographic, chemical, 
# crystal, experimental, refinement or atomic coordinate data resulting 
# from the CCDC's data processing and validation procedures.
#
#######################################################################

data_VONQOG
_symmetry_cell_setting           cubic
_symmetry_space_group_name_H-M   'P a -3'
_symmetry_Int_Tables_number      205
_space_group_name_Hall           '-P 2ac 2ab 3'
loop_
_symmetry_equiv_pos_site_id
_symmetry_equiv_pos_as_xyz
1 x,y,z
2 1/2-x,-y,1/2+z
3 -x,1/2+y,1/2-z
4 1/2+x,1/2-y,-z
5 z,x,y
6 1/2+z,1/2-x,-y
7 1/2-z,-x,1/2+y
8 -z,1/2+x,1/2-y
9 y,z,x
10 -y,1/2+z,1/2-x
11 1/2+y,1/2-z,-x
12 1/2-y,-z,1/2+x
13 -x,-y,-z
14 1/2+x,y,1/2-z
15 x,1/2-y,1/2+z
16 1/2-x,1/2+y,z
17 -z,-x,-y
18 1/2-z,1/2+x,y
19 1/2+z,x,1/2-y
20 z,1/2-x,1/2+y
21 -y,-z,-x
22 y,1/2-z,1/2+x
23 1/2-y,1/2+z,x
24 1/2+y,z,1/2-x
_cell_length_a                   16.0312(6)
_cell_length_b                   16.0312(6)
_cell_length_c                   16.0312(6)
_cell_angle_alpha                90
_cell_angle_beta                 90
_cell_angle_gamma                90
_cell_volume                     4120.01
loop_
_atom_site_label
_atom_site_type_symbol
_atom_site_fract_x
_atom_site_fract_y
_atom_site_fract_z
Co1 Co 0.85863(5) 0.35863(5) 0.14137(5)
Co2 Co 0.92234(11) 0.57766(11) 0.42234(11)
O1 O 0.8960(2) 0.4546(2) 0.48191(19)
O2 O 1.0000 0.5000 0.5000
N1 N 0.9024(3) 0.4708(3) 0.1871(3)
C1 C 0.9227(5) 0.5501(5) 0.1642(5)
H1 H 0.9227 0.5712 0.1088
C2 C 0.9429(6) 0.5936(5) 0.2335(6)
H2 H 0.9590 0.6506 0.2347
N2 N 0.9366(5) 0.5427(4) 0.3019(4)
C3 C 0.9123(4) 0.4688(4) 0.2697(4)
C4 C 0.8993(4) 0.3901(4) 0.3096(4)
N3 N 0.8799(3) 0.3260(3) 0.2623(3)
C5 C 0.8682(5) 0.2596(5) 0.3145(5)
H3 H 0.8530 0.2046 0.2983
C6 C 0.8818(8) 0.2859(6) 0.3925(6)
H4 H 0.8784 0.2522 0.4411
N4 N 0.9015(6) 0.3692(5) 0.3912(4)
O1E O 0.98191(19) 0.6040(2) 0.5454(2)
N1E N 0.6871(3) 0.5976(3) 0.5292(3)
C1E C 0.6642(5) 0.5773(5) 0.4499(5)
H1E H 0.6088 0.5773 0.4288
C2E C 0.7335(6) 0.5571(6) 0.4064(5)
H2E H 0.7347 0.5410 0.3494
N2E N 0.8019(4) 0.5634(5) 0.4573(4)
C3E C 0.7697(4) 0.5877(4) 0.5312(4)
C4E C 0.8096(4) 0.6007(4) 0.6099(4)
N3E N 0.7623(3) 0.6201(3) 0.6740(3)
C5E C 0.8145(5) 0.6318(5) 0.7404(5)
H3E H 0.7983 0.6470 0.7954
C6E C 0.8925(6) 0.6182(8) 0.7141(6)
H4E H 0.9411 0.6216 0.7478
N4E N 0.8912(4) 0.5985(6) 0.6308(5)
O1K O 1.0454(2) 0.51809(19) 0.3960(2)
N1K N 1.0292(3) 0.8129(3) 0.4024(3)
C1K C 0.9499(5) 0.8358(5) 0.4227(5)
H1K H 0.9288 0.8912 0.4227
C2K C 0.9064(5) 0.7665(6) 0.4429(6)
H2K H 0.8494 0.7653 0.4590
N2K N 0.9573(4) 0.6981(4) 0.4366(5)
C3K C 1.0312(4) 0.7303(4) 0.4123(4)
C4K C 1.1099(4) 0.6904(4) 0.3993(4)
N3K N 1.1740(3) 0.7377(3) 0.3799(3)
C5K C 1.2404(5) 0.6855(5) 0.3682(5)
H3K H 1.2954 0.7017 0.3530
C6K C 1.2141(6) 0.6075(6) 0.3818(8)
H4K H 1.2478 0.5589 0.3784
N4K N 1.1308(5) 0.6088(4) 0.4015(6)
Co1L Co 1.14137(5) 0.64137(5) 0.85863(5)
Co2L Co 1.07766(11) 0.42234(11) 0.57766(11)
O1L O 1.1040(2) 0.5454(2) 0.51809(19)
N1L N 1.0976(3) 0.5292(3) 0.8129(3)
C1L C 1.0773(5) 0.4499(5) 0.8358(5)
H1L H 1.0773 0.4288 0.8912
C2L C 1.0571(6) 0.4064(5) 0.7665(6)
H2L H 1.0410 0.3494 0.7653
N2L N 1.0634(5) 0.4573(4) 0.6981(4)
C3L C 1.0877(4) 0.5312(4) 0.7303(4)
C4L C 1.1007(4) 0.6099(4) 0.6904(4)
N3L N 1.1201(3) 0.6740(3) 0.7377(3)
C5L C 1.1318(5) 0.7404(5) 0.6855(5)
H3L H 1.1470 0.7954 0.7017
C6L C 1.1182(8) 0.7141(6) 0.6075(6)
H4L H 1.1216 0.7478 0.5589
N4L N 1.0985(6) 0.6308(5) 0.6088(4)
O1Q O 1.01809(19) 0.3960(2) 0.4546(2)
N1Q N 1.3129(3) 0.4024(3) 0.4708(3)
C1Q C 1.3358(5) 0.4227(5) 0.5501(5)
H1Q H 1.3912 0.4227 0.5712
C2Q C 1.2665(6) 0.4429(6) 0.5936(5)
H2Q H 1.2653 0.4590 0.6506
N2Q N 1.1981(4) 0.4366(5) 0.5427(4)
C3Q C 1.2303(4) 0.4123(4) 0.4688(4)
C4Q C 1.1904(4) 0.3993(4) 0.3901(4)
N3Q N 1.2377(3) 0.3799(3) 0.3260(3)
C5Q C 1.1855(5) 0.3682(5) 0.2596(5)
H3Q H 1.2017 0.3530 0.2046
C6Q C 1.1075(6) 0.3818(8) 0.2859(6)
H4Q H 1.0589 0.3784 0.2522
N4Q N 1.1088(4) 0.4015(6) 0.3692(5)
O1W O 0.9546(2) 0.48191(19) 0.6040(2)
N1W N 0.9708(3) 0.1871(3) 0.5976(3)
C1W C 1.0501(5) 0.1642(5) 0.5773(5)
H1W H 1.0712 0.1088 0.5773
C2W C 1.0936(5) 0.2335(6) 0.5571(6)
H2W H 1.1506 0.2347 0.5410
N2W N 1.0427(4) 0.3019(4) 0.5634(5)
C3W C 0.9688(4) 0.2697(4) 0.5877(4)
C4W C 0.8901(4) 0.3096(4) 0.6007(4)
N3W N 0.8260(3) 0.2623(3) 0.6201(3)
C5W C 0.7596(5) 0.3145(5) 0.6318(5)
H3W H 0.7046 0.2983 0.6470
C6W C 0.7859(6) 0.3925(6) 0.6182(8)
H4W H 0.7522 0.4411 0.6216
N4W N 0.8692(5) 0.3912(4) 0.5985(6)
Co1A Co 0.64137(5) 0.64137(5) 0.64137(5)
Co1B Co 1.14137(5) 0.85863(5) 0.35863(5)
Co1M Co 1.35863(5) 0.35863(5) 0.35863(5)
Co1N Co 0.85863(5) 0.14137(5) 0.64137(5)
N1G N 0.8129(3) 0.4024(3) 0.0292(3)
N1J N 0.9708(3) 0.3129(3) 0.0976(3)
N1S N 1.1871(3) 0.5976(3) 0.9708(3)
N1V N 1.0292(3) 0.6871(3) 0.9024(3)
N3G N 0.7377(3) 0.3799(3) 0.1740(3)
N3J N 0.8260(3) 0.2377(3) 0.1201(3)
N3S N 1.2623(3) 0.6201(3) 0.8260(3)
N3V N 1.1740(3) 0.7623(3) 0.8799(3)
loop_
_geom_bond_atom_site_label_1
_geom_bond_atom_site_label_2
_geom_bond_site_symmetry_1
_geom_bond_site_symmetry_2
Co1 N1 1_555 1_555
Co2 O1 1_555 1_555
O2 Co2 1_555 1_555
N1 C1 1_555 1_555
C1 H1 1_555 1_555
C2 C1 1_555 1_555
H2 C2 1_555 1_555
N2 Co2 1_555 1_555
C3 N1 1_555 1_555
C4 C3 1_555 1_555
N3 Co1 1_555 1_555
C5 N3 1_555 1_555
H3 C5 1_555 1_555
C6 C5 1_555 1_555
H4 C6 1_555 1_555
N4 C4 1_555 1_555
O1E Co2 1_555 1_555
N1E C1E 1_555 1_555
C1E H1E 1_555 1_555
C2E C1E 1_555 1_555
H2E C2E 1_555 1_555
N2E Co2 1_555 1_555
C3E N1E 1_555 1_555
C4E C3E 1_555 1_555
N3E C4E 1_555 1_555
C5E N3E 1_555 1_555
H3E C5E 1_555 1_555
C6E C5E 1_555 1_555
H4E C6E 1_555 1_555
N4E C4E 1_555 1_555
O1K Co2 1_555 1_555
N1K C1K 1_555 1_555
C1K H1K 1_555 1_555
C2K C1K 1_555 1_555
H2K C2K 1_555 1_555
N2K Co2 1_555 1_555
C3K N1K 1_555 1_555
C4K C3K 1_555 1_555
N3K C4K 1_555 1_555
C5K N3K 1_555 1_555
H3K C5K 1_555 1_555
C6K C5K 1_555 1_555
H4K C6K 1_555 1_555
N4K C4K 1_555 1_555
Co1L N1L 1_555 1_555
Co2L O2 1_555 1_555
O1L Co2L 1_555 1_555
N1L C1L 1_555 1_555
C1L H1L 1_555 1_555
C2L C1L 1_555 1_555
H2L C2L 1_555 1_555
N2L Co2L 1_555 1_555
C3L N1L 1_555 1_555
C4L C3L 1_555 1_555
N3L Co1L 1_555 1_555
C5L N3L 1_555 1_555
H3L C5L 1_555 1_555
C6L C5L 1_555 1_555
H4L C6L 1_555 1_555
N4L C4L 1_555 1_555
O1Q Co2L 1_555 1_555
N1Q C1Q 1_555 1_555
C1Q H1Q 1_555 1_555
C2Q C1Q 1_555 1_555
H2Q C2Q 1_555 1_555
N2Q Co2L 1_555 1_555
C3Q N1Q 1_555 1_555
C4Q C3Q 1_555 1_555
N3Q C4Q 1_555 1_555
C5Q N3Q 1_555 1_555
H3Q C5Q 1_555 1_555
C6Q C5Q 1_555 1_555
H4Q C6Q 1_555 1_555
N4Q C4Q 1_555 1_555
O1W Co2L 1_555 1_555
N1W C1W 1_555 1_555
C1W H1W 1_555 1_555
C2W C1W 1_555 1_555
H2W C2W 1_555 1_555
N2W Co2L 1_555 1_555
C3W N1W 1_555 1_555
C4W C3W 1_555 1_555
N3W C4W 1_555 1_555
C5W N3W 1_555 1_555
H3W C5W 1_555 1_555
C6W C5W 1_555 1_555
H4W C6W 1_555 1_555
N4W C4W 1_555 1_555
Co1A N1E 1_555 1_555
Co1B N1K 1_555 1_555
Co1M N1Q 1_555 1_555
Co1N N1W 1_555 1_555
N1G Co1 1_555 1_555
N1J Co1 1_555 1_555
N1S Co1L 1_555 1_555
N1V Co1L 1_555 1_555
N3G Co1 1_555 1_555
N3J Co1 1_555 1_555
N3S Co1L 1_555 1_555
N3V Co1L 1_555 1_555
C2 N2 1_555 1_555
N2 C3 1_555 1_555
C4 N3 1_555 1_555
C6 N4 1_555 1_555
C2E N2E 1_555 1_555
N2E C3E 1_555 1_555
N3E Co1A 1_555 1_555
C6E N4E 1_555 1_555
C2K N2K 1_555 1_555
N2K C3K 1_555 1_555
N3K Co1B 1_555 1_555
C6K N4K 1_555 1_555
C2L N2L 1_555 1_555
N2L C3L 1_555 1_555
C4L N3L 1_555 1_555
C6L N4L 1_555 1_555
C2Q N2Q 1_555 1_555
N2Q C3Q 1_555 1_555
N3Q Co1M 1_555 1_555
C6Q N4Q 1_555 1_555
C2W N2W 1_555 1_555
N2W C3W 1_555 1_555
N3W Co1N 1_555 1_555
C6W N4W 1_555 1_555

#END
