
#######################################################################
#
#                 Cambridge Crystallographic Data Centre
#                                CCDC 
#
#######################################################################
#
# If this CIF has been generated from an entry in the Cambridge 
# Structural Database, then it will include bibliographic, chemical, 
# crystal, experimental, refinement or atomic coordinate data resulting 
# from the CCDC's data processing and validation procedures.
#
#######################################################################

data_VONQIA
_symmetry_cell_setting           triclinic
_symmetry_space_group_name_H-M   'P -1'
_symmetry_Int_Tables_number      2
_space_group_name_Hall           '-P 1'
loop_
_symmetry_equiv_pos_site_id
_symmetry_equiv_pos_as_xyz
1 x,y,z
2 -x,-y,-z
_cell_length_a                   8.572(4)
_cell_length_b                   10.012(4)
_cell_length_c                   11.769(4)
_cell_angle_alpha                71.09(5)
_cell_angle_beta                 83.73(5)
_cell_angle_gamma                73.07(5)
_cell_volume                     914.001
loop_
_atom_site_label
_atom_site_type_symbol
_atom_site_fract_x
_atom_site_fract_y
_atom_site_fract_z
Cu1 Cu 0.1150(2) 0.5242(2) 0.5894(2)
Cu2 Cu 0.5685(3) 0.1810(3) 0.8353(2)
O1 O 0.1186(10) 0.5548(9) 0.4180(8)
C1 C 0.2540(14) 0.5078(15) 0.3535(14)
C2 C 0.3944(16) 0.4069(16) 0.4116(14)
C3 C 0.5244(15) 0.3577(14) 0.3312(12)
H1 H 0.6195 0.2847 0.3665
C4 C 0.5184(15) 0.4097(15) 0.2081(13)
H2 H 0.6075 0.3789 0.1584
C5 C 0.3698(13) 0.5125(13) 0.1600(13)
H3 H 0.3599 0.5522 0.0752
C6 C 0.2384(15) 0.5575(13) 0.2319(11)
H4 H 0.1388 0.6222 0.1966
C7 C 0.4340(16) 0.3497(14) 0.5337(16)
H5 H 0.5400 0.2869 0.5562
N1 N 0.3324(12) 0.3792(11) 0.6152(10)
N2 N 0.3768(11) 0.3247(11) 0.7353(11)
C8 C 0.2509(17) 0.3769(15) 0.8034(15)
O2 O 0.1203(10) 0.4661(9) 0.7663(8)
N3 N 0.2769(13) 0.3332(12) 0.9223(13)
H6 H 0.2070 0.3712 0.9715
N4 N 0.4205(13) 0.2248(13) 0.9631(12)
C9 C 0.4483(15) 0.1787(14) 1.0778(14)
H7 H 0.3645 0.2140 1.1292
C10 C 0.5960(16) 0.0789(13) 1.1312(13)
C11 C 0.5986(17) 0.0368(14) 1.2600(15)
H8 H 0.5052 0.0719 1.3045
C12 C 0.7449(15) -0.0592(14) 1.3197(13)
H9 H 0.7514 -0.0868 1.4046
C13 C 0.8809(16) -0.1131(16) 1.2503(15)
H10 H 0.9772 -0.1798 1.2893
C14 C 0.8736(16) -0.0707(14) 1.1325(15)
H11 H 0.9678 -0.1083 1.0899
C15 C 0.7326(18) 0.0293(15) 1.0618(16)
O3 O 0.7400(10) 0.0574(9) 0.9481(9)
N5 N 0.7090(13) 0.1161(14) 0.7122(12)
C16 C 0.7795(19) 0.0383(16) 0.6584(15)
N6 N 0.847(2) -0.0201(16) 0.5763(13)
C17 C 0.9153(18) -0.1590(15) 0.5862(15)
N7 N 0.9801(14) -0.2698(12) 0.5824(10)
Cu1_2 Cu 1.1150(2) -0.4758(2) 0.5894(2)
Cu1A Cu -0.1150(2) 0.4758(2) 0.4106(2)
O1A O -0.1186(10) 0.4452(9) 0.5820(8)
N7_2 N -0.0199(14) 0.7302(12) 0.5824(10)
O4 O -0.0662(11) 0.6642(9) 0.8878(9)
H12 H -0.0105 0.6058 0.8503
C18 C 0.0313(15) 0.7591(14) 0.8802(13)
H13 H -0.0388 0.8548 0.8828
H14 H 0.0944 0.7712 0.8047
H15 H 0.1061 0.7169 0.9480
loop_
_geom_bond_atom_site_label_1
_geom_bond_atom_site_label_2
_geom_bond_site_symmetry_1
_geom_bond_site_symmetry_2
Cu1 O1 1_555 1_555
Cu2 N2 1_555 1_555
O1 C1 1_555 1_555
C1 C2 1_555 1_555
C2 C3 1_555 1_555
C3 H1 1_555 1_555
C4 C3 1_555 1_555
H2 C4 1_555 1_555
C5 C4 1_555 1_555
H3 C5 1_555 1_555
C6 C1 1_555 1_555
H4 C6 1_555 1_555
C7 C2 1_555 1_555
H5 C7 1_555 1_555
N1 Cu1 1_555 1_555
N2 N1 1_555 1_555
C8 N2 1_555 1_555
O2 Cu1 1_555 1_555
N3 C8 1_555 1_555
H6 N3 1_555 1_555
N4 Cu2 1_555 1_555
C9 N4 1_555 1_555
H7 C9 1_555 1_555
C10 C9 1_555 1_555
C11 C10 1_555 1_555
H8 C11 1_555 1_555
C12 C11 1_555 1_555
H9 C12 1_555 1_555
C13 C12 1_555 1_555
H10 C13 1_555 1_555
C14 C13 1_555 1_555
H11 C14 1_555 1_555
C15 C10 1_555 1_555
O3 Cu2 1_555 1_555
N5 Cu2 1_555 1_555
C16 N5 1_555 1_555
N6 C16 1_555 1_555
C17 N6 1_555 1_555
N7 C17 1_555 1_555
O4 H12 1_555 1_555
C18 O4 1_555 1_555
H13 C18 1_555 1_555
H14 C18 1_555 1_555
H15 C18 1_555 1_555
Cu1_2 N7 1_555 1_555
Cu1A O1 1_555 1_555
O1A Cu1 1_555 1_555
N7_2 Cu1 1_555 1_555
C5 C6 1_555 1_555
C7 N1 1_555 1_555
C8 O2 1_555 1_555
N3 N4 1_555 1_555
C14 C15 1_555 1_555
C15 O3 1_555 1_555
Cu1A O1A 1_555 1_555

#END
