
#######################################################################
#
#                 Cambridge Crystallographic Data Centre
#                                CCDC 
#
#######################################################################
#
# If this CIF has been generated from an entry in the Cambridge 
# Structural Database, then it will include bibliographic, chemical, 
# crystal, experimental, refinement or atomic coordinate data resulting 
# from the CCDC's data processing and validation procedures.
#
#######################################################################

data_VONQUK
_symmetry_cell_setting           orthorhombic
_symmetry_space_group_name_H-M   'P b c a'
_symmetry_Int_Tables_number      61
_space_group_name_Hall           '-P 2ac 2ab'
loop_
_symmetry_equiv_pos_site_id
_symmetry_equiv_pos_as_xyz
1 x,y,z
2 1/2+x,y,1/2-z
3 1/2-x,1/2+y,z
4 x,1/2-y,1/2+z
5 -x,-y,-z
6 1/2-x,-y,1/2+z
7 1/2+x,1/2-y,-z
8 -x,1/2+y,1/2-z
_cell_length_a                   7.7900(8)
_cell_length_b                   12.9909(15)
_cell_length_c                   15.656(2)
_cell_angle_alpha                90
_cell_angle_beta                 90
_cell_angle_gamma                90
_cell_volume                     1584.37
loop_
_atom_site_label
_atom_site_type_symbol
_atom_site_fract_x
_atom_site_fract_y
_atom_site_fract_z
Cu1 Cu 0.0000 0.0000 0.0000
O1 O 0.2296(2) -0.06427(12) 0.02103(10)
O2 O 0.0812(2) 0.16826(13) 0.07059(11)
N1 N -0.0782(3) -0.05277(15) 0.11351(11)
C1 C -0.0808(4) -0.18826(18) 0.21772(15)
O3 O 0.6003(3) -0.16529(14) 0.00126(13)
C2 C -0.0424(3) -0.14943(18) 0.13716(15)
H1 H 0.0106 -0.1927 0.0979
C3 C 0.3774(3) -0.02739(19) 0.00922(13)
C4 C -0.1984(4) -0.0233(2) 0.25093(16)
H2 H -0.2526 0.0210 0.2890
C5 C -0.1576(4) -0.1222(2) 0.27574(15)
H3 H -0.1815 -0.1444 0.3310
N2 N -0.0469(4) -0.2890(2) 0.23727(18)
C6 C -0.1586(4) 0.00993(19) 0.16946(17)
H4 H -0.1876 0.0764 0.1529
C7 C 0.5455(4) -0.0753(2) 0.00096(14)
H5 H 0.0120 0.2148 0.0479
H6 H 0.2125 0.1758 0.0504
H7 H -0.0291 -0.3149 0.2928
H8 H 0.0473 -0.3218 0.2010
C3D C 0.6226(3) 0.02739(19) -0.00922(13)
O1D O 0.7704(2) 0.06427(12) -0.02103(10)
C7D C 0.4545(4) 0.0753(2) -0.00096(14)
O3D O 0.3997(3) 0.16529(14) -0.00126(13)
O2D O -0.0812(2) -0.16826(13) -0.07059(11)
H5D H -0.0120 -0.2148 -0.0479
H6D H -0.2125 -0.1758 -0.0504
N1D N 0.0782(3) 0.05277(15) -0.11351(11)
C1D C 0.0808(4) 0.18826(18) -0.21772(15)
C2D C 0.0424(3) 0.14943(18) -0.13716(15)
H1D H -0.0106 0.1927 -0.0979
C4D C 0.1984(4) 0.0233(2) -0.25093(16)
H2D H 0.2526 -0.0210 -0.2890
C5D C 0.1576(4) 0.1222(2) -0.27574(15)
H3D H 0.1815 0.1444 -0.3310
N2D N 0.0469(4) 0.2890(2) -0.23727(18)
C6D C 0.1586(4) -0.00993(19) -0.16946(17)
H4D H 0.1876 -0.0764 -0.1529
H7D H 0.0291 0.3149 -0.2928
H8D H -0.0473 0.3218 -0.2010
O1D_2 O -0.2296(2) 0.06427(12) -0.02103(10)
Cu1_2 Cu 1.0000 0.0000 0.0000
loop_
_geom_bond_atom_site_label_1
_geom_bond_atom_site_label_2
_geom_bond_site_symmetry_1
_geom_bond_site_symmetry_2
Cu1 O1 1_555 1_555
O1 C3 1_555 1_555
O2 Cu1 1_555 1_555
N1 Cu1 1_555 1_555
C1 C2 1_555 1_555
O3 C7 1_555 1_555
C2 N1 1_555 1_555
H1 C2 1_555 1_555
C3 C7 1_555 1_555
C4 H2 1_555 1_555
C5 C1 1_555 1_555
H3 C5 1_555 1_555
N2 C1 1_555 1_555
C6 N1 1_555 1_555
H4 C6 1_555 1_555
C7 C3D 1_555 1_555
H5 O2 1_555 1_555
H6 O2 1_555 1_555
H7 N2 1_555 1_555
H8 N2 1_555 1_555
C3D O1D 1_555 1_555
O1D Cu1_2 1_555 1_555
C7D C3 1_555 1_555
O3D C7D 1_555 1_555
O2D Cu1 1_555 1_555
H5D O2D 1_555 1_555
H6D O2D 1_555 1_555
N1D Cu1 1_555 1_555
C1D C2D 1_555 1_555
C2D N1D 1_555 1_555
H1D C2D 1_555 1_555
C4D H2D 1_555 1_555
C5D C1D 1_555 1_555
H3D C5D 1_555 1_555
N2D C1D 1_555 1_555
C6D N1D 1_555 1_555
H4D C6D 1_555 1_555
H7D N2D 1_555 1_555
H8D N2D 1_555 1_555
O1D_2 Cu1 1_555 1_555
C4 C5 1_555 1_555
C4 C6 1_555 1_555
C3D C7D 1_555 1_555
C4D C5D 1_555 1_555
C4D C6D 1_555 1_555

#END
