
#######################################################################
#
#                 Cambridge Crystallographic Data Centre
#                                CCDC 
#
#######################################################################
#
# If this CIF has been generated from an entry in the Cambridge 
# Structural Database, then it will include bibliographic, chemical, 
# crystal, experimental, refinement or atomic coordinate data resulting 
# from the CCDC's data processing and validation procedures.
#
#######################################################################

data_VONRIZ
_symmetry_cell_setting           monoclinic
_symmetry_space_group_name_H-M   'P 21/n'
_symmetry_Int_Tables_number      14
_space_group_name_Hall           '-P 2yn'
loop_
_symmetry_equiv_pos_site_id
_symmetry_equiv_pos_as_xyz
1 x,y,z
2 1/2-x,1/2+y,1/2-z
3 -x,-y,-z
4 1/2+x,1/2-y,1/2+z
_cell_length_a                   18.710(4)
_cell_length_b                   8.828(2)
_cell_length_c                   11.162(5)
_cell_angle_alpha                90
_cell_angle_beta                 103.13(3)
_cell_angle_gamma                90
_cell_volume                     1795.45
loop_
_atom_site_label
_atom_site_type_symbol
_atom_site_fract_x
_atom_site_fract_y
_atom_site_fract_z
Ag1 Ag 0.16984(3) 0.36276(6) -0.17404(5)
S1 S 0.23273(5) 0.10621(23) -0.18686(18)
N1 N 0.4067(2) 0.0723(5) -0.0962(4)
N2 N 0.4101(2) 0.0156(5) -0.2074(4)
C1 C 0.4614(3) 0.0953(7) -0.2444(5)
C2 C 0.4912(3) 0.2039(7) -0.1560(6)
C3 C 0.4558(3) 0.1867(6) -0.0634(5)
C4 C 0.4806(4) 0.0590(8) -0.3638(6)
C5 C 0.4651(3) 0.2712(7) 0.0557(6)
C6 C 0.3587(3) 0.0053(7) -0.0243(5)
C7 C 0.2891(3) 0.0939(7) -0.0310(5)
N3 N 0.1122(2) 0.0877(6) -0.0174(4)
N4 N 0.1339(2) 0.2347(6) 0.0014(4)
C8 C 0.1526(3) 0.2487(8) 0.1239(6)
C9 C 0.1422(3) 0.1131(8) 0.1802(6)
C10 C 0.1175(3) 0.0118(8) 0.0896(7)
C11 C 0.1805(4) 0.3962(8) 0.1816(6)
C12 C 0.0978(4) -0.1522(7) 0.0951(7)
C13 C 0.0955(3) 0.0290(7) -0.1425(5)
C14 C 0.1615(3) -0.0314(7) -0.1842(5)
N5 N 0.2900(4) 0.5891(8) -0.0165(5)
O1 O 0.2861(3) 0.4521(6) -0.0335(5)
O2 O 0.3533(4) 0.6368(7) -0.0041(7)
O3 O 0.2407(5) 0.6680(8) -0.0126(7)
H1 H 0.5286(3) 0.2753(7) -0.1598(6)
H2 H 0.1507(3) 0.0945(8) 0.2661(6)
H3 H 0.3454(3) -0.0934(7) -0.0555(5)
H4 H 0.3848(3) -0.0026(7) 0.0590(5)
H5 H 0.3024(3) 0.1933(7) -0.0016(5)
H6 H 0.2611(3) 0.0476(7) 0.0199(5)
H7 H 0.0597(3) -0.0488(7) -0.1485(5)
H8 H 0.0753(3) 0.1090(7) -0.1966(5)
H9 H 0.1457(3) -0.0735(7) -0.2642(5)
H10 H 0.1821(3) -0.1100(7) -0.1289(5)
H11 H 0.4702(4) 0.1401(8) -0.4211(6)
H12 H 0.4481(4) -0.0228(8) -0.3918(6)
H13 H 0.5298(4) 0.0263(8) -0.3565(6)
H14 H 0.5127(3) 0.2608(7) 0.1073(6)
H15 H 0.4303(3) 0.2227(7) 0.0928(6)
H16 H 0.4532(3) 0.3756(7) 0.0443(6)
H17 H 0.1488(4) 0.4402(8) 0.2276(6)
H18 H 0.1795(4) 0.4555(8) 0.1102(6)
H19 H 0.2291(4) 0.3930(8) 0.2307(6)
H20 H 0.1379(4) -0.2134(7) 0.1351(7)
H21 H 0.0839(4) -0.1790(7) 0.0106(7)
H22 H 0.0575(4) -0.1678(7) 0.1324(7)
N2A N 0.0899(2) 0.5156(5) -0.2926(4)
Ag1A Ag 0.33016(3) -0.13724(6) -0.32596(5)
loop_
_geom_bond_atom_site_label_1
_geom_bond_atom_site_label_2
_geom_bond_site_symmetry_1
_geom_bond_site_symmetry_2
Ag1 S1 1_555 1_555
S1 C7 1_555 1_555
N1 N2 1_555 1_555
N2 C1 1_555 1_555
C1 C2 1_555 1_555
C2 C3 1_555 1_555
C3 N1 1_555 1_555
C4 C1 1_555 1_555
C5 C3 1_555 1_555
C6 N1 1_555 1_555
C7 C6 1_555 1_555
N3 N4 1_555 1_555
N4 Ag1 1_555 1_555
C8 N4 1_555 1_555
C9 C8 1_555 1_555
C10 N3 1_555 1_555
C11 C8 1_555 1_555
C12 C10 1_555 1_555
C13 N3 1_555 1_555
C14 S1 1_555 1_555
N5 O1 1_555 1_555
O1 Ag1 1_555 1_555
O2 N5 1_555 1_555
O3 N5 1_555 1_555
H1 C2 1_555 1_555
H2 C9 1_555 1_555
H3 C6 1_555 1_555
H4 C6 1_555 1_555
H5 C7 1_555 1_555
H6 C7 1_555 1_555
H7 C13 1_555 1_555
H8 C13 1_555 1_555
H9 C14 1_555 1_555
H10 C14 1_555 1_555
H11 C4 1_555 1_555
H12 C4 1_555 1_555
H13 C4 1_555 1_555
H14 C5 1_555 1_555
H15 C5 1_555 1_555
H16 C5 1_555 1_555
H17 C11 1_555 1_555
H18 C11 1_555 1_555
H19 C11 1_555 1_555
H20 C12 1_555 1_555
H21 C12 1_555 1_555
H22 C12 1_555 1_555
N2A Ag1 1_555 1_555
Ag1A N2 1_555 1_555
C9 C10 1_555 1_555
C13 C14 1_555 1_555

#END
