
#######################################################################
#
#                 Cambridge Crystallographic Data Centre
#                                CCDC 
#
#######################################################################
#
# If this CIF has been generated from an entry in the Cambridge 
# Structural Database, then it will include bibliographic, chemical, 
# crystal, experimental, refinement or atomic coordinate data resulting 
# from the CCDC's data processing and validation procedures.
#
#######################################################################

data_VONREX
_symmetry_cell_setting           monoclinic
_symmetry_space_group_name_H-M   'P c'
_symmetry_Int_Tables_number      7
_space_group_name_Hall           'P -2yc'
loop_
_symmetry_equiv_pos_site_id
_symmetry_equiv_pos_as_xyz
1 x,y,z
2 x,-y,1/2+z
_cell_length_a                   10.502(4)
_cell_length_b                   9.670(3)
_cell_length_c                   10.793(4)
_cell_angle_alpha                90
_cell_angle_beta                 114.744(3)
_cell_angle_gamma                90
_cell_volume                     995.442
loop_
_atom_site_label
_atom_site_type_symbol
_atom_site_fract_x
_atom_site_fract_y
_atom_site_fract_z
Cu1 Cu 0.65475(6) 0.75684(3) 0.70117(6)
O1 O 0.45673(18) 0.7060(3) 0.64052(17)
O2 O 0.85400(19) 0.7843(3) 0.74998(19)
N1 N 0.6785(2) 0.6285(3) 0.8532(2)
N2 N 0.6700(3) 0.4457(3) 1.0482(2)
N3 N 0.3172(2) 0.5434(3) 0.67030(19)
N4 N 0.6342(2) 0.8761(3) 0.5428(2)
N5 N 0.6487(3) 1.0536(3) 0.3474(2)
N6 N 1.0061(2) 0.8511(3) 0.6645(2)
C1 C 0.5590(3) 0.5633(3) 0.8359(3)
C2 C 0.5544(3) 0.4708(3) 0.9333(3)
C3 C 0.7871(3) 0.5121(3) 1.0648(3)
C4 C 0.7939(3) 0.6034(3) 0.9668(3)
C5 C 0.4379(3) 0.6067(3) 0.7083(3)
C6 C 0.1959(3) 0.5765(3) 0.5432(3)
C7 C 0.7588(3) 0.9130(3) 0.5455(3)
C8 C 0.7661(3) 1.0042(3) 0.4494(3)
C9 C 0.5271(3) 1.0123(3) 0.3446(3)
C10 C 0.5174(3) 0.9221(3) 0.4417(3)
C11 C 0.8798(3) 0.8462(3) 0.6610(3)
C12 C 1.1238(3) 0.7818(4) 0.7744(3)
H1 H 0.3081 0.4747 0.7263
H2 H 1.0211 0.8988 0.5970
H3 H 0.4708 0.4263 0.9186
H4 H 0.8675 0.4974 1.1445
H5 H 0.8781 0.6462 0.9807
H6 H 0.2191 0.5607 0.4672
H7 H 0.1184 0.5186 0.5346
H8 H 0.1707 0.6717 0.5443
H9 H 0.8533 1.0318 0.4554
H10 H 0.4448 1.0447 0.2752
H11 H 0.4302 0.8945 0.4357
H12 H 1.1046 0.6846 0.7729
H13 H 1.2079 0.7957 0.7614
H14 H 1.1358 0.8198 0.8608
Cu1A Cu 0.65475(6) 0.24316(3) 1.20117(6)
Cu1A_2 Cu 0.65475(6) 1.24316(3) 0.20117(6)
N2A N 0.6700(3) 0.5543(3) 0.5482(2)
N5A N 0.6487(3) 0.9464(3) 0.8474(2)
F1 F 0.0173(4) 0.7526(3) 0.2415(4)
F2 F 0.2382(3) 0.6727(3) 0.2914(2)
F3 F 0.1916(2) 0.8986(3) 0.2609(2)
F4 F 0.1012(3) 0.7525(2) 0.0788(3)
B1 B 0.1349(4) 0.7683(4) 0.2160(4)
F5 F 0.38242(18) 1.33449(19) 0.48944(17)
F6 F 0.38392(17) 1.11084(16) 0.55837(17)
F7 F 0.58717(19) 1.2120(3) 0.5715(2)
F8 F 0.4923(3) 1.2794(2) 0.71558(19)
B2 B 0.4614(4) 1.2329(3) 0.5840(4)
O3 O 0.1136(3) 0.9557(3) 0.4895(3)
O4 O 0.8154(3) 0.2995(3) 0.8506(3)
loop_
_geom_bond_atom_site_label_1
_geom_bond_atom_site_label_2
_geom_bond_site_symmetry_1
_geom_bond_site_symmetry_2
Cu1 O1 1_555 1_555
O1 C5 1_555 1_555
O2 Cu1 1_555 1_555
N1 Cu1 1_555 1_555
N2 C2 1_555 1_555
N3 C5 1_555 1_555
N4 Cu1 1_555 1_555
N5 C8 1_555 1_555
N6 C11 1_555 1_555
C1 N1 1_555 1_555
C2 C1 1_555 1_555
C3 N2 1_555 1_555
C4 N1 1_555 1_555
C5 C1 1_555 1_555
C6 N3 1_555 1_555
C7 N4 1_555 1_555
C8 C7 1_555 1_555
C9 N5 1_555 1_555
C10 N4 1_555 1_555
C11 O2 1_555 1_555
C12 N6 1_555 1_555
H1 N3 1_555 1_555
H2 N6 1_555 1_555
H3 C2 1_555 1_555
H4 C3 1_555 1_555
H5 C4 1_555 1_555
H6 C6 1_555 1_555
H7 C6 1_555 1_555
H8 C6 1_555 1_555
H9 C8 1_555 1_555
H10 C9 1_555 1_555
H11 C10 1_555 1_555
H12 C12 1_555 1_555
H13 C12 1_555 1_555
H14 C12 1_555 1_555
F1 B1 1_555 1_555
F2 B1 1_555 1_555
F3 B1 1_555 1_555
F4 B1 1_555 1_555
F5 B2 1_555 1_555
F6 B2 1_555 1_555
F7 B2 1_555 1_555
F8 B2 1_555 1_555
Cu1A N2 1_555 1_555
Cu1A_2 N5 1_555 1_555
N2A Cu1 1_555 1_555
N5A Cu1 1_555 1_555
C3 C4 1_555 1_555
C7 C11 1_555 1_555
C9 C10 1_555 1_555

#END
