
#######################################################################
#
#                 Cambridge Crystallographic Data Centre
#                                CCDC 
#
#######################################################################
#
# If this CIF has been generated from an entry in the Cambridge 
# Structural Database, then it will include bibliographic, chemical, 
# crystal, experimental, refinement or atomic coordinate data resulting 
# from the CCDC's data processing and validation procedures.
#
#######################################################################

data_VONRIB
_symmetry_cell_setting           monoclinic
_symmetry_space_group_name_H-M   'P 21/c'
_symmetry_Int_Tables_number      14
_space_group_name_Hall           '-P 2ybc'
loop_
_symmetry_equiv_pos_site_id
_symmetry_equiv_pos_as_xyz
1 x,y,z
2 -x,1/2+y,1/2-z
3 -x,-y,-z
4 x,1/2-y,1/2+z
_cell_length_a                   10.1373(3)
_cell_length_b                   21.3690(8)
_cell_length_c                   20.6196(9)
_cell_angle_alpha                90
_cell_angle_beta                 90.6451(15)
_cell_angle_gamma                90
_cell_volume                     4466.42
loop_
_atom_site_label
_atom_site_type_symbol
_atom_site_fract_x
_atom_site_fract_y
_atom_site_fract_z
Cu1 Cu 0.59663(6) 0.23451(3) 0.32781(3)
Cu2 Cu 0.09946(6) 0.24687(3) 0.07486(3)
O1 O 0.5690(3) 0.32428(16) 0.33924(16)
O2 O 0.6330(4) 0.14527(16) 0.31443(17)
O3 O 0.1331(4) 0.15712(17) 0.07976(17)
O4 O 0.0607(4) 0.33648(16) 0.07221(16)
N1 N 0.4655(4) 0.22935(19) 0.3997(2)
N2 N 0.2801(4) 0.2423(2) 0.4972(2)
N3 N 0.4505(5) 0.3965(2) 0.3921(2)
N4 N 0.7273(4) 0.2438(2) 0.2571(2)
N5 N 0.9158(5) 0.2404(3) 0.1610(2)
N6 N 0.7574(5) 0.0776(2) 0.2592(3)
N7 N 0.2244(4) 0.2487(2) 0.14933(19)
N8 N 0.4176(4) 0.2364(2) 0.2440(2)
N9 N 0.2317(5) 0.0826(2) 0.1400(3)
N10 N -0.0342(4) 0.2452(2) 0.0034(2)
N11 N -0.2292(4) 0.2587(2) -0.0898(2)
N12 N -0.0775(4) 0.4087(2) 0.0312(3)
C1 C 0.4174(5) 0.2861(3) 0.4166(3)
C2 C 0.3240(5) 0.2926(3) 0.4639(3)
C3 C 0.3319(5) 0.1874(3) 0.4815(3)
C4 C 0.4229(5) 0.1801(3) 0.4324(3)
C5 C 0.4827(5) 0.3390(3) 0.3803(3)
C6 C 0.5152(6) 0.4486(3) 0.3596(3)
C7 C 0.7761(5) 0.1888(3) 0.2365(3)
C8 C 0.8686(5) 0.1871(3) 0.1878(3)
C9 C 0.8658(6) 0.2937(3) 0.1831(3)
C10 C 0.7710(5) 0.2964(3) 0.2304(3)
C11 C 0.7193(5) 0.1341(3) 0.2715(3)
C12 C 0.7108(6) 0.0228(3) 0.2942(3)
C13 C 0.2744(5) 0.1917(3) 0.1649(3)
C14 C 0.3705(5) 0.1859(3) 0.2113(3)
C15 C 0.3650(6) 0.2915(3) 0.2293(3)
C16 C 0.2683(5) 0.2984(3) 0.1817(3)
C17 C 0.2108(5) 0.1409(3) 0.1259(3)
C18 C 0.1674(7) 0.0320(3) 0.1033(4)
C19 C -0.0918(5) 0.3008(3) -0.0064(3)
C20 C -0.1905(5) 0.3072(3) -0.0517(3)
C21 C -0.1668(5) 0.2046(3) -0.0803(3)
C22 C -0.0699(5) 0.1964(3) -0.0331(3)
C23 C -0.0331(5) 0.3516(3) 0.0348(3)
C24 C -0.0243(6) 0.4587(3) 0.0730(3)
H1 H 0.3846 0.4048 0.4220
H2 H 0.8180 0.0716 0.2263
H3 H 0.2889 0.0725 0.1740
H4 H -0.1440 0.4182 0.0014
H5 H 0.2901 0.3320 0.4730
H6 H 0.3058 0.1521 0.5044
H7 H 0.4544 0.1404 0.4224
H8 H 0.5017 0.4451 0.3135
H9 H 0.4783 0.4873 0.3745
H10 H 0.6080 0.4478 0.3693
H11 H 0.8989 0.1486 0.1731
H12 H 0.8963 0.3311 0.1656
H13 H 0.7380 0.3349 0.2437
H14 H 0.6168 0.0196 0.2891
H15 H 0.7516 -0.0142 0.2772
H16 H 0.7329 0.0269 0.3394
H17 H 0.4046 0.1465 0.2207
H18 H 0.3943 0.3268 0.2515
H19 H 0.2340 0.3378 0.1724
H20 H 0.0854 0.0469 0.0853
H21 H 0.2237 0.0186 0.0688
H22 H 0.1505 -0.0026 0.1317
H23 H -0.2324 0.3457 -0.0563
H24 H -0.1894 0.1708 -0.1065
H25 H -0.0304 0.1575 -0.0270
H26 H 0.0684 0.4635 0.0655
H27 H -0.0688 0.4973 0.0634
H28 H -0.0380 0.4478 0.1176
Cu1C Cu -0.40337(6) 0.26549(3) -0.17219(3)
Cu2_2 Cu 1.09946(6) 0.24687(3) 0.07486(3)
Cu2C Cu 0.09946(6) 0.25313(3) 0.57486(3)
N2C N 0.2801(4) 0.2577(2) -0.0028(2)
N5_2 N -0.0842(5) 0.2404(3) 0.1610(2)
N11C N 0.7708(4) 0.2413(2) 0.4102(2)
P1 P 0.09132(14) 0.13082(7) 0.34280(7)
F1 F -0.0349(4) 0.0884(3) 0.3611(2)
F2 F 0.2124(5) 0.1721(3) 0.3251(3)
F3 F 0.0713(4) 0.1119(3) 0.2683(2)
F4 F -0.0082(4) 0.1877(2) 0.3325(2)
F5 F 0.1063(4) 0.1469(3) 0.4177(2)
F6 F 0.1848(5) 0.0716(3) 0.3535(3)
P2 P 0.0600(3) 0.40719(9) 0.30424(10)
F13 F 0.0743(4) 0.48200(17) 0.30731(19)
F14 F 0.0486(5) 0.33289(19) 0.3028(3)
F15 F 0.2175(5) 0.40201(18) 0.3043(2)
F16 F 0.0518(8) 0.4073(3) 0.3798(3)
F17 F -0.0998(5) 0.4137(3) 0.3020(3)
F18 F 0.0601(4) 0.40903(17) 0.22791(18)
P3 P 0.54120(17) 0.41105(8) 0.11437(8)
F19 F 0.5284(4) 0.33719(18) 0.1203(3)
F20 F 0.5536(4) 0.48485(17) 0.10705(18)
F21 F 0.5329(4) 0.41773(15) 0.19099(16)
F22 F 0.3836(4) 0.41658(19) 0.1105(2)
F23 F 0.5438(6) 0.4048(3) 0.0377(3)
F24 F 0.6961(4) 0.40571(19) 0.1199(3)
P4 P 0.6175(4) 0.1281(3) 0.0662(2)
F25 F 0.6258(8) 0.1891(4) 0.1069(4)
F26 F 0.6005(13) 0.0652(5) 0.0286(5)
F27 F 0.5927(8) 0.1001(4) 0.1334(4)
F28 F 0.4624(6) 0.1360(5) 0.0589(4)
F29 F 0.6302(6) 0.1653(5) 0.0019(4)
F30 F 0.7799(5) 0.1159(3) 0.0713(3)
O5 O 0.3571(4) 0.03674(19) 0.25412(19)
O6 O 0.2416(7) 0.4547(4) 0.4544(4)
O7 O 0.7116(5) 0.0321(3) 0.4622(3)
F7? F 0.091(3) 0.0625(12) 0.3200(13)
F8? F 0.099(3) 0.2032(12) 0.3677(12)
F9? F 0.087(3) 0.1569(14) 0.2695(13)
F10? F 0.259(2) 0.1311(11) 0.3353(11)
F11? F 0.129(3) 0.1105(12) 0.4175(12)
F12? F -0.051(3) 0.1313(17) 0.3517(15)
P5? P 0.6445(9) 0.1000(5) 0.0525(4)
F31? F 0.6399(14) 0.1738(9) 0.0515(10)
F32? F 0.6535(12) 0.0243(6) 0.0526(6)
F33? F 0.6793(10) 0.0969(6) -0.0204(6)
F34? F 0.4913(12) 0.0937(6) 0.0371(6)
F35? F 0.6361(16) 0.0821(8) 0.1229(8)
loop_
_geom_bond_atom_site_label_1
_geom_bond_atom_site_label_2
_geom_bond_site_symmetry_1
_geom_bond_site_symmetry_2
Cu1 O1 1_555 1_555
Cu2 O3 1_555 1_555
O1 C5 1_555 1_555
O2 Cu1 1_555 1_555
O3 C17 1_555 1_555
O4 Cu2 1_555 1_555
N1 Cu1 1_555 1_555
N2 C2 1_555 1_555
N3 C5 1_555 1_555
N4 Cu1 1_555 1_555
N5 C8 1_555 1_555
N6 C11 1_555 1_555
N7 Cu2 1_555 1_555
N8 Cu1 1_555 1_555
N9 C17 1_555 1_555
N10 Cu2 1_555 1_555
N11 C20 1_555 1_555
N12 C23 1_555 1_555
C1 N1 1_555 1_555
C2 C1 1_555 1_555
C3 N2 1_555 1_555
C4 N1 1_555 1_555
C5 C1 1_555 1_555
C6 N3 1_555 1_555
C7 N4 1_555 1_555
C8 C7 1_555 1_555
C9 N5 1_555 1_555
C10 N4 1_555 1_555
C11 O2 1_555 1_555
C12 N6 1_555 1_555
C13 N7 1_555 1_555
C14 N8 1_555 1_555
C15 N8 1_555 1_555
C16 N7 1_555 1_555
C17 C13 1_555 1_555
C18 N9 1_555 1_555
C19 N10 1_555 1_555
C20 C19 1_555 1_555
C21 N11 1_555 1_555
C22 N10 1_555 1_555
C23 O4 1_555 1_555
C24 N12 1_555 1_555
H1 N3 1_555 1_555
H2 N6 1_555 1_555
H3 N9 1_555 1_555
H4 N12 1_555 1_555
H5 C2 1_555 1_555
H6 C3 1_555 1_555
H7 C4 1_555 1_555
H8 C6 1_555 1_555
H9 C6 1_555 1_555
H10 C6 1_555 1_555
H11 C8 1_555 1_555
H12 C9 1_555 1_555
H13 C10 1_555 1_555
H14 C12 1_555 1_555
H15 C12 1_555 1_555
H16 C12 1_555 1_555
H17 C14 1_555 1_555
H18 C15 1_555 1_555
H19 C16 1_555 1_555
H20 C18 1_555 1_555
H21 C18 1_555 1_555
H22 C18 1_555 1_555
H23 C20 1_555 1_555
H24 C21 1_555 1_555
H25 C22 1_555 1_555
H26 C24 1_555 1_555
H27 C24 1_555 1_555
H28 C24 1_555 1_555
P1 F1 1_555 1_555
F2 P1 1_555 1_555
F3 P1 1_555 1_555
F4 P1 1_555 1_555
F5 P1 1_555 1_555
F6 P1 1_555 1_555
P2 F13 1_555 1_555
F14 P2 1_555 1_555
F15 P2 1_555 1_555
F16 P2 1_555 1_555
F17 P2 1_555 1_555
F18 P2 1_555 1_555
P3 F19 1_555 1_555
F20 P3 1_555 1_555
F21 P3 1_555 1_555
F22 P3 1_555 1_555
F23 P3 1_555 1_555
F24 P3 1_555 1_555
P4 F25 1_555 1_555
F26 P4 1_555 1_555
F27 P4 1_555 1_555
F28 P4 1_555 1_555
F29 P4 1_555 1_555
F30 P4 1_555 1_555
Cu1C N11 1_555 1_555
Cu2_2 N5 1_555 1_555
Cu2C N2 1_555 1_555
N2C Cu2 1_555 1_555
N5_2 Cu2 1_555 1_555
N11C Cu1 1_555 1_555
C3 C4 1_555 1_555
C7 C11 1_555 1_555
C9 C10 1_555 1_555
C13 C14 1_555 1_555
C15 C16 1_555 1_555
C19 C23 1_555 1_555
C21 C22 1_555 1_555

#END
