
#######################################################################
#
#                 Cambridge Crystallographic Data Centre
#                                CCDC 
#
#######################################################################
#
# If this CIF has been generated from an entry in the Cambridge 
# Structural Database, then it will include bibliographic, chemical, 
# crystal, experimental, refinement or atomic coordinate data resulting 
# from the CCDC's data processing and validation procedures.
#
#######################################################################

data_VONREV
_symmetry_cell_setting           monoclinic
_symmetry_space_group_name_H-M   'P 21/n'
_symmetry_Int_Tables_number      14
_space_group_name_Hall           '-P 2yn'
loop_
_symmetry_equiv_pos_site_id
_symmetry_equiv_pos_as_xyz
1 x,y,z
2 1/2-x,1/2+y,1/2-z
3 -x,-y,-z
4 1/2+x,1/2-y,1/2+z
_cell_length_a                   9.017(2)
_cell_length_b                   14.09(2)
_cell_length_c                   13.660(3)
_cell_angle_alpha                90
_cell_angle_beta                 97.80(2)
_cell_angle_gamma                90
_cell_volume                     1719.44
loop_
_atom_site_label
_atom_site_type_symbol
_atom_site_fract_x
_atom_site_fract_y
_atom_site_fract_z
Cu1 Cu 0.17409(11) -0.30596(7) 0.27844(7)
Br1 Br 0.35078(11) -0.34128(7) 0.16381(7)
S1 S 0.1002(2) -0.1439(1) 0.2217(1)
N1 N 0.2128(7) -0.1707(4) 0.4497(4)
N2 N 0.2781(6) -0.2495(4) 0.4147(4)
C1 C 0.4214(8) -0.2437(6) 0.4556(5)
C2 C 0.4472(9) -0.1622(6) 0.5141(6)
C3 C 0.3116(9) -0.1175(6) 0.5092(5)
C4 C 0.5277(8) -0.3217(6) 0.4385(5)
C5 C 0.2699(9) -0.0258(6) 0.5546(6)
C6 C 0.0535(7) -0.1557(5) 0.4197(5)
C7 C 0.0203(8) -0.0949(5) 0.3256(5)
N3 N 0.4556(6) 0.0117(4) 0.1559(4)
N4 N 0.4862(6) 0.0990(4) 0.2007(4)
C8 C 0.6347(8) 0.1089(5) 0.2028(5)
C9 C 0.6960(8) 0.0314(5) 0.1602(5)
C10 C 0.5810(8) -0.0306(5) 0.1309(4)
C11 C 0.7109(8) 0.1967(5) 0.2477(6)
C12 C 0.5776(8) -0.1250(5) 0.0799(5)
C13 C 0.3032(7) -0.0274(5) 0.1475(5)
C14 C 0.2859(7) -0.0876(5) 0.2375(5)
H1 H 0.5398(9) -0.1419(6) 0.5496(6)
H2 H 0.7987(8) 0.0228(5) 0.1535(5)
H3 H 0.6110(8) -0.2970(6) 0.4108(5)
H4 H 0.4766(8) -0.3670(6) 0.3945(5)
H5 H 0.5618(8) -0.3517(6) 0.4998(5)
H6 H 0.2909(9) -0.0308(6) 0.6245(6)
H7 H 0.1658(9) -0.0152(6) 0.5362(6)
H8 H 0.3246(9) 0.0261(6) 0.5327(6)
H9 H 0.7835(8) 0.1795(5) 0.3019(6)
H10 H 0.6375(8) 0.2367(5) 0.2703(6)
H11 H 0.7583(8) 0.2298(5) 0.1998(6)
H12 H 0.6120(8) -0.1183(5) 0.0175(5)
H13 H 0.4773(8) -0.1475(5) 0.0705(5)
H14 H 0.6394(8) -0.1693(5) 0.1191(5)
H15 H 0.0067(7) -0.2160(5) 0.4074(5)
H16 H 0.0125(7) -0.1249(5) 0.4720(5)
H17 H -0.0848(8) -0.0891(5) 0.3078(5)
H18 H 0.0614(8) -0.0331(5) 0.3397(5)
H19 H 0.2330(7) 0.0235(5) 0.1437(5)
H20 H 0.2844(7) -0.0664(5) 0.0903(5)
H21 H 0.3615(7) -0.1353(5) 0.2442(5)
H22 H 0.2965(7) -0.0477(5) 0.2942(5)
Cu1A Cu 0.32591(11) 0.19404(7) 0.22156(7)
N4A N 0.0138(6) -0.4010(4) 0.2993(4)
loop_
_geom_bond_atom_site_label_1
_geom_bond_atom_site_label_2
_geom_bond_site_symmetry_1
_geom_bond_site_symmetry_2
Cu1 Br1 1_555 1_555
S1 Cu1 1_555 1_555
N1 N2 1_555 1_555
N2 Cu1 1_555 1_555
C1 N2 1_555 1_555
C2 C1 1_555 1_555
C3 N1 1_555 1_555
C4 C1 1_555 1_555
C5 C3 1_555 1_555
C6 N1 1_555 1_555
C7 S1 1_555 1_555
N3 N4 1_555 1_555
N4 C8 1_555 1_555
C8 C9 1_555 1_555
C9 C10 1_555 1_555
C10 N3 1_555 1_555
C11 C8 1_555 1_555
C12 C10 1_555 1_555
C13 N3 1_555 1_555
C14 S1 1_555 1_555
H1 C2 1_555 1_555
H2 C9 1_555 1_555
H3 C4 1_555 1_555
H4 C4 1_555 1_555
H5 C4 1_555 1_555
H6 C5 1_555 1_555
H7 C5 1_555 1_555
H8 C5 1_555 1_555
H9 C11 1_555 1_555
H10 C11 1_555 1_555
H11 C11 1_555 1_555
H12 C12 1_555 1_555
H13 C12 1_555 1_555
H14 C12 1_555 1_555
H15 C6 1_555 1_555
H16 C6 1_555 1_555
H17 C7 1_555 1_555
H18 C7 1_555 1_555
H19 C13 1_555 1_555
H20 C13 1_555 1_555
H21 C14 1_555 1_555
H22 C14 1_555 1_555
Cu1A N4 1_555 1_555
N4A Cu1 1_555 1_555
C2 C3 1_555 1_555
C6 C7 1_555 1_555
C13 C14 1_555 1_555

#END
