
#######################################################################
#
#                 Cambridge Crystallographic Data Centre
#                                CCDC 
#
#######################################################################
#
# If this CIF has been generated from an entry in the Cambridge 
# Structural Database, then it will include bibliographic, chemical, 
# crystal, experimental, refinement or atomic coordinate data resulting 
# from the CCDC's data processing and validation procedures.
#
#######################################################################

data_VONROG
_symmetry_cell_setting           monoclinic
_symmetry_space_group_name_H-M   'P 21/c'
_symmetry_Int_Tables_number      14
_space_group_name_Hall           '-P 2ybc'
loop_
_symmetry_equiv_pos_site_id
_symmetry_equiv_pos_as_xyz
1 x,y,z
2 -x,1/2+y,1/2-z
3 -x,-y,-z
4 x,1/2-y,1/2+z
_cell_length_a                   8.9330(2)
_cell_length_b                   18.2790(4)
_cell_length_c                   19.9570(4)
_cell_angle_alpha                90
_cell_angle_beta                 111.1560(12)
_cell_angle_gamma                90
_cell_volume                     3039.07
loop_
_atom_site_label
_atom_site_type_symbol
_atom_site_fract_x
_atom_site_fract_y
_atom_site_fract_z
Cu1 Cu 0.39559(4) 0.10538(2) 0.986777(18)
F1 F 0.0026(2) -0.19426(11) 0.81202(10)
O5 O 0.5348(3) 0.14186(13) 0.93982(11)
O6 O 0.6045(3) 0.16824(13) 0.84813(12)
O7 O 0.3281(3) 0.02285(12) 0.92210(11)
N1 N 0.3286(3) 0.01125(15) 0.71693(13)
N2 N -0.0261(3) -0.20051(15) 0.67079(14)
N3 N -0.1789(3) -0.31715(14) 0.57003(14)
H9 H -0.1114 -0.3306 0.545
N4 N 0.3038(3) 0.06037(14) 1.05562(13)
N5 N 0.4925(3) 0.17477(14) 1.06962(13)
C1 C 0.5277(4) 0.13050(17) 0.87549(16)
C2 C 0.4232(4) 0.06953(17) 0.83251(16)
C3 C 0.3358(4) 0.02038(16) 0.85929(15)
C4 C 0.2491(4) -0.03736(17) 0.81124(15)
C5 C 0.1659(4) -0.09089(17) 0.83442(17)
H10 H 0.1672 -0.0942 0.8841
C6 C 0.0836(4) -0.14352(17) 0.78847(16)
C7 C 0.0730(4) -0.14779(18) 0.71608(17)
C8 C 0.1558(4) -0.09565(17) 0.69354(17)
H11 H 0.1425 -0.0935 0.6429
C9 C 0.2440(4) -0.04051(17) 0.73995(15)
C10 C 0.4161(4) 0.06190(17) 0.76319(16)
H12 H 0.4774 0.097 0.7421
C11 C 0.3342(5) 0.0076(2) 0.64499(18)
H13 H 0.404(4) -0.0283(19) 0.6408(16)
C12 C 0.1844(5) 0.0224(2) 0.58108(19)
H14 H 0.1859 -0.0018 0.5393
H15 H 0.0736 0.0331 0.5901
C13 C 0.3212(6) 0.0769(2) 0.6034(2)
H16 H 0.3844 0.0831 0.5852
H17 H 0.2901 0.1248 0.6188
C14 C -0.0739(5) -0.1880(2) 0.59280(17)
H18 H -0.1034 -0.1351 0.5807
H19 H 0.0332 -0.1981 0.5812
C15 C -0.2134(4) -0.23831(19) 0.55314(18)
H20 H -0.2466 -0.23 0.5013
H21 H -0.3122 -0.2261 0.5608
C16 C -0.1197(4) -0.32719(18) 0.64841(17)
H22 H -0.2133 -0.3178 0.6685
H23 H -0.0793 -0.38 0.6639
C17 C 0.0206(4) -0.27743(19) 0.68893(18)
H24 H 0.038 -0.2889 0.7412
H25 H 0.1089 -0.2895 0.6697
C18 C 0.2096(4) 0.00162(18) 1.04714(17)
H26 H 0.1821 -0.0228 0.998
C19 C 0.1531(4) -0.0206(2) 1.10039(19)
H27 H 0.0855 -0.0638 1.0888
C20 C 0.1908(4) 0.0168(2) 1.16313(19)
H28 H 0.1722 0.0029 1.2076
C21 C 0.2888(4) 0.08000(19) 1.17346(17)
C22 C 0.3417(4) 0.09884(17) 1.11788(16)
C23 C 0.3357(5) 0.1250(2) 1.23642(18)
H29 H 0.308 0.1087 1.2811
C24 C 0.4298(5) 0.1844(2) 1.24252(19)
H30 H 0.4549 0.2173 1.2815
C25 C 0.4859(4) 0.20440(18) 1.18687(16)
C26 C 0.4430(4) 0.16126(17) 1.12484(15)
C27 C 0.5848(4) 0.26537(19) 1.18934(18)
H31 H 0.6132 0.3011 1.2317
C28 C 0.6348(4) 0.27924(19) 1.13320(18)
H32 H 0.7012 0.323 1.1297
C29 C 0.5856(4) 0.23229(18) 1.07357(17)
H33 H 0.6094 0.2493 1.0298
Cu1A Cu -0.39559(4) -0.39462(2) 0.513223(18)
N3A N 0.1789(3) 0.18285(14) 0.92997(14)
H9A H 0.1114 0.1694 0.955
O1 O 0.0728(4) -0.15979(18) 0.98823(18)
H1 H 0.157 -0.1753 1.0162
H2 H 0.0249 -0.1944 0.96
O2 O 0.6966(4) 0.30640(19) 0.92629(17)
H3 H 0.748 0.344 0.9348
H4 H 0.6092 0.313 0.9307
O3 O 0.4881(5) 0.4035(2) 0.9581(2)
H5 H 0.5661 0.4229 0.9905
H6 H 0.4274 0.4377 0.9367
O4 O 0.0409(6) -0.3065(2) 0.9396(2)
H7 H 0.0912 -0.344 0.9325
H8 H -0.0474 -0.302 0.9019
O8 O 0.7692(7) 0.0531(3) 0.5754(2)
O9 O 0.9140(7) 0.0764(3) 0.6818(3)
O10 O 0.7473(8) -0.0104(4) 0.6552(3)
N6 N 0.8101(6) 0.0393(3) 0.6385(3)
loop_
_geom_bond_atom_site_label_1
_geom_bond_atom_site_label_2
_geom_bond_site_symmetry_1
_geom_bond_site_symmetry_2
Cu1 O5 1_555 1_555
F1 C6 1_555 1_555
O1 H1 1_555 1_555
H2 O1 1_555 1_555
O2 H3 1_555 1_555
H4 O2 1_555 1_555
O3 H5 1_555 1_555
H6 O3 1_555 1_555
O4 H7 1_555 1_555
H8 O4 1_555 1_555
O5 C1 1_555 1_555
O6 C1 1_555 1_555
O7 Cu1 1_555 1_555
O8 N6 1_555 1_555
O9 N6 1_555 1_555
O10 N6 1_555 1_555
N1 C9 1_555 1_555
N2 C7 1_555 1_555
N3 H9 1_555 1_555
N4 Cu1 1_555 1_555
N5 Cu1 1_555 1_555
C1 C2 1_555 1_555
C2 C3 1_555 1_555
C3 O7 1_555 1_555
C4 C3 1_555 1_555
C5 C4 1_555 1_555
H10 C5 1_555 1_555
C6 C5 1_555 1_555
C7 C6 1_555 1_555
C8 C7 1_555 1_555
H11 C8 1_555 1_555
C9 C4 1_555 1_555
C10 N1 1_555 1_555
H12 C10 1_555 1_555
C11 N1 1_555 1_555
H13 C11 1_555 1_555
C12 C11 1_555 1_555
H14 C12 1_555 1_555
H15 C12 1_555 1_555
C13 C11 1_555 1_555
H16 C13 1_555 1_555
H17 C13 1_555 1_555
C14 N2 1_555 1_555
H18 C14 1_555 1_555
H19 C14 1_555 1_555
C15 N3 1_555 1_555
H20 C15 1_555 1_555
H21 C15 1_555 1_555
C16 N3 1_555 1_555
H22 C16 1_555 1_555
H23 C16 1_555 1_555
C17 N2 1_555 1_555
H24 C17 1_555 1_555
H25 C17 1_555 1_555
C18 N4 1_555 1_555
H26 C18 1_555 1_555
C19 C18 1_555 1_555
H27 C19 1_555 1_555
C20 C19 1_555 1_555
H28 C20 1_555 1_555
C21 C20 1_555 1_555
C22 N4 1_555 1_555
C23 C21 1_555 1_555
H29 C23 1_555 1_555
C24 C23 1_555 1_555
H30 C24 1_555 1_555
C25 C24 1_555 1_555
C26 N5 1_555 1_555
C27 C25 1_555 1_555
H31 C27 1_555 1_555
C28 C27 1_555 1_555
H32 C28 1_555 1_555
C29 N5 1_555 1_555
H33 C29 1_555 1_555
Cu1A N3 1_555 1_555
N3A Cu1 1_555 1_555
H9A N3A 1_555 1_555
C2 C10 1_555 1_555
C8 C9 1_555 1_555
C12 C13 1_555 1_555
C14 C15 1_555 1_555
C16 C17 1_555 1_555
C21 C22 1_555 1_555
C22 C26 1_555 1_555
C25 C26 1_555 1_555
C28 C29 1_555 1_555

#END
