
#######################################################################
#
#                 Cambridge Crystallographic Data Centre
#                                CCDC 
#
#######################################################################
#
# If this CIF has been generated from an entry in the Cambridge 
# Structural Database, then it will include bibliographic, chemical, 
# crystal, experimental, refinement or atomic coordinate data resulting 
# from the CCDC's data processing and validation procedures.
#
#######################################################################

data_VONSUO
_symmetry_cell_setting           triclinic
_symmetry_space_group_name_H-M   'P -1'
_symmetry_Int_Tables_number      2
_space_group_name_Hall           '-P 1'
loop_
_symmetry_equiv_pos_site_id
_symmetry_equiv_pos_as_xyz
1 x,y,z
2 -x,-y,-z
_cell_length_a                   7.7386(8)
_cell_length_b                   8.5225(8)
_cell_length_c                   13.6748(15)
_cell_angle_alpha                85.096(5)
_cell_angle_beta                 85.617(5)
_cell_angle_gamma                63.198(4)
_cell_volume                     801.32
loop_
_atom_site_label
_atom_site_type_symbol
_atom_site_fract_x
_atom_site_fract_y
_atom_site_fract_z
C1 C -0.0531(7) 0.3277(6) 0.7050(3)
H1 H -0.1270 0.4152 0.7522
H2 H -0.0978 0.2376 0.7119
C2 C 0.1593(7) 0.2455(6) 0.7272(3)
H3 H 0.2211 0.1262 0.7056
H4 H 0.2189 0.3111 0.6893
C3 C 0.0865(7) 0.9551(6) 0.5211(4)
C4 C -0.0926(8) 0.7398(5) 0.7422(3)
C5 C 0.1155(8) 0.1336(6) 0.8939(3)
H5 H 0.1948 0.0094 0.8840
H6 H -0.0145 0.1654 0.8741
C6 C 0.0843(9) 0.8487(7) 0.6137(4)
H7 H 0.1989 0.7830 0.6459
C7 C 0.1097(8) 0.1674(6) 1.0016(3)
H8 H 0.0233 0.1287 1.0394
H9 H 0.2381 0.1035 1.0274
C8 C -0.0783(9) 0.8465(6) 0.6506(3)
C9 C -0.0896(8) 0.4140(7) 0.6021(4)
H10 H -0.0427 0.5026 0.5950
H11 H -0.0167 0.3260 0.5551
C10 C 0.4099(7) 0.1605(6) 0.8449(4)
H12 H 0.4744 0.0673 0.7998
H13 H 0.4378 0.1079 0.9112
C11 C -0.2597(8) 1.0473(8) 0.5131(4)
H14 H -0.3732 1.1119 0.4797
C12 C -0.2571(10) 0.9500(7) 0.5988(4)
H15 H -0.3718 0.9500 0.6245
C13 C 0.4902(8) 0.2912(8) 0.8268(4)
H16 H 0.6300 0.2322 0.8308
H17 H 0.4588 0.3488 0.7618
C14 C -0.3013(10) 0.4992(9) 0.5789(5)
H18 H -0.3167 0.5522 0.5133
H19 H -0.3739 0.5881 0.6245
H20 H -0.3478 0.4116 0.5842
N1 N 0.1976(5) 0.2401(4) 0.8328(3)
O1 O 0.0693(5) 0.6286(4) 0.7788(2)
O2 O 0.0437(6) 0.3472(4) 1.0078(2)
O3 O -0.2519(5) 0.7633(5) 0.7731(3)
O4 O 0.4062(6) 0.4171(6) 0.8996(3)
Cu1 Cu 0.07203(7) 0.48154(6) 0.89446(3)
H21 H 0.43(2) 0.503(13) 0.894(10)
C3A C -0.0865(7) 1.0449(6) 0.4789(4)
C4A C 0.0926(8) 1.2602(5) 0.2578(3)
C6A C -0.0843(9) 1.1513(7) 0.3863(4)
H7A H -0.1989 1.2170 0.3541
C8A C 0.0783(9) 1.1535(6) 0.3494(3)
C11A C 0.2597(8) 0.9527(8) 0.4869(4)
H14A H 0.3732 0.8881 0.5203
C12A C 0.2571(10) 1.0500(7) 0.4012(4)
H15A H 0.3718 1.0500 0.3755
O1A O -0.0693(5) 1.3714(4) 0.2212(2)
O3A O 0.2519(5) 1.2367(5) 0.2269(3)
C1A C 0.0531(7) 0.6723(6) 1.2950(3)
H1A H 0.1270 0.5848 1.2478
H2A H 0.0978 0.7624 1.2881
C2A C -0.1593(7) 0.7545(6) 1.2728(3)
H3A H -0.2211 0.8738 1.2944
H4A H -0.2189 0.6889 1.3107
C5A C -0.1155(8) 0.8664(6) 1.1061(3)
H5A H -0.1948 0.9906 1.1160
H6A H 0.0145 0.8346 1.1259
C7A C -0.1097(8) 0.8326(6) 0.9984(3)
H8A H -0.0233 0.8713 0.9606
H9A H -0.2381 0.8965 0.9726
C9A C 0.0896(8) 0.5860(7) 1.3979(4)
H10A H 0.0427 0.4974 1.4050
H11A H 0.0167 0.6740 1.4449
C10A C -0.4099(7) 0.8395(6) 1.1551(4)
H12A H -0.4744 0.9327 1.2002
H13A H -0.4378 0.8921 1.0888
C13A C -0.4902(8) 0.7088(8) 1.1732(4)
H16A H -0.6300 0.7678 1.1692
H17A H -0.4588 0.6512 1.2382
C14A C 0.3013(10) 0.5008(9) 1.4211(5)
H18A H 0.3167 0.4478 1.4867
H19A H 0.3739 0.4119 1.3755
H20A H 0.3478 0.5884 1.4158
N1A N -0.1976(5) 0.7599(4) 1.1672(3)
O2A O -0.0437(6) 0.6528(4) 0.9922(2)
O4A O -0.4062(6) 0.5829(6) 1.1004(3)
Cu1A Cu -0.07203(7) 0.51846(6) 1.10554(3)
H21A H -0.43(2) 0.497(13) 1.106(10)
O1A_2 O -0.0693(5) 0.3714(4) 1.2212(2)
Cu1A_2 Cu -0.07203(7) 1.51846(6) 0.10554(3)
O5 O 0.5074(8) 0.6816(7) 0.9019(3)
H22 H 0.5822 0.7206 0.8707
H23 H 0.5335 0.6720 0.9630
loop_
_geom_bond_atom_site_label_1
_geom_bond_atom_site_label_2
_geom_bond_site_symmetry_1
_geom_bond_site_symmetry_2
C1 H1 1_555 1_555
H2 C1 1_555 1_555
C2 C1 1_555 1_555
H3 C2 1_555 1_555
H4 C2 1_555 1_555
C3 C6 1_555 1_555
C4 C8 1_555 1_555
C5 H5 1_555 1_555
H6 C5 1_555 1_555
C6 H7 1_555 1_555
C7 C5 1_555 1_555
H8 C7 1_555 1_555
H9 C7 1_555 1_555
C8 C6 1_555 1_555
C9 C1 1_555 1_555
H10 C9 1_555 1_555
H11 C9 1_555 1_555
C10 H12 1_555 1_555
H13 C10 1_555 1_555
C11 H14 1_555 1_555
C12 C8 1_555 1_555
H15 C12 1_555 1_555
C13 C10 1_555 1_555
H16 C13 1_555 1_555
H17 C13 1_555 1_555
C14 C9 1_555 1_555
H18 C14 1_555 1_555
H19 C14 1_555 1_555
H20 C14 1_555 1_555
N1 C2 1_555 1_555
O1 C4 1_555 1_555
O2 C7 1_555 1_555
O3 C4 1_555 1_555
O4 C13 1_555 1_555
Cu1 N1 1_555 1_555
H21 O4 1_555 1_555
O5 H22 1_555 1_555
H23 O5 1_555 1_555
C3A C3 1_555 1_555
C4A C8A 1_555 1_555
C6A C3A 1_555 1_555
H7A C6A 1_555 1_555
C8A C6A 1_555 1_555
C11A C3 1_555 1_555
H14A C11A 1_555 1_555
C12A C8A 1_555 1_555
H15A C12A 1_555 1_555
O1A C4A 1_555 1_555
O3A C4A 1_555 1_555
C1A H1A 1_555 1_555
H2A C1A 1_555 1_555
C2A C1A 1_555 1_555
H3A C2A 1_555 1_555
H4A C2A 1_555 1_555
C5A H5A 1_555 1_555
H6A C5A 1_555 1_555
C7A C5A 1_555 1_555
H8A C7A 1_555 1_555
H9A C7A 1_555 1_555
C9A C1A 1_555 1_555
H10A C9A 1_555 1_555
H11A C9A 1_555 1_555
C10A H12A 1_555 1_555
H13A C10A 1_555 1_555
C13A C10A 1_555 1_555
H16A C13A 1_555 1_555
H17A C13A 1_555 1_555
C14A C9A 1_555 1_555
H18A C14A 1_555 1_555
H19A C14A 1_555 1_555
H20A C14A 1_555 1_555
N1A C2A 1_555 1_555
O2A Cu1 1_555 1_555
O4A C13A 1_555 1_555
Cu1A O2 1_555 1_555
H21A O4A 1_555 1_555
O1A_2 Cu1A 1_555 1_555
Cu1A_2 O1A 1_555 1_555
C5 N1 1_555 1_555
C10 N1 1_555 1_555
C11 C12 1_555 1_555
C11 C3A 1_555 1_555
O1 Cu1 1_555 1_555
O2 Cu1 1_555 1_555
O4 Cu1 1_555 1_555
C11A C12A 1_555 1_555
C5A N1A 1_555 1_555
C7A O2A 1_555 1_555
C10A N1A 1_555 1_555
N1A Cu1A 1_555 1_555
O2A Cu1A 1_555 1_555
O4A Cu1A 1_555 1_555

#END
