
#######################################################################
#
#                 Cambridge Crystallographic Data Centre
#                                CCDC 
#
#######################################################################
#
# If this CIF has been generated from an entry in the Cambridge 
# Structural Database, then it will include bibliographic, chemical, 
# crystal, experimental, refinement or atomic coordinate data resulting 
# from the CCDC's data processing and validation procedures.
#
#######################################################################

data_VONWUQ
_symmetry_cell_setting           orthorhombic
_symmetry_space_group_name_H-M   'P c a b'
_symmetry_Int_Tables_number      61
_space_group_name_Hall           '-P 2bc 2ac'
loop_
_symmetry_equiv_pos_site_id
_symmetry_equiv_pos_as_xyz
1 x,y,z
2 x,1/2+y,1/2-z
3 1/2-x,y,1/2+z
4 1/2+x,1/2-y,z
5 -x,-y,-z
6 -x,1/2-y,1/2+z
7 1/2+x,-y,1/2-z
8 1/2-x,1/2+y,-z
_cell_length_a                   8.2586(8)
_cell_length_b                   15.6274(14)
_cell_length_c                   29.355(3)
_cell_angle_alpha                90
_cell_angle_beta                 90
_cell_angle_gamma                90
_cell_volume                     3788.57
loop_
_atom_site_label
_atom_site_type_symbol
_atom_site_fract_x
_atom_site_fract_y
_atom_site_fract_z
Cu1 Cu 0.08855(3) 0.00156(2) 0.450445(9)
Cu2 Cu 0.29746(3) 0.00194(2) 0.343590(10)
O1 O 0.1800(2) 0.11303(12) 0.46139(6)
O2 O -0.0050(2) 0.11154(12) 0.56345(6)
O3 O 0.02995(19) 0.03278(13) 0.38696(6)
O4 O 0.1577(2) -0.04081(12) 0.51084(6)
O5 O 0.34522(19) -0.03512(12) 0.40900(6)
O6 O 0.2184(2) 0.04772(14) 0.28444(6)
N1 N 0.2189(3) -0.11413(15) 0.32634(7)
N2 N 0.3911(3) 0.11864(16) 0.35360(7)
O7 O 0.1086(3) 0.29953(14) 0.57956(7)
O8 O -0.4489(2) -0.03773(15) 0.31773(6)
C1 C 0.0807(3) 0.16137(18) 0.53938(9)
O9 O 0.2928(3) 0.29910(13) 0.47851(7)
C2 C 0.1602(3) 0.16182(17) 0.49564(8)
C3 C -0.1054(3) 0.01309(17) 0.36884(9)
C4 C 0.1322(3) 0.24927(18) 0.54788(9)
C5 C 0.2148(3) 0.24887(18) 0.50261(9)
C6 C 0.1030(4) -0.2418(2) 0.32988(11)
H1 H 0.0421 -0.2878 0.3404
C7 C -0.3219(3) -0.01869(18) 0.33742(9)
O10 O -0.3397(2) -0.00759(15) 0.42280(6)
C8 C -0.2690(3) -0.00455(19) 0.38505(9)
C9 C 0.1893(4) -0.2391(2) 0.28993(12)
H2 H 0.1986 -0.2819 0.2681
O11 O -0.0902(2) 0.00270(17) 0.28378(6)
C10 C -0.1561(3) 0.0000(2) 0.32218(9)
C11 C 0.5186(4) 0.2421(2) 0.34040(12)
H3 H 0.5788 0.2846 0.3261
C12 C 0.4532(4) 0.2440(2) 0.38284(12)
H4 H 0.4591 0.2894 0.4032
N3 N 0.1221(3) -0.16725(16) 0.35076(8)
N4 N 0.3792(3) 0.16954(17) 0.39018(8)
C13 C 0.2591(4) -0.1587(2) 0.28946(10)
H5 H 0.3256 -0.1384 0.2663
C14 C 0.4758(4) 0.1632(2) 0.32322(11)
H6 H 0.5025 0.1437 0.2943
H7 H 0.4432 -0.0255 0.4137
H8 H 0.2269 -0.0208 0.5293
H9 H 0.3061 0.1564 0.4122
H10 H 0.1120 0.0410 0.2813
H11 H 0.1826 -0.0965 0.5134
H12 H 0.3490 -0.0940 0.4121
H13 H 0.0829 -0.1509 0.3791
H14 H 0.2776 0.0296 0.2599
O2D O 0.0050(2) -0.11154(12) 0.43655(6)
O4D O -0.1577(2) 0.04081(12) 0.48916(6)
O8_2 O 0.5511(2) -0.03773(15) 0.31773(6)
Cu1D Cu -0.08855(3) -0.00156(2) 0.549555(9)
Cu2_2 Cu -0.70254(3) 0.00194(2) 0.343590(10)
H8D H -0.2269 0.0208 0.4707
H11D H -0.1826 0.0965 0.4866
loop_
_geom_bond_atom_site_label_1
_geom_bond_atom_site_label_2
_geom_bond_site_symmetry_1
_geom_bond_site_symmetry_2
Cu1 O1 1_555 1_555
Cu2 O3 1_555 1_555
O1 C2 1_555 1_555
O2 C1 1_555 1_555
O3 Cu1 1_555 1_555
O4 Cu1 1_555 1_555
O5 Cu1 1_555 1_555
O6 Cu2 1_555 1_555
N1 Cu2 1_555 1_555
N2 Cu2 1_555 1_555
O7 C4 1_555 1_555
O8 C7 1_555 1_555
C1 C2 1_555 1_555
O9 C5 1_555 1_555
C2 C5 1_555 1_555
C3 O3 1_555 1_555
C4 C1 1_555 1_555
C5 C4 1_555 1_555
C6 H1 1_555 1_555
C7 C8 1_555 1_555
O10 C8 1_555 1_555
C8 C3 1_555 1_555
C9 C6 1_555 1_555
H2 C9 1_555 1_555
O11 C10 1_555 1_555
C10 C3 1_555 1_555
C11 H3 1_555 1_555
C12 C11 1_555 1_555
H4 C12 1_555 1_555
N3 N1 1_555 1_555
N4 N2 1_555 1_555
C13 N1 1_555 1_555
H5 C13 1_555 1_555
C14 N2 1_555 1_555
H6 C14 1_555 1_555
H7 O5 1_555 1_555
H8 O4 1_555 1_555
H9 N4 1_555 1_555
H10 O6 1_555 1_555
H11 O4 1_555 1_555
H12 O5 1_555 1_555
H13 N3 1_555 1_555
H14 O6 1_555 1_555
O2D Cu1 1_555 1_555
O4D Cu1 1_555 1_555
O8_2 Cu2 1_555 1_555
Cu1D O2 1_555 1_555
Cu2_2 O8 1_555 1_555
H8D O4D 1_555 1_555
H11D O4D 1_555 1_555
Cu2 O5 1_555 1_555
O4 Cu1D 1_555 1_555
C6 N3 1_555 1_555
C7 C10 1_555 1_555
C9 C13 1_555 1_555
C11 C14 1_555 1_555
C12 N4 1_555 1_555
O4D Cu1D 1_555 1_555

#END
