
#######################################################################
#
#                 Cambridge Crystallographic Data Centre
#                                CCDC 
#
#######################################################################
#
# If this CIF has been generated from an entry in the Cambridge 
# Structural Database, then it will include bibliographic, chemical, 
# crystal, experimental, refinement or atomic coordinate data resulting 
# from the CCDC's data processing and validation procedures.
#
#######################################################################

data_VOPCAE
_symmetry_cell_setting           monoclinic
_symmetry_space_group_name_H-M   'P 21/n'
_symmetry_Int_Tables_number      14
_space_group_name_Hall           '-P 2yn'
loop_
_symmetry_equiv_pos_site_id
_symmetry_equiv_pos_as_xyz
1 x,y,z
2 1/2-x,1/2+y,1/2-z
3 -x,-y,-z
4 1/2+x,1/2-y,1/2+z
_cell_length_a                   7.474(8)
_cell_length_b                   17.453(2)
_cell_length_c                   7.541(7)
_cell_angle_alpha                90
_cell_angle_beta                 116.420(8)
_cell_angle_gamma                90
_cell_volume                     880.938
loop_
_atom_site_label
_atom_site_type_symbol
_atom_site_fract_x
_atom_site_fract_y
_atom_site_fract_z
S1 S 0.92819(5) -0.09926(2) 0.15703(5)
O1 O 1.0827(2) -0.09959(7) 0.0889(2)
O2 O 0.2627(2) 0.07184(7) 0.0013(2)
O3 O 0.9837(2) -0.05667(7) 0.3402(2)
C1 C 0.8917(2) -0.19489(9) 0.2059(2)
C2 C 0.9005(2) -0.2524(1) 0.0832(2)
C3 C 0.8660(2) -0.3272(1) 0.1189(2)
C4 C 0.8205(2) -0.34433(9) 0.2744(2)
C5 C 0.8178(2) -0.2868(1) 0.3999(2)
C6 C 0.8520(2) -0.21171(9) 0.3650(2)
N1 N 0.7751(2) -0.42143(8) 0.3049(2)
O5 O 0.5135(2) 0.06074(8) -0.2325(2)
H1 H 0.429(3) -0.259(1) -0.524(3)
H2 H 0.369(3) -0.132(1) -0.465(3)
H3 H 0.791(3) -0.299(1) 0.505(3)
H4 H 0.849(3) -0.174(1) 0.448(3)
H5 H 0.693(3) -0.422(1) 0.361(3)
H6 H 0.716(3) -0.444(1) 0.192(3)
H9 H 0.441(4) 0.061(2) -0.342(4)
H10 H 0.625(3) 0.067(1) -0.224(3)
Zn1 Zn 0.50000 0.00000 0.00000
O2B O 0.7373(2) -0.07184(7) -0.0013(2)
Zn1C Zn 1.00000 -0.50000 0.50000
Zn1A Zn 0.00000 -0.50000 -0.50000
O2A O 0.2373(2) -0.42816(7) -0.5013(2)
S1C S 0.42819(5) -0.40074(2) -0.34297(5)
O1C O 0.5827(2) -0.40041(7) -0.4111(2)
O3C O 0.4837(2) -0.44333(7) -0.1598(2)
C1C C 0.3917(2) -0.30511(9) -0.2941(2)
C2C C 0.4005(2) -0.2476(1) -0.4168(2)
C3C C 0.3660(2) -0.1728(1) -0.3811(2)
C4C C 0.3205(2) -0.15567(9) -0.2256(2)
C5C C 0.3178(2) -0.2132(1) -0.1001(2)
C6C C 0.3520(2) -0.28829(9) -0.1350(2)
H4C H 0.349(3) -0.326(1) -0.052(3)
H3C H 0.291(3) -0.201(1) 0.005(3)
N1C N 0.2751(2) -0.07857(8) -0.1951(2)
H5C H 0.193(3) -0.078(1) -0.139(3)
H6C H 0.216(3) -0.056(1) -0.308(3)
N1A N 0.7249(2) 0.07857(8) 0.1951(2)
O5B O 0.4865(2) -0.06074(8) 0.2325(2)
H9B H 0.559(4) -0.061(2) 0.342(4)
H10B H 0.375(3) -0.067(1) 0.224(3)
H2C H 0.869(3) -0.368(1) 0.035(3)
H1C H 0.929(3) -0.241(1) -0.024(3)
O4 O 0.2473(2) 0.0664(1) 0.3840(2)
H7 H 0.265(4) 0.068(2) 0.289(4)
H8 H 0.175(4) 0.033(2) 0.369(4)
loop_
_geom_bond_atom_site_label_1
_geom_bond_atom_site_label_2
_geom_bond_site_symmetry_1
_geom_bond_site_symmetry_2
S1 O1 1_555 1_555
O2 Zn1 1_555 1_555
O3 S1 1_555 1_555
C1 S1 1_555 1_555
C2 C1 1_555 1_555
C3 C2 1_555 1_555
C4 C3 1_555 1_555
C5 C4 1_555 1_555
C6 C1 1_555 1_555
N1 C4 1_555 1_555
O4 H7 1_555 1_555
O5 H9 1_555 1_555
H1 C2C 1_555 1_555
H2 C3C 1_555 1_555
H3 C5 1_555 1_555
H4 C6 1_555 1_555
H5 N1 1_555 1_555
H6 N1 1_555 1_555
H8 O4 1_555 1_555
H10 O5 1_555 1_555
Zn1 O5 1_555 1_555
O2B S1 1_555 1_555
Zn1C N1 1_555 1_555
Zn1A O2A 1_555 1_555
O2A S1C 1_555 1_555
S1C O1C 1_555 1_555
O3C S1C 1_555 1_555
C1C S1C 1_555 1_555
C2C C1C 1_555 1_555
C3C C2C 1_555 1_555
C4C C3C 1_555 1_555
C5C C4C 1_555 1_555
C6C C1C 1_555 1_555
H4C C6C 1_555 1_555
H3C C5C 1_555 1_555
N1C Zn1 1_555 1_555
H5C N1C 1_555 1_555
H6C N1C 1_555 1_555
N1A Zn1 1_555 1_555
O5B Zn1 1_555 1_555
H9B O5B 1_555 1_555
H10B O5B 1_555 1_555
H2C C3 1_555 1_555
H1C C2 1_555 1_555
C5 C6 1_555 1_555
Zn1 O2B 1_555 1_555
C4C N1C 1_555 1_555
C5C C6C 1_555 1_555

#END
