
#######################################################################
#
#                 Cambridge Crystallographic Data Centre
#                                CCDC 
#
#######################################################################
#
# If this CIF has been generated from an entry in the Cambridge 
# Structural Database, then it will include bibliographic, chemical, 
# crystal, experimental, refinement or atomic coordinate data resulting 
# from the CCDC's data processing and validation procedures.
#
#######################################################################

data_VOPCEK
_symmetry_cell_setting           monoclinic
_symmetry_space_group_name_H-M   'P 21/c'
_symmetry_Int_Tables_number      14
_space_group_name_Hall           '-P 2ybc'
loop_
_symmetry_equiv_pos_site_id
_symmetry_equiv_pos_as_xyz
1 x,y,z
2 -x,1/2+y,1/2-z
3 -x,-y,-z
4 x,1/2-y,1/2+z
_cell_length_a                   27.541(6)
_cell_length_b                   11.126(2)
_cell_length_c                   16.991(3)
_cell_angle_alpha                90
_cell_angle_beta                 99.01(3)
_cell_angle_gamma                90
_cell_volume                     5142.16
loop_
_atom_site_label
_atom_site_type_symbol
_atom_site_fract_x
_atom_site_fract_y
_atom_site_fract_z
Ce1 Ce 0.25216(3) 0.63210(10) 0.69040(5)
Ce2 Ce 0.25119(3) 0.67389(10) 0.97335(5)
C1 C 0.1769(6) 0.8750(19) 0.6251(11)
C2 C 0.1281(7) 0.914(2) 0.6398(10)
C3 C 0.1086(7) 0.872(2) 0.7046(11)
H1 H 0.1269 0.8204 0.7412
C4 C 0.0624(7) 0.905(2) 0.7145(11)
H2 H 0.0492 0.8761 0.7580
C5 C 0.0348(7) 0.981(2) 0.6613(10)
C6 C 0.0988(6) 0.9933(19) 0.5912(10)
H3 H 0.1119 1.0265 0.5489
C7 C -0.0168(7) 1.010(2) 0.6665(10)
C8 C -0.0473(6) 1.0606(19) 0.6047(10)
H4 H -0.0351 1.0835 0.5588
C9 C -0.0803(7) 0.996(2) 0.7385(10)
H5 H -0.0915 0.9749 0.7856
C10 C -0.1136(6) 1.0467(19) 0.6796(10)
C11 C -0.0949(6) 1.0773(19) 0.6100(10)
H6 H -0.1158 1.1097 0.5669
C12 C -0.1657(6) 1.0655(19) 0.6880(10)
C13 C 0.3290(6) 0.5879(16) 0.5481(10)
C14 C 0.3803(6) 0.5580(16) 0.5334(9)
C15 C 0.4100(6) 0.4737(16) 0.5777(9)
H7 H 0.3974 0.4327 0.6178
C16 C 0.4462(6) 0.5911(15) 0.4594(9)
H8 H 0.4586 0.6317 0.4190
C17 C 0.4743(6) 0.5108(15) 0.5055(9)
C18 C 0.3996(6) 0.6120(16) 0.4725(9)
H9 H 0.3800 0.6649 0.4390
C19 C 0.0254(7) 0.980(2) 0.9981(11)
C20 C 0.0366(7) 0.918(2) 0.9331(11)
H10 H 0.0119 0.8989 0.8912
C21 C 0.0841(7) 0.884(2) 0.9301(11)
H11 H 0.0922 0.8470 0.8847
C22 C 0.1202(7) 0.905(2) 0.9963(10)
C23 C 0.1061(7) 0.973(2) 1.0582(11)
H12 H 0.1303 0.9954 1.1001
C24 C 0.1706(7) 0.864(2) 0.9967(10)
C25 C 0.3381(6) 0.5872(17) 0.8583(9)
C26 C 0.3914(6) 0.5781(17) 0.8523(9)
C27 C 0.4282(6) 0.5967(17) 0.9160(10)
H13 H 0.4202 0.6198 0.9649
C28 C 0.4765(6) 0.5816(17) 0.9079(10)
H14 H 0.5011 0.5924 0.9515
C29 C 0.4884(6) 0.5505(18) 0.8353(10)
C30 C 0.4069(6) 0.5588(17) 0.7791(10)
H15 H 0.3832 0.5560 0.7336
C31 C 0.5389(6) 0.5141(18) 0.8273(10)
C32 C 0.5495(6) 0.4736(18) 0.7561(10)
H16 H 0.5275 0.4853 0.7093
C33 C 0.5934(6) 0.4150(18) 0.7549(10)
H17 H 0.6001 0.3805 0.7079
C34 C 0.6279(6) 0.4076(17) 0.8248(10)
C35 C 0.6161(6) 0.4645(17) 0.8924(10)
H18 H 0.6395 0.4665 0.9382
C36 C 0.6741(6) 0.3356(17) 0.8265(10)
C37 C 0.2492(9) 0.3609(18) 0.9790(12)
H19 H 0.2170 0.3664 0.9530
C38 C 0.2378(8) 0.1450(17) 0.9672(12)
H20 H 0.2050 0.1697 0.9461
H21 H 0.2372 0.0953 1.0133
H22 H 0.2514 0.1003 0.9275
C39 C 0.3183(8) 0.239(2) 1.0252(18)
H23 H 0.3205 0.2365 1.0821
H24 H 0.3368 0.3063 1.0105
H25 H 0.3313 0.1660 1.0069
C40 C 0.2621(9) 0.3344(18) 0.6976(12)
H26 H 0.2947 0.3479 0.7198
C41 C 0.1946(11) 0.195(3) 0.6637(19)
H27 H 0.1762 0.2687 0.6584
H28 H 0.1816 0.1429 0.7003
H29 H 0.1920 0.1566 0.6127
C42 C 0.2764(12) 0.111(3) 0.7146(19)
H30 H 0.2756 0.0625 0.6677
H31 H 0.2625 0.0663 0.7541
H32 H 0.3097 0.1317 0.7353
N1 N 0.0534(5) 1.0265(16) 0.5998(8)
N2 N -0.0332(7) 0.973(2) 0.7339(9)
N3 N 0.4562(5) 0.4480(15) 0.5655(8)
N4 N 0.0601(6) 1.007(3) 1.0609(10)
N5 N 0.4541(5) 0.5442(18) 0.7706(9)
N6 N 0.5726(5) 0.5162(15) 0.8940(8)
N7 N 0.2683(8) 0.2516(16) 0.9900(11)
N8 N 0.2473(8) 0.2219(16) 0.6944(11)
O1 O 0.2046(4) 0.8207(12) 0.6814(7)
O2 O 0.1880(4) 0.8959(12) 0.5560(7)
O3 O -0.1767(4) 1.0799(12) 0.7546(6)
O4 O -0.1968(4) 1.0628(12) 0.6241(6)
O5 O 0.3179(4) 0.5611(11) 0.6138(6)
O6 O 0.3009(4) 0.6424(11) 0.4917(6)
O7 O 0.1806(4) 0.8117(13) 0.9345(7)
O8 O 0.2012(4) 0.8672(13) 1.0590(7)
O9 O 0.3071(4) 0.5493(11) 0.8013(6)
O10 O 0.3271(4) 0.6260(11) 0.9216(6)
O11 O 0.7018(4) 0.3253(11) 0.8913(6)
O12 O 0.6816(4) 0.2861(11) 0.7631(7)
O13 O 0.2389(5) 0.4196(12) 0.6758(8)
O14 O 0.2702(5) 0.4549(11) 1.0001(8)
O15 O 0.2509(4) 0.7751(12) 0.8327(7)
H33 H 0.2791 0.8281 0.8377
H34 H 0.2219 0.8258 0.8228
C13B C 0.6710(6) 0.4121(16) 0.4519(10)
C14B C 0.6197(6) 0.4420(16) 0.4666(9)
C15B C 0.5900(6) 0.5263(16) 0.4223(9)
H7B H 0.6026 0.5673 0.3822
C16B C 0.5538(6) 0.4089(15) 0.5406(9)
H8B H 0.5414 0.3683 0.5810
C17B C 0.5257(6) 0.4892(15) 0.4945(9)
C18B C 0.6004(6) 0.3880(16) 0.5275(9)
H9B H 0.6200 0.3351 0.5610
N3B N 0.5438(5) 0.5520(15) 0.4345(8)
O5B O 0.6821(4) 0.4389(11) 0.3862(6)
O6B O 0.6991(4) 0.3576(11) 0.5083(6)
C19B C -0.0254(7) 1.020(2) 1.0019(11)
C20B C -0.0366(7) 1.082(2) 1.0669(11)
H10B H -0.0119 1.1011 1.1088
C21B C -0.0841(7) 1.116(2) 1.0699(11)
H11B H -0.0922 1.1530 1.1153
C22B C -0.1202(7) 1.095(2) 1.0037(10)
C23B C -0.1061(7) 1.027(2) 0.9418(11)
H12B H -0.1303 1.0046 0.8999
C24B C -0.1706(7) 1.136(2) 1.0033(10)
N4B N -0.0601(6) 0.993(3) 0.9391(10)
O7B O -0.1806(4) 1.1883(13) 1.0655(7)
O8B O -0.2012(4) 1.1328(13) 0.9410(7)
Ce1B Ce -0.25216(3) 1.36790(10) 1.30960(5)
Ce2B Ce -0.25119(3) 1.32611(10) 1.02665(5)
C1B C -0.1769(6) 1.1250(19) 1.3749(11)
C2B C -0.1281(7) 1.086(2) 1.3602(10)
C3B C -0.1086(7) 1.128(2) 1.2954(11)
H1B H -0.1269 1.1796 1.2588
C4B C -0.0624(7) 1.095(2) 1.2855(11)
H2B H -0.0492 1.1239 1.2420
C5B C -0.0348(7) 1.019(2) 1.3387(10)
C6B C -0.0988(6) 1.0067(19) 1.4088(10)
H3B H -0.1119 0.9735 1.4511
C7B C 0.0168(7) 0.990(2) 1.3335(10)
C8B C 0.0473(6) 0.9394(19) 1.3953(10)
H4B H 0.0351 0.9165 1.4412
C9B C 0.0803(7) 1.004(2) 1.2615(10)
H5B H 0.0915 1.0251 1.2144
C10B C 0.1136(6) 0.9533(19) 1.3204(10)
C11B C 0.0949(6) 0.9227(19) 1.3900(10)
H6B H 0.1158 0.8903 1.4331
C12B C 0.1657(6) 0.9345(19) 1.3120(10)
C25B C -0.3381(6) 1.4128(17) 1.1417(9)
C26B C -0.3914(6) 1.4219(17) 1.1477(9)
C27B C -0.4282(6) 1.4033(17) 1.0840(10)
H13B H -0.4202 1.3802 1.0351
C28B C -0.4765(6) 1.4184(17) 1.0921(10)
H14B H -0.5011 1.4076 1.0485
C29B C -0.4884(6) 1.4495(18) 1.1647(10)
C30B C -0.4069(6) 1.4412(17) 1.2209(10)
H15B H -0.3832 1.4440 1.2664
C31B C -0.5389(6) 1.4859(18) 1.1727(10)
C32B C -0.5495(6) 1.5264(18) 1.2439(10)
H16B H -0.5275 1.5147 1.2907
C33B C -0.5934(6) 1.5850(18) 1.2451(10)
H17B H -0.6001 1.6195 1.2921
C34B C -0.6279(6) 1.5924(17) 1.1752(10)
C35B C -0.6161(6) 1.5355(17) 1.1076(10)
H18B H -0.6395 1.5335 1.0618
C36B C -0.6741(6) 1.6644(17) 1.1735(10)
C37B C -0.2492(9) 1.6391(18) 1.0210(12)
H19B H -0.2170 1.6336 1.0470
C38B C -0.2378(8) 1.8550(17) 1.0328(12)
H20B H -0.2050 1.8303 1.0539
H21B H -0.2372 1.9047 0.9867
H22B H -0.2514 1.8997 1.0725
C39B C -0.3183(8) 1.761(2) 0.9748(18)
H23B H -0.3205 1.7635 0.9179
H24B H -0.3368 1.6937 0.9895
H25B H -0.3313 1.8340 0.9931
C40B C -0.2621(9) 1.6656(18) 1.3024(12)
H26B H -0.2947 1.6521 1.2802
C41B C -0.1946(11) 1.805(3) 1.3363(19)
H27B H -0.1762 1.7313 1.3416
H28B H -0.1816 1.8571 1.2997
H29B H -0.1920 1.8434 1.3873
C42B C -0.2764(12) 1.889(3) 1.2854(19)
H30B H -0.2756 1.9375 1.3323
H31B H -0.2625 1.9337 1.2459
H32B H -0.3097 1.8683 1.2647
N1B N -0.0534(5) 0.9735(16) 1.4002(8)
N2B N 0.0332(7) 1.027(2) 1.2661(9)
N5B N -0.4541(5) 1.4558(18) 1.2294(9)
N6B N -0.5726(5) 1.4838(15) 1.1060(8)
N7B N -0.2683(8) 1.7484(16) 1.0100(11)
N8B N -0.2473(8) 1.7781(16) 1.3056(11)
O1B O -0.2046(4) 1.1793(12) 1.3186(7)
O2B O -0.1880(4) 1.1041(12) 1.4440(7)
O3B O 0.1767(4) 0.9201(12) 1.2454(6)
O4B O 0.1968(4) 0.9372(12) 1.3759(6)
O9B O -0.3071(4) 1.4507(11) 1.1987(6)
O10B O -0.3271(4) 1.3740(11) 1.0784(6)
O11B O -0.7018(4) 1.6747(11) 1.1087(6)
O12B O -0.6816(4) 1.7139(11) 1.2369(7)
O13B O -0.2389(5) 1.5804(12) 1.3242(8)
O14B O -0.2702(5) 1.5451(11) 0.9999(8)
O15B O -0.2509(4) 1.2249(12) 1.1673(7)
H33B H -0.2791 1.1719 1.1623
H34B H -0.2219 1.1742 1.1772
Ce1A Ce -0.25216(3) 1.13210(10) 0.80960(5)
Ce1A_2 Ce 0.74784(3) 0.13210(10) 0.80960(5)
Ce1B_2 Ce 0.74784(3) 0.36790(10) 0.30960(5)
Ce1C Ce -0.74784(3) 1.86790(10) 1.19040(5)
Ce1C_2 Ce 0.25216(3) 0.86790(10) 1.19040(5)
Ce2_2 Ce -0.74881(3) 1.67389(10) 0.97335(5)
Ce2A Ce -0.25119(3) 1.17389(10) 0.52665(5)
Ce2A_2 Ce -0.25119(3) 1.17389(10) 1.52665(5)
Ce2A_3 Ce 0.74881(3) 0.17389(10) 0.52665(5)
Ce2B_2 Ce 0.74881(3) 0.32611(10) 1.02665(5)
Ce2C Ce 0.25119(3) 0.82611(10) 0.47335(5)
Ce2C_2 Ce 0.25119(3) 0.82611(10) 1.47335(5)
O2A O -0.1880(4) 1.3959(12) 0.9440(7)
O2C O 0.1880(4) 0.6041(12) 1.0560(7)
O3A O 0.1767(4) 0.5799(12) 0.7454(6)
O3C O -0.1767(4) 1.4201(12) 1.2546(6)
O4A O 0.1968(4) 0.5628(12) 0.8759(6)
O4C O -0.1968(4) 1.4372(12) 1.1241(6)
O5B_2 O -0.3179(4) 1.4389(11) 1.3862(6)
O6A O -0.3009(4) 1.1424(11) 1.0083(6)
O6C O 0.3009(4) 0.8576(11) 0.9917(6)
O8A O -0.2012(4) 1.3672(13) 1.4410(7)
O8C O 0.2012(4) 0.6328(13) 0.5590(7)
O11_2 O -0.2982(4) 1.3253(11) 0.8913(6)
O11A O 0.2982(4) 0.8253(11) 0.6087(6)
O11B_2 O 0.2982(4) 0.6747(11) 1.1087(6)
O11C O -0.2982(4) 1.1747(11) 1.3913(6)
O12A O 0.3184(4) 0.7861(11) 0.7369(7)
O12C O -0.3184(4) 1.2139(11) 1.2631(7)
C43 C 0.4272(10) 0.272(3) 0.7532(16)
H35 H 0.4512 0.2783 0.7205
C44 C 0.4055(11) 0.245(3) 0.8851(17)
H36 H 0.4140 0.2972 0.9300
H37 H 0.4049 0.1632 0.9032
H38 H 0.3736 0.2662 0.8573
C45 C 0.4941(10) 0.247(3) 0.8631(16)
H39 H 0.5128 0.2689 0.8221
H40 H 0.5017 0.1663 0.8800
H41 H 0.5021 0.3008 0.9076
N9 N 0.4414(9) 0.2568(19) 0.8320(12)
O16 O 0.3828(7) 0.2774(17) 0.7221(10)
C46 C 0.9161(16) 0.759(4) 0.562(3)
H42 H 0.9419 0.7725 0.5336
C47 C 0.877(3) 0.700(7) 0.680(3)
H43 H 0.8554 0.6426 0.6504
H44 H 0.8606 0.7749 0.6824
H45 H 0.8876 0.6698 0.7330
C48 C 0.978(2) 0.695(5) 0.667(4)
H46 H 0.9973 0.7256 0.6287
H47 H 0.9835 0.6099 0.6729
H48 H 0.9876 0.7341 0.7170
N10 N 0.9241(17) 0.718(3) 0.637(3)
O17 O 0.8681(10) 0.779(2) 0.5286(16)
loop_
_geom_bond_atom_site_label_1
_geom_bond_atom_site_label_2
_geom_bond_site_symmetry_1
_geom_bond_site_symmetry_2
Ce1 O1 1_555 1_555
Ce2 O7 1_555 1_555
C1 C2 1_555 1_555
C2 C3 1_555 1_555
C3 H1 1_555 1_555
C4 C3 1_555 1_555
H2 C4 1_555 1_555
C5 C4 1_555 1_555
C6 C2 1_555 1_555
H3 C6 1_555 1_555
C7 C5 1_555 1_555
C8 C7 1_555 1_555
H4 C8 1_555 1_555
C9 H5 1_555 1_555
C10 C9 1_555 1_555
C11 C8 1_555 1_555
H6 C11 1_555 1_555
C12 C10 1_555 1_555
C13 C14 1_555 1_555
C14 C15 1_555 1_555
C15 H7 1_555 1_555
C16 H8 1_555 1_555
C17 C16 1_555 1_555
C18 C14 1_555 1_555
H9 C18 1_555 1_555
C19 C20 1_555 1_555
C20 H10 1_555 1_555
C21 C20 1_555 1_555
H11 C21 1_555 1_555
C22 C21 1_555 1_555
C23 C22 1_555 1_555
H12 C23 1_555 1_555
C24 C22 1_555 1_555
C25 C26 1_555 1_555
C26 C27 1_555 1_555
C27 H13 1_555 1_555
C28 C27 1_555 1_555
H14 C28 1_555 1_555
C29 C28 1_555 1_555
C30 C26 1_555 1_555
H15 C30 1_555 1_555
C31 C29 1_555 1_555
C32 C31 1_555 1_555
H16 C32 1_555 1_555
C33 C32 1_555 1_555
H17 C33 1_555 1_555
C34 C33 1_555 1_555
C35 C34 1_555 1_555
H18 C35 1_555 1_555
C36 C34 1_555 1_555
C37 H19 1_555 1_555
C38 H20 1_555 1_555
H21 C38 1_555 1_555
H22 C38 1_555 1_555
C39 H23 1_555 1_555
H24 C39 1_555 1_555
H25 C39 1_555 1_555
C40 H26 1_555 1_555
C41 H27 1_555 1_555
H28 C41 1_555 1_555
H29 C41 1_555 1_555
C42 H30 1_555 1_555
H31 C42 1_555 1_555
H32 C42 1_555 1_555
N1 C5 1_555 1_555
N2 C7 1_555 1_555
N3 C15 1_555 1_555
N4 C19 1_555 1_555
N5 C29 1_555 1_555
N6 C31 1_555 1_555
N7 C37 1_555 1_555
N8 C40 1_555 1_555
O1 C1 1_555 1_555
O2 C1 1_555 1_555
O3 C12 1_555 1_555
O4 C12 1_555 1_555
O5 Ce1 1_555 1_555
O6 C13 1_555 1_555
O7 C24 1_555 1_555
O8 C24 1_555 1_555
O9 Ce1 1_555 1_555
O10 Ce2 1_555 1_555
O11 C36 1_555 1_555
O12 C36 1_555 1_555
O13 Ce1 1_555 1_555
O14 Ce2 1_555 1_555
O15 Ce1 1_555 1_555
H33 O15 1_555 1_555
H34 O15 1_555 1_555
C43 H35 1_555 1_555
C44 H36 1_555 1_555
H37 C44 1_555 1_555
H38 C44 1_555 1_555
C45 H39 1_555 1_555
H40 C45 1_555 1_555
H41 C45 1_555 1_555
N9 C43 1_555 1_555
O16 C43 1_555 1_555
C46 H42 1_555 1_555
C47 H43 1_555 1_555
H44 C47 1_555 1_555
H45 C47 1_555 1_555
C48 H46 1_555 1_555
H47 C48 1_555 1_555
H48 C48 1_555 1_555
N10 C46 1_555 1_555
O17 C46 1_555 1_555
C13B C14B 1_555 1_555
C14B C15B 1_555 1_555
C15B H7B 1_555 1_555
C16B H8B 1_555 1_555
C17B C17 1_555 1_555
C18B C14B 1_555 1_555
H9B C18B 1_555 1_555
N3B C15B 1_555 1_555
O5B C13B 1_555 1_555
O6B C13B 1_555 1_555
C19B C19 1_555 1_555
C20B C19B 1_555 1_555
H10B C20B 1_555 1_555
C21B C20B 1_555 1_555
H11B C21B 1_555 1_555
C22B C21B 1_555 1_555
C23B C22B 1_555 1_555
H12B C23B 1_555 1_555
C24B C22B 1_555 1_555
N4B C19B 1_555 1_555
O7B C24B 1_555 1_555
O8B C24B 1_555 1_555
Ce1B O1B 1_555 1_555
Ce2B O7B 1_555 1_555
C1B C2B 1_555 1_555
C2B C3B 1_555 1_555
C3B H1B 1_555 1_555
C4B C3B 1_555 1_555
H2B C4B 1_555 1_555
C5B C4B 1_555 1_555
C6B C2B 1_555 1_555
H3B C6B 1_555 1_555
C7B C5B 1_555 1_555
C8B C7B 1_555 1_555
H4B C8B 1_555 1_555
C9B H5B 1_555 1_555
C10B C9B 1_555 1_555
C11B C8B 1_555 1_555
H6B C11B 1_555 1_555
C12B C10B 1_555 1_555
C25B C26B 1_555 1_555
C26B C27B 1_555 1_555
C27B H13B 1_555 1_555
C28B C27B 1_555 1_555
H14B C28B 1_555 1_555
C29B C28B 1_555 1_555
C30B C26B 1_555 1_555
H15B C30B 1_555 1_555
C31B C29B 1_555 1_555
C32B C31B 1_555 1_555
H16B C32B 1_555 1_555
C33B C32B 1_555 1_555
H17B C33B 1_555 1_555
C34B C33B 1_555 1_555
C35B C34B 1_555 1_555
H18B C35B 1_555 1_555
C36B C34B 1_555 1_555
C37B H19B 1_555 1_555
C38B H20B 1_555 1_555
H21B C38B 1_555 1_555
H22B C38B 1_555 1_555
C39B H23B 1_555 1_555
H24B C39B 1_555 1_555
H25B C39B 1_555 1_555
C40B H26B 1_555 1_555
C41B H27B 1_555 1_555
H28B C41B 1_555 1_555
H29B C41B 1_555 1_555
C42B H30B 1_555 1_555
H31B C42B 1_555 1_555
H32B C42B 1_555 1_555
N1B C5B 1_555 1_555
N2B C7B 1_555 1_555
N5B C29B 1_555 1_555
N6B C31B 1_555 1_555
N7B C37B 1_555 1_555
N8B C40B 1_555 1_555
O1B C1B 1_555 1_555
O2B C1B 1_555 1_555
O3B C12B 1_555 1_555
O4B C12B 1_555 1_555
O9B Ce1B 1_555 1_555
O10B Ce2B 1_555 1_555
O11B C36B 1_555 1_555
O12B C36B 1_555 1_555
O13B Ce1B 1_555 1_555
O14B Ce2B 1_555 1_555
O15B Ce1B 1_555 1_555
H33B O15B 1_555 1_555
H34B O15B 1_555 1_555
Ce1A O3 1_555 1_555
Ce1A_2 O11 1_555 1_555
Ce1B_2 O5B 1_555 1_555
Ce1C O11B 1_555 1_555
Ce1C_2 O8 1_555 1_555
Ce2_2 O11B 1_555 1_555
Ce2A O4 1_555 1_555
Ce2A_2 O2B 1_555 1_555
Ce2A_3 O6B 1_555 1_555
Ce2B_2 O11 1_555 1_555
Ce2C O2 1_555 1_555
Ce2C_2 O4B 1_555 1_555
O2A Ce2B 1_555 1_555
O2C Ce2 1_555 1_555
O3A Ce1 1_555 1_555
O3C Ce1B 1_555 1_555
O4A Ce2 1_555 1_555
O4C Ce2B 1_555 1_555
O5B_2 Ce1B 1_555 1_555
O6A Ce2B 1_555 1_555
O6C Ce2 1_555 1_555
O8A Ce1B 1_555 1_555
O8C Ce1 1_555 1_555
O11_2 Ce2B 1_555 1_555
O11A Ce1 1_555 1_555
O11B_2 Ce2 1_555 1_555
O11C Ce1B 1_555 1_555
O12A Ce1 1_555 1_555
O12C Ce1B 1_555 1_555
Ce2 O15 1_555 1_555
C6 N1 1_555 1_555
C9 N2 1_555 1_555
C10 C11 1_555 1_555
C13 O5 1_555 1_555
C16 C18 1_555 1_555
C17 N3 1_555 1_555
C23 N4 1_555 1_555
C25 O9 1_555 1_555
C25 O10 1_555 1_555
C30 N5 1_555 1_555
C35 N6 1_555 1_555
C37 O14 1_555 1_555
C38 N7 1_555 1_555
C39 N7 1_555 1_555
C40 O13 1_555 1_555
C41 N8 1_555 1_555
C42 N8 1_555 1_555
O6 Ce2C 1_555 1_555
O12 Ce1A_2 1_555 1_555
C44 N9 1_555 1_555
C45 N9 1_555 1_555
C47 N10 1_555 1_555
C48 N10 1_555 1_555
C16B C17B 1_555 1_555
C16B C18B 1_555 1_555
C17B N3B 1_555 1_555
C23B N4B 1_555 1_555
O8B Ce1A 1_555 1_555
Ce2B O15B 1_555 1_555
C6B N1B 1_555 1_555
C9B N2B 1_555 1_555
C10B C11B 1_555 1_555
C25B O9B 1_555 1_555
C25B O10B 1_555 1_555
C30B N5B 1_555 1_555
C35B N6B 1_555 1_555
C37B O14B 1_555 1_555
C38B N7B 1_555 1_555
C39B N7B 1_555 1_555
C40B O13B 1_555 1_555
C41B N8B 1_555 1_555
C42B N8B 1_555 1_555
O3B Ce1C_2 1_555 1_555
O12B Ce1C 1_555 1_555
Ce1A O11_2 1_555 1_555
Ce1C_2 O11B_2 1_555 1_555
Ce2A_2 O11C 1_555 1_555
Ce2C O11A 1_555 1_555

#END
