
#######################################################################
#
#                 Cambridge Crystallographic Data Centre
#                                CCDC 
#
#######################################################################
#
# If this CIF has been generated from an entry in the Cambridge 
# Structural Database, then it will include bibliographic, chemical, 
# crystal, experimental, refinement or atomic coordinate data resulting 
# from the CCDC's data processing and validation procedures.
#
#######################################################################

data_VOPGUE
_symmetry_cell_setting           orthorhombic
_symmetry_space_group_name_H-M   'P 21 21 21'
_symmetry_Int_Tables_number      19
_space_group_name_Hall           'P 2ac 2ab'
loop_
_symmetry_equiv_pos_site_id
_symmetry_equiv_pos_as_xyz
1 x,y,z
2 1/2+x,1/2-y,-z
3 -x,1/2+y,1/2-z
4 1/2-x,-y,1/2+z
_cell_length_a                   8.42600(10)
_cell_length_b                   12.9787(2)
_cell_length_c                   21.4445(3)
_cell_angle_alpha                90
_cell_angle_beta                 90
_cell_angle_gamma                90
_cell_volume                     2345.14
loop_
_atom_site_label
_atom_site_type_symbol
_atom_site_fract_x
_atom_site_fract_y
_atom_site_fract_z
Sn1 Sn 0.184865(16) 0.443152(11) 0.861360(6)
Cl1 Cl 0.41764(6) 0.45235(5) 0.78813(3)
Cl2 Cl 0.32187(7) 0.54033(5) 0.94750(3)
F1 F 0.8525(2) 0.14769(13) 0.84991(11)
F2 F -0.4333(2) 0.77447(14) 0.93334(9)
O1 O -0.0439(2) 0.42066(13) 0.91719(8)
O2 O -0.5496(2) 0.65942(13) 1.29532(7)
N1 N -0.1042(2) 0.46351(14) 0.96853(9)
N2 N -0.4766(2) 0.62737(15) 1.24343(9)
C1 C 0.2405(3) 0.29549(19) 0.90180(12)
H1 H 0.2271 0.3006 0.9476
H2 H 0.1623 0.2446 0.8864
C2 C 0.4026(3) 0.25541(18) 0.88875(11)
C3 C 0.5280(3) 0.27451(18) 0.92900(11)
H3 H 0.5093 0.3127 0.9661
C4 C 0.6805(3) 0.23910(18) 0.91646(13)
H4 H 0.7658 0.2528 0.9442
C5 C 0.7038(3) 0.18349(19) 0.86247(15)
C6 C 0.5843(4) 0.1636(2) 0.82086(13)
H5 H 0.6041 0.1256 0.7838
C7 C 0.4328(4) 0.20090(19) 0.83437(12)
H6 H 0.3487 0.1887 0.8058
C8 C 0.0971(3) 0.58611(18) 0.82205(11)
H7 H 0.1849 0.6367 0.8228
H8 H 0.0706 0.5733 0.7777
C9 C -0.0440(3) 0.63492(17) 0.85212(11)
C10 C -0.1927(3) 0.62952(19) 0.82460(11)
H9 H -0.2046 0.5931 0.7865
C11 C -0.3253(3) 0.6763(2) 0.85149(13)
H10 H -0.4267 0.6719 0.8323
C12 C -0.3046(3) 0.72879(19) 0.90644(13)
C13 C -0.1614(3) 0.73540(18) 0.93586(12)
H11 H -0.1514 0.7715 0.9742
C14 C -0.0311(3) 0.68856(18) 0.90875(12)
H12 H 0.0691 0.6928 0.9289
C15 C -0.2577(3) 0.4918(2) 0.96791(12)
H13 H -0.3176 0.4867 0.9305
C16 C -0.3277(3) 0.52812(18) 1.02135(10)
H14 H -0.4362 0.5481 1.0203
C17 C -0.2438(2) 0.53632(16) 1.07681(11)
C18 C -0.0837(3) 0.51043(18) 1.07442(11)
H15 H -0.0200 0.5179 1.1107
C19 C -0.0168(3) 0.47442(19) 1.02053(11)
H16 H 0.0927 0.4569 1.0199
C20 C -0.3228(3) 0.56831(16) 1.13515(10)
C21 C -0.4885(2) 0.56555(18) 1.14014(11)
H17 H -0.5502 0.5424 1.1058
C22 C -0.5630(3) 0.59606(18) 1.19437(11)
H18 H -0.6755 0.5949 1.1970
C23 C -0.3161(3) 0.62966(19) 1.24087(11)
H19 H -0.2568 0.6508 1.2763
C24 C -0.2394(3) 0.6016(2) 1.18742(11)
H20 H -0.1268 0.6049 1.1859
Sn1C Sn -0.684865(16) 0.556848(11) 1.361360(6)
O2C O 0.0496(2) 0.34058(13) 0.79532(7)
loop_
_geom_bond_atom_site_label_1
_geom_bond_atom_site_label_2
_geom_bond_site_symmetry_1
_geom_bond_site_symmetry_2
Sn1 Cl1 1_555 1_555
Cl2 Sn1 1_555 1_555
F1 C5 1_555 1_555
F2 C12 1_555 1_555
O1 Sn1 1_555 1_555
O2 N2 1_555 1_555
N1 O1 1_555 1_555
N2 C22 1_555 1_555
C1 Sn1 1_555 1_555
H1 C1 1_555 1_555
H2 C1 1_555 1_555
C2 C1 1_555 1_555
C3 C2 1_555 1_555
H3 C3 1_555 1_555
C4 C3 1_555 1_555
H4 C4 1_555 1_555
C5 C4 1_555 1_555
C6 C5 1_555 1_555
H5 C6 1_555 1_555
C7 C2 1_555 1_555
H6 C7 1_555 1_555
C8 Sn1 1_555 1_555
H7 C8 1_555 1_555
H8 C8 1_555 1_555
C9 C8 1_555 1_555
C10 C9 1_555 1_555
H9 C10 1_555 1_555
C11 C10 1_555 1_555
H10 C11 1_555 1_555
C12 C11 1_555 1_555
C13 C12 1_555 1_555
H11 C13 1_555 1_555
C14 C9 1_555 1_555
H12 C14 1_555 1_555
C15 N1 1_555 1_555
H13 C15 1_555 1_555
C16 C15 1_555 1_555
H14 C16 1_555 1_555
C17 C16 1_555 1_555
C18 C17 1_555 1_555
H15 C18 1_555 1_555
C19 N1 1_555 1_555
H16 C19 1_555 1_555
C20 C17 1_555 1_555
C21 C20 1_555 1_555
H17 C21 1_555 1_555
C22 C21 1_555 1_555
H18 C22 1_555 1_555
C23 N2 1_555 1_555
H19 C23 1_555 1_555
C24 C20 1_555 1_555
H20 C24 1_555 1_555
Sn1C O2 1_555 1_555
O2C Sn1 1_555 1_555
C6 C7 1_555 1_555
C13 C14 1_555 1_555
C18 C19 1_555 1_555
C23 C24 1_555 1_555

#END
