
#######################################################################
#
#                 Cambridge Crystallographic Data Centre
#                                CCDC 
#
#######################################################################
#
# If this CIF has been generated from an entry in the Cambridge 
# Structural Database, then it will include bibliographic, chemical, 
# crystal, experimental, refinement or atomic coordinate data resulting 
# from the CCDC's data processing and validation procedures.
#
#######################################################################

data_VOPGIQ
_symmetry_cell_setting           monoclinic
_symmetry_space_group_name_H-M   'P 21/n'
_symmetry_Int_Tables_number      14
_space_group_name_Hall           '-P 2yn'
loop_
_symmetry_equiv_pos_site_id
_symmetry_equiv_pos_as_xyz
1 x,y,z
2 1/2+x,1/2-y,1/2+z
3 -x,-y,-z
4 1/2-x,1/2+y,1/2-z
_cell_length_a                   9.9503(14)
_cell_length_b                   8.2418(12)
_cell_length_c                   10.2102(13)
_cell_angle_alpha                90
_cell_angle_beta                 110.092(15)
_cell_angle_gamma                90
_cell_volume                     786.364
loop_
_atom_site_label
_atom_site_type_symbol
_atom_site_fract_x
_atom_site_fract_y
_atom_site_fract_z
Cu1 Cu 0.0000 0.0000 0.0000
O1 O 0.18980(14) 0.09590(16) 0.11736(14)
O2 O 0.05278(15) -0.25137(16) 0.10602(14)
O3 O -0.13249(16) -0.38263(17) -0.20738(15)
N1 N -0.09874(17) 0.07516(19) 0.13582(17)
C1 C 0.02346(19) -0.3861(2) 0.0469(2)
N2 N -0.1164(2) 0.1207(2) 0.3602(2)
C2 C -0.0588(2) -0.4461(2) -0.0936(2)
N3 N 0.0706(2) -0.0241(2) 0.33807(19)
C3 C -0.0500(2) 0.0579(2) 0.2761(2)
C4 C -0.2252(2) 0.1511(3) 0.0783(2)
H1 H -0.2620 0.1632 -0.0181
C5 C -0.2399(3) 0.1948(3) 0.2993(3)
H2 H -0.2876 0.2380 0.3552
C6 C -0.3015(3) 0.2110(3) 0.1561(3)
H3 H -0.3902 0.2602 0.1150
H4 H 0.0848 -0.0497 0.4219
H5 H 0.2555 0.0272 0.1751
H6 H 0.0920 -0.0959 0.2992
H7 H 0.1785 0.1828 0.1530
C1B C -0.02346(19) -0.6139(2) -0.0469(2)
O2B O -0.05278(15) -0.74863(16) -0.10602(14)
C2B C 0.0588(2) -0.5539(2) 0.0936(2)
O3B O 0.13249(16) -0.61737(17) 0.20738(15)
O1B O -0.18980(14) -0.09590(16) -0.11736(14)
H5B H -0.2555 -0.0272 -0.1751
H7B H -0.1785 -0.1828 -0.1530
N1B N 0.09874(17) -0.07516(19) -0.13582(17)
N2B N 0.1164(2) -0.1207(2) -0.3602(2)
N3B N -0.0706(2) 0.0241(2) -0.33807(19)
C3B C 0.0500(2) -0.0579(2) -0.2761(2)
C4B C 0.2252(2) -0.1511(3) -0.0783(2)
H1B H 0.2620 -0.1632 0.0181
C5B C 0.2399(3) -0.1948(3) -0.2993(3)
H2B H 0.2876 -0.2380 -0.3552
C6B C 0.3015(3) -0.2110(3) -0.1561(3)
H3B H 0.3902 -0.2602 -0.1150
H4B H -0.0848 0.0497 -0.4219
H6B H -0.0920 0.0959 -0.2992
O2B_2 O -0.05278(15) 0.25137(16) -0.10602(14)
Cu1_2 Cu 0.0000 -1.0000 0.0000
loop_
_geom_bond_atom_site_label_1
_geom_bond_atom_site_label_2
_geom_bond_site_symmetry_1
_geom_bond_site_symmetry_2
Cu1 O1 1_555 1_555
O1 H5 1_555 1_555
O2 Cu1 1_555 1_555
O3 C2 1_555 1_555
N1 Cu1 1_555 1_555
C1 O2 1_555 1_555
N2 C3 1_555 1_555
C2 C1 1_555 1_555
N3 C3 1_555 1_555
C3 N1 1_555 1_555
C4 N1 1_555 1_555
H1 C4 1_555 1_555
C5 N2 1_555 1_555
H2 C5 1_555 1_555
C6 C4 1_555 1_555
H3 C6 1_555 1_555
H4 N3 1_555 1_555
H6 N3 1_555 1_555
H7 O1 1_555 1_555
C1B C2 1_555 1_555
O2B C1B 1_555 1_555
C2B C1 1_555 1_555
O3B C2B 1_555 1_555
O1B Cu1 1_555 1_555
H5B O1B 1_555 1_555
H7B O1B 1_555 1_555
N1B Cu1 1_555 1_555
N2B C3B 1_555 1_555
N3B C3B 1_555 1_555
C3B N1B 1_555 1_555
C4B N1B 1_555 1_555
H1B C4B 1_555 1_555
C5B N2B 1_555 1_555
H2B C5B 1_555 1_555
C6B C4B 1_555 1_555
H3B C6B 1_555 1_555
H4B N3B 1_555 1_555
H6B N3B 1_555 1_555
O2B_2 Cu1 1_555 1_555
Cu1_2 O2B 1_555 1_555
C5 C6 1_555 1_555
C1B C2B 1_555 1_555
C5B C6B 1_555 1_555

#END
