
#######################################################################
#
#                 Cambridge Crystallographic Data Centre
#                                CCDC 
#
#######################################################################
#
# If this CIF has been generated from an entry in the Cambridge 
# Structural Database, then it will include bibliographic, chemical, 
# crystal, experimental, refinement or atomic coordinate data resulting 
# from the CCDC's data processing and validation procedures.
#
#######################################################################

data_VOPHIT
_symmetry_cell_setting           monoclinic
_symmetry_space_group_name_H-M   'P 21/c'
_symmetry_Int_Tables_number      14
_space_group_name_Hall           '-P 2ybc'
loop_
_symmetry_equiv_pos_site_id
_symmetry_equiv_pos_as_xyz
1 x,y,z
2 -x,1/2+y,1/2-z
3 -x,-y,-z
4 x,1/2-y,1/2+z
_cell_length_a                   12.7095(6)
_cell_length_b                   8.7854(6)
_cell_length_c                   12.0498(7)
_cell_angle_alpha                90
_cell_angle_beta                 101.689(2)
_cell_angle_gamma                90
_cell_volume                     1317.55
loop_
_atom_site_label
_atom_site_type_symbol
_atom_site_fract_x
_atom_site_fract_y
_atom_site_fract_z
C1 C 0.22533(16) 0.7782(2) -0.07437(18)
C2 C 0.13775(14) 0.6674(2) -0.06389(16)
C3 C 0.07806(16) 0.5971(3) -0.16275(17)
H1 H 0.0944 0.6189 -0.2329
C4 C 0.11381(14) 0.6370(2) 0.03944(16)
H2 H 0.1533 0.6835 0.1039
C5 C 0.02971(14) 0.5356(2) 0.04980(16)
C6 C 0.00301(17) 0.5020(2) 0.15613(18)
H3 H 0.0411 0.5480 0.2216
C7 C 0.1986(3) 1.1485(5) 0.0675(4)
H4 H 0.1516 1.0673 0.0354
H5 H 0.1584 1.2414 0.0645
H6 H 0.2300 1.1249 0.1450
C8 C 0.2378(3) 1.1981(4) -0.1181(3)
H7 H 0.1910 1.1160 -0.1487
H8 H 0.2941 1.2076 -0.1600
H9 H 0.1974 1.2912 -0.1237
C9 C 0.4592(2) 1.2871(2) 0.0039(2)
H10 H 0.5149 1.3488 0.0498
H11 H 0.4451 1.3264 -0.0729
C10 C 0.3580(2) 1.2921(3) 0.0516(3)
H12 H 0.3223 1.3892 0.0339
H13 H 0.3762 1.2814 0.1334
O1 O 0.28576(11) 0.82073(18) 0.01815(12)
O2 O 0.23221(14) 0.8264(2) -0.16878(14)
O3 O 0.49181(11) 1.13681(19) 0.00496(15)
O4 O 0.4175(2) 0.9876(3) 0.2181(2)
Cu1 Cu 0.386798(18) 0.98495(3) 0.01420(2)
N1 N 0.28500(15) 1.1667(2) 0.00210(19)
H14 H 0.478(2) 1.034(5) 0.245(4)
H15 H 0.430(3) 0.905(5) 0.240(4)
C1B C -0.22533(16) 0.2218(2) 0.07437(18)
C2B C -0.13775(14) 0.3326(2) 0.06389(16)
C3B C -0.07806(16) 0.4029(3) 0.16275(17)
H1B H -0.0944 0.3811 0.2329
C4B C -0.11381(14) 0.3630(2) -0.03944(16)
H2B H -0.1533 0.3165 -0.1039
C5B C -0.02971(14) 0.4644(2) -0.04980(16)
C6B C -0.00301(17) 0.4980(2) -0.15613(18)
H3B H -0.0411 0.4520 -0.2216
O1B O -0.28576(11) 0.17927(18) -0.01815(12)
O2B O -0.23221(14) 0.1736(2) 0.16878(14)
C7B C -0.1986(3) -0.1485(5) -0.0675(4)
H4B H -0.1516 -0.0673 -0.0354
H5B H -0.1584 -0.2414 -0.0645
H6B H -0.2300 -0.1249 -0.1450
C8B C -0.2378(3) -0.1981(4) 0.1181(3)
H7B H -0.1910 -0.1160 0.1487
H8B H -0.2941 -0.2076 0.1600
H9B H -0.1974 -0.2912 0.1237
C9B C -0.4592(2) -0.2871(2) -0.0039(2)
H10B H -0.5149 -0.3488 -0.0498
H11B H -0.4451 -0.3264 0.0729
C10B C -0.3580(2) -0.2921(3) -0.0516(3)
H12B H -0.3223 -0.3892 -0.0339
H13B H -0.3762 -0.2814 -0.1334
O3B O -0.49181(11) -0.13681(19) -0.00496(15)
O4B O -0.4175(2) 0.0124(3) -0.2181(2)
Cu1B Cu -0.386798(18) 0.01505(3) -0.01420(2)
N1B N -0.28500(15) -0.1667(2) -0.00210(19)
H14B H -0.478(2) -0.034(5) -0.245(4)
H15B H -0.430(3) 0.095(5) -0.240(4)
O3_2 O -0.50819(11) 0.13681(19) 0.00496(15)
O3B_2 O 0.50819(11) 0.86319(19) -0.00496(15)
Cu1_2 Cu -0.613202(18) -0.01505(3) 0.01420(2)
Cu1B_2 Cu 0.613202(18) 1.01505(3) -0.01420(2)
O5 O 0.39308(16) 0.8510(3) -0.28875(17)
H16 H 0.362(2) 0.830(4) -0.3572(17)
H17 H 0.345(2) 0.857(4) -0.246(2)
loop_
_geom_bond_atom_site_label_1
_geom_bond_atom_site_label_2
_geom_bond_site_symmetry_1
_geom_bond_site_symmetry_2
C1 C2 1_555 1_555
C2 C3 1_555 1_555
C3 H1 1_555 1_555
C4 C2 1_555 1_555
H2 C4 1_555 1_555
C5 C4 1_555 1_555
C6 C5 1_555 1_555
H3 C6 1_555 1_555
C7 H4 1_555 1_555
H5 C7 1_555 1_555
H6 C7 1_555 1_555
C8 H7 1_555 1_555
H8 C8 1_555 1_555
H9 C8 1_555 1_555
C9 H10 1_555 1_555
H11 C9 1_555 1_555
C10 C9 1_555 1_555
H12 C10 1_555 1_555
H13 C10 1_555 1_555
O1 C1 1_555 1_555
O2 C1 1_555 1_555
O3 C9 1_555 1_555
O4 Cu1 1_555 1_555
Cu1 O1 1_555 1_555
N1 C7 1_555 1_555
H14 O4 1_555 1_555
H15 O4 1_555 1_555
O5 H16 1_555 1_555
H17 O5 1_555 1_555
C1B C2B 1_555 1_555
C2B C3B 1_555 1_555
C3B C6 1_555 1_555
H1B C3B 1_555 1_555
C4B C2B 1_555 1_555
H2B C4B 1_555 1_555
C5B C5 1_555 1_555
C6B C3 1_555 1_555
H3B C6B 1_555 1_555
O1B C1B 1_555 1_555
O2B C1B 1_555 1_555
C7B H4B 1_555 1_555
H5B C7B 1_555 1_555
H6B C7B 1_555 1_555
C8B H7B 1_555 1_555
H8B C8B 1_555 1_555
H9B C8B 1_555 1_555
C9B H10B 1_555 1_555
H11B C9B 1_555 1_555
C10B C9B 1_555 1_555
H12B C10B 1_555 1_555
H13B C10B 1_555 1_555
O3B C9B 1_555 1_555
O4B Cu1B 1_555 1_555
Cu1B O1B 1_555 1_555
N1B C7B 1_555 1_555
H14B O4B 1_555 1_555
H15B O4B 1_555 1_555
O3_2 Cu1B 1_555 1_555
O3B_2 Cu1 1_555 1_555
Cu1_2 O3B 1_555 1_555
Cu1B_2 O3 1_555 1_555
C8 N1 1_555 1_555
C10 N1 1_555 1_555
O3 Cu1 1_555 1_555
Cu1 N1 1_555 1_555
C4B C5B 1_555 1_555
C5B C6B 1_555 1_555
C8B N1B 1_555 1_555
C10B N1B 1_555 1_555
O3B Cu1B 1_555 1_555
Cu1B N1B 1_555 1_555
O3_2 Cu1_2 1_555 1_555
O3B_2 Cu1B_2 1_555 1_555

#END
