
#######################################################################
#
#                 Cambridge Crystallographic Data Centre
#                                CCDC 
#
#######################################################################
#
# If this CIF has been generated from an entry in the Cambridge 
# Structural Database, then it will include bibliographic, chemical, 
# crystal, experimental, refinement or atomic coordinate data resulting 
# from the CCDC's data processing and validation procedures.
#
#######################################################################

data_VOPHOZ
_symmetry_cell_setting           monoclinic
_symmetry_space_group_name_H-M   'P 21/c'
_symmetry_Int_Tables_number      14
_space_group_name_Hall           '-P 2ybc'
loop_
_symmetry_equiv_pos_site_id
_symmetry_equiv_pos_as_xyz
1 x,y,z
2 -x,1/2+y,1/2-z
3 -x,-y,-z
4 x,1/2-y,1/2+z
_cell_length_a                   12.1134(10)
_cell_length_b                   9.2965(8)
_cell_length_c                   12.0316(10)
_cell_angle_alpha                90
_cell_angle_beta                 100.350(2)
_cell_angle_gamma                90
_cell_volume                     1332.86
loop_
_atom_site_label
_atom_site_type_symbol
_atom_site_fract_x
_atom_site_fract_y
_atom_site_fract_z
C1 C 0.22390(17) 0.2108(2) 0.43492(19)
C2 C 0.13406(16) 0.3206(2) 0.44026(18)
C3 C 0.11751(16) 0.3720(2) 0.54296(18)
H1 H 0.1623 0.3385 0.6088
C4 C 0.03376(17) 0.4747(2) 0.55018(17)
C5 C 0.01619(19) 0.5307(3) 0.65572(19)
H2 H 0.0607 0.4990 0.7224
C6 C -0.06528(19) 0.6306(3) 0.65979(19)
H3 H -0.0757 0.6669 0.7292
C7 C 0.4507(2) -0.2636(3) 0.5296(2)
H4 H 0.4736 -0.3362 0.4805
H5 H 0.4877 -0.2834 0.6065
C8 C 0.3244(3) -0.2673(3) 0.5218(3)
H6 H 0.2882 -0.2745 0.4433
H7 H 0.3036 -0.3511 0.5614
C9 C 0.3079(3) -0.1490(4) 0.6993(2)
H8 H 0.2429 -0.1918 0.7229
H9 H 0.3713 -0.2126 0.7226
C10 C 0.3316(3) -0.0084(4) 0.7558(2)
H10 H 0.2672 0.0544 0.7349
H11 H 0.3439 -0.0218 0.8371
C11 C 0.1650(2) -0.1117(4) 0.5315(3)
H12 H 0.1418 -0.0256 0.5649
H13 H 0.1235 -0.1922 0.5524
H14 H 0.1511 -0.1019 0.4508
N1 N 0.28627(17) -0.1354(2) 0.57225(18)
O1 O 0.23040(14) 0.1521(2) 0.34452(14)
O2 O 0.28833(13) 0.18507(19) 0.52925(14)
O3 O 0.47981(16) -0.1299(2) 0.4975(2)
O4 O 0.42602(19) 0.0559(2) 0.72559(17)
Cu1 Cu 0.38952(2) 0.02581(3) 0.52998(2)
H15 H 0.472(4) 0.006(4) 0.750(4)
C1B C -0.22390(17) 0.7892(2) 0.56508(19)
C2B C -0.13406(16) 0.6794(2) 0.55974(18)
C3B C -0.11751(16) 0.6280(2) 0.45704(18)
H1B H -0.1623 0.6615 0.3912
C4B C -0.03376(17) 0.5253(2) 0.44982(17)
C5B C -0.01619(19) 0.4693(3) 0.34428(19)
H2B H -0.0607 0.5010 0.2776
C6B C 0.06528(19) 0.3694(3) 0.34021(19)
H3B H 0.0757 0.3331 0.2708
O1B O -0.23040(14) 0.8479(2) 0.65548(14)
O2B O -0.28833(13) 0.81493(19) 0.47075(14)
C7B C -0.4507(2) 1.2636(3) 0.4704(2)
H4B H -0.4736 1.3362 0.5195
H5B H -0.4877 1.2834 0.3935
C8B C -0.3244(3) 1.2673(3) 0.4782(3)
H6B H -0.2882 1.2745 0.5567
H7B H -0.3036 1.3511 0.4386
C9B C -0.3079(3) 1.1490(4) 0.3007(2)
H8B H -0.2429 1.1918 0.2771
H9B H -0.3713 1.2126 0.2774
C10B C -0.3316(3) 1.0084(4) 0.2442(2)
H10B H -0.2672 0.9456 0.2651
H11B H -0.3439 1.0218 0.1629
C11B C -0.1650(2) 1.1117(4) 0.4685(3)
H12B H -0.1418 1.0256 0.4351
H13B H -0.1235 1.1922 0.4476
H14B H -0.1511 1.1019 0.5492
N1B N -0.28627(17) 1.1354(2) 0.42775(18)
O3B O -0.47981(16) 1.1299(2) 0.5025(2)
O4B O -0.42602(19) 0.9441(2) 0.27441(17)
Cu1B Cu -0.38952(2) 0.97419(3) 0.47002(2)
H15B H -0.472(4) 0.994(4) 0.250(4)
O3_2 O -0.52019(16) 0.8701(2) 0.4975(2)
O3B_2 O 0.52019(16) 0.1299(2) 0.5025(2)
Cu1_2 Cu -0.61048(2) 1.02581(3) 0.52998(2)
Cu1B_2 Cu 0.61048(2) -0.02581(3) 0.47002(2)
O5 O 0.61500(18) -0.0934(3) 0.79934(19)
H16 H 0.624(3) -0.161(3) 0.845(3)
H17 H 0.658(3) -0.111(4) 0.752(3)
loop_
_geom_bond_atom_site_label_1
_geom_bond_atom_site_label_2
_geom_bond_site_symmetry_1
_geom_bond_site_symmetry_2
C1 C2 1_555 1_555
C2 C3 1_555 1_555
C3 H1 1_555 1_555
C4 C3 1_555 1_555
C5 C4 1_555 1_555
H2 C5 1_555 1_555
C6 C5 1_555 1_555
H3 C6 1_555 1_555
C7 H4 1_555 1_555
H5 C7 1_555 1_555
C8 C7 1_555 1_555
H6 C8 1_555 1_555
H7 C8 1_555 1_555
C9 H8 1_555 1_555
H9 C9 1_555 1_555
C10 C9 1_555 1_555
H10 C10 1_555 1_555
H11 C10 1_555 1_555
C11 H12 1_555 1_555
H13 C11 1_555 1_555
H14 C11 1_555 1_555
N1 C8 1_555 1_555
O1 C1 1_555 1_555
O2 C1 1_555 1_555
O3 C7 1_555 1_555
O4 C10 1_555 1_555
Cu1 N1 1_555 1_555
H15 O4 1_555 1_555
O5 H16 1_555 1_555
H17 O5 1_555 1_555
C1B C2B 1_555 1_555
C2B C6 1_555 1_555
C3B C2B 1_555 1_555
H1B C3B 1_555 1_555
C4B C4 1_555 1_555
C5B C4B 1_555 1_555
H2B C5B 1_555 1_555
C6B C2 1_555 1_555
H3B C6B 1_555 1_555
O1B C1B 1_555 1_555
O2B C1B 1_555 1_555
C7B H4B 1_555 1_555
H5B C7B 1_555 1_555
C8B C7B 1_555 1_555
H6B C8B 1_555 1_555
H7B C8B 1_555 1_555
C9B H8B 1_555 1_555
H9B C9B 1_555 1_555
C10B C9B 1_555 1_555
H10B C10B 1_555 1_555
H11B C10B 1_555 1_555
C11B H12B 1_555 1_555
H13B C11B 1_555 1_555
H14B C11B 1_555 1_555
N1B C8B 1_555 1_555
O3B C7B 1_555 1_555
O4B C10B 1_555 1_555
Cu1B O2B 1_555 1_555
H15B O4B 1_555 1_555
O3_2 Cu1B 1_555 1_555
O3B_2 Cu1 1_555 1_555
Cu1_2 O3B 1_555 1_555
Cu1B_2 O3 1_555 1_555
C9 N1 1_555 1_555
C11 N1 1_555 1_555
O2 Cu1 1_555 1_555
O3 Cu1 1_555 1_555
O4 Cu1 1_555 1_555
C3B C4B 1_555 1_555
C5B C6B 1_555 1_555
C9B N1B 1_555 1_555
C11B N1B 1_555 1_555
N1B Cu1B 1_555 1_555
O3B Cu1B 1_555 1_555
O4B Cu1B 1_555 1_555
O3_2 Cu1_2 1_555 1_555
O3B_2 Cu1B_2 1_555 1_555

#END
