
#######################################################################
#
#                 Cambridge Crystallographic Data Centre
#                                CCDC 
#
#######################################################################
#
# If this CIF has been generated from an entry in the Cambridge 
# Structural Database, then it will include bibliographic, chemical, 
# crystal, experimental, refinement or atomic coordinate data resulting 
# from the CCDC's data processing and validation procedures.
#
#######################################################################

data_VOPJAN
_symmetry_cell_setting           triclinic
_symmetry_space_group_name_H-M   'P -1'
_symmetry_Int_Tables_number      2
_space_group_name_Hall           '-P 1'
loop_
_symmetry_equiv_pos_site_id
_symmetry_equiv_pos_as_xyz
1 x,y,z
2 -x,-y,-z
_cell_length_a                   11.1531(13)
_cell_length_b                   12.9963(15)
_cell_length_c                   13.4198(15)
_cell_angle_alpha                75.916(2)
_cell_angle_beta                 75.109(2)
_cell_angle_gamma                70.039(2)
_cell_volume                     1740.81
loop_
_atom_site_label
_atom_site_type_symbol
_atom_site_fract_x
_atom_site_fract_y
_atom_site_fract_z
Co1 Co 0.05532(4) 0.41026(4) 0.59354(4)
N1 N 0.0183(3) 0.2775(3) 0.7123(2)
O1 O -0.2732(3) 0.0712(3) 0.9800(2)
C1 C 0.1003(3) 0.2238(4) 0.7787(3)
H1 H 0.1737 0.2455 0.7718
O2 O -0.3965(2) 0.5400(2) 0.55778(19)
H2 H -0.4648 0.5276 0.5986
H3 H -0.3644 0.4881 0.5203
Co2 Co -0.26423(4) 0.59900(4) 0.61213(3)
N2 N -0.2294(3) 0.1347(3) 0.8054(2)
H4 H -0.2540 0.1440 0.7473
C2 C 0.0790(4) 0.1373(4) 0.8571(3)
H5 H 0.1373 0.1018 0.9022
O3 O -0.6579(2) 0.3278(3) 1.0381(2)
C3 C -0.0291(4) 0.1035(4) 0.8683(3)
H6 H -0.0443 0.0450 0.9205
C4 C -0.1147(3) 0.1588(3) 0.8002(3)
N3 N -0.3207(3) 0.5108(3) 0.7686(2)
O4 O -0.8069(3) 1.1002(3) 0.5728(3)
C5 C -0.0854(3) 0.2438(3) 0.7226(3)
H7 H -0.1409 0.2791 0.6752
N4 N -0.6211(3) 0.4420(3) 0.8846(2)
H8 H -0.6582 0.4843 0.8342
C6 C -0.3059(4) 0.0976(4) 0.8945(3)
O5 O 0.0506(2) 0.5148(2) 0.68357(18)
N5 N -0.4212(3) 0.7442(3) 0.6510(2)
C7 C -0.4332(4) 0.0963(5) 0.8775(3)
H9 H -0.4157 0.0462 0.8289
H10 H -0.4777 0.1701 0.8449
O6 O -0.1371(2) 0.6510(2) 0.66743(19)
N6 N -0.6803(3) 0.9386(3) 0.5198(2)
H11 H -0.6642 0.8995 0.4720
C8 C -0.5241(4) 0.0608(4) 0.9767(3)
H12 H -0.5345 0.1054 1.0284
H13 H -0.6089 0.0757 0.9603
O7 O 0.2367(2) 0.6397(2) 0.54215(18)
O8 O 0.3466(2) 0.5409(3) 0.6680(2)
O9 O -0.1135(3) 0.4712(3) 0.5484(2)
H14 H -0.141(4) 0.446(4) 0.536(4)
O10 O 0.2278(3) 0.3182(3) 0.5372(2)
H15 H 0.228(5) 0.267(4) 0.540(4)
C9 C -0.2425(3) 0.4477(3) 0.8357(3)
H16 H -0.1569 0.4492 0.8217
C10 C -0.2853(3) 0.3812(4) 0.9245(3)
H17 H -0.2290 0.3404 0.9703
C11 C -0.4106(3) 0.3737(4) 0.9473(3)
H18 H -0.4390 0.3267 1.0061
C12 C -0.4926(3) 0.4397(3) 0.8779(3)
C13 C -0.4435(3) 0.5073(4) 0.7934(3)
H19 H -0.5001 0.5544 0.7500
C14 C -0.6948(3) 0.3864(4) 0.9600(3)
C15 C -0.8301(3) 0.4072(4) 0.9405(3)
H20 H -0.8528 0.3383 0.9610
H21 H -0.8310 0.4327 0.8664
C16 C -0.9307(3) 0.4944(4) 1.0027(3)
H22 H -0.9207 0.4739 1.0753
H23 H -0.9146 0.5657 0.9753
C17 C -0.4422(4) 0.7865(4) 0.7378(3)
H24 H -0.3881 0.7504 0.7861
C18 C -0.5414(4) 0.8819(4) 0.7577(3)
H25 H -0.5541 0.9084 0.8191
C19 C -0.6219(4) 0.9378(4) 0.6864(3)
H26 H -0.6881 1.0029 0.6984
C20 C -0.6016(3) 0.8949(3) 0.5968(3)
C21 C -0.5004(3) 0.7988(3) 0.5825(3)
H27 H -0.4864 0.7704 0.5219
C22 C -0.7780(4) 1.0350(4) 0.5130(3)
C23 C -0.8523(4) 1.0561(4) 0.4264(3)
H28 H -0.8084 1.0001 0.3821
H29 H -0.8529 1.1280 0.3836
C24 C -0.9918(5) 1.0533(5) 0.4697(4)
H30 H -1.0342 1.1095 0.5139
H31 H -1.0368 1.0740 0.4115
C25 C -0.0262(3) 0.6120(3) 0.6903(2)
C26 C 0.0190(3) 0.6843(3) 0.7353(2)
C27 C -0.0690(3) 0.7528(3) 0.8037(3)
H32 H -0.1565 0.7573 0.8173
C28 C -0.0287(4) 0.8140(4) 0.8515(3)
H33 H -0.0890 0.8596 0.8968
C29 C 0.1009(4) 0.8080(4) 0.8325(3)
H34 H 0.1283 0.8492 0.8650
C30 C 0.1896(4) 0.7404(4) 0.7650(3)
H35 H 0.2771 0.7355 0.7534
C31 C 0.1510(3) 0.6798(3) 0.7144(3)
C32 C 0.2510(3) 0.6143(3) 0.6354(3)
N1A N -1.0183(3) -0.2775(3) 1.2877(2)
O1A O -0.7268(3) -0.0712(3) 1.0200(2)
C1A C -1.1003(3) -0.2238(4) 1.2213(3)
H1A H -1.1737 -0.2455 1.2282
N2A N -0.7706(3) -0.1347(3) 1.1946(2)
H4A H -0.7460 -0.1440 1.2527
C2A C -1.0790(4) -0.1373(4) 1.1429(3)
H5A H -1.1373 -0.1018 1.0978
C3A C -0.9709(4) -0.1035(4) 1.1317(3)
H6A H -0.9557 -0.0450 1.0795
C4A C -0.8853(3) -0.1588(3) 1.1998(3)
C5A C -0.9146(3) -0.2438(3) 1.2774(3)
H7A H -0.8591 -0.2791 1.3248
C6A C -0.6941(4) -0.0976(4) 1.1055(3)
C7A C -0.5668(4) -0.0963(5) 1.1225(3)
H9A H -0.5843 -0.0462 1.1711
H10A H -0.5223 -0.1701 1.1551
C8A C -0.4759(4) -0.0608(4) 1.0233(3)
H12A H -0.4655 -0.1054 0.9716
H13A H -0.3911 -0.0757 1.0397
O3A O -1.3421(2) 0.6722(3) 0.9619(2)
N3A N -1.6793(3) 0.4892(3) 1.2314(2)
N4A N -1.3789(3) 0.5580(3) 1.1154(2)
H8A H -1.3418 0.5157 1.1658
C9A C -1.7575(3) 0.5523(3) 1.1643(3)
H16A H -1.8431 0.5508 1.1783
C10A C -1.7147(3) 0.6188(4) 1.0755(3)
H17A H -1.7710 0.6596 1.0297
C11A C -1.5894(3) 0.6263(4) 1.0527(3)
H18A H -1.5610 0.6733 0.9939
C12A C -1.5074(3) 0.5603(3) 1.1221(3)
C13A C -1.5565(3) 0.4927(4) 1.2066(3)
H19A H -1.4999 0.4456 1.2500
C14A C -1.3052(3) 0.6136(4) 1.0400(3)
C15A C -1.1699(3) 0.5928(4) 1.0595(3)
H20A H -1.1472 0.6617 1.0390
H21A H -1.1690 0.5673 1.1336
C16A C -1.0693(3) 0.5056(4) 0.9973(3)
H22A H -1.0793 0.5261 0.9247
H23A H -1.0854 0.4343 1.0247
O4A O -1.1931(3) 0.8998(3) 0.4272(3)
N5A N -1.5788(3) 1.2558(3) 0.3490(2)
N6A N -1.3197(3) 1.0614(3) 0.4802(2)
H11A H -1.3358 1.1005 0.5280
C17A C -1.5578(4) 1.2135(4) 0.2622(3)
H24A H -1.6119 1.2496 0.2139
C18A C -1.4586(4) 1.1181(4) 0.2423(3)
H25A H -1.4459 1.0916 0.1809
C19A C -1.3781(4) 1.0622(4) 0.3136(3)
H26A H -1.3119 0.9971 0.3016
C20A C -1.3984(3) 1.1051(3) 0.4032(3)
C21A C -1.4996(3) 1.2012(3) 0.4175(3)
H27A H -1.5136 1.2296 0.4781
C22A C -1.2220(4) 0.9650(4) 0.4870(3)
C23A C -1.1477(4) 0.9439(4) 0.5736(3)
H28A H -1.1916 0.9999 0.6179
H29A H -1.1471 0.8720 0.6164
C24A C -1.0082(5) 0.9467(5) 0.5303(4)
H30A H -0.9658 0.8905 0.4861
H31A H -0.9632 0.9260 0.5885
Co1A Co -2.05532(4) 0.58974(4) 1.40646(4)
O2A O -1.6035(2) 0.4600(2) 1.44222(19)
H2A H -1.5352 0.4724 1.4014
H3A H -1.6356 0.5119 1.4797
Co2A Co -1.73577(4) 0.40100(4) 1.38787(3)
O5A O -2.0506(2) 0.4852(2) 1.31643(18)
O6A O -1.8629(2) 0.3490(2) 1.33257(19)
O7A O -2.2367(2) 0.3603(2) 1.45785(18)
O8A O -2.3466(2) 0.4591(3) 1.3320(2)
O9A O -1.8865(3) 0.5288(3) 1.4516(2)
H14A H -1.859(4) 0.554(4) 1.464(4)
O10A O -2.2278(3) 0.6818(3) 1.4628(2)
H15A H -2.228(5) 0.733(4) 1.460(4)
C25A C -1.9738(3) 0.3880(3) 1.3097(2)
C26A C -2.0190(3) 0.3157(3) 1.2647(2)
C27A C -1.9310(3) 0.2472(3) 1.1963(3)
H32A H -1.8435 0.2427 1.1827
C28A C -1.9713(4) 0.1860(4) 1.1485(3)
H33A H -1.9110 0.1404 1.1032
C29A C -2.1009(4) 0.1920(4) 1.1675(3)
H34A H -2.1283 0.1508 1.1350
C30A C -2.1896(4) 0.2596(4) 1.2350(3)
H35A H -2.2771 0.2645 1.2466
C31A C -2.1510(3) 0.3202(3) 1.2856(3)
C32A C -2.2510(3) 0.3857(3) 1.3646(3)
Co1_2 Co -1.94468(4) 0.41026(4) 1.59354(4)
Co1A_2 Co -1.05532(4) -0.41026(4) 1.40646(4)
Co1A_3 Co -0.05532(4) 0.58974(4) 0.40646(4)
N1A_2 N -2.0183(3) 0.7225(3) 1.2877(2)
Co2_2 Co -2.26423(4) 0.59900(4) 1.61213(3)
Co2A_2 Co -1.73577(4) 1.40100(4) 0.38787(3)
Co2A_3 Co 0.26423(4) 0.40100(4) 0.38787(3)
N5A_2 N -1.5788(3) 0.2558(3) 1.3490(2)
O9_2 O -2.1135(3) 0.4712(3) 1.5484(2)
O9A_2 O 0.1135(3) 0.5288(3) 0.4516(2)
O10_2 O -1.7722(3) 0.3182(3) 1.5372(2)
O10A_2 O -0.2278(3) 0.6818(3) 0.4628(2)
O11 O -0.6153(2) 0.3109(3) 0.6723(2)
H36 H -0.6695 0.3554 0.7126
H37 H -0.6584 0.3039 0.6313
O12 O -0.3518(3) 0.2192(3) 0.6193(2)
H38 H -0.4268 0.2535 0.6410
H39 H -0.3154 0.2606 0.5701
loop_
_geom_bond_atom_site_label_1
_geom_bond_atom_site_label_2
_geom_bond_site_symmetry_1
_geom_bond_site_symmetry_2
Co1 N1 1_555 1_555
N1 C1 1_555 1_555
O1 C6 1_555 1_555
C1 H1 1_555 1_555
O2 H2 1_555 1_555
H3 O2 1_555 1_555
Co2 O2 1_555 1_555
N2 H4 1_555 1_555
C2 C1 1_555 1_555
H5 C2 1_555 1_555
O3 C14 1_555 1_555
C3 C2 1_555 1_555
H6 C3 1_555 1_555
C4 N2 1_555 1_555
N3 Co2 1_555 1_555
O4 C22 1_555 1_555
C5 N1 1_555 1_555
H7 C5 1_555 1_555
N4 H8 1_555 1_555
C6 N2 1_555 1_555
O5 Co1 1_555 1_555
N5 Co2 1_555 1_555
C7 C6 1_555 1_555
H9 C7 1_555 1_555
H10 C7 1_555 1_555
O6 Co2 1_555 1_555
N6 H11 1_555 1_555
C8 C7 1_555 1_555
H12 C8 1_555 1_555
H13 C8 1_555 1_555
O7 C32 1_555 1_555
O8 C32 1_555 1_555
O9 Co1 1_555 1_555
H14 O9 1_555 1_555
O10 Co1 1_555 1_555
H15 O10 1_555 1_555
C9 N3 1_555 1_555
H16 C9 1_555 1_555
C10 C9 1_555 1_555
H17 C10 1_555 1_555
C11 C10 1_555 1_555
H18 C11 1_555 1_555
C12 N4 1_555 1_555
C13 N3 1_555 1_555
H19 C13 1_555 1_555
C14 N4 1_555 1_555
C15 C14 1_555 1_555
H20 C15 1_555 1_555
H21 C15 1_555 1_555
C16 C15 1_555 1_555
H22 C16 1_555 1_555
H23 C16 1_555 1_555
C17 N5 1_555 1_555
H24 C17 1_555 1_555
C18 C17 1_555 1_555
H25 C18 1_555 1_555
C19 C18 1_555 1_555
H26 C19 1_555 1_555
C20 N6 1_555 1_555
C21 N5 1_555 1_555
H27 C21 1_555 1_555
C22 N6 1_555 1_555
C23 C22 1_555 1_555
H28 C23 1_555 1_555
H29 C23 1_555 1_555
C24 C23 1_555 1_555
H30 C24 1_555 1_555
H31 C24 1_555 1_555
C25 O5 1_555 1_555
C26 C25 1_555 1_555
C27 C26 1_555 1_555
H32 C27 1_555 1_555
C28 C27 1_555 1_555
H33 C28 1_555 1_555
C29 C28 1_555 1_555
H34 C29 1_555 1_555
C30 C29 1_555 1_555
H35 C30 1_555 1_555
C31 C26 1_555 1_555
C32 C31 1_555 1_555
O11 H36 1_555 1_555
H37 O11 1_555 1_555
O12 H38 1_555 1_555
H39 O12 1_555 1_555
N1A C1A 1_555 1_555
O1A C6A 1_555 1_555
C1A H1A 1_555 1_555
N2A H4A 1_555 1_555
C2A C1A 1_555 1_555
H5A C2A 1_555 1_555
C3A C2A 1_555 1_555
H6A C3A 1_555 1_555
C4A N2A 1_555 1_555
C5A N1A 1_555 1_555
H7A C5A 1_555 1_555
C6A N2A 1_555 1_555
C7A C6A 1_555 1_555
H9A C7A 1_555 1_555
H10A C7A 1_555 1_555
C8A C8 1_555 1_555
H12A C8A 1_555 1_555
H13A C8A 1_555 1_555
O3A C14A 1_555 1_555
N3A C9A 1_555 1_555
N4A H8A 1_555 1_555
C9A H16A 1_555 1_555
C10A C9A 1_555 1_555
H17A C10A 1_555 1_555
C11A C10A 1_555 1_555
H18A C11A 1_555 1_555
C12A N4A 1_555 1_555
C13A N3A 1_555 1_555
H19A C13A 1_555 1_555
C14A N4A 1_555 1_555
C15A C14A 1_555 1_555
H20A C15A 1_555 1_555
H21A C15A 1_555 1_555
C16A C16 1_555 1_555
H22A C16A 1_555 1_555
H23A C16A 1_555 1_555
O4A C22A 1_555 1_555
N5A C17A 1_555 1_555
N6A H11A 1_555 1_555
C17A H24A 1_555 1_555
C18A C17A 1_555 1_555
H25A C18A 1_555 1_555
C19A C18A 1_555 1_555
H26A C19A 1_555 1_555
C20A N6A 1_555 1_555
C21A N5A 1_555 1_555
H27A C21A 1_555 1_555
C22A N6A 1_555 1_555
C23A C22A 1_555 1_555
H28A C23A 1_555 1_555
H29A C23A 1_555 1_555
C24A C24 1_555 1_555
H30A C24A 1_555 1_555
H31A C24A 1_555 1_555
Co1A O5A 1_555 1_555
O2A H2A 1_555 1_555
H3A O2A 1_555 1_555
Co2A N3A 1_555 1_555
O5A C25A 1_555 1_555
O6A Co2A 1_555 1_555
O7A C32A 1_555 1_555
O8A C32A 1_555 1_555
O9A Co1A 1_555 1_555
H14A O9A 1_555 1_555
O10A Co1A 1_555 1_555
H15A O10A 1_555 1_555
C25A O6A 1_555 1_555
C26A C25A 1_555 1_555
C27A C26A 1_555 1_555
H32A C27A 1_555 1_555
C28A C27A 1_555 1_555
H33A C28A 1_555 1_555
C29A C28A 1_555 1_555
H34A C29A 1_555 1_555
C30A C29A 1_555 1_555
H35A C30A 1_555 1_555
C31A C26A 1_555 1_555
C32A C31A 1_555 1_555
Co1_2 O9A 1_555 1_555
Co1A_2 N1A 1_555 1_555
Co1A_3 O9 1_555 1_555
N1A_2 Co1A 1_555 1_555
Co2_2 O10A 1_555 1_555
Co2A_2 N5A 1_555 1_555
Co2A_3 O10 1_555 1_555
N5A_2 Co2A 1_555 1_555
O9_2 Co1A 1_555 1_555
O9A_2 Co1 1_555 1_555
O10_2 Co2A 1_555 1_555
O10A_2 Co2 1_555 1_555
Co2 O9 1_555 1_555
C3 C4 1_555 1_555
C4 C5 1_555 1_555
O6 C25 1_555 1_555
C11 C12 1_555 1_555
C12 C13 1_555 1_555
C19 C20 1_555 1_555
C20 C21 1_555 1_555
C30 C31 1_555 1_555
C3A C4A 1_555 1_555
C4A C5A 1_555 1_555
C7A C8A 1_555 1_555
C11A C12A 1_555 1_555
C12A C13A 1_555 1_555
C15A C16A 1_555 1_555
C19A C20A 1_555 1_555
C20A C21A 1_555 1_555
C23A C24A 1_555 1_555
O2A Co2A 1_555 1_555
Co2A O9A 1_555 1_555
C30A C31A 1_555 1_555
Co1_2 O9_2 1_555 1_555
Co1_2 O10_2 1_555 1_555
Co1A_3 O9A_2 1_555 1_555
Co1A_3 O10A_2 1_555 1_555
Co2_2 O9_2 1_555 1_555
Co2A_3 O9A_2 1_555 1_555

#END
