
#######################################################################
#
#                 Cambridge Crystallographic Data Centre
#                                CCDC 
#
#######################################################################
#
# If this CIF has been generated from an entry in the Cambridge 
# Structural Database, then it will include bibliographic, chemical, 
# crystal, experimental, refinement or atomic coordinate data resulting 
# from the CCDC's data processing and validation procedures.
#
#######################################################################

data_VOPKAM
_symmetry_cell_setting           orthorhombic
_symmetry_space_group_name_H-M   'P 21 21 21'
_symmetry_Int_Tables_number      19
_space_group_name_Hall           'P 2ac 2ab'
loop_
_symmetry_equiv_pos_site_id
_symmetry_equiv_pos_as_xyz
1 x,y,z
2 1/2+x,1/2-y,-z
3 -x,1/2+y,1/2-z
4 1/2-x,-y,1/2+z
_cell_length_a                   6.062(1)
_cell_length_b                   8.267(1)
_cell_length_c                   33.175(3)
_cell_angle_alpha                90
_cell_angle_beta                 90
_cell_angle_gamma                90
_cell_volume                     1662.55
loop_
_atom_site_label
_atom_site_type_symbol
_atom_site_fract_x
_atom_site_fract_y
_atom_site_fract_z
Na1 Na 0.0281(2) 0.7872(1) 0.1996
O1 O 0.2957(3) 0.5671(2) 0.2028
O2 O 0.2580(3) 0.3103(2) 0.1858
O3 O 0.2130(3) 0.6682(2) 0.0403
O4 O -0.0763(2) 0.6789(2) 0.1361
O5 O -0.2947(4) 0.6679(2) 0.2341(1)
O6 O -0.2455(4) 1.0189(2) 0.2087(1)
O7 O 0.1277(2) 0.8440(3) 0.2689(1)
O8 O 0.3053(5) 0.9700(3) 0.1757(1)
N1 N 0.3591(3) 0.6571(3) 0.1027(1)
N2 N 0.7783(3) 0.6813(2) 0.0735(1)
C1 C 0.3433(4) 0.4469(3) 0.1814(1)
C2 C 0.5260(4) 0.4642(3) 0.1504(1)
C3 C 0.5380(4) 0.6323(3) 0.1313(1)
C4 C 0.7629(4) 0.6644(3) 0.1132(1)
C5 C 0.6035(4) 0.6549(3) 0.0441(1)
C6 C 0.3760(4) 0.6590(3) 0.0627(1)
C7 C 0.6457(5) 0.5001(3) 0.0196(1)
C8 C 0.6639(4) 0.3500(3) 0.0449(1)
C9 C 0.4851(5) 0.2460(3) 0.0501(1)
C10 C 0.4992(7) 0.1132(3) 0.0753(1)
C11 C 0.6937(8) 0.0840(3) 0.0962(1)
C12 C 0.8737(6) 0.1823(4) 0.0910(1)
C13 C 0.8593(5) 0.3146(3) 0.0649(1)
H1 H 0.237(4) 0.661(3) 0.1122(6)
H2 H 0.902(4) 0.691(3) 0.0627(7)
H3 H 0.504(4) 0.386(2) 0.1307(5)
H4 H 0.665(4) 0.443(3) 0.1646(6)
H5 H 0.529(3) 0.712(2) 0.1535(5)
H6 H 0.609(4) 0.749(2) 0.0244(5)
H7 H 0.794(4) 0.523(3) 0.0034(6)
H8 H 0.531(4) 0.484(3) -0.0009(6)
H9 H -0.304(5) 0.701(3) 0.2582(8)
H10 H -0.424(6) 0.652(4) 0.2258(8)
H11 H -0.211(6) 1.116(4) 0.2060(9)
H12 H -0.273(9) 1.003(5) 0.236(1)
H13 H 0.024(6) 0.841(4) 0.2853(8)
H14 H 0.174(5) 0.941(3) 0.2666(7)
H15 H 0.278(6) 1.079(4) 0.1727(8)
H16 H 0.425(6) 0.974(4) 0.1858(9)
H17 H 0.3414 0.2753 0.03600
H18 H 0.41170 0.02800 0.08640
H19 H 0.72540 -0.02460 0.11400
H20 H 1.02580 0.17230 0.10950
H21 H 1.00220 0.39790 0.06620
O4_2 O 0.9237(2) 0.6789(2) 0.1361
Na1_2 Na 1.0281(2) 0.7872(1) 0.1996
loop_
_geom_bond_atom_site_label_1
_geom_bond_atom_site_label_2
_geom_bond_site_symmetry_1
_geom_bond_site_symmetry_2
Na1 O1 1_555 1_555
O1 C1 1_555 1_555
O2 C1 1_555 1_555
O3 C6 1_555 1_555
O4 Na1 1_555 1_555
O5 Na1 1_555 1_555
O6 Na1 1_555 1_555
O7 Na1 1_555 1_555
O8 Na1 1_555 1_555
N1 C3 1_555 1_555
N2 C4 1_555 1_555
C1 C2 1_555 1_555
C2 C3 1_555 1_555
C3 C4 1_555 1_555
C4 O4_2 1_555 1_555
C5 N2 1_555 1_555
C6 N1 1_555 1_555
C7 C5 1_555 1_555
C8 C7 1_555 1_555
C9 C8 1_555 1_555
C10 C9 1_555 1_555
C11 C10 1_555 1_555
C12 C11 1_555 1_555
C13 C8 1_555 1_555
H1 N1 1_555 1_555
H2 N2 1_555 1_555
H3 C2 1_555 1_555
H4 C2 1_555 1_555
H5 C3 1_555 1_555
H6 C5 1_555 1_555
H7 C7 1_555 1_555
H8 C7 1_555 1_555
H9 O5 1_555 1_555
H10 O5 1_555 1_555
H11 O6 1_555 1_555
H12 O6 1_555 1_555
H13 O7 1_555 1_555
H14 O7 1_555 1_555
H15 O8 1_555 1_555
H16 O8 1_555 1_555
H17 C9 1_555 1_555
H18 C10 1_555 1_555
H19 C11 1_555 1_555
H20 C12 1_555 1_555
H21 C13 1_555 1_555
O4_2 Na1_2 1_555 1_555
C5 C6 1_555 1_555
C12 C13 1_555 1_555

#END
