
#######################################################################
#
#                 Cambridge Crystallographic Data Centre
#                                CCDC 
#
#######################################################################
#
# If this CIF has been generated from an entry in the Cambridge 
# Structural Database, then it will include bibliographic, chemical, 
# crystal, experimental, refinement or atomic coordinate data resulting 
# from the CCDC's data processing and validation procedures.
#
#######################################################################

data_VOPLIV
_symmetry_cell_setting           trigonal
_symmetry_space_group_name_H-M   'P -3'
_symmetry_Int_Tables_number      147
_space_group_name_Hall           '-P 3'
loop_
_symmetry_equiv_pos_site_id
_symmetry_equiv_pos_as_xyz
1 x,y,z
2 -y,x-y,z
3 -x+y,-x,z
4 -x,-y,-z
5 y,-x+y,-z
6 x-y,x,-z
_cell_length_a                   12.880(2)
_cell_length_b                   12.880(2)
_cell_length_c                   9.1173(8)
_cell_angle_alpha                90
_cell_angle_beta                 90
_cell_angle_gamma                120
_cell_volume                     1309.87
loop_
_atom_site_label
_atom_site_type_symbol
_atom_site_fract_x
_atom_site_fract_y
_atom_site_fract_z
Mn1 Mn 0.0000 0.0000 0.0000
Mn2 Mn 0.0000 0.0000 0.5000
O1 O 0.1586(3) 0.0412(3) 0.1307(3)
O2 O 0.1529(3) 0.1040(3) 0.3584(3)
C1 C 0.1846(5) 0.0543(5) 0.2632(5)
C2 C 0.2687(5) 0.0134(5) 0.3254(5)
N1 N 0.2845(4) -0.0770(4) 0.2389(5)
C3 C 0.3429(7) -0.0289(7) 0.0939(6)
C4 C 0.3625(7) -0.1090(7) 0.3261(7)
C5 C 0.1647(7) -0.1885(6) 0.2158(9)
H1 H 0.2387 -0.0206 0.4203
H2 H 0.3465 0.0835 0.3358
H3 H 0.2937 -0.0079 0.0365
H4 H 0.3525 -0.0889 0.0432
H5 H 0.4200 0.0409 0.1090
H6 H 0.3740 -0.1669 0.2731
H7 H 0.3250 -0.1424 0.4186
H8 H 0.4388 -0.0384 0.3427
H9 H 0.1137 -0.1690 0.1598
H10 H 0.1283 -0.2205 0.3092
H11 H 0.1758 -0.2470 0.1638
O1C O -0.1586(3) -0.0412(3) -0.1307(3)
O1A O -0.0412(3) 0.1174(4) 0.1307(3)
O1D O 0.0412(3) -0.1174(4) -0.1307(3)
O1B O -0.1174(4) -0.1586(3) 0.1307(3)
O1E O 0.1174(4) 0.1586(3) -0.1307(3)
O2C O -0.1529(3) -0.1040(3) 0.6416(3)
O2A O -0.1040(3) 0.0489(4) 0.3584(3)
O2D O 0.1040(3) -0.0489(4) 0.6416(3)
O2B O -0.0489(4) -0.1529(3) 0.3584(3)
O2E O 0.0489(4) 0.1529(3) 0.6416(3)
C1A C -0.0543(5) 0.1303(7) 0.2632(5)
C1B C -0.1303(7) -0.1846(5) 0.2632(5)
C1C C -0.1846(5) -0.0543(5) 0.7368(5)
C1D C 0.0543(5) -0.1303(7) 0.7368(5)
C1E C 0.1303(7) 0.1846(5) 0.7368(5)
C2A C -0.0134(5) 0.2553(7) 0.3254(5)
C2B C -0.2553(7) -0.2687(5) 0.3254(5)
N1A N 0.0770(4) 0.3615(6) 0.2389(5)
H1A H 0.0206 0.2593 0.4203
H2A H -0.0835 0.2630 0.3358
N1B N -0.3615(6) -0.2845(4) 0.2389(5)
H1B H -0.2593 -0.2387 0.4203
H2B H -0.2630 -0.3465 0.3358
C3A C 0.0289(7) 0.3718(10) 0.0939(6)
C4A C 0.1090(7) 0.4715(10) 0.3261(7)
C5A C 0.1885(6) 0.3532(9) 0.2158(9)
C3B C -0.3718(10) -0.3429(7) 0.0939(6)
C4B C -0.4715(10) -0.3625(7) 0.3261(7)
C5B C -0.3532(9) -0.1647(7) 0.2158(9)
H3A H 0.0079 0.3016 0.0365
H4A H 0.0889 0.4414 0.0432
H5A H -0.0409 0.3791 0.1090
H6A H 0.1669 0.5409 0.2731
H7A H 0.1424 0.4674 0.4186
H8A H 0.0384 0.4772 0.3427
H9A H 0.1690 0.2827 0.1598
H10A H 0.2205 0.3488 0.3092
H11A H 0.2470 0.4228 0.1638
H3B H -0.3016 -0.2937 0.0365
H4B H -0.4414 -0.3525 0.0432
H5B H -0.3791 -0.4200 0.1090
H6B H -0.5409 -0.3740 0.2731
H7B H -0.4674 -0.3250 0.4186
H8B H -0.4772 -0.4388 0.3427
H9B H -0.2827 -0.1137 0.1598
H10B H -0.3488 -0.1283 0.3092
H11B H -0.4228 -0.1758 0.1638
O1D_2 O 0.0412(3) -0.1174(4) 0.8693(3)
C2D C 0.0134(5) -0.2553(7) 0.6746(5)
O1C_2 O -0.1586(3) -0.0412(3) 0.8693(3)
C2C C -0.2687(5) -0.0134(5) 0.6746(5)
O1E_2 O 0.1174(4) 0.1586(3) 0.8693(3)
C2E C 0.2553(7) 0.2687(5) 0.6746(5)
Mn1_2 Mn 0.0000 0.0000 1.0000
N1E N 0.3615(6) 0.2845(4) 0.7611(5)
H1E H 0.2593 0.2387 0.5797
H2E H 0.2630 0.3465 0.6642
N1D N -0.0770(4) -0.3615(6) 0.7611(5)
H1D H -0.0206 -0.2593 0.5797
H2D H 0.0835 -0.2630 0.6642
N1C N -0.2845(4) 0.0770(4) 0.7611(5)
H1C H -0.2387 0.0206 0.5797
H2C H -0.3465 -0.0835 0.6642
C3E C 0.3718(10) 0.3429(7) 0.9061(6)
C4E C 0.4715(10) 0.3625(7) 0.6739(7)
C5E C 0.3532(9) 0.1647(7) 0.7842(9)
C3D C -0.0289(7) -0.3718(10) 0.9061(6)
C4D C -0.1090(7) -0.4715(10) 0.6739(7)
C5D C -0.1885(6) -0.3532(9) 0.7842(9)
C3C C -0.3429(7) 0.0289(7) 0.9061(6)
C4C C -0.3625(7) 0.1090(7) 0.6739(7)
C5C C -0.1647(7) 0.1885(6) 0.7842(9)
H3E H 0.3016 0.2937 0.9635
H4E H 0.4414 0.3525 0.9568
H5E H 0.3791 0.4200 0.8910
H6E H 0.5409 0.3740 0.7269
H7E H 0.4674 0.3250 0.5814
H8E H 0.4772 0.4388 0.6573
H9E H 0.2827 0.1137 0.8402
H10E H 0.3488 0.1283 0.6908
H11E H 0.4228 0.1758 0.8362
H3D H -0.0079 -0.3016 0.9635
H4D H -0.0889 -0.4414 0.9568
H5D H 0.0409 -0.3791 0.8910
H6D H -0.1669 -0.5409 0.7269
H7D H -0.1424 -0.4674 0.5814
H8D H -0.0384 -0.4772 0.6573
H9D H -0.1690 -0.2827 0.8402
H10D H -0.2205 -0.3488 0.6908
H11D H -0.2470 -0.4228 0.8362
H3C H -0.2937 0.0079 0.9635
H4C H -0.3525 0.0889 0.9568
H5C H -0.4200 -0.0409 0.8910
H6C H -0.3740 0.1669 0.7269
H7C H -0.3250 0.1424 0.5814
H8C H -0.4388 0.0384 0.6573
H9C H -0.1137 0.1690 0.8402
H10C H -0.1283 0.2205 0.6908
H11C H -0.1758 0.2470 0.8362
Mn3 Mn 0.3333 0.6667 0.7906(2)
Cl1 Cl 0.3333 0.6667 1.0500(3)
Cl2 Cl 0.5115(2) 0.6701(2) 0.7189(2)
Cl2A Cl 0.3299(2) 0.8414(3) 0.7189(2)
Cl2B Cl 0.1586(3) 0.4885(2) 0.7189(2)
loop_
_geom_bond_atom_site_label_1
_geom_bond_atom_site_label_2
_geom_bond_site_symmetry_1
_geom_bond_site_symmetry_2
Mn1 O1 1_555 1_555
Mn2 O2 1_555 1_555
O1 C1 1_555 1_555
O2 C1 1_555 1_555
C1 C2 1_555 1_555
C2 N1 1_555 1_555
N1 C3 1_555 1_555
C3 H3 1_555 1_555
C4 N1 1_555 1_555
C5 N1 1_555 1_555
Mn3 Cl1 1_555 1_555
Cl2 Mn3 1_555 1_555
H1 C2 1_555 1_555
H2 C2 1_555 1_555
H4 C3 1_555 1_555
H5 C3 1_555 1_555
H6 C4 1_555 1_555
H7 C4 1_555 1_555
H8 C4 1_555 1_555
H9 C5 1_555 1_555
H10 C5 1_555 1_555
H11 C5 1_555 1_555
O1C Mn1 1_555 1_555
O1A Mn1 1_555 1_555
O1D Mn1 1_555 1_555
O1B Mn1 1_555 1_555
O1E Mn1 1_555 1_555
O2C Mn2 1_555 1_555
O2A Mn2 1_555 1_555
O2D Mn2 1_555 1_555
O2B Mn2 1_555 1_555
O2E Mn2 1_555 1_555
C1A O1A 1_555 1_555
C1B O1B 1_555 1_555
C1C O2C 1_555 1_555
C1D O2D 1_555 1_555
C1E O2E 1_555 1_555
C2A C1A 1_555 1_555
C2B C1B 1_555 1_555
N1A C2A 1_555 1_555
H1A C2A 1_555 1_555
H2A C2A 1_555 1_555
N1B C2B 1_555 1_555
H1B C2B 1_555 1_555
H2B C2B 1_555 1_555
C3A N1A 1_555 1_555
C4A N1A 1_555 1_555
C5A N1A 1_555 1_555
C3B N1B 1_555 1_555
C4B N1B 1_555 1_555
C5B N1B 1_555 1_555
H3A C3A 1_555 1_555
H4A C3A 1_555 1_555
H5A C3A 1_555 1_555
H6A C4A 1_555 1_555
H7A C4A 1_555 1_555
H8A C4A 1_555 1_555
H9A C5A 1_555 1_555
H10A C5A 1_555 1_555
H11A C5A 1_555 1_555
H3B C3B 1_555 1_555
H4B C3B 1_555 1_555
H5B C3B 1_555 1_555
H6B C4B 1_555 1_555
H7B C4B 1_555 1_555
H8B C4B 1_555 1_555
H9B C5B 1_555 1_555
H10B C5B 1_555 1_555
H11B C5B 1_555 1_555
Cl2A Mn3 1_555 1_555
Cl2B Mn3 1_555 1_555
O1D_2 C1D 1_555 1_555
C2D C1D 1_555 1_555
O1C_2 C1C 1_555 1_555
C2C C1C 1_555 1_555
O1E_2 C1E 1_555 1_555
C2E C1E 1_555 1_555
Mn1_2 O1D_2 1_555 1_555
N1E C2E 1_555 1_555
H1E C2E 1_555 1_555
H2E C2E 1_555 1_555
N1D C2D 1_555 1_555
H1D C2D 1_555 1_555
H2D C2D 1_555 1_555
N1C C2C 1_555 1_555
H1C C2C 1_555 1_555
H2C C2C 1_555 1_555
C3E N1E 1_555 1_555
C4E N1E 1_555 1_555
C5E N1E 1_555 1_555
C3D N1D 1_555 1_555
C4D N1D 1_555 1_555
C5D N1D 1_555 1_555
C3C N1C 1_555 1_555
C4C N1C 1_555 1_555
C5C N1C 1_555 1_555
H3E C3E 1_555 1_555
H4E C3E 1_555 1_555
H5E C3E 1_555 1_555
H6E C4E 1_555 1_555
H7E C4E 1_555 1_555
H8E C4E 1_555 1_555
H9E C5E 1_555 1_555
H10E C5E 1_555 1_555
H11E C5E 1_555 1_555
H3D C3D 1_555 1_555
H4D C3D 1_555 1_555
H5D C3D 1_555 1_555
H6D C4D 1_555 1_555
H7D C4D 1_555 1_555
H8D C4D 1_555 1_555
H9D C5D 1_555 1_555
H10D C5D 1_555 1_555
H11D C5D 1_555 1_555
H3C C3C 1_555 1_555
H4C C3C 1_555 1_555
H5C C3C 1_555 1_555
H6C C4C 1_555 1_555
H7C C4C 1_555 1_555
H8C C4C 1_555 1_555
H9C C5C 1_555 1_555
H10C C5C 1_555 1_555
H11C C5C 1_555 1_555
O2A C1A 1_555 1_555
O2B C1B 1_555 1_555
O1C_2 Mn1_2 1_555 1_555
O1E_2 Mn1_2 1_555 1_555

#END
