
#######################################################################
#
#                 Cambridge Crystallographic Data Centre
#                                CCDC 
#
#######################################################################
#
# If this CIF has been generated from an entry in the Cambridge 
# Structural Database, then it will include bibliographic, chemical, 
# crystal, experimental, refinement or atomic coordinate data resulting 
# from the CCDC's data processing and validation procedures.
#
#######################################################################

data_VOPLIV01
_symmetry_cell_setting           trigonal
_symmetry_space_group_name_H-M   'P -3'
_symmetry_Int_Tables_number      147
_space_group_name_Hall           '-P 3'
loop_
_symmetry_equiv_pos_site_id
_symmetry_equiv_pos_as_xyz
1 x,y,z
2 -y,x-y,z
3 -x+y,-x,z
4 -x,-y,-z
5 y,-x+y,-z
6 x-y,x,-z
_cell_length_a                   12.881(3)
_cell_length_b                   12.881(3)
_cell_length_c                   9.107(4)
_cell_angle_alpha                90
_cell_angle_beta                 90
_cell_angle_gamma                120
_cell_volume                     1308.59
loop_
_atom_site_label
_atom_site_type_symbol
_atom_site_fract_x
_atom_site_fract_y
_atom_site_fract_z
Mn1 Mn 0.00000 0.00000 0.00000
Mn2 Mn 0.00000 0.00000 0.50000
O1 O 0.1585(1) 0.1170(1) 0.1307(2)
O2 O 0.1526(1) 0.0492(1) 0.3588(2)
N1 N 0.2840(2) 0.3614(2) 0.2384(2)
C1 C 0.3621(3) 0.4719(2) 0.3256(3)
C2 C 0.1655(2) 0.3532(2) 0.2143(4)
C3 C 0.3439(3) 0.3723(2) 0.0937(3)
C4 C 0.2689(2) 0.2553(2) 0.3252(3)
C5 C 0.1852(2) 0.1305(2) 0.2639(2)
H1 H 0.321(2) 0.459(2) 0.422(3)
H2 H 0.371(2) 0.539(2) 0.276(3)
H3 H 0.437(2) 0.476(2) 0.342(3)
H4 H 0.178(2) 0.423(2) 0.165(3)
H5 H 0.134(2) 0.353(3) 0.303(4)
H6 H 0.116(2) 0.280(2) 0.161(3)
H7 H 0.360(2) 0.451(2) 0.049(3)
H8 H 0.419(2) 0.372(2) 0.111(3)
H9 H 0.288(2) 0.303(2) 0.037(3)
H10 H 0.347(2) 0.268(2) 0.334(3)
H11 H 0.240(2) 0.263(2) 0.421(3)
O2A O -0.0492(1) 0.1034(1) 0.3588(2)
C5A C -0.1305(2) 0.0547(3) 0.2639(2)
O1A O -0.1170(1) 0.0415(1) 0.1307(2)
O1B O -0.0415(1) -0.1585(1) 0.1307(2)
C5B C -0.0547(3) -0.1852(2) 0.2639(2)
O2B O -0.1034(1) -0.1526(1) 0.3588(2)
C4B C -0.0136(3) -0.2689(2) 0.3252(3)
N1B N 0.0774(3) -0.2840(2) 0.2384(2)
C1B C 0.1098(4) -0.3621(3) 0.3256(3)
H1B H 0.138(3) -0.321(2) 0.422(3)
H2B H 0.168(3) -0.371(2) 0.276(3)
H3B H 0.039(3) -0.437(2) 0.342(3)
C2B C 0.1877(3) -0.1655(2) 0.2143(4)
H4B H 0.245(3) -0.178(2) 0.165(3)
H5B H 0.219(4) -0.134(2) 0.303(4)
H6B H 0.164(3) -0.116(2) 0.161(3)
C3B C 0.0284(4) -0.3439(3) 0.0937(3)
H7B H 0.091(3) -0.360(2) 0.049(3)
H8B H -0.047(3) -0.419(2) 0.111(3)
H9B H 0.015(3) -0.288(2) 0.037(3)
H10B H -0.079(3) -0.347(2) 0.334(3)
H11B H 0.023(3) -0.240(2) 0.421(3)
O1C O -0.1585(1) -0.1170(1) -0.1307(2)
O1D O 0.1170(1) -0.0415(1) -0.1307(2)
O1E O 0.0415(1) 0.1585(1) -0.1307(2)
C4A C -0.2553(2) 0.0136(3) 0.3252(3)
N1A N -0.3614(2) -0.0774(3) 0.2384(2)
C1A C -0.4719(2) -0.1098(4) 0.3256(3)
H1A H -0.459(2) -0.138(3) 0.422(3)
H2A H -0.539(2) -0.168(3) 0.276(3)
H3A H -0.476(2) -0.039(3) 0.342(3)
C2A C -0.3532(2) -0.1877(3) 0.2143(4)
H4A H -0.423(2) -0.245(3) 0.165(3)
H5A H -0.353(3) -0.219(4) 0.303(4)
H6A H -0.280(2) -0.164(3) 0.161(3)
C3A C -0.3723(2) -0.0284(4) 0.0937(3)
H7A H -0.451(2) -0.091(3) 0.049(3)
H8A H -0.372(2) 0.047(3) 0.111(3)
H9A H -0.303(2) -0.015(3) 0.037(3)
H10A H -0.268(2) 0.079(3) 0.334(3)
H11A H -0.263(2) -0.023(3) 0.421(3)
O2C O -0.1526(1) -0.0492(1) 0.6412(2)
O2D O 0.0492(1) -0.1034(1) 0.6412(2)
O2E O 0.1034(1) 0.1526(1) 0.6412(2)
C5C C -0.1852(2) -0.1305(2) 0.7361(2)
C5E C 0.0547(3) 0.1852(2) 0.7361(2)
C5D C 0.1305(2) -0.0547(3) 0.7361(2)
O1C_2 O -0.1585(1) -0.1170(1) 0.8693(2)
C4C C -0.2689(2) -0.2553(2) 0.6748(3)
O1E_2 O 0.0415(1) 0.1585(1) 0.8693(2)
C4E C 0.0136(3) 0.2689(2) 0.6748(3)
O1D_2 O 0.1170(1) -0.0415(1) 0.8693(2)
C4D C 0.2553(2) -0.0136(3) 0.6748(3)
Mn1_2 Mn 0.00000 0.00000 1.00000
N1E N -0.0774(3) 0.2840(2) 0.7616(2)
H10E H 0.079(3) 0.347(2) 0.666(3)
H11E H -0.023(3) 0.240(2) 0.579(3)
N1C N -0.2840(2) -0.3614(2) 0.7616(2)
H10C H -0.347(2) -0.268(2) 0.666(3)
H11C H -0.240(2) -0.263(2) 0.579(3)
N1D N 0.3614(2) 0.0774(3) 0.7616(2)
H10D H 0.268(2) -0.079(3) 0.666(3)
H11D H 0.263(2) 0.023(3) 0.579(3)
C1C C -0.3621(3) -0.4719(2) 0.6744(3)
C2C C -0.1655(2) -0.3532(2) 0.7857(4)
C3C C -0.3439(3) -0.3723(2) 0.9063(3)
C1E C -0.1098(4) 0.3621(3) 0.6744(3)
C2E C -0.1877(3) 0.1655(2) 0.7857(4)
C3E C -0.0284(4) 0.3439(3) 0.9063(3)
C1D C 0.4719(2) 0.1098(4) 0.6744(3)
C2D C 0.3532(2) 0.1877(3) 0.7857(4)
C3D C 0.3723(2) 0.0284(4) 0.9063(3)
H1C H -0.321(2) -0.459(2) 0.578(3)
H2C H -0.371(2) -0.539(2) 0.724(3)
H3C H -0.437(2) -0.476(2) 0.658(3)
H4C H -0.178(2) -0.423(2) 0.835(3)
H5C H -0.134(2) -0.353(3) 0.697(4)
H6C H -0.116(2) -0.280(2) 0.839(3)
H7C H -0.360(2) -0.451(2) 0.951(3)
H8C H -0.419(2) -0.372(2) 0.889(3)
H9C H -0.288(2) -0.303(2) 0.963(3)
H1E H -0.138(3) 0.321(2) 0.578(3)
H2E H -0.168(3) 0.371(2) 0.724(3)
H3E H -0.039(3) 0.437(2) 0.658(3)
H4E H -0.245(3) 0.178(2) 0.835(3)
H5E H -0.219(4) 0.134(2) 0.697(4)
H6E H -0.164(3) 0.116(2) 0.839(3)
H7E H -0.091(3) 0.360(2) 0.951(3)
H8E H 0.047(3) 0.419(2) 0.889(3)
H9E H -0.015(3) 0.288(2) 0.963(3)
H1D H 0.459(2) 0.138(3) 0.578(3)
H2D H 0.539(2) 0.168(3) 0.724(3)
H3D H 0.476(2) 0.039(3) 0.658(3)
H4D H 0.423(2) 0.245(3) 0.835(3)
H5D H 0.353(3) 0.219(4) 0.697(4)
H6D H 0.280(2) 0.164(3) 0.839(3)
H7D H 0.451(2) 0.091(3) 0.951(3)
H8D H 0.372(2) -0.047(3) 0.889(3)
H9D H 0.303(2) 0.015(3) 0.963(3)
Mn3 Mn 0.66667 0.33333 0.20977(7)
Cl1 Cl 0.66667 0.33333 -0.0504(1)
Cl2 Cl 0.48843(7) 0.15867(7) 0.28106(9)
Cl2A Cl 0.84133(7) 0.32976(10) 0.28106(9)
Cl2B Cl 0.67024(10) 0.51157(7) 0.28106(9)
loop_
_geom_bond_atom_site_label_1
_geom_bond_atom_site_label_2
_geom_bond_site_symmetry_1
_geom_bond_site_symmetry_2
Mn1 O1 1_555 1_555
Mn2 O2 1_555 1_555
Mn3 Cl1 1_555 1_555
Cl2 Mn3 1_555 1_555
O1 C5 1_555 1_555
O2 C5 1_555 1_555
N1 C1 1_555 1_555
C1 H1 1_555 1_555
C2 N1 1_555 1_555
C3 N1 1_555 1_555
C4 N1 1_555 1_555
C5 C4 1_555 1_555
H2 C1 1_555 1_555
H3 C1 1_555 1_555
H4 C2 1_555 1_555
H5 C2 1_555 1_555
H6 C2 1_555 1_555
H7 C3 1_555 1_555
H8 C3 1_555 1_555
H9 C3 1_555 1_555
H10 C4 1_555 1_555
H11 C4 1_555 1_555
O2A Mn2 1_555 1_555
C5A O2A 1_555 1_555
O1A Mn1 1_555 1_555
O1B Mn1 1_555 1_555
C5B O1B 1_555 1_555
O2B Mn2 1_555 1_555
C4B C5B 1_555 1_555
N1B C4B 1_555 1_555
C1B N1B 1_555 1_555
H1B C1B 1_555 1_555
H2B C1B 1_555 1_555
H3B C1B 1_555 1_555
C2B N1B 1_555 1_555
H4B C2B 1_555 1_555
H5B C2B 1_555 1_555
H6B C2B 1_555 1_555
C3B N1B 1_555 1_555
H7B C3B 1_555 1_555
H8B C3B 1_555 1_555
H9B C3B 1_555 1_555
H10B C4B 1_555 1_555
H11B C4B 1_555 1_555
O1C Mn1 1_555 1_555
O1D Mn1 1_555 1_555
O1E Mn1 1_555 1_555
C4A C5A 1_555 1_555
N1A C4A 1_555 1_555
C1A N1A 1_555 1_555
H1A C1A 1_555 1_555
H2A C1A 1_555 1_555
H3A C1A 1_555 1_555
C2A N1A 1_555 1_555
H4A C2A 1_555 1_555
H5A C2A 1_555 1_555
H6A C2A 1_555 1_555
C3A N1A 1_555 1_555
H7A C3A 1_555 1_555
H8A C3A 1_555 1_555
H9A C3A 1_555 1_555
H10A C4A 1_555 1_555
H11A C4A 1_555 1_555
Cl2A Mn3 1_555 1_555
Cl2B Mn3 1_555 1_555
O2C Mn2 1_555 1_555
O2D Mn2 1_555 1_555
O2E Mn2 1_555 1_555
C5C O2C 1_555 1_555
C5E O2E 1_555 1_555
C5D O2D 1_555 1_555
O1C_2 C5C 1_555 1_555
C4C C5C 1_555 1_555
O1E_2 C5E 1_555 1_555
C4E C5E 1_555 1_555
O1D_2 C5D 1_555 1_555
C4D C5D 1_555 1_555
Mn1_2 O1C_2 1_555 1_555
N1E C4E 1_555 1_555
H10E C4E 1_555 1_555
H11E C4E 1_555 1_555
N1C C4C 1_555 1_555
H10C C4C 1_555 1_555
H11C C4C 1_555 1_555
N1D C4D 1_555 1_555
H10D C4D 1_555 1_555
H11D C4D 1_555 1_555
C1C N1C 1_555 1_555
C2C N1C 1_555 1_555
C3C N1C 1_555 1_555
C1E N1E 1_555 1_555
C2E N1E 1_555 1_555
C3E N1E 1_555 1_555
C1D N1D 1_555 1_555
C2D N1D 1_555 1_555
C3D N1D 1_555 1_555
H1C C1C 1_555 1_555
H2C C1C 1_555 1_555
H3C C1C 1_555 1_555
H4C C2C 1_555 1_555
H5C C2C 1_555 1_555
H6C C2C 1_555 1_555
H7C C3C 1_555 1_555
H8C C3C 1_555 1_555
H9C C3C 1_555 1_555
H1E C1E 1_555 1_555
H2E C1E 1_555 1_555
H3E C1E 1_555 1_555
H4E C2E 1_555 1_555
H5E C2E 1_555 1_555
H6E C2E 1_555 1_555
H7E C3E 1_555 1_555
H8E C3E 1_555 1_555
H9E C3E 1_555 1_555
H1D C1D 1_555 1_555
H2D C1D 1_555 1_555
H3D C1D 1_555 1_555
H4D C2D 1_555 1_555
H5D C2D 1_555 1_555
H6D C2D 1_555 1_555
H7D C3D 1_555 1_555
H8D C3D 1_555 1_555
H9D C3D 1_555 1_555
C5A O1A 1_555 1_555
C5B O2B 1_555 1_555
O1E_2 Mn1_2 1_555 1_555
O1D_2 Mn1_2 1_555 1_555

#END
