
#######################################################################
#
#                 Cambridge Crystallographic Data Centre
#                                CCDC 
#
#######################################################################
#
# If this CIF has been generated from an entry in the Cambridge 
# Structural Database, then it will include bibliographic, chemical, 
# crystal, experimental, refinement or atomic coordinate data resulting 
# from the CCDC's data processing and validation procedures.
#
#######################################################################

data_VOPMEU
_symmetry_cell_setting           triclinic
_symmetry_space_group_name_H-M   'P -1'
_symmetry_Int_Tables_number      2
_space_group_name_Hall           '-P 1'
loop_
_symmetry_equiv_pos_site_id
_symmetry_equiv_pos_as_xyz
1 x,y,z
2 -x,-y,-z
_cell_length_a                   9.5160(19)
_cell_length_b                   10.623(2)
_cell_length_c                   11.146(2)
_cell_angle_alpha                69.456(2)
_cell_angle_beta                 70.599(2)
_cell_angle_gamma                68.404(2)
_cell_volume                     953.97
loop_
_atom_site_label
_atom_site_type_symbol
_atom_site_fract_x
_atom_site_fract_y
_atom_site_fract_z
Cu1 Cu 0.0000 0.5000 0.0000
O1 O 0.0341(4) 0.6038(4) 0.0912(3)
O2 O 0.0217(5) 0.7959(5) 0.1329(4)
O3 O 0.0265(4) 0.6380(4) -0.1661(3)
O4 O 0.0911(5) 0.8293(4) -0.2928(4)
C1 C 0.0119(7) 0.7374(7) 0.0600(5)
C2 C -0.2151(7) 0.8708(6) -0.0442(6)
H1 H -0.2487 0.7864 -0.0246
H2 H -0.2618 0.9091 0.0339
C3 C 0.0353(6) 0.7610(7) -0.1845(6)
C4 C -0.0379(6) 0.8288(6) -0.0694(5)
H3 H -0.0064 0.9166 -0.0961
C5 C -0.2742(8) 0.9796(6) -0.1616(6)
H4 H -0.2306 0.9412 -0.2386
H5 H -0.2423 1.0638 -0.1807
H6 H -0.3879 1.0041 -0.1411
O1A O -0.0341(4) 0.3962(4) -0.0912(3)
O2A O -0.0217(5) 0.2041(5) -0.1329(4)
O3A O -0.0265(4) 0.3620(4) 0.1661(3)
O4A O -0.0911(5) 0.1707(4) 0.2928(4)
C1A C -0.0119(7) 0.2626(7) -0.0600(5)
C2A C 0.2151(7) 0.1292(6) 0.0442(6)
H1A H 0.2487 0.2136 0.0246
H2A H 0.2618 0.0909 -0.0339
C3A C -0.0353(6) 0.2390(7) 0.1845(6)
C4A C 0.0379(6) 0.1712(6) 0.0694(5)
H3A H 0.0064 0.0834 0.0961
C5A C 0.2742(8) 0.0204(6) 0.1616(6)
H4A H 0.2306 0.0588 0.2386
H5A H 0.2423 -0.0638 0.1807
H6A H 0.3879 -0.0041 0.1411
O5 O 0.1263(6) 0.5680(6) 0.3504(5)
H7 H 0.0961 0.5073 0.3367
H8 H 0.0966 0.6497 0.2970
Cu2 Cu 0.5000 0.0000 0.5000
N1 N 0.5149(5) 0.1215(4) 1.3149(4)
N2 N 0.4671(5) 0.1691(4) 0.5641(4)
C6 C 0.4371(6) 0.3928(5) 0.6588(4)
C7 C 0.3975(6) 0.2308(5) 1.2795(5)
H9 H 0.3091 0.2565 1.3470
C8 C 0.3084(6) 0.3572(5) 0.6630(5)
H10 H 0.2067 0.4086 0.6989
C9 C 0.3956(6) 0.3097(5) 1.1510(5)
H11 H 0.3074 0.3855 1.1312
C10 C 0.5919(6) 0.2040(5) 0.5594(5)
H12 H 0.6924 0.1506 0.5234
C11 C 0.3294(7) 0.2473(5) 0.6150(5)
H13 H 0.2394 0.2258 0.6184
C12 C 0.4205(6) 0.5081(5) 0.7160(4)
H14 H 0.3309 0.5887 0.6927
H15 H 0.5151 0.5403 0.6776
C13 C 0.5803(6) 0.3133(5) 0.6043(4)
H16 H 0.6718 0.3344 0.5978
C14 C 0.6497(6) 0.1657(5) 1.0888(5)
H17 H 0.7420 0.1417 1.0239
C15 C 0.6416(6) 0.0903(5) 1.2188(5)
H18 H 0.7284 0.0141 1.2411
C16 C 0.5254(6) 0.2753(5) 1.0521(5)
C17 C 0.3957(6) 0.4570(5) 0.8671(5)
H19 H 0.3683 0.5380 0.9033
H20 H 0.3080 0.4152 0.9046
C18 C 0.5386(6) 0.3506(5) 0.9069(5)
H21 H 0.6209 0.3980 0.8781
H22 H 0.5741 0.2789 0.8574
O6 O 0.1927(4) 0.0605(4) 0.5438(4)
H23 H 0.1265 0.1367 0.5109
H24 H 0.1438 -0.0005 0.5969
N1A N 0.4851(5) -0.1215(4) -0.3149(4)
N2A N 0.5329(5) -0.1691(4) 0.4359(4)
C6A C 0.5629(6) -0.3928(5) 0.3412(4)
C7A C 0.6025(6) -0.2308(5) -0.2795(5)
H9A H 0.6909 -0.2565 -0.3470
C8A C 0.6916(6) -0.3572(5) 0.3370(5)
H10A H 0.7933 -0.4086 0.3011
C9A C 0.6044(6) -0.3097(5) -0.1510(5)
H11A H 0.6926 -0.3855 -0.1312
C10A C 0.4081(6) -0.2040(5) 0.4406(5)
H12A H 0.3076 -0.1506 0.4766
C11A C 0.6706(7) -0.2473(5) 0.3850(5)
H13A H 0.7606 -0.2258 0.3816
C12A C 0.5795(6) -0.5081(5) 0.2840(4)
H14A H 0.6691 -0.5887 0.3073
H15A H 0.4849 -0.5403 0.3224
C13A C 0.4197(6) -0.3133(5) 0.3957(4)
H16A H 0.3282 -0.3344 0.4022
C14A C 0.3503(6) -0.1657(5) -0.0888(5)
H17A H 0.2580 -0.1417 -0.0239
C15A C 0.3584(6) -0.0903(5) -0.2188(5)
H18A H 0.2716 -0.0141 -0.2411
C16A C 0.4746(6) -0.2753(5) -0.0521(5)
C17A C 0.6043(6) -0.4570(5) 0.1329(5)
H19A H 0.6317 -0.5380 0.0967
H20A H 0.6920 -0.4152 0.0954
C18A C 0.4614(6) -0.3506(5) 0.0931(5)
H21A H 0.3791 -0.3980 0.1219
H22A H 0.4259 -0.2789 0.1426
O6A O 0.8073(4) -0.0605(4) 0.4562(4)
H23A H 0.8735 -0.1367 0.4891
H24A H 0.8562 0.0005 0.4031
Cu2_2 Cu 0.5000 0.0000 -0.5000
Cu2_3 Cu 0.5000 0.0000 1.5000
N1_2 N 0.5149(5) 0.1215(4) 0.3149(4)
N1A_2 N 0.4851(5) -0.1215(4) 0.6851(4)
O7 O 0.0162(6) 0.3323(6) 0.4264(5)
H25 H -0.0605 0.3384 0.4955
H26 H -0.0153 0.3272 0.3639
loop_
_geom_bond_atom_site_label_1
_geom_bond_atom_site_label_2
_geom_bond_site_symmetry_1
_geom_bond_site_symmetry_2
Cu1 O1 1_555 1_555
O1 C1 1_555 1_555
O2 C1 1_555 1_555
O3 Cu1 1_555 1_555
O4 C3 1_555 1_555
C1 C4 1_555 1_555
C2 H1 1_555 1_555
H2 C2 1_555 1_555
C3 O3 1_555 1_555
C4 C2 1_555 1_555
H3 C4 1_555 1_555
C5 C2 1_555 1_555
H4 C5 1_555 1_555
H5 C5 1_555 1_555
H6 C5 1_555 1_555
O5 H7 1_555 1_555
H8 O5 1_555 1_555
Cu2 N2 1_555 1_555
N1 C7 1_555 1_555
N2 C10 1_555 1_555
C6 C8 1_555 1_555
C7 H9 1_555 1_555
C8 H10 1_555 1_555
C9 C7 1_555 1_555
H11 C9 1_555 1_555
C10 H12 1_555 1_555
C11 N2 1_555 1_555
H13 C11 1_555 1_555
C12 C6 1_555 1_555
H14 C12 1_555 1_555
H15 C12 1_555 1_555
C13 C6 1_555 1_555
H16 C13 1_555 1_555
C14 H17 1_555 1_555
C15 N1 1_555 1_555
H18 C15 1_555 1_555
C16 C9 1_555 1_555
C17 C12 1_555 1_555
H19 C17 1_555 1_555
H20 C17 1_555 1_555
C18 C16 1_555 1_555
H21 C18 1_555 1_555
H22 C18 1_555 1_555
O6 Cu2 1_555 1_555
H23 O6 1_555 1_555
H24 O6 1_555 1_555
O7 H25 1_555 1_555
H26 O7 1_555 1_555
O1A Cu1 1_555 1_555
O2A C1A 1_555 1_555
O3A Cu1 1_555 1_555
O4A C3A 1_555 1_555
C1A O1A 1_555 1_555
C2A H1A 1_555 1_555
H2A C2A 1_555 1_555
C3A O3A 1_555 1_555
C4A C1A 1_555 1_555
H3A C4A 1_555 1_555
C5A C2A 1_555 1_555
H4A C5A 1_555 1_555
H5A C5A 1_555 1_555
H6A C5A 1_555 1_555
N1A C7A 1_555 1_555
N2A Cu2 1_555 1_555
C6A C8A 1_555 1_555
C7A H9A 1_555 1_555
C8A H10A 1_555 1_555
C9A C7A 1_555 1_555
H11A C9A 1_555 1_555
C10A N2A 1_555 1_555
H12A C10A 1_555 1_555
C11A N2A 1_555 1_555
H13A C11A 1_555 1_555
C12A C6A 1_555 1_555
H14A C12A 1_555 1_555
H15A C12A 1_555 1_555
C13A C6A 1_555 1_555
H16A C13A 1_555 1_555
C14A H17A 1_555 1_555
C15A N1A 1_555 1_555
H18A C15A 1_555 1_555
C16A C9A 1_555 1_555
C17A C12A 1_555 1_555
H19A C17A 1_555 1_555
H20A C17A 1_555 1_555
C18A C16A 1_555 1_555
H21A C18A 1_555 1_555
H22A C18A 1_555 1_555
O6A Cu2 1_555 1_555
H23A O6A 1_555 1_555
H24A O6A 1_555 1_555
Cu2_2 N1A 1_555 1_555
Cu2_3 N1 1_555 1_555
N1_2 Cu2 1_555 1_555
N1A_2 Cu2 1_555 1_555
C3 C4 1_555 1_555
C8 C11 1_555 1_555
C10 C13 1_555 1_555
C14 C15 1_555 1_555
C14 C16 1_555 1_555
C17 C18 1_555 1_555
C2A C4A 1_555 1_555
C3A C4A 1_555 1_555
C8A C11A 1_555 1_555
C10A C13A 1_555 1_555
C14A C15A 1_555 1_555
C14A C16A 1_555 1_555
C17A C18A 1_555 1_555

#END
