
#######################################################################
#
#                 Cambridge Crystallographic Data Centre
#                                CCDC 
#
#######################################################################
#
# If this CIF has been generated from an entry in the Cambridge 
# Structural Database, then it will include bibliographic, chemical, 
# crystal, experimental, refinement or atomic coordinate data resulting 
# from the CCDC's data processing and validation procedures.
#
#######################################################################

data_VOPMIY
_symmetry_cell_setting           monoclinic
_symmetry_space_group_name_H-M   'P n'
_symmetry_Int_Tables_number      7
_space_group_name_Hall           'P -2yac'
loop_
_symmetry_equiv_pos_site_id
_symmetry_equiv_pos_as_xyz
1 x,y,z
2 1/2+x,-y,1/2+z
_cell_length_a                   14.0371(9)
_cell_length_b                   16.8271(11)
_cell_length_c                   15.4072(10)
_cell_angle_alpha                90
_cell_angle_beta                 104.9140(10)
_cell_angle_gamma                90
_cell_volume                     3516.64
loop_
_atom_site_label
_atom_site_type_symbol
_atom_site_fract_x
_atom_site_fract_y
_atom_site_fract_z
Cu1 Cu -0.56641(2) -0.241819(19) -0.47272(2)
O1 O -0.67790(15) -0.23260(12) -0.39113(14)
H1 H -0.6798 -0.1837 -0.3712
H2 H -0.6619 -0.2651 -0.3448
N1 N -0.53809(18) -0.12398(14) -0.47529(16)
N2 N -0.44733(18) -0.25381(13) -0.36456(16)
N3 N -0.07773(17) -0.63903(13) 0.01263(15)
N4 N -0.16682(18) 0.23199(14) -0.09356(16)
C1 C -0.4703(2) 0.12527(18) -0.4682(2)
H3 H -0.5303 0.1576 -0.4723
H4 H -0.4409 0.1415 -0.5174
C2 C -0.2877(2) -0.27060(16) -0.21215(19)
C3 C -0.3797(2) -0.24586(18) -0.2060(2)
H5 H -0.3901 -0.2341 -0.1488
C4 C -0.1468(2) -0.59604(18) 0.03661(19)
H6 H -0.1927 -0.6228 0.0622
C5 C -0.1374(2) 0.2275(2) -0.1687(2)
H7 H -0.0686 0.2248 -0.1633
C6 C -0.3314(2) 0.2333(2) -0.1852(2)
H8 H -0.3999 0.2347 -0.1885
C7 C -0.0138(2) -0.60022(17) -0.02479(19)
H9 H 0.0351 -0.6299 -0.0433
C8 C -0.2043(2) -0.28204(17) -0.1298(2)
H10 H -0.2203 -0.2554 -0.0780
H11 H -0.1438 -0.2573 -0.1393
C9 C -0.5784(2) 0.01023(17) -0.4503(2)
H12 H -0.6217 0.0465 -0.4324
C10 C -0.4611(2) -0.09750(18) -0.5028(2)
H13 H -0.4203 -0.1350 -0.5221
C11 C -0.4970(2) 0.03830(17) -0.47704(19)
C12 C -0.1996(2) 0.2263(2) -0.2536(2)
H14 H -0.1740 0.2229 -0.3049
C13 C -0.0174(2) -0.51853(18) -0.0370(2)
H15 H 0.0289 -0.4930 -0.0631
C14 C -0.0986(2) -0.38569(17) -0.0285(2)
H16 H -0.0374 -0.3647 -0.0407
H17 H -0.1091 -0.3582 0.0251
C15 C -0.5958(2) -0.07032(18) -0.4498(2)
H18 H -0.6511 -0.0885 -0.4306
C16 C -0.4383(2) -0.01785(19) -0.5043(2)
H19 H -0.3825 -0.0015 -0.5240
C17 C -0.2644(2) 0.23440(19) -0.1026(2)
H20 H -0.2880 0.2370 -0.0502
C18 C -0.0886(2) -0.47412(17) -0.01114(18)
C19 C -0.1860(2) -0.37050(17) -0.1092(2)
H21 H -0.2459 -0.3943 -0.0974
H22 H -0.1738 -0.3973 -0.1625
C20 C -0.2784(2) -0.28663(18) -0.2982(2)
H23 H -0.2169 -0.3041 -0.3064
C21 C -0.3582(2) -0.27719(18) -0.3720(2)
H24 H -0.3497 -0.2876 -0.4301
C22 C -0.3009(2) 0.23008(16) -0.2633(2)
C23 C -0.3722(2) 0.22550(19) -0.3535(2)
H25 H -0.3433 0.2503 -0.3991
H26 H -0.4332 0.2548 -0.3527
C24 C -0.1547(2) -0.51475(18) 0.0260(2)
H27 H -0.2051 -0.4867 0.0441
C25 C -0.4567(2) -0.23818(18) -0.2822(2)
H28 H -0.5190 -0.2210 -0.2757
C26 C -0.3966(2) 0.13891(18) -0.3775(2)
H29 H -0.4233 0.1148 -0.3300
H30 H -0.3347 0.1107 -0.3773
Cu1A Cu -0.06641(2) -0.758181(19) 0.02728(2)
Cu1A_2 Cu -0.06641(2) 0.241819(19) 0.02728(2)
N3A N -0.57773(17) -0.36097(13) -0.48737(15)
N4A N -0.66682(18) -0.23199(14) -0.59356(16)
Cu2 Cu -0.19249(3) -0.00193(2) -0.63378(2)
O2 O -0.43773(19) -0.31776(15) -0.70227(18)
O3 O -0.37057(18) -0.08211(15) -0.67710(16)
O4 O -0.21440(17) -0.11534(12) -0.66110(14)
O5 O -0.3267(2) 0.20811(16) -0.63154(18)
O6 O -0.36648(19) -0.24846(14) -0.58056(15)
O7 O -0.22064(15) 0.10949(12) -0.61150(14)
O8 O -0.23389(15) 0.01859(13) -0.76470(14)
O9 O -0.3087(2) 0.0954(2) -0.87786(16)
N5 N -0.16011(19) -0.02189(15) -0.49845(17)
N6 N -0.53269(18) -0.00824(14) -0.13675(17)
C27 C -0.1165(3) 0.03399(19) -0.4397(2)
H31 H -0.1008 0.0834 -0.4624
C28 C -0.1595(3) -0.10500(19) -0.3735(2)
H32 H -0.1757 -0.1551 -0.3527
C29 C -0.1160(2) -0.04800(18) -0.3123(2)
C30 C -0.3623(2) 0.0295(2) -0.0876(2)
H33 H -0.3114 0.0529 -0.0420
C31 C -0.1914(2) -0.06886(17) -0.1814(2)
H34 H -0.2370 -0.1069 -0.2202
H35 H -0.1753 -0.0897 -0.1192
C32 C -0.1800(2) -0.09063(19) -0.4646(2)
H36 H -0.2097 -0.1317 -0.5049
C33 C -0.2968(2) 0.0714(2) -0.7995(2)
C34 C -0.5131(2) -0.03503(19) -0.2124(2)
H37 H -0.5653 -0.0582 -0.2570
C35 C -0.3589(2) 0.1061(2) -0.7411(2)
H38 H -0.4039 0.1465 -0.7763
H39 H -0.3998 0.0633 -0.7254
C36 C -0.3078(3) -0.1305(2) -0.6838(2)
C37 C -0.0934(2) 0.0234(2) -0.3482(2)
H40 H -0.0621 0.0649 -0.3094
C38 C -0.4570(2) 0.0222(2) -0.0753(2)
H41 H -0.4680 0.0400 -0.0202
C39 C -0.3425(2) 0.00293(16) -0.1654(2)
C40 C -0.2428(2) 0.01081(17) -0.1839(2)
H42 H -0.2012 0.0466 -0.1386
H43 H -0.2506 0.0353 -0.2437
C41 C -0.3375(3) -0.2126(2) -0.7208(2)
H44 H -0.3861 -0.2072 -0.7797
H45 H -0.2787 -0.2397 -0.7309
C42 C -0.2985(2) 0.14383(19) -0.6557(2)
C43 C -0.0957(2) -0.06340(19) -0.2132(2)
H46 H -0.0540 -0.0201 -0.1802
H47 H -0.0586 -0.1138 -0.1987
C44 C -0.3812(2) -0.26379(18) -0.6613(2)
C45 C -0.4213(2) -0.0306(2) -0.2286(2)
H48 H -0.4117 -0.0506 -0.2834
Cu2A Cu -0.69249(3) 0.00193(2) -0.13378(2)
N6A N -0.03269(18) 0.00824(14) -0.63675(17)
Cu3 Cu -0.92637(3) -0.45537(2) -0.33468(2)
O10 O -0.83827(17) -0.40698(15) -0.06930(14)
O11 O -0.67041(14) -0.33181(12) -0.25545(14)
O12 O -0.80568(15) -0.39387(13) -0.32921(13)
O13 O -0.84589(18) -0.57585(14) -0.29381(17)
H49 H -0.8404 -0.6038 -0.3429
H50 H -0.8790 -0.6071 -0.2631
O14 O -0.91762(15) -0.43014(13) -0.20981(14)
N7 N -0.56376(18) -0.50171(14) -0.83825(17)
N8 N -0.94260(18) -0.47258(15) -0.46653(17)
C46 C -0.7523(2) -0.46351(17) -0.8171(2)
C47 C -0.9054(2) -0.52084(19) -0.7859(2)
H51 H -0.8596 -0.5541 -0.7408
H52 H -0.9247 -0.5517 -0.8425
C48 C -0.8382(2) -0.41920(18) -0.1474(2)
C49 C -0.8516(2) -0.44674(18) -0.8023(2)
H53 H -0.8923 -0.4188 -0.8556
H54 H -0.8437 -0.4108 -0.7500
C50 C -0.6474(2) -0.5225(2) -0.9006(2)
H55 H -0.6419 -0.5505 -0.9526
C51 C -0.9765(2) -0.49239(18) -0.6531(2)
C52 C -0.9351(2) -0.41149(19) -0.5199(2)
H56 H -0.9172 -0.3609 -0.4934
C53 C -0.9525(3) -0.41894(19) -0.6122(2)
H57 H -0.9480 -0.3736 -0.6477
C54 C -0.9800(2) -0.55640(18) -0.5961(2)
H58 H -0.9931 -0.6084 -0.6203
C55 C -0.7397(2) -0.50463(19) -0.8914(2)
H59 H -0.7960 -0.5207 -0.9367
C56 C -0.9980(2) -0.5044(2) -0.7530(2)
H60 H -1.0311 -0.4563 -0.7836
H61 H -1.0442 -0.5496 -0.7703
C57 C -0.6663(2) -0.44065(18) -0.7553(2)
H62 H -0.6700 -0.4111 -0.7037
C58 C -0.5762(2) -0.46019(17) -0.7677(2)
H63 H -0.5191 -0.4434 -0.7237
C59 C -0.7395(2) -0.37959(18) -0.2584(2)
C60 C -0.7403(2) -0.4238(2) -0.1731(2)
H64 H -0.6877 -0.4019 -0.1232
H65 H -0.7246 -0.4803 -0.1804
C61 C -0.9647(2) -0.54459(19) -0.5051(2)
H66 H -0.9699 -0.5887 -0.4681
O15 O -1.0156(2) -0.30958(16) -0.37903(18)
H67 H -1.0741 -0.2957 -0.4100
H68 H -1.0089 -0.2983 -0.3227
Cu3A Cu -0.42637(3) -0.54463(2) -0.83468(2)
N7A N -1.06376(18) -0.49829(14) -0.33825(17)
O16 O -1.1723(3) -0.3112(2) -0.5211(3)
H69 H -1.2248 -0.3149 -0.5013
H70 H -1.1806 -0.3386 -0.5704
O17 O -0.57067(17) -0.21949(15) -0.12864(16)
H71 H -0.6110 -0.1808 -0.1261
H72 H -0.6042 -0.2625 -0.1472
O18 O -0.71494(18) -0.29173(16) 0.02186(16)
H73 H -0.7687 -0.3192 0.0163
H74 H -0.6710 -0.3208 0.0061
O19 O -0.6142(2) -0.7611(2) -0.3269(2)
H75 H -0.6459 -0.8046 -0.3468
H76 H -0.6037 -0.7589 -0.2688
O20 O -0.41386(19) -0.21429(18) 0.02572(18)
H77 H -0.4583 -0.2251 -0.0237
H78 H -0.3977 -0.2576 0.0569
O21 O -0.50378(17) 0.27861(15) -0.70187(17)
H79 H -0.5372 0.3015 -0.7509
H80 H -0.4593 0.3113 -0.6719
O22 O -0.77027(19) -0.66221(16) -0.41251(18)
H81 H -0.7159 -0.6794 -0.3764
H82 H -0.8040 -0.7023 -0.4402
O23 O -0.2501(2) -0.11658(16) -0.89236(19)
H83 H -0.3050 -0.1249 -0.9328
H84 H -0.2186 -0.1613 -0.8788
O24 O -0.9228(3) -0.21072(17) -0.4728(2)
H85 H -0.9688 -0.2227 -0.4463
H86 H -0.8720 -0.1916 -0.4335
O25 O -0.0684(2) -0.22646(15) -0.6337(2)
H87 H -0.1162 -0.1921 -0.6450
H88 H -0.0265 -0.2144 -0.5831
O26 O -0.5269(2) -0.2814(3) -0.8787(2)
H89 H -0.5423 -0.2313 -0.8786
H90 H -0.5801 -0.3094 -0.8989
loop_
_geom_bond_atom_site_label_1
_geom_bond_atom_site_label_2
_geom_bond_site_symmetry_1
_geom_bond_site_symmetry_2
Cu1 O1 1_555 1_555
O1 H1 1_555 1_555
H2 O1 1_555 1_555
N1 Cu1 1_555 1_555
N2 Cu1 1_555 1_555
N3 C4 1_555 1_555
N4 C5 1_555 1_555
C1 H3 1_555 1_555
H4 C1 1_555 1_555
C2 C3 1_555 1_555
C3 H5 1_555 1_555
C4 H6 1_555 1_555
C5 H7 1_555 1_555
C6 H8 1_555 1_555
C7 N3 1_555 1_555
H9 C7 1_555 1_555
C8 C2 1_555 1_555
H10 C8 1_555 1_555
H11 C8 1_555 1_555
C9 H12 1_555 1_555
C10 N1 1_555 1_555
H13 C10 1_555 1_555
C11 C1 1_555 1_555
C12 C5 1_555 1_555
H14 C12 1_555 1_555
C13 C7 1_555 1_555
H15 C13 1_555 1_555
C14 H16 1_555 1_555
H17 C14 1_555 1_555
C15 N1 1_555 1_555
H18 C15 1_555 1_555
C16 C10 1_555 1_555
H19 C16 1_555 1_555
C17 N4 1_555 1_555
H20 C17 1_555 1_555
C18 C13 1_555 1_555
C19 C8 1_555 1_555
H21 C19 1_555 1_555
H22 C19 1_555 1_555
C20 C2 1_555 1_555
H23 C20 1_555 1_555
C21 N2 1_555 1_555
H24 C21 1_555 1_555
C22 C6 1_555 1_555
C23 C22 1_555 1_555
H25 C23 1_555 1_555
H26 C23 1_555 1_555
C24 C4 1_555 1_555
H27 C24 1_555 1_555
C25 N2 1_555 1_555
H28 C25 1_555 1_555
C26 C1 1_555 1_555
H29 C26 1_555 1_555
H30 C26 1_555 1_555
Cu2 O3 1_555 1_555
O2 C44 1_555 1_555
O3 C36 1_555 1_555
O4 Cu2 1_555 1_555
O5 C42 1_555 1_555
O6 C44 1_555 1_555
O7 Cu2 1_555 1_555
O8 Cu2 1_555 1_555
O9 C33 1_555 1_555
N5 Cu2 1_555 1_555
N6 C34 1_555 1_555
C27 N5 1_555 1_555
H31 C27 1_555 1_555
C28 H32 1_555 1_555
C29 C28 1_555 1_555
C30 H33 1_555 1_555
C31 H34 1_555 1_555
H35 C31 1_555 1_555
C32 N5 1_555 1_555
H36 C32 1_555 1_555
C33 O8 1_555 1_555
C34 H37 1_555 1_555
C35 C33 1_555 1_555
H38 C35 1_555 1_555
H39 C35 1_555 1_555
C36 O4 1_555 1_555
C37 C27 1_555 1_555
H40 C37 1_555 1_555
C38 N6 1_555 1_555
H41 C38 1_555 1_555
C39 C30 1_555 1_555
C40 C31 1_555 1_555
H42 C40 1_555 1_555
H43 C40 1_555 1_555
C41 C36 1_555 1_555
H44 C41 1_555 1_555
H45 C41 1_555 1_555
C42 O7 1_555 1_555
C43 C29 1_555 1_555
H46 C43 1_555 1_555
H47 C43 1_555 1_555
C44 C41 1_555 1_555
C45 C34 1_555 1_555
H48 C45 1_555 1_555
Cu3 O12 1_555 1_555
O10 C48 1_555 1_555
O11 C59 1_555 1_555
O12 C59 1_555 1_555
O13 Cu3 1_555 1_555
H49 O13 1_555 1_555
H50 O13 1_555 1_555
O14 Cu3 1_555 1_555
N7 C50 1_555 1_555
N8 Cu3 1_555 1_555
C46 C49 1_555 1_555
C47 H51 1_555 1_555
H52 C47 1_555 1_555
C48 O14 1_555 1_555
C49 C47 1_555 1_555
H53 C49 1_555 1_555
H54 C49 1_555 1_555
C50 H55 1_555 1_555
C51 C53 1_555 1_555
C52 N8 1_555 1_555
H56 C52 1_555 1_555
C53 C52 1_555 1_555
H57 C53 1_555 1_555
C54 C51 1_555 1_555
H58 C54 1_555 1_555
C55 C46 1_555 1_555
H59 C55 1_555 1_555
C56 C47 1_555 1_555
H60 C56 1_555 1_555
H61 C56 1_555 1_555
C57 C46 1_555 1_555
H62 C57 1_555 1_555
C58 N7 1_555 1_555
H63 C58 1_555 1_555
C59 C60 1_555 1_555
C60 C48 1_555 1_555
H64 C60 1_555 1_555
H65 C60 1_555 1_555
C61 N8 1_555 1_555
H66 C61 1_555 1_555
O15 Cu3 1_555 1_555
H67 O15 1_555 1_555
H68 O15 1_555 1_555
O16 H69 1_555 1_555
H70 O16 1_555 1_555
O17 H71 1_555 1_555
H72 O17 1_555 1_555
O18 H73 1_555 1_555
H74 O18 1_555 1_555
O19 H75 1_555 1_555
H76 O19 1_555 1_555
O20 H77 1_555 1_555
H78 O20 1_555 1_555
O21 H79 1_555 1_555
H80 O21 1_555 1_555
O22 H81 1_555 1_555
H82 O22 1_555 1_555
O23 H83 1_555 1_555
H84 O23 1_555 1_555
O24 H85 1_555 1_555
H86 O24 1_555 1_555
O25 H87 1_555 1_555
H88 O25 1_555 1_555
O26 H89 1_555 1_555
H90 O26 1_555 1_555
Cu1A N3 1_555 1_555
Cu1A_2 N4 1_555 1_555
N3A Cu1 1_555 1_555
N4A Cu1 1_555 1_555
Cu2A N6 1_555 1_555
N6A Cu2 1_555 1_555
Cu3A N7 1_555 1_555
N7A Cu3 1_555 1_555
C3 C25 1_555 1_555
C6 C17 1_555 1_555
C9 C11 1_555 1_555
C9 C15 1_555 1_555
C11 C16 1_555 1_555
C12 C22 1_555 1_555
C14 C18 1_555 1_555
C14 C19 1_555 1_555
C18 C24 1_555 1_555
C20 C21 1_555 1_555
C23 C26 1_555 1_555
C28 C32 1_555 1_555
C29 C37 1_555 1_555
C30 C38 1_555 1_555
C31 C43 1_555 1_555
C35 C42 1_555 1_555
C39 C40 1_555 1_555
C39 C45 1_555 1_555
C50 C55 1_555 1_555
C51 C56 1_555 1_555
C54 C61 1_555 1_555
C57 C58 1_555 1_555

#END
