
#######################################################################
#
#                 Cambridge Crystallographic Data Centre
#                                CCDC 
#
#######################################################################
#
# If this CIF has been generated from an entry in the Cambridge 
# Structural Database, then it will include bibliographic, chemical, 
# crystal, experimental, refinement or atomic coordinate data resulting 
# from the CCDC's data processing and validation procedures.
#
#######################################################################

data_VOPSOK
_symmetry_cell_setting           triclinic
_symmetry_space_group_name_H-M   'P -1'
_symmetry_Int_Tables_number      2
_space_group_name_Hall           '-P 1'
loop_
_symmetry_equiv_pos_site_id
_symmetry_equiv_pos_as_xyz
1 x,y,z
2 -x,-y,-z
_cell_length_a                   8.7506(15)
_cell_length_b                   10.7300(18)
_cell_length_c                   18.933(3)
_cell_angle_alpha                92.997(3)
_cell_angle_beta                 103.096(3)
_cell_angle_gamma                102.456(3)
_cell_volume                     1681.11
loop_
_atom_site_label
_atom_site_type_symbol
_atom_site_fract_x
_atom_site_fract_y
_atom_site_fract_z
Cu1 Cu 0.42038(4) 0.36710(3) 0.12234(2)
Cu2 Cu 1.5000 1.0000 0.5000
O1 O 0.4460(2) 0.19924(18) 0.16516(11)
O2 O 0.3789(3) 0.0716(2) 0.06040(11)
O3 O 0.3759(3) -0.38965(19) 0.06682(11)
O4 O 0.4106(3) -0.46928(18) 0.17401(11)
O5 O 0.4812(3) -0.1923(2) 0.40208(11)
O6 O 0.5054(2) 0.01660(19) 0.39750(10)
O7 O 0.4017(3) 0.2991(2) 0.00951(12)
H1 H 0.387(5) 0.228(4) 0.013(2)
H2 H 0.477(4) 0.322(3) -0.0051(19)
N1 N 0.6570(3) 0.4301(2) 0.14257(15)
N2 N 0.8873(3) 0.5688(2) 0.15551(15)
N3 N 0.9381(3) 1.1927(2) 0.09035(14)
C1 C 1.0739(4) 1.3639(3) 0.05707(17)
H3 H 1.1003 1.4392 0.0357
N4 N 1.0161(3) 0.9286(3) 0.40386(14)
N5 N 1.2622(3) 0.9532(3) 0.46927(14)
C2 C 0.4156(3) 0.0915(3) 0.12799(15)
C3 C 0.4255(3) -0.0215(3) 0.17109(15)
C4 C 0.4123(3) -0.1416(3) 0.13540(15)
H4 H 0.3969 -0.1514 0.0850
C5 C 0.4220(3) -0.2472(3) 0.17462(15)
C6 C 0.4464(3) -0.2320(3) 0.24987(15)
H5 H 0.4537 -0.3021 0.2763
C7 C 0.4601(3) -0.1120(3) 0.28615(15)
C8 C 0.4501(3) -0.0075(3) 0.24668(15)
H6 H 0.4599 0.0725 0.2709
C9 C 0.4010(3) -0.3774(3) 0.13453(15)
C10 C 0.4848(3) -0.0970(3) 0.36774(15)
C11 C 0.7330(4) 0.5327(3) 0.11868(17)
H7 H 0.6854 0.5746 0.0810
C12 C 0.7705(4) 0.3993(3) 0.19784(19)
H8 H 0.7520 0.3302 0.2249
C13 C 0.9117(4) 0.4844(3) 0.20654(19)
H9 H 1.0074 0.4860 0.2405
C14 C 1.0029(4) 0.6868(3) 0.14935(19)
H10 H 1.0098 0.6898 0.0990
H11 H 1.1090 0.6862 0.1788
C15 C 0.9525(4) 0.8049(3) 0.17434(17)
C16 C 0.9055(4) 0.8910(3) 0.12637(17)
H12 H 0.9073 0.8776 0.0777
C17 C 0.8558(4) 0.9971(3) 0.15019(17)
C18 C 0.8521(4) 1.0151(3) 0.22282(17)
H13 H 0.8191 1.0857 0.2392
C19 C 0.8968(4) 0.9296(3) 0.27124(17)
C20 C 0.9476(4) 0.8246(3) 0.24683(17)
H14 H 0.9785 0.7673 0.2793
C21 C 0.8030(4) 1.0900(3) 0.09858(19)
H15 H 0.7483 1.0433 0.0512
H16 H 0.7262 1.1286 0.1162
C22 C 1.0967(4) 1.2056(3) 0.12018(17)
H17 H 1.1394 1.1496 0.1505
N6 N 1.1829(3) 1.3083(2) 0.10044(14)
C23 C 0.9231(4) 1.2933(3) 0.05000(17)
H18 H 0.8279 1.3097 0.0231
C24 C 0.8781(4) 0.9468(4) 0.34809(18)
H19 H 0.8631 1.0325 0.3577
H20 H 0.7816 0.8861 0.3522
C25 C 1.0077(4) 0.8548(3) 0.45982(18)
H21 H 0.9151 0.8030 0.4683
C26 C 1.1590(4) 0.8714(3) 0.50023(18)
H22 H 1.1893 0.8334 0.5426
C27 C 1.1707(4) 0.9853(3) 0.41109(17)
H23 H 1.2089 1.0402 0.3793
Cu1A Cu 1.57962(4) 0.63290(3) 0.87766(2)
O1A O 1.5540(2) 0.80076(18) 0.83484(11)
O2A O 1.6211(3) 0.9284(2) 0.93960(11)
O3A O 1.6241(3) 1.38965(19) 0.93318(11)
O4A O 1.5894(3) 1.46928(18) 0.82599(11)
O5A O 1.5188(3) 1.1923(2) 0.59792(11)
O6A O 1.4946(2) 0.98340(19) 0.60250(10)
O7A O 1.5983(3) 0.7009(2) 0.99049(12)
H1A H 1.613(5) 0.772(4) 0.987(2)
H2A H 1.523(4) 0.678(3) 1.0051(19)
N1A N 1.3430(3) 0.5699(2) 0.85743(15)
N2A N 1.1127(3) 0.4312(2) 0.84449(15)
N3A N 1.0619(3) -0.1927(2) 0.90965(14)
C1A C 0.9261(4) -0.3639(3) 0.94293(17)
H3A H 0.8997 -0.4392 0.9643
N4A N 0.9839(3) 0.0714(3) 0.59614(14)
N5A N 0.7378(3) 0.0468(3) 0.53073(14)
C2A C 1.5844(3) 0.9085(3) 0.87201(15)
C3A C 1.5745(3) 1.0215(3) 0.82891(15)
C4A C 1.5877(3) 1.1416(3) 0.86460(15)
H4A H 1.6031 1.1514 0.9150
C5A C 1.5780(3) 1.2472(3) 0.82538(15)
C6A C 1.5536(3) 1.2320(3) 0.75013(15)
H5A H 1.5463 1.3021 0.7237
C7A C 1.5399(3) 1.1120(3) 0.71385(15)
C8A C 1.5499(3) 1.0075(3) 0.75332(15)
H6A H 1.5401 0.9275 0.7291
C9A C 1.5990(3) 1.3774(3) 0.86547(15)
C10A C 1.5152(3) 1.0970(3) 0.63226(15)
C11A C 1.2670(4) 0.4673(3) 0.88132(17)
H7A H 1.3146 0.4254 0.9190
C12A C 1.2295(4) 0.6007(3) 0.80216(19)
H8A H 1.2480 0.6698 0.7751
C13A C 1.0883(4) 0.5156(3) 0.79346(19)
H9A H 0.9926 0.5140 0.7595
C14A C 0.9971(4) 0.3132(3) 0.85065(19)
H10A H 0.9902 0.3102 0.9010
H11A H 0.8910 0.3138 0.8212
C15A C 1.0475(4) 0.1951(3) 0.82566(17)
C16A C 1.0945(4) 0.1090(3) 0.87363(17)
H12A H 1.0927 0.1224 0.9223
C17A C 1.1442(4) 0.0029(3) 0.84981(17)
C18A C 1.1479(4) -0.0151(3) 0.77718(17)
H13A H 1.1809 -0.0857 0.7608
C19A C 1.1032(4) 0.0704(3) 0.72876(17)
C20A C 1.0524(4) 0.1754(3) 0.75317(17)
H14A H 1.0215 0.2327 0.7207
C21A C 1.1970(4) -0.0900(3) 0.90142(19)
H15A H 1.2517 -0.0433 0.9488
H16A H 1.2738 -0.1286 0.8838
C22A C 0.9033(4) -0.2056(3) 0.87982(17)
H17A H 0.8606 -0.1496 0.8495
N6A N 0.8171(3) -0.3083(2) 0.89956(14)
C23A C 1.0769(4) -0.2933(3) 0.95000(17)
H18A H 1.1721 -0.3097 0.9769
C24A C 1.1219(4) 0.0532(4) 0.65191(18)
H19A H 1.1369 -0.0325 0.6423
H20A H 1.2184 0.1139 0.6478
C25A C 0.9923(4) 0.1452(3) 0.54018(18)
H21A H 1.0849 0.1970 0.5317
C26A C 0.8410(4) 0.1286(3) 0.49977(18)
H22A H 0.8107 0.1666 0.4574
C27A C 0.8293(4) 0.0147(3) 0.58891(17)
H23A H 0.7911 -0.0402 0.6207
Cu1_2 Cu 0.42038(4) -0.63290(3) 0.12234(2)
Cu1_3 Cu 1.42038(4) 1.36710(3) 0.12234(2)
Cu1A_2 Cu 0.57962(4) -0.36710(3) 0.87766(2)
Cu1A_3 Cu 1.57962(4) 1.63290(3) 0.87766(2)
Cu2_2 Cu 0.5000 0.0000 0.5000
O4_2 O 0.4106(3) 0.53072(18) 0.17401(11)
O4A_2 O 1.5894(3) 0.46928(18) 0.82599(11)
O5_2 O 1.4812(3) 0.8077(2) 0.40208(11)
O6_2 O 1.5054(2) 1.01660(19) 0.39750(10)
N5A_2 N 1.7378(3) 1.0468(3) 0.53073(14)
N6_2 N 0.1829(3) 0.3083(2) 0.10044(14)
N6A_2 N 1.8171(3) 0.6917(2) 0.89956(14)
O8 O 0.1806(5) 0.6273(4) 0.3549(2)
loop_
_geom_bond_atom_site_label_1
_geom_bond_atom_site_label_2
_geom_bond_site_symmetry_1
_geom_bond_site_symmetry_2
Cu1 O1 1_555 1_555
Cu2 N5 1_555 1_555
O1 C2 1_555 1_555
O2 C2 1_555 1_555
O3 C9 1_555 1_555
O4 C9 1_555 1_555
O5 C10 1_555 1_555
O6 C10 1_555 1_555
O7 Cu1 1_555 1_555
H1 O7 1_555 1_555
H2 O7 1_555 1_555
N1 Cu1 1_555 1_555
N2 C11 1_555 1_555
N3 C21 1_555 1_555
C1 H3 1_555 1_555
N4 C24 1_555 1_555
N5 C26 1_555 1_555
C2 C3 1_555 1_555
C3 C4 1_555 1_555
C4 H4 1_555 1_555
C5 C4 1_555 1_555
C6 C5 1_555 1_555
H5 C6 1_555 1_555
C7 C6 1_555 1_555
C8 C3 1_555 1_555
H6 C8 1_555 1_555
C9 C5 1_555 1_555
C10 C7 1_555 1_555
C11 N1 1_555 1_555
H7 C11 1_555 1_555
C12 N1 1_555 1_555
H8 C12 1_555 1_555
C13 N2 1_555 1_555
H9 C13 1_555 1_555
C14 N2 1_555 1_555
H10 C14 1_555 1_555
H11 C14 1_555 1_555
C15 C14 1_555 1_555
C16 C15 1_555 1_555
H12 C16 1_555 1_555
C17 C16 1_555 1_555
C18 C17 1_555 1_555
H13 C18 1_555 1_555
C19 C18 1_555 1_555
C20 C15 1_555 1_555
H14 C20 1_555 1_555
C21 C17 1_555 1_555
H15 C21 1_555 1_555
H16 C21 1_555 1_555
C22 N3 1_555 1_555
H17 C22 1_555 1_555
N6 C1 1_555 1_555
C23 N3 1_555 1_555
H18 C23 1_555 1_555
C24 C19 1_555 1_555
H19 C24 1_555 1_555
H20 C24 1_555 1_555
C25 N4 1_555 1_555
H21 C25 1_555 1_555
C26 C25 1_555 1_555
H22 C26 1_555 1_555
C27 N4 1_555 1_555
H23 C27 1_555 1_555
Cu1A O1A 1_555 1_555
O1A C2A 1_555 1_555
O2A C2A 1_555 1_555
O3A C9A 1_555 1_555
O4A C9A 1_555 1_555
O5A Cu2 1_555 1_555
O6A Cu2 1_555 1_555
O7A Cu1A 1_555 1_555
H1A O7A 1_555 1_555
H2A O7A 1_555 1_555
N1A Cu1A 1_555 1_555
N2A C11A 1_555 1_555
N3A C21A 1_555 1_555
C1A H3A 1_555 1_555
N4A C24A 1_555 1_555
N5A C26A 1_555 1_555
C2A C3A 1_555 1_555
C3A C4A 1_555 1_555
C4A H4A 1_555 1_555
C5A C4A 1_555 1_555
C6A C5A 1_555 1_555
H5A C6A 1_555 1_555
C7A C6A 1_555 1_555
C8A C3A 1_555 1_555
H6A C8A 1_555 1_555
C9A C5A 1_555 1_555
C10A O5A 1_555 1_555
C11A N1A 1_555 1_555
H7A C11A 1_555 1_555
C12A N1A 1_555 1_555
H8A C12A 1_555 1_555
C13A N2A 1_555 1_555
H9A C13A 1_555 1_555
C14A N2A 1_555 1_555
H10A C14A 1_555 1_555
H11A C14A 1_555 1_555
C15A C14A 1_555 1_555
C16A C15A 1_555 1_555
H12A C16A 1_555 1_555
C17A C16A 1_555 1_555
C18A C17A 1_555 1_555
H13A C18A 1_555 1_555
C19A C18A 1_555 1_555
C20A C15A 1_555 1_555
H14A C20A 1_555 1_555
C21A C17A 1_555 1_555
H15A C21A 1_555 1_555
H16A C21A 1_555 1_555
C22A N3A 1_555 1_555
H17A C22A 1_555 1_555
N6A C1A 1_555 1_555
C23A N3A 1_555 1_555
H18A C23A 1_555 1_555
C24A C19A 1_555 1_555
H19A C24A 1_555 1_555
H20A C24A 1_555 1_555
C25A N4A 1_555 1_555
H21A C25A 1_555 1_555
C26A C25A 1_555 1_555
H22A C26A 1_555 1_555
C27A N4A 1_555 1_555
H23A C27A 1_555 1_555
Cu1_2 O4 1_555 1_555
Cu1_3 N6 1_555 1_555
Cu1A_2 N6A 1_555 1_555
Cu1A_3 O4A 1_555 1_555
Cu2_2 O5 1_555 1_555
O4_2 Cu1 1_555 1_555
O4A_2 Cu1A 1_555 1_555
O5_2 Cu2 1_555 1_555
O6_2 Cu2 1_555 1_555
N5A_2 Cu2 1_555 1_555
N6_2 Cu1 1_555 1_555
N6A_2 Cu1A 1_555 1_555
O6 Cu2_2 1_555 1_555
C1 C23 1_555 1_555
N5 C27 1_555 1_555
C7 C8 1_555 1_555
C12 C13 1_555 1_555
C19 C20 1_555 1_555
C22 N6 1_555 1_555
O6A C10A 1_555 1_555
C1A C23A 1_555 1_555
N5A C27A 1_555 1_555
N5A Cu2_2 1_555 1_555
C7A C8A 1_555 1_555
C7A C10A 1_555 1_555
C12A C13A 1_555 1_555
C19A C20A 1_555 1_555
C22A N6A 1_555 1_555

#END
