
#######################################################################
#
#                 Cambridge Crystallographic Data Centre
#                                CCDC 
#
#######################################################################
#
# If this CIF has been generated from an entry in the Cambridge 
# Structural Database, then it will include bibliographic, chemical, 
# crystal, experimental, refinement or atomic coordinate data resulting 
# from the CCDC's data processing and validation procedures.
#
#######################################################################

data_VOPSIE
_symmetry_cell_setting           triclinic
_symmetry_space_group_name_H-M   'P -1'
_symmetry_Int_Tables_number      2
_space_group_name_Hall           '-P 1'
loop_
_symmetry_equiv_pos_site_id
_symmetry_equiv_pos_as_xyz
1 x,y,z
2 -x,-y,-z
_cell_length_a                   8.990(2)
_cell_length_b                   12.728(3)
_cell_length_c                   13.252(3)
_cell_angle_alpha                91.192(4)
_cell_angle_beta                 92.755(4)
_cell_angle_gamma                109.691(4)
_cell_volume                     1424.93
loop_
_atom_site_label
_atom_site_type_symbol
_atom_site_fract_x
_atom_site_fract_y
_atom_site_fract_z
O1 O -0.3422(3) 0.6611(2) 0.4623(2)
C1 C -0.3556(5) 0.6282(4) 0.3706(3)
O2 O -0.4343(3) 0.5279(2) 0.3453(2)
O3 O -0.1902(4) 0.7779(2) -0.0551(2)
O4 O 0.3122(3) 1.4152(2) 0.2091(2)
O5 O 0.1214(4) 1.2609(3) 0.3681(2)
C2 C -0.2924(5) 0.6706(4) 0.1918(3)
H1 H -0.3529 0.5971 0.1735
C3 C -0.2157(5) 0.7426(4) 0.1182(3)
C4 C -0.2358(5) 0.7019(4) 0.0084(3)
O6 O -0.2961(4) 0.6000(3) -0.0111(2)
C5 C 0.2320(6) 0.6872(4) 0.1437(4)
H2 H 0.1567 0.6173 0.1281
C6 C 0.4602(6) 0.8375(4) 0.1008(4)
H3 H 0.5384 0.8695 0.0563
C7 C 0.3491(6) 0.7336(4) 0.0767(3)
C8 C 0.3565(6) 0.6726(4) -0.0207(4)
H4 H 0.4557 0.7109 -0.0508
H5 H 0.3543 0.5977 -0.0061
C9 C 0.1266(6) 0.7262(4) -0.0951(3)
H6 H 0.1302 0.7801 -0.0457
N1 N 0.2237(5) 0.6656(3) -0.0937(3)
C10 C 0.1828(8) 0.5970(6) -0.1774(5)
H7 H 0.2289 0.5454 -0.1978
C11 C 0.0605(7) 0.6191(5) -0.2256(4)
H8 H 0.0076 0.5834 -0.2855
N2 N 0.0263(4) 0.7002(3) -0.1745(3)
Co1 Co 0.5000 0.5000 0.5000
Co2 Co 0.16515(7) 1.24449(5) 0.21003(4)
N3 N 0.3126(4) 0.5563(3) 0.4702(3)
N4 N 0.3565(4) 1.1908(3) 0.2498(3)
O7 O 0.0147(4) 1.0765(2) 0.2011(2)
C12 C 0.1373(6) 0.6424(5) 0.4902(4)
H9 H 0.0692 0.6736 0.5197
N5 N 0.5134(5) 1.0907(3) 0.2480(3)
N6 N 0.1682(5) 0.6427(3) 0.3908(3)
O8 O -0.0001(5) 1.0424(3) 0.3648(2)
C13 C 0.2241(6) 0.5883(4) 0.5376(4)
H10 H 0.2239 0.5746 0.6063
C14 C -0.1917(5) 0.8187(3) 0.3189(3)
H11 H -0.1839 0.8443 0.3858
C15 C -0.1161(5) 0.8914(4) 0.2460(3)
C16 C 0.3917(6) 1.1125(5) 0.2030(4)
H12 H 0.3375 1.0754 0.1440
C17 C -0.2794(5) 0.7075(3) 0.2924(3)
C18 C -0.1269(5) 0.8516(4) 0.1464(3)
H13 H -0.0732 0.8994 0.0979
C19 C 0.2740(6) 0.5904(4) 0.3822(4)
H14 H 0.3155 0.5793 0.3215
C20 C -0.0268(5) 1.0122(4) 0.2736(3)
C21 C 0.2260(6) 0.7432(4) 0.2328(4)
C22 C 0.4566(6) 0.8948(4) 0.1905(4)
C23 C 0.3393(6) 0.8468(4) 0.2558(4)
H15 H 0.3363 0.8847 0.3160
C24 C 0.1033(6) 0.6919(5) 0.3071(4)
H16 H 0.0648 0.7487 0.3343
H17 H 0.0144 0.6344 0.2725
C25 C 0.5815(6) 1.0060(5) 0.2168(5)
H18 H 0.6521 0.9975 0.2712
H19 H 0.6434 1.0313 0.1585
C26 C 0.4590(9) 1.2180(7) 0.3321(7)
H20 H 0.4634 1.2723 0.3813
C27 C 0.5542(9) 1.1553(7) 0.3329(7)
H21 H 0.6320 1.1568 0.3823
H22 H 0.409(4) 1.447(4) 0.246(3)
H23 H 0.328(5) 1.423(4) 0.1407(15)
H24 H 0.204(4) 1.287(4) 0.419(3)
H25 H 0.077(5) 1.1822(17) 0.375(4)
O1A O 0.3422(3) 0.3389(2) 0.5377(2)
C1A C 0.3556(5) 0.3718(4) 0.6294(3)
O2A O 0.4343(3) 0.4721(2) 0.6547(2)
O3A O 0.1902(4) 0.2221(2) 1.0551(2)
O4A O -0.3122(3) -0.4152(2) 0.7909(2)
O5A O -0.1214(4) -0.2609(3) 0.6319(2)
C2A C 0.2924(5) 0.3294(4) 0.8082(3)
H1A H 0.3529 0.4029 0.8265
C3A C 0.2157(5) 0.2574(4) 0.8818(3)
C4A C 0.2358(5) 0.2981(4) 0.9916(3)
O6A O 0.2961(4) 0.4000(3) 1.0111(2)
C5A C -0.2320(6) 0.3128(4) 0.8563(4)
H2A H -0.1567 0.3827 0.8719
C6A C -0.4602(6) 0.1625(4) 0.8992(4)
H3A H -0.5384 0.1305 0.9437
C7A C -0.3491(6) 0.2664(4) 0.9233(3)
C8A C -0.3565(6) 0.3274(4) 1.0207(4)
H4A H -0.4557 0.2891 1.0508
H5A H -0.3543 0.4023 1.0061
C9A C -0.1266(6) 0.2738(4) 1.0951(3)
H6A H -0.1302 0.2199 1.0457
N1A N -0.2237(5) 0.3344(3) 1.0937(3)
C10A C -0.1828(8) 0.4030(6) 1.1774(5)
H7A H -0.2289 0.4546 1.1978
C11A C -0.0605(7) 0.3809(5) 1.2256(4)
H8A H -0.0076 0.4166 1.2855
N2A N -0.0263(4) 0.2998(3) 1.1745(3)
Co2A Co -0.16515(7) -0.24449(5) 0.78997(4)
N3A N -0.3126(4) 0.4437(3) 0.5298(3)
N4A N -0.3565(4) -0.1908(3) 0.7502(3)
O7A O -0.0147(4) -0.0765(2) 0.7989(2)
C12A C -0.1373(6) 0.3576(5) 0.5098(4)
H9A H -0.0692 0.3264 0.4803
N5A N -0.5134(5) -0.0907(3) 0.7520(3)
N6A N -0.1682(5) 0.3573(3) 0.6092(3)
O8A O 0.0001(5) -0.0424(3) 0.6352(2)
C13A C -0.2241(6) 0.4117(4) 0.4624(4)
H10A H -0.2239 0.4254 0.3937
C14A C 0.1917(5) 0.1813(3) 0.6811(3)
H11A H 0.1839 0.1557 0.6142
C15A C 0.1161(5) 0.1086(4) 0.7540(3)
C16A C -0.3917(6) -0.1125(5) 0.7970(4)
H12A H -0.3375 -0.0754 0.8560
C17A C 0.2794(5) 0.2925(3) 0.7076(3)
C18A C 0.1269(5) 0.1484(4) 0.8536(3)
H13A H 0.0732 0.1006 0.9021
C19A C -0.2740(6) 0.4096(4) 0.6178(4)
H14A H -0.3155 0.4207 0.6785
C20A C 0.0268(5) -0.0122(4) 0.7264(3)
C21A C -0.2260(6) 0.2568(4) 0.7672(4)
C22A C -0.4566(6) 0.1052(4) 0.8095(4)
C23A C -0.3393(6) 0.1532(4) 0.7442(4)
H15A H -0.3363 0.1153 0.6840
C24A C -0.1033(6) 0.3081(5) 0.6929(4)
H16A H -0.0648 0.2513 0.6657
H17A H -0.0144 0.3656 0.7275
C25A C -0.5815(6) -0.0060(5) 0.7832(5)
H18A H -0.6521 0.0025 0.7288
H19A H -0.6434 -0.0313 0.8415
C26A C -0.4590(9) -0.2180(7) 0.6679(7)
H20A H -0.4634 -0.2723 0.6187
C27A C -0.5542(9) -0.1553(7) 0.6671(7)
H21A H -0.6320 -0.1568 0.6177
H22A H -0.409(4) -0.447(4) 0.754(3)
H23A H -0.328(5) -0.423(4) 0.8593(15)
H24A H -0.204(4) -0.287(4) 0.581(3)
H25A H -0.077(5) -0.1822(17) 0.625(4)
O1_2 O 0.6578(3) 0.6611(2) 0.4623(2)
O2_2 O 0.5657(3) 0.5279(2) 0.3453(2)
O3_2 O -0.1902(4) -0.2221(2) 0.9449(2)
O3A_2 O 0.1902(4) 1.2221(2) 0.0551(2)
N2_2 N 0.0263(4) -0.2998(3) 0.8255(3)
N2A_2 N -0.0263(4) 1.2998(3) 0.1745(3)
Co1_2 Co -0.5000 0.5000 0.5000
Co2_2 Co 0.16515(7) 0.24449(5) 1.21003(4)
Co2A_2 Co -0.16515(7) 0.75551(5) -0.21003(4)
N3A_2 N 0.6874(4) 0.4437(3) 0.5298(3)
O9 O 0.1940(6) 0.9299(4) 0.4777(4)
H26 H 0.124(5) 0.927(4) 0.529(3)
H27 H 0.282(4) 0.996(3) 0.486(4)
loop_
_geom_bond_atom_site_label_1
_geom_bond_atom_site_label_2
_geom_bond_site_symmetry_1
_geom_bond_site_symmetry_2
O1 C1 1_555 1_555
C1 O2 1_555 1_555
O2 Co1_2 1_555 1_555
O3 C4 1_555 1_555
O4 Co2 1_555 1_555
O5 Co2 1_555 1_555
C2 H1 1_555 1_555
C3 C2 1_555 1_555
C4 C3 1_555 1_555
O6 C4 1_555 1_555
C5 H2 1_555 1_555
C6 H3 1_555 1_555
C7 C5 1_555 1_555
C8 C7 1_555 1_555
H4 C8 1_555 1_555
H5 C8 1_555 1_555
C9 H6 1_555 1_555
N1 C8 1_555 1_555
C10 N1 1_555 1_555
H7 C10 1_555 1_555
C11 C10 1_555 1_555
H8 C11 1_555 1_555
N2 C9 1_555 1_555
Co1 N3 1_555 1_555
Co2 N4 1_555 1_555
N3 C13 1_555 1_555
N4 C16 1_555 1_555
O7 Co2 1_555 1_555
C12 H9 1_555 1_555
N5 C16 1_555 1_555
N6 C12 1_555 1_555
O8 C20 1_555 1_555
C13 C12 1_555 1_555
H10 C13 1_555 1_555
C14 H11 1_555 1_555
C15 C14 1_555 1_555
C16 H12 1_555 1_555
C17 C1 1_555 1_555
C18 C3 1_555 1_555
H13 C18 1_555 1_555
C19 N3 1_555 1_555
H14 C19 1_555 1_555
C20 O7 1_555 1_555
C21 C5 1_555 1_555
C22 C6 1_555 1_555
C23 C21 1_555 1_555
H15 C23 1_555 1_555
C24 N6 1_555 1_555
H16 C24 1_555 1_555
H17 C24 1_555 1_555
C25 N5 1_555 1_555
H18 C25 1_555 1_555
H19 C25 1_555 1_555
C26 N4 1_555 1_555
H20 C26 1_555 1_555
C27 N5 1_555 1_555
H21 C27 1_555 1_555
H22 O4 1_555 1_555
H23 O4 1_555 1_555
H24 O5 1_555 1_555
H25 O5 1_555 1_555
O9 H26 1_555 1_555
H27 O9 1_555 1_555
O1A Co1 1_555 1_555
C1A O1A 1_555 1_555
O2A Co1 1_555 1_555
O3A C4A 1_555 1_555
O4A Co2A 1_555 1_555
O5A Co2A 1_555 1_555
C2A H1A 1_555 1_555
C3A C2A 1_555 1_555
C4A C3A 1_555 1_555
O6A C4A 1_555 1_555
C5A H2A 1_555 1_555
C6A H3A 1_555 1_555
C7A C5A 1_555 1_555
C8A C7A 1_555 1_555
H4A C8A 1_555 1_555
H5A C8A 1_555 1_555
C9A H6A 1_555 1_555
N1A C8A 1_555 1_555
C10A N1A 1_555 1_555
H7A C10A 1_555 1_555
C11A C10A 1_555 1_555
H8A C11A 1_555 1_555
N2A C9A 1_555 1_555
Co2A N4A 1_555 1_555
N3A C13A 1_555 1_555
N4A C16A 1_555 1_555
O7A Co2A 1_555 1_555
C12A H9A 1_555 1_555
N5A C16A 1_555 1_555
N6A C12A 1_555 1_555
O8A C20A 1_555 1_555
C13A C12A 1_555 1_555
H10A C13A 1_555 1_555
C14A H11A 1_555 1_555
C15A C14A 1_555 1_555
C16A H12A 1_555 1_555
C17A C1A 1_555 1_555
C18A C3A 1_555 1_555
H13A C18A 1_555 1_555
C19A N3A 1_555 1_555
H14A C19A 1_555 1_555
C20A O7A 1_555 1_555
C21A C5A 1_555 1_555
C22A C6A 1_555 1_555
C23A C21A 1_555 1_555
H15A C23A 1_555 1_555
C24A N6A 1_555 1_555
H16A C24A 1_555 1_555
H17A C24A 1_555 1_555
C25A N5A 1_555 1_555
H18A C25A 1_555 1_555
H19A C25A 1_555 1_555
C26A N4A 1_555 1_555
H20A C26A 1_555 1_555
C27A N5A 1_555 1_555
H21A C27A 1_555 1_555
H22A O4A 1_555 1_555
H23A O4A 1_555 1_555
H24A O5A 1_555 1_555
H25A O5A 1_555 1_555
O1_2 Co1 1_555 1_555
O2_2 Co1 1_555 1_555
O3_2 Co2A 1_555 1_555
O3A_2 Co2 1_555 1_555
N2_2 Co2A 1_555 1_555
N2A_2 Co2 1_555 1_555
Co1_2 O1 1_555 1_555
Co2_2 O3A 1_555 1_555
Co2A_2 O3 1_555 1_555
N3A_2 Co1 1_555 1_555
C2 C17 1_555 1_555
C6 C7 1_555 1_555
C9 N1 1_555 1_555
C11 N2 1_555 1_555
N2 Co2A_2 1_555 1_555
N6 C19 1_555 1_555
C14 C17 1_555 1_555
C15 C18 1_555 1_555
C15 C20 1_555 1_555
C21 C24 1_555 1_555
C22 C23 1_555 1_555
C22 C25 1_555 1_555
C26 C27 1_555 1_555
C1A O2A 1_555 1_555
C2A C17A 1_555 1_555
C6A C7A 1_555 1_555
C9A N1A 1_555 1_555
C11A N2A 1_555 1_555
N2A Co2_2 1_555 1_555
N3A Co1_2 1_555 1_555
N6A C19A 1_555 1_555
C14A C17A 1_555 1_555
C15A C18A 1_555 1_555
C15A C20A 1_555 1_555
C21A C24A 1_555 1_555
C22A C23A 1_555 1_555
C22A C25A 1_555 1_555
C26A C27A 1_555 1_555

#END
