
#######################################################################
#
#                 Cambridge Crystallographic Data Centre
#                                CCDC 
#
#######################################################################
#
# If this CIF has been generated from an entry in the Cambridge 
# Structural Database, then it will include bibliographic, chemical, 
# crystal, experimental, refinement or atomic coordinate data resulting 
# from the CCDC's data processing and validation procedures.
#
#######################################################################

data_VOPTAX
_symmetry_cell_setting           orthorhombic
_symmetry_space_group_name_H-M   'P 21 21 21'
_symmetry_Int_Tables_number      19
_space_group_name_Hall           'P 2ac 2ab'
loop_
_symmetry_equiv_pos_site_id
_symmetry_equiv_pos_as_xyz
1 x,y,z
2 1/2-x,-y,1/2+z
3 -x,1/2+y,1/2-z
4 1/2+x,1/2-y,-z
_cell_length_a                   4.9328(10)
_cell_length_b                   10.137(2)
_cell_length_c                   29.718(6)
_cell_angle_alpha                90
_cell_angle_beta                 90
_cell_angle_gamma                90
_cell_volume                     1486.01
loop_
_atom_site_label
_atom_site_type_symbol
_atom_site_fract_x
_atom_site_fract_y
_atom_site_fract_z
C1 C 0.8193(17) 1.0686(8) 0.9601(3)
C2 C 0.9529(18) 0.9605(8) 0.9337(3)
H1 H 1.1074 0.9960 0.9169
C3 C 1.052(3) 0.8517(10) 0.9669(4)
H2 H 0.8977 0.8062 0.9792
H3 H 1.1533 0.8916 0.9908
H4 H 1.1646 0.7900 0.9511
C4 C 0.684(2) 0.9651(8) 0.8670(3)
C5 C 0.467(2) 0.9043(10) 0.8435(3)
H5 H 0.3888 0.8272 0.8543
C6 C 0.377(2) 0.9596(10) 0.8055(3)
H6 H 0.2378 0.9192 0.7896
C7 C 0.490(2) 1.0779(10) 0.7890(3)
C8 C 0.691(2) 1.1371(9) 0.8107(3)
H7 H 0.7666 1.2137 0.7989
C9 C 0.793(2) 1.0839(9) 0.8523(3)
H8 H 0.9269 1.1272 0.8687
C10 C 0.4047(18) 1.0742(8) 0.7105(3)
C11 C 0.5948(19) 0.9778(10) 0.7016(3)
H9 H 0.7154 0.9519 0.7240
C12 C 0.6071(19) 0.9200(10) 0.6599(3)
H10 H 0.7348 0.8544 0.6544
C13 C 0.4276(19) 0.9589(9) 0.6250(3)
C14 C 0.2390(19) 1.0573(9) 0.6338(3)
H11 H 0.1217 1.0860 0.6114
C15 C 0.2280(18) 1.1117(8) 0.6761(3)
C16 C 0.437(2) 0.8901(10) 0.5807(3)
F1 F 0.0416(13) 1.2061(6) 0.68521(19)
Zn1 Zn 0.3343(3) 1.19249(17) 0.98930(5)
O1 O 0.5661(13) 1.0668(9) 0.9663(2)
O2 O 0.9672(13) 1.1612(6) 0.9746(2)
O3 O 0.7698(16) 0.8954(6) 0.9036(2)
O4 O 0.3783(16) 1.1382(7) 0.7506(2)
O5 O 0.2489(18) 0.9232(9) 0.5520(2)
O6 O 0.6113(17) 0.8045(8) 0.5743(3)
Zn1_2 Zn 1.3343(3) 1.19249(17) 0.98930(5)
Zn1A Zn 0.1657(3) 0.80751(17) 0.48930(5)
Zn1B Zn 0.6657(3) 0.69249(17) 0.51070(5)
Zn1C Zn 0.8343(3) 1.30751(17) 1.01070(5)
O2_2 O -0.0328(13) 1.1612(6) 0.9746(2)
O2C O 0.4672(13) 1.3388(6) 1.0254(2)
O5A O 0.2511(18) 1.0768(9) 1.0520(2)
O6B O 0.3887(17) 1.3045(8) 0.9257(3)
loop_
_geom_bond_atom_site_label_1
_geom_bond_atom_site_label_2
_geom_bond_site_symmetry_1
_geom_bond_site_symmetry_2
C1 C2 1_555 1_555
C2 H1 1_555 1_555
C3 C2 1_555 1_555
H2 C3 1_555 1_555
H3 C3 1_555 1_555
H4 C3 1_555 1_555
C4 C5 1_555 1_555
C5 H5 1_555 1_555
C6 C5 1_555 1_555
H6 C6 1_555 1_555
C7 C6 1_555 1_555
C8 C7 1_555 1_555
H7 C8 1_555 1_555
C9 C4 1_555 1_555
H8 C9 1_555 1_555
C10 C11 1_555 1_555
C11 H9 1_555 1_555
C12 C11 1_555 1_555
H10 C12 1_555 1_555
C13 C12 1_555 1_555
C14 C13 1_555 1_555
H11 C14 1_555 1_555
C15 C10 1_555 1_555
C16 C13 1_555 1_555
F1 C15 1_555 1_555
Zn1 O1 1_555 1_555
O1 C1 1_555 1_555
O2 C1 1_555 1_555
O3 C2 1_555 1_555
O4 C7 1_555 1_555
O5 C16 1_555 1_555
O6 C16 1_555 1_555
Zn1_2 O2 1_555 1_555
Zn1A O5 1_555 1_555
Zn1B O6 1_555 1_555
Zn1C O2 1_555 1_555
O2_2 Zn1 1_555 1_555
O2C Zn1 1_555 1_555
O5A Zn1 1_555 1_555
O6B Zn1 1_555 1_555
C4 O3 1_555 1_555
C8 C9 1_555 1_555
C10 O4 1_555 1_555
C14 C15 1_555 1_555
Zn1C O2C 1_555 1_555

#END
