
#######################################################################
#
#                 Cambridge Crystallographic Data Centre
#                                CCDC 
#
#######################################################################
#
# If this CIF has been generated from an entry in the Cambridge 
# Structural Database, then it will include bibliographic, chemical, 
# crystal, experimental, refinement or atomic coordinate data resulting 
# from the CCDC's data processing and validation procedures.
#
#######################################################################

data_VOPTIF
_symmetry_cell_setting           orthorhombic
_symmetry_space_group_name_H-M   'P 21 21 21'
_symmetry_Int_Tables_number      19
_space_group_name_Hall           'P 2ac 2ab'
loop_
_symmetry_equiv_pos_site_id
_symmetry_equiv_pos_as_xyz
1 x,y,z
2 1/2-x,-y,1/2+z
3 -x,1/2+y,1/2-z
4 1/2+x,1/2-y,-z
_cell_length_a                   10.7914(3)
_cell_length_b                   15.8162(4)
_cell_length_c                   17.8982(6)
_cell_angle_alpha                90
_cell_angle_beta                 90
_cell_angle_gamma                90
_cell_volume                     3054.85
loop_
_atom_site_label
_atom_site_type_symbol
_atom_site_fract_x
_atom_site_fract_y
_atom_site_fract_z
O1 O 0.1762(16) 0.1099(10) 0.5379(9)
H1 H 0.2013 0.1575 0.5282
C1 C 0.219(3) 0.0531(18) 0.4835(16)
H2 H 0.2857 0.0784 0.4562
H3 H 0.1523 0.0397 0.4498
H4 H 0.2472 0.0023 0.5073
O2 O 0.369(2) 0.0309(13) 0.1039(11)
C2 C -0.0625(7) 0.2119(5) 0.1611(5)
C3 C 0.0526(6) 0.2232(4) 0.1888(4)
H5 H 0.0620 0.2419 0.2377
C4 C 0.1573(5) 0.2074(3) 0.1457(3)
C5 C 0.1407(8) 0.1811(5) 0.0747(4)
H6 H 0.2087 0.1691 0.0445
C6 C 0.0206(11) 0.1721(6) 0.0470(4)
H7 H 0.0096 0.1543 -0.0020
C7 C -0.0800(8) 0.1884(4) 0.0892(4)
C8 C 0.2853(6) 0.2157(4) 0.1799(4)
C9 C -0.2430(6) 0.1004(4) 0.0404(4)
C10 C -0.3570(8) 0.1005(5) 0.0052(6)
H8 H -0.3970 0.1513 -0.0049
C11 C -0.4099(7) 0.0265(5) -0.0145(5)
H9 H -0.4871 0.0268 -0.0377
C12 C -0.3529(6) -0.0484(4) -0.0012(3)
C13 C -0.2424(6) -0.0482(4) 0.0322(3)
H10 H -0.2026 -0.0992 0.0420
C14 C -0.1866(6) 0.0269(4) 0.0524(3)
H11 H -0.1088 0.0261 0.0747
C15 C -0.3669(7) -0.1971(4) -0.0187(3)
H12 H -0.2808 -0.1945 -0.0361
C16 C -0.3682(6) -0.2342(4) 0.0619(4)
C17 C -0.4399(10) -0.2587(5) -0.0701(4)
H13 H -0.5271 -0.2526 -0.0610
H14 H -0.4153 -0.3158 -0.0595
H15 H -0.4224 -0.2458 -0.1214
C18 C 0.6134(5) 0.3950(3) 0.2709(4)
H16 H 0.6044 0.4103 0.3208
C19 C 0.6010(6) 0.3282(4) 0.1679(4)
H17 H 0.5818 0.2867 0.1329
C20 C 0.6710(6) 0.3966(4) 0.1544(4)
H18 H 0.7058 0.4123 0.1090
C21 C 0.7505(5) 0.5155(4) 0.2354(5)
H19 H 0.7229 0.5403 0.2821
H20 H 0.7341 0.5558 0.1958
C22 C 0.8895(4) 0.4992(3) 0.2397(3)
C23 C 0.9391(6) 0.4353(3) 0.2828(4)
H21 H 0.8866 0.3996 0.3093
C24 C 1.0636(5) 0.4239(3) 0.2871(3)
H22 H 1.0947 0.3797 0.3158
C25 C 1.1442(5) 0.4757(3) 0.2503(3)
C26 C 1.0963(5) 0.5384(4) 0.2049(4)
H23 H 1.1491 0.5729 0.1773
C27 C 0.9698(5) 0.5496(3) 0.2008(4)
H24 H 0.9382 0.5925 0.1708
C28 C 1.2812(5) 0.4594(3) 0.2605(4)
H25 H 1.3010 0.4624 0.3133
H26 H 1.2999 0.4026 0.2435
C29 C 1.4084(5) 0.5907(3) 0.2477(3)
H27 H 1.3997 0.6084 0.2970
C30 C 1.4569(5) 0.5847(4) 0.1320(3)
H28 H 1.4889 0.5988 0.0854
C31 C 1.3921(5) 0.5156(4) 0.1466(3)
H29 H 1.3720 0.4726 0.1132
F1 F -0.1617(5) 0.2175(5) 0.2085(4)
N1 N 0.6807(4) 0.4388(3) 0.2214(3)
N2 N 0.5615(4) 0.3280(2) 0.2412(2)
N3 N 1.4699(3) 0.6325(2) 0.1954(2)
N4 N 1.3607(3) 0.5197(2) 0.2197(2)
O3 O 0.2877(3) 0.2468(2) 0.2450(2)
O4 O 0.3784(5) 0.1896(3) 0.1458(3)
O5 O -0.2011(6) 0.1799(3) 0.0616(4)
O6 O -0.4187(4) -0.1187(3) -0.0265(2)
O7 O -0.4370(4) -0.1985(3) 0.1080(2)
O8 O -0.3054(6) -0.2969(3) 0.0760(3)
Zn1 Zn 0.44830(4) 0.24591(3) 0.29355(3)
N3B N 0.5301(3) 0.1325(2) 0.3046(2)
O7B O 0.4370(4) 0.3015(3) 0.3920(2)
Zn1B Zn -0.44830(4) -0.25409(3) 0.20645(3)
Zn1B_2 Zn 1.55170(4) 0.74591(3) 0.20645(3)
loop_
_geom_bond_atom_site_label_1
_geom_bond_atom_site_label_2
_geom_bond_site_symmetry_1
_geom_bond_site_symmetry_2
O1 H1 1_555 1_555
C1 O1 1_555 1_555
H2 C1 1_555 1_555
H3 C1 1_555 1_555
H4 C1 1_555 1_555
C2 C3 1_555 1_555
C3 H5 1_555 1_555
C4 C3 1_555 1_555
C5 C4 1_555 1_555
H6 C5 1_555 1_555
C6 C5 1_555 1_555
H7 C6 1_555 1_555
C7 C2 1_555 1_555
C8 C4 1_555 1_555
C9 C10 1_555 1_555
C10 H8 1_555 1_555
C11 C10 1_555 1_555
H9 C11 1_555 1_555
C12 C11 1_555 1_555
C13 C12 1_555 1_555
H10 C13 1_555 1_555
C14 C9 1_555 1_555
H11 C14 1_555 1_555
C15 H12 1_555 1_555
C16 C15 1_555 1_555
C17 C15 1_555 1_555
H13 C17 1_555 1_555
H14 C17 1_555 1_555
H15 C17 1_555 1_555
C18 H16 1_555 1_555
C19 H17 1_555 1_555
C20 C19 1_555 1_555
H18 C20 1_555 1_555
C21 H19 1_555 1_555
H20 C21 1_555 1_555
C22 C21 1_555 1_555
C23 C22 1_555 1_555
H21 C23 1_555 1_555
C24 C23 1_555 1_555
H22 C24 1_555 1_555
C25 C24 1_555 1_555
C26 C25 1_555 1_555
H23 C26 1_555 1_555
C27 C22 1_555 1_555
H24 C27 1_555 1_555
C28 C25 1_555 1_555
H25 C28 1_555 1_555
H26 C28 1_555 1_555
C29 H27 1_555 1_555
C30 H28 1_555 1_555
C31 C30 1_555 1_555
H29 C31 1_555 1_555
F1 C2 1_555 1_555
N1 C18 1_555 1_555
N2 C18 1_555 1_555
N3 C29 1_555 1_555
N4 C28 1_555 1_555
O3 C8 1_555 1_555
O4 C8 1_555 1_555
O5 C7 1_555 1_555
O6 C12 1_555 1_555
O7 C16 1_555 1_555
O8 C16 1_555 1_555
Zn1 N2 1_555 1_555
N3B Zn1 1_555 1_555
O7B Zn1 1_555 1_555
Zn1B O7 1_555 1_555
Zn1B_2 N3 1_555 1_555
C6 C7 1_555 1_555
C9 O5 1_555 1_555
C13 C14 1_555 1_555
C15 O6 1_555 1_555
C19 N2 1_555 1_555
C20 N1 1_555 1_555
C21 N1 1_555 1_555
C26 C27 1_555 1_555
C29 N4 1_555 1_555
C30 N3 1_555 1_555
C31 N4 1_555 1_555
O3 Zn1 1_555 1_555

#END
