
#######################################################################
#
#                 Cambridge Crystallographic Data Centre
#                                CCDC 
#
#######################################################################
#
# If this CIF has been generated from an entry in the Cambridge 
# Structural Database, then it will include bibliographic, chemical, 
# crystal, experimental, refinement or atomic coordinate data resulting 
# from the CCDC's data processing and validation procedures.
#
#######################################################################

data_VOPVUT
_symmetry_cell_setting           monoclinic
_symmetry_space_group_name_H-M   'C 2/c'
_symmetry_Int_Tables_number      15
_space_group_name_Hall           '-C 2yn'
loop_
_symmetry_equiv_pos_site_id
_symmetry_equiv_pos_as_xyz
1 x,y,z
2 -x,y,1/2-z
3 1/2+x,1/2+y,z
4 1/2-x,1/2+y,1/2-z
5 -x,-y,-z
6 x,-y,1/2+z
7 1/2-x,1/2-y,-z
8 1/2+x,1/2-y,1/2+z
_cell_length_a                   14.9376(12)
_cell_length_b                   10.3231(8)
_cell_length_c                   20.0556(15)
_cell_angle_alpha                90
_cell_angle_beta                 111.0650(10)
_cell_angle_gamma                90
_cell_volume                     2885.95
loop_
_atom_site_label
_atom_site_type_symbol
_atom_site_fract_x
_atom_site_fract_y
_atom_site_fract_z
Co1 Co 0.59188(3) 0.41024(4) 0.09551(2)
O1 O 0.6937(2) -0.0231(2) 0.00122(14)
N1 N 0.5671(2) 0.2108(3) 0.10945(15)
C1 C 0.6069(3) 0.1140(4) 0.0866(2)
H1 H 0.6456 0.1331 0.0605
N2 N 0.6368(3) -0.1201(3) 0.0796(2)
H2 H 0.6326 -0.1938 0.0983
C2 C 0.5929(3) -0.0152(4) 0.10019(18)
O2 O 0.5948(2) 0.3665(3) -0.00195(12)
C3 C 0.5331(3) -0.0437(4) 0.1368(2)
H3 H 0.5214 -0.1292 0.1458
O3 O 0.54937(17) 0.5432(2) -0.06937(12)
C4 C 0.4904(3) 0.0577(4) 0.1599(2)
H4 H 0.4500 0.0409 0.1849
O4 O 0.62838(19) 0.3645(2) -0.34703(12)
N3 N 0.7496(2) 0.0692(3) -0.12473(16)
H5 H 0.7614 0.0357 -0.0832
H6 H 0.7696 0.0314 -0.1550
C5 C 0.5082(3) 0.1826(4) 0.1454(2)
H7 H 0.4791 0.2500 0.1608
O5 O 0.61531(18) 0.5515(2) -0.29867(12)
C6 C 0.6849(3) -0.1193(3) 0.0340(2)
C7 C 0.7265(3) -0.2499(4) 0.0270(2)
H8 H 0.7732 -0.2747 0.0730
H9 H 0.6757 -0.3141 0.0137
C8 C 0.5855(2) 0.4316(3) -0.05688(16)
C9 C 0.6210(2) 0.3688(3) -0.11023(16)
C10 C 0.6647(2) 0.2478(3) -0.09497(16)
H10 H 0.6722 0.2075 -0.0518
C11 C 0.6970(2) 0.1869(3) -0.14348(17)
C12 C 0.6827(2) 0.2445(3) -0.20935(17)
H11 H 0.7016 0.2016 -0.2429
C13 C 0.6403(2) 0.3652(3) -0.22492(17)
C14 C 0.6104(2) 0.4296(3) -0.17461(17)
H12 H 0.5837 0.5120 -0.1843
C15 C 0.6271(2) 0.4295(3) -0.29518(17)
O1F O 0.8063(2) -0.4769(2) -0.00122(14)
N1F N 0.9329(2) -0.7108(3) -0.10945(15)
C1F C 0.8931(3) -0.6140(4) -0.0866(2)
H1F H 0.8544 -0.6331 -0.0605
N2F N 0.8632(3) -0.3799(3) -0.0796(2)
H2F H 0.8674 -0.3062 -0.0983
C2F C 0.9071(3) -0.4848(4) -0.10019(18)
C3F C 0.9669(3) -0.4563(4) -0.1368(2)
H3F H 0.9786 -0.3708 -0.1458
C4F C 1.0096(3) -0.5577(4) -0.1599(2)
H4F H 1.0500 -0.5409 -0.1849
C5F C 0.9918(3) -0.6826(4) -0.1454(2)
H7F H 1.0209 -0.7500 -0.1608
C6F C 0.8151(3) -0.3807(3) -0.0340(2)
C7F C 0.7735(3) -0.2501(4) -0.0270(2)
H8F H 0.7268 -0.2253 -0.0730
H9F H 0.8243 -0.1859 -0.0137
Co1D Co 0.40812(3) 0.58976(4) -0.09551(2)
O2D O 0.4052(2) 0.6335(3) 0.00195(12)
O3D O 0.45063(17) 0.4568(2) 0.06937(12)
O4D O 0.37162(19) 0.6355(2) 0.34703(12)
N3D N 0.2504(2) 0.9308(3) 0.12473(16)
H5D H 0.2386 0.9643 0.0832
H6D H 0.2304 0.9686 0.1550
O5D O 0.38469(18) 0.4485(2) 0.29867(12)
C8D C 0.4145(2) 0.5684(3) 0.05688(16)
C9D C 0.3790(2) 0.6312(3) 0.11023(16)
C10D C 0.3353(2) 0.7522(3) 0.09497(16)
H10D H 0.3278 0.7925 0.0518
C11D C 0.3030(2) 0.8131(3) 0.14348(17)
C12D C 0.3173(2) 0.7555(3) 0.20935(17)
H11D H 0.2984 0.7984 0.2429
C13D C 0.3597(2) 0.6348(3) 0.22492(17)
C14D C 0.3896(2) 0.5704(3) 0.17461(17)
H12D H 0.4163 0.4880 0.1843
C15D C 0.3729(2) 0.5705(3) 0.29518(17)
Co1A Co 0.40812(3) 0.41024(4) 0.40449(2)
Co1B Co 0.09188(3) 0.91024(4) 0.09551(2)
Co1E Co 0.59188(3) 0.58976(4) -0.40449(2)
Co1F Co 0.90812(3) -0.91024(4) -0.09551(2)
Co1F_2 Co 0.90812(3) 0.08976(4) -0.09551(2)
N1D N 0.4329(2) 0.7892(3) -0.10945(15)
N3B N 0.2496(2) 0.5692(3) -0.12473(16)
N3F N 0.7504(2) 0.4308(3) 0.12473(16)
O5A O 0.38469(18) 0.5515(2) -0.20133(12)
O5E O 0.61531(18) 0.4485(2) 0.20133(12)
O6 O 0.8356(15) -0.2758(12) 0.2042(8)
H13 H 0.8641 -0.2106 0.1951
H14 H 0.8365 -0.2673 0.2466
loop_
_geom_bond_atom_site_label_1
_geom_bond_atom_site_label_2
_geom_bond_site_symmetry_1
_geom_bond_site_symmetry_2
Co1 N1 1_555 1_555
O1 C6 1_555 1_555
N1 C1 1_555 1_555
C1 H1 1_555 1_555
N2 H2 1_555 1_555
C2 C1 1_555 1_555
O2 Co1 1_555 1_555
C3 C2 1_555 1_555
H3 C3 1_555 1_555
O3 C8 1_555 1_555
C4 C3 1_555 1_555
H4 C4 1_555 1_555
O4 C15 1_555 1_555
N3 H5 1_555 1_555
H6 N3 1_555 1_555
C5 N1 1_555 1_555
H7 C5 1_555 1_555
O5 C15 1_555 1_555
C6 N2 1_555 1_555
C7 C6 1_555 1_555
H8 C7 1_555 1_555
H9 C7 1_555 1_555
C8 O2 1_555 1_555
C9 C8 1_555 1_555
C10 C9 1_555 1_555
H10 C10 1_555 1_555
C11 N3 1_555 1_555
C12 C11 1_555 1_555
H11 C12 1_555 1_555
C13 C12 1_555 1_555
C14 C9 1_555 1_555
H12 C14 1_555 1_555
C15 C13 1_555 1_555
O6 H13 1_555 1_555
H14 O6 1_555 1_555
O1F C6F 1_555 1_555
N1F C1F 1_555 1_555
C1F H1F 1_555 1_555
N2F H2F 1_555 1_555
C2F C1F 1_555 1_555
C3F C2F 1_555 1_555
H3F C3F 1_555 1_555
C4F C3F 1_555 1_555
H4F C4F 1_555 1_555
C5F N1F 1_555 1_555
H7F C5F 1_555 1_555
C6F N2F 1_555 1_555
C7F C7 1_555 1_555
H8F C7F 1_555 1_555
H9F C7F 1_555 1_555
Co1D O3 1_555 1_555
O2D Co1D 1_555 1_555
O3D Co1 1_555 1_555
O4D C15D 1_555 1_555
N3D H5D 1_555 1_555
H6D N3D 1_555 1_555
O5D C15D 1_555 1_555
C8D O2D 1_555 1_555
C9D C8D 1_555 1_555
C10D C9D 1_555 1_555
H10D C10D 1_555 1_555
C11D N3D 1_555 1_555
C12D C11D 1_555 1_555
H11D C12D 1_555 1_555
C13D C12D 1_555 1_555
C14D C9D 1_555 1_555
H12D C14D 1_555 1_555
C15D C13D 1_555 1_555
Co1A O5D 1_555 1_555
Co1B N3D 1_555 1_555
Co1E O5 1_555 1_555
Co1F N1F 1_555 1_555
Co1F_2 N3 1_555 1_555
N1D Co1D 1_555 1_555
N3B Co1D 1_555 1_555
N3F Co1 1_555 1_555
O5A Co1D 1_555 1_555
O5E Co1 1_555 1_555
N2 C2 1_555 1_555
C4 C5 1_555 1_555
C10 C11 1_555 1_555
C13 C14 1_555 1_555
N2F C2F 1_555 1_555
C4F C5F 1_555 1_555
C6F C7F 1_555 1_555
O3D C8D 1_555 1_555
C10D C11D 1_555 1_555
C13D C14D 1_555 1_555

#END
