
#######################################################################
#
#                 Cambridge Crystallographic Data Centre
#                                CCDC 
#
#######################################################################
#
# If this CIF has been generated from an entry in the Cambridge 
# Structural Database, then it will include bibliographic, chemical, 
# crystal, experimental, refinement or atomic coordinate data resulting 
# from the CCDC's data processing and validation procedures.
#
#######################################################################

data_VOPVON
_symmetry_cell_setting           monoclinic
_symmetry_space_group_name_H-M   'C 2/c'
_symmetry_Int_Tables_number      15
_space_group_name_Hall           '-C 2yn'
loop_
_symmetry_equiv_pos_site_id
_symmetry_equiv_pos_as_xyz
1 x,y,z
2 -x,y,1/2-z
3 1/2+x,1/2+y,z
4 1/2-x,1/2+y,1/2-z
5 -x,-y,-z
6 x,-y,1/2+z
7 1/2-x,1/2-y,-z
8 1/2+x,1/2-y,1/2+z
_cell_length_a                   18.793(3)
_cell_length_b                   19.363(3)
_cell_length_c                   14.5880(19)
_cell_angle_alpha                90
_cell_angle_beta                 119.792(2)
_cell_angle_gamma                90
_cell_volume                     4606.82
loop_
_atom_site_label
_atom_site_type_symbol
_atom_site_fract_x
_atom_site_fract_y
_atom_site_fract_z
Co1 Co 0.2500 0.2500 0.5000
O1 O 0.21837(14) 0.18663(11) 0.36326(18)
H1 H 0.2448 0.1914 0.3240
H2 H 0.2301 0.1566 0.3950
O2 O 0.03443(15) 0.05640(13) 0.4109(2)
C1 C 0.0797(2) 0.31720(18) 0.4274(3)
H3 H 0.1103 0.3576 0.4506
N1 N 0.11909(16) 0.25702(13) 0.4459(2)
Co2 Co 0.2500 -0.2500 0.5000
O3 O -0.13784(15) -0.09084(12) 0.2218(2)
N2 N -0.05846(16) 0.13966(14) 0.3194(2)
H4 H -0.1089 0.1461 0.2724
C2 C -0.0047(2) 0.32191(18) 0.3752(3)
H5 H -0.0302 0.3647 0.3641
O4 O 0.24958(15) -0.30667(12) 0.62399(18)
H6 H 0.2890 -0.3319 0.6521
H7 H 0.2601 -0.2708 0.6688
O5 O 0.24823(16) 0.07828(11) 0.47732(18)
N3 N -0.01491(17) -0.07763(14) 0.3698(2)
H8 H 0.0184 -0.0479 0.4142
C3 C -0.0505(2) 0.26256(18) 0.3399(3)
H9 H -0.1075 0.2647 0.3033
O6 O 0.25724(14) 0.16299(10) 0.58703(17)
N4 N 0.12137(17) -0.22708(14) 0.4437(2)
C4 C -0.01063(19) 0.19940(16) 0.3596(3)
O7 O 0.28408(16) -0.19148(11) 0.73616(18)
N5 N 0.3441(2) 0.03915(16) 0.9335(2)
H10 H 0.3466 0.0823 0.9489
H11 H 0.3561 0.0085 0.9817
C5 C 0.07452(19) 0.19917(16) 0.4136(2)
H12 H 0.1017 0.1570 0.4278
O8 O 0.28000(14) -0.16060(10) 0.58651(17)
C6 C -0.0351(2) 0.07309(17) 0.3454(3)
C7 C -0.1037(2) 0.02235(19) 0.2854(3)
H13 H -0.1308 0.0358 0.2116
H14 H -0.1432 0.0287 0.3092
C8 C -0.0861(2) -0.05401(17) 0.2901(3)
C9 C 0.0094(2) -0.14770(17) 0.3862(3)
C10 C -0.0440(2) -0.20199(18) 0.3627(3)
H15 H -0.0995 -0.1938 0.3371
C11 C -0.0147(2) -0.26843(19) 0.3775(3)
H16 H -0.0502 -0.3057 0.3612
C12 C 0.0678(2) -0.27931(18) 0.4166(3)
H17 H 0.0870 -0.3244 0.4244
C13 C 0.0921(2) -0.16270(17) 0.4286(3)
H18 H 0.1289 -0.1262 0.4473
C14 C 0.28486(19) -0.14708(16) 0.6731(2)
C15 C 0.29265(19) -0.07159(15) 0.7030(2)
C16 C 0.2725(2) -0.02272(16) 0.6246(3)
H19 H 0.2559 -0.0366 0.5558
C17 C 0.27738(19) 0.04763(15) 0.6493(2)
C18 C 0.30081(19) 0.06770(16) 0.7519(2)
H20 H 0.3033 0.1144 0.7679
C19 C 0.3205(2) 0.01903(17) 0.8309(3)
C20 C 0.3170(2) -0.05103(16) 0.8058(2)
H21 H 0.3311 -0.0841 0.8582
C21 C 0.2591(2) 0.09966(16) 0.5650(2)
O2F O 0.46557(15) -0.55640(13) 0.5891(2)
C1F C 0.4203(2) -0.81720(18) 0.5726(3)
H3F H 0.3897 -0.8576 0.5494
N1F N 0.38091(16) -0.75702(13) 0.5541(2)
O3F O 0.63784(15) -0.40916(12) 0.7782(2)
N2F N 0.55846(16) -0.63966(14) 0.6806(2)
H4F H 0.6089 -0.6461 0.7276
C2F C 0.5047(2) -0.82191(18) 0.6248(3)
H5F H 0.5302 -0.8647 0.6359
O4F O 0.25042(15) -0.19333(12) 0.37601(18)
H6F H 0.2110 -0.1681 0.3479
H7F H 0.2399 -0.2292 0.3312
O5F O 0.25177(16) -0.57828(11) 0.52268(18)
N3F N 0.51491(17) -0.42237(14) 0.6302(2)
H8F H 0.4816 -0.4521 0.5858
C3F C 0.5505(2) -0.76256(18) 0.6601(3)
H9F H 0.6075 -0.7647 0.6967
O6F O 0.24276(14) -0.66299(10) 0.41297(17)
N4F N 0.37863(17) -0.27292(14) 0.5563(2)
C4F C 0.51063(19) -0.69940(16) 0.6404(3)
O7F O 0.21592(16) -0.30852(11) 0.26384(18)
N5F N 0.1559(2) -0.53915(16) 0.0665(2)
H10F H 0.1534 -0.5823 0.0511
H11F H 0.1439 -0.5085 0.0183
C5F C 0.42548(19) -0.69917(16) 0.5864(2)
H12F H 0.3983 -0.6570 0.5722
O8F O 0.22000(14) -0.33940(10) 0.41349(17)
C6F C 0.5351(2) -0.57309(17) 0.6546(3)
C7F C 0.6037(2) -0.52235(19) 0.7146(3)
H13F H 0.6308 -0.5358 0.7884
H14F H 0.6432 -0.5287 0.6908
C8F C 0.5861(2) -0.44599(17) 0.7099(3)
C9F C 0.4906(2) -0.35230(17) 0.6138(3)
C10F C 0.5440(2) -0.29801(18) 0.6373(3)
H15F H 0.5995 -0.3062 0.6629
C11F C 0.5147(2) -0.23157(19) 0.6225(3)
H16F H 0.5502 -0.1943 0.6388
C12F C 0.4322(2) -0.22069(18) 0.5834(3)
H17F H 0.4130 -0.1756 0.5756
C13F C 0.4079(2) -0.33730(17) 0.5714(3)
H18F H 0.3711 -0.3738 0.5527
C14F C 0.21514(19) -0.35292(16) 0.3269(2)
C15F C 0.20735(19) -0.42841(15) 0.2970(2)
C16F C 0.2275(2) -0.47728(16) 0.3754(3)
H19F H 0.2441 -0.4634 0.4442
C17F C 0.22262(19) -0.54763(15) 0.3507(2)
C18F C 0.19919(19) -0.56770(16) 0.2481(2)
H20F H 0.1967 -0.6144 0.2321
C19F C 0.1795(2) -0.51903(17) 0.1691(3)
C20F C 0.1830(2) -0.44897(16) 0.1942(2)
H21F H 0.1689 -0.4159 0.1418
C21F C 0.2409(2) -0.59966(16) 0.4350(2)
O1F O 0.28163(14) 0.31337(11) 0.63674(18)
H1F H 0.2552 0.3086 0.6760
H2F H 0.2699 0.3434 0.6050
Co1_2 Co 0.2500 -0.7500 0.5000
N1F_2 N 0.38091(16) 0.24298(13) 0.5541(2)
O6F_2 O 0.24276(14) 0.33701(10) 0.41297(17)
loop_
_geom_bond_atom_site_label_1
_geom_bond_atom_site_label_2
_geom_bond_site_symmetry_1
_geom_bond_site_symmetry_2
Co1 O1 1_555 1_555
O1 H1 1_555 1_555
H2 O1 1_555 1_555
O2 C6 1_555 1_555
C1 H3 1_555 1_555
N1 Co1 1_555 1_555
Co2 O4 1_555 1_555
O3 C8 1_555 1_555
N2 H4 1_555 1_555
C2 C1 1_555 1_555
H5 C2 1_555 1_555
O4 H6 1_555 1_555
H7 O4 1_555 1_555
O5 C21 1_555 1_555
N3 H8 1_555 1_555
C3 C2 1_555 1_555
H9 C3 1_555 1_555
O6 Co1 1_555 1_555
N4 Co2 1_555 1_555
C4 N2 1_555 1_555
O7 C14 1_555 1_555
N5 H10 1_555 1_555
H11 N5 1_555 1_555
C5 N1 1_555 1_555
H12 C5 1_555 1_555
O8 Co2 1_555 1_555
C6 N2 1_555 1_555
C7 C6 1_555 1_555
H13 C7 1_555 1_555
H14 C7 1_555 1_555
C8 N3 1_555 1_555
C9 N3 1_555 1_555
C10 C9 1_555 1_555
H15 C10 1_555 1_555
C11 C10 1_555 1_555
H16 C11 1_555 1_555
C12 N4 1_555 1_555
H17 C12 1_555 1_555
C13 N4 1_555 1_555
H18 C13 1_555 1_555
C14 O8 1_555 1_555
C15 C14 1_555 1_555
C16 C15 1_555 1_555
H19 C16 1_555 1_555
C17 C16 1_555 1_555
C18 C17 1_555 1_555
H20 C18 1_555 1_555
C19 N5 1_555 1_555
C20 C15 1_555 1_555
H21 C20 1_555 1_555
C21 O6 1_555 1_555
O2F C6F 1_555 1_555
C1F H3F 1_555 1_555
N1F C1F 1_555 1_555
O3F C8F 1_555 1_555
N2F H4F 1_555 1_555
C2F C1F 1_555 1_555
H5F C2F 1_555 1_555
O4F Co2 1_555 1_555
H6F O4F 1_555 1_555
H7F O4F 1_555 1_555
O5F C21F 1_555 1_555
N3F H8F 1_555 1_555
C3F C2F 1_555 1_555
H9F C3F 1_555 1_555
O6F C21F 1_555 1_555
N4F Co2 1_555 1_555
C4F N2F 1_555 1_555
O7F C14F 1_555 1_555
N5F H10F 1_555 1_555
H11F N5F 1_555 1_555
C5F N1F 1_555 1_555
H12F C5F 1_555 1_555
O8F Co2 1_555 1_555
C6F N2F 1_555 1_555
C7F C6F 1_555 1_555
H13F C7F 1_555 1_555
H14F C7F 1_555 1_555
C8F N3F 1_555 1_555
C9F N3F 1_555 1_555
C10F C9F 1_555 1_555
H15F C10F 1_555 1_555
C11F C10F 1_555 1_555
H16F C11F 1_555 1_555
C12F N4F 1_555 1_555
H17F C12F 1_555 1_555
C13F N4F 1_555 1_555
H18F C13F 1_555 1_555
C14F O8F 1_555 1_555
C15F C14F 1_555 1_555
C16F C15F 1_555 1_555
H19F C16F 1_555 1_555
C17F C16F 1_555 1_555
C18F C17F 1_555 1_555
H20F C18F 1_555 1_555
C19F N5F 1_555 1_555
C20F C15F 1_555 1_555
H21F C20F 1_555 1_555
C21F C17F 1_555 1_555
O1F Co1 1_555 1_555
H1F O1F 1_555 1_555
H2F O1F 1_555 1_555
Co1_2 N1F 1_555 1_555
N1F_2 Co1 1_555 1_555
O6F_2 Co1 1_555 1_555
C1 N1 1_555 1_555
C3 C4 1_555 1_555
C4 C5 1_555 1_555
C7 C8 1_555 1_555
C9 C13 1_555 1_555
C11 C12 1_555 1_555
C17 C21 1_555 1_555
C18 C19 1_555 1_555
C19 C20 1_555 1_555
C3F C4F 1_555 1_555
O6F Co1_2 1_555 1_555
C4F C5F 1_555 1_555
C7F C8F 1_555 1_555
C9F C13F 1_555 1_555
C11F C12F 1_555 1_555
C18F C19F 1_555 1_555
C19F C20F 1_555 1_555

#END
