
#######################################################################
#
#                 Cambridge Crystallographic Data Centre
#                                CCDC 
#
#######################################################################
#
# If this CIF has been generated from an entry in the Cambridge 
# Structural Database, then it will include bibliographic, chemical, 
# crystal, experimental, refinement or atomic coordinate data resulting 
# from the CCDC's data processing and validation procedures.
#
#######################################################################

data_VOPVIH
_symmetry_cell_setting           triclinic
_symmetry_space_group_name_H-M   'P -1'
_symmetry_Int_Tables_number      2
_space_group_name_Hall           '-P 1'
loop_
_symmetry_equiv_pos_site_id
_symmetry_equiv_pos_as_xyz
1 x,y,z
2 -x,-y,-z
_cell_length_a                   7.8130(7)
_cell_length_b                   7.9406(7)
_cell_length_c                   11.6727(10)
_cell_angle_alpha                100.0900(10)
_cell_angle_beta                 95.8430(10)
_cell_angle_gamma                99.3740(10)
_cell_volume                     697.091
loop_
_atom_site_label
_atom_site_type_symbol
_atom_site_fract_x
_atom_site_fract_y
_atom_site_fract_z
Co1 Co 0.47746(4) 0.09478(4) 0.68013(3)
O1 O -0.0109(3) 0.3332(3) 0.87935(17)
N1 N 0.4658(3) 0.1830(3) 0.85380(19)
C1 C 0.5935(4) 0.1689(4) 0.9359(3)
H1 H 0.6854 0.1160 0.9126
O2 O 0.7203(2) 0.1389(2) 0.64033(16)
N2 N 0.1981(3) 0.4246(3) 1.03994(19)
H2 H 0.2171 0.4867 1.1097
C2 C 0.5922(4) 0.2307(4) 1.0539(3)
H3 H 0.6817 0.2185 1.1090
O3 O 0.6829(2) 0.4076(2) 0.70385(17)
N3 N 1.3372(2) 0.1799(3) 0.54489(18)
H4 H 1.4443 0.2147 0.5359
H5 H 1.2946 0.0704 0.5325
C3 C 0.4571(4) 0.3108(4) 1.0895(2)
H6 H 0.4541 0.3523 1.1688
O4 O 1.1808(2) 0.9053(2) 0.68487(18)
C4 C 0.3266(3) 0.3282(3) 1.0057(2)
O5 O 1.4300(2) 0.8348(2) 0.63987(16)
C5 C 0.3350(3) 0.2600(3) 0.8883(2)
H7 H 0.2457 0.2686 0.8316
C6 C 0.0476(3) 0.4284(4) 0.9731(2)
C7 C 0.9565(3) 0.3682(3) 0.6376(2)
C8 C 1.0600(3) 0.2471(3) 0.6000(2)
H8 H 1.0151 0.1286 0.5880
C9 C 1.2301(3) 0.3041(3) 0.5805(2)
C10 C 1.2985(3) 0.4808(3) 0.6006(2)
H9 H 1.4140 0.5187 0.5903
C11 C 1.1937(3) 0.6019(3) 0.6364(2)
C12 C 1.0229(3) 0.5453(3) 0.6547(2)
H10 H 0.9530 0.6257 0.6785
C13 C 0.7748(3) 0.3042(3) 0.6623(2)
C14 C 1.2690(3) 0.7922(3) 0.6547(2)
O1A O 0.0109(3) 0.6668(3) 1.12065(17)
N1A N -0.4658(3) 0.8170(3) 1.14620(19)
C1A C -0.5935(4) 0.8311(4) 1.0641(3)
H1A H -0.6854 0.8840 1.0874
N2A N -0.1981(3) 0.5754(3) 0.96006(19)
H2A H -0.2171 0.5133 0.8903
C2A C -0.5922(4) 0.7693(4) 0.9461(3)
H3A H -0.6817 0.7815 0.8910
C3A C -0.4571(4) 0.6892(4) 0.9105(2)
H6A H -0.4541 0.6477 0.8312
C4A C -0.3266(3) 0.6718(3) 0.9943(2)
C5A C -0.3350(3) 0.7400(3) 1.1117(2)
H7A H -0.2457 0.7314 1.1684
C6A C -0.0476(3) 0.5716(4) 1.0269(2)
Co1A Co -0.47746(4) 0.90522(4) 1.31987(3)
O2A O -0.7203(2) 0.8611(2) 1.35967(16)
O3A O -0.6829(2) 0.5924(2) 1.29615(17)
N3A N -1.3372(2) 0.8201(3) 1.45511(18)
H4A H -1.4443 0.7853 1.4641
H5A H -1.2946 0.9296 1.4675
O4A O -1.1808(2) 0.0947(2) 1.31513(18)
O5A O -1.4300(2) 0.1652(2) 1.36013(16)
C7A C -0.9565(3) 0.6318(3) 1.3624(2)
C8A C -1.0600(3) 0.7529(3) 1.4000(2)
H8A H -1.0151 0.8714 1.4120
C9A C -1.2301(3) 0.6959(3) 1.4195(2)
C10A C -1.2985(3) 0.5192(3) 1.3994(2)
H9A H -1.4140 0.4813 1.4097
C11A C -1.1937(3) 0.3981(3) 1.3636(2)
C12A C -1.0229(3) 0.4547(3) 1.3453(2)
H10A H -0.9530 0.3743 1.3215
C13A C -0.7748(3) 0.6958(3) 1.3377(2)
C14A C -1.2690(3) 0.2078(3) 1.3453(2)
Co1_2 Co 1.47746(4) 0.09478(4) 0.68013(3)
Co1_3 Co 1.47746(4) 1.09478(4) 0.68013(3)
Co1A_2 Co -1.47746(4) -0.09478(4) 1.31987(3)
Co1A_3 Co -1.47746(4) 0.90522(4) 1.31987(3)
N3_2 N 0.3372(2) 0.1799(3) 0.54489(18)
N3A_2 N -0.3372(2) 0.8201(3) 1.45511(18)
O5_2 O 0.4300(2) -0.1652(2) 0.63987(16)
O5A_2 O -0.4300(2) 1.1652(2) 1.36013(16)
O6 O 0.9556(8) -0.0674(7) 0.8676(6)
H11 H 0.9148 -0.1644 0.8848
H12 H 0.9679 -0.0861 0.7952
loop_
_geom_bond_atom_site_label_1
_geom_bond_atom_site_label_2
_geom_bond_site_symmetry_1
_geom_bond_site_symmetry_2
Co1 N1 1_555 1_555
O1 C6 1_555 1_555
N1 C1 1_555 1_555
C1 H1 1_555 1_555
O2 Co1 1_555 1_555
N2 H2 1_555 1_555
C2 C1 1_555 1_555
H3 C2 1_555 1_555
O3 C13 1_555 1_555
N3 H4 1_555 1_555
H5 N3 1_555 1_555
C3 C2 1_555 1_555
H6 C3 1_555 1_555
O4 C14 1_555 1_555
C4 N2 1_555 1_555
O5 C14 1_555 1_555
C5 N1 1_555 1_555
H7 C5 1_555 1_555
C6 N2 1_555 1_555
C7 C8 1_555 1_555
C8 H8 1_555 1_555
C9 N3 1_555 1_555
C10 C9 1_555 1_555
H9 C10 1_555 1_555
C11 C10 1_555 1_555
C12 C7 1_555 1_555
H10 C12 1_555 1_555
C13 O2 1_555 1_555
C14 C11 1_555 1_555
O6 H11 1_555 1_555
H12 O6 1_555 1_555
O1A C6A 1_555 1_555
N1A C1A 1_555 1_555
C1A H1A 1_555 1_555
N2A H2A 1_555 1_555
C2A C1A 1_555 1_555
H3A C2A 1_555 1_555
C3A C2A 1_555 1_555
H6A C3A 1_555 1_555
C4A N2A 1_555 1_555
C5A N1A 1_555 1_555
H7A C5A 1_555 1_555
C6A C6 1_555 1_555
Co1A N1A 1_555 1_555
O2A Co1A 1_555 1_555
O3A C13A 1_555 1_555
N3A H4A 1_555 1_555
H5A N3A 1_555 1_555
O4A C14A 1_555 1_555
O5A C14A 1_555 1_555
C7A C8A 1_555 1_555
C8A H8A 1_555 1_555
C9A N3A 1_555 1_555
C10A C9A 1_555 1_555
H9A C10A 1_555 1_555
C11A C10A 1_555 1_555
C12A C7A 1_555 1_555
H10A C12A 1_555 1_555
C13A O2A 1_555 1_555
C14A C11A 1_555 1_555
Co1_2 N3 1_555 1_555
Co1_3 O5 1_555 1_555
Co1A_2 O5A 1_555 1_555
Co1A_3 N3A 1_555 1_555
N3_2 Co1 1_555 1_555
N3A_2 Co1A 1_555 1_555
O5_2 Co1 1_555 1_555
O5A_2 Co1A 1_555 1_555
C3 C4 1_555 1_555
C4 C5 1_555 1_555
C7 C13 1_555 1_555
C8 C9 1_555 1_555
C11 C12 1_555 1_555
N2A C6A 1_555 1_555
C3A C4A 1_555 1_555
C4A C5A 1_555 1_555
C7A C13A 1_555 1_555
C8A C9A 1_555 1_555
C11A C12A 1_555 1_555

#END
