
#######################################################################
#
#                 Cambridge Crystallographic Data Centre
#                                CCDC 
#
#######################################################################
#
# If this CIF has been generated from an entry in the Cambridge 
# Structural Database, then it will include bibliographic, chemical, 
# crystal, experimental, refinement or atomic coordinate data resulting 
# from the CCDC's data processing and validation procedures.
#
#######################################################################

data_VOPWUT
_symmetry_cell_setting           monoclinic
_symmetry_space_group_name_H-M   'P 21'
_symmetry_Int_Tables_number      4
_space_group_name_Hall           'P 2yb'
loop_
_symmetry_equiv_pos_site_id
_symmetry_equiv_pos_as_xyz
1 x,y,z
2 -x,1/2+y,-z
_cell_length_a                   6.7399(4)
_cell_length_b                   8.6102(5)
_cell_length_c                   13.8426(9)
_cell_angle_alpha                90
_cell_angle_beta                 93.571(1)
_cell_angle_gamma                90
_cell_volume                     801.752
loop_
_atom_site_label
_atom_site_type_symbol
_atom_site_fract_x
_atom_site_fract_y
_atom_site_fract_z
Ag1 Ag 0.27986(5) -0.05370(3) 0.41375(2)
Si1 Si 0.68101(19) 0.27007(18) 0.87388(9)
S1 S 0.45380(14) 0.16478(10) 0.50785(7)
S2 S 0.37945(15) 0.31613(12) 0.70206(7)
S3 S 0.77879(14) 0.18065(12) 0.66823(7)
S4 S -0.03571(15) 0.23249(11) 0.35467(7)
O1 O -0.0634(5) 0.0728(4) 0.3817(3)
O2 O -0.0907(6) 0.3442(4) 0.4249(2)
O3 O 0.1504(5) 0.2631(5) 0.3143(3)
F1 F -0.4011(4) 0.2442(5) 0.2821(2)
F2 F -0.1980(6) 0.1639(5) 0.1833(2)
F3 F -0.2069(6) 0.4049(4) 0.2194(3)
C1 C 0.2825(5) 0.1981(5) 0.6022(3)
H1 H 0.1639 0.2476 0.5733
H2 H 0.2433 0.0983 0.6273
C2 C 0.5816(5) 0.1953(5) 0.7502(3)
H3 H 0.5286 0.0907 0.7593
C3 C 0.6542(6) 0.0648(5) 0.5748(3)
H4 H 0.6013 -0.0276 0.6041
H5 H 0.7507 0.0315 0.5300
C4 C 0.8728(13) 0.1307(12) 0.9178(5)
H6 H 0.9633 0.1807 0.9642
H7 H 0.9442 0.0945 0.8644
H8 H 0.8109 0.0443 0.9478
C5 C 0.7842(15) 0.4636(12) 0.8587(5)
H9 H 0.8803 0.4604 0.8104
H10 H 0.8472 0.4980 0.9191
H11 H 0.6793 0.5342 0.8387
C6 C 0.4688(10) 0.2717(11) 0.9526(4)
H12 H 0.5114 0.3126 1.0150
H13 H 0.4205 0.1677 0.9597
H14 H 0.3644 0.3356 0.9238
C7 C -0.2187(6) 0.2618(5) 0.2550(3)
Ag1A Ag 0.72014(5) 0.44630(3) 0.58625(2)
S3A S 0.22121(14) -0.31935(12) 0.33177(7)
loop_
_geom_bond_atom_site_label_1
_geom_bond_atom_site_label_2
_geom_bond_site_symmetry_1
_geom_bond_site_symmetry_2
Ag1 S1 1_555 1_555
Si1 C2 1_555 1_555
S1 C1 1_555 1_555
S2 C1 1_555 1_555
S3 C2 1_555 1_555
S4 O1 1_555 1_555
O1 Ag1 1_555 1_555
O2 S4 1_555 1_555
O3 S4 1_555 1_555
F1 C7 1_555 1_555
F2 C7 1_555 1_555
F3 C7 1_555 1_555
C1 H1 1_555 1_555
H2 C1 1_555 1_555
C2 S2 1_555 1_555
H3 C2 1_555 1_555
C3 S1 1_555 1_555
H4 C3 1_555 1_555
H5 C3 1_555 1_555
C4 Si1 1_555 1_555
H6 C4 1_555 1_555
H7 C4 1_555 1_555
H8 C4 1_555 1_555
C5 Si1 1_555 1_555
H9 C5 1_555 1_555
H10 C5 1_555 1_555
H11 C5 1_555 1_555
C6 Si1 1_555 1_555
H12 C6 1_555 1_555
H13 C6 1_555 1_555
H14 C6 1_555 1_555
C7 S4 1_555 1_555
Ag1A S3 1_555 1_555
S3A Ag1 1_555 1_555
S3 C3 1_555 1_555

#END
