
#######################################################################
#
#                 Cambridge Crystallographic Data Centre
#                                CCDC 
#
#######################################################################
#
# If this CIF has been generated from an entry in the Cambridge 
# Structural Database, then it will include bibliographic, chemical, 
# crystal, experimental, refinement or atomic coordinate data resulting 
# from the CCDC's data processing and validation procedures.
#
#######################################################################

data_VOPWII
_symmetry_cell_setting           triclinic
_symmetry_space_group_name_H-M   'P -1'
_symmetry_Int_Tables_number      2
_space_group_name_Hall           '-P 1'
loop_
_symmetry_equiv_pos_site_id
_symmetry_equiv_pos_as_xyz
1 x,y,z
2 -x,-y,-z
_cell_length_a                   10.1586(4)
_cell_length_b                   10.2200(5)
_cell_length_c                   12.7787(6)
_cell_angle_alpha                79.1250(10)
_cell_angle_beta                 71.9810(10)
_cell_angle_gamma                72.3830(10)
_cell_volume                     1195.83
loop_
_atom_site_label
_atom_site_type_symbol
_atom_site_fract_x
_atom_site_fract_y
_atom_site_fract_z
Co1 Co 0.12278(3) 0.14497(3) 0.46278(2)
N1 N 0.1518(2) 0.1252(2) 0.29041(18)
C1 C 0.0806(3) 0.2224(3) 0.2259(2)
H1 H 0.0144 0.2999 0.2568
O1 O 0.3929(3) -0.1033(3) -0.08377(18)
N2 N 0.3777(3) -0.1236(3) 0.0981(2)
H2 H 0.4109 -0.1787 0.1492
O2 O 0.7282(4) -0.5609(3) -0.0241(2)
C2 C 0.1024(4) 0.2110(3) 0.1160(3)
H3 H 0.0508 0.2799 0.0741
O3 O -0.08121(17) 0.24523(17) 0.46254(15)
N3 N 0.8122(3) -0.5319(2) -0.21033(18)
H4 H 0.8078 -0.4720 -0.2672
C3 C 0.2005(4) 0.0978(3) 0.0675(2)
H5 H 0.2166 0.0892 -0.0069
O4 O -0.1675(2) 0.06189(18) 0.49526(17)
N4 N 1.0624(2) -0.8122(2) -0.36816(17)
C4 C 0.2743(3) -0.0028(3) 0.1336(2)
O5 O -0.3405(2) 0.69531(19) 0.31791(18)
C5 C 0.2461(3) 0.0155(3) 0.2436(2)
H6 H 0.2957 -0.0524 0.2875
O6 O -0.5480(2) 0.7151(2) 0.28371(19)
C6 C 0.4330(3) -0.1667(3) -0.0034(2)
O7 O -0.78408(18) 0.33392(18) 0.40964(15)
C7 C 0.5477(4) -0.3014(3) -0.0055(2)
H7 H 0.5071 -0.3704 0.0468
H8 H 0.6240 -0.2891 0.0192
O8 O -0.65279(18) 0.12486(18) 0.44022(16)
C8 C 0.6118(3) -0.3552(3) -0.1182(2)
H9 H 0.5364 -0.3675 -0.1441
H10 H 0.6556 -0.2885 -0.1708
C9 C 0.7233(4) -0.4914(3) -0.1116(2)
C10 C 0.9110(3) -0.6616(3) -0.2296(2)
C11 C 0.9712(3) -0.6907(3) -0.3385(2)
H11 H 0.9473 -0.6227 -0.3940
C12 C 1.0992(3) -0.9079(3) -0.2882(2)
H12 H 1.1632 -0.9920 -0.3075
C13 C 1.0458(4) -0.8865(3) -0.1781(2)
H13 H 1.0740 -0.9556 -0.1246
C14 C 0.9500(4) -0.7624(3) -0.1468(2)
H14 H 0.9128 -0.7469 -0.0726
C15 C -0.1754(2) 0.1871(2) 0.46619(19)
C16 C -0.3055(2) 0.2766(2) 0.43049(19)
C17 C -0.4188(2) 0.2230(2) 0.43743(19)
H15 H -0.4137 0.1305 0.4626
C18 C -0.5402(2) 0.3078(2) 0.40670(19)
C19 C -0.5456(3) 0.4447(2) 0.3673(2)
H16 H -0.6266 0.5016 0.3473
C20 C -0.4305(3) 0.4980(2) 0.3574(2)
C21 C -0.3110(2) 0.4143(2) 0.3908(2)
H17 H -0.2354 0.4501 0.3867
C22 C -0.6667(2) 0.2529(2) 0.41927(19)
C23 C -0.4448(3) 0.6460(3) 0.3154(2)
Co1_2 Co -0.87722(3) 0.14497(3) 0.46278(2)
Co1_3 Co 1.12278(3) -0.85503(3) -0.53722(2)
Co1A Co -0.12278(3) -0.14497(3) 0.53722(2)
O4A O 0.1675(2) -0.06189(18) 0.50474(17)
N4_2 N 0.0624(2) 0.1878(2) 0.63184(17)
O7_2 O 0.21592(18) 0.33392(18) 0.40964(15)
O8_2 O 0.34721(18) 0.12486(18) 0.44022(16)
O9 O 0.5805(3) -0.0373(2) 0.2915(2)
H18 H 0.512(5) 0.015(5) 0.347(4)
H19 H 0.585(5) 0.007(5) 0.236(4)
loop_
_geom_bond_atom_site_label_1
_geom_bond_atom_site_label_2
_geom_bond_site_symmetry_1
_geom_bond_site_symmetry_2
Co1 N1 1_555 1_555
N1 C1 1_555 1_555
C1 H1 1_555 1_555
O1 C6 1_555 1_555
N2 H2 1_555 1_555
O2 C9 1_555 1_555
C2 C1 1_555 1_555
H3 C2 1_555 1_555
O3 Co1 1_555 1_555
N3 H4 1_555 1_555
C3 C2 1_555 1_555
H5 C3 1_555 1_555
O4 C15 1_555 1_555
N4 C11 1_555 1_555
C4 N2 1_555 1_555
O5 C23 1_555 1_555
C5 N1 1_555 1_555
H6 C5 1_555 1_555
O6 C23 1_555 1_555
C6 N2 1_555 1_555
O7 C22 1_555 1_555
C7 C6 1_555 1_555
H7 C7 1_555 1_555
H8 C7 1_555 1_555
O8 C22 1_555 1_555
C8 C7 1_555 1_555
H9 C8 1_555 1_555
H10 C8 1_555 1_555
C9 N3 1_555 1_555
C10 N3 1_555 1_555
C11 C10 1_555 1_555
H11 C11 1_555 1_555
C12 N4 1_555 1_555
H12 C12 1_555 1_555
C13 C12 1_555 1_555
H13 C13 1_555 1_555
C14 C10 1_555 1_555
H14 C14 1_555 1_555
C15 O3 1_555 1_555
C16 C15 1_555 1_555
C17 C16 1_555 1_555
H15 C17 1_555 1_555
C18 C17 1_555 1_555
C19 C18 1_555 1_555
H16 C19 1_555 1_555
C20 C19 1_555 1_555
C21 C16 1_555 1_555
H17 C21 1_555 1_555
C22 C18 1_555 1_555
C23 C20 1_555 1_555
O9 H18 1_555 1_555
H19 O9 1_555 1_555
Co1_2 O7 1_555 1_555
Co1_3 N4 1_555 1_555
Co1A O4 1_555 1_555
O4A Co1 1_555 1_555
N4_2 Co1 1_555 1_555
O7_2 Co1 1_555 1_555
O8_2 Co1 1_555 1_555
C3 C4 1_555 1_555
C4 C5 1_555 1_555
O8 Co1_2 1_555 1_555
C8 C9 1_555 1_555
C13 C14 1_555 1_555
C20 C21 1_555 1_555

#END
