
#######################################################################
#
#                 Cambridge Crystallographic Data Centre
#                                CCDC 
#
#######################################################################
#
# If this CIF has been generated from an entry in the Cambridge 
# Structural Database, then it will include bibliographic, chemical, 
# crystal, experimental, refinement or atomic coordinate data resulting 
# from the CCDC's data processing and validation procedures.
#
#######################################################################

data_VOQBEJ
_symmetry_cell_setting           monoclinic
_symmetry_space_group_name_H-M   'P 21/n'
_symmetry_Int_Tables_number      14
_space_group_name_Hall           '-P 2yn'
loop_
_symmetry_equiv_pos_site_id
_symmetry_equiv_pos_as_xyz
1 x,y,z
2 1/2-x,1/2+y,1/2-z
3 -x,-y,-z
4 1/2+x,1/2-y,1/2+z
_cell_length_a                   7.8770(9)
_cell_length_b                   17.229(2)
_cell_length_c                   11.7474(13)
_cell_angle_alpha                90
_cell_angle_beta                 93.292(4)
_cell_angle_gamma                90
_cell_volume                     1591.64
loop_
_atom_site_label
_atom_site_type_symbol
_atom_site_fract_x
_atom_site_fract_y
_atom_site_fract_z
Ni1 Ni 0.5000 0.5000 0.5000
Na1 Na 0.67932(9) 0.83240(4) 0.04363(6)
Na2 Na 0.40578(9) 0.26823(4) 0.20100(6)
S1 S 0.28801(5) 0.73027(2) 0.01772(3)
O1 O 0.42320(16) 0.52266(7) 0.33588(10)
O2 O 0.42591(19) 0.40594(7) 0.25407(10)
O3 O 0.1627(2) 0.37896(8) -0.12900(12)
O4 O 0.11757(18) 0.47912(8) -0.24403(11)
O5 O 0.45777(16) 0.74769(7) -0.01724(11)
O6 O 0.25488(18) 0.76128(7) 0.12908(10)
O7 O 0.15727(16) 0.75328(7) -0.06942(11)
O8 O 0.75086(17) 0.51710(9) 0.46157(11)
H1 H 0.8191 0.5403 0.5074
H2 H 0.7789 0.5274 0.3941
O9 O 0.53288(16) 0.38303(6) 0.46643(10)
H3 H 0.4645 0.3534 0.4997
H4 H 0.5021 0.3785 0.3975
O10 O 0.79885(18) 0.76289(7) 0.21347(11)
H5 H 0.7460 0.7629 0.2723
H6 H 0.8003 0.7152 0.1959
O11 O 0.81517(16) 0.71970(8) -0.05884(12)
H7 H 0.9236 0.7266 -0.0724
H8 H 0.8212 0.6866 -0.0033
O12 O 0.62923(17) 0.87265(7) -0.15035(11)
H9 H 0.7074 0.9047 -0.1585
H10 H 0.5448 0.8964 -0.1897
O13 O 0.46028(18) 0.90442(8) 0.13220(12)
H11 H 0.4960 0.9338 0.1852
H12 H 0.3878 0.8726 0.1622
C1 C 0.4055(2) 0.47741(9) 0.25112(14)
C2 C 0.3474(2) 0.51522(9) 0.13980(14)
C3 C 0.3448(2) 0.59532(9) 0.12908(13)
H13 H 0.3862 0.6266 0.1889
C4 C 0.2800(2) 0.62800(9) 0.02841(14)
C5 C 0.2204(2) 0.58282(9) -0.06300(14)
H14 H 0.1774 0.6060 -0.1301
C6 C 0.2258(2) 0.50242(9) -0.05294(14)
C7 C 0.2909(2) 0.46959(10) 0.04849(14)
H15 H 0.2966 0.4159 0.0551
C8 C 0.1644(2) 0.44968(10) -0.15014(14)
Na1B Na 0.32068(9) 0.16760(4) 0.95637(6)
Na1A Na 0.82068(9) 0.33240(4) 0.45637(6)
Na1C Na 0.17932(9) 0.66760(4) 0.54363(6)
Na1B_2 Na 0.32068(9) 0.16760(4) -0.04363(6)
Na2B Na 0.59422(9) 0.73177(4) 0.79900(6)
Na2B_2 Na 0.59422(9) 0.73177(4) -0.20100(6)
Na2A Na 0.09422(9) 0.76823(4) 0.29900(6)
Na2A_2 Na 1.09422(9) 0.76823(4) 0.29900(6)
Na2_2 Na 0.40578(9) 0.26823(4) 1.20100(6)
Na2C Na 0.90578(9) 0.23177(4) 0.70100(6)
S1B S 0.71199(5) 0.26973(2) 0.98228(3)
O1B O 0.57680(16) 0.47734(7) 0.66412(10)
O2B O 0.57409(19) 0.59406(7) 0.74593(10)
O3B O 0.8373(2) 0.62104(8) 1.12900(12)
O4B O 0.88243(18) 0.52088(8) 1.24403(11)
O5B O 0.54223(16) 0.25231(7) 1.01724(11)
O5B_2 O 0.54223(16) 0.25231(7) 0.01724(11)
O5_2 O 0.45777(16) 0.74769(7) 0.98276(11)
O6B O 0.74512(18) 0.23872(7) 0.87092(10)
O6A O 0.24512(18) 0.26128(7) 0.37092(10)
O6C O 0.75488(18) 0.73872(7) 0.62908(10)
O7B O 0.84273(16) 0.24672(7) 1.06942(11)
O8B O 0.24914(17) 0.48290(9) 0.53843(11)
H1B H 0.1809 0.4597 0.4926
H2B H 0.2211 0.4726 0.6059
O9B O 0.46712(16) 0.61697(6) 0.53357(10)
O9A O 0.96712(16) 0.88303(6) 0.03357(10)
O9C O 0.03288(16) 0.11697(6) 0.96643(10)
H3B H 0.5355 0.6466 0.5003
H3A H 1.0355 0.8534 0.0003
H3C H -0.0355 0.1466 0.9997
H4B H 0.4979 0.6215 0.6025
H4A H 0.9979 0.8785 0.1025
H4C H 0.0021 0.1215 0.8975
O10A O 0.70115(18) 0.26289(7) 0.28653(11)
O10B O 0.20115(18) 0.23711(7) 0.78653(11)
O10C O 0.29885(18) 0.73711(7) 0.71347(11)
H5A H 0.7540 0.2629 0.2277
H5B H 0.2540 0.2371 0.7277
H5C H 0.2460 0.7371 0.7723
H6A H 0.6997 0.2152 0.3041
H6B H 0.1997 0.2848 0.8041
H6C H 0.3003 0.7848 0.6959
O11B O 0.18483(16) 0.28030(8) 0.05884(12)
O11B_2 O 0.18483(16) 0.28030(8) 1.05884(12)
O11_2 O 0.81517(16) 0.71970(8) 0.94116(12)
H7B H 0.0764 0.2734 0.0724
H7B_2 H 0.0764 0.2734 1.0724
H7_2 H 0.9236 0.7266 0.9276
H8B H 0.1788 0.3134 0.0033
H8B_2 H 0.1788 0.3134 1.0033
H8_2 H 0.8212 0.6866 0.9967
O12B O 0.37077(17) 0.12735(7) 0.15035(11)
O12B_2 O 0.37077(17) 0.12735(7) 1.15035(11)
O12_2 O 0.62923(17) 0.87265(7) 0.84965(11)
H9B H 0.2926 0.0953 0.1585
H9B_2 H 0.2926 0.0953 1.1585
H9_2 H 0.7074 0.9047 0.8415
H10B H 0.4552 0.1036 0.1897
H10B_2 H 0.4552 0.1036 1.1897
H10_2 H 0.5448 0.8964 0.8103
O13B O 0.53972(18) 0.09558(8) 0.86780(12)
H11B H 0.5040 0.0662 0.8148
H12B H 0.6122 0.1274 0.8378
C1B C 0.5945(2) 0.52259(9) 0.74888(14)
C2B C 0.6526(2) 0.48478(9) 0.86020(14)
C3B C 0.6552(2) 0.40468(9) 0.87092(13)
H13B H 0.6138 0.3734 0.8111
C4B C 0.7200(2) 0.37200(9) 0.97159(14)
C5B C 0.7796(2) 0.41718(9) 1.06300(14)
H14B H 0.8226 0.3940 1.1301
C6B C 0.7742(2) 0.49758(9) 1.05294(14)
C7B C 0.7091(2) 0.53041(10) 0.95151(14)
H15B H 0.7034 0.5841 0.9449
C8B C 0.8356(2) 0.55032(10) 1.15014(14)
loop_
_geom_bond_atom_site_label_1
_geom_bond_atom_site_label_2
_geom_bond_site_symmetry_1
_geom_bond_site_symmetry_2
Ni1 O1 1_555 1_555
Na1 O5 1_555 1_555
Na2 O2 1_555 1_555
S1 O5 1_555 1_555
O1 C1 1_555 1_555
O2 C1 1_555 1_555
O3 C8 1_555 1_555
O4 C8 1_555 1_555
O5 Na2B_2 1_555 1_555
O6 S1 1_555 1_555
O7 S1 1_555 1_555
O8 Ni1 1_555 1_555
H1 O8 1_555 1_555
H2 O8 1_555 1_555
O9 Ni1 1_555 1_555
H3 O9 1_555 1_555
H4 O9 1_555 1_555
O10 Na1 1_555 1_555
H5 O10 1_555 1_555
H6 O10 1_555 1_555
O11 Na1 1_555 1_555
H7 O11 1_555 1_555
H8 O11 1_555 1_555
O12 Na1 1_555 1_555
H9 O12 1_555 1_555
H10 O12 1_555 1_555
O13 Na1 1_555 1_555
H11 O13 1_555 1_555
H12 O13 1_555 1_555
C1 C2 1_555 1_555
C2 C3 1_555 1_555
C3 H13 1_555 1_555
C4 S1 1_555 1_555
C5 C4 1_555 1_555
H14 C5 1_555 1_555
C6 C5 1_555 1_555
C7 C2 1_555 1_555
H15 C7 1_555 1_555
C8 C6 1_555 1_555
Na1B O5B 1_555 1_555
Na1A O9 1_555 1_555
Na1C O9B 1_555 1_555
Na1B_2 O5B_2 1_555 1_555
Na2B O2B 1_555 1_555
Na2B_2 O11 1_555 1_555
Na2A O6 1_555 1_555
Na2A_2 O10 1_555 1_555
Na2_2 O5B 1_555 1_555
Na2C O6B 1_555 1_555
S1B O5B 1_555 1_555
O1B Ni1 1_555 1_555
O2B C1B 1_555 1_555
O3B C8B 1_555 1_555
O4B C8B 1_555 1_555
O5B_2 Na2 1_555 1_555
O5_2 Na2B 1_555 1_555
O6B S1B 1_555 1_555
O6A Na2 1_555 1_555
O6C Na2B 1_555 1_555
O7B S1B 1_555 1_555
O8B Ni1 1_555 1_555
H1B O8B 1_555 1_555
H2B O8B 1_555 1_555
O9B Ni1 1_555 1_555
O9A Na1 1_555 1_555
O9C Na1B 1_555 1_555
H3B O9B 1_555 1_555
H3A O9A 1_555 1_555
H3C O9C 1_555 1_555
H4B O9B 1_555 1_555
H4A O9A 1_555 1_555
H4C O9C 1_555 1_555
O10A Na2 1_555 1_555
O10B Na1B 1_555 1_555
O10C Na1C 1_555 1_555
H5A O10A 1_555 1_555
H5B O10B 1_555 1_555
H5C O10C 1_555 1_555
H6A O10A 1_555 1_555
H6B O10B 1_555 1_555
H6C O10C 1_555 1_555
O11B Na2 1_555 1_555
O11B_2 Na1B 1_555 1_555
O11_2 Na2B 1_555 1_555
H7B O11B 1_555 1_555
H7B_2 O11B_2 1_555 1_555
H7_2 O11_2 1_555 1_555
H8B O11B 1_555 1_555
H8B_2 O11B_2 1_555 1_555
H8_2 O11_2 1_555 1_555
O12B Na2 1_555 1_555
O12B_2 Na1B 1_555 1_555
O12_2 Na2B 1_555 1_555
H9B O12B 1_555 1_555
H9B_2 O12B_2 1_555 1_555
H9_2 O12_2 1_555 1_555
H10B O12B 1_555 1_555
H10B_2 O12B_2 1_555 1_555
H10_2 O12_2 1_555 1_555
O13B Na1B 1_555 1_555
H11B O13B 1_555 1_555
H12B O13B 1_555 1_555
C1B O1B 1_555 1_555
C2B C1B 1_555 1_555
C3B C2B 1_555 1_555
H13B C3B 1_555 1_555
C4B S1B 1_555 1_555
C5B C4B 1_555 1_555
H14B C5B 1_555 1_555
C6B C5B 1_555 1_555
C7B C2B 1_555 1_555
H15B C7B 1_555 1_555
C8B C6B 1_555 1_555
O12 Na2B_2 1_555 1_555
C3 C4 1_555 1_555
C6 C7 1_555 1_555
Na1A O10A 1_555 1_555
Na1B_2 O11B 1_555 1_555
Na1B_2 O12B 1_555 1_555
Na2B O10C 1_555 1_555
Na2_2 O11B_2 1_555 1_555
Na2_2 O12B_2 1_555 1_555
C3B C4B 1_555 1_555
C6B C7B 1_555 1_555

#END
