
#######################################################################
#
#                 Cambridge Crystallographic Data Centre
#                                CCDC 
#
#######################################################################
#
# If this CIF has been generated from an entry in the Cambridge 
# Structural Database, then it will include bibliographic, chemical, 
# crystal, experimental, refinement or atomic coordinate data resulting 
# from the CCDC's data processing and validation procedures.
#
#######################################################################

data_VOQCOV
_symmetry_cell_setting           monoclinic
_symmetry_space_group_name_H-M   'C 2/c'
_symmetry_Int_Tables_number      15
_space_group_name_Hall           '-C 2yn'
loop_
_symmetry_equiv_pos_site_id
_symmetry_equiv_pos_as_xyz
1 x,y,z
2 -x,y,1/2-z
3 1/2+x,1/2+y,z
4 1/2-x,1/2+y,1/2-z
5 -x,-y,-z
6 x,-y,1/2+z
7 1/2-x,1/2-y,-z
8 1/2+x,1/2-y,1/2+z
_cell_length_a                   26.0223(14)
_cell_length_b                   7.8828(4)
_cell_length_c                   23.1621(13)
_cell_angle_alpha                90
_cell_angle_beta                 103.3470(10)
_cell_angle_gamma                90
_cell_volume                     4622.88
loop_
_atom_site_label
_atom_site_type_symbol
_atom_site_fract_x
_atom_site_fract_y
_atom_site_fract_z
Pb1 Pb 0.816856(9) 0.67548(3) -0.104383(10)
S1 S 1.21766(7) 0.4612(2) 0.39621(7)
S2 S 1.10494(6) 0.90225(17) 0.23850(6)
N1 N 0.88709(18) 0.4877(6) -0.0434(2)
N2 N 0.85899(18) 0.7929(6) -0.0041(2)
N3 N 1.02414(17) 0.4525(5) 0.14343(19)
N4 N 1.00244(18) 0.7063(6) 0.17299(19)
H1 H 1.0032 0.7964 0.1941
O1 O 1.2326(2) 0.6199(7) 0.4236(3)
O2 O 1.2584(3) 0.3984(14) 0.3718(3)
O3 O 1.2013(3) 0.3491(12) 0.4360(3)
O4 O 1.05434(16) 0.9582(5) 0.24780(18)
O5 O 1.10609(19) 0.8969(5) 0.17615(18)
O6 O 1.14890(17) 0.9940(5) 0.2746(2)
C1 C 0.8999(2) 0.3409(8) -0.0629(3)
H2 H 0.8815 0.3041 -0.1001
C2 C 0.9397(2) 0.2379(8) -0.0304(3)
H3 H 0.9473 0.1346 -0.0459
C3 C 0.9673(2) 0.2886(7) 0.0241(3)
H4 H 0.9942 0.2213 0.0460
C4 C 0.9545(2) 0.4446(7) 0.0469(2)
C5 C 0.9815(2) 0.5154(6) 0.1026(2)
C6 C 0.9678(2) 0.6720(7) 0.1205(2)
C7 C 0.9266(2) 0.7756(7) 0.0858(2)
C8 C 0.9118(2) 0.9363(8) 0.1025(3)
H5 H 0.9291 0.9845 0.1384
C9 C 0.8720(3) 1.0201(8) 0.0653(3)
H6 H 0.8619 1.1273 0.0752
C10 C 0.8467(2) 0.9448(9) 0.0127(3)
H7 H 0.8194 1.0040 -0.0122
C11 C 0.8990(2) 0.7058(7) 0.0312(2)
C12 C 0.9136(2) 0.5421(7) 0.0111(2)
C13 C 1.0356(2) 0.5705(7) 0.1856(2)
C14 C 1.0796(2) 0.5546(7) 0.2382(2)
C15 C 1.0894(2) 0.3945(7) 0.2628(3)
H8 H 1.0674 0.3051 0.2466
C16 C 1.1310(3) 0.3640(7) 0.3108(3)
H9 H 1.1376 0.2548 0.3259
C17 C 1.1625(2) 0.4969(7) 0.3361(2)
C18 C 1.1536(2) 0.6584(7) 0.3134(2)
H10 H 1.1754 0.7470 0.3308
C19 C 1.1121(2) 0.6899(7) 0.2644(2)
O7 O 0.7691(2) 0.5009(10) -0.0562(2)
H11 H 0.779(4) 0.457(12) -0.023(2)
H12 H 0.778(4) 0.402(5) -0.060(5)
O8 O 0.8012(3) 0.4025(9) -0.1717(3)
H13 H 0.778(3) 0.435(14) -0.202(3)
H14 H 0.796(4) 0.295(4) -0.171(5)
O9 O 0.90648(19) 0.7947(6) -0.1170(2)
H15 H 0.921(3) 0.720(5) -0.134(3)
H16 H 0.906(3) 0.883(4) -0.137(3)
Pb1G Pb 1.316856(9) 0.82452(3) 0.395617(10)
O1G O 0.7326(2) 0.8801(7) -0.0764(3)
O10 O 0.7736(4) 0.8848(16) 0.7764(4)
H17 H 0.775(7) 0.971(13) 0.799(6)
H18 H 0.800(3) 0.907(19) 0.762(6)
loop_
_geom_bond_atom_site_label_1
_geom_bond_atom_site_label_2
_geom_bond_site_symmetry_1
_geom_bond_site_symmetry_2
Pb1 N1 1_555 1_555
S1 O1 1_555 1_555
S2 O4 1_555 1_555
N1 C1 1_555 1_555
N2 Pb1 1_555 1_555
N3 C5 1_555 1_555
N4 H1 1_555 1_555
O1 Pb1G 1_555 1_555
O2 S1 1_555 1_555
O3 S1 1_555 1_555
O5 S2 1_555 1_555
O6 S2 1_555 1_555
C1 H2 1_555 1_555
C2 C1 1_555 1_555
H3 C2 1_555 1_555
C3 C2 1_555 1_555
H4 C3 1_555 1_555
C4 C3 1_555 1_555
C5 C4 1_555 1_555
C6 N4 1_555 1_555
C7 C6 1_555 1_555
C8 C7 1_555 1_555
H5 C8 1_555 1_555
C9 C8 1_555 1_555
H6 C9 1_555 1_555
C10 N2 1_555 1_555
H7 C10 1_555 1_555
C11 N2 1_555 1_555
C12 N1 1_555 1_555
C13 N3 1_555 1_555
C14 C13 1_555 1_555
C15 C14 1_555 1_555
H8 C15 1_555 1_555
C16 C15 1_555 1_555
H9 C16 1_555 1_555
C17 S1 1_555 1_555
C18 C17 1_555 1_555
H10 C18 1_555 1_555
C19 S2 1_555 1_555
O7 Pb1 1_555 1_555
H11 O7 1_555 1_555
H12 O7 1_555 1_555
O8 Pb1 1_555 1_555
H13 O8 1_555 1_555
H14 O8 1_555 1_555
O9 Pb1 1_555 1_555
H15 O9 1_555 1_555
H16 O9 1_555 1_555
O10 H17 1_555 1_555
H18 O10 1_555 1_555
O1G Pb1 1_555 1_555
N4 C13 1_555 1_555
C4 C12 1_555 1_555
C5 C6 1_555 1_555
C7 C11 1_555 1_555
C9 C10 1_555 1_555
C11 C12 1_555 1_555
C14 C19 1_555 1_555
C16 C17 1_555 1_555
C18 C19 1_555 1_555

#END
