
#######################################################################
#
#                 Cambridge Crystallographic Data Centre
#                                CCDC 
#
#######################################################################
#
# If this CIF has been generated from an entry in the Cambridge 
# Structural Database, then it will include bibliographic, chemical, 
# crystal, experimental, refinement or atomic coordinate data resulting 
# from the CCDC's data processing and validation procedures.
#
#######################################################################

data_VOQCUB
_symmetry_cell_setting           monoclinic
_symmetry_space_group_name_H-M   'P 21/n'
_symmetry_Int_Tables_number      14
_space_group_name_Hall           '-P 2yn'
loop_
_symmetry_equiv_pos_site_id
_symmetry_equiv_pos_as_xyz
1 x,y,z
2 1/2-x,1/2+y,1/2-z
3 -x,-y,-z
4 1/2+x,1/2-y,1/2+z
_cell_length_a                   7.1402(9)
_cell_length_b                   18.552(2)
_cell_length_c                   15.289(2)
_cell_angle_alpha                90
_cell_angle_beta                 97.336(2)
_cell_angle_gamma                90
_cell_volume                     2008.68
loop_
_atom_site_label
_atom_site_type_symbol
_atom_site_fract_x
_atom_site_fract_y
_atom_site_fract_z
Pb1 Pb 0.26622(4) 0.123179(18) 0.78253(2)
S1 S -0.2390(3) 0.11702(13) -0.11484(15)
S2 S -0.4284(3) 0.20420(11) 0.20305(15)
N1 N 0.3551(9) 0.1548(3) 0.6362(5)
N2 N 0.0332(9) 0.0845(4) 0.6575(5)
N3 N 0.1283(8) 0.1536(4) 0.3189(4)
H1 H 0.2159 0.1725 0.2926
N4 N -0.1428(9) 0.1001(4) 0.3378(5)
O1 O -0.0619(10) 0.1259(4) -0.1494(5)
O2 O -0.3749(10) 0.1726(4) -0.1430(5)
O3 O -0.3187(10) 0.0458(4) -0.1300(5)
O4 O -0.3097(8) 0.2468(3) 0.2710(4)
O5 O -0.5376(8) 0.1493(3) 0.2418(4)
O6 O -0.5398(8) 0.2496(3) 0.1392(4)
C1 C 0.5175(11) 0.1901(4) 0.6275(6)
H2 H 0.6013 0.2002 0.6777
C2 C 0.5625(11) 0.2115(4) 0.5461(6)
H3 H 0.6743 0.2365 0.5427
C3 C 0.4445(11) 0.1965(4) 0.4703(6)
H4 H 0.4755 0.2092 0.4151
C4 C 0.2732(10) 0.1607(4) 0.4800(5)
C5 C 0.1331(10) 0.1439(4) 0.4066(5)
C6 C -0.0349(11) 0.1097(4) 0.4181(6)
C7 C -0.0734(10) 0.0878(4) 0.5026(5)
C8 C -0.2386(11) 0.0499(4) 0.5181(6)
H5 H -0.3311 0.0390 0.4715
C9 C -0.2604(11) 0.0298(4) 0.6007(6)
H6 H -0.3663 0.0037 0.6113
C10 C -0.1240(11) 0.0483(4) 0.6703(6)
H7 H -0.1421 0.0352 0.7274
C11 C 0.0580(11) 0.1028(4) 0.5765(6)
C12 C 0.2351(10) 0.1407(4) 0.5627(6)
C13 C -0.0422(11) 0.1277(4) 0.2791(5)
C14 C -0.0971(11) 0.1292(4) 0.1824(6)
C15 C 0.0306(11) 0.0998(5) 0.1305(6)
H8 H 0.1458 0.0819 0.1569
C16 C -0.0133(12) 0.0971(5) 0.0400(7)
H9 H 0.0707 0.0768 0.0053
C17 C -0.1829(11) 0.1249(4) 0.0017(6)
C18 C -0.3061(11) 0.1554(4) 0.0523(6)
H10 H -0.4196 0.1743 0.0252
C19 C -0.2654(10) 0.1584(4) 0.1416(6)
O7 O 0.3965(8) 0.0044(3) 0.7302(5)
Pb1_2 Pb -0.73378(4) 0.123179(18) -0.21747(2)
Pb1_3 Pb 0.26622(4) 0.123179(18) -0.21747(2)
Pb1C Pb -0.23378(4) 0.376821(18) 0.28253(2)
O1_2 O -0.0619(10) 0.1259(4) 0.8506(5)
O2_2 O 0.6251(10) 0.1726(4) 0.8570(5)
O4C O 0.1903(8) 0.2532(3) 0.7710(4)
O8 O 0.873(2) 0.4660(9) 0.4600(14)
loop_
_geom_bond_atom_site_label_1
_geom_bond_atom_site_label_2
_geom_bond_site_symmetry_1
_geom_bond_site_symmetry_2
Pb1 N1 1_555 1_555
S1 O1 1_555 1_555
S2 O4 1_555 1_555
N1 C1 1_555 1_555
N2 Pb1 1_555 1_555
N3 H1 1_555 1_555
N4 C6 1_555 1_555
O1 Pb1_3 1_555 1_555
O2 S1 1_555 1_555
O3 S1 1_555 1_555
O4 Pb1C 1_555 1_555
O5 S2 1_555 1_555
O6 S2 1_555 1_555
C1 H2 1_555 1_555
C2 C1 1_555 1_555
H3 C2 1_555 1_555
C3 C2 1_555 1_555
H4 C3 1_555 1_555
C4 C3 1_555 1_555
C5 N3 1_555 1_555
C6 C5 1_555 1_555
C7 C6 1_555 1_555
C8 C7 1_555 1_555
H5 C8 1_555 1_555
C9 C8 1_555 1_555
H6 C9 1_555 1_555
C10 N2 1_555 1_555
H7 C10 1_555 1_555
C11 N2 1_555 1_555
C12 N1 1_555 1_555
C13 N3 1_555 1_555
C14 C13 1_555 1_555
C15 C14 1_555 1_555
H8 C15 1_555 1_555
C16 C15 1_555 1_555
H9 C16 1_555 1_555
C17 S1 1_555 1_555
C18 C17 1_555 1_555
H10 C18 1_555 1_555
C19 S2 1_555 1_555
O7 Pb1 1_555 1_555
Pb1_2 O2 1_555 1_555
O1_2 Pb1 1_555 1_555
O2_2 Pb1 1_555 1_555
O4C Pb1 1_555 1_555
N4 C13 1_555 1_555
C4 C5 1_555 1_555
C4 C12 1_555 1_555
C7 C11 1_555 1_555
C9 C10 1_555 1_555
C11 C12 1_555 1_555
C14 C19 1_555 1_555
C16 C17 1_555 1_555
C18 C19 1_555 1_555

#END
