
#######################################################################
#
#                 Cambridge Crystallographic Data Centre
#                                CCDC 
#
#######################################################################
#
# If this CIF has been generated from an entry in the Cambridge 
# Structural Database, then it will include bibliographic, chemical, 
# crystal, experimental, refinement or atomic coordinate data resulting 
# from the CCDC's data processing and validation procedures.
#
#######################################################################

data_VOQDEM
_symmetry_cell_setting           orthorhombic
_symmetry_space_group_name_H-M   'P c a n'
_symmetry_Int_Tables_number      60
_space_group_name_Hall           '-P 2n 2c'
loop_
_symmetry_equiv_pos_site_id
_symmetry_equiv_pos_as_xyz
1 x,y,z
2 1/2-x,1/2-y,1/2+z
3 x,-y,1/2-z
4 1/2-x,1/2+y,-z
5 -x,-y,-z
6 1/2+x,1/2+y,1/2-z
7 -x,y,1/2+z
8 1/2+x,1/2-y,z
_cell_length_a                   7.2658(2)
_cell_length_b                   11.4548(3)
_cell_length_c                   27.8685(8)
_cell_angle_alpha                90
_cell_angle_beta                 90
_cell_angle_gamma                90
_cell_volume                     2319.45
loop_
_atom_site_label
_atom_site_type_symbol
_atom_site_fract_x
_atom_site_fract_y
_atom_site_fract_z
Co1 Co 0.9854(2) 0.94680(13) 0.16116(5)
O1 O 0.7232(13) 1.0187(7) 0.1381(3)
H1 H 0.6781 1.0808 0.1502
H2 H 0.6462 0.9682 0.1301
N1 N 1.2708(12) 0.7448(8) -0.1000(3)
H3 H 1.2640 0.8117 -0.1138
O2 O 0.9721(12) 0.6490(8) 0.1104(3)
O3 O 1.3673(14) 0.5543(7) -0.1130(3)
O4 O 1.4092(14) 0.7929(7) -0.1890(3)
O5 O 1.4778(13) 0.6037(7) -0.2004(3)
O6 O 1.2397(13) 0.8722(8) 0.1848(3)
H4 H 1.2405 0.8101 0.2015
H5 H 1.2534 0.9295 0.2038
O7 O 0.9532(13) 0.8357(8) 0.1094(3)
C1 C 0.9961(14) 0.7386(10) 0.0909(4)
C2 C 1.1611(16) 0.8442(9) -0.0301(4)
H6 H 1.1758 0.9145 -0.0463
C3 C 1.2021(14) 0.7402(10) -0.0527(4)
O8 O 0.8410(12) 0.8662(7) 0.2156(3)
H7 H 0.8089 0.8210 0.2383
H8 H 0.7971 0.9335 0.2216
C4 C 1.0692(15) 0.7396(10) 0.0408(3)
C5 C 1.1037(17) 0.6352(9) 0.0176(4)
H9 H 1.0812 0.5653 0.0336
C6 C 1.0980(15) 0.8439(9) 0.0169(4)
H10 H 1.0749 0.9143 0.0324
C7 C 1.4129(17) 0.6915(10) -0.1779(4)
C8 C 1.3484(17) 0.6551(10) -0.1274(4)
C9 C 1.1712(16) 0.6322(10) -0.0291(4)
H11 H 1.1954 0.5616 -0.0443
Co1C Co 1.5146(2) 0.44680(13) -0.16116(5)
O3C O 1.1327(14) 1.0543(7) 0.1130(3)
O5C O 1.0222(13) 1.1037(7) 0.2004(3)
O9 O 1.0087(11) 0.5498(6) 0.1628(3)
H12 H 1.0279 0.6188 0.1526
H13 H 0.9266 0.5253 0.1450
O10 O 0.965(2) 1.5000 0.2500
H14 H 1.0330 1.4412 0.2420
H14B H 1.0330 1.5588 0.2580
loop_
_geom_bond_atom_site_label_1
_geom_bond_atom_site_label_2
_geom_bond_site_symmetry_1
_geom_bond_site_symmetry_2
Co1 O1 1_555 1_555
O1 H1 1_555 1_555
H2 O1 1_555 1_555
N1 H3 1_555 1_555
O2 C1 1_555 1_555
O3 C8 1_555 1_555
O4 C7 1_555 1_555
O5 C7 1_555 1_555
O6 Co1 1_555 1_555
H4 O6 1_555 1_555
H5 O6 1_555 1_555
O7 Co1 1_555 1_555
C1 O7 1_555 1_555
C2 H6 1_555 1_555
C3 N1 1_555 1_555
O8 Co1 1_555 1_555
H7 O8 1_555 1_555
H8 O8 1_555 1_555
C4 C1 1_555 1_555
C5 C4 1_555 1_555
H9 C5 1_555 1_555
C6 C2 1_555 1_555
H10 C6 1_555 1_555
C7 C8 1_555 1_555
C8 N1 1_555 1_555
C9 C3 1_555 1_555
H11 C9 1_555 1_555
O9 H12 1_555 1_555
H13 O9 1_555 1_555
O10 H14 1_555 1_555
Co1C O3 1_555 1_555
O3C Co1 1_555 1_555
O5C Co1 1_555 1_555
H14B O10 1_555 1_555
O5 Co1C 1_555 1_555
C2 C3 1_555 1_555
C4 C6 1_555 1_555
C5 C9 1_555 1_555

#END
