
#######################################################################
#
#                 Cambridge Crystallographic Data Centre
#                                CCDC 
#
#######################################################################
#
# If this CIF has been generated from an entry in the Cambridge 
# Structural Database, then it will include bibliographic, chemical, 
# crystal, experimental, refinement or atomic coordinate data resulting 
# from the CCDC's data processing and validation procedures.
#
#######################################################################

data_VOQDUB01
_symmetry_cell_setting           monoclinic
_symmetry_space_group_name_H-M   'C 2/c'
_symmetry_Int_Tables_number      15
_space_group_name_Hall           '-C 2yn'
loop_
_symmetry_equiv_pos_site_id
_symmetry_equiv_pos_as_xyz
1 x,y,z
2 -x,y,1/2-z
3 1/2+x,1/2+y,z
4 1/2-x,1/2+y,1/2-z
5 -x,-y,-z
6 x,-y,1/2+z
7 1/2-x,1/2-y,-z
8 1/2+x,1/2-y,1/2+z
_cell_length_a                   11.9475(3)
_cell_length_b                   16.8215(4)
_cell_length_c                   12.8709(3)
_cell_angle_alpha                90
_cell_angle_beta                 90.9800(10)
_cell_angle_gamma                90
_cell_volume                     2586.35
loop_
_atom_site_label
_atom_site_type_symbol
_atom_site_fract_x
_atom_site_fract_y
_atom_site_fract_z
Cd1 Cd 0.5000 0.295230(11) 0.2500
S1 S 0.68412(4) 0.35443(3) 0.22642(5)
N1 N 0.48666(15) 0.20076(9) 0.11899(12)
C1 C 0.57858(18) 0.16227(13) 0.09052(16)
H1 H 0.6433 0.1685 0.1309
C2 C 0.58288(19) 0.11391(13) 0.00467(16)
H2 H 0.6495 0.0890 -0.0125
C3 C 0.48758(18) 0.10240(11) -0.05619(13)
C4 C 0.39271(18) 0.14151(14) -0.02574(16)
H3 H 0.3265 0.1354 -0.0639
C5 C 0.39461(19) 0.18962(15) 0.06063(18)
H4 H 0.3291 0.2154 0.0791
C6 C 0.4892(2) 0.05283(12) -0.15294(14)
H5 H 0.4208 0.0220 -0.1579
H6 H 0.5516 0.0160 -0.1487
C7 C 0.5000 0.10360(16) -0.2500
H7 H 0.4347 0.1375 -0.2573
C8 C 0.66162(15) 0.45198(12) 0.27553(16)
C9 C 0.6813(2) 0.51804(15) 0.21510(18)
H8 H 0.7059 0.5115 0.1475
C10 C 0.6648(2) 0.59403(16) 0.2537(2)
H9 H 0.6784 0.6375 0.2111
C11 C 0.62883(19) 0.60678(14) 0.3531(2)
C12 C 0.6120(2) 0.54105(15) 0.41356(19)
H10 H 0.5893 0.5480 0.4817
C13 C 0.62752(19) 0.46489(14) 0.37691(18)
H11 H 0.6151 0.4217 0.4204
C14 C 0.6078(3) 0.68943(17) 0.3939(3)
H12 H 0.5325 0.7050 0.3769
H13 H 0.6592 0.7259 0.3628
H14 H 0.6186 0.6899 0.4680
Cd1_2 Cd 0.5000 0.295230(11) -0.7500
S1A S 0.31588(4) 0.35443(3) 0.27358(5)
N1A N 0.51334(15) 0.20076(9) -0.61899(12)
N1A_2 N 0.51334(15) 0.20076(9) 0.38101(12)
C1A C 0.42142(18) 0.16227(13) -0.59052(16)
H1A H 0.3567 0.1685 -0.6309
C2A C 0.41712(19) 0.11391(13) -0.50467(16)
H2A H 0.3505 0.0890 -0.4875
C3A C 0.51242(18) 0.10240(11) -0.44381(13)
C4A C 0.60729(18) 0.14151(14) -0.47426(16)
H3A H 0.6735 0.1354 -0.4361
C5A C 0.60539(19) 0.18962(15) -0.56063(18)
H4A H 0.6709 0.2154 -0.5791
C6A C 0.5108(2) 0.05283(12) -0.34706(14)
H5A H 0.5792 0.0220 -0.3421
H6A H 0.4484 0.0160 -0.3513
H7A H 0.5653 0.1375 -0.2427
C8A C 0.33838(15) 0.45198(12) 0.22447(16)
C9A C 0.3187(2) 0.51804(15) 0.28490(18)
H8A H 0.2941 0.5115 0.3525
C10A C 0.3352(2) 0.59403(16) 0.2463(2)
H9A H 0.3216 0.6375 0.2889
C11A C 0.37117(19) 0.60678(14) 0.1469(2)
C12A C 0.3880(2) 0.54105(15) 0.08644(19)
H10A H 0.4107 0.5480 0.0183
C13A C 0.37248(19) 0.46489(14) 0.12309(18)
H11A H 0.3849 0.4217 0.0796
C14A C 0.3922(3) 0.68943(17) 0.1061(3)
H12A H 0.4675 0.7050 0.1231
H13A H 0.3408 0.7259 0.1372
H14A H 0.3814 0.6899 0.0320
loop_
_geom_bond_atom_site_label_1
_geom_bond_atom_site_label_2
_geom_bond_site_symmetry_1
_geom_bond_site_symmetry_2
Cd1 S1 1_555 1_555
S1 C8 1_555 1_555
N1 Cd1 1_555 1_555
C1 N1 1_555 1_555
H1 C1 1_555 1_555
C2 C1 1_555 1_555
H2 C2 1_555 1_555
C3 C2 1_555 1_555
C4 C3 1_555 1_555
H3 C4 1_555 1_555
C5 N1 1_555 1_555
H4 C5 1_555 1_555
C6 C3 1_555 1_555
H5 C6 1_555 1_555
H6 C6 1_555 1_555
C7 C6 1_555 1_555
H7 C7 1_555 1_555
C8 C9 1_555 1_555
C9 H8 1_555 1_555
C10 C9 1_555 1_555
H9 C10 1_555 1_555
C11 C10 1_555 1_555
C12 C11 1_555 1_555
H10 C12 1_555 1_555
C13 C8 1_555 1_555
H11 C13 1_555 1_555
C14 C11 1_555 1_555
H12 C14 1_555 1_555
H13 C14 1_555 1_555
H14 C14 1_555 1_555
Cd1_2 N1A 1_555 1_555
S1A Cd1 1_555 1_555
N1A C1A 1_555 1_555
N1A_2 Cd1 1_555 1_555
C1A H1A 1_555 1_555
C2A C1A 1_555 1_555
H2A C2A 1_555 1_555
C3A C2A 1_555 1_555
C4A C3A 1_555 1_555
H3A C4A 1_555 1_555
C5A N1A 1_555 1_555
H4A C5A 1_555 1_555
C6A C7 1_555 1_555
H5A C6A 1_555 1_555
H6A C6A 1_555 1_555
H7A C7 1_555 1_555
C8A S1A 1_555 1_555
C9A C8A 1_555 1_555
H8A C9A 1_555 1_555
C10A C9A 1_555 1_555
H9A C10A 1_555 1_555
C11A C10A 1_555 1_555
C12A C11A 1_555 1_555
H10A C12A 1_555 1_555
C13A C8A 1_555 1_555
H11A C13A 1_555 1_555
C14A C11A 1_555 1_555
H12A C14A 1_555 1_555
H13A C14A 1_555 1_555
H14A C14A 1_555 1_555
C4 C5 1_555 1_555
C12 C13 1_555 1_555
C3A C6A 1_555 1_555
C4A C5A 1_555 1_555
C12A C13A 1_555 1_555

#END
