
#######################################################################
#
#                 Cambridge Crystallographic Data Centre
#                                CCDC 
#
#######################################################################
#
# If this CIF has been generated from an entry in the Cambridge 
# Structural Database, then it will include bibliographic, chemical, 
# crystal, experimental, refinement or atomic coordinate data resulting 
# from the CCDC's data processing and validation procedures.
#
#######################################################################

data_VOQDAI
_symmetry_cell_setting           triclinic
_symmetry_space_group_name_H-M   'P -1'
_symmetry_Int_Tables_number      2
_space_group_name_Hall           '-P 1'
loop_
_symmetry_equiv_pos_site_id
_symmetry_equiv_pos_as_xyz
1 x,y,z
2 -x,-y,-z
_cell_length_a                   7.2844(17)
_cell_length_b                   9.696(2)
_cell_length_c                   15.178(3)
_cell_angle_alpha                73.919(3)
_cell_angle_beta                 76.947(4)
_cell_angle_gamma                77.491(3)
_cell_volume                     989.773
loop_
_atom_site_label
_atom_site_type_symbol
_atom_site_fract_x
_atom_site_fract_y
_atom_site_fract_z
Pb1 Pb 0.64384(3) 0.64844(2) 0.625427(13)
S1 S 0.7927(2) 0.08404(16) 1.28923(10)
S2 S 0.8130(2) -0.50162(15) 1.39353(10)
N1 N 0.6705(7) 0.3819(5) 0.7083(3)
N2 N 0.6932(7) 0.5862(5) 0.7939(3)
N3 N 0.7791(7) 0.1826(5) 1.0714(3)
H1 H 0.7978 0.2185 1.1139
N4 N 0.7409(7) 0.0197(5) 1.0021(3)
O1 O 0.5986(7) 0.1562(5) 1.2853(4)
O2 O 0.8399(8) 0.0374(5) 1.3814(3)
O3 O 0.9308(7) 0.1665(5) 1.2227(3)
O4 O 1.0062(7) -0.5766(6) 1.3881(4)
O5 O 0.6931(7) -0.5824(5) 1.3718(4)
O6 O 0.7363(10) -0.4568(5) 1.4780(3)
C1 C 0.6585(9) 0.2834(6) 0.6646(4)
H2 H 0.6454 0.3144 0.6023
C2 C 0.6647(9) 0.1352(7) 0.7080(4)
H3 H 0.6555 0.0692 0.6756
C3 C 0.6850(9) 0.0901(6) 0.8002(4)
H4 H 0.6888 -0.0076 0.8310
C4 C 0.6996(8) 0.1908(6) 0.8473(4)
C5 C 0.7266(8) 0.1535(6) 0.9419(4)
C6 C 0.7488(8) 0.2574(6) 0.9840(4)
C7 C 0.7400(8) 0.4069(7) 0.9378(4)
C8 C 0.7561(9) 0.5189(7) 0.9762(4)
H5 H 0.7742 0.4979 1.0376
C9 C 0.7454(11) 0.6588(7) 0.9236(5)
H6 H 0.7597 0.7333 0.9478
C10 C 0.7123(10) 0.6877(7) 0.8324(4)
H7 H 0.7033 0.7833 0.7971
C11 C 0.7090(8) 0.4475(6) 0.8448(4)
C12 C 0.6914(8) 0.3375(6) 0.7991(4)
C13 C 0.7741(8) 0.0391(6) 1.0786(4)
C14 C 0.7973(8) -0.0836(6) 1.1615(4)
C15 C 0.8053(9) -0.2196(7) 1.1456(4)
H8 H 0.8047 -0.2249 1.0854
C16 C 0.8139(9) -0.3466(6) 1.2143(4)
H9 H 0.8192 -0.4353 1.2006
C17 C 0.8147(8) -0.3403(6) 1.3038(4)
C18 C 0.8171(8) -0.2069(6) 1.3221(4)
H10 H 0.8250 -0.2038 1.3818
C19 C 0.8078(8) -0.0791(6) 1.2525(4)
O7 O 0.8167(9) 0.8878(6) 0.5770(5)
H11 H 0.910(10) 0.887(11) 0.603(6)
H12 H 0.905(10) 0.909(10) 0.531(4)
Pb1_2 Pb 0.64384(3) -0.35156(2) 1.625427(13)
Pb1A Pb 0.35616(3) -0.64844(2) 1.374573(13)
Pb1A_2 Pb 0.35616(3) 0.35156(2) 1.374573(13)
Pb1A_3 Pb 1.35616(3) -0.64844(2) 1.374573(13)
O1A O 0.4014(7) 0.8438(5) 0.7147(4)
O4A O 0.9938(7) 0.5766(6) 0.6119(4)
O5A O 0.3069(7) 0.5824(5) 0.6282(4)
O6_2 O 0.7363(10) 0.5432(5) 0.4780(3)
loop_
_geom_bond_atom_site_label_1
_geom_bond_atom_site_label_2
_geom_bond_site_symmetry_1
_geom_bond_site_symmetry_2
Pb1 N1 1_555 1_555
S1 O1 1_555 1_555
S2 O4 1_555 1_555
N1 C1 1_555 1_555
N2 Pb1 1_555 1_555
N3 H1 1_555 1_555
N4 C5 1_555 1_555
O1 Pb1A_2 1_555 1_555
O2 S1 1_555 1_555
O3 S1 1_555 1_555
O4 Pb1A_3 1_555 1_555
O5 S2 1_555 1_555
O6 S2 1_555 1_555
C1 H2 1_555 1_555
C2 C1 1_555 1_555
H3 C2 1_555 1_555
C3 C2 1_555 1_555
H4 C3 1_555 1_555
C4 C3 1_555 1_555
C5 C4 1_555 1_555
C6 N3 1_555 1_555
C7 C6 1_555 1_555
C8 C7 1_555 1_555
H5 C8 1_555 1_555
C9 C8 1_555 1_555
H6 C9 1_555 1_555
C10 N2 1_555 1_555
H7 C10 1_555 1_555
C11 N2 1_555 1_555
C12 N1 1_555 1_555
C13 N3 1_555 1_555
C14 C13 1_555 1_555
C15 C14 1_555 1_555
H8 C15 1_555 1_555
C16 C15 1_555 1_555
H9 C16 1_555 1_555
C17 S2 1_555 1_555
C18 C17 1_555 1_555
H10 C18 1_555 1_555
C19 S1 1_555 1_555
O7 Pb1 1_555 1_555
H11 O7 1_555 1_555
H12 O7 1_555 1_555
Pb1_2 O6 1_555 1_555
Pb1A O5 1_555 1_555
O1A Pb1 1_555 1_555
O4A Pb1 1_555 1_555
O5A Pb1 1_555 1_555
O6_2 Pb1 1_555 1_555
N4 C13 1_555 1_555
C4 C12 1_555 1_555
C5 C6 1_555 1_555
C7 C11 1_555 1_555
C9 C10 1_555 1_555
C11 C12 1_555 1_555
C14 C19 1_555 1_555
C16 C17 1_555 1_555
C18 C19 1_555 1_555

#END
