
#######################################################################
#
#                 Cambridge Crystallographic Data Centre
#                                CCDC 
#
#######################################################################
#
# If this CIF has been generated from an entry in the Cambridge 
# Structural Database, then it will include bibliographic, chemical, 
# crystal, experimental, refinement or atomic coordinate data resulting 
# from the CCDC's data processing and validation procedures.
#
#######################################################################

data_VOQJIW
_symmetry_cell_setting           monoclinic
_symmetry_space_group_name_H-M   'C 2/c'
_symmetry_Int_Tables_number      15
_space_group_name_Hall           '-C 2yn'
loop_
_symmetry_equiv_pos_site_id
_symmetry_equiv_pos_as_xyz
1 x,y,z
2 -x,y,1/2-z
3 1/2+x,1/2+y,z
4 1/2-x,1/2+y,1/2-z
5 -x,-y,-z
6 x,-y,1/2+z
7 1/2-x,1/2-y,-z
8 1/2+x,1/2-y,1/2+z
_cell_length_a                   26.6381(19)
_cell_length_b                   20.128(2)
_cell_length_c                   18.3868(15)
_cell_angle_alpha                90
_cell_angle_beta                 117.091(2)
_cell_angle_gamma                90
_cell_volume                     8776.85
loop_
_atom_site_label
_atom_site_type_symbol
_atom_site_fract_x
_atom_site_fract_y
_atom_site_fract_z
Br1 Br 0.97994(5) 0.25154(6) 0.63506(7)
Br2 Br 0.82783(5) 0.34293(6) 0.55106(7)
Br3 Br 1.0000 0.43981(8) 0.7500
Br4 Br 0.87696(5) 0.41525(6) 0.80734(7)
Br5 Br 1.06931(5) 0.47479(6) 0.99482(7)
Br6 Br 1.0000 0.61910(8) 0.7500
Br7 Br 1.01656(5) 0.65611(6) 0.95820(7)
Br8 Br 0.85988(5) 0.62969(6) 0.79996(7)
Br9 Br 0.92344(5) 0.80754(6) 0.91021(7)
Br10 Br 0.85207(5) 0.21331(6) 0.73951(7)
Br11 Br 0.83393(5) 0.81584(6) 0.66207(7)
Pb1 Pb 0.913560(18) 0.31894(2) 0.72260(3)
Pb2 Pb 0.961709(18) 0.52879(2) 0.86000(3)
Pb3 Pb 0.918093(19) 0.67382(2) 0.98161(3)
Pb4 Pb 0.931155(19) 0.74586(2) 0.77785(3)
Br1A Br 1.02006(5) 0.25154(6) 0.86494(7)
Br2A Br 1.17217(5) 0.34293(6) 0.94894(7)
Br4A Br 1.12304(5) 0.41525(6) 0.69266(7)
Br5A Br 0.93069(5) 0.47479(6) 0.50518(7)
Br7A Br 0.98344(5) 0.65611(6) 0.54180(7)
Br8A Br 1.14012(5) 0.62969(6) 0.70004(7)
Br9A Br 1.07656(5) 0.80754(6) 0.58979(7)
Br10A Br 1.14793(5) 0.21331(6) 0.76049(7)
Br11A Br 1.16607(5) 0.81584(6) 0.83793(7)
Pb1A Pb 1.086440(18) 0.31894(2) 0.77740(3)
Pb2A Pb 1.038291(18) 0.52879(2) 0.64000(3)
Pb3A Pb 1.081907(19) 0.67382(2) 0.51839(3)
Pb4A Pb 1.068845(19) 0.74586(2) 0.72215(3)
Br1D Br 1.02006(5) 0.74846(6) 0.36494(7)
Br1E Br 0.97994(5) 0.74846(6) 1.13506(7)
Br2D Br 1.17217(5) 0.65707(6) 0.44894(7)
Br2E Br 0.82783(5) 0.65707(6) 1.05106(7)
Br5D Br 0.93069(5) 0.52521(6) 1.00518(7)
Br5E Br 1.06931(5) 0.52521(6) 0.49482(7)
Pb2D Pb 1.038291(18) 0.47121(2) 1.14000(3)
Pb2E Pb 0.961709(18) 0.47121(2) 0.36000(3)
Pb3D Pb 1.081907(19) 0.32618(2) 1.01839(3)
Pb3E Pb 0.918093(19) 0.32618(2) 0.48161(3)
C1 C 0.8739(5) 0.0331(7) 1.0867(7)
H1 H 0.8751 0.0789 1.0810
C2 C 0.8958(5) 0.0093(6) 1.1592(7)
H2 H 0.9168 0.0372 1.2029
C3 C 0.8893(6) -0.0552(8) 1.1743(8)
H3 H 0.8981 -0.0700 1.2267
C4 C 0.8685(6) -0.0988(6) 1.1067(7)
H4 H 0.8724 -0.1447 1.1133
C5 C 0.8424(5) -0.0703(6) 1.0313(7)
C6 C 0.8168(5) -0.1079(6) 0.9515(7)
C7 C 0.8016(6) -0.1726(6) 0.9447(8)
H5 H 0.8064 -0.1969 0.9904
C8 C 0.7783(5) -0.2022(6) 0.8666(7)
H6 H 0.7734 -0.2479 0.8593
C9 C 0.7630(6) -0.1581(7) 0.8007(8)
H7 H 0.7417 -0.1742 0.7480
C10 C 0.7785(6) -0.0905(6) 0.8112(7)
C11 C 0.7663(5) -0.0362(5) 0.7487(7)
C12 C 0.7426(4) -0.0497(5) 0.6666(6)
H8 H 0.7332 -0.0925 0.6456
C13 C 0.7338(5) 0.0052(6) 0.6179(7)
H9 H 0.7173 -0.0013 0.5616
C14 C 0.7483(5) 0.0716(6) 0.6475(7)
H10 H 0.7428 0.1086 0.6144
C15 C 0.7718(5) 0.0740(6) 0.7326(6)
H11 H 0.7825 0.1150 0.7583
C16 C 0.9214(5) -0.0236(7) 0.8874(7)
H12 H 0.9047 -0.0653 0.8726
C17 C 0.9692(5) -0.0139(6) 0.8924(7)
H13 H 0.9899 -0.0496 0.8883
C18 C 0.9911(5) 0.0482(7) 0.9037(8)
H14 H 1.0253 0.0545 0.9026
C19 C 0.9655(5) 0.1002(7) 0.9163(8)
H15 H 0.9810 0.1426 0.9237
C20 C 0.9143(5) 0.0885(6) 0.9180(7)
C21 C 0.8789(6) 0.1377(6) 0.9278(8)
C22 C 0.8906(6) 0.2035(6) 0.9452(7)
H16 H 0.9266 0.2187 0.9580
C23 C 0.8517(6) 0.2480(6) 0.9448(8)
H17 H 0.8600 0.2932 0.9518
C24 C 0.7952(5) 0.2226(5) 0.9329(6)
H18 H 0.7669 0.2505 0.9315
C25 C 0.7886(4) 0.1533(5) 0.9239(5)
C26 C 0.7371(4) 0.1133(5) 0.9106(6)
C27 C 0.6923(5) 0.1415(7) 0.9228(7)
H19 H 0.6920 0.1852 0.9391
C28 C 0.6482(6) 0.0957(8) 0.9075(8)
H20 H 0.6153 0.1098 0.9083
C29 C 0.6545(5) 0.0291(7) 0.8912(6)
H21 H 0.6259 -0.0007 0.8840
C30 C 0.6977(5) 0.0073(6) 0.8857(6)
H22 H 0.6988 -0.0366 0.8705
Co1 Co 0.81613(6) 0.02303(8) 0.90137(8)
N1 N 0.8486(4) -0.0048(5) 1.0160(6)
N2 N 0.8005(5) -0.0692(5) 0.8843(6)
N3 N 0.7795(4) 0.0208(5) 0.7782(5)
N4 N 0.8934(4) 0.0272(5) 0.9039(5)
N5 N 0.8305(4) 0.1140(5) 0.9186(5)
N6 N 0.7435(4) 0.0495(5) 0.9025(6)
O1 O 0.0386(13) 0.8217(16) 0.8607(18)
H23 H 0.0380 0.8509 0.8268
H24 H 0.0665 0.7959 0.8725
loop_
_geom_bond_atom_site_label_1
_geom_bond_atom_site_label_2
_geom_bond_site_symmetry_1
_geom_bond_site_symmetry_2
Br1 Pb1 1_555 1_555
Br2 Pb1 1_555 1_555
Br3 Pb1 1_555 1_555
Br4 Pb1 1_555 1_555
Br5 Pb2 1_555 1_555
Br6 Pb2 1_555 1_555
Br7 Pb2 1_555 1_555
Br8 Pb2 1_555 1_555
Br9 Pb3 1_555 1_555
Br10 Pb1 1_555 1_555
Br11 Pb4 1_555 1_555
Pb1 Br1A 1_555 1_555
Pb2 Br3 1_555 1_555
Pb3 Br7 1_555 1_555
Pb4 Br6 1_555 1_555
C1 H1 1_555 1_555
C2 C1 1_555 1_555
H2 C2 1_555 1_555
C3 C2 1_555 1_555
H3 C3 1_555 1_555
C4 C3 1_555 1_555
H4 C4 1_555 1_555
C5 C4 1_555 1_555
C6 C5 1_555 1_555
C7 C6 1_555 1_555
H5 C7 1_555 1_555
C8 C7 1_555 1_555
H6 C8 1_555 1_555
C9 C8 1_555 1_555
H7 C9 1_555 1_555
C10 C9 1_555 1_555
C11 C10 1_555 1_555
C12 C11 1_555 1_555
H8 C12 1_555 1_555
C13 C12 1_555 1_555
H9 C13 1_555 1_555
C14 C13 1_555 1_555
H10 C14 1_555 1_555
C15 C14 1_555 1_555
H11 C15 1_555 1_555
C16 H12 1_555 1_555
C17 C16 1_555 1_555
H13 C17 1_555 1_555
C18 C17 1_555 1_555
H14 C18 1_555 1_555
C19 C18 1_555 1_555
H15 C19 1_555 1_555
C20 C19 1_555 1_555
C21 C20 1_555 1_555
C22 C21 1_555 1_555
H16 C22 1_555 1_555
C23 C22 1_555 1_555
H17 C23 1_555 1_555
C24 C23 1_555 1_555
H18 C24 1_555 1_555
C25 C24 1_555 1_555
C26 C25 1_555 1_555
C27 C26 1_555 1_555
H19 C27 1_555 1_555
C28 C27 1_555 1_555
H20 C28 1_555 1_555
C29 C28 1_555 1_555
H21 C29 1_555 1_555
C30 C29 1_555 1_555
H22 C30 1_555 1_555
Co1 N1 1_555 1_555
N1 C1 1_555 1_555
N2 C6 1_555 1_555
N3 C11 1_555 1_555
N4 C16 1_555 1_555
N5 C21 1_555 1_555
N6 C26 1_555 1_555
O1 H23 1_555 1_555
H24 O1 1_555 1_555
Br1A Pb1A 1_555 1_555
Br2A Pb1A 1_555 1_555
Br4A Pb1A 1_555 1_555
Br5A Pb2A 1_555 1_555
Br7A Pb2A 1_555 1_555
Br8A Pb2A 1_555 1_555
Br9A Pb3A 1_555 1_555
Br10A Pb1A 1_555 1_555
Br11A Pb4A 1_555 1_555
Pb1A Br1 1_555 1_555
Pb2A Br3 1_555 1_555
Pb3A Br7A 1_555 1_555
Pb4A Br6 1_555 1_555
Br1D Pb3A 1_555 1_555
Br1E Pb3 1_555 1_555
Br2D Pb3A 1_555 1_555
Br2E Pb3 1_555 1_555
Br5D Pb2 1_555 1_555
Br5E Pb2A 1_555 1_555
Pb2D Br5 1_555 1_555
Pb2E Br5A 1_555 1_555
Pb3D Br5 1_555 1_555
Pb3E Br1 1_555 1_555
Br2 Pb3E 1_555 1_555
Br3 Pb1A 1_555 1_555
Br4 Pb2 1_555 1_555
Br6 Pb2A 1_555 1_555
Br8 Pb3 1_555 1_555
Br8 Pb4 1_555 1_555
Br9 Pb4 1_555 1_555
Pb3 Br5D 1_555 1_555
C5 N1 1_555 1_555
C10 N2 1_555 1_555
C15 N3 1_555 1_555
C20 N4 1_555 1_555
C25 N5 1_555 1_555
C30 N6 1_555 1_555
Co1 N2 1_555 1_555
Co1 N3 1_555 1_555
Co1 N4 1_555 1_555
Co1 N5 1_555 1_555
Co1 N6 1_555 1_555
Br1A Pb3D 1_555 1_555
Br2A Pb3D 1_555 1_555
Br4A Pb2A 1_555 1_555
Br5A Pb3E 1_555 1_555
Br8A Pb3A 1_555 1_555
Br8A Pb4A 1_555 1_555
Br9A Pb4A 1_555 1_555
Pb3A Br5E 1_555 1_555
Br5D Pb2D 1_555 1_555
Br5E Pb2E 1_555 1_555

#END
