
#######################################################################
#
#                 Cambridge Crystallographic Data Centre
#                                CCDC 
#
#######################################################################
#
# If this CIF has been generated from an entry in the Cambridge 
# Structural Database, then it will include bibliographic, chemical, 
# crystal, experimental, refinement or atomic coordinate data resulting 
# from the CCDC's data processing and validation procedures.
#
#######################################################################

data_VOQJOC
_symmetry_cell_setting           monoclinic
_symmetry_space_group_name_H-M   'C 2/c'
_symmetry_Int_Tables_number      15
_space_group_name_Hall           '-C 2yn'
loop_
_symmetry_equiv_pos_site_id
_symmetry_equiv_pos_as_xyz
1 x,y,z
2 -x,y,1/2-z
3 1/2+x,1/2+y,z
4 1/2-x,1/2+y,1/2-z
5 -x,-y,-z
6 x,-y,1/2+z
7 1/2-x,1/2-y,-z
8 1/2+x,1/2-y,1/2+z
_cell_length_a                   19.286(4)
_cell_length_b                   19.445(4)
_cell_length_c                   14.322(3)
_cell_angle_alpha                90
_cell_angle_beta                 121.182(3)
_cell_angle_gamma                90
_cell_volume                     4595.02
loop_
_atom_site_label
_atom_site_type_symbol
_atom_site_fract_x
_atom_site_fract_y
_atom_site_fract_z
Co1 Co 0.2500 0.2500 0.5000
O1 O 0.28353(10) 0.31453(8) 0.64029(13)
H1 H 0.2706(19) 0.3565(17) 0.602(3)
H2 H 0.251(2) 0.3161(18) 0.681(3)
O2 O 0.64116(12) -0.41002(9) 0.76894(16)
N1 N 0.37628(12) -0.27405(11) 0.55722(17)
C1 C 0.42829(17) -0.22215(13) 0.5815(2)
H3 H 0.4088 -0.1774 0.5715
Co2 Co 0.2500 -0.2500 0.5000
O3 O 0.24970(11) -0.19491(8) 0.37325(13)
H4 H 0.2430 -0.1576 0.3387
H5 H 0.2655 -0.2252 0.3454
N2 N 0.51166(12) -0.42277(10) 0.63090(17)
H6 H 0.4760 -0.4526 0.5894
O4 O 0.46215(11) -0.55551(9) 0.58767(17)
C2 C 0.50907(17) -0.23193(14) 0.6204(2)
H7 H 0.5432 -0.1944 0.6355
O5 O 0.29286(12) -0.19066(8) 0.74659(14)
N3 N 0.55526(12) -0.63932(10) 0.67541(16)
H8 H 0.6062 -0.6461 0.7199
C3 C 0.53959(16) -0.29810(13) 0.6370(2)
H9 H 0.5941 -0.3059 0.6621
O6 O 0.28190(11) -0.15995(8) 0.58957(13)
N4 N 0.37861(12) -0.75613(9) 0.55302(16)
C4 C 0.48688(15) -0.35267(12) 0.61527(19)
O7 O 0.24234(12) 0.07863(9) 0.47688(13)
C5 C 0.40568(15) -0.33815(12) 0.57360(19)
H10 H 0.3699 -0.3747 0.5562
O8 O 0.26277(10) 0.16368(8) 0.59402(13)
C6 C 0.58564(15) -0.44671(13) 0.7046(2)
C7 C 0.60228(16) -0.52263(14) 0.7081(3)
H11 H 0.6554 -0.5387 0.7450
C8 C 0.53232(15) -0.57266(13) 0.6516(2)
C9 C 0.50710(14) -0.69930(12) 0.63727(18)
C10 C 0.54637(16) -0.76266(13) 0.6587(2)
H12 H 0.6026 -0.7650 0.6952
C11 C 0.50040(16) -0.82151(13) 0.6248(2)
H13 H 0.5251 -0.8643 0.6368
C12 C 0.41705(15) -0.81645(12) 0.5725(2)
H14 H 0.3864 -0.8566 0.5500
C13 C 0.42268(14) -0.69834(12) 0.58329(18)
H15 H 0.3962 -0.6562 0.5678
C14 C 0.29075(14) -0.14632(12) 0.68132(19)
C15 C 0.29970(14) -0.07166(12) 0.71246(18)
C16 C 0.32548(16) -0.05130(13) 0.8187(2)
H16 H 0.3395 -0.0844 0.8726
C17 C 0.33039(18) 0.01790(14) 0.8450(2)
H17 H 0.3479 0.0310 0.9163
C18 C 0.30920(15) 0.06779(12) 0.76512(19)
H18 H 0.3121 0.1141 0.7830
C19 C 0.28350(14) 0.04844(11) 0.65780(19)
C20 C 0.27897(15) -0.02145(12) 0.63217(19)
H19 H 0.2620 -0.0347 0.5611
C21 C 0.26069(15) 0.10083(12) 0.5697(2)
O2F O -0.14116(12) -0.08998(9) 0.23106(16)
N1F N 0.12372(12) -0.22595(11) 0.44278(17)
C1F C 0.07171(17) -0.27785(13) 0.4185(2)
H3F H 0.0912 -0.3226 0.4285
O3F O 0.25030(11) -0.30509(8) 0.62675(13)
H4F H 0.2570 -0.3424 0.6613
H5F H 0.2345 -0.2748 0.6546
N2F N -0.01166(12) -0.07723(10) 0.36910(17)
H6F H 0.0240 -0.0474 0.4106
O4F O 0.03785(11) 0.05551(9) 0.41233(17)
C2F C -0.00907(17) -0.26807(14) 0.3796(2)
H7F H -0.0432 -0.3056 0.3645
O5F O 0.20714(12) -0.30934(8) 0.25341(14)
N3F N -0.05526(12) 0.13932(10) 0.32459(16)
H8F H -0.1062 0.1461 0.2801
C3F C -0.03959(16) -0.20190(13) 0.3630(2)
H9F H -0.0941 -0.1941 0.3379
O6F O 0.21810(11) -0.34005(8) 0.41043(13)
N4F N 0.12139(12) 0.25613(9) 0.44698(16)
C4F C 0.01312(15) -0.14733(12) 0.38473(19)
O7F O 0.25766(12) -0.57863(9) 0.52312(13)
C5F C 0.09432(15) -0.16185(12) 0.42640(19)
H10F H 0.1301 -0.1253 0.4438
O8F O 0.23723(10) -0.66368(8) 0.40598(13)
C6F C -0.08564(15) -0.05329(13) 0.2954(2)
C7F C -0.10228(16) 0.02263(14) 0.2919(3)
H11F H -0.1554 0.0387 0.2550
C8F C -0.03232(15) 0.07266(13) 0.3484(2)
C9F C -0.00710(14) 0.19930(12) 0.36273(18)
C10F C -0.04637(16) 0.26266(13) 0.3413(2)
H12F H -0.1026 0.2650 0.3048
C11F C -0.00040(16) 0.32151(13) 0.3752(2)
H13F H -0.0251 0.3643 0.3632
C12F C 0.08295(15) 0.31645(12) 0.4275(2)
H14F H 0.1136 0.3566 0.4500
C13F C 0.07732(14) 0.19834(12) 0.41671(18)
H15F H 0.1038 0.1562 0.4322
C14F C 0.20925(14) -0.35368(12) 0.31868(19)
C15F C 0.20030(14) -0.42834(12) 0.28754(18)
C16F C 0.17452(16) -0.44870(13) 0.1813(2)
H16F H 0.1605 -0.4156 0.1274
C17F C 0.16961(18) -0.51790(14) 0.1550(2)
H17F H 0.1521 -0.5310 0.0837
C18F C 0.19080(15) -0.56779(12) 0.23488(19)
H18F H 0.1879 -0.6141 0.2170
C19F C 0.21650(14) -0.54844(11) 0.34220(19)
C20F C 0.22103(15) -0.47855(12) 0.36783(19)
H19F H 0.2380 -0.4653 0.4389
C21F C 0.23931(15) -0.60083(12) 0.4303(2)
O1F O 0.21647(10) 0.18547(8) 0.35971(13)
H1F H 0.2294(19) 0.1435(17) 0.398(3)
H2F H 0.249(2) 0.1839(18) 0.319(3)
Co1_2 Co 0.2500 -0.7500 0.5000
N4_2 N 0.37861(12) 0.24387(9) 0.55302(16)
O8F_2 O 0.23723(10) 0.33632(8) 0.40598(13)
loop_
_geom_bond_atom_site_label_1
_geom_bond_atom_site_label_2
_geom_bond_site_symmetry_1
_geom_bond_site_symmetry_2
Co1 O1 1_555 1_555
O1 H1 1_555 1_555
H2 O1 1_555 1_555
O2 C6 1_555 1_555
N1 C1 1_555 1_555
C1 H3 1_555 1_555
Co2 N1 1_555 1_555
O3 Co2 1_555 1_555
H4 O3 1_555 1_555
H5 O3 1_555 1_555
N2 H6 1_555 1_555
O4 C8 1_555 1_555
C2 C1 1_555 1_555
H7 C2 1_555 1_555
O5 C14 1_555 1_555
N3 H8 1_555 1_555
C3 C2 1_555 1_555
H9 C3 1_555 1_555
O6 Co2 1_555 1_555
N4 C12 1_555 1_555
C4 N2 1_555 1_555
O7 C21 1_555 1_555
C5 N1 1_555 1_555
H10 C5 1_555 1_555
O8 Co1 1_555 1_555
C6 N2 1_555 1_555
C7 C6 1_555 1_555
H11 C7 1_555 1_555
C8 N3 1_555 1_555
C9 N3 1_555 1_555
C10 C9 1_555 1_555
H12 C10 1_555 1_555
C11 C10 1_555 1_555
H13 C11 1_555 1_555
C12 C11 1_555 1_555
H14 C12 1_555 1_555
C13 N4 1_555 1_555
H15 C13 1_555 1_555
C14 O6 1_555 1_555
C15 C14 1_555 1_555
C16 C15 1_555 1_555
H16 C16 1_555 1_555
C17 C16 1_555 1_555
H17 C17 1_555 1_555
C18 C17 1_555 1_555
H18 C18 1_555 1_555
C19 C18 1_555 1_555
C20 C15 1_555 1_555
H19 C20 1_555 1_555
C21 O8 1_555 1_555
O2F C6F 1_555 1_555
N1F Co2 1_555 1_555
C1F N1F 1_555 1_555
H3F C1F 1_555 1_555
O3F Co2 1_555 1_555
H4F O3F 1_555 1_555
H5F O3F 1_555 1_555
N2F H6F 1_555 1_555
O4F C8F 1_555 1_555
C2F C1F 1_555 1_555
H7F C2F 1_555 1_555
O5F C14F 1_555 1_555
N3F H8F 1_555 1_555
C3F C2F 1_555 1_555
H9F C3F 1_555 1_555
O6F Co2 1_555 1_555
N4F Co1 1_555 1_555
C4F N2F 1_555 1_555
O7F C21F 1_555 1_555
C5F N1F 1_555 1_555
H10F C5F 1_555 1_555
O8F C21F 1_555 1_555
C6F N2F 1_555 1_555
C7F C6F 1_555 1_555
H11F C7F 1_555 1_555
C8F N3F 1_555 1_555
C9F N3F 1_555 1_555
C10F C9F 1_555 1_555
H12F C10F 1_555 1_555
C11F C10F 1_555 1_555
H13F C11F 1_555 1_555
C12F N4F 1_555 1_555
H14F C12F 1_555 1_555
C13F N4F 1_555 1_555
H15F C13F 1_555 1_555
C14F O6F 1_555 1_555
C15F C14F 1_555 1_555
C16F C15F 1_555 1_555
H16F C16F 1_555 1_555
C17F C16F 1_555 1_555
H17F C17F 1_555 1_555
C18F C17F 1_555 1_555
H18F C18F 1_555 1_555
C19F C18F 1_555 1_555
C20F C15F 1_555 1_555
H19F C20F 1_555 1_555
C21F C19F 1_555 1_555
O1F Co1 1_555 1_555
H1F O1F 1_555 1_555
H2F O1F 1_555 1_555
Co1_2 N4 1_555 1_555
N4_2 Co1 1_555 1_555
O8F_2 Co1 1_555 1_555
C3 C4 1_555 1_555
C4 C5 1_555 1_555
C7 C8 1_555 1_555
C9 C13 1_555 1_555
C19 C20 1_555 1_555
C19 C21 1_555 1_555
C3F C4F 1_555 1_555
C4F C5F 1_555 1_555
O8F Co1_2 1_555 1_555
C7F C8F 1_555 1_555
C9F C13F 1_555 1_555
C11F C12F 1_555 1_555
C19F C20F 1_555 1_555

#END
