
#######################################################################
#
#                 Cambridge Crystallographic Data Centre
#                                CCDC 
#
#######################################################################
#
# If this CIF has been generated from an entry in the Cambridge 
# Structural Database, then it will include bibliographic, chemical, 
# crystal, experimental, refinement or atomic coordinate data resulting 
# from the CCDC's data processing and validation procedures.
#
#######################################################################

data_VOQQIB
_symmetry_cell_setting           triclinic
_symmetry_space_group_name_H-M   'P -1'
_symmetry_Int_Tables_number      2
_space_group_name_Hall           '-P 1'
loop_
_symmetry_equiv_pos_site_id
_symmetry_equiv_pos_as_xyz
1 x,y,z
2 -x,-y,-z
_cell_length_a                   7.771(8)
_cell_length_b                   9.860(12)
_cell_length_c                   10.548(12)
_cell_angle_alpha                71.676(10)
_cell_angle_beta                 68.478(10)
_cell_angle_gamma                87.414(10)
_cell_volume                     711.475
loop_
_atom_site_label
_atom_site_type_symbol
_atom_site_fract_x
_atom_site_fract_y
_atom_site_fract_z
Ag1 Ag 0.70383(19) 0.6630(3) 0.5695(2)
N1 N 0.9846(18) 0.5640(18) 0.4687(16)
N2 N 0.4959(18) 0.502(2) 0.560(2)
O1 O 0.679(2) 0.825(2) 0.6836(19)
H1 H 0.586(18) 0.870(16) 0.68(2)
H2 H 0.777(15) 0.882(14) 0.635(14)
C1 C 1.1122(18) 0.628(3) 0.326(2)
C2 C 1.178(2) 0.553(3) 0.229(2)
H3 H 1.1431 0.4566 0.2538
C3 C 1.302(3) 0.631(5) 0.089(2)
H4 H 1.3429 0.5840 0.0203
C4 C 1.368(3) 0.776(4) 0.047(3)
H5 H 1.4637 0.8198 -0.0405
C5 C 1.280(3) 0.850(4) 0.146(3)
H6 H 1.3068 0.9480 0.1182
C6 C 1.153(2) 0.779(3) 0.286(2)
H7 H 1.0981 0.8284 0.3504
C7 C 0.383(2) 0.400(2) 0.6829(19)
C8 C 0.283(2) 0.447(3) 0.806(2)
H8 H 0.2955 0.5421 0.8005
C9 C 0.167(3) 0.348(4) 0.933(3)
H9 H 0.1070 0.3748 1.0139
C10 C 0.143(3) 0.209(4) 0.937(2)
H10 H 0.0562 0.1451 1.0189
C11 C 0.246(3) 0.163(4) 0.821(3)
H11 H 0.2351 0.0664 0.8287
C12 C 0.362(2) 0.258(3) 0.696(2)
H12 H 0.4279 0.2264 0.6182
N1A N 1.0154(18) 0.4360(18) 0.5313(16)
C1A C 0.8878(18) 0.372(3) 0.674(2)
C2A C 0.822(2) 0.447(3) 0.771(2)
H3A H 0.8569 0.5434 0.7462
C3A C 0.698(3) 0.369(5) 0.911(2)
H4A H 0.6571 0.4160 0.9797
C4A C 0.632(3) 0.224(4) 0.953(3)
H5A H 0.5363 0.1802 1.0405
C5A C 0.720(3) 0.150(4) 0.854(3)
H6A H 0.6932 0.0520 0.8818
C6A C 0.847(2) 0.221(3) 0.714(2)
H7A H 0.9019 0.1716 0.6496
N2A N 0.5041(18) 0.498(2) 0.440(2)
C7A C 0.617(2) 0.600(2) 0.3171(19)
C8A C 0.717(2) 0.553(3) 0.194(2)
H8A H 0.7045 0.4579 0.1995
C9A C 0.833(3) 0.652(4) 0.067(3)
H9A H 0.8930 0.6252 -0.0139
C10A C 0.857(3) 0.791(4) 0.063(2)
H10A H 0.9438 0.8549 -0.0189
C11A C 0.754(3) 0.837(4) 0.179(3)
H11A H 0.7649 0.9336 0.1713
C12A C 0.638(2) 0.742(3) 0.304(2)
H12A H 0.5721 0.7736 0.3818
Ag1A Ag 1.29617(19) 0.3370(3) 0.4305(2)
O1A O 1.321(2) 0.175(2) 0.3164(19)
H1A H 1.414(18) 0.130(16) 0.32(2)
H2A H 1.223(15) 0.118(14) 0.365(14)
Ag1A_2 Ag 0.29617(19) 0.3370(3) 0.4305(2)
N2A_2 N 1.5041(18) 0.498(2) 0.440(2)
F1 F 0.246(3) 0.820(4) 0.746(3)
F2 F 0.321(3) 0.886(5) 0.518(3)
F3 F 0.119(5) 0.726(5) 0.644(5)
F4 F 0.065(5) 0.951(10) 0.660(7)
B1 B 0.186(3) 0.846(4) 0.649(3)
loop_
_geom_bond_atom_site_label_1
_geom_bond_atom_site_label_2
_geom_bond_site_symmetry_1
_geom_bond_site_symmetry_2
Ag1 N1 1_555 1_555
N1 C1 1_555 1_555
N2 Ag1 1_555 1_555
O1 Ag1 1_555 1_555
H1 O1 1_555 1_555
H2 O1 1_555 1_555
C1 C2 1_555 1_555
C2 H3 1_555 1_555
C3 C2 1_555 1_555
H4 C3 1_555 1_555
C4 C3 1_555 1_555
H5 C4 1_555 1_555
C5 C4 1_555 1_555
H6 C5 1_555 1_555
C6 C1 1_555 1_555
H7 C6 1_555 1_555
C7 N2 1_555 1_555
C8 C7 1_555 1_555
H8 C8 1_555 1_555
C9 C8 1_555 1_555
H9 C9 1_555 1_555
C10 C9 1_555 1_555
H10 C10 1_555 1_555
C11 C10 1_555 1_555
H11 C11 1_555 1_555
C12 C7 1_555 1_555
H12 C12 1_555 1_555
F1 B1 1_555 1_555
F2 B1 1_555 1_555
F3 B1 1_555 1_555
F4 B1 1_555 1_555
N1A N1 1_555 1_555
C1A N1A 1_555 1_555
C2A C1A 1_555 1_555
H3A C2A 1_555 1_555
C3A C2A 1_555 1_555
H4A C3A 1_555 1_555
C4A C3A 1_555 1_555
H5A C4A 1_555 1_555
C5A C4A 1_555 1_555
H6A C5A 1_555 1_555
C6A C1A 1_555 1_555
H7A C6A 1_555 1_555
N2A N2 1_555 1_555
C7A N2A 1_555 1_555
C8A C7A 1_555 1_555
H8A C8A 1_555 1_555
C9A C8A 1_555 1_555
H9A C9A 1_555 1_555
C10A C9A 1_555 1_555
H10A C10A 1_555 1_555
C11A C10A 1_555 1_555
H11A C11A 1_555 1_555
C12A C7A 1_555 1_555
H12A C12A 1_555 1_555
Ag1A N1A 1_555 1_555
O1A Ag1A 1_555 1_555
H1A O1A 1_555 1_555
H2A O1A 1_555 1_555
Ag1A_2 N2A 1_555 1_555
N2A_2 Ag1A 1_555 1_555
C5 C6 1_555 1_555
C11 C12 1_555 1_555
C5A C6A 1_555 1_555
C11A C12A 1_555 1_555

#END
