
#######################################################################
#
#                 Cambridge Crystallographic Data Centre
#                                CCDC 
#
#######################################################################
#
# If this CIF has been generated from an entry in the Cambridge 
# Structural Database, then it will include bibliographic, chemical, 
# crystal, experimental, refinement or atomic coordinate data resulting 
# from the CCDC's data processing and validation procedures.
#
#######################################################################

data_VOQSAV
_symmetry_cell_setting           triclinic
_symmetry_space_group_name_H-M   'P -1'
_symmetry_Int_Tables_number      2
_space_group_name_Hall           '-P 1'
loop_
_symmetry_equiv_pos_site_id
_symmetry_equiv_pos_as_xyz
1 x,y,z
2 -x,-y,-z
_cell_length_a                   14.217(3)
_cell_length_b                   14.439(3)
_cell_length_c                   14.914(3)
_cell_angle_alpha                100.087(4)
_cell_angle_beta                 96.311(4)
_cell_angle_gamma                109.958(3)
_cell_volume                     2785.14
loop_
_atom_site_label
_atom_site_type_symbol
_atom_site_fract_x
_atom_site_fract_y
_atom_site_fract_z
Ni1 Ni 0.5000 -0.5000 0.5000
Ni2 Ni 0.5000 0.0000 0.0000
Ni3 Ni 1.0000 0.0000 0.5000
O1 O 0.5401(2) -0.0823(2) 0.0936(2)
O2 O 0.8556(2) -0.0989(2) 0.4121(2)
O3 O 0.5413(2) -0.4111(2) 0.3997(2)
N1 N 0.3573(2) -0.4918(2) 0.4903(2)
O4 O 0.3949(2) -0.4097(3) 0.3296(2)
C1 C 0.6520(3) -0.2397(3) 0.3377(3)
H1 H 0.6873 -0.2579 0.3835
N2 N 0.4272(3) -0.6374(3) 0.4067(2)
O5 O 0.8640(3) -0.0536(3) 0.2768(3)
O6 O 0.3947(3) -0.1963(3) 0.1094(3)
C2 C 0.4900(3) -0.3780(3) 0.3487(3)
C3 C 0.7042(3) -0.1596(3) 0.2991(3)
N3 N 1.0486(3) 0.0694(3) 0.3962(3)
N4 N 0.6528(3) 0.0730(3) 0.0033(2)
C4 C 0.5460(3) -0.1834(3) 0.2008(3)
C5 C 0.2845(3) -0.5954(3) 0.4495(3)
H2 H 0.2183 -0.5941 0.4272
H3 H 0.2772 -0.6358 0.4957
C6 C 0.5485(3) -0.2920(3) 0.3083(3)
C7 C 0.4955(3) -0.2619(3) 0.2406(3)
H4 H 0.4254 -0.2953 0.2223
C8 C 0.6516(3) -0.1328(3) 0.2306(3)
H5 H 0.6866 -0.0806 0.2041
C9 C 0.8170(3) -0.0987(3) 0.3326(3)
N5 N 0.4134(3) -0.3457(3) 0.6224(3)
C10 C 0.4888(3) -0.1524(3) 0.1289(3)
N6 N 0.9270(3) 0.0960(3) 0.5460(3)
C11 C 0.3246(3) -0.6404(3) 0.3701(3)
H6 H 0.2793 -0.7098 0.3430
H7 H 0.3286 -0.6020 0.3225
C12 C 0.3349(4) -0.1651(4) 0.4985(4)
N7 N 1.0067(3) 0.2177(3) 0.4540(3)
C13 C 1.0817(3) 0.1810(3) 0.4217(4)
H8 H 1.1006 0.2074 0.3680
H9 H 1.1421 0.2074 0.4697
C14 C 0.3392(3) -0.4440(3) 0.5812(3)
H10 H 0.3385 -0.4877 0.6238
H11 H 0.2725 -0.4392 0.5717
N8 N 0.6788(4) 0.1880(3) 0.1541(3)
N9 N 0.4923(3) 0.1068(3) 0.1078(3)
C15 C 0.7142(4) 0.1195(4) 0.1000(3)
H12 H 0.7126 0.0658 0.1314
H13 H 0.7845 0.1553 0.0958
C16 C 0.4206(3) -0.2678(3) 0.5699(3)
H14 H 0.4401 -0.2877 0.5113
H15 H 0.4739 -0.2050 0.6041
C17 C 0.4867(4) -0.6584(4) 0.3379(3)
H16 H 0.4490 -0.7252 0.2985
H17 H 0.4952 -0.6098 0.2991
C18 C 0.9986(5) 0.3454(5) 0.3135(4)
C19 C 0.3422(4) -0.1827(4) 0.4069(4)
H18 H 0.3359 -0.2467 0.3754
C20 C 0.3220(4) -0.2492(4) 0.5507(4)
H19 H 0.2689 -0.3110 0.5143
H20 H 0.3011 -0.2308 0.6088
C21 C 0.9862(4) 0.2046(4) 0.5440(4)
H21 H 1.0504 0.2287 0.5870
H22 H 0.9481 0.2459 0.5650
C22 C 0.9149(4) 0.1978(4) 0.3871(5)
H23 H 0.8763 0.1255 0.3703
H24 H 0.8731 0.2302 0.4166
C23 C 0.3463(4) -0.0685(4) 0.5431(4)
H25 H 0.3427 -0.0549 0.6057
C24 C 1.1277(4) 0.0321(4) 0.3660(4)
H26 H 1.1911 0.0663 0.4101
H27 H 1.1396 0.0458 0.3060
C25 C 0.3629(4) 0.0076(4) 0.4960(6)
H28 H 0.3698 0.0721 0.5266
C26 C 0.5838(4) 0.1449(4) 0.1829(3)
H29 H 0.5765 0.1956 0.2307
H30 H 0.5857 0.0893 0.2104
C27 C 0.6860(4) -0.0013(4) -0.0511(4)
H31 H 0.6954 -0.0478 -0.0144
H32 H 0.7504 0.0329 -0.0687
C28 C 0.9353(5) 0.2343(4) 0.3003(5)
H33 H 0.8704 0.2200 0.2614
H34 H 0.9694 0.1953 0.2671
C29 C 0.3591(4) -0.1032(5) 0.3609(5)
H35 H 0.3633 -0.1156 0.2984
C30 C 0.3694(5) -0.0110(5) 0.4039(6)
H36 H 0.3809 0.0406 0.3721
C31 C 0.9088(4) 0.0806(4) 0.6400(4)
H37 H 0.9712 0.1154 0.6853
H38 H 0.8578 0.1069 0.6584
C32 C 0.3948(5) 0.0589(5) 0.1369(4)
H39 H 0.3756 0.1102 0.1728
H40 H 0.4013 0.0130 0.1753
C33 C 1.1088(12) 0.5522(9) 0.3421(10)
H41 H 1.1440 0.6214 0.3505
C34 C 1.1384(7) 0.4837(12) 0.2821(10)
H42 H 1.1940 0.5063 0.2533
C35 C 0.6973(7) 0.2860(4) 0.1285(5)
H43 H 0.7416 0.2924 0.0830
H44 H 0.6331 0.2870 0.0998
C36 C 0.9814(8) 0.4192(6) 0.3727(6)
H45 H 0.9301 0.3988 0.4069
C37 C 1.0341(11) 0.5206(7) 0.3854(7)
H46 H 1.0165 0.5668 0.4249
C38 C 1.0770(6) 0.3750(7) 0.2676(6)
H47 H 1.0919 0.3272 0.2273
C39 C 0.7406(13) 0.3671(7) 0.2023(9)
H48 H 0.7497 0.3542 0.2609
C40 C 0.7755(9) 0.4786(9) 0.1949(8)
C41 C 0.8290(11) 0.6692(12) 0.1797(9)
H49 H 0.8435 0.7317 0.1644
C42 C 0.6989(11) 0.5146(12) 0.1840(9)
H50 H 0.6307 0.4740 0.1771
C43 C 0.8747(9) 0.5363(11) 0.1978(10)
H51 H 0.9227 0.5060 0.2006
C44 C 0.9070(13) 0.6367(12) 0.1967(12)
H52 H 0.9752 0.6784 0.2065
C45 C 0.7308(13) 0.6152(12) 0.1839(15)
H53 H 0.6844 0.6475 0.1869
N5A N 0.5866(3) -0.6543(3) 0.3776(3)
C14A C 0.6608(3) -0.5560(3) 0.4188(3)
N1A N 0.6427(2) -0.5082(2) 0.5097(2)
C5A C 0.7155(3) -0.4046(3) 0.5505(3)
H2A H 0.7817 -0.4059 0.5728
H3A H 0.7228 -0.3642 0.5043
C11A C 0.6754(3) -0.3596(3) 0.6299(3)
N2A N 0.5728(3) -0.3626(3) 0.5933(2)
C17A C 0.5133(4) -0.3416(4) 0.6621(3)
H16A H 0.5510 -0.2748 0.7015
H17A H 0.5048 -0.3902 0.7009
H6A H 0.7207 -0.2902 0.6570
H7A H 0.6714 -0.3980 0.6775
H10A H 0.6615 -0.5123 0.3762
H11A H 0.7275 -0.5608 0.4283
C16A C 0.5794(3) -0.7322(3) 0.4301(3)
H14A H 0.5599 -0.7123 0.4887
H15A H 0.5261 -0.7950 0.3959
C20A C 0.6780(4) -0.7508(4) 0.4493(4)
C12A C 0.6651(4) -0.8349(4) 0.5015(4)
C19A C 0.6578(4) -0.8173(4) 0.5931(4)
H18A H 0.6641 -0.7533 0.6246
C29A C 0.6409(4) -0.8968(5) 0.6391(5)
H35A H 0.6367 -0.8844 0.7016
C30A C 0.6306(5) -0.9890(5) 0.5961(6)
C25A C 0.6371(4) -1.0076(4) 0.5040(6)
C23A C 0.6537(4) -0.9315(4) 0.4569(4)
H25A H 0.6573 -0.9451 0.3943
H28A H 0.6302 -1.0721 0.4734
H36A H 0.6191 -1.0406 0.6279
H19A H 0.7311 -0.6890 0.4857
H20A H 0.6989 -0.7692 0.3912
C24A C 0.8723(4) -0.0321(4) 0.6340(4)
N3A N 0.9514(3) -0.0694(3) 0.6038(3)
C13A C 0.9183(3) -0.1810(3) 0.5783(4)
N7A N 0.9933(3) -0.2177(3) 0.5460(3)
C21A C 1.0138(4) -0.2046(4) 0.4560(4)
N6A N 1.0730(3) -0.0960(3) 0.4540(3)
C31A C 1.0912(4) -0.0806(4) 0.3600(4)
H37A H 1.0288 -0.1154 0.3147
H38A H 1.1422 -0.1069 0.3416
H21A H 0.9496 -0.2287 0.4130
H22A H 1.0519 -0.2459 0.4350
C22A C 1.0851(4) -0.1978(4) 0.6129(5)
H23A H 1.1237 -0.1255 0.6297
H24A H 1.1269 -0.2302 0.5834
C28A C 1.0647(5) -0.2343(4) 0.6997(5)
C18A C 1.0014(5) -0.3454(5) 0.6865(4)
C36A C 1.0186(8) -0.4192(6) 0.6273(6)
H45A H 1.0699 -0.3988 0.5931
C37A C 0.9659(11) -0.5206(7) 0.6146(7)
C33A C 0.8912(12) -0.5522(9) 0.6579(10)
H41A H 0.8560 -0.6214 0.6495
C34A C 0.8616(7) -0.4837(12) 0.7179(10)
H42A H 0.8060 -0.5063 0.7467
C38A C 0.9230(6) -0.3750(7) 0.7324(6)
H47A H 0.9081 -0.3272 0.7727
H46A H 0.9835 -0.5668 0.5751
H33A H 1.1296 -0.2200 0.7386
H34A H 1.0306 -0.1953 0.7329
H8A H 0.8994 -0.2074 0.6320
H9A H 0.8579 -0.2074 0.5303
H26A H 0.8089 -0.0663 0.5899
H27A H 0.8604 -0.0458 0.6940
C27A C 0.3140(4) 0.0013(4) 0.0511(4)
N4A N 0.3472(3) -0.0730(3) -0.0033(2)
C15A C 0.2858(4) -0.1195(4) -0.1000(3)
N8A N 0.3212(4) -0.1880(3) -0.1541(3)
C26A C 0.4162(4) -0.1449(4) -0.1829(3)
N9A N 0.5077(3) -0.1068(3) -0.1078(3)
C32A C 0.6052(5) -0.0589(5) -0.1369(4)
H39A H 0.6244 -0.1102 -0.1728
H40A H 0.5987 -0.0130 -0.1753
H29A H 0.4235 -0.1956 -0.2307
H30A H 0.4143 -0.0893 -0.2104
C35A C 0.3027(7) -0.2860(4) -0.1285(5)
H43A H 0.2584 -0.2924 -0.0830
H44A H 0.3669 -0.2870 -0.0998
C39A C 0.2594(13) -0.3671(7) -0.2023(9)
H48A H 0.2503 -0.3542 -0.2609
C40A C 0.2245(9) -0.4786(9) -0.1949(8)
C42A C 0.3011(11) -0.5146(12) -0.1840(9)
H50A H 0.3693 -0.4740 -0.1771
C45A C 0.2692(13) -0.6152(12) -0.1839(15)
C41A C 0.1710(11) -0.6692(12) -0.1797(9)
H49A H 0.1565 -0.7317 -0.1644
C44A C 0.0930(13) -0.6367(12) -0.1967(12)
C43A C 0.1253(9) -0.5363(11) -0.1978(10)
H51A H 0.0773 -0.5060 -0.2006
H52A H 0.0248 -0.6784 -0.2065
H53A H 0.3156 -0.6475 -0.1869
H12A H 0.2874 -0.0658 -0.1314
H13A H 0.2155 -0.1553 -0.0958
H31A H 0.3046 0.0478 0.0144
H32A H 0.2496 -0.0329 0.0687
O1A O 0.4599(2) -0.9177(2) 0.9064(2)
O2A O 0.1444(2) -0.9011(2) 0.5879(2)
O3A O 0.4587(2) -0.5889(2) 0.6003(2)
O4A O 0.6051(2) -0.5903(3) 0.6704(2)
C1A C 0.3480(3) -0.7603(3) 0.6623(3)
H1A H 0.3127 -0.7421 0.6165
O5A O 0.1360(3) -0.9464(3) 0.7232(3)
O6A O 0.6053(3) -0.8037(3) 0.8906(3)
C2A C 0.5100(3) -0.6220(3) 0.6513(3)
C3A C 0.2958(3) -0.8404(3) 0.7009(3)
C4A C 0.4540(3) -0.8166(3) 0.7992(3)
C6A C 0.4515(3) -0.7080(3) 0.6917(3)
C7A C 0.5045(3) -0.7381(3) 0.7594(3)
H4A H 0.5746 -0.7047 0.7777
C8A C 0.3484(3) -0.8672(3) 0.7694(3)
H5A H 0.3134 -0.9194 0.7959
C9A C 0.1830(3) -0.9013(3) 0.6674(3)
C10A C 0.5112(3) -0.8476(3) 0.8711(3)
O1A_2 O 0.4599(2) 0.0823(2) -0.0936(2)
O2A_2 O 1.1444(2) 0.0989(2) 0.5879(2)
Ni2_2 Ni 0.5000 -1.0000 1.0000
Ni3_2 Ni 0.0000 -1.0000 0.5000
O7 O 0.4100(13) 1.2881(9) 0.0814(11)
O8 O 1.107(2) 0.732(2) 0.074(2)
O9 O 0.9004(19) -0.0516(18) 0.1009(11)
loop_
_geom_bond_atom_site_label_1
_geom_bond_atom_site_label_2
_geom_bond_site_symmetry_1
_geom_bond_site_symmetry_2
Ni1 O3 1_555 1_555
Ni2 O1 1_555 1_555
Ni3 O2 1_555 1_555
O1 C10 1_555 1_555
O2 C9 1_555 1_555
O3 C2 1_555 1_555
N1 Ni1 1_555 1_555
O4 C2 1_555 1_555
C1 H1 1_555 1_555
N2 Ni1 1_555 1_555
O5 C9 1_555 1_555
O6 C10 1_555 1_555
C2 C6 1_555 1_555
C3 C1 1_555 1_555
N3 Ni3 1_555 1_555
N4 Ni2 1_555 1_555
C4 C7 1_555 1_555
C5 N1 1_555 1_555
H2 C5 1_555 1_555
H3 C5 1_555 1_555
C6 C1 1_555 1_555
C7 C6 1_555 1_555
H4 C7 1_555 1_555
C8 C3 1_555 1_555
H5 C8 1_555 1_555
C9 C3 1_555 1_555
N5 C14 1_555 1_555
C10 C4 1_555 1_555
N6 Ni3 1_555 1_555
C11 N2 1_555 1_555
H6 C11 1_555 1_555
H7 C11 1_555 1_555
C12 C19 1_555 1_555
N7 C13 1_555 1_555
C13 N3 1_555 1_555
H8 C13 1_555 1_555
H9 C13 1_555 1_555
C14 N1 1_555 1_555
H10 C14 1_555 1_555
H11 C14 1_555 1_555
N8 C15 1_555 1_555
N9 Ni2 1_555 1_555
C15 N4 1_555 1_555
H12 C15 1_555 1_555
H13 C15 1_555 1_555
C16 N5 1_555 1_555
H14 C16 1_555 1_555
H15 C16 1_555 1_555
C17 N2 1_555 1_555
H16 C17 1_555 1_555
H17 C17 1_555 1_555
C18 C28 1_555 1_555
C19 H18 1_555 1_555
C20 C12 1_555 1_555
H19 C20 1_555 1_555
H20 C20 1_555 1_555
C21 N6 1_555 1_555
H21 C21 1_555 1_555
H22 C21 1_555 1_555
C22 N7 1_555 1_555
H23 C22 1_555 1_555
H24 C22 1_555 1_555
C23 C12 1_555 1_555
H25 C23 1_555 1_555
C24 N3 1_555 1_555
H26 C24 1_555 1_555
H27 C24 1_555 1_555
C25 C23 1_555 1_555
H28 C25 1_555 1_555
C26 N8 1_555 1_555
H29 C26 1_555 1_555
H30 C26 1_555 1_555
C27 N4 1_555 1_555
H31 C27 1_555 1_555
H32 C27 1_555 1_555
C28 C22 1_555 1_555
H33 C28 1_555 1_555
H34 C28 1_555 1_555
C29 C19 1_555 1_555
H35 C29 1_555 1_555
C30 C25 1_555 1_555
H36 C30 1_555 1_555
C31 N6 1_555 1_555
H37 C31 1_555 1_555
H38 C31 1_555 1_555
C32 N9 1_555 1_555
H39 C32 1_555 1_555
H40 C32 1_555 1_555
C33 H41 1_555 1_555
C34 C33 1_555 1_555
H42 C34 1_555 1_555
C35 N8 1_555 1_555
H43 C35 1_555 1_555
H44 C35 1_555 1_555
C36 C18 1_555 1_555
H45 C36 1_555 1_555
C37 C33 1_555 1_555
H46 C37 1_555 1_555
C38 C18 1_555 1_555
H47 C38 1_555 1_555
C39 C35 1_555 1_555
H48 C39 1_555 1_555
C40 C39 1_555 1_555
C41 H49 1_555 1_555
C42 C40 1_555 1_555
H50 C42 1_555 1_555
C43 C40 1_555 1_555
H51 C43 1_555 1_555
C44 C41 1_555 1_555
H52 C44 1_555 1_555
C45 C41 1_555 1_555
H53 C45 1_555 1_555
N5A C17 1_555 1_555
C14A N5A 1_555 1_555
N1A Ni1 1_555 1_555
C5A N1A 1_555 1_555
H2A C5A 1_555 1_555
H3A C5A 1_555 1_555
C11A C5A 1_555 1_555
N2A Ni1 1_555 1_555
C17A N5 1_555 1_555
H16A C17A 1_555 1_555
H17A C17A 1_555 1_555
H6A C11A 1_555 1_555
H7A C11A 1_555 1_555
H10A C14A 1_555 1_555
H11A C14A 1_555 1_555
C16A N5A 1_555 1_555
H14A C16A 1_555 1_555
H15A C16A 1_555 1_555
C20A C16A 1_555 1_555
C12A C20A 1_555 1_555
C19A C12A 1_555 1_555
H18A C19A 1_555 1_555
C29A C19A 1_555 1_555
H35A C29A 1_555 1_555
C30A C29A 1_555 1_555
C25A C30A 1_555 1_555
C23A C12A 1_555 1_555
H25A C23A 1_555 1_555
H28A C25A 1_555 1_555
H36A C30A 1_555 1_555
H19A C20A 1_555 1_555
H20A C20A 1_555 1_555
C24A C31 1_555 1_555
N3A Ni3 1_555 1_555
C13A N3A 1_555 1_555
N7A C13A 1_555 1_555
C21A N7A 1_555 1_555
N6A Ni3 1_555 1_555
C31A C24 1_555 1_555
H37A C31A 1_555 1_555
H38A C31A 1_555 1_555
H21A C21A 1_555 1_555
H22A C21A 1_555 1_555
C22A N7A 1_555 1_555
H23A C22A 1_555 1_555
H24A C22A 1_555 1_555
C28A C22A 1_555 1_555
C18A C28A 1_555 1_555
C36A C18A 1_555 1_555
H45A C36A 1_555 1_555
C37A C36A 1_555 1_555
C33A C37A 1_555 1_555
H41A C33A 1_555 1_555
C34A C33A 1_555 1_555
H42A C34A 1_555 1_555
C38A C18A 1_555 1_555
H47A C38A 1_555 1_555
H46A C37A 1_555 1_555
H33A C28A 1_555 1_555
H34A C28A 1_555 1_555
H8A C13A 1_555 1_555
H9A C13A 1_555 1_555
H26A C24A 1_555 1_555
H27A C24A 1_555 1_555
C27A C32 1_555 1_555
N4A Ni2 1_555 1_555
C15A N4A 1_555 1_555
N8A C15A 1_555 1_555
C26A N8A 1_555 1_555
N9A Ni2 1_555 1_555
C32A C27 1_555 1_555
H39A C32A 1_555 1_555
H40A C32A 1_555 1_555
H29A C26A 1_555 1_555
H30A C26A 1_555 1_555
C35A N8A 1_555 1_555
H43A C35A 1_555 1_555
H44A C35A 1_555 1_555
C39A C35A 1_555 1_555
H48A C39A 1_555 1_555
C40A C39A 1_555 1_555
C42A C40A 1_555 1_555
H50A C42A 1_555 1_555
C45A C42A 1_555 1_555
C41A C45A 1_555 1_555
H49A C41A 1_555 1_555
C44A C41A 1_555 1_555
C43A C40A 1_555 1_555
H51A C43A 1_555 1_555
H52A C44A 1_555 1_555
H53A C45A 1_555 1_555
H12A C15A 1_555 1_555
H13A C15A 1_555 1_555
H31A C27A 1_555 1_555
H32A C27A 1_555 1_555
O1A C10A 1_555 1_555
O2A C9A 1_555 1_555
O3A Ni1 1_555 1_555
O4A C2A 1_555 1_555
C1A H1A 1_555 1_555
O5A C9A 1_555 1_555
O6A C10A 1_555 1_555
C2A O3A 1_555 1_555
C3A C1A 1_555 1_555
C4A C7A 1_555 1_555
C6A C1A 1_555 1_555
C7A C6A 1_555 1_555
H4A C7A 1_555 1_555
C8A C3A 1_555 1_555
H5A C8A 1_555 1_555
C9A C3A 1_555 1_555
C10A C4A 1_555 1_555
O1A_2 Ni2 1_555 1_555
O2A_2 Ni3 1_555 1_555
Ni2_2 O1A 1_555 1_555
Ni3_2 O2A 1_555 1_555
C4 C8 1_555 1_555
C5 C11 1_555 1_555
N7 C21 1_555 1_555
N9 C26 1_555 1_555
C16 C20 1_555 1_555
C29 C30 1_555 1_555
C34 C38 1_555 1_555
C36 C37 1_555 1_555
C42 C45 1_555 1_555
C43 C44 1_555 1_555
C14A N1A 1_555 1_555
C11A N2A 1_555 1_555
N2A C17A 1_555 1_555
C25A C23A 1_555 1_555
C24A N3A 1_555 1_555
C21A N6A 1_555 1_555
N6A C31A 1_555 1_555
C34A C38A 1_555 1_555
C27A N4A 1_555 1_555
C26A N9A 1_555 1_555
N9A C32A 1_555 1_555
C44A C43A 1_555 1_555
C2A C6A 1_555 1_555
C4A C8A 1_555 1_555

#END
