
#######################################################################
#
#                 Cambridge Crystallographic Data Centre
#                                CCDC 
#
#######################################################################
#
# If this CIF has been generated from an entry in the Cambridge 
# Structural Database, then it will include bibliographic, chemical, 
# crystal, experimental, refinement or atomic coordinate data resulting 
# from the CCDC's data processing and validation procedures.
#
#######################################################################

data_VOQWUV
_symmetry_cell_setting           triclinic
_symmetry_space_group_name_H-M   'P -1'
_symmetry_Int_Tables_number      2
_space_group_name_Hall           '-P 1'
loop_
_symmetry_equiv_pos_site_id
_symmetry_equiv_pos_as_xyz
1 x,y,z
2 -x,-y,-z
_cell_length_a                   18.224(5)
_cell_length_b                   18.239(5)
_cell_length_c                   20.808(5)
_cell_angle_alpha                85.942(5)
_cell_angle_beta                 83.558(5)
_cell_angle_gamma                63.398(5)
_cell_volume                     6143.46
loop_
_atom_site_label
_atom_site_type_symbol
_atom_site_fract_x
_atom_site_fract_y
_atom_site_fract_z
Cd1 Cd -0.57659(3) 0.17257(3) 0.71522(3)
Cd2 Cd -0.38149(3) -0.41194(3) 0.72310(3)
Cd3 Cd -0.02692(3) 0.21422(3) 0.25908(3)
O1 O -0.5099(3) 0.0284(3) 0.6930(3)
O2 O -0.4420(3) 0.0751(3) 0.7463(3)
O3 O -0.1356(3) -0.1001(3) 0.7397(3)
O4 O -0.0809(3) -0.2267(3) 0.7057(3)
O5 O -0.2737(4) -0.3488(4) 0.6700(5)
O6 O -0.4022(4) -0.2802(3) 0.7114(3)
O7 O -0.5370(4) 0.2843(3) 0.7483(3)
O8 O -0.6647(4) 0.3184(4) 0.7282(3)
O9 O -0.4467(3) 0.5030(3) 0.7472(3)
O10 O -0.5342(3) 0.6334(3) 0.7342(3)
O11 O -0.8370(3) 0.7052(4) 0.7496(3)
O12 O -0.8683(4) 0.6163(5) 0.7106(4)
C1 C -0.4459(5) 0.0172(4) 0.7179(4)
C2 C -0.3745(5) -0.0653(4) 0.7148(4)
C3 C -0.2953(5) -0.0751(5) 0.7215(4)
H1 H -0.2881 -0.0300 0.7314
C4 C -0.2271(4) -0.1504(4) 0.7136(4)
C5 C -0.1426(4) -0.1595(4) 0.7190(4)
C6 C -0.2389(4) -0.2194(4) 0.7007(4)
H2 H -0.1938 -0.2702 0.6937
C7 C -0.3184(4) -0.2105(4) 0.6987(4)
C8 C -0.3300(6) -0.2847(5) 0.6912(5)
C9 C -0.3857(4) -0.1331(4) 0.7043(4)
H3 H -0.4385 -0.1274 0.7010
C10 C -0.6089(5) 0.3377(5) 0.7399(4)
C11 C -0.6294(4) 0.4265(4) 0.7408(4)
C12 C -0.5687(5) 0.4516(5) 0.7433(4)
H4 H -0.5145 0.4123 0.7462
C13 C -0.5868(4) 0.5341(5) 0.7417(4)
C14 C -0.5198(5) 0.5598(5) 0.7409(4)
C15 C -0.6690(4) 0.5935(5) 0.7392(4)
H5 H -0.6820 0.6490 0.7390
C16 C -0.7306(4) 0.5689(5) 0.7372(4)
C17 C -0.8175(5) 0.6337(6) 0.7333(5)
C18 C -0.7110(5) 0.4859(5) 0.7374(4)
H6 H -0.7524 0.4697 0.7352
C19 C -0.7562(4) 0.2558(4) 0.6633(4)
H7 H -0.7511 0.3042 0.6634
C20 C -0.7295(4) 0.1275(4) 0.6717(4)
C21 C -0.6939(5) 0.0431(5) 0.6807(5)
H8 H -0.6392 0.0143 0.6899
C22 C -0.7407(6) 0.0037(5) 0.6759(5)
H9 H -0.7178 -0.0529 0.6824
C23 C -0.8236(5) 0.0467(5) 0.6612(5)
H10 H -0.8545 0.0181 0.6590
C24 C -0.8592(5) 0.1304(5) 0.6503(5)
H11 H -0.9133 0.1587 0.6395
C25 C -0.8113(4) 0.1707(4) 0.6559(4)
C26 C -0.8993(4) 0.3249(4) 0.6367(4)
C27 C -0.9753(4) 0.3287(4) 0.6612(4)
H12 H -0.9793 0.2858 0.6857
C28 C -1.0445(5) 0.3999(5) 0.6473(5)
C29 C -1.0404(5) 0.4650(5) 0.6134(6)
H13 H -1.0885 0.5112 0.6046
C30 C -0.9643(5) 0.4619(5) 0.5921(4)
C31 C -0.8940(5) 0.3902(4) 0.6019(4)
H14 H -0.8428 0.3859 0.5851
C32 C -1.1880(4) 0.4771(5) 0.6925(5)
H15 H -1.1854 0.5270 0.6901
C33 C -1.2311(5) 0.3861(5) 0.7106(6)
C34 C -1.2773(5) 0.3421(5) 0.7291(6)
H16 H -1.3308 0.3682 0.7485
C35 C -1.2412(5) 0.2602(5) 0.7176(5)
H17 H -1.2703 0.2300 0.7304
C36 C -1.1613(6) 0.2204(5) 0.6870(5)
H18 H -1.1394 0.1649 0.6784
C37 C -1.1146(5) 0.2615(5) 0.6696(5)
H19 H -1.0613 0.2349 0.6497
C38 C -1.1505(5) 0.3452(5) 0.6828(5)
C39 C -0.8847(6) 0.5307(7) 0.5352(8)
H20 H -0.8342 0.4847 0.5376
C40 C -0.9744(6) 0.6535(6) 0.5183(6)
C41 C -1.0135(6) 0.7347(6) 0.5019(5)
H21 H -0.9837 0.7622 0.4833
C42 C -1.0973(7) 0.7750(5) 0.5132(5)
H22 H -1.1250 0.8300 0.5011
C43 C -1.1419(6) 0.7339(6) 0.5429(5)
H23 H -1.1988 0.7625 0.5508
C44 C -1.1026(6) 0.6511(5) 0.5607(4)
H24 H -1.1323 0.6237 0.5799
C45 C -1.0183(6) 0.6114(5) 0.5488(4)
C46 C -0.4671(5) 0.2314(5) 0.6096(4)
H25 H -0.4580 0.2561 0.6435
C47 C -0.5090(4) 0.1635(4) 0.5548(4)
C48 C -0.5458(5) 0.1178(5) 0.5336(5)
H26 H -0.5775 0.0994 0.5619
C49 C -0.5325(5) 0.1014(5) 0.4677(4)
H27 H -0.5560 0.0712 0.4518
C50 C -0.4849(5) 0.1292(5) 0.4249(4)
H28 H -0.4778 0.1172 0.3813
C51 C -0.4479(5) 0.1741(5) 0.4455(4)
H29 H -0.4164 0.1928 0.4171
C52 C -0.4607(5) 0.1895(4) 0.5108(4)
C53 C -0.3790(5) 0.2662(5) 0.5281(4)
C54 C -0.3054(5) 0.2197(5) 0.4926(4)
H30 H -0.2934 0.1675 0.4796
C55 C -0.2493(5) 0.2522(5) 0.4764(4)
C56 C -0.2664(5) 0.3296(5) 0.4950(4)
H31 H -0.2278 0.3500 0.4854
C57 C -0.3416(5) 0.3765(4) 0.5281(4)
C58 C -0.3992(5) 0.3460(5) 0.5446(4)
H32 H -0.4502 0.3783 0.5662
C59 C -0.1363(5) 0.2364(5) 0.3928(4)
H33 H -0.1565 0.2923 0.3833
C60 C -0.0606(5) 0.1062(5) 0.3902(4)
C61 C 0.0008(5) 0.0268(5) 0.3782(5)
H34 H 0.0440 0.0171 0.3463
C62 C -0.0044(5) -0.0373(5) 0.4151(5)
H35 H 0.0352 -0.0909 0.4075
C63 C -0.0686(5) -0.0223(6) 0.4636(5)
H36 H -0.0699 -0.0666 0.4879
C64 C -0.1301(5) 0.0550(5) 0.4773(5)
H37 H -0.1725 0.0643 0.5098
C65 C -0.1244(5) 0.1185(5) 0.4388(4)
C66 C -0.3404(6) -0.2188(8) 1.1405(4)
H38 H -0.3374 -0.2703 1.1514
C67 C -0.3684(6) -0.0900(9) 1.1458(6)
C68 C -0.3979(7) -0.0098(9) 1.1639(7)
H39 H -0.4250 0.0077 1.2045
C69 C -0.3852(8) 0.0434(10) 1.1184(8)
H40 H -0.4028 0.0980 1.1281
C70 C -0.3440(13) 0.0126(17) 1.0551(11)
H41 H -0.3362 0.0490 1.0246
C71 C -0.3171(11) -0.0645(16) 1.0389(9)
H42 H -0.2914 -0.0810 0.9977
C72 C -0.3272(6) -0.1234(12) 1.0844(5)
C73 C -0.3811(5) 0.4826(5) 0.6090(4)
H43 H -0.3929 0.4524 0.6429
C74 C -0.3620(5) 0.5780(5) 0.5546(4)
C75 C -0.3559(5) 0.6494(5) 0.5335(4)
H44 H -0.3657 0.6903 0.5622
C76 C -0.3349(5) 0.6572(5) 0.4685(5)
H45 H -0.3294 0.7039 0.4532
C77 C -0.3216(5) 0.5965(5) 0.4253(5)
H46 H -0.3078 0.6041 0.3818
C78 C -0.3282(5) 0.5254(5) 0.4447(4)
H47 H -0.3207 0.4856 0.4157
C79 C -0.3466(5) 0.5179(5) 0.5098(4)
C80 C -0.3260(7) -0.3582(8) 0.8485(4)
H48 H -0.3109 -0.3248 0.8199
C81 C -0.3687(6) -0.4452(7) 0.8866(6)
C82 C -0.4002(6) -0.5029(8) 0.8956(7)
H49 H -0.4179 -0.5194 0.8615
C83 C -0.4036(10) -0.5346(13) 0.9593(11)
H50 H -0.4237 -0.5734 0.9675
C84 C -0.3785(12) -0.5098(17) 1.0080(11)
H51 H -0.3819 -0.5322 1.0491
C85 C -0.3485(9) -0.4543(14) 1.0004(8)
H52 H -0.3317 -0.4382 1.0352
C86 C -0.3438(6) -0.4219(9) 0.9389(6)
C87 C -0.2755(6) -0.3280(10) 0.9437(5)
C88 C -0.3122(6) -0.2856(10) 1.0008(5)
H53 H -0.3622 -0.2822 1.0201
C89 C -0.2712(6) -0.2489(11) 1.0274(4)
C90 C -0.1960(7) -0.2541(11) 1.0005(5)
H54 H -0.1692 -0.2295 1.0197
C91 C -0.1619(6) -0.2972(11) 0.9437(5)
C92 C -0.2011(7) -0.3338(10) 0.9140(5)
H55 H -0.1783 -0.3613 0.8754
C93 C 0.0357(5) 0.0311(5) 0.2037(5)
H56 H 0.0894 0.0209 0.2094
C94 C -0.0959(5) 0.0906(6) 0.2023(6)
C95 C -0.1791(6) 0.1435(8) 0.2082(8)
H57 H -0.1992 0.1943 0.2273
C96 C -0.2311(7) 0.1172(10) 0.1845(9)
H58 H -0.2874 0.1518 0.1866
C97 C -0.2010(7) 0.0401(9) 0.1574(9)
H59 H -0.2382 0.0239 0.1436
C98 C -0.1202(7) -0.0115(8) 0.1507(7)
H60 H -0.1005 -0.0614 0.1305
C99 C -0.0674(5) 0.0133(6) 0.1755(5)
C100 C 0.0735(5) -0.1045(6) 0.1554(5)
C101 C 0.0524(5) -0.1673(6) 0.1678(4)
H61 H 0.0042 -0.1589 0.1934
C102 C 0.1030(6) -0.2437(5) 0.1424(4)
C103 C 0.1766(5) -0.2564(5) 0.1055(4)
H62 H 0.2106 -0.3072 0.0875
C104 C 0.1978(5) -0.1932(5) 0.0961(5)
C105 C 0.1478(6) -0.1162(6) 0.1189(5)
H63 H 0.1623 -0.0734 0.1106
C106 C 0.1380(7) -0.3909(6) 0.1601(5)
H64 H 0.1948 -0.4092 0.1545
C107 C 0.0185(7) -0.3890(7) 0.1769(4)
C108 C -0.0468(7) -0.4097(7) 0.1901(5)
H65 H -0.0374 -0.4640 0.1976
C109 C -0.1266(7) -0.3464(8) 0.1918(5)
H66 H -0.1713 -0.3583 0.2010
C110 C -0.1400(7) -0.2662(7) 0.1798(5)
H67 H -0.1940 -0.2253 0.1811
C111 C -0.0764(6) -0.2443(7) 0.1661(5)
H68 H -0.0865 -0.1899 0.1578
C112 C 0.0040(6) -0.3076(6) 0.1654(4)
C113 C 0.3338(8) -0.1895(10) 0.0800(9)
H69 H 0.3269 -0.1621 0.1179
C114 C 0.3821(6) -0.2446(5) -0.0118(5)
C115 C 0.4301(6) -0.2758(6) -0.0695(6)
H70 H 0.4819 -0.2772 -0.0784
C116 C 0.3990(8) -0.3029(9) -0.1106(5)
H71 H 0.4305 -0.3259 -0.1488
C117 C 0.3217(9) -0.2984(13) -0.0991(6)
H72 H 0.3016 -0.3159 -0.1309
C118 C 0.2725(7) -0.2692(9) -0.0428(5)
H73 H 0.2211 -0.2689 -0.0344
C119 C 0.3050(5) -0.2409(5) -0.0005(4)
C120 C -0.0805(6) -0.2631(9) 0.8549(4)
H74 H -0.1242 -0.2365 0.8293
C121 C 0.0392(5) -0.3122(7) 0.8887(4)
C122 C 0.1217(6) -0.3393(8) 0.8974(5)
H75 H 0.1569 -0.3289 0.8663
C123 C 0.1495(7) -0.3817(9) 0.9533(6)
H76 H 0.2042 -0.3986 0.9608
C124 C 0.0987(7) -0.4004(10) 0.9991(6)
H77 H 0.1211 -0.4312 1.0356
C125 C 0.0171(7) -0.3753(10) 0.9927(5)
H78 H -0.0171 -0.3870 1.0239
C126 C -0.0113(6) -0.3311(9) 0.9362(5)
N1 N -0.6963(4) 0.1835(4) 0.6760(3)
N2 N -0.8262(4) 0.2535(4) 0.6499(3)
N3 N -1.2541(5) 0.4693(5) 0.7163(4)
N4 N -1.1239(5) 0.4060(5) 0.6717(4)
N5 N -0.8907(7) 0.6010(7) 0.5096(6)
N6 N -0.9574(5) 0.5301(5) 0.5580(4)
N7 N -0.5122(4) 0.1902(4) 0.6176(3)
N8 N -0.4356(4) 0.2341(4) 0.5482(3)
N9 N -0.0698(4) 0.1808(4) 0.3623(3)
N10 N -0.1732(4) 0.2045(4) 0.4401(3)
N11 N -0.3747(5) -0.1577(5) 1.1806(4)
N12 N -0.3096(7) -0.2021(7) 1.0822(6)
N13 N -0.3836(4) 0.5545(4) 0.6162(3)
N14 N -0.3597(4) 0.4568(4) 0.5470(3)
N15 N -0.3587(5) -0.4030(5) 0.8311(4)
N16 N -0.3159(6) -0.3647(6) 0.9123(5)
N17 N -0.0279(4) 0.1001(4) 0.2195(4)
N18 N 0.0173(5) -0.0245(5) 0.1784(4)
N19 N 0.1036(6) -0.4405(5) 0.1743(4)
N20 N 0.0829(5) -0.3096(4) 0.1543(4)
N21 N 0.4009(7) -0.2148(7) 0.0425(6)
N22 N 0.2737(5) -0.2054(5) 0.0609(4)
N23 N -0.0052(5) -0.2695(5) 0.8379(4)
N24 N -0.0874(6) -0.2989(6) 0.9126(5)
Cd1A Cd -0.42341(3) -0.17257(3) 1.28478(3)
Cd2_2 Cd -1.38149(3) 0.58806(3) 0.72310(3)
Cd2_3 Cd -0.38149(3) 0.58806(3) 0.72310(3)
Cd3A Cd -0.97308(3) 0.78578(3) 0.74092(3)
Cd3A_2 Cd 0.02692(3) -0.21422(3) 0.74092(3)
O3A O 0.1356(3) 0.1001(3) 0.2603(3)
O4A O 0.0809(3) 0.2267(3) 0.2943(3)
O9_2 O -0.4467(3) -0.4970(3) 0.7472(3)
O10_2 O -0.5342(3) -0.3666(3) 0.7342(3)
O11A O -0.1630(3) 0.2948(4) 0.2504(3)
N3_2 N -0.2541(5) -0.5307(5) 0.7163(4)
N11A N -0.6253(5) 0.1577(5) 0.8194(4)
N13_2 N -0.3836(4) -0.4455(4) 0.6162(3)
N23A N 0.0052(5) 0.2695(5) 0.1621(4)
O13 O -0.2908(5) 0.0597(4) 0.5748(4)
C127 C -0.2865(9) -0.0199(7) 0.5630(6)
H79 H -0.3295 -0.0267 0.5907
H80 H -0.2340 -0.0624 0.5750
C128 C -0.2952(6) -0.0314(7) 0.4961(5)
H81 H -0.2915 -0.0851 0.4920
H82 H -0.2521 -0.0261 0.4683
H83 H -0.3477 0.0092 0.4841
O14 O 0.0113(13) -0.1387(13) -0.0084(10)
C129 C -0.0521(14) -0.0914(16) -0.0383(13)
H84 H -0.0324 -0.0886 -0.0832
H85 H -0.0718 -0.0369 -0.0214
C130 C -0.1166(10) -0.1055(15) -0.0380(9)
H86 H -0.1572 -0.0629 -0.0624
H87 H -0.1395 -0.1064 0.0057
H88 H -0.1004 -0.1574 -0.0572
O15 O -0.0103(4) -0.3983(4) 0.7019(3)
O16 O -0.2094(4) 0.0611(4) 0.6840(3)
O17 O -0.3573(7) 0.1575(7) 0.7646(5)
O18 O -0.1395(5) -0.4018(5) 0.7769(4)
O19 O -0.2212(6) -0.0321(6) 0.8667(5)
O20 O -0.5806(7) 0.8039(7) 0.7177(6)
O21 O -0.3998(8) 0.0157(8) 0.8821(6)
O22 O -0.5088(8) 0.1353(8) 0.9662(6)
O23 O -0.5883(12) 0.1329(12) 1.0967(10)
O24 O -0.423(2) 0.291(2) 0.8181(18)
O25 O -0.509(2) -0.182(2) 0.8000(18)
loop_
_geom_bond_atom_site_label_1
_geom_bond_atom_site_label_2
_geom_bond_site_symmetry_1
_geom_bond_site_symmetry_2
Cd1 O1 1_555 1_555
Cd2 O5 1_555 1_555
Cd3 N9 1_555 1_555
O1 C1 1_555 1_555
O2 Cd1 1_555 1_555
O3 C5 1_555 1_555
O4 C5 1_555 1_555
O5 C8 1_555 1_555
O6 Cd2 1_555 1_555
O7 Cd1 1_555 1_555
O8 Cd1 1_555 1_555
O9 C14 1_555 1_555
O10 C14 1_555 1_555
O11 C17 1_555 1_555
O12 C17 1_555 1_555
C1 O2 1_555 1_555
C2 C1 1_555 1_555
C3 C2 1_555 1_555
H1 C3 1_555 1_555
C4 C3 1_555 1_555
C5 C4 1_555 1_555
C6 C4 1_555 1_555
H2 C6 1_555 1_555
C7 C6 1_555 1_555
C8 O6 1_555 1_555
C9 C2 1_555 1_555
H3 C9 1_555 1_555
C10 O7 1_555 1_555
C11 C10 1_555 1_555
C12 C11 1_555 1_555
H4 C12 1_555 1_555
C13 C12 1_555 1_555
C14 C13 1_555 1_555
C15 C13 1_555 1_555
H5 C15 1_555 1_555
C16 C15 1_555 1_555
C17 C16 1_555 1_555
C18 C11 1_555 1_555
H6 C18 1_555 1_555
C19 H7 1_555 1_555
C20 C21 1_555 1_555
C21 H8 1_555 1_555
C22 C21 1_555 1_555
H9 C22 1_555 1_555
C23 C22 1_555 1_555
H10 C23 1_555 1_555
C24 C23 1_555 1_555
H11 C24 1_555 1_555
C25 C20 1_555 1_555
C26 C27 1_555 1_555
C27 H12 1_555 1_555
C28 C27 1_555 1_555
C29 C28 1_555 1_555
H13 C29 1_555 1_555
C30 C29 1_555 1_555
C31 C26 1_555 1_555
H14 C31 1_555 1_555
C32 H15 1_555 1_555
C33 C34 1_555 1_555
C34 H16 1_555 1_555
C35 C34 1_555 1_555
H17 C35 1_555 1_555
C36 C35 1_555 1_555
H18 C36 1_555 1_555
C37 C36 1_555 1_555
H19 C37 1_555 1_555
C38 C33 1_555 1_555
C39 H20 1_555 1_555
C40 C41 1_555 1_555
C41 H21 1_555 1_555
C42 C41 1_555 1_555
H22 C42 1_555 1_555
C43 C42 1_555 1_555
H23 C43 1_555 1_555
C44 C43 1_555 1_555
H24 C44 1_555 1_555
C45 C40 1_555 1_555
C46 H25 1_555 1_555
C47 C48 1_555 1_555
C48 H26 1_555 1_555
C49 C48 1_555 1_555
H27 C49 1_555 1_555
C50 C49 1_555 1_555
H28 C50 1_555 1_555
C51 C50 1_555 1_555
H29 C51 1_555 1_555
C52 C47 1_555 1_555
C53 C54 1_555 1_555
C54 H30 1_555 1_555
C55 C54 1_555 1_555
C56 C55 1_555 1_555
H31 C56 1_555 1_555
C57 C56 1_555 1_555
C58 C53 1_555 1_555
H32 C58 1_555 1_555
C59 H33 1_555 1_555
C60 C61 1_555 1_555
C61 H34 1_555 1_555
C62 C61 1_555 1_555
H35 C62 1_555 1_555
C63 C62 1_555 1_555
H36 C63 1_555 1_555
C64 C63 1_555 1_555
H37 C64 1_555 1_555
C65 C60 1_555 1_555
C66 H38 1_555 1_555
C67 C68 1_555 1_555
C68 H39 1_555 1_555
C69 C68 1_555 1_555
H40 C69 1_555 1_555
C70 C69 1_555 1_555
H41 C70 1_555 1_555
C71 C70 1_555 1_555
H42 C71 1_555 1_555
C72 C67 1_555 1_555
C73 H43 1_555 1_555
C74 C75 1_555 1_555
C75 H44 1_555 1_555
C76 C75 1_555 1_555
H45 C76 1_555 1_555
C77 C76 1_555 1_555
H46 C77 1_555 1_555
C78 C77 1_555 1_555
H47 C78 1_555 1_555
C79 C74 1_555 1_555
C80 H48 1_555 1_555
C81 C82 1_555 1_555
C82 H49 1_555 1_555
C83 C82 1_555 1_555
H50 C83 1_555 1_555
C84 C83 1_555 1_555
H51 C84 1_555 1_555
C85 C84 1_555 1_555
H52 C85 1_555 1_555
C86 C81 1_555 1_555
C87 C88 1_555 1_555
C88 H53 1_555 1_555
C89 C88 1_555 1_555
C90 C89 1_555 1_555
H54 C90 1_555 1_555
C91 C90 1_555 1_555
C92 C87 1_555 1_555
H55 C92 1_555 1_555
C93 H56 1_555 1_555
C94 C95 1_555 1_555
C95 H57 1_555 1_555
C96 C95 1_555 1_555
H58 C96 1_555 1_555
C97 C96 1_555 1_555
H59 C97 1_555 1_555
C98 C97 1_555 1_555
H60 C98 1_555 1_555
C99 C94 1_555 1_555
C100 C101 1_555 1_555
C101 H61 1_555 1_555
C102 C101 1_555 1_555
C103 C102 1_555 1_555
H62 C103 1_555 1_555
C104 C103 1_555 1_555
C105 C100 1_555 1_555
H63 C105 1_555 1_555
C106 H64 1_555 1_555
C107 C108 1_555 1_555
C108 H65 1_555 1_555
C109 C108 1_555 1_555
H66 C109 1_555 1_555
C110 C109 1_555 1_555
H67 C110 1_555 1_555
C111 C110 1_555 1_555
H68 C111 1_555 1_555
C112 C107 1_555 1_555
C113 H69 1_555 1_555
C114 C115 1_555 1_555
C115 H70 1_555 1_555
C116 C115 1_555 1_555
H71 C116 1_555 1_555
C117 C116 1_555 1_555
H72 C117 1_555 1_555
C118 C117 1_555 1_555
H73 C118 1_555 1_555
C119 C114 1_555 1_555
C120 H74 1_555 1_555
C121 C122 1_555 1_555
C122 H75 1_555 1_555
C123 C122 1_555 1_555
H76 C123 1_555 1_555
C124 C123 1_555 1_555
H77 C124 1_555 1_555
C125 C124 1_555 1_555
H78 C125 1_555 1_555
C126 C121 1_555 1_555
N1 Cd1 1_555 1_555
N2 C19 1_555 1_555
N3 C32 1_555 1_555
N4 C28 1_555 1_555
N5 C39 1_555 1_555
N6 C30 1_555 1_555
N7 Cd1 1_555 1_555
N8 C46 1_555 1_555
N9 C59 1_555 1_555
N10 C55 1_555 1_555
N11 C66 1_555 1_555
N12 C66 1_555 1_555
N13 C73 1_555 1_555
N14 C57 1_555 1_555
N15 Cd2 1_555 1_555
N16 C80 1_555 1_555
N17 Cd3 1_555 1_555
N18 C93 1_555 1_555
N19 C106 1_555 1_555
N20 C102 1_555 1_555
N21 C113 1_555 1_555
N22 C104 1_555 1_555
N23 C120 1_555 1_555
N24 C91 1_555 1_555
O13 C127 1_555 1_555
C127 H79 1_555 1_555
H80 C127 1_555 1_555
C128 C127 1_555 1_555
H81 C128 1_555 1_555
H82 C128 1_555 1_555
H83 C128 1_555 1_555
O14 C129 1_555 1_555
C129 H84 1_555 1_555
H85 C129 1_555 1_555
C130 C129 1_555 1_555
H86 C130 1_555 1_555
H87 C130 1_555 1_555
H88 C130 1_555 1_555
Cd1A N11 1_555 1_555
Cd2_2 N3 1_555 1_555
Cd2_3 O9 1_555 1_555
Cd3A O11 1_555 1_555
Cd3A_2 O3 1_555 1_555
O3A Cd3 1_555 1_555
O4A Cd3 1_555 1_555
O9_2 Cd2 1_555 1_555
O10_2 Cd2 1_555 1_555
O11A Cd3 1_555 1_555
N3_2 Cd2 1_555 1_555
N11A Cd1 1_555 1_555
N13_2 Cd2 1_555 1_555
N23A Cd3 1_555 1_555
O4 Cd3A_2 1_555 1_555
O8 C10 1_555 1_555
O10 Cd2_3 1_555 1_555
C7 C8 1_555 1_555
C7 C9 1_555 1_555
C16 C18 1_555 1_555
C19 N1 1_555 1_555
C20 N1 1_555 1_555
C24 C25 1_555 1_555
C25 N2 1_555 1_555
C26 N2 1_555 1_555
C30 C31 1_555 1_555
C32 N4 1_555 1_555
C33 N3 1_555 1_555
C37 C38 1_555 1_555
C38 N4 1_555 1_555
C39 N6 1_555 1_555
C40 N5 1_555 1_555
C44 C45 1_555 1_555
C45 N6 1_555 1_555
C46 N7 1_555 1_555
C47 N7 1_555 1_555
C51 C52 1_555 1_555
C52 N8 1_555 1_555
C53 N8 1_555 1_555
C57 C58 1_555 1_555
C59 N10 1_555 1_555
C60 N9 1_555 1_555
C64 C65 1_555 1_555
C65 N10 1_555 1_555
C67 N11 1_555 1_555
C71 C72 1_555 1_555
C72 N12 1_555 1_555
C73 N14 1_555 1_555
C74 N13 1_555 1_555
C78 C79 1_555 1_555
C79 N14 1_555 1_555
C80 N15 1_555 1_555
C81 N15 1_555 1_555
C85 C86 1_555 1_555
C86 N16 1_555 1_555
C87 N16 1_555 1_555
C89 N12 1_555 1_555
C91 C92 1_555 1_555
C93 N17 1_555 1_555
C94 N17 1_555 1_555
C98 C99 1_555 1_555
C99 N18 1_555 1_555
C100 N18 1_555 1_555
C104 C105 1_555 1_555
C106 N20 1_555 1_555
C107 N19 1_555 1_555
C111 C112 1_555 1_555
C112 N20 1_555 1_555
C113 N22 1_555 1_555
C114 N21 1_555 1_555
C118 C119 1_555 1_555
C119 N22 1_555 1_555
C120 N24 1_555 1_555
C121 N23 1_555 1_555
C125 C126 1_555 1_555
C126 N24 1_555 1_555
N13 Cd2_3 1_555 1_555
N23 Cd3A_2 1_555 1_555

#END
