
#######################################################################
#
#                 Cambridge Crystallographic Data Centre
#                                CCDC 
#
#######################################################################
#
# If this CIF has been generated from an entry in the Cambridge 
# Structural Database, then it will include bibliographic, chemical, 
# crystal, experimental, refinement or atomic coordinate data resulting 
# from the CCDC's data processing and validation procedures.
#
#######################################################################

data_VOQXAC
_symmetry_cell_setting           triclinic
_symmetry_space_group_name_H-M   'P -1'
_symmetry_Int_Tables_number      2
_space_group_name_Hall           '-P 1'
loop_
_symmetry_equiv_pos_site_id
_symmetry_equiv_pos_as_xyz
1 x,y,z
2 -x,-y,-z
_cell_length_a                   10.430(5)
_cell_length_b                   12.130(5)
_cell_length_c                   14.833(5)
_cell_angle_alpha                67.341(5)
_cell_angle_beta                 80.634(5)
_cell_angle_gamma                64.897(5)
_cell_volume                     1568.19
loop_
_atom_site_label
_atom_site_type_symbol
_atom_site_fract_x
_atom_site_fract_y
_atom_site_fract_z
Zn1 Zn -0.12779(8) 0.36114(7) 0.38516(7)
O1 O -0.3776(5) 0.3742(4) 0.5287(4)
O2 O -0.1642(5) 0.2352(5) 0.5028(4)
O3 O -0.1754(5) -0.3159(5) 0.7513(4)
O4 O -0.0218(5) -0.2317(5) 0.6621(4)
O5 O -0.6467(6) -0.0115(5) 0.8224(5)
O6 O -0.6817(5) 0.1929(5) 0.7907(4)
C1 C -0.2870(7) 0.2632(6) 0.5449(6)
C2 C -0.3147(7) 0.1459(6) 0.6161(6)
C3 C -0.4433(6) 0.1664(6) 0.6666(6)
H1 H -0.5083 0.2506 0.6591
C4 C -0.6071(7) 0.0760(6) 0.7847(6)
C5 C -0.4736(6) 0.0606(6) 0.7279(6)
C6 C -0.3767(7) -0.0644(6) 0.7376(6)
H2 H -0.3991 -0.1349 0.7765
C7 C -0.1430(8) -0.2230(7) 0.7024(6)
C8 C -0.2463(6) -0.0864(6) 0.6903(6)
C9 C -0.2166(7) 0.0214(6) 0.6287(6)
H3 H -0.1303 0.0087 0.5963
C10 C -0.4259(6) 0.5204(6) 0.3071(6)
H4 H -0.4656 0.4993 0.3690
C11 C -0.2728(7) 0.5324(6) 0.1880(6)
C12 C -0.1510(7) 0.5225(7) 0.1309(6)
H5 H -0.0614 0.4664 0.1575
C13 C -0.1690(8) 0.5991(7) 0.0341(7)
H6 H -0.0895 0.5989 -0.0049
C14 C -0.3011(8) 0.6762(8) -0.0075(6)
H7 H -0.3084 0.7221 -0.0745
C15 C -0.4243(7) 0.6876(7) 0.0479(6)
H8 H -0.5135 0.7413 0.0201
C16 C -0.4069(7) 0.6156(6) 0.1453(6)
C17 C -0.6482(6) 0.6812(6) 0.2222(6)
C18 C -0.6991(6) 0.8116(6) 0.1638(6)
H9 H -0.6365 0.8493 0.1289
C19 C -0.8219(7) 1.0440(7) -0.0035(6)
H10 H -0.7357 0.9855 -0.0174
C20 C -1.0119(7) 1.2125(7) -0.0169(6)
C21 C -1.1252(8) 1.3336(7) -0.0531(7)
H11 H -1.1223 1.3932 -0.1150
C22 C -1.2420(8) 1.3608(7) 0.0074(7)
H12 H -1.3199 1.4395 -0.0144
C23 C -1.2434(8) 1.2700(7) 0.1019(7)
H13 H -1.3213 1.2921 0.1419
C24 C -1.1336(7) 1.1499(7) 0.1371(6)
H14 H -1.1363 1.0905 0.1991
C25 C -1.0183(7) 1.1220(7) 0.0750(6)
C26 C -0.8435(7) 0.8856(6) 0.1575(6)
C27 C -0.9390(7) 0.8350(7) 0.2155(6)
H15 H -1.0357 0.8856 0.2132
C28 C -0.9724(6) 0.5329(6) 0.3353(6)
H16 H -0.9038 0.4822 0.3028
C29 C -1.1523(6) 0.6024(6) 0.4261(6)
C30 C -1.2712(7) 0.6186(7) 0.4841(6)
H17 H -1.3143 0.5598 0.5040
C31 C -1.3237(7) 0.7275(7) 0.5114(6)
H18 H -1.4031 0.7416 0.5513
C32 C -1.2595(8) 0.8158(7) 0.4800(7)
H19 H -1.2971 0.8875 0.4998
C33 C -1.1397(7) 0.8000(7) 0.4196(6)
H20 H -1.0957 0.8581 0.3995
C34 C -1.0904(6) 0.6912(7) 0.3912(6)
C35 C -0.8826(6) 0.7043(6) 0.2776(6)
C36 C -0.7391(7) 0.6262(7) 0.2805(6)
H21 H -0.7048 0.5390 0.3206
N1 N -0.2880(5) 0.4711(5) 0.2890(5)
N2 N -0.5023(6) 0.6058(5) 0.2241(5)
N3 N -1.0749(5) 0.5012(5) 0.3877(5)
N4 N -0.9778(5) 0.6454(5) 0.3339(5)
N5 N -0.8855(6) 1.1609(6) -0.0645(5)
N6 N -0.8922(6) 1.0135(5) 0.0832(5)
Zn1_2 Zn -1.12779(8) 0.36114(7) 0.38516(7)
Zn1A Zn 0.12779(8) -0.36114(7) 0.61484(7)
O4A O 0.0218(5) 0.2317(5) 0.3379(4)
N3_2 N -0.0749(5) 0.5012(5) 0.3877(5)
O7 O -0.152(2) 0.0967(15) 0.3769(13)
O8 O -0.4056(13) 0.1537(12) 0.3268(10)
O9 O -0.5835(13) 0.3698(13) 0.2256(10)
loop_
_geom_bond_atom_site_label_1
_geom_bond_atom_site_label_2
_geom_bond_site_symmetry_1
_geom_bond_site_symmetry_2
Zn1 O2 1_555 1_555
O1 C1 1_555 1_555
O2 C1 1_555 1_555
O3 C7 1_555 1_555
O4 C7 1_555 1_555
O5 C4 1_555 1_555
O6 C4 1_555 1_555
C1 C2 1_555 1_555
C2 C3 1_555 1_555
C3 H1 1_555 1_555
C4 C5 1_555 1_555
C5 C3 1_555 1_555
C6 C5 1_555 1_555
H2 C6 1_555 1_555
C7 C8 1_555 1_555
C8 C6 1_555 1_555
C9 C2 1_555 1_555
H3 C9 1_555 1_555
C10 H4 1_555 1_555
C11 C12 1_555 1_555
C12 H5 1_555 1_555
C13 C12 1_555 1_555
H6 C13 1_555 1_555
C14 C13 1_555 1_555
H7 C14 1_555 1_555
C15 C14 1_555 1_555
H8 C15 1_555 1_555
C16 C11 1_555 1_555
C17 C18 1_555 1_555
C18 H9 1_555 1_555
C19 H10 1_555 1_555
C20 C21 1_555 1_555
C21 H11 1_555 1_555
C22 C21 1_555 1_555
H12 C22 1_555 1_555
C23 C22 1_555 1_555
H13 C23 1_555 1_555
C24 C23 1_555 1_555
H14 C24 1_555 1_555
C25 C20 1_555 1_555
C26 C18 1_555 1_555
C27 C26 1_555 1_555
H15 C27 1_555 1_555
C28 H16 1_555 1_555
C29 C30 1_555 1_555
C30 H17 1_555 1_555
C31 C30 1_555 1_555
H18 C31 1_555 1_555
C32 C31 1_555 1_555
H19 C32 1_555 1_555
C33 C32 1_555 1_555
H20 C33 1_555 1_555
C34 C29 1_555 1_555
C35 C27 1_555 1_555
C36 C17 1_555 1_555
H21 C36 1_555 1_555
N1 Zn1 1_555 1_555
N2 C10 1_555 1_555
N3 C28 1_555 1_555
N4 C28 1_555 1_555
N5 C19 1_555 1_555
N6 C19 1_555 1_555
Zn1_2 N3 1_555 1_555
Zn1A O4 1_555 1_555
O4A Zn1 1_555 1_555
N3_2 Zn1 1_555 1_555
C8 C9 1_555 1_555
C10 N1 1_555 1_555
C11 N1 1_555 1_555
C15 C16 1_555 1_555
C16 N2 1_555 1_555
C17 N2 1_555 1_555
C20 N5 1_555 1_555
C24 C25 1_555 1_555
C25 N6 1_555 1_555
C26 N6 1_555 1_555
C29 N3 1_555 1_555
C33 C34 1_555 1_555
C34 N4 1_555 1_555
C35 C36 1_555 1_555
C35 N4 1_555 1_555

#END
