
#######################################################################
#
#                 Cambridge Crystallographic Data Centre
#                                CCDC 
#
#######################################################################
#
# If this CIF has been generated from an entry in the Cambridge 
# Structural Database, then it will include bibliographic, chemical, 
# crystal, experimental, refinement or atomic coordinate data resulting 
# from the CCDC's data processing and validation procedures.
#
#######################################################################

data_VOQYAD
_symmetry_cell_setting           triclinic
_symmetry_space_group_name_H-M   'P -1'
_symmetry_Int_Tables_number      2
_space_group_name_Hall           '-P 1'
loop_
_symmetry_equiv_pos_site_id
_symmetry_equiv_pos_as_xyz
1 x,y,z
2 -x,-y,-z
_cell_length_a                   6.6723(9)
_cell_length_b                   8.3982(13)
_cell_length_c                   10.312(2)
_cell_angle_alpha                75.470(16)
_cell_angle_beta                 71.695(15)
_cell_angle_gamma                88.038(13)
_cell_volume                     530.426
loop_
_atom_site_label
_atom_site_type_symbol
_atom_site_fract_x
_atom_site_fract_y
_atom_site_fract_z
Eu1 Eu 0.27372(3) 0.65372(2) 0.68174(2)
O1 O 0.6107(5) 0.8080(4) 0.5278(3)
O2 O 0.2867(5) 0.7271(4) 0.4366(3)
O3 O 0.0192(5) 0.7002(4) 0.8945(3)
O4 O 0.4702(5) 0.7005(4) -0.1564(3)
O5 O 0.4446(5) 0.5249(4) 0.3434(3)
O6 O 0.7464(5) 1.0465(4) 0.3704(3)
O7 O -0.0842(5) 0.7046(4) 0.6677(4)
H1 H -0.1176 0.7269 0.5925
H2 H -0.1952 0.7009 0.7370
N1 N 0.3942(5) 0.7666(4) -0.0451(4)
O8 O 0.1419(5) 0.4129(4) 0.6199(3)
H3 H 0.2396 0.3684 0.5670
H4 H 0.0774 0.3383 0.6928
C1 C 0.6037(6) 0.9577(5) 0.4702(4)
O9 O -0.1593(5) 0.5973(4) 1.1232(3)
C2 C 0.3311(7) 0.7511(6) 0.1972(5)
C3 C 0.2346(7) 0.9002(5) 0.1823(5)
H5 H 0.1779 0.9461 0.2609
C4 C 0.3031(6) 0.9135(5) -0.0625(5)
H6 H 0.2949 0.9696 -0.1528
C5 C 0.3557(7) 0.6589(5) 0.3364(5)
C6 C 0.4077(6) 0.6851(5) 0.0820(5)
H7 H 0.4705 0.5814 0.0925
C7 C -0.0396(7) 0.5867(5) 1.0046(5)
C8 C 0.2224(7) 0.9816(5) 0.0500(5)
H8 H 0.1579 1.0845 0.0375
O1A O 0.3893(5) 1.1920(4) 0.4722(3)
O6A O 0.2536(5) 0.9535(4) 0.6296(3)
C1A C 0.3963(6) 1.0423(5) 0.5298(4)
O3A O -0.0192(5) 0.2998(4) 1.1055(3)
O9A O 0.1593(5) 0.4027(4) 0.8768(3)
C7A C 0.0396(7) 0.4133(5) 0.9954(5)
Eu1A Eu -0.27372(3) 0.34628(2) 1.31826(2)
O2A O -0.2867(5) 0.2729(4) 1.5634(3)
O4A O -0.4702(5) 0.2995(4) 2.1564(3)
O5A O -0.4446(5) 0.4751(4) 1.6566(3)
O7A O 0.0842(5) 0.2954(4) 1.3323(4)
H1A H 0.1176 0.2731 1.4075
H2A H 0.1952 0.2991 1.2630
N1A N -0.3942(5) 0.2334(4) 2.0451(4)
O8A O -0.1419(5) 0.5871(4) 1.3801(3)
H3A H -0.2396 0.6316 1.4330
H4A H -0.0774 0.6617 1.3072
C2A C -0.3311(7) 0.2489(6) 1.8028(5)
C3A C -0.2346(7) 0.0998(5) 1.8177(5)
H5A H -0.1779 0.0539 1.7391
C4A C -0.3031(6) 0.0865(5) 2.0625(5)
H6A H -0.2949 0.0304 2.1528
C5A C -0.3557(7) 0.3411(5) 1.6636(5)
C6A C -0.4077(6) 0.3149(5) 1.9180(5)
H7A H -0.4705 0.4186 1.9075
C8A C -0.2224(7) 0.0184(5) 1.9500(5)
H8A H -0.1579 -0.0845 1.9625
Eu1_2 Eu -0.72628(3) 0.65372(2) 1.68174(2)
Eu1_3 Eu 0.27372(3) 0.65372(2) -0.31826(2)
Eu1A_2 Eu -0.27372(3) 0.34628(2) 2.31826(2)
Eu1A_3 Eu 0.72628(3) 0.34628(2) 0.31826(2)
Eu1A_4 Eu 0.72628(3) 1.34628(2) 0.31826(2)
O1A_2 O -0.6107(5) 0.1920(4) 1.4722(3)
O4_2 O 0.4702(5) 0.7005(4) 0.8436(3)
O4A_2 O -0.4702(5) 0.2995(4) 1.1564(3)
O5_2 O -0.5554(5) 0.5249(4) 1.3434(3)
O5A_2 O 0.5554(5) 0.4751(4) 0.6566(3)
O6_2 O -0.2536(5) 0.0465(4) 1.3704(3)
loop_
_geom_bond_atom_site_label_1
_geom_bond_atom_site_label_2
_geom_bond_site_symmetry_1
_geom_bond_site_symmetry_2
Eu1 O1 1_555 1_555
O1 C1 1_555 1_555
O2 Eu1 1_555 1_555
O3 Eu1 1_555 1_555
O4 N1 1_555 1_555
O5 C5 1_555 1_555
O6 C1 1_555 1_555
O7 Eu1 1_555 1_555
H1 O7 1_555 1_555
H2 O7 1_555 1_555
N1 C4 1_555 1_555
O8 Eu1 1_555 1_555
H3 O8 1_555 1_555
H4 O8 1_555 1_555
C1 C1A 1_555 1_555
O9 C7 1_555 1_555
C2 C3 1_555 1_555
C3 H5 1_555 1_555
C4 H6 1_555 1_555
C5 O2 1_555 1_555
C6 N1 1_555 1_555
H7 C6 1_555 1_555
C7 O3 1_555 1_555
C8 C3 1_555 1_555
H8 C8 1_555 1_555
O1A C1A 1_555 1_555
O6A Eu1 1_555 1_555
C1A O6A 1_555 1_555
O3A C7A 1_555 1_555
O9A Eu1 1_555 1_555
C7A C7 1_555 1_555
Eu1A O9 1_555 1_555
O2A Eu1A 1_555 1_555
O4A N1A 1_555 1_555
O5A C5A 1_555 1_555
O7A Eu1A 1_555 1_555
H1A O7A 1_555 1_555
H2A O7A 1_555 1_555
N1A C4A 1_555 1_555
O8A Eu1A 1_555 1_555
H3A O8A 1_555 1_555
H4A O8A 1_555 1_555
C2A C3A 1_555 1_555
C3A H5A 1_555 1_555
C4A H6A 1_555 1_555
C5A O2A 1_555 1_555
C6A N1A 1_555 1_555
H7A C6A 1_555 1_555
C8A C3A 1_555 1_555
H8A C8A 1_555 1_555
Eu1_2 O5A 1_555 1_555
Eu1_3 O4 1_555 1_555
Eu1A_2 O4A 1_555 1_555
Eu1A_3 O5 1_555 1_555
Eu1A_4 O6 1_555 1_555
O1A_2 Eu1A 1_555 1_555
O4_2 Eu1 1_555 1_555
O4A_2 Eu1A 1_555 1_555
O5_2 Eu1A 1_555 1_555
O5A_2 Eu1 1_555 1_555
O6_2 Eu1A 1_555 1_555
C2 C5 1_555 1_555
C2 C6 1_555 1_555
C4 C8 1_555 1_555
O1A Eu1A_4 1_555 1_555
O3A Eu1A 1_555 1_555
O9A C7A 1_555 1_555
C2A C5A 1_555 1_555
C2A C6A 1_555 1_555
C4A C8A 1_555 1_555

#END
