
#######################################################################
#
#                 Cambridge Crystallographic Data Centre
#                                CCDC 
#
#######################################################################
#
# If this CIF has been generated from an entry in the Cambridge 
# Structural Database, then it will include bibliographic, chemical, 
# crystal, experimental, refinement or atomic coordinate data resulting 
# from the CCDC's data processing and validation procedures.
#
#######################################################################

data_VORBIO
_symmetry_cell_setting           monoclinic
_symmetry_space_group_name_H-M   'C 2/c'
_symmetry_Int_Tables_number      15
_space_group_name_Hall           '-C 2yn'
loop_
_symmetry_equiv_pos_site_id
_symmetry_equiv_pos_as_xyz
1 x,y,z
2 1/2+x,1/2+y,z
3 -x,y,1/2-z
4 1/2-x,1/2+y,1/2-z
5 -x,-y,-z
6 1/2-x,1/2-y,-z
7 x,-y,1/2+z
8 1/2+x,1/2-y,1/2+z
_cell_length_a                   11.5921(2)
_cell_length_b                   11.8471(2)
_cell_length_c                   16.5666(7)
_cell_angle_alpha                90
_cell_angle_beta                 90.084(1)
_cell_angle_gamma                90
_cell_volume                     2275.13
loop_
_atom_site_label
_atom_site_type_symbol
_atom_site_fract_x
_atom_site_fract_y
_atom_site_fract_z
Mn1 Mn -0.2500 0.2500 0.0000
Mn2 Mn -0.2500 0.2500 -0.5000
Mn3 Mn 0.0000 0.49140(3) -0.2500
O1 O -0.29324(12) 0.18674(11) -0.12066(7)
O2 O -0.11181(12) 0.36195(11) -0.19979(7)
O3 O -0.19377(12) 0.28684(12) -0.37813(7)
O4 O -0.38178(12) 0.11680(12) -0.29968(8)
O5 O -0.07924(10) 0.17652(10) -0.00473(9)
O6 O 0.18034(10) 0.07779(10) -0.00556(9)
O7 O -0.33056(12) 0.09739(10) 0.04113(8)
H1 H -0.2927(19) 0.0258(11) 0.0401(13)
H2 H -0.3647(18) 0.1034(17) 0.0932(7)
O8 O -0.09179(11) 0.32748(11) -0.53788(8)
H3 H -0.0846(18) 0.3510(19) -0.5922(6)
H4 H -0.0213(12) 0.2929(19) -0.5227(12)
O9 O -0.07866(12) 0.49202(10) -0.36726(8)
H5 H -0.1205(15) 0.4254(9) -0.3823(14)
H6 H -0.1301(14) 0.5527(10) -0.3801(14)
C1 C -0.26617(15) 0.21510(15) -0.19115(10)
C2 C -0.18391(15) 0.29343(14) -0.22756(10)
C3 C -0.22220(15) 0.25904(14) -0.30811(10)
C4 C -0.30590(15) 0.18186(14) -0.27175(10)
C5 C -0.03701(15) 0.07942(14) -0.00221(11)
C6 C 0.08123(14) 0.03576(14) -0.00246(12)
Mn1A Mn 0.2500 -0.2500 0.0000
Mn2G Mn 0.2500 0.2500 0.0000
Mn2F Mn -0.2500 -0.2500 0.0000
Mn2_2 Mn -0.2500 0.2500 0.5000
Mn3A Mn -0.5000 -0.00860(3) -0.2500
Mn3G Mn -0.5000 0.00860(3) 0.2500
Mn3F Mn 0.0000 0.50860(3) 0.2500
O1E O -0.20676(12) 0.31326(11) 0.12066(7)
O2E O -0.38819(12) 0.13805(11) 0.19979(7)
O2B O 0.11181(12) 0.36195(11) -0.30021(7)
O3E O -0.30623(12) 0.21316(12) 0.37813(7)
O3E_2 O -0.30623(12) 0.21316(12) -0.62187(7)
O4E O -0.11822(12) 0.38320(12) 0.29968(8)
O4C O -0.11822(12) 0.61680(12) -0.20032(8)
O4A O 0.11822(12) 0.61680(12) -0.29968(8)
O5D O 0.07924(10) -0.17652(10) 0.00473(9)
O5E O -0.42076(10) 0.32348(10) 0.00473(9)
O6D O -0.18034(10) -0.07779(10) 0.00556(9)
O6G O -0.31966(10) 0.42221(10) -0.50556(9)
O6B O -0.18034(10) 0.07779(10) -0.49444(9)
O7E O -0.16944(12) 0.40261(10) -0.04113(8)
H1E H -0.2073(19) 0.4742(11) -0.0401(13)
H2E H -0.1353(18) 0.3966(17) -0.0932(7)
O8E O -0.40821(11) 0.17252(11) -0.46212(8)
H3E H -0.4154(18) 0.1490(19) -0.4078(6)
H4E H -0.4787(12) 0.2071(19) -0.4773(12)
O9B O 0.07866(12) 0.49202(10) -0.13274(8)
H5B H 0.1205(15) 0.4254(9) -0.1177(14)
H6B H 0.1301(14) 0.5527(10) -0.1199(14)
C1E C -0.23383(15) 0.28490(15) 0.19115(10)
C2E C -0.31609(15) 0.20657(14) 0.22756(10)
C3E C -0.27780(15) 0.24096(14) 0.30811(10)
C4E C -0.19410(15) 0.31814(14) 0.27175(10)
C5D C 0.03701(15) -0.07942(14) 0.00221(11)
C6D C -0.08123(14) -0.03576(14) 0.00246(12)
loop_
_geom_bond_atom_site_label_1
_geom_bond_atom_site_label_2
_geom_bond_site_symmetry_1
_geom_bond_site_symmetry_2
Mn1 O1 1_555 1_555
Mn2 O3 1_555 1_555
Mn3 O2 1_555 1_555
O1 C1 1_555 1_555
O2 C2 1_555 1_555
O3 C3 1_555 1_555
O4 C4 1_555 1_555
O5 Mn1 1_555 1_555
O6 C6 1_555 1_555
O7 Mn1 1_555 1_555
H1 O7 1_555 1_555
H2 O7 1_555 1_555
O8 Mn2 1_555 1_555
H3 O8 1_555 1_555
H4 O8 1_555 1_555
O9 Mn3 1_555 1_555
H5 O9 1_555 1_555
H6 O9 1_555 1_555
C1 C2 1_555 1_555
C2 C3 1_555 1_555
C3 C4 1_555 1_555
C4 C1 1_555 1_555
C5 O5 1_555 1_555
C6 C5 1_555 1_555
Mn1A O5D 1_555 1_555
Mn2G O6 1_555 1_555
Mn2F O6D 1_555 1_555
Mn2_2 O3E 1_555 1_555
Mn3A O4 1_555 1_555
Mn3G O2E 1_555 1_555
Mn3F O4E 1_555 1_555
O1E Mn1 1_555 1_555
O2E C2E 1_555 1_555
O2B Mn3 1_555 1_555
O3E C3E 1_555 1_555
O3E_2 Mn2 1_555 1_555
O4E C4E 1_555 1_555
O4C Mn3 1_555 1_555
O4A Mn3 1_555 1_555
O5D C5D 1_555 1_555
O5E Mn1 1_555 1_555
O6D C6D 1_555 1_555
O6G Mn2 1_555 1_555
O6B Mn2 1_555 1_555
O7E Mn1 1_555 1_555
H1E O7E 1_555 1_555
H2E O7E 1_555 1_555
O8E Mn2 1_555 1_555
H3E O8E 1_555 1_555
H4E O8E 1_555 1_555
O9B Mn3 1_555 1_555
H5B O9B 1_555 1_555
H6B O9B 1_555 1_555
C1E O1E 1_555 1_555
C2E C1E 1_555 1_555
C3E C2E 1_555 1_555
C4E C1E 1_555 1_555
C5D C6 1_555 1_555
C6D C5 1_555 1_555
C3E C4E 1_555 1_555
C5D C6D 1_555 1_555

#END
