
#######################################################################
#
#                 Cambridge Crystallographic Data Centre
#                                CCDC 
#
#######################################################################
#
# If this CIF has been generated from an entry in the Cambridge 
# Structural Database, then it will include bibliographic, chemical, 
# crystal, experimental, refinement or atomic coordinate data resulting 
# from the CCDC's data processing and validation procedures.
#
#######################################################################

data_VORBUA
_symmetry_cell_setting           orthorhombic
_symmetry_space_group_name_H-M   'F d d d'
_symmetry_Int_Tables_number      70
_space_group_name_Hall           '-F 2uv 2vw'
loop_
_symmetry_equiv_pos_site_id
_symmetry_equiv_pos_as_xyz
1 x,y,z
2 1/4-x,1/4-y,z
3 x,1/4-y,1/4-z
4 1/4-x,y,1/4-z
5 x,1/2+y,1/2+z
6 1/2+x,y,1/2+z
7 1/2+x,1/2+y,z
8 1/4-x,3/4-y,1/2+z
9 x,3/4-y,3/4-z
10 1/4-x,1/2+y,3/4-z
11 3/4-x,1/4-y,1/2+z
12 1/2+x,1/4-y,3/4-z
13 3/4-x,y,3/4-z
14 3/4-x,3/4-y,z
15 1/2+x,3/4-y,1/4-z
16 3/4-x,1/2+y,1/4-z
17 -x,-y,-z
18 3/4+x,3/4+y,-z
19 -x,3/4+y,3/4+z
20 3/4+x,-y,3/4+z
21 -x,1/2-y,1/2-z
22 1/2-x,-y,1/2-z
23 1/2-x,1/2-y,-z
24 3/4+x,1/4+y,1/2-z
25 -x,1/4+y,1/4+z
26 3/4+x,1/2-y,1/4+z
27 1/4+x,3/4+y,1/2-z
28 1/2-x,3/4+y,1/4+z
29 1/4+x,-y,1/4+z
30 1/4+x,1/4+y,-z
31 1/2-x,1/4+y,3/4+z
32 1/4+x,1/2-y,3/4+z
_cell_length_a                   12.1763(2)
_cell_length_b                   13.3596(2)
_cell_length_c                   27.2064(6)
_cell_angle_alpha                90
_cell_angle_beta                 90
_cell_angle_gamma                90
_cell_volume                     4425.68
loop_
_atom_site_label
_atom_site_type_symbol
_atom_site_fract_x
_atom_site_fract_y
_atom_site_fract_z
La1 La 0.6250 0.1250 0.003858(10)
O1 O 0.4412(2) 0.21462(19) 0.03257(10)
C1 C 0.3788(3) 0.1391(3) 0.03239(12)
O2 O 0.4149(2) 0.05523(19) 0.01742(10)
C2 C 0.2621(3) 0.1477(3) 0.04934(18)
H1 H 0.2570 0.1988 0.0751
H2 H 0.2377 0.0831 0.0625
H3 H 0.2154 0.1667 0.0216
O3 O 0.6405(2) 0.2242(2) 0.08432(9)
C3 C 0.6250 0.1826(4) 0.1250
O4 O 0.5057(2) 0.14738(19) -0.07403(10)
H4 H 0.4624 0.0955 -0.0789
H5 H 0.5347 0.1567 -0.1044
La1CA La 0.8750 0.3750 -0.003858(10)
La1P La 0.3750 -0.1250 -0.003858(10)
La1B La 0.6250 0.1250 0.246142(10)
O1A O 0.8088(2) 0.03538(19) 0.03257(10)
O1CA O 0.6912(2) 0.46462(19) -0.03257(10)
O1P O 0.5588(2) -0.21462(19) -0.03257(10)
O1V O 1.0588(2) 0.28538(19) -0.03257(10)
C1A C 0.8712(3) 0.1109(3) 0.03239(12)
C1CA C 0.6288(3) 0.3891(3) -0.03239(12)
C1P C 0.6212(3) -0.1391(3) -0.03239(12)
O2A O 0.8351(2) 0.19477(19) 0.01742(10)
O2CA O 0.6649(2) 0.30523(19) -0.01742(10)
O2P O 0.5851(2) -0.05523(19) -0.01742(10)
O2V O 1.0851(2) 0.44477(19) -0.01742(10)
O2F O 0.9149(2) 0.55523(19) 0.01742(10)
C2A C 0.9879(3) 0.1023(3) 0.04934(18)
C2CA C 0.5121(3) 0.3977(3) -0.04934(18)
C2P C 0.7379(3) -0.1477(3) -0.04934(18)
H1A H 0.9930 0.0512 0.0751
H1CA H 0.5070 0.4488 -0.0751
H1P H 0.7430 -0.1988 -0.0751
H2A H 1.0123 0.1669 0.0625
H2CA H 0.4877 0.3331 -0.0625
H2P H 0.7623 -0.0831 -0.0625
H3A H 1.0346 0.0833 0.0216
H3CA H 0.4654 0.4167 -0.0216
H3P H 0.7846 -0.1667 -0.0216
O3C O 0.6095(2) 0.2242(2) 0.16568(9)
O3A O 0.6095(2) 0.0258(2) 0.08432(9)
O3B O 0.6405(2) 0.0258(2) 0.16568(9)
O3CA O 0.8905(2) 0.4742(2) -0.08432(9)
O3V O 0.8595(2) 0.2758(2) -0.08432(9)
C3A C 0.6250 0.0674(4) 0.1250
O4A O 0.7443(2) 0.10262(19) -0.07403(10)
O4CA O 0.7557(2) 0.39738(19) 0.07403(10)
O4V O 0.9943(2) 0.35262(19) 0.07403(10)
H4A H 0.7876 0.1545 -0.0789
H4CA H 0.7124 0.3455 0.0789
H4V H 1.0376 0.4045 0.0789
H5A H 0.7153 0.0933 -0.1044
H5CA H 0.7847 0.4067 0.1044
H5V H 0.9653 0.3433 0.1044
O5 O 0.3750 0.3750 0.08952(14)
H6 H 0.4001 0.3238 0.0712
H6M H 0.3499 0.4262 0.0712
loop_
_geom_bond_atom_site_label_1
_geom_bond_atom_site_label_2
_geom_bond_site_symmetry_1
_geom_bond_site_symmetry_2
La1 O1 1_555 1_555
O1 C1 1_555 1_555
C1 O2 1_555 1_555
O2 La1 1_555 1_555
C2 C1 1_555 1_555
H1 C2 1_555 1_555
H2 C2 1_555 1_555
H3 C2 1_555 1_555
O3 La1 1_555 1_555
C3 O3 1_555 1_555
O4 La1 1_555 1_555
H4 O4 1_555 1_555
H5 O4 1_555 1_555
O5 H6 1_555 1_555
La1CA O1CA 1_555 1_555
La1P O2 1_555 1_555
La1B O3C 1_555 1_555
O1A La1 1_555 1_555
O1CA C1CA 1_555 1_555
O1P La1P 1_555 1_555
O1V La1CA 1_555 1_555
C1A O1A 1_555 1_555
C1CA O2CA 1_555 1_555
C1P O1P 1_555 1_555
O2A La1 1_555 1_555
O2CA La1 1_555 1_555
O2P La1 1_555 1_555
O2V La1CA 1_555 1_555
O2F La1CA 1_555 1_555
C2A C1A 1_555 1_555
C2CA C1CA 1_555 1_555
C2P C1P 1_555 1_555
H1A C2A 1_555 1_555
H1CA C2CA 1_555 1_555
H1P C2P 1_555 1_555
H2A C2A 1_555 1_555
H2CA C2CA 1_555 1_555
H2P C2P 1_555 1_555
H3A C2A 1_555 1_555
H3CA C2CA 1_555 1_555
H3P C2P 1_555 1_555
O3C C3 1_555 1_555
O3A La1 1_555 1_555
O3B La1B 1_555 1_555
O3CA La1CA 1_555 1_555
O3V La1CA 1_555 1_555
C3A C3 1_555 1_555
O4A La1 1_555 1_555
O4CA La1CA 1_555 1_555
O4V La1CA 1_555 1_555
H4A O4A 1_555 1_555
H4CA O4CA 1_555 1_555
H4V O4V 1_555 1_555
H5A O4A 1_555 1_555
H5CA O4CA 1_555 1_555
H5V O4V 1_555 1_555
H6M O5 1_555 1_555
La1CA O2A 1_555 1_555
La1CA O2CA 1_555 1_555
La1P O2P 1_555 1_555
C1A O2A 1_555 1_555
C1P O2P 1_555 1_555
O3A C3A 1_555 1_555
O3B C3A 1_555 1_555

#END
