
#######################################################################
#
#                 Cambridge Crystallographic Data Centre
#                                CCDC 
#
#######################################################################
#
# If this CIF has been generated from an entry in the Cambridge 
# Structural Database, then it will include bibliographic, chemical, 
# crystal, experimental, refinement or atomic coordinate data resulting 
# from the CCDC's data processing and validation procedures.
#
#######################################################################

data_VORBAG
_symmetry_cell_setting           triclinic
_symmetry_space_group_name_H-M   'P -1'
_symmetry_Int_Tables_number      2
_space_group_name_Hall           '-P 1'
loop_
_symmetry_equiv_pos_site_id
_symmetry_equiv_pos_as_xyz
1 x,y,z
2 -x,-y,-z
_cell_length_a                   9.1011(2)
_cell_length_b                   13.1771(2)
_cell_length_c                   13.7172(3)
_cell_angle_alpha                67.3835(9)
_cell_angle_beta                 81.1791(9)
_cell_angle_gamma                84.8788(10)
_cell_volume                     1499.76
loop_
_atom_site_label
_atom_site_type_symbol
_atom_site_fract_x
_atom_site_fract_y
_atom_site_fract_z
La1 La 0.06077(3) 0.321951(19) 0.05849(2)
La2 La 0.73378(3) -0.04442(2) 0.01223(2)
O1 O -0.1532(4) 0.3784(3) 0.1782(3)
H1 H -0.1679 0.4441 0.1844
H2 H -0.2497 0.3607 0.1941
O2 O -0.1171(4) 0.1625(3) 0.1647(3)
H3 H -0.1079 0.0978 0.1562
H4 H -0.2113 0.1810 0.1508
O3 O 0.6926(4) 0.1471(3) 0.0142(3)
H5 H 0.7470 0.2077 -0.0188
H6 H 0.6128 0.1752 0.0438
O4 O 0.5853(4) -0.2191(3) 0.0809(3)
H7 H 0.5139 -0.2437 0.1357
H8 H 0.5918 -0.2671 0.0496
O5 O 0.2093(4) 0.1335(2) 0.1227(2)
O6 O 0.1638(4) 0.2158(2) 0.2368(3)
C1 C 0.2192(5) 0.1366(4) 0.2134(4)
C2 C 0.2958(5) 0.0450(4) 0.2933(4)
O7 O 0.2447(4) 0.0358(3) 0.3961(3)
C3 C 0.3327(6) -0.0467(4) 0.4596(4)
C4 C 0.3190(6) -0.0814(4) 0.5699(4)
H9 H 0.2453 -0.0515 0.6093
C5 C 0.4212(6) -0.1628(4) 0.6178(4)
H10 H 0.4168 -0.1907 0.6931
C6 C 0.5304(6) -0.2055(4) 0.5594(4)
H11 H 0.5992 -0.2605 0.5957
C7 C 0.5405(6) -0.1689(4) 0.4490(4)
H12 H 0.6149 -0.1982 0.4094
C8 C 0.4379(6) -0.0880(4) 0.3985(4)
C9 C 0.4115(5) -0.0281(4) 0.2890(4)
C10 C 0.5067(6) -0.0417(4) 0.1970(4)
O8 O 0.6313(5) -0.0865(4) 0.2116(3)
O9 O 0.4645(4) -0.0066(3) 0.1042(2)
O10 O 0.3369(4) 0.3562(3) 0.0274(3)
O11 O 0.5356(4) 0.2778(3) 0.1121(3)
C11 C 0.4298(5) 0.3472(4) 0.0910(4)
C12 C 0.4102(5) 0.4274(4) 0.1455(3)
O12 O 0.5151(4) 0.4155(3) 0.2130(3)
C13 C 0.4823(5) 0.4947(4) 0.2556(4)
C14 C 0.5562(6) 0.5084(4) 0.3302(4)
H13 H 0.6394 0.4628 0.3568
C15 C 0.5020(6) 0.5930(4) 0.3642(4)
H14 H 0.5497 0.6063 0.4149
C16 C 0.3772(6) 0.6594(4) 0.3248(4)
H15 H 0.3424 0.7163 0.3499
C17 C 0.3044(5) 0.6436(4) 0.2503(4)
H16 H 0.2203 0.6884 0.2242
C18 C 0.3591(5) 0.5591(4) 0.2147(4)
C19 C 0.3141(5) 0.5142(4) 0.1428(4)
C20 C 0.1897(5) 0.5609(4) 0.0805(4)
O13 O 0.1026(4) 0.4983(2) 0.0658(3)
O14 O 0.1640(4) 0.6629(3) 0.0458(3)
O15 O 0.1042(4) 0.2168(2) -0.0676(3)
O16 O 0.1452(3) 0.3949(2) -0.1493(3)
C21 C 0.1216(5) 0.3037(4) -0.1542(4)
C22 C 0.1070(5) 0.2876(4) -0.2517(4)
O17 O 0.1398(4) 0.3738(3) -0.3479(3)
C23 C 0.1011(6) 0.3386(4) -0.4222(4)
C24 C 0.1165(6) 0.3988(5) -0.5324(4)
H17 H 0.1579 0.4696 -0.5634
C25 C 0.0685(7) 0.3492(5) -0.5925(5)
H18 H 0.0769 0.3867 -0.6676
C26 C 0.0066(7) 0.2439(5) -0.5461(4)
H19 H -0.0256 0.2122 -0.5905
C27 C -0.0076(6) 0.1863(4) -0.4373(4)
H20 H -0.0498 0.1157 -0.4064
C28 C 0.0416(6) 0.2342(4) -0.3739(4)
C29 C 0.0477(5) 0.2017(4) -0.2612(4)
C30 C -0.0203(6) 0.1032(4) -0.1738(4)
O18 O 0.0587(5) 0.0263(3) -0.1143(3)
O19 O -0.1586(4) 0.1005(3) -0.1629(3)
La1A La -0.06077(3) 0.678049(19) -0.05849(2)
La2A La 0.26622(3) 0.04442(2) -0.01223(2)
La2_2 La -0.26622(3) -0.04442(2) 0.01223(2)
O5A O 0.7907(4) -0.1335(2) -0.1227(2)
O9A O 0.5355(4) 0.0066(3) -0.1042(2)
O13A O -0.1026(4) 0.5017(2) -0.0658(3)
O14A O -0.1640(4) 0.3371(3) -0.0458(3)
O15A O 0.8958(4) -0.2168(2) 0.0676(3)
O18A O 0.9413(5) -0.0263(3) 0.1143(3)
O19_2 O 0.8414(4) 0.1005(3) -0.1629(3)
loop_
_geom_bond_atom_site_label_1
_geom_bond_atom_site_label_2
_geom_bond_site_symmetry_1
_geom_bond_site_symmetry_2
La1 O1 1_555 1_555
La2 O3 1_555 1_555
O1 H1 1_555 1_555
H2 O1 1_555 1_555
O2 La1 1_555 1_555
H3 O2 1_555 1_555
H4 O2 1_555 1_555
O3 H5 1_555 1_555
H6 O3 1_555 1_555
O4 La2 1_555 1_555
H7 O4 1_555 1_555
H8 O4 1_555 1_555
O5 La1 1_555 1_555
O6 La1 1_555 1_555
C1 O5 1_555 1_555
C2 C1 1_555 1_555
O7 C2 1_555 1_555
C3 O7 1_555 1_555
C4 C3 1_555 1_555
H9 C4 1_555 1_555
C5 C4 1_555 1_555
H10 C5 1_555 1_555
C6 C5 1_555 1_555
H11 C6 1_555 1_555
C7 C6 1_555 1_555
H12 C7 1_555 1_555
C8 C3 1_555 1_555
C9 C2 1_555 1_555
C10 C9 1_555 1_555
O8 La2 1_555 1_555
O9 La2 1_555 1_555
O10 La1 1_555 1_555
O11 C11 1_555 1_555
C11 O10 1_555 1_555
C12 C11 1_555 1_555
O12 C12 1_555 1_555
C13 O12 1_555 1_555
C14 C13 1_555 1_555
H13 C14 1_555 1_555
C15 C14 1_555 1_555
H14 C15 1_555 1_555
C16 C15 1_555 1_555
H15 C16 1_555 1_555
C17 C16 1_555 1_555
H16 C17 1_555 1_555
C18 C13 1_555 1_555
C19 C12 1_555 1_555
C20 C19 1_555 1_555
O13 La1 1_555 1_555
O14 C20 1_555 1_555
O15 La1 1_555 1_555
O16 La1 1_555 1_555
C21 O15 1_555 1_555
C22 C21 1_555 1_555
O17 C22 1_555 1_555
C23 O17 1_555 1_555
C24 C23 1_555 1_555
H17 C24 1_555 1_555
C25 C24 1_555 1_555
H18 C25 1_555 1_555
C26 C25 1_555 1_555
H19 C26 1_555 1_555
C27 C26 1_555 1_555
H20 C27 1_555 1_555
C28 C23 1_555 1_555
C29 C22 1_555 1_555
C30 C29 1_555 1_555
O18 C30 1_555 1_555
O19 C30 1_555 1_555
La1A O13 1_555 1_555
La2A O5 1_555 1_555
La2_2 O19 1_555 1_555
O5A La2 1_555 1_555
O9A La2 1_555 1_555
O13A La1 1_555 1_555
O14A La1 1_555 1_555
O15A La2 1_555 1_555
O18A La2 1_555 1_555
O19_2 La2 1_555 1_555
O6 C1 1_555 1_555
C7 C8 1_555 1_555
C8 C9 1_555 1_555
C10 O8 1_555 1_555
C10 O9 1_555 1_555
O9 La2A 1_555 1_555
C17 C18 1_555 1_555
C18 C19 1_555 1_555
C20 O13 1_555 1_555
O14 La1A 1_555 1_555
O15 La2A 1_555 1_555
O16 C21 1_555 1_555
C27 C28 1_555 1_555
C28 C29 1_555 1_555
O18 La2A 1_555 1_555
La1A O13A 1_555 1_555
La2A O9A 1_555 1_555

#END
