
#######################################################################
#
#                 Cambridge Crystallographic Data Centre
#                                CCDC 
#
#######################################################################
#
# If this CIF has been generated from an entry in the Cambridge 
# Structural Database, then it will include bibliographic, chemical, 
# crystal, experimental, refinement or atomic coordinate data resulting 
# from the CCDC's data processing and validation procedures.
#
#######################################################################

data_VORBOU
_symmetry_cell_setting           monoclinic
_symmetry_space_group_name_H-M   'P 21/n'
_symmetry_Int_Tables_number      14
_space_group_name_Hall           '-P 2yn'
loop_
_symmetry_equiv_pos_site_id
_symmetry_equiv_pos_as_xyz
1 x,y,z
2 1/2-x,1/2+y,1/2-z
3 -x,-y,-z
4 1/2+x,1/2-y,1/2+z
_cell_length_a                   9.1139(2)
_cell_length_b                   8.3883(2)
_cell_length_c                   13.6994(4)
_cell_angle_alpha                90
_cell_angle_beta                 100.9688(10)
_cell_angle_gamma                90
_cell_volume                     1028.19
loop_
_atom_site_label
_atom_site_type_symbol
_atom_site_fract_x
_atom_site_fract_y
_atom_site_fract_z
La1 La 0.30520(3) 0.33651(3) -0.04385(2)
O1 O 0.4022(4) 0.2772(5) 0.1561(3)
O2 O 0.5078(4) 0.4798(4) 0.0949(3)
C1 C 0.5014(6) 0.3836(6) 0.1649(4)
C2 C 0.6154(6) 0.4057(6) 0.2595(4)
H1 H 0.6083 0.5182 0.2824
O3 O 0.5898(4) 0.3024(4) 0.3368(3)
H2 H 0.5193 0.3315 0.3710
C3 C 0.7755(6) 0.3786(6) 0.2406(4)
O4 O 0.8558(4) 0.2809(4) 0.2957(3)
O5 O 0.8170(4) 0.4608(4) 0.1740(3)
O6 O 0.3071(4) 0.0315(4) -0.0147(3)
C4 C 0.4269(6) -0.0459(6) -0.0006(4)
O7 O 0.4376(4) -0.1943(4) 0.0144(3)
O8 O 0.2067(4) 0.5965(5) 0.0347(3)
H3 H 0.2766 0.6733 0.0384
H4 H 0.2089 0.5677 0.0983
O9 O 0.0771(4) 0.2825(5) 0.0396(3)
H5 H -0.0047 0.3406 0.0160
H6 H 0.0944 0.1959 0.0787
La1C La -0.19480(3) 0.16349(3) -0.54385(2)
La1B La 0.69480(3) 0.66349(3) 0.04385(2)
La1C_2 La 0.80520(3) 0.16349(3) 0.45615(2)
La1B_2 La 0.69480(3) -0.33651(3) 0.04385(2)
La1A La 0.19480(3) -0.16349(3) -0.45615(2)
O1C O -0.0978(4) 0.2228(5) -0.3439(3)
O2C O 0.0078(4) 0.0202(4) -0.4051(3)
O2B O 0.4922(4) 0.5202(4) -0.0949(3)
O2A O -0.0078(4) -0.0202(4) -0.5949(3)
C1C C 0.0014(6) 0.1164(6) -0.3351(4)
C2C C 0.1154(6) 0.0943(6) -0.2405(4)
H1C H 0.1083 -0.0182 -0.2176
O3C O 0.0898(4) 0.1976(4) -0.1632(3)
O3_2 O -0.4102(4) 0.3024(4) -0.6632(3)
H2C H 0.0193 0.1685 -0.1290
H2_2 H -0.4807 0.3315 -0.6290
C3C C 0.2755(6) 0.1214(6) -0.2594(4)
O4C O 0.3558(4) 0.2191(4) -0.2043(3)
O4_2 O -0.1442(4) 0.2809(4) -0.7043(3)
O5C O 0.3170(4) 0.0392(4) -0.3260(3)
O5B O 0.1830(4) 0.5392(4) -0.1740(3)
O5A O -0.3170(4) -0.0392(4) -0.6740(3)
O6B O 0.6929(4) -0.0315(4) 0.0147(3)
O6C O -0.1929(4) 0.4685(4) -0.5147(3)
C4B C 0.5731(6) 0.0459(6) 0.0006(4)
O7B O 0.5624(4) 0.1943(4) -0.0144(3)
O7A O 0.0624(4) 0.3057(4) -0.5144(3)
O8C O -0.2933(4) -0.0965(5) -0.4653(3)
H3C H -0.2234 -0.1733 -0.4616
H4C H -0.2911 -0.0677 -0.4017
O9C O -0.4229(4) 0.2175(5) -0.4604(3)
H5C H -0.5047 0.1594 -0.4840
H6C H -0.4056 0.3041 -0.4213
O10 O 0.3650(5) 0.4703(5) 0.3760(3)
H7 H 0.3109 0.4605 0.4243
H8 H 0.3033 0.4524 0.3175
O11 O 0.3606(5) 0.0358(5) 0.2823(3)
H9 H 0.4348 -0.0315 0.2749
H10 H 0.3873 0.1195 0.2480
loop_
_geom_bond_atom_site_label_1
_geom_bond_atom_site_label_2
_geom_bond_site_symmetry_1
_geom_bond_site_symmetry_2
La1 O1 1_555 1_555
O1 C1 1_555 1_555
O2 La1 1_555 1_555
C1 O2 1_555 1_555
C2 C1 1_555 1_555
H1 C2 1_555 1_555
O3 C2 1_555 1_555
H2 O3 1_555 1_555
C3 C2 1_555 1_555
O4 C3 1_555 1_555
O5 C3 1_555 1_555
O6 La1 1_555 1_555
C4 O6 1_555 1_555
O7 C4 1_555 1_555
O8 La1 1_555 1_555
H3 O8 1_555 1_555
H4 O8 1_555 1_555
O9 La1 1_555 1_555
H5 O9 1_555 1_555
H6 O9 1_555 1_555
O10 H7 1_555 1_555
H8 O10 1_555 1_555
O11 H9 1_555 1_555
H10 O11 1_555 1_555
La1C O1C 1_555 1_555
La1B O2 1_555 1_555
La1C_2 O3 1_555 1_555
La1B_2 O7 1_555 1_555
La1A O2C 1_555 1_555
O1C C1C 1_555 1_555
O2C La1C 1_555 1_555
O2B La1 1_555 1_555
O2A La1C 1_555 1_555
C1C O2C 1_555 1_555
C2C C1C 1_555 1_555
H1C C2C 1_555 1_555
O3C La1 1_555 1_555
O3_2 La1C 1_555 1_555
H2C O3C 1_555 1_555
H2_2 O3_2 1_555 1_555
C3C C2C 1_555 1_555
O4C La1 1_555 1_555
O4_2 La1C 1_555 1_555
O5C La1A 1_555 1_555
O5B La1 1_555 1_555
O5A La1C 1_555 1_555
O6B La1B_2 1_555 1_555
O6C La1C 1_555 1_555
C4B C4 1_555 1_555
O7B La1 1_555 1_555
O7A La1C 1_555 1_555
O8C La1C 1_555 1_555
H3C O8C 1_555 1_555
H4C O8C 1_555 1_555
O9C La1C 1_555 1_555
H5C O9C 1_555 1_555
H6C O9C 1_555 1_555
O4 La1C_2 1_555 1_555
O5 La1B 1_555 1_555
La1B O2B 1_555 1_555
La1A O2A 1_555 1_555
C2C O3C 1_555 1_555
C3C O4C 1_555 1_555
C3C O5C 1_555 1_555
O6B C4B 1_555 1_555
C4B O7B 1_555 1_555

#END
