
#######################################################################
#
#                 Cambridge Crystallographic Data Centre
#                                CCDC 
#
#######################################################################
#
# If this CIF has been generated from an entry in the Cambridge 
# Structural Database, then it will include bibliographic, chemical, 
# crystal, experimental, refinement or atomic coordinate data resulting 
# from the CCDC's data processing and validation procedures.
#
#######################################################################

data_VORHUH
_symmetry_cell_setting           triclinic
_symmetry_space_group_name_H-M   'P -1'
_symmetry_Int_Tables_number      2
_space_group_name_Hall           '-P 1'
loop_
_symmetry_equiv_pos_site_id
_symmetry_equiv_pos_as_xyz
1 x,y,z
2 -x,-y,-z
_cell_length_a                   12.355(3)
_cell_length_b                   12.541(3)
_cell_length_c                   14.681(3)
_cell_angle_alpha                91.05(3)
_cell_angle_beta                 102.88(3)
_cell_angle_gamma                117.34(3)
_cell_volume                     1950.57
loop_
_atom_site_label
_atom_site_type_symbol
_atom_site_fract_x
_atom_site_fract_y
_atom_site_fract_z
Cu1 Cu 0.66818(3) 0.32124(3) 0.24625(3)
O1 O 1.2434(2) 0.62873(19) 0.42637(17)
O2 O 1.1260(2) 0.9212(2) 0.3756(2)
O3 O 0.5776(2) 0.3795(2) 0.3238(2)
H1 H 0.609(4) 0.4548(17) 0.333(3)
H2 H 0.4991(19) 0.355(4) 0.309(3)
O4 O 0.7239(2) 0.2446(2) 0.36625(18)
O5 O 0.8157(2) 0.2105(3) 0.26833(18)
O6 O 0.8183(3) 0.1362(3) 0.4009(2)
O7 O 0.6994(3) 0.3239(3) 0.1085(3)
O8 O 0.5728(4) 0.3946(4) 0.0977(4)
O9 O 0.6041(4) 0.3324(4) -0.0279(2)
O10 O 0.1925(2) -0.1388(2) -0.04825(18)
O11 O 0.2953(2) -0.2647(2) 0.23007(18)
N1 N 1.1859(2) 0.7761(2) 0.40166(19)
N2 N 0.8230(2) 0.4818(2) 0.29449(19)
N3 N 0.7868(3) 0.1953(2) 0.3450(2)
N4 N 0.5270(2) 0.1517(2) 0.19672(19)
N5 N 0.2406(2) -0.2044(2) 0.09065(19)
N6 N 0.6216(3) 0.3505(3) 0.0583(2)
C1 C 1.5003(3) 0.7999(3) 0.5040(3)
H3 H 1.4794 0.7167 0.4991
C2 C 1.4080(3) 0.8321(3) 0.4722(2)
C3 C 1.2753(3) 0.7364(3) 0.4329(2)
C4 C 1.4364(3) 0.9552(3) 0.4797(2)
C5 C 1.3435(3) 0.9901(3) 0.4485(2)
C6 C 1.3741(3) 1.1108(3) 0.4563(3)
H4 H 1.3104 1.1337 0.4349
C7 C 1.2101(3) 0.8971(3) 0.4059(2)
C8 C 0.9977(3) 0.6608(3) 0.2707(2)
H5 H 1.0354 0.7147 0.2290
C9 C 1.0573(3) 0.6820(3) 0.3651(2)
C10 C 0.9941(3) 0.6093(3) 0.4252(2)
H6 H 1.0307 0.6266 0.4914
C11 C 0.8767(3) 0.5109(3) 0.3874(2)
H7 H 0.8324 0.4620 0.4290
C12 C 0.8812(3) 0.5588(3) 0.2379(2)
H8 H 0.8407 0.5426 0.1723
C13 C 0.4166(4) 0.1078(3) 0.2191(3)
H9 H 0.4040 0.1589 0.2594
C14 C 0.3200(3) -0.0091(3) 0.1860(3)
H10 H 0.2422 -0.0376 0.2027
C15 C 0.3391(3) -0.0828(3) 0.1285(2)
C16 C 0.4535(3) -0.0397(3) 0.1070(2)
H11 H 0.4692 -0.0901 0.0686
C17 C 0.5449(3) 0.0778(3) 0.1423(2)
H12 H 0.6238 0.1075 0.1274
C18 C 0.1703(3) -0.2232(3) -0.0030(2)
C19 C 0.0700(3) -0.3492(3) -0.0407(2)
C20 C 0.0494(3) -0.4403(3) 0.0177(2)
C21 C -0.0024(3) -0.3752(3) -0.1324(2)
H13 H 0.0139 -0.3130 -0.1715
C22 C 0.1002(3) -0.5067(3) 0.1684(2)
H14 H 0.1497 -0.4891 0.2318
C23 C 0.1242(3) -0.4165(3) 0.1116(2)
C24 C 0.2269(3) -0.2920(3) 0.1509(2)
O1A O 1.7566(2) 1.37127(19) 0.57363(17)
O2A O 1.8740(2) 1.0788(2) 0.6244(2)
N1A N 1.8141(2) 1.2239(2) 0.59834(19)
N2A N 2.1770(2) 1.5182(2) 0.70551(19)
C1A C 1.4997(3) 1.2001(3) 0.4960(3)
H3A H 1.5206 1.2833 0.5009
C2A C 1.5920(3) 1.1679(3) 0.5278(2)
C3A C 1.7247(3) 1.2636(3) 0.5671(2)
C4A C 1.5636(3) 1.0448(3) 0.5203(2)
C5A C 1.6565(3) 1.0099(3) 0.5515(2)
C6A C 1.6259(3) 0.8892(3) 0.5437(3)
H4A H 1.6896 0.8663 0.5651
C7A C 1.7899(3) 1.1029(3) 0.5941(2)
C8A C 2.0023(3) 1.3392(3) 0.7293(2)
H5A H 1.9646 1.2853 0.7710
C9A C 1.9427(3) 1.3180(3) 0.6349(2)
C10A C 2.0059(3) 1.3907(3) 0.5748(2)
H6A H 1.9693 1.3734 0.5086
C11A C 2.1233(3) 1.4891(3) 0.6126(2)
H7A H 2.1676 1.5380 0.5710
C12A C 2.1188(3) 1.4412(3) 0.7621(2)
H8A H 2.1593 1.4574 0.8277
O10A O -0.1925(2) -0.8612(2) 0.04825(18)
O11A O -0.2953(2) -0.7353(2) -0.23007(18)
N4A N -0.5270(2) -1.1517(2) -0.19672(19)
N5A N -0.2406(2) -0.7956(2) -0.09065(19)
C13A C -0.4166(4) -1.1078(3) -0.2191(3)
H9A H -0.4040 -1.1589 -0.2594
C14A C -0.3200(3) -0.9909(3) -0.1860(3)
H10A H -0.2422 -0.9624 -0.2027
C15A C -0.3391(3) -0.9172(3) -0.1285(2)
C16A C -0.4535(3) -0.9603(3) -0.1070(2)
H11A H -0.4692 -0.9099 -0.0686
C17A C -0.5449(3) -1.0778(3) -0.1423(2)
H12A H -0.6238 -1.1075 -0.1274
C18A C -0.1703(3) -0.7768(3) 0.0030(2)
C19A C -0.0700(3) -0.6508(3) 0.0407(2)
C20A C -0.0494(3) -0.5597(3) -0.0177(2)
C21A C 0.0024(3) -0.6248(3) 0.1324(2)
H13A H -0.0139 -0.6870 0.1715
C22A C -0.1002(3) -0.4933(3) -0.1684(2)
H14A H -0.1497 -0.5109 -0.2318
C23A C -0.1242(3) -0.5835(3) -0.1116(2)
C24A C -0.2269(3) -0.7080(3) -0.1509(2)
Cu1A Cu -0.66818(3) -1.32124(3) -0.24625(3)
O3A O -0.5776(2) -1.3795(2) -0.3238(2)
H1A H -0.609(4) -1.4548(17) -0.333(3)
H2A H -0.4991(19) -1.355(4) -0.309(3)
O4A O -0.7239(2) -1.2446(2) -0.36625(18)
O5A O -0.8157(2) -1.2105(3) -0.26833(18)
O6A O -0.8183(3) -1.1362(3) -0.4009(2)
O7A O -0.6994(3) -1.3239(3) -0.1085(3)
O8A O -0.5728(4) -1.3946(4) -0.0977(4)
O9A O -0.6041(4) -1.3324(4) 0.0279(2)
N3A N -0.7868(3) -1.1953(2) -0.3450(2)
N6A N -0.6216(3) -1.3505(3) -0.0583(2)
Cu1A_2 Cu 2.33182(3) 1.67876(3) 0.75375(3)
N2A_2 N -0.8230(2) -1.4818(2) -0.29449(19)
O12 O 0.3280(3) 0.2932(3) 0.2897(3)
N7 N 0.1662(3) 0.2734(4) 0.3447(3)
C25 C 0.3671(5) 0.4470(5) 0.4100(4)
H15 H 0.4546 0.4796 0.4064
H16 H 0.3624 0.4308 0.4744
H17 H 0.3376 0.5062 0.3930
C26 C 0.2858(4) 0.3321(4) 0.3432(3)
C27 C 0.0826(4) 0.1603(4) 0.2813(4)
H18 H 0.1102 0.1637 0.2233
H19 H -0.0038 0.1486 0.2657
H20 H 0.0852 0.0926 0.3122
C28 C 0.1123(5) 0.3146(5) 0.4070(4)
H21 H 0.1750 0.3536 0.4677
H22 H 0.0376 0.2451 0.4172
H23 H 0.0881 0.3730 0.3782
O13 O 0.6785(3) 0.6202(2) 0.3576(2)
N8 N 0.6956(4) 0.7965(3) 0.3182(4)
C29 C 0.5082(6) 0.6115(5) 0.2341(4)
H24 H 0.4740 0.5237 0.2332
H25 H 0.5192 0.6325 0.1716
H26 H 0.4496 0.6363 0.2504
C30 C 0.6346(4) 0.6764(4) 0.3068(3)
C31 C 0.8179(5) 0.8616(4) 0.3895(5)
H27 H 0.8112 0.8267 0.4485
H28 H 0.8407 0.9475 0.4008
H29 H 0.8831 0.8540 0.3666
C32 C 0.6433(8) 0.8710(6) 0.2676(7)
H30 H 0.5715 0.8196 0.2144
H31 H 0.7087 0.9357 0.2442
H32 H 0.6151 0.9069 0.3110
O14 O 0.9692(4) 0.7627(5) 0.0808(3)
N9 N 0.8270(7) 0.8244(7) 0.0494(7)
C33 C 0.7572(7) 0.6376(6) -0.0302(6)
H33 H 0.6825 0.6007 -0.0055
H34 H 0.7884 0.5794 -0.0359
H35 H 0.7347 0.6604 -0.0923
C34 C 0.8567(8) 0.7470(7) 0.0350(5)
C35 C 0.9377(14) 0.9407(13) 0.1089(15)
H36 H 0.9683 0.9227 0.1711
H37 H 0.9097 1.0011 0.1163
H38 H 1.0061 0.9728 0.0772
C36 C 0.7107(10) 0.8253(9) 0.0033(12)
H39 H 0.7091 0.8373 -0.0627
H40 H 0.7059 0.8914 0.0357
H41 H 0.6385 0.7478 0.0057
loop_
_geom_bond_atom_site_label_1
_geom_bond_atom_site_label_2
_geom_bond_site_symmetry_1
_geom_bond_site_symmetry_2
Cu1 O3 1_555 1_555
O1 C3 1_555 1_555
O2 C7 1_555 1_555
O3 H1 1_555 1_555
H2 O3 1_555 1_555
O4 Cu1 1_555 1_555
O5 Cu1 1_555 1_555
O6 N3 1_555 1_555
O7 Cu1 1_555 1_555
O8 Cu1 1_555 1_555
O9 N6 1_555 1_555
O10 C18 1_555 1_555
O11 C24 1_555 1_555
N1 C3 1_555 1_555
N2 Cu1 1_555 1_555
N3 O4 1_555 1_555
N4 Cu1 1_555 1_555
N5 C15 1_555 1_555
N6 O7 1_555 1_555
C1 H3 1_555 1_555
C2 C1 1_555 1_555
C3 C2 1_555 1_555
C4 C2 1_555 1_555
C5 C4 1_555 1_555
C6 C5 1_555 1_555
H4 C6 1_555 1_555
C7 N1 1_555 1_555
C8 H5 1_555 1_555
C9 N1 1_555 1_555
C10 C9 1_555 1_555
H6 C10 1_555 1_555
C11 N2 1_555 1_555
H7 C11 1_555 1_555
C12 N2 1_555 1_555
H8 C12 1_555 1_555
C13 N4 1_555 1_555
H9 C13 1_555 1_555
C14 C13 1_555 1_555
H10 C14 1_555 1_555
C15 C14 1_555 1_555
C16 C15 1_555 1_555
H11 C16 1_555 1_555
C17 N4 1_555 1_555
H12 C17 1_555 1_555
C18 N5 1_555 1_555
C19 C18 1_555 1_555
C20 C19 1_555 1_555
C21 C19 1_555 1_555
H13 C21 1_555 1_555
C22 H14 1_555 1_555
C23 C20 1_555 1_555
C24 N5 1_555 1_555
O12 C26 1_555 1_555
N7 C26 1_555 1_555
C25 H15 1_555 1_555
H16 C25 1_555 1_555
H17 C25 1_555 1_555
C26 C25 1_555 1_555
C27 N7 1_555 1_555
H18 C27 1_555 1_555
H19 C27 1_555 1_555
H20 C27 1_555 1_555
C28 N7 1_555 1_555
H21 C28 1_555 1_555
H22 C28 1_555 1_555
H23 C28 1_555 1_555
O13 C30 1_555 1_555
N8 C30 1_555 1_555
C29 H24 1_555 1_555
H25 C29 1_555 1_555
H26 C29 1_555 1_555
C30 C29 1_555 1_555
C31 N8 1_555 1_555
H27 C31 1_555 1_555
H28 C31 1_555 1_555
H29 C31 1_555 1_555
C32 N8 1_555 1_555
H30 C32 1_555 1_555
H31 C32 1_555 1_555
H32 C32 1_555 1_555
O14 C34 1_555 1_555
N9 C34 1_555 1_555
C33 H33 1_555 1_555
H34 C33 1_555 1_555
H35 C33 1_555 1_555
C34 C33 1_555 1_555
C35 N9 1_555 1_555
H36 C35 1_555 1_555
H37 C35 1_555 1_555
H38 C35 1_555 1_555
C36 N9 1_555 1_555
H39 C36 1_555 1_555
H40 C36 1_555 1_555
H41 C36 1_555 1_555
O1A C3A 1_555 1_555
O2A C7A 1_555 1_555
N1A C3A 1_555 1_555
N2A C11A 1_555 1_555
C1A C6 1_555 1_555
H3A C1A 1_555 1_555
C2A C1A 1_555 1_555
C3A C2A 1_555 1_555
C4A C4 1_555 1_555
C5A C4A 1_555 1_555
C6A C1 1_555 1_555
H4A C6A 1_555 1_555
C7A N1A 1_555 1_555
C8A H5A 1_555 1_555
C9A N1A 1_555 1_555
C10A C9A 1_555 1_555
H6A C10A 1_555 1_555
C11A C10A 1_555 1_555
H7A C11A 1_555 1_555
C12A N2A 1_555 1_555
H8A C12A 1_555 1_555
O10A C18A 1_555 1_555
O11A C24A 1_555 1_555
N4A C13A 1_555 1_555
N5A C15A 1_555 1_555
C13A H9A 1_555 1_555
C14A C13A 1_555 1_555
H10A C14A 1_555 1_555
C15A C14A 1_555 1_555
C16A C15A 1_555 1_555
H11A C16A 1_555 1_555
C17A N4A 1_555 1_555
H12A C17A 1_555 1_555
C18A N5A 1_555 1_555
C19A C18A 1_555 1_555
C20A C20 1_555 1_555
C21A C22 1_555 1_555
H13A C21A 1_555 1_555
C22A C21 1_555 1_555
H14A C22A 1_555 1_555
C23A C20A 1_555 1_555
C24A N5A 1_555 1_555
Cu1A N4A 1_555 1_555
O3A Cu1A 1_555 1_555
H1A O3A 1_555 1_555
H2A O3A 1_555 1_555
O4A Cu1A 1_555 1_555
O5A Cu1A 1_555 1_555
O6A N3A 1_555 1_555
O7A Cu1A 1_555 1_555
O8A Cu1A 1_555 1_555
O9A N6A 1_555 1_555
N3A O4A 1_555 1_555
N6A O7A 1_555 1_555
Cu1A_2 N2A 1_555 1_555
N2A_2 Cu1A 1_555 1_555
O5 N3 1_555 1_555
O8 N6 1_555 1_555
C5 C7 1_555 1_555
C8 C9 1_555 1_555
C8 C12 1_555 1_555
C10 C11 1_555 1_555
C16 C17 1_555 1_555
C22 C23 1_555 1_555
C23 C24 1_555 1_555
C2A C4A 1_555 1_555
C5A C6A 1_555 1_555
C5A C7A 1_555 1_555
C8A C9A 1_555 1_555
C8A C12A 1_555 1_555
C16A C17A 1_555 1_555
C19A C20A 1_555 1_555
C19A C21A 1_555 1_555
C22A C23A 1_555 1_555
C23A C24A 1_555 1_555
O5A N3A 1_555 1_555
O8A N6A 1_555 1_555

#END
