
#######################################################################
#
#                 Cambridge Crystallographic Data Centre
#                                CCDC 
#
#######################################################################
#
# If this CIF has been generated from an entry in the Cambridge 
# Structural Database, then it will include bibliographic, chemical, 
# crystal, experimental, refinement or atomic coordinate data resulting 
# from the CCDC's data processing and validation procedures.
#
#######################################################################

data_VORKUK
_symmetry_cell_setting           monoclinic
_symmetry_space_group_name_H-M   'P 21/c'
_symmetry_Int_Tables_number      14
_space_group_name_Hall           '-P 2ybc'
loop_
_symmetry_equiv_pos_site_id
_symmetry_equiv_pos_as_xyz
1 x,y,z
2 -x,1/2+y,1/2-z
3 -x,-y,-z
4 x,1/2-y,1/2+z
_cell_length_a                   6.01905(14)
_cell_length_b                   10.06703(22)
_cell_length_c                   14.94364(28)
_cell_angle_alpha                90
_cell_angle_beta                 97.1544(22)
_cell_angle_gamma                90
_cell_volume                     898.444
loop_
_atom_site_label
_atom_site_type_symbol
_atom_site_fract_x
_atom_site_fract_y
_atom_site_fract_z
Cu1 Cu 0.21544(68) 0.25404(45) 0.65685(26)
Cu2 Cu 0.39551(66) 0.11985(28) 0.83851(22)
C1 C 0.86933(79) -0.12221(79) 0.67870(26)
C2 C 1.0164(10) -0.06035(88) 0.75977(34)
O1 O 0.6905(15) -0.19287(92) 0.71039(48)
O2 O 0.9802(20) -0.08742(88) 0.83829(28)
O3 O 1.17195(79) 0.0169(11) 0.74704(59)
C3 C 0.7525(13) -0.00941(87) 0.61988(41)
C4 C 1.01960(84) -0.20492(93) 0.62263(31)
C5 C 0.6030(14) 0.0677(12) 0.67515(61)
C6 C 0.87997(91) -0.25361(87) 0.53803(26)
O4 O 0.6387(13) 0.0650(13) 0.75934(60)
O5 O 0.4434(21) 0.1341(15) 0.63671(83)
O6 O 0.9283(16) -0.2195(10) 0.46238(27)
O7 O 0.7161(12) -0.32804(98) 0.54364(51)
H1 H 0.8658(19) 0.04883(88) 0.60057(50)
H2 H 0.6639(15) -0.0482(10) 0.56773(43)
H3 H 1.14039(78) -0.1492(12) 0.60693(53)
H4 H 1.0804(16) -0.2799(10) 0.65840(38)
O8 O 0.4533(37) -0.0668(14) 0.89365(91)
H5 H 0.451(65) -0.153(26) 0.878(11)
H6 H 0.560(48) -0.0617(71) 0.9413(51)
Cu1B Cu 0.78456(68) -0.25404(45) 0.34315(26)
Cu1A Cu 0.78456(68) -0.24596(45) 0.84315(26)
Cu1_2 Cu 1.21544(68) 0.25404(45) 0.65685(26)
Cu2A Cu 0.60449(66) -0.38015(28) 0.66149(22)
Cu2_2 Cu 1.39551(66) 0.11985(28) 0.83851(22)
O1A O 0.3095(15) 0.30713(92) 0.78961(48)
O2A O 0.0198(20) 0.41258(88) 0.66171(28)
O3_2 O 0.17195(79) 0.0169(11) 0.74704(59)
O6B O 0.0717(16) 0.2195(10) 0.53762(27)
O7A O 0.2839(12) 0.17196(98) 0.95636(51)
loop_
_geom_bond_atom_site_label_1
_geom_bond_atom_site_label_2
_geom_bond_site_symmetry_1
_geom_bond_site_symmetry_2
Cu1 O5 1_555 1_555
Cu2 O4 1_555 1_555
C1 C2 1_555 1_555
C2 O2 1_555 1_555
O1 C1 1_555 1_555
O2 Cu1A 1_555 1_555
O3 C2 1_555 1_555
C3 C1 1_555 1_555
C4 C1 1_555 1_555
C5 C3 1_555 1_555
C6 C4 1_555 1_555
O4 C5 1_555 1_555
O5 C5 1_555 1_555
O6 C6 1_555 1_555
O7 C6 1_555 1_555
H1 C3 1_555 1_555
H2 C3 1_555 1_555
H3 C4 1_555 1_555
H4 C4 1_555 1_555
O8 Cu2 1_555 1_555
H5 O8 1_555 1_555
H6 O8 1_555 1_555
Cu1B O6 1_555 1_555
Cu1A O1 1_555 1_555
Cu1_2 O3 1_555 1_555
Cu2A O1 1_555 1_555
Cu2_2 O3 1_555 1_555
O1A Cu1 1_555 1_555
O2A Cu1 1_555 1_555
O3_2 Cu1 1_555 1_555
O6B Cu1 1_555 1_555
O7A Cu2 1_555 1_555
Cu2 O1A 1_555 1_555
Cu2 O3_2 1_555 1_555
O7 Cu2A 1_555 1_555

#END
