
#######################################################################
#
#                 Cambridge Crystallographic Data Centre
#                                CCDC 
#
#######################################################################
#
# If this CIF has been generated from an entry in the Cambridge 
# Structural Database, then it will include bibliographic, chemical, 
# crystal, experimental, refinement or atomic coordinate data resulting 
# from the CCDC's data processing and validation procedures.
#
#######################################################################

data_VORNAR24
_symmetry_cell_setting           monoclinic
_symmetry_space_group_name_H-M   'P 21'
_symmetry_Int_Tables_number      4
_space_group_name_Hall           'P 2yb'
loop_
_symmetry_equiv_pos_site_id
_symmetry_equiv_pos_as_xyz
1 x,y,z
2 -x,1/2+y,-z
_cell_length_a                   15.947(2)
_cell_length_b                   8.5931(11)
_cell_length_c                   12.7978(17)
_cell_angle_alpha                90
_cell_angle_beta                 111.133(2)
_cell_angle_gamma                90
_cell_volume                     1635.79
loop_
_atom_site_label
_atom_site_type_symbol
_atom_site_fract_x
_atom_site_fract_y
_atom_site_fract_z
Cu1 Cu 0.01014(6) -0.15960(14) 0.40832(9)
C1 C 0.0126(5) -0.3592(10) 0.4671(7)
N1 N 0.0149(4) -0.0648(9) 0.2728(6)
N2 N -0.0131(4) 0.0259(8) 0.4886(6)
C2 C 0.0123(5) 0.0202(10) 0.1982(8)
N3 N 0.0074(4) 0.1027(9) 0.1101(6)
C3 C 0.0016(5) 0.2519(11) 0.1217(8)
N4 N -0.0074(6) 0.3812(13) 0.1157(9)
C1A C -0.0126(5) 0.1408(10) 0.5329(7)
Cu1A Cu -0.01014(6) 0.34040(14) 0.59168(9)
C4 C 0.4671(4) 0.6241(10) 0.1486(6)
C5 C 0.5411(4) 0.6268(10) 0.1200(6)
C6 C 0.3457(5) 0.7045(9) 0.2280(6)
C7 C 0.3075(5) 0.5935(10) 0.1502(6)
C8 C 0.6981(5) 0.6933(9) 0.1156(6)
C9 C 0.6679(5) 0.5721(10) 0.0447(6)
C10 C 0.1950(5) 0.7059(11) 0.2803(7)
H1 H 0.2090 0.6050 0.3219
H2 H 0.1560 0.7675 0.3112
C11 C 0.1429(5) 0.6723(10) 0.1604(7)
H3 H 0.1346 0.7713 0.1168
H4 H 0.0819 0.6334 0.1532
C12 C 0.8611(5) 0.6862(9) 0.0788(6)
H5 H 0.9071 0.7571 0.0681
H6 H 0.8938 0.5974 0.1268
C13 C 0.8019(5) 0.6230(11) -0.0346(6)
H7 H 0.8415 0.5803 -0.0731
H8 H 0.7670 0.7113 -0.0810
S1 S 0.45749(12) 0.7498(2) 0.25101(16)
S2 S 0.37491(11) 0.5050(2) 0.08612(16)
S3 S 0.62658(12) 0.7620(2) 0.18013(16)
S4 S 0.55999(12) 0.5019(2) 0.02415(16)
S5 S 0.29889(13) 0.8109(3) 0.30808(18)
S6 S 0.19582(13) 0.5308(3) 0.1006(2)
S7 S 0.80013(12) 0.7922(2) 0.15256(17)
S8 S 0.72457(13) 0.4743(3) -0.03016(18)
C14 C 0.4631(4) 0.3434(11) 0.3723(5)
C15 C 0.5381(4) 0.3431(11) 0.3449(5)
C16 C 0.3445(4) 0.3908(9) 0.4622(6)
C17 C 0.3110(4) 0.2766(9) 0.3881(6)
C18 C 0.6991(4) 0.3743(9) 0.3477(6)
C19 C 0.6610(4) 0.2681(9) 0.2688(6)
C20 C 0.2073(4) 0.3449(11) 0.5388(5)
H9 H 0.2339 0.2481 0.5812
H10 H 0.1675 0.3924 0.5753
C21 C 0.1503(4) 0.3008(10) 0.4197(6)
H11 H 0.1315 0.3976 0.3738
H12 H 0.0947 0.2470 0.4196
C22 C 0.8432(5) 0.3795(9) 0.2838(6)
H13 H 0.8104 0.4474 0.2183
H14 H 0.9089 0.4000 0.3047
C23 C 0.8248(5) 0.2107(10) 0.2479(7)
H15 H 0.8541 0.1428 0.3146
H16 H 0.8535 0.1875 0.1919
S9 S 0.44973(11) 0.4645(2) 0.47460(16)
S10 S 0.37536(12) 0.2155(2) 0.30932(17)
S11 S 0.63048(11) 0.4634(2) 0.41066(15)
S12 S 0.54700(12) 0.2258(2) 0.23928(16)
S13 S 0.29660(13) 0.4789(3) 0.54942(17)
S14 S 0.20915(12) 0.1745(2) 0.35557(17)
S15 S 0.81078(11) 0.4343(2) 0.39913(16)
S16 S 0.70712(13) 0.1601(3) 0.18756(18)
loop_
_geom_bond_atom_site_label_1
_geom_bond_atom_site_label_2
_geom_bond_site_symmetry_1
_geom_bond_site_symmetry_2
Cu1 C1 1_555 1_555
N1 Cu1 1_555 1_555
N2 Cu1 1_555 1_555
C2 N1 1_555 1_555
N3 C2 1_555 1_555
C3 N3 1_555 1_555
N4 C3 1_555 1_555
C4 C5 1_555 1_555
C5 S3 1_555 1_555
C6 C7 1_555 1_555
C7 S2 1_555 1_555
C8 C9 1_555 1_555
C9 S4 1_555 1_555
C10 H1 1_555 1_555
H2 C10 1_555 1_555
C11 C10 1_555 1_555
H3 C11 1_555 1_555
H4 C11 1_555 1_555
C12 H5 1_555 1_555
H6 C12 1_555 1_555
C13 C12 1_555 1_555
H7 C13 1_555 1_555
H8 C13 1_555 1_555
S1 C4 1_555 1_555
S2 C4 1_555 1_555
S3 C8 1_555 1_555
S4 C5 1_555 1_555
S5 C6 1_555 1_555
S6 C7 1_555 1_555
S7 C8 1_555 1_555
S8 C9 1_555 1_555
C14 C15 1_555 1_555
C15 S11 1_555 1_555
C16 C17 1_555 1_555
C17 S10 1_555 1_555
C18 C19 1_555 1_555
C19 S12 1_555 1_555
C20 H9 1_555 1_555
H10 C20 1_555 1_555
C21 C20 1_555 1_555
H11 C21 1_555 1_555
H12 C21 1_555 1_555
C22 H13 1_555 1_555
H14 C22 1_555 1_555
C23 C22 1_555 1_555
H15 C23 1_555 1_555
H16 C23 1_555 1_555
S9 C14 1_555 1_555
S10 C14 1_555 1_555
S11 C18 1_555 1_555
S12 C15 1_555 1_555
S13 C16 1_555 1_555
S14 C17 1_555 1_555
S15 C18 1_555 1_555
S16 C19 1_555 1_555
C1A N2 1_555 1_555
Cu1A C1A 1_555 1_555
C6 S1 1_555 1_555
C10 S5 1_555 1_555
C11 S6 1_555 1_555
C12 S7 1_555 1_555
C13 S8 1_555 1_555
C16 S9 1_555 1_555
C20 S13 1_555 1_555
C21 S14 1_555 1_555
C22 S15 1_555 1_555
C23 S16 1_555 1_555

#END
