
#######################################################################
#
#                 Cambridge Crystallographic Data Centre
#                                CCDC 
#
#######################################################################
#
# If this CIF has been generated from an entry in the Cambridge 
# Structural Database, then it will include bibliographic, chemical, 
# crystal, experimental, refinement or atomic coordinate data resulting 
# from the CCDC's data processing and validation procedures.
#
#######################################################################

data_VORNAR26
_symmetry_cell_setting           monoclinic
_symmetry_space_group_name_H-M   'P 21'
_symmetry_Int_Tables_number      4
_space_group_name_Hall           'P 2yb'
loop_
_symmetry_equiv_pos_site_id
_symmetry_equiv_pos_as_xyz
1 x,y,z
2 -x,1/2+y,-z
_cell_length_a                   15.975(3)
_cell_length_b                   8.6198(15)
_cell_length_c                   12.885(2)
_cell_angle_alpha                90
_cell_angle_beta                 110.882(2)
_cell_angle_gamma                90
_cell_volume                     1657.74
loop_
_atom_site_label
_atom_site_type_symbol
_atom_site_fract_x
_atom_site_fract_y
_atom_site_fract_z
Cu1 Cu 0.00981(7) -0.15678(16) 0.40983(11)
C1 C 0.0121(6) -0.3554(11) 0.4671(8)
N1 N 0.0145(5) -0.0621(11) 0.2742(7)
N2 N -0.0121(4) 0.0294(9) 0.4903(7)
C2 C 0.0109(5) 0.0223(12) 0.1993(9)
N3 N 0.0067(5) 0.0999(11) 0.1122(7)
C3 C 0.0004(6) 0.2500(14) 0.1206(9)
N4 N -0.0073(7) 0.3761(16) 0.1113(11)
C1A C -0.0121(6) 0.1446(11) 0.5329(8)
Cu1A Cu -0.00981(7) 0.34322(16) 0.59017(11)
C4 C 0.4670(5) 0.6244(11) 0.1490(6)
C5 C 0.5419(5) 0.6280(11) 0.1219(6)
C6 C 0.3462(5) 0.7044(10) 0.2275(7)
C7 C 0.3074(5) 0.5942(11) 0.1504(7)
C8 C 0.6974(5) 0.6944(10) 0.1146(7)
C9 C 0.6672(5) 0.5740(11) 0.0438(7)
C10 C 0.1949(6) 0.7077(13) 0.2778(9)
H1 H 0.2082 0.6086 0.3209
H2 H 0.1557 0.7711 0.3071
C11 C 0.1433(6) 0.6697(12) 0.1623(9)
H3 H 0.1321 0.7672 0.1173
H4 H 0.0839 0.6272 0.1577
C12 C 0.8604(5) 0.6852(11) 0.0790(7)
H5 H 0.9067 0.7555 0.0689
H6 H 0.8924 0.5962 0.1263
C13 C 0.8018(6) 0.6232(12) -0.0338(7)
H7 H 0.8415 0.5795 -0.0715
H8 H 0.7681 0.7120 -0.0799
S1 S 0.45749(14) 0.7504(3) 0.25055(19)
S2 S 0.37554(13) 0.5073(3) 0.08705(18)
S3 S 0.62698(14) 0.7603(3) 0.18076(19)
S4 S 0.55986(14) 0.5035(2) 0.02520(18)
S5 S 0.29905(16) 0.8107(3) 0.3075(2)
S6 S 0.19730(16) 0.5313(3) 0.1023(3)
S7 S 0.79943(14) 0.7906(3) 0.1515(2)
S8 S 0.72283(16) 0.4769(3) -0.0313(2)
C14 C 0.4629(4) 0.3402(12) 0.3730(6)
C15 C 0.5384(4) 0.3405(12) 0.3460(6)
C16 C 0.3442(5) 0.3890(10) 0.4611(6)
C17 C 0.3104(5) 0.2765(10) 0.3871(6)
C18 C 0.6982(4) 0.3721(10) 0.3468(7)
C19 C 0.6598(5) 0.2665(10) 0.2683(7)
C20 C 0.2068(5) 0.3444(13) 0.5374(6)
H9 H 0.2326 0.2479 0.5798
H10 H 0.1668 0.3927 0.5729
C21 C 0.1512(5) 0.3006(11) 0.4196(7)
H11 H 0.1329 0.3972 0.3742
H12 H 0.0954 0.2473 0.4191
C22 C 0.8417(5) 0.3767(11) 0.2841(7)
H13 H 0.8101 0.4452 0.2193
H14 H 0.9074 0.3959 0.3054
C23 C 0.8229(6) 0.2091(11) 0.2470(9)
H15 H 0.8521 0.1404 0.3124
H16 H 0.8513 0.1871 0.1908
S9 S 0.44938(13) 0.4624(3) 0.47400(18)
S10 S 0.37556(14) 0.2150(3) 0.30972(19)
S11 S 0.62999(13) 0.4601(3) 0.41019(18)
S12 S 0.54680(14) 0.2244(3) 0.24034(18)
S13 S 0.29664(15) 0.4768(3) 0.5482(2)
S14 S 0.20976(14) 0.1746(3) 0.3560(2)
S15 S 0.80918(13) 0.4328(3) 0.39676(19)
S16 S 0.70624(15) 0.1592(3) 0.1880(2)
loop_
_geom_bond_atom_site_label_1
_geom_bond_atom_site_label_2
_geom_bond_site_symmetry_1
_geom_bond_site_symmetry_2
Cu1 C1 1_555 1_555
N1 Cu1 1_555 1_555
N2 Cu1 1_555 1_555
C2 N1 1_555 1_555
N3 C2 1_555 1_555
C3 N3 1_555 1_555
N4 C3 1_555 1_555
C4 C5 1_555 1_555
C5 S3 1_555 1_555
C6 C7 1_555 1_555
C7 S2 1_555 1_555
C8 C9 1_555 1_555
C9 S4 1_555 1_555
C10 H1 1_555 1_555
H2 C10 1_555 1_555
C11 C10 1_555 1_555
H3 C11 1_555 1_555
H4 C11 1_555 1_555
C12 H5 1_555 1_555
H6 C12 1_555 1_555
C13 C12 1_555 1_555
H7 C13 1_555 1_555
H8 C13 1_555 1_555
S1 C4 1_555 1_555
S2 C4 1_555 1_555
S3 C8 1_555 1_555
S4 C5 1_555 1_555
S5 C6 1_555 1_555
S6 C7 1_555 1_555
S7 C8 1_555 1_555
S8 C9 1_555 1_555
C14 C15 1_555 1_555
C15 S11 1_555 1_555
C16 C17 1_555 1_555
C17 S10 1_555 1_555
C18 C19 1_555 1_555
C19 S12 1_555 1_555
C20 H9 1_555 1_555
H10 C20 1_555 1_555
C21 C20 1_555 1_555
H11 C21 1_555 1_555
H12 C21 1_555 1_555
C22 H13 1_555 1_555
H14 C22 1_555 1_555
C23 C22 1_555 1_555
H15 C23 1_555 1_555
H16 C23 1_555 1_555
S9 C14 1_555 1_555
S10 C14 1_555 1_555
S11 C18 1_555 1_555
S12 C15 1_555 1_555
S13 C16 1_555 1_555
S14 C17 1_555 1_555
S15 C18 1_555 1_555
S16 C19 1_555 1_555
C1A N2 1_555 1_555
Cu1A C1A 1_555 1_555
C6 S1 1_555 1_555
C10 S5 1_555 1_555
C11 S6 1_555 1_555
C12 S7 1_555 1_555
C13 S8 1_555 1_555
C16 S9 1_555 1_555
C20 S13 1_555 1_555
C21 S14 1_555 1_555
C22 S15 1_555 1_555
C23 S16 1_555 1_555

#END
