
#######################################################################
#
#                 Cambridge Crystallographic Data Centre
#                                CCDC 
#
#######################################################################
#
# If this CIF has been generated from an entry in the Cambridge 
# Structural Database, then it will include bibliographic, chemical, 
# crystal, experimental, refinement or atomic coordinate data resulting 
# from the CCDC's data processing and validation procedures.
#
#######################################################################

data_VORNAR22
_symmetry_cell_setting           monoclinic
_symmetry_space_group_name_H-M   'P 21'
_symmetry_Int_Tables_number      4
_space_group_name_Hall           'P 2yb'
loop_
_symmetry_equiv_pos_site_id
_symmetry_equiv_pos_as_xyz
1 x,y,z
2 -x,1/2+y,-z
_cell_length_a                   15.9296(17)
_cell_length_b                   8.5690(9)
_cell_length_c                   12.7261(14)
_cell_angle_alpha                90
_cell_angle_beta                 111.3550(10)
_cell_angle_gamma                90
_cell_volume                     1617.85
loop_
_atom_site_label
_atom_site_type_symbol
_atom_site_fract_x
_atom_site_fract_y
_atom_site_fract_z
Cu1 Cu 0.01012(6) -0.16211(12) 0.40684(8)
C1 C 0.0135(4) -0.3634(8) 0.4668(6)
N1 N 0.0153(4) -0.0671(7) 0.2719(5)
N2 N -0.0135(3) 0.0229(7) 0.4881(5)
C2 C 0.0129(4) 0.0189(8) 0.1974(6)
N3 N 0.0077(4) 0.1034(7) 0.1093(5)
C3 C 0.0019(4) 0.2546(9) 0.1208(6)
N4 N -0.0066(4) 0.3857(9) 0.1186(6)
C1A C -0.0135(4) 0.1366(8) 0.5332(6)
Cu1A Cu -0.01012(6) 0.33789(12) 0.59316(8)
C4 C 0.4668(4) 0.6228(8) 0.1480(5)
C5 C 0.5416(4) 0.6265(8) 0.1203(5)
C6 C 0.3454(4) 0.7028(8) 0.2279(6)
C7 C 0.3062(4) 0.5925(8) 0.1492(6)
C8 C 0.6985(4) 0.6938(8) 0.1154(5)
C9 C 0.6683(4) 0.5713(9) 0.0447(6)
C10 C 0.1946(4) 0.7061(9) 0.2811(6)
H1 H 0.2089 0.6045 0.3224
H2 H 0.1557 0.7673 0.3125
C11 C 0.1418(4) 0.6735(8) 0.1580(6)
H3 H 0.1345 0.7730 0.1145
H4 H 0.0802 0.6359 0.1497
C12 C 0.8614(4) 0.6858(8) 0.0792(5)
H5 H 0.9085 0.7554 0.0696
H6 H 0.8930 0.5957 0.1274
C13 C 0.8022(4) 0.6246(9) -0.0354(5)
H7 H 0.8416 0.5831 -0.0747
H8 H 0.7666 0.7134 -0.0813
S1 S 0.45763(11) 0.7493(2) 0.25154(14)
S2 S 0.37435(10) 0.5029(2) 0.08559(13)
S3 S 0.62609(10) 0.7632(2) 0.17977(14)
S4 S 0.56008(10) 0.5003(2) 0.02350(13)
S5 S 0.29847(11) 0.8116(2) 0.30845(14)
S6 S 0.19426(11) 0.5306(2) 0.09832(19)
S7 S 0.80031(10) 0.7946(2) 0.15283(14)
S8 S 0.72508(11) 0.4728(2) -0.03018(14)
C14 C 0.4634(4) 0.3446(9) 0.3729(5)
C15 C 0.5382(4) 0.3453(9) 0.3447(5)
C16 C 0.3443(4) 0.3913(8) 0.4622(5)
C17 C 0.3106(4) 0.2772(8) 0.3876(5)
C18 C 0.6994(4) 0.3754(8) 0.3479(5)
C19 C 0.6611(4) 0.2683(8) 0.2686(5)
C20 C 0.2067(4) 0.3443(10) 0.5397(5)
H9 H 0.2340 0.2474 0.5822
H10 H 0.1669 0.3911 0.5766
C21 C 0.1494(4) 0.3001(9) 0.4197(5)
H11 H 0.1302 0.3972 0.3735
H12 H 0.0938 0.2457 0.4195
C22 C 0.8433(4) 0.3812(7) 0.2829(5)
H13 H 0.8095 0.4489 0.2171
H14 H 0.9090 0.4029 0.3030
C23 C 0.8255(4) 0.2123(8) 0.2474(6)
H15 H 0.8554 0.1447 0.3147
H16 H 0.8540 0.1892 0.1909
S9 S 0.44976(10) 0.4664(2) 0.47529(13)
S10 S 0.37516(10) 0.2158(2) 0.30891(14)
S11 S 0.63076(10) 0.4660(2) 0.41116(13)
S12 S 0.54684(10) 0.2270(2) 0.23847(14)
S13 S 0.29643(11) 0.4814(2) 0.55032(14)
S14 S 0.20857(10) 0.1741(2) 0.35515(14)
S15 S 0.81205(10) 0.4354(2) 0.40100(14)
S16 S 0.70720(11) 0.1601(2) 0.18673(15)
loop_
_geom_bond_atom_site_label_1
_geom_bond_atom_site_label_2
_geom_bond_site_symmetry_1
_geom_bond_site_symmetry_2
Cu1 C1 1_555 1_555
N1 Cu1 1_555 1_555
N2 Cu1 1_555 1_555
C2 N1 1_555 1_555
N3 C2 1_555 1_555
C3 N3 1_555 1_555
N4 C3 1_555 1_555
C4 C5 1_555 1_555
C5 S3 1_555 1_555
C6 C7 1_555 1_555
C7 S2 1_555 1_555
C8 C9 1_555 1_555
C9 S4 1_555 1_555
C10 H1 1_555 1_555
H2 C10 1_555 1_555
C11 C10 1_555 1_555
H3 C11 1_555 1_555
H4 C11 1_555 1_555
C12 H5 1_555 1_555
H6 C12 1_555 1_555
C13 C12 1_555 1_555
H7 C13 1_555 1_555
H8 C13 1_555 1_555
S1 C4 1_555 1_555
S2 C4 1_555 1_555
S3 C8 1_555 1_555
S4 C5 1_555 1_555
S5 C6 1_555 1_555
S6 C7 1_555 1_555
S7 C8 1_555 1_555
S8 C9 1_555 1_555
C14 C15 1_555 1_555
C15 S11 1_555 1_555
C16 C17 1_555 1_555
C17 S10 1_555 1_555
C18 C19 1_555 1_555
C19 S12 1_555 1_555
C20 H9 1_555 1_555
H10 C20 1_555 1_555
C21 C20 1_555 1_555
H11 C21 1_555 1_555
H12 C21 1_555 1_555
C22 H13 1_555 1_555
H14 C22 1_555 1_555
C23 C22 1_555 1_555
H15 C23 1_555 1_555
H16 C23 1_555 1_555
S9 C14 1_555 1_555
S10 C14 1_555 1_555
S11 C18 1_555 1_555
S12 C15 1_555 1_555
S13 C16 1_555 1_555
S14 C17 1_555 1_555
S15 C18 1_555 1_555
S16 C19 1_555 1_555
C1A N2 1_555 1_555
Cu1A C1A 1_555 1_555
C6 S1 1_555 1_555
C10 S5 1_555 1_555
C11 S6 1_555 1_555
C12 S7 1_555 1_555
C13 S8 1_555 1_555
C16 S9 1_555 1_555
C20 S13 1_555 1_555
C21 S14 1_555 1_555
C22 S15 1_555 1_555
C23 S16 1_555 1_555

#END
