
#######################################################################
#
#                 Cambridge Crystallographic Data Centre
#                                CCDC 
#
#######################################################################
#
# If this CIF has been generated from an entry in the Cambridge 
# Structural Database, then it will include bibliographic, chemical, 
# crystal, experimental, refinement or atomic coordinate data resulting 
# from the CCDC's data processing and validation procedures.
#
#######################################################################

data_VORNAR25
_symmetry_cell_setting           monoclinic
_symmetry_space_group_name_H-M   'P 21'
_symmetry_Int_Tables_number      4
_space_group_name_Hall           'P 2yb'
loop_
_symmetry_equiv_pos_site_id
_symmetry_equiv_pos_as_xyz
1 x,y,z
2 -x,1/2+y,-z
_cell_length_a                   15.964(2)
_cell_length_b                   8.6080(11)
_cell_length_c                   12.8406(17)
_cell_angle_alpha                90
_cell_angle_beta                 111.006(2)
_cell_angle_gamma                90
_cell_volume                     1647.27
loop_
_atom_site_label
_atom_site_type_symbol
_atom_site_fract_x
_atom_site_fract_y
_atom_site_fract_z
Cu1 Cu 0.00997(7) -0.15825(15) 0.40908(10)
C1 C 0.0117(5) -0.3570(11) 0.4671(8)
N1 N 0.0149(5) -0.0632(10) 0.2732(6)
N2 N -0.0125(4) 0.0269(9) 0.4900(6)
C2 C 0.0119(5) 0.0220(11) 0.1987(9)
N3 N 0.0066(5) 0.1023(10) 0.1111(6)
C3 C 0.0015(6) 0.2511(13) 0.1209(9)
N4 N -0.0073(7) 0.3788(14) 0.1133(10)
C1A C -0.0117(5) 0.1430(11) 0.5329(8)
Cu1A Cu -0.00997(7) 0.34175(15) 0.59092(10)
C4 C 0.4674(5) 0.6250(10) 0.1488(6)
C5 C 0.5413(5) 0.6284(10) 0.1204(6)
C6 C 0.3456(5) 0.7042(10) 0.2276(7)
C7 C 0.3078(5) 0.5931(10) 0.1505(7)
C8 C 0.6984(5) 0.6940(10) 0.1157(7)
C9 C 0.6682(5) 0.5727(11) 0.0449(7)
C10 C 0.1950(5) 0.7086(12) 0.2793(8)
H1 H 0.2083 0.6092 0.3225
H2 H 0.1560 0.7723 0.3087
C11 C 0.1430(5) 0.6708(11) 0.1617(8)
H3 H 0.1325 0.7686 0.1168
H4 H 0.0831 0.6293 0.1564
C12 C 0.8607(5) 0.6860(10) 0.0791(7)
H5 H 0.9071 0.7564 0.0691
H6 H 0.8927 0.5967 0.1265
C13 C 0.8014(5) 0.6241(12) -0.0351(7)
H7 H 0.8408 0.5816 -0.0737
H8 H 0.7667 0.7127 -0.0808
S1 S 0.45749(14) 0.7500(3) 0.25074(17)
S2 S 0.37535(13) 0.5060(3) 0.08669(17)
S3 S 0.62671(13) 0.7612(3) 0.18036(17)
S4 S 0.55999(13) 0.5027(2) 0.02461(17)
S5 S 0.29891(15) 0.8108(3) 0.30778(19)
S6 S 0.19653(15) 0.5309(3) 0.1014(3)
S7 S 0.79988(13) 0.7914(3) 0.15204(19)
S8 S 0.72386(15) 0.4754(3) -0.0303(2)
C14 C 0.4622(4) 0.3429(11) 0.3731(5)
C15 C 0.5384(4) 0.3429(12) 0.3447(6)
C16 C 0.3447(5) 0.3901(10) 0.4621(6)
C17 C 0.3117(5) 0.2765(10) 0.3879(6)
C18 C 0.6993(4) 0.3730(9) 0.3474(6)
C19 C 0.6608(5) 0.2666(9) 0.2688(6)
C20 C 0.2061(5) 0.3457(13) 0.5376(6)
H9 H 0.2318 0.2493 0.5806
H10 H 0.1660 0.3948 0.5728
C21 C 0.1502(5) 0.3008(11) 0.4189(6)
H11 H 0.1316 0.3972 0.3730
H12 H 0.0946 0.2470 0.4186
C22 C 0.8426(5) 0.3779(10) 0.2835(7)
H13 H 0.8102 0.4456 0.2182
H14 H 0.9083 0.3979 0.3044
C23 C 0.8240(5) 0.2092(11) 0.2479(8)
H15 H 0.8530 0.1415 0.3144
H16 H 0.8528 0.1856 0.1922
S9 S 0.44952(12) 0.4637(3) 0.47433(17)
S10 S 0.37538(13) 0.2154(3) 0.30960(18)
S11 S 0.63022(12) 0.4620(3) 0.41048(17)
S12 S 0.54677(13) 0.2249(3) 0.23963(17)
S13 S 0.29665(14) 0.4778(3) 0.54912(19)
S14 S 0.20941(13) 0.1744(3) 0.35554(19)
S15 S 0.81006(12) 0.4335(3) 0.39809(17)
S16 S 0.70680(14) 0.1597(3) 0.18789(19)
loop_
_geom_bond_atom_site_label_1
_geom_bond_atom_site_label_2
_geom_bond_site_symmetry_1
_geom_bond_site_symmetry_2
Cu1 C1 1_555 1_555
N1 Cu1 1_555 1_555
N2 Cu1 1_555 1_555
C2 N1 1_555 1_555
N3 C2 1_555 1_555
C3 N3 1_555 1_555
N4 C3 1_555 1_555
C4 C5 1_555 1_555
C5 S3 1_555 1_555
C6 C7 1_555 1_555
C7 S2 1_555 1_555
C8 C9 1_555 1_555
C9 S4 1_555 1_555
C10 H1 1_555 1_555
H2 C10 1_555 1_555
C11 C10 1_555 1_555
H3 C11 1_555 1_555
H4 C11 1_555 1_555
C12 H5 1_555 1_555
H6 C12 1_555 1_555
C13 C12 1_555 1_555
H7 C13 1_555 1_555
H8 C13 1_555 1_555
S1 C4 1_555 1_555
S2 C4 1_555 1_555
S3 C8 1_555 1_555
S4 C5 1_555 1_555
S5 C6 1_555 1_555
S6 C7 1_555 1_555
S7 C8 1_555 1_555
S8 C9 1_555 1_555
C14 C15 1_555 1_555
C15 S11 1_555 1_555
C16 C17 1_555 1_555
C17 S10 1_555 1_555
C18 C19 1_555 1_555
C19 S12 1_555 1_555
C20 H9 1_555 1_555
H10 C20 1_555 1_555
C21 C20 1_555 1_555
H11 C21 1_555 1_555
H12 C21 1_555 1_555
C22 H13 1_555 1_555
H14 C22 1_555 1_555
C23 C22 1_555 1_555
H15 C23 1_555 1_555
H16 C23 1_555 1_555
S9 C14 1_555 1_555
S10 C14 1_555 1_555
S11 C18 1_555 1_555
S12 C15 1_555 1_555
S13 C16 1_555 1_555
S14 C17 1_555 1_555
S15 C18 1_555 1_555
S16 C19 1_555 1_555
C1A N2 1_555 1_555
Cu1A C1A 1_555 1_555
C6 S1 1_555 1_555
C10 S5 1_555 1_555
C11 S6 1_555 1_555
C12 S7 1_555 1_555
C13 S8 1_555 1_555
C16 S9 1_555 1_555
C20 S13 1_555 1_555
C21 S14 1_555 1_555
C22 S15 1_555 1_555
C23 S16 1_555 1_555

#END
