
#######################################################################
#
#                 Cambridge Crystallographic Data Centre
#                                CCDC 
#
#######################################################################
#
# If this CIF has been generated from an entry in the Cambridge 
# Structural Database, then it will include bibliographic, chemical, 
# crystal, experimental, refinement or atomic coordinate data resulting 
# from the CCDC's data processing and validation procedures.
#
#######################################################################

data_VORROL
_symmetry_cell_setting           monoclinic
_symmetry_space_group_name_H-M   'P 21/c'
_symmetry_Int_Tables_number      14
_space_group_name_Hall           '-P 2ybc'
loop_
_symmetry_equiv_pos_site_id
_symmetry_equiv_pos_as_xyz
1 x,y,z
2 -x,1/2+y,1/2-z
3 -x,-y,-z
4 x,1/2-y,1/2+z
_cell_length_a                   16.308(3)
_cell_length_b                   6.7933(12)
_cell_length_c                   13.732(2)
_cell_angle_alpha                90
_cell_angle_beta                 110.445(4)
_cell_angle_gamma                90
_cell_volume                     1425.47
loop_
_atom_site_label
_atom_site_type_symbol
_atom_site_fract_x
_atom_site_fract_y
_atom_site_fract_z
Ag1 Ag 0.31831(2) 0.06678(6) 0.75867(3)
N1 N 0.5625(3) -0.2547(5) 0.6395(3)
N2 N 0.4622(3) -0.2411(6) 0.4625(3)
C1 C 0.4187(3) -0.1482(6) 0.6094(3)
N3 N 0.5264(3) -0.1683(6) 0.7812(3)
H1 H 0.5791 -0.1954 0.8206
H2 H 0.4892 -0.1272 0.8081
N4 N 0.2229(3) -0.4551(6) 0.3283(4)
H3 H 0.1746 -0.5308 0.3055
H4 H 0.2463 -0.4700 0.3977
N5 N 0.3192(3) -0.1196(6) 0.4528(3)
N6 N 0.3443(3) -0.0755(5) 0.6223(3)
C2 C 0.5390(3) -0.2739(7) 0.5347(3)
H5 H 0.5830 -0.3158 0.5110
C3 C 0.4039(3) -0.1766(6) 0.5045(3)
C4 C 0.5026(3) -0.1899(6) 0.6792(3)
C5 C 0.2867(3) -0.0612(7) 0.5270(4)
H6 H 0.2298 -0.0158 0.5121
C6 C 0.2738(4) -0.1129(8) 0.3402(4)
H7 H 0.3143 -0.1492 0.3056
H8 H 0.2542 0.0206 0.3197
C7 C 0.1964(3) -0.2496(8) 0.3060(4)
H9 H 0.1564 -0.2146 0.3414
H10 H 0.1657 -0.2341 0.2319
O1 O 0.2919(3) 0.4234(6) 0.5681(4)
O2 O 0.2027(3) 0.3037(7) 0.6385(3)
O3 O 0.1602(3) 0.5392(7) 0.5269(4)
N7 N 0.2196(3) 0.4250(6) 0.5767(3)
Ag1A Ag 0.68169(2) -0.43322(6) 0.74133(3)
Ag1C Ag 0.31831(2) -0.56678(6) 0.25867(3)
N1A N 0.4375(3) 0.2453(5) 0.8605(3)
N4C N 0.2229(3) -0.0449(6) 0.8283(4)
O4 O 0.1125(6) -0.8533(15) 0.3541(9)
N8 N 0.0504(5) -0.7842(10) 0.3587(5)
O5 O 0.0297(5) -0.6272(11) 0.3056(6)
O6 O 0.0094(11) -0.839(2) 0.4054(8)
O7 O 0.0169(4) -0.7872(9) 0.0990(5)
H11 H 0.0648 -0.7279 0.1071
H12 H 0.0277 -0.8987 0.1288
loop_
_geom_bond_atom_site_label_1
_geom_bond_atom_site_label_2
_geom_bond_site_symmetry_1
_geom_bond_site_symmetry_2
Ag1 N6 1_555 1_555
N1 C2 1_555 1_555
N2 C2 1_555 1_555
C1 N6 1_555 1_555
N3 H1 1_555 1_555
H2 N3 1_555 1_555
N4 H3 1_555 1_555
H4 N4 1_555 1_555
N5 C3 1_555 1_555
N6 C5 1_555 1_555
C2 H5 1_555 1_555
C3 N2 1_555 1_555
C4 N1 1_555 1_555
C5 N5 1_555 1_555
H6 C5 1_555 1_555
C6 N5 1_555 1_555
H7 C6 1_555 1_555
H8 C6 1_555 1_555
C7 N4 1_555 1_555
H9 C7 1_555 1_555
H10 C7 1_555 1_555
O1 N7 1_555 1_555
O2 Ag1 1_555 1_555
O3 N7 1_555 1_555
N7 O2 1_555 1_555
O4 N8 1_555 1_555
N8 O5 1_555 1_555
O6 N8 1_555 1_555
O7 H11 1_555 1_555
H12 O7 1_555 1_555
Ag1A N1 1_555 1_555
Ag1C N4 1_555 1_555
N1A Ag1 1_555 1_555
N4C Ag1 1_555 1_555
C1 C3 1_555 1_555
C1 C4 1_555 1_555
N3 C4 1_555 1_555
C6 C7 1_555 1_555

#END
