
#######################################################################
#
#                 Cambridge Crystallographic Data Centre
#                                CCDC 
#
#######################################################################
#
# If this CIF has been generated from an entry in the Cambridge 
# Structural Database, then it will include bibliographic, chemical, 
# crystal, experimental, refinement or atomic coordinate data resulting 
# from the CCDC's data processing and validation procedures.
#
#######################################################################

data_VORRIF
_symmetry_cell_setting           orthorhombic
_symmetry_space_group_name_H-M   'P b c a'
_symmetry_Int_Tables_number      61
_space_group_name_Hall           '-P 2ac 2ab'
loop_
_symmetry_equiv_pos_site_id
_symmetry_equiv_pos_as_xyz
1 x,y,z
2 1/2+x,1/2-y,-z
3 -x,1/2+y,1/2-z
4 1/2-x,-y,1/2+z
5 -x,-y,-z
6 1/2-x,1/2+y,z
7 x,1/2-y,1/2+z
8 1/2+x,y,1/2-z
_cell_length_a                   13.0605(9)
_cell_length_b                   16.4911(12)
_cell_length_c                   16.6975(11)
_cell_angle_alpha                90
_cell_angle_beta                 90
_cell_angle_gamma                90
_cell_volume                     3596.34
loop_
_atom_site_label
_atom_site_type_symbol
_atom_site_fract_x
_atom_site_fract_y
_atom_site_fract_z
Cu1 Cu 0.40787(4) 0.19694(3) 0.35583(3)
O1 O 0.3920(2) 0.0808(2) 0.35470(17)
O2 O 0.3927(2) 0.3182(2) 0.37498(19)
N1 N 0.4990(3) 0.2077(2) 0.2266(2)
N2 N 0.7707(3) 0.2068(2) 0.1973(2)
N3 N 0.6575(2) 0.2649(2) 0.2798(2)
N4 N 0.5293(3) 0.1241(2) 0.1101(2)
N5 N 0.6907(3) 0.0914(3) 0.0636(2)
N6 N 0.5434(3) 0.1940(2) 0.4056(2)
N7 N 0.3377(3) 0.3263(3) 0.4392(2)
O3 O 0.3025(3) 0.3935(2) 0.4542(2)
O4 O 0.3224(3) 0.2657(2) 0.4808(2)
C1 C 0.7573(3) 0.2566(3) 0.2580(3)
H1 H 0.8119 0.2841 0.2840
C2 C 0.6020(3) 0.2171(3) 0.2279(2)
C3 C 0.4712(3) 0.1606(3) 0.1648(3)
H2 H 0.3996 0.1520 0.1593
C4 C 0.6331(3) 0.1310(3) 0.1154(2)
C5 C 0.6716(3) 0.1819(3) 0.1766(3)
C6 C 0.6169(3) 0.3176(3) 0.3431(3)
H3 H 0.5515 0.3418 0.3250
H4 H 0.6658 0.3622 0.3534
C7 C 0.4599(3) 0.0255(3) 0.3780(2)
C8 C 0.4348(3) -0.0566(3) 0.3715(3)
H5 H 0.3704 -0.0716 0.3495
C9 C 0.5018(4) -0.1166(3) 0.3962(3)
H6 H 0.4826 -0.1720 0.3916
C10 C 0.5976(3) -0.0963(3) 0.4279(3)
H7 H 0.6441 -0.1373 0.4445
C11 C 0.6229(3) -0.0162(3) 0.4346(3)
H8 H 0.6878 -0.0021 0.4563
C12 C 0.5563(3) 0.0461(3) 0.4105(3)
C13 C 0.5920(3) 0.1274(3) 0.4218(2)
H9 H 0.6587 0.1333 0.4437
C14 C 0.5988(3) 0.2702(3) 0.4209(3)
H10 H 0.6656 0.2578 0.4462
H11 H 0.5588 0.3040 0.4585
H12 H 0.665(5) 0.063(4) 0.032(4)
H13 H 0.757(4) 0.089(3) 0.070(2)
Cu1G Cu 0.90787(4) 0.19694(3) 0.14417(3)
N2G N 0.2707(3) 0.2068(2) 0.3027(2)
O5 O 0.7832(3) 0.0233(3) 0.2804(2)
H14 H 0.8209 0.0411 0.2437
C15 C 0.6864(6) -0.0195(5) 0.2425(4)
H15 H 0.7011 -0.0341 0.1868
H16 H 0.6279 0.0177 0.2442
H17 H 0.6702 -0.0686 0.2731
O6 O -0.1037(3) -0.0143(2) 0.4235(2)
H18 H -0.095(4) 0.0384(12) 0.428(4)
H19 H -0.043(2) -0.027(3) 0.437(4)
loop_
_geom_bond_atom_site_label_1
_geom_bond_atom_site_label_2
_geom_bond_site_symmetry_1
_geom_bond_site_symmetry_2
Cu1 O1 1_555 1_555
O1 C7 1_555 1_555
O2 Cu1 1_555 1_555
N1 Cu1 1_555 1_555
N2 C1 1_555 1_555
N3 C1 1_555 1_555
N4 C3 1_555 1_555
N5 C4 1_555 1_555
N6 Cu1 1_555 1_555
N7 O2 1_555 1_555
O3 N7 1_555 1_555
O4 Cu1 1_555 1_555
C1 H1 1_555 1_555
C2 N1 1_555 1_555
C3 N1 1_555 1_555
H2 C3 1_555 1_555
C4 N4 1_555 1_555
C5 N2 1_555 1_555
C6 N3 1_555 1_555
H3 C6 1_555 1_555
H4 C6 1_555 1_555
C7 C8 1_555 1_555
C8 H5 1_555 1_555
C9 C8 1_555 1_555
H6 C9 1_555 1_555
C10 C9 1_555 1_555
H7 C10 1_555 1_555
C11 C10 1_555 1_555
H8 C11 1_555 1_555
C12 C7 1_555 1_555
C13 N6 1_555 1_555
H9 C13 1_555 1_555
C14 N6 1_555 1_555
H10 C14 1_555 1_555
H11 C14 1_555 1_555
H12 N5 1_555 1_555
H13 N5 1_555 1_555
O5 H14 1_555 1_555
C15 O5 1_555 1_555
H15 C15 1_555 1_555
H16 C15 1_555 1_555
H17 C15 1_555 1_555
O6 H18 1_555 1_555
H19 O6 1_555 1_555
Cu1G N2 1_555 1_555
N2G Cu1 1_555 1_555
N3 C2 1_555 1_555
N7 O4 1_555 1_555
C2 C5 1_555 1_555
C4 C5 1_555 1_555
C6 C14 1_555 1_555
C11 C12 1_555 1_555
C12 C13 1_555 1_555

#END
