
#######################################################################
#
#                 Cambridge Crystallographic Data Centre
#                                CCDC 
#
#######################################################################
#
# If this CIF has been generated from an entry in the Cambridge 
# Structural Database, then it will include bibliographic, chemical, 
# crystal, experimental, refinement or atomic coordinate data resulting 
# from the CCDC's data processing and validation procedures.
#
#######################################################################

data_VORSEC
_symmetry_cell_setting           rhombohedral
_symmetry_space_group_name_H-M   'R -3'
_symmetry_Int_Tables_number      148
_space_group_name_Hall           '-R 3'
loop_
_symmetry_equiv_pos_site_id
_symmetry_equiv_pos_as_xyz
1 x,y,z
2 -y,x-y,z
3 -x+y,-x,z
4 2/3+x,1/3+y,1/3+z
5 2/3-y,1/3+x-y,1/3+z
6 2/3-x+y,1/3-x,1/3+z
7 1/3+x,2/3+y,2/3+z
8 1/3-y,2/3+x-y,2/3+z
9 1/3-x+y,2/3-x,2/3+z
10 -x,-y,-z
11 y,-x+y,-z
12 x-y,x,-z
13 1/3-x,2/3-y,2/3-z
14 1/3+y,2/3-x+y,2/3-z
15 1/3+x-y,2/3+x,2/3-z
16 2/3-x,1/3-y,1/3-z
17 2/3+y,1/3-x+y,1/3-z
18 2/3+x-y,1/3+x,1/3-z
_cell_length_a                   30.00(3)
_cell_length_b                   30.00(3)
_cell_length_c                   7.554(13)
_cell_angle_alpha                90
_cell_angle_beta                 90
_cell_angle_gamma                120
_cell_volume                     5887.76
loop_
_atom_site_label
_atom_site_type_symbol
_atom_site_fract_x
_atom_site_fract_y
_atom_site_fract_z
Cd1 Cd 0.38641(5) 0.84948(6) 0.10986(16)
O1 O 0.2164(4) 0.7925(6) 1.0717(17)
O2 O 0.2886(4) 0.7928(5) 1.049(2)
O3 O 0.3492(4) 0.8289(4) 0.4101(15)
O4 O 0.3494(5) 0.8934(5) 0.2804(15)
C1 C 0.2622(3) 0.8836(4) 0.8505(9)
C2 C 0.2738(4) 0.8441(4) 0.8507(9)
C3 C 0.3000(5) 0.8385(5) 0.7086(11)
H1 H 0.3077 0.8121 0.7088
C4 C 0.3147(5) 0.8723(4) 0.5664(11)
C5 C 0.3031(5) 0.9118(4) 0.5662(10)
H2 H 0.3130 0.9344 0.4710
C6 C 0.2769(5) 0.9174(4) 0.7082(11)
H3 H 0.2692 0.9438 0.7081
C7 C 0.2600(4) 0.8101(6) 0.999(2)
C8 C 0.3385(4) 0.8645(3) 0.4143(18)
N1 N 0.1808(6) 0.9200(6) 1.2416(17)
C9 C 0.2261(6) 0.9208(7) 1.2854(17)
H4 H 0.2401 0.9309 1.3982
C10 C 0.2507(6) 0.9064(8) 1.161(2)
H5 H 0.2810 0.9069 1.1902
C11 C 0.2299(8) 0.8913(7) 0.992(2)
C12 C 0.1845(7) 0.8905(7) 0.9485(16)
H6 H 0.1706 0.8804 0.8358
C13 C 0.1600(6) 0.9049(7) 1.073(2)
H7 H 0.1296 0.9045 1.0438
Cd1_2 Cd 0.38641(5) 0.84948(6) 1.10986(16)
Cd1E Cd 0.12974(8) 0.94692(5) 1.44319(16)
Cd1Q Cd 0.20360(8) 0.71974(5) 1.22347(16)
O1P O 0.4592(6) 0.9094(7) 0.2616(17)
O2_2 O 0.2886(4) 0.7928(5) 0.049(2)
O2P O 0.4595(5) 0.8375(6) 0.284(2)
N1G N 0.4133(6) 0.9275(8) -0.0917(17)
loop_
_geom_bond_atom_site_label_1
_geom_bond_atom_site_label_2
_geom_bond_site_symmetry_1
_geom_bond_site_symmetry_2
Cd1 O3 1_555 1_555
O1 C7 1_555 1_555
O2 C7 1_555 1_555
O3 C8 1_555 1_555
O4 Cd1 1_555 1_555
C1 C2 1_555 1_555
C2 C3 1_555 1_555
C3 H1 1_555 1_555
C4 C3 1_555 1_555
C5 C4 1_555 1_555
H2 C5 1_555 1_555
C6 C1 1_555 1_555
H3 C6 1_555 1_555
C7 C2 1_555 1_555
C8 O4 1_555 1_555
N1 C9 1_555 1_555
C9 H4 1_555 1_555
C10 C9 1_555 1_555
H5 C10 1_555 1_555
C11 C1 1_555 1_555
C12 C11 1_555 1_555
H6 C12 1_555 1_555
C13 N1 1_555 1_555
H7 C13 1_555 1_555
Cd1_2 O2 1_555 1_555
Cd1E N1 1_555 1_555
Cd1Q O1 1_555 1_555
O1P Cd1 1_555 1_555
O2_2 Cd1 1_555 1_555
O2P Cd1 1_555 1_555
N1G Cd1 1_555 1_555
O2 Cd1Q 1_555 1_555
C4 C8 1_555 1_555
C5 C6 1_555 1_555
C10 C11 1_555 1_555
C12 C13 1_555 1_555

#END
