
#######################################################################
#
#                 Cambridge Crystallographic Data Centre
#                                CCDC 
#
#######################################################################
#
# If this CIF has been generated from an entry in the Cambridge 
# Structural Database, then it will include bibliographic, chemical, 
# crystal, experimental, refinement or atomic coordinate data resulting 
# from the CCDC's data processing and validation procedures.
#
#######################################################################

data_VORSAY
_symmetry_cell_setting           rhombohedral
_symmetry_space_group_name_H-M   'R -3'
_symmetry_Int_Tables_number      148
_space_group_name_Hall           '-R 3'
loop_
_symmetry_equiv_pos_site_id
_symmetry_equiv_pos_as_xyz
1 x,y,z
2 -y,x-y,z
3 -x+y,-x,z
4 2/3+x,1/3+y,1/3+z
5 2/3-y,1/3+x-y,1/3+z
6 2/3-x+y,1/3-x,1/3+z
7 1/3+x,2/3+y,2/3+z
8 1/3-y,2/3+x-y,2/3+z
9 1/3-x+y,2/3-x,2/3+z
10 -x,-y,-z
11 y,-x+y,-z
12 x-y,x,-z
13 1/3-x,2/3-y,2/3-z
14 1/3+y,2/3-x+y,2/3-z
15 1/3+x-y,2/3+x,2/3-z
16 2/3-x,1/3-y,1/3-z
17 2/3+y,1/3-x+y,1/3-z
18 2/3+x-y,1/3+x,1/3-z
_cell_length_a                   30.515(5)
_cell_length_b                   30.515(5)
_cell_length_c                   7.574(2)
_cell_angle_alpha                90
_cell_angle_beta                 90
_cell_angle_gamma                120
_cell_volume                     6107.77
loop_
_atom_site_label
_atom_site_type_symbol
_atom_site_fract_x
_atom_site_fract_y
_atom_site_fract_z
Cd1 Cd 0.94640(3) 0.13316(4) 1.05939(11)
N1 N 0.7501(5) 0.1556(5) 1.0732(16)
O1 O 0.9318(10) 0.0761(10) 1.208(4)
H1 H 0.9605 0.0890 1.2580
H2 H 0.9194 0.0443 1.2036
O2 O 0.8683(4) 0.0396(5) 0.8851(15)
O3 O 0.8729(4) 0.1138(4) 0.9067(14)
O4 O 0.8338(4) -0.0189(4) 0.2474(14)
O5 O 0.7705(4) -0.0168(4) 0.1183(14)
C1 C 0.7649(6) 0.1727(6) 0.909(2)
H3 H 0.7674 0.2034 0.8781
C2 C 0.7765(6) 0.1484(5) 0.785(2)
H4 H 0.7861 0.1622 0.6730
C3 C 0.7742(5) 0.1030(5) 0.8238(18)
C4 C 0.7597(8) 0.0860(8) 0.986(3)
H5 H 0.7577 0.0557 1.0196
C5 C 0.7474(8) 0.1119(8) 1.109(3)
H6 H 0.7367 0.0980 1.2205
C6 C 0.7827(5) 0.0725(5) 0.6864(18)
C7 C 0.7513(6) 0.0600(6) 0.539(2)
H7 H 0.7263 0.0689 0.5337
C8 C 0.7580(6) 0.0339(5) 0.3970(19)
H8 H 0.7381 0.0273 0.2964
C9 C 0.7925(5) 0.0181(5) 0.4031(19)
C10 C 0.8215(6) 0.0303(5) 0.5514(18)
H9 H 0.8455 0.0201 0.5575
C11 C 0.8180(5) 0.0568(5) 0.6934(18)
C12 C 0.8546(6) 0.0702(6) 0.8367(19)
C13 C 0.7993(6) -0.0075(6) 0.249(2)
Cd1K Cd 0.81324(5) -0.05360(3) -0.05939(11)
Cd1K_2 Cd 0.81324(5) -0.05360(3) 0.94061(11)
Cd1O Cd 0.72027(3) 0.20017(4) 1.27394(11)
N1O N 0.9166(5) 0.1777(5) 1.2601(16)
O2J O 1.0396(5) 0.1713(6) 1.1149(15)
O4J O 0.9811(4) 0.1473(6) 0.7526(14)
O5J O 0.9832(4) 0.2127(6) 0.8817(14)
O6 O 0.9651(10) 0.0732(11) 0.505(3)
H10 H 0.9442 0.0416 0.5006
H11 H 0.9700 0.0964 0.5782
loop_
_geom_bond_atom_site_label_1
_geom_bond_atom_site_label_2
_geom_bond_site_symmetry_1
_geom_bond_site_symmetry_2
Cd1 O1 1_555 1_555
N1 C1 1_555 1_555
O1 H1 1_555 1_555
H2 O1 1_555 1_555
O2 C12 1_555 1_555
O3 Cd1 1_555 1_555
O4 C13 1_555 1_555
O5 C13 1_555 1_555
C1 H3 1_555 1_555
C2 C1 1_555 1_555
H4 C2 1_555 1_555
C3 C2 1_555 1_555
C4 C3 1_555 1_555
H5 C4 1_555 1_555
C5 N1 1_555 1_555
H6 C5 1_555 1_555
C6 C3 1_555 1_555
C7 C6 1_555 1_555
H7 C7 1_555 1_555
C8 C7 1_555 1_555
H8 C8 1_555 1_555
C9 C8 1_555 1_555
C10 C9 1_555 1_555
H9 C10 1_555 1_555
C11 C6 1_555 1_555
C12 O3 1_555 1_555
C13 C9 1_555 1_555
O6 H10 1_555 1_555
H11 O6 1_555 1_555
Cd1K O4 1_555 1_555
Cd1K_2 O2 1_555 1_555
Cd1O N1 1_555 1_555
N1O Cd1 1_555 1_555
O2J Cd1 1_555 1_555
O4J Cd1 1_555 1_555
O5J Cd1 1_555 1_555
O5 Cd1K 1_555 1_555
C4 C5 1_555 1_555
C10 C11 1_555 1_555
C11 C12 1_555 1_555

#END
