
#######################################################################
#
#                 Cambridge Crystallographic Data Centre
#                                CCDC 
#
#######################################################################
#
# If this CIF has been generated from an entry in the Cambridge 
# Structural Database, then it will include bibliographic, chemical, 
# crystal, experimental, refinement or atomic coordinate data resulting 
# from the CCDC's data processing and validation procedures.
#
#######################################################################

data_VORTIH
_symmetry_cell_setting           triclinic
_symmetry_space_group_name_H-M   'P -1'
_symmetry_Int_Tables_number      2
_space_group_name_Hall           '-P 1'
loop_
_symmetry_equiv_pos_site_id
_symmetry_equiv_pos_as_xyz
1 x,y,z
2 -x,-y,-z
_cell_length_a                   6.6702(13)
_cell_length_b                   8.7729(18)
_cell_length_c                   9.1647(18)
_cell_angle_alpha                78.49(3)
_cell_angle_beta                 72.67(3)
_cell_angle_gamma                68.92(3)
_cell_volume                     475.109
loop_
_atom_site_label
_atom_site_type_symbol
_atom_site_fract_x
_atom_site_fract_y
_atom_site_fract_z
O1 O 0.3232(4) 0.3367(3) 0.3274(3)
Ag1 Ag 0.38589(6) 1.09819(3) 0.20994(3)
C1 C 0.2571(5) 0.8594(3) 0.5110(3)
C2 C 0.1444(6) 0.9860(4) 0.7443(4)
H1 H 0.1264 1.0736 0.7953
N1 N 0.3439(4) 0.8656(3) 0.3548(3)
C3 C 0.0842(6) 0.8491(5) 0.8284(4)
H2 H 0.0272 0.8470 0.9343
C4 C 0.1088(5) 0.7195(4) 0.7558(4)
H3 H 0.0691 0.6295 0.8119
C5 C 0.3658(5) 0.7438(4) 0.2814(3)
C6 C 0.2292(5) 0.9913(4) 0.5884(4)
H4 H 0.2683 1.0820 0.5339
O2 O 0.3845(5) 0.8734(3) 0.0291(3)
O3 O 0.6619(4) 0.6471(3) 0.0706(3)
C7 C 0.4789(5) 0.7548(4) 0.1103(4)
C8 C 0.2190(5) 0.5956(4) 0.5125(4)
H5 H 0.1803 0.5039 0.5646
C9 C 0.2993(5) 0.6062(4) 0.3560(4)
C10 C 0.1951(5) 0.7230(4) 0.5943(3)
O4 O 0.2749(5) 0.5340(3) 0.1320(3)
H6 H 0.2928 0.4577 0.0853
C11 C 0.3049(5) 0.4772(4) 0.2689(4)
O1_2 O 0.3232(4) 1.3367(3) 0.3274(3)
Ag1_2 Ag 0.38589(6) 0.09819(3) 0.20994(3)
Ag1A Ag 0.61411(6) 0.90181(3) -0.20994(3)
O2A O 0.6155(5) 1.1266(3) -0.0291(3)
loop_
_geom_bond_atom_site_label_1
_geom_bond_atom_site_label_2
_geom_bond_site_symmetry_1
_geom_bond_site_symmetry_2
O1 C11 1_555 1_555
Ag1 N1 1_555 1_555
C1 N1 1_555 1_555
C2 H1 1_555 1_555
N1 C5 1_555 1_555
C3 C2 1_555 1_555
H2 C3 1_555 1_555
C4 C3 1_555 1_555
H3 C4 1_555 1_555
C5 C7 1_555 1_555
C6 C1 1_555 1_555
H4 C6 1_555 1_555
O2 C7 1_555 1_555
O3 C7 1_555 1_555
C8 H5 1_555 1_555
C9 C5 1_555 1_555
C10 C1 1_555 1_555
O4 H6 1_555 1_555
C11 C9 1_555 1_555
O1_2 Ag1 1_555 1_555
Ag1_2 O1 1_555 1_555
Ag1A O2 1_555 1_555
O2A Ag1 1_555 1_555
C2 C6 1_555 1_555
C4 C10 1_555 1_555
C8 C9 1_555 1_555
C8 C10 1_555 1_555
O4 C11 1_555 1_555

#END
