
#######################################################################
#
#                 Cambridge Crystallographic Data Centre
#                                CCDC 
#
#######################################################################
#
# If this CIF has been generated from an entry in the Cambridge 
# Structural Database, then it will include bibliographic, chemical, 
# crystal, experimental, refinement or atomic coordinate data resulting 
# from the CCDC's data processing and validation procedures.
#
#######################################################################

data_VOSGER
_symmetry_cell_setting           monoclinic
_symmetry_space_group_name_H-M   'P 21/c'
_symmetry_Int_Tables_number      14
_space_group_name_Hall           '-P 2ybc'
loop_
_symmetry_equiv_pos_site_id
_symmetry_equiv_pos_as_xyz
1 x,y,z
2 -x,1/2+y,1/2-z
3 -x,-y,-z
4 x,1/2-y,1/2+z
_cell_length_a                   20.412(2)
_cell_length_b                   9.4077(10)
_cell_length_c                   21.531(3)
_cell_angle_alpha                90
_cell_angle_beta                 101.241(6)
_cell_angle_gamma                90
_cell_volume                     4055.28
loop_
_atom_site_label
_atom_site_type_symbol
_atom_site_fract_x
_atom_site_fract_y
_atom_site_fract_z
Na1 Na 0.02649(5) -0.62161(12) -0.04479(5)
C1 C 0.11035(13) 0.1303(3) 0.05372(13)
C2 C 0.10484(13) 0.0125(3) 0.09927(12)
C3 C 0.04150(14) -0.0326(3) 0.10433(13)
H1 H 0.003 0.0074 0.0783
C4 C 0.03559(14) -0.1371(3) 0.14812(14)
H2 H -0.0071 -0.1685 0.1537
C5 C 0.09265(14) -0.1942(3) 0.18332(14)
H3 H 0.09 -0.2654 0.214
C6 C 0.15522(13) -0.1468(3) 0.17371(12)
C7 C 0.21647(13) -0.2248(3) 0.20849(13)
H4 H 0.2171 -0.2196 0.2545
H5 H 0.2127 -0.3262 0.1961
C8 C 0.30169(14) -0.0469(3) 0.23744(13)
H6 H 0.3306 -0.0798 0.2772
H7 H 0.2623 0.0011 0.2484
C9 C 0.33985(13) 0.0568(3) 0.20437(13)
H8 H 0.3625 0.1277 0.2352
H9 H 0.3744 0.0053 0.1868
C10 C 0.32829(14) 0.1985(3) 0.10454(14)
H10 H 0.3595 0.2712 0.1264
H11 H 0.2947 0.2481 0.0725
C11 C 0.36698(14) 0.0969(3) 0.07070(15)
H12 H 0.386 0.1505 0.0388
H13 H 0.4047 0.057 0.1018
C12 C 0.36977(14) -0.1370(3) 0.02571(14)
H14 H 0.4125 -0.0973 0.0184
H15 H 0.3481 -0.1879 -0.0131
C13 C 0.38319(13) -0.2399(3) 0.08085(14)
H16 H 0.418 -0.3087 0.0745
H17 H 0.3999 -0.1871 0.1205
C14 C 0.32349(13) -0.3846(3) 0.15037(12)
H18 H 0.3612 -0.4525 0.1584
H19 H 0.2819 -0.4394 0.1495
C15 C 0.33178(14) -0.2794(3) 0.20494(13)
H20 H 0.331 -0.3319 0.2446
H21 H 0.3759 -0.2328 0.2094
C16 C 0.28159(14) 0.0251(3) -0.01939(13)
H22 H 0.3078 0.0322 -0.0534
H23 H 0.2648 0.1215 -0.0126
C17 C 0.22252(13) -0.0713(3) -0.04173(13)
C18 C 0.18410(16) -0.0482(3) -0.10226(14)
H24 H 0.197 0.0224 -0.1291
C19 C 0.12777(16) -0.1280(4) -0.12268(15)
H25 H 0.1017 -0.1137 -0.1639
C20 C 0.10913(15) -0.2293(4) -0.08291(14)
H26 H 0.07 -0.2851 -0.0957
C21 C 0.14973(13) -0.2464(3) -0.02359(13)
C22 C 0.12785(13) -0.3522(3) 0.02024(13)
C23 C 0.25472(14) 0.2429(3) 0.17884(15)
H27 H 0.2279 0.1985 0.2066
H28 H 0.2252 0.2925 0.1442
H29 H 0.2858 0.311 0.2032
C24 C 0.30668(14) -0.4319(3) 0.03682(13)
H30 H 0.3026 -0.389 -0.0053
H31 H 0.2649 -0.4803 0.0398
H32 H 0.3434 -0.5007 0.0436
N1 N 0.16175(11) -0.0429(2) 0.13311(10)
N2 N 0.27973(11) -0.1697(2) 0.19650(10)
N3 N 0.29319(11) 0.1309(2) 0.15208(11)
H33 H 0.2675(11) 0.074(2) 0.1342(8)
N4 N 0.32616(11) -0.0208(2) 0.03896(11)
N5 N 0.32057(11) -0.3180(2) 0.08625(10)
H34 H 0.2864(12) -0.256(2) 0.0793(3)
N6 N 0.20629(11) -0.1705(2) -0.00286(10)
O1 O 0.17118(9) 0.1622(2) 0.04844(10)
H35 H 0.17036(14) 0.221(4) 0.0250(18)
O2 O 0.06052(10) 0.1909(2) 0.02471(11)
O3 O 0.16889(9) -0.3714(2) 0.07376(9)
H36 H 0.1463(10) -0.445(4) 0.1036(11)
O4 O 0.07387(10) -0.4142(2) 0.00533(10)
C25 C -0.07216(13) -0.3344(3) -0.21220(13)
C26 C -0.07672(14) -0.4354(3) -0.15684(14)
O5 O -0.02405(10) -0.4838(2) -0.12792(11)
O6 O -0.13594(9) -0.4609(2) -0.15079(10)
F1 F -0.01082(10) -0.2896(3) -0.21290(10)
F2 F -0.10752(11) -0.2155(2) -0.20988(10)
F3 F -0.09644(13) -0.3932(2) -0.26734(9)
C27 C 0.20348(16) -0.5842(4) -0.13301(15)
C28 C 0.16447(14) -0.6429(3) -0.08449(14)
O7 O 0.19813(10) -0.6549(2) -0.02946(10)
O8 O 0.10569(10) -0.6742(3) -0.10452(10)
F4 F 0.16388(12) -0.5273(3) -0.18408(10)
F5 F 0.23515(14) -0.6860(3) -0.15675(13)
F6 F 0.24511(13) -0.4816(3) -0.11162(10)
Na1_2 Na 0.02649(5) 0.37839(12) -0.04479(5)
Na1B Na -0.02649(5) -0.37839(12) 0.04479(5)
O2_2 O 0.06052(10) -0.8091(2) 0.02471(11)
O4B O -0.07387(10) -0.5858(2) -0.00533(10)
C29 C 0.494(2) 0.904(7) 0.3715(17)
C30 C 0.4401(4) 0.9049(10) 0.4139(4)
F7 F 0.4201(5) 1.0365(8) 0.4206(6)
F8 F 0.4644(4) 0.8525(11) 0.4686(3)
F9 F 0.3868(3) 0.8357(7) 0.3925(3)
O9 O 0.4738(4) 0.877(2) 0.3124(6)
H37 H 0.5067 0.8737 0.2944
O10 O 0.5507(8) 0.925(2) 0.3972(6)
C31 C 0.5462(16) 0.910(4) 0.1966(14)
C32 C 0.5955(4) 0.8796(9) 0.1547(3)
F10 F 0.5743(3) 0.9008(7) 0.09475(17)
F11 F 0.6525(2) 0.9471(9) 0.1731(3)
F12 F 0.6131(3) 0.7422(7) 0.1544(3)
O11 O 0.4904(2) 0.9465(5) 0.1711(3)
O12 O 0.5680(3) 0.8759(6) 0.2532(3)
C33? C 0.489(3) 0.897(10) 0.362(2)
C34? C 0.4486(6) 0.8465(12) 0.4080(6)
O13? O 0.4526(5) 0.893(2) 0.3069(8)
H38? H 0.4743 0.9251 0.2805
O14? O 0.5437(12) 0.941(3) 0.3805(9)
F13? F 0.3989(6) 0.7627(14) 0.3837(5)
F14? F 0.4822(6) 0.7947(19) 0.4604(5)
F15? F 0.4193(8) 0.9570(16) 0.4286(8)
C35? C 0.5556(16) 0.909(5) 0.2083(16)
C36? C 0.5702(4) 0.9416(11) 0.1406(4)
F16? F 0.5327(4) 1.0453(13) 0.1095(4)
F17? F 0.6298(4) 0.9968(15) 0.1409(4)
F18? F 0.5558(8) 0.8181(13) 0.1095(7)
O15? O 0.6037(3) 0.8808(6) 0.2493(3)
O16? O 0.4957(2) 0.9318(7) 0.2116(3)
F19? F 0.6312(6) 0.893(2) 0.1417(11)
F20? F 0.5299(7) 0.8701(17) 0.0953(7)
F21? F 0.5626(13) 1.0741(14) 0.1215(14)
loop_
_geom_bond_atom_site_label_1
_geom_bond_atom_site_label_2
_geom_bond_site_symmetry_1
_geom_bond_site_symmetry_2
Na1 O4 1_555 1_555
C1 C2 1_555 1_555
C2 C3 1_555 1_555
C3 H1 1_555 1_555
C4 C3 1_555 1_555
H2 C4 1_555 1_555
C5 C4 1_555 1_555
H3 C5 1_555 1_555
C6 C5 1_555 1_555
C7 C6 1_555 1_555
H4 C7 1_555 1_555
H5 C7 1_555 1_555
C8 H6 1_555 1_555
H7 C8 1_555 1_555
C9 C8 1_555 1_555
H8 C9 1_555 1_555
H9 C9 1_555 1_555
C10 H10 1_555 1_555
H11 C10 1_555 1_555
C11 C10 1_555 1_555
H12 C11 1_555 1_555
H13 C11 1_555 1_555
C12 H14 1_555 1_555
H15 C12 1_555 1_555
C13 C12 1_555 1_555
H16 C13 1_555 1_555
H17 C13 1_555 1_555
C14 H18 1_555 1_555
H19 C14 1_555 1_555
C15 C14 1_555 1_555
H20 C15 1_555 1_555
H21 C15 1_555 1_555
C16 H22 1_555 1_555
H23 C16 1_555 1_555
C17 C16 1_555 1_555
C18 C17 1_555 1_555
H24 C18 1_555 1_555
C19 C18 1_555 1_555
H25 C19 1_555 1_555
C20 C19 1_555 1_555
H26 C20 1_555 1_555
C21 C20 1_555 1_555
C22 C21 1_555 1_555
C23 H27 1_555 1_555
H28 C23 1_555 1_555
H29 C23 1_555 1_555
C24 H30 1_555 1_555
H31 C24 1_555 1_555
H32 C24 1_555 1_555
N1 C2 1_555 1_555
N2 C7 1_555 1_555
N3 C9 1_555 1_555
H33 N3 1_555 1_555
N4 C11 1_555 1_555
N5 C13 1_555 1_555
H34 N5 1_555 1_555
N6 C17 1_555 1_555
O1 C1 1_555 1_555
H35 O1 1_555 1_555
O2 C1 1_555 1_555
O3 C22 1_555 1_555
H36 O3 1_555 1_555
O4 C22 1_555 1_555
C25 C26 1_555 1_555
C26 O5 1_555 1_555
O5 Na1 1_555 1_555
O6 C26 1_555 1_555
F1 C25 1_555 1_555
F2 C25 1_555 1_555
F3 C25 1_555 1_555
C27 C28 1_555 1_555
C28 O7 1_555 1_555
O8 Na1 1_555 1_555
F4 C27 1_555 1_555
F5 C27 1_555 1_555
F6 C27 1_555 1_555
C29 C30 1_555 1_555
C30 F7 1_555 1_555
F8 C30 1_555 1_555
F9 C30 1_555 1_555
O9 C29 1_555 1_555
H37 O9 1_555 1_555
O10 C29 1_555 1_555
C31 C32 1_555 1_555
C32 F10 1_555 1_555
F11 C32 1_555 1_555
F12 C32 1_555 1_555
O11 C31 1_555 1_555
O12 C31 1_555 1_555
Na1_2 O2 1_555 1_555
Na1B O4 1_555 1_555
O2_2 Na1 1_555 1_555
O4B Na1 1_555 1_555
C6 N1 1_555 1_555
C8 N2 1_555 1_555
C10 N3 1_555 1_555
C12 N4 1_555 1_555
C14 N5 1_555 1_555
C15 N2 1_555 1_555
C16 N4 1_555 1_555
C21 N6 1_555 1_555
C23 N3 1_555 1_555
C24 N5 1_555 1_555
C28 O8 1_555 1_555
Na1B O4B 1_555 1_555

#END
