
#######################################################################
#
#                 Cambridge Crystallographic Data Centre
#                                CCDC 
#
#######################################################################
#
# If this CIF has been generated from an entry in the Cambridge 
# Structural Database, then it will include bibliographic, chemical, 
# crystal, experimental, refinement or atomic coordinate data resulting 
# from the CCDC's data processing and validation procedures.
#
#######################################################################

data_VOSNAU
_symmetry_cell_setting           monoclinic
_symmetry_space_group_name_H-M   'P 21/c'
_symmetry_Int_Tables_number      14
_space_group_name_Hall           '-P 2ybc'
loop_
_symmetry_equiv_pos_site_id
_symmetry_equiv_pos_as_xyz
1 x,y,z
2 -x,1/2+y,1/2-z
3 -x,-y,-z
4 x,1/2-y,1/2+z
_cell_length_a                   15.479(3)
_cell_length_b                   9.4020(19)
_cell_length_c                   13.884(3)
_cell_angle_alpha                90
_cell_angle_beta                 103.76(3)
_cell_angle_gamma                90
_cell_volume                     1962.6
loop_
_atom_site_label
_atom_site_type_symbol
_atom_site_fract_x
_atom_site_fract_y
_atom_site_fract_z
C1 C 0.1568(3) 0.1363(4) 0.4046(3)
H1 H 0.0988 0.1492 0.3674
C2 C 0.2140(3) 0.2530(4) 0.4184(3)
H2 H 0.1939 0.3420 0.3935
C3 C 0.2994(4) 0.2336(4) 0.4690(3)
H3 H 0.3391 0.3094 0.4773
C4 C 0.3288(3) 0.0994(4) 0.5094(3)
C5 C 0.2646(2) -0.0114(3) 0.4933(3)
C6 C 0.2907(2) -0.1512(4) 0.5357(3)
C7 C 0.2526(3) -0.3830(4) 0.5583(3)
H4 H 0.2101 -0.4549 0.5482
C8 C 0.3378(3) -0.4147(5) 0.6122(3)
H5 H 0.3516 -0.5058 0.6371
C9 C 0.4016(3) -0.3105(5) 0.6286(3)
H6 H 0.4591 -0.3303 0.6645
C10 C 0.3792(3) -0.1729(4) 0.5903(3)
C11 C 0.4407(3) -0.0565(6) 0.6057(4)
H7 H 0.4983 -0.0704 0.6437
C12 C 0.4169(3) 0.0728(5) 0.5661(4)
H8 H 0.4586 0.1458 0.5761
C13 C 0.0717(2) -0.2869(3) 0.6843(2)
C14 C 0.1445(2) -0.1760(3) 0.7094(2)
C15 C 0.1286(2) -0.0381(3) 0.6630(2)
C16 C 0.1999(2) 0.0622(3) 0.6968(2)
C17 C 0.2809(2) 0.0251(4) 0.7568(3)
H9 H 0.3267 0.0913 0.7727
C18 C 0.2930(2) -0.1106(4) 0.7928(3)
C19 C 0.2243(2) -0.2106(4) 0.7720(2)
H10 H 0.2327 -0.3005 0.8007
N1 N 0.18026(19) 0.0082(3) 0.4413(2)
N2 N 0.22809(19) -0.2547(3) 0.5199(2)
N3 N 0.1904(2) 0.2109(3) 0.6652(2)
N4 N 0.3801(2) -0.1539(5) 0.8511(3)
O1 O 0.04266(17) -0.3193(2) 0.59456(17)
O2 O 0.04551(18) -0.3400(2) 0.75467(18)
O3 O 0.05741(14) -0.0130(2) 0.59742(16)
O4 O 0.11659(18) 0.2589(3) 0.6229(2)
O5 O 0.2565(2) 0.2867(3) 0.6838(3)
O6 O 0.4383(2) -0.0630(4) 0.8728(3)
O7 O 0.3908(2) -0.2786(4) 0.8743(3)
O8 O 0.0563(2) -0.4457(2) 0.3866(2)
Sr1 Sr 0.05262(2) -0.18605(3) 0.43948(2)
H11 H 0.060(5) -0.479(7) 0.331(3)
H12 H 0.022(3) -0.501(5) 0.408(4)
O2C O 0.04551(18) -0.1600(2) 0.25467(18)
O3B O -0.05741(14) 0.0130(2) 0.40258(16)
O4B O -0.11659(18) -0.2589(3) 0.3771(2)
Sr1B Sr -0.05262(2) 0.18605(3) 0.56052(2)
Sr1C Sr 0.05262(2) -0.31395(3) 0.93948(2)
loop_
_geom_bond_atom_site_label_1
_geom_bond_atom_site_label_2
_geom_bond_site_symmetry_1
_geom_bond_site_symmetry_2
C1 H1 1_555 1_555
C2 C1 1_555 1_555
H2 C2 1_555 1_555
C3 C2 1_555 1_555
H3 C3 1_555 1_555
C4 C3 1_555 1_555
C5 C4 1_555 1_555
C6 C5 1_555 1_555
C7 H4 1_555 1_555
C8 C7 1_555 1_555
H5 C8 1_555 1_555
C9 C8 1_555 1_555
H6 C9 1_555 1_555
C10 C6 1_555 1_555
C11 C10 1_555 1_555
H7 C11 1_555 1_555
C12 C4 1_555 1_555
H8 C12 1_555 1_555
C13 C14 1_555 1_555
C14 C15 1_555 1_555
C15 C16 1_555 1_555
C16 C17 1_555 1_555
C17 H9 1_555 1_555
C18 C17 1_555 1_555
C19 C14 1_555 1_555
H10 C19 1_555 1_555
N1 C1 1_555 1_555
N2 C6 1_555 1_555
N3 C16 1_555 1_555
N4 C18 1_555 1_555
O1 C13 1_555 1_555
O2 C13 1_555 1_555
O3 C15 1_555 1_555
O4 N3 1_555 1_555
O5 N3 1_555 1_555
O6 N4 1_555 1_555
O7 N4 1_555 1_555
O8 Sr1 1_555 1_555
Sr1 N1 1_555 1_555
H11 O8 1_555 1_555
H12 O8 1_555 1_555
O2C Sr1 1_555 1_555
O3B Sr1 1_555 1_555
O4B Sr1 1_555 1_555
Sr1B O3 1_555 1_555
Sr1C O2 1_555 1_555
C5 N1 1_555 1_555
C7 N2 1_555 1_555
C9 C10 1_555 1_555
C11 C12 1_555 1_555
C18 C19 1_555 1_555
N2 Sr1 1_555 1_555
O1 Sr1 1_555 1_555
O3 Sr1 1_555 1_555
O4 Sr1B 1_555 1_555
O3B Sr1B 1_555 1_555

#END
