
#######################################################################
#
#                 Cambridge Crystallographic Data Centre
#                                CCDC 
#
#######################################################################
#
# If this CIF has been generated from an entry in the Cambridge 
# Structural Database, then it will include bibliographic, chemical, 
# crystal, experimental, refinement or atomic coordinate data resulting 
# from the CCDC's data processing and validation procedures.
#
#######################################################################

data_VOSPUO
_symmetry_cell_setting           monoclinic
_symmetry_space_group_name_H-M   'P 21/c'
_symmetry_Int_Tables_number      14
_space_group_name_Hall           '-P 2ybc'
loop_
_symmetry_equiv_pos_site_id
_symmetry_equiv_pos_as_xyz
1 x,y,z
2 -x,1/2+y,1/2-z
3 -x,-y,-z
4 x,1/2-y,1/2+z
_cell_length_a                   15.750(5)
_cell_length_b                   8.783(2)
_cell_length_c                   7.625(2)
_cell_angle_alpha                90
_cell_angle_beta                 99.82(3)
_cell_angle_gamma                90
_cell_volume                     1039.33
loop_
_atom_site_label
_atom_site_type_symbol
_atom_site_fract_x
_atom_site_fract_y
_atom_site_fract_z
C1 C 0.7187(1) 0.4595(2) 0.3425(2)
C2 C 0.7859(1) 0.5640(2) 0.3901(2)
C3 C 0.8655(1) 0.5281(2) 0.3461(2)
C4 C 0.8809(1) 0.3956(2) 0.2580(2)
C5 C 0.8137(1) 0.2948(2) 0.2139(2)
C6 C 0.7334(1) 0.3255(2) 0.2564(2)
C7 C 0.7748(2) 0.7120(3) 0.4837(4)
C8 C 0.9681(2) 0.3639(5) 0.2081(5)
S1 S 0.6143(1) 0.4927(1) 0.3935(1)
O1 O 0.5621(1) 0.3649(1) 0.3165(2)
O2 O 0.5844(1) 0.6359(1) 0.3150(1)
O3 O 0.6253(1) 0.4958(2) 0.5855(2)
Na1 Na 0.4870(1) 0.2008(1) 0.4897(1)
O4 O 0.5940(1) 0.0098(1) 0.4302(2)
H1 H 0.9121(11) 0.6036(21) 0.3820(23)
H2 H 0.8193(13) 0.2052(24) 0.1538(27)
H3 H 0.6884(11) 0.2551(20) 0.2261(21)
H4 H 0.8231(17) 0.7620(32) 0.5109(36)
H5 H 0.7534(18) 0.6948(29) 0.5878(38)
H6 H 0.7275(20) 0.7775(38) 0.3965(44)
H7 H 1.0103(26) 0.4272(54) 0.2677(54)
H8 H 0.9669(24) 0.3367(46) 0.0943(53)
H9 H 0.9946(23) 0.2821(52) 0.2641(50)
H10 H 0.5987(19) 0.0018(29) 0.3430(40)
H11 H 0.6422(18) 0.0246(27) 0.4819(35)
Na1C Na 0.4870(1) 0.2992(1) -0.0103(1)
Na1A Na 0.5130(1) 0.7008(1) 0.0103(1)
Na1B Na 0.5130(1) 0.7992(1) 0.5103(1)
O1C O 0.5621(1) 0.1351(1) 0.8165(2)
O2A O 0.4156(1) 0.1359(1) 0.1850(1)
O2B O 0.4156(1) 0.3641(1) 0.6850(1)
O4B O 0.4060(1) -0.0098(1) 0.5698(2)
Na1B_2 Na 0.5130(1) -0.2008(1) 0.5103(1)
H10B H 0.4013(19) -0.0018(29) 0.6570(40)
H11B H 0.3578(18) -0.0246(27) 0.5181(35)
loop_
_geom_bond_atom_site_label_1
_geom_bond_atom_site_label_2
_geom_bond_site_symmetry_1
_geom_bond_site_symmetry_2
C1 C2 1_555 1_555
C2 C3 1_555 1_555
C3 C4 1_555 1_555
C4 C5 1_555 1_555
C5 C6 1_555 1_555
C6 C1 1_555 1_555
C7 C2 1_555 1_555
C8 C4 1_555 1_555
S1 C1 1_555 1_555
O1 S1 1_555 1_555
O2 S1 1_555 1_555
O3 S1 1_555 1_555
Na1 O1 1_555 1_555
O4 Na1 1_555 1_555
H1 C3 1_555 1_555
H2 C5 1_555 1_555
H3 C6 1_555 1_555
H4 C7 1_555 1_555
H5 C7 1_555 1_555
H6 C7 1_555 1_555
H7 C8 1_555 1_555
H8 C8 1_555 1_555
H9 C8 1_555 1_555
H10 O4 1_555 1_555
H11 O4 1_555 1_555
Na1C O1 1_555 1_555
Na1A O2 1_555 1_555
Na1B O2 1_555 1_555
O1C Na1 1_555 1_555
O2A Na1 1_555 1_555
O2B Na1 1_555 1_555
O4B Na1 1_555 1_555
Na1B_2 O4 1_555 1_555
H10B O4B 1_555 1_555
H11B O4B 1_555 1_555
Na1C O2A 1_555 1_555
O4B Na1B_2 1_555 1_555

#END
