
#######################################################################
#
#                 Cambridge Crystallographic Data Centre
#                                CCDC 
#
#######################################################################
#
# If this CIF has been generated from an entry in the Cambridge 
# Structural Database, then it will include bibliographic, chemical, 
# crystal, experimental, refinement or atomic coordinate data resulting 
# from the CCDC's data processing and validation procedures.
#
#######################################################################

data_VOSRAY
_symmetry_cell_setting           orthorhombic
_symmetry_space_group_name_H-M   'C m c a'
_symmetry_Int_Tables_number      64
_space_group_name_Hall           '-C 2ac 2'
loop_
_symmetry_equiv_pos_site_id
_symmetry_equiv_pos_as_xyz
1 x,y,z
2 -x,1/2-y,1/2+z
3 x,-y,-z
4 -x,1/2+y,1/2-z
5 1/2+x,1/2+y,z
6 1/2-x,-y,1/2+z
7 1/2+x,1/2-y,-z
8 1/2-x,y,1/2-z
9 -x,-y,-z
10 x,1/2+y,1/2-z
11 -x,y,z
12 x,1/2-y,1/2+z
13 1/2-x,1/2-y,-z
14 1/2+x,y,1/2-z
15 1/2-x,1/2+y,z
16 1/2+x,-y,1/2+z
_cell_length_a                   36.6024(18)
_cell_length_b                   19.2440(10)
_cell_length_c                   35.0899(19)
_cell_angle_alpha                90
_cell_angle_beta                 90
_cell_angle_gamma                90
_cell_volume                     24716.5
loop_
_atom_site_label
_atom_site_type_symbol
_atom_site_fract_x
_atom_site_fract_y
_atom_site_fract_z
Ru1 Ru 0.66710(2) 0.14381(3) 0.86174(2)
Ag1 Ag 0.5000 0.07622(10) 0.98272(3)
Ag2 Ag 0.85169(2) 0.03147(4) 0.83573(2)
N1 N 0.65480(17) 0.2177(4) 0.81981(17)
C1 C 0.6659(2) 0.1986(5) 0.7837(2)
C2 C 0.6586(3) 0.2378(7) 0.7520(3)
H1 H 0.6649 0.2221 0.7272
C3 C 0.6409(4) 0.3036(9) 0.7579(4)
H2 H 0.6367 0.3346 0.7373
C4 C 0.6304(3) 0.3201(7) 0.7941(3)
H3 H 0.6169 0.3615 0.7986
C5 C 0.6390(2) 0.2787(5) 0.8232(2)
H4 H 0.6333 0.2944 0.8482
N2 N 0.69622(16) 0.0287(4) 0.80184(19)
N3 N 0.68297(16) 0.0928(3) 0.81194(16)
C6 C 0.6834(2) 0.1333(5) 0.7808(2)
C7 C 0.6973(2) 0.0910(8) 0.7498(3)
H5 H 0.7005 0.1052 0.7240
C8 C 0.7046(3) 0.0300(8) 0.7639(3)
H6 H 0.7143 -0.0080 0.7499
C9 C 0.6989(2) -0.0301(5) 0.8293(3)
H7 H 0.6811 -0.0220 0.8501
H8 H 0.6915 -0.0733 0.8161
C10 C 0.7348(2) -0.0414(4) 0.8464(3)
C11 C 0.76657(19) -0.0046(4) 0.8360(2)
H9 H 0.7649 0.0297 0.8166
N4 N 0.79895(19) -0.0163(3) 0.85249(19)
C12 C 0.8003(3) -0.0665(5) 0.8805(3)
H10 H 0.8230 -0.0755 0.8926
C13 C 0.7710(3) -0.1030(6) 0.8912(3)
H11 H 0.7735 -0.1383 0.9099
C14 C 0.7383(3) -0.0902(5) 0.8758(3)
H12 H 0.7174 -0.1143 0.8848
N5 N 0.72251(15) 0.1709(4) 0.86690(17)
C15 C 0.7424(2) 0.1350(4) 0.8926(2)
C16 C 0.7783(2) 0.1461(5) 0.8978(3)
H13 H 0.7916 0.1197 0.9160
C17 C 0.7966(2) 0.1989(6) 0.8751(3)
H14 H 0.8216 0.2098 0.8790
C18 C 0.7766(2) 0.2316(5) 0.8484(3)
H15 H 0.7876 0.2641 0.8316
C19 C 0.7393(2) 0.2171(5) 0.8458(2)
H16 H 0.7253 0.2421 0.8276
N6 N 0.67509(17) 0.0210(3) 0.92442(18)
N7 N 0.68755(15) 0.0762(3) 0.90328(16)
C20 C 0.72191(19) 0.0825(4) 0.9133(2)
C21 C 0.7307(2) 0.0350(4) 0.9420(3)
H17 H 0.7532 0.0315 0.9553
C22 C 0.7016(3) -0.0039(5) 0.9467(3)
H18 H 0.6998 -0.0430 0.9631
C23 C 0.6356(2) 0.0047(4) 0.9263(2)
H19 H 0.6324 -0.0450 0.9329
H20 H 0.6245 0.0125 0.9010
C24 C 0.6166(2) 0.0485(4) 0.9552(2)
C25 C 0.5784(2) 0.0447(5) 0.9586(2)
H21 H 0.5658 0.0126 0.9428
N8 N 0.55885(19) 0.0831(4) 0.98250(19)
C26 C 0.5759(2) 0.1248(5) 1.0055(2)
H22 H 0.5620 0.1495 1.0239
C27 C 0.6127(2) 0.1348(4) 1.0046(2)
H23 H 0.6239 0.1679 1.0209
C28 C 0.6334(2) 0.0962(3) 0.9796(2)
H24 H 0.6592 0.1020 0.9789
N9 N 0.85179(14) 0.2105(3) 0.59604(15)
C29 C 0.88822(19) 0.2125(4) 0.59022(19)
C30 C 0.9036(2) 0.2620(4) 0.5658(2)
H25 H 0.9294 0.2646 0.5631
C31 C 0.8825(2) 0.3055(4) 0.5464(3)
H26 H 0.8932 0.3383 0.5296
C32 C 0.8449(2) 0.3032(4) 0.5505(2)
H27 H 0.8296 0.3351 0.5374
C33 C 0.8303(2) 0.2523(4) 0.5745(2)
H28 H 0.8045 0.2468 0.5758
N10 N 0.91309(15) 0.0778(4) 0.65293(18)
N11 N 0.88915(14) 0.1220(4) 0.63675(17)
C34 C 0.90878(17) 0.1634(4) 0.6126(2)
C35 C 0.9454(2) 0.1421(6) 0.6138(3)
H29 H 0.9649 0.1606 0.5991
C36 C 0.94787(18) 0.0920(5) 0.6392(2)
H30 H 0.9697 0.0692 0.6467
C37 C 0.9045(2) 0.0357(4) 0.6850(2)
H31 H 0.9214 -0.0044 0.6854
H32 H 0.8794 0.0172 0.6816
C38 C 0.90653(19) 0.0724(4) 0.7230(2)
C39 C 0.8874(2) 0.0445(4) 0.7545(2)
H33 H 0.8747 0.0019 0.7512
N12 N 0.88651(19) 0.0751(4) 0.78887(19)
C40 C 0.9046(3) 0.1333(6) 0.7936(3)
H34 H 0.9046 0.1545 0.8181
C41 C 0.9238(3) 0.1649(5) 0.7645(3)
H35 H 0.9365 0.2071 0.7691
C42 C 0.9244(3) 0.1350(5) 0.7288(3)
H36 H 0.9369 0.1570 0.7084
N13 N 0.8917(2) -0.0643(5) 0.8626(3)
C43 C 0.9173(4) -0.0722(7) 0.8801(5)
C44 C 0.9480(5) -0.0633(16) 0.9090(7)
H37 H 0.9532 -0.0137 0.9123
H38 H 0.9700 -0.0871 0.8998
H39 H 0.9406 -0.0834 0.9335
N14 N 0.8762(3) 0.1037(5) 0.8842(2)
C45 C 0.8890(5) 0.1243(8) 0.9080(4)
C46 C 0.9083(9) 0.1566(14) 0.9435(4)
H40 H 0.9252 0.1226 0.9544
H41 H 0.8899 0.1694 0.9625
H42 H 0.9219 0.1982 0.9357
Ru1G Ru 0.83290(2) 0.14381(3) 0.63826(2)
Ag2G Ag 0.64831(2) 0.03147(4) 0.66427(2)
N1G N 0.84520(17) 0.2177(4) 0.68019(17)
C1G C 0.8341(2) 0.1986(5) 0.7163(2)
C2G C 0.8414(3) 0.2378(7) 0.7480(3)
H1G H 0.8351 0.2221 0.7728
C3G C 0.8591(4) 0.3036(9) 0.7421(4)
H2G H 0.8633 0.3346 0.7627
C4G C 0.8696(3) 0.3201(7) 0.7059(3)
H3G H 0.8831 0.3615 0.7014
C5G C 0.8610(2) 0.2787(5) 0.6768(2)
H4G H 0.8667 0.2944 0.6518
N2G N 0.80378(16) 0.0287(4) 0.69816(19)
N3G N 0.81703(16) 0.0928(3) 0.68806(16)
C6G C 0.8166(2) 0.1333(5) 0.7192(2)
C7G C 0.8027(2) 0.0910(8) 0.7502(3)
H5G H 0.7995 0.1052 0.7760
C8G C 0.7954(3) 0.0300(8) 0.7361(3)
H6G H 0.7857 -0.0080 0.7501
C9G C 0.8011(2) -0.0301(5) 0.6707(3)
H7G H 0.8189 -0.0220 0.6499
H8G H 0.8085 -0.0733 0.6839
C10G C 0.7652(2) -0.0414(4) 0.6536(3)
C11G C 0.73343(19) -0.0046(4) 0.6640(2)
H9G H 0.7351 0.0297 0.6834
N4G N 0.70105(19) -0.0163(3) 0.64751(19)
C12G C 0.6997(3) -0.0665(5) 0.6195(3)
H10G H 0.6770 -0.0755 0.6074
C13G C 0.7290(3) -0.1030(6) 0.6088(3)
H11G H 0.7265 -0.1383 0.5901
C14G C 0.7617(3) -0.0902(5) 0.6242(3)
H12G H 0.7826 -0.1143 0.6152
N5G N 0.77749(15) 0.1709(4) 0.63310(17)
C15G C 0.7576(2) 0.1350(4) 0.6074(2)
C16G C 0.7217(2) 0.1461(5) 0.6022(3)
H13G H 0.7084 0.1197 0.5840
C17G C 0.7034(2) 0.1989(6) 0.6249(3)
H14G H 0.6784 0.2098 0.6210
C18G C 0.7234(2) 0.2316(5) 0.6516(3)
H15G H 0.7124 0.2641 0.6684
C19G C 0.7607(2) 0.2171(5) 0.6542(2)
H16G H 0.7747 0.2421 0.6724
N6G N 0.82491(17) 0.0210(3) 0.57558(18)
N7G N 0.81245(15) 0.0762(3) 0.59672(16)
C20G C 0.77809(19) 0.0825(4) 0.5867(2)
C21G C 0.7693(2) 0.0350(4) 0.5580(3)
H17G H 0.7468 0.0315 0.5447
C22G C 0.7984(3) -0.0039(5) 0.5533(3)
H18G H 0.8002 -0.0430 0.5369
C23G C 0.8644(2) 0.0047(4) 0.5737(2)
H19G H 0.8676 -0.0450 0.5671
H20G H 0.8755 0.0125 0.5990
C24G C 0.8834(2) 0.0485(4) 0.5448(2)
C25G C 0.9216(2) 0.0447(5) 0.5414(2)
H21G H 0.9342 0.0126 0.5572
N8G N 0.94115(19) 0.0831(4) 0.51750(19)
C26G C 0.9241(2) 0.1248(5) 0.4945(2)
H22G H 0.9380 0.1495 0.4761
C27G C 0.8873(2) 0.1348(4) 0.4954(2)
H23G H 0.8761 0.1679 0.4791
C28G C 0.8666(2) 0.0962(3) 0.5204(2)
H24G H 0.8408 0.1020 0.5211
N9G N 0.64821(14) 0.2105(3) 0.90396(15)
C29G C 0.61178(19) 0.2125(4) 0.90978(19)
C30G C 0.5964(2) 0.2620(4) 0.9342(2)
H25G H 0.5706 0.2646 0.9369
C31G C 0.6175(2) 0.3055(4) 0.9536(3)
H26G H 0.6068 0.3383 0.9704
C32G C 0.6551(2) 0.3032(4) 0.9495(2)
H27G H 0.6704 0.3351 0.9626
C33G C 0.6697(2) 0.2523(4) 0.9255(2)
H28G H 0.6955 0.2468 0.9242
N10G N 0.58691(15) 0.0778(4) 0.84707(18)
N11G N 0.61085(14) 0.1220(4) 0.86325(17)
C34G C 0.59122(17) 0.1634(4) 0.8874(2)
C35G C 0.5546(2) 0.1421(6) 0.8862(3)
H29G H 0.5351 0.1606 0.9009
C36G C 0.55213(18) 0.0920(5) 0.8608(2)
H30G H 0.5303 0.0692 0.8533
C37G C 0.5955(2) 0.0357(4) 0.8150(2)
H31G H 0.5786 -0.0044 0.8146
H32G H 0.6206 0.0172 0.8184
C38G C 0.59347(19) 0.0724(4) 0.7770(2)
C39G C 0.6126(2) 0.0445(4) 0.7455(2)
H33G H 0.6253 0.0019 0.7488
N12G N 0.61349(19) 0.0751(4) 0.71113(19)
C40G C 0.5954(3) 0.1333(6) 0.7064(3)
H34G H 0.5954 0.1545 0.6819
C41G C 0.5762(3) 0.1649(5) 0.7355(3)
H35G H 0.5635 0.2071 0.7309
C42G C 0.5756(3) 0.1350(5) 0.7712(3)
H36G H 0.5631 0.1570 0.7916
N13G N 0.6083(2) -0.0643(5) 0.6374(3)
C43G C 0.5827(4) -0.0722(7) 0.6199(5)
C44G C 0.5520(5) -0.0633(16) 0.5910(7)
H37G H 0.5468 -0.0137 0.5877
H38G H 0.5300 -0.0871 0.6002
H39G H 0.5594 -0.0834 0.5665
N14G N 0.6238(3) 0.1037(5) 0.6158(2)
C45G C 0.6110(5) 0.1243(8) 0.5920(4)
C46G C 0.5917(9) 0.1566(14) 0.5565(4)
H40G H 0.5748 0.1226 0.5456
H41G H 0.6101 0.1694 0.5375
H42G H 0.5781 0.1982 0.5643
Ag1B Ag 0.5000 -0.07622(10) 1.01728(3)
Ag1G Ag 1.0000 0.07622(10) 0.51728(3)
N8J N 0.44115(19) 0.0831(4) 0.98250(19)
P1 P 0.89064(6) 0.33463(13) 0.86147(7)
F1 F 0.86690(16) 0.2777(3) 0.84055(17)
F2 F 0.91438(15) 0.3959(4) 0.8798(2)
F3 F 0.8785(3) 0.3808(5) 0.8251(3)
F4 F 0.9077(4) 0.2908(6) 0.8936(3)
F5 F 0.8566(3) 0.3565(7) 0.8862(4)
F6 F 0.9254(2) 0.3176(6) 0.8367(3)
P2 P 0.5000 0.2815(2) 0.99502(15)
F7 F 0.45747(17) 0.2856(6) 0.9961(3)
F8 F 0.5000 0.2198(5) 1.0240(3)
F9 F 0.5000 0.3520(5) 0.9702(4)
F10 F 0.5000 0.2385(5) 0.9578(2)
F11 F 0.5000 0.3313(6) 1.0335(3)
F7J F 0.54253(17) 0.2856(6) 0.9961(3)
N15 N 0.5000 0.9649(6) 0.9312(4)
C47 C 0.5000 0.9143(6) 0.9137(4)
C48 C 0.5000 0.8446(6) 0.8967(5)
N16 N 1.0000 0.9740(8) 0.6864(7)
C49 C 1.0000 0.9177(9) 0.6983(7)
C50 C 1.0000 0.8475(9) 0.7141(8)
F12? F 0.8745(4) 0.2980(7) 0.8985(3)
F13? F 0.9211(4) 0.2765(7) 0.8652(5)
F14? F 0.9072(4) 0.3575(8) 0.8223(3)
F15? F 0.8559(3) 0.3798(9) 0.8701(5)
F16? F 0.5338(4) 0.3250(8) 0.9819(4)
F17? F 0.5255(5) 0.2299(7) 1.0162(4)
F18? F 0.0322(5) 0.2858(10) 0.7067(5)
F19? F 0.0296(5) 0.2779(10) 0.6440(5)
P3? P 0.7500 0.33353(17) 0.7500
F20? F 0.7500 0.2533(3) 0.7500
F21? F 0.78291(18) 0.3396(4) 0.7785(2)
F22? F 0.7500 0.4148(4) 0.7500
F23? F 0.7219(2) 0.3349(4) 0.7865(2)
P4? P 0.65816(14) 0.5000 1.0000
F24? F 0.6890(2) 0.4687(4) 0.9738(3)
F25? F 0.6289(2) 0.4728(4) 0.9695(3)
F26? F 0.6554(3) 0.4266(4) 1.0198(2)
P5? P 0.0000 0.2816(4) 0.6773(2)
F27? F 0.0000 0.2832(9) 0.6320(3)
F28? F 0.0000 0.2775(8) 0.7220(3)
F29? F 0.0425(3) 0.2671(12) 0.6766(5)
F30? F 0.0000 0.1997(6) 0.6794(6)
F31? F 0.0000 0.3629(5) 0.6783(5)
H43? H 0.9855 0.8466 0.7376
H44? H 1.0251 0.8334 0.7197
H45? H 0.9893 0.8153 0.6955
H46? H 0.5247 0.8333 0.8878
H47? H 0.4830 0.8436 0.8751
H48? H 0.4923 0.8105 0.9158
P6? P 0.7688(2) 0.2180(4) 0.4862(2)
F32? F 0.7630(3) 0.2346(5) 0.5296(2)
F33? F 0.7945(4) 0.2819(6) 0.4811(4)
F34? F 0.7407(4) 0.1557(7) 0.4902(4)
F35? F 0.8011(3) 0.1690(6) 0.4947(4)
F36? F 0.7712(5) 0.2023(8) 0.4421(3)
loop_
_geom_bond_atom_site_label_1
_geom_bond_atom_site_label_2
_geom_bond_site_symmetry_1
_geom_bond_site_symmetry_2
Ru1 N1 1_555 1_555
Ag1 N8 1_555 1_555
Ag2 N4 1_555 1_555
N1 C1 1_555 1_555
C1 C2 1_555 1_555
C2 H1 1_555 1_555
C3 C2 1_555 1_555
H2 C3 1_555 1_555
C4 C3 1_555 1_555
H3 C4 1_555 1_555
C5 N1 1_555 1_555
H4 C5 1_555 1_555
N2 N3 1_555 1_555
N3 Ru1 1_555 1_555
C6 C1 1_555 1_555
C7 C6 1_555 1_555
H5 C7 1_555 1_555
C8 N2 1_555 1_555
H6 C8 1_555 1_555
C9 N2 1_555 1_555
H7 C9 1_555 1_555
H8 C9 1_555 1_555
C10 C9 1_555 1_555
C11 C10 1_555 1_555
H9 C11 1_555 1_555
N4 C11 1_555 1_555
C12 N4 1_555 1_555
H10 C12 1_555 1_555
C13 C12 1_555 1_555
H11 C13 1_555 1_555
C14 C10 1_555 1_555
H12 C14 1_555 1_555
N5 Ru1 1_555 1_555
C15 N5 1_555 1_555
C16 C15 1_555 1_555
H13 C16 1_555 1_555
C17 C16 1_555 1_555
H14 C17 1_555 1_555
C18 C17 1_555 1_555
H15 C18 1_555 1_555
C19 N5 1_555 1_555
H16 C19 1_555 1_555
N6 N7 1_555 1_555
N7 Ru1 1_555 1_555
C20 C15 1_555 1_555
C21 C20 1_555 1_555
H17 C21 1_555 1_555
C22 N6 1_555 1_555
H18 C22 1_555 1_555
C23 N6 1_555 1_555
H19 C23 1_555 1_555
H20 C23 1_555 1_555
C24 C23 1_555 1_555
C25 C24 1_555 1_555
H21 C25 1_555 1_555
N8 C25 1_555 1_555
C26 N8 1_555 1_555
H22 C26 1_555 1_555
C27 C26 1_555 1_555
H23 C27 1_555 1_555
C28 C24 1_555 1_555
H24 C28 1_555 1_555
N9 C29 1_555 1_555
C29 C30 1_555 1_555
C30 H25 1_555 1_555
C31 C30 1_555 1_555
H26 C31 1_555 1_555
C32 C31 1_555 1_555
H27 C32 1_555 1_555
C33 N9 1_555 1_555
H28 C33 1_555 1_555
N10 N11 1_555 1_555
N11 C34 1_555 1_555
C34 C29 1_555 1_555
C35 C34 1_555 1_555
H29 C35 1_555 1_555
C36 N10 1_555 1_555
H30 C36 1_555 1_555
C37 N10 1_555 1_555
H31 C37 1_555 1_555
H32 C37 1_555 1_555
C38 C37 1_555 1_555
C39 C38 1_555 1_555
H33 C39 1_555 1_555
N12 Ag2 1_555 1_555
C40 N12 1_555 1_555
H34 C40 1_555 1_555
C41 C40 1_555 1_555
H35 C41 1_555 1_555
C42 C38 1_555 1_555
H36 C42 1_555 1_555
N13 Ag2 1_555 1_555
C43 N13 1_555 1_555
C44 C43 1_555 1_555
H37 C44 1_555 1_555
H38 C44 1_555 1_555
H39 C44 1_555 1_555
N14 Ag2 1_555 1_555
C45 N14 1_555 1_555
C46 C45 1_555 1_555
H40 C46 1_555 1_555
H41 C46 1_555 1_555
H42 C46 1_555 1_555
P1 F1 1_555 1_555
F2 P1 1_555 1_555
F3 P1 1_555 1_555
F4 P1 1_555 1_555
F5 P1 1_555 1_555
F6 P1 1_555 1_555
P2 F7 1_555 1_555
F8 P2 1_555 1_555
F9 P2 1_555 1_555
F10 P2 1_555 1_555
F11 P2 1_555 1_555
N15 C47 1_555 1_555
C47 C48 1_555 1_555
N16 C49 1_555 1_555
C49 C50 1_555 1_555
Ru1G N9 1_555 1_555
Ag2G N4G 1_555 1_555
N1G Ru1G 1_555 1_555
C1G N1G 1_555 1_555
C2G C1G 1_555 1_555
H1G C2G 1_555 1_555
C3G C2G 1_555 1_555
H2G C3G 1_555 1_555
C4G C3G 1_555 1_555
H3G C4G 1_555 1_555
C5G N1G 1_555 1_555
H4G C5G 1_555 1_555
N2G N3G 1_555 1_555
N3G Ru1G 1_555 1_555
C6G C1G 1_555 1_555
C7G C6G 1_555 1_555
H5G C7G 1_555 1_555
C8G N2G 1_555 1_555
H6G C8G 1_555 1_555
C9G N2G 1_555 1_555
H7G C9G 1_555 1_555
H8G C9G 1_555 1_555
C10G C9G 1_555 1_555
C11G C10G 1_555 1_555
H9G C11G 1_555 1_555
N4G C11G 1_555 1_555
C12G N4G 1_555 1_555
H10G C12G 1_555 1_555
C13G C12G 1_555 1_555
H11G C13G 1_555 1_555
C14G C10G 1_555 1_555
H12G C14G 1_555 1_555
N5G Ru1G 1_555 1_555
C15G N5G 1_555 1_555
C16G C15G 1_555 1_555
H13G C16G 1_555 1_555
C17G C16G 1_555 1_555
H14G C17G 1_555 1_555
C18G C17G 1_555 1_555
H15G C18G 1_555 1_555
C19G N5G 1_555 1_555
H16G C19G 1_555 1_555
N6G N7G 1_555 1_555
N7G Ru1G 1_555 1_555
C20G C15G 1_555 1_555
C21G C20G 1_555 1_555
H17G C21G 1_555 1_555
C22G N6G 1_555 1_555
H18G C22G 1_555 1_555
C23G N6G 1_555 1_555
H19G C23G 1_555 1_555
H20G C23G 1_555 1_555
C24G C23G 1_555 1_555
C25G C24G 1_555 1_555
H21G C25G 1_555 1_555
N8G C25G 1_555 1_555
C26G N8G 1_555 1_555
H22G C26G 1_555 1_555
C27G C26G 1_555 1_555
H23G C27G 1_555 1_555
C28G C24G 1_555 1_555
H24G C28G 1_555 1_555
N9G Ru1 1_555 1_555
C29G N9G 1_555 1_555
C30G C29G 1_555 1_555
H25G C30G 1_555 1_555
C31G C30G 1_555 1_555
H26G C31G 1_555 1_555
C32G C31G 1_555 1_555
H27G C32G 1_555 1_555
C33G N9G 1_555 1_555
H28G C33G 1_555 1_555
N10G N11G 1_555 1_555
N11G Ru1 1_555 1_555
C34G C29G 1_555 1_555
C35G C34G 1_555 1_555
H29G C35G 1_555 1_555
C36G N10G 1_555 1_555
H30G C36G 1_555 1_555
C37G N10G 1_555 1_555
H31G C37G 1_555 1_555
H32G C37G 1_555 1_555
C38G C37G 1_555 1_555
C39G C38G 1_555 1_555
H33G C39G 1_555 1_555
N12G Ag2G 1_555 1_555
C40G N12G 1_555 1_555
H34G C40G 1_555 1_555
C41G C40G 1_555 1_555
H35G C41G 1_555 1_555
C42G C38G 1_555 1_555
H36G C42G 1_555 1_555
N13G Ag2G 1_555 1_555
C43G N13G 1_555 1_555
C44G C43G 1_555 1_555
H37G C44G 1_555 1_555
H38G C44G 1_555 1_555
H39G C44G 1_555 1_555
N14G Ag2G 1_555 1_555
C45G N14G 1_555 1_555
C46G C45G 1_555 1_555
H40G C46G 1_555 1_555
H41G C46G 1_555 1_555
H42G C46G 1_555 1_555
Ag1B Ag1 1_555 1_555
Ag1G N8G 1_555 1_555
N8J Ag1 1_555 1_555
F7J P2 1_555 1_555
C4 C5 1_555 1_555
N3 C6 1_555 1_555
C7 C8 1_555 1_555
C13 C14 1_555 1_555
C18 C19 1_555 1_555
N7 C20 1_555 1_555
C21 C22 1_555 1_555
C27 C28 1_555 1_555
C32 C33 1_555 1_555
N11 Ru1G 1_555 1_555
C35 C36 1_555 1_555
C39 N12 1_555 1_555
C41 C42 1_555 1_555
C4G C5G 1_555 1_555
N3G C6G 1_555 1_555
C7G C8G 1_555 1_555
C13G C14G 1_555 1_555
C18G C19G 1_555 1_555
N7G C20G 1_555 1_555
C21G C22G 1_555 1_555
C27G C28G 1_555 1_555
C32G C33G 1_555 1_555
N11G C34G 1_555 1_555
C35G C36G 1_555 1_555
C39G N12G 1_555 1_555
C41G C42G 1_555 1_555

#END
