
#######################################################################
#
#                 Cambridge Crystallographic Data Centre
#                                CCDC 
#
#######################################################################
#
# If this CIF has been generated from an entry in the Cambridge 
# Structural Database, then it will include bibliographic, chemical, 
# crystal, experimental, refinement or atomic coordinate data resulting 
# from the CCDC's data processing and validation procedures.
#
#######################################################################

data_VOSSUT
_symmetry_cell_setting           monoclinic
_symmetry_space_group_name_H-M   'P 21/n'
_symmetry_Int_Tables_number      14
_space_group_name_Hall           '-P 2yn'
loop_
_symmetry_equiv_pos_site_id
_symmetry_equiv_pos_as_xyz
1 x,y,z
2 1/2-x,1/2+y,1/2-z
3 -x,-y,-z
4 1/2+x,1/2-y,1/2+z
_cell_length_a                   8.1375(16)
_cell_length_b                   14.897(3)
_cell_length_c                   9.4277(19)
_cell_angle_alpha                90
_cell_angle_beta                 102.14(3)
_cell_angle_gamma                90
_cell_volume                     1117.31
loop_
_atom_site_label
_atom_site_type_symbol
_atom_site_fract_x
_atom_site_fract_y
_atom_site_fract_z
Co1 Co 0.14920(8) 0.21370(4) 0.37808(7)
Co2 Co -0.47627(8) 0.15251(4) -0.42886(6)
O1 O -0.0099(5) 0.1463(2) 0.2184(3)
O2 O -0.1368(4) 0.2338(2) 0.0350(3)
O3 O 0.0696(6) 0.1265(3) 0.5228(4)
H1 H 0.0392 0.0697 0.5201
H2 H 0.0515 0.1437 0.6093
O4 O -0.3487(5) 0.2021(3) -0.5836(4)
H3 H -0.2463 0.2143 -0.5584
H4 H -0.4174 0.2421 -0.6339
O5 O -0.2754(4) 0.1998(2) -0.2678(3)
O6 O -0.0160(5) 0.1431(2) -0.2187(4)
O7 O -0.3342(4) 0.0342(2) -0.4275(3)
O8 O -0.3401(4) -0.1131(2) -0.3894(3)
O9 O -0.3983(4) -0.1083(2) 0.2739(3)
O10 O -0.4690(4) -0.2003(2) 0.0815(3)
C1 C -0.2495(6) 0.0119(3) 0.1137(5)
H5 H -0.2331 0.0209 0.2134
C2 C -0.1954(6) 0.0769(3) 0.0276(5)
C3 C -0.2199(6) 0.0640(3) -0.1228(5)
C4 C -0.2907(6) -0.0165(3) -0.1830(5)
C5 C -0.3433(6) -0.0802(3) -0.0949(5)
H6 H -0.3903 -0.1336 -0.1356
C6 C -0.3273(6) -0.0659(3) 0.0532(5)
C7 C -0.4024(6) -0.1295(3) 0.1442(5)
C8 C -0.1085(6) 0.1583(3) 0.0999(5)
C9 C -0.1647(6) 0.1390(3) -0.2099(5)
C10 C -0.3226(6) -0.0317(3) -0.3431(5)
Co1A Co -0.64920(8) -0.28630(4) 0.12192(7)
Co1B Co -0.14920(8) -0.21370(4) -0.37808(7)
Co1C Co -0.35080(8) 0.28630(4) -0.12192(7)
Co2B Co -0.52373(8) -0.15251(4) -0.57114(6)
Co2B_2 Co -0.52373(8) -0.15251(4) 0.42886(6)
Co2C Co 0.02373(8) 0.34749(4) 0.07114(6)
O2C O -0.6368(4) 0.2662(2) -0.4650(3)
O2C_2 O 0.3632(4) 0.2662(2) 0.5350(3)
O5C O 0.2246(4) 0.3002(2) 0.2322(3)
O8B O -0.6599(4) 0.1131(2) -0.6106(3)
O8B_2 O 0.3401(4) 0.1131(2) 0.3894(3)
O9B O -0.6017(4) 0.1083(2) -0.2739(3)
O10A O -0.0310(4) 0.2997(2) 0.4185(3)
loop_
_geom_bond_atom_site_label_1
_geom_bond_atom_site_label_2
_geom_bond_site_symmetry_1
_geom_bond_site_symmetry_2
Co1 O1 1_555 1_555
Co2 O4 1_555 1_555
O1 C8 1_555 1_555
O2 C8 1_555 1_555
O3 Co1 1_555 1_555
H1 O3 1_555 1_555
H2 O3 1_555 1_555
O4 H3 1_555 1_555
H4 O4 1_555 1_555
O5 Co2 1_555 1_555
O6 C9 1_555 1_555
O7 Co2 1_555 1_555
O8 C10 1_555 1_555
O9 C7 1_555 1_555
O10 C7 1_555 1_555
C1 H5 1_555 1_555
C2 C1 1_555 1_555
C3 C2 1_555 1_555
C4 C3 1_555 1_555
C5 C4 1_555 1_555
H6 C5 1_555 1_555
C6 C1 1_555 1_555
C7 C6 1_555 1_555
C8 C2 1_555 1_555
C9 O5 1_555 1_555
C10 O7 1_555 1_555
Co1A O10 1_555 1_555
Co1B O8 1_555 1_555
Co1C O2 1_555 1_555
Co2B O8 1_555 1_555
Co2B_2 O9 1_555 1_555
Co2C O2 1_555 1_555
O2C Co2 1_555 1_555
O2C_2 Co1 1_555 1_555
O5C Co1 1_555 1_555
O8B Co2 1_555 1_555
O8B_2 Co1 1_555 1_555
O9B Co2 1_555 1_555
O10A Co1 1_555 1_555
O5 Co1C 1_555 1_555
C3 C9 1_555 1_555
C4 C10 1_555 1_555
C5 C6 1_555 1_555
Co2C O5C 1_555 1_555

#END
