
#######################################################################
#
#                 Cambridge Crystallographic Data Centre
#                                CCDC 
#
#######################################################################
#
# If this CIF has been generated from an entry in the Cambridge 
# Structural Database, then it will include bibliographic, chemical, 
# crystal, experimental, refinement or atomic coordinate data resulting 
# from the CCDC's data processing and validation procedures.
#
#######################################################################

data_VOSTII
_symmetry_cell_setting           monoclinic
_symmetry_space_group_name_H-M   'P 21/c'
_symmetry_Int_Tables_number      14
_space_group_name_Hall           '-P 2ybc'
loop_
_symmetry_equiv_pos_site_id
_symmetry_equiv_pos_as_xyz
1 x,y,z
2 -x,1/2+y,1/2-z
3 -x,-y,-z
4 x,1/2-y,1/2+z
_cell_length_a                   12.013(3)
_cell_length_b                   23.785(6)
_cell_length_c                   12.623(3)
_cell_angle_alpha                90
_cell_angle_beta                 94.281(5)
_cell_angle_gamma                90
_cell_volume                     3596.7
loop_
_atom_site_label
_atom_site_type_symbol
_atom_site_fract_x
_atom_site_fract_y
_atom_site_fract_z
Ag1 Ag 1.60444(19) 0.21497(9) 0.34274(17)
C1 C 1.441(2) 0.2191(10) 0.5122(19)
H1 H 1.4606 0.2568 0.5106
N1 N 1.0112(17) -0.2093(8) 0.5538(16)
H2 H 0.9995 -0.2450 0.5513
C2 C 1.1606(19) -0.2054(9) 0.4203(16)
N2 N 1.1592(14) 0.1574(7) 0.6791(13)
H3 H 1.1712 0.1919 0.6969
C3 C 0.9262(16) 0.0255(9) 0.7374(18)
H4 H 0.9101 0.0581 0.7740
N3 N 0.8639(14) -0.0164(7) 0.7487(15)
C4 C 0.8862(16) -0.0662(9) 0.701(2)
H5 H 0.8394 -0.0969 0.7086
N4 N 0.9606(15) -0.1725(7) 0.6140(14)
C5 C 1.3547(19) 0.2031(9) 0.572(2)
H6 H 1.3226 0.2285 0.6165
N5 N 1.4976(16) 0.1821(8) 0.4563(15)
C6 C 1.0415(14) -0.0234(8) 0.6286(15)
H7 H 1.1020 -0.0255 0.5869
N6 N 1.0760(14) 0.1246(7) 0.7146(14)
C7 C 1.3765(18) 0.1091(9) 0.5031(16)
H8 H 1.3560 0.0714 0.4983
N7 N 1.1794(13) 0.0729(6) 0.6026(13)
C8 C 1.0912(16) 0.0751(8) 0.6657(15)
N8 N 1.0841(13) -0.1259(7) 0.5187(12)
C9 C 1.3172(19) 0.1480(8) 0.5628(15)
N9 N 1.2978(19) -0.2455(10) 0.2748(18)
C10 C 1.2209(16) 0.1275(8) 0.6110(16)
C11 C 1.0160(14) 0.0274(8) 0.6755(15)
C12 C 1.4657(17) 0.1296(9) 0.4524(16)
H9 H 1.5056 0.1046 0.4132
C13 C 0.9782(16) -0.0711(8) 0.6430(16)
C14 C 1.0070(15) -0.1239(8) 0.5935(15)
C15 C 1.0854(16) -0.1801(8) 0.4964(15)
C16 C 1.255(2) -0.1750(9) 0.3961(18)
H10 H 1.2728 -0.1406 0.4282
C17 C 1.135(2) -0.2583(10) 0.376(2)
H11 H 1.0764 -0.2799 0.3981
C18 C 1.3203(18) -0.1978(10) 0.3235(18)
H12 H 1.3843 -0.1785 0.3077
C19 C 1.199(3) -0.2762(13) 0.300(2)
H13 H 1.1802 -0.3091 0.2637
Ag1A Ag 1.39556(19) -0.28503(9) 0.15726(17)
N9A N 1.7022(19) 0.2545(10) 0.2252(18)
O23 O 0.165(2) 0.2653(10) 0.7443(19)
O24 O -0.037(2) -0.3177(10) 0.5731(19)
P1 P 0.5000 0.0000 0.0000
O1 O 0.747(2) -0.0746(9) -0.0753(18)
O2 O 0.5825(14) 0.1419(8) -0.0845(17)
O3 O 0.6763(13) 0.0589(7) -0.1943(16)
O4 O 0.4631(13) 0.0878(8) -0.2445(17)
O5 O 0.5349(17) 0.0458(8) -0.0885(18)
O6 O 0.5338(13) 0.1162(7) 0.1943(17)
O7 O 0.705(2) 0.1102(8) 0.0851(14)
O8 O 0.4091(18) 0.1500(9) 0.0287(15)
O9 O 0.5854(12) 0.0185(6) 0.2871(18)
O10 O 0.284(2) 0.0884(9) -0.1333(19)
O11 O 0.7592(19) 0.0095(7) 0.1690(13)
O12 O 0.800(2) 0.0313(7) -0.0284(13)
O13 O 0.9207(11) -0.0525(7) 0.0711(11)
O14 O 0.6279(12) -0.0454(6) -0.2408(17)
O15 O 0.7431(14) 0.1019(7) 0.3009(13)
O16 O 0.8094(13) 0.1420(6) -0.0920(13)
O17 O 0.3288(14) 0.1594(6) 0.2163(12)
O18 O 0.3899(14) 0.1911(6) -0.1844(12)
O19 O 0.5803(12) 0.0332(7) -0.3967(12)
W1 W 0.78514(6) -0.03557(4) 0.04934(7)
W2 W 0.42412(7) 0.12866(3) -0.12490(7)
W3 W 0.70828(7) 0.09633(3) -0.06223(7)
W4 W 0.38483(7) 0.10811(3) 0.14651(7)
W5 W 0.55313(7) 0.02361(3) -0.26861(6)
W6 W 0.66472(7) 0.06696(3) 0.20553(6)
O20 O 0.499(2) 0.0282(9) 0.1172(19)
O21 O 0.412(2) 0.0533(9) -0.0022(19)
O22 O 0.625(2) 0.0260(9) 0.0386(19)
O5B O 0.4651(17) -0.0458(8) 0.0885(18)
O20B O 0.501(2) -0.0282(9) -0.1172(19)
O21B O 0.588(2) -0.0533(9) 0.0022(19)
O22B O 0.375(2) -0.0260(9) -0.0386(19)
O1B O 0.253(2) 0.0746(9) 0.0753(18)
O2B O 0.4175(14) -0.1419(8) 0.0845(17)
O3B O 0.3237(13) -0.0589(7) 0.1943(16)
O4B O 0.5369(13) -0.0878(8) 0.2445(17)
O6B O 0.4662(13) -0.1162(7) -0.1943(17)
O7B O 0.295(2) -0.1102(8) -0.0851(14)
O8B O 0.5909(18) -0.1500(9) -0.0287(15)
O9B O 0.4146(12) -0.0185(6) -0.2871(18)
O10B O 0.716(2) -0.0884(9) 0.1333(19)
O11B O 0.2408(19) -0.0095(7) -0.1690(13)
O12B O 0.200(2) -0.0313(7) 0.0284(13)
O13B O 0.0793(11) 0.0525(7) -0.0711(11)
O14B O 0.3721(12) 0.0454(6) 0.2408(17)
O15B O 0.2569(14) -0.1019(7) -0.3009(13)
O16B O 0.1906(13) -0.1420(6) 0.0920(13)
O17B O 0.6712(14) -0.1594(6) -0.2163(12)
O18B O 0.6101(14) -0.1911(6) 0.1844(12)
O19B O 0.4197(12) -0.0332(7) 0.3967(12)
W1B W 0.21486(6) 0.03557(4) -0.04934(7)
W2B W 0.57588(7) -0.12866(3) 0.12490(7)
W3B W 0.29172(7) -0.09633(3) 0.06223(7)
W4B W 0.61517(7) -0.10811(3) -0.14651(7)
W5B W 0.44687(7) -0.02361(3) 0.26861(6)
W6B W 0.33528(7) -0.06696(3) -0.20553(6)
loop_
_geom_bond_atom_site_label_1
_geom_bond_atom_site_label_2
_geom_bond_site_symmetry_1
_geom_bond_site_symmetry_2
P1 O5 1_555 1_555
O1 W1 1_555 1_555
O2 W2 1_555 1_555
O3 W3 1_555 1_555
O4 W2 1_555 1_555
O5 W2 1_555 1_555
O6 W4 1_555 1_555
O7 W3 1_555 1_555
O8 W2 1_555 1_555
O9 W6 1_555 1_555
O10 W2 1_555 1_555
O11 W1 1_555 1_555
O12 W1 1_555 1_555
O13 W1 1_555 1_555
O14 W5 1_555 1_555
O15 W6 1_555 1_555
O16 W3 1_555 1_555
O17 W4 1_555 1_555
O18 W2 1_555 1_555
O19 W5 1_555 1_555
W1 O22 1_555 1_555
W2 O21 1_555 1_555
W3 O2 1_555 1_555
W4 O8 1_555 1_555
W5 O3 1_555 1_555
W6 O6 1_555 1_555
O20 P1 1_555 1_555
O21 P1 1_555 1_555
O22 P1 1_555 1_555
Ag1 N5 1_555 1_555
C1 H1 1_555 1_555
N1 H2 1_555 1_555
C2 C15 1_555 1_555
N2 H3 1_555 1_555
C3 H4 1_555 1_555
N3 C3 1_555 1_555
C4 N3 1_555 1_555
H5 C4 1_555 1_555
N4 N1 1_555 1_555
C5 C1 1_555 1_555
H6 C5 1_555 1_555
N5 C1 1_555 1_555
C6 H7 1_555 1_555
N6 N2 1_555 1_555
C7 H8 1_555 1_555
N7 C8 1_555 1_555
C8 N6 1_555 1_555
N8 C14 1_555 1_555
C9 C5 1_555 1_555
N9 C18 1_555 1_555
C10 N2 1_555 1_555
C11 C3 1_555 1_555
C12 N5 1_555 1_555
H9 C12 1_555 1_555
C13 C4 1_555 1_555
C14 N4 1_555 1_555
C15 N1 1_555 1_555
C16 C2 1_555 1_555
H10 C16 1_555 1_555
C17 C2 1_555 1_555
H11 C17 1_555 1_555
C18 C16 1_555 1_555
H12 C18 1_555 1_555
C19 N9 1_555 1_555
H13 C19 1_555 1_555
O5B P1 1_555 1_555
O20B P1 1_555 1_555
O21B P1 1_555 1_555
O22B P1 1_555 1_555
O1B W4 1_555 1_555
O2B W2B 1_555 1_555
O3B W3B 1_555 1_555
O4B W2B 1_555 1_555
O6B W4B 1_555 1_555
O7B W3B 1_555 1_555
O8B W2B 1_555 1_555
O9B W5 1_555 1_555
O10B W1 1_555 1_555
O11B W1B 1_555 1_555
O12B W1B 1_555 1_555
O13B W1B 1_555 1_555
O14B W4 1_555 1_555
O15B W6B 1_555 1_555
O16B W3B 1_555 1_555
O17B W4B 1_555 1_555
O18B W2B 1_555 1_555
O19B W5B 1_555 1_555
W1B O10 1_555 1_555
W2B O5B 1_555 1_555
W3B O5B 1_555 1_555
W4B O1 1_555 1_555
W5B O9 1_555 1_555
W6B O20B 1_555 1_555
Ag1A N9 1_555 1_555
N9A Ag1 1_555 1_555
O4 W5 1_555 1_555
O5 W3 1_555 1_555
O5 W5 1_555 1_555
O7 W6 1_555 1_555
O11 W6 1_555 1_555
O12 W3 1_555 1_555
O14 W4B 1_555 1_555
W1 O21B 1_555 1_555
W3 O22 1_555 1_555
W4 O20 1_555 1_555
W4 O21 1_555 1_555
W5 O20B 1_555 1_555
W6 O20 1_555 1_555
W6 O22 1_555 1_555
O20 W5B 1_555 1_555
O21 W1B 1_555 1_555
C6 C11 1_555 1_555
C6 C13 1_555 1_555
C7 C9 1_555 1_555
C7 C12 1_555 1_555
N7 C10 1_555 1_555
C8 C11 1_555 1_555
N8 C15 1_555 1_555
C9 C10 1_555 1_555
C13 C14 1_555 1_555
C17 C19 1_555 1_555
O5B W5B 1_555 1_555
O20B W4B 1_555 1_555
O21B W2B 1_555 1_555
O21B W4B 1_555 1_555
O22B W1B 1_555 1_555
O22B W3B 1_555 1_555
O22B W6B 1_555 1_555
O1B W1B 1_555 1_555
O2B W3B 1_555 1_555
O3B W5B 1_555 1_555
O4B W5B 1_555 1_555
O6B W6B 1_555 1_555
O7B W6B 1_555 1_555
O8B W4B 1_555 1_555
O9B W6B 1_555 1_555
O10B W2B 1_555 1_555
O11B W6B 1_555 1_555
O12B W3B 1_555 1_555
O14B W5B 1_555 1_555

#END
