
#######################################################################
#
#                 Cambridge Crystallographic Data Centre
#                                CCDC 
#
#######################################################################
#
# If this CIF has been generated from an entry in the Cambridge 
# Structural Database, then it will include bibliographic, chemical, 
# crystal, experimental, refinement or atomic coordinate data resulting 
# from the CCDC's data processing and validation procedures.
#
#######################################################################

data_VOSTAA
_symmetry_cell_setting           rhombohedral
_symmetry_space_group_name_H-M   'R 3 m'
_symmetry_Int_Tables_number      160
_space_group_name_Hall           'R 3 -2"'
loop_
_symmetry_equiv_pos_site_id
_symmetry_equiv_pos_as_xyz
1 x,y,z
2 -y,x-y,z
3 -x+y,-x,z
4 -y,-x,z
5 x,x-y,z
6 -x+y,y,z
7 2/3+x,1/3+y,1/3+z
8 2/3-y,1/3+x-y,1/3+z
9 2/3-x+y,1/3-x,1/3+z
10 2/3-y,1/3-x,1/3+z
11 2/3+x,1/3+x-y,1/3+z
12 2/3-x+y,1/3+y,1/3+z
13 1/3+x,2/3+y,2/3+z
14 1/3-y,2/3+x-y,2/3+z
15 1/3-x+y,2/3-x,2/3+z
16 1/3-y,2/3-x,2/3+z
17 1/3+x,2/3+x-y,2/3+z
18 1/3-x+y,2/3+y,2/3+z
_cell_length_a                   16.9191(4)
_cell_length_b                   16.9191(4)
_cell_length_c                   23.6171(4)
_cell_angle_alpha                90
_cell_angle_beta                 90
_cell_angle_gamma                120
_cell_volume                     5854.8
loop_
_atom_site_label
_atom_site_type_symbol
_atom_site_fract_x
_atom_site_fract_y
_atom_site_fract_z
Si1 Si 0.0000 0.0000 -0.1600(6)
W1 W -0.20405(5) 0.00708(7) -0.16401(4)
W2 W -0.13204(8) -0.06602(4) -0.03619(5)
W3 W -0.07274(4) 0.07274(4) -0.28057(5)
O1 O 0.0000 0.0000 -0.0891(14)
O2 O -0.0521(6) -0.1042(12) -0.1862(9)
O3 O -0.3107(9) -0.0098(10) -0.1559(7)
O4 O -0.2266(12) -0.1133(6) -0.1789(8)
O5 O -0.1759(10) -0.0088(10) -0.0885(7)
O6 O -0.1368(7) 0.1368(7) -0.1499(10)
O7 O -0.1877(9) 0.0311(10) -0.2442(6)
O8 O -0.0515(6) -0.1030(13) -0.0060(8)
O9 O -0.2139(15) -0.1070(7) 0.0144(9)
O10 O -0.0969(7) 0.0969(7) -0.3421(12)
O11 O -0.1025(15) -0.0512(7) -0.2858(9)
O2A O 0.1042(12) 0.0521(13) -0.1862(9)
O2B O -0.0521(13) 0.0521(6) -0.1862(9)
W1A W -0.00708(7) -0.21113(9) -0.16401(4)
W2A W 0.06602(4) -0.06602(9) -0.03619(5)
W3A W -0.07274(4) -0.14548(6) -0.28057(5)
O3A O 0.0098(10) -0.3009(13) -0.1559(7)
O4A O 0.1133(6) -0.1133(13) -0.1789(8)
O5A O 0.0088(10) -0.1671(14) -0.0885(7)
O6A O -0.1368(7) -0.2736(10) -0.1499(10)
O7A O -0.0311(10) -0.2188(13) -0.2442(6)
O8A O 0.1030(13) 0.0515(14) -0.0060(8)
O9A O 0.1070(7) -0.1069(17) 0.0144(9)
O10A O -0.0969(7) -0.1938(10) -0.3421(12)
O11A O 0.0512(7) -0.0513(17) -0.2858(9)
W1B W 0.21113(9) 0.20405(5) -0.16401(4)
W2B W 0.06602(9) 0.13204(8) -0.03619(5)
W3B W 0.14548(6) 0.07274(4) -0.28057(5)
O3B O 0.3009(13) 0.3107(9) -0.1559(7)
O4B O 0.1133(13) 0.2266(12) -0.1789(8)
O5B O 0.1671(14) 0.1759(10) -0.0885(7)
O6B O 0.2736(10) 0.1368(7) -0.1499(10)
O7B O 0.2188(13) 0.1877(9) -0.2442(6)
O8B O -0.0515(14) 0.0515(6) -0.0060(8)
O9B O 0.1069(17) 0.2139(15) 0.0144(9)
O10B O 0.1938(10) 0.0969(7) -0.3421(12)
O11B O 0.0513(17) 0.1025(15) -0.2858(9)
W1C W -0.00708(7) 0.20405(5) -0.16401(4)
O3C O 0.0098(10) 0.3107(9) -0.1559(7)
O5C O 0.0088(10) 0.1759(10) -0.0885(7)
O7C O -0.0311(10) 0.1877(9) -0.2442(6)
W1D W -0.20405(5) -0.21113(9) -0.16401(4)
O3D O -0.3107(9) -0.3009(13) -0.1559(7)
O5D O -0.1759(10) -0.1671(14) -0.0885(7)
O7D O -0.1877(9) -0.2188(13) -0.2442(6)
W1E W 0.21113(9) 0.00708(7) -0.16401(4)
O3E O 0.3009(13) -0.0098(10) -0.1559(7)
O5E O 0.1671(14) -0.0088(10) -0.0885(7)
O7E O 0.2188(13) 0.0311(10) -0.2442(6)
Cu1 Cu -0.26781(12) 0.26781(12) -0.36504(18)
Cu2 Cu -0.3333 0.3333 -0.4671(3)
Cl1 Cl -0.3333 0.3333 -0.2836(6)
C1 C -0.0821(15) 0.2960(15) -0.3731(10)
H1 H -0.1026 0.2704 -0.4087
C2 C -0.1074(16) 0.3470(14) -0.2896(10)
H2 H -0.1465 0.3562 -0.2664
C3 C -0.0213(16) 0.3750(15) -0.2694(12)
H3 H -0.0019 0.4022 -0.2341
C4 C 0.0360(15) 0.3595(15) -0.3059(10)
C5 C 0.1276(14) 0.3831(14) -0.2861(9)
C6 C 0.0063(15) 0.3196(14) -0.3579(10)
H4 H 0.0435 0.3088 -0.3818
N1 N -0.1399(12) 0.3077(11) -0.3399(9)
N2 N 0.1761(12) 0.4350(12) -0.2426(8)
O12 O 0.1740(7) 0.3479(14) -0.3161(10)
O13 O -0.3837(8) 0.2326(16) -0.4010(10)
H5 H -0.4110 0.1781 -0.4132
O14 O -0.2699(11) 0.460(2) -0.5144(13)
H6 H -0.3055 0.4697 -0.5344
C1E C 0.3781(21) 0.2960(15) -0.3731(10)
H1E H 0.3730 0.2704 -0.4087
C2E C 0.4544(21) 0.3470(14) -0.2896(10)
H2E H 0.5027 0.3562 -0.2664
C3E C 0.3963(22) 0.3750(15) -0.2694(12)
H3E H 0.4041 0.4022 -0.2341
C4E C 0.3235(21) 0.3595(15) -0.3059(10)
C5E C 0.2555(20) 0.3831(14) -0.2861(9)
C6E C 0.3133(21) 0.3196(14) -0.3579(10)
H4E H 0.2653 0.3088 -0.3818
N1E N 0.4476(16) 0.3077(11) -0.3399(9)
N2E N 0.2589(17) 0.4350(12) -0.2426(8)
H6E H -0.2248 0.4697 -0.5344
Cu1A Cu -0.26781(12) -0.53562(17) -0.36504(18)
C1A C -0.2960(15) -0.3781(21) -0.3731(10)
H1A H -0.2704 -0.3730 -0.4087
C2A C -0.3470(14) -0.4544(21) -0.2896(10)
H2A H -0.3562 -0.5027 -0.2664
C3A C -0.3750(15) -0.3963(22) -0.2694(12)
H3A H -0.4022 -0.4041 -0.2341
C4A C -0.3595(15) -0.3235(21) -0.3059(10)
C5A C -0.3831(14) -0.2555(20) -0.2861(9)
C6A C -0.3196(14) -0.3133(21) -0.3579(10)
H4A H -0.3088 -0.2653 -0.3818
N1A N -0.3077(11) -0.4476(16) -0.3399(9)
N2A N -0.4350(12) -0.2589(17) -0.2426(8)
O12A O -0.3479(14) -0.1739(16) -0.3161(10)
C1C C -0.2960(15) 0.0821(15) -0.3731(10)
H1C H -0.2704 0.1026 -0.4087
C2C C -0.3470(14) 0.1074(16) -0.2896(10)
H2C H -0.3562 0.1465 -0.2664
C3C C -0.3750(15) 0.0213(16) -0.2694(12)
H3C H -0.4022 0.0019 -0.2341
C4C C -0.3595(15) -0.0360(15) -0.3059(10)
C5C C -0.3831(14) -0.1276(14) -0.2861(9)
C6C C -0.3196(14) -0.0063(15) -0.3579(10)
H4C H -0.3088 -0.0435 -0.3818
N1C N -0.3077(11) 0.1399(12) -0.3399(9)
N2C N -0.4350(12) -0.1761(12) -0.2426(8)
Cu1B Cu -0.46438(17) 0.26781(12) -0.36504(18)
C1B C -0.6219(21) 0.0821(15) -0.3731(10)
H1B H -0.6270 0.1026 -0.4087
C2B C -0.5456(21) 0.1074(16) -0.2896(10)
H2B H -0.4973 0.1465 -0.2664
C3B C -0.6037(22) 0.0213(16) -0.2694(12)
H3B H -0.5959 0.0019 -0.2341
C4B C -0.6765(21) -0.0360(15) -0.3059(10)
C5B C -0.7445(20) -0.1276(14) -0.2861(9)
C6B C -0.6867(21) -0.0063(15) -0.3579(10)
H4B H -0.7347 -0.0435 -0.3818
N1B N -0.5524(16) 0.1399(12) -0.3399(9)
N2B N -0.7411(17) -0.1761(12) -0.2426(8)
O12B O -0.8261(16) -0.1740(7) -0.3161(10)
O13B O -0.3837(18) 0.3837(8) -0.4010(10)
H5B H -0.4109 0.4110 -0.4132
O14B O -0.2701(23) 0.2699(11) -0.5144(13)
H6B H -0.2248 0.3055 -0.5344
C1D C -1.0821(15) -0.3781(21) -0.3731(10)
H1D H -1.1026 -0.3730 -0.4087
C2D C -1.1074(16) -0.4544(21) -0.2896(10)
H2D H -1.1465 -0.5027 -0.2664
C3D C -1.0213(16) -0.3963(22) -0.2694(12)
H3D H -1.0019 -0.4041 -0.2341
C4D C -0.9640(15) -0.3235(21) -0.3059(10)
C5D C -0.8724(14) -0.2555(20) -0.2861(9)
C6D C -0.9937(15) -0.3133(21) -0.3579(10)
H4D H -0.9565 -0.2653 -0.3818
N1D N -1.1399(12) -0.4476(16) -0.3399(9)
N2D N -0.8239(12) -0.2589(17) -0.2426(8)
H6D H -0.3055 0.2248 -0.5344
O13A O -0.2326(16) 0.3837(18) -0.4010(10)
H5A H -0.1781 0.4109 -0.4132
O14A O -0.460(2) 0.2701(23) -0.5144(13)
H6A H -0.4697 0.2248 -0.5344
H6C H -0.4697 0.3055 -0.5344
Cu1A_2 Cu -1.26781(12) -0.53562(17) -0.36504(18)
Cu1A_3 Cu -0.26781(12) 0.46438(17) -0.36504(18)
Cu1B_2 Cu 0.53562(17) 0.26781(12) -0.36504(18)
Cl1_2 Cl -0.3333 -0.6667 -0.2836(6)
N1D_2 N -0.1399(12) -0.4476(16) -0.3399(9)
N1E_2 N -0.5524(16) 0.3077(11) -0.3399(9)
O13A_2 O -0.2326(16) -0.6163(18) -0.4010(10)
O13B_2 O -0.3837(18) -0.6163(8) -0.4010(10)
O15 O -0.4677(9) 0.0645(19) -0.4425(16)
O16 O -0.103(4) 0.4484(18) -0.157(2)
loop_
_geom_bond_atom_site_label_1
_geom_bond_atom_site_label_2
_geom_bond_site_symmetry_1
_geom_bond_site_symmetry_2
Si1 O1 1_555 1_555
W1 O3 1_555 1_555
W2 O1 1_555 1_555
W3 O7 1_555 1_555
O1 W2A 1_555 1_555
O2 Si1 1_555 1_555
O4 W1 1_555 1_555
O5 W1 1_555 1_555
O6 W1 1_555 1_555
O7 W1 1_555 1_555
O8 W2 1_555 1_555
O9 W2 1_555 1_555
O10 W3 1_555 1_555
O11 W3 1_555 1_555
Cu1 Cl1 1_555 1_555
Cu2 O13 1_555 1_555
Cl1 Cu1B 1_555 1_555
C1 H1 1_555 1_555
C2 H2 1_555 1_555
C3 C2 1_555 1_555
H3 C3 1_555 1_555
C4 C3 1_555 1_555
C5 C4 1_555 1_555
C6 C1 1_555 1_555
H4 C6 1_555 1_555
N1 Cu1 1_555 1_555
N2 C5 1_555 1_555
O12 C5 1_555 1_555
O13 Cu1 1_555 1_555
H5 O13 1_555 1_555
O14 Cu2 1_555 1_555
H6 O14 1_555 1_555
O2A Si1 1_555 1_555
O2B Si1 1_555 1_555
W1A O2 1_555 1_555
W2A O8 1_555 1_555
W3A O2 1_555 1_555
O3A W1A 1_555 1_555
O4A W1A 1_555 1_555
O5A W1A 1_555 1_555
O6A W1A 1_555 1_555
O7A W1A 1_555 1_555
O8A W2A 1_555 1_555
O9A W2A 1_555 1_555
O10A W3A 1_555 1_555
O11A W3A 1_555 1_555
W1B O2A 1_555 1_555
W2B O1 1_555 1_555
W3B O2A 1_555 1_555
O3B W1B 1_555 1_555
O4B W1B 1_555 1_555
O5B W1B 1_555 1_555
O6B W1B 1_555 1_555
O7B W1B 1_555 1_555
O8B W2 1_555 1_555
O9B W2B 1_555 1_555
O10B W3B 1_555 1_555
O11B W3 1_555 1_555
W1C O6 1_555 1_555
O3C W1C 1_555 1_555
O5C W2B 1_555 1_555
O7C W3 1_555 1_555
W1D O2 1_555 1_555
O3D W1D 1_555 1_555
O5D W2 1_555 1_555
O7D W3A 1_555 1_555
W1E O2A 1_555 1_555
O3E W1E 1_555 1_555
O5E W2A 1_555 1_555
O7E W3B 1_555 1_555
C1E H1E 1_555 1_555
C2E H2E 1_555 1_555
C3E C2E 1_555 1_555
H3E C3E 1_555 1_555
C4E C3E 1_555 1_555
C5E O12 1_555 1_555
C6E C1E 1_555 1_555
H4E C6E 1_555 1_555
N1E C1E 1_555 1_555
N2E N2 1_555 1_555
H6E O14 1_555 1_555
Cu1A N1A 1_555 1_555
C1A H1A 1_555 1_555
C2A H2A 1_555 1_555
C3A C2A 1_555 1_555
H3A C3A 1_555 1_555
C4A C3A 1_555 1_555
C5A C4A 1_555 1_555
C6A C1A 1_555 1_555
H4A C6A 1_555 1_555
N1A C1A 1_555 1_555
N2A C5A 1_555 1_555
O12A C5A 1_555 1_555
C1C H1C 1_555 1_555
C2C H2C 1_555 1_555
C3C C2C 1_555 1_555
H3C C3C 1_555 1_555
C4C C3C 1_555 1_555
C5C O12A 1_555 1_555
C6C C1C 1_555 1_555
H4C C6C 1_555 1_555
N1C Cu1 1_555 1_555
N2C N2A 1_555 1_555
Cu1B O13 1_555 1_555
C1B H1B 1_555 1_555
C2B H2B 1_555 1_555
C3B C2B 1_555 1_555
H3B C3B 1_555 1_555
C4B C3B 1_555 1_555
C5B C4B 1_555 1_555
C6B C1B 1_555 1_555
H4B C6B 1_555 1_555
N1B Cu1B 1_555 1_555
N2B C5B 1_555 1_555
O12B C5B 1_555 1_555
O13B Cu2 1_555 1_555
H5B O13B 1_555 1_555
O14B Cu2 1_555 1_555
H6B O14B 1_555 1_555
C1D H1D 1_555 1_555
C2D H2D 1_555 1_555
C3D C2D 1_555 1_555
H3D C3D 1_555 1_555
C4D C3D 1_555 1_555
C5D O12B 1_555 1_555
C6D C1D 1_555 1_555
H4D C6D 1_555 1_555
N1D C1D 1_555 1_555
N2D N2B 1_555 1_555
H6D O14B 1_555 1_555
O13A Cu1 1_555 1_555
H5A O13A 1_555 1_555
O14A Cu2 1_555 1_555
H6A O14A 1_555 1_555
H6C O14A 1_555 1_555
Cu1A_2 N1D 1_555 1_555
Cu1A_3 Cl1 1_555 1_555
Cu1B_2 N1E 1_555 1_555
Cl1_2 Cu1A 1_555 1_555
N1D_2 Cu1A 1_555 1_555
N1E_2 Cu1B 1_555 1_555
O13A_2 Cu1A 1_555 1_555
O13B_2 Cu1A 1_555 1_555
W1 O2B 1_555 1_555
W2 O5 1_555 1_555
W3 O2B 1_555 1_555
O4 W1D 1_555 1_555
O11 W3A 1_555 1_555
Cu2 O13A 1_555 1_555
C1 N1 1_555 1_555
C2 N1 1_555 1_555
C4 C6 1_555 1_555
O2B W1C 1_555 1_555
W2A O5A 1_555 1_555
W3A O7A 1_555 1_555
O4A W1E 1_555 1_555
O6A W1D 1_555 1_555
O8A W2B 1_555 1_555
O11A W3B 1_555 1_555
W2B O5B 1_555 1_555
W2B O8B 1_555 1_555
W3B O7B 1_555 1_555
W3B O11B 1_555 1_555
O4B W1C 1_555 1_555
O6B W1E 1_555 1_555
W1C O5C 1_555 1_555
W1C O7C 1_555 1_555
W1D O5D 1_555 1_555
W1D O7D 1_555 1_555
W1E O5E 1_555 1_555
W1E O7E 1_555 1_555
C2E N1E 1_555 1_555
C4E C5E 1_555 1_555
C4E C6E 1_555 1_555
C5E N2E 1_555 1_555
C2A N1A 1_555 1_555
C4A C6A 1_555 1_555
C1C N1C 1_555 1_555
C2C N1C 1_555 1_555
C4C C5C 1_555 1_555
C4C C6C 1_555 1_555
C5C N2C 1_555 1_555
Cu1B O13B 1_555 1_555
C1B N1B 1_555 1_555
C2B N1B 1_555 1_555
C4B C6B 1_555 1_555
O13B Cu1A_3 1_555 1_555
C2D N1D 1_555 1_555
C4D C5D 1_555 1_555
C4D C6D 1_555 1_555
C5D N2D 1_555 1_555
O13A Cu1A_3 1_555 1_555

#END
