
#######################################################################
#
#                 Cambridge Crystallographic Data Centre
#                                CCDC 
#
#######################################################################
#
# If this CIF has been generated from an entry in the Cambridge 
# Structural Database, then it will include bibliographic, chemical, 
# crystal, experimental, refinement or atomic coordinate data resulting 
# from the CCDC's data processing and validation procedures.
#
#######################################################################

data_VOSTEE
_symmetry_cell_setting           monoclinic
_symmetry_space_group_name_H-M   'P 21/c'
_symmetry_Int_Tables_number      14
_space_group_name_Hall           '-P 2ybc'
loop_
_symmetry_equiv_pos_site_id
_symmetry_equiv_pos_as_xyz
1 x,y,z
2 -x,1/2+y,1/2-z
3 -x,-y,-z
4 x,1/2-y,1/2+z
_cell_length_a                   11.997(6)
_cell_length_b                   23.872(13)
_cell_length_c                   12.574(6)
_cell_angle_alpha                90
_cell_angle_beta                 92.925(13)
_cell_angle_gamma                90
_cell_volume                     3596.41
loop_
_atom_site_label
_atom_site_type_symbol
_atom_site_fract_x
_atom_site_fract_y
_atom_site_fract_z
Cu1 Cu 0.1102(3) 0.21098(14) 0.3455(2)
N1 N -0.6289(12) -0.0160(6) 0.7415(15)
N2 N -0.4065(11) -0.1267(6) 0.5067(12)
N3 N 0.0091(12) 0.1815(6) 0.4422(12)
N4 N -0.4193(12) 0.1244(6) 0.7067(13)
N5 N -0.3109(13) 0.0747(6) 0.5996(14)
C1 C -0.3979(13) 0.0755(7) 0.6605(14)
C2 C -0.1076(17) 0.1106(8) 0.5042(16)
H1 H -0.1224 0.0725 0.5083
N6 N -0.3367(13) 0.1560(7) 0.6726(14)
H2 H -0.3261 0.1906 0.6891
C3 C -0.4880(13) -0.1231(8) 0.5803(15)
C4 C -0.5150(14) -0.0693(8) 0.6339(16)
C5 C -0.0201(16) 0.1290(8) 0.4467(17)
H3 H 0.0199 0.1028 0.4094
C6 C -0.4739(14) 0.0268(7) 0.6699(14)
N7 N -0.5388(15) -0.1705(7) 0.6002(16)
C7 C -0.5679(18) 0.0266(9) 0.7331(17)
H4 H -0.5855 0.0590 0.7698
C8 C -0.4452(14) -0.0239(7) 0.6232(14)
H5 H -0.3806 -0.0270 0.5858
C9 C -0.4086(16) -0.1800(7) 0.4802(15)
C10 C -0.1721(17) 0.1473(7) 0.5548(15)
N8 N -0.4852(14) -0.2081(7) 0.5365(16)
H6 H -0.4981 -0.2435 0.5329
N9 N -0.2033(16) -0.2551(7) 0.2541(14)
C11 C -0.2717(14) 0.1259(8) 0.6085(15)
C12 C -0.1394(17) 0.2036(8) 0.5596(17)
H7 H -0.1747 0.2294 0.6018
C13 C -0.051(2) 0.2190(9) 0.4975(18)
H8 H -0.0319 0.2567 0.4938
C14 C -0.6057(14) -0.0657(7) 0.6957(18)
H9 H -0.6505 -0.0968 0.7059
C15 C -0.302(2) -0.2793(9) 0.278(2)
H10 H -0.3249 -0.3117 0.2423
C16 C -0.3435(16) -0.2070(8) 0.4004(15)
C17 C -0.1765(18) -0.2070(9) 0.3028(17)
H11 H -0.1101 -0.1898 0.2858
C18 C -0.2384(19) -0.1814(9) 0.3749(18)
H12 H -0.2145 -0.1482 0.4075
C19 C -0.3679(18) -0.2576(9) 0.354(2)
H13 H -0.4302 -0.2775 0.3736
Cu1A Cu -0.1102(3) -0.28902(14) 0.1545(2)
N9A N 0.2033(16) 0.2449(7) 0.2459(14)
O23 O -0.336(2) 0.2640(10) 0.748(2)
O24 O -0.549(2) -0.3194(11) 0.560(2)
W1 W 0.16267(6) 0.43315(3) 0.70440(6)
W2 W -0.05743(6) 0.52367(3) 0.77073(6)
W3 W 0.20955(6) 0.40339(3) 0.43496(7)
W4 W -0.11779(6) 0.39191(3) 0.64855(6)
W5 W -0.07564(7) 0.37173(3) 0.37546(7)
W6 W 0.28596(6) 0.53532(4) 0.54598(7)
Si1 Si 0.0000 0.5000 0.5000
O1 O 0.4222(10) 0.5522(6) 0.5703(11)
O2 O -0.1075(14) 0.3105(6) 0.3164(11)
O3 O -0.0843(11) 0.5328(7) 0.9006(11)
O4 O -0.1751(12) 0.3417(6) 0.7212(13)
O5 O 0.2382(14) 0.3987(6) 0.8017(13)
O6 O 0.3101(13) 0.3598(6) 0.4030(13)
O7 O 0.3002(16) 0.4702(7) 0.4670(16)
O8 O -0.1309(11) 0.4540(6) 0.7455(16)
O9 O -0.0959(17) 0.3506(9) 0.5233(14)
O10 O 0.0312(12) 0.3853(7) 0.6939(17)
O11 O 0.0845(11) 0.4828(5) 0.7852(16)
O12 O 0.2644(17) 0.4897(7) 0.6700(13)
O13 O 0.0807(13) 0.3583(8) 0.4082(15)
O14 O -0.1781(13) 0.5605(7) 0.7042(16)
O15 O -0.2168(17) 0.4051(8) 0.3726(12)
O16 O 0.2084(16) 0.3912(7) 0.5812(14)
O17 O 0.2538(17) 0.5766(9) 0.4225(12)
O18 O 0.0338(13) 0.5885(7) 0.7441(18)
O19 O 0.1226(15) 0.4748(8) 0.5352(16)
O20 O 0.0346(18) 0.4541(8) 0.4052(19)
O21 O -0.0919(19) 0.4451(9) 0.4984(17)
O22 O -0.0034(18) 0.4708(9) 0.618(2)
O19B O -0.1226(15) 0.5252(8) 0.4648(16)
O20B O -0.0346(18) 0.5459(8) 0.5948(19)
O21B O 0.0919(19) 0.5549(9) 0.5016(17)
O22B O 0.0034(18) 0.5292(9) 0.382(2)
W1B W -0.16267(6) 0.56685(3) 0.29560(6)
W2B W 0.05743(6) 0.47633(3) 0.22927(6)
W3B W -0.20955(6) 0.59661(3) 0.56504(7)
W4B W 0.11779(6) 0.60809(3) 0.35145(6)
W5B W 0.07564(7) 0.62827(3) 0.62454(7)
W6B W -0.28596(6) 0.46468(4) 0.45402(7)
O1B O -0.4222(10) 0.4478(6) 0.4297(11)
O2B O 0.1075(14) 0.6895(6) 0.6836(11)
O3B O 0.0843(11) 0.4672(7) 0.0994(11)
O4B O 0.1751(12) 0.6583(6) 0.2788(13)
O5B O -0.2382(14) 0.6013(6) 0.1983(13)
O6B O -0.3101(13) 0.6402(6) 0.5970(13)
O7B O -0.3002(16) 0.5298(7) 0.5330(16)
O8B O 0.1309(11) 0.5460(6) 0.2545(16)
O9B O 0.0959(17) 0.6494(9) 0.4767(14)
O10B O -0.0312(12) 0.6147(7) 0.3061(17)
O11B O -0.0845(11) 0.5172(5) 0.2148(16)
O12B O -0.2644(17) 0.5103(7) 0.3300(13)
O13B O -0.0807(13) 0.6417(8) 0.5918(15)
O14B O 0.1781(13) 0.4395(7) 0.2958(16)
O15B O 0.2168(17) 0.5949(8) 0.6274(12)
O16B O -0.2084(16) 0.6088(7) 0.4188(14)
O17B O -0.2538(17) 0.4234(9) 0.5775(12)
O18B O -0.0338(13) 0.4115(7) 0.2559(18)
loop_
_geom_bond_atom_site_label_1
_geom_bond_atom_site_label_2
_geom_bond_site_symmetry_1
_geom_bond_site_symmetry_2
W1 O5 1_555 1_555
W2 O3 1_555 1_555
W3 O6 1_555 1_555
W4 O4 1_555 1_555
W5 O2 1_555 1_555
W6 O1 1_555 1_555
Si1 O19 1_555 1_555
O7 W3 1_555 1_555
O8 W2 1_555 1_555
O9 W4 1_555 1_555
O10 W1 1_555 1_555
O11 W1 1_555 1_555
O12 W1 1_555 1_555
O13 W3 1_555 1_555
O14 W2 1_555 1_555
O15 W5 1_555 1_555
O16 W1 1_555 1_555
O17 W6 1_555 1_555
O18 W2 1_555 1_555
O19 W1 1_555 1_555
O20 W3 1_555 1_555
O21 W4 1_555 1_555
O22 W1 1_555 1_555
Cu1 N3 1_555 1_555
N1 C7 1_555 1_555
N2 C3 1_555 1_555
N3 C5 1_555 1_555
N4 C1 1_555 1_555
N5 C1 1_555 1_555
C1 C6 1_555 1_555
C2 H1 1_555 1_555
N6 N4 1_555 1_555
H2 N6 1_555 1_555
C3 C4 1_555 1_555
C4 C8 1_555 1_555
C5 C2 1_555 1_555
H3 C5 1_555 1_555
C6 C7 1_555 1_555
N7 C3 1_555 1_555
C7 H4 1_555 1_555
C8 C6 1_555 1_555
H5 C8 1_555 1_555
C9 N2 1_555 1_555
C10 C2 1_555 1_555
N8 N7 1_555 1_555
H6 N8 1_555 1_555
N9 C15 1_555 1_555
C11 N5 1_555 1_555
C12 C10 1_555 1_555
H7 C12 1_555 1_555
C13 N3 1_555 1_555
H8 C13 1_555 1_555
C14 N1 1_555 1_555
H9 C14 1_555 1_555
C15 H10 1_555 1_555
C16 C9 1_555 1_555
C17 N9 1_555 1_555
H11 C17 1_555 1_555
C18 C16 1_555 1_555
H12 C18 1_555 1_555
C19 C15 1_555 1_555
H13 C19 1_555 1_555
O19B Si1 1_555 1_555
O20B W2 1_555 1_555
O21B W6 1_555 1_555
O22B Si1 1_555 1_555
W1B O19B 1_555 1_555
W2B O20 1_555 1_555
W3B O14 1_555 1_555
W4B O17 1_555 1_555
W5B O18 1_555 1_555
W6B O15 1_555 1_555
O1B W6B 1_555 1_555
O2B W5B 1_555 1_555
O3B W2B 1_555 1_555
O4B W4B 1_555 1_555
O5B W1B 1_555 1_555
O6B W3B 1_555 1_555
O7B W3B 1_555 1_555
O8B W2B 1_555 1_555
O9B W4B 1_555 1_555
O10B W1B 1_555 1_555
O11B W1B 1_555 1_555
O12B W1B 1_555 1_555
O13B W3B 1_555 1_555
O14B W3 1_555 1_555
O15B W6 1_555 1_555
O16B W1B 1_555 1_555
O17B W4 1_555 1_555
O18B W5 1_555 1_555
Cu1A N9 1_555 1_555
N9A Cu1 1_555 1_555
W2 O11 1_555 1_555
W2 O22 1_555 1_555
W3 O16 1_555 1_555
W3 O19 1_555 1_555
W4 O8 1_555 1_555
W4 O10 1_555 1_555
W4 O22 1_555 1_555
W5 O9 1_555 1_555
W5 O13 1_555 1_555
W5 O20 1_555 1_555
W5 O21 1_555 1_555
W6 O7 1_555 1_555
W6 O12 1_555 1_555
W6 O19 1_555 1_555
Si1 O20 1_555 1_555
Si1 O21 1_555 1_555
Si1 O22 1_555 1_555
Si1 O20B 1_555 1_555
Si1 O21B 1_555 1_555
O21 W6B 1_555 1_555
N6 C11 1_555 1_555
C4 C14 1_555 1_555
C9 N8 1_555 1_555
C10 C11 1_555 1_555
C12 C13 1_555 1_555
C16 C19 1_555 1_555
C17 C18 1_555 1_555
O19B W3B 1_555 1_555
O19B W6B 1_555 1_555
O20B W3B 1_555 1_555
O20B W5B 1_555 1_555
O21B W4B 1_555 1_555
O21B W5B 1_555 1_555
O22B W1B 1_555 1_555
O22B W2B 1_555 1_555
O22B W4B 1_555 1_555
W2B O11B 1_555 1_555
W2B O14B 1_555 1_555
W2B O18B 1_555 1_555
W3B O16B 1_555 1_555
W4B O8B 1_555 1_555
W4B O10B 1_555 1_555
W5B O9B 1_555 1_555
W5B O13B 1_555 1_555
W5B O15B 1_555 1_555
W6B O7B 1_555 1_555
W6B O12B 1_555 1_555
W6B O17B 1_555 1_555

#END
