
#######################################################################
#
#                 Cambridge Crystallographic Data Centre
#                                CCDC 
#
#######################################################################
#
# If this CIF has been generated from an entry in the Cambridge 
# Structural Database, then it will include bibliographic, chemical, 
# crystal, experimental, refinement or atomic coordinate data resulting 
# from the CCDC's data processing and validation procedures.
#
#######################################################################

data_VOSWIL
_symmetry_cell_setting           monoclinic
_symmetry_space_group_name_H-M   'I 2/c'
_symmetry_Int_Tables_number      15
_space_group_name_Hall           '-I 2yc'
loop_
_symmetry_equiv_pos_site_id
_symmetry_equiv_pos_as_xyz
1 x,y,z
2 -x,y,1/2-z
3 1/2+x,1/2+y,1/2+z
4 1/2-x,1/2+y,-z
5 -x,-y,-z
6 x,-y,1/2+z
7 1/2-x,1/2-y,1/2-z
8 1/2+x,1/2-y,z
_cell_length_a                   15.4272(2)
_cell_length_b                   29.4160(4)
_cell_length_c                   16.3560(2)
_cell_angle_alpha                90
_cell_angle_beta                 94.5950(10)
_cell_angle_gamma                90
_cell_volume                     7398.6
loop_
_atom_site_label
_atom_site_type_symbol
_atom_site_fract_x
_atom_site_fract_y
_atom_site_fract_z
O15 O 0.5000 0.5362(2) 0.7500
H11 H 0.5373 0.5563 0.7748
H11A H 0.4627 0.5563 0.7252
O15_2 O -0.5000 0.5362(2) 0.7500
Zn1 Zn 0.5000 0.15902(2) 0.2500
Zn2 Zn 0.28095(3) 0.15656(2) 0.32783(3)
Zn3 Zn 0.27459(5) 0.48553(3) 0.79747(5)
O1 O 0.4548(2) 0.20908(12) 0.3201(2)
O2 O 0.31824(18) 0.21801(9) 0.35085(19)
O3 O 0.6603(2) 0.33478(11) 0.3525(2)
O4 O 0.6082(2) 0.40551(12) 0.3469(3)
O5 O 0.22792(17) 0.36718(9) 0.28459(17)
O6 O 0.10714(19) 0.34235(9) 0.33872(18)
O7 O 0.3676(2) 0.47806(14) 0.6448(2)
O8 O 0.2564(2) 0.44726(11) 0.7026(2)
O9 O -0.1322(3) 0.42186(17) 0.6358(3)
O10 O -0.1678(3) 0.49431(17) 0.6530(3)
O11 O 0.0544(2) 0.60786(12) 0.6853(3)
O12 O 0.16978(19) 0.60370(9) 0.61148(18)
O13 O 0.2939(3) 0.54884(14) 0.7566(3)
O14 O 0.3615(9) 0.4591(6) 0.8736(8)
C1 C 0.3937(2) 0.23223(13) 0.3424(2)
C2 C 0.4941(2) 0.29915(14) 0.3514(2)
H1 H 0.5377 0.2805 0.3307
C3 C 0.5114(3) 0.34428(13) 0.3694(3)
C4 C 0.5998(3) 0.36369(16) 0.3555(3)
C5 C 0.4479(3) 0.37196(13) 0.3997(3)
H2 H 0.4600 0.4031 0.4110
C6 C 0.3670(2) 0.35407(13) 0.4135(3)
C7 C 0.3488(2) 0.30846(12) 0.3936(2)
H3 H 0.2929 0.2962 0.4008
C8 C 0.4129(2) 0.28106(13) 0.3634(2)
C9 C 0.3007(2) 0.38205(12) 0.4509(2)
C10 C 0.2129(2) 0.38270(12) 0.4232(2)
C11 C 0.1786(2) 0.36170(12) 0.3434(2)
C12 C 0.1537(2) 0.40792(13) 0.4649(2)
H4 H 0.0939 0.4072 0.4457
C13 C 0.1791(3) 0.43386(13) 0.5333(3)
C14 C 0.2672(3) 0.43243(13) 0.5629(3)
C15 C 0.3263(3) 0.40701(13) 0.5217(3)
H5 H 0.3857 0.4066 0.5423
C16 C 0.2999(3) 0.45458(15) 0.6420(3)
C17 C 0.1164(3) 0.46434(13) 0.5702(2)
C18 C 0.0343(3) 0.44870(15) 0.5875(3)
H6 H 0.0178 0.4182 0.5751
C19 C -0.0237(3) 0.47795(16) 0.6230(3)
C20 C -0.1137(4) 0.46328(18) 0.6384(4)
C21 C -0.0003(3) 0.52251(14) 0.6408(3)
H7 H -0.0393 0.5420 0.6662
C22 C 0.0804(3) 0.53884(13) 0.6216(2)
C23 C 0.1028(3) 0.58700(13) 0.6402(3)
C24 C 0.1381(2) 0.51021(13) 0.5855(2)
H8 H 0.1924 0.5217 0.5711
H9 H 0.3514 0.5535 0.7779
H10 H 0.2763 0.5779 0.7604
Zn2A Zn -0.28095(3) 0.15656(2) 1.17217(3)
Zn3A Zn -0.27459(5) 0.48553(3) 0.70253(5)
O1A O -0.4548(2) 0.20908(12) 1.1799(2)
O2A O -0.31824(18) 0.21801(9) 1.14915(19)
O3A O -0.6603(2) 0.33478(11) 1.1475(2)
O4A O -0.6082(2) 0.40551(12) 1.1531(3)
O5A O -0.22792(17) 0.36718(9) 1.21541(17)
O6A O -0.10714(19) 0.34235(9) 1.16128(18)
O7A O -0.3676(2) 0.47806(14) 0.8552(2)
O8A O -0.2564(2) 0.44726(11) 0.7974(2)
O9A O 0.1322(3) 0.42186(17) 0.8642(3)
O10A O 0.1678(3) 0.49431(17) 0.8470(3)
O11A O -0.0544(2) 0.60786(12) 0.8147(3)
O12A O -0.16978(19) 0.60370(9) 0.88852(18)
O13A O -0.2939(3) 0.54884(14) 0.7434(3)
O14A O -0.3615(9) 0.4591(6) 0.6264(8)
C1A C -0.3937(2) 0.23223(13) 1.1576(2)
C2A C -0.4941(2) 0.29915(14) 1.1486(2)
H1A H -0.5377 0.2805 1.1693
C3A C -0.5114(3) 0.34428(13) 1.1306(3)
C4A C -0.5998(3) 0.36369(16) 1.1445(3)
C5A C -0.4479(3) 0.37196(13) 1.1003(3)
H2A H -0.4600 0.4031 1.0890
C6A C -0.3670(2) 0.35407(13) 1.0865(3)
C7A C -0.3488(2) 0.30846(12) 1.1064(2)
H3A H -0.2929 0.2962 1.0992
C8A C -0.4129(2) 0.28106(13) 1.1366(2)
C9A C -0.3007(2) 0.38205(12) 1.0491(2)
C10A C -0.2129(2) 0.38270(12) 1.0768(2)
C11A C -0.1786(2) 0.36170(12) 1.1566(2)
C12A C -0.1537(2) 0.40792(13) 1.0351(2)
H4A H -0.0939 0.4072 1.0543
C13A C -0.1791(3) 0.43386(13) 0.9667(3)
C14A C -0.2672(3) 0.43243(13) 0.9371(3)
C15A C -0.3263(3) 0.40701(13) 0.9783(3)
H5A H -0.3857 0.4066 0.9577
C16A C -0.2999(3) 0.45458(15) 0.8580(3)
C17A C -0.1164(3) 0.46434(13) 0.9298(2)
C18A C -0.0343(3) 0.44870(15) 0.9125(3)
H6A H -0.0178 0.4182 0.9249
C19A C 0.0237(3) 0.47795(16) 0.8770(3)
C20A C 0.1137(4) 0.46328(18) 0.8616(4)
C21A C 0.0003(3) 0.52251(14) 0.8592(3)
H7A H 0.0393 0.5420 0.8338
C22A C -0.0804(3) 0.53884(13) 0.8784(2)
C23A C -0.1028(3) 0.58700(13) 0.8598(3)
C24A C -0.1381(2) 0.51021(13) 0.9145(2)
H8A H -0.1924 0.5217 0.9289
H9A H -0.3514 0.5535 0.7221
H10A H -0.2763 0.5779 0.7396
Zn1_2 Zn -0.5000 0.15902(2) 1.2500
Zn1B Zn 0.0000 0.65902(2) 0.7500
Zn1F Zn 0.0000 0.34098(2) 0.2500
Zn1F_2 Zn 0.0000 0.34098(2) 1.2500
Zn2B Zn -0.21905(3) 0.65656(2) 0.82783(3)
Zn2C Zn 0.21905(3) 0.65656(2) 0.67217(3)
Zn2F Zn -0.78095(3) 0.34344(2) 1.17217(3)
Zn2F_2 Zn 0.21905(3) 0.34344(2) 0.17217(3)
Zn2G Zn -0.21905(3) 0.34344(2) 1.32783(3)
Zn2G_2 Zn 0.78095(3) 0.34344(2) 0.32783(3)
O1A_2 O 0.5452(2) 0.20908(12) 0.1799(2)
O3F O -0.1603(2) 0.16522(11) 1.1475(2)
O3G O 0.1603(2) 0.16522(11) 0.3525(2)
O5F O 0.27208(17) 0.13282(9) 0.21541(17)
O5G O -0.27208(17) 0.13282(9) 1.28459(17)
O6F O 0.39286(19) 0.15765(9) 0.16128(18)
O6G O 0.60714(19) 0.15765(9) 0.33872(18)
O11B O 0.5544(2) 0.10786(12) 0.1853(3)
O11C O 0.4456(2) 0.10786(12) 0.3147(3)
O12B O -0.33022(19) 0.10370(9) 1.11148(18)
O12C O 0.33022(19) 0.10370(9) 0.38852(18)
Zn4? Zn 0.38035(17) 0.49318(10) 0.77167(17)
O16? O 0.3936(10) 0.4850(6) 0.8502(8)
loop_
_geom_bond_atom_site_label_1
_geom_bond_atom_site_label_2
_geom_bond_site_symmetry_1
_geom_bond_site_symmetry_2
Zn1 O1 1_555 1_555
Zn2 O2 1_555 1_555
Zn3 O8 1_555 1_555
O1 C1 1_555 1_555
O2 C1 1_555 1_555
O3 C4 1_555 1_555
O4 C4 1_555 1_555
O5 C11 1_555 1_555
O6 C11 1_555 1_555
O7 C16 1_555 1_555
O8 C16 1_555 1_555
O9 C20 1_555 1_555
O10 C20 1_555 1_555
O11 C23 1_555 1_555
O12 C23 1_555 1_555
O13 Zn3 1_555 1_555
O14 Zn3 1_555 1_555
C1 C8 1_555 1_555
C2 H1 1_555 1_555
C3 C2 1_555 1_555
C4 C3 1_555 1_555
C5 C3 1_555 1_555
H2 C5 1_555 1_555
C6 C5 1_555 1_555
C7 C6 1_555 1_555
H3 C7 1_555 1_555
C8 C2 1_555 1_555
C9 C6 1_555 1_555
C10 C9 1_555 1_555
C11 C10 1_555 1_555
C12 C10 1_555 1_555
H4 C12 1_555 1_555
C13 C12 1_555 1_555
C14 C13 1_555 1_555
C15 C9 1_555 1_555
H5 C15 1_555 1_555
C16 C14 1_555 1_555
C17 C13 1_555 1_555
C18 C17 1_555 1_555
H6 C18 1_555 1_555
C19 C18 1_555 1_555
C20 C19 1_555 1_555
C21 C19 1_555 1_555
H7 C21 1_555 1_555
C22 C21 1_555 1_555
C23 C22 1_555 1_555
C24 C17 1_555 1_555
H8 C24 1_555 1_555
H9 O13 1_555 1_555
H10 O13 1_555 1_555
O15 H11 1_555 1_555
Zn2A O2A 1_555 1_555
Zn3A O10 1_555 1_555
O1A C1A 1_555 1_555
O2A C1A 1_555 1_555
O3A C4A 1_555 1_555
O4A C4A 1_555 1_555
O5A C11A 1_555 1_555
O6A C11A 1_555 1_555
O7A C16A 1_555 1_555
O8A Zn3A 1_555 1_555
O9A C20A 1_555 1_555
O10A Zn3 1_555 1_555
O11A C23A 1_555 1_555
O12A C23A 1_555 1_555
O13A Zn3A 1_555 1_555
O14A Zn3A 1_555 1_555
C1A C8A 1_555 1_555
C2A H1A 1_555 1_555
C3A C2A 1_555 1_555
C4A C3A 1_555 1_555
C5A C3A 1_555 1_555
H2A C5A 1_555 1_555
C6A C5A 1_555 1_555
C7A C6A 1_555 1_555
H3A C7A 1_555 1_555
C8A C2A 1_555 1_555
C9A C6A 1_555 1_555
C10A C9A 1_555 1_555
C11A C10A 1_555 1_555
C12A C10A 1_555 1_555
H4A C12A 1_555 1_555
C13A C12A 1_555 1_555
C14A C13A 1_555 1_555
C15A C9A 1_555 1_555
H5A C15A 1_555 1_555
C16A O8A 1_555 1_555
C17A C13A 1_555 1_555
C18A C17A 1_555 1_555
H6A C18A 1_555 1_555
C19A C18A 1_555 1_555
C20A O10A 1_555 1_555
C21A C19A 1_555 1_555
H7A C21A 1_555 1_555
C22A C21A 1_555 1_555
C23A C22A 1_555 1_555
C24A C17A 1_555 1_555
H8A C24A 1_555 1_555
H9A O13A 1_555 1_555
H10A O13A 1_555 1_555
Zn1_2 O1A 1_555 1_555
Zn1B O11 1_555 1_555
Zn1F O6 1_555 1_555
Zn1F_2 O6A 1_555 1_555
Zn2B O12A 1_555 1_555
Zn2C O12 1_555 1_555
Zn2F O3A 1_555 1_555
Zn2F_2 O5 1_555 1_555
Zn2G O5A 1_555 1_555
Zn2G_2 O3 1_555 1_555
O1A_2 Zn1 1_555 1_555
O3F Zn2A 1_555 1_555
O3G Zn2 1_555 1_555
O5F Zn2 1_555 1_555
O5G Zn2A 1_555 1_555
O6F Zn1 1_555 1_555
O6G Zn1 1_555 1_555
O11B Zn1 1_555 1_555
O11C Zn1 1_555 1_555
O12B Zn2A 1_555 1_555
O12C Zn2 1_555 1_555
H11A O15 1_555 1_555
C7 C8 1_555 1_555
C14 C15 1_555 1_555
C22 C24 1_555 1_555
O11A Zn1B 1_555 1_555
C7A C8A 1_555 1_555
C14A C15A 1_555 1_555
C14A C16A 1_555 1_555
C19A C20A 1_555 1_555
C22A C24A 1_555 1_555

#END
