
#######################################################################
#
#                 Cambridge Crystallographic Data Centre
#                                CCDC 
#
#######################################################################
#
# If this CIF has been generated from an entry in the Cambridge 
# Structural Database, then it will include bibliographic, chemical, 
# crystal, experimental, refinement or atomic coordinate data resulting 
# from the CCDC's data processing and validation procedures.
#
#######################################################################

data_VOTCOY
_symmetry_cell_setting           triclinic
_symmetry_space_group_name_H-M   'P -1'
_symmetry_Int_Tables_number      2
_space_group_name_Hall           '-P 1'
loop_
_symmetry_equiv_pos_site_id
_symmetry_equiv_pos_as_xyz
1 x,y,z
2 -x,-y,-z
_cell_length_a                   6.394(6)
_cell_length_b                   8.504(8)
_cell_length_c                   13.077(13)
_cell_angle_alpha                84.67(2)
_cell_angle_beta                 87.570(16)
_cell_angle_gamma                84.67(2)
_cell_volume                     704.512
loop_
_atom_site_label
_atom_site_type_symbol
_atom_site_fract_x
_atom_site_fract_y
_atom_site_fract_z
Zn1 Zn 0.0000 0.5000 0.5000
O1 O 0.8502(5) 0.2492(4) 0.5208(2)
O2 O 0.6894(5) 0.0708(4) 0.6256(3)
O3 O 0.2089(5) 0.4114(5) 0.0741(3)
O4 O 0.1833(5) 0.6736(5) 0.0918(2)
N1 N -0.1551(6) 0.5915(5) 0.3686(3)
N2 N 0.2429(6) 0.4097(5) 0.4107(3)
C1 C -0.3494(7) 0.6814(6) 0.3647(3)
C2 C -0.4023(8) 0.7209(6) 0.2579(4)
H1 H -0.5297 0.7755 0.2339
C3 C -0.2393(8) 0.6666(6) 0.1992(4)
H2 H -0.2257 0.6796 0.1263
C4 C -0.0878(8) 0.5840(6) 0.2695(4)
C5 C 0.1050(8) 0.5056(6) 0.2396(4)
C6 C 0.2560(8) 0.4220(6) 0.3047(4)
C7 C 0.4555(8) 0.3439(6) 0.2695(4)
H3 H 0.5038 0.3354 0.2003
C8 C 0.5576(8) 0.2863(6) 0.3551(4)
H4 H 0.6928 0.2296 0.3569
C9 C 0.4259(7) 0.3254(6) 0.4440(3)
C10 C 0.4739(7) 0.2854(6) 0.5487(4)
C11 C 0.6908(8) 0.2021(7) 0.5633(4)
C12 C 0.8934(8) -0.0167(7) 0.6503(4)
H5 H 1.0091 0.0425 0.6182
H6 H 0.9029 -0.1219 0.6229
C13 C 0.9131(8) -0.0367(7) 0.7645(4)
H7 H 1.0486 -0.0948 0.7814
H8 H 0.7990 -0.0962 0.7957
H9 H 0.9047 0.0678 0.7911
C14 C 0.1696(8) 0.5207(7) 0.1260(4)
C15 C 0.2533(9) 0.7066(7) -0.0156(4)
H10 H 0.3722 0.6295 -0.0330
H11 H 0.1371 0.6976 -0.0618
C16 C 0.3191(9) 0.8677(8) -0.0279(4)
H12 H 0.3668 0.8928 -0.0993
H13 H 0.4342 0.8753 0.0180
H14 H 0.2001 0.9431 -0.0107
O1A O -0.8502(5) 0.7508(4) 0.4792(2)
O2A O -0.6894(5) 0.9292(4) 0.3744(3)
O3A O -0.2089(5) 0.5886(5) 0.9259(3)
O4A O -0.1833(5) 0.3264(5) 0.9082(2)
N1A N 0.1551(6) 0.4085(5) 0.6314(3)
N2A N -0.2429(6) 0.5903(5) 0.5893(3)
C1A C 0.3494(7) 0.3186(6) 0.6353(3)
C2A C 0.4023(8) 0.2791(6) 0.7421(4)
H1A H 0.5297 0.2245 0.7661
C3A C 0.2393(8) 0.3334(6) 0.8008(4)
H2A H 0.2257 0.3204 0.8737
C4A C 0.0878(8) 0.4160(6) 0.7305(4)
C5A C -0.1050(8) 0.4944(6) 0.7604(4)
C6A C -0.2560(8) 0.5780(6) 0.6953(4)
C7A C -0.4555(8) 0.6561(6) 0.7305(4)
H3A H -0.5038 0.6646 0.7997
C8A C -0.5576(8) 0.7137(6) 0.6449(4)
H4A H -0.6928 0.7704 0.6431
C9A C -0.4259(7) 0.6746(6) 0.5560(3)
C10A C -0.4739(7) 0.7146(6) 0.4513(4)
C11A C -0.6908(8) 0.7979(7) 0.4367(4)
C12A C -0.8934(8) 1.0167(7) 0.3497(4)
H5A H -1.0091 0.9575 0.3818
H6A H -0.9029 1.1219 0.3771
C13A C -0.9131(8) 1.0367(7) 0.2355(4)
H7A H -1.0486 1.0948 0.2186
H8A H -0.7990 1.0962 0.2043
H9A H -0.9047 0.9322 0.2089
C14A C -0.1696(8) 0.4793(7) 0.8740(4)
C15A C -0.2533(9) 0.2934(7) 1.0156(4)
H10A H -0.3722 0.3705 1.0330
H11A H -0.1371 0.3024 1.0618
C16A C -0.3191(9) 0.1323(8) 1.0279(4)
H12A H -0.3668 0.1072 1.0993
H13A H -0.4342 0.1247 0.9820
H14A H -0.2001 0.0569 1.0107
Zn1_2 Zn -1.0000 0.5000 0.5000
Zn1_3 Zn 1.0000 0.5000 0.5000
O1_2 O -0.1498(5) 0.2492(4) 0.5208(2)
O1A_2 O 0.1498(5) 0.7508(4) 0.4792(2)
loop_
_geom_bond_atom_site_label_1
_geom_bond_atom_site_label_2
_geom_bond_site_symmetry_1
_geom_bond_site_symmetry_2
Zn1 N1 1_555 1_555
O1 C11 1_555 1_555
O2 C11 1_555 1_555
O3 C14 1_555 1_555
O4 C14 1_555 1_555
N1 C1 1_555 1_555
N2 Zn1 1_555 1_555
C1 C2 1_555 1_555
C2 H1 1_555 1_555
C3 C2 1_555 1_555
H2 C3 1_555 1_555
C4 N1 1_555 1_555
C5 C4 1_555 1_555
C6 N2 1_555 1_555
C7 C6 1_555 1_555
H3 C7 1_555 1_555
C8 C7 1_555 1_555
H4 C8 1_555 1_555
C9 N2 1_555 1_555
C10 C9 1_555 1_555
C11 C10 1_555 1_555
C12 O2 1_555 1_555
H5 C12 1_555 1_555
H6 C12 1_555 1_555
C13 C12 1_555 1_555
H7 C13 1_555 1_555
H8 C13 1_555 1_555
H9 C13 1_555 1_555
C14 C5 1_555 1_555
C15 O4 1_555 1_555
H10 C15 1_555 1_555
H11 C15 1_555 1_555
C16 C15 1_555 1_555
H12 C16 1_555 1_555
H13 C16 1_555 1_555
H14 C16 1_555 1_555
O1A C11A 1_555 1_555
O2A C11A 1_555 1_555
O3A C14A 1_555 1_555
O4A C14A 1_555 1_555
N1A Zn1 1_555 1_555
N2A Zn1 1_555 1_555
C1A C10 1_555 1_555
C2A C1A 1_555 1_555
H1A C2A 1_555 1_555
C3A C2A 1_555 1_555
H2A C3A 1_555 1_555
C4A N1A 1_555 1_555
C5A C4A 1_555 1_555
C6A N2A 1_555 1_555
C7A C6A 1_555 1_555
H3A C7A 1_555 1_555
C8A C7A 1_555 1_555
H4A C8A 1_555 1_555
C9A N2A 1_555 1_555
C10A C1 1_555 1_555
C11A C10A 1_555 1_555
C12A O2A 1_555 1_555
H5A C12A 1_555 1_555
H6A C12A 1_555 1_555
C13A C12A 1_555 1_555
H7A C13A 1_555 1_555
H8A C13A 1_555 1_555
H9A C13A 1_555 1_555
C14A C5A 1_555 1_555
C15A O4A 1_555 1_555
H10A C15A 1_555 1_555
H11A C15A 1_555 1_555
C16A C15A 1_555 1_555
H12A C16A 1_555 1_555
H13A C16A 1_555 1_555
H14A C16A 1_555 1_555
Zn1_2 O1A 1_555 1_555
Zn1_3 O1 1_555 1_555
O1_2 Zn1 1_555 1_555
O1A_2 Zn1 1_555 1_555
C3 C4 1_555 1_555
C5 C6 1_555 1_555
C8 C9 1_555 1_555
N1A C1A 1_555 1_555
C3A C4A 1_555 1_555
C5A C6A 1_555 1_555
C8A C9A 1_555 1_555
C9A C10A 1_555 1_555

#END
