
#######################################################################
#
#                 Cambridge Crystallographic Data Centre
#                                CCDC 
#
#######################################################################
#
# If this CIF has been generated from an entry in the Cambridge 
# Structural Database, then it will include bibliographic, chemical, 
# crystal, experimental, refinement or atomic coordinate data resulting 
# from the CCDC's data processing and validation procedures.
#
#######################################################################

data_VOTCIS
_symmetry_cell_setting           triclinic
_symmetry_space_group_name_H-M   'P -1'
_symmetry_Int_Tables_number      2
_space_group_name_Hall           '-P 1'
loop_
_symmetry_equiv_pos_site_id
_symmetry_equiv_pos_as_xyz
1 x,y,z
2 -x,-y,-z
_cell_length_a                   6.2443(12)
_cell_length_b                   9.4709(18)
_cell_length_c                   13.593(3)
_cell_angle_alpha                104.135(4)
_cell_angle_beta                 94.729(4)
_cell_angle_gamma                94.984(4)
_cell_volume                     772.108
loop_
_atom_site_label
_atom_site_type_symbol
_atom_site_fract_x
_atom_site_fract_y
_atom_site_fract_z
Zn1 Zn 0.0000 0.5000 0.5000
F1 F 0.5262(3) 0.9236(2) 0.78937(14)
F2 F 0.7372(3) 0.8897(2) 0.60234(14)
F3 F 0.5798(3) 0.53376(19) 0.22049(13)
F4 F 0.2276(3) 0.3089(2) 0.11011(13)
O1 O 0.8557(3) 0.6751(2) 0.43572(17)
O2 O 0.6652(3) 0.8201(2) 0.36437(18)
O3 O -0.1161(4) 0.0561(2) 0.12417(17)
O4 O -0.2440(4) 0.2543(2) 0.08807(16)
N1 N 0.2438(4) 0.6591(3) 0.57555(19)
N2 N 0.1598(4) 0.4661(3) 0.37054(19)
C1 C 0.2567(5) 0.7347(3) 0.6755(2)
C2 C 0.4548(5) 0.8340(3) 0.6991(2)
C3 C 0.5517(5) 0.8166(3) 0.6135(2)
C4 C 0.4210(5) 0.7053(3) 0.5356(2)
C5 C 0.4717(5) 0.6518(3) 0.4358(2)
C6 C 0.3498(5) 0.5416(3) 0.3607(2)
C7 C 0.4008(5) 0.4891(3) 0.2572(2)
C8 C 0.2420(5) 0.3858(3) 0.2072(2)
C9 C 0.0876(5) 0.3726(3) 0.2783(2)
C10 C -0.1057(5) 0.2774(3) 0.2564(2)
C11 C 0.6860(5) 0.7158(3) 0.4110(2)
C12 C 0.8718(5) 0.8885(4) 0.3428(3)
H1 H 0.9804 0.9027 0.4027
H2 H 0.8508 0.9862 0.3318
C13 C 0.9558(6) 0.7980(4) 0.2510(3)
H3 H 1.0925 0.8475 0.2395
H4 H 0.8501 0.7852 0.1913
H5 H 0.9801 0.7020 0.2621
C14 C -0.1544(5) 0.1812(4) 0.1487(3)
C15 C -0.2963(6) 0.1772(4) -0.0190(2)
H6 H -0.4143 0.0971 -0.0270
H7 H -0.1681 0.1347 -0.0472
C16 C -0.3655(7) 0.2883(4) -0.0726(3)
H8 H -0.4030 0.2415 -0.1454
H9 H -0.2471 0.3668 -0.0639
H10 H -0.4920 0.3295 -0.0437
F1A F -0.5262(3) 0.0764(2) 0.21063(14)
F2A F -0.7372(3) 0.1103(2) 0.39766(14)
F3A F -0.5798(3) 0.46624(19) 0.77951(13)
F4A F -0.2276(3) 0.6911(2) 0.88989(13)
O1A O -0.8557(3) 0.3249(2) 0.56428(17)
O2A O -0.6652(3) 0.1799(2) 0.63563(18)
O3A O 0.1161(4) 0.9439(2) 0.87583(17)
O4A O 0.2440(4) 0.7457(2) 0.91193(16)
N1A N -0.2438(4) 0.3409(3) 0.42445(19)
N2A N -0.1598(4) 0.5339(3) 0.62946(19)
C1A C -0.2567(5) 0.2653(3) 0.3245(2)
C2A C -0.4548(5) 0.1660(3) 0.3009(2)
C3A C -0.5517(5) 0.1834(3) 0.3865(2)
C4A C -0.4210(5) 0.2947(3) 0.4644(2)
C5A C -0.4717(5) 0.3482(3) 0.5642(2)
C6A C -0.3498(5) 0.4584(3) 0.6393(2)
C7A C -0.4008(5) 0.5109(3) 0.7428(2)
C8A C -0.2420(5) 0.6142(3) 0.7928(2)
C9A C -0.0876(5) 0.6274(3) 0.7217(2)
C10A C 0.1057(5) 0.7226(3) 0.7436(2)
C11A C -0.6860(5) 0.2842(3) 0.5890(2)
C12A C -0.8718(5) 0.1115(4) 0.6572(3)
H1A H -0.9804 0.0973 0.5973
H2A H -0.8508 0.0138 0.6682
C13A C -0.9558(6) 0.2020(4) 0.7490(3)
H3A H -1.0925 0.1525 0.7605
H4A H -0.8501 0.2148 0.8087
H5A H -0.9801 0.2980 0.7379
C14A C 0.1544(5) 0.8188(4) 0.8513(3)
C15A C 0.2963(6) 0.8228(4) 1.0190(2)
H6A H 0.4143 0.9029 1.0270
H7A H 0.1681 0.8653 1.0472
C16A C 0.3655(7) 0.7117(4) 1.0726(3)
H8A H 0.4030 0.7585 1.1454
H9A H 0.2471 0.6332 1.0639
H10A H 0.4920 0.6705 1.0437
Zn1_2 Zn -1.0000 0.5000 0.5000
Zn1_3 Zn 1.0000 0.5000 0.5000
O1_2 O -0.1443(3) 0.6751(2) 0.43572(17)
O1A_2 O 0.1443(3) 0.3249(2) 0.56428(17)
loop_
_geom_bond_atom_site_label_1
_geom_bond_atom_site_label_2
_geom_bond_site_symmetry_1
_geom_bond_site_symmetry_2
Zn1 N1 1_555 1_555
F1 C2 1_555 1_555
F2 C3 1_555 1_555
F3 C7 1_555 1_555
F4 C8 1_555 1_555
O1 C11 1_555 1_555
O2 C11 1_555 1_555
O3 C14 1_555 1_555
O4 C14 1_555 1_555
N1 C1 1_555 1_555
N2 Zn1 1_555 1_555
C1 C2 1_555 1_555
C2 C3 1_555 1_555
C3 C4 1_555 1_555
C4 N1 1_555 1_555
C5 C4 1_555 1_555
C6 N2 1_555 1_555
C7 C6 1_555 1_555
C8 C7 1_555 1_555
C9 N2 1_555 1_555
C10 C9 1_555 1_555
C11 C5 1_555 1_555
C12 O2 1_555 1_555
H1 C12 1_555 1_555
H2 C12 1_555 1_555
C13 C12 1_555 1_555
H3 C13 1_555 1_555
H4 C13 1_555 1_555
H5 C13 1_555 1_555
C14 C10 1_555 1_555
C15 O4 1_555 1_555
H6 C15 1_555 1_555
H7 C15 1_555 1_555
C16 C15 1_555 1_555
H8 C16 1_555 1_555
H9 C16 1_555 1_555
H10 C16 1_555 1_555
F1A C2A 1_555 1_555
F2A C3A 1_555 1_555
F3A C7A 1_555 1_555
F4A C8A 1_555 1_555
O1A C11A 1_555 1_555
O2A C11A 1_555 1_555
O3A C14A 1_555 1_555
O4A C14A 1_555 1_555
N1A Zn1 1_555 1_555
N2A Zn1 1_555 1_555
C1A C10 1_555 1_555
C2A C1A 1_555 1_555
C3A C2A 1_555 1_555
C4A N1A 1_555 1_555
C5A C4A 1_555 1_555
C6A N2A 1_555 1_555
C7A C6A 1_555 1_555
C8A C7A 1_555 1_555
C9A N2A 1_555 1_555
C10A C1 1_555 1_555
C11A C5A 1_555 1_555
C12A O2A 1_555 1_555
H1A C12A 1_555 1_555
H2A C12A 1_555 1_555
C13A C12A 1_555 1_555
H3A C13A 1_555 1_555
H4A C13A 1_555 1_555
H5A C13A 1_555 1_555
C14A C10A 1_555 1_555
C15A O4A 1_555 1_555
H6A C15A 1_555 1_555
H7A C15A 1_555 1_555
C16A C15A 1_555 1_555
H8A C16A 1_555 1_555
H9A C16A 1_555 1_555
H10A C16A 1_555 1_555
Zn1_2 O1A 1_555 1_555
Zn1_3 O1 1_555 1_555
O1_2 Zn1 1_555 1_555
O1A_2 Zn1 1_555 1_555
C5 C6 1_555 1_555
C8 C9 1_555 1_555
N1A C1A 1_555 1_555
C3A C4A 1_555 1_555
C5A C6A 1_555 1_555
C8A C9A 1_555 1_555
C9A C10A 1_555 1_555

#END
