
#######################################################################
#
#                 Cambridge Crystallographic Data Centre
#                                CCDC 
#
#######################################################################
#
# If this CIF has been generated from an entry in the Cambridge 
# Structural Database, then it will include bibliographic, chemical, 
# crystal, experimental, refinement or atomic coordinate data resulting 
# from the CCDC's data processing and validation procedures.
#
#######################################################################

data_VOTHOD
_symmetry_cell_setting           monoclinic
_symmetry_space_group_name_H-M   'P 21/c'
_symmetry_Int_Tables_number      14
_space_group_name_Hall           '-P 2ybc'
loop_
_symmetry_equiv_pos_site_id
_symmetry_equiv_pos_as_xyz
1 x,y,z
2 -x,1/2+y,1/2-z
3 -x,-y,-z
4 x,1/2-y,1/2+z
_cell_length_a                   19.057(4)
_cell_length_b                   6.8207(14)
_cell_length_c                   20.258(4)
_cell_angle_alpha                90
_cell_angle_beta                 116.13(3)
_cell_angle_gamma                90
_cell_volume                     2364.06
loop_
_atom_site_label
_atom_site_type_symbol
_atom_site_fract_x
_atom_site_fract_y
_atom_site_fract_z
Cd1 Cd -0.11389(3) 0.77018(6) 0.25110(2)
Cd2 Cd 0.17087(3) 0.65137(7) 0.38973(2)
Cd3 Cd 0.38366(3) 0.70588(6) 0.26239(2)
Cd4 Cd 0.29748(3) 0.36775(7) 0.11120(3)
O1 O -0.1230(3) 0.8712(6) 0.0843(2)
O2 O 0.2563(3) 0.6566(7) 0.5090(2)
O3 O -0.0387(3) 0.7597(6) 0.1945(2)
O4 O 0.2600(3) 0.8807(6) 0.3863(2)
O5 O 0.1199(3) 0.6052(6) 0.2675(2)
O6 O 0.2263(3) 0.4091(7) -0.0106(2)
O7 O 0.1195(3) 0.9311(6) 0.2610(2)
O8 O 0.3617(3) 0.0908(6) 0.1052(2)
O9 O 0.2480(3) 0.7398(7) 0.2353(2)
O10 O 0.2090(3) 0.1861(7) 0.1340(3)
O11 O 0.2665(3) 0.6781(6) 0.1373(2)
O12 O 0.0552(3) 0.7219(6) -0.1109(2)
O13 O -0.0682(3) 0.7340(6) -0.1280(2)
O14 O -0.5384(3) 0.7148(6) 0.2050(2)
O15 O -0.6084(3) 0.5357(6) 0.1040(2)
O16 O -0.3608(3) 0.8695(6) 0.2641(2)
O17 O -0.3710(3) 0.5448(6) 0.2590(2)
O18 O -0.2445(3) 0.7358(6) 0.2087(2)
O19 O -0.2603(3) 0.9152(7) 0.1109(2)
O20 O -0.6087(3) 0.7486(7) -0.1194(2)
O21 O -0.5013(3) 0.8239(6) -0.1266(2)
C1 C -0.0226(4) 0.7682(9) 0.0250(3)
H1 H -0.0753 0.7855 -0.0064
C2 C 0.0027(4) 0.7729(8) 0.1009(3)
C3 C 0.0812(4) 0.7509(8) 0.1488(3)
C4 C 0.1357(4) 0.7226(9) 0.1203(3)
C5 C 0.1083(4) 0.7108(9) 0.0438(3)
H2 H 0.1438 0.6839 0.0248
C6 C 0.0307(4) 0.7378(9) -0.0044(3)
C7 C 0.0051(4) 0.7304(9) -0.0868(3)
C8 C -0.0577(4) 0.8041(9) 0.1290(3)
C9 C 0.1083(4) 0.7655(10) 0.2314(3)
C10 C 0.2213(4) 0.7133(9) 0.1678(3)
C11 C -0.5352(4) 0.7109(9) 0.0325(3)
H3 H -0.5888 0.6905 0.0073
C12 C -0.4990(4) 0.6921(9) 0.1084(3)
C13 C -0.4183(4) 0.7244(8) 0.1468(3)
C14 C -0.3745(4) 0.7741(9) 0.1091(3)
C15 C -0.4129(4) 0.7907(9) 0.0314(3)
H4 H -0.3844 0.8226 0.0056
C16 C -0.4938(4) 0.7594(9) -0.0068(3)
C17 C -0.5367(4) 0.7778(9) -0.0880(3)
C18 C -0.5524(4) 0.6426(9) 0.1435(3)
C19 C -0.3805(4) 0.7097(9) 0.2290(3)
C20 C -0.2870(4) 0.8116(9) 0.1461(3)
Cd1A Cd 0.11389(3) 0.27018(6) 0.24890(2)
Cd1A_2 Cd 0.11389(3) 1.27018(6) 0.24890(2)
Cd1C Cd -0.11389(3) 0.72982(6) -0.24890(2)
Cd2A Cd -0.17087(3) 1.15137(7) 0.11027(2)
Cd2C Cd 0.17087(3) 0.84863(7) -0.11027(2)
Cd3_2 Cd -0.61634(3) 0.70588(6) 0.26239(2)
Cd3A Cd -0.38366(3) 0.20588(6) 0.23761(2)
Cd3A_2 Cd -0.38366(3) 1.20588(6) 0.23761(2)
Cd3C Cd -0.61634(3) 0.79412(6) -0.23761(2)
Cd4_2 Cd -0.70252(3) 0.36775(7) 0.11120(3)
Cd4A Cd -0.29748(3) 0.86775(7) 0.38880(3)
O1A O 0.1230(3) 0.3712(6) 0.4157(2)
O5A O -0.1199(3) 1.1052(6) 0.2325(2)
O7A O -0.1195(3) 0.4311(6) 0.2390(2)
O12C O 0.0552(3) 0.7781(6) 0.3891(2)
O13C O -0.0682(3) 0.7660(6) 0.3720(2)
O14_2 O 0.4616(3) 0.7148(6) 0.2050(2)
O15_2 O 0.3916(3) 0.5357(6) 0.1040(2)
O16A O 0.3608(3) 0.3695(6) 0.2359(2)
O17A O 0.3710(3) 1.0448(6) 0.2410(2)
O19A O 0.2603(3) 0.4152(7) 0.3891(2)
O20C O 0.3913(3) 0.7514(7) 0.3806(2)
O21C O 0.4987(3) 0.6761(6) 0.3734(2)
loop_
_geom_bond_atom_site_label_1
_geom_bond_atom_site_label_2
_geom_bond_site_symmetry_1
_geom_bond_site_symmetry_2
Cd1 O3 1_555 1_555
Cd2 O2 1_555 1_555
Cd3 O9 1_555 1_555
Cd4 O6 1_555 1_555
O1 C8 1_555 1_555
O3 C8 1_555 1_555
O4 Cd2 1_555 1_555
O5 Cd2 1_555 1_555
O7 C9 1_555 1_555
O8 Cd4 1_555 1_555
O9 C10 1_555 1_555
O10 Cd4 1_555 1_555
O11 Cd3 1_555 1_555
O12 C7 1_555 1_555
O13 C7 1_555 1_555
O14 C18 1_555 1_555
O15 C18 1_555 1_555
O16 C19 1_555 1_555
O17 C19 1_555 1_555
O18 Cd1 1_555 1_555
O19 C20 1_555 1_555
O20 C17 1_555 1_555
O21 C17 1_555 1_555
C1 H1 1_555 1_555
C2 C1 1_555 1_555
C3 C2 1_555 1_555
C4 C3 1_555 1_555
C5 C4 1_555 1_555
H2 C5 1_555 1_555
C6 C1 1_555 1_555
C7 C6 1_555 1_555
C8 C2 1_555 1_555
C9 O5 1_555 1_555
C10 O11 1_555 1_555
C11 H3 1_555 1_555
C12 C11 1_555 1_555
C13 C12 1_555 1_555
C14 C13 1_555 1_555
C15 C14 1_555 1_555
H4 C15 1_555 1_555
C16 C11 1_555 1_555
C17 C16 1_555 1_555
C18 C12 1_555 1_555
C19 C13 1_555 1_555
C20 O18 1_555 1_555
Cd1A O5 1_555 1_555
Cd1A_2 O7 1_555 1_555
Cd1C O13 1_555 1_555
Cd2A O1 1_555 1_555
Cd2C O12 1_555 1_555
Cd3_2 O14 1_555 1_555
Cd3A O17 1_555 1_555
Cd3A_2 O16 1_555 1_555
Cd3C O20 1_555 1_555
Cd4_2 O15 1_555 1_555
Cd4A O16 1_555 1_555
O1A Cd2 1_555 1_555
O5A Cd1 1_555 1_555
O7A Cd1 1_555 1_555
O12C Cd2 1_555 1_555
O13C Cd1 1_555 1_555
O14_2 Cd3 1_555 1_555
O15_2 Cd4 1_555 1_555
O16A Cd3 1_555 1_555
O17A Cd3 1_555 1_555
O19A Cd2 1_555 1_555
O20C Cd3 1_555 1_555
O21C Cd3 1_555 1_555
Cd4 O11 1_555 1_555
Cd4 O16A 1_555 1_555
O19 Cd2A 1_555 1_555
O21 Cd3C 1_555 1_555
C3 C9 1_555 1_555
C4 C10 1_555 1_555
C5 C6 1_555 1_555
C14 C20 1_555 1_555
C15 C16 1_555 1_555
Cd2A O5A 1_555 1_555

#END
