
#######################################################################
#
#                 Cambridge Crystallographic Data Centre
#                                CCDC 
#
#######################################################################
#
# If this CIF has been generated from an entry in the Cambridge 
# Structural Database, then it will include bibliographic, chemical, 
# crystal, experimental, refinement or atomic coordinate data resulting 
# from the CCDC's data processing and validation procedures.
#
#######################################################################

data_VOTHIX
_symmetry_cell_setting           monoclinic
_symmetry_space_group_name_H-M   'P 21/n'
_symmetry_Int_Tables_number      14
_space_group_name_Hall           '-P 2yn'
loop_
_symmetry_equiv_pos_site_id
_symmetry_equiv_pos_as_xyz
1 x,y,z
2 1/2-x,1/2+y,1/2-z
3 -x,-y,-z
4 1/2+x,1/2-y,1/2+z
_cell_length_a                   8.2000(16)
_cell_length_b                   14.850(3)
_cell_length_c                   9.4300(19)
_cell_angle_alpha                90
_cell_angle_beta                 102.29(3)
_cell_angle_gamma                90
_cell_volume                     1121.98
loop_
_atom_site_label
_atom_site_type_symbol
_atom_site_fract_x
_atom_site_fract_y
_atom_site_fract_z
Zn1 Zn 0.02424(7) 0.15240(4) 0.57103(6)
Zn2 Zn 0.14571(7) 0.28591(4) 0.87693(6)
O1 O -0.4968(4) -0.1446(2) 0.7837(4)
O2 O 0.1513(5) 0.2038(2) 0.4136(4)
O3 O -0.3669(4) -0.2340(2) 0.9647(4)
O4 O 0.0796(5) 0.3729(3) 1.0265(4)
O5 O -0.2253(4) -0.2000(2) 1.2679(3)
O6 O -0.4828(4) -0.1421(2) 1.2211(4)
O7 O -0.1628(4) -0.0346(2) 1.4291(3)
O8 O -0.1575(4) 0.1130(2) 1.3890(3)
O9 O -0.1012(4) 0.1069(2) 0.7267(3)
O10 O -0.0317(4) 0.2005(2) 0.9189(4)
C1 C -0.2533(6) -0.0121(3) 0.8860(5)
H1 H -0.2720 -0.0206 0.7861
C2 C -0.3068(6) -0.0766(3) 0.9721(5)
C3 C -0.2791(6) -0.0647(3) 1.1232(5)
C4 C -0.2073(5) 0.0157(3) 1.1840(5)
C5 C -0.1551(6) 0.0795(3) 1.0956(5)
H2 H -0.1078 0.1330 1.1361
C6 C -0.1726(6) 0.0645(3) 0.9471(5)
C7 C -0.0959(6) 0.1290(3) 0.8564(5)
C8 C -0.3964(6) -0.1576(3) 0.9006(5)
C9 C -0.3350(6) -0.1390(3) 1.2113(5)
C10 C -0.1747(6) 0.0307(3) 1.3448(5)
Zn1_2 Zn 0.02424(7) 0.15240(4) 1.57103(6)
Zn1A Zn -0.52424(7) -0.34760(4) 0.92897(6)
Zn1B Zn -0.02424(7) -0.15240(4) 1.42897(6)
Zn2A Zn -0.64571(7) -0.21409(4) 0.62307(6)
Zn2B Zn -0.14571(7) -0.28591(4) 1.12307(6)
Zn2C Zn -0.35429(7) 0.21409(4) 1.37693(6)
O1A O -0.0032(4) 0.3554(2) 0.7163(4)
O3A O -0.1331(4) 0.2660(2) 0.5353(4)
O3B O 0.3669(4) 0.2340(2) 1.0353(4)
O5B O 0.2253(4) 0.2000(2) 0.7321(3)
O7B O 0.1628(4) 0.0346(2) 0.5709(3)
O8_2 O -0.1575(4) 0.1130(2) 0.3890(3)
O8C O 0.3425(4) 0.3870(2) 0.8890(3)
loop_
_geom_bond_atom_site_label_1
_geom_bond_atom_site_label_2
_geom_bond_site_symmetry_1
_geom_bond_site_symmetry_2
Zn1 O2 1_555 1_555
Zn2 O4 1_555 1_555
O1 C8 1_555 1_555
O3 C8 1_555 1_555
O5 C9 1_555 1_555
O6 C9 1_555 1_555
O7 C10 1_555 1_555
O8 C10 1_555 1_555
O9 Zn1 1_555 1_555
O10 Zn2 1_555 1_555
C1 H1 1_555 1_555
C2 C1 1_555 1_555
C3 C2 1_555 1_555
C4 C3 1_555 1_555
C5 C4 1_555 1_555
H2 C5 1_555 1_555
C6 C1 1_555 1_555
C7 O9 1_555 1_555
C8 C2 1_555 1_555
C9 C3 1_555 1_555
C10 C4 1_555 1_555
Zn1_2 O8 1_555 1_555
Zn1A O3 1_555 1_555
Zn1B O5 1_555 1_555
Zn2A O1 1_555 1_555
Zn2B O3 1_555 1_555
Zn2C O8 1_555 1_555
O1A Zn2 1_555 1_555
O3A Zn1 1_555 1_555
O3B Zn2 1_555 1_555
O5B Zn1 1_555 1_555
O7B Zn1 1_555 1_555
O8_2 Zn1 1_555 1_555
O8C Zn2 1_555 1_555
Zn2 O5B 1_555 1_555
O5 Zn2B 1_555 1_555
O7 Zn1B 1_555 1_555
O10 C7 1_555 1_555
C5 C6 1_555 1_555
C6 C7 1_555 1_555

#END
