
#######################################################################
#
#                 Cambridge Crystallographic Data Centre
#                                CCDC 
#
#######################################################################
#
# If this CIF has been generated from an entry in the Cambridge 
# Structural Database, then it will include bibliographic, chemical, 
# crystal, experimental, refinement or atomic coordinate data resulting 
# from the CCDC's data processing and validation procedures.
#
#######################################################################

data_VOTKEW
_symmetry_cell_setting           orthorhombic
_symmetry_space_group_name_H-M   'P n n a'
_symmetry_Int_Tables_number      52
_space_group_name_Hall           '-P 2a 2bc'
loop_
_symmetry_equiv_pos_site_id
_symmetry_equiv_pos_as_xyz
1 x,y,z
2 1/2-x,-y,z
3 1/2-x,1/2+y,1/2-z
4 x,1/2-y,1/2-z
5 -x,-y,-z
6 1/2+x,y,-z
7 1/2+x,1/2-y,1/2+z
8 -x,1/2+y,1/2+z
_cell_length_a                   23.984(5)
_cell_length_b                   13.122(3)
_cell_length_c                   11.917(2)
_cell_angle_alpha                90
_cell_angle_beta                 90
_cell_angle_gamma                90
_cell_volume                     3750.49
loop_
_atom_site_label
_atom_site_type_symbol
_atom_site_fract_x
_atom_site_fract_y
_atom_site_fract_z
Cd1 Cd 0.2500 0.0000 0.05118(3)
Cd2 Cd 0.457538(15) 0.2500 0.2500
O1 O 0.48075(14) 0.6817(2) -0.1167(3)
O2 O 0.50303(13) 0.5848(2) -0.2605(3)
O3 O 0.18601(14) 0.1335(2) 0.0617(3)
N1 N 0.32669(16) 0.2001(3) -0.0117(3)
N2 N 0.31981(15) 0.1226(3) 0.0611(3)
N3 N 0.35518(15) 0.1286(3) 0.1440(3)
N4 N 0.38740(14) 0.2108(2) 0.1260(3)
N5 N 0.2500 0.0000 0.2516(4)
N6 N 0.2500 0.0000 0.8487(4)
N7 N 0.0939(2) 0.1291(3) 0.0861(4)
C1 C 0.36892(16) 0.2537(3) 0.0323(3)
C2 C 0.39293(17) 0.3454(3) -0.0199(3)
C3 C 0.39911(18) 0.4353(3) 0.0393(3)
H1 H 0.3862 0.4399 0.1127
C4 C 0.42472(19) 0.5191(3) -0.0111(4)
H2 H 0.4281 0.5799 0.0286
C5 C 0.44506(17) 0.5128(3) -0.1190(3)
C6 C 0.4374(3) 0.4239(4) -0.1786(4)
H3 H 0.4493 0.4199 -0.2528
C7 C 0.4121(2) 0.3402(3) -0.1286(4)
H4 H 0.4081 0.2800 -0.1690
C8 C 0.47821(17) 0.5989(3) -0.1694(4)
C9 C 0.24483(19) 0.0864(3) 0.3103(3)
H5 H 0.2419 0.1474 0.2709
C10 C 0.24362(19) 0.0900(3) 0.4263(3)
H6 H 0.2386 0.1518 0.4631
C11 C 0.2500 0.0000 0.4874(4)
C12 C 0.2500 0.0000 0.6122(4)
C13 C 0.2657(2) 0.0852(3) 0.6738(3)
H7 H 0.2766 0.1444 0.6370
C14 C 0.2652(2) 0.0822(3) 0.7894(3)
H8 H 0.2759 0.1404 0.8283
C15 C 0.1365(3) 0.1375(4) 0.0237(5)
C16 C 0.1021(3) 0.1103(5) 0.2068(5)
H9 H 0.0665 0.1065 0.2434
H10 H 0.1235 0.1649 0.2388
H11 H 0.1217 0.0472 0.2170
C17 C 0.0351(3) 0.1283(5) 0.0467(6)
H12 H 0.0106 0.1222 0.1100
H13 H 0.0295 0.0715 -0.0028
H14 H 0.0272 0.1905 0.0075
C18 C 0.1273(3) 0.1552(5) -0.1014(6)
H15 H 0.0881 0.1552 -0.1172
H16 H 0.1451 0.1017 -0.1433
H17 H 0.1431 0.2197 -0.1225
C9A C 0.25517(19) -0.0864(3) 0.3103(3)
H5A H 0.2581 -0.1474 0.2709
C10A C 0.25638(19) -0.0900(3) 0.4263(3)
H6A H 0.2614 -0.1518 0.4631
C13A C 0.2343(2) -0.0852(3) 0.6738(3)
H7A H 0.2234 -0.1444 0.6370
C14A C 0.2348(2) -0.0822(3) 0.7894(3)
H8A H 0.2241 -0.1404 0.8283
O1A O 0.01925(14) -0.6817(2) -0.1167(3)
O2A O -0.00303(13) -0.5848(2) -0.2605(3)
O3A O 0.31399(14) -0.1335(2) 0.0617(3)
N1A N 0.17331(16) -0.2001(3) -0.0117(3)
N2A N 0.18019(15) -0.1226(3) 0.0611(3)
N3A N 0.14482(15) -0.1286(3) 0.1440(3)
N4A N 0.11260(14) -0.2108(2) 0.1260(3)
N7A N 0.4061(2) -0.1291(3) 0.0861(4)
C1A C 0.13108(16) -0.2537(3) 0.0323(3)
C2A C 0.10707(17) -0.3454(3) -0.0199(3)
C3A C 0.10089(18) -0.4353(3) 0.0393(3)
H1A H 0.1138 -0.4399 0.1127
C4A C 0.07528(19) -0.5191(3) -0.0111(4)
H2A H 0.0719 -0.5799 0.0286
C5A C 0.05494(17) -0.5128(3) -0.1190(3)
C6A C 0.0626(3) -0.4239(4) -0.1786(4)
H3A H 0.0507 -0.4199 -0.2528
C7A C 0.0879(2) -0.3402(3) -0.1286(4)
H4A H 0.0919 -0.2800 -0.1690
C8A C 0.02179(17) -0.5989(3) -0.1694(4)
C15A C 0.3635(3) -0.1375(4) 0.0237(5)
C16A C 0.3979(3) -0.1103(5) 0.2068(5)
H9A H 0.4335 -0.1065 0.2434
H10A H 0.3765 -0.1649 0.2388
H11A H 0.3783 -0.0472 0.2170
C17A C 0.4649(3) -0.1283(5) 0.0467(6)
H12A H 0.4894 -0.1222 0.1100
H13A H 0.4705 -0.0715 -0.0028
H14A H 0.4728 -0.1905 0.0075
C18A C 0.3727(3) -0.1552(5) -0.1014(6)
H15A H 0.4119 -0.1552 -0.1172
H16A H 0.3549 -0.1017 -0.1433
H17A H 0.3569 -0.2197 -0.1225
Cd1_2 Cd 0.2500 0.0000 1.05118(3)
Cd2A Cd 0.042462(15) -0.2500 0.2500
Cd2D Cd 0.542462(15) 0.7500 -0.2500
Cd2E Cd -0.042462(15) -0.7500 -0.2500
O1D O 0.51925(14) 0.3183(2) 0.1167(3)
O1G O 0.51925(14) 0.1817(2) 0.3833(3)
O2D O 0.49697(13) 0.4152(2) 0.2605(3)
O2G O 0.49697(13) 0.0848(2) 0.2395(3)
N4C N 0.38740(14) 0.2892(2) 0.3740(3)
N6_2 N 0.2500 0.0000 -0.1513(4)
loop_
_geom_bond_atom_site_label_1
_geom_bond_atom_site_label_2
_geom_bond_site_symmetry_1
_geom_bond_site_symmetry_2
Cd1 O3 1_555 1_555
Cd2 N4 1_555 1_555
O1 C8 1_555 1_555
O2 C8 1_555 1_555
O3 C15 1_555 1_555
N1 N2 1_555 1_555
N2 Cd1 1_555 1_555
N3 N2 1_555 1_555
N4 N3 1_555 1_555
N5 Cd1 1_555 1_555
N6 C14 1_555 1_555
N7 C15 1_555 1_555
C1 N1 1_555 1_555
C2 C1 1_555 1_555
C3 C2 1_555 1_555
H1 C3 1_555 1_555
C4 C3 1_555 1_555
H2 C4 1_555 1_555
C5 C4 1_555 1_555
C6 C5 1_555 1_555
H3 C6 1_555 1_555
C7 C2 1_555 1_555
H4 C7 1_555 1_555
C8 C5 1_555 1_555
C9 N5 1_555 1_555
H5 C9 1_555 1_555
C10 C9 1_555 1_555
H6 C10 1_555 1_555
C11 C10 1_555 1_555
C12 C11 1_555 1_555
C13 C12 1_555 1_555
H7 C13 1_555 1_555
C14 C13 1_555 1_555
H8 C14 1_555 1_555
C15 C18 1_555 1_555
C16 N7 1_555 1_555
H9 C16 1_555 1_555
H10 C16 1_555 1_555
H11 C16 1_555 1_555
C17 N7 1_555 1_555
H12 C17 1_555 1_555
H13 C17 1_555 1_555
H14 C17 1_555 1_555
C18 H15 1_555 1_555
H16 C18 1_555 1_555
H17 C18 1_555 1_555
C9A N5 1_555 1_555
H5A C9A 1_555 1_555
C10A C11 1_555 1_555
H6A C10A 1_555 1_555
C13A C12 1_555 1_555
H7A C13A 1_555 1_555
C14A N6 1_555 1_555
H8A C14A 1_555 1_555
O1A C8A 1_555 1_555
O2A C8A 1_555 1_555
O3A Cd1 1_555 1_555
N1A N2A 1_555 1_555
N2A Cd1 1_555 1_555
N3A N2A 1_555 1_555
N4A N3A 1_555 1_555
N7A C15A 1_555 1_555
C1A N1A 1_555 1_555
C2A C1A 1_555 1_555
C3A C2A 1_555 1_555
H1A C3A 1_555 1_555
C4A C3A 1_555 1_555
H2A C4A 1_555 1_555
C5A C4A 1_555 1_555
C6A C5A 1_555 1_555
H3A C6A 1_555 1_555
C7A C2A 1_555 1_555
H4A C7A 1_555 1_555
C8A C5A 1_555 1_555
C15A O3A 1_555 1_555
C16A N7A 1_555 1_555
H9A C16A 1_555 1_555
H10A C16A 1_555 1_555
H11A C16A 1_555 1_555
C17A N7A 1_555 1_555
H12A C17A 1_555 1_555
H13A C17A 1_555 1_555
H14A C17A 1_555 1_555
C18A C15A 1_555 1_555
H15A C18A 1_555 1_555
H16A C18A 1_555 1_555
H17A C18A 1_555 1_555
Cd1_2 N6 1_555 1_555
Cd2A N4A 1_555 1_555
Cd2D O1 1_555 1_555
Cd2E O1A 1_555 1_555
O1D Cd2 1_555 1_555
O1G Cd2 1_555 1_555
O2D Cd2 1_555 1_555
O2G Cd2 1_555 1_555
N4C Cd2 1_555 1_555
N6_2 Cd1 1_555 1_555
O2 Cd2D 1_555 1_555
N4 C1 1_555 1_555
C6 C7 1_555 1_555
C9A C10A 1_555 1_555
C13A C14A 1_555 1_555
O2A Cd2E 1_555 1_555
N4A C1A 1_555 1_555
C6A C7A 1_555 1_555

#END
