
#######################################################################
#
#                 Cambridge Crystallographic Data Centre
#                                CCDC 
#
#######################################################################
#
# If this CIF has been generated from an entry in the Cambridge 
# Structural Database, then it will include bibliographic, chemical, 
# crystal, experimental, refinement or atomic coordinate data resulting 
# from the CCDC's data processing and validation procedures.
#
#######################################################################

data_VOTLIB
_symmetry_cell_setting           monoclinic
_symmetry_space_group_name_H-M   'P 21/a'
_symmetry_Int_Tables_number      14
_space_group_name_Hall           '-P 2yab'
loop_
_symmetry_equiv_pos_site_id
_symmetry_equiv_pos_as_xyz
1 x,y,z
2 1/2-x,1/2+y,-z
3 -x,-y,-z
4 1/2+x,1/2-y,z
_cell_length_a                   15.912(4)
_cell_length_b                   10.517(3)
_cell_length_c                   41.488(12)
_cell_angle_alpha                90
_cell_angle_beta                 99.84(3)
_cell_angle_gamma                90
_cell_volume                     6840.73
loop_
_atom_site_label
_atom_site_type_symbol
_atom_site_fract_x
_atom_site_fract_y
_atom_site_fract_z
Er1 Er 0.148176(12) 0.72243(2) 0.130813(5)
O1 O 0.09818(18) 0.6104(3) 0.17034(7)
O2 O 0.00626(17) 0.7851(3) 0.12728(7)
O3 O 0.27362(17) 0.8373(3) 0.15800(7)
O4 O 0.15508(18) 0.8780(3) 0.17542(8)
O5 O 0.08836(19) 0.5823(3) 0.09422(8)
O6 O 0.24374(18) 0.5548(3) 0.15404(8)
O7 O 0.25998(17) 0.7028(3) 0.10261(7)
O8 O 0.13708(18) 0.8918(3) 0.09650(7)
C1 C 0.0402(3) 0.6150(5) 0.18748(13)
Er2 Er -0.122956(13) 0.64465(2) 0.124707(5)
C2 C -0.0328(3) 0.8798(5) 0.13741(11)
C3 C 0.2326(3) 0.8963(5) 0.17764(11)
C4 C 0.0205(3) 0.5217(5) 0.08245(12)
H1 H 0.2968 0.5649 0.1531
H2 H 0.2403 0.5321 0.1737
O9 O -0.03833(18) 0.6117(3) 0.17616(7)
C5 C 0.0697(3) 0.6277(6) 0.22383(12)
O10 O -0.13419(16) 0.7758(3) 0.07587(7)
O11 O -0.10029(17) 0.8585(3) 0.14794(7)
O12 O -0.23263(18) 0.5362(3) 0.09234(8)
O13 O -0.04694(19) 0.5274(3) 0.09389(8)
O14 O -0.13576(19) 0.4243(3) 0.14198(8)
C6 C -0.0019(3) 1.0128(5) 0.13518(12)
C7 C 0.2805(3) 0.9789(6) 0.20356(14)
C8 C 0.0269(3) 0.4397(5) 0.05335(12)
H3 H 0.1166 0.5661 0.2303
H4 H 0.0941 0.7138 0.2281
C9 C 0.0059(3) 0.6080(6) 0.24544(13)
C10 C -0.2060(3) 0.8215(5) 0.07745(10)
C11 C -0.3129(3) 0.5358(5) 0.08439(12)
H5 H -0.1600 0.3789 0.1259
H6 H -0.0823 0.4075 0.1471
H7 H -0.0348 1.0534 0.1155
H8 H 0.0587 1.0106 0.1325
C12 C -0.0099(3) 1.0922(5) 0.16442(14)
H9 H 0.2881 0.9315 0.2245
H10 H 0.3380 0.9938 0.1982
C13 C 0.2430(4) 1.1013(8) 0.2087(2)
H11 H 0.0809 0.3911 0.0580
H12 H 0.0303 0.4958 0.0345
C14 C -0.0450(3) 0.3474(5) 0.04365(12)
H13 H -0.0416 0.6688 0.2392
H14 H -0.0178 0.5210 0.2419
C15 C 0.0408(4) 0.6247(7) 0.28058(16)
C16 C -0.2530(3) 0.9026(5) 0.05126(11)
C17 C -0.3533(3) 0.4436(5) 0.05836(12)
H15 H -0.0708 1.0990 0.1665
H16 H 0.0209 1.0505 0.1844
C18 C 0.0256(3) 1.2209(6) 0.16145(14)
H17 H 0.1838 1.0893 0.2124
H18 H 0.2414 1.1548 0.1889
C19 C 0.2946(4) 1.1666(9) 0.2377(2)
H19 H -0.0458 0.2855 0.0616
H20 H -0.0998 0.3940 0.0402
C20 C -0.0361(3) 0.2780(6) 0.01324(14)
C21 C 0.0711(4) 0.6383(7) 0.30821(14)
H21 H -0.2879 0.9640 0.0613
H22 H -0.2926 0.8481 0.0362
C22 C -0.1977(3) 0.9762(5) 0.03126(12)
H23 H -0.3706 0.4906 0.0376
H24 H -0.4056 0.4082 0.0648
C23 C -0.2954(3) 0.3343(5) 0.05241(11)
C24 C 0.0574(3) 1.3171(6) 0.15750(14)
C25 C 0.3396(4) 1.2075(8) 0.26067(17)
C26 C -0.0281(3) 0.2311(6) -0.01144(15)
H25 H 0.0957 0.6493 0.3306
H26 H -0.1597 1.0347 0.0457
H27 H -0.1616 0.9162 0.0213
C27 C -0.2516(3) 1.0495(5) 0.00537(12)
H28 H -0.3247 0.2818 0.0341
H29 H -0.2430 0.3692 0.0459
C28 C -0.2714(3) 0.2523(5) 0.08169(14)
H30 H 0.0835 1.3962 0.1542
H31 H 0.3760 1.2407 0.2793
H32 H -0.0217 0.1928 -0.0316
C29 C -0.2990(3) 1.1044(5) -0.01430(13)
C30 C -0.2574(3) 0.1867(6) 0.10416(15)
H33 H -0.3377 1.1491 -0.0303
H34 H -0.2458 0.1326 0.1227
Er2C Er 0.377044(13) 0.85535(2) 0.124707(5)
O7C O -0.24002(17) 0.7972(3) 0.10261(7)
O3C O -0.22638(17) 0.6627(3) 0.15800(7)
Er1C Er -0.351824(12) 0.77757(2) 0.130813(5)
O8C O -0.36292(18) 0.6082(3) 0.09650(7)
Er3 Er 0.267103(13) 0.32140(2) 0.378216(5)
Er4 Er 0.031507(13) 0.20106(2) 0.371474(5)
O15 O 0.2989(2) 0.4327(3) 0.33472(8)
O16 O 0.4393(2) 0.4555(3) 0.34773(8)
C31 C 0.3692(3) 0.4726(5) 0.32940(13)
C32 C 0.3761(3) 0.5456(6) 0.29837(13)
H35 H 0.3982 0.6317 0.3046
H36 H 0.4188 0.5025 0.2874
C33 C 0.2977(4) 0.5589(6) 0.27486(15)
H37 H 0.2569 0.6131 0.2842
H38 H 0.2712 0.4744 0.2699
C34 C 0.3170(4) 0.6177(7) 0.24415(17)
C35 C 0.3419(4) 0.6620(7) 0.22122(15)
H39 H 0.3619 0.6975 0.2029
O17 O 0.13614(18) 0.3042(3) 0.34242(7)
O18 O 0.01255(18) 0.2539(3) 0.31448(7)
C36 C 0.0890(3) 0.2857(5) 0.31525(12)
C37 C 0.1261(3) 0.3002(6) 0.28435(11)
H40 H 0.1863 0.2718 0.2886
H41 H 0.1253 0.3912 0.2782
C38 C 0.0768(3) 0.2231(6) 0.25562(14)
H42 H 0.0160 0.2487 0.2521
H43 H 0.0997 0.2436 0.2355
C39 C 0.0825(5) 0.0899(9) 0.26108(19)
C40 C 0.0892(6) -0.0227(9) 0.2676(2)
H44 H 0.0944 -0.1107 0.2727
O19 O 0.27150(19) 0.1198(3) 0.35114(8)
O20 O 0.39528(17) 0.2089(3) 0.36523(8)
C41 C 0.3507(3) 0.1164(5) 0.35248(12)
C42 C 0.3925(3) 0.0085(5) 0.33844(14)
H45 H 0.4316 -0.0339 0.3564
H46 H 0.4276 0.0429 0.3229
C43 C 0.3323(4) -0.0910(6) 0.32072(16)
H47 H 0.2848 -0.0472 0.3065
H48 H 0.3634 -0.1418 0.3065
C44 C 0.2966(4) -0.1781(7) 0.34287(18)
C45 C 0.2694(4) -0.2492(7) 0.3610(2)
H49 H 0.2478 -0.3059 0.3754
O21 O 0.4991(2) 0.3891(4) 0.41601(8)
O22 O 0.3617(2) 0.4397(3) 0.41147(8)
C46 C 0.4388(3) 0.4508(5) 0.42484(12)
C47 C 0.4609(3) 0.5349(5) 0.45417(13)
H50 H 0.5161 0.5766 0.4532
H51 H 0.4689 0.4808 0.4740
C48 C 0.3964(4) 0.6369(6) 0.45803(14)
H52 H 0.3874 0.6923 0.4384
H53 H 0.3411 0.5970 0.4600
C49 C 0.4266(4) 0.7137(7) 0.48728(16)
C50 C 0.4543(5) 0.7722(7) 0.51108(18)
H54 H 0.4765 0.8192 0.5302
O23 O 0.30177(19) 0.1773(3) 0.42433(7)
O24 O 0.16845(18) 0.1928(3) 0.40205(7)
C51 C 0.2268(3) 0.1428(5) 0.42329(12)
C52 C 0.1995(3) 0.0473(6) 0.44565(13)
H55 H 0.1667 -0.0197 0.4322
H56 H 0.1603 0.0893 0.4584
C53 C 0.2693(3) -0.0155(6) 0.46912(14)
H57 H 0.3036 -0.0699 0.4569
H58 H 0.3074 0.0503 0.4808
C54 C 0.2337(4) -0.0934(7) 0.49296(16)
C55 C 0.2007(4) -0.1496(7) 0.51113(16)
H59 H 0.1734 -0.1958 0.5261
O25 O 0.1837(2) 0.4666(4) 0.39754(9)
O26 O 0.0519(2) 0.3911(4) 0.39772(9)
C56 C 0.1137(3) 0.4625(5) 0.40835(13)
C57 C 0.0976(11) 0.5396(15) 0.4362(9)
H60 H 0.1269 0.5010 0.4569
H61 H 0.0356 0.5412 0.4367
C58 C 0.1309(6) 0.6792(10) 0.4333(3)
H62 H 0.1310 0.7256 0.4541
H63 H 0.1898 0.6778 0.4287
C59 C 0.0740(7) 0.7425(11) 0.4066(3)
C60 C 0.009(4) 0.784(5) 0.3834(11)
H64 H -0.0362 0.8128 0.3672
O27 O 0.1090(2) 0.0319(3) 0.35168(8)
H65 H 0.1594 0.0278 0.3469
H66 H 0.0803 -0.0285 0.3409
Er4C Er 0.531507(13) 0.29894(2) 0.371474(5)
O16C O -0.0607(2) 0.0445(3) 0.34773(8)
O20C O -0.10472(17) 0.2911(3) 0.36523(8)
O21C O -0.0009(2) 0.1109(4) 0.41601(8)
C61? C 0.1167(15) 0.558(2) 0.4377(11)
H67? H 0.1342 0.5137 0.4589
H68? H 0.1573 0.6279 0.4361
C62? C 0.0242(8) 0.6093(13) 0.4347(3)
H69? H -0.0167 0.5380 0.4300
H70? H 0.0163 0.6480 0.4557
C63? C 0.0063(8) 0.7041(14) 0.4087(3)
C64? C 0.025(5) 0.800(6) 0.3887(15)
H71? H 0.0376 0.8660 0.3748
loop_
_geom_bond_atom_site_label_1
_geom_bond_atom_site_label_2
_geom_bond_site_symmetry_1
_geom_bond_site_symmetry_2
Er1 O1 1_555 1_555
O1 C1 1_555 1_555
O2 Er1 1_555 1_555
O3 Er1 1_555 1_555
O4 Er1 1_555 1_555
O5 Er1 1_555 1_555
O6 Er1 1_555 1_555
O7 Er1 1_555 1_555
O8 Er1 1_555 1_555
C1 O9 1_555 1_555
Er2 O2 1_555 1_555
C2 O2 1_555 1_555
C3 O3 1_555 1_555
C4 O5 1_555 1_555
H1 O6 1_555 1_555
H2 O6 1_555 1_555
O9 Er2 1_555 1_555
C5 C1 1_555 1_555
O10 Er2 1_555 1_555
O11 Er2 1_555 1_555
O12 Er2 1_555 1_555
O13 Er2 1_555 1_555
O14 Er2 1_555 1_555
C6 C2 1_555 1_555
C7 C3 1_555 1_555
C8 C4 1_555 1_555
H3 C5 1_555 1_555
H4 C5 1_555 1_555
C9 C5 1_555 1_555
C10 O10 1_555 1_555
C11 O12 1_555 1_555
H5 O14 1_555 1_555
H6 O14 1_555 1_555
H7 C6 1_555 1_555
H8 C6 1_555 1_555
C12 C6 1_555 1_555
H9 C7 1_555 1_555
H10 C7 1_555 1_555
C13 C7 1_555 1_555
H11 C8 1_555 1_555
H12 C8 1_555 1_555
C14 C8 1_555 1_555
H13 C9 1_555 1_555
H14 C9 1_555 1_555
C15 C9 1_555 1_555
C16 C10 1_555 1_555
C17 C11 1_555 1_555
H15 C12 1_555 1_555
H16 C12 1_555 1_555
C18 C12 1_555 1_555
H17 C13 1_555 1_555
H18 C13 1_555 1_555
C19 C13 1_555 1_555
H19 C14 1_555 1_555
H20 C14 1_555 1_555
C20 C14 1_555 1_555
C21 C15 1_555 1_555
H21 C16 1_555 1_555
H22 C16 1_555 1_555
C22 C16 1_555 1_555
H23 C17 1_555 1_555
H24 C17 1_555 1_555
C23 C17 1_555 1_555
C24 C18 1_555 1_555
C25 C19 1_555 1_555
C26 C20 1_555 1_555
H25 C21 1_555 1_555
H26 C22 1_555 1_555
H27 C22 1_555 1_555
C27 C22 1_555 1_555
H28 C23 1_555 1_555
H29 C23 1_555 1_555
C28 C23 1_555 1_555
H30 C24 1_555 1_555
H31 C25 1_555 1_555
H32 C26 1_555 1_555
C29 C27 1_555 1_555
C30 C28 1_555 1_555
H33 C29 1_555 1_555
H34 C30 1_555 1_555
Er3 O15 1_555 1_555
Er4 O17 1_555 1_555
O15 C31 1_555 1_555
O16 C31 1_555 1_555
C31 C32 1_555 1_555
C32 H35 1_555 1_555
H36 C32 1_555 1_555
C33 C32 1_555 1_555
H37 C33 1_555 1_555
H38 C33 1_555 1_555
C34 C33 1_555 1_555
C35 C34 1_555 1_555
H39 C35 1_555 1_555
O17 Er3 1_555 1_555
O18 Er4 1_555 1_555
C36 O17 1_555 1_555
C37 C36 1_555 1_555
H40 C37 1_555 1_555
H41 C37 1_555 1_555
C38 C37 1_555 1_555
H42 C38 1_555 1_555
H43 C38 1_555 1_555
C39 C38 1_555 1_555
C40 C39 1_555 1_555
H44 C40 1_555 1_555
O19 Er3 1_555 1_555
O20 Er3 1_555 1_555
C41 O19 1_555 1_555
C42 C41 1_555 1_555
H45 C42 1_555 1_555
H46 C42 1_555 1_555
C43 C42 1_555 1_555
H47 C43 1_555 1_555
H48 C43 1_555 1_555
C44 C43 1_555 1_555
C45 C44 1_555 1_555
H49 C45 1_555 1_555
O21 C46 1_555 1_555
O22 Er3 1_555 1_555
C46 O22 1_555 1_555
C47 C46 1_555 1_555
H50 C47 1_555 1_555
H51 C47 1_555 1_555
C48 C47 1_555 1_555
H52 C48 1_555 1_555
H53 C48 1_555 1_555
C49 C48 1_555 1_555
C50 C49 1_555 1_555
H54 C50 1_555 1_555
O23 Er3 1_555 1_555
O24 Er3 1_555 1_555
C51 O23 1_555 1_555
C52 C51 1_555 1_555
H55 C52 1_555 1_555
H56 C52 1_555 1_555
C53 C52 1_555 1_555
H57 C53 1_555 1_555
H58 C53 1_555 1_555
C54 C53 1_555 1_555
C55 C54 1_555 1_555
H59 C55 1_555 1_555
O25 Er3 1_555 1_555
O26 Er4 1_555 1_555
C56 O25 1_555 1_555
C57 C56 1_555 1_555
H60 C57 1_555 1_555
H61 C57 1_555 1_555
C58 C57 1_555 1_555
H62 C58 1_555 1_555
H63 C58 1_555 1_555
C59 C58 1_555 1_555
C60 C59 1_555 1_555
H64 C60 1_555 1_555
O27 Er4 1_555 1_555
H65 O27 1_555 1_555
H66 O27 1_555 1_555
Er2C O3 1_555 1_555
O7C Er2 1_555 1_555
O3C Er2 1_555 1_555
Er1C O7C 1_555 1_555
O8C C11 1_555 1_555
Er4C O16 1_555 1_555
O16C Er4 1_555 1_555
O20C Er4 1_555 1_555
O21C Er4 1_555 1_555
O4 C3 1_555 1_555
O7 Er2C 1_555 1_555
C2 O11 1_555 1_555
C4 O13 1_555 1_555
C10 O7C 1_555 1_555
Er4 O24 1_555 1_555
O18 C36 1_555 1_555
O20 C41 1_555 1_555
O20 Er4C 1_555 1_555
O21 Er4C 1_555 1_555
O24 C51 1_555 1_555
O26 C56 1_555 1_555
O3C Er1C 1_555 1_555
Er1C O8C 1_555 1_555

#END
