
#######################################################################
#
#                 Cambridge Crystallographic Data Centre
#                                CCDC 
#
#######################################################################
#
# If this CIF has been generated from an entry in the Cambridge 
# Structural Database, then it will include bibliographic, chemical, 
# crystal, experimental, refinement or atomic coordinate data resulting 
# from the CCDC's data processing and validation procedures.
#
#######################################################################

data_VOTQUS
_symmetry_cell_setting           triclinic
_symmetry_space_group_name_H-M   'P -1'
_symmetry_Int_Tables_number      2
_space_group_name_Hall           '-P 1'
loop_
_symmetry_equiv_pos_site_id
_symmetry_equiv_pos_as_xyz
1 x,y,z
2 -x,-y,-z
_cell_length_a                   11.8792(7)
_cell_length_b                   14.0374(7)
_cell_length_c                   18.0929(7)
_cell_angle_alpha                99.518(4)
_cell_angle_beta                 104.755(4)
_cell_angle_gamma                109.119(5)
_cell_volume                     2652.48
loop_
_atom_site_label
_atom_site_type_symbol
_atom_site_fract_x
_atom_site_fract_y
_atom_site_fract_z
Zn1 Zn 0.76875(4) 0.81795(4) 0.09525(3)
Zn2 Zn 0.20818(4) 0.25079(4) 0.22163(3)
O1 O 0.6359(2) 0.8527(2) 0.12149(14)
O2 O 0.7511(2) 0.8662(2) 0.24383(15)
O3 O 0.2984(3) 0.2403(3) 0.32039(17)
N1 N 0.1349(3) 0.3589(2) 0.20173(18)
N2 N -0.1744(3) 0.7027(2) 0.11979(17)
O4 O 0.1379(2) 0.6895(2) 0.06776(17)
O5 O 0.0964(3) 0.2464(3) 0.61949(17)
N3 N 0.3024(3) 0.2532(2) 0.14327(17)
N4 N -0.0675(3) -0.0576(2) 0.12714(17)
N5 N 0.3053(3) 0.2252(2) 0.02465(16)
N6 N 0.3561(3) 0.7727(2) 0.12785(17)
O6 O 0.3106(3) 0.3875(3) 0.39726(18)
N7 N 0.2351(3) 0.8395(3) 0.1740(2)
H1 H 0.1685 0.8500 0.1800
N8 N 0.0766(3) 0.1009(3) 0.17117(18)
N9 N 0.0469(3) -0.0631(3) 0.1567(2)
N10 N 0.2298(3) 0.2175(2) 0.06666(18)
N11 N 0.4279(3) 0.2674(2) 0.07143(17)
N12 N 0.2019(3) 0.2717(3) 0.52781(18)
N13 N 0.2658(3) 0.1983(3) 0.62033(19)
H2 H 0.2704 0.1710 0.6609
N14 N 0.1328(3) 0.0315(3) 0.1826(2)
C1 C 0.5720(3) 0.2663(3) 0.2615(2)
H3 H 0.5279 0.1924 0.2429
C2 C 0.4370(3) 0.8603(3) 0.1908(2)
C3 C 0.6575(3) 0.8712(3) 0.1968(2)
C4 C 0.5674(3) 0.9055(3) 0.2274(2)
C5 C 0.0467(3) 0.3369(3) 0.1309(2)
H4 H 0.0273 0.2746 0.0916
C6 C 0.5328(3) 0.3310(3) 0.2186(2)
C7 C -0.1100(3) 0.1846(3) 0.2470(2)
C8 C -0.1118(3) 0.5635(3) 0.0748(2)
H5 H -0.1099 0.5159 0.0316
C9 C -0.0663(3) 0.1250(3) 0.2932(2)
H6 H -0.0894 0.0526 0.2700
C10 C -0.1698(3) 0.6324(3) 0.0605(2)
H7 H -0.2080 0.6305 0.0070
C11 C 0.4224(3) 0.2824(3) 0.1443(2)
C12 C 0.0100(4) 0.1696(3) 0.3720(2)
H8 H 0.0378 0.1274 0.4023
C13 C -0.0465(3) 0.0431(3) 0.1363(2)
C14 C -0.0562(3) 0.5640(3) 0.1522(2)
C15 C 0.0121(3) 0.4943(3) 0.1691(2)
C16 C -0.1835(3) 0.1417(3) 0.1608(2)
C17 C 0.0459(4) 0.2752(3) 0.4070(2)
C18 C 0.4428(3) 0.6331(3) 0.1274(2)
C19 C -0.2185(4) 0.0433(3) 0.0270(2)
H9 H -0.1936 0.0023 -0.0078
C20 C -0.0168(3) 0.4014(3) 0.1131(2)
H10 H -0.0799 0.3823 0.0628
C21 C 0.5461(3) 0.5093(3) 0.2059(2)
C22 C -0.3216(4) 0.0681(3) -0.0032(2)
H11 H -0.3686 0.0430 -0.0583
C23 C 0.2311(3) 0.7594(3) 0.1178(2)
C24 C 0.5579(4) 0.5191(3) 0.1330(2)
H12 H 0.5999 0.4826 0.1090
C25 C 0.5942(4) 0.4393(3) 0.2469(2)
C26 C 0.4324(4) 0.6243(3) 0.2006(2)
H13 H 0.3902 0.6605 0.2245
C27 C -0.3556(4) 0.1297(3) 0.0477(2)
H14 H -0.4258 0.1474 0.0273
C28 C -0.1509(3) 0.0783(3) 0.1084(2)
C29 C 0.3595(3) 0.9021(3) 0.2206(2)
C30 C -0.0790(4) 0.2893(3) 0.2841(2)
H15 H -0.1117 0.3304 0.2550
C31 C 0.5384(4) 1.0323(3) 0.3220(2)
H16 H 0.5750 1.0916 0.3669
C32 C 0.6744(4) 0.3099(3) 0.3305(2)
H17 H 0.7010 0.2660 0.3593
C33 C -0.2880(3) 0.1658(3) 0.1282(2)
H18 H -0.3129 0.2079 0.1622
C34 C 0.6161(4) 0.9913(3) 0.2945(2)
H19 H 0.7046 1.0220 0.3218
C35 C -0.1237(4) 0.7016(3) 0.1948(2)
H20 H -0.1277 0.7493 0.2370
C36 C 0.4083(4) 0.9887(3) 0.2853(2)
H21 H 0.3552 1.0173 0.3039
C37 C 0.5088(4) 0.5823(3) 0.0946(2)
H22 H 0.5204 0.5906 0.0457
C38 C 0.1069(4) 0.5185(3) 0.2414(2)
H23 H 0.1316 0.5822 0.2807
C39 C 0.1650(4) 0.4491(3) 0.2556(2)
H24 H 0.2286 0.4660 0.3054
C40 C -0.0019(4) 0.3347(3) 0.3622(2)
H25 H 0.0190 0.4066 0.3858
C41 C 0.3838(3) 0.6945(3) 0.0802(2)
H26 H 0.4418 0.7300 0.0535
H27 H 0.3044 0.6448 0.0383
C42 C 0.4836(4) 0.5623(3) 0.2397(2)
H28 H 0.4754 0.5565 0.2898
C43 C 0.1801(4) 0.2391(3) 0.5926(2)
C44 C 0.1361(4) 0.3320(3) 0.4907(2)
H29 H 0.1997 0.3978 0.4896
H30 H 0.0883 0.3512 0.5240
C45 C 0.3046(4) 0.2511(4) 0.5151(2)
C46 C 0.6980(4) 0.4815(4) 0.3165(3)
H31 H 0.7420 0.5554 0.3360
C47 C -0.0655(4) 0.6332(3) 0.2129(2)
H32 H -0.0321 0.6336 0.2667
C48 C 0.7381(4) 0.4168(4) 0.3576(3)
H33 H 0.8096 0.4466 0.4046
C49 C 0.3610(4) 0.2613(4) 0.4572(3)
C50 C 0.3450(4) 0.2059(4) 0.5754(2)
C51 C 0.3207(4) 0.3026(4) 0.3876(3)
C52 C 0.4460(5) 0.1765(5) 0.5821(3)
H34 H 0.4750 0.1491 0.6244
C53 C 0.5041(6) 0.1883(7) 0.5248(4)
H35 H 0.5751 0.1700 0.5283
C54 C 0.4596(5) 0.2265(6) 0.4627(3)
H36 H 0.4974 0.2291 0.4224
Zn1_2 Zn -0.23125(4) -0.18205(4) 0.09525(3)
Zn1_3 Zn -0.23125(4) 0.81795(4) 0.09525(3)
Zn1A Zn 0.23125(4) 0.18205(4) -0.09525(3)
N2_2 N 0.8256(3) 0.7027(2) 0.11979(17)
N4_2 N 0.9325(3) 0.9424(2) 0.12714(17)
N5A N 0.6947(3) 0.7748(2) -0.02465(16)
loop_
_geom_bond_atom_site_label_1
_geom_bond_atom_site_label_2
_geom_bond_site_symmetry_1
_geom_bond_site_symmetry_2
Zn1 O1 1_555 1_555
Zn2 O3 1_555 1_555
O1 C3 1_555 1_555
O2 C3 1_555 1_555
O3 C51 1_555 1_555
N1 Zn2 1_555 1_555
N2 C10 1_555 1_555
O4 C23 1_555 1_555
O5 C43 1_555 1_555
N3 Zn2 1_555 1_555
N4 N9 1_555 1_555
N5 N10 1_555 1_555
N6 C2 1_555 1_555
O6 C51 1_555 1_555
N7 H1 1_555 1_555
N8 Zn2 1_555 1_555
N9 N14 1_555 1_555
N10 N3 1_555 1_555
N11 N5 1_555 1_555
N12 C43 1_555 1_555
N13 H2 1_555 1_555
N14 N8 1_555 1_555
C1 H3 1_555 1_555
C2 C4 1_555 1_555
C3 C4 1_555 1_555
C4 C34 1_555 1_555
C5 N1 1_555 1_555
H4 C5 1_555 1_555
C6 C1 1_555 1_555
C7 C9 1_555 1_555
C8 H5 1_555 1_555
C9 H6 1_555 1_555
C10 C8 1_555 1_555
H7 C10 1_555 1_555
C11 N3 1_555 1_555
C12 C9 1_555 1_555
H8 C12 1_555 1_555
C13 N4 1_555 1_555
C14 C8 1_555 1_555
C15 C14 1_555 1_555
C16 C7 1_555 1_555
C17 C12 1_555 1_555
C18 C26 1_555 1_555
C19 H9 1_555 1_555
C20 C5 1_555 1_555
H10 C20 1_555 1_555
C21 C24 1_555 1_555
C22 C19 1_555 1_555
H11 C22 1_555 1_555
C23 N6 1_555 1_555
C24 H12 1_555 1_555
C25 C6 1_555 1_555
C26 H13 1_555 1_555
C27 C22 1_555 1_555
H14 C27 1_555 1_555
C28 C13 1_555 1_555
C29 N7 1_555 1_555
C30 C7 1_555 1_555
H15 C30 1_555 1_555
C31 H16 1_555 1_555
C32 C1 1_555 1_555
H17 C32 1_555 1_555
C33 C16 1_555 1_555
H18 C33 1_555 1_555
C34 C31 1_555 1_555
H19 C34 1_555 1_555
C35 N2 1_555 1_555
H20 C35 1_555 1_555
C36 C29 1_555 1_555
H21 C36 1_555 1_555
C37 C18 1_555 1_555
H22 C37 1_555 1_555
C38 C15 1_555 1_555
H23 C38 1_555 1_555
C39 N1 1_555 1_555
H24 C39 1_555 1_555
C40 C17 1_555 1_555
H25 C40 1_555 1_555
C41 N6 1_555 1_555
H26 C41 1_555 1_555
H27 C41 1_555 1_555
C42 C21 1_555 1_555
H28 C42 1_555 1_555
C43 N13 1_555 1_555
C44 N12 1_555 1_555
H29 C44 1_555 1_555
H30 C44 1_555 1_555
C45 N12 1_555 1_555
C46 C25 1_555 1_555
H31 C46 1_555 1_555
C47 C14 1_555 1_555
H32 C47 1_555 1_555
C48 C32 1_555 1_555
H33 C48 1_555 1_555
C49 C45 1_555 1_555
C50 N13 1_555 1_555
C51 C49 1_555 1_555
C52 C50 1_555 1_555
H34 C52 1_555 1_555
C53 C52 1_555 1_555
H35 C53 1_555 1_555
C54 C49 1_555 1_555
H36 C54 1_555 1_555
Zn1_2 N4 1_555 1_555
Zn1_3 N2 1_555 1_555
Zn1A N5 1_555 1_555
N2_2 Zn1 1_555 1_555
N4_2 Zn1 1_555 1_555
N5A Zn1 1_555 1_555
N7 C23 1_555 1_555
N8 C13 1_555 1_555
N11 C11 1_555 1_555
C2 C29 1_555 1_555
C6 C11 1_555 1_555
C15 C20 1_555 1_555
C16 C28 1_555 1_555
C17 C44 1_555 1_555
C18 C41 1_555 1_555
C19 C28 1_555 1_555
C21 C25 1_555 1_555
C24 C37 1_555 1_555
C26 C42 1_555 1_555
C27 C33 1_555 1_555
C30 C40 1_555 1_555
C31 C36 1_555 1_555
C35 C47 1_555 1_555
C38 C39 1_555 1_555
C45 C50 1_555 1_555
C46 C48 1_555 1_555
C53 C54 1_555 1_555

#END
