
#######################################################################
#
#                 Cambridge Crystallographic Data Centre
#                                CCDC 
#
#######################################################################
#
# If this CIF has been generated from an entry in the Cambridge 
# Structural Database, then it will include bibliographic, chemical, 
# crystal, experimental, refinement or atomic coordinate data resulting 
# from the CCDC's data processing and validation procedures.
#
#######################################################################

data_VOTQAY
_symmetry_cell_setting           tetragonal
_symmetry_space_group_name_H-M   'P 42/n'
_symmetry_Int_Tables_number      86
_space_group_name_Hall           '-P 4bc'
loop_
_symmetry_equiv_pos_site_id
_symmetry_equiv_pos_as_xyz
1 x,y,z
2 1/2-x,1/2-y,z
3 -y,1/2+x,1/2+z
4 1/2+y,-x,1/2+z
5 -x,-y,-z
6 1/2+x,1/2+y,-z
7 y,1/2-x,1/2-z
8 1/2-y,x,1/2-z
_cell_length_a                   12.752(5)
_cell_length_b                   12.752(5)
_cell_length_c                   10.985(5)
_cell_angle_alpha                90
_cell_angle_beta                 90
_cell_angle_gamma                90
_cell_volume                     1786.31
loop_
_atom_site_label
_atom_site_type_symbol
_atom_site_fract_x
_atom_site_fract_y
_atom_site_fract_z
C1 C 0.2673(2) -0.4265(2) 0.4170(2)
C2 C 0.2724(2) -0.3964(3) 0.5378(3)
H1 H 0.2127 -0.3984 0.5865
C3 C 0.3663(3) -0.3637(3) 0.5850(3)
H2 H 0.3704 -0.3444 0.6665
C4 C 0.4547(2) -0.3592(2) 0.5129(3)
C5 C 0.4492(2) -0.3874(3) 0.3912(3)
H3 H 0.5085 -0.3832 0.3421
C6 C 0.3554(2) -0.4218(3) 0.3438(3)
H4 H 0.3512 -0.4418 0.2626
C7 C 0.5516(3) -0.3294(3) 0.5689(3)
C8 C 0.0890(2) -0.4804(2) 0.4345(2)
C9 C 0.0893(2) -0.5612(2) 0.5170(3)
H5 H 0.1490 -0.6019 0.5282
C10 C -0.0010(2) -0.5810(2) 0.5833(3)
H6 H -0.0023 -0.6354 0.6397
N1 N 0.6252(2) -0.3055(3) 0.6194(3)
Ag1 Ag 0.7500 -0.2500 0.7500
O1 O 0.17689(16) -0.4607(2) 0.36245(18)
C1D C -0.2673(2) -0.5735(2) 0.5830(2)
C2D C -0.2724(2) -0.6036(3) 0.4622(3)
H1D H -0.2127 -0.6016 0.4135
C3D C -0.3663(3) -0.6363(3) 0.4150(3)
H2D H -0.3704 -0.6556 0.3335
C4D C -0.4547(2) -0.6408(2) 0.4871(3)
C5D C -0.4492(2) -0.6126(3) 0.6088(3)
H3D H -0.5085 -0.6168 0.6579
C6D C -0.3554(2) -0.5782(3) 0.6562(3)
H4D H -0.3512 -0.5582 0.7374
C7D C -0.5516(3) -0.6706(3) 0.4311(3)
C8D C -0.0890(2) -0.5196(2) 0.5655(2)
C9D C -0.0893(2) -0.4388(2) 0.4830(3)
H5D H -0.1490 -0.3981 0.4718
C10D C 0.0010(2) -0.4190(2) 0.4167(3)
H6D H 0.0023 -0.3646 0.3603
N1D N -0.6252(2) -0.6945(3) 0.3806(3)
O1D O -0.17689(16) -0.5393(2) 0.63755(18)
C1A C 1.2327(2) -0.0735(2) 0.4170(2)
C2A C 1.2276(2) -0.1036(3) 0.5378(3)
H1A H 1.2873 -0.1016 0.5865
C3A C 1.1337(3) -0.1363(3) 0.5850(3)
H2A H 1.1296 -0.1556 0.6665
C4A C 1.0453(2) -0.1408(2) 0.5129(3)
C5A C 1.0508(2) -0.1126(3) 0.3912(3)
H3A H 0.9915 -0.1168 0.3421
C6A C 1.1446(2) -0.0782(3) 0.3438(3)
H4A H 1.1488 -0.0582 0.2626
C7A C 0.9484(3) -0.1706(3) 0.5689(3)
C8A C 1.4110(2) -0.0196(2) 0.4345(2)
C9A C 1.4107(2) 0.0612(2) 0.5170(3)
H5A H 1.3510 0.1019 0.5282
C10A C 1.5010(2) 0.0810(2) 0.5833(3)
H6A H 1.5023 0.1354 0.6397
N1A N 0.8748(2) -0.1945(3) 0.6194(3)
O1A O 1.32311(16) -0.0393(2) 0.36245(18)
C1E C 1.7673(2) 0.0735(2) 0.5830(2)
C2E C 1.7724(2) 0.1036(3) 0.4622(3)
H1E H 1.7127 0.1016 0.4135
C3E C 1.8663(3) 0.1363(3) 0.4150(3)
H2E H 1.8704 0.1556 0.3335
C4E C 1.9547(2) 0.1408(2) 0.4871(3)
C5E C 1.9492(2) 0.1126(3) 0.6088(3)
H3E H 2.0085 0.1168 0.6579
C6E C 1.8554(2) 0.0782(3) 0.6562(3)
H4E H 1.8512 0.0582 0.7374
C7E C 2.0516(3) 0.1706(3) 0.4311(3)
C8E C 1.5890(2) 0.0196(2) 0.5655(2)
C9E C 1.5893(2) -0.0612(2) 0.4830(3)
H5E H 1.6490 -0.1019 0.4718
C10E C 1.4990(2) -0.0810(2) 0.4167(3)
H6E H 1.4977 -0.1354 0.3603
N1E N 2.1252(2) 0.1945(3) 0.3806(3)
O1E O 1.67689(16) 0.0393(2) 0.63755(18)
N1F N 0.6945(3) -0.1252(2) 0.8806(3)
N1G N 0.8055(3) -0.3748(2) 0.8806(3)
Ag1B Ag -0.7500 -0.7500 0.2500
Ag1B_2 Ag 2.2500 0.2500 0.2500
B1 B 0.2500 -0.7500 0.7500
F1 F 0.1928(6) -0.6940(5) 0.8172(6)
F1A F 0.3072(6) -0.8060(5) 0.8172(6)
F1F F 0.3060(5) -0.6928(6) 0.6828(6)
F1G F 0.1940(5) -0.8072(6) 0.6828(6)
loop_
_geom_bond_atom_site_label_1
_geom_bond_atom_site_label_2
_geom_bond_site_symmetry_1
_geom_bond_site_symmetry_2
C1 C2 1_555 1_555
C2 H1 1_555 1_555
C3 C2 1_555 1_555
H2 C3 1_555 1_555
C4 C3 1_555 1_555
C5 C4 1_555 1_555
H3 C5 1_555 1_555
C6 C1 1_555 1_555
H4 C6 1_555 1_555
C7 C4 1_555 1_555
C8 C9 1_555 1_555
C9 H5 1_555 1_555
C10 C9 1_555 1_555
H6 C10 1_555 1_555
N1 C7 1_555 1_555
Ag1 N1 1_555 1_555
O1 C1 1_555 1_555
B1 F1 1_555 1_555
C1D C2D 1_555 1_555
C2D H1D 1_555 1_555
C3D C2D 1_555 1_555
H2D C3D 1_555 1_555
C4D C3D 1_555 1_555
C5D C4D 1_555 1_555
H3D C5D 1_555 1_555
C6D C1D 1_555 1_555
H4D C6D 1_555 1_555
C7D C4D 1_555 1_555
C8D C10 1_555 1_555
C9D C8D 1_555 1_555
H5D C9D 1_555 1_555
C10D C8 1_555 1_555
H6D C10D 1_555 1_555
N1D C7D 1_555 1_555
O1D C1D 1_555 1_555
C1A C2A 1_555 1_555
C2A H1A 1_555 1_555
C3A C2A 1_555 1_555
H2A C3A 1_555 1_555
C4A C3A 1_555 1_555
C5A C4A 1_555 1_555
H3A C5A 1_555 1_555
C6A C1A 1_555 1_555
H4A C6A 1_555 1_555
C7A C4A 1_555 1_555
C8A C9A 1_555 1_555
C9A H5A 1_555 1_555
C10A C9A 1_555 1_555
H6A C10A 1_555 1_555
N1A Ag1 1_555 1_555
O1A C1A 1_555 1_555
C1E C2E 1_555 1_555
C2E H1E 1_555 1_555
C3E C2E 1_555 1_555
H2E C3E 1_555 1_555
C4E C3E 1_555 1_555
C5E C4E 1_555 1_555
H3E C5E 1_555 1_555
C6E C1E 1_555 1_555
H4E C6E 1_555 1_555
C7E C4E 1_555 1_555
C8E C10A 1_555 1_555
C9E C8E 1_555 1_555
H5E C9E 1_555 1_555
C10E C8A 1_555 1_555
H6E C10E 1_555 1_555
N1E C7E 1_555 1_555
O1E C1E 1_555 1_555
N1F Ag1 1_555 1_555
N1G Ag1 1_555 1_555
Ag1B N1D 1_555 1_555
Ag1B_2 N1E 1_555 1_555
F1A B1 1_555 1_555
F1F B1 1_555 1_555
F1G B1 1_555 1_555
C5 C6 1_555 1_555
C8 O1 1_555 1_555
C5D C6D 1_555 1_555
C8D O1D 1_555 1_555
C9D C10D 1_555 1_555
C5A C6A 1_555 1_555
C7A N1A 1_555 1_555
C8A O1A 1_555 1_555
C5E C6E 1_555 1_555
C8E O1E 1_555 1_555
C9E C10E 1_555 1_555

#END
