
#######################################################################
#
#                 Cambridge Crystallographic Data Centre
#                                CCDC 
#
#######################################################################
#
# If this CIF has been generated from an entry in the Cambridge 
# Structural Database, then it will include bibliographic, chemical, 
# crystal, experimental, refinement or atomic coordinate data resulting 
# from the CCDC's data processing and validation procedures.
#
#######################################################################

data_VOTRAZ
_symmetry_cell_setting           monoclinic
_symmetry_space_group_name_H-M   'P 21/c'
_symmetry_Int_Tables_number      14
_space_group_name_Hall           '-P 2ybc'
loop_
_symmetry_equiv_pos_site_id
_symmetry_equiv_pos_as_xyz
1 x,y,z
2 -x,1/2+y,1/2-z
3 -x,-y,-z
4 x,1/2-y,1/2+z
_cell_length_a                   9.60764(16)
_cell_length_b                   10.85107(20)
_cell_length_c                   28.0995(5)
_cell_angle_alpha                90
_cell_angle_beta                 94.0491(16)
_cell_angle_gamma                90
_cell_volume                     2922.15
loop_
_atom_site_label
_atom_site_type_symbol
_atom_site_fract_x
_atom_site_fract_y
_atom_site_fract_z
Zn1 Zn 0.94636(2) 0.73327(2) 0.202424(8)
O1 O 0.74295(13) 0.70967(12) 0.18581(5)
N1 N 1.06640(15) 0.40468(13) 0.26879(5)
O2 O 0.94025(16) 1.26704(13) 0.35247(5)
N2 N 1.02624(14) 0.59177(14) 0.24267(5)
O3 O 1.01301(15) 1.07729(14) 0.36423(5)
O4 O 0.85932(17) 0.76527(13) 0.49623(5)
N3 N 0.89332(16) 0.93726(15) 0.45059(5)
N4 N 1.19044(15) 0.46418(15) 0.26540(6)
N5 N 1.16695(15) 0.57461(14) 0.24967(6)
N6 N 0.55659(17) 0.61767(15) 0.14639(6)
N7 N 0.74923(18) 0.95434(17) 0.51080(6)
C1 C 0.96769(17) 0.48556(16) 0.25487(6)
C2 C 0.73327(17) 0.53452(16) 0.28197(6)
C3 C 0.8299(2) 0.88419(19) 0.48789(7)
C4 C 0.75631(18) 0.37715(16) 0.22095(6)
H1 H 0.8124 0.3298 0.2024
C5 C 0.81601(17) 0.46330(16) 0.25311(6)
C6 C 0.79782(17) 0.62060(16) 0.31842(6)
C7 C 0.95248(19) 0.65717(17) 0.38833(7)
H2 H 1.0143 0.6267 0.4125
C8 C 0.86243(18) 1.16268(18) 0.41993(6)
C9 C 0.84534(18) 1.05914(17) 0.44902(6)
C10 C 0.69127(19) 0.63267(17) 0.15623(7)
H3 H 0.7520 0.5833 0.1403
C11 C 0.94464(18) 1.16719(18) 0.37636(7)
C12 C 0.92169(18) 0.78262(17) 0.38714(6)
C13 C 0.76486(18) 0.74575(17) 0.31727(7)
H4 H 0.7005 0.7757 0.2938
C14 C 0.75633(19) 1.06602(19) 0.48739(7)
C15 C 0.52916(18) 0.43570(18) 0.24393(7)
H5 H 0.4326 0.4271 0.2407
C16 C 0.58896(18) 0.52129(17) 0.27576(7)
H6 H 0.5319 0.5706 0.2932
C17 C 0.89309(19) 0.57658(17) 0.35435(7)
H7 H 0.9166 0.4934 0.3555
C18 C 0.99266(19) 0.86720(17) 0.42374(7)
H8 H 1.0522 0.8188 0.4459
H9 H 1.0515 0.9244 0.4078
C19 C 0.61152(19) 0.36283(17) 0.21686(7)
H10 H 0.5706 0.3045 0.1960
C20 C 0.82737(18) 0.82621(17) 0.35092(7)
H11 H 0.8061 0.9098 0.3493
C21 C 0.7919(2) 1.27060(19) 0.43195(7)
H12 H 0.8016 1.3408 0.4135
C22 C 0.6888(2) 1.1743(2) 0.49808(7)
H13 H 0.6317 1.1777 0.5234
C23 C 0.5059(2) 0.5269(2) 0.11114(8)
H14 H 0.5837 0.4859 0.0985
H15 H 0.4516 0.5674 0.0857
H16 H 0.4488 0.4675 0.1259
C24 C 0.4523(2) 0.6841(2) 0.17159(8)
H17 H 0.3979 0.6264 0.1884
H18 H 0.3922 0.7291 0.1491
H19 H 0.4981 0.7404 0.1939
C25 C 0.7080(2) 1.2767(2) 0.47036(8)
H20 H 0.6647 1.3505 0.4773
C26 C 0.8454(3) 0.5839(3) 0.54198(12)
H21 H 0.8170 0.5383 0.5137
H22 H 0.8065 0.5464 0.5690
H23 H 0.9454 0.5836 0.5466
C27 C 0.7944(3) 0.7141(2) 0.53681(8)
H24 H 0.6936 0.7159 0.5314
H25 H 0.8208 0.7610 0.5654
Zn1A Zn 1.05364(2) 0.23327(2) 0.297576(8)
Zn1A_2 Zn 1.05364(2) 1.23327(2) 0.297576(8)
N1A N 0.93360(15) 0.90468(13) 0.23121(5)
O2A O 1.05975(16) 0.76704(13) 0.14753(5)
O3A O 0.98699(15) 0.57729(14) 0.13577(5)
O5 O 0.3107(2) 0.75733(16) 0.38815(6)
N8 N 0.4441(2) 0.5840(2) 0.39338(8)
C28 C 0.3308(2) 0.6491(2) 0.37847(8)
H26 H 0.2622 0.6090 0.3593
C29 C 0.4561(3) 0.4539(3) 0.38207(11)
H27 H 0.4511 0.4060 0.4106
H28 H 0.5438 0.4391 0.3687
H29 H 0.3813 0.4307 0.3594
C30 C 0.5551(3) 0.6384(3) 0.42384(10)
H30 H 0.5434 0.7262 0.4244
H31 H 0.6434 0.6188 0.4117
H32 H 0.5521 0.6063 0.4556
loop_
_geom_bond_atom_site_label_1
_geom_bond_atom_site_label_2
_geom_bond_site_symmetry_1
_geom_bond_site_symmetry_2
Zn1 O1 1_555 1_555
O1 C10 1_555 1_555
N1 N4 1_555 1_555
O2 C11 1_555 1_555
N2 Zn1 1_555 1_555
O3 C11 1_555 1_555
O4 C3 1_555 1_555
N3 C3 1_555 1_555
N4 N5 1_555 1_555
N5 N2 1_555 1_555
N6 C10 1_555 1_555
N7 C3 1_555 1_555
C1 N1 1_555 1_555
C2 C5 1_555 1_555
C4 H1 1_555 1_555
C5 C1 1_555 1_555
C6 C2 1_555 1_555
C7 H2 1_555 1_555
C8 C9 1_555 1_555
C9 N3 1_555 1_555
C10 H3 1_555 1_555
C11 C8 1_555 1_555
C12 C7 1_555 1_555
C13 C6 1_555 1_555
H4 C13 1_555 1_555
C14 N7 1_555 1_555
C15 H5 1_555 1_555
C16 C2 1_555 1_555
H6 C16 1_555 1_555
C17 C6 1_555 1_555
H7 C17 1_555 1_555
C18 N3 1_555 1_555
H8 C18 1_555 1_555
H9 C18 1_555 1_555
C19 C4 1_555 1_555
H10 C19 1_555 1_555
C20 C12 1_555 1_555
H11 C20 1_555 1_555
C21 C8 1_555 1_555
H12 C21 1_555 1_555
C22 C14 1_555 1_555
H13 C22 1_555 1_555
C23 N6 1_555 1_555
H14 C23 1_555 1_555
H15 C23 1_555 1_555
H16 C23 1_555 1_555
C24 N6 1_555 1_555
H17 C24 1_555 1_555
H18 C24 1_555 1_555
H19 C24 1_555 1_555
C25 C21 1_555 1_555
H20 C25 1_555 1_555
C26 H21 1_555 1_555
H22 C26 1_555 1_555
H23 C26 1_555 1_555
C27 O4 1_555 1_555
H24 C27 1_555 1_555
H25 C27 1_555 1_555
O5 C28 1_555 1_555
N8 C28 1_555 1_555
C28 H26 1_555 1_555
C29 N8 1_555 1_555
H27 C29 1_555 1_555
H28 C29 1_555 1_555
H29 C29 1_555 1_555
C30 N8 1_555 1_555
H30 C30 1_555 1_555
H31 C30 1_555 1_555
H32 C30 1_555 1_555
Zn1A N1 1_555 1_555
Zn1A_2 O2 1_555 1_555
N1A Zn1 1_555 1_555
O2A Zn1 1_555 1_555
O3A Zn1 1_555 1_555
N2 C1 1_555 1_555
O3 Zn1A_2 1_555 1_555
C4 C5 1_555 1_555
C7 C17 1_555 1_555
C9 C14 1_555 1_555
C12 C18 1_555 1_555
C13 C20 1_555 1_555
C15 C16 1_555 1_555
C15 C19 1_555 1_555
C22 C25 1_555 1_555
C26 C27 1_555 1_555

#END
