
#######################################################################
#
#                 Cambridge Crystallographic Data Centre
#                                CCDC 
#
#######################################################################
#
# If this CIF has been generated from an entry in the Cambridge 
# Structural Database, then it will include bibliographic, chemical, 
# crystal, experimental, refinement or atomic coordinate data resulting 
# from the CCDC's data processing and validation procedures.
#
#######################################################################

data_VOTWEI
_symmetry_cell_setting           triclinic
_symmetry_space_group_name_H-M   'P -1'
_symmetry_Int_Tables_number      2
_space_group_name_Hall           '-P 1'
loop_
_symmetry_equiv_pos_site_id
_symmetry_equiv_pos_as_xyz
1 x,y,z
2 -x,-y,-z
_cell_length_a                   7.3845(6)
_cell_length_b                   7.8414(6)
_cell_length_c                   11.2217(10)
_cell_angle_alpha                85.382(7)
_cell_angle_beta                 74.061(7)
_cell_angle_gamma                63.215(8)
_cell_volume                     557.061
loop_
_atom_site_label
_atom_site_type_symbol
_atom_site_fract_x
_atom_site_fract_y
_atom_site_fract_z
Mn1 Mn 0.0000 0.0000 1.00000
O1 O 0.6168(2) 0.8121(2) -0.12008(13)
O2 O 0.0975(2) 0.1346(2) 0.83592(13)
O3 O 0.3269(2) 0.7932(2) -0.00365(13)
O4 O -0.0049(2) -0.2100(2) 0.88175(13)
H1 H 0.070(3) -0.3227(2) 0.9001(13)
H2 H 0.044(3) -0.195(2) 0.80599(16)
O5 O 0.1632(2) -0.0715(2) 0.68399(14)
N1 N 0.5031(3) 0.6523(2) 0.18785(15)
N2 N 0.3497(3) 0.5630(2) 0.35666(15)
C1 C 0.4890(3) 0.5018(3) 0.24471(18)
H3 H 0.5625(3) 0.3759(3) 0.21267(18)
C2 C 0.3232(3) 0.2674(3) 0.41279(18)
H4 H 0.3754(3) 0.2257(3) 0.32959(18)
C3 C 0.2752(3) 0.7587(3) 0.36957(19)
H5 H 0.1772(3) 0.8375(3) 0.43810(19)
C4 C 0.1925(3) 0.2142(3) 0.62830(18)
C5 C 0.6396(3) 0.6517(3) 0.06570(18)
H6 H 0.7302(3) 0.7066(3) 0.07404(18)
H7 H 0.7287(3) 0.5207(3) 0.03318(18)
C6 C 0.3711(3) 0.8142(3) 0.26415(19)
H8 H 0.3517(3) 0.9383(3) 0.24648(19)
C7 C 0.5139(3) 0.7653(3) -0.02653(18)
C8 C 0.2106(3) 0.5113(3) 0.57282(18)
H9 H 0.1905(3) 0.6313(3) 0.59558(18)
C9 C 0.1584(3) 0.3955(3) 0.66201(18)
H10 H 0.1002(3) 0.4394(3) 0.74478(18)
C10 C 0.2935(3) 0.4451(3) 0.44883(17)
C11 C 0.2734(3) 0.1534(3) 0.50333(19)
H11 H 0.2944(3) 0.0331(3) 0.48026(19)
C12 C 0.1474(3) 0.0815(3) 0.72358(18)
O1A O -0.6168(2) -0.8121(2) 2.12008(13)
O2A O -0.0975(2) -0.1346(2) 1.16408(13)
O3A O -0.3269(2) -0.7932(2) 2.00365(13)
O4A O 0.0049(2) 0.2100(2) 1.11825(13)
H1A H -0.070(3) 0.3227(2) 1.0999(13)
H2A H -0.044(3) 0.195(2) 1.19401(16)
O5A O -0.1632(2) 0.0715(2) 1.31601(14)
N1A N -0.5031(3) -0.6523(2) 1.81215(15)
N2A N -0.3497(3) -0.5630(2) 1.64334(15)
C1A C -0.4890(3) -0.5018(3) 1.75529(18)
H3A H -0.5625(3) -0.3759(3) 1.78733(18)
C2A C -0.3232(3) -0.2674(3) 1.58721(18)
H4A H -0.3754(3) -0.2257(3) 1.67041(18)
C3A C -0.2752(3) -0.7587(3) 1.63043(19)
H5A H -0.1772(3) -0.8375(3) 1.56190(19)
C4A C -0.1925(3) -0.2142(3) 1.37170(18)
C5A C -0.6396(3) -0.6517(3) 1.93430(18)
H6A H -0.7302(3) -0.7066(3) 1.92596(18)
H7A H -0.7287(3) -0.5207(3) 1.96682(18)
C6A C -0.3711(3) -0.8142(3) 1.73585(19)
H8A H -0.3517(3) -0.9383(3) 1.75352(19)
C7A C -0.5139(3) -0.7653(3) 2.02653(18)
C8A C -0.2106(3) -0.5113(3) 1.42718(18)
H9A H -0.1905(3) -0.6313(3) 1.40442(18)
C9A C -0.1584(3) -0.3955(3) 1.33799(18)
H10A H -0.1002(3) -0.4394(3) 1.25522(18)
C10A C -0.2935(3) -0.4451(3) 1.55117(17)
C11A C -0.2734(3) -0.1534(3) 1.49667(19)
H11A H -0.2944(3) -0.0331(3) 1.51974(19)
C12A C -0.1474(3) -0.0815(3) 1.27642(18)
Mn1_2 Mn 0.0000 -1.0000 2.00000
Mn1_3 Mn 0.0000 1.0000 0.00000
O3_2 O 0.3269(2) -0.2068(2) 0.99635(13)
O3A_2 O -0.3269(2) 0.2068(2) 1.00365(13)
loop_
_geom_bond_atom_site_label_1
_geom_bond_atom_site_label_2
_geom_bond_site_symmetry_1
_geom_bond_site_symmetry_2
Mn1 O2 1_555 1_555
O1 C7 1_555 1_555
O2 C12 1_555 1_555
O3 C7 1_555 1_555
O4 Mn1 1_555 1_555
H1 O4 1_555 1_555
H2 O4 1_555 1_555
O5 C12 1_555 1_555
N1 C1 1_555 1_555
N2 C1 1_555 1_555
C1 H3 1_555 1_555
C2 H4 1_555 1_555
C3 N2 1_555 1_555
H5 C3 1_555 1_555
C4 C9 1_555 1_555
C5 N1 1_555 1_555
H6 C5 1_555 1_555
H7 C5 1_555 1_555
C6 N1 1_555 1_555
H8 C6 1_555 1_555
C7 C5 1_555 1_555
C8 H9 1_555 1_555
C9 C8 1_555 1_555
H10 C9 1_555 1_555
C10 N2 1_555 1_555
C11 C2 1_555 1_555
H11 C11 1_555 1_555
C12 C4 1_555 1_555
O1A C7A 1_555 1_555
O2A Mn1 1_555 1_555
O3A C7A 1_555 1_555
O4A Mn1 1_555 1_555
H1A O4A 1_555 1_555
H2A O4A 1_555 1_555
O5A C12A 1_555 1_555
N1A C1A 1_555 1_555
N2A C1A 1_555 1_555
C1A H3A 1_555 1_555
C2A H4A 1_555 1_555
C3A N2A 1_555 1_555
H5A C3A 1_555 1_555
C4A C9A 1_555 1_555
C5A N1A 1_555 1_555
H6A C5A 1_555 1_555
H7A C5A 1_555 1_555
C6A N1A 1_555 1_555
H8A C6A 1_555 1_555
C7A C5A 1_555 1_555
C8A H9A 1_555 1_555
C9A C8A 1_555 1_555
H10A C9A 1_555 1_555
C10A N2A 1_555 1_555
C11A C2A 1_555 1_555
H11A C11A 1_555 1_555
C12A O2A 1_555 1_555
Mn1_2 O3A 1_555 1_555
Mn1_3 O3 1_555 1_555
O3_2 Mn1 1_555 1_555
O3A_2 Mn1 1_555 1_555
C2 C10 1_555 1_555
C3 C6 1_555 1_555
C4 C11 1_555 1_555
C8 C10 1_555 1_555
C2A C10A 1_555 1_555
C3A C6A 1_555 1_555
C4A C11A 1_555 1_555
C4A C12A 1_555 1_555
C8A C10A 1_555 1_555

#END
