
#######################################################################
#
#                 Cambridge Crystallographic Data Centre
#                                CCDC 
#
#######################################################################
#
# If this CIF has been generated from an entry in the Cambridge 
# Structural Database, then it will include bibliographic, chemical, 
# crystal, experimental, refinement or atomic coordinate data resulting 
# from the CCDC's data processing and validation procedures.
#
#######################################################################

data_VOTWUY
_symmetry_cell_setting           triclinic
_symmetry_space_group_name_H-M   'P -1'
_symmetry_Int_Tables_number      2
_space_group_name_Hall           '-P 1'
loop_
_symmetry_equiv_pos_site_id
_symmetry_equiv_pos_as_xyz
1 x,y,z
2 -x,-y,-z
_cell_length_a                   6.9546(6)
_cell_length_b                   8.0346(8)
_cell_length_c                   10.4551(9)
_cell_angle_alpha                100.687(8)
_cell_angle_beta                 103.018(7)
_cell_angle_gamma                108.818(8)
_cell_volume                     517.235
loop_
_atom_site_label
_atom_site_type_symbol
_atom_site_fract_x
_atom_site_fract_y
_atom_site_fract_z
Cu1 Cu 0.0000 0.00000 0.00000
O1 O 0.0331(2) 0.24775(17) 0.08880(12)
O2 O 0.1263(2) 0.13774(18) 0.26304(13)
O3 O 0.2855(2) 0.08116(18) -0.02218(14)
C1 C 0.0974(3) 0.2626(2) 0.21670(19)
C2 C 0.1432(3) 0.4442(2) 0.31351(18)
C3 C 0.2447(3) 0.4750(3) 0.45077(19)
C4 C 0.0944(3) 0.5842(3) 0.27066(18)
C5 C 0.3012(3) 0.6406(3) 0.54557(19)
H1 H 0.2758(3) 0.3815(3) 0.47991(19)
H2 H 0.0237(3) 0.5647(3) 0.17913(18)
C6 C 0.1507(3) 0.7525(2) 0.36392(18)
H3 H 0.3683(3) 0.6587(3) 0.63749(19)
C7 C 0.2555(3) 0.7794(2) 0.50054(18)
H4 H 0.1188(3) 0.8461(2) 0.33531(18)
N1 N 0.3208(2) 0.9540(2) 0.59842(15)
C8 C 0.4416(3) 1.0015(2) 0.72938(18)
C9 C 0.2711(3) 1.1013(2) 0.57456(19)
N2 N 0.4689(2) 1.1718(2) 0.78763(15)
H5 H 0.4967(3) 0.9275(2) 0.77174(18)
C10 C 0.3625(3) 1.2366(2) 0.69358(18)
H6 H 0.1903(3) 1.1063(2) 0.49241(19)
C11 C 0.5836(3) 1.2746(2) 0.93129(17)
H7 H 0.3550(3) 1.3518(2) 0.70896(18)
H8 H 0.7093(3) 1.2466(2) 0.96069(17)
H9 H 0.6310(3) 1.4047(2) 0.93922(17)
C12 C 0.4471(3) 1.2308(2) 1.02597(18)
O4 O 0.5126(2) 1.33904(18) 1.14073(13)
O1A O -0.0331(2) -0.24775(17) -0.08880(12)
O2A O -0.1263(2) -0.13774(18) -0.26304(13)
O3A O -0.2855(2) -0.08116(18) 0.02218(14)
C1A C -0.0974(3) -0.2626(2) -0.21670(19)
C2A C -0.1432(3) -0.4442(2) -0.31351(18)
C3A C -0.2447(3) -0.4750(3) -0.45077(19)
C4A C -0.0944(3) -0.5842(3) -0.27066(18)
C5A C -0.3012(3) -0.6406(3) -0.54557(19)
H1A H -0.2758(3) -0.3815(3) -0.47991(19)
H2A H -0.0237(3) -0.5647(3) -0.17913(18)
C6A C -0.1507(3) -0.7525(2) -0.36392(18)
H3A H -0.3683(3) -0.6587(3) -0.63749(19)
C7A C -0.2555(3) -0.7794(2) -0.50054(18)
H4A H -0.1188(3) -0.8461(2) -0.33531(18)
N1A N -0.3208(2) -0.9540(2) -0.59842(15)
C8A C -0.4416(3) -1.0015(2) -0.72938(18)
C9A C -0.2711(3) -1.1013(2) -0.57456(19)
N2A N -0.4689(2) -1.1718(2) -0.78763(15)
H5A H -0.4967(3) -0.9275(2) -0.77174(18)
C10A C -0.3625(3) -1.2366(2) -0.69358(18)
H6A H -0.1903(3) -1.1063(2) -0.49241(19)
C11A C -0.5836(3) -1.2746(2) -0.93129(17)
H7A H -0.3550(3) -1.3518(2) -0.70896(18)
H8A H -0.7093(3) -1.2466(2) -0.96069(17)
H9A H -0.6310(3) -1.4047(2) -0.93922(17)
C12A C -0.4471(3) -1.2308(2) -1.02597(18)
O3_2 O 0.2855(2) 1.08116(18) 0.97782(14)
O4A O -0.5126(2) -1.33904(18) -1.14073(13)
O3A_2 O -0.2855(2) -1.08116(18) -0.97782(14)
Cu1_2 Cu 0.0000 1.00000 1.00000
Cu1_3 Cu 0.0000 -1.00000 -1.00000
loop_
_geom_bond_atom_site_label_1
_geom_bond_atom_site_label_2
_geom_bond_site_symmetry_1
_geom_bond_site_symmetry_2
Cu1 O1 1_555 1_555
O1 C1 1_555 1_555
O2 Cu1 1_555 1_555
O3 Cu1 1_555 1_555
C1 O2 1_555 1_555
C2 C1 1_555 1_555
C3 C2 1_555 1_555
C4 C2 1_555 1_555
C5 C3 1_555 1_555
H1 C3 1_555 1_555
H2 C4 1_555 1_555
C6 C4 1_555 1_555
H3 C5 1_555 1_555
C7 C5 1_555 1_555
H4 C6 1_555 1_555
N1 C7 1_555 1_555
C8 N1 1_555 1_555
C9 N1 1_555 1_555
N2 C8 1_555 1_555
H5 C8 1_555 1_555
C10 C9 1_555 1_555
H6 C9 1_555 1_555
C11 N2 1_555 1_555
H7 C10 1_555 1_555
H8 C11 1_555 1_555
H9 C11 1_555 1_555
C12 C11 1_555 1_555
O4 C12 1_555 1_555
O1A Cu1 1_555 1_555
O2A Cu1 1_555 1_555
O3A Cu1 1_555 1_555
C1A O1A 1_555 1_555
C2A C1A 1_555 1_555
C3A C2A 1_555 1_555
C4A C2A 1_555 1_555
C5A C3A 1_555 1_555
H1A C3A 1_555 1_555
H2A C4A 1_555 1_555
C6A C4A 1_555 1_555
H3A C5A 1_555 1_555
C7A C5A 1_555 1_555
H4A C6A 1_555 1_555
N1A C7A 1_555 1_555
C8A N1A 1_555 1_555
C9A N1A 1_555 1_555
N2A C8A 1_555 1_555
H5A C8A 1_555 1_555
C10A C9A 1_555 1_555
H6A C9A 1_555 1_555
C11A N2A 1_555 1_555
H7A C10A 1_555 1_555
H8A C11A 1_555 1_555
H9A C11A 1_555 1_555
C12A C11A 1_555 1_555
O3_2 C12 1_555 1_555
O4A C12A 1_555 1_555
O3A_2 C12A 1_555 1_555
Cu1_2 O3_2 1_555 1_555
Cu1_3 O3A_2 1_555 1_555
C6 C7 1_555 1_555
N2 C10 1_555 1_555
O2A C1A 1_555 1_555
C6A C7A 1_555 1_555
N2A C10A 1_555 1_555

#END
