
#######################################################################
#
#                 Cambridge Crystallographic Data Centre
#                                CCDC 
#
#######################################################################
#
# If this CIF has been generated from an entry in the Cambridge 
# Structural Database, then it will include bibliographic, chemical, 
# crystal, experimental, refinement or atomic coordinate data resulting 
# from the CCDC's data processing and validation procedures.
#
#######################################################################

data_VOTXIN
_symmetry_cell_setting           tetragonal
_symmetry_space_group_name_H-M   'P 41 21 2'
_symmetry_Int_Tables_number      92
_space_group_name_Hall           'P 4abw 2nw'
loop_
_symmetry_equiv_pos_site_id
_symmetry_equiv_pos_as_xyz
1 x,y,z
2 1/2-y,1/2+x,1/4+z
3 -x,-y,1/2+z
4 1/2+y,1/2-x,3/4+z
5 1/2+x,1/2-y,3/4-z
6 1/2-x,1/2+y,1/4-z
7 y,x,-z
8 -y,-x,1/2-z
_cell_length_a                   7.1889(5)
_cell_length_b                   7.1889(5)
_cell_length_c                   9.8258(7)
_cell_angle_alpha                90
_cell_angle_beta                 90
_cell_angle_gamma                90
_cell_volume                     507.8
loop_
_atom_site_label
_atom_site_type_symbol
_atom_site_fract_x
_atom_site_fract_y
_atom_site_fract_z
Na1 Na 0.7010(1) 0.2990(1) 0.2500
O1 O 0.6250(1) 0.6058(1) 0.1848(1)
N1 N 0.1846(2) 0.8154(2) 0.2500
O2 O 0.4826(1) 0.8393(1) 0.0928(1)
O3 O 0.2327(2) 0.9768(1) 0.2705(1)
C1 C 0.3263(2) 0.6737(2) 0.2500
N2 N 0.4845(2) 0.7059(2) 0.1735(1)
O1G O 0.3942(1) 0.3750(1) 0.3152(1)
O2G O 0.1607(1) 0.5174(1) 0.4072(1)
O3G O 0.0232(1) 0.7673(2) 0.2295(1)
N2G N 0.2941(2) 0.5155(2) 0.3265(1)
Na1A Na 0.2010(1) 0.2010(1) 0.5000
Na1A_2 Na 0.2010(1) 1.2010(1) 0.5000
Na1C Na -0.2010(1) 0.7990(1) 0.0000
Na1C_2 Na 0.7990(1) 0.7990(1) 0.0000
O1A O 0.8942(1) 0.1250(1) 0.4348(1)
O1E O 0.8750(1) 0.1058(1) 0.0652(1)
O2A O 0.6607(1) -0.0174(1) 0.3428(1)
O2E O 1.0174(1) 0.3393(1) 0.1572(1)
O3C O 0.4768(1) 0.2673(2) 0.0205(1)
O3D O 0.7327(2) 0.5232(1) 0.4795(1)
loop_
_geom_bond_atom_site_label_1
_geom_bond_atom_site_label_2
_geom_bond_site_symmetry_1
_geom_bond_site_symmetry_2
Na1 O1 1_555 1_555
O1 N2 1_555 1_555
N1 O3 1_555 1_555
O2 N2 1_555 1_555
O3 Na1A_2 1_555 1_555
C1 N1 1_555 1_555
N2 C1 1_555 1_555
O1G Na1 1_555 1_555
O2G N2G 1_555 1_555
O3G N1 1_555 1_555
N2G C1 1_555 1_555
Na1A O1G 1_555 1_555
Na1C O3G 1_555 1_555
Na1C_2 O1 1_555 1_555
O1A Na1 1_555 1_555
O1E Na1 1_555 1_555
O2A Na1 1_555 1_555
O2E Na1 1_555 1_555
O3C Na1 1_555 1_555
O3D Na1 1_555 1_555
O2 Na1C_2 1_555 1_555
O1G N2G 1_555 1_555
O2G Na1A 1_555 1_555

#END
