
#######################################################################
#
#                 Cambridge Crystallographic Data Centre
#                                CCDC 
#
#######################################################################
#
# If this CIF has been generated from an entry in the Cambridge 
# Structural Database, then it will include bibliographic, chemical, 
# crystal, experimental, refinement or atomic coordinate data resulting 
# from the CCDC's data processing and validation procedures.
#
#######################################################################

data_VOTXEJ
_symmetry_cell_setting           triclinic
_symmetry_space_group_name_H-M   'P -1'
_symmetry_Int_Tables_number      2
_space_group_name_Hall           '-P 1'
loop_
_symmetry_equiv_pos_site_id
_symmetry_equiv_pos_as_xyz
1 x,y,z
2 -x,-y,-z
_cell_length_a                   7.7419(5)
_cell_length_b                   7.9854(5)
_cell_length_c                   10.7897(6)
_cell_angle_alpha                72.371(5)
_cell_angle_beta                 80.030(5)
_cell_angle_gamma                86.863(5)
_cell_volume                     626.115
loop_
_atom_site_label
_atom_site_type_symbol
_atom_site_fract_x
_atom_site_fract_y
_atom_site_fract_z
Cd1 Cd 0.73277(9) 0.95889(9) 0.90423(7)
Br1 Br 0.5673(2) 0.8642(2) 1.15033(16)
O1 O 0.8935(12) 1.1851(12) 0.8983(8)
O2 O 0.6619(11) 1.7336(11) 1.8315(8)
O3 O 0.8189(12) 1.9512(11) 1.6811(8)
C1 C 0.6796(16) 1.5324(16) 1.6611(11)
H1 H 0.6232 1.4878 1.7477
N1 N 0.7506(12) 1.3296(12) 1.1831(9)
C2 C 0.7463(14) 1.7987(15) 1.7185(11)
O4 O 1.0408(12) 1.2381(13) 1.0414(9)
C3 C 0.9105(14) 1.2413(14) 0.9930(10)
C4 C 0.7726(15) 1.4594(15) 1.2279(11)
H2 H 0.7891 1.5761 1.1768
C5 C 0.6822(17) 1.4355(16) 1.5743(11)
H3 H 0.6246 1.3281 1.6010
N2 N 0.7681(12) 1.4000(12) 1.3588(9)
C6 C 0.8522(15) 1.7585(14) 1.4928(11)
H4 H 0.9108 1.8654 1.4663
C7 C 0.7488(15) 1.3357(16) 1.0454(10)
H5 H 0.7480 1.4572 0.9910
H6 H 0.6430 1.2800 1.0405
C8 C 0.7607(14) 1.6967(14) 1.6204(10)
C9 C 0.8571(15) 1.6607(15) 1.4033(10)
H7 H 0.9160 1.7028 1.3172
C10 C 0.7723(15) 1.5009(15) 1.4466(11)
C11 C 0.7309(19) 1.1785(16) 1.2874(12)
H8 H 0.7112 1.0670 1.2825
C12 C 0.7446(18) 1.2176(15) 1.3960(12)
H9 H 0.7397 1.1395 1.4804
Cd1_2 Cd 0.73277(9) 1.95889(9) 1.90423(7)
Cd1A Cd 0.26723(9) 1.04111(9) 1.09577(7)
Cd1A_2 Cd 1.26723(9) 1.04111(9) 1.09577(7)
Br1A Br 0.4327(2) 1.1358(2) 0.84967(16)
O2_2 O 0.6619(11) 0.7336(11) 0.8315(8)
O3_2 O 0.8189(12) 0.9512(11) 0.6811(8)
O4A O 0.9592(12) 0.7619(13) 0.9586(9)
loop_
_geom_bond_atom_site_label_1
_geom_bond_atom_site_label_2
_geom_bond_site_symmetry_1
_geom_bond_site_symmetry_2
Cd1 Br1 1_555 1_555
Br1 Cd1A 1_555 1_555
O1 Cd1 1_555 1_555
O2 C2 1_555 1_555
O3 C2 1_555 1_555
C1 H1 1_555 1_555
N1 C4 1_555 1_555
C2 C8 1_555 1_555
O4 C3 1_555 1_555
C3 O1 1_555 1_555
C4 H2 1_555 1_555
C5 C1 1_555 1_555
H3 C5 1_555 1_555
N2 C4 1_555 1_555
C6 H4 1_555 1_555
C7 N1 1_555 1_555
H5 C7 1_555 1_555
H6 C7 1_555 1_555
C8 C1 1_555 1_555
C9 C6 1_555 1_555
H7 C9 1_555 1_555
C10 C5 1_555 1_555
C11 N1 1_555 1_555
H8 C11 1_555 1_555
C12 N2 1_555 1_555
H9 C12 1_555 1_555
Cd1_2 O2 1_555 1_555
Cd1A Br1A 1_555 1_555
Cd1A_2 O4 1_555 1_555
Br1A Cd1 1_555 1_555
O2_2 Cd1 1_555 1_555
O3_2 Cd1 1_555 1_555
O4A Cd1 1_555 1_555
O3 Cd1_2 1_555 1_555
C3 C7 1_555 1_555
N2 C10 1_555 1_555
C6 C8 1_555 1_555
C9 C10 1_555 1_555
C11 C12 1_555 1_555

#END
