
#######################################################################
#
#                 Cambridge Crystallographic Data Centre
#                                CCDC 
#
#######################################################################
#
# If this CIF has been generated from an entry in the Cambridge 
# Structural Database, then it will include bibliographic, chemical, 
# crystal, experimental, refinement or atomic coordinate data resulting 
# from the CCDC's data processing and validation procedures.
#
#######################################################################

data_VOTXAF
_symmetry_cell_setting           triclinic
_symmetry_space_group_name_H-M   'P -1'
_symmetry_Int_Tables_number      2
_space_group_name_Hall           '-P 1'
loop_
_symmetry_equiv_pos_site_id
_symmetry_equiv_pos_as_xyz
1 x,y,z
2 -x,-y,-z
_cell_length_a                   7.3787(6)
_cell_length_b                   7.9006(6)
_cell_length_c                   11.0983(8)
_cell_angle_alpha                85.353(6)
_cell_angle_beta                 73.412(7)
_cell_angle_gamma                62.985(8)
_cell_volume                     551.508
loop_
_atom_site_label
_atom_site_type_symbol
_atom_site_fract_x
_atom_site_fract_y
_atom_site_fract_z
Zn1 Zn 0.0000 0.00000 0.50000
O1 O 0.6143(2) 0.8206(2) -0.61948(13)
O2 O 0.1611(2) -0.0685(2) 0.18697(13)
O3 O 0.0045(2) 0.20120(19) 0.61150(12)
H1 H 0.1306(5) 0.1860(18) 0.5968(14)
H2 H -0.042(3) 0.1859(18) 0.68887(13)
O4 O 0.0917(2) 0.1343(2) 0.34336(12)
O5 O 0.3245(2) 0.7969(2) -0.50421(14)
N1 N 0.4998(2) 0.6537(2) -0.31053(14)
N2 N 0.3477(2) 0.5647(2) -0.13896(14)
C1 C 0.1508(3) 0.3965(3) 0.16901(17)
H3 H 0.0903(3) 0.4398(3) 0.25323(17)
C2 C 0.2896(3) 0.4473(3) -0.04624(16)
C3 C 0.3213(3) 0.2714(3) -0.08395(17)
H4 H 0.3752(3) 0.2307(3) -0.16867(17)
C4 C 0.6372(3) 0.6525(3) -0.43564(17)
H5 H 0.7238(3) 0.5223(3) -0.47020(17)
H6 H 0.7314(3) 0.7030(3) -0.42778(17)
C5 C 0.2030(3) 0.5122(3) 0.07996(17)
H7 H 0.1806(3) 0.6318(3) 0.10409(17)
C6 C 0.1430(3) 0.0823(3) 0.22885(17)
C7 C 0.2769(3) 0.7581(3) -0.12363(18)
H8 H 0.1812(3) 0.8359(3) -0.05256(18)
C8 C 0.1878(3) 0.2166(3) 0.13377(16)
C9 C 0.5112(3) 0.7705(3) -0.52684(16)
C10 C 0.3720(3) 0.8130(3) -0.23062(19)
H9 H 0.3544(3) 0.9360(3) -0.24736(19)
C11 C 0.4840(3) 0.5049(3) -0.25430(17)
H10 H 0.5550(3) 0.3805(3) -0.28864(17)
C12 C 0.2712(3) 0.1570(3) 0.00670(17)
H11 H 0.2937(3) 0.0375(3) -0.01772(17)
O1A O -0.6143(2) -0.8206(2) 1.61948(13)
O2A O -0.1611(2) 0.0685(2) 0.81303(13)
O3A O -0.0045(2) -0.20120(19) 0.38850(12)
H1A H -0.1306(5) -0.1860(18) 0.4032(14)
H2A H 0.042(3) -0.1859(18) 0.31113(13)
O4A O -0.0917(2) -0.1343(2) 0.65664(12)
O5A O -0.3245(2) -0.7969(2) 1.50421(14)
N1A N -0.4998(2) -0.6537(2) 1.31053(14)
N2A N -0.3477(2) -0.5647(2) 1.13896(14)
C1A C -0.1508(3) -0.3965(3) 0.83099(17)
H3A H -0.0903(3) -0.4398(3) 0.74677(17)
C2A C -0.2896(3) -0.4473(3) 1.04624(16)
C3A C -0.3213(3) -0.2714(3) 1.08395(17)
H4A H -0.3752(3) -0.2307(3) 1.16867(17)
C4A C -0.6372(3) -0.6525(3) 1.43564(17)
H5A H -0.7238(3) -0.5223(3) 1.47020(17)
H6A H -0.7314(3) -0.7030(3) 1.42778(17)
C5A C -0.2030(3) -0.5122(3) 0.92004(17)
H7A H -0.1806(3) -0.6318(3) 0.89591(17)
C6A C -0.1430(3) -0.0823(3) 0.77115(17)
C7A C -0.2769(3) -0.7581(3) 1.12363(18)
H8A H -0.1812(3) -0.8359(3) 1.05256(18)
C8A C -0.1878(3) -0.2166(3) 0.86623(16)
C9A C -0.5112(3) -0.7705(3) 1.52684(16)
C10A C -0.3720(3) -0.8130(3) 1.23062(19)
H9A H -0.3544(3) -0.9360(3) 1.24736(19)
C11A C -0.4840(3) -0.5049(3) 1.25430(17)
H10A H -0.5550(3) -0.3805(3) 1.28864(17)
C12A C -0.2712(3) -0.1570(3) 0.99330(17)
H11A H -0.2937(3) -0.0375(3) 1.01772(17)
Zn1_2 Zn 0.0000 -1.00000 1.50000
Zn1_3 Zn 0.0000 1.00000 -0.50000
O5_2 O 0.3245(2) -0.2031(2) 0.49579(14)
O5A_2 O -0.3245(2) 0.2031(2) 0.50421(14)
loop_
_geom_bond_atom_site_label_1
_geom_bond_atom_site_label_2
_geom_bond_site_symmetry_1
_geom_bond_site_symmetry_2
Zn1 O3 1_555 1_555
O1 C9 1_555 1_555
O2 C6 1_555 1_555
O3 H1 1_555 1_555
H2 O3 1_555 1_555
O4 Zn1 1_555 1_555
O5 C9 1_555 1_555
N1 C4 1_555 1_555
N2 C2 1_555 1_555
C1 H3 1_555 1_555
C2 C3 1_555 1_555
C3 H4 1_555 1_555
C4 H5 1_555 1_555
H6 C4 1_555 1_555
C5 C1 1_555 1_555
H7 C5 1_555 1_555
C6 O4 1_555 1_555
C7 N2 1_555 1_555
H8 C7 1_555 1_555
C8 C1 1_555 1_555
C9 C4 1_555 1_555
C10 N1 1_555 1_555
H9 C10 1_555 1_555
C11 N1 1_555 1_555
H10 C11 1_555 1_555
C12 C3 1_555 1_555
H11 C12 1_555 1_555
O1A C9A 1_555 1_555
O2A C6A 1_555 1_555
O3A Zn1 1_555 1_555
H1A O3A 1_555 1_555
H2A O3A 1_555 1_555
O4A Zn1 1_555 1_555
O5A C9A 1_555 1_555
N1A C4A 1_555 1_555
N2A C2A 1_555 1_555
C1A H3A 1_555 1_555
C2A C3A 1_555 1_555
C3A H4A 1_555 1_555
C4A H5A 1_555 1_555
H6A C4A 1_555 1_555
C5A C1A 1_555 1_555
H7A C5A 1_555 1_555
C6A O4A 1_555 1_555
C7A N2A 1_555 1_555
H8A C7A 1_555 1_555
C8A C1A 1_555 1_555
C9A C4A 1_555 1_555
C10A N1A 1_555 1_555
H9A C10A 1_555 1_555
C11A N1A 1_555 1_555
H10A C11A 1_555 1_555
C12A C3A 1_555 1_555
H11A C12A 1_555 1_555
Zn1_2 O5A 1_555 1_555
Zn1_3 O5 1_555 1_555
O5_2 Zn1 1_555 1_555
O5A_2 Zn1 1_555 1_555
N2 C11 1_555 1_555
C2 C5 1_555 1_555
C6 C8 1_555 1_555
C7 C10 1_555 1_555
C8 C12 1_555 1_555
N2A C11A 1_555 1_555
C2A C5A 1_555 1_555
C6A C8A 1_555 1_555
C7A C10A 1_555 1_555
C8A C12A 1_555 1_555

#END
