
#######################################################################
#
#                 Cambridge Crystallographic Data Centre
#                                CCDC 
#
#######################################################################
#
# If this CIF has been generated from an entry in the Cambridge 
# Structural Database, then it will include bibliographic, chemical, 
# crystal, experimental, refinement or atomic coordinate data resulting 
# from the CCDC's data processing and validation procedures.
#
#######################################################################

data_VOTZEL
_symmetry_cell_setting           tetragonal
_symmetry_space_group_name_H-M   'P 43 21 2'
_symmetry_Int_Tables_number      96
_space_group_name_Hall           'P 4nw 2abw'
loop_
_symmetry_equiv_pos_site_id
_symmetry_equiv_pos_as_xyz
1 x,y,z
2 1/2-y,1/2+x,3/4+z
3 -x,-y,1/2+z
4 1/2+y,1/2-x,1/4+z
5 1/2+x,1/2-y,1/4-z
6 y,x,-z
7 1/2-x,1/2+y,3/4-z
8 -y,-x,1/2-z
_cell_length_a                   13.5770(6)
_cell_length_b                   13.5770(6)
_cell_length_c                   14.5730(6)
_cell_angle_alpha                90
_cell_angle_beta                 90
_cell_angle_gamma                90
_cell_volume                     2686.31
loop_
_atom_site_label
_atom_site_type_symbol
_atom_site_fract_x
_atom_site_fract_y
_atom_site_fract_z
Cd1 Cd -0.112047(19) 0.112047(19) 0.2500
O1 O 0.0133(2) 0.04852(18) 0.15275(19)
O2 O 0.00840(17) 0.21806(17) 0.24781(19)
O3 O 0.3055(2) 0.3069(2) 0.11020(17)
C1 C 0.0854(3) 0.1025(3) 0.1490(2)
C2 C 0.1770(3) 0.0727(3) 0.1017(2)
C3 C 0.1900(3) -0.0225(3) 0.0691(3)
H1 H 0.1384 -0.0674 0.0728
C4 C 0.2786(4) -0.0509(3) 0.0315(3)
H2 H 0.2876 -0.1152 0.0113
C5 C 0.3535(3) 0.0166(4) 0.0240(3)
H3 H 0.4131 -0.0022 -0.0022
C6 C 0.3418(3) 0.1121(3) 0.0547(2)
H4 H 0.3932 0.1569 0.0494
C7 C 0.2533(3) 0.1410(3) 0.0936(2)
C8 C 0.2387(3) 0.2452(3) 0.1257(2)
C9 C 0.1541(3) 0.2708(3) 0.1775(2)
C10 C 0.0820(2) 0.2023(3) 0.1966(2)
C11 C 0.1417(3) 0.3753(3) 0.2112(3)
H5 H 0.1776 0.4193 0.1708
H6 H 0.0726 0.3930 0.2081
C12 C 0.1774(4) 0.3899(4) 0.3071(3)
H7 H 0.1595 0.3419 0.3496
C13 C 0.2313(5) 0.4631(4) 0.3382(4)
C14 C 0.2572(7) 0.4697(7) 0.4388(5)
H8 H 0.2341 0.4118 0.4699
H9 H 0.2267 0.5269 0.4650
H10 H 0.3274 0.4745 0.4454
C15 C 0.2726(7) 0.5409(5) 0.2834(7)
H11 H 0.2817 0.5180 0.2216
H12 H 0.3350 0.5603 0.3085
H13 H 0.2286 0.5963 0.2833
O1G O -0.04852(18) -0.0133(2) 0.34725(19)
O2G O -0.21806(17) -0.00840(17) 0.25219(19)
O3G O -0.3069(2) -0.3055(2) 0.38980(17)
C1G C -0.1025(3) -0.0854(3) 0.3510(2)
C2G C -0.0727(3) -0.1770(3) 0.3983(2)
C3G C 0.0225(3) -0.1900(3) 0.4309(3)
H1G H 0.0674 -0.1384 0.4272
C4G C 0.0509(3) -0.2786(4) 0.4685(3)
H2G H 0.1152 -0.2876 0.4887
C5G C -0.0166(4) -0.3535(3) 0.4760(3)
H3G H 0.0022 -0.4131 0.5022
C6G C -0.1121(3) -0.3418(3) 0.4453(2)
H4G H -0.1569 -0.3932 0.4506
C7G C -0.1410(3) -0.2533(3) 0.4064(2)
C8G C -0.2452(3) -0.2387(3) 0.3743(2)
C9G C -0.2708(3) -0.1541(3) 0.3225(2)
C10G C -0.2023(3) -0.0820(2) 0.3034(2)
C11G C -0.3753(3) -0.1417(3) 0.2888(3)
H5G H -0.4193 -0.1776 0.3292
H6G H -0.3930 -0.0726 0.2919
C12G C -0.3899(4) -0.1774(4) 0.1929(3)
H7G H -0.3419 -0.1595 0.1504
C13G C -0.4631(4) -0.2313(5) 0.1618(4)
C14G C -0.4697(7) -0.2572(7) 0.0612(5)
H8G H -0.4118 -0.2341 0.0301
H9G H -0.5269 -0.2267 0.0350
H10G H -0.4745 -0.3274 0.0546
C15G C -0.5409(5) -0.2726(7) 0.2166(7)
H11G H -0.5180 -0.2817 0.2784
H12G H -0.5603 -0.3350 0.1915
H13G H -0.5963 -0.2286 0.2167
Cd1A Cd 0.387953(19) 0.387953(19) 0.0000
Cd1C Cd -0.387953(19) -0.387953(19) 0.5000
O3C O -0.1931(2) 0.1945(2) 0.36020(17)
O3D O -0.1945(2) 0.1931(2) 0.13980(17)
loop_
_geom_bond_atom_site_label_1
_geom_bond_atom_site_label_2
_geom_bond_site_symmetry_1
_geom_bond_site_symmetry_2
Cd1 O1 1_555 1_555
O1 C1 1_555 1_555
O2 Cd1 1_555 1_555
O3 C8 1_555 1_555
C1 C2 1_555 1_555
C2 C3 1_555 1_555
C3 H1 1_555 1_555
C4 C3 1_555 1_555
H2 C4 1_555 1_555
C5 C4 1_555 1_555
H3 C5 1_555 1_555
C6 C5 1_555 1_555
H4 C6 1_555 1_555
C7 C2 1_555 1_555
C8 C7 1_555 1_555
C9 C8 1_555 1_555
C10 O2 1_555 1_555
C11 C9 1_555 1_555
H5 C11 1_555 1_555
H6 C11 1_555 1_555
C12 C11 1_555 1_555
H7 C12 1_555 1_555
C13 C12 1_555 1_555
C14 C13 1_555 1_555
H8 C14 1_555 1_555
H9 C14 1_555 1_555
H10 C14 1_555 1_555
C15 C13 1_555 1_555
H11 C15 1_555 1_555
H12 C15 1_555 1_555
H13 C15 1_555 1_555
O1G Cd1 1_555 1_555
O2G Cd1 1_555 1_555
O3G C8G 1_555 1_555
C1G O1G 1_555 1_555
C2G C1G 1_555 1_555
C3G C2G 1_555 1_555
H1G C3G 1_555 1_555
C4G C3G 1_555 1_555
H2G C4G 1_555 1_555
C5G C4G 1_555 1_555
H3G C5G 1_555 1_555
C6G C5G 1_555 1_555
H4G C6G 1_555 1_555
C7G C2G 1_555 1_555
C8G C7G 1_555 1_555
C9G C8G 1_555 1_555
C10G O2G 1_555 1_555
C11G C9G 1_555 1_555
H5G C11G 1_555 1_555
H6G C11G 1_555 1_555
C12G C11G 1_555 1_555
H7G C12G 1_555 1_555
C13G C12G 1_555 1_555
C14G C13G 1_555 1_555
H8G C14G 1_555 1_555
H9G C14G 1_555 1_555
H10G C14G 1_555 1_555
C15G C13G 1_555 1_555
H11G C15G 1_555 1_555
H12G C15G 1_555 1_555
H13G C15G 1_555 1_555
Cd1A O3 1_555 1_555
Cd1C O3G 1_555 1_555
O3C Cd1 1_555 1_555
O3D Cd1 1_555 1_555
C1 C10 1_555 1_555
C6 C7 1_555 1_555
C9 C10 1_555 1_555
C1G C10G 1_555 1_555
C6G C7G 1_555 1_555
C9G C10G 1_555 1_555

#END
