
#######################################################################
#
#                 Cambridge Crystallographic Data Centre
#                                CCDC 
#
#######################################################################
#
# If this CIF has been generated from an entry in the Cambridge 
# Structural Database, then it will include bibliographic, chemical, 
# crystal, experimental, refinement or atomic coordinate data resulting 
# from the CCDC's data processing and validation procedures.
#
#######################################################################

data_VOVDAN
_symmetry_cell_setting           triclinic
_symmetry_space_group_name_H-M   'P -1'
_symmetry_Int_Tables_number      2
_space_group_name_Hall           '-P 1'
loop_
_symmetry_equiv_pos_site_id
_symmetry_equiv_pos_as_xyz
1 x,y,z
2 -x,-y,-z
_cell_length_a                   7.2170(14)
_cell_length_b                   9.2950(19)
_cell_length_c                   16.374(3)
_cell_angle_alpha                89.88(3)
_cell_angle_beta                 85.25(3)
_cell_angle_gamma                87.35(3)
_cell_volume                     1093.46
loop_
_atom_site_label
_atom_site_type_symbol
_atom_site_fract_x
_atom_site_fract_y
_atom_site_fract_z
U1 U 1.0000 0.0000 0.5000
O1 O 0.9882(5) 0.0320(4) 0.3925(2)
O2 O 0.6802(5) 0.1232(4) 0.5197(3)
O3 O 0.9142(5) 0.2635(4) 0.5303(3)
O4 O 1.2583(5) 0.1620(4) 0.4857(2)
C1 C 1.3232(6) 0.2323(5) 0.5431(3)
C2 C 1.4207(6) 0.3670(5) 0.5178(3)
O5 O 1.3066(6) 0.2014(4) 0.6164(3)
C3 C 1.6153(6) 0.3783(5) 0.5151(3)
C4 C 1.3089(6) 0.4887(5) 0.5027(3)
C5 C 1.7416(6) 0.2487(5) 0.5233(3)
H1 H 1.1805 0.4811 0.5045
O1A O 1.0118(5) -0.0320(4) 0.6075(2)
O2A O 1.3198(5) -0.1232(4) 0.4803(3)
O3A O 1.0858(5) -0.2635(4) 0.4697(3)
O4A O 0.7417(5) -0.1620(4) 0.5143(2)
C4A C 1.6911(6) 0.5113(5) 0.4973(3)
C3A C 1.3847(6) 0.6217(5) 0.4849(3)
O3_2 O 1.9142(5) 0.2635(4) 0.5303(3)
O2_2 O 1.6802(5) 0.1232(4) 0.5197(3)
C2A C 1.5793(6) 0.6330(5) 0.4822(3)
H1A H 1.8195 0.5189 0.4955
C5A C 1.2584(6) 0.7513(5) 0.4767(3)
U1_2 U 2.0000 0.0000 0.5000
C1A C 1.6768(6) 0.7677(5) 0.4569(3)
O3A_2 O 1.0858(5) 0.7365(4) 0.4697(3)
O2A_2 O 1.3198(5) 0.8768(4) 0.4803(3)
U1_3 U 1.0000 1.0000 0.5000
O5A O 1.6934(6) 0.7986(4) 0.3836(3)
O4A_2 O 1.7417(5) 0.8380(4) 0.5143(2)
U1_4 U 2.0000 1.0000 0.5000
U2 U 0.0000 0.0000 0.0000
O6 O 0.9179(5) 0.2633(4) 0.0177(3)
O7 O 0.6825(5) 0.1232(4) 0.0101(3)
O8 O 0.2598(5) 0.1592(4) -0.0140(2)
O9 O 0.3188(6) 0.1985(4) 0.1154(3)
C6 C 0.3295(6) 0.2289(5) 0.0411(3)
C7 C 0.4221(6) 0.3665(5) 0.0157(3)
C8 C 0.3074(6) 0.4886(5) 0.0067(3)
H2 H 0.1788 0.4813 0.0112
C9 C 0.6167(6) 0.3775(5) 0.0092(3)
C10 C 0.7448(6) 0.2487(5) 0.0128(3)
O10 O -0.0036(5) -0.0153(4) 0.1096(2)
O6A O 0.0821(5) 0.7367(4) -0.0177(3)
O7A O 0.3175(5) 0.8768(4) -0.0101(3)
O8A O 0.7402(5) 0.8408(4) 0.0140(2)
O9A O 0.6812(6) 0.8015(4) -0.1154(3)
C6A C 0.6705(6) 0.7711(5) -0.0411(3)
C7A C 0.5779(6) 0.6335(5) -0.0157(3)
C8A C 0.6926(6) 0.5114(5) -0.0067(3)
H2A H 0.8212 0.5187 -0.0112
C9A C 0.3833(6) 0.6225(5) -0.0092(3)
C10A C 0.2552(6) 0.7513(5) -0.0128(3)
O10A O 0.0036(5) 0.0153(4) -0.1096(2)
U2_2 U 0.0000 1.0000 0.0000
U2_3 U 1.0000 0.0000 0.0000
U2_4 U 1.0000 1.0000 0.0000
O6_2 O -0.0821(5) 0.2633(4) 0.0177(3)
O6A_2 O 0.0821(5) -0.2633(4) -0.0177(3)
O7_2 O -0.3175(5) 0.1232(4) 0.0101(3)
O7A_2 O 0.3175(5) -0.1232(4) -0.0101(3)
O8A_2 O -0.2598(5) -0.1592(4) 0.0140(2)
S1 S 0.9553(2) 0.30741(16) 0.26370(9)
C11 C 0.9559(8) 0.4470(7) 0.1893(3)
H3 H 0.8787 0.5275 0.2104
H4 H 0.9087 0.4122 0.1403
H5 H 1.0808 0.4766 0.1769
C12 C 1.0472(3) 0.4076(5) 0.34250(18)
H6 H 1.1770 0.4210 0.3284
H7 H 1.0324 0.3559 0.3933
H8 H 0.9817 0.4997 0.3483
O11 O 0.7482(4) 0.2946(3) 0.29368(16)
N1 N 0.4797(7) -0.0726(5) 0.1465(3)
H9 H 0.5622 -0.0901 0.1038
H10 H 0.3936 -0.0075 0.1326
H11 H 0.4256 -0.1538 0.1615
N2 N 0.5345(7) 0.0734(5) 0.3572(3)
H12 H 0.6067 0.1454 0.3419
H13 H 0.6046 -0.0004 0.3740
H14 H 0.4523 0.1027 0.3980
C13 C 0.5756(8) -0.0168(7) 0.2157(4)
H15 H 0.6459 0.0656 0.1977
H16 H 0.6622 -0.0907 0.2340
C14 C 0.4341(8) 0.0273(6) 0.2865(3)
H17 H 0.3529 0.1060 0.2696
H18 H 0.3582 -0.0532 0.3023
O12 O 0.0000(5) 0.2130(6) 0.7441(2)
H19 H -0.0113 0.1407 0.7757
H20 H 0.0683 0.1888 0.7011
O13 O 0.6713(6) 0.3179(5) 0.79943(16)
O14 O 0.4383(4) 0.3982(4) 0.22455(16)
O15? O 0.5622(5) 0.3070(5) 0.74372(15)
loop_
_geom_bond_atom_site_label_1
_geom_bond_atom_site_label_2
_geom_bond_site_symmetry_1
_geom_bond_site_symmetry_2
U1 O1 1_555 1_555
O2 U1 1_555 1_555
O3 U1 1_555 1_555
O4 U1 1_555 1_555
C1 O4 1_555 1_555
C2 C1 1_555 1_555
O5 C1 1_555 1_555
C3 C2 1_555 1_555
C4 C2 1_555 1_555
C5 C3 1_555 1_555
H1 C4 1_555 1_555
U2 O8 1_555 1_555
O6 C10 1_555 1_555
O7 C10 1_555 1_555
O8 C6 1_555 1_555
O9 C6 1_555 1_555
C6 C7 1_555 1_555
C7 C8 1_555 1_555
C8 H2 1_555 1_555
C9 C7 1_555 1_555
C10 C9 1_555 1_555
O10 U2 1_555 1_555
S1 C11 1_555 1_555
C11 H3 1_555 1_555
H4 C11 1_555 1_555
H5 C11 1_555 1_555
C12 S1 1_555 1_555
H6 C12 1_555 1_555
H7 C12 1_555 1_555
H8 C12 1_555 1_555
O11 S1 1_555 1_555
N1 H9 1_555 1_555
H10 N1 1_555 1_555
H11 N1 1_555 1_555
N2 H12 1_555 1_555
H13 N2 1_555 1_555
H14 N2 1_555 1_555
C13 N1 1_555 1_555
H15 C13 1_555 1_555
H16 C13 1_555 1_555
C14 N2 1_555 1_555
H17 C14 1_555 1_555
H18 C14 1_555 1_555
O12 H19 1_555 1_555
H20 O12 1_555 1_555
O1A U1 1_555 1_555
O2A U1 1_555 1_555
O3A U1 1_555 1_555
O4A U1 1_555 1_555
C4A C3 1_555 1_555
C3A C4 1_555 1_555
O3_2 C5 1_555 1_555
O2_2 C5 1_555 1_555
C2A C4A 1_555 1_555
H1A C4A 1_555 1_555
C5A C3A 1_555 1_555
U1_2 O3_2 1_555 1_555
C1A C2A 1_555 1_555
O3A_2 C5A 1_555 1_555
O2A_2 C5A 1_555 1_555
U1_3 O3A_2 1_555 1_555
O5A C1A 1_555 1_555
O4A_2 C1A 1_555 1_555
U1_4 O4A_2 1_555 1_555
O6A C10A 1_555 1_555
O7A C10A 1_555 1_555
O8A C6A 1_555 1_555
O9A C6A 1_555 1_555
C6A C7A 1_555 1_555
C7A C8A 1_555 1_555
C8A C9 1_555 1_555
H2A C8A 1_555 1_555
C9A C8 1_555 1_555
C10A C9A 1_555 1_555
O10A U2 1_555 1_555
U2_2 O6A 1_555 1_555
U2_3 O6 1_555 1_555
U2_4 O8A 1_555 1_555
O6_2 U2 1_555 1_555
O6A_2 U2 1_555 1_555
O7_2 U2 1_555 1_555
O7A_2 U2 1_555 1_555
O8A_2 U2 1_555 1_555
O7 U2_3 1_555 1_555
C13 C14 1_555 1_555
C3A C2A 1_555 1_555
O2_2 U1_2 1_555 1_555
O2A_2 U1_3 1_555 1_555
O7A U2_2 1_555 1_555
C7A C9A 1_555 1_555

#END
