
#######################################################################
#
#                 Cambridge Crystallographic Data Centre
#                                CCDC 
#
#######################################################################
#
# If this CIF has been generated from an entry in the Cambridge 
# Structural Database, then it will include bibliographic, chemical, 
# crystal, experimental, refinement or atomic coordinate data resulting 
# from the CCDC's data processing and validation procedures.
#
#######################################################################

data_VOVGIY
_symmetry_cell_setting           trigonal
_symmetry_space_group_name_H-M   'P 32 2 1'
_symmetry_Int_Tables_number      154
_space_group_name_Hall           'P 32 2"'
loop_
_symmetry_equiv_pos_site_id
_symmetry_equiv_pos_as_xyz
1 x,y,z
2 -y,x-y,2/3+z
3 -x+y,-x,1/3+z
4 y,x,-z
5 -x,-x+y,2/3-z
6 x-y,-y,1/3-z
_cell_length_a                   11.131(2)
_cell_length_b                   11.131(2)
_cell_length_c                   31.666(6)
_cell_angle_alpha                90
_cell_angle_beta                 90
_cell_angle_gamma                120
_cell_volume                     3397.76
loop_
_atom_site_label
_atom_site_type_symbol
_atom_site_fract_x
_atom_site_fract_y
_atom_site_fract_z
Co1 Co 0.25797(6) 1.0000 0.1667
N1 N -0.5605(4) 1.0000 0.1667
N2 N 0.0768(5) 1.0000 0.1667
O1 O 0.1659(3) 0.8270(3) 0.13572(8)
O2 O 0.3000(3) 1.0883(3) 0.11194(8)
O3 O 0.4460(5) 0.8298(5) -0.13510(12)
H1 H 0.4121 0.8117 -0.1588
O4 O 0.3009(5) 0.5627(4) -0.11040(13)
H2 H 0.2490 0.4845 -0.1012
C1 C 0.2403(4) 0.9946(4) 0.08197(11)
C2 C 0.1630(4) 0.8523(5) 0.09518(12)
C3 C 0.0903(5) 0.7475(5) 0.06514(12)
H3 H 0.0392 0.6551 0.0735
C4 C 0.0957(4) 0.7835(5) 0.02273(11)
C5 C 0.1737(5) 0.9233(5) 0.00998(12)
C6 C 0.2453(5) 1.0286(5) 0.03875(11)
H4 H 0.2959 1.1204 0.0299
C7 C 0.1663(5) 0.9443(6) -0.03805(12)
C8 C 0.2088(5) 0.8484(5) -0.05900(11)
C9 C 0.3167(6) 0.8896(6) -0.08877(13)
H5 H 0.3693 0.9823 -0.0967
C10 C 0.3436(6) 0.7926(6) -0.10600(14)
C11 C 0.2649(6) 0.6541(6) -0.09323(15)
C12 C 0.1602(5) 0.6149(5) -0.06352(13)
H6 H 0.1085 0.5225 -0.0552
C13 C 0.1325(5) 0.7111(5) -0.04635(12)
C14 C 0.0204(5) 0.6821(5) -0.01302(13)
C15 C -0.0737(6) 0.7330(7) -0.03300(14)
H7 H -0.1230 0.6743 -0.0569
H8 H -0.1419 0.7246 -0.0124
C16 C 0.0107(5) 0.8846(6) -0.04783(13)
H9 H -0.0225 0.9397 -0.0336
H10 H -0.0018 0.8894 -0.0780
C17 C 0.2499(7) 1.0928(6) -0.05116(14)
H11 H 0.3463 1.1260 -0.0457
H12 H 0.2203 1.1472 -0.0354
H13 H 0.2367 1.1007 -0.0808
C18 C -0.0614(6) 0.5317(6) 0.00038(15)
H14 H 0.0003 0.5044 0.0126
H15 H -0.1065 0.4748 -0.0238
H16 H -0.1298 0.5205 0.0209
C19 C -0.5484(5) 0.9000(5) 0.14743(13)
H17 H -0.6252 0.8304 0.1334
C20 C -0.0441(4) 0.8802(5) 0.16725(11)
H18 H -0.0433 0.7971 0.1678
C21 C -0.1704(5) 0.8766(5) 0.16700(11)
H19 H -0.2527 0.7919 0.1671
C22 C -0.1737(5) 1.0000 0.1667
C23 C -0.3090(5) 1.0000 0.1667
C24 C -0.4247(5) 0.8951(5) 0.14740(12)
H20 H -0.4212 0.8219 0.1345
C20E C 0.0757(6) 1.1198(5) 0.16608(11)
H18E H 0.1596 1.2029 0.1655
C21E C -0.0470(7) 1.1234(5) 0.16633(11)
H19E H -0.0446 1.2081 0.1662
C19E C -0.4484(7) 1.1000(5) 0.18590(13)
H17E H -0.4556 1.1696 0.1999
C24E C -0.3198(7) 1.1049(5) 0.18593(12)
H20E H -0.2431 1.1781 0.1988
O1E O 0.3389(4) 1.1730(3) 0.19761(8)
O2E O 0.2117(4) 0.9117(3) 0.22139(8)
O3E O 0.6162(7) 1.1702(5) 0.46843(12)
H1E H 0.6004 1.1883 0.4921
O4E O 0.7382(6) 1.4373(4) 0.44373(13)
H2E H 0.7645 1.5155 0.4345
C1E C 0.2457(6) 1.0054(4) 0.25136(11)
C2E C 0.3107(6) 1.1477(5) 0.23815(12)
C3E C 0.3428(7) 1.2525(5) 0.26819(12)
H3E H 0.3841 1.3449 0.2598
C4E C 0.3122(6) 1.2165(5) 0.31060(11)
C5E C 0.2504(7) 1.0767(5) 0.32335(12)
C6E C 0.2167(7) 0.9714(5) 0.29458(11)
H4E H 0.1755 0.8796 0.3034
C7E C 0.2220(8) 1.0557(6) 0.37138(12)
C8E C 0.3604(7) 1.1516(5) 0.39233(11)
C9E C 0.4271(8) 1.1104(6) 0.42210(13)
H5E H 0.3870 1.0177 0.4300
C10E C 0.5510(8) 1.2074(6) 0.43933(14)
C11E C 0.6108(8) 1.3459(6) 0.42656(15)
C12E C 0.5453(7) 1.3851(5) 0.39685(13)
H6E H 0.5860 1.4775 0.3885
C13E C 0.4214(7) 1.2889(5) 0.37968(12)
C14E C 0.3383(7) 1.3179(5) 0.34635(13)
C15E C 0.1933(9) 1.2670(7) 0.36633(14)
H7E H 0.2027 1.3257 0.3902
H8E H 0.1335 1.2754 0.3457
C16E C 0.1261(8) 1.1154(6) 0.38116(13)
H9E H 0.0378 1.0603 0.3669
H10E H 0.1088 1.1106 0.4113
C17E C 0.1571(9) 0.9072(6) 0.38449(14)
H11E H 0.2203 0.8740 0.3790
H12E H 0.0731 0.8528 0.3687
H13E H 0.1360 0.8993 0.4141
C18E C 0.4069(8) 1.4683(6) 0.33295(15)
H14E H 0.4959 1.4956 0.3207
H15E H 0.4187 1.5252 0.3571
H16E H 0.3497 1.4795 0.3124
Co1_2 Co -0.74203(6) 1.0000 0.1667
N1_2 N 0.4395(4) 1.0000 0.1667
N3 N 0.3496(12) 0.6004(9) 0.0812(4)
C25 C 0.4246(15) 0.5503(13) 0.0920(4)
H21 H 0.4331 0.5352 0.1204
C26 C 0.5004(15) 0.5149(11) 0.0597(4)
H22 H 0.5681 0.4929 0.0670
C27 C 0.4623(12) 0.5173(10) 0.0179(3)
C28 C 0.3800(11) 0.5701(13) 0.0072(4)
H23 H 0.3605 0.5802 -0.0207
C29 C 0.3251(16) 0.6096(13) 0.0424(4)
H24 H 0.2667 0.6446 0.0363
N3C N 0.6004(9) 0.3496(12) -0.0812(4)
C25C C 0.5503(13) 0.4246(15) -0.0920(4)
H21C H 0.5352 0.4331 -0.1204
C26C C 0.5149(11) 0.5004(15) -0.0597(4)
H22C H 0.4929 0.5681 -0.0670
C27C C 0.5173(10) 0.4623(12) -0.0179(3)
C28C C 0.5701(13) 0.3800(11) -0.0072(4)
H23C H 0.5802 0.3605 0.0207
C29C C 0.6096(13) 0.3251(16) -0.0424(4)
H24C H 0.6446 0.2667 -0.0363
O5 O 0.1504(11) 0.5417(9) 0.1483(2)
H25 H 0.2032 0.5760 0.1272
H26 H 0.2232 0.5534 0.1608
loop_
_geom_bond_atom_site_label_1
_geom_bond_atom_site_label_2
_geom_bond_site_symmetry_1
_geom_bond_site_symmetry_2
Co1 N2 1_555 1_555
N1 C19 1_555 1_555
N2 C20 1_555 1_555
O1 Co1 1_555 1_555
O2 Co1 1_555 1_555
O3 H1 1_555 1_555
O4 H2 1_555 1_555
C1 O2 1_555 1_555
C2 O1 1_555 1_555
C3 C2 1_555 1_555
H3 C3 1_555 1_555
C4 C3 1_555 1_555
C5 C4 1_555 1_555
C6 C1 1_555 1_555
H4 C6 1_555 1_555
C7 C5 1_555 1_555
C8 C7 1_555 1_555
C9 C8 1_555 1_555
H5 C9 1_555 1_555
C10 O3 1_555 1_555
C11 O4 1_555 1_555
C12 C11 1_555 1_555
H6 C12 1_555 1_555
C13 C8 1_555 1_555
C14 C4 1_555 1_555
C15 C14 1_555 1_555
H7 C15 1_555 1_555
H8 C15 1_555 1_555
C16 C7 1_555 1_555
H9 C16 1_555 1_555
H10 C16 1_555 1_555
C17 C7 1_555 1_555
H11 C17 1_555 1_555
H12 C17 1_555 1_555
H13 C17 1_555 1_555
C18 C14 1_555 1_555
H14 C18 1_555 1_555
H15 C18 1_555 1_555
H16 C18 1_555 1_555
C19 H17 1_555 1_555
C20 H18 1_555 1_555
C21 C20 1_555 1_555
H19 C21 1_555 1_555
C22 C21 1_555 1_555
C23 C22 1_555 1_555
C24 C19 1_555 1_555
H20 C24 1_555 1_555
N3 C25 1_555 1_555
C25 H21 1_555 1_555
C26 C25 1_555 1_555
H22 C26 1_555 1_555
C27 C26 1_555 1_555
C28 C27 1_555 1_555
H23 C28 1_555 1_555
C29 N3 1_555 1_555
H24 C29 1_555 1_555
O5 H25 1_555 1_555
H26 O5 1_555 1_555
C20E N2 1_555 1_555
H18E C20E 1_555 1_555
C21E C22 1_555 1_555
H19E C21E 1_555 1_555
C19E N1 1_555 1_555
H17E C19E 1_555 1_555
C24E C23 1_555 1_555
H20E C24E 1_555 1_555
O1E Co1 1_555 1_555
O2E Co1 1_555 1_555
O3E H1E 1_555 1_555
O4E H2E 1_555 1_555
C1E O2E 1_555 1_555
C2E O1E 1_555 1_555
C3E C2E 1_555 1_555
H3E C3E 1_555 1_555
C4E C3E 1_555 1_555
C5E C4E 1_555 1_555
C6E C1E 1_555 1_555
H4E C6E 1_555 1_555
C7E C5E 1_555 1_555
C8E C7E 1_555 1_555
C9E C8E 1_555 1_555
H5E C9E 1_555 1_555
C10E O3E 1_555 1_555
C11E O4E 1_555 1_555
C12E C11E 1_555 1_555
H6E C12E 1_555 1_555
C13E C8E 1_555 1_555
C14E C4E 1_555 1_555
C15E C14E 1_555 1_555
H7E C15E 1_555 1_555
H8E C15E 1_555 1_555
C16E C7E 1_555 1_555
H9E C16E 1_555 1_555
H10E C16E 1_555 1_555
C17E C7E 1_555 1_555
H11E C17E 1_555 1_555
H12E C17E 1_555 1_555
H13E C17E 1_555 1_555
C18E C14E 1_555 1_555
H14E C18E 1_555 1_555
H15E C18E 1_555 1_555
H16E C18E 1_555 1_555
Co1_2 N1 1_555 1_555
N1_2 Co1 1_555 1_555
N3C C25C 1_555 1_555
C25C H21C 1_555 1_555
C26C C25C 1_555 1_555
H22C C26C 1_555 1_555
C27C C27 1_555 1_555
C28C C27C 1_555 1_555
H23C C28C 1_555 1_555
C29C N3C 1_555 1_555
H24C C29C 1_555 1_555
C1 C2 1_555 1_555
C5 C6 1_555 1_555
C9 C10 1_555 1_555
C10 C11 1_555 1_555
C12 C13 1_555 1_555
C13 C14 1_555 1_555
C15 C16 1_555 1_555
C23 C24 1_555 1_555
C28 C29 1_555 1_555
C20E C21E 1_555 1_555
C19E C24E 1_555 1_555
C1E C2E 1_555 1_555
C5E C6E 1_555 1_555
C9E C10E 1_555 1_555
C10E C11E 1_555 1_555
C12E C13E 1_555 1_555
C13E C14E 1_555 1_555
C15E C16E 1_555 1_555
C26C C27C 1_555 1_555
C28C C29C 1_555 1_555

#END
