
#######################################################################
#
#                 Cambridge Crystallographic Data Centre
#                                CCDC 
#
#######################################################################
#
# If this CIF has been generated from an entry in the Cambridge 
# Structural Database, then it will include bibliographic, chemical, 
# crystal, experimental, refinement or atomic coordinate data resulting 
# from the CCDC's data processing and validation procedures.
#
#######################################################################

data_VOVKOI
_symmetry_cell_setting           monoclinic
_symmetry_space_group_name_H-M   'P 21/c'
_symmetry_Int_Tables_number      14
_space_group_name_Hall           '-P 2ybc'
loop_
_symmetry_equiv_pos_site_id
_symmetry_equiv_pos_as_xyz
1 x,y,z
2 -x,1/2+y,1/2-z
3 -x,-y,-z
4 x,1/2-y,1/2+z
_cell_length_a                   13.643(2)
_cell_length_b                   12.0213(19)
_cell_length_c                   8.1614(13)
_cell_angle_alpha                90
_cell_angle_beta                 95.126(4)
_cell_angle_gamma                90
_cell_volume                     1333.17
loop_
_atom_site_label
_atom_site_type_symbol
_atom_site_fract_x
_atom_site_fract_y
_atom_site_fract_z
Br1 Br -0.13605(5) 0.52169(4) 0.73101(7)
Br2 Br 0.01330(4) 0.26863(4) 0.52845(7)
Br3 Br 0.29904(4) 0.22981(5) 1.05789(7)
Cd1 Cd 0.0000 0.5000 0.5000
Cd2 Cd 0.16312(3) 0.24296(3) 0.78705(5)
N1 N 0.2333(3) 0.5991(3) 0.8900(5)
N2 N 0.1714(3) 0.4380(3) 0.8094(5)
N3 N 0.1221(3) 0.5213(4) 0.7182(5)
C1 C 0.2374(4) 0.4880(4) 0.9115(7)
H1 H 0.2808 0.4517 0.9879
C2 C 0.1603(4) 0.6143(4) 0.7703(6)
H2 H 0.1397 0.6837 0.7299
C3 C 0.2971(4) 0.6816(4) 0.9727(6)
C4 C 0.2763(4) 0.7933(4) 0.9507(7)
H3 H 0.2202 0.8158 0.8862
C5 C 0.3396(4) 0.8706(4) 1.0254(8)
H4 H 0.3251 0.9458 1.0109
C6 C 0.4234(4) 0.8407(5) 1.1206(7)
C7 C 0.4422(5) 0.7294(5) 1.1438(8)
H5 H 0.4977 0.7071 1.2101
C8 C 0.3793(4) 0.6497(5) 1.0695(7)
H6 H 0.3930 0.5745 1.0857
C9 C 0.4935(5) 0.9269(5) 1.2013(8)
H7 H 0.4625 0.9987 1.1955
H8 H 0.5523 0.9293 1.1449
H9 H 0.5101 0.9072 1.3144
Br1B Br 0.13605(5) 0.47831(4) 0.26899(7)
Br2B Br -0.01330(4) 0.73137(4) 0.47155(7)
Br3B Br -0.29904(4) 0.77019(5) -0.05789(7)
Cd2B Cd -0.16312(3) 0.75704(3) 0.21295(5)
N1B N -0.2333(3) 0.4009(3) 0.1100(5)
N2B N -0.1714(3) 0.5620(3) 0.1906(5)
N3B N -0.1221(3) 0.4787(4) 0.2818(5)
C1B C -0.2374(4) 0.5120(4) 0.0885(7)
H1B H -0.2808 0.5483 0.0121
C2B C -0.1603(4) 0.3857(4) 0.2297(6)
H2B H -0.1397 0.3163 0.2701
C3B C -0.2971(4) 0.3184(4) 0.0273(6)
C4B C -0.2763(4) 0.2067(4) 0.0493(7)
H3B H -0.2202 0.1842 0.1138
C5B C -0.3396(4) 0.1294(4) -0.0254(8)
H4B H -0.3251 0.0542 -0.0109
C6B C -0.4234(4) 0.1593(5) -0.1206(7)
C7B C -0.4422(5) 0.2706(5) -0.1438(8)
H5B H -0.4977 0.2929 -0.2101
C8B C -0.3793(4) 0.3503(5) -0.0695(7)
H6B H -0.3930 0.4255 -0.0857
C9B C -0.4935(5) 0.0731(5) -0.2013(8)
H7B H -0.4625 0.0013 -0.1955
H8B H -0.5523 0.0707 -0.1449
H9B H -0.5101 0.0928 -0.3144
Br1A Br 0.13605(5) 0.02169(4) 0.76899(7)
Br1C Br -0.13605(5) 0.97831(4) 0.23101(7)
Br2A Br -0.01330(4) 0.76863(4) -0.02845(7)
Br2C Br 0.01330(4) 0.23137(4) 1.02845(7)
Br3A Br -0.29904(4) 0.72981(5) 0.44211(7)
Br3C Br 0.29904(4) 0.27019(5) 0.55789(7)
Cd2A Cd -0.16312(3) 0.74296(3) -0.28705(5)
Cd2A_2 Cd -0.16312(3) 0.74296(3) 0.71295(5)
Cd2C Cd 0.16312(3) 0.25704(3) 0.28705(5)
Cd2C_2 Cd 0.16312(3) 0.25704(3) 1.28705(5)
loop_
_geom_bond_atom_site_label_1
_geom_bond_atom_site_label_2
_geom_bond_site_symmetry_1
_geom_bond_site_symmetry_2
Br1 Cd1 1_555 1_555
Br2 Cd1 1_555 1_555
Br3 Cd2 1_555 1_555
Cd1 N3 1_555 1_555
Cd2 Br2 1_555 1_555
N1 C1 1_555 1_555
N2 Cd2 1_555 1_555
N3 N2 1_555 1_555
C1 N2 1_555 1_555
H1 C1 1_555 1_555
C2 N1 1_555 1_555
H2 C2 1_555 1_555
C3 N1 1_555 1_555
C4 C3 1_555 1_555
H3 C4 1_555 1_555
C5 C4 1_555 1_555
H4 C5 1_555 1_555
C6 C5 1_555 1_555
C7 C6 1_555 1_555
H5 C7 1_555 1_555
C8 C3 1_555 1_555
H6 C8 1_555 1_555
C9 C6 1_555 1_555
H7 C9 1_555 1_555
H8 C9 1_555 1_555
H9 C9 1_555 1_555
Br1B Cd1 1_555 1_555
Br2B Cd1 1_555 1_555
Br3B Cd2B 1_555 1_555
Cd2B Br2B 1_555 1_555
N1B C1B 1_555 1_555
N2B Cd2B 1_555 1_555
N3B Cd1 1_555 1_555
C1B N2B 1_555 1_555
H1B C1B 1_555 1_555
C2B N1B 1_555 1_555
H2B C2B 1_555 1_555
C3B N1B 1_555 1_555
C4B C3B 1_555 1_555
H3B C4B 1_555 1_555
C5B C4B 1_555 1_555
H4B C5B 1_555 1_555
C6B C5B 1_555 1_555
C7B C6B 1_555 1_555
H5B C7B 1_555 1_555
C8B C3B 1_555 1_555
H6B C8B 1_555 1_555
C9B C6B 1_555 1_555
H7B C9B 1_555 1_555
H8B C9B 1_555 1_555
H9B C9B 1_555 1_555
Br1A Cd2 1_555 1_555
Br1C Cd2B 1_555 1_555
Br2A Cd2B 1_555 1_555
Br2C Cd2 1_555 1_555
Br3A Cd2B 1_555 1_555
Br3C Cd2 1_555 1_555
Cd2A Br3B 1_555 1_555
Cd2A_2 Br1 1_555 1_555
Cd2C Br2 1_555 1_555
Cd2C_2 Br3 1_555 1_555
N3 C2 1_555 1_555
C7 C8 1_555 1_555
Br1B Cd2C 1_555 1_555
Br2B Cd2A_2 1_555 1_555
N2B N3B 1_555 1_555
N3B C2B 1_555 1_555
C7B C8B 1_555 1_555
Br2A Cd2A 1_555 1_555
Br2C Cd2C_2 1_555 1_555
Br3A Cd2A_2 1_555 1_555
Br3C Cd2C 1_555 1_555

#END
