
#######################################################################
#
#                 Cambridge Crystallographic Data Centre
#                                CCDC 
#
#######################################################################
#
# If this CIF has been generated from an entry in the Cambridge 
# Structural Database, then it will include bibliographic, chemical, 
# crystal, experimental, refinement or atomic coordinate data resulting 
# from the CCDC's data processing and validation procedures.
#
#######################################################################

data_VOVKUO
_symmetry_cell_setting           orthorhombic
_symmetry_space_group_name_H-M   'P n n m'
_symmetry_Int_Tables_number      58
_space_group_name_Hall           '-P 2 2n'
loop_
_symmetry_equiv_pos_site_id
_symmetry_equiv_pos_as_xyz
1 x,y,z
2 -x,-y,z
3 1/2+x,1/2-y,1/2-z
4 1/2-x,1/2+y,1/2-z
5 -x,-y,-z
6 x,y,-z
7 1/2-x,1/2+y,1/2+z
8 1/2+x,1/2-y,1/2+z
_cell_length_a                   12.647(3)
_cell_length_b                   13.284(3)
_cell_length_c                   24.926(5)
_cell_angle_alpha                90
_cell_angle_beta                 90
_cell_angle_gamma                90
_cell_volume                     4187.64
loop_
_atom_site_label
_atom_site_type_symbol
_atom_site_fract_x
_atom_site_fract_y
_atom_site_fract_z
O1 O 0.5925(11) 0.3358(11) 0.7272(6)
U1 U 0.61111(6) 0.21192(6) 0.80253(3)
O2 O 0.5785(13) 0.1148(12) 0.7565(6)
O3 O 0.6376(13) 0.3138(13) 0.8475(7)
U2 U 0.76106(6) 0.30727(6) 0.67798(3)
O4 O 0.7183(13) 0.1964(12) 0.6479(6)
O5 O 0.8032(12) 0.4222(12) 0.7055(6)
U3 U 0.90564(6) 0.17151(6) 0.79409(3)
O6 O 0.8909(12) 0.0496(12) 0.7636(6)
O7 O 0.9260(14) 0.2872(14) 0.8243(7)
O8 O 0.7565(11) 0.1279(13) 0.8472(6)
O9 O 0.9331(10) 0.2283(11) 0.7005(5)
O10 O 0.7582(12) 0.2371(15) 0.7569(6)
O11 O 0.6581(13) 0.3965(14) 0.6120(6)
O12 O 0.4848(13) 0.3935(15) 0.6299(6)
O13 O 0.8738(10) 0.3418(11) 0.6030(5)
O14 O 1.0326(11) 0.3913(11) 0.6308(5)
C1 C 0.5631(18) 0.4142(19) 0.6002(8)
C2 C 0.5357(16) 0.4607(17) 0.5478(8)
C3 C 0.573(2) 0.421(2) 0.5000
H1 H 0.6216 0.3689 0.5000
C4 C 0.9572(15) 0.3932(16) 0.5990(8)
C5 C 0.9740(15) 0.4531(15) 0.5488(7)
C6 C 0.949(2) 0.409(2) 0.5000
H2 H 0.9138 0.3471 0.5000
O11A O 0.3419(13) 0.6035(14) 0.6120(6)
O12A O 0.5152(13) 0.6065(15) 0.6299(6)
C1A C 0.4369(18) 0.5858(19) 0.6002(8)
C2A C 0.4643(16) 0.5393(17) 0.5478(8)
C3A C 0.427(2) 0.579(2) 0.5000
H1A H 0.3784 0.6311 0.5000
O11D O 0.3419(13) 0.6035(14) 0.3880(6)
O12D O 0.5152(13) 0.6065(15) 0.3701(6)
C1D C 0.4369(18) 0.5858(19) 0.3998(8)
C2D C 0.4643(16) 0.5393(17) 0.4522(8)
O11E O 0.6581(13) 0.3965(14) 0.3880(6)
O12E O 0.4848(13) 0.3935(15) 0.3701(6)
C1E C 0.5631(18) 0.4142(19) 0.3998(8)
C2E C 0.5357(16) 0.4607(17) 0.4522(8)
O13A O 1.1262(10) 0.6582(11) 0.6030(5)
O14A O 0.9674(11) 0.6087(11) 0.6308(5)
C4A C 1.0428(15) 0.6068(16) 0.5990(8)
C5A C 1.0260(15) 0.5469(15) 0.5488(7)
C6A C 1.051(2) 0.591(2) 0.5000
H2A H 1.0862 0.6529 0.5000
O13D O 1.1262(10) 0.6582(11) 0.3970(5)
O14D O 0.9674(11) 0.6087(11) 0.3692(5)
C4D C 1.0428(15) 0.6068(16) 0.4010(8)
C5D C 1.0260(15) 0.5469(15) 0.4512(7)
O13E O 0.8738(10) 0.3418(11) 0.3970(5)
O14E O 1.0326(11) 0.3913(11) 0.3692(5)
C4E C 0.9572(15) 0.3932(16) 0.4010(8)
C5E C 0.9740(15) 0.4531(15) 0.4512(7)
O1A O 0.4075(11) 0.6642(11) 0.7272(6)
U1A U 0.38889(6) 0.78808(6) 0.80253(3)
O2A O 0.4215(13) 0.8852(12) 0.7565(6)
O3A O 0.3624(13) 0.6862(13) 0.8475(7)
U2A U 0.23894(6) 0.69273(6) 0.67798(3)
O4A O 0.2817(13) 0.8036(12) 0.6479(6)
O5A O 0.1968(12) 0.5778(12) 0.7055(6)
U3A U 0.09436(6) 0.82849(6) 0.79409(3)
O6A O 0.1091(12) 0.9504(12) 0.7636(6)
O7A O 0.0740(14) 0.7128(14) 0.8243(7)
O8A O 0.2435(11) 0.8721(13) 0.8472(6)
O9A O 0.0669(10) 0.7717(11) 0.7005(5)
O10A O 0.2418(12) 0.7629(15) 0.7569(6)
O1D O 0.4075(11) 0.6642(11) 0.2728(6)
U1D U 0.38889(6) 0.78808(6) 0.19747(3)
O2D O 0.4215(13) 0.8852(12) 0.2435(6)
O3D O 0.3624(13) 0.6862(13) 0.1525(7)
U2D U 0.23894(6) 0.69273(6) 0.32202(3)
O4D O 0.2817(13) 0.8036(12) 0.3521(6)
O5D O 0.1968(12) 0.5778(12) 0.2945(6)
U3D U 0.09436(6) 0.82849(6) 0.20591(3)
O6D O 0.1091(12) 0.9504(12) 0.2364(6)
O7D O 0.0740(14) 0.7128(14) 0.1757(7)
O8D O 0.2435(11) 0.8721(13) 0.1528(6)
O9D O 0.0669(10) 0.7717(11) 0.2995(5)
O10D O 0.2418(12) 0.7629(15) 0.2431(6)
O1E O 0.5925(11) 0.3358(11) 0.2728(6)
U1E U 0.61111(6) 0.21192(6) 0.19747(3)
O2E O 0.5785(13) 0.1148(12) 0.2435(6)
O3E O 0.6376(13) 0.3138(13) 0.1525(7)
U2E U 0.76106(6) 0.30727(6) 0.32202(3)
O4E O 0.7183(13) 0.1964(12) 0.3521(6)
O5E O 0.8032(12) 0.4222(12) 0.2945(6)
U3E U 0.90564(6) 0.17151(6) 0.20591(3)
O6E O 0.8909(12) 0.0496(12) 0.2364(6)
O7E O 0.9260(14) 0.2872(14) 0.1757(7)
O8E O 0.7565(11) 0.1279(13) 0.1528(6)
O9E O 0.9331(10) 0.2283(11) 0.2995(5)
O10E O 0.7582(12) 0.2371(15) 0.2431(6)
O1B O 1.0925(11) 0.1642(11) 0.7728(6)
O1C O -0.0925(11) 0.8358(11) 0.7728(6)
O1F O -0.0925(11) 0.8358(11) 0.2272(6)
O1G O 1.0925(11) 0.1642(11) 0.2272(6)
U1B U 1.11111(6) 0.28808(6) 0.69747(3)
U1C U -0.11111(6) 0.71192(6) 0.69747(3)
U1C_2 U 0.88889(6) 0.71192(6) 0.69747(3)
U1F U -0.11111(6) 0.71192(6) 0.30253(3)
U1F_2 U 0.88889(6) 0.71192(6) 0.30253(3)
U1G U 1.11111(6) 0.28808(6) 0.30253(3)
U2A_2 U 1.23894(6) 0.69273(6) 0.67798(3)
U2D_2 U 1.23894(6) 0.69273(6) 0.32202(3)
U3B U 0.40564(6) 0.32849(6) 0.70591(3)
U3C U 0.59436(6) 0.67151(6) 0.70591(3)
U3F U 0.59436(6) 0.67151(6) 0.29409(3)
U3G U 0.40564(6) 0.32849(6) 0.29409(3)
O9B O 0.4331(10) 0.2717(11) 0.7995(5)
O9C O 0.5669(10) 0.7283(11) 0.7995(5)
O9F O 0.5669(10) 0.7283(11) 0.2005(5)
O9G O 0.4331(10) 0.2717(11) 0.2005(5)
O12B O 0.9848(13) 0.1065(15) 0.8701(6)
O12C O 0.0152(13) 0.8935(15) 0.8701(6)
O12F O 0.0152(13) 0.8935(15) 0.1299(6)
O12G O 0.9848(13) 0.1065(15) 0.1299(6)
O13A_2 O 0.1262(10) 0.6582(11) 0.6030(5)
O13D_2 O 0.1262(10) 0.6582(11) 0.3970(5)
O14B O 0.5326(11) 0.1087(11) 0.8692(5)
O14C O 0.4674(11) 0.8913(11) 0.8692(5)
O14F O 0.4674(11) 0.8913(11) 0.1308(5)
O14G O 0.5326(11) 0.1087(11) 0.1308(5)
N1 N 0.793(3) 0.4829(19) 0.1810(9)
O15 O 0.049(6) 0.142(7) 0.470(3)
O16 O 0.683(6) 0.089(6) 0.5000
O17 O 0.533(4) 0.180(4) 0.440(2)
O18 O 0.871(4) 0.156(4) 0.459(2)
O19 O 0.808(6) 0.251(5) 0.053(3)
O20 O 0.739(8) 0.200(8) 0.045(4)
O21 O 0.9195(19) 0.0674(17) 0.3662(11)
loop_
_geom_bond_atom_site_label_1
_geom_bond_atom_site_label_2
_geom_bond_site_symmetry_1
_geom_bond_site_symmetry_2
O1 U1 1_555 1_555
U1 O2 1_555 1_555
O3 U1 1_555 1_555
U2 O1 1_555 1_555
O4 U2 1_555 1_555
O5 U2 1_555 1_555
U3 O6 1_555 1_555
O7 U3 1_555 1_555
O8 U1 1_555 1_555
O9 U2 1_555 1_555
O10 U1 1_555 1_555
O11 U2 1_555 1_555
O12 C1 1_555 1_555
O13 U2 1_555 1_555
O14 C4 1_555 1_555
C1 O11 1_555 1_555
C2 C1 1_555 1_555
C3 C2 1_555 1_555
H1 C3 1_555 1_555
C4 O13 1_555 1_555
C5 C4 1_555 1_555
C6 C5 1_555 1_555
H2 C6 1_555 1_555
O11A C1A 1_555 1_555
O12A C1A 1_555 1_555
C1A C2A 1_555 1_555
C2A C2 1_555 1_555
C3A C2A 1_555 1_555
H1A C3A 1_555 1_555
O11D C1D 1_555 1_555
O12D C1D 1_555 1_555
C1D C2D 1_555 1_555
C2D C3A 1_555 1_555
O11E C1E 1_555 1_555
O12E C1E 1_555 1_555
C1E C2E 1_555 1_555
C2E C3 1_555 1_555
O13A C4A 1_555 1_555
O14A C4A 1_555 1_555
C4A C5A 1_555 1_555
C5A C5 1_555 1_555
C6A C5A 1_555 1_555
H2A C6A 1_555 1_555
O13D C4D 1_555 1_555
O14D C4D 1_555 1_555
C4D C5D 1_555 1_555
C5D C6A 1_555 1_555
O13E C4E 1_555 1_555
O14E C4E 1_555 1_555
C4E C5E 1_555 1_555
C5E C6 1_555 1_555
O1A U1A 1_555 1_555
U1A O2A 1_555 1_555
O3A U1A 1_555 1_555
U2A O11A 1_555 1_555
O4A U2A 1_555 1_555
O5A U2A 1_555 1_555
U3A O6A 1_555 1_555
O7A U3A 1_555 1_555
O8A U1A 1_555 1_555
O9A U2A 1_555 1_555
O10A U1A 1_555 1_555
O1D U1D 1_555 1_555
U1D O2D 1_555 1_555
O3D U1D 1_555 1_555
U2D O11D 1_555 1_555
O4D U2D 1_555 1_555
O5D U2D 1_555 1_555
U3D O6D 1_555 1_555
O7D U3D 1_555 1_555
O8D U1D 1_555 1_555
O9D U2D 1_555 1_555
O10D U1D 1_555 1_555
O1E U1E 1_555 1_555
U1E O2E 1_555 1_555
O3E U1E 1_555 1_555
U2E O11E 1_555 1_555
O4E U2E 1_555 1_555
O5E U2E 1_555 1_555
U3E O6E 1_555 1_555
O7E U3E 1_555 1_555
O8E U1E 1_555 1_555
O9E U2E 1_555 1_555
O10E U1E 1_555 1_555
O1B U3 1_555 1_555
O1C U3A 1_555 1_555
O1F U3D 1_555 1_555
O1G U3E 1_555 1_555
U1B O9 1_555 1_555
U1C O9A 1_555 1_555
U1C_2 O14A 1_555 1_555
U1F O9D 1_555 1_555
U1F_2 O14D 1_555 1_555
U1G O14E 1_555 1_555
U2A_2 O13A 1_555 1_555
U2D_2 O13D 1_555 1_555
U3B O1 1_555 1_555
U3C O12A 1_555 1_555
U3F O12D 1_555 1_555
U3G O12E 1_555 1_555
O9B U1 1_555 1_555
O9C U1A 1_555 1_555
O9F U1D 1_555 1_555
O9G U1E 1_555 1_555
O12B U3 1_555 1_555
O12C U3A 1_555 1_555
O12F U3D 1_555 1_555
O12G U3E 1_555 1_555
O13A_2 U2A 1_555 1_555
O13D_2 U2D 1_555 1_555
O14B U1 1_555 1_555
O14C U1A 1_555 1_555
O14F U1D 1_555 1_555
O14G U1E 1_555 1_555
U2 O10 1_555 1_555
U3 O8 1_555 1_555
U3 O9 1_555 1_555
U3 O10 1_555 1_555
O12 U3B 1_555 1_555
O14 U1B 1_555 1_555
C2D C2E 1_555 1_555
C5D C5E 1_555 1_555
O13E U2E 1_555 1_555
O1A U2A 1_555 1_555
O1A U3C 1_555 1_555
U2A O10A 1_555 1_555
U3A O8A 1_555 1_555
U3A O9A 1_555 1_555
U3A O10A 1_555 1_555
O1D U2D 1_555 1_555
O1D U3F 1_555 1_555
U2D O10D 1_555 1_555
U3D O8D 1_555 1_555
U3D O9D 1_555 1_555
U3D O10D 1_555 1_555
O1E U2E 1_555 1_555
O1E U3G 1_555 1_555
U2E O10E 1_555 1_555
U3E O8E 1_555 1_555
U3E O9E 1_555 1_555
U3E O10E 1_555 1_555
O9E U1G 1_555 1_555
O1B U1B 1_555 1_555
O1C U1C 1_555 1_555
O1F U1F 1_555 1_555
O1G U1G 1_555 1_555
U3B O9B 1_555 1_555
U3C O9C 1_555 1_555
U3F O9F 1_555 1_555
U3G O9G 1_555 1_555

#END
