
#######################################################################
#
#                 Cambridge Crystallographic Data Centre
#                                CCDC 
#
#######################################################################
#
# If this CIF has been generated from an entry in the Cambridge 
# Structural Database, then it will include bibliographic, chemical, 
# crystal, experimental, refinement or atomic coordinate data resulting 
# from the CCDC's data processing and validation procedures.
#
#######################################################################

data_VOVRIJ
_symmetry_cell_setting           orthorhombic
_symmetry_space_group_name_H-M   'P b c a'
_symmetry_Int_Tables_number      61
_space_group_name_Hall           '-P 2ac 2ab'
loop_
_symmetry_equiv_pos_site_id
_symmetry_equiv_pos_as_xyz
1 x,y,z
2 1/2-x,-y,1/2+z
3 -x,1/2+y,1/2-z
4 1/2+x,1/2-y,-z
5 -x,-y,-z
6 1/2+x,y,1/2-z
7 x,1/2-y,1/2+z
8 1/2-x,1/2+y,z
_cell_length_a                   18.5937(14)
_cell_length_b                   7.5632(4)
_cell_length_c                   24.6859(18)
_cell_angle_alpha                90
_cell_angle_beta                 90
_cell_angle_gamma                90
_cell_volume                     3471.53
loop_
_atom_site_label
_atom_site_type_symbol
_atom_site_fract_x
_atom_site_fract_y
_atom_site_fract_z
Hg1 Hg 0.20789(3) 0.54222(9) 0.12500(3)
Br1 Br 0.27640(10) 0.7162(2) 0.19555(7)
Br2 Br 0.28818(7) 0.3901(2) 0.05213(7)
S1 S 0.07772(19) 0.4925(5) 0.11542(17)
C1 C 0.0003(8) 0.8416(18) 0.1279(7)
N1 N 0.0813(6) 0.6080(15) 0.0133(5)
H1 H 0.1003 0.5058 0.008
C2 C 0.0575(6) 0.6423(17) 0.0645(6)
N2 N 0.0211(5) 0.7869(15) 0.0747(5)
H2 H 0.0091 0.8528 0.0478
O1 O 0.0412(5) 0.8513(13) -0.0301(4)
C3 C 0.1224(6) 0.6663(17) -0.0776(7)
C4 C 0.0783(7) 0.7184(18) -0.0311(7)
C5 C 0.0268(11) 0.997(3) 0.2074(9)
H3 H 0.0586 1.065 0.2277
C6 C 0.1869(7) 0.5726(18) -0.0698(7)
H4 H 0.2024 0.5417 -0.0353
C7 C -0.0388(14) 0.959(3) 0.2287(9)
H5 H -0.0509 0.9935 0.2637
C8 C 0.2273(10) 0.527(2) -0.1158(7)
H6 H 0.2706 0.4674 -0.1115
C9 C -0.0685(8) 0.805(2) 0.1473(8)
H7 H -0.1002 0.7384 0.1265
C10 C 0.0482(9) 0.939(2) 0.1578(8)
H8 H 0.0938 0.9654 0.1445
C11 C -0.0886(11) 0.865(3) 0.1954(9)
H9 H -0.1353 0.8457 0.2075
C12 C 0.1001(8) 0.7098(18) -0.1293(6)
H10 H 0.0568 0.7688 -0.1344
C13 C 0.2046(8) 0.568(2) -0.1663(8)
H11 H 0.2309 0.5318 -0.1964
C14 C 0.1418(9) 0.666(2) -0.1730(7)
H12 H 0.128 0.7017 -0.2075
Hg1G Hg 0.29211(3) 0.04222(9) 0.12500(3)
Hg1G_2 Hg 0.29211(3) 1.04222(9) 0.12500(3)
Br1G Br 0.22360(10) 0.2162(2) 0.19555(7)
Br2G Br 0.21182(7) 0.8901(2) 0.05213(7)
O2 O 0.1221(7) 0.2447(16) -0.0035(8)
H13 H 0.082(4) 0.207(16) 0.005(11)
H14 H 0.146(10) 0.157(18) 0.005(4)
loop_
_geom_bond_atom_site_label_1
_geom_bond_atom_site_label_2
_geom_bond_site_symmetry_1
_geom_bond_site_symmetry_2
Hg1 Br1 1_555 1_555
Br1 Hg1G_2 1_555 1_555
Br2 Hg1 1_555 1_555
S1 Hg1 1_555 1_555
C1 N2 1_555 1_555
N1 H1 1_555 1_555
C2 S1 1_555 1_555
N2 C2 1_555 1_555
H2 N2 1_555 1_555
O1 C4 1_555 1_555
C3 C4 1_555 1_555
C4 N1 1_555 1_555
C5 H3 1_555 1_555
C6 C3 1_555 1_555
H4 C6 1_555 1_555
C7 C5 1_555 1_555
H5 C7 1_555 1_555
C8 C6 1_555 1_555
H6 C8 1_555 1_555
C9 C1 1_555 1_555
H7 C9 1_555 1_555
C10 C1 1_555 1_555
H8 C10 1_555 1_555
C11 C7 1_555 1_555
H9 C11 1_555 1_555
C12 C3 1_555 1_555
H10 C12 1_555 1_555
C13 C8 1_555 1_555
H11 C13 1_555 1_555
C14 C12 1_555 1_555
H12 C14 1_555 1_555
O2 H13 1_555 1_555
H14 O2 1_555 1_555
Hg1G Br2 1_555 1_555
Hg1G_2 Br2G 1_555 1_555
Br1G Hg1 1_555 1_555
Br2G Hg1 1_555 1_555
N1 C2 1_555 1_555
C5 C10 1_555 1_555
C9 C11 1_555 1_555
C13 C14 1_555 1_555
Hg1G Br1G 1_555 1_555

#END
