
#######################################################################
#
#                 Cambridge Crystallographic Data Centre
#                                CCDC 
#
#######################################################################
#
# If this CIF has been generated from an entry in the Cambridge 
# Structural Database, then it will include bibliographic, chemical, 
# crystal, experimental, refinement or atomic coordinate data resulting 
# from the CCDC's data processing and validation procedures.
#
#######################################################################

data_VOVTUX
_symmetry_cell_setting           monoclinic
_symmetry_space_group_name_H-M   'P c'
_symmetry_Int_Tables_number      7
_space_group_name_Hall           'P -2yc'
loop_
_symmetry_equiv_pos_site_id
_symmetry_equiv_pos_as_xyz
1 x,y,z
2 x,-y,1/2+z
_cell_length_a                   15.978(3)
_cell_length_b                   7.1089(8)
_cell_length_c                   16.458(3)
_cell_angle_alpha                90
_cell_angle_beta                 99.110(14)
_cell_angle_gamma                90
_cell_volume                     1845.82
loop_
_atom_site_label
_atom_site_type_symbol
_atom_site_fract_x
_atom_site_fract_y
_atom_site_fract_z
Cu1 Cu -0.00329(3) 0.41640(8) 0.52702(3)
Cu2 Cu -0.11870(3) 0.01168(7) 0.50225(3)
C1 C 0.0105(3) 0.0308(7) 0.4046(3)
C2 C 0.0771(3) 0.1369(6) 0.3689(3)
H1 H 0.1322 0.1206 0.4052
H2 H 0.0629 0.2726 0.3678
C3 C 0.0859(3) 0.0740(8) 0.2826(3)
H3 H 0.0999 -0.0617 0.2835
H4 H 0.0311 0.0916 0.2459
C4 C 0.2313(3) 0.1191(7) 0.2625(3)
C5 C 0.2928(3) 0.2341(6) 0.2224(3)
C6 C 0.3621(3) 0.1386(6) 0.1993(3)
H5 H 0.3680 0.0067 0.2076
C7 C 0.4220(3) 0.2382(7) 0.1645(3)
C8 C 0.4133(3) 0.4293(7) 0.1527(3)
H6 H 0.4545 0.4968 0.1287
C9 C 0.3442(3) 0.5252(7) 0.1757(3)
H7 H 0.3386 0.6575 0.1688
C10 C 0.2848(3) 0.4239(7) 0.2085(3)
H8 H 0.2365 0.4871 0.2221
C11 C 0.4942(3) 0.1285(7) 0.1387(3)
C12 C 0.6449(3) 0.1451(7) 0.1226(3)
H9 H 0.6378 0.0099 0.1087
H10 H 0.6941 0.1584 0.1670
C13 C 0.6608(3) 0.2521(7) 0.0487(3)
H11 H 0.6556 0.3880 0.0600
H12 H 0.6159 0.2197 0.0022
C14 C 0.7457(3) 0.2186(7) 0.0222(3)
C15 C 0.1329(3) 0.6532(7) 0.5093(3)
C16 C 0.2148(3) 0.7029(7) 0.4809(3)
H13 H 0.2600 0.7061 0.5295
H14 H 0.2096 0.8313 0.4574
C17 C 0.2422(3) 0.5713(7) 0.4176(4)
H15 H 0.2569 0.4464 0.4424
H16 H 0.1958 0.5551 0.3706
C18 C 0.3953(3) 0.5819(8) 0.4023(3)
C19 C 0.4612(3) 0.7122(6) 0.3765(3)
C20 C 0.5275(3) 0.6332(6) 0.3408(3)
H17 H 0.5304 0.5010 0.3332
C21 C 0.5889(3) 0.7512(7) 0.3168(3)
C22 C 0.5849(3) 0.9418(7) 0.3283(3)
H18 H 0.6272 1.0205 0.3117
C23 C 0.5191(3) 1.0227(7) 0.3644(3)
H19 H 0.5169 1.1546 0.3731
C24 C 0.4574(3) 0.9036(6) 0.3868(3)
H20 H 0.4116 0.9559 0.4097
C25 C 0.6575(3) 0.6617(7) 0.2772(3)
C26 C 0.8022(3) 0.6743(8) 0.2519(3)
H21 H 0.8065 0.5392 0.2666
H22 H 0.8550 0.7365 0.2783
C27 C 0.7949(3) 0.6938(7) 0.1590(3)
H23 H 0.7408 0.6369 0.1327
H24 H 0.7934 0.8290 0.1445
C28 C 0.8674(3) 0.6008(7) 0.1250(3)
N1 N 0.1510(2) 0.1776(6) 0.2501(3)
H25 H 0.134(3) 0.245(6) 0.209(2)
N2 N 0.5683(3) 0.2155(6) 0.1512(3)
H26 H 0.566(3) 0.324(5) 0.170(3)
N3 N 0.3164(2) 0.6554(6) 0.3896(3)
H27 H 0.301(3) 0.760(6) 0.370(3)
N4 N 0.7302(3) 0.7566(6) 0.2841(3)
H28 H 0.740(3) 0.862(5) 0.295(3)
O1 O -0.0105(2) -0.1311(5) 0.3824(2)
O2 O -0.0226(2) 0.1211(4) 0.4604(2)
O3 O 0.2532(2) -0.0183(6) 0.3042(3)
O4 O 0.4835(2) -0.0310(5) 0.1092(3)
O5 O 0.7852(2) 0.0711(5) 0.0497(2)
O6 O 0.7715(2) 0.3366(4) -0.0245(2)
O7 O 0.0938(2) 0.5067(5) 0.4827(2)
O8 O 0.10829(19) 0.7640(5) 0.5621(2)
O9 O 0.4125(2) 0.4265(5) 0.4315(2)
O10 O 0.6480(2) 0.5109(6) 0.2416(3)
O11 O 0.89758(19) 0.6863(4) 0.06830(19)
O12 O 0.8956(2) 0.4453(5) 0.1539(2)
O13 O 0.0735(2) 0.3309(6) 0.6226(2)
H29 H 0.1049 0.2693 0.5957
H30 H 0.0770 0.3484 0.6777
O14 O -0.07712(19) 0.5585(4) 0.4425(2)
H31 H -0.0780 0.6909 0.4590
H32 H -0.1346 0.5069 0.4366
O15 O -0.04472(19) -0.1292(4) 0.5872(2)
H33 H 0.0049 -0.1688 0.5875
H34 H -0.0733 -0.2227 0.6076
O16 O -0.1980(2) 0.0858(4) 0.4023(2)
H35 H -0.2330 0.1677 0.4124
H36 H -0.1666 0.1620 0.3719
Cu1A Cu 0.99671(3) 0.58360(8) 0.02702(3)
Cu2A Cu 0.88130(3) -0.01168(7) 0.00225(3)
Cu2A_2 Cu 0.88130(3) 0.98832(7) 0.00225(3)
O5A O -0.2148(2) -0.0711(5) 0.5497(2)
O11A O -0.10242(19) 0.3137(4) 0.56830(19)
O17 O 0.0381(2) 0.5973(5) 0.2733(2)
H37 H 0.0170 0.7212 0.2862
H38 H -0.0194 0.5485 0.2814
O18 O 0.5627(2) 0.6816(5) 1.0335(3)
H39 H 0.552(3) 0.768(7) 1.068(3)
H40 H 0.517(3) 0.658(7) 0.990(3)
O19 O 0.3308(2) 0.8573(5) 1.0147(2)
H41 H 0.343(3) 0.771(6) 0.986(3)
H42 H 0.373(3) 0.902(7) 1.044(3)
O20 O 0.1922(2) 0.1100(5) 0.5937(2)
H43 H 0.2353 0.1199 0.5697
H44 H 0.1704 0.0010 0.5863
O21 O 0.6886(2) 0.6801(5) -0.0613(2)
H45 H 0.7232 0.5954 -0.0409
H46 H 0.6785 0.6333 -0.1095
O22 O -0.1313(5) 0.1946(11) 0.2716(5)
H47 H -0.1461 0.1005 0.2389
H48 H -0.1216 0.2861 0.2412
loop_
_geom_bond_atom_site_label_1
_geom_bond_atom_site_label_2
_geom_bond_site_symmetry_1
_geom_bond_site_symmetry_2
Cu1 O2 1_555 1_555
Cu2 O2 1_555 1_555
C1 C2 1_555 1_555
C2 H1 1_555 1_555
H2 C2 1_555 1_555
C3 C2 1_555 1_555
H3 C3 1_555 1_555
H4 C3 1_555 1_555
C4 C5 1_555 1_555
C5 C6 1_555 1_555
C6 H5 1_555 1_555
C7 C6 1_555 1_555
C8 C7 1_555 1_555
H6 C8 1_555 1_555
C9 C8 1_555 1_555
H7 C9 1_555 1_555
C10 C5 1_555 1_555
H8 C10 1_555 1_555
C11 C7 1_555 1_555
C12 H9 1_555 1_555
H10 C12 1_555 1_555
C13 C12 1_555 1_555
H11 C13 1_555 1_555
H12 C13 1_555 1_555
C14 C13 1_555 1_555
C15 C16 1_555 1_555
C16 H13 1_555 1_555
H14 C16 1_555 1_555
C17 C16 1_555 1_555
H15 C17 1_555 1_555
H16 C17 1_555 1_555
C18 C19 1_555 1_555
C19 C20 1_555 1_555
C20 H17 1_555 1_555
C21 C20 1_555 1_555
C22 C21 1_555 1_555
H18 C22 1_555 1_555
C23 C22 1_555 1_555
H19 C23 1_555 1_555
C24 C19 1_555 1_555
H20 C24 1_555 1_555
C25 C21 1_555 1_555
C26 H21 1_555 1_555
H22 C26 1_555 1_555
C27 C26 1_555 1_555
H23 C27 1_555 1_555
H24 C27 1_555 1_555
C28 C27 1_555 1_555
N1 C3 1_555 1_555
H25 N1 1_555 1_555
N2 C11 1_555 1_555
H26 N2 1_555 1_555
N3 C17 1_555 1_555
H27 N3 1_555 1_555
N4 C25 1_555 1_555
H28 N4 1_555 1_555
O1 C1 1_555 1_555
O2 C1 1_555 1_555
O3 C4 1_555 1_555
O4 C11 1_555 1_555
O5 C14 1_555 1_555
O6 C14 1_555 1_555
O7 Cu1 1_555 1_555
O8 C15 1_555 1_555
O9 C18 1_555 1_555
O10 C25 1_555 1_555
O11 C28 1_555 1_555
O12 C28 1_555 1_555
O13 Cu1 1_555 1_555
H29 O13 1_555 1_555
H30 O13 1_555 1_555
O14 Cu1 1_555 1_555
H31 O14 1_555 1_555
H32 O14 1_555 1_555
O15 Cu2 1_555 1_555
H33 O15 1_555 1_555
H34 O15 1_555 1_555
O16 Cu2 1_555 1_555
H35 O16 1_555 1_555
H36 O16 1_555 1_555
O17 H37 1_555 1_555
H38 O17 1_555 1_555
O18 H39 1_555 1_555
H40 O18 1_555 1_555
O19 H41 1_555 1_555
H42 O19 1_555 1_555
O20 H43 1_555 1_555
H44 O20 1_555 1_555
O21 H45 1_555 1_555
H46 O21 1_555 1_555
O22 H47 1_555 1_555
H48 O22 1_555 1_555
Cu1A O11 1_555 1_555
Cu2A O5 1_555 1_555
Cu2A_2 O11 1_555 1_555
O5A Cu2 1_555 1_555
O11A Cu1 1_555 1_555
Cu2 O11A 1_555 1_555
C4 N1 1_555 1_555
C9 C10 1_555 1_555
C12 N2 1_555 1_555
C15 O7 1_555 1_555
C18 N3 1_555 1_555
C23 C24 1_555 1_555
C26 N4 1_555 1_555

#END
