
#######################################################################
#
#                 Cambridge Crystallographic Data Centre
#                                CCDC 
#
#######################################################################
#
# If this CIF has been generated from an entry in the Cambridge 
# Structural Database, then it will include bibliographic, chemical, 
# crystal, experimental, refinement or atomic coordinate data resulting 
# from the CCDC's data processing and validation procedures.
#
#######################################################################

data_VOVVEJ
_symmetry_cell_setting           monoclinic
_symmetry_space_group_name_H-M   'P 21/c'
_symmetry_Int_Tables_number      14
_space_group_name_Hall           '-P 2ybc'
loop_
_symmetry_equiv_pos_site_id
_symmetry_equiv_pos_as_xyz
1 x,y,z
2 -x,1/2+y,1/2-z
3 -x,-y,-z
4 x,1/2-y,1/2+z
_cell_length_a                   7.0280(9)
_cell_length_b                   25.009(3)
_cell_length_c                   11.5430(11)
_cell_angle_alpha                90
_cell_angle_beta                 91.974(10)
_cell_angle_gamma                90
_cell_volume                     2027.63
loop_
_atom_site_label
_atom_site_type_symbol
_atom_site_fract_x
_atom_site_fract_y
_atom_site_fract_z
Mn1 Mn 0.36101(11) 0.62305(3) 0.53647(6)
O1 O 0.1678(6) 0.55732(15) 0.5266(3)
H1 H 0.171(10) 0.5268(14) 0.558(6)
H2 H 0.066(6) 0.554(3) 0.487(5)
O2 O 0.1168(7) 0.67776(17) 0.5324(3)
H3 H 0.095(11) 0.699(2) 0.477(5)
H4 H 0.030(8) 0.684(3) 0.580(5)
O3 O 0.5459(7) 0.69400(19) 0.5396(3)
H5 H 0.577(11) 0.712(3) 0.481(4)
H6 H 0.620(9) 0.695(3) 0.599(4)
O4 O 0.6078(7) 0.5712(2) 0.5461(4)
H7 H 0.692(8) 0.577(3) 0.599(5)
H8 H 0.684(9) 0.562(3) 0.495(5)
N1 N 0.3729(6) 0.62245(15) 0.7311(3)
N2 N 0.3559(6) 0.62062(15) 1.3418(3)
C1 C 0.3198(9) 0.6650(2) 0.7913(4)
H9 H 0.2853 0.6959 0.7510
C2 C 0.3134(9) 0.6654(2) 0.9092(4)
H10 H 0.2762 0.6963 0.9472
C3 C 0.3612(8) 0.62090(19) 0.9716(4)
C4 C 0.4157(9) 0.5768(2) 0.9103(4)
H11 H 0.4508 0.5455 0.9488
C5 C 0.4178(9) 0.5793(2) 0.7915(4)
H12 H 0.4530 0.5488 0.7514
C6 C 0.3551(8) 0.6658(2) 1.2803(4)
H13 H 0.3510 0.6981 1.3200
C7 C 0.3599(8) 0.66706(19) 1.1628(4)
H14 H 0.3635 0.6997 1.1244
C8 C 0.3594(7) 0.62006(19) 1.1003(4)
C9 C 0.3546(8) 0.5733(2) 1.1636(4)
H15 H 0.3522 0.5405 1.1256
C10 C 0.3534(8) 0.5750(2) 1.2810(4)
H16 H 0.3506 0.5429 1.3214
Mn1_2 Mn 0.36101(11) 0.62305(3) 1.53647(6)
N2_2 N 0.3559(6) 0.62062(15) 0.3418(3)
S1 S 0.84641(19) 0.74606(4) 0.28276(10)
O5 O 0.8508(6) 0.54032(13) 0.3765(3)
O6 O 0.9151(7) 0.49874(14) 0.2150(3)
O7 O 0.8756(8) 0.54608(16) 0.0224(3)
H17 H 0.8786 0.5204 0.0666
O8 O 0.6753(6) 0.74636(14) 0.3480(3)
O9 O 0.8484(6) 0.78951(13) 0.1989(3)
O10 O 1.0168(6) 0.74529(14) 0.3567(3)
C11 C 0.8770(8) 0.53996(18) 0.2699(4)
C12 C 0.8606(7) 0.59110(19) 0.2040(4)
C13 C 0.8649(8) 0.5915(2) 0.0841(4)
C14 C 0.8519(8) 0.6394(2) 0.0246(4)
H18 H 0.8470 0.6396 -0.0560
C15 C 0.8462(8) 0.6864(2) 0.0843(4)
H19 H 0.8421 0.7186 0.0441
C16 C 0.8465(7) 0.68650(18) 0.2032(4)
C17 C 0.8529(7) 0.63858(18) 0.2627(4)
H20 H 0.8519 0.6386 0.3432
O11 O 0.8555(9) 0.5883(2) 0.7194(5)
H21 H 0.945(10) 0.611(3) 0.718(10)
H22 H 0.893(14) 0.557(2) 0.741(9)
loop_
_geom_bond_atom_site_label_1
_geom_bond_atom_site_label_2
_geom_bond_site_symmetry_1
_geom_bond_site_symmetry_2
Mn1 O1 1_555 1_555
O1 H1 1_555 1_555
H2 O1 1_555 1_555
O2 Mn1 1_555 1_555
H3 O2 1_555 1_555
H4 O2 1_555 1_555
O3 Mn1 1_555 1_555
H5 O3 1_555 1_555
H6 O3 1_555 1_555
O4 Mn1 1_555 1_555
H7 O4 1_555 1_555
H8 O4 1_555 1_555
N1 Mn1 1_555 1_555
N2 C6 1_555 1_555
C1 N1 1_555 1_555
H9 C1 1_555 1_555
C2 C1 1_555 1_555
H10 C2 1_555 1_555
C3 C2 1_555 1_555
C4 C3 1_555 1_555
H11 C4 1_555 1_555
C5 N1 1_555 1_555
H12 C5 1_555 1_555
C6 H13 1_555 1_555
C7 C6 1_555 1_555
H14 C7 1_555 1_555
C8 C3 1_555 1_555
C9 C8 1_555 1_555
H15 C9 1_555 1_555
C10 N2 1_555 1_555
H16 C10 1_555 1_555
S1 O8 1_555 1_555
O5 C11 1_555 1_555
O6 C11 1_555 1_555
O7 H17 1_555 1_555
O9 S1 1_555 1_555
O10 S1 1_555 1_555
C11 C12 1_555 1_555
C12 C13 1_555 1_555
C13 O7 1_555 1_555
C14 C13 1_555 1_555
H18 C14 1_555 1_555
C15 C14 1_555 1_555
H19 C15 1_555 1_555
C16 S1 1_555 1_555
C17 C12 1_555 1_555
H20 C17 1_555 1_555
O11 H21 1_555 1_555
H22 O11 1_555 1_555
Mn1_2 N2 1_555 1_555
N2_2 Mn1 1_555 1_555
C4 C5 1_555 1_555
C7 C8 1_555 1_555
C9 C10 1_555 1_555
C15 C16 1_555 1_555
C16 C17 1_555 1_555

#END
