
#######################################################################
#
#                 Cambridge Crystallographic Data Centre
#                                CCDC 
#
#######################################################################
#
# If this CIF has been generated from an entry in the Cambridge 
# Structural Database, then it will include bibliographic, chemical, 
# crystal, experimental, refinement or atomic coordinate data resulting 
# from the CCDC's data processing and validation procedures.
#
#######################################################################

data_VOVYAI
_symmetry_cell_setting           monoclinic
_symmetry_space_group_name_H-M   'P 21/c'
_symmetry_Int_Tables_number      14
_space_group_name_Hall           '-P 2ybc'
loop_
_symmetry_equiv_pos_site_id
_symmetry_equiv_pos_as_xyz
1 x,y,z
2 -x,1/2+y,1/2-z
3 -x,-y,-z
4 x,1/2-y,1/2+z
_cell_length_a                   16.9698(18)
_cell_length_b                   7.8314(8)
_cell_length_c                   8.9553(10)
_cell_angle_alpha                90
_cell_angle_beta                 100.657(2)
_cell_angle_gamma                90
_cell_volume                     1169.61
loop_
_atom_site_label
_atom_site_type_symbol
_atom_site_fract_x
_atom_site_fract_y
_atom_site_fract_z
C1 C 0.9027(2) -0.1496(5) 0.6197(4)
C2 C 0.8180(2) -0.0899(4) 0.5697(4)
C3 C 0.7793(2) -0.1217(4) 0.4254(4)
H1 H 0.8059 -0.1812 0.3599
C4 C 0.7000(2) -0.0673(5) 0.3724(4)
C5 C 0.6594(2) -0.0977(6) 0.2214(4)
H2 H 0.6849 -0.1578 0.1544
C6 C 0.5836(3) -0.0392(7) 0.1744(5)
H3 H 0.5575 -0.0609 0.0755
C7 C 0.5442(3) 0.0524(7) 0.2714(6)
H4 H 0.4928 0.0938 0.2361
C8 C 0.5807(2) 0.0820(6) 0.4186(5)
H5 H 0.5535 0.1419 0.4831
C9 C 0.6595(2) 0.0222(5) 0.4736(4)
C10 C 0.6993(2) 0.0520(5) 0.6249(4)
H6 H 0.6729 0.1078 0.6929
C11 C 0.7770(2) -0.0017(4) 0.6710(4)
C12 C 0.7854(2) 0.0868(5) 0.9311(4)
H7 H 0.7528 -0.0009 0.9660
H8 H 0.7512 0.1829 0.8944
C13 C 0.8511(2) 0.1426(5) 1.0593(4)
O1 O 0.95679(14) -0.0536(3) 0.6906(3)
O2 O 0.91871(16) -0.2989(3) 0.5873(3)
O3 O 0.82228(14) 0.0221(3) 0.8133(3)
O4 O 0.91575(16) 0.2022(3) 1.0301(3)
O5 O 0.83708(16) 0.1400(4) 1.1913(3)
Cd1 Cd 0.949715(14) 0.20459(3) 0.79881(3)
O1A O 1.04321(14) 0.4464(3) 0.8094(3)
O2A O 1.08129(16) 0.2011(3) 0.9127(3)
O4C O 0.91575(16) 0.2978(3) 0.5301(3)
O5C O 0.83708(16) 0.3600(4) 0.6913(3)
Cd1A Cd 1.050285(14) -0.29541(3) 0.70119(3)
Cd1C Cd 0.949715(14) 0.29541(3) 1.29881(3)
loop_
_geom_bond_atom_site_label_1
_geom_bond_atom_site_label_2
_geom_bond_site_symmetry_1
_geom_bond_site_symmetry_2
C1 C2 1_555 1_555
C2 C3 1_555 1_555
C3 H1 1_555 1_555
C4 C3 1_555 1_555
C5 C4 1_555 1_555
H2 C5 1_555 1_555
C6 C5 1_555 1_555
H3 C6 1_555 1_555
C7 C6 1_555 1_555
H4 C7 1_555 1_555
C8 C7 1_555 1_555
H5 C8 1_555 1_555
C9 C4 1_555 1_555
C10 C9 1_555 1_555
H6 C10 1_555 1_555
C11 C2 1_555 1_555
C12 H7 1_555 1_555
H8 C12 1_555 1_555
C13 C12 1_555 1_555
O1 C1 1_555 1_555
O2 C1 1_555 1_555
O3 C11 1_555 1_555
O4 C13 1_555 1_555
O5 C13 1_555 1_555
Cd1 O1 1_555 1_555
O1A Cd1 1_555 1_555
O2A Cd1 1_555 1_555
O4C Cd1 1_555 1_555
O5C Cd1 1_555 1_555
Cd1A O1 1_555 1_555
Cd1C O4 1_555 1_555
C8 C9 1_555 1_555
C10 C11 1_555 1_555
C12 O3 1_555 1_555
O2 Cd1A 1_555 1_555
O3 Cd1 1_555 1_555
O4 Cd1 1_555 1_555
O5 Cd1C 1_555 1_555

#END
