
#######################################################################
#
#                 Cambridge Crystallographic Data Centre
#                                CCDC 
#
#######################################################################
#
# If this CIF has been generated from an entry in the Cambridge 
# Structural Database, then it will include bibliographic, chemical, 
# crystal, experimental, refinement or atomic coordinate data resulting 
# from the CCDC's data processing and validation procedures.
#
#######################################################################

data_VOWBEQ
_symmetry_cell_setting           monoclinic
_symmetry_space_group_name_H-M   'P 21/n'
_symmetry_Int_Tables_number      14
_space_group_name_Hall           '-P 2yn'
loop_
_symmetry_equiv_pos_site_id
_symmetry_equiv_pos_as_xyz
1 x,y,z
2 1/2-x,1/2+y,1/2-z
3 -x,-y,-z
4 1/2+x,1/2-y,1/2+z
_cell_length_a                   14.9437(19)
_cell_length_b                   10.0920(7)
_cell_length_c                   18.0928(17)
_cell_angle_alpha                90
_cell_angle_beta                 110.727(8)
_cell_angle_gamma                90
_cell_volume                     2552.01
loop_
_atom_site_label
_atom_site_type_symbol
_atom_site_fract_x
_atom_site_fract_y
_atom_site_fract_z
O1 O 0.2928(5) 0.9569(6) 0.2513(4)
O2 O 0.4017(5) 1.1052(6) 0.2500(4)
C1 C 0.0902(9) 0.9104(11) 0.2470(7)
H1 H 0.1178 0.9985 0.2527
H2 H 0.0397 0.906 0.1955
C2 C 0.3742(8) 0.9858(9) 0.2526(5)
C3 C 0.3901(9) 0.9975(14) 0.0086(7)
C4 C 0.3577(10) 1.1128(16) -0.0333(8)
H3 H 0.3695 1.1949 -0.0083
C5 C 0.3674(10) 0.8755(17) -0.0313(7)
C6 C 0.2882(15) 0.986(2) -0.1523(11)
H4 H 0.2554 0.9835 -0.2066
C7 C 0.3164(12) 0.871(2) -0.1134(9)
H5 H 0.3025 0.7908 -0.14
O3 O 0.3946(10) 0.7611(12) 0.0056(6)
H6 H 0.4233 0.7747 0.0528
N1 N 0.4668(7) 0.8983(10) 0.1341(5)
C8 C 0.5182(8) 0.9096(12) 0.2195(6)
H7 H 0.5438 0.9984 0.2322
H8 H 0.5713 0.8476 0.2357
C9 C 0.4440(8) 1.0038(13) 0.0939(6)
H9 H 0.4614 1.0856 0.1186
C10 C 0.0444(13) 0.8906(17) 0.3122(14)
H10 H 0.0064 0.8101 0.3004
H11 H 0.0954 0.8781 0.3627
C11 C -0.014(2) 0.995(2) 0.3191(17)
H12 H -0.0725 0.9955 0.2736
H13 H 0.0191 1.0784 0.3201
C12 C -0.036(4) 0.982(3) 0.391(2)
H14 H -0.0766 1.0533 0.3941
H15 H 0.0225 0.9845 0.4362
H16 H -0.0676 0.8989 0.3902
C13 C 0.3051(10) 1.102(2) -0.1168(8)
Sn1 Sn 0.19868(5) 0.76914(5) 0.24996(3)
Br1 Br 0.2588(2) 1.2619(3) -0.17141(12)
C14 C 0.4508(8) 0.8800(10) 0.2635(6)
H17 H 0.488 0.8716 0.3194
H18 H 0.4197 0.7956 0.2455
C15 C 0.2944(7) 0.7129(9) 0.3645(5)
H19 H 0.2624 0.6481 0.3861
H20 H 0.3494 0.6695 0.3584
C16 C 0.3302(8) 0.8239(11) 0.4239(6)
H21 H 0.2766 0.8805 0.421
H22 H 0.3755 0.877 0.4093
C17 C 0.3779(9) 0.7774(11) 0.5084(5)
H23 H 0.4313 0.7203 0.5115
H24 H 0.3325 0.7256 0.5236
C18 C 0.1380(9) 0.7794(10) -0.0093(6)
H25 H 0.0932 0.7061 -0.0198
H26 H 0.1962 0.747 -0.0152
C19 C 0.2018(8) 0.7163(10) 0.1365(5)
H27 H 0.2674 0.6987 0.1413
H28 H 0.1655 0.6353 0.1189
C20 C 0.1603(8) 0.8249(10) 0.0736(5)
H29 H 0.1022 0.8592 0.0789
H30 H 0.2058 0.8973 0.084
C21 C 0.0956(10) 0.8878(12) -0.0698(6)
H31 H 0.083 0.8533 -0.122
H32 H 0.14 0.9601 -0.0604
H33 H 0.0369 0.9186 -0.0654
C22 C 0.4138(11) 0.8914(13) 0.5661(7)
H34 H 0.4447 0.857 0.6184
H35 H 0.3608 0.9462 0.565
H36 H 0.4587 0.9433 0.5513
O2A O 0.0983(5) 0.6052(6) 0.2500(4)
Sn1A Sn 0.30132(5) 1.26914(5) 0.25004(3)
loop_
_geom_bond_atom_site_label_1
_geom_bond_atom_site_label_2
_geom_bond_site_symmetry_1
_geom_bond_site_symmetry_2
O1 C2 1_555 1_555
O2 C2 1_555 1_555
C1 H1 1_555 1_555
H2 C1 1_555 1_555
C2 C14 1_555 1_555
C3 C4 1_555 1_555
C4 H3 1_555 1_555
C5 C3 1_555 1_555
C6 H4 1_555 1_555
C7 C5 1_555 1_555
H5 C7 1_555 1_555
O3 C5 1_555 1_555
H6 O3 1_555 1_555
N1 C8 1_555 1_555
C8 H7 1_555 1_555
H8 C8 1_555 1_555
C9 C3 1_555 1_555
H9 C9 1_555 1_555
C10 C1 1_555 1_555
H10 C10 1_555 1_555
H11 C10 1_555 1_555
C11 C10 1_555 1_555
H12 C11 1_555 1_555
H13 C11 1_555 1_555
C12 C11 1_555 1_555
H14 C12 1_555 1_555
H15 C12 1_555 1_555
H16 C12 1_555 1_555
C13 C4 1_555 1_555
Sn1 O1 1_555 1_555
Br1 C13 1_555 1_555
C14 C8 1_555 1_555
H17 C14 1_555 1_555
H18 C14 1_555 1_555
C15 Sn1 1_555 1_555
H19 C15 1_555 1_555
H20 C15 1_555 1_555
C16 C15 1_555 1_555
H21 C16 1_555 1_555
H22 C16 1_555 1_555
C17 C16 1_555 1_555
H23 C17 1_555 1_555
H24 C17 1_555 1_555
C18 H25 1_555 1_555
H26 C18 1_555 1_555
C19 Sn1 1_555 1_555
H27 C19 1_555 1_555
H28 C19 1_555 1_555
C20 C18 1_555 1_555
H29 C20 1_555 1_555
H30 C20 1_555 1_555
C21 C18 1_555 1_555
H31 C21 1_555 1_555
H32 C21 1_555 1_555
H33 C21 1_555 1_555
C22 C17 1_555 1_555
H34 C22 1_555 1_555
H35 C22 1_555 1_555
H36 C22 1_555 1_555
O2A Sn1 1_555 1_555
Sn1A O2 1_555 1_555
C1 Sn1 1_555 1_555
C6 C7 1_555 1_555
C6 C13 1_555 1_555
N1 C9 1_555 1_555
C19 C20 1_555 1_555

#END
