
#######################################################################
#
#                 Cambridge Crystallographic Data Centre
#                                CCDC 
#
#######################################################################
#
# If this CIF has been generated from an entry in the Cambridge 
# Structural Database, then it will include bibliographic, chemical, 
# crystal, experimental, refinement or atomic coordinate data resulting 
# from the CCDC's data processing and validation procedures.
#
#######################################################################

data_VOWCIV
_symmetry_cell_setting           monoclinic
_symmetry_space_group_name_H-M   'P 21/c'
_symmetry_Int_Tables_number      14
_space_group_name_Hall           '-P 2ybc'
loop_
_symmetry_equiv_pos_site_id
_symmetry_equiv_pos_as_xyz
1 x,y,z
2 -x,1/2+y,1/2-z
3 -x,-y,-z
4 x,1/2-y,1/2+z
_cell_length_a                   10.7170(5)
_cell_length_b                   18.7732(8)
_cell_length_c                   13.9105(6)
_cell_angle_alpha                90
_cell_angle_beta                 103.0500(10)
_cell_angle_gamma                90
_cell_volume                     2726.41
loop_
_atom_site_label
_atom_site_type_symbol
_atom_site_fract_x
_atom_site_fract_y
_atom_site_fract_z
Ni1 Ni 0.40027(4) 0.11747(2) 0.64278(3)
Ni2 Ni 0.24468(4) 0.01782(2) 0.79929(3)
O1 O 0.43897(19) 0.00770(11) 0.65116(14)
O2 O 0.27682(19) -0.05055(11) 0.69411(14)
O3 O -0.0876(2) -0.10023(13) 0.47786(15)
O4 O -0.28937(19) -0.09131(11) 0.49360(14)
O5 O 0.2254(2) 0.30898(12) 0.34936(15)
O6 O 0.2133(2) 0.41840(11) 0.41114(14)
O7 O 0.43766(19) 0.04631(11) 0.85915(14)
O8 O 0.51484(19) 0.13289(10) 0.77625(14)
O9 O 0.2362(2) 0.10595(11) 0.70299(14)
N1 N 0.4460(2) -0.12795(13) 0.42332(17)
N2 N 0.0461(2) 0.00373(13) 0.74384(17)
N3 N 0.3650(2) 0.22658(13) 0.62867(17)
N4 N 0.7456(2) 0.06366(13) 1.09552(17)
C1 C 0.3560(3) -0.04051(16) 0.6406(2)
C2 C 0.3468(3) -0.08970(16) 0.5535(2)
C3 C 0.2412(3) -0.13235(17) 0.5162(2)
H1 H 0.1713 -0.1343 0.5477
C4 C 0.2399(3) -0.17216(18) 0.4316(2)
H2 H 0.1681 -0.2011 0.4038
C5 C 0.3440(3) -0.16929(17) 0.3881(2)
H3 H 0.3430 -0.1976 0.3313
C6 C 0.4456(3) -0.08890(16) 0.5042(2)
H4 H 0.5172 -0.0590 0.5290
C7 C -0.1703(3) -0.08036(16) 0.5220(2)
C8 C -0.1288(3) -0.04109(15) 0.6186(2)
C9 C -0.2161(3) -0.01470(17) 0.6700(2)
H5 H -0.3055 -0.0211 0.6454
C10 C -0.1700(3) 0.02107(19) 0.7576(2)
H6 H -0.2277 0.0402 0.7936
C11 C -0.0398(3) 0.02888(17) 0.7923(2)
H7 H -0.0094 0.0530 0.8531
C12 C 0.0002(3) -0.02971(16) 0.6578(2)
H8 H 0.0598 -0.0465 0.6218
C13 C 0.2391(3) 0.35309(17) 0.4193(2)
C14 C 0.2910(3) 0.32593(16) 0.5222(2)
C15 C 0.3180(4) 0.37174(18) 0.6028(2)
H9 H 0.3023 0.4214 0.5944
C16 C 0.3679(4) 0.34389(19) 0.6951(2)
H10 H 0.3870 0.3742 0.7512
C17 C 0.3898(3) 0.27169(18) 0.7054(2)
H11 H 0.4240 0.2531 0.7694
C18 C 0.3180(3) 0.25426(16) 0.5390(2)
H12 H 0.3023 0.2230 0.4839
C19 C 0.5176(3) 0.09292(16) 0.8495(2)
C20 C 0.6334(3) 0.10261(15) 0.9337(2)
C21 C 0.7317(3) 0.15009(17) 0.9294(2)
H13 H 0.7274 0.1795 0.8732
C22 C 0.8361(3) 0.15343(18) 1.0091(2)
H14 H 0.9045 0.1854 1.0082
C23 C 0.8399(3) 0.10987(16) 1.0896(2)
H15 H 0.9123 0.1126 1.1434
C24 C 0.6451(3) 0.06102(16) 1.0181(2)
H16 H 0.5778 0.0288 1.0210
H17 H 0.181(3) 0.110(2) 0.6439(16)
H18 H 0.219(4) 0.1395(17) 0.744(3)
Ni1B Ni -0.40027(4) -0.11747(2) 0.35722(3)
Ni1B_2 Ni 0.59973(4) -0.11747(2) 0.35722(3)
Ni2B Ni 0.75532(4) -0.01782(2) 1.20071(3)
Ni2C Ni 0.24468(4) 0.48218(2) 0.29929(3)
O4B O 0.28937(19) 0.09131(11) 0.50640(14)
O6C O 0.2133(2) 0.08160(11) 0.91114(14)
N1B N 0.5540(2) 0.12795(13) 0.57668(17)
N4B N 0.2544(2) -0.06366(13) 0.90448(17)
O10 O 0.2300(3) -0.20687(15) 0.7372(2)
H19 H 0.155(2) -0.210(3) 0.693(3)
H20 H 0.264(4) -0.1635(11) 0.731(3)
O11 O -0.0074(3) -0.22868(16) 0.6032(2)
H21 H -0.073(3) -0.245(2) 0.627(3)
H22 H -0.044(4) -0.1957(18) 0.559(3)
loop_
_geom_bond_atom_site_label_1
_geom_bond_atom_site_label_2
_geom_bond_site_symmetry_1
_geom_bond_site_symmetry_2
Ni1 O1 1_555 1_555
Ni2 O2 1_555 1_555
O1 C1 1_555 1_555
O2 C1 1_555 1_555
O3 C7 1_555 1_555
O4 C7 1_555 1_555
O5 C13 1_555 1_555
O6 C13 1_555 1_555
O7 Ni2 1_555 1_555
O8 Ni1 1_555 1_555
O9 Ni1 1_555 1_555
N1 C5 1_555 1_555
N2 Ni2 1_555 1_555
N3 Ni1 1_555 1_555
N4 C23 1_555 1_555
C1 C2 1_555 1_555
C2 C3 1_555 1_555
C3 H1 1_555 1_555
C4 C3 1_555 1_555
H2 C4 1_555 1_555
C5 C4 1_555 1_555
H3 C5 1_555 1_555
C6 N1 1_555 1_555
H4 C6 1_555 1_555
C7 C8 1_555 1_555
C8 C9 1_555 1_555
C9 H5 1_555 1_555
C10 C9 1_555 1_555
H6 C10 1_555 1_555
C11 N2 1_555 1_555
H7 C11 1_555 1_555
C12 N2 1_555 1_555
H8 C12 1_555 1_555
C13 C14 1_555 1_555
C14 C15 1_555 1_555
C15 H9 1_555 1_555
C16 C15 1_555 1_555
H10 C16 1_555 1_555
C17 N3 1_555 1_555
H11 C17 1_555 1_555
C18 N3 1_555 1_555
H12 C18 1_555 1_555
C19 O7 1_555 1_555
C20 C19 1_555 1_555
C21 C20 1_555 1_555
H13 C21 1_555 1_555
C22 C21 1_555 1_555
H14 C22 1_555 1_555
C23 C22 1_555 1_555
H15 C23 1_555 1_555
C24 N4 1_555 1_555
H16 C24 1_555 1_555
H17 O9 1_555 1_555
H18 O9 1_555 1_555
O10 H19 1_555 1_555
H20 O10 1_555 1_555
O11 H21 1_555 1_555
H22 O11 1_555 1_555
Ni1B O4 1_555 1_555
Ni1B_2 N1 1_555 1_555
Ni2B N4 1_555 1_555
Ni2C O6 1_555 1_555
O4B Ni1 1_555 1_555
O6C Ni2 1_555 1_555
N1B Ni1 1_555 1_555
N4B Ni2 1_555 1_555
Ni2 O9 1_555 1_555
O8 C19 1_555 1_555
C2 C6 1_555 1_555
C8 C12 1_555 1_555
C10 C11 1_555 1_555
C14 C18 1_555 1_555
C16 C17 1_555 1_555
C20 C24 1_555 1_555

#END
