
#######################################################################
#
#                 Cambridge Crystallographic Data Centre
#                                CCDC 
#
#######################################################################
#
# If this CIF has been generated from an entry in the Cambridge 
# Structural Database, then it will include bibliographic, chemical, 
# crystal, experimental, refinement or atomic coordinate data resulting 
# from the CCDC's data processing and validation procedures.
#
#######################################################################

data_VOWDIW
_symmetry_cell_setting           monoclinic
_symmetry_space_group_name_H-M   'P 21/c'
_symmetry_Int_Tables_number      14
_space_group_name_Hall           '-P 2ybc'
loop_
_symmetry_equiv_pos_site_id
_symmetry_equiv_pos_as_xyz
1 x,y,z
2 -x,1/2+y,1/2-z
3 -x,-y,-z
4 x,1/2-y,1/2+z
_cell_length_a                   15.4399(8)
_cell_length_b                   6.1429(3)
_cell_length_c                   16.7900(8)
_cell_angle_alpha                90
_cell_angle_beta                 115.5990(5)
_cell_angle_gamma                90
_cell_volume                     1436.14
loop_
_atom_site_label
_atom_site_type_symbol
_atom_site_fract_x
_atom_site_fract_y
_atom_site_fract_z
Ce1 Ce 0.346435(9) 0.03223(2) 0.091108(8)
O1 O 0.43105(12) -0.2146(3) 0.21457(10)
O2 O 0.48099(12) -0.3474(3) 0.35096(10)
O3 O 0.26420(12) -0.1092(3) 0.20088(10)
O4 O 0.18306(12) 0.1933(3) 0.08403(10)
O5 O 0.30907(13) 0.4194(3) 0.05170(11)
O6 O 0.22697(12) 0.7300(3) 0.03240(10)
O7 O 0.24700(13) 0.0737(3) -0.07915(11)
O8 O 0.39239(12) 0.1910(3) -0.03469(11)
O9 O 0.28507(14) 0.2615(3) -0.16862(11)
N1 N 0.30822(15) 0.1766(3) -0.09545(13)
C1 C 0.41783(17) -0.2701(4) 0.28121(15)
C2 C 0.31805(17) -0.2464(4) 0.27511(14)
H1 H 0.2870 -0.3909 0.2672
H2 H 0.3209 -0.1805 0.3300
C3 C 0.16881(17) -0.0751(4) 0.17949(15)
C4 C 0.11572(18) -0.1870(4) 0.21498(15)
H3 H 0.1452 -0.2968 0.2582
C5 C 0.01887(18) -0.1379(4) 0.18702(16)
H4 H -0.0177 -0.2159 0.2108
C6 C -0.02457(19) 0.0240(4) 0.12481(17)
H5 H -0.0906 0.0572 0.1063
C7 C 0.02890(17) 0.1375(4) 0.08970(15)
H6 H -0.0005 0.2489 0.0473
C8 C 0.12441(17) 0.0884(4) 0.11641(15)
C9 C 0.15320(17) 0.4078(4) 0.04878(16)
H7 H 0.1302 0.4891 0.0869
H8 H 0.0996 0.3973 -0.0110
C10 C 0.23706(18) 0.5289(4) 0.04415(15)
O10 O 0.42424(14) -0.2534(3) 0.03618(12)
H9 H 0.409(3) -0.387(7) 0.042(2)
H10 H 0.366(3) 0.227(6) 0.260(2)
O11 O 0.38193(15) 0.2548(3) 0.22716(12)
H11 H 0.480(2) -0.257(5) 0.0331(19)
H12 H 0.444(3) 0.273(6) 0.257(2)
Ce1_2 Ce 0.346435(9) 1.03223(2) 0.091108(8)
Ce1A Ce 0.653565(9) -0.46777(2) 0.408892(8)
O2A O 0.51901(12) 0.1526(3) 0.14904(10)
O6_2 O 0.22697(12) -0.2700(3) 0.03240(10)
loop_
_geom_bond_atom_site_label_1
_geom_bond_atom_site_label_2
_geom_bond_site_symmetry_1
_geom_bond_site_symmetry_2
Ce1 O1 1_555 1_555
O1 C1 1_555 1_555
O2 C1 1_555 1_555
O3 Ce1 1_555 1_555
O4 Ce1 1_555 1_555
O5 Ce1 1_555 1_555
O6 C10 1_555 1_555
O7 Ce1 1_555 1_555
O8 Ce1 1_555 1_555
O9 N1 1_555 1_555
N1 O7 1_555 1_555
C1 C2 1_555 1_555
C2 O3 1_555 1_555
H1 C2 1_555 1_555
H2 C2 1_555 1_555
C3 O3 1_555 1_555
C4 C3 1_555 1_555
H3 C4 1_555 1_555
C5 C4 1_555 1_555
H4 C5 1_555 1_555
C6 C5 1_555 1_555
H5 C6 1_555 1_555
C7 C6 1_555 1_555
H6 C7 1_555 1_555
C8 O4 1_555 1_555
C9 O4 1_555 1_555
H7 C9 1_555 1_555
H8 C9 1_555 1_555
C10 O5 1_555 1_555
O10 Ce1 1_555 1_555
H9 O10 1_555 1_555
H10 O11 1_555 1_555
O11 Ce1 1_555 1_555
H11 O10 1_555 1_555
H12 O11 1_555 1_555
Ce1_2 O6 1_555 1_555
Ce1A O2 1_555 1_555
O2A Ce1 1_555 1_555
O6_2 Ce1 1_555 1_555
O8 N1 1_555 1_555
C3 C8 1_555 1_555
C7 C8 1_555 1_555
C9 C10 1_555 1_555

#END
