
#######################################################################
#
#                 Cambridge Crystallographic Data Centre
#                                CCDC 
#
#######################################################################
#
# If this CIF has been generated from an entry in the Cambridge 
# Structural Database, then it will include bibliographic, chemical, 
# crystal, experimental, refinement or atomic coordinate data resulting 
# from the CCDC's data processing and validation procedures.
#
#######################################################################

data_VOWDOC
_symmetry_cell_setting           monoclinic
_symmetry_space_group_name_H-M   'P 21/c'
_symmetry_Int_Tables_number      14
_space_group_name_Hall           '-P 2ybc'
loop_
_symmetry_equiv_pos_site_id
_symmetry_equiv_pos_as_xyz
1 x,y,z
2 -x,1/2+y,1/2-z
3 -x,-y,-z
4 x,1/2-y,1/2+z
_cell_length_a                   14.6317(10)
_cell_length_b                   12.1864(8)
_cell_length_c                   9.0427(6)
_cell_angle_alpha                90
_cell_angle_beta                 100.4127(8)
_cell_angle_gamma                90
_cell_volume                     1585.83
loop_
_atom_site_label
_atom_site_type_symbol
_atom_site_fract_x
_atom_site_fract_y
_atom_site_fract_z
Ce1 Ce 0.181943(16) 1.064017(18) 0.22535(3)
O1 O 0.0945(2) 0.9023(2) 0.1105(3)
O2 O 0.1031(2) 0.7523(3) -0.0268(4)
O3 O 0.2545(2) 0.8664(2) 0.2852(3)
O4 O 0.3117(2) 1.0269(2) 0.4708(3)
O5 O 0.1914(2) 1.1847(2) 0.4468(3)
O6 O 0.2532(2) 1.2613(3) 0.6658(4)
O7 O 0.3594(2) 1.0423(3) 0.1727(4)
O8 O 0.2494(2) 0.9893(3) -0.0055(4)
O9 O 0.3894(2) 1.0157(3) -0.0519(4)
N1 N 0.3354(3) 1.0158(3) 0.0364(4)
C1 C 0.1339(3) 0.8141(4) 0.0808(5)
C2 C 0.2227(3) 0.7784(3) 0.1831(5)
H1 H 0.2110 0.7121 0.2400
H2 H 0.2707 0.7605 0.1225
C3 C 0.3340(3) 0.8459(3) 0.3909(5)
C4 C 0.3818(3) 0.7473(4) 0.4025(5)
H3 H 0.3612 0.6890 0.3348
C5 C 0.4605(3) 0.7340(4) 0.5139(5)
H4 H 0.4936 0.6665 0.5221
C6 C 0.4903(3) 0.8187(4) 0.6121(5)
H5 H 0.5439 0.8091 0.6877
C7 C 0.4427(3) 0.9178(3) 0.6014(5)
H6 H 0.4636 0.9758 0.6693
C8 C 0.3642(3) 0.9315(3) 0.4909(5)
C9 C 0.3287(3) 1.1057(4) 0.5915(5)
H7 H 0.3895 1.1419 0.5936
H8 H 0.3299 1.0685 0.6891
C10 C 0.2514(3) 1.1904(3) 0.5655(5)
O10 O 0.0232(2) 1.1460(3) 0.2429(4)
H9 H -0.015(2) 1.173(4) 0.170(4)
H10 H -0.009(3) 1.100(4) 0.282(6)
O11 O 0.0933(2) 1.1302(3) -0.0314(4)
H11 H 0.0344(3) 1.136(4) -0.046(7)
H12 H 0.113(3) 1.1954(14) -0.038(7)
O12 O 0.1028(2) 0.9698(2) 0.4175(4)
H13 H 0.106(4) 0.9003(4) 0.425(5)
H14 H 0.120(4) 0.993(3) 0.507(2)
Ce1C Ce 0.181943(16) 1.435983(18) 0.72535(3)
O6C O 0.2532(2) 1.2387(3) 0.1658(4)
O13 O 0.1304(3) 1.0060(3) 0.7202(4)
H15 H 0.106(3) 1.056(3) 0.765(6)
H16 H 0.180(3) 0.989(5) 0.781(5)
loop_
_geom_bond_atom_site_label_1
_geom_bond_atom_site_label_2
_geom_bond_site_symmetry_1
_geom_bond_site_symmetry_2
Ce1 O1 1_555 1_555
O1 C1 1_555 1_555
O2 C1 1_555 1_555
O3 Ce1 1_555 1_555
O4 Ce1 1_555 1_555
O5 Ce1 1_555 1_555
O6 C10 1_555 1_555
O7 Ce1 1_555 1_555
O8 Ce1 1_555 1_555
O9 N1 1_555 1_555
N1 O7 1_555 1_555
C1 C2 1_555 1_555
C2 O3 1_555 1_555
H1 C2 1_555 1_555
H2 C2 1_555 1_555
C3 O3 1_555 1_555
C4 C3 1_555 1_555
H3 C4 1_555 1_555
C5 C4 1_555 1_555
H4 C5 1_555 1_555
C6 C5 1_555 1_555
H5 C6 1_555 1_555
C7 C6 1_555 1_555
H6 C7 1_555 1_555
C8 O4 1_555 1_555
C9 O4 1_555 1_555
H7 C9 1_555 1_555
H8 C9 1_555 1_555
C10 O5 1_555 1_555
O10 Ce1 1_555 1_555
H9 O10 1_555 1_555
H10 O10 1_555 1_555
O11 Ce1 1_555 1_555
H11 O11 1_555 1_555
H12 O11 1_555 1_555
O12 Ce1 1_555 1_555
H13 O12 1_555 1_555
H14 O12 1_555 1_555
O13 H15 1_555 1_555
H16 O13 1_555 1_555
Ce1C O6 1_555 1_555
O6C Ce1 1_555 1_555
O8 N1 1_555 1_555
C3 C8 1_555 1_555
C7 C8 1_555 1_555
C9 C10 1_555 1_555

#END
