
#######################################################################
#
#                 Cambridge Crystallographic Data Centre
#                                CCDC 
#
#######################################################################
#
# If this CIF has been generated from an entry in the Cambridge 
# Structural Database, then it will include bibliographic, chemical, 
# crystal, experimental, refinement or atomic coordinate data resulting 
# from the CCDC's data processing and validation procedures.
#
#######################################################################

data_VOWGOD
_symmetry_cell_setting           triclinic
_symmetry_space_group_name_H-M   'P -1'
_symmetry_Int_Tables_number      2
_space_group_name_Hall           '-P 1'
loop_
_symmetry_equiv_pos_site_id
_symmetry_equiv_pos_as_xyz
1 x,y,z
2 -x,-y,-z
_cell_length_a                   12.625(6)
_cell_length_b                   12.385(6)
_cell_length_c                   9.421(5)
_cell_angle_alpha                91.69(4)
_cell_angle_beta                 98.49(4)
_cell_angle_gamma                99.16(5)
_cell_volume                     1436.23
loop_
_atom_site_label
_atom_site_type_symbol
_atom_site_fract_x
_atom_site_fract_y
_atom_site_fract_z
Nd1 Nd 0.0002(1) 0.0127(1) 0.2650(1)
O1 O 0.1678(6) -0.0670(7) 0.3704(10)
O2 O 0.0584(7) -0.1654(7) 0.1854(11)
C1 C 0.1514(11) -0.1457(12) 0.2740(18)
C2 C 0.2356(11) -0.2131(13) 0.2473(26)
C3 C 0.1942(13) -0.3346(14) 0.2294(27)
C4 C 0.2814(16) -0.4014(18) 0.1993(38)
C5 C 0.3898(20) -0.3646(19) 0.2823(45)
C6 C 0.4281(14) -0.2465(18) 0.2964(33)
C7 C 0.3457(15) -0.1747(17) 0.3369(30)
O3 O 0.0554(7) 0.1025(6) 0.5396(10)
O4 O 0.1214(8) 0.1851(7) 0.3644(10)
C8 C 0.1109(9) 0.1845(9) 0.4959(15)
C9 C 0.1594(10) 0.2815(10) 0.5961(16)
C10 C 0.2662(11) 0.3417(13) 0.5558(22)
C11 C 0.3097(14) 0.4437(13) 0.6587(23)
C12 C 0.2253(16) 0.5201(13) 0.6522(26)
C13 C 0.1171(17) 0.4610(13) 0.6875(24)
C14 C 0.0755(12) 0.3590(12) 0.5883(22)
O5 O -0.1578(7) -0.0948(8) 0.1231(10)
O6 O -0.1138(7) -0.0427(8) -0.0816(12)
C15 C -0.1760(8) -0.1007(10) -0.0133(14)
C16 C -0.2703(10) -0.1780(12) -0.0927(17)
C17 C -0.3480(11) -0.1122(14) -0.1787(22)
C18 C -0.4409(14) -0.1903(20) -0.2718(26)
C19 C -0.4996(15) -0.2722(20) -0.1781(33)
C20 C -0.4203(18) -0.3381(18) -0.0927(33)
C21 C -0.3247(14) -0.2618(16) -0.0054(24)
O7 O -0.0607(8) 0.1630(7) 0.1077(11)
C22 C -0.0624(12) 0.2774(11) 0.1450(17)
C23 C 0.0363(13) 0.3503(13) 0.1042(23)
O8 O -0.1576(7) 0.0838(8) 0.3510(10)
C24 C -0.2672(11) 0.0832(14) 0.2721(20)
C25 C -0.3410(14) -0.0136(17) 0.3085(25)
O3A O -0.0554(7) -0.1025(6) 0.4604(10)
O6A O 0.1138(7) 0.0427(8) 0.0816(12)
Nd1A Nd -0.0002(1) -0.0127(1) 0.7350(1)
Nd1A_2 Nd -0.0002(1) -0.0127(1) -0.2650(1)
loop_
_geom_bond_atom_site_label_1
_geom_bond_atom_site_label_2
_geom_bond_site_symmetry_1
_geom_bond_site_symmetry_2
Nd1 O1 1_555 1_555
O1 C1 1_555 1_555
O2 Nd1 1_555 1_555
C1 O2 1_555 1_555
C2 C1 1_555 1_555
C3 C2 1_555 1_555
C4 C3 1_555 1_555
C5 C4 1_555 1_555
C6 C5 1_555 1_555
C7 C2 1_555 1_555
O3 Nd1 1_555 1_555
O4 Nd1 1_555 1_555
C8 O3 1_555 1_555
C9 C8 1_555 1_555
C10 C9 1_555 1_555
C11 C10 1_555 1_555
C12 C11 1_555 1_555
C13 C12 1_555 1_555
C14 C9 1_555 1_555
O5 Nd1 1_555 1_555
O6 C15 1_555 1_555
C15 O5 1_555 1_555
C16 C15 1_555 1_555
C17 C16 1_555 1_555
C18 C17 1_555 1_555
C19 C18 1_555 1_555
C20 C19 1_555 1_555
C21 C16 1_555 1_555
O7 Nd1 1_555 1_555
C22 O7 1_555 1_555
C23 C22 1_555 1_555
O8 Nd1 1_555 1_555
C24 O8 1_555 1_555
C25 C24 1_555 1_555
O3A Nd1 1_555 1_555
O6A Nd1 1_555 1_555
Nd1A O3 1_555 1_555
Nd1A_2 O6 1_555 1_555
C6 C7 1_555 1_555
O4 C8 1_555 1_555
C13 C14 1_555 1_555
C20 C21 1_555 1_555
O3A Nd1A 1_555 1_555

#END
