
#######################################################################
#
#                 Cambridge Crystallographic Data Centre
#                                CCDC 
#
#######################################################################
#
# If this CIF has been generated from an entry in the Cambridge 
# Structural Database, then it will include bibliographic, chemical, 
# crystal, experimental, refinement or atomic coordinate data resulting 
# from the CCDC's data processing and validation procedures.
#
#######################################################################

data_VOWKIB
_symmetry_cell_setting           triclinic
_symmetry_space_group_name_H-M   'P -1'
_symmetry_Int_Tables_number      2
_space_group_name_Hall           '-P 1'
loop_
_symmetry_equiv_pos_site_id
_symmetry_equiv_pos_as_xyz
1 x,y,z
2 -x,-y,-z
_cell_length_a                   5.176(4)
_cell_length_b                   9.451(7)
_cell_length_c                   9.372(6)
_cell_angle_alpha                110.53(5)
_cell_angle_beta                 103.85(3)
_cell_angle_gamma                104.40(5)
_cell_volume                     387.965
loop_
_atom_site_label
_atom_site_type_symbol
_atom_site_fract_x
_atom_site_fract_y
_atom_site_fract_z
Cu1 Cu -1.0000 0.0000 -0.5000
K1 K -0.66283(16) -0.34500(8) -0.47592(9)
O1 O -0.3772(7) 0.2953(3) -0.0062(3)
O2 O -0.8215(5) -0.0811(2) -0.3574(2)
O3 O -0.6597(4) 0.1917(2) -0.3891(2)
O4 O -0.7821(6) -0.5422(3) -0.3180(3)
O5 O -0.1268(7) -0.2927(4) -0.2843(4)
C1 C -0.6168(10) 0.1463(5) -0.0824(5)
C2 C -0.5742(7) 0.0426(3) -0.2330(3)
C3 C -0.4442(7) 0.1701(4) -0.2862(4)
C4 C -0.2718(9) 0.3191(4) -0.1256(4)
H1 H -0.723(8) -0.484(4) -0.228(4)
H2 H -0.734(8) -0.633(4) -0.335(4)
H3 H 0.028(12) -0.186(6) -0.304(6)
H4 H -0.048(9) -0.275(5) -0.206(4)
H5 H -0.439(6) -0.007(3) -0.196(3)
H6 H -0.336(6) 0.145(3) -0.333(3)
H7 H -0.619(7) 0.094(4) -0.002(4)
H8 H -0.759(7) 0.168(4) -0.110(4)
H9 H -0.299(7) 0.416(4) -0.134(3)
H10 H -0.054(9) 0.344(4) -0.085(5)
O1A O -1.6228(7) -0.2953(3) -0.9938(3)
O2A O -1.1785(5) 0.0811(2) -0.6426(2)
O3A O -1.3403(4) -0.1917(2) -0.6109(2)
C1A C -1.3832(10) -0.1463(5) -0.9176(5)
C2A C -1.4258(7) -0.0426(3) -0.7670(3)
C3A C -1.5558(7) -0.1701(4) -0.7138(4)
C4A C -1.7282(9) -0.3191(4) -0.8744(4)
H5A H -1.561(6) 0.007(3) -0.804(3)
H6A H -1.664(6) -0.145(3) -0.667(3)
H7A H -1.381(7) -0.094(4) -0.998(4)
H8A H -1.241(7) -0.168(4) -0.890(4)
H9A H -1.701(7) -0.416(4) -0.866(3)
H10A H -1.946(9) -0.344(4) -0.915(5)
K1A K -1.33717(16) 0.34500(8) -0.52408(9)
O4A O -1.2179(6) -0.4578(3) -0.6820(3)
H1A H -1.277(8) -0.516(4) -0.772(4)
H2A H -1.266(8) -0.367(4) -0.665(4)
O3A_2 O -0.3403(4) -0.1917(2) -0.6109(2)
O5A O -0.8732(7) -0.7073(4) -0.7157(4)
K1A_2 K -0.33717(16) 0.34500(8) -0.52408(9)
K1A_3 K -1.33717(16) -0.65500(8) -0.52408(9)
K1_2 K -1.66283(16) -0.34500(8) -0.47592(9)
O3_2 O -1.6597(4) 0.1917(2) -0.3891(2)
O4_2 O -0.7821(6) 0.4578(3) -0.3180(3)
O4A_2 O -1.2179(6) 0.5422(3) -0.6820(3)
O5_2 O -1.1268(7) 0.7073(4) -0.2843(4)
O5A_2 O -1.8732(7) 0.2927(4) -0.7157(4)
H3A H -1.028(12) -0.814(6) -0.696(6)
H4A H -0.952(9) -0.725(5) -0.794(4)
H1_2 H -0.723(8) 0.516(4) -0.228(4)
H2_2 H -0.734(8) 0.367(4) -0.335(4)
H1A_2 H -1.277(8) 0.484(4) -0.772(4)
H2A_2 H -1.266(8) 0.633(4) -0.665(4)
H3_2 H -0.972(12) 0.814(6) -0.304(6)
H4_2 H -1.048(9) 0.725(5) -0.206(4)
H3A_2 H -2.028(12) 0.186(6) -0.696(6)
H4A_2 H -1.952(9) 0.275(5) -0.794(4)
K1A_4 K -0.33717(16) -0.65500(8) -0.52408(9)
loop_
_geom_bond_atom_site_label_1
_geom_bond_atom_site_label_2
_geom_bond_site_symmetry_1
_geom_bond_site_symmetry_2
Cu1 O2 1_555 1_555
K1 O2 1_555 1_555
O1 C1 1_555 1_555
O2 C2 1_555 1_555
O3 Cu1 1_555 1_555
O4 K1 1_555 1_555
O5 K1 1_555 1_555
C1 C2 1_555 1_555
C2 C3 1_555 1_555
C3 O3 1_555 1_555
C4 O1 1_555 1_555
H1 O4 1_555 1_555
H2 O4 1_555 1_555
H3 O5 1_555 1_555
H4 O5 1_555 1_555
H5 C2 1_555 1_555
H6 C3 1_555 1_555
H7 C1 1_555 1_555
H8 C1 1_555 1_555
H9 C4 1_555 1_555
H10 C4 1_555 1_555
O1A C1A 1_555 1_555
O2A Cu1 1_555 1_555
O3A Cu1 1_555 1_555
C1A C2A 1_555 1_555
C2A O2A 1_555 1_555
C3A O3A 1_555 1_555
C4A O1A 1_555 1_555
H5A C2A 1_555 1_555
H6A C3A 1_555 1_555
H7A C1A 1_555 1_555
H8A C1A 1_555 1_555
H9A C4A 1_555 1_555
H10A C4A 1_555 1_555
K1A O2A 1_555 1_555
O4A K1 1_555 1_555
H1A O4A 1_555 1_555
H2A O4A 1_555 1_555
O3A_2 K1 1_555 1_555
O5A K1 1_555 1_555
K1A_2 O3 1_555 1_555
K1A_3 O4 1_555 1_555
K1_2 O3A 1_555 1_555
O3_2 K1A 1_555 1_555
O4_2 K1A 1_555 1_555
O4A_2 K1A 1_555 1_555
O5_2 K1A 1_555 1_555
O5A_2 K1A 1_555 1_555
H3A O5A 1_555 1_555
H4A O5A 1_555 1_555
H1_2 O4_2 1_555 1_555
H2_2 O4_2 1_555 1_555
H1A_2 O4A_2 1_555 1_555
H2A_2 O4A_2 1_555 1_555
H3_2 O5_2 1_555 1_555
H4_2 O5_2 1_555 1_555
H3A_2 O5A_2 1_555 1_555
H4A_2 O5A_2 1_555 1_555
K1A_4 O5 1_555 1_555
C3 C4 1_555 1_555
C2A C3A 1_555 1_555
C3A C4A 1_555 1_555
O4A K1A_3 1_555 1_555
O5A K1A_4 1_555 1_555

#END
