
#######################################################################
#
#                 Cambridge Crystallographic Data Centre
#                                CCDC 
#
#######################################################################
#
# If this CIF has been generated from an entry in the Cambridge 
# Structural Database, then it will include bibliographic, chemical, 
# crystal, experimental, refinement or atomic coordinate data resulting 
# from the CCDC's data processing and validation procedures.
#
#######################################################################

data_VOWKOH
_symmetry_cell_setting           orthorhombic
_symmetry_space_group_name_H-M   'P 21 21 21'
_symmetry_Int_Tables_number      19
_space_group_name_Hall           'P 2ac 2ab'
loop_
_symmetry_equiv_pos_site_id
_symmetry_equiv_pos_as_xyz
1 x,y,z
2 1/2+x,1/2-y,-z
3 -x,1/2+y,1/2-z
4 1/2-x,-y,1/2+z
_cell_length_a                   8.2221(13)
_cell_length_b                   12.112(2)
_cell_length_c                   22.855(3)
_cell_angle_alpha                90
_cell_angle_beta                 90
_cell_angle_gamma                90
_cell_volume                     2276.04
loop_
_atom_site_label
_atom_site_type_symbol
_atom_site_fract_x
_atom_site_fract_y
_atom_site_fract_z
Cu1 Cu -0.50474(4) -0.38844(2) 0.25157(1)
O1 O -0.2571(3) -0.1362(2) 0.26569(10)
O2 O -0.3548(2) -0.63664(19) 0.17449(9)
O3 O -0.0428(3) -0.5978(2) 0.14498(12)
O4 O -0.7666(3) -0.40787(16) 0.04941(8)
O5 O -0.5786(2) -0.47587(13) 0.18653(7)
O6 O -0.5613(2) -0.25974(12) 0.20591(7)
O7 O -0.3418(3) -0.19061(16) 0.12087(9)
O8 O -0.4912(3) -0.45376(13) 0.05885(7)
O9 O -0.2776(4) -0.38809(18) -0.03348(9)
O10 O -0.2412(3) -0.37659(15) 0.45379(7)
O11 O -0.4358(2) -0.30150(13) 0.31780(7)
O12 O -0.4415(2) -0.51754(12) 0.29540(7)
O13 O -0.1015(2) -0.57054(13) 0.29149(7)
O14 O -0.1125(2) -0.30384(13) 0.37127(7)
O15 O 0.0807(3) -0.29117(16) 0.27065(9)
C1 C -0.6484(4) -0.4587(2) 0.08414(12)
C2 C -0.6561(3) -0.4082(2) 0.14517(11)
C3 C -0.5758(3) -0.29482(19) 0.14679(10)
C4 C -0.4090(3) -0.3006(2) 0.11863(11)
C5 C -0.4238(3) -0.3446(2) 0.05634(10)
C6 C -0.2611(4) -0.3558(3) 0.02623(13)
C7 C -0.8058(7) -0.4683(4) -0.00215(19)
C8 C -0.2614(4) -0.3168(2) 0.40128(11)
C9 C -0.3896(3) -0.3726(2) 0.36412(10)
C10 C -0.3293(3) -0.48094(19) 0.33784(10)
C11 C -0.1621(3) -0.4665(2) 0.30916(11)
C12 C -0.0424(3) -0.4052(2) 0.34829(11)
C13 C 0.1106(3) -0.3685(3) 0.31647(13)
C14 C -0.1524(7) -0.3183(3) 0.49767(18)
Li1 Li -0.4107(5) -0.1345(3) 0.19726(18)
Li2 Li -0.2918(7) -0.6516(4) 0.2607(2)
Li3 Li 0.0251(7) -0.6337(5) 0.2312(2)
Li3B Li -0.0251(7) -0.1337(5) 0.2688(2)
Li1B Li -0.5893(5) -0.6345(3) 0.30274(18)
Li2B Li -0.7082(7) -0.1516(4) 0.2393(2)
Li2B_2 Li 0.2918(7) -0.1516(4) 0.2393(2)
O12B O -0.5585(2) -0.01754(12) 0.20460(7)
O1B O 0.2571(3) -0.6362(2) 0.23431(10)
O15B O -0.0807(3) -0.79117(16) 0.22935(9)
O6B O -0.4387(2) -0.75974(12) 0.29409(7)
O16 O -0.0072(3) -0.1841(2) 0.11838(11)
O17 O -0.0573(3) -0.3782(2) 0.17354(9)
loop_
_geom_bond_atom_site_label_1
_geom_bond_atom_site_label_2
_geom_bond_site_symmetry_1
_geom_bond_site_symmetry_2
Cu1 O5 1_555 1_555
O1 Li1 1_555 1_555
O2 Li2 1_555 1_555
O3 Li3 1_555 1_555
O4 C1 1_555 1_555
O5 C2 1_555 1_555
O6 Cu1 1_555 1_555
O7 C4 1_555 1_555
O8 C1 1_555 1_555
O9 C6 1_555 1_555
O10 C8 1_555 1_555
O11 Cu1 1_555 1_555
O12 Cu1 1_555 1_555
O13 C11 1_555 1_555
O14 C8 1_555 1_555
O15 C13 1_555 1_555
C1 C2 1_555 1_555
C2 C3 1_555 1_555
C3 O6 1_555 1_555
C4 C3 1_555 1_555
C5 O8 1_555 1_555
C6 C5 1_555 1_555
C7 O4 1_555 1_555
C8 C9 1_555 1_555
C9 O11 1_555 1_555
C10 O12 1_555 1_555
C11 C10 1_555 1_555
C12 O14 1_555 1_555
C13 C12 1_555 1_555
C14 O10 1_555 1_555
Li1 O6 1_555 1_555
Li2 O12 1_555 1_555
Li3 O13 1_555 1_555
Li3B O1 1_555 1_555
Li1B O12 1_555 1_555
Li2B O6 1_555 1_555
Li2B_2 O15 1_555 1_555
O12B Li1 1_555 1_555
O1B Li3 1_555 1_555
O15B Li2 1_555 1_555
O6B Li2 1_555 1_555
O7 Li1 1_555 1_555
O13 Li2 1_555 1_555
O15 Li3B 1_555 1_555
C4 C5 1_555 1_555
C9 C10 1_555 1_555
C11 C12 1_555 1_555
Li3 O15B 1_555 1_555
Li1B O6B 1_555 1_555
Li2B O12B 1_555 1_555

#END
