
#######################################################################
#
#                 Cambridge Crystallographic Data Centre
#                                CCDC 
#
#######################################################################
#
# If this CIF has been generated from an entry in the Cambridge 
# Structural Database, then it will include bibliographic, chemical, 
# crystal, experimental, refinement or atomic coordinate data resulting 
# from the CCDC's data processing and validation procedures.
#
#######################################################################

data_VOWMAX
_symmetry_cell_setting           monoclinic
_symmetry_space_group_name_H-M   'P 21/c'
_symmetry_Int_Tables_number      14
_space_group_name_Hall           '-P 2ybc'
loop_
_symmetry_equiv_pos_site_id
_symmetry_equiv_pos_as_xyz
1 x,y,z
2 -x,1/2+y,1/2-z
3 -x,-y,-z
4 x,1/2-y,1/2+z
_cell_length_a                   9.3041(13)
_cell_length_b                   14.216(2)
_cell_length_c                   10.5401(15)
_cell_angle_alpha                90
_cell_angle_beta                 95.487(5)
_cell_angle_gamma                90
_cell_volume                     1387.72
loop_
_atom_site_label
_atom_site_type_symbol
_atom_site_fract_x
_atom_site_fract_y
_atom_site_fract_z
Sm1 Sm 0.624743(12) 0.866759(8) 0.469674(11)
O1 O 1.2529(2) 0.98432(13) 0.5362(2)
O2 O 0.7701(2) 0.66806(14) 0.79234(18)
C1 C 1.1465(3) 0.84047(17) 0.5828(2)
O3 O 0.65121(19) 0.73471(13) 0.62063(18)
O4 O 0.3394(3) 1.07682(15) 0.3166(2)
C2 C 0.3883(3) 1.00647(18) 0.2653(2)
C3 C 1.2750(3) 0.89821(17) 0.5519(2)
O5 O 1.3918(2) 0.85550(14) 0.5478(2)
C4 C 0.7638(3) 0.71504(16) 0.6921(2)
C5 C 0.9040(3) 0.75437(16) 0.6520(2)
N1 N 0.8885(2) 0.82274(14) 0.5642(2)
C6 C 1.0078(3) 0.86663(16) 0.5337(3)
H1 H 0.9977 0.9169 0.4771
C7 C 1.1617(3) 0.76517(18) 0.6656(3)
H2 H 1.2528 0.7431 0.6953
C8 C 1.0380(3) 0.72300(19) 0.7038(3)
H3 H 1.0451 0.6744 0.7631
O6 O 0.5086(2) 0.73750(14) 0.3485(2)
O7 O 0.4810(3) 0.95140(16) 0.3171(2)
C9 C 0.3298(3) 0.98736(17) 0.1308(2)
C10 C 0.2159(3) 1.0396(2) 0.0728(3)
H4 H 0.1732 1.0868 0.1174
C11 C 0.1672(4) 1.0202(2) -0.0519(3)
H5 H 0.0894 1.0529 -0.0926
C12 C 0.2359(5) 0.9516(2) -0.1148(3)
H6 H 0.2045 0.9400 -0.1998
C13 C 0.3446(4) 0.9010(2) -0.0609(3)
H7 H 0.3878 0.8547 -0.1067
N2 N 0.3905(4) 0.9179(2) 0.0603(3)
Sm1_2 Sm 1.624743(12) 0.866759(8) 0.469674(11)
Sm1B Sm 0.375257(12) 1.133241(8) 0.530326(11)
Sm1B_2 Sm 1.375257(12) 1.133241(8) 0.530326(11)
Sm1C Sm 0.624743(12) 0.633241(8) 0.969674(11)
O1B O 0.7471(2) 1.01568(13) 0.4638(2)
O2C O 0.7701(2) 0.83194(14) 0.29234(18)
O4B O 0.6606(3) 0.92318(15) 0.6834(2)
O5_2 O 0.3918(2) 0.85550(14) 0.5478(2)
loop_
_geom_bond_atom_site_label_1
_geom_bond_atom_site_label_2
_geom_bond_site_symmetry_1
_geom_bond_site_symmetry_2
Sm1 O3 1_555 1_555
O1 C3 1_555 1_555
O2 C4 1_555 1_555
C1 C3 1_555 1_555
O3 C4 1_555 1_555
O4 C2 1_555 1_555
C2 O7 1_555 1_555
C3 O5 1_555 1_555
O5 Sm1_2 1_555 1_555
C4 C5 1_555 1_555
C5 N1 1_555 1_555
N1 Sm1 1_555 1_555
C6 C1 1_555 1_555
H1 C6 1_555 1_555
C7 C1 1_555 1_555
H2 C7 1_555 1_555
C8 C5 1_555 1_555
H3 C8 1_555 1_555
O6 Sm1 1_555 1_555
O7 Sm1 1_555 1_555
C9 C2 1_555 1_555
C10 C9 1_555 1_555
H4 C10 1_555 1_555
C11 C10 1_555 1_555
H5 C11 1_555 1_555
C12 C11 1_555 1_555
H6 C12 1_555 1_555
C13 C12 1_555 1_555
H7 C13 1_555 1_555
N2 C9 1_555 1_555
Sm1B O4 1_555 1_555
Sm1B_2 O1 1_555 1_555
Sm1C O2 1_555 1_555
O1B Sm1 1_555 1_555
O2C Sm1 1_555 1_555
O4B Sm1 1_555 1_555
O5_2 Sm1 1_555 1_555
N1 C6 1_555 1_555
C7 C8 1_555 1_555
C13 N2 1_555 1_555

#END
