
#######################################################################
#
#                 Cambridge Crystallographic Data Centre
#                                CCDC 
#
#######################################################################
#
# If this CIF has been generated from an entry in the Cambridge 
# Structural Database, then it will include bibliographic, chemical, 
# crystal, experimental, refinement or atomic coordinate data resulting 
# from the CCDC's data processing and validation procedures.
#
#######################################################################

data_VOWXUC
_symmetry_cell_setting           monoclinic
_symmetry_space_group_name_H-M   'P 21/c'
_symmetry_Int_Tables_number      14
_space_group_name_Hall           '-P 2ybc'
loop_
_symmetry_equiv_pos_site_id
_symmetry_equiv_pos_as_xyz
1 x,y,z
2 -x,1/2+y,1/2-z
3 -x,-y,-z
4 x,1/2-y,1/2+z
_cell_length_a                   12.374(15)
_cell_length_b                   9.454(12)
_cell_length_c                   16.286(15)
_cell_angle_alpha                90
_cell_angle_beta                 117.76(5)
_cell_angle_gamma                90
_cell_volume                     1685.92
loop_
_atom_site_label
_atom_site_type_symbol
_atom_site_fract_x
_atom_site_fract_y
_atom_site_fract_z
C1 C 0.0882(3) 0.2089(4) -0.1063(2)
H1 H 0.0232 0.1451 -0.1458
H2 H 0.0512 0.2927 -0.0958
C2 C 0.1692(3) 0.1368(3) -0.0139(2)
H3 H 0.1221 0.1192 0.0189
H4 H 0.1967 0.0464 -0.0253
C3 C 0.2452(3) 0.3473(3) 0.0862(2)
H5 H 0.2462 0.3183 0.1437
H6 H 0.1634 0.3799 0.0443
C4 C 0.3346(3) 0.4659(3) 0.1053(2)
H7 H 0.3120 0.5461 0.1311
H8 H 0.4158 0.4354 0.1500
C5 C 0.3783(3) 0.1392(3) 0.1148(2)
H9 H 0.4459 0.2018 0.1513
H10 H 0.4058 0.0739 0.0825
C6 C 0.3477(3) 0.0551(3) 0.18053(18)
C7 C 0.3068(3) -0.0840(3) 0.1608(2)
H11 H 0.2990 -0.1277 0.1072
C8 C 0.2782(4) -0.1561(3) 0.2213(2)
H12 H 0.2503 -0.2488 0.2089
C9 C 0.2915(3) -0.0891(3) 0.3009(2)
H13 H 0.2714 -0.1386 0.3413
C10 C 0.3595(3) 0.1131(3) 0.26249(19)
H14 H 0.3882 0.2054 0.2769
N1 N 0.1618(3) 0.2485(3) -0.15250(18)
H15 H 0.1199 0.3116 -0.1977
H16 H 0.1747 0.1713 -0.1790
N2 N 0.2764(2) 0.2254(2) 0.04453(15)
N3 N 0.3344(3) 0.5077(3) 0.01719(19)
H17 H 0.4025 0.5573 0.0302
H18 H 0.2697 0.5640 -0.0155
N4 N 0.3319(2) 0.0437(3) 0.32255(16)
Cl1 Cl 0.49938(7) 0.21007(8) -0.02764(6)
Zn1 Zn 0.32620(3) 0.33422(3) -0.06160(2)
N4C N 0.3319(2) 0.4563(3) -0.17745(16)
Zn1C Zn 0.32620(3) 0.16578(3) 0.43840(2)
O1 O 0.0392(3) 0.6052(4) 0.8538(3)
O2 O 0.1742(3) 0.7875(4) 0.9140(4)
O3 O -0.0361(3) 0.8278(3) 0.8598(2)
O4 O 0.0805(4) 0.7068(6) 0.9957(3)
Cl2 Cl 0.06246(8) 0.73313(11) 0.90317(6)
O5 O 0.2871(5) 0.9800(4) 0.8231(3)
loop_
_geom_bond_atom_site_label_1
_geom_bond_atom_site_label_2
_geom_bond_site_symmetry_1
_geom_bond_site_symmetry_2
C1 H1 1_555 1_555
H2 C1 1_555 1_555
C2 C1 1_555 1_555
H3 C2 1_555 1_555
H4 C2 1_555 1_555
C3 H5 1_555 1_555
H6 C3 1_555 1_555
C4 C3 1_555 1_555
H7 C4 1_555 1_555
H8 C4 1_555 1_555
C5 H9 1_555 1_555
H10 C5 1_555 1_555
C6 C5 1_555 1_555
C7 C6 1_555 1_555
H11 C7 1_555 1_555
C8 C7 1_555 1_555
H12 C8 1_555 1_555
C9 C8 1_555 1_555
H13 C9 1_555 1_555
C10 C6 1_555 1_555
H14 C10 1_555 1_555
N1 C1 1_555 1_555
H15 N1 1_555 1_555
H16 N1 1_555 1_555
N2 C2 1_555 1_555
N3 C4 1_555 1_555
H17 N3 1_555 1_555
H18 N3 1_555 1_555
N4 C9 1_555 1_555
Cl1 Zn1 1_555 1_555
Zn1 N1 1_555 1_555
O1 Cl2 1_555 1_555
O2 Cl2 1_555 1_555
O3 Cl2 1_555 1_555
O4 Cl2 1_555 1_555
N4C Zn1 1_555 1_555
Zn1C N4 1_555 1_555
C3 N2 1_555 1_555
C5 N2 1_555 1_555
C10 N4 1_555 1_555
N2 Zn1 1_555 1_555
N3 Zn1 1_555 1_555

#END
