
#######################################################################
#
#                 Cambridge Crystallographic Data Centre
#                                CCDC 
#
#######################################################################
#
# If this CIF has been generated from an entry in the Cambridge 
# Structural Database, then it will include bibliographic, chemical, 
# crystal, experimental, refinement or atomic coordinate data resulting 
# from the CCDC's data processing and validation procedures.
#
#######################################################################

data_VOWYIR
_symmetry_cell_setting           orthorhombic
_symmetry_space_group_name_H-M   'P c a 21'
_symmetry_Int_Tables_number      29
_space_group_name_Hall           'P 2c -2ac'
loop_
_symmetry_equiv_pos_site_id
_symmetry_equiv_pos_as_xyz
1 x,y,z
2 -x,-y,1/2+z
3 1/2-x,y,1/2+z
4 1/2+x,-y,z
_cell_length_a                   16.408(3)
_cell_length_b                   9.2370(18)
_cell_length_c                   23.627(5)
_cell_angle_alpha                90
_cell_angle_beta                 90
_cell_angle_gamma                90
_cell_volume                     3580.92
loop_
_atom_site_label
_atom_site_type_symbol
_atom_site_fract_x
_atom_site_fract_y
_atom_site_fract_z
C1 C 0.2001(3) 0.7332(7) 0.9073(4)
H1 H 0.1972 0.6971 0.8688
H2 H 0.1573 0.8046 0.9123
C2 C 0.1875(4) 0.6110(7) 0.9479(3)
H3 H 0.1924 0.6469 0.9863
H4 H 0.1329 0.5726 0.9432
C3 C 0.2664(4) 0.4162(7) 0.9931(3)
H5 H 0.2997 0.3320 0.9848
H6 H 0.2159 0.3824 1.0099
C4 C 0.3104(5) 0.5102(8) 1.0352(4)
H7 H 0.2749 0.5887 1.0468
H8 H 0.3235 0.4534 1.0685
C5 C 0.2215(3) 0.3904(6) 0.8948(3)
H9 H 0.2669 0.3270 0.8861
H10 H 0.2086 0.4442 0.8607
C6 C 0.1485(3) 0.2978(6) 0.9103(3)
C7 C 0.1577(4) 0.1649(7) 0.9380(3)
H11 H 0.2094 0.1280 0.9452
C8 C 0.0896(4) 0.0899(7) 0.9545(3)
H12 H 0.0948 0.0004 0.9721
C9 C 0.0139(4) 0.1470(7) 0.9448(3)
H13 H -0.0316 0.0966 0.9575
C10 C 0.0701(3) 0.3452(7) 0.9006(3)
H14 H 0.0628 0.4318 0.8812
N1 N 0.2809(3) 0.8019(5) 0.9170(3)
H15 H 0.2820 0.8470 0.9508
H16 H 0.2918 0.8671 0.8897
N2 N 0.2476(3) 0.4938(5) 0.9388(2)
N3 N 0.3859(4) 0.5707(10) 1.0114(3)
H17 H 0.4272 0.5089 1.0179
H18 H 0.3975 0.6545 1.0291
N4 N 0.0031(3) 0.2718(5) 0.9179(3)
O1 O 0.4491(3) 0.3769(4) 0.9092(2)
H19 H 0.4568 0.3366 0.8773
H20 H 0.4663 0.3367 0.9393
Cl1 Cl 0.36676(11) 0.5902(3) 0.80873(10)
Cd1 Cd 0.37589(2) 0.61289(5) 0.914863(18)
N4C N 0.5031(3) 0.7282(5) 0.9179(3)
Cd1C Cd -0.12411(2) 0.38711(5) 0.914863(18)
C11 C 0.4345(4) 1.0270(9) 0.6342(3)
H21 H 0.4686 1.1078 0.6229
H22 H 0.4221 0.9708 0.6006
C12 C 0.4813(4) 0.9325(7) 0.6760(3)
H23 H 0.4499 0.8454 0.6832
H24 H 0.5323 0.9034 0.6587
C13 C 0.5585(3) 1.1217(6) 0.7249(3)
H25 H 0.5550 1.1638 0.6873
H26 H 0.6130 1.0831 0.7296
C14 C 0.5439(4) 1.2384(7) 0.7685(3)
H27 H 0.5447 1.1967 0.8062
H28 H 0.5867 1.3108 0.7663
C15 C 0.5232(3) 0.8958(6) 0.7747(3)
H29 H 0.4769 0.8341 0.7831
H30 H 0.5366 0.9487 0.8089
C16 C 0.5950(3) 0.8012(6) 0.7588(3)
C17 C 0.5845(4) 0.6709(7) 0.7314(3)
H31 H 0.5324 0.6366 0.7237
C18 C 0.6526(4) 0.5914(7) 0.7155(3)
H32 H 0.6466 0.5028 0.6972
C19 C 0.7279(4) 0.6443(7) 0.7268(3)
H33 H 0.7731 0.5913 0.7152
C20 C 0.6747(3) 0.8435(6) 0.7700(3)
H34 H 0.6826 0.9291 0.7899
N5 N 0.3586(4) 1.0825(9) 0.6583(3)
H35 H 0.3180 1.0196 0.6511
H36 H 0.3460 1.1671 0.6416
N6 N 0.4987(3) 1.0026(5) 0.7296(2)
N7 N 0.4637(3) 1.3065(5) 0.7576(3)
H37 H 0.4640 1.3530 0.7241
H38 H 0.4516 1.3707 0.7850
N8 N 0.7401(3) 0.7702(5) 0.7541(3)
O2 O 0.2975(3) 0.8815(4) 0.7595(3)
H39 H 0.2896 0.8392 0.7909
H40 H 0.2812 0.8425 0.7289
Cl2 Cl 0.37535(10) 1.0867(3) 0.86241(10)
Cd2 Cd 0.36857(2) 1.11814(5) 0.756635(17)
N8C N 0.2401(3) 1.2298(5) 0.7541(3)
Cd2C Cd 0.86857(2) 0.88186(5) 0.756635(17)
O3 O 0.2539(5) 0.7286(6) 0.6643(3)
H41 H 0.2933 0.6813 0.6500
H42 H 0.2163 0.7733 0.6468
O4 O 0.0025(4) 0.2349(6) 0.5062(3)
H43 H -0.0324 0.2654 0.5301
H44 H 0.0435 0.2541 0.5269
O5 O 0.1416(6) 1.0434(11) 0.5132(4)
O6 O 0.1845(5) 1.0827(11) 0.6078(4)
O7 O 0.1307(5) 0.8684(8) 0.5808(4)
O8 O 0.2548(5) 0.9326(8) 0.5462(3)
Cl3 Cl 0.17838(12) 0.9868(2) 0.56312(11)
O9 O 0.3597(5) 0.4228(11) 0.6284(4)
O10 O 0.4346(4) 0.4286(10) 0.5482(3)
O11 O 0.4976(5) 0.4411(11) 0.6339(4)
O12 O 0.4179(8) 0.6301(8) 0.6014(5)
Cl4 Cl 0.42690(12) 0.4824(2) 0.60440(10)
loop_
_geom_bond_atom_site_label_1
_geom_bond_atom_site_label_2
_geom_bond_site_symmetry_1
_geom_bond_site_symmetry_2
C1 H1 1_555 1_555
H2 C1 1_555 1_555
C2 C1 1_555 1_555
H3 C2 1_555 1_555
H4 C2 1_555 1_555
C3 H5 1_555 1_555
H6 C3 1_555 1_555
C4 C3 1_555 1_555
H7 C4 1_555 1_555
H8 C4 1_555 1_555
C5 H9 1_555 1_555
H10 C5 1_555 1_555
C6 C5 1_555 1_555
C7 C6 1_555 1_555
H11 C7 1_555 1_555
C8 C7 1_555 1_555
H12 C8 1_555 1_555
C9 C8 1_555 1_555
H13 C9 1_555 1_555
C10 C6 1_555 1_555
H14 C10 1_555 1_555
N1 C1 1_555 1_555
H15 N1 1_555 1_555
H16 N1 1_555 1_555
N2 C2 1_555 1_555
N3 C4 1_555 1_555
H17 N3 1_555 1_555
H18 N3 1_555 1_555
N4 C9 1_555 1_555
O1 H19 1_555 1_555
H20 O1 1_555 1_555
Cl1 Cd1 1_555 1_555
Cd1 N1 1_555 1_555
C11 H21 1_555 1_555
H22 C11 1_555 1_555
C12 C11 1_555 1_555
H23 C12 1_555 1_555
H24 C12 1_555 1_555
C13 H25 1_555 1_555
H26 C13 1_555 1_555
C14 C13 1_555 1_555
H27 C14 1_555 1_555
H28 C14 1_555 1_555
C15 H29 1_555 1_555
H30 C15 1_555 1_555
C16 C15 1_555 1_555
C17 C16 1_555 1_555
H31 C17 1_555 1_555
C18 C17 1_555 1_555
H32 C18 1_555 1_555
C19 C18 1_555 1_555
H33 C19 1_555 1_555
C20 C16 1_555 1_555
H34 C20 1_555 1_555
N5 C11 1_555 1_555
H35 N5 1_555 1_555
H36 N5 1_555 1_555
N6 C12 1_555 1_555
N7 C14 1_555 1_555
H37 N7 1_555 1_555
H38 N7 1_555 1_555
N8 C19 1_555 1_555
O2 H39 1_555 1_555
H40 O2 1_555 1_555
Cl2 Cd2 1_555 1_555
Cd2 N5 1_555 1_555
O3 H41 1_555 1_555
H42 O3 1_555 1_555
O4 H43 1_555 1_555
H44 O4 1_555 1_555
O5 Cl3 1_555 1_555
O6 Cl3 1_555 1_555
O7 Cl3 1_555 1_555
O8 Cl3 1_555 1_555
O9 Cl4 1_555 1_555
O10 Cl4 1_555 1_555
O11 Cl4 1_555 1_555
O12 Cl4 1_555 1_555
N4C Cd1 1_555 1_555
Cd1C N4 1_555 1_555
N8C Cd2 1_555 1_555
Cd2C N8 1_555 1_555
C3 N2 1_555 1_555
C5 N2 1_555 1_555
C10 N4 1_555 1_555
N2 Cd1 1_555 1_555
N3 Cd1 1_555 1_555
O1 Cd1 1_555 1_555
C13 N6 1_555 1_555
C15 N6 1_555 1_555
C20 N8 1_555 1_555
N6 Cd2 1_555 1_555
N7 Cd2 1_555 1_555
O2 Cd2 1_555 1_555

#END
