
#######################################################################
#
#                 Cambridge Crystallographic Data Centre
#                                CCDC 
#
#######################################################################
#
# If this CIF has been generated from an entry in the Cambridge 
# Structural Database, then it will include bibliographic, chemical, 
# crystal, experimental, refinement or atomic coordinate data resulting 
# from the CCDC's data processing and validation procedures.
#
#######################################################################

data_VOWYAJ
_symmetry_cell_setting           orthorhombic
_symmetry_space_group_name_H-M   'P b c a'
_symmetry_Int_Tables_number      61
_space_group_name_Hall           '-P 2ac 2ab'
loop_
_symmetry_equiv_pos_site_id
_symmetry_equiv_pos_as_xyz
1 x,y,z
2 1/2-x,-y,1/2+z
3 -x,1/2+y,1/2-z
4 1/2+x,1/2-y,-z
5 -x,-y,-z
6 1/2+x,y,1/2-z
7 x,1/2-y,1/2+z
8 1/2-x,1/2+y,z
_cell_length_a                   10.1178(12)
_cell_length_b                   16.4130(19)
_cell_length_c                   21.150(2)
_cell_angle_alpha                90
_cell_angle_beta                 90
_cell_angle_gamma                90
_cell_volume                     3512.24
loop_
_atom_site_label
_atom_site_type_symbol
_atom_site_fract_x
_atom_site_fract_y
_atom_site_fract_z
C1 C 0.1933(4) 0.7636(2) 0.09785(17)
H1 H 0.1649 0.7079 0.1048
H2 H 0.1152 0.7972 0.0924
C2 C 0.2716(4) 0.7933(2) 0.15441(16)
H3 H 0.2143 0.7953 0.1912
H4 H 0.3424 0.7551 0.1632
C3 C 0.2284(3) 0.9416(2) 0.14745(15)
H5 H 0.2209 0.9596 0.1910
H6 H 0.1430 0.9210 0.1342
C4 C 0.2666(4) 1.0121(2) 0.10655(16)
H7 H 0.2000 1.0545 0.1093
H8 H 0.3502 1.0346 0.1207
C5 C 0.4462(3) 0.8917(2) 0.18274(15)
H9 H 0.4880 0.9413 0.1679
H10 H 0.5088 0.8476 0.1772
C6 C 0.4165(3) 0.90072(19) 0.25286(15)
C7 C 0.3970(3) 0.8343(2) 0.29234(16)
H11 H 0.4044 0.7816 0.2764
C8 C 0.3667(4) 0.8465(2) 0.35529(17)
H12 H 0.3531 0.8025 0.3823
C9 C 0.3571(3) 0.9258(2) 0.37728(16)
H13 H 0.3361 0.9340 0.4196
C10 C 0.4053(3) 0.9773(2) 0.27920(15)
H14 H 0.4184 1.0223 0.2532
N1 N 0.2767(3) 0.76794(18) 0.04025(13)
H15 H 0.2256 0.7622 0.0057
H16 H 0.3357 0.7269 0.0406
N2 N 0.3287(3) 0.87531(16) 0.14313(13)
N3 N 0.2784(3) 0.98365(18) 0.04108(13)
H17 H 0.3232 1.0208 0.0183
H18 H 0.1972 0.9786 0.0241
N4 N 0.3763(3) 0.99060(17) 0.34097(13)
Cl1 Cl 0.59191(9) 0.86375(6) 0.03811(4)
Cl2 Cl 0.36249(10) 0.88414(7) -0.09035(5)
Cl3 Cl 0.01811(10) 0.88543(6) -0.03666(4)
Cl4 Cl 0.10447(12) 0.81219(7) -0.20503(5)
Zn1 Zn 0.37278(4) 0.87537(3) 0.03627(2)
Zn2 Zn 0.14934(4) 0.89322(2) -0.123923(19)
N4A N 0.1237(3) 1.00940(17) -0.15903(13)
Zn2A Zn 0.35066(4) 1.10678(2) 0.376077(19)
loop_
_geom_bond_atom_site_label_1
_geom_bond_atom_site_label_2
_geom_bond_site_symmetry_1
_geom_bond_site_symmetry_2
C1 H1 1_555 1_555
H2 C1 1_555 1_555
C2 C1 1_555 1_555
H3 C2 1_555 1_555
H4 C2 1_555 1_555
C3 H5 1_555 1_555
H6 C3 1_555 1_555
C4 C3 1_555 1_555
H7 C4 1_555 1_555
H8 C4 1_555 1_555
C5 H9 1_555 1_555
H10 C5 1_555 1_555
C6 C5 1_555 1_555
C7 C6 1_555 1_555
H11 C7 1_555 1_555
C8 C7 1_555 1_555
H12 C8 1_555 1_555
C9 C8 1_555 1_555
H13 C9 1_555 1_555
C10 C6 1_555 1_555
H14 C10 1_555 1_555
N1 C1 1_555 1_555
H15 N1 1_555 1_555
H16 N1 1_555 1_555
N2 C2 1_555 1_555
N3 C4 1_555 1_555
H17 N3 1_555 1_555
H18 N3 1_555 1_555
N4 C9 1_555 1_555
Cl1 Zn1 1_555 1_555
Cl2 Zn1 1_555 1_555
Cl3 Zn2 1_555 1_555
Cl4 Zn2 1_555 1_555
Zn1 N1 1_555 1_555
Zn2 Cl2 1_555 1_555
N4A Zn2 1_555 1_555
Zn2A N4 1_555 1_555
C3 N2 1_555 1_555
C5 N2 1_555 1_555
C10 N4 1_555 1_555
N2 Zn1 1_555 1_555
N3 Zn1 1_555 1_555

#END
