
#######################################################################
#
#                 Cambridge Crystallographic Data Centre
#                                CCDC 
#
#######################################################################
#
# If this CIF has been generated from an entry in the Cambridge 
# Structural Database, then it will include bibliographic, chemical, 
# crystal, experimental, refinement or atomic coordinate data resulting 
# from the CCDC's data processing and validation procedures.
#
#######################################################################

data_VOXFIZ
_symmetry_cell_setting           triclinic
_symmetry_space_group_name_H-M   'P -1'
_symmetry_Int_Tables_number      2
_space_group_name_Hall           '-P 1'
loop_
_symmetry_equiv_pos_site_id
_symmetry_equiv_pos_as_xyz
1 x,y,z
2 -x,-y,-z
_cell_length_a                   9.466(4)
_cell_length_b                   10.433(5)
_cell_length_c                   12.168(5)
_cell_angle_alpha                80.732(5)
_cell_angle_beta                 67.809(5)
_cell_angle_gamma                66.655(4)
_cell_volume                     1021.51
loop_
_atom_site_label
_atom_site_type_symbol
_atom_site_fract_x
_atom_site_fract_y
_atom_site_fract_z
Pr1 Pr 0.72013(5) 0.04268(4) -0.01757(4)
C1 C 0.3939(14) 0.0949(12) 0.4474(10)
H1 H 0.3228 0.1603 0.4120
C2 C 0.6591(14) -0.0772(13) 0.4298(10)
H2 H 0.7662 -0.1281 0.3836
C3 C 0.5521(12) 0.0159(10) 0.3770(9)
C4 C 0.6104(12) 0.0306(10) 0.2434(8)
C5 C 0.8849(11) 0.2342(9) 0.0690(8)
C6 C 0.8536(10) 0.3785(8) 0.1025(8)
C7 C 0.7332(10) 0.4920(8) 0.0767(9)
H3 H 0.6676 0.4791 0.0420
C8 C 0.5764(10) 0.7469(9) 0.0714(9)
C9 C 0.7083(10) 0.6269(8) 0.1021(8)
C10 C 0.8082(12) 0.6443(8) 0.1511(9)
H4 H 0.7945 0.7339 0.1661
C11 C 0.9566(10) 0.3966(9) 0.1514(8)
H5 H 1.0417 0.3201 0.1654
C12 C 0.9299(11) 0.5300(9) 0.1788(9)
C13 C 1.1443(13) 0.4462(10) 0.2600(11)
H6 H 1.2277 0.3956 0.1896
H7 H 1.0969 0.3825 0.3133
C14 C 1.2195(12) 0.5042(10) 0.3206(9)
C15 C 1.3879(13) 0.4552(12) 0.2928(11)
H8 H 1.4572 0.3860 0.2364
C16 C 1.4503(16) 0.5101(15) 0.3495(12)
H9 H 1.5627 0.4779 0.3335
C17 C 1.1233(14) 0.6061(12) 0.4054(10)
H10 H 1.0102 0.6388 0.4246
C18 C 1.3451(16) 0.6134(15) 0.4305(12)
H11 H 1.3893 0.6531 0.4660
N1 N 1.1824(14) 0.6600(11) 0.4609(10)
O1 O 0.7575(8) -0.0351(6) 0.1837(6)
O2 O 0.5072(8) 0.1091(7) 0.1946(6)
O3 O 0.7477(9) -0.0474(9) -0.2053(6)
O4 O 0.9250(9) 0.1267(8) -0.1948(7)
O5 O 0.7739(8) 0.2187(6) 0.0486(7)
O6 O 1.0202(8) 0.1384(7) 0.0634(7)
O7 O 0.4557(9) 0.7277(6) 0.0709(8)
O8 O 0.5898(8) 0.8661(6) 0.0471(6)
O9 O 1.0210(9) 0.5600(6) 0.2285(7)
C1A C 0.6061(14) -0.0949(12) 0.5526(10)
H1A H 0.6772 -0.1603 0.5880
C2A C 0.3409(14) 0.0772(13) 0.5702(10)
H2A H 0.2338 0.1281 0.6164
C3A C 0.4479(12) -0.0159(10) 0.6230(9)
C4A C 0.3896(12) -0.0306(10) 0.7566(8)
O1A O 0.2425(8) 0.0351(6) 0.8163(6)
O2A O 0.4928(8) -0.1091(7) 0.8054(6)
Pr1A Pr 0.27987(5) -0.04268(4) 1.01757(4)
C5A C 0.1151(11) -0.2342(9) 0.9310(8)
C6A C 0.1464(10) -0.3785(8) 0.8975(8)
C7A C 0.2668(10) -0.4920(8) 0.9233(9)
H3A H 0.3324 -0.4791 0.9580
C8A C 0.4236(10) -0.7469(9) 0.9286(9)
C9A C 0.2917(10) -0.6269(8) 0.8979(8)
C10A C 0.1918(12) -0.6443(8) 0.8489(9)
H4A H 0.2055 -0.7339 0.8339
C11A C 0.0434(10) -0.3966(9) 0.8486(8)
H5A H -0.0417 -0.3201 0.8346
C12A C 0.0701(11) -0.5300(9) 0.8212(9)
C13A C -0.1443(13) -0.4462(10) 0.7400(11)
H6A H -0.2277 -0.3956 0.8104
H7A H -0.0969 -0.3825 0.6867
C14A C -0.2195(12) -0.5042(10) 0.6794(9)
C15A C -0.3879(13) -0.4552(12) 0.7072(11)
H8A H -0.4572 -0.3860 0.7636
C16A C -0.4503(16) -0.5101(15) 0.6505(12)
H9A H -0.5627 -0.4779 0.6665
C17A C -0.1233(14) -0.6061(12) 0.5946(10)
H10A H -0.0102 -0.6388 0.5754
C18A C -0.3451(16) -0.6134(15) 0.5695(12)
H11A H -0.3893 -0.6531 0.5340
N1A N -0.1824(14) -0.6600(11) 0.5391(10)
O3A O 0.2523(9) 0.0474(9) 1.2053(6)
O4A O 0.0750(9) -0.1267(8) 1.1948(7)
O5A O 0.2261(8) -0.2187(6) 0.9514(7)
O6A O -0.0202(8) -0.1384(7) 0.9366(7)
O7A O 0.5443(9) -0.7277(6) 0.9291(8)
O8A O 0.4102(8) -0.8661(6) 0.9529(6)
O9A O -0.0210(9) -0.5600(6) 0.7715(7)
Pr1_2 Pr -0.27987(5) 0.04268(4) 0.98243(4)
Pr1_3 Pr 0.72013(5) -0.95732(4) 0.98243(4)
Pr1_4 Pr 0.72013(5) 1.04268(4) -0.01757(4)
Pr1A_2 Pr 0.27987(5) -1.04268(4) 1.01757(4)
Pr1A_3 Pr 0.27987(5) 0.95732(4) 0.01757(4)
Pr1A_4 Pr 1.27987(5) -0.04268(4) 0.01757(4)
O6_2 O 0.0202(8) 0.1384(7) 1.0634(7)
O6A_2 O 0.9798(8) -0.1384(7) -0.0634(7)
O7_2 O 0.4557(9) -0.2723(6) 1.0709(8)
O7A_2 O 0.5443(9) 0.2723(6) -0.0709(8)
O8_2 O 0.5898(8) -0.1339(6) 0.0471(6)
O8_3 O 0.5898(8) -0.1339(6) 1.0471(6)
O8A_2 O 0.4102(8) 0.1339(6) -0.0471(6)
O8A_3 O 0.4102(8) 0.1339(6) 0.9529(6)
O10 O 0.9850(16) 0.1007(13) 0.4036(11)
loop_
_geom_bond_atom_site_label_1
_geom_bond_atom_site_label_2
_geom_bond_site_symmetry_1
_geom_bond_site_symmetry_2
Pr1 O1 1_555 1_555
C1 H1 1_555 1_555
C2 H2 1_555 1_555
C3 C1 1_555 1_555
C4 C3 1_555 1_555
C5 C6 1_555 1_555
C6 C7 1_555 1_555
C7 H3 1_555 1_555
C8 C9 1_555 1_555
C9 C7 1_555 1_555
C10 C9 1_555 1_555
H4 C10 1_555 1_555
C11 C6 1_555 1_555
H5 C11 1_555 1_555
C12 C10 1_555 1_555
C13 H6 1_555 1_555
H7 C13 1_555 1_555
C14 C13 1_555 1_555
C15 C14 1_555 1_555
H8 C15 1_555 1_555
C16 C15 1_555 1_555
H9 C16 1_555 1_555
C17 C14 1_555 1_555
H10 C17 1_555 1_555
C18 C16 1_555 1_555
H11 C18 1_555 1_555
N1 C17 1_555 1_555
O1 C4 1_555 1_555
O2 Pr1 1_555 1_555
O3 Pr1 1_555 1_555
O4 Pr1 1_555 1_555
O5 Pr1 1_555 1_555
O6 C5 1_555 1_555
O7 C8 1_555 1_555
O8 C8 1_555 1_555
O9 C12 1_555 1_555
C1A C2 1_555 1_555
H1A C1A 1_555 1_555
C2A C1 1_555 1_555
H2A C2A 1_555 1_555
C3A C1A 1_555 1_555
C4A C3A 1_555 1_555
O1A C4A 1_555 1_555
O2A C4A 1_555 1_555
Pr1A O1A 1_555 1_555
C5A C6A 1_555 1_555
C6A C7A 1_555 1_555
C7A H3A 1_555 1_555
C8A C9A 1_555 1_555
C9A C7A 1_555 1_555
C10A C9A 1_555 1_555
H4A C10A 1_555 1_555
C11A C6A 1_555 1_555
H5A C11A 1_555 1_555
C12A C10A 1_555 1_555
C13A H6A 1_555 1_555
H7A C13A 1_555 1_555
C14A C13A 1_555 1_555
C15A C14A 1_555 1_555
H8A C15A 1_555 1_555
C16A C15A 1_555 1_555
H9A C16A 1_555 1_555
C17A C14A 1_555 1_555
H10A C17A 1_555 1_555
C18A C16A 1_555 1_555
H11A C18A 1_555 1_555
N1A C17A 1_555 1_555
O3A Pr1A 1_555 1_555
O4A Pr1A 1_555 1_555
O5A Pr1A 1_555 1_555
O6A C5A 1_555 1_555
O7A C8A 1_555 1_555
O8A C8A 1_555 1_555
O9A C12A 1_555 1_555
Pr1_2 O6A 1_555 1_555
Pr1_3 O7A 1_555 1_555
Pr1_4 O8 1_555 1_555
Pr1A_2 O8A 1_555 1_555
Pr1A_3 O7 1_555 1_555
Pr1A_4 O6 1_555 1_555
O6_2 Pr1A 1_555 1_555
O6A_2 Pr1 1_555 1_555
O7_2 Pr1A 1_555 1_555
O7A_2 Pr1 1_555 1_555
O8_2 Pr1 1_555 1_555
O8_3 Pr1A 1_555 1_555
O8A_2 Pr1 1_555 1_555
O8A_3 Pr1A 1_555 1_555
C2 C3 1_555 1_555
C4 O2 1_555 1_555
C5 O5 1_555 1_555
C11 C12 1_555 1_555
C13 O9 1_555 1_555
C18 N1 1_555 1_555
O8 Pr1A_3 1_555 1_555
C2A C3A 1_555 1_555
O2A Pr1A 1_555 1_555
C5A O5A 1_555 1_555
C11A C12A 1_555 1_555
C13A O9A 1_555 1_555
C18A N1A 1_555 1_555
O8A Pr1_3 1_555 1_555

#END
