
#######################################################################
#
#                 Cambridge Crystallographic Data Centre
#                                CCDC 
#
#######################################################################
#
# If this CIF has been generated from an entry in the Cambridge 
# Structural Database, then it will include bibliographic, chemical, 
# crystal, experimental, refinement or atomic coordinate data resulting 
# from the CCDC's data processing and validation procedures.
#
#######################################################################

data_VOXFOF
_symmetry_cell_setting           triclinic
_symmetry_space_group_name_H-M   'P -1'
_symmetry_Int_Tables_number      2
_space_group_name_Hall           '-P 1'
loop_
_symmetry_equiv_pos_site_id
_symmetry_equiv_pos_as_xyz
1 x,y,z
2 -x,-y,-z
_cell_length_a                   9.4300(17)
_cell_length_b                   10.4068(18)
_cell_length_c                   12.135(2)
_cell_angle_alpha                80.654(2)
_cell_angle_beta                 67.734(2)
_cell_angle_gamma                66.565(2)
_cell_volume                     1011.08
loop_
_atom_site_label
_atom_site_type_symbol
_atom_site_fract_x
_atom_site_fract_y
_atom_site_fract_z
O1 O -0.0452(4) 1.2292(3) 0.0698(3)
Nd1 Nd 0.78008(2) 0.457495(18) 0.016761(17)
C1 C 0.8438(8) 1.1142(7) 0.4320(5)
H1 H 0.8865 1.1534 0.4695
C2 C 0.6837(6) 1.1600(5) 0.4603(4)
H2 H 0.6143 1.2292 0.5170
C3 C 0.6235(7) 1.1049(6) 0.4058(5)
H3 H 0.5097 1.1369 0.4263
C4 C 0.8889(6) 0.9538(6) 0.2923(4)
H4 H 0.9582 0.8840 0.2362
C5 C 0.7198(6) 1.0027(5) 0.3205(4)
C6 C 0.6453(6) 0.9441(5) 0.2605(4)
H5 H 0.6744 0.8501 0.2469
C7 C 0.4301(5) 1.0286(4) 0.1784(4)
C8 C 0.3084(5) 1.1446(4) 0.1515(4)
H6 H 0.2939 1.2343 0.1676
C9 C 0.4549(5) 0.8955(4) 0.1529(4)
H7 H 0.5376 0.8186 0.1701
C10 C 0.0770(5) 1.2471(4) 0.0709(3)
C11 C 0.2093(4) 1.1261(4) 0.1008(3)
C12 C 0.2313(4) 0.9908(4) 0.0771(3)
H8 H 0.1626 0.9776 0.0452
C13 C 0.3561(4) 0.8766(4) 0.1015(3)
C14 C 0.3851(5) 0.7332(4) 0.0692(3)
C15 C 0.8909(5) 0.4683(4) -0.2435(3)
C16 C 1.1065(6) 0.4068(6) -0.4454(4)
H9 H 1.1790 0.3442 -0.4093
C17 C 0.9472(5) 0.4836(4) -0.3763(4)
C18 C 0.8410(6) 0.5778(6) -0.4319(4)
H10 H 0.7338 0.6309 -0.3863
N1 N 0.9536(7) 1.0101(7) 0.3488(5)
O2 O 0.0903(3) 1.3665(3) 0.0464(2)
O3 O 0.5220(4) 1.0595(3) 0.2287(3)
O4 O 0.5205(3) 0.6370(3) 0.0628(3)
O5 O 0.2723(4) 0.7185(3) 0.0497(3)
O6 O 0.9924(3) 0.3913(3) -0.1938(2)
O7 O 0.7418(3) 0.5348(3) -0.1835(2)
O8 O 0.5771(4) 0.3716(4) 0.1926(3)
O9 O 0.7522(4) 0.5442(4) 0.2041(3)
C15A C 1.1091(5) 0.5317(4) -0.7565(3)
C16A C 0.8935(6) 0.5932(6) -0.5546(4)
H9A H 0.8210 0.6558 -0.5907
C17A C 1.0528(5) 0.5164(4) -0.6237(4)
C18A C 1.1590(6) 0.4222(6) -0.5681(4)
H10A H 1.2662 0.3691 -0.6137
O6A O 1.0076(3) 0.6087(3) -0.8062(2)
O7A O 1.2582(3) 0.4652(3) -0.8165(2)
O1A O 1.0452(4) -0.2292(3) -0.0698(3)
Nd1A Nd 0.21992(2) 0.542505(18) -0.016761(17)
C1A C 0.1562(8) -0.1142(7) -0.4320(5)
H1A H 0.1135 -0.1534 -0.4695
C2A C 0.3163(6) -0.1600(5) -0.4603(4)
H2A H 0.3857 -0.2292 -0.5170
C3A C 0.3765(7) -0.1049(6) -0.4058(5)
H3A H 0.4903 -0.1369 -0.4263
C4A C 0.1111(6) 0.0462(6) -0.2923(4)
H4A H 0.0418 0.1160 -0.2362
C5A C 0.2802(6) -0.0027(5) -0.3205(4)
C6A C 0.3547(6) 0.0559(5) -0.2605(4)
H5A H 0.3256 0.1499 -0.2469
C7A C 0.5699(5) -0.0286(4) -0.1784(4)
C8A C 0.6916(5) -0.1446(4) -0.1515(4)
H6A H 0.7061 -0.2343 -0.1676
C9A C 0.5451(5) 0.1045(4) -0.1529(4)
H7A H 0.4624 0.1814 -0.1701
C10A C 0.9230(5) -0.2471(4) -0.0709(3)
C11A C 0.7907(4) -0.1261(4) -0.1008(3)
C12A C 0.7687(4) 0.0092(4) -0.0771(3)
H8A H 0.8374 0.0224 -0.0452
C13A C 0.6439(4) 0.1234(4) -0.1015(3)
C14A C 0.6149(5) 0.2668(4) -0.0692(3)
N1A N 0.0464(7) -0.0101(7) -0.3488(5)
O2A O 0.9097(3) -0.3665(3) -0.0464(2)
O3A O 0.4780(4) -0.0595(3) -0.2287(3)
O4A O 0.4795(3) 0.3630(3) -0.0628(3)
O5A O 0.7277(4) 0.2815(3) -0.0497(3)
O8A O 0.4229(4) 0.6284(4) -0.1926(3)
O9A O 0.2478(4) 0.4558(4) -0.2041(3)
O1_2 O 0.9548(4) 0.2292(3) 0.0698(3)
O1A_2 O 0.0452(4) 0.7708(3) -0.0698(3)
Nd1_2 Nd -0.21992(2) 1.457495(18) 0.016761(17)
Nd1_3 Nd 0.78008(2) -0.542505(18) 0.016761(17)
Nd1A_2 Nd 0.21992(2) 1.542505(18) -0.016761(17)
Nd1A_3 Nd 1.21992(2) -0.457495(18) -0.016761(17)
Nd1A_4 Nd 1.21992(2) 0.542505(18) -1.016761(17)
O2_2 O 0.0903(3) 0.3665(3) 0.0464(2)
O2_3 O 1.0903(3) 0.3665(3) 0.0464(2)
O2A_2 O -0.0903(3) 0.6335(3) -0.0464(2)
O2A_3 O 0.9097(3) 0.6335(3) -0.0464(2)
O6A_2 O 0.0076(3) 0.6087(3) 0.1938(2)
O7A_2 O 0.2582(3) 0.4652(3) 0.1835(2)
O10 O 0.4847(7) 0.6003(6) 0.4034(5)
loop_
_geom_bond_atom_site_label_1
_geom_bond_atom_site_label_2
_geom_bond_site_symmetry_1
_geom_bond_site_symmetry_2
O1 C10 1_555 1_555
Nd1 O4 1_555 1_555
C1 H1 1_555 1_555
C2 C1 1_555 1_555
H2 C2 1_555 1_555
C3 C2 1_555 1_555
H3 C3 1_555 1_555
C4 H4 1_555 1_555
C5 C3 1_555 1_555
C6 C5 1_555 1_555
H5 C6 1_555 1_555
C7 C8 1_555 1_555
C8 H6 1_555 1_555
C9 C7 1_555 1_555
H7 C9 1_555 1_555
C10 C11 1_555 1_555
C11 C8 1_555 1_555
C12 C11 1_555 1_555
H8 C12 1_555 1_555
C13 C9 1_555 1_555
C14 C13 1_555 1_555
C15 C17 1_555 1_555
C16 H9 1_555 1_555
C17 C16 1_555 1_555
C18 C17 1_555 1_555
H10 C18 1_555 1_555
N1 C1 1_555 1_555
O2 C10 1_555 1_555
O3 C6 1_555 1_555
O4 C14 1_555 1_555
O5 C14 1_555 1_555
O6 Nd1 1_555 1_555
O7 Nd1 1_555 1_555
O8 Nd1 1_555 1_555
O9 Nd1 1_555 1_555
C15A C17A 1_555 1_555
C16A C18 1_555 1_555
H9A C16A 1_555 1_555
C17A C16A 1_555 1_555
C18A C16 1_555 1_555
H10A C18A 1_555 1_555
O6A C15A 1_555 1_555
O7A C15A 1_555 1_555
O1A C10A 1_555 1_555
Nd1A O5 1_555 1_555
C1A H1A 1_555 1_555
C2A C1A 1_555 1_555
H2A C2A 1_555 1_555
C3A C2A 1_555 1_555
H3A C3A 1_555 1_555
C4A H4A 1_555 1_555
C5A C3A 1_555 1_555
C6A C5A 1_555 1_555
H5A C6A 1_555 1_555
C7A C8A 1_555 1_555
C8A H6A 1_555 1_555
C9A C7A 1_555 1_555
H7A C9A 1_555 1_555
C10A C11A 1_555 1_555
C11A C8A 1_555 1_555
C12A C11A 1_555 1_555
H8A C12A 1_555 1_555
C13A C9A 1_555 1_555
C14A C13A 1_555 1_555
N1A C1A 1_555 1_555
O2A C10A 1_555 1_555
O3A C6A 1_555 1_555
O4A Nd1A 1_555 1_555
O5A Nd1 1_555 1_555
O8A Nd1A 1_555 1_555
O9A Nd1A 1_555 1_555
O1_2 Nd1 1_555 1_555
O1A_2 Nd1A 1_555 1_555
Nd1_2 O1 1_555 1_555
Nd1_3 O2A 1_555 1_555
Nd1A_2 O2 1_555 1_555
Nd1A_3 O1A 1_555 1_555
Nd1A_4 O6A 1_555 1_555
O2_2 Nd1A 1_555 1_555
O2_3 Nd1 1_555 1_555
O2A_2 Nd1A 1_555 1_555
O2A_3 Nd1 1_555 1_555
O6A_2 Nd1A 1_555 1_555
O7A_2 Nd1A 1_555 1_555
C4 C5 1_555 1_555
C4 N1 1_555 1_555
C7 O3 1_555 1_555
C12 C13 1_555 1_555
C15 O6 1_555 1_555
C15 O7 1_555 1_555
O2 Nd1_2 1_555 1_555
C17A C18A 1_555 1_555
O7A Nd1A_4 1_555 1_555
C4A C5A 1_555 1_555
C4A N1A 1_555 1_555
C7A O3A 1_555 1_555
C12A C13A 1_555 1_555
C14A O4A 1_555 1_555
C14A O5A 1_555 1_555
O2A Nd1A_3 1_555 1_555

#END
