
#######################################################################
#
#                 Cambridge Crystallographic Data Centre
#                                CCDC 
#
#######################################################################
#
# If this CIF has been generated from an entry in the Cambridge 
# Structural Database, then it will include bibliographic, chemical, 
# crystal, experimental, refinement or atomic coordinate data resulting 
# from the CCDC's data processing and validation procedures.
#
#######################################################################

data_VOXGEW
_symmetry_cell_setting           triclinic
_symmetry_space_group_name_H-M   'P -1'
_symmetry_Int_Tables_number      2
_space_group_name_Hall           '-P 1'
loop_
_symmetry_equiv_pos_site_id
_symmetry_equiv_pos_as_xyz
1 x,y,z
2 -x,-y,-z
_cell_length_a                   9.4555(17)
_cell_length_b                   10.4055(18)
_cell_length_c                   12.061(2)
_cell_angle_alpha                81.445(2)
_cell_angle_beta                 67.804(2)
_cell_angle_gamma                65.777(2)
_cell_volume                     1001.97
loop_
_atom_site_label
_atom_site_type_symbol
_atom_site_fract_x
_atom_site_fract_y
_atom_site_fract_z
C1 C 0.0894(6) 1.2550(5) 0.5663(5)
O1 O 0.1102(5) 1.3690(4) 0.5450(4)
O2 O -0.0354(5) 1.2446(4) 0.5601(4)
Gd1 Gd 0.22572(3) 0.54202(2) 0.48616(2)
C2 C 0.1136(6) 0.5322(5) 0.7429(5)
C3 C 0.0556(7) 0.5164(6) 0.8753(5)
C4 C 0.1632(8) 0.4266(8) 0.9311(6)
H1 H 0.2734 0.3767 0.8855
C5 C -0.1083(8) 0.5898(8) 0.9457(6)
H2 H -0.1822 0.6508 0.9096
C6 C 0.3816(6) 0.7330(5) 0.5710(5)
C7 C 0.3540(6) 0.8768(5) 0.6035(5)
C8 C 0.2318(6) 0.9940(5) 0.5771(5)
H3 H 0.1626 0.9830 0.5445
C9 C 0.2140(6) 1.1285(5) 0.6002(4)
C10 C 0.3139(6) 1.1439(5) 0.6520(5)
H4 H 0.3013 1.2334 0.6681
C11 C 0.4553(6) 0.8925(5) 0.6554(5)
H5 H 0.5369 0.8138 0.6731
C12 C 0.4330(7) 1.0254(5) 0.6800(5)
C13 C 0.6500(8) 0.9386(6) 0.7623(6)
H6 H 0.7348 0.8851 0.6914
H7 H 0.6020 0.8766 0.8165
C14 C 0.7231(7) 0.9990(6) 0.8221(5)
C15 C 0.6233(8) 1.1026(7) 0.9078(6)
H8 H 0.5092 1.1336 0.9286
C16 C 0.8450(10) 1.1158(9) 0.9319(7)
H9 H 0.8874 1.1567 0.9684
C17 C 0.9550(10) 1.0111(9) 0.8484(7)
H10 H 1.0685 0.9808 0.8304
C18 C 0.8926(8) 0.9518(7) 0.7916(6)
H11 H 0.9638 0.8814 0.7340
N1 N 0.6817(9) 1.1620(7) 0.9634(6)
O3 O 0.0114(5) 0.6079(4) 0.6925(3)
O4 O 0.2646(5) 0.4683(4) 0.6828(3)
O5 O 0.2414(5) 0.4594(5) 0.3032(4)
O6 O 0.4141(5) 0.6274(5) 0.3099(4)
O7 O 0.2661(5) 0.7218(4) 0.5509(4)
O8 O 0.5163(5) 0.6329(4) 0.5643(4)
O9 O 0.5257(5) 1.0547(4) 0.7305(4)
C2A C -0.1136(6) 0.4678(5) 1.2571(5)
C3A C -0.0556(7) 0.4836(6) 1.1247(5)
C4A C -0.1632(8) 0.5734(8) 1.0689(6)
H1A H -0.2734 0.6233 1.1145
C5A C 0.1083(8) 0.4102(8) 1.0543(6)
H2A H 0.1822 0.3492 1.0904
O3A O -0.0114(5) 0.3921(4) 1.3075(3)
O4A O -0.2646(5) 0.5317(4) 1.3172(3)
C1A C -0.0894(6) -0.2550(5) 1.4337(5)
O1A O -0.1102(5) -0.3690(4) 1.4550(4)
O2A O 0.0354(5) -0.2446(4) 1.4399(4)
Gd1A Gd -0.22572(3) 0.45798(2) 1.51384(2)
C6A C -0.3816(6) 0.2670(5) 1.4290(5)
C7A C -0.3540(6) 0.1232(5) 1.3965(5)
C8A C -0.2318(6) 0.0060(5) 1.4229(5)
H3A H -0.1626 0.0170 1.4555
C9A C -0.2140(6) -0.1285(5) 1.3998(4)
C10A C -0.3139(6) -0.1439(5) 1.3480(5)
H4A H -0.3013 -0.2334 1.3319
C11A C -0.4553(6) 0.1075(5) 1.3446(5)
H5A H -0.5369 0.1862 1.3269
C12A C -0.4330(7) -0.0254(5) 1.3200(5)
C13A C -0.6500(8) 0.0614(6) 1.2377(6)
H6A H -0.7348 0.1149 1.3086
H7A H -0.6020 0.1234 1.1835
C14A C -0.7231(7) 0.0010(6) 1.1779(5)
C15A C -0.6233(8) -0.1026(7) 1.0922(6)
H8A H -0.5092 -0.1336 1.0714
C16A C -0.8450(10) -0.1158(9) 1.0681(7)
H9A H -0.8874 -0.1567 1.0316
C17A C -0.9550(10) -0.0111(9) 1.1516(7)
H10A H -1.0685 0.0192 1.1696
C18A C -0.8926(8) 0.0482(7) 1.2084(6)
H11A H -0.9638 0.1186 1.2660
N1A N -0.6817(9) -0.1620(7) 1.0366(6)
O5A O -0.2414(5) 0.5406(5) 1.6968(4)
O6A O -0.4141(5) 0.3726(5) 1.6901(4)
O7A O -0.2661(5) 0.2782(4) 1.4491(4)
O8A O -0.5163(5) 0.3671(4) 1.4357(4)
O9A O -0.5257(5) -0.0547(4) 1.2695(4)
O1_2 O 0.1102(5) 0.3690(4) 0.5450(4)
O1A_2 O -0.1102(5) 0.6310(4) 1.4550(4)
O2_2 O -0.0354(5) 0.2446(4) 1.5601(4)
O2A_2 O 0.0354(5) 0.7554(4) 0.4399(4)
Gd1_2 Gd -0.77428(3) 0.54202(2) 1.48616(2)
Gd1_3 Gd 0.22572(3) -0.45798(2) 1.48616(2)
Gd1_4 Gd 0.22572(3) 1.54202(2) 0.48616(2)
Gd1A_2 Gd -0.22572(3) -0.54202(2) 1.51384(2)
Gd1A_3 Gd -0.22572(3) 1.45798(2) 0.51384(2)
Gd1A_4 Gd 0.77428(3) 0.45798(2) 0.51384(2)
O8_2 O -0.4837(5) 0.6329(4) 1.5643(4)
O8A_2 O 0.4837(5) 0.3671(4) 0.4357(4)
O10 O 0.4921(9) 0.5958(8) 0.9013(6)
loop_
_geom_bond_atom_site_label_1
_geom_bond_atom_site_label_2
_geom_bond_site_symmetry_1
_geom_bond_site_symmetry_2
C1 O1 1_555 1_555
O1 Gd1_4 1_555 1_555
O2 C1 1_555 1_555
Gd1 O3 1_555 1_555
C2 C3 1_555 1_555
C3 C4 1_555 1_555
C4 H1 1_555 1_555
C5 C3 1_555 1_555
H2 C5 1_555 1_555
C6 C7 1_555 1_555
C7 C8 1_555 1_555
C8 H3 1_555 1_555
C9 C1 1_555 1_555
C10 C9 1_555 1_555
H4 C10 1_555 1_555
C11 C7 1_555 1_555
H5 C11 1_555 1_555
C12 C10 1_555 1_555
C13 H6 1_555 1_555
H7 C13 1_555 1_555
C14 C13 1_555 1_555
C15 C14 1_555 1_555
H8 C15 1_555 1_555
C16 H9 1_555 1_555
C17 C16 1_555 1_555
H10 C17 1_555 1_555
C18 C14 1_555 1_555
H11 C18 1_555 1_555
N1 C15 1_555 1_555
O3 C2 1_555 1_555
O4 Gd1 1_555 1_555
O5 Gd1 1_555 1_555
O6 Gd1 1_555 1_555
O7 Gd1 1_555 1_555
O8 C6 1_555 1_555
O9 C12 1_555 1_555
C2A C3A 1_555 1_555
C3A C4A 1_555 1_555
C4A C5 1_555 1_555
H1A C4A 1_555 1_555
C5A C4 1_555 1_555
H2A C5A 1_555 1_555
O3A C2A 1_555 1_555
O4A C2A 1_555 1_555
C1A O1A 1_555 1_555
O1A Gd1A_2 1_555 1_555
O2A C1A 1_555 1_555
Gd1A O3A 1_555 1_555
C6A C7A 1_555 1_555
C7A C8A 1_555 1_555
C8A H3A 1_555 1_555
C9A C1A 1_555 1_555
C10A C9A 1_555 1_555
H4A C10A 1_555 1_555
C11A C7A 1_555 1_555
H5A C11A 1_555 1_555
C12A C10A 1_555 1_555
C13A H6A 1_555 1_555
H7A C13A 1_555 1_555
C14A C13A 1_555 1_555
C15A C14A 1_555 1_555
H8A C15A 1_555 1_555
C16A H9A 1_555 1_555
C17A C16A 1_555 1_555
H10A C17A 1_555 1_555
C18A C14A 1_555 1_555
H11A C18A 1_555 1_555
N1A C15A 1_555 1_555
O5A Gd1A 1_555 1_555
O6A Gd1A 1_555 1_555
O7A Gd1A 1_555 1_555
O8A C6A 1_555 1_555
O9A C12A 1_555 1_555
O1_2 Gd1 1_555 1_555
O1A_2 Gd1A 1_555 1_555
O2_2 Gd1A 1_555 1_555
O2A_2 Gd1 1_555 1_555
Gd1_2 O8A 1_555 1_555
Gd1_3 O2A 1_555 1_555
Gd1A_3 O2 1_555 1_555
Gd1A_4 O8 1_555 1_555
O8_2 Gd1A 1_555 1_555
O8A_2 Gd1 1_555 1_555
C2 O4 1_555 1_555
C6 O7 1_555 1_555
C8 C9 1_555 1_555
C11 C12 1_555 1_555
C13 O9 1_555 1_555
C16 N1 1_555 1_555
C17 C18 1_555 1_555
C3A C5A 1_555 1_555
O4A Gd1A 1_555 1_555
C6A O7A 1_555 1_555
C8A C9A 1_555 1_555
C11A C12A 1_555 1_555
C13A O9A 1_555 1_555
C16A N1A 1_555 1_555
C17A C18A 1_555 1_555

#END
