
#######################################################################
#
#                 Cambridge Crystallographic Data Centre
#                                CCDC 
#
#######################################################################
#
# If this CIF has been generated from an entry in the Cambridge 
# Structural Database, then it will include bibliographic, chemical, 
# crystal, experimental, refinement or atomic coordinate data resulting 
# from the CCDC's data processing and validation procedures.
#
#######################################################################

data_VOXGOG
_symmetry_cell_setting           triclinic
_symmetry_space_group_name_H-M   'P -1'
_symmetry_Int_Tables_number      2
_space_group_name_Hall           '-P 1'
loop_
_symmetry_equiv_pos_site_id
_symmetry_equiv_pos_as_xyz
1 x,y,z
2 -x,-y,-z
_cell_length_a                   9.4251(8)
_cell_length_b                   10.4036(8)
_cell_length_c                   12.1384(10)
_cell_angle_alpha                80.6320(10)
_cell_angle_beta                 67.7200(10)
_cell_angle_gamma                66.5780(10)
_cell_volume                     1010.52
loop_
_atom_site_label
_atom_site_type_symbol
_atom_site_fract_x
_atom_site_fract_y
_atom_site_fract_z
O1 O 0.5904(4) 0.8667(3) 0.5459(3)
O2 O 0.4544(4) 0.7295(3) 0.5694(4)
Dy1 Dy 0.71993(2) 0.04248(2) 0.483270(18)
C1 C 0.3937(7) 0.0934(7) 0.9452(5)
H1 H 0.3211 0.1563 0.9091
C2 C 0.5528(6) 0.0162(5) 0.8758(4)
C3 C 0.6590(7) -0.0776(7) 0.9313(5)
H2 H 0.7663 -0.1304 0.8856
C4 C 0.6095(6) 0.0312(5) 0.7439(4)
C5 C 0.8846(5) 0.2327(4) 0.5697(4)
C6 C 0.8554(5) 0.3768(4) 0.6013(4)
C7 C 0.7312(5) 0.4916(4) 0.5769(4)
H3 H 0.6628 0.4789 0.5444
C8 C 0.5776(5) 0.7474(4) 0.5703(4)
C9 C 0.7091(5) 0.6261(4) 0.6011(4)
C10 C 0.9559(5) 0.3945(5) 0.6526(4)
H4 H 1.0392 0.3175 0.6691
C11 C 0.8085(6) 0.6446(4) 0.6515(4)
H5 H 0.7942 0.7344 0.6670
C12 C 0.9296(6) 0.5293(5) 0.6788(4)
C13 C 1.1453(7) 0.4436(5) 0.7611(5)
H6 H 1.2291 0.3914 0.6911
H7 H 1.0960 0.3811 0.8154
C14 C 1.2198(7) 0.5023(6) 0.8202(5)
C15 C 1.1239(8) 0.6036(7) 0.9053(6)
H8 H 1.0100 0.6348 0.9261
C16 C 1.1840(8) 0.6600(7) 0.9598(5)
H9 H 1.1149 0.7294 1.0163
C17 C 1.3459(9) 0.6130(8) 0.9301(6)
H10 H 1.3896 0.6525 0.9665
C18 C 1.3889(7) 0.4542(7) 0.7919(5)
H11 H 1.4582 0.3853 0.7349
N1 N 1.4542(9) 0.5087(8) 0.8485(6)
O3 O 1.0224(5) 0.5594(4) 0.7281(4)
O4 O 1.0207(4) 0.1371(3) 0.5626(3)
O5 O 0.7721(5) 0.2187(3) 0.5496(4)
O6 O 0.9230(5) 0.1283(4) 0.3074(4)
O7 O 0.7479(5) -0.0442(5) 0.2959(3)
O8 O 0.5075(4) 0.1081(4) 0.6942(3)
O9 O 0.7578(4) -0.0354(3) 0.6840(3)
C1A C 0.6063(7) -0.0934(7) 1.0548(5)
H1A H 0.6789 -0.1563 1.0909
C2A C 0.4472(6) -0.0162(5) 1.1242(4)
C3A C 0.3410(7) 0.0776(7) 1.0687(5)
H2A H 0.2337 0.1304 1.1144
C4A C 0.3905(6) -0.0312(5) 1.2561(4)
O8A O 0.4925(4) -0.1081(4) 1.3058(3)
O9A O 0.2422(4) 0.0354(3) 1.3160(3)
O1A O 0.4096(4) -0.8667(3) 1.4541(3)
O2A O 0.5456(4) -0.7295(3) 1.4306(4)
Dy1A Dy 0.28007(2) -0.04248(2) 1.516730(18)
C5A C 0.1154(5) -0.2327(4) 1.4303(4)
C6A C 0.1446(5) -0.3768(4) 1.3987(4)
C7A C 0.2688(5) -0.4916(4) 1.4231(4)
H3A H 0.3372 -0.4789 1.4556
C8A C 0.4224(5) -0.7474(4) 1.4297(4)
C9A C 0.2909(5) -0.6261(4) 1.3989(4)
C10A C 0.0441(5) -0.3945(5) 1.3474(4)
H4A H -0.0392 -0.3175 1.3309
C11A C 0.1915(6) -0.6446(4) 1.3485(4)
H5A H 0.2058 -0.7344 1.3330
C12A C 0.0704(6) -0.5293(5) 1.3212(4)
C13A C -0.1453(7) -0.4436(5) 1.2389(5)
H6A H -0.2291 -0.3914 1.3089
H7A H -0.0960 -0.3811 1.1846
C14A C -0.2198(7) -0.5023(6) 1.1798(5)
C15A C -0.1239(8) -0.6036(7) 1.0947(6)
H8A H -0.0100 -0.6348 1.0739
C16A C -0.1840(8) -0.6600(7) 1.0402(5)
H9A H -0.1149 -0.7294 0.9837
C17A C -0.3459(9) -0.6130(8) 1.0699(6)
H10A H -0.3896 -0.6525 1.0335
C18A C -0.3889(7) -0.4542(7) 1.2081(5)
H11A H -0.4582 -0.3853 1.2651
N1A N -0.4542(9) -0.5087(8) 1.1515(6)
O3A O -0.0224(5) -0.5594(4) 1.2719(4)
O4A O -0.0207(4) -0.1371(3) 1.4374(3)
O5A O 0.2279(5) -0.2187(3) 1.4504(4)
O6A O 0.0770(5) -0.1283(4) 1.6926(4)
O7A O 0.2521(5) 0.0442(5) 1.7041(3)
O1_2 O 0.5904(4) -0.1333(3) 0.5459(3)
O1_3 O 0.5904(4) -0.1333(3) 1.5459(3)
O1A_2 O 0.4096(4) 0.1333(3) 0.4541(3)
O1A_3 O 0.4096(4) 0.1333(3) 1.4541(3)
O2_2 O 0.4544(4) -0.2705(3) 1.5694(4)
O2A_2 O 0.5456(4) 0.2705(3) 0.4306(4)
Dy1_2 Dy -0.28007(2) 0.04248(2) 1.483270(18)
Dy1_3 Dy 0.71993(2) -0.95752(2) 1.483270(18)
Dy1_4 Dy 0.71993(2) 1.04248(2) 0.483270(18)
Dy1A_2 Dy 0.28007(2) -1.04248(2) 1.516730(18)
Dy1A_3 Dy 0.28007(2) 0.95752(2) 0.516730(18)
Dy1A_4 Dy 1.28007(2) -0.04248(2) 0.516730(18)
O4_2 O 0.0207(4) 0.1371(3) 1.5626(3)
O4A_2 O 0.9793(4) -0.1371(3) 0.4374(3)
O10 O 0.0162(9) 0.8999(8) 0.0960(6)
loop_
_geom_bond_atom_site_label_1
_geom_bond_atom_site_label_2
_geom_bond_site_symmetry_1
_geom_bond_site_symmetry_2
O1 C8 1_555 1_555
O2 C8 1_555 1_555
Dy1 O5 1_555 1_555
C1 H1 1_555 1_555
C2 C1 1_555 1_555
C3 C2 1_555 1_555
H2 C3 1_555 1_555
C4 C2 1_555 1_555
C5 C6 1_555 1_555
C6 C7 1_555 1_555
C7 H3 1_555 1_555
C8 C9 1_555 1_555
C9 C7 1_555 1_555
C10 C6 1_555 1_555
H4 C10 1_555 1_555
C11 C9 1_555 1_555
H5 C11 1_555 1_555
C12 C10 1_555 1_555
C13 H6 1_555 1_555
H7 C13 1_555 1_555
C14 C13 1_555 1_555
C15 C14 1_555 1_555
H8 C15 1_555 1_555
C16 C15 1_555 1_555
H9 C16 1_555 1_555
C17 C16 1_555 1_555
H10 C17 1_555 1_555
C18 C14 1_555 1_555
H11 C18 1_555 1_555
N1 C17 1_555 1_555
O3 C12 1_555 1_555
O4 C5 1_555 1_555
O5 C5 1_555 1_555
O6 Dy1 1_555 1_555
O7 Dy1 1_555 1_555
O8 Dy1 1_555 1_555
O9 Dy1 1_555 1_555
C1A C3 1_555 1_555
H1A C1A 1_555 1_555
C2A C1A 1_555 1_555
C3A C1 1_555 1_555
H2A C3A 1_555 1_555
C4A C2A 1_555 1_555
O8A C4A 1_555 1_555
O9A C4A 1_555 1_555
O1A C8A 1_555 1_555
O2A C8A 1_555 1_555
Dy1A O8A 1_555 1_555
C5A C6A 1_555 1_555
C6A C7A 1_555 1_555
C7A H3A 1_555 1_555
C8A C9A 1_555 1_555
C9A C7A 1_555 1_555
C10A C6A 1_555 1_555
H4A C10A 1_555 1_555
C11A C9A 1_555 1_555
H5A C11A 1_555 1_555
C12A C10A 1_555 1_555
C13A H6A 1_555 1_555
H7A C13A 1_555 1_555
C14A C13A 1_555 1_555
C15A C14A 1_555 1_555
H8A C15A 1_555 1_555
C16A C15A 1_555 1_555
H9A C16A 1_555 1_555
C17A C16A 1_555 1_555
H10A C17A 1_555 1_555
C18A C14A 1_555 1_555
H11A C18A 1_555 1_555
N1A C17A 1_555 1_555
O3A C12A 1_555 1_555
O4A C5A 1_555 1_555
O5A Dy1A 1_555 1_555
O6A Dy1A 1_555 1_555
O7A Dy1A 1_555 1_555
O1_2 Dy1 1_555 1_555
O1_3 Dy1A 1_555 1_555
O1A_2 Dy1 1_555 1_555
O1A_3 Dy1A 1_555 1_555
O2_2 Dy1A 1_555 1_555
O2A_2 Dy1 1_555 1_555
Dy1_2 O4A 1_555 1_555
Dy1_3 O1A 1_555 1_555
Dy1_4 O1 1_555 1_555
Dy1A_2 O1A 1_555 1_555
Dy1A_3 O1 1_555 1_555
Dy1A_4 O4 1_555 1_555
O4_2 Dy1A 1_555 1_555
O4A_2 Dy1 1_555 1_555
O2 Dy1A_3 1_555 1_555
C4 O8 1_555 1_555
C4 O9 1_555 1_555
C11 C12 1_555 1_555
C13 O3 1_555 1_555
C18 N1 1_555 1_555
C2A C3A 1_555 1_555
O9A Dy1A 1_555 1_555
O2A Dy1_3 1_555 1_555
C5A O5A 1_555 1_555
C11A C12A 1_555 1_555
C13A O3A 1_555 1_555
C18A N1A 1_555 1_555

#END
