
#######################################################################
#
#                 Cambridge Crystallographic Data Centre
#                                CCDC 
#
#######################################################################
#
# If this CIF has been generated from an entry in the Cambridge 
# Structural Database, then it will include bibliographic, chemical, 
# crystal, experimental, refinement or atomic coordinate data resulting 
# from the CCDC's data processing and validation procedures.
#
#######################################################################

data_VOXGIA
_symmetry_cell_setting           triclinic
_symmetry_space_group_name_H-M   'P -1'
_symmetry_Int_Tables_number      2
_space_group_name_Hall           '-P 1'
loop_
_symmetry_equiv_pos_site_id
_symmetry_equiv_pos_as_xyz
1 x,y,z
2 -x,-y,-z
_cell_length_a                   9.462(2)
_cell_length_b                   10.410(2)
_cell_length_c                   12.034(3)
_cell_angle_alpha                81.793(2)
_cell_angle_beta                 67.965(2)
_cell_angle_gamma                65.482(2)
_cell_volume                     999.567
loop_
_atom_site_label
_atom_site_type_symbol
_atom_site_fract_x
_atom_site_fract_y
_atom_site_fract_z
O1 O 0.2363(4) 0.7757(3) 0.9495(3)
Tb1 Tb 0.27150(2) -0.041856(17) 1.012804(15)
C1 C -0.3439(8) 0.3836(7) 0.5672(6)
H1 H -0.3857 0.3420 0.5307
C2 C -0.4537(7) 0.4868(7) 0.6511(5)
H2 H -0.5672 0.5162 0.6692
C3 C -0.1225(6) 0.3978(6) 0.5902(5)
H3 H -0.0083 0.3672 0.5691
C4 C -0.3945(6) 0.5476(6) 0.7092(5)
H4 H -0.4670 0.6172 0.7679
C5 C -0.2241(6) 0.5018(5) 0.6773(4)
C6 C -0.1512(6) 0.5624(5) 0.7376(5)
H5 H -0.1034 0.6240 0.6835
H6 H -0.2362 0.6164 0.8087
C7 C 0.0664(5) 0.4745(4) 0.8186(4)
C8 C 0.0463(5) 0.6076(4) 0.8440(4)
H7 H -0.0344 0.6873 0.8260
C9 C 0.1215(5) 0.7655(4) 0.9293(3)
C10 C 0.1473(5) 0.6219(4) 0.8966(3)
C11 C 0.2679(5) 0.5036(4) 0.9234(3)
H8 H 0.3370 0.5136 0.9567
C12 C 0.1841(5) 0.3557(4) 0.8484(4)
H9 H 0.1950 0.2662 0.8336
C13 C 0.2854(5) 0.3699(4) 0.9002(3)
C14 C 0.4070(5) 0.2411(4) 0.9349(3)
C15 C 0.3841(5) -0.0337(4) 0.7574(4)
C16 C 0.4445(5) -0.0172(5) 0.6234(4)
C17 C 0.6078(6) -0.0905(6) 0.5548(4)
H10 H 0.6814 -0.1520 0.5912
C18 C 0.3371(6) 0.0731(6) 0.5680(4)
H11 H 0.2265 0.1229 0.6136
N1 N -0.1795(6) 0.3386(6) 0.5343(4)
O2 O 0.4873(3) -0.1088(3) 0.8073(2)
O3 O 0.2328(3) 0.0296(3) 0.8175(2)
O4 O 0.3824(4) 0.1290(3) 0.9544(3)
O5 O 0.5312(4) 0.2493(3) 0.9443(3)
O6 O -0.0129(4) 0.8668(3) 0.9350(3)
O7 O 0.2600(4) 0.0402(4) 1.1937(3)
O8 O 0.0876(4) -0.1263(4) 1.1898(3)
O9 O -0.0271(4) 0.4464(3) 0.7689(3)
C15A C 0.6159(5) 0.0337(4) 0.2426(4)
C16A C 0.5555(5) 0.0172(5) 0.3766(4)
C17A C 0.3922(6) 0.0905(6) 0.4452(4)
H10A H 0.3186 0.1520 0.4088
C18A C 0.6629(6) -0.0731(6) 0.4320(4)
H11A H 0.7735 -0.1229 0.3864
O2A O 0.5127(3) 0.1088(3) 0.1927(2)
O3A O 0.7672(3) -0.0296(3) 0.1825(2)
O1A O -0.2363(4) 0.2243(3) 1.0505(3)
Tb1A Tb -0.27150(2) 1.041856(17) 0.987196(15)
C1A C 0.3439(8) 0.6164(7) 1.4328(6)
H1A H 0.3857 0.6580 1.4693
C2A C 0.4537(7) 0.5132(7) 1.3489(5)
H2A H 0.5672 0.4838 1.3308
C3A C 0.1225(6) 0.6022(6) 1.4098(5)
H3A H 0.0083 0.6328 1.4309
C4A C 0.3945(6) 0.4524(6) 1.2908(5)
H4A H 0.4670 0.3828 1.2321
C5A C 0.2241(6) 0.4982(5) 1.3227(4)
C6A C 0.1512(6) 0.4376(5) 1.2624(5)
H5A H 0.1034 0.3760 1.3165
H6A H 0.2362 0.3836 1.1913
C7A C -0.0664(5) 0.5255(4) 1.1814(4)
C8A C -0.0463(5) 0.3924(4) 1.1560(4)
H7A H 0.0344 0.3127 1.1740
C9A C -0.1215(5) 0.2345(4) 1.0707(3)
C10A C -0.1473(5) 0.3781(4) 1.1034(3)
C11A C -0.2679(5) 0.4964(4) 1.0766(3)
H8A H -0.3370 0.4864 1.0433
C12A C -0.1841(5) 0.6443(4) 1.1516(4)
H9A H -0.1950 0.7338 1.1664
C13A C -0.2854(5) 0.6301(4) 1.0998(3)
C14A C -0.4070(5) 0.7589(4) 1.0651(3)
N1A N 0.1795(6) 0.6614(6) 1.4657(4)
O4A O -0.3824(4) 0.8710(3) 1.0456(3)
O5A O -0.5312(4) 0.7507(3) 1.0557(3)
O6A O 0.0129(4) 0.1332(3) 1.0650(3)
O7A O -0.2600(4) 0.9598(4) 0.8063(3)
O8A O -0.0876(4) 1.1263(4) 0.8102(3)
O9A O 0.0271(4) 0.5536(3) 1.2311(3)
O1_2 O 0.2363(4) -0.2243(3) 0.9495(3)
O1A_2 O -0.2363(4) 1.2243(3) 1.0505(3)
Tb1_2 Tb -0.72850(2) 0.958144(17) 1.012804(15)
Tb1_3 Tb 0.27150(2) 0.958144(17) 1.012804(15)
Tb1A_2 Tb -0.27150(2) 0.041856(17) 0.987196(15)
Tb1A_3 Tb 0.72850(2) 0.041856(17) -0.012804(15)
Tb1A_4 Tb 0.72850(2) 0.041856(17) 0.987196(15)
O2A_2 O -0.4873(3) 1.1088(3) 1.1927(2)
O3A_2 O -0.2328(3) 0.9704(3) 1.1825(2)
O5_2 O -0.4688(4) 1.2493(3) 0.9443(3)
O5A_2 O 0.4688(4) -0.2493(3) 1.0557(3)
O10 O 0.9964(7) 0.0931(6) 0.3996(5)
loop_
_geom_bond_atom_site_label_1
_geom_bond_atom_site_label_2
_geom_bond_site_symmetry_1
_geom_bond_site_symmetry_2
O1 C9 1_555 1_555
Tb1 O2 1_555 1_555
C1 H1 1_555 1_555
C2 C1 1_555 1_555
H2 C2 1_555 1_555
C3 H3 1_555 1_555
C4 C2 1_555 1_555
H4 C4 1_555 1_555
C5 C3 1_555 1_555
C6 C5 1_555 1_555
H5 C6 1_555 1_555
H6 C6 1_555 1_555
C7 C8 1_555 1_555
C8 H7 1_555 1_555
C9 C10 1_555 1_555
C10 C8 1_555 1_555
C11 C10 1_555 1_555
H8 C11 1_555 1_555
C12 C7 1_555 1_555
H9 C12 1_555 1_555
C13 C11 1_555 1_555
C14 C13 1_555 1_555
C15 C16 1_555 1_555
C16 C17 1_555 1_555
C17 H10 1_555 1_555
C18 C16 1_555 1_555
H11 C18 1_555 1_555
N1 C1 1_555 1_555
O2 C15 1_555 1_555
O3 Tb1 1_555 1_555
O4 Tb1 1_555 1_555
O5 C14 1_555 1_555
O6 C9 1_555 1_555
O7 Tb1 1_555 1_555
O8 Tb1 1_555 1_555
O9 C6 1_555 1_555
C15A C16A 1_555 1_555
C16A C17A 1_555 1_555
C17A C18 1_555 1_555
H10A C17A 1_555 1_555
C18A C17 1_555 1_555
H11A C18A 1_555 1_555
O2A C15A 1_555 1_555
O3A C15A 1_555 1_555
O1A C9A 1_555 1_555
Tb1A O6 1_555 1_555
C1A H1A 1_555 1_555
C2A C1A 1_555 1_555
H2A C2A 1_555 1_555
C3A H3A 1_555 1_555
C4A C2A 1_555 1_555
H4A C4A 1_555 1_555
C5A C3A 1_555 1_555
C6A C5A 1_555 1_555
H5A C6A 1_555 1_555
H6A C6A 1_555 1_555
C7A C8A 1_555 1_555
C8A H7A 1_555 1_555
C9A C10A 1_555 1_555
C10A C8A 1_555 1_555
C11A C10A 1_555 1_555
H8A C11A 1_555 1_555
C12A C7A 1_555 1_555
H9A C12A 1_555 1_555
C13A C11A 1_555 1_555
C14A C13A 1_555 1_555
N1A C1A 1_555 1_555
O4A Tb1A 1_555 1_555
O5A C14A 1_555 1_555
O6A Tb1 1_555 1_555
O7A Tb1A 1_555 1_555
O8A Tb1A 1_555 1_555
O9A C6A 1_555 1_555
O1_2 Tb1 1_555 1_555
O1A_2 Tb1A 1_555 1_555
Tb1_2 O5A 1_555 1_555
Tb1_3 O1 1_555 1_555
Tb1A_2 O1A 1_555 1_555
Tb1A_3 O2A 1_555 1_555
Tb1A_4 O5 1_555 1_555
O2A_2 Tb1A 1_555 1_555
O3A_2 Tb1A 1_555 1_555
O5_2 Tb1A 1_555 1_555
O5A_2 Tb1 1_555 1_555
C3 N1 1_555 1_555
C4 C5 1_555 1_555
C7 O9 1_555 1_555
C12 C13 1_555 1_555
C14 O4 1_555 1_555
C15 O3 1_555 1_555
C16A C18A 1_555 1_555
O3A Tb1A_3 1_555 1_555
C3A N1A 1_555 1_555
C4A C5A 1_555 1_555
C7A O9A 1_555 1_555
C9A O6A 1_555 1_555
C12A C13A 1_555 1_555
C14A O4A 1_555 1_555

#END
