
#######################################################################
#
#                 Cambridge Crystallographic Data Centre
#                                CCDC 
#
#######################################################################
#
# If this CIF has been generated from an entry in the Cambridge 
# Structural Database, then it will include bibliographic, chemical, 
# crystal, experimental, refinement or atomic coordinate data resulting 
# from the CCDC's data processing and validation procedures.
#
#######################################################################

data_VOXKAU
_symmetry_cell_setting           triclinic
_symmetry_space_group_name_H-M   'P -1'
_symmetry_Int_Tables_number      2
_space_group_name_Hall           '-P 1'
loop_
_symmetry_equiv_pos_site_id
_symmetry_equiv_pos_as_xyz
1 x,y,z
2 -x,-y,-z
_cell_length_a                   6.730(1)
_cell_length_b                   8.366(1)
_cell_length_c                   8.835(1)
_cell_angle_alpha                74.15(1)
_cell_angle_beta                 74.32(1)
_cell_angle_gamma                72.27(1)
_cell_volume                     446.195
loop_
_atom_site_label
_atom_site_type_symbol
_atom_site_fract_x
_atom_site_fract_y
_atom_site_fract_z
K1 K 0.16982(5) 0.15193(4) 0.91373(4)
S1 S 0.09065(5) 0.36290(4) 1.28726(3)
O1 O 0.1962(2) 0.3387(1) 1.1250(1)
O2 O -0.0310(2) 0.2379(2) 1.3759(1)
O3 O -0.0313(2) 0.5373(1) 1.2935(2)
N1 N 0.3507(2) 0.4822(2) 1.3933(2)
C1 C 0.4787(2) 0.5587(2) 1.2677(2)
O4 O 0.4902(2) 0.7066(1) 1.2510(1)
N2 N 0.6009(2) 0.4607(1) 1.1557(1)
C2 C 0.6223(2) 0.2897(2) 1.1722(2)
O5 O 0.7273(2) 0.2113(1) 1.0694(1)
C3 C 0.5089(2) 0.2058(2) 1.3350(2)
F1 F 0.4794(2) 0.0538(1) 1.3217(1)
C4 C 0.3014(2) 0.3248(2) 1.3981(1)
O6 O -0.0753(2) 0.0531(2) 0.7712(2)
H1 H 0.270(3) 0.544(3) 1.459(3)
H2 H 0.694(3) 0.517(2) 1.069(3)
H3 H 0.607(4) 0.165(3) 1.423(3)
H4 H 0.254(3) 0.265(2) 1.499(2)
H5 H -0.023(4) -0.015(3) 0.704(3)
H6 H -0.168(5) 0.124(3) 0.753(3)
O3A O 0.0313(2) 0.4627(1) 0.7065(2)
O4A O 0.5098(2) 0.2934(1) 0.7490(1)
O5_2 O -0.2727(2) 0.2113(1) 1.0694(1)
O5A O 0.2727(2) -0.2113(1) 0.9306(1)
F1A F 0.5206(2) -0.0538(1) 0.6783(1)
O6A O 0.0753(2) -0.0531(2) 1.2288(2)
K1A K -0.16982(5) 0.84807(4) 1.08627(4)
K1A_2 K 0.83018(5) 0.84807(4) 1.08627(4)
K1_2 K 1.16982(5) 0.15193(4) 0.91373(4)
K1A_3 K 0.83018(5) -0.15193(4) 1.08627(4)
K1A_4 K -0.16982(5) -0.15193(4) 1.08627(4)
H5A H 0.023(4) 0.015(3) 1.296(3)
H6A H 0.168(5) -0.124(3) 1.247(3)
loop_
_geom_bond_atom_site_label_1
_geom_bond_atom_site_label_2
_geom_bond_site_symmetry_1
_geom_bond_site_symmetry_2
K1 O1 1_555 1_555
S1 O1 1_555 1_555
O2 S1 1_555 1_555
O3 S1 1_555 1_555
N1 C1 1_555 1_555
C1 O4 1_555 1_555
O4 K1A_2 1_555 1_555
N2 C1 1_555 1_555
C2 N2 1_555 1_555
O5 C2 1_555 1_555
C3 C2 1_555 1_555
F1 C3 1_555 1_555
C4 S1 1_555 1_555
O6 K1 1_555 1_555
H1 N1 1_555 1_555
H2 N2 1_555 1_555
H3 C3 1_555 1_555
H4 C4 1_555 1_555
H5 O6 1_555 1_555
H6 O6 1_555 1_555
O3A K1 1_555 1_555
O4A K1 1_555 1_555
O5_2 K1 1_555 1_555
O5A K1 1_555 1_555
F1A K1 1_555 1_555
O6A K1 1_555 1_555
K1A O3 1_555 1_555
K1_2 O5 1_555 1_555
K1A_3 O5 1_555 1_555
K1A_4 O6 1_555 1_555
H5A O6A 1_555 1_555
H6A O6A 1_555 1_555
N1 C4 1_555 1_555
C3 C4 1_555 1_555
F1 K1A_3 1_555 1_555
O5_2 K1A_4 1_555 1_555
O5A K1A_4 1_555 1_555
O6A K1A_4 1_555 1_555

#END
