
#######################################################################
#
#                 Cambridge Crystallographic Data Centre
#                                CCDC 
#
#######################################################################
#
# If this CIF has been generated from an entry in the Cambridge 
# Structural Database, then it will include bibliographic, chemical, 
# crystal, experimental, refinement or atomic coordinate data resulting 
# from the CCDC's data processing and validation procedures.
#
#######################################################################

data_VOXKUQ
_symmetry_cell_setting           triclinic
_symmetry_space_group_name_H-M   'P -1'
_symmetry_Int_Tables_number      2
_space_group_name_Hall           '-P 1'
loop_
_symmetry_equiv_pos_site_id
_symmetry_equiv_pos_as_xyz
1 x,y,z
2 -x,-y,-z
_cell_length_a                   10.1935(13)
_cell_length_b                   10.4406(13)
_cell_length_c                   11.3849(14)
_cell_angle_alpha                68.2800(10)
_cell_angle_beta                 83.6710(10)
_cell_angle_gamma                69.1320(10)
_cell_volume                     1051.47
loop_
_atom_site_label
_atom_site_type_symbol
_atom_site_fract_x
_atom_site_fract_y
_atom_site_fract_z
Co1 Co 0.12028(2) 0.24200(2) 0.52410(2)
O1 O -0.08453(11) 0.34512(12) 0.46338(11)
O2 O -0.14146(12) 0.14346(12) 0.53561(12)
O3 O -0.79554(11) 0.40269(12) 0.39483(11)
O4 O -0.65454(11) 0.20592(12) 0.53335(11)
O5 O 0.12762(15) -0.31617(14) 1.10857(12)
O6 O 0.07313(12) 0.37495(13) 0.64037(12)
H1 H 0.0922(19) 0.4510(18) 0.6039(17)
H2 H -0.0062(16) 0.395(2) 0.6613(18)
O7 O 0.16474(13) 0.12631(13) 0.39964(12)
H3 H 0.145(2) 0.0506(18) 0.4238(18)
H4 H 0.2463(17) 0.106(2) 0.3760(19)
N1 N 0.12347(14) 0.05860(14) 0.68590(13)
N2 N 0.10456(15) -0.43732(15) 0.98734(12)
C1 C -0.4955(2) 0.6986(2) 0.02929(17)
H5 H -0.4030 0.6295 0.0216
H6 H -0.5135 0.7908 -0.0431
H7 H -0.5679 0.6565 0.0310
C2 C -0.64251(19) 0.8384(2) 0.16256(19)
H8 H -0.7165 0.8019 0.1556
H9 H -0.6552 0.9331 0.0944
H10 H -0.6478 0.8505 0.2445
C3 C -0.38612(19) 0.7960(2) 0.1481(2)
H11 H -0.3796 0.8037 0.2303
H12 H -0.4118 0.8940 0.0823
H13 H -0.2952 0.7337 0.1291
C4 C -0.49863(17) 0.72823(18) 0.15194(16)
C5 C 0.01386(18) -0.05417(19) 0.87195(17)
H14 H -0.0599 -0.0442 0.9303
C6 C 0.11439(17) -0.31976(18) 1.00428(16)
C7 C -0.55578(16) 0.38659(17) 0.39974(14)
C8 C 0.04138(18) -0.42877(18) 0.87364(15)
H15 H 0.0991 -0.5122 0.8476
H16 H 0.0384 -0.3366 0.8035
C9 C -0.47282(16) 0.58215(17) 0.26263(15)
C10 C 0.11532(17) -0.18978(18) 0.88836(15)
C11 C 0.10646(18) -0.56688(18) 1.09892(15)
H17 H 0.1458 -0.5634 1.1729
H18 H 0.1672 -0.6569 1.0836
C12 C 0.22176(17) -0.07281(17) 0.70286(16)
H19 H 0.2951 -0.0796 0.6439
C13 C 0.02098(17) 0.06635(19) 0.77005(16)
H20 H -0.0498 0.1588 0.7591
C14 C 0.22178(17) -0.19871(18) 0.80164(16)
H21 H 0.2935 -0.2900 0.8102
C15 C -0.57914(16) 0.52084(17) 0.30157(15)
H22 H -0.6688 0.5718 0.2602
C16 C -0.67438(16) 0.32854(17) 0.44434(15)
C17 C -0.34255(16) 0.50337(17) 0.32500(14)
H23 H -0.2699 0.5446 0.3023
C18 C -0.42356(16) 0.30773(17) 0.45774(14)
H24 H -0.4068 0.2146 0.5231
C19 C -0.31604(16) 0.36588(17) 0.41965(14)
C20 C -0.17107(16) 0.27631(17) 0.47833(14)
O5A O -0.12762(15) -0.68383(14) 0.89143(12)
N1A N -0.12347(14) -1.05860(14) 1.31410(13)
N2A N -0.10456(15) -0.56268(15) 1.01266(12)
C5A C -0.01386(18) -0.94583(19) 1.12805(17)
H14A H 0.0599 -0.9558 1.0697
C6A C -0.11439(17) -0.68024(18) 0.99572(16)
C8A C -0.04138(18) -0.57123(18) 1.12636(15)
H15A H -0.0991 -0.4878 1.1524
H16A H -0.0384 -0.6634 1.1965
C10A C -0.11532(17) -0.81022(18) 1.11164(15)
C11A C -0.10646(18) -0.43312(18) 0.90108(15)
H17A H -0.1458 -0.4366 0.8271
H18A H -0.1672 -0.3431 0.9164
C12A C -0.22176(17) -0.92719(17) 1.29714(16)
H19A H -0.2951 -0.9204 1.3561
C13A C -0.02098(17) -1.06635(19) 1.22995(16)
H20A H 0.0498 -1.1588 1.2409
C14A C -0.22178(17) -0.80129(18) 1.19836(16)
H21A H -0.2935 -0.7100 1.1898
Co1A Co -0.12028(2) -1.24200(2) 1.47590(2)
O1A O 0.08453(11) -1.34512(12) 1.53662(11)
O2A O 0.14146(12) -1.14346(12) 1.46439(12)
O3A O 0.79554(11) -1.40269(12) 1.60517(11)
O4A O 0.65454(11) -1.20592(12) 1.46665(11)
O6A O -0.07313(12) -1.37495(13) 1.35963(12)
H1A H -0.0922(19) -1.4510(18) 1.3961(17)
H2A H 0.0062(16) -1.395(2) 1.3387(18)
O7A O -0.16474(13) -1.12631(13) 1.60036(12)
H3A H -0.145(2) -1.0506(18) 1.5762(18)
H4A H -0.2463(17) -1.106(2) 1.6240(19)
C1A C 0.4955(2) -1.6986(2) 1.97071(17)
H5A H 0.4030 -1.6295 1.9784
H6A H 0.5135 -1.7908 2.0431
H7A H 0.5679 -1.6565 1.9690
C2A C 0.64251(19) -1.8384(2) 1.83744(19)
H8A H 0.7165 -1.8019 1.8444
H9A H 0.6552 -1.9331 1.9056
H10A H 0.6478 -1.8505 1.7555
C3A C 0.38612(19) -1.7960(2) 1.8519(2)
H11A H 0.3796 -1.8037 1.7697
H12A H 0.4118 -1.8940 1.9177
H13A H 0.2952 -1.7337 1.8709
C4A C 0.49863(17) -1.72823(18) 1.84806(16)
C7A C 0.55578(16) -1.38659(17) 1.60026(14)
C9A C 0.47282(16) -1.58215(17) 1.73737(15)
C15A C 0.57914(16) -1.52084(17) 1.69843(15)
H22A H 0.6688 -1.5718 1.7398
C16A C 0.67438(16) -1.32854(17) 1.55566(15)
C17A C 0.34255(16) -1.50337(17) 1.67500(14)
H23A H 0.2699 -1.5446 1.6977
C18A C 0.42356(16) -1.30773(17) 1.54226(14)
H24A H 0.4068 -1.2146 1.4769
C19A C 0.31604(16) -1.36588(17) 1.58035(14)
C20A C 0.17107(16) -1.27631(17) 1.52167(14)
Co1_2 Co -0.87972(2) 0.24200(2) 0.52410(2)
Co1A_2 Co 0.87972(2) -1.24200(2) 1.47590(2)
O3_2 O 0.20446(11) 0.40269(12) 0.39483(11)
O3A_2 O -0.20446(11) -1.40269(12) 1.60517(11)
O4_2 O 0.34546(11) 0.20592(12) 0.53335(11)
O4A_2 O -0.34546(11) -1.20592(12) 1.46665(11)
O8 O 0.44355(15) 0.05134(17) 0.32831(16)
H25 H 0.511(2) -0.034(2) 0.365(2)
H26 H 0.448(3) 0.084(3) 0.386(2)
loop_
_geom_bond_atom_site_label_1
_geom_bond_atom_site_label_2
_geom_bond_site_symmetry_1
_geom_bond_site_symmetry_2
Co1 O1 1_555 1_555
O1 C20 1_555 1_555
O2 C20 1_555 1_555
O3 C16 1_555 1_555
O4 C16 1_555 1_555
O5 C6 1_555 1_555
O6 Co1 1_555 1_555
H1 O6 1_555 1_555
H2 O6 1_555 1_555
O7 Co1 1_555 1_555
H3 O7 1_555 1_555
H4 O7 1_555 1_555
N1 Co1 1_555 1_555
N2 C6 1_555 1_555
C1 H5 1_555 1_555
H6 C1 1_555 1_555
H7 C1 1_555 1_555
C2 H8 1_555 1_555
H9 C2 1_555 1_555
H10 C2 1_555 1_555
C3 H11 1_555 1_555
H12 C3 1_555 1_555
H13 C3 1_555 1_555
C4 C1 1_555 1_555
C5 H14 1_555 1_555
C6 C10 1_555 1_555
C7 C15 1_555 1_555
C8 N2 1_555 1_555
H15 C8 1_555 1_555
H16 C8 1_555 1_555
C9 C4 1_555 1_555
C10 C5 1_555 1_555
C11 N2 1_555 1_555
H17 C11 1_555 1_555
H18 C11 1_555 1_555
C12 N1 1_555 1_555
H19 C12 1_555 1_555
C13 N1 1_555 1_555
H20 C13 1_555 1_555
C14 C10 1_555 1_555
H21 C14 1_555 1_555
C15 C9 1_555 1_555
H22 C15 1_555 1_555
C16 C7 1_555 1_555
C17 C9 1_555 1_555
H23 C17 1_555 1_555
C18 C7 1_555 1_555
H24 C18 1_555 1_555
C19 C17 1_555 1_555
C20 C19 1_555 1_555
O8 H25 1_555 1_555
H26 O8 1_555 1_555
O5A C6A 1_555 1_555
N1A C12A 1_555 1_555
N2A C6A 1_555 1_555
C5A H14A 1_555 1_555
C6A C10A 1_555 1_555
C8A C11 1_555 1_555
H15A C8A 1_555 1_555
H16A C8A 1_555 1_555
C10A C5A 1_555 1_555
C11A C8 1_555 1_555
H17A C11A 1_555 1_555
H18A C11A 1_555 1_555
C12A H19A 1_555 1_555
C13A N1A 1_555 1_555
H20A C13A 1_555 1_555
C14A C10A 1_555 1_555
H21A C14A 1_555 1_555
Co1A N1A 1_555 1_555
O1A Co1A 1_555 1_555
O2A C20A 1_555 1_555
O3A C16A 1_555 1_555
O4A C16A 1_555 1_555
O6A Co1A 1_555 1_555
H1A O6A 1_555 1_555
H2A O6A 1_555 1_555
O7A Co1A 1_555 1_555
H3A O7A 1_555 1_555
H4A O7A 1_555 1_555
C1A H5A 1_555 1_555
H6A C1A 1_555 1_555
H7A C1A 1_555 1_555
C2A H8A 1_555 1_555
H9A C2A 1_555 1_555
H10A C2A 1_555 1_555
C3A H11A 1_555 1_555
H12A C3A 1_555 1_555
H13A C3A 1_555 1_555
C4A C1A 1_555 1_555
C7A C15A 1_555 1_555
C9A C4A 1_555 1_555
C15A C9A 1_555 1_555
H22A C15A 1_555 1_555
C16A C7A 1_555 1_555
C17A C9A 1_555 1_555
H23A C17A 1_555 1_555
C18A C7A 1_555 1_555
H24A C18A 1_555 1_555
C19A C17A 1_555 1_555
C20A O1A 1_555 1_555
Co1_2 O3 1_555 1_555
Co1A_2 O3A 1_555 1_555
O3_2 Co1 1_555 1_555
O3A_2 Co1A 1_555 1_555
O4_2 Co1 1_555 1_555
O4A_2 Co1A 1_555 1_555
O4 Co1_2 1_555 1_555
C2 C4 1_555 1_555
C3 C4 1_555 1_555
C5 C13 1_555 1_555
C12 C14 1_555 1_555
C18 C19 1_555 1_555
N2A C8A 1_555 1_555
N2A C11A 1_555 1_555
C5A C13A 1_555 1_555
C12A C14A 1_555 1_555
O4A Co1A_2 1_555 1_555
C2A C4A 1_555 1_555
C3A C4A 1_555 1_555
C18A C19A 1_555 1_555
C19A C20A 1_555 1_555

#END
