
#######################################################################
#
#                 Cambridge Crystallographic Data Centre
#                                CCDC 
#
#######################################################################
#
# If this CIF has been generated from an entry in the Cambridge 
# Structural Database, then it will include bibliographic, chemical, 
# crystal, experimental, refinement or atomic coordinate data resulting 
# from the CCDC's data processing and validation procedures.
#
#######################################################################

data_VOXKEA
_symmetry_cell_setting           tetragonal
_symmetry_space_group_name_H-M   'P 4/n'
_symmetry_Int_Tables_number      85
_space_group_name_Hall           '-P 4a'
loop_
_symmetry_equiv_pos_site_id
_symmetry_equiv_pos_as_xyz
1 x,y,z
2 1/2-y,x,z
3 1/2-x,1/2-y,z
4 y,1/2-x,z
5 -x,-y,-z
6 1/2+y,-x,-z
7 1/2+x,1/2+y,-z
8 -y,1/2+x,-z
_cell_length_a                   15.0286(6)
_cell_length_b                   15.0286(6)
_cell_length_c                   8.0462(6)
_cell_angle_alpha                90
_cell_angle_beta                 90
_cell_angle_gamma                90
_cell_volume                     1817.31
loop_
_atom_site_label
_atom_site_type_symbol
_atom_site_fract_x
_atom_site_fract_y
_atom_site_fract_z
C1 C 0.3179(2) 0.4290(2) 0.0405(3)
H1 H 0.2758 0.4249 -0.0473
C2 C 0.3643(2) 0.5077(2) 0.0611(4)
H2 H 0.3532 0.5571 -0.0096
C3 C 0.42724(19) 0.5135(2) 0.1868(4)
C4 C 0.44201(19) 0.4391(2) 0.2858(3)
H3 H 0.4864 0.4404 0.3699
C5 C 0.39154(19) 0.3634(2) 0.2607(3)
H4 H 0.4006 0.3135 0.3312
C6 C 0.4739(2) 0.6008(2) 0.2183(4)
Cu1 Cu 0.2500 0.2500 0.12801(7)
F1 F 0.2500 0.2500 -0.1559(4)
F2 F 0.24029(11) 0.13838(10) -0.3661(2)
F3 F 0.2500 0.2500 -0.5762(4)
N1 N 0.33004(16) 0.35813(16) 0.1396(3)
N2 N 0.55197(19) 0.5964(2) 0.2929(4)
H5 H 0.579(3) 0.644(3) 0.308(5)
H6 H 0.577(3) 0.552(3) 0.313(5)
O1 O 0.4370(2) 0.67162(17) 0.1780(4)
Si1 Si 0.2500 0.2500 -0.36663(16)
F2A F 0.36162(10) 0.24029(11) -0.3661(2)
F2B F 0.25971(11) 0.36162(10) -0.3661(2)
F2C F 0.13838(10) 0.25971(11) -0.3661(2)
C1A C 0.0710(2) 0.3179(2) 0.0405(3)
H1A H 0.0751 0.2758 -0.0473
C2A C -0.0077(2) 0.3643(2) 0.0611(4)
H2A H -0.0571 0.3532 -0.0096
C3A C -0.0135(2) 0.42724(19) 0.1868(4)
C4A C 0.0609(2) 0.44201(19) 0.2858(3)
H3A H 0.0596 0.4864 0.3699
C5A C 0.1366(2) 0.39154(19) 0.2607(3)
H4A H 0.1865 0.4006 0.3312
C6A C -0.1008(2) 0.4739(2) 0.2183(4)
N1A N 0.14187(16) 0.33004(16) 0.1396(3)
N2A N -0.0964(2) 0.55197(19) 0.2929(4)
H5A H -0.144(3) 0.579(3) 0.308(5)
H6A H -0.052(3) 0.577(3) 0.313(5)
O1A O -0.17162(17) 0.4370(2) 0.1780(4)
C1B C 0.1821(2) 0.0710(2) 0.0405(3)
H1B H 0.2242 0.0751 -0.0473
C2B C 0.1357(2) -0.0077(2) 0.0611(4)
H2B H 0.1468 -0.0571 -0.0096
C3B C 0.07276(19) -0.0135(2) 0.1868(4)
C4B C 0.05799(19) 0.0609(2) 0.2858(3)
H3B H 0.0136 0.0596 0.3699
C5B C 0.10846(19) 0.1366(2) 0.2607(3)
H4B H 0.0994 0.1865 0.3312
C6B C 0.0261(2) -0.1008(2) 0.2183(4)
N1B N 0.16996(16) 0.14187(16) 0.1396(3)
N2B N -0.05197(19) -0.0964(2) 0.2929(4)
H5B H -0.079(3) -0.144(3) 0.308(5)
H6B H -0.077(3) -0.052(3) 0.313(5)
O1B O 0.0630(2) -0.17162(17) 0.1780(4)
C1C C 0.4290(2) 0.1821(2) 0.0405(3)
H1C H 0.4249 0.2242 -0.0473
C2C C 0.5077(2) 0.1357(2) 0.0611(4)
H2C H 0.5571 0.1468 -0.0096
C3C C 0.5135(2) 0.07276(19) 0.1868(4)
C4C C 0.4391(2) 0.05799(19) 0.2858(3)
H3C H 0.4404 0.0136 0.3699
C5C C 0.3634(2) 0.10846(19) 0.2607(3)
H4C H 0.3135 0.0994 0.3312
C6C C 0.6008(2) 0.0261(2) 0.2183(4)
N1C N 0.35813(16) 0.16996(16) 0.1396(3)
N2C N 0.5964(2) -0.05197(19) 0.2929(4)
H5C H 0.644(3) -0.079(3) 0.308(5)
H6C H 0.552(3) -0.077(3) 0.313(5)
O1C O 0.67162(17) 0.0630(2) 0.1780(4)
Cu1_2 Cu 0.2500 0.2500 -0.87199(7)
F3_2 F 0.2500 0.2500 0.4238(4)
O2 O 0.6655(2) 0.4384(3) 0.3681(4)
H7 H 0.6297 0.3930 0.3692
H8 H 0.7092 0.4392 0.4393
O5 O 0.3957(5) 0.7299(4) 0.6606(7)
H13 H 0.3429 0.7534 0.6678
H14 H 0.4156 0.7218 0.7610
O5B O 0.1043(5) 0.7701(4) 0.6606(7)
H13B H 0.1571 0.7466 0.6678
H14B H 0.0844 0.7782 0.7610
O3? O 0.2583(14) 0.7312(12) 0.8374(17)
H9? H 0.2501 0.6972 0.7513
H10? H 0.2334 0.7058 0.9228
O4? O 0.3354(16) 0.7333(13) 0.881(2)
H11? H 0.2929 0.7667 0.8425
H12? H 0.3763 0.7278 0.8053
loop_
_geom_bond_atom_site_label_1
_geom_bond_atom_site_label_2
_geom_bond_site_symmetry_1
_geom_bond_site_symmetry_2
C1 H1 1_555 1_555
C2 C1 1_555 1_555
H2 C2 1_555 1_555
C3 C2 1_555 1_555
C4 C3 1_555 1_555
H3 C4 1_555 1_555
C5 C4 1_555 1_555
H4 C5 1_555 1_555
C6 C3 1_555 1_555
Cu1 F1 1_555 1_555
F1 Si1 1_555 1_555
F2 Si1 1_555 1_555
F3 Si1 1_555 1_555
N1 C1 1_555 1_555
N2 C6 1_555 1_555
H5 N2 1_555 1_555
H6 N2 1_555 1_555
O1 C6 1_555 1_555
Si1 F2A 1_555 1_555
O2 H7 1_555 1_555
H8 O2 1_555 1_555
O5 H13 1_555 1_555
H14 O5 1_555 1_555
F2B Si1 1_555 1_555
F2C Si1 1_555 1_555
C1A H1A 1_555 1_555
C2A C1A 1_555 1_555
H2A C2A 1_555 1_555
C3A C2A 1_555 1_555
C4A C3A 1_555 1_555
H3A C4A 1_555 1_555
C5A C4A 1_555 1_555
H4A C5A 1_555 1_555
C6A C3A 1_555 1_555
N1A Cu1 1_555 1_555
N2A C6A 1_555 1_555
H5A N2A 1_555 1_555
H6A N2A 1_555 1_555
O1A C6A 1_555 1_555
C1B H1B 1_555 1_555
C2B C1B 1_555 1_555
H2B C2B 1_555 1_555
C3B C2B 1_555 1_555
C4B C3B 1_555 1_555
H3B C4B 1_555 1_555
C5B C4B 1_555 1_555
H4B C5B 1_555 1_555
C6B C3B 1_555 1_555
N1B Cu1 1_555 1_555
N2B C6B 1_555 1_555
H5B N2B 1_555 1_555
H6B N2B 1_555 1_555
O1B C6B 1_555 1_555
C1C H1C 1_555 1_555
C2C C1C 1_555 1_555
H2C C2C 1_555 1_555
C3C C2C 1_555 1_555
C4C C3C 1_555 1_555
H3C C4C 1_555 1_555
C5C C4C 1_555 1_555
H4C C5C 1_555 1_555
C6C C3C 1_555 1_555
N1C Cu1 1_555 1_555
N2C C6C 1_555 1_555
H5C N2C 1_555 1_555
H6C N2C 1_555 1_555
O1C C6C 1_555 1_555
Cu1_2 F3 1_555 1_555
F3_2 Cu1 1_555 1_555
O5B H13B 1_555 1_555
H14B O5B 1_555 1_555
C5 N1 1_555 1_555
Cu1 N1 1_555 1_555
C1A N1A 1_555 1_555
C5A N1A 1_555 1_555
C1B N1B 1_555 1_555
C5B N1B 1_555 1_555
C1C N1C 1_555 1_555
C5C N1C 1_555 1_555

#END
