
#######################################################################
#
#                 Cambridge Crystallographic Data Centre
#                                CCDC 
#
#######################################################################
#
# If this CIF has been generated from an entry in the Cambridge 
# Structural Database, then it will include bibliographic, chemical, 
# crystal, experimental, refinement or atomic coordinate data resulting 
# from the CCDC's data processing and validation procedures.
#
#######################################################################

data_VOXKOK
_symmetry_cell_setting           triclinic
_symmetry_space_group_name_H-M   'P -1'
_symmetry_Int_Tables_number      2
_space_group_name_Hall           '-P 1'
loop_
_symmetry_equiv_pos_site_id
_symmetry_equiv_pos_as_xyz
1 x,y,z
2 -x,-y,-z
_cell_length_a                   8.260(4)
_cell_length_b                   15.337(7)
_cell_length_c                   16.266(7)
_cell_angle_alpha                103.636(6)
_cell_angle_beta                 91.396(6)
_cell_angle_gamma                90.790(6)
_cell_volume                     2001.55
loop_
_atom_site_label
_atom_site_type_symbol
_atom_site_fract_x
_atom_site_fract_y
_atom_site_fract_z
Co1 Co 0.77552(12) 0.54317(7) 0.67007(6)
O1 O 0.9301(6) 0.6487(3) 0.6711(3)
O2 O 1.1345(6) 0.6002(4) 0.5891(4)
O3 O 1.1341(7) 1.0421(4) 0.8459(4)
H1 H 1.1200 1.0632 0.8977
O4 O 0.9187(8) 0.9566(5) 0.8440(5)
O5 O 0.6178(6) 0.4438(4) 0.6841(3)
O6 O 0.4126(7) 0.4380(5) 0.5907(3)
O7 O 0.6286(5) 0.2502(3) 0.8753(3)
H2 H 0.6571 0.2368 0.9206
O8 O 0.4229(9) 0.1608(6) 0.8841(5)
O9 O 1.1787(7) 0.3413(4) 0.9653(4)
O10 O 0.2812(6) 0.7986(4) 0.9808(3)
O11 O 0.9243(7) 0.4585(4) 0.5818(3)
H3 H 1.0225 0.4846 0.5781
H4 H 0.8779 0.4452 0.5290
O12 O 0.6132(7) 0.5735(4) 0.5793(3)
H5 H 0.5100 0.5475 0.5789
H6 H 0.6484 0.5540 0.5243
N1 N 0.9283(6) 0.5040(4) 0.7652(4)
N2 N 1.3498(8) 0.4580(4) 0.9799(4)
N3 N 0.6462(7) 0.6376(4) 0.7631(4)
N4 N 0.4200(8) 0.9195(5) 0.9599(4)
C1 C 1.0606(9) 0.6607(6) 0.6389(5)
C2 C 1.1353(7) 0.7519(5) 0.6632(4)
C3 C 1.2794(8) 0.7733(5) 0.6308(4)
H7 H 1.3302 0.7287 0.5895
C4 C 1.3536(7) 0.8585(5) 0.6566(4)
C5 C 1.2772(8) 0.9213(5) 0.7188(5)
H8 H 1.3249 0.9794 0.7388
C6 C 1.1322(8) 0.9004(5) 0.7523(5)
C7 C 1.0608(8) 0.8166(5) 0.7240(5)
H9 H 0.9606 0.8031 0.7461
C8 C 1.0473(9) 0.9667(5) 0.8198(5)
C9 C 1.5107(8) 0.8798(5) 0.6181(5)
C10 C 1.6382(9) 0.8211(6) 0.6403(6)
H10 H 1.7418 0.8353 0.6179
H11 H 1.6083 0.7581 0.6157
H12 H 1.6485 0.8311 0.7020
C11 C 1.4850(11) 0.8656(7) 0.5230(5)
H13 H 1.3994 0.9049 0.5112
H14 H 1.4534 0.8029 0.4984
H15 H 1.5859 0.8799 0.4980
C12 C 1.5670(10) 0.9772(6) 0.6520(7)
H16 H 1.5766 0.9905 0.7139
H17 H 1.4880 1.0172 0.6350
H18 H 1.6726 0.9865 0.6288
C13 C 0.4865(10) 0.4089(6) 0.6461(5)
C14 C 0.4171(8) 0.3318(4) 0.6766(5)
C15 C 0.4916(7) 0.3038(4) 0.7405(4)
H19 H 0.5950 0.3278 0.7620
C16 C 0.4155(7) 0.2398(4) 0.7741(4)
C17 C 0.2667(8) 0.2027(4) 0.7401(4)
H20 H 0.2138 0.1601 0.7646
C18 C 0.1956(7) 0.2266(4) 0.6724(5)
C19 C 0.2694(8) 0.2925(5) 0.6415(5)
H21 H 0.2197 0.3117 0.5957
C20 C 0.4868(8) 0.2118(5) 0.8488(4)
C21 C 0.0324(8) 0.1827(5) 0.6345(5)
C22 C -0.0934(12) 0.2033(13) 0.7015(10)
H22 H -0.1947 0.1710 0.6798
H23 H -0.1124 0.2680 0.7163
H24 H -0.0551 0.1842 0.7519
C23 C -0.0229(14) 0.2141(9) 0.5569(9)
H25 H 0.0562 0.1965 0.5123
H26 H -0.0319 0.2796 0.5715
H27 H -0.1286 0.1865 0.5366
C24 C 0.0534(13) 0.0825(6) 0.6100(9)
H28 H -0.0517 0.0528 0.5920
H29 H 0.0968 0.0621 0.6587
H30 H 0.1287 0.0674 0.5633
C25 C 1.0932(9) 0.5010(5) 0.7589(5)
H31 H 1.1416 0.5173 0.7121
C26 C 1.1908(9) 0.4752(6) 0.8182(5)
H32 H 1.3054 0.4774 0.8149
C27 C 1.1172(8) 0.4458(4) 0.8836(4)
C28 C 0.9611(11) 0.4324(6) 0.8784(6)
H33 H 0.9086 0.4032 0.9161
C29 C 0.8720(9) 0.4618(6) 0.8161(6)
H34 H 0.7590 0.4487 0.8119
C30 C 1.2152(8) 0.4128(4) 0.9484(4)
C31 C 1.3727(14) 0.5577(6) 0.9893(7)
H35 H 1.2923 0.5796 0.9531
H36 H 1.3579 0.5902 1.0488
C32 C 1.4583(10) 0.4264(5) 1.0372(5)
H37 H 1.4384 0.3618 1.0333
H38 H 1.4423 0.4599 1.0963
C33 C 0.7231(10) 0.6995(6) 0.8259(5)
H39 H 0.8379 0.6976 0.8297
C34 C 0.6506(10) 0.7626(6) 0.8827(5)
H40 H 0.7122 0.8031 0.9257
C35 C 0.4803(9) 0.7682(6) 0.8780(5)
C36 C 0.3998(9) 0.7052(6) 0.8140(5)
H41 H 0.2850 0.7055 0.8092
C37 C 0.4831(9) 0.6438(5) 0.7589(5)
H42 H 0.4245 0.6028 0.7150
C38 C 0.3890(9) 0.8314(6) 0.9422(4)
C39 C 0.5304(10) 0.9646(6) 0.9118(4)
H43 H 0.4684 1.0050 0.8841
H44 H 0.5832 0.9193 0.8674
C40 C 0.3407(11) 0.9811(6) 1.0265(5)
H45 H 0.2694 0.9477 1.0569
H46 H 0.2730 1.0222 1.0023
O9A O 1.8213(7) 0.6587(4) 1.0347(4)
N1A N 2.0717(6) 0.4960(4) 1.2348(4)
N2A N 1.6502(8) 0.5420(4) 1.0201(4)
C25A C 1.9068(9) 0.4990(5) 1.2411(5)
H31A H 1.8584 0.4827 1.2879
C26A C 1.8092(9) 0.5248(6) 1.1818(5)
H32A H 1.6946 0.5226 1.1851
C27A C 1.8828(8) 0.5542(4) 1.1164(4)
C28A C 2.0389(11) 0.5676(6) 1.1216(6)
H33A H 2.0914 0.5968 1.0839
C29A C 2.1280(9) 0.5382(6) 1.1839(6)
H34A H 2.2410 0.5513 1.1881
C30A C 1.7848(8) 0.5872(4) 1.0516(4)
C31A C 1.6273(14) 0.4423(6) 1.0107(7)
H35A H 1.7077 0.4204 1.0469
H36A H 1.6421 0.4098 0.9512
C32A C 1.5417(10) 0.5736(5) 0.9628(5)
H37A H 1.5616 0.6382 0.9667
H38A H 1.5577 0.5401 0.9037
O10A O 0.7188(6) 1.2014(4) 1.0192(3)
N3A N 0.3538(7) 1.3624(4) 1.2369(4)
N4A N 0.5800(8) 1.0805(5) 1.0401(4)
C33A C 0.2769(10) 1.3005(6) 1.1741(5)
H39A H 0.1621 1.3024 1.1703
C34A C 0.3494(10) 1.2374(6) 1.1173(5)
H40A H 0.2878 1.1969 1.0743
C35A C 0.5197(9) 1.2318(6) 1.1220(5)
C36A C 0.6002(9) 1.2948(6) 1.1860(5)
H41A H 0.7150 1.2945 1.1908
C37A C 0.5169(9) 1.3562(5) 1.2411(5)
H42A H 0.5755 1.3972 1.2850
C38A C 0.6110(9) 1.1686(6) 1.0578(4)
C39A C 0.4696(10) 1.0354(6) 1.0882(4)
H43A H 0.5316 0.9950 1.1159
H44A H 0.4168 1.0807 1.1326
C40A C 0.6593(11) 1.0189(6) 0.9735(5)
H45A H 0.7306 1.0523 0.9431
H46A H 0.7270 0.9778 0.9977
Co1A Co 0.22448(12) 1.45683(7) 1.32993(6)
O1A O 0.0699(6) 1.3513(3) 1.3289(3)
O2A O -0.1345(6) 1.3998(4) 1.4109(4)
O3A O -0.1341(7) 0.9579(4) 1.1541(4)
H1A H -0.1200 0.9368 1.1023
O4A O 0.0813(8) 1.0434(5) 1.1560(5)
O5A O 0.3822(6) 1.5562(4) 1.3159(3)
O6A O 0.5874(7) 1.5620(5) 1.4093(3)
O7A O 0.3714(5) 1.7498(3) 1.1247(3)
H2A H 0.3429 1.7632 1.0794
O8A O 0.5771(9) 1.8392(6) 1.1159(5)
O11A O 0.0757(7) 1.5415(4) 1.4182(3)
H3A H -0.0225 1.5154 1.4219
H4A H 0.1221 1.5548 1.4710
O12A O 0.3868(7) 1.4265(4) 1.4207(3)
H5A H 0.4900 1.4525 1.4211
H6A H 0.3516 1.4460 1.4757
C1A C -0.0606(9) 1.3393(6) 1.3611(5)
C2A C -0.1353(7) 1.2481(5) 1.3368(4)
C3A C -0.2794(8) 1.2267(5) 1.3692(4)
H7A H -0.3302 1.2713 1.4105
C4A C -0.3536(7) 1.1415(5) 1.3434(4)
C5A C -0.2772(8) 1.0787(5) 1.2812(5)
H8A H -0.3249 1.0206 1.2612
C6A C -0.1322(8) 1.0996(5) 1.2477(5)
C7A C -0.0608(8) 1.1834(5) 1.2760(5)
H9A H 0.0394 1.1969 1.2539
C8A C -0.0473(9) 1.0333(5) 1.1802(5)
C9A C -0.5107(8) 1.1202(5) 1.3819(5)
C10A C -0.6382(9) 1.1789(6) 1.3597(6)
H10A H -0.7418 1.1647 1.3821
H11A H -0.6083 1.2419 1.3843
H12A H -0.6485 1.1689 1.2980
C11A C -0.4850(11) 1.1344(7) 1.4770(5)
H13A H -0.3994 1.0951 1.4888
H14A H -0.4534 1.1971 1.5016
H15A H -0.5859 1.1201 1.5020
C12A C -0.5670(10) 1.0228(6) 1.3480(7)
H16A H -0.5766 1.0095 1.2861
H17A H -0.4880 0.9828 1.3650
H18A H -0.6726 1.0135 1.3712
C13A C 0.5135(10) 1.5911(6) 1.3539(5)
C14A C 0.5829(8) 1.6682(4) 1.3234(5)
C15A C 0.5084(7) 1.6962(4) 1.2595(4)
H19A H 0.4050 1.6722 1.2380
C16A C 0.5845(7) 1.7602(4) 1.2259(4)
C17A C 0.7333(8) 1.7973(4) 1.2599(4)
H20A H 0.7862 1.8399 1.2354
C18A C 0.8044(7) 1.7734(4) 1.3276(5)
C19A C 0.7306(8) 1.7075(5) 1.3585(5)
H21A H 0.7803 1.6883 1.4043
C20A C 0.5132(8) 1.7882(5) 1.1512(4)
C21A C 0.9676(8) 1.8173(5) 1.3655(5)
C22A C 1.0934(12) 1.7967(13) 1.2985(10)
H22A H 1.1947 1.8290 1.3202
H23A H 1.1124 1.7320 1.2837
H24A H 1.0551 1.8158 1.2481
C23A C 1.0229(14) 1.7859(9) 1.4431(9)
H25A H 0.9438 1.8035 1.4877
H26A H 1.0319 1.7204 1.4285
H27A H 1.1286 1.8135 1.4634
C24A C 0.9466(13) 1.9175(6) 1.3900(9)
H28A H 1.0517 1.9472 1.4080
H29A H 0.9032 1.9379 1.3413
H30A H 0.8713 1.9326 1.4367
Co1A_2 Co 2.22448(12) 0.45683(7) 1.32993(6)
N1A_2 N 0.0717(6) 1.4960(4) 1.2348(4)
O13 O 0.9602(7) 0.8258(4) 0.0325(5)
H47 H 0.9568 0.8088 0.0798
H48 H 1.0553 0.8151 0.0111
loop_
_geom_bond_atom_site_label_1
_geom_bond_atom_site_label_2
_geom_bond_site_symmetry_1
_geom_bond_site_symmetry_2
Co1 O1 1_555 1_555
O1 C1 1_555 1_555
O2 C1 1_555 1_555
O3 H1 1_555 1_555
O4 C8 1_555 1_555
O5 Co1 1_555 1_555
O6 C13 1_555 1_555
O7 H2 1_555 1_555
O8 C20 1_555 1_555
O9 C30 1_555 1_555
O10 C38 1_555 1_555
O11 Co1 1_555 1_555
H3 O11 1_555 1_555
H4 O11 1_555 1_555
O12 Co1 1_555 1_555
H5 O12 1_555 1_555
H6 O12 1_555 1_555
N1 Co1 1_555 1_555
N2 C30 1_555 1_555
N3 Co1 1_555 1_555
N4 C38 1_555 1_555
C1 C2 1_555 1_555
C2 C3 1_555 1_555
C3 H7 1_555 1_555
C4 C3 1_555 1_555
C5 C4 1_555 1_555
H8 C5 1_555 1_555
C6 C5 1_555 1_555
C7 C2 1_555 1_555
H9 C7 1_555 1_555
C8 O3 1_555 1_555
C9 C4 1_555 1_555
C10 C9 1_555 1_555
H10 C10 1_555 1_555
H11 C10 1_555 1_555
H12 C10 1_555 1_555
C11 C9 1_555 1_555
H13 C11 1_555 1_555
H14 C11 1_555 1_555
H15 C11 1_555 1_555
C12 C9 1_555 1_555
H16 C12 1_555 1_555
H17 C12 1_555 1_555
H18 C12 1_555 1_555
C13 O5 1_555 1_555
C14 C13 1_555 1_555
C15 C14 1_555 1_555
H19 C15 1_555 1_555
C16 C15 1_555 1_555
C17 C16 1_555 1_555
H20 C17 1_555 1_555
C18 C17 1_555 1_555
C19 C14 1_555 1_555
H21 C19 1_555 1_555
C20 O7 1_555 1_555
C21 C18 1_555 1_555
C22 C21 1_555 1_555
H22 C22 1_555 1_555
H23 C22 1_555 1_555
H24 C22 1_555 1_555
C23 C21 1_555 1_555
H25 C23 1_555 1_555
H26 C23 1_555 1_555
H27 C23 1_555 1_555
C24 C21 1_555 1_555
H28 C24 1_555 1_555
H29 C24 1_555 1_555
H30 C24 1_555 1_555
C25 N1 1_555 1_555
H31 C25 1_555 1_555
C26 C25 1_555 1_555
H32 C26 1_555 1_555
C27 C26 1_555 1_555
C28 C27 1_555 1_555
H33 C28 1_555 1_555
C29 N1 1_555 1_555
H34 C29 1_555 1_555
C30 C27 1_555 1_555
C31 N2 1_555 1_555
H35 C31 1_555 1_555
H36 C31 1_555 1_555
C32 N2 1_555 1_555
H37 C32 1_555 1_555
H38 C32 1_555 1_555
C33 N3 1_555 1_555
H39 C33 1_555 1_555
C34 C33 1_555 1_555
H40 C34 1_555 1_555
C35 C34 1_555 1_555
C36 C35 1_555 1_555
H41 C36 1_555 1_555
C37 N3 1_555 1_555
H42 C37 1_555 1_555
C38 C35 1_555 1_555
C39 N4 1_555 1_555
H43 C39 1_555 1_555
H44 C39 1_555 1_555
C40 N4 1_555 1_555
H45 C40 1_555 1_555
H46 C40 1_555 1_555
O13 H47 1_555 1_555
H48 O13 1_555 1_555
O9A C30A 1_555 1_555
N1A C25A 1_555 1_555
N2A C30A 1_555 1_555
C25A H31A 1_555 1_555
C26A C25A 1_555 1_555
H32A C26A 1_555 1_555
C27A C26A 1_555 1_555
C28A C27A 1_555 1_555
H33A C28A 1_555 1_555
C29A N1A 1_555 1_555
H34A C29A 1_555 1_555
C30A C27A 1_555 1_555
C31A C32 1_555 1_555
H35A C31A 1_555 1_555
H36A C31A 1_555 1_555
C32A C31 1_555 1_555
H37A C32A 1_555 1_555
H38A C32A 1_555 1_555
O10A C38A 1_555 1_555
N3A C33A 1_555 1_555
N4A C38A 1_555 1_555
C33A H39A 1_555 1_555
C34A C33A 1_555 1_555
H40A C34A 1_555 1_555
C35A C34A 1_555 1_555
C36A C35A 1_555 1_555
H41A C36A 1_555 1_555
C37A N3A 1_555 1_555
H42A C37A 1_555 1_555
C38A C35A 1_555 1_555
C39A C40 1_555 1_555
H43A C39A 1_555 1_555
H44A C39A 1_555 1_555
C40A C39 1_555 1_555
H45A C40A 1_555 1_555
H46A C40A 1_555 1_555
Co1A N3A 1_555 1_555
O1A Co1A 1_555 1_555
O2A C1A 1_555 1_555
O3A H1A 1_555 1_555
O4A C8A 1_555 1_555
O5A Co1A 1_555 1_555
O6A C13A 1_555 1_555
O7A H2A 1_555 1_555
O8A C20A 1_555 1_555
O11A Co1A 1_555 1_555
H3A O11A 1_555 1_555
H4A O11A 1_555 1_555
O12A Co1A 1_555 1_555
H5A O12A 1_555 1_555
H6A O12A 1_555 1_555
C1A O1A 1_555 1_555
C2A C1A 1_555 1_555
C3A C2A 1_555 1_555
H7A C3A 1_555 1_555
C4A C3A 1_555 1_555
C5A C4A 1_555 1_555
H8A C5A 1_555 1_555
C6A C5A 1_555 1_555
C7A C2A 1_555 1_555
H9A C7A 1_555 1_555
C8A O3A 1_555 1_555
C9A C4A 1_555 1_555
C10A C9A 1_555 1_555
H10A C10A 1_555 1_555
H11A C10A 1_555 1_555
H12A C10A 1_555 1_555
C11A C9A 1_555 1_555
H13A C11A 1_555 1_555
H14A C11A 1_555 1_555
H15A C11A 1_555 1_555
C12A C9A 1_555 1_555
H16A C12A 1_555 1_555
H17A C12A 1_555 1_555
H18A C12A 1_555 1_555
C13A O5A 1_555 1_555
C14A C13A 1_555 1_555
C15A C14A 1_555 1_555
H19A C15A 1_555 1_555
C16A C15A 1_555 1_555
C17A C16A 1_555 1_555
H20A C17A 1_555 1_555
C18A C17A 1_555 1_555
C19A C14A 1_555 1_555
H21A C19A 1_555 1_555
C20A O7A 1_555 1_555
C21A C18A 1_555 1_555
C22A C21A 1_555 1_555
H22A C22A 1_555 1_555
H23A C22A 1_555 1_555
H24A C22A 1_555 1_555
C23A C21A 1_555 1_555
H25A C23A 1_555 1_555
H26A C23A 1_555 1_555
H27A C23A 1_555 1_555
C24A C21A 1_555 1_555
H28A C24A 1_555 1_555
H29A C24A 1_555 1_555
H30A C24A 1_555 1_555
Co1A_2 N1A 1_555 1_555
N1A_2 Co1A 1_555 1_555
C6 C7 1_555 1_555
C6 C8 1_555 1_555
C16 C20 1_555 1_555
C18 C19 1_555 1_555
C28 C29 1_555 1_555
C36 C37 1_555 1_555
N2A C31A 1_555 1_555
N2A C32A 1_555 1_555
C28A C29A 1_555 1_555
N4A C39A 1_555 1_555
N4A C40A 1_555 1_555
C36A C37A 1_555 1_555
C6A C7A 1_555 1_555
C6A C8A 1_555 1_555
C16A C20A 1_555 1_555
C18A C19A 1_555 1_555

#END
