
#######################################################################
#
#                 Cambridge Crystallographic Data Centre
#                                CCDC 
#
#######################################################################
#
# If this CIF has been generated from an entry in the Cambridge 
# Structural Database, then it will include bibliographic, chemical, 
# crystal, experimental, refinement or atomic coordinate data resulting 
# from the CCDC's data processing and validation procedures.
#
#######################################################################

data_VOXLAX
_symmetry_cell_setting           triclinic
_symmetry_space_group_name_H-M   'P -1'
_symmetry_Int_Tables_number      2
_space_group_name_Hall           '-P 1'
loop_
_symmetry_equiv_pos_site_id
_symmetry_equiv_pos_as_xyz
1 x,y,z
2 -x,-y,-z
_cell_length_a                   10.1339(6)
_cell_length_b                   10.3463(6)
_cell_length_c                   11.5052(7)
_cell_angle_alpha                68.2050(10)
_cell_angle_beta                 83.8130(10)
_cell_angle_gamma                68.6800(10)
_cell_volume                     1042.9
loop_
_atom_site_label
_atom_site_type_symbol
_atom_site_fract_x
_atom_site_fract_y
_atom_site_fract_z
Ni1 Ni 0.122178(19) 0.74340(2) 0.526866(17)
O1 O 0.13137(15) 0.18678(14) 1.10253(12)
O2 O 0.86026(13) 0.63865(13) 0.53747(12)
O3 O 0.16441(13) 0.63079(13) 0.40428(11)
H1 H 0.2487(17) 0.610(2) 0.3818(19)
H2 H 0.144(2) 0.5546(19) 0.4291(19)
O4 O 0.91560(11) 0.84315(12) 0.46993(11)
O5 O 0.07488(12) 0.87630(13) 0.63758(11)
H3 H 0.095(2) 0.9525(19) 0.6001(18)
H4 H -0.0090(17) 0.901(2) 0.6534(19)
O6 O 0.20150(11) 0.90335(12) 0.39145(10)
O7 O 0.34064(11) 0.71098(12) 0.53800(11)
N1 N 0.10584(15) 0.06286(15) 0.98507(13)
N2 N 0.12255(14) 0.56244(14) 0.68128(12)
C1 C 0.5026(2) 1.2000(2) 0.03148(17)
H5 H 0.4862 1.2929 -0.0406
H6 H 0.4280 1.1604 0.0325
H7 H 0.5951 1.1276 0.0250
C2 C 0.35522(19) 1.3432(2) 0.16303(19)
H8 H 0.3537 1.3624 0.2405
H9 H 0.2809 1.3030 0.1642
H10 H 0.3384 1.4361 0.0910
C3 C 0.01513(18) 0.45138(19) 0.86800(16)
H11 H -0.0577 0.4630 0.9266
C4 C 0.61415(19) 1.2973(2) 0.14897(19)
H12 H 0.6131 1.3162 0.2265
H13 H 0.5943 1.3909 0.0772
H14 H 0.7076 1.2275 0.1407
C5 C 0.50039(17) 1.23016(19) 0.15280(16)
C6 C 0.11647(17) 0.18206(18) 1.00018(15)
C7 C 0.03965(18) 0.07081(18) 0.87384(15)
H15 H 0.0973 -0.0142 0.8485
H16 H 0.0354 0.1637 0.8035
C8 C 0.10908(18) -0.06712(18) 1.09705(15)
H17 H 0.1499 -0.0626 1.1693
H18 H 0.1701 -0.1591 1.0829
C9 C 0.11641(17) 0.31257(18) 0.88403(15)
C10 C 0.65751(16) 1.00292(17) 0.32639(14)
H19 H 0.7308 1.0438 0.3037
C11 C 0.02141(17) 0.57232(19) 0.76594(16)
H20 H -0.0491 0.6668 0.7552
C12 C 0.22184(18) 0.30141(18) 0.79718(16)
H21 H 0.2934 0.2082 0.8057
C13 C 0.52650(17) 1.08250(17) 0.26310(15)
C14 C 0.44225(16) 0.88754(17) 0.40037(14)
C15 C 0.57548(16) 0.80761(17) 0.45999(14)
H22 H 0.5920 0.7144 0.5262
C16 C 0.32244(16) 0.83090(17) 0.44487(14)
C17 C 0.41932(16) 1.02193(18) 0.30106(15)
H23 H 0.3295 1.0733 0.2584
C18 C 0.82995(16) 0.77328(17) 0.48195(14)
C19 C 0.22090(17) 0.42827(18) 0.69811(15)
H24 H 0.2936 0.4200 0.6389
C20 C 0.68391(16) 0.86492(17) 0.42213(14)
O1A O -0.13137(15) -0.18678(14) 0.89747(12)
N1A N -0.10584(15) -0.06286(15) 1.01493(13)
N2A N -0.12255(14) -0.56244(14) 1.31872(12)
C3A C -0.01513(18) -0.45138(19) 1.13200(16)
H11A H 0.0577 -0.4630 1.0734
C6A C -0.11647(17) -0.18206(18) 0.99982(15)
C7A C -0.03965(18) -0.07081(18) 1.12616(15)
H15A H -0.0973 0.0142 1.1515
H16A H -0.0354 -0.1637 1.1965
C8A C -0.10908(18) 0.06712(18) 0.90295(15)
H17A H -0.1499 0.0626 0.8307
H18A H -0.1701 0.1591 0.9171
C9A C -0.11641(17) -0.31257(18) 1.11597(15)
C11A C -0.02141(17) -0.57232(19) 1.23406(16)
H20A H 0.0491 -0.6668 1.2448
C12A C -0.22184(18) -0.30141(18) 1.20282(16)
H21A H -0.2934 -0.2082 1.1943
C19A C -0.22090(17) -0.42827(18) 1.30189(15)
H24A H -0.2936 -0.4200 1.3611
Ni1A Ni -0.122178(19) -0.74340(2) 1.473134(17)
O2A O -0.86026(13) -0.63865(13) 1.46253(12)
O3A O -0.16441(13) -0.63079(13) 1.59572(11)
H1A H -0.2487(17) -0.610(2) 1.6182(19)
H2A H -0.144(2) -0.5546(19) 1.5709(19)
O4A O -0.91560(11) -0.84315(12) 1.53007(11)
O5A O -0.07488(12) -0.87630(13) 1.36242(11)
H3A H -0.095(2) -0.9525(19) 1.3999(18)
H4A H 0.0090(17) -0.901(2) 1.3466(19)
O6A O -0.20150(11) -0.90335(12) 1.60855(10)
O7A O -0.34064(11) -0.71098(12) 1.46200(11)
C1A C -0.5026(2) -1.2000(2) 1.96852(17)
H5A H -0.4862 -1.2929 2.0406
H6A H -0.4280 -1.1604 1.9675
H7A H -0.5951 -1.1276 1.9750
C2A C -0.35522(19) -1.3432(2) 1.83697(19)
H8A H -0.3537 -1.3624 1.7595
H9A H -0.2809 -1.3030 1.8358
H10A H -0.3384 -1.4361 1.9090
C4A C -0.61415(19) -1.2973(2) 1.85103(19)
H12A H -0.6131 -1.3162 1.7735
H13A H -0.5943 -1.3909 1.9228
H14A H -0.7076 -1.2275 1.8593
C5A C -0.50039(17) -1.23016(19) 1.84720(16)
C10A C -0.65751(16) -1.00292(17) 1.67361(14)
H19A H -0.7308 -1.0438 1.6963
C13A C -0.52650(17) -1.08250(17) 1.73690(15)
C14A C -0.44225(16) -0.88754(17) 1.59963(14)
C15A C -0.57548(16) -0.80761(17) 1.54001(14)
H22A H -0.5920 -0.7144 1.4738
C16A C -0.32244(16) -0.83090(17) 1.55513(14)
C17A C -0.41932(16) -1.02193(18) 1.69894(15)
H23A H -0.3295 -1.0733 1.7416
C18A C -0.82995(16) -0.77328(17) 1.51805(14)
C20A C -0.68391(16) -0.86492(17) 1.57787(14)
Ni1_2 Ni 1.122178(19) 0.74340(2) 0.526866(17)
Ni1A_2 Ni -1.122178(19) -0.74340(2) 1.473134(17)
O4_2 O -0.08440(11) 0.84315(12) 0.46993(11)
O4A_2 O 0.08440(11) -0.84315(12) 1.53007(11)
O8 O 0.44512(14) 0.55235(16) 0.33097(15)
loop_
_geom_bond_atom_site_label_1
_geom_bond_atom_site_label_2
_geom_bond_site_symmetry_1
_geom_bond_site_symmetry_2
Ni1 O3 1_555 1_555
O1 C6 1_555 1_555
O2 C18 1_555 1_555
O3 H1 1_555 1_555
H2 O3 1_555 1_555
O4 C18 1_555 1_555
O5 Ni1 1_555 1_555
H3 O5 1_555 1_555
H4 O5 1_555 1_555
O6 Ni1 1_555 1_555
O7 Ni1 1_555 1_555
N1 C6 1_555 1_555
N2 Ni1 1_555 1_555
C1 H5 1_555 1_555
H6 C1 1_555 1_555
H7 C1 1_555 1_555
C2 H8 1_555 1_555
H9 C2 1_555 1_555
H10 C2 1_555 1_555
C3 H11 1_555 1_555
C4 H12 1_555 1_555
H13 C4 1_555 1_555
H14 C4 1_555 1_555
C5 C1 1_555 1_555
C6 C9 1_555 1_555
C7 N1 1_555 1_555
H15 C7 1_555 1_555
H16 C7 1_555 1_555
C8 N1 1_555 1_555
H17 C8 1_555 1_555
H18 C8 1_555 1_555
C9 C3 1_555 1_555
C10 H19 1_555 1_555
C11 N2 1_555 1_555
H20 C11 1_555 1_555
C12 C9 1_555 1_555
H21 C12 1_555 1_555
C13 C5 1_555 1_555
C14 C15 1_555 1_555
C15 H22 1_555 1_555
C16 O6 1_555 1_555
C17 C13 1_555 1_555
H23 C17 1_555 1_555
C18 C20 1_555 1_555
C19 N2 1_555 1_555
H24 C19 1_555 1_555
C20 C10 1_555 1_555
O1A C6A 1_555 1_555
N1A C6A 1_555 1_555
N2A C11A 1_555 1_555
C3A H11A 1_555 1_555
C6A C9A 1_555 1_555
C7A C8 1_555 1_555
H15A C7A 1_555 1_555
H16A C7A 1_555 1_555
C8A C7 1_555 1_555
H17A C8A 1_555 1_555
H18A C8A 1_555 1_555
C9A C3A 1_555 1_555
C11A C3A 1_555 1_555
H20A C11A 1_555 1_555
C12A C9A 1_555 1_555
H21A C12A 1_555 1_555
C19A N2A 1_555 1_555
H24A C19A 1_555 1_555
Ni1A N2A 1_555 1_555
O2A C18A 1_555 1_555
O3A Ni1A 1_555 1_555
H1A O3A 1_555 1_555
H2A O3A 1_555 1_555
O4A C18A 1_555 1_555
O5A Ni1A 1_555 1_555
H3A O5A 1_555 1_555
H4A O5A 1_555 1_555
O6A Ni1A 1_555 1_555
O7A Ni1A 1_555 1_555
C1A H5A 1_555 1_555
H6A C1A 1_555 1_555
H7A C1A 1_555 1_555
C2A H8A 1_555 1_555
H9A C2A 1_555 1_555
H10A C2A 1_555 1_555
C4A H12A 1_555 1_555
H13A C4A 1_555 1_555
H14A C4A 1_555 1_555
C5A C1A 1_555 1_555
C10A H19A 1_555 1_555
C13A C5A 1_555 1_555
C14A C15A 1_555 1_555
C15A H22A 1_555 1_555
C16A O6A 1_555 1_555
C17A C13A 1_555 1_555
H23A C17A 1_555 1_555
C18A C20A 1_555 1_555
C20A C10A 1_555 1_555
Ni1_2 O4 1_555 1_555
Ni1A_2 O4A 1_555 1_555
O4_2 Ni1 1_555 1_555
O4A_2 Ni1A 1_555 1_555
O7 C16 1_555 1_555
C2 C5 1_555 1_555
C3 C11 1_555 1_555
C4 C5 1_555 1_555
C10 C13 1_555 1_555
C12 C19 1_555 1_555
C14 C16 1_555 1_555
C14 C17 1_555 1_555
C15 C20 1_555 1_555
N1A C7A 1_555 1_555
N1A C8A 1_555 1_555
C12A C19A 1_555 1_555
O7A C16A 1_555 1_555
C2A C5A 1_555 1_555
C4A C5A 1_555 1_555
C10A C13A 1_555 1_555
C14A C16A 1_555 1_555
C14A C17A 1_555 1_555
C15A C20A 1_555 1_555

#END
