
#######################################################################
#
#                 Cambridge Crystallographic Data Centre
#                                CCDC 
#
#######################################################################
#
# If this CIF has been generated from an entry in the Cambridge 
# Structural Database, then it will include bibliographic, chemical, 
# crystal, experimental, refinement or atomic coordinate data resulting 
# from the CCDC's data processing and validation procedures.
#
#######################################################################

data_VOXPOP
_symmetry_cell_setting           triclinic
_symmetry_space_group_name_H-M   'P -1'
_symmetry_Int_Tables_number      2
_space_group_name_Hall           '-P 1'
loop_
_symmetry_equiv_pos_site_id
_symmetry_equiv_pos_as_xyz
1 x,y,z
2 -x,-y,-z
_cell_length_a                   8.4294(5)
_cell_length_b                   10.3916(6)
_cell_length_c                   14.7863(9)
_cell_angle_alpha                76.9280(10)
_cell_angle_beta                 76.0510(10)
_cell_angle_gamma                83.3260(10)
_cell_volume                     1221.83
loop_
_atom_site_label
_atom_site_type_symbol
_atom_site_fract_x
_atom_site_fract_y
_atom_site_fract_z
Cd1 Cd 0.65078(3) 0.74950(2) -0.162462(15)
N1 N 0.7970(3) 0.6937(3) -0.04755(19)
N2 N 0.8677(3) 0.5863(3) 0.08415(19)
N3 N 0.7196(4) 0.2577(3) 0.3248(2)
N4 N 0.5377(3) 0.2057(3) 0.2565(2)
O1 O 0.6079(3) 0.9965(2) -0.16476(19)
O2 O 0.8281(3) 0.9130(2) -0.24963(16)
O3 O 0.6261(3) 1.4657(2) -0.12898(17)
O4 O 0.7739(3) 1.5991(2) -0.24973(16)
O5 O 0.4122(3) 0.7250(3) -0.03805(19)
H1 H 0.376(5) 0.797(2) -0.019(3)
H2 H 0.405(5) 0.667(3) 0.0143(17)
C1 C 0.7380(4) 1.0099(3) -0.2279(2)
C2 C 0.7856(4) 1.1484(3) -0.2770(2)
C3 C 0.7317(4) 1.2496(3) -0.2266(2)
H3 H 0.6628 1.2303 -0.1665
C4 C 0.7778(4) 1.3778(3) -0.2634(2)
C5 C 0.8809(4) 1.4047(3) -0.3521(2)
H4 H 0.9149 1.4900 -0.3775
C6 C 0.9345(4) 1.3065(3) -0.4038(2)
H5 H 1.0038 1.3270 -0.4637
C7 C 0.8872(4) 1.1777(3) -0.3683(2)
C8 C 0.7209(4) 1.4876(3) -0.2087(2)
C9 C 0.9454(4) 1.0824(3) -0.4335(2)
C10 C 0.8366(4) 1.0076(3) -0.4537(2)
H6 H 0.7266 1.0117 -0.4230
C11 C 1.1088(4) 1.0729(3) -0.4806(2)
H7 H 1.1833 1.1218 -0.4678
C12 C 0.9379(4) 0.7418(4) -0.0409(3)
H8 H 0.9948 0.8088 -0.0853
C13 C 0.9804(5) 0.6763(4) 0.0402(3)
H9 H 1.0704 0.6902 0.0620
C14 C 0.7602(4) 0.5996(3) 0.0290(2)
H10 H 0.6703 0.5487 0.0429
C15 C 0.8561(5) 0.4951(4) 0.1754(2)
H11 H 0.9655 0.4609 0.1823
H12 H 0.7956 0.4209 0.1759
C16 C 0.7724(4) 0.5575(4) 0.2602(2)
C17 C 0.7162(5) 0.6890(4) 0.2490(3)
H13 H 0.7276 0.7414 0.1882
C18 C 0.6431(6) 0.7437(4) 0.3274(3)
H14 H 0.6035 0.8319 0.3187
C19 C 0.6288(5) 0.6690(5) 0.4171(3)
H15 H 0.5837 0.7069 0.4697
C20 C 0.6814(5) 0.5378(4) 0.4293(3)
H16 H 0.6696 0.4870 0.4907
C21 C 0.7518(4) 0.4788(4) 0.3525(2)
C22 C 0.8051(5) 0.3331(4) 0.3695(3)
H17 H 0.9222 0.3223 0.3443
H18 H 0.7840 0.2974 0.4375
C23 C 0.7874(5) 0.1515(4) 0.2852(3)
H19 H 0.8904 0.1091 0.2867
C24 C 0.6751(5) 0.1207(4) 0.2437(3)
H20 H 0.6885 0.0521 0.2111
C25 C 0.5690(4) 0.2869(3) 0.3053(2)
H21 H 0.4970 0.3558 0.3241
O1A O 1.3921(3) 1.0035(2) -0.83524(19)
O2A O 1.1719(3) 1.0870(2) -0.75037(16)
O3A O 1.3739(3) 0.5343(2) -0.87102(17)
O4A O 1.2261(3) 0.4009(2) -0.75027(16)
C1A C 1.2620(4) 0.9901(3) -0.7721(2)
C2A C 1.2144(4) 0.8516(3) -0.7230(2)
C3A C 1.2683(4) 0.7504(3) -0.7734(2)
H3A H 1.3372 0.7697 -0.8335
C4A C 1.2222(4) 0.6222(3) -0.7366(2)
C5A C 1.1191(4) 0.5953(3) -0.6479(2)
H4A H 1.0851 0.5100 -0.6225
C6A C 1.0655(4) 0.6935(3) -0.5962(2)
H5A H 0.9962 0.6730 -0.5363
C7A C 1.1128(4) 0.8223(3) -0.6317(2)
C8A C 1.2791(4) 0.5124(3) -0.7913(2)
C9A C 1.0546(4) 0.9176(3) -0.5665(2)
C10A C 1.1634(4) 0.9924(3) -0.5463(2)
H6A H 1.2734 0.9883 -0.5770
C11A C 0.8912(4) 0.9271(3) -0.5194(2)
H7A H 0.8167 0.8782 -0.5322
Cd1A Cd 0.34922(3) 0.25050(2) 0.162462(15)
N1A N 0.2030(3) 0.3063(3) 0.04755(19)
N2A N 0.1323(3) 0.4137(3) -0.08415(19)
N3A N 0.2804(4) 0.7423(3) -0.3248(2)
N4A N 0.4623(3) 0.7943(3) -0.2565(2)
O5A O 0.5878(3) 0.2750(3) 0.03805(19)
H1A H 0.624(5) 0.203(2) 0.019(3)
H2A H 0.595(5) 0.333(3) -0.0143(17)
C12A C 0.0621(4) 0.2582(4) 0.0409(3)
H8A H 0.0052 0.1912 0.0853
C13A C 0.0196(5) 0.3237(4) -0.0402(3)
H9A H -0.0704 0.3098 -0.0620
C14A C 0.2398(4) 0.4004(3) -0.0290(2)
H10A H 0.3297 0.4513 -0.0429
C15A C 0.1439(5) 0.5049(4) -0.1754(2)
H11A H 0.0345 0.5391 -0.1823
H12A H 0.2044 0.5791 -0.1759
C16A C 0.2276(4) 0.4425(4) -0.2602(2)
C17A C 0.2838(5) 0.3110(4) -0.2490(3)
H13A H 0.2724 0.2586 -0.1882
C18A C 0.3569(6) 0.2563(4) -0.3274(3)
H14A H 0.3965 0.1681 -0.3187
C19A C 0.3712(5) 0.3310(5) -0.4171(3)
H15A H 0.4163 0.2931 -0.4697
C20A C 0.3186(5) 0.4622(4) -0.4293(3)
H16A H 0.3304 0.5130 -0.4907
C21A C 0.2482(4) 0.5212(4) -0.3525(2)
C22A C 0.1949(5) 0.6669(4) -0.3695(3)
H17A H 0.0778 0.6777 -0.3443
H18A H 0.2160 0.7026 -0.4375
C23A C 0.2126(5) 0.8485(4) -0.2852(3)
H19A H 0.1096 0.8909 -0.2867
C24A C 0.3249(5) 0.8793(4) -0.2437(3)
H20A H 0.3115 0.9479 -0.2111
C25A C 0.4310(4) 0.7131(3) -0.3053(2)
H21A H 0.5030 0.6442 -0.3241
Cd1_2 Cd 0.65078(3) 1.74950(2) -0.162462(15)
Cd1A_2 Cd 1.34922(3) 0.25050(2) -0.837538(15)
Cd1A_3 Cd 1.34922(3) 1.25050(2) -0.837538(15)
O1A_2 O 0.3921(3) 0.0035(2) 0.16476(19)
O2A_2 O 0.1719(3) 0.0870(2) 0.24963(16)
O4_2 O 0.7739(3) 0.5991(2) -0.24973(16)
O4A_2 O 0.2261(3) 0.4009(2) 0.24973(16)
O6 O 0.7048(13) 0.0089(11) 0.0351(8)
O7? O 0.6676(13) 0.0133(11) 0.0195(8)
loop_
_geom_bond_atom_site_label_1
_geom_bond_atom_site_label_2
_geom_bond_site_symmetry_1
_geom_bond_site_symmetry_2
Cd1 N1 1_555 1_555
N1 C12 1_555 1_555
N2 C13 1_555 1_555
N3 C22 1_555 1_555
N4 C24 1_555 1_555
O1 Cd1 1_555 1_555
O2 Cd1 1_555 1_555
O3 C8 1_555 1_555
O4 C8 1_555 1_555
O5 Cd1 1_555 1_555
H1 O5 1_555 1_555
H2 O5 1_555 1_555
C1 O1 1_555 1_555
C2 C1 1_555 1_555
C3 C2 1_555 1_555
H3 C3 1_555 1_555
C4 C3 1_555 1_555
C5 C4 1_555 1_555
H4 C5 1_555 1_555
C6 C5 1_555 1_555
H5 C6 1_555 1_555
C7 C2 1_555 1_555
C8 C4 1_555 1_555
C9 C7 1_555 1_555
C10 C9 1_555 1_555
H6 C10 1_555 1_555
C11 C9 1_555 1_555
H7 C11 1_555 1_555
C12 H8 1_555 1_555
C13 C12 1_555 1_555
H9 C13 1_555 1_555
C14 N1 1_555 1_555
H10 C14 1_555 1_555
C15 N2 1_555 1_555
H11 C15 1_555 1_555
H12 C15 1_555 1_555
C16 C15 1_555 1_555
C17 C16 1_555 1_555
H13 C17 1_555 1_555
C18 C17 1_555 1_555
H14 C18 1_555 1_555
C19 C18 1_555 1_555
H15 C19 1_555 1_555
C20 C19 1_555 1_555
H16 C20 1_555 1_555
C21 C16 1_555 1_555
C22 C21 1_555 1_555
H17 C22 1_555 1_555
H18 C22 1_555 1_555
C23 N3 1_555 1_555
H19 C23 1_555 1_555
C24 C23 1_555 1_555
H20 C24 1_555 1_555
C25 N3 1_555 1_555
H21 C25 1_555 1_555
O1A C1A 1_555 1_555
O2A C1A 1_555 1_555
O3A C8A 1_555 1_555
O4A C8A 1_555 1_555
C1A C2A 1_555 1_555
C2A C3A 1_555 1_555
C3A H3A 1_555 1_555
C4A C3A 1_555 1_555
C5A C4A 1_555 1_555
H4A C5A 1_555 1_555
C6A C5A 1_555 1_555
H5A C6A 1_555 1_555
C7A C2A 1_555 1_555
C8A C4A 1_555 1_555
C9A C7A 1_555 1_555
C10A C11 1_555 1_555
H6A C10A 1_555 1_555
C11A C10 1_555 1_555
H7A C11A 1_555 1_555
Cd1A N4 1_555 1_555
N1A Cd1A 1_555 1_555
N2A C13A 1_555 1_555
N3A C22A 1_555 1_555
N4A Cd1 1_555 1_555
O5A Cd1A 1_555 1_555
H1A O5A 1_555 1_555
H2A O5A 1_555 1_555
C12A N1A 1_555 1_555
H8A C12A 1_555 1_555
C13A C12A 1_555 1_555
H9A C13A 1_555 1_555
C14A N1A 1_555 1_555
H10A C14A 1_555 1_555
C15A N2A 1_555 1_555
H11A C15A 1_555 1_555
H12A C15A 1_555 1_555
C16A C15A 1_555 1_555
C17A C16A 1_555 1_555
H13A C17A 1_555 1_555
C18A C17A 1_555 1_555
H14A C18A 1_555 1_555
C19A C18A 1_555 1_555
H15A C19A 1_555 1_555
C20A C19A 1_555 1_555
H16A C20A 1_555 1_555
C21A C16A 1_555 1_555
C22A C21A 1_555 1_555
H17A C22A 1_555 1_555
H18A C22A 1_555 1_555
C23A N3A 1_555 1_555
H19A C23A 1_555 1_555
C24A N4A 1_555 1_555
H20A C24A 1_555 1_555
C25A N3A 1_555 1_555
H21A C25A 1_555 1_555
Cd1_2 O4 1_555 1_555
Cd1A_2 O4A 1_555 1_555
Cd1A_3 O1A 1_555 1_555
O1A_2 Cd1A 1_555 1_555
O2A_2 Cd1A 1_555 1_555
O4_2 Cd1 1_555 1_555
O4A_2 Cd1A 1_555 1_555
N2 C14 1_555 1_555
N4 C25 1_555 1_555
O2 C1 1_555 1_555
C6 C7 1_555 1_555
C20 C21 1_555 1_555
O2A Cd1A_3 1_555 1_555
C6A C7A 1_555 1_555
C9A C10A 1_555 1_555
C9A C11A 1_555 1_555
N2A C14A 1_555 1_555
N4A C25A 1_555 1_555
C20A C21A 1_555 1_555
C23A C24A 1_555 1_555

#END
