
#######################################################################
#
#                 Cambridge Crystallographic Data Centre
#                                CCDC 
#
#######################################################################
#
# If this CIF has been generated from an entry in the Cambridge 
# Structural Database, then it will include bibliographic, chemical, 
# crystal, experimental, refinement or atomic coordinate data resulting 
# from the CCDC's data processing and validation procedures.
#
#######################################################################

data_VOXQAC
_symmetry_cell_setting           monoclinic
_symmetry_space_group_name_H-M   'C 2/c'
_symmetry_Int_Tables_number      15
_space_group_name_Hall           '-C 2yn'
loop_
_symmetry_equiv_pos_site_id
_symmetry_equiv_pos_as_xyz
1 x,y,z
2 -x,y,1/2-z
3 1/2+x,1/2+y,z
4 1/2-x,1/2+y,1/2-z
5 -x,-y,-z
6 x,-y,1/2+z
7 1/2-x,1/2-y,-z
8 1/2+x,1/2-y,1/2+z
_cell_length_a                   20.735(3)
_cell_length_b                   14.0175(18)
_cell_length_c                   13.709(2)
_cell_angle_alpha                90
_cell_angle_beta                 116.9380(10)
_cell_angle_gamma                90
_cell_volume                     3552.22
loop_
_atom_site_label
_atom_site_type_symbol
_atom_site_fract_x
_atom_site_fract_y
_atom_site_fract_z
Cd1 Cd 0.0000 0.04121(2) 0.7500
O1 O 0.11600(12) 0.02947(16) 0.89445(19)
O2 O 0.10587(14) 0.02533(19) 1.0499(2)
O3 O 0.26999(15) -0.29469(18) 1.1512(2)
H1 H 0.281(2) -0.3512(12) 1.172(3)
O4 O 0.38781(16) -0.2622(2) 1.2354(3)
O5 O -0.02698(15) -0.08210(18) 0.8380(2)
H2 H -0.0554(17) -0.129(2) 0.802(3)
H3 H -0.037(2) -0.055(3) 0.887(3)
N1 N -0.04986(16) 0.1527(2) 0.8154(2)
N2 N -0.07210(17) 0.2575(2) 0.9146(2)
C1 C 0.14024(18) 0.0169(2) 0.9959(3)
C2 C 0.21904(18) -0.0113(2) 1.0564(2)
C3 C 0.23554(18) -0.1051(2) 1.0932(3)
H4 H 0.1983 -0.1471 1.0832
C4 C 0.30661(19) -0.1367(2) 1.1446(3)
C5 C 0.36234(19) -0.0731(2) 1.1617(3)
H5 H 0.4102 -0.0933 1.1977
C6 C 0.3466(2) 0.0205(2) 1.1252(3)
H6 H 0.3841 0.0624 1.1364
C7 C 0.27497(18) 0.0524(2) 1.0717(3)
C8 C 0.3251(2) -0.2374(3) 1.1815(3)
C9 C 0.26098(17) 0.1541(2) 1.0337(3)
C10 C 0.29388(18) 0.1923(2) 0.9748(3)
H7 H 0.3236 0.1539 0.9571
C11 C 0.21656(18) 0.2129(2) 1.0588(3)
H8 H 0.1937 0.1887 1.0982
C12 C -0.0292(2) 0.1867(3) 0.9139(3)
H9 H 0.0105 0.1643 0.9759
C13 C -0.1091(2) 0.2049(3) 0.7495(3)
H10 H -0.1359 0.1971 0.6743
C14 C -0.1226(2) 0.2694(3) 0.8105(3)
H11 H -0.1599 0.3140 0.7853
C15 C -0.0641(3) 0.3172(3) 1.0080(3)
H12 H -0.0334 0.2848 1.0758
H13 H -0.1111 0.3268 1.0056
C16 C -0.0312(2) 0.4132(3) 1.0051(3)
C17 C 0.0432(2) 0.4246(3) 1.0569(3)
H14 H 0.0729 0.3742 1.0959
C18 C -0.0735(2) 0.4890(3) 0.9492(3)
H15 H -0.1236 0.4823 0.9147
O1F O 0.38400(12) 0.47053(16) 1.10555(19)
O2F O 0.39413(14) 0.47467(19) 0.9501(2)
O3F O 0.23001(15) 0.79469(18) 0.8488(2)
H1F H 0.219(2) 0.8512(12) 0.828(3)
O4F O 0.11219(16) 0.7622(2) 0.7646(3)
C1F C 0.35976(18) 0.4831(2) 1.0041(3)
C2F C 0.28096(18) 0.5113(2) 0.9436(2)
C3F C 0.26446(18) 0.6051(2) 0.9068(3)
H4F H 0.3017 0.6471 0.9168
C4F C 0.19339(19) 0.6367(2) 0.8554(3)
C5F C 0.13766(19) 0.5731(2) 0.8383(3)
H5F H 0.0898 0.5933 0.8023
C6F C 0.1534(2) 0.4795(2) 0.8748(3)
H6F H 0.1159 0.4376 0.8636
C7F C 0.22503(18) 0.4476(2) 0.9283(3)
C8F C 0.1749(2) 0.7374(3) 0.8185(3)
C9F C 0.23902(17) 0.3459(2) 0.9663(3)
C10F C 0.20612(18) 0.3077(2) 1.0252(3)
H7F H 0.1764 0.3461 1.0429
C11F C 0.28344(18) 0.2871(2) 0.9412(3)
H8F H 0.3063 0.3113 0.9018
N1D N 0.04986(16) 0.8473(2) 1.1846(2)
N2D N 0.07210(17) 0.7425(2) 1.0854(2)
C12D C 0.0292(2) 0.8133(3) 1.0861(3)
H9D H -0.0105 0.8357 1.0241
C13D C 0.1091(2) 0.7951(3) 1.2505(3)
H10D H 0.1359 0.8029 1.3257
C14D C 0.1226(2) 0.7306(3) 1.1895(3)
H11D H 0.1599 0.6860 1.2147
C15D C 0.0641(3) 0.6828(3) 0.9920(3)
H12D H 0.0334 0.7152 0.9242
H13D H 0.1111 0.6732 0.9944
C16D C 0.0312(2) 0.5868(3) 0.9949(3)
C17D C -0.0432(2) 0.5754(3) 0.9431(3)
H14D H -0.0729 0.6258 0.9041
C18D C 0.0735(2) 0.5110(3) 1.0508(3)
H15D H 0.1236 0.5177 1.0853
O5A O 0.02698(15) -0.08210(18) 0.6620(2)
H2A H 0.0554(17) -0.129(2) 0.698(3)
H3A H 0.037(2) -0.055(3) 0.613(3)
Cd1D Cd 0.0000 0.95879(2) 1.2500
Cd1F Cd 0.5000 0.45879(2) 1.2500
O1A O -0.11600(12) 0.02947(16) 0.60555(19)
N1A N 0.04986(16) 0.1527(2) 0.6846(2)
O6 O 0.20042(17) 0.02875(18) 0.2922(2)
H16 H 0.178(2) 0.020(3) 0.2229(10)
H17 H 0.183(2) 0.012(3) 0.336(3)
loop_
_geom_bond_atom_site_label_1
_geom_bond_atom_site_label_2
_geom_bond_site_symmetry_1
_geom_bond_site_symmetry_2
Cd1 O1 1_555 1_555
O1 C1 1_555 1_555
O2 C1 1_555 1_555
O3 H1 1_555 1_555
O4 C8 1_555 1_555
O5 Cd1 1_555 1_555
H2 O5 1_555 1_555
H3 O5 1_555 1_555
N1 Cd1 1_555 1_555
N2 C12 1_555 1_555
C1 C2 1_555 1_555
C2 C3 1_555 1_555
C3 H4 1_555 1_555
C4 C3 1_555 1_555
C5 C4 1_555 1_555
H5 C5 1_555 1_555
C6 C5 1_555 1_555
H6 C6 1_555 1_555
C7 C2 1_555 1_555
C8 O3 1_555 1_555
C9 C7 1_555 1_555
C10 C9 1_555 1_555
H7 C10 1_555 1_555
C11 C9 1_555 1_555
H8 C11 1_555 1_555
C12 N1 1_555 1_555
H9 C12 1_555 1_555
C13 N1 1_555 1_555
H10 C13 1_555 1_555
C14 N2 1_555 1_555
H11 C14 1_555 1_555
C15 N2 1_555 1_555
H12 C15 1_555 1_555
H13 C15 1_555 1_555
C16 C15 1_555 1_555
C17 C16 1_555 1_555
H14 C17 1_555 1_555
C18 C16 1_555 1_555
H15 C18 1_555 1_555
O6 H16 1_555 1_555
H17 O6 1_555 1_555
O1F C1F 1_555 1_555
O2F C1F 1_555 1_555
O3F H1F 1_555 1_555
O4F C8F 1_555 1_555
C1F C2F 1_555 1_555
C2F C3F 1_555 1_555
C3F H4F 1_555 1_555
C4F C3F 1_555 1_555
C5F C4F 1_555 1_555
H5F C5F 1_555 1_555
C6F C5F 1_555 1_555
H6F C6F 1_555 1_555
C7F C2F 1_555 1_555
C8F O3F 1_555 1_555
C9F C7F 1_555 1_555
C10F C11 1_555 1_555
H7F C10F 1_555 1_555
C11F C10 1_555 1_555
H8F C11F 1_555 1_555
N1D C12D 1_555 1_555
N2D C12D 1_555 1_555
C12D H9D 1_555 1_555
C13D N1D 1_555 1_555
H10D C13D 1_555 1_555
C14D N2D 1_555 1_555
H11D C14D 1_555 1_555
C15D N2D 1_555 1_555
H12D C15D 1_555 1_555
H13D C15D 1_555 1_555
C16D C15D 1_555 1_555
C17D C18 1_555 1_555
H14D C17D 1_555 1_555
C18D C17 1_555 1_555
H15D C18D 1_555 1_555
O5A Cd1 1_555 1_555
H2A O5A 1_555 1_555
H3A O5A 1_555 1_555
Cd1D N1D 1_555 1_555
Cd1F O1F 1_555 1_555
O1A Cd1 1_555 1_555
N1A Cd1 1_555 1_555
C4 C8 1_555 1_555
C6 C7 1_555 1_555
C13 C14 1_555 1_555
C4F C8F 1_555 1_555
C6F C7F 1_555 1_555
C9F C10F 1_555 1_555
C9F C11F 1_555 1_555
C13D C14D 1_555 1_555
C16D C17D 1_555 1_555
C16D C18D 1_555 1_555

#END
