
#######################################################################
#
#                 Cambridge Crystallographic Data Centre
#                                CCDC 
#
#######################################################################
#
# If this CIF has been generated from an entry in the Cambridge 
# Structural Database, then it will include bibliographic, chemical, 
# crystal, experimental, refinement or atomic coordinate data resulting 
# from the CCDC's data processing and validation procedures.
#
#######################################################################

data_VOXQOQ
_symmetry_cell_setting           monoclinic
_symmetry_space_group_name_H-M   'C 2/c'
_symmetry_Int_Tables_number      15
_space_group_name_Hall           '-C 2yn'
loop_
_symmetry_equiv_pos_site_id
_symmetry_equiv_pos_as_xyz
1 x,y,z
2 -x,y,1/2-z
3 1/2+x,1/2+y,z
4 1/2-x,1/2+y,1/2-z
5 -x,-y,-z
6 x,-y,1/2+z
7 1/2-x,1/2-y,-z
8 1/2+x,1/2-y,1/2+z
_cell_length_a                   12.5382(7)
_cell_length_b                   16.2052(7)
_cell_length_c                   20.0829(10)
_cell_angle_alpha                90
_cell_angle_beta                 94.732(5)
_cell_angle_gamma                90
_cell_volume                     4066.62
loop_
_atom_site_label
_atom_site_type_symbol
_atom_site_fract_x
_atom_site_fract_y
_atom_site_fract_z
Zn1 Zn -0.5000 -0.33152(3) 1.2500
Zn2 Zn -0.71153(3) -0.59019(2) 1.412052(17)
C1 C -0.5852(2) -0.45809(18) 1.34332(15)
C2 C -0.4817(3) -0.4685(2) 1.38416(17)
H1 H -0.4892 -0.5101 1.4175
H2 H -0.4616 -0.4172 1.4056
H3 H -0.4275 -0.4850 1.3558
C3 C -0.8427(2) -0.7039(2) 1.31400(15)
C4 C -0.7816(3) -0.6924(3) 1.25480(17)
H4 H -0.8100 -0.7279 1.2194
H5 H -0.7077 -0.7058 1.2662
H6 H -0.7872 -0.6360 1.2403
C5 C -0.5352(3) -0.6784(2) 1.41628(18)
C6 C -0.4266(3) -0.7120(2) 1.43841(16)
C7 C -0.3697(3) -0.7584(2) 1.39366(17)
H7 H -0.4007 -0.7692 1.3509
C8 C -0.2704(3) -0.7876(2) 1.41223(16)
H8 H -0.2335 -0.8173 1.3819
C9 C -0.2225(3) -0.7731(2) 1.47739(15)
C10 C -0.1185(3) -0.8033(2) 1.49839(16)
H9 H -0.0808 -0.8337 1.4689
C11 C -0.8138(3) -0.5605(2) 1.53917(17)
C12 C -0.7901(3) -0.6458(2) 1.56321(19)
H10 H -0.7479 -0.6736 1.5324
H11 H -0.8560 -0.6752 1.5664
H12 H -0.7512 -0.6437 1.6064
C13 C -0.9205(4) -0.5350(4) 1.6351(2)
H13 H -0.9026 -0.5912 1.6460
H14 H -0.9968 -0.5294 1.6278
H15 H -0.8942 -0.4997 1.6712
C14 C -0.8897(5) -0.4256(3) 1.5511(3)
H16 H -0.8546 -0.4165 1.5111
H17 H -0.8615 -0.3882 1.5852
H18 H -0.9651 -0.4164 1.5423
N1 N -0.6748(2) -0.49926(15) 1.35097(12)
N2 N -0.7485(2) -0.47085(17) 1.30191(14)
N3 N -0.7047(2) -0.41516(17) 1.26776(13)
N4 N -0.6010(2) -0.40462(15) 1.29260(12)
N5 N -0.8265(2) -0.66531(15) 1.37221(13)
N6 N -0.9006(2) -0.69464(17) 1.41162(13)
N7 N -0.9591(2) -0.74882(17) 1.37839(13)
N8 N -0.9239(2) -0.75601(15) 1.31629(12)
N9 N -0.8709(3) -0.5112(2) 1.57390(15)
O1 O -0.58334(18) -0.63740(14) 1.45873(12)
O2 O -0.57310(19) -0.68893(16) 1.35815(12)
O3 O -0.77969(18) -0.53489(13) 1.48561(11)
C5F C 0.0352(3) -0.8216(2) 1.58372(18)
C6F C -0.0734(3) -0.7880(2) 1.56159(16)
C7F C -0.1303(3) -0.7416(2) 1.60634(17)
H7F H -0.0993 -0.7308 1.6491
C8F C -0.2296(3) -0.7124(2) 1.58777(16)
H8F H -0.2665 -0.6827 1.6181
C9F C -0.2775(3) -0.7269(2) 1.52261(15)
C10F C -0.3815(3) -0.6967(2) 1.50161(16)
H9F H -0.4192 -0.6663 1.5311
O1F O 0.08334(18) -0.86260(14) 1.54127(12)
O2F O 0.07310(19) -0.81107(16) 1.64185(12)
Zn2A Zn -0.28847(3) -0.59019(2) 1.087948(17)
C1A C -0.4148(2) -0.45809(18) 1.15668(15)
C2A C -0.5183(3) -0.4685(2) 1.11584(17)
H1A H -0.5108 -0.5101 1.0825
H2A H -0.5384 -0.4172 1.0944
H3A H -0.5725 -0.4850 1.1442
C3A C -0.1573(2) -0.7039(2) 1.18600(15)
C4A C -0.2184(3) -0.6924(3) 1.24520(17)
H4A H -0.1900 -0.7279 1.2806
H5A H -0.2923 -0.7058 1.2338
H6A H -0.2128 -0.6360 1.2597
C11A C -0.1862(3) -0.5605(2) 0.96083(17)
C12A C -0.2099(3) -0.6458(2) 0.93679(19)
H10A H -0.2521 -0.6736 0.9676
H11A H -0.1440 -0.6752 0.9336
H12A H -0.2488 -0.6437 0.8936
C13A C -0.0795(4) -0.5350(4) 0.8649(2)
H13A H -0.0974 -0.5912 0.8540
H14A H -0.0032 -0.5294 0.8722
H15A H -0.1058 -0.4997 0.8288
C14A C -0.1103(5) -0.4256(3) 0.9489(3)
H16A H -0.1454 -0.4165 0.9889
H17A H -0.1385 -0.3882 0.9148
H18A H -0.0349 -0.4164 0.9577
N1A N -0.3252(2) -0.49926(15) 1.14903(12)
N2A N -0.2515(2) -0.47085(17) 1.19809(14)
N3A N -0.2953(2) -0.41516(17) 1.23224(13)
N4A N -0.3990(2) -0.40462(15) 1.20740(12)
N5A N -0.1735(2) -0.66531(15) 1.12779(13)
N6A N -0.0994(2) -0.69464(17) 1.08838(13)
N7A N -0.0409(2) -0.74882(17) 1.12161(13)
N8A N -0.0761(2) -0.75601(15) 1.18371(12)
N9A N -0.1291(3) -0.5112(2) 0.92610(15)
O3A O -0.22031(18) -0.53489(13) 1.01439(11)
Zn1B Zn -1.0000 -0.83152(3) 1.2500
Zn1B_2 Zn 0.0000 -0.83152(3) 1.2500
Zn2F Zn 0.21153(3) -0.90981(2) 1.587948(17)
N8B N -0.4239(2) -0.25601(15) 1.31629(12)
N8C N -0.5761(2) -0.25601(15) 1.18371(12)
O1A O -0.41666(18) -0.63740(14) 1.04127(12)
loop_
_geom_bond_atom_site_label_1
_geom_bond_atom_site_label_2
_geom_bond_site_symmetry_1
_geom_bond_site_symmetry_2
Zn1 N4 1_555 1_555
Zn2 N1 1_555 1_555
C1 C2 1_555 1_555
C2 H1 1_555 1_555
H2 C2 1_555 1_555
H3 C2 1_555 1_555
C3 C4 1_555 1_555
C4 H4 1_555 1_555
H5 C4 1_555 1_555
H6 C4 1_555 1_555
C5 C6 1_555 1_555
C6 C7 1_555 1_555
C7 H7 1_555 1_555
C8 C7 1_555 1_555
H8 C8 1_555 1_555
C9 C8 1_555 1_555
C10 C9 1_555 1_555
H9 C10 1_555 1_555
C11 C12 1_555 1_555
C12 H10 1_555 1_555
H11 C12 1_555 1_555
H12 C12 1_555 1_555
C13 H13 1_555 1_555
H14 C13 1_555 1_555
H15 C13 1_555 1_555
C14 H16 1_555 1_555
H17 C14 1_555 1_555
H18 C14 1_555 1_555
N1 C1 1_555 1_555
N2 N1 1_555 1_555
N3 N2 1_555 1_555
N4 C1 1_555 1_555
N5 Zn2 1_555 1_555
N6 N5 1_555 1_555
N7 N6 1_555 1_555
N8 C3 1_555 1_555
N9 C11 1_555 1_555
O1 Zn2 1_555 1_555
O2 C5 1_555 1_555
O3 Zn2 1_555 1_555
C5F C6F 1_555 1_555
C6F C10 1_555 1_555
C7F C6F 1_555 1_555
H7F C7F 1_555 1_555
C8F C7F 1_555 1_555
H8F C8F 1_555 1_555
C9F C9 1_555 1_555
C10F C6 1_555 1_555
H9F C10F 1_555 1_555
O1F C5F 1_555 1_555
O2F C5F 1_555 1_555
Zn2A N1A 1_555 1_555
C1A C2A 1_555 1_555
C2A H1A 1_555 1_555
H2A C2A 1_555 1_555
H3A C2A 1_555 1_555
C3A C4A 1_555 1_555
C4A H4A 1_555 1_555
H5A C4A 1_555 1_555
H6A C4A 1_555 1_555
C11A C12A 1_555 1_555
C12A H10A 1_555 1_555
H11A C12A 1_555 1_555
H12A C12A 1_555 1_555
C13A H13A 1_555 1_555
H14A C13A 1_555 1_555
H15A C13A 1_555 1_555
C14A H16A 1_555 1_555
H17A C14A 1_555 1_555
H18A C14A 1_555 1_555
N1A C1A 1_555 1_555
N2A N1A 1_555 1_555
N3A N2A 1_555 1_555
N4A Zn1 1_555 1_555
N5A Zn2A 1_555 1_555
N6A N5A 1_555 1_555
N7A N6A 1_555 1_555
N8A C3A 1_555 1_555
N9A C11A 1_555 1_555
O3A Zn2A 1_555 1_555
Zn1B N8 1_555 1_555
Zn1B_2 N8A 1_555 1_555
Zn2F O1F 1_555 1_555
N8B Zn1 1_555 1_555
N8C Zn1 1_555 1_555
O1A Zn2A 1_555 1_555
C3 N5 1_555 1_555
C5 O1 1_555 1_555
C11 O3 1_555 1_555
C13 N9 1_555 1_555
C14 N9 1_555 1_555
N3 N4 1_555 1_555
N7 N8 1_555 1_555
C8F C9F 1_555 1_555
C9F C10F 1_555 1_555
C1A N4A 1_555 1_555
C3A N5A 1_555 1_555
C11A O3A 1_555 1_555
C13A N9A 1_555 1_555
C14A N9A 1_555 1_555
N3A N4A 1_555 1_555
N7A N8A 1_555 1_555

#END
