
#######################################################################
#
#                 Cambridge Crystallographic Data Centre
#                                CCDC 
#
#######################################################################
#
# If this CIF has been generated from an entry in the Cambridge 
# Structural Database, then it will include bibliographic, chemical, 
# crystal, experimental, refinement or atomic coordinate data resulting 
# from the CCDC's data processing and validation procedures.
#
#######################################################################

data_VOXTEH
_symmetry_cell_setting           triclinic
_symmetry_space_group_name_H-M   'P -1'
_symmetry_Int_Tables_number      2
_space_group_name_Hall           '-P 1'
loop_
_symmetry_equiv_pos_site_id
_symmetry_equiv_pos_as_xyz
1 x,y,z
2 -x,-y,-z
_cell_length_a                   5.2794(1)
_cell_length_b                   9.9297(1)
_cell_length_c                   11.3376(2)
_cell_angle_alpha                71.004(4)
_cell_angle_beta                 76.459(2)
_cell_angle_gamma                74.601(4)
_cell_volume                     534.647
loop_
_atom_site_label
_atom_site_type_symbol
_atom_site_fract_x
_atom_site_fract_y
_atom_site_fract_z
Hg1 Hg 0.2108(1) 0.4240(1) 0.4584(1)
Hg2 Hg -0.4066(1) 0.0759(1) 0.0415(1)
N1 N -0.1668(13) 0.0445(10) 0.1957(9)
N2 N 0.2310(13) 0.2012(10) 0.4121(9)
N3 N 0.5249(14) 0.2515(10) 0.6024(9)
N4 N 0.5726(13) 0.4482(9) 0.3028(10)
N5 N -0.6577(13) 0.3018(10) 0.0878(9)
N6 N -0.1230(14) 0.2439(10) -0.0932(11)
C1 C -0.0133(14) 0.0216(10) 0.2565(10)
C2 C 0.2063(14) 0.1062(10) 0.3802(9)
C3 C 0.6564(14) 0.1424(11) 0.6335(10)
C4 C 0.1807(14) -0.0056(10) 0.3339(10)
C5 C 0.7722(14) 0.4709(10) 0.2404(9)
C6 C -0.8063(14) 0.3911(10) 0.1248(9)
C7 C -0.0683(14) 0.3572(10) -0.1283(10)
C8 C 1.0055(14) 0.5021(10) 0.1680(9)
Hg1A Hg -0.2108(1) 0.5760(1) 0.5416(1)
C4A C 0.8193(14) 0.0056(10) 0.6661(10)
C3A C 0.3436(14) -0.1424(11) 0.3665(10)
Hg2A Hg -0.5934(1) -0.0759(1) -0.0415(1)
C8_2 C -0.9945(14) 0.5021(10) 0.1680(9)
C8A C -0.0055(14) 0.4979(10) -0.1680(9)
C6_2 C 1.1937(14) 0.3911(10) 0.1248(9)
C7A C 1.0683(14) 0.6428(10) 0.1283(10)
N2A N -0.2310(13) 0.7988(10) 0.5879(9)
N3A N -0.5249(14) 0.7485(10) 0.3976(9)
N4A N -0.5726(13) 0.5518(9) 0.6972(10)
C1A C 1.0133(14) -0.0216(10) 0.7435(10)
C2A C 0.7937(14) -0.1062(10) 0.6198(9)
N3A_2 N 0.4751(14) -0.2515(10) 0.3976(9)
N1A N -0.8332(13) -0.0445(10) -0.1957(9)
N5A N -0.3423(13) -0.3018(10) -0.0878(9)
N6A N -0.8770(14) -0.2439(10) 0.0932(11)
C5A C 0.2278(14) 0.5291(10) -0.2404(9)
C6A C -0.1937(14) 0.6089(10) -0.1248(9)
N6A_2 N 1.1230(14) 0.7561(10) 0.0932(11)
C2A_2 C -0.2063(14) 0.8938(10) 0.6198(9)
C3A_2 C -0.6564(14) 0.8576(11) 0.3665(10)
C5A_2 C -0.7722(14) 0.5291(10) 0.7596(9)
N1A_2 N 1.1668(13) -0.0445(10) 0.8043(9)
N2A_2 N 0.7690(13) -0.2012(10) 0.5879(9)
C1A_2 C -0.9867(14) -0.0216(10) -0.2565(10)
C6A_2 C -0.1937(14) -0.3911(10) -0.1248(9)
C7A_2 C -0.9317(14) -0.3572(10) 0.1283(10)
N4A_2 N 0.4274(13) 0.5518(9) -0.3028(10)
N5A_2 N -0.3423(13) 0.6982(10) -0.0878(9)
loop_
_geom_bond_atom_site_label_1
_geom_bond_atom_site_label_2
_geom_bond_site_symmetry_1
_geom_bond_site_symmetry_2
Hg1 N2 1_555 1_555
Hg2 N1 1_555 1_555
N1 C1 1_555 1_555
N2 C2 1_555 1_555
N3 Hg1 1_555 1_555
N4 Hg1 1_555 1_555
N5 Hg2 1_555 1_555
N6 Hg2 1_555 1_555
C1 C4 1_555 1_555
C2 C4 1_555 1_555
C3 N3 1_555 1_555
C4 C3A 1_555 1_555
C5 N4 1_555 1_555
C6 N5 1_555 1_555
C7 N6 1_555 1_555
C8 C5 1_555 1_555
Hg1A Hg1 1_555 1_555
C4A C3 1_555 1_555
C3A N3A_2 1_555 1_555
Hg2A Hg2 1_555 1_555
C8_2 C6 1_555 1_555
C8A C7 1_555 1_555
C6_2 C8 1_555 1_555
C7A C8 1_555 1_555
N2A Hg1A 1_555 1_555
N3A Hg1A 1_555 1_555
N4A Hg1A 1_555 1_555
C1A C4A 1_555 1_555
C2A C4A 1_555 1_555
N1A Hg2A 1_555 1_555
N5A Hg2A 1_555 1_555
N6A Hg2A 1_555 1_555
C5A C8A 1_555 1_555
C6A C8A 1_555 1_555
N6A_2 C7A 1_555 1_555
C2A_2 N2A 1_555 1_555
C3A_2 N3A 1_555 1_555
C5A_2 N4A 1_555 1_555
N1A_2 C1A 1_555 1_555
N2A_2 C2A 1_555 1_555
C1A_2 N1A 1_555 1_555
C6A_2 N5A 1_555 1_555
C7A_2 N6A 1_555 1_555
N4A_2 C5A 1_555 1_555
N5A_2 C6A 1_555 1_555

#END
