
#######################################################################
#
#                 Cambridge Crystallographic Data Centre
#                                CCDC 
#
#######################################################################
#
# If this CIF has been generated from an entry in the Cambridge 
# Structural Database, then it will include bibliographic, chemical, 
# crystal, experimental, refinement or atomic coordinate data resulting 
# from the CCDC's data processing and validation procedures.
#
#######################################################################

data_VOXTEJ
_symmetry_cell_setting           monoclinic
_symmetry_space_group_name_H-M   'P 21/n'
_symmetry_Int_Tables_number      14
_space_group_name_Hall           '-P 2yn'
loop_
_symmetry_equiv_pos_site_id
_symmetry_equiv_pos_as_xyz
1 x,y,z
2 1/2-x,1/2+y,1/2-z
3 -x,-y,-z
4 1/2+x,1/2-y,1/2+z
_cell_length_a                   9.671(2)
_cell_length_b                   16.721(3)
_cell_length_c                   9.760(2)
_cell_angle_alpha                90
_cell_angle_beta                 94.855(4)
_cell_angle_gamma                90
_cell_volume                     1572.62
loop_
_atom_site_label
_atom_site_type_symbol
_atom_site_fract_x
_atom_site_fract_y
_atom_site_fract_z
Cu1 Cu 1.26026(5) 0.12372(3) 0.96733(5)
S1 S 0.75882(11) 0.17769(7) 0.46960(12)
O1 O 1.0894(3) 0.16263(18) 1.0414(3)
O2 O 1.1076(3) 0.0364(2) 1.1079(4)
O3 O 1.4213(3) 0.07317(18) 0.8974(3)
O4 O 1.4855(3) 0.19751(18) 0.8514(3)
N1 N 1.1594(4) 0.1297(2) 0.7803(4)
N2 N 0.9920(4) 0.1261(2) 0.6167(4)
N3 N 0.5230(4) 0.1311(2) 0.3240(4)
N4 N 0.3655(4) 0.1410(2) 0.1477(4)
C1 C 1.0368(4) 0.0988(3) 0.7420(4)
H1 H 0.9876 0.0626 0.7951
C2 C 1.1936(5) 0.1791(2) 0.6753(5)
H2 H 1.2766 0.2096 0.6756
C3 C 1.0931(5) 0.1778(3) 0.5733(5)
H3 H 1.0907 0.2060 0.4887
C4 C 0.8672(4) 0.1033(3) 0.5392(5)
C5 C 0.8158(5) 0.0282(3) 0.5142(5)
H4 H 0.8621 -0.0193 0.5456
C6 C 0.6855(5) 0.0292(3) 0.4360(5)
H5 H 0.6340 -0.0173 0.4081
C7 C 0.6436(4) 0.1059(3) 0.4061(4)
C8 C 0.4809(4) 0.1050(3) 0.1951(5)
H6 H 0.5284 0.0660 0.1459
C9 C 0.4290(5) 0.1895(3) 0.3592(5)
H7 H 0.4323 0.2200 0.4416
C10 C 0.3326(5) 0.1936(3) 0.2513(5)
H8 H 0.2535 0.2274 0.2463
C11 C 1.0432(5) 0.1012(3) 1.1013(5)
C12 C 0.9068(5) 0.1111(3) 1.1608(6)
H9 H 0.8879 0.0638 1.2153
H10 H 0.8332 0.1175 1.0862
H11 H 0.9100 0.1586 1.2198
C13 C 1.5083(5) 0.1241(3) 0.8561(5)
C14 C 1.6429(5) 0.0913(3) 0.8133(6)
H12 H 1.6294 0.0721 0.7183
H13 H 1.6735 0.0469 0.8741
H14 H 1.7134 0.1335 0.8198
Cu1_2 Cu 0.26026(5) 0.12372(3) -0.03267(5)
N4_2 N 1.3655(4) 0.1410(2) 1.1477(4)
loop_
_geom_bond_atom_site_label_1
_geom_bond_atom_site_label_2
_geom_bond_site_symmetry_1
_geom_bond_site_symmetry_2
Cu1 O1 1_555 1_555
S1 C4 1_555 1_555
O1 C11 1_555 1_555
O2 Cu1 1_555 1_555
O3 Cu1 1_555 1_555
O4 C13 1_555 1_555
N1 Cu1 1_555 1_555
N2 C1 1_555 1_555
N3 C7 1_555 1_555
N4 C8 1_555 1_555
C1 N1 1_555 1_555
H1 C1 1_555 1_555
C2 N1 1_555 1_555
H2 C2 1_555 1_555
C3 N2 1_555 1_555
H3 C3 1_555 1_555
C4 N2 1_555 1_555
C5 C4 1_555 1_555
H4 C5 1_555 1_555
C6 C5 1_555 1_555
H5 C6 1_555 1_555
C7 S1 1_555 1_555
C8 N3 1_555 1_555
H6 C8 1_555 1_555
C9 N3 1_555 1_555
H7 C9 1_555 1_555
C10 N4 1_555 1_555
H8 C10 1_555 1_555
C11 O2 1_555 1_555
C12 C11 1_555 1_555
H9 C12 1_555 1_555
H10 C12 1_555 1_555
H11 C12 1_555 1_555
C13 O3 1_555 1_555
C14 C13 1_555 1_555
H12 C14 1_555 1_555
H13 C14 1_555 1_555
H14 C14 1_555 1_555
Cu1_2 N4 1_555 1_555
N4_2 Cu1 1_555 1_555
C2 C3 1_555 1_555
C6 C7 1_555 1_555
C9 C10 1_555 1_555

#END
