
#######################################################################
#
#                 Cambridge Crystallographic Data Centre
#                                CCDC 
#
#######################################################################
#
# If this CIF has been generated from an entry in the Cambridge 
# Structural Database, then it will include bibliographic, chemical, 
# crystal, experimental, refinement or atomic coordinate data resulting 
# from the CCDC's data processing and validation procedures.
#
#######################################################################

data_VOXTIN
_symmetry_cell_setting           monoclinic
_symmetry_space_group_name_H-M   'P 21/c'
_symmetry_Int_Tables_number      14
_space_group_name_Hall           '-P 2ybc'
loop_
_symmetry_equiv_pos_site_id
_symmetry_equiv_pos_as_xyz
1 x,y,z
2 -x,1/2+y,1/2-z
3 -x,-y,-z
4 x,1/2-y,1/2+z
_cell_length_a                   16.724(3)
_cell_length_b                   15.975(3)
_cell_length_c                   18.456(4)
_cell_angle_alpha                90
_cell_angle_beta                 91.46(3)
_cell_angle_gamma                90
_cell_volume                     4929.21
loop_
_atom_site_label
_atom_site_type_symbol
_atom_site_fract_x
_atom_site_fract_y
_atom_site_fract_z
Cu1 Cu 0.14375(5) 0.37320(6) 0.37870(5)
Cu2 Cu 0.33291(5) 0.57928(6) 0.35176(5)
S1 S 0.22888(11) 0.63796(13) 0.60466(10)
S2 S 0.25658(12) 0.40177(13) 0.62212(11)
O1 O 0.0590(3) 0.4301(3) 0.3216(2)
O2 O 0.1335(3) 0.5031(4) 0.2464(3)
O3 O 0.2230(3) 0.3076(4) 0.4362(3)
O4 O 0.1095(3) 0.2472(3) 0.4644(3)
O5 O 0.2449(3) 0.6440(3) 0.3909(3)
O6 O 0.3327(4) 0.7356(4) 0.4335(4)
O7 O 0.4254(3) 0.5271(4) 0.3075(3)
O8 O 0.3837(4) 0.3943(4) 0.2972(3)
O9 O 0.2470(3) 0.4651(3) 0.3385(3)
N1 N 0.1179(3) 0.4408(4) 0.4656(3)
N2 N 0.1130(3) 0.5420(4) 0.5430(3)
N3 N 0.2571(4) 0.7842(4) 0.6749(3)
N4 N 0.3133(4) 0.8651(4) 0.7566(4)
N5 N 0.3690(4) 0.5402(5) 0.4492(4)
N6 N 0.3768(4) 0.4685(5) 0.5486(4)
N7 N 0.2142(4) 0.2841(4) 0.7180(3)
N8 N 0.1565(4) 0.2048(4) 0.7969(3)
C1 C 0.1422(4) 0.5165(5) 0.4797(4)
H1 H 0.1748 0.5483 0.4503
C2 C 0.0702(4) 0.4181(5) 0.5222(4)
H2 H 0.0444 0.3668 0.5262
C3 C 0.0662(4) 0.4791(5) 0.5697(4)
H3 H 0.0378 0.4796 0.6124
C4 C 0.1330(4) 0.6181(5) 0.5776(4)
C5 C 0.0816(4) 0.6797(5) 0.5970(4)
H4 H 0.0269 0.6784 0.5870
C6 C 0.1211(4) 0.7459(5) 0.6342(4)
H5 H 0.0953 0.7927 0.6523
C7 C 0.2002(5) 0.7328(5) 0.6402(4)
C8 C 0.2488(5) 0.8213(5) 0.7395(4)
H6 H 0.2041 0.8167 0.7681
C9 C 0.3306(6) 0.8060(6) 0.6500(5)
H7 H 0.3527 0.7894 0.6066
C10 C 0.3644(5) 0.8558(6) 0.7002(4)
H8 H 0.4147 0.8803 0.6974
C11 C 0.3456(4) 0.4726(5) 0.4826(4)
H9 H 0.3113 0.4326 0.4623
C12 C 0.4187(5) 0.5820(6) 0.4989(5)
H10 H 0.4448 0.6322 0.4902
C13 C 0.4233(5) 0.5397(6) 0.5601(5)
H11 H 0.4518 0.5544 0.6022
C14 C 0.3540(5) 0.4094(6) 0.6002(5)
C15 C 0.4001(6) 0.3524(10) 0.6352(8)
H12 H 0.4546 0.3457 0.6283
C16 C 0.3541(7) 0.3032(10) 0.6845(8)
H13 H 0.3758 0.2622 0.7149
C17 C 0.2762(5) 0.3236(6) 0.6814(5)
C18 C 0.2243(5) 0.2370(5) 0.7790(4)
H14 H 0.2726 0.2291 0.8041
C19 C 0.1370(5) 0.2807(6) 0.6977(4)
H15 H 0.1128 0.3068 0.6578
C20 C 0.1013(5) 0.2316(5) 0.7467(4)
H16 H 0.0472 0.2182 0.7463
C21 C 0.0692(5) 0.4762(5) 0.2666(5)
C22 C -0.0060(5) 0.4998(5) 0.2247(4)
C23 C -0.0807(5) 0.4677(6) 0.2431(4)
H17 H -0.0854 0.4289 0.2803
C24 C -0.1483(5) 0.4957(7) 0.2035(5)
H18 H -0.1984 0.4743 0.2141
C25 C -0.1418(6) 0.5538(6) 0.1496(5)
H19 H -0.1876 0.5737 0.1257
C26 C -0.0700(6) 0.5822(6) 0.1312(5)
H20 H -0.0664 0.6209 0.0938
C27 C -0.0008(5) 0.5550(5) 0.1669(5)
H21 H 0.0489 0.5737 0.1521
C28 C 0.1819(6) 0.2524(5) 0.4691(4)
C29 C 0.2283(6) 0.1912(6) 0.5168(5)
C30 C 0.1875(7) 0.1394(6) 0.5614(5)
H22 H 0.1319 0.1414 0.5612
C31 C 0.2273(11) 0.0841(8) 0.6067(7)
H23 H 0.1996 0.0482 0.6368
C32 C 0.3084(16) 0.0837(14) 0.6058(11)
H24 H 0.3361 0.0464 0.6358
C33 C 0.3513(15) 0.1360(16) 0.5624(15)
H25 H 0.4069 0.1358 0.5631
C34 C 0.3079(9) 0.1879(12) 0.5184(11)
H26 H 0.3354 0.2232 0.4875
C35 C 0.4328(5) 0.4517(7) 0.2877(4)
C36 C 0.5077(5) 0.4311(7) 0.2509(5)
C37 C 0.5260(6) 0.3515(7) 0.2367(6)
H27 H 0.4920 0.3089 0.2512
C38 C 0.5951(7) 0.3317(9) 0.2004(7)
H28 H 0.6072 0.2760 0.1911
C39 C 0.6447(8) 0.3922(12) 0.1787(10)
H29 H 0.6899 0.3783 0.1530
C40 C 0.6289(8) 0.4755(12) 0.1943(10)
H30 H 0.6640 0.5177 0.1811
C41 C 0.5575(7) 0.4942(9) 0.2311(8)
H31 H 0.5447 0.5494 0.2417
C42 C 0.2636(5) 0.7130(6) 0.4193(4)
C43 C 0.1939(5) 0.7690(5) 0.4376(4)
C44 C 0.1172(5) 0.7484(6) 0.4159(5)
H32 H 0.1075 0.6980 0.3921
C45 C 0.0548(6) 0.8015(7) 0.4291(6)
H33 H 0.0031 0.7872 0.4141
C46 C 0.0691(8) 0.8766(8) 0.4650(6)
H34 H 0.0265 0.9123 0.4742
C47 C 0.1453(9) 0.8991(7) 0.4873(5)
H35 H 0.1551 0.9490 0.5119
C48 C 0.2072(7) 0.8441(7) 0.4716(5)
H36 H 0.2594 0.8589 0.4846
Cu1C Cu 0.14375(5) 0.12680(6) 0.87870(5)
Cu2C Cu 0.33291(5) 0.92072(6) 0.85176(5)
N4C N 0.3133(4) 0.6349(4) 0.2566(4)
N8C N 0.1565(4) 0.2952(4) 0.2969(3)
loop_
_geom_bond_atom_site_label_1
_geom_bond_atom_site_label_2
_geom_bond_site_symmetry_1
_geom_bond_site_symmetry_2
Cu1 O1 1_555 1_555
Cu2 O5 1_555 1_555
S1 C4 1_555 1_555
S2 C14 1_555 1_555
O1 C21 1_555 1_555
O2 C21 1_555 1_555
O3 Cu1 1_555 1_555
O4 Cu1 1_555 1_555
O5 C42 1_555 1_555
O6 C42 1_555 1_555
O7 Cu2 1_555 1_555
O8 C35 1_555 1_555
O9 Cu1 1_555 1_555
N1 Cu1 1_555 1_555
N2 C1 1_555 1_555
N3 C7 1_555 1_555
N4 C8 1_555 1_555
N5 Cu2 1_555 1_555
N6 C11 1_555 1_555
N7 C17 1_555 1_555
N8 C18 1_555 1_555
C1 N1 1_555 1_555
H1 C1 1_555 1_555
C2 N1 1_555 1_555
H2 C2 1_555 1_555
C3 N2 1_555 1_555
H3 C3 1_555 1_555
C4 N2 1_555 1_555
C5 C4 1_555 1_555
H4 C5 1_555 1_555
C6 C5 1_555 1_555
H5 C6 1_555 1_555
C7 S1 1_555 1_555
C8 N3 1_555 1_555
H6 C8 1_555 1_555
C9 N3 1_555 1_555
H7 C9 1_555 1_555
C10 N4 1_555 1_555
H8 C10 1_555 1_555
C11 N5 1_555 1_555
H9 C11 1_555 1_555
C12 N5 1_555 1_555
H10 C12 1_555 1_555
C13 N6 1_555 1_555
H11 C13 1_555 1_555
C14 N6 1_555 1_555
C15 C14 1_555 1_555
H12 C15 1_555 1_555
C16 C15 1_555 1_555
H13 C16 1_555 1_555
C17 S2 1_555 1_555
C18 N7 1_555 1_555
H14 C18 1_555 1_555
C19 N7 1_555 1_555
H15 C19 1_555 1_555
C20 N8 1_555 1_555
H16 C20 1_555 1_555
C21 C22 1_555 1_555
C22 C23 1_555 1_555
C23 H17 1_555 1_555
C24 C23 1_555 1_555
H18 C24 1_555 1_555
C25 C24 1_555 1_555
H19 C25 1_555 1_555
C26 C25 1_555 1_555
H20 C26 1_555 1_555
C27 C22 1_555 1_555
H21 C27 1_555 1_555
C28 O3 1_555 1_555
C29 C28 1_555 1_555
C30 C29 1_555 1_555
H22 C30 1_555 1_555
C31 C30 1_555 1_555
H23 C31 1_555 1_555
C32 C31 1_555 1_555
H24 C32 1_555 1_555
C33 C32 1_555 1_555
H25 C33 1_555 1_555
C34 C29 1_555 1_555
H26 C34 1_555 1_555
C35 O7 1_555 1_555
C36 C35 1_555 1_555
C37 C36 1_555 1_555
H27 C37 1_555 1_555
C38 C37 1_555 1_555
H28 C38 1_555 1_555
C39 C38 1_555 1_555
H29 C39 1_555 1_555
C40 C39 1_555 1_555
H30 C40 1_555 1_555
C41 C36 1_555 1_555
H31 C41 1_555 1_555
C42 C43 1_555 1_555
C43 C44 1_555 1_555
C44 H32 1_555 1_555
C45 C44 1_555 1_555
H33 C45 1_555 1_555
C46 C45 1_555 1_555
H34 C46 1_555 1_555
C47 C46 1_555 1_555
H35 C47 1_555 1_555
C48 C43 1_555 1_555
H36 C48 1_555 1_555
Cu1C N8 1_555 1_555
Cu2C N4 1_555 1_555
N4C Cu2 1_555 1_555
N8C Cu1 1_555 1_555
Cu2 O9 1_555 1_555
O4 C28 1_555 1_555
C2 C3 1_555 1_555
C6 C7 1_555 1_555
C9 C10 1_555 1_555
C12 C13 1_555 1_555
C16 C17 1_555 1_555
C19 C20 1_555 1_555
C26 C27 1_555 1_555
C33 C34 1_555 1_555
C40 C41 1_555 1_555
C47 C48 1_555 1_555

#END
