
#######################################################################
#
#                 Cambridge Crystallographic Data Centre
#                                CCDC 
#
#######################################################################
#
# If this CIF has been generated from an entry in the Cambridge 
# Structural Database, then it will include bibliographic, chemical, 
# crystal, experimental, refinement or atomic coordinate data resulting 
# from the CCDC's data processing and validation procedures.
#
#######################################################################

data_VOXTAF
_symmetry_cell_setting           triclinic
_symmetry_space_group_name_H-M   'P -1'
_symmetry_Int_Tables_number      2
_space_group_name_Hall           '-P 1'
loop_
_symmetry_equiv_pos_site_id
_symmetry_equiv_pos_as_xyz
1 x,y,z
2 -x,-y,-z
_cell_length_a                   9.927(5)
_cell_length_b                   9.945(5)
_cell_length_c                   11.752(5)
_cell_angle_alpha                94.242(5)
_cell_angle_beta                 104.517(5)
_cell_angle_gamma                98.603(5)
_cell_volume                     1102.97
loop_
_atom_site_label
_atom_site_type_symbol
_atom_site_fract_x
_atom_site_fract_y
_atom_site_fract_z
Cu1 Cu 0.83240(7) 0.09200(6) 0.88905(5)
S1 S 0.32796(14) -0.35710(12) 0.91012(12)
O1 O 1.0044(4) 0.0375(4) 1.1466(3)
O2 O 0.7927(4) 0.0717(4) 1.0424(3)
O3 O 0.8100(4) 0.1435(3) 0.7267(3)
O4 O 0.6929(4) 0.3039(4) 0.7768(3)
N1 N 0.6905(5) -0.0799(4) 0.8254(4)
N2 N 0.5408(5) -0.2704(4) 0.8077(4)
N3 N -0.0155(5) -0.7438(4) 0.9510(4)
N4 N 0.1690(5) -0.5935(4) 0.9497(4)
C1 C 0.6213(5) -0.1607(5) 0.8822(5)
H1 H 0.6266 -0.1453 0.9624
C2 C 0.6551(6) -0.1395(5) 0.7100(5)
H2 H 0.6900 -0.1046 0.6498
C3 C 0.5618(7) -0.2565(6) 0.6978(5)
H3 H 0.5202 -0.3159 0.6288
C4 C 0.4564(5) -0.3824(5) 0.8387(5)
C5 C 0.4614(6) -0.5157(5) 0.8109(4)
H4 H 0.5235 -0.5463 0.7715
C6 C 0.3585(5) -0.6032(5) 0.8501(4)
H5 H 0.3451 -0.6983 0.8383
C7 C 0.2833(5) -0.5338(5) 0.9057(4)
C8 C 0.0681(6) -0.6958(5) 0.8865(4)
H6 H 0.0584 -0.7283 0.8081
C9 C 0.1485(6) -0.5752(5) 1.0608(5)
H7 H 0.2019 -0.5108 1.1234
C10 C 0.0356(6) -0.6691(5) 1.0612(5)
H8 H -0.0018 -0.6814 1.1255
C11 C 0.7537(6) 0.2521(5) 0.7084(5)
C12 C 0.7733(6) 0.3205(5) 0.6023(5)
C13 C 0.7458(7) 0.4523(6) 0.5909(5)
H9 H 0.7117 0.4962 0.6477
C14 C 0.7677(7) 0.5190(6) 0.4979(6)
H10 H 0.7484 0.6073 0.4917
C15 C 0.8192(7) 0.4544(7) 0.4118(5)
H11 H 0.8361 0.4999 0.3490
C16 C 0.8448(7) 0.3217(7) 0.4210(5)
H12 H 0.8776 0.2774 0.3636
C17 C 0.8216(6) 0.2551(6) 0.5153(5)
H13 H 0.8384 0.1660 0.5207
C18 C 0.8773(6) 0.0360(5) 1.1315(5)
C19 C 0.8075(6) -0.0125(5) 1.2262(5)
C20 C 0.8884(6) -0.0594(5) 1.3254(5)
H14 H 0.9852 -0.0542 1.3366
C21 C 0.8222(6) -0.1145(6) 1.4082(5)
H15 H 0.8754 -0.1446 1.4753
C22 C 0.6787(6) -0.1238(6) 1.3899(5)
H16 H 0.6349 -0.1634 1.4436
C23 C 0.5979(6) -0.0748(6) 1.2921(5)
H17 H 0.5012 -0.0792 1.2815
C24 C 0.6632(6) -0.0197(5) 1.2110(5)
H18 H 0.6098 0.0131 1.1455
Cu1_2 Cu -0.16760(7) -0.90800(6) 0.88905(5)
Cu1A Cu 1.16760(7) -0.09200(6) 1.11095(5)
O1A O 0.9956(4) -0.0375(4) 0.8534(3)
N3_2 N 0.9845(5) 0.2562(4) 0.9510(4)
loop_
_geom_bond_atom_site_label_1
_geom_bond_atom_site_label_2
_geom_bond_site_symmetry_1
_geom_bond_site_symmetry_2
Cu1 O2 1_555 1_555
S1 C4 1_555 1_555
O1 C18 1_555 1_555
O2 C18 1_555 1_555
O3 Cu1 1_555 1_555
O4 C11 1_555 1_555
N1 Cu1 1_555 1_555
N2 C1 1_555 1_555
N3 C8 1_555 1_555
N4 C7 1_555 1_555
C1 N1 1_555 1_555
H1 C1 1_555 1_555
C2 N1 1_555 1_555
H2 C2 1_555 1_555
C3 N2 1_555 1_555
H3 C3 1_555 1_555
C4 N2 1_555 1_555
C5 C4 1_555 1_555
H4 C5 1_555 1_555
C6 C5 1_555 1_555
H5 C6 1_555 1_555
C7 S1 1_555 1_555
C8 N4 1_555 1_555
H6 C8 1_555 1_555
C9 N4 1_555 1_555
H7 C9 1_555 1_555
C10 N3 1_555 1_555
H8 C10 1_555 1_555
C11 O3 1_555 1_555
C12 C11 1_555 1_555
C13 C12 1_555 1_555
H9 C13 1_555 1_555
C14 C13 1_555 1_555
H10 C14 1_555 1_555
C15 C14 1_555 1_555
H11 C15 1_555 1_555
C16 C15 1_555 1_555
H12 C16 1_555 1_555
C17 C12 1_555 1_555
H13 C17 1_555 1_555
C18 C19 1_555 1_555
C19 C20 1_555 1_555
C20 H14 1_555 1_555
C21 C20 1_555 1_555
H15 C21 1_555 1_555
C22 C21 1_555 1_555
H16 C22 1_555 1_555
C23 C22 1_555 1_555
H17 C23 1_555 1_555
C24 C19 1_555 1_555
H18 C24 1_555 1_555
Cu1_2 N3 1_555 1_555
Cu1A O1 1_555 1_555
O1A Cu1 1_555 1_555
N3_2 Cu1 1_555 1_555
C2 C3 1_555 1_555
C6 C7 1_555 1_555
C9 C10 1_555 1_555
C16 C17 1_555 1_555
C23 C24 1_555 1_555

#END
