
#######################################################################
#
#                 Cambridge Crystallographic Data Centre
#                                CCDC 
#
#######################################################################
#
# If this CIF has been generated from an entry in the Cambridge 
# Structural Database, then it will include bibliographic, chemical, 
# crystal, experimental, refinement or atomic coordinate data resulting 
# from the CCDC's data processing and validation procedures.
#
#######################################################################

data_VOXWIQ
_symmetry_cell_setting           monoclinic
_symmetry_space_group_name_H-M   'P 21/c'
_symmetry_Int_Tables_number      14
_space_group_name_Hall           '-P 2ybc'
loop_
_symmetry_equiv_pos_site_id
_symmetry_equiv_pos_as_xyz
1 x,y,z
2 -x,1/2+y,1/2-z
3 -x,-y,-z
4 x,1/2-y,1/2+z
_cell_length_a                   11.3824(10)
_cell_length_b                   13.2476(12)
_cell_length_c                   18.3587(17)
_cell_angle_alpha                90
_cell_angle_beta                 95.487(2)
_cell_angle_gamma                90
_cell_volume                     2755.61
loop_
_atom_site_label
_atom_site_type_symbol
_atom_site_fract_x
_atom_site_fract_y
_atom_site_fract_z
Co1 Co 0.58669(3) 0.13027(2) 0.220591(16)
N1 N -0.36565(19) 0.62402(15) 0.59357(11)
N2 N -0.40627(18) 0.50514(15) 0.67047(11)
N3 N 0.41392(18) 0.16483(16) 0.22688(10)
O1 O 0.6734(2) 0.22202(17) 0.16303(11)
C1 C -0.2377(2) 0.4955(2) 0.39238(15)
H1 H -0.2777 0.4494 0.3609
N4 N 0.23843(19) 0.23396(17) 0.21021(11)
C2 C -0.4634(2) 0.5921(2) 0.68678(15)
H2 H -0.5116 0.5992 0.7246
O2 O 0.6790(2) 0.34678(18) -0.18321(11)
C3 C -0.2427(3) 0.6181(2) 0.48851(14)
C4 C 0.6802(2) 0.42122(18) 0.09686(13)
H3 H 0.5971 0.4378 0.0963
H4 H 0.7132 0.4167 0.1475
C5 C 0.6944(2) 0.32000(18) 0.05841(13)
C6 C 0.6429(2) 0.3283(2) -0.02168(13)
H5 H 0.5594 0.3437 -0.0237
H6 H 0.6517 0.2642 -0.0461
O3 O 0.5370(2) 0.20167(19) 0.07284(13)
C7 C 0.3483(2) 0.2341(2) 0.19086(13)
H7 H 0.3754 0.2775 0.1563
C8 C -0.3490(2) 0.52771(18) 0.61375(13)
H8 H -0.3026 0.4823 0.5905
C9 C 0.7062(2) 0.4113(2) -0.06126(12)
C10 C 0.3409(2) 0.1185(2) 0.27145(15)
H9 H 0.3625 0.0660 0.3036
C11 C 0.6288(3) 0.2413(2) 0.09997(15)
C12 C 0.8376(2) 0.3862(2) -0.05814(14)
H10 H 0.8484 0.3229 -0.0832
H11 H 0.8785 0.4387 -0.0825
C13 C -0.1164(2) 0.50805(19) 0.39043(14)
C14 C -0.1223(3) 0.6292(2) 0.48812(15)
H12 H -0.0820 0.6733 0.5211
C15 C -0.0505(2) 0.45276(19) 0.33680(13)
C16 C 0.0490(2) 0.4946(2) 0.30989(16)
H13 H 0.0748 0.5581 0.3261
C17 C -0.0864(2) 0.3587(2) 0.31036(16)
H14 H -0.1529 0.3289 0.3268
C18 C -0.4396(3) 0.6652(2) 0.64018(15)
H15 H -0.4678 0.7311 0.6395
C19 C 0.7438(3) 0.5036(2) 0.05751(14)
C20 C 0.6909(3) 0.5118(2) -0.02192(14)
H16 H 0.7301 0.5652 -0.0464
H17 H 0.6077 0.5284 -0.0234
C21 C 0.2326(3) 0.1607(2) 0.26160(16)
H18 H 0.1669 0.1430 0.2853
C22 C -0.0605(2) 0.5760(2) 0.43939(15)
H19 H 0.0204 0.5860 0.4395
C23 C 0.8252(2) 0.2946(2) 0.05973(15)
H20 H 0.8594 0.2881 0.1100
H21 H 0.8347 0.2308 0.0351
C24 C 0.8885(2) 0.3778(3) 0.02155(16)
C25 C 0.0746(2) 0.3498(2) 0.23426(14)
C26 C -0.0254(3) 0.3083(2) 0.25996(15)
H22 H -0.0518 0.2453 0.2430
C27 C 0.1398(3) 0.2967(3) 0.17787(15)
H23 H 0.0849 0.2542 0.1481
H24 H 0.1704 0.3467 0.1460
C28 C -0.3096(3) 0.6821(2) 0.53800(16)
H25 H -0.3702 0.7193 0.5084
H26 H -0.2559 0.7308 0.5625
C29 C -0.2998(2) 0.5500(2) 0.44000(15)
H27 H -0.3809 0.5409 0.4395
C30 C 0.8738(3) 0.4773(3) 0.06044(16)
H28 H 0.9068 0.4720 0.1110
H29 H 0.9157 0.5301 0.0371
C31 C 0.1101(2) 0.4441(2) 0.25980(15)
H30 H 0.1764 0.4739 0.2429
O4 O 0.5821(2) 0.4826(2) -0.16154(12)
C32 C 0.6518(2) 0.4156(3) -0.14076(14)
H31 H 0.733(3) 0.566(2) 0.0790(18)
H32 H 0.964(3) 0.358(2) 0.0220(19)
Co1C Co -0.41331(3) 0.36973(2) 0.720591(16)
Co1C_2 Co 0.58669(3) 0.36973(2) -0.279409(16)
N2C N 0.59373(18) -0.00514(15) 0.17047(11)
O2C O 0.6790(2) 0.15322(18) 0.31679(11)
loop_
_geom_bond_atom_site_label_1
_geom_bond_atom_site_label_2
_geom_bond_site_symmetry_1
_geom_bond_site_symmetry_2
Co1 N3 1_555 1_555
N1 C8 1_555 1_555
N2 C2 1_555 1_555
N3 C7 1_555 1_555
O1 Co1 1_555 1_555
C1 H1 1_555 1_555
N4 C7 1_555 1_555
C2 H2 1_555 1_555
O2 C32 1_555 1_555
C3 C14 1_555 1_555
C4 H3 1_555 1_555
H4 C4 1_555 1_555
C5 C4 1_555 1_555
C6 C5 1_555 1_555
H5 C6 1_555 1_555
H6 C6 1_555 1_555
O3 C11 1_555 1_555
C7 H7 1_555 1_555
C8 N2 1_555 1_555
H8 C8 1_555 1_555
C9 C6 1_555 1_555
C10 N3 1_555 1_555
H9 C10 1_555 1_555
C11 O1 1_555 1_555
C12 C9 1_555 1_555
H10 C12 1_555 1_555
H11 C12 1_555 1_555
C13 C1 1_555 1_555
C14 H12 1_555 1_555
C15 C13 1_555 1_555
C16 C15 1_555 1_555
H13 C16 1_555 1_555
C17 C15 1_555 1_555
H14 C17 1_555 1_555
C18 N1 1_555 1_555
H15 C18 1_555 1_555
C19 C4 1_555 1_555
C20 C9 1_555 1_555
H16 C20 1_555 1_555
H17 C20 1_555 1_555
C21 N4 1_555 1_555
H18 C21 1_555 1_555
C22 C13 1_555 1_555
H19 C22 1_555 1_555
C23 C5 1_555 1_555
H20 C23 1_555 1_555
H21 C23 1_555 1_555
C24 C12 1_555 1_555
C25 C26 1_555 1_555
C26 C17 1_555 1_555
H22 C26 1_555 1_555
C27 N4 1_555 1_555
H23 C27 1_555 1_555
H24 C27 1_555 1_555
C28 N1 1_555 1_555
H25 C28 1_555 1_555
H26 C28 1_555 1_555
C29 C1 1_555 1_555
H27 C29 1_555 1_555
C30 C19 1_555 1_555
H28 C30 1_555 1_555
H29 C30 1_555 1_555
C31 C16 1_555 1_555
H30 C31 1_555 1_555
O4 C32 1_555 1_555
C32 C9 1_555 1_555
H31 C19 1_555 1_555
H32 C24 1_555 1_555
Co1C N2 1_555 1_555
Co1C_2 O2 1_555 1_555
N2C Co1 1_555 1_555
O2C Co1 1_555 1_555
C2 C18 1_555 1_555
C3 C28 1_555 1_555
C3 C29 1_555 1_555
C5 C11 1_555 1_555
C10 C21 1_555 1_555
C14 C22 1_555 1_555
C19 C20 1_555 1_555
C23 C24 1_555 1_555
C24 C30 1_555 1_555
C25 C27 1_555 1_555
C25 C31 1_555 1_555

#END
