
#######################################################################
#
#                 Cambridge Crystallographic Data Centre
#                                CCDC 
#
#######################################################################
#
# If this CIF has been generated from an entry in the Cambridge 
# Structural Database, then it will include bibliographic, chemical, 
# crystal, experimental, refinement or atomic coordinate data resulting 
# from the CCDC's data processing and validation procedures.
#
#######################################################################

data_VOXWUC
_symmetry_cell_setting           triclinic
_symmetry_space_group_name_H-M   'P -1'
_symmetry_Int_Tables_number      2
_space_group_name_Hall           '-P 1'
loop_
_symmetry_equiv_pos_site_id
_symmetry_equiv_pos_as_xyz
1 x,y,z
2 -x,-y,-z
_cell_length_a                   12.046(3)
_cell_length_b                   12.344(3)
_cell_length_c                   14.451(3)
_cell_angle_alpha                114.793(4)
_cell_angle_beta                 95.386(4)
_cell_angle_gamma                102.565(4)
_cell_volume                     1862.02
loop_
_atom_site_label
_atom_site_type_symbol
_atom_site_fract_x
_atom_site_fract_y
_atom_site_fract_z
Co1 Co 0.37382(4) 1.01762(5) 0.50973(4)
Co2 Co -0.07820(5) 1.10526(5) 0.05441(4)
O1 O 0.3199(3) 1.1240(3) 0.4513(2)
O2 O 0.5005(3) 1.1253(3) 0.4395(2)
O3 O 0.3617(2) 0.8701(3) 0.3765(2)
O4 O 0.5383(2) 0.8680(2) 0.34476(19)
O5 O 0.1025(3) 1.0427(3) 0.0834(2)
O6 O 0.0773(3) 1.2271(3) 0.1487(3)
O7 O 0.2036(2) 0.8105(3) -0.0525(2)
O8 O 0.0716(3) 0.7810(3) 0.0343(3)
N1 N 0.2303(3) 0.9153(3) 0.5351(2)
N2 N 0.1415(3) -0.0109(3) 0.8654(3)
N3 N 0.1388(3) 0.7614(3) 0.5640(3)
N4 N 0.1751(3) 0.1191(3) 0.7974(2)
C1 C 0.4290(3) 0.8312(3) 0.3174(3)
C2 C 0.2325(3) 0.6991(3) 0.0464(3)
C3 C 0.1639(3) 0.7657(4) 0.0065(3)
C4 C 0.4021(3) 1.2028(4) 0.3387(3)
C5 C 0.3704(3) 0.7340(3) 0.2057(3)
C6 C 0.2989(3) 0.7936(3) 0.1573(3)
H1 H 0.2441 0.8229 0.2000
H2 H 0.3503 0.8646 0.1554
C7 C 0.0630(3) 0.8297(4) 0.5638(3)
H3 H -0.0126 0.8148 0.5745
C8 C 0.1593(3) 0.2066(3) 0.7601(3)
C9 C 0.1512(3) 0.5879(4) 0.0509(3)
H4 H 0.1087 0.5276 -0.0189
H5 H 0.0953 0.6158 0.0928
C10 C 0.2639(3) 0.0633(4) 0.7866(3)
H6 H 0.3266 0.0776 0.7561
C11 C 0.1235(3) 0.4713(4) 0.6486(3)
C12 C 0.2386(3) 0.8167(4) 0.5461(3)
H7 H 0.3045 0.7887 0.5422
C13 C 0.1036(4) 0.0706(4) 0.8456(3)
H8 H 0.0363 0.0922 0.8625
C14 C 0.2422(3) -0.0152(4) 0.8284(3)
H9 H 0.2884 -0.0652 0.8320
C15 C 0.2422(4) 0.2478(4) 0.7133(3)
H10 H 0.3073 0.2184 0.7061
C16 C 0.1330(3) 0.3774(4) 0.6852(3)
C17 C 0.3207(3) 0.6538(4) -0.0202(3)
H11 H 0.2800 0.5946 -0.0908
H12 H 0.3731 0.7238 -0.0228
C18 C 0.2776(3) 1.1542(3) 0.2756(3)
H13 H 0.2246 1.1756 0.3225
H14 H 0.2566 1.0642 0.2367
C19 C 0.2288(4) 0.3319(4) 0.6772(3)
H15 H 0.2859 0.3591 0.6465
C20 C 0.4097(4) 1.1484(4) 0.4154(3)
C21 C 0.1263(3) 0.6587(4) 0.5885(3)
C22 C 0.4563(3) 0.6878(4) 0.1373(3)
H16 H 0.5018 0.6500 0.1673
H17 H 0.5092 0.7577 0.1350
C23 C 0.0721(4) 0.5649(4) 0.6981(3)
H18 H 0.0360 0.5646 0.7522
C24 C 0.2869(3) 0.6228(4) 0.2086(3)
H19 H 0.2319 0.6514 0.2513
H20 H 0.3306 0.5846 0.2397
C25 C 0.3490(4) 1.1726(4) 0.1249(3)
H21 H 0.3277 1.0826 0.0861
H22 H 0.3423 1.2062 0.0755
C26 C 0.2659(3) 1.2107(3) 0.1995(3)
C27 C 0.1730(4) 0.5642(4) 0.5349(3)
H23 H 0.2056 0.5628 0.4787
C28 C 0.0732(4) 0.6587(4) 0.6689(3)
H24 H 0.0386 0.7207 0.7032
C29 C 0.0628(4) 0.2497(4) 0.7688(4)
H25 H 0.0057 0.2218 0.7992
C30 C 0.3907(3) 0.5921(4) 0.0265(3)
C31 C 0.1716(4) 0.4714(4) 0.5647(3)
H26 H 0.2034 0.4078 0.5280
C32 C 0.0509(4) 0.3344(4) 0.7321(4)
H27 H -0.0144 0.3635 0.7392
C33 C 0.1413(4) 1.1583(4) 0.1394(3)
C34 C 0.4847(4) 1.1672(4) 0.2635(3)
H28 H 0.5641 1.1986 0.3029
H29 H 0.4660 1.0772 0.2258
C35 C 0.2210(4) 0.5265(4) 0.0981(3)
C36 C 0.1199(3) 0.9224(4) 0.5451(3)
H30 H 0.0887 0.9827 0.5397
C37 C 0.3078(4) 0.4826(4) 0.0308(3)
H31 H 0.3519 0.4427 0.0594
H32 H 0.2662 0.4220 -0.0392
C38 C 0.4745(4) 1.2209(5) 0.1858(4)
C39 C 0.5075(4) 1.3622(5) 0.2468(4)
H33 H 0.5021 1.3980 0.1989
H34 H 0.5872 1.3933 0.2854
C40 C 0.3009(5) 1.3518(4) 0.2612(4)
H35 H 0.2496 1.3761 0.3093
H36 H 0.2927 1.3880 0.2138
C41 C 0.4270(5) 1.4016(4) 0.3222(4)
C42 C 0.4354(4) 1.3458(4) 0.3987(4)
H37 H 0.3836 1.3705 0.4462
H38 H 0.5141 1.3773 0.4395
Co1A Co 0.62618(4) 0.98238(5) 0.49027(4)
Co2A Co 0.07820(5) -0.10526(5) 0.94559(4)
Co2A_2 Co 0.07820(5) 0.89474(5) -0.05441(4)
O4A O 0.4617(2) 1.1320(2) 0.65524(19)
O5A O -0.1025(3) 0.9573(3) -0.0834(2)
O7A O -0.2036(2) 1.1895(3) 0.0525(2)
O8A O -0.0716(3) 1.2190(3) -0.0343(3)
N2A N -0.1415(3) 1.0109(3) 0.1346(3)
loop_
_geom_bond_atom_site_label_1
_geom_bond_atom_site_label_2
_geom_bond_site_symmetry_1
_geom_bond_site_symmetry_2
Co1 O1 1_555 1_555
Co2 O6 1_555 1_555
O1 C20 1_555 1_555
O2 Co1 1_555 1_555
O3 Co1 1_555 1_555
O4 C1 1_555 1_555
O5 C33 1_555 1_555
O6 C33 1_555 1_555
O7 C3 1_555 1_555
O8 C3 1_555 1_555
N1 Co1 1_555 1_555
N2 C13 1_555 1_555
N3 C7 1_555 1_555
N4 C8 1_555 1_555
C1 O3 1_555 1_555
C2 C3 1_555 1_555
C4 C18 1_555 1_555
C5 C1 1_555 1_555
C6 C2 1_555 1_555
H1 C6 1_555 1_555
H2 C6 1_555 1_555
C7 H3 1_555 1_555
C8 C15 1_555 1_555
C9 C2 1_555 1_555
H4 C9 1_555 1_555
H5 C9 1_555 1_555
C10 N4 1_555 1_555
H6 C10 1_555 1_555
C11 C16 1_555 1_555
C12 N1 1_555 1_555
H7 C12 1_555 1_555
C13 N4 1_555 1_555
H8 C13 1_555 1_555
C14 N2 1_555 1_555
H9 C14 1_555 1_555
C15 H10 1_555 1_555
C16 C19 1_555 1_555
C17 C2 1_555 1_555
H11 C17 1_555 1_555
H12 C17 1_555 1_555
C18 H13 1_555 1_555
H14 C18 1_555 1_555
C19 C15 1_555 1_555
H15 C19 1_555 1_555
C20 O2 1_555 1_555
C21 N3 1_555 1_555
C22 C5 1_555 1_555
H16 C22 1_555 1_555
H17 C22 1_555 1_555
C23 C11 1_555 1_555
H18 C23 1_555 1_555
C24 C5 1_555 1_555
H19 C24 1_555 1_555
H20 C24 1_555 1_555
C25 H21 1_555 1_555
H22 C25 1_555 1_555
C26 C18 1_555 1_555
C27 C21 1_555 1_555
H23 C27 1_555 1_555
C28 C21 1_555 1_555
H24 C28 1_555 1_555
C29 C8 1_555 1_555
H25 C29 1_555 1_555
C30 C17 1_555 1_555
C31 C11 1_555 1_555
H26 C31 1_555 1_555
C32 C16 1_555 1_555
H27 C32 1_555 1_555
C33 C26 1_555 1_555
C34 C4 1_555 1_555
H28 C34 1_555 1_555
H29 C34 1_555 1_555
C35 C9 1_555 1_555
C36 N1 1_555 1_555
H30 C36 1_555 1_555
C37 C30 1_555 1_555
H31 C37 1_555 1_555
H32 C37 1_555 1_555
C38 C25 1_555 1_555
C39 C38 1_555 1_555
H33 C39 1_555 1_555
H34 C39 1_555 1_555
C40 C26 1_555 1_555
H35 C40 1_555 1_555
H36 C40 1_555 1_555
C41 C39 1_555 1_555
C42 C4 1_555 1_555
H37 C42 1_555 1_555
H38 C42 1_555 1_555
Co1A O4 1_555 1_555
Co2A N2 1_555 1_555
Co2A_2 O5 1_555 1_555
O4A Co1 1_555 1_555
O5A Co2 1_555 1_555
O7A Co2 1_555 1_555
O8A Co2 1_555 1_555
N2A Co2 1_555 1_555
O7 Co2A_2 1_555 1_555
O8 Co2A_2 1_555 1_555
N3 C12 1_555 1_555
C4 C20 1_555 1_555
C5 C6 1_555 1_555
C7 C36 1_555 1_555
C10 C14 1_555 1_555
C22 C30 1_555 1_555
C23 C28 1_555 1_555
C24 C35 1_555 1_555
C25 C26 1_555 1_555
C27 C31 1_555 1_555
C29 C32 1_555 1_555
C34 C38 1_555 1_555
C35 C37 1_555 1_555
C40 C41 1_555 1_555
C41 C42 1_555 1_555

#END
