
#######################################################################
#
#                 Cambridge Crystallographic Data Centre
#                                CCDC 
#
#######################################################################
#
# If this CIF has been generated from an entry in the Cambridge 
# Structural Database, then it will include bibliographic, chemical, 
# crystal, experimental, refinement or atomic coordinate data resulting 
# from the CCDC's data processing and validation procedures.
#
#######################################################################

data_VOXXEN
_symmetry_cell_setting           triclinic
_symmetry_space_group_name_H-M   'P -1'
_symmetry_Int_Tables_number      2
_space_group_name_Hall           '-P 1'
loop_
_symmetry_equiv_pos_site_id
_symmetry_equiv_pos_as_xyz
1 x,y,z
2 -x,-y,-z
_cell_length_a                   10.070(5)
_cell_length_b                   10.681(6)
_cell_length_c                   18.871(12)
_cell_angle_alpha                85.22(2)
_cell_angle_beta                 74.62(2)
_cell_angle_gamma                71.56(2)
_cell_volume                     1856.55
loop_
_atom_site_label
_atom_site_type_symbol
_atom_site_fract_x
_atom_site_fract_y
_atom_site_fract_z
Cu1 Cu 0.91995(8) -0.05760(8) 0.05139(5)
Cu2 Cu -0.37038(10) -0.06460(13) 0.46001(5)
S1 S 0.34171(19) -0.2123(2) 0.28948(10)
O1 O 0.7638(5) 0.0674(5) 0.0130(3)
O2 O 0.8970(5) 0.1680(5) -0.0720(3)
O3 O 0.9186(6) 0.0879(5) 0.1113(3)
O4 O 1.0493(6) 0.1875(5) 0.0245(3)
O5 O -0.4461(5) 0.0407(5) 0.3813(3)
O6 O -0.6689(6) 0.1471(8) 0.4472(3)
O7 O -0.4646(6) -0.1966(6) 0.4493(3)
O8 O -0.6821(7) -0.0907(9) 0.5185(4)
N1 N 0.7706(6) -0.1170(5) 0.1387(3)
N2 N 0.5571(6) -0.1252(5) 0.2049(3)
N3 N 0.0534(6) -0.1825(7) 0.3172(3)
N4 N -0.1639(7) -0.1612(9) 0.3910(3)
C1 C 0.6363(7) -0.1012(7) 0.1377(4)
H1 H 0.5994 -0.0762 0.0955
C2 C 0.7787(7) -0.1488(7) 0.2098(4)
H2 H 0.8627 -0.1642 0.2273
C3 C 0.6478(7) -0.1550(7) 0.2516(4)
H3 H 0.6239 -0.1756 0.3024
C4 C 0.4075(7) -0.1112(7) 0.2229(4)
C5 C 0.3077(7) -0.0321(7) 0.1907(4)
H4 H 0.3266 0.0291 0.1528
C6 C 0.1702(7) -0.0508(7) 0.2203(4)
H5 H 0.0862 -0.0032 0.2044
C7 C 0.1716(7) -0.1436(8) 0.2735(4)
C8 C -0.0719(8) -0.0999(10) 0.3568(4)
H6 H -0.0907 -0.0073 0.3593
C9 C 0.0414(9) -0.3077(10) 0.3278(5)
H7 H 0.1113 -0.3877 0.3077
C10 C -0.0941(9) -0.2919(11) 0.3738(5)
H8 H -0.1338 -0.3617 0.3913
C11 C 0.7770(7) 0.1532(7) -0.0349(4)
C12 C 0.6412(8) 0.2472(7) -0.0502(4)
C13 C 0.5074(8) 0.2358(9) -0.0114(5)
H9 H 0.5024 0.1695 0.0252
C14 C 0.3796(9) 0.3217(11) -0.0259(6)
H10 H 0.2882 0.3125 -0.0005
C15 C 0.3890(13) 0.4190(10) -0.0773(7)
H11 H 0.3031 0.4805 -0.0858
C16 C 0.5219(12) 0.4288(9) -0.1168(7)
H12 H 0.5273 0.4937 -0.1542
C17 C 0.6466(10) 0.3443(8) -0.1021(5)
H13 H 0.7377 0.3535 -0.1282
C18 C 0.9707(7) 0.1803(7) 0.0877(4)
C19 C 0.9317(7) 0.2927(8) 0.1408(5)
C20 C 0.8485(9) 0.2870(9) 0.2110(5)
H14 H 0.8202 0.2104 0.2271
C21 C 0.8054(10) 0.3941(11) 0.2588(6)
H15 H 0.7485 0.3903 0.3074
C22 C 0.8462(12) 0.5051(11) 0.2347(8)
H16 H 0.8157 0.5780 0.2670
C23 C 0.9305(12) 0.5123(9) 0.1646(7)
H17 H 0.9596 0.5886 0.1488
C24 C 0.9717(9) 0.4058(8) 0.1177(6)
H18 H 1.0283 0.4101 0.0690
C25 C -0.5704(9) 0.1191(9) 0.3870(4)
C26 C -0.6086(8) 0.1851(8) 0.3195(4)
C27 C -0.4993(8) 0.1810(7) 0.2552(4)
H19 H -0.4013 0.1373 0.2554
C28 C -0.5322(10) 0.2397(8) 0.1915(5)
H20 H -0.4572 0.2365 0.1481
C29 C -0.6753(10) 0.3033(9) 0.1909(5)
H21 H -0.6979 0.3446 0.1472
C30 C -0.7852(10) 0.3071(9) 0.2537(5)
H22 H -0.8832 0.3490 0.2527
C31 C -0.7522(9) 0.2494(9) 0.3183(5)
H23 H -0.8275 0.2538 0.3617
C32 C -0.5945(10) -0.1857(12) 0.4806(4)
C33 C -0.6511(10) -0.2995(13) 0.4719(4)
C34 C -0.5617(11) -0.4074(11) 0.4317(6)
H24 H -0.4638 -0.4126 0.4092
C35 C -0.6135(12) -0.5106(11) 0.4236(6)
H25 H -0.5502 -0.5848 0.3946
C36 C -0.7536(14) -0.5077(15) 0.4564(6)
H26 H -0.7873 -0.5792 0.4512
C37 C -0.8413(15) -0.4008(19) 0.4962(7)
H27 H -0.9390 -0.3963 0.5189
C38 C -0.7914(13) -0.2947(16) 0.5050(6)
H28 H -0.8550 -0.2203 0.5338
Cu1A Cu 1.08005(8) 0.05760(8) -0.05139(5)
Cu2A Cu -0.62962(10) 0.06460(13) 0.53999(5)
O2A O 1.1030(5) -0.1680(5) 0.0720(3)
O4A O 0.9507(6) -0.1875(5) -0.0245(3)
O6A O -0.3311(6) -0.1471(8) 0.5528(3)
O8A O -0.3179(7) 0.0907(9) 0.4815(4)
loop_
_geom_bond_atom_site_label_1
_geom_bond_atom_site_label_2
_geom_bond_site_symmetry_1
_geom_bond_site_symmetry_2
Cu1 O1 1_555 1_555
Cu2 O5 1_555 1_555
S1 C4 1_555 1_555
O1 C11 1_555 1_555
O2 C11 1_555 1_555
O3 Cu1 1_555 1_555
O4 C18 1_555 1_555
O5 C25 1_555 1_555
O6 C25 1_555 1_555
O7 Cu2 1_555 1_555
O8 C32 1_555 1_555
N1 Cu1 1_555 1_555
N2 C1 1_555 1_555
N3 C7 1_555 1_555
N4 Cu2 1_555 1_555
C1 N1 1_555 1_555
H1 C1 1_555 1_555
C2 N1 1_555 1_555
H2 C2 1_555 1_555
C3 N2 1_555 1_555
H3 C3 1_555 1_555
C4 N2 1_555 1_555
C5 C4 1_555 1_555
H4 C5 1_555 1_555
C6 C5 1_555 1_555
H5 C6 1_555 1_555
C7 S1 1_555 1_555
C8 N3 1_555 1_555
H6 C8 1_555 1_555
C9 N3 1_555 1_555
H7 C9 1_555 1_555
C10 N4 1_555 1_555
H8 C10 1_555 1_555
C11 C12 1_555 1_555
C12 C13 1_555 1_555
C13 H9 1_555 1_555
C14 C13 1_555 1_555
H10 C14 1_555 1_555
C15 C14 1_555 1_555
H11 C15 1_555 1_555
C16 C15 1_555 1_555
H12 C16 1_555 1_555
C17 C12 1_555 1_555
H13 C17 1_555 1_555
C18 O3 1_555 1_555
C19 C18 1_555 1_555
C20 C19 1_555 1_555
H14 C20 1_555 1_555
C21 C20 1_555 1_555
H15 C21 1_555 1_555
C22 C21 1_555 1_555
H16 C22 1_555 1_555
C23 C22 1_555 1_555
H17 C23 1_555 1_555
C24 C19 1_555 1_555
H18 C24 1_555 1_555
C25 C26 1_555 1_555
C26 C27 1_555 1_555
C27 H19 1_555 1_555
C28 C27 1_555 1_555
H20 C28 1_555 1_555
C29 C28 1_555 1_555
H21 C29 1_555 1_555
C30 C29 1_555 1_555
H22 C30 1_555 1_555
C31 C26 1_555 1_555
H23 C31 1_555 1_555
C32 O7 1_555 1_555
C33 C32 1_555 1_555
C34 C33 1_555 1_555
H24 C34 1_555 1_555
C35 C34 1_555 1_555
H25 C35 1_555 1_555
C36 C35 1_555 1_555
H26 C36 1_555 1_555
C37 C36 1_555 1_555
H27 C37 1_555 1_555
C38 C33 1_555 1_555
H28 C38 1_555 1_555
Cu1A O2 1_555 1_555
Cu2A O6 1_555 1_555
O2A Cu1 1_555 1_555
O4A Cu1 1_555 1_555
O6A Cu2 1_555 1_555
O8A Cu2 1_555 1_555
O4 Cu1A 1_555 1_555
O8 Cu2A 1_555 1_555
N4 C8 1_555 1_555
C2 C3 1_555 1_555
C6 C7 1_555 1_555
C9 C10 1_555 1_555
C16 C17 1_555 1_555
C23 C24 1_555 1_555
C30 C31 1_555 1_555
C37 C38 1_555 1_555

#END
