
#######################################################################
#
#                 Cambridge Crystallographic Data Centre
#                                CCDC 
#
#######################################################################
#
# If this CIF has been generated from an entry in the Cambridge 
# Structural Database, then it will include bibliographic, chemical, 
# crystal, experimental, refinement or atomic coordinate data resulting 
# from the CCDC's data processing and validation procedures.
#
#######################################################################

data_VOYBOC
_symmetry_cell_setting           monoclinic
_symmetry_space_group_name_H-M   'C 2/c'
_symmetry_Int_Tables_number      15
_space_group_name_Hall           '-C 2yn'
loop_
_symmetry_equiv_pos_site_id
_symmetry_equiv_pos_as_xyz
1 x,y,z
2 -x,y,1/2-z
3 1/2+x,1/2+y,z
4 1/2-x,1/2+y,1/2-z
5 -x,-y,-z
6 x,-y,1/2+z
7 1/2-x,1/2-y,-z
8 1/2+x,1/2-y,1/2+z
_cell_length_a                   13.006(3)
_cell_length_b                   31.084(4)
_cell_length_c                   17.660(4)
_cell_angle_alpha                90
_cell_angle_beta                 108.39(3)
_cell_angle_gamma                90
_cell_volume                     6774.95
loop_
_atom_site_label
_atom_site_type_symbol
_atom_site_fract_x
_atom_site_fract_y
_atom_site_fract_z
Zn1 Zn 0.0000 0.10775(2) 0.7500
Zn2 Zn 0.5000 0.11417(2) 0.7500
Zn3 Zn 0.24981(3) 0.13911(2) 0.75690(2)
O1 O -0.0053(3) 0.34308(12) 0.3378(2)
O2 O -0.1710(3) 0.32108(11) 0.33901(19)
O3 O 0.2250(3) 0.19451(11) 0.6710(2)
O4 O 0.0915(2) 0.14551(9) 0.70989(17)
C1 C -0.0286(4) 0.23485(18) 0.5276(3)
C2 C 0.0832(4) 0.23188(16) 0.5680(3)
H1 H 0.1325 0.2503 0.5539
C3 C 0.1213(4) 0.20166(16) 0.6288(3)
C4 C 0.0494(4) 0.17381(16) 0.6493(3)
C5 C -0.0607(4) 0.17797(18) 0.6101(3)
H2 H -0.1109 0.1601 0.6245
C6 C -0.0974(4) 0.20803(18) 0.5501(3)
H3 H -0.1731 0.2102 0.5234
C7 C -0.0712(4) 0.26568(16) 0.4615(3)
H4 H -0.1474 0.2658 0.4365
C8 C -0.0145(4) 0.29308(17) 0.4335(3)
H5 H 0.0616 0.2945 0.4590
C9 C -0.0627(4) 0.32128(17) 0.3655(3)
C10 C 0.3049(4) 0.22587(19) 0.6660(4)
H6 H 0.3066 0.2273 0.6110
H7 H 0.3764 0.2174 0.7015
H8 H 0.2857 0.2542 0.6821
O5 O 0.2419(3) -0.09311(13) 0.3383(2)
O6 O 0.0760(3) -0.06956(11) 0.3355(2)
O7 O 0.4716(3) 0.05898(12) 0.6650(2)
O8 O 0.3368(2) 0.10595(10) 0.70851(18)
C11 C 0.2177(4) 0.01704(16) 0.5250(3)
C12 C 0.3314(4) 0.02093(16) 0.5638(3)
H9 H 0.3814 0.0032 0.5490
C13 C 0.3669(4) 0.05138(16) 0.6237(3)
C14 C 0.2961(4) 0.07774(15) 0.6473(3)
C15 C 0.1855(4) 0.07292(18) 0.6097(3)
H10 H 0.1353 0.0898 0.6261
C16 C 0.1485(4) 0.04324(18) 0.5479(3)
H11 H 0.0729 0.0412 0.5208
C17 C 0.1767(4) -0.01401(17) 0.4586(3)
H12 H 0.1008 -0.0137 0.4321
C18 C 0.2334(4) -0.04200(16) 0.4320(3)
H13 H 0.3094 -0.0438 0.4579
C19 C 0.1832(4) -0.07067(17) 0.3632(3)
C20 C 0.5515(4) 0.02638(17) 0.6612(3)
H14 H 0.5311 -0.0015 0.6781
H15 H 0.6232 0.0347 0.6966
H16 H 0.5534 0.0242 0.6063
Zn3A Zn -0.24981(3) 0.13911(2) 0.74310(2)
O1A O 0.0053(3) 0.34308(12) 1.1622(2)
O2A O 0.1710(3) 0.32108(11) 1.16099(19)
O3A O -0.2250(3) 0.19451(11) 0.8290(2)
O4A O -0.0915(2) 0.14551(9) 0.79011(17)
C1A C 0.0286(4) 0.23485(18) 0.9724(3)
C2A C -0.0832(4) 0.23188(16) 0.9320(3)
H1A H -0.1325 0.2503 0.9461
C3A C -0.1213(4) 0.20166(16) 0.8712(3)
C4A C -0.0494(4) 0.17381(16) 0.8507(3)
C5A C 0.0607(4) 0.17797(18) 0.8899(3)
H2A H 0.1109 0.1601 0.8755
C6A C 0.0974(4) 0.20803(18) 0.9499(3)
H3A H 0.1731 0.2102 0.9766
C7A C 0.0712(4) 0.26568(16) 1.0385(3)
H4A H 0.1474 0.2658 1.0635
C8A C 0.0145(4) 0.29308(17) 1.0665(3)
H5A H -0.0616 0.2945 1.0410
C9A C 0.0627(4) 0.32128(17) 1.1345(3)
C10A C -0.3049(4) 0.22587(19) 0.8340(4)
H6A H -0.3066 0.2273 0.8890
H7A H -0.3764 0.2174 0.7985
H8A H -0.2857 0.2542 0.8179
O5A O -0.2419(3) -0.09311(13) 1.1617(2)
O6A O -0.0760(3) -0.06956(11) 1.1645(2)
O7A O -0.4716(3) 0.05898(12) 0.8350(2)
O8A O -0.3368(2) 0.10595(10) 0.79149(18)
C11A C -0.2177(4) 0.01704(16) 0.9750(3)
C12A C -0.3314(4) 0.02093(16) 0.9362(3)
H9A H -0.3814 0.0032 0.9510
C13A C -0.3669(4) 0.05138(16) 0.8763(3)
C14A C -0.2961(4) 0.07774(15) 0.8527(3)
C15A C -0.1855(4) 0.07292(18) 0.8903(3)
H10A H -0.1353 0.0898 0.8739
C16A C -0.1485(4) 0.04324(18) 0.9521(3)
H11A H -0.0729 0.0412 0.9792
C17A C -0.1767(4) -0.01401(17) 1.0414(3)
H12A H -0.1008 -0.0137 1.0679
C18A C -0.2334(4) -0.04200(16) 1.0680(3)
H13A H -0.3094 -0.0438 1.0421
C19A C -0.1832(4) -0.07067(17) 1.1368(3)
C20A C -0.5515(4) 0.02638(17) 0.8388(3)
H14A H -0.5311 -0.0015 0.8219
H15A H -0.6232 0.0347 0.8034
H16A H -0.5534 0.0242 0.8937
Zn1D Zn 0.0000 -0.10775(2) 0.2500
Zn1D_2 Zn 0.0000 -0.10775(2) 1.2500
Zn2_2 Zn -0.5000 0.11417(2) 0.7500
Zn2F Zn 0.0000 0.38583(2) 0.2500
Zn2F_2 Zn 0.0000 0.38583(2) 1.2500
Zn3D Zn -0.24981(3) -0.13911(2) 1.24310(2)
Zn3E Zn 0.24981(3) -0.13911(2) 0.25690(2)
Zn3F Zn 0.25019(3) 0.36089(2) 1.24310(2)
Zn3G Zn -0.25019(3) 0.36089(2) 0.25690(2)
O1F O 0.5053(3) 0.15692(12) 0.6622(2)
O1G O 0.4947(3) 0.15692(12) 0.8378(2)
O2F O -0.3290(3) 0.17892(11) 0.66099(19)
O2G O 0.3290(3) 0.17892(11) 0.83901(19)
O5D O -0.2419(3) 0.09311(13) 0.6617(2)
O5E O 0.2419(3) 0.09311(13) 0.8383(2)
O6D O -0.0760(3) 0.06956(11) 0.6645(2)
O6E O 0.0760(3) 0.06956(11) 0.8355(2)
O7A_2 O 0.5284(3) 0.05898(12) 0.8350(2)
O8A_2 O 0.6632(2) 0.10595(10) 0.79149(18)
loop_
_geom_bond_atom_site_label_1
_geom_bond_atom_site_label_2
_geom_bond_site_symmetry_1
_geom_bond_site_symmetry_2
Zn1 O4 1_555 1_555
Zn2 O7 1_555 1_555
Zn3 O3 1_555 1_555
O1 C9 1_555 1_555
O2 C9 1_555 1_555
O3 C3 1_555 1_555
O4 Zn3 1_555 1_555
C1 C2 1_555 1_555
C2 H1 1_555 1_555
C3 C2 1_555 1_555
C4 O4 1_555 1_555
C5 C4 1_555 1_555
H2 C5 1_555 1_555
C6 C1 1_555 1_555
H3 C6 1_555 1_555
C7 C1 1_555 1_555
H4 C7 1_555 1_555
C8 C7 1_555 1_555
H5 C8 1_555 1_555
C9 C8 1_555 1_555
C10 O3 1_555 1_555
H6 C10 1_555 1_555
H7 C10 1_555 1_555
H8 C10 1_555 1_555
O5 C19 1_555 1_555
O6 C19 1_555 1_555
O7 C13 1_555 1_555
O8 Zn2 1_555 1_555
C11 C12 1_555 1_555
C12 H9 1_555 1_555
C13 C12 1_555 1_555
C14 O8 1_555 1_555
C15 C14 1_555 1_555
H10 C15 1_555 1_555
C16 C11 1_555 1_555
H11 C16 1_555 1_555
C17 C11 1_555 1_555
H12 C17 1_555 1_555
C18 C17 1_555 1_555
H13 C18 1_555 1_555
C19 C18 1_555 1_555
C20 O7 1_555 1_555
H14 C20 1_555 1_555
H15 C20 1_555 1_555
H16 C20 1_555 1_555
Zn3A O3A 1_555 1_555
O1A C9A 1_555 1_555
O2A C9A 1_555 1_555
O3A C3A 1_555 1_555
O4A Zn1 1_555 1_555
C1A C2A 1_555 1_555
C2A H1A 1_555 1_555
C3A C2A 1_555 1_555
C4A O4A 1_555 1_555
C5A C4A 1_555 1_555
H2A C5A 1_555 1_555
C6A C1A 1_555 1_555
H3A C6A 1_555 1_555
C7A C1A 1_555 1_555
H4A C7A 1_555 1_555
C8A C7A 1_555 1_555
H5A C8A 1_555 1_555
C9A C8A 1_555 1_555
C10A O3A 1_555 1_555
H6A C10A 1_555 1_555
H7A C10A 1_555 1_555
H8A C10A 1_555 1_555
O5A C19A 1_555 1_555
O6A C19A 1_555 1_555
O7A C13A 1_555 1_555
O8A Zn3A 1_555 1_555
C11A C12A 1_555 1_555
C12A H9A 1_555 1_555
C13A C12A 1_555 1_555
C14A O8A 1_555 1_555
C15A C14A 1_555 1_555
H10A C15A 1_555 1_555
C16A C11A 1_555 1_555
H11A C16A 1_555 1_555
C17A C11A 1_555 1_555
H12A C17A 1_555 1_555
C18A C17A 1_555 1_555
H13A C18A 1_555 1_555
C19A C18A 1_555 1_555
C20A O7A 1_555 1_555
H14A C20A 1_555 1_555
H15A C20A 1_555 1_555
H16A C20A 1_555 1_555
Zn1D O6 1_555 1_555
Zn1D_2 O6A 1_555 1_555
Zn2_2 O7A 1_555 1_555
Zn2F O1 1_555 1_555
Zn2F_2 O1A 1_555 1_555
Zn3D O5A 1_555 1_555
Zn3E O5 1_555 1_555
Zn3F O2A 1_555 1_555
Zn3G O2 1_555 1_555
O1F Zn2 1_555 1_555
O1G Zn2 1_555 1_555
O2F Zn3A 1_555 1_555
O2G Zn3 1_555 1_555
O5D Zn3A 1_555 1_555
O5E Zn3 1_555 1_555
O6D Zn1 1_555 1_555
O6E Zn1 1_555 1_555
O7A_2 Zn2 1_555 1_555
O8A_2 Zn2 1_555 1_555
Zn3 O8 1_555 1_555
C3 C4 1_555 1_555
C5 C6 1_555 1_555
C13 C14 1_555 1_555
C15 C16 1_555 1_555
Zn3A O4A 1_555 1_555
C3A C4A 1_555 1_555
C5A C6A 1_555 1_555
O8A Zn2_2 1_555 1_555
C13A C14A 1_555 1_555
C15A C16A 1_555 1_555

#END
