
#######################################################################
#
#                 Cambridge Crystallographic Data Centre
#                                CCDC 
#
#######################################################################
#
# If this CIF has been generated from an entry in the Cambridge 
# Structural Database, then it will include bibliographic, chemical, 
# crystal, experimental, refinement or atomic coordinate data resulting 
# from the CCDC's data processing and validation procedures.
#
#######################################################################

data_VOYCER
_symmetry_cell_setting           orthorhombic
_symmetry_space_group_name_H-M   'P n a a'
_symmetry_Int_Tables_number      56
_space_group_name_Hall           '-P 2ac 2bc'
loop_
_symmetry_equiv_pos_site_id
_symmetry_equiv_pos_as_xyz
1 x,y,z
2 -x,1/2+y,1/2+z
3 1/2+x,1/2-y,z
4 1/2-x,-y,1/2+z
5 -x,-y,-z
6 x,1/2-y,1/2-z
7 1/2-x,1/2+y,-z
8 1/2+x,y,1/2-z
_cell_length_a                   18.931(4)
_cell_length_b                   17.280(6)
_cell_length_c                   9.379(2)
_cell_angle_alpha                90
_cell_angle_beta                 90
_cell_angle_gamma                90
_cell_volume                     3068.13
loop_
_atom_site_label
_atom_site_type_symbol
_atom_site_fract_x
_atom_site_fract_y
_atom_site_fract_z
Sn1 Sn 0.18649(1) 0.25000 0.75000
C1 C 0.2291(1) 0.1425(1) 0.6800(2)
C2 C 0.2904(4) 0.1082(1) 0.7302(3)
C3 C 0.3135(1) 0.0380(2) 0.6744(4)
C4 C 0.2742(2) 0.0007(1) 0.5702(3)
C5 C 0.2129(2) 0.0333(2) 0.5225(4)
C6 C 0.1905(1) 0.1040(2) 0.5750(3)
O1 O 0.1789(1) 0.2091(1) 0.9731(2)
C7 C 0.2304(1) 0.2132(1) 1.0613(2)
O2 O 0.2935(1) 0.2225(1) 1.0272(2)
C8 C 0.2104(1) 0.2087(1) 1.2174(2)
C9 C 0.0743(2) 0.2500 0.7500
C10 C 0.0357(1) 0.1940(1) 0.8246(3)
C11 C -0.0377(1) 0.1934(1) 0.8224(3)
C12 C -0.0746(2) 0.2500 0.7500
C1E C 0.2291(1) 0.3575(1) 0.8200(2)
O1E O 0.1789(1) 0.2909(1) 0.5269(2)
C8E C 0.2104(1) 0.2913(1) 1.2826(2)
C10E C 0.0357(1) 0.3060(1) 0.6754(3)
C11E C -0.0377(1) 0.3066(1) 0.6776(3)
C2E C 0.2904(4) 0.3918(1) 0.7698(3)
C6E C 0.1905(1) 0.3960(2) 0.9250(3)
C7E C 0.2304(1) 0.2868(1) 1.4387(2)
C3E C 0.3135(1) 0.4620(2) 0.8256(4)
C5E C 0.2129(2) 0.4667(2) 0.9775(4)
C4E C 0.2742(2) 0.4993(1) 0.9298(3)
O1E_2 O 0.1789(1) 0.2909(1) 1.5269(2)
O2E O 0.2935(1) 0.2775(1) 1.4728(2)
Sn1_2 Sn 0.18649(1) 0.25000 1.75000
N1 N 0.3911(1) 0.2500 1.2500
C13 C 0.4331(1) 0.1774(2) 1.2766(3)
C14 C 0.3821(1) 0.1104(1) 1.3025(3)
C15 C 0.4226(2) 0.0354(2) 1.3293(4)
C16 C 0.4735(2) 0.0178(2) 1.2084(4)
C17 C 0.5232(2) 0.0849(2) 1.1836(4)
C18 C 0.4829(1) 0.1602(2) 1.1527(3)
C13E C 0.4331(1) 0.3226(2) 1.2234(3)
C14E C 0.3821(1) 0.3896(1) 1.1975(3)
C18E C 0.4829(1) 0.3398(2) 1.3473(3)
C15E C 0.4226(2) 0.4646(2) 1.1707(4)
C17E C 0.5232(2) 0.4151(2) 1.3164(4)
C16E C 0.4735(2) 0.4822(2) 1.2916(4)
loop_
_geom_bond_atom_site_label_1
_geom_bond_atom_site_label_2
_geom_bond_site_symmetry_1
_geom_bond_site_symmetry_2
Sn1 C1 1_555 1_555
C1 C2 1_555 1_555
C2 C3 1_555 1_555
C3 C4 1_555 1_555
C4 C5 1_555 1_555
C5 C6 1_555 1_555
C6 C1 1_555 1_555
O1 Sn1 1_555 1_555
C7 O1 1_555 1_555
O2 C7 1_555 1_555
C8 C7 1_555 1_555
C9 Sn1 1_555 1_555
C10 C9 1_555 1_555
C11 C10 1_555 1_555
C12 C11 1_555 1_555
N1 C13 1_555 1_555
C13 C14 1_555 1_555
C14 C15 1_555 1_555
C15 C16 1_555 1_555
C16 C17 1_555 1_555
C17 C18 1_555 1_555
C18 C13 1_555 1_555
C1E Sn1 1_555 1_555
O1E Sn1 1_555 1_555
C8E C8 1_555 1_555
C10E C9 1_555 1_555
C11E C12 1_555 1_555
C2E C1E 1_555 1_555
C6E C1E 1_555 1_555
C7E C8E 1_555 1_555
C3E C2E 1_555 1_555
C5E C6E 1_555 1_555
C4E C3E 1_555 1_555
C13E N1 1_555 1_555
C14E C13E 1_555 1_555
C18E C13E 1_555 1_555
C15E C14E 1_555 1_555
C17E C18E 1_555 1_555
C16E C15E 1_555 1_555
O1E_2 C7E 1_555 1_555
O2E C7E 1_555 1_555
Sn1_2 O1E_2 1_555 1_555
C10E C11E 1_555 1_555
C5E C4E 1_555 1_555
C17E C16E 1_555 1_555

#END
