
#######################################################################
#
#                 Cambridge Crystallographic Data Centre
#                                CCDC 
#
#######################################################################
#
# If this CIF has been generated from an entry in the Cambridge 
# Structural Database, then it will include bibliographic, chemical, 
# crystal, experimental, refinement or atomic coordinate data resulting 
# from the CCDC's data processing and validation procedures.
#
#######################################################################

data_VOYGOH
_symmetry_cell_setting           monoclinic
_symmetry_space_group_name_H-M   'P 21/n'
_symmetry_Int_Tables_number      14
_space_group_name_Hall           '-P 2yn'
loop_
_symmetry_equiv_pos_site_id
_symmetry_equiv_pos_as_xyz
1 x,y,z
2 1/2-x,1/2+y,1/2-z
3 -x,-y,-z
4 1/2+x,1/2-y,1/2+z
_cell_length_a                   21.6854(9)
_cell_length_b                   29.7276(11)
_cell_length_c                   34.8286(14)
_cell_angle_alpha                90
_cell_angle_beta                 96.3420(10)
_cell_angle_gamma                90
_cell_volume                     22315
loop_
_atom_site_label
_atom_site_type_symbol
_atom_site_fract_x
_atom_site_fract_y
_atom_site_fract_z
N1 N 0.9180(4) 0.3889(3) -0.0723(3)
C43 C 0.9799(5) 0.3910(4) -0.0889(4)
H25 H 1.0122 0.3814 -0.0691
H26 H 0.9789 0.3697 -0.1101
C44 C 0.9968(5) 0.4366(4) -0.1034(3)
C45 C 1.0523(7) 0.4297(5) -0.1260(5)
H27 H 1.0832 0.4119 -0.1105
H28 H 1.0390 0.4127 -0.1493
C46 C 1.0800(8) 0.4708(6) -0.1366(5)
H29 H 1.0868 0.4900 -0.1144
H30 H 1.0530 0.4855 -0.1563
H31 H 1.1190 0.4644 -0.1461
C47 C 0.9114(6) 0.3407(4) -0.0577(5)
H32 H 0.9157 0.3201 -0.0788
H33 H 0.9452 0.3347 -0.0377
C48 C 0.8518(7) 0.3311(5) -0.0420(5)
H34 H 0.8432 0.3555 -0.0248
H35 H 0.8189 0.3308 -0.0632
C49 C 0.8502(8) 0.2889(5) -0.0210(7)
H36 H 0.8821 0.2889 0.0008
H37 H 0.8582 0.2640 -0.0378
C50 C 0.7885(8) 0.2836(6) -0.0074(5)
H38 H 0.7571 0.2938 -0.0270
H39 H 0.7867 0.3010 0.0157
H40 H 0.7817 0.2524 -0.0019
C51 C 0.9176(6) 0.4214(4) -0.0397(4)
H41 H 0.8777 0.4194 -0.0298
H42 H 0.9212 0.4515 -0.0500
C52 C 0.9675(7) 0.4156(4) -0.0062(4)
H43 H 0.9674 0.3846 0.0024
H44 H 1.0076 0.4214 -0.0152
C53 C 0.9602(8) 0.4456(5) 0.0271(5)
H45 H 0.9607 0.4765 0.0183
H46 H 0.9198 0.4400 0.0356
C54 C 1.0054(11) 0.4406(8) 0.0588(7)
H47 H 1.0123 0.4092 0.0641
H48 H 0.9914 0.4549 0.0810
H49 H 1.0434 0.4543 0.0531
C55 C 0.8627(6) 0.4018(5) -0.1008(5)
H50 H 0.8253 0.3987 -0.0882
H51 H 0.8666 0.4333 -0.1075
C56 C 0.8554(10) 0.3746(8) -0.1375(7)
H52 H 0.8540 0.3428 -0.1315
H53 H 0.8900 0.3800 -0.1523
C57 C 0.7929(9) 0.3898(8) -0.1611(7)
H54 H 0.7579 0.3813 -0.1476
H55 H 0.7924 0.4222 -0.1646
C58 C 0.7898(9) 0.3678(7) -0.1974(7)
H56 H 0.8287 0.3712 -0.2079
H57 H 0.7573 0.3808 -0.2147
H58 H 0.7815 0.3364 -0.1941
N2 N -0.1569(5) 0.7949(3) -0.1045(3)
C59 C -0.1701(6) 0.7811(5) -0.0648(3)
H59 H -0.2129 0.7884 -0.0619
H60 H -0.1656 0.7487 -0.0626
C60 C -0.1295(6) 0.8025(5) -0.0322(4)
H61 H -0.0866 0.7945 -0.0344
H62 H -0.1329 0.8349 -0.0346
C61 C -0.1447(11) 0.7894(8) 0.0056(5)
H63 H -0.1417 0.7569 0.0078
H64 H -0.1874 0.7976 0.0078
C62 C -0.1052(13) 0.8096(9) 0.0379(8)
H65 H -0.0679 0.8209 0.0288
H66 H -0.0946 0.7873 0.0574
H67 H -0.1270 0.8338 0.0486
C63 C -0.1634(7) 0.8457(4) -0.1096(4)
H68 H -0.1555 0.8530 -0.1357
H69 H -0.1312 0.8600 -0.0922
C64 C -0.2257(7) 0.8667(6) -0.1026(5)
H70 H -0.2590 0.8479 -0.1145
H71 H -0.2288 0.8674 -0.0750
C65 C -0.2340(8) 0.9123(6) -0.1179(5)
H72 H -0.2007 0.9309 -0.1056
H73 H -0.2294 0.9114 -0.1453
C66 C -0.2920(11) 0.9341(7) -0.1132(8)
H74 H -0.3210 0.9285 -0.1356
H75 H -0.2854 0.9658 -0.1102
H76 H -0.3082 0.9222 -0.0907
C67 C -0.2048(7) 0.7705(4) -0.1326(4)
H77 H -0.2459 0.7778 -0.1258
H78 H -0.1990 0.7383 -0.1290
C68 C -0.2028(9) 0.7813(6) -0.1759(5)
H79 H -0.1684 0.7661 -0.1858
H80 H -0.1988 0.8134 -0.1799
C69 C -0.2657(10) 0.7638(8) -0.1959(5)
H81 H -0.2687 0.7317 -0.1915
H82 H -0.2994 0.7784 -0.1846
C70 C -0.2718(13) 0.7725(9) -0.2370(6)
H83 H -0.2340 0.7643 -0.2473
H84 H -0.2800 0.8039 -0.2416
H85 H -0.3055 0.7550 -0.2495
C71 C -0.0931(6) 0.7826(4) -0.1112(4)
H86 H -0.0646 0.8006 -0.0942
H87 H -0.0873 0.7907 -0.1375
C72 C -0.0751(8) 0.7335(5) -0.1052(5)
H88 H -0.0737 0.7259 -0.0781
H89 H -0.1059 0.7145 -0.1196
C73 C -0.0123(11) 0.7252(6) -0.1189(6)
H90 H -0.0155 0.7325 -0.1461
H91 H 0.0166 0.7465 -0.1056
C74 C 0.0126(11) 0.6850(7) -0.1145(8)
H92 H 0.0258 0.6799 -0.0876
H93 H 0.0478 0.6832 -0.1289
H94 H -0.0175 0.6628 -0.1237
N3 N 0.5623(4) 0.8678(3) 0.0099(3)
C75 C 0.5483(6) 0.8341(4) -0.0208(4)
H95 H 0.5514 0.8045 -0.0091
H96 H 0.5056 0.8382 -0.0318
C76 C 0.5876(6) 0.8347(4) -0.0523(5)
H97 H 0.6301 0.8276 -0.0425
H98 H 0.5869 0.8644 -0.0639
C77 C 0.5627(10) 0.8001(7) -0.0822(6)
H99 H 0.5636 0.7705 -0.0704
H100 H 0.5200 0.8072 -0.0916
C78 C 0.6003(9) 0.8003(5) -0.1139(5)
H101 H 0.5937 0.8278 -0.1281
H102 H 0.5890 0.7753 -0.1306
H103 H 0.6433 0.7979 -0.1040
C79 C 0.5645(6) 0.9154(3) -0.0069(4)
H104 H 0.5721 0.9366 0.0143
H105 H 0.5994 0.9171 -0.0220
C80 C 0.5084(6) 0.9295(4) -0.0314(4)
H106 H 0.4744 0.9316 -0.0156
H107 H 0.4977 0.9065 -0.0508
C81 C 0.5153(8) 0.9748(4) -0.0518(5)
H108 H 0.4743 0.9845 -0.0627
H109 H 0.5302 0.9968 -0.0323
C82 C 0.5564(12) 0.9762(8) -0.0826(7)
H110 H 0.5581 1.0063 -0.0924
H111 H 0.5406 0.9564 -0.1032
H112 H 0.5973 0.9667 -0.0725
C83 C 0.5111(6) 0.8630(5) 0.0360(4)
H113 H 0.4717 0.8696 0.0211
H114 H 0.5099 0.8319 0.0444
C84 C 0.5179(8) 0.8924(7) 0.0707(5)
H115 H 0.5117 0.9238 0.0637
H116 H 0.5584 0.8889 0.0853
C85 C 0.4663(9) 0.8753(6) 0.0936(5)
H117 H 0.4269 0.8885 0.0835
H118 H 0.4629 0.8429 0.0913
C86 C 0.4809(14) 0.8876(10) 0.1337(7)
H119 H 0.5141 0.8690 0.1453
H120 H 0.4449 0.8834 0.1471
H121 H 0.4933 0.9186 0.1354
C87 C 0.6256(5) 0.8615(5) 0.0318(4)
H122 H 0.6561 0.8646 0.0135
H123 H 0.6326 0.8859 0.0502
C88 C 0.6382(6) 0.8194(6) 0.0525(5)
H124 H 0.6443 0.7949 0.0350
H125 H 0.6047 0.8117 0.0677
C89 C 0.6989(12) 0.8304(10) 0.0789(9)
H126 H 0.7305 0.8432 0.0645
H127 H 0.6916 0.8503 0.1000
C90 C 0.7142(16) 0.7854(10) 0.0921(10)
H128 H 0.6824 0.7651 0.0816
H129 H 0.7174 0.7845 0.1198
H130 H 0.7532 0.7767 0.0836
N4 N 0.3253(4) 0.6830(3) -0.1068(2)
C91 C 0.2614(5) 0.6664(4) -0.0993(3)
H131 H 0.2430 0.6887 -0.0836
H132 H 0.2355 0.6647 -0.1238
C92 C 0.2598(6) 0.6217(4) -0.0795(4)
H133 H 0.2789 0.6244 -0.0531
H134 H 0.2836 0.6001 -0.0926
C93 C 0.1937(7) 0.6046(5) -0.0794(5)
H135 H 0.1936 0.5793 -0.0618
H136 H 0.1684 0.6282 -0.0700
C94 C 0.1660(11) 0.5905(8) -0.1178(7)
H137 H 0.1909 0.5672 -0.1273
H138 H 0.1642 0.6157 -0.1350
H139 H 0.1249 0.5793 -0.1161
C95 C 0.3564(5) 0.6494(3) -0.1308(3)
H140 H 0.3973 0.6607 -0.1343
H141 H 0.3620 0.6216 -0.1162
C96 C 0.3233(5) 0.6386(4) -0.1699(3)
H142 H 0.3264 0.6642 -0.1869
H143 H 0.2797 0.6337 -0.1675
C97 C 0.3495(6) 0.5974(4) -0.1880(3)
H144 H 0.3934 0.6018 -0.1897
H145 H 0.3450 0.5715 -0.1716
C98 C 0.3172(7) 0.5878(5) -0.2280(5)
H146 H 0.2731 0.5865 -0.2270
H147 H 0.3314 0.5596 -0.2371
H148 H 0.3265 0.6114 -0.2454
C99 C 0.3668(5) 0.6885(3) -0.0690(3)
H149 H 0.4078 0.6970 -0.0749
H150 H 0.3705 0.6594 -0.0563
C100 C 0.3460(7) 0.7225(4) -0.0404(3)
H151 H 0.3448 0.7523 -0.0518
H152 H 0.3044 0.7151 -0.0346
C101 C 0.3895(8) 0.7226(5) -0.0037(5)
H153 H 0.3841 0.6947 0.0100
H154 H 0.4318 0.7231 -0.0103
C102 C 0.3812(10) 0.7607(7) 0.0227(6)
H155 H 0.3993 0.7873 0.0131
H156 H 0.4012 0.7538 0.0480
H157 H 0.3377 0.7655 0.0240
C103 C 0.3154(5) 0.7275(3) -0.1275(3)
H158 H 0.2921 0.7220 -0.1524
H159 H 0.2898 0.7462 -0.1128
C104 C 0.3723(6) 0.7535(4) -0.1339(4)
H160 H 0.4017 0.7341 -0.1449
H161 H 0.3919 0.7651 -0.1095
C105 C 0.3533(8) 0.7931(4) -0.1619(5)
H162 H 0.3440 0.7814 -0.1879
H163 H 0.3159 0.8070 -0.1545
C106 C 0.4015(9) 0.8271(5) -0.1618(6)
H164 H 0.4073 0.8414 -0.1370
H165 H 0.3894 0.8491 -0.1814
H166 H 0.4395 0.8131 -0.1671
N5 N 0.6485(6) 0.6064(4) -0.3091(2)
C107 C 0.6601(8) 0.5597(6) -0.3167(4)
H167 H 0.6986 0.5573 -0.3283
H168 H 0.6270 0.5485 -0.3353
C108 C 0.6643(12) 0.5302(8) -0.2811(7)
H169 H 0.6962 0.5408 -0.2615
H170 H 0.6249 0.5288 -0.2704
C109 C 0.6808(13) 0.4865(9) -0.2968(8)
H171 H 0.6489 0.4771 -0.3169
H172 H 0.7197 0.4889 -0.3080
C110 C 0.6864(11) 0.4550(8) -0.2665(7)
H173 H 0.6531 0.4591 -0.2508
H174 H 0.7254 0.4591 -0.2510
H175 H 0.6844 0.4251 -0.2771
C111 C 0.5844(9) 0.6114(6) -0.2919(5)
H176 H 0.5881 0.5976 -0.2665
H177 H 0.5760 0.6431 -0.2886
C112 C 0.5294(8) 0.5903(8) -0.3166(6)
H178 H 0.5346 0.5579 -0.3162
H179 H 0.5302 0.6002 -0.3431
C113 C 0.4624(12) 0.6020(7) -0.3034(7)
H180 H 0.4337 0.5771 -0.3076
H181 H 0.4651 0.6115 -0.2766
C114 C 0.4472(15) 0.6372(11) -0.3287(9)
H182 H 0.4813 0.6579 -0.3276
H183 H 0.4112 0.6523 -0.3215
H184 H 0.4387 0.6256 -0.3545
C115 C 0.6456(9) 0.6313(8) -0.3475(4)
H185 H 0.6129 0.6183 -0.3654
H186 H 0.6845 0.6269 -0.3584
C116 C 0.6334(15) 0.6828(9) -0.3438(6)
H187 H 0.6003 0.6885 -0.3278
H188 H 0.6705 0.6984 -0.3329
C117 C 0.6151(13) 0.6968(10) -0.3845(9)
H189 H 0.6504 0.7122 -0.3933
H190 H 0.6088 0.6696 -0.3998
C118 C 0.5614(11) 0.7251(8) -0.3943(7)
H191 H 0.5609 0.7353 -0.4204
H192 H 0.5634 0.7505 -0.3772
H193 H 0.5244 0.7082 -0.3916
C119 C 0.6920(9) 0.6296(5) -0.2795(3)
H194 H 0.6860 0.6191 -0.2538
H195 H 0.6855 0.6619 -0.2806
C120 C 0.7626(14) 0.6167(11) -0.2901(9)
H196 H 0.7705 0.5846 -0.2894
H197 H 0.7716 0.6292 -0.3145
C121 C 0.7972(15) 0.6424(11) -0.2539(9)
H198 H 0.8012 0.6741 -0.2599
H199 H 0.7737 0.6397 -0.2319
C122 C 0.8530(15) 0.6240(10) -0.2459(9)
H200 H 0.8513 0.6015 -0.2263
H201 H 0.8823 0.6468 -0.2367
H202 H 0.8656 0.6104 -0.2688
N6 N 0.6219(4) 0.6125(3) 0.1935(2)
C123 C 0.6711(6) 0.5843(5) 0.1785(3)
H203 H 0.6511 0.5614 0.1615
H204 H 0.6953 0.6031 0.1631
C124 C 0.7137(9) 0.5619(6) 0.2088(6)
H205 H 0.6897 0.5467 0.2268
H206 H 0.7393 0.5844 0.2231
C125 C 0.7546(10) 0.5283(7) 0.1912(6)
H207 H 0.7294 0.5037 0.1799
H208 H 0.7744 0.5427 0.1708
C126 C 0.8030(9) 0.5101(7) 0.2208(6)
H209 H 0.8311 0.5338 0.2298
H210 H 0.8256 0.4866 0.2096
H211 H 0.7837 0.4982 0.2421
C127 C 0.5769(6) 0.5847(5) 0.2134(3)
H212 H 0.6004 0.5690 0.2347
H213 H 0.5491 0.6052 0.2246
C128 C 0.5392(9) 0.5517(7) 0.1909(6)
H214 H 0.5666 0.5303 0.1805
H215 H 0.5162 0.5670 0.1693
C129 C 0.4914(7) 0.5246(5) 0.2133(5)
H216 H 0.4757 0.5427 0.2333
H217 H 0.4569 0.5132 0.1959
C130 C 0.5304(10) 0.4893(7) 0.2292(7)
H218 H 0.5139 0.4772 0.2515
H219 H 0.5713 0.5008 0.2366
H220 H 0.5323 0.4660 0.2103
C131 C 0.6461(7) 0.6470(5) 0.2240(4)
H221 H 0.6685 0.6314 0.2456
H222 H 0.6110 0.6621 0.2333
C132 C 0.6900(9) 0.6832(6) 0.2084(5)
H223 H 0.6675 0.6984 0.1864
H224 H 0.7251 0.6679 0.1992
C133 C 0.7162(10) 0.7212(7) 0.2401(6)
H225 H 0.7557 0.7122 0.2538
H226 H 0.7210 0.7502 0.2280
C134 C 0.6655(11) 0.7224(8) 0.2667(7)
H227 H 0.6408 0.7490 0.2615
H228 H 0.6839 0.7229 0.2931
H229 H 0.6398 0.6963 0.2624
C135 C 0.5916(7) 0.6382(5) 0.1569(4)
H230 H 0.6242 0.6555 0.1468
H231 H 0.5782 0.6157 0.1376
C136 C 0.5402(11) 0.6683(8) 0.1592(7)
H232 H 0.5565 0.6952 0.1723
H233 H 0.5129 0.6542 0.1760
C137 C 0.4975(13) 0.6842(10) 0.1207(8)
H234 H 0.4898 0.6610 0.1012
H235 H 0.4594 0.6992 0.1256
C138 C 0.5473(11) 0.7141(8) 0.1146(6)
H236 H 0.5501 0.7374 0.1338
H237 H 0.5396 0.7274 0.0894
H238 H 0.5856 0.6977 0.1165
Mo1 Mo 0.07166(2) 0.917199(18) 0.030506(15)
Mo2 Mo -0.01416(3) 0.929028(18) -0.060150(15)
Mo3 Mo 0.22927(3) 1.04081(2) -0.013346(16)
Mo4 Mo 0.14997(3) 1.05207(2) -0.095622(16)
Mo5 Mo 0.01962(3) 0.986028(19) -0.110957(15)
Mo6 Mo 0.17295(3) 0.964124(19) 0.047860(15)
Mo7 Mo 0.30894(3) 0.94157(2) 0.000333(17)
Mo8 Mo 0.06175(3) 0.830741(18) -0.035056(16)
Mo9 Mo 0.18108(3) 0.81127(2) -0.078468(17)
Mo10 Mo 0.30746(3) 0.87758(2) -0.051075(17)
Mo11 Mo 0.21815(3) 0.89054(2) -0.143798(17)
Mo12 Mo 0.15478(3) 0.96407(2) -0.159030(16)
Zn1 Zn 0.06743(3) 1.02877(2) -0.016801(19)
Zn2 Zn 0.06030(4) 0.86935(3) -0.13045(2)
Zn3 Zn 0.20399(4) 0.84881(3) 0.01832(2)
Zn4 Zn 0.28811(4) 0.99119(3) -0.09345(2)
P1 P 0.15571(7) 0.93337(5) -0.05593(4)
O1 O 0.00928(18) 1.07116(13) 0.00228(11)
O2 O 0.09197(19) 0.98026(13) 0.02131(11)
O3 O 0.01820(19) 0.99019(13) -0.05526(11)
O4 O 0.09851(19) 0.91217(14) -0.03938(11)
O5 O 0.1425(2) 1.04847(14) -0.03858(12)
O6 O 0.0160(2) 0.92047(15) -0.11058(12)
O7 O -0.0060(2) 0.86128(14) -0.05700(13)
O8 O 0.1537(2) 0.82198(14) -0.02576(13)
O9 O 0.0928(2) 0.83044(14) -0.08783(12)
O10 O 0.2341(2) 1.03336(15) -0.07044(12)
O11 O 0.0618(2) 0.85231(14) 0.01343(12)
O12 O 0.1987(2) 1.02522(15) 0.03094(12)
O13 O 0.2612(2) 0.81951(16) -0.05739(13)
O14 O 0.3134(2) 0.94336(16) -0.05540(13)
O15 O 0.2749(2) 0.88075(15) -0.00124(12)
O16 O -0.0911(2) 0.93306(16) -0.06955(14)
O17 O 0.1323(2) 0.96676(14) -0.08877(11)
O18 O 0.1701(2) 0.97239(17) 0.09483(12)
O19 O 0.0665(2) 1.04389(15) -0.10491(12)
O20 O 0.1289(2) 0.90185(16) -0.15200(12)
O21 O 0.2664(2) 0.94696(16) 0.05023(12)
O22 O 0.2376(2) 0.95363(16) -0.13300(13)
O23 O -0.0500(2) 1.00304(16) -0.13088(14)
O24 O 0.19688(19) 0.95725(14) -0.02281(11)
O25 O 0.3015(2) 1.00835(16) -0.00479(14)
O26 O 0.1954(2) 0.89639(14) -0.07311(12)
O27 O 0.3010(2) 0.87913(17) -0.11039(13)
O28 O 0.0601(2) 0.97665(16) -0.16206(12)
O29 O 0.0361(2) 0.77801(15) -0.03221(15)
O30 O 0.0472(2) 0.91434(15) 0.07400(12)
O31 O 0.15954(19) 0.89989(14) 0.03889(12)
O32 O 0.1694(2) 1.02699(16) -0.14068(13)
O33 O 0.1603(3) 1.10746(16) -0.10186(15)
O34 O 0.1930(2) 0.82957(16) -0.12741(13)
O35 O 0.1630(3) 0.96957(19) -0.20573(13)
O36 O 0.2400(3) 0.87955(19) -0.18750(14)
O37 O 0.3803(2) 0.85847(19) -0.04219(16)
O38 O 0.3821(2) 0.93670(19) 0.02049(15)
O39 O 0.1743(3) 0.75470(16) -0.08292(15)
O40 O 0.2518(2) 1.09450(17) -0.00512(15)
C1 C 0.4896(4) 0.6358(3) 0.3001(2)
C2 C 0.4547(4) 0.6622(3) 0.2672(2)
C3 C 0.4563(7) 0.7075(4) 0.2673(3)
H1 H 0.4783 0.7225 0.2879
C4 C 0.4254(7) 0.7325(4) 0.2371(3)
H2 H 0.4262 0.7637 0.2384
C5 C 0.3940(4) 0.7120(3) 0.2056(2)
C6 C 0.3921(5) 0.6663(3) 0.2060(2)
H3 H 0.3706 0.6512 0.1853
C7 C 0.4219(5) 0.6418(3) 0.2367(2)
H4 H 0.4193 0.6106 0.2362
C8 C 0.3626(5) 0.7404(3) 0.1737(2)
C9 C 0.3747(6) 0.7847(4) 0.1726(3)
H5 H 0.4033 0.7971 0.1915
C10 C 0.3457(6) 0.8127(3) 0.1437(3)
H6 H 0.3551 0.8432 0.1437
C11 C 0.3040(4) 0.7956(3) 0.1157(2)
C12 C 0.2932(6) 0.7507(3) 0.1159(3)
H7 H 0.2663 0.7379 0.0963
C13 C 0.3223(6) 0.7237(4) 0.1453(3)
H8 H 0.3135 0.6930 0.1452
C14 C 0.2724(4) 0.8271(3) 0.0853(2)
O41 O 0.4967(3) 0.59541(19) 0.29683(15)
O42 O 0.5094(3) 0.66042(18) 0.32916(14)
O43 O 0.2375(3) 0.80832(19) 0.05839(16)
O44 O 0.2816(3) 0.8672(2) 0.08878(17)
C15 C 0.6181(4) 1.0459(3) -0.3652(2)
C16 C 0.5824(4) 1.0363(3) -0.3316(2)
C17 C 0.5987(5) 1.0017(4) -0.3066(3)
H9 H 0.6315 0.9829 -0.3110
C18 C 0.5670(5) 0.9944(4) -0.2747(3)
H10 H 0.5794 0.9711 -0.2578
C19 C 0.5179(4) 1.0207(3) -0.2675(3)
C20 C 0.5022(5) 1.0554(3) -0.2927(3)
H11 H 0.4687 1.0737 -0.2887
C21 C 0.5343(4) 1.0639(3) -0.3237(3)
H12 H 0.5235 1.0885 -0.3396
C22 C 0.4827(5) 1.0113(3) -0.2341(3)
C23 C 0.4790(6) 0.9684(4) -0.2197(4)
H13 H 0.4996 0.9451 -0.2309
C24 C 0.4453(6) 0.9587(4) -0.1890(4)
H14 H 0.4420 0.9292 -0.1805
C25 C 0.4171(4) 0.9927(3) -0.1713(3)
C26 C 0.4204(5) 1.0351(4) -0.1846(3)
H15 H 0.4010 1.0584 -0.1727
C27 C 0.4528(5) 1.0439(4) -0.2159(3)
H16 H 0.4541 1.0733 -0.2248
C28 C 0.3805(4) 0.9805(4) -0.1379(3)
O45 O 0.6175(3) 1.0843(2) -0.37831(17)
O46 O 0.3530(3) 1.0130(2) -0.12264(17)
O47 O 0.6475(3) 1.01172(19) -0.37758(16)
O48 O 0.3794(3) 0.9406(2) -0.1285(2)
Mo13 Mo 0.92250(2) 1.070024(17) -0.544273(14)
Mo14 Mo 1.00845(2) 1.084063(17) -0.453992(15)
Mo15 Mo 0.97789(3) 1.041460(19) -0.393336(15)
Mo16 Mo 0.82519(3) 1.017093(19) -0.552462(15)
Mo17 Mo 0.85336(3) 0.969743(19) -0.394468(16)
Mo18 Mo 0.92633(3) 1.171980(18) -0.497235(16)
Mo19 Mo 0.80347(3) 1.199423(19) -0.460183(17)
Mo20 Mo 0.77443(3) 0.957959(19) -0.476899(16)
Mo21 Mo 0.68684(3) 1.04881(2) -0.510082(17)
Mo22 Mo 0.83997(3) 1.07241(2) -0.351266(16)
Mo23 Mo 0.77169(3) 1.13875(2) -0.381144(17)
Mo24 Mo 0.68166(3) 1.12503(2) -0.473272(18)
Zn5 Zn 0.93444(3) 0.97418(2) -0.476638(19)
Zn6 Zn 0.92808(4) 1.15945(3) -0.39717(2)
Zn7 Zn 0.78634(4) 1.13614(3) -0.54503(2)
Zn8 Zn 0.71119(4) 1.02648(3) -0.40971(2)
P2 P 0.83865(7) 1.07498(5) -0.45699(4)
O49 O 0.9481(2) 1.06235(16) -0.58730(12)
O50 O 0.90728(18) 1.01068(13) -0.52322(11)
O51 O 0.83354(19) 1.08222(14) -0.55616(12)
O52 O 0.99616(19) 0.93048(13) -0.48953(11)
O53 O 0.9277(2) 1.13775(14) -0.54033(12)
O54 O 1.0855(2) 1.08354(15) -0.44407(13)
O55 O 0.98002(19) 1.02263(13) -0.44681(11)
O56 O 0.9770(2) 1.10534(14) -0.40663(12)
O57 O 0.9957(2) 1.14905(14) -0.47034(13)
O58 O 1.0479(2) 1.03161(17) -0.37038(13)
O59 O 0.9358(2) 0.98205(14) -0.38740(12)
O60 O 0.9341(2) 1.06208(15) -0.34665(12)
O61 O 0.8293(2) 0.99639(17) -0.59652(13)
O62 O 0.8043(2) 0.96202(15) -0.52327(12)
O63 O 0.7309(2) 1.03113(15) -0.55775(13)
O64 O 0.8477(3) 0.91733(16) -0.37701(14)
O65 O 0.8308(2) 1.00596(15) -0.35594(13)
O66 O 0.8615(2) 0.95885(14) -0.45088(12)
O67 O 0.7678(2) 0.97950(15) -0.42264(12)
O68 O 0.6140(2) 1.04624(18) -0.53097(16)
O69 O 0.7165(2) 1.10904(15) -0.52071(13)
O70 O 0.6802(2) 1.06213(15) -0.45572(13)
O71 O 0.6998(2) 0.98548(15) -0.49139(14)
O72 O 0.8320(3) 1.07990(18) -0.30469(14)
O73 O 0.7570(2) 1.07416(15) -0.37856(13)
O74 O 0.8611(2) 1.13156(15) -0.37079(12)
O75 O 0.7479(3) 1.16086(18) -0.34139(15)
O76 O 0.7928(2) 1.19461(15) -0.40910(13)
O77 O 0.6872(2) 1.13981(16) -0.41514(14)
O78 O 0.9477(2) 1.22373(14) -0.51064(15)
O79 O 0.8932(2) 1.18533(14) -0.44614(12)
O80 O 0.8333(2) 1.17547(14) -0.50833(13)
O81 O 0.79986(19) 1.04180(14) -0.48432(12)
O82 O 0.86379(19) 1.05157(13) -0.41849(11)
O83 O 0.7960(2) 1.11464(14) -0.44745(12)
O84 O 0.89432(19) 1.09256(13) -0.47755(11)
O85 O 0.6080(2) 1.13986(18) -0.48622(17)
O86 O 0.7549(2) 0.90351(16) -0.47362(16)
O87 O 0.7245(2) 1.18375(15) -0.47859(14)
O88 O 0.8054(2) 1.25543(16) -0.46782(16)
C29 C 0.9878(4) 1.1779(3) -0.3264(2)
C30 C 1.0156(4) 1.2073(3) -0.2939(2)
C31 C 1.0616(6) 1.1907(3) -0.2690(3)
H17 H 1.0752 1.1613 -0.2718
C32 C 1.0891(6) 1.2176(4) -0.2391(3)
H18 H 1.1217 1.2058 -0.2225
C33 C 1.0703(6) 1.2600(4) -0.2335(3)
C34 C 1.0234(6) 1.2769(4) -0.2587(3)
H19 H 1.0095 1.3062 -0.2555
C35 C 0.9960(6) 1.2509(4) -0.2894(3)
H20 H 0.9646 1.2630 -0.3068
C36 C 1.1021(6) 1.2880(4) -0.2019(3)
C37 C 1.1253(8) 1.2674(4) -0.1677(3)
H21 H 1.1183 1.2369 -0.1641
C38 C 1.1591(7) 1.2922(4) -0.1387(3)
H22 H 1.1725 1.2786 -0.1152
C39 C 1.1726(5) 1.3360(3) -0.1443(2)
C40 C 1.1486(5) 1.3570(3) -0.1775(3)
H23 H 1.1555 1.3876 -0.1808
C41 C 1.1142(6) 1.3327(4) -0.2060(3)
H24 H 1.0988 1.3472 -0.2288
C42 C 1.2129(4) 1.3610(3) -0.1132(2)
O89 O 0.9882(3) 1.1375(2) -0.32119(18)
O90 O 0.9677(3) 1.19827(18) -0.35755(15)
O91 O 1.2100(3) 1.4020(2) -0.11173(15)
O92 O 1.2482(3) 1.3360(2) -0.09083(17)
Mo1B Mo -0.07166(2) 1.082801(18) -0.030506(15)
Mo2B Mo 0.01416(3) 1.070972(18) 0.060150(15)
Zn1B Zn -0.06743(3) 0.97123(2) 0.016801(19)
Zn2C Zn 0.56030(4) 0.63065(3) 0.36955(2)
O1B O -0.00928(18) 0.92884(13) -0.00228(11)
O42C O 0.0094(3) 0.83958(18) -0.17084(14)
Mo13B Mo 1.07750(2) 0.929976(17) -0.455727(14)
Mo14B Mo 0.99155(2) 0.915937(17) -0.546008(15)
Zn5B Zn 1.06556(3) 1.02582(2) -0.523362(19)
Zn7C Zn 1.28634(4) 1.36386(3) -0.04503(2)
O52B O 1.00384(19) 1.06952(13) -0.51047(11)
O92C O 0.7482(3) 1.1640(2) -0.59083(17)
loop_
_geom_bond_atom_site_label_1
_geom_bond_atom_site_label_2
_geom_bond_site_symmetry_1
_geom_bond_site_symmetry_2
Mo1 Mo6 1_555 1_555
Mo2 Mo5 1_555 1_555
Mo3 O5 1_555 1_555
Mo4 O5 1_555 1_555
Mo5 O3 1_555 1_555
Mo6 O2 1_555 1_555
Mo7 Mo10 1_555 1_555
Mo8 O4 1_555 1_555
Mo9 O8 1_555 1_555
Mo10 O13 1_555 1_555
Mo11 Mo12 1_555 1_555
Mo12 O17 1_555 1_555
Zn1 O1 1_555 1_555
Zn2 O6 1_555 1_555
Zn3 O8 1_555 1_555
Zn4 O10 1_555 1_555
P1 O4 1_555 1_555
O1 Mo1B 1_555 1_555
O2 Mo1 1_555 1_555
O3 Mo2 1_555 1_555
O4 Mo1 1_555 1_555
O5 Zn1 1_555 1_555
O6 Mo2 1_555 1_555
O7 Mo2 1_555 1_555
O8 Mo8 1_555 1_555
O9 Mo8 1_555 1_555
O10 Mo3 1_555 1_555
O11 Mo1 1_555 1_555
O12 Mo3 1_555 1_555
O13 Mo9 1_555 1_555
O14 Mo7 1_555 1_555
O15 Mo7 1_555 1_555
O16 Mo2 1_555 1_555
O17 Mo4 1_555 1_555
O18 Mo6 1_555 1_555
O19 Mo4 1_555 1_555
O20 Mo11 1_555 1_555
O21 Mo6 1_555 1_555
O22 Mo11 1_555 1_555
O23 Mo5 1_555 1_555
O24 Mo3 1_555 1_555
O25 Mo3 1_555 1_555
O26 Mo9 1_555 1_555
O27 Mo10 1_555 1_555
O28 Mo5 1_555 1_555
O29 Mo8 1_555 1_555
O30 Mo1 1_555 1_555
O31 Mo1 1_555 1_555
O32 Mo4 1_555 1_555
O33 Mo4 1_555 1_555
O34 Mo9 1_555 1_555
O35 Mo12 1_555 1_555
O36 Mo11 1_555 1_555
O37 Mo10 1_555 1_555
O38 Mo7 1_555 1_555
O39 Mo9 1_555 1_555
O40 Mo3 1_555 1_555
C1 C2 1_555 1_555
C2 C3 1_555 1_555
C3 H1 1_555 1_555
C4 C3 1_555 1_555
H2 C4 1_555 1_555
C5 C4 1_555 1_555
C6 C5 1_555 1_555
H3 C6 1_555 1_555
C7 C2 1_555 1_555
H4 C7 1_555 1_555
C8 C5 1_555 1_555
C9 C8 1_555 1_555
H5 C9 1_555 1_555
C10 C9 1_555 1_555
H6 C10 1_555 1_555
C11 C10 1_555 1_555
C12 C11 1_555 1_555
H7 C12 1_555 1_555
C13 C8 1_555 1_555
H8 C13 1_555 1_555
C14 C11 1_555 1_555
O41 C1 1_555 1_555
O42 C1 1_555 1_555
O43 Zn3 1_555 1_555
O44 C14 1_555 1_555
C15 C16 1_555 1_555
C16 C17 1_555 1_555
C17 H9 1_555 1_555
C18 C17 1_555 1_555
H10 C18 1_555 1_555
C19 C18 1_555 1_555
C20 C19 1_555 1_555
H11 C20 1_555 1_555
C21 C16 1_555 1_555
H12 C21 1_555 1_555
C22 C19 1_555 1_555
C23 C22 1_555 1_555
H13 C23 1_555 1_555
C24 C23 1_555 1_555
H14 C24 1_555 1_555
C25 C24 1_555 1_555
C26 C25 1_555 1_555
H15 C26 1_555 1_555
C27 C22 1_555 1_555
H16 C27 1_555 1_555
C28 C25 1_555 1_555
O45 C15 1_555 1_555
O46 Zn4 1_555 1_555
O47 C15 1_555 1_555
O48 C28 1_555 1_555
Mo13 Mo16 1_555 1_555
Mo14 Mo15 1_555 1_555
Mo15 O55 1_555 1_555
Mo16 O50 1_555 1_555
Mo17 O59 1_555 1_555
Mo18 O53 1_555 1_555
Mo19 O76 1_555 1_555
Mo20 O62 1_555 1_555
Mo21 Mo24 1_555 1_555
Mo22 Mo23 1_555 1_555
Mo23 O73 1_555 1_555
Mo24 O69 1_555 1_555
Zn5 O50 1_555 1_555
Zn6 O56 1_555 1_555
Zn7 O51 1_555 1_555
Zn8 O47 1_555 1_555
P2 O81 1_555 1_555
O49 Mo13 1_555 1_555
O50 Mo13 1_555 1_555
O51 Mo13 1_555 1_555
O52 Zn5 1_555 1_555
O53 Mo13 1_555 1_555
O54 Mo14 1_555 1_555
O55 Mo14 1_555 1_555
O56 Mo14 1_555 1_555
O57 Mo14 1_555 1_555
O58 Mo15 1_555 1_555
O59 Mo15 1_555 1_555
O60 Mo15 1_555 1_555
O61 Mo16 1_555 1_555
O62 Mo16 1_555 1_555
O63 Mo16 1_555 1_555
O64 Mo17 1_555 1_555
O65 Mo17 1_555 1_555
O66 Mo17 1_555 1_555
O67 Mo17 1_555 1_555
O68 Mo21 1_555 1_555
O69 Mo21 1_555 1_555
O70 Mo21 1_555 1_555
O71 Mo20 1_555 1_555
O72 Mo22 1_555 1_555
O73 Mo22 1_555 1_555
O74 Mo22 1_555 1_555
O75 Mo23 1_555 1_555
O76 Mo23 1_555 1_555
O77 Mo23 1_555 1_555
O78 Mo18 1_555 1_555
O79 Mo18 1_555 1_555
O80 Mo18 1_555 1_555
O81 Mo20 1_555 1_555
O82 Mo15 1_555 1_555
O83 Mo19 1_555 1_555
O84 Mo13 1_555 1_555
O85 Mo24 1_555 1_555
O86 Mo20 1_555 1_555
O87 Mo19 1_555 1_555
O88 Mo19 1_555 1_555
C29 C30 1_555 1_555
C30 C31 1_555 1_555
C31 H17 1_555 1_555
C32 C31 1_555 1_555
H18 C32 1_555 1_555
C33 C32 1_555 1_555
C34 C33 1_555 1_555
H19 C34 1_555 1_555
C35 C30 1_555 1_555
H20 C35 1_555 1_555
C36 C33 1_555 1_555
C37 C36 1_555 1_555
H21 C37 1_555 1_555
C38 C37 1_555 1_555
H22 C38 1_555 1_555
C39 C38 1_555 1_555
C40 C39 1_555 1_555
H23 C40 1_555 1_555
C41 C36 1_555 1_555
H24 C41 1_555 1_555
C42 C39 1_555 1_555
O89 C29 1_555 1_555
O90 Zn6 1_555 1_555
O91 C42 1_555 1_555
O92 C42 1_555 1_555
N1 C43 1_555 1_555
C43 H25 1_555 1_555
H26 C43 1_555 1_555
C44 C43 1_555 1_555
C45 C44 1_555 1_555
H27 C45 1_555 1_555
H28 C45 1_555 1_555
C46 C45 1_555 1_555
H29 C46 1_555 1_555
H30 C46 1_555 1_555
H31 C46 1_555 1_555
C47 N1 1_555 1_555
H32 C47 1_555 1_555
H33 C47 1_555 1_555
C48 C47 1_555 1_555
H34 C48 1_555 1_555
H35 C48 1_555 1_555
C49 C48 1_555 1_555
H36 C49 1_555 1_555
H37 C49 1_555 1_555
C50 C49 1_555 1_555
H38 C50 1_555 1_555
H39 C50 1_555 1_555
H40 C50 1_555 1_555
C51 N1 1_555 1_555
H41 C51 1_555 1_555
H42 C51 1_555 1_555
C52 C51 1_555 1_555
H43 C52 1_555 1_555
H44 C52 1_555 1_555
C53 C52 1_555 1_555
H45 C53 1_555 1_555
H46 C53 1_555 1_555
C54 C53 1_555 1_555
H47 C54 1_555 1_555
H48 C54 1_555 1_555
H49 C54 1_555 1_555
C55 N1 1_555 1_555
H50 C55 1_555 1_555
H51 C55 1_555 1_555
C56 C55 1_555 1_555
H52 C56 1_555 1_555
H53 C56 1_555 1_555
C57 C56 1_555 1_555
H54 C57 1_555 1_555
H55 C57 1_555 1_555
C58 C57 1_555 1_555
H56 C58 1_555 1_555
H57 C58 1_555 1_555
H58 C58 1_555 1_555
N2 C59 1_555 1_555
C59 H59 1_555 1_555
H60 C59 1_555 1_555
C60 C59 1_555 1_555
H61 C60 1_555 1_555
H62 C60 1_555 1_555
C61 C60 1_555 1_555
H63 C61 1_555 1_555
H64 C61 1_555 1_555
C62 C61 1_555 1_555
H65 C62 1_555 1_555
H66 C62 1_555 1_555
H67 C62 1_555 1_555
C63 N2 1_555 1_555
H68 C63 1_555 1_555
H69 C63 1_555 1_555
C64 C63 1_555 1_555
H70 C64 1_555 1_555
H71 C64 1_555 1_555
C65 C64 1_555 1_555
H72 C65 1_555 1_555
H73 C65 1_555 1_555
C66 C65 1_555 1_555
H74 C66 1_555 1_555
H75 C66 1_555 1_555
H76 C66 1_555 1_555
C67 N2 1_555 1_555
H77 C67 1_555 1_555
H78 C67 1_555 1_555
C68 C67 1_555 1_555
H79 C68 1_555 1_555
H80 C68 1_555 1_555
C69 C68 1_555 1_555
H81 C69 1_555 1_555
H82 C69 1_555 1_555
C70 C69 1_555 1_555
H83 C70 1_555 1_555
H84 C70 1_555 1_555
H85 C70 1_555 1_555
C71 N2 1_555 1_555
H86 C71 1_555 1_555
H87 C71 1_555 1_555
C72 C71 1_555 1_555
H88 C72 1_555 1_555
H89 C72 1_555 1_555
C73 C72 1_555 1_555
H90 C73 1_555 1_555
H91 C73 1_555 1_555
C74 C73 1_555 1_555
H92 C74 1_555 1_555
H93 C74 1_555 1_555
H94 C74 1_555 1_555
N3 C75 1_555 1_555
C75 H95 1_555 1_555
H96 C75 1_555 1_555
C76 C75 1_555 1_555
H97 C76 1_555 1_555
H98 C76 1_555 1_555
C77 C76 1_555 1_555
H99 C77 1_555 1_555
H100 C77 1_555 1_555
C78 C77 1_555 1_555
H101 C78 1_555 1_555
H102 C78 1_555 1_555
H103 C78 1_555 1_555
C79 N3 1_555 1_555
H104 C79 1_555 1_555
H105 C79 1_555 1_555
C80 C79 1_555 1_555
H106 C80 1_555 1_555
H107 C80 1_555 1_555
C81 C80 1_555 1_555
H108 C81 1_555 1_555
H109 C81 1_555 1_555
C82 C81 1_555 1_555
H110 C82 1_555 1_555
H111 C82 1_555 1_555
H112 C82 1_555 1_555
C83 N3 1_555 1_555
H113 C83 1_555 1_555
H114 C83 1_555 1_555
C84 C83 1_555 1_555
H115 C84 1_555 1_555
H116 C84 1_555 1_555
C85 C84 1_555 1_555
H117 C85 1_555 1_555
H118 C85 1_555 1_555
C86 C85 1_555 1_555
H119 C86 1_555 1_555
H120 C86 1_555 1_555
H121 C86 1_555 1_555
C87 N3 1_555 1_555
H122 C87 1_555 1_555
H123 C87 1_555 1_555
C88 C87 1_555 1_555
H124 C88 1_555 1_555
H125 C88 1_555 1_555
C89 C88 1_555 1_555
H126 C89 1_555 1_555
H127 C89 1_555 1_555
C90 C89 1_555 1_555
H128 C90 1_555 1_555
H129 C90 1_555 1_555
H130 C90 1_555 1_555
N4 C91 1_555 1_555
C91 H131 1_555 1_555
H132 C91 1_555 1_555
C92 C91 1_555 1_555
H133 C92 1_555 1_555
H134 C92 1_555 1_555
C93 C92 1_555 1_555
H135 C93 1_555 1_555
H136 C93 1_555 1_555
C94 C93 1_555 1_555
H137 C94 1_555 1_555
H138 C94 1_555 1_555
H139 C94 1_555 1_555
C95 N4 1_555 1_555
H140 C95 1_555 1_555
H141 C95 1_555 1_555
C96 C95 1_555 1_555
H142 C96 1_555 1_555
H143 C96 1_555 1_555
C97 C96 1_555 1_555
H144 C97 1_555 1_555
H145 C97 1_555 1_555
C98 C97 1_555 1_555
H146 C98 1_555 1_555
H147 C98 1_555 1_555
H148 C98 1_555 1_555
C99 N4 1_555 1_555
H149 C99 1_555 1_555
H150 C99 1_555 1_555
C100 C99 1_555 1_555
H151 C100 1_555 1_555
H152 C100 1_555 1_555
C101 C100 1_555 1_555
H153 C101 1_555 1_555
H154 C101 1_555 1_555
C102 C101 1_555 1_555
H155 C102 1_555 1_555
H156 C102 1_555 1_555
H157 C102 1_555 1_555
C103 N4 1_555 1_555
H158 C103 1_555 1_555
H159 C103 1_555 1_555
C104 C103 1_555 1_555
H160 C104 1_555 1_555
H161 C104 1_555 1_555
C105 C104 1_555 1_555
H162 C105 1_555 1_555
H163 C105 1_555 1_555
C106 C105 1_555 1_555
H164 C106 1_555 1_555
H165 C106 1_555 1_555
H166 C106 1_555 1_555
N5 C107 1_555 1_555
C107 H167 1_555 1_555
H168 C107 1_555 1_555
C108 C107 1_555 1_555
H169 C108 1_555 1_555
H170 C108 1_555 1_555
C109 C108 1_555 1_555
H171 C109 1_555 1_555
H172 C109 1_555 1_555
C110 C109 1_555 1_555
H173 C110 1_555 1_555
H174 C110 1_555 1_555
H175 C110 1_555 1_555
C111 N5 1_555 1_555
H176 C111 1_555 1_555
H177 C111 1_555 1_555
C112 C111 1_555 1_555
H178 C112 1_555 1_555
H179 C112 1_555 1_555
C113 C112 1_555 1_555
H180 C113 1_555 1_555
H181 C113 1_555 1_555
C114 C113 1_555 1_555
H182 C114 1_555 1_555
H183 C114 1_555 1_555
H184 C114 1_555 1_555
C115 N5 1_555 1_555
H185 C115 1_555 1_555
H186 C115 1_555 1_555
C116 C115 1_555 1_555
H187 C116 1_555 1_555
H188 C116 1_555 1_555
C117 C116 1_555 1_555
H189 C117 1_555 1_555
H190 C117 1_555 1_555
C118 C117 1_555 1_555
H191 C118 1_555 1_555
H192 C118 1_555 1_555
H193 C118 1_555 1_555
C119 N5 1_555 1_555
H194 C119 1_555 1_555
H195 C119 1_555 1_555
C120 C119 1_555 1_555
H196 C120 1_555 1_555
H197 C120 1_555 1_555
C121 C120 1_555 1_555
H198 C121 1_555 1_555
H199 C121 1_555 1_555
C122 C121 1_555 1_555
H200 C122 1_555 1_555
H201 C122 1_555 1_555
H202 C122 1_555 1_555
N6 C123 1_555 1_555
C123 H203 1_555 1_555
H204 C123 1_555 1_555
C124 C123 1_555 1_555
H205 C124 1_555 1_555
H206 C124 1_555 1_555
C125 C124 1_555 1_555
H207 C125 1_555 1_555
H208 C125 1_555 1_555
C126 C125 1_555 1_555
H209 C126 1_555 1_555
H210 C126 1_555 1_555
H211 C126 1_555 1_555
C127 N6 1_555 1_555
H212 C127 1_555 1_555
H213 C127 1_555 1_555
C128 C127 1_555 1_555
H214 C128 1_555 1_555
H215 C128 1_555 1_555
C129 C128 1_555 1_555
H216 C129 1_555 1_555
H217 C129 1_555 1_555
C130 C129 1_555 1_555
H218 C130 1_555 1_555
H219 C130 1_555 1_555
H220 C130 1_555 1_555
C131 N6 1_555 1_555
H221 C131 1_555 1_555
H222 C131 1_555 1_555
C132 C131 1_555 1_555
H223 C132 1_555 1_555
H224 C132 1_555 1_555
C133 C132 1_555 1_555
H225 C133 1_555 1_555
H226 C133 1_555 1_555
C134 C133 1_555 1_555
H227 C134 1_555 1_555
H228 C134 1_555 1_555
H229 C134 1_555 1_555
C135 N6 1_555 1_555
H230 C135 1_555 1_555
H231 C135 1_555 1_555
C136 C135 1_555 1_555
H232 C136 1_555 1_555
H233 C136 1_555 1_555
C137 C136 1_555 1_555
H234 C137 1_555 1_555
H235 C137 1_555 1_555
C138 C137 1_555 1_555
H236 C138 1_555 1_555
H237 C138 1_555 1_555
H238 C138 1_555 1_555
Mo2B Zn1 1_555 1_555
Zn1B Mo2 1_555 1_555
Zn2C O42 1_555 1_555
O1B Mo1 1_555 1_555
O42C Zn2 1_555 1_555
Mo13B O52 1_555 1_555
Mo14B Zn5 1_555 1_555
Zn5B Mo14 1_555 1_555
Zn7C O92 1_555 1_555
O52B Mo13 1_555 1_555
O92C Zn7 1_555 1_555
Mo2 O4 1_555 1_555
Mo2 O1B 1_555 1_555
Mo4 O10 1_555 1_555
Mo5 O6 1_555 1_555
Mo5 O17 1_555 1_555
Mo5 O19 1_555 1_555
Mo6 O12 1_555 1_555
Mo6 O24 1_555 1_555
Mo6 O31 1_555 1_555
Mo7 O21 1_555 1_555
Mo7 O24 1_555 1_555
Mo7 O25 1_555 1_555
Mo8 O7 1_555 1_555
Mo8 O11 1_555 1_555
Mo9 O9 1_555 1_555
Mo10 O14 1_555 1_555
Mo10 O15 1_555 1_555
Mo10 O26 1_555 1_555
Mo11 O26 1_555 1_555
Mo11 O27 1_555 1_555
Mo11 O34 1_555 1_555
Mo12 O20 1_555 1_555
Mo12 O22 1_555 1_555
Mo12 O28 1_555 1_555
Mo12 O32 1_555 1_555
Zn1 O2 1_555 1_555
Zn1 O3 1_555 1_555
Zn2 O9 1_555 1_555
Zn2 O20 1_555 1_555
Zn3 O15 1_555 1_555
Zn3 O31 1_555 1_555
Zn4 O14 1_555 1_555
Zn4 O22 1_555 1_555
P1 O17 1_555 1_555
P1 O24 1_555 1_555
P1 O26 1_555 1_555
O1 Mo2B 1_555 1_555
C6 C7 1_555 1_555
C12 C13 1_555 1_555
C14 O43 1_555 1_555
C20 C21 1_555 1_555
C26 C27 1_555 1_555
C28 O46 1_555 1_555
Mo14 O84 1_555 1_555
Mo14 O52B 1_555 1_555
Mo15 O56 1_555 1_555
Mo16 O51 1_555 1_555
Mo17 O82 1_555 1_555
Mo18 O57 1_555 1_555
Mo18 O84 1_555 1_555
Mo19 O79 1_555 1_555
Mo19 O80 1_555 1_555
Mo20 O66 1_555 1_555
Mo20 O67 1_555 1_555
Mo21 O63 1_555 1_555
Mo21 O71 1_555 1_555
Mo21 O81 1_555 1_555
Mo22 O60 1_555 1_555
Mo22 O65 1_555 1_555
Mo22 O82 1_555 1_555
Mo23 O74 1_555 1_555
Mo23 O83 1_555 1_555
Mo24 O70 1_555 1_555
Mo24 O77 1_555 1_555
Mo24 O83 1_555 1_555
Mo24 O87 1_555 1_555
Zn5 O55 1_555 1_555
Zn5 O66 1_555 1_555
Zn6 O74 1_555 1_555
Zn6 O79 1_555 1_555
Zn7 O69 1_555 1_555
Zn7 O80 1_555 1_555
Zn8 O67 1_555 1_555
Zn8 O70 1_555 1_555
Zn8 O73 1_555 1_555
P2 O82 1_555 1_555
P2 O83 1_555 1_555
P2 O84 1_555 1_555
O52 Mo14B 1_555 1_555
C29 O90 1_555 1_555
C34 C35 1_555 1_555
C40 C41 1_555 1_555
Zn1B O1B 1_555 1_555
Zn5B O52B 1_555 1_555

#END
