
#######################################################################
#
#                 Cambridge Crystallographic Data Centre
#                                CCDC 
#
#######################################################################
#
# If this CIF has been generated from an entry in the Cambridge 
# Structural Database, then it will include bibliographic, chemical, 
# crystal, experimental, refinement or atomic coordinate data resulting 
# from the CCDC's data processing and validation procedures.
#
#######################################################################

data_VOYHEY
_symmetry_cell_setting           monoclinic
_symmetry_space_group_name_H-M   'P 21/c'
_symmetry_Int_Tables_number      14
_space_group_name_Hall           '-P 2ybc'
loop_
_symmetry_equiv_pos_site_id
_symmetry_equiv_pos_as_xyz
1 x,y,z
2 -x,1/2+y,1/2-z
3 -x,-y,-z
4 x,1/2-y,1/2+z
_cell_length_a                   26.362(15)
_cell_length_b                   15.478(10)
_cell_length_c                   27.341(18)
_cell_angle_alpha                90
_cell_angle_beta                 102.221(16)
_cell_angle_gamma                90
_cell_volume                     10903.2
loop_
_atom_site_label
_atom_site_type_symbol
_atom_site_fract_x
_atom_site_fract_y
_atom_site_fract_z
N5 N 0.4119(3) 0.1354(6) 0.6563(3)
C23 C 0.3742(6) 0.1327(9) 0.6053(5)
H17 H 0.3423 0.1057 0.6099
H18 H 0.3659 0.1918 0.5949
C24 C 0.3913(7) 0.0870(10) 0.5633(5)
H19 H 0.4218 0.1155 0.5564
H20 H 0.4008 0.0280 0.5732
C25 C 0.3501(7) 0.0864(10) 0.5175(6)
H21 H 0.3220 0.0506 0.5241
H22 H 0.3367 0.1448 0.5122
C26 C 0.3619(12) 0.0574(14) 0.4715(7)
H23 H 0.3987 0.0605 0.4738
H24 H 0.3445 0.0935 0.4446
H25 H 0.3505 -0.0012 0.4653
C27 C 0.4219(4) 0.0433(8) 0.6780(5)
H26 H 0.4358 0.0090 0.6542
H27 H 0.4486 0.0471 0.7083
C28 C 0.3765(6) -0.0053(10) 0.6902(7)
H28 H 0.3468 0.0017 0.6627
H29 H 0.3676 0.0206 0.7196
C29 C 0.3859(6) -0.1016(10) 0.6999(7)
H30 H 0.3570 -0.1255 0.7124
H31 H 0.3867 -0.1301 0.6685
C30 C 0.4342(8) -0.1206(15) 0.7358(9)
H32 H 0.4633 -0.1053 0.7215
H33 H 0.4357 -0.1811 0.7436
H34 H 0.4355 -0.0877 0.7658
C31 C 0.3880(4) 0.1919(8) 0.6898(4)
H35 H 0.3551 0.1664 0.6926
H36 H 0.3804 0.2475 0.6734
C32 C 0.4196(5) 0.2083(10) 0.7429(5)
H37 H 0.4561 0.2137 0.7422
H38 H 0.4157 0.1599 0.7643
C33 C 0.4006(7) 0.2919(13) 0.7640(6)
H39 H 0.4067 0.3414 0.7442
H40 H 0.3638 0.2882 0.7635
C34 C 0.4291(7) 0.3001(15) 0.8135(8)
H41 H 0.4610 0.3299 0.8135
H42 H 0.4366 0.2437 0.8278
H43 H 0.4092 0.3321 0.8329
C35 C 0.4628(4) 0.1716(8) 0.6497(4)
H44 H 0.4760 0.1345 0.6266
H45 H 0.4871 0.1684 0.6817
C36 C 0.4629(4) 0.2632(7) 0.6308(4)
H46 H 0.4596 0.3029 0.6574
H47 H 0.4333 0.2717 0.6034
C37 C 0.5125(5) 0.2823(10) 0.6132(5)
H48 H 0.5420 0.2766 0.6411
H49 H 0.5166 0.2408 0.5877
C38 C 0.5111(6) 0.3692(10) 0.5929(6)
H50 H 0.4850 0.3723 0.5625
H51 H 0.5443 0.3831 0.5859
H52 H 0.5030 0.4096 0.6167
N6 N 0.2725(3) 0.5615(6) 0.7174(3)
C39 C 0.3117(5) 0.5872(13) 0.6912(5)
H53 H 0.2954 0.5745 0.6567
H54 H 0.3108 0.6497 0.6936
C40 C 0.3617(6) 0.5717(15) 0.6922(6)
H55 H 0.3633 0.5094 0.6890
H56 H 0.3788 0.5841 0.7265
C41 C 0.3973(6) 0.6028(14) 0.6637(6)
H57 H 0.3823 0.5923 0.6286
H58 H 0.4001 0.6649 0.6681
C42 C 0.4467(8) 0.5687(19) 0.6741(10)
H59 H 0.4584 0.5626 0.7096
H60 H 0.4697 0.6067 0.6615
H61 H 0.4465 0.5132 0.6584
C43 C 0.2536(6) 0.4782(10) 0.7011(9)
H62 H 0.2544 0.4811 0.6659
H63 H 0.2833 0.4426 0.7157
C44 C 0.2144(7) 0.4218(11) 0.7002(8)
H64 H 0.1839 0.4573 0.6883
H65 H 0.2152 0.4127 0.7354
C45 C 0.1988(7) 0.3407(12) 0.6792(8)
H66 H 0.1713 0.3181 0.6941
H67 H 0.1850 0.3475 0.6436
C46 C 0.2398(7) 0.2818(11) 0.6865(5)
H68 H 0.2580 0.2870 0.6598
H69 H 0.2264 0.2242 0.6870
H70 H 0.2631 0.2937 0.7178
C47 C 0.2968(10) 0.5461(14) 0.7724(6)
H71 H 0.2711 0.5180 0.7876
H72 H 0.3254 0.5060 0.7742
C48 C 0.3147(7) 0.6162(12) 0.8003(7)
H73 H 0.2861 0.6555 0.8007
H74 H 0.3399 0.6461 0.7852
C49 C 0.3417(7) 0.5895(12) 0.8574(6)
H75 H 0.3411 0.6387 0.8792
H76 H 0.3219 0.5433 0.8684
C50 C 0.3984(8) 0.5595(14) 0.8618(7)
H77 H 0.4021 0.5341 0.8307
H78 H 0.4070 0.5174 0.8880
H79 H 0.4213 0.6082 0.8693
C51 C 0.2220(6) 0.6221(9) 0.7136(5)
H80 H 0.1980 0.5933 0.7306
H81 H 0.2327 0.6755 0.7314
C52 C 0.1962(9) 0.6420(14) 0.6658(6)
H82 H 0.1799 0.5902 0.6497
H83 H 0.2210 0.6622 0.6467
C53 C 0.1539(7) 0.7130(13) 0.6653(7)
H84 H 0.1296 0.6973 0.6860
H85 H 0.1690 0.7690 0.6755
C54 C 0.1292(8) 0.7105(14) 0.6108(7)
H86 H 0.1498 0.7436 0.5924
H87 H 0.0949 0.7347 0.6056
H88 H 0.1271 0.6518 0.5993
N7 N 0.0029(3) 0.2886(7) 0.2002(4)
C55 C 0.0488(5) 0.3361(10) 0.1887(5)
H89 H 0.0803 0.3050 0.2035
H90 H 0.0509 0.3928 0.2041
C56 C 0.0461(6) 0.3468(14) 0.1328(7)
H91 H 0.0420 0.2904 0.1170
H92 H 0.0159 0.3811 0.1184
C57 C 0.0941(7) 0.3900(14) 0.1216(8)
H93 H 0.0926 0.3888 0.0858
H94 H 0.1249 0.3588 0.1381
C58 C 0.0972(7) 0.4875(18) 0.1408(9)
H95 H 0.0647 0.5159 0.1281
H96 H 0.1244 0.5172 0.1291
H97 H 0.1045 0.4883 0.1767
C59 C -0.0040(6) 0.1982(12) 0.1753(6)
H98 H -0.0154 0.2066 0.1395
H99 H -0.0319 0.1689 0.1867
C60 C 0.0438(8) 0.1364(15) 0.1841(6)
H100 H 0.0480 0.1049 0.2154
H101 H 0.0757 0.1662 0.1824
C61 C 0.0227(6) 0.0746(12) 0.1351(7)
H102 H -0.0134 0.0588 0.1317
H103 H 0.0280 0.1007 0.1043
C62 C 0.0562(7) 0.0052(13) 0.1504(9)
H104 H 0.0497 -0.0183 0.1809
H105 H 0.0915 0.0248 0.1557
H106 H 0.0504 -0.0385 0.1249
C63 C 0.0172(5) 0.2792(13) 0.2586(6)
H107 H 0.0498 0.2483 0.2677
H108 H 0.0225 0.3364 0.2732
C64 C -0.0235(7) 0.2319(14) 0.2813(8)
H109 H -0.0301 0.1755 0.2659
H110 H -0.0557 0.2643 0.2741
C65 C -0.0055(6) 0.2208(14) 0.3389(6)
H111 H 0.0127 0.2722 0.3535
H112 H -0.0354 0.2120 0.3539
C66 C 0.0279(8) 0.1482(14) 0.3482(10)
H113 H 0.0075 0.0965 0.3472
H114 H 0.0503 0.1537 0.3806
H115 H 0.0484 0.1451 0.3231
C67 C -0.0494(7) 0.3341(15) 0.1811(7)
H116 H -0.0550 0.3419 0.1451
H117 H -0.0773 0.2986 0.1881
C68 C -0.0498(9) 0.418(2) 0.2053(12)
H118 H -0.0231 0.4534 0.1958
H119 H -0.0397 0.4090 0.2412
C69 C -0.0998(8) 0.4701(18) 0.1951(10)
H120 H -0.1091 0.4777 0.2274
H121 H -0.0905 0.5270 0.1849
C70 C -0.1433(7) 0.4486(13) 0.1634(8)
H122 H -0.1635 0.4996 0.1534
H123 H -0.1628 0.4093 0.1795
H124 H -0.1351 0.4214 0.1345
Mo1 Mo 0.31895(2) 0.61842(4) 0.34947(2)
Mo2 Mo 0.24853(3) 0.60471(4) 0.53091(2)
Mo3 Mo 0.36112(2) 0.46193(4) 0.36311(2)
Mo4 Mo 0.16676(2) 0.29213(4) 0.33048(2)
Mo5 Mo 0.29028(2) 0.27099(4) 0.35373(2)
Mo6 Mo 0.25492(2) 0.71659(4) 0.43292(2)
Mo7 Mo 0.17893(2) 0.64110(4) 0.32369(2)
Mo8 Mo 0.11892(2) 0.50160(5) 0.31799(2)
Mo9 Mo 0.30634(3) 0.40327(5) 0.53910(2)
Mo10 Mo 0.35365(3) 0.34152(4) 0.47009(2)
Mo11 Mo 0.16639(3) 0.42657(5) 0.51297(2)
Mo12 Mo 0.11171(3) 0.38069(5) 0.42393(2)
Zn1 Zn 0.23749(3) 0.44784(5) 0.27953(3)
Zn2 Zn 0.35865(3) 0.57808(6) 0.48020(3)
Zn3 Zn 0.13689(3) 0.61431(6) 0.43794(3)
Zn4 Zn 0.22544(4) 0.24776(6) 0.45412(3)
P1 P 0.24014(7) 0.47317(12) 0.41298(6)
O1 O 0.29782(18) 0.6439(3) 0.48801(16)
O2 O 0.28953(19) 0.3067(3) 0.49124(17)
O3 O 0.20430(17) 0.6605(3) 0.47014(16)
O4 O 0.35514(19) 0.4564(3) 0.50182(16)
O5 O 0.12470(19) 0.4943(3) 0.45738(18)
O6 O 0.23126(17) 0.3336(3) 0.30862(15)
O7 O 0.18224(17) 0.5273(3) 0.29282(16)
O8 O 0.36120(17) 0.5617(3) 0.40886(17)
O9 O 0.30142(17) 0.5082(3) 0.31482(15)
O10 O 0.30694(18) 0.7100(3) 0.39892(17)
O11 O 0.13017(18) 0.6006(3) 0.36520(18)
O12 O 0.28681(17) 0.4176(3) 0.40483(16)
O13 O 0.24117(18) 0.4774(3) 0.47017(16)
O14 O 0.24528(16) 0.5665(3) 0.39144(15)
O15 O 0.20124(18) 0.7284(3) 0.37910(17)
O16 O 0.1710(2) 0.3268(3) 0.46914(18)
O17 O 0.1915(2) 0.5443(3) 0.54054(17)
O18 O 0.4017(2) 0.2859(4) 0.50652(19)
O19 O 0.22723(18) 0.2494(3) 0.38273(16)
O20 O 0.2951(2) 0.1781(3) 0.32189(18)
O21 O 0.2549(2) 0.6855(3) 0.57369(18)
O22 O 0.14317(18) 0.7047(3) 0.27982(18)
O23 O 0.36086(18) 0.6696(3) 0.32072(18)
O24 O 0.18801(17) 0.4331(3) 0.38593(16)
O25 O 0.06932(19) 0.5317(4) 0.2718(2)
O26 O 0.2343(2) 0.3756(3) 0.55541(17)
O27 O 0.25028(16) 0.6616(3) 0.30433(16)
O28 O 0.39170(18) 0.3937(3) 0.42334(18)
O29 O 0.41272(18) 0.4748(4) 0.33681(19)
O30 O 0.2621(2) 0.8174(3) 0.45836(18)
O31 O 0.33440(17) 0.3467(3) 0.33187(16)
O32 O 0.08302(18) 0.4444(4) 0.36359(18)
O33 O 0.1501(2) 0.2024(4) 0.29420(19)
O34 O 0.2971(2) 0.5259(3) 0.56145(16)
O35 O 0.1251(2) 0.3986(4) 0.5499(2)
O36 O 0.13130(17) 0.3800(3) 0.29356(17)
O37 O 0.12665(18) 0.2847(3) 0.37771(18)
O38 O 0.0582(2) 0.3419(4) 0.4416(2)
O39 O 0.3430(2) 0.3612(4) 0.59149(18)
O40 O 0.32983(19) 0.2518(3) 0.41598(17)
O41 O 0.2378(2) 0.4556(3) 0.20891(17)
O42 O 0.2453(2) 0.6014(3) 0.21264(18)
O43 O 0.2174(3) 0.3655(4) -0.01792(18)
O44 O 0.2263(3) 0.2969(4) 0.0557(2)
C1 C 0.2297(3) 0.4526(5) 0.1080(3)
H1 H 0.2286 0.4012 0.1254
C2 C 0.2357(3) 0.5306(5) 0.1338(3)
C3 C 0.2375(4) 0.6066(6) 0.1084(3)
H2 H 0.2408 0.6586 0.1258
C4 C 0.2344(6) 0.6070(6) 0.0564(3)
H3 H 0.2371 0.6584 0.0395
C5 C 0.2271(5) 0.5275(6) 0.0303(3)
H4 H 0.2233 0.5267 -0.0043
C6 C 0.2254(4) 0.4504(5) 0.0563(3)
C7 C 0.2401(3) 0.5316(5) 0.1896(3)
C8 C 0.2219(4) 0.3637(6) 0.0300(3)
N1 N 0.4243(2) 0.6295(4) 0.5190(2)
N2 N 0.5075(3) 0.6389(5) 0.5522(2)
H5 H 0.5389 0.6230 0.5644
C9 C 0.4373(4) 0.7167(7) 0.5264(4)
C10 C 0.4076(6) 0.7882(10) 0.5157(7)
H6 H 0.3724 0.7837 0.5017
C11 C 0.4312(7) 0.8692(11) 0.5261(9)
H7 H 0.4114 0.9194 0.5208
C12 C 0.4861(8) 0.8738(11) 0.5451(10)
H8 H 0.5020 0.9276 0.5495
C13 C 0.5161(6) 0.8006(9) 0.5569(7)
H9 H 0.5515 0.8031 0.5706
C14 C 0.4895(4) 0.7230(7) 0.5466(4)
C15 C 0.4675(3) 0.5870(6) 0.5352(3)
H10 H 0.4700 0.5271 0.5348
N3 N 0.0821(2) 0.6791(4) 0.4639(2)
N4 N 0.0186(3) 0.7038(6) 0.5030(3)
H11 H -0.0071 0.6939 0.5170
C16 C 0.0384(4) 0.7834(7) 0.4964(4)
C17 C 0.0254(6) 0.8681(10) 0.5082(7)
H12 H -0.0026 0.8793 0.5230
C18 C 0.0569(9) 0.9346(13) 0.4964(11)
H13 H 0.0494 0.9915 0.5030
C19 C 0.0965(8) 0.9185(11) 0.4763(10)
H14 H 0.1180 0.9647 0.4728
C20 C 0.1099(4) 0.8357(7) 0.4592(4)
H15 H 0.1359 0.8276 0.4414
C21 C 0.0796(3) 0.7673(6) 0.4721(3)
C22 C 0.0456(3) 0.6434(7) 0.4841(3)
H16 H 0.0396 0.5843 0.4851
Zn4C Zn 0.22544(4) 0.25224(6) -0.04588(3)
O43C O 0.2174(3) 0.1345(4) 0.48208(18)
loop_
_geom_bond_atom_site_label_1
_geom_bond_atom_site_label_2
_geom_bond_site_symmetry_1
_geom_bond_site_symmetry_2
Mo1 Mo3 1_555 1_555
Mo2 O1 1_555 1_555
Mo3 O8 1_555 1_555
Mo4 O6 1_555 1_555
Mo5 O6 1_555 1_555
Mo6 O1 1_555 1_555
Mo7 Mo8 1_555 1_555
Mo8 O7 1_555 1_555
Mo9 Mo10 1_555 1_555
Mo10 O2 1_555 1_555
Mo11 Mo12 1_555 1_555
Mo12 O5 1_555 1_555
Zn1 O6 1_555 1_555
Zn2 O1 1_555 1_555
Zn3 O3 1_555 1_555
Zn4 O2 1_555 1_555
P1 O12 1_555 1_555
O2 Mo9 1_555 1_555
O3 Mo2 1_555 1_555
O4 Mo9 1_555 1_555
O5 Mo11 1_555 1_555
O7 Mo7 1_555 1_555
O8 Mo1 1_555 1_555
O9 Mo1 1_555 1_555
O10 Mo1 1_555 1_555
O11 Mo7 1_555 1_555
O12 Mo3 1_555 1_555
O13 Mo2 1_555 1_555
O14 Mo1 1_555 1_555
O15 Mo6 1_555 1_555
O16 Mo11 1_555 1_555
O17 Mo2 1_555 1_555
O18 Mo10 1_555 1_555
O19 Mo4 1_555 1_555
O20 Mo5 1_555 1_555
O21 Mo2 1_555 1_555
O22 Mo7 1_555 1_555
O23 Mo1 1_555 1_555
O24 Mo8 1_555 1_555
O25 Mo8 1_555 1_555
O26 Mo9 1_555 1_555
O27 Mo1 1_555 1_555
O28 Mo3 1_555 1_555
O29 Mo3 1_555 1_555
O30 Mo6 1_555 1_555
O31 Mo3 1_555 1_555
O32 Mo8 1_555 1_555
O33 Mo4 1_555 1_555
O34 Mo2 1_555 1_555
O35 Mo11 1_555 1_555
O36 Mo4 1_555 1_555
O37 Mo4 1_555 1_555
O38 Mo12 1_555 1_555
O39 Mo9 1_555 1_555
O40 Mo5 1_555 1_555
O41 Zn1 1_555 1_555
O42 C7 1_555 1_555
O43 C8 1_555 1_555
O44 C8 1_555 1_555
C1 H1 1_555 1_555
C2 C1 1_555 1_555
C3 C2 1_555 1_555
H2 C3 1_555 1_555
C4 C3 1_555 1_555
H3 C4 1_555 1_555
C5 C4 1_555 1_555
H4 C5 1_555 1_555
C6 C1 1_555 1_555
C7 O41 1_555 1_555
C8 C6 1_555 1_555
N1 Zn2 1_555 1_555
N2 H5 1_555 1_555
C9 N1 1_555 1_555
C10 C9 1_555 1_555
H6 C10 1_555 1_555
C11 C10 1_555 1_555
H7 C11 1_555 1_555
C12 C11 1_555 1_555
H8 C12 1_555 1_555
C13 C12 1_555 1_555
H9 C13 1_555 1_555
C14 N2 1_555 1_555
C15 N1 1_555 1_555
H10 C15 1_555 1_555
N3 Zn3 1_555 1_555
N4 H11 1_555 1_555
C16 N4 1_555 1_555
C17 C16 1_555 1_555
H12 C17 1_555 1_555
C18 C17 1_555 1_555
H13 C18 1_555 1_555
C19 C18 1_555 1_555
H14 C19 1_555 1_555
C20 C19 1_555 1_555
H15 C20 1_555 1_555
C21 N3 1_555 1_555
C22 N3 1_555 1_555
H16 C22 1_555 1_555
N5 C23 1_555 1_555
C23 H17 1_555 1_555
H18 C23 1_555 1_555
C24 C23 1_555 1_555
H19 C24 1_555 1_555
H20 C24 1_555 1_555
C25 C24 1_555 1_555
H21 C25 1_555 1_555
H22 C25 1_555 1_555
C26 C25 1_555 1_555
H23 C26 1_555 1_555
H24 C26 1_555 1_555
H25 C26 1_555 1_555
C27 N5 1_555 1_555
H26 C27 1_555 1_555
H27 C27 1_555 1_555
C28 C27 1_555 1_555
H28 C28 1_555 1_555
H29 C28 1_555 1_555
C29 C28 1_555 1_555
H30 C29 1_555 1_555
H31 C29 1_555 1_555
C30 C29 1_555 1_555
H32 C30 1_555 1_555
H33 C30 1_555 1_555
H34 C30 1_555 1_555
C31 N5 1_555 1_555
H35 C31 1_555 1_555
H36 C31 1_555 1_555
C32 C31 1_555 1_555
H37 C32 1_555 1_555
H38 C32 1_555 1_555
C33 C32 1_555 1_555
H39 C33 1_555 1_555
H40 C33 1_555 1_555
C34 C33 1_555 1_555
H41 C34 1_555 1_555
H42 C34 1_555 1_555
H43 C34 1_555 1_555
C35 N5 1_555 1_555
H44 C35 1_555 1_555
H45 C35 1_555 1_555
C36 C35 1_555 1_555
H46 C36 1_555 1_555
H47 C36 1_555 1_555
C37 C36 1_555 1_555
H48 C37 1_555 1_555
H49 C37 1_555 1_555
C38 C37 1_555 1_555
H50 C38 1_555 1_555
H51 C38 1_555 1_555
H52 C38 1_555 1_555
N6 C39 1_555 1_555
C39 H53 1_555 1_555
H54 C39 1_555 1_555
C40 C39 1_555 1_555
H55 C40 1_555 1_555
H56 C40 1_555 1_555
C41 C40 1_555 1_555
H57 C41 1_555 1_555
H58 C41 1_555 1_555
C42 C41 1_555 1_555
H59 C42 1_555 1_555
H60 C42 1_555 1_555
H61 C42 1_555 1_555
C43 N6 1_555 1_555
H62 C43 1_555 1_555
H63 C43 1_555 1_555
C44 C43 1_555 1_555
H64 C44 1_555 1_555
H65 C44 1_555 1_555
C45 C44 1_555 1_555
H66 C45 1_555 1_555
H67 C45 1_555 1_555
C46 C45 1_555 1_555
H68 C46 1_555 1_555
H69 C46 1_555 1_555
H70 C46 1_555 1_555
C47 N6 1_555 1_555
H71 C47 1_555 1_555
H72 C47 1_555 1_555
C48 C47 1_555 1_555
H73 C48 1_555 1_555
H74 C48 1_555 1_555
C49 C48 1_555 1_555
H75 C49 1_555 1_555
H76 C49 1_555 1_555
C50 C49 1_555 1_555
H77 C50 1_555 1_555
H78 C50 1_555 1_555
H79 C50 1_555 1_555
C51 N6 1_555 1_555
H80 C51 1_555 1_555
H81 C51 1_555 1_555
C52 C51 1_555 1_555
H82 C52 1_555 1_555
H83 C52 1_555 1_555
C53 C52 1_555 1_555
H84 C53 1_555 1_555
H85 C53 1_555 1_555
C54 C53 1_555 1_555
H86 C54 1_555 1_555
H87 C54 1_555 1_555
H88 C54 1_555 1_555
N7 C55 1_555 1_555
C55 H89 1_555 1_555
H90 C55 1_555 1_555
C56 C55 1_555 1_555
H91 C56 1_555 1_555
H92 C56 1_555 1_555
C57 C56 1_555 1_555
H93 C57 1_555 1_555
H94 C57 1_555 1_555
C58 C57 1_555 1_555
H95 C58 1_555 1_555
H96 C58 1_555 1_555
H97 C58 1_555 1_555
C59 N7 1_555 1_555
H98 C59 1_555 1_555
H99 C59 1_555 1_555
C60 C59 1_555 1_555
H100 C60 1_555 1_555
H101 C60 1_555 1_555
C61 C60 1_555 1_555
H102 C61 1_555 1_555
H103 C61 1_555 1_555
C62 C61 1_555 1_555
H104 C62 1_555 1_555
H105 C62 1_555 1_555
H106 C62 1_555 1_555
C63 N7 1_555 1_555
H107 C63 1_555 1_555
H108 C63 1_555 1_555
C64 C63 1_555 1_555
H109 C64 1_555 1_555
H110 C64 1_555 1_555
C65 C64 1_555 1_555
H111 C65 1_555 1_555
H112 C65 1_555 1_555
C66 C65 1_555 1_555
H113 C66 1_555 1_555
H114 C66 1_555 1_555
H115 C66 1_555 1_555
C67 N7 1_555 1_555
H116 C67 1_555 1_555
H117 C67 1_555 1_555
C68 C67 1_555 1_555
H118 C68 1_555 1_555
H119 C68 1_555 1_555
C69 C68 1_555 1_555
H120 C69 1_555 1_555
H121 C69 1_555 1_555
C70 C69 1_555 1_555
H122 C70 1_555 1_555
H123 C70 1_555 1_555
H124 C70 1_555 1_555
Zn4C O43 1_555 1_555
O43C Zn4 1_555 1_555
Mo3 O9 1_555 1_555
Mo5 O19 1_555 1_555
Mo5 O31 1_555 1_555
Mo6 O3 1_555 1_555
Mo6 O10 1_555 1_555
Mo6 O14 1_555 1_555
Mo7 O14 1_555 1_555
Mo7 O15 1_555 1_555
Mo7 O27 1_555 1_555
Mo8 O11 1_555 1_555
Mo8 O36 1_555 1_555
Mo9 O13 1_555 1_555
Mo9 O34 1_555 1_555
Mo10 O4 1_555 1_555
Mo10 O12 1_555 1_555
Mo10 O28 1_555 1_555
Mo10 O40 1_555 1_555
Mo11 O17 1_555 1_555
Mo11 O26 1_555 1_555
Mo12 O16 1_555 1_555
Mo12 O24 1_555 1_555
Mo12 O32 1_555 1_555
Mo12 O37 1_555 1_555
Zn1 O7 1_555 1_555
Zn1 O9 1_555 1_555
Zn2 O4 1_555 1_555
Zn2 O8 1_555 1_555
Zn3 O5 1_555 1_555
Zn3 O11 1_555 1_555
Zn4 O16 1_555 1_555
Zn4 O19 1_555 1_555
P1 O13 1_555 1_555
P1 O14 1_555 1_555
P1 O24 1_555 1_555
C2 C7 1_555 1_555
C5 C6 1_555 1_555
N2 C15 1_555 1_555
C9 C14 1_555 1_555
C13 C14 1_555 1_555
N4 C22 1_555 1_555
C16 C21 1_555 1_555
C20 C21 1_555 1_555

#END
