
#######################################################################
#
#                 Cambridge Crystallographic Data Centre
#                                CCDC 
#
#######################################################################
#
# If this CIF has been generated from an entry in the Cambridge 
# Structural Database, then it will include bibliographic, chemical, 
# crystal, experimental, refinement or atomic coordinate data resulting 
# from the CCDC's data processing and validation procedures.
#
#######################################################################

data_VOYJUQ
_symmetry_cell_setting           triclinic
_symmetry_space_group_name_H-M   'P -1'
_symmetry_Int_Tables_number      2
_space_group_name_Hall           '-P 1'
loop_
_symmetry_equiv_pos_site_id
_symmetry_equiv_pos_as_xyz
1 x,y,z
2 -x,-y,-z
_cell_length_a                   7.2511(11)
_cell_length_b                   10.1231(15)
_cell_length_c                   28.854(4)
_cell_angle_alpha                91.523(3)
_cell_angle_beta                 95.195(3)
_cell_angle_gamma                96.395(3)
_cell_volume                     2094.72
loop_
_atom_site_label
_atom_site_type_symbol
_atom_site_fract_x
_atom_site_fract_y
_atom_site_fract_z
C1 C 0.4274(4) 1.1147(3) 0.20773(10)
H1 H 0.4383 1.1893 0.2277
C2 C 0.2720(5) 1.0912(3) 0.17719(11)
H2 H 0.1795 1.1479 0.1773
C3 C 0.2513(4) 0.9822(3) 0.14565(10)
C4 C 0.3919(5) 0.9000(3) 0.14952(11)
H3 H 0.3836 0.8240 0.1303
C5 C 0.5430(5) 0.9302(3) 0.18150(10)
H4 H 0.6355 0.8734 0.1830
C6 C 0.4299(7) 0.4072(4) -0.0691(2)
H5 H 0.5027 0.3629 -0.0479
C7 C 0.2992(6) 0.4803(4) -0.05177(16)
H6 H 0.2871 0.4839 -0.0200
C8 C 0.1890(6) 0.5465(4) -0.08133(13)
C9 C 0.2241(6) 0.5413(5) -0.12766(13)
H7 H 0.1586 0.5892 -0.1493
C10 C 0.3580(6) 0.4640(5) -0.14163(13)
H8 H 0.3808 0.4625 -0.1728
C11 C 0.7206(5) 0.9985(3) 0.35299(11)
H9 H 0.6653 0.9195 0.3380
C12 C 0.7281(5) 1.0075(3) 0.40060(11)
H10 H 0.6781 0.9356 0.4167
C13 C 0.8089(4) 1.1219(3) 0.42522(10)
C14 C 0.8784(5) 1.2240(3) 0.39783(11)
H11 H 0.9335 1.3042 0.4119
C15 C 0.8660(5) 1.2068(3) 0.35046(11)
H12 H 0.9153 1.2769 0.3335
C16 C 0.3710(8) 0.3911(5) 0.63185(18)
H13 H 0.3064 0.3484 0.6547
C17 C 0.4399(7) 0.5215(4) 0.64000(15)
H14 H 0.4204 0.5644 0.6677
C18 C 0.5384(5) 0.5911(4) 0.60764(12)
C19 C 0.5618(7) 0.5179(4) 0.56797(15)
H15 H 0.6283 0.5574 0.5449
C20 C 0.4865(8) 0.3857(5) 0.56248(18)
H16 H 0.5048 0.3394 0.5353
C21 C 0.0451(5) 0.6261(4) -0.06492(12)
C22 C 0.0821(5) 0.6993(3) -0.02277(11)
H17 H 0.1959 0.6981 -0.0052
C23 C -0.0507(5) 0.7738(3) -0.00709(11)
C24 C -0.2213(5) 0.7752(3) -0.03393(12)
C25 C -0.2598(6) 0.7032(4) -0.07589(12)
H18 H -0.3738 0.7038 -0.0934
C26 C -0.1262(6) 0.6312(4) -0.09099(13)
H19 H -0.1501 0.5843 -0.1195
C27 C -0.0412(5) 0.8546(3) 0.03553(11)
C28 C 0.1048(5) 0.8758(3) 0.07042(11)
H20 H 0.2128 0.8357 0.0676
C29 C 0.0916(4) 0.9565(3) 0.10961(11)
C30 C -0.0739(5) 1.0136(3) 0.11293(12)
H21 H -0.0850 1.0671 0.1390
C31 C -0.2208(5) 0.9933(4) 0.07895(12)
H22 H -0.3298 1.0318 0.0821
C32 C -0.2033(5) 0.9140(3) 0.03979(11)
C33 C 0.8216(5) 1.1364(3) 0.47649(11)
C34 C 0.7633(5) 1.0302(3) 0.50302(10)
H23 H 0.7147 0.9494 0.4883
C35 C 0.7767(4) 1.0430(3) 0.55151(11)
C36 C 0.8520(5) 1.1648(3) 0.57327(11)
C37 C 0.9138(7) 1.2709(4) 0.54733(13)
H24 H 0.9648 1.3513 0.5620
C38 C 0.8990(6) 1.2562(4) 0.49972(12)
H25 H 0.9414 1.3275 0.4823
C39 C 0.7270(4) 0.9451(3) 0.58516(11)
C40 C 0.6538(5) 0.8126(3) 0.57788(11)
H26 H 0.6290 0.7773 0.5476
C41 C 0.6170(5) 0.7321(4) 0.61474(12)
C42 C 0.6552(5) 0.7888(4) 0.66040(12)
H27 H 0.6293 0.7363 0.6855
C43 C 0.7290(5) 0.9182(4) 0.66887(12)
H28 H 0.7554 0.9527 0.6992
C44 C 0.7639(5) 0.9976(3) 0.63109(11)
C45 C 0.8812(4) 0.3319(3) 0.24748(10)
C46 C 0.8866(4) 0.8238(3) 0.25613(10)
C47 C 0.9906(4) 0.7058(2) 0.25162(9)
C48 C 0.8966(4) 0.5788(2) 0.25252(9)
H29 H 0.7707 0.5683 0.2572
C49 C 0.9884(4) 0.4678(2) 0.24650(9)
C50 C 1.1760(4) 0.4836(3) 0.24096(11)
H30 H 1.2377 0.4092 0.2364
C51 C 1.2737(4) 0.6094(3) 0.24208(11)
C52 C 1.1799(4) 0.7201(3) 0.24595(10)
H31 H 1.2439 0.8046 0.2448
N1 N 0.5653(3) 1.0370(2) 0.21083(8)
N2 N 0.4590(7) 0.3958(5) -0.11284(19)
N3 N 0.7878(3) 1.0958(2) 0.32676(8)
N4 N 0.3907(6) 0.3214(4) 0.59327(15)
O1 O 0.7170(3) 0.32122(19) 0.25695(8)
O2 O 0.9685(3) 0.23203(18) 0.23976(7)
O3 O 0.9675(3) 0.93690(17) 0.24703(7)
O4 O 0.7238(3) 0.81005(18) 0.26776(7)
O5 O 1.4590(3) 0.6152(2) 0.23739(11)
H32 H 1.5123 0.6852 0.2493
S1 S -0.36903(13) 0.87363(10) -0.00770(3)
S2 S 0.85705(16) 1.16331(10) 0.63370(3)
Zn1 Zn 0.79879(5) 1.07591(3) 0.256507(11)
O2_2 O 0.9685(3) 1.23203(18) 0.23976(7)
Zn1_2 Zn 0.79879(5) 0.07591(3) 0.256507(11)
loop_
_geom_bond_atom_site_label_1
_geom_bond_atom_site_label_2
_geom_bond_site_symmetry_1
_geom_bond_site_symmetry_2
C1 H1 1_555 1_555
C2 C1 1_555 1_555
H2 C2 1_555 1_555
C3 C2 1_555 1_555
C4 C3 1_555 1_555
H3 C4 1_555 1_555
C5 C4 1_555 1_555
H4 C5 1_555 1_555
C6 H5 1_555 1_555
C7 C6 1_555 1_555
H6 C7 1_555 1_555
C8 C7 1_555 1_555
C9 C8 1_555 1_555
H7 C9 1_555 1_555
C10 C9 1_555 1_555
H8 C10 1_555 1_555
C11 H9 1_555 1_555
C12 C11 1_555 1_555
H10 C12 1_555 1_555
C13 C12 1_555 1_555
C14 C13 1_555 1_555
H11 C14 1_555 1_555
C15 C14 1_555 1_555
H12 C15 1_555 1_555
C16 H13 1_555 1_555
C17 C16 1_555 1_555
H14 C17 1_555 1_555
C18 C17 1_555 1_555
C19 C18 1_555 1_555
H15 C19 1_555 1_555
C20 C19 1_555 1_555
H16 C20 1_555 1_555
C21 C8 1_555 1_555
C22 C21 1_555 1_555
H17 C22 1_555 1_555
C23 C22 1_555 1_555
C24 C23 1_555 1_555
C25 C24 1_555 1_555
H18 C25 1_555 1_555
C26 C21 1_555 1_555
H19 C26 1_555 1_555
C27 C23 1_555 1_555
C28 C27 1_555 1_555
H20 C28 1_555 1_555
C29 C3 1_555 1_555
C30 C29 1_555 1_555
H21 C30 1_555 1_555
C31 C30 1_555 1_555
H22 C31 1_555 1_555
C32 C27 1_555 1_555
C33 C13 1_555 1_555
C34 C33 1_555 1_555
H23 C34 1_555 1_555
C35 C34 1_555 1_555
C36 C35 1_555 1_555
C37 C36 1_555 1_555
H24 C37 1_555 1_555
C38 C33 1_555 1_555
H25 C38 1_555 1_555
C39 C35 1_555 1_555
C40 C39 1_555 1_555
H26 C40 1_555 1_555
C41 C18 1_555 1_555
C42 C41 1_555 1_555
H27 C42 1_555 1_555
C43 C42 1_555 1_555
H28 C43 1_555 1_555
C44 C39 1_555 1_555
C45 C49 1_555 1_555
C46 C47 1_555 1_555
C47 C48 1_555 1_555
C48 H29 1_555 1_555
C49 C48 1_555 1_555
C50 C49 1_555 1_555
H30 C50 1_555 1_555
C51 C50 1_555 1_555
C52 C47 1_555 1_555
H31 C52 1_555 1_555
N1 C1 1_555 1_555
N2 C6 1_555 1_555
N3 C11 1_555 1_555
N4 C16 1_555 1_555
O1 C45 1_555 1_555
O2 C45 1_555 1_555
O3 C46 1_555 1_555
O4 C46 1_555 1_555
O5 C51 1_555 1_555
H32 O5 1_555 1_555
S1 C24 1_555 1_555
S2 C36 1_555 1_555
Zn1 N1 1_555 1_555
O2_2 Zn1 1_555 1_555
Zn1_2 O2 1_555 1_555
C5 N1 1_555 1_555
C10 N2 1_555 1_555
C15 N3 1_555 1_555
C20 N4 1_555 1_555
C25 C26 1_555 1_555
C28 C29 1_555 1_555
C31 C32 1_555 1_555
C32 S1 1_555 1_555
C37 C38 1_555 1_555
C40 C41 1_555 1_555
C43 C44 1_555 1_555
C44 S2 1_555 1_555
C51 C52 1_555 1_555
N3 Zn1 1_555 1_555
O3 Zn1 1_555 1_555

#END
