
#######################################################################
#
#                 Cambridge Crystallographic Data Centre
#                                CCDC 
#
#######################################################################
#
# If this CIF has been generated from an entry in the Cambridge 
# Structural Database, then it will include bibliographic, chemical, 
# crystal, experimental, refinement or atomic coordinate data resulting 
# from the CCDC's data processing and validation procedures.
#
#######################################################################

data_VOYLEC
_symmetry_cell_setting           orthorhombic
_symmetry_space_group_name_H-M   'P n a 21'
_symmetry_Int_Tables_number      33
_space_group_name_Hall           'P 2c -2n'
loop_
_symmetry_equiv_pos_site_id
_symmetry_equiv_pos_as_xyz
1 x,y,z
2 -x,-y,1/2+z
3 1/2+x,1/2-y,z
4 1/2-x,1/2+y,1/2+z
_cell_length_a                   14.436(4)
_cell_length_b                   13.104(3)
_cell_length_c                   20.762(5)
_cell_angle_alpha                90
_cell_angle_beta                 90
_cell_angle_gamma                90
_cell_volume                     3927.53
loop_
_atom_site_label
_atom_site_type_symbol
_atom_site_fract_x
_atom_site_fract_y
_atom_site_fract_z
O1 O 0.2041(6) 0.4154(6) 0.5217(4)
O2 O 0.1686(4) 0.5436(5) 0.4801(3)
O3 O 0.0656(3) 0.4737(5) 0.5385(3)
N1 N 0.1409(4) 0.4748(4) 0.5130(2)
O4 O 0.2158(3) 0.0161(3) 0.3977(2)
O5 O 0.3395(5) 0.0051(5) 0.4503(4)
N2 N 0.2600(3) 0.0292(3) 0.4476(2)
O6 O 0.2248(4) 0.0633(5) 0.4951(3)
Cu1 Cu 0.31336(2) 0.69874(3) 0.32296(2)
Cu2 Cu 0.38789(3) 0.83832(3) 0.65571(2)
C1 C 0.3245(3) 1.1104(3) 0.2459(2)
H1 H 0.3039 1.1287 0.2883
H2 H 0.2816 1.1363 0.2146
H3 H 0.3847 1.1393 0.2383
C2 C 0.3299(3) 0.9959(3) 0.2404(2)
C3 C 0.3538(3) 0.9322(3) 0.1908(2)
H4 H 0.3718 0.9510 0.1494
C4 C 0.3456(3) 0.8327(3) 0.21516(19)
C5 C 0.3596(2) 0.7304(3) 0.18892(18)
C6 C 0.3865(3) 0.7038(3) 0.1270(2)
H5 H 0.3998 0.7536 0.0965
C7 C 0.3931(3) 0.6001(4) 0.1118(2)
H6 H 0.4124 0.5806 0.0708
C8 C 0.3713(3) 0.5268(3) 0.1564(2)
H7 H 0.3734 0.4580 0.1457
C9 C 0.3459(2) 0.5578(3) 0.21878(19)
C10 C 0.3215(2) 0.4937(3) 0.2738(2)
C11 C 0.3190(3) 0.3887(3) 0.2855(2)
H8 H 0.3325 0.3367 0.2565
C12 C 0.2924(3) 0.3784(3) 0.3487(2)
C13 C 0.2799(4) 0.2849(3) 0.3914(3)
H9 H 0.2617 0.3062 0.4338
H10 H 0.3373 0.2481 0.3939
H11 H 0.2329 0.2416 0.3735
C14 C 0.1432(2) 0.7654(2) 0.38193(16)
H12 H 0.1222 0.7549 0.3401
C15 C 0.2616(2) 0.7565(3) 0.45580(16)
H13 H 0.3235 0.7431 0.4651
C16 C 0.2037(2) 0.7886(2) 0.50548(17)
C17 C 0.2415(2) 0.7969(2) 0.57274(17)
H14 H 0.0732 0.8371 0.5224
C18 C 0.4138(3) 0.4272(3) 0.7306(3)
H15 H 0.3974 0.4079 0.6875
H16 H 0.3688 0.4006 0.7602
H17 H 0.4738 0.4002 0.7409
C19 C 0.4161(3) 0.5419(3) 0.7356(2)
C20 C 0.4357(3) 0.6053(3) 0.7865(2)
H18 H 0.4517 0.5864 0.8282
C21 C 0.4264(3) 0.7054(3) 0.76191(19)
C22 C 0.4381(3) 0.8080(3) 0.7888(2)
C23 C 0.4654(3) 0.8346(4) 0.8513(2)
H19 H 0.4768 0.7848 0.8823
C24 C 0.4751(3) 0.9383(4) 0.8659(2)
H20 H 0.4934 0.9580 0.9070
C25 C 0.4574(3) 1.0128(3) 0.8189(2)
H21 H 0.4648 1.0818 0.8281
C26 C 0.4286(3) 0.9812(3) 0.7583(2)
C27 C 0.4054(3) 1.0446(3) 0.7016(2)
C28 C 0.4046(3) 1.1489(3) 0.6878(3)
H22 H 0.4192 1.2020 0.7157
C29 C 0.3775(3) 1.1569(3) 0.6241(3)
C30 C 0.3647(4) 1.2469(4) 0.5802(3)
H23 H 0.3447 1.2237 0.5386
H24 H 0.4223 1.2828 0.5759
H25 H 0.3188 1.2919 0.5979
N3 N 0.2795(2) 0.4731(2) 0.37278(17)
H26 H 0.2632 0.4862 0.4118
N4 N 0.2958(2) 0.5448(2) 0.32687(19)
N5 N 0.3425(2) 0.6570(2) 0.23308(15)
N6 N 0.3183(2) 0.8361(2) 0.27743(17)
N7 N 0.3096(2) 0.9355(2) 0.29178(16)
H27 H 0.2931 0.9582 0.3289
N8 N 0.23188(19) 0.7442(2) 0.39554(13)
N9 N 0.3971(2) 0.6020(3) 0.68400(18)
H28 H 0.3832 0.5793 0.6463
N10 N 0.4028(2) 0.7018(2) 0.69933(17)
N11 N 0.4215(2) 0.8810(2) 0.74471(16)
N12 N 0.3781(2) 0.9914(2) 0.64881(19)
N13 N 0.3623(3) 1.0616(3) 0.60297(19)
H29 H 0.3444 1.0471 0.5645
O7 O 0.18795(19) 0.7941(2) 0.61932(14)
O8 O 0.32934(19) 0.8059(2) 0.57549(14)
O9 O 0.5313(2) 0.8391(3) 0.61212(18)
H30 H 0.5273 0.8384 0.5713
H31 H 0.5601 0.7888 0.6245
C31 C 0.0810(2) 0.8022(2) 0.42754(17)
C32 C -0.0174(2) 0.8286(3) 0.40817(19)
C33 C 0.1129(2) 0.8133(3) 0.49047(18)
O10 O -0.04748(18) 0.7872(2) 0.35835(14)
O11 O -0.06131(19) 0.8890(2) 0.44410(15)
Cu1B Cu -0.18664(2) 0.80126(3) 0.32296(2)
O10B O 0.45252(18) 0.7128(2) 0.35835(14)
O12 O 0.0189(3) 0.1038(4) 0.4490(2)
H32 H -0.0373 0.1195 0.4727
H33 H 0.0762 0.0945 0.4727
O13 O 0.3693(3) 0.5353(3) 0.56101(19)
H34 H 0.3188 0.5099 0.5748
H35 H 0.4101 0.4888 0.5587
loop_
_geom_bond_atom_site_label_1
_geom_bond_atom_site_label_2
_geom_bond_site_symmetry_1
_geom_bond_site_symmetry_2
O1 N1 1_555 1_555
O2 N1 1_555 1_555
O3 N1 1_555 1_555
O4 N2 1_555 1_555
O5 N2 1_555 1_555
N2 O6 1_555 1_555
Cu1 N4 1_555 1_555
Cu2 N10 1_555 1_555
C1 H1 1_555 1_555
H2 C1 1_555 1_555
H3 C1 1_555 1_555
C2 C1 1_555 1_555
C3 C2 1_555 1_555
H4 C3 1_555 1_555
C4 C3 1_555 1_555
C5 C4 1_555 1_555
C6 C5 1_555 1_555
H5 C6 1_555 1_555
C7 C6 1_555 1_555
H6 C7 1_555 1_555
C8 C7 1_555 1_555
H7 C8 1_555 1_555
C9 C8 1_555 1_555
C10 C9 1_555 1_555
C11 C10 1_555 1_555
H8 C11 1_555 1_555
C12 C11 1_555 1_555
C13 C12 1_555 1_555
H9 C13 1_555 1_555
H10 C13 1_555 1_555
H11 C13 1_555 1_555
C14 H12 1_555 1_555
C15 H13 1_555 1_555
C16 C15 1_555 1_555
C17 C16 1_555 1_555
H14 C33 1_555 1_555
C18 H15 1_555 1_555
H16 C18 1_555 1_555
H17 C18 1_555 1_555
C19 C18 1_555 1_555
C20 C19 1_555 1_555
H18 C20 1_555 1_555
C21 C20 1_555 1_555
C22 C21 1_555 1_555
C23 C22 1_555 1_555
H19 C23 1_555 1_555
C24 C23 1_555 1_555
H20 C24 1_555 1_555
C25 C24 1_555 1_555
H21 C25 1_555 1_555
C26 C25 1_555 1_555
C27 C26 1_555 1_555
C28 C27 1_555 1_555
H22 C28 1_555 1_555
C29 C28 1_555 1_555
C30 C29 1_555 1_555
H23 C30 1_555 1_555
H24 C30 1_555 1_555
H25 C30 1_555 1_555
N3 C12 1_555 1_555
H26 N3 1_555 1_555
N4 C10 1_555 1_555
N5 Cu1 1_555 1_555
N6 Cu1 1_555 1_555
N7 C2 1_555 1_555
H27 N7 1_555 1_555
N8 Cu1 1_555 1_555
N9 C19 1_555 1_555
H28 N9 1_555 1_555
N10 C21 1_555 1_555
N11 Cu2 1_555 1_555
N12 Cu2 1_555 1_555
N13 C29 1_555 1_555
H29 N13 1_555 1_555
O7 C17 1_555 1_555
O8 Cu2 1_555 1_555
O9 Cu2 1_555 1_555
H30 O9 1_555 1_555
H31 O9 1_555 1_555
C31 C14 1_555 1_555
C32 C31 1_555 1_555
C33 C16 1_555 1_555
O10 C32 1_555 1_555
O11 C32 1_555 1_555
O12 H32 1_555 1_555
H33 O12 1_555 1_555
O13 H34 1_555 1_555
H35 O13 1_555 1_555
Cu1B O10 1_555 1_555
O10B Cu1 1_555 1_555
C4 N6 1_555 1_555
C5 N5 1_555 1_555
C9 N5 1_555 1_555
C14 N8 1_555 1_555
C15 N8 1_555 1_555
C17 O8 1_555 1_555
C22 N11 1_555 1_555
C26 N11 1_555 1_555
C27 N12 1_555 1_555
N3 N4 1_555 1_555
N6 N7 1_555 1_555
N9 N10 1_555 1_555
N12 N13 1_555 1_555
C31 C33 1_555 1_555

#END
