
#######################################################################
#
#                 Cambridge Crystallographic Data Centre
#                                CCDC 
#
#######################################################################
#
# If this CIF has been generated from an entry in the Cambridge 
# Structural Database, then it will include bibliographic, chemical, 
# crystal, experimental, refinement or atomic coordinate data resulting 
# from the CCDC's data processing and validation procedures.
#
#######################################################################

data_VOYLUS
_symmetry_cell_setting           monoclinic
_symmetry_space_group_name_H-M   'P 21/c'
_symmetry_Int_Tables_number      14
_space_group_name_Hall           '-P 2ybc'
loop_
_symmetry_equiv_pos_site_id
_symmetry_equiv_pos_as_xyz
1 x,y,z
2 -x,1/2+y,1/2-z
3 -x,-y,-z
4 x,1/2-y,1/2+z
_cell_length_a                   16.0971(10)
_cell_length_b                   19.5272(13)
_cell_length_c                   14.4098(9)
_cell_angle_alpha                90
_cell_angle_beta                 101.346(2)
_cell_angle_gamma                90
_cell_volume                     4440.93
loop_
_atom_site_label
_atom_site_type_symbol
_atom_site_fract_x
_atom_site_fract_y
_atom_site_fract_z
Ag1 Ag 0.205072(19) 0.286158(16) 0.12341(2)
N1 N 0.10621(19) 0.38208(15) 0.0817(2)
N2 N 0.33412(19) 0.33840(16) 0.1165(2)
N3 N 0.2314(2) 0.30893(16) 0.2883(2)
N4 N 0.12526(18) 0.20976(15) 0.0331(2)
C1 C 0.1364(2) 0.44374(18) 0.0656(3)
C2 C 0.0420(2) 0.3800(2) 0.1285(3)
H1 H 0.1803 0.4458 0.0302
C3 C 0.1080(2) 0.50540(18) 0.0972(2)
C4 C 0.0078(2) 0.4377(2) 0.1602(3)
H2 H 0.0193 0.3367 0.1402
C5 C 0.0421(2) 0.5002(2) 0.1456(3)
C6 C 0.1449(2) 0.57117(17) 0.0768(2)
H3 H -0.0387 0.4345 0.1917
H4 H 0.0203 0.5404 0.1691
C7 C 0.0957(2) 0.62982(18) 0.0645(2)
C8 C 0.2292(2) 0.57707(18) 0.0677(2)
H5 H 0.0386 0.6277 0.0727
C9 C 0.1280(2) 0.69106(18) 0.0406(2)
C10 C 0.2618(2) 0.63909(19) 0.0470(3)
H6 H 0.2646 0.5377 0.0759
H7 H 0.0923 0.7302 0.0307
C11 C 0.2116(2) 0.69687(18) 0.0307(2)
H8 H 0.3201 0.6422 0.0438
C12 C 0.2447(2) 0.76509(18) 0.0102(2)
C13 C 0.3180(2) 0.78914(17) 0.0848(2)
C14 C 0.2070(2) 0.80285(18) -0.0650(2)
C15 C 0.3898(2) 0.8184(2) 0.0632(3)
C16 C 0.3130(2) 0.78048(19) 0.1782(3)
C17 C 0.2250(2) 0.87739(18) -0.0749(2)
C18 C 0.1443(2) 0.77226(18) -0.1440(2)
C19 C 0.4558(2) 0.8386(2) 0.1354(3)
H9 H 0.3941 0.8248 -0.0011
H10 H 0.2644 0.7593 0.1936
C20 C 0.3778(2) 0.8021(2) 0.2503(3)
C21 C 0.2352(2) 0.90425(18) -0.1615(3)
C22 C 0.2289(2) 0.92189(18) 0.0003(3)
C23 C 0.1619(2) 0.71084(17) -0.1856(2)
C24 C 0.0675(2) 0.80399(18) -0.1818(3)
C25 C 0.4495(2) 0.8314(2) 0.2294(3)
H11 H 0.5059 0.8574 0.1201
H12 H 0.3726 0.7967 0.3144
C26 C 0.2499(2) 0.97274(18) -0.1721(3)
H13 H 0.2318 0.8745 -0.2143
H14 H 0.2216 0.9049 0.0599
C27 C 0.2432(2) 0.99089(19) -0.0105(3)
C28 C 0.1081(2) 0.68419(18) -0.2639(2)
H15 H 0.2122 0.6867 -0.1594
H16 H 0.0531 0.8456 -0.1547
C29 C 0.0119(2) 0.77627(17) -0.2580(2)
C30 C 0.5195(2) 0.8515(2) 0.3086(3)
C31 C 0.2533(2) 1.01793(18) -0.0968(3)
H17 H 0.2580 0.9895 -0.2316
H18 H 0.2464 1.0206 0.0424
C32 C 0.0322(2) 0.71655(17) -0.3022(2)
H19 H 0.1232 0.6432 -0.2919
H20 H -0.0409 0.7981 -0.2806
C33 C 0.6000(2) 0.82692(19) 0.3126(3)
C34 C 0.5061(3) 0.8921(2) 0.3825(3)
C35 C 0.2643(2) 1.09239(18) -0.1094(3)
C36 C -0.0231(2) 0.68843(18) -0.3890(2)
H21 H 0.6097 0.7997 0.2611
H22 H 0.4517 0.9108 0.3828
C37 C 0.5737(3) 0.9050(3) 0.4567(3)
C38 C 0.2260(2) 1.12369(19) -0.1931(3)
C39 C 0.3099(3) 1.1344(2) -0.0401(3)
C40 C -0.0769(2) 0.73083(18) -0.4511(2)
C41 C -0.0200(2) 0.62043(18) -0.4161(3)
C42 C 0.6506(3) 0.8776(2) 0.4544(3)
H23 H 0.5661 0.9328 0.5085
H24 H 0.1936 1.0957 -0.2409
H25 H 0.3373 1.1158 0.0189
C43 C 0.3152(3) 1.2038(2) -0.0577(3)
H26 H -0.0798 0.7777 -0.4345
H27 H 0.0153 0.5890 -0.3761
C44 C -0.0676(2) 0.59829(19) -0.5003(3)
H28 H 0.6961 0.8867 0.5059
C45 C 0.2760(3) 1.2298(2) -0.1431(3)
H29 H 0.3459 1.2332 -0.0106
C46 C -0.1197(2) 0.64398(19) -0.5566(3)
H30 H -0.0646 0.5520 -0.5195
H31 H 0.2806 1.2775 -0.1542
H32 H -0.1531 0.6282 -0.6144
N2A N 0.66588(19) 0.83840(16) 0.3835(2)
Ag1A Ag 0.794928(19) 0.786158(16) 0.37659(2)
N3C N 0.2314(2) 1.19107(16) -0.2117(2)
N4A N -0.12526(18) 0.70976(15) -0.5331(2)
Ag1C Ag 0.205072(19) 1.213842(16) -0.37659(2)
Ag1A_2 Ag -0.205072(19) 0.786158(16) -0.62341(2)
P1 P 0.22941(9) 0.02183(7) 0.28699(9)
F1 F 0.1886(3) -0.0198(3) 0.3540(3)
F2 F 0.1452(2) 0.01636(19) 0.2107(2)
F3 F 0.1973(3) 0.0868(3) 0.3264(4)
F4 F 0.3128(2) 0.02580(19) 0.3629(2)
F5 F 0.2618(4) -0.0431(3) 0.2476(4)
F6 F 0.2660(2) 0.0666(3) 0.2173(3)
loop_
_geom_bond_atom_site_label_1
_geom_bond_atom_site_label_2
_geom_bond_site_symmetry_1
_geom_bond_site_symmetry_2
Ag1 N1 1_555 1_555
N1 C1 1_555 1_555
N2 Ag1 1_555 1_555
N3 Ag1 1_555 1_555
N4 Ag1 1_555 1_555
C1 H1 1_555 1_555
C2 N1 1_555 1_555
C3 C1 1_555 1_555
C4 C2 1_555 1_555
H2 C2 1_555 1_555
C5 C3 1_555 1_555
C6 C3 1_555 1_555
H3 C4 1_555 1_555
H4 C5 1_555 1_555
C7 C6 1_555 1_555
C8 C6 1_555 1_555
H5 C7 1_555 1_555
C9 C7 1_555 1_555
C10 C8 1_555 1_555
H6 C8 1_555 1_555
H7 C9 1_555 1_555
C11 C9 1_555 1_555
H8 C10 1_555 1_555
C12 C11 1_555 1_555
C13 C12 1_555 1_555
C14 C12 1_555 1_555
C15 C13 1_555 1_555
C16 C13 1_555 1_555
C17 C14 1_555 1_555
C18 C14 1_555 1_555
C19 C15 1_555 1_555
H9 C15 1_555 1_555
H10 C16 1_555 1_555
C20 C16 1_555 1_555
C21 C17 1_555 1_555
C22 C17 1_555 1_555
C23 C18 1_555 1_555
C24 C18 1_555 1_555
C25 C19 1_555 1_555
H11 C19 1_555 1_555
H12 C20 1_555 1_555
C26 C21 1_555 1_555
H13 C21 1_555 1_555
H14 C22 1_555 1_555
C27 C22 1_555 1_555
C28 C23 1_555 1_555
H15 C23 1_555 1_555
H16 C24 1_555 1_555
C29 C24 1_555 1_555
C30 C25 1_555 1_555
C31 C26 1_555 1_555
H17 C26 1_555 1_555
H18 C27 1_555 1_555
C32 C28 1_555 1_555
H19 C28 1_555 1_555
H20 C29 1_555 1_555
C33 C30 1_555 1_555
C34 C30 1_555 1_555
C35 C31 1_555 1_555
C36 C32 1_555 1_555
H21 C33 1_555 1_555
H22 C34 1_555 1_555
C37 C34 1_555 1_555
C38 C35 1_555 1_555
C39 C35 1_555 1_555
C40 C36 1_555 1_555
C41 C36 1_555 1_555
C42 C37 1_555 1_555
H23 C37 1_555 1_555
H24 C38 1_555 1_555
H25 C39 1_555 1_555
C43 C39 1_555 1_555
H26 C40 1_555 1_555
H27 C41 1_555 1_555
C44 C41 1_555 1_555
H28 C42 1_555 1_555
C45 C43 1_555 1_555
H29 C43 1_555 1_555
C46 C44 1_555 1_555
H30 C44 1_555 1_555
H31 C45 1_555 1_555
H32 C46 1_555 1_555
P1 F1 1_555 1_555
F2 P1 1_555 1_555
F3 P1 1_555 1_555
F4 P1 1_555 1_555
F5 P1 1_555 1_555
F6 P1 1_555 1_555
N2A C33 1_555 1_555
Ag1A N2A 1_555 1_555
N3C C38 1_555 1_555
N4A C40 1_555 1_555
Ag1C N3C 1_555 1_555
Ag1A_2 N4A 1_555 1_555
C4 C5 1_555 1_555
C10 C11 1_555 1_555
C20 C25 1_555 1_555
C27 C31 1_555 1_555
C29 C32 1_555 1_555
C42 N2A 1_555 1_555
C45 N3C 1_555 1_555
C46 N4A 1_555 1_555

#END
