
#######################################################################
#
#                 Cambridge Crystallographic Data Centre
#                                CCDC 
#
#######################################################################
#
# If this CIF has been generated from an entry in the Cambridge 
# Structural Database, then it will include bibliographic, chemical, 
# crystal, experimental, refinement or atomic coordinate data resulting 
# from the CCDC's data processing and validation procedures.
#
#######################################################################

data_VOYTIO
_symmetry_cell_setting           triclinic
_symmetry_space_group_name_H-M   'P -1'
_symmetry_Int_Tables_number      2
_space_group_name_Hall           '-P 1'
loop_
_symmetry_equiv_pos_site_id
_symmetry_equiv_pos_as_xyz
1 x,y,z
2 -x,-y,-z
_cell_length_a                   6.6089(14)
_cell_length_b                   11.4758(15)
_cell_length_c                   12.230(5)
_cell_angle_alpha                102.819(3)
_cell_angle_beta                 91.762(4)
_cell_angle_gamma                98.758(4)
_cell_volume                     891.883
loop_
_atom_site_label
_atom_site_type_symbol
_atom_site_fract_x
_atom_site_fract_y
_atom_site_fract_z
Ag1 Ag 0.25143(10) 1.02251(5) 1.00680(4)
O1 O 0.2816(8) 0.6546(4) 0.6395(4)
O2 O -0.0277(7) 0.8174(4) 1.0351(4)
O3 O 0.1952(6) 0.7353(4) 1.2467(3)
O4 O 0.2932(7) 0.8002(4) 0.9879(4)
O5 O -0.1367(7) 0.6762(4) 1.2720(3)
C1 C 0.2860(10) 0.7334(5) 0.5850(5)
C2 C -0.0628(8) 0.4614(5) 1.0950(4)
H1 H -0.1057(8) 0.4345(5) 1.1599(4)
C3 C 0.2324(10) 1.3804(5) 1.4124(5)
N1 N 0.2793(8) 0.7122(5) 0.4741(4)
H2 H 0.2710(8) 0.6377(5) 0.4340(4)
H3 H 0.2831(8) 0.7728(5) 0.4405(4)
N2 N 0.3265(8) 0.9517(4) 0.5913(4)
C4 C 0.0667(9) 0.6230(5) 1.0071(4)
C5 C 0.3049(9) 0.8638(5) 0.6482(5)
C6 C 0.0219(9) 0.6731(5) 1.2169(4)
N3 N 0.3151(8) 1.0016(5) 0.8250(4)
C7 C 0.0027(8) 0.5838(5) 1.1031(4)
C8 C 0.2144(9) 1.2485(5) 1.3554(5)
C9 C 0.1175(9) 0.7577(5) 1.0111(4)
C10 C 0.3377(10) 1.0901(5) 0.7696(5)
H4 H 0.3496(10) 1.1718(5) 0.8104(5)
C11 C 0.2997(9) 0.8880(5) 0.7637(5)
H5 H 0.2850(9) 0.8227(5) 0.8005(5)
C12 C 0.3442(10) 1.0652(5) 0.6533(5)
H6 H 0.3617(10) 1.1306(5) 0.6167(5)
O6 O 0.2583(7) 1.4580(4) 1.3559(4)
N4 N 0.2161(9) 1.4061(4) 1.5226(4)
H7 H 0.1958(9) 1.3473(4) 1.5586(4)
H8 H 0.2256(9) 1.4820(4) 1.5597(4)
N5 N 0.2189(8) 1.0953(4) 1.1888(4)
N6 N 0.1848(8) 1.1681(4) 1.4204(4)
C13 C 0.1879(10) 1.0143(5) 1.2541(5)
H9 H 0.1769(10) 0.9302(5) 1.2210(5)
C14 C 0.1719(10) 1.0522(5) 1.3682(5)
H10 H 0.1506(10) 0.9928(5) 1.4116(5)
C15 C 0.2313(10) 1.2131(5) 1.2409(5)
H11 H 0.2521(10) 1.2729(5) 1.1979(5)
O2A O 0.0277(7) 0.1826(4) 0.9649(4)
O3A O -0.1952(6) 0.2647(4) 0.7533(3)
O4A O -0.2932(7) 0.1998(4) 1.0121(4)
O5A O 0.1367(7) 0.3238(4) 0.7280(3)
C2A C 0.0628(8) 0.5386(5) 0.9050(4)
H1A H 0.1057(8) 0.5655(5) 0.8401(4)
C4A C -0.0667(9) 0.3770(5) 0.9929(4)
C6A C -0.0219(9) 0.3269(5) 0.7831(4)
C7A C -0.0027(8) 0.4162(5) 0.8969(4)
C9A C -0.1175(9) 0.2423(5) 0.9889(4)
Ag1A Ag -0.25143(10) -0.02251(5) 0.99320(4)
O1A O -0.2816(8) 0.3454(4) 1.3605(4)
C1A C -0.2860(10) 0.2666(5) 1.4150(5)
C3A C -0.2324(10) -0.3804(5) 0.5876(5)
N1A N -0.2793(8) 0.2878(5) 1.5259(4)
H2A H -0.2710(8) 0.3623(5) 1.5660(4)
H3A H -0.2831(8) 0.2272(5) 1.5595(4)
N2A N -0.3265(8) 0.0483(4) 1.4087(4)
C5A C -0.3049(9) 0.1362(5) 1.3518(5)
N3A N -0.3151(8) -0.0016(5) 1.1750(4)
C8A C -0.2144(9) -0.2485(5) 0.6446(5)
C10A C -0.3377(10) -0.0901(5) 1.2304(5)
H4A H -0.3496(10) -0.1718(5) 1.1896(5)
C11A C -0.2997(9) 0.1120(5) 1.2363(5)
H5A H -0.2850(9) 0.1773(5) 1.1995(5)
C12A C -0.3442(10) -0.0652(5) 1.3467(5)
H6A H -0.3617(10) -0.1306(5) 1.3833(5)
O6A O -0.2583(7) -0.4580(4) 0.6441(4)
N4A N -0.2161(9) -0.4061(4) 0.4774(4)
H7A H -0.1958(9) -0.3473(4) 0.4414(4)
H8A H -0.2256(9) -0.4820(4) 0.4403(4)
N5A N -0.2189(8) -0.0953(4) 0.8112(4)
N6A N -0.1848(8) -0.1681(4) 0.5796(4)
C13A C -0.1879(10) -0.0143(5) 0.7459(5)
H9A H -0.1769(10) 0.0698(5) 0.7790(5)
C14A C -0.1719(10) -0.0522(5) 0.6318(5)
H10A H -0.1506(10) 0.0072(5) 0.5884(5)
C15A C -0.2313(10) -0.2131(5) 0.7591(5)
H11A H -0.2521(10) -0.2729(5) 0.8021(5)
Ag1_2 Ag 0.25143(10) 0.02251(5) 1.00680(4)
Ag1A_2 Ag -0.25143(10) 0.97749(5) 0.99320(4)
O2_2 O -0.0277(7) -0.1826(4) 1.0351(4)
O2A_2 O 0.0277(7) 1.1826(4) 0.9649(4)
O7 O 0.5869(7) 0.6561(4) 0.9860(4)
H12 H 0.705(4) 0.699(5) 0.994(7)
H13 H 0.496(7) 0.701(5) 0.984(7)
O8 O 0.4750(9) 0.5585(5) 1.1929(5)
H14 H 0.433(13) 0.521(7) 1.242(6)
H15 H 0.411(12) 0.618(6) 1.195(7)
loop_
_geom_bond_atom_site_label_1
_geom_bond_atom_site_label_2
_geom_bond_site_symmetry_1
_geom_bond_site_symmetry_2
Ag1 O4 1_555 1_555
O1 C1 1_555 1_555
O2 C9 1_555 1_555
O3 C6 1_555 1_555
O4 C9 1_555 1_555
O5 C6 1_555 1_555
C1 N1 1_555 1_555
C2 H1 1_555 1_555
C3 C8 1_555 1_555
N1 H2 1_555 1_555
H3 N1 1_555 1_555
N2 C5 1_555 1_555
C4 C7 1_555 1_555
C5 C1 1_555 1_555
C6 C7 1_555 1_555
N3 Ag1 1_555 1_555
C7 C2 1_555 1_555
C8 N6 1_555 1_555
C9 C4 1_555 1_555
C10 N3 1_555 1_555
H4 C10 1_555 1_555
C11 C5 1_555 1_555
H5 C11 1_555 1_555
C12 N2 1_555 1_555
H6 C12 1_555 1_555
O6 C3 1_555 1_555
N4 C3 1_555 1_555
H7 N4 1_555 1_555
H8 N4 1_555 1_555
N5 Ag1 1_555 1_555
N6 C14 1_555 1_555
C13 N5 1_555 1_555
H9 C13 1_555 1_555
C14 C13 1_555 1_555
H10 C14 1_555 1_555
C15 C8 1_555 1_555
H11 C15 1_555 1_555
O7 H12 1_555 1_555
H13 O7 1_555 1_555
O8 H14 1_555 1_555
H15 O8 1_555 1_555
O2A C9A 1_555 1_555
O3A C6A 1_555 1_555
O4A C9A 1_555 1_555
O5A C6A 1_555 1_555
C2A C4 1_555 1_555
H1A C2A 1_555 1_555
C4A C2 1_555 1_555
C6A C7A 1_555 1_555
C7A C2A 1_555 1_555
C9A C4A 1_555 1_555
Ag1A O4A 1_555 1_555
O1A C1A 1_555 1_555
C1A N1A 1_555 1_555
C3A C8A 1_555 1_555
N1A H2A 1_555 1_555
H3A N1A 1_555 1_555
N2A C5A 1_555 1_555
C5A C1A 1_555 1_555
N3A Ag1A 1_555 1_555
C8A N6A 1_555 1_555
C10A N3A 1_555 1_555
H4A C10A 1_555 1_555
C11A C5A 1_555 1_555
H5A C11A 1_555 1_555
C12A N2A 1_555 1_555
H6A C12A 1_555 1_555
O6A C3A 1_555 1_555
N4A C3A 1_555 1_555
H7A N4A 1_555 1_555
H8A N4A 1_555 1_555
N5A Ag1A 1_555 1_555
N6A C14A 1_555 1_555
C13A N5A 1_555 1_555
H9A C13A 1_555 1_555
C14A C13A 1_555 1_555
H10A C14A 1_555 1_555
C15A C8A 1_555 1_555
H11A C15A 1_555 1_555
Ag1_2 O2A 1_555 1_555
Ag1A_2 O2 1_555 1_555
O2_2 Ag1A 1_555 1_555
O2A_2 Ag1 1_555 1_555
N3 C11 1_555 1_555
C10 C12 1_555 1_555
N5 C15 1_555 1_555
C4A C7A 1_555 1_555
N3A C11A 1_555 1_555
C10A C12A 1_555 1_555
N5A C15A 1_555 1_555

#END
