
#######################################################################
#
#                 Cambridge Crystallographic Data Centre
#                                CCDC 
#
#######################################################################
#
# If this CIF has been generated from an entry in the Cambridge 
# Structural Database, then it will include bibliographic, chemical, 
# crystal, experimental, refinement or atomic coordinate data resulting 
# from the CCDC's data processing and validation procedures.
#
#######################################################################

data_VOYTUA
_symmetry_cell_setting           monoclinic
_symmetry_space_group_name_H-M   'C 2/c'
_symmetry_Int_Tables_number      15
_space_group_name_Hall           '-C 2yn'
loop_
_symmetry_equiv_pos_site_id
_symmetry_equiv_pos_as_xyz
1 x,y,z
2 -x,y,1/2-z
3 1/2+x,1/2+y,z
4 1/2-x,1/2+y,1/2-z
5 -x,-y,-z
6 x,-y,1/2+z
7 1/2-x,1/2-y,-z
8 1/2+x,1/2-y,1/2+z
_cell_length_a                   16.7321(14)
_cell_length_b                   8.8710(15)
_cell_length_c                   15.176(5)
_cell_angle_alpha                90
_cell_angle_beta                 102.356(4)
_cell_angle_gamma                90
_cell_volume                     2200.4
loop_
_atom_site_label
_atom_site_type_symbol
_atom_site_fract_x
_atom_site_fract_y
_atom_site_fract_z
Ag1 Ag 0.33745(5) 0.20051(9) 0.05218(6)
N1 N 0.2716(5) -0.3120(9) 0.1669(5)
O1 O 0.4591(4) 0.2641(10) -0.0321(5)
N2 N 0.3140(4) -0.0315(10) 0.1074(5)
C1 C 0.3381(5) -0.1629(13) 0.0746(6)
H1 H 0.3698(5) -0.1601(13) 0.0296(6)
C2 C 0.3169(6) -0.3010(11) 0.1062(7)
C3 C 0.4825(7) 0.2938(12) -0.2119(7)
H2 H 0.4712(7) 0.3868(12) -0.1860(7)
O2 O 0.3682(4) 0.0890(11) -0.0848(5)
C4 C 0.2688(5) -0.0440(13) 0.1690(6)
H3 H 0.2490(5) 0.0441(13) 0.1929(6)
C5 C 0.2505(6) -0.1842(12) 0.1984(7)
H4 H 0.2204(6) -0.1884(12) 0.2448(7)
C6 C 0.4641(5) 0.1590(13) -0.1742(6)
C7 C 0.4270(5) 0.1705(13) -0.0913(7)
C8 C 0.4656(7) -0.1246(14) -0.1755(7)
H5 H 0.4411(7) -0.1278(14) -0.1246(7)
C9 C 0.4814(6) 0.0148(12) -0.2111(6)
O3 O 0.3087(5) -0.5717(10) 0.0867(5)
N3 N 0.4025(5) -0.4438(11) 0.0223(5)
H6 H 0.414(3) -0.5347(11) 0.010(4)
H7 H 0.3848(19) -0.395(7) -0.027(3)
C10 C 0.3427(5) -0.4458(14) 0.0715(6)
C11 C 0.4835(10) -0.247(2) -0.2099(9)
H8 H 0.4749(10) -0.340(2) -0.1825(9)
O1A O 0.5409(4) 0.2641(10) -0.4679(5)
C3A C 0.5175(7) 0.2938(12) -0.2881(7)
H2A H 0.5288(7) 0.3868(12) -0.3140(7)
O2A O 0.6318(4) 0.0890(11) -0.4152(5)
C6A C 0.5359(5) 0.1590(13) -0.3258(6)
C7A C 0.5730(5) 0.1705(13) -0.4087(7)
C8A C 0.5344(7) -0.1246(14) -0.3245(7)
H5A H 0.5589(7) -0.1278(14) -0.3754(7)
C9A C 0.5186(6) 0.0148(12) -0.2889(6)
C11A C 0.5165(10) -0.247(2) -0.2901(9)
H8A H 0.5251(10) -0.340(2) -0.3175(9)
Ag1A Ag 0.66255(5) 0.20051(9) -0.55218(6)
N1A N 0.7284(5) -0.3120(9) -0.6669(5)
N2A N 0.6860(4) -0.0315(10) -0.6074(5)
C1A C 0.6619(5) -0.1629(13) -0.5746(6)
H1A H 0.6302(5) -0.1601(13) -0.5296(6)
C2A C 0.6831(6) -0.3010(11) -0.6062(7)
C4A C 0.7312(5) -0.0440(13) -0.6690(6)
H3A H 0.7510(5) 0.0441(13) -0.6929(6)
C5A C 0.7495(6) -0.1842(12) -0.6984(7)
H4A H 0.7796(6) -0.1884(12) -0.7448(7)
O3A O 0.6913(5) -0.5717(10) -0.5867(5)
N3A N 0.5975(5) -0.4438(11) -0.5223(5)
H6A H 0.586(3) -0.5347(11) -0.510(4)
H7A H 0.6152(19) -0.395(7) -0.473(3)
C10A C 0.6573(5) -0.4458(14) -0.5715(6)
Ag1_2 Ag 0.33745(5) -0.79949(9) 0.05218(6)
Ag1A_2 Ag 0.66255(5) -0.79949(9) -0.55218(6)
O3_2 O 0.3087(5) 0.4283(10) 0.0867(5)
O3A_2 O 0.6913(5) 0.4283(10) -0.5867(5)
loop_
_geom_bond_atom_site_label_1
_geom_bond_atom_site_label_2
_geom_bond_site_symmetry_1
_geom_bond_site_symmetry_2
Ag1 O1 1_555 1_555
N1 C2 1_555 1_555
O1 C7 1_555 1_555
N2 Ag1 1_555 1_555
C1 N2 1_555 1_555
H1 C1 1_555 1_555
C2 C1 1_555 1_555
C3 H2 1_555 1_555
O2 Ag1 1_555 1_555
C4 N2 1_555 1_555
H3 C4 1_555 1_555
C5 N1 1_555 1_555
H4 C5 1_555 1_555
C6 C3 1_555 1_555
C7 O2 1_555 1_555
C8 H5 1_555 1_555
C9 C6 1_555 1_555
O3 C10 1_555 1_555
N3 H6 1_555 1_555
H7 N3 1_555 1_555
C10 C2 1_555 1_555
C11 C8 1_555 1_555
H8 C11 1_555 1_555
O1A C7A 1_555 1_555
C3A C3 1_555 1_555
H2A C3A 1_555 1_555
O2A C7A 1_555 1_555
C6A C3A 1_555 1_555
C7A C6A 1_555 1_555
C8A H5A 1_555 1_555
C9A C9 1_555 1_555
C11A C11 1_555 1_555
H8A C11A 1_555 1_555
Ag1A O1A 1_555 1_555
N1A C2A 1_555 1_555
N2A Ag1A 1_555 1_555
C1A N2A 1_555 1_555
H1A C1A 1_555 1_555
C2A C1A 1_555 1_555
C4A N2A 1_555 1_555
H3A C4A 1_555 1_555
C5A N1A 1_555 1_555
H4A C5A 1_555 1_555
O3A C10A 1_555 1_555
N3A H6A 1_555 1_555
H7A N3A 1_555 1_555
C10A C2A 1_555 1_555
Ag1_2 O3 1_555 1_555
Ag1A_2 O3A 1_555 1_555
O3_2 Ag1 1_555 1_555
O3A_2 Ag1A 1_555 1_555
C4 C5 1_555 1_555
C6 C7 1_555 1_555
C8 C9 1_555 1_555
N3 C10 1_555 1_555
O2A Ag1A 1_555 1_555
C6A C9A 1_555 1_555
C8A C9A 1_555 1_555
C8A C11A 1_555 1_555
C4A C5A 1_555 1_555
N3A C10A 1_555 1_555

#END
