
#######################################################################
#
#                 Cambridge Crystallographic Data Centre
#                                CCDC 
#
#######################################################################
#
# If this CIF has been generated from an entry in the Cambridge 
# Structural Database, then it will include bibliographic, chemical, 
# crystal, experimental, refinement or atomic coordinate data resulting 
# from the CCDC's data processing and validation procedures.
#
#######################################################################

data_VOYTOU
_symmetry_cell_setting           monoclinic
_symmetry_space_group_name_H-M   'P 21/c'
_symmetry_Int_Tables_number      14
_space_group_name_Hall           '-P 2ybc'
loop_
_symmetry_equiv_pos_site_id
_symmetry_equiv_pos_as_xyz
1 x,y,z
2 -x,1/2+y,1/2-z
3 -x,-y,-z
4 x,1/2-y,1/2+z
_cell_length_a                   10.7724(10)
_cell_length_b                   11.2816(12)
_cell_length_c                   20.8502(15)
_cell_angle_alpha                90
_cell_angle_beta                 100.43288
_cell_angle_gamma                90
_cell_volume                     2492.03
loop_
_atom_site_label
_atom_site_type_symbol
_atom_site_fract_x
_atom_site_fract_y
_atom_site_fract_z
Ag1 Ag 0.26823(4) 0.70217(3) 0.80011(2)
Ag2 Ag 0.07628(5) 0.70591(3) 0.68664(3)
O1 O 0.2374(4) 0.8908(3) 0.7791(2)
O2 O 0.1237(4) 0.8947(3) 0.6790(2)
C1 C 0.3091(5) 1.2642(5) 0.7620(2)
N1 N 0.4749(5) 0.6866(4) 0.8633(2)
C2 C 0.5333(5) 1.2602(5) 0.8121(3)
H1 H 0.6086(5) 1.3008(5) 0.8305(3)
C3 C 0.0906(5) 1.2672(5) 0.7062(3)
H2 H 0.0165(5) 1.3098(5) 0.6878(3)
C4 C 0.5331(5) 1.1365(5) 0.8076(3)
H3 H 0.6087(5) 1.0939(5) 0.8231(3)
C5 C 0.1975(5) 1.0777(4) 0.7279(3)
C6 C 0.0929(5) 1.1421(4) 0.7021(3)
H4 H 0.0196(5) 1.1017(4) 0.6808(3)
C7 C 0.4253(5) 1.0752(5) 0.7810(3)
H5 H 0.4273(5) 0.9912(5) 0.7783(3)
C8 C 0.5665(6) 0.7704(5) 0.8716(3)
H6 H 0.5505(6) 0.8443(5) 0.8498(3)
N2 N -0.3525(4) 0.5780(4) 0.5562(2)
N3 N 0.7115(4) 0.6510(4) 0.9439(2)
C9 C 0.6195(4) 0.5686(5) 0.9360(2)
C10 C 0.4247(5) 1.3233(5) 0.7898(3)
H7 H 0.4261(5) 1.4073(5) 0.7929(3)
C11 C 0.1969(5) 1.3271(5) 0.7371(2)
C12 C -0.2093(5) 0.7269(5) 0.6052(3)
H8 H -0.1948(5) 0.8088(5) 0.6142(3)
C13 C -0.3281(5) 0.6921(4) 0.5717(3)
H9 H -0.3922(5) 0.7499(4) 0.5598(3)
C14 C 0.3097(5) 1.1377(4) 0.7574(2)
C15 C -0.2568(5) 0.5011(4) 0.5769(2)
C16 C 0.1889(4) 1.4605(5) 0.7431(2)
C17 C -0.1430(4) 0.5364(4) 0.6110(2)
H10 H -0.0802(4) 0.4783(4) 0.6253(2)
C18 C 0.1874(4) 0.9442(4) 0.7280(3)
C19 C 0.5052(5) 0.5848(5) 0.8956(3)
H11 H 0.4456(5) 0.5219(5) 0.8903(3)
C20 C 0.6824(5) 0.7512(5) 0.9107(3)
H12 H 0.7442(5) 0.8121(5) 0.9141(3)
O3 O -0.2041(4) 0.2959(3) 0.5829(2)
O4 O 0.2297(4) 1.5073(3) 0.79749(19)
O5 O 0.5611(3) 0.3783(3) 0.9656(2)
O6 O 0.1404(4) 1.5149(3) 0.6920(2)
C21 C -0.2802(4) 0.3718(4) 0.5595(3)
N4 N -0.3863(4) 0.3502(4) 0.5178(2)
H13 H -0.4367(4) 0.4090(4) 0.5025(2)
H14 H -0.4062(4) 0.2770(4) 0.5054(2)
N5 N 0.7485(4) 0.4502(4) 1.0195(2)
H15 H 0.775(2) 0.3777(7) 1.0232(16)
H16 H 0.8063(14) 0.494(3) 1.0078(11)
C22 C 0.6419(5) 0.4564(5) 0.9745(3)
N6 N -0.1163(4) 0.6519(4) 0.6251(2)
Ag1_2 Ag 0.26823(4) 1.70217(3) 0.80011(2)
Ag2_2 Ag 0.07628(5) 1.70591(3) 0.68664(3)
O4_2 O 0.2297(4) 0.5073(3) 0.79749(19)
O6_2 O 0.1404(4) 0.5149(3) 0.6920(2)
O7 O -0.0164(3) 0.9202(4) 0.5498(2)
H17 H -0.0114(3) 0.8539(4) 0.5311(2)
H18 H 0.0244(3) 0.9153(4) 0.5887(2)
O8 O 0.0046(6) 0.6987(5) 0.4925(3)
H19 H 0.0646(6) 0.7034(5) 0.4712(3)
H20 H -0.0405(6) 0.6390(5) 0.4787(3)
O9 O -0.1409(9) 0.4954(7) 0.4419(4)
H21 H -0.0998(9) 0.4369(7) 0.4607(4)
H22 H -0.1397(9) 0.4914(7) 0.4013(4)
loop_
_geom_bond_atom_site_label_1
_geom_bond_atom_site_label_2
_geom_bond_site_symmetry_1
_geom_bond_site_symmetry_2
Ag1 Ag2 1_555 1_555
Ag2 O2 1_555 1_555
O1 Ag1 1_555 1_555
O2 C18 1_555 1_555
C1 C10 1_555 1_555
N1 Ag1 1_555 1_555
C2 H1 1_555 1_555
C3 H2 1_555 1_555
C4 C2 1_555 1_555
H3 C4 1_555 1_555
C5 C6 1_555 1_555
C6 C3 1_555 1_555
H4 C6 1_555 1_555
C7 C4 1_555 1_555
H5 C7 1_555 1_555
C8 N1 1_555 1_555
H6 C8 1_555 1_555
N2 C13 1_555 1_555
N3 C9 1_555 1_555
C9 C19 1_555 1_555
C10 C2 1_555 1_555
H7 C10 1_555 1_555
C11 C1 1_555 1_555
C12 H8 1_555 1_555
C13 C12 1_555 1_555
H9 C13 1_555 1_555
C14 C1 1_555 1_555
C15 N2 1_555 1_555
C16 C11 1_555 1_555
C17 C15 1_555 1_555
H10 C17 1_555 1_555
C18 O1 1_555 1_555
C19 N1 1_555 1_555
H11 C19 1_555 1_555
C20 C8 1_555 1_555
H12 C20 1_555 1_555
O3 C21 1_555 1_555
O4 C16 1_555 1_555
O5 C22 1_555 1_555
O6 C16 1_555 1_555
C21 C15 1_555 1_555
N4 C21 1_555 1_555
H13 N4 1_555 1_555
H14 N4 1_555 1_555
N5 H15 1_555 1_555
H16 N5 1_555 1_555
C22 C9 1_555 1_555
N6 Ag2 1_555 1_555
O7 H17 1_555 1_555
H18 O7 1_555 1_555
O8 H19 1_555 1_555
H20 O8 1_555 1_555
O9 H21 1_555 1_555
H22 O9 1_555 1_555
Ag1_2 O4 1_555 1_555
Ag2_2 O6 1_555 1_555
O4_2 Ag1 1_555 1_555
O6_2 Ag2 1_555 1_555
C3 C11 1_555 1_555
C5 C14 1_555 1_555
C5 C18 1_555 1_555
C7 C14 1_555 1_555
N3 C20 1_555 1_555
C12 N6 1_555 1_555
C17 N6 1_555 1_555
N5 C22 1_555 1_555
Ag1_2 Ag2_2 1_555 1_555

#END
