
#######################################################################
#
#                 Cambridge Crystallographic Data Centre
#                                CCDC 
#
#######################################################################
#
# If this CIF has been generated from an entry in the Cambridge 
# Structural Database, then it will include bibliographic, chemical, 
# crystal, experimental, refinement or atomic coordinate data resulting 
# from the CCDC's data processing and validation procedures.
#
#######################################################################

data_VOYTEK
_symmetry_cell_setting           triclinic
_symmetry_space_group_name_H-M   'P -1'
_symmetry_Int_Tables_number      2
_space_group_name_Hall           '-P 1'
loop_
_symmetry_equiv_pos_site_id
_symmetry_equiv_pos_as_xyz
1 x,y,z
2 -x,-y,-z
_cell_length_a                   8.0555(14)
_cell_length_b                   8.5968(15)
_cell_length_c                   10.556(5)
_cell_angle_alpha                96.231(3)
_cell_angle_beta                 94.463(4)
_cell_angle_gamma                99.993(4)
_cell_volume                     712.18
loop_
_atom_site_label
_atom_site_type_symbol
_atom_site_fract_x
_atom_site_fract_y
_atom_site_fract_z
Ag1 Ag 0.01399(5) 0.32044(5) 0.06890(3)
Ag2 Ag -0.04837(5) 0.17591(5) 0.55599(4)
O1 O 0.0628(5) 0.2402(5) 0.3385(3)
C1 C 0.2098(5) 0.4632(6) 0.4832(4)
O2 O 0.1646(4) 0.4632(5) 0.2601(3)
N1 N -0.4078(5) -0.1995(5) -0.0268(4)
C2 C 0.3824(6) 0.6776(7) 0.6220(5)
H1 H 0.4617(6) 0.7749(7) 0.6348(5)
C3 C 0.3220(6) 0.6067(6) 0.4998(5)
H2 H 0.3572(6) 0.6560(6) 0.4276(5)
C4 C -0.1947(6) 0.0036(6) -0.0813(5)
H3 H -0.1293(6) 0.0443(6) -0.1455(5)
C5 C -0.3102(6) -0.1376(6) -0.1108(5)
H4 H -0.3199(6) -0.1924(6) -0.1950(5)
C6 C -0.2656(6) 0.0184(6) 0.1250(5)
H5 H -0.2492(6) 0.0677(6) 0.2112(5)
N2 N 0.1547(4) 0.3920(5) 0.5852(4)
N3 N -0.1739(5) 0.0838(5) 0.0369(4)
C7 C 0.1389(6) 0.3805(6) 0.3502(4)
C8 C 0.3258(6) 0.6050(6) 0.7269(5)
H6 H 0.3638(6) 0.6525(6) 0.8120(5)
C9 C -0.3843(6) -0.1207(6) 0.0909(5)
C10 C 0.2122(5) 0.4615(6) 0.7030(4)
O3 O 0.1730(4) 0.4645(5) 0.9243(3)
O4 O 0.0666(5) 0.2411(5) 0.7949(3)
O5 O -0.2642(5) -0.0133(5) 0.5479(4)
H7 H -0.2310(11) -0.098(2) 0.572(5)
H8 H -0.313(4) -0.035(5) 0.4699(12)
C11 C 0.1424(6) 0.3809(7) 0.8165(5)
N4 N -0.6028(5) -0.3226(6) 0.1451(4)
O6 O -0.4825(4) -0.1190(5) 0.2986(3)
C12 C -0.4949(6) -0.1891(6) 0.1887(4)
Ag1_2 Ag 0.01399(5) 0.32044(5) 1.06890(3)
Ag1A Ag -0.01399(5) 0.67956(5) 0.93110(3)
O3_2 O 0.1730(4) 0.4645(5) -0.0757(3)
O3A O -0.1730(4) 0.5355(5) 0.0757(3)
loop_
_geom_bond_atom_site_label_1
_geom_bond_atom_site_label_2
_geom_bond_site_symmetry_1
_geom_bond_site_symmetry_2
Ag1 O2 1_555 1_555
Ag2 O1 1_555 1_555
O1 C7 1_555 1_555
C1 C3 1_555 1_555
O2 C7 1_555 1_555
N1 C5 1_555 1_555
C2 H1 1_555 1_555
C3 C2 1_555 1_555
H2 C3 1_555 1_555
C4 H3 1_555 1_555
C5 C4 1_555 1_555
H4 C5 1_555 1_555
C6 H5 1_555 1_555
N2 Ag2 1_555 1_555
N3 Ag1 1_555 1_555
C7 C1 1_555 1_555
C8 C2 1_555 1_555
H6 C8 1_555 1_555
C9 N1 1_555 1_555
C10 N2 1_555 1_555
O3 C11 1_555 1_555
O4 Ag2 1_555 1_555
O5 Ag2 1_555 1_555
H7 O5 1_555 1_555
H8 O5 1_555 1_555
C11 C10 1_555 1_555
N4 C12 1_555 1_555
O6 C12 1_555 1_555
C12 C9 1_555 1_555
Ag1_2 O3 1_555 1_555
Ag1A O3 1_555 1_555
O3_2 Ag1 1_555 1_555
O3A Ag1 1_555 1_555
C1 N2 1_555 1_555
C4 N3 1_555 1_555
C6 N3 1_555 1_555
C6 C9 1_555 1_555
C8 C10 1_555 1_555
O4 C11 1_555 1_555

#END
