
#######################################################################
#
#                 Cambridge Crystallographic Data Centre
#                                CCDC 
#
#######################################################################
#
# If this CIF has been generated from an entry in the Cambridge 
# Structural Database, then it will include bibliographic, chemical, 
# crystal, experimental, refinement or atomic coordinate data resulting 
# from the CCDC's data processing and validation procedures.
#
#######################################################################

data_VOYVOW
_symmetry_cell_setting           orthorhombic
_symmetry_space_group_name_H-M   'P b n a'
_symmetry_Int_Tables_number      60
_space_group_name_Hall           '-P 2ac 2b'
loop_
_symmetry_equiv_pos_site_id
_symmetry_equiv_pos_as_xyz
1 x,y,z
2 x,1/2-y,-z
3 1/2-x,1/2+y,1/2-z
4 1/2-x,-y,1/2+z
5 -x,-y,-z
6 -x,1/2+y,z
7 1/2+x,1/2-y,1/2+z
8 1/2+x,y,1/2-z
_cell_length_a                   9.684(1)
_cell_length_b                   16.7115(12)
_cell_length_c                   20.5114(15)
_cell_angle_alpha                90
_cell_angle_beta                 90
_cell_angle_gamma                90
_cell_volume                     3319.45
loop_
_atom_site_label
_atom_site_type_symbol
_atom_site_fract_x
_atom_site_fract_y
_atom_site_fract_z
Ag1 Ag 0.66891(3) 0.555580(17) 0.503958(13)
Ag2 Ag 0.38438(3) 0.678562(15) 0.457984(13)
O1 O 0.3524(3) 0.50582(15) 0.60368(11)
N1 N 0.6005(4) 0.4166(2) 0.72130(16)
N2 N 0.8795(3) 0.61460(18) 0.50109(13)
C1 C 0.7003(4) 0.5438(3) 0.76014(17)
H1 H 0.7485(4) 0.5146(3) 0.79269(17)
O2 O 0.4348(3) 0.73712(15) 0.62377(12)
N3 N 1.1505(3) 0.65215(18) 0.47316(14)
C2 C 1.0494(3) 0.67457(19) 0.43231(16)
C3 C 0.5529(3) 0.5439(2) 0.66345(15)
C4 C 0.6365(4) 0.6679(2) 0.71010(17)
H2 H 0.6382(4) 0.7248(2) 0.71017(17)
C5 C 0.7937(4) 0.6861(3) 0.4058(2)
H3 H 0.7892(19) 0.6537(12) 0.3660(7)
H4 H 0.7069(5) 0.6807(16) 0.4300(5)
H5 H 0.8081(16) 0.7423(6) 0.3942(12)
C6 C 1.1160(4) 0.6123(2) 0.52780(17)
H6 H 1.1865(4) 0.5977(2) 0.55768(17)
C7 C 0.6208(4) 0.5047(2) 0.71420(16)
C8 C 0.9807(4) 0.5920(2) 0.54172(16)
C9 C 0.9119(3) 0.6575(2) 0.44769(16)
O3 O 0.5102(3) 0.64997(16) 0.55052(11)
C10 C 0.5622(3) 0.6275(2) 0.66207(15)
O4 O 0.6934(5) 0.3789(2) 0.7461(2)
C11 C 0.4795(4) 0.4992(2) 0.60934(15)
C12 C 0.9424(4) 0.5462(2) 0.60197(17)
H7 H 0.899(3) 0.5824(4) 0.6335(6)
H8 H 0.877(2) 0.5035(11) 0.5905(3)
H9 H 1.0256(6) 0.5226(14) 0.6212(8)
O5 O 0.4921(4) 0.38822(19) 0.70305(17)
C13 C 0.7080(4) 0.6261(3) 0.75778(17)
H10 H 0.7623(4) 0.6543(3) 0.78882(17)
C14 C 1.0895(4) 0.7156(3) 0.37027(18)
H11 H 1.1894(6) 0.7251(15) 0.3701(6)
H12 H 1.065(3) 0.6817(8) 0.33309(19)
H13 H 1.041(2) 0.7668(8) 0.3670(7)
C15 C 0.4958(3) 0.67482(19) 0.60777(15)
O6 O 0.5579(3) 0.45979(14) 0.57145(11)
Ag1D Ag 0.33109(3) 0.444420(17) 0.496042(13)
Ag2_2 Ag 1.38438(3) 0.678562(15) 0.457984(13)
Ag2A Ag 0.38438(3) 0.821438(15) 0.542016(13)
Ag2D Ag 0.61562(3) 0.321438(15) 0.542016(13)
O1D O 0.6476(3) 0.49418(15) 0.39632(11)
O2A O 0.4348(3) 0.76288(15) 0.37623(12)
N3_2 N 0.1505(3) 0.65215(18) 0.47316(14)
O6D O 0.4421(3) 0.54021(14) 0.42855(11)
loop_
_geom_bond_atom_site_label_1
_geom_bond_atom_site_label_2
_geom_bond_site_symmetry_1
_geom_bond_site_symmetry_2
Ag1 N2 1_555 1_555
Ag2 O3 1_555 1_555
O1 C11 1_555 1_555
N1 C7 1_555 1_555
N2 C8 1_555 1_555
C1 H1 1_555 1_555
O2 C15 1_555 1_555
N3 C2 1_555 1_555
C2 C9 1_555 1_555
C3 C7 1_555 1_555
C4 H2 1_555 1_555
C5 H3 1_555 1_555
H4 C5 1_555 1_555
H5 C5 1_555 1_555
C6 N3 1_555 1_555
H6 C6 1_555 1_555
C7 C1 1_555 1_555
C8 C6 1_555 1_555
C9 N2 1_555 1_555
O3 Ag1 1_555 1_555
C10 C3 1_555 1_555
O4 N1 1_555 1_555
C11 C3 1_555 1_555
C12 C8 1_555 1_555
H7 C12 1_555 1_555
H8 C12 1_555 1_555
H9 C12 1_555 1_555
O5 N1 1_555 1_555
C13 C1 1_555 1_555
H10 C13 1_555 1_555
C14 C2 1_555 1_555
H11 C14 1_555 1_555
H12 C14 1_555 1_555
H13 C14 1_555 1_555
C15 O3 1_555 1_555
O6 Ag1 1_555 1_555
Ag1D O1 1_555 1_555
Ag2_2 N3 1_555 1_555
Ag2A O2 1_555 1_555
Ag2D O6 1_555 1_555
O1D Ag1 1_555 1_555
O2A Ag2 1_555 1_555
N3_2 Ag2 1_555 1_555
O6D Ag1 1_555 1_555
Ag2 O6D 1_555 1_555
C4 C10 1_555 1_555
C4 C13 1_555 1_555
C5 C9 1_555 1_555
C10 C15 1_555 1_555
C11 O6 1_555 1_555
O6 Ag1D 1_555 1_555
Ag1D O6D 1_555 1_555

#END
