
#######################################################################
#
#                 Cambridge Crystallographic Data Centre
#                                CCDC 
#
#######################################################################
#
# If this CIF has been generated from an entry in the Cambridge 
# Structural Database, then it will include bibliographic, chemical, 
# crystal, experimental, refinement or atomic coordinate data resulting 
# from the CCDC's data processing and validation procedures.
#
#######################################################################

data_VOYVEM
_symmetry_cell_setting           monoclinic
_symmetry_space_group_name_H-M   'P 21/c'
_symmetry_Int_Tables_number      14
_space_group_name_Hall           '-P 2ybc'
loop_
_symmetry_equiv_pos_site_id
_symmetry_equiv_pos_as_xyz
1 x,y,z
2 -x,1/2+y,1/2-z
3 -x,-y,-z
4 x,1/2-y,1/2+z
_cell_length_a                   14.4520(4)
_cell_length_b                   10.8563(2)
_cell_length_c                   20.8311(6)
_cell_angle_alpha                90
_cell_angle_beta                 102.365(1)
_cell_angle_gamma                90
_cell_volume                     3192.49
loop_
_atom_site_label
_atom_site_type_symbol
_atom_site_fract_x
_atom_site_fract_y
_atom_site_fract_z
Ag1 Ag 1.03383(3) 0.04991(4) 0.68054(2)
Ag2 Ag 1.12364(3) 0.20034(4) 0.60285(2)
Ag3 Ag 1.07847(3) -0.04916(4) 0.54695(2)
Ag4 Ag 0.97519(3) 0.15104(4) 0.94732(2)
Ag5 Ag 0.96692(3) 0.04798(4) 0.82203(2)
Ag6 Ag 1.12926(3) -0.19697(4) 0.78837(2)
N1 N 1.2751(3) -0.2771(4) 0.8282(2)
N2 N 1.4543(3) -0.3803(5) 0.8728(2)
C1 C 1.3761(5) -0.4501(5) 0.8574(3)
H1 H 1.3821(5) -0.5369(5) 0.8626(3)
C2 C 1.2865(4) -0.3999(5) 0.8341(3)
H2 H 1.2331(4) -0.4526(5) 0.8223(3)
C3 C 1.3527(4) -0.2082(5) 0.8457(2)
H3 H 1.3467(4) -0.1210(5) 0.8438(2)
C4 C 1.4415(4) -0.2591(5) 0.8665(3)
O1 O 1.0952(3) -0.3639(3) 0.87695(17)
O2 O 1.1683(3) -0.0498(3) 0.70476(18)
O3 O 1.0278(3) -0.2625(4) 0.94817(18)
O4 O 0.9660(3) -0.1326(3) 0.59177(17)
O5 O 1.1525(3) -0.2472(3) 0.60424(18)
O6 O 1.0962(3) -0.0458(4) 0.87778(18)
O7 O 0.9848(3) -0.2683(4) 0.73226(18)
O8 O 1.1857(3) -0.3979(4) 0.67796(19)
O9 O 0.9245(3) -0.0782(3) 0.72546(18)
O10 O 0.8469(3) -0.0803(4) 0.50697(17)
O11 O 1.1059(3) 0.0423(4) 0.97627(18)
O12 O 1.1991(3) 0.3924(4) 0.5989(2)
H4 H 1.2616(4) 0.3834(7) 0.607(2)
H5 H 1.185(3) 0.4426(16) 0.6290(17)
O13 O 1.2427(3) 0.0692(4) 0.6441(2)
C5 C 1.2358(4) -0.0258(5) 0.6768(2)
C6 C 1.3007(4) -0.2437(5) 0.6778(2)
C7 C 1.3163(4) -0.1161(5) 0.6854(2)
O14 O 1.5165(3) -0.0637(4) 0.8806(3)
C8 C 1.2682(4) -0.3301(5) 0.9853(2)
H6 H 1.2586(4) -0.4164(5) 0.9797(2)
C9 C 1.1948(4) -0.2481(5) 0.9601(2)
C10 C 0.8115(4) -0.1958(5) 0.5951(3)
C11 C 1.2052(4) -0.2985(5) 0.6522(3)
N3 N 1.6111(4) -0.2333(5) 0.8868(3)
C12 C 1.2981(4) -0.0784(5) 1.0010(3)
H7 H 1.3086(4) 0.0078(5) 1.0060(3)
C13 C 1.1317(4) -0.0344(5) 0.9379(2)
C14 C 1.3784(4) -0.3228(5) 0.6900(3)
H8 H 1.3689(4) -0.4092(5) 0.6853(3)
C15 C 1.0985(4) -0.2946(5) 0.9255(2)
C16 C 0.8340(4) -0.2325(5) 0.6612(3)
C17 C 0.7234(4) -0.2292(6) 0.5567(3)
H9 H 0.7065(4) -0.2029(6) 0.5122(3)
C18 C 1.2099(4) -0.1226(5) 0.9679(2)
C19 C 1.3703(4) -0.1602(5) 1.0266(3)
H10 H 1.4301(4) -0.1303(5) 1.0496(3)
C20 C 1.3549(4) -0.2850(5) 1.0185(3)
H11 H 1.4045(4) -0.3409(5) 1.0359(3)
C21 C 1.5280(4) -0.1754(6) 0.8798(3)
C22 C 0.7701(4) -0.3037(5) 0.6861(3)
H12 H 0.7855(4) -0.3288(5) 0.7308(3)
C23 C 1.4692(4) -0.2763(6) 0.7089(3)
H13 H 1.5217(4) -0.3310(6) 0.7164(3)
C24 C 0.8792(4) -0.1300(5) 0.5626(2)
C25 C 0.6605(4) -0.2998(6) 0.5823(3)
H14 H 0.6009(4) -0.3216(6) 0.5555(3)
C26 C 1.4841(4) -0.1520(6) 0.7168(3)
H15 H 1.5467(4) -0.1211(6) 0.7310(3)
C27 C 0.6845(4) -0.3387(5) 0.6469(3)
H16 H 0.6423(4) -0.3893(5) 0.6644(3)
C28 C 1.4077(4) -0.0711(6) 0.7041(3)
H17 H 1.4183(4) 0.0152(6) 0.7083(3)
C29 C 0.9219(4) -0.1885(5) 0.7089(2)
Ag1A Ag 0.96617(3) -0.45009(4) 0.81946(2)
Ag2A Ag 0.87636(3) -0.29966(4) 0.89715(2)
Ag3B Ag 0.92153(3) 0.04916(4) 0.45305(2)
Ag4A Ag 1.02481(3) -0.34896(4) 0.55268(2)
Ag4B Ag 1.02481(3) -0.15104(4) 1.05268(2)
Ag5A Ag 1.03308(3) -0.45202(4) 0.67797(2)
O1A O 0.9048(3) 0.1361(3) 0.62305(17)
O3A O 0.9722(3) 0.2375(4) 0.55183(18)
O3B O 0.9722(3) 0.2625(4) 1.05183(18)
O4A O 1.0340(3) 0.3674(3) 0.90823(17)
O5A O 0.8475(3) 0.2528(3) 0.89576(18)
O7A O 1.0152(3) 0.2317(4) 0.76774(18)
O8A O 0.8143(3) 0.1021(4) 0.82204(19)
O10B O 1.1531(3) 0.0803(4) 0.49303(17)
loop_
_geom_bond_atom_site_label_1
_geom_bond_atom_site_label_2
_geom_bond_site_symmetry_1
_geom_bond_site_symmetry_2
Ag1 O2 1_555 1_555
Ag2 O12 1_555 1_555
Ag3 O4 1_555 1_555
Ag4 O11 1_555 1_555
Ag5 O6 1_555 1_555
Ag6 N1 1_555 1_555
N1 C2 1_555 1_555
N2 C1 1_555 1_555
C1 H1 1_555 1_555
C2 C1 1_555 1_555
H2 C2 1_555 1_555
C3 N1 1_555 1_555
H3 C3 1_555 1_555
C4 N2 1_555 1_555
O1 Ag6 1_555 1_555
O2 Ag6 1_555 1_555
O3 C15 1_555 1_555
O4 C24 1_555 1_555
O5 Ag3 1_555 1_555
O6 Ag6 1_555 1_555
O7 Ag6 1_555 1_555
O8 C11 1_555 1_555
O9 Ag1 1_555 1_555
O10 C24 1_555 1_555
O11 C13 1_555 1_555
O12 H4 1_555 1_555
H5 O12 1_555 1_555
O13 Ag2 1_555 1_555
C5 O2 1_555 1_555
C6 C7 1_555 1_555
C7 C5 1_555 1_555
O14 C21 1_555 1_555
C8 H6 1_555 1_555
C9 C8 1_555 1_555
C10 C16 1_555 1_555
C11 O5 1_555 1_555
N3 C21 1_555 1_555
C12 H7 1_555 1_555
C13 O6 1_555 1_555
C14 C6 1_555 1_555
H8 C14 1_555 1_555
C15 O1 1_555 1_555
C16 C22 1_555 1_555
C17 C10 1_555 1_555
H9 C17 1_555 1_555
C18 C9 1_555 1_555
C19 C12 1_555 1_555
H10 C19 1_555 1_555
C20 C8 1_555 1_555
H11 C20 1_555 1_555
C21 C4 1_555 1_555
C22 H12 1_555 1_555
C23 C14 1_555 1_555
H13 C23 1_555 1_555
C24 C10 1_555 1_555
C25 C17 1_555 1_555
H14 C25 1_555 1_555
C26 C23 1_555 1_555
H15 C26 1_555 1_555
C27 C22 1_555 1_555
H16 C27 1_555 1_555
C28 C7 1_555 1_555
H17 C28 1_555 1_555
C29 O7 1_555 1_555
Ag1A O1 1_555 1_555
Ag2A O3 1_555 1_555
Ag3B O10 1_555 1_555
Ag4A O4 1_555 1_555
Ag4B O3 1_555 1_555
Ag5A O7 1_555 1_555
O1A Ag1 1_555 1_555
O3A Ag2 1_555 1_555
O3B Ag4 1_555 1_555
O4A Ag4 1_555 1_555
O5A Ag4 1_555 1_555
O7A Ag5 1_555 1_555
O8A Ag5 1_555 1_555
O10B Ag3 1_555 1_555
Ag5 O9 1_555 1_555
C3 C4 1_555 1_555
O5 Ag4A 1_555 1_555
O8 Ag5A 1_555 1_555
O9 C29 1_555 1_555
O13 C5 1_555 1_555
C6 C11 1_555 1_555
C9 C15 1_555 1_555
C12 C18 1_555 1_555
C13 C18 1_555 1_555
C16 C29 1_555 1_555
C19 C20 1_555 1_555
C25 C27 1_555 1_555
C26 C28 1_555 1_555

#END
