
#######################################################################
#
#                 Cambridge Crystallographic Data Centre
#                                CCDC 
#
#######################################################################
#
# If this CIF has been generated from an entry in the Cambridge 
# Structural Database, then it will include bibliographic, chemical, 
# crystal, experimental, refinement or atomic coordinate data resulting 
# from the CCDC's data processing and validation procedures.
#
#######################################################################

data_VOYVIQ
_symmetry_cell_setting           triclinic
_symmetry_space_group_name_H-M   'P -1'
_symmetry_Int_Tables_number      2
_space_group_name_Hall           '-P 1'
loop_
_symmetry_equiv_pos_site_id
_symmetry_equiv_pos_as_xyz
1 x,y,z
2 -x,-y,-z
_cell_length_a                   7.3027(10)
_cell_length_b                   7.9388(12)
_cell_length_c                   14.0823(15)
_cell_angle_alpha                76.054
_cell_angle_beta                 83.4074
_cell_angle_gamma                86.2623
_cell_volume                     786.516
loop_
_atom_site_label
_atom_site_type_symbol
_atom_site_fract_x
_atom_site_fract_y
_atom_site_fract_z
Ag1 Ag 1.34345(10) 0.26845(10) 0.34775(5)
C1 C 0.7544(13) 0.4065(13) 0.2593(7)
C2 C 0.9275(10) 0.2189(11) 0.4120(7)
H1 H 0.9847(10) 0.1495(11) 0.4663(7)
N1 N 1.0297(11) 0.3174(10) 0.3399(6)
C3 C 0.7311(11) 0.2129(12) 0.4113(6)
H2 H 0.6595(11) 0.1428(12) 0.4652(6)
C4 C 0.9489(11) 0.4196(12) 0.2650(8)
C5 C 1.0689(14) 0.5484(14) 0.1894(8)
H3 H 0.9911(14) 0.6490(14) 0.1584(8)
H4 H 1.1619(14) 0.5917(14) 0.2226(8)
C6 C 0.6578(13) 0.5092(14) 0.1739(8)
H5 H 0.733(5) 0.607(6) 0.138(3)
H6 H 0.640(10) 0.434(3) 0.130(3)
H7 H 0.538(5) 0.553(9) 0.1982(9)
C7 C 1.1641(19) 0.4646(18) 0.1120(11)
H8 H 1.076(4) 0.454(12) 0.066(4)
H9 H 1.266(9) 0.536(7) 0.076(5)
H10 H 1.213(12) 0.349(5) 0.1430(12)
N2 N 0.6496(9) 0.3082(10) 0.3330(6)
Ag2 Ag 0.78712(11) 0.44566(10) 0.54898(6)
N3 N 1.5645(11) -0.0255(12) 0.8888(6)
O1 O 1.1188(10) 0.3554(9) 0.5854(5)
O2 O 1.3317(8) 0.1778(8) 0.5305(5)
C8 C 1.0730(14) -0.0481(13) 0.8512(8)
H11 H 0.9632(14) -0.0963(13) 0.8876(8)
C9 C 1.5773(12) 0.1492(12) 0.6795(7)
C10 C 1.3967(12) 0.0813(11) 0.7415(7)
C11 C 1.2311(12) 0.1171(11) 0.6990(6)
C12 C 1.2343(14) -0.0754(13) 0.8936(7)
H12 H 1.2363(14) -0.1384(13) 0.9601(7)
C13 C 1.3979(13) -0.0096(13) 0.8382(7)
O3 O 1.6692(9) 0.0955(10) 0.8638(5)
O4 O 1.5875(10) -0.1546(10) 0.9547(5)
C14 C 1.0676(13) 0.0497(13) 0.7552(7)
H13 H 0.9535(13) 0.0713(13) 0.7272(7)
C15 C 1.2287(12) 0.2243(11) 0.5964(6)
O5 O 1.5812(8) 0.3160(8) 0.6555(5)
O6 O 1.6932(8) 0.0412(8) 0.6539(5)
Ag1_2 Ag 0.34345(10) 0.26845(10) 0.34775(5)
Ag1A Ag 1.65655(10) -0.26845(10) 0.65225(5)
N2_2 N 1.6496(9) 0.3082(10) 0.3330(6)
Ag2_2 Ag 1.78712(11) 0.44566(10) 0.54898(6)
Ag2A Ag 1.21288(11) 0.55434(10) 0.45102(6)
O1A O 0.8812(10) 0.6446(9) 0.4146(5)
O5_2 O 0.5812(8) 0.3160(8) 0.6555(5)
O6A O 1.3068(8) -0.0412(8) 0.3461(5)
loop_
_geom_bond_atom_site_label_1
_geom_bond_atom_site_label_2
_geom_bond_site_symmetry_1
_geom_bond_site_symmetry_2
Ag1 N1 1_555 1_555
C1 C4 1_555 1_555
C2 H1 1_555 1_555
N1 C2 1_555 1_555
C3 C2 1_555 1_555
H2 C3 1_555 1_555
C4 N1 1_555 1_555
C5 C4 1_555 1_555
H3 C5 1_555 1_555
H4 C5 1_555 1_555
C6 C1 1_555 1_555
H5 C6 1_555 1_555
H6 C6 1_555 1_555
H7 C6 1_555 1_555
C7 C5 1_555 1_555
H8 C7 1_555 1_555
H9 C7 1_555 1_555
H10 C7 1_555 1_555
N2 C1 1_555 1_555
Ag2 O1 1_555 1_555
N3 C13 1_555 1_555
O1 C15 1_555 1_555
O2 Ag1 1_555 1_555
C8 H11 1_555 1_555
C9 C10 1_555 1_555
C10 C11 1_555 1_555
C11 C14 1_555 1_555
C12 C8 1_555 1_555
H12 C12 1_555 1_555
C13 C10 1_555 1_555
O3 N3 1_555 1_555
O4 N3 1_555 1_555
C14 C8 1_555 1_555
H13 C14 1_555 1_555
C15 O2 1_555 1_555
O5 C9 1_555 1_555
O6 C9 1_555 1_555
Ag1_2 N2 1_555 1_555
Ag1A O6 1_555 1_555
N2_2 Ag1 1_555 1_555
Ag2_2 O5 1_555 1_555
Ag2A O1 1_555 1_555
O1A Ag2 1_555 1_555
O5_2 Ag2 1_555 1_555
O6A Ag1 1_555 1_555
C3 N2 1_555 1_555
C11 C15 1_555 1_555
C12 C13 1_555 1_555
Ag2A O1A 1_555 1_555

#END
