
#######################################################################
#
#                 Cambridge Crystallographic Data Centre
#                                CCDC 
#
#######################################################################
#
# If this CIF has been generated from an entry in the Cambridge 
# Structural Database, then it will include bibliographic, chemical, 
# crystal, experimental, refinement or atomic coordinate data resulting 
# from the CCDC's data processing and validation procedures.
#
#######################################################################

data_VOYXUE
_symmetry_cell_setting           monoclinic
_symmetry_space_group_name_H-M   'P 21/n'
_symmetry_Int_Tables_number      14
_space_group_name_Hall           '-P 2yn'
loop_
_symmetry_equiv_pos_site_id
_symmetry_equiv_pos_as_xyz
1 x,y,z
2 1/2-x,1/2+y,1/2-z
3 -x,-y,-z
4 1/2+x,1/2-y,1/2+z
_cell_length_a                   24.119(3)
_cell_length_b                   20.492(3)
_cell_length_c                   25.637(3)
_cell_angle_alpha                90
_cell_angle_beta                 110.969(2)
_cell_angle_gamma                90
_cell_volume                     11831.9
loop_
_atom_site_label
_atom_site_type_symbol
_atom_site_fract_x
_atom_site_fract_y
_atom_site_fract_z
Cd1 Cd 0.01493(2) 0.21803(3) 0.21832(3)
Cd2 Cd 0.20929(3) 0.24412(5) 0.30846(4)
Cd3 Cd 0.16100(2) 0.78520(3) 0.47852(2)
Cd4 Cd 0.12750(3) 0.78363(3) 0.31837(2)
Cd5 Cd -0.15737(2) 0.21079(3) 0.18705(2)
Cd6 Cd -0.24343(2) -0.28360(3) 0.17467(2)
O1 O 0.1010(2) 0.2340(3) 0.3001(3)
O2 O 0.1695(2) 0.1857(3) 0.3713(3)
O3 O -0.0600(2) 0.2250(2) 0.2573(2)
O4 O -0.1304(2) 0.2952(2) 0.2557(2)
O5 O -0.0801(2) 0.2086(2) 0.1465(2)
O6 O -0.1504(3) 0.1523(3) 0.0849(3)
O7 O 0.0817(3) 0.2194(3) 0.1746(3)
O8 O 0.1329(4) 0.2915(6) 0.1434(3)
O9 O 0.3153(8) 0.194(3) 0.2999(14)
O10 O 0.3022(4) 0.2172(6) 0.3703(5)
O11 O 0.4193(2) 0.3218(3) 0.2767(2)
O12 O 0.3261(3) 0.3463(6) 0.2309(4)
O13 O 0.2059(2) 0.7875(2) 0.4071(2)
O14 O 0.2187(3) 0.7154(3) 0.3503(3)
O15 O 0.2425(2) 0.7855(2) 0.5626(2)
O16 O 0.3054(2) 0.8451(2) 0.6292(2)
O17 O 0.0854(2) 0.7719(2) 0.3929(2)
O18 O 0.0473(3) 0.8462(3) 0.3286(2)
O19 O 0.1032(2) 0.7809(2) 0.5325(2)
O20 O 0.0945(3) 0.6974(3) 0.5852(2)
O21 O -0.1798(2) 0.1077(2) 0.1893(2)
O22 O -0.1434(2) 0.1227(3) 0.2811(2)
O23 O -0.2492(3) 0.2163(3) 0.2188(2)
O24 O -0.2997(2) 0.1494(3) 0.2529(2)
O25 O 0.1781(4) 0.1635(5) 0.2443(5)
H1 H 0.1886 0.1264 0.2594
H2 H 0.1935 0.1698 0.2196
O26 O 0.2125(4) 0.3193(7) 0.2412(4)
H3 H 0.2295 0.3547 0.2557
H4 H 0.1779 0.3296 0.2191
O27 O -0.3052(2) -0.1995(2) 0.1702(2)
H5 H -0.3163 -0.1982 0.1981
H6 H -0.3366 -0.2017 0.1413
O28 O -0.3272(2) -0.3445(2) 0.1305(2)
H7 H -0.338(3) -0.345(4) 0.159(2)
H8 H -0.353(3) -0.320(4) 0.107(2)
N1 N 0.0138(2) 0.1087(3) 0.2275(3)
N2 N -0.0203(3) -0.0916(3) 0.2046(3)
H9 H 0.0094 -0.1140 0.2012
N3 N -0.1680(3) -0.2091(3) 0.1863(3)
N4 N 0.0047(3) 0.3281(3) 0.2099(3)
N5 N -0.0291(3) 0.5268(3) 0.2168(3)
H10 H -0.0672 0.5363 0.2024
N6 N 0.0769(4) 0.6895(3) 0.2859(3)
N7 N 0.2131(3) 0.3351(4) 0.3621(4)
N8 N 0.2196(3) 0.4803(3) 0.4801(3)
H11 H 0.2381 0.4660 0.5143
N9 N 0.1702(3) 0.6756(3) 0.4793(3)
N10 N -0.2090(3) 0.2806(3) 0.1186(3)
N11 N -0.2944(3) 0.4042(3) -0.0165(3)
H12 H -0.3052 0.3845 -0.0491
N12 N -0.3349(3) 0.6037(3) -0.0240(3)
C1 C 0.1157(4) 0.1990(5) 0.3434(4)
C2 C -0.1275(3) -0.1025(4) 0.1876(3)
H13 H -0.1345 -0.0568 0.1834
C3 C 0.0695(3) 0.1712(4) 0.3620(3)
C4 C 0.0723(4) 0.1046(4) 0.3749(4)
H14 H 0.1042 0.0795 0.3721
C5 C 0.0307(4) 0.0743(5) 0.3913(4)
H15 H 0.0338 0.0291 0.4001
C6 C -0.0158(4) 0.1107(4) 0.3949(4)
H16 H -0.0456 0.0902 0.4053
C7 C -0.0195(4) 0.1758(4) 0.3835(3)
H17 H -0.0514 0.2001 0.3873
C8 C 0.0222(4) 0.2080(4) 0.3665(3)
C9 C 0.0182(3) 0.2804(4) 0.3605(3)
C10 C -0.0326(3) 0.3119(4) 0.3225(3)
C11 C -0.0388(3) 0.3787(4) 0.3251(3)
H18 H -0.0733 0.3997 0.3002
C12 C 0.0054(4) 0.4153(4) 0.3641(4)
H19 H 0.0004 0.4611 0.3662
C13 C 0.0560(4) 0.3865(4) 0.3995(4)
H20 H 0.0867 0.4121 0.4250
C14 C 0.0619(4) 0.3197(5) 0.3975(4)
H21 H 0.0969 0.2997 0.4224
C15 C -0.0772(3) 0.2747(3) 0.2766(3)
C16 C -0.0974(4) 0.1699(4) 0.1057(3)
C17 C -0.0533(4) 0.1408(4) 0.0838(3)
C18 C -0.0112(4) 0.1795(4) 0.0723(4)
C19 C 0.0316(5) 0.1480(5) 0.0574(4)
H22 H 0.0604 0.1735 0.0493
C20 C 0.0341(4) 0.0829(5) 0.0540(4)
H23 H 0.0655 0.0633 0.0453
C21 C -0.0079(5) 0.0440(5) 0.0630(4)
H24 H -0.0074 -0.0019 0.0585
C22 C -0.0518(4) 0.0740(4) 0.0790(3)
H25 H -0.0806 0.0480 0.0866
C23 C -0.0159(5) 0.2526(5) 0.0701(4)
C24 C 0.0307(5) 0.2909(6) 0.0973(5)
C25 C 0.0277(7) 0.3600(7) 0.0889(6)
H26 H 0.0606 0.3876 0.1073
C26 C -0.0245(9) 0.3843(7) 0.0533(7)
H27 H -0.0274 0.4301 0.0476
C27 C -0.0742(8) 0.3465(7) 0.0246(7)
H28 H -0.1098 0.3659 0.0002
C28 C -0.0697(6) 0.2805(5) 0.0328(5)
H29 H -0.1025 0.2531 0.0136
C29 C 0.0854(5) 0.2674(7) 0.1401(5)
C30 C 0.0474(3) 0.0684(4) 0.2097(4)
H30 H 0.0798 0.0862 0.2015
C31 C 0.0367(3) 0.0030(4) 0.2029(4)
H31 H 0.0614 -0.0234 0.1899
C32 C -0.0096(3) -0.0258(4) 0.2148(3)
C33 C -0.0416(3) 0.0153(4) 0.2369(3)
H32 H -0.0725 -0.0018 0.2477
C34 C -0.0285(3) 0.0805(3) 0.2430(3)
H33 H -0.0503 0.1073 0.2591
C35 C -0.0704(3) -0.1273(4) 0.1990(3)
C36 C -0.0653(3) -0.1956(4) 0.2008(3)
H34 H -0.0281 -0.2156 0.2062
C37 C -0.1137(4) -0.2333(4) 0.1950(4)
H35 H -0.1087 -0.2794 0.1971
C38 C -0.1735(3) -0.1446(4) 0.1827(3)
H36 H -0.2116 -0.1264 0.1762
C39 C 0.0472(4) 0.3684(4) 0.2416(4)
H37 H 0.0844 0.3502 0.2640
C40 C 0.0397(4) 0.4343(4) 0.2433(4)
H38 H 0.0716 0.4611 0.2654
C41 C -0.0147(4) 0.4618(4) 0.2127(4)
C42 C -0.0576(4) 0.4215(4) 0.1796(3)
H39 H -0.0951 0.4386 0.1568
C43 C -0.0464(3) 0.3558(4) 0.1794(3)
H40 H -0.0771 0.3285 0.1560
C44 C 0.0081(4) 0.5784(4) 0.2404(4)
C45 C 0.0649(5) 0.5843(4) 0.2427(5)
H41 H 0.0819 0.5504 0.2280
C46 C 0.0990(5) 0.6394(4) 0.2663(4)
H42 H 0.1391 0.6412 0.2684
C47 C 0.0205(4) 0.6843(4) 0.2827(3)
H43 H 0.0040 0.7194 0.2965
C48 C -0.0151(4) 0.6311(4) 0.2605(3)
H44 H -0.0550 0.6304 0.2589
C49 C 0.3212(8) 0.2264(11) 0.3306(12)
C50 C 0.3959(5) 0.2139(7) 0.3732(5)
C51 C 0.4256(5) 0.2750(7) 0.3892(5)
C52 C 0.4875(5) 0.2718(7) 0.4204(5)
H45 H 0.5089 0.3114 0.4322
C53 C 0.5189(5) 0.2114(8) 0.4348(6)
H46 H 0.5595 0.2104 0.4585
C54 C 0.4878(5) 0.1529(8) 0.4129(6)
H47 H 0.5090 0.1129 0.4177
C55 C 0.4278(5) 0.1535(8) 0.3850(5)
H48 H 0.4071 0.1135 0.3734
C56 C 0.3945(4) 0.3396(6) 0.3813(5)
C57 C 0.3665(3) 0.3686(6) 0.3292(4)
C58 C 0.3355(4) 0.4267(6) 0.3239(5)
H49 H 0.3146 0.4446 0.2880
C59 C 0.3354(4) 0.4594(6) 0.3729(5)
H50 H 0.3157 0.5001 0.3701
C60 C 0.3645(5) 0.4311(6) 0.4249(5)
H51 H 0.3645 0.4525 0.4578
C61 C 0.3930(5) 0.3727(6) 0.4288(4)
H52 H 0.4123 0.3539 0.4646
C62 C 0.3712(4) 0.3396(6) 0.2774(4)
C63 C 0.1968(4) 0.3960(5) 0.3458(4)
H53 H 0.1845 0.4051 0.3069
C64 C 0.1963(3) 0.4469(4) 0.3806(3)
H54 H 0.1835 0.4892 0.3659
C65 C 0.2151(3) 0.4353(4) 0.4386(3)
C66 C 0.2366(4) 0.3724(4) 0.4563(4)
H55 H 0.2524 0.3623 0.4950
C67 C 0.2348(4) 0.3253(4) 0.4170(4)
H56 H 0.2501 0.2832 0.4301
C68 C 0.1999(3) 0.5435(3) 0.4768(3)
C69 C 0.1577(4) 0.5733(4) 0.4313(3)
H57 H 0.1380 0.5491 0.3982
C70 C 0.1446(3) 0.6380(3) 0.4345(3)
H58 H 0.1154 0.6573 0.4029
C71 C 0.2076(4) 0.6451(4) 0.5248(3)
H59 H 0.2244 0.6698 0.5581
C72 C 0.2226(4) 0.5813(4) 0.5258(3)
H60 H 0.2484 0.5621 0.5595
C73 C 0.2351(4) 0.7406(4) 0.3980(4)
C74 C 0.2850(4) 0.7116(4) 0.4443(3)
C75 C 0.3162(3) 0.7482(4) 0.4932(3)
C76 C 0.3535(4) 0.7144(4) 0.5395(4)
H61 H 0.3729 0.7376 0.5733
C77 C 0.3631(4) 0.6475(5) 0.5379(4)
H62 H 0.3879 0.6249 0.5702
C78 C 0.3354(4) 0.6144(4) 0.4873(4)
H63 H 0.3435 0.5694 0.4845
C79 C 0.2971(4) 0.6463(4) 0.4425(4)
H64 H 0.2781 0.6228 0.4089
C80 C 0.3169(3) 0.8207(4) 0.4948(3)
C81 C 0.3087(3) 0.8568(4) 0.5383(3)
C82 C 0.3209(3) 0.9234(4) 0.5429(4)
H65 H 0.3170 0.9473 0.5732
C83 C 0.3387(4) 0.9550(5) 0.5041(4)
H66 H 0.3461 1.0007 0.5071
C84 C 0.3456(4) 0.9204(5) 0.4616(4)
H67 H 0.3571 0.9423 0.4344
C85 C 0.3361(4) 0.8546(5) 0.4574(4)
H68 H 0.3427 0.8313 0.4282
C86 C 0.2844(3) 0.8270(4) 0.5786(3)
C87 C 0.0477(4) 0.8171(4) 0.3713(3)
C88 C 0.0057(3) 0.8355(4) 0.4001(3)
C89 C -0.0093(3) 0.7925(4) 0.4360(3)
C90 C -0.0438(4) 0.8151(5) 0.4651(4)
H69 H -0.0543 0.7862 0.4891
C91 C -0.0636(4) 0.8793(5) 0.4599(4)
H70 H -0.0860 0.8945 0.4813
C92 C -0.0503(4) 0.9213(5) 0.4233(4)
H71 H -0.0640 0.9651 0.4190
C93 C -0.0169(4) 0.8984(4) 0.3933(4)
H72 H -0.0092 0.9265 0.3673
C94 C 0.0045(3) 0.7207(4) 0.4396(3)
C95 C 0.0402(3) 0.6896(4) 0.4885(3)
C96 C 0.0410(4) 0.6209(4) 0.4913(3)
H73 H 0.0636 0.6000 0.5254
C97 C 0.0102(4) 0.5838(4) 0.4461(4)
H74 H 0.0122 0.5375 0.4482
C98 C -0.0247(4) 0.6149(4) 0.3963(4)
H75 H -0.0463 0.5898 0.3644
C99 C -0.0273(3) 0.6813(4) 0.3942(3)
H76 H -0.0517 0.7016 0.3605
C100 C 0.0822(3) 0.7252(4) 0.5396(3)
C101 C -0.1750(3) 0.0931(4) 0.2388(3)
C102 C -0.2102(4) 0.0344(4) 0.2455(3)
C103 C -0.2676(4) 0.0202(4) 0.2086(4)
C104 C -0.2944(5) -0.0375(5) 0.2181(5)
H77 H -0.3335 -0.0486 0.1942
C105 C -0.2639(7) -0.0781(6) 0.2620(5)
H78 H -0.2820 -0.1177 0.2668
C106 C -0.2097(6) -0.0631(5) 0.2982(5)
H79 H -0.1907 -0.0912 0.3289
C107 C -0.1811(4) -0.0066(4) 0.2909(4)
H80 H -0.1426 0.0040 0.3163
C108 C -0.3012(3) 0.0607(5) 0.1596(4)
C109 C -0.3049(3) 0.1284(5) 0.1612(3)
C110 C -0.3334(4) 0.1634(6) 0.1119(4)
H81 H -0.3350 0.2097 0.1129
C111 C -0.3595(4) 0.1305(7) 0.0609(4)
H82 H -0.3786 0.1540 0.0273
C112 C -0.3569(4) 0.0624(7) 0.0605(5)
H83 H -0.3753 0.0394 0.0265
C113 C -0.3280(4) 0.0287(6) 0.1087(4)
H84 H -0.3261 -0.0176 0.1075
C114 C -0.2824(3) 0.1680(4) 0.2148(3)
C115 C -0.2427(4) 0.2589(4) 0.0670(4)
H85 H -0.2463 0.2131 0.0613
C116 C -0.2716(4) 0.2980(4) 0.0231(4)
H86 H -0.2949 0.2795 -0.0119
C117 C -0.2669(3) 0.3660(4) 0.0297(3)
C118 C -0.2350(3) 0.3891(4) 0.0830(3)
H87 H -0.2321 0.4346 0.0905
C119 C -0.2075(3) 0.3447(4) 0.1252(3)
H88 H -0.1861 0.3615 0.1614
C120 C -0.3071(3) 0.4711(4) -0.0173(3)
C121 C -0.3092(4) 0.5076(4) -0.0641(3)
H89 H -0.3016 0.4876 -0.0943
C122 C -0.3224(4) 0.5730(4) -0.0653(4)
H90 H -0.3227 0.5980 -0.0966
C123 C -0.3348(3) 0.5680(4) 0.0195(3)
H91 H -0.3446 0.5888 0.0481
C124 C -0.3214(3) 0.5028(4) 0.0250(3)
H92 H -0.3216 0.4794 0.0568
O29 O 0.2354(3) 0.2263(6) 0.2113(3)
H93 H 0.2608 0.2064 0.2011
H94 H 0.2463 0.2637 0.2256
Cd3C Cd -0.33900(2) 0.71480(3) -0.02148(2)
Cd4A Cd 0.37250(3) 0.28363(3) 0.18163(2)
Cd6A Cd -0.25657(2) 0.21640(3) 0.32533(2)
Cd6C Cd 0.25657(2) 0.78360(3) 0.67467(2)
O11A O 0.0807(2) 0.8218(3) 0.2233(2)
O12A O 0.1739(3) 0.8463(6) 0.2691(4)
O15C O -0.2575(2) -0.2855(2) 0.0626(2)
O16C O -0.1946(2) -0.3451(2) 0.1292(2)
O23A O -0.2508(3) -0.2837(3) 0.2812(2)
O24A O -0.2003(2) -0.3506(3) 0.2471(2)
N12C N 0.1651(3) 0.8963(3) 0.4760(3)
O30 O 0.3023(3) 0.4610(3) 0.5914(3)
H95 H 0.3146 0.4918 0.6149
H96 H 0.2917 0.4750 0.5580
O31 O 0.3459(3) 0.9565(3) 0.6884(3)
H97 H 0.3746 0.9338 0.7097
H98 H 0.3260 0.9306 0.6625
O32 O 0.7532(6) 0.3933(7) 0.7032(6)
H99 H 0.7243 0.3781 0.7110
H100 H 0.7812 0.3827 0.7331
O33 O 0.1791(10) 0.5053(12) 0.2136(10)
H101 H 0.1622 0.4965 0.1791
H102 H 0.1831 0.5466 0.2141
O34 O 0.2574(14) 0.5641(16) 0.1636(13)
H103 H 0.2573 0.5250 0.1746
H104 H 0.2264 0.5705 0.1350
loop_
_geom_bond_atom_site_label_1
_geom_bond_atom_site_label_2
_geom_bond_site_symmetry_1
_geom_bond_site_symmetry_2
Cd1 O1 1_555 1_555
Cd2 O1 1_555 1_555
Cd3 O13 1_555 1_555
Cd4 O13 1_555 1_555
Cd5 O3 1_555 1_555
Cd6 O27 1_555 1_555
O1 C1 1_555 1_555
O2 Cd2 1_555 1_555
O3 Cd1 1_555 1_555
O4 Cd5 1_555 1_555
O5 Cd1 1_555 1_555
O6 C16 1_555 1_555
O7 Cd1 1_555 1_555
O8 C29 1_555 1_555
O9 Cd2 1_555 1_555
O10 Cd2 1_555 1_555
O11 C62 1_555 1_555
O12 C62 1_555 1_555
O13 C73 1_555 1_555
O14 Cd4 1_555 1_555
O15 Cd3 1_555 1_555
O16 C86 1_555 1_555
O17 Cd3 1_555 1_555
O18 Cd4 1_555 1_555
O19 Cd3 1_555 1_555
O20 C100 1_555 1_555
O21 Cd5 1_555 1_555
O22 C101 1_555 1_555
O23 Cd5 1_555 1_555
O24 C114 1_555 1_555
O25 Cd2 1_555 1_555
H1 O25 1_555 1_555
H2 O25 1_555 1_555
O26 Cd2 1_555 1_555
H3 O26 1_555 1_555
H4 O26 1_555 1_555
O27 H5 1_555 1_555
H6 O27 1_555 1_555
O28 Cd6 1_555 1_555
H7 O28 1_555 1_555
H8 O28 1_555 1_555
N1 Cd1 1_555 1_555
N2 H9 1_555 1_555
N3 Cd6 1_555 1_555
N4 Cd1 1_555 1_555
N5 H10 1_555 1_555
N6 Cd4 1_555 1_555
N7 Cd2 1_555 1_555
N8 H11 1_555 1_555
N9 Cd3 1_555 1_555
N10 Cd5 1_555 1_555
N11 H12 1_555 1_555
N12 C122 1_555 1_555
C1 O2 1_555 1_555
C2 H13 1_555 1_555
C3 C1 1_555 1_555
C4 C3 1_555 1_555
H14 C4 1_555 1_555
C5 C4 1_555 1_555
H15 C5 1_555 1_555
C6 C5 1_555 1_555
H16 C6 1_555 1_555
C7 C6 1_555 1_555
H17 C7 1_555 1_555
C8 C3 1_555 1_555
C9 C8 1_555 1_555
C10 C9 1_555 1_555
C11 C10 1_555 1_555
H18 C11 1_555 1_555
C12 C11 1_555 1_555
H19 C12 1_555 1_555
C13 C12 1_555 1_555
H20 C13 1_555 1_555
C14 C9 1_555 1_555
H21 C14 1_555 1_555
C15 O3 1_555 1_555
C16 O5 1_555 1_555
C17 C16 1_555 1_555
C18 C17 1_555 1_555
C19 C18 1_555 1_555
H22 C19 1_555 1_555
C20 C19 1_555 1_555
H23 C20 1_555 1_555
C21 C20 1_555 1_555
H24 C21 1_555 1_555
C22 C17 1_555 1_555
H25 C22 1_555 1_555
C23 C18 1_555 1_555
C24 C23 1_555 1_555
C25 C24 1_555 1_555
H26 C25 1_555 1_555
C26 C25 1_555 1_555
H27 C26 1_555 1_555
C27 C26 1_555 1_555
H28 C27 1_555 1_555
C28 C23 1_555 1_555
H29 C28 1_555 1_555
C29 O7 1_555 1_555
C30 N1 1_555 1_555
H30 C30 1_555 1_555
C31 C30 1_555 1_555
H31 C31 1_555 1_555
C32 N2 1_555 1_555
C33 C32 1_555 1_555
H32 C33 1_555 1_555
C34 N1 1_555 1_555
H33 C34 1_555 1_555
C35 N2 1_555 1_555
C36 C35 1_555 1_555
H34 C36 1_555 1_555
C37 N3 1_555 1_555
H35 C37 1_555 1_555
C38 N3 1_555 1_555
H36 C38 1_555 1_555
C39 N4 1_555 1_555
H37 C39 1_555 1_555
C40 C39 1_555 1_555
H38 C40 1_555 1_555
C41 N5 1_555 1_555
C42 C41 1_555 1_555
H39 C42 1_555 1_555
C43 N4 1_555 1_555
H40 C43 1_555 1_555
C44 N5 1_555 1_555
C45 C44 1_555 1_555
H41 C45 1_555 1_555
C46 N6 1_555 1_555
H42 C46 1_555 1_555
C47 N6 1_555 1_555
H43 C47 1_555 1_555
C48 C44 1_555 1_555
H44 C48 1_555 1_555
C49 O9 1_555 1_555
C50 C49 1_555 1_555
C51 C50 1_555 1_555
C52 C51 1_555 1_555
H45 C52 1_555 1_555
C53 C52 1_555 1_555
H46 C53 1_555 1_555
C54 C53 1_555 1_555
H47 C54 1_555 1_555
C55 C50 1_555 1_555
H48 C55 1_555 1_555
C56 C51 1_555 1_555
C57 C56 1_555 1_555
C58 C57 1_555 1_555
H49 C58 1_555 1_555
C59 C58 1_555 1_555
H50 C59 1_555 1_555
C60 C59 1_555 1_555
H51 C60 1_555 1_555
C61 C56 1_555 1_555
H52 C61 1_555 1_555
C62 C57 1_555 1_555
C63 N7 1_555 1_555
H53 C63 1_555 1_555
C64 C63 1_555 1_555
H54 C64 1_555 1_555
C65 N8 1_555 1_555
C66 C65 1_555 1_555
H55 C66 1_555 1_555
C67 N7 1_555 1_555
H56 C67 1_555 1_555
C68 N8 1_555 1_555
C69 C68 1_555 1_555
H57 C69 1_555 1_555
C70 N9 1_555 1_555
H58 C70 1_555 1_555
C71 N9 1_555 1_555
H59 C71 1_555 1_555
C72 C68 1_555 1_555
H60 C72 1_555 1_555
C73 O14 1_555 1_555
C74 C73 1_555 1_555
C75 C74 1_555 1_555
C76 C75 1_555 1_555
H61 C76 1_555 1_555
C77 C76 1_555 1_555
H62 C77 1_555 1_555
C78 C77 1_555 1_555
H63 C78 1_555 1_555
C79 C74 1_555 1_555
H64 C79 1_555 1_555
C80 C75 1_555 1_555
C81 C80 1_555 1_555
C82 C81 1_555 1_555
H65 C82 1_555 1_555
C83 C82 1_555 1_555
H66 C83 1_555 1_555
C84 C83 1_555 1_555
H67 C84 1_555 1_555
C85 C80 1_555 1_555
H68 C85 1_555 1_555
C86 O15 1_555 1_555
C87 O17 1_555 1_555
C88 C87 1_555 1_555
C89 C88 1_555 1_555
C90 C89 1_555 1_555
H69 C90 1_555 1_555
C91 C90 1_555 1_555
H70 C91 1_555 1_555
C92 C91 1_555 1_555
H71 C92 1_555 1_555
C93 C88 1_555 1_555
H72 C93 1_555 1_555
C94 C89 1_555 1_555
C95 C94 1_555 1_555
C96 C95 1_555 1_555
H73 C96 1_555 1_555
C97 C96 1_555 1_555
H74 C97 1_555 1_555
C98 C97 1_555 1_555
H75 C98 1_555 1_555
C99 C94 1_555 1_555
H76 C99 1_555 1_555
C100 O19 1_555 1_555
C101 O21 1_555 1_555
C102 C101 1_555 1_555
C103 C102 1_555 1_555
C104 C103 1_555 1_555
H77 C104 1_555 1_555
C105 C104 1_555 1_555
H78 C105 1_555 1_555
C106 C105 1_555 1_555
H79 C106 1_555 1_555
C107 C102 1_555 1_555
H80 C107 1_555 1_555
C108 C103 1_555 1_555
C109 C108 1_555 1_555
C110 C109 1_555 1_555
H81 C110 1_555 1_555
C111 C110 1_555 1_555
H82 C111 1_555 1_555
C112 C111 1_555 1_555
H83 C112 1_555 1_555
C113 C108 1_555 1_555
H84 C113 1_555 1_555
C114 O23 1_555 1_555
C115 N10 1_555 1_555
H85 C115 1_555 1_555
C116 C115 1_555 1_555
H86 C116 1_555 1_555
C117 N11 1_555 1_555
C118 C117 1_555 1_555
H87 C118 1_555 1_555
C119 N10 1_555 1_555
H88 C119 1_555 1_555
C120 N11 1_555 1_555
C121 C120 1_555 1_555
H89 C121 1_555 1_555
C122 C121 1_555 1_555
H90 C122 1_555 1_555
C123 N12 1_555 1_555
H91 C123 1_555 1_555
C124 C120 1_555 1_555
H92 C124 1_555 1_555
O29 Cd2 1_555 1_555
H93 O29 1_555 1_555
H94 O29 1_555 1_555
O30 H95 1_555 1_555
H96 O30 1_555 1_555
O31 H97 1_555 1_555
H98 O31 1_555 1_555
O32 H99 1_555 1_555
H100 O32 1_555 1_555
O33 H101 1_555 1_555
H102 O33 1_555 1_555
O34 H103 1_555 1_555
H104 O34 1_555 1_555
Cd3C N12 1_555 1_555
Cd4A O11 1_555 1_555
Cd6A O23 1_555 1_555
Cd6C O15 1_555 1_555
O11A Cd4 1_555 1_555
O12A Cd4 1_555 1_555
O15C Cd6 1_555 1_555
O16C Cd6 1_555 1_555
O23A Cd6 1_555 1_555
O24A Cd6 1_555 1_555
N12C Cd3 1_555 1_555
Cd4 O17 1_555 1_555
Cd5 O5 1_555 1_555
O4 C15 1_555 1_555
O10 C49 1_555 1_555
O12 Cd4A 1_555 1_555
O16 Cd6C 1_555 1_555
O18 C87 1_555 1_555
O24 Cd6A 1_555 1_555
C2 C35 1_555 1_555
C2 C38 1_555 1_555
C7 C8 1_555 1_555
C10 C15 1_555 1_555
C13 C14 1_555 1_555
C21 C22 1_555 1_555
C24 C29 1_555 1_555
C27 C28 1_555 1_555
C31 C32 1_555 1_555
C33 C34 1_555 1_555
C36 C37 1_555 1_555
C40 C41 1_555 1_555
C42 C43 1_555 1_555
C45 C46 1_555 1_555
C47 C48 1_555 1_555
C54 C55 1_555 1_555
C60 C61 1_555 1_555
C64 C65 1_555 1_555
C66 C67 1_555 1_555
C69 C70 1_555 1_555
C71 C72 1_555 1_555
C78 C79 1_555 1_555
C81 C86 1_555 1_555
C84 C85 1_555 1_555
C92 C93 1_555 1_555
C95 C100 1_555 1_555
C98 C99 1_555 1_555
C106 C107 1_555 1_555
C109 C114 1_555 1_555
C112 C113 1_555 1_555
C116 C117 1_555 1_555
C118 C119 1_555 1_555
C123 C124 1_555 1_555

#END
