
#######################################################################
#
#                 Cambridge Crystallographic Data Centre
#                                CCDC 
#
#######################################################################
#
# If this CIF has been generated from an entry in the Cambridge 
# Structural Database, then it will include bibliographic, chemical, 
# crystal, experimental, refinement or atomic coordinate data resulting 
# from the CCDC's data processing and validation procedures.
#
#######################################################################

data_VOYXEO
_symmetry_cell_setting           monoclinic
_symmetry_space_group_name_H-M   'P 21/c'
_symmetry_Int_Tables_number      14
_space_group_name_Hall           '-P 2ybc'
loop_
_symmetry_equiv_pos_site_id
_symmetry_equiv_pos_as_xyz
1 x,y,z
2 -x,1/2+y,1/2-z
3 -x,-y,-z
4 x,1/2-y,1/2+z
_cell_length_a                   9.1991(2)
_cell_length_b                   18.6237(4)
_cell_length_c                   13.3358(3)
_cell_angle_alpha                90
_cell_angle_beta                 93.0460(10)
_cell_angle_gamma                90
_cell_volume                     2281.48
loop_
_atom_site_label
_atom_site_type_symbol
_atom_site_fract_x
_atom_site_fract_y
_atom_site_fract_z
Zn1 Zn 0.34684(4) 0.727065(17) 0.68738(2)
O1 O 0.5004(2) 0.78095(10) 0.75896(16)
O2 O 0.6221(2) 0.67921(12) 0.78195(17)
O3 O 0.5730(3) 0.78550(13) 1.01683(17)
O4 O 0.3601(2) 0.82657(12) 1.06404(16)
N1 N 0.2504(3) 0.65144(13) 0.77136(19)
N2 N 0.1068(3) 0.46770(13) 0.91621(19)
H1 H 0.161(3) 0.4549(17) 0.9684(18)
N3 N -0.1989(3) 0.30678(13) 0.84334(18)
C1 C 0.6132(3) 0.74569(17) 0.7900(2)
C2 C 0.7389(3) 0.78846(17) 0.8334(2)
C3 C 0.8770(4) 0.7565(2) 0.8366(2)
H2 H 0.8867 0.7093 0.8153
C4 C 0.9992(4) 0.7944(2) 0.8712(3)
H3 H 1.0904 0.7728 0.8718
C5 C 0.9859(4) 0.8629(2) 0.9043(3)
H4 H 1.0680 0.8882 0.9278
C6 C 0.8505(4) 0.8953(2) 0.9032(3)
H5 H 0.8432 0.9424 0.9255
C7 C 0.7241(3) 0.85893(17) 0.8692(2)
C8 C 0.5859(3) 0.90116(15) 0.8706(2)
C9 C 0.5760(4) 0.96089(17) 0.8068(2)
H6 H 0.6477 0.9678 0.7612
C10 C 0.4631(4) 1.00993(17) 0.8095(3)
H7 H 0.4590 1.0487 0.7655
C11 C 0.3566(4) 1.00093(17) 0.8779(2)
H8 H 0.2816 1.0342 0.8815
C12 C 0.3632(3) 0.94212(16) 0.9404(2)
H9 H 0.2910 0.9361 0.9859
C13 C 0.4744(3) 0.89124(15) 0.9380(2)
C14 C 0.4724(3) 0.82919(16) 1.0106(2)
C15 C 0.3017(3) 0.63214(16) 0.8637(2)
H10 H 0.3739 0.6603 0.8954
C16 C 0.2533(3) 0.57303(16) 0.9142(2)
H11 H 0.2925 0.5619 0.9780
C17 C 0.1431(3) 0.52937(15) 0.8679(2)
C18 C 0.0878(3) 0.55080(16) 0.7733(2)
H12 H 0.0131 0.5248 0.7404
C19 C 0.1440(3) 0.61041(17) 0.7288(2)
H13 H 0.1061 0.6232 0.6652
C20 C -0.0732(3) 0.29360(16) 0.8963(2)
H14 H -0.0544 0.2469 0.9178
C21 C 0.0283(3) 0.34530(16) 0.9200(2)
H15 H 0.1137 0.3334 0.9567
C22 C 0.0031(3) 0.41608(15) 0.8888(2)
C23 C -0.1290(3) 0.43045(16) 0.8353(2)
H16 H -0.1522 0.4770 0.8148
C24 C -0.2236(3) 0.37499(16) 0.8137(2)
H17 H -0.3096 0.3850 0.7765
Zn1A Zn -0.34684(4) 0.227065(17) 0.81262(2)
Zn1C Zn 0.34684(4) 0.772935(17) 1.18738(2)
O4C O 0.3601(2) 0.67343(12) 0.56404(16)
N3A N 0.1989(3) 0.80678(13) 0.65666(18)
O5 O 0.4591(3) 0.35509(14) 0.93082(19)
H18 H 0.453(4) 0.3098(12) 0.947(3)
H19 H 0.443(4) 0.357(2) 0.8657(15)
O6 O 0.3101(3) 0.42659(13) 0.07078(18)
H20 H 0.323(4) 0.3973(17) 0.1223(19)
H21 H 0.366(4) 0.4099(19) 0.026(2)
O7 O 0.8342(4) 0.84281(19) 1.1251(3)
loop_
_geom_bond_atom_site_label_1
_geom_bond_atom_site_label_2
_geom_bond_site_symmetry_1
_geom_bond_site_symmetry_2
Zn1 O1 1_555 1_555
O1 C1 1_555 1_555
O2 C1 1_555 1_555
O3 C14 1_555 1_555
O4 C14 1_555 1_555
N1 Zn1 1_555 1_555
N2 H1 1_555 1_555
N3 C20 1_555 1_555
C1 C2 1_555 1_555
C2 C3 1_555 1_555
C3 H2 1_555 1_555
C4 C3 1_555 1_555
H3 C4 1_555 1_555
C5 C4 1_555 1_555
H4 C5 1_555 1_555
C6 C5 1_555 1_555
H5 C6 1_555 1_555
C7 C2 1_555 1_555
C8 C7 1_555 1_555
C9 C8 1_555 1_555
H6 C9 1_555 1_555
C10 C9 1_555 1_555
H7 C10 1_555 1_555
C11 C10 1_555 1_555
H8 C11 1_555 1_555
C12 C11 1_555 1_555
H9 C12 1_555 1_555
C13 C8 1_555 1_555
C14 C13 1_555 1_555
C15 N1 1_555 1_555
H10 C15 1_555 1_555
C16 C15 1_555 1_555
H11 C16 1_555 1_555
C17 N2 1_555 1_555
C18 C17 1_555 1_555
H12 C18 1_555 1_555
C19 N1 1_555 1_555
H13 C19 1_555 1_555
C20 H14 1_555 1_555
C21 C20 1_555 1_555
H15 C21 1_555 1_555
C22 N2 1_555 1_555
C23 C22 1_555 1_555
H16 C23 1_555 1_555
C24 N3 1_555 1_555
H17 C24 1_555 1_555
O5 H18 1_555 1_555
H19 O5 1_555 1_555
O6 H20 1_555 1_555
H21 O6 1_555 1_555
Zn1A N3 1_555 1_555
Zn1C O4 1_555 1_555
O4C Zn1 1_555 1_555
N3A Zn1 1_555 1_555
C6 C7 1_555 1_555
C12 C13 1_555 1_555
C16 C17 1_555 1_555
C18 C19 1_555 1_555
C21 C22 1_555 1_555
C23 C24 1_555 1_555

#END
