
#######################################################################
#
#                 Cambridge Crystallographic Data Centre
#                                CCDC 
#
#######################################################################
#
# If this CIF has been generated from an entry in the Cambridge 
# Structural Database, then it will include bibliographic, chemical, 
# crystal, experimental, refinement or atomic coordinate data resulting 
# from the CCDC's data processing and validation procedures.
#
#######################################################################

data_VOYYEP
_symmetry_cell_setting           triclinic
_symmetry_space_group_name_H-M   'P -1'
_symmetry_Int_Tables_number      2
_space_group_name_Hall           '-P 1'
loop_
_symmetry_equiv_pos_site_id
_symmetry_equiv_pos_as_xyz
1 x,y,z
2 -x,-y,-z
_cell_length_a                   13.2115(14)
_cell_length_b                   14.8156(16)
_cell_length_c                   19.232(2)
_cell_angle_alpha                106.599(2)
_cell_angle_beta                 92.283(2)
_cell_angle_gamma                94.069(2)
_cell_volume                     3591.31
loop_
_atom_site_label
_atom_site_type_symbol
_atom_site_fract_x
_atom_site_fract_y
_atom_site_fract_z
Eu1 Eu 0.87661(2) -0.38928(2) -0.084431(17)
Eu2 Eu 0.72892(3) -0.01802(2) 0.12651(2)
Eu3 Eu 0.67477(2) 0.39487(2) 0.332168(16)
Eu4 Eu 0.61315(2) 0.25640(2) 0.599048(17)
Eu5 Eu 1.15660(2) 0.20509(2) 0.642859(18)
C1 C 0.7213(7) -0.2264(7) 0.0116(5)
C2 C 0.6090(6) -0.2113(6) 0.0073(5)
C3 C 0.5426(7) -0.2778(7) -0.0394(5)
H1 H 0.5630 -0.3347 -0.0681
C4 C 0.3332(11) -0.1249(10) -0.0408(9)
C5 C 0.4639(6) -0.0187(6) 0.1020(5)
C6 C 0.2743(10) -0.0381(10) 0.0706(9)
C7 C 0.5372(7) 0.1119(6) 0.1912(6)
C8 C 0.6326(7) 0.1615(6) 0.2341(6)
C9 C 0.3642(5) 0.5014(5) 0.3657(3)
C10 C 0.3019(5) 0.4207(5) 0.3107(3)
C11 C 0.2473(5) 0.3544(5) 0.3361(4)
H2 H 0.2588 0.3548 0.3842
C12 C 0.1764(6) 0.2880(5) 0.2915(4)
H3 H 0.1409 0.2427 0.3083
C13 C 0.1597(5) 0.2914(5) 0.2196(4)
C14 C 0.0742(6) 0.2324(6) 0.1697(5)
C15 C 0.2898(4) 0.4140(4) 0.2357(3)
C16 C 0.3485(4) 0.4690(4) 0.1954(3)
C17 C 0.4530(5) 0.5007(5) 0.2076(3)
C18 C 0.5211(5) 0.4728(5) 0.2614(3)
C19 C 0.4957(5) 0.5505(5) 0.1646(4)
H4 H 0.5636 0.5741 0.1738
C20 C 0.3396(5) 0.5282(5) 0.0955(4)
C21 C 0.2728(6) 0.5327(6) 0.0300(4)
C22 C 0.8165(5) 0.3692(5) 0.5501(3)
C23 C 0.8897(5) 0.4408(5) 0.5555(4)
H5 H 0.9038 0.4625 0.5158
C24 C 0.9428(5) 0.4803(5) 0.6226(4)
H6 H 0.9916 0.5308 0.6289
C25 C 0.9227(4) 0.4441(5) 0.6803(3)
C26 C 0.8516(5) 0.3661(5) 0.6682(3)
C27 C 0.8215(4) 0.3170(5) 0.7234(3)
C28 C 0.8882(5) 0.2977(5) 0.7758(4)
C29 C 1.0023(5) 0.3130(5) 0.7782(4)
C30 C 0.8448(5) 0.2571(6) 0.8261(4)
H7 H 0.8860 0.2451 0.8622
C31 C 0.7396(6) 0.2346(6) 0.8223(4)
H8 H 0.7097 0.2103 0.8569
C32 C 0.6824(5) 0.2490(5) 0.7667(4)
C33 C 0.5690(5) 0.2194(6) 0.7557(4)
C34 C 0.7881(5) 0.0051(5) 0.4577(4)
C35 C 0.8599(5) 0.0935(5) 0.4813(4)
C36 C 0.8741(5) 0.1443(5) 0.4307(4)
H9 H 0.8307 0.1295 0.3890
C37 C 0.9499(5) 0.2150(5) 0.4414(4)
H10 H 0.9579 0.2496 0.4082
C38 C 0.9244(5) 0.1211(5) 0.5451(4)
C39 C 0.9158(5) 0.0785(5) 0.6075(4)
C40 C 0.8277(5) 0.0363(5) 0.6269(4)
C41 C 0.7199(5) 0.0480(5) 0.6013(4)
C42 C 0.8365(5) -0.0071(5) 0.6812(4)
H11 H 0.7794 -0.0388 0.6929
C43 C 0.9292(5) -0.0043(5) 0.7186(4)
H12 H 0.9360 -0.0355 0.7540
C44 C 1.0100(5) 0.0463(5) 0.7014(4)
C45 C 1.1115(5) 0.0647(5) 0.7452(4)
C46 C 0.9666(5) 0.5014(5) 0.7548(3)
C47 C 1.0156(5) 0.2342(5) 0.5038(4)
C48 C 1.1062(5) 0.3083(5) 0.5187(4)
C49 C 0.7432(5) 0.3330(5) 0.4833(3)
C50 C 0.4854(6) -0.1092(6) 0.0478(5)
C51 C 0.4394(5) 0.5662(6) 0.1078(4)
H13 H 0.4676 0.6010 0.0789
C52 C 0.4443(8) -0.2557(8) -0.0416(6)
H14 H 0.3955 -0.3004 -0.0707
C53 C 0.4148(8) -0.1703(8) -0.0025(7)
C54 C 0.3706(7) 0.0163(7) 0.1103(6)
C55 C 0.4449(7) 0.1527(7) 0.2041(6)
H15 H 0.4408 0.2105 0.2387
C56 C 0.3614(8) 0.1032(8) 0.1631(7)
H16 H 0.2981 0.1269 0.1700
N1 N 0.2158(4) 0.3519(4) 0.1930(3)
N2 N 0.2945(4) 0.4833(4) 0.1384(3)
N3 N 0.5459(5) 0.0297(5) 0.1415(4)
N4 N 0.5822(4) -0.1298(4) 0.0509(3)
N5 N 0.7967(4) 0.3305(4) 0.6042(3)
N6 N 0.7218(4) 0.2900(4) 0.7184(3)
N7 N 1.0026(4) 0.1895(4) 0.5541(3)
N8 N 1.0053(4) 0.0860(4) 0.6471(3)
O1 O 0.9556(5) -0.2953(5) 0.0325(3)
H17 H 0.9873 -0.2457 0.0277
H18 H 0.9973 -0.3279 0.0474
O2 O 0.7463(5) -0.3019(5) -0.0281(4)
O3 O 0.7790(4) -0.1607(5) 0.0528(4)
O4 O 0.2795(11) -0.1943(10) -0.0945(8)
O5 O 0.3106(7) -0.0339(7) -0.0264(5)
O6 O 0.6562(4) -0.1015(5) 0.2026(4)
H19 H 0.7006 -0.1035 0.2352
H20 H 0.6361 -0.1574 0.1771
O7 O 0.8856(5) 0.0577(5) 0.0973(4)
H21 H 0.8882 0.0433 0.0514
H22 H 0.9363 0.0380 0.1154
O8 O 0.7161(5) 0.1253(5) 0.2168(5)
O9 O 0.6264(5) 0.2353(4) 0.2838(3)
O10 O 0.2479(10) -0.1342(9) 0.0591(8)
H23 H 0.2038 -0.1519 0.0258
O11 O 0.1890(9) -0.0149(10) 0.0766(8)
O12 O 0.5392(4) 0.3649(4) 0.4081(3)
H24 H 0.5508 0.3167 0.4218
H25 H 0.4826 0.3546 0.3834
O13 O 0.6710(4) 0.5371(4) 0.4451(3)
H26 H 0.6913 0.5872 0.4348
H27 H 0.7100 0.5301 0.4791
O14 O 0.8160(3) 0.5040(4) 0.3372(3)
H28 H 0.8110 0.5537 0.3718
H29 H 0.8171 0.5178 0.2972
O15 O 0.7062(4) 0.3783(5) 0.2036(3)
H30 H 0.6937 0.3208 0.1787
H31 H 0.7681 0.3960 0.2004
O16 O 0.5055(3) 0.3931(3) 0.2703(3)
O17 O 0.5972(3) 0.5287(4) 0.2927(3)
O18 O 0.3146(5) 0.5630(6) -0.0166(4)
O19 O 0.1812(4) 0.5000(4) 0.0258(3)
O20 O 0.3922(4) 0.4891(4) 0.4255(2)
O21 O 0.3792(3) 0.5770(3) 0.3501(2)
O22 O 0.0494(4) 0.2590(4) 0.1153(3)
O23 O 0.0334(5) 0.1638(5) 0.1863(4)
O24 O 0.7606(3) 0.3579(4) 0.4293(2)
O25 O 0.6648(3) 0.2815(4) 0.4895(2)
O26 O 1.0508(4) 0.5480(4) 0.7609(3)
O27 O 0.9129(3) 0.5019(4) 0.8063(2)
O28 O 0.5261(3) 0.2270(4) 0.6959(3)
O29 O 0.5280(4) 0.1874(5) 0.8000(3)
O30 O 1.0418(3) 0.2957(4) 0.7178(3)
O31 O 1.0500(4) 0.3430(5) 0.8387(3)
O32 O 0.5278(4) 0.1154(4) 0.5075(4)
H32 H 0.4637 0.1161 0.5097
H33 H 0.5466 0.0658 0.5163
O33 O 0.4551(4) 0.3035(4) 0.5588(3)
H34 H 0.4457 0.3587 0.5851
H35 H 0.4064 0.2649 0.5626
O34 O 0.7071(4) 0.1298(4) 0.5947(3)
O35 O 0.6554(4) -0.0191(5) 0.5911(4)
O36 O 1.1750(4) 0.1232(4) 0.7292(3)
O37 O 1.1277(4) 0.0240(4) 0.7912(3)
O38 O 0.8266(3) -0.0712(4) 0.4583(3)
O39 O 0.7003(4) 0.0113(4) 0.4350(3)
O40 O 1.1645(4) 0.3120(4) 0.5746(3)
O41 O 1.1174(4) 0.3580(4) 0.4788(3)
O42 O 1.3325(3) 0.1721(4) 0.6370(3)
H36 H 1.3381 0.1223 0.6025
H37 H 1.3534 0.1639 0.6770
O43 O 1.2672(4) 0.3320(4) 0.7251(3)
H38 H 1.2595 0.3313 0.7686
H39 H 1.2516 0.3847 0.7202
O44 O 1.0364(5) -0.4532(7) -0.0667(4)
H40 H 1.0634 -0.4718 -0.1072
H41 H 1.0253 -0.4996 -0.0496
Eu1_2 Eu 0.87661(2) 0.61072(2) 0.915569(17)
Eu1A Eu 0.12339(2) 0.38928(2) 0.084431(17)
Eu2A Eu 0.27108(3) 0.01802(2) -0.12651(2)
Eu2A_2 Eu 1.27108(3) 0.01802(2) 0.87349(2)
Eu4A Eu 0.38685(2) 0.74360(2) 0.400952(17)
Eu5A Eu 0.84340(2) -0.20509(2) 0.357141(18)
N1A N 0.7842(4) -0.3519(4) -0.1930(3)
N2A N 0.7055(4) -0.4833(4) -0.1384(3)
O5A O 0.6894(7) 0.0339(7) 0.0264(5)
O19A O 0.8188(4) -0.5000(4) -0.0258(3)
O21A O 0.6208(3) 0.4230(3) 0.6499(2)
O22A O 0.9506(4) -0.2590(4) -0.1153(3)
O27_2 O 0.9129(3) -0.4981(4) -0.1937(2)
O37A O 0.8723(4) -0.0240(4) 0.2088(3)
O38A O 1.1734(3) 0.0712(4) 0.5417(3)
O45 O 0.8383(5) 0.3018(5) 0.2901(3)
H42 H 0.8915 0.3393 0.3050
H43 H 0.8356 0.2813 0.2439
O46 O 0.7725(5) 0.5267(7) 0.1518(4)
O47 O 0.0216(7) 0.8938(8) 0.0394(7)
O48 O 0.3197(8) 0.2076(6) 0.4504(6)
C57? C 0.1796(10) -0.2721(11) -0.0980(9)
H44? H 0.2031 -0.3323 -0.0993
H45? H 0.1368 -0.2784 -0.1409
H46? H 0.1416 -0.2501 -0.0558
loop_
_geom_bond_atom_site_label_1
_geom_bond_atom_site_label_2
_geom_bond_site_symmetry_1
_geom_bond_site_symmetry_2
Eu1 O1 1_555 1_555
Eu2 N3 1_555 1_555
Eu3 O9 1_555 1_555
Eu4 N5 1_555 1_555
Eu5 N7 1_555 1_555
C1 C2 1_555 1_555
C2 C3 1_555 1_555
C3 H1 1_555 1_555
C4 C53 1_555 1_555
C5 C50 1_555 1_555
C6 C54 1_555 1_555
C7 C8 1_555 1_555
C8 O8 1_555 1_555
C9 C10 1_555 1_555
C10 C11 1_555 1_555
C11 H2 1_555 1_555
C12 C11 1_555 1_555
H3 C12 1_555 1_555
C13 C12 1_555 1_555
C14 C13 1_555 1_555
C15 C10 1_555 1_555
C16 C15 1_555 1_555
C17 C16 1_555 1_555
C18 C17 1_555 1_555
C19 C17 1_555 1_555
H4 C19 1_555 1_555
C20 C21 1_555 1_555
C21 O18 1_555 1_555
C22 C23 1_555 1_555
C23 H5 1_555 1_555
C24 C23 1_555 1_555
H6 C24 1_555 1_555
C25 C24 1_555 1_555
C26 C25 1_555 1_555
C27 C26 1_555 1_555
C28 C27 1_555 1_555
C29 C28 1_555 1_555
C30 C28 1_555 1_555
H7 C30 1_555 1_555
C31 C30 1_555 1_555
H8 C31 1_555 1_555
C32 C31 1_555 1_555
C33 C32 1_555 1_555
C34 C35 1_555 1_555
C35 C36 1_555 1_555
C36 H9 1_555 1_555
C37 C36 1_555 1_555
H10 C37 1_555 1_555
C38 C35 1_555 1_555
C39 C38 1_555 1_555
C40 C39 1_555 1_555
C41 C40 1_555 1_555
C42 C40 1_555 1_555
H11 C42 1_555 1_555
C43 C42 1_555 1_555
H12 C43 1_555 1_555
C44 C43 1_555 1_555
C45 C44 1_555 1_555
C46 C25 1_555 1_555
C47 C37 1_555 1_555
C48 C47 1_555 1_555
C49 C22 1_555 1_555
C50 C53 1_555 1_555
C51 C19 1_555 1_555
H13 C51 1_555 1_555
C52 C3 1_555 1_555
H14 C52 1_555 1_555
C53 C52 1_555 1_555
C54 C5 1_555 1_555
C55 C7 1_555 1_555
H15 C55 1_555 1_555
C56 C54 1_555 1_555
H16 C56 1_555 1_555
N1 C13 1_555 1_555
N2 C16 1_555 1_555
N3 C5 1_555 1_555
N4 Eu2 1_555 1_555
N5 C22 1_555 1_555
N6 Eu4 1_555 1_555
N7 C38 1_555 1_555
N8 Eu5 1_555 1_555
O1 H17 1_555 1_555
H18 O1 1_555 1_555
O2 Eu1 1_555 1_555
O3 Eu2 1_555 1_555
O4 C4 1_555 1_555
O5 C4 1_555 1_555
O6 Eu2 1_555 1_555
H19 O6 1_555 1_555
H20 O6 1_555 1_555
O7 Eu2 1_555 1_555
H21 O7 1_555 1_555
H22 O7 1_555 1_555
O8 Eu2 1_555 1_555
O9 C8 1_555 1_555
O10 C6 1_555 1_555
H23 O10 1_555 1_555
O11 C6 1_555 1_555
O12 Eu3 1_555 1_555
H24 O12 1_555 1_555
H25 O12 1_555 1_555
O13 Eu3 1_555 1_555
H26 O13 1_555 1_555
H27 O13 1_555 1_555
O14 Eu3 1_555 1_555
H28 O14 1_555 1_555
H29 O14 1_555 1_555
O15 Eu3 1_555 1_555
H30 O15 1_555 1_555
H31 O15 1_555 1_555
O16 Eu3 1_555 1_555
O17 Eu3 1_555 1_555
O19 C21 1_555 1_555
O20 C9 1_555 1_555
O21 C9 1_555 1_555
O22 C14 1_555 1_555
O23 C14 1_555 1_555
O24 Eu3 1_555 1_555
O25 Eu4 1_555 1_555
O26 C46 1_555 1_555
O27 C46 1_555 1_555
O28 Eu4 1_555 1_555
O29 C33 1_555 1_555
O30 Eu5 1_555 1_555
O31 C29 1_555 1_555
O32 Eu4 1_555 1_555
H32 O32 1_555 1_555
H33 O32 1_555 1_555
O33 Eu4 1_555 1_555
H34 O33 1_555 1_555
H35 O33 1_555 1_555
O34 Eu4 1_555 1_555
O35 C41 1_555 1_555
O36 Eu5 1_555 1_555
O37 C45 1_555 1_555
O38 C34 1_555 1_555
O39 C34 1_555 1_555
O40 Eu5 1_555 1_555
O41 C48 1_555 1_555
O42 Eu5 1_555 1_555
H36 O42 1_555 1_555
H37 O42 1_555 1_555
O43 Eu5 1_555 1_555
H38 O43 1_555 1_555
H39 O43 1_555 1_555
O44 Eu1 1_555 1_555
H40 O44 1_555 1_555
H41 O44 1_555 1_555
O45 H42 1_555 1_555
H43 O45 1_555 1_555
Eu1_2 O27 1_555 1_555
Eu1A N1 1_555 1_555
Eu2A O5 1_555 1_555
Eu2A_2 O37 1_555 1_555
Eu4A O21 1_555 1_555
Eu5A O38 1_555 1_555
N1A Eu1 1_555 1_555
N2A Eu1 1_555 1_555
O5A Eu2 1_555 1_555
O19A Eu1 1_555 1_555
O21A Eu4 1_555 1_555
O22A Eu1 1_555 1_555
O27_2 Eu1 1_555 1_555
O37A Eu2 1_555 1_555
O38A Eu5 1_555 1_555
C1 O2 1_555 1_555
C1 O3 1_555 1_555
C2 N4 1_555 1_555
C7 N3 1_555 1_555
C15 N1 1_555 1_555
C18 O16 1_555 1_555
C18 O17 1_555 1_555
C20 C51 1_555 1_555
C20 N2 1_555 1_555
C26 N5 1_555 1_555
C27 N6 1_555 1_555
C29 O30 1_555 1_555
C32 N6 1_555 1_555
C33 O28 1_555 1_555
C39 N8 1_555 1_555
C41 O34 1_555 1_555
C44 N8 1_555 1_555
C45 O36 1_555 1_555
C47 N7 1_555 1_555
C48 O40 1_555 1_555
C49 O24 1_555 1_555
C49 O25 1_555 1_555
C50 N4 1_555 1_555
C55 C56 1_555 1_555
N2 Eu1A 1_555 1_555
O19 Eu1A 1_555 1_555
O22 Eu1A 1_555 1_555

#END
