
#######################################################################
#
#                 Cambridge Crystallographic Data Centre
#                                CCDC 
#
#######################################################################
#
# If this CIF has been generated from an entry in the Cambridge 
# Structural Database, then it will include bibliographic, chemical, 
# crystal, experimental, refinement or atomic coordinate data resulting 
# from the CCDC's data processing and validation procedures.
#
#######################################################################

data_VOYYIR
_symmetry_cell_setting           monoclinic
_symmetry_space_group_name_H-M   'P 21'
_symmetry_Int_Tables_number      4
_space_group_name_Hall           'P 2yb'
loop_
_symmetry_equiv_pos_site_id
_symmetry_equiv_pos_as_xyz
1 x,y,z
2 -x,1/2+y,-z
_cell_length_a                   11.955(3)
_cell_length_b                   28.499(6)
_cell_length_c                   12.442(3)
_cell_angle_alpha                90
_cell_angle_beta                 91.49(2)
_cell_angle_gamma                90
_cell_volume                     4237.63
loop_
_atom_site_label
_atom_site_type_symbol
_atom_site_fract_x
_atom_site_fract_y
_atom_site_fract_z
Cu1 Cu -0.1394(1) -0.08157(9) 0.4518(1)
Cu2 Cu -0.7714(1) 0.0032 0.2199(1)
Na1 Na -0.4897(5) -0.0667(2) 0.6810(5)
Na2 Na 0.2367(5) -0.0847(3) 0.6948(5)
Na3 Na -0.5553(6) -0.1705(3) 0.2684(6)
Na4 Na -0.4451(5) -0.0901(3) 1.0043(5)
O1 O -0.1330(9) -0.0783(5) 0.2962(8)
O2 O -0.1618(8) -0.0871(5) 0.6078(8)
O3 O -0.2436(8) -0.0284(4) 0.4521(9)
O4 O -0.0340(9) -0.1357(4) 0.4547(8)
O5 O -0.7168(8) 0.0512(4) 0.1200(8)
O6 O -0.7186(8) -0.0483(4) 0.1249(7)
O7 O -0.8203(8) 0.0516(4) 0.3210(8)
O8 O -0.8383(9) -0.0484(4) 0.3040(9)
O9 O -0.336(1) -0.0234(5) 1.055(1)
O10 O 0.142(1) -0.1219(5) 0.841(1)
O11 O -0.74(1) -0.1342(4) 0.3018(9)
O15 O -0.5981(9) -0.1285(5) 0.7446(9)
O16 O -0.3645(9) -0.0839(6) 0.8265(9)
O17 O -0.509(1) -0.0963(4) 0.1906(9)
O18 O -0.362(1) 0.0006(6) 0.635(1)
O19 O -0.370(1) -0.1902(5) 0.230(1)
O20 O -0.625(1) -0.0658(5) 0.537(1)
O21 O -0.301(1) -0.1489(6) 1.033(1)
S1 S -0.3816(3) -0.1508(2) 0.4921(3)
S2 S -0.6373(3) -0.1898(2) 0.9960(3)
S3 S -0.0245(3) -0.1873(2) 1.1847(3)
S4 S 0.2002(3) -0.1920(2) 0.5710(3)
O25 O -0.3078(8) -0.3472(4) 0.6314(8)
O26 O -0.2944(8) -0.1390(4) 0.4173(8)
O27 O -0.4933(8) -0.1465(4) 0.4424(8)
O28 O -0.3718(8) -0.1240(4) 0.5932(8)
O29 O -0.3614(8) -0.3466(4) 0.8425(8)
O30 O -0.5832(9) -0.1462(4) 0.9633(9)
O31 O -0.7451(7) -0.1954(4) 0.9382(9)
O32 O -0.6438(8) -0.1942(5) 1.1104(8)
O33 O -0.1506(7) -0.3488(4) 0.9135(8)
O34 O -0.051(1) -0.2021(4) 1.2950(9)
O35 O 0.092(1) -0.1782(7) 1.167(1)
O36 O -0.091(1) -0.1460(5) 1.149(1)
O37 O -0.0963(8) -0.3431(4) 0.7111(8)
O38 O 0.208(1) -0.1994(5) 0.4571(9)
O39 O 0.3038(8) -0.1985(4) 0.6325(9)
O40 O 0.1492(8) -0.1460(4) 0.5918(9)
C1 C -0.327(1) -0.3016(5) 0.595(1)
C2 C -0.247(1) -0.2802(5) 0.530(1)
C3 C -0.266(1) -0.2342(5) 0.497(1)
C4 C -0.362(1) -0.2103(5) 0.525(1)
C5 C -0.443(1) -0.2341(5) 0.585(1)
C6 C -0.426(1) -0.2787(5) 0.622(1)
C7 C -0.515(1) -0.3028(6) 0.690(1)
C8 C -0.421(1) -0.3086(5) 0.879(1)
C9 C -0.503(1) -0.2879(5) 0.809(1)
C10 C -0.566(1) -0.2521(5) 0.848(1)
C11 C -0.551(1) -0.2365(5) 0.950(1)
C12 C -0.469(1) -0.2557(5) 1.019(1)
C13 C -0.406(1) -0.2925(5) 0.982(1)
C14 C -0.316(1) -0.3140(5) 1.059(1)
C15 C -0.127(1) -0.3086(5) 0.969(1)
C16 C -0.202(1) -0.2920(5) 1.046(1)
C17 C -0.171(1) -0.2550(5) 1.109(1)
C18 C -0.064(1) -0.2342(5) 1.097(1)
C19 C 0.009(1) -0.2491(5) 1.018(1)
C20 C -0.021(1) -0.2860(5) 0.954(1)
C21 C 0.060(1) -0.3053(5) 0.872(1)
C22 C -0.034(1) -0.3052(5) 0.682(1)
C23 C 0.046(1) -0.2862(5) 0.758(1)
C24 C 0.115(1) -0.2514(5) 0.722(1)
C25 C 0.107(1) -0.2356(5) 0.619(1)
C26 C 0.026(1) -0.2529(5) 0.546(1)
C27 C -0.044(1) -0.2869(5) 0.580(1)
C28 C -0.138(1) -0.3053(5) 0.505(1)
S5 S 0.0854(3) -0.0055(2) 0.5564(3)
S6 S -0.4917(3) 0.0185(2) 0.2943(3)
S7 S -0.6436(3) -0.0002(2) 0.8754(3)
S8 S -0.0493(3) 0.0295(2) 1.1485(3)
O41 O -0.1234(7) 0.1773(4) 0.6414(7)
O42 O 0.1967(7) 0.0096(4) 0.5215(8)
O43 O 0.0239(8) -0.0290(4) 0.4697(8)
O44 O 0.0921(9) -0.0338(4) 0.6524(9)
O45 O -0.3401(8) 0.1707(4) 0.5814(8)
O46 O -0.6049(8) 0.0039(4) 0.3273(7)
O47 O -0.4099(9) -0.0197(5) 0.3042(9)
O48 O -0.4929(8) 0.0404(4) 0.1893(8)
O49 O -0.4245(8) 0.1786(4) 0.7845(8)
O50 O -0.5805(8) -0.0242(4) 0.9626(8)
O51 O -0.7532(8) 0.0158(4) 0.9117(8)
O52 O -0.6495(9) -0.0279(4) 0.7782(9)
O53 O -0.2076(7) 0.1711(4) 0.8377(8)
O54 O 0.0544(8) 0.0102(4) 1.1113(9)
O55 O -0.1365(9) -0.0055(5) 1.160(1)
O56 O -0.0343(8) 0.0581(5) 1.2451(8)
C29 C -0.080(1) 0.1338(5) 0.622(1)
C30 C -0.011(1) 0.1129(5) 0.701(1)
C31 C 0.037(1) 0.0697(5) 0.682(1)
C32 C 0.013(1) 0.0475(5) 0.584(1)
C33 C -0.056(1) 0.0675(5) 0.510(1)
C34 C -0.104(1) 0.1109(5) 0.527(1)
C35 C -0.179(1) 0.1318(5) 0.439(1)
C36 C -0.374(1) 0.1334(5) 0.520(1)
C37 C -0.299(1) 0.1141(5) 0.447(1)
C38 C -0.337(1) 0.0794(5) 0.380(1)
C39 C -0.447(1) 0.0622(5) 0.384(1)
C40 C -0.517(1) 0.0798(5) 0.461(1)
C41 C -0.482(1) 0.1169(5) 0.529(1)
C42 C -0.561(1) 0.1368(5) 0.613(1)
C43 C -0.469(1) 0.1355(5) 0.802(1)
C44 C -0.539(1) 0.1159(5) 0.724(1)
C45 C -0.588(1) 0.0726(6) 0.748(1)
C46 C -0.568(1) 0.0511(5) 0.846(1)
C47 C -0.495(1) 0.0708(5) 0.919(1)
C48 C -0.445(1) 0.1140(5) 0.900(1)
C49 C -0.368(1) 0.1364(5) 0.985(1)
C50 C -0.174(1) 0.1351(5) 0.905(1)
C51 C -0.247(1) 0.1185(5) 0.981(1)
C52 C -0.208(1) 0.0849(5) 1.051(1)
C53 C -0.099(1) 0.0679(5) 1.048(1)
C54 C -0.031(1) 0.0846(5) 0.970(1)
C55 C -0.066(1) 0.1177(5) 0.898(1)
C56 C 0.012(1) 0.1373(5) 0.809(1)
O54_2 O -0.9456(8) 0.0102(4) 0.1113(9)
O15_2 O 0.4019(9) -0.1285(5) 0.7446(9)
O52_2 O 0.3505(9) -0.0279(4) 0.7782(9)
O32_2 O -0.6438(8) -0.1942(5) 0.1104(8)
O17_2 O -0.509(1) -0.0963(4) 1.1906(9)
Na2_2 Na -0.7633(5) -0.0847(3) 0.6948(5)
Na4_2 Na -0.4451(5) -0.0901(3) 0.0043(5)
Na3_2 Na -0.5553(6) -0.1705(3) 1.2684(6)
Cu2_2 Cu 0.2286(1) 0.0032 1.2199(1)
O12 O 0.902(1) 0.4104(6) 0.946(1)
O13 O 0.004(1) -0.0234(6) 0.861(1)
O14 O -0.060(1) -0.1510(7) 0.734(1)
O22 O 0.310(3) -0.2446(7) 0.293(2)
O23 O -0.233(1) 0.0019(9) 0.831(2)
O24 O 0.275(2) 0.3153(9) 1.182(2)
loop_
_geom_bond_atom_site_label_1
_geom_bond_atom_site_label_2
_geom_bond_site_symmetry_1
_geom_bond_site_symmetry_2
Cu1 O1 1_555 1_555
Cu2 O5 1_555 1_555
Na1 O15 1_555 1_555
Na2 O10 1_555 1_555
Na3 O11 1_555 1_555
Na4 O9 1_555 1_555
O2 Cu1 1_555 1_555
O3 Cu1 1_555 1_555
O4 Cu1 1_555 1_555
O6 Cu2 1_555 1_555
O7 Cu2 1_555 1_555
O8 Cu2 1_555 1_555
O15 Na2_2 1_555 1_555
O16 Na1 1_555 1_555
O17 Na3 1_555 1_555
O18 Na1 1_555 1_555
O19 Na3 1_555 1_555
O20 Na1 1_555 1_555
O21 Na4 1_555 1_555
S1 O26 1_555 1_555
S2 O30 1_555 1_555
S3 O34 1_555 1_555
S4 O38 1_555 1_555
O25 C1 1_555 1_555
O26 Cu1 1_555 1_555
O27 Na3 1_555 1_555
O28 Na1 1_555 1_555
O29 C8 1_555 1_555
O30 Na4 1_555 1_555
O31 S2 1_555 1_555
O32 S2 1_555 1_555
O33 C15 1_555 1_555
O35 S3 1_555 1_555
O36 S3 1_555 1_555
O37 C22 1_555 1_555
O39 S4 1_555 1_555
O40 Na2 1_555 1_555
C1 C2 1_555 1_555
C2 C3 1_555 1_555
C3 C4 1_555 1_555
C4 S1 1_555 1_555
C5 C4 1_555 1_555
C6 C1 1_555 1_555
C7 C6 1_555 1_555
C8 C9 1_555 1_555
C9 C7 1_555 1_555
C10 C9 1_555 1_555
C11 S2 1_555 1_555
C12 C11 1_555 1_555
C13 C8 1_555 1_555
C14 C13 1_555 1_555
C15 C16 1_555 1_555
C16 C14 1_555 1_555
C17 C16 1_555 1_555
C18 S3 1_555 1_555
C19 C18 1_555 1_555
C20 C15 1_555 1_555
C21 C20 1_555 1_555
C22 C23 1_555 1_555
C23 C21 1_555 1_555
C24 C23 1_555 1_555
C25 S4 1_555 1_555
C26 C25 1_555 1_555
C27 C22 1_555 1_555
C28 C2 1_555 1_555
S5 O42 1_555 1_555
S6 O46 1_555 1_555
S7 O50 1_555 1_555
S8 O54 1_555 1_555
O41 C29 1_555 1_555
O43 Cu1 1_555 1_555
O44 Na2 1_555 1_555
O45 C36 1_555 1_555
O46 Cu2 1_555 1_555
O47 S6 1_555 1_555
O48 S6 1_555 1_555
O49 C43 1_555 1_555
O50 Na4 1_555 1_555
O51 S7 1_555 1_555
O52 S7 1_555 1_555
O53 C50 1_555 1_555
O54 Cu2_2 1_555 1_555
O55 S8 1_555 1_555
O56 S8 1_555 1_555
C29 C30 1_555 1_555
C30 C31 1_555 1_555
C31 C32 1_555 1_555
C32 S5 1_555 1_555
C33 C32 1_555 1_555
C34 C29 1_555 1_555
C35 C34 1_555 1_555
C36 C37 1_555 1_555
C37 C35 1_555 1_555
C38 C37 1_555 1_555
C39 S6 1_555 1_555
C40 C39 1_555 1_555
C41 C36 1_555 1_555
C42 C41 1_555 1_555
C43 C44 1_555 1_555
C44 C42 1_555 1_555
C45 C44 1_555 1_555
C46 S7 1_555 1_555
C47 C46 1_555 1_555
C48 C43 1_555 1_555
C49 C48 1_555 1_555
C50 C51 1_555 1_555
C51 C49 1_555 1_555
C52 C51 1_555 1_555
C53 S8 1_555 1_555
C54 C53 1_555 1_555
C55 C50 1_555 1_555
C56 C30 1_555 1_555
O54_2 Cu2 1_555 1_555
O15_2 Na2 1_555 1_555
O52_2 Na2 1_555 1_555
O32_2 Na3 1_555 1_555
O17_2 Na4 1_555 1_555
Na2_2 O52 1_555 1_555
Na4_2 O17 1_555 1_555
Na3_2 O32 1_555 1_555
Na4 O16 1_555 1_555
S1 O27 1_555 1_555
S1 O28 1_555 1_555
S4 O40 1_555 1_555
C5 C6 1_555 1_555
C10 C11 1_555 1_555
C12 C13 1_555 1_555
C17 C18 1_555 1_555
C19 C20 1_555 1_555
C24 C25 1_555 1_555
C26 C27 1_555 1_555
C27 C28 1_555 1_555
S5 O43 1_555 1_555
S5 O44 1_555 1_555
C33 C34 1_555 1_555
C38 C39 1_555 1_555
C40 C41 1_555 1_555
C45 C46 1_555 1_555
C47 C48 1_555 1_555
C52 C53 1_555 1_555
C54 C55 1_555 1_555
C55 C56 1_555 1_555
O17_2 Na3_2 1_555 1_555

#END
