
#######################################################################
#
#                 Cambridge Crystallographic Data Centre
#                                CCDC 
#
#######################################################################
#
# If this CIF has been generated from an entry in the Cambridge 
# Structural Database, then it will include bibliographic, chemical, 
# crystal, experimental, refinement or atomic coordinate data resulting 
# from the CCDC's data processing and validation procedures.
#
#######################################################################

data_VOYYOZ
_symmetry_cell_setting           triclinic
_symmetry_space_group_name_H-M   'P -1'
_symmetry_Int_Tables_number      2
_space_group_name_Hall           '-P 1'
loop_
_symmetry_equiv_pos_site_id
_symmetry_equiv_pos_as_xyz
1 x,y,z
2 -x,-y,-z
_cell_length_a                   13.1775(7)
_cell_length_b                   14.6764(8)
_cell_length_c                   19.1821(11)
_cell_angle_alpha                107.2080(10)
_cell_angle_beta                 92.5990(10)
_cell_angle_gamma                94.0460(10)
_cell_volume                     3526.35
loop_
_atom_site_label
_atom_site_type_symbol
_atom_site_fract_x
_atom_site_fract_y
_atom_site_fract_z
Tb1 Tb -0.37563(2) 0.38942(2) 0.083806(16)
N1 N -0.2840(4) 0.3499(4) 0.1910(3)
N2 N -0.2068(4) 0.4841(4) 0.1391(3)
O1 O -0.4522(6) 0.2985(5) -0.0339(3)
O2 O -0.5321(5) 0.4577(6) 0.0661(4)
O3 O -0.4487(4) 0.2546(4) 0.1091(3)
O4 O -0.3214(4) 0.5024(4) 0.0278(3)
O5 O -0.2454(5) 0.3042(5) 0.0276(4)
O6 O -0.4154(3) 0.4945(3) 0.1933(2)
C1 C -0.3408(5) 0.2888(5) 0.2168(4)
C2 C -0.2114(5) 0.4128(4) 0.2354(3)
C3 C -0.1520(5) 0.4689(4) 0.1946(3)
C4 C -0.1620(5) 0.5311(5) 0.0961(4)
H1 H -0.4607 0.3358 -0.0603
H2 H -0.5103 0.2718 -0.0291
H3 H -0.5593 0.4768 0.1068
H4 H -0.5729 0.4154 0.0357
C5 C -0.4251(6) 0.2273(6) 0.1645(5)
C6 C -0.2303(6) 0.5363(6) 0.0319(4)
C7 C -0.3247(6) 0.2857(5) 0.2877(4)
C8 C -0.1987(5) 0.4203(5) 0.3093(3)
C9 C -0.0477(5) 0.5005(5) 0.2083(3)
C10 C -0.0618(6) 0.5668(6) 0.1080(4)
O7 O -0.4672(6) 0.1598(5) 0.1799(4)
O8 O -0.1896(6) 0.5710(6) -0.0127(4)
H5 H -0.3602 0.2393 0.3037
C11 C -0.2544(5) 0.3533(5) 0.3343(4)
C12 C -0.1371(5) 0.5008(4) 0.3662(3)
C13 C 0.0219(5) 0.4734(5) 0.2607(3)
C14 C -0.0043(5) 0.5516(5) 0.1646(4)
H6 H -0.0332 0.6006 0.0786
Tb2 Tb -0.22318(2) 0.02048(2) -0.128934(18)
H7 H -0.2442 0.3541 0.3828
O9 O -0.1206(3) 0.5770(3) 0.3504(2)
O10 O -0.1101(4) 0.4885(4) 0.4256(2)
O11 O 0.0990(3) 0.5277(3) 0.2915(3)
O12 O 0.0050(3) 0.3918(3) 0.2702(3)
H8 H 0.0638 0.5755 0.1737
O13 O -0.1777(6) -0.0288(6) -0.0294(4)
Tb3 Tb -0.11568(2) 0.74350(2) 0.402200(17)
Tb4 Tb 0.17089(2) 0.39419(2) 0.333617(16)
C15 C -0.1614(10) -0.1248(11) -0.0476(8)
O14 O 0.2073(5) 0.3684(6) 0.2072(3)
O15 O 0.3142(4) 0.4997(4) 0.3387(3)
O16 O 0.0380(4) 0.3626(4) 0.4074(3)
O17 O 0.1247(5) 0.2332(4) 0.2880(3)
O18 O 0.2598(4) 0.3584(4) 0.4287(2)
O19 O 0.1694(4) 0.5379(3) 0.4437(2)
C16 C -0.0861(7) -0.1730(8) -0.0050(6)
O20 O -0.2247(12) -0.1947(12) -0.1002(10)
H9 H 0.2275 0.4223 0.2004
H10 H 0.1530 0.3442 0.1789
H11 H 0.2974 0.5583 0.3484
H12 H 0.3421 0.4848 0.2970
H13 H 0.0623 0.3377 0.4393
H14 H -0.0098 0.3232 0.3801
C17 C 0.1278(7) 0.1576(6) 0.2381(6)
C18 C 0.2419(5) 0.3318(5) 0.4825(3)
H15 H 0.2289 0.5720 0.4526
H16 H 0.1561 0.5206 0.4828
C19 C -0.0176(6) -0.1114(6) 0.0472(4)
C20 C -0.0577(8) -0.2583(8) -0.0460(6)
C21 C 0.0342(6) 0.1073(6) 0.1977(5)
O21 O 0.2133(5) 0.1207(5) 0.2217(5)
C22 C 0.3158(5) 0.3700(4) 0.5491(3)
O22 O 0.1642(4) 0.2810(3) 0.4889(2)
C23 C -0.0387(6) -0.0215(6) 0.1020(5)
N3 N 0.0787(5) -0.1334(4) 0.0525(3)
C24 C 0.0423(7) -0.2809(7) -0.0429(5)
H17 H -0.1064 -0.3027 -0.0768
C25 C -0.0575(7) 0.1474(7) 0.2096(6)
N4 N 0.0415(5) 0.0270(4) 0.1447(4)
C26 C 0.3903(5) 0.4427(5) 0.5548(4)
N5 N 0.2977(4) 0.3324(4) 0.6031(3)
C27 C -0.1325(7) 0.0136(7) 0.1128(6)
C28 C 0.1065(6) -0.2134(6) 0.0073(5)
H18 H 0.0641 -0.3374 -0.0727
O23 O 0.3760(5) 0.0542(5) 0.0979(4)
O24 O 0.1548(4) -0.1054(5) 0.2025(4)
O25 O 0.2777(4) -0.1626(4) 0.0552(4)
O26 O 0.3687(4) -0.0259(4) 0.2088(3)
H19 H -0.0624 0.2049 0.2459
C29 C -0.1405(8) 0.0992(8) 0.1658(7)
H20 H 0.4040 0.4647 0.5152
C30 C 0.4445(5) 0.4819(5) 0.6223(4)
C31 C 0.3532(4) 0.3669(5) 0.6674(3)
N6 N 0.2226(4) 0.2916(4) 0.7171(3)
O27 O -0.0410(4) 0.3023(4) 0.5572(3)
O28 O 0.0313(4) 0.1155(4) 0.5059(4)
O29 O 0.0275(4) 0.2278(4) 0.6930(3)
O30 O 0.2091(4) 0.1293(4) 0.5937(3)
C32 C -0.2265(12) -0.0313(12) 0.0681(9)
C33 C 0.2190(7) -0.2268(6) 0.0123(5)
H21 H 0.3983 0.0166 0.0593
H22 H 0.4220 0.0657 0.1334
H23 H 0.1973 -0.1009 0.2384
H24 H 0.1424 -0.1640 0.1776
H25 H -0.2034 0.1245 0.1719
H26 H 0.4943 0.5323 0.6284
C34 C 0.4254(4) 0.4473(5) 0.6800(3)
C35 C 0.3221(5) 0.3191(5) 0.7232(3)
C36 C 0.1836(5) 0.2501(5) 0.7649(4)
H27 H -0.0636 0.3453 0.5923
H28 H -0.0848 0.2535 0.5435
H29 H -0.0328 0.1199 0.5042
H30 H 0.0439 0.0655 0.5173
C37 C 0.0704(5) 0.2202(5) 0.7524(4)
C38 C 0.2211(5) 0.0486(5) 0.6008(4)
O31 O -0.2495(9) -0.1401(8) 0.0609(7)
O32 O -0.3122(8) -0.0120(10) 0.0720(8)
C39 C 0.4692(5) 0.5050(5) 0.7552(3)
C40 C 0.3895(5) 0.3003(5) 0.7765(4)
C41 C 0.2404(6) 0.2389(6) 0.8218(4)
O33 O 0.0288(4) 0.1890(5) 0.7973(3)
C42 C 0.3278(5) 0.0371(5) 0.6275(4)
O34 O 0.1547(4) -0.0180(4) 0.5930(4)
H31 H -0.2664 -0.1699 0.0181
Tb5 Tb 0.34449(2) -0.20674(2) 0.356137(17)
O35 O 0.5534(4) 0.5511(4) 0.7615(3)
C43 C 0.5024(5) 0.3161(5) 0.7785(4)
C44 C 0.3448(5) 0.2598(6) 0.8262(4)
H32 H 0.2096 0.2174 0.8574
C45 C 0.3373(5) -0.0064(5) 0.6817(4)
C46 C 0.4176(5) 0.0799(5) 0.6082(4)
O36 O 0.3275(4) -0.0727(3) 0.4574(3)
O37 O 0.5519(4) 0.3453(4) 0.8386(3)
O38 O 0.5412(4) 0.2967(4) 0.7176(3)
H33 H 0.3854 0.2468 0.8624
C47 C 0.4313(5) -0.0038(5) 0.7198(4)
H34 H 0.2800 -0.0382 0.6933
C48 C 0.4246(5) 0.1213(4) 0.5448(4)
N7 N 0.5060(4) 0.0874(4) 0.6476(3)
C49 C 0.2882(5) 0.0023(5) 0.4571(4)
C50 C 0.5127(5) 0.0477(5) 0.7017(4)
H35 H 0.4385 -0.0349 0.7553
C51 C 0.3618(5) 0.0922(5) 0.4810(4)
N8 N 0.5026(4) 0.1898(4) 0.5548(3)
O39 O 0.1999(4) 0.0093(4) 0.4348(3)
O40 O 0.6662(4) 0.3113(4) 0.5752(3)
O41 O 0.8303(4) 0.1772(4) 0.6359(3)
O42 O 0.7613(4) 0.3367(4) 0.7288(3)
O43 O 0.6774(4) 0.1251(4) 0.7289(3)
C52 C 0.6161(5) 0.0659(5) 0.7441(4)
C53 C 0.3741(6) 0.1426(5) 0.4300(4)
C54 C 0.5164(5) 0.2340(5) 0.5035(4)
C55 C 0.6075(5) 0.3065(5) 0.5192(4)
H36 H 0.8369 0.1159 0.6237
H37 H 0.8639 0.2042 0.6780
H38 H 0.7895 0.3175 0.7634
H39 H 0.7251 0.3838 0.7490
H40 H 0.3300 0.1277 0.3882
C56 C 0.4506(6) 0.2133(5) 0.4419(4)
O44 O 0.6215(5) 0.3571(4) 0.4787(3)
H41 H 0.4586 0.2478 0.4086
O13A O 0.1777(6) 0.0288(6) 0.0294(4)
Tb2A Tb 0.22318(2) -0.02048(2) 0.128934(18)
Tb3A Tb 0.11568(2) 0.25650(2) 0.597800(17)
O9A O 0.1206(3) 0.4230(3) 0.6496(2)
O5A O 0.2454(5) -0.3042(5) -0.0276(4)
Tb1A Tb 0.37563(2) -0.38942(2) -0.083806(16)
O6A O 0.4154(3) 0.5055(3) 0.8067(2)
Tb1A_2 Tb 0.37563(2) 0.61058(2) 0.916194(16)
Tb5A Tb 0.65551(2) 0.20674(2) 0.643863(17)
O36A O 0.6725(4) 0.0727(3) 0.5426(3)
O26A O 0.6313(4) 0.0259(4) 0.7912(3)
Tb2_2 Tb 0.77682(2) 0.02048(2) 0.871066(18)
O45 O 0.3389(6) 0.2975(6) 0.2913(4)
H42 H 0.3866 0.3355 0.2824
H43 H 0.3230 0.2502 0.2519
O46 O 0.5147(10) 0.8940(9) 0.0461(10)
H44 H 0.4680 0.9095 0.0755
H45 H 0.4985 0.9060 0.0065
O47 O 0.8204(7) 0.2065(6) 0.4501(3)
H46 H 0.8119 0.1507 0.4548
H47 H 0.8677 0.2082 0.4218
O48 O 0.7270(6) 0.4930(7) 0.8486(3)
H48 H 0.7165 0.5338 0.8888
H49 H 0.6893 0.4416 0.8432
loop_
_geom_bond_atom_site_label_1
_geom_bond_atom_site_label_2
_geom_bond_site_symmetry_1
_geom_bond_site_symmetry_2
Tb1 N1 1_555 1_555
N1 C1 1_555 1_555
N2 Tb1 1_555 1_555
O1 Tb1 1_555 1_555
O2 Tb1 1_555 1_555
O3 Tb1 1_555 1_555
O4 Tb1 1_555 1_555
O5 Tb1 1_555 1_555
O6 Tb1 1_555 1_555
C1 C5 1_555 1_555
C2 N1 1_555 1_555
C3 N2 1_555 1_555
C4 N2 1_555 1_555
H1 O1 1_555 1_555
H2 O1 1_555 1_555
H3 O2 1_555 1_555
H4 O2 1_555 1_555
C5 O3 1_555 1_555
C6 O4 1_555 1_555
C7 C1 1_555 1_555
C8 C2 1_555 1_555
C9 C3 1_555 1_555
C10 C4 1_555 1_555
O7 C5 1_555 1_555
O8 C6 1_555 1_555
H5 C7 1_555 1_555
C11 C7 1_555 1_555
C12 C8 1_555 1_555
C13 C9 1_555 1_555
C14 C9 1_555 1_555
H6 C10 1_555 1_555
Tb2 O13 1_555 1_555
H7 C11 1_555 1_555
O9 C12 1_555 1_555
O10 C12 1_555 1_555
O11 C13 1_555 1_555
O12 C13 1_555 1_555
H8 C14 1_555 1_555
O13 C15 1_555 1_555
Tb3 O9 1_555 1_555
Tb4 O11 1_555 1_555
C15 C16 1_555 1_555
O14 Tb4 1_555 1_555
O15 Tb4 1_555 1_555
O16 Tb4 1_555 1_555
O17 Tb4 1_555 1_555
O18 Tb4 1_555 1_555
O19 Tb4 1_555 1_555
C16 C19 1_555 1_555
O20 C15 1_555 1_555
H9 O14 1_555 1_555
H10 O14 1_555 1_555
H11 O15 1_555 1_555
H12 O15 1_555 1_555
H13 O16 1_555 1_555
H14 O16 1_555 1_555
C17 O17 1_555 1_555
C18 O18 1_555 1_555
H15 O19 1_555 1_555
H16 O19 1_555 1_555
C19 C23 1_555 1_555
C20 C16 1_555 1_555
C21 C17 1_555 1_555
O21 C17 1_555 1_555
C22 C18 1_555 1_555
O22 C18 1_555 1_555
C23 N4 1_555 1_555
N3 C19 1_555 1_555
C24 C20 1_555 1_555
H17 C20 1_555 1_555
C25 C21 1_555 1_555
N4 C21 1_555 1_555
C26 C22 1_555 1_555
N5 C22 1_555 1_555
C27 C23 1_555 1_555
C28 N3 1_555 1_555
H18 C24 1_555 1_555
O23 H21 1_555 1_555
O24 H23 1_555 1_555
O25 C33 1_555 1_555
O26 Tb2A 1_555 1_555
H19 C25 1_555 1_555
C29 C25 1_555 1_555
H20 C26 1_555 1_555
C30 C26 1_555 1_555
C31 N5 1_555 1_555
N6 C35 1_555 1_555
O27 H27 1_555 1_555
O28 H29 1_555 1_555
O29 C37 1_555 1_555
O30 C38 1_555 1_555
C32 C27 1_555 1_555
C33 C28 1_555 1_555
H22 O23 1_555 1_555
H24 O24 1_555 1_555
H25 C29 1_555 1_555
H26 C30 1_555 1_555
C34 C30 1_555 1_555
C35 C31 1_555 1_555
C36 N6 1_555 1_555
H28 O27 1_555 1_555
H30 O28 1_555 1_555
C37 C36 1_555 1_555
C38 C42 1_555 1_555
O31 C32 1_555 1_555
O32 C32 1_555 1_555
C39 C34 1_555 1_555
C40 C35 1_555 1_555
C41 C36 1_555 1_555
O33 C37 1_555 1_555
C42 C45 1_555 1_555
O34 C38 1_555 1_555
H31 O31 1_555 1_555
Tb5 O36 1_555 1_555
O35 C39 1_555 1_555
C43 C40 1_555 1_555
C44 C40 1_555 1_555
H32 C41 1_555 1_555
C45 C47 1_555 1_555
C46 C42 1_555 1_555
O36 C49 1_555 1_555
O37 C43 1_555 1_555
O38 C43 1_555 1_555
H33 C44 1_555 1_555
C47 C50 1_555 1_555
H34 C45 1_555 1_555
C48 C46 1_555 1_555
N7 C46 1_555 1_555
C49 C51 1_555 1_555
C50 N7 1_555 1_555
H35 C47 1_555 1_555
C51 C48 1_555 1_555
N8 C48 1_555 1_555
O39 C49 1_555 1_555
O40 C55 1_555 1_555
O41 H36 1_555 1_555
O42 H38 1_555 1_555
O43 C52 1_555 1_555
C52 C50 1_555 1_555
C53 C51 1_555 1_555
C54 N8 1_555 1_555
C55 C54 1_555 1_555
H37 O41 1_555 1_555
H39 O42 1_555 1_555
H40 C53 1_555 1_555
C56 C53 1_555 1_555
O44 C55 1_555 1_555
H41 C56 1_555 1_555
O45 H42 1_555 1_555
H43 O45 1_555 1_555
O46 H44 1_555 1_555
H45 O46 1_555 1_555
O47 H46 1_555 1_555
H47 O47 1_555 1_555
O48 H48 1_555 1_555
H49 O48 1_555 1_555
O13A Tb2A 1_555 1_555
Tb2A O21 1_555 1_555
Tb3A O22 1_555 1_555
O9A Tb3A 1_555 1_555
O5A C33 1_555 1_555
Tb1A O5A 1_555 1_555
O6A C39 1_555 1_555
Tb1A_2 O6A 1_555 1_555
Tb5A O38 1_555 1_555
O36A Tb5A 1_555 1_555
O26A C52 1_555 1_555
Tb2_2 O26A 1_555 1_555
C2 C3 1_555 1_555
C4 C6 1_555 1_555
C8 C11 1_555 1_555
C10 C14 1_555 1_555
O12 Tb4 1_555 1_555
N3 Tb2A 1_555 1_555
C24 C28 1_555 1_555
N4 Tb2A 1_555 1_555
N5 Tb3A 1_555 1_555
C27 C29 1_555 1_555
O23 Tb2A 1_555 1_555
O24 Tb2A 1_555 1_555
O25 Tb2A 1_555 1_555
C31 C34 1_555 1_555
N6 Tb3A 1_555 1_555
O27 Tb3A 1_555 1_555
O28 Tb3A 1_555 1_555
O29 Tb3A 1_555 1_555
O30 Tb3A 1_555 1_555
C41 C44 1_555 1_555
N7 Tb5A 1_555 1_555
N8 Tb5A 1_555 1_555
O40 Tb5A 1_555 1_555
O41 Tb5A 1_555 1_555
O42 Tb5A 1_555 1_555
O43 Tb5A 1_555 1_555
C54 C56 1_555 1_555

#END
