
#######################################################################
#
#                 Cambridge Crystallographic Data Centre
#                                CCDC 
#
#######################################################################
#
# If this CIF has been generated from an entry in the Cambridge 
# Structural Database, then it will include bibliographic, chemical, 
# crystal, experimental, refinement or atomic coordinate data resulting 
# from the CCDC's data processing and validation procedures.
#
#######################################################################

data_VOZBUJ
_symmetry_cell_setting           monoclinic
_symmetry_space_group_name_H-M   'P 21/c'
_symmetry_Int_Tables_number      14
_space_group_name_Hall           '-P 2ybc'
loop_
_symmetry_equiv_pos_site_id
_symmetry_equiv_pos_as_xyz
1 x,y,z
2 -x,1/2+y,1/2-z
3 -x,-y,-z
4 x,1/2-y,1/2+z
_cell_length_a                   11.907(2)
_cell_length_b                   18.087(4)
_cell_length_c                   19.130(4)
_cell_angle_alpha                90
_cell_angle_beta                 106.44(3)
_cell_angle_gamma                90
_cell_volume                     3951.44
loop_
_atom_site_label
_atom_site_type_symbol
_atom_site_fract_x
_atom_site_fract_y
_atom_site_fract_z
Cu1 Cu 0.24380(6) 0.07273(4) 0.22937(3)
Cu2 Cu 0.74477(6) 0.27494(4) 0.22977(3)
N1 N 0.6256(4) 0.2086(3) 0.2614(2)
N2 N 0.6584(4) 0.1683(3) 0.6391(2)
N3 N -0.0765(5) -0.0707(4) 0.3183(3)
N4 N 0.2968(4) 0.0744(3) 0.3307(2)
N5 N 0.3144(4) 0.0518(3) 0.4487(2)
N6 N -0.1392(4) 0.2081(3) 0.1962(2)
N7 N -0.1683(4) 0.1697(3) -0.1787(2)
N8 N 0.5546(7) -0.0865(6) 0.1439(6)
N9 N 0.1917(4) 0.0722(3) 0.1286(2)
N10 N 0.1719(4) 0.0458(3) 0.0104(2)
C1 C 0.5181(5) 0.2312(4) 0.2538(3)
H1 H 0.4912 0.2716 0.2236
C2 C 0.4426(5) 0.1991(3) 0.2876(3)
H2 H 0.3672 0.2175 0.2801
C3 C 0.4805(4) 0.1386(3) 0.3332(3)
C4 C 0.5933(5) 0.1124(3) 0.3397(3)
H3 H 0.6221 0.0713 0.3684
C5 C 0.6611(5) 0.1487(4) 0.3029(3)
H4 H 0.7358 0.1305 0.3072
C6 C 0.4018(4) 0.1031(3) 0.3708(3)
C7 C 0.4116(5) 0.0885(3) 0.4433(3)
C8 C 0.4995(4) 0.1147(3) 0.5094(3)
C9 C 0.5817(5) 0.1689(4) 0.5088(3)
H5 H 0.5862 0.1882 0.4646
C10 C 0.6565(5) 0.1943(4) 0.5728(3)
H6 H 0.7090 0.2316 0.5702
C11 C 0.5800(5) 0.1146(3) 0.6400(3)
H7 H 0.5777 0.0955 0.6847
C12 C 0.5036(5) 0.0871(3) 0.5776(3)
H8 H 0.4532 0.0490 0.5812
C13 C 0.2485(4) 0.0438(3) 0.3799(3)
C14 C 0.1357(5) 0.0055(3) 0.3594(3)
C15 C 0.0414(5) 0.0293(3) 0.3014(3)
H9 H 0.0479 0.0718 0.2755
C16 C -0.0587(5) -0.0102(4) 0.2837(4)
H10 H -0.1195 0.0061 0.2445
C17 C 0.0119(6) -0.0923(4) 0.3759(4)
H11 H 0.0005 -0.1334 0.4022
C18 C 0.1167(5) -0.0570(4) 0.3974(3)
H12 H 0.1754 -0.0743 0.4372
C19 C -0.0261(5) 0.2310(3) 0.2055(3)
H13 H 0.0017 0.2706 0.2365
C20 C 0.0480(5) 0.1984(3) 0.1714(3)
H14 H 0.1245 0.2154 0.1805
C21 C 0.0100(5) 0.1408(3) 0.1238(3)
C22 C -0.1033(4) 0.1166(3) 0.1133(3)
H15 H -0.1322 0.0776 0.0816
C23 C -0.1740(5) 0.1504(3) 0.1502(3)
H16 H -0.2497 0.1325 0.1429
C24 C 0.0896(5) 0.1044(3) 0.0876(3)
C25 C 0.0768(5) 0.0875(3) 0.0143(3)
C26 C -0.0100(5) 0.1142(3) -0.0498(3)
C27 C -0.0203(5) 0.0837(3) -0.1201(3)
H17 H 0.0266 0.0441 -0.1252
C28 C -0.0973(5) 0.1120(3) -0.1780(3)
H18 H -0.1026 0.0896 -0.2226
C29 C -0.1587(6) 0.1996(4) -0.1131(3)
H19 H -0.2058 0.2400 -0.1106
C30 C -0.0836(5) 0.1742(4) -0.0495(3)
H20 H -0.0817 0.1971 -0.0056
C31 C 0.2352(5) 0.0382(3) 0.0774(3)
C32 C 0.3453(5) -0.0027(4) 0.1000(3)
C33 C 0.3615(10) -0.0658(10) 0.0649(7)
H21 H 0.3010 -0.0832 0.0262
C34 C 0.4663(11) -0.1044(7) 0.0856(9)
H22 H 0.4757 -0.1447 0.0576
C35 C 0.5277(8) -0.0380(7) 0.1850(5)
H23 H 0.5787 -0.0317 0.2314
C36 C 0.4295(8) 0.0053(7) 0.1660(4)
H24 H 0.4191 0.0412 0.1985
Cu2_2 Cu -0.25523(6) 0.27494(4) 0.22977(3)
Cu2C Cu -0.25523(6) 0.22506(4) -0.27023(3)
Cu2C_2 Cu 0.74477(6) 0.22506(4) 0.72977(3)
N2C N 0.6584(4) 0.3317(3) 0.1391(2)
N6_2 N 0.8608(4) 0.2081(3) 0.1962(2)
N7C N 0.8317(4) 0.3303(3) 0.3213(2)
O1 O 0.2243(5) 0.0190(4) 0.5690(3)
H25 H 0.1667 0.0479 0.5521
O2 O 0.8806(8) 0.7846(6) 0.6104(5)
N11 N 0.7453(9) 0.7534(5) 0.4977(6)
C37 C 0.8864(7) 0.8269(5) 0.4868(4)
H26 H 0.8426 0.8235 0.4364
H27 H 0.9639 0.8080 0.4932
H28 H 0.8909 0.8777 0.5020
C38 C 0.8343(13) 0.7884(8) 0.5260(8)
C39 C 0.7028(9) 0.7571(7) 0.4138(5)
H29 H 0.7514 0.7907 0.3965
H30 H 0.6232 0.7741 0.3986
H31 H 0.7073 0.7088 0.3939
C40 C 0.6859(12) 0.7065(7) 0.5388(9)
H32 H 0.7250 0.7107 0.5900
H33 H 0.6880 0.6560 0.5239
H34 H 0.6060 0.7222 0.5296
O3 O 0.7508(6) 0.8280(4) 0.2378(5)
H35 H 0.7064 0.8428 0.1972
H36 H 0.7312 0.8392 0.2760
O4 O 0.8825(7) 0.1243(5) 0.4359(5)
H37 H 0.8414 0.1411 0.4621
H38 H 0.9005 0.0845 0.4179
loop_
_geom_bond_atom_site_label_1
_geom_bond_atom_site_label_2
_geom_bond_site_symmetry_1
_geom_bond_site_symmetry_2
Cu1 N4 1_555 1_555
Cu2 N1 1_555 1_555
N1 C1 1_555 1_555
N2 C10 1_555 1_555
N3 C16 1_555 1_555
N4 C6 1_555 1_555
N5 C7 1_555 1_555
N6 C19 1_555 1_555
N7 C28 1_555 1_555
N8 C34 1_555 1_555
N9 Cu1 1_555 1_555
N10 C25 1_555 1_555
C1 H1 1_555 1_555
C2 C1 1_555 1_555
H2 C2 1_555 1_555
C3 C2 1_555 1_555
C4 C3 1_555 1_555
H3 C4 1_555 1_555
C5 N1 1_555 1_555
H4 C5 1_555 1_555
C6 C3 1_555 1_555
C7 C6 1_555 1_555
C8 C7 1_555 1_555
C9 C8 1_555 1_555
H5 C9 1_555 1_555
C10 C9 1_555 1_555
H6 C10 1_555 1_555
C11 N2 1_555 1_555
H7 C11 1_555 1_555
C12 C8 1_555 1_555
H8 C12 1_555 1_555
C13 N4 1_555 1_555
C14 C13 1_555 1_555
C15 C14 1_555 1_555
H9 C15 1_555 1_555
C16 C15 1_555 1_555
H10 C16 1_555 1_555
C17 N3 1_555 1_555
H11 C17 1_555 1_555
C18 C14 1_555 1_555
H12 C18 1_555 1_555
C19 H13 1_555 1_555
C20 C19 1_555 1_555
H14 C20 1_555 1_555
C21 C20 1_555 1_555
C22 C21 1_555 1_555
H15 C22 1_555 1_555
C23 N6 1_555 1_555
H16 C23 1_555 1_555
C24 N9 1_555 1_555
C25 C24 1_555 1_555
C26 C25 1_555 1_555
C27 C26 1_555 1_555
H17 C27 1_555 1_555
C28 C27 1_555 1_555
H18 C28 1_555 1_555
C29 N7 1_555 1_555
H19 C29 1_555 1_555
C30 C26 1_555 1_555
H20 C30 1_555 1_555
C31 N9 1_555 1_555
C32 C31 1_555 1_555
C33 C32 1_555 1_555
H21 C33 1_555 1_555
C34 C33 1_555 1_555
H22 C34 1_555 1_555
C35 N8 1_555 1_555
H23 C35 1_555 1_555
C36 C32 1_555 1_555
H24 C36 1_555 1_555
O1 H25 1_555 1_555
O2 C38 1_555 1_555
N11 C38 1_555 1_555
C37 H26 1_555 1_555
H27 C37 1_555 1_555
H28 C37 1_555 1_555
C38 C37 1_555 1_555
C39 N11 1_555 1_555
H29 C39 1_555 1_555
H30 C39 1_555 1_555
H31 C39 1_555 1_555
C40 N11 1_555 1_555
H32 C40 1_555 1_555
H33 C40 1_555 1_555
H34 C40 1_555 1_555
O3 H35 1_555 1_555
H36 O3 1_555 1_555
O4 H37 1_555 1_555
H38 O4 1_555 1_555
Cu2_2 N6 1_555 1_555
Cu2C N7 1_555 1_555
Cu2C_2 N2 1_555 1_555
N2C Cu2 1_555 1_555
N6_2 Cu2 1_555 1_555
N7C Cu2 1_555 1_555
N5 C13 1_555 1_555
N10 C31 1_555 1_555
C4 C5 1_555 1_555
C11 C12 1_555 1_555
C17 C18 1_555 1_555
C21 C24 1_555 1_555
C22 C23 1_555 1_555
C29 C30 1_555 1_555
C35 C36 1_555 1_555

#END
