
#######################################################################
#
#                 Cambridge Crystallographic Data Centre
#                                CCDC 
#
#######################################################################
#
# If this CIF has been generated from an entry in the Cambridge 
# Structural Database, then it will include bibliographic, chemical, 
# crystal, experimental, refinement or atomic coordinate data resulting 
# from the CCDC's data processing and validation procedures.
#
#######################################################################

data_VOZCEU
_symmetry_cell_setting           monoclinic
_symmetry_space_group_name_H-M   'P 2/n'
_symmetry_Int_Tables_number      13
_space_group_name_Hall           '-P 2yac'
loop_
_symmetry_equiv_pos_site_id
_symmetry_equiv_pos_as_xyz
1 x,y,z
2 1/2-x,y,1/2-z
3 -x,-y,-z
4 1/2+x,-y,1/2+z
_cell_length_a                   11.624(2)
_cell_length_b                   10.279(2)
_cell_length_c                   18.340(4)
_cell_angle_alpha                90
_cell_angle_beta                 100.32(3)
_cell_angle_gamma                90
_cell_volume                     2155.87
loop_
_atom_site_label
_atom_site_type_symbol
_atom_site_fract_x
_atom_site_fract_y
_atom_site_fract_z
Zn1 Zn 0.7500 0.54341(4) -0.2500
O1 O 0.9295(2) 0.5461(2) -0.25060(14)
H1 H 0.9829 0.5606 -0.2134
H2 H 0.9598 0.5248 -0.2878
N1 N 0.7722(2) 0.6925(3) -0.16322(14)
N2 N 0.7787(2) 1.3914(3) -0.16378(13)
N3 N 0.9371(4) 1.0254(4) 0.35868(17)
N4 N 0.8398(3) 0.9312(2) 0.08201(14)
N5 N 0.8555(2) 1.1456(2) 0.08136(13)
H3 H 0.8662 1.2240 0.0975
C1 C 0.8370(3) 0.7984(3) -0.16716(17)
H4 H 0.8730 0.8082 -0.2082
C2 C 0.8534(3) 0.8943(3) -0.11360(17)
H5 H 0.8980 0.9674 -0.1194
C3 C 0.8027(3) 0.8808(3) -0.05095(16)
C4 C 0.7344(3) 0.7707(3) -0.04716(18)
H6 H 0.6982 0.7580 -0.0064
C5 C 0.7204(3) 0.6804(3) -0.10374(18)
H7 H 0.6732 0.6083 -0.1006
C6 C 0.8223(3) 0.9742(3) 0.01006(16)
C7 C 0.8319(3) 1.1080(3) 0.00861(15)
C8 C 0.8166(3) 1.2033(3) -0.05166(16)
C9 C 0.8864(3) 1.3137(3) -0.04874(17)
H8 H 0.9471 1.3268 -0.0089
C10 C 0.8650(3) 1.4031(3) -0.10496(18)
H9 H 0.9130 1.4759 -0.1022
C11 C 0.7121(3) 1.2846(3) -0.16649(16)
H10 H 0.6514 1.2746 -0.2066
C12 C 0.7285(3) 1.1891(3) -0.11337(17)
H11 H 0.6810 1.1156 -0.1186
C13 C 0.8589(3) 1.0370(3) 0.12293(16)
C14 C 0.8852(3) 1.0358(3) 0.20426(16)
C15 C 0.8978(4) 1.1474(4) 0.24649(18)
H12 H 0.8885 1.2287 0.2240
C16 C 0.9242(4) 1.1370(4) 0.3225(2)
H13 H 0.9336 1.2135 0.3501
C17 C 0.9238(4) 0.9187(4) 0.3177(2)
H14 H 0.9316 0.8388 0.3419
C18 C 0.8991(4) 0.9187(4) 0.2416(2)
H15 H 0.8919 0.8406 0.2155
O1A O 0.5705(2) 0.5461(2) -0.24940(14)
H1A H 0.5171 0.5606 -0.2866
H2A H 0.5402 0.5248 -0.2122
N1A N 0.7278(2) 0.6925(3) -0.33678(14)
N2A N 0.7213(2) 1.3914(3) -0.33622(13)
N3A N 0.5629(4) 1.0254(4) -0.85868(17)
N4A N 0.6602(3) 0.9312(2) -0.58201(14)
N5A N 0.6445(2) 1.1456(2) -0.58136(13)
H3A H 0.6338 1.2240 -0.5975
C1A C 0.6630(3) 0.7984(3) -0.33284(17)
H4A H 0.6270 0.8082 -0.2918
C2A C 0.6466(3) 0.8943(3) -0.38640(17)
H5A H 0.6020 0.9674 -0.3806
C3A C 0.6973(3) 0.8808(3) -0.44905(16)
C4A C 0.7656(3) 0.7707(3) -0.45284(18)
H6A H 0.8018 0.7580 -0.4936
C5A C 0.7796(3) 0.6804(3) -0.39626(18)
H7A H 0.8268 0.6083 -0.3994
C6A C 0.6777(3) 0.9742(3) -0.51006(16)
C7A C 0.6681(3) 1.1080(3) -0.50861(15)
C8A C 0.6834(3) 1.2033(3) -0.44834(16)
C9A C 0.6136(3) 1.3137(3) -0.45126(17)
H8A H 0.5529 1.3268 -0.4911
C10A C 0.6350(3) 1.4031(3) -0.39504(18)
H9A H 0.5870 1.4759 -0.3978
C11A C 0.7879(3) 1.2846(3) -0.33351(16)
H10A H 0.8486 1.2746 -0.2934
C12A C 0.7715(3) 1.1891(3) -0.38663(17)
H11A H 0.8190 1.1156 -0.3814
C13A C 0.6411(3) 1.0370(3) -0.62293(16)
C14A C 0.6148(3) 1.0358(3) -0.70426(16)
C15A C 0.6022(4) 1.1474(4) -0.74649(18)
H12A H 0.6115 1.2287 -0.7240
C16A C 0.5758(4) 1.1370(4) -0.8225(2)
H13A H 0.5664 1.2135 -0.8501
C17A C 0.5762(4) 0.9187(4) -0.8177(2)
H14A H 0.5684 0.8388 -0.8419
C18A C 0.6009(4) 0.9187(4) -0.7416(2)
H15A H 0.6081 0.8406 -0.7155
Zn1_2 Zn 0.7500 1.54341(4) -0.2500
N2_2 N 0.7787(2) 0.3914(3) -0.16378(13)
N2A_2 N 0.7213(2) 0.3914(3) -0.33622(13)
O2 O 0.1761(5) 0.3960(5) 0.8476(4)
O3 O 0.2882(3) 0.5812(4) 0.8941(3)
O4 O 0.0972(2) 0.6021(2) 0.86709(14)
N6 N 0.1890(4) 0.5362(3) 0.8719(2)
O5 O 0.4531(4) 0.6855(7) 0.0089(3)
H16 H 0.4403 0.7608 0.0035
H17 H 0.4202 0.6160 0.0124
O6 O 0.0240(3) 0.4479(4) 0.6403(2)
H18 H 0.0844 0.4798 0.6270
H19 H -0.0059 0.4098 0.6003
O7? O 0.0274(11) 0.9266(8) 0.4935(4)
H20? H 0.0238 0.9786 0.5481
loop_
_geom_bond_atom_site_label_1
_geom_bond_atom_site_label_2
_geom_bond_site_symmetry_1
_geom_bond_site_symmetry_2
Zn1 O1 1_555 1_555
O1 H1 1_555 1_555
H2 O1 1_555 1_555
N1 Zn1 1_555 1_555
N2 C10 1_555 1_555
N3 C16 1_555 1_555
N4 C6 1_555 1_555
N5 H3 1_555 1_555
C1 N1 1_555 1_555
H4 C1 1_555 1_555
C2 C1 1_555 1_555
H5 C2 1_555 1_555
C3 C2 1_555 1_555
C4 C3 1_555 1_555
H6 C4 1_555 1_555
C5 N1 1_555 1_555
H7 C5 1_555 1_555
C6 C3 1_555 1_555
C7 N5 1_555 1_555
C8 C7 1_555 1_555
C9 C8 1_555 1_555
H8 C9 1_555 1_555
C10 C9 1_555 1_555
H9 C10 1_555 1_555
C11 N2 1_555 1_555
H10 C11 1_555 1_555
C12 C8 1_555 1_555
H11 C12 1_555 1_555
C13 N4 1_555 1_555
C14 C13 1_555 1_555
C15 C14 1_555 1_555
H12 C15 1_555 1_555
C16 C15 1_555 1_555
H13 C16 1_555 1_555
C17 N3 1_555 1_555
H14 C17 1_555 1_555
C18 C14 1_555 1_555
H15 C18 1_555 1_555
O2 N6 1_555 1_555
O3 N6 1_555 1_555
O4 N6 1_555 1_555
O5 H16 1_555 1_555
H17 O5 1_555 1_555
O6 H18 1_555 1_555
H19 O6 1_555 1_555
O1A Zn1 1_555 1_555
H1A O1A 1_555 1_555
H2A O1A 1_555 1_555
N1A Zn1 1_555 1_555
N2A C10A 1_555 1_555
N3A C16A 1_555 1_555
N4A C6A 1_555 1_555
N5A H3A 1_555 1_555
C1A N1A 1_555 1_555
H4A C1A 1_555 1_555
C2A C1A 1_555 1_555
H5A C2A 1_555 1_555
C3A C2A 1_555 1_555
C4A C3A 1_555 1_555
H6A C4A 1_555 1_555
C5A N1A 1_555 1_555
H7A C5A 1_555 1_555
C6A C3A 1_555 1_555
C7A N5A 1_555 1_555
C8A C7A 1_555 1_555
C9A C8A 1_555 1_555
H8A C9A 1_555 1_555
C10A C9A 1_555 1_555
H9A C10A 1_555 1_555
C11A N2A 1_555 1_555
H10A C11A 1_555 1_555
C12A C8A 1_555 1_555
H11A C12A 1_555 1_555
C13A N4A 1_555 1_555
C14A C13A 1_555 1_555
C15A C14A 1_555 1_555
H12A C15A 1_555 1_555
C16A C15A 1_555 1_555
H13A C16A 1_555 1_555
C17A N3A 1_555 1_555
H14A C17A 1_555 1_555
C18A C14A 1_555 1_555
H15A C18A 1_555 1_555
Zn1_2 N2 1_555 1_555
N2_2 Zn1 1_555 1_555
N2A_2 Zn1 1_555 1_555
N5 C13 1_555 1_555
C4 C5 1_555 1_555
C6 C7 1_555 1_555
C11 C12 1_555 1_555
C17 C18 1_555 1_555
N2A Zn1_2 1_555 1_555
N5A C13A 1_555 1_555
C4A C5A 1_555 1_555
C6A C7A 1_555 1_555
C11A C12A 1_555 1_555
C17A C18A 1_555 1_555

#END
