
#######################################################################
#
#                 Cambridge Crystallographic Data Centre
#                                CCDC 
#
#######################################################################
#
# If this CIF has been generated from an entry in the Cambridge 
# Structural Database, then it will include bibliographic, chemical, 
# crystal, experimental, refinement or atomic coordinate data resulting 
# from the CCDC's data processing and validation procedures.
#
#######################################################################

data_VOZCAQ
_symmetry_cell_setting           monoclinic
_symmetry_space_group_name_H-M   'P 2/c'
_symmetry_Int_Tables_number      13
_space_group_name_Hall           '-P 2yc'
loop_
_symmetry_equiv_pos_site_id
_symmetry_equiv_pos_as_xyz
1 x,y,z
2 -x,y,1/2-z
3 -x,-y,-z
4 x,-y,1/2+z
_cell_length_a                   14.660(3)
_cell_length_b                   9.965(2)
_cell_length_c                   14.652(3)
_cell_angle_alpha                90
_cell_angle_beta                 93.90(3)
_cell_angle_gamma                90
_cell_volume                     2135.51
loop_
_atom_site_label
_atom_site_type_symbol
_atom_site_fract_x
_atom_site_fract_y
_atom_site_fract_z
Cu1 Cu 0.5000 0.64183(7) 0.7500
O1 O 0.4285(2) 0.6362(4) 0.5921(2)
H1 H 0.4562 0.6839 0.6333
H2 H 0.4452 0.6685 0.5422
N1 N 0.5881(2) 0.4972(3) 0.7163(2)
N2 N 0.5931(2) -0.2175(3) 0.7191(2)
N3 N 1.1966(3) 0.1405(6) 0.5496(3)
H3 H 1.2517 0.1403 0.5330
N4 N 0.8764(2) 0.2504(4) 0.6378(2)
H4 H 0.8932 0.3320 0.6296
N5 N 0.8837(2) 0.0290(4) 0.6476(2)
C1 C 0.6328(3) 0.5020(4) 0.6391(3)
H5 H 0.6177 0.5702 0.5974
C2 C 0.6990(3) 0.4130(4) 0.6183(3)
H6 H 0.7296 0.4237 0.5652
C3 C 0.7206(3) 0.3053(4) 0.6772(3)
C4 C 0.6718(3) 0.2957(4) 0.7555(3)
H7 H 0.6824 0.2244 0.7957
C5 C 0.6081(3) 0.3914(4) 0.7731(3)
H8 H 0.5771 0.3837 0.8262
C6 C 0.7924(3) 0.2101(4) 0.6602(3)
C7 C 0.7975(3) 0.0713(5) 0.6649(3)
C8 C 0.7267(3) -0.0247(4) 0.6835(3)
C9 C 0.6340(3) -0.0068(4) 0.6553(3)
H9 H 0.6154 0.0705 0.6236
C10 C 0.5705(3) -0.1026(4) 0.6742(3)
H10 H 0.5095 -0.0877 0.6552
C11 C 0.6826(3) -0.2356(4) 0.7446(3)
H11 H 0.6995 -0.3140 0.7757
C12 C 0.7493(3) -0.1464(4) 0.7276(3)
H12 H 0.8101 -0.1660 0.7451
C13 C 0.9294(3) 0.1395(4) 0.6306(3)
C14 C 1.0234(3) 0.1414(5) 0.6037(3)
C15 C 1.0645(3) 0.2601(6) 0.5787(4)
H13 H 1.0335 0.3413 0.5812
C16 C 1.1519(4) 0.2554(7) 0.5503(4)
H14 H 1.1797 0.3336 0.5314
C17 C 1.1596(3) 0.0255(7) 0.5736(3)
H15 H 1.1931 -0.0536 0.5717
C18 C 1.0725(3) 0.0225(5) 0.6012(3)
H16 H 1.0464 -0.0581 0.6180
O1A O 0.5715(2) 0.6362(4) 0.9079(2)
H1A H 0.5438 0.6839 0.8667
H2A H 0.5548 0.6685 0.9578
N1A N 0.4119(2) 0.4972(3) 0.7837(2)
N2A N 0.4069(2) -0.2175(3) 0.7809(2)
N3A N -0.1966(3) 0.1405(6) 0.9504(3)
H3A H -0.2517 0.1403 0.9670
N4A N 0.1236(2) 0.2504(4) 0.8622(2)
H4A H 0.1068 0.3320 0.8704
N5A N 0.1163(2) 0.0290(4) 0.8524(2)
C1A C 0.3672(3) 0.5020(4) 0.8609(3)
H5A H 0.3823 0.5702 0.9026
C2A C 0.3010(3) 0.4130(4) 0.8817(3)
H6A H 0.2704 0.4237 0.9348
C3A C 0.2794(3) 0.3053(4) 0.8228(3)
C4A C 0.3282(3) 0.2957(4) 0.7445(3)
H7A H 0.3176 0.2244 0.7043
C5A C 0.3919(3) 0.3914(4) 0.7269(3)
H8A H 0.4229 0.3837 0.6738
C6A C 0.2076(3) 0.2101(4) 0.8398(3)
C7A C 0.2025(3) 0.0713(5) 0.8351(3)
C8A C 0.2733(3) -0.0247(4) 0.8165(3)
C9A C 0.3660(3) -0.0068(4) 0.8447(3)
H9A H 0.3846 0.0705 0.8764
C10A C 0.4295(3) -0.1026(4) 0.8258(3)
H10A H 0.4905 -0.0877 0.8448
C11A C 0.3174(3) -0.2356(4) 0.7554(3)
H11A H 0.3005 -0.3140 0.7243
C12A C 0.2507(3) -0.1464(4) 0.7724(3)
H12A H 0.1899 -0.1660 0.7549
C13A C 0.0706(3) 0.1395(4) 0.8694(3)
C14A C -0.0234(3) 0.1414(5) 0.8963(3)
C15A C -0.0645(3) 0.2601(6) 0.9213(4)
H13A H -0.0335 0.3413 0.9188
C16A C -0.1519(4) 0.2554(7) 0.9497(4)
H14A H -0.1797 0.3336 0.9686
C17A C -0.1596(3) 0.0255(7) 0.9264(3)
H15A H -0.1931 -0.0536 0.9283
C18A C -0.0725(3) 0.0225(5) 0.8988(3)
H16A H -0.0464 -0.0581 0.8820
Cu1_2 Cu 0.5000 -0.35817(7) 0.7500
N2_2 N 0.5931(2) 0.7825(3) 0.7191(2)
N2A_2 N 0.4069(2) 0.7825(3) 0.7809(2)
O2 O 1.5013(2) 0.2109(5) 0.5485(3)
O3 O 1.3937(2) 0.0741(4) 0.5811(3)
O4 O 1.3616(2) 0.2518(4) 0.5062(2)
N6 N 1.4197(3) 0.1770(5) 0.5449(3)
O5 O 0.9169(3) 0.4747(4) 0.1487(3)
H17 H 0.9340 0.5006 0.2024
H18 H 0.9690 0.4389 0.1444
O6 O 0.7872(4) 0.3342(8) 0.4288(4)
O7 O 0.8384(5) 0.4552(7) 0.3276(6)
O8 O 0.9243(5) 0.3268(8) 0.3971(7)
N7 N 0.8505(4) 0.3730(7) 0.3924(5)
loop_
_geom_bond_atom_site_label_1
_geom_bond_atom_site_label_2
_geom_bond_site_symmetry_1
_geom_bond_site_symmetry_2
Cu1 O1 1_555 1_555
O1 H1 1_555 1_555
H2 O1 1_555 1_555
N1 Cu1 1_555 1_555
N2 C10 1_555 1_555
N3 H3 1_555 1_555
N4 H4 1_555 1_555
N5 C7 1_555 1_555
C1 N1 1_555 1_555
H5 C1 1_555 1_555
C2 C1 1_555 1_555
H6 C2 1_555 1_555
C3 C2 1_555 1_555
C4 C3 1_555 1_555
H7 C4 1_555 1_555
C5 N1 1_555 1_555
H8 C5 1_555 1_555
C6 N4 1_555 1_555
C7 C6 1_555 1_555
C8 C7 1_555 1_555
C9 C8 1_555 1_555
H9 C9 1_555 1_555
C10 C9 1_555 1_555
H10 C10 1_555 1_555
C11 N2 1_555 1_555
H11 C11 1_555 1_555
C12 C8 1_555 1_555
H12 C12 1_555 1_555
C13 N4 1_555 1_555
C14 C13 1_555 1_555
C15 C14 1_555 1_555
H13 C15 1_555 1_555
C16 N3 1_555 1_555
H14 C16 1_555 1_555
C17 N3 1_555 1_555
H15 C17 1_555 1_555
C18 C14 1_555 1_555
H16 C18 1_555 1_555
O2 N6 1_555 1_555
O3 N6 1_555 1_555
O4 N6 1_555 1_555
O5 H17 1_555 1_555
H18 O5 1_555 1_555
O6 N7 1_555 1_555
O7 N7 1_555 1_555
O8 N7 1_555 1_555
O1A Cu1 1_555 1_555
H1A O1A 1_555 1_555
H2A O1A 1_555 1_555
N1A Cu1 1_555 1_555
N2A C10A 1_555 1_555
N3A H3A 1_555 1_555
N4A H4A 1_555 1_555
N5A C7A 1_555 1_555
C1A N1A 1_555 1_555
H5A C1A 1_555 1_555
C2A C1A 1_555 1_555
H6A C2A 1_555 1_555
C3A C2A 1_555 1_555
C4A C3A 1_555 1_555
H7A C4A 1_555 1_555
C5A N1A 1_555 1_555
H8A C5A 1_555 1_555
C6A N4A 1_555 1_555
C7A C6A 1_555 1_555
C8A C7A 1_555 1_555
C9A C8A 1_555 1_555
H9A C9A 1_555 1_555
C10A C9A 1_555 1_555
H10A C10A 1_555 1_555
C11A N2A 1_555 1_555
H11A C11A 1_555 1_555
C12A C8A 1_555 1_555
H12A C12A 1_555 1_555
C13A N4A 1_555 1_555
C14A C13A 1_555 1_555
C15A C14A 1_555 1_555
H13A C15A 1_555 1_555
C16A N3A 1_555 1_555
H14A C16A 1_555 1_555
C17A N3A 1_555 1_555
H15A C17A 1_555 1_555
C18A C14A 1_555 1_555
H16A C18A 1_555 1_555
Cu1_2 N2 1_555 1_555
N2_2 Cu1 1_555 1_555
N2A_2 Cu1 1_555 1_555
N5 C13 1_555 1_555
C3 C6 1_555 1_555
C4 C5 1_555 1_555
C11 C12 1_555 1_555
C15 C16 1_555 1_555
C17 C18 1_555 1_555
N2A Cu1_2 1_555 1_555
N5A C13A 1_555 1_555
C3A C6A 1_555 1_555
C4A C5A 1_555 1_555
C11A C12A 1_555 1_555
C15A C16A 1_555 1_555
C17A C18A 1_555 1_555

#END
