
#######################################################################
#
#                 Cambridge Crystallographic Data Centre
#                                CCDC 
#
#######################################################################
#
# If this CIF has been generated from an entry in the Cambridge 
# Structural Database, then it will include bibliographic, chemical, 
# crystal, experimental, refinement or atomic coordinate data resulting 
# from the CCDC's data processing and validation procedures.
#
#######################################################################

data_VOZCOE
_symmetry_cell_setting           monoclinic
_symmetry_space_group_name_H-M   'C 2/c'
_symmetry_Int_Tables_number      15
_space_group_name_Hall           '-C 2yn'
loop_
_symmetry_equiv_pos_site_id
_symmetry_equiv_pos_as_xyz
1 x,y,z
2 -x,y,1/2-z
3 1/2+x,1/2+y,z
4 1/2-x,1/2+y,1/2-z
5 -x,-y,-z
6 x,-y,1/2+z
7 1/2-x,1/2-y,-z
8 1/2+x,1/2-y,1/2+z
_cell_length_a                   15.2325(5)
_cell_length_b                   22.3277(8)
_cell_length_c                   15.8950(6)
_cell_angle_alpha                90
_cell_angle_beta                 102.4140(10)
_cell_angle_gamma                90
_cell_volume                     5279.6
loop_
_atom_site_label
_atom_site_type_symbol
_atom_site_fract_x
_atom_site_fract_y
_atom_site_fract_z
Cd1 Cd 0.212865(4) 0.002137(3) 0.836241(4)
N1 N 0.20095(6) 0.09411(4) 0.77350(6)
N2 N 0.23133(6) 0.17418(4) 0.70578(6)
N3 N 0.18265(5) -0.05876(4) 0.72249(5)
N4 N 0.20064(5) -0.10874(4) 0.60872(5)
C1 C 0.39419(7) -0.00595(5) 0.90677(7)
C2 C 0.49114(8) -0.00945(6) 0.95430(8)
H1 H 0.5115 -0.0504 0.9518
H2 H 0.5268 0.0154 0.9243
C3 C 0.08217(7) -0.02050(5) 0.92602(7)
C4 C 0.01267(7) -0.02807(5) 0.98012(7)
H3 H -0.0411 -0.0452 0.9443
H4 H 0.0354 -0.0565 1.0257
C5 C 0.13021(7) 0.10569(5) 0.70547(8)
H5 H 0.0779 0.0830 0.6911
C6 C 0.14806(8) 0.15455(6) 0.66317(8)
H6 H 0.1115 0.1717 0.6148
C7 C 0.26078(7) 0.13684(5) 0.77230(6)
C8 C 0.34733(8) 0.14471(6) 0.83576(8)
H7 H 0.3529 0.1144 0.8794
H8 H 0.3486 0.1835 0.8620
H9 H 0.3963 0.1413 0.8069
C9 C 0.27881(8) 0.22746(5) 0.68372(8)
H10 H 0.3429 0.2224 0.7058
H11 H 0.2597 0.2623 0.7116
C10 C 0.26156(7) 0.23852(5) 0.58753(7)
C11 C 0.30387(7) 0.20194(5) 0.53666(8)
C12 C 0.36230(9) 0.15002(6) 0.57638(10)
H12 H 0.4230 0.1568 0.5708
H13 H 0.3402 0.1136 0.5473
H14 H 0.3607 0.1468 0.6363
C13 C 0.20704(7) 0.28631(5) 0.55164(8)
C14 C 0.15939(10) 0.32484(7) 0.60638(9)
H15 H 0.1954 0.3595 0.6260
H16 H 0.1503 0.3022 0.6551
H17 H 0.1023 0.3373 0.5727
C15 C 0.22029(6) -0.05779(4) 0.65448(6)
C16 C 0.27446(8) -0.00813(5) 0.63011(7)
H18 H 0.2756 0.0246 0.6694
H19 H 0.2482 0.0049 0.5727
H20 H 0.3347 -0.0218 0.6325
C17 C 0.13683(7) -0.11246(5) 0.71848(7)
H21 H 0.1039 -0.1253 0.7580
C18 C 0.14714(7) -0.14325(5) 0.64866(7)
H22 H 0.1229 -0.1805 0.6309
C19 C 0.22789(8) -0.12281(5) 0.52732(7)
H23 H 0.2848 -0.1033 0.5271
H24 H 0.1834 -0.1068 0.4796
C20 C 0.23754(7) -0.18952(4) 0.51447(6)
C21 C 0.17161(7) -0.22066(5) 0.45669(7)
C22 C 0.08544(8) -0.19012(6) 0.41186(9)
H25 H 0.0796 -0.1526 0.4396
H26 H 0.0351 -0.2153 0.4150
H27 H 0.0869 -0.1832 0.3526
C23 C 0.31571(7) -0.21844(5) 0.55845(7)
C24 C 0.38583(9) -0.18422(6) 0.62254(10)
H28 H 0.4301 -0.1683 0.5939
H29 H 0.4144 -0.2107 0.6678
H30 H 0.3575 -0.1520 0.6466
O1 O 0.12729(6) -0.06467(4) 0.91238(5)
O2 O 0.09394(5) 0.02926(4) 0.89675(5)
O3 O 0.33429(5) 0.00552(4) 0.94637(5)
O4 O 0.37655(6) -0.01379(5) 0.82800(6)
N1F N 0.29905(6) 0.40589(4) 0.22650(6)
N2F N 0.26867(6) 0.32582(4) 0.29422(6)
C5F C 0.36979(7) 0.39431(5) 0.29453(8)
H5F H 0.4221 0.4170 0.3089
C6F C 0.35194(8) 0.34545(6) 0.33683(8)
H6F H 0.3885 0.3283 0.3852
C7F C 0.23922(7) 0.36316(5) 0.22770(6)
C8F C 0.15267(8) 0.35529(6) 0.16424(8)
H7F H 0.1471 0.3856 0.1206
H8F H 0.1514 0.3165 0.1380
H9F H 0.1037 0.3587 0.1931
C9F C 0.22119(8) 0.27254(5) 0.31628(8)
H10F H 0.1571 0.2776 0.2942
H11F H 0.2403 0.2377 0.2884
C10F C 0.23844(7) 0.26148(5) 0.41247(7)
C11F C 0.19613(7) 0.29806(5) 0.46334(8)
C12F C 0.13770(9) 0.34998(6) 0.42362(10)
H12F H 0.0770 0.3432 0.4292
H13F H 0.1598 0.3864 0.4527
H14F H 0.1393 0.3532 0.3637
C13F C 0.29296(7) 0.21369(5) 0.44836(8)
C14F C 0.34061(10) 0.17516(7) 0.39362(9)
H15F H 0.3046 0.1405 0.3740
H16F H 0.3497 0.1978 0.3449
H17F H 0.3977 0.1627 0.4273
N3F N 0.31735(5) -0.44124(4) 0.27751(5)
N4F N 0.29936(5) -0.39126(4) 0.39128(5)
C15F C 0.27971(6) -0.44221(4) 0.34552(6)
C16F C 0.22554(8) -0.49187(5) 0.36989(7)
H18F H 0.2244 -0.5246 0.3306
H19F H 0.2518 -0.5049 0.4273
H20F H 0.1653 -0.4782 0.3675
C17F C 0.36317(7) -0.38754(5) 0.28152(7)
H21F H 0.3961 -0.3747 0.2420
C18F C 0.35286(7) -0.35675(5) 0.35134(7)
H22F H 0.3771 -0.3195 0.3691
C19F C 0.27211(8) -0.37719(5) 0.47268(7)
H23F H 0.2152 -0.3967 0.4729
H24F H 0.3166 -0.3932 0.5204
C20F C 0.26246(7) -0.31048(4) 0.48553(6)
C21F C 0.32839(7) -0.27934(5) 0.54331(7)
C22F C 0.41456(8) -0.30988(6) 0.58814(9)
H25F H 0.4204 -0.3474 0.5604
H26F H 0.4649 -0.2847 0.5850
H27F H 0.4131 -0.3168 0.6474
C23F C 0.18429(7) -0.28156(5) 0.44155(7)
C24F C 0.11417(9) -0.31578(6) 0.37746(10)
H28F H 0.0699 -0.3317 0.4061
H29F H 0.0856 -0.2893 0.3322
H30F H 0.1425 -0.3480 0.3534
C1D C 0.60581(7) 0.00595(5) 1.09323(7)
C2D C 0.50886(8) 0.00945(6) 1.04570(8)
H1D H 0.4885 0.0504 1.0482
H2D H 0.4732 -0.0154 1.0757
O3D O 0.66571(5) -0.00552(4) 1.05363(5)
O4D O 0.62345(6) 0.01379(5) 1.17200(6)
C3D C -0.08217(7) 0.02050(5) 1.07398(7)
C4D C -0.01267(7) 0.02807(5) 1.01988(7)
H3D H 0.0411 0.0452 1.0557
H4D H -0.0354 0.0565 0.9743
O1D O -0.12729(6) 0.06467(4) 1.08762(5)
O2D O -0.09394(5) -0.02926(4) 1.10325(5)
Cd1D Cd -0.212865(4) -0.002137(3) 1.163759(4)
Cd1D_2 Cd 0.787135(4) -0.002137(3) 1.163759(4)
Cd1F Cd 0.287135(4) -0.502137(3) 0.163759(4)
Cd1F_2 Cd 0.287135(4) 0.497863(3) 0.163759(4)
N1D N -0.20095(6) -0.09411(4) 1.22650(6)
N3D N -0.18265(5) 0.05876(4) 1.27751(5)
O3D_2 O -0.33429(5) -0.00552(4) 1.05363(5)
O4D_2 O -0.37655(6) 0.01379(5) 1.17200(6)
O5 O 0.5000 0.05988(14) 0.7500
H31 H 0.4441 0.0520 0.7389
H31A H 0.5559 0.0520 0.7611
O6 O 0.5000 0.91575(11) 0.7500
H32 H 0.4538 0.9314 0.7629
H32A H 0.5462 0.9314 0.7371
O7 O 0.0000 0.75913(7) 0.7500
H33 H 0.0176 0.7888 0.7828
H33A H -0.0176 0.7888 0.7172
O8 O 0.06202(6) -0.18016(4) 0.91580(7)
H34 H 0.1080 -0.2025 0.9304
H35 H 0.0785 -0.1438 0.9164
H36? H 0.5296 0.0278 0.7484
H37? H 0.0139 0.7268 0.7778
H38? H 0.5463 0.9358 0.7731
loop_
_geom_bond_atom_site_label_1
_geom_bond_atom_site_label_2
_geom_bond_site_symmetry_1
_geom_bond_site_symmetry_2
Cd1 N1 1_555 1_555
N1 C5 1_555 1_555
N2 C6 1_555 1_555
N3 Cd1 1_555 1_555
N4 C15 1_555 1_555
C1 C2 1_555 1_555
C2 H1 1_555 1_555
H2 C2 1_555 1_555
C3 C4 1_555 1_555
C4 H3 1_555 1_555
H4 C4 1_555 1_555
C5 H5 1_555 1_555
C6 C5 1_555 1_555
H6 C6 1_555 1_555
C7 N1 1_555 1_555
C8 C7 1_555 1_555
H7 C8 1_555 1_555
H8 C8 1_555 1_555
H9 C8 1_555 1_555
C9 N2 1_555 1_555
H10 C9 1_555 1_555
H11 C9 1_555 1_555
C10 C9 1_555 1_555
C11 C10 1_555 1_555
C12 C11 1_555 1_555
H12 C12 1_555 1_555
H13 C12 1_555 1_555
H14 C12 1_555 1_555
C13 C10 1_555 1_555
C14 C13 1_555 1_555
H15 C14 1_555 1_555
H16 C14 1_555 1_555
H17 C14 1_555 1_555
C15 N3 1_555 1_555
C16 C15 1_555 1_555
H18 C16 1_555 1_555
H19 C16 1_555 1_555
H20 C16 1_555 1_555
C17 N3 1_555 1_555
H21 C17 1_555 1_555
C18 N4 1_555 1_555
H22 C18 1_555 1_555
C19 N4 1_555 1_555
H23 C19 1_555 1_555
H24 C19 1_555 1_555
C20 C19 1_555 1_555
C21 C20 1_555 1_555
C22 C21 1_555 1_555
H25 C22 1_555 1_555
H26 C22 1_555 1_555
H27 C22 1_555 1_555
C23 C20 1_555 1_555
C24 C23 1_555 1_555
H28 C24 1_555 1_555
H29 C24 1_555 1_555
H30 C24 1_555 1_555
O1 Cd1 1_555 1_555
O2 Cd1 1_555 1_555
O3 Cd1 1_555 1_555
O4 Cd1 1_555 1_555
O5 H31 1_555 1_555
O6 H32 1_555 1_555
O7 H33 1_555 1_555
O8 H34 1_555 1_555
H35 O8 1_555 1_555
N1F C5F 1_555 1_555
N2F C6F 1_555 1_555
C5F H5F 1_555 1_555
C6F C5F 1_555 1_555
H6F C6F 1_555 1_555
C7F N1F 1_555 1_555
C8F C7F 1_555 1_555
H7F C8F 1_555 1_555
H8F C8F 1_555 1_555
H9F C8F 1_555 1_555
C9F N2F 1_555 1_555
H10F C9F 1_555 1_555
H11F C9F 1_555 1_555
C10F C9F 1_555 1_555
C11F C13 1_555 1_555
C12F C11F 1_555 1_555
H12F C12F 1_555 1_555
H13F C12F 1_555 1_555
H14F C12F 1_555 1_555
C13F C11 1_555 1_555
C14F C13F 1_555 1_555
H15F C14F 1_555 1_555
H16F C14F 1_555 1_555
H17F C14F 1_555 1_555
N3F C15F 1_555 1_555
N4F C15F 1_555 1_555
C15F C16F 1_555 1_555
C16F H18F 1_555 1_555
H19F C16F 1_555 1_555
H20F C16F 1_555 1_555
C17F N3F 1_555 1_555
H21F C17F 1_555 1_555
C18F N4F 1_555 1_555
H22F C18F 1_555 1_555
C19F N4F 1_555 1_555
H23F C19F 1_555 1_555
H24F C19F 1_555 1_555
C20F C19F 1_555 1_555
C21F C23 1_555 1_555
C22F C21F 1_555 1_555
H25F C22F 1_555 1_555
H26F C22F 1_555 1_555
H27F C22F 1_555 1_555
C23F C21 1_555 1_555
C24F C23F 1_555 1_555
H28F C24F 1_555 1_555
H29F C24F 1_555 1_555
H30F C24F 1_555 1_555
C1D C2D 1_555 1_555
C2D C2 1_555 1_555
H1D C2D 1_555 1_555
H2D C2D 1_555 1_555
O3D C1D 1_555 1_555
O4D C1D 1_555 1_555
C3D C4D 1_555 1_555
C4D C4 1_555 1_555
H3D C4D 1_555 1_555
H4D C4D 1_555 1_555
O1D C3D 1_555 1_555
O2D C3D 1_555 1_555
Cd1D O1D 1_555 1_555
Cd1D_2 O3D 1_555 1_555
Cd1F N3F 1_555 1_555
Cd1F_2 N1F 1_555 1_555
N1D Cd1D 1_555 1_555
N3D Cd1D 1_555 1_555
O3D_2 Cd1D 1_555 1_555
O4D_2 Cd1D 1_555 1_555
H31A O5 1_555 1_555
H32A O6 1_555 1_555
H33A O7 1_555 1_555
N2 C7 1_555 1_555
C1 O3 1_555 1_555
C1 O4 1_555 1_555
C3 O1 1_555 1_555
C3 O2 1_555 1_555
C17 C18 1_555 1_555
N2F C7F 1_555 1_555
C10F C11F 1_555 1_555
C10F C13F 1_555 1_555
C17F C18F 1_555 1_555
C20F C21F 1_555 1_555
C20F C23F 1_555 1_555
O4D Cd1D_2 1_555 1_555
O2D Cd1D 1_555 1_555

#END
