
#######################################################################
#
#                 Cambridge Crystallographic Data Centre
#                                CCDC 
#
#######################################################################
#
# If this CIF has been generated from an entry in the Cambridge 
# Structural Database, then it will include bibliographic, chemical, 
# crystal, experimental, refinement or atomic coordinate data resulting 
# from the CCDC's data processing and validation procedures.
#
#######################################################################

data_VOZCIW
_symmetry_cell_setting           monoclinic
_symmetry_space_group_name_H-M   'P 21/c'
_symmetry_Int_Tables_number      14
_space_group_name_Hall           '-P 2ybc'
loop_
_symmetry_equiv_pos_site_id
_symmetry_equiv_pos_as_xyz
1 x,y,z
2 -x,1/2+y,1/2-z
3 -x,-y,-z
4 x,1/2-y,1/2+z
_cell_length_a                   10.920(4)
_cell_length_b                   16.239(3)
_cell_length_c                   16.565(7)
_cell_angle_alpha                90
_cell_angle_beta                 107.85(2)
_cell_angle_gamma                90
_cell_volume                     2796.07
loop_
_atom_site_label
_atom_site_type_symbol
_atom_site_fract_x
_atom_site_fract_y
_atom_site_fract_z
Mo1 Mo 0.11850(5) 0.72507(4) 0.72846(3)
Mo2 Mo 0.17908(5) 0.81701(4) 0.82201(4)
F1 F -0.2016(6) 0.9149(5) 0.5753(4)
F2 F -0.1783(6) 0.9847(4) 0.6833(5)
F3 F -0.2819(5) 0.8803(5) 0.6683(5)
F4 F -0.0070(7) 0.6671(6) 1.0011(4)
F5 F -0.1610(5) 0.6586(6) 0.8980(4)
F6 F -0.0291(8) 0.5715(5) 0.9227(5)
F7 F 0.4537(5) 0.9018(5) 0.6556(4)
F8 F 0.2839(6) 0.9679(4) 0.6015(4)
F9 F 0.3169(6) 0.8580(5) 0.5477(4)
F10 F 0.4607(6) 0.5658(4) 0.9210(5)
F11 F 0.5574(6) 0.6700(5) 0.9596(6)
F12 F 0.5515(6) 0.6247(6) 0.8449(4)
O1 O -0.0508(4) 0.7918(3) 0.6668(3)
O2 O 0.0138(4) 0.8897(3) 0.7658(3)
O3 O 0.0207(4) 0.6608(3) 0.8008(3)
O4 O 0.0853(4) 0.7581(3) 0.9008(3)
O5 O 0.2126(4) 0.7833(3) 0.6496(3)
O6 O 0.2761(4) 0.8819(3) 0.7475(3)
O7 O 0.2849(4) 0.6538(3) 0.7846(3)
O8 O 0.3506(4) 0.7521(3) 0.8836(3)
O9 O 0.0596(7) 0.6173(4) 0.6174(4)
O10 O 0.2740(5) 0.9236(3) 0.9355(3)
C1 C -0.0625(6) 0.8592(5) 0.6994(4)
C2 C -0.1829(8) 0.9112(6) 0.6538(5)
C3 C 0.0274(6) 0.6934(5) 0.8713(4)
C4 C -0.0426(8) 0.6475(7) 0.9248(5)
C5 C 0.2676(6) 0.8497(5) 0.6780(5)
C6 C 0.3316(8) 0.8977(6) 0.6215(6)
C7 C 0.3635(6) 0.6851(5) 0.8511(5)
C8 C 0.4849(8) 0.6338(6) 0.8916(7)
C9 C 0.0332(9) 0.5639(5) 0.5634(4)
C10 C 0.1212(7) 0.4952(5) 0.5674(4)
C11 C 0.2373(8) 0.4936(6) 0.6313(5)
C12 C 0.320(1) 0.4302(7) 0.6360(6)
C13 C -0.0893(8) 0.5673(5) 0.4932(4)
C14 C -0.1753(9) 0.6326(6) 0.4891(6)
C15 C 0.291(1) 0.3661(7) 0.5754(6)
C16 C 0.3780(7) 0.9586(5) 0.9648(4)
C17 C 0.4040(7) 1.0342(5) 0.9271(4)
C18 C 0.3115(9) 1.0680(6) 0.8575(6)
C19 C 0.334(1) 1.1405(7) 0.8219(6)
C20 C 0.4773(7) 0.9241(5) 1.0389(4)
C21 C 0.4538(9) 0.8508(6) 1.0758(6)
C22 C 0.453(1) 1.1812(7) 0.8545(7)
C14B C 0.1753(9) 0.3674(6) 0.5109(6)
C13B C 0.0893(8) 0.4327(5) 0.5068(4)
C9B C -0.0332(9) 0.4361(5) 0.4366(4)
O9B O -0.0596(7) 0.3827(4) 0.3826(4)
C10B C -0.1212(7) 0.5048(5) 0.4326(4)
C11B C -0.2373(8) 0.5064(6) 0.3687(5)
C12B C -0.320(1) 0.5698(7) 0.3640(6)
C15B C -0.291(1) 0.6339(7) 0.4246(6)
C21B C 0.5462(9) 1.1492(6) 0.9242(6)
C20B C 0.5227(7) 1.0759(5) 0.9611(4)
C16B C 0.6220(7) 1.0414(5) 1.0352(4)
O10B O 0.7260(5) 1.0764(3) 1.0645(3)
C17B C 0.5960(7) 0.9658(5) 1.0729(4)
C18B C 0.6885(9) 0.9320(6) 1.1425(6)
C19B C 0.666(1) 0.8595(7) 1.1781(6)
C22B C 0.547(1) 0.8188(7) 1.1455(7)
Mo1B Mo -0.11850(5) 0.27493(4) 0.27154(3)
F1B F 0.2016(6) 0.0851(5) 0.4247(4)
F2B F 0.1783(6) 0.0153(4) 0.3167(5)
F3B F 0.2819(5) 0.1197(5) 0.3317(5)
O1B O 0.0508(4) 0.2082(3) 0.3332(3)
O2B O -0.0138(4) 0.1103(3) 0.2342(3)
C1B C 0.0625(6) 0.1408(5) 0.3006(4)
C2B C 0.1829(8) 0.0888(6) 0.3462(5)
F4B F 0.0070(7) 0.3329(6) -0.0011(4)
F5B F 0.1610(5) 0.3414(6) 0.1020(4)
F6B F 0.0291(8) 0.4285(5) 0.0773(5)
O3B O -0.0207(4) 0.3392(3) 0.1992(3)
O4B O -0.0853(4) 0.2419(3) 0.0992(3)
C3B C -0.0274(6) 0.3066(5) 0.1287(4)
C4B C 0.0426(8) 0.3525(7) 0.0752(5)
F7B F -0.4537(5) 0.0982(5) 0.3444(4)
F8B F -0.2839(6) 0.0321(4) 0.3985(4)
F9B F -0.3169(6) 0.1420(5) 0.4523(4)
O5B O -0.2126(4) 0.2167(3) 0.3504(3)
O6B O -0.2761(4) 0.1181(3) 0.2525(3)
C5B C -0.2676(6) 0.1503(5) 0.3220(5)
C6B C -0.3316(8) 0.1023(6) 0.3785(6)
F10B F -0.4607(6) 0.4342(4) 0.0790(5)
F11B F -0.5574(6) 0.3300(5) 0.0404(6)
F12B F -0.5515(6) 0.3753(6) 0.1551(4)
O7B O -0.2849(4) 0.3462(3) 0.2154(3)
O8B O -0.3506(4) 0.2479(3) 0.1164(3)
C7B C -0.3635(6) 0.3149(5) 0.1489(5)
C8B C -0.4849(8) 0.3662(6) 0.1084(7)
Mo2B Mo -0.17908(5) 0.18299(4) 0.17799(4)
Mo2B_2 Mo 0.82092(5) 1.18299(4) 1.17799(4)
O10B_2 O -0.2740(5) 0.0764(3) 0.0645(3)
loop_
_geom_bond_atom_site_label_1
_geom_bond_atom_site_label_2
_geom_bond_site_symmetry_1
_geom_bond_site_symmetry_2
Mo1 Mo2 1_555 1_555
Mo2 O2 1_555 1_555
F1 C2 1_555 1_555
F2 C2 1_555 1_555
F3 C2 1_555 1_555
F4 C4 1_555 1_555
F5 C4 1_555 1_555
F6 C4 1_555 1_555
F7 C6 1_555 1_555
F8 C6 1_555 1_555
F9 C6 1_555 1_555
F10 C8 1_555 1_555
F11 C8 1_555 1_555
F12 C8 1_555 1_555
O1 Mo1 1_555 1_555
O2 C1 1_555 1_555
O3 Mo1 1_555 1_555
O4 Mo2 1_555 1_555
O5 Mo1 1_555 1_555
O6 Mo2 1_555 1_555
O7 Mo1 1_555 1_555
O8 Mo2 1_555 1_555
O9 Mo1 1_555 1_555
O10 Mo2 1_555 1_555
C1 O1 1_555 1_555
C2 C1 1_555 1_555
C3 O3 1_555 1_555
C4 C3 1_555 1_555
C5 O5 1_555 1_555
C6 C5 1_555 1_555
C7 O7 1_555 1_555
C8 C7 1_555 1_555
C9 O9 1_555 1_555
C10 C9 1_555 1_555
C11 C10 1_555 1_555
C12 C11 1_555 1_555
C13 C9 1_555 1_555
C14 C13 1_555 1_555
C15 C12 1_555 1_555
C16 O10 1_555 1_555
C17 C16 1_555 1_555
C18 C17 1_555 1_555
C19 C18 1_555 1_555
C20 C16 1_555 1_555
C21 C20 1_555 1_555
C22 C19 1_555 1_555
C14B C15 1_555 1_555
C13B C10 1_555 1_555
C9B C13B 1_555 1_555
O9B C9B 1_555 1_555
C10B C13 1_555 1_555
C11B C10B 1_555 1_555
C12B C11B 1_555 1_555
C15B C14 1_555 1_555
C21B C22 1_555 1_555
C20B C17 1_555 1_555
C16B C20B 1_555 1_555
O10B C16B 1_555 1_555
C17B C20 1_555 1_555
C18B C17B 1_555 1_555
C19B C18B 1_555 1_555
C22B C21 1_555 1_555
Mo1B O9B 1_555 1_555
F1B C2B 1_555 1_555
F2B C2B 1_555 1_555
F3B C2B 1_555 1_555
O1B Mo1B 1_555 1_555
O2B C1B 1_555 1_555
C1B O1B 1_555 1_555
C2B C1B 1_555 1_555
F4B C4B 1_555 1_555
F5B C4B 1_555 1_555
F6B C4B 1_555 1_555
O3B Mo1B 1_555 1_555
O4B C3B 1_555 1_555
C3B O3B 1_555 1_555
C4B C3B 1_555 1_555
F7B C6B 1_555 1_555
F8B C6B 1_555 1_555
F9B C6B 1_555 1_555
O5B Mo1B 1_555 1_555
O6B C5B 1_555 1_555
C5B O5B 1_555 1_555
C6B C5B 1_555 1_555
F10B C8B 1_555 1_555
F11B C8B 1_555 1_555
F12B C8B 1_555 1_555
O7B Mo1B 1_555 1_555
O8B C7B 1_555 1_555
C7B O7B 1_555 1_555
C8B C7B 1_555 1_555
Mo2B Mo1B 1_555 1_555
Mo2B_2 O10B 1_555 1_555
O10B_2 Mo2B 1_555 1_555
O4 C3 1_555 1_555
O6 C5 1_555 1_555
O8 C7 1_555 1_555
C14B C13B 1_555 1_555
C9B C10B 1_555 1_555
C12B C15B 1_555 1_555
C21B C20B 1_555 1_555
C16B C17B 1_555 1_555
C19B C22B 1_555 1_555
O2B Mo2B 1_555 1_555
O4B Mo2B 1_555 1_555
O6B Mo2B 1_555 1_555
O8B Mo2B 1_555 1_555

#END
