
#######################################################################
#
#                 Cambridge Crystallographic Data Centre
#                                CCDC 
#
#######################################################################
#
# If this CIF has been generated from an entry in the Cambridge 
# Structural Database, then it will include bibliographic, chemical, 
# crystal, experimental, refinement or atomic coordinate data resulting 
# from the CCDC's data processing and validation procedures.
#
#######################################################################

data_VOZCUK
_symmetry_cell_setting           triclinic
_symmetry_space_group_name_H-M   'P -1'
_symmetry_Int_Tables_number      2
_space_group_name_Hall           '-P 1'
loop_
_symmetry_equiv_pos_site_id
_symmetry_equiv_pos_as_xyz
1 x,y,z
2 -x,-y,-z
_cell_length_a                   9.4056(19)
_cell_length_b                   10.716(2)
_cell_length_c                   14.784(3)
_cell_angle_alpha                77.92(3)
_cell_angle_beta                 79.02(3)
_cell_angle_gamma                88.34(3)
_cell_volume                     1430.32
loop_
_atom_site_label
_atom_site_type_symbol
_atom_site_fract_x
_atom_site_fract_y
_atom_site_fract_z
Cd1 Cd 1.043299(16) 0.594358(14) 0.807266(10)
N1 N 0.9186(2) 0.72458(18) 0.70147(14)
N2 N 0.7731(2) 0.7855(2) 0.60107(14)
N3 N 0.8896(2) 0.42538(18) 0.83499(14)
N4 N 0.69713(19) 0.30113(17) 0.87029(14)
C1 C 1.0142(2) 0.7835(2) 0.90891(15)
C2 C 1.0051(2) 0.8965(2) 0.95561(15)
C3 C 1.1141(2) 0.9881(2) 0.92897(16)
H1 H 1.1913 0.9808 0.8807
C4 C 0.8899(3) 0.9094(2) 1.02694(16)
H2 H 0.8151 0.8492 1.0452
C5 C 1.3020(2) 0.4667(2) 0.68093(16)
C6 C 1.4030(2) 0.4827(2) 0.58606(15)
C7 C 1.3771(2) 0.5729(2) 0.50940(15)
H3 H 1.2943 0.6226 0.5153
C8 C 1.5273(2) 0.4097(2) 0.57596(16)
H4 H 1.5464 0.3487 0.6269
C9 C 0.8703(3) 0.8447(2) 0.70791(19)
H5 H 0.8958 0.8924 0.7483
C10 C 0.7804(3) 0.8837(3) 0.6470(2)
H6 H 0.7328 0.9613 0.6378
C11 C 0.8592(3) 0.6921(2) 0.63573(17)
C12 C 0.8806(4) 0.5706(3) 0.6025(2)
H7 H 0.9599 0.5254 0.6262
H8 H 0.9017 0.5882 0.5349
H9 H 0.7940 0.5192 0.6248
C13 C 0.6813(3) 0.7782(3) 0.5318(2)
H10 H 0.6198 0.7027 0.5542
H11 H 0.7425 0.7701 0.4726
C14 C 0.5876(3) 0.8949(2) 0.51525(17)
C15 C 0.4553(3) 0.8983(2) 0.57635(16)
C16 C 0.4086(4) 0.7912(3) 0.66032(19)
H12 H 0.3362 0.7396 0.6474
H13 H 0.3692 0.8262 0.7144
H14 H 0.4907 0.7397 0.6726
C17 C 0.6337(3) 0.9964(3) 0.43971(17)
C18 C 0.7809(3) 0.9935(4) 0.3773(2)
H15 H 0.7730 0.9504 0.3277
H16 H 0.8476 0.9490 0.4141
H17 H 0.8153 1.0792 0.3506
C19 C 0.7471(2) 0.4204(2) 0.86076(17)
C20 C 0.6544(3) 0.5302(3) 0.8771(3)
H18 H 0.7140 0.6046 0.8682
H19 H 0.5998 0.5120 0.9403
H20 H 0.5891 0.5453 0.8334
C21 C 0.9317(3) 0.3038(2) 0.82756(19)
H21 H 1.0267 0.2786 0.8104
C22 C 0.8150(3) 0.2270(2) 0.8489(2)
H22 H 0.8140 0.1402 0.8491
C23 C 0.5438(2) 0.2602(2) 0.89412(19)
H23 H 0.5064 0.2678 0.8365
H24 H 0.4886 0.3166 0.9308
C24 C 0.5228(2) 0.1241(2) 0.94950(17)
C25 C 0.5227(2) 0.0977(2) 1.04592(17)
C26 C 0.5496(3) 0.2030(2) 1.0946(2)
H25 H 0.4677 0.2094 1.1431
H26 H 0.5639 0.2825 1.0495
H27 H 0.6345 0.1841 1.1220
C27 C 0.5018(2) 0.0278(2) 0.90237(16)
C28 C 0.5045(3) 0.0578(3) 0.79762(19)
H28 H 0.5912 0.1052 0.7657
H29 H 0.4215 0.1077 0.7848
H30 H 0.5026 -0.0202 0.7757
O1 O 0.91922(19) 0.69664(15) 0.93727(11)
O2 O 1.11552(17) 0.78122(15) 0.84062(11)
O3 O 1.19365(17) 0.53829(16) 0.68422(11)
O4 O 1.3320(2) 0.3867(2) 0.74727(13)
O5 O 1.1985(2) 0.47618(19) 0.89883(13)
H31 H 1.238(4) 0.433(3) 0.858(2)
H32 H 1.164(3) 0.419(2) 0.9457(15)
N1A N 0.0814(2) 1.27542(18) 0.29853(14)
N2A N 0.2269(2) 1.2145(2) 0.39893(14)
C9A C 0.1297(3) 1.1553(2) 0.29209(19)
H5A H 0.1042 1.1076 0.2517
C10A C 0.2196(3) 1.1163(3) 0.3530(2)
H6A H 0.2672 1.0387 0.3622
C11A C 0.1408(3) 1.3079(2) 0.36427(17)
C12A C 0.1194(4) 1.4294(3) 0.3975(2)
H7A H 0.0401 1.4746 0.3738
H8A H 0.0983 1.4118 0.4651
H9A H 0.2060 1.4808 0.3752
C13A C 0.3187(3) 1.2218(3) 0.4682(2)
H10A H 0.3802 1.2973 0.4458
H11A H 0.2575 1.2299 0.5274
C14A C 0.4124(3) 1.1051(2) 0.48475(17)
C15A C 0.5447(3) 1.1017(2) 0.42365(16)
C16A C 0.5914(4) 1.2088(3) 0.33968(19)
H12A H 0.6638 1.2604 0.3526
H13A H 0.6308 1.1738 0.2856
H14A H 0.5093 1.2603 0.3274
C17A C 0.3663(3) 1.0036(3) 0.56029(17)
C18A C 0.2191(3) 1.0065(4) 0.6227(2)
H15A H 0.2270 1.0496 0.6723
H16A H 0.1524 1.0510 0.5859
H17A H 0.1847 0.9208 0.6494
N3A N 0.1104(2) -0.42538(18) 1.16501(14)
N4A N 0.30287(19) -0.30113(17) 1.12971(14)
C19A C 0.2529(2) -0.4204(2) 1.13924(17)
C20A C 0.3456(3) -0.5302(3) 1.1229(3)
H18A H 0.2860 -0.6046 1.1318
H19A H 0.4002 -0.5120 1.0597
H20A H 0.4109 -0.5453 1.1666
C21A C 0.0683(3) -0.3038(2) 1.17244(19)
H21A H -0.0267 -0.2786 1.1896
C22A C 0.1850(3) -0.2270(2) 1.1511(2)
H22A H 0.1860 -0.1402 1.1509
C23A C 0.4562(2) -0.2602(2) 1.10588(19)
H23A H 0.4936 -0.2678 1.1635
H24A H 0.5114 -0.3166 1.0692
C24A C 0.4772(2) -0.1241(2) 1.05050(17)
C25A C 0.4773(2) -0.0977(2) 0.95408(17)
C26A C 0.4504(3) -0.2030(2) 0.9054(2)
H25A H 0.5323 -0.2094 0.8569
H26A H 0.4361 -0.2825 0.9505
H27A H 0.3655 -0.1841 0.8780
C27A C 0.4982(2) -0.0278(2) 1.09763(16)
C28A C 0.4955(3) -0.0578(3) 1.20238(19)
H28A H 0.4088 -0.1052 1.2343
H29A H 0.5785 -0.1077 1.2152
H30A H 0.4974 0.0202 1.2243
C1A C 0.9858(2) 1.2165(2) 1.09109(15)
C2A C 0.9949(2) 1.1035(2) 1.04439(15)
C3A C 0.8859(2) 1.0119(2) 1.07103(16)
H1A H 0.8087 1.0192 1.1193
C4A C 1.1101(3) 1.0906(2) 0.97306(16)
H2A H 1.1849 1.1508 0.9548
O1A O 1.08078(19) 1.30336(15) 1.06273(11)
O2A O 0.88448(17) 1.21878(15) 1.15938(11)
C5A C 1.6980(2) 0.5333(2) 0.31907(16)
C6A C 1.5970(2) 0.5173(2) 0.41394(15)
C7A C 1.6229(2) 0.4271(2) 0.49060(15)
H3A H 1.7057 0.3774 0.4847
C8A C 1.4727(2) 0.5903(2) 0.42404(16)
H4A H 1.4536 0.6513 0.3731
O3A O 1.80635(17) 0.46171(16) 0.31578(11)
O4A O 1.6680(2) 0.6133(2) 0.25273(13)
Cd1A Cd -0.043299(16) -0.594358(14) 1.192734(10)
O5A O -0.1985(2) -0.47618(19) 1.10117(13)
H31A H -0.238(4) -0.433(3) 1.142(2)
H32A H -0.164(3) -0.419(2) 1.0543(15)
Cd1A_2 Cd -0.043299(16) 1.405642(14) 0.192734(10)
Cd1A_3 Cd 0.956701(16) 1.405642(14) 1.192734(10)
Cd1A_4 Cd 1.956701(16) 0.405642(14) 0.192734(10)
N1A_2 N 0.0814(2) -0.72458(18) 1.29853(14)
O1A_2 O 0.08078(19) -0.69664(15) 1.06273(11)
O2A_2 O -0.11552(17) -0.78122(15) 1.15938(11)
O3A_2 O -0.19365(17) -0.53829(16) 1.31578(11)
loop_
_geom_bond_atom_site_label_1
_geom_bond_atom_site_label_2
_geom_bond_site_symmetry_1
_geom_bond_site_symmetry_2
Cd1 N1 1_555 1_555
N1 C9 1_555 1_555
N2 C10 1_555 1_555
N3 Cd1 1_555 1_555
N4 C19 1_555 1_555
C1 C2 1_555 1_555
C2 C3 1_555 1_555
C3 H1 1_555 1_555
C4 C2 1_555 1_555
H2 C4 1_555 1_555
C5 C6 1_555 1_555
C6 C7 1_555 1_555
C7 H3 1_555 1_555
C8 C6 1_555 1_555
H4 C8 1_555 1_555
C9 H5 1_555 1_555
C10 C9 1_555 1_555
H6 C10 1_555 1_555
C11 N1 1_555 1_555
C12 C11 1_555 1_555
H7 C12 1_555 1_555
H8 C12 1_555 1_555
H9 C12 1_555 1_555
C13 N2 1_555 1_555
H10 C13 1_555 1_555
H11 C13 1_555 1_555
C14 C13 1_555 1_555
C15 C14 1_555 1_555
C16 C15 1_555 1_555
H12 C16 1_555 1_555
H13 C16 1_555 1_555
H14 C16 1_555 1_555
C17 C14 1_555 1_555
C18 C17 1_555 1_555
H15 C18 1_555 1_555
H16 C18 1_555 1_555
H17 C18 1_555 1_555
C19 N3 1_555 1_555
C20 C19 1_555 1_555
H18 C20 1_555 1_555
H19 C20 1_555 1_555
H20 C20 1_555 1_555
C21 N3 1_555 1_555
H21 C21 1_555 1_555
C22 N4 1_555 1_555
H22 C22 1_555 1_555
C23 N4 1_555 1_555
H23 C23 1_555 1_555
H24 C23 1_555 1_555
C24 C23 1_555 1_555
C25 C24 1_555 1_555
C26 C25 1_555 1_555
H25 C26 1_555 1_555
H26 C26 1_555 1_555
H27 C26 1_555 1_555
C27 C24 1_555 1_555
C28 C27 1_555 1_555
H28 C28 1_555 1_555
H29 C28 1_555 1_555
H30 C28 1_555 1_555
O1 Cd1 1_555 1_555
O2 Cd1 1_555 1_555
O3 Cd1 1_555 1_555
O4 C5 1_555 1_555
O5 Cd1 1_555 1_555
H31 O5 1_555 1_555
H32 O5 1_555 1_555
N1A C9A 1_555 1_555
N2A C10A 1_555 1_555
C9A H5A 1_555 1_555
C10A C9A 1_555 1_555
H6A C10A 1_555 1_555
C11A N1A 1_555 1_555
C12A C11A 1_555 1_555
H7A C12A 1_555 1_555
H8A C12A 1_555 1_555
H9A C12A 1_555 1_555
C13A N2A 1_555 1_555
H10A C13A 1_555 1_555
H11A C13A 1_555 1_555
C14A C13A 1_555 1_555
C15A C17 1_555 1_555
C16A C15A 1_555 1_555
H12A C16A 1_555 1_555
H13A C16A 1_555 1_555
H14A C16A 1_555 1_555
C17A C15 1_555 1_555
C18A C17A 1_555 1_555
H15A C18A 1_555 1_555
H16A C18A 1_555 1_555
H17A C18A 1_555 1_555
N3A C19A 1_555 1_555
N4A C19A 1_555 1_555
C19A C20A 1_555 1_555
C20A H18A 1_555 1_555
H19A C20A 1_555 1_555
H20A C20A 1_555 1_555
C21A N3A 1_555 1_555
H21A C21A 1_555 1_555
C22A N4A 1_555 1_555
H22A C22A 1_555 1_555
C23A N4A 1_555 1_555
H23A C23A 1_555 1_555
H24A C23A 1_555 1_555
C24A C23A 1_555 1_555
C25A C27 1_555 1_555
C26A C25A 1_555 1_555
H25A C26A 1_555 1_555
H26A C26A 1_555 1_555
H27A C26A 1_555 1_555
C27A C25 1_555 1_555
C28A C27A 1_555 1_555
H28A C28A 1_555 1_555
H29A C28A 1_555 1_555
H30A C28A 1_555 1_555
C1A C2A 1_555 1_555
C2A C3A 1_555 1_555
C3A C4 1_555 1_555
H1A C3A 1_555 1_555
C4A C3 1_555 1_555
H2A C4A 1_555 1_555
O1A C1A 1_555 1_555
O2A C1A 1_555 1_555
C5A C6A 1_555 1_555
C6A C7A 1_555 1_555
C7A C8 1_555 1_555
H3A C7A 1_555 1_555
C8A C7 1_555 1_555
H4A C8A 1_555 1_555
O3A C5A 1_555 1_555
O4A C5A 1_555 1_555
Cd1A N3A 1_555 1_555
O5A Cd1A 1_555 1_555
H31A O5A 1_555 1_555
H32A O5A 1_555 1_555
Cd1A_2 N1A 1_555 1_555
Cd1A_3 O1A 1_555 1_555
Cd1A_4 O3A 1_555 1_555
N1A_2 Cd1A 1_555 1_555
O1A_2 Cd1A 1_555 1_555
O2A_2 Cd1A 1_555 1_555
O3A_2 Cd1A 1_555 1_555
N2 C11 1_555 1_555
C1 O1 1_555 1_555
C1 O2 1_555 1_555
C5 O3 1_555 1_555
C21 C22 1_555 1_555
N2A C11A 1_555 1_555
C14A C15A 1_555 1_555
C14A C17A 1_555 1_555
C21A C22A 1_555 1_555
C24A C25A 1_555 1_555
C24A C27A 1_555 1_555
C2A C4A 1_555 1_555
O2A Cd1A_3 1_555 1_555
C6A C8A 1_555 1_555

#END
