
#######################################################################
#
#                 Cambridge Crystallographic Data Centre
#                                CCDC 
#
#######################################################################
#
# If this CIF has been generated from an entry in the Cambridge 
# Structural Database, then it will include bibliographic, chemical, 
# crystal, experimental, refinement or atomic coordinate data resulting 
# from the CCDC's data processing and validation procedures.
#
#######################################################################

data_VOZCIY
_symmetry_cell_setting           triclinic
_symmetry_space_group_name_H-M   'P -1'
_symmetry_Int_Tables_number      2
_space_group_name_Hall           '-P 1'
loop_
_symmetry_equiv_pos_site_id
_symmetry_equiv_pos_as_xyz
1 x,y,z
2 -x,-y,-z
_cell_length_a                   7.5515(15)
_cell_length_b                   10.679(2)
_cell_length_c                   13.612(3)
_cell_angle_alpha                67.46(3)
_cell_angle_beta                 75.76(3)
_cell_angle_gamma                83.36(3)
_cell_volume                     982.423
loop_
_atom_site_label
_atom_site_type_symbol
_atom_site_fract_x
_atom_site_fract_y
_atom_site_fract_z
N1 N 0.7844(8) 1.5249(5) -0.2912(4)
C1 C 0.6620(10) 1.4369(7) -0.2785(5)
H1 H 0.5793 1.4642 -0.3238
C2 C 0.6518(10) 1.3074(7) -0.2015(5)
H2 H 0.5625 1.2498 -0.1948
C3 C 0.9079(10) 1.4806(7) -0.2267(5)
H3 H 0.9985 1.5390 -0.2366
C4 C 0.9044(10) 1.3532(7) -0.1477(5)
H4 H 0.9889 1.3278 -0.1036
C5 C 0.6989(11) 0.8095(7) -0.0940(5)
H5 H 0.6657 0.7558 -0.0204
C6 C 0.7036(11) 0.7560(7) -0.1707(5)
H6 H 0.6708 0.6661 -0.1471
N2 N 0.7525(8) 0.8251(5) -0.2780(4)
C7 C 0.7917(11) 0.9553(7) -0.3084(5)
H7 H 0.8235 1.0066 -0.3826
C8 C 0.7876(11) 1.0176(7) -0.2367(5)
H8 H 0.8143 1.1091 -0.2626
C9 C 0.7434(9) 0.9439(6) -0.1250(5)
C10 C 0.7751(9) 1.2630(6) -0.1339(4)
C11 C 0.7633(9) 1.1289(6) -0.0468(5)
C12 C 0.7457(9) 0.9979(6) -0.0404(4)
N3 N 0.7661(7) 1.1150(5) 0.0572(4)
H9 H 0.7765 1.1797 0.0782
N4 N 0.7369(7) 0.9078(5) 0.0646(4)
C13 C 0.7497(9) 0.9826(6) 0.1208(4)
C14 C 0.7466(8) 0.9250(6) 0.2376(5)
C15 C 0.7499(9) 0.7861(7) 0.2922(5)
H10 H 0.7484 0.7287 0.2555
Zn1 Zn 0.77174(12) 0.72543(7) 0.61716(5)
O1 O 1.0652(7) 0.7655(5) 0.5723(4)
N5 N 0.7586(7) 0.8108(5) 0.4580(4)
O2 O 0.4777(7) 0.7312(5) 0.6446(4)
H11 H 0.4416 0.6549 0.6604
H12 H 0.4008 0.7386 0.7056
C16 C 0.7554(10) 0.7328(7) 0.4006(5)
H13 H 0.7571 0.6390 0.4359
O3 O 1.0949(9) 0.6182(7) 0.4946(5)
N6 N 1.1630(10) 0.6983(8) 0.5175(5)
C17 C 0.7491(11) 0.9437(7) 0.4062(5)
H14 H 0.7459 0.9992 0.4452
C18 C 0.7437(11) 1.0038(7) 0.2981(5)
H15 H 0.7381 1.0979 0.2654
O4 O 1.3270(10) 0.7220(10) 0.4849(6)
N1_2 N 0.7844(8) 0.5249(5) 0.7088(4)
N2_2 N 0.7525(8) 0.8251(5) 0.7220(4)
Zn1_2 Zn 0.77174(12) 0.72543(7) -0.38284(5)
Zn1_3 Zn 0.77174(12) 1.72543(7) -0.38284(5)
O5 O 0.2539(11) 0.6821(6) 0.8539(5)
O6 O 0.2809(10) 0.4847(7) 0.8515(6)
N7 N 0.2586(14) 0.5635(9) 0.8955(6)
O7 O 0.253(4) 0.5282(14) 0.9816(9)
loop_
_geom_bond_atom_site_label_1
_geom_bond_atom_site_label_2
_geom_bond_site_symmetry_1
_geom_bond_site_symmetry_2
N1 C1 1_555 1_555
C1 H1 1_555 1_555
C2 C1 1_555 1_555
H2 C2 1_555 1_555
C3 N1 1_555 1_555
H3 C3 1_555 1_555
C4 C3 1_555 1_555
H4 C4 1_555 1_555
C5 H5 1_555 1_555
C6 C5 1_555 1_555
H6 C6 1_555 1_555
N2 C6 1_555 1_555
C7 N2 1_555 1_555
H7 C7 1_555 1_555
C8 C7 1_555 1_555
H8 C8 1_555 1_555
C9 C5 1_555 1_555
C10 C2 1_555 1_555
C11 C10 1_555 1_555
C12 C9 1_555 1_555
N3 C11 1_555 1_555
H9 N3 1_555 1_555
N4 C12 1_555 1_555
C13 N3 1_555 1_555
C14 C13 1_555 1_555
C15 C14 1_555 1_555
H10 C15 1_555 1_555
Zn1 O1 1_555 1_555
O1 N6 1_555 1_555
N5 Zn1 1_555 1_555
O2 Zn1 1_555 1_555
H11 O2 1_555 1_555
H12 O2 1_555 1_555
C16 C15 1_555 1_555
H13 C16 1_555 1_555
O3 N6 1_555 1_555
N6 O4 1_555 1_555
C17 N5 1_555 1_555
H14 C17 1_555 1_555
C18 C14 1_555 1_555
H15 C18 1_555 1_555
O5 N7 1_555 1_555
O6 N7 1_555 1_555
N7 O7 1_555 1_555
N1_2 Zn1 1_555 1_555
N2_2 Zn1 1_555 1_555
Zn1_2 N2 1_555 1_555
Zn1_3 N1 1_555 1_555
C4 C10 1_555 1_555
C8 C9 1_555 1_555
C11 C12 1_555 1_555
N4 C13 1_555 1_555
N5 C16 1_555 1_555
C17 C18 1_555 1_555

#END
