
#######################################################################
#
#                 Cambridge Crystallographic Data Centre
#                                CCDC 
#
#######################################################################
#
# If this CIF has been generated from an entry in the Cambridge 
# Structural Database, then it will include bibliographic, chemical, 
# crystal, experimental, refinement or atomic coordinate data resulting 
# from the CCDC's data processing and validation procedures.
#
#######################################################################

data_VOZDEV
_symmetry_cell_setting           monoclinic
_symmetry_space_group_name_H-M   'C 2/c'
_symmetry_Int_Tables_number      15
_space_group_name_Hall           '-C 2yn'
loop_
_symmetry_equiv_pos_site_id
_symmetry_equiv_pos_as_xyz
1 x,y,z
2 -x,y,1/2-z
3 1/2+x,1/2+y,z
4 1/2-x,1/2+y,1/2-z
5 -x,-y,-z
6 x,-y,1/2+z
7 1/2-x,1/2-y,-z
8 1/2+x,1/2-y,1/2+z
_cell_length_a                   24.4671(9)
_cell_length_b                   14.7460(6)
_cell_length_c                   24.1155(9)
_cell_angle_alpha                90
_cell_angle_beta                 107.8040(10)
_cell_angle_gamma                90
_cell_volume                     8283.98
loop_
_atom_site_label
_atom_site_type_symbol
_atom_site_fract_x
_atom_site_fract_y
_atom_site_fract_z
Cd1 Cd 0.170753(3) 0.489705(5) 0.188335(4)
N1 N 0.19075(4) 0.42484(6) 0.27697(4)
N2 N 0.20683(4) 0.39503(6) 0.36946(4)
N3 N 0.26016(4) 0.53991(7) 0.20207(4)
N4 N 0.34148(4) 0.58886(7) 0.19333(4)
C1 C 0.11934(5) 0.33580(8) 0.13637(5)
C2 C 0.09098(5) 0.24623(8) 0.11639(5)
C3 C 0.03466(5) 0.23395(8) 0.11491(5)
H1 H 0.0141 0.2821 0.1235
C4 C 0.00883(5) 0.15093(8) 0.10079(5)
H2 H -0.0293 0.1437 0.0993
C5 C 0.03857(5) 0.07818(7) 0.08876(5)
C6 C 0.09456(5) 0.09048(8) 0.08949(5)
H3 H 0.1151 0.0421 0.0810
C7 C 0.12048(5) 0.17460(8) 0.10278(5)
H4 H 0.1581 0.1827 0.1025
C8 C 0.00706(5) -0.00953(8) 0.07281(5)
C9 C 0.03774(5) -0.09650(8) 0.09179(5)
C10 C 0.01840(5) -0.17407(7) 0.05884(6)
H5 H -0.0129 -0.1705 0.0253
C11 C 0.04522(5) -0.25630(8) 0.07562(6)
H6 H 0.0336 -0.3072 0.0522
C12 C 0.08966(5) -0.26272(8) 0.12763(5)
C13 C 0.10735(5) -0.18680(9) 0.16095(6)
H7 H 0.1364 -0.1915 0.1963
C14 C 0.08263(5) -0.10313(8) 0.14276(6)
H8 H 0.0963 -0.0516 0.1649
C15 C 0.11778(5) -0.35325(8) 0.14721(6)
C16 C 0.21589(5) 0.34122(8) 0.28898(5)
H9 H 0.2249 0.3033 0.2622
C17 C 0.22537(6) 0.32308(8) 0.34547(5)
H10 H 0.2418 0.2705 0.3648
C18 C 0.18560(5) 0.45537(8) 0.32668(5)
C19 C 0.15967(8) 0.54322(11) 0.33522(7)
H11 H 0.1346 0.5642 0.2986
H12 H 0.1895 0.5870 0.3505
H13 H 0.1381 0.5353 0.3621
C20 C 0.20996(7) 0.40996(9) 0.43115(6)
H14 H 0.1723 0.4265 0.4332
H15 H 0.2359 0.4599 0.4468
C21 C 0.23057(5) 0.32648(8) 0.46748(5)
C22 C 0.28945(5) 0.30810(8) 0.48673(5)
C23 C 0.33192(6) 0.37103(11) 0.47170(7)
H16 H 0.3501 0.4087 0.5047
H17 H 0.3120 0.4085 0.4392
H18 H 0.3605 0.3357 0.4617
C24 C 0.19133(5) 0.26994(9) 0.48078(5)
C25 C 0.12745(5) 0.29229(12) 0.46000(7)
H19 H 0.1056 0.2376 0.4581
H20 H 0.1178 0.3195 0.4220
H21 H 0.1187 0.3339 0.4868
C26 C 0.29495(5) 0.56975(10) 0.25540(6)
H22 H 0.2854 0.5690 0.2899
C27 C 0.34460(5) 0.60002(10) 0.24994(6)
H23 H 0.3753 0.6240 0.2793
C28 C 0.28951(5) 0.55263(8) 0.16509(5)
C29 C 0.26961(6) 0.53094(12) 0.10270(6)
H24 H 0.2311 0.5081 0.0924
H25 H 0.2943 0.4858 0.0943
H26 H 0.2705 0.5847 0.0806
C30 C 0.38639(5) 0.61242(11) 0.16644(6)
H27 H 0.3779 0.6713 0.1478
H28 H 0.3863 0.5681 0.1367
C31 C 0.44508(5) 0.61482(10) 0.21135(5)
C32 C 0.47159(5) 0.69685(10) 0.23143(6)
C33 C 0.44052(6) 0.78624(10) 0.21619(7)
H29 H 0.4527 0.8161 0.1866
H30 H 0.4492 0.8239 0.2503
H31 H 0.3999 0.7756 0.2020
C34 C 0.47266(5) 0.53226(10) 0.22985(6)
C35 C 0.44382(7) 0.44257(11) 0.20758(7)
H32 H 0.4179 0.4506 0.1690
H33 H 0.4228 0.4219 0.2329
H34 H 0.4725 0.3985 0.2068
O1 O 0.17062(4) 0.34776(6) 0.13882(4)
O2 O 0.09107(4) 0.39599(6) 0.15226(4)
O3 O 0.12433(4) -0.40753(6) 0.11100(4)
O4 O 0.13390(5) -0.36923(7) 0.20038(4)
O5 O -0.04375(4) -0.00886(6) 0.04588(5)
N1F N 0.30925(4) 0.07516(6) 0.72303(4)
N2F N 0.29317(4) 0.10497(6) 0.63054(4)
C16F C 0.28411(5) 0.15878(8) 0.71102(5)
H9F H 0.2751 0.1967 0.7378
C17F C 0.27463(6) 0.17692(8) 0.65453(5)
H10F H 0.2582 0.2295 0.6352
C18F C 0.31440(5) 0.04463(8) 0.67332(5)
C19F C 0.34033(8) -0.04322(11) 0.66478(7)
H11F H 0.3654 -0.0642 0.7014
H12F H 0.3105 -0.0870 0.6495
H13F H 0.3619 -0.0353 0.6379
C20F C 0.29004(7) 0.09004(9) 0.56885(6)
H14F H 0.3277 0.0735 0.5668
H15F H 0.2641 0.0401 0.5532
C21F C 0.26943(5) 0.17352(8) 0.53252(5)
C22F C 0.21055(5) 0.19190(8) 0.51327(5)
C23F C 0.16808(6) 0.12897(11) 0.52830(7)
H16F H 0.1499 0.0913 0.4953
H17F H 0.1880 0.0915 0.5608
H18F H 0.1395 0.1643 0.5383
C24F C 0.30867(5) 0.23006(9) 0.51922(5)
C25F C 0.37255(5) 0.20771(12) 0.54000(7)
H19F H 0.3944 0.2624 0.5419
H20F H 0.3822 0.1805 0.5780
H21F H 0.3813 0.1661 0.5132
N3A N 0.73984(4) 0.53991(7) 0.29793(4)
N4A N 0.65852(4) 0.58886(7) 0.30667(4)
C26A C 0.70505(5) 0.56975(10) 0.24460(6)
H22A H 0.7146 0.5690 0.2101
C27A C 0.65540(5) 0.60002(10) 0.25006(6)
H23A H 0.6247 0.6240 0.2207
C28A C 0.71049(5) 0.55263(8) 0.33491(5)
C29A C 0.73039(6) 0.53094(12) 0.39730(6)
H24A H 0.7689 0.5081 0.4076
H25A H 0.7057 0.4858 0.4057
H26A H 0.7295 0.5847 0.4194
C30A C 0.61361(5) 0.61242(11) 0.33356(6)
H27A H 0.6221 0.6713 0.3522
H28A H 0.6137 0.5681 0.3633
C31A C 0.55492(5) 0.61482(10) 0.28865(5)
C32A C 0.52841(5) 0.69685(10) 0.26857(6)
C33A C 0.55948(6) 0.78624(10) 0.28381(7)
H29A H 0.5473 0.8161 0.3134
H30A H 0.5508 0.8239 0.2497
H31A H 0.6001 0.7756 0.2980
C34A C 0.52734(5) 0.53226(10) 0.27015(6)
C35A C 0.55618(7) 0.44257(11) 0.29242(7)
H32A H 0.5821 0.4506 0.3310
H33A H 0.5772 0.4219 0.2671
H34A H 0.5275 0.3985 0.2932
Cd1A Cd 0.829247(3) 0.489705(5) 0.311665(4)
C1A C 0.88066(5) 0.33580(8) 0.36363(5)
C2A C 0.90902(5) 0.24623(8) 0.38361(5)
C3A C 0.96534(5) 0.23395(8) 0.38509(5)
H1A H 0.9859 0.2821 0.3765
C4A C 0.99117(5) 0.15093(8) 0.39921(5)
H2A H 1.0293 0.1437 0.4007
C5A C 0.96143(5) 0.07818(7) 0.41124(5)
C6A C 0.90544(5) 0.09048(8) 0.41051(5)
H3A H 0.8849 0.0421 0.4190
C7A C 0.87952(5) 0.17460(8) 0.39722(5)
H4A H 0.8419 0.1827 0.3975
C8A C 0.99294(5) -0.00953(8) 0.42719(5)
C9A C 0.96226(5) -0.09650(8) 0.40821(5)
C10A C 0.98160(5) -0.17407(7) 0.44116(6)
H5A H 1.0129 -0.1705 0.4747
C11A C 0.95478(5) -0.25630(8) 0.42438(6)
H6A H 0.9664 -0.3072 0.4478
C12A C 0.91034(5) -0.26272(8) 0.37237(5)
C13A C 0.89265(5) -0.18680(9) 0.33905(6)
H7A H 0.8636 -0.1915 0.3037
C14A C 0.91737(5) -0.10313(8) 0.35724(6)
H8A H 0.9037 -0.0516 0.3351
C15A C 0.88222(5) -0.35325(8) 0.35279(6)
O1A O 0.82938(4) 0.34776(6) 0.36118(4)
O2A O 0.90893(4) 0.39599(6) 0.34774(4)
O3A O 0.87567(4) -0.40753(6) 0.38900(4)
O4A O 0.86610(5) -0.36923(7) 0.29962(4)
O5A O 1.04375(4) -0.00886(6) 0.45412(5)
Cd1_2 Cd 0.170753(3) -0.510295(5) 0.188335(4)
Cd1A_2 Cd 0.829247(3) -0.510295(5) 0.311665(4)
Cd1F Cd 0.329247(3) 0.010295(5) 0.811665(4)
N1A N 0.80925(4) 0.42484(6) 0.22303(4)
O3_2 O 0.12433(4) 0.59247(6) 0.11100(4)
O3A_2 O 0.87567(4) 0.59247(6) 0.38900(4)
O4_2 O 0.13390(5) 0.63077(7) 0.20038(4)
O4A_2 O 0.86610(5) 0.63077(7) 0.29962(4)
O6 O 0.97819(8) 0.47089(15) 0.12228(13)
H35 H 1.0137 0.4760 0.1227
H36 H 0.9623 0.5182 0.1036
O7 O 0.26374(8) 0.62684(14) 0.46970(10)
H37 H 0.2314 0.6196 0.4755
H38 H 0.2699 0.6831 0.4668
O8 O 0.86541(7) 0.88130(16) 0.05181(9)
H39 H 0.8318 0.8848 0.0277
H40 H 0.8972 0.8833 0.0445
O9 O 0.92922(13) 0.50823(15) -0.00511(10)
H41 H 0.9352 0.5389 0.0261
H42 H 0.9139 0.4795 -0.0357
loop_
_geom_bond_atom_site_label_1
_geom_bond_atom_site_label_2
_geom_bond_site_symmetry_1
_geom_bond_site_symmetry_2
Cd1 N1 1_555 1_555
N1 C16 1_555 1_555
N2 C17 1_555 1_555
N3 Cd1 1_555 1_555
N4 C27 1_555 1_555
C1 C2 1_555 1_555
C2 C3 1_555 1_555
C3 H1 1_555 1_555
C4 C3 1_555 1_555
H2 C4 1_555 1_555
C5 C4 1_555 1_555
C6 C5 1_555 1_555
H3 C6 1_555 1_555
C7 C2 1_555 1_555
H4 C7 1_555 1_555
C8 C5 1_555 1_555
C9 C8 1_555 1_555
C10 C9 1_555 1_555
H5 C10 1_555 1_555
C11 C10 1_555 1_555
H6 C11 1_555 1_555
C12 C11 1_555 1_555
C13 C12 1_555 1_555
H7 C13 1_555 1_555
C14 C9 1_555 1_555
H8 C14 1_555 1_555
C15 C12 1_555 1_555
C16 H9 1_555 1_555
C17 C16 1_555 1_555
H10 C17 1_555 1_555
C18 N1 1_555 1_555
C19 C18 1_555 1_555
H11 C19 1_555 1_555
H12 C19 1_555 1_555
H13 C19 1_555 1_555
C20 N2 1_555 1_555
H14 C20 1_555 1_555
H15 C20 1_555 1_555
C21 C20 1_555 1_555
C22 C21 1_555 1_555
C23 C22 1_555 1_555
H16 C23 1_555 1_555
H17 C23 1_555 1_555
H18 C23 1_555 1_555
C24 C21 1_555 1_555
C25 C24 1_555 1_555
H19 C25 1_555 1_555
H20 C25 1_555 1_555
H21 C25 1_555 1_555
C26 N3 1_555 1_555
H22 C26 1_555 1_555
C27 C26 1_555 1_555
H23 C27 1_555 1_555
C28 N3 1_555 1_555
C29 C28 1_555 1_555
H24 C29 1_555 1_555
H25 C29 1_555 1_555
H26 C29 1_555 1_555
C30 N4 1_555 1_555
H27 C30 1_555 1_555
H28 C30 1_555 1_555
C31 C30 1_555 1_555
C32 C31 1_555 1_555
C33 C32 1_555 1_555
H29 C33 1_555 1_555
H30 C33 1_555 1_555
H31 C33 1_555 1_555
C34 C31 1_555 1_555
C35 C34 1_555 1_555
H32 C35 1_555 1_555
H33 C35 1_555 1_555
H34 C35 1_555 1_555
O1 Cd1 1_555 1_555
O2 Cd1 1_555 1_555
O3 C15 1_555 1_555
O4 C15 1_555 1_555
O5 C8 1_555 1_555
O6 H35 1_555 1_555
H36 O6 1_555 1_555
O7 H37 1_555 1_555
H38 O7 1_555 1_555
O8 H39 1_555 1_555
H40 O8 1_555 1_555
O9 H41 1_555 1_555
H42 O9 1_555 1_555
N1F C16F 1_555 1_555
N2F C17F 1_555 1_555
C16F H9F 1_555 1_555
C17F C16F 1_555 1_555
H10F C17F 1_555 1_555
C18F N1F 1_555 1_555
C19F C18F 1_555 1_555
H11F C19F 1_555 1_555
H12F C19F 1_555 1_555
H13F C19F 1_555 1_555
C20F N2F 1_555 1_555
H14F C20F 1_555 1_555
H15F C20F 1_555 1_555
C21F C20F 1_555 1_555
C22F C24 1_555 1_555
C23F C22F 1_555 1_555
H16F C23F 1_555 1_555
H17F C23F 1_555 1_555
H18F C23F 1_555 1_555
C24F C22 1_555 1_555
C25F C24F 1_555 1_555
H19F C25F 1_555 1_555
H20F C25F 1_555 1_555
H21F C25F 1_555 1_555
N3A C26A 1_555 1_555
N4A C27A 1_555 1_555
C26A H22A 1_555 1_555
C27A C26A 1_555 1_555
H23A C27A 1_555 1_555
C28A N3A 1_555 1_555
C29A C28A 1_555 1_555
H24A C29A 1_555 1_555
H25A C29A 1_555 1_555
H26A C29A 1_555 1_555
C30A N4A 1_555 1_555
H27A C30A 1_555 1_555
H28A C30A 1_555 1_555
C31A C30A 1_555 1_555
C32A C32 1_555 1_555
C33A C32A 1_555 1_555
H29A C33A 1_555 1_555
H30A C33A 1_555 1_555
H31A C33A 1_555 1_555
C34A C34 1_555 1_555
C35A C34A 1_555 1_555
H32A C35A 1_555 1_555
H33A C35A 1_555 1_555
H34A C35A 1_555 1_555
Cd1A N3A 1_555 1_555
C1A C2A 1_555 1_555
C2A C3A 1_555 1_555
C3A H1A 1_555 1_555
C4A C3A 1_555 1_555
H2A C4A 1_555 1_555
C5A C4A 1_555 1_555
C6A C5A 1_555 1_555
H3A C6A 1_555 1_555
C7A C2A 1_555 1_555
H4A C7A 1_555 1_555
C8A C5A 1_555 1_555
C9A C8A 1_555 1_555
C10A C9A 1_555 1_555
H5A C10A 1_555 1_555
C11A C10A 1_555 1_555
H6A C11A 1_555 1_555
C12A C11A 1_555 1_555
C13A C12A 1_555 1_555
H7A C13A 1_555 1_555
C14A C9A 1_555 1_555
H8A C14A 1_555 1_555
C15A C12A 1_555 1_555
O1A Cd1A 1_555 1_555
O2A Cd1A 1_555 1_555
O3A C15A 1_555 1_555
O4A C15A 1_555 1_555
O5A C8A 1_555 1_555
Cd1_2 O3 1_555 1_555
Cd1A_2 O3A 1_555 1_555
Cd1F N1F 1_555 1_555
N1A Cd1A 1_555 1_555
O3_2 Cd1 1_555 1_555
O3A_2 Cd1A 1_555 1_555
O4_2 Cd1 1_555 1_555
O4A_2 Cd1A 1_555 1_555
N2 C18 1_555 1_555
N4 C28 1_555 1_555
C1 O1 1_555 1_555
C1 O2 1_555 1_555
C6 C7 1_555 1_555
C13 C14 1_555 1_555
O4 Cd1_2 1_555 1_555
N2F C18F 1_555 1_555
C21F C22F 1_555 1_555
C21F C24F 1_555 1_555
N4A C28A 1_555 1_555
C31A C32A 1_555 1_555
C31A C34A 1_555 1_555
C1A O1A 1_555 1_555
C1A O2A 1_555 1_555
C6A C7A 1_555 1_555
C13A C14A 1_555 1_555
O4A Cd1A_2 1_555 1_555

#END
