
#######################################################################
#
#                 Cambridge Crystallographic Data Centre
#                                CCDC 
#
#######################################################################
#
# If this CIF has been generated from an entry in the Cambridge 
# Structural Database, then it will include bibliographic, chemical, 
# crystal, experimental, refinement or atomic coordinate data resulting 
# from the CCDC's data processing and validation procedures.
#
#######################################################################

data_VOZGIC
_symmetry_cell_setting           monoclinic
_symmetry_space_group_name_H-M   'C 2/c'
_symmetry_Int_Tables_number      15
_space_group_name_Hall           '-C 2yn'
loop_
_symmetry_equiv_pos_site_id
_symmetry_equiv_pos_as_xyz
1 x,y,z
2 -x,y,1/2-z
3 1/2+x,1/2+y,z
4 1/2-x,1/2+y,1/2-z
5 -x,-y,-z
6 x,-y,1/2+z
7 1/2-x,1/2-y,-z
8 1/2+x,1/2-y,1/2+z
_cell_length_a                   12.4510(14)
_cell_length_b                   25.710(3)
_cell_length_c                   25.780(2)
_cell_angle_alpha                90
_cell_angle_beta                 91.6000(10)
_cell_angle_gamma                90
_cell_volume                     8249.35
loop_
_atom_site_label
_atom_site_type_symbol
_atom_site_fract_x
_atom_site_fract_y
_atom_site_fract_z
Cu1 Cu 0.56621(9) 0.63870(5) 0.59908(5)
N1 N 0.6947(7) 0.6427(5) 0.6519(3)
N2 N 0.5578(9) 0.5651(4) 0.6348(4)
P1 P 0.4455(2) 0.69816(10) 0.62346(10)
P2 P 0.6008(2) 0.63859(10) 0.51438(11)
C1 C 0.7599(11) 0.6827(5) 0.6627(5)
H1 H 0.7527 0.7131 0.6433
C2 C 0.8388(10) 0.6802(6) 0.7023(6)
H2 H 0.8843 0.7081 0.7095
C3 C 0.8461(11) 0.6352(8) 0.7300(5)
H3 H 0.9006 0.6327 0.7553
C4 C 0.7821(13) 0.5953(7) 0.7236(7)
C5 C 0.7042(12) 0.5990(6) 0.6822(6)
C6 C 0.6315(12) 0.5600(6) 0.6726(6)
C7 C 0.6384(13) 0.5139(7) 0.7027(6)
C8 C 0.5640(14) 0.4745(6) 0.6908(6)
H4 H 0.5677 0.4436 0.7094
C9 C 0.4893(11) 0.4799(5) 0.6544(6)
H5 H 0.4390 0.4540 0.6472
C10 C 0.4898(10) 0.5279(6) 0.6265(5)
H6 H 0.4374 0.5327 0.6006
C11 C 0.7872(12) 0.5496(8) 0.7528(6)
H7 H 0.8394 0.5460 0.7790
C12 C 0.7195(14) 0.5121(6) 0.7434(6)
H8 H 0.7238 0.4825 0.7641
C13 C 0.4745(7) 0.7191(4) 0.6905(4)
H9 H 0.5470 0.7329 0.6936
H10 H 0.4248 0.7463 0.7001
C14 C 0.4629(7) 0.6725(3) 0.7264(3)
H11 H 0.3894 0.6712 0.7379
H12 H 0.4755 0.6410 0.7067
C15 C 0.3053(8) 0.6813(5) 0.6243(4)
C16 C 0.2277(12) 0.7161(5) 0.6399(4)
H13 H 0.2480 0.7495 0.6501
C17 C 0.1201(11) 0.7021(6) 0.6403(5)
H14 H 0.0687 0.7259 0.6506
C18 C 0.0900(10) 0.6531(6) 0.6254(5)
H15 H 0.0177 0.6440 0.6254
C19 C 0.1615(12) 0.6185(5) 0.6111(5)
H16 H 0.1404 0.5851 0.6016
C20 C 0.2689(11) 0.6329(5) 0.6103(4)
H17 H 0.3186 0.6084 0.5998
C21 C 0.4473(10) 0.7571(4) 0.5854(5)
C22 C 0.3858(9) 0.7617(5) 0.5414(5)
H18 H 0.3382 0.7350 0.5326
C23 C 0.3910(10) 0.8034(6) 0.5101(5)
H19 H 0.3466 0.8051 0.4805
C24 C 0.4605(11) 0.8433(5) 0.5209(6)
H20 H 0.4629 0.8726 0.4998
C25 C 0.5265(10) 0.8387(5) 0.5640(6)
H21 H 0.5770 0.8643 0.5718
C26 C 0.5176(9) 0.7952(5) 0.5963(5)
H22 H 0.5615 0.7927 0.6260
C27 C 0.6417(9) 0.6997(4) 0.4856(4)
H23 H 0.6592 0.6936 0.4496
H24 H 0.5818 0.7238 0.4859
C28 C 0.7339(9) 0.7233(3) 0.5124(4)
H25 H 0.7945 0.6997 0.5113
H26 H 0.7172 0.7288 0.5485
C29 C 0.7042(9) 0.5936(4) 0.4936(6)
C30 C 0.7752(11) 0.5761(5) 0.5305(5)
H27 H 0.7701 0.5868 0.5647
C31 C 0.8575(10) 0.5409(5) 0.5159(6)
H28 H 0.9085 0.5295 0.5404
C32 C 0.8608(11) 0.5249(5) 0.4675(8)
H29 H 0.9118 0.5002 0.4589
C33 C 0.7934(12) 0.5427(5) 0.4299(6)
H30 H 0.7999 0.5322 0.3957
C34 C 0.7133(10) 0.5777(5) 0.4439(6)
H31 H 0.6653 0.5902 0.4185
C35 C 0.4857(10) 0.6183(6) 0.4773(6)
C36 C 0.4435(13) 0.5702(6) 0.4866(6)
H32 H 0.4793 0.5497 0.5112
C37 C 0.3530(16) 0.5491(6) 0.4629(7)
H33 H 0.3316 0.5150 0.4684
C38 C 0.2979(13) 0.5816(9) 0.4312(8)
H34 H 0.2314 0.5709 0.4178
C39 C 0.3339(15) 0.6283(7) 0.4182(7)
H35 H 0.2948 0.6493 0.3952
C40 C 0.4365(14) 0.6458(6) 0.4408(7)
H36 H 0.4671 0.6766 0.4294
P1A P 0.5545(2) 0.69816(10) 0.87654(10)
C13A C 0.5255(7) 0.7191(4) 0.8095(4)
H9A H 0.4530 0.7329 0.8064
H10A H 0.5752 0.7463 0.7999
C14A C 0.5371(7) 0.6725(3) 0.7736(3)
H11A H 0.6106 0.6712 0.7621
H12A H 0.5245 0.6410 0.7933
C15A C 0.6947(8) 0.6813(5) 0.8757(4)
C16A C 0.7723(12) 0.7161(5) 0.8601(4)
H13A H 0.7520 0.7495 0.8499
C17A C 0.8799(11) 0.7021(6) 0.8597(5)
H14A H 0.9313 0.7259 0.8494
C18A C 0.9100(10) 0.6531(6) 0.8746(5)
H15A H 0.9823 0.6440 0.8746
C19A C 0.8385(12) 0.6185(5) 0.8889(5)
H16A H 0.8596 0.5851 0.8984
C20A C 0.7311(11) 0.6329(5) 0.8897(4)
H17A H 0.6814 0.6084 0.9002
C21A C 0.5527(10) 0.7571(4) 0.9146(5)
C22A C 0.6142(9) 0.7617(5) 0.9586(5)
H18A H 0.6618 0.7350 0.9674
C23A C 0.6090(10) 0.8034(6) 0.9899(5)
H19A H 0.6534 0.8051 1.0195
C24A C 0.5395(11) 0.8433(5) 0.9791(6)
H20A H 0.5371 0.8726 1.0002
C25A C 0.4735(10) 0.8387(5) 0.9360(6)
H21A H 0.4230 0.8643 0.9282
C26A C 0.4824(9) 0.7952(5) 0.9037(5)
H22A H 0.4385 0.7927 0.8740
P2F P 0.8992(2) 0.86141(10) 0.48562(11)
C27F C 0.8583(9) 0.8003(4) 0.5144(4)
H23F H 0.8408 0.8064 0.5504
H24F H 0.9182 0.7762 0.5141
C28F C 0.7661(9) 0.7767(3) 0.4876(4)
H25F H 0.7055 0.8003 0.4887
H26F H 0.7828 0.7712 0.4515
C29F C 0.7958(9) 0.9064(4) 0.5064(6)
C30F C 0.7248(11) 0.9239(5) 0.4695(5)
H27F H 0.7299 0.9132 0.4353
C31F C 0.6425(10) 0.9591(5) 0.4841(6)
H28F H 0.5915 0.9705 0.4596
C32F C 0.6392(11) 0.9751(5) 0.5325(8)
H29F H 0.5882 0.9998 0.5411
C33F C 0.7066(12) 0.9573(5) 0.5701(6)
H30F H 0.7001 0.9678 0.6043
C34F C 0.7867(10) 0.9223(5) 0.5561(6)
H31F H 0.8347 0.9098 0.5815
C35F C 1.0143(10) 0.8817(6) 0.5227(6)
C36F C 1.0565(13) 0.9298(6) 0.5134(6)
H32F H 1.0207 0.9503 0.4888
C37F C 1.1470(16) 0.9509(6) 0.5371(7)
H33F H 1.1684 0.9850 0.5316
C38F C 1.2021(13) 0.9184(9) 0.5688(8)
H34F H 1.2686 0.9291 0.5822
C39F C 1.1661(15) 0.8717(7) 0.5818(7)
H35F H 1.2052 0.8507 0.6048
C40F C 1.0635(14) 0.8542(6) 0.5592(7)
H36F H 1.0329 0.8234 0.5706
Cu1A Cu 0.43379(9) 0.63870(5) 0.90092(5)
N1A N 0.3053(7) 0.6427(5) 0.8481(3)
N2A N 0.4422(9) 0.5651(4) 0.8652(4)
C1A C 0.2401(11) 0.6827(5) 0.8373(5)
H1A H 0.2473 0.7131 0.8567
C2A C 0.1612(10) 0.6802(6) 0.7977(6)
H2A H 0.1157 0.7081 0.7905
C3A C 0.1539(11) 0.6352(8) 0.7700(5)
H3A H 0.0994 0.6327 0.7447
C4A C 0.2179(13) 0.5953(7) 0.7764(7)
C5A C 0.2958(12) 0.5990(6) 0.8178(6)
C6A C 0.3685(12) 0.5600(6) 0.8274(6)
C7A C 0.3616(13) 0.5139(7) 0.7973(6)
C8A C 0.4360(14) 0.4745(6) 0.8092(6)
H4A H 0.4323 0.4436 0.7906
C9A C 0.5107(11) 0.4799(5) 0.8456(6)
H5A H 0.5610 0.4540 0.8528
C10A C 0.5102(10) 0.5279(6) 0.8735(5)
H6A H 0.5626 0.5327 0.8994
C11A C 0.2128(12) 0.5496(8) 0.7472(6)
H7A H 0.1606 0.5460 0.7210
C12A C 0.2805(14) 0.5121(6) 0.7566(6)
H8A H 0.2762 0.4825 0.7359
Cu1F Cu 0.93379(9) 0.86130(5) 0.40092(5)
P2A P 0.3992(2) 0.63859(10) 0.98562(11)
F1 F 0.7300(13) 0.6392(6) 0.2138(6)
F2 F 0.8133(14) 0.7060(7) 0.2574(7)
F3 F 0.6264(16) 0.7034(7) 0.2458(8)
O1 O 0.7245(11) 0.6870(5) 0.3477(5)
O2 O 0.8048(15) 0.6095(7) 0.3133(7)
O3 O 0.6136(15) 0.6241(6) 0.3029(7)
S1 S 0.7281(7) 0.6484(3) 0.3088(3)
C41 C 0.726(3) 0.6783(15) 0.2485(16)
N3 N 0.9727(17) 0.5211(7) 0.6475(9)
C42 C 0.9715(16) 0.4788(9) 0.6619(9)
C43 C 0.9545(15) 0.4249(8) 0.6792(8)
H37 H 0.8909 0.4111 0.6624
H38 H 0.9464 0.4243 0.7161
H39 H 1.0153 0.4040 0.6704
loop_
_geom_bond_atom_site_label_1
_geom_bond_atom_site_label_2
_geom_bond_site_symmetry_1
_geom_bond_site_symmetry_2
Cu1 N1 1_555 1_555
N1 C1 1_555 1_555
N2 Cu1 1_555 1_555
P1 Cu1 1_555 1_555
P2 Cu1 1_555 1_555
C1 H1 1_555 1_555
C2 C1 1_555 1_555
H2 C2 1_555 1_555
C3 C2 1_555 1_555
H3 C3 1_555 1_555
C4 C3 1_555 1_555
C5 N1 1_555 1_555
C6 N2 1_555 1_555
C7 C6 1_555 1_555
C8 C7 1_555 1_555
H4 C8 1_555 1_555
C9 C8 1_555 1_555
H5 C9 1_555 1_555
C10 N2 1_555 1_555
H6 C10 1_555 1_555
C11 C4 1_555 1_555
H7 C11 1_555 1_555
C12 C7 1_555 1_555
H8 C12 1_555 1_555
C13 P1 1_555 1_555
H9 C13 1_555 1_555
H10 C13 1_555 1_555
C14 C13 1_555 1_555
H11 C14 1_555 1_555
H12 C14 1_555 1_555
C15 P1 1_555 1_555
C16 C15 1_555 1_555
H13 C16 1_555 1_555
C17 C16 1_555 1_555
H14 C17 1_555 1_555
C18 C17 1_555 1_555
H15 C18 1_555 1_555
C19 C18 1_555 1_555
H16 C19 1_555 1_555
C20 C15 1_555 1_555
H17 C20 1_555 1_555
C21 P1 1_555 1_555
C22 C21 1_555 1_555
H18 C22 1_555 1_555
C23 C22 1_555 1_555
H19 C23 1_555 1_555
C24 C23 1_555 1_555
H20 C24 1_555 1_555
C25 C24 1_555 1_555
H21 C25 1_555 1_555
C26 C21 1_555 1_555
H22 C26 1_555 1_555
C27 P2 1_555 1_555
H23 C27 1_555 1_555
H24 C27 1_555 1_555
C28 C27 1_555 1_555
H25 C28 1_555 1_555
H26 C28 1_555 1_555
C29 P2 1_555 1_555
C30 C29 1_555 1_555
H27 C30 1_555 1_555
C31 C30 1_555 1_555
H28 C31 1_555 1_555
C32 C31 1_555 1_555
H29 C32 1_555 1_555
C33 C32 1_555 1_555
H30 C33 1_555 1_555
C34 C29 1_555 1_555
H31 C34 1_555 1_555
C35 P2 1_555 1_555
C36 C35 1_555 1_555
H32 C36 1_555 1_555
C37 C36 1_555 1_555
H33 C37 1_555 1_555
C38 C37 1_555 1_555
H34 C38 1_555 1_555
C39 C38 1_555 1_555
H35 C39 1_555 1_555
C40 C35 1_555 1_555
H36 C40 1_555 1_555
F1 C41 1_555 1_555
F2 C41 1_555 1_555
F3 C41 1_555 1_555
O1 S1 1_555 1_555
O2 S1 1_555 1_555
O3 S1 1_555 1_555
S1 C41 1_555 1_555
N3 C42 1_555 1_555
C42 C43 1_555 1_555
C43 H37 1_555 1_555
H38 C43 1_555 1_555
H39 C43 1_555 1_555
P1A C13A 1_555 1_555
C13A H9A 1_555 1_555
H10A C13A 1_555 1_555
C14A C14 1_555 1_555
H11A C14A 1_555 1_555
H12A C14A 1_555 1_555
C15A P1A 1_555 1_555
C16A C15A 1_555 1_555
H13A C16A 1_555 1_555
C17A C16A 1_555 1_555
H14A C17A 1_555 1_555
C18A C17A 1_555 1_555
H15A C18A 1_555 1_555
C19A C18A 1_555 1_555
H16A C19A 1_555 1_555
C20A C15A 1_555 1_555
H17A C20A 1_555 1_555
C21A P1A 1_555 1_555
C22A C21A 1_555 1_555
H18A C22A 1_555 1_555
C23A C22A 1_555 1_555
H19A C23A 1_555 1_555
C24A C23A 1_555 1_555
H20A C24A 1_555 1_555
C25A C24A 1_555 1_555
H21A C25A 1_555 1_555
C26A C21A 1_555 1_555
H22A C26A 1_555 1_555
P2F C27F 1_555 1_555
C27F H23F 1_555 1_555
H24F C27F 1_555 1_555
C28F C28 1_555 1_555
H25F C28F 1_555 1_555
H26F C28F 1_555 1_555
C29F P2F 1_555 1_555
C30F C29F 1_555 1_555
H27F C30F 1_555 1_555
C31F C30F 1_555 1_555
H28F C31F 1_555 1_555
C32F C31F 1_555 1_555
H29F C32F 1_555 1_555
C33F C32F 1_555 1_555
H30F C33F 1_555 1_555
C34F C29F 1_555 1_555
H31F C34F 1_555 1_555
C35F P2F 1_555 1_555
C36F C35F 1_555 1_555
H32F C36F 1_555 1_555
C37F C36F 1_555 1_555
H33F C37F 1_555 1_555
C38F C37F 1_555 1_555
H34F C38F 1_555 1_555
C39F C38F 1_555 1_555
H35F C39F 1_555 1_555
C40F C35F 1_555 1_555
H36F C40F 1_555 1_555
Cu1A P1A 1_555 1_555
N1A Cu1A 1_555 1_555
N2A Cu1A 1_555 1_555
C1A N1A 1_555 1_555
H1A C1A 1_555 1_555
C2A C1A 1_555 1_555
H2A C2A 1_555 1_555
C3A C2A 1_555 1_555
H3A C3A 1_555 1_555
C4A C3A 1_555 1_555
C5A N1A 1_555 1_555
C6A N2A 1_555 1_555
C7A C6A 1_555 1_555
C8A C7A 1_555 1_555
H4A C8A 1_555 1_555
C9A C8A 1_555 1_555
H5A C9A 1_555 1_555
C10A N2A 1_555 1_555
H6A C10A 1_555 1_555
C11A C4A 1_555 1_555
H7A C11A 1_555 1_555
C12A C7A 1_555 1_555
H8A C12A 1_555 1_555
Cu1F P2F 1_555 1_555
P2A Cu1A 1_555 1_555
C4 C5 1_555 1_555
C5 C6 1_555 1_555
C9 C10 1_555 1_555
C11 C12 1_555 1_555
C19 C20 1_555 1_555
C25 C26 1_555 1_555
C33 C34 1_555 1_555
C39 C40 1_555 1_555
C13A C14A 1_555 1_555
C19A C20A 1_555 1_555
C25A C26A 1_555 1_555
C27F C28F 1_555 1_555
C33F C34F 1_555 1_555
C39F C40F 1_555 1_555
C4A C5A 1_555 1_555
C5A C6A 1_555 1_555
C9A C10A 1_555 1_555
C11A C12A 1_555 1_555

#END
