
#######################################################################
#
#                 Cambridge Crystallographic Data Centre
#                                CCDC 
#
#######################################################################
#
# If this CIF has been generated from an entry in the Cambridge 
# Structural Database, then it will include bibliographic, chemical, 
# crystal, experimental, refinement or atomic coordinate data resulting 
# from the CCDC's data processing and validation procedures.
#
#######################################################################

data_VOZLED
_symmetry_cell_setting           triclinic
_symmetry_space_group_name_H-M   'P -1'
_symmetry_Int_Tables_number      2
_space_group_name_Hall           '-P 1'
loop_
_symmetry_equiv_pos_site_id
_symmetry_equiv_pos_as_xyz
1 x,y,z
2 -x,-y,-z
_cell_length_a                   15.298(3)
_cell_length_b                   16.437(4)
_cell_length_c                   18.400(4)
_cell_angle_alpha                72.667(4)
_cell_angle_beta                 81.055(4)
_cell_angle_gamma                63.149(3)
_cell_volume                     3939.26
loop_
_atom_site_label
_atom_site_type_symbol
_atom_site_fract_x
_atom_site_fract_y
_atom_site_fract_z
C1 C 0.6170(6) -0.1519(5) 0.2031(4)
H1 H 0.6733 -0.1871 0.1786
C2 C 0.5958(6) -0.1944(4) 0.2774(3)
H2 H 0.6372 -0.2564 0.3006
C3 C 0.5154(5) -0.1453(4) 0.3154(3)
C4 C 0.4522(6) -0.0556(5) 0.2723(4)
H3 H 0.3923 -0.0210 0.2935
C5 C 0.4774(6) -0.0192(5) 0.2007(4)
H4 H 0.4340 0.0405 0.1745
C6 C 0.2527(5) 0.2962(4) 0.5265(3)
H5 H 0.2776 0.3294 0.4855
C7 C 0.2924(5) 0.1995(4) 0.5415(3)
H6 H 0.3411 0.1689 0.5091
C8 C 0.2607(4) 0.1466(4) 0.6047(3)
C9 C 0.1881(5) 0.1980(4) 0.6496(3)
H7 H 0.1650 0.1670 0.6935
C10 C 0.1504(5) 0.2943(4) 0.6296(3)
H8 H 0.1011 0.3268 0.6607
C11 C 0.4051(6) -0.1643(5) 0.1110(4)
H9 H 0.4573 -0.2038 0.0860
C12 C 0.3863(6) -0.2027(4) 0.1869(4)
H10 H 0.4277 -0.2638 0.2121
C13 C 0.3053(5) -0.1485(4) 0.2235(3)
C14 C 0.2497(5) -0.0590(4) 0.1827(4)
H11 H 0.1934 -0.0198 0.2047
C15 C 0.2777(5) -0.0267(5) 0.1082(4)
H12 H 0.2388 0.0349 0.0821
C16 C 0.0325(6) 0.2888(4) 0.4507(3)
H13 H 0.0484 0.3253 0.4063
C17 C 0.0738(6) 0.1947(4) 0.4609(4)
H14 H 0.1175 0.1687 0.4240
C18 C 0.0528(4) 0.1358(3) 0.5247(3)
C19 C -0.0072(5) 0.1824(4) 0.5768(3)
H15 H -0.0218 0.1476 0.6229
C20 C -0.0459(4) 0.2775(4) 0.5636(3)
H16 H -0.0862 0.3054 0.6009
C21 C 0.1068(4) 0.5080(3) 0.3781(3)
C22 C 0.3493(5) 0.1548(5) -0.0052(3)
C23 C 0.6347(6) 0.1688(4) 0.0905(3)
C24 C 0.7607(4) 0.5062(3) 0.3712(3)
C25 C 0.4928(4) -0.1818(4) 0.3971(3)
C26 C 0.5216(5) -0.2780(4) 0.4296(3)
H17 H 0.5540 -0.3203 0.3997
C27 C 0.5025(5) -0.3115(4) 0.5061(4)
H18 H 0.5217 -0.3757 0.5277
C28 C 0.4541(5) -0.2467(4) 0.5498(3)
C29 C 0.4262(4) -0.1504(4) 0.5177(3)
C30 C 0.4449(4) -0.1187(4) 0.4410(3)
H19 H 0.4249 -0.0544 0.4189
C31 C 0.3793(4) -0.0952(4) 0.5730(3)
C32 C 0.3728(5) -0.1503(4) 0.6453(3)
C33 C 0.3312(6) -0.1091(4) 0.7049(3)
H20 H 0.3264 -0.1461 0.7532
C34 C 0.2976(5) -0.0151(4) 0.6928(3)
H21 H 0.2705 0.0122 0.7333
C35 C 0.3027(5) 0.0427(4) 0.6198(3)
C36 C 0.3420(4) 0.0014(3) 0.5611(3)
H22 H 0.3438 0.0388 0.5123
C37 C 0.2843(4) -0.1847(4) 0.3051(3)
C38 C 0.3091(5) -0.2815(4) 0.3376(4)
H23 H 0.3388 -0.3236 0.3072
C39 C 0.2901(5) -0.3144(4) 0.4125(4)
H24 H 0.3054 -0.3782 0.4326
C40 C 0.2481(4) -0.2530(3) 0.4588(3)
C41 C 0.2215(4) -0.1562(3) 0.4277(3)
C42 C 0.2406(4) -0.1243(4) 0.3502(3)
H25 H 0.2230 -0.0603 0.3292
C43 C 0.1771(4) -0.1036(3) 0.4840(3)
C44 C 0.1714(5) -0.1615(4) 0.5562(3)
C45 C 0.1318(6) -0.1230(4) 0.6168(3)
H26 H 0.1311 -0.1619 0.6652
C46 C 0.0937(5) -0.0286(4) 0.6065(3)
H27 H 0.0656 -0.0039 0.6482
C47 C 0.0947(4) 0.0336(4) 0.5358(3)
C48 C 0.1382(4) -0.0071(4) 0.4746(3)
H28 H 0.1408 0.0317 0.4266
C49 C 0.2998(4) 0.2529(4) 0.0076(3)
C50 C 0.2005(5) 0.3051(4) -0.0009(4)
H29 H 0.1645 0.2790 -0.0141
C51 C 0.1531(4) 0.3937(4) 0.0092(4)
H30 H 0.0855 0.4274 0.0043
C52 C 0.2087(4) 0.4329(3) 0.0273(2)
C53 C 0.3069(4) 0.3832(4) 0.0341(3)
H31 H 0.3438 0.4101 0.0449
C54 C 0.3518(4) 0.2938(4) 0.0253(3)
H32 H 0.4191 0.2597 0.0313
C55 C 0.1333(3) 0.5362(3) 0.1384(2)
C56 C 0.0541(4) 0.5237(4) 0.1786(3)
H33 H 0.0070 0.5218 0.1535
C57 C 0.0451(4) 0.5140(4) 0.2566(3)
H34 H -0.0076 0.5049 0.2840
C58 C 0.1146(4) 0.5179(3) 0.2934(2)
C59 C 0.1937(4) 0.5298(4) 0.2522(3)
H35 H 0.2417 0.5305 0.2771
C60 C 0.2017(4) 0.5406(4) 0.1746(3)
H36 H 0.2537 0.5510 0.1469
C61 C 0.5941(4) 0.2666(4) 0.1043(3)
C62 C 0.5120(4) 0.2980(4) 0.1502(3)
H37 H 0.4799 0.2596 0.1716
C63 C 0.4763(4) 0.3857(4) 0.1650(3)
H38 H 0.4217 0.4056 0.1969
C64 C 0.5225(4) 0.4418(4) 0.1320(3)
C65 C 0.6020(5) 0.4137(4) 0.0841(3)
H39 H 0.6311 0.4541 0.0601
C66 C 0.6398(5) 0.3239(5) 0.0711(3)
H40 H 0.6954 0.3035 0.0403
C67 C 0.5627(3) 0.5388(3) 0.2141(3)
C68 C 0.5438(4) 0.5131(3) 0.2909(3)
H41 H 0.4891 0.5015 0.3086
C69 C 0.6071(4) 0.5048(3) 0.3414(3)
H42 H 0.5932 0.4900 0.3934
C70 C 0.6912(4) 0.5181(3) 0.3156(3)
C71 C 0.7080(4) 0.5444(4) 0.2380(3)
H43 H 0.7633 0.5548 0.2198
C72 C 0.6433(4) 0.5553(4) 0.1869(3)
H44 H 0.6545 0.5737 0.1348
Cd1 Cd -0.11417(3) 0.49407(2) 0.468306(18)
Cd2 Cd 0.60332(4) 0.01528(3) 0.04975(2)
N1 N 0.5612(4) -0.0641(3) 0.1655(3)
N2 N 0.3553(4) -0.0769(3) 0.0718(3)
N3 N 0.1793(3) 0.3440(3) 0.5690(2)
N4 N -0.0288(3) 0.3322(3) 0.4998(2)
O1 O 0.4361(4) 0.1031(3) 0.0129(3)
O2 O 0.2985(4) 0.1300(3) -0.0313(3)
O3 O 0.0361(3) 0.4973(3) 0.41527(18)
O4 O 0.1720(3) 0.5118(3) 0.40786(18)
O5 O 0.7343(3) 0.5000(2) 0.43880(19)
O6 O 0.8431(3) 0.5017(2) 0.34619(18)
O7 O 0.5741(4) 0.1360(3) 0.0962(3)
O8 O 0.7245(5) 0.1302(4) 0.0740(4)
O9 O 0.3871(3) 0.5750(2) 0.1862(2)
O10 O 0.4913(3) 0.6173(3) 0.0787(2)
O11 O 0.2092(3) 0.5944(2) 0.01028(18)
O12 O 0.0493(3) 0.5928(2) 0.00884(19)
S1 S 0.42419(17) -0.27057(11) 0.64748(9)
S2 S 0.21979(14) -0.27946(10) 0.55514(9)
S3 S 0.14601(10) 0.54965(9) 0.03913(6)
S4 S 0.48040(10) 0.55360(9) 0.14842(8)
O13 O 0.7727(6) -0.0379(5) 0.1013(5)
H45 H 0.8115 -0.0913 0.0936
H46 H 0.7955 0.0021 0.0792
Cd1_2 Cd 0.88583(3) 0.49407(2) 0.468306(18)
Cd1A Cd 0.11417(3) 0.50593(2) 0.531694(18)
Cd2A Cd 0.39668(4) -0.01528(3) -0.04975(2)
N2A N 0.6447(4) 0.0769(3) -0.0718(3)
N3A N -0.1793(3) 0.6560(3) 0.4310(2)
O2A O 0.7015(4) -0.1300(3) 0.0313(3)
O3A O -0.0361(3) 0.5027(3) 0.58473(18)
O4A O -0.1720(3) 0.4882(3) 0.59214(18)
O5_2 O -0.2657(3) 0.5000(2) 0.43880(19)
O6_2 O -0.1569(3) 0.5017(2) 0.34619(18)
loop_
_geom_bond_atom_site_label_1
_geom_bond_atom_site_label_2
_geom_bond_site_symmetry_1
_geom_bond_site_symmetry_2
C1 H1 1_555 1_555
C2 C1 1_555 1_555
H2 C2 1_555 1_555
C3 C2 1_555 1_555
C4 C3 1_555 1_555
H3 C4 1_555 1_555
C5 C4 1_555 1_555
H4 C5 1_555 1_555
C6 H5 1_555 1_555
C7 C6 1_555 1_555
H6 C7 1_555 1_555
C8 C7 1_555 1_555
C9 C8 1_555 1_555
H7 C9 1_555 1_555
C10 C9 1_555 1_555
H8 C10 1_555 1_555
C11 H9 1_555 1_555
C12 C11 1_555 1_555
H10 C12 1_555 1_555
C13 C12 1_555 1_555
C14 C13 1_555 1_555
H11 C14 1_555 1_555
C15 C14 1_555 1_555
H12 C15 1_555 1_555
C16 H13 1_555 1_555
C17 C16 1_555 1_555
H14 C17 1_555 1_555
C18 C17 1_555 1_555
C19 C18 1_555 1_555
H15 C19 1_555 1_555
C20 C19 1_555 1_555
H16 C20 1_555 1_555
C21 C58 1_555 1_555
C22 C49 1_555 1_555
C23 C61 1_555 1_555
C24 C70 1_555 1_555
C25 C3 1_555 1_555
C26 C25 1_555 1_555
H17 C26 1_555 1_555
C27 C26 1_555 1_555
H18 C27 1_555 1_555
C28 C27 1_555 1_555
C29 C28 1_555 1_555
C30 C25 1_555 1_555
H19 C30 1_555 1_555
C31 C29 1_555 1_555
C32 C31 1_555 1_555
C33 C32 1_555 1_555
H20 C33 1_555 1_555
C34 C33 1_555 1_555
H21 C34 1_555 1_555
C35 C8 1_555 1_555
C36 C31 1_555 1_555
H22 C36 1_555 1_555
C37 C13 1_555 1_555
C38 C37 1_555 1_555
H23 C38 1_555 1_555
C39 C38 1_555 1_555
H24 C39 1_555 1_555
C40 C39 1_555 1_555
C41 C40 1_555 1_555
C42 C37 1_555 1_555
H25 C42 1_555 1_555
C43 C41 1_555 1_555
C44 C43 1_555 1_555
C45 C44 1_555 1_555
H26 C45 1_555 1_555
C46 C45 1_555 1_555
H27 C46 1_555 1_555
C47 C18 1_555 1_555
C48 C43 1_555 1_555
H28 C48 1_555 1_555
C49 C50 1_555 1_555
C50 H29 1_555 1_555
C51 C50 1_555 1_555
H30 C51 1_555 1_555
C52 C51 1_555 1_555
C53 C52 1_555 1_555
H31 C53 1_555 1_555
C54 C49 1_555 1_555
H32 C54 1_555 1_555
C55 C56 1_555 1_555
C56 H33 1_555 1_555
C57 C56 1_555 1_555
H34 C57 1_555 1_555
C58 C57 1_555 1_555
C59 C58 1_555 1_555
H35 C59 1_555 1_555
C60 C55 1_555 1_555
H36 C60 1_555 1_555
C61 C62 1_555 1_555
C62 H37 1_555 1_555
C63 C62 1_555 1_555
H38 C63 1_555 1_555
C64 C63 1_555 1_555
C65 C64 1_555 1_555
H39 C65 1_555 1_555
C66 C61 1_555 1_555
H40 C66 1_555 1_555
C67 C68 1_555 1_555
C68 H41 1_555 1_555
C69 C68 1_555 1_555
H42 C69 1_555 1_555
C70 C69 1_555 1_555
C71 C70 1_555 1_555
H43 C71 1_555 1_555
C72 C67 1_555 1_555
H44 C72 1_555 1_555
Cd1 N4 1_555 1_555
Cd2 N1 1_555 1_555
N1 C1 1_555 1_555
N2 C11 1_555 1_555
N3 C6 1_555 1_555
N4 C16 1_555 1_555
O1 C22 1_555 1_555
O2 C22 1_555 1_555
O3 C21 1_555 1_555
O4 C21 1_555 1_555
O5 C24 1_555 1_555
O6 C24 1_555 1_555
O7 C23 1_555 1_555
O8 C23 1_555 1_555
O9 S4 1_555 1_555
O10 S4 1_555 1_555
O11 S3 1_555 1_555
O12 S3 1_555 1_555
S1 C28 1_555 1_555
S2 C40 1_555 1_555
S3 C52 1_555 1_555
S4 C64 1_555 1_555
O13 Cd2 1_555 1_555
H45 O13 1_555 1_555
H46 O13 1_555 1_555
Cd1_2 O5 1_555 1_555
Cd1A N3 1_555 1_555
Cd2A N2 1_555 1_555
N2A Cd2 1_555 1_555
N3A Cd1 1_555 1_555
O2A Cd2 1_555 1_555
O3A Cd1 1_555 1_555
O4A Cd1 1_555 1_555
O5_2 Cd1 1_555 1_555
O6_2 Cd1 1_555 1_555
C5 N1 1_555 1_555
C10 N3 1_555 1_555
C15 N2 1_555 1_555
C20 N4 1_555 1_555
C29 C30 1_555 1_555
C32 S1 1_555 1_555
C34 C35 1_555 1_555
C35 C36 1_555 1_555
C41 C42 1_555 1_555
C44 S2 1_555 1_555
C46 C47 1_555 1_555
C47 C48 1_555 1_555
C53 C54 1_555 1_555
C55 S3 1_555 1_555
C59 C60 1_555 1_555
C65 C66 1_555 1_555
C67 S4 1_555 1_555
C71 C72 1_555 1_555
Cd1 O3 1_555 1_555
Cd2 O1 1_555 1_555
Cd2 O7 1_555 1_555
O2 Cd2A 1_555 1_555
O3 Cd1A 1_555 1_555
O4 Cd1A 1_555 1_555
O6 Cd1_2 1_555 1_555
Cd1A O3A 1_555 1_555

#END
