
#######################################################################
#
#                 Cambridge Crystallographic Data Centre
#                                CCDC 
#
#######################################################################
#
# If this CIF has been generated from an entry in the Cambridge 
# Structural Database, then it will include bibliographic, chemical, 
# crystal, experimental, refinement or atomic coordinate data resulting 
# from the CCDC's data processing and validation procedures.
#
#######################################################################

data_VOZMUU
_symmetry_cell_setting           monoclinic
_symmetry_space_group_name_H-M   'C 2/c'
_symmetry_Int_Tables_number      15
_space_group_name_Hall           '-C 2yn'
loop_
_symmetry_equiv_pos_site_id
_symmetry_equiv_pos_as_xyz
1 x,y,z
2 -x,y,1/2-z
3 1/2+x,1/2+y,z
4 1/2-x,1/2+y,1/2-z
5 -x,-y,-z
6 x,-y,1/2+z
7 1/2-x,1/2-y,-z
8 1/2+x,1/2-y,1/2+z
_cell_length_a                   26.332(5)
_cell_length_b                   14.489(3)
_cell_length_c                   21.269(4)
_cell_angle_alpha                90
_cell_angle_beta                 111.53(3)
_cell_angle_gamma                90
_cell_volume                     7548.45
loop_
_atom_site_label
_atom_site_type_symbol
_atom_site_fract_x
_atom_site_fract_y
_atom_site_fract_z
Mn1 Mn 0.19139(3) 0.12023(5) 1.04496(3)
Mn2 Mn 0.0000 0.40675(7) 0.7500
F1 F 0.03068(16) 0.0186(4) 0.8385(2)
F2 F 0.0696(2) -0.1102(4) 0.8495(3)
F3 F 0.04253(17) -0.0606(3) 0.9278(2)
F4 F 0.2367(3) 0.0431(6) 0.8270(4)
F5 F 0.2642(6) -0.0731(6) 0.8908(7)
F6 F 0.2988(3) 0.0647(7) 0.9152(6)
F7 F 0.20518(18) -0.1937(2) 1.00908(17)
F8 F 0.26261(14) -0.2018(2) 1.11116(18)
F9 F 0.18057(15) -0.2486(2) 1.08714(18)
F10 F 0.10903(14) -0.0582(2) 1.21385(17)
F11 F 0.14415(19) 0.0764(3) 1.2392(2)
F12 F 0.06953(15) 0.0597(3) 1.1592(2)
F13 F -0.15857(16) 0.4200(3) 0.8021(2)
F14 F -0.14889(17) 0.5652(3) 0.8025(2)
F15 F -0.20734(13) 0.4997(3) 0.71873(18)
O1 O 0.11835(13) 0.0714(2) 0.96306(16)
O2 O 0.22360(13) 0.1061(2) 0.96402(15)
O3 O 0.21694(13) -0.0233(2) 1.06362(16)
O4 O 0.15639(13) 0.0888(2) 1.11816(16)
O5 O 0.15159(12) 0.2531(2) 1.02843(14)
O6 O 0.01559(12) 0.2912(2) 0.81832(15)
O7 O 0.26303(13) 0.2784(2) 0.82257(16)
O8 O -0.07737(13) 0.4254(2) 0.75976(17)
O9 O -0.03645(15) 0.4979(2) 0.66497(18)
N1 N 0.10393(14) 0.2695(2) 0.98242(17)
N2 N 0.03997(15) 0.2869(3) 0.88373(18)
N3 N 0.22683(14) 0.3145(2) 0.89819(17)
C1 C 0.0661(3) -0.0386(5) 0.8844(4)
C2 C 0.1199(2) 0.0128(4) 0.9198(3)
C3 C 0.1622(2) -0.0082(3) 0.8985(3)
H1 H 0.1579 -0.0559 0.8677
C4 C 0.2112(2) 0.0410(3) 0.9224(2)
C5 C 0.2545(2) 0.0145(3) 0.8950(3)
C6 C 0.2109(2) -0.1834(4) 1.0729(3)
C7 C 0.19579(19) -0.0848(3) 1.0870(2)
C8 C 0.1629(2) -0.0748(3) 1.1247(2)
H2 H 0.1506 -0.1270 1.1402
C9 C 0.14790(17) 0.0121(3) 1.1396(2)
C10 C 0.11774(19) 0.0217(3) 1.1885(2)
C11 C 0.2597(2) 0.2466(4) 0.7570(2)
H3 H 0.2489 0.1829 0.7516
H4 H 0.2948 0.2529 0.7532
H5 H 0.2333 0.2828 0.7225
C12 C 0.21839(18) 0.2747(3) 0.8381(2)
C13 C 0.18603(18) 0.3141(3) 0.9213(2)
H6 H 0.1919 0.3407 0.9632
C14 C 0.13526(17) 0.2758(3) 0.8857(2)
C15 C 0.12681(18) 0.2358(3) 0.8229(2)
H7 H 0.0931 0.2100 0.7976
C16 C 0.16894(19) 0.2348(3) 0.7984(2)
H8 H 0.1643 0.2084 0.7568
C17 C 0.09410(17) 0.2766(3) 0.9159(2)
C18 C 0.05502(19) 0.2913(3) 1.0001(2)
C19 C 0.0532(2) 0.2271(4) 1.0550(3)
H9 H 0.0574 0.1646 1.0429
H10 H 0.0188 0.2337 1.0606
H11 H 0.0823 0.2423 1.0967
C20 C 0.0621(2) 0.3917(4) 1.0234(3)
H12 H 0.0966 0.3989 1.0599
H13 H 0.0332 0.4085 1.0385
H14 H 0.0610 0.4308 0.9865
C21 C 0.00880(18) 0.2766(4) 0.9295(2)
C22 C -0.0139(2) 0.1784(4) 0.9193(3)
H15 H -0.0346 0.1682 0.8722
H16 H -0.0371 0.1701 0.9446
H17 H 0.0157 0.1351 0.9346
C23 C -0.0372(2) 0.3469(5) 0.9112(3)
H18 H -0.0226 0.4076 0.9111
H19 H -0.0545 0.3443 0.9438
H20 H -0.0635 0.3332 0.8671
C24 C -0.15766(19) 0.4915(3) 0.7638(2)
C25 C -0.11385(19) 0.4828(3) 0.7325(2)
C26 C -0.1186(3) 0.5402(5) 0.6795(3)
H21 H -0.1496 0.5769 0.6617
C27 C -0.0782(3) 0.5455(4) 0.6511(3)
C28 C -0.0733(5) 0.6293(6) 0.6090(5)
F16 F -0.1088(4) 0.6944(7) 0.6035(6)
F17 F -0.0306(4) 0.6863(6) 0.6353(5)
F18 F -0.0753(5) 0.5945(7) 0.5490(5)
Mn1A Mn -0.19139(3) 0.12023(5) 0.45504(3)
F1A F -0.03068(16) 0.0186(4) 0.6615(2)
F2A F -0.0696(2) -0.1102(4) 0.6505(3)
F3A F -0.04253(17) -0.0606(3) 0.5722(2)
F4A F -0.2367(3) 0.0431(6) 0.6730(4)
F5A F -0.2642(6) -0.0731(6) 0.6092(7)
F6A F -0.2988(3) 0.0647(7) 0.5848(6)
F7A F -0.20518(18) -0.1937(2) 0.49092(17)
F8A F -0.26261(14) -0.2018(2) 0.38884(18)
F9A F -0.18057(15) -0.2486(2) 0.41286(18)
F10A F -0.10903(14) -0.0582(2) 0.28615(17)
F11A F -0.14415(19) 0.0764(3) 0.2608(2)
F12A F -0.06953(15) 0.0597(3) 0.3408(2)
F13A F 0.15857(16) 0.4200(3) 0.6979(2)
F14A F 0.14889(17) 0.5652(3) 0.6975(2)
F15A F 0.20734(13) 0.4997(3) 0.78127(18)
O1A O -0.11835(13) 0.0714(2) 0.53694(16)
O2A O -0.22360(13) 0.1061(2) 0.53598(15)
O3A O -0.21694(13) -0.0233(2) 0.43638(16)
O4A O -0.15639(13) 0.0888(2) 0.38184(16)
O5A O -0.15159(12) 0.2531(2) 0.47157(14)
O6A O -0.01559(12) 0.2912(2) 0.68168(15)
O7A O -0.26303(13) 0.2784(2) 0.67743(16)
O8A O 0.07737(13) 0.4254(2) 0.74024(17)
O9A O 0.03645(15) 0.4979(2) 0.83503(18)
N1A N -0.10393(14) 0.2695(2) 0.51758(17)
N2A N -0.03997(15) 0.2869(3) 0.61627(18)
N3A N -0.22683(14) 0.3145(2) 0.60181(17)
C1A C -0.0661(3) -0.0386(5) 0.6156(4)
C2A C -0.1199(2) 0.0128(4) 0.5802(3)
C3A C -0.1622(2) -0.0082(3) 0.6015(3)
H1A H -0.1579 -0.0559 0.6323
C4A C -0.2112(2) 0.0410(3) 0.5776(2)
C5A C -0.2545(2) 0.0145(3) 0.6050(3)
C6A C -0.2109(2) -0.1834(4) 0.4271(3)
C7A C -0.19579(19) -0.0848(3) 0.4130(2)
C8A C -0.1629(2) -0.0748(3) 0.3753(2)
H2A H -0.1506 -0.1270 0.3598
C9A C -0.14790(17) 0.0121(3) 0.3604(2)
C10A C -0.11774(19) 0.0217(3) 0.3115(2)
C11A C -0.2597(2) 0.2466(4) 0.7430(2)
H3A H -0.2489 0.1829 0.7484
H4A H -0.2948 0.2529 0.7468
H5A H -0.2333 0.2828 0.7775
C12A C -0.21839(18) 0.2747(3) 0.6619(2)
C13A C -0.18603(18) 0.3141(3) 0.5787(2)
H6A H -0.1919 0.3407 0.5368
C14A C -0.13526(17) 0.2758(3) 0.6143(2)
C15A C -0.12681(18) 0.2358(3) 0.6771(2)
H7A H -0.0931 0.2100 0.7024
C16A C -0.16894(19) 0.2348(3) 0.7016(2)
H8A H -0.1643 0.2084 0.7432
C17A C -0.09410(17) 0.2766(3) 0.5841(2)
C18A C -0.05502(19) 0.2913(3) 0.4999(2)
C19A C -0.0532(2) 0.2271(4) 0.4450(3)
H9A H -0.0574 0.1646 0.4571
H10A H -0.0188 0.2337 0.4394
H11A H -0.0823 0.2423 0.4033
C20A C -0.0621(2) 0.3917(4) 0.4766(3)
H12A H -0.0966 0.3989 0.4401
H13A H -0.0332 0.4085 0.4615
H14A H -0.0610 0.4308 0.5135
C21A C -0.00880(18) 0.2766(4) 0.5705(2)
C22A C 0.0139(2) 0.1784(4) 0.5807(3)
H15A H 0.0346 0.1682 0.6278
H16A H 0.0371 0.1701 0.5554
H17A H -0.0157 0.1351 0.5654
C23A C 0.0372(2) 0.3469(5) 0.5888(3)
H18A H 0.0226 0.4076 0.5889
H19A H 0.0545 0.3443 0.5562
H20A H 0.0635 0.3332 0.6329
C24A C 0.15766(19) 0.4915(3) 0.7362(2)
C25A C 0.11385(19) 0.4828(3) 0.7675(2)
C26A C 0.1186(3) 0.5402(5) 0.8205(3)
H21A H 0.1496 0.5769 0.8383
C27A C 0.0782(3) 0.5455(4) 0.8489(3)
C28A C 0.0733(5) 0.6293(6) 0.8910(5)
F16A F 0.1088(4) 0.6944(7) 0.8965(6)
F17A F 0.0306(4) 0.6863(6) 0.8647(5)
F18A F 0.0753(5) 0.5945(7) 0.9510(5)
Mn1F Mn 0.30861(3) 0.37977(5) 0.95504(3)
Mn1G Mn -0.30861(3) 0.37977(5) 0.54496(3)
N3F N 0.27317(14) 0.1855(2) 1.10181(17)
N3G N -0.27317(14) 0.1855(2) 0.39819(17)
O10 O 0.9812(7) 0.7153(11) 0.7742(8)
F19? F 0.2660(5) 0.0763(6) 0.8598(6)
F20? F 0.2479(5) -0.0691(6) 0.8687(6)
F21? F 0.3042(3) 0.0073(7) 0.9496(4)
C29? C -0.0980(5) 0.5963(8) 0.5834(5)
F22? F -0.1315(4) 0.6652(7) 0.5782(5)
F23? F -0.0548(5) 0.6229(10) 0.5694(7)
F24? F -0.1303(6) 0.5533(9) 0.5267(6)
O11? O 0.9340(11) 0.7046(13) 0.7679(11)
loop_
_geom_bond_atom_site_label_1
_geom_bond_atom_site_label_2
_geom_bond_site_symmetry_1
_geom_bond_site_symmetry_2
Mn1 O1 1_555 1_555
Mn2 O6 1_555 1_555
F1 C1 1_555 1_555
F2 C1 1_555 1_555
F3 C1 1_555 1_555
F4 C5 1_555 1_555
F5 C5 1_555 1_555
F6 C5 1_555 1_555
F7 C6 1_555 1_555
F8 C6 1_555 1_555
F9 C6 1_555 1_555
F10 C10 1_555 1_555
F11 C10 1_555 1_555
F12 C10 1_555 1_555
F13 C24 1_555 1_555
F14 C24 1_555 1_555
F15 C24 1_555 1_555
O1 C2 1_555 1_555
O2 Mn1 1_555 1_555
O3 Mn1 1_555 1_555
O4 Mn1 1_555 1_555
O5 Mn1 1_555 1_555
O6 N2 1_555 1_555
O7 C11 1_555 1_555
O8 Mn2 1_555 1_555
O9 Mn2 1_555 1_555
N1 O5 1_555 1_555
N2 C17 1_555 1_555
N3 C12 1_555 1_555
C1 C2 1_555 1_555
C2 C3 1_555 1_555
C3 H1 1_555 1_555
C4 O2 1_555 1_555
C5 C4 1_555 1_555
C6 C7 1_555 1_555
C7 O3 1_555 1_555
C8 C7 1_555 1_555
H2 C8 1_555 1_555
C9 O4 1_555 1_555
C10 C9 1_555 1_555
C11 H3 1_555 1_555
H4 C11 1_555 1_555
H5 C11 1_555 1_555
C12 O7 1_555 1_555
C13 N3 1_555 1_555
H6 C13 1_555 1_555
C14 C13 1_555 1_555
C15 C14 1_555 1_555
H7 C15 1_555 1_555
C16 C12 1_555 1_555
H8 C16 1_555 1_555
C17 N1 1_555 1_555
C18 N1 1_555 1_555
C19 C18 1_555 1_555
H9 C19 1_555 1_555
H10 C19 1_555 1_555
H11 C19 1_555 1_555
C20 C18 1_555 1_555
H12 C20 1_555 1_555
H13 C20 1_555 1_555
H14 C20 1_555 1_555
C21 N2 1_555 1_555
C22 C21 1_555 1_555
H15 C22 1_555 1_555
H16 C22 1_555 1_555
H17 C22 1_555 1_555
C23 C21 1_555 1_555
H18 C23 1_555 1_555
H19 C23 1_555 1_555
H20 C23 1_555 1_555
C24 C25 1_555 1_555
C25 O8 1_555 1_555
C26 C25 1_555 1_555
H21 C26 1_555 1_555
C27 O9 1_555 1_555
C28 C27 1_555 1_555
F16 C28 1_555 1_555
F17 C28 1_555 1_555
F18 C28 1_555 1_555
Mn1A O1A 1_555 1_555
F1A C1A 1_555 1_555
F2A C1A 1_555 1_555
F3A C1A 1_555 1_555
F4A C5A 1_555 1_555
F5A C5A 1_555 1_555
F6A C5A 1_555 1_555
F7A C6A 1_555 1_555
F8A C6A 1_555 1_555
F9A C6A 1_555 1_555
F10A C10A 1_555 1_555
F11A C10A 1_555 1_555
F12A C10A 1_555 1_555
F13A C24A 1_555 1_555
F14A C24A 1_555 1_555
F15A C24A 1_555 1_555
O1A C2A 1_555 1_555
O2A Mn1A 1_555 1_555
O3A Mn1A 1_555 1_555
O4A Mn1A 1_555 1_555
O5A Mn1A 1_555 1_555
O6A Mn2 1_555 1_555
O7A C11A 1_555 1_555
O8A Mn2 1_555 1_555
O9A Mn2 1_555 1_555
N1A O5A 1_555 1_555
N2A O6A 1_555 1_555
N3A C12A 1_555 1_555
C1A C2A 1_555 1_555
C2A C3A 1_555 1_555
C3A H1A 1_555 1_555
C4A O2A 1_555 1_555
C5A C4A 1_555 1_555
C6A C7A 1_555 1_555
C7A O3A 1_555 1_555
C8A C7A 1_555 1_555
H2A C8A 1_555 1_555
C9A O4A 1_555 1_555
C10A C9A 1_555 1_555
C11A H3A 1_555 1_555
H4A C11A 1_555 1_555
H5A C11A 1_555 1_555
C12A O7A 1_555 1_555
C13A N3A 1_555 1_555
H6A C13A 1_555 1_555
C14A C13A 1_555 1_555
C15A C14A 1_555 1_555
H7A C15A 1_555 1_555
C16A C12A 1_555 1_555
H8A C16A 1_555 1_555
C17A N1A 1_555 1_555
C18A N1A 1_555 1_555
C19A C18A 1_555 1_555
H9A C19A 1_555 1_555
H10A C19A 1_555 1_555
H11A C19A 1_555 1_555
C20A C18A 1_555 1_555
H12A C20A 1_555 1_555
H13A C20A 1_555 1_555
H14A C20A 1_555 1_555
C21A N2A 1_555 1_555
C22A C21A 1_555 1_555
H15A C22A 1_555 1_555
H16A C22A 1_555 1_555
H17A C22A 1_555 1_555
C23A C21A 1_555 1_555
H18A C23A 1_555 1_555
H19A C23A 1_555 1_555
H20A C23A 1_555 1_555
C24A C25A 1_555 1_555
C25A O8A 1_555 1_555
C26A C25A 1_555 1_555
H21A C26A 1_555 1_555
C27A O9A 1_555 1_555
C28A C27A 1_555 1_555
F16A C28A 1_555 1_555
F17A C28A 1_555 1_555
F18A C28A 1_555 1_555
Mn1F N3 1_555 1_555
Mn1G N3A 1_555 1_555
N3F Mn1 1_555 1_555
N3G Mn1A 1_555 1_555
C3 C4 1_555 1_555
C8 C9 1_555 1_555
C14 C17 1_555 1_555
C15 C16 1_555 1_555
C18 C21 1_555 1_555
C26 C27 1_555 1_555
N2A C17A 1_555 1_555
C3A C4A 1_555 1_555
C8A C9A 1_555 1_555
C14A C17A 1_555 1_555
C15A C16A 1_555 1_555
C18A C21A 1_555 1_555
C26A C27A 1_555 1_555

#END
