
#######################################################################
#
#                 Cambridge Crystallographic Data Centre
#                                CCDC 
#
#######################################################################
#
# If this CIF has been generated from an entry in the Cambridge 
# Structural Database, then it will include bibliographic, chemical, 
# crystal, experimental, refinement or atomic coordinate data resulting 
# from the CCDC's data processing and validation procedures.
#
#######################################################################

data_VOZQEI
_symmetry_cell_setting           monoclinic
_symmetry_space_group_name_H-M   'P 21'
_symmetry_Int_Tables_number      4
_space_group_name_Hall           'P 2yb'
loop_
_symmetry_equiv_pos_site_id
_symmetry_equiv_pos_as_xyz
1 x,y,z
2 -x,1/2+y,-z
_cell_length_a                   8.011(5)
_cell_length_b                   6.852(5)
_cell_length_c                   14.033(5)
_cell_angle_alpha                90
_cell_angle_beta                 103.777(5)
_cell_angle_gamma                90
_cell_volume                     748.129
loop_
_atom_site_label
_atom_site_type_symbol
_atom_site_fract_x
_atom_site_fract_y
_atom_site_fract_z
Cu1 Cu 0.07718(18) 0.7436(3) 0.34759(11)
O1 O -0.0810(11) 0.9560(14) 0.3021(9)
N1 N -0.0334(15) 0.5857(18) 0.2363(10)
C1 C -0.2973(18) 0.770(3) 0.1904(10)
N2 N 0.2499(16) 0.5220(18) 0.3808(10)
C2 C 0.154(2) 0.351(2) 0.3282(12)
H1 H 0.0730 0.3032 0.3643
H2 H 0.2340 0.2464 0.3247
C3 C -0.478(2) 0.774(2) 0.1334(10)
C4 C 0.058(2) 0.409(2) 0.2253(11)
H3 H 0.1377 0.4318 0.1842
H4 H -0.0217 0.3071 0.1956
C5 C -0.550(2) 0.613(2) 0.0727(11)
H5 H -0.4826 0.5066 0.0643
C6 C -0.828(2) 0.779(3) 0.0345(12)
H6 H -0.9431 0.7793 0.0006
C7 C 0.3956(19) 0.575(2) 0.3381(11)
H7 H 0.3538 0.6019 0.2694
H8 H 0.4761 0.4692 0.3467
H9 H 0.4516 0.6893 0.3705
C8 C -0.348(2) 1.097(2) 0.2500(11)
H10 H -0.3054 1.2053 0.2882
C9 C -0.5869(19) 0.936(2) 0.1414(11)
C10 C -0.726(2) 0.622(3) 0.0263(12)
H11 H -0.7751 0.5166 -0.0120
C11 C -0.762(2) 0.934(3) 0.0926(12)
H12 H -0.8324 1.0380 0.0997
C12 C -0.515(2) 1.099(3) 0.1975(11)
H13 H -0.5817 1.2098 0.1987
C13 C -0.1894(19) 0.608(2) 0.1834(10)
H14 H -0.2335 0.5115 0.1378
C14 C -0.2384(19) 0.938(2) 0.2485(11)
C15 C 0.311(2) 0.483(2) 0.4851(12)
H15 H 0.2152 0.4489 0.5120
H16 H 0.3665 0.5968 0.5175
H17 H 0.3910 0.3762 0.4945
N3 N 0.1606(16) 0.9959(19) 0.5036(11)
N4 N 0.2192(15) 0.9040(19) 0.4498(10)
N5 N 0.1173(15) 1.0891(18) 0.5593(10)
Cu1A Cu -0.07718(18) 1.2436(3) 0.65241(11)
N5A N -0.1173(15) 0.5891(18) 0.4407(10)
loop_
_geom_bond_atom_site_label_1
_geom_bond_atom_site_label_2
_geom_bond_site_symmetry_1
_geom_bond_site_symmetry_2
Cu1 O1 1_555 1_555
O1 C14 1_555 1_555
N1 Cu1 1_555 1_555
C1 C3 1_555 1_555
N2 Cu1 1_555 1_555
C2 N2 1_555 1_555
H1 C2 1_555 1_555
H2 C2 1_555 1_555
C3 C5 1_555 1_555
C4 N1 1_555 1_555
H3 C4 1_555 1_555
H4 C4 1_555 1_555
C5 H5 1_555 1_555
C6 H6 1_555 1_555
C7 N2 1_555 1_555
H7 C7 1_555 1_555
H8 C7 1_555 1_555
H9 C7 1_555 1_555
C8 H10 1_555 1_555
C9 C3 1_555 1_555
C10 C5 1_555 1_555
H11 C10 1_555 1_555
C11 C6 1_555 1_555
H12 C11 1_555 1_555
C12 C8 1_555 1_555
H13 C12 1_555 1_555
C13 N1 1_555 1_555
H14 C13 1_555 1_555
C14 C1 1_555 1_555
C15 N2 1_555 1_555
H15 C15 1_555 1_555
H16 C15 1_555 1_555
H17 C15 1_555 1_555
N3 Cu1 1_555 1_555
N4 Cu1 1_555 1_555
N5 N3 1_555 1_555
Cu1A N5 1_555 1_555
N5A Cu1 1_555 1_555
C1 C13 1_555 1_555
C2 C4 1_555 1_555
C6 C10 1_555 1_555
C8 C14 1_555 1_555
C9 C11 1_555 1_555
C9 C12 1_555 1_555
N3 N4 1_555 1_555

#END
