
#######################################################################
#
#                 Cambridge Crystallographic Data Centre
#                                CCDC 
#
#######################################################################
#
# If this CIF has been generated from an entry in the Cambridge 
# Structural Database, then it will include bibliographic, chemical, 
# crystal, experimental, refinement or atomic coordinate data resulting 
# from the CCDC's data processing and validation procedures.
#
#######################################################################

data_VOZQEI01
_symmetry_cell_setting           monoclinic
_symmetry_space_group_name_H-M   'P 21'
_symmetry_Int_Tables_number      4
_space_group_name_Hall           'P 2yb'
loop_
_symmetry_equiv_pos_site_id
_symmetry_equiv_pos_as_xyz
1 x,y,z
2 -x,1/2+y,-z
_cell_length_a                   8.0013(2)
_cell_length_b                   6.8445(2)
_cell_length_c                   14.0404(4)
_cell_angle_alpha                90
_cell_angle_beta                 103.717(2)
_cell_angle_gamma                90
_cell_volume                     746.991
loop_
_atom_site_label
_atom_site_type_symbol
_atom_site_fract_x
_atom_site_fract_y
_atom_site_fract_z
Cu1 Cu 0.42280(3) 0.24166(5) 0.152377(19)
O1 O 0.5786(2) 0.0305(3) 0.19729(15)
N1 N 0.5349(3) 0.4004(3) 0.26377(15)
N2 N 0.2477(3) 0.4633(3) 0.12208(16)
C1 C 1.2215(4) 0.3662(6) 0.4748(2)
H1 H 1.2679 0.4703 0.5150
N3 N 0.2781(3) 0.0761(4) 0.0512(2)
N4 N 0.3367(3) -0.0128(4) -0.00492(18)
C2 C 0.4419(3) 0.5807(4) 0.27430(19)
H2 H 0.5222 0.6837 0.3017
H3 H 0.3652 0.5594 0.3174
C3 C 0.3395(3) 0.6369(4) 0.1719(2)
H4 H 0.2572 0.7383 0.1767
H5 H 0.4167 0.6877 0.1341
C4 C 0.0998(3) 0.4125(5) 0.1630(2)
H6 H 0.1394 0.3854 0.2317
H7 H 0.0432 0.2992 0.1301
H8 H 0.0204 0.5200 0.1538
C5 C 0.1844(4) 0.5049(5) 0.0163(2)
H9 H 0.1260 0.3919 -0.0161
H10 H 0.2799 0.5363 -0.0114
H11 H 0.1061 0.6133 0.0076
C6 C 0.6898(3) 0.3748(4) 0.31627(19)
H12 H 0.7354 0.4719 0.3613
C7 C 0.7959(3) 0.2107(4) 0.31080(17)
C8 C 0.7333(3) 0.0478(4) 0.25199(19)
C9 C 0.8452(4) -0.1155(4) 0.2512(2)
H13 H 0.8028 -0.2254 0.2144
C10 C 1.0103(4) -0.1133(5) 0.3025(2)
H14 H 1.0796 -0.2216 0.3004
C11 C 1.0811(3) 0.0516(5) 0.3600(2)
C12 C 1.2577(4) 0.0555(6) 0.4087(2)
H15 H 1.3276 -0.0503 0.4029
C13 C 1.3262(4) 0.2120(7) 0.4639(2)
H16 H 1.4430 0.2151 0.4941
C14 C 1.0501(4) 0.3697(5) 0.4275(2)
H17 H 0.9827 0.4765 0.4353
C15 C 0.9752(3) 0.2121(5) 0.36705(17)
N5 N 0.3839(4) -0.1048(6) -0.0606(2)
Cu1A Cu 0.57720(3) -0.25834(5) -0.152377(19)
N5A N 0.6161(4) 0.3952(6) 0.0606(2)
loop_
_geom_bond_atom_site_label_1
_geom_bond_atom_site_label_2
_geom_bond_site_symmetry_1
_geom_bond_site_symmetry_2
Cu1 O1 1_555 1_555
O1 C8 1_555 1_555
N1 Cu1 1_555 1_555
N2 Cu1 1_555 1_555
C1 H1 1_555 1_555
N3 Cu1 1_555 1_555
N4 N3 1_555 1_555
C2 N1 1_555 1_555
H2 C2 1_555 1_555
H3 C2 1_555 1_555
C3 N2 1_555 1_555
H4 C3 1_555 1_555
H5 C3 1_555 1_555
C4 N2 1_555 1_555
H6 C4 1_555 1_555
H7 C4 1_555 1_555
H8 C4 1_555 1_555
C5 N2 1_555 1_555
H9 C5 1_555 1_555
H10 C5 1_555 1_555
H11 C5 1_555 1_555
C6 N1 1_555 1_555
H12 C6 1_555 1_555
C7 C6 1_555 1_555
C8 C7 1_555 1_555
C9 C8 1_555 1_555
H13 C9 1_555 1_555
C10 C9 1_555 1_555
H14 C10 1_555 1_555
C11 C10 1_555 1_555
C12 C11 1_555 1_555
H15 C12 1_555 1_555
C13 C1 1_555 1_555
H16 C13 1_555 1_555
C14 C1 1_555 1_555
H17 C14 1_555 1_555
C15 C7 1_555 1_555
N5 N4 1_555 1_555
Cu1A N5 1_555 1_555
N5A Cu1 1_555 1_555
C2 C3 1_555 1_555
C11 C15 1_555 1_555
C12 C13 1_555 1_555
C14 C15 1_555 1_555

#END
