
#######################################################################
#
#                 Cambridge Crystallographic Data Centre
#                                CCDC 
#
#######################################################################
#
# If this CIF has been generated from an entry in the Cambridge 
# Structural Database, then it will include bibliographic, chemical, 
# crystal, experimental, refinement or atomic coordinate data resulting 
# from the CCDC's data processing and validation procedures.
#
#######################################################################

data_VOZSOU
_symmetry_cell_setting           monoclinic
_symmetry_space_group_name_H-M   'P 21'
_symmetry_Int_Tables_number      4
_space_group_name_Hall           'P 2yb'
loop_
_symmetry_equiv_pos_site_id
_symmetry_equiv_pos_as_xyz
1 x,y,z
2 -x,1/2+y,-z
_cell_length_a                   8.0019(2)
_cell_length_b                   6.8447(2)
_cell_length_c                   14.0472(3)
_cell_angle_alpha                90
_cell_angle_beta                 103.7180(10)
_cell_angle_gamma                90
_cell_volume                     747.427
loop_
_atom_site_label
_atom_site_type_symbol
_atom_site_fract_x
_atom_site_fract_y
_atom_site_fract_z
Cu1 Cu 0.57712(3) 0.74730(5) 0.847635(18)
O1 O 0.4212(2) 0.9581(2) 0.80277(15)
N1 N 0.7523(3) 0.5257(3) 0.87806(16)
N2 N 0.4654(3) 0.5883(3) 0.73642(14)
C1 C -0.3258(4) 0.7764(6) 0.5363(2)
H1 H -0.4425 0.7733 0.5061
N3 N 0.6636(3) 1.0013(3) 1.00500(17)
C2 C 0.6603(3) 0.3521(3) 0.8281(2)
H2 H 0.5830 0.3014 0.8658
H3 H 0.7426 0.2506 0.8234
C3 C 0.5583(3) 0.4084(4) 0.72579(19)
H4 H 0.6351 0.4298 0.6828
H5 H 0.4780 0.3054 0.6982
C4 C 0.3105(3) 0.6138(4) 0.68411(18)
H6 H 0.2646 0.5163 0.6394
C5 C 0.2044(3) 0.7787(4) 0.68928(17)
C6 C 0.2667(3) 0.9413(3) 0.74802(19)
C7 C 0.1549(3) 1.1041(4) 0.7486(2)
H7 H 0.1973 1.2141 0.7853
C8 C -0.0097(4) 1.1020(4) 0.6975(2)
H8 H -0.0787 1.2105 0.6995
C9 C -0.0808(3) 0.9371(4) 0.64003(19)
C10 C -0.2579(4) 0.9336(5) 0.5912(2)
H9 H -0.3279 1.0394 0.5969
C11 C -0.0500(3) 0.6186(5) 0.57209(19)
H10 H 0.0176 0.5123 0.5638
C12 C 0.0248(3) 0.7766(4) 0.63293(16)
C13 C 0.9006(3) 0.5769(5) 0.8370(2)
H11 H 0.8607 0.6053 0.7684
H12 H 0.9794 0.4690 0.8455
H13 H 0.9578 0.6895 0.8704
N4 N 0.7209(3) 0.9127(4) 0.9488(2)
N5 N 0.6163(4) 1.0940(5) 1.0606(2)
C14 C -0.2216(4) 0.6215(5) 0.5253(2)
H14 H -0.2684 0.5170 0.4855
C15 C 0.8149(4) 0.4830(5) 0.9838(2)
H15 H 0.7191 0.4507 1.0110
H16 H 0.8727 0.5958 1.0166
H17 H 0.8934 0.3749 0.9923
Cu1A Cu 0.42288(3) 1.24730(5) 1.152365(18)
N5A N 0.3837(4) 0.5940(5) 0.9394(2)
loop_
_geom_bond_atom_site_label_1
_geom_bond_atom_site_label_2
_geom_bond_site_symmetry_1
_geom_bond_site_symmetry_2
Cu1 O1 1_555 1_555
O1 C6 1_555 1_555
N1 Cu1 1_555 1_555
N2 Cu1 1_555 1_555
C1 H1 1_555 1_555
N3 N4 1_555 1_555
C2 N1 1_555 1_555
H2 C2 1_555 1_555
H3 C2 1_555 1_555
C3 N2 1_555 1_555
H4 C3 1_555 1_555
H5 C3 1_555 1_555
C4 N2 1_555 1_555
H6 C4 1_555 1_555
C5 C4 1_555 1_555
C6 C5 1_555 1_555
C7 C6 1_555 1_555
H7 C7 1_555 1_555
C8 C7 1_555 1_555
H8 C8 1_555 1_555
C9 C8 1_555 1_555
C10 C1 1_555 1_555
H9 C10 1_555 1_555
C11 H10 1_555 1_555
C12 C5 1_555 1_555
C13 N1 1_555 1_555
H11 C13 1_555 1_555
H12 C13 1_555 1_555
H13 C13 1_555 1_555
N4 Cu1 1_555 1_555
N5 N3 1_555 1_555
C14 C1 1_555 1_555
H14 C14 1_555 1_555
C15 N1 1_555 1_555
H15 C15 1_555 1_555
H16 C15 1_555 1_555
H17 C15 1_555 1_555
Cu1A N5 1_555 1_555
N5A Cu1 1_555 1_555
C2 C3 1_555 1_555
C9 C10 1_555 1_555
C9 C12 1_555 1_555
C11 C12 1_555 1_555
C11 C14 1_555 1_555

#END
