
#######################################################################
#
#                 Cambridge Crystallographic Data Centre
#                                CCDC 
#
#######################################################################
#
# If this CIF has been generated from an entry in the Cambridge 
# Structural Database, then it will include bibliographic, chemical, 
# crystal, experimental, refinement or atomic coordinate data resulting 
# from the CCDC's data processing and validation procedures.
#
#######################################################################

data_VOZSUA
_symmetry_cell_setting           monoclinic
_symmetry_space_group_name_H-M   'P 21'
_symmetry_Int_Tables_number      4
_space_group_name_Hall           'P 2yb'
loop_
_symmetry_equiv_pos_site_id
_symmetry_equiv_pos_as_xyz
1 x,y,z
2 -x,1/2+y,-z
_cell_length_a                   7.9979(2)
_cell_length_b                   6.8447(2)
_cell_length_c                   14.0483(4)
_cell_angle_alpha                90
_cell_angle_beta                 103.673(2)
_cell_angle_gamma                90
_cell_volume                     747.255
loop_
_atom_site_label
_atom_site_type_symbol
_atom_site_fract_x
_atom_site_fract_y
_atom_site_fract_z
Cu1 Cu 0.42281(4) 0.24941(7) 0.15246(3)
N1 N 0.5346(4) 0.0898(4) 0.2637(2)
N2 N 0.2484(4) 0.0285(4) 0.1220(2)
O1 O 0.5791(3) 0.4600(4) 0.1973(2)
N3 N 0.2789(4) 0.4130(6) 0.0514(3)
N4 N 0.3364(4) 0.5025(5) -0.0049(2)
N5 N 0.3833(5) 0.5945(7) -0.0608(3)
C1 C 0.3419(5) -0.1456(5) 0.1720(3)
H1 H 0.4204 -0.1944 0.1344
H2 H 0.2604 -0.2483 0.1760
C2 C 0.4421(5) -0.0901(6) 0.2745(3)
H3 H 0.3644 -0.0688 0.3171
H4 H 0.5224 -0.1929 0.3023
C3 C 0.6903(5) 0.1162(6) 0.3161(3)
H5 H 0.7367 0.0193 0.3610
C4 C 0.7954(4) 0.2810(6) 0.3104(2)
C5 C 0.9760(4) 0.2788(7) 0.3671(2)
C6 C 1.0487(5) 0.1205(7) 0.4275(3)
H6 H 0.9804 0.0145 0.4353
C7 C 1.2219(5) 0.1228(8) 0.4752(3)
H7 H 1.2687 0.0187 0.5152
C8 C 1.3254(5) 0.2789(10) 0.4636(3)
H8 H 1.4421 0.2764 0.4939
C9 C 1.2582(5) 0.4355(8) 0.4083(3)
H9 H 1.3285 0.5406 0.4022
C10 C 1.0810(4) 0.4396(7) 0.3598(3)
C11 C 1.0105(5) 0.6041(6) 0.3025(3)
H10 H 1.0795 0.7126 0.3004
C12 C 0.8456(5) 0.6052(6) 0.2515(3)
H11 H 0.8030 0.7148 0.2145
C13 C 0.7345(5) 0.4435(5) 0.2524(3)
C14 C 0.1863(6) -0.0144(7) 0.0169(3)
H12 H 0.2822 -0.0472 -0.0102
H13 H 0.1288 0.0984 -0.0160
H14 H 0.1075 -0.1223 0.0085
C15 C 0.0994(5) 0.0786(7) 0.1634(3)
H15 H 0.1392 0.1068 0.2320
H16 H 0.0209 -0.0296 0.1548
H17 H 0.0417 0.1912 0.1303
Cu1A Cu 0.57719(4) 0.74941(7) -0.15246(3)
N5A N 0.6167(5) 0.0945(7) 0.0608(3)
loop_
_geom_bond_atom_site_label_1
_geom_bond_atom_site_label_2
_geom_bond_site_symmetry_1
_geom_bond_site_symmetry_2
Cu1 N1 1_555 1_555
N1 C2 1_555 1_555
N2 Cu1 1_555 1_555
O1 Cu1 1_555 1_555
N3 Cu1 1_555 1_555
N4 N3 1_555 1_555
N5 N4 1_555 1_555
C1 N2 1_555 1_555
H1 C1 1_555 1_555
H2 C1 1_555 1_555
C2 C1 1_555 1_555
H3 C2 1_555 1_555
H4 C2 1_555 1_555
C3 N1 1_555 1_555
H5 C3 1_555 1_555
C4 C3 1_555 1_555
C5 C4 1_555 1_555
C6 C5 1_555 1_555
H6 C6 1_555 1_555
C7 C6 1_555 1_555
H7 C7 1_555 1_555
C8 C7 1_555 1_555
H8 C8 1_555 1_555
C9 C8 1_555 1_555
H9 C9 1_555 1_555
C10 C5 1_555 1_555
C11 C10 1_555 1_555
H10 C11 1_555 1_555
C12 C11 1_555 1_555
H11 C12 1_555 1_555
C13 O1 1_555 1_555
C14 N2 1_555 1_555
H12 C14 1_555 1_555
H13 C14 1_555 1_555
H14 C14 1_555 1_555
C15 N2 1_555 1_555
H15 C15 1_555 1_555
H16 C15 1_555 1_555
H17 C15 1_555 1_555
Cu1A N5 1_555 1_555
N5A Cu1 1_555 1_555
C4 C13 1_555 1_555
C9 C10 1_555 1_555
C12 C13 1_555 1_555

#END
