
#######################################################################
#
#                 Cambridge Crystallographic Data Centre
#                                CCDC 
#
#######################################################################
#
# If this CIF has been generated from an entry in the Cambridge 
# Structural Database, then it will include bibliographic, chemical, 
# crystal, experimental, refinement or atomic coordinate data resulting 
# from the CCDC's data processing and validation procedures.
#
#######################################################################

data_VOZSEK
_symmetry_cell_setting           monoclinic
_symmetry_space_group_name_H-M   'P 21'
_symmetry_Int_Tables_number      4
_space_group_name_Hall           'P 2yb'
loop_
_symmetry_equiv_pos_site_id
_symmetry_equiv_pos_as_xyz
1 x,y,z
2 -x,1/2+y,-z
_cell_length_a                   8.0022(3)
_cell_length_b                   6.8450(2)
_cell_length_c                   14.0354(5)
_cell_angle_alpha                90
_cell_angle_beta                 103.724(2)
_cell_angle_gamma                90
_cell_volume                     746.841
loop_
_atom_site_label
_atom_site_type_symbol
_atom_site_fract_x
_atom_site_fract_y
_atom_site_fract_z
Cu1 Cu 0.42274(4) 0.24079(7) 0.15241(2)
N1 N 0.2783(4) 0.4048(5) 0.0518(3)
N2 N 0.2480(3) 0.0197(4) 0.1226(2)
O1 O 0.5783(3) 0.4514(4) 0.19719(19)
N3 N 0.3365(4) 0.4939(5) -0.0045(2)
N4 N 0.3833(5) 0.5866(7) -0.0607(3)
C1 C 0.0995(4) 0.0694(6) 0.1629(3)
H1 H 0.0431 0.1830 0.1300
H2 H 0.1383 0.0960 0.2317
H3 H 0.0204 -0.0382 0.1531
C2 C 0.1859(5) -0.0222(7) 0.0164(3)
H4 H 0.1274 0.0904 -0.0162
H5 H 0.1081 -0.1311 0.0075
H6 H 0.2820 -0.0531 -0.0108
C3 C 0.3399(5) -0.1544(5) 0.1721(2)
H7 H 0.4172 -0.2048 0.1343
H8 H 0.2577 -0.2560 0.1768
C4 C 0.4418(4) -0.0976(5) 0.2745(2)
H9 H 0.3649 -0.0759 0.3175
H10 H 0.5221 -0.2004 0.3023
N5 N 0.5343(3) 0.0818(4) 0.26369(19)
C5 C 0.6899(4) 0.1078(5) 0.3157(2)
H11 H 0.7362 0.0098 0.3600
C6 C 0.7960(4) 0.2721(6) 0.3110(2)
C7 C 0.7331(4) 0.4351(5) 0.2519(2)
C8 C 0.8448(5) 0.5975(6) 0.2511(3)
H12 H 0.8025 0.7076 0.2144
C9 C 1.0810(4) 0.4302(6) 0.3603(2)
C10 C 1.2580(5) 0.4258(7) 0.4086(3)
H13 H 1.3284 0.5306 0.4021
C11 C 1.3254(5) 0.2702(9) 0.4642(3)
H14 H 1.4417 0.2684 0.4953
C12 C 1.2221(5) 0.1146(7) 0.4746(3)
H15 H 1.2689 0.0094 0.5139
C13 C 1.0499(5) 0.1132(7) 0.4274(2)
H16 H 0.9820 0.0070 0.4353
C14 C 0.9756(4) 0.2706(6) 0.3673(2)
C15 C 1.0106(5) 0.5947(6) 0.3025(3)
H17 H 1.0801 0.7026 0.3001
Cu1A Cu 0.57726(4) 0.74079(7) -0.15241(2)
N4A N 0.6167(5) 0.0866(7) 0.0607(3)
loop_
_geom_bond_atom_site_label_1
_geom_bond_atom_site_label_2
_geom_bond_site_symmetry_1
_geom_bond_site_symmetry_2
Cu1 N1 1_555 1_555
N1 N3 1_555 1_555
N2 Cu1 1_555 1_555
O1 Cu1 1_555 1_555
N3 N4 1_555 1_555
N4 Cu1A 1_555 1_555
C1 N2 1_555 1_555
H1 C1 1_555 1_555
H2 C1 1_555 1_555
H3 C1 1_555 1_555
C2 N2 1_555 1_555
H4 C2 1_555 1_555
H5 C2 1_555 1_555
H6 C2 1_555 1_555
C3 N2 1_555 1_555
H7 C3 1_555 1_555
H8 C3 1_555 1_555
C4 C3 1_555 1_555
H9 C4 1_555 1_555
H10 C4 1_555 1_555
N5 Cu1 1_555 1_555
C5 N5 1_555 1_555
H11 C5 1_555 1_555
C6 C5 1_555 1_555
C7 O1 1_555 1_555
C8 C7 1_555 1_555
H12 C8 1_555 1_555
C9 C10 1_555 1_555
C10 H13 1_555 1_555
C11 C10 1_555 1_555
H14 C11 1_555 1_555
C12 C11 1_555 1_555
H15 C12 1_555 1_555
C13 C12 1_555 1_555
H16 C13 1_555 1_555
C14 C6 1_555 1_555
C15 C8 1_555 1_555
H17 C15 1_555 1_555
N4A Cu1 1_555 1_555
C4 N5 1_555 1_555
C6 C7 1_555 1_555
C9 C14 1_555 1_555
C9 C15 1_555 1_555
C13 C14 1_555 1_555

#END
