
#######################################################################
#
#                 Cambridge Crystallographic Data Centre
#                                CCDC 
#
#######################################################################
#
# If this CIF has been generated from an entry in the Cambridge 
# Structural Database, then it will include bibliographic, chemical, 
# crystal, experimental, refinement or atomic coordinate data resulting 
# from the CCDC's data processing and validation procedures.
#
#######################################################################

data_VOZSAG
_symmetry_cell_setting           monoclinic
_symmetry_space_group_name_H-M   'P 21'
_symmetry_Int_Tables_number      4
_space_group_name_Hall           'P 2yb'
loop_
_symmetry_equiv_pos_site_id
_symmetry_equiv_pos_as_xyz
1 x,y,z
2 -x,1/2+y,-z
_cell_length_a                   8.0039(4)
_cell_length_b                   6.8403(3)
_cell_length_c                   14.0443(6)
_cell_angle_alpha                90
_cell_angle_beta                 103.686(2)
_cell_angle_gamma                90
_cell_volume                     747.081
loop_
_atom_site_label
_atom_site_type_symbol
_atom_site_fract_x
_atom_site_fract_y
_atom_site_fract_z
Cu1 Cu 0.57718(5) 0.75955(8) 0.84761(3)
N1 N 0.7210(5) 0.9242(5) 0.9485(3)
N2 N 0.4650(4) 0.6007(4) 0.7365(2)
C1 C 0.3112(5) 0.6271(5) 0.6843(3)
H1 H 0.2663 0.5302 0.6390
O1 O 0.4213(4) 0.9697(3) 0.8028(2)
N3 N 0.7521(4) 0.5383(4) 0.8779(2)
N4 N 0.6629(4) 1.0139(5) 1.0047(2)
C2 C 0.2036(5) 0.7900(6) 0.6893(2)
C3 C 0.0252(5) 0.7894(6) 0.6331(2)
C4 C -0.0812(5) 0.9498(6) 0.6400(3)
C5 C -0.0098(6) 1.1131(6) 0.6977(3)
H2 H -0.0792 1.2210 0.7005
C6 C 0.1541(5) 1.1164(6) 0.7481(3)
H3 H 0.1960 1.2273 0.7842
C7 C 0.2676(5) 0.9534(5) 0.7481(3)
C8 C -0.2569(6) 0.9453(7) 0.5918(3)
H4 H -0.3267 1.0508 0.5982
C9 C -0.3264(6) 0.7893(9) 0.5359(3)
H5 H -0.4429 0.7868 0.5054
C10 C -0.2206(6) 0.6345(7) 0.5253(3)
H6 H -0.2662 0.5301 0.4850
C11 C -0.0513(5) 0.6322(6) 0.5726(3)
H7 H 0.0157 0.5248 0.5651
C12 C 0.5581(5) 0.4209(5) 0.7256(3)
H8 H 0.6352 0.4426 0.6828
H9 H 0.4782 0.3176 0.6980
C13 C 0.6595(5) 0.3653(5) 0.8283(3)
H10 H 0.5816 0.3158 0.8661
H11 H 0.7412 0.2629 0.8240
C14 C 0.8155(6) 0.4960(6) 0.9834(3)
H12 H 0.8748 0.6084 1.0159
H13 H 0.8929 0.3867 0.9918
H14 H 0.7201 0.4654 1.0112
C15 C 0.9003(5) 0.5893(6) 0.8366(3)
H15 H 0.9571 0.7026 0.8695
H16 H 0.8604 0.6168 0.7679
H17 H 0.9794 0.4817 0.8455
N5 N 0.6164(6) 1.1068(7) 1.0609(3)
Cu1A Cu 0.42282(5) 1.25955(8) 1.15239(3)
N5A N 0.3836(6) 0.6068(7) 0.9391(3)
loop_
_geom_bond_atom_site_label_1
_geom_bond_atom_site_label_2
_geom_bond_site_symmetry_1
_geom_bond_site_symmetry_2
Cu1 N1 1_555 1_555
N1 N4 1_555 1_555
N2 Cu1 1_555 1_555
C1 N2 1_555 1_555
H1 C1 1_555 1_555
O1 Cu1 1_555 1_555
N3 Cu1 1_555 1_555
N4 N5 1_555 1_555
C2 C1 1_555 1_555
C3 C2 1_555 1_555
C4 C3 1_555 1_555
C5 C4 1_555 1_555
H2 C5 1_555 1_555
C6 C5 1_555 1_555
H3 C6 1_555 1_555
C7 O1 1_555 1_555
C8 C4 1_555 1_555
H4 C8 1_555 1_555
C9 C8 1_555 1_555
H5 C9 1_555 1_555
C10 C9 1_555 1_555
H6 C10 1_555 1_555
C11 C3 1_555 1_555
H7 C11 1_555 1_555
C12 N2 1_555 1_555
H8 C12 1_555 1_555
H9 C12 1_555 1_555
C13 N3 1_555 1_555
H10 C13 1_555 1_555
H11 C13 1_555 1_555
C14 N3 1_555 1_555
H12 C14 1_555 1_555
H13 C14 1_555 1_555
H14 C14 1_555 1_555
C15 N3 1_555 1_555
H15 C15 1_555 1_555
H16 C15 1_555 1_555
H17 C15 1_555 1_555
N5 Cu1A 1_555 1_555
N5A Cu1 1_555 1_555
C2 C7 1_555 1_555
C6 C7 1_555 1_555
C10 C11 1_555 1_555
C12 C13 1_555 1_555

#END
