
#######################################################################
#
#                 Cambridge Crystallographic Data Centre
#                                CCDC 
#
#######################################################################
#
# If this CIF has been generated from an entry in the Cambridge 
# Structural Database, then it will include bibliographic, chemical, 
# crystal, experimental, refinement or atomic coordinate data resulting 
# from the CCDC's data processing and validation procedures.
#
#######################################################################

data_VOZTIP
_symmetry_cell_setting           monoclinic
_symmetry_space_group_name_H-M   'P 21'
_symmetry_Int_Tables_number      4
_space_group_name_Hall           'P 2yb'
loop_
_symmetry_equiv_pos_site_id
_symmetry_equiv_pos_as_xyz
1 x,y,z
2 -x,1/2+y,-z
_cell_length_a                   8.0008(4)
_cell_length_b                   6.8493(3)
_cell_length_c                   14.0439(7)
_cell_angle_alpha                90
_cell_angle_beta                 103.685(4)
_cell_angle_gamma                90
_cell_volume                     747.756
loop_
_atom_site_label
_atom_site_type_symbol
_atom_site_fract_x
_atom_site_fract_y
_atom_site_fract_z
Cu1 Cu 0.42291(5) 0.24553(9) 0.15233(3)
O1 O 0.5787(4) 0.0336(5) 0.1972(2)
N1 N 0.5346(4) 0.4032(5) 0.2637(2)
N2 N 0.2477(4) 0.4671(6) 0.1224(2)
C1 C 0.1004(6) 0.4151(8) 0.1636(4)
H1 H 0.0443 0.3016 0.1306
H2 H 0.0206 0.5220 0.1546
H3 H 0.1405 0.3879 0.2322
C2 C 0.8454(6) -0.1100(8) 0.2510(3)
H4 H 0.8035 -0.2198 0.2141
N3 N 0.3370(5) -0.0078(6) -0.0050(3)
C3 C 0.4426(5) 0.5850(7) 0.2745(3)
H5 H 0.5236 0.6877 0.3013
H6 H 0.3665 0.5649 0.3181
C4 C 0.3392(5) 0.6404(6) 0.1721(3)
H7 H 0.2566 0.7414 0.1770
H8 H 0.4159 0.6916 0.1341
C5 C 0.1856(6) 0.5082(8) 0.0163(3)
H9 H 0.1275 0.3952 -0.0161
H10 H 0.2816 0.5393 -0.0109
H11 H 0.1074 0.6166 0.0073
C6 C 0.6899(5) 0.3779(7) 0.3156(3)
H12 H 0.7360 0.4758 0.3600
C7 C 0.7960(5) 0.2140(7) 0.3107(3)
C8 C 0.7338(5) 0.0513(6) 0.2521(3)
C9 C 1.0105(6) -0.1071(8) 0.3024(4)
H13 H 1.0801 -0.2147 0.2995
C10 C 1.0807(5) 0.0541(8) 0.3603(3)
C11 C 1.2572(6) 0.0594(9) 0.4092(4)
H14 H 1.3271 -0.0466 0.4039
C12 C 1.3267(6) 0.2172(12) 0.4639(3)
H15 H 1.4437 0.2213 0.4932
C13 C 1.2219(6) 0.3692(9) 0.4750(3)
H16 H 1.2680 0.4724 0.5159
C14 C 1.0499(6) 0.3740(8) 0.4274(3)
H17 H 0.9828 0.4813 0.4347
C15 C 0.9755(5) 0.2152(7) 0.3673(3)
N4 N 0.3849(6) -0.0990(10) -0.0604(4)
N5 N 0.2788(5) 0.0795(7) 0.0516(3)
Cu1A Cu 0.57709(5) -0.25447(9) -0.15233(3)
N4A N 0.6151(6) 0.4010(10) 0.0604(4)
loop_
_geom_bond_atom_site_label_1
_geom_bond_atom_site_label_2
_geom_bond_site_symmetry_1
_geom_bond_site_symmetry_2
Cu1 O1 1_555 1_555
O1 C8 1_555 1_555
N1 Cu1 1_555 1_555
N2 Cu1 1_555 1_555
C1 N2 1_555 1_555
H1 C1 1_555 1_555
H2 C1 1_555 1_555
H3 C1 1_555 1_555
C2 H4 1_555 1_555
N3 N4 1_555 1_555
C3 N1 1_555 1_555
H5 C3 1_555 1_555
H6 C3 1_555 1_555
C4 N2 1_555 1_555
H7 C4 1_555 1_555
H8 C4 1_555 1_555
C5 N2 1_555 1_555
H9 C5 1_555 1_555
H10 C5 1_555 1_555
H11 C5 1_555 1_555
C6 N1 1_555 1_555
H12 C6 1_555 1_555
C7 C6 1_555 1_555
C8 C2 1_555 1_555
C9 C2 1_555 1_555
H13 C9 1_555 1_555
C10 C9 1_555 1_555
C11 C10 1_555 1_555
H14 C11 1_555 1_555
C12 C11 1_555 1_555
H15 C12 1_555 1_555
C13 C12 1_555 1_555
H16 C13 1_555 1_555
C14 C13 1_555 1_555
H17 C14 1_555 1_555
C15 C7 1_555 1_555
N4 Cu1A 1_555 1_555
N5 Cu1 1_555 1_555
N4A Cu1 1_555 1_555
N3 N5 1_555 1_555
C3 C4 1_555 1_555
C7 C8 1_555 1_555
C10 C15 1_555 1_555
C14 C15 1_555 1_555

#END
