
#######################################################################
#
#                 Cambridge Crystallographic Data Centre
#                                CCDC 
#
#######################################################################
#
# If this CIF has been generated from an entry in the Cambridge 
# Structural Database, then it will include bibliographic, chemical, 
# crystal, experimental, refinement or atomic coordinate data resulting 
# from the CCDC's data processing and validation procedures.
#
#######################################################################

data_VOZVAJ01
_symmetry_cell_setting           monoclinic
_symmetry_space_group_name_H-M   'C 2/c'
_symmetry_Int_Tables_number      15
_space_group_name_Hall           '-C 2yn'
loop_
_symmetry_equiv_pos_site_id
_symmetry_equiv_pos_as_xyz
1 x,y,z
2 -x,y,1/2-z
3 1/2+x,1/2+y,z
4 1/2-x,1/2+y,1/2-z
5 -x,-y,-z
6 x,-y,1/2+z
7 1/2-x,1/2-y,-z
8 1/2+x,1/2-y,1/2+z
_cell_length_a                   31.895(4)
_cell_length_b                   15.133(2)
_cell_length_c                   31.168(4)
_cell_angle_alpha                90
_cell_angle_beta                 98.082(2)
_cell_angle_gamma                90
_cell_volume                     14894.3
loop_
_atom_site_label
_atom_site_type_symbol
_atom_site_fract_x
_atom_site_fract_y
_atom_site_fract_z
Zn1 Zn -0.19165(7) 0.34970(9) 0.21446(5)
I1 I -0.25830(5) 0.28594(8) 0.18134(5)
I2 I -0.15467(6) 0.30444(8) 0.28802(4)
N1 N -0.1506(4) 0.3267(7) 0.1703(4)
C1 C -0.1626(5) 0.2814(10) 0.1337(5)
H1 H -0.1905 0.2579 0.1285
C2 C -0.1359(5) 0.2677(10) 0.1033(4)
H2 H -0.1455 0.2368 0.0772
C3 C -0.0949(4) 0.2994(8) 0.1111(4)
C4 C -0.0823(6) 0.3450(10) 0.1490(5)
H3 H -0.0545 0.3686 0.1551
C5 C -0.1113(6) 0.3556(10) 0.1782(4)
H4 H -0.1024 0.3849 0.2048
C6 C -0.0661(4) 0.2882(7) 0.0781(4)
N2 N -0.0720(3) 0.2183(6) 0.0526(3)
C7 C -0.0433(3) 0.2089(7) 0.0255(3)
N3 N -0.0123(3) 0.2666(6) 0.0212(3)
C8 C -0.0104(3) 0.3346(7) 0.0482(3)
N4 N -0.0352(3) 0.3485(6) 0.0778(3)
N5 N -0.0551(3) -0.0163(5) -0.0568(3)
C9 C -0.0238(3) 0.0413(7) -0.0577(3)
H5 H -0.0047 0.0321 -0.0780
C10 C -0.0178(3) 0.1137(6) -0.0306(3)
H6 H 0.0052 0.1529 -0.0321
C11 C -0.0456(3) 0.1283(6) -0.0014(3)
C12 C -0.0778(3) 0.0668(7) 0.0012(4)
H7 H -0.0968 0.0736 0.0219
C13 C -0.0814(3) -0.0042(7) -0.0270(3)
H8 H -0.1033 -0.0462 -0.0252
Zn2 Zn -0.06996(4) -0.10905(8) -0.10458(4)
I3 I -0.11235(3) -0.23164(5) -0.07637(3)
I4 I -0.00498(3) -0.13319(7) -0.14285(3)
N6 N 0.0882(3) 0.5221(6) 0.0437(4)
C14 C 0.0656(5) 0.5219(9) 0.0750(5)
H9 H 0.0723 0.5640 0.0976
C15 C 0.0325(5) 0.4650(11) 0.0779(5)
H10 H 0.0164 0.4690 0.1013
C16 C 0.0231(4) 0.4011(7) 0.0456(4)
C17 C 0.0463(4) 0.4029(7) 0.0111(4)
H11 H 0.0400 0.3622 -0.0122
C18 C 0.0785(4) 0.4642(8) 0.0105(4)
H12 H 0.0939 0.4657 -0.0135
Zn3 Zn 0.14187(4) 0.59933(8) 0.05017(5)
I5 I 0.12312(3) 0.74705(5) 0.08122(3)
I6 I 0.17739(3) 0.58340(6) -0.01762(3)
N7 N 0.1798(3) 0.5310(6) 0.0977(3)
C19 C 0.1862(4) 0.4437(7) 0.0936(4)
H13 H 0.1713 0.4134 0.0694
C20 C 0.2134(4) 0.3970(7) 0.1231(3)
H14 H 0.2167 0.3351 0.1197
C21 C 0.2362(3) 0.4407(6) 0.1581(3)
C22 C 0.2304(4) 0.5311(8) 0.1616(5)
H15 H 0.2465 0.5636 0.1843
C23 C 0.2012(4) 0.5731(7) 0.1321(4)
H16 H 0.1958 0.6341 0.1360
C24 C 0.2673(3) 0.3922(6) 0.1902(3)
N8 N 0.2714(3) 0.3054(5) 0.1847(3)
C25 C 0.3001(3) 0.2678(6) 0.2134(3)
N9 N 0.3250(3) 0.3096(6) 0.2449(3)
C26 C 0.3173(4) 0.3946(7) 0.2478(3)
N10 N 0.2880(3) 0.4397(5) 0.2222(3)
N11 N 0.3059(4) -0.0134(6) 0.2150(3)
C27 C 0.3292(6) 0.0325(9) 0.2430(4)
H17 H 0.3478 0.0022 0.2646
C28 C 0.3292(5) 0.1236(8) 0.2440(5)
H18 H 0.3472 0.1546 0.2658
C29 C 0.3028(4) 0.1687(7) 0.2129(4)
C30 C 0.2772(4) 0.1201(7) 0.1817(4)
H19 H 0.2582 0.1487 0.1599
C31 C 0.2800(4) 0.0294(7) 0.1835(4)
H20 H 0.2633 -0.0045 0.1618
N12 N 0.3894(3) 0.5333(6) 0.3522(3)
C32 C 0.3584(4) 0.5732(7) 0.3265(4)
H21 H 0.3531 0.6340 0.3312
C33 C 0.3335(4) 0.5303(7) 0.2932(4)
H22 H 0.3109 0.5605 0.2762
C34 C 0.3417(3) 0.4432(6) 0.2850(3)
C35 C 0.3734(4) 0.4009(7) 0.3123(4)
H23 H 0.3793 0.3402 0.3083
C36 C 0.3963(4) 0.4474(8) 0.3450(4)
H24 H 0.4180 0.4177 0.3636
Zn1B Zn 0.30835(7) -0.15030(9) 0.21446(5)
Zn2G Zn 0.43004(4) 0.60905(8) 0.39542(4)
N11B N -0.1941(4) 0.4866(6) 0.2150(3)
N12G N -0.1106(3) -0.0333(6) -0.1478(3)
N13 N -0.2071(4) 0.0790(8) -0.0329(4)
C37 C -0.2144(6) 0.0669(10) -0.0759(6)
H25 H -0.2165 0.1139 -0.0963
N14 N -0.2183(4) -0.0176(7) -0.0870(3)
C38 C -0.2145(4) -0.0607(8) -0.0483(4)
C39 C -0.2076(4) -0.0022(9) -0.0147(5)
C40 C -0.2046(6) 0.1680(11) -0.0130(7)
H26 H -0.2039 0.2127 -0.0357
H27 H -0.1788 0.1724 0.0080
H28 H -0.2294 0.1778 0.0017
N15 N -0.2172(4) -0.1549(8) -0.0475(4)
O1 O -0.2336(4) -0.1930(7) -0.0794(4)
O2 O -0.2020(4) -0.1922(8) -0.0134(4)
C41 C -0.2000(5) -0.0154(12) 0.0322(5)
F1 F -0.1620(3) -0.0457(9) 0.0469(3)
F2 F -0.2272(4) -0.0714(9) 0.0449(3)
F3 F -0.2050(5) 0.0584(9) 0.0554(4)
N16 N -0.1224(4) 0.7044(8) 0.0744(4)
C42 C -0.1087(5) 0.7750(13) 0.0556(6)
H29 H -0.1263 0.8079 0.0341
N17 N -0.0680(5) 0.7971(11) 0.0690(5)
C43 C -0.0554(4) 0.7294(12) 0.0962(5)
C44 C -0.0872(6) 0.6710(10) 0.1007(5)
C45 C -0.1655(4) 0.6755(14) 0.0700(7)
H30 H -0.1672 0.6206 0.0864
H31 H -0.1759 0.6649 0.0394
H32 H -0.1828 0.7210 0.0813
N18 N -0.0116(4) 0.7264(9) 0.1151(6)
O3 O 0.0070(5) 0.7962(10) 0.1267(6)
O4 O 0.0027(6) 0.6520(10) 0.1218(7)
C46 C -0.0884(6) 0.5899(10) 0.1255(6)
F4 F -0.0601(5) 0.5857(8) 0.1598(4)
F5 F -0.0840(6) 0.5169(7) 0.1015(4)
F6 F -0.1261(5) 0.5790(8) 0.1400(5)
N19 N -0.0769(4) 1.0414(8) 0.2262(4)
C47 C -0.0533(6) 0.9872(10) 0.2516(6)
H33 H -0.0340 1.0067 0.2758
N20 N -0.0583(5) 0.9019(9) 0.2407(5)
C48 C -0.0868(6) 0.9074(10) 0.2034(4)
C49 C -0.0974(5) 0.9915(8) 0.1943(4)
C50 C -0.0763(9) 1.1364(11) 0.2334(8)
H34 H -0.0963 1.1651 0.2109
H35 H -0.0477 1.1590 0.2322
H36 H -0.0844 1.1490 0.2619
N21 N -0.1016(6) 0.8286(11) 0.1804(6)
O5 O -0.1278(6) 0.8340(13) 0.1494(6)
O6 O -0.0895(9) 0.7572(11) 0.1925(7)
C51 C -0.1258(5) 1.0258(11) 0.1576(5)
F7 F -0.1637(4) 0.9886(14) 0.1480(5)
F8 F -0.1111(5) 1.0254(19) 0.1199(5)
F9 F -0.1346(10) 1.1098(11) 0.1635(7)
loop_
_geom_bond_atom_site_label_1
_geom_bond_atom_site_label_2
_geom_bond_site_symmetry_1
_geom_bond_site_symmetry_2
Zn1 I1 1_555 1_555
I2 Zn1 1_555 1_555
N1 Zn1 1_555 1_555
C1 N1 1_555 1_555
H1 C1 1_555 1_555
C2 C1 1_555 1_555
H2 C2 1_555 1_555
C3 C2 1_555 1_555
C4 C3 1_555 1_555
H3 C4 1_555 1_555
C5 N1 1_555 1_555
H4 C5 1_555 1_555
C6 C3 1_555 1_555
N2 C6 1_555 1_555
C7 N2 1_555 1_555
N3 C7 1_555 1_555
C8 N3 1_555 1_555
N4 C6 1_555 1_555
N5 C9 1_555 1_555
C9 H5 1_555 1_555
C10 C9 1_555 1_555
H6 C10 1_555 1_555
C11 C7 1_555 1_555
C12 C11 1_555 1_555
H7 C12 1_555 1_555
C13 N5 1_555 1_555
H8 C13 1_555 1_555
Zn2 N5 1_555 1_555
I3 Zn2 1_555 1_555
I4 Zn2 1_555 1_555
N6 C14 1_555 1_555
C14 H9 1_555 1_555
C15 C14 1_555 1_555
H10 C15 1_555 1_555
C16 C8 1_555 1_555
C17 C16 1_555 1_555
H11 C17 1_555 1_555
C18 N6 1_555 1_555
H12 C18 1_555 1_555
Zn3 N6 1_555 1_555
I5 Zn3 1_555 1_555
I6 Zn3 1_555 1_555
N7 Zn3 1_555 1_555
C19 N7 1_555 1_555
H13 C19 1_555 1_555
C20 C19 1_555 1_555
H14 C20 1_555 1_555
C21 C20 1_555 1_555
C22 C21 1_555 1_555
H15 C22 1_555 1_555
C23 N7 1_555 1_555
H16 C23 1_555 1_555
C24 C21 1_555 1_555
N8 C24 1_555 1_555
C25 N8 1_555 1_555
N9 C25 1_555 1_555
C26 N9 1_555 1_555
N10 C24 1_555 1_555
N11 C27 1_555 1_555
C27 H17 1_555 1_555
C28 C27 1_555 1_555
H18 C28 1_555 1_555
C29 C25 1_555 1_555
C30 C29 1_555 1_555
H19 C30 1_555 1_555
C31 N11 1_555 1_555
H20 C31 1_555 1_555
N12 C32 1_555 1_555
C32 H21 1_555 1_555
C33 C32 1_555 1_555
H22 C33 1_555 1_555
C34 C26 1_555 1_555
C35 C34 1_555 1_555
H23 C35 1_555 1_555
C36 N12 1_555 1_555
H24 C36 1_555 1_555
N13 C37 1_555 1_555
C37 H25 1_555 1_555
N14 C37 1_555 1_555
C38 N14 1_555 1_555
C39 N13 1_555 1_555
C40 N13 1_555 1_555
H26 C40 1_555 1_555
H27 C40 1_555 1_555
H28 C40 1_555 1_555
N15 C38 1_555 1_555
O1 N15 1_555 1_555
O2 N15 1_555 1_555
C41 C39 1_555 1_555
F1 C41 1_555 1_555
F2 C41 1_555 1_555
F3 C41 1_555 1_555
N16 C42 1_555 1_555
C42 H29 1_555 1_555
N17 C42 1_555 1_555
C43 N17 1_555 1_555
C44 N16 1_555 1_555
C45 N16 1_555 1_555
H30 C45 1_555 1_555
H31 C45 1_555 1_555
H32 C45 1_555 1_555
N18 C43 1_555 1_555
O3 N18 1_555 1_555
O4 N18 1_555 1_555
C46 C44 1_555 1_555
F4 C46 1_555 1_555
F5 C46 1_555 1_555
F6 C46 1_555 1_555
N19 C47 1_555 1_555
C47 H33 1_555 1_555
N20 C47 1_555 1_555
C48 N20 1_555 1_555
C49 N19 1_555 1_555
C50 N19 1_555 1_555
H34 C50 1_555 1_555
H35 C50 1_555 1_555
H36 C50 1_555 1_555
N21 C48 1_555 1_555
O5 N21 1_555 1_555
O6 N21 1_555 1_555
C51 C49 1_555 1_555
F7 C51 1_555 1_555
F8 C51 1_555 1_555
F9 C51 1_555 1_555
Zn1B N11 1_555 1_555
Zn2G N12 1_555 1_555
N11B Zn1 1_555 1_555
N12G Zn2 1_555 1_555
C4 C5 1_555 1_555
C8 N4 1_555 1_555
C10 C11 1_555 1_555
C12 C13 1_555 1_555
C15 C16 1_555 1_555
C17 C18 1_555 1_555
C22 C23 1_555 1_555
C26 N10 1_555 1_555
C28 C29 1_555 1_555
C30 C31 1_555 1_555
C33 C34 1_555 1_555
C35 C36 1_555 1_555
C38 C39 1_555 1_555
C43 C44 1_555 1_555
C48 C49 1_555 1_555

#END
