
#######################################################################
#
#                 Cambridge Crystallographic Data Centre
#                                CCDC 
#
#######################################################################
#
# If this CIF has been generated from an entry in the Cambridge 
# Structural Database, then it will include bibliographic, chemical, 
# crystal, experimental, refinement or atomic coordinate data resulting 
# from the CCDC's data processing and validation procedures.
#
#######################################################################

data_VOZVUD
_symmetry_cell_setting           monoclinic
_symmetry_space_group_name_H-M   'P 21/c'
_symmetry_Int_Tables_number      14
_space_group_name_Hall           '-P 2ybc'
loop_
_symmetry_equiv_pos_site_id
_symmetry_equiv_pos_as_xyz
1 x,y,z
2 -x,1/2+y,1/2-z
3 -x,-y,-z
4 x,1/2-y,1/2+z
_cell_length_a                   8.5440(6)
_cell_length_b                   8.3608(5)
_cell_length_c                   7.8289(6)
_cell_angle_alpha                90
_cell_angle_beta                 113.264(2)
_cell_angle_gamma                90
_cell_volume                     513.785
loop_
_atom_site_label
_atom_site_type_symbol
_atom_site_fract_x
_atom_site_fract_y
_atom_site_fract_z
C1 C 0.36043(14) 0.72437(14) 0.30395(16)
C2 C 0.54469(14) 0.68331(14) 0.38178(18)
H1 H 0.5780 0.5789 0.3726
C3 C 0.66092(14) 0.79199(15) 0.46313(17)
H2 H 0.6252 0.8966 0.4663
C4 C 0.84794(13) 0.75745(13) 0.55118(15)
O1 O 0.30924(12) 0.86031(11) 0.29334(16)
O2 O 0.26252(11) 0.59947(12) 0.25071(17)
H3 H 0.1625 0.6278 0.2089
O3 O 0.90314(11) 0.62688(10) 0.52212(13)
O4 O 0.93940(11) 0.86604(11) 0.65347(14)
Li1 Li 1.1081(2) 0.5129(3) 0.6821(3)
O1C O 1.30924(12) 0.63969(11) 0.79334(16)
O3B O 1.09686(11) 0.37312(10) 0.47788(13)
O4A O 1.06060(11) 0.36604(11) 0.84653(14)
Li1A Li 0.8919(2) 1.0129(3) 0.8179(3)
Li1B Li 0.8919(2) 0.4871(3) 0.3179(3)
Li1C Li 0.1081(2) 0.9871(3) 0.1821(3)
loop_
_geom_bond_atom_site_label_1
_geom_bond_atom_site_label_2
_geom_bond_site_symmetry_1
_geom_bond_site_symmetry_2
C1 C2 1_555 1_555
C2 H1 1_555 1_555
C3 C2 1_555 1_555
H2 C3 1_555 1_555
C4 C3 1_555 1_555
O1 C1 1_555 1_555
O2 C1 1_555 1_555
H3 O2 1_555 1_555
O3 C4 1_555 1_555
O4 C4 1_555 1_555
Li1 O3 1_555 1_555
O1C Li1 1_555 1_555
O3B Li1 1_555 1_555
O4A Li1 1_555 1_555
Li1A O4 1_555 1_555
Li1B O3 1_555 1_555
Li1C O1 1_555 1_555
O3B Li1B 1_555 1_555

#END
