
#######################################################################
#
#                 Cambridge Crystallographic Data Centre
#                                CCDC 
#
#######################################################################
#
# If this CIF has been generated from an entry in the Cambridge 
# Structural Database, then it will include bibliographic, chemical, 
# crystal, experimental, refinement or atomic coordinate data resulting 
# from the CCDC's data processing and validation procedures.
#
#######################################################################

data_VOZVIR01
_symmetry_cell_setting           monoclinic
_symmetry_space_group_name_H-M   'C c'
_symmetry_Int_Tables_number      9
_space_group_name_Hall           'C -2yc'
loop_
_symmetry_equiv_pos_site_id
_symmetry_equiv_pos_as_xyz
1 x,y,z
2 x,-y,1/2+z
3 1/2+x,1/2+y,z
4 1/2+x,1/2-y,1/2+z
_cell_length_a                   33.914(18)
_cell_length_b                   15.135(8)
_cell_length_c                   30.963(16)
_cell_angle_alpha                90
_cell_angle_beta                 100.727(6)
_cell_angle_gamma                90
_cell_volume                     15615.2
loop_
_atom_site_label
_atom_site_type_symbol
_atom_site_fract_x
_atom_site_fract_y
_atom_site_fract_z
Zn4 Zn 0.3796(2) 0.3701(4) 0.4874(2)
I7 I 0.31198(19) 0.3065(3) 0.4478(2)
I8 I 0.4201(2) 0.3271(2) 0.56209(19)
N13 N 0.4167(8) 0.3619(19) 0.4385(12)
C37 C 0.4086(12) 0.293(2) 0.4120(13)
H25 H 0.3856 0.2570 0.4125
C38 C 0.4343(12) 0.274(2) 0.3841(13)
H26 H 0.4299 0.2242 0.3649
C39 C 0.4663(10) 0.328(2) 0.3846(11)
C40 C 0.4756(10) 0.402(2) 0.4095(12)
H27 H 0.4974 0.4409 0.4080
C41 C 0.4487(4) 0.4126(8) 0.4369(4)
H28 H 0.4532 0.4608 0.4569
C42 C 0.4936(4) 0.3123(8) 0.3534(4)
N14 N 0.4886(4) 0.2386(8) 0.3287(4)
C43 C 0.5133(4) 0.2218(8) 0.3004(4)
N15 N 0.5430(4) 0.2787(8) 0.2968(4)
C44 C 0.5480(4) 0.3525(8) 0.3215(4)
N16 N 0.5232(4) 0.3692(8) 0.3498(4)
N17 N 0.6464(11) 0.523(2) 0.3185(8)
C45 C 0.6281(13) 0.529(3) 0.3530(12)
H29 H 0.6329 0.5759 0.3736
C46 C 0.6016(14) 0.462(3) 0.3561(14)
H30 H 0.5963 0.4479 0.3844
C47 C 0.5822(9) 0.412(2) 0.3205(10)
C48 C 0.6022(10) 0.408(2) 0.2861(10)
H31 H 0.5952 0.3652 0.2634
C49 C 0.6326(11) 0.467(2) 0.2858(10)
H32 H 0.6447 0.4691 0.2604
Zn5 Zn 0.6957(2) 0.6037(3) 0.32341(19)
I9 I 0.72081(17) 0.5854(3) 0.25288(17)
I10 I 0.68103(16) 0.7482(2) 0.35639(18)
N18 N 0.5000(9) -0.0177(18) 0.2270(10)
C50 C 0.5273(10) 0.0436(19) 0.2226(11)
H33 H 0.5444 0.0320 0.2022
C51 C 0.5326(10) 0.1220(18) 0.2452(10)
H34 H 0.5517 0.1642 0.2395
C52 C 0.5094(11) 0.1374(15) 0.2762(10)
C53 C 0.4810(12) 0.0791(18) 0.2811(11)
H35 H 0.4628 0.0910 0.3003
C54 C 0.4786(11) 0.0016(18) 0.2577(11)
H36 H 0.4602 -0.0417 0.2639
Zn6 Zn 0.4810(2) -0.1191(3) 0.1826(2)
I11 I 0.53915(19) -0.1483(4) 0.14299(19)
I12 I 0.4424(2) -0.2328(2) 0.2195(2)
N19 N 0.4382(13) -0.0501(18) 0.1365(14)
C55 C 0.4376(14) 0.0376(18) 0.1350(13)
H37 H 0.4523 0.0678 0.1598
C56 C 0.4181(14) 0.0891(13) 0.1012(12)
H38 H 0.4212 0.1514 0.0997
C57 C 0.3935(12) 0.0405(16) 0.0699(10)
C58 C 0.3862(11) -0.0477(16) 0.0720(12)
H39 H 0.3647 -0.0775 0.0536
C59 C 0.4133(5) -0.0876(9) 0.1036(5)
H40 H 0.4146 -0.1502 0.1020
C60 C 0.3685(5) 0.0831(9) 0.0318(5)
N20 N 0.3792(5) 0.1685(9) 0.0254(5)
C61 C 0.3586(5) 0.2160(9) -0.0092(5)
N21 N 0.3273(5) 0.1781(9) -0.0373(5)
C62 C 0.3166(5) 0.0927(9) -0.0308(5)
N22 N 0.3372(5) 0.0452(9) 0.0037(5)
N23 N 0.3702(12) 0.493(2) -0.0122(11)
C63 C 0.3454(15) 0.447(2) -0.0425(13)
H41 H 0.3270 0.4795 -0.0634
C64 C 0.3441(15) 0.357(2) -0.0462(14)
H42 H 0.3316 0.3268 -0.0721
C65 C 0.3626(14) 0.3132(13) -0.0090(13)
C66 C 0.3851(14) 0.3552(19) 0.0265(12)
H43 H 0.3964 0.3252 0.0528
C67 C 0.3897(14) 0.4438(19) 0.0208(12)
H44 H 0.4086 0.4734 0.0425
N24 N 0.2358(10) -0.0399(19) -0.1257(11)
C68 C 0.2603(12) -0.088(2) -0.0963(12)
H45 H 0.2588 -0.1512 -0.0968
C69 C 0.2878(14) -0.045(3) -0.0655(14)
H46 H 0.3043 -0.0781 -0.0431
C70 C 0.2918(14) 0.041(2) -0.0661(11)
C71 C 0.2717(13) 0.083(3) -0.1025(13)
H47 H 0.2813 0.1386 -0.1106
C72 C 0.2378(12) 0.048(2) -0.1278(14)
H48 H 0.2175 0.0824 -0.1452
Zn4A Zn 0.3796(2) 0.6299(4) -0.0126(2)
Zn5C Zn 0.1957(2) -0.1037(3) -0.17659(19)
N23A N 0.3702(12) 0.507(2) 0.4878(11)
N24C N 0.7358(10) 0.5399(19) 0.3743(11)
N25 N 0.3124(17) 0.222(3) 0.2671(10)
C73 C 0.333(2) 0.144(3) 0.2674(12)
C74 C 0.335(2) 0.125(3) 0.2242(14)
C75 C 0.316(2) 0.194(3) 0.1973(10)
H49 H 0.3136 0.1996 0.1665
C76 C 0.300(2) 0.251(3) 0.2247(11)
C77 C 0.308(2) 0.272(3) 0.3066(13)
H50 H 0.3213 0.2407 0.3328
H51 H 0.2791 0.2780 0.3075
H52 H 0.3196 0.3310 0.3056
C78 C 0.3495(10) 0.088(2) 0.3048(11)
F1 F 0.3869(10) 0.111(3) 0.3239(13)
F2 F 0.3514(14) 0.001(2) 0.2959(14)
F3 F 0.3275(12) 0.093(3) 0.3365(14)
N26 N 0.3561(14) 0.059(3) 0.2039(11)
O1 O 0.3838(15) 0.029(4) 0.2307(17)
O2 O 0.3450(16) 0.039(4) 0.1653(11)
C79 C 0.2750(19) 0.329(3) 0.2139(13)
O3 O 0.2610(15) 0.377(3) 0.2396(16)
O4 O 0.2715(14) 0.343(3) 0.1708(13)
C80 C 0.2482(19) 0.422(3) 0.156(2)
H53 H 0.2477 0.4308 0.1247
H54 H 0.2605 0.4730 0.1727
H55 H 0.2207 0.4140 0.1612
N27 N 0.7885(10) 0.235(2) 0.2716(11)
C81 C 0.7798(8) 0.261(2) 0.2284(10)
C82 C 0.7580(10) 0.192(3) 0.2061(12)
C83 C 0.7542(13) 0.126(3) 0.2373(12)
H56 H 0.7408 0.0707 0.2310
C84 C 0.7732(12) 0.154(2) 0.2783(13)
C85 C 0.8115(15) 0.290(3) 0.3068(15)
H57 H 0.8143 0.2582 0.3348
H58 H 0.7973 0.3457 0.3088
H59 H 0.8381 0.3020 0.3003
C86 C 0.7929(11) 0.345(2) 0.2127(11)
N28 N 0.7421(16) 0.189(2) 0.1598(11)
C87 C 0.7759(14) 0.102(3) 0.3186(13)
O5 O 0.7384(16) 0.260(2) 0.1397(15)
O6 O 0.7343(17) 0.118(2) 0.1411(15)
O7 O 0.8025(15) 0.113(4) 0.3509(15)
O8 O 0.7614(14) 0.021(3) 0.3124(13)
C88 C 0.770(2) -0.040(4) 0.3495(17)
H60 H 0.7565 -0.0963 0.3414
H61 H 0.7602 -0.0145 0.3747
H62 H 0.7990 -0.0493 0.3574
F4 F 0.8186(13) 0.397(3) 0.2394(13)
F5 F 0.8108(11) 0.331(3) 0.1781(12)
F6 F 0.7615(13) 0.397(3) 0.1971(15)
C89 C 0.6405(13) 0.245(3) 0.1858(11)
C90 C 0.639(2) 0.005(5) 0.0790(13)
C91 C 0.647(3) -0.083(5) 0.019(3)
H63 H 0.6442 -0.0796 -0.0133
H64 H 0.6314 -0.1321 0.0269
H65 H 0.6757 -0.0919 0.0317
N29 N 0.6394(10) 0.1155(19) 0.1362(13)
C92 C 0.6420(8) 0.205(2) 0.1427(10)
C93 C 0.6458(12) 0.2434(19) 0.1033(11)
C94 C 0.6455(15) 0.174(2) 0.0722(11)
H66 H 0.6476 0.1805 0.0422
C95 C 0.6414(14) 0.096(2) 0.0938(14)
C96 C 0.6352(18) 0.049(7) 0.172(3)
H67 H 0.6355 0.0799 0.1996
H68 H 0.6575 0.0069 0.1751
H69 H 0.6097 0.0172 0.1633
N30 N 0.6495(19) 0.335(2) 0.0937(13)
O9 O 0.652(2) -0.047(4) 0.109(2)
O10 O 0.6335(19) 0.000(3) 0.0354(13)
F7 F 0.6713(14) 0.297(3) 0.202(2)
F8 F 0.6077(14) 0.288(4) 0.192(2)
O11 O 0.666(3) 0.376(3) 0.1259(19)
O12 O 0.647(2) 0.348(3) 0.0544(14)
F9 F 0.6432(19) 0.176(3) 0.214(2)
Zn1 Zn 0.2308(2) 0.1410(3) 0.0369(2)
I1 I 0.29156(17) 0.2403(2) 0.06293(19)
I2 I 0.18377(19) 0.1672(3) -0.0364(2)
N1 N 0.1977(10) 0.1561(15) 0.0889(12)
C1 C 0.1826(12) 0.088(3) 0.1076(13)
H1 H 0.1879 0.0298 0.0981
C2 C 0.1598(12) 0.096(2) 0.1397(14)
H2 H 0.1493 0.0456 0.1521
C3 C 0.1530(12) 0.180(2) 0.1531(11)
C4 C 0.1677(11) 0.253(2) 0.1347(11)
H3 H 0.1630 0.3111 0.1439
C5 C 0.1895(5) 0.2370(9) 0.1025(6)
H4 H 0.1993 0.2865 0.0889
C6 C 0.1305(5) 0.1923(9) 0.1894(6)
N2 N 0.1001(5) 0.1364(9) 0.1942(6)
C7 C 0.0757(5) 0.1561(9) 0.2232(6)
N3 N 0.0817(5) 0.2316(9) 0.2474(6)
C8 C 0.1121(5) 0.2874(9) 0.2426(6)
N4 N 0.1365(5) 0.2678(9) 0.2137(6)
N5 N -0.0265(11) -0.010(2) 0.2280(13)
C9 C -0.0101(11) 0.043(2) 0.2607(13)
H5 H -0.0229 0.0459 0.2855
C10 C 0.0233(11) 0.095(2) 0.2621(11)
H6 H 0.0331 0.1307 0.2871
C11 C 0.0424(9) 0.095(2) 0.2266(13)
C12 C 0.0274(12) 0.038(3) 0.1924(13)
H7 H 0.0403 0.0328 0.1678
C13 C -0.0065(12) -0.009(2) 0.1948(13)
H8 H -0.0168 -0.0456 0.1703
Zn2 Zn -0.0811(3) -0.0877(4) 0.2309(3)
I3 I -0.0661(3) -0.2370(3) 0.2010(3)
I4 I -0.1143(3) -0.0523(5) 0.2997(2)
N6 N 0.1295(11) 0.528(2) 0.3158(11)
C14 C 0.1551(12) 0.501(2) 0.2910(13)
H9 H 0.1783 0.5358 0.2903
C15 C 0.1496(11) 0.426(2) 0.2664(13)
H10 H 0.1686 0.4101 0.2487
C16 C 0.1172(11) 0.3720(18) 0.2670(13)
C17 C 0.0911(11) 0.400(2) 0.2930(13)
H11 H 0.0684 0.3647 0.2954
C18 C 0.0973(12) 0.478(2) 0.3156(14)
H12 H 0.0778 0.4970 0.3319
I5 I 0.18577(19) 0.7375(2) 0.32849(17)
Zn3 Zn 0.1440(2) 0.6266(3) 0.3628(2)
I6 I 0.08366(17) 0.6597(3) 0.3985(2)
N7 N 0.1807(9) 0.5559(19) 0.4114(9)
C19 C 0.2105(11) 0.594(2) 0.4394(11)
H13 H 0.2156 0.6547 0.4356
C20 C 0.2342(13) 0.5507(16) 0.4732(13)
H14 H 0.2559 0.5800 0.4916
C21 C 0.2259(11) 0.4641(16) 0.4799(9)
C22 C 0.1980(11) 0.4175(16) 0.4515(11)
H15 H 0.1943 0.3556 0.4538
C23 C 0.1758(4) 0.4679(8) 0.4195(4)
H16 H 0.1544 0.4387 0.4007
C24 C 0.2452(4) 0.4106(8) 0.5176(4)
N8 N 0.2738(4) 0.4501(8) 0.5490(4)
C25 C 0.2987(4) 0.3990(8) 0.5793(4)
N9 N 0.2949(4) 0.3084(8) 0.5782(4)
C26 C 0.2663(4) 0.2689(8) 0.5468(4)
N10 N 0.2414(4) 0.3200(8) 0.5165(4)
N11 N 0.3792(12) 0.5247(17) 0.6818(10)
C27 C 0.3735(14) 0.4376(18) 0.6824(11)
H17 H 0.3854 0.4055 0.7078
C28 C 0.3513(13) 0.392(2) 0.6480(10)
H18 H 0.3502 0.3296 0.6486
C29 C 0.3307(11) 0.4380(17) 0.6126(10)
C30 C 0.3357(14) 0.5279(17) 0.6112(12)
H19 H 0.3225 0.5619 0.5870
C31 C 0.3606(13) 0.567(2) 0.6460(10)
H20 H 0.3647 0.6289 0.6445
N12 N 0.2466(11) -0.0092(19) 0.5408(11)
C32 C 0.2233(14) 0.0465(18) 0.5142(15)
H21 H 0.2026 0.0244 0.4919
C33 C 0.2293(12) 0.135(2) 0.5189(14)
H22 H 0.2109 0.1738 0.5011
C34 C 0.2601(11) 0.1725(11) 0.5479(12)
C35 C 0.2816(13) 0.1131(16) 0.5762(12)
H23 H 0.3021 0.1341 0.5991
C36 C 0.2744(12) 0.0242(19) 0.5725(13)
H24 H 0.2897 -0.0147 0.5931
Zn1A Zn 0.2308(2) -0.1410(3) 0.5369(2)
Zn2C Zn 0.4189(3) 0.5877(4) 0.7309(3)
N11C N -0.1208(12) -0.0247(17) 0.1818(10)
N12A N 0.2466(11) 0.0092(19) 0.0408(11)
C97? C 0.626(3) 0.220(6) 0.009(3)
H70? H 0.6509 0.1970 0.0008
H71? H 0.6260 0.2020 0.0399
C98? C 0.625(3) 0.322(5) 0.006(3)
H72? H 0.6497 0.3462 0.0242
H73? H 0.6017 0.3448 0.0167
C99? C 0.623(3) 0.352(5) -0.043(3)
H74? H 0.6215 0.4168 -0.0442
H75? H 0.6479 0.3331 -0.0527
C100? C 0.586(3) 0.311(6) -0.073(3)
H76? H 0.5614 0.3340 -0.0644
H77? H 0.5862 0.3284 -0.1036
C101? C 0.587(3) 0.209(6) -0.069(3)
H78? H 0.5619 0.1848 -0.0876
H79? H 0.6099 0.1855 -0.0808
C102? C 0.589(3) 0.179(5) -0.021(3)
H80? H 0.5913 0.1134 -0.0199
H81? H 0.5645 0.1961 -0.0110
loop_
_geom_bond_atom_site_label_1
_geom_bond_atom_site_label_2
_geom_bond_site_symmetry_1
_geom_bond_site_symmetry_2
Zn1 I1 1_555 1_555
I2 Zn1 1_555 1_555
N1 Zn1 1_555 1_555
C1 N1 1_555 1_555
H1 C1 1_555 1_555
C2 C1 1_555 1_555
H2 C2 1_555 1_555
C3 C2 1_555 1_555
C4 C3 1_555 1_555
H3 C4 1_555 1_555
C5 N1 1_555 1_555
H4 C5 1_555 1_555
C6 C3 1_555 1_555
N2 C6 1_555 1_555
C7 N2 1_555 1_555
N3 C7 1_555 1_555
C8 N3 1_555 1_555
N4 C6 1_555 1_555
N5 C9 1_555 1_555
C9 H5 1_555 1_555
C10 C9 1_555 1_555
H6 C10 1_555 1_555
C11 C7 1_555 1_555
C12 C11 1_555 1_555
H7 C12 1_555 1_555
C13 N5 1_555 1_555
H8 C13 1_555 1_555
Zn2 N5 1_555 1_555
I3 Zn2 1_555 1_555
I4 Zn2 1_555 1_555
N6 C14 1_555 1_555
C14 H9 1_555 1_555
C15 C14 1_555 1_555
H10 C15 1_555 1_555
C16 C8 1_555 1_555
C17 C16 1_555 1_555
H11 C17 1_555 1_555
C18 N6 1_555 1_555
H12 C18 1_555 1_555
I5 Zn3 1_555 1_555
Zn3 N6 1_555 1_555
I6 Zn3 1_555 1_555
N7 Zn3 1_555 1_555
C19 N7 1_555 1_555
H13 C19 1_555 1_555
C20 C19 1_555 1_555
H14 C20 1_555 1_555
C21 C20 1_555 1_555
C22 C21 1_555 1_555
H15 C22 1_555 1_555
C23 N7 1_555 1_555
H16 C23 1_555 1_555
C24 C21 1_555 1_555
N8 C24 1_555 1_555
C25 N8 1_555 1_555
N9 C25 1_555 1_555
C26 N9 1_555 1_555
N10 C24 1_555 1_555
N11 C27 1_555 1_555
C27 H17 1_555 1_555
C28 C27 1_555 1_555
H18 C28 1_555 1_555
C29 C25 1_555 1_555
C30 C29 1_555 1_555
H19 C30 1_555 1_555
C31 N11 1_555 1_555
H20 C31 1_555 1_555
N12 C32 1_555 1_555
C32 H21 1_555 1_555
C33 C32 1_555 1_555
H22 C33 1_555 1_555
C34 C26 1_555 1_555
C35 C34 1_555 1_555
H23 C35 1_555 1_555
C36 N12 1_555 1_555
H24 C36 1_555 1_555
Zn4 I7 1_555 1_555
I8 Zn4 1_555 1_555
N13 Zn4 1_555 1_555
C37 N13 1_555 1_555
H25 C37 1_555 1_555
C38 C37 1_555 1_555
H26 C38 1_555 1_555
C39 C38 1_555 1_555
C40 C39 1_555 1_555
H27 C40 1_555 1_555
C41 N13 1_555 1_555
H28 C41 1_555 1_555
C42 C39 1_555 1_555
N14 C42 1_555 1_555
C43 N14 1_555 1_555
N15 C43 1_555 1_555
C44 N15 1_555 1_555
N16 C42 1_555 1_555
N17 C45 1_555 1_555
C45 H29 1_555 1_555
C46 C45 1_555 1_555
H30 C46 1_555 1_555
C47 C44 1_555 1_555
C48 C47 1_555 1_555
H31 C48 1_555 1_555
C49 N17 1_555 1_555
H32 C49 1_555 1_555
Zn5 N17 1_555 1_555
I9 Zn5 1_555 1_555
I10 Zn5 1_555 1_555
N18 C50 1_555 1_555
C50 H33 1_555 1_555
C51 C50 1_555 1_555
H34 C51 1_555 1_555
C52 C43 1_555 1_555
C53 C52 1_555 1_555
H35 C53 1_555 1_555
C54 N18 1_555 1_555
H36 C54 1_555 1_555
Zn6 N18 1_555 1_555
I11 Zn6 1_555 1_555
I12 Zn6 1_555 1_555
N19 Zn6 1_555 1_555
C55 N19 1_555 1_555
H37 C55 1_555 1_555
C56 C55 1_555 1_555
H38 C56 1_555 1_555
C57 C56 1_555 1_555
C58 C57 1_555 1_555
H39 C58 1_555 1_555
C59 N19 1_555 1_555
H40 C59 1_555 1_555
C60 C57 1_555 1_555
N20 C60 1_555 1_555
C61 N20 1_555 1_555
N21 C61 1_555 1_555
C62 N21 1_555 1_555
N22 C60 1_555 1_555
N23 C63 1_555 1_555
C63 H41 1_555 1_555
C64 C63 1_555 1_555
H42 C64 1_555 1_555
C65 C61 1_555 1_555
C66 C65 1_555 1_555
H43 C66 1_555 1_555
C67 N23 1_555 1_555
H44 C67 1_555 1_555
N24 C68 1_555 1_555
C68 H45 1_555 1_555
C69 C68 1_555 1_555
H46 C69 1_555 1_555
C70 C62 1_555 1_555
C71 C70 1_555 1_555
H47 C71 1_555 1_555
C72 N24 1_555 1_555
H48 C72 1_555 1_555
N25 C73 1_555 1_555
C73 C74 1_555 1_555
C74 C75 1_555 1_555
C75 H49 1_555 1_555
C76 N25 1_555 1_555
C77 N25 1_555 1_555
H50 C77 1_555 1_555
H51 C77 1_555 1_555
H52 C77 1_555 1_555
C78 C73 1_555 1_555
F1 C78 1_555 1_555
F2 C78 1_555 1_555
F3 C78 1_555 1_555
N26 C74 1_555 1_555
O1 N26 1_555 1_555
O2 N26 1_555 1_555
C79 C76 1_555 1_555
O3 C79 1_555 1_555
O4 C79 1_555 1_555
C80 O4 1_555 1_555
H53 C80 1_555 1_555
H54 C80 1_555 1_555
H55 C80 1_555 1_555
N27 C81 1_555 1_555
C81 C82 1_555 1_555
C82 C83 1_555 1_555
C83 H56 1_555 1_555
C84 N27 1_555 1_555
C85 N27 1_555 1_555
H57 C85 1_555 1_555
H58 C85 1_555 1_555
H59 C85 1_555 1_555
C86 C81 1_555 1_555
N28 C82 1_555 1_555
C87 C84 1_555 1_555
O5 N28 1_555 1_555
O6 N28 1_555 1_555
O7 C87 1_555 1_555
O8 C87 1_555 1_555
C88 O8 1_555 1_555
H60 C88 1_555 1_555
H61 C88 1_555 1_555
H62 C88 1_555 1_555
F4 C86 1_555 1_555
F5 C86 1_555 1_555
F6 C86 1_555 1_555
C89 C92 1_555 1_555
C90 C95 1_555 1_555
C91 H63 1_555 1_555
H64 C91 1_555 1_555
H65 C91 1_555 1_555
N29 C92 1_555 1_555
C92 C93 1_555 1_555
C93 C94 1_555 1_555
C94 H66 1_555 1_555
C95 N29 1_555 1_555
C96 N29 1_555 1_555
H67 C96 1_555 1_555
H68 C96 1_555 1_555
H69 C96 1_555 1_555
N30 C93 1_555 1_555
O9 C90 1_555 1_555
O10 C90 1_555 1_555
F7 C89 1_555 1_555
F8 C89 1_555 1_555
O11 N30 1_555 1_555
O12 N30 1_555 1_555
F9 C89 1_555 1_555
Zn1A N12 1_555 1_555
Zn2C N11 1_555 1_555
N11C Zn2 1_555 1_555
N12A Zn1 1_555 1_555
Zn4A N23 1_555 1_555
Zn5C N24 1_555 1_555
N23A Zn4 1_555 1_555
N24C Zn5 1_555 1_555
C4 C5 1_555 1_555
C8 N4 1_555 1_555
C10 C11 1_555 1_555
C12 C13 1_555 1_555
C15 C16 1_555 1_555
C17 C18 1_555 1_555
C22 C23 1_555 1_555
C26 N10 1_555 1_555
C28 C29 1_555 1_555
C30 C31 1_555 1_555
C33 C34 1_555 1_555
C35 C36 1_555 1_555
C40 C41 1_555 1_555
C44 N16 1_555 1_555
C46 C47 1_555 1_555
C48 C49 1_555 1_555
C51 C52 1_555 1_555
C53 C54 1_555 1_555
C58 C59 1_555 1_555
C62 N22 1_555 1_555
C64 C65 1_555 1_555
C66 C67 1_555 1_555
C69 C70 1_555 1_555
C71 C72 1_555 1_555
C75 C76 1_555 1_555
C83 C84 1_555 1_555
C91 O10 1_555 1_555
C94 C95 1_555 1_555

#END
