
#######################################################################
#
#                 Cambridge Crystallographic Data Centre
#                                CCDC 
#
#######################################################################
#
# If this CIF has been generated from an entry in the Cambridge 
# Structural Database, then it will include bibliographic, chemical, 
# crystal, experimental, refinement or atomic coordinate data resulting 
# from the CCDC's data processing and validation procedures.
#
#######################################################################

data_VSNFER
_symmetry_cell_setting           monoclinic
_symmetry_space_group_name_H-M   'P 21/a'
_symmetry_Int_Tables_number      14
_space_group_name_Hall           '-P 2yab'
loop_
_symmetry_equiv_pos_site_id
_symmetry_equiv_pos_as_xyz
1 x,y,z
2 1/2-x,1/2+y,-z
3 -x,-y,-z
4 1/2+x,1/2-y,z
_cell_length_a                   15.105(5)
_cell_length_b                   10.030(4)
_cell_length_c                   11.402(4)
_cell_angle_alpha                90
_cell_angle_beta                 104.06(4)
_cell_angle_gamma                90
_cell_volume                     1675.69
loop_
_atom_site_label
_atom_site_type_symbol
_atom_site_fract_x
_atom_site_fract_y
_atom_site_fract_z
Sn1 Sn -0.22600 0.32670 0.05720
Fe1 Fe -0.39090 0.23490 -0.40560
O1 O -0.29750 0.14450 -0.07100
O2 O -0.35060 -0.03180 -0.17860
C1 C -0.27080 0.31220 -0.42020
C2 C -0.26520 0.17440 -0.40870
C3 C -0.32860 0.11700 -0.50410
C4 C -0.37420 0.21540 -0.57590
C5 C -0.33990 0.34040 -0.52470
C6 C -0.47990 0.11730 -0.34850
C7 C -0.52560 0.22480 -0.41490
C8 C -0.49000 0.34450 -0.35860
C9 C -0.41940 0.31410 -0.25530
C10 C -0.41370 0.16990 -0.24960
C11 C -0.34800 0.09250 -0.15790
C12 C -0.16100 0.35690 -0.08350
C13 C -0.17340 0.17200 0.17750
C14 C -0.35500 0.37540 0.04920
C15 C -0.15420 0.17340 0.28450
C16 C -0.10170 0.42280 -0.09730
C17 C -0.39340 0.43100 0.11540
H1 H -0.23370 0.37760 -0.36560
H2 H -0.22330 0.12560 -0.34380
H3 H -0.33880 0.02100 -0.51740
H4 H -0.42210 0.20260 -0.65010
H5 H -0.36050 0.42900 -0.55620
H6 H -0.49160 0.02260 -0.36730
H7 H -0.57470 0.21790 -0.48850
H8 H -0.51060 0.43440 -0.38640
H9 H -0.38220 0.37770 -0.19900
O2A O -0.14940 0.46820 0.17860
Sn1A Sn -0.27400 -0.17330 -0.05720
loop_
_geom_bond_atom_site_label_1
_geom_bond_atom_site_label_2
_geom_bond_site_symmetry_1
_geom_bond_site_symmetry_2
Sn1 O1 1_555 1_555
Fe1 C1 1_555 1_555
O1 C11 1_555 1_555
O2 C11 1_555 1_555
C1 C2 1_555 1_555
C2 Fe1 1_555 1_555
C3 Fe1 1_555 1_555
C4 Fe1 1_555 1_555
C5 Fe1 1_555 1_555
C6 Fe1 1_555 1_555
C7 Fe1 1_555 1_555
C8 Fe1 1_555 1_555
C9 Fe1 1_555 1_555
C10 Fe1 1_555 1_555
C11 C10 1_555 1_555
C12 Sn1 1_555 1_555
C13 Sn1 1_555 1_555
C14 Sn1 1_555 1_555
C15 C13 1_555 1_555
C16 C12 1_555 1_555
C17 C14 1_555 1_555
H1 C1 1_555 1_555
H2 C2 1_555 1_555
H3 C3 1_555 1_555
H4 C4 1_555 1_555
H5 C5 1_555 1_555
H6 C6 1_555 1_555
H7 C7 1_555 1_555
H8 C8 1_555 1_555
H9 C9 1_555 1_555
O2A Sn1 1_555 1_555
Sn1A O2 1_555 1_555
C1 C5 1_555 1_555
C2 C3 1_555 1_555
C3 C4 1_555 1_555
C4 C5 1_555 1_555
C6 C7 1_555 1_555
C6 C10 1_555 1_555
C7 C8 1_555 1_555
C8 C9 1_555 1_555
C9 C10 1_555 1_555

#END
