
#######################################################################
#
#                 Cambridge Crystallographic Data Centre
#                                CCDC 
#
#######################################################################
#
# If this CIF has been generated from an entry in the Cambridge 
# Structural Database, then it will include bibliographic, chemical, 
# crystal, experimental, refinement or atomic coordinate data resulting 
# from the CCDC's data processing and validation procedures.
#
#######################################################################

data_VUBXEV
_symmetry_cell_setting           orthorhombic
_symmetry_space_group_name_H-M   'P 21 21 21'
_symmetry_Int_Tables_number      19
_space_group_name_Hall           'P 2ac 2ab'
loop_
_symmetry_equiv_pos_site_id
_symmetry_equiv_pos_as_xyz
1 x,y,z
2 1/2+x,1/2-y,-z
3 -x,1/2+y,1/2-z
4 1/2-x,-y,1/2+z
_cell_length_a                   9.7484(7)
_cell_length_b                   10.3086(6)
_cell_length_c                   19.2656(8)
_cell_angle_alpha                90
_cell_angle_beta                 90
_cell_angle_gamma                90
_cell_volume                     1936.05
loop_
_atom_site_label
_atom_site_type_symbol
_atom_site_fract_x
_atom_site_fract_y
_atom_site_fract_z
Sn1 Sn -0.48601(5) 0.06664(5) -0.21044(3)
O1 O -0.4016(6) -0.0926(5) -0.1489(3)
O2 O -0.4478(5) -0.2481(5) -0.2252(3)
O3 O -0.1303(7) -0.3398(7) -0.0597(4)
N1 N -0.2219(8) -0.2506(7) -0.0849(4)
C1 C -0.6972(8) 0.0222(8) -0.1882(4)
C2 C -0.7861(9) 0.1313(9) -0.1815(5)
C3 C -0.9235(9) 0.107(1) -0.1585(5)
C4 C -0.9660(9) -0.020(1) -0.1431(5)
C5 C -0.876(1) -0.123(1) -0.1512(6)
C6 C -0.7408(9) -0.1012(8) -0.1748(5)
C7 C -0.4074(8) 0.1979(8) -0.1346(4)
C8 C -0.2910(9) 0.2747(9) -0.1461(5)
C9 C -0.245(1) 0.357(1) -0.0929(6)
C10 C -0.313(1) 0.364(1) -0.0300(5)
C11 C -0.430(1) 0.288(1) -0.0187(5)
C12 C -0.474(1) 0.2035(9) -0.0705(4)
C13 C -0.3520(8) 0.0255(7) -0.2955(5)
C14 C -0.392(1) 0.0080(9) -0.3622(5)
C15 C -0.294(1) -0.015(1) -0.4150(5)
C16 C -0.154(1) -0.024(1) -0.3955(6)
C17 C -0.115(1) -0.005(1) -0.3299(6)
C18 C -0.2117(9) 0.019(1) -0.2795(5)
C19 C -0.3855(8) -0.2068(7) -0.1726(4)
C20 C -0.2814(9) -0.2909(8) -0.1389(5)
C21 C -0.064(1) -0.294(1) 0.0024(6)
H1 H -0.75556 0.21660 -0.19200
H2 H -0.98607 0.17718 -0.15350
H3 H -1.05671 -0.03576 -0.12710
H4 H -0.90594 -0.20874 -0.14094
H5 H -0.68012 -0.17228 -0.18126
H6 H -0.24392 0.27114 -0.18923
H7 H -0.16596 0.40913 -0.10022
H8 H -0.28094 0.42032 0.00544
H9 H -0.47855 0.29363 0.02389
H10 H -0.55047 0.14883 -0.06205
H11 H -0.48670 0.01105 -0.37372
H12 H -0.32081 -0.02352 -0.46209
H13 H -0.08760 -0.04399 -0.42976
H14 H -0.02004 -0.00715 -0.31810
H15 H -0.18306 0.03093 -0.23284
H16 H -0.26000 -0.37363 -0.15767
H17 H -0.00128 -0.35789 0.01848
H18 H -0.01566 -0.21613 -0.00754
H19 H -0.13091 -0.27783 0.03710
O2B O -0.5522(5) 0.2519(5) -0.2748(3)
Sn1B Sn -0.51399(5) -0.43336(5) -0.28956(3)
loop_
_geom_bond_atom_site_label_1
_geom_bond_atom_site_label_2
_geom_bond_site_symmetry_1
_geom_bond_site_symmetry_2
Sn1 O1 1_555 1_555
O1 C19 1_555 1_555
O2 C19 1_555 1_555
O3 N1 1_555 1_555
N1 C20 1_555 1_555
C1 Sn1 1_555 1_555
C2 C1 1_555 1_555
C3 C2 1_555 1_555
C4 C3 1_555 1_555
C5 C4 1_555 1_555
C6 C1 1_555 1_555
C7 Sn1 1_555 1_555
C8 C7 1_555 1_555
C9 C8 1_555 1_555
C10 C9 1_555 1_555
C11 C10 1_555 1_555
C12 C7 1_555 1_555
C13 Sn1 1_555 1_555
C14 C13 1_555 1_555
C15 C14 1_555 1_555
C16 C15 1_555 1_555
C17 C16 1_555 1_555
C18 C13 1_555 1_555
C19 C20 1_555 1_555
C20 H16 1_555 1_555
C21 O3 1_555 1_555
H1 C2 1_555 1_555
H2 C3 1_555 1_555
H3 C4 1_555 1_555
H4 C5 1_555 1_555
H5 C6 1_555 1_555
H6 C8 1_555 1_555
H7 C9 1_555 1_555
H8 C10 1_555 1_555
H9 C11 1_555 1_555
H10 C12 1_555 1_555
H11 C14 1_555 1_555
H12 C15 1_555 1_555
H13 C16 1_555 1_555
H14 C17 1_555 1_555
H15 C18 1_555 1_555
H17 C21 1_555 1_555
H18 C21 1_555 1_555
H19 C21 1_555 1_555
O2B Sn1 1_555 1_555
Sn1B O2 1_555 1_555
C5 C6 1_555 1_555
C11 C12 1_555 1_555
C17 C18 1_555 1_555

#END
