
#######################################################################
#
#                 Cambridge Crystallographic Data Centre
#                                CCDC 
#
#######################################################################
#
# If this CIF has been generated from an entry in the Cambridge 
# Structural Database, then it will include bibliographic, chemical, 
# crystal, experimental, refinement or atomic coordinate data resulting 
# from the CCDC's data processing and validation procedures.
#
#######################################################################

data_VUCCUT
_symmetry_cell_setting           rhombohedral
_symmetry_space_group_name_H-M   'R -3'
_symmetry_Int_Tables_number      148
_space_group_name_Hall           '-R 3'
loop_
_symmetry_equiv_pos_site_id
_symmetry_equiv_pos_as_xyz
1 x,y,z
2 -y,x-y,z
3 -x+y,-x,z
4 2/3+x,1/3+y,1/3+z
5 2/3-y,1/3+x-y,1/3+z
6 2/3-x+y,1/3-x,1/3+z
7 1/3+x,2/3+y,2/3+z
8 1/3-y,2/3+x-y,2/3+z
9 1/3-x+y,2/3-x,2/3+z
10 -x,-y,-z
11 y,-x+y,-z
12 x-y,x,-z
13 1/3-x,2/3-y,2/3-z
14 1/3+y,2/3-x+y,2/3-z
15 1/3+x-y,2/3+x,2/3-z
16 2/3-x,1/3-y,1/3-z
17 2/3+y,1/3-x+y,1/3-z
18 2/3+x-y,1/3+x,1/3-z
_cell_length_a                   10.2024(4)
_cell_length_b                   10.2024(4)
_cell_length_c                   31.0818(13)
_cell_angle_alpha                90
_cell_angle_beta                 90
_cell_angle_gamma                120
_cell_volume                     2801.83
loop_
_atom_site_label
_atom_site_type_symbol
_atom_site_fract_x
_atom_site_fract_y
_atom_site_fract_z
Ce1 Ce 0.6667 0.3333 0.3333
O1 O 0.3872(2) 0.2422(2) 0.31190(6)
O2 O 0.50231(18) 0.1774(2) 0.26380(5)
C1 C 0.3867(3) 0.1826(3) 0.27689(7)
Ce2 Ce 0.6667 0.3333 0.201429(6)
C2 C 0.2502(3) 0.1213(3) 0.24825(8)
O3 O 0.41162(19) 0.3282(2) 0.20223(6)
O4 O 0.4966(2) 0.1421(2) 0.14848(6)
H1 H 0.1659 0.1157 0.2642
H2 H 0.2224 0.0196 0.2392
C3 C 0.2804(2) 0.2202(3) 0.20885(7)
O1A O 0.7578(2) 0.1450(3) 0.31190(6)
O2A O 0.8226(2) 0.32491(27) 0.26380(5)
O1B O 0.8550(3) 0.6128(2) 0.31190(6)
O2B O 0.67509(27) 0.49769(18) 0.26380(5)
O1L O 0.9461(2) 0.4245(2) 0.35477(6)
O1M O 0.5755(2) 0.5217(3) 0.35477(6)
O1N O 0.4783(3) 0.0539(2) 0.35477(6)
O2L O 0.83102(18) 0.4893(2) 0.40287(5)
O2M O 0.5107(2) 0.34176(27) 0.40287(5)
O2N O 0.65824(27) 0.16898(18) 0.40287(5)
C1A C 0.8174(3) 0.2041(4) 0.27689(7)
C1B C 0.7959(4) 0.6133(3) 0.27689(7)
C1L C 0.9466(3) 0.4841(3) 0.38978(7)
C1M C 0.5159(3) 0.4626(4) 0.38978(7)
C1N C 0.5374(4) 0.0534(3) 0.38978(7)
Ce2L Ce 0.6666 0.3334 0.465238(6)
O3A O 0.6718(2) 0.08342(28) 0.20223(6)
O3B O 0.91658(28) 0.58838(19) 0.20223(6)
O4A O 0.8579(2) 0.3545(3) 0.14848(6)
O4B O 0.6455(3) 0.5034(2) 0.14848(6)
C2A C 0.8787(3) 0.1289(4) 0.24825(8)
C2B C 0.8711(4) 0.7498(3) 0.24825(8)
C2L C 1.0831(3) 0.5454(3) 0.41842(8)
C2M C 0.4546(3) 0.5378(4) 0.41842(8)
C2N C 0.4622(4) -0.0831(3) 0.41842(8)
O4N O 0.6878(3) 0.1633(2) 0.51819(6)
O4M O 0.4754(2) 0.3122(3) 0.51819(6)
O4L O 0.8367(2) 0.5246(2) 0.51819(6)
O3M O 0.6615(2) 0.58325(28) 0.46444(6)
O3L O 0.92171(19) 0.3385(2) 0.46444(6)
O3N O 0.41675(28) 0.07829(19) 0.46444(6)
C3A C 0.7798(3) 0.0602(4) 0.20885(7)
C3B C 0.9398(4) 0.7196(2) 0.20885(7)
H1A H 0.8843 0.0502 0.2642
H2A H 0.9804 0.2028 0.2392
H1B H 0.9498 0.8341 0.2642
H2B H 0.7972 0.7776 0.2392
C3L C 1.0529(2) 0.4465(3) 0.45782(7)
H2L H 1.1109 0.6471 0.4275
H1L H 1.1674 0.5510 0.4025
H1M H 0.4490 0.6165 0.4025
C3M C 0.5535(3) 0.6065(4) 0.45782(7)
H2M H 0.3529 0.4639 0.4275
C3N C 0.3935(4) -0.0529(2) 0.45782(7)
H1N H 0.3835 -0.1674 0.4025
H2N H 0.5361 -0.1109 0.4275
O4O O 0.1701(2) 0.1912(2) 0.18485(6)
O4P O 0.8088(2) -0.0212(3) 0.18485(6)
O4Q O 1.0212(3) 0.8299(2) 0.18485(6)
O4C O 1.1633(2) 0.4754(2) 0.48181(6)
O4D O 0.5246(2) 0.6878(3) 0.48181(6)
O4E O 0.3122(3) -0.1633(2) 0.48181(6)
Ce2O Ce -0.0000 0.0000 0.131904(6)
Ce2O_2 Ce 1.0000 0.0000 0.131904(6)
Ce2O_3 Ce 1.0000 1.0000 0.131904(6)
Ce2C Ce 1.3334 0.6666 0.534762(6)
Ce2C_2 Ce 0.3334 0.6666 0.534762(6)
Ce2C_3 Ce 0.3334 -0.3334 0.534762(6)
Co1 Co 0.3333 0.6667 0.1667
N1 N 0.3356(3) 0.5093(3) 0.13054(8)
H3 H 0.2690 0.4183 0.1407
H4 H 0.4278 0.5201 0.1309
H5 H 0.3112 0.5183 0.1036
N1A N 0.4907(3) 0.8263(4) 0.13054(8)
H3A H 0.5817 0.8507 0.1407
H4A H 0.4799 0.9077 0.1309
H5A H 0.4817 0.7929 0.1036
N1B N 0.1737(4) 0.6644(3) 0.13054(8)
H3B H 0.1493 0.7310 0.1407
H4B H 0.0923 0.5722 0.1309
H5B H 0.2071 0.6888 0.1036
N1O N 0.3311(3) 0.8240(3) 0.20279(8)
H3O H 0.3977 0.9150 0.1926
H4O H 0.2389 0.8132 0.2024
H5O H 0.3555 0.8150 0.2297
N1P N 0.1760(3) 0.5070(4) 0.20279(8)
H3P H 0.0850 0.4826 0.1926
H4P H 0.1868 0.4256 0.2024
H5P H 0.1850 0.5404 0.2297
N1Q N 0.4930(4) 0.6689(3) 0.20279(8)
H3Q H 0.5174 0.6023 0.1926
H4Q H 0.5744 0.7611 0.2024
H5Q H 0.4596 0.6445 0.2297
O5 O 0.2998(11) 0.4753(10) 0.29298(19)
loop_
_geom_bond_atom_site_label_1
_geom_bond_atom_site_label_2
_geom_bond_site_symmetry_1
_geom_bond_site_symmetry_2
Ce1 O1 1_555 1_555
O1 C1 1_555 1_555
O2 Ce1 1_555 1_555
C1 O2 1_555 1_555
Ce2 O2 1_555 1_555
C2 C1 1_555 1_555
O3 Ce2 1_555 1_555
O4 Ce2 1_555 1_555
H1 C2 1_555 1_555
H2 C2 1_555 1_555
C3 C2 1_555 1_555
Co1 N1 1_555 1_555
N1 H3 1_555 1_555
H4 N1 1_555 1_555
H5 N1 1_555 1_555
O1A Ce1 1_555 1_555
O2A Ce1 1_555 1_555
O1B Ce1 1_555 1_555
O2B Ce1 1_555 1_555
O1L Ce1 1_555 1_555
O1M Ce1 1_555 1_555
O1N Ce1 1_555 1_555
O2L Ce1 1_555 1_555
O2M Ce1 1_555 1_555
O2N Ce1 1_555 1_555
C1A O1A 1_555 1_555
C1B O1B 1_555 1_555
C1L O1L 1_555 1_555
C1M O1M 1_555 1_555
C1N O1N 1_555 1_555
Ce2L O2L 1_555 1_555
O3A Ce2 1_555 1_555
O3B Ce2 1_555 1_555
O4A Ce2 1_555 1_555
O4B Ce2 1_555 1_555
C2A C1A 1_555 1_555
C2B C1B 1_555 1_555
C2L C1L 1_555 1_555
C2M C1M 1_555 1_555
C2N C1N 1_555 1_555
O4N Ce2L 1_555 1_555
O4M Ce2L 1_555 1_555
O4L Ce2L 1_555 1_555
O3M Ce2L 1_555 1_555
O3L Ce2L 1_555 1_555
O3N Ce2L 1_555 1_555
C3A O3A 1_555 1_555
C3B O3B 1_555 1_555
H1A C2A 1_555 1_555
H2A C2A 1_555 1_555
H1B C2B 1_555 1_555
H2B C2B 1_555 1_555
C3L C2L 1_555 1_555
H2L C2L 1_555 1_555
H1L C2L 1_555 1_555
H1M C2M 1_555 1_555
C3M C2M 1_555 1_555
H2M C2M 1_555 1_555
C3N C2N 1_555 1_555
H1N C2N 1_555 1_555
H2N C2N 1_555 1_555
O4O C3 1_555 1_555
O4P C3A 1_555 1_555
O4Q C3B 1_555 1_555
O4C C3L 1_555 1_555
O4D C3M 1_555 1_555
O4E C3N 1_555 1_555
Ce2O O4O 1_555 1_555
Ce2O_2 O4P 1_555 1_555
Ce2O_3 O4Q 1_555 1_555
Ce2C O4C 1_555 1_555
Ce2C_2 O4D 1_555 1_555
Ce2C_3 O4E 1_555 1_555
N1A Co1 1_555 1_555
H3A N1A 1_555 1_555
H4A N1A 1_555 1_555
H5A N1A 1_555 1_555
N1B Co1 1_555 1_555
H3B N1B 1_555 1_555
H4B N1B 1_555 1_555
H5B N1B 1_555 1_555
N1O Co1 1_555 1_555
H3O N1O 1_555 1_555
H4O N1O 1_555 1_555
H5O N1O 1_555 1_555
N1P Co1 1_555 1_555
H3P N1P 1_555 1_555
H4P N1P 1_555 1_555
H5P N1P 1_555 1_555
N1Q Co1 1_555 1_555
H3Q N1Q 1_555 1_555
H4Q N1Q 1_555 1_555
H5Q N1Q 1_555 1_555
Ce2 O2A 1_555 1_555
Ce2 O2B 1_555 1_555
O3 C3 1_555 1_555
O2A C1A 1_555 1_555
O2B C1B 1_555 1_555
O2L C1L 1_555 1_555
O2M C1M 1_555 1_555
O2M Ce2L 1_555 1_555
O2N C1N 1_555 1_555
O2N Ce2L 1_555 1_555
C2A C3A 1_555 1_555
C2B C3B 1_555 1_555
O3M C3M 1_555 1_555
O3L C3L 1_555 1_555
O3N C3N 1_555 1_555

#END
