
#######################################################################
#
#                 Cambridge Crystallographic Data Centre
#                                CCDC 
#
#######################################################################
#
# If this CIF has been generated from an entry in the Cambridge 
# Structural Database, then it will include bibliographic, chemical, 
# crystal, experimental, refinement or atomic coordinate data resulting 
# from the CCDC's data processing and validation procedures.
#
#######################################################################

data_VUCDEE
_symmetry_cell_setting           rhombohedral
_symmetry_space_group_name_H-M   'R -3'
_symmetry_Int_Tables_number      148
_space_group_name_Hall           '-R 3'
loop_
_symmetry_equiv_pos_site_id
_symmetry_equiv_pos_as_xyz
1 x,y,z
2 -y,x-y,z
3 -x+y,-x,z
4 2/3+x,1/3+y,1/3+z
5 2/3-y,1/3+x-y,1/3+z
6 2/3-x+y,1/3-x,1/3+z
7 1/3+x,2/3+y,2/3+z
8 1/3-y,2/3+x-y,2/3+z
9 1/3-x+y,2/3-x,2/3+z
10 -x,-y,-z
11 y,-x+y,-z
12 x-y,x,-z
13 1/3-x,2/3-y,2/3-z
14 1/3+y,2/3-x+y,2/3-z
15 1/3+x-y,2/3+x,2/3-z
16 2/3-x,1/3-y,1/3-z
17 2/3+y,1/3-x+y,1/3-z
18 2/3+x-y,1/3+x,1/3-z
_cell_length_a                   10.18210(10)
_cell_length_b                   10.18210(10)
_cell_length_c                   30.9216(6)
_cell_angle_alpha                90
_cell_angle_beta                 90
_cell_angle_gamma                120
_cell_volume                     2776.31
loop_
_atom_site_label
_atom_site_type_symbol
_atom_site_fract_x
_atom_site_fract_y
_atom_site_fract_z
Pr1 Pr 0.0000 0.0000 0.0000
Pr2 Pr 0.0000 0.0000 0.132003(2)
O1 O 0.27781(10) 0.18659(10) 0.02133(3)
O2 O 0.16268(7) 0.00656(8) 0.06990(2)
O3 O 0.25444(8) 0.24843(9) 0.13144(3)
O4 O 0.49701(9) 0.35411(9) 0.14869(2)
C1 C 0.27828(9) 0.12737(10) 0.05658(3)
C2 C 0.41594(10) 0.20272(11) 0.08518(3)
H1 H 0.5003 0.2813 0.0690
H2 H 0.4436 0.1286 0.0942
C3 C 0.38606(9) 0.27214(9) 0.12480(2)
O1A O -0.18659(10) 0.09122(14) 0.02133(3)
O2A O -0.00656(8) 0.15612(11) 0.06990(2)
O3A O -0.24843(9) 0.00601(12) 0.13144(3)
O4A O -0.35411(9) 0.14290(13) 0.14869(2)
C1A C -0.12737(10) 0.15091(13) 0.05658(3)
C2A C -0.20272(11) 0.21322(15) 0.08518(3)
H1A H -0.2813 0.2190 0.0690
H2A H -0.1286 0.3150 0.0942
C3A C -0.27214(9) 0.11392(13) 0.12480(2)
O1B O -0.09122(14) -0.27781(10) 0.02133(3)
O2B O -0.15612(11) -0.16268(7) 0.06990(2)
O3B O -0.00601(12) -0.25444(8) 0.13144(3)
O4B O -0.14290(13) -0.49701(9) 0.14869(2)
C1B C -0.15091(13) -0.27828(9) 0.05658(3)
C2B C -0.21322(15) -0.41594(10) 0.08518(3)
H1B H -0.2190 -0.5003 0.0690
H2B H -0.3150 -0.4436 0.0942
C3B C -0.11392(13) -0.38606(9) 0.12480(2)
Pr2I Pr 0.0000 0.0000 -0.132003(2)
O1I O -0.27781(10) -0.18659(10) -0.02133(3)
O2I O -0.16268(7) -0.00656(8) -0.06990(2)
O3I O -0.25444(8) -0.24843(9) -0.13144(3)
O4I O -0.49701(9) -0.35411(9) -0.14869(2)
C1I C -0.27828(9) -0.12737(10) -0.05658(3)
C2I C -0.41594(10) -0.20272(11) -0.08518(3)
H1I H -0.5003 -0.2813 -0.0690
H2I H -0.4436 -0.1286 -0.0942
C3I C -0.38606(9) -0.27214(9) -0.12480(2)
O1J O 0.18659(10) -0.09122(14) -0.02133(3)
O2J O 0.00656(8) -0.15612(11) -0.06990(2)
O3J O 0.24843(9) -0.00601(12) -0.13144(3)
O4J O 0.35411(9) -0.14290(13) -0.14869(2)
C1J C 0.12737(10) -0.15091(13) -0.05658(3)
C2J C 0.20272(11) -0.21322(15) -0.08518(3)
H1J H 0.2813 -0.2190 -0.0690
H2J H 0.1286 -0.3150 -0.0942
C3J C 0.27214(9) -0.11392(13) -0.12480(2)
O1K O 0.09122(14) 0.27781(10) -0.02133(3)
O2K O 0.15612(11) 0.16268(7) -0.06990(2)
O3K O 0.00601(12) 0.25444(8) -0.13144(3)
O4K O 0.14290(13) 0.49701(9) -0.14869(2)
C1K C 0.15091(13) 0.27828(9) -0.05658(3)
C2K C 0.21322(15) 0.41594(10) -0.08518(3)
H1K H 0.2190 0.5003 -0.0690
H2K H 0.3150 0.4436 -0.0942
C3K C 0.11392(13) 0.38606(9) -0.12480(2)
Pr2F Pr -0.6667 -0.3333 -0.201330(2)
Pr2F_2 Pr 0.3333 -0.3333 -0.201330(2)
Pr2F_3 Pr 0.3333 0.6667 -0.201330(2)
Pr2O Pr -0.3333 -0.6667 0.201330(2)
Pr2O_2 Pr -0.3333 0.3333 0.201330(2)
Pr2O_3 Pr 0.6667 0.3333 0.201330(2)
O4F O -0.16966(9) 0.02078(9) -0.18464(2)
O4G O -0.02078(9) -0.19043(13) -0.18464(2)
O4H O 0.19043(13) 0.16966(9) -0.18464(2)
O4O O 0.16966(9) -0.02078(9) 0.18464(2)
O4P O 0.02078(9) 0.19043(13) 0.18464(2)
O4Q O -0.19043(13) -0.16966(9) 0.18464(2)
Co1 Co 0.3333 0.6667 0.1667
N1 N 0.33603(12) 0.82715(11) 0.13063(4)
H3 H 0.4049 0.9174 0.1408
H4 H 0.2450 0.8193 0.1312
H5 H 0.3594 0.8173 0.1035
N1A N 0.17285(11) 0.50888(16) 0.13063(4)
H3A H 0.0826 0.4875 0.1408
H4A H 0.1807 0.4257 0.1312
H5A H 0.1827 0.5421 0.1035
N1B N 0.49112(16) 0.66397(12) 0.13063(4)
H3B H 0.5125 0.5951 0.1408
H4B H 0.5743 0.7550 0.1312
H5B H 0.4579 0.6406 0.1035
N1O N 0.33064(12) 0.50618(11) 0.20270(4)
H3O H 0.2618 0.4159 0.1925
H4O H 0.4217 0.5140 0.2021
H5O H 0.3073 0.5160 0.2298
N1P N 0.49382(11) 0.82445(16) 0.20270(4)
H3P H 0.5841 0.8458 0.1925
H4P H 0.4860 0.9076 0.2021
H5P H 0.4840 0.7912 0.2298
N1Q N 0.17555(16) 0.66936(12) 0.20270(4)
H3Q H 0.1542 0.7382 0.1925
H4Q H 0.0924 0.5783 0.2021
H5Q H 0.2088 0.6927 0.2298
O5 O 0.4942(4) 0.8593(6) 0.04105(14)
loop_
_geom_bond_atom_site_label_1
_geom_bond_atom_site_label_2
_geom_bond_site_symmetry_1
_geom_bond_site_symmetry_2
Pr1 O1 1_555 1_555
Pr2 O2 1_555 1_555
O1 C1 1_555 1_555
O2 Pr1 1_555 1_555
O3 Pr2 1_555 1_555
O4 C3 1_555 1_555
C1 O2 1_555 1_555
C2 C1 1_555 1_555
H1 C2 1_555 1_555
H2 C2 1_555 1_555
C3 O3 1_555 1_555
Co1 N1 1_555 1_555
N1 H3 1_555 1_555
H4 N1 1_555 1_555
H5 N1 1_555 1_555
O1A Pr1 1_555 1_555
O2A Pr1 1_555 1_555
O3A Pr2 1_555 1_555
O4A C3A 1_555 1_555
C1A O1A 1_555 1_555
C2A C1A 1_555 1_555
H1A C2A 1_555 1_555
H2A C2A 1_555 1_555
C3A O3A 1_555 1_555
O1B Pr1 1_555 1_555
O2B Pr1 1_555 1_555
O3B Pr2 1_555 1_555
O4B C3B 1_555 1_555
C1B O1B 1_555 1_555
C2B C1B 1_555 1_555
H1B C2B 1_555 1_555
H2B C2B 1_555 1_555
C3B O3B 1_555 1_555
Pr2I O2I 1_555 1_555
O1I Pr1 1_555 1_555
O2I Pr1 1_555 1_555
O3I Pr2I 1_555 1_555
O4I C3I 1_555 1_555
C1I O1I 1_555 1_555
C2I C1I 1_555 1_555
H1I C2I 1_555 1_555
H2I C2I 1_555 1_555
C3I O3I 1_555 1_555
O1J Pr1 1_555 1_555
O2J Pr1 1_555 1_555
O3J Pr2I 1_555 1_555
O4J C3J 1_555 1_555
C1J O1J 1_555 1_555
C2J C1J 1_555 1_555
H1J C2J 1_555 1_555
H2J C2J 1_555 1_555
C3J O3J 1_555 1_555
O1K Pr1 1_555 1_555
O2K Pr1 1_555 1_555
O3K Pr2I 1_555 1_555
O4K C3K 1_555 1_555
C1K O1K 1_555 1_555
C2K C1K 1_555 1_555
H1K C2K 1_555 1_555
H2K C2K 1_555 1_555
C3K O3K 1_555 1_555
Pr2F O4I 1_555 1_555
Pr2F_2 O4J 1_555 1_555
Pr2F_3 O4K 1_555 1_555
Pr2O O4B 1_555 1_555
Pr2O_2 O4A 1_555 1_555
Pr2O_3 O4 1_555 1_555
O4F Pr2I 1_555 1_555
O4G Pr2I 1_555 1_555
O4H Pr2I 1_555 1_555
O4O Pr2 1_555 1_555
O4P Pr2 1_555 1_555
O4Q Pr2 1_555 1_555
N1A Co1 1_555 1_555
H3A N1A 1_555 1_555
H4A N1A 1_555 1_555
H5A N1A 1_555 1_555
N1B Co1 1_555 1_555
H3B N1B 1_555 1_555
H4B N1B 1_555 1_555
H5B N1B 1_555 1_555
N1O Co1 1_555 1_555
H3O N1O 1_555 1_555
H4O N1O 1_555 1_555
H5O N1O 1_555 1_555
N1P Co1 1_555 1_555
H3P N1P 1_555 1_555
H4P N1P 1_555 1_555
H5P N1P 1_555 1_555
N1Q Co1 1_555 1_555
H3Q N1Q 1_555 1_555
H4Q N1Q 1_555 1_555
H5Q N1Q 1_555 1_555
Pr2 O2A 1_555 1_555
Pr2 O2B 1_555 1_555
C2 C3 1_555 1_555
O2A C1A 1_555 1_555
C2A C3A 1_555 1_555
O2B C1B 1_555 1_555
C2B C3B 1_555 1_555
Pr2I O2J 1_555 1_555
Pr2I O2K 1_555 1_555
O2I C1I 1_555 1_555
C2I C3I 1_555 1_555
O2J C1J 1_555 1_555
C2J C3J 1_555 1_555
O2K C1K 1_555 1_555
C2K C3K 1_555 1_555

#END
