
#######################################################################
#
#                 Cambridge Crystallographic Data Centre
#                                CCDC 
#
#######################################################################
#
# If this CIF has been generated from an entry in the Cambridge 
# Structural Database, then it will include bibliographic, chemical, 
# crystal, experimental, refinement or atomic coordinate data resulting 
# from the CCDC's data processing and validation procedures.
#
#######################################################################

data_VUCDAA
_symmetry_cell_setting           rhombohedral
_symmetry_space_group_name_H-M   'R -3'
_symmetry_Int_Tables_number      148
_space_group_name_Hall           '-R 3'
loop_
_symmetry_equiv_pos_site_id
_symmetry_equiv_pos_as_xyz
1 x,y,z
2 -y,x-y,z
3 -x+y,-x,z
4 2/3+x,1/3+y,1/3+z
5 2/3-y,1/3+x-y,1/3+z
6 2/3-x+y,1/3-x,1/3+z
7 1/3+x,2/3+y,2/3+z
8 1/3-y,2/3+x-y,2/3+z
9 1/3-x+y,2/3-x,2/3+z
10 -x,-y,-z
11 y,-x+y,-z
12 x-y,x,-z
13 1/3-x,2/3-y,2/3-z
14 1/3+y,2/3-x+y,2/3-z
15 1/3+x-y,2/3+x,2/3-z
16 2/3-x,1/3-y,1/3-z
17 2/3+y,1/3-x+y,1/3-z
18 2/3+x-y,1/3+x,1/3-z
_cell_length_a                   10.2386(5)
_cell_length_b                   10.2386(5)
_cell_length_c                   31.013(3)
_cell_angle_alpha                90
_cell_angle_beta                 90
_cell_angle_gamma                120
_cell_volume                     2815.5
loop_
_atom_site_label
_atom_site_type_symbol
_atom_site_fract_x
_atom_site_fract_y
_atom_site_fract_z
Nd1 Nd 0.0000 0.0000 0.0000
Nd2 Nd 0.0000 0.0000 0.131880(3)
O1 O 0.27699(15) 0.09118(17) 0.02120(4)
O2 O 0.16173(12) 0.15617(13) 0.06997(4)
O3 O 0.25427(12) 0.00638(14) 0.13160(4)
O4 O 0.49723(13) 0.14376(14) 0.14898(4)
C1 C 0.27795(15) 0.15146(16) 0.05656(4)
C2 C 0.41571(16) 0.21365(17) 0.08514(5)
H1 H 0.4435 0.3151 0.0941
H2 H 0.4993 0.2190 0.0690
C3 C 0.38618(15) 0.11475(15) 0.12496(4)
O1A O -0.09118(17) 0.18581(23) 0.02120(4)
O2A O -0.15617(13) 0.00556(18) 0.06997(4)
O3A O -0.00638(14) 0.24789(18) 0.13160(4)
O4A O -0.14376(14) 0.35347(19) 0.14898(4)
C1A C -0.15146(16) 0.12649(22) 0.05656(4)
C2A C -0.21365(17) 0.20206(23) 0.08514(5)
H1A H -0.3151 0.1284 0.0941
H2A H -0.2190 0.2803 0.0690
C3A C -0.11475(15) 0.27143(21) 0.12496(4)
O1B O -0.18581(23) -0.27699(15) 0.02120(4)
O2B O -0.00556(18) -0.16173(12) 0.06997(4)
O3B O -0.24789(18) -0.25427(12) 0.13160(4)
O4B O -0.35347(19) -0.49723(13) 0.14898(4)
C1B C -0.12649(22) -0.27795(15) 0.05656(4)
C2B C -0.20206(23) -0.41571(16) 0.08514(5)
H1B H -0.1284 -0.4435 0.0941
H2B H -0.2803 -0.4993 0.0690
C3B C -0.27143(21) -0.38618(15) 0.12496(4)
Nd2I Nd 0.0000 0.0000 -0.131880(3)
O1I O -0.27699(15) -0.09118(17) -0.02120(4)
O2I O -0.16173(12) -0.15617(13) -0.06997(4)
O3I O -0.25427(12) -0.00638(14) -0.13160(4)
O4I O -0.49723(13) -0.14376(14) -0.14898(4)
C1I C -0.27795(15) -0.15146(16) -0.05656(4)
C2I C -0.41571(16) -0.21365(17) -0.08514(5)
H1I H -0.4435 -0.3151 -0.0941
H2I H -0.4993 -0.2190 -0.0690
C3I C -0.38618(15) -0.11475(15) -0.12496(4)
O1J O 0.09118(17) -0.18581(23) -0.02120(4)
O2J O 0.15617(13) -0.00556(18) -0.06997(4)
O3J O 0.00638(14) -0.24789(18) -0.13160(4)
O4J O 0.14376(14) -0.35347(19) -0.14898(4)
C1J C 0.15146(16) -0.12649(22) -0.05656(4)
C2J C 0.21365(17) -0.20206(23) -0.08514(5)
H1J H 0.3151 -0.1284 -0.0941
H2J H 0.2190 -0.2803 -0.0690
C3J C 0.11475(15) -0.27143(21) -0.12496(4)
O1K O 0.18581(23) 0.27699(15) -0.02120(4)
O2K O 0.00556(18) 0.16173(12) -0.06997(4)
O3K O 0.24789(18) 0.25427(12) -0.13160(4)
O4K O 0.35347(19) 0.49723(13) -0.14898(4)
C1K C 0.12649(22) 0.27795(15) -0.05656(4)
C2K C 0.20206(23) 0.41571(16) -0.08514(5)
H1K H 0.1284 0.4435 -0.0941
H2K H 0.2803 0.4993 -0.0690
C3K C 0.27143(21) 0.38618(15) -0.12496(4)
Nd2F Nd -0.6667 -0.3333 -0.201453(3)
Nd2F_2 Nd 0.3333 -0.3333 -0.201453(3)
Nd2F_3 Nd 0.3333 0.6667 -0.201453(3)
Nd2O Nd -0.3333 -0.6667 0.201453(3)
Nd2O_2 Nd -0.3333 0.3333 0.201453(3)
Nd2O_3 Nd 0.6667 0.3333 0.201453(3)
O4F O -0.16944(13) -0.18957(14) -0.18435(4)
O4G O 0.18957(14) 0.02014(19) -0.18435(4)
O4H O -0.02014(19) 0.16944(13) -0.18435(4)
O4O O 0.16944(13) 0.18957(14) 0.18435(4)
O4P O -0.18957(14) -0.02014(19) 0.18435(4)
O4Q O 0.02014(19) -0.16944(13) 0.18435(4)
Co1 Co 0.3333 0.6667 0.1667
N1 N 0.33649(18) 0.50882(17) 0.13053(5)
H3 H 0.2701 0.4182 0.1407
H4 H 0.4284 0.5198 0.1311
H5 H 0.3125 0.5175 0.1035
N1A N 0.49118(17) 0.82767(25) 0.13053(5)
H3A H 0.5818 0.8519 0.1407
H4A H 0.4802 0.9086 0.1311
H5A H 0.4825 0.7950 0.1035
N1B N 0.17233(25) 0.66351(18) 0.13053(5)
H3B H 0.1481 0.7299 0.1407
H4B H 0.0914 0.5716 0.1311
H5B H 0.2050 0.6875 0.1035
N1O N 0.33018(18) 0.82451(17) 0.20280(5)
H3O H 0.3966 0.9151 0.1926
H4O H 0.2383 0.8135 0.2022
H5O H 0.3542 0.8158 0.2298
N1P N 0.17549(17) 0.50566(25) 0.20280(5)
H3P H 0.0849 0.4814 0.1926
H4P H 0.1865 0.4247 0.2022
H5P H 0.1842 0.5383 0.2298
N1Q N 0.49434(25) 0.66982(18) 0.20280(5)
H3Q H 0.5186 0.6034 0.1926
H4Q H 0.5753 0.7617 0.2022
H5Q H 0.4617 0.6458 0.2298
O5 O 0.3627(8) -0.1425(7) 0.03996(15)
loop_
_geom_bond_atom_site_label_1
_geom_bond_atom_site_label_2
_geom_bond_site_symmetry_1
_geom_bond_site_symmetry_2
Nd1 O1 1_555 1_555
Nd2 O2 1_555 1_555
O1 C1 1_555 1_555
O2 Nd1 1_555 1_555
O3 Nd2 1_555 1_555
O4 C3 1_555 1_555
C1 O2 1_555 1_555
C2 C1 1_555 1_555
H1 C2 1_555 1_555
H2 C2 1_555 1_555
C3 O3 1_555 1_555
Co1 N1 1_555 1_555
N1 H3 1_555 1_555
H4 N1 1_555 1_555
H5 N1 1_555 1_555
O1A Nd1 1_555 1_555
O2A Nd1 1_555 1_555
O3A Nd2 1_555 1_555
O4A C3A 1_555 1_555
C1A O1A 1_555 1_555
C2A C1A 1_555 1_555
H1A C2A 1_555 1_555
H2A C2A 1_555 1_555
C3A O3A 1_555 1_555
O1B Nd1 1_555 1_555
O2B Nd1 1_555 1_555
O3B Nd2 1_555 1_555
O4B C3B 1_555 1_555
C1B O1B 1_555 1_555
C2B C1B 1_555 1_555
H1B C2B 1_555 1_555
H2B C2B 1_555 1_555
C3B O3B 1_555 1_555
Nd2I O2I 1_555 1_555
O1I Nd1 1_555 1_555
O2I Nd1 1_555 1_555
O3I Nd2I 1_555 1_555
O4I C3I 1_555 1_555
C1I O1I 1_555 1_555
C2I C1I 1_555 1_555
H1I C2I 1_555 1_555
H2I C2I 1_555 1_555
C3I O3I 1_555 1_555
O1J Nd1 1_555 1_555
O2J Nd1 1_555 1_555
O3J Nd2I 1_555 1_555
O4J C3J 1_555 1_555
C1J O1J 1_555 1_555
C2J C1J 1_555 1_555
H1J C2J 1_555 1_555
H2J C2J 1_555 1_555
C3J O3J 1_555 1_555
O1K Nd1 1_555 1_555
O2K Nd1 1_555 1_555
O3K Nd2I 1_555 1_555
O4K C3K 1_555 1_555
C1K O1K 1_555 1_555
C2K C1K 1_555 1_555
H1K C2K 1_555 1_555
H2K C2K 1_555 1_555
C3K O3K 1_555 1_555
Nd2F O4I 1_555 1_555
Nd2F_2 O4J 1_555 1_555
Nd2F_3 O4K 1_555 1_555
Nd2O O4B 1_555 1_555
Nd2O_2 O4A 1_555 1_555
Nd2O_3 O4 1_555 1_555
O4F Nd2I 1_555 1_555
O4G Nd2I 1_555 1_555
O4H Nd2I 1_555 1_555
O4O Nd2 1_555 1_555
O4P Nd2 1_555 1_555
O4Q Nd2 1_555 1_555
N1A Co1 1_555 1_555
H3A N1A 1_555 1_555
H4A N1A 1_555 1_555
H5A N1A 1_555 1_555
N1B Co1 1_555 1_555
H3B N1B 1_555 1_555
H4B N1B 1_555 1_555
H5B N1B 1_555 1_555
N1O Co1 1_555 1_555
H3O N1O 1_555 1_555
H4O N1O 1_555 1_555
H5O N1O 1_555 1_555
N1P Co1 1_555 1_555
H3P N1P 1_555 1_555
H4P N1P 1_555 1_555
H5P N1P 1_555 1_555
N1Q Co1 1_555 1_555
H3Q N1Q 1_555 1_555
H4Q N1Q 1_555 1_555
H5Q N1Q 1_555 1_555
Nd2 O2A 1_555 1_555
Nd2 O2B 1_555 1_555
C2 C3 1_555 1_555
O2A C1A 1_555 1_555
C2A C3A 1_555 1_555
O2B C1B 1_555 1_555
C2B C3B 1_555 1_555
Nd2I O2J 1_555 1_555
Nd2I O2K 1_555 1_555
O2I C1I 1_555 1_555
C2I C3I 1_555 1_555
O2J C1J 1_555 1_555
C2J C3J 1_555 1_555
O2K C1K 1_555 1_555
C2K C3K 1_555 1_555

#END
