
#######################################################################
#
#                 Cambridge Crystallographic Data Centre
#                                CCDC 
#
#######################################################################
#
# If this CIF has been generated from an entry in the Cambridge 
# Structural Database, then it will include bibliographic, chemical, 
# crystal, experimental, refinement or atomic coordinate data resulting 
# from the CCDC's data processing and validation procedures.
#
#######################################################################

data_VUCTOE
_symmetry_cell_setting           triclinic
_symmetry_space_group_name_H-M   'P -1'
_symmetry_Int_Tables_number      2
_space_group_name_Hall           '-P 1'
loop_
_symmetry_equiv_pos_site_id
_symmetry_equiv_pos_as_xyz
1 x,y,z
2 -x,-y,-z
_cell_length_a                   7.7266(3)
_cell_length_b                   7.9643(4)
_cell_length_c                   21.2205(8)
_cell_angle_alpha                90.298(4)
_cell_angle_beta                 92.209(3)
_cell_angle_gamma                90.805(4)
_cell_volume                     1304.72
loop_
_atom_site_label
_atom_site_type_symbol
_atom_site_fract_x
_atom_site_fract_y
_atom_site_fract_z
Mn1 Mn 0.61130(6) 0.60285(6) 0.60548(2)
Mn2 Mn 0.29072(6) 0.84870(6) 0.55381(2)
Mn3 Mn 0.20044(6) 0.67359(6) 0.82351(2)
Mn4 Mn 0.52334(6) 0.42480(6) 0.87939(2)
Mn5 Mn 0.59743(6) 0.81821(7) 0.97460(2)
P1 P 0.58733(10) 0.74633(11) 0.45622(4)
P2 P 0.26565(10) 0.57450(11) 0.97999(4)
P3 P 0.32310(10) 0.05334(11) 0.88056(4)
O1 O 0.5082(3) 0.7126(3) 0.52057(10)
O2 O 0.7856(3) 0.7022(3) 0.46353(10)
H1 H 0.7989 0.6035 0.4539
O3 O 0.5001(3) 0.6346(3) 0.40543(10)
O4 O 0.5795(3) 0.9280(3) 0.43720(10)
O5 O 0.4103(3) 0.6520(3) 1.02233(10)
O6 O 0.3220(3) 0.5841(3) 0.91185(10)
O7 O 0.1074(3) 0.6948(3) 0.98683(11)
H2 H 0.0188 0.6386 0.9910
O8 O 0.2147(3) 0.3967(3) 0.99782(11)
O9 O 0.4156(3) 0.2010(3) 0.85274(10)
O10 O 0.1313(3) 0.1124(3) 0.89545(12)
H3 H 0.1101 0.1998 0.8766
O11 O 0.4044(3) 0.0028(3) 0.94464(10)
O12 O 0.3034(3) -0.0915(3) 0.83565(10)
O13 O 0.8711(3) 0.5107(3) 0.58961(11)
O14 O 1.1317(3) 0.6051(3) 0.56393(11)
O15 O 0.7850(3) 0.8242(3) 0.62137(10)
O16 O 1.0406(3) 0.9202(3) 0.59120(11)
O17 O 0.4225(3) 0.5358(3) 0.78878(10)
O18 O 0.6089(3) 0.5430(3) 0.71106(10)
O19 O 0.1996(3) 0.7201(3) 0.71954(10)
O20 O 0.3962(3) 0.7457(3) 0.64521(10)
O21 O 0.7738(3) 0.3551(3) 0.84932(11)
O22 O 1.0337(3) 0.4492(3) 0.82479(13)
O23 O 0.6811(3) 0.6716(3) 0.87848(10)
O24 O 0.9414(3) 0.7625(3) 0.84915(11)
O25 O 0.1652(3) 0.8270(3) 0.45908(10)
H4 H 0.1355 0.7280 0.4556
H5 H 0.0802 0.8866 0.4544
O26 O 0.8087(3) 0.9820(3) 0.94802(12)
H6 H 0.8120 1.0714 0.9677
H7 H 0.8986 0.9642 0.9323
C1 C 0.9826(4) 0.6240(4) 0.58308(14)
C2 C 0.9326(4) 0.8061(4) 0.60015(14)
C3 C 0.4712(4) 0.5788(4) 0.73479(14)
C4 C 0.3406(4) 0.6915(4) 0.69713(14)
C5 C 0.8840(4) 0.4697(4) 0.84257(15)
C6 C 0.8294(4) 0.6511(4) 0.85815(14)
Mn1A Mn 0.38870(6) 0.39715(6) 0.39452(2)
Mn2_2 Mn 1.29072(6) 0.84870(6) 0.55381(2)
Mn2A Mn 0.70928(6) 1.15130(6) 0.44619(2)
Mn3_2 Mn 0.20044(6) -0.32641(6) 0.82351(2)
Mn3_3 Mn 1.20044(6) 0.67359(6) 0.82351(2)
Mn4A Mn 0.47666(6) 0.57520(6) 1.12061(2)
Mn5_2 Mn 0.59743(6) -0.18179(7) 0.97460(2)
Mn5A Mn 0.40257(6) 0.18179(7) 1.02540(2)
O3A O 0.4999(3) 0.3654(3) 0.59457(10)
O4A O 0.4205(3) 1.0720(3) 0.56280(10)
O5A O 0.5897(3) 0.3480(3) 0.97767(10)
O8A O 0.7853(3) 0.6033(3) 1.00218(11)
O11_2 O 0.4044(3) 1.0028(3) 0.94464(10)
O11A O 0.5956(3) 0.9972(3) 1.05536(10)
O12_2 O 0.3034(3) 0.9085(3) 0.83565(10)
O14_2 O 0.1317(3) 0.6051(3) 0.56393(11)
O16_2 O 0.0406(3) 0.9202(3) 0.59120(11)
O22_2 O 0.0337(3) 0.4492(3) 0.82479(13)
O24_2 O -0.0586(3) 0.7625(3) 0.84915(11)
N1 N 0.2978(3) 0.8504(4) 0.33199(12)
H8 H 0.2766 0.9409 0.3559
H9 H 0.3507 0.7739 0.3568
N2 N 0.1622(4) 0.9476(4) 0.21066(13)
H10 H 0.1099 1.0223 0.1849
H11 H 0.1864 0.8563 0.1876
C7 C 0.1298(4) 0.7782(5) 0.30596(16)
H12 H 0.0541 0.7539 0.3403
H13 H 0.1509 0.6738 0.2840
C8 C 0.0431(5) 0.8992(5) 0.26125(16)
H14 H -0.0612 0.8476 0.2425
H15 H 0.0101 0.9987 0.2842
C9 C 0.4144(5) 0.8998(5) 0.28123(16)
H16 H 0.4455 0.8010 0.2575
H17 H 0.5198 0.9501 0.2996
C10 C 0.3265(5) 1.0227(5) 0.23797(17)
H18 H 0.3014 1.1243 0.2612
H19 H 0.4025 1.0524 0.2043
loop_
_geom_bond_atom_site_label_1
_geom_bond_atom_site_label_2
_geom_bond_site_symmetry_1
_geom_bond_site_symmetry_2
Mn1 O1 1_555 1_555
Mn2 O1 1_555 1_555
Mn3 O6 1_555 1_555
Mn4 O6 1_555 1_555
Mn5 O5 1_555 1_555
P1 O1 1_555 1_555
P2 O5 1_555 1_555
P3 O9 1_555 1_555
O2 P1 1_555 1_555
H1 O2 1_555 1_555
O3 P1 1_555 1_555
O4 P1 1_555 1_555
O5 Mn4A 1_555 1_555
O6 P2 1_555 1_555
O7 P2 1_555 1_555
H2 O7 1_555 1_555
O8 P2 1_555 1_555
O9 Mn4 1_555 1_555
O10 P3 1_555 1_555
H3 O10 1_555 1_555
O11 P3 1_555 1_555
O12 P3 1_555 1_555
O13 Mn1 1_555 1_555
O14 C1 1_555 1_555
O15 Mn1 1_555 1_555
O16 C2 1_555 1_555
O17 Mn3 1_555 1_555
O18 Mn1 1_555 1_555
O19 Mn3 1_555 1_555
O20 Mn1 1_555 1_555
O21 Mn4 1_555 1_555
O22 C5 1_555 1_555
O23 Mn4 1_555 1_555
O24 C6 1_555 1_555
O25 Mn2 1_555 1_555
H4 O25 1_555 1_555
H5 O25 1_555 1_555
O26 Mn5 1_555 1_555
H6 O26 1_555 1_555
H7 O26 1_555 1_555
C1 O13 1_555 1_555
C2 O15 1_555 1_555
C3 O17 1_555 1_555
C4 O19 1_555 1_555
C5 O21 1_555 1_555
C6 O23 1_555 1_555
N1 H8 1_555 1_555
H9 N1 1_555 1_555
N2 H10 1_555 1_555
H11 N2 1_555 1_555
C7 N1 1_555 1_555
H12 C7 1_555 1_555
H13 C7 1_555 1_555
C8 N2 1_555 1_555
H14 C8 1_555 1_555
H15 C8 1_555 1_555
C9 N1 1_555 1_555
H16 C9 1_555 1_555
H17 C9 1_555 1_555
C10 N2 1_555 1_555
H18 C10 1_555 1_555
H19 C10 1_555 1_555
Mn1A O3 1_555 1_555
Mn2_2 O14 1_555 1_555
Mn2A O4 1_555 1_555
Mn3_2 O12 1_555 1_555
Mn3_3 O22 1_555 1_555
Mn5_2 O11 1_555 1_555
Mn5A O8 1_555 1_555
O3A Mn1 1_555 1_555
O4A Mn2 1_555 1_555
O5A Mn4 1_555 1_555
O8A Mn5 1_555 1_555
O11_2 Mn5 1_555 1_555
O11A Mn5 1_555 1_555
O12_2 Mn3 1_555 1_555
O14_2 Mn2 1_555 1_555
O16_2 Mn2 1_555 1_555
O22_2 Mn3 1_555 1_555
O24_2 Mn3 1_555 1_555
Mn2 O20 1_555 1_555
Mn4 O17 1_555 1_555
Mn5 O23 1_555 1_555
O11 Mn5A 1_555 1_555
O16 Mn2_2 1_555 1_555
O18 C3 1_555 1_555
O20 C4 1_555 1_555
O24 Mn3_3 1_555 1_555
C1 C2 1_555 1_555
C3 C4 1_555 1_555
C5 C6 1_555 1_555
C7 C8 1_555 1_555
C9 C10 1_555 1_555
Mn5A O5A 1_555 1_555

#END
