
#######################################################################
#
#                 Cambridge Crystallographic Data Centre
#                                CCDC 
#
#######################################################################
#
# If this CIF has been generated from an entry in the Cambridge 
# Structural Database, then it will include bibliographic, chemical, 
# crystal, experimental, refinement or atomic coordinate data resulting 
# from the CCDC's data processing and validation procedures.
#
#######################################################################

data_VUCTUK
_symmetry_cell_setting           triclinic
_symmetry_space_group_name_H-M   'P -1'
_symmetry_Int_Tables_number      2
_space_group_name_Hall           '-P 1'
loop_
_symmetry_equiv_pos_site_id
_symmetry_equiv_pos_as_xyz
1 x,y,z
2 -x,-y,-z
_cell_length_a                   7.7895(3)
_cell_length_b                   8.0754(5)
_cell_length_c                   9.7286(6)
_cell_angle_alpha                75.902(5)
_cell_angle_beta                 79.142(4)
_cell_angle_gamma                86.695(4)
_cell_volume                     582.859
loop_
_atom_site_label
_atom_site_type_symbol
_atom_site_fract_x
_atom_site_fract_y
_atom_site_fract_z
C4 C 0.0464(7) 0.0754(8) 0.9488(6)
C5 C 0.3306(12) -0.0367(12) 0.9845(10)
C6 C -0.2350(12) 0.1911(11) 0.9187(10)
N1 N 0.2246(10) 0.0469(9) 0.8731(8)
N2 N -0.0586(10) 0.1346(9) 0.8453(8)
C4A C -0.0464(7) -0.0754(8) 1.0512(6)
C5A C -0.3306(12) 0.0367(12) 1.0155(10)
C6A C 0.2350(12) -0.1911(11) 1.0813(10)
N1A N -0.2246(10) -0.0469(9) 1.1269(8)
N2A N 0.0586(10) -0.1346(9) 1.1547(8)
Mn1 Mn 0.65797(8) 0.46703(8) 0.25269(7)
Mn2 Mn 0.32238(8) 0.19107(8) 0.37035(7)
P1 P 0.57321(13) 0.23023(13) 0.59513(11)
O1 O 0.5229(4) 0.2959(4) 0.4458(3)
O2 O 0.4647(4) 0.3139(4) 0.7056(3)
O3 O 0.5603(4) 0.0398(4) 0.6451(3)
O4 O 0.7721(4) 0.2760(4) 0.5772(4)
H1 H 0.7792 0.3601 0.6090
O5 O 0.8455(4) 0.2567(4) 0.2217(4)
O6 O 1.0887(4) 0.1403(4) 0.2918(4)
O7 O 0.9112(4) 0.5479(4) 0.2853(4)
O8 O 1.1601(4) 0.4357(4) 0.3501(4)
O9 O 0.4674(4) 0.3473(4) 0.1635(3)
O10 O 0.3131(4) 0.4017(4) -0.0156(3)
O11 O 0.1712(8) 0.1257(8) 0.5920(5)
H2 H 0.0852 0.0629 0.5971
H3 H 0.2438 0.0599 0.6343
C1 C 0.9820(6) 0.2611(5) 0.2691(5)
C2 C 1.0212(6) 0.4301(5) 0.3055(5)
C3 C 0.4338(5) 0.4273(5) 0.0420(4)
O9A O 0.5326(4) 0.6527(4) -0.1635(3)
O10A O 0.6869(4) 0.5983(4) 0.0156(3)
C3A C 0.5662(5) 0.5727(5) -0.0420(4)
Mn1A Mn 0.34203(8) -0.46703(8) 0.74731(7)
Mn2A Mn 0.67762(8) -0.19107(8) 0.62965(7)
P1A P 0.42679(13) -0.23023(13) 0.40487(11)
O1A O 0.4771(4) -0.2959(4) 0.5542(3)
O2A O 0.5353(4) -0.3139(4) 0.2944(3)
O3A O 0.4397(4) -0.0398(4) 0.3549(3)
O4A O 0.2279(4) -0.2760(4) 0.4228(4)
H1A H 0.2208 -0.3601 0.3910
O5A O 0.1545(4) -0.2567(4) 0.7783(4)
O6A O -0.0887(4) -0.1403(4) 0.7082(4)
O7A O 0.0888(4) -0.5479(4) 0.7147(4)
O8A O -0.1601(4) -0.4357(4) 0.6499(4)
O11A O 0.8288(8) -0.1257(8) 0.4080(5)
H2A H 0.9148 -0.0629 0.4029
H3A H 0.7562 -0.0599 0.3657
C1A C 0.0180(6) -0.2611(5) 0.7309(5)
C2A C -0.0212(6) -0.4301(5) 0.6945(5)
Mn1_2 Mn 0.65797(8) -0.53297(8) 0.25269(7)
Mn1A_2 Mn 0.34203(8) 0.53297(8) -0.25269(7)
Mn1A_3 Mn 0.34203(8) 0.53297(8) 0.74731(7)
Mn2_2 Mn 1.32238(8) 0.19107(8) 0.37035(7)
Mn2A_2 Mn -0.32238(8) -0.19107(8) 0.62965(7)
Mn2A_3 Mn 0.67762(8) 0.80893(8) -0.37035(7)
O2_2 O 0.4647(4) -0.6861(4) 0.7056(3)
O2A_2 O 0.5353(4) 0.6861(4) 0.2944(3)
O6_2 O 0.0887(4) 0.1403(4) 0.2918(4)
O6A_2 O 0.9113(4) -0.1403(4) 0.7082(4)
O8_2 O 0.1601(4) 0.4357(4) 0.3501(4)
O8A_2 O 0.8399(4) -0.4357(4) 0.6499(4)
O9A_2 O 0.5326(4) -0.3473(4) 0.8365(3)
O10_2 O 0.3131(4) -0.5983(4) 0.9844(3)
loop_
_geom_bond_atom_site_label_1
_geom_bond_atom_site_label_2
_geom_bond_site_symmetry_1
_geom_bond_site_symmetry_2
Mn1 O1 1_555 1_555
Mn2 O1 1_555 1_555
P1 O1 1_555 1_555
O2 P1 1_555 1_555
O3 P1 1_555 1_555
O4 P1 1_555 1_555
H1 O4 1_555 1_555
O5 Mn1 1_555 1_555
O6 C1 1_555 1_555
O7 Mn1 1_555 1_555
O8 C2 1_555 1_555
O9 Mn1 1_555 1_555
O10 C3 1_555 1_555
O11 Mn2 1_555 1_555
H2 O11 1_555 1_555
H3 O11 1_555 1_555
C1 O5 1_555 1_555
C2 O7 1_555 1_555
C3 O9 1_555 1_555
C4 N1 1_555 1_555
C5 N1 1_555 1_555
C6 N2 1_555 1_555
N2 C4 1_555 1_555
O9A C3A 1_555 1_555
O10A Mn1 1_555 1_555
C3A C3 1_555 1_555
Mn1A O1A 1_555 1_555
Mn2A O3 1_555 1_555
P1A O1A 1_555 1_555
O1A Mn2A 1_555 1_555
O2A P1A 1_555 1_555
O3A Mn2 1_555 1_555
O4A P1A 1_555 1_555
H1A O4A 1_555 1_555
O5A Mn1A 1_555 1_555
O6A C1A 1_555 1_555
O7A Mn1A 1_555 1_555
O8A C2A 1_555 1_555
O11A Mn2A 1_555 1_555
H2A O11A 1_555 1_555
H3A O11A 1_555 1_555
C1A O5A 1_555 1_555
C2A O7A 1_555 1_555
Mn1_2 O2A 1_555 1_555
Mn1A_2 O10 1_555 1_555
Mn1A_3 O2 1_555 1_555
Mn2_2 O6 1_555 1_555
Mn2A_2 O6A 1_555 1_555
Mn2A_3 O9A 1_555 1_555
O2_2 Mn1A 1_555 1_555
O2A_2 Mn1 1_555 1_555
O6_2 Mn2 1_555 1_555
O6A_2 Mn2A 1_555 1_555
O8_2 Mn2 1_555 1_555
O8A_2 Mn2A 1_555 1_555
O9A_2 Mn1A 1_555 1_555
O10_2 Mn1A 1_555 1_555
C4A C4 1_555 1_555
C5A C6 1_555 1_555
C6A C5 1_555 1_555
N1A C4A 1_555 1_555
N2A C4A 1_555 1_555
Mn2 O9 1_555 1_555
O8 Mn2_2 1_555 1_555
C1 C2 1_555 1_555
O9A Mn1A_2 1_555 1_555
O10A C3A 1_555 1_555
Mn2A O9A_2 1_555 1_555
P1A O3A 1_555 1_555
O8A Mn2A_2 1_555 1_555
C1A C2A 1_555 1_555
C5A N1A 1_555 1_555
C6A N2A 1_555 1_555

#END
