
#######################################################################
#
#                 Cambridge Crystallographic Data Centre
#                                CCDC 
#
#######################################################################
#
# If this CIF has been generated from an entry in the Cambridge 
# Structural Database, then it will include bibliographic, chemical, 
# crystal, experimental, refinement or atomic coordinate data resulting 
# from the CCDC's data processing and validation procedures.
#
#######################################################################

data_VUDJUB
_symmetry_cell_setting           triclinic
_symmetry_space_group_name_H-M   'P -1'
_symmetry_Int_Tables_number      2
_space_group_name_Hall           '-P 1'
loop_
_symmetry_equiv_pos_site_id
_symmetry_equiv_pos_as_xyz
1 x,y,z
2 -x,-y,-z
_cell_length_a                   10.651(1)
_cell_length_b                   10.802(1)
_cell_length_c                   12.528(1)
_cell_angle_alpha                97.671(4)
_cell_angle_beta                 92.238(4)
_cell_angle_gamma                110.803(3)
_cell_volume                     1329.52
loop_
_atom_site_label
_atom_site_type_symbol
_atom_site_fract_x
_atom_site_fract_y
_atom_site_fract_z
C1 C 0.4493(2) 0.0509(3) 0.8419(2)
C2 C 0.4871(2) -0.0309(2) 0.76010(19)
C3 C 0.5711(2) 0.0206(2) 0.6792(2)
H1 H 0.5902 -0.0421 0.6281
C4 C 0.7052(2) 0.1883(2) 0.58205(19)
C5 C 0.7367(3) 0.1045(3) 0.5015(2)
H2 H 0.7033 0.0104 0.5012
C6 C 0.8160(3) 0.1575(3) 0.4223(2)
H3 H 0.8375 0.0998 0.3681
C7 C 0.8645(2) 0.2946(3) 0.4213(2)
H4 H 0.9181 0.3304 0.3659
C8 C 0.8353(2) 0.3794(3) 0.50066(19)
H5 H 0.8690 0.4732 0.4997
C9 C 0.7564(2) 0.3278(2) 0.58223(19)
C10 C 0.7742(2) 0.5335(2) 0.68884(19)
H6 H 0.8334 0.5754 0.6386
C11 C 0.7510(2) 0.6194(2) 0.77600(19)
C12 C 0.6597(2) 0.5713(2) 0.85481(19)
C13 C 0.3477(3) -0.0066(3) 0.9194(2)
H7 H 0.3370 0.0666 0.9689
H8 H 0.3791 -0.0623 0.9611
H9 H 0.2608 -0.0615 0.8788
C14 C 0.4329(2) -0.1773(3) 0.7560(2)
C15 C 0.4286(3) -0.3866(2) 0.6700(2)
H10 H 0.4466 -0.4112 0.7399
H11 H 0.4717 -0.4260 0.6145
H12 H 0.3310 -0.4204 0.6503
C16 C 0.6239(3) 0.6616(3) 0.9406(2)
H13 H 0.5529 0.6071 0.9806
H14 H 0.5914 0.7226 0.9065
H15 H 0.7039 0.7140 0.9906
C17 C 0.8293(3) 0.7618(3) 0.7738(2)
C18 C 0.8929(5) 0.9867(3) 0.8547(3)
H16 H 0.9899 1.0052 0.8555
H17 H 0.8756 1.0408 0.9176
H18 H 0.8610 1.0094 0.7883
C19 C 0.7710(2) 0.3235(2) 0.96704(19)
H19 H 0.6918 0.3259 0.9981
C20 C 0.8810(2) 0.3338(2) 1.0349(2)
H20 H 0.8763 0.3430 1.1109
C21 C 0.9978(2) 0.3309(2) 0.9921(2)
H21 H 1.0747 0.3387 1.0374
C22 C 0.9982(2) 0.3160(2) 0.8802(2)
C23 C 0.8849(2) 0.3069(2) 0.8173(2)
H22 H 0.8873 0.2979 0.7411
C24 C 1.3377(2) 0.2900(2) 0.7335(2)
H23 H 1.3467 0.3024 0.8103
C25 C 1.2168(2) 0.2805(2) 0.6804(2)
C26 C 1.2007(2) 0.2610(3) 0.5681(2)
H24 H 1.1180 0.2522 0.5305
C27 C 1.3084(2) 0.2549(3) 0.5130(2)
H25 H 1.3018 0.2434 0.4362
C28 C 1.4257(2) 0.2656(2) 0.57065(19)
H26 H 1.4990 0.2613 0.5316
N1 N 0.62495(18) 0.1478(2) 0.66882(16)
N2 N 0.72175(19) 0.40228(19) 0.67139(15)
N3 N 0.77155(19) 0.31008(19) 0.85866(16)
N4 N 1.1174(2) 0.3093(2) 0.83363(16)
N5 N 1.1030(2) 0.2889(2) 0.73306(17)
N6 N 1.44177(19) 0.28215(19) 0.68016(16)
O1 O 0.49548(15) 0.17842(16) 0.85375(13)
O2 O 0.59891(16) 0.44666(16) 0.85693(13)
O3 O 0.3550(2) -0.24029(18) 0.81379(15)
O4 O 0.48210(19) -0.24253(17) 0.67765(15)
O5 O 0.89859(19) 0.80348(18) 0.70240(15)
O6 O 0.8221(3) 0.84600(19) 0.85888(18)
Fe1 Fe 0.61011(3) 0.29428(4) 0.76335(3)
N6_2 N 0.44177(19) 0.28215(19) 0.68016(16)
Fe1_2 Fe 1.61011(3) 0.29428(4) 0.76335(3)
loop_
_geom_bond_atom_site_label_1
_geom_bond_atom_site_label_2
_geom_bond_site_symmetry_1
_geom_bond_site_symmetry_2
C1 C2 1_555 1_555
C2 C3 1_555 1_555
C3 H1 1_555 1_555
C4 C5 1_555 1_555
C5 H2 1_555 1_555
C6 C5 1_555 1_555
H3 C6 1_555 1_555
C7 C6 1_555 1_555
H4 C7 1_555 1_555
C8 C7 1_555 1_555
H5 C8 1_555 1_555
C9 C4 1_555 1_555
C10 H6 1_555 1_555
C11 C10 1_555 1_555
C12 C11 1_555 1_555
C13 C1 1_555 1_555
H7 C13 1_555 1_555
H8 C13 1_555 1_555
H9 C13 1_555 1_555
C14 C2 1_555 1_555
C15 H10 1_555 1_555
H11 C15 1_555 1_555
H12 C15 1_555 1_555
C16 C12 1_555 1_555
H13 C16 1_555 1_555
H14 C16 1_555 1_555
H15 C16 1_555 1_555
C17 C11 1_555 1_555
C18 H16 1_555 1_555
H17 C18 1_555 1_555
H18 C18 1_555 1_555
C19 H19 1_555 1_555
C20 C19 1_555 1_555
H20 C20 1_555 1_555
C21 C20 1_555 1_555
H21 C21 1_555 1_555
C22 C21 1_555 1_555
C23 C22 1_555 1_555
H22 C23 1_555 1_555
C24 H23 1_555 1_555
C25 C24 1_555 1_555
C26 C25 1_555 1_555
H24 C26 1_555 1_555
C27 C26 1_555 1_555
H25 C27 1_555 1_555
C28 C27 1_555 1_555
H26 C28 1_555 1_555
N1 C3 1_555 1_555
N2 C9 1_555 1_555
N3 C19 1_555 1_555
N4 C22 1_555 1_555
N5 C25 1_555 1_555
N6 C24 1_555 1_555
O1 C1 1_555 1_555
O2 C12 1_555 1_555
O3 C14 1_555 1_555
O4 C14 1_555 1_555
O5 C17 1_555 1_555
O6 C17 1_555 1_555
Fe1 N1 1_555 1_555
N6_2 Fe1 1_555 1_555
Fe1_2 N6 1_555 1_555
C4 N1 1_555 1_555
C8 C9 1_555 1_555
C10 N2 1_555 1_555
C15 O4 1_555 1_555
C18 O6 1_555 1_555
C23 N3 1_555 1_555
C28 N6 1_555 1_555
N2 Fe1 1_555 1_555
N3 Fe1 1_555 1_555
N4 N5 1_555 1_555
O1 Fe1 1_555 1_555
O2 Fe1 1_555 1_555

#END
