
#######################################################################
#
#                 Cambridge Crystallographic Data Centre
#                                CCDC 
#
#######################################################################
#
# If this CIF has been generated from an entry in the Cambridge 
# Structural Database, then it will include bibliographic, chemical, 
# crystal, experimental, refinement or atomic coordinate data resulting 
# from the CCDC's data processing and validation procedures.
#
#######################################################################

data_VUDKOU
_symmetry_cell_setting           monoclinic
_symmetry_space_group_name_H-M   'P 21/a'
_symmetry_Int_Tables_number      14
_space_group_name_Hall           '-P 2yab'
loop_
_symmetry_equiv_pos_site_id
_symmetry_equiv_pos_as_xyz
1 x,y,z
2 1/2-x,1/2+y,-z
3 -x,-y,-z
4 1/2+x,1/2-y,z
_cell_length_a                   12.800(4)
_cell_length_b                   14.737(2)
_cell_length_c                   12.833(2)
_cell_angle_alpha                90
_cell_angle_beta                 97.56(2)
_cell_angle_gamma                90
_cell_volume                     2399.69
loop_
_atom_site_label
_atom_site_type_symbol
_atom_site_fract_x
_atom_site_fract_y
_atom_site_fract_z
Cu1 Cu 0.3129(1) 0.1876(1) 0.3876(1)
Cu2 Cu 0.1875(1) -0.1838(1) 0.0645(1)
N1 N 0.0358(4) -0.2164(4) 0.0435(4)
C1 C -0.0005(6) -0.2910(5) -0.0073(5)
C2 C -0.1052(5) -0.3174(6) -0.0088(5)
N2 N -0.1720(4) -0.2673(4) 0.0415(5)
C3 C -0.1341(6) -0.1916(6) 0.0879(6)
C4 C -0.0314(6) -0.1665(5) 0.0912(6)
C5 C -0.1447(6) -0.4054(6) -0.0581(6)
C6 C 0.0751(6) -0.3439(5) -0.0629(6)
C7 C 0.1343(5) 0.3071(5) 0.3597(5)
N3 N 0.1745(4) 0.2349(4) 0.4141(4)
C8 C 0.1111(5) 0.1870(5) 0.4704(5)
C9 C 0.0047(5) 0.2124(5) 0.4692(5)
N4 N -0.0357(4) 0.2838(4) 0.4118(4)
C10 C 0.0294(5) 0.3318(5) 0.3593(5)
C11 C 0.1566(6) 0.1080(5) 0.5329(6)
C12 C -0.0685(6) 0.1583(5) 0.5272(7)
C13 C 0.2253(5) 0.0843(5) 0.1956(5)
N5 N 0.2803(4) 0.0746(4) 0.2914(5)
C14 C 0.2988(5) -0.0103(5) 0.3254(5)
C15 C 0.2637(5) -0.0848(5) 0.2619(6)
N6 N 0.2138(4) -0.0736(4) 0.1659(4)
C16 C 0.1939(6) 0.0128(5) 0.1339(6)
C17 C 0.2844(6) -0.1795(5) 0.2982(6)
C18 C 0.3604(6) -0.0231(6) 0.4297(6)
H1 H -0.1810 -0.1529 0.1202
H2 H -0.0068 -0.1124 0.1283
H3 H -0.0897 -0.4338 -0.0906
H4 H -0.2042 -0.3939 -0.1102
H5 H -0.1654 -0.4448 -0.0049
H6 H 0.0394 -0.3948 -0.0980
H7 H 0.1321 -0.3651 -0.0127
H8 H 0.1024 -0.3057 -0.1136
H9 H 0.1785 0.3422 0.3202
H10 H 0.0031 0.3847 0.3208
H11 H 0.1039 0.0818 0.5705
H12 H 0.1799 0.0634 0.4866
H13 H 0.2152 0.1278 0.5820
H14 H -0.0298 0.1108 0.5663
H15 H -0.0994 0.1974 0.5746
H16 H -0.1231 0.1322 0.4778
H17 H 0.2077 0.1444 0.1702
H18 H 0.1562 0.0235 0.0653
H19 H 0.3207 -0.1790 0.3686
H20 H 0.3271 -0.2095 0.2526
H21 H 0.2188 -0.2112 0.2970
H22 H 0.3684 -0.0868 0.4443
H23 H 0.3244 0.0050 0.4823
H24 H 0.4287 0.0041 0.4304
N4C N 0.4643(4) 0.2162(4) 0.4118(4)
N2C N 0.3280(4) -0.2327(4) 0.0415(5)
Cu1C Cu -0.1871(1) 0.3124(1) 0.3876(1)
Cu2C Cu -0.3125(1) -0.3162(1) 0.0645(1)
Cl1 Cl 0.0821(2) 0.5945(1) 0.2557(2)
O1 O 0.1579(5) 0.6220(5) 0.1936(5)
O2 O -0.0096(5) 0.5644(6) 0.1944(5)
O3 O 0.1228(6) 0.5206(5) 0.3161(6)
O4 O 0.0609(7) 0.6621(6) 0.3212(8)
Cl2 Cl 0.4323(2) 0.4082(2) 0.2208(2)
O5 O 0.5095(5) 0.3403(4) 0.2117(5)
O6 O 0.3458(5) 0.3662(7) 0.2535(7)
O7 O 0.4056(5) 0.4489(5) 0.1210(5)
O8 O 0.4825(8) 0.4705(6) 0.2923(6)
loop_
_geom_bond_atom_site_label_1
_geom_bond_atom_site_label_2
_geom_bond_site_symmetry_1
_geom_bond_site_symmetry_2
Cu1 N3 1_555 1_555
Cu2 N1 1_555 1_555
Cl1 O1 1_555 1_555
Cl2 O5 1_555 1_555
O2 Cl1 1_555 1_555
O3 Cl1 1_555 1_555
O4 Cl1 1_555 1_555
O6 Cl2 1_555 1_555
O7 Cl2 1_555 1_555
O8 Cl2 1_555 1_555
N1 C1 1_555 1_555
C1 C2 1_555 1_555
C2 N2 1_555 1_555
N2 C3 1_555 1_555
C3 C4 1_555 1_555
C4 N1 1_555 1_555
C5 C2 1_555 1_555
C6 C1 1_555 1_555
C7 N3 1_555 1_555
N3 C8 1_555 1_555
C8 C9 1_555 1_555
C9 N4 1_555 1_555
N4 C10 1_555 1_555
C10 C7 1_555 1_555
C11 C8 1_555 1_555
C12 C9 1_555 1_555
C13 N5 1_555 1_555
N5 Cu1 1_555 1_555
C14 N5 1_555 1_555
C15 C14 1_555 1_555
N6 Cu2 1_555 1_555
C16 C13 1_555 1_555
C17 C15 1_555 1_555
C18 C14 1_555 1_555
H1 C3 1_555 1_555
H2 C4 1_555 1_555
H3 C5 1_555 1_555
H4 C5 1_555 1_555
H5 C5 1_555 1_555
H6 C6 1_555 1_555
H7 C6 1_555 1_555
H8 C6 1_555 1_555
H9 C7 1_555 1_555
H10 C10 1_555 1_555
H11 C11 1_555 1_555
H12 C11 1_555 1_555
H13 C11 1_555 1_555
H14 C12 1_555 1_555
H15 C12 1_555 1_555
H16 C12 1_555 1_555
H17 C13 1_555 1_555
H18 C16 1_555 1_555
H19 C17 1_555 1_555
H20 C17 1_555 1_555
H21 C17 1_555 1_555
H22 C18 1_555 1_555
H23 C18 1_555 1_555
H24 C18 1_555 1_555
N4C Cu1 1_555 1_555
N2C Cu2 1_555 1_555
Cu1C N4 1_555 1_555
Cu2C N2 1_555 1_555
C15 N6 1_555 1_555
N6 C16 1_555 1_555

#END
