
#######################################################################
#
#                 Cambridge Crystallographic Data Centre
#                                CCDC 
#
#######################################################################
#
# If this CIF has been generated from an entry in the Cambridge 
# Structural Database, then it will include bibliographic, chemical, 
# crystal, experimental, refinement or atomic coordinate data resulting 
# from the CCDC's data processing and validation procedures.
#
#######################################################################

data_VUDKUB
_symmetry_cell_setting           orthorhombic
_symmetry_space_group_name_H-M   'P m m a'
_symmetry_Int_Tables_number      51
_space_group_name_Hall           '-P 2a 2a'
loop_
_symmetry_equiv_pos_site_id
_symmetry_equiv_pos_as_xyz
1 x,y,z
2 1/2-x,-y,z
3 -x,y,-z
4 1/2+x,-y,-z
5 -x,-y,-z
6 1/2+x,y,-z
7 x,-y,z
8 1/2-x,y,z
_cell_length_a                   6.7715(4)
_cell_length_b                   15.2581(5)
_cell_length_c                   14.6406(7)
_cell_angle_alpha                90
_cell_angle_beta                 90
_cell_angle_gamma                90
_cell_volume                     1512.67
loop_
_atom_site_label
_atom_site_type_symbol
_atom_site_fract_x
_atom_site_fract_y
_atom_site_fract_z
Ag2 Ag 0.5000 0.1080(2) 0.5000
I1 I 0.7500 0.0000 0.3843(2)
I2 I 0.7500 0.1971(3) 0.6172(3)
Ag2A Ag 1.0000 -0.1080(2) 0.5000
Ag2D Ag 0.5000 -0.1080(2) 0.5000
Ag2E Ag 1.0000 0.1080(2) 0.5000
Ag2E_2 Ag 0.0000 0.1080(2) 0.5000
I1B I 0.2500 0.0000 0.6157(2)
I1B_2 I 1.2500 0.0000 0.6157(2)
I2B I 0.2500 0.1971(3) 0.3828(3)
I2A I 0.7500 -0.1971(3) 0.6172(3)
I2C I 1.2500 -0.1971(3) 0.3828(3)
S1 S 0.2500 0.0000 0.0851(14)
O1 O 0.2500 0.063(4) 0.020(4)
C10 C 0.443(7) 0.0000 0.164(3)
H10 H 0.4429 -0.0556 0.1979
O1A O 0.2500 -0.063(4) 0.020(4)
C10A C 0.057(7) 0.0000 0.164(3)
H10F H 0.4429 0.0556 0.1979
H10A H 0.0571 0.0556 0.1979
H10G H 0.0571 -0.0556 0.1979
Ag1 Ag 0.2500 0.5000 -0.1699(4)
C1 C 0.2500 0.593(4) 0.159(4)
H1 H 0.2500 0.5680 0.2185
C2 C 0.2500 0.682(3) 0.142(3)
H2 H 0.2500 0.7174 0.1959
C3 C 0.2500 0.730(3) 0.061(3)
H3 H 0.2500 0.7925 0.0570
C4 C 0.2500 0.672(3) -0.015(3)
N1 N 0.2500 0.581(2) -0.010(3)
C5 C 0.2500 0.548(3) 0.081(3)
C6 C 0.2500 0.639(3) -0.183(3)
N2 N 0.2500 0.692(2) -0.107(2)
C7 C 0.2500 0.781(3) -0.139(3)
H4 H 0.2500 0.8320 -0.1018
C8 C 0.2500 0.779(3) -0.228(3)
H5 H 0.2500 0.8289 -0.2672
N3 N 0.2500 0.689(3) -0.256(3)
C9 C 0.2500 0.657(3) -0.343(3)
H6 H 0.2491 0.5926 -0.3414
H7 H 0.3677 0.6776 -0.3757
C1A C 0.2500 0.407(4) 0.159(4)
H1A H 0.2500 0.4320 0.2185
C2A C 0.2500 0.318(3) 0.142(3)
H2A H 0.2500 0.2826 0.1959
C3A C 0.2500 0.270(3) 0.061(3)
H3A H 0.2500 0.2075 0.0570
C4A C 0.2500 0.328(3) -0.015(3)
N1A N 0.2500 0.419(2) -0.010(3)
C5A C 0.2500 0.452(3) 0.081(3)
C6A C 0.2500 0.361(3) -0.183(3)
N2A N 0.2500 0.308(2) -0.107(2)
C7A C 0.2500 0.219(3) -0.139(3)
H4A H 0.2500 0.1680 -0.1018
C8A C 0.2500 0.221(3) -0.228(3)
H5A H 0.2500 0.1711 -0.2672
N3A N 0.2500 0.311(3) -0.256(3)
C9A C 0.2500 0.343(3) -0.343(3)
H6A H 0.2509 0.4074 -0.3414
H7A H 0.1323 0.3224 -0.3757
H7F H 0.3677 0.3224 -0.3757
H7G H 0.1323 0.6776 -0.3757
H8? H 0.4249 0.0486 0.2072
H9? H 0.5689 0.0069 0.1322
H11? H 0.1314 0.3231 -0.3755
loop_
_geom_bond_atom_site_label_1
_geom_bond_atom_site_label_2
_geom_bond_site_symmetry_1
_geom_bond_site_symmetry_2
Ag1 C6 1_555 1_555
Ag2 I1 1_555 1_555
I1 Ag2A 1_555 1_555
I2 Ag2 1_555 1_555
C1 H1 1_555 1_555
C2 C1 1_555 1_555
H2 C2 1_555 1_555
C3 C2 1_555 1_555
H3 C3 1_555 1_555
C4 C3 1_555 1_555
N1 C4 1_555 1_555
C5 C1 1_555 1_555
C6 N2 1_555 1_555
N2 C4 1_555 1_555
C7 N2 1_555 1_555
H4 C7 1_555 1_555
C8 C7 1_555 1_555
H5 C8 1_555 1_555
N3 C6 1_555 1_555
C9 N3 1_555 1_555
H6 C9 1_555 1_555
H7 C9 1_555 1_555
S1 O1 1_555 1_555
C10 S1 1_555 1_555
H10 C10 1_555 1_555
Ag2A I1B_2 1_555 1_555
Ag2D I1 1_555 1_555
Ag2E I1 1_555 1_555
Ag2E_2 I1B 1_555 1_555
I1B Ag2 1_555 1_555
I1B_2 Ag2E 1_555 1_555
I2B Ag2 1_555 1_555
I2A Ag2A 1_555 1_555
I2C Ag2A 1_555 1_555
C1A H1A 1_555 1_555
C2A C1A 1_555 1_555
H2A C2A 1_555 1_555
C3A C2A 1_555 1_555
H3A C3A 1_555 1_555
C4A C3A 1_555 1_555
N1A C4A 1_555 1_555
C5A C5 1_555 1_555
C6A Ag1 1_555 1_555
N2A C4A 1_555 1_555
C7A N2A 1_555 1_555
H4A C7A 1_555 1_555
C8A C7A 1_555 1_555
H5A C8A 1_555 1_555
N3A C6A 1_555 1_555
C9A N3A 1_555 1_555
H6A C9A 1_555 1_555
H7A C9A 1_555 1_555
H7F C9A 1_555 1_555
H7G C9 1_555 1_555
O1A S1 1_555 1_555
C10A S1 1_555 1_555
H10F C10 1_555 1_555
H10A C10A 1_555 1_555
H10G C10A 1_555 1_555
I2 Ag2E 1_555 1_555
N1 C5 1_555 1_555
C8 N3 1_555 1_555
Ag2D I1B 1_555 1_555
Ag2D I2A 1_555 1_555
Ag2E_2 I2B 1_555 1_555
C1A C5A 1_555 1_555
N1A C5A 1_555 1_555
C6A N2A 1_555 1_555
C8A N3A 1_555 1_555

#END
