
#######################################################################
#
#                 Cambridge Crystallographic Data Centre
#                                CCDC 
#
#######################################################################
#
# If this CIF has been generated from an entry in the Cambridge 
# Structural Database, then it will include bibliographic, chemical, 
# crystal, experimental, refinement or atomic coordinate data resulting 
# from the CCDC's data processing and validation procedures.
#
#######################################################################

data_VUDPOA
_symmetry_cell_setting           monoclinic
_symmetry_space_group_name_H-M   'C 2/c'
_symmetry_Int_Tables_number      15
_space_group_name_Hall           '-C 2yn'
loop_
_symmetry_equiv_pos_site_id
_symmetry_equiv_pos_as_xyz
1 x,y,z
2 -x,y,1/2-z
3 1/2+x,1/2+y,z
4 1/2-x,1/2+y,1/2-z
5 -x,-y,-z
6 x,-y,1/2+z
7 1/2-x,1/2-y,-z
8 1/2+x,1/2-y,1/2+z
_cell_length_a                   34.959(5)
_cell_length_b                   8.273(4)
_cell_length_c                   11.692(2)
_cell_angle_alpha                90
_cell_angle_beta                 109.069(13)
_cell_angle_gamma                90
_cell_volume                     3195.95
loop_
_atom_site_label
_atom_site_type_symbol
_atom_site_fract_x
_atom_site_fract_y
_atom_site_fract_z
K1 K 0.03118(3) 0.23063(13) 0.13735(8)
O1 O 0.11255(7) 0.3542(3) 0.18764(18)
O2 O 0.04641(8) 0.6861(4) -0.1225(3)
O3 O 0.05827(12) 0.0080(6) 0.0032(4)
H1 H 0.0447(16) -0.043(8) 0.042(5)
H2 H 0.0389(13) 0.049(9) -0.056(4)
O4 O -0.01011(11) 0.3355(5) -0.1248(4)
H3 H -0.0262(17) 0.288(6) -0.094(6)
H4 H 0.0005(19) 0.256(4) -0.150(6)
O5 O 0.0000 -0.0302(6) 0.2500
N1 N 0.07089(9) 0.5265(4) 0.0491(3)
N2 N 0.10522(7) 0.5443(3) -0.0832(2)
H5 H 0.1110 0.5728 -0.1465
C1 C 0.10345(10) 0.4355(4) 0.0932(3)
C2 C 0.07247(10) 0.5927(5) -0.0587(3)
C3 C 0.13012(8) 0.4372(4) 0.0099(2)
C4 C 0.17166(9) 0.5114(4) 0.0709(3)
C5 C 0.20115(11) 0.4958(6) 0.0174(4)
H6 H 0.1957 0.4341 -0.0526
C6 C 0.23826(15) 0.5678(8) 0.0637(6)
H7 H 0.2574 0.5577 0.0244
C7 C 0.24671(17) 0.6533(9) 0.1668(6)
H8 H 0.2720 0.7014 0.1994
C8 C 0.2190(2) 0.6701(7) 0.2237(4)
H9 H 0.2253 0.7287 0.2954
C9 C 0.18064(14) 0.5991(6) 0.1746(3)
H10 H 0.1614 0.6120 0.2131
C10 C 0.13339(9) 0.2680(4) -0.0358(2)
C11 C 0.11492(12) 0.2234(5) -0.1543(3)
H11 H 0.0989 0.2973 -0.2092
C12 C 0.12010(15) 0.0675(6) -0.1925(4)
H12 H 0.1078 0.0385 -0.2730
C13 C 0.14295(15) -0.0420(6) -0.1129(5)
H13 H 0.1466 -0.1450 -0.1395
C14 C 0.16050(14) -0.0023(5) 0.0046(4)
H14 H 0.1755 -0.0787 0.0593
C15 C 0.15608(11) 0.1524(5) 0.0438(3)
H15 H 0.1685 0.1793 0.1247
K1D K -0.03118(3) 0.76937(13) -0.13735(8)
K1E K 0.03118(3) 0.76937(13) -0.36265(8)
K1A K -0.03118(3) 0.23063(13) 0.36265(8)
O1D O -0.11255(7) 0.6458(3) -0.18764(18)
O2D O -0.04641(8) 0.3139(4) 0.1225(3)
O2E O 0.04641(8) 0.3139(4) 0.3775(3)
O2A O -0.04641(8) 0.6861(4) -0.3775(3)
O3D O -0.05827(12) 0.9920(6) -0.0032(4)
H1D H -0.0447(16) 1.043(8) -0.042(5)
H2D H -0.0389(13) 0.951(9) 0.056(4)
O4D O 0.01011(11) 0.6645(5) 0.1248(4)
H3D H 0.0262(17) 0.712(6) 0.094(6)
H4D H -0.0005(19) 0.744(4) 0.150(6)
O5D O 0.0000 1.0302(6) -0.2500
N1D N -0.07089(9) 0.4735(4) -0.0491(3)
N2D N -0.10522(7) 0.4557(3) 0.0832(2)
H5D H -0.1110 0.4272 0.1465
C1D C -0.10345(10) 0.5645(4) -0.0932(3)
C2D C -0.07247(10) 0.4073(5) 0.0587(3)
C3D C -0.13012(8) 0.5628(4) -0.0099(2)
C4D C -0.17166(9) 0.4886(4) -0.0709(3)
C5D C -0.20115(11) 0.5042(6) -0.0174(4)
H6D H -0.1957 0.5659 0.0526
C6D C -0.23826(15) 0.4322(8) -0.0637(6)
H7D H -0.2574 0.4423 -0.0244
C7D C -0.24671(17) 0.3467(9) -0.1668(6)
H8D H -0.2720 0.2986 -0.1994
C8D C -0.2190(2) 0.3299(7) -0.2237(4)
H9D H -0.2253 0.2713 -0.2954
C9D C -0.18064(14) 0.4009(6) -0.1746(3)
H10D H -0.1614 0.3880 -0.2131
C10D C -0.13339(9) 0.7320(4) 0.0358(2)
C11D C -0.11492(12) 0.7766(5) 0.1543(3)
H11D H -0.0989 0.7027 0.2092
C12D C -0.12010(15) 0.9325(6) 0.1925(4)
H12D H -0.1078 0.9615 0.2730
C13D C -0.14295(15) 1.0420(6) 0.1129(5)
H13D H -0.1466 1.1450 0.1395
C14D C -0.16050(14) 1.0023(5) -0.0046(4)
H14D H -0.1755 1.0787 -0.0593
C15D C -0.15608(11) 0.8476(5) -0.0438(3)
H15D H -0.1685 0.8207 -0.1247
loop_
_geom_bond_atom_site_label_1
_geom_bond_atom_site_label_2
_geom_bond_site_symmetry_1
_geom_bond_site_symmetry_2
K1 O1 1_555 1_555
O1 C1 1_555 1_555
O2 C2 1_555 1_555
O3 K1 1_555 1_555
H1 O3 1_555 1_555
H2 O3 1_555 1_555
O4 K1 1_555 1_555
H3 O4 1_555 1_555
H4 O4 1_555 1_555
O5 K1 1_555 1_555
N1 C1 1_555 1_555
N2 H5 1_555 1_555
C1 C3 1_555 1_555
C2 N1 1_555 1_555
C3 N2 1_555 1_555
C4 C3 1_555 1_555
C5 C4 1_555 1_555
H6 C5 1_555 1_555
C6 C5 1_555 1_555
H7 C6 1_555 1_555
C7 C6 1_555 1_555
H8 C7 1_555 1_555
C8 C7 1_555 1_555
H9 C8 1_555 1_555
C9 C4 1_555 1_555
H10 C9 1_555 1_555
C10 C3 1_555 1_555
C11 C10 1_555 1_555
H11 C11 1_555 1_555
C12 C11 1_555 1_555
H12 C12 1_555 1_555
C13 C12 1_555 1_555
H13 C13 1_555 1_555
C14 C13 1_555 1_555
H14 C14 1_555 1_555
C15 C10 1_555 1_555
H15 C15 1_555 1_555
K1D O2 1_555 1_555
K1E O2 1_555 1_555
K1A O5 1_555 1_555
O1D K1D 1_555 1_555
O2D K1 1_555 1_555
O2E K1 1_555 1_555
O2A K1D 1_555 1_555
O3D K1D 1_555 1_555
H1D O3D 1_555 1_555
H2D O3D 1_555 1_555
O4D K1D 1_555 1_555
H3D O4D 1_555 1_555
H4D O4D 1_555 1_555
O5D K1D 1_555 1_555
N1D C1D 1_555 1_555
N2D H5D 1_555 1_555
C1D O1D 1_555 1_555
C2D O2D 1_555 1_555
C3D N2D 1_555 1_555
C4D C3D 1_555 1_555
C5D C4D 1_555 1_555
H6D C5D 1_555 1_555
C6D C5D 1_555 1_555
H7D C6D 1_555 1_555
C7D C6D 1_555 1_555
H8D C7D 1_555 1_555
C8D C7D 1_555 1_555
H9D C8D 1_555 1_555
C9D C4D 1_555 1_555
H10D C9D 1_555 1_555
C10D C3D 1_555 1_555
C11D C10D 1_555 1_555
H11D C11D 1_555 1_555
C12D C11D 1_555 1_555
H12D C12D 1_555 1_555
C13D C12D 1_555 1_555
H13D C13D 1_555 1_555
C14D C13D 1_555 1_555
H14D C14D 1_555 1_555
C15D C10D 1_555 1_555
H15D C15D 1_555 1_555
N2 C2 1_555 1_555
C8 C9 1_555 1_555
C14 C15 1_555 1_555
K1E O2A 1_555 1_555
K1E O5D 1_555 1_555
K1A O2D 1_555 1_555
K1A O2E 1_555 1_555
N1D C2D 1_555 1_555
N2D C2D 1_555 1_555
C1D C3D 1_555 1_555
C8D C9D 1_555 1_555
C14D C15D 1_555 1_555

#END
