
#######################################################################
#
#                 Cambridge Crystallographic Data Centre
#                                CCDC 
#
#######################################################################
#
# If this CIF has been generated from an entry in the Cambridge 
# Structural Database, then it will include bibliographic, chemical, 
# crystal, experimental, refinement or atomic coordinate data resulting 
# from the CCDC's data processing and validation procedures.
#
#######################################################################

data_VUDPIV
_symmetry_cell_setting           orthorhombic
_symmetry_space_group_name_H-M   'P b c n'
_symmetry_Int_Tables_number      60
_space_group_name_Hall           '-P 2n 2ab'
loop_
_symmetry_equiv_pos_site_id
_symmetry_equiv_pos_as_xyz
1 x,y,z
2 1/2-x,1/2-y,1/2+z
3 1/2+x,1/2-y,-z
4 -x,y,1/2-z
5 -x,-y,-z
6 1/2+x,1/2+y,1/2-z
7 1/2-x,1/2+y,z
8 x,-y,1/2+z
_cell_length_a                   13.593
_cell_length_b                   15.407
_cell_length_c                   30.600
_cell_angle_alpha                90
_cell_angle_beta                 90
_cell_angle_gamma                90
_cell_volume                     6408.48
loop_
_atom_site_label
_atom_site_type_symbol
_atom_site_fract_x
_atom_site_fract_y
_atom_site_fract_z
Zn1 Zn -0.0351 0.0019 0.5495
O1 O 0.05722(15) -0.10107(14) 0.54846(6)
N1 N -0.07756(14) 0.03183(12) 0.61130(6)
O2 O -0.11303(15) 0.09978(12) 0.51995(6)
O3 O -0.13870(14) -0.08401(12) 0.52785(6)
O4 O 0.08644(16) 0.07697(15) 0.54101(6)
C1 C 0.10969(17) -0.12817(15) 0.51802(7)
C2 C -0.05192(17) 0.00618(15) 0.65146(7)
C3 C -0.15607(17) 0.08829(16) 0.61631(7)
C4 C 0.17508(19) -0.20266(17) 0.52827(7)
N2 N -0.11192(14) 0.04482(13) 0.68125(6)
C5 C 0.02826(19) -0.05632(17) 0.66327(8)
H1 H -0.1888 0.1162 0.5936
C6 C -0.17772(18) 0.09662(16) 0.65914(7)
S1 S 0.23355(5) -0.25879(4) 0.487828(18)
C7 C 0.2000(4) -0.2335(3) 0.56784(10)
C8 C -0.11194(19) 0.03470(17) 0.72929(7)
C9 C -0.0004(2) -0.14898(18) 0.65153(9)
H2 H 0.0345 -0.0544 0.6952
C10 C 0.12764(19) -0.0291(2) 0.64477(9)
H3 H -0.2272 0.1306 0.6713
C11 C 0.29230(19) -0.32362(17) 0.52456(8)
H4 H 0.1746 -0.2121 0.5939
C12 C 0.2681(4) -0.3014(3) 0.56556(10)
H5 H -0.0825 -0.0207 0.7367
H6 H -0.1794 0.0340 0.7396
C13 C -0.05601(18) 0.10683(17) 0.75282(8)
H7 H -0.0102 -0.1533 0.6205
H8 H -0.0602 -0.1642 0.6664
H9 H 0.0511 -0.1879 0.6603
H10 H 0.1246 -0.0292 0.6134
H11 H 0.1773 -0.0692 0.6543
H12 H 0.1436 0.0281 0.6549
C14 C 0.36165(17) -0.39278(15) 0.51123(7)
H13 H 0.2942 -0.3286 0.5901
H14 H -0.0706 0.1028 0.7838
H15 H -0.0811 0.1622 0.7426
O2D O 0.11303(15) -0.09978(12) 0.48005(6)
Zn1D Zn 0.0351 -0.0019 0.4505
C13C C 0.05601(18) 0.10683(17) 0.74718(8)
O3B O 0.36130(14) -0.41599(12) 0.47215(6)
O4F O 0.41356(16) -0.42303(15) 0.54101(6)
C8C C 0.11194(19) 0.03470(17) 0.77071(7)
H14C H 0.0706 0.1028 0.7162
H15C H 0.0811 0.1622 0.7574
Zn1B Zn 0.4649 -0.5019 0.4505
Zn1F Zn 0.5351 -0.4981 0.5495
N2C N 0.11192(14) 0.04482(13) 0.81875(6)
H5C H 0.0825 -0.0207 0.7633
H6C H 0.1794 0.0340 0.7604
C2C C 0.05192(17) 0.00618(15) 0.84854(7)
C6C C 0.17772(18) 0.09662(16) 0.84086(7)
N1C N 0.07756(14) 0.03183(12) 0.88870(6)
C5C C -0.02826(19) -0.05632(17) 0.83673(8)
C3C C 0.15607(17) 0.08829(16) 0.88369(7)
H3C H 0.2272 0.1306 0.8287
Zn1C Zn 0.0351 0.0019 0.9505
C9C C 0.0004(2) -0.14898(18) 0.84847(9)
H2C H -0.0345 -0.0544 0.8048
C10C C -0.12764(19) -0.0291(2) 0.85523(9)
H1C H 0.1888 0.1162 0.9064
O1C O -0.05722(15) -0.10107(14) 0.95154(6)
O2C O 0.11303(15) 0.09978(12) 0.98005(6)
O3C O 0.13870(14) -0.08401(12) 0.97215(6)
O4C O -0.08644(16) 0.07697(15) 0.95899(6)
H7C H 0.0102 -0.1533 0.8795
H8C H 0.0602 -0.1642 0.8336
H9C H -0.0511 -0.1879 0.8397
H10C H -0.1246 -0.0292 0.8866
H11C H -0.1773 -0.0692 0.8457
H12C H -0.1436 0.0281 0.8451
C1C C -0.10969(17) -0.12817(15) 0.98198(7)
C4C C -0.17508(19) -0.20266(17) 0.97173(7)
O2G O -0.11303(15) -0.09978(12) 1.01995(6)
S1C S -0.23355(5) -0.25879(4) 1.012172(18)
C7C C -0.2000(4) -0.2335(3) 0.93216(10)
Zn1G Zn -0.0351 -0.0019 1.0495
C11C C -0.29230(19) -0.32362(17) 0.97544(8)
H4C H -0.1746 -0.2121 0.9061
C12C C -0.2681(4) -0.3014(3) 0.93444(10)
C14C C -0.36165(17) -0.39278(15) 0.98877(7)
H13C H -0.2942 -0.3286 0.9099
O3A O -0.36130(14) -0.41599(12) 1.02785(6)
O4E O -0.41356(16) -0.42303(15) 0.95899(6)
Zn1A Zn -0.4649 -0.5019 1.0495
Zn1E Zn -0.5351 -0.4981 0.9505
Zn2 Zn 0.5391 0.0194 0.7020
S2 S 0.23432(4) -0.21569(4) 0.758204(17)
O5 O 0.44612(12) -0.08294(11) 0.70459(5)
N3 N 0.57143(14) 0.03961(13) 0.63856(6)
C15 C 0.19598(16) -0.29346(14) 0.72178(7)
C16 C 0.31381(16) -0.17247(14) 0.72019(7)
N4 N 0.60561(15) 0.04830(16) 0.56857(6)
C17 C 0.37834(16) -0.09799(14) 0.73139(7)
C18 C 0.24230(17) -0.28524(15) 0.68230(7)
H16 H 0.2301 -0.3213 0.6585
C19 C 0.31018(18) -0.21664(15) 0.68150(7)
H17 H 0.3485 -0.2028 0.6573
C20 C 0.6308(2) 0.0263(2) 0.52293(8)
H18 H 0.6893 -0.0097 0.5228
H19 H 0.6459 0.0793 0.5072
C21 C 0.60068(17) -0.00488(17) 0.60352(8)
C22 C 0.55809(18) 0.12400(16) 0.62439(8)
H20 H 0.5379 0.1699 0.6420
C23 C 0.5785(2) 0.12996(19) 0.58158(8)
H21 H 0.5750 0.1795 0.5643
C24 C 0.6266(2) -0.09870(18) 0.60101(9)
H22 H 0.6501 -0.1083 0.5711
C25 C 0.5494(2) -0.0209(2) 0.49941(9)
H23 H 0.5685 -0.0278 0.4691
H24 H 0.5436 -0.0785 0.5119
C26 C 0.5377(2) -0.1567(2) 0.60627(13)
H25 H 0.5158 -0.1550 0.6361
H26 H 0.5550 -0.2151 0.5986
H27 H 0.4859 -0.1367 0.5875
C27 C 0.7113(2) -0.1235(2) 0.63058(9)
H28 H 0.6920 -0.1160 0.6605
H29 H 0.7669 -0.0871 0.6244
H30 H 0.7286 -0.1831 0.6256
O6 O 0.36053(11) -0.05765(10) 0.76636(5)
C28 C 0.12496(16) -0.36188(14) 0.73451(7)
O7 O 0.08631(12) -0.40336(11) 0.70383(5)
O8 O 0.11150(12) -0.37309(10) 0.77492(5)
N3D N 0.42857(14) -0.03961(13) 0.36144(6)
N4D N 0.39439(15) -0.04830(16) 0.43143(6)
C20D C 0.3692(2) -0.0263(2) 0.47707(8)
H18D H 0.3107 0.0097 0.4772
H19D H 0.3541 -0.0793 0.4928
C21D C 0.39932(17) 0.00488(17) 0.39648(8)
C22D C 0.44191(18) -0.12400(16) 0.37561(8)
H20D H 0.4621 -0.1699 0.3580
C23D C 0.4215(2) -0.12996(19) 0.41842(8)
H21D H 0.4250 -0.1795 0.4357
C24D C 0.3734(2) 0.09870(18) 0.39899(9)
H22D H 0.3499 0.1083 0.4289
C25D C 0.4506(2) 0.0209(2) 0.50059(9)
H23D H 0.4315 0.0278 0.5309
H24D H 0.4564 0.0785 0.4881
C26D C 0.4623(2) 0.1567(2) 0.39373(13)
H25D H 0.4842 0.1550 0.3639
H26D H 0.4450 0.2151 0.4014
H27D H 0.5141 0.1367 0.4125
C27D C 0.2887(2) 0.1235(2) 0.36942(9)
H28D H 0.3080 0.1160 0.3395
H29D H 0.2331 0.0871 0.3756
H30D H 0.2714 0.1831 0.3744
Zn2C Zn 0.4609 0.0194 0.7980
O6C O 0.63947(11) -0.05765(10) 0.73364(5)
Zn2D Zn 0.4609 -0.0194 0.2980
Zn2E Zn 0.0391 -0.4806 0.7980
Zn2F Zn -0.0391 -0.4806 0.7020
O7F O 0.41369(12) 0.09664(11) 0.70383(5)
O8E O 0.61150(12) 0.12691(10) 0.72508(5)
Zn2G Zn 0.5391 -0.0194 0.2020
O5G O 0.44612(12) 0.08294(11) 0.20459(5)
S2G S 0.23432(4) 0.21569(4) 0.258204(17)
C15G C 0.19598(16) 0.29346(14) 0.22178(7)
C16G C 0.31381(16) 0.17247(14) 0.22019(7)
C17G C 0.37834(16) 0.09799(14) 0.23139(7)
C18G C 0.24230(17) 0.28524(15) 0.18230(7)
C28G C 0.12496(16) 0.36188(14) 0.23451(7)
C19G C 0.31018(18) 0.21664(15) 0.18150(7)
O6G O 0.36053(11) 0.05765(10) 0.26636(5)
H16G H 0.2301 0.3213 0.1585
H17G H 0.3485 0.2028 0.1573
O7G O 0.08631(12) 0.40336(11) 0.20383(5)
O8G O 0.11150(12) 0.37309(10) 0.27492(5)
Zn2A Zn -0.0391 0.4806 0.2020
Zn2B Zn 0.0391 0.4806 0.2980
O5D O 0.55388(12) 0.08294(11) 0.29541(5)
O7B O 0.58631(12) -0.09664(11) 0.29617(5)
O8A O 0.38850(12) -0.12691(10) 0.27492(5)
loop_
_geom_bond_atom_site_label_1
_geom_bond_atom_site_label_2
_geom_bond_site_symmetry_1
_geom_bond_site_symmetry_2
Zn1 O1 1_555 1_555
O1 C1 1_555 1_555
N1 Zn1 1_555 1_555
O2 Zn1 1_555 1_555
O3 Zn1 1_555 1_555
O4 Zn1 1_555 1_555
C1 C4 1_555 1_555
C2 N1 1_555 1_555
C3 N1 1_555 1_555
C4 S1 1_555 1_555
N2 C2 1_555 1_555
C5 C2 1_555 1_555
H1 C3 1_555 1_555
C6 C3 1_555 1_555
S1 C11 1_555 1_555
C7 C4 1_555 1_555
C8 N2 1_555 1_555
C9 C5 1_555 1_555
H2 C5 1_555 1_555
C10 C5 1_555 1_555
H3 C6 1_555 1_555
C11 C12 1_555 1_555
H4 C7 1_555 1_555
C12 C7 1_555 1_555
H5 C8 1_555 1_555
H6 C8 1_555 1_555
C13 C8 1_555 1_555
H7 C9 1_555 1_555
H8 C9 1_555 1_555
H9 C9 1_555 1_555
H10 C10 1_555 1_555
H11 C10 1_555 1_555
H12 C10 1_555 1_555
C14 C11 1_555 1_555
H13 C12 1_555 1_555
H14 C13 1_555 1_555
H15 C13 1_555 1_555
Zn2 O5 1_555 1_555
S2 C15 1_555 1_555
O5 C17 1_555 1_555
N3 Zn2 1_555 1_555
C15 C18 1_555 1_555
C16 S2 1_555 1_555
N4 C20 1_555 1_555
C17 C16 1_555 1_555
C18 H16 1_555 1_555
C19 C16 1_555 1_555
H17 C19 1_555 1_555
C20 H18 1_555 1_555
H19 C20 1_555 1_555
C21 N3 1_555 1_555
C22 N3 1_555 1_555
H20 C22 1_555 1_555
C23 N4 1_555 1_555
H21 C23 1_555 1_555
C24 C21 1_555 1_555
H22 C24 1_555 1_555
C25 C20 1_555 1_555
H23 C25 1_555 1_555
H24 C25 1_555 1_555
C26 C24 1_555 1_555
H25 C26 1_555 1_555
H26 C26 1_555 1_555
H27 C26 1_555 1_555
C27 C24 1_555 1_555
H28 C27 1_555 1_555
H29 C27 1_555 1_555
H30 C27 1_555 1_555
O6 C17 1_555 1_555
C28 C15 1_555 1_555
O7 C28 1_555 1_555
O8 C28 1_555 1_555
O2D C1 1_555 1_555
Zn1D O2D 1_555 1_555
C13C C13 1_555 1_555
O3B C14 1_555 1_555
O4F C14 1_555 1_555
C8C C13C 1_555 1_555
H14C C13C 1_555 1_555
H15C C13C 1_555 1_555
Zn1B O3B 1_555 1_555
Zn1F O4F 1_555 1_555
N2C C8C 1_555 1_555
H5C C8C 1_555 1_555
H6C C8C 1_555 1_555
C2C N2C 1_555 1_555
C6C N2C 1_555 1_555
N1C C2C 1_555 1_555
C5C C2C 1_555 1_555
C3C C6C 1_555 1_555
H3C C6C 1_555 1_555
Zn1C N1C 1_555 1_555
C9C C5C 1_555 1_555
H2C C5C 1_555 1_555
C10C C5C 1_555 1_555
H1C C3C 1_555 1_555
O1C Zn1C 1_555 1_555
O2C Zn1C 1_555 1_555
O3C Zn1C 1_555 1_555
O4C Zn1C 1_555 1_555
H7C C9C 1_555 1_555
H8C C9C 1_555 1_555
H9C C9C 1_555 1_555
H10C C10C 1_555 1_555
H11C C10C 1_555 1_555
H12C C10C 1_555 1_555
C1C O1C 1_555 1_555
C4C C1C 1_555 1_555
O2G C1C 1_555 1_555
S1C C4C 1_555 1_555
C7C C4C 1_555 1_555
Zn1G O2G 1_555 1_555
C11C S1C 1_555 1_555
H4C C7C 1_555 1_555
C12C C7C 1_555 1_555
C14C C11C 1_555 1_555
H13C C12C 1_555 1_555
O3A C14C 1_555 1_555
O4E C14C 1_555 1_555
Zn1A O3A 1_555 1_555
Zn1E O4E 1_555 1_555
N3D C21D 1_555 1_555
N4D C20D 1_555 1_555
C20D H18D 1_555 1_555
H19D C20D 1_555 1_555
C21D N4D 1_555 1_555
C22D N3D 1_555 1_555
H20D C22D 1_555 1_555
C23D N4D 1_555 1_555
H21D C23D 1_555 1_555
C24D C21D 1_555 1_555
H22D C24D 1_555 1_555
C25D C25 1_555 1_555
H23D C25D 1_555 1_555
H24D C25D 1_555 1_555
C26D C24D 1_555 1_555
H25D C26D 1_555 1_555
H26D C26D 1_555 1_555
H27D C26D 1_555 1_555
C27D C24D 1_555 1_555
H28D C27D 1_555 1_555
H29D C27D 1_555 1_555
H30D C27D 1_555 1_555
Zn2C O6 1_555 1_555
O6C Zn2 1_555 1_555
Zn2D N3D 1_555 1_555
Zn2E O8 1_555 1_555
Zn2F O7 1_555 1_555
O7F Zn2 1_555 1_555
O8E Zn2 1_555 1_555
Zn2G O5G 1_555 1_555
O5G C17G 1_555 1_555
S2G C15G 1_555 1_555
C15G C18G 1_555 1_555
C16G S2G 1_555 1_555
C17G C16G 1_555 1_555
C18G C19G 1_555 1_555
C28G C15G 1_555 1_555
C19G C16G 1_555 1_555
O6G Zn2D 1_555 1_555
H16G C18G 1_555 1_555
H17G C19G 1_555 1_555
O7G C28G 1_555 1_555
O8G C28G 1_555 1_555
Zn2A O7G 1_555 1_555
Zn2B O8G 1_555 1_555
O5D Zn2D 1_555 1_555
O7B Zn2D 1_555 1_555
O8A Zn2D 1_555 1_555
N2 C6 1_555 1_555
N4 C21 1_555 1_555
C18 C19 1_555 1_555
C22 C23 1_555 1_555
N1C C3C 1_555 1_555
C11C C12C 1_555 1_555
C20D C25D 1_555 1_555
C22D C23D 1_555 1_555
C17G O6G 1_555 1_555

#END
