
#######################################################################
#
#                 Cambridge Crystallographic Data Centre
#                                CCDC 
#
#######################################################################
#
# If this CIF has been generated from an entry in the Cambridge 
# Structural Database, then it will include bibliographic, chemical, 
# crystal, experimental, refinement or atomic coordinate data resulting 
# from the CCDC's data processing and validation procedures.
#
#######################################################################

data_VUDPER
_symmetry_cell_setting           monoclinic
_symmetry_space_group_name_H-M   'P 21/n'
_symmetry_Int_Tables_number      14
_space_group_name_Hall           '-P 2yn'
loop_
_symmetry_equiv_pos_site_id
_symmetry_equiv_pos_as_xyz
1 x,y,z
2 1/2-x,1/2+y,1/2-z
3 -x,-y,-z
4 1/2+x,1/2-y,1/2+z
_cell_length_a                   8.588
_cell_length_b                   13.660
_cell_length_c                   12.433
_cell_angle_alpha                90
_cell_angle_beta                 92.08
_cell_angle_gamma                90
_cell_volume                     1457.58
loop_
_atom_site_label
_atom_site_type_symbol
_atom_site_fract_x
_atom_site_fract_y
_atom_site_fract_z
Zn1 Zn 0.14545(3) 0.462403(18) 0.56593(2)
S1 S -0.30887(8) 0.72838(5) 0.75944(5)
O1 O -0.2722(2) 0.91273(14) 0.99576(15)
O2 O -0.4829(2) 0.85784(14) 0.90341(17)
N1 N 0.3238(2) 0.44232(15) 0.67255(16)
O3 O 0.0141(3) 0.55554(15) 0.65724(16)
O4 O -0.2006(2) 0.61157(15) 0.57138(15)
C1 C -0.1057(3) 0.60674(17) 0.6502(2)
C2 C -0.3409(3) 0.85762(17) 0.92977(19)
N2 N 0.4738(3) 0.41005(16) 0.81426(17)
C3 C -0.1353(3) 0.66888(17) 0.74625(19)
C4 C -0.2422(3) 0.78396(17) 0.87628(19)
C5 C -0.0321(3) 0.6905(2) 0.8286(2)
H1 H 0.0675 0.6640 0.8352
C6 C 0.5590(4) 0.4677(2) 0.7472(2)
H2 H 0.6612 0.4886 0.7593
C7 C 0.3316(3) 0.39617(18) 0.7667(2)
C8 C 0.4662(3) 0.4879(2) 0.6613(2)
H3 H 0.4931 0.5264 0.6032
C9 C -0.0922(3) 0.7575(2) 0.9026(2)
H4 H -0.0362 0.7810 0.9626
C10 C 0.2019(4) 0.3400(2) 0.8137(2)
H5 H 0.2455 0.2920 0.8637
H6 H 0.1460 0.3049 0.7565
C11 C 0.5286(4) 0.3777(2) 0.9219(2)
H7 H 0.4614 0.3255 0.9455
H8 H 0.6328 0.3512 0.9171
C12 C 0.5312(9) 0.4538(3) 1.0005(3)
H9 H 0.4895 0.4234 1.0638
H10 H 0.6411 0.4641 1.0176
C13 C 0.0888(5) 0.4032(3) 0.8715(3)
H11 H 0.0446 0.4508 0.8225
H12 H 0.1422 0.4361 0.9303
H13 H 0.0072 0.3631 0.8987
N1B N 0.6762(2) 0.55768(15) 1.32745(16)
N2B N 0.5262(3) 0.58995(16) 1.18574(17)
C6B C 0.4410(4) 0.5323(2) 1.2528(2)
H2B H 0.3388 0.5114 1.2407
C7B C 0.6684(3) 0.60383(18) 1.2333(2)
C8B C 0.5338(3) 0.5121(2) 1.3387(2)
H3B H 0.5069 0.4736 1.3968
C10B C 0.7981(4) 0.6600(2) 1.1863(2)
H5B H 0.7545 0.7080 1.1363
H6B H 0.8540 0.6951 1.2435
C11B C 0.4714(4) 0.6223(2) 1.0781(2)
H7B H 0.5386 0.6745 1.0545
H8B H 0.3672 0.6488 1.0829
C12B C 0.4688(9) 0.5462(3) 0.9995(3)
H9B H 0.5105 0.5766 0.9362
H10B H 0.3589 0.5359 0.9824
C13B C 0.9112(5) 0.5968(3) 1.1285(3)
H11B H 0.9554 0.5492 1.1775
H12B H 0.8578 0.5639 1.0697
H13B H 0.9928 0.6369 1.1013
Zn1B Zn -0.14545(3) 0.537597(18) 0.43407(2)
S1B S 0.30887(8) 0.27162(5) 0.24056(5)
O1B O 0.2722(2) 0.08727(14) 0.00424(15)
O2B O 0.4829(2) 0.14216(14) 0.09659(17)
O3B O -0.0141(3) 0.44446(15) 0.34276(16)
O4B O 0.2006(2) 0.38843(15) 0.42862(15)
C1B C 0.1057(3) 0.39326(17) 0.3498(2)
C2B C 0.3409(3) 0.14238(17) 0.07023(19)
C3B C 0.1353(3) 0.33112(17) 0.25375(19)
C4B C 0.2422(3) 0.21604(17) 0.12372(19)
C5B C 0.0321(3) 0.3095(2) 0.1714(2)
H1B H -0.0675 0.3360 0.1648
C9B C 0.0922(3) 0.2425(2) 0.0974(2)
H4B H 0.0362 0.2190 0.0374
Zn1A Zn -0.64545(3) 0.962403(18) 0.93407(2)
Zn1A_2 Zn 0.35455(3) -0.037597(18) -0.06593(2)
Zn1B_2 Zn 0.85455(3) 0.537597(18) 1.43407(2)
Zn1C Zn -0.35455(3) 1.037597(18) 1.06593(2)
Zn1C_2 Zn 0.64545(3) 0.037597(18) 0.06593(2)
O1A O -0.2278(2) 0.41273(14) 0.50424(15)
O1C O 0.2278(2) 0.58727(14) 0.49576(15)
O2A O -0.0171(2) 0.35784(14) 0.59659(17)
O2C O 0.0171(2) 0.64216(14) 0.40341(17)
N1B_2 N -0.3238(2) 0.55768(15) 0.32745(16)
loop_
_geom_bond_atom_site_label_1
_geom_bond_atom_site_label_2
_geom_bond_site_symmetry_1
_geom_bond_site_symmetry_2
Zn1 N1 1_555 1_555
S1 C3 1_555 1_555
O1 C2 1_555 1_555
O2 C2 1_555 1_555
N1 C7 1_555 1_555
O3 Zn1 1_555 1_555
O4 C1 1_555 1_555
C1 O3 1_555 1_555
C2 C4 1_555 1_555
N2 C6 1_555 1_555
C3 C1 1_555 1_555
C4 S1 1_555 1_555
C5 C3 1_555 1_555
H1 C5 1_555 1_555
C6 H2 1_555 1_555
C7 N2 1_555 1_555
C8 N1 1_555 1_555
H3 C8 1_555 1_555
C9 C4 1_555 1_555
H4 C9 1_555 1_555
C10 C7 1_555 1_555
H5 C10 1_555 1_555
H6 C10 1_555 1_555
C11 N2 1_555 1_555
H7 C11 1_555 1_555
H8 C11 1_555 1_555
C12 C11 1_555 1_555
H9 C12 1_555 1_555
H10 C12 1_555 1_555
C13 C10 1_555 1_555
H11 C13 1_555 1_555
H12 C13 1_555 1_555
H13 C13 1_555 1_555
N1B C7B 1_555 1_555
N2B C6B 1_555 1_555
C6B H2B 1_555 1_555
C7B N2B 1_555 1_555
C8B N1B 1_555 1_555
H3B C8B 1_555 1_555
C10B C7B 1_555 1_555
H5B C10B 1_555 1_555
H6B C10B 1_555 1_555
C11B N2B 1_555 1_555
H7B C11B 1_555 1_555
H8B C11B 1_555 1_555
C12B C12 1_555 1_555
H9B C12B 1_555 1_555
H10B C12B 1_555 1_555
C13B C10B 1_555 1_555
H11B C13B 1_555 1_555
H12B C13B 1_555 1_555
H13B C13B 1_555 1_555
Zn1B O4 1_555 1_555
S1B C3B 1_555 1_555
O1B C2B 1_555 1_555
O2B C2B 1_555 1_555
O3B Zn1B 1_555 1_555
O4B Zn1 1_555 1_555
C1B O3B 1_555 1_555
C2B C4B 1_555 1_555
C3B C1B 1_555 1_555
C4B S1B 1_555 1_555
C5B C3B 1_555 1_555
H1B C5B 1_555 1_555
C9B C4B 1_555 1_555
H4B C9B 1_555 1_555
Zn1A O2 1_555 1_555
Zn1A_2 O1B 1_555 1_555
Zn1B_2 N1B 1_555 1_555
Zn1C O1 1_555 1_555
Zn1C_2 O2B 1_555 1_555
O1A Zn1B 1_555 1_555
O1C Zn1 1_555 1_555
O2A Zn1 1_555 1_555
O2C Zn1B 1_555 1_555
N1B_2 Zn1B 1_555 1_555
C5 C9 1_555 1_555
C6 C8 1_555 1_555
C6B C8B 1_555 1_555
C11B C12B 1_555 1_555
O4B C1B 1_555 1_555
C5B C9B 1_555 1_555

#END
