
#######################################################################
#
#                 Cambridge Crystallographic Data Centre
#                                CCDC 
#
#######################################################################
#
# If this CIF has been generated from an entry in the Cambridge 
# Structural Database, then it will include bibliographic, chemical, 
# crystal, experimental, refinement or atomic coordinate data resulting 
# from the CCDC's data processing and validation procedures.
#
#######################################################################

data_VUDRES
_symmetry_cell_setting           monoclinic
_symmetry_space_group_name_H-M   'P 21/c'
_symmetry_Int_Tables_number      14
_space_group_name_Hall           '-P 2ybc'
loop_
_symmetry_equiv_pos_site_id
_symmetry_equiv_pos_as_xyz
1 x,y,z
2 -x,1/2+y,1/2-z
3 -x,-y,-z
4 x,1/2-y,1/2+z
_cell_length_a                   6.8720(14)
_cell_length_b                   9.6900(19)
_cell_length_c                   20.852(4)
_cell_angle_alpha                90
_cell_angle_beta                 93.59(3)
_cell_angle_gamma                90
_cell_volume                     1385.8
loop_
_atom_site_label
_atom_site_type_symbol
_atom_site_fract_x
_atom_site_fract_y
_atom_site_fract_z
Cd1 Cd -0.33370(3) 0.41544(2) 0.285215(10)
O1 O -0.4133(3) 0.1883(2) 0.26116(11)
O2 O -0.3434(3) -0.0156(2) 0.21947(11)
O3 O -0.0020(4) 0.3433(3) 0.30218(14)
H1 H 0.038(7) 0.264(5) 0.307(2)
H2 H 0.092(8) 0.387(5) 0.295(2)
O4 O -0.1464(4) 0.5690(3) 0.20767(13)
O5 O -0.3414(5) 0.4165(3) 0.16853(15)
O6 O -0.1951(5) 0.5503(3) 0.10500(14)
N1 N -0.3393(4) 0.3365(3) 0.39243(12)
N2 N -0.2645(4) 0.6011(2) 0.35552(12)
N3 N -0.2273(4) 0.5126(3) 0.15899(13)
N4 N -0.3051(5) 0.1076(3) 0.23405(16)
C1 C -0.3703(5) 0.2067(3) 0.41071(18)
H3 H -0.388(6) 0.134(4) 0.372(2)
C2 C -0.3570(6) 0.1667(4) 0.4749(2)
H4 H -0.377(7) 0.075(4) 0.486(2)
C3 C -0.3150(5) 0.2610(4) 0.52149(17)
H5 H -0.312(6) 0.236(4) 0.566(2)
C4 C -0.2806(5) 0.3987(3) 0.50438(15)
C5 C -0.2314(5) 0.5033(4) 0.55086(16)
H6 H -0.220(6) 0.481(5) 0.595(2)
C6 C -0.1942(5) 0.6336(4) 0.53234(17)
H7 H -0.178(7) 0.698(5) 0.561(2)
C7 C -0.2055(4) 0.6712(3) 0.46631(16)
C8 C -0.1676(5) 0.8056(4) 0.44496(19)
H8 H -0.129(6) 0.872(5) 0.473(2)
C9 C -0.1816(5) 0.8352(4) 0.38140(19)
H9 H -0.158(6) 0.921(4) 0.363(2)
C10 C -0.2309(5) 0.7299(3) 0.33743(17)
H10 H -0.246(5) 0.748(3) 0.2906(16)
C11 C -0.2936(4) 0.4311(3) 0.43854(14)
C12 C -0.2544(4) 0.5712(3) 0.41899(14)
Cd1A Cd -0.66630(3) -0.08456(2) 0.214785(10)
O2A O -0.6566(3) 0.4844(2) 0.28053(11)
loop_
_geom_bond_atom_site_label_1
_geom_bond_atom_site_label_2
_geom_bond_site_symmetry_1
_geom_bond_site_symmetry_2
Cd1 O1 1_555 1_555
O1 N4 1_555 1_555
O2 N4 1_555 1_555
O3 Cd1 1_555 1_555
H1 O3 1_555 1_555
H2 O3 1_555 1_555
O4 Cd1 1_555 1_555
O5 Cd1 1_555 1_555
O6 N3 1_555 1_555
N1 Cd1 1_555 1_555
N2 Cd1 1_555 1_555
N3 O4 1_555 1_555
C1 N1 1_555 1_555
H3 C1 1_555 1_555
C2 C1 1_555 1_555
H4 C2 1_555 1_555
C3 C2 1_555 1_555
H5 C3 1_555 1_555
C4 C3 1_555 1_555
C5 C4 1_555 1_555
H6 C5 1_555 1_555
C6 C5 1_555 1_555
H7 C6 1_555 1_555
C7 C6 1_555 1_555
C8 C7 1_555 1_555
H8 C8 1_555 1_555
C9 C8 1_555 1_555
H9 C9 1_555 1_555
C10 N2 1_555 1_555
H10 C10 1_555 1_555
C11 N1 1_555 1_555
C12 N2 1_555 1_555
Cd1A O2 1_555 1_555
O2A Cd1 1_555 1_555
O5 N3 1_555 1_555
C4 C11 1_555 1_555
C7 C12 1_555 1_555
C9 C10 1_555 1_555
C11 C12 1_555 1_555

#END
