
#######################################################################
#
#                 Cambridge Crystallographic Data Centre
#                                CCDC 
#
#######################################################################
#
# If this CIF has been generated from an entry in the Cambridge 
# Structural Database, then it will include bibliographic, chemical, 
# crystal, experimental, refinement or atomic coordinate data resulting 
# from the CCDC's data processing and validation procedures.
#
#######################################################################

data_VUDTEV
_symmetry_cell_setting           monoclinic
_symmetry_space_group_name_H-M   'P 21/n'
_symmetry_Int_Tables_number      14
_space_group_name_Hall           '-P 2yn'
loop_
_symmetry_equiv_pos_site_id
_symmetry_equiv_pos_as_xyz
1 x,y,z
2 1/2-x,1/2+y,1/2-z
3 -x,-y,-z
4 1/2+x,1/2-y,1/2+z
_cell_length_a                   10.151
_cell_length_b                   13.086
_cell_length_c                   13.062
_cell_angle_alpha                90
_cell_angle_beta                 94.93
_cell_angle_gamma                90
_cell_volume                     1728.68
loop_
_atom_site_label
_atom_site_type_symbol
_atom_site_fract_x
_atom_site_fract_y
_atom_site_fract_z
Zn1 Zn 0.117388(18) 0.968162(14) 0.936137(14)
S1 S 0.17938(4) 1.28294(3) 1.24541(3)
N1 N 0.27761(15) 0.95461(11) 0.85533(11)
O1 O 0.31060(13) 1.40289(12) 1.42561(10)
O2 O 0.00388(13) 1.15270(10) 1.09736(11)
N2 N 0.44432(15) 0.91476(12) 0.76669(12)
O3 O 0.17065(14) 1.10633(11) 1.00554(11)
C1 C 0.50783(18) 0.94155(14) 0.58951(14)
C2 C 0.12014(17) 1.15897(13) 1.07205(13)
C3 C 0.49437(19) 0.97646(16) 0.84567(15)
H1 H 0.5817 0.9973 0.8592
C4 C 0.20971(17) 1.23534(13) 1.12670(13)
O4 O 0.48547(15) 1.44899(11) 1.34325(11)
C5 C 0.32501(17) 1.35081(13) 1.25375(13)
C6 C 0.5214(2) 0.87625(16) 0.68519(15)
H2 H 0.4928 0.8073 0.6675
H3 H 0.6139 0.8732 0.7108
C7 C 0.37670(17) 1.40572(13) 1.34861(13)
C8 C 0.32596(18) 1.27127(14) 1.09541(14)
H4 H 0.3585 1.2534 1.0334
C9 C 0.39138(19) 1.33862(15) 1.16752(14)
H5 H 0.4708 1.3711 1.1576
C10 C 0.39131(18) 1.00077(15) 0.89968(14)
H6 H 0.3959 1.0422 0.9578
C11 C 0.31292(18) 0.90351(14) 0.77351(13)
C12 C 0.4530(2) 1.03855(15) 0.58811(15)
H7 H 0.4211 1.0648 0.6474
C13 C 0.5547(2) 0.90340(15) 0.50070(15)
H8 H 0.5917 0.8384 0.5007
C14 C 0.2008(2) 0.73623(17) 0.7422(2)
H9 H 0.1554 0.7437 0.8033
H10 H 0.2832 0.7015 0.7587
H11 H 0.1472 0.6972 0.6923
C15 C 0.1010(2) 0.8978(2) 0.66076(17)
H12 H 0.0491 0.8558 0.6123
H13 H 0.1234 0.9604 0.6282
H14 H 0.0510 0.9127 0.7181
C16 C 0.2273(2) 0.84114(16) 0.69841(16)
H15 H 0.2774 0.8303 0.6384
N1B N 0.72239(15) 1.04539(11) 0.14467(11)
N2B N 0.55568(15) 1.08524(12) 0.23331(12)
C1B C 0.49217(18) 1.05845(14) 0.41049(14)
C3B C 0.50563(19) 1.02354(16) 0.15433(15)
H1B H 0.4183 1.0027 0.1408
C6B C 0.4786(2) 1.12375(16) 0.31481(15)
H2B H 0.5072 1.1927 0.3325
H3B H 0.3861 1.1268 0.2892
C10B C 0.60869(18) 0.99923(15) 0.10032(14)
H6B H 0.6041 0.9578 0.0422
C11B C 0.68708(18) 1.09649(14) 0.22649(13)
C12B C 0.5470(2) 0.96145(15) 0.41189(15)
H7B H 0.5789 0.9352 0.3526
C13B C 0.4453(2) 1.09660(15) 0.49930(15)
H8B H 0.4083 1.1616 0.4993
C14B C 0.7992(2) 1.26377(17) 0.2578(2)
H9B H 0.8446 1.2563 0.1967
H10B H 0.7168 1.2985 0.2413
H11B H 0.8528 1.3028 0.3077
C15B C 0.8990(2) 1.1022(2) 0.33924(17)
H12B H 0.9509 1.1442 0.3877
H13B H 0.8766 1.0396 0.3718
H14B H 0.9490 1.0873 0.2819
C16B C 0.7727(2) 1.15886(16) 0.30159(16)
H15B H 0.7226 1.1697 0.3616
Zn1B Zn -0.117388(18) 1.031838(14) 1.063863(14)
S1B S -0.17938(4) 0.71706(3) 0.75459(3)
O1B O -0.31060(13) 0.59711(12) 0.57439(10)
O2B O -0.00388(13) 0.84730(10) 0.90264(11)
O3B O -0.17065(14) 0.89367(11) 0.99446(11)
C2B C -0.12014(17) 0.84103(13) 0.92795(13)
C4B C -0.20971(17) 0.76466(13) 0.87330(13)
O4B O -0.48547(15) 0.55101(11) 0.65675(11)
C5B C -0.32501(17) 0.64919(13) 0.74625(13)
C7B C -0.37670(17) 0.59428(13) 0.65139(13)
C8B C -0.32596(18) 0.72873(14) 0.90459(14)
H4B H -0.3585 0.7466 0.9666
C9B C -0.39138(19) 0.66138(15) 0.83248(14)
H5B H -0.4708 0.6289 0.8424
Zn1A Zn -0.617388(18) 0.468162(14) 0.563863(14)
Zn1A_2 Zn 0.382612(18) 1.468162(14) 1.563863(14)
Zn1B_2 Zn 0.882612(18) 1.031838(14) 0.063863(14)
Zn1C Zn -0.382612(18) 0.531838(14) 0.436137(14)
Zn1C_2 Zn 0.617388(18) 1.531838(14) 1.436137(14)
N1B_2 N -0.27761(15) 1.04539(11) 1.14467(11)
O1A O 0.18940(13) 0.90289(12) 1.07439(10)
O1C O -0.18940(13) 1.09711(12) 0.92561(10)
O4A O 0.01453(15) 0.94899(11) 1.15675(11)
O4C O -0.01453(15) 1.05101(11) 0.84325(11)
loop_
_geom_bond_atom_site_label_1
_geom_bond_atom_site_label_2
_geom_bond_site_symmetry_1
_geom_bond_site_symmetry_2
Zn1 N1 1_555 1_555
S1 C4 1_555 1_555
N1 C10 1_555 1_555
O1 C7 1_555 1_555
O2 C2 1_555 1_555
N2 C3 1_555 1_555
O3 Zn1 1_555 1_555
C1 C6 1_555 1_555
C2 O3 1_555 1_555
C3 H1 1_555 1_555
C4 C2 1_555 1_555
O4 C7 1_555 1_555
C5 S1 1_555 1_555
C6 N2 1_555 1_555
H2 C6 1_555 1_555
H3 C6 1_555 1_555
C7 C5 1_555 1_555
C8 C4 1_555 1_555
H4 C8 1_555 1_555
C9 C5 1_555 1_555
H5 C9 1_555 1_555
C10 C3 1_555 1_555
H6 C10 1_555 1_555
C11 N1 1_555 1_555
C12 C1 1_555 1_555
H7 C12 1_555 1_555
C13 C1 1_555 1_555
H8 C13 1_555 1_555
C14 H9 1_555 1_555
H10 C14 1_555 1_555
H11 C14 1_555 1_555
C15 H12 1_555 1_555
H13 C15 1_555 1_555
H14 C15 1_555 1_555
C16 C11 1_555 1_555
H15 C16 1_555 1_555
N1B C10B 1_555 1_555
N2B C3B 1_555 1_555
C1B C6B 1_555 1_555
C3B H1B 1_555 1_555
C6B N2B 1_555 1_555
H2B C6B 1_555 1_555
H3B C6B 1_555 1_555
C10B C3B 1_555 1_555
H6B C10B 1_555 1_555
C11B N1B 1_555 1_555
C12B C13 1_555 1_555
H7B C12B 1_555 1_555
C13B C12 1_555 1_555
H8B C13B 1_555 1_555
C14B H9B 1_555 1_555
H10B C14B 1_555 1_555
H11B C14B 1_555 1_555
C15B H12B 1_555 1_555
H13B C15B 1_555 1_555
H14B C15B 1_555 1_555
C16B C11B 1_555 1_555
H15B C16B 1_555 1_555
Zn1B O2 1_555 1_555
S1B C4B 1_555 1_555
O1B C7B 1_555 1_555
O2B Zn1 1_555 1_555
O3B Zn1B 1_555 1_555
C2B O2B 1_555 1_555
C4B C2B 1_555 1_555
O4B C7B 1_555 1_555
C5B S1B 1_555 1_555
C7B C5B 1_555 1_555
C8B C4B 1_555 1_555
H4B C8B 1_555 1_555
C9B C5B 1_555 1_555
H5B C9B 1_555 1_555
Zn1A O4B 1_555 1_555
Zn1A_2 O1 1_555 1_555
Zn1B_2 N1B 1_555 1_555
Zn1C O1B 1_555 1_555
Zn1C_2 O4 1_555 1_555
N1B_2 Zn1B 1_555 1_555
O1A Zn1 1_555 1_555
O1C Zn1B 1_555 1_555
O4A Zn1B 1_555 1_555
O4C Zn1 1_555 1_555
N2 C11 1_555 1_555
C8 C9 1_555 1_555
C14 C16 1_555 1_555
C15 C16 1_555 1_555
N2B C11B 1_555 1_555
C1B C12B 1_555 1_555
C1B C13B 1_555 1_555
C14B C16B 1_555 1_555
C15B C16B 1_555 1_555
O3B C2B 1_555 1_555
C8B C9B 1_555 1_555

#END
