
#######################################################################
#
#                 Cambridge Crystallographic Data Centre
#                                CCDC 
#
#######################################################################
#
# If this CIF has been generated from an entry in the Cambridge 
# Structural Database, then it will include bibliographic, chemical, 
# crystal, experimental, refinement or atomic coordinate data resulting 
# from the CCDC's data processing and validation procedures.
#
#######################################################################

data_VUDXUO
_symmetry_cell_setting           monoclinic
_symmetry_space_group_name_H-M   'C 2/c'
_symmetry_Int_Tables_number      15
_space_group_name_Hall           '-C 2yn'
loop_
_symmetry_equiv_pos_site_id
_symmetry_equiv_pos_as_xyz
1 x,y,z
2 -x,y,1/2-z
3 1/2+x,1/2+y,z
4 1/2-x,1/2+y,1/2-z
5 -x,-y,-z
6 x,-y,1/2+z
7 1/2-x,1/2-y,-z
8 1/2+x,1/2-y,1/2+z
_cell_length_a                   20.917(4)
_cell_length_b                   21.346(4)
_cell_length_c                   8.2160(16)
_cell_angle_alpha                90
_cell_angle_beta                 104.04(3)
_cell_angle_gamma                90
_cell_volume                     3558.81
loop_
_atom_site_label
_atom_site_type_symbol
_atom_site_fract_x
_atom_site_fract_y
_atom_site_fract_z
Dy1 Dy 0.0000 0.293370(10) -0.7500
O1 O 0.06653(12) 0.21023(11) -0.7887(3)
C1 C 0.09963(18) 0.39894(17) -0.1177(4)
N1 N 0.0618(2) 0.00439(18) -0.6034(5)
C2 C 0.07789(16) 0.10312(15) -0.7305(4)
C3 C 0.0713(2) 0.45681(17) -0.1018(5)
H1 H 0.0353 0.4583 -0.0542
C4 C 0.15370(19) 0.3958(2) -0.1907(4)
C5 C 0.0937(3) 0.5107(2) -0.1520(6)
H2 H 0.0731 0.5486 -0.1414
N2 N 0.25465(18) 0.3325(2) -0.1031(4)
C6 C 0.03589(17) 0.05496(17) -0.7085(4)
C7 C 0.1486(3) 0.5085(2) -0.2208(6)
H3 H 0.1651 0.5453 -0.2550
C8 C 0.1439(2) 0.1022(2) -0.6420(5)
H4 H 0.1713 0.1355 -0.6522
C9 C 0.19154(17) 0.33812(17) -0.2050(4)
C10 C 0.1280(2) 0.0037(2) -0.5213(5)
H5 H 0.1451 -0.0300 -0.4529
C11 C 0.1688(2) 0.0524(2) -0.5399(5)
H6 H 0.2131 0.0517 -0.4834
N3 N 0.1784(3) 0.4524(2) -0.2382(5)
C12 C 0.2947(2) 0.2824(2) -0.1152(5)
H7 H 0.3365 0.2795 -0.0438
O2 O 0.05084(14) 0.35232(12) 0.0789(3)
C13 C 0.07181(16) 0.34339(15) -0.0497(4)
C14 C 0.05644(15) 0.15672(15) -0.8505(4)
C15 C 0.16846(16) 0.29112(18) -0.3213(4)
C16 C 0.2092(2) 0.2401(2) -0.3348(5)
H8 H 0.1938 0.2085 -0.4122
C17 C 0.2727(2) 0.2369(3) -0.2324(6)
H9 H 0.3002 0.2038 -0.2437
O3 O 0.06946(12) 0.29112(11) -0.1211(3)
Dy2 Dy 0.0000 0.212947(10) -0.2500
O4 O 0.05930(11) 0.25333(12) -0.4524(3)
O5 O 0.03343(13) 0.14502(11) -1.0016(3)
O6 O 0.09248(17) 0.13976(16) -0.2657(4)
C18 C 0.10369(16) 0.29444(16) -0.4486(4)
O7 O 0.09641(14) 0.33631(13) -0.5565(3)
H10 H 0.1219(19) 0.144(3) -0.184(4)
H11 H 0.079(3) 0.1128(18) -0.214(6)
Dy1_2 Dy 0.0000 0.293370(10) -1.7500
Dy1_3 Dy 0.0000 0.293370(10) 0.2500
O1A O -0.06653(12) 0.21023(11) -0.7113(3)
C1A C -0.09963(18) 0.39894(17) -1.3823(4)
N1A N -0.0618(2) 0.00439(18) -0.8966(5)
C2A C -0.07789(16) 0.10312(15) -0.7695(4)
C3A C -0.0713(2) 0.45681(17) -1.3982(5)
H1A H -0.0353 0.4583 -1.4458
C4A C -0.15370(19) 0.3958(2) -1.3093(4)
C5A C -0.0937(3) 0.5107(2) -1.3480(6)
H2A H -0.0731 0.5486 -1.3586
N2A N -0.25465(18) 0.3325(2) -1.3969(4)
C6A C -0.03589(17) 0.05496(17) -0.7915(4)
C7A C -0.1486(3) 0.5085(2) -1.2792(6)
H3A H -0.1651 0.5453 -1.2450
C8A C -0.1439(2) 0.1022(2) -0.8580(5)
H4A H -0.1713 0.1355 -0.8478
C9A C -0.19154(17) 0.33812(17) -1.2950(4)
C10A C -0.1280(2) 0.0037(2) -0.9787(5)
H5A H -0.1451 -0.0300 -1.0471
C11A C -0.1688(2) 0.0524(2) -0.9601(5)
H6A H -0.2131 0.0517 -1.0166
N3A N -0.1784(3) 0.4524(2) -1.2618(5)
C12A C -0.2947(2) 0.2824(2) -1.3848(5)
H7A H -0.3365 0.2795 -1.4562
O2_2 O 0.05084(14) 0.35232(12) -0.9211(3)
O2A O -0.05084(14) 0.35232(12) -0.5789(3)
O2A_2 O -0.05084(14) 0.35232(12) -1.5789(3)
C13A C -0.07181(16) 0.34339(15) -1.4503(4)
C14A C -0.05644(15) 0.15672(15) -0.6495(4)
C15A C -0.16846(16) 0.29112(18) -1.1787(4)
C16A C -0.2092(2) 0.2401(2) -1.1652(5)
H8A H -0.1938 0.2085 -1.0878
C17A C -0.2727(2) 0.2369(3) -1.2676(6)
H9A H -0.3002 0.2038 -1.2563
O3A O -0.06946(12) 0.29112(11) -1.3789(3)
O3A_2 O -0.06946(12) 0.29112(11) -0.3789(3)
Dy2_2 Dy 0.0000 0.212947(10) -1.2500
O4A O -0.05930(11) 0.25333(12) -1.0476(3)
O4A_2 O -0.05930(11) 0.25333(12) -0.0476(3)
O5A O -0.03343(13) 0.14502(11) -0.4984(3)
O5_2 O 0.03343(13) 0.14502(11) -0.0016(3)
O6A O -0.09248(17) 0.13976(16) -0.2343(4)
C18A C -0.10369(16) 0.29444(16) -1.0514(4)
O7A O -0.09641(14) 0.33631(13) -0.9435(3)
H10A H -0.1219(19) 0.144(3) -0.316(4)
H11A H -0.079(3) 0.1128(18) -0.286(6)
loop_
_geom_bond_atom_site_label_1
_geom_bond_atom_site_label_2
_geom_bond_site_symmetry_1
_geom_bond_site_symmetry_2
Dy1 O1 1_555 1_555
O1 C14 1_555 1_555
C1 C3 1_555 1_555
N1 C6 1_555 1_555
C2 C6 1_555 1_555
C3 H1 1_555 1_555
C4 C1 1_555 1_555
C5 C3 1_555 1_555
H2 C5 1_555 1_555
N2 C9 1_555 1_555
C6 C6A 1_555 1_555
C7 C5 1_555 1_555
H3 C7 1_555 1_555
C8 C2 1_555 1_555
H4 C8 1_555 1_555
C9 C4 1_555 1_555
C10 N1 1_555 1_555
H5 C10 1_555 1_555
C11 C8 1_555 1_555
H6 C11 1_555 1_555
N3 C4 1_555 1_555
C12 N2 1_555 1_555
H7 C12 1_555 1_555
O2 C13 1_555 1_555
C13 C1 1_555 1_555
C14 C2 1_555 1_555
C15 C9 1_555 1_555
C16 C15 1_555 1_555
H8 C16 1_555 1_555
C17 C12 1_555 1_555
H9 C17 1_555 1_555
O3 C13 1_555 1_555
Dy2 O3 1_555 1_555
O4 Dy1 1_555 1_555
O5 C14 1_555 1_555
O6 Dy2 1_555 1_555
C18 C15 1_555 1_555
O7 Dy1 1_555 1_555
H10 O6 1_555 1_555
H11 O6 1_555 1_555
Dy1_2 O2A_2 1_555 1_555
Dy1_3 O2 1_555 1_555
O1A Dy1 1_555 1_555
C1A C3A 1_555 1_555
N1A C6A 1_555 1_555
C2A C6A 1_555 1_555
C3A H1A 1_555 1_555
C4A C1A 1_555 1_555
C5A C3A 1_555 1_555
H2A C5A 1_555 1_555
N2A C9A 1_555 1_555
C7A C5A 1_555 1_555
H3A C7A 1_555 1_555
C8A C2A 1_555 1_555
H4A C8A 1_555 1_555
C9A C4A 1_555 1_555
C10A N1A 1_555 1_555
H5A C10A 1_555 1_555
C11A C8A 1_555 1_555
H6A C11A 1_555 1_555
N3A C4A 1_555 1_555
C12A N2A 1_555 1_555
H7A C12A 1_555 1_555
O2_2 Dy1 1_555 1_555
O2A Dy1 1_555 1_555
O2A_2 C13A 1_555 1_555
C13A C1A 1_555 1_555
C14A O1A 1_555 1_555
C15A C9A 1_555 1_555
C16A C15A 1_555 1_555
H8A C16A 1_555 1_555
C17A C12A 1_555 1_555
H9A C17A 1_555 1_555
O3A C13A 1_555 1_555
O3A_2 Dy2 1_555 1_555
Dy2_2 O5 1_555 1_555
O4A Dy1 1_555 1_555
O4A_2 Dy2 1_555 1_555
O5A Dy2 1_555 1_555
O5_2 Dy2 1_555 1_555
O6A Dy2 1_555 1_555
C18A C15A 1_555 1_555
O7A Dy1 1_555 1_555
H10A O6A 1_555 1_555
H11A O6A 1_555 1_555
C7 N3 1_555 1_555
C10 C11 1_555 1_555
C16 C17 1_555 1_555
Dy2 O4 1_555 1_555
O4 C18 1_555 1_555
C18 O7 1_555 1_555
Dy1_3 O4A_2 1_555 1_555
C2A C14A 1_555 1_555
C7A N3A 1_555 1_555
C10A C11A 1_555 1_555
C14A O5A 1_555 1_555
C16A C17A 1_555 1_555
O3A Dy2_2 1_555 1_555
Dy2_2 O4A 1_555 1_555
O4A C18A 1_555 1_555
C18A O7A 1_555 1_555

#END
