
#######################################################################
#
#                 Cambridge Crystallographic Data Centre
#                                CCDC 
#
#######################################################################
#
# If this CIF has been generated from an entry in the Cambridge 
# Structural Database, then it will include bibliographic, chemical, 
# crystal, experimental, refinement or atomic coordinate data resulting 
# from the CCDC's data processing and validation procedures.
#
#######################################################################

data_VUDYID
_symmetry_cell_setting           monoclinic
_symmetry_space_group_name_H-M   'P 21/c'
_symmetry_Int_Tables_number      14
_space_group_name_Hall           '-P 2ybc'
loop_
_symmetry_equiv_pos_site_id
_symmetry_equiv_pos_as_xyz
1 x,y,z
2 -x,1/2+y,1/2-z
3 -x,-y,-z
4 x,1/2-y,1/2+z
_cell_length_a                   14.051(3)
_cell_length_b                   11.261(2)
_cell_length_c                   12.944(3)
_cell_angle_alpha                90
_cell_angle_beta                 102.15(3)
_cell_angle_gamma                90
_cell_volume                     2002.23
loop_
_atom_site_label
_atom_site_type_symbol
_atom_site_fract_x
_atom_site_fract_y
_atom_site_fract_z
Nd1 Nd 0.730673(14) 0.205242(16) 0.351145(15)
N1 N 0.5492(3) 0.2096(3) 0.3679(3)
N2 N 0.8321(2) 0.0527(3) 0.4813(3)
C1 C 0.7743(3) 0.1549(3) 0.6189(3)
C2 C 0.8797(3) -0.0233(4) 0.3255(3)
C3 C 0.5589(4) -0.0005(4) 0.3678(4)
C4 C 0.5679(3) 0.4207(4) 0.3716(4)
C5 C 0.5035(4) 0.3134(4) 0.3692(4)
C6 C 0.4978(3) 0.1094(4) 0.3662(4)
C7 C 0.8261(3) 0.0496(3) 0.5824(3)
C8 C 0.8734(3) -0.0380(4) 0.4405(3)
C9 C 0.8621(3) -0.0455(4) 0.6491(3)
H1 H 0.8594 -0.0445 0.7202
C10 C 0.9079(3) -0.1379(4) 0.4999(4)
H2 H 0.9344 -0.2013 0.4696
N3 N 0.9017(4) -0.1406(4) 0.6058(4)
C11 C 0.4051(4) 0.3214(6) 0.3673(6)
H3 H 0.3753 0.3949 0.3694
C12 C 0.3992(4) 0.1077(5) 0.3627(6)
H4 H 0.3655 0.0364 0.3606
N4 N 0.3513(5) 0.2162(5) 0.3623(7)
O1 O 0.7273(3) 0.2199(3) 0.5464(3)
O2 O 0.6457(2) 0.0085(3) 0.3641(3)
O3 O 0.6560(2) 0.4010(3) 0.3695(3)
O5 O 0.7812(3) 0.1680(3) 0.7157(2)
O6 O 0.9195(3) -0.1042(3) 0.2838(3)
O7 O 0.8452(2) 0.0715(3) 0.2811(2)
O8 O 0.8757(3) 0.3162(3) 0.4368(3)
O9 O 0.5146(3) -0.1007(3) 0.3727(4)
O10 O 0.5311(3) 0.5210(3) 0.3754(4)
O12 O 0.6336(3) 0.1548(4) 0.1735(3)
H5 H 0.920(5) 0.356(7) 0.427(8)
H6 H 0.882(8) 0.301(8) 0.499(2)
H7 H 0.679(5) 0.163(10) 0.146(7)
H8 H 0.588(4) 0.152(9) 0.202(7)
Nd1C Nd 0.730673(14) 0.294758(16) 0.851145(15)
O5C O 0.7812(3) 0.3320(3) 0.2157(2)
O4 O 0.9588(3) 0.3081(3) 0.6491(3)
H11 H 1.012(3) 0.288(8) 0.679(8)
H12 H 0.927(7) 0.314(8) 0.693(6)
O11 O 0.9693(3) -0.0579(3) 0.0978(3)
H10 H 0.946(6) -0.057(9) 0.149(5)
H15 H 0.961(7) 0.012(2) 0.087(8)
O13 O 0.6257(4) -0.2746(4) 0.3856(6)
H13 H 0.613(9) -0.301(9) 0.327(3)
H14 H 0.6836(14) -0.267(10) 0.395(9)
O14 O 0.7995(5) -0.4033(5) 0.4131(7)
H9 H 0.788(9) -0.398(10) 0.472(4)
H16 H 0.783(7) -0.470(3) 0.397(8)
loop_
_geom_bond_atom_site_label_1
_geom_bond_atom_site_label_2
_geom_bond_site_symmetry_1
_geom_bond_site_symmetry_2
Nd1 N1 1_555 1_555
N1 C5 1_555 1_555
N2 Nd1 1_555 1_555
C1 C7 1_555 1_555
C2 C8 1_555 1_555
C3 C6 1_555 1_555
C4 C5 1_555 1_555
C5 C11 1_555 1_555
C6 N1 1_555 1_555
C7 N2 1_555 1_555
C8 N2 1_555 1_555
C9 C7 1_555 1_555
H1 C9 1_555 1_555
C10 C8 1_555 1_555
H2 C10 1_555 1_555
N3 C9 1_555 1_555
C11 H3 1_555 1_555
C12 C6 1_555 1_555
H4 C12 1_555 1_555
N4 C11 1_555 1_555
O1 Nd1 1_555 1_555
O2 Nd1 1_555 1_555
O3 Nd1 1_555 1_555
O4 H11 1_555 1_555
O5 C1 1_555 1_555
O6 C2 1_555 1_555
O7 Nd1 1_555 1_555
O8 Nd1 1_555 1_555
O9 C3 1_555 1_555
O10 C4 1_555 1_555
O11 H10 1_555 1_555
O12 Nd1 1_555 1_555
O13 H13 1_555 1_555
O14 H9 1_555 1_555
H5 O8 1_555 1_555
H6 O8 1_555 1_555
H7 O12 1_555 1_555
H8 O12 1_555 1_555
H12 O4 1_555 1_555
H14 O13 1_555 1_555
H15 O11 1_555 1_555
H16 O14 1_555 1_555
Nd1C O5 1_555 1_555
O5C Nd1 1_555 1_555
C1 O1 1_555 1_555
C2 O7 1_555 1_555
C3 O2 1_555 1_555
C4 O3 1_555 1_555
C10 N3 1_555 1_555
C12 N4 1_555 1_555

#END
