
#######################################################################
#
#                 Cambridge Crystallographic Data Centre
#                                CCDC 
#
#######################################################################
#
# If this CIF has been generated from an entry in the Cambridge 
# Structural Database, then it will include bibliographic, chemical, 
# crystal, experimental, refinement or atomic coordinate data resulting 
# from the CCDC's data processing and validation procedures.
#
#######################################################################

data_VUDYAV
_symmetry_cell_setting           monoclinic
_symmetry_space_group_name_H-M   'C 2/c'
_symmetry_Int_Tables_number      15
_space_group_name_Hall           '-C 2yn'
loop_
_symmetry_equiv_pos_site_id
_symmetry_equiv_pos_as_xyz
1 x,y,z
2 -x,y,1/2-z
3 1/2+x,1/2+y,z
4 1/2-x,1/2+y,1/2-z
5 -x,-y,-z
6 x,-y,1/2+z
7 1/2-x,1/2-y,-z
8 1/2+x,1/2-y,1/2+z
_cell_length_a                   20.899(4)
_cell_length_b                   21.434(4)
_cell_length_c                   8.2601(17)
_cell_angle_alpha                90
_cell_angle_beta                 104.04(3)
_cell_angle_gamma                90
_cell_volume                     3589.57
loop_
_atom_site_label
_atom_site_type_symbol
_atom_site_fract_x
_atom_site_fract_y
_atom_site_fract_z
Sm1 Sm 0.0000 0.287060(10) -0.2500
Sm2 Sm 0.0000 0.206640(10) -0.7500
O1 O 0.05906(11) 0.24660(11) -0.4530(3)
O2 O 0.06964(11) 0.20872(11) -0.1213(3)
C1 C 0.07150(14) 0.15671(15) -0.0495(4)
C2 C 0.10382(15) 0.20544(15) -0.4487(4)
O3 O 0.09638(12) 0.16385(12) -0.5564(3)
C3 C 0.09910(17) 0.10092(16) -0.1178(4)
N1 N -0.06176(19) 0.49550(18) -0.8971(5)
C4 C -0.07806(15) 0.39692(14) -0.7700(4)
C5 C 0.0715(2) 0.04321(17) -0.1012(5)
H1 H 0.0359 0.0415 -0.0522
N2 N 0.25489(16) 0.1678(2) -0.1027(4)
C6 C 0.16800(16) 0.20918(17) -0.3221(4)
C7 C 0.15340(19) 0.10414(19) -0.1905(4)
C8 C -0.03557(16) 0.44499(16) -0.7914(4)
C9 C 0.19143(15) 0.16208(17) -0.2056(4)
C10 C 0.0937(2) -0.0106(2) -0.1525(6)
H2 H 0.0730 -0.0483 -0.1418
C11 C 0.20947(19) 0.2598(2) -0.3342(5)
H3 H 0.1945 0.2913 -0.4115
C12 C -0.14394(19) 0.39815(19) -0.8582(4)
H4 H -0.1716 0.3652 -0.8472
C13 C 0.1485(3) -0.0085(2) -0.2223(6)
H5 H 0.1645 -0.0451 -0.2585
C14 C -0.12852(19) 0.49613(18) -0.9798(5)
H6 H -0.1458 0.5297 -1.0477
C15 C -0.16876(19) 0.4475(2) -0.9614(5)
H7 H -0.2129 0.4478 -1.0187
C16 C 0.2730(2) 0.2629(3) -0.2308(6)
H8 H 0.3006 0.2960 -0.2407
C17 C 0.29434(17) 0.2176(2) -0.1159(5)
H9 H 0.3363 0.2204 -0.0452
N3 N 0.1789(2) 0.0479(2) -0.2374(5)
O4 O 0.06630(11) 0.28977(10) -0.7894(3)
O5 O -0.03354(13) 0.35478(11) -0.4988(3)
O6 O 0.05107(14) 0.14750(12) 0.0790(3)
O7 O 0.09271(16) 0.36008(16) -0.2628(4)
C18 C -0.05646(14) 0.34319(14) -0.6489(4)
H10 H 0.1027(19) 0.3830(16) -0.185(3)
H11 H 0.093(2) 0.357(2) -0.3586(19)
Sm1_2 Sm 0.0000 0.287060(10) -1.2500
Sm2_2 Sm 0.0000 0.206640(10) 0.2500
Sm2_3 Sm 0.0000 0.206640(10) -1.7500
O1A O -0.05906(11) 0.24660(11) -0.0470(3)
O1A_2 O -0.05906(11) 0.24660(11) -1.0470(3)
O2A O -0.06964(11) 0.20872(11) -0.3787(3)
O2A_2 O -0.06964(11) 0.20872(11) -1.3787(3)
C1A C -0.07150(14) 0.15671(15) -1.4505(4)
C2A C -0.10382(15) 0.20544(15) -1.0513(4)
O3A O -0.09638(12) 0.16385(12) -0.9436(3)
C3A C -0.09910(17) 0.10092(16) -1.3822(4)
N1A N 0.06176(19) 0.49550(18) -0.6029(5)
C4A C 0.07806(15) 0.39692(14) -0.7300(4)
C5A C -0.0715(2) 0.04321(17) -1.3988(5)
H1A H -0.0359 0.0415 -1.4478
N2A N -0.25489(16) 0.1678(2) -1.3973(4)
C6A C -0.16800(16) 0.20918(17) -1.1779(4)
C7A C -0.15340(19) 0.10414(19) -1.3095(4)
C8A C 0.03557(16) 0.44499(16) -0.7086(4)
C9A C -0.19143(15) 0.16208(17) -1.2944(4)
C10A C -0.0937(2) -0.0106(2) -1.3475(6)
H2A H -0.0730 -0.0483 -1.3582
C11A C -0.20947(19) 0.2598(2) -1.1658(5)
H3A H -0.1945 0.2913 -1.0885
C12A C 0.14394(19) 0.39815(19) -0.6418(4)
H4A H 0.1716 0.3652 -0.6528
C13A C -0.1485(3) -0.0085(2) -1.2777(6)
H5A H -0.1645 -0.0451 -1.2415
C14A C 0.12852(19) 0.49613(18) -0.5202(5)
H6A H 0.1458 0.5297 -0.4523
C15A C 0.16876(19) 0.4475(2) -0.5386(5)
H7A H 0.2129 0.4478 -0.4813
C16A C -0.2730(2) 0.2629(3) -1.2692(6)
H8A H -0.3006 0.2960 -1.2593
C17A C -0.29434(17) 0.2176(2) -1.3841(5)
H9A H -0.3363 0.2204 -1.4548
N3A N -0.1789(2) 0.0479(2) -1.2626(5)
O4A O -0.06630(11) 0.28977(10) -0.7106(3)
O5A O 0.03354(13) 0.35478(11) -0.0012(3)
O5A_2 O 0.03354(13) 0.35478(11) -1.0012(3)
O6A O -0.05107(14) 0.14750(12) -0.5790(3)
O6_2 O 0.05107(14) 0.14750(12) -0.9210(3)
O6A_2 O -0.05107(14) 0.14750(12) -1.5790(3)
O7A O -0.09271(16) 0.36008(16) -0.2372(4)
C18A C 0.05646(14) 0.34319(14) -0.8511(4)
H10A H -0.1027(19) 0.3830(16) -0.315(3)
H11A H -0.093(2) 0.357(2) -0.1414(19)
loop_
_geom_bond_atom_site_label_1
_geom_bond_atom_site_label_2
_geom_bond_site_symmetry_1
_geom_bond_site_symmetry_2
Sm1 O1 1_555 1_555
Sm2 O1 1_555 1_555
O1 C2 1_555 1_555
O2 Sm1 1_555 1_555
C1 O2 1_555 1_555
C2 O3 1_555 1_555
O3 Sm2 1_555 1_555
C3 C1 1_555 1_555
N1 C8 1_555 1_555
C4 C8 1_555 1_555
C5 C3 1_555 1_555
H1 C5 1_555 1_555
N2 C9 1_555 1_555
C6 C2 1_555 1_555
C7 C3 1_555 1_555
C8 C8A 1_555 1_555
C9 C6 1_555 1_555
C10 C5 1_555 1_555
H2 C10 1_555 1_555
C11 C6 1_555 1_555
H3 C11 1_555 1_555
C12 C4 1_555 1_555
H4 C12 1_555 1_555
C13 C10 1_555 1_555
H5 C13 1_555 1_555
C14 N1 1_555 1_555
H6 C14 1_555 1_555
C15 C12 1_555 1_555
H7 C15 1_555 1_555
C16 C11 1_555 1_555
H8 C16 1_555 1_555
C17 N2 1_555 1_555
H9 C17 1_555 1_555
N3 C7 1_555 1_555
O4 Sm2 1_555 1_555
O5 Sm1 1_555 1_555
O6 C1 1_555 1_555
O7 Sm1 1_555 1_555
C18 C4 1_555 1_555
H10 O7 1_555 1_555
H11 O7 1_555 1_555
Sm1_2 O1A_2 1_555 1_555
Sm2_2 O6 1_555 1_555
Sm2_3 O6A_2 1_555 1_555
O1A Sm1 1_555 1_555
O1A_2 Sm2 1_555 1_555
O2A Sm1 1_555 1_555
O2A_2 Sm1_2 1_555 1_555
C1A O2A_2 1_555 1_555
C2A O1A_2 1_555 1_555
O3A Sm2 1_555 1_555
C3A C1A 1_555 1_555
N1A C8A 1_555 1_555
C4A C8A 1_555 1_555
C5A C3A 1_555 1_555
H1A C5A 1_555 1_555
N2A C9A 1_555 1_555
C6A C2A 1_555 1_555
C7A C3A 1_555 1_555
C9A C6A 1_555 1_555
C10A C5A 1_555 1_555
H2A C10A 1_555 1_555
C11A C6A 1_555 1_555
H3A C11A 1_555 1_555
C12A C4A 1_555 1_555
H4A C12A 1_555 1_555
C13A C10A 1_555 1_555
H5A C13A 1_555 1_555
C14A N1A 1_555 1_555
H6A C14A 1_555 1_555
C15A C12A 1_555 1_555
H7A C15A 1_555 1_555
C16A C11A 1_555 1_555
H8A C16A 1_555 1_555
C17A N2A 1_555 1_555
H9A C17A 1_555 1_555
N3A C7A 1_555 1_555
O4A Sm2 1_555 1_555
O5A Sm1 1_555 1_555
O5A_2 Sm1_2 1_555 1_555
O6A Sm2 1_555 1_555
O6_2 Sm2 1_555 1_555
O6A_2 C1A 1_555 1_555
O7A Sm1 1_555 1_555
C18A O4 1_555 1_555
H10A O7A 1_555 1_555
H11A O7A 1_555 1_555
C7 C9 1_555 1_555
C13 N3 1_555 1_555
C14 C15 1_555 1_555
C16 C17 1_555 1_555
O5 C18 1_555 1_555
C18 O4A 1_555 1_555
Sm2_2 O1A 1_555 1_555
C2A O3A 1_555 1_555
C4A C18A 1_555 1_555
C7A C9A 1_555 1_555
C13A N3A 1_555 1_555
C14A C15A 1_555 1_555
C16A C17A 1_555 1_555
O5A_2 C18A 1_555 1_555

#END
