
#######################################################################
#
#                 Cambridge Crystallographic Data Centre
#                                CCDC 
#
#######################################################################
#
# If this CIF has been generated from an entry in the Cambridge 
# Structural Database, then it will include bibliographic, chemical, 
# crystal, experimental, refinement or atomic coordinate data resulting 
# from the CCDC's data processing and validation procedures.
#
#######################################################################

data_VUDZIE
_symmetry_cell_setting           monoclinic
_symmetry_space_group_name_H-M   'C 2/m'
_symmetry_Int_Tables_number      12
_space_group_name_Hall           '-C 2y'
loop_
_symmetry_equiv_pos_site_id
_symmetry_equiv_pos_as_xyz
1 x,y,z
2 -x,y,-z
3 1/2+x,1/2+y,z
4 1/2-x,1/2+y,-z
5 -x,-y,-z
6 x,-y,z
7 1/2-x,1/2-y,-z
8 1/2+x,1/2-y,z
_cell_length_a                   20.1767(11)
_cell_length_b                   18.3953(12)
_cell_length_c                   9.7443(7)
_cell_angle_alpha                90
_cell_angle_beta                 105.393(5)
_cell_angle_gamma                90
_cell_volume                     3486.92
loop_
_atom_site_label
_atom_site_type_symbol
_atom_site_fract_x
_atom_site_fract_y
_atom_site_fract_z
Ni1 Ni 0.22041(5) 0.0000 0.14946(9)
N1 N 0.2007(2) 0.0870(3) 0.0071(5)
N2 N 0.1048(3) 0.1244(3) 0.0898(5)
N3 N 0.1173(3) 0.0000 0.1185(6)
N4 N 0.0292(2) 0.0639(2) 0.1873(5)
O1 O 0.23155(19) 0.0785(2) 0.3069(4)
O2 O 0.3385(2) 0.1146(2) 0.3371(5)
C1 C 0.2421(4) 0.1023(4) -0.0752(7)
H1 H 0.2762 0.0690 -0.0791
C2 C 0.2369(4) 0.1659(5) -0.1560(7)
H2 H 0.2663 0.1740 -0.2137
C3 C 0.1889(4) 0.2150(5) -0.1485(8)
H3 H 0.1854 0.2584 -0.1989
C4 C 0.1452(4) 0.2010(4) -0.0668(7)
H4 H 0.1112 0.2344 -0.0621
C5 C 0.1517(3) 0.1363(3) 0.0097(6)
C6 C 0.0835(3) 0.0613(3) 0.1333(5)
C7 C 0.0076(4) 0.0000 0.2203(7)
C8 C -0.0464(4) 0.0000 0.2993(8)
C9 C -0.0695(4) -0.0648(4) 0.3410(7)
H5 H -0.0530 -0.1090 0.3174
C10 C -0.1184(4) -0.0624(6) 0.4200(9)
H6 H -0.1359 -0.1059 0.4443
C11 C -0.1407(6) 0.0000 0.4615(12)
H7 H -0.1713 0.0000 0.5182
C12 C 0.2798(3) 0.1214(3) 0.3550(5)
C13 C 0.2649(3) 0.1869(3) 0.4321(5)
C14 C 0.3172(3) 0.2286(3) 0.5168(6)
H8 H 0.3627 0.2146 0.5288
C15 C 0.1972(3) 0.2092(3) 0.4160(6)
H9 H 0.1613 0.1821 0.3595
O3 O 0.3266(3) 0.0000 0.1707(6)
H15 H 0.3703(19) 0.0000 0.210(17)
H16 H 0.085(2) 0.163(3) 0.101(5)
H17 H 0.319(9) 0.0000 0.080(3)
Ni1C Ni 0.27959(5) 0.5000 0.85054(9)
N1E N 0.2007(2) -0.0870(3) 0.0071(5)
N2E N 0.1048(3) -0.1244(3) 0.0898(5)
N4E N 0.0292(2) -0.0639(2) 0.1873(5)
O1F O 0.26845(19) 0.4215(2) 0.6931(4)
O1E O 0.23155(19) -0.0785(2) 0.3069(4)
O2F O 0.1615(2) 0.3854(2) 0.6629(5)
C1E C 0.2421(4) -0.1023(4) -0.0752(7)
H1E H 0.2762 -0.0690 -0.0791
C2E C 0.2369(4) -0.1659(5) -0.1560(7)
H2E H 0.2663 -0.1740 -0.2137
C3E C 0.1889(4) -0.2150(5) -0.1485(8)
H3E H 0.1854 -0.2584 -0.1989
C4E C 0.1452(4) -0.2010(4) -0.0668(7)
H4E H 0.1112 -0.2344 -0.0621
C5E C 0.1517(3) -0.1363(3) 0.0097(6)
C6E C 0.0835(3) -0.0613(3) 0.1333(5)
C9E C -0.0695(4) 0.0648(4) 0.3410(7)
H5E H -0.0530 0.1090 0.3174
C10E C -0.1184(4) 0.0624(6) 0.4200(9)
H6E H -0.1359 0.1059 0.4443
C12F C 0.2202(3) 0.3786(3) 0.6450(5)
C13F C 0.2351(3) 0.3131(3) 0.5679(5)
C14F C 0.1828(3) 0.2714(3) 0.4832(6)
H8F H 0.1373 0.2854 0.4712
C15F C 0.3028(3) 0.2908(3) 0.5840(6)
H9F H 0.3387 0.3179 0.6405
H16E H 0.085(2) -0.163(3) 0.101(5)
O4 O 0.0377(5) 0.2624(5) 0.1431(12)
H12 H 0.001(3) 0.281(13) 0.09(2)
H13 H 0.024(4) 0.235(4) 0.207(7)
O5 O 0.4664(7) 0.1823(10) 0.3523(16)
H10 H 0.458(4) 0.170(2) 0.264(3)
H11 H 0.472(3) 0.2270(16) 0.365(4)
O6 O 0.4281(18) 0.0000 0.036(3)
H14 H 0.431(11) 0.0000 0.126(6)
loop_
_geom_bond_atom_site_label_1
_geom_bond_atom_site_label_2
_geom_bond_site_symmetry_1
_geom_bond_site_symmetry_2
Ni1 N1 1_555 1_555
N1 C1 1_555 1_555
N2 C5 1_555 1_555
N3 Ni1 1_555 1_555
N4 C6 1_555 1_555
O1 Ni1 1_555 1_555
O2 C12 1_555 1_555
C1 H1 1_555 1_555
C2 C1 1_555 1_555
H2 C2 1_555 1_555
C3 C2 1_555 1_555
H3 C3 1_555 1_555
C4 C3 1_555 1_555
H4 C4 1_555 1_555
C5 N1 1_555 1_555
C6 N2 1_555 1_555
C7 N4 1_555 1_555
C8 C7 1_555 1_555
C9 C8 1_555 1_555
H5 C9 1_555 1_555
C10 C9 1_555 1_555
H6 C10 1_555 1_555
C11 C10 1_555 1_555
H7 C11 1_555 1_555
C12 O1 1_555 1_555
C13 C12 1_555 1_555
C14 C13 1_555 1_555
H8 C14 1_555 1_555
C15 C13 1_555 1_555
H9 C15 1_555 1_555
O3 Ni1 1_555 1_555
O4 H12 1_555 1_555
O5 H10 1_555 1_555
O6 H14 1_555 1_555
H11 O5 1_555 1_555
H13 O4 1_555 1_555
H15 O3 1_555 1_555
H16 N2 1_555 1_555
H17 O3 1_555 1_555
Ni1C O1F 1_555 1_555
N1E Ni1 1_555 1_555
N2E C5E 1_555 1_555
N4E C7 1_555 1_555
O1F C12F 1_555 1_555
O1E Ni1 1_555 1_555
O2F C12F 1_555 1_555
C1E N1E 1_555 1_555
H1E C1E 1_555 1_555
C2E C1E 1_555 1_555
H2E C2E 1_555 1_555
C3E C2E 1_555 1_555
H3E C3E 1_555 1_555
C4E C3E 1_555 1_555
H4E C4E 1_555 1_555
C5E N1E 1_555 1_555
C6E N3 1_555 1_555
C9E C8 1_555 1_555
H5E C9E 1_555 1_555
C10E C11 1_555 1_555
H6E C10E 1_555 1_555
C12F C13F 1_555 1_555
C13F C14F 1_555 1_555
C14F C15 1_555 1_555
H8F C14F 1_555 1_555
C15F C14 1_555 1_555
H9F C15F 1_555 1_555
H16E N2E 1_555 1_555
N3 C6 1_555 1_555
C4 C5 1_555 1_555
N2E C6E 1_555 1_555
N4E C6E 1_555 1_555
C4E C5E 1_555 1_555
C9E C10E 1_555 1_555
C13F C15F 1_555 1_555

#END
