
#######################################################################
#
#                 Cambridge Crystallographic Data Centre
#                                CCDC 
#
#######################################################################
#
# If this CIF has been generated from an entry in the Cambridge 
# Structural Database, then it will include bibliographic, chemical, 
# crystal, experimental, refinement or atomic coordinate data resulting 
# from the CCDC's data processing and validation procedures.
#
#######################################################################

data_VUFBOO
_symmetry_cell_setting           monoclinic
_symmetry_space_group_name_H-M   'P 21/c'
_symmetry_Int_Tables_number      14
_space_group_name_Hall           '-P 2ybc'
loop_
_symmetry_equiv_pos_site_id
_symmetry_equiv_pos_as_xyz
1 x,y,z
2 -x,1/2+y,1/2-z
3 -x,-y,-z
4 x,1/2-y,1/2+z
_cell_length_a                   11.267(2)
_cell_length_b                   6.963(3)
_cell_length_c                   19.312(2)
_cell_angle_alpha                90
_cell_angle_beta                 102.121(2)
_cell_angle_gamma                90
_cell_volume                     1481.29
loop_
_atom_site_label
_atom_site_type_symbol
_atom_site_fract_x
_atom_site_fract_y
_atom_site_fract_z
Cu1 Cu -0.01979(3) 0.54489(5) 0.811577(16)
Br1 Br 0.42372(3) 0.53634(5) 0.864144(16)
Cl1 Cl 0.41391(7) 0.95425(11) 1.10494(4)
N1 N -0.05933(17) 0.6409(3) 0.89877(10)
N2 N -0.20560(19) 0.5438(3) 0.77428(11)
N3 N 0.0120(2) 0.4227(3) 0.72472(12)
N4 N 0.0137(2) 0.5273(4) 0.67549(13)
N5 N 0.0151(3) 0.6232(4) 0.62676(15)
O1 O 0.15179(16) 0.5496(3) 0.85135(9)
C1 C 0.2056(2) 0.6358(4) 0.90858(13)
C2 C 0.3343(2) 0.6513(4) 0.92594(13)
C3 C 0.3974(2) 0.7451(4) 0.98427(14)
H1 H 0.4817 0.7508 0.9932
C4 C 0.3335(2) 0.8323(4) 1.03028(14)
C5 C 0.2101(2) 0.8207(4) 1.01791(13)
H2 H 0.1686 0.8784 1.0492
C6 C 0.1447(2) 0.7225(4) 0.95838(13)
C7 C 0.0149(2) 0.7158(4) 0.95074(13)
H3 H -0.0175 0.7706 0.9866
C8 C -0.1904(2) 0.6490(4) 0.89637(14)
H4 H -0.2088 0.7531 0.9258
H5 H -0.2179 0.5295 0.9135
C9 C -0.2523(2) 0.6818(4) 0.82006(14)
H6 H -0.3393 0.6655 0.8146
H7 H -0.2371 0.8120 0.8063
C10 C -0.2545(3) 0.3480(4) 0.78136(17)
H8 H -0.2316 0.3071 0.8298
H9 H -0.2219 0.2603 0.7518
H10 H -0.3414 0.3503 0.7671
C11 C -0.2450(3) 0.6054(5) 0.69948(15)
H11 H -0.3318 0.6177 0.6880
H12 H -0.2201 0.5114 0.6690
H13 H -0.2086 0.7269 0.6930
Cu1A Cu 0.01979(3) 0.04489(5) 0.688423(16)
N3A N -0.0120(2) 0.9227(3) 0.77528(12)
loop_
_geom_bond_atom_site_label_1
_geom_bond_atom_site_label_2
_geom_bond_site_symmetry_1
_geom_bond_site_symmetry_2
Cu1 N1 1_555 1_555
Br1 C2 1_555 1_555
Cl1 C4 1_555 1_555
N1 C7 1_555 1_555
N2 Cu1 1_555 1_555
N3 Cu1 1_555 1_555
N4 N3 1_555 1_555
N5 N4 1_555 1_555
O1 Cu1 1_555 1_555
C1 O1 1_555 1_555
C2 C1 1_555 1_555
C3 C2 1_555 1_555
H1 C3 1_555 1_555
C4 C3 1_555 1_555
C5 C4 1_555 1_555
H2 C5 1_555 1_555
C6 C1 1_555 1_555
C7 C6 1_555 1_555
H3 C7 1_555 1_555
C8 N1 1_555 1_555
H4 C8 1_555 1_555
H5 C8 1_555 1_555
C9 N2 1_555 1_555
H6 C9 1_555 1_555
H7 C9 1_555 1_555
C10 N2 1_555 1_555
H8 C10 1_555 1_555
H9 C10 1_555 1_555
H10 C10 1_555 1_555
C11 N2 1_555 1_555
H11 C11 1_555 1_555
H12 C11 1_555 1_555
H13 C11 1_555 1_555
Cu1A N3 1_555 1_555
N3A Cu1 1_555 1_555
C5 C6 1_555 1_555
C8 C9 1_555 1_555

#END
