
#######################################################################
#
#                 Cambridge Crystallographic Data Centre
#                                CCDC 
#
#######################################################################
#
# If this CIF has been generated from an entry in the Cambridge 
# Structural Database, then it will include bibliographic, chemical, 
# crystal, experimental, refinement or atomic coordinate data resulting 
# from the CCDC's data processing and validation procedures.
#
#######################################################################

data_VUFFAE
_symmetry_cell_setting           monoclinic
_symmetry_space_group_name_H-M   'C 2/c'
_symmetry_Int_Tables_number      15
_space_group_name_Hall           '-C 2yn'
loop_
_symmetry_equiv_pos_site_id
_symmetry_equiv_pos_as_xyz
1 x,y,z
2 -x,y,1/2-z
3 1/2+x,1/2+y,z
4 1/2-x,1/2+y,1/2-z
5 -x,-y,-z
6 x,-y,1/2+z
7 1/2-x,1/2-y,-z
8 1/2+x,1/2-y,1/2+z
_cell_length_a                   14.938(7)
_cell_length_b                   13.599(5)
_cell_length_c                   12.180(4)
_cell_angle_alpha                90
_cell_angle_beta                 120.84(3)
_cell_angle_gamma                90
_cell_volume                     2124.41
loop_
_atom_site_label
_atom_site_type_symbol
_atom_site_fract_x
_atom_site_fract_y
_atom_site_fract_z
Zn1 Zn 0.15329(3) 0.18558(3) 0.32915(4)
S1 S 0.32885(8) 0.14991(7) 0.40868(11)
S2 S 0.10458(7) 0.07446(6) 0.43306(10)
C1 C 0.3559(3) 0.1140(2) 0.5584(4)
C2 C 0.3673(4) -0.0702(3) 0.5365(5)
H1 H 0.3780 -0.1249 0.5917
H2 H 0.4218 -0.0689 0.5167
H3 H 0.3010 -0.0770 0.4589
C3 C 0.0119(3) 0.1332(2) 0.4526(4)
C4 C 0.1030(4) 0.1227(3) 0.6926(4)
H4 H 0.0842 0.1415 0.7541
H5 H 0.1647 0.1576 0.7097
H6 H 0.1161 0.0532 0.6985
N1 N 0.3689(2) 0.0206(2) 0.6002(3)
N2 N 0.3876(3) 0.0194(2) 0.7199(4)
N3 N 0.3869(3) 0.1088(2) 0.7534(3)
N4 N 0.3681(2) 0.16992(19) 0.6550(3)
N5 N 0.0186(3) 0.14665(19) 0.5653(3)
N6 N -0.0705(3) 0.1906(2) 0.5457(4)
N7 N -0.1283(3) 0.2047(2) 0.4255(4)
N8 N -0.0802(2) 0.16981(19) 0.3635(3)
Zn1A Zn -0.15329(3) 0.18558(3) 0.17085(4)
Zn1F Zn 0.34671(3) 0.31442(3) 0.67085(4)
Zn1G Zn -0.34671(3) 0.31442(3) -0.17085(4)
S1A S -0.32885(8) 0.14991(7) 0.09132(11)
S2A S -0.10458(7) 0.07446(6) 0.06694(10)
C1A C -0.3559(3) 0.1140(2) -0.0584(4)
C2A C -0.3673(4) -0.0702(3) -0.0365(5)
H1A H -0.3780 -0.1249 -0.0917
H2A H -0.4218 -0.0689 -0.0167
H3A H -0.3010 -0.0770 0.0411
C3A C -0.0119(3) 0.1332(2) 0.0474(4)
C4A C -0.1030(4) 0.1227(3) -0.1926(4)
H4A H -0.0842 0.1415 -0.2541
H5A H -0.1647 0.1576 -0.2097
H6A H -0.1161 0.0532 -0.1985
N1A N -0.3689(2) 0.0206(2) -0.1002(3)
N2A N -0.3876(3) 0.0194(2) -0.2199(4)
N3A N -0.3869(3) 0.1088(2) -0.2534(3)
N4A N -0.3681(2) 0.16992(19) -0.1550(3)
N4F N 0.1319(2) 0.33008(19) 0.3450(3)
N4G N -0.1319(2) 0.33008(19) 0.1550(3)
N5A N -0.0186(3) 0.14665(19) -0.0653(3)
N6A N 0.0705(3) 0.1906(2) -0.0457(4)
N7A N 0.1283(3) 0.2047(2) 0.0745(4)
N8A N 0.0802(2) 0.16981(19) 0.1365(3)
loop_
_geom_bond_atom_site_label_1
_geom_bond_atom_site_label_2
_geom_bond_site_symmetry_1
_geom_bond_site_symmetry_2
Zn1 S1 1_555 1_555
S1 C1 1_555 1_555
S2 Zn1 1_555 1_555
C1 N1 1_555 1_555
C2 H1 1_555 1_555
H2 C2 1_555 1_555
H3 C2 1_555 1_555
C3 S2 1_555 1_555
C4 H4 1_555 1_555
H5 C4 1_555 1_555
H6 C4 1_555 1_555
N1 C2 1_555 1_555
N2 N1 1_555 1_555
N3 N2 1_555 1_555
N4 C1 1_555 1_555
N5 C3 1_555 1_555
N6 N5 1_555 1_555
N7 N6 1_555 1_555
N8 C3 1_555 1_555
Zn1A N8 1_555 1_555
Zn1F N4 1_555 1_555
Zn1G N4A 1_555 1_555
S1A Zn1A 1_555 1_555
S2A Zn1A 1_555 1_555
C1A S1A 1_555 1_555
C2A H1A 1_555 1_555
H2A C2A 1_555 1_555
H3A C2A 1_555 1_555
C3A S2A 1_555 1_555
C4A H4A 1_555 1_555
H5A C4A 1_555 1_555
H6A C4A 1_555 1_555
N1A C1A 1_555 1_555
N2A N1A 1_555 1_555
N3A N2A 1_555 1_555
N4A C1A 1_555 1_555
N4F Zn1 1_555 1_555
N4G Zn1A 1_555 1_555
N5A C3A 1_555 1_555
N6A N5A 1_555 1_555
N7A N6A 1_555 1_555
N8A Zn1 1_555 1_555
C4 N5 1_555 1_555
N3 N4 1_555 1_555
N7 N8 1_555 1_555
C2A N1A 1_555 1_555
C3A N8A 1_555 1_555
C4A N5A 1_555 1_555
N3A N4A 1_555 1_555
N7A N8A 1_555 1_555

#END
