
#######################################################################
#
#                 Cambridge Crystallographic Data Centre
#                                CCDC 
#
#######################################################################
#
# If this CIF has been generated from an entry in the Cambridge 
# Structural Database, then it will include bibliographic, chemical, 
# crystal, experimental, refinement or atomic coordinate data resulting 
# from the CCDC's data processing and validation procedures.
#
#######################################################################

data_VUFHEL
_symmetry_cell_setting           triclinic
_symmetry_space_group_name_H-M   'P -1'
_symmetry_Int_Tables_number      2
_space_group_name_Hall           '-P 1'
loop_
_symmetry_equiv_pos_site_id
_symmetry_equiv_pos_as_xyz
1 x,y,z
2 -x,-y,-z
_cell_length_a                   9.1684(3)
_cell_length_b                   9.6557(3)
_cell_length_c                   14.3787(5)
_cell_angle_alpha                95.2967(17)
_cell_angle_beta                 97.8338(17)
_cell_angle_gamma                92.5755(17)
_cell_volume                     1253.51
loop_
_atom_site_label
_atom_site_type_symbol
_atom_site_fract_x
_atom_site_fract_y
_atom_site_fract_z
Mn1 Mn 0.98927(2) 0.51799(2) 0.17601(2)
S1 S 0.21228(2) 0.65654(2) 0.03108(2)
O1 O 0.09715(7) 0.61002(7) -0.04699(5)
O2 O 0.25585(8) 0.80271(7) 0.03323(6)
O3 O 0.17395(7) 0.61875(8) 0.12130(5)
C1 C 0.37259(10) 0.56561(10) 0.01374(6)
C2 C 0.43837(10) 0.58514(10) -0.06642(7)
H1 H 0.3960 0.6433 -0.1114
C3 C 0.43349(10) 0.48120(10) 0.08006(7)
H2 H 0.3880 0.4688 0.1345
S2 S 0.76373(3) 0.37627(3) 0.32847(2)
O4 O 0.82109(8) 0.42232(8) 0.24541(5)
O5 O 0.76114(10) 0.22600(8) 0.32817(6)
O6 O 0.62635(8) 0.43723(9) 0.34293(6)
C4 C 0.89526(11) 0.44474(10) 0.42577(7)
C5 C 0.86119(11) 0.55398(11) 0.48747(7)
H3 H 0.7664 0.5906 0.4787
C6 C 1.03394(11) 0.39061(11) 0.43807(7)
H4 H 1.0567 0.3160 0.3956
O7 O 0.84638(8) 0.66839(7) 0.12254(5)
C7 C 0.75615(10) 0.74866(10) 0.15075(7)
C8 C 0.70035(12) 0.75532(12) 0.24462(8)
H5 H 0.7833 0.7628 0.2970
H6 H 0.6364 0.6715 0.2491
C9 C 0.6133(2) 0.88534(16) 0.24760(12)
H7 H 0.6670 0.9597 0.2931
H8 H 0.5157 0.8648 0.2669
C10 C 0.59545(12) 0.93072(12) 0.14819(9)
H9 H 0.4922 0.9136 0.1171
H10 H 0.6247 1.0309 0.1492
N1 N 0.69412(10) 0.84434(9) 0.10003(7)
C11 C 0.72020(14) 0.86287(12) 0.00462(8)
H11 H 0.7636 0.9570 0.0027
H12 H 0.6266 0.8499 -0.0379
H13 H 0.7881 0.7942 -0.0154
O8 O 1.06328(8) 0.65847(7) 0.30552(5)
C12 C 1.18612(11) 0.69048(10) 0.35275(7)
C13 C 1.32952(11) 0.62459(12) 0.34124(8)
H14 H 1.3662 0.6499 0.2831
H15 H 1.3172 0.5218 0.3385
C14 C 1.43516(12) 0.68398(12) 0.42896(8)
H16 H 1.5349 0.7050 0.4129
H17 H 1.4425 0.6175 0.4776
C15 C 1.36628(11) 0.81793(11) 0.46386(7)
H18 H 1.3767 0.8304 0.5336
H19 H 1.4120 0.9009 0.4411
N2 N 1.21168(9) 0.79383(9) 0.42243(6)
C16 C 1.10165(13) 0.88505(12) 0.45095(8)
H20 H 1.1044 0.8897 0.5195
H21 H 1.0038 0.8488 0.4199
H22 H 1.1222 0.9785 0.4327
O9 O 1.13733(8) 0.35724(7) 0.21369(5)
C17 C 1.12540(10) 0.22765(10) 0.20846(7)
C18 C 0.99505(11) 0.13331(11) 0.16329(8)
H23 H 0.9810 0.1345 0.0939
H24 H 0.9038 0.1621 0.1875
C19 C 1.03339(12) -0.01134(11) 0.19077(9)
H25 H 1.0080 -0.0824 0.1361
H26 H 0.9795 -0.0371 0.2424
C20 C 1.20009(11) 0.00056(10) 0.22331(8)
H27 H 1.2256 -0.0477 0.2807
H28 H 1.2544 -0.0393 0.1731
N3 N 1.23340(9) 0.15056(9) 0.24300(6)
C21 C 1.37938(12) 0.20709(12) 0.28382(10)
H29 H 1.4006 0.1835 0.3489
H30 H 1.3840 0.3086 0.2833
H31 H 1.4524 0.1674 0.2468
S1A S 0.78772(2) 0.34346(2) -0.03108(2)
O2A O 0.74415(8) 0.19729(7) -0.03323(6)
O3A O 0.82605(7) 0.38125(8) -0.12130(5)
C1A C 0.62741(10) 0.43439(10) -0.01374(6)
C3A C 0.56651(10) 0.51880(10) -0.08006(7)
H2A H 0.6120 0.5312 -0.1345
C2A C 0.56163(10) 0.41486(10) 0.06642(7)
H1A H 0.6040 0.3567 0.1114
O1A O 0.90285(7) 0.38998(7) 0.04699(5)
S2A S 1.23627(3) 0.62373(3) 0.67153(2)
O4A O 1.17891(8) 0.57768(8) 0.75459(5)
O5A O 1.23886(10) 0.77400(8) 0.67183(6)
O6A O 1.37365(8) 0.56277(9) 0.65707(6)
C4A C 1.10474(11) 0.55526(10) 0.57423(7)
C5A C 1.13881(11) 0.44602(11) 0.51253(7)
H3A H 1.2336 0.4094 0.5213
C6A C 0.96606(11) 0.60939(11) 0.56193(7)
H4A H 0.9433 0.6840 0.6044
Mn1A Mn 0.01073(2) 0.48201(2) -0.17601(2)
O7A O 0.15362(8) 0.33161(7) -0.12254(5)
C7A C 0.24385(10) 0.25134(10) -0.15075(7)
C8A C 0.29965(12) 0.24468(12) -0.24462(8)
H5A H 0.2167 0.2372 -0.2970
H6A H 0.3636 0.3285 -0.2491
C9A C 0.3867(2) 0.11466(16) -0.24760(12)
H7A H 0.3330 0.0403 -0.2931
H8A H 0.4843 0.1352 -0.2669
C10A C 0.40455(12) 0.06928(12) -0.14819(9)
H9A H 0.5078 0.0864 -0.1171
H10A H 0.3753 -0.0309 -0.1492
N1A N 0.30588(10) 0.15566(9) -0.10003(7)
C11A C 0.27980(14) 0.13713(12) -0.00462(8)
H11A H 0.2364 0.0430 -0.0027
H12A H 0.3734 0.1501 0.0379
H13A H 0.2119 0.2058 0.0154
O8A O -0.06328(8) 0.34153(7) -0.30552(5)
C12A C -0.18612(11) 0.30952(10) -0.35275(7)
C13A C -0.32952(11) 0.37541(12) -0.34124(8)
H14A H -0.3662 0.3501 -0.2831
H15A H -0.3172 0.4782 -0.3385
C14A C -0.43516(12) 0.31602(12) -0.42896(8)
H16A H -0.5349 0.2950 -0.4129
H17A H -0.4425 0.3825 -0.4776
C15A C -0.36628(11) 0.18207(11) -0.46386(7)
H18A H -0.3767 0.1696 -0.5336
H19A H -0.4120 0.0991 -0.4411
N2A N -0.21168(9) 0.20617(9) -0.42243(6)
C16A C -0.10165(13) 0.11495(12) -0.45095(8)
H20A H -0.1044 0.1103 -0.5195
H21A H -0.0038 0.1512 -0.4199
H22A H -0.1222 0.0215 -0.4327
O9A O -0.13733(8) 0.64276(7) -0.21369(5)
C17A C -0.12540(10) 0.77235(10) -0.20846(7)
C18A C 0.00495(11) 0.86669(11) -0.16329(8)
H23A H 0.0190 0.8655 -0.0939
H24A H 0.0962 0.8379 -0.1875
C19A C -0.03339(12) 1.01134(11) -0.19077(9)
H25A H -0.0080 1.0824 -0.1361
H26A H 0.0205 1.0371 -0.2424
C20A C -0.20009(11) 0.99944(10) -0.22331(8)
H27A H -0.2256 1.0477 -0.2807
H28A H -0.2544 1.0393 -0.1731
N3A N -0.23340(9) 0.84944(9) -0.24300(6)
C21A C -0.37938(12) 0.79291(12) -0.28382(10)
H29A H -0.4006 0.8165 -0.3489
H30A H -0.3840 0.6914 -0.2833
H31A H -0.4524 0.8326 -0.2468
Mn1_2 Mn -0.01073(2) 0.51799(2) 0.17601(2)
Mn1A_2 Mn 1.01073(2) 0.48201(2) -0.17601(2)
Mn1A_3 Mn 1.01073(2) 0.48201(2) 0.82399(2)
O3_2 O 1.17395(7) 0.61875(8) 0.12130(5)
O3A_2 O -0.17395(7) 0.38125(8) -0.12130(5)
O4A_2 O 0.17891(8) 0.57768(8) -0.24541(5)
loop_
_geom_bond_atom_site_label_1
_geom_bond_atom_site_label_2
_geom_bond_site_symmetry_1
_geom_bond_site_symmetry_2
Mn1 O4 1_555 1_555
S1 O1 1_555 1_555
O1 Mn1A 1_555 1_555
O2 S1 1_555 1_555
O3 S1 1_555 1_555
C1 S1 1_555 1_555
C2 C1 1_555 1_555
H1 C2 1_555 1_555
C3 C1 1_555 1_555
H2 C3 1_555 1_555
S2 O4 1_555 1_555
O5 S2 1_555 1_555
O6 S2 1_555 1_555
C4 S2 1_555 1_555
C5 C4 1_555 1_555
H3 C5 1_555 1_555
C6 C4 1_555 1_555
H4 C6 1_555 1_555
O7 Mn1 1_555 1_555
C7 O7 1_555 1_555
C8 C7 1_555 1_555
H5 C8 1_555 1_555
H6 C8 1_555 1_555
C9 C8 1_555 1_555
H7 C9 1_555 1_555
H8 C9 1_555 1_555
C10 C9 1_555 1_555
H9 C10 1_555 1_555
H10 C10 1_555 1_555
N1 C7 1_555 1_555
C11 N1 1_555 1_555
H11 C11 1_555 1_555
H12 C11 1_555 1_555
H13 C11 1_555 1_555
O8 Mn1 1_555 1_555
C12 O8 1_555 1_555
C13 C12 1_555 1_555
H14 C13 1_555 1_555
H15 C13 1_555 1_555
C14 C13 1_555 1_555
H16 C14 1_555 1_555
H17 C14 1_555 1_555
C15 C14 1_555 1_555
H18 C15 1_555 1_555
H19 C15 1_555 1_555
N2 C12 1_555 1_555
C16 N2 1_555 1_555
H20 C16 1_555 1_555
H21 C16 1_555 1_555
H22 C16 1_555 1_555
O9 Mn1 1_555 1_555
C17 O9 1_555 1_555
C18 C17 1_555 1_555
H23 C18 1_555 1_555
H24 C18 1_555 1_555
C19 C18 1_555 1_555
H25 C19 1_555 1_555
H26 C19 1_555 1_555
C20 C19 1_555 1_555
H27 C20 1_555 1_555
H28 C20 1_555 1_555
N3 C17 1_555 1_555
C21 N3 1_555 1_555
H29 C21 1_555 1_555
H30 C21 1_555 1_555
H31 C21 1_555 1_555
S1A O2A 1_555 1_555
O3A S1A 1_555 1_555
C1A S1A 1_555 1_555
C3A C2 1_555 1_555
H2A C3A 1_555 1_555
C2A C3 1_555 1_555
H1A C2A 1_555 1_555
O1A Mn1 1_555 1_555
S2A O4A 1_555 1_555
O4A Mn1A_3 1_555 1_555
O5A S2A 1_555 1_555
O6A S2A 1_555 1_555
C4A S2A 1_555 1_555
C5A C6 1_555 1_555
H3A C5A 1_555 1_555
C6A C5 1_555 1_555
H4A C6A 1_555 1_555
Mn1A O7A 1_555 1_555
O7A C7A 1_555 1_555
C7A C8A 1_555 1_555
C8A H5A 1_555 1_555
H6A C8A 1_555 1_555
C9A C8A 1_555 1_555
H7A C9A 1_555 1_555
H8A C9A 1_555 1_555
C10A C9A 1_555 1_555
H9A C10A 1_555 1_555
H10A C10A 1_555 1_555
N1A C7A 1_555 1_555
C11A N1A 1_555 1_555
H11A C11A 1_555 1_555
H12A C11A 1_555 1_555
H13A C11A 1_555 1_555
O8A Mn1A 1_555 1_555
C12A O8A 1_555 1_555
C13A C12A 1_555 1_555
H14A C13A 1_555 1_555
H15A C13A 1_555 1_555
C14A C13A 1_555 1_555
H16A C14A 1_555 1_555
H17A C14A 1_555 1_555
C15A C14A 1_555 1_555
H18A C15A 1_555 1_555
H19A C15A 1_555 1_555
N2A C12A 1_555 1_555
C16A N2A 1_555 1_555
H20A C16A 1_555 1_555
H21A C16A 1_555 1_555
H22A C16A 1_555 1_555
O9A Mn1A 1_555 1_555
C17A O9A 1_555 1_555
C18A C17A 1_555 1_555
H23A C18A 1_555 1_555
H24A C18A 1_555 1_555
C19A C18A 1_555 1_555
H25A C19A 1_555 1_555
H26A C19A 1_555 1_555
C20A C19A 1_555 1_555
H27A C20A 1_555 1_555
H28A C20A 1_555 1_555
N3A C17A 1_555 1_555
C21A N3A 1_555 1_555
H29A C21A 1_555 1_555
H30A C21A 1_555 1_555
H31A C21A 1_555 1_555
Mn1_2 O3 1_555 1_555
Mn1A_2 O3A 1_555 1_555
O3_2 Mn1 1_555 1_555
O3A_2 Mn1A 1_555 1_555
O4A_2 Mn1A 1_555 1_555
C10 N1 1_555 1_555
C15 N2 1_555 1_555
C20 N3 1_555 1_555
S1A O1A 1_555 1_555
C1A C3A 1_555 1_555
C1A C2A 1_555 1_555
C4A C5A 1_555 1_555
C4A C6A 1_555 1_555
C10A N1A 1_555 1_555
C15A N2A 1_555 1_555
C20A N3A 1_555 1_555

#END
