
#######################################################################
#
#                 Cambridge Crystallographic Data Centre
#                                CCDC 
#
#######################################################################
#
# If this CIF has been generated from an entry in the Cambridge 
# Structural Database, then it will include bibliographic, chemical, 
# crystal, experimental, refinement or atomic coordinate data resulting 
# from the CCDC's data processing and validation procedures.
#
#######################################################################

data_VUFHAH
_symmetry_cell_setting           triclinic
_symmetry_space_group_name_H-M   'P -1'
_symmetry_Int_Tables_number      2
_space_group_name_Hall           '-P 1'
loop_
_symmetry_equiv_pos_site_id
_symmetry_equiv_pos_as_xyz
1 x,y,z
2 -x,-y,-z
_cell_length_a                   9.1132(11)
_cell_length_b                   9.5953(12)
_cell_length_c                   14.2855(17)
_cell_angle_alpha                94.791(5)
_cell_angle_beta                 98.229(5)
_cell_angle_gamma                91.873(6)
_cell_volume                     1230.74
loop_
_atom_site_label
_atom_site_type_symbol
_atom_site_fract_x
_atom_site_fract_y
_atom_site_fract_z
Co1 Co 0.98800(2) 0.51556(2) 0.17603(2)
S1 S 0.20461(2) 0.65069(2) 0.03101(2)
O1 O 0.09023(6) 0.60928(6) -0.04969(4)
O2 O 0.24561(7) 0.79873(6) 0.03770(5)
O3 O 0.16649(6) 0.60509(7) 0.12003(4)
C1 C 0.36890(8) 0.56309(8) 0.01324(5)
C2 C 0.43824(8) 0.59112(8) -0.06450(5)
H1 H 0.3959 0.6533 -0.1082
C3 C 0.43004(8) 0.47246(8) 0.07779(5)
H2 H 0.3823 0.4540 0.1306
S2 S 0.76617(2) 0.37704(2) 0.32517(2)
O4 O 0.82048(7) 0.42665(7) 0.24140(4)
O5 O 0.76839(9) 0.22589(7) 0.32421(5)
O6 O 0.62587(7) 0.43551(8) 0.33987(5)
C4 C 0.89684(9) 0.44527(8) 0.42402(5)
C5 C 0.85913(9) 0.55423(9) 0.48572(5)
H3 H 0.7631 0.5908 0.4757
C6 C 1.03719(9) 0.39076(9) 0.43795(5)
H4 H 1.0620 0.3165 0.3956
O7 O 0.85359(6) 0.66471(6) 0.12148(4)
C7 C 0.76102(8) 0.74402(8) 0.15013(5)
C8 C 0.70097(10) 0.74680(9) 0.24325(6)
H5 H 0.7823 0.7445 0.2969
H6 H 0.6304 0.6662 0.2436
C9 C 0.62236(13) 0.88494(11) 0.24952(9)
H7 H 0.6858 0.9576 0.2911
H8 H 0.5276 0.8726 0.2748
C10 C 0.59435(10) 0.92550(10) 0.14650(8)
H9 H 0.4906 0.9011 0.1171
H10 H 0.6151 1.0269 0.1440
N1 N 0.69858(8) 0.84260(8) 0.09926(5)
C11 C 0.72591(11) 0.86395(10) 0.00389(7)
H11 H 0.7659 0.9597 0.0025
H12 H 0.6327 0.8493 -0.0401
H13 H 0.7976 0.7973 -0.0152
O8 O 1.05780(6) 0.65300(6) 0.30030(4)
C12 C 1.18142(8) 0.68572(8) 0.34776(5)
C13 C 1.32780(9) 0.62378(10) 0.33547(6)
H14 H 1.3636 0.6539 0.2778
H15 H 1.3190 0.5202 0.3306
C14 C 1.43276(10) 0.68065(10) 0.42516(6)
H16 H 1.5327 0.7045 0.4099
H17 H 1.4419 0.6112 0.4730
C15 C 1.35927(9) 0.81219(9) 0.46164(6)
H18 H 1.3694 0.8212 0.5318
H19 H 1.4031 0.8977 0.4403
N2 N 1.20427(8) 0.78804(7) 0.41915(5)
C16 C 1.09194(10) 0.87840(10) 0.44794(6)
H20 H 1.0943 0.8806 0.5168
H21 H 0.9940 0.8427 0.4159
H22 H 1.1113 0.9733 0.4306
O9 O 1.13218(7) 0.36112(6) 0.21736(4)
C17 C 1.12165(8) 0.23057(8) 0.21057(5)
C18 C 0.99302(9) 0.13571(8) 0.16193(6)
H23 H 0.9829 0.1372 0.0921
H24 H 0.8990 0.1641 0.1834
C19 C 1.03303(10) -0.00972(9) 0.19173(7)
H25 H 0.9790 -0.0347 0.2438
H26 H 1.0083 -0.0817 0.1374
C20 C 1.20040(9) 0.00222(8) 0.22503(6)
H27 H 1.2271 -0.0486 0.2822
H28 H 1.2557 -0.0354 0.1744
N3 N 1.23113(8) 0.15251(7) 0.24660(5)
C21 C 1.37682(11) 0.20861(10) 0.28953(9)
H29 H 1.3953 0.1870 0.3559
H30 H 1.3817 0.3103 0.2868
H31 H 1.4521 0.1665 0.2550
S1A S 0.79539(2) 0.34931(2) -0.03101(2)
O2A O 0.75439(7) 0.20127(6) -0.03770(5)
O3A O 0.83351(6) 0.39491(7) -0.12003(4)
C1A C 0.63110(8) 0.43691(8) -0.01324(5)
C3A C 0.56996(8) 0.52754(8) -0.07779(5)
H2A H 0.6177 0.5460 -0.1306
C2A C 0.56176(8) 0.40888(8) 0.06450(5)
H1A H 0.6041 0.3467 0.1082
O1A O 0.90977(6) 0.39072(6) 0.04969(4)
S2A S 1.23383(2) 0.62296(2) 0.67483(2)
O4A O 1.17952(7) 0.57335(7) 0.75860(4)
O5A O 1.23161(9) 0.77411(7) 0.67579(5)
O6A O 1.37413(7) 0.56449(8) 0.66013(5)
C4A C 1.10316(9) 0.55473(8) 0.57598(5)
C5A C 1.14087(9) 0.44577(9) 0.51428(5)
H3A H 1.2369 0.4092 0.5243
C6A C 0.96281(9) 0.60924(9) 0.56205(5)
H4A H 0.9380 0.6835 0.6044
Co1A Co 0.01200(2) 0.48444(2) -0.17603(2)
O7A O 0.14641(6) 0.33529(6) -0.12148(4)
C7A C 0.23898(8) 0.25598(8) -0.15013(5)
C8A C 0.29903(10) 0.25320(9) -0.24325(6)
H5A H 0.2177 0.2555 -0.2969
H6A H 0.3696 0.3338 -0.2436
C9A C 0.37764(13) 0.11506(11) -0.24952(9)
H7A H 0.3142 0.0424 -0.2911
H8A H 0.4724 0.1274 -0.2748
C10A C 0.40565(10) 0.07450(10) -0.14650(8)
H9A H 0.5094 0.0989 -0.1171
H10A H 0.3849 -0.0269 -0.1440
N1A N 0.30142(8) 0.15740(8) -0.09926(5)
C11A C 0.27409(11) 0.13605(10) -0.00389(7)
H11A H 0.2341 0.0403 -0.0025
H12A H 0.3673 0.1507 0.0401
H13A H 0.2024 0.2027 0.0152
O8A O -0.05780(6) 0.34700(6) -0.30030(4)
C12A C -0.18142(8) 0.31428(8) -0.34776(5)
C13A C -0.32780(9) 0.37622(10) -0.33547(6)
H14A H -0.3636 0.3461 -0.2778
H15A H -0.3190 0.4798 -0.3306
C14A C -0.43276(10) 0.31935(10) -0.42516(6)
H16A H -0.5327 0.2955 -0.4099
H17A H -0.4419 0.3888 -0.4730
C15A C -0.35927(9) 0.18781(9) -0.46164(6)
H18A H -0.3694 0.1788 -0.5318
H19A H -0.4031 0.1023 -0.4403
N2A N -0.20427(8) 0.21196(7) -0.41915(5)
C16A C -0.09194(10) 0.12160(10) -0.44794(6)
H20A H -0.0943 0.1194 -0.5168
H21A H 0.0060 0.1573 -0.4159
H22A H -0.1113 0.0267 -0.4306
O9A O -0.13218(7) 0.63888(6) -0.21736(4)
C17A C -0.12165(8) 0.76943(8) -0.21057(5)
C18A C 0.00698(9) 0.86429(8) -0.16193(6)
H23A H 0.0171 0.8628 -0.0921
H24A H 0.1010 0.8359 -0.1834
C19A C -0.03303(10) 1.00972(9) -0.19173(7)
H25A H 0.0210 1.0347 -0.2438
H26A H -0.0083 1.0817 -0.1374
C20A C -0.20040(9) 0.99778(8) -0.22503(6)
H27A H -0.2271 1.0486 -0.2822
H28A H -0.2557 1.0354 -0.1744
N3A N -0.23113(8) 0.84749(7) -0.24660(5)
C21A C -0.37682(11) 0.79139(10) -0.28953(9)
H29A H -0.3953 0.8130 -0.3559
H30A H -0.3817 0.6897 -0.2868
H31A H -0.4521 0.8335 -0.2550
Co1_2 Co -0.01200(2) 0.51556(2) 0.17603(2)
Co1A_2 Co 1.01200(2) 0.48444(2) -0.17603(2)
Co1A_3 Co 1.01200(2) 0.48444(2) 0.82397(2)
O3_2 O 1.16649(6) 0.60509(7) 0.12003(4)
O3A_2 O -0.16649(6) 0.39491(7) -0.12003(4)
O4A_2 O 0.17952(7) 0.57335(7) -0.24140(4)
loop_
_geom_bond_atom_site_label_1
_geom_bond_atom_site_label_2
_geom_bond_site_symmetry_1
_geom_bond_site_symmetry_2
Co1 O4 1_555 1_555
S1 O1 1_555 1_555
O1 Co1A 1_555 1_555
O2 S1 1_555 1_555
O3 S1 1_555 1_555
C1 S1 1_555 1_555
C2 C1 1_555 1_555
H1 C2 1_555 1_555
C3 C1 1_555 1_555
H2 C3 1_555 1_555
S2 O4 1_555 1_555
O5 S2 1_555 1_555
O6 S2 1_555 1_555
C4 S2 1_555 1_555
C5 C4 1_555 1_555
H3 C5 1_555 1_555
C6 C4 1_555 1_555
H4 C6 1_555 1_555
O7 Co1 1_555 1_555
C7 O7 1_555 1_555
C8 C7 1_555 1_555
H5 C8 1_555 1_555
H6 C8 1_555 1_555
C9 C8 1_555 1_555
H7 C9 1_555 1_555
H8 C9 1_555 1_555
C10 C9 1_555 1_555
H9 C10 1_555 1_555
H10 C10 1_555 1_555
N1 C7 1_555 1_555
C11 N1 1_555 1_555
H11 C11 1_555 1_555
H12 C11 1_555 1_555
H13 C11 1_555 1_555
O8 Co1 1_555 1_555
C12 O8 1_555 1_555
C13 C12 1_555 1_555
H14 C13 1_555 1_555
H15 C13 1_555 1_555
C14 C13 1_555 1_555
H16 C14 1_555 1_555
H17 C14 1_555 1_555
C15 C14 1_555 1_555
H18 C15 1_555 1_555
H19 C15 1_555 1_555
N2 C12 1_555 1_555
C16 N2 1_555 1_555
H20 C16 1_555 1_555
H21 C16 1_555 1_555
H22 C16 1_555 1_555
O9 Co1 1_555 1_555
C17 O9 1_555 1_555
C18 C17 1_555 1_555
H23 C18 1_555 1_555
H24 C18 1_555 1_555
C19 C18 1_555 1_555
H25 C19 1_555 1_555
H26 C19 1_555 1_555
C20 C19 1_555 1_555
H27 C20 1_555 1_555
H28 C20 1_555 1_555
N3 C17 1_555 1_555
C21 N3 1_555 1_555
H29 C21 1_555 1_555
H30 C21 1_555 1_555
H31 C21 1_555 1_555
S1A O2A 1_555 1_555
O3A S1A 1_555 1_555
C1A S1A 1_555 1_555
C3A C2 1_555 1_555
H2A C3A 1_555 1_555
C2A C3 1_555 1_555
H1A C2A 1_555 1_555
O1A Co1 1_555 1_555
S2A O4A 1_555 1_555
O4A Co1A_3 1_555 1_555
O5A S2A 1_555 1_555
O6A S2A 1_555 1_555
C4A S2A 1_555 1_555
C5A C6 1_555 1_555
H3A C5A 1_555 1_555
C6A C5 1_555 1_555
H4A C6A 1_555 1_555
Co1A O7A 1_555 1_555
O7A C7A 1_555 1_555
C7A C8A 1_555 1_555
C8A H5A 1_555 1_555
H6A C8A 1_555 1_555
C9A C8A 1_555 1_555
H7A C9A 1_555 1_555
H8A C9A 1_555 1_555
C10A C9A 1_555 1_555
H9A C10A 1_555 1_555
H10A C10A 1_555 1_555
N1A C7A 1_555 1_555
C11A N1A 1_555 1_555
H11A C11A 1_555 1_555
H12A C11A 1_555 1_555
H13A C11A 1_555 1_555
O8A Co1A 1_555 1_555
C12A O8A 1_555 1_555
C13A C12A 1_555 1_555
H14A C13A 1_555 1_555
H15A C13A 1_555 1_555
C14A C13A 1_555 1_555
H16A C14A 1_555 1_555
H17A C14A 1_555 1_555
C15A C14A 1_555 1_555
H18A C15A 1_555 1_555
H19A C15A 1_555 1_555
N2A C12A 1_555 1_555
C16A N2A 1_555 1_555
H20A C16A 1_555 1_555
H21A C16A 1_555 1_555
H22A C16A 1_555 1_555
O9A Co1A 1_555 1_555
C17A O9A 1_555 1_555
C18A C17A 1_555 1_555
H23A C18A 1_555 1_555
H24A C18A 1_555 1_555
C19A C18A 1_555 1_555
H25A C19A 1_555 1_555
H26A C19A 1_555 1_555
C20A C19A 1_555 1_555
H27A C20A 1_555 1_555
H28A C20A 1_555 1_555
N3A C17A 1_555 1_555
C21A N3A 1_555 1_555
H29A C21A 1_555 1_555
H30A C21A 1_555 1_555
H31A C21A 1_555 1_555
Co1_2 O3 1_555 1_555
Co1A_2 O3A 1_555 1_555
O3_2 Co1 1_555 1_555
O3A_2 Co1A 1_555 1_555
O4A_2 Co1A 1_555 1_555
C10 N1 1_555 1_555
C15 N2 1_555 1_555
C20 N3 1_555 1_555
S1A O1A 1_555 1_555
C1A C3A 1_555 1_555
C1A C2A 1_555 1_555
C4A C5A 1_555 1_555
C4A C6A 1_555 1_555
C10A N1A 1_555 1_555
C15A N2A 1_555 1_555
C20A N3A 1_555 1_555

#END
