
#######################################################################
#
#                 Cambridge Crystallographic Data Centre
#                                CCDC 
#
#######################################################################
#
# If this CIF has been generated from an entry in the Cambridge 
# Structural Database, then it will include bibliographic, chemical, 
# crystal, experimental, refinement or atomic coordinate data resulting 
# from the CCDC's data processing and validation procedures.
#
#######################################################################

data_VUFQUK
_symmetry_cell_setting           monoclinic
_symmetry_space_group_name_H-M   'P 21/n'
_symmetry_Int_Tables_number      14
_space_group_name_Hall           '-P 2yn'
loop_
_symmetry_equiv_pos_site_id
_symmetry_equiv_pos_as_xyz
1 x,y,z
2 1/2-x,1/2+y,1/2-z
3 -x,-y,-z
4 1/2+x,1/2-y,1/2+z
_cell_length_a                   13.7359(9)
_cell_length_b                   21.8166(17)
_cell_length_c                   18.8472(14)
_cell_angle_alpha                90
_cell_angle_beta                 92.090(2)
_cell_angle_gamma                90
_cell_volume                     5644.2
loop_
_atom_site_label
_atom_site_type_symbol
_atom_site_fract_x
_atom_site_fract_y
_atom_site_fract_z
Ag1 Ag 0.13313(1) 0.46629(1) 0.17148(1)
Ag2 Ag 0.16123(1) 0.35361(1) 0.26540(1)
Ag3 Ag 0.24576(1) 0.24252(1) 0.33862(1)
N1 N 0.02873(15) 0.19943(10) 0.32634(11)
N2 N 0.04475(14) 0.27886(9) 0.39119(11)
N3 N 0.15338(15) 0.36138(9) 0.39532(11)
N4 N 0.20572(16) -0.01169(10) 0.44207(12)
N5 N 0.34001(17) -0.04489(10) 0.48905(11)
N6 N 0.48568(17) -0.07032(11) 0.43697(12)
N7 N 0.44885(15) 0.23149(10) 0.26532(12)
N8 N 0.46311(15) 0.25002(10) 0.37657(12)
N9 N 0.34424(16) 0.26244(11) 0.46020(12)
N10 N 0.39084(15) 0.01576(10) 0.17693(11)
N11 N 0.50442(15) -0.04842(10) 0.19976(11)
N12 N 0.51090(15) -0.14294(10) 0.25739(11)
N13 N 0.1760(2) 0.30181(15) 0.15022(15)
N14 N 0.3208(2) 0.39114(14) 0.27179(15)
C1 C 0.09572(18) 0.23997(11) 0.35002(13)
C2 C -0.06222(18) 0.21226(13) 0.35221(14)
C3 C -0.05263(18) 0.26210(12) 0.39302(14)
C4 C 0.08881(17) 0.32853(11) 0.43016(13)
C5 C 0.06509(18) 0.33851(12) 0.49975(13)
C6 C 0.11235(19) 0.38538(12) 0.53591(14)
C7 C 0.18053(19) 0.41986(12) 0.50174(14)
C8 C 0.19927(19) 0.40627(12) 0.43176(14)
C9 C 0.0495(2) 0.14790(12) 0.27905(15)
C10 C 0.0476(2) 0.08575(13) 0.31554(16)
C11 C 0.13297(19) 0.07316(12) 0.36767(14)
C12 C 0.12938(19) 0.00621(13) 0.38996(16)
C13 C 0.29506(19) -0.03108(11) 0.42499(14)
C14 C 0.1947(2) -0.01290(13) 0.51478(16)
C15 C 0.2776(2) -0.03362(13) 0.54430(15)
C16 C 0.4371(2) -0.06816(11) 0.49664(14)
C17 C 0.4756(2) -0.08659(13) 0.56187(15)
C18 C 0.5704(2) -0.10779(14) 0.56472(17)
C19 C 0.6226(2) -0.11053(13) 0.50392(16)
C20 C 0.5770(2) -0.09147(13) 0.44147(16)
C21 C 0.39567(18) 0.24160(12) 0.32248(14)
C22 C 0.5476(2) 0.23274(14) 0.28277(16)
C23 C 0.5570(2) 0.24435(14) 0.35198(16)
C24 C 0.43822(19) 0.26411(12) 0.44741(14)
C25 C 0.5099(2) 0.27775(14) 0.49827(16)
C26 C 0.4809(2) 0.29493(15) 0.56439(17)
C27 C 0.3825(2) 0.29633(14) 0.57814(16)
C28 C 0.3173(2) 0.27807(14) 0.52520(15)
C29 C 0.4079(2) 0.22145(13) 0.19345(14)
C30 C 0.40324(19) 0.15447(12) 0.17240(14)
C31 C 0.33196(19) 0.11736(12) 0.21553(14)
C32 C 0.30572(18) 0.05563(12) 0.18393(14)
C33 C 0.42337(18) -0.02326(11) 0.22745(13)
C34 C 0.45015(18) 0.01545(12) 0.11892(13)
C35 C 0.52191(19) -0.02441(12) 0.13339(13)
C36 C 0.56138(18) -0.09537(12) 0.23331(13)
C37 C 0.66133(19) -0.09018(13) 0.23808(14)
C38 C 0.7131(2) -0.13806(14) 0.26870(15)
C39 C 0.6636(2) -0.18771(14) 0.29400(15)
C40 C 0.5624(2) -0.18821(13) 0.28846(15)
C41 C 0.2117(2) 0.30559(14) 0.09737(17)
C42 C 0.2584(2) 0.30999(15) 0.02996(16)
C43 C 0.4027(2) 0.39704(15) 0.27756(16)
C44 C 0.5084(2) 0.40321(18) 0.28425(18)
H1 H -0.12050 0.18980 0.34270
H2 H -0.10230 0.28200 0.41820
H3 H 0.01790 0.31390 0.52190
H4 H 0.09810 0.39390 0.58390
H5 H 0.21400 0.45230 0.52570
H6 H 0.24680 0.42980 0.40850
H7 H 0.11450 0.15410 0.25920
H8 H 0.00090 0.14790 0.23890
H9 H 0.04640 0.05340 0.27860
H10 H -0.01370 0.08240 0.34140
H11 H 0.19530 0.08190 0.34480
H12 H 0.12850 0.09990 0.40980
H13 H 0.06520 -0.00210 0.41010
H14 H 0.13480 -0.01970 0.34720
H15 H 0.13820 -0.00110 0.53910
H16 H 0.29170 -0.03960 0.59350
H17 H 0.43830 -0.08470 0.60330
H18 H 0.59950 -0.12050 0.60880
H19 H 0.68790 -0.12500 0.50500
H20 H 0.61240 -0.09350 0.39920
H21 H 0.59910 0.22650 0.25120
H22 H 0.61630 0.24800 0.37930
H23 H 0.57690 0.27530 0.48790
H24 H 0.52800 0.30580 0.60040
H25 H 0.36060 0.30950 0.62290
H26 H 0.25000 0.27650 0.53530
H27 H 0.44790 0.24380 0.15930
H28 H 0.34130 0.23890 0.19020
H29 H 0.46910 0.13630 0.17870
H30 H 0.38360 0.15150 0.12140
H31 H 0.36080 0.11100 0.26390
H32 H 0.27150 0.14150 0.22010
H33 H 0.25840 0.03510 0.21440
H34 H 0.27380 0.06180 0.13650
H35 H 0.44140 0.03910 0.07690
H36 H 0.57440 -0.03430 0.10410
H37 H 0.69340 -0.05490 0.22090
H38 H 0.78220 -0.13670 0.27230
H39 H 0.69800 -0.22130 0.31500
H40 H 0.52850 -0.22200 0.30750
H41 H 0.31110 0.34020 0.03360
H42 H 0.21040 0.32280 -0.00690
H43 H 0.28520 0.26990 0.01750
H44 H 0.52810 0.44210 0.26300
H45 H 0.53910 0.36910 0.25970
H46 H 0.52890 0.40260 0.33460
Ag1A Ag 0.36687(1) -0.03371(1) 0.32852(1)
Ag2A Ag 0.33877(1) -0.14639(1) 0.23460(1)
N6A N 0.01432(17) 0.42968(11) 0.06303(12)
N12A N -0.01090(15) 0.35706(10) 0.24261(11)
C13A C 0.20494(19) 0.46892(11) 0.07501(14)
C33A C 0.07663(18) 0.47674(11) 0.27255(13)
P1 P 0.22965(5) 0.40491(3) 0.74304(4)
F1 F 0.18883(16) 0.34966(9) 0.69517(10)
F2 F 0.12212(14) 0.42454(11) 0.76038(11)
F3 F 0.33745(13) 0.38420(10) 0.72520(10)
F4 F 0.23202(12) 0.36109(8) 0.81153(9)
F5 F 0.22665(12) 0.44798(8) 0.67478(8)
F6 F 0.27284(18) 0.45912(9) 0.78982(10)
P2 P 0.55235(6) 0.35453(4) 0.07766(4)
F7 F 0.50045(15) 0.29799(8) 0.03932(10)
F8 F 0.59569(13) 0.30951(9) 0.13776(10)
F9 F 0.50863(14) 0.40012(8) 0.01847(9)
F10 F 0.45588(14) 0.36382(8) 0.12243(9)
F11 F 0.59958(17) 0.41212(10) 0.11865(12)
F12 F 0.64644(16) 0.34562(12) 0.03351(13)
P3 P 0.73002(5) 0.38735(3) 0.47187(4)
F13 F 0.61503(11) 0.39194(8) 0.45671(9)
F14 F 0.72771(13) 0.44825(8) 0.51827(9)
F15 F 0.73279(13) 0.32569(9) 0.42660(10)
F16 F 0.84545(12) 0.38264(9) 0.48724(10)
F17 F 0.74724(14) 0.42754(9) 0.40334(9)
F18 F 0.71215(12) 0.34769(8) 0.54141(9)
N15 N 0.4256(3) 0.5349(3) 0.3550(2)
C45 C 0.4885(3) 0.5402(2) 0.3932(2)
C46 C 0.5715(3) 0.54732(19) 0.4403(2)
H47 H 0.58940 0.50750 0.46100
H48 H 0.55600 0.57600 0.47830
H49 H 0.62620 0.56340 0.41390
loop_
_geom_bond_atom_site_label_1
_geom_bond_atom_site_label_2
_geom_bond_site_symmetry_1
_geom_bond_site_symmetry_2
Ag1 Ag2 1_555 1_555
Ag2 Ag3 1_555 1_555
Ag3 N9 1_555 1_555
N1 C1 1_555 1_555
N2 C1 1_555 1_555
N3 Ag2 1_555 1_555
N4 C12 1_555 1_555
N5 C13 1_555 1_555
N6 C16 1_555 1_555
N7 C21 1_555 1_555
N8 C21 1_555 1_555
N9 C24 1_555 1_555
N10 C32 1_555 1_555
N11 C33 1_555 1_555
N12 C36 1_555 1_555
N13 Ag2 1_555 1_555
N14 Ag2 1_555 1_555
C1 Ag3 1_555 1_555
C2 N1 1_555 1_555
C3 N2 1_555 1_555
C4 N2 1_555 1_555
C5 C4 1_555 1_555
C6 C5 1_555 1_555
C7 C6 1_555 1_555
C8 N3 1_555 1_555
C9 N1 1_555 1_555
C10 C9 1_555 1_555
C11 C10 1_555 1_555
C12 C11 1_555 1_555
C13 N4 1_555 1_555
C14 N4 1_555 1_555
C15 N5 1_555 1_555
C16 N5 1_555 1_555
C17 C16 1_555 1_555
C18 C17 1_555 1_555
C19 C18 1_555 1_555
C20 N6 1_555 1_555
C21 Ag3 1_555 1_555
C22 N7 1_555 1_555
C23 N8 1_555 1_555
C24 N8 1_555 1_555
C25 C24 1_555 1_555
C26 C25 1_555 1_555
C27 C26 1_555 1_555
C28 N9 1_555 1_555
C29 N7 1_555 1_555
C30 C29 1_555 1_555
C31 C30 1_555 1_555
C32 C31 1_555 1_555
C33 N10 1_555 1_555
C34 N10 1_555 1_555
C35 N11 1_555 1_555
C36 N11 1_555 1_555
C37 C36 1_555 1_555
C38 C37 1_555 1_555
C39 C38 1_555 1_555
C40 N12 1_555 1_555
C41 N13 1_555 1_555
C42 C41 1_555 1_555
C43 N14 1_555 1_555
C44 C43 1_555 1_555
H1 C2 1_555 1_555
H2 C3 1_555 1_555
H3 C5 1_555 1_555
H4 C6 1_555 1_555
H5 C7 1_555 1_555
H6 C8 1_555 1_555
H7 C9 1_555 1_555
H8 C9 1_555 1_555
H9 C10 1_555 1_555
H10 C10 1_555 1_555
H11 C11 1_555 1_555
H12 C11 1_555 1_555
H13 C12 1_555 1_555
H14 C12 1_555 1_555
H15 C14 1_555 1_555
H16 C15 1_555 1_555
H17 C17 1_555 1_555
H18 C18 1_555 1_555
H19 C19 1_555 1_555
H20 C20 1_555 1_555
H21 C22 1_555 1_555
H22 C23 1_555 1_555
H23 C25 1_555 1_555
H24 C26 1_555 1_555
H25 C27 1_555 1_555
H26 C28 1_555 1_555
H27 C29 1_555 1_555
H28 C29 1_555 1_555
H29 C30 1_555 1_555
H30 C30 1_555 1_555
H31 C31 1_555 1_555
H32 C31 1_555 1_555
H33 C32 1_555 1_555
H34 C32 1_555 1_555
H35 C34 1_555 1_555
H36 C35 1_555 1_555
H37 C37 1_555 1_555
H38 C38 1_555 1_555
H39 C39 1_555 1_555
H40 C40 1_555 1_555
H41 C42 1_555 1_555
H42 C42 1_555 1_555
H43 C42 1_555 1_555
H44 C44 1_555 1_555
H45 C44 1_555 1_555
H46 C44 1_555 1_555
P1 F1 1_555 1_555
F2 P1 1_555 1_555
F3 P1 1_555 1_555
F4 P1 1_555 1_555
F5 P1 1_555 1_555
F6 P1 1_555 1_555
P2 F7 1_555 1_555
F8 P2 1_555 1_555
F9 P2 1_555 1_555
F10 P2 1_555 1_555
F11 P2 1_555 1_555
F12 P2 1_555 1_555
P3 F13 1_555 1_555
F14 P3 1_555 1_555
F15 P3 1_555 1_555
F16 P3 1_555 1_555
F17 P3 1_555 1_555
F18 P3 1_555 1_555
N15 C45 1_555 1_555
C45 C46 1_555 1_555
C46 H47 1_555 1_555
H48 C46 1_555 1_555
H49 C46 1_555 1_555
Ag1A N6 1_555 1_555
Ag2A N12 1_555 1_555
N6A Ag1 1_555 1_555
N12A Ag2 1_555 1_555
C13A Ag1 1_555 1_555
C33A Ag1 1_555 1_555
N3 C4 1_555 1_555
C2 C3 1_555 1_555
C7 C8 1_555 1_555
C13 Ag1A 1_555 1_555
C14 C15 1_555 1_555
C19 C20 1_555 1_555
C22 C23 1_555 1_555
C27 C28 1_555 1_555
C33 Ag1A 1_555 1_555
C34 C35 1_555 1_555
C39 C40 1_555 1_555
Ag1A Ag2A 1_555 1_555

#END
