
#######################################################################
#
#                 Cambridge Crystallographic Data Centre
#                                CCDC 
#
#######################################################################
#
# If this CIF has been generated from an entry in the Cambridge 
# Structural Database, then it will include bibliographic, chemical, 
# crystal, experimental, refinement or atomic coordinate data resulting 
# from the CCDC's data processing and validation procedures.
#
#######################################################################

data_VUFRUK
_symmetry_cell_setting           monoclinic
_symmetry_space_group_name_H-M   'P 21/c'
_symmetry_Int_Tables_number      14
_space_group_name_Hall           '-P 2ybc'
loop_
_symmetry_equiv_pos_site_id
_symmetry_equiv_pos_as_xyz
1 x,y,z
2 -x,1/2+y,1/2-z
3 -x,-y,-z
4 x,1/2-y,1/2+z
_cell_length_a                   12.2255(10)
_cell_length_b                   10.6123(9)
_cell_length_c                   13.6579(11)
_cell_angle_alpha                90
_cell_angle_beta                 111.2260(10)
_cell_angle_gamma                90
_cell_volume                     1651.77
loop_
_atom_site_label
_atom_site_type_symbol
_atom_site_fract_x
_atom_site_fract_y
_atom_site_fract_z
Cu1 Cu 0.79230(3) 0.86763(3) 0.19293(3)
N1 N 0.8668(2) 0.8131(2) 0.0918(2)
N2 N 0.6972(2) 0.9211(3) 0.2755(2)
O1 O 0.9682(2) 0.8722(3) 0.3482(2)
O2 O 0.77040(19) 0.6860(2) 0.20567(18)
O3 O 0.8365(2) 1.0384(2) 0.16600(17)
O4 O 0.9519(3) 1.1356(2) 0.0961(2)
O5 O 0.6233(2) 0.9023(3) 0.0090(2)
O6 O 0.8451(2) 0.5029(2) 0.1805(2)
C1 C 0.8387(3) 0.6189(3) 0.1755(3)
C2 C 0.9197(3) 0.6897(3) 0.1324(3)
H1 H 0.9957 0.7019 0.1875
H2 H 0.9308 0.6414 0.0764
C3 C 0.9521(3) 0.9125(3) 0.0949(3)
H3 H 0.9620 0.9166 0.0277
H4 H 1.0276 0.8923 0.1483
C4 C 0.9103(3) 1.0394(3) 0.1193(3)
C5 C 0.7791(3) 0.7943(3) -0.0156(3)
H5 H 0.7363 0.7171 -0.0167
H6 H 0.8202 0.7840 -0.0640
C6 C 0.6933(4) 0.9005(4) -0.0531(3)
H7 H 0.7347 0.9799 -0.0466
H8 H 0.6446 0.8882 -0.1264
C7 C 0.5398(4) 1.0042(6) -0.0244(5)
H9 H 0.5807 1.0842 -0.0074
H10 H 0.4992 1.0004 -0.0999
C8 C 0.5984(3) 0.8625(4) 0.2672(3)
H11 H 0.5753 0.7936 0.2224
C9 C 0.5284(3) 0.8986(4) 0.3217(3)
H12 H 0.4596 0.8550 0.3132
C10 C 0.5617(3) 1.0011(4) 0.3894(3)
C11 C 0.6648(4) 1.0615(4) 0.3984(3)
H13 H 0.6904 1.1303 0.4431
C12 C 0.7297(3) 1.0195(4) 0.3406(3)
H14 H 0.7989 1.0614 0.3473
C13 C 0.4885(4) 1.0422(4) 0.4525(3)
H15 H 0.4059 1.0386 0.4086
H16 H 0.5075 1.1286 0.4754
H17 H 0.999(3) 0.806(2) 0.375(3)
H18 H 1.022(2) 0.911(3) 0.340(3)
Cu1B Cu 0.20770(3) 1.13237(3) -0.19293(3)
Cu1B_2 Cu 0.20770(3) 1.13237(3) 0.80707(3)
N1B N 0.1332(2) 1.1869(2) -0.0918(2)
N2B N 0.3028(2) 1.0789(3) 0.7245(2)
N2B_2 N 0.3028(2) 1.0789(3) -0.2755(2)
O1B O 0.0318(2) 1.1278(3) -0.3482(2)
O2B O 0.22960(19) 1.3140(2) -0.20567(18)
O3B O 0.1635(2) 0.9616(2) -0.16600(17)
O4B O 0.0481(3) 0.8644(2) -0.0961(2)
O5B O 0.3767(2) 1.0977(3) -0.0090(2)
O6B O 0.1549(2) 1.4971(2) -0.1805(2)
C1B C 0.1613(3) 1.3811(3) -0.1755(3)
C2B C 0.0803(3) 1.3103(3) -0.1324(3)
H1B H 0.0043 1.2981 -0.1875
H2B H 0.0692 1.3586 -0.0764
C3B C 0.0479(3) 1.0875(3) -0.0949(3)
H3B H 0.0380 1.0834 -0.0277
H4B H -0.0276 1.1077 -0.1483
C4B C 0.0897(3) 0.9606(3) -0.1193(3)
C5B C 0.2209(3) 1.2057(3) 0.0156(3)
H5B H 0.2637 1.2829 0.0167
H6B H 0.1798 1.2160 0.0640
C6B C 0.3067(4) 1.0995(4) 0.0531(3)
H7B H 0.2653 1.0201 0.0466
H8B H 0.3554 1.1118 0.1264
C7B C 0.4602(4) 0.9958(6) 0.0244(5)
H9B H 0.4193 0.9158 0.0074
H10B H 0.5008 0.9996 0.0999
C8B C 0.4016(3) 1.1375(4) 0.7328(3)
H11B H 0.4247 1.2064 0.7776
C9B C 0.4716(3) 1.1014(4) 0.6783(3)
H12B H 0.5404 1.1450 0.6868
C10B C 0.4383(3) 0.9989(4) 0.6106(3)
C11B C 0.3352(4) 0.9385(4) 0.6016(3)
H13B H 0.3096 0.8697 0.5569
C12B C 0.2703(3) 0.9805(4) 0.6594(3)
H14B H 0.2011 0.9386 0.6527
C13B C 0.5115(4) 0.9578(4) 0.5475(3)
H15B H 0.5941 0.9614 0.5914
H16B H 0.4925 0.8714 0.5246
H17B H 0.001(3) 1.194(2) -0.375(3)
H18B H -0.022(2) 1.089(3) -0.340(3)
O7 O 0.7194(4) 0.2753(4) 0.1707(7)
H19 H 0.764(11) 0.244(12) 0.145(12)
H20 H 0.767(2) 0.280(3) 0.2307(12)
loop_
_geom_bond_atom_site_label_1
_geom_bond_atom_site_label_2
_geom_bond_site_symmetry_1
_geom_bond_site_symmetry_2
Cu1 N1 1_555 1_555
N1 C2 1_555 1_555
N2 Cu1 1_555 1_555
O1 Cu1 1_555 1_555
O2 Cu1 1_555 1_555
O3 Cu1 1_555 1_555
O4 C4 1_555 1_555
O5 Cu1 1_555 1_555
O6 C1 1_555 1_555
O7 H19 1_555 1_555
C1 O2 1_555 1_555
C2 C1 1_555 1_555
H1 C2 1_555 1_555
H2 C2 1_555 1_555
C3 N1 1_555 1_555
H3 C3 1_555 1_555
H4 C3 1_555 1_555
C4 O3 1_555 1_555
C5 N1 1_555 1_555
H5 C5 1_555 1_555
H6 C5 1_555 1_555
C6 O5 1_555 1_555
H7 C6 1_555 1_555
H8 C6 1_555 1_555
C7 O5 1_555 1_555
H9 C7 1_555 1_555
H10 C7 1_555 1_555
C8 N2 1_555 1_555
H11 C8 1_555 1_555
C9 C8 1_555 1_555
H12 C9 1_555 1_555
C10 C9 1_555 1_555
C11 C10 1_555 1_555
H13 C11 1_555 1_555
C12 N2 1_555 1_555
H14 C12 1_555 1_555
C13 C10 1_555 1_555
H15 C13 1_555 1_555
H16 C13 1_555 1_555
H17 O1 1_555 1_555
H18 O1 1_555 1_555
H20 O7 1_555 1_555
Cu1B N1B 1_555 1_555
Cu1B_2 N2B 1_555 1_555
N1B C2B 1_555 1_555
N2B C8B 1_555 1_555
N2B_2 Cu1B 1_555 1_555
O1B Cu1B 1_555 1_555
O2B Cu1B 1_555 1_555
O3B Cu1B 1_555 1_555
O4B C4B 1_555 1_555
O5B Cu1B 1_555 1_555
O6B C1B 1_555 1_555
C1B O2B 1_555 1_555
C2B C1B 1_555 1_555
H1B C2B 1_555 1_555
H2B C2B 1_555 1_555
C3B N1B 1_555 1_555
H3B C3B 1_555 1_555
H4B C3B 1_555 1_555
C4B O3B 1_555 1_555
C5B N1B 1_555 1_555
H5B C5B 1_555 1_555
H6B C5B 1_555 1_555
C6B O5B 1_555 1_555
H7B C6B 1_555 1_555
H8B C6B 1_555 1_555
C7B C7 1_555 1_555
H9B C7B 1_555 1_555
H10B C7B 1_555 1_555
C8B H11B 1_555 1_555
C9B C8B 1_555 1_555
H12B C9B 1_555 1_555
C10B C9B 1_555 1_555
C11B C10B 1_555 1_555
H13B C11B 1_555 1_555
C12B N2B 1_555 1_555
H14B C12B 1_555 1_555
C13B C13 1_555 1_555
H15B C13B 1_555 1_555
H16B C13B 1_555 1_555
H17B O1B 1_555 1_555
H18B O1B 1_555 1_555
C3 C4 1_555 1_555
C5 C6 1_555 1_555
C11 C12 1_555 1_555
O5B C7B 1_555 1_555
C3B C4B 1_555 1_555
C5B C6B 1_555 1_555
C10B C13B 1_555 1_555
C11B C12B 1_555 1_555

#END
