
#######################################################################
#
#                 Cambridge Crystallographic Data Centre
#                                CCDC 
#
#######################################################################
#
# If this CIF has been generated from an entry in the Cambridge 
# Structural Database, then it will include bibliographic, chemical, 
# crystal, experimental, refinement or atomic coordinate data resulting 
# from the CCDC's data processing and validation procedures.
#
#######################################################################

data_VUFRIZ
_symmetry_cell_setting           monoclinic
_symmetry_space_group_name_H-M   'C 2/c'
_symmetry_Int_Tables_number      15
_space_group_name_Hall           '-C 2yn'
loop_
_symmetry_equiv_pos_site_id
_symmetry_equiv_pos_as_xyz
1 x,y,z
2 -x,y,1/2-z
3 1/2+x,1/2+y,z
4 1/2-x,1/2+y,1/2-z
5 -x,-y,-z
6 x,-y,1/2+z
7 1/2-x,1/2-y,-z
8 1/2+x,1/2-y,1/2+z
_cell_length_a                   30.663(2)
_cell_length_b                   17.1272(9)
_cell_length_c                   26.0523(19)
_cell_angle_alpha                90
_cell_angle_beta                 125.735(2)
_cell_angle_gamma                90
_cell_volume                     11106
loop_
_atom_site_label
_atom_site_type_symbol
_atom_site_fract_x
_atom_site_fract_y
_atom_site_fract_z
Ag1 Ag 0.22186(1) 0.47652(2) 0.18717(1)
Ag2 Ag 0.29636(1) 0.77382(2) 0.32783(1)
Ag3 Ag 0.26297(1) 0.62052(2) 0.26423(1)
N1 N 0.34594(14) 0.4550(2) 0.25939(19)
N2 N 0.31963(16) 0.5564(2) 0.20102(19)
N3 N 0.25304(15) 0.6499(2) 0.17140(16)
N4 N 0.11783(13) 0.4278(2) 0.18191(15)
N5 N 0.10332(12) 0.4475(2) 0.09242(15)
N6 N 0.15985(14) 0.4957(2) 0.06717(16)
N7 N 0.14349(13) 0.2760(2) 0.23549(15)
N8 N 0.11264(12) 0.1856(2) 0.16621(16)
N9 N 0.15343(14) 0.0899(2) 0.14375(16)
N10 N 0.30949(14) 0.3199(2) 0.18235(19)
N11 N 0.23692(15) 0.3210(2) 0.08826(18)
N12 N 0.15016(15) 0.2845(2) 0.05082(16)
N13 N 0.19485(16) 0.6166(2) 0.2727(2)
C1 C 0.30174(17) 0.4999(3) 0.2211(2)
C2 C 0.3895(2) 0.4819(3) 0.2617(3)
C3 C 0.3738(2) 0.5444(3) 0.2260(3)
C4 C 0.2870(2) 0.6187(3) 0.1606(2)
C5 C 0.2919(3) 0.6446(4) 0.1138(3)
C6 C 0.2607(5) 0.7045(6) 0.0773(3)
C7 C 0.2241(4) 0.7371(4) 0.0853(3)
C8 C 0.2211(2) 0.7072(3) 0.1331(2)
C9 C 0.34490(18) 0.3811(3) 0.2861(2)
C10 C 0.34747(17) 0.3126(3) 0.2509(2)
C11 C 0.14279(15) 0.4497(2) 0.15559(18)
C12 C 0.06413(17) 0.4108(3) 0.1362(2)
C13 C 0.05500(17) 0.4227(3) 0.0802(2)
C14 C 0.11066(17) 0.4726(2) 0.04534(19)
C15 C 0.06832(18) 0.4734(3) -0.0178(2)
C16 C 0.0780(2) 0.5008(4) -0.0603(2)
C17 C 0.1284(2) 0.5264(3) -0.0387(2)
C18 C 0.16836(19) 0.5218(3) 0.0254(2)
C19 C 0.14378(17) 0.4190(3) 0.25003(19)
C20 C 0.17486(17) 0.3426(3) 0.27521(19)
C21 C 0.15259(15) 0.2395(2) 0.19678(18)
C22 C 0.09784(17) 0.2467(3) 0.2282(2)
C23 C 0.07831(17) 0.1906(3) 0.1844(2)
C24 C 0.10861(17) 0.1279(3) 0.12399(19)
C25 C 0.05940(18) 0.1134(3) 0.0664(2)
C26 C 0.0584(2) 0.0552(3) 0.0286(2)
C27 C 0.1038(2) 0.0143(4) 0.0484(2)
C28 C 0.1505(2) 0.0334(3) 0.1056(2)
C29 C 0.25633(16) 0.3060(2) 0.1494(2)
C30 C 0.3229(2) 0.3449(3) 0.1424(3)
C31 C 0.2783(2) 0.3455(3) 0.0844(3)
C32 C 0.18202(19) 0.3085(3) 0.0358(2)
C33 C 0.1655(3) 0.3210(4) -0.0256(3)
C34 C 0.1127(3) 0.3049(5) -0.0732(3)
C35 C 0.0787(2) 0.2775(4) -0.0591(2)
C36 C 0.09877(19) 0.2694(3) 0.0033(2)
C37 C 0.1576(2) 0.6167(3) 0.2710(3)
C38 C 0.1074(4) 0.6161(4) 0.2661(6)
H1 H 0.42440 0.45940 0.28480
H2 H 0.39510 0.57570 0.21840
H3 H 0.31660 0.62080 0.10770
H4 H 0.26390 0.72440 0.04570
H5 H 0.20150 0.77880 0.05920
H6 H 0.19530 0.72850 0.13840
H7 H 0.31150 0.37770 0.28370
H8 H 0.37580 0.37870 0.33120
H9 H 0.38430 0.30860 0.26230
H10 H 0.33970 0.26390 0.26470
H11 H 0.03870 0.39380 0.14350
H12 H 0.02190 0.41570 0.03990
H13 H 0.03370 0.45560 -0.03180
H14 H 0.04980 0.50190 -0.10420
H15 H 0.13560 0.54670 -0.06700
H16 H 0.20360 0.53800 0.04040
H17 H 0.11610 0.42060 0.25820
H18 H 0.16870 0.46330 0.27280
H19 H 0.20820 0.34670 0.27750
H20 H 0.18530 0.33360 0.31860
H21 H 0.08340 0.26340 0.25020
H22 H 0.04700 0.16010 0.16880
H23 H 0.02800 0.14200 0.05360
H24 H 0.02590 0.04380 -0.01130
H25 H 0.10310 -0.02650 0.02330
H26 H 0.18230 0.00560 0.11890
H27 H 0.35770 0.35890 0.15460
H28 H 0.27490 0.35990 0.04710
H29 H 0.18950 0.33990 -0.03450
H30 H 0.09970 0.31280 -0.11600
H31 H 0.04240 0.26470 -0.09170
H32 H 0.07520 0.25220 0.01350
H33 H 0.10560 0.66300 0.28630
H34 H 0.10640 0.56960 0.28720
H35 H 0.07670 0.61530 0.22140
Ag2C Ag 0.20364(1) 0.27382(2) 0.17217(1)
Ag3C Ag 0.23703(1) 0.12052(2) 0.23577(1)
N9C N 0.34657(14) 0.5899(2) 0.35625(16)
N12C N 0.34984(15) 0.7845(2) 0.44918(16)
C21C C 0.34741(15) 0.7395(2) 0.30322(18)
C29C C 0.24367(16) 0.8060(2) 0.3506(2)
P1 P 0.50000 0.30989(11) 0.25000
F1 F 0.55968(15) 0.3072(3) 0.3089(2)
F2 F 0.50000 0.4007(6) 0.25000
F3 F 0.4866(4) 0.3138(9) 0.2988(5)
F4 F 0.50000 0.2220(8) 0.25000
F1A F 0.44032(15) 0.3072(3) 0.1911(2)
F3A F 0.5134(4) 0.3138(9) 0.2012(5)
P2 P 0.25825(5) 0.47259(9) 0.45074(6)
F7 F 0.31068(13) 0.4207(2) 0.48642(18)
F8 F 0.20563(15) 0.5239(3) 0.4150(2)
F9 F 0.29285(14) 0.5469(2) 0.45954(16)
F10 F 0.24925(17) 0.4529(3) 0.38561(16)
F11 F 0.22371(13) 0.3974(2) 0.44243(17)
F12 F 0.26779(17) 0.4914(2) 0.51604(18)
P3 P 0.43412(6) 0.21886(11) 0.43500(7)
F13 F 0.40253(16) 0.2895(2) 0.4379(2)
F14 F 0.46564(18) 0.1479(3) 0.43242(19)
F15 F 0.48385(13) 0.2334(2) 0.50679(18)
F16 F 0.4589(2) 0.2770(4) 0.4116(3)
F17 F 0.38472(19) 0.2036(3) 0.36430(17)
F18 F 0.40900(14) 0.1633(2) 0.45951(17)
P4 P 0.50000 0.07537(10) 0.75000
F19 F 0.51011(14) 0.1387(2) 0.71453(18)
F20 F 0.51099(16) 0.0106(2) 0.71531(16)
F21 F 0.43820(11) 0.0746(3) 0.69424(13)
F19A F 0.48989(14) 0.1387(2) 0.78547(18)
F20A F 0.48901(16) 0.0106(2) 0.78469(16)
F21A F 0.56180(11) 0.0746(3) 0.80576(13)
N14 N 0.4190(4) 0.3262(5) 0.6637(5)
C39 C 0.4195(3) 0.2879(5) 0.6273(4)
C40 C 0.4245(3) 0.2440(5) 0.5842(3)
H36 H 0.41300 0.27620 0.54720
H37 H 0.40190 0.19720 0.57070
H38 H 0.46210 0.22840 0.60530
N15 N 0.4857(2) 0.4557(4) 0.6159(3)
C41 C 0.4527(2) 0.4873(4) 0.6129(2)
C42 C 0.4097(2) 0.5284(5) 0.6087(3)
H39 H 0.41990 0.53940 0.65130
H40 H 0.37710 0.49620 0.58590
H41 H 0.40270 0.57770 0.58590
F5? F 0.4758(8) 0.3711(12) 0.2658(13)
F6? F 0.4852(9) 0.2445(15) 0.2796(9)
loop_
_geom_bond_atom_site_label_1
_geom_bond_atom_site_label_2
_geom_bond_site_symmetry_1
_geom_bond_site_symmetry_2
Ag1 Ag3 1_555 1_555
Ag2 Ag3 1_555 1_555
Ag3 N3 1_555 1_555
N1 C1 1_555 1_555
N2 C1 1_555 1_555
N3 C4 1_555 1_555
N4 C11 1_555 1_555
N5 C11 1_555 1_555
N6 Ag1 1_555 1_555
N7 C20 1_555 1_555
N8 C21 1_555 1_555
N9 C24 1_555 1_555
N10 C10 1_555 1_555
N11 C29 1_555 1_555
N12 C32 1_555 1_555
N13 Ag3 1_555 1_555
C1 Ag1 1_555 1_555
C2 N1 1_555 1_555
C3 N2 1_555 1_555
C4 N2 1_555 1_555
C5 C4 1_555 1_555
C6 C5 1_555 1_555
C7 C6 1_555 1_555
C8 N3 1_555 1_555
C9 N1 1_555 1_555
C10 C9 1_555 1_555
C11 Ag1 1_555 1_555
C12 N4 1_555 1_555
C13 N5 1_555 1_555
C14 N5 1_555 1_555
C15 C14 1_555 1_555
C16 C15 1_555 1_555
C17 C16 1_555 1_555
C18 N6 1_555 1_555
C19 N4 1_555 1_555
C20 C19 1_555 1_555
C21 N7 1_555 1_555
C22 N7 1_555 1_555
C23 N8 1_555 1_555
C24 N8 1_555 1_555
C25 C24 1_555 1_555
C26 C25 1_555 1_555
C27 C26 1_555 1_555
C28 N9 1_555 1_555
C29 N10 1_555 1_555
C30 N10 1_555 1_555
C31 N11 1_555 1_555
C32 N11 1_555 1_555
C33 C32 1_555 1_555
C34 C33 1_555 1_555
C35 C34 1_555 1_555
C36 N12 1_555 1_555
C37 N13 1_555 1_555
C38 C37 1_555 1_555
H1 C2 1_555 1_555
H2 C3 1_555 1_555
H3 C5 1_555 1_555
H4 C6 1_555 1_555
H5 C7 1_555 1_555
H6 C8 1_555 1_555
H7 C9 1_555 1_555
H8 C9 1_555 1_555
H9 C10 1_555 1_555
H10 C10 1_555 1_555
H11 C12 1_555 1_555
H12 C13 1_555 1_555
H13 C15 1_555 1_555
H14 C16 1_555 1_555
H15 C17 1_555 1_555
H16 C18 1_555 1_555
H17 C19 1_555 1_555
H18 C19 1_555 1_555
H19 C20 1_555 1_555
H20 C20 1_555 1_555
H21 C22 1_555 1_555
H22 C23 1_555 1_555
H23 C25 1_555 1_555
H24 C26 1_555 1_555
H25 C27 1_555 1_555
H26 C28 1_555 1_555
H27 C30 1_555 1_555
H28 C31 1_555 1_555
H29 C33 1_555 1_555
H30 C34 1_555 1_555
H31 C35 1_555 1_555
H32 C36 1_555 1_555
H33 C38 1_555 1_555
H34 C38 1_555 1_555
H35 C38 1_555 1_555
P1 F1 1_555 1_555
F2 P1 1_555 1_555
F3 P1 1_555 1_555
F4 P1 1_555 1_555
P2 F7 1_555 1_555
F8 P2 1_555 1_555
F9 P2 1_555 1_555
F10 P2 1_555 1_555
F11 P2 1_555 1_555
F12 P2 1_555 1_555
P3 F13 1_555 1_555
F14 P3 1_555 1_555
F15 P3 1_555 1_555
F16 P3 1_555 1_555
F17 P3 1_555 1_555
F18 P3 1_555 1_555
P4 F19 1_555 1_555
F20 P4 1_555 1_555
F21 P4 1_555 1_555
N14 C39 1_555 1_555
C39 C40 1_555 1_555
C40 H36 1_555 1_555
H37 C40 1_555 1_555
H38 C40 1_555 1_555
N15 C41 1_555 1_555
C41 C42 1_555 1_555
C42 H39 1_555 1_555
H40 C42 1_555 1_555
H41 C42 1_555 1_555
Ag2C N12 1_555 1_555
Ag3C N9 1_555 1_555
N9C Ag3 1_555 1_555
N12C Ag2 1_555 1_555
C21C Ag2 1_555 1_555
C29C Ag2 1_555 1_555
F1A P1 1_555 1_555
F3A P1 1_555 1_555
F19A P4 1_555 1_555
F20A P4 1_555 1_555
F21A P4 1_555 1_555
N6 C14 1_555 1_555
C2 C3 1_555 1_555
C7 C8 1_555 1_555
C12 C13 1_555 1_555
C17 C18 1_555 1_555
C21 Ag2C 1_555 1_555
C22 C23 1_555 1_555
C27 C28 1_555 1_555
C29 Ag2C 1_555 1_555
C30 C31 1_555 1_555
C35 C36 1_555 1_555
Ag2C Ag3C 1_555 1_555

#END
