
#######################################################################
#
#                 Cambridge Crystallographic Data Centre
#                                CCDC 
#
#######################################################################
#
# If this CIF has been generated from an entry in the Cambridge 
# Structural Database, then it will include bibliographic, chemical, 
# crystal, experimental, refinement or atomic coordinate data resulting 
# from the CCDC's data processing and validation procedures.
#
#######################################################################

data_VUFRIY
_symmetry_cell_setting           monoclinic
_symmetry_space_group_name_H-M   'P 21/n'
_symmetry_Int_Tables_number      14
_space_group_name_Hall           '-P 2yn'
loop_
_symmetry_equiv_pos_site_id
_symmetry_equiv_pos_as_xyz
1 x,y,z
2 1/2-x,1/2+y,1/2-z
3 -x,-y,-z
4 1/2+x,1/2-y,1/2+z
_cell_length_a                   10.500(2)
_cell_length_b                   13.361(3)
_cell_length_c                   14.973(3)
_cell_angle_alpha                90
_cell_angle_beta                 99.153(3)
_cell_angle_gamma                90
_cell_volume                     2073.82
loop_
_atom_site_label
_atom_site_type_symbol
_atom_site_fract_x
_atom_site_fract_y
_atom_site_fract_z
Cd1 Cd 0.0000 0.0000 1.0000
Cd2 Cd 0.5000 0.5000 1.0000
Br1 Br -0.07347(6) 0.00992(4) 0.82336(3)
Br2 Br 0.69163(5) 0.37545(4) 0.96878(4)
C1 C 0.2403(4) 0.0933(3) 0.8261(3)
H1 H 0.1502 0.1115 0.8227
H2 H 0.2423 0.0272 0.7997
C2 C 0.2948(5) 0.1599(4) 0.7703(3)
H3 H 0.2469 0.1561 0.7094
H4 H 0.3830 0.1396 0.7679
C3 C -0.0006(5) 0.4219(3) 0.8812(3)
H5 H -0.0385 0.4002 0.8210
H6 H -0.0539 0.4752 0.8992
C4 C 0.1253(4) 0.4593(3) 0.8789(3)
H7 H 0.1182 0.5139 0.8356
H8 H 0.1579 0.4873 0.9379
C5 C 0.5406(5) 0.1260(4) 1.0987(3)
H9 H 0.5366 0.1003 1.1587
H10 H 0.6181 0.0998 1.0796
C6 C 0.5481(4) 0.2309(3) 1.1024(3)
H11 H 0.6228 0.2486 1.1465
H12 H 0.5645 0.2544 1.0440
C7 C 0.0673(4) 0.2382(3) 1.1591(2)
H13 H 0.1021 0.1709 1.1648
H14 H -0.0110 0.2380 1.1859
C8 C 0.1578(4) 0.3026(4) 1.2128(3)
H15 H 0.1798 0.2741 1.2728
H16 H 0.1173 0.3670 1.2188
N1 N 0.3222(5) 0.0491(4) 1.0532(3)
H17 H 0.3125 0.0290 1.1062
N2 N 0.2295(4) 0.0404(3) 0.9801(3)
C9 C 0.2913(5) 0.0850(4) 0.9162(3)
N3 N 0.4115(4) 0.1174(3) 0.9461(3)
C10 C 0.4273(4) 0.0906(3) 1.0360(3)
N4 N -0.0295(4) 0.2402(3) 0.9293(3)
H18 H -0.0571 0.2157 0.8767
N5 N -0.0102(4) 0.1876(3) 1.0057(2)
C11 C 0.0329(4) 0.2580(3) 1.0685(3)
N6 N 0.0395(4) 0.3519(3) 1.0369(2)
C12 C -0.0002(4) 0.3360(3) 0.9456(2)
N7 N 0.3897(5) 0.3216(4) 0.8426(3)
H19 H 0.4699 0.3068 0.8453
N8 N 0.3466(4) 0.4053(3) 0.8789(3)
C13 C 0.2162(4) 0.3921(3) 0.8568(3)
N9 N 0.1798(4) 0.3102(3) 0.8126(2)
C14 C 0.2945(4) 0.2659(3) 0.8029(3)
N10 N 0.3143(5) 0.3971(3) 1.1321(3)
H20 H 0.2740 0.4534 1.1266
N11 N 0.4198(4) 0.3806(3) 1.0990(2)
C15 C 0.4438(4) 0.2831(4) 1.1237(3)
N12 N 0.3604(4) 0.2411(3) 1.1712(3)
C16 C 0.2742(4) 0.3179(3) 1.1756(2)
Cd2_2 Cd -0.5000 -0.5000 1.0000
Br1B Br 0.07347(6) -0.00992(4) 1.17664(3)
Br2B Br 0.30837(5) 0.62455(4) 1.03122(4)
C1B C -0.2403(4) -0.0933(3) 1.1739(3)
H1B H -0.1502 -0.1115 1.1773
H2B H -0.2423 -0.0272 1.2003
C2B C -0.2948(5) -0.1599(4) 1.2297(3)
H3B H -0.2469 -0.1561 1.2906
H4B H -0.3830 -0.1396 1.2321
C3B C 0.0006(5) -0.4219(3) 1.1188(3)
H5B H 0.0385 -0.4002 1.1790
H6B H 0.0539 -0.4752 1.1008
C4B C -0.1253(4) -0.4593(3) 1.1211(3)
H7B H -0.1182 -0.5139 1.1644
H8B H -0.1579 -0.4873 1.0621
C5B C -0.5406(5) -0.1260(4) 0.9013(3)
H9B H -0.5366 -0.1003 0.8413
H10B H -0.6181 -0.0998 0.9204
C6B C -0.5481(4) -0.2309(3) 0.8976(3)
H11B H -0.6228 -0.2486 0.8535
H12B H -0.5645 -0.2544 0.9560
C7B C -0.0673(4) -0.2382(3) 0.8409(2)
H13B H -0.1021 -0.1709 0.8352
H14B H 0.0110 -0.2380 0.8141
C8B C -0.1578(4) -0.3026(4) 0.7872(3)
H15B H -0.1798 -0.2741 0.7272
H16B H -0.1173 -0.3670 0.7812
N1B N -0.3222(5) -0.0491(4) 0.9468(3)
H17B H -0.3125 -0.0290 0.8938
N2B N -0.2295(4) -0.0404(3) 1.0199(3)
C9B C -0.2913(5) -0.0850(4) 1.0838(3)
N3B N -0.4115(4) -0.1174(3) 1.0539(3)
C10B C -0.4273(4) -0.0906(3) 0.9640(3)
N4B N 0.0295(4) -0.2402(3) 1.0707(3)
H18B H 0.0571 -0.2157 1.1233
N5B N 0.0102(4) -0.1876(3) 0.9943(2)
C11B C -0.0329(4) -0.2580(3) 0.9315(3)
N6B N -0.0395(4) -0.3519(3) 0.9631(2)
C12B C 0.0002(4) -0.3360(3) 1.0544(2)
N7B N -0.3897(5) -0.3216(4) 1.1574(3)
H19B H -0.4699 -0.3068 1.1547
N8B N -0.3466(4) -0.4053(3) 1.1211(3)
N8B_2 N 0.6534(4) 0.5947(3) 1.1211(3)
C13B C -0.2162(4) -0.3921(3) 1.1432(3)
N9B N -0.1798(4) -0.3102(3) 1.1874(2)
C14B C -0.2945(4) -0.2659(3) 1.1971(3)
N10B N -0.3143(5) -0.3971(3) 0.8679(3)
H20B H -0.2740 -0.4534 0.8734
N11B N -0.4198(4) -0.3806(3) 0.9010(2)
N11B_2 N 0.5802(4) 0.6194(3) 0.9010(2)
C15B C -0.4438(4) -0.2831(4) 0.8763(3)
N12B N -0.3604(4) -0.2411(3) 0.8288(3)
C16B C -0.2742(4) -0.3179(3) 0.8244(2)
loop_
_geom_bond_atom_site_label_1
_geom_bond_atom_site_label_2
_geom_bond_site_symmetry_1
_geom_bond_site_symmetry_2
Cd1 Br1 1_555 1_555
Cd2 Br2 1_555 1_555
C1 H1 1_555 1_555
H2 C1 1_555 1_555
C2 C1 1_555 1_555
H3 C2 1_555 1_555
H4 C2 1_555 1_555
C3 H5 1_555 1_555
H6 C3 1_555 1_555
C4 C3 1_555 1_555
H7 C4 1_555 1_555
H8 C4 1_555 1_555
C5 H9 1_555 1_555
H10 C5 1_555 1_555
C6 C5 1_555 1_555
H11 C6 1_555 1_555
H12 C6 1_555 1_555
C7 H13 1_555 1_555
H14 C7 1_555 1_555
C8 C7 1_555 1_555
H15 C8 1_555 1_555
H16 C8 1_555 1_555
N1 H17 1_555 1_555
N2 Cd1 1_555 1_555
C9 C1 1_555 1_555
N3 C9 1_555 1_555
C10 C5 1_555 1_555
N4 H18 1_555 1_555
N5 Cd1 1_555 1_555
C11 C7 1_555 1_555
N6 C11 1_555 1_555
C12 C3 1_555 1_555
N7 H19 1_555 1_555
N8 Cd2 1_555 1_555
C13 C4 1_555 1_555
N9 C13 1_555 1_555
C14 C2 1_555 1_555
N10 H20 1_555 1_555
N11 Cd2 1_555 1_555
C15 C6 1_555 1_555
N12 C15 1_555 1_555
C16 C8 1_555 1_555
Cd2_2 N8B 1_555 1_555
Br1B Cd1 1_555 1_555
Br2B Cd2 1_555 1_555
C1B H1B 1_555 1_555
H2B C1B 1_555 1_555
C2B C1B 1_555 1_555
H3B C2B 1_555 1_555
H4B C2B 1_555 1_555
C3B H5B 1_555 1_555
H6B C3B 1_555 1_555
C4B C3B 1_555 1_555
H7B C4B 1_555 1_555
H8B C4B 1_555 1_555
C5B H9B 1_555 1_555
H10B C5B 1_555 1_555
C6B C5B 1_555 1_555
H11B C6B 1_555 1_555
H12B C6B 1_555 1_555
C7B H13B 1_555 1_555
H14B C7B 1_555 1_555
C8B C7B 1_555 1_555
H15B C8B 1_555 1_555
H16B C8B 1_555 1_555
N1B H17B 1_555 1_555
N2B Cd1 1_555 1_555
C9B C1B 1_555 1_555
N3B C9B 1_555 1_555
C10B C5B 1_555 1_555
N4B H18B 1_555 1_555
N5B Cd1 1_555 1_555
C11B C7B 1_555 1_555
N6B C11B 1_555 1_555
C12B C3B 1_555 1_555
N7B H19B 1_555 1_555
N8B N7B 1_555 1_555
N8B_2 Cd2 1_555 1_555
C13B C4B 1_555 1_555
N9B C13B 1_555 1_555
C14B C2B 1_555 1_555
N10B H20B 1_555 1_555
N11B Cd2_2 1_555 1_555
N11B_2 Cd2 1_555 1_555
C15B C6B 1_555 1_555
N12B C15B 1_555 1_555
C16B C8B 1_555 1_555
N1 N2 1_555 1_555
N1 C10 1_555 1_555
N2 C9 1_555 1_555
N3 C10 1_555 1_555
N4 N5 1_555 1_555
N4 C12 1_555 1_555
N5 C11 1_555 1_555
N6 C12 1_555 1_555
N7 N8 1_555 1_555
N7 C14 1_555 1_555
N8 C13 1_555 1_555
N9 C14 1_555 1_555
N10 N11 1_555 1_555
N10 C16 1_555 1_555
N11 C15 1_555 1_555
N12 C16 1_555 1_555
N1B N2B 1_555 1_555
N1B C10B 1_555 1_555
N2B C9B 1_555 1_555
N3B C10B 1_555 1_555
N4B N5B 1_555 1_555
N4B C12B 1_555 1_555
N5B C11B 1_555 1_555
N6B C12B 1_555 1_555
N7B C14B 1_555 1_555
N8B C13B 1_555 1_555
N9B C14B 1_555 1_555
N10B N11B 1_555 1_555
N10B C16B 1_555 1_555
N11B C15B 1_555 1_555
N12B C16B 1_555 1_555

#END
