
#######################################################################
#
#                 Cambridge Crystallographic Data Centre
#                                CCDC 
#
#######################################################################
#
# If this CIF has been generated from an entry in the Cambridge 
# Structural Database, then it will include bibliographic, chemical, 
# crystal, experimental, refinement or atomic coordinate data resulting 
# from the CCDC's data processing and validation procedures.
#
#######################################################################

data_VUFSAR
_symmetry_cell_setting           monoclinic
_symmetry_space_group_name_H-M   'P 21/c'
_symmetry_Int_Tables_number      14
_space_group_name_Hall           '-P 2ybc'
loop_
_symmetry_equiv_pos_site_id
_symmetry_equiv_pos_as_xyz
1 x,y,z
2 -x,1/2+y,1/2-z
3 -x,-y,-z
4 x,1/2-y,1/2+z
_cell_length_a                   17.6905(9)
_cell_length_b                   9.7523(5)
_cell_length_c                   19.9933(10)
_cell_angle_alpha                90
_cell_angle_beta                 108.7960(10)
_cell_angle_gamma                90
_cell_volume                     3265.36
loop_
_atom_site_label
_atom_site_type_symbol
_atom_site_fract_x
_atom_site_fract_y
_atom_site_fract_z
Cu1 Cu 0.295701(19) 0.28492(3) 0.154708(19)
Cu2 Cu 0.27584(2) 0.73120(4) 0.47919(2)
N1 N 0.40222(13) 0.2069(2) 0.21236(12)
N2 N 0.37063(13) 0.8028(2) 0.45761(12)
N3 N 0.19039(14) 0.3677(2) 0.10009(13)
N4 N 0.17556(14) 0.6543(3) 0.48637(13)
O1 O 0.25288(12) 0.1123(2) 0.17946(11)
O2 O 0.29113(15) -0.1014(2) 0.21354(13)
O3 O 0.36243(11) 0.4347(2) 0.13912(11)
O4 O 0.48221(12) 0.4666(2) 0.12804(12)
O5 O 0.30393(12) 0.3596(2) 0.27864(11)
O6 O 0.26490(12) 0.5941(2) 0.36359(11)
O7 O 0.34474(11) 0.5766(2) 0.52192(11)
O8 O 0.47343(13) 0.5312(2) 0.57557(13)
O9 O 0.22971(13) 0.9097(2) 0.44508(13)
O10 O 0.26708(16) 1.1248(2) 0.43657(14)
O11 O 0.3057(2) 0.1852(4) 0.04965(16)
O12 O 0.3298(2) 0.7975(3) 0.6099(2)
C1 C 0.30576(19) 0.0184(3) 0.20193(16)
C2 C 0.39143(18) 0.0563(3) 0.21158(17)
H1 H 0.4258 0.0180 0.2557
H2 H 0.4070 0.0170 0.1734
C3 C 0.43428(17) 0.3971(3) 0.14546(15)
C4 C 0.45762(17) 0.2540(3) 0.17570(17)
H3 H 0.4562 0.1909 0.1378
H4 H 0.5116 0.2556 0.2086
C5 C 0.42836(18) 0.2638(3) 0.28537(16)
H5 H 0.4478 0.3565 0.2841
H6 H 0.4725 0.2092 0.3146
C6 C 0.36412(19) 0.2665(3) 0.31873(16)
H7 H 0.3417 0.1755 0.3182
H8 H 0.3855 0.2970 0.3674
C7 C 0.23666(19) 0.3691(4) 0.30363(18)
H9 H 0.2199 0.2772 0.3110
H10 H 0.1928 0.4123 0.2675
C8 C 0.2531(2) 0.4486(3) 0.37103(18)
H11 H 0.2087 0.4362 0.3889
H12 H 0.3004 0.4113 0.4058
C9 C 0.34292(18) 0.6278(3) 0.36056(17)
H13 H 0.3446 0.6139 0.3130
H14 H 0.3828 0.5692 0.3924
C10 C 0.35983(19) 0.7746(3) 0.38157(16)
H15 H 0.3161 0.8304 0.3526
H16 H 0.4078 0.8025 0.3717
C11 C 0.2823(2) 1.0021(3) 0.44781(17)
C12 C 0.36805(18) 0.9534(3) 0.46754(17)
H17 H 0.3945 0.9994 0.4382
H18 H 0.3962 0.9764 0.5165
C13 C 0.41982(17) 0.6037(3) 0.53756(15)
C14 C 0.44159(17) 0.7345(3) 0.50730(17)
H19 H 0.4674 0.7970 0.5456
H20 H 0.4794 0.7134 0.4828
C15 C 0.1654(2) 0.4890(4) 0.1139(2)
H21 H 0.1991 0.5401 0.1509
C16 C 0.0921(2) 0.5436(4) 0.0764(2)
H22 H 0.0777 0.6295 0.0886
C17 C 0.04002(16) 0.4723(3) 0.02110(15)
C18 C 0.0678(2) 0.3479(4) 0.0054(2)
H23 H 0.0361 0.2963 -0.0324
C19 C 0.1415(2) 0.2997(4) 0.0449(2)
H24 H 0.1583 0.2158 0.0327
C20 C 0.11052(19) 0.6403(5) 0.43038(18)
H25 H 0.1119 0.6725 0.3870
C21 C 0.0416(2) 0.5808(5) 0.43336(19)
H26 H -0.0021 0.5723 0.3925
C22 C 0.03679(16) 0.5334(3) 0.49715(17)
C23 C 0.10374(19) 0.5509(4) 0.55532(18)
H27 H 0.1035 0.5232 0.5997
C24 C 0.17098(19) 0.6095(4) 0.54733(18)
H28 H 0.2159 0.6180 0.5872
H29 H 0.317(2) 0.117(5) 0.039(2)
H30 H 0.297(3) 0.229(5) 0.024(3)
H31 H 0.3540(17) 0.775(3) 0.6530(8)
H32 H 0.330(13) 0.881(3) 0.603(3)
Cu1B Cu -0.295701(19) 0.71508(3) -0.154708(19)
Cu2B Cu -0.27584(2) 0.26880(4) -0.47919(2)
Cu2B_2 Cu -0.27584(2) 0.26880(4) 0.52081(2)
N1B N -0.40222(13) 0.7931(2) -0.21236(12)
N2B N -0.37063(13) 0.1972(2) -0.45761(12)
N3B N -0.19039(14) 0.6323(2) -0.10009(13)
N4B N -0.17556(14) 0.3457(3) 0.51363(13)
N4B_2 N -0.17556(14) 0.3457(3) -0.48637(13)
O1B O -0.25288(12) 0.8877(2) -0.17946(11)
O2B O -0.29113(15) 1.1014(2) -0.21354(13)
O3B O -0.36243(11) 0.5653(2) -0.13912(11)
O4B O -0.48221(12) 0.5334(2) -0.12804(12)
O5B O -0.30393(12) 0.6404(2) -0.27864(11)
O6B O -0.26490(12) 0.4059(2) -0.36359(11)
O7B O -0.34474(11) 0.4234(2) -0.52192(11)
O8B O -0.47343(13) 0.4688(2) -0.57557(13)
O9B O -0.22971(13) 0.0903(2) -0.44508(13)
O10B O -0.26708(16) -0.1248(2) -0.43657(14)
O11B O -0.3057(2) 0.8148(4) -0.04965(16)
O12B O -0.3298(2) 0.2025(3) -0.6099(2)
C1B C -0.30576(19) 0.9816(3) -0.20193(16)
C2B C -0.39143(18) 0.9437(3) -0.21158(17)
H1B H -0.4258 0.9820 -0.2557
H2B H -0.4070 0.9830 -0.1734
C3B C -0.43428(17) 0.6029(3) -0.14546(15)
C4B C -0.45762(17) 0.7460(3) -0.17570(17)
H3B H -0.4562 0.8091 -0.1378
H4B H -0.5116 0.7444 -0.2086
C5B C -0.42836(18) 0.7362(3) -0.28537(16)
H5B H -0.4478 0.6435 -0.2841
H6B H -0.4725 0.7908 -0.3146
C6B C -0.36412(19) 0.7335(3) -0.31873(16)
H7B H -0.3417 0.8245 -0.3182
H8B H -0.3855 0.7030 -0.3674
C7B C -0.23666(19) 0.6309(4) -0.30363(18)
H9B H -0.2199 0.7228 -0.3110
H10B H -0.1928 0.5877 -0.2675
C8B C -0.2531(2) 0.5514(3) -0.37103(18)
H11B H -0.2087 0.5638 -0.3889
H12B H -0.3004 0.5887 -0.4058
C9B C -0.34292(18) 0.3722(3) -0.36056(17)
H13B H -0.3446 0.3861 -0.3130
H14B H -0.3828 0.4308 -0.3924
C10B C -0.35983(19) 0.2254(3) -0.38157(16)
H15B H -0.3161 0.1696 -0.3526
H16B H -0.4078 0.1975 -0.3717
C11B C -0.2823(2) -0.0021(3) -0.44781(17)
C12B C -0.36805(18) 0.0466(3) -0.46754(17)
H17B H -0.3945 0.0006 -0.4382
H18B H -0.3962 0.0236 -0.5165
C13B C -0.41982(17) 0.3963(3) -0.53756(15)
C14B C -0.44159(17) 0.2655(3) -0.50730(17)
H19B H -0.4674 0.2030 -0.5456
H20B H -0.4794 0.2866 -0.4828
C15B C -0.1654(2) 0.5110(4) -0.1139(2)
H21B H -0.1991 0.4599 -0.1509
C16B C -0.0921(2) 0.4564(4) -0.0764(2)
H22B H -0.0777 0.3705 -0.0886
C17B C -0.04002(16) 0.5277(3) -0.02110(15)
C18B C -0.0678(2) 0.6521(4) -0.0054(2)
H23B H -0.0361 0.7037 0.0324
C19B C -0.1415(2) 0.7003(4) -0.0449(2)
H24B H -0.1583 0.7842 -0.0327
C20B C -0.11052(19) 0.3597(5) 0.56962(18)
H25B H -0.1119 0.3275 0.6130
C21B C -0.0416(2) 0.4192(5) 0.56664(19)
H26B H 0.0021 0.4277 0.6075
C22B C -0.03679(16) 0.4666(3) 0.50285(17)
C23B C -0.10374(19) 0.4491(4) 0.44468(18)
H27B H -0.1035 0.4768 0.4003
C24B C -0.17098(19) 0.3905(4) 0.45267(18)
H28B H -0.2159 0.3820 0.4128
H29B H -0.317(2) 0.883(5) -0.039(2)
H30B H -0.297(3) 0.771(5) -0.024(3)
H31B H -0.3540(17) 0.225(3) -0.6530(8)
H32B H -0.330(13) 0.119(3) -0.603(3)
O13 O 0.0866(2) 0.0278(6) 0.3437(2)
H33 H 0.109(9) 0.101(7) 0.360(13)
H34 H 0.116(7) -0.040(10) 0.350(12)
O14 O 0.1656(3) 0.7404(6) 0.2293(3)
H35 H 0.132(6) 0.695(10) 0.241(9)
H36 H 0.161(7) 0.8248(16) 0.232(7)
O15 O 0.0449(3) 0.1275(8) 0.7277(4)
H37 H 0.046(7) 0.17(3) 0.764(7)
H38 H 0.000(3) 0.120(13) 0.697(5)
O16 O -0.0003(3) 0.2245(6) 0.8366(3)
H39 H -0.031(5) 0.291(7) 0.831(10)
H42 H 0.023(8) 0.217(19) 0.807(6)
O17 O 0.1088(2) 0.1086(5) 0.21523(19)
H40 H 0.097(4) 0.06(3) 0.243(13)
H41 H 0.1564(14) 0.106(9) 0.217(4)
loop_
_geom_bond_atom_site_label_1
_geom_bond_atom_site_label_2
_geom_bond_site_symmetry_1
_geom_bond_site_symmetry_2
Cu1 N1 1_555 1_555
Cu2 N2 1_555 1_555
N1 C2 1_555 1_555
N2 C10 1_555 1_555
N3 Cu1 1_555 1_555
N4 Cu2 1_555 1_555
O1 Cu1 1_555 1_555
O2 C1 1_555 1_555
O3 Cu1 1_555 1_555
O4 C3 1_555 1_555
O5 Cu1 1_555 1_555
O6 Cu2 1_555 1_555
O7 Cu2 1_555 1_555
O8 C13 1_555 1_555
O9 Cu2 1_555 1_555
O10 C11 1_555 1_555
O11 Cu1 1_555 1_555
O12 Cu2 1_555 1_555
O13 H33 1_555 1_555
O14 H35 1_555 1_555
O15 H37 1_555 1_555
O16 H39 1_555 1_555
O17 H40 1_555 1_555
C1 O1 1_555 1_555
C2 C1 1_555 1_555
H1 C2 1_555 1_555
H2 C2 1_555 1_555
C3 O3 1_555 1_555
C4 N1 1_555 1_555
H3 C4 1_555 1_555
H4 C4 1_555 1_555
C5 N1 1_555 1_555
H5 C5 1_555 1_555
H6 C5 1_555 1_555
C6 O5 1_555 1_555
H7 C6 1_555 1_555
H8 C6 1_555 1_555
C7 O5 1_555 1_555
H9 C7 1_555 1_555
H10 C7 1_555 1_555
C8 O6 1_555 1_555
H11 C8 1_555 1_555
H12 C8 1_555 1_555
C9 O6 1_555 1_555
H13 C9 1_555 1_555
H14 C9 1_555 1_555
C10 C9 1_555 1_555
H15 C10 1_555 1_555
H16 C10 1_555 1_555
C11 O9 1_555 1_555
C12 N2 1_555 1_555
H17 C12 1_555 1_555
H18 C12 1_555 1_555
C13 O7 1_555 1_555
C14 N2 1_555 1_555
H19 C14 1_555 1_555
H20 C14 1_555 1_555
C15 N3 1_555 1_555
H21 C15 1_555 1_555
C16 C15 1_555 1_555
H22 C16 1_555 1_555
C17 C16 1_555 1_555
C18 C17 1_555 1_555
H23 C18 1_555 1_555
C19 N3 1_555 1_555
H24 C19 1_555 1_555
C20 N4 1_555 1_555
H25 C20 1_555 1_555
C21 C20 1_555 1_555
H26 C21 1_555 1_555
C22 C21 1_555 1_555
C23 C22 1_555 1_555
H27 C23 1_555 1_555
C24 N4 1_555 1_555
H28 C24 1_555 1_555
H29 O11 1_555 1_555
H30 O11 1_555 1_555
H31 O12 1_555 1_555
H32 O12 1_555 1_555
H34 O13 1_555 1_555
H36 O14 1_555 1_555
H38 O15 1_555 1_555
H41 O17 1_555 1_555
H42 O16 1_555 1_555
Cu1B N1B 1_555 1_555
Cu2B N2B 1_555 1_555
Cu2B_2 N4B 1_555 1_555
N1B C2B 1_555 1_555
N2B C10B 1_555 1_555
N3B Cu1B 1_555 1_555
N4B C20B 1_555 1_555
N4B_2 Cu2B 1_555 1_555
O1B Cu1B 1_555 1_555
O2B C1B 1_555 1_555
O3B Cu1B 1_555 1_555
O4B C3B 1_555 1_555
O5B Cu1B 1_555 1_555
O6B Cu2B 1_555 1_555
O7B Cu2B 1_555 1_555
O8B C13B 1_555 1_555
O9B Cu2B 1_555 1_555
O10B C11B 1_555 1_555
O11B Cu1B 1_555 1_555
O12B Cu2B 1_555 1_555
C1B O1B 1_555 1_555
C2B C1B 1_555 1_555
H1B C2B 1_555 1_555
H2B C2B 1_555 1_555
C3B O3B 1_555 1_555
C4B N1B 1_555 1_555
H3B C4B 1_555 1_555
H4B C4B 1_555 1_555
C5B N1B 1_555 1_555
H5B C5B 1_555 1_555
H6B C5B 1_555 1_555
C6B O5B 1_555 1_555
H7B C6B 1_555 1_555
H8B C6B 1_555 1_555
C7B O5B 1_555 1_555
H9B C7B 1_555 1_555
H10B C7B 1_555 1_555
C8B O6B 1_555 1_555
H11B C8B 1_555 1_555
H12B C8B 1_555 1_555
C9B O6B 1_555 1_555
H13B C9B 1_555 1_555
H14B C9B 1_555 1_555
C10B C9B 1_555 1_555
H15B C10B 1_555 1_555
H16B C10B 1_555 1_555
C11B O9B 1_555 1_555
C12B N2B 1_555 1_555
H17B C12B 1_555 1_555
H18B C12B 1_555 1_555
C13B O7B 1_555 1_555
C14B N2B 1_555 1_555
H19B C14B 1_555 1_555
H20B C14B 1_555 1_555
C15B N3B 1_555 1_555
H21B C15B 1_555 1_555
C16B C15B 1_555 1_555
H22B C16B 1_555 1_555
C17B C17 1_555 1_555
C18B C17B 1_555 1_555
H23B C18B 1_555 1_555
C19B N3B 1_555 1_555
H24B C19B 1_555 1_555
C20B H25B 1_555 1_555
C21B C20B 1_555 1_555
H26B C21B 1_555 1_555
C22B C22 1_555 1_555
C23B C22B 1_555 1_555
H27B C23B 1_555 1_555
C24B N4B 1_555 1_555
H28B C24B 1_555 1_555
H29B O11B 1_555 1_555
H30B O11B 1_555 1_555
H31B O12B 1_555 1_555
H32B O12B 1_555 1_555
C3 C4 1_555 1_555
C5 C6 1_555 1_555
C7 C8 1_555 1_555
C11 C12 1_555 1_555
C13 C14 1_555 1_555
C18 C19 1_555 1_555
C23 C24 1_555 1_555
C3B C4B 1_555 1_555
C5B C6B 1_555 1_555
C7B C8B 1_555 1_555
C11B C12B 1_555 1_555
C13B C14B 1_555 1_555
C16B C17B 1_555 1_555
C18B C19B 1_555 1_555
C21B C22B 1_555 1_555
C23B C24B 1_555 1_555

#END
