
#######################################################################
#
#                 Cambridge Crystallographic Data Centre
#                                CCDC 
#
#######################################################################
#
# If this CIF has been generated from an entry in the Cambridge 
# Structural Database, then it will include bibliographic, chemical, 
# crystal, experimental, refinement or atomic coordinate data resulting 
# from the CCDC's data processing and validation procedures.
#
#######################################################################

data_VUGBOO
_symmetry_cell_setting           monoclinic
_symmetry_space_group_name_H-M   'C 2/c'
_symmetry_Int_Tables_number      15
_space_group_name_Hall           '-C 2yn'
loop_
_symmetry_equiv_pos_site_id
_symmetry_equiv_pos_as_xyz
1 x,y,z
2 1/2+x,1/2+y,z
3 -x,y,1/2-z
4 1/2-x,1/2+y,1/2-z
5 -x,-y,-z
6 1/2-x,1/2-y,-z
7 x,-y,1/2+z
8 1/2+x,1/2-y,1/2+z
_cell_length_a                   12.9020(7)
_cell_length_b                   13.0699(7)
_cell_length_c                   10.5613(12)
_cell_angle_alpha                90
_cell_angle_beta                 99.76(6)
_cell_angle_gamma                90
_cell_volume                     1755.15
loop_
_atom_site_label
_atom_site_type_symbol
_atom_site_fract_x
_atom_site_fract_y
_atom_site_fract_z
Cu1 Cu 0.0000 0.0000 0.0000
O1 O -0.0770(1) 0.1227(1) 0.0388(1)
O2 O -0.1351(1) 0.1771(1) -0.1612(1)
O3 O 0.0000 -0.0427(2) 0.2500
N1 N 0.1343(1) 0.0782(1) 0.0529(1)
N2 N 0.2490(1) 0.1816(1) 0.1716(2)
C1 C 0.1512(2) 0.1414(1) 0.1520(2)
C2 C 0.4014(2) 0.1598(1) 0.0516(2)
C3 C 0.4260(2) 0.1102(2) -0.0549(3)
C4 C 0.3544(2) 0.0466(2) -0.1324(3)
C5 C 0.2545(2) 0.0297(2) -0.1049(2)
C6 C 0.2279(1) 0.0784(1) 0.0021(2)
C7 C 0.3001(1) 0.1432(1) 0.0775(2)
C8 C -0.1289(1) 0.1823(1) -0.0427(2)
C9 C -0.1914(1) 0.2651(1) 0.0111(2)
H1 H 0.050(2) -0.085(2) 0.235(3)
H2 H 0.093 0.159 0.211
H3 H 0.280 0.232 0.243
H4 H 0.458 0.207 0.111
H5 H 0.504 0.121 -0.078
H6 H 0.376 0.011 -0.218
H7 H 0.199 -0.021 -0.164
C9E C -0.3086(1) 0.2349(1) -0.0111(2)
C8E C -0.3711(1) 0.3177(1) 0.0427(2)
O1E O -0.4230(1) 0.3773(1) -0.0388(1)
O2E O -0.3649(1) 0.3229(1) 0.1612(1)
H1B H -0.050(2) -0.085(2) 0.265(3)
N1D N -0.1343(1) -0.0782(1) -0.0529(1)
N2D N -0.2490(1) -0.1816(1) -0.1716(2)
C1D C -0.1512(2) -0.1414(1) -0.1520(2)
C2D C -0.4014(2) -0.1598(1) -0.0516(2)
C3D C -0.4260(2) -0.1102(2) 0.0549(3)
C4D C -0.3544(2) -0.0466(2) 0.1324(3)
C5D C -0.2545(2) -0.0297(2) 0.1049(2)
C6D C -0.2279(1) -0.0784(1) -0.0021(2)
C7D C -0.3001(1) -0.1432(1) -0.0775(2)
H2D H -0.093 -0.159 -0.211
H3D H -0.280 -0.232 -0.243
H4D H -0.458 -0.207 -0.111
H5D H -0.504 -0.121 0.078
H6D H -0.376 -0.011 0.218
H7D H -0.199 0.021 0.164
O1D O 0.0770(1) -0.1227(1) -0.0388(1)
O3D O 0.0000 0.0427(2) -0.2500
Cu1B Cu 0.0000 0.0000 0.5000
Cu1A Cu -0.5000 0.5000 0.0000
H1D H -0.050(2) 0.085(2) -0.235(3)
H1F H 0.050(2) 0.085(2) -0.265(3)
loop_
_geom_bond_atom_site_label_1
_geom_bond_atom_site_label_2
_geom_bond_site_symmetry_1
_geom_bond_site_symmetry_2
Cu1 O1 1_555 1_555
O1 C8 1_555 1_555
O2 C8 1_555 1_555
O3 Cu1 1_555 1_555
N1 Cu1 1_555 1_555
N2 C1 1_555 1_555
C1 N1 1_555 1_555
C2 C3 1_555 1_555
C3 C4 1_555 1_555
C4 C5 1_555 1_555
C5 C6 1_555 1_555
C6 N1 1_555 1_555
C7 N2 1_555 1_555
C8 C9 1_555 1_555
C9 C9E 1_555 1_555
H1 O3 1_555 1_555
H2 C1 1_555 1_555
H3 N2 1_555 1_555
H4 C2 1_555 1_555
H5 C3 1_555 1_555
H6 C4 1_555 1_555
H7 C5 1_555 1_555
C9E C8E 1_555 1_555
C8E O1E 1_555 1_555
O1E Cu1A 1_555 1_555
O2E C8E 1_555 1_555
H1B O3 1_555 1_555
N1D Cu1 1_555 1_555
N2D C1D 1_555 1_555
C1D N1D 1_555 1_555
C2D C3D 1_555 1_555
C3D C4D 1_555 1_555
C4D C5D 1_555 1_555
C5D C6D 1_555 1_555
C6D N1D 1_555 1_555
C7D N2D 1_555 1_555
H2D C1D 1_555 1_555
H3D N2D 1_555 1_555
H4D C2D 1_555 1_555
H5D C3D 1_555 1_555
H6D C4D 1_555 1_555
H7D C5D 1_555 1_555
O1D Cu1 1_555 1_555
O3D Cu1 1_555 1_555
Cu1B O3 1_555 1_555
H1D O3D 1_555 1_555
H1F O3D 1_555 1_555
C2 C7 1_555 1_555
C6 C7 1_555 1_555
C2D C7D 1_555 1_555
C6D C7D 1_555 1_555

#END
