
#######################################################################
#
#                 Cambridge Crystallographic Data Centre
#                                CCDC 
#
#######################################################################
#
# If this CIF has been generated from an entry in the Cambridge 
# Structural Database, then it will include bibliographic, chemical, 
# crystal, experimental, refinement or atomic coordinate data resulting 
# from the CCDC's data processing and validation procedures.
#
#######################################################################

data_VUGBUU
_symmetry_cell_setting           monoclinic
_symmetry_space_group_name_H-M   'I a'
_symmetry_Int_Tables_number      9
_space_group_name_Hall           'I -2ya'
loop_
_symmetry_equiv_pos_site_id
_symmetry_equiv_pos_as_xyz
1 x,y,z
2 1/2+x,1/2+y,1/2+z
3 1/2+x,-y,z
4 x,1/2-y,1/2+z
_cell_length_a                   25.757(1)
_cell_length_b                   9.533(1)
_cell_length_c                   18.540(1)
_cell_angle_alpha                90
_cell_angle_beta                 97.96(1)
_cell_angle_gamma                90
_cell_volume                     4508.48
loop_
_atom_site_label
_atom_site_type_symbol
_atom_site_fract_x
_atom_site_fract_y
_atom_site_fract_z
Cu1 Cu 0.17310 0.1340(2) -0.4064
Cu2 Cu 0.17424(9) -0.3614(2) -0.3427(1)
O1 O 0.1749(5) 0.0757(13) -0.3055(6)
O2 O 0.1075(5) 0.2122(15) -0.3014(7)
O3 O 0.1031(5) -0.1647(13) -0.3108(6)
O4 O 0.1770(4) -0.2541(12) -0.2532(6)
O5 O 0.0962(5) -0.3607(13) -0.1611(7)
O6 O 0.1500(5) -0.3481(14) -0.0589(7)
O7 O 0.0855(4) -0.1734(13) 0.0272(6)
O8 O 0.1658(5) -0.0848(14) 0.0574(6)
O9 O 0.0968(5) 0.1687(14) 0.0377(6)
O10 O 0.1630(5) 0.2846(13) -0.0030(7)
O11 O 0.0928(5) 0.3787(13) -0.1449(7)
O12 O 0.1763(5) 0.3597(14) -0.1635(8)
O13 O 0.1210(5) -0.0170(14) -0.4376(7)
O14 O 0.2269(5) 0.2775(14) -0.3810(7)
O15 O 0.2467(6) -0.0034(17) -0.4271(8)
O16 O 0.1177(5) -0.4873(14) -0.3218(7)
O17 O 0.2418(5) -0.2724(15) -0.3607(7)
O18 O 0.2277(5) -0.5351(14) -0.2704(7)
C1 C 0.1339(6) 0.0640(18) -0.2004(9)
C2 C 0.1319(6) -0.0823(18) -0.1900(9)
C3 C 0.1281(6) -0.1382(18) -0.1232(9)
C4 C 0.1262(6) -0.0468(18) -0.0638(9)
C5 C 0.1274(6) 0.0951(17) -0.0723(9)
C6 C 0.1301(6) 0.1535(18) -0.1430(9)
C7 C 0.1368(7) 0.1220(18) -0.2741(9)
C8 C 0.1365(6) -0.1739(17) -0.2578(9)
C9 C 0.1258(7) -0.2932(18) -0.1105(9)
C10 C 0.1234(6) -0.1086(17) 0.0126(9)
C11 C 0.1277(6) 0.1904(19) -0.0082(9)
C12 C 0.1327(7) 0.3105(18) -0.1512(9)
Cu3 Cu -0.1734(1) -0.1368(2) 0.4069(1)
Cu4 Cu -0.1749(1) 0.3622(2) 0.3421(1)
O19 O -0.1738(5) -0.0795(14) 0.3055(6)
O20 O -0.0985(6) -0.1984(17) 0.3060(8)
O21 O -0.1047(5) 0.1651(14) 0.3135(7)
O22 O -0.1737(5) 0.2608(14) 0.2478(7)
O23 O -0.0912(6) 0.3640(15) 0.1574(8)
O24 O -0.1516(5) 0.3510(15) 0.0587(7)
O25 O -0.0862(5) 0.1723(14) -0.0267(7)
O26 O -0.1670(5) 0.0867(15) -0.0548(7)
O27 O -0.1011(5) -0.1659(15) -0.0386(7)
O28 O -0.1631(5) -0.2881(14) 0.0051(7)
O29 O -0.0885(5) -0.3736(15) 0.1381(7)
O30 O -0.1650(7) -0.3622(17) 0.1789(10)
O31 O -0.1217(5) 0.0141(15) 0.4381(7)
O32 O -0.2288(5) -0.2816(15) 0.3791(8)
O33 O -0.2442(5) 0.0115(15) 0.4256(7)
O34 O -0.1182(5) 0.4924(15) 0.3243(7)
O35 O -0.2408(5) 0.2680(16) 0.3577(8)
O36 O -0.2278(5) 0.5330(15) 0.2713(7)
C13 C -0.1300(7) -0.0608(18) 0.2017(9)
C14 C -0.1305(7) 0.0823(19) 0.1921(9)
C15 C -0.1262(7) 0.1410(18) 0.1226(9)
C16 C -0.1251(7) 0.0506(19) 0.0631(9)
C17 C -0.1264(6) -0.0950(18) 0.0740(9)
C18 C -0.1285(7) -0.1509(20) 0.1432(10)
C19 C -0.1336(7) -0.1176(19) 0.2773(10)
C20 C -0.1352(7) 0.1786(19) 0.2565(10)
C21 C -0.1240(7) 0.2951(19) 0.1099(10)
C22 C -0.1254(7) 0.1088(18) -0.0126(9)
C23 C -0.1294(7) -0.1900(19) 0.0094(9)
C24 C -0.1271(7) -0.3093(19) 0.1560(10)
Cu5 Cu -0.0032(1) -0.1479(3) -0.0149(1)
O37 O -0.0106(7) -0.3314(21) -0.0688(11)
O38 O -0.0011(6) -0.0509(17) -0.1086(8)
O39 O -0.0075(6) -0.2392(19) 0.0847(10)
O40 O 0.0013(5) 0.0345(14) 0.0331(7)
O8C O 0.1658(5) -0.4152(14) -0.4426(6)
O26C O -0.1670(5) 0.4133(15) 0.4452(7)
O10C O 0.1630(5) 0.2154(13) -0.5030(7)
Cu2C Cu 0.17424(9) -0.1386(2) 0.1573(1)
Cu4C Cu -0.1749(1) 0.1378(2) -0.1579(1)
Cu1C Cu 0.17310 0.3660(2) 0.0936
Cu3C Cu -0.1734(1) -0.3632(2) -0.0931(1)
O28C O -0.1631(5) -0.2119(14) 0.5051(7)
O41 O 0.0159(11) 0.1683(34) -0.4367(17)
O42 O -0.0027(6) 0.2674(18) -0.6107(11)
O43 O 0.0059(7) 0.2885(20) -0.2765(11)
O44 O -0.0002(10) 0.8352(30) -0.2342(14)
O45 O 0.0183(6) -0.4301(17) -0.2963(9)
O46 O 0.2577(6) 0.5129(20) -0.4644(9)
loop_
_geom_bond_atom_site_label_1
_geom_bond_atom_site_label_2
_geom_bond_site_symmetry_1
_geom_bond_site_symmetry_2
Cu1 O1 1_555 1_555
Cu2 O4 1_555 1_555
O1 C7 1_555 1_555
O2 C7 1_555 1_555
O3 C8 1_555 1_555
O4 C8 1_555 1_555
O5 C9 1_555 1_555
O6 C9 1_555 1_555
O7 C10 1_555 1_555
O8 C10 1_555 1_555
O9 C11 1_555 1_555
O10 C11 1_555 1_555
O11 C12 1_555 1_555
O12 C12 1_555 1_555
O13 Cu1 1_555 1_555
O14 Cu1 1_555 1_555
O15 Cu1 1_555 1_555
O16 Cu2 1_555 1_555
O17 Cu2 1_555 1_555
O18 Cu2 1_555 1_555
C1 C2 1_555 1_555
C2 C3 1_555 1_555
C3 C4 1_555 1_555
C4 C5 1_555 1_555
C5 C6 1_555 1_555
C6 C1 1_555 1_555
C7 C1 1_555 1_555
C8 C2 1_555 1_555
C9 C3 1_555 1_555
C10 C4 1_555 1_555
C11 C5 1_555 1_555
C12 C6 1_555 1_555
Cu3 O19 1_555 1_555
Cu4 O22 1_555 1_555
O19 C19 1_555 1_555
O20 C19 1_555 1_555
O21 C20 1_555 1_555
O22 C20 1_555 1_555
O23 C21 1_555 1_555
O24 C21 1_555 1_555
O25 C22 1_555 1_555
O26 C22 1_555 1_555
O27 C23 1_555 1_555
O28 C23 1_555 1_555
O29 C24 1_555 1_555
O30 C24 1_555 1_555
O31 Cu3 1_555 1_555
O32 Cu3 1_555 1_555
O33 Cu3 1_555 1_555
O34 Cu4 1_555 1_555
O35 Cu4 1_555 1_555
O36 Cu4 1_555 1_555
C13 C14 1_555 1_555
C14 C15 1_555 1_555
C15 C16 1_555 1_555
C16 C17 1_555 1_555
C17 C18 1_555 1_555
C18 C13 1_555 1_555
C19 C13 1_555 1_555
C20 C14 1_555 1_555
C21 C15 1_555 1_555
C22 C16 1_555 1_555
C23 C17 1_555 1_555
C24 C18 1_555 1_555
Cu5 O7 1_555 1_555
O37 Cu5 1_555 1_555
O38 Cu5 1_555 1_555
O39 Cu5 1_555 1_555
O40 Cu5 1_555 1_555
O8C Cu2 1_555 1_555
O26C Cu4 1_555 1_555
O10C Cu1 1_555 1_555
Cu2C O8 1_555 1_555
Cu4C O26 1_555 1_555
Cu1C O10 1_555 1_555
Cu3C O28 1_555 1_555
O28C Cu3 1_555 1_555
O27 Cu5 1_555 1_555

#END
