
#######################################################################
#
#                 Cambridge Crystallographic Data Centre
#                                CCDC 
#
#######################################################################
#
# If this CIF has been generated from an entry in the Cambridge 
# Structural Database, then it will include bibliographic, chemical, 
# crystal, experimental, refinement or atomic coordinate data resulting 
# from the CCDC's data processing and validation procedures.
#
#######################################################################

data_VUGFEI
_symmetry_cell_setting           monoclinic
_symmetry_space_group_name_H-M   'P 21/n'
_symmetry_Int_Tables_number      14
_space_group_name_Hall           '-P 2yn'
loop_
_symmetry_equiv_pos_site_id
_symmetry_equiv_pos_as_xyz
1 x,y,z
2 1/2-x,1/2+y,1/2-z
3 -x,-y,-z
4 1/2+x,1/2-y,1/2+z
_cell_length_a                   8.750(2)
_cell_length_b                   16.230(1)
_cell_length_c                   15.077(4)
_cell_angle_alpha                90
_cell_angle_beta                 104.11(1)
_cell_angle_gamma                90
_cell_volume                     2076.52
loop_
_atom_site_label
_atom_site_type_symbol
_atom_site_fract_x
_atom_site_fract_y
_atom_site_fract_z
Sn1 Sn -0.31634(3) 0.22613(2) -0.50630(2)
O1 O -0.4024(3) 0.2133(2) -0.3845(2)
O2 O -0.6042(4) 0.2895(2) -0.4609(2)
N1 N -0.7219(4) 0.2592(2) -0.1550(2)
C1 C -0.1081(5) 0.1580(3) -0.4464(3)
C2 C -0.0008(6) 0.1324(3) -0.4937(3)
C3 C 0.1305(7) 0.0885(4) -0.4533(4)
C4 C 0.1614(6) 0.0686(3) -0.3642(4)
C5 C 0.0604(6) 0.0932(4) -0.3154(4)
C6 C -0.0734(6) 0.1381(3) -0.3551(3)
C7 C -0.4976(4) 0.1536(3) -0.5890(2)
C8 C -0.4763(5) 0.0692(3) -0.5875(3)
C9 C -0.5846(7) 0.0171(3) -0.6408(4)
C10 C -0.7150(7) 0.0486(4) -0.6961(4)
C11 C -0.7400(7) 0.1309(4) -0.6992(4)
C12 C -0.6326(6) 0.1835(3) -0.6456(3)
C13 C -0.2810(5) 0.3557(3) -0.4976(3)
C14 C -0.3746(7) 0.4116(3) -0.5543(3)
C15 C -0.3433(8) 0.4945(3) -0.5462(4)
C16 C -0.2232(7) 0.5237(3) -0.4807(4)
C17 C -0.1309(8) 0.4700(4) -0.4241(4)
C18 C -0.1600(7) 0.3860(3) -0.4322(4)
C19 C -0.6029(5) 0.2087(3) -0.1583(3)
C20 C -0.5376(5) 0.2040(3) -0.2328(3)
C21 C -0.6011(5) 0.2518(2) -0.3091(2)
C22 C -0.7244(5) 0.3021(3) -0.3059(3)
C23 C -0.7805(5) 0.3042(3) -0.2285(3)
C24 C -0.5341(5) 0.2522(3) -0.3932(3)
Sn1C Sn -0.81634(3) 0.27387(2) -0.00630(2)
N1C N -0.2219(4) 0.2408(2) -0.6550(2)
loop_
_geom_bond_atom_site_label_1
_geom_bond_atom_site_label_2
_geom_bond_site_symmetry_1
_geom_bond_site_symmetry_2
Sn1 O1 1_555 1_555
O1 C24 1_555 1_555
O2 C24 1_555 1_555
N1 C19 1_555 1_555
C1 Sn1 1_555 1_555
C2 C1 1_555 1_555
C3 C2 1_555 1_555
C4 C3 1_555 1_555
C5 C4 1_555 1_555
C6 C1 1_555 1_555
C7 Sn1 1_555 1_555
C8 C7 1_555 1_555
C9 C8 1_555 1_555
C10 C9 1_555 1_555
C11 C10 1_555 1_555
C12 C7 1_555 1_555
C13 Sn1 1_555 1_555
C14 C13 1_555 1_555
C15 C14 1_555 1_555
C16 C15 1_555 1_555
C17 C16 1_555 1_555
C18 C13 1_555 1_555
C19 C20 1_555 1_555
C20 C21 1_555 1_555
C21 C22 1_555 1_555
C22 C23 1_555 1_555
C23 N1 1_555 1_555
C24 C21 1_555 1_555
Sn1C N1 1_555 1_555
N1C Sn1 1_555 1_555
C5 C6 1_555 1_555
C11 C12 1_555 1_555
C17 C18 1_555 1_555

#END
