
#######################################################################
#
#                 Cambridge Crystallographic Data Centre
#                                CCDC 
#
#######################################################################
#
# If this CIF has been generated from an entry in the Cambridge 
# Structural Database, then it will include bibliographic, chemical, 
# crystal, experimental, refinement or atomic coordinate data resulting 
# from the CCDC's data processing and validation procedures.
#
#######################################################################

data_VUGJUC
_symmetry_cell_setting           orthorhombic
_symmetry_space_group_name_H-M   'P 21 21 21'
_symmetry_Int_Tables_number      19
_space_group_name_Hall           'P 2ac 2ab'
loop_
_symmetry_equiv_pos_site_id
_symmetry_equiv_pos_as_xyz
1 x,y,z
2 1/2+x,1/2-y,-z
3 -x,1/2+y,1/2-z
4 1/2-x,-y,1/2+z
_cell_length_a                   5.073(2)
_cell_length_b                   11.463(3)
_cell_length_c                   20.198(5)
_cell_angle_alpha                90
_cell_angle_beta                 90
_cell_angle_gamma                90
_cell_volume                     1174.55
loop_
_atom_site_label
_atom_site_type_symbol
_atom_site_fract_x
_atom_site_fract_y
_atom_site_fract_z
Cu1 Cu 0.12152(7) -0.5056(3) 0.0025(2)
O1 O -0.2879(5) -0.6863(2) -0.0264(1)
O2 O -0.5316(6) -0.6408(2) 0.0852(1)
O3 O 0.4969(5) -0.3058(2) 0.0226(1)
O4 O 0.6679(6) -0.3248(2) -0.1001(1)
N1 N -0.1687(6) -0.6113(2) 0.0202(1)
N2 N -0.0156(7) -0.4307(3) 0.0857(2)
N3 N 0.3910(6) -0.3941(2) -0.0194(1)
N4 N 0.2449(6) -0.5775(2) -0.0819(1)
C1 C -0.3109(7) -0.5953(3) 0.0730(2)
C2 C -0.1767(7) -0.5154(3) 0.1227(2)
C3 C -0.3624(10) -0.4572(4) 0.1709(2)
C4 C 0.4991(7) -0.3952(3) -0.0782(2)
C5 C 0.3976(6) -0.4923(3) -0.1222(2)
C6 C 0.2269(11) -0.4460(4) -0.1775(2)
H1 H -0.187(8) -0.742(3) -0.044(2)
H2 H -0.048(10) -0.569(4) 0.151(2)
H3 H 0.109(8) -0.396(3) 0.113(2)
H4 H -0.072(10) -0.364(4) 0.069(2)
H5 H -0.465(9) -0.512(4) 0.187(2)
H6 H -0.253(9) -0.425(3) 0.201(2)
H7 H -0.432(9) -0.403(3) 0.150(2)
H8 H 0.419(8) -0.266(3) 0.049(2)
H9 H 0.547(8) -0.523(3) -0.140(2)
H10 H 0.349(8) -0.630(3) -0.076(2)
H11 H 0.116(8) -0.600(3) -0.107(2)
H12 H 0.045(10) -0.406(3) -0.159(2)
H13 H 0.138(7) -0.501(3) -0.203(2)
H14 H 0.306(11) -0.393(4) -0.199(2)
O2_2 O 0.4684(6) -0.6408(2) 0.0852(1)
Cu1_2 Cu -0.87848(7) -0.5056(3) 0.0025(2)
O5 O -0.6612(7) -0.7776(2) 0.1934(1)
H15 H -0.664(8) -0.735(3) 0.161(2)
H16 H -0.822(8) -0.774(3) 0.208(2)
O6 O 0.6675(7) -0.2391(3) -0.2373(2)
H17 H 0.692(9) -0.269(3) -0.199(2)
H18 H 0.813(7) -0.232(3) -0.262(2)
loop_
_geom_bond_atom_site_label_1
_geom_bond_atom_site_label_2
_geom_bond_site_symmetry_1
_geom_bond_site_symmetry_2
Cu1 N1 1_555 1_555
O1 N1 1_555 1_555
O2 C1 1_555 1_555
O3 N3 1_555 1_555
O4 C4 1_555 1_555
O5 H15 1_555 1_555
O6 H17 1_555 1_555
N1 C1 1_555 1_555
N2 Cu1 1_555 1_555
N3 Cu1 1_555 1_555
N4 Cu1 1_555 1_555
C1 C2 1_555 1_555
C2 N2 1_555 1_555
C3 C2 1_555 1_555
C4 N3 1_555 1_555
C5 N4 1_555 1_555
C6 C5 1_555 1_555
H1 O1 1_555 1_555
H2 C2 1_555 1_555
H3 N2 1_555 1_555
H4 N2 1_555 1_555
H5 C3 1_555 1_555
H6 C3 1_555 1_555
H7 C3 1_555 1_555
H8 O3 1_555 1_555
H9 C5 1_555 1_555
H10 N4 1_555 1_555
H11 N4 1_555 1_555
H12 C6 1_555 1_555
H13 C6 1_555 1_555
H14 C6 1_555 1_555
H16 O5 1_555 1_555
H18 O6 1_555 1_555
O2_2 Cu1 1_555 1_555
Cu1_2 O2 1_555 1_555
C4 C5 1_555 1_555

#END
