
#######################################################################
#
#                 Cambridge Crystallographic Data Centre
#                                CCDC 
#
#######################################################################
#
# If this CIF has been generated from an entry in the Cambridge 
# Structural Database, then it will include bibliographic, chemical, 
# crystal, experimental, refinement or atomic coordinate data resulting 
# from the CCDC's data processing and validation procedures.
#
#######################################################################

data_VUGMUG
_symmetry_cell_setting           orthorhombic
_symmetry_space_group_name_H-M   'P n a 21'
_symmetry_Int_Tables_number      33
_space_group_name_Hall           'P 2c -2n'
loop_
_symmetry_equiv_pos_site_id
_symmetry_equiv_pos_as_xyz
1 x,y,z
2 -x,-y,1/2+z
3 1/2-x,1/2+y,1/2+z
4 1/2+x,1/2-y,z
_cell_length_a                   11.1531(4)
_cell_length_b                   9.9944(3)
_cell_length_c                   24.0449(7)
_cell_angle_alpha                90
_cell_angle_beta                 90
_cell_angle_gamma                90
_cell_volume                     2680.25
loop_
_atom_site_label
_atom_site_type_symbol
_atom_site_fract_x
_atom_site_fract_y
_atom_site_fract_z
Cu1 Cu -0.68284(8) -0.50085(10) -0.21244(6)
O1 O -0.5449(4) -0.6466(4) -0.1736(2)
H1 H -0.5464 -0.7219 -0.1900
O2 O -0.5384(4) -0.3916(4) -0.2066(2)
O3 O -0.3386(4) -0.3843(4) -0.2013(2)
O4 O -0.8215(4) -0.3523(4) -0.2485(2)
H2 H -0.8174 -0.2781 -0.2314
O5 O -0.8289(4) -0.6106(4) -0.2177(3)
O6 O -1.0270(4) -0.6102(4) -0.2133(3)
N1 N -0.7341(6) -0.4447(5) -0.1348(3)
N2 N -0.8696(6) -0.0614(6) 0.2109(3)
C1 C -0.3658(7) -0.5959(6) -0.1197(3)
C2 C -0.4322(7) -0.6156(8) -0.0709(3)
H3 H -0.5169 -0.6248 -0.0729
C3 C -0.3757(9) -0.6217(9) -0.0205(4)
H4 H -0.4218 -0.6332 0.0124
C4 C -0.2502(10) -0.6111(9) -0.0168(4)
H5 H -0.2112 -0.6145 0.0183
C5 C -0.1849(8) -0.5955(9) -0.0649(5)
H6 H -0.1000 -0.5897 -0.0631
C6 C -0.2417(7) -0.5884(7) -0.1155(4)
H7 H -0.1951 -0.5782 -0.1483
C7 C -0.4277(6) -0.5901(7) -0.1757(3)
H8 H -0.3789 -0.6420 -0.2031
C8 C -0.4358(6) -0.4432(7) -0.1958(3)
C9 C -1.0077(6) -0.3953(6) -0.2963(3)
C10 C -1.1327(6) -0.4057(6) -0.2955(3)
H9 H -1.1726 -0.4229 -0.2613
C11 C -1.1979(8) -0.3917(8) -0.3428(4)
H10 H -1.2829 -0.3982 -0.3416
C12 C -1.1410(9) -0.3682(8) -0.3921(4)
H11 H -1.1870 -0.3564 -0.4250
C13 C -1.0191(7) -0.3612(8) -0.3948(3)
H12 H -0.9802 -0.3473 -0.4295
C14 C -0.9524(7) -0.3748(7) -0.3465(4)
H13 H -0.8675 -0.3698 -0.3482
C15 C -0.9377(6) -0.4068(6) -0.2430(3)
H14 H -0.9809 -0.3542 -0.2139
C16 C -0.9305(6) -0.5581(6) -0.2225(3)
C17 C -0.7303(7) -0.3160(7) -0.1181(3)
H15 H -0.6920 -0.2522 -0.1415
C18 C -0.7796(7) -0.2731(7) -0.0690(3)
H16 H -0.7761 -0.1809 -0.0596
C19 C -0.8344(7) -0.3623(7) -0.0326(3)
C20 C -0.8330(7) -0.4975(8) -0.0493(4)
H17 H -0.8659 -0.5644 -0.0257
C21 C -0.7847(7) -0.5318(8) -0.0989(3)
H18 H -0.7865 -0.6236 -0.1092
C22 C -0.8919(8) -0.3203(9) 0.0208(4)
H19 H -0.9202 -0.4013 0.0405
H20 H -0.8303 -0.2773 0.0444
C23 C -0.9941(9) -0.2269(10) 0.0146(4)
H21 H -1.0487 -0.2616 -0.0145
H22 H -0.9635 -0.1391 0.0019
C24 C -1.0650(8) -0.2069(11) 0.0681(4)
H23 H -1.1307 -0.1427 0.0606
H24 H -1.1022 -0.2933 0.0785
C25 C -0.9928(7) -0.1560(8) 0.1174(3)
C26 C -0.9806(7) -0.0199(8) 0.1281(3)
H25 H -1.0128 0.0431 0.1026
C27 C -0.9231(7) 0.0244(7) 0.1747(3)
H26 H -0.9204 0.1178 0.1820
C28 C -0.8756(7) -0.1933(7) 0.1986(3)
H27 H -0.8364 -0.2548 0.2227
C29 C -0.9351(7) -0.2424(8) 0.1534(3)
H28 H -0.9368 -0.3361 0.1467
Cu1B Cu -0.81716(8) -0.00085(10) 0.28756(6)
N2B N -0.6304(6) -0.5614(6) -0.2891(3)
loop_
_geom_bond_atom_site_label_1
_geom_bond_atom_site_label_2
_geom_bond_site_symmetry_1
_geom_bond_site_symmetry_2
Cu1 O1 1_555 1_555
O1 H1 1_555 1_555
O2 Cu1 1_555 1_555
O3 C8 1_555 1_555
O4 Cu1 1_555 1_555
H2 O4 1_555 1_555
O5 Cu1 1_555 1_555
O6 C16 1_555 1_555
N1 Cu1 1_555 1_555
N2 C27 1_555 1_555
C1 C2 1_555 1_555
C2 H3 1_555 1_555
C3 C2 1_555 1_555
H4 C3 1_555 1_555
C4 C3 1_555 1_555
H5 C4 1_555 1_555
C5 C4 1_555 1_555
H6 C5 1_555 1_555
C6 C1 1_555 1_555
H7 C6 1_555 1_555
C7 O1 1_555 1_555
H8 C7 1_555 1_555
C8 O2 1_555 1_555
C9 C10 1_555 1_555
C10 H9 1_555 1_555
C11 C10 1_555 1_555
H10 C11 1_555 1_555
C12 C11 1_555 1_555
H11 C12 1_555 1_555
C13 C12 1_555 1_555
H12 C13 1_555 1_555
C14 C9 1_555 1_555
H13 C14 1_555 1_555
C15 O4 1_555 1_555
H14 C15 1_555 1_555
C16 O5 1_555 1_555
C17 N1 1_555 1_555
H15 C17 1_555 1_555
C18 C17 1_555 1_555
H16 C18 1_555 1_555
C19 C18 1_555 1_555
C20 C19 1_555 1_555
H17 C20 1_555 1_555
C21 N1 1_555 1_555
H18 C21 1_555 1_555
C22 C19 1_555 1_555
H19 C22 1_555 1_555
H20 C22 1_555 1_555
C23 C22 1_555 1_555
H21 C23 1_555 1_555
H22 C23 1_555 1_555
C24 C23 1_555 1_555
H23 C24 1_555 1_555
H24 C24 1_555 1_555
C25 C24 1_555 1_555
C26 C25 1_555 1_555
H25 C26 1_555 1_555
C27 C26 1_555 1_555
H26 C27 1_555 1_555
C28 N2 1_555 1_555
H27 C28 1_555 1_555
C29 C25 1_555 1_555
H28 C29 1_555 1_555
Cu1B N2 1_555 1_555
N2B Cu1 1_555 1_555
C1 C7 1_555 1_555
C5 C6 1_555 1_555
C7 C8 1_555 1_555
C9 C15 1_555 1_555
C13 C14 1_555 1_555
C15 C16 1_555 1_555
C20 C21 1_555 1_555
C28 C29 1_555 1_555

#END
