
#######################################################################
#
#                 Cambridge Crystallographic Data Centre
#                                CCDC 
#
#######################################################################
#
# If this CIF has been generated from an entry in the Cambridge 
# Structural Database, then it will include bibliographic, chemical, 
# crystal, experimental, refinement or atomic coordinate data resulting 
# from the CCDC's data processing and validation procedures.
#
#######################################################################

data_VUGNAN
_symmetry_cell_setting           monoclinic
_symmetry_space_group_name_H-M   'P 21/c'
_symmetry_Int_Tables_number      14
_space_group_name_Hall           '-P 2ybc'
loop_
_symmetry_equiv_pos_site_id
_symmetry_equiv_pos_as_xyz
1 x,y,z
2 -x,1/2+y,1/2-z
3 -x,-y,-z
4 x,1/2-y,1/2+z
_cell_length_a                   9.0498(17)
_cell_length_b                   13.270(2)
_cell_length_c                   16.353(3)
_cell_angle_alpha                90
_cell_angle_beta                 103.053(4)
_cell_angle_gamma                90
_cell_volume                     1913.1
loop_
_atom_site_label
_atom_site_type_symbol
_atom_site_fract_x
_atom_site_fract_y
_atom_site_fract_z
Cu1 Cu 0.34280(6) 0.03621(3) -0.00421(3)
O1 O 0.4846(3) -0.0623(2) 0.05362(19)
O2 O 0.2384(3) 0.0098(2) 0.0850(2)
N1 N 0.2295(4) 0.1633(2) -0.0426(2)
O3 O 0.2565(4) -0.0780(2) 0.2019(2)
C1 C 0.2293(5) 0.7565(3) -0.1606(3)
H1 H 0.2856 0.7131 -0.1863
N2 N 0.2115(4) 0.9165(3) -0.0964(2)
C2 C 0.0980(6) 0.5380(3) -0.1192(3)
H2 H 0.2045 0.5351 -0.1206
H3 H 0.0916 0.5500 -0.0616
C3 C 0.0143(5) 0.7949(3) -0.1082(3)
H4 H -0.0796 0.7785 -0.0977
C4 C 0.0892(5) 0.7267(3) -0.1475(3)
C5 C 0.3047(6) -0.0530(3) 0.1410(3)
C6 C 0.4761(5) -0.2032(3) 0.1474(3)
C7 C 0.0920(5) 0.1658(3) -0.0935(3)
H5 H 0.0413 0.1053 -0.1086
C8 C 0.0230(5) 0.2531(3) -0.1245(3)
H6 H -0.0735 0.2511 -0.1594
C9 C 0.0946(5) 0.3449(3) -0.1047(3)
C10 C 0.0234(6) 0.6243(3) -0.1736(3)
H7 H 0.0314 0.6118 -0.2309
H8 H -0.0836 0.6251 -0.1732
C11 C 0.0778(5) 0.8873(3) -0.0846(3)
H9 H 0.0238 0.9321 -0.0587
C12 C 0.0244(6) 0.4393(3) -0.1481(4)
H10 H 0.0219 0.4325 -0.2075
H11 H -0.0799 0.4424 -0.1425
C13 C 0.4626(5) -0.0917(3) 0.1323(3)
H12 H 0.5400 -0.0584 0.1754
C14 C 0.2343(5) 0.3423(3) -0.0483(3)
H13 H 0.2853 0.4019 -0.0303
C15 C 0.2835(5) 0.8504(3) -0.1354(3)
H14 H 0.3764 0.8694 -0.1460
C16 C 0.2970(5) 0.2512(3) -0.0194(3)
H15 H 0.3909 0.2510 0.0182
C17 C 0.5818(7) -0.2446(4) 0.2122(4)
H16 H 0.6469 -0.2023 0.2491
C18 C 0.5937(8) -0.3483(4) 0.2239(4)
H17 H 0.6648 -0.3747 0.2689
C19 C 0.3800(6) -0.2689(4) 0.0926(4)
H18 H 0.3066 -0.2429 0.0485
C20 C 0.3936(8) -0.3713(4) 0.1037(4)
H19 H 0.3297 -0.4141 0.0666
C21 C 0.5010(8) -0.4114(5) 0.1692(5)
H20 H 0.5103 -0.4808 0.1760
Cu1B Cu 0.65720(6) -0.03621(3) 0.00421(3)
Cu1_2 Cu 0.34280(6) 1.03621(3) -0.00421(3)
O1B O 0.5154(3) 0.0623(2) -0.05362(19)
N2_2 N 0.2115(4) -0.0835(3) -0.0964(2)
loop_
_geom_bond_atom_site_label_1
_geom_bond_atom_site_label_2
_geom_bond_site_symmetry_1
_geom_bond_site_symmetry_2
Cu1 O1 1_555 1_555
O1 C13 1_555 1_555
O2 Cu1 1_555 1_555
N1 Cu1 1_555 1_555
O3 C5 1_555 1_555
C1 H1 1_555 1_555
N2 C11 1_555 1_555
C2 H2 1_555 1_555
H3 C2 1_555 1_555
C3 H4 1_555 1_555
C4 C1 1_555 1_555
C5 O2 1_555 1_555
C6 C13 1_555 1_555
C7 N1 1_555 1_555
H5 C7 1_555 1_555
C8 C7 1_555 1_555
H6 C8 1_555 1_555
C9 C8 1_555 1_555
C10 C2 1_555 1_555
H7 C10 1_555 1_555
H8 C10 1_555 1_555
C11 C3 1_555 1_555
H9 C11 1_555 1_555
C12 C2 1_555 1_555
H10 C12 1_555 1_555
H11 C12 1_555 1_555
C13 C5 1_555 1_555
H12 C13 1_555 1_555
C14 C9 1_555 1_555
H13 C14 1_555 1_555
C15 C1 1_555 1_555
H14 C15 1_555 1_555
C16 N1 1_555 1_555
H15 C16 1_555 1_555
C17 C6 1_555 1_555
H16 C17 1_555 1_555
C18 C17 1_555 1_555
H17 C18 1_555 1_555
C19 C6 1_555 1_555
H18 C19 1_555 1_555
C20 C19 1_555 1_555
H19 C20 1_555 1_555
C21 C18 1_555 1_555
H20 C21 1_555 1_555
Cu1B O1 1_555 1_555
Cu1_2 N2 1_555 1_555
O1B Cu1 1_555 1_555
N2_2 Cu1 1_555 1_555
N2 C15 1_555 1_555
C3 C4 1_555 1_555
C4 C10 1_555 1_555
C9 C12 1_555 1_555
C14 C16 1_555 1_555
C20 C21 1_555 1_555
Cu1B O1B 1_555 1_555

#END
