
#######################################################################
#
#                 Cambridge Crystallographic Data Centre
#                                CCDC 
#
#######################################################################
#
# If this CIF has been generated from an entry in the Cambridge 
# Structural Database, then it will include bibliographic, chemical, 
# crystal, experimental, refinement or atomic coordinate data resulting 
# from the CCDC's data processing and validation procedures.
#
#######################################################################

data_VUGPUK
_symmetry_cell_setting           triclinic
_symmetry_space_group_name_H-M   'P -1'
_symmetry_Int_Tables_number      2
_space_group_name_Hall           '-P 1'
loop_
_symmetry_equiv_pos_site_id
_symmetry_equiv_pos_as_xyz
1 x,y,z
2 -x,-y,-z
_cell_length_a                   7.622(5)
_cell_length_b                   10.341(5)
_cell_length_c                   13.682(5)
_cell_angle_alpha                85.003(5)
_cell_angle_beta                 86.125(5)
_cell_angle_gamma                73.369(5)
_cell_volume                     1028.34
loop_
_atom_site_label
_atom_site_type_symbol
_atom_site_fract_x
_atom_site_fract_y
_atom_site_fract_z
Zn1 Zn 0.63751(4) 0.58432(3) 0.64682(2)
Zn2 Zn 1.03098(4) 0.35465(3) 0.55486(2)
C1 C 1.1068(4) 0.6246(3) 0.77462(19)
C2 C 1.2140(3) 0.6921(3) 0.71484(19)
C3 C 1.3020(4) 0.7745(3) 0.7559(2)
C4 C 1.2830(4) 0.7870(3) 0.8574(2)
H1 H 1.3396 0.8426 0.8853
C5 C 1.1810(4) 0.7173(3) 0.9166(2)
H2 H 1.1725 0.7242 0.9842
C6 C 1.0905(4) 0.6367(3) 0.8755(2)
H3 H 1.0199 0.5915 0.9153
C7 C 1.0046(4) 0.5419(3) 0.72820(19)
C8 C 1.2228(4) 0.6759(3) 0.60577(19)
C9 C 1.4106(4) 0.8543(3) 0.6914(2)
C10 C 0.9521(4) 0.2051(3) 0.7515(2)
H4 H 0.9927 0.2707 0.7780
C11 C 0.9019(4) 0.1092(3) 0.8146(2)
H5 H 0.9098 0.1104 0.8821
C12 C 0.8394(4) 0.0104(3) 0.7769(2)
C13 C 0.8410(4) 0.0086(3) 0.6755(2)
H6 H 0.8071 -0.0588 0.6473
C14 C 0.8938(4) 0.1082(3) 0.6167(2)
H7 H 0.8940 0.1060 0.5489
C15 C 0.7682(4) -0.0867(3) 0.8403(2)
H8 H 0.7415 -0.1580 0.8133
C16 C 0.5015(4) -0.3423(3) 1.2988(2)
H9 H 0.4969 -0.3363 1.3664
C17 C 0.5647(4) -0.2494(3) 1.2381(2)
H10 H 0.5983 -0.1808 1.2647
C18 C 0.5775(4) -0.2594(3) 1.1373(2)
C19 C 0.5200(4) -0.3615(3) 1.0999(2)
H11 H 0.5272 -0.3713 1.0327
C20 C 0.4525(4) -0.4471(3) 1.1648(2)
H12 H 0.4091 -0.5122 1.1397
C21 C 0.6507(4) -0.1640(3) 1.0725(2)
H13 H 0.6825 -0.0948 1.0995
N1 N 0.9451(3) 0.2083(2) 0.65323(17)
N2 N 0.4465(3) -0.4408(2) 1.26337(17)
N3 N 0.7430(4) -0.0734(3) 0.93223(19)
N4 N 0.6711(4) -0.1743(3) 0.9805(2)
O1 O 0.8355(3) 0.5712(2) 0.74854(15)
O2 O 1.0957(3) 0.45242(19) 0.67359(14)
O3 O 1.0706(3) 0.71388(19) 0.56567(13)
O4 O 1.3761(3) 0.6224(2) 0.56373(14)
O5 O 1.5563(3) 0.7863(2) 0.64737(16)
O6 O 1.3551(3) 0.9786(2) 0.68665(19)
O7 O 1.2856(3) 0.1934(2) 0.54335(17)
H14 H 1.343(5) 0.178(4) 0.4881(16)
H15 H 1.308(5) 0.120(3) 0.579(2)
O8 O 0.8107(3) 0.53254(19) 0.53524(13)
H16 H 0.741(4) 0.515(3) 0.499(2)
Zn1_2 Zn 1.63751(4) 0.58432(3) 0.64682(2)
Zn1A Zn 0.36249(4) -0.58432(3) 1.35318(2)
Zn2A Zn 0.96902(4) 0.64535(3) 0.44514(2)
N2A N 0.5535(3) 0.4408(2) 0.73663(17)
O3A O 0.9294(3) 0.28612(19) 0.43433(13)
O4_2 O 0.3761(3) 0.6224(2) 0.56373(14)
O5_2 O 0.5563(3) 0.7863(2) 0.64737(16)
O8A O 1.1893(3) 0.46746(19) 0.46476(13)
loop_
_geom_bond_atom_site_label_1
_geom_bond_atom_site_label_2
_geom_bond_site_symmetry_1
_geom_bond_site_symmetry_2
Zn1 O1 1_555 1_555
Zn2 N1 1_555 1_555
C1 C2 1_555 1_555
C2 C3 1_555 1_555
C3 C4 1_555 1_555
C4 H1 1_555 1_555
C5 C4 1_555 1_555
H2 C5 1_555 1_555
C6 C1 1_555 1_555
H3 C6 1_555 1_555
C7 C1 1_555 1_555
C8 C2 1_555 1_555
C9 C3 1_555 1_555
C10 H4 1_555 1_555
C11 C10 1_555 1_555
H5 C11 1_555 1_555
C12 C11 1_555 1_555
C13 C12 1_555 1_555
H6 C13 1_555 1_555
C14 C13 1_555 1_555
H7 C14 1_555 1_555
C15 C12 1_555 1_555
H8 C15 1_555 1_555
C16 H9 1_555 1_555
C17 C16 1_555 1_555
H10 C17 1_555 1_555
C18 C17 1_555 1_555
C19 C18 1_555 1_555
H11 C19 1_555 1_555
C20 C19 1_555 1_555
H12 C20 1_555 1_555
C21 C18 1_555 1_555
H13 C21 1_555 1_555
N1 C10 1_555 1_555
N2 C16 1_555 1_555
N3 C15 1_555 1_555
N4 C21 1_555 1_555
O1 C7 1_555 1_555
O2 Zn2 1_555 1_555
O3 C8 1_555 1_555
O4 C8 1_555 1_555
O5 C9 1_555 1_555
O6 C9 1_555 1_555
O7 Zn2 1_555 1_555
H14 O7 1_555 1_555
H15 O7 1_555 1_555
O8 Zn1 1_555 1_555
H16 O8 1_555 1_555
Zn1_2 O4 1_555 1_555
Zn1A N2 1_555 1_555
Zn2A O3 1_555 1_555
N2A Zn1 1_555 1_555
O3A Zn2 1_555 1_555
O4_2 Zn1 1_555 1_555
O5_2 Zn1 1_555 1_555
O8A Zn2 1_555 1_555
Zn2 O8 1_555 1_555
C5 C6 1_555 1_555
C7 O2 1_555 1_555
C14 N1 1_555 1_555
C20 N2 1_555 1_555
N3 N4 1_555 1_555
O5 Zn1_2 1_555 1_555
O8 Zn2A 1_555 1_555
Zn2A O8A 1_555 1_555

#END
