
#######################################################################
#
#                 Cambridge Crystallographic Data Centre
#                                CCDC 
#
#######################################################################
#
# If this CIF has been generated from an entry in the Cambridge 
# Structural Database, then it will include bibliographic, chemical, 
# crystal, experimental, refinement or atomic coordinate data resulting 
# from the CCDC's data processing and validation procedures.
#
#######################################################################

data_VUGQUL
_symmetry_cell_setting           monoclinic
_symmetry_space_group_name_H-M   'P 21/n'
_symmetry_Int_Tables_number      14
_space_group_name_Hall           '-P 2yn'
loop_
_symmetry_equiv_pos_site_id
_symmetry_equiv_pos_as_xyz
1 x,y,z
2 1/2-x,1/2+y,1/2-z
3 -x,-y,-z
4 1/2+x,1/2-y,1/2+z
_cell_length_a                   6.5238(2)
_cell_length_b                   17.3808(5)
_cell_length_c                   10.6599(3)
_cell_angle_alpha                90
_cell_angle_beta                 100.656(3)
_cell_angle_gamma                90
_cell_volume                     1187.87
loop_
_atom_site_label
_atom_site_type_symbol
_atom_site_fract_x
_atom_site_fract_y
_atom_site_fract_z
Co1 Co 0.0000 0.0000 0.0000
O1 O 0.23666(12) -0.04985(5) 0.12825(7)
O2 O 0.55067(13) -0.02475(5) 0.24765(8)
O3 O 0.80158(13) 0.13153(5) 0.30239(8)
O4 O 0.92673(12) 0.06019(5) 0.15954(8)
N1 N 0.23817(14) 0.08169(5) 0.00078(9)
N2 N 0.57931(15) 0.17953(6) 0.03747(9)
C1 C 0.41064(16) 0.06441(6) 0.08623(10)
C2 C 0.58346(16) 0.11325(6) 0.10262(10)
C3 C 0.40667(18) 0.19561(7) -0.04732(11)
H1 H 0.4006 0.2419 -0.0953
C4 C 0.23572(17) 0.14636(7) -0.06702(11)
H2 H 0.1163 0.1588 -0.1292
C5 C 0.40230(17) -0.00927(6) 0.16184(10)
C6 C 0.78639(17) 0.09878(6) 0.19544(10)
O1B O -0.23666(12) 0.04985(5) -0.12825(7)
O2B O -0.55067(13) 0.02475(5) -0.24765(8)
O3B O -0.80158(13) -0.13153(5) -0.30239(8)
O4B O -0.92673(12) -0.06019(5) -0.15954(8)
N1B N -0.23817(14) -0.08169(5) -0.00078(9)
N2B N -0.57931(15) -0.17953(6) -0.03747(9)
C1B C -0.41064(16) -0.06441(6) -0.08623(10)
C2B C -0.58346(16) -0.11325(6) -0.10262(10)
C3B C -0.40667(18) -0.19561(7) 0.04732(11)
H1B H -0.4006 -0.2419 0.0953
C4B C -0.23572(17) -0.14636(7) 0.06702(11)
H2B H -0.1163 -0.1588 0.1292
C5B C -0.40230(17) 0.00927(6) -0.16184(10)
C6B C -0.78639(17) -0.09878(6) -0.19544(10)
Co1_2 Co -1.0000 0.0000 0.0000
Co1_3 Co 1.0000 0.0000 0.0000
O4_2 O -0.07327(12) 0.06019(5) 0.15954(8)
O4B_2 O 0.07327(12) -0.06019(5) -0.15954(8)
N3 N 0.09950(16) 0.07302(6) 0.49606(10)
H3 H 0.019(3) 0.0943(10) 0.4241(16)
H4 H 0.194(3) 0.1075(10) 0.5287(16)
C7 C 0.20088(19) 0.00148(7) 0.46019(12)
H5 H 0.2946 -0.0197 0.5360
H6 H 0.2858 0.0135 0.3947
C8 C -0.03635(19) 0.05733(7) 0.59170(11)
H7 H -0.1043 0.1056 0.6115
H8 H 0.0498 0.0379 0.6717
N3B N -0.09950(16) -0.07302(6) 0.50394(10)
H3B H -0.019(3) -0.0943(10) 0.5759(16)
H4B H -0.194(3) -0.1075(10) 0.4713(16)
C7B C -0.20088(19) -0.00148(7) 0.53981(12)
H5B H -0.2946 0.0197 0.4640
H6B H -0.2858 -0.0135 0.6053
C8B C 0.03635(19) -0.05733(7) 0.40830(11)
H7B H 0.1043 -0.1056 0.3885
H8B H -0.0498 -0.0379 0.3283
O5 O 0.22510(15) 0.31043(6) 0.23296(9)
H9 H 0.285(3) 0.2712(8) 0.2771(16)
H10 H 0.232(3) 0.3492(8) 0.2872(16)
O6 O 0.35034(15) 0.19415(6) 0.59026(10)
H11 H 0.471(2) 0.1953(13) 0.6459(17)
H12 H 0.288(3) 0.2389(8) 0.591(2)
O7 O 0.41755(17) 0.18273(7) 0.34547(11)
H13 H 0.427(3) 0.1796(11) 0.4310(9)
H14 H 0.5462(19) 0.1699(13) 0.3368(19)
loop_
_geom_bond_atom_site_label_1
_geom_bond_atom_site_label_2
_geom_bond_site_symmetry_1
_geom_bond_site_symmetry_2
Co1 O1 1_555 1_555
O1 C5 1_555 1_555
O2 C5 1_555 1_555
O3 C6 1_555 1_555
O4 C6 1_555 1_555
N1 Co1 1_555 1_555
N2 C2 1_555 1_555
C1 N1 1_555 1_555
C2 C1 1_555 1_555
C3 N2 1_555 1_555
H1 C3 1_555 1_555
C4 N1 1_555 1_555
H2 C4 1_555 1_555
C5 C1 1_555 1_555
C6 C2 1_555 1_555
N3 H3 1_555 1_555
H4 N3 1_555 1_555
C7 N3 1_555 1_555
H5 C7 1_555 1_555
H6 C7 1_555 1_555
C8 N3 1_555 1_555
H7 C8 1_555 1_555
H8 C8 1_555 1_555
O5 H9 1_555 1_555
H10 O5 1_555 1_555
O6 H11 1_555 1_555
H12 O6 1_555 1_555
O7 H13 1_555 1_555
H14 O7 1_555 1_555
O1B Co1 1_555 1_555
O2B C5B 1_555 1_555
O3B C6B 1_555 1_555
O4B C6B 1_555 1_555
N1B Co1 1_555 1_555
N2B C2B 1_555 1_555
C1B N1B 1_555 1_555
C2B C1B 1_555 1_555
C3B N2B 1_555 1_555
H1B C3B 1_555 1_555
C4B N1B 1_555 1_555
H2B C4B 1_555 1_555
C5B O1B 1_555 1_555
C6B C2B 1_555 1_555
Co1_2 O4B 1_555 1_555
Co1_3 O4 1_555 1_555
O4_2 Co1 1_555 1_555
O4B_2 Co1 1_555 1_555
N3B H3B 1_555 1_555
H4B N3B 1_555 1_555
C7B C8 1_555 1_555
H5B C7B 1_555 1_555
H6B C7B 1_555 1_555
C8B C7 1_555 1_555
H7B C8B 1_555 1_555
H8B C8B 1_555 1_555
C3 C4 1_555 1_555
C1B C5B 1_555 1_555
C3B C4B 1_555 1_555
N3B C7B 1_555 1_555
N3B C8B 1_555 1_555

#END
