
#######################################################################
#
#                 Cambridge Crystallographic Data Centre
#                                CCDC 
#
#######################################################################
#
# If this CIF has been generated from an entry in the Cambridge 
# Structural Database, then it will include bibliographic, chemical, 
# crystal, experimental, refinement or atomic coordinate data resulting 
# from the CCDC's data processing and validation procedures.
#
#######################################################################

data_VUGSUN
_symmetry_cell_setting           monoclinic
_symmetry_space_group_name_H-M   'P 21/c'
_symmetry_Int_Tables_number      14
_space_group_name_Hall           '-P 2ybc'
loop_
_symmetry_equiv_pos_site_id
_symmetry_equiv_pos_as_xyz
1 x,y,z
2 -x,1/2+y,1/2-z
3 -x,-y,-z
4 x,1/2-y,1/2+z
_cell_length_a                   13.8742(5)
_cell_length_b                   16.5419(6)
_cell_length_c                   18.5356(9)
_cell_angle_alpha                90
_cell_angle_beta                 110.5470(10)
_cell_angle_gamma                90
_cell_volume                     3983.4
loop_
_atom_site_label
_atom_site_type_symbol
_atom_site_fract_x
_atom_site_fract_y
_atom_site_fract_z
Cd1 Cd 0.536407(15) 0.058130(13) 0.180507(11)
O1 O 0.49800(18) 0.06294(12) 0.29071(13)
O2 O 0.47754(17) 0.18619(13) 0.24295(12)
N1 N 0.37545(19) 0.04083(17) 0.09466(15)
N2 N 0.70602(19) 0.06974(17) 0.26523(15)
O3 O 0.55649(19) 0.14229(14) 0.09295(12)
O4 O 0.53937(17) -0.10422(14) 0.20842(14)
O5 O 0.61627(18) -0.04339(13) 0.13842(13)
C1 C 0.4896(2) 0.13801(18) 0.29790(17)
Cd2 Cd 0.541208(16) 0.316045(13) 0.225641(12)
C2 C 0.3593(3) 0.0382(2) 0.01755(19)
C3 C 0.2842(2) 0.0332(2) 0.10018(19)
C4 C 0.7846(3) 0.0911(2) 0.24043(19)
C5 C 0.7509(2) 0.0424(2) 0.33525(18)
C6 C 0.5027(2) 0.16990(17) 0.37631(16)
O6 O 0.6040(2) 0.43248(15) 0.18765(19)
N3 N 0.4013(2) 0.32792(17) 0.11752(16)
O7 O 0.63597(16) 0.25193(13) 0.15738(11)
N4 N 0.6757(2) 0.30801(17) 0.33547(15)
H1 H 0.4108 0.0420 -0.0036
C7 C 0.2590(3) 0.0295(2) -0.0231(2)
N5 N 0.2100(2) 0.02646(19) 0.03027(16)
H2 H 0.2723 0.0326 0.1465
H3 H 0.7755 0.1122 0.1920
C8 C 0.8766(3) 0.0773(2) 0.29562(19)
N6 N 0.85484(19) 0.04645(17) 0.35757(15)
H4 H 0.7157 0.0226 0.3660
C9 C 0.5852(3) 0.14160(19) 0.43844(18)
C10 C 0.4400(2) 0.23137(17) 0.38742(16)
C11 C 0.3932(2) 0.39827(17) 0.32211(16)
H5 H 0.5812 0.4767 0.1944
H6 H 0.6666 0.4388 0.1994
C12 C 0.3847(3) 0.3822(2) 0.0581(2)
C13 C 0.3163(3) 0.2864(2) 0.1012(2)
H7 H 0.2284 0.0262 -0.0764
C14 C 0.1032(3) 0.0136(2) 0.0149(2)
H8 H 0.9413 0.0866 0.2927
C15 C 0.9282(2) 0.0227(2) 0.42992(18)
C16 C 0.3184(3) -0.1662(2) 0.09266(19)
C17 C 0.2321(3) -0.2195(2) 0.15648(19)
H9 H 0.6238 0.0983 0.4315
C18 C 0.6110(2) 0.17668(19) 0.51033(18)
C19 C 0.4690(2) 0.26764(17) 0.45953(16)
C20 C 0.3381(2) 0.25251(17) 0.32867(16)
C21 C 0.3132(2) 0.33248(17) 0.30548(16)
H10 H 0.4323 0.4199 0.0542
C22 C 0.2888(3) 0.3723(2) 0.0064(2)
N7 N 0.2454(2) 0.3105(2) 0.03445(16)
H11 H 0.3061 0.2452 0.1320
C23 C 0.0428(3) -0.0210(3) -0.0539(2)
C24 C 0.0603(3) 0.0342(3) 0.0684(2)
C25 C 1.0234(3) -0.0056(3) 0.4336(2)
C26 C 0.9053(3) 0.0282(3) 0.4963(2)
C27 C 0.2221(3) -0.1783(2) 0.0426(2)
H12 H 0.3724 -0.1440 0.0805
N8 N 0.1668(2) -0.21199(19) 0.08358(15)
H13 H 0.2144 -0.2414 0.1963
H14 H 0.6658 0.1566 0.5516
C28 C 0.5550(2) 0.24186(18) 0.52049(16)
H15 H 0.4300 0.3103 0.4672
C29 C 0.2614(2) 0.19412(17) 0.30428(16)
C30 C 0.2123(2) 0.35304(19) 0.26407(18)
H16 H 0.2583 0.4014 -0.0389
C31 C 0.1412(3) 0.2831(3) 0.00336(19)
H17 H 0.0717 -0.0354 -0.0903
H18 H 0.1009 0.0573 0.1148
H19 H 1.0395 -0.0093 0.3891
H20 H 0.8413 0.0474 0.4939
H21 H 0.1977 -0.1660 -0.0097
C32 C 0.0615(3) -0.2355(2) 0.05425(19)
C33 C 0.5847(2) 0.28569(19) 0.59637(16)
C34 C 0.1597(2) 0.21448(18) 0.26032(17)
H22 H 0.2780 0.1403 0.3174
H23 H 0.1956 0.4068 0.2507
C35 C 0.1358(2) 0.29504(19) 0.24226(18)
C36 C 0.0984(3) 0.2599(4) -0.0715(2)
C37 C 0.0832(3) 0.2832(4) 0.0491(2)
C38 C 0.0037(3) -0.2359(4) 0.1001(2)
C39 C 0.0180(3) -0.2590(4) -0.0210(2)
C40 C 0.0762(3) 0.1505(2) 0.2372(2)
H24 H 0.0681 0.3101 0.2154
H25 H 0.1375 0.2601 -0.1033
H26 H 0.1124 0.2998 0.1002
H27 H 0.0330 -0.2200 0.1513
H28 H 0.0568 -0.2586 -0.0531
O8 O 0.0994(2) 0.08122(16) 0.2632(2)
O9 O -0.01194(18) 0.17117(15) 0.19383(15)
Cd2A Cd 0.458792(16) -0.183955(13) 0.274359(12)
O4A O 0.46063(17) 0.39578(14) 0.29158(14)
N4A N 0.3243(2) -0.19199(17) 0.16453(15)
Cd1A Cd 0.463593(15) 0.558130(13) 0.319493(11)
O5A O 0.38373(18) 0.45661(13) 0.36158(13)
C24B C -0.0603(3) -0.0342(3) -0.0684(2)
C23B C -0.0428(3) 0.0210(3) 0.0539(2)
C26B C 1.0947(3) -0.0282(3) 0.5037(2)
C25B C 0.9766(3) 0.0056(3) 0.5664(2)
C14B C -0.1032(3) -0.0136(2) -0.0149(2)
H18B H -0.1009 -0.0573 -0.1148
H17B H -0.0717 0.0354 0.0903
C15B C 1.0718(2) -0.0227(2) 0.57008(18)
H20B H 1.1587 -0.0474 0.5061
H19B H 0.9605 0.0093 0.6109
O7C O 0.63597(16) 0.24807(13) 0.65738(11)
O3C O 0.55649(19) 0.35771(14) 0.59295(12)
C38B C -0.0037(3) 0.2359(4) -0.1001(2)
C39B C -0.0180(3) 0.2590(4) 0.0210(2)
N5B N -0.2100(2) -0.02646(19) -0.03027(16)
N6B N 1.14516(19) -0.04645(17) 0.64243(15)
C36B C -0.0984(3) -0.2599(4) 0.0715(2)
C37B C -0.0832(3) -0.2832(4) -0.0491(2)
Cd2C Cd 0.541208(16) 0.183955(13) 0.725641(12)
Cd1C Cd 0.536407(15) 0.441870(13) 0.680507(11)
H27B H -0.0330 0.2200 -0.1513
C32B C -0.0615(3) 0.2355(2) -0.05425(19)
H28B H -0.0568 0.2586 0.0531
C7B C -0.2590(3) -0.0295(2) 0.0231(2)
C3B C -0.2842(2) -0.0332(2) -0.10018(19)
C8B C 1.1234(3) -0.0773(2) 0.70438(19)
C5B C 1.2491(2) -0.0424(2) 0.66475(18)
C31B C -0.1412(3) -0.2831(3) -0.00336(19)
H25B H -0.1375 -0.2601 0.1033
H26B H -0.1124 -0.2998 -0.1002
N8B N -0.1668(2) 0.21199(19) -0.08358(15)
C2B C -0.3593(3) -0.0382(2) -0.01755(19)
H7B H -0.2284 -0.0262 0.0764
N1B N -0.37545(19) -0.04083(17) -0.09466(15)
H2B H -0.2723 -0.0326 -0.1465
C4B C 1.2154(3) -0.0911(2) 0.75957(19)
H8B H 1.0587 -0.0866 0.7073
N2B N 1.29398(19) -0.06974(17) 0.73477(15)
H4B H 1.2843 -0.0226 0.6340
N7B N -0.2454(2) -0.3105(2) -0.03445(16)
C27B C -0.2221(3) 0.1783(2) -0.0426(2)
C17B C -0.2321(3) 0.2195(2) -0.15648(19)
H1B H -0.4108 -0.0420 0.0036
Cd1B Cd -0.536407(15) -0.058130(13) -0.180507(11)
H3B H 1.2245 -0.1122 0.8080
Cd1B_2 Cd 1.463593(15) -0.058130(13) 0.819493(11)
C22B C -0.2888(3) -0.3723(2) -0.0064(2)
C13B C -0.3163(3) -0.2864(2) -0.1012(2)
H21B H -0.1977 0.1660 0.0097
C16B C -0.3184(3) 0.1662(2) -0.09266(19)
N4C N -0.3243(2) 0.19199(17) -0.16453(15)
H13B H -0.2144 0.2414 -0.1963
O1B O -0.49800(18) -0.06294(12) -0.29071(13)
O2B O -0.47754(17) -0.18619(13) -0.24295(12)
O3B O -0.55649(19) -0.14229(14) -0.09295(12)
O4B O -0.53937(17) 0.10422(14) -0.20842(14)
O5B O -0.61627(18) 0.04339(13) -0.13842(13)
N2B_2 N -0.70602(19) -0.06974(17) -0.26523(15)
C12B C -0.3847(3) -0.3822(2) -0.0581(2)
H16B H -0.2583 -0.4014 0.0389
N3B N -0.4013(2) -0.32792(17) -0.11752(16)
H11B H -0.3061 -0.2452 -0.1320
H12B H -0.3724 0.1440 -0.0805
Cd2C_2 Cd -0.458792(16) 0.183955(13) -0.274359(12)
C1B C -0.4896(2) -0.13801(18) -0.29790(17)
Cd2B Cd -0.541208(16) -0.316045(13) -0.225641(12)
H10B H -0.4323 -0.4199 -0.0542
C6B C -0.5027(2) -0.16990(17) -0.37631(16)
O4C O -0.46063(17) -0.39578(14) -0.29158(14)
O6B O -0.6040(2) -0.43248(15) -0.18765(19)
O7B O -0.63597(16) -0.25193(13) -0.15738(11)
N4B N -0.6757(2) -0.30801(17) -0.33547(15)
C9B C -0.5852(3) -0.14160(19) -0.43844(18)
C10B C -0.4400(2) -0.23137(17) -0.38742(16)
C11B C -0.3932(2) -0.39827(17) -0.32211(16)
Cd1C_2 Cd -0.463593(15) -0.558130(13) -0.319493(11)
H5B H -0.5812 -0.4767 -0.1944
H6B H -0.6666 -0.4388 -0.1994
H9B H -0.6238 -0.0983 -0.4315
C18B C -0.6110(2) -0.17668(19) -0.51033(18)
C19B C -0.4690(2) -0.26764(17) -0.45953(16)
C20B C -0.3381(2) -0.25251(17) -0.32867(16)
O5C O -0.38373(18) -0.45661(13) -0.36158(13)
C21B C -0.3132(2) -0.33248(17) -0.30548(16)
H14B H -0.6658 -0.1566 -0.5516
C28B C -0.5550(2) -0.24186(18) -0.52049(16)
H15B H -0.4300 -0.3103 -0.4672
C29B C -0.2614(2) -0.19412(17) -0.30428(16)
C30B C -0.2123(2) -0.35304(19) -0.26407(18)
C33B C -0.5847(2) -0.28569(19) -0.59637(16)
C34B C -0.1597(2) -0.21448(18) -0.26032(17)
H22B H -0.2780 -0.1403 -0.3174
H23B H -0.1956 -0.4068 -0.2507
C35B C -0.1358(2) -0.29504(19) -0.24226(18)
O7A O -0.63597(16) -0.24807(13) -0.65738(11)
O3A O -0.55649(19) -0.35771(14) -0.59295(12)
C40B C -0.0762(3) -0.1505(2) -0.2372(2)
H24B H -0.0681 -0.3101 -0.2154
Cd2A_2 Cd -0.541208(16) -0.183955(13) -0.725641(12)
Cd1A_2 Cd -0.536407(15) -0.441870(13) -0.680507(11)
O8B O -0.0994(2) -0.08122(16) -0.2632(2)
O9B O 0.01194(18) -0.17117(15) -0.19383(15)
O10 O 0.8496(2) 0.29459(18) 0.1803(2)
H29 H 0.8869 0.2561 0.1784
H30 H 0.7884 0.2798 0.1657
O11 O 0.7829(3) 0.4588(2) 0.1575(3)
H31 H 0.8020 0.4095 0.1652
H32 H 0.8173 0.4966 0.1840
loop_
_geom_bond_atom_site_label_1
_geom_bond_atom_site_label_2
_geom_bond_site_symmetry_1
_geom_bond_site_symmetry_2
Cd1 O1 1_555 1_555
O1 C1 1_555 1_555
O2 Cd1 1_555 1_555
N1 Cd1 1_555 1_555
N2 Cd1 1_555 1_555
O3 Cd1 1_555 1_555
O4 Cd1 1_555 1_555
O5 Cd1 1_555 1_555
C1 O2 1_555 1_555
Cd2 O2 1_555 1_555
C2 N1 1_555 1_555
C3 N1 1_555 1_555
C4 N2 1_555 1_555
C5 N2 1_555 1_555
C6 C1 1_555 1_555
O6 Cd2 1_555 1_555
N3 Cd2 1_555 1_555
O7 Cd2 1_555 1_555
N4 Cd2 1_555 1_555
H1 C2 1_555 1_555
C7 C2 1_555 1_555
N5 C3 1_555 1_555
H2 C3 1_555 1_555
H3 C4 1_555 1_555
C8 C4 1_555 1_555
N6 C5 1_555 1_555
H4 C5 1_555 1_555
C9 C6 1_555 1_555
C10 C6 1_555 1_555
C11 C21 1_555 1_555
H5 O6 1_555 1_555
H6 O6 1_555 1_555
C12 N3 1_555 1_555
C13 N3 1_555 1_555
H7 C7 1_555 1_555
C14 N5 1_555 1_555
H8 C8 1_555 1_555
C15 N6 1_555 1_555
C16 C27 1_555 1_555
C17 N8 1_555 1_555
H9 C9 1_555 1_555
C18 C9 1_555 1_555
C19 C10 1_555 1_555
C20 C10 1_555 1_555
C21 C20 1_555 1_555
H10 C12 1_555 1_555
C22 C12 1_555 1_555
N7 C13 1_555 1_555
H11 C13 1_555 1_555
C23 C14 1_555 1_555
C24 C14 1_555 1_555
C25 C15 1_555 1_555
C26 C15 1_555 1_555
C27 N8 1_555 1_555
H12 C16 1_555 1_555
N8 C32 1_555 1_555
H13 C17 1_555 1_555
H14 C18 1_555 1_555
C28 C18 1_555 1_555
H15 C19 1_555 1_555
C29 C20 1_555 1_555
C30 C21 1_555 1_555
H16 C22 1_555 1_555
C31 N7 1_555 1_555
H17 C23 1_555 1_555
H18 C24 1_555 1_555
H19 C25 1_555 1_555
H20 C26 1_555 1_555
H21 C27 1_555 1_555
C32 C38 1_555 1_555
C33 C28 1_555 1_555
C34 C29 1_555 1_555
H22 C29 1_555 1_555
H23 C30 1_555 1_555
C35 C30 1_555 1_555
C36 C31 1_555 1_555
C37 C31 1_555 1_555
C38 H27 1_555 1_555
C39 C32 1_555 1_555
C40 C34 1_555 1_555
H24 C35 1_555 1_555
H25 C36 1_555 1_555
H26 C37 1_555 1_555
H28 C39 1_555 1_555
O8 C40 1_555 1_555
O9 C40 1_555 1_555
O10 H29 1_555 1_555
H30 O10 1_555 1_555
O11 H31 1_555 1_555
H32 O11 1_555 1_555
Cd2A O4 1_555 1_555
O4A Cd2 1_555 1_555
N4A C16 1_555 1_555
Cd1A O4A 1_555 1_555
O5A C11 1_555 1_555
C24B C23 1_555 1_555
C23B C24 1_555 1_555
C26B C25 1_555 1_555
C25B C26 1_555 1_555
C14B C24B 1_555 1_555
H18B C24B 1_555 1_555
H17B C23B 1_555 1_555
C15B C26B 1_555 1_555
H20B C26B 1_555 1_555
H19B C25B 1_555 1_555
O7C C33 1_555 1_555
O3C C33 1_555 1_555
C38B C36 1_555 1_555
C39B C37 1_555 1_555
N5B C14B 1_555 1_555
N6B C15B 1_555 1_555
C36B C38 1_555 1_555
C37B C39 1_555 1_555
Cd2C O7C 1_555 1_555
Cd1C O3C 1_555 1_555
H27B C38B 1_555 1_555
C32B C38B 1_555 1_555
H28B C39B 1_555 1_555
C7B N5B 1_555 1_555
C3B N5B 1_555 1_555
C8B N6B 1_555 1_555
C5B N6B 1_555 1_555
C31B C36B 1_555 1_555
H25B C36B 1_555 1_555
H26B C37B 1_555 1_555
N8B C32B 1_555 1_555
C2B C7B 1_555 1_555
H7B C7B 1_555 1_555
N1B C3B 1_555 1_555
H2B C3B 1_555 1_555
C4B C8B 1_555 1_555
H8B C8B 1_555 1_555
N2B C5B 1_555 1_555
H4B C5B 1_555 1_555
N7B C31B 1_555 1_555
C27B N8B 1_555 1_555
C17B N8B 1_555 1_555
H1B C2B 1_555 1_555
Cd1B N1B 1_555 1_555
H3B C4B 1_555 1_555
Cd1B_2 N2B 1_555 1_555
C22B N7B 1_555 1_555
C13B N7B 1_555 1_555
H21B C27B 1_555 1_555
C16B C27B 1_555 1_555
N4C C17B 1_555 1_555
H13B C17B 1_555 1_555
O1B Cd1B 1_555 1_555
O2B Cd1B 1_555 1_555
O3B Cd1B 1_555 1_555
O4B Cd1B 1_555 1_555
O5B Cd1B 1_555 1_555
N2B_2 Cd1B 1_555 1_555
C12B C22B 1_555 1_555
H16B C22B 1_555 1_555
N3B C13B 1_555 1_555
H11B C13B 1_555 1_555
H12B C16B 1_555 1_555
Cd2C_2 N4C 1_555 1_555
C1B O1B 1_555 1_555
Cd2B O2B 1_555 1_555
H10B C12B 1_555 1_555
C6B C1B 1_555 1_555
O4C Cd2B 1_555 1_555
O6B Cd2B 1_555 1_555
O7B Cd2B 1_555 1_555
N4B Cd2B 1_555 1_555
C9B C6B 1_555 1_555
C10B C6B 1_555 1_555
C11B O4C 1_555 1_555
Cd1C_2 O4C 1_555 1_555
H5B O6B 1_555 1_555
H6B O6B 1_555 1_555
H9B C9B 1_555 1_555
C18B C9B 1_555 1_555
C19B C10B 1_555 1_555
C20B C10B 1_555 1_555
O5C C11B 1_555 1_555
C21B C11B 1_555 1_555
H14B C18B 1_555 1_555
C28B C18B 1_555 1_555
H15B C19B 1_555 1_555
C29B C20B 1_555 1_555
C30B C21B 1_555 1_555
C33B C28B 1_555 1_555
C34B C29B 1_555 1_555
H22B C29B 1_555 1_555
H23B C30B 1_555 1_555
C35B C30B 1_555 1_555
O7A C33B 1_555 1_555
O3A C33B 1_555 1_555
C40B C34B 1_555 1_555
H24B C35B 1_555 1_555
Cd2A_2 O7A 1_555 1_555
Cd1A_2 O3A 1_555 1_555
O8B C40B 1_555 1_555
O9B C40B 1_555 1_555
C7 N5 1_555 1_555
C8 N6 1_555 1_555
C11 O4A 1_555 1_555
C17 N4A 1_555 1_555
C19 C28 1_555 1_555
C22 N7 1_555 1_555
C34 C35 1_555 1_555
Cd2A N4A 1_555 1_555
Cd1A O5A 1_555 1_555
C23B C14B 1_555 1_555
C25B C15B 1_555 1_555
C39B C32B 1_555 1_555
C37B C31B 1_555 1_555
C2B N1B 1_555 1_555
C4B N2B 1_555 1_555
C16B N4C 1_555 1_555
O2B C1B 1_555 1_555
O4B Cd2C_2 1_555 1_555
C12B N3B 1_555 1_555
N3B Cd2B 1_555 1_555
Cd1C_2 O5C 1_555 1_555
C19B C28B 1_555 1_555
C20B C21B 1_555 1_555
C34B C35B 1_555 1_555

#END
