
#######################################################################
#
#                 Cambridge Crystallographic Data Centre
#                                CCDC 
#
#######################################################################
#
# If this CIF has been generated from an entry in the Cambridge 
# Structural Database, then it will include bibliographic, chemical, 
# crystal, experimental, refinement or atomic coordinate data resulting 
# from the CCDC's data processing and validation procedures.
#
#######################################################################

data_VUGVOJ
_symmetry_cell_setting           monoclinic
_symmetry_space_group_name_H-M   'C 2/c'
_symmetry_Int_Tables_number      15
_space_group_name_Hall           '-C 2yn'
loop_
_symmetry_equiv_pos_site_id
_symmetry_equiv_pos_as_xyz
1 x,y,z
2 -x,y,1/2-z
3 1/2+x,1/2+y,z
4 1/2-x,1/2+y,1/2-z
5 -x,-y,-z
6 x,-y,1/2+z
7 1/2-x,1/2-y,-z
8 1/2+x,1/2-y,1/2+z
_cell_length_a                   32.50(2)
_cell_length_b                   14.219(8)
_cell_length_c                   14.468(9)
_cell_angle_alpha                90
_cell_angle_beta                 104.848(6)
_cell_angle_gamma                90
_cell_volume                     6462.67
loop_
_atom_site_label
_atom_site_type_symbol
_atom_site_fract_x
_atom_site_fract_y
_atom_site_fract_z
Mn1 Mn 0.32396(2) 0.19552(4) -0.06991(5)
Mn2 Mn 0.21858(2) 0.20277(4) -0.09204(5)
Cl1 Cl 0.32215(4) 0.12656(8) -0.30340(9)
S1 S 0.47693(5) 0.09577(9) 0.06742(10)
F1 F 0.43815(13) -0.2666(2) 0.1375(4)
F2 F 0.4949(2) -0.2672(2) 0.0936(3)
F3 F 0.5403(2) -0.3368(6) 0.2164(6)
O1 O 0.26264(10) 0.12194(19) -0.1026(2)
O2 O 0.32619(11) 0.2183(2) 0.0821(2)
O3 O 0.26889(10) 0.29830(19) -0.0590(2)
O4 O 0.31829(12) 0.1962(2) -0.2310(2)
O5 O 0.2910(2) 0.0534(6) -0.2996(7)
O6 O 0.3620(2) 0.0836(6) -0.2837(7)
O7 O 0.3086(3) 0.1733(6) -0.3906(5)
O8 O 0.35414(11) 0.0483(2) -0.0254(2)
O9 O 0.39434(13) 0.1738(2) -0.0281(2)
N1 N 0.18424(13) 0.0746(2) -0.1157(2)
N2 N 0.30226(13) 0.2515(2) 0.2365(2)
N3 N 0.34299(14) 0.3474(2) -0.0947(2)
C1 C 0.14240(17) 0.0614(3) -0.1254(3)
C2 C 0.12397(17) -0.0272(3) -0.1411(3)
C3 C 0.14990(19) -0.1039(3) -0.1474(4)
C4 C 0.19248(17) -0.0901(3) -0.1387(3)
C5 C 0.20946(16) 0.0000(3) -0.1225(3)
C6 C 0.25589(17) 0.0225(3) -0.1106(3)
C7 C 0.28586(16) 0.2730(3) 0.3093(3)
C8 C 0.30005(17) 0.2333(3) 0.3982(3)
C9 C 0.33115(17) 0.1645(3) 0.4115(3)
C10 C 0.34795(17) 0.1397(3) 0.3358(3)
C11 C 0.33315(16) 0.1856(3) 0.2484(3)
C12 C 0.34849(18) 0.1636(3) 0.1622(3)
C13 C 0.38264(19) 0.3714(3) -0.0977(3)
C14 C 0.3937(2) 0.4650(4) -0.1091(4)
C15 C 0.3633(2) 0.5357(3) -0.1189(4)
C16 C 0.3227(2) 0.5096(3) -0.1169(4)
C17 C 0.31333(18) 0.4147(3) -0.1052(3)
C18 C 0.26888(18) 0.3851(3) -0.1073(3)
C19 C 0.50342(17) 0.0054(3) 0.1357(3)
C20 C 0.47588(16) -0.0654(3) 0.1424(3)
C21 C 0.43293(16) -0.0471(3) 0.0892(3)
C22 C 0.42854(16) 0.0376(3) 0.0457(3)
C23 C 0.48890(16) -0.1489(3) 0.2035(3)
C24 C 0.47945(19) -0.2488(3) 0.1670(4)
C25 C 0.5000 -0.3117(5) 0.2500
C26 C 0.55058(18) 0.0115(4) 0.1775(4)
C27 C 0.38956(18) 0.0872(3) -0.0075(3)
H1 H 0.4101 -0.0899 0.0849
H2 H 0.3692 0.0923 0.3434
H3 H 0.2103 -0.1417 -0.1437
H4 H 0.3010 0.5559 -0.1234
H5 H 0.3702 0.5996 -0.1267
H6 H 0.4220 0.4803 -0.1103
H7 H 0.4036 0.3237 -0.0920
H8 H 0.3409 0.1346 0.4719
H9 H 0.1381 -0.1654 -0.1577
H10 H 0.2887 0.2527 0.4496
H11 H 0.2634 0.3177 0.2992
H12 H 0.0944 -0.0354 -0.1475
H13 H 0.1250 0.1141 -0.1213
H14 H 0.5649 -0.0144 0.1338
H15 H 0.5581 -0.0228 0.2358
H16 H 0.5586 0.0755 0.1895
H17 H 0.2561 0.4319 -0.0771
H18 H 0.2530 0.3782 -0.1719
H19 H 0.3780 0.1772 0.1753
H20 H 0.3439 0.0988 0.1473
H21 H 0.2723 -0.0073 -0.0543
H22 H 0.2645 -0.0003 -0.1645
Mn1A Mn 0.67604(2) 0.19552(4) 0.56991(5)
Mn1F Mn 0.17604(2) 0.30448(4) 0.06991(5)
Mn2F Mn 0.28142(2) 0.29723(4) 0.09204(5)
Cl1F Cl 0.17785(4) 0.37344(8) 0.30340(9)
S1A S 0.52307(5) 0.09577(9) 0.43258(10)
F1A F 0.56185(13) -0.2666(2) 0.3625(4)
F2A F 0.5051(2) -0.2672(2) 0.4064(3)
F3A F 0.4597(2) -0.3368(6) 0.2836(6)
O1F O 0.23736(10) 0.37806(19) 0.1026(2)
O2F O 0.17381(11) 0.2817(2) -0.0821(2)
O3F O 0.23111(10) 0.20170(19) 0.0590(2)
O4F O 0.18171(12) 0.3038(2) 0.2310(2)
O5F O 0.2090(2) 0.4466(6) 0.2996(7)
O6F O 0.1380(2) 0.4164(6) 0.2837(7)
O7F O 0.1914(3) 0.3267(6) 0.3906(5)
O8A O 0.64586(11) 0.0483(2) 0.5254(2)
O8F O 0.14586(11) 0.4517(2) 0.0254(2)
O9A O 0.60566(13) 0.1738(2) 0.5281(2)
O9F O 0.10566(13) 0.3262(2) 0.0281(2)
N1F N 0.31576(13) 0.4254(2) 0.1157(2)
N2F N 0.19774(13) 0.2485(2) -0.2365(2)
N3F N 0.15701(14) 0.1526(2) 0.0947(2)
C1F C 0.35760(17) 0.4386(3) 0.1254(3)
C2F C 0.37603(17) 0.5272(3) 0.1411(3)
C3F C 0.35010(19) 0.6039(3) 0.1474(4)
C4F C 0.30752(17) 0.5901(3) 0.1387(3)
C5F C 0.29054(16) 0.5000(3) 0.1225(3)
C6F C 0.24411(17) 0.4775(3) 0.1106(3)
C7F C 0.21414(16) 0.2270(3) -0.3093(3)
C8F C 0.19995(17) 0.2667(3) -0.3982(3)
C9F C 0.16885(17) 0.3355(3) -0.4115(3)
C10F C 0.15205(17) 0.3603(3) -0.3358(3)
C11F C 0.16685(16) 0.3144(3) -0.2484(3)
C12F C 0.15151(18) 0.3364(3) -0.1622(3)
C13F C 0.11736(19) 0.1286(3) 0.0977(3)
C14F C 0.1063(2) 0.0350(4) 0.1091(4)
C15F C 0.1367(2) -0.0357(3) 0.1189(4)
C16F C 0.1773(2) -0.0096(3) 0.1169(4)
C17F C 0.18667(18) 0.0853(3) 0.1052(3)
C18F C 0.23112(18) 0.1149(3) 0.1073(3)
C19A C 0.49658(17) 0.0054(3) 0.3643(3)
C20A C 0.52412(16) -0.0654(3) 0.3576(3)
C21A C 0.56707(16) -0.0471(3) 0.4108(3)
C22A C 0.57146(16) 0.0376(3) 0.4543(3)
C23A C 0.51110(16) -0.1489(3) 0.2965(3)
C24A C 0.52055(19) -0.2488(3) 0.3330(4)
C26A C 0.44942(18) 0.0115(4) 0.3225(4)
C27A C 0.61044(18) 0.0872(3) 0.5075(3)
H1A H 0.5899 -0.0899 0.4151
H2F H 0.1308 0.4077 -0.3434
H3F H 0.2897 0.6417 0.1437
H4F H 0.1990 -0.0559 0.1234
H5F H 0.1298 -0.0996 0.1267
H6F H 0.0780 0.0197 0.1103
H7F H 0.0964 0.1763 0.0920
H8F H 0.1591 0.3654 -0.4719
H9F H 0.3619 0.6654 0.1577
H10F H 0.2113 0.2473 -0.4496
H11F H 0.2366 0.1823 -0.2992
H12F H 0.4056 0.5354 0.1475
H13F H 0.3750 0.3859 0.1213
H14A H 0.4351 -0.0144 0.3662
H15A H 0.4419 -0.0228 0.2642
H16A H 0.4414 0.0755 0.3105
H17F H 0.2439 0.0681 0.0771
H18F H 0.2470 0.1218 0.1719
H19F H 0.1220 0.3228 -0.1753
H20F H 0.1561 0.4012 -0.1473
H21F H 0.2277 0.5073 0.0543
H22F H 0.2355 0.5003 0.1645
O10 O 0.4868(2) 0.4298(4) 0.0971(4)
O11 O 0.4677(3) 0.3146(6) 0.2304(7)
F4? F 0.4865(2) -0.3897(4) 0.2581(9)
O12? O 0.4503(2) 0.2929(3) 0.3329(4)
O13? O 0.7128(4) 0.1344(7) 0.8918(7)
O14? O 0.6765(8) 0.0362(7) 0.7686(9)
O15? O 0.6408(4) 0.1529(11) 0.8348(10)
loop_
_geom_bond_atom_site_label_1
_geom_bond_atom_site_label_2
_geom_bond_site_symmetry_1
_geom_bond_site_symmetry_2
Mn1 O1 1_555 1_555
Mn2 O1 1_555 1_555
Cl1 O4 1_555 1_555
S1 C19 1_555 1_555
F1 C24 1_555 1_555
F2 C24 1_555 1_555
F3 C25 1_555 1_555
O1 C6 1_555 1_555
O2 Mn1 1_555 1_555
O3 Mn1 1_555 1_555
O4 Mn1 1_555 1_555
O5 Cl1 1_555 1_555
O6 Cl1 1_555 1_555
O7 Cl1 1_555 1_555
O8 Mn1 1_555 1_555
O9 Mn1 1_555 1_555
N1 Mn2 1_555 1_555
N2 C7 1_555 1_555
N3 Mn1 1_555 1_555
C1 N1 1_555 1_555
C2 C1 1_555 1_555
C3 C2 1_555 1_555
C4 C3 1_555 1_555
C5 N1 1_555 1_555
C6 C5 1_555 1_555
C7 C8 1_555 1_555
C8 C9 1_555 1_555
C9 C10 1_555 1_555
C10 C11 1_555 1_555
C11 N2 1_555 1_555
C12 O2 1_555 1_555
C13 N3 1_555 1_555
C14 C13 1_555 1_555
C15 C14 1_555 1_555
C16 C15 1_555 1_555
C17 N3 1_555 1_555
C18 O3 1_555 1_555
C19 C20 1_555 1_555
C20 C21 1_555 1_555
C21 C22 1_555 1_555
C22 S1 1_555 1_555
C23 C20 1_555 1_555
C24 C23 1_555 1_555
C25 C24 1_555 1_555
C26 C19 1_555 1_555
C27 O8 1_555 1_555
H1 C21 1_555 1_555
H2 C10 1_555 1_555
H3 C4 1_555 1_555
H4 C16 1_555 1_555
H5 C15 1_555 1_555
H6 C14 1_555 1_555
H7 C13 1_555 1_555
H8 C9 1_555 1_555
H9 C3 1_555 1_555
H10 C8 1_555 1_555
H11 C7 1_555 1_555
H12 C2 1_555 1_555
H13 C1 1_555 1_555
H14 C26 1_555 1_555
H15 C26 1_555 1_555
H16 C26 1_555 1_555
H17 C18 1_555 1_555
H18 C18 1_555 1_555
H19 C12 1_555 1_555
H20 C12 1_555 1_555
H21 C6 1_555 1_555
H22 C6 1_555 1_555
Mn1A O8A 1_555 1_555
Mn1F O1F 1_555 1_555
Mn2F O2 1_555 1_555
Cl1F O4F 1_555 1_555
S1A C19A 1_555 1_555
F1A C24A 1_555 1_555
F2A C24A 1_555 1_555
F3A C25 1_555 1_555
O1F Mn2F 1_555 1_555
O2F Mn2 1_555 1_555
O3F Mn2 1_555 1_555
O4F Mn1F 1_555 1_555
O5F Cl1F 1_555 1_555
O6F Cl1F 1_555 1_555
O7F Cl1F 1_555 1_555
O8A C27A 1_555 1_555
O8F Mn1F 1_555 1_555
O9A Mn1A 1_555 1_555
O9F Mn1F 1_555 1_555
N1F Mn2F 1_555 1_555
N2F Mn2 1_555 1_555
N3F Mn1F 1_555 1_555
C1F N1F 1_555 1_555
C2F C1F 1_555 1_555
C3F C2F 1_555 1_555
C4F C3F 1_555 1_555
C5F N1F 1_555 1_555
C6F O1F 1_555 1_555
C7F N2F 1_555 1_555
C8F C7F 1_555 1_555
C9F C8F 1_555 1_555
C10F C9F 1_555 1_555
C11F N2F 1_555 1_555
C12F O2F 1_555 1_555
C13F N3F 1_555 1_555
C14F C13F 1_555 1_555
C15F C14F 1_555 1_555
C16F C15F 1_555 1_555
C17F N3F 1_555 1_555
C18F O3F 1_555 1_555
C19A C20A 1_555 1_555
C20A C21A 1_555 1_555
C21A C22A 1_555 1_555
C22A S1A 1_555 1_555
C23A C23 1_555 1_555
C24A C25 1_555 1_555
C26A C19A 1_555 1_555
C27A O9A 1_555 1_555
H1A C21A 1_555 1_555
H2F C10F 1_555 1_555
H3F C4F 1_555 1_555
H4F C16F 1_555 1_555
H5F C15F 1_555 1_555
H6F C14F 1_555 1_555
H7F C13F 1_555 1_555
H8F C9F 1_555 1_555
H9F C3F 1_555 1_555
H10F C8F 1_555 1_555
H11F C7F 1_555 1_555
H12F C2F 1_555 1_555
H13F C1F 1_555 1_555
H14A C26A 1_555 1_555
H15A C26A 1_555 1_555
H16A C26A 1_555 1_555
H17F C18F 1_555 1_555
H18F C18F 1_555 1_555
H19F C12F 1_555 1_555
H20F C12F 1_555 1_555
H21F C6F 1_555 1_555
H22F C6F 1_555 1_555
Mn2 O3 1_555 1_555
O3 Mn2F 1_555 1_555
O9 C27 1_555 1_555
N2 Mn2F 1_555 1_555
C4 C5 1_555 1_555
C11 C12 1_555 1_555
C16 C17 1_555 1_555
C17 C18 1_555 1_555
C22 C27 1_555 1_555
Mn1F O2F 1_555 1_555
Mn1F O3F 1_555 1_555
Mn2F O3F 1_555 1_555
C4F C5F 1_555 1_555
C5F C6F 1_555 1_555
C10F C11F 1_555 1_555
C11F C12F 1_555 1_555
C16F C17F 1_555 1_555
C17F C18F 1_555 1_555
C20A C23A 1_555 1_555
C22A C27A 1_555 1_555
C23A C24A 1_555 1_555

#END
