
#######################################################################
#
#                 Cambridge Crystallographic Data Centre
#                                CCDC 
#
#######################################################################
#
# If this CIF has been generated from an entry in the Cambridge 
# Structural Database, then it will include bibliographic, chemical, 
# crystal, experimental, refinement or atomic coordinate data resulting 
# from the CCDC's data processing and validation procedures.
#
#######################################################################

data_VUGWUR
_symmetry_cell_setting           triclinic
_symmetry_space_group_name_H-M   'P -1'
_symmetry_Int_Tables_number      2
_space_group_name_Hall           '-P 1'
loop_
_symmetry_equiv_pos_site_id
_symmetry_equiv_pos_as_xyz
1 x,y,z
2 -x,-y,-z
_cell_length_a                   9.55740(10)
_cell_length_b                   12.6056(2)
_cell_length_c                   18.9892(3)
_cell_angle_alpha                106.1310(10)
_cell_angle_beta                 98.9710(10)
_cell_angle_gamma                100.4790(10)
_cell_volume                     2108.78
loop_
_atom_site_label
_atom_site_type_symbol
_atom_site_fract_x
_atom_site_fract_y
_atom_site_fract_z
La1 La -0.23318(3) -0.01821(2) -0.003855(13)
O1 O -0.3095(4) 0.0227(4) 0.11957(19)
O2 O -0.5402(4) 0.0311(3) 0.08820(19)
N1 N 0.0004(5) 0.1475(4) 0.6786(2)
O3 O -0.0025(4) 0.8890(3) 0.9256(2)
O4 O -0.2394(4) 0.8140(4) 0.8833(2)
O5 O -0.1421(4) 0.0673(4) 0.9013(2)
N2 N -0.0428(5) 0.6089(4) 0.6747(2)
O6 O 0.1026(4) 0.1239(4) 0.9354(2)
C1 C -0.0780(5) 0.2322(4) 0.5775(3)
C2 C -0.0191(5) 0.3483(4) 0.6023(2)
C3 C -0.2875(5) 0.2588(5) 0.5016(3)
C4 C -0.0914(5) 0.4200(4) 0.5747(3)
O7 O -0.2776(5) 0.1809(4) 0.0271(3)
C5 C -0.4319(5) 0.0809(4) 0.2171(3)
C6 C -0.2265(6) 0.3749(5) 0.5228(3)
C7 C -0.5566(5) 0.1403(5) 0.3159(3)
H1 H -0.6439 0.1513 0.3317
C8 C -0.5579(5) 0.0992(5) 0.2406(3)
H2 H -0.6460 0.0833 0.2044
C9 C -0.2160(5) 0.1852(5) 0.5272(3)
C10 C -0.0120(6) 0.1227(5) 0.8160(3)
C11 C -0.3049(5) 0.1021(5) 0.2719(3)
H3 H -0.2177 0.0869 0.2578
C12 C -0.1255(5) 0.1451(5) 0.7016(3)
H4 H -0.2083 0.1534 0.6707
C13 C -0.0180(6) 0.1033(5) 0.8914(3)
C14 C -0.3083(5) 0.1454(5) 0.3466(3)
H5 H -0.2221 0.1614 0.3840
C15 C -0.4280(5) 0.0404(4) 0.1343(3)
C16 C 0.1241(6) 0.3975(5) 0.6595(3)
H6 H 0.1463 0.3407 0.6830
H7 H 0.1167 0.4652 0.6981
H8 H 0.2021 0.4184 0.6344
C17 C -0.1345(6) 0.1305(5) 0.7701(3)
H9 H -0.2245 0.1259 0.7858
C18 C 0.0074(6) 0.1533(4) 0.6003(3)
H10 H 0.1106 0.1792 0.5984
H11 H -0.0309 0.0761 0.5637
C19 C 0.1171(6) 0.1281(6) 0.7908(4)
H12 H 0.2029 0.1238 0.8217
C20 C -0.0835(6) 0.7410(4) 0.8079(3)
C21 C 0.0559(6) 0.7371(5) 0.7975(3)
H13 H 0.1384 0.7798 0.8365
C22 C -0.0203(7) 0.5463(5) 0.5998(3)
H14 H 0.0857 0.5565 0.6020
H15 H -0.0608 0.5795 0.5620
O8 O -0.4221(5) -0.1971(4) -0.0069(3)
C23 C -0.1102(6) 0.8196(5) 0.8777(3)
C24 C -0.1774(6) 0.6086(5) 0.6851(3)
H16 H -0.2583 0.5623 0.6462
C25 C -0.2789(8) 0.0594(6) 0.5017(4)
H17 H -0.3640 0.0394 0.4603
H18 H -0.3086 0.0368 0.5436
H19 H -0.2053 0.0196 0.4847
C26 C -0.2014(6) 0.6740(5) 0.7511(3)
H20 H -0.2981 0.6732 0.7576
C27 C 0.1207(6) 0.1396(5) 0.7213(4)
H21 H 0.2085 0.1418 0.7035
C28 C -0.4373(6) 0.2091(7) 0.4492(3)
H22 H -0.4898 0.1461 0.4638
H23 H -0.4937 0.2684 0.4555
C29 C 0.0738(6) 0.6709(5) 0.7303(3)
H24 H 0.1694 0.6685 0.7228
C30 C -0.3082(8) 0.4504(7) 0.4897(3)
H25 H -0.3403 0.4153 0.4351
H26 H -0.2431 0.5255 0.5011
H27 H -0.3933 0.4584 0.5117
N3 N -0.4307(5) 0.1650(4) 0.3671(2)
La1_2 La -0.23318(3) -0.01821(2) 0.996145(13)
La1_3 La -0.23318(3) 0.98179(2) 0.996145(13)
La1A La -0.76682(3) 0.01821(2) 0.003855(13)
La1A_2 La 0.23318(3) 0.01821(2) 1.003855(13)
La1A_3 La 0.23318(3) 1.01821(2) 1.003855(13)
O2A O -0.4598(4) -0.0311(3) -0.08820(19)
O3A O 0.0025(4) 0.1110(3) 0.0744(2)
O4_2 O -0.2394(4) -0.1860(4) -0.1167(2)
O5_2 O -0.1421(4) 0.0673(4) -0.0987(2)
O6A O -0.1026(4) -0.1239(4) 0.0646(2)
O9 O 0.4004(9) -0.3668(7) -0.2887(5)
N4 N 0.4224(12) -0.3717(9) -0.2282(6)
O10 O 0.3844(9) -0.3111(7) -0.1717(5)
O11 O 0.4853(11) -0.4520(9) -0.2152(6)
Cl1 Cl -0.4964(4) -0.1352(3) 0.3197(2)
N5 N -0.1002(4) -0.1603(4) 0.6020(3)
O12 O -0.2155(10) -0.211(2) 0.5762(5)
O13 O -0.0424(14) -0.1547(15) 0.6559(12)
O14 O -0.0152(18) -0.1215(13) 0.5761(7)
loop_
_geom_bond_atom_site_label_1
_geom_bond_atom_site_label_2
_geom_bond_site_symmetry_1
_geom_bond_site_symmetry_2
La1 O1 1_555 1_555
O1 C15 1_555 1_555
O2 C15 1_555 1_555
N1 C12 1_555 1_555
O3 C23 1_555 1_555
O4 C23 1_555 1_555
O5 C13 1_555 1_555
N2 C22 1_555 1_555
O6 C13 1_555 1_555
C1 C2 1_555 1_555
C2 C4 1_555 1_555
C3 C6 1_555 1_555
C4 C6 1_555 1_555
O7 La1 1_555 1_555
C5 C8 1_555 1_555
C6 C30 1_555 1_555
C7 H1 1_555 1_555
C8 C7 1_555 1_555
H2 C8 1_555 1_555
C9 C1 1_555 1_555
C10 C13 1_555 1_555
C11 C5 1_555 1_555
H3 C11 1_555 1_555
C12 H4 1_555 1_555
C14 C11 1_555 1_555
H5 C14 1_555 1_555
C15 C5 1_555 1_555
C16 C2 1_555 1_555
H6 C16 1_555 1_555
H7 C16 1_555 1_555
H8 C16 1_555 1_555
C17 C10 1_555 1_555
H9 C17 1_555 1_555
C18 N1 1_555 1_555
H10 C18 1_555 1_555
H11 C18 1_555 1_555
C19 C10 1_555 1_555
H12 C19 1_555 1_555
C20 C21 1_555 1_555
C21 H13 1_555 1_555
C22 C4 1_555 1_555
H14 C22 1_555 1_555
H15 C22 1_555 1_555
O8 La1 1_555 1_555
C23 C20 1_555 1_555
C24 N2 1_555 1_555
H16 C24 1_555 1_555
C25 C9 1_555 1_555
H17 C25 1_555 1_555
H18 C25 1_555 1_555
H19 C25 1_555 1_555
C26 C20 1_555 1_555
H20 C26 1_555 1_555
C27 N1 1_555 1_555
H21 C27 1_555 1_555
C28 C3 1_555 1_555
H22 C28 1_555 1_555
H23 C28 1_555 1_555
C29 N2 1_555 1_555
H24 C29 1_555 1_555
C30 H25 1_555 1_555
H26 C30 1_555 1_555
H27 C30 1_555 1_555
N3 C7 1_555 1_555
O9 N4 1_555 1_555
N4 O10 1_555 1_555
O11 N4 1_555 1_555
N5 O12 1_555 1_555
O13 N5 1_555 1_555
O14 N5 1_555 1_555
La1_2 O5 1_555 1_555
La1_3 O4 1_555 1_555
La1A O2 1_555 1_555
La1A_2 O6 1_555 1_555
La1A_3 O3 1_555 1_555
O2A La1 1_555 1_555
O3A La1 1_555 1_555
O4_2 La1 1_555 1_555
O5_2 La1 1_555 1_555
O6A La1 1_555 1_555
C1 C18 1_555 1_555
C3 C9 1_555 1_555
C12 C17 1_555 1_555
C14 N3 1_555 1_555
C19 C27 1_555 1_555
C21 C29 1_555 1_555
C24 C26 1_555 1_555
C28 N3 1_555 1_555

#END
