
#######################################################################
#
#                 Cambridge Crystallographic Data Centre
#                                CCDC 
#
#######################################################################
#
# If this CIF has been generated from an entry in the Cambridge 
# Structural Database, then it will include bibliographic, chemical, 
# crystal, experimental, refinement or atomic coordinate data resulting 
# from the CCDC's data processing and validation procedures.
#
#######################################################################

data_VUGXEC
_symmetry_cell_setting           triclinic
_symmetry_space_group_name_H-M   'P -1'
_symmetry_Int_Tables_number      2
_space_group_name_Hall           '-P 1'
loop_
_symmetry_equiv_pos_site_id
_symmetry_equiv_pos_as_xyz
1 x,y,z
2 -x,-y,-z
_cell_length_a                   9.5300(3)
_cell_length_b                   12.5401(4)
_cell_length_c                   18.8719(6)
_cell_angle_alpha                105.932(3)
_cell_angle_beta                 98.860(2)
_cell_angle_gamma                100.482(2)
_cell_volume                     2082.3
loop_
_atom_site_label
_atom_site_type_symbol
_atom_site_fract_x
_atom_site_fract_y
_atom_site_fract_z
Cl1 Cl -0.5006(3) -0.3583(3) 0.1779(2)
N4 N -0.0987(5) 0.3391(5) 0.1022(3)
O9 O -0.101(4) 0.3873(13) 0.0775(9)
O10 O -0.0567(10) 0.3707(9) 0.1692(6)
O11 O -0.2198(9) 0.2522(9) 0.0727(4)
O12 O -0.5976(5) 0.1346(4) 0.2116(3)
O13 O -0.5086(10) 0.0526(9) 0.2875(6)
O14 O -0.6217(7) 0.1830(8) 0.3285(3)
N5 N -0.5787(8) 0.1271(6) 0.2758(5)
Pr1 Pr -0.23418(3) 0.48222(2) 0.496364(12)
O1 O -0.5437(4) -0.4702(4) -0.41333(19)
O2 O -0.3133(4) -0.4802(4) -0.38256(19)
N1 N 0.0035(5) -0.3481(4) 0.1816(3)
N2 N -0.4327(5) -0.3371(5) -0.1337(3)
N3 N -0.0430(5) 0.1100(4) 0.1741(3)
O3 O -0.2332(4) 0.3198(4) 0.3856(2)
C1 C -0.0946(6) -0.0799(5) 0.0733(3)
C2 C -0.0201(5) -0.1508(4) 0.1016(3)
C3 C -0.4319(6) -0.4619(5) -0.3673(3)
O4 O 0.0063(4) 0.3913(3) 0.4249(2)
C4 C -0.0774(6) -0.2681(4) 0.0780(3)
O5 O -0.1388(4) -0.4306(4) 0.4050(2)
C5 C -0.2274(6) -0.1242(5) 0.0225(3)
C6 C -0.0793(6) 0.2434(5) 0.3074(3)
C7 C -0.2898(6) -0.2443(6) 0.0013(3)
C8 C -0.3086(6) -0.4018(5) -0.2293(3)
H1 H -0.2216 -0.4180 -0.2437
C9 C -0.5605(6) -0.4021(5) -0.2600(3)
H2 H -0.6490 -0.4172 -0.2959
O6 O -0.4204(5) 0.3028(4) 0.4912(3)
C10 C -0.4343(5) -0.4214(5) -0.2837(3)
C11 C -0.1042(6) 0.3239(5) 0.3785(3)
C12 C -0.5571(6) -0.3610(5) -0.1844(3)
H3 H -0.6441 -0.3495 -0.1680
C13 C -0.2135(6) -0.3155(5) 0.0284(3)
C14 C 0.1244(6) -0.1005(5) 0.1588(3)
H4 H 0.1624 -0.1621 0.1714
H5 H 0.1091 -0.0482 0.2047
H6 H 0.1947 -0.0586 0.1374
C15 C -0.1309(6) -0.3657(5) 0.2736(3)
H7 H -0.2205 -0.3686 0.2899
C16 C -0.0104(6) -0.3748(5) 0.3187(3)
C17 C 0.0091(6) -0.3455(5) 0.1011(3)
H8 H 0.1120 -0.3198 0.0983
H9 H -0.0296 -0.4237 0.0654
C18 C 0.0579(7) 0.2368(5) 0.2966(4)
H10 H 0.1412 0.2775 0.3357
C19 C -0.3110(6) -0.3585(5) -0.1541(3)
H11 H -0.2250 -0.3440 -0.1166
C20 C 0.0738(7) 0.1708(5) 0.2288(3)
H12 H 0.1691 0.1682 0.2203
C21 C -0.0245(7) 0.0458(5) 0.0971(3)
H13 H -0.0679 0.0789 0.0595
H14 H 0.0811 0.0560 0.0975
C22 C 0.1207(7) -0.3688(6) 0.2940(4)
H15 H 0.2061 -0.3737 0.3252
C23 C 0.1254(7) -0.3558(6) 0.2243(4)
H16 H 0.2136 -0.3524 0.2066
C24 C -0.1227(6) -0.3523(5) 0.2039(3)
H17 H -0.2064 -0.3460 0.1722
C25 C -0.2007(6) 0.1771(5) 0.2516(3)
H18 H -0.2967 0.1778 0.2594
C26 C -0.3133(9) -0.0520(8) -0.0112(3)
H19 H -0.3988 -0.0456 0.0112
H20 H -0.3455 -0.0882 -0.0659
H21 H -0.2508 0.0243 -0.0006
C27 C -0.1785(7) 0.1095(5) 0.1840(3)
H22 H -0.2598 0.0632 0.1451
C28 C -0.4383(6) -0.2928(5) -0.0497(3)
H23 H -0.4947 -0.2331 -0.0429
H24 H -0.4904 -0.3563 -0.0349
C29 C -0.2763(8) -0.4432(7) 0.0033(4)
H25 H -0.2036 -0.4828 -0.0158
H26 H -0.3641 -0.4632 -0.0368
H27 H -0.3017 -0.4661 0.0462
O7 O 0.1067(4) -0.3745(4) 0.4386(2)
C30 C -0.0155(6) -0.3941(5) 0.3951(3)
O8 O -0.2785(5) 0.6773(4) 0.5261(3)
Pr1_2 Pr -0.23418(3) -0.51778(2) -0.503636(12)
Pr1_3 Pr -0.23418(3) -0.51778(2) 0.496364(12)
Pr1A Pr -0.76582(3) -0.48222(2) -0.496364(12)
Pr1A_2 Pr 0.23418(3) -0.48222(2) 0.503636(12)
Pr1A_3 Pr 0.23418(3) 0.51778(2) 0.503636(12)
O1A O -0.4563(4) 0.4702(4) 0.41333(19)
O2_2 O -0.3133(4) 0.5198(4) 0.61744(19)
O4A O -0.0063(4) 0.6087(3) 0.5751(2)
O5_2 O -0.1388(4) 0.5694(4) 0.4050(2)
O7A O -0.1067(4) 0.3745(4) 0.5614(2)
loop_
_geom_bond_atom_site_label_1
_geom_bond_atom_site_label_2
_geom_bond_site_symmetry_1
_geom_bond_site_symmetry_2
Pr1 O3 1_555 1_555
O1 C3 1_555 1_555
O2 C3 1_555 1_555
N1 C17 1_555 1_555
N2 C12 1_555 1_555
N3 C20 1_555 1_555
O3 C11 1_555 1_555
C1 C2 1_555 1_555
C2 C4 1_555 1_555
C3 C10 1_555 1_555
O4 C11 1_555 1_555
C4 C13 1_555 1_555
O5 C30 1_555 1_555
C5 C1 1_555 1_555
C6 C11 1_555 1_555
C7 C5 1_555 1_555
C8 H1 1_555 1_555
C9 H2 1_555 1_555
O6 Pr1 1_555 1_555
C10 C8 1_555 1_555
C12 C9 1_555 1_555
H3 C12 1_555 1_555
C13 C7 1_555 1_555
C14 C2 1_555 1_555
H4 C14 1_555 1_555
H5 C14 1_555 1_555
H6 C14 1_555 1_555
C15 H7 1_555 1_555
C16 C15 1_555 1_555
C17 C4 1_555 1_555
H8 C17 1_555 1_555
H9 C17 1_555 1_555
C18 C6 1_555 1_555
H10 C18 1_555 1_555
C19 N2 1_555 1_555
H11 C19 1_555 1_555
C20 C18 1_555 1_555
H12 C20 1_555 1_555
C21 N3 1_555 1_555
H13 C21 1_555 1_555
H14 C21 1_555 1_555
C22 C16 1_555 1_555
H15 C22 1_555 1_555
C23 N1 1_555 1_555
H16 C23 1_555 1_555
C24 N1 1_555 1_555
H17 C24 1_555 1_555
C25 C6 1_555 1_555
H18 C25 1_555 1_555
C26 C5 1_555 1_555
H19 C26 1_555 1_555
H20 C26 1_555 1_555
H21 C26 1_555 1_555
C27 N3 1_555 1_555
H22 C27 1_555 1_555
C28 N2 1_555 1_555
H23 C28 1_555 1_555
H24 C28 1_555 1_555
C29 C13 1_555 1_555
H25 C29 1_555 1_555
H26 C29 1_555 1_555
H27 C29 1_555 1_555
O7 C30 1_555 1_555
C30 C16 1_555 1_555
O8 Pr1 1_555 1_555
N4 O9 1_555 1_555
O10 N4 1_555 1_555
O11 N4 1_555 1_555
O12 N5 1_555 1_555
O13 N5 1_555 1_555
O14 N5 1_555 1_555
Pr1_2 O2 1_555 1_555
Pr1_3 O5 1_555 1_555
Pr1A O1 1_555 1_555
Pr1A_2 O7 1_555 1_555
Pr1A_3 O4 1_555 1_555
O1A Pr1 1_555 1_555
O2_2 Pr1 1_555 1_555
O4A Pr1 1_555 1_555
O5_2 Pr1 1_555 1_555
O7A Pr1 1_555 1_555
C1 C21 1_555 1_555
C7 C28 1_555 1_555
C8 C19 1_555 1_555
C9 C10 1_555 1_555
C15 C24 1_555 1_555
C22 C23 1_555 1_555
C25 C27 1_555 1_555

#END
