
#######################################################################
#
#                 Cambridge Crystallographic Data Centre
#                                CCDC 
#
#######################################################################
#
# If this CIF has been generated from an entry in the Cambridge 
# Structural Database, then it will include bibliographic, chemical, 
# crystal, experimental, refinement or atomic coordinate data resulting 
# from the CCDC's data processing and validation procedures.
#
#######################################################################

data_VUGXOM
_symmetry_cell_setting           triclinic
_symmetry_space_group_name_H-M   'P -1'
_symmetry_Int_Tables_number      2
_space_group_name_Hall           '-P 1'
loop_
_symmetry_equiv_pos_site_id
_symmetry_equiv_pos_as_xyz
1 x,y,z
2 -x,-y,-z
_cell_length_a                   9.4977(3)
_cell_length_b                   12.6270(4)
_cell_length_c                   18.7072(4)
_cell_angle_alpha                106.096(2)
_cell_angle_beta                 98.452(2)
_cell_angle_gamma                100.275(2)
_cell_volume                     2074.7
loop_
_atom_site_label
_atom_site_type_symbol
_atom_site_fract_x
_atom_site_fract_y
_atom_site_fract_z
O9 O 0.4032(7) -0.3668(6) -0.2879(4)
O10 O 0.3886(13) -0.3078(12) -0.1695(6)
N4 N 0.4242(10) -0.3718(8) -0.2240(6)
O11 O 0.4899(12) -0.4467(10) -0.2130(7)
Cl1 Cl 0.5209(14) -0.5678(13) -0.3631(7)
N5 N -0.0992(7) -0.1627(5) -0.3996(4)
O12 O -0.2151(12) -0.2529(12) -0.4282(6)
O13 O -0.0138(19) -0.1127(14) -0.4276(8)
O14 O -0.0534(13) -0.1320(12) -0.3259(6)
Eu1 Eu 0.23517(3) 0.01618(2) 0.003045(15)
O1 O 0.4505(5) 0.0286(4) 0.0857(2)
N1 N 1.0053(7) 0.1521(5) 0.6826(4)
N2 N 0.9564(7) 0.6082(4) 0.6732(3)
O2 O 0.6825(5) 0.0212(5) 0.1155(3)
O3 O 0.7765(5) 0.8287(4) 0.8891(3)
O4 O 1.0183(5) 0.8912(4) 0.9251(3)
O5 O 0.8628(5) 0.0672(4) 0.9075(3)
O6 O 1.1079(5) 0.1214(4) 0.9409(3)
C1 C 0.9198(7) 0.2324(5) 0.5784(3)
C2 C 0.9038(7) 0.8281(6) 0.8806(4)
O7 O 0.4152(6) 0.1907(5) 0.0089(3)
C3 C 0.5630(7) 0.0792(7) 0.2156(4)
N3 N 0.5659(7) 0.1651(6) 0.3671(3)
C4 C 0.9028(8) 0.4184(6) 0.5735(4)
C5 C 0.7066(7) 0.2556(7) 0.5028(4)
C6 C 0.4364(7) 0.1006(6) 0.2399(3)
H1 H 0.3485 0.0881 0.2040
C7 C 0.7685(8) 0.3718(6) 0.5229(4)
C8 C 0.9787(6) 0.3476(5) 0.6026(3)
O8 O 0.2830(6) -0.1729(5) -0.0256(3)
C9 C 0.6888(7) 0.0984(6) 0.2696(4)
H2 H 0.7764 0.0835 0.2545
C10 C 0.5648(6) 0.0386(5) 0.1316(3)
C11 C 0.6854(7) 0.1398(6) 0.3463(4)
H3 H 0.7700 0.1500 0.3839
C12 C 1.0615(8) 0.7394(6) 0.7966(4)
H4 H 1.1455 0.7821 0.8347
C13 C 0.9218(8) 0.7436(6) 0.8081(4)
C14 C 0.8787(7) 0.1465(6) 0.7051(4)
H5 H 0.7948 0.1518 0.6729
C15 C 0.4401(8) 0.1403(7) 0.3168(4)
H6 H 0.3527 0.1502 0.3341
C16 C 0.8681(7) 0.1328(6) 0.7761(4)
H7 H 0.7787 0.1306 0.7933
C17 C 0.8020(8) 0.6775(6) 0.7542(4)
H8 H 0.7064 0.6782 0.7634
C18 C 1.1220(8) 0.1314(7) 0.7950(5)
H9 H 1.2093 0.1291 0.8261
C19 C 0.9940(7) 0.1225(6) 0.8209(4)
C20 C 0.7834(8) 0.1836(6) 0.5293(4)
C21 C 1.1221(7) 0.4001(6) 0.6579(4)
H10 H 1.1614 0.3409 0.6729
H11 H 1.1074 0.4552 0.7031
H12 H 1.1913 0.4386 0.6340
C22 C 1.0083(8) 0.1552(5) 0.6021(4)
H13 H 1.1110 0.1806 0.5984
H14 H 0.9700 0.0775 0.5663
C23 C 1.0739(8) 0.6695(6) 0.7263(4)
H15 H 1.1684 0.6658 0.7163
C24 C 0.9745(9) 0.5434(6) 0.5970(4)
H16 H 1.0803 0.5522 0.5972
H17 H 0.9322 0.5760 0.5588
C25 C 0.8214(9) 0.6109(6) 0.6873(5)
H18 H 0.7382 0.5652 0.6496
C26 C 1.1250(8) 0.1437(7) 0.7236(5)
H19 H 1.2127 0.1461 0.7047
C27 C 0.9870(7) 0.1023(6) 0.8961(4)
C28 C 0.6824(11) 0.4472(9) 0.4898(5)
H20 H 0.6131 0.4703 0.5216
H21 H 0.6289 0.4041 0.4379
H22 H 0.7510 0.5145 0.4890
C29 C 0.5567(7) 0.2051(7) 0.4510(4)
H23 H 0.4972 0.2626 0.4587
H24 H 0.5070 0.1402 0.4650
C30 C 0.7215(11) 0.0580(9) 0.5043(5)
H25 H 0.7796 0.0195 0.4709
H26 H 0.6200 0.0408 0.4767
H27 H 0.7246 0.0318 0.5490
Eu1_2 Eu 1.23517(3) 0.01618(2) 1.003045(15)
Eu1_3 Eu 1.23517(3) 1.01618(2) 1.003045(15)
Eu1A Eu 0.76483(3) -0.01618(2) -0.003045(15)
Eu1A_2 Eu 0.76483(3) -0.01618(2) 0.996955(15)
Eu1A_3 Eu 0.76483(3) 0.98382(2) 0.996955(15)
O2A O 0.3175(5) -0.0212(5) -0.1155(3)
O3A O 0.2235(5) 0.1713(4) 0.1109(3)
O4_2 O 0.0183(5) -0.1088(4) -0.0749(3)
O5A O 0.1372(5) -0.0672(4) 0.0925(3)
O6_2 O 0.1079(5) 0.1214(4) -0.0591(3)
loop_
_geom_bond_atom_site_label_1
_geom_bond_atom_site_label_2
_geom_bond_site_symmetry_1
_geom_bond_site_symmetry_2
Eu1 O1 1_555 1_555
O1 C10 1_555 1_555
N1 C14 1_555 1_555
N2 C23 1_555 1_555
O2 C10 1_555 1_555
O3 C2 1_555 1_555
O4 C2 1_555 1_555
O5 C27 1_555 1_555
O6 C27 1_555 1_555
C1 C8 1_555 1_555
C2 C13 1_555 1_555
O7 Eu1 1_555 1_555
C3 C6 1_555 1_555
N3 C11 1_555 1_555
C4 C7 1_555 1_555
C5 C7 1_555 1_555
C6 H1 1_555 1_555
C7 C28 1_555 1_555
C8 C4 1_555 1_555
O8 Eu1 1_555 1_555
C9 C3 1_555 1_555
H2 C9 1_555 1_555
C10 C3 1_555 1_555
C11 C9 1_555 1_555
H3 C11 1_555 1_555
C12 H4 1_555 1_555
C13 C12 1_555 1_555
C14 H5 1_555 1_555
C15 N3 1_555 1_555
H6 C15 1_555 1_555
C16 C14 1_555 1_555
H7 C16 1_555 1_555
C17 C13 1_555 1_555
H8 C17 1_555 1_555
C18 H9 1_555 1_555
C19 C16 1_555 1_555
C20 C1 1_555 1_555
C21 C8 1_555 1_555
H10 C21 1_555 1_555
H11 C21 1_555 1_555
H12 C21 1_555 1_555
C22 N1 1_555 1_555
H13 C22 1_555 1_555
H14 C22 1_555 1_555
C23 C12 1_555 1_555
H15 C23 1_555 1_555
C24 N2 1_555 1_555
H16 C24 1_555 1_555
H17 C24 1_555 1_555
C25 N2 1_555 1_555
H18 C25 1_555 1_555
C26 N1 1_555 1_555
H19 C26 1_555 1_555
C27 C19 1_555 1_555
C28 H20 1_555 1_555
H21 C28 1_555 1_555
H22 C28 1_555 1_555
C29 N3 1_555 1_555
H23 C29 1_555 1_555
H24 C29 1_555 1_555
C30 C20 1_555 1_555
H25 C30 1_555 1_555
H26 C30 1_555 1_555
H27 C30 1_555 1_555
O9 N4 1_555 1_555
O10 N4 1_555 1_555
N4 O11 1_555 1_555
N5 O12 1_555 1_555
O13 N5 1_555 1_555
O14 N5 1_555 1_555
Eu1_2 O6 1_555 1_555
Eu1_3 O4 1_555 1_555
Eu1A O2 1_555 1_555
Eu1A_2 O5 1_555 1_555
Eu1A_3 O3 1_555 1_555
O2A Eu1 1_555 1_555
O3A Eu1 1_555 1_555
O4_2 Eu1 1_555 1_555
O5A Eu1 1_555 1_555
O6_2 Eu1 1_555 1_555
C1 C22 1_555 1_555
C4 C24 1_555 1_555
C5 C20 1_555 1_555
C5 C29 1_555 1_555
C6 C15 1_555 1_555
C17 C25 1_555 1_555
C18 C19 1_555 1_555
C18 C26 1_555 1_555

#END
