
#######################################################################
#
#                 Cambridge Crystallographic Data Centre
#                                CCDC 
#
#######################################################################
#
# If this CIF has been generated from an entry in the Cambridge 
# Structural Database, then it will include bibliographic, chemical, 
# crystal, experimental, refinement or atomic coordinate data resulting 
# from the CCDC's data processing and validation procedures.
#
#######################################################################

data_VUGXAY
_symmetry_cell_setting           triclinic
_symmetry_space_group_name_H-M   'P -1'
_symmetry_Int_Tables_number      2
_space_group_name_Hall           '-P 1'
loop_
_symmetry_equiv_pos_site_id
_symmetry_equiv_pos_as_xyz
1 x,y,z
2 -x,-y,-z
_cell_length_a                   9.5251(3)
_cell_length_b                   12.5605(4)
_cell_length_c                   18.9231(6)
_cell_angle_alpha                106.077(3)
_cell_angle_beta                 98.874(3)
_cell_angle_gamma                100.643(3)
_cell_volume                     2086.81
loop_
_atom_site_label
_atom_site_type_symbol
_atom_site_fract_x
_atom_site_fract_y
_atom_site_fract_z
N4 N -0.1015(6) -0.1611(5) -0.3985(3)
O9 O -0.2207(10) -0.2472(10) -0.4270(5)
O10 O -0.0131(12) -0.1149(10) -0.4290(7)
O11 O -0.0587(15) -0.1289(12) -0.3292(3)
O12 O 0.3778(8) -0.3157(9) -0.1719(4)
O13 O 0.4011(6) -0.3633(5) -0.2889(3)
N5 N 0.4196(5) -0.3701(5) -0.2242(3)
O14 O 0.4868(10) -0.4454(8) -0.2125(6)
Cl1 Cl -0.4988(2) -1.1479(3) -0.67610(19)
Ce1 Ce -0.76587(2) -0.98221(2) -0.996089(12)
O1 O -0.5422(4) -0.9706(4) -0.91245(19)
O2 O -0.3112(4) -0.9797(4) -0.88135(19)
O3 O 0.0020(4) -0.1087(3) -0.0758(2)
N1 N -0.4319(5) -0.8407(5) -0.6329(3)
O4 O -0.2368(4) -0.1811(4) -0.1164(2)
N2 N 0.0051(5) -0.8470(4) -0.3178(3)
O5 O 0.1063(4) -0.8732(4) -0.0613(2)
O6 O -0.1396(4) -0.9293(4) -0.0951(2)
N3 N -0.0451(5) -0.3896(4) -0.3269(3)
C1 C -0.0759(5) -0.7676(4) -0.4215(3)
C2 C -0.1085(6) -0.1766(5) -0.1228(3)
C3 C -0.4338(5) -0.9234(4) -0.7831(3)
C4 C -0.0946(6) -0.5811(5) -0.4267(3)
C5 C -0.4299(5) -0.9621(4) -0.8660(3)
C6 C -0.0191(5) -0.6515(4) -0.3977(3)
O7 O -0.5771(5) -0.8018(4) -0.9895(3)
C7 C -0.5601(6) -0.9036(6) -0.7596(3)
H1 H -0.6482 -0.9181 -0.7957
C8 C -0.2894(6) -0.7466(6) -0.4983(3)
C9 C -0.3077(5) -0.9039(5) -0.7288(3)
H2 H -0.2205 -0.9192 -0.7433
C10 C -0.5576(6) -0.8630(5) -0.6843(3)
H3 H -0.6445 -0.8505 -0.6682
C11 C -0.2293(6) -0.6273(5) -0.4771(3)
C12 C -0.3100(6) -0.8619(6) -0.6532(3)
H4 H -0.2241 -0.8483 -0.6158
C13 C -0.0838(6) -0.2580(5) -0.1947(3)
C14 C -0.0087(6) -0.8737(5) -0.1808(3)
C15 C -0.2138(6) -0.8168(5) -0.4717(3)
C16 C -0.1211(6) -0.8522(5) -0.2955(3)
H5 H -0.2050 -0.8470 -0.3275
C17 C 0.0111(6) -0.8450(5) -0.3979(3)
H6 H 0.1143 -0.8191 -0.4005
H7 H -0.0275 -0.9234 -0.4335
C18 C 0.1224(7) -0.8665(6) -0.2054(4)
H8 H 0.2081 -0.8700 -0.1738
C19 C -0.1306(6) -0.8652(5) -0.2269(3)
H9 H -0.2207 -0.8683 -0.2109
C20 C 0.1241(6) -0.5986(5) -0.3406(3)
H10 H 0.1627 -0.6586 -0.3264
H11 H 0.1080 -0.5448 -0.2958
H12 H 0.1945 -0.5580 -0.3626
C21 C 0.0549(7) -0.2606(5) -0.2053(4)
H13 H 0.1377 -0.2165 -0.1665
C22 C -0.2025(6) -0.3238(5) -0.2502(3)
H14 H -0.2988 -0.3231 -0.2428
C23 C 0.0728(7) -0.3274(5) -0.2722(4)
H15 H 0.1683 -0.3299 -0.2802
C24 C -0.1814(7) -0.3904(5) -0.3163(3)
H16 H -0.2632 -0.4373 -0.3548
C25 C -0.0250(8) -0.4546(5) -0.4028(3)
H17 H 0.0811 -0.4438 -0.4016
H18 H -0.0677 -0.4224 -0.4409
C26 C -0.0140(6) -0.8928(5) -0.1051(4)
C27 C 0.1288(6) -0.8545(6) -0.2749(4)
H19 H 0.2172 -0.8515 -0.2925
C28 C -0.4389(6) -0.7976(6) -0.5496(3)
H20 H -0.4971 -0.7393 -0.5429
H21 H -0.4895 -0.8619 -0.5351
C29 C -0.3154(9) -0.5562(8) -0.5118(4)
H22 H -0.3971 -0.5449 -0.4871
H23 H -0.3535 -0.5962 -0.5657
H24 H -0.2510 -0.4819 -0.5048
C30 C -0.2732(9) -0.9454(7) -0.4967(4)
H25 H -0.3751 -0.9651 -0.5244
H26 H -0.2685 -0.9715 -0.4523
H27 H -0.2142 -0.9826 -0.5294
O8 O -0.7231(5) -1.1799(4) -1.0280(3)
Ce1_2 Ce 0.23413(2) -0.98221(2) 0.003911(12)
Ce1_3 Ce 0.23413(2) 0.01779(2) 0.003911(12)
Ce1A Ce -0.23413(2) -1.01779(2) -1.003911(12)
Ce1A_2 Ce -0.23413(2) -1.01779(2) -0.003911(12)
Ce1A_3 Ce -0.23413(2) -0.01779(2) -0.003911(12)
O2A O -0.6888(4) -1.0203(4) -1.11865(19)
O3_2 O -0.9980(4) -1.1087(3) -1.0758(2)
O4A O -0.7632(4) -0.8189(4) -0.8836(2)
O5_2 O -0.8937(4) -0.8732(4) -1.0613(2)
O6A O -0.8604(4) -1.0707(4) -0.9049(2)
loop_
_geom_bond_atom_site_label_1
_geom_bond_atom_site_label_2
_geom_bond_site_symmetry_1
_geom_bond_site_symmetry_2
Ce1 O1 1_555 1_555
O1 C5 1_555 1_555
O2 C5 1_555 1_555
O3 C2 1_555 1_555
N1 C10 1_555 1_555
O4 C2 1_555 1_555
N2 C16 1_555 1_555
O5 C26 1_555 1_555
O6 C26 1_555 1_555
N3 C23 1_555 1_555
C1 C6 1_555 1_555
C2 C13 1_555 1_555
C3 C5 1_555 1_555
C4 C6 1_555 1_555
C6 C20 1_555 1_555
O7 Ce1 1_555 1_555
C7 C3 1_555 1_555
H1 C7 1_555 1_555
C8 C11 1_555 1_555
C9 C3 1_555 1_555
H2 C9 1_555 1_555
C10 C7 1_555 1_555
H3 C10 1_555 1_555
C11 C4 1_555 1_555
C12 N1 1_555 1_555
H4 C12 1_555 1_555
C13 C21 1_555 1_555
C14 C18 1_555 1_555
C15 C1 1_555 1_555
C16 H5 1_555 1_555
C17 N2 1_555 1_555
H6 C17 1_555 1_555
H7 C17 1_555 1_555
C18 H8 1_555 1_555
C19 C14 1_555 1_555
H9 C19 1_555 1_555
C20 H10 1_555 1_555
H11 C20 1_555 1_555
H12 C20 1_555 1_555
C21 H13 1_555 1_555
C22 C13 1_555 1_555
H14 C22 1_555 1_555
C23 C21 1_555 1_555
H15 C23 1_555 1_555
C24 N3 1_555 1_555
H16 C24 1_555 1_555
C25 N3 1_555 1_555
H17 C25 1_555 1_555
H18 C25 1_555 1_555
C26 C14 1_555 1_555
C27 N2 1_555 1_555
H19 C27 1_555 1_555
C28 N1 1_555 1_555
H20 C28 1_555 1_555
H21 C28 1_555 1_555
C29 C11 1_555 1_555
H22 C29 1_555 1_555
H23 C29 1_555 1_555
H24 C29 1_555 1_555
C30 C15 1_555 1_555
H25 C30 1_555 1_555
H26 C30 1_555 1_555
H27 C30 1_555 1_555
O8 Ce1 1_555 1_555
N4 O9 1_555 1_555
O10 N4 1_555 1_555
O11 N4 1_555 1_555
O12 N5 1_555 1_555
O13 N5 1_555 1_555
N5 O14 1_555 1_555
Ce1_2 O5 1_555 1_555
Ce1_3 O3 1_555 1_555
Ce1A O2 1_555 1_555
Ce1A_2 O6 1_555 1_555
Ce1A_3 O4 1_555 1_555
O2A Ce1 1_555 1_555
O3_2 Ce1 1_555 1_555
O4A Ce1 1_555 1_555
O5_2 Ce1 1_555 1_555
O6A Ce1 1_555 1_555
C1 C17 1_555 1_555
C4 C25 1_555 1_555
C8 C15 1_555 1_555
C8 C28 1_555 1_555
C9 C12 1_555 1_555
C16 C19 1_555 1_555
C18 C27 1_555 1_555
C22 C24 1_555 1_555

#END
