
#######################################################################
#
#                 Cambridge Crystallographic Data Centre
#                                CCDC 
#
#######################################################################
#
# If this CIF has been generated from an entry in the Cambridge 
# Structural Database, then it will include bibliographic, chemical, 
# crystal, experimental, refinement or atomic coordinate data resulting 
# from the CCDC's data processing and validation procedures.
#
#######################################################################

data_VUGXUS
_symmetry_cell_setting           triclinic
_symmetry_space_group_name_H-M   'P -1'
_symmetry_Int_Tables_number      2
_space_group_name_Hall           '-P 1'
loop_
_symmetry_equiv_pos_site_id
_symmetry_equiv_pos_as_xyz
1 x,y,z
2 -x,-y,-z
_cell_length_a                   9.53070(10)
_cell_length_b                   12.7016(3)
_cell_length_c                   18.8199(3)
_cell_angle_alpha                106.349(2)
_cell_angle_beta                 98.6290(10)
_cell_angle_gamma                100.060(2)
_cell_volume                     2104.13
loop_
_atom_site_label
_atom_site_type_symbol
_atom_site_fract_x
_atom_site_fract_y
_atom_site_fract_z
O9 O 0.4007(6) -0.3680(5) -0.2890(3)
O10 O 0.3830(7) -0.3133(8) -0.1716(4)
N4 N 0.4238(6) -0.3728(5) -0.2246(3)
O11 O 0.4900(7) -0.4466(6) -0.2142(4)
Cl1 Cl -0.5021(3) 0.1333(3) -0.3196(2)
N5 N -0.0983(6) -0.1627(5) -0.3999(3)
O12 O -0.0090(7) -0.1093(6) -0.4261(4)
O13 O -0.2127(11) -0.2507(11) -0.4269(5)
O14 O -0.0349(15) -0.1551(15) -0.3473(12)
Tb1 Tb -0.23336(3) 0.98367(2) -0.003313(13)
N1 N 0.0003(5) 0.1482(4) -0.3202(3)
O1 O -0.3136(4) 0.0240(4) -0.8828(2)
O2 O -0.1391(4) 0.0653(4) -0.0960(2)
O3 O 0.0087(4) 0.8907(4) -0.0738(2)
N2 N -0.0418(6) 0.6074(4) -0.3252(3)
O4 O -0.2302(5) 0.8227(4) -0.1122(2)
O5 O 0.1053(4) 0.1200(4) -0.0634(2)
N3 N -0.4334(6) 0.1668(5) -0.6321(3)
C1 C -0.0800(6) 0.2310(5) -0.4223(3)
C2 C -0.4333(6) 0.0418(5) -0.8672(3)
C3 C -0.4354(6) 0.0820(5) -0.7840(3)
C4 C -0.0945(6) 0.4184(5) -0.4257(3)
C5 C -0.5621(6) 0.1022(5) -0.7596(3)
H1 H -0.6505 0.0870 -0.7956
O6 O -0.4162(5) 0.8095(4) -0.0063(3)
C6 C -0.3108(6) 0.1461(6) -0.6540(3)
H2 H -0.2241 0.1615 -0.6169
C7 C -0.2282(7) 0.3750(6) -0.4767(3)
C8 C -0.0207(6) 0.3471(5) -0.3974(3)
C9 C -0.2909(6) 0.2586(6) -0.4979(3)
C10 C -0.2182(6) 0.1861(5) -0.4717(3)
C11 C -0.1021(6) 0.8232(5) -0.1202(3)
C12 C -0.0115(6) 0.1189(5) -0.1831(3)
O7 O -0.2801(6) 1.1747(4) 0.0252(3)
C13 C -0.3089(6) 0.1029(5) -0.7294(3)
H3 H -0.2218 0.0874 -0.7443
C14 C 0.0593(7) 0.7374(5) -0.2028(4)
H4 H 0.1424 0.7807 -0.1645
C15 C -0.0167(6) 0.1004(5) -0.1070(3)
C16 C -0.1981(7) 0.6758(5) -0.2467(3)
H5 H -0.2940 0.6765 -0.2386
C17 C 0.1230(7) 0.3963(5) -0.3405(4)
H6 H 0.1603 0.3354 -0.3275
H7 H 0.1081 0.4493 -0.2947
H8 H 0.1935 0.4359 -0.3626
C18 C 0.0066(7) 0.1540(5) -0.3996(3)
H9 H 0.1095 0.1801 -0.4019
H10 H -0.0304 0.0774 -0.4365
C19 C -0.1262(6) 0.1439(5) -0.2968(4)
H11 H -0.2101 0.1510 -0.3279
C20 C -0.0795(6) 0.7424(5) -0.1912(3)
C21 C -0.5590(6) 0.1441(6) -0.6836(3)
H12 H -0.6456 0.1573 -0.6671
C22 C 0.1178(7) 0.1251(6) -0.2087(4)
H13 H 0.2037 0.1203 -0.1780
C23 C -0.1339(6) 0.1295(5) -0.2282(3)
H14 H -0.2232 0.1267 -0.2114
C24 C 0.0756(7) 0.6688(5) -0.2707(4)
H15 H 0.1706 0.6648 -0.2792
C25 C -0.1778(7) 0.6082(5) -0.3139(3)
H16 H -0.2596 0.5622 -0.3522
C26 C -0.0210(7) 0.5430(5) -0.4013(3)
H17 H 0.0846 0.5510 -0.3999
H18 H -0.0610 0.5761 -0.4394
C27 C -0.4407(7) 0.2107(7) -0.5497(3)
H19 H -0.4933 0.1486 -0.5348
H20 H -0.4968 0.2702 -0.5430
C28 C -0.3119(8) 0.4481(7) -0.5099(4)
H21 H -0.3882 0.4653 -0.4818
H22 H -0.3566 0.4075 -0.5633
H23 H -0.2449 0.5184 -0.5058
C29 C 0.1218(7) 0.1382(6) -0.2784(4)
H24 H 0.2094 0.1403 -0.2968
C30 C -0.2824(9) 0.0608(7) -0.4969(4)
H25 H -0.2821 0.0352 -0.4524
H26 H -0.2240 0.0212 -0.5293
H27 H -0.3828 0.0447 -0.5254
O8 O -0.5460(7) 0.0302(6) -0.9131(4)
Tb1_2 Tb -0.23336(3) -0.01633(2) -1.003313(13)
Tb1_3 Tb -0.23336(3) -0.01633(2) -0.003313(13)
Tb1A Tb -0.76664(3) 0.01633(2) -0.996687(13)
Tb1A_2 Tb 0.23336(3) 0.01633(2) 0.003313(13)
Tb1A_3 Tb 0.23336(3) 1.01633(2) 0.003313(13)
O1_2 O -0.3136(4) 1.0240(4) 0.1172(2)
O2_2 O -0.1391(4) 1.0653(4) -0.0960(2)
O3A O -0.0087(4) 1.1093(4) 0.0738(2)
O5A O -0.1053(4) 0.8800(4) 0.0634(2)
O8A O -0.4540(7) 0.9698(6) -0.0869(4)
loop_
_geom_bond_atom_site_label_1
_geom_bond_atom_site_label_2
_geom_bond_site_symmetry_1
_geom_bond_site_symmetry_2
Tb1 O4 1_555 1_555
N1 C18 1_555 1_555
O1 C2 1_555 1_555
O2 C15 1_555 1_555
O3 C11 1_555 1_555
N2 C24 1_555 1_555
O4 C11 1_555 1_555
O5 C15 1_555 1_555
N3 C6 1_555 1_555
C1 C8 1_555 1_555
C2 C3 1_555 1_555
C3 C5 1_555 1_555
C4 C7 1_555 1_555
C5 H1 1_555 1_555
O6 Tb1 1_555 1_555
C6 H2 1_555 1_555
C7 C9 1_555 1_555
C8 C4 1_555 1_555
C9 C10 1_555 1_555
C10 C1 1_555 1_555
C11 C20 1_555 1_555
C12 C15 1_555 1_555
O7 Tb1 1_555 1_555
C13 C3 1_555 1_555
H3 C13 1_555 1_555
C14 H4 1_555 1_555
C16 H5 1_555 1_555
C17 C8 1_555 1_555
H6 C17 1_555 1_555
H7 C17 1_555 1_555
H8 C17 1_555 1_555
C18 C1 1_555 1_555
H9 C18 1_555 1_555
H10 C18 1_555 1_555
C19 N1 1_555 1_555
H11 C19 1_555 1_555
C20 C14 1_555 1_555
C21 N3 1_555 1_555
H12 C21 1_555 1_555
C22 C12 1_555 1_555
H13 C22 1_555 1_555
C23 C12 1_555 1_555
H14 C23 1_555 1_555
C24 C14 1_555 1_555
H15 C24 1_555 1_555
C25 N2 1_555 1_555
H16 C25 1_555 1_555
C26 N2 1_555 1_555
H17 C26 1_555 1_555
H18 C26 1_555 1_555
C27 N3 1_555 1_555
H19 C27 1_555 1_555
H20 C27 1_555 1_555
C28 C7 1_555 1_555
H21 C28 1_555 1_555
H22 C28 1_555 1_555
H23 C28 1_555 1_555
C29 N1 1_555 1_555
H24 C29 1_555 1_555
C30 C10 1_555 1_555
H25 C30 1_555 1_555
H26 C30 1_555 1_555
H27 C30 1_555 1_555
O8 C2 1_555 1_555
O9 N4 1_555 1_555
O10 N4 1_555 1_555
N4 O11 1_555 1_555
N5 O12 1_555 1_555
O13 N5 1_555 1_555
O14 N5 1_555 1_555
Tb1_2 O1 1_555 1_555
Tb1_3 O2 1_555 1_555
Tb1A O8 1_555 1_555
Tb1A_2 O5 1_555 1_555
Tb1A_3 O3 1_555 1_555
O1_2 Tb1 1_555 1_555
O2_2 Tb1 1_555 1_555
O3A Tb1 1_555 1_555
O5A Tb1 1_555 1_555
O8A Tb1 1_555 1_555
C4 C26 1_555 1_555
C5 C21 1_555 1_555
C6 C13 1_555 1_555
C9 C27 1_555 1_555
C16 C20 1_555 1_555
C16 C25 1_555 1_555
C19 C23 1_555 1_555
C22 C29 1_555 1_555

#END
