
#######################################################################
#
#                 Cambridge Crystallographic Data Centre
#                                CCDC 
#
#######################################################################
#
# If this CIF has been generated from an entry in the Cambridge 
# Structural Database, then it will include bibliographic, chemical, 
# crystal, experimental, refinement or atomic coordinate data resulting 
# from the CCDC's data processing and validation procedures.
#
#######################################################################

data_VUGXIG
_symmetry_cell_setting           triclinic
_symmetry_space_group_name_H-M   'P -1'
_symmetry_Int_Tables_number      2
_space_group_name_Hall           '-P 1'
loop_
_symmetry_equiv_pos_site_id
_symmetry_equiv_pos_as_xyz
1 x,y,z
2 -x,-y,-z
_cell_length_a                   9.52970(10)
_cell_length_b                   12.6996(3)
_cell_length_c                   18.8203(3)
_cell_angle_alpha                106.347(2)
_cell_angle_beta                 98.6300(10)
_cell_angle_gamma                100.059(2)
_cell_volume                     2103.64
loop_
_atom_site_label
_atom_site_type_symbol
_atom_site_fract_x
_atom_site_fract_y
_atom_site_fract_z
O9 O 0.4002(9) -0.3685(8) -0.2899(5)
O10 O 0.3820(7) -0.3145(8) -0.1716(4)
N4 N 0.4233(8) -0.3734(6) -0.2250(5)
O11 O 0.4900(8) -0.4459(7) -0.2139(5)
Cl1 Cl -0.5021(3) 0.1332(3) -0.3197(2)
N5 N -0.0992(11) -0.1636(10) -0.4009(6)
O12 O -0.2145(9) -0.2539(8) -0.4274(5)
O13 O -0.0084(9) -0.1088(8) -0.4258(5)
O14 O -0.0461(9) -0.1418(8) -0.3331(5)
Nd1 Nd -0.23335(3) 0.98368(2) -0.003316(13)
O1 O -0.5458(4) 0.0301(4) -0.9132(2)
N1 N 0.0005(5) 0.1483(4) -0.3201(3)
O2 O -0.3134(4) 0.0244(4) -0.8826(2)
O3 O -0.1392(4) 0.0652(4) -0.0960(2)
O4 O 0.0087(4) 0.8909(4) -0.0739(2)
N2 N -0.0413(6) 0.6073(4) -0.3254(3)
O5 O -0.2302(5) 0.8229(4) -0.1122(2)
O6 O 0.1053(4) 0.1200(4) -0.0635(2)
N3 N -0.4337(5) 0.1672(5) -0.6334(3)
C1 C -0.0801(6) 0.2317(5) -0.4220(3)
C2 C -0.4325(6) 0.0414(5) -0.8671(3)
C3 C -0.4350(6) 0.0825(5) -0.7837(3)
C4 C -0.0946(6) 0.4182(5) -0.4259(3)
C5 C -0.5624(6) 0.1021(5) -0.7598(3)
H1 H -0.6512 0.0861 -0.7956
O7 O -0.4161(5) 0.8096(4) -0.0062(3)
C6 C -0.3125(6) 0.1457(5) -0.6539(3)
H2 H -0.2270 0.1597 -0.6163
C7 C -0.2277(7) 0.3753(6) -0.4766(3)
C8 C -0.0205(6) 0.3467(5) -0.3975(3)
C9 C -0.2904(6) 0.2580(6) -0.4977(3)
C10 C -0.2180(6) 0.1861(5) -0.4715(3)
C11 C -0.1025(6) 0.8235(5) -0.1200(3)
C12 C -0.0114(6) 0.1185(5) -0.1833(3)
O8 O -0.2798(6) 1.1753(4) 0.0252(3)
C13 C -0.3090(6) 0.1028(5) -0.7296(3)
H3 H -0.2216 0.0874 -0.7442
C14 C 0.0592(7) 0.7376(5) -0.2029(4)
H4 H 0.1423 0.7811 -0.1647
C15 C -0.0167(7) 0.1002(6) -0.1071(3)
C16 C -0.1981(7) 0.6756(5) -0.2467(3)
H5 H -0.2942 0.6760 -0.2388
C17 C 0.1230(7) 0.3962(6) -0.3405(4)
H6 H 0.1576 0.3360 -0.3251
H7 H 0.1090 0.4525 -0.2960
H8 H 0.1952 0.4320 -0.3636
C18 C 0.0067(7) 0.1537(5) -0.3996(3)
H9 H 0.1096 0.1792 -0.4020
H10 H -0.0310 0.0770 -0.4364
C19 C -0.1258(6) 0.1436(5) -0.2969(4)
H11 H -0.2097 0.1503 -0.3281
C20 C -0.0793(6) 0.7425(5) -0.1909(3)
C21 C -0.5572(6) 0.1452(6) -0.6832(3)
H12 H -0.6431 0.1592 -0.6661
C22 C 0.1180(7) 0.1252(6) -0.2085(4)
H13 H 0.2039 0.1208 -0.1776
C23 C -0.1336(6) 0.1293(5) -0.2284(3)
H14 H -0.2229 0.1267 -0.2116
C24 C 0.0759(7) 0.6692(5) -0.2707(4)
H15 H 0.1710 0.6656 -0.2791
C25 C -0.1770(7) 0.6085(5) -0.3138(3)
H16 H -0.2587 0.5627 -0.3521
C26 C -0.0210(7) 0.5431(5) -0.4012(3)
H17 H 0.0847 0.5510 -0.3999
H18 H -0.0609 0.5763 -0.4393
C27 C -0.4409(7) 0.2109(6) -0.5496(3)
H19 H -0.4966 0.2706 -0.5425
H20 H -0.4938 0.1485 -0.5351
C28 C -0.3109(9) 0.4484(8) -0.5095(4)
H21 H -0.3924 0.4603 -0.4844
H22 H -0.3484 0.4108 -0.5640
H23 H -0.2454 0.5214 -0.5014
C29 C 0.1217(7) 0.1382(6) -0.2786(4)
H24 H 0.2090 0.1401 -0.2972
C30 C -0.2824(9) 0.0609(7) -0.4972(4)
H25 H -0.3811 0.0446 -0.5276
H26 H -0.2863 0.0354 -0.4528
H27 H -0.2215 0.0212 -0.5278
Nd1_2 Nd -0.23335(3) -0.01632(2) -1.003316(13)
Nd1_3 Nd -0.23335(3) -0.01632(2) -0.003316(13)
Nd1A Nd -0.76665(3) 0.01632(2) -0.996684(13)
Nd1A_2 Nd 0.23335(3) 0.01632(2) 0.003316(13)
Nd1A_3 Nd 0.23335(3) 1.01632(2) 0.003316(13)
O1A O -0.4542(4) 0.9699(4) -0.0868(2)
O2_2 O -0.3134(4) 1.0244(4) 0.1174(2)
O3_2 O -0.1392(4) 1.0652(4) -0.0960(2)
O4A O -0.0087(4) 1.1091(4) 0.0739(2)
O6A O -0.1053(4) 0.8800(4) 0.0635(2)
loop_
_geom_bond_atom_site_label_1
_geom_bond_atom_site_label_2
_geom_bond_site_symmetry_1
_geom_bond_site_symmetry_2
Nd1 O5 1_555 1_555
O1 C2 1_555 1_555
N1 C18 1_555 1_555
O2 C2 1_555 1_555
O3 C15 1_555 1_555
O4 C11 1_555 1_555
N2 C24 1_555 1_555
O5 C11 1_555 1_555
O6 C15 1_555 1_555
N3 C6 1_555 1_555
C1 C8 1_555 1_555
C2 C3 1_555 1_555
C3 C5 1_555 1_555
C4 C7 1_555 1_555
C5 H1 1_555 1_555
O7 Nd1 1_555 1_555
C6 H2 1_555 1_555
C7 C9 1_555 1_555
C8 C4 1_555 1_555
C9 C10 1_555 1_555
C10 C1 1_555 1_555
C11 C20 1_555 1_555
C12 C15 1_555 1_555
O8 Nd1 1_555 1_555
C13 C3 1_555 1_555
H3 C13 1_555 1_555
C14 H4 1_555 1_555
C16 H5 1_555 1_555
C17 C8 1_555 1_555
H6 C17 1_555 1_555
H7 C17 1_555 1_555
H8 C17 1_555 1_555
C18 C1 1_555 1_555
H9 C18 1_555 1_555
H10 C18 1_555 1_555
C19 N1 1_555 1_555
H11 C19 1_555 1_555
C20 C14 1_555 1_555
C21 N3 1_555 1_555
H12 C21 1_555 1_555
C22 C12 1_555 1_555
H13 C22 1_555 1_555
C23 C12 1_555 1_555
H14 C23 1_555 1_555
C24 C14 1_555 1_555
H15 C24 1_555 1_555
C25 N2 1_555 1_555
H16 C25 1_555 1_555
C26 N2 1_555 1_555
H17 C26 1_555 1_555
H18 C26 1_555 1_555
C27 N3 1_555 1_555
H19 C27 1_555 1_555
H20 C27 1_555 1_555
C28 C7 1_555 1_555
H21 C28 1_555 1_555
H22 C28 1_555 1_555
H23 C28 1_555 1_555
C29 N1 1_555 1_555
H24 C29 1_555 1_555
C30 C10 1_555 1_555
H25 C30 1_555 1_555
H26 C30 1_555 1_555
H27 C30 1_555 1_555
O9 N4 1_555 1_555
O10 N4 1_555 1_555
N4 O11 1_555 1_555
N5 O12 1_555 1_555
O13 N5 1_555 1_555
O14 N5 1_555 1_555
Nd1_2 O2 1_555 1_555
Nd1_3 O3 1_555 1_555
Nd1A O1 1_555 1_555
Nd1A_2 O6 1_555 1_555
Nd1A_3 O4 1_555 1_555
O1A Nd1 1_555 1_555
O2_2 Nd1 1_555 1_555
O3_2 Nd1 1_555 1_555
O4A Nd1 1_555 1_555
O6A Nd1 1_555 1_555
C4 C26 1_555 1_555
C5 C21 1_555 1_555
C6 C13 1_555 1_555
C9 C27 1_555 1_555
C16 C20 1_555 1_555
C16 C25 1_555 1_555
C19 C23 1_555 1_555
C22 C29 1_555 1_555

#END
