
#######################################################################
#
#                 Cambridge Crystallographic Data Centre
#                                CCDC 
#
#######################################################################
#
# If this CIF has been generated from an entry in the Cambridge 
# Structural Database, then it will include bibliographic, chemical, 
# crystal, experimental, refinement or atomic coordinate data resulting 
# from the CCDC's data processing and validation procedures.
#
#######################################################################

data_VUGYAZ
_symmetry_cell_setting           triclinic
_symmetry_space_group_name_H-M   'P -1'
_symmetry_Int_Tables_number      2
_space_group_name_Hall           '-P 1'
loop_
_symmetry_equiv_pos_site_id
_symmetry_equiv_pos_as_xyz
1 x,y,z
2 -x,-y,-z
_cell_length_a                   9.4727(2)
_cell_length_b                   12.6520(4)
_cell_length_c                   18.6017(6)
_cell_angle_alpha                106.106(3)
_cell_angle_beta                 98.088(2)
_cell_angle_gamma                100.255(2)
_cell_volume                     2064.63
loop_
_atom_site_label
_atom_site_type_symbol
_atom_site_fract_x
_atom_site_fract_y
_atom_site_fract_z
O9 O 0.4055(6) 0.1316(5) 0.2122(3)
N4 N 0.4260(9) 0.1291(7) 0.2788(5)
O10 O 0.3883(10) 0.1911(10) 0.3313(4)
O11 O 0.4903(11) 0.0516(9) 0.2887(7)
N5 N 0.1003(9) 0.6648(8) 0.9010(4)
O12 O 0.0162(7) 0.6121(6) 0.9278(3)
O13 O 0.0428(17) 0.6513(17) 0.8430(13)
O14 O 0.2145(9) 0.7570(9) 0.9310(5)
Cl1 Cl 0.5006(3) 0.6444(4) 0.1774(2)
Dy1 Dy 0.76384(3) -0.51563(2) 0.497148(14)
O1 O 1.5516(4) 0.4682(4) 1.4147(2)
N1 N 0.9956(6) 0.3485(4) 0.8172(3)
O2 O 0.9757(4) -0.3919(3) 0.5743(2)
O3 O 0.8895(4) 0.3830(4) 0.5597(2)
O4 O 1.3196(5) 0.4791(4) 1.3867(2)
O5 O 1.2185(5) -0.3323(4) 0.6077(2)
N2 N 1.4388(6) 0.3372(5) 1.1332(3)
C1 C 1.0987(7) 0.0819(5) 0.9264(3)
C2 C 1.4398(6) 0.4201(5) 1.2851(3)
O6 O 0.5887(5) -0.6891(4) 0.4909(3)
N3 N 1.0439(6) -0.1079(4) 0.8262(3)
C3 C 1.0804(6) 0.2684(5) 0.9213(3)
C4 C 1.0905(7) -0.3293(5) 0.6175(4)
C5 C 1.4391(6) 0.4609(5) 1.3706(3)
C6 C 1.5658(6) 0.3981(6) 1.2604(3)
H1 H 1.6538 0.4107 1.2963
C7 C 1.0752(7) -0.2439(5) 0.6895(4)
C8 C 1.2187(7) 0.3156(6) 0.9707(3)
C9 C 1.2329(8) 0.1279(6) 0.9771(3)
C10 C 1.3142(6) 0.4021(5) 1.2312(3)
H2 H 1.2277 0.4194 1.2472
C11 C 1.2953(11) 0.2455(9) 0.9975(5)
C12 C 1.5625(7) 0.3579(6) 1.1835(4)
H3 H 1.6493 0.3448 1.1661
C13 C 0.8781(7) 0.1021(5) 0.8424(4)
H4 H 0.8330 0.1631 0.8346
H5 H 0.8128 0.0537 0.8627
H6 H 0.8948 0.0571 0.7935
C14 C 1.3142(6) 0.3591(6) 1.1540(3)
H7 H 1.2280 0.3454 1.1167
C15 C 1.1971(7) -0.1783(5) 0.7445(4)
H8 H 1.2927 -0.1806 0.7352
C16 C 0.8754(7) 0.3704(7) 0.7046(4)
H9 H 0.7886 0.3743 0.6739
C17 C 0.9370(7) -0.2371(5) 0.7043(4)
H10 H 0.8518 -0.2798 0.6671
C18 C 1.1304(7) 0.3677(6) 0.7233(4)
H11 H 1.2201 0.3710 0.7057
C19 C 0.9251(7) -0.1682(5) 0.7727(4)
H12 H 0.8307 -0.1629 0.7829
C20 C 1.0116(7) 0.3992(5) 0.6024(3)
C21 C 1.0216(6) 0.1518(5) 0.8980(3)
C22 C 1.1222(7) 0.3531(5) 0.7930(4)
H13 H 1.2065 0.3462 0.8241
C23 C 0.9916(7) 0.3450(5) 0.8984(3)
H14 H 1.0292 0.4224 0.9345
H15 H 0.8887 0.3191 0.9021
C24 C 1.2795(10) 0.4416(7) 0.9950(5)
H16 H 1.2229 0.4799 1.0300
H17 H 1.2729 0.4675 0.9499
H18 H 1.3822 0.4592 1.0210
C25 C 1.1790(7) -0.1105(5) 0.8121(4)
H19 H 1.2624 -0.0647 0.8495
C26 C 0.8733(7) 0.3573(6) 0.7757(4)
H20 H 0.7856 0.3546 0.7951
C27 C 1.0058(6) 0.3778(5) 0.6785(3)
C28 C 1.0270(8) -0.0422(5) 0.9038(4)
H21 H 1.0703 -0.0746 0.9420
H22 H 0.9214 -0.0507 0.9046
C29 C 1.4467(10) 0.2969(9) 1.0492(5)
H23 H 1.5068 0.2397 1.0413
H24 H 1.4957 0.3615 1.0346
C30 C 1.3194(10) 0.0547(8) 1.0102(4)
H25 H 1.2557 -0.0198 1.0012
H26 H 1.3548 0.0913 1.0653
H27 H 1.4030 0.0458 0.9853
O7 O 1.1361(5) 0.4353(4) 0.5912(3)
O8 O 0.7148(6) -0.3297(4) 0.5236(3)
Dy1_2 Dy 0.76384(3) 0.48437(2) 0.497148(14)
Dy1_3 Dy 1.76384(3) 0.48437(2) 1.497148(14)
Dy1A Dy 1.23616(3) -0.48437(2) 0.502852(14)
Dy1A_2 Dy 1.23616(3) 0.51563(2) 0.502852(14)
Dy1A_3 Dy 1.23616(3) 0.51563(2) 1.502852(14)
O1_2 O 0.5516(4) -0.5318(4) 0.4147(2)
O3_2 O 0.8895(4) -0.6170(4) 0.5597(2)
O4A O 0.6804(5) -0.4791(4) 0.6133(2)
O5A O 0.7815(5) -0.6677(4) 0.3923(2)
O7A O 0.8639(5) -0.4353(4) 0.4088(3)
loop_
_geom_bond_atom_site_label_1
_geom_bond_atom_site_label_2
_geom_bond_site_symmetry_1
_geom_bond_site_symmetry_2
Dy1 O2 1_555 1_555
O1 C5 1_555 1_555
N1 C22 1_555 1_555
O2 C4 1_555 1_555
O3 C20 1_555 1_555
O4 C5 1_555 1_555
O5 C4 1_555 1_555
N2 C12 1_555 1_555
C1 C9 1_555 1_555
C2 C5 1_555 1_555
O6 Dy1 1_555 1_555
N3 C19 1_555 1_555
C3 C8 1_555 1_555
C4 C7 1_555 1_555
C6 C2 1_555 1_555
H1 C6 1_555 1_555
C7 C15 1_555 1_555
C8 C11 1_555 1_555
C9 C11 1_555 1_555
C10 C2 1_555 1_555
H2 C10 1_555 1_555
C11 C29 1_555 1_555
C12 C6 1_555 1_555
H3 C12 1_555 1_555
C13 H4 1_555 1_555
H5 C13 1_555 1_555
H6 C13 1_555 1_555
C14 N2 1_555 1_555
H7 C14 1_555 1_555
C15 H8 1_555 1_555
C16 H9 1_555 1_555
C17 C7 1_555 1_555
H10 C17 1_555 1_555
C18 H11 1_555 1_555
C19 C17 1_555 1_555
H12 C19 1_555 1_555
C20 C27 1_555 1_555
C21 C1 1_555 1_555
C22 C18 1_555 1_555
H13 C22 1_555 1_555
C23 N1 1_555 1_555
H14 C23 1_555 1_555
H15 C23 1_555 1_555
C24 C8 1_555 1_555
H16 C24 1_555 1_555
H17 C24 1_555 1_555
H18 C24 1_555 1_555
C25 N3 1_555 1_555
H19 C25 1_555 1_555
C26 N1 1_555 1_555
H20 C26 1_555 1_555
C27 C16 1_555 1_555
C28 C1 1_555 1_555
H21 C28 1_555 1_555
H22 C28 1_555 1_555
C29 N2 1_555 1_555
H23 C29 1_555 1_555
H24 C29 1_555 1_555
C30 C9 1_555 1_555
H25 C30 1_555 1_555
H26 C30 1_555 1_555
H27 C30 1_555 1_555
O7 C20 1_555 1_555
O8 Dy1 1_555 1_555
O9 N4 1_555 1_555
N4 O10 1_555 1_555
O11 N4 1_555 1_555
N5 O12 1_555 1_555
O13 N5 1_555 1_555
O14 N5 1_555 1_555
Dy1_2 O3 1_555 1_555
Dy1_3 O1 1_555 1_555
Dy1A O5 1_555 1_555
Dy1A_2 O7 1_555 1_555
Dy1A_3 O4 1_555 1_555
O1_2 Dy1 1_555 1_555
O3_2 Dy1 1_555 1_555
O4A Dy1 1_555 1_555
O5A Dy1 1_555 1_555
O7A Dy1 1_555 1_555
N3 C28 1_555 1_555
C3 C21 1_555 1_555
C3 C23 1_555 1_555
C10 C14 1_555 1_555
C13 C21 1_555 1_555
C15 C25 1_555 1_555
C16 C26 1_555 1_555
C18 C27 1_555 1_555

#END
