
#######################################################################
#
#                 Cambridge Crystallographic Data Centre
#                                CCDC 
#
#######################################################################
#
# If this CIF has been generated from an entry in the Cambridge 
# Structural Database, then it will include bibliographic, chemical, 
# crystal, experimental, refinement or atomic coordinate data resulting 
# from the CCDC's data processing and validation procedures.
#
#######################################################################

data_VUGYOM
_symmetry_cell_setting           monoclinic
_symmetry_space_group_name_H-M   'P 21/c'
_symmetry_Int_Tables_number      14
_space_group_name_Hall           '-P 2ybc'
loop_
_symmetry_equiv_pos_site_id
_symmetry_equiv_pos_as_xyz
1 x,y,z
2 -x,1/2+y,1/2-z
3 -x,-y,-z
4 x,1/2-y,1/2+z
_cell_length_a                   10.6979(5)
_cell_length_b                   10.0491(5)
_cell_length_c                   12.4860(6)
_cell_angle_alpha                90
_cell_angle_beta                 107.2835(7)
_cell_angle_gamma                90
_cell_volume                     1281.69
loop_
_atom_site_label
_atom_site_type_symbol
_atom_site_fract_x
_atom_site_fract_y
_atom_site_fract_z
Sn1 Sn 0.07111(1) 0.13648(1) 0.28115(1)
O1 O -0.03180(12) -0.06089(13) 0.15939(11)
O2 O -0.18040(12) -0.21980(12) 0.09681(10)
O3 O -0.62911(15) 0.27090(15) 0.20513(13)
O4 O -0.59426(14) 0.43125(14) 0.10186(12)
N1 N -0.57732(16) 0.31688(16) 0.13720(13)
C1 C -0.13443(17) -0.10241(18) 0.09246(14)
C2 C -0.21563(18) -0.01455(18) -0.00216(15)
C3 C -0.31244(16) 0.07150(17) 0.03448(14)
C4 C -0.36117(17) 0.03142(18) 0.12144(15)
C5 C -0.44872(18) 0.11161(19) 0.15503(15)
C6 C -0.48797(17) 0.23040(17) 0.09931(15)
C7 C -0.44438(18) 0.27246(18) 0.01075(16)
C8 C -0.35523(18) 0.19189(19) -0.02066(15)
C9 C -0.0847(2) 0.1196(2) 0.35322(18)
C10 C 0.0356(2) 0.2481(2) 0.13121(16)
C11 C 0.2343(2) 0.0060(2) 0.32577(18)
H1 H -0.161(2) 0.042(2) -0.0278(19)
H2 H -0.264(2) -0.071(2) -0.0649(19)
H3 H -0.337(2) -0.050(2) 0.1583(18)
H4 H -0.476(2) 0.086(2) 0.2145(18)
H5 H -0.472(2) 0.355(2) -0.0253(19)
H6 H -0.319(2) 0.219(2) -0.082(2)
H7 H -0.142(3) 0.052(3) 0.323(2)
H8 H -0.125(3) 0.197(4) 0.351(3)
H9 H -0.048(4) 0.094(4) 0.428(3)
H10 H 0.108(3) 0.302(3) 0.136(2)
H11 H -0.042(3) 0.296(3) 0.125(2)
H12 H 0.028(2) 0.189(3) 0.071(2)
H13 H 0.250(3) -0.017(3) 0.400(3)
H14 H 0.312(3) 0.049(3) 0.319(3)
H15 H 0.218(3) -0.072(3) 0.287(3)
Sn1A Sn -0.07111(1) -0.36352(1) 0.21885(1)
O2A O 0.18040(12) 0.28020(12) 0.40319(10)
loop_
_geom_bond_atom_site_label_1
_geom_bond_atom_site_label_2
_geom_bond_site_symmetry_1
_geom_bond_site_symmetry_2
Sn1 O1 1_555 1_555
O1 C1 1_555 1_555
O2 C1 1_555 1_555
O3 N1 1_555 1_555
O4 N1 1_555 1_555
N1 C6 1_555 1_555
C1 C2 1_555 1_555
C2 C3 1_555 1_555
C3 C4 1_555 1_555
C4 C5 1_555 1_555
C5 C6 1_555 1_555
C6 C7 1_555 1_555
C7 C8 1_555 1_555
C8 C3 1_555 1_555
C9 Sn1 1_555 1_555
C10 Sn1 1_555 1_555
C11 Sn1 1_555 1_555
H1 C2 1_555 1_555
H2 C2 1_555 1_555
H3 C4 1_555 1_555
H4 C5 1_555 1_555
H5 C7 1_555 1_555
H6 C8 1_555 1_555
H7 C9 1_555 1_555
H8 C9 1_555 1_555
H9 C9 1_555 1_555
H10 C10 1_555 1_555
H11 C10 1_555 1_555
H12 C10 1_555 1_555
H13 C11 1_555 1_555
H14 C11 1_555 1_555
H15 C11 1_555 1_555
Sn1A O2 1_555 1_555
O2A Sn1 1_555 1_555

#END
