
#######################################################################
#
#                 Cambridge Crystallographic Data Centre
#                                CCDC 
#
#######################################################################
#
# If this CIF has been generated from an entry in the Cambridge 
# Structural Database, then it will include bibliographic, chemical, 
# crystal, experimental, refinement or atomic coordinate data resulting 
# from the CCDC's data processing and validation procedures.
#
#######################################################################

data_VUGYIH
_symmetry_cell_setting           triclinic
_symmetry_space_group_name_H-M   'P -1'
_symmetry_Int_Tables_number      2
_space_group_name_Hall           '-P 1'
loop_
_symmetry_equiv_pos_site_id
_symmetry_equiv_pos_as_xyz
1 x,y,z
2 -x,-y,-z
_cell_length_a                   9.4951(3)
_cell_length_b                   12.5595(4)
_cell_length_c                   18.9191(6)
_cell_angle_alpha                106.107(3)
_cell_angle_beta                 98.869(2)
_cell_angle_gamma                100.650(3)
_cell_volume                     2079.23
loop_
_atom_site_label
_atom_site_type_symbol
_atom_site_fract_x
_atom_site_fract_y
_atom_site_fract_z
N4 N -0.1008(7) -0.1607(6) -0.3986(3)
O9 O -0.2164(13) -0.2442(13) -0.4264(6)
O10 O -0.0075(14) -0.1194(14) -0.4289(8)
O11 O -0.0583(16) -0.1307(13) -0.3292(4)
O12 O 0.3786(9) -0.3165(10) -0.1724(4)
O13 O 0.4008(7) -0.3628(6) -0.2883(4)
N5 N 0.4195(6) -0.3705(6) -0.2244(3)
O14 O 0.4858(11) -0.4460(9) -0.2135(7)
Cl1 Cl -0.4990(3) -1.1478(3) -0.6760(2)
Yb1 Yb -0.76587(3) -0.98219(3) -0.996087(15)
O1 O -0.5422(5) -0.9705(4) -0.9123(2)
O2 O -0.3110(5) -0.9796(5) -0.8812(2)
O3 O 0.0024(5) -0.1088(4) -0.0757(3)
N1 N -0.4322(6) -0.8411(6) -0.6327(3)
O4 O -0.2365(5) -0.1812(5) -0.1163(3)
N2 N 0.0054(6) -0.8471(5) -0.3181(3)
O5 O 0.1065(5) -0.8729(5) -0.0612(3)
O6 O -0.1395(5) -0.9289(5) -0.0950(3)
N3 N -0.0455(7) -0.3896(5) -0.3273(3)
C1 C -0.0759(6) -0.7677(5) -0.4216(3)
C2 C -0.1084(7) -0.1768(6) -0.1230(4)
C3 C -0.4341(6) -0.9236(6) -0.7830(3)
C4 C -0.0945(8) -0.5809(6) -0.4267(3)
C5 C -0.4301(7) -0.9621(6) -0.8660(3)
C6 C -0.0192(6) -0.6515(5) -0.3978(3)
O7 O -0.5772(6) -0.8017(5) -0.9895(4)
C7 C -0.5596(7) -0.9036(7) -0.7596(3)
H1 H -0.6478 -0.9178 -0.7958
C8 C -0.2890(7) -0.7465(7) -0.4984(3)
C9 C -0.3076(6) -0.9036(6) -0.7288(3)
H2 H -0.2200 -0.9188 -0.7434
C10 C -0.5578(7) -0.8633(7) -0.6842(3)
H3 H -0.6451 -0.8509 -0.6682
C11 C -0.2299(8) -0.6280(7) -0.4775(3)
C12 C -0.3100(7) -0.8615(7) -0.6534(3)
H4 H -0.2234 -0.8471 -0.6160
C13 C -0.0838(7) -0.2575(6) -0.1946(4)
C14 C -0.0087(7) -0.8735(6) -0.1809(4)
C15 C -0.2135(7) -0.8170(6) -0.4716(3)
C16 C -0.1213(7) -0.8522(6) -0.2956(4)
H5 H -0.2055 -0.8467 -0.3275
C17 C 0.0117(8) -0.8448(6) -0.3974(4)
H6 H 0.1153 -0.8186 -0.3998
H7 H -0.0264 -0.9233 -0.4330
C18 C 0.1220(8) -0.8665(7) -0.2054(5)
H8 H 0.2080 -0.8700 -0.1738
C19 C -0.1309(7) -0.8652(6) -0.2268(4)
H9 H -0.2213 -0.8684 -0.2109
C20 C 0.1245(7) -0.5983(6) -0.3405(4)
H10 H 0.1637 -0.6583 -0.3265
H11 H 0.1080 -0.5450 -0.2955
H12 H 0.1950 -0.5571 -0.3623
C21 C 0.0554(8) -0.2602(6) -0.2049(4)
H13 H 0.1385 -0.2160 -0.1661
C22 C -0.2023(8) -0.3242(7) -0.2501(4)
H14 H -0.2989 -0.3241 -0.2425
C23 C 0.0728(8) -0.3276(6) -0.2721(4)
H15 H 0.1686 -0.3306 -0.2799
C24 C -0.1820(8) -0.3906(7) -0.3162(4)
H16 H -0.2644 -0.4376 -0.3545
C25 C -0.0253(9) -0.4547(6) -0.4029(4)
H17 H 0.0811 -0.4437 -0.4017
H18 H -0.0683 -0.4228 -0.4411
C26 C -0.0144(8) -0.8925(7) -0.1053(4)
C27 C 0.1282(8) -0.8547(7) -0.2749(5)
H19 H 0.2170 -0.8518 -0.2924
C28 C -0.4390(7) -0.7979(7) -0.5498(3)
H20 H -0.4976 -0.7397 -0.5431
H21 H -0.4897 -0.8621 -0.5352
C29 C -0.3151(10) -0.5559(9) -0.5113(4)
H22 H -0.3958 -0.5433 -0.4858
H23 H -0.3550 -0.5957 -0.5652
H24 H -0.2493 -0.4822 -0.5047
C30 C -0.2746(11) -0.9443(8) -0.4967(5)
H25 H -0.3739 -0.9634 -0.5279
H26 H -0.2783 -0.9699 -0.4525
H27 H -0.2115 -0.9824 -0.5262
O8 O -0.7229(6) -1.1791(5) -1.0281(3)
Yb1_2 Yb 0.23413(3) -0.98219(3) 0.003913(15)
Yb1_3 Yb 0.23413(3) 0.01781(3) 0.003913(15)
Yb1A Yb -0.23413(3) -1.01781(3) -1.003913(15)
Yb1A_2 Yb -0.23413(3) -1.01781(3) -0.003913(15)
Yb1A_3 Yb -0.23413(3) -0.01781(3) -0.003913(15)
O2A O -0.6890(5) -1.0204(5) -1.1188(2)
O3_2 O -0.9976(5) -1.1088(4) -1.0757(3)
O4A O -0.7635(5) -0.8188(5) -0.8837(3)
O5_2 O -0.8935(5) -0.8729(5) -1.0612(3)
O6A O -0.8605(5) -1.0711(5) -0.9050(3)
loop_
_geom_bond_atom_site_label_1
_geom_bond_atom_site_label_2
_geom_bond_site_symmetry_1
_geom_bond_site_symmetry_2
Yb1 O1 1_555 1_555
O1 C5 1_555 1_555
O2 C5 1_555 1_555
O3 C2 1_555 1_555
N1 C10 1_555 1_555
O4 C2 1_555 1_555
N2 C16 1_555 1_555
O5 C26 1_555 1_555
O6 C26 1_555 1_555
N3 C23 1_555 1_555
C1 C6 1_555 1_555
C2 C13 1_555 1_555
C3 C5 1_555 1_555
C4 C6 1_555 1_555
C6 C20 1_555 1_555
O7 Yb1 1_555 1_555
C7 C3 1_555 1_555
H1 C7 1_555 1_555
C8 C11 1_555 1_555
C9 C3 1_555 1_555
H2 C9 1_555 1_555
C10 C7 1_555 1_555
H3 C10 1_555 1_555
C11 C4 1_555 1_555
C12 N1 1_555 1_555
H4 C12 1_555 1_555
C13 C21 1_555 1_555
C14 C18 1_555 1_555
C15 C1 1_555 1_555
C16 H5 1_555 1_555
C17 N2 1_555 1_555
H6 C17 1_555 1_555
H7 C17 1_555 1_555
C18 H8 1_555 1_555
C19 C14 1_555 1_555
H9 C19 1_555 1_555
C20 H10 1_555 1_555
H11 C20 1_555 1_555
H12 C20 1_555 1_555
C21 H13 1_555 1_555
C22 C13 1_555 1_555
H14 C22 1_555 1_555
C23 C21 1_555 1_555
H15 C23 1_555 1_555
C24 N3 1_555 1_555
H16 C24 1_555 1_555
C25 N3 1_555 1_555
H17 C25 1_555 1_555
H18 C25 1_555 1_555
C26 C14 1_555 1_555
C27 N2 1_555 1_555
H19 C27 1_555 1_555
C28 N1 1_555 1_555
H20 C28 1_555 1_555
H21 C28 1_555 1_555
C29 C11 1_555 1_555
H22 C29 1_555 1_555
H23 C29 1_555 1_555
H24 C29 1_555 1_555
C30 C15 1_555 1_555
H25 C30 1_555 1_555
H26 C30 1_555 1_555
H27 C30 1_555 1_555
O8 Yb1 1_555 1_555
N4 O9 1_555 1_555
O10 N4 1_555 1_555
O11 N4 1_555 1_555
O12 N5 1_555 1_555
O13 N5 1_555 1_555
N5 O14 1_555 1_555
Yb1_2 O5 1_555 1_555
Yb1_3 O3 1_555 1_555
Yb1A O2 1_555 1_555
Yb1A_2 O6 1_555 1_555
Yb1A_3 O4 1_555 1_555
O2A Yb1 1_555 1_555
O3_2 Yb1 1_555 1_555
O4A Yb1 1_555 1_555
O5_2 Yb1 1_555 1_555
O6A Yb1 1_555 1_555
C1 C17 1_555 1_555
C4 C25 1_555 1_555
C8 C15 1_555 1_555
C8 C28 1_555 1_555
C9 C12 1_555 1_555
C16 C19 1_555 1_555
C18 C27 1_555 1_555
C22 C24 1_555 1_555

#END
