
#######################################################################
#
#                 Cambridge Crystallographic Data Centre
#                                CCDC 
#
#######################################################################
#
# If this CIF has been generated from an entry in the Cambridge 
# Structural Database, then it will include bibliographic, chemical, 
# crystal, experimental, refinement or atomic coordinate data resulting 
# from the CCDC's data processing and validation procedures.
#
#######################################################################

data_VUGYED
_symmetry_cell_setting           triclinic
_symmetry_space_group_name_H-M   'P -1'
_symmetry_Int_Tables_number      2
_space_group_name_Hall           '-P 1'
loop_
_symmetry_equiv_pos_site_id
_symmetry_equiv_pos_as_xyz
1 x,y,z
2 -x,-y,-z
_cell_length_a                   9.4644(2)
_cell_length_b                   12.7206(3)
_cell_length_c                   18.5539(5)
_cell_angle_alpha                106.206(2)
_cell_angle_beta                 97.893(2)
_cell_angle_gamma                100.266(2)
_cell_volume                     2068.88
loop_
_atom_site_label
_atom_site_type_symbol
_atom_site_fract_x
_atom_site_fract_y
_atom_site_fract_z
Cl1 Cl 0.0001(2) -0.3565(2) 0.17881(16)
N4 N -0.0741(6) 0.1265(5) 0.2787(3)
O9 O -0.0099(11) 0.0527(9) 0.2915(6)
O10 O -0.1082(10) 0.1901(8) 0.3325(6)
O11 O -0.0930(10) 0.1302(8) 0.2128(6)
N5 N 0.4034(6) 0.3352(5) 0.0983(3)
O12 O 0.2871(9) 0.2384(8) 0.0684(5)
O13 O 0.3391(9) 0.3900(8) 0.0690(6)
O14 O 0.4882(10) 0.3216(8) 0.1338(6)
Ho1 Ho 0.26384(3) 0.48509(3) 0.497279(17)
O1 O 0.2840(4) 0.3333(3) 0.3943(2)
N1 N 0.4581(6) 0.1063(4) 0.1741(3)
C1 C 0.4017(6) -0.0831(4) 0.0740(3)
O2 O 0.5267(4) 0.3913(3) 0.4269(2)
N2 N 0.5041(5) -0.3506(4) 0.1808(3)
C2 C 0.4778(5) -0.1530(4) 0.1022(3)
O3 O 0.3645(4) -0.4380(3) 0.4077(2)
N3 N 0.0608(6) -0.3357(5) -0.1320(3)
C3 C 0.4186(6) -0.2694(4) 0.0781(3)
O4 O 0.6110(4) -0.3865(3) 0.4387(2)
C4 C 0.2819(6) -0.3150(5) 0.0299(3)
O5 O 0.1796(4) -0.4762(4) -0.38683(19)
C5 C 0.2059(6) -0.2435(5) 0.0038(3)
O6 O -0.0532(4) -0.4671(3) -0.41471(19)
C6 C 0.2660(7) -0.1279(5) 0.0235(3)
C7 C 0.4721(8) 0.0399(5) 0.0967(3)
H1 H 0.5774 0.0484 0.0948
H2 H 0.4275 0.0718 0.0586
C8 C 0.5085(6) -0.3455(5) 0.1008(3)
H3 H 0.6115 -0.3188 0.0974
H4 H 0.4721 -0.4222 0.0641
C9 C 0.0556(6) -0.2912(5) -0.0473(3)
H5 H -0.0008 -0.2318 -0.0400
H6 H 0.0031 -0.3530 -0.0315
C10 C 0.6207(7) -0.1037(5) 0.1578(3)
H7 H 0.6622 -0.1643 0.1685
H8 H 0.6047 -0.0543 0.2055
H9 H 0.6888 -0.0601 0.1357
C11 C 0.2168(9) -0.4393(6) 0.0045(4)
H10 H 0.2914 -0.4802 -0.0116
H11 H 0.1342 -0.4583 -0.0385
H12 H 0.1824 -0.4605 0.0470
C12 C 0.1821(9) -0.0546(7) -0.0085(4)
H13 H 0.1339 -0.0954 -0.0618
H14 H 0.2500 0.0145 -0.0063
H15 H 0.1080 -0.0356 0.0219
C13 C 0.5776(7) 0.1669(5) 0.2274(4)
H16 H 0.6722 0.1625 0.2170
C14 C 0.5641(6) 0.2354(5) 0.2972(4)
H17 H 0.6490 0.2760 0.3353
C15 C 0.4274(6) 0.2446(4) 0.3114(3)
C16 C 0.3037(6) 0.1780(5) 0.2570(3)
H18 H 0.2083 0.1802 0.2671
C17 C 0.3216(7) 0.1093(5) 0.1888(3)
H19 H 0.2380 0.0636 0.1516
C18 C 0.4113(6) 0.3285(4) 0.3838(3)
C19 C 0.6258(6) -0.3601(5) 0.2226(4)
H20 H 0.7139 -0.3570 0.2033
C20 C 0.6233(7) -0.3744(6) 0.2929(4)
H21 H 0.7101 -0.3795 0.3230
C21 C 0.4940(6) -0.3812(4) 0.3202(3)
C22 C 0.3696(6) -0.3705(5) 0.2757(3)
H22 H 0.2799 -0.3741 0.2935
C23 C 0.3773(6) -0.3547(5) 0.2068(3)
H23 H 0.2928 -0.3466 0.1766
C24 C 0.4879(6) -0.4036(4) 0.3958(3)
C25 C 0.1846(5) -0.3565(5) -0.1546(3)
H24 H 0.2715 -0.3421 -0.1175
C26 C 0.1859(6) -0.3983(5) -0.2310(3)
H25 H 0.2729 -0.4143 -0.2471
C27 C 0.0590(5) -0.4172(4) -0.2847(3)
C28 C -0.0672(6) -0.3966(5) -0.2595(3)
H26 H -0.1560 -0.4117 -0.2954
C29 C -0.0635(6) -0.3538(6) -0.1818(3)
H27 H -0.1491 -0.3375 -0.1641
C30 C 0.0610(5) -0.4580(4) -0.3701(3)
O7 O 0.0910(5) 0.3143(4) 0.4931(3)
O8 O 0.2155(5) 0.6678(4) 0.5206(3)
Ho1_2 Ho 0.26384(3) -0.51491(3) -0.502721(17)
Ho1_3 Ho 0.26384(3) -0.51491(3) 0.497279(17)
Ho1A Ho -0.26384(3) -0.48509(3) -0.497279(17)
Ho1A_2 Ho 0.73616(3) -0.48509(3) 0.502721(17)
Ho1A_3 Ho 0.73616(3) 0.51491(3) 0.502721(17)
O2A O 0.4733(4) 0.6087(3) 0.5731(2)
O3_2 O 0.3645(4) 0.5620(3) 0.4077(2)
O4A O 0.3890(4) 0.3865(3) 0.5613(2)
O5_2 O 0.1796(4) 0.5238(4) 0.61317(19)
O6A O 0.0532(4) 0.4671(3) 0.41471(19)
loop_
_geom_bond_atom_site_label_1
_geom_bond_atom_site_label_2
_geom_bond_site_symmetry_1
_geom_bond_site_symmetry_2
Ho1 O1 1_555 1_555
O1 C18 1_555 1_555
N1 C7 1_555 1_555
C1 C2 1_555 1_555
O2 C18 1_555 1_555
N2 C8 1_555 1_555
C2 C3 1_555 1_555
O3 C24 1_555 1_555
N3 C9 1_555 1_555
C3 C4 1_555 1_555
O4 C24 1_555 1_555
C4 C5 1_555 1_555
O5 C30 1_555 1_555
C5 C6 1_555 1_555
O6 C30 1_555 1_555
C6 C1 1_555 1_555
C7 C1 1_555 1_555
H1 C7 1_555 1_555
H2 C7 1_555 1_555
C8 C3 1_555 1_555
H3 C8 1_555 1_555
H4 C8 1_555 1_555
C9 C5 1_555 1_555
H5 C9 1_555 1_555
H6 C9 1_555 1_555
C10 C2 1_555 1_555
H7 C10 1_555 1_555
H8 C10 1_555 1_555
H9 C10 1_555 1_555
C11 C4 1_555 1_555
H10 C11 1_555 1_555
H11 C11 1_555 1_555
H12 C11 1_555 1_555
C12 C6 1_555 1_555
H13 C12 1_555 1_555
H14 C12 1_555 1_555
H15 C12 1_555 1_555
C13 N1 1_555 1_555
H16 C13 1_555 1_555
C14 C13 1_555 1_555
H17 C14 1_555 1_555
C15 C14 1_555 1_555
C16 C15 1_555 1_555
H18 C16 1_555 1_555
C17 N1 1_555 1_555
H19 C17 1_555 1_555
C18 C15 1_555 1_555
C19 N2 1_555 1_555
H20 C19 1_555 1_555
C20 C19 1_555 1_555
H21 C20 1_555 1_555
C21 C20 1_555 1_555
C22 C21 1_555 1_555
H22 C22 1_555 1_555
C23 N2 1_555 1_555
H23 C23 1_555 1_555
C24 C21 1_555 1_555
C25 N3 1_555 1_555
H24 C25 1_555 1_555
C26 C25 1_555 1_555
H25 C26 1_555 1_555
C27 C26 1_555 1_555
C28 C27 1_555 1_555
H26 C28 1_555 1_555
C29 N3 1_555 1_555
H27 C29 1_555 1_555
C30 C27 1_555 1_555
O7 Ho1 1_555 1_555
O8 Ho1 1_555 1_555
N4 O9 1_555 1_555
O10 N4 1_555 1_555
O11 N4 1_555 1_555
N5 O12 1_555 1_555
O13 N5 1_555 1_555
O14 N5 1_555 1_555
Ho1_2 O5 1_555 1_555
Ho1_3 O3 1_555 1_555
Ho1A O6 1_555 1_555
Ho1A_2 O4 1_555 1_555
Ho1A_3 O2 1_555 1_555
O2A Ho1 1_555 1_555
O3_2 Ho1 1_555 1_555
O4A Ho1 1_555 1_555
O5_2 Ho1 1_555 1_555
O6A Ho1 1_555 1_555
C16 C17 1_555 1_555
C22 C23 1_555 1_555
C28 C29 1_555 1_555

#END
