
#######################################################################
#
#                 Cambridge Crystallographic Data Centre
#                                CCDC 
#
#######################################################################
#
# If this CIF has been generated from an entry in the Cambridge 
# Structural Database, then it will include bibliographic, chemical, 
# crystal, experimental, refinement or atomic coordinate data resulting 
# from the CCDC's data processing and validation procedures.
#
#######################################################################

data_VUHCEI
_symmetry_cell_setting           monoclinic
_symmetry_space_group_name_H-M   'P 21/c'
_symmetry_Int_Tables_number      14
_space_group_name_Hall           '-P 2ybc'
loop_
_symmetry_equiv_pos_site_id
_symmetry_equiv_pos_as_xyz
1 x,y,z
2 -x,1/2+y,1/2-z
3 -x,-y,-z
4 x,1/2-y,1/2+z
_cell_length_a                   10.2961(5)
_cell_length_b                   10.7435(6)
_cell_length_c                   17.5025(9)
_cell_angle_alpha                90
_cell_angle_beta                 94.932(3)
_cell_angle_gamma                90
_cell_volume                     1928.89
loop_
_atom_site_label
_atom_site_type_symbol
_atom_site_fract_x
_atom_site_fract_y
_atom_site_fract_z
Cu1 Cu 0.40952(2) 0.28116(2) 0.18876(2)
N1 N 0.35487(14) 0.35540(13) 0.08578(8)
N2 N 0.35542(12) 0.47632(12) 0.22597(7)
N3 N 0.25255(13) 0.24543(13) 0.24709(8)
C1 C 0.38255(19) 0.30569(17) 0.01841(10)
C2 C 0.29974(15) 0.46931(15) 0.08566(9)
C3 C 0.26267(15) 0.51606(15) 0.16191(9)
C4 C 0.29044(16) 0.45596(16) 0.29639(9)
C5 C 0.46963(15) 0.56005(14) 0.23791(9)
C6 C 0.21024(16) 0.33811(16) 0.29040(9)
C7 C 0.18699(17) 0.13676(16) 0.24387(10)
H1 H 0.4233 0.2263 0.0184
C8 C 0.3539(2) 0.3658(2) -0.05060(11)
C9 C 0.27066(19) 0.53545(18) 0.01861(11)
H2 H 0.2589 0.6081 0.1607
H3 H 0.1747 0.4848 0.1706
H4 H 0.2332 0.5277 0.3051
H5 H 0.3567 0.4498 0.3407
H6 H 0.5189 0.5569 0.1918
H7 H 0.5276 0.5286 0.2817
C10 C 0.43571(17) 0.69412(16) 0.25335(11)
C11 C 0.10020(18) 0.32522(19) 0.33018(11)
C12 C 0.07809(19) 0.11698(19) 0.28341(12)
H8 H 0.2166 0.0713 0.2133
H9 H 0.3731 0.3279 -0.0973
C13 C 0.2969(2) 0.4822(2) -0.05060(11)
H10 H 0.2332 0.6162 0.0199
H11 H 0.4363 0.7525 0.2126
C14 C 0.40412(19) 0.73514(19) 0.32348(14)
H12 H 0.0706 0.3927 0.3592
C15 C 0.0339(2) 0.2129(2) 0.32709(13)
H13 H 0.0345 0.0390 0.2806
H14 H 0.2760 0.5253 -0.0974
H15 H 0.3898 0.6703 0.3620
H16 H 0.3410 0.8047 0.3232
H17 H -0.0409 0.2020 0.3546
Cu1A Cu 0.59048(2) 0.78116(2) 0.31124(2)
N2A N 0.64458(12) 0.97632(12) 0.27403(7)
N1A N 0.64513(14) 0.85540(13) 0.41422(8)
N3A N 0.74745(13) 0.74543(13) 0.25291(8)
Cl1 Cl 0.31067(4) 0.91688(4) 0.06230(2)
O1 O 0.20483(18) 0.8654(2) 0.10057(11)
O2 O 0.2754(2) 0.9252(3) -0.01744(10)
O3 O 0.33879(19) 1.03794(16) 0.09251(11)
O4 O 0.4244(2) 0.8414(2) 0.07888(14)
N4 N -0.0428(3) 0.1619(3) 0.63275(19)
C16 C -0.0056(3) 0.2326(2) 0.59215(16)
C17 C 0.0424(3) 0.3246(4) 0.54240(18)
H18 H 0.0759 0.3960 0.5728
H19 H -0.0286 0.3519 0.5053
H20 H 0.1126 0.2887 0.5151
loop_
_geom_bond_atom_site_label_1
_geom_bond_atom_site_label_2
_geom_bond_site_symmetry_1
_geom_bond_site_symmetry_2
Cu1 N1 1_555 1_555
N1 C1 1_555 1_555
N2 Cu1 1_555 1_555
N3 Cu1 1_555 1_555
C1 H1 1_555 1_555
C2 N1 1_555 1_555
C3 N2 1_555 1_555
C4 N2 1_555 1_555
C5 N2 1_555 1_555
C6 N3 1_555 1_555
C7 N3 1_555 1_555
C8 C1 1_555 1_555
C9 C2 1_555 1_555
H2 C3 1_555 1_555
H3 C3 1_555 1_555
H4 C4 1_555 1_555
H5 C4 1_555 1_555
H6 C5 1_555 1_555
H7 C5 1_555 1_555
C10 C5 1_555 1_555
C11 C6 1_555 1_555
C12 C7 1_555 1_555
H8 C7 1_555 1_555
H9 C8 1_555 1_555
C13 C8 1_555 1_555
H10 C9 1_555 1_555
H11 C10 1_555 1_555
C14 C10 1_555 1_555
H12 C11 1_555 1_555
C15 C11 1_555 1_555
H13 C12 1_555 1_555
H14 C13 1_555 1_555
H15 C14 1_555 1_555
H16 C14 1_555 1_555
H17 C15 1_555 1_555
Cl1 O1 1_555 1_555
O2 Cl1 1_555 1_555
O3 Cl1 1_555 1_555
O4 Cl1 1_555 1_555
N4 C16 1_555 1_555
C16 C17 1_555 1_555
C17 H18 1_555 1_555
H19 C17 1_555 1_555
H20 C17 1_555 1_555
Cu1A C10 1_555 1_555
N2A Cu1A 1_555 1_555
N1A Cu1A 1_555 1_555
N3A Cu1A 1_555 1_555
C2 C3 1_555 1_555
C4 C6 1_555 1_555
C9 C13 1_555 1_555
C12 C15 1_555 1_555
C14 Cu1A 1_555 1_555

#END
