
#######################################################################
#
#                 Cambridge Crystallographic Data Centre
#                                CCDC 
#
#######################################################################
#
# If this CIF has been generated from an entry in the Cambridge 
# Structural Database, then it will include bibliographic, chemical, 
# crystal, experimental, refinement or atomic coordinate data resulting 
# from the CCDC's data processing and validation procedures.
#
#######################################################################

data_VUHCUX
_symmetry_cell_setting           monoclinic
_symmetry_space_group_name_H-M   'P 21/c'
_symmetry_Int_Tables_number      14
_space_group_name_Hall           '-P 2ybc'
loop_
_symmetry_equiv_pos_site_id
_symmetry_equiv_pos_as_xyz
1 x,y,z
2 -x,1/2+y,1/2-z
3 -x,-y,-z
4 x,1/2-y,1/2+z
_cell_length_a                   8.0705(3)
_cell_length_b                   22.0328(6)
_cell_length_c                   32.3698(11)
_cell_angle_alpha                90
_cell_angle_beta                 90.269(3)
_cell_angle_gamma                90
_cell_volume                     5755.8
loop_
_atom_site_label
_atom_site_type_symbol
_atom_site_fract_x
_atom_site_fract_y
_atom_site_fract_z
Cl1 Cl -1.7427(4) 0.06566(16) 0.09256(12)
O1 O -1.7779(14) 0.0660(5) 0.0497(3)
O2 O -1.8757(17) 0.0341(7) 0.1081(4)
O3 O -1.6155(14) 0.0260(5) 0.0981(4)
O4 O -1.6988(16) 0.1200(5) 0.1069(4)
Cl2 Cl -1.4456(5) 1.0110(2) 0.26396(12)
O5 O -1.5451(12) 0.9739(5) 0.2728(4)
O6 O -1.4976(15) 1.0438(5) 0.2383(3)
O7 O -1.4196(17) 1.0410(6) 0.2940(3)
O8 O -1.3242(13) 0.9869(6) 0.2545(4)
S4 S 0.2017(10) 0.0840(4) -0.0961(2)
O13 O 0.2393(19) 0.0809(7) -0.0545(4)
C40 C 0.3999(14) 0.1033(8) -0.1143(6)
H31 H 0.4715 0.0686 -0.1123
H32 H 0.3921 0.1159 -0.1426
H33 H 0.4443 0.1358 -0.0979
C41 C 0.1165(19) 0.1569(6) -0.1048(6)
H34 H 0.0046 0.1579 -0.0949
H35 H 0.1814 0.1867 -0.0904
H36 H 0.1173 0.1656 -0.1339
S5 S -1.7164(4) 0.64499(14) 0.33759(9)
O14 O -1.8437(7) 0.6585(3) 0.30653(19)
C42 C -1.7347(19) 0.5678(5) 0.3490(5)
H37 H -1.6941 0.5442 0.3263
H38 H -1.8490 0.5580 0.3538
H39 H -1.6709 0.5586 0.3734
C43 C -1.7936(18) 0.6683(6) 0.3854(3)
H40 H -1.7976 0.7119 0.3863
H41 H -1.7226 0.6537 0.4071
H42 H -1.9032 0.6523 0.3890
S6 S -1.9215(8) 0.9165(4) 0.2170(2)
O15 O -1.8237(14) 0.9050(7) 0.2511(4)
C44 C -1.920(2) 0.9980(6) 0.2223(6)
C45 C -1.7686(18) 0.9131(9) 0.1793(5)
S7 S -1.6371(11) 0.7312(5) 0.1344(3)
O16 O -1.758(2) 0.7423(10) 0.1011(5)
C46 C -1.451(2) 0.7426(13) 0.1075(8)
C47 C -1.670(2) 0.6563(6) 0.1202(6)
Ag1 Ag 0.82445(8) -0.72268(4) 0.21750(2)
Ag2 Ag 0.02174(19) 0.00961(7) -0.01452(6)
S1 S 1.5905(2) -0.68069(9) 0.14317(6)
S2 S 0.4897(3) -0.23900(9) -0.01236(10)
S3 S 1.0575(2) -0.73579(12) -0.20829(6)
N1 N 1.1694(5) -0.4473(2) 0.00333(15)
N2 N 1.2386(5) -0.5335(2) -0.03699(14)
N3 N 1.0790(5) -0.4537(2) -0.06590(15)
N4 N 1.0565(6) -0.7041(3) 0.18612(18)
N5 N 1.5898(7) -0.7639(3) -0.25126(17)
N6 N 0.1583(10) -0.0753(4) -0.0018(3)
C1 C 1.2449(6) -0.5009(3) -0.00248(17)
C2 C 1.1514(6) -0.5079(3) -0.06769(17)
C3 C 1.0904(6) -0.4259(3) -0.02970(17)
C4 C 1.3399(6) -0.5265(2) 0.03288(17)
C5 C 1.3468(7) -0.4963(3) 0.07068(19)
H1 H 1.2919 -0.4595 0.0741
C6 C 1.4355(7) -0.5213(3) 0.10298(18)
H2 H 1.4377 -0.5014 0.1283
C7 C 1.5209(7) -0.5750(3) 0.09854(18)
C8 C 1.5161(7) -0.6036(3) 0.06104(18)
H3 H 1.5740 -0.6397 0.0575
C9 C 1.4283(6) -0.5803(3) 0.02891(17)
H4 H 1.4273 -0.6007 0.0038
C10 C 1.6206(7) -0.6007(3) 0.13449(19)
H5 H 1.7373 -0.5934 0.1295
H6 H 1.5908 -0.5789 0.1594
C11 C 1.3804(8) -0.6865(4) 0.1582(2)
C12 C 1.2820(8) -0.6380(4) 0.1687(2)
H7 H 1.3222 -0.5986 0.1667
C13 C 1.1220(9) -0.6486(4) 0.1825(2)
H8 H 1.0570 -0.6154 0.1896
C14 C 1.1547(9) -0.7504(4) 0.1753(2)
H9 H 1.1125 -0.7896 0.1776
C15 C 1.3155(9) -0.7438(4) 0.1607(2)
H10 H 1.3774 -0.7775 0.1528
C16 C 1.1276(7) -0.5449(3) -0.10563(18)
C17 C 1.2040(7) -0.5998(3) -0.11006(19)
H11 H 1.2790 -0.6130 -0.0901
C18 C 1.1708(8) -0.6359(4) -0.1441(2)
H12 H 1.2227 -0.6734 -0.1465
C19 C 1.0622(8) -0.6173(4) -0.1744(2)
C20 C 0.9881(8) -0.5612(4) -0.1699(2)
H13 H 0.9158 -0.5475 -0.1903
C21 C 1.0182(8) -0.5255(3) -0.1364(2)
H14 H 0.9657 -0.4881 -0.1340
C22 C 1.0173(10) -0.6557(4) -0.2120(2)
H15 H 0.9001 -0.6502 -0.2177
H16 H 1.0775 -0.6400 -0.2355
C23 C 1.2639(9) -0.7435(4) -0.2238(2)
C24 C 1.3717(8) -0.6956(4) -0.2314(2)
H17 H 1.3373 -0.6558 -0.2274
C25 C 1.5306(9) -0.7078(4) -0.2449(2)
H18 H 1.6006 -0.6751 -0.2499
C26 C 1.4882(9) -0.8093(4) -0.2426(2)
H19 H 1.5266 -0.8488 -0.2457
C27 C 1.3276(9) -0.8005(4) -0.2292(2)
H20 H 1.2614 -0.8340 -0.2237
C28 C 1.0022(7) -0.3673(3) -0.02516(19)
C29 C 0.9412(8) -0.3365(3) -0.0599(2)
H21 H 0.9629 -0.3512 -0.0863
C30 C 0.8478(8) -0.2839(3) -0.0548(2)
H22 H 0.8094 -0.2629 -0.0779
C31 C 0.8117(8) -0.2625(3) -0.0158(2)
C32 C 0.8758(9) -0.2923(3) 0.0186(2)
H23 H 0.8542 -0.2774 0.0450
C33 C 0.9713(8) -0.3437(3) 0.0139(2)
H24 H 1.0155 -0.3628 0.0371
C34 C 0.6989(9) -0.2083(3) -0.0104(3)
H25 H 0.7196 -0.1886 0.0159
H26 H 0.7156 -0.1790 -0.0323
C35 C 0.3685(9) -0.1738(3) -0.0072(3)
C36 C 0.4316(11) -0.1172(4) -0.0006(3)
H27 H 0.5448 -0.1104 0.0020
C37 C 0.3179(12) -0.0708(5) 0.0021(4)
H28 H 0.3599 -0.0322 0.0072
C38 C 0.1021(12) -0.1321(4) -0.0069(3)
H29 H -0.0116 -0.1381 -0.0093
C39 C 0.2013(11) -0.1804(4) -0.0088(3)
H30 H 0.1556 -0.2190 -0.0112
Ag1C Ag 1.82445(8) -0.77732(4) -0.28250(2)
Ag1B Ag -0.82445(8) 0.72268(4) -0.21750(2)
Ag1A Ag -1.82445(8) 0.77732(4) 0.28250(2)
Ag2B Ag -0.02174(19) -0.00961(7) 0.01452(6)
S1B S -1.5905(2) 0.68069(9) -0.14317(6)
S2B S -0.4897(3) 0.23900(9) 0.01236(10)
S3B S -1.0575(2) 0.73579(12) 0.20829(6)
N1B N -1.1694(5) 0.4473(2) -0.00333(15)
N2B N -1.2386(5) 0.5335(2) 0.03699(14)
N3B N -1.0790(5) 0.4537(2) 0.06590(15)
N4B N -1.0565(6) 0.7041(3) -0.18612(18)
N5C N 0.5898(7) -0.7361(3) 0.24874(17)
N5B N -1.5898(7) 0.7639(3) 0.25126(17)
N5A N -0.5898(7) 0.7361(3) -0.24874(17)
N6B N -0.1583(10) 0.0753(4) 0.0018(3)
C1B C -1.2449(6) 0.5009(3) 0.00248(17)
C2B C -1.1514(6) 0.5079(3) 0.06769(17)
C3B C -1.0904(6) 0.4259(3) 0.02970(17)
C4B C -1.3399(6) 0.5265(2) -0.03288(17)
C5B C -1.3468(7) 0.4963(3) -0.07068(19)
H1B H -1.2919 0.4595 -0.0741
C6B C -1.4355(7) 0.5213(3) -0.10298(18)
H2B H -1.4377 0.5014 -0.1283
C7B C -1.5209(7) 0.5750(3) -0.09854(18)
C8B C -1.5161(7) 0.6036(3) -0.06104(18)
H3B H -1.5740 0.6397 -0.0575
C9B C -1.4283(6) 0.5803(3) -0.02891(17)
H4B H -1.4273 0.6007 -0.0038
C10B C -1.6206(7) 0.6007(3) -0.13449(19)
H5B H -1.7373 0.5934 -0.1295
H6B H -1.5908 0.5789 -0.1594
C11B C -1.3804(8) 0.6865(4) -0.1582(2)
C12B C -1.2820(8) 0.6380(4) -0.1687(2)
H7B H -1.3222 0.5986 -0.1667
C13B C -1.1220(9) 0.6486(4) -0.1825(2)
H8B H -1.0570 0.6154 -0.1896
C14B C -1.1547(9) 0.7504(4) -0.1753(2)
H9B H -1.1125 0.7896 -0.1776
C15B C -1.3155(9) 0.7438(4) -0.1607(2)
H10B H -1.3774 0.7775 -0.1528
C16B C -1.1276(7) 0.5449(3) 0.10563(18)
C17B C -1.2040(7) 0.5998(3) 0.11006(19)
H11B H -1.2790 0.6130 0.0901
C18B C -1.1708(8) 0.6359(4) 0.1441(2)
H12B H -1.2227 0.6734 0.1465
C19B C -1.0622(8) 0.6173(4) 0.1744(2)
C20B C -0.9881(8) 0.5612(4) 0.1699(2)
H13B H -0.9158 0.5475 0.1903
C21B C -1.0182(8) 0.5255(3) 0.1364(2)
H14B H -0.9657 0.4881 0.1340
C22B C -1.0173(10) 0.6557(4) 0.2120(2)
H15B H -0.9001 0.6502 0.2177
H16B H -1.0775 0.6400 0.2355
C23B C -1.2639(9) 0.7435(4) 0.2238(2)
C24B C -1.3717(8) 0.6956(4) 0.2314(2)
H17B H -1.3373 0.6558 0.2274
C25B C -1.5306(9) 0.7078(4) 0.2449(2)
H18B H -1.6006 0.6751 0.2499
C26B C -1.4882(9) 0.8093(4) 0.2426(2)
H19B H -1.5266 0.8488 0.2457
C27B C -1.3276(9) 0.8005(4) 0.2292(2)
H20B H -1.2614 0.8340 0.2237
C28B C -1.0022(7) 0.3673(3) 0.02516(19)
C29B C -0.9412(8) 0.3365(3) 0.0599(2)
H21B H -0.9629 0.3512 0.0863
C30B C -0.8478(8) 0.2839(3) 0.0548(2)
H22B H -0.8094 0.2629 0.0779
C31B C -0.8117(8) 0.2625(3) 0.0158(2)
C32B C -0.8758(9) 0.2923(3) -0.0186(2)
H23B H -0.8542 0.2774 -0.0450
C33B C -0.9713(8) 0.3437(3) -0.0139(2)
H24B H -1.0155 0.3628 -0.0371
C34B C -0.6989(9) 0.2083(3) 0.0104(3)
H25B H -0.7196 0.1886 -0.0159
H26B H -0.7156 0.1790 0.0323
C35B C -0.3685(9) 0.1738(3) 0.0072(3)
C36B C -0.4316(11) 0.1172(4) 0.0006(3)
H27B H -0.5448 0.1104 -0.0020
C37B C -0.3179(12) 0.0708(5) -0.0021(4)
H28B H -0.3599 0.0322 -0.0072
C38B C -0.1021(12) 0.1321(4) 0.0069(3)
H29B H 0.0116 0.1381 0.0093
C39B C -0.2013(11) 0.1804(4) 0.0088(3)
H30B H -0.1556 0.2190 0.0112
O9? O -1.616(4) 1.0256(16) 0.2838(10)
O10? O -1.384(4) 1.0442(16) 0.2590(10)
O11? O -1.407(4) 0.9688(14) 0.2299(9)
O12? O -1.343(3) 0.9881(13) 0.2871(8)
S8? S -1.610(2) 0.6845(8) 0.0846(6)
C48? C -2.040(4) 0.9430(18) 0.2029(10)
loop_
_geom_bond_atom_site_label_1
_geom_bond_atom_site_label_2
_geom_bond_site_symmetry_1
_geom_bond_site_symmetry_2
Ag1 N4 1_555 1_555
Ag2 N6 1_555 1_555
S1 C10 1_555 1_555
S2 C34 1_555 1_555
S3 C22 1_555 1_555
N1 C1 1_555 1_555
N2 C1 1_555 1_555
N3 C2 1_555 1_555
N4 C13 1_555 1_555
N5 C25 1_555 1_555
N6 C37 1_555 1_555
C1 C4 1_555 1_555
C2 N2 1_555 1_555
C3 N1 1_555 1_555
C4 C5 1_555 1_555
C5 H1 1_555 1_555
C6 C5 1_555 1_555
H2 C6 1_555 1_555
C7 C6 1_555 1_555
C8 C7 1_555 1_555
H3 C8 1_555 1_555
C9 C4 1_555 1_555
H4 C9 1_555 1_555
C10 C7 1_555 1_555
H5 C10 1_555 1_555
H6 C10 1_555 1_555
C11 S1 1_555 1_555
C12 C11 1_555 1_555
H7 C12 1_555 1_555
C13 C12 1_555 1_555
H8 C13 1_555 1_555
C14 N4 1_555 1_555
H9 C14 1_555 1_555
C15 C11 1_555 1_555
H10 C15 1_555 1_555
C16 C2 1_555 1_555
C17 C16 1_555 1_555
H11 C17 1_555 1_555
C18 C17 1_555 1_555
H12 C18 1_555 1_555
C19 C18 1_555 1_555
C20 C19 1_555 1_555
H13 C20 1_555 1_555
C21 C16 1_555 1_555
H14 C21 1_555 1_555
C22 C19 1_555 1_555
H15 C22 1_555 1_555
H16 C22 1_555 1_555
C23 S3 1_555 1_555
C24 C23 1_555 1_555
H17 C24 1_555 1_555
C25 C24 1_555 1_555
H18 C25 1_555 1_555
C26 N5 1_555 1_555
H19 C26 1_555 1_555
C27 C23 1_555 1_555
H20 C27 1_555 1_555
C28 C3 1_555 1_555
C29 C28 1_555 1_555
H21 C29 1_555 1_555
C30 C29 1_555 1_555
H22 C30 1_555 1_555
C31 C30 1_555 1_555
C32 C31 1_555 1_555
H23 C32 1_555 1_555
C33 C28 1_555 1_555
H24 C33 1_555 1_555
C34 C31 1_555 1_555
H25 C34 1_555 1_555
H26 C34 1_555 1_555
C35 S2 1_555 1_555
C36 C35 1_555 1_555
H27 C36 1_555 1_555
C37 C36 1_555 1_555
H28 C37 1_555 1_555
C38 N6 1_555 1_555
H29 C38 1_555 1_555
C39 C35 1_555 1_555
H30 C39 1_555 1_555
Cl1 O1 1_555 1_555
O2 Cl1 1_555 1_555
O3 Cl1 1_555 1_555
O4 Cl1 1_555 1_555
Cl2 O5 1_555 1_555
O6 Cl2 1_555 1_555
O7 Cl2 1_555 1_555
O8 Cl2 1_555 1_555
S4 O13 1_555 1_555
C40 S4 1_555 1_555
H31 C40 1_555 1_555
H32 C40 1_555 1_555
H33 C40 1_555 1_555
C41 S4 1_555 1_555
H34 C41 1_555 1_555
H35 C41 1_555 1_555
H36 C41 1_555 1_555
S5 O14 1_555 1_555
C42 S5 1_555 1_555
H37 C42 1_555 1_555
H38 C42 1_555 1_555
H39 C42 1_555 1_555
C43 S5 1_555 1_555
H40 C43 1_555 1_555
H41 C43 1_555 1_555
H42 C43 1_555 1_555
S6 O15 1_555 1_555
C44 S6 1_555 1_555
C45 S6 1_555 1_555
S7 O16 1_555 1_555
C46 S7 1_555 1_555
C47 S7 1_555 1_555
Ag1C N5 1_555 1_555
Ag1B N4B 1_555 1_555
Ag1A N5B 1_555 1_555
Ag2B Ag2 1_555 1_555
S1B C10B 1_555 1_555
S2B C34B 1_555 1_555
S3B C22B 1_555 1_555
N1B C1B 1_555 1_555
N2B C1B 1_555 1_555
N3B C2B 1_555 1_555
N4B C13B 1_555 1_555
N5C Ag1 1_555 1_555
N5B C25B 1_555 1_555
N5A Ag1B 1_555 1_555
N6B Ag2 1_555 1_555
C1B C4B 1_555 1_555
C2B N2B 1_555 1_555
C3B N1B 1_555 1_555
C4B C5B 1_555 1_555
C5B H1B 1_555 1_555
C6B C5B 1_555 1_555
H2B C6B 1_555 1_555
C7B C6B 1_555 1_555
C8B C7B 1_555 1_555
H3B C8B 1_555 1_555
C9B C4B 1_555 1_555
H4B C9B 1_555 1_555
C10B C7B 1_555 1_555
H5B C10B 1_555 1_555
H6B C10B 1_555 1_555
C11B S1B 1_555 1_555
C12B C11B 1_555 1_555
H7B C12B 1_555 1_555
C13B C12B 1_555 1_555
H8B C13B 1_555 1_555
C14B N4B 1_555 1_555
H9B C14B 1_555 1_555
C15B C11B 1_555 1_555
H10B C15B 1_555 1_555
C16B C2B 1_555 1_555
C17B C16B 1_555 1_555
H11B C17B 1_555 1_555
C18B C17B 1_555 1_555
H12B C18B 1_555 1_555
C19B C18B 1_555 1_555
C20B C19B 1_555 1_555
H13B C20B 1_555 1_555
C21B C16B 1_555 1_555
H14B C21B 1_555 1_555
C22B C19B 1_555 1_555
H15B C22B 1_555 1_555
H16B C22B 1_555 1_555
C23B S3B 1_555 1_555
C24B C23B 1_555 1_555
H17B C24B 1_555 1_555
C25B C24B 1_555 1_555
H18B C25B 1_555 1_555
C26B N5B 1_555 1_555
H19B C26B 1_555 1_555
C27B C23B 1_555 1_555
H20B C27B 1_555 1_555
C28B C3B 1_555 1_555
C29B C28B 1_555 1_555
H21B C29B 1_555 1_555
C30B C29B 1_555 1_555
H22B C30B 1_555 1_555
C31B C30B 1_555 1_555
C32B C31B 1_555 1_555
H23B C32B 1_555 1_555
C33B C28B 1_555 1_555
H24B C33B 1_555 1_555
C34B C31B 1_555 1_555
H25B C34B 1_555 1_555
H26B C34B 1_555 1_555
C35B S2B 1_555 1_555
C36B C35B 1_555 1_555
H27B C36B 1_555 1_555
C37B N6B 1_555 1_555
H28B C37B 1_555 1_555
C38B N6B 1_555 1_555
H29B C38B 1_555 1_555
C39B C35B 1_555 1_555
H30B C39B 1_555 1_555
N3 C3 1_555 1_555
N6 Ag2B 1_555 1_555
C8 C9 1_555 1_555
C14 C15 1_555 1_555
C20 C21 1_555 1_555
C26 C27 1_555 1_555
C32 C33 1_555 1_555
C38 C39 1_555 1_555
Ag2B N6B 1_555 1_555
N3B C3B 1_555 1_555
C8B C9B 1_555 1_555
C14B C15B 1_555 1_555
C20B C21B 1_555 1_555
C26B C27B 1_555 1_555
C32B C33B 1_555 1_555
C36B C37B 1_555 1_555
C38B C39B 1_555 1_555

#END
