
#######################################################################
#
#                 Cambridge Crystallographic Data Centre
#                                CCDC 
#
#######################################################################
#
# If this CIF has been generated from an entry in the Cambridge 
# Structural Database, then it will include bibliographic, chemical, 
# crystal, experimental, refinement or atomic coordinate data resulting 
# from the CCDC's data processing and validation procedures.
#
#######################################################################

data_VUHDAF
_symmetry_cell_setting           orthorhombic
_symmetry_space_group_name_H-M   'P 21 21 21'
_symmetry_Int_Tables_number      19
_space_group_name_Hall           'P 2ac 2ab'
loop_
_symmetry_equiv_pos_site_id
_symmetry_equiv_pos_as_xyz
1 x,y,z
2 1/2+x,1/2-y,-z
3 -x,1/2+y,1/2-z
4 1/2-x,-y,1/2+z
_cell_length_a                   7.6296(3)
_cell_length_b                   7.8839(3)
_cell_length_c                   18.1151(8)
_cell_angle_alpha                90
_cell_angle_beta                 90
_cell_angle_gamma                90
_cell_volume                     1089.64
loop_
_atom_site_label
_atom_site_type_symbol
_atom_site_fract_x
_atom_site_fract_y
_atom_site_fract_z
Pb1 Pb 0.45126(2) 0.27672(2) 0.873479(9)
S1 S 0.4556(2) 0.58450(16) 0.76287(7)
S2 S 0.6556(2) 0.30154(15) 1.01441(7)
N1 N 0.7368(7) 0.4339(6) 0.8168(2)
N2 N 0.7568(7) 0.5361(6) 0.6946(3)
N3 N 0.7376(7) -0.0152(6) 1.0499(2)
N4 N 0.6244(7) 0.0309(5) 0.9300(2)
C1 C 0.6693(7) 0.5123(6) 0.7578(3)
C2 C 0.9030(8) 0.3824(9) 0.8128(4)
H1 H 0.9537 0.3307 0.8537
C3 C 1.0002(8) 0.4030(10) 0.7509(4)
H2 H 1.1159 0.3663 0.7485
C4 C 0.9207(8) 0.4804(9) 0.6919(4)
H3 H 0.9841 0.4944 0.6485
C5 C 0.6754(7) 0.0875(6) 0.9967(3)
C6 C 0.7543(9) -0.1799(7) 1.0328(4)
H4 H 0.7965 -0.2539 1.0686
C7 C 0.7117(9) -0.2433(7) 0.9647(4)
H5 H 0.727 -0.3575 0.9534
C8 C 0.6458(10) -0.1319(7) 0.9139(3)
H6 H 0.6153 -0.1711 0.8672
Pb1A Pb 0.95126(2) 0.22328(2) 1.126521(9)
Pb1B Pb 0.54874(2) 0.77672(2) 0.626521(9)
S1B S 0.5444(2) 0.08450(16) 0.73713(7)
N2B N 0.2432(7) 0.0361(6) 0.8054(3)
N3A N 0.2376(7) 0.5152(6) 0.9501(2)
loop_
_geom_bond_atom_site_label_1
_geom_bond_atom_site_label_2
_geom_bond_site_symmetry_1
_geom_bond_site_symmetry_2
Pb1 S2 1_555 1_555
S1 C1 1_555 1_555
S2 C5 1_555 1_555
N1 Pb1 1_555 1_555
N2 C1 1_555 1_555
N3 C5 1_555 1_555
N4 Pb1 1_555 1_555
C1 N1 1_555 1_555
C2 N1 1_555 1_555
H1 C2 1_555 1_555
C3 C2 1_555 1_555
H2 C3 1_555 1_555
C4 N2 1_555 1_555
H3 C4 1_555 1_555
C5 N4 1_555 1_555
C6 N3 1_555 1_555
H4 C6 1_555 1_555
C7 C6 1_555 1_555
H5 C7 1_555 1_555
C8 N4 1_555 1_555
H6 C8 1_555 1_555
Pb1A N3 1_555 1_555
Pb1B S1 1_555 1_555
S1B Pb1 1_555 1_555
N2B Pb1 1_555 1_555
N3A Pb1 1_555 1_555
N2 Pb1B 1_555 1_555
C3 C4 1_555 1_555
C7 C8 1_555 1_555

#END
