
#######################################################################
#
#                 Cambridge Crystallographic Data Centre
#                                CCDC 
#
#######################################################################
#
# If this CIF has been generated from an entry in the Cambridge 
# Structural Database, then it will include bibliographic, chemical, 
# crystal, experimental, refinement or atomic coordinate data resulting 
# from the CCDC's data processing and validation procedures.
#
#######################################################################

data_VUHDEI
_symmetry_cell_setting           triclinic
_symmetry_space_group_name_H-M   'P -1'
_symmetry_Int_Tables_number      2
_space_group_name_Hall           '-P 1'
loop_
_symmetry_equiv_pos_site_id
_symmetry_equiv_pos_as_xyz
1 x,y,z
2 -x,-y,-z
_cell_length_a                   13.716(2)
_cell_length_b                   13.8647(19)
_cell_length_c                   16.472(2)
_cell_angle_alpha                78.644(4)
_cell_angle_beta                 88.534(5)
_cell_angle_gamma                78.516(4)
_cell_volume                     3009.34
loop_
_atom_site_label
_atom_site_type_symbol
_atom_site_fract_x
_atom_site_fract_y
_atom_site_fract_z
Pb1 Pb 0.37429(4) 0.92089(4) 0.05572(3)
Pb2 Pb 0.60512(4) 0.98957(4) 0.23420(3)
Pb3 Pb 0.35480(4) 0.80279(4) 0.34412(3)
Pb4 Pb 0.37886(4) 0.91766(4) 0.55033(3)
Nd1 Nd -0.04418(4) 0.47697(5) 0.17736(4)
I1 I 0.20546(7) 0.94080(9) 0.18335(6)
I2 I 0.44811(7) 1.12336(7) 0.08421(6)
I3 I 0.23030(8) 1.02831(8) -0.10026(6)
I4 I 0.53006(7) 0.78720(7) 0.20290(6)
I5 I 0.41655(7) 1.03495(6) 0.36223(5)
I6 I 0.31641(9) 0.59848(8) 0.34257(7)
I7 I 0.19334(7) 0.86145(9) 0.48128(7)
I8 I 0.50507(7) 0.72660(7) 0.49150(6)
I9 I 0.74412(8) 0.88434(8) 0.38681(7)
I10 I 0.64939(7) 1.19742(6) 0.26907(5)
O1 O 0.0951(6) 0.5040(6) 0.0896(5)
O2 O 0.0944(7) 0.5511(7) -0.0474(5)
O3 O -0.0969(7) 0.6463(7) 0.1000(6)
O4 O -0.2275(6) 0.5140(7) 0.1744(6)
O5 O -0.0662(8) 0.3043(7) 0.2085(6)
O6 O -0.1081(7) 0.4531(7) 0.3192(6)
O7 O 0.1057(7) 0.3788(8) 0.2516(6)
O8 O 0.0195(8) 0.5920(8) 0.2497(6)
N1 N 0.3175(8) 0.7540(8) 0.0416(6)
N2 N -0.0533(9) 0.7783(8) 0.0104(8)
N3 N -0.3757(9) 0.5513(8) 0.1073(8)
N4 N -0.2591(9) 0.4925(9) 0.3757(7)
N5 N -0.0309(9) 0.1447(8) 0.2863(7)
N6 N 0.2660(8) 0.3379(9) 0.2954(9)
N7 N 0.0303(10) 0.6586(10) 0.3623(8)
C1 C 0.2917(10) 0.7393(10) -0.0328(8)
H1 H 0.3152 0.7747 -0.0807
C2 C 0.2312(9) 0.6730(9) -0.0395(7)
H2 H 0.2150 0.6638 -0.0916
C3 C 0.1948(8) 0.6204(8) 0.0297(7)
C4 C 0.2227(10) 0.6335(9) 0.1051(7)
H3 H 0.2002 0.5985 0.1537
C5 C 0.2851(10) 0.6997(10) 0.1078(8)
H4 H 0.3055 0.7063 0.1595
C6 C 0.1215(8) 0.5525(8) 0.0237(7)
C7 C -0.0517(11) 0.7175(10) 0.0821(10)
H5 H -0.0131 0.7282 0.1238
C8 C 0.0016(12) 0.8578(12) -0.0064(11)
H6 H -0.0105 0.8927 -0.0628
H7 H 0.0713 0.8301 0.0020
H8 H -0.0195 0.9037 0.0302
C9 C -0.1141(16) 0.7661(13) -0.0567(10)
H9 H -0.1075 0.8155 -0.1052
H10 H -0.1825 0.7745 -0.0405
H11 H -0.0924 0.7002 -0.0686
C10 C -0.2843(10) 0.5594(10) 0.1176(9)
H12 H -0.2595 0.6048 0.0773
C11 C -0.4321(14) 0.6050(14) 0.0361(13)
H13 H -0.4973 0.5891 0.0392
H14 H -0.3996 0.5865 -0.0125
H15 H -0.4378 0.6757 0.0332
C12 C -0.4217(14) 0.4853(15) 0.1654(15)
H16 H -0.4884 0.4888 0.1472
H17 H -0.4231 0.5045 0.2184
H18 H -0.3847 0.4180 0.1700
C13 C -0.0697(16) 0.2201(17) 0.2352(14)
H19 H -0.1207 0.2038 0.2077
C14 C -0.0511(15) 0.0538(16) 0.3023(14)
H20 H -0.0083 0.0126 0.3464
H21 H -0.0404 0.0250 0.2537
H22 H -0.1192 0.0577 0.3187
C15 C 0.0361(15) 0.1609(16) 0.3419(13)
H23 H 0.0628 0.0987 0.3784
H24 H 0.0024 0.2083 0.3737
H25 H 0.0892 0.1869 0.3119
C16 C -0.1895(10) 0.4327(11) 0.3462(8)
H26 H -0.2005 0.3690 0.3447
C17 C -0.3515(12) 0.4655(16) 0.4040(11)
H27 H -0.3927 0.5205 0.4235
H28 H -0.3388 0.4079 0.4483
H29 H -0.3848 0.4498 0.3592
C18 C -0.2491(15) 0.5940(14) 0.3749(13)
H30 H -0.3067 0.6285 0.3992
H31 H -0.2431 0.6279 0.3188
H32 H -0.1908 0.5935 0.4061
C19 C 0.1985(10) 0.3692(11) 0.2372(10)
H33 H 0.2187 0.3853 0.1827
C20 C 0.2418(14) 0.3129(15) 0.3821(10)
H34 H 0.3020 0.2910 0.4147
H35 H 0.2046 0.2600 0.3902
H36 H 0.2026 0.3710 0.3989
C21 C 0.3706(10) 0.3299(13) 0.2737(12)
H37 H 0.4111 0.3054 0.3230
H38 H 0.3823 0.3947 0.2476
H39 H 0.3873 0.2842 0.2363
C22 C 0.0312(12) 0.5849(12) 0.3254(9)
H40 H 0.0414 0.5208 0.3581
C23 C 0.0481(15) 0.6423(16) 0.4518(13)
H41 H 0.0450 0.7057 0.4679
H42 H 0.1127 0.6010 0.4655
H43 H -0.0017 0.6094 0.4807
C24 C 0.0197(18) 0.7600(15) 0.3159(14)
H44 H 0.0209 0.8048 0.3533
H45 H -0.0423 0.7786 0.2857
H46 H 0.0736 0.7641 0.2778
Pb1A Pb 0.62571(4) 1.07911(4) -0.05572(3)
Pb2A Pb 0.39488(4) 1.01043(4) -0.23420(3)
Pb4A Pb 0.62114(4) 1.08234(4) 0.44967(3)
Nd1A Nd 0.04418(4) 0.52303(5) -0.17736(4)
I2A I 0.55189(7) 0.87664(7) -0.08421(6)
I3A I 0.76970(8) 0.97169(8) 0.10026(6)
I5A I 0.58345(7) 0.96505(6) 0.63777(5)
I9A I 0.25588(8) 1.11566(8) 0.61319(7)
I10A I 0.35061(7) 0.80258(6) 0.73093(5)
O2A O -0.0944(7) 0.4489(7) 0.0474(5)
loop_
_geom_bond_atom_site_label_1
_geom_bond_atom_site_label_2
_geom_bond_site_symmetry_1
_geom_bond_site_symmetry_2
Pb1 I1 1_555 1_555
Pb2 I2 1_555 1_555
Pb3 I1 1_555 1_555
Pb4 I5 1_555 1_555
Nd1 O1 1_555 1_555
I2 Pb1 1_555 1_555
I3 Pb1 1_555 1_555
I4 Pb1 1_555 1_555
I5 Pb2 1_555 1_555
I6 Pb3 1_555 1_555
I7 Pb3 1_555 1_555
I8 Pb3 1_555 1_555
I9 Pb2 1_555 1_555
I10 Pb2 1_555 1_555
O1 C6 1_555 1_555
O2 C6 1_555 1_555
O3 Nd1 1_555 1_555
O4 Nd1 1_555 1_555
O5 Nd1 1_555 1_555
O6 Nd1 1_555 1_555
O7 Nd1 1_555 1_555
O8 Nd1 1_555 1_555
N1 Pb1 1_555 1_555
N2 C7 1_555 1_555
N3 C10 1_555 1_555
N4 C16 1_555 1_555
N5 C13 1_555 1_555
N6 C19 1_555 1_555
N7 C22 1_555 1_555
C1 N1 1_555 1_555
H1 C1 1_555 1_555
C2 C1 1_555 1_555
H2 C2 1_555 1_555
C3 C2 1_555 1_555
C4 C3 1_555 1_555
H3 C4 1_555 1_555
C5 N1 1_555 1_555
H4 C5 1_555 1_555
C6 C3 1_555 1_555
C7 O3 1_555 1_555
H5 C7 1_555 1_555
C8 N2 1_555 1_555
H6 C8 1_555 1_555
H7 C8 1_555 1_555
H8 C8 1_555 1_555
C9 N2 1_555 1_555
H9 C9 1_555 1_555
H10 C9 1_555 1_555
H11 C9 1_555 1_555
C10 O4 1_555 1_555
H12 C10 1_555 1_555
C11 N3 1_555 1_555
H13 C11 1_555 1_555
H14 C11 1_555 1_555
H15 C11 1_555 1_555
C12 N3 1_555 1_555
H16 C12 1_555 1_555
H17 C12 1_555 1_555
H18 C12 1_555 1_555
C13 O5 1_555 1_555
H19 C13 1_555 1_555
C14 N5 1_555 1_555
H20 C14 1_555 1_555
H21 C14 1_555 1_555
H22 C14 1_555 1_555
C15 N5 1_555 1_555
H23 C15 1_555 1_555
H24 C15 1_555 1_555
H25 C15 1_555 1_555
C16 O6 1_555 1_555
H26 C16 1_555 1_555
C17 N4 1_555 1_555
H27 C17 1_555 1_555
H28 C17 1_555 1_555
H29 C17 1_555 1_555
C18 N4 1_555 1_555
H30 C18 1_555 1_555
H31 C18 1_555 1_555
H32 C18 1_555 1_555
C19 O7 1_555 1_555
H33 C19 1_555 1_555
C20 N6 1_555 1_555
H34 C20 1_555 1_555
H35 C20 1_555 1_555
H36 C20 1_555 1_555
C21 N6 1_555 1_555
H37 C21 1_555 1_555
H38 C21 1_555 1_555
H39 C21 1_555 1_555
C22 O8 1_555 1_555
H40 C22 1_555 1_555
C23 N7 1_555 1_555
H41 C23 1_555 1_555
H42 C23 1_555 1_555
H43 C23 1_555 1_555
C24 N7 1_555 1_555
H44 C24 1_555 1_555
H45 C24 1_555 1_555
H46 C24 1_555 1_555
Pb1A I2 1_555 1_555
Pb2A I3 1_555 1_555
Pb4A I5 1_555 1_555
Nd1A O2 1_555 1_555
I2A Pb1 1_555 1_555
I3A Pb2 1_555 1_555
I5A Pb4 1_555 1_555
I9A Pb4 1_555 1_555
I10A Pb4 1_555 1_555
O2A Nd1 1_555 1_555
Pb2 I4 1_555 1_555
Pb3 I4 1_555 1_555
Pb3 I5 1_555 1_555
Pb4 I7 1_555 1_555
Pb4 I8 1_555 1_555
I9 Pb4A 1_555 1_555
I10 Pb4A 1_555 1_555
C4 C5 1_555 1_555
Pb1A I2A 1_555 1_555
Pb1A I3A 1_555 1_555
Pb2A I2A 1_555 1_555
Pb4A I5A 1_555 1_555

#END
