
#######################################################################
#
#                 Cambridge Crystallographic Data Centre
#                                CCDC 
#
#######################################################################
#
# If this CIF has been generated from an entry in the Cambridge 
# Structural Database, then it will include bibliographic, chemical, 
# crystal, experimental, refinement or atomic coordinate data resulting 
# from the CCDC's data processing and validation procedures.
#
#######################################################################

data_VUHFAG
_symmetry_cell_setting           triclinic
_symmetry_space_group_name_H-M   'P -1'
_symmetry_Int_Tables_number      2
_space_group_name_Hall           '-P 1'
loop_
_symmetry_equiv_pos_site_id
_symmetry_equiv_pos_as_xyz
1 x,y,z
2 -x,-y,-z
_cell_length_a                   13.264(3)
_cell_length_b                   13.611(3)
_cell_length_c                   14.666(3)
_cell_angle_alpha                109.40(3)
_cell_angle_beta                 116.56(3)
_cell_angle_gamma                98.51(3)
_cell_volume                     2091.36
loop_
_atom_site_label
_atom_site_type_symbol
_atom_site_fract_x
_atom_site_fract_y
_atom_site_fract_z
Cu1 Cu 1.39649(18) 1.57177(17) 0.91465(18)
N1 N 1.7158(11) 1.7915(10) 1.1933(10)
N2 N 1.5466(12) 1.6823(11) 1.0268(11)
N3 N 2.0639(12) 2.3752(10) 1.6453(12)
N7 N 2.2394(12) 2.4666(11) 1.8032(12)
C1 C 1.6086(13) 1.7145(12) 1.1409(13)
H1 H 1.5796 1.6861 1.1775
C2 C 1.8070(15) 1.8443(14) 1.3146(14)
H2 H 1.8757 1.8213 1.3258
H3 H 1.7746 1.8189 1.3537
C3 C 2.0482(14) 2.3656(14) 1.7282(15)
H4 H 1.9771 2.3288 1.7193
C4 C 2.1606(15) 2.4224(15) 1.8285(14)
H5 H 2.1795 2.4295 1.9000
C5 C 1.9514(14) 2.0336(15) 1.3835(13)
H6 H 1.9983 1.9988 1.3628
C6 C 2.1778(17) 2.4372(14) 1.6948(15)
H7 H 2.2098 2.4573 1.6560
C7 C 1.7819(14) 2.0228(12) 1.4008(13)
H8 H 1.7123 1.9819 1.3915
C8 C 1.6216(16) 1.7449(14) 1.0109(14)
H9 H 1.6040 1.7420 0.9409
C9 C 1.8197(14) 2.1396(15) 1.4496(14)
H10 H 1.7736 2.1758 1.4703
C10 C 1.9872(15) 2.1485(12) 1.4301(13)
H11 H 2.0545 2.1884 1.4354
C11 C 1.9279(14) 2.2028(14) 1.4674(13)
C19 C 1.9677(15) 2.3272(13) 1.5249(14)
H18 H 1.9960 2.3570 1.4856
H19 H 1.8995 2.3487 1.5194
C20 C 1.7233(15) 1.8103(14) 1.1098(14)
H20 H 1.7884 1.8604 1.1208
C21 C 1.8482(13) 1.9692(12) 1.3669(12)
Cu1_2 Cu 2.39649(18) 2.57177(17) 1.91465(18)
N7_2 N 1.2394(12) 1.4666(11) 0.8032(12)
Cu2 Cu 1.5000 1.0000 0.5000
N4 N 1.6110(13) 1.0542(12) 0.8219(11)
N5 N 1.5415(11) 1.0451(11) 0.6507(11)
C15 C 1.5730(15) 1.0118(13) 0.9570(13)
C16 C 1.4533(16) 0.9908(16) 0.8925(14)
H15 H 1.4203 0.9831 0.8185
C17 C 1.5505(15) 1.1468(13) 0.7244(14)
H16 H 1.5311 1.2027 0.7048
C18 C 1.5780(13) 0.9898(12) 0.7141(12)
H17 H 1.5798 0.9183 0.6871
C25 C 1.5915(14) 1.1515(12) 0.8280(13)
H24 H 1.6042 1.2100 0.8920
C26 C 1.6563(16) 1.0235(15) 0.9145(14)
H25 H 1.6687 0.9535 0.8887
H26 H 1.7337 1.0795 0.9773
C27 C 1.6211(16) 1.0194(15) 1.0654(15)
H27 H 1.7025 1.0312 1.1097
Cu2_2 Cu 1.5000 1.0000 1.5000
N4A N 1.3890(13) 0.9458(12) 1.1781(11)
N5A N 1.4585(11) 0.9549(11) 1.3493(11)
N5A_2 N 1.4585(11) 0.9549(11) 0.3493(11)
C15A C 1.4270(15) 0.9882(13) 1.0430(13)
C16A C 1.5467(16) 1.0092(16) 1.1075(14)
H15A H 1.5797 1.0169 1.1815
C17A C 1.4495(15) 0.8532(13) 1.2756(14)
H16A H 1.4689 0.7973 1.2952
C18A C 1.4220(13) 1.0102(12) 1.2859(12)
H17A H 1.4202 1.0817 1.3129
C25A C 1.4085(14) 0.8485(12) 1.1720(13)
H24A H 1.3958 0.7900 1.1080
C26A C 1.3437(16) 0.9765(15) 1.0855(14)
H25A H 1.3313 1.0465 1.1113
H26A H 1.2663 0.9205 1.0227
C27A C 1.3789(16) 0.9806(15) 0.9346(15)
H27A H 1.2975 0.9688 0.8903
N6 N 0.9059(13) 0.2043(11) 0.9258(12)
N8 N 0.9184(16) 0.0459(14) 0.8362(17)
C12 C 0.9214(16) 0.3018(14) 1.0193(14)
H12 H 0.8461 0.2938 1.0167
H13 H 0.9816 0.3078 1.0919
C13 C 1.0820(16) 0.4638(15) 1.0667(16)
H14 H 1.1378 0.4409 1.1130
C14 C 0.9603(14) 0.4051(13) 1.0089(13)
C22 C 0.8620(18) 0.0828(18) 0.7567(17)
H21 H 0.8336 0.0470 0.6792
C23 C 0.9445(18) 0.1180(19) 0.933(2)
H22 H 0.9850 0.1122 1.0009
C24 C 0.8559(16) 0.1811(15) 0.8127(15)
H23 H 0.8233 0.2255 0.7802
C28 C 0.8790(14) 0.4429(13) 0.9446(15)
H28 H 0.7970 0.4054 0.9081
N6A N 1.0941(13) 0.7957(11) 1.0742(12)
N8A N 1.0816(16) 0.9541(14) 1.1638(17)
C12A C 1.0786(16) 0.6982(14) 0.9807(14)
H12A H 1.1539 0.7062 0.9833
H13A H 1.0184 0.6922 0.9081
C13A C 0.9180(16) 0.5362(15) 0.9333(16)
H14A H 0.8622 0.5591 0.8870
C14A C 1.0397(14) 0.5949(13) 0.9911(13)
C22A C 1.1380(18) 0.9172(18) 1.2433(17)
H21A H 1.1664 0.9530 1.3208
C23A C 1.0555(18) 0.8820(19) 1.067(2)
H22A H 1.0150 0.8878 0.9991
C24A C 1.1441(16) 0.8189(15) 1.1873(15)
H23A H 1.1767 0.7745 1.2198
C28A C 1.1210(14) 0.5571(13) 1.0554(15)
H28A H 1.2030 0.5946 1.0919
O1 O 1.0121(12) 0.8746(11) 0.8195(11)
O3 O 1.1873(14) 0.7543(14) -0.1718(15)
W1 W 0.55270(6) 0.47928(6) -0.24814(5)
W2 W 0.39774(6) 0.65546(5) -0.33264(5)
W3 W 0.81242(5) 0.56854(5) -0.39239(6)
W4 W 0.70965(6) 0.72770(5) -0.22876(5)
W5 W 0.64755(6) 0.31938(6) -0.41927(6)
W6 W 0.33695(6) 0.25377(5) -0.51992(6)
P1 P 0.5000 0.5000 -0.5000
O2 O 0.7754(14) 0.6731(11) -0.4508(11)
O4 O 0.8057(11) 0.8332(9) -0.1036(9)
O5 O 0.7192(10) 0.2346(9) -0.3814(9)
O6 O 0.9585(9) 0.6001(12) -0.3445(9)
O7 O 0.5639(10) 0.7450(11) -0.2495(11)
O8 O 0.8160(12) 0.6628(11) -0.2623(12)
O9 O 0.7010(13) 0.7912(11) -0.3275(12)
O10 O 0.6766(10) 0.6120(11) -0.1897(12)
O11 O 0.5799(10) 0.4685(9) -0.1300(10)
O12 O 0.2599(9) 0.1378(9) -0.5296(9)
O13 O 0.3759(11) 0.7177(11) -0.4370(11)
O14 O 0.3470(11) 0.7267(11) -0.2557(11)
O15 O 0.6191(16) 0.5879(15) -0.4253(15)
O16 O 0.2560(12) 0.5329(11) -0.4534(12)
O17 O 0.4868(15) 0.2290(14) -0.4881(15)
O18 O 0.5062(15) 0.4173(14) -0.4436(15)
O19 O 0.4132(15) 0.3469(14) -0.3611(14)
O20 O 0.7791(13) 0.4480(10) -0.3633(10)
O21 O 0.4451(11) 0.5616(10) -0.2653(10)
O22 O 0.6440(15) 0.4031(14) -0.2879(15)
O23 O 0.3998(15) 0.5410(14) -0.5010(15)
O24 O 0.5285(17) 0.5687(16) -0.3828(16)
W1A W 0.44730(6) 0.52072(6) -0.75186(5)
W2A W 0.60226(6) 0.34454(5) -0.66736(5)
W3A W 0.18758(5) 0.43146(5) -0.60761(6)
W4A W 0.29035(6) 0.27230(5) -0.77124(5)
W5A W 0.35245(6) 0.68062(6) -0.58073(6)
W6A W 0.66305(6) 0.74623(5) -0.48008(6)
O2A O 0.2246(14) 0.3269(11) -0.5492(11)
O4A O 0.1943(11) 0.1668(9) -0.8964(9)
O5A O 0.2808(10) 0.7654(9) -0.6186(9)
O6A O 0.0415(9) 0.3999(12) -0.6555(9)
O7A O 0.4361(10) 0.2550(11) -0.7505(11)
O8A O 0.1840(12) 0.3372(11) -0.7377(12)
O9A O 0.2990(13) 0.2088(11) -0.6725(12)
O10A O 0.3234(10) 0.3880(11) -0.8103(12)
O11A O 0.4201(10) 0.5315(9) -0.8700(10)
O12A O 0.7401(9) 0.8622(9) -0.4704(9)
O13A O 0.6241(11) 0.2823(11) -0.5630(11)
O14A O 0.6530(11) 0.2733(11) -0.7443(11)
O15A O 0.3809(16) 0.4121(15) -0.5747(15)
O16A O 0.7440(12) 0.4671(11) -0.5466(12)
O17A O 0.5132(15) 0.7710(14) -0.5119(15)
O18A O 0.4938(15) 0.5827(14) -0.5564(15)
O19A O 0.5868(15) 0.6531(14) -0.6389(14)
O20A O 0.2209(13) 0.5520(10) -0.6367(10)
O21A O 0.5549(11) 0.4384(10) -0.7347(10)
O22A O 0.3560(15) 0.5969(14) -0.7121(15)
O23A O 0.6002(15) 0.4590(14) -0.4990(15)
O24A O 0.4715(17) 0.4313(16) -0.6172(16)
loop_
_geom_bond_atom_site_label_1
_geom_bond_atom_site_label_2
_geom_bond_site_symmetry_1
_geom_bond_site_symmetry_2
W1 O10 1_555 1_555
W2 O7 1_555 1_555
W3 O2 1_555 1_555
W4 O4 1_555 1_555
W5 O5 1_555 1_555
W6 O12 1_555 1_555
P1 O15 1_555 1_555
Cu1 N2 1_555 1_555
Cu2 N5 1_555 1_555
N1 C1 1_555 1_555
N2 C1 1_555 1_555
N3 C3 1_555 1_555
N4 C18 1_555 1_555
N5 C17 1_555 1_555
N6 C12 1_555 1_555
N7 C4 1_555 1_555
N8 C22 1_555 1_555
C1 H1 1_555 1_555
C2 N1 1_555 1_555
H2 C2 1_555 1_555
H3 C2 1_555 1_555
C3 H4 1_555 1_555
C4 C3 1_555 1_555
H5 C4 1_555 1_555
C5 H6 1_555 1_555
C6 N3 1_555 1_555
H7 C6 1_555 1_555
C7 H8 1_555 1_555
C8 N2 1_555 1_555
H9 C8 1_555 1_555
C9 C7 1_555 1_555
H10 C9 1_555 1_555
C10 C5 1_555 1_555
H11 C10 1_555 1_555
C11 C9 1_555 1_555
C12 H12 1_555 1_555
H13 C12 1_555 1_555
C13 H14 1_555 1_555
C14 C12 1_555 1_555
C15 C16 1_555 1_555
C16 H15 1_555 1_555
C17 H16 1_555 1_555
C18 N5 1_555 1_555
H17 C18 1_555 1_555
C19 N3 1_555 1_555
H18 C19 1_555 1_555
H19 C19 1_555 1_555
C20 N1 1_555 1_555
H20 C20 1_555 1_555
C21 C2 1_555 1_555
C22 H21 1_555 1_555
C23 N6 1_555 1_555
H22 C23 1_555 1_555
C24 N6 1_555 1_555
H23 C24 1_555 1_555
C25 N4 1_555 1_555
H24 C25 1_555 1_555
C26 N4 1_555 1_555
H25 C26 1_555 1_555
H26 C26 1_555 1_555
C27 C15 1_555 1_555
H27 C27 1_555 1_555
C28 C14 1_555 1_555
H28 C28 1_555 1_555
O2 W6A 1_555 1_555
O6 W3 1_555 1_555
O7 W4 1_555 1_555
O8 W3 1_555 1_555
O9 W4 1_555 1_555
O10 W4 1_555 1_555
O11 W1 1_555 1_555
O13 W2 1_555 1_555
O14 W2 1_555 1_555
O15 W3 1_555 1_555
O16 W2 1_555 1_555
O17 W5 1_555 1_555
O18 W1 1_555 1_555
O19 W1 1_555 1_555
O20 W3 1_555 1_555
O21 W1 1_555 1_555
O22 W1 1_555 1_555
O23 W2 1_555 1_555
O24 W2 1_555 1_555
W1A O10A 1_555 1_555
W2A O7A 1_555 1_555
W3A O16 1_555 1_555
W4A O4A 1_555 1_555
W5A O13 1_555 1_555
W6A O9 1_555 1_555
Cu1_2 N7 1_555 1_555
Cu2_2 N5A 1_555 1_555
N4A C18A 1_555 1_555
N5A C17A 1_555 1_555
N5A_2 Cu2 1_555 1_555
N6A C12A 1_555 1_555
N7_2 Cu1 1_555 1_555
N8A C22A 1_555 1_555
C12A H12A 1_555 1_555
H13A C12A 1_555 1_555
C13A C28 1_555 1_555
H14A C13A 1_555 1_555
C14A C12A 1_555 1_555
C15A C16A 1_555 1_555
C16A C27 1_555 1_555
H15A C16A 1_555 1_555
C17A H16A 1_555 1_555
C18A N5A 1_555 1_555
H17A C18A 1_555 1_555
C22A H21A 1_555 1_555
C23A N6A 1_555 1_555
H22A C23A 1_555 1_555
C24A N6A 1_555 1_555
H23A C24A 1_555 1_555
C25A N4A 1_555 1_555
H24A C25A 1_555 1_555
C26A N4A 1_555 1_555
H25A C26A 1_555 1_555
H26A C26A 1_555 1_555
C27A C16 1_555 1_555
H27A C27A 1_555 1_555
C28A C13 1_555 1_555
H28A C28A 1_555 1_555
O2A W6 1_555 1_555
O5A W5A 1_555 1_555
O6A W3A 1_555 1_555
O7A W4A 1_555 1_555
O8A W3A 1_555 1_555
O9A W6 1_555 1_555
O10A W4A 1_555 1_555
O11A W1A 1_555 1_555
O12A W6A 1_555 1_555
O13A W5 1_555 1_555
O14A W2A 1_555 1_555
O15A P1 1_555 1_555
O16A W3 1_555 1_555
O17A W5A 1_555 1_555
O18A P1 1_555 1_555
O19A W1A 1_555 1_555
O20A W3A 1_555 1_555
O21A W1A 1_555 1_555
O22A W1A 1_555 1_555
O23A W3 1_555 1_555
O24A P1 1_555 1_555
W2 O21 1_555 1_555
W4 O8 1_555 1_555
W4 O15 1_555 1_555
W4 O24 1_555 1_555
W5 O18 1_555 1_555
W5 O20 1_555 1_555
W5 O22 1_555 1_555
W6 O17 1_555 1_555
W6 O18 1_555 1_555
W6 O19 1_555 1_555
P1 O18 1_555 1_555
P1 O23 1_555 1_555
P1 O24 1_555 1_555
P1 O23A 1_555 1_555
N7 C6 1_555 1_555
N8 C23 1_555 1_555
C5 C21 1_555 1_555
C7 C21 1_555 1_555
C8 C20 1_555 1_555
C10 C11 1_555 1_555
C11 C19 1_555 1_555
C13 C14 1_555 1_555
C15 C26 1_555 1_555
C17 C25 1_555 1_555
C22 C24 1_555 1_555
O15 O24 1_555 1_555
O15 O23A 1_555 1_555
O23 O24 1_555 1_555
O23 W3A 1_555 1_555
O23 O15A 1_555 1_555
W1A O18A 1_555 1_555
W2A O13A 1_555 1_555
W2A O16A 1_555 1_555
W2A O21A 1_555 1_555
W2A O23A 1_555 1_555
W2A O24A 1_555 1_555
W3A O2A 1_555 1_555
W3A O15A 1_555 1_555
W4A O8A 1_555 1_555
W4A O9A 1_555 1_555
W4A O15A 1_555 1_555
W4A O24A 1_555 1_555
W5A O18A 1_555 1_555
W5A O20A 1_555 1_555
W5A O22A 1_555 1_555
W6A O17A 1_555 1_555
W6A O18A 1_555 1_555
W6A O19A 1_555 1_555
N8A C23A 1_555 1_555
C13A C14A 1_555 1_555
C14A C28A 1_555 1_555
C15A C26A 1_555 1_555
C15A C27A 1_555 1_555
C17A C25A 1_555 1_555
C22A C24A 1_555 1_555
O15A O24A 1_555 1_555
O23A O24A 1_555 1_555

#END
