
#######################################################################
#
#                 Cambridge Crystallographic Data Centre
#                                CCDC 
#
#######################################################################
#
# If this CIF has been generated from an entry in the Cambridge 
# Structural Database, then it will include bibliographic, chemical, 
# crystal, experimental, refinement or atomic coordinate data resulting 
# from the CCDC's data processing and validation procedures.
#
#######################################################################

data_VUHFEK
_symmetry_cell_setting           triclinic
_symmetry_space_group_name_H-M   'P -1'
_symmetry_Int_Tables_number      2
_space_group_name_Hall           '-P 1'
loop_
_symmetry_equiv_pos_site_id
_symmetry_equiv_pos_as_xyz
1 x,y,z
2 -x,-y,-z
_cell_length_a                   11.0336(15)
_cell_length_b                   12.6711(17)
_cell_length_c                   13.1776(18)
_cell_angle_alpha                104.684(2)
_cell_angle_beta                 97.188(2)
_cell_angle_gamma                100.502(2)
_cell_volume                     1723.64
loop_
_atom_site_label
_atom_site_type_symbol
_atom_site_fract_x
_atom_site_fract_y
_atom_site_fract_z
Cu1 Cu -0.73088(12) 0.75436(10) 0.12107(9)
N1 N -0.7417(6) 1.0051(6) -0.0125(5)
N2 N -0.7455(6) 0.5512(5) 0.3104(5)
N3 N -0.0867(7) 1.4625(6) 0.1039(6)
N4 N -0.7347(6) 0.6430(5) 0.1896(5)
N5 N -0.2326(6) 1.4494(5) 0.2004(5)
N6 N -0.7183(7) 0.8593(6) 0.0429(6)
C1 C -0.1696(9) 1.3676(7) 0.2076(7)
H1 H -0.1849 1.3160 0.2461
C2 C -0.6592(8) 0.9546(7) -0.0680(6)
H2 H -0.6205 0.9778 -0.1199
C3 C -0.7382(8) 0.4758(8) 0.2175(7)
H3 H -0.7377 0.4005 0.2066
C4 C -0.7319(9) 0.5342(8) 0.1455(7)
H4 H -0.7263 0.5042 0.0746
C5 C -0.7426(8) 0.6493(6) 0.2911(6)
H5 H -0.7456 0.7144 0.3419
C6 C -0.3476(8) 1.4637(7) 0.2438(7)
H6 H -0.3369 1.4581 0.3163
H7 H -0.3610 1.5377 0.2459
C7 C -0.5186(8) 1.2975(7) 0.2210(6)
H8 H -0.4903 1.3000 0.2913
C8 C -0.1827(9) 1.5050(7) 0.1377(7)
H9 H -0.2097 1.5644 0.1197
C9 C -0.6454(9) 0.8678(7) -0.0339(7)
H10 H -0.5944 0.8195 -0.0578
C10 C -0.7692(8) 1.1132(7) -0.0128(7)
H11 H -0.7821 1.1185 -0.0854
H12 H -0.8457 1.1198 0.0149
C11 C -0.5036(8) 1.3734(7) 0.0721(7)
H13 H -0.4652 1.4271 0.0425
C12 C -0.7754(9) 0.9432(7) 0.0527(7)
H14 H -0.8316 0.9577 0.0987
C13 C -0.6191(8) 1.2133(7) 0.1603(6)
H15 H -0.6578 1.1602 0.1904
C14 C -0.7453(8) 0.5272(8) 0.4137(7)
H16 H -0.7682 0.5878 0.4634
H17 H -0.8074 0.4591 0.4049
C15 C -0.6048(8) 1.2884(7) 0.0113(6)
H18 H -0.6336 1.2858 -0.0589
C16 C -0.0802(9) 1.3774(8) 0.1470(8)
H19 H -0.0228 1.3321 0.1366
C17 C -0.6040(8) 0.4100(7) 0.4744(6)
H20 H -0.6730 0.3502 0.4573
C18 C -0.6173(8) 0.5134(7) 0.4592(6)
C19 C -0.5136(8) 0.6015(7) 0.4847(6)
H21 H -0.5228 0.6697 0.4743
C20 C -0.6629(7) 1.2076(6) 0.0546(6)
C21 C -0.4600(8) 1.3777(6) 0.1781(6)
Cu2 Cu 0.0000 1.5000 0.0000
Cu1A Cu 0.73088(12) 2.24564(10) -0.12107(9)
Cu1A_2 Cu -0.26912(12) 0.24564(10) 0.87893(9)
N1A N 0.7417(6) 1.9949(6) 0.0125(5)
N2A N -0.2545(6) 0.4488(5) 0.6896(5)
N3A N 0.0867(7) 1.5375(6) -0.1039(6)
N4A N -0.2653(6) 0.3570(5) 0.8104(5)
N4A_2 N 0.7347(6) 2.3570(5) -0.1896(5)
N5A N 0.2326(6) 1.5506(5) -0.2004(5)
N6A N 0.7183(7) 2.1407(6) -0.0429(6)
C1A C 0.1696(9) 1.6324(7) -0.2076(7)
H1A H 0.1849 1.6840 -0.2461
C2A C 0.6592(8) 2.0454(7) 0.0680(6)
H2A H 0.6205 2.0222 0.1199
C3A C -0.2618(8) 0.5242(8) 0.7825(7)
H3A H -0.2623 0.5995 0.7934
C4A C -0.2681(9) 0.4658(8) 0.8545(7)
H4A H -0.2737 0.4958 0.9254
C5A C -0.2574(8) 0.3507(6) 0.7089(6)
H5A H -0.2544 0.2856 0.6581
C6A C 0.3476(8) 1.5363(7) -0.2438(7)
H6A H 0.3369 1.5419 -0.3163
H7A H 0.3610 1.4623 -0.2459
C7A C 0.5186(8) 1.7025(7) -0.2210(6)
H8A H 0.4903 1.7000 -0.2913
C8A C 0.1827(9) 1.4950(7) -0.1377(7)
H9A H 0.2097 1.4356 -0.1197
C9A C 0.6454(9) 2.1322(7) 0.0339(7)
H10A H 0.5944 2.1805 0.0578
C10A C 0.7692(8) 1.8868(7) 0.0128(7)
H11A H 0.7821 1.8815 0.0854
H12A H 0.8457 1.8802 -0.0149
C11A C 0.5036(8) 1.6266(7) -0.0721(7)
H13A H 0.4652 1.5729 -0.0425
C12A C 0.7754(9) 2.0568(7) -0.0527(7)
H14A H 0.8316 2.0423 -0.0987
C13A C 0.6191(8) 1.7867(7) -0.1603(6)
H15A H 0.6578 1.8398 -0.1904
C14A C -0.2547(8) 0.4728(8) 0.5863(7)
H16A H -0.2318 0.4122 0.5366
H17A H -0.1926 0.5409 0.5951
C15A C 0.6048(8) 1.7116(7) -0.0113(6)
H18A H 0.6336 1.7142 0.0589
C16A C 0.0802(9) 1.6226(8) -0.1470(8)
H19A H 0.0228 1.6679 -0.1366
C17A C -0.3960(8) 0.5900(7) 0.5256(6)
H20A H -0.3270 0.6498 0.5427
C18A C -0.3827(8) 0.4866(7) 0.5408(6)
C19A C -0.4864(8) 0.3985(7) 0.5153(6)
H21A H -0.4772 0.3303 0.5257
C20A C 0.6629(7) 1.7924(6) -0.0546(6)
C21A C 0.4600(8) 1.6223(6) -0.1781(6)
P1 P 0.0000 0.0000 0.5000
Mo1 Mo 0.00375(6) 0.17322(5) 0.75887(5)
Mo2 Mo -0.28718(6) -0.17691(5) 0.34496(5)
Mo3 Mo -0.04313(6) -0.12271(5) 0.71140(5)
Mo4 Mo 0.04763(6) 0.29528(5) 0.54739(6)
Mo5 Mo -0.28392(6) -0.00578(6) 0.60582(5)
Mo6 Mo -0.23938(6) 0.11764(6) 0.39499(6)
O1 O -0.3005(8) -0.0360(5) 0.3223(5)
O2 O -0.2080(5) -0.1003(4) 0.6697(5)
O3 O 0.0029(6) 0.2762(7) 0.6792(6)
O4 O -0.1442(8) -0.0119(7) 0.4762(7)
O5 O 0.1764(6) 0.1865(7) 0.7568(6)
O6 O -0.2967(8) 0.0921(5) 0.5169(5)
O7 O -0.1240(5) 0.2467(6) 0.4877(5)
O8 O -0.4138(6) -0.0060(6) 0.6558(6)
O9 O -0.3359(8) -0.1270(5) 0.4779(5)
O10 O 0.0019(5) 0.0299(4) 0.7848(5)
O11 O -0.2103(6) -0.2791(7) 0.3976(6)
O12 O 0.1263(5) -0.1224(6) 0.7031(5)
O13 O 0.0237(8) -0.0953(7) 0.5516(6)
O14 O -0.3450(6) 0.1778(5) 0.3466(5)
O15 O 0.0575(8) 0.1134(7) 0.5860(7)
O16 O -0.0669(6) -0.1787(5) 0.8100(5)
O17 O -0.4183(5) -0.2598(5) 0.2705(4)
O18 O 0.0548(8) -0.0075(7) 0.4035(7)
O19 O 0.0065(6) 0.2515(5) 0.8817(4)
O20 O -0.1708(5) 0.1189(4) 0.7092(5)
O21 O 0.0712(6) 0.4316(4) 0.5715(4)
O22 O -0.0851(7) -0.2517(6) 0.5914(5)
Mo1A Mo -0.00375(6) -0.17322(5) 0.24113(5)
Mo2A Mo 0.28718(6) 0.17691(5) 0.65504(5)
Mo3A Mo 0.04313(6) 0.12271(5) 0.28860(5)
Mo4A Mo -0.04763(6) -0.29528(5) 0.45261(6)
Mo5A Mo 0.28392(6) 0.00578(6) 0.39418(5)
Mo6A Mo 0.23938(6) -0.11764(6) 0.60501(6)
O1A O 0.3005(8) 0.0360(5) 0.6777(5)
O2A O 0.2080(5) 0.1003(4) 0.3303(5)
O3A O -0.0029(6) -0.2762(7) 0.3208(6)
O4A O 0.1442(8) 0.0119(7) 0.5238(7)
O5A O -0.1764(6) -0.1865(7) 0.2432(6)
O6A O 0.2967(8) -0.0921(5) 0.4831(5)
O7A O 0.1240(5) -0.2467(6) 0.5123(5)
O8A O 0.4138(6) 0.0060(6) 0.3442(6)
O9A O 0.3359(8) 0.1270(5) 0.5221(5)
O10A O -0.0019(5) -0.0299(4) 0.2152(5)
O11A O 0.2103(6) 0.2791(7) 0.6024(6)
O12A O -0.1263(5) 0.1224(6) 0.2969(5)
O13A O -0.0237(8) 0.0953(7) 0.4484(6)
O14A O 0.3450(6) -0.1778(5) 0.6534(5)
O15A O -0.0575(8) -0.1134(7) 0.4140(7)
O16A O 0.0669(6) 0.1787(5) 0.1900(5)
O17A O 0.4183(5) 0.2598(5) 0.7295(4)
O18A O -0.0548(8) 0.0075(7) 0.5965(7)
O19A O -0.0065(6) -0.2515(5) 0.1183(4)
O20A O 0.1708(5) -0.1189(4) 0.2908(5)
O21A O -0.0712(6) -0.4316(4) 0.4285(4)
O22A O 0.0851(7) 0.2517(6) 0.4086(5)
loop_
_geom_bond_atom_site_label_1
_geom_bond_atom_site_label_2
_geom_bond_site_symmetry_1
_geom_bond_site_symmetry_2
P1 O4 1_555 1_555
Mo1 O3 1_555 1_555
Mo2 O1 1_555 1_555
Mo3 O2 1_555 1_555
Mo4 O3 1_555 1_555
Mo5 O2 1_555 1_555
Mo6 O1 1_555 1_555
Cu1 N4 1_555 1_555
N1 C2 1_555 1_555
N2 C3 1_555 1_555
N3 C8 1_555 1_555
N4 C4 1_555 1_555
N5 C1 1_555 1_555
N6 Cu1 1_555 1_555
C1 H1 1_555 1_555
C2 H2 1_555 1_555
C3 H3 1_555 1_555
C4 C3 1_555 1_555
H4 C4 1_555 1_555
C5 N2 1_555 1_555
H5 C5 1_555 1_555
C6 N5 1_555 1_555
H6 C6 1_555 1_555
H7 C6 1_555 1_555
C7 H8 1_555 1_555
C8 N5 1_555 1_555
H9 C8 1_555 1_555
C9 N6 1_555 1_555
H10 C9 1_555 1_555
C10 N1 1_555 1_555
H11 C10 1_555 1_555
H12 C10 1_555 1_555
C11 H13 1_555 1_555
C12 N1 1_555 1_555
H14 C12 1_555 1_555
C13 C7 1_555 1_555
H15 C13 1_555 1_555
C14 N2 1_555 1_555
H16 C14 1_555 1_555
H17 C14 1_555 1_555
C15 C11 1_555 1_555
H18 C15 1_555 1_555
C16 N3 1_555 1_555
H19 C16 1_555 1_555
C17 H20 1_555 1_555
C18 C14 1_555 1_555
C19 C18 1_555 1_555
H21 C19 1_555 1_555
C20 C10 1_555 1_555
C21 C6 1_555 1_555
Cu2 N3 1_555 1_555
O4 Mo2 1_555 1_555
O5 Mo1 1_555 1_555
O6 Mo5 1_555 1_555
O7 Mo4 1_555 1_555
O8 Mo5 1_555 1_555
O9 Mo2 1_555 1_555
O10 Mo1 1_555 1_555
O11 Mo2 1_555 1_555
O12 Mo3 1_555 1_555
O13 P1 1_555 1_555
O14 Mo6 1_555 1_555
O15 P1 1_555 1_555
O16 Mo3 1_555 1_555
O17 Mo2 1_555 1_555
O18 P1 1_555 1_555
O19 Mo1 1_555 1_555
O20 Mo1 1_555 1_555
O21 Mo4 1_555 1_555
O22 Mo3 1_555 1_555
Mo1A O18 1_555 1_555
Mo2A O5 1_555 1_555
Mo3A O18 1_555 1_555
Mo4A O11 1_555 1_555
Mo5A O18 1_555 1_555
Mo6A O12 1_555 1_555
Cu1A N4A_2 1_555 1_555
Cu1A_2 N4A 1_555 1_555
N1A C2A 1_555 1_555
N2A C3A 1_555 1_555
N3A Cu2 1_555 1_555
N4A C4A 1_555 1_555
N5A C1A 1_555 1_555
N6A Cu1A 1_555 1_555
C1A H1A 1_555 1_555
C2A H2A 1_555 1_555
C3A H3A 1_555 1_555
C4A C3A 1_555 1_555
H4A C4A 1_555 1_555
C5A N2A 1_555 1_555
H5A C5A 1_555 1_555
C6A N5A 1_555 1_555
H6A C6A 1_555 1_555
H7A C6A 1_555 1_555
C7A H8A 1_555 1_555
C8A N3A 1_555 1_555
H9A C8A 1_555 1_555
C9A N6A 1_555 1_555
H10A C9A 1_555 1_555
C10A N1A 1_555 1_555
H11A C10A 1_555 1_555
H12A C10A 1_555 1_555
C11A H13A 1_555 1_555
C12A N1A 1_555 1_555
H14A C12A 1_555 1_555
C13A C7A 1_555 1_555
H15A C13A 1_555 1_555
C14A N2A 1_555 1_555
H16A C14A 1_555 1_555
H17A C14A 1_555 1_555
C15A C11A 1_555 1_555
H18A C15A 1_555 1_555
C16A N3A 1_555 1_555
H19A C16A 1_555 1_555
C17A C19 1_555 1_555
H20A C17A 1_555 1_555
C18A C14A 1_555 1_555
C19A C17 1_555 1_555
H21A C19A 1_555 1_555
C20A C10A 1_555 1_555
C21A C6A 1_555 1_555
O1A Mo2A 1_555 1_555
O2A Mo3A 1_555 1_555
O3A Mo1A 1_555 1_555
O4A P1 1_555 1_555
O5A Mo2 1_555 1_555
O6A Mo5A 1_555 1_555
O7A Mo4A 1_555 1_555
O8A Mo5A 1_555 1_555
O9A Mo2A 1_555 1_555
O10A Mo1A 1_555 1_555
O11A Mo4 1_555 1_555
O12A Mo6 1_555 1_555
O13A P1 1_555 1_555
O14A Mo6A 1_555 1_555
O15A P1 1_555 1_555
O16A Mo3A 1_555 1_555
O17A Mo2A 1_555 1_555
O18A P1 1_555 1_555
O19A Mo1A 1_555 1_555
O20A Mo1A 1_555 1_555
O21A Mo4A 1_555 1_555
O22A Mo4 1_555 1_555
Mo1 O15 1_555 1_555
Mo1 O18A 1_555 1_555
Mo2 O15A 1_555 1_555
Mo3 O10 1_555 1_555
Mo3 O13 1_555 1_555
Mo3 O18A 1_555 1_555
Mo4 O15 1_555 1_555
Mo4 O13A 1_555 1_555
Mo5 O4 1_555 1_555
Mo5 O9 1_555 1_555
Mo5 O20 1_555 1_555
Mo5 O18A 1_555 1_555
Mo6 O4 1_555 1_555
Mo6 O6 1_555 1_555
Mo6 O7 1_555 1_555
Mo6 O13A 1_555 1_555
N4 C5 1_555 1_555
N6 C12 1_555 1_555
C1 C16 1_555 1_555
C2 C9 1_555 1_555
C7 C21 1_555 1_555
C11 C21 1_555 1_555
C13 C20 1_555 1_555
C15 C20 1_555 1_555
C17 C18 1_555 1_555
O4 O18A 1_555 1_555
O13 Mo4A 1_555 1_555
O13 Mo6A 1_555 1_555
O13 O18A 1_555 1_555
O15 Mo2A 1_555 1_555
O15 O18A 1_555 1_555
O18 O4A 1_555 1_555
O18 O13A 1_555 1_555
O18 O15A 1_555 1_555
O22 Mo4A 1_555 1_555
Mo1A O5A 1_555 1_555
Mo1A O15A 1_555 1_555
Mo2A O4A 1_555 1_555
Mo2A O11A 1_555 1_555
Mo3A O10A 1_555 1_555
Mo3A O12A 1_555 1_555
Mo3A O13A 1_555 1_555
Mo3A O22A 1_555 1_555
Mo4A O3A 1_555 1_555
Mo4A O15A 1_555 1_555
Mo5A O2A 1_555 1_555
Mo5A O4A 1_555 1_555
Mo5A O9A 1_555 1_555
Mo5A O20A 1_555 1_555
Mo6A O1A 1_555 1_555
Mo6A O4A 1_555 1_555
Mo6A O6A 1_555 1_555
Mo6A O7A 1_555 1_555
N4A C5A 1_555 1_555
N5A C8A 1_555 1_555
N6A C12A 1_555 1_555
C1A C16A 1_555 1_555
C2A C9A 1_555 1_555
C7A C21A 1_555 1_555
C11A C21A 1_555 1_555
C13A C20A 1_555 1_555
C15A C20A 1_555 1_555
C17A C18A 1_555 1_555
C18A C19A 1_555 1_555

#END
