
#######################################################################
#
#                 Cambridge Crystallographic Data Centre
#                                CCDC 
#
#######################################################################
#
# If this CIF has been generated from an entry in the Cambridge 
# Structural Database, then it will include bibliographic, chemical, 
# crystal, experimental, refinement or atomic coordinate data resulting 
# from the CCDC's data processing and validation procedures.
#
#######################################################################

data_VUHGAH
_symmetry_cell_setting           monoclinic
_symmetry_space_group_name_H-M   'C 2'
_symmetry_Int_Tables_number      5
_space_group_name_Hall           'C 2y'
loop_
_symmetry_equiv_pos_site_id
_symmetry_equiv_pos_as_xyz
1 x,y,z
2 -x,y,-z
3 1/2+x,1/2+y,z
4 1/2-x,1/2+y,-z
_cell_length_a                   19.485(9)
_cell_length_b                   7.084(3)
_cell_length_c                   12.134(7)
_cell_angle_alpha                90
_cell_angle_beta                 103.33(2)
_cell_angle_gamma                90
_cell_volume                     1629.75
loop_
_atom_site_label
_atom_site_type_symbol
_atom_site_fract_x
_atom_site_fract_y
_atom_site_fract_z
Co1 Co -0.283830(19) -0.14335(6) -0.13723(3)
O1 O -0.31221(11) -0.1648(4) -0.98236(16)
O2 O -0.26042(13) 0.0853(4) -0.8851(2)
O3 O -0.18275(13) -0.0502(4) -0.0498(2)
H1 H -0.175(2) 0.062(4) -0.028(4)
H2 H -0.1481(15) -0.092(6) -0.067(3)
O4 O -0.32570(14) 0.1451(4) -0.1519(2)
H3 H -0.324(2) 0.185(6) -0.087(2)
H4 H -0.3650(14) 0.175(7) -0.184(4)
N1 N -0.27988(12) -0.1452(5) -0.48383(19)
N2 N -0.25927(13) -0.1215(5) -0.2969(2)
N3 N -0.49964(15) -0.2898(4) -0.7487(2)
N4 N -0.61536(14) -0.2608(4) -0.7961(2)
C1 C -0.31913(15) -0.1583(6) -0.5988(2)
C2 C -0.38813(18) -0.2271(5) -0.6191(3)
H5 H -0.4076 -0.2680 -0.5583
C3 C -0.42759(17) -0.2343(5) -0.7298(3)
C4 C -0.39849(16) -0.1840(5) -0.8200(2)
H6 H -0.4254 -0.1950 -0.8957
C5 C -0.32931(15) -0.1173(5) -0.7981(2)
C6 C -0.28993(16) -0.1009(5) -0.6870(2)
H7 H -0.2435 -0.0508 -0.6719
C7 C -0.30865(16) -0.1174(6) -0.3929(2)
H8 H -0.3575 -0.0977 -0.3975
C8 C -0.19627(15) -0.1488(6) -0.3285(2)
H9 H -0.1513 -0.1562 -0.2775
C9 C -0.20768(16) -0.1636(6) -0.4427(2)
H10 H -0.1732 -0.1826 -0.4857
C10 C -0.55508(16) -0.1896(5) -0.8072(3)
H11 H -0.5510 -0.0809 -0.8511
C11 C -0.59753(18) -0.4174(6) -0.7272(3)
H12 H -0.6303 -0.4999 -0.7047
C12 C -0.52657(19) -0.4357(6) -0.6967(3)
H13 H -0.5006 -0.5301 -0.6491
C13 C -0.29796(15) -0.0582(5) -0.8950(2)
Co1A Co -0.716170(19) -0.14335(6) -0.86277(3)
Co1_2 Co -0.283830(19) -0.14335(6) -1.13723(3)
Co1C Co -0.216170(19) 0.35665(6) -0.86277(3)
O1_2 O -0.31221(11) -0.1648(4) 0.01764(16)
O2C O -0.23958(13) -0.4147(4) -0.1149(2)
N4A N -0.38464(14) -0.2608(4) -0.2039(2)
Cl1 Cl -0.5000 -0.70514(19) 1.0000
O5 O -0.5456(3) -0.8122(9) 1.0487(6)
O6 O -0.4579(3) -0.5923(13) 1.0786(6)
O5A O -0.4544(3) -0.8122(9) 0.9513(6)
O6A O -0.5421(3) -0.5923(13) 0.9214(6)
Cl2? Cl -0.4906(4) -0.8715(3) 0.5149(7)
O7? O -0.5544(5) -0.7593(15) 0.5007(8)
O8? O -0.5115(5) -1.0613(10) 0.4734(7)
O9? O -0.4464(7) -0.795(2) 0.4495(12)
O10? O -0.4584(7) -0.8792(19) 0.6296(9)
loop_
_geom_bond_atom_site_label_1
_geom_bond_atom_site_label_2
_geom_bond_site_symmetry_1
_geom_bond_site_symmetry_2
Co1 O3 1_555 1_555
Cl1 O5 1_555 1_555
O1 C13 1_555 1_555
O2 C13 1_555 1_555
O3 H1 1_555 1_555
H2 O3 1_555 1_555
O4 Co1 1_555 1_555
H3 O4 1_555 1_555
H4 O4 1_555 1_555
O6 Cl1 1_555 1_555
N1 C1 1_555 1_555
N2 Co1 1_555 1_555
N3 C3 1_555 1_555
N4 C10 1_555 1_555
C1 C2 1_555 1_555
C2 H5 1_555 1_555
C3 C2 1_555 1_555
C4 C3 1_555 1_555
H6 C4 1_555 1_555
C5 C4 1_555 1_555
C6 C1 1_555 1_555
H7 C6 1_555 1_555
C7 N1 1_555 1_555
H8 C7 1_555 1_555
C8 N2 1_555 1_555
H9 C8 1_555 1_555
C9 N1 1_555 1_555
H10 C9 1_555 1_555
C10 N3 1_555 1_555
H11 C10 1_555 1_555
C11 N4 1_555 1_555
H12 C11 1_555 1_555
C12 N3 1_555 1_555
H13 C12 1_555 1_555
C13 C5 1_555 1_555
Co1A N4 1_555 1_555
Co1_2 O1 1_555 1_555
Co1C O2 1_555 1_555
O1_2 Co1 1_555 1_555
O2C Co1 1_555 1_555
O5A Cl1 1_555 1_555
O6A Cl1 1_555 1_555
N4A Co1 1_555 1_555
N2 C7 1_555 1_555
C5 C6 1_555 1_555
C8 C9 1_555 1_555
C11 C12 1_555 1_555

#END
