
#######################################################################
#
#                 Cambridge Crystallographic Data Centre
#                                CCDC 
#
#######################################################################
#
# If this CIF has been generated from an entry in the Cambridge 
# Structural Database, then it will include bibliographic, chemical, 
# crystal, experimental, refinement or atomic coordinate data resulting 
# from the CCDC's data processing and validation procedures.
#
#######################################################################

data_VUHGOV
_symmetry_cell_setting           monoclinic
_symmetry_space_group_name_H-M   'C 2/c'
_symmetry_Int_Tables_number      15
_space_group_name_Hall           '-C 2yn'
loop_
_symmetry_equiv_pos_site_id
_symmetry_equiv_pos_as_xyz
1 x,y,z
2 -x,y,1/2-z
3 1/2+x,1/2+y,z
4 1/2-x,1/2+y,1/2-z
5 -x,-y,-z
6 x,-y,1/2+z
7 1/2-x,1/2-y,-z
8 1/2+x,1/2-y,1/2+z
_cell_length_a                   16.675(3)
_cell_length_b                   28.710(6)
_cell_length_c                   23.663(5)
_cell_angle_alpha                90
_cell_angle_beta                 100.23(3)
_cell_angle_gamma                90
_cell_volume                     11148.3
loop_
_atom_site_label
_atom_site_type_symbol
_atom_site_fract_x
_atom_site_fract_y
_atom_site_fract_z
Mn1 Mn -0.33732(2) 0.133620(15) 0.512140(19)
O1 O -0.26776(12) 0.16524(7) 0.56969(10)
O2 O -0.17067(12) 0.02829(7) 0.56488(9)
O3 O -0.40132(12) 0.09232(7) 0.45748(9)
N1 N -0.27638(14) 0.07628(8) 0.53039(11)
N2 N -0.31030(14) 0.03698(8) 0.49876(11)
N3 N -0.25683(16) 0.15674(9) 0.44846(12)
N4 N -0.08927(17) 0.29992(9) 0.14390(11)
C1 C -0.19950(17) 0.15091(10) 0.60266(13)
C2 C -0.16574(16) 0.10576(10) 0.60073(12)
C3 C -0.09163(18) 0.09549(11) 0.63736(13)
H1 H -0.0689 0.0652 0.6364
C4 C -0.0515(2) 0.12820(12) 0.67439(14)
H2 H -0.0011 0.1206 0.6983
C5 C -0.08472(19) 0.17226(12) 0.67676(14)
H3 H -0.0577 0.1948 0.7028
C6 C -0.15723(19) 0.18340(11) 0.64122(14)
H4 H -0.1790 0.2138 0.6429
C7 C -0.20525(16) 0.06823(10) 0.56386(12)
C8 C -0.37542(17) 0.04941(10) 0.46251(14)
C9 C -0.4224(2) 0.01321(12) 0.42460(16)
H5 H -0.4110 -0.0179 0.4422
H6 H -0.4815 0.0194 0.4209
C10 C -0.3984(4) 0.0138(2) 0.3648(2)
H7 H -0.3388 0.0147 0.3689
H8 H -0.4191 -0.0143 0.3437
H9 H -0.4218 0.0414 0.3437
C11 C -0.2408(2) 0.20186(11) 0.44530(15)
H10 H -0.2654 0.2225 0.4685
C12 C -0.1915(2) 0.22060(11) 0.41120(15)
H11 H -0.1819 0.2532 0.4113
C13 C -0.1550(2) 0.19101(12) 0.37589(15)
C14 C -0.1691(2) 0.14340(12) 0.37994(15)
H12 H -0.1444 0.1219 0.3578
C15 C -0.2195(2) 0.12787(11) 0.41661(15)
H13 H -0.2281 0.0953 0.4194
C16 C -0.1097(2) 0.21091(13) 0.33184(16)
H14 H -0.0833 0.2406 0.3458
H15 H -0.0669 0.1889 0.3246
C17 C -0.1713(2) 0.21914(14) 0.27635(17)
H16 H -0.2188 0.2361 0.2859
H17 H -0.1908 0.1886 0.2600
C18 C -0.1375(2) 0.24641(13) 0.23130(16)
C19 C -0.1207(3) 0.29330(15) 0.23828(17)
H18 H -0.1257 0.3083 0.2733
C20 C -0.0965(3) 0.31867(14) 0.19427(16)
H19 H -0.0846 0.3508 0.2003
C21 C -0.1029(2) 0.25419(11) 0.13834(15)
H20 H -0.0965 0.2399 0.1032
C22 C -0.1257(2) 0.22637(12) 0.18028(16)
H21 H -0.1333 0.1938 0.1742
Mn2 Mn -0.22077(2) -0.022280(15) 0.513950(19)
O4 O -0.17560(14) -0.00454(8) 0.45026(10)
O5 O -0.29995(13) -0.13202(7) 0.40478(9)
O6 O -0.28002(12) -0.04781(7) 0.57034(9)
N5 N -0.27773(14) -0.07328(8) 0.47046(11)
N6 N -0.33501(14) -0.09702(8) 0.49786(10)
C23 C -0.16760(18) -0.02982(11) 0.40444(13)
C24 C -0.20742(17) -0.07251(10) 0.38933(13)
C25 C -0.19674(19) -0.09532(12) 0.33870(14)
H22 H -0.2247 -0.1237 0.3282
C26 C -0.1460(2) -0.07706(13) 0.30368(14)
H23 H -0.1390 -0.0927 0.2695
C27 C -0.1060(2) -0.03577(14) 0.31933(15)
H24 H -0.0708 -0.0232 0.2958
C28 C -0.1159(2) -0.01223(13) 0.36836(15)
H25 H -0.0876 0.0162 0.3780
C29 C -0.26464(17) -0.09365(10) 0.42252(12)
C30 C -0.33005(17) -0.08076(10) 0.55009(13)
C31 C -0.38156(19) -0.10125(11) 0.58989(14)
H26 H -0.4064 -0.0758 0.6091
H27 H -0.4262 -0.1198 0.5673
C32 C -0.3311(2) -0.13248(13) 0.63550(16)
H28 H -0.2859 -0.1144 0.6572
H29 H -0.3658 -0.1441 0.6618
H30 H -0.3093 -0.1588 0.6167
O7 O -0.11184(13) -0.06428(8) 0.54633(11)
N7 N -0.02603(19) -0.10876(11) 0.50730(14)
C33 C -0.0909(2) -0.10330(13) 0.53202(16)
C34 C -0.1392(3) -0.14693(15) 0.5405(2)
H31 H -0.1664 -0.1586 0.5031
H32 H -0.1021 -0.1708 0.5597
H33 H -0.1801 -0.1395 0.5642
C35 C -0.0011(3) -0.15253(14) 0.4845(2)
H34 H -0.0314 -0.1783 0.4979
H35 H -0.0126 -0.1515 0.4424
H36 H 0.0574 -0.1572 0.4978
C36 C 0.0204(2) -0.06697(15) 0.49795(19)
H37 H 0.0009 -0.0405 0.5179
H38 H 0.0784 -0.0722 0.5130
H39 H 0.0130 -0.0603 0.4567
Mn3 Mn -0.39672(2) -0.152110(15) 0.435920(19)
O8 O -0.35156(12) -0.20216(7) 0.48064(9)
O9 O -0.40930(12) 0.18718(7) 0.48387(10)
O10 O -0.46268(13) -0.10627(8) 0.38921(9)
N8 N -0.50011(14) 0.16081(8) 0.53813(11)
N9 N -0.43716(14) 0.13160(9) 0.56466(11)
C37 C -0.37618(17) -0.22227(10) 0.52576(13)
C38 C -0.54469(17) 0.21713(10) 0.46139(14)
C39 C -0.47357(19) -0.23873(11) 0.58844(15)
H40 H -0.5265 -0.2352 0.5975
C40 C -0.4161(2) -0.26495(13) 0.62437(16)
H41 H -0.4289 -0.2783 0.6584
C41 C -0.3395(2) -0.27146(12) 0.61009(16)
H42 H -0.3005 -0.2905 0.6336
C42 C -0.31962(18) -0.25022(11) 0.56152(14)
H43 H -0.2669 -0.2547 0.5525
C43 C -0.48176(17) 0.18767(10) 0.49576(13)
C44 C -0.46303(18) 0.10496(10) 0.60169(13)
C45 C -0.5953(2) -0.07161(12) 0.36330(14)
H44 H -0.6510 -0.0774 0.3707
H45 H -0.5800 -0.0393 0.3752
C46 C -0.5946(4) -0.0770(2) 0.29930(19)
H46 H -0.6203 -0.1066 0.2858
H47 H -0.6250 -0.0512 0.2783
H48 H -0.5383 -0.0766 0.2927
Mn1D Mn -0.66268(2) -0.133620(15) 0.487860(19)
O1D O -0.73224(12) -0.16524(7) 0.43031(10)
O2D O -0.82933(12) -0.02829(7) 0.43512(9)
O3D O -0.59868(12) -0.09232(7) 0.54252(9)
N1D N -0.72362(14) -0.07628(8) 0.46961(11)
N2D N -0.68970(14) -0.03698(8) 0.50124(11)
N3D N -0.74317(16) -0.15674(9) 0.55154(12)
N4C N -0.41073(17) -0.20008(9) 0.35610(11)
N4G N -0.58927(17) 0.20008(9) 0.64390(11)
N4D N -0.91073(17) -0.29992(9) 0.85610(11)
C1D C -0.80050(17) -0.15091(10) 0.39734(13)
C2D C -0.83426(16) -0.10576(10) 0.39927(12)
C3D C -0.90837(18) -0.09549(11) 0.36264(13)
H1D H -0.9311 -0.0652 0.3636
C4D C -0.9485(2) -0.12820(12) 0.32561(14)
H2D H -0.9989 -0.1206 0.3017
C5D C -0.91528(19) -0.17226(12) 0.32324(14)
H3D H -0.9423 -0.1948 0.2972
C6D C -0.84277(19) -0.18340(11) 0.35878(14)
H4D H -0.8210 -0.2138 0.3571
C7D C -0.79475(16) -0.06823(10) 0.43614(12)
C8D C -0.62458(17) -0.04941(10) 0.53749(14)
C9D C -0.5776(2) -0.01321(12) 0.57540(16)
H5D H -0.5890 0.0179 0.5578
H6D H -0.5185 -0.0194 0.5791
C10D C -0.6016(4) -0.0138(2) 0.6352(2)
H7D H -0.6612 -0.0147 0.6311
H8D H -0.5809 0.0143 0.6563
H9D H -0.5782 -0.0414 0.6563
C11D C -0.7592(2) -0.20186(11) 0.55470(15)
H10D H -0.7346 -0.2225 0.5315
C12D C -0.8085(2) -0.22060(11) 0.58880(15)
H11D H -0.8181 -0.2532 0.5887
C13D C -0.8450(2) -0.19101(12) 0.62411(15)
C14D C -0.8309(2) -0.14340(12) 0.62006(15)
H12D H -0.8556 -0.1219 0.6422
C15D C -0.7805(2) -0.12787(11) 0.58339(15)
H13D H -0.7719 -0.0953 0.5806
C16D C -0.8903(2) -0.21091(13) 0.66816(16)
H14D H -0.9167 -0.2406 0.6542
H15D H -0.9331 -0.1889 0.6754
C17D C -0.8287(2) -0.21914(14) 0.72365(17)
H16D H -0.7812 -0.2361 0.7141
H17D H -0.8092 -0.1886 0.7400
C18D C -0.8625(2) -0.24641(13) 0.76870(16)
C19D C -0.8793(3) -0.29330(15) 0.76172(17)
H18D H -0.8743 -0.3083 0.7267
C20D C -0.9035(3) -0.31867(14) 0.80573(16)
H19D H -0.9154 -0.3508 0.7997
C21D C -0.8971(2) -0.25419(11) 0.86166(15)
H20D H -0.9035 -0.2399 0.8968
C22D C -0.8743(2) -0.22637(12) 0.81972(16)
H21D H -0.8667 -0.1938 0.8258
Mn2D Mn -0.77923(2) 0.022280(15) 0.486050(19)
O4D O -0.82440(14) 0.00454(8) 0.54974(10)
O5D O -0.70005(13) 0.13202(7) 0.59522(9)
O6D O -0.71998(12) 0.04781(7) 0.42966(9)
N5D N -0.72227(14) 0.07328(8) 0.52954(11)
N6D N -0.66499(14) 0.09702(8) 0.50214(10)
C23D C -0.83240(18) 0.02982(11) 0.59556(13)
C24D C -0.79258(17) 0.07251(10) 0.61067(13)
C25D C -0.80326(19) 0.09532(12) 0.66130(14)
H22D H -0.7753 0.1237 0.6718
C26D C -0.8540(2) 0.07706(13) 0.69632(14)
H23D H -0.8610 0.0927 0.7305
C27D C -0.8940(2) 0.03577(14) 0.68067(15)
H24D H -0.9292 0.0232 0.7042
C28D C -0.8841(2) 0.01223(13) 0.63164(15)
H25D H -0.9124 -0.0162 0.6220
C29D C -0.73536(17) 0.09365(10) 0.57748(12)
C30D C -0.66995(17) 0.08076(10) 0.44991(13)
C31D C -0.61844(19) 0.10125(11) 0.41011(14)
H26D H -0.5936 0.0758 0.3909
H27D H -0.5738 0.1198 0.4327
C32D C -0.6689(2) 0.13248(13) 0.36450(16)
H28D H -0.7141 0.1144 0.3428
H29D H -0.6342 0.1441 0.3382
H30D H -0.6907 0.1588 0.3833
O7D O -0.88816(13) 0.06428(8) 0.45367(11)
N7D N -0.97397(19) 0.10876(11) 0.49270(14)
C33D C -0.9091(2) 0.10330(13) 0.46798(16)
C34D C -0.8608(3) 0.14693(15) 0.4595(2)
H31D H -0.8336 0.1586 0.4969
H32D H -0.8979 0.1708 0.4403
H33D H -0.8199 0.1395 0.4358
C35D C -0.9989(3) 0.15253(14) 0.5155(2)
H34D H -0.9686 0.1783 0.5021
H35D H -0.9874 0.1515 0.5576
H36D H -1.0574 0.1572 0.5022
C36D C -1.0204(2) 0.06697(15) 0.50205(19)
H37D H -1.0009 0.0405 0.4821
H38D H -1.0784 0.0722 0.4870
H39D H -1.0130 0.0603 0.5433
Mn3C Mn -0.10328(2) 0.347890(15) 0.064080(19)
Mn3D Mn -0.60328(2) 0.152110(15) 0.564080(19)
Mn3G Mn -0.89672(2) -0.347890(15) 0.935920(19)
O8D O -0.64844(12) 0.20216(7) 0.51936(9)
O9D O -0.59070(12) -0.18718(7) 0.51613(10)
O10D O -0.53732(13) 0.10627(8) 0.61079(9)
N8D N -0.49989(14) -0.16081(8) 0.46187(11)
N9D N -0.56284(14) -0.13160(9) 0.43534(11)
C37D C -0.62382(17) 0.22227(10) 0.47424(13)
C38D C -0.45531(17) -0.21713(10) 0.53861(14)
C39D C -0.52643(19) 0.23873(11) 0.41156(15)
H40D H -0.4735 0.2352 0.4025
C40D C -0.5839(2) 0.26495(13) 0.37563(16)
H41D H -0.5711 0.2783 0.3416
C41D C -0.6605(2) 0.27146(12) 0.38991(16)
H42D H -0.6995 0.2905 0.3664
C42D C -0.68038(18) 0.25022(11) 0.43848(14)
H43D H -0.7331 0.2547 0.4475
C43D C -0.51824(17) -0.18767(10) 0.50424(13)
C44D C -0.53697(18) -0.10496(10) 0.39831(13)
C45D C -0.4047(2) 0.07161(12) 0.63670(14)
H44D H -0.3490 0.0774 0.6293
H45D H -0.4200 0.0393 0.6248
C46D C -0.4054(4) 0.0770(2) 0.70070(19)
H46D H -0.3797 0.1066 0.7142
H47D H -0.3750 0.0512 0.7217
H48D H -0.4617 0.0766 0.7073
O11 O -0.8683(2) 0.89908(15) 0.74177(16)
N10 N -0.7910(2) 0.96000(14) 0.77528(15)
C47 C -0.8561(3) 0.9337(2) 0.77439(19)
C48 C -0.9145(3) 0.9479(3) 0.8129(2)
H49 H -0.9414 0.9771 0.7988
H50 H -0.8846 0.9524 0.8521
H51 H -0.9556 0.9235 0.8128
C49 C -0.7344(3) 0.9497(2) 0.7369(2)
H52 H -0.7485 0.9196 0.7180
H53 H -0.6788 0.9482 0.7589
H54 H -0.7377 0.9742 0.7077
C50 C -0.7715(4) 1.00150(17) 0.81086(19)
H55 H -0.8160 1.0079 0.8318
H56 H -0.7645 1.0282 0.7863
H57 H -0.7210 0.9963 0.8383
O13 O -1.0000 0.8489(3) 0.7500
O12? O 0.0000 0.73287(16) 0.2500
N11? N -0.0212(5) 0.6583(3) 0.2306(4)
C51? C 0.0248(5) 0.6920(3) 0.2620(4)
C52? C 0.0954(4) 0.6739(3) 0.3083(3)
C53? C 0.0000 0.6079(3) 0.2500
loop_
_geom_bond_atom_site_label_1
_geom_bond_atom_site_label_2
_geom_bond_site_symmetry_1
_geom_bond_site_symmetry_2
Mn1 O1 1_555 1_555
O1 C1 1_555 1_555
O2 C7 1_555 1_555
O3 Mn1 1_555 1_555
N1 Mn1 1_555 1_555
N2 N1 1_555 1_555
N3 Mn1 1_555 1_555
N4 C20 1_555 1_555
C1 C2 1_555 1_555
C2 C3 1_555 1_555
C3 H1 1_555 1_555
C4 C3 1_555 1_555
H2 C4 1_555 1_555
C5 C4 1_555 1_555
H3 C5 1_555 1_555
C6 C1 1_555 1_555
H4 C6 1_555 1_555
C7 N1 1_555 1_555
C8 O3 1_555 1_555
C9 C8 1_555 1_555
H5 C9 1_555 1_555
H6 C9 1_555 1_555
C10 C9 1_555 1_555
H7 C10 1_555 1_555
H8 C10 1_555 1_555
H9 C10 1_555 1_555
C11 N3 1_555 1_555
H10 C11 1_555 1_555
C12 C11 1_555 1_555
H11 C12 1_555 1_555
C13 C12 1_555 1_555
C14 C13 1_555 1_555
H12 C14 1_555 1_555
C15 N3 1_555 1_555
H13 C15 1_555 1_555
C16 C13 1_555 1_555
H14 C16 1_555 1_555
H15 C16 1_555 1_555
C17 C16 1_555 1_555
H16 C17 1_555 1_555
H17 C17 1_555 1_555
C18 C17 1_555 1_555
C19 C18 1_555 1_555
H18 C19 1_555 1_555
C20 C19 1_555 1_555
H19 C20 1_555 1_555
C21 N4 1_555 1_555
H20 C21 1_555 1_555
C22 C18 1_555 1_555
H21 C22 1_555 1_555
Mn2 O2 1_555 1_555
O4 Mn2 1_555 1_555
O5 C29 1_555 1_555
O6 Mn2 1_555 1_555
N5 Mn2 1_555 1_555
N6 N5 1_555 1_555
C23 O4 1_555 1_555
C24 C23 1_555 1_555
C25 C24 1_555 1_555
H22 C25 1_555 1_555
C26 C25 1_555 1_555
H23 C26 1_555 1_555
C27 C26 1_555 1_555
H24 C27 1_555 1_555
C28 C23 1_555 1_555
H25 C28 1_555 1_555
C29 N5 1_555 1_555
C30 O6 1_555 1_555
C31 C30 1_555 1_555
H26 C31 1_555 1_555
H27 C31 1_555 1_555
C32 C31 1_555 1_555
H28 C32 1_555 1_555
H29 C32 1_555 1_555
H30 C32 1_555 1_555
O7 Mn2 1_555 1_555
N7 C33 1_555 1_555
C33 O7 1_555 1_555
C34 C33 1_555 1_555
H31 C34 1_555 1_555
H32 C34 1_555 1_555
H33 C34 1_555 1_555
C35 N7 1_555 1_555
H34 C35 1_555 1_555
H35 C35 1_555 1_555
H36 C35 1_555 1_555
C36 N7 1_555 1_555
H37 C36 1_555 1_555
H38 C36 1_555 1_555
H39 C36 1_555 1_555
Mn3 O5 1_555 1_555
O8 Mn3 1_555 1_555
O9 Mn1 1_555 1_555
O10 Mn3 1_555 1_555
N8 N9 1_555 1_555
N9 Mn1 1_555 1_555
C37 O8 1_555 1_555
C38 C43 1_555 1_555
C39 H40 1_555 1_555
C40 C39 1_555 1_555
H41 C40 1_555 1_555
C41 C40 1_555 1_555
H42 C41 1_555 1_555
C42 C37 1_555 1_555
H43 C42 1_555 1_555
C43 O9 1_555 1_555
C44 N9 1_555 1_555
C45 H44 1_555 1_555
H45 C45 1_555 1_555
C46 C45 1_555 1_555
H46 C46 1_555 1_555
H47 C46 1_555 1_555
H48 C46 1_555 1_555
O11 C47 1_555 1_555
N10 C47 1_555 1_555
C47 C48 1_555 1_555
C48 H49 1_555 1_555
H50 C48 1_555 1_555
H51 C48 1_555 1_555
C49 N10 1_555 1_555
H52 C49 1_555 1_555
H53 C49 1_555 1_555
H54 C49 1_555 1_555
C50 N10 1_555 1_555
H55 C50 1_555 1_555
H56 C50 1_555 1_555
H57 C50 1_555 1_555
Mn1D O1D 1_555 1_555
O1D C1D 1_555 1_555
O2D C7D 1_555 1_555
O3D Mn1D 1_555 1_555
N1D Mn1D 1_555 1_555
N2D N1D 1_555 1_555
N3D Mn1D 1_555 1_555
N4C Mn3 1_555 1_555
N4G Mn3D 1_555 1_555
N4D C20D 1_555 1_555
C1D C2D 1_555 1_555
C2D C3D 1_555 1_555
C3D H1D 1_555 1_555
C4D C3D 1_555 1_555
H2D C4D 1_555 1_555
C5D C4D 1_555 1_555
H3D C5D 1_555 1_555
C6D C1D 1_555 1_555
H4D C6D 1_555 1_555
C7D N1D 1_555 1_555
C8D O3D 1_555 1_555
C9D C8D 1_555 1_555
H5D C9D 1_555 1_555
H6D C9D 1_555 1_555
C10D C9D 1_555 1_555
H7D C10D 1_555 1_555
H8D C10D 1_555 1_555
H9D C10D 1_555 1_555
C11D N3D 1_555 1_555
H10D C11D 1_555 1_555
C12D C11D 1_555 1_555
H11D C12D 1_555 1_555
C13D C12D 1_555 1_555
C14D C13D 1_555 1_555
H12D C14D 1_555 1_555
C15D N3D 1_555 1_555
H13D C15D 1_555 1_555
C16D C13D 1_555 1_555
H14D C16D 1_555 1_555
H15D C16D 1_555 1_555
C17D C16D 1_555 1_555
H16D C17D 1_555 1_555
H17D C17D 1_555 1_555
C18D C17D 1_555 1_555
C19D C18D 1_555 1_555
H18D C19D 1_555 1_555
C20D C19D 1_555 1_555
H19D C20D 1_555 1_555
C21D N4D 1_555 1_555
H20D C21D 1_555 1_555
C22D C18D 1_555 1_555
H21D C22D 1_555 1_555
Mn2D O2D 1_555 1_555
O4D Mn2D 1_555 1_555
O5D C29D 1_555 1_555
O6D Mn2D 1_555 1_555
N5D Mn2D 1_555 1_555
N6D N5D 1_555 1_555
C23D O4D 1_555 1_555
C24D C23D 1_555 1_555
C25D C24D 1_555 1_555
H22D C25D 1_555 1_555
C26D C25D 1_555 1_555
H23D C26D 1_555 1_555
C27D C26D 1_555 1_555
H24D C27D 1_555 1_555
C28D C23D 1_555 1_555
H25D C28D 1_555 1_555
C29D N5D 1_555 1_555
C30D O6D 1_555 1_555
C31D C30D 1_555 1_555
H26D C31D 1_555 1_555
H27D C31D 1_555 1_555
C32D C31D 1_555 1_555
H28D C32D 1_555 1_555
H29D C32D 1_555 1_555
H30D C32D 1_555 1_555
O7D Mn2D 1_555 1_555
N7D C33D 1_555 1_555
C33D O7D 1_555 1_555
C34D C33D 1_555 1_555
H31D C34D 1_555 1_555
H32D C34D 1_555 1_555
H33D C34D 1_555 1_555
C35D N7D 1_555 1_555
H34D C35D 1_555 1_555
H35D C35D 1_555 1_555
H36D C35D 1_555 1_555
C36D N7D 1_555 1_555
H37D C36D 1_555 1_555
H38D C36D 1_555 1_555
H39D C36D 1_555 1_555
Mn3C N4 1_555 1_555
Mn3D N8 1_555 1_555
Mn3G N4D 1_555 1_555
O8D Mn3D 1_555 1_555
O9D Mn1D 1_555 1_555
O10D C44 1_555 1_555
N8D Mn3 1_555 1_555
N9D Mn1D 1_555 1_555
C37D C38 1_555 1_555
C38D C37 1_555 1_555
C39D C38 1_555 1_555
H40D C39D 1_555 1_555
C40D C39D 1_555 1_555
H41D C40D 1_555 1_555
C41D C40D 1_555 1_555
H42D C41D 1_555 1_555
C42D C37D 1_555 1_555
H43D C42D 1_555 1_555
C43D O9D 1_555 1_555
C44D O10 1_555 1_555
C45D C44 1_555 1_555
H44D C45D 1_555 1_555
H45D C45D 1_555 1_555
C46D C45D 1_555 1_555
H46D C46D 1_555 1_555
H47D C46D 1_555 1_555
H48D C46D 1_555 1_555
N2 C8 1_555 1_555
N2 Mn2 1_555 1_555
C2 C7 1_555 1_555
C5 C6 1_555 1_555
C14 C15 1_555 1_555
C21 C22 1_555 1_555
N6 C30 1_555 1_555
N6 Mn3 1_555 1_555
C24 C29 1_555 1_555
C27 C28 1_555 1_555
N8 C43 1_555 1_555
C39 C38D 1_555 1_555
C41 C42 1_555 1_555
C45 C44D 1_555 1_555
N2D C8D 1_555 1_555
N2D Mn2D 1_555 1_555
C2D C7D 1_555 1_555
C5D C6D 1_555 1_555
C14D C15D 1_555 1_555
C21D C22D 1_555 1_555
O5D Mn3D 1_555 1_555
N6D C30D 1_555 1_555
N6D Mn3D 1_555 1_555
C24D C29D 1_555 1_555
C27D C28D 1_555 1_555
Mn3D O10D 1_555 1_555
O8D C37D 1_555 1_555
N8D N9D 1_555 1_555
N8D C43D 1_555 1_555
N9D C44D 1_555 1_555
C38D C43D 1_555 1_555
C41D C42D 1_555 1_555

#END
