
#######################################################################
#
#                 Cambridge Crystallographic Data Centre
#                                CCDC 
#
#######################################################################
#
# If this CIF has been generated from an entry in the Cambridge 
# Structural Database, then it will include bibliographic, chemical, 
# crystal, experimental, refinement or atomic coordinate data resulting 
# from the CCDC's data processing and validation procedures.
#
#######################################################################

data_VUHHUC
_symmetry_cell_setting           monoclinic
_symmetry_space_group_name_H-M   'P 21/n'
_symmetry_Int_Tables_number      14
_space_group_name_Hall           '-P 2yn'
loop_
_symmetry_equiv_pos_site_id
_symmetry_equiv_pos_as_xyz
1 x,y,z
2 1/2-x,1/2+y,1/2-z
3 -x,-y,-z
4 1/2+x,1/2-y,1/2+z
_cell_length_a                   4.8414(3)
_cell_length_b                   32.557(3)
_cell_length_c                   5.7845(9)
_cell_angle_alpha                90
_cell_angle_beta                 96.016(7)
_cell_angle_gamma                90
_cell_volume                     906.74
loop_
_atom_site_label
_atom_site_type_symbol
_atom_site_fract_x
_atom_site_fract_y
_atom_site_fract_z
Cu1 Cu 0.17857(3) 0.242409(6) 0.06000(3)
P1 P 0.72964(7) 0.300957(11) 0.06523(6)
O1 O 0.41673(18) 0.29125(3) 0.04942(17)
O2 O 0.88452(19) 0.28947(3) 0.30252(17)
O3 O 0.87168(18) 0.27788(3) -0.12987(17)
O4 O 0.4294(4) 0.44776(5) 0.4203(3)
O5 O 0.7081(4) 0.49457(5) 0.2832(3)
O6 O -0.1058(2) 0.19765(4) 0.0668(2)
C1 C 0.7679(3) 0.35549(4) 0.0141(2)
C2 C 0.6641(3) 0.38486(5) 0.1627(3)
C3 C 0.7118(4) 0.42677(5) 0.1275(3)
C4 C 0.8634(4) 0.43979(6) -0.0546(4)
C5 C 0.9594(5) 0.41089(6) -0.2047(4)
C6 C 0.9116(4) 0.36908(5) -0.1713(3)
C7 C 0.6111(4) 0.45867(6) 0.2867(3)
H1 H 0.573(4) 0.3762(7) 0.293(4)
H2 H 0.899(5) 0.4674(9) -0.074(4)
H3 H 1.046(4) 0.4195(8) -0.336(4)
H4 H 0.971(4) 0.3498(7) -0.281(3)
H5 H 0.384(8) 0.4679(14) 0.506(7)
H6 H -0.238(4) 0.1990(7) -0.021(4)
H7 H -0.171(5) 0.1978(8) 0.176(5)
Cu1_2 Cu 1.17857(3) 0.242409(6) 0.06000(3)
Cu1C Cu 0.67857(3) 0.257591(6) 0.56000(3)
Cu1C_2 Cu 0.67857(3) 0.257591(6) -0.44000(3)
O2_2 O -0.11548(19) 0.28947(3) 0.30252(17)
O2C O 0.38452(19) 0.21053(3) -0.19748(17)
O3_2 O -0.12832(18) 0.27788(3) -0.12987(17)
O3C O 0.37168(18) 0.22212(3) 0.37013(17)
loop_
_geom_bond_atom_site_label_1
_geom_bond_atom_site_label_2
_geom_bond_site_symmetry_1
_geom_bond_site_symmetry_2
Cu1 O1 1_555 1_555
P1 O1 1_555 1_555
O2 P1 1_555 1_555
O3 P1 1_555 1_555
O4 C7 1_555 1_555
O5 C7 1_555 1_555
O6 Cu1 1_555 1_555
C1 P1 1_555 1_555
C2 C1 1_555 1_555
C3 C2 1_555 1_555
C4 C3 1_555 1_555
C5 C4 1_555 1_555
C6 C1 1_555 1_555
C7 C3 1_555 1_555
H1 C2 1_555 1_555
H2 C4 1_555 1_555
H3 C5 1_555 1_555
H4 C6 1_555 1_555
H5 O4 1_555 1_555
H6 O6 1_555 1_555
H7 O6 1_555 1_555
Cu1_2 O2 1_555 1_555
Cu1C O2 1_555 1_555
Cu1C_2 O3 1_555 1_555
O2_2 Cu1 1_555 1_555
O2C Cu1 1_555 1_555
O3_2 Cu1 1_555 1_555
O3C Cu1 1_555 1_555
O3 Cu1_2 1_555 1_555
C5 C6 1_555 1_555
Cu1C O3C 1_555 1_555
Cu1C_2 O2C 1_555 1_555

#END
