
#######################################################################
#
#                 Cambridge Crystallographic Data Centre
#                                CCDC 
#
#######################################################################
#
# If this CIF has been generated from an entry in the Cambridge 
# Structural Database, then it will include bibliographic, chemical, 
# crystal, experimental, refinement or atomic coordinate data resulting 
# from the CCDC's data processing and validation procedures.
#
#######################################################################

data_VUHHIQ
_symmetry_cell_setting           trigonal
_symmetry_space_group_name_H-M   'P 32 2 1'
_symmetry_Int_Tables_number      154
_space_group_name_Hall           'P 32 2"'
loop_
_symmetry_equiv_pos_site_id
_symmetry_equiv_pos_as_xyz
1 x,y,z
2 -y,x-y,2/3+z
3 -x+y,-x,1/3+z
4 y,x,-z
5 x-y,-y,1/3-z
6 -x,-x+y,2/3-z
_cell_length_a                   12.9207(3)
_cell_length_b                   12.9207(3)
_cell_length_c                   19.9320(10)
_cell_angle_alpha                90
_cell_angle_beta                 90
_cell_angle_gamma                120
_cell_volume                     2881.73
loop_
_atom_site_label
_atom_site_type_symbol
_atom_site_fract_x
_atom_site_fract_y
_atom_site_fract_z
Cu1 Cu 0.62121(2) 0.0000 1.1667
Cl1 Cl 0.74236(4) 0.24402(4) 1.139727(19)
N1 N 0.49621(12) -0.02299(12) 1.09642(6)
C1 C 0.52791(14) 0.03898(14) 1.03853(7)
H1 H 0.6069 0.0989 1.0328
C2 C 0.44710(15) 0.01675(14) 0.98713(7)
C3 C 0.32806(16) -0.07048(15) 0.99715(8)
H2 H 0.2718 -0.0873 0.9636
C4 C 0.29451(15) -0.13157(16) 1.05710(8)
H3 H 0.2150 -0.1881 1.0652
C5 C 0.38126(15) -0.10741(15) 1.10515(8)
H4 H 0.3591 -0.1512 1.1448
C6 C 0.49279(14) 0.08801(14) 0.92383(8)
O1 O 0.57806(12) 0.19116(11) 0.92468(6)
N2 N 0.43408(14) 0.03095(13) 0.86797(7)
H5 H 0.3767 -0.0418 0.8711
C7 C 0.46392(16) 0.08769(16) 0.80237(8)
H6 H 0.5280 0.1709 0.8070
C8 C 0.50374(19) 0.02229(17) 0.75396(8)
H7 H 0.4430 -0.0617 0.7541
H8 H 0.5056 0.0524 0.7091
C9 C 0.62204(18) 0.03096(18) 0.76680(8)
C10 C 0.6323(2) -0.0710(2) 0.76369(12)
H9 H 0.5638 -0.1452 0.7585
C11 C 0.7414(3) -0.0646(2) 0.76808(13)
H10 H 0.7458 -0.1341 0.7651
C12 C 0.8446(2) 0.0439(3) 0.77694(11)
H11 H 0.9181 0.0479 0.7814
C13 C 0.8364(2) 0.1465(2) 0.77904(12)
H12 H 0.9051 0.2205 0.7841
C14 C 0.7262(2) 0.1396(2) 0.77364(11)
H13 H 0.7223 0.2095 0.7746
C15 C 0.35279(17) 0.08417(16) 0.77218(8)
N3 N 0.38172(14) 0.16388(14) 0.72075(7)
H14 H 0.4566 0.2122 0.7141
C16 C 0.30221(15) 0.17516(15) 0.67773(8)
C17 C 0.35001(15) 0.23335(14) 0.61703(7)
H15 H 0.4291 0.2568 0.6071
N4 N 0.74320(12) 0.02996(12) 1.23915(6)
C18 C 0.78410(15) -0.04572(15) 1.25106(8)
H16 H 0.7720 -0.1033 1.2192
C19 C 0.84418(16) -0.03936(16) 1.31015(9)
H17 H 0.8719 -0.0924 1.3175
C20 C 0.18312(16) 0.13703(16) 0.69166(8)
H18 H 0.1489 0.0999 0.7322
O3 O 0.25163(12) 0.01458(12) 0.79023(6)
Cu1B Cu 0.37879(2) 0.37879(2) 0.5000
Cu1A Cu 1.0000 0.62121(2) 1.8334
Cl1D Cl 0.49834(6) -0.24402(4) 1.193606(19)
N1D N 0.51920(17) 0.02299(12) 1.23691(6)
N1A N 1.02299(12) 0.51920(17) 1.76309(6)
C1A C 0.96102(14) 0.48893(20) 1.70520(7)
H1A H 0.9011 0.5080 1.6995
C2A C 0.98325(14) 0.43035(21) 1.65380(7)
C3A C 1.07048(15) 0.39854(22) 1.66382(8)
H2A H 1.0873 0.3591 1.6303
C4A C 1.13157(16) 0.42608(22) 1.72377(8)
H3A H 1.1881 0.4031 1.7319
C5A C 1.10741(15) 0.48867(21) 1.77182(8)
H4A H 1.1512 0.5103 1.8115
C6A C 0.91199(14) 0.40478(20) 1.59050(8)
O1A O 0.80884(11) 0.38690(16) 1.59135(6)
N2A N 0.96905(13) 0.40313(19) 1.53464(7)
H5A H 1.0418 0.4185 1.5378
C7A C 0.91231(16) 0.37623(23) 1.46904(8)
H6A H 0.8291 0.3571 1.4737
C8A C 0.97771(17) 0.48145(25) 1.42063(8)
H7A H 1.0617 0.5047 1.4208
H8A H 0.9476 0.4532 1.3758
C9A C 0.96904(18) 0.59108(25) 1.43347(8)
C10A C 1.0710(2) 0.7033(3) 1.43036(12)
H9A H 1.1452 0.7090 1.4252
C11A C 1.0646(2) 0.8060(4) 1.43475(13)
H10A H 1.1341 0.8799 1.4318
C12A C 0.9561(3) 0.8007(4) 1.44361(11)
H11A H 0.9521 0.8702 1.4481
C13A C 0.8535(2) 0.6899(3) 1.44571(12)
H12A H 0.7795 0.6846 1.4508
C14A C 0.8604(2) 0.5866(3) 1.44031(11)
H13A H 0.7905 0.5128 1.4413
C15A C 0.91583(16) 0.26862(23) 1.43885(8)
N3A N 0.83612(14) 0.21784(20) 1.38742(7)
H14A H 0.7878 0.2444 1.3808
C16A C 0.82484(15) 0.12705(21) 1.34440(8)
C17A C 0.76665(14) 0.11666(21) 1.28370(7)
H15A H 0.7432 0.1723 1.2738
N4D N 0.71324(17) -0.02996(12) 1.09418(6)
N4B N 0.28676(17) 0.25680(12) 0.57248(6)
C18B C 0.17018(21) 0.21590(15) 0.58439(8)
H16B H 0.1247 0.2280 0.5525
C19B C 0.11646(23) 0.15582(16) 0.64348(9)
H17B H 0.0357 0.1281 0.6508
C20A C 0.86297(16) 0.04609(23) 1.35833(8)
H18A H 0.9001 0.0490 1.3989
O3A O 0.98542(12) 0.23705(17) 1.45690(6)
O2 O 0.37489(12) 0.68746(14) 0.97706(7)
H19 H 0.329(3) 0.651(2) 1.0155(13)
H20 H 0.332(3) 0.706(3) 0.9427(15)
loop_
_geom_bond_atom_site_label_1
_geom_bond_atom_site_label_2
_geom_bond_site_symmetry_1
_geom_bond_site_symmetry_2
Cu1 Cl1 1_555 1_555
N1 Cu1 1_555 1_555
C1 N1 1_555 1_555
H1 C1 1_555 1_555
C2 C1 1_555 1_555
C3 C2 1_555 1_555
H2 C3 1_555 1_555
C4 C3 1_555 1_555
H3 C4 1_555 1_555
C5 N1 1_555 1_555
H4 C5 1_555 1_555
C6 C2 1_555 1_555
O1 C6 1_555 1_555
N2 C6 1_555 1_555
H5 N2 1_555 1_555
C7 N2 1_555 1_555
H6 C7 1_555 1_555
C8 C7 1_555 1_555
H7 C8 1_555 1_555
H8 C8 1_555 1_555
C9 C8 1_555 1_555
C10 C9 1_555 1_555
H9 C10 1_555 1_555
C11 C10 1_555 1_555
H10 C11 1_555 1_555
C12 C11 1_555 1_555
H11 C12 1_555 1_555
C13 C12 1_555 1_555
H12 C13 1_555 1_555
C14 C9 1_555 1_555
H13 C14 1_555 1_555
C15 C7 1_555 1_555
N3 C15 1_555 1_555
H14 N3 1_555 1_555
C16 N3 1_555 1_555
C17 C16 1_555 1_555
H15 C17 1_555 1_555
N4 Cu1 1_555 1_555
C18 N4 1_555 1_555
H16 C18 1_555 1_555
C19 C18 1_555 1_555
H17 C19 1_555 1_555
C20 C16 1_555 1_555
H18 C20 1_555 1_555
O2 H19 1_555 1_555
O3 C15 1_555 1_555
H20 O2 1_555 1_555
Cu1B N4B 1_555 1_555
Cu1A N1A 1_555 1_555
Cl1D Cu1 1_555 1_555
N1D Cu1 1_555 1_555
N1A C1A 1_555 1_555
C1A H1A 1_555 1_555
C2A C1A 1_555 1_555
C3A C2A 1_555 1_555
H2A C3A 1_555 1_555
C4A C3A 1_555 1_555
H3A C4A 1_555 1_555
C5A N1A 1_555 1_555
H4A C5A 1_555 1_555
C6A C2A 1_555 1_555
O1A C6A 1_555 1_555
N2A C6A 1_555 1_555
H5A N2A 1_555 1_555
C7A N2A 1_555 1_555
H6A C7A 1_555 1_555
C8A C7A 1_555 1_555
H7A C8A 1_555 1_555
H8A C8A 1_555 1_555
C9A C8A 1_555 1_555
C10A C9A 1_555 1_555
H9A C10A 1_555 1_555
C11A C10A 1_555 1_555
H10A C11A 1_555 1_555
C12A C11A 1_555 1_555
H11A C12A 1_555 1_555
C13A C12A 1_555 1_555
H12A C13A 1_555 1_555
C14A C9A 1_555 1_555
H13A C14A 1_555 1_555
C15A C7A 1_555 1_555
N3A C15A 1_555 1_555
H14A N3A 1_555 1_555
C16A N3A 1_555 1_555
C17A N4 1_555 1_555
H15A C17A 1_555 1_555
N4D Cu1 1_555 1_555
N4B C17 1_555 1_555
C18B N4B 1_555 1_555
H16B C18B 1_555 1_555
C19B C20 1_555 1_555
H17B C19B 1_555 1_555
C20A C19 1_555 1_555
H18A C20A 1_555 1_555
O3A C15A 1_555 1_555
C4 C5 1_555 1_555
C13 C14 1_555 1_555
C4A C5A 1_555 1_555
C13A C14A 1_555 1_555
C16A C17A 1_555 1_555
C16A C20A 1_555 1_555
C18B C19B 1_555 1_555

#END
