
#######################################################################
#
#                 Cambridge Crystallographic Data Centre
#                                CCDC 
#
#######################################################################
#
# If this CIF has been generated from an entry in the Cambridge 
# Structural Database, then it will include bibliographic, chemical, 
# crystal, experimental, refinement or atomic coordinate data resulting 
# from the CCDC's data processing and validation procedures.
#
#######################################################################

data_VUHNET
_symmetry_cell_setting           monoclinic
_symmetry_space_group_name_H-M   'C 2/c'
_symmetry_Int_Tables_number      15
_space_group_name_Hall           '-C 2yn'
loop_
_symmetry_equiv_pos_site_id
_symmetry_equiv_pos_as_xyz
1 x,y,z
2 -x,y,1/2-z
3 1/2+x,1/2+y,z
4 1/2-x,1/2+y,1/2-z
5 -x,-y,-z
6 x,-y,1/2+z
7 1/2-x,1/2-y,-z
8 1/2+x,1/2-y,1/2+z
_cell_length_a                   34.307(7)
_cell_length_b                   14.392(3)
_cell_length_c                   34.931(7)
_cell_angle_alpha                90
_cell_angle_beta                 106.22(3)
_cell_angle_gamma                90
_cell_volume                     16560.6
loop_
_atom_site_label
_atom_site_type_symbol
_atom_site_fract_x
_atom_site_fract_y
_atom_site_fract_z
Zn1 Zn 0.14103(3) 1.61617(7) 0.07496(3)
Zn2 Zn 0.16182(3) 0.84280(7) 0.26128(3)
Zn3 Zn -0.11553(3) 1.08701(7) 0.43744(3)
I1 I 0.08110(2) 1.71761(5) 0.07318(2)
I2 I 0.20740(2) 1.67616(5) 0.06510(2)
I3 I 0.22696(2) 0.75118(5) 0.28872(2)
I4 I 0.11660(2) 0.81707(5) 0.19128(2)
I5 I -0.13588(2) 1.07452(5) 0.50127(2)
I6 I -0.09877(2) 1.23623(5) 0.40662(2)
N1 N 0.1574(2) 1.5497(5) 0.1298(2)
C1 C 0.1723(3) 1.5977(6) 0.1636(3)
H1 H 0.1729 1.6636 0.1626
C2 C 0.1868(3) 1.5539(6) 0.1999(2)
H2 H 0.1986 1.5897 0.2231
C3 C 0.1844(3) 1.4583(6) 0.2029(3)
C4 C 0.1674(3) 1.4084(6) 0.1676(3)
H3 H 0.1650 1.3427 0.1681
C5 C 0.1545(3) 1.4563(6) 0.1327(3)
H4 H 0.1427 1.4221 0.1090
N2 N 0.1763(2) 0.9837(5) 0.2684(2)
C6 C 0.2050(3) 1.0178(6) 0.2997(3)
H5 H 0.2189 0.9757 0.3198
C7 C 0.2155(3) 1.1094(6) 0.3041(2)
H6 H 0.2358 1.1307 0.3268
C8 C 0.1952(3) 1.1718(6) 0.2738(2)
C9 C 0.1657(3) 1.1373(6) 0.2416(3)
H7 H 0.1519 1.1779 0.2208
C10 C 0.1563(3) 1.0439(7) 0.2396(3)
H8 H 0.1354 1.0212 0.2176
N3 N 0.3396(2) 1.5230(5) 0.3935(2)
C11 C 0.3300(3) 1.4324(6) 0.3956(3)
H9 H 0.3446 1.3974 0.4180
C12 C 0.3001(3) 1.3883(6) 0.3666(3)
H10 H 0.2945 1.3244 0.3694
C13 C 0.2783(3) 1.4372(6) 0.3338(2)
C14 C 0.2876(3) 1.5312(7) 0.3308(3)
H11 H 0.2737 1.5670 0.3083
C15 C 0.3179(3) 1.5707(7) 0.3618(3)
H12 H 0.3235 1.6350 0.3603
C16 C 0.2011(3) 1.4070(6) 0.2403(2)
N4 N 0.1880(2) 1.3200(5) 0.2423(2)
C17 C 0.2071(3) 1.2729(6) 0.2742(3)
N5 N 0.2365(2) 1.3039(5) 0.3055(2)
C18 C 0.2462(3) 1.3944(6) 0.3011(2)
N6 N 0.2300(2) 1.4482(5) 0.2690(2)
N7 N 0.1319(2) 0.8242(5) 0.3041(2)
C19 C 0.1099(3) 0.8923(6) 0.3138(3)
H13 H 0.1065 0.9484 0.2989
C20 C 0.0917(3) 0.8852(6) 0.3445(3)
H14 H 0.0767 0.9356 0.3509
C21 C 0.0958(3) 0.8036(6) 0.3654(3)
C22 C 0.1171(3) 0.7300(7) 0.3546(3)
H15 H 0.1198 0.6722 0.3682
C23 C 0.1339(4) 0.7437(7) 0.3235(3)
H16 H 0.1477 0.6933 0.3155
N8 N -0.0669(2) 1.0029(5) 0.4381(2)
C24 C -0.0473(3) 0.9513(7) 0.4693(3)
H17 H -0.0562 0.9529 0.4927
C25 C -0.0144(3) 0.8954(6) 0.4689(2)
H18 H -0.0012 0.8591 0.4915
C26 C -0.0014(3) 0.8935(6) 0.4355(2)
C27 C -0.0217(3) 0.9475(7) 0.4023(3)
H19 H -0.0134 0.9472 0.3785
C28 C -0.0537(3) 1.0001(7) 0.4056(3)
H20 H -0.0673 1.0372 0.3835
N9 N 0.1205(2) 0.4926(5) 0.5360(2)
C29 C 0.0832(3) 0.5256(7) 0.5306(3)
H21 H 0.0661 0.4968 0.5444
C30 C 0.0680(3) 0.6009(7) 0.5056(3)
H22 H 0.0417 0.6250 0.5036
C31 C 0.0915(3) 0.6391(6) 0.4840(2)
C32 C 0.1315(3) 0.6041(7) 0.4892(3)
H23 H 0.1487 0.6299 0.4749
C33 C 0.1448(3) 0.5313(7) 0.5158(3)
H24 H 0.1715 0.5082 0.5199
C34 C 0.0788(3) 0.7917(6) 0.4000(3)
N10 N 0.0490(2) 0.8496(5) 0.4020(2)
C35 C 0.0335(3) 0.8331(6) 0.4324(3)
N11 N 0.0454(2) 0.7658(5) 0.4597(2)
C36 C 0.0762(3) 0.7158(6) 0.4547(2)
N12 N 0.0940(2) 0.7249(5) 0.4258(2)
Zn1E Zn 0.14103(3) 0.38383(7) 0.57496(3)
Zn3B Zn 0.38447(3) 1.58701(7) 0.43744(3)
N3B N -0.1604(2) 1.0230(5) 0.3935(2)
N9E N 0.1205(2) 1.5074(5) 0.0360(2)
C37 C 0.1787(4) 1.4193(8) 0.4170(3)
C38 C 0.1947(4) 1.3510(8) 0.3894(4)
H25 H 0.2121 1.3863 0.3763
H26 H 0.2118 1.3028 0.4063
C39 C 0.1619(3) 1.3040(7) 0.3580(3)
H27 H 0.1460 1.3432 0.3377
C40 C 0.1520(3) 1.2135(7) 0.3547(3)
C41 C 0.1720(4) 1.1359(8) 0.3811(3)
H28 H 0.2018 1.1432 0.3869
H29 H 0.1645 1.0767 0.3665
C42 C 0.1612(3) 1.1288(8) 0.4210(3)
H30 H 0.1762 1.0757 0.4363
H31 H 0.1707 1.1859 0.4366
C43 C 0.1177(4) 1.1167(8) 0.4171(3)
H32 H 0.1045 1.0664 0.4010
C44 C 0.0945(3) 1.1689(8) 0.4339(3)
C45 C 0.1075(4) 1.2559(8) 0.4587(3)
H33 H 0.0843 1.2799 0.4675
H34 H 0.1297 1.2405 0.4828
C46 C 0.1216(3) 1.3297(8) 0.4351(3)
H35 H 0.1020 1.3572 0.4133
C47 C 0.1594(4) 1.3582(8) 0.4428(3)
H36 H 0.1771 1.3385 0.4676
C48 C 0.2165(4) 1.4692(10) 0.4457(4)
H37 H 0.2311 1.5040 0.4299
H38 H 0.2346 1.4226 0.4619
H39 H 0.2072 1.5120 0.4632
C49 C 0.1484(5) 1.4887(8) 0.3916(4)
H40 H 0.1617 1.5245 0.3749
H41 H 0.1390 1.5310 0.4091
H42 H 0.1252 1.4549 0.3746
C50 C 0.1196(3) 1.1890(8) 0.3193(3)
H43 H 0.1074 1.2390 0.3025
O1 O 0.1067(3) 1.1131(6) 0.3088(3)
C51 C 0.0521(4) 1.1326(9) 0.4283(3)
H44 H 0.0438 1.0793 0.4120
O2 O 0.0282(3) 1.1677(7) 0.4434(3)
C52 C -0.0035(3) 1.4738(8) 0.3853(3)
C53 C -0.0501(3) 1.4803(8) 0.3711(3)
H45 H -0.0612 1.4174 0.3726
H46 H -0.0591 1.5201 0.3901
C54 C -0.0685(3) 1.5176(7) 0.3298(3)
H47 H -0.0696 1.5834 0.3276
C55 C -0.0837(3) 1.4707(7) 0.2956(3)
C56 C -0.0830(3) 1.3662(7) 0.2912(3)
H48 H -0.1102 1.3444 0.2757
H49 H -0.0765 1.3369 0.3179
C57 C -0.0514(4) 1.3364(7) 0.2699(3)
H50 H -0.0617 1.3497 0.2411
H51 H -0.0260 1.3719 0.2807
C58 C -0.0431(4) 1.2327(9) 0.2765(3)
H52 H -0.0623 1.1910 0.2605
C59 C -0.0111(3) 1.1960(8) 0.3027(3)
C60 C 0.0224(4) 1.2513(8) 0.3304(3)
H53 H 0.0430 1.2074 0.3460
H54 H 0.0356 1.2897 0.3141
C61 C 0.0092(3) 1.3138(8) 0.3590(3)
H55 H -0.0020 1.2863 0.3783
C62 C 0.0124(3) 1.4057(8) 0.3584(3)
H56 H 0.0254 1.4319 0.3402
C63 C 0.0088(4) 1.4362(9) 0.4289(3)
H57 H -0.0040 1.3756 0.4296
H58 H -0.0003 1.4798 0.4461
H59 H 0.0383 1.4296 0.4383
C64 C 0.0161(4) 1.5682(9) 0.3833(4)
H60 H 0.0445 1.5666 0.3995
H61 H 0.0015 1.6162 0.3936
H62 H 0.0150 1.5822 0.3556
C65 C -0.1033(3) 1.5251(9) 0.2601(3)
H63 H -0.1026 1.5909 0.2621
O3 O -0.1209(3) 1.4895(7) 0.2277(3)
C66 C -0.0099(4) 1.0939(9) 0.3055(4)
H64 H -0.0309 1.0601 0.2873
O4 O 0.0161(3) 1.0496(6) 0.3294(2)
C67 C 0.2745(8) 1.7684(15) 0.4151(9)
H65 H 0.3036 1.7538 0.4193
H66 H 0.2585 1.7333 0.3915
C68 C 0.2673(5) 1.8738(11) 0.4082(5)
H67 H 0.2935 1.9069 0.4176
H68 H 0.2562 1.8859 0.3793
C69 C 0.2377(7) 1.9122(15) 0.4302(11)
H69 H 0.2511 1.9144 0.4592
H70 H 0.2293 1.9760 0.4209
C70 C 0.2015(5) 1.8497(15) 0.4217(10)
H71 H 0.1893 1.8440 0.3926
H72 H 0.1808 1.8758 0.4336
C71 C 0.2152(6) 1.7538(18) 0.4398(8)
H73 H 0.2024 1.7426 0.4615
H74 H 0.2045 1.7063 0.4190
C72 C 0.2598(8) 1.739(3) 0.4562(9)
H75 H 0.2664 1.6731 0.4640
H76 H 0.2719 1.7800 0.4791
C73 C -0.0122(6) 1.6550(11) 0.2648(5)
H77 H -0.0053 1.5992 0.2819
H78 H -0.0415 1.6517 0.2503
C74 C -0.0044(5) 1.7415(10) 0.2909(4)
H79 H 0.0239 1.7404 0.3081
H80 H -0.0227 1.7411 0.3084
C75 C -0.0114(5) 1.8307(11) 0.2659(4)
H81 H -0.0409 1.8377 0.2528
H82 H -0.0025 1.8847 0.2838
C73A C 0.0122(6) 1.6550(11) 0.2352(5)
H77A H 0.0053 1.5992 0.2181
H78A H 0.0415 1.6517 0.2497
C74A C 0.0044(5) 1.7415(10) 0.2091(4)
H79A H -0.0239 1.7404 0.1919
H80A H 0.0227 1.7411 0.1916
C75A C 0.0114(5) 1.8307(11) 0.2341(4)
H81A H 0.0409 1.8377 0.2472
H82A H 0.0025 1.8847 0.2162
loop_
_geom_bond_atom_site_label_1
_geom_bond_atom_site_label_2
_geom_bond_site_symmetry_1
_geom_bond_site_symmetry_2
Zn1 I1 1_555 1_555
Zn2 I3 1_555 1_555
Zn3 I5 1_555 1_555
I2 Zn1 1_555 1_555
I4 Zn2 1_555 1_555
I6 Zn3 1_555 1_555
N1 Zn1 1_555 1_555
C1 N1 1_555 1_555
H1 C1 1_555 1_555
C2 C1 1_555 1_555
H2 C2 1_555 1_555
C3 C2 1_555 1_555
C4 C3 1_555 1_555
H3 C4 1_555 1_555
C5 N1 1_555 1_555
H4 C5 1_555 1_555
N2 Zn2 1_555 1_555
C6 N2 1_555 1_555
H5 C6 1_555 1_555
C7 C6 1_555 1_555
H6 C7 1_555 1_555
C8 C7 1_555 1_555
C9 C8 1_555 1_555
H7 C9 1_555 1_555
C10 N2 1_555 1_555
H8 C10 1_555 1_555
N3 C11 1_555 1_555
C11 H9 1_555 1_555
C12 C11 1_555 1_555
H10 C12 1_555 1_555
C13 C12 1_555 1_555
C14 C13 1_555 1_555
H11 C14 1_555 1_555
C15 N3 1_555 1_555
H12 C15 1_555 1_555
C16 C3 1_555 1_555
N4 C16 1_555 1_555
C17 C8 1_555 1_555
N5 C17 1_555 1_555
C18 C13 1_555 1_555
N6 C16 1_555 1_555
N7 Zn2 1_555 1_555
C19 N7 1_555 1_555
H13 C19 1_555 1_555
C20 C19 1_555 1_555
H14 C20 1_555 1_555
C21 C20 1_555 1_555
C22 C21 1_555 1_555
H15 C22 1_555 1_555
C23 N7 1_555 1_555
H16 C23 1_555 1_555
N8 Zn3 1_555 1_555
C24 N8 1_555 1_555
H17 C24 1_555 1_555
C25 C24 1_555 1_555
H18 C25 1_555 1_555
C26 C25 1_555 1_555
C27 C26 1_555 1_555
H19 C27 1_555 1_555
C28 N8 1_555 1_555
H20 C28 1_555 1_555
N9 C29 1_555 1_555
C29 H21 1_555 1_555
C30 C29 1_555 1_555
H22 C30 1_555 1_555
C31 C30 1_555 1_555
C32 C31 1_555 1_555
H23 C32 1_555 1_555
C33 N9 1_555 1_555
H24 C33 1_555 1_555
C34 C21 1_555 1_555
N10 C34 1_555 1_555
C35 C26 1_555 1_555
N11 C35 1_555 1_555
C36 C31 1_555 1_555
N12 C34 1_555 1_555
C37 C38 1_555 1_555
C38 H25 1_555 1_555
H26 C38 1_555 1_555
C39 C38 1_555 1_555
H27 C39 1_555 1_555
C40 C39 1_555 1_555
C41 C40 1_555 1_555
H28 C41 1_555 1_555
H29 C41 1_555 1_555
C42 C41 1_555 1_555
H30 C42 1_555 1_555
H31 C42 1_555 1_555
C43 C42 1_555 1_555
H32 C43 1_555 1_555
C44 C43 1_555 1_555
C45 C44 1_555 1_555
H33 C45 1_555 1_555
H34 C45 1_555 1_555
C46 C45 1_555 1_555
H35 C46 1_555 1_555
C47 C37 1_555 1_555
H36 C47 1_555 1_555
C48 C37 1_555 1_555
H37 C48 1_555 1_555
H38 C48 1_555 1_555
H39 C48 1_555 1_555
C49 C37 1_555 1_555
H40 C49 1_555 1_555
H41 C49 1_555 1_555
H42 C49 1_555 1_555
C50 C40 1_555 1_555
H43 C50 1_555 1_555
O1 C50 1_555 1_555
C51 C44 1_555 1_555
H44 C51 1_555 1_555
O2 C51 1_555 1_555
C52 C53 1_555 1_555
C53 H45 1_555 1_555
H46 C53 1_555 1_555
C54 C53 1_555 1_555
H47 C54 1_555 1_555
C55 C54 1_555 1_555
C56 C55 1_555 1_555
H48 C56 1_555 1_555
H49 C56 1_555 1_555
C57 C56 1_555 1_555
H50 C57 1_555 1_555
H51 C57 1_555 1_555
C58 C57 1_555 1_555
H52 C58 1_555 1_555
C59 C58 1_555 1_555
C60 C59 1_555 1_555
H53 C60 1_555 1_555
H54 C60 1_555 1_555
C61 C60 1_555 1_555
H55 C61 1_555 1_555
C62 C52 1_555 1_555
H56 C62 1_555 1_555
C63 C52 1_555 1_555
H57 C63 1_555 1_555
H58 C63 1_555 1_555
H59 C63 1_555 1_555
C64 C52 1_555 1_555
H60 C64 1_555 1_555
H61 C64 1_555 1_555
H62 C64 1_555 1_555
C65 C55 1_555 1_555
H63 C65 1_555 1_555
O3 C65 1_555 1_555
C66 C59 1_555 1_555
H64 C66 1_555 1_555
O4 C66 1_555 1_555
C67 H65 1_555 1_555
H66 C67 1_555 1_555
C68 C67 1_555 1_555
H67 C68 1_555 1_555
H68 C68 1_555 1_555
C69 C68 1_555 1_555
H69 C69 1_555 1_555
H70 C69 1_555 1_555
C70 C69 1_555 1_555
H71 C70 1_555 1_555
H72 C70 1_555 1_555
C71 C70 1_555 1_555
H73 C71 1_555 1_555
H74 C71 1_555 1_555
C72 C67 1_555 1_555
H75 C72 1_555 1_555
H76 C72 1_555 1_555
C73 H77 1_555 1_555
H78 C73 1_555 1_555
C74 C73 1_555 1_555
H79 C74 1_555 1_555
H80 C74 1_555 1_555
C75 C74 1_555 1_555
H81 C75 1_555 1_555
H82 C75 1_555 1_555
Zn1E N9 1_555 1_555
Zn3B N3 1_555 1_555
N3B Zn3 1_555 1_555
N9E Zn1 1_555 1_555
C73A C73 1_555 1_555
H77A C73A 1_555 1_555
H78A C73A 1_555 1_555
C74A C73A 1_555 1_555
H79A C74A 1_555 1_555
H80A C74A 1_555 1_555
C75A C75 1_555 1_555
H81A C75A 1_555 1_555
H82A C75A 1_555 1_555
C4 C5 1_555 1_555
C9 C10 1_555 1_555
C14 C15 1_555 1_555
N4 C17 1_555 1_555
N5 C18 1_555 1_555
C18 N6 1_555 1_555
C22 C23 1_555 1_555
C27 C28 1_555 1_555
C32 C33 1_555 1_555
N10 C35 1_555 1_555
N11 C36 1_555 1_555
C36 N12 1_555 1_555
C46 C47 1_555 1_555
C61 C62 1_555 1_555
C71 C72 1_555 1_555
C74A C75A 1_555 1_555

#END
