
#######################################################################
#
#                 Cambridge Crystallographic Data Centre
#                                CCDC 
#
#######################################################################
#
# If this CIF has been generated from an entry in the Cambridge 
# Structural Database, then it will include bibliographic, chemical, 
# crystal, experimental, refinement or atomic coordinate data resulting 
# from the CCDC's data processing and validation procedures.
#
#######################################################################

data_VUHNIX
_symmetry_cell_setting           monoclinic
_symmetry_space_group_name_H-M   'C 2/c'
_symmetry_Int_Tables_number      15
_space_group_name_Hall           '-C 2yn'
loop_
_symmetry_equiv_pos_site_id
_symmetry_equiv_pos_as_xyz
1 x,y,z
2 -x,y,1/2-z
3 1/2+x,1/2+y,z
4 1/2-x,1/2+y,1/2-z
5 -x,-y,-z
6 x,-y,1/2+z
7 1/2-x,1/2-y,-z
8 1/2+x,1/2-y,1/2+z
_cell_length_a                   34.8531(7)
_cell_length_b                   14.7838(3)
_cell_length_c                   31.0339(8)
_cell_angle_alpha                90
_cell_angle_beta                 101.296(2)
_cell_angle_gamma                90
_cell_volume                     15680.8
loop_
_atom_site_label
_atom_site_type_symbol
_atom_site_fract_x
_atom_site_fract_y
_atom_site_fract_z
Zn1 Zn 0.62606(2) 0.60176(6) 0.56149(3)
Zn2 Zn 0.41578(2) -0.12742(5) 0.41168(3)
I1 I 0.60849(3) 0.74183(4) 0.59733(3)
I2 I 0.47258(2) -0.15761(4) 0.37446(2)
N1 N 0.57947(16) 0.5154(4) 0.55797(19)
C1 C 0.56522(18) 0.4662(5) 0.5229(2)
H1 H 0.5772 0.4704 0.4980
C2 C 0.53354(18) 0.4087(5) 0.5211(2)
H2 H 0.5244 0.3736 0.4955
C3 C 0.51564(16) 0.4029(4) 0.5562(2)
C4 C 0.5322(3) 0.4488(8) 0.5942(3)
H3 H 0.5220 0.4427 0.6203
C5 C 0.5643(3) 0.5040(9) 0.5932(3)
H4 H 0.5758 0.5351 0.6194
N2 N 0.42946(15) -0.0196(3) 0.45500(16)
C6 C 0.46132(16) 0.0308(4) 0.4559(2)
H5 H 0.4797 0.0132 0.4386
C7 C 0.46829(17) 0.1080(4) 0.4813(2)
H6 H 0.4912 0.1429 0.4814
C8 C 0.44171(16) 0.1341(4) 0.50660(18)
C9 C 0.4090(2) 0.0812(5) 0.5064(2)
H7 H 0.3903 0.0970 0.5236
C10 C 0.4043(2) 0.0041(5) 0.4802(3)
H8 H 0.3822 -0.0334 0.4804
N3 N 0.3603(2) 0.3458(4) 0.6819(2)
C11 C 0.3912(4) 0.3942(8) 0.6815(4)
H9 H 0.3972 0.4415 0.7025
C12 C 0.4160(4) 0.3809(8) 0.6525(4)
H10 H 0.4389 0.4168 0.6544
C13 C 0.4073(2) 0.3156(4) 0.6209(2)
C14 C 0.3732(3) 0.2691(7) 0.6181(4)
H11 H 0.3652 0.2260 0.5954
C15 C 0.3502(3) 0.2862(7) 0.6492(4)
H12 H 0.3263 0.2539 0.6472
C16 C 0.48196(16) 0.3418(4) 0.5568(2)
N4 N 0.47591(13) 0.2747(3) 0.52822(16)
C17 C 0.44785(16) 0.2174(4) 0.53416(18)
N5 N 0.42530(14) 0.2261(3) 0.56364(18)
C18 C 0.43207(18) 0.2998(4) 0.5886(2)
N6 N 0.46117(15) 0.3589(4) 0.58746(19)
N7 N 0.37662(16) -0.0610(3) 0.36262(17)
C19 C 0.3813(3) 0.0267(5) 0.3570(3)
H13 H 0.4003 0.0582 0.3779
C20 C 0.3602(3) 0.0743(5) 0.3225(3)
H14 H 0.3644 0.1374 0.3198
C21 C 0.33294(18) 0.0300(4) 0.2919(2)
C22 C 0.32727(19) -0.0608(4) 0.2978(2)
H15 H 0.3084 -0.0936 0.2775
C23 C 0.3496(2) -0.1038(4) 0.3341(2)
H16 H 0.3452 -0.1663 0.3385
N8 N 0.31523(17) 0.4978(4) 0.2248(2)
C24 C 0.2851(2) 0.4648(5) 0.1977(3)
H17 H 0.2676 0.5054 0.1800
C25 C 0.2776(2) 0.3717(5) 0.1936(3)
H18 H 0.2556 0.3492 0.1734
C26 C 0.30297(18) 0.3139(4) 0.2200(2)
C27 C 0.3345(2) 0.3493(4) 0.2485(3)
H19 H 0.3526 0.3108 0.2668
C28 C 0.3394(3) 0.4432(5) 0.2502(3)
H20 H 0.3608 0.4682 0.2704
N9 N 0.16876(14) -0.0384(3) 0.10691(17)
C29 C 0.1770(2) 0.0486(4) 0.1021(2)
H21 H 0.1616 0.0808 0.0783
C30 C 0.2063(2) 0.0944(4) 0.1295(2)
H22 H 0.2111 0.1566 0.1249
C31 C 0.22885(15) 0.0468(4) 0.16407(17)
C32 C 0.22000(19) -0.0425(4) 0.1698(2)
H23 H 0.2344 -0.0761 0.1937
C33 C 0.19011(19) -0.0828(4) 0.1406(2)
H24 H 0.1845 -0.1448 0.1446
C34 C 0.30991(17) 0.0815(4) 0.25455(19)
N10 N 0.31926(15) 0.1685(3) 0.25180(17)
C35 C 0.29605(17) 0.2149(4) 0.22004(19)
N11 N 0.26688(14) 0.1793(3) 0.19006(16)
C36 C 0.26083(16) 0.0919(4) 0.19566(17)
N12 N 0.28065(14) 0.0394(3) 0.22766(15)
I3 I 0.37879(18) -0.2399(2) 0.44888(5)
I4 I 0.6464(2) 0.6031(7) 0.49029(12)
Zn3 Zn 0.33036(19) 0.6388(4) 0.2320(2)
I5 I 0.26821(18) 0.7280(3) 0.20672(16)
I6 I 0.37419(10) 0.6537(3) 0.30548(13)
Zn1G Zn 0.12606(2) -0.10176(6) 0.06149(3)
N3E N 0.3603(2) 0.6542(4) 0.1819(2)
N9G N 0.66876(14) 0.5384(3) 0.60691(17)
Zn3E Zn 0.33036(19) 0.3612(4) 0.7320(2)
C37 C 0.2516(8) 0.305(2) 0.0218(11)
C38 C 0.2239(7) 0.3527(15) -0.0121(8)
H25 H 0.1971 0.3453 -0.0109
C39 C 0.2309(6) 0.4035(15) -0.0438(7)
H26 H 0.2570 0.4052 -0.0488
C40 C 0.1999(7) 0.4615(18) -0.0740(7)
H27 H 0.2046 0.4605 -0.1045
H28 H 0.1734 0.4372 -0.0742
C41 C 0.2030(5) 0.5574(16) -0.0565(6)
C42 C 0.1885(4) 0.5747(12) -0.0150(5)
H29 H 0.1787 0.5199 -0.0017
C43 C 0.2024(8) 0.6459(16) 0.0156(9)
H30 H 0.1806 0.6652 0.0295
H31 H 0.2095 0.6982 -0.0013
C44 C 0.2926(9) 0.304(2) 0.0102(13)
H32 H 0.2917 0.3354 -0.0178
H33 H 0.3009 0.2414 0.0077
H34 H 0.3112 0.3349 0.0333
C45 C 0.2532(7) 0.355(2) 0.0622(9)
H35 H 0.2742 0.3284 0.0847
H36 H 0.2282 0.3452 0.0721
C46 C 0.2609(6) 0.465(2) 0.0608(7)
H37 H 0.2740 0.4837 0.0362
C47 C 0.2391(6) 0.5341(19) 0.0744(6)
C48 C 0.2389(8) 0.623(2) 0.0535(8)
H38 H 0.2630 0.6286 0.0411
H39 H 0.2404 0.6701 0.0766
C49 C 0.2388(11) 0.2119(19) 0.0303(13)
H40 H 0.2450 0.1710 0.0077
H41 H 0.2106 0.2114 0.0293
H42 H 0.2526 0.1918 0.0593
C50 C 0.2039(6) 0.515(2) 0.0951(6)
H43 H 0.2054 0.5522 0.1215
H44 H 0.2038 0.4508 0.1031
H45 H 0.1799 0.5293 0.0740
C51 C 0.2347(6) 0.6162(17) -0.0706(6)
H46 H 0.2321 0.6134 -0.1026
H47 H 0.2606 0.5937 -0.0565
H48 H 0.2318 0.6790 -0.0616
O1 O 0.2746(5) 0.515(2) 0.1004(6)
O2 O 0.1656(4) 0.6007(11) -0.0575(5)
C37F C 0.2484(8) 0.195(2) -0.0218(11)
C38F C 0.2761(7) 0.1473(15) 0.0121(8)
H25F H 0.3029 0.1547 0.0109
C39F C 0.2691(6) 0.0965(15) 0.0438(7)
H26F H 0.2430 0.0948 0.0488
C40F C 0.3001(7) 0.0385(18) 0.0740(7)
H27F H 0.2954 0.0395 0.1045
H28F H 0.3266 0.0628 0.0742
C41F C 0.2970(5) -0.0574(16) 0.0565(6)
C42F C 0.3115(4) -0.0747(12) 0.0150(5)
H29F H 0.3213 -0.0199 0.0017
C43F C 0.2976(8) -0.1459(16) -0.0156(9)
H30F H 0.3194 -0.1652 -0.0295
H31F H 0.2905 -0.1982 0.0013
C44F C 0.2074(9) 0.196(2) -0.0102(13)
H32F H 0.2083 0.1646 0.0178
H33F H 0.1991 0.2586 -0.0077
H34F H 0.1888 0.1651 -0.0333
C45F C 0.2468(7) 0.145(2) -0.0622(9)
H35F H 0.2258 0.1716 -0.0847
H36F H 0.2718 0.1548 -0.0721
C46F C 0.2391(6) 0.035(2) -0.0608(7)
H37F H 0.2260 0.0163 -0.0362
C47F C 0.2609(6) -0.0341(19) -0.0744(6)
C48F C 0.2611(8) -0.123(2) -0.0535(8)
H38F H 0.2370 -0.1286 -0.0411
H39F H 0.2596 -0.1701 -0.0766
C49F C 0.2612(11) 0.2881(19) -0.0303(13)
H40F H 0.2550 0.3290 -0.0077
H41F H 0.2894 0.2886 -0.0293
H42F H 0.2474 0.3082 -0.0593
C50F C 0.2961(6) -0.015(2) -0.0951(6)
H43F H 0.2946 -0.0522 -0.1215
H44F H 0.2962 0.0492 -0.1031
H45F H 0.3201 -0.0293 -0.0740
C51F C 0.2653(6) -0.1162(17) 0.0706(6)
H46F H 0.2679 -0.1134 0.1026
H47F H 0.2394 -0.0937 0.0565
H48F H 0.2682 -0.1790 0.0616
O1F O 0.2254(5) -0.015(2) -0.1004(6)
O2F O 0.3344(4) -0.1007(11) 0.0575(5)
C52 C 0.0533(19) 0.090(4) -0.284(2)
H49 H 0.0529 0.0462 -0.3082
H50 H 0.0765 0.0770 -0.2610
C53 C 0.0571(17) 0.186(5) -0.302(2)
H51 H 0.0817 0.1907 -0.3129
H52 H 0.0350 0.1980 -0.3263
C54 C 0.057(2) 0.255(4) -0.265(3)
H53 H 0.0596 0.3167 -0.2766
H54 H 0.0794 0.2437 -0.2408
C55 C 0.018(2) 0.246(5) -0.249(3)
H55 H -0.0035 0.2598 -0.2737
H56 H 0.0179 0.2907 -0.2256
C56 C 0.013(2) 0.151(6) -0.232(2)
H57 H 0.0323 0.1406 -0.2045
C57 C 0.017(2) 0.077(5) -0.265(3)
H58 H 0.0176 0.0174 -0.2504
H59 H -0.0067 0.0782 -0.2890
C52A C -0.0533(19) 0.090(4) -0.216(2)
H49A H -0.0529 0.0462 -0.1918
H50A H -0.0765 0.0770 -0.2390
C53A C -0.0571(17) 0.186(5) -0.198(2)
H51A H -0.0817 0.1907 -0.1871
H52A H -0.0350 0.1980 -0.1737
C54A C -0.057(2) 0.255(4) -0.235(3)
H53A H -0.0596 0.3167 -0.2234
H54A H -0.0794 0.2437 -0.2592
C55A C -0.018(2) 0.246(5) -0.251(3)
H55A H 0.0035 0.2598 -0.2263
H56A H -0.0179 0.2907 -0.2744
C56A C -0.013(2) 0.151(6) -0.268(2)
H57A H -0.0323 0.1406 -0.2955
C57A C -0.017(2) 0.077(5) -0.235(3)
H58A H -0.0176 0.0174 -0.2496
H59A H 0.0067 0.0782 -0.2110
C58? C 0.087(3) 0.248(10) -0.099(4)
H60? H 0.1047 0.2823 -0.0764
H61? H 0.0599 0.2528 -0.0925
C59? C 0.099(4) 0.148(9) -0.097(3)
H62? H 0.0785 0.1120 -0.1159
H63? H 0.1010 0.1259 -0.0663
C60? C 0.138(3) 0.134(6) -0.111(5)
H64? H 0.1594 0.1646 -0.0903
H65? H 0.1445 0.0686 -0.1111
C61? C 0.136(3) 0.173(10) -0.158(4)
H66? H 0.1153 0.1412 -0.1785
H67? H 0.1613 0.1629 -0.1670
C62? C 0.127(4) 0.275(9) -0.157(3)
H68? H 0.1475 0.3062 -0.1359
H69? H 0.1267 0.3008 -0.1868
C63? C 0.087(3) 0.287(6) -0.145(5)
H70? H 0.0806 0.3527 -0.1446
H71? H 0.0665 0.2572 -0.1667
C64? C -0.113(2) 0.563(6) -0.291(3)
H72? H -0.1217 0.5417 -0.2644
H73? H -0.1265 0.6200 -0.3007
C65? C -0.068(3) 0.581(5) -0.279(3)
H74? H -0.0599 0.6114 -0.3043
H75? H -0.0627 0.6223 -0.2536
C66? C -0.046(2) 0.492(7) -0.269(3)
H76? H -0.0534 0.4634 -0.2426
H77? H -0.0175 0.5041 -0.2618
C67? C -0.056(2) 0.430(6) -0.309(3)
H78? H -0.0401 0.3742 -0.3043
H79? H -0.0515 0.4608 -0.3355
C68? C -0.100(3) 0.404(5) -0.314(3)
H80? H -0.1072 0.3582 -0.3377
H81? H -0.1057 0.3799 -0.2867
C69? C -0.124(2) 0.492(7) -0.327(3)
H82? H -0.1180 0.5158 -0.3553
H83? H -0.1520 0.4789 -0.3318
C70? C 0.1256(11) 0.431(3) -0.1295(16)
C71? C 0.1228(7) 0.3416(18) -0.1515(9)
H84? H 0.1098 0.3401 -0.1814
C72? C 0.1377(8) 0.257(2) -0.1325(10)
H85? H 0.1570 0.2557 -0.1062
C73? C 0.1214(9) 0.167(2) -0.1559(14)
H86? H 0.1092 0.1790 -0.1869
H87? H 0.1430 0.1231 -0.1553
C74? C 0.0928(9) 0.1300(17) -0.1331(8)
C75? C 0.0564(11) 0.1736(16) -0.1423(10)
H88? H 0.0575 0.2229 -0.1641
C76? C 0.0211(10) 0.204(5) -0.1101(12)
H89? H -0.0014 0.2309 -0.1304
H90? H 0.0115 0.1464 -0.0993
C77? C 0.0285(7) 0.2509(15) -0.0804(7)
H91? H 0.0528 0.2304 -0.0607
H92? H 0.0071 0.2505 -0.0637
C78? C 0.0339(5) 0.3434(14) -0.0966(7)
C79? C 0.0728(6) 0.3854(15) -0.0870(7)
H93? H 0.0937 0.3454 -0.0704
C80? C 0.0876(8) 0.4573(16) -0.1132(9)
H94? H 0.0927 0.5126 -0.0950
H95? H 0.0669 0.4719 -0.1390
C81? C 0.1370(15) 0.513(3) -0.1632(19)
H96? H 0.1134 0.5305 -0.1843
H97? H 0.1567 0.4904 -0.1790
H98? H 0.1473 0.5660 -0.1456
C82? C 0.1610(10) 0.428(3) -0.0820(19)
H99? H 0.1488 0.4124 -0.0571
H100? H 0.1737 0.4868 -0.0771
H101? H 0.1805 0.3816 -0.0850
C83? C 0.0046(7) 0.3713(19) -0.1362(8)
H102? H -0.0013 0.4358 -0.1341
H103? H -0.0194 0.3360 -0.1377
H104? H 0.0153 0.3603 -0.1627
C84? C 0.1046(13) 0.088(2) -0.0910(11)
H105? H 0.1176 0.1332 -0.0698
H106? H 0.1228 0.0387 -0.0932
H107? H 0.0815 0.0645 -0.0811
O3? O 0.0428(4) 0.4101(10) -0.0626(5)
O4? O 0.0623(6) 0.0848(11) -0.1631(6)
C85? C 0.207(3) 0.596(6) 0.030(3)
H108? H 0.2048 0.5403 0.0118
H109? H 0.1884 0.6413 0.0149
C86? C 0.199(3) 0.575(6) 0.076(4)
H110? H 0.1743 0.5411 0.0738
H111? H 0.2205 0.5369 0.0929
C87? C 0.197(3) 0.664(9) 0.101(3)
H112? H 0.2126 0.6590 0.1311
H113? H 0.1693 0.6755 0.1032
C88? C 0.212(3) 0.742(5) 0.076(3)
H114? H 0.1933 0.7548 0.0487
H115? H 0.2146 0.7976 0.0947
C89? C 0.252(2) 0.719(8) 0.066(3)
H116? H 0.2713 0.7081 0.0934
H117? H 0.2617 0.7698 0.0502
C90? C 0.249(3) 0.633(8) 0.037(4)
H118? H 0.2558 0.6479 0.0080
H119? H 0.2679 0.5866 0.0511
Zn4? Zn 0.3201(4) 0.6317(7) 0.2233(5)
I7? I 0.2574(4) 0.7132(5) 0.1941(5)
I8? I 0.3662(7) -0.2249(11) 0.4461(4)
I9? I 0.65119(13) 0.5846(6) 0.48886(18)
I10? I 0.3663(6) 0.6678(9) 0.2979(5)
H120? H -0.0136 0.1472 -0.2241
loop_
_geom_bond_atom_site_label_1
_geom_bond_atom_site_label_2
_geom_bond_site_symmetry_1
_geom_bond_site_symmetry_2
Zn1 I1 1_555 1_555
Zn2 I2 1_555 1_555
N1 Zn1 1_555 1_555
C1 N1 1_555 1_555
H1 C1 1_555 1_555
C2 C1 1_555 1_555
H2 C2 1_555 1_555
C3 C2 1_555 1_555
C4 C3 1_555 1_555
H3 C4 1_555 1_555
C5 N1 1_555 1_555
H4 C5 1_555 1_555
N2 Zn2 1_555 1_555
C6 N2 1_555 1_555
H5 C6 1_555 1_555
C7 C6 1_555 1_555
H6 C7 1_555 1_555
C8 C7 1_555 1_555
C9 C8 1_555 1_555
H7 C9 1_555 1_555
C10 N2 1_555 1_555
H8 C10 1_555 1_555
N3 C11 1_555 1_555
C11 H9 1_555 1_555
C12 C11 1_555 1_555
H10 C12 1_555 1_555
C13 C12 1_555 1_555
C14 C13 1_555 1_555
H11 C14 1_555 1_555
C15 N3 1_555 1_555
H12 C15 1_555 1_555
C16 C3 1_555 1_555
N4 C16 1_555 1_555
C17 C8 1_555 1_555
N5 C17 1_555 1_555
C18 C13 1_555 1_555
N6 C16 1_555 1_555
N7 Zn2 1_555 1_555
C19 N7 1_555 1_555
H13 C19 1_555 1_555
C20 C19 1_555 1_555
H14 C20 1_555 1_555
C21 C20 1_555 1_555
C22 C21 1_555 1_555
H15 C22 1_555 1_555
C23 N7 1_555 1_555
H16 C23 1_555 1_555
N8 C24 1_555 1_555
C24 H17 1_555 1_555
C25 C24 1_555 1_555
H18 C25 1_555 1_555
C26 C25 1_555 1_555
C27 C26 1_555 1_555
H19 C27 1_555 1_555
C28 N8 1_555 1_555
H20 C28 1_555 1_555
N9 C29 1_555 1_555
C29 H21 1_555 1_555
C30 C29 1_555 1_555
H22 C30 1_555 1_555
C31 C30 1_555 1_555
C32 C31 1_555 1_555
H23 C32 1_555 1_555
C33 N9 1_555 1_555
H24 C33 1_555 1_555
C34 C21 1_555 1_555
N10 C34 1_555 1_555
C35 C26 1_555 1_555
N11 C35 1_555 1_555
C36 C31 1_555 1_555
N12 C34 1_555 1_555
I3 Zn2 1_555 1_555
I4 Zn1 1_555 1_555
Zn3 N8 1_555 1_555
I5 Zn3 1_555 1_555
I6 Zn3 1_555 1_555
C37 C38 1_555 1_555
C38 H25 1_555 1_555
C39 C38 1_555 1_555
H26 C39 1_555 1_555
C40 C39 1_555 1_555
H27 C40 1_555 1_555
H28 C40 1_555 1_555
C41 C40 1_555 1_555
C42 C41 1_555 1_555
H29 C42 1_555 1_555
C43 C42 1_555 1_555
H30 C43 1_555 1_555
H31 C43 1_555 1_555
C44 C37 1_555 1_555
H32 C44 1_555 1_555
H33 C44 1_555 1_555
H34 C44 1_555 1_555
C45 C37 1_555 1_555
H35 C45 1_555 1_555
H36 C45 1_555 1_555
C46 C45 1_555 1_555
H37 C46 1_555 1_555
C47 C46 1_555 1_555
C48 C43 1_555 1_555
H38 C48 1_555 1_555
H39 C48 1_555 1_555
C49 C37 1_555 1_555
H40 C49 1_555 1_555
H41 C49 1_555 1_555
H42 C49 1_555 1_555
C50 C47 1_555 1_555
H43 C50 1_555 1_555
H44 C50 1_555 1_555
H45 C50 1_555 1_555
C51 C41 1_555 1_555
H46 C51 1_555 1_555
H47 C51 1_555 1_555
H48 C51 1_555 1_555
O1 C46 1_555 1_555
O2 C41 1_555 1_555
C52 H49 1_555 1_555
H50 C52 1_555 1_555
C53 C52 1_555 1_555
H51 C53 1_555 1_555
H52 C53 1_555 1_555
C54 C53 1_555 1_555
H53 C54 1_555 1_555
H54 C54 1_555 1_555
C55 C54 1_555 1_555
H55 C55 1_555 1_555
H56 C55 1_555 1_555
C56 C55 1_555 1_555
H57 C56 1_555 1_555
C57 C52 1_555 1_555
H58 C57 1_555 1_555
H59 C57 1_555 1_555
Zn1G N9 1_555 1_555
N3E Zn3 1_555 1_555
N9G Zn1 1_555 1_555
Zn3E N3 1_555 1_555
C37F C38F 1_555 1_555
C38F H25F 1_555 1_555
C39F C38F 1_555 1_555
H26F C39F 1_555 1_555
C40F C39F 1_555 1_555
H27F C40F 1_555 1_555
H28F C40F 1_555 1_555
C41F C40F 1_555 1_555
C42F C41F 1_555 1_555
H29F C42F 1_555 1_555
C43F C42F 1_555 1_555
H30F C43F 1_555 1_555
H31F C43F 1_555 1_555
C44F C37F 1_555 1_555
H32F C44F 1_555 1_555
H33F C44F 1_555 1_555
H34F C44F 1_555 1_555
C45F C37F 1_555 1_555
H35F C45F 1_555 1_555
H36F C45F 1_555 1_555
C46F C45F 1_555 1_555
H37F C46F 1_555 1_555
C47F C46F 1_555 1_555
C48F C43F 1_555 1_555
H38F C48F 1_555 1_555
H39F C48F 1_555 1_555
C49F C37F 1_555 1_555
H40F C49F 1_555 1_555
H41F C49F 1_555 1_555
H42F C49F 1_555 1_555
C50F C47F 1_555 1_555
H43F C50F 1_555 1_555
H44F C50F 1_555 1_555
H45F C50F 1_555 1_555
C51F C41F 1_555 1_555
H46F C51F 1_555 1_555
H47F C51F 1_555 1_555
H48F C51F 1_555 1_555
O1F C46F 1_555 1_555
O2F C41F 1_555 1_555
C52A H49A 1_555 1_555
H50A C52A 1_555 1_555
C53A C52A 1_555 1_555
H51A C53A 1_555 1_555
H52A C53A 1_555 1_555
C54A C53A 1_555 1_555
H53A C54A 1_555 1_555
H54A C54A 1_555 1_555
C55A C54A 1_555 1_555
H55A C55A 1_555 1_555
H56A C55A 1_555 1_555
C56A C55A 1_555 1_555
H57A C56A 1_555 1_555
C57A C52A 1_555 1_555
H58A C57A 1_555 1_555
H59A C57A 1_555 1_555
C4 C5 1_555 1_555
C9 C10 1_555 1_555
C14 C15 1_555 1_555
N4 C17 1_555 1_555
N5 C18 1_555 1_555
C18 N6 1_555 1_555
C22 C23 1_555 1_555
C27 C28 1_555 1_555
C32 C33 1_555 1_555
N10 C35 1_555 1_555
N11 C36 1_555 1_555
C36 N12 1_555 1_555
C42 O2 1_555 1_555
C47 C48 1_555 1_555
C47 O1 1_555 1_555
C56 C57 1_555 1_555
C42F O2F 1_555 1_555
C47F C48F 1_555 1_555
C47F O1F 1_555 1_555
C56A C57A 1_555 1_555

#END
