
#######################################################################
#
#                 Cambridge Crystallographic Data Centre
#                                CCDC 
#
#######################################################################
#
# If this CIF has been generated from an entry in the Cambridge 
# Structural Database, then it will include bibliographic, chemical, 
# crystal, experimental, refinement or atomic coordinate data resulting 
# from the CCDC's data processing and validation procedures.
#
#######################################################################

data_VUHWEA
_symmetry_cell_setting           orthorhombic
_symmetry_space_group_name_H-M   'P b c n'
_symmetry_Int_Tables_number      60
_space_group_name_Hall           '-P 2n 2ab'
loop_
_symmetry_equiv_pos_site_id
_symmetry_equiv_pos_as_xyz
1 x,y,z
2 1/2-x,1/2+y,z
3 x,-y,1/2+z
4 1/2-x,1/2-y,1/2+z
5 -x,-y,-z
6 1/2+x,1/2-y,-z
7 -x,y,1/2-z
8 1/2+x,1/2+y,1/2-z
_cell_length_a                   12.085(4)
_cell_length_b                   6.806(3)
_cell_length_c                   14.639(6)
_cell_angle_alpha                90
_cell_angle_beta                 90
_cell_angle_gamma                90
_cell_volume                     1204.07
loop_
_atom_site_label
_atom_site_type_symbol
_atom_site_fract_x
_atom_site_fract_y
_atom_site_fract_z
Ca1 Ca 0.0000 0.2230(2) 0.2500
O1 O 0.0513(3) 0.0496(5) 0.3896(2)
O2 O 0.1534(2) 0.4401(4) 0.3016(2)
O3 O -0.0053(3) 0.5161(4) 0.3726(2)
O4 O 0.1628(3) 0.0526(5) 0.2017(2)
N1 N 0.0788(3) 0.2144(6) 0.4793(2)
C1 C 0.0366(3) 0.0420(6) 0.4612(2)
C2 C 0.1509(4) 0.3193(6) 0.4171(3)
C3 C 0.0960(3) 0.4755(6) 0.3604(3)
H1 H 0.070(4) 0.249(8) 0.525(3)
H2 H 0.207(4) 0.214(7) 0.367(3)
H3 H 0.215(4) 0.384(6) 0.447(2)
H4 H 0.220(3) 0.028(6) 0.244(3)
C1D C -0.0366(3) -0.0420(6) 0.5388(2)
O1D O -0.0513(3) -0.0496(5) 0.6104(2)
N1D N -0.0788(3) -0.2144(6) 0.5207(2)
C2D C -0.1509(4) -0.3193(6) 0.5829(3)
C3D C -0.0960(3) -0.4755(6) 0.6396(3)
O2D O -0.1534(2) -0.4401(4) 0.6984(2)
O3D O 0.0053(3) -0.5161(4) 0.6274(2)
H2D H -0.207(4) -0.214(7) 0.633(3)
H3D H -0.215(4) -0.384(6) 0.553(2)
H1D H -0.070(4) -0.249(8) 0.475(3)
O4F O -0.1628(3) 0.0526(5) 0.2983(2)
H4F H -0.220(3) 0.028(6) 0.256(3)
O1F O -0.0513(3) 0.0496(5) 0.1104(2)
O2F O -0.1534(2) 0.4401(4) 0.1984(2)
O3F O 0.0053(3) 0.5161(4) 0.1274(2)
Ca1B Ca 0.0000 -0.2230(2) 0.7500
O5 O 0.1737(3) -0.2623(5) 0.0883(2)
H5 H 0.116(4) -0.389(8) 0.102(3)
H6 H 0.219(4) -0.301(7) 0.109(3)
loop_
_geom_bond_atom_site_label_1
_geom_bond_atom_site_label_2
_geom_bond_site_symmetry_1
_geom_bond_site_symmetry_2
Ca1 O1 1_555 1_555
O1 C1 1_555 1_555
O2 Ca1 1_555 1_555
O3 Ca1 1_555 1_555
O4 Ca1 1_555 1_555
O5 H5 1_555 1_555
N1 C1 1_555 1_555
C1 C1D 1_555 1_555
C2 N1 1_555 1_555
C3 O2 1_555 1_555
H1 N1 1_555 1_555
H2 C2 1_555 1_555
H3 C2 1_555 1_555
H4 O4 1_555 1_555
H6 O5 1_555 1_555
C1D O1D 1_555 1_555
O1D Ca1B 1_555 1_555
N1D C1D 1_555 1_555
C2D N1D 1_555 1_555
C3D C2D 1_555 1_555
O2D C3D 1_555 1_555
O3D C3D 1_555 1_555
H2D C2D 1_555 1_555
H3D C2D 1_555 1_555
H1D N1D 1_555 1_555
O4F Ca1 1_555 1_555
H4F O4F 1_555 1_555
O1F Ca1 1_555 1_555
O2F Ca1 1_555 1_555
O3F Ca1 1_555 1_555
Ca1B O2D 1_555 1_555
O3 C3 1_555 1_555
C2 C3 1_555 1_555
O3D Ca1B 1_555 1_555

#END
