
#######################################################################
#
#                 Cambridge Crystallographic Data Centre
#                                CCDC 
#
#######################################################################
#
# If this CIF has been generated from an entry in the Cambridge 
# Structural Database, then it will include bibliographic, chemical, 
# crystal, experimental, refinement or atomic coordinate data resulting 
# from the CCDC's data processing and validation procedures.
#
#######################################################################

data_VUHXEB
_symmetry_cell_setting           monoclinic
_symmetry_space_group_name_H-M   'C 2/c'
_symmetry_Int_Tables_number      15
_space_group_name_Hall           '-C 2yn'
loop_
_symmetry_equiv_pos_site_id
_symmetry_equiv_pos_as_xyz
1 x,y,z
2 1/2+x,1/2+y,z
3 -x,y,1/2-z
4 1/2-x,1/2+y,1/2-z
5 -x,-y,-z
6 1/2-x,1/2-y,-z
7 x,-y,1/2+z
8 1/2+x,1/2-y,1/2+z
_cell_length_a                   22.089(9)
_cell_length_b                   10.067(5)
_cell_length_c                   15.715(6)
_cell_angle_alpha                90
_cell_angle_beta                 110.54(3)
_cell_angle_gamma                90
_cell_volume                     3272.39
loop_
_atom_site_label
_atom_site_type_symbol
_atom_site_fract_x
_atom_site_fract_y
_atom_site_fract_z
Cl1 Cl 0.19479(3) 0.39551(6) 0.22854(4)
O1 O 0.24312(9) 0.3160(2) 0.2937(1)
O2 O 0.21826(8) 0.5295(2) 0.2355(1)
O3 O 0.13717(9) 0.3932(2) 0.2505(1)
O4 O 0.1829(1) 0.3459(2) 0.1397(1)
Li1 Li 0.3228(2) 0.2129(4) 0.2942(3)
N1 N 0.39900(9) 0.1762(2) 0.4204(1)
C1 C 0.3832(1) 0.1587(2) 0.4950(2)
C2 C 0.3126(1) 0.1548(3) 0.4817(2)
C3 C 0.4296(1) 0.1464(3) 0.5813(2)
C4 C 0.4936(1) 0.1546(3) 0.5915(2)
C5 C 0.5105(1) 0.1697(3) 0.5163(2)
C6 C 0.4625(1) 0.1784(3) 0.4317(2)
C7 C 0.4793(1) 0.1880(3) 0.3473(2)
N2 N 0.3511(1) 0.3424(2) 0.2070(1)
C8 C 0.3440(1) 0.3053(3) 0.1219(2)
C9 C 0.3183(2) 0.1697(3) 0.0934(2)
C10 C 0.3603(2) 0.3873(3) 0.0627(2)
C11 C 0.3849(2) 0.5103(3) 0.0928(3)
C12 C 0.3915(2) 0.5505(3) 0.1786(3)
C13 C 0.3744(1) 0.4645(3) 0.2348(2)
C14 C 0.3816(2) 0.5057(3) 0.3293(2)
H1 H 0.2928 0.2367 0.4552
H2 H 0.2909 0.0818 0.4423
H3 H 0.3061 0.1409 0.5387
H4 H 0.4161 0.1309 0.6323
H5 H 0.5273 0.1517 0.6516
H6 H 0.5560 0.1718 0.5208
H7 H 0.4782 0.2865 0.3292
H8 H 0.5202 0.1515 0.3561
H9 H 0.4473 0.1412 0.2978
H10 H 0.2806 0.1474 0.1076
H11 H 0.3069 0.1614 0.0288
H12 H 0.3509 0.1049 0.1218
H13 H 0.3540 0.3550 0.0018
H14 H 0.3956 0.5663 0.0523
H15 H 0.4069 0.6385 0.1991
H16 H 0.3985 0.5950 0.3435
H17 H 0.3415 0.5002 0.3387
H18 H 0.4118 0.4467 0.3729
Li1C Li 0.1772(2) 0.7129(4) 0.2058(3)
O2C O 0.28174(8) 0.0295(2) 0.2645(1)
O1C O 0.25688(9) 0.8160(2) 0.2063(1)
N1C N 0.10100(9) 0.6762(2) 0.0796(1)
N2C N 0.1489(1) 0.8424(2) 0.2930(1)
Cl1C Cl 0.30521(3) -0.10449(6) 0.27146(4)
Cl1C_2 Cl 0.30521(3) 0.89551(6) 0.27146(4)
C1C C 0.1168(1) 0.6587(2) 0.0050(2)
C6C C 0.0375(1) 0.6784(3) 0.0683(2)
C8C C 0.1560(1) 0.8053(3) 0.3781(2)
C13C C 0.1256(1) 0.9645(3) 0.2652(2)
O1C_2 O 0.25688(9) -0.1840(2) 0.2063(1)
O3C O 0.36283(9) -0.1068(2) 0.2495(1)
O4C O 0.3171(1) -0.1541(2) 0.3603(1)
C2C C 0.1874(1) 0.6548(3) 0.0183(2)
C3C C 0.0704(1) 0.6464(3) -0.0813(2)
C5C C -0.0105(1) 0.6697(3) -0.0163(2)
C7C C 0.0207(1) 0.6880(3) 0.1527(2)
C9C C 0.1817(2) 0.6697(3) 0.4066(2)
C10C C 0.1397(2) 0.8873(3) 0.4373(2)
C12C C 0.1085(2) 1.0505(3) 0.3214(3)
C14C C 0.1184(2) 1.0057(3) 0.1707(2)
H1C H 0.2072 0.7367 0.0448
H2C H 0.2091 0.5818 0.0577
H3C H 0.1939 0.6409 -0.0387
C4C C 0.0064(1) 0.6546(3) -0.0915(2)
H4C H 0.0839 0.6309 -0.1323
H6C H -0.0560 0.6718 -0.0208
H7C H 0.0218 0.7865 0.1708
H8C H -0.0202 0.6515 0.1439
H9C H 0.0527 0.6412 0.2022
H10C H 0.2194 0.6474 0.3924
H11C H 0.1931 0.6614 0.4712
H12C H 0.1491 0.6049 0.3782
C11C C 0.1151(2) 1.0103(3) 0.4072(3)
H13C H 0.1460 0.8550 0.4982
H15C H 0.0931 1.1385 0.3009
H16C H 0.1015 1.0950 0.1565
H17C H 0.1585 1.0002 0.1613
H18C H 0.0882 0.9467 0.1271
H5C H -0.0273 0.6517 -0.1516
H14C H 0.1044 1.0663 0.4477
loop_
_geom_bond_atom_site_label_1
_geom_bond_atom_site_label_2
_geom_bond_site_symmetry_1
_geom_bond_site_symmetry_2
Cl1 O1 1_555 1_555
O1 Li1 1_555 1_555
O2 Cl1 1_555 1_555
O3 Cl1 1_555 1_555
O4 Cl1 1_555 1_555
Li1 N1 1_555 1_555
N1 C1 1_555 1_555
C1 C2 1_555 1_555
C2 H1 1_555 1_555
C3 C1 1_555 1_555
C4 C3 1_555 1_555
C5 C4 1_555 1_555
C6 N1 1_555 1_555
C7 C6 1_555 1_555
N2 Li1 1_555 1_555
C8 N2 1_555 1_555
C9 C8 1_555 1_555
C10 C8 1_555 1_555
C11 C10 1_555 1_555
C12 C11 1_555 1_555
C13 N2 1_555 1_555
C14 C13 1_555 1_555
H2 C2 1_555 1_555
H3 C2 1_555 1_555
H4 C3 1_555 1_555
H5 C4 1_555 1_555
H6 C5 1_555 1_555
H7 C7 1_555 1_555
H8 C7 1_555 1_555
H9 C7 1_555 1_555
H10 C9 1_555 1_555
H11 C9 1_555 1_555
H12 C9 1_555 1_555
H13 C10 1_555 1_555
H14 C11 1_555 1_555
H15 C12 1_555 1_555
H16 C14 1_555 1_555
H17 C14 1_555 1_555
H18 C14 1_555 1_555
Li1C O2 1_555 1_555
O2C Li1 1_555 1_555
O1C Li1C 1_555 1_555
N1C Li1C 1_555 1_555
N2C Li1C 1_555 1_555
Cl1C O2C 1_555 1_555
Cl1C_2 O1C 1_555 1_555
C1C N1C 1_555 1_555
C6C N1C 1_555 1_555
C8C N2C 1_555 1_555
C13C N2C 1_555 1_555
O1C_2 Cl1C 1_555 1_555
O3C Cl1C 1_555 1_555
O4C Cl1C 1_555 1_555
C2C C1C 1_555 1_555
C3C C1C 1_555 1_555
C5C C6C 1_555 1_555
C7C C6C 1_555 1_555
C9C C8C 1_555 1_555
C10C C8C 1_555 1_555
C12C C13C 1_555 1_555
C14C C13C 1_555 1_555
H1C C2C 1_555 1_555
H2C C2C 1_555 1_555
H3C C2C 1_555 1_555
C4C C3C 1_555 1_555
H4C C3C 1_555 1_555
H6C C5C 1_555 1_555
H7C C7C 1_555 1_555
H8C C7C 1_555 1_555
H9C C7C 1_555 1_555
H10C C9C 1_555 1_555
H11C C9C 1_555 1_555
H12C C9C 1_555 1_555
C11C C10C 1_555 1_555
H13C C10C 1_555 1_555
H15C C12C 1_555 1_555
H16C C14C 1_555 1_555
H17C C14C 1_555 1_555
H18C C14C 1_555 1_555
H5C C4C 1_555 1_555
H14C C11C 1_555 1_555
C5 C6 1_555 1_555
C12 C13 1_555 1_555
C5C C4C 1_555 1_555
C12C C11C 1_555 1_555

#END
