
#######################################################################
#
#                 Cambridge Crystallographic Data Centre
#                                CCDC 
#
#######################################################################
#
# If this CIF has been generated from an entry in the Cambridge 
# Structural Database, then it will include bibliographic, chemical, 
# crystal, experimental, refinement or atomic coordinate data resulting 
# from the CCDC's data processing and validation procedures.
#
#######################################################################

data_VUJLET
_symmetry_cell_setting           orthorhombic
_symmetry_space_group_name_H-M   'P n m a'
_symmetry_Int_Tables_number      62
_space_group_name_Hall           '-P 2ac 2n'
loop_
_symmetry_equiv_pos_site_id
_symmetry_equiv_pos_as_xyz
1 x,y,z
2 1/2-x,-y,1/2+z
3 1/2+x,1/2-y,1/2-z
4 -x,1/2+y,-z
5 -x,-y,-z
6 1/2+x,y,1/2-z
7 1/2-x,1/2+y,1/2+z
8 x,1/2-y,z
_cell_length_a                   20.305(5)
_cell_length_b                   10.022(3)
_cell_length_c                   17.220(5)
_cell_angle_alpha                90
_cell_angle_beta                 90
_cell_angle_gamma                90
_cell_volume                     3504.21
loop_
_atom_site_label
_atom_site_type_symbol
_atom_site_fract_x
_atom_site_fract_y
_atom_site_fract_z
In1 In 0.36991(3) 0.2500 0.62654(3)
C1 C 0.3744(3) 0.4946(7) 0.5735(5)
C2 C 0.3766(3) 0.6315(6) 0.5350(4)
C3 C 0.3744(4) 0.7500 0.5764(5)
H1 H 0.3715 0.7500 0.6303
C4 C 0.3820(3) 0.6313(5) 0.4539(3)
H2 H 0.3832 0.5514 0.4265
C5 C 0.3855(3) 0.7500 0.4161(4)
C6 C 0.3849(6) 0.7500 0.3280(7)
C7 C 0.3268(4) 0.7500 0.2901(4)
H3 H 0.2885 0.7500 0.3196
C8 C 0.3207(4) 0.7500 0.2093(5)
C9 C 0.3776(6) 0.7500 0.1636(9)
H4 H 0.3740 0.7500 0.1097
C10 C 0.4410(7) 0.7500 0.1987(7)
H5 H 0.4791 0.7500 0.1687
C11 C 0.4441(4) 0.7500 0.2802(5)
C12 C 0.2541(6) 0.7500 0.1757(7)
C13 C 0.5090(4) 0.7500 0.3150(5)
O1 O 0.3732(2) 0.4947(7) 0.6471(4)
O2 O 0.3686(2) 0.3970(4) 0.5331(3)
O3 O 0.2047(3) 0.7500 0.2173(4)
O4 O 0.2471(3) 0.7500 0.1000(4)
O5 O 0.5592(3) 0.7500 0.2708(4)
O6 O 0.5193(3) 0.7500 0.3877(4)
C1G C 0.3744(3) 1.0054(7) 0.5735(5)
C2G C 0.3766(3) 0.8685(6) 0.5350(4)
C4G C 0.3820(3) 0.8687(5) 0.4539(3)
H2G H 0.3832 0.9486 0.4265
O1G O 0.3732(2) 1.0053(7) 0.6471(4)
O2G O 0.3686(2) 1.1030(4) 0.5331(3)
In1_2 In 0.36991(3) 1.2500 0.62654(3)
In1A In 0.13009(3) 0.7500 0.12654(3)
In1C In 0.63009(3) 0.7500 0.37346(3)
O1G_2 O 0.3732(2) 0.0053(7) 0.6471(4)
O2G_2 O 0.3686(2) 0.1030(4) 0.5331(3)
O3A O 0.2953(3) 0.2500 0.7173(4)
O4A O 0.2529(3) 0.2500 0.6000(4)
O5C O 0.4408(3) 0.2500 0.7292(4)
O6C O 0.4807(3) 0.2500 0.6123(4)
loop_
_geom_bond_atom_site_label_1
_geom_bond_atom_site_label_2
_geom_bond_site_symmetry_1
_geom_bond_site_symmetry_2
In1 O1 1_555 1_555
C1 C2 1_555 1_555
C2 C3 1_555 1_555
C3 H1 1_555 1_555
C4 C2 1_555 1_555
H2 C4 1_555 1_555
C5 C4 1_555 1_555
C6 C5 1_555 1_555
C7 C6 1_555 1_555
H3 C7 1_555 1_555
C8 C7 1_555 1_555
C9 C8 1_555 1_555
H4 C9 1_555 1_555
C10 C9 1_555 1_555
H5 C10 1_555 1_555
C11 C6 1_555 1_555
C12 C8 1_555 1_555
C13 C11 1_555 1_555
O1 C1 1_555 1_555
O2 In1 1_555 1_555
O3 C12 1_555 1_555
O4 C12 1_555 1_555
O5 C13 1_555 1_555
O6 C13 1_555 1_555
C1G C2G 1_555 1_555
C2G C3 1_555 1_555
C4G C5 1_555 1_555
H2G C4G 1_555 1_555
O1G C1G 1_555 1_555
O2G C1G 1_555 1_555
In1_2 O1G 1_555 1_555
In1A O3 1_555 1_555
In1C O5 1_555 1_555
O1G_2 In1 1_555 1_555
O2G_2 In1 1_555 1_555
O3A In1 1_555 1_555
O4A In1 1_555 1_555
O5C In1 1_555 1_555
O6C In1 1_555 1_555
C1 O2 1_555 1_555
C10 C11 1_555 1_555
O4 In1A 1_555 1_555
O6 In1C 1_555 1_555
C2G C4G 1_555 1_555
O2G In1_2 1_555 1_555

#END
