
#######################################################################
#
#                 Cambridge Crystallographic Data Centre
#                                CCDC 
#
#######################################################################
#
# If this CIF has been generated from an entry in the Cambridge 
# Structural Database, then it will include bibliographic, chemical, 
# crystal, experimental, refinement or atomic coordinate data resulting 
# from the CCDC's data processing and validation procedures.
#
#######################################################################

data_VUJMAQ
_symmetry_cell_setting           monoclinic
_symmetry_space_group_name_H-M   'P 21/c'
_symmetry_Int_Tables_number      14
_space_group_name_Hall           '-P 2ybc'
loop_
_symmetry_equiv_pos_site_id
_symmetry_equiv_pos_as_xyz
1 x,y,z
2 -x,1/2+y,1/2-z
3 -x,-y,-z
4 x,1/2-y,1/2+z
_cell_length_a                   15.730(8)
_cell_length_b                   29.011(14)
_cell_length_c                   15.857(8)
_cell_angle_alpha                90
_cell_angle_beta                 110.416(7)
_cell_angle_gamma                90
_cell_volume                     6781.68
loop_
_atom_site_label
_atom_site_type_symbol
_atom_site_fract_x
_atom_site_fract_y
_atom_site_fract_z
W1 W 0.261121(14) 0.623289(6) 0.288281(12)
Co1 Co 0.24128(5) 0.74997(2) 0.03176(4)
Co2 Co 0.5000 0.5000 0.5000
C1 C 0.2425(3) 0.67512(18) 0.1849(3)
C2 C 0.1195(4) 0.6421(2) 0.2325(4)
C3 C 0.1982(4) 0.59352(18) 0.3767(3)
C4 C 0.3579(4) 0.57705(17) 0.3797(3)
C5 C 0.3875(4) 0.66088(18) 0.3312(3)
C6 C 0.3410(4) 0.59780(18) 0.2112(3)
C7 C 0.1959(4) 0.5615(2) 0.2196(4)
C8 C 0.2520(4) 0.67752(17) 0.3777(3)
C9 C 0.3546(4) 0.78788(19) 0.2183(3)
H1 H 0.3608 0.7565 0.2313
C10 C 0.4000(4) 0.8187(2) 0.2853(4)
H2 H 0.4348 0.8079 0.3421
C11 C 0.3939(4) 0.8658(2) 0.2679(4)
C12 C 0.3381(4) 0.8793(2) 0.1831(4)
H3 H 0.3304 0.9104 0.1687
C13 C 0.2937(4) 0.84640(19) 0.1195(4)
H4 H 0.2564 0.8564 0.0630
C14 C 0.4456(5) 0.8989(2) 0.3372(4)
C15 C 0.4871(15) 0.8862(6) 0.4269(10)
H5 H 0.4745 0.8577 0.4467
C16 C 0.5475(16) 0.9162(6) 0.4867(11)
H6 H 0.5694 0.9097 0.5480
C17 C 0.5750(14) 0.9558(7) 0.4549(12)
H7 H 0.6246 0.9724 0.4917
C18 C 0.5276(19) 0.9709(8) 0.3665(14)
H8 H 0.5332 1.0010 0.3492
C19 C 0.472(2) 0.9393(8) 0.3057(14)
H9 H 0.4525 0.9453 0.2442
C20 C 0.4231(4) 0.6929(2) 0.0996(4)
H10 H 0.3871 0.6707 0.1128
C21 C 0.5148(5) 0.6861(2) 0.1296(4)
H11 H 0.5392 0.6597 0.1625
C22 C 0.5715(4) 0.7178(2) 0.1116(4)
C23 C 0.5289(4) 0.7550(2) 0.0581(4)
H12 H 0.5628 0.7765 0.0401
C24 C 0.4366(4) 0.7595(2) 0.0323(4)
H13 H 0.4100 0.7852 -0.0019
C25 C 0.6731(5) 0.7145(3) 0.1448(4)
C26 C 0.7155(6) 0.6733(3) 0.1451(5)
H14 H 0.6815 0.6465 0.1272
C27 C 0.8117(6) 0.6715(3) 0.1727(6)
H15 H 0.8414 0.6441 0.1703
C28 C 0.8584(6) 0.7106(4) 0.2022(6)
H16 H 0.9214 0.7094 0.2221
C29 C 0.8184(6) 0.7518(3) 0.2045(5)
H17 H 0.8527 0.7781 0.2263
C30 C 0.7247(5) 0.7529(3) 0.1733(5)
H18 H 0.6958 0.7810 0.1717
C31 C 0.1089(5) 0.6745(2) -0.0688(4)
H19 H 0.0875 0.6783 -0.0215
C32 C 0.0652(5) 0.6428(2) -0.1362(4)
H20 H 0.0140 0.6273 -0.1346
C33 C 0.0972(4) 0.6346(2) -0.2043(4)
C34 C 0.1695(5) 0.6610(2) -0.2032(4)
H21 H 0.1930 0.6576 -0.2491
C35 C 0.2079(5) 0.6921(2) -0.1363(4)
H22 H 0.2570 0.7092 -0.1388
C36 C 0.0547(4) 0.5996(2) -0.2755(4)
C37 C -0.0074(5) 0.5687(2) -0.2667(4)
H23 H -0.0241 0.5695 -0.2160
C38 C -0.0456(5) 0.5360(2) -0.3336(5)
H24 H -0.0878 0.5150 -0.3273
C39 C -0.0216(5) 0.5345(3) -0.4075(5)
H25 H -0.0463 0.5121 -0.4512
C40 C 0.0375(5) 0.5651(2) -0.4181(4)
H26 H 0.0522 0.5646 -0.4700
C41 C 0.0768(5) 0.5975(2) -0.3522(4)
H27 H 0.1188 0.6182 -0.3597
C42 C 0.0704(4) 0.7719(2) 0.0806(4)
H28 H 0.1026 0.7555 0.1323
C43 C -0.0113(4) 0.7891(2) 0.0742(4)
H29 H -0.0327 0.7846 0.1213
C44 C -0.0638(4) 0.81333(19) -0.0014(4)
C45 C -0.0257(4) 0.8179(2) -0.0659(4)
H30 H -0.0573 0.8336 -0.1187
C46 C 0.0573(4) 0.8001(2) -0.0549(4)
H31 H 0.0801 0.8043 -0.1011
C47 C -0.1531(4) 0.8318(2) -0.0107(4)
C48 C -0.1699(5) 0.8509(2) 0.0611(5)
H32 H -0.1237 0.8528 0.1168
C49 C -0.2558(6) 0.8675(3) 0.0508(6)
H33 H -0.2657 0.8815 0.0994
C50 C -0.3258(5) 0.8637(2) -0.0288(6)
H34 H -0.3837 0.8736 -0.0340
C51 C -0.3103(5) 0.8454(3) -0.0993(6)
H35 H -0.3576 0.8435 -0.1544
C52 C -0.2247(5) 0.8293(2) -0.0921(5)
H36 H -0.2155 0.8167 -0.1422
C53 C 0.4639(4) 0.4070(2) 0.3963(4)
H37 H 0.5150 0.3991 0.4452
C54 C 0.4283(5) 0.3743(2) 0.3318(4)
H38 H 0.4551 0.3453 0.3377
C55 C 0.3521(5) 0.3842(2) 0.2575(4)
C56 C 0.3160(5) 0.4278(2) 0.2551(4)
H39 H 0.2640 0.4362 0.2076
C57 C 0.3568(5) 0.4589(2) 0.3226(4)
H40 H 0.3314 0.4881 0.3183
C58 C 0.3109(6) 0.3497(2) 0.1839(5)
C59 C 0.3621(6) 0.3134(3) 0.1731(5)
H41 H 0.4218 0.3102 0.2117
C60 C 0.3250(7) 0.2809(3) 0.1038(6)
H42 H 0.3589 0.2562 0.0955
C61 C 0.2384(8) 0.2872(3) 0.0503(6)
H43 H 0.2147 0.2668 0.0027
C62 C 0.1834(8) 0.3204(3) 0.0597(6)
H44 H 0.1231 0.3222 0.0221
C63 C 0.2217(7) 0.3526(3) 0.1299(5)
H45 H 0.1857 0.3761 0.1394
C64 C 0.6798(4) 0.5068(2) 0.4650(4)
H46 H 0.7022 0.4950 0.5231
C65 C 0.7380(5) 0.5141(2) 0.4217(4)
H47 H 0.7989 0.5068 0.4502
C66 C 0.7097(4) 0.5322(2) 0.3356(4)
C67 C 0.6172(4) 0.5408(2) 0.2980(4)
H48 H 0.5929 0.5523 0.2398
C68 C 0.5620(4) 0.5325(2) 0.3464(4)
H49 H 0.5005 0.5390 0.3195
C69 C 0.7751(5) 0.5405(2) 0.2896(5)
C70 C 0.8586(5) 0.5602(2) 0.3347(5)
H50 H 0.8724 0.5697 0.3941
C71 C 0.9218(5) 0.5662(3) 0.2935(5)
H51 H 0.9715 0.5855 0.3178
C72 C 0.9083(13) 0.5419(8) 0.2134(12)
H52 H 0.9551 0.5410 0.1903
C73 C 0.8285(13) 0.5190(8) 0.1675(11)
H53 H 0.8180 0.5064 0.1109
C74 C 0.7631(12) 0.5158(7) 0.2103(12)
H54 H 0.7122 0.4972 0.1857
N1 N 0.2368(3) 0.70218(14) 0.1317(3)
N2 N 0.0458(4) 0.6532(2) 0.2020(5)
N3 N 0.1679(4) 0.57859(17) 0.4259(3)
N4 N 0.4092(3) 0.55159(14) 0.4253(3)
N5 N 0.4530(4) 0.68255(19) 0.3545(4)
N6 N 0.3853(4) 0.58474(17) 0.1727(3)
N7 N 0.1640(4) 0.5279(2) 0.1867(4)
N8 N 0.1084(3) 0.77678(15) 0.0177(3)
N9 N 0.1800(3) 0.69948(15) -0.0687(3)
N10 N 0.3018(3) 0.80113(14) 0.1354(3)
N11 N 0.3825(3) 0.72972(14) 0.0527(3)
N12 N 0.4307(3) 0.44964(15) 0.3942(3)
N13 N 0.5908(3) 0.51582(14) 0.4288(3)
N14 N 0.2480(3) 0.70401(15) 0.4288(3)
W1B W 0.738879(14) 0.376711(6) 0.711719(12)
Co1B Co 0.75872(5) 0.25003(2) 0.96824(4)
C1B C 0.7575(3) 0.32488(18) 0.8151(3)
C2B C 0.8805(4) 0.3579(2) 0.7675(4)
C3B C 0.8018(4) 0.40648(18) 0.6233(3)
C4B C 0.6421(4) 0.42295(17) 0.6203(3)
C5B C 0.6125(4) 0.33912(18) 0.6688(3)
C6B C 0.6590(4) 0.40220(18) 0.7888(3)
C7B C 0.8041(4) 0.4385(2) 0.7804(4)
C8B C 0.7480(4) 0.32248(17) 0.6223(3)
C9B C 0.6454(4) 0.21212(19) 0.7817(3)
H1B H 0.6392 0.2435 0.7687
C10B C 0.6000(4) 0.1813(2) 0.7147(4)
H2B H 0.5652 0.1921 0.6579
C11B C 0.6061(4) 0.1342(2) 0.7321(4)
C12B C 0.6619(4) 0.1207(2) 0.8169(4)
H3B H 0.6696 0.0896 0.8313
C13B C 0.7063(4) 0.15360(19) 0.8805(4)
H4B H 0.7436 0.1436 0.9370
C14B C 0.5544(5) 0.1011(2) 0.6628(4)
C15B C 0.5129(15) 0.1138(6) 0.5731(10)
H5B H 0.5255 0.1423 0.5533
C16B C 0.4525(16) 0.0838(6) 0.5133(11)
H6B H 0.4306 0.0903 0.4520
C17B C 0.4250(14) 0.0442(7) 0.5451(12)
H7B H 0.3754 0.0276 0.5083
C18B C 0.4724(19) 0.0291(8) 0.6335(14)
H8B H 0.4668 -0.0010 0.6508
C19B C 0.528(2) 0.0607(8) 0.6943(14)
H9B H 0.5475 0.0547 0.7558
C20B C 0.5769(4) 0.3071(2) 0.9004(4)
H10B H 0.6129 0.3293 0.8872
C21B C 0.4852(5) 0.3139(2) 0.8704(4)
H11B H 0.4608 0.3403 0.8375
C22B C 0.4285(4) 0.2822(2) 0.8884(4)
C23B C 0.4711(4) 0.2450(2) 0.9419(4)
H12B H 0.4372 0.2235 0.9599
C24B C 0.5634(4) 0.2405(2) 0.9677(4)
H13B H 0.5900 0.2148 1.0019
C25B C 0.3269(5) 0.2855(3) 0.8552(4)
C26B C 0.2845(6) 0.3267(3) 0.8549(5)
H14B H 0.3185 0.3535 0.8728
C27B C 0.1883(6) 0.3285(3) 0.8273(6)
H15B H 0.1586 0.3559 0.8297
C28B C 0.1416(6) 0.2894(4) 0.7978(6)
H16B H 0.0786 0.2906 0.7779
C29B C 0.1816(6) 0.2482(3) 0.7955(5)
H17B H 0.1473 0.2219 0.7737
C30B C 0.2753(5) 0.2471(3) 0.8267(5)
H18B H 0.3042 0.2190 0.8283
C31B C 0.8911(5) 0.3255(2) 1.0688(4)
H19B H 0.9125 0.3217 1.0215
C32B C 0.9348(5) 0.3572(2) 1.1362(4)
H20B H 0.9860 0.3727 1.1346
C33B C 0.9028(4) 0.3654(2) 1.2043(4)
C34B C 0.8305(5) 0.3390(2) 1.2032(4)
H21B H 0.8070 0.3424 1.2491
C35B C 0.7921(5) 0.3079(2) 1.1363(4)
H22B H 0.7430 0.2908 1.1388
C36B C 0.9453(4) 0.4004(2) 1.2755(4)
C37B C 1.0074(5) 0.4313(2) 1.2667(4)
H23B H 1.0241 0.4305 1.2160
C38B C 1.0456(5) 0.4640(2) 1.3336(5)
H24B H 1.0878 0.4850 1.3273
C39B C 1.0216(5) 0.4655(3) 1.4075(5)
H25B H 1.0463 0.4879 1.4512
C40B C 0.9625(5) 0.4349(2) 1.4181(4)
H26B H 0.9478 0.4354 1.4700
C41B C 0.9232(5) 0.4025(2) 1.3522(4)
H27B H 0.8812 0.3818 1.3597
C42B C 0.9296(4) 0.2281(2) 0.9194(4)
H28B H 0.8974 0.2445 0.8677
C43B C 1.0113(4) 0.2109(2) 0.9258(4)
H29B H 1.0327 0.2154 0.8787
C44B C 1.0638(4) 0.18667(19) 1.0014(4)
C45B C 1.0257(4) 0.1821(2) 1.0659(4)
H30B H 1.0573 0.1664 1.1187
C46B C 0.9427(4) 0.1999(2) 1.0549(4)
H31B H 0.9199 0.1957 1.1011
C47B C 1.1531(4) 0.1682(2) 1.0107(4)
C48B C 1.1699(5) 0.1491(2) 0.9389(5)
H32B H 1.1237 0.1472 0.8832
C49B C 1.2558(6) 0.1325(3) 0.9492(6)
H33B H 1.2657 0.1185 0.9006
C50B C 1.3258(5) 0.1363(2) 1.0288(6)
H34B H 1.3837 0.1264 1.0340
C51B C 1.3103(5) 0.1546(3) 1.0993(6)
H35B H 1.3576 0.1565 1.1544
C52B C 1.2247(5) 0.1707(2) 1.0921(5)
H36B H 1.2155 0.1833 1.1422
C53B C 0.5361(4) 0.5930(2) 0.6037(4)
H37B H 0.4850 0.6009 0.5548
C54B C 0.5717(5) 0.6257(2) 0.6682(4)
H38B H 0.5449 0.6547 0.6623
C55B C 0.6479(5) 0.6158(2) 0.7425(4)
C56B C 0.6840(5) 0.5722(2) 0.7449(4)
H39B H 0.7360 0.5638 0.7924
C57B C 0.6432(5) 0.5411(2) 0.6774(4)
H40B H 0.6686 0.5119 0.6817
C58B C 0.6891(6) 0.6503(2) 0.8161(5)
C59B C 0.6379(6) 0.6866(3) 0.8269(5)
H41B H 0.5782 0.6898 0.7883
C60B C 0.6750(7) 0.7191(3) 0.8962(6)
H42B H 0.6411 0.7438 0.9045
C61B C 0.7616(8) 0.7128(3) 0.9497(6)
H43B H 0.7853 0.7332 0.9973
C62B C 0.8166(8) 0.6796(3) 0.9403(6)
H44B H 0.8769 0.6778 0.9779
C63B C 0.7783(7) 0.6474(3) 0.8701(5)
H45B H 0.8143 0.6239 0.8606
C64B C 0.3202(4) 0.4932(2) 0.5350(4)
H46B H 0.2978 0.5050 0.4769
C65B C 0.2620(5) 0.4859(2) 0.5783(4)
H47B H 0.2011 0.4932 0.5498
C66B C 0.2903(4) 0.4678(2) 0.6644(4)
C67B C 0.3828(4) 0.4592(2) 0.7020(4)
H48B H 0.4071 0.4477 0.7602
C68B C 0.4380(4) 0.4675(2) 0.6536(4)
H49B H 0.4995 0.4610 0.6805
C69B C 0.2249(5) 0.4595(2) 0.7104(5)
C70B C 0.1414(5) 0.4398(2) 0.6653(5)
H50B H 0.1276 0.4303 0.6059
C71B C 0.0782(5) 0.4338(3) 0.7065(5)
H51B H 0.0285 0.4145 0.6822
C72B C 0.0917(13) 0.4581(8) 0.7866(12)
H52B H 0.0449 0.4590 0.8097
C73B C 0.1715(13) 0.4810(8) 0.8325(11)
H53B H 0.1820 0.4936 0.8891
C74B C 0.2369(12) 0.4842(7) 0.7897(12)
H54B H 0.2878 0.5028 0.8143
N1B N 0.7632(3) 0.29782(14) 0.8683(3)
N2B N 0.9542(4) 0.3468(2) 0.7980(5)
N3B N 0.8321(4) 0.42141(17) 0.5741(3)
N4B N 0.5908(3) 0.44841(14) 0.5747(3)
N5B N 0.5470(4) 0.31745(19) 0.6455(4)
N6B N 0.6147(4) 0.41526(17) 0.8273(3)
N7B N 0.8360(4) 0.4721(2) 0.8133(4)
N8B N 0.8916(3) 0.22322(15) 0.9823(3)
N9B N 0.8200(3) 0.30052(15) 1.0687(3)
N10B N 0.6982(3) 0.19887(14) 0.8646(3)
N11B N 0.6175(3) 0.27028(14) 0.9473(3)
N12B N 0.5693(3) 0.55036(15) 0.6058(3)
N13B N 0.4092(3) 0.48418(14) 0.5712(3)
N14B N 0.7520(3) 0.29599(15) 0.5712(3)
Co1A Co 0.75872(5) 0.24997(2) 0.46824(4)
Co1C Co 0.24128(5) 0.75003(2) 0.53176(4)
N14A N 0.7520(3) 0.20401(15) 1.0712(3)
N14C N 0.2480(3) 0.79599(15) -0.0712(3)
C75 C 0.0582(10) 0.4417(4) 0.0054(6)
H55 H 0.0642 0.4716 -0.0179
H56 H -0.0033 0.4313 -0.0215
H57 H 0.0981 0.4204 -0.0086
O1 O 0.0802(6) 0.4443(2) 0.0957(4)
H58 H 0.0975 0.4704 0.1127
O2 O 0.753(3) 0.4693(14) -0.007(3)
C76? C 0.4456(11) 0.8937(5) 0.4260(8)
H59? H 0.4122 0.8703 0.4398
C77? C 0.4959(12) 0.9240(5) 0.4919(8)
H60? H 0.4993 0.9191 0.5509
C78? C 0.5410(11) 0.9609(5) 0.4736(9)
H61? H 0.5683 0.9828 0.5176
C79? C 0.5452(14) 0.9650(6) 0.3874(11)
H62? H 0.5837 0.9861 0.3751
C80? C 0.4889(14) 0.9358(6) 0.3200(11)
H63? H 0.4811 0.9425 0.2604
C81? C 0.8961(11) 0.5588(5) 0.2036(10)
H64? H 0.9365 0.5648 0.1738
C82? C 0.8127(11) 0.5428(6) 0.1573(10)
H65? H 0.7977 0.5363 0.0963
C83? C 0.7471(10) 0.5354(6) 0.1980(9)
H66? H 0.6876 0.5274 0.1643
O3? O 0.7493(19) 0.4331(11) 0.0334(18)
loop_
_geom_bond_atom_site_label_1
_geom_bond_atom_site_label_2
_geom_bond_site_symmetry_1
_geom_bond_site_symmetry_2
W1 C1 1_555 1_555
Co1 N1 1_555 1_555
Co2 N4 1_555 1_555
C1 N1 1_555 1_555
C2 W1 1_555 1_555
C3 W1 1_555 1_555
C4 W1 1_555 1_555
C5 W1 1_555 1_555
C6 W1 1_555 1_555
C7 W1 1_555 1_555
C8 W1 1_555 1_555
C9 H1 1_555 1_555
C10 C9 1_555 1_555
H2 C10 1_555 1_555
C11 C10 1_555 1_555
C12 C11 1_555 1_555
H3 C12 1_555 1_555
C13 C12 1_555 1_555
H4 C13 1_555 1_555
C14 C11 1_555 1_555
C15 C14 1_555 1_555
H5 C15 1_555 1_555
C16 C15 1_555 1_555
H6 C16 1_555 1_555
C17 C16 1_555 1_555
H7 C17 1_555 1_555
C18 C17 1_555 1_555
H8 C18 1_555 1_555
C19 C14 1_555 1_555
H9 C19 1_555 1_555
C20 H10 1_555 1_555
C21 C20 1_555 1_555
H11 C21 1_555 1_555
C22 C21 1_555 1_555
C23 C22 1_555 1_555
H12 C23 1_555 1_555
C24 C23 1_555 1_555
H13 C24 1_555 1_555
C25 C22 1_555 1_555
C26 C25 1_555 1_555
H14 C26 1_555 1_555
C27 C26 1_555 1_555
H15 C27 1_555 1_555
C28 C27 1_555 1_555
H16 C28 1_555 1_555
C29 C28 1_555 1_555
H17 C29 1_555 1_555
C30 C25 1_555 1_555
H18 C30 1_555 1_555
C31 H19 1_555 1_555
C32 C31 1_555 1_555
H20 C32 1_555 1_555
C33 C32 1_555 1_555
C34 C33 1_555 1_555
H21 C34 1_555 1_555
C35 C34 1_555 1_555
H22 C35 1_555 1_555
C36 C33 1_555 1_555
C37 C36 1_555 1_555
H23 C37 1_555 1_555
C38 C37 1_555 1_555
H24 C38 1_555 1_555
C39 C38 1_555 1_555
H25 C39 1_555 1_555
C40 C39 1_555 1_555
H26 C40 1_555 1_555
C41 C36 1_555 1_555
H27 C41 1_555 1_555
C42 H28 1_555 1_555
C43 C42 1_555 1_555
H29 C43 1_555 1_555
C44 C43 1_555 1_555
C45 C44 1_555 1_555
H30 C45 1_555 1_555
C46 C45 1_555 1_555
H31 C46 1_555 1_555
C47 C44 1_555 1_555
C48 C47 1_555 1_555
H32 C48 1_555 1_555
C49 C48 1_555 1_555
H33 C49 1_555 1_555
C50 C49 1_555 1_555
H34 C50 1_555 1_555
C51 C50 1_555 1_555
H35 C51 1_555 1_555
C52 C47 1_555 1_555
H36 C52 1_555 1_555
C53 H37 1_555 1_555
C54 C53 1_555 1_555
H38 C54 1_555 1_555
C55 C54 1_555 1_555
C56 C55 1_555 1_555
H39 C56 1_555 1_555
C57 C56 1_555 1_555
H40 C57 1_555 1_555
C58 C55 1_555 1_555
C59 C58 1_555 1_555
H41 C59 1_555 1_555
C60 C59 1_555 1_555
H42 C60 1_555 1_555
C61 C60 1_555 1_555
H43 C61 1_555 1_555
C62 C61 1_555 1_555
H44 C62 1_555 1_555
C63 C58 1_555 1_555
H45 C63 1_555 1_555
C64 H46 1_555 1_555
C65 C64 1_555 1_555
H47 C65 1_555 1_555
C66 C65 1_555 1_555
C67 C66 1_555 1_555
H48 C67 1_555 1_555
C68 C67 1_555 1_555
H49 C68 1_555 1_555
C69 C66 1_555 1_555
C70 C69 1_555 1_555
H50 C70 1_555 1_555
C71 C70 1_555 1_555
H51 C71 1_555 1_555
C72 C71 1_555 1_555
H52 C72 1_555 1_555
C73 C72 1_555 1_555
H53 C73 1_555 1_555
C74 C69 1_555 1_555
H54 C74 1_555 1_555
N2 C2 1_555 1_555
N3 C3 1_555 1_555
N4 C4 1_555 1_555
N5 C5 1_555 1_555
N6 C6 1_555 1_555
N7 C7 1_555 1_555
N8 Co1 1_555 1_555
N9 Co1 1_555 1_555
N10 Co1 1_555 1_555
N11 Co1 1_555 1_555
N12 Co2 1_555 1_555
N13 Co2 1_555 1_555
N14 C8 1_555 1_555
C75 H55 1_555 1_555
H56 C75 1_555 1_555
H57 C75 1_555 1_555
O1 C75 1_555 1_555
H58 O1 1_555 1_555
W1B C1B 1_555 1_555
Co1B N1B 1_555 1_555
C1B N1B 1_555 1_555
C2B W1B 1_555 1_555
C3B W1B 1_555 1_555
C4B W1B 1_555 1_555
C5B W1B 1_555 1_555
C6B W1B 1_555 1_555
C7B W1B 1_555 1_555
C8B W1B 1_555 1_555
C9B H1B 1_555 1_555
C10B C9B 1_555 1_555
H2B C10B 1_555 1_555
C11B C10B 1_555 1_555
C12B C11B 1_555 1_555
H3B C12B 1_555 1_555
C13B C12B 1_555 1_555
H4B C13B 1_555 1_555
C14B C11B 1_555 1_555
C15B C14B 1_555 1_555
H5B C15B 1_555 1_555
C16B C15B 1_555 1_555
H6B C16B 1_555 1_555
C17B C16B 1_555 1_555
H7B C17B 1_555 1_555
C18B C17B 1_555 1_555
H8B C18B 1_555 1_555
C19B C14B 1_555 1_555
H9B C19B 1_555 1_555
C20B H10B 1_555 1_555
C21B C20B 1_555 1_555
H11B C21B 1_555 1_555
C22B C21B 1_555 1_555
C23B C22B 1_555 1_555
H12B C23B 1_555 1_555
C24B C23B 1_555 1_555
H13B C24B 1_555 1_555
C25B C22B 1_555 1_555
C26B C25B 1_555 1_555
H14B C26B 1_555 1_555
C27B C26B 1_555 1_555
H15B C27B 1_555 1_555
C28B C27B 1_555 1_555
H16B C28B 1_555 1_555
C29B C28B 1_555 1_555
H17B C29B 1_555 1_555
C30B C25B 1_555 1_555
H18B C30B 1_555 1_555
C31B H19B 1_555 1_555
C32B C31B 1_555 1_555
H20B C32B 1_555 1_555
C33B C32B 1_555 1_555
C34B C33B 1_555 1_555
H21B C34B 1_555 1_555
C35B C34B 1_555 1_555
H22B C35B 1_555 1_555
C36B C33B 1_555 1_555
C37B C36B 1_555 1_555
H23B C37B 1_555 1_555
C38B C37B 1_555 1_555
H24B C38B 1_555 1_555
C39B C38B 1_555 1_555
H25B C39B 1_555 1_555
C40B C39B 1_555 1_555
H26B C40B 1_555 1_555
C41B C36B 1_555 1_555
H27B C41B 1_555 1_555
C42B H28B 1_555 1_555
C43B C42B 1_555 1_555
H29B C43B 1_555 1_555
C44B C43B 1_555 1_555
C45B C44B 1_555 1_555
H30B C45B 1_555 1_555
C46B C45B 1_555 1_555
H31B C46B 1_555 1_555
C47B C44B 1_555 1_555
C48B C47B 1_555 1_555
H32B C48B 1_555 1_555
C49B C48B 1_555 1_555
H33B C49B 1_555 1_555
C50B C49B 1_555 1_555
H34B C50B 1_555 1_555
C51B C50B 1_555 1_555
H35B C51B 1_555 1_555
C52B C47B 1_555 1_555
H36B C52B 1_555 1_555
C53B H37B 1_555 1_555
C54B C53B 1_555 1_555
H38B C54B 1_555 1_555
C55B C54B 1_555 1_555
C56B C55B 1_555 1_555
H39B C56B 1_555 1_555
C57B C56B 1_555 1_555
H40B C57B 1_555 1_555
C58B C55B 1_555 1_555
C59B C58B 1_555 1_555
H41B C59B 1_555 1_555
C60B C59B 1_555 1_555
H42B C60B 1_555 1_555
C61B C60B 1_555 1_555
H43B C61B 1_555 1_555
C62B C61B 1_555 1_555
H44B C62B 1_555 1_555
C63B C58B 1_555 1_555
H45B C63B 1_555 1_555
C64B H46B 1_555 1_555
C65B C64B 1_555 1_555
H47B C65B 1_555 1_555
C66B C65B 1_555 1_555
C67B C66B 1_555 1_555
H48B C67B 1_555 1_555
C68B C67B 1_555 1_555
H49B C68B 1_555 1_555
C69B C66B 1_555 1_555
C70B C69B 1_555 1_555
H50B C70B 1_555 1_555
C71B C70B 1_555 1_555
H51B C71B 1_555 1_555
C72B C71B 1_555 1_555
H52B C72B 1_555 1_555
C73B C72B 1_555 1_555
H53B C73B 1_555 1_555
C74B C69B 1_555 1_555
H54B C74B 1_555 1_555
N2B C2B 1_555 1_555
N3B C3B 1_555 1_555
N4B Co2 1_555 1_555
N5B C5B 1_555 1_555
N6B C6B 1_555 1_555
N7B C7B 1_555 1_555
N8B Co1B 1_555 1_555
N9B Co1B 1_555 1_555
N10B Co1B 1_555 1_555
N11B Co1B 1_555 1_555
N12B Co2 1_555 1_555
N13B Co2 1_555 1_555
N14B C8B 1_555 1_555
Co1A N14B 1_555 1_555
Co1C N14 1_555 1_555
N14A Co1B 1_555 1_555
N14C Co1 1_555 1_555
C9 N10 1_555 1_555
C13 N10 1_555 1_555
C18 C19 1_555 1_555
C20 N11 1_555 1_555
C24 N11 1_555 1_555
C29 C30 1_555 1_555
C31 N9 1_555 1_555
C35 N9 1_555 1_555
C40 C41 1_555 1_555
C42 N8 1_555 1_555
C46 N8 1_555 1_555
C51 C52 1_555 1_555
C53 N12 1_555 1_555
C57 N12 1_555 1_555
C62 C63 1_555 1_555
C64 N13 1_555 1_555
C68 N13 1_555 1_555
C73 C74 1_555 1_555
C4B N4B 1_555 1_555
C9B N10B 1_555 1_555
C13B N10B 1_555 1_555
C18B C19B 1_555 1_555
C20B N11B 1_555 1_555
C24B N11B 1_555 1_555
C29B C30B 1_555 1_555
C31B N9B 1_555 1_555
C35B N9B 1_555 1_555
C40B C41B 1_555 1_555
C42B N8B 1_555 1_555
C46B N8B 1_555 1_555
C51B C52B 1_555 1_555
C53B N12B 1_555 1_555
C57B N12B 1_555 1_555
C62B C63B 1_555 1_555
C64B N13B 1_555 1_555
C68B N13B 1_555 1_555
C73B C74B 1_555 1_555

#END
