
#######################################################################
#
#                 Cambridge Crystallographic Data Centre
#                                CCDC 
#
#######################################################################
#
# If this CIF has been generated from an entry in the Cambridge 
# Structural Database, then it will include bibliographic, chemical, 
# crystal, experimental, refinement or atomic coordinate data resulting 
# from the CCDC's data processing and validation procedures.
#
#######################################################################

data_VUJNIY
_symmetry_cell_setting           triclinic
_symmetry_space_group_name_H-M   'P -1'
_symmetry_Int_Tables_number      2
_space_group_name_Hall           '-P 1'
loop_
_symmetry_equiv_pos_site_id
_symmetry_equiv_pos_as_xyz
1 x,y,z
2 -x,-y,-z
_cell_length_a                   4.966(5)
_cell_length_b                   7.807(5)
_cell_length_c                   13.859(5)
_cell_angle_alpha                77.819(5)
_cell_angle_beta                 75.709(5)
_cell_angle_gamma                72.439(5)
_cell_volume                     490.965
loop_
_atom_site_label
_atom_site_type_symbol
_atom_site_fract_x
_atom_site_fract_y
_atom_site_fract_z
C1 C 1.0398(5) -0.4977(3) 1.35039(17)
C2 C 1.1831(5) -0.4251(3) 1.24606(16)
C3 C 1.4663(6) -0.5077(3) 1.2075(2)
C4 C 1.5967(6) -0.4376(3) 1.11254(18)
C5 C 1.4374(5) -0.2869(3) 1.06064(17)
C6 C 1.5617(5) -0.1927(3) 0.95952(17)
C7 C 1.0345(5) -0.2746(3) 1.18876(17)
N1 N 0.7334(6) -0.7535(3) 1.5242(3)
N2 N 1.1618(4) -0.2070(3) 1.09732(14)
O1 O 0.7700(4) -0.4396(3) 1.37185(13)
O2 O 1.1987(4) -0.6050(3) 1.40615(13)
O3 O 1.3796(4) -0.0639(2) 0.91690(13)
O4 O 1.8218(4) -0.2389(3) 0.92567(15)
Cu1 Cu 0.5000 -0.5000 1.5000
Cu2 Cu 1.0000 0.0000 1.0000
H1 H 0.628(12) -0.832(8) 1.547(4)
H2 H 0.780(15) -0.780(9) 1.468(6)
H3 H 0.859(16) -0.764(9) 1.547(5)
H4 H 1.569(8) -0.613(5) 1.244(3)
H5 H 1.753(8) -0.485(5) 1.095(3)
H6 H 0.842(7) -0.216(4) 1.213(2)
C1_2 C 0.0398(5) -0.4977(3) 1.35039(17)
C2_2 C 0.1831(5) -0.4251(3) 1.24606(16)
C3_2 C 0.4663(6) -0.5077(3) 1.2075(2)
C4_2 C 0.5967(6) -0.4376(3) 1.11254(18)
C5_2 C 0.4374(5) -0.2869(3) 1.06064(17)
C6_2 C 0.5617(5) -0.1927(3) 0.95952(17)
C7_2 C 0.0345(5) -0.2746(3) 1.18876(17)
N1A N 0.2666(6) -0.2465(3) 1.4758(3)
N2_2 N 0.1618(4) -0.2070(3) 1.09732(14)
N2A N 0.8382(4) 0.2070(3) 0.90268(14)
O1_2 O -0.2300(4) -0.4396(3) 1.37185(13)
O1A O 0.2300(4) -0.5604(3) 1.62815(13)
O2_2 O 0.1987(4) -0.6050(3) 1.40615(13)
O2A O 0.8013(4) -0.3950(3) 1.59385(13)
O3_2 O 0.3796(4) -0.0639(2) 0.91690(13)
O3A O 0.6204(4) 0.0639(2) 1.08310(13)
O4_2 O 0.8218(4) -0.2389(3) 0.92567(15)
O4A O 1.1782(4) 0.2389(3) 1.07433(15)
Cu1_2 Cu 1.5000 -0.5000 1.5000
Cu1_3 Cu -0.5000 -0.5000 1.5000
Cu2_2 Cu 2.0000 0.0000 1.0000
Cu2_3 Cu 0.0000 0.0000 1.0000
H1A H 0.372(12) -0.168(8) 1.453(4)
H2A H 0.220(15) -0.220(9) 1.532(6)
H3A H 0.141(16) -0.236(9) 1.453(5)
H4_2 H 0.569(8) -0.613(5) 1.244(3)
H5_2 H 0.753(8) -0.485(5) 1.095(3)
H6_2 H -0.158(7) -0.216(4) 1.213(2)
O5 O 1.9288(9) -0.0811(6) 0.7231(3)
H7 H 1.775(10) -0.058(6) 0.707(3)
H8 H 1.914(10) -0.119(6) 0.772(3)
O6 O 1.5381(6) -0.9505(4) 1.3685(2)
H9 H 1.751(13) -0.966(7) 1.350(4)
H10 H 1.402(16) -0.810(10) 1.403(5)
loop_
_geom_bond_atom_site_label_1
_geom_bond_atom_site_label_2
_geom_bond_site_symmetry_1
_geom_bond_site_symmetry_2
C1 C2 1_555 1_555
C2 C3 1_555 1_555
C3 C4 1_555 1_555
C4 C5 1_555 1_555
C5 C6 1_555 1_555
C6 O3 1_555 1_555
C7 C2 1_555 1_555
N1 Cu1 1_555 1_555
N2 C5 1_555 1_555
O1 C1 1_555 1_555
O2 C1 1_555 1_555
O3 Cu2 1_555 1_555
O4 C6 1_555 1_555
O5 H7 1_555 1_555
O6 H9 1_555 1_555
Cu1 O1 1_555 1_555
Cu2 N2 1_555 1_555
H1 N1 1_555 1_555
H2 N1 1_555 1_555
H3 N1 1_555 1_555
H4 C3 1_555 1_555
H5 C4 1_555 1_555
H6 C7 1_555 1_555
H8 O5 1_555 1_555
H10 O6 1_555 1_555
C1_2 C2_2 1_555 1_555
C2_2 C3_2 1_555 1_555
C3_2 C4_2 1_555 1_555
C4_2 C5_2 1_555 1_555
C5_2 C6_2 1_555 1_555
C6_2 O3_2 1_555 1_555
C7_2 C2_2 1_555 1_555
N1A Cu1 1_555 1_555
N2_2 C5_2 1_555 1_555
N2A Cu2 1_555 1_555
O1_2 C1_2 1_555 1_555
O1A Cu1 1_555 1_555
O2_2 Cu1 1_555 1_555
O2A Cu1 1_555 1_555
O3_2 Cu2_3 1_555 1_555
O3A Cu2 1_555 1_555
O4_2 Cu2 1_555 1_555
O4A Cu2 1_555 1_555
Cu1_2 O2 1_555 1_555
Cu1_3 O1_2 1_555 1_555
Cu2_2 O4 1_555 1_555
Cu2_3 N2_2 1_555 1_555
H1A N1A 1_555 1_555
H2A N1A 1_555 1_555
H3A N1A 1_555 1_555
H4_2 C3_2 1_555 1_555
H5_2 C4_2 1_555 1_555
H6_2 C7_2 1_555 1_555
C7 N2 1_555 1_555
C1_2 O2_2 1_555 1_555
C6_2 O4_2 1_555 1_555
C7_2 N2_2 1_555 1_555

#END
