
#######################################################################
#
#                 Cambridge Crystallographic Data Centre
#                                CCDC 
#
#######################################################################
#
# If this CIF has been generated from an entry in the Cambridge 
# Structural Database, then it will include bibliographic, chemical, 
# crystal, experimental, refinement or atomic coordinate data resulting 
# from the CCDC's data processing and validation procedures.
#
#######################################################################

data_VUJROI
_symmetry_cell_setting           orthorhombic
_symmetry_space_group_name_H-M   'C c c 2'
_symmetry_Int_Tables_number      37
_space_group_name_Hall           'C 2 -2c'
loop_
_symmetry_equiv_pos_site_id
_symmetry_equiv_pos_as_xyz
1 x,y,z
2 -x,-y,z
3 -x,y,1/2+z
4 x,-y,1/2+z
5 1/2+x,1/2+y,z
6 1/2-x,1/2-y,z
7 1/2-x,1/2+y,1/2+z
8 1/2+x,1/2-y,1/2+z
_cell_length_a                   15.625(5)
_cell_length_b                   31.237(5)
_cell_length_c                   10.847(5)
_cell_angle_alpha                90
_cell_angle_beta                 90
_cell_angle_gamma                90
_cell_volume                     5294.18
loop_
_atom_site_label
_atom_site_type_symbol
_atom_site_fract_x
_atom_site_fract_y
_atom_site_fract_z
Eu1 Eu 0.2500 0.2500 0.632433(19)
O3 O 0.26568(15) 0.30118(8) 0.4716(2)
O5 O 0.21403(17) 0.15848(9) 0.9470(2)
N1 N 0.11212(13) 0.22181(8) 0.7235(2)
O8 O 0.26468(15) 0.19916(8) 0.7949(2)
O11 O 0.21473(15) 0.33714(8) 0.3087(2)
N3 N 0.11240(13) 0.27661(8) 0.5375(2)
C6 C -0.04224(18) 0.27708(9) 0.5260(3)
C7 C -0.0382(2) 0.19174(10) 0.8310(3)
H5 H -0.0879 0.1813 0.8674
C8 C 0.11641(16) 0.30251(10) 0.4406(3)
C9 C -0.12125(19) 0.26186(13) 0.5796(4)
H6 H -0.1732 0.2710 0.5468
C10 C 0.11480(16) 0.19525(10) 0.8190(3)
C12 C -0.04337(18) 0.21972(9) 0.7294(3)
C13 C 0.0429(2) 0.31672(10) 0.3790(3)
H8 H 0.0475 0.3342 0.3100
C16 C 0.20467(19) 0.18328(9) 0.8590(3)
C17 C 0.03457(16) 0.23428(8) 0.6796(3)
C19 C 0.0404(2) 0.17998(10) 0.8762(3)
H10 H 0.0443 0.1620 0.9442
C21 C 0.03465(17) 0.26365(9) 0.5788(3)
C23 C 0.20694(19) 0.31487(9) 0.4026(3)
C24 C -0.0367(2) 0.30435(10) 0.4223(3)
H12 H -0.0861 0.3139 0.3835
C28 C -0.12107(17) 0.23470(11) 0.6761(4)
H16 H -0.1730 0.2255 0.7087
O3E O 0.23432(15) 0.19882(8) 0.4716(2)
O5E O 0.28597(17) 0.34152(9) 0.9470(2)
N1E N 0.38788(13) 0.27819(8) 0.7235(2)
O8E O 0.23532(15) 0.30084(8) 0.7949(2)
O11E O 0.28527(15) 0.16286(8) 0.3087(2)
N3E N 0.38760(13) 0.22339(8) 0.5375(2)
C6E C 0.54224(18) 0.22292(9) 0.5260(3)
C7E C 0.5382(2) 0.30826(10) 0.8310(3)
H5E H 0.5879 0.3187 0.8674
C8E C 0.38359(16) 0.19749(10) 0.4406(3)
C9E C 0.62125(19) 0.23814(13) 0.5796(4)
H6E H 0.6732 0.2290 0.5468
C10E C 0.38520(16) 0.30475(10) 0.8190(3)
C12E C 0.54337(18) 0.28028(9) 0.7294(3)
C13E C 0.4571(2) 0.18328(10) 0.3790(3)
H8E H 0.4525 0.1658 0.3100
C16E C 0.29533(19) 0.31672(9) 0.8590(3)
C17E C 0.46543(16) 0.26572(8) 0.6796(3)
C19E C 0.4596(2) 0.32002(10) 0.8762(3)
H10E H 0.4557 0.3380 0.9442
C21E C 0.46535(17) 0.23635(9) 0.5788(3)
C23E C 0.29306(19) 0.18513(9) 0.4026(3)
C24E C 0.5367(2) 0.19565(10) 0.4223(3)
H12E H 0.5861 0.1861 0.3835
C28E C 0.62107(17) 0.26530(11) 0.6761(4)
H16E H 0.6730 0.2745 0.7087
Eu2 Eu 0.385938(7) 0.453193(3) 0.202380(15)
O1 O 0.5000 0.5000 0.1587(2)
O2 O 0.29490(13) 0.47798(8) 0.0439(2)
O4 O 0.49610(14) 0.43149(7) 0.34552(19)
O6 O 0.33752(13) 0.37909(6) 0.17443(19)
H1 H 0.3447 0.3657 0.2386
H2 H 0.3252 0.3685 0.0936
O7 O 0.54391(15) 0.41988(7) 0.53566(19)
N2 N 0.22492(16) 0.45029(7) 0.2469(3)
O9 O 0.36356(16) 0.51567(7) 0.3182(2)
H3 H 0.3195 0.5132 0.3587
H4 H 0.3867 0.5396 0.3218
C1 C 0.39469(19) 0.41606(9) 0.5001(3)
C2 C 0.2128(2) 0.47443(10) 0.0396(3)
O10 O 0.16842(17) 0.47888(9) -0.0530(2)
N4 N 0.33665(15) 0.42597(7) 0.4158(2)
C3 C 0.2255(2) 0.40834(10) 0.5611(3)
C4 C 0.25334(18) 0.42253(10) 0.4454(3)
C5 C 0.19306(18) 0.43535(8) 0.3532(3)
C11 C 0.2879(2) 0.39802(11) 0.6481(3)
H7 H 0.2722 0.3885 0.7261
C14 C 0.48478(18) 0.42290(8) 0.4574(3)
C15 C 0.3732(2) 0.40210(11) 0.6175(3)
H9 H 0.4156 0.3956 0.6746
C18 C 0.1713(2) 0.46215(9) 0.1602(3)
C20 C 0.1045(2) 0.43178(11) 0.3761(3)
C22 C 0.0775(2) 0.41472(12) 0.4933(4)
H11 H 0.0194 0.4108 0.5079
C25 C 0.0492(2) 0.44574(12) 0.2830(4)
H13 H -0.0098 0.4447 0.2947
C26 C 0.1339(3) 0.40440(13) 0.5820(4)
H14 H 0.1140 0.3946 0.6578
C27 C 0.0824(2) 0.46094(11) 0.1745(4)
H15 H 0.0465 0.4703 0.1116
H17 H 0.5000 0.5000 0.105(4)
Eu2B Eu 0.614062(7) 0.453193(3) -0.297620(15)
Eu2A Eu 0.614062(7) 0.546807(3) 0.202380(15)
Eu2B_2 Eu 0.614062(7) 0.453193(3) 0.702380(15)
O1B O 0.5000 0.5000 -0.3413(2)
O2B O 0.70510(13) 0.47798(8) -0.4561(2)
O4B O 0.50390(14) 0.43149(7) -0.15448(19)
O6B O 0.66248(13) 0.37909(6) -0.32557(19)
H1B H 0.6553 0.3657 -0.2614
H2B H 0.6748 0.3685 -0.4064
O7B O 0.45609(15) 0.41988(7) 0.03566(19)
O7_2 O 0.54391(15) 0.41988(7) -0.46434(19)
N2B N 0.77508(16) 0.45029(7) -0.2531(3)
O9B O 0.63644(16) 0.51567(7) -0.1818(2)
H3B H 0.6805 0.5132 -0.1413
H4B H 0.6133 0.5396 -0.1782
C1B C 0.60531(19) 0.41606(9) 0.0001(3)
C2B C 0.7872(2) 0.47443(10) -0.4604(3)
O10B O 0.83158(17) 0.47888(9) -0.5530(2)
N4B N 0.66335(15) 0.42597(7) -0.0842(2)
C3B C 0.7745(2) 0.40834(10) 0.0611(3)
C4B C 0.74666(18) 0.42253(10) -0.0546(3)
C5B C 0.80694(18) 0.43535(8) -0.1468(3)
C11B C 0.7121(2) 0.39802(11) 0.1481(3)
H7B H 0.7278 0.3885 0.2261
C14B C 0.51522(18) 0.42290(8) -0.0426(3)
C15B C 0.6268(2) 0.40210(11) 0.1175(3)
H9B H 0.5844 0.3956 0.1746
C18B C 0.8287(2) 0.46215(9) -0.3398(3)
C20B C 0.8955(2) 0.43178(11) -0.1239(3)
C22B C 0.9225(2) 0.41472(12) -0.0067(4)
H11B H 0.9806 0.4108 0.0079
C25B C 0.9508(2) 0.44574(12) -0.2170(4)
H13B H 1.0098 0.4447 -0.2053
C26B C 0.8661(3) 0.40440(13) 0.0820(4)
H14B H 0.8860 0.3946 0.1578
C27B C 0.9176(2) 0.46094(11) -0.3255(4)
H15B H 0.9535 0.4703 -0.3884
H17B H 0.5000 0.5000 -0.395(4)
O12 O 0.3681(3) 0.10852(15) 0.8962(5)
H18 H 0.316(3) 0.1301(14) 0.928(4)
H19 H 0.345(3) 0.0769(13) 0.881(5)
loop_
_geom_bond_atom_site_label_1
_geom_bond_atom_site_label_2
_geom_bond_site_symmetry_1
_geom_bond_site_symmetry_2
Eu1 O3 1_555 1_555
Eu2 O1 1_555 1_555
O1 H17 1_555 1_555
O2 Eu2 1_555 1_555
O3 C23 1_555 1_555
O4 Eu2 1_555 1_555
O5 C16 1_555 1_555
O6 Eu2 1_555 1_555
H1 O6 1_555 1_555
H2 O6 1_555 1_555
O7 C14 1_555 1_555
N1 Eu1 1_555 1_555
N2 Eu2 1_555 1_555
O8 Eu1 1_555 1_555
O9 Eu2 1_555 1_555
H3 O9 1_555 1_555
H4 O9 1_555 1_555
C1 N4 1_555 1_555
C2 O2 1_555 1_555
O10 C2 1_555 1_555
O11 C23 1_555 1_555
N3 Eu1 1_555 1_555
N4 Eu2 1_555 1_555
C3 C4 1_555 1_555
C4 N4 1_555 1_555
C5 N2 1_555 1_555
C6 C9 1_555 1_555
C7 H5 1_555 1_555
C8 N3 1_555 1_555
C9 H6 1_555 1_555
C10 N1 1_555 1_555
C11 C3 1_555 1_555
H7 C11 1_555 1_555
C12 C7 1_555 1_555
C13 C8 1_555 1_555
H8 C13 1_555 1_555
C14 O4 1_555 1_555
C15 C1 1_555 1_555
H9 C15 1_555 1_555
C16 O8 1_555 1_555
C17 N1 1_555 1_555
C18 N2 1_555 1_555
C19 C7 1_555 1_555
H10 C19 1_555 1_555
C20 C5 1_555 1_555
C21 N3 1_555 1_555
C22 C20 1_555 1_555
H11 C22 1_555 1_555
C23 C8 1_555 1_555
C24 C6 1_555 1_555
H12 C24 1_555 1_555
O12 H18 1_555 1_555
C25 C20 1_555 1_555
H13 C25 1_555 1_555
C26 C3 1_555 1_555
H14 C26 1_555 1_555
C27 C18 1_555 1_555
H15 C27 1_555 1_555
C28 C9 1_555 1_555
H16 C28 1_555 1_555
H19 O12 1_555 1_555
Eu2B O1B 1_555 1_555
Eu2A O1 1_555 1_555
Eu2B_2 O7 1_555 1_555
O1B H17B 1_555 1_555
O2B Eu2B 1_555 1_555
O3E Eu1 1_555 1_555
O4B Eu2B 1_555 1_555
O5E C16E 1_555 1_555
O6B Eu2B 1_555 1_555
H1B O6B 1_555 1_555
H2B O6B 1_555 1_555
O7B Eu2 1_555 1_555
O7_2 Eu2B 1_555 1_555
N1E Eu1 1_555 1_555
N2B Eu2B 1_555 1_555
O8E Eu1 1_555 1_555
O9B Eu2B 1_555 1_555
H3B O9B 1_555 1_555
H4B O9B 1_555 1_555
C1B N4B 1_555 1_555
C2B O2B 1_555 1_555
O10B C2B 1_555 1_555
O11E C23E 1_555 1_555
N3E Eu1 1_555 1_555
N4B Eu2B 1_555 1_555
C3B C4B 1_555 1_555
C4B N4B 1_555 1_555
C5B N2B 1_555 1_555
C6E C9E 1_555 1_555
C7E H5E 1_555 1_555
C8E N3E 1_555 1_555
C9E H6E 1_555 1_555
C10E N1E 1_555 1_555
C11B C3B 1_555 1_555
H7B C11B 1_555 1_555
C12E C7E 1_555 1_555
C13E C8E 1_555 1_555
H8E C13E 1_555 1_555
C14B O4B 1_555 1_555
C15B C1B 1_555 1_555
H9B C15B 1_555 1_555
C16E O8E 1_555 1_555
C17E N1E 1_555 1_555
C18B N2B 1_555 1_555
C19E C7E 1_555 1_555
H10E C19E 1_555 1_555
C20B C5B 1_555 1_555
C21E N3E 1_555 1_555
C22B C20B 1_555 1_555
H11B C22B 1_555 1_555
C23E O3E 1_555 1_555
C24E C6E 1_555 1_555
H12E C24E 1_555 1_555
C25B C20B 1_555 1_555
H13B C25B 1_555 1_555
C26B C3B 1_555 1_555
H14B C26B 1_555 1_555
C27B C18B 1_555 1_555
H15B C27B 1_555 1_555
C28E C9E 1_555 1_555
H16E C28E 1_555 1_555
C1 C14 1_555 1_555
C2 C18 1_555 1_555
C4 C5 1_555 1_555
C6 C21 1_555 1_555
C10 C16 1_555 1_555
C10 C19 1_555 1_555
C11 C15 1_555 1_555
C12 C17 1_555 1_555
C12 C28 1_555 1_555
C13 C24 1_555 1_555
C17 C21 1_555 1_555
C22 C26 1_555 1_555
C25 C27 1_555 1_555
O7B C14B 1_555 1_555
C1B C14B 1_555 1_555
C2B C18B 1_555 1_555
C4B C5B 1_555 1_555
C6E C21E 1_555 1_555
C8E C23E 1_555 1_555
C10E C16E 1_555 1_555
C10E C19E 1_555 1_555
C11B C15B 1_555 1_555
C12E C17E 1_555 1_555
C12E C28E 1_555 1_555
C13E C24E 1_555 1_555
C17E C21E 1_555 1_555
C22B C26B 1_555 1_555
C25B C27B 1_555 1_555

#END
