
#######################################################################
#
#                 Cambridge Crystallographic Data Centre
#                                CCDC 
#
#######################################################################
#
# If this CIF has been generated from an entry in the Cambridge 
# Structural Database, then it will include bibliographic, chemical, 
# crystal, experimental, refinement or atomic coordinate data resulting 
# from the CCDC's data processing and validation procedures.
#
#######################################################################

data_VUJSID
_symmetry_cell_setting           monoclinic
_symmetry_space_group_name_H-M   'C 2/c'
_symmetry_Int_Tables_number      15
_space_group_name_Hall           '-C 2yn'
loop_
_symmetry_equiv_pos_site_id
_symmetry_equiv_pos_as_xyz
1 x,y,z
2 -x,y,1/2-z
3 1/2+x,1/2+y,z
4 1/2-x,1/2+y,1/2-z
5 -x,-y,-z
6 x,-y,1/2+z
7 1/2-x,1/2-y,-z
8 1/2+x,1/2-y,1/2+z
_cell_length_a                   16.4332(9)
_cell_length_b                   10.7749(9)
_cell_length_c                   13.7840(12)
_cell_angle_alpha                90
_cell_angle_beta                 104.979(7)
_cell_angle_gamma                90
_cell_volume                     2357.75
loop_
_atom_site_label
_atom_site_type_symbol
_atom_site_fract_x
_atom_site_fract_y
_atom_site_fract_z
Zn1 Zn 0.34426(16) 0.7547(6) 0.51487(28)
O1 O 0.3154(7) 0.5966(10) 0.4207(7)
O2 O 0.1778(7) 0.5882(12) 0.4126(8)
C1 C 0.2396(7) 0.5676(7) 0.3790(5)
C2 C 0.2236(6) 0.4950(6) 0.2841(5)
H1 H 0.1673(6) 0.4749(13) 0.2495(8)
C3 C 0.2861(6) 0.4534(7) 0.2493(5)
H2 H 0.3423(6) 0.4722(13) 0.2853(9)
C4 C 0.2722(6) 0.3747(6) 0.1577(5)
O3 O 0.3344(6) 0.3573(10) 0.1238(7)
O4 O 0.1979(6) 0.3397(10) 0.1179(7)
N1 N 0.46687(26) 0.7641(12) 0.5179(7)
C5 C 0.50269(27) 0.6760(11) 0.4757(6)
H3 H 0.4677(4) 0.6122(12) 0.4396(10)
C6 C 0.58754(27) 0.6735(7) 0.4784(5)
H4 H 0.6091(4) 0.6104(8) 0.4439(7)
C7 C 0.63927(23) 0.7675(6) 0.5263(5)
C8 C 0.6035(4) 0.8553(7) 0.5755(5)
H5 H 0.6370(5) 0.9205(7) 0.6115(8)
C9 C 0.5174(4) 0.8532(10) 0.5663(8)
H6 H 0.4940(6) 0.9149(13) 0.6004(10)
C10 C 0.73036(15) 0.7751(6) 0.53251(28)
H7 H 0.76401(30) 0.8225(18) 0.5862(11)
Zn1F Zn 0.15574(16) 0.7453(6) 0.48513(28)
Zn1E Zn 0.34426(16) 0.2453(6) 0.01487(28)
Zn1E_2 Zn 0.34426(16) 1.2453(6) 1.01487(28)
Zn1C Zn 0.15574(16) 0.2547(6) -0.01487(28)
Zn1C_2 Zn 0.15574(16) 1.2547(6) 0.98513(28)
Zn1F_2 Zn 1.15574(16) 0.7453(6) 0.48513(28)
O1F O 0.1846(7) 0.9034(10) 0.5793(7)
O2F O 0.3222(7) 0.9118(12) 0.5874(8)
C1F C 0.2604(7) 0.9324(7) 0.6210(5)
C2F C 0.2764(6) 1.0050(6) 0.7159(5)
H1F H 0.3327(6) 1.0251(13) 0.7505(8)
C3F C 0.2139(6) 1.0466(7) 0.7507(5)
H2F H 0.1577(6) 1.0278(13) 0.7147(9)
C4F C 0.2278(6) 1.1253(6) 0.8423(5)
O3F O 0.1656(6) 1.1427(10) 0.8762(7)
O3E O 0.3344(6) 0.6427(10) 0.6238(7)
O3C O 0.1656(6) 0.8573(10) 0.3762(7)
O4F O 0.3021(6) 1.1603(10) 0.8821(7)
O4E O 0.1979(6) 0.6603(10) 0.6179(7)
O4C O 0.3021(6) 0.8397(10) 0.3821(7)
N1F N 1.03313(26) 0.7359(12) 0.4821(7)
N1F_2 N 0.03313(26) 0.7359(12) 0.4821(7)
C5F C 0.99731(27) 0.8240(11) 0.5243(6)
H3F H 1.0323(4) 0.8878(12) 0.5604(10)
C6F C 0.91246(27) 0.8265(7) 0.5216(5)
H4F H 0.8909(4) 0.8896(8) 0.5561(7)
C7F C 0.86073(23) 0.7325(6) 0.4737(5)
C8F C 0.8965(4) 0.6447(7) 0.4245(5)
H5F H 0.8630(5) 0.5795(7) 0.3885(8)
C9F C 0.9826(4) 0.6468(10) 0.4337(8)
H6F H 1.0060(6) 0.5851(13) 0.3996(10)
C10F C 0.76964(15) 0.7249(6) 0.46749(28)
H7F H 0.73599(30) 0.6775(18) 0.4138(11)
loop_
_geom_bond_atom_site_label_1
_geom_bond_atom_site_label_2
_geom_bond_site_symmetry_1
_geom_bond_site_symmetry_2
Zn1 O1 1_555 1_555
O1 C1 1_555 1_555
O2 C1 1_555 1_555
C1 C2 1_555 1_555
C2 H1 1_555 1_555
C3 C2 1_555 1_555
H2 C3 1_555 1_555
C4 C3 1_555 1_555
O3 C4 1_555 1_555
O4 C4 1_555 1_555
N1 Zn1 1_555 1_555
C5 N1 1_555 1_555
H3 C5 1_555 1_555
C6 C5 1_555 1_555
H4 C6 1_555 1_555
C7 C6 1_555 1_555
C8 C7 1_555 1_555
H5 C8 1_555 1_555
C9 N1 1_555 1_555
H6 C9 1_555 1_555
C10 C7 1_555 1_555
H7 C10 1_555 1_555
Zn1F O2 1_555 1_555
Zn1E O3 1_555 1_555
Zn1E_2 O4F 1_555 1_555
Zn1C O4 1_555 1_555
Zn1C_2 O3F 1_555 1_555
Zn1F_2 N1F 1_555 1_555
O1F Zn1F 1_555 1_555
O2F Zn1 1_555 1_555
C1F O1F 1_555 1_555
C2F C1F 1_555 1_555
H1F C2F 1_555 1_555
C3F C2F 1_555 1_555
H2F C3F 1_555 1_555
C4F C3F 1_555 1_555
O3F C4F 1_555 1_555
O3E Zn1 1_555 1_555
O3C Zn1F 1_555 1_555
O4F C4F 1_555 1_555
O4E Zn1F 1_555 1_555
O4C Zn1 1_555 1_555
N1F C5F 1_555 1_555
N1F_2 Zn1F 1_555 1_555
C5F H3F 1_555 1_555
C6F C5F 1_555 1_555
H4F C6F 1_555 1_555
C7F C6F 1_555 1_555
C8F C7F 1_555 1_555
H5F C8F 1_555 1_555
C9F N1F 1_555 1_555
H6F C9F 1_555 1_555
C10F C10 1_555 1_555
H7F C10F 1_555 1_555
C8 C9 1_555 1_555
O2F C1F 1_555 1_555
C7F C10F 1_555 1_555
C8F C9F 1_555 1_555

#END
