
#######################################################################
#
#                 Cambridge Crystallographic Data Centre
#                                CCDC 
#
#######################################################################
#
# If this CIF has been generated from an entry in the Cambridge 
# Structural Database, then it will include bibliographic, chemical, 
# crystal, experimental, refinement or atomic coordinate data resulting 
# from the CCDC's data processing and validation procedures.
#
#######################################################################

data_VUJSAV
_symmetry_cell_setting           monoclinic
_symmetry_space_group_name_H-M   'C 2/c'
_symmetry_Int_Tables_number      15
_space_group_name_Hall           '-C 2yn'
loop_
_symmetry_equiv_pos_site_id
_symmetry_equiv_pos_as_xyz
1 x,y,z
2 -x,y,1/2-z
3 1/2+x,1/2+y,z
4 1/2-x,1/2+y,1/2-z
5 -x,-y,-z
6 x,-y,1/2+z
7 1/2-x,1/2-y,-z
8 1/2+x,1/2-y,1/2+z
_cell_length_a                   8.2406(4)
_cell_length_b                   5.21314(24)
_cell_length_c                   11.4415(6)
_cell_angle_alpha                90
_cell_angle_beta                 103.9094(24)
_cell_angle_gamma                90
_cell_volume                     477.107
loop_
_atom_site_label
_atom_site_type_symbol
_atom_site_fract_x
_atom_site_fract_y
_atom_site_fract_z
Zn1 Zn 0.50000 0.15108(25) 0.75000
O1 O 0.84422(32) 0.4405(5) 0.80859(21)
O2 O 0.61870(30) 0.3790(5) 0.87699(21)
C1 C 0.75126(32) 0.49685(19) 0.87666(8)
C2 C 0.79427(11) 0.71211(19) 0.96377(7)
H1 H 0.89564(22) 0.7982(5) 0.96430(28)
Zn1B Zn 1.00000 0.65108(25) 0.75000
Zn1D Zn 0.50000 0.84892(25) 1.25000
Zn1F Zn 1.00000 1.34892(25) 1.25000
O1F O 0.65578(32) 1.0595(5) 1.19141(21)
O1B O 0.34422(32) -0.0595(5) 0.80859(21)
O1C O 0.65578(32) -0.0595(5) 0.69141(21)
O2F O 0.88130(30) 1.1210(5) 1.12301(21)
O2A O 0.38130(30) 0.3790(5) 0.62301(21)
C1F C 0.74874(32) 1.00315(19) 1.12334(8)
C2F C 0.70573(11) 0.78789(19) 1.03623(7)
H1F H 0.60436(22) 0.7018(5) 1.03570(28)
loop_
_geom_bond_atom_site_label_1
_geom_bond_atom_site_label_2
_geom_bond_site_symmetry_1
_geom_bond_site_symmetry_2
Zn1 O2 1_555 1_555
O1 C1 1_555 1_555
O2 C1 1_555 1_555
C1 C2 1_555 1_555
C2 H1 1_555 1_555
Zn1B O1 1_555 1_555
Zn1D O1F 1_555 1_555
Zn1F O2F 1_555 1_555
O1F C1F 1_555 1_555
O1B Zn1 1_555 1_555
O1C Zn1 1_555 1_555
O2F C1F 1_555 1_555
O2A Zn1 1_555 1_555
C1F C2F 1_555 1_555
C2F C2 1_555 1_555
H1F C2F 1_555 1_555

#END
