
#######################################################################
#
#                 Cambridge Crystallographic Data Centre
#                                CCDC 
#
#######################################################################
#
# If this CIF has been generated from an entry in the Cambridge 
# Structural Database, then it will include bibliographic, chemical, 
# crystal, experimental, refinement or atomic coordinate data resulting 
# from the CCDC's data processing and validation procedures.
#
#######################################################################

data_VUJSEZ
_symmetry_cell_setting           monoclinic
_symmetry_space_group_name_H-M   'P 21/c'
_symmetry_Int_Tables_number      14
_space_group_name_Hall           '-P 2ybc'
loop_
_symmetry_equiv_pos_site_id
_symmetry_equiv_pos_as_xyz
1 x,y,z
2 -x,1/2+y,1/2-z
3 -x,-y,-z
4 x,1/2-y,1/2+z
_cell_length_a                   3.39690(6)
_cell_length_b                   10.34413(24)
_cell_length_c                   8.80754(16)
_cell_angle_alpha                90
_cell_angle_beta                 95.5452(22)
_cell_angle_gamma                90
_cell_volume                     308.031
loop_
_atom_site_label
_atom_site_type_symbol
_atom_site_fract_x
_atom_site_fract_y
_atom_site_fract_z
Zn1 Zn 0.0000 0.50000 0.00000
O1 O 0.3185(7) 0.68206(25) 0.28661(29)
O2 O 0.0429(7) 0.49427(29) 0.21892(19)
O3 O 0.4934(12) 0.63675(30) 0.0046(4)
C1 C 0.1513(4) 0.57952(18) 0.31528(15)
C2 C 0.0740(4) 0.55275(7) 0.47574(10)
H1 H 0.1413(11) 0.62057(22) 0.54624(23)
H2 H 0.5162(12) 0.68922(30) 0.0981(4)
H3 H 0.4703(12) 0.69392(30) -0.0849(4)
Zn1_2 Zn 1.0000 0.50000 0.00000
Zn1_3 Zn 0.0000 0.50000 1.00000
O1B O -0.3185(7) 0.31794(25) 0.71339(29)
O2B O -0.0429(7) 0.50573(29) 0.78108(19)
O2B_2 O -0.0429(7) 0.50573(29) -0.21892(19)
O3B O 0.5066(12) 0.36325(30) -0.0046(4)
O3_2 O -0.5066(12) 0.63675(30) 0.0046(4)
O3B_2 O -0.4934(12) 0.36325(30) -0.0046(4)
C1B C -0.1513(4) 0.42048(18) 0.68472(15)
C2B C -0.0740(4) 0.44725(7) 0.52426(10)
H1B H -0.1413(11) 0.37943(22) 0.45376(23)
H2B H 0.4838(12) 0.31078(30) -0.0981(4)
H2_2 H -0.4838(12) 0.68922(30) 0.0981(4)
H2B_2 H -0.5162(12) 0.31078(30) -0.0981(4)
H3B H 0.5297(12) 0.30608(30) 0.0849(4)
H3_2 H -0.5297(12) 0.69392(30) -0.0849(4)
H3B_2 H -0.4703(12) 0.30608(30) 0.0849(4)
loop_
_geom_bond_atom_site_label_1
_geom_bond_atom_site_label_2
_geom_bond_site_symmetry_1
_geom_bond_site_symmetry_2
Zn1 O2 1_555 1_555
O1 C1 1_555 1_555
O2 C1 1_555 1_555
O3 Zn1 1_555 1_555
C1 C2 1_555 1_555
C2 H1 1_555 1_555
H2 O3 1_555 1_555
H3 O3 1_555 1_555
Zn1_2 O3 1_555 1_555
Zn1_3 O2B 1_555 1_555
O1B C1B 1_555 1_555
O2B C1B 1_555 1_555
O2B_2 Zn1 1_555 1_555
O3B Zn1 1_555 1_555
O3_2 Zn1 1_555 1_555
O3B_2 Zn1 1_555 1_555
C1B C2B 1_555 1_555
C2B C2 1_555 1_555
H1B C2B 1_555 1_555
H2B O3B 1_555 1_555
H2_2 O3_2 1_555 1_555
H2B_2 O3B_2 1_555 1_555
H3B O3B 1_555 1_555
H3_2 O3_2 1_555 1_555
H3B_2 O3B_2 1_555 1_555
Zn1_2 O3B 1_555 1_555

#END
