
#######################################################################
#
#                 Cambridge Crystallographic Data Centre
#                                CCDC 
#
#######################################################################
#
# If this CIF has been generated from an entry in the Cambridge 
# Structural Database, then it will include bibliographic, chemical, 
# crystal, experimental, refinement or atomic coordinate data resulting 
# from the CCDC's data processing and validation procedures.
#
#######################################################################

data_VUJTIE
_symmetry_cell_setting           monoclinic
_symmetry_space_group_name_H-M   'P 21/c'
_symmetry_Int_Tables_number      14
_space_group_name_Hall           '-P 2ybc'
loop_
_symmetry_equiv_pos_site_id
_symmetry_equiv_pos_as_xyz
1 x,y,z
2 -x,1/2+y,1/2-z
3 -x,-y,-z
4 x,1/2-y,1/2+z
_cell_length_a                   10.50990(10)
_cell_length_b                   7.34280(10)
_cell_length_c                   20.1198(3)
_cell_angle_alpha                90
_cell_angle_beta                 102.8870(10)
_cell_angle_gamma                90
_cell_volume                     1513.58
loop_
_atom_site_label
_atom_site_type_symbol
_atom_site_fract_x
_atom_site_fract_y
_atom_site_fract_z
Zn1 Zn 0.55912(3) 0.44989(4) 0.158070(14)
O1 O 0.52225(17) 0.5915(3) 0.23879(9)
O2 O 0.35684(18) 0.6948(3) 0.28156(9)
O3 O 0.72880(18) 0.5452(3) 0.16113(9)
O4 O 0.91705(19) 0.6521(3) 0.21736(11)
N1 N 0.52561(19) 0.3284(3) 0.06457(10)
N2 N 0.3731(2) 0.2216(3) -0.02187(10)
H5 H 0.2973 0.1926 -0.0457
N3 N 0.3712(2) 0.4283(3) 0.13946(10)
C1 C 0.4027(3) 0.6047(4) 0.24033(12)
C2 C 0.3091(3) 0.5021(4) 0.18354(13)
C3 C 0.1756(3) 0.4909(5) 0.17309(15)
H6 H 0.1319 0.5405 0.2042
C4 C 0.1079(3) 0.4035(5) 0.11470(16)
H7 H 0.0177 0.3920 0.1071
C5 C 0.1725(3) 0.3330(4) 0.06753(14)
H8 H 0.1274 0.2771 0.0278
C6 C 0.3075(2) 0.3495(3) 0.08207(12)
C7 C 0.3992(2) 0.2971(3) 0.04021(12)
C8 C 0.4909(3) 0.1990(3) -0.04040(12)
C9 C 0.5226(3) 0.1252(4) -0.09807(13)
H9 H 0.4586 0.0819 -0.1343
C10 C 0.6528(3) 0.1187(4) -0.09946(15)
H10 H 0.6775 0.0692 -0.1372
C11 C 0.7493(3) 0.1855(4) -0.04489(15)
H11 H 0.8364 0.1795 -0.0476
C12 C 0.7183(3) 0.2594(4) 0.01247(14)
H12 H 0.7827 0.3033 0.0484
C13 C 0.5873(2) 0.2659(3) 0.01455(12)
C14 C 0.8136(3) 0.5752(4) 0.21451(15)
H13 H 0.7959 0.5353 0.2554
Zn1A Zn 0.44088(3) 0.94989(4) 0.341930(14)
O2A O 0.64316(18) 0.1948(3) 0.21844(9)
O5 O 0.1121(2) 0.6618(4) 0.33408(11)
H1 H 0.0456(17) 0.666(6) 0.3018(12)
H2 H 0.1822(16) 0.698(6) 0.3251(16)
O6 O 0.1192(2) 0.1562(3) 0.90819(11)
H3 H 0.118(4) 0.051(2) 0.8914(17)
H4 H 0.104(4) 0.242(3) 0.8796(14)
loop_
_geom_bond_atom_site_label_1
_geom_bond_atom_site_label_2
_geom_bond_site_symmetry_1
_geom_bond_site_symmetry_2
Zn1 O1 1_555 1_555
O1 C1 1_555 1_555
O2 C1 1_555 1_555
O3 Zn1 1_555 1_555
O4 C14 1_555 1_555
O5 H1 1_555 1_555
H2 O5 1_555 1_555
O6 H3 1_555 1_555
H4 O6 1_555 1_555
N1 Zn1 1_555 1_555
N2 H5 1_555 1_555
N3 Zn1 1_555 1_555
C1 C2 1_555 1_555
C2 N3 1_555 1_555
C3 C2 1_555 1_555
H6 C3 1_555 1_555
C4 C3 1_555 1_555
H7 C4 1_555 1_555
C5 C4 1_555 1_555
H8 C5 1_555 1_555
C6 N3 1_555 1_555
C7 N1 1_555 1_555
C8 N2 1_555 1_555
C9 C8 1_555 1_555
H9 C9 1_555 1_555
C10 C9 1_555 1_555
H10 C10 1_555 1_555
C11 C10 1_555 1_555
H11 C11 1_555 1_555
C12 C11 1_555 1_555
H12 C12 1_555 1_555
C13 N1 1_555 1_555
C14 O3 1_555 1_555
H13 C14 1_555 1_555
Zn1A O2 1_555 1_555
O2A Zn1 1_555 1_555
N2 C7 1_555 1_555
C5 C6 1_555 1_555
C6 C7 1_555 1_555
C8 C13 1_555 1_555
C12 C13 1_555 1_555

#END
