
#######################################################################
#
#                 Cambridge Crystallographic Data Centre
#                                CCDC 
#
#######################################################################
#
# If this CIF has been generated from an entry in the Cambridge 
# Structural Database, then it will include bibliographic, chemical, 
# crystal, experimental, refinement or atomic coordinate data resulting 
# from the CCDC's data processing and validation procedures.
#
#######################################################################

data_VUJTOK
_symmetry_cell_setting           monoclinic
_symmetry_space_group_name_H-M   'P 21/c'
_symmetry_Int_Tables_number      14
_space_group_name_Hall           '-P 2ybc'
loop_
_symmetry_equiv_pos_site_id
_symmetry_equiv_pos_as_xyz
1 x,y,z
2 -x,1/2+y,1/2-z
3 -x,-y,-z
4 x,1/2-y,1/2+z
_cell_length_a                   12.9170(8)
_cell_length_b                   7.3303(5)
_cell_length_c                   20.6012(13)
_cell_angle_alpha                90
_cell_angle_beta                 98.3000(10)
_cell_angle_gamma                90
_cell_volume                     1930.2
loop_
_atom_site_label
_atom_site_type_symbol
_atom_site_fract_x
_atom_site_fract_y
_atom_site_fract_z
Zn1 Zn 0.55671(3) 0.93866(6) 0.858992(19)
S1 S 0.78918(8) 0.86099(15) 0.87279(5)
O1 O 0.53743(19) 1.0888(3) 0.77417(11)
O2 O 0.4106(2) 1.1850(3) 0.69538(11)
O3 O 0.70304(19) 0.9897(4) 0.88767(13)
N1 N 0.4064(2) 0.9333(3) 0.83794(13)
N2 N 0.5192(2) 0.8272(4) 0.94372(12)
N3 N 0.3888(2) 0.7255(4) 0.99339(13)
H3 H 0.3262 0.6993 0.9999
C1 C 0.4438(3) 1.1005(5) 0.74630(16)
C2 C 0.3635(3) 1.0015(5) 0.78081(15)
C3 C 0.2577(3) 0.9853(6) 0.76057(18)
H4 H 0.2275 1.0314 0.7202
C4 C 0.1973(3) 0.8993(6) 0.8013(2)
H5 H 0.1258 0.8851 0.7881
C5 C 0.2428(3) 0.8336(6) 0.86223(18)
H6 H 0.2026 0.7777 0.8906
C6 C 0.3493(3) 0.8541(4) 0.87912(15)
C7 C 0.4167(3) 0.7994(4) 0.93923(15)
C8 C 0.5613(3) 0.7635(4) 1.00532(15)
C9 C 0.6639(3) 0.7532(5) 1.03670(17)
H7 H 0.7193 0.7956 1.0167
C10 C 0.6804(3) 0.6779(5) 1.09845(18)
H8 H 0.7484 0.6690 1.1204
C11 C 0.5973(3) 0.6141(5) 1.12936(17)
H9 H 0.6116 0.5644 1.1712
C12 C 0.4953(3) 0.6231(5) 1.09930(16)
H10 H 0.4403 0.5806 1.1197
C13 C 0.4789(3) 0.6992(4) 1.03677(15)
C14 C 0.8272(4) 0.9457(9) 0.7996(2)
H11 H 0.7719 0.9255 0.7638
H12 H 0.8892 0.8837 0.7910
H13 H 0.8410 1.0741 0.8041
C15 C 0.8995(4) 0.9306(7) 0.9290(3)
H14 H 0.9072 1.0606 0.9268
H15 H 0.9612 0.8726 0.9179
H16 H 0.8897 0.8963 0.9726
Zn1A Zn 0.44329(3) 1.43866(6) 0.641008(19)
O2A O 0.5894(2) 0.6850(3) 0.80462(11)
Cl1 Cl 0.00955(8) 0.41050(17) 0.86928(5)
O4 O -0.0990(3) 0.4008(7) 0.86956(18)
O5 O 0.0416(5) 0.5792(8) 0.8536(3)
O6 O 0.0614(3) 0.3548(8) 0.9307(2)
O8 O 0.0351(4) 0.2897(9) 0.8218(3)
O7 O 0.1887(3) 0.6282(7) 0.01124(19)
H1 H 0.149(4) 0.567(8) -0.017(2)
H2 H 0.182(5) 0.607(9) 0.0506(9)
loop_
_geom_bond_atom_site_label_1
_geom_bond_atom_site_label_2
_geom_bond_site_symmetry_1
_geom_bond_site_symmetry_2
Zn1 O1 1_555 1_555
S1 O3 1_555 1_555
Cl1 O4 1_555 1_555
O1 C1 1_555 1_555
O2 C1 1_555 1_555
O3 Zn1 1_555 1_555
O5 Cl1 1_555 1_555
O6 Cl1 1_555 1_555
O7 H1 1_555 1_555
H2 O7 1_555 1_555
N1 Zn1 1_555 1_555
N2 Zn1 1_555 1_555
N3 H3 1_555 1_555
C1 C2 1_555 1_555
C2 N1 1_555 1_555
C3 C2 1_555 1_555
H4 C3 1_555 1_555
C4 C3 1_555 1_555
H5 C4 1_555 1_555
C5 C4 1_555 1_555
H6 C5 1_555 1_555
C6 N1 1_555 1_555
O8 Cl1 1_555 1_555
C7 N2 1_555 1_555
C8 N2 1_555 1_555
C9 C8 1_555 1_555
H7 C9 1_555 1_555
C10 C9 1_555 1_555
H8 C10 1_555 1_555
C11 C10 1_555 1_555
H9 C11 1_555 1_555
C12 C11 1_555 1_555
H10 C12 1_555 1_555
C13 N3 1_555 1_555
C14 S1 1_555 1_555
H11 C14 1_555 1_555
H12 C14 1_555 1_555
H13 C14 1_555 1_555
C15 S1 1_555 1_555
H14 C15 1_555 1_555
H15 C15 1_555 1_555
H16 C15 1_555 1_555
Zn1A O2 1_555 1_555
O2A Zn1 1_555 1_555
N3 C7 1_555 1_555
C5 C6 1_555 1_555
C6 C7 1_555 1_555
C8 C13 1_555 1_555
C12 C13 1_555 1_555

#END
