
#######################################################################
#
#                 Cambridge Crystallographic Data Centre
#                                CCDC 
#
#######################################################################
#
# If this CIF has been generated from an entry in the Cambridge 
# Structural Database, then it will include bibliographic, chemical, 
# crystal, experimental, refinement or atomic coordinate data resulting 
# from the CCDC's data processing and validation procedures.
#
#######################################################################

data_VUJVOM
_symmetry_cell_setting           trigonal
_symmetry_space_group_name_H-M   'P 32 2 1'
_symmetry_Int_Tables_number      154
_space_group_name_Hall           'P 32 2"'
loop_
_symmetry_equiv_pos_site_id
_symmetry_equiv_pos_as_xyz
1 x,y,z
2 -y,x-y,2/3+z
3 -x+y,-x,1/3+z
4 y,x,-z
5 -x,-x+y,2/3-z
6 x-y,-y,1/3-z
_cell_length_a                   14.4804(7)
_cell_length_b                   14.4804(7)
_cell_length_c                   18.9354(18)
_cell_angle_alpha                90
_cell_angle_beta                 90
_cell_angle_gamma                120
_cell_volume                     3438.48
loop_
_atom_site_label
_atom_site_type_symbol
_atom_site_fract_x
_atom_site_fract_y
_atom_site_fract_z
Co1 Co 0.25588(7) 0.0000 0.1667
Cl1 Cl 0.22341(12) -0.06194(11) 0.04059(6)
N1 N 0.4220(4) 0.1176(4) 0.1458(2)
C1 C 0.4527(4) 0.1825(4) 0.0881(3)
H1 H 0.4005 0.1769 0.0570
C2 C 0.5539(4) 0.2534(4) 0.0744(3)
H2 H 0.5708 0.2965 0.0346
C3 C 0.6342(4) 0.2636(4) 0.1186(3)
C4 C 0.6051(4) 0.2009(5) 0.1784(3)
H3 H 0.6565 0.2067 0.2103
C5 C 0.5001(5) 0.1304(5) 0.1902(3)
H4 H 0.4814 0.0891 0.2309
N2 N 0.7452(3) 0.3318(4) 0.1075(2)
H5 H 0.7874 0.3239 0.1356
C6 C 0.7919(4) 0.4086(4) 0.0569(3)
O1 O 0.7427(3) 0.4283(4) 0.0149(2)
C7 C 0.9108(4) 0.4690(4) 0.0570(3)
C8 C 0.9624(5) 0.5719(4) 0.0344(3)
H6 H 0.9240 0.6026 0.0168
C9 C 1.0732(5) 0.6309(4) 0.0377(3)
H7 H 1.1075 0.7015 0.0226
C10 C 1.1325(5) 0.5905(5) 0.0617(3)
H8 H 1.2063 0.6327 0.0648
C11 C 1.0809(4) 0.4825(4) 0.0820(3)
C12 C 0.9711(5) 0.4250(4) 0.0804(3)
H9 H 0.9364 0.3544 0.0954
C13 C 1.1474(5) 0.4390(5) 0.1062(3)
O2 O 1.2334(4) 0.4889(4) 0.1366(3)
N3 N 1.1048(3) 0.3302(3) 0.0896(2)
H10 H 1.0475 0.3017 0.0647
C14 C 1.1433(4) 0.2634(4) 0.1085(3)
C15 C 1.2316(5) 0.2915(5) 0.1507(3)
H11 H 1.2720 0.3602 0.1686
C16 C 1.2578(5) 0.2133(5) 0.1654(3)
H12 H 1.3169 0.2328 0.1940
N4 N 1.2063(3) 0.1136(3) 0.1423(2)
C17 C 1.1238(4) 0.0886(5) 0.1007(3)
H13 H 1.0865 0.0197 0.0828
C18 C 1.0889(5) 0.1605(5) 0.0821(3)
H14 H 1.0303 0.1391 0.0526
Co1_2 Co 1.25588(7) 0.0000 0.1667
Cl1E Cl 0.28535(16) 0.06194(11) 0.29274(6)
N1E N 0.3044(6) -0.1176(4) 0.1875(2)
C1E C 0.2702(6) -0.1825(4) 0.2452(3)
H1E H 0.2236 -0.1769 0.2763
C2E C 0.3005(6) -0.2534(4) 0.2589(3)
H2E H 0.2743 -0.2965 0.2987
C3E C 0.3706(6) -0.2636(4) 0.2147(3)
C4E C 0.4042(6) -0.2009(5) 0.1549(3)
H3E H 0.4498 -0.2067 0.1230
C5E C 0.3697(7) -0.1304(5) 0.1431(3)
H4E H 0.3923 -0.0891 0.1024
N2E N 0.4134(5) -0.3318(4) 0.2258(2)
H5E H 0.4635 -0.3239 0.1977
C6E C 0.3833(6) -0.4086(4) 0.2764(3)
O1E O 0.3144(5) -0.4283(4) 0.3184(2)
C7E C 0.4418(6) -0.4690(4) 0.2763(3)
C8E C 0.3905(6) -0.5719(4) 0.2989(3)
H6E H 0.3214 -0.6026 0.3165
C9E C 0.4423(6) -0.6309(4) 0.2956(3)
H7E H 0.4060 -0.7015 0.3107
C10E C 0.5420(7) -0.5905(5) 0.2716(3)
H8E H 0.5736 -0.6327 0.2685
C11E C 0.5984(6) -0.4825(4) 0.2513(3)
C12E C 0.5461(6) -0.4250(4) 0.2529(3)
H9E H 0.5820 -0.3544 0.2379
C13E C 0.7084(7) -0.4390(5) 0.2271(3)
O2E O 0.7445(6) -0.4889(4) 0.1967(3)
N3E N 0.7746(4) -0.3302(3) 0.2437(2)
H10E H 0.7458 -0.3017 0.2686
C14E C 0.8799(6) -0.2634(4) 0.2248(3)
C15E C 0.9401(7) -0.2915(5) 0.1826(3)
H11E H 0.9118 -0.3602 0.1647
C16E C 1.0445(7) -0.2133(5) 0.1679(3)
H12E H 1.0841 -0.2328 0.1393
N4E N 1.0927(4) -0.1136(3) 0.1910(2)
N4_2 N 0.2063(3) 0.1136(3) 0.1423(2)
N4E_2 N 0.0927(4) -0.1136(3) 0.1910(2)
C17E C 1.0352(6) -0.0886(5) 0.2326(3)
H13E H 1.0668 -0.0197 0.2505
C18E C 0.9284(7) -0.1605(5) 0.2512(3)
H14E H 0.8912 -0.1391 0.2807
loop_
_geom_bond_atom_site_label_1
_geom_bond_atom_site_label_2
_geom_bond_site_symmetry_1
_geom_bond_site_symmetry_2
Co1 Cl1 1_555 1_555
N1 Co1 1_555 1_555
C1 N1 1_555 1_555
H1 C1 1_555 1_555
C2 C1 1_555 1_555
H2 C2 1_555 1_555
C3 C2 1_555 1_555
C4 C3 1_555 1_555
H3 C4 1_555 1_555
C5 N1 1_555 1_555
H4 C5 1_555 1_555
N2 C3 1_555 1_555
H5 N2 1_555 1_555
C6 N2 1_555 1_555
O1 C6 1_555 1_555
C7 C6 1_555 1_555
C8 C7 1_555 1_555
H6 C8 1_555 1_555
C9 C8 1_555 1_555
H7 C9 1_555 1_555
C10 C9 1_555 1_555
H8 C10 1_555 1_555
C11 C10 1_555 1_555
C12 C7 1_555 1_555
H9 C12 1_555 1_555
C13 C11 1_555 1_555
O2 C13 1_555 1_555
N3 C13 1_555 1_555
H10 N3 1_555 1_555
C14 N3 1_555 1_555
C15 C14 1_555 1_555
H11 C15 1_555 1_555
C16 C15 1_555 1_555
H12 C16 1_555 1_555
N4 C16 1_555 1_555
C17 N4 1_555 1_555
H13 C17 1_555 1_555
C18 C14 1_555 1_555
H14 C18 1_555 1_555
Co1_2 N4 1_555 1_555
Cl1E Co1 1_555 1_555
N1E Co1 1_555 1_555
C1E N1E 1_555 1_555
H1E C1E 1_555 1_555
C2E C1E 1_555 1_555
H2E C2E 1_555 1_555
C3E C2E 1_555 1_555
C4E C3E 1_555 1_555
H3E C4E 1_555 1_555
C5E N1E 1_555 1_555
H4E C5E 1_555 1_555
N2E C3E 1_555 1_555
H5E N2E 1_555 1_555
C6E N2E 1_555 1_555
O1E C6E 1_555 1_555
C7E C6E 1_555 1_555
C8E C7E 1_555 1_555
H6E C8E 1_555 1_555
C9E C8E 1_555 1_555
H7E C9E 1_555 1_555
C10E C9E 1_555 1_555
H8E C10E 1_555 1_555
C11E C10E 1_555 1_555
C12E C7E 1_555 1_555
H9E C12E 1_555 1_555
C13E C11E 1_555 1_555
O2E C13E 1_555 1_555
N3E C13E 1_555 1_555
H10E N3E 1_555 1_555
C14E N3E 1_555 1_555
C15E C14E 1_555 1_555
H11E C15E 1_555 1_555
C16E C15E 1_555 1_555
H12E C16E 1_555 1_555
N4E Co1_2 1_555 1_555
N4_2 Co1 1_555 1_555
N4E_2 Co1 1_555 1_555
C17E N4E 1_555 1_555
H13E C17E 1_555 1_555
C18E C14E 1_555 1_555
H14E C18E 1_555 1_555
C4 C5 1_555 1_555
C11 C12 1_555 1_555
C17 C18 1_555 1_555
C4E C5E 1_555 1_555
C11E C12E 1_555 1_555
C16E N4E 1_555 1_555
C17E C18E 1_555 1_555

#END
