
#######################################################################
#
#                 Cambridge Crystallographic Data Centre
#                                CCDC 
#
#######################################################################
#
# If this CIF has been generated from an entry in the Cambridge 
# Structural Database, then it will include bibliographic, chemical, 
# crystal, experimental, refinement or atomic coordinate data resulting 
# from the CCDC's data processing and validation procedures.
#
#######################################################################

data_VUJVIH
_symmetry_cell_setting           monoclinic
_symmetry_space_group_name_H-M   'P 21/c'
_symmetry_Int_Tables_number      14
_space_group_name_Hall           '-P 2ybc'
loop_
_symmetry_equiv_pos_site_id
_symmetry_equiv_pos_as_xyz
1 x,y,z
2 -x,1/2+y,1/2-z
3 -x,-y,-z
4 x,1/2-y,1/2+z
_cell_length_a                   8.4858(9)
_cell_length_b                   9.9337(11)
_cell_length_c                   14.5512(13)
_cell_angle_alpha                90
_cell_angle_beta                 120.445(5)
_cell_angle_gamma                90
_cell_volume                     1057.47
loop_
_atom_site_label
_atom_site_type_symbol
_atom_site_fract_x
_atom_site_fract_y
_atom_site_fract_z
O1 O 1.0617(6) 0.4088(5) 0.4517(4)
H1 H 1.0097 0.3220 0.4247
H2 H 1.1792 0.3901 0.5078
C1 C 0.8046(7) 0.3927(5) 0.0753(4)
C2 C 0.7667(7) 0.5176(5) 0.1044(4)
C3 C 0.6913(7) 0.6207(5) 0.0300(4)
H3 H 0.6647 0.7035 0.0489
C4 C 0.6561(7) 0.5987(5) -0.0728(4)
C5 C 0.6891(10) 0.4745(6) -0.1033(5)
H4 H 0.6628 0.4607 -0.1728
C6 C 0.7609(9) 0.3717(6) -0.0298(5)
H5 H 0.7804 0.2877 -0.0504
C7 C 0.8958(7) 0.2816(5) 0.1548(4)
Cu1 Cu 1.06908(9) 0.49189(6) 0.31066(5)
N1 N 0.8075(6) 0.5373(4) 0.2122(3)
H6 H 0.7357 0.4841 0.2256
H7 H 0.7863 0.6235 0.2218
O2 O 1.0102(5) 0.3090(4) 0.2503(3)
O3 O 0.8535(6) 0.1641(4) 0.1185(3)
O4 O 0.6608(6) 0.7278(4) -0.2253(4)
O5 O 0.3681(6) 0.6927(5) -0.2396(4)
O6 O 0.5817(6) 0.8532(4) -0.1127(3)
O7 O 1.3303(5) 0.4500(4) 0.3643(4)
H8 H 1.3849 0.5234 0.3687
H9 H 1.3332 0.4002 0.3173
S1 S 0.55818(18) 0.72806(13) -0.17057(10)
Cu1A Cu 0.93092(9) -0.00811(6) 0.18934(5)
O3A O 1.1465(6) 0.6641(4) 0.3815(3)
loop_
_geom_bond_atom_site_label_1
_geom_bond_atom_site_label_2
_geom_bond_site_symmetry_1
_geom_bond_site_symmetry_2
O1 H1 1_555 1_555
H2 O1 1_555 1_555
C1 C2 1_555 1_555
C2 C3 1_555 1_555
C3 H3 1_555 1_555
C4 C3 1_555 1_555
C5 C4 1_555 1_555
H4 C5 1_555 1_555
C6 C1 1_555 1_555
H5 C6 1_555 1_555
C7 C1 1_555 1_555
Cu1 O1 1_555 1_555
N1 C2 1_555 1_555
H6 N1 1_555 1_555
H7 N1 1_555 1_555
O2 C7 1_555 1_555
O3 C7 1_555 1_555
O4 S1 1_555 1_555
O5 S1 1_555 1_555
O6 S1 1_555 1_555
O7 Cu1 1_555 1_555
H8 O7 1_555 1_555
H9 O7 1_555 1_555
S1 C4 1_555 1_555
Cu1A O3 1_555 1_555
O3A Cu1 1_555 1_555
C5 C6 1_555 1_555
Cu1 N1 1_555 1_555
Cu1 O2 1_555 1_555

#END
