
#######################################################################
#
#                 Cambridge Crystallographic Data Centre
#                                CCDC 
#
#######################################################################
#
# If this CIF has been generated from an entry in the Cambridge 
# Structural Database, then it will include bibliographic, chemical, 
# crystal, experimental, refinement or atomic coordinate data resulting 
# from the CCDC's data processing and validation procedures.
#
#######################################################################

data_VUJVAZ
_symmetry_cell_setting           monoclinic
_symmetry_space_group_name_H-M   'P 21/c'
_symmetry_Int_Tables_number      14
_space_group_name_Hall           '-P 2ybc'
loop_
_symmetry_equiv_pos_site_id
_symmetry_equiv_pos_as_xyz
1 x,y,z
2 -x,1/2+y,1/2-z
3 -x,-y,-z
4 x,1/2-y,1/2+z
_cell_length_a                   10.040(2)
_cell_length_b                   29.500(6)
_cell_length_c                   10.966(2)
_cell_angle_alpha                90
_cell_angle_beta                 94.58(3)
_cell_angle_gamma                90
_cell_volume                     3237.54
loop_
_atom_site_label
_atom_site_type_symbol
_atom_site_fract_x
_atom_site_fract_y
_atom_site_fract_z
Cd1 Cd 0.51914(5) 0.041738(18) 0.75495(4)
S1 S 0.7043(2) -0.01086(7) 0.67081(17)
S2 S 0.6891(2) 0.06062(7) 0.95530(18)
C1 C 0.6415(7) 0.0243(3) 1.0555(7)
C2 C 0.6493(7) -0.0218(2) 0.5270(7)
O1 O 0.5522(5) 0.11346(17) 0.6792(5)
N1 N 0.6171(6) -0.0295(2) 0.4263(6)
N2 N 0.4138(6) 0.18172(19) 0.5431(5)
C3 C 0.3119(7) 0.1592(3) 0.4806(7)
H1 H 0.2407 0.1491 0.5225
O2 O 0.3833(5) 0.11245(18) 0.7918(4)
N3 N 0.4255(6) 0.1540(2) 0.1749(6)
N4 N 0.6106(7) -0.0003(2) 1.1279(6)
C4 C 0.5148(7) 0.1921(2) 0.3589(7)
H2 H 0.5812 0.2059 0.3173
C5 C 0.4159(7) 0.1656(2) 0.2934(7)
C6 C 0.4553(7) 0.1312(3) 0.7228(6)
C7 C 0.4211(8) 0.1804(2) 0.6787(6)
H3 H 0.3361 0.1896 0.7071
H4 H 0.4893 0.2012 0.7122
C8 C 0.5142(7) 0.1977(2) 0.4827(7)
H5 H 0.5845 0.2129 0.5253
C9 C 0.5284(8) 0.1722(3) 0.1015(7)
H6 H 0.4951 0.1731 0.0171
H7 H 0.6063 0.1533 0.1107
H8 H 0.5515 0.2024 0.1288
C10 C 0.3330(8) 0.1209(3) 0.1148(7)
H9 H 0.3432 0.0922 0.1561
H10 H 0.3523 0.1173 0.0310
H11 H 0.2428 0.1314 0.1179
C11 C 0.3113(8) 0.1513(3) 0.3615(7)
H12 H 0.2394 0.1359 0.3222
Cd1B Cd 0.48086(5) -0.041738(18) 0.24505(4)
Cd1B_2 Cd 0.48086(5) -0.041738(18) 1.24505(4)
N1B N 0.3829(6) 0.0295(2) 0.5737(6)
N4B N 0.3894(7) 0.0003(2) 0.8721(6)
Cd2 Cd 0.94922(6) 0.255263(17) 0.56172(4)
S3 S 1.1785(2) 0.28037(7) 0.46280(18)
S4 S 0.7662(2) 0.30422(7) 0.41403(16)
S5 S 0.9538(2) 0.33571(7) 0.68868(17)
C12 C 1.1212(7) 0.2791(2) 0.3182(7)
N5 N 0.9259(7) 0.30281(19) 0.9235(6)
C13 C 0.7736(7) 0.2815(2) 0.2773(6)
N6 N 0.7729(6) 0.2675(2) 0.1798(5)
C14 C 0.9376(7) 0.3155(2) 0.8274(7)
N7 N 1.0867(7) 0.2799(2) 0.2154(6)
Cd2C Cd 0.94922(6) 0.244737(17) 0.06172(4)
Cd2C_2 Cd 0.94922(6) 0.244737(17) 1.06172(4)
N5C N 0.9259(7) 0.19719(19) 0.4235(6)
N6C N 0.7729(6) 0.2325(2) 0.6798(5)
N7C N 1.0867(7) 0.2201(2) 0.7154(6)
O3 O 0.9978(5) 0.02235(16) 0.8686(4)
N8 N 1.0248(6) 0.09758(18) 0.7348(5)
N9 N 0.8406(6) 0.07528(19) 0.3917(5)
C15 C 0.9012(7) 0.0841(2) 0.5000(6)
C16 C 1.0495(7) 0.0544(2) 0.9219(6)
C17 C 1.0352(6) 0.0712(2) 0.5340(6)
H13 H 1.0860 0.0582 0.4759
C18 C 1.0906(7) 0.0775(2) 0.6498(6)
H14 H 1.1773 0.0675 0.6700
C19 C 0.8366(7) 0.1062(2) 0.5929(7)
H15 H 0.7501 0.1170 0.5756
O4 O 1.0872(6) 0.05409(16) 1.0398(4)
H16 H 1.0718 0.0291 1.0684
C20 C 1.0794(8) 0.0986(2) 0.8622(6)
H17 H 1.0396 0.1234 0.9049
H18 H 1.1752 0.1035 0.8661
C21 C 0.7022(7) 0.0894(3) 0.3592(7)
H19 H 0.6456 0.0775 0.4181
H20 H 0.6733 0.0780 0.2795
H21 H 0.6970 0.1219 0.3588
C22 C 0.8971(8) 0.1121(2) 0.7060(6)
H22 H 0.8510 0.1264 0.7654
C23 C 0.9057(8) 0.0497(2) 0.2990(6)
H23 H 0.9856 0.0651 0.2799
H24 H 0.8461 0.0471 0.2264
H25 H 0.9282 0.0199 0.3297
loop_
_geom_bond_atom_site_label_1
_geom_bond_atom_site_label_2
_geom_bond_site_symmetry_1
_geom_bond_site_symmetry_2
Cd1 S1 1_555 1_555
S1 C2 1_555 1_555
S2 Cd1 1_555 1_555
C1 S2 1_555 1_555
C2 N1 1_555 1_555
O1 Cd1 1_555 1_555
N1 Cd1B 1_555 1_555
N2 C3 1_555 1_555
C3 H1 1_555 1_555
O2 Cd1 1_555 1_555
N3 C5 1_555 1_555
N4 C1 1_555 1_555
C4 H2 1_555 1_555
C5 C4 1_555 1_555
C6 O1 1_555 1_555
C7 N2 1_555 1_555
H3 C7 1_555 1_555
H4 C7 1_555 1_555
C8 N2 1_555 1_555
H5 C8 1_555 1_555
C9 N3 1_555 1_555
H6 C9 1_555 1_555
H7 C9 1_555 1_555
H8 C9 1_555 1_555
C10 N3 1_555 1_555
H9 C10 1_555 1_555
H10 C10 1_555 1_555
H11 C10 1_555 1_555
C11 C3 1_555 1_555
H12 C11 1_555 1_555
Cd2 S3 1_555 1_555
S3 C12 1_555 1_555
S4 Cd2 1_555 1_555
S5 Cd2 1_555 1_555
C12 N7 1_555 1_555
N5 C14 1_555 1_555
C13 S4 1_555 1_555
N6 C13 1_555 1_555
C14 S5 1_555 1_555
N7 Cd2C 1_555 1_555
O3 C16 1_555 1_555
N8 C18 1_555 1_555
N9 C15 1_555 1_555
C15 C17 1_555 1_555
C16 O4 1_555 1_555
C17 H13 1_555 1_555
C18 C17 1_555 1_555
H14 C18 1_555 1_555
C19 C15 1_555 1_555
H15 C19 1_555 1_555
O4 H16 1_555 1_555
C20 N8 1_555 1_555
H17 C20 1_555 1_555
H18 C20 1_555 1_555
C21 N9 1_555 1_555
H19 C21 1_555 1_555
H20 C21 1_555 1_555
H21 C21 1_555 1_555
C22 N8 1_555 1_555
H22 C22 1_555 1_555
C23 N9 1_555 1_555
H23 C23 1_555 1_555
H24 C23 1_555 1_555
H25 C23 1_555 1_555
Cd1B_2 N4 1_555 1_555
N1B Cd1 1_555 1_555
N4B Cd1 1_555 1_555
Cd2C N6 1_555 1_555
Cd2C_2 N5 1_555 1_555
N5C Cd2 1_555 1_555
N6C Cd2 1_555 1_555
N7C Cd2 1_555 1_555
O2 C6 1_555 1_555
C4 C8 1_555 1_555
C5 C11 1_555 1_555
C6 C7 1_555 1_555
C16 C20 1_555 1_555
C19 C22 1_555 1_555

#END
