
#######################################################################
#
#                 Cambridge Crystallographic Data Centre
#                                CCDC 
#
#######################################################################
#
# If this CIF has been generated from an entry in the Cambridge 
# Structural Database, then it will include bibliographic, chemical, 
# crystal, experimental, refinement or atomic coordinate data resulting 
# from the CCDC's data processing and validation procedures.
#
#######################################################################

data_VUJWED
_symmetry_cell_setting           triclinic
_symmetry_space_group_name_H-M   'P -1'
_symmetry_Int_Tables_number      2
_space_group_name_Hall           '-P 1'
loop_
_symmetry_equiv_pos_site_id
_symmetry_equiv_pos_as_xyz
1 x,y,z
2 -x,-y,-z
_cell_length_a                   10.2688(10)
_cell_length_b                   11.1859(10)
_cell_length_c                   18.4444(17)
_cell_angle_alpha                80.2550(10)
_cell_angle_beta                 83.1220(10)
_cell_angle_gamma                89.7290(10)
_cell_volume                     2072.77
loop_
_atom_site_label
_atom_site_type_symbol
_atom_site_fract_x
_atom_site_fract_y
_atom_site_fract_z
Ni1 Ni 0.49722(3) 0.44443(3) 0.286042(18)
Ni2 Ni 0.52187(3) 0.94796(3) -0.162951(17)
S1 S 0.00603(8) 1.29304(8) -0.10288(7)
S2 S -0.04082(8) 0.67910(9) 0.44066(5)
O1 O 0.67788(19) 0.84737(18) -0.20536(11)
H1 H 0.6573 0.7745 -0.2037
H2 H 0.6905 0.8823 -0.2495
O2 O 0.66056(19) 0.34960(18) 0.24669(10)
H3 H 0.6434 0.3048 0.2163
H4 H 0.6735 0.3039 0.2860
O3 O 0.45179(19) 0.30803(18) 0.37062(11)
O4 O 0.6500(2) 0.2351(2) 0.38887(11)
O5 O 0.6766(2) 0.0056(2) 0.65979(11)
O6 O 0.4927(2) 0.0216(2) 0.73416(10)
O7 O 0.50060(19) 0.56087(17) 0.18272(10)
O8 O 0.38400(19) 0.39182(16) 0.20646(10)
O9 O 0.50921(19) 0.83220(17) -0.05950(10)
O10 O 0.39426(18) 0.78927(16) -0.14474(9)
N1 N -0.3729(2) 0.5350(2) 0.33535(12)
N2 N 0.3306(2) 0.5281(2) 0.33069(12)
N3 N -0.3401(2) 1.0671(2) -0.14134(12)
N4 N 0.3575(2) 1.0476(2) -0.13233(12)
C1 C 0.5301(3) 0.2423(2) 0.40822(15)
C2 C 0.4681(3) 0.1738(2) 0.48115(14)
C3 C 0.3327(3) 0.1555(3) 0.49274(15)
H5 H 0.2823 0.1840 0.4549
C4 C 0.2727(3) 0.0955(3) 0.55968(16)
H6 H 0.1828 0.0800 0.5663
C5 C 0.3468(3) 0.0583(3) 0.61724(15)
H7 H 0.3056 0.0219 0.6633
C6 C 0.4818(3) 0.0749(2) 0.60685(14)
C7 C 0.5428(3) 0.1301(2) 0.53785(14)
H8 H 0.6337 0.1378 0.5296
C8 C 0.5588(3) 0.0303(2) 0.67101(15)
C9 C 0.3284(3) 0.6354(3) 0.35319(16)
H9 H 0.4066 0.6795 0.3473
C10 C 0.2165(3) 0.6845(3) 0.38464(18)
H10 H 0.2195 0.7603 0.3989
C11 C 0.0992(3) 0.6190(3) 0.39477(17)
C12 C 0.1004(3) 0.5069(3) 0.37243(17)
H11 H 0.0239 0.4603 0.3787
C13 C 0.2161(3) 0.4656(3) 0.34089(17)
H12 H 0.2154 0.3904 0.3258
C14 C -0.2698(3) 0.5934(3) 0.29314(17)
H13 H -0.2677 0.6042 0.2419
C15 C -0.1668(3) 0.6382(3) 0.32231(19)
H14 H -0.0968 0.6784 0.2912
C16 C -0.1684(3) 0.6230(3) 0.39807(17)
C17 C -0.2762(3) 0.5657(3) 0.44210(16)
H15 H -0.2818 0.5560 0.4935
C18 C -0.3750(3) 0.5235(3) 0.40861(16)
H16 H -0.4471 0.4849 0.4386
C19 C 0.4216(3) 0.4896(2) 0.16336(14)
C20 C 0.3675(3) 0.5225(2) 0.09089(14)
C21 C 0.2616(3) 0.4591(3) 0.07496(16)
H17 H 0.2257 0.3928 0.1087
C22 C 0.2093(3) 0.4946(3) 0.00877(16)
H18 H 0.1375 0.4527 -0.0014
C23 C 0.2638(3) 0.5921(3) -0.04211(15)
H19 H 0.2292 0.6148 -0.0867
C24 C 0.3700(3) 0.6565(2) -0.02681(14)
C25 C 0.4209(2) 0.6212(2) 0.03995(14)
H20 H 0.4915 0.6640 0.0507
C26 C 0.4279(3) 0.7645(2) -0.07981(14)
C27 C 0.3563(3) 1.1371(3) -0.09323(17)
H21 H 0.4316 1.1512 -0.0723
C28 C 0.2511(3) 1.2097(3) -0.0819(2)
H22 H 0.2554 1.2706 -0.0537
C29 C 0.1379(3) 1.1916(3) -0.11302(17)
C30 C 0.1374(3) 1.0987(3) -0.15377(19)
H23 H 0.0634 1.0829 -0.1754
C31 C 0.2475(3) 1.0304(3) -0.16185(18)
H24 H 0.2458 0.9683 -0.1895
C32 C -0.3109(3) 1.1760(3) -0.18110(19)
H25 H -0.3634 1.2064 -0.2175
C33 C -0.2065(3) 1.2466(3) -0.1713(2)
H26 H -0.1885 1.3217 -0.2013
C34 C -0.1300(3) 1.2049(3) -0.11681(18)
C35 C -0.1635(4) 1.0951(4) -0.0731(2)
H27 H -0.1167 1.0657 -0.0338
C36 C -0.2664(4) 1.0290(3) -0.0877(2)
H28 H -0.2857 0.9534 -0.0585
Ni1_2 Ni -0.50278(3) 0.44443(3) 0.286042(18)
Ni2_2 Ni 0.52187(3) -0.05204(3) 0.837049(17)
Ni2_3 Ni -0.47813(3) 0.94796(3) -0.162951(17)
O6_2 O 0.4927(2) 1.0216(2) -0.26584(10)
N1_2 N 0.6271(2) 0.5350(2) 0.33535(12)
N3_2 N 0.6599(2) 1.0671(2) -0.14134(12)
O11 O 0.9202(4) -0.0008(6) 0.5725(3)
H29 H 0.9565 -0.0533 0.5498
H30 H 0.8493 -0.0291 0.5963
O12 O 0.9581(8) 0.0490(9) 0.7137(4)
H31 H 0.9417 0.0373 0.6716
H32 H 0.9606 -0.0196 0.7411
O13 O 0.9627(11) -0.1610(10) 0.8268(11)
H33 H 1.0133 -0.1880 0.7945
H34 H 0.8834 -0.1581 0.8178
O14 O 1.0943(5) -0.2215(6) 0.5836(5)
H35 H 1.1749 -0.2291 0.5850
H36 H 1.0606 -0.2460 0.5487
O15 O 1.0377(8) -0.3409(13) 0.7679(7)
H37 H 1.0281 -0.3718 0.7293
H38 H 1.1210 -0.3438 0.7637
loop_
_geom_bond_atom_site_label_1
_geom_bond_atom_site_label_2
_geom_bond_site_symmetry_1
_geom_bond_site_symmetry_2
Ni1 O2 1_555 1_555
Ni2 O1 1_555 1_555
S1 C29 1_555 1_555
S2 C11 1_555 1_555
O1 H1 1_555 1_555
H2 O1 1_555 1_555
O2 H3 1_555 1_555
H4 O2 1_555 1_555
O3 Ni1 1_555 1_555
O4 C1 1_555 1_555
O5 C8 1_555 1_555
O6 C8 1_555 1_555
O7 Ni1 1_555 1_555
O8 Ni1 1_555 1_555
O9 Ni2 1_555 1_555
O10 Ni2 1_555 1_555
N1 C14 1_555 1_555
N2 Ni1 1_555 1_555
N3 C32 1_555 1_555
N4 Ni2 1_555 1_555
C1 O3 1_555 1_555
C2 C1 1_555 1_555
C3 C2 1_555 1_555
H5 C3 1_555 1_555
C4 C3 1_555 1_555
H6 C4 1_555 1_555
C5 C4 1_555 1_555
H7 C5 1_555 1_555
C6 C5 1_555 1_555
C7 C2 1_555 1_555
H8 C7 1_555 1_555
C8 C6 1_555 1_555
C9 N2 1_555 1_555
H9 C9 1_555 1_555
C10 C9 1_555 1_555
H10 C10 1_555 1_555
C11 C10 1_555 1_555
C12 C11 1_555 1_555
H11 C12 1_555 1_555
C13 N2 1_555 1_555
H12 C13 1_555 1_555
C14 H13 1_555 1_555
C15 C14 1_555 1_555
H14 C15 1_555 1_555
C16 S2 1_555 1_555
C17 C16 1_555 1_555
H15 C17 1_555 1_555
C18 N1 1_555 1_555
H16 C18 1_555 1_555
C19 O7 1_555 1_555
C20 C19 1_555 1_555
C21 C20 1_555 1_555
H17 C21 1_555 1_555
C22 C21 1_555 1_555
H18 C22 1_555 1_555
C23 C22 1_555 1_555
H19 C23 1_555 1_555
C24 C23 1_555 1_555
C25 C20 1_555 1_555
H20 C25 1_555 1_555
C26 O9 1_555 1_555
C27 N4 1_555 1_555
H21 C27 1_555 1_555
C28 C27 1_555 1_555
H22 C28 1_555 1_555
C29 C28 1_555 1_555
C30 C29 1_555 1_555
H23 C30 1_555 1_555
C31 N4 1_555 1_555
H24 C31 1_555 1_555
C32 H25 1_555 1_555
C33 C32 1_555 1_555
H26 C33 1_555 1_555
C34 S1 1_555 1_555
C35 C34 1_555 1_555
H27 C35 1_555 1_555
C36 N3 1_555 1_555
H28 C36 1_555 1_555
O11 H29 1_555 1_555
H30 O11 1_555 1_555
O12 H31 1_555 1_555
H32 O12 1_555 1_555
O13 H33 1_555 1_555
H34 O13 1_555 1_555
O14 H35 1_555 1_555
H36 O14 1_555 1_555
O15 H37 1_555 1_555
H38 O15 1_555 1_555
Ni1_2 N1 1_555 1_555
Ni2_2 O6 1_555 1_555
Ni2_3 N3 1_555 1_555
O6_2 Ni2 1_555 1_555
N1_2 Ni1 1_555 1_555
N3_2 Ni2 1_555 1_555
O8 C19 1_555 1_555
O10 C26 1_555 1_555
C6 C7 1_555 1_555
C12 C13 1_555 1_555
C15 C16 1_555 1_555
C17 C18 1_555 1_555
C24 C25 1_555 1_555
C24 C26 1_555 1_555
C30 C31 1_555 1_555
C33 C34 1_555 1_555
C35 C36 1_555 1_555

#END
