
#######################################################################
#
#                 Cambridge Crystallographic Data Centre
#                                CCDC 
#
#######################################################################
#
# If this CIF has been generated from an entry in the Cambridge 
# Structural Database, then it will include bibliographic, chemical, 
# crystal, experimental, refinement or atomic coordinate data resulting 
# from the CCDC's data processing and validation procedures.
#
#######################################################################

data_VUJWON
_symmetry_cell_setting           monoclinic
_symmetry_space_group_name_H-M   'P 21/c'
_symmetry_Int_Tables_number      14
_space_group_name_Hall           '-P 2ybc'
loop_
_symmetry_equiv_pos_site_id
_symmetry_equiv_pos_as_xyz
1 x,y,z
2 -x,1/2+y,1/2-z
3 -x,-y,-z
4 x,1/2-y,1/2+z
_cell_length_a                   10.117(4)
_cell_length_b                   19.692(8)
_cell_length_c                   15.346(6)
_cell_angle_alpha                90
_cell_angle_beta                 106.672(4)
_cell_angle_gamma                90
_cell_volume                     2928.77
loop_
_atom_site_label
_atom_site_type_symbol
_atom_site_fract_x
_atom_site_fract_y
_atom_site_fract_z
Ni1 Ni 0.48207(3) 0.009444(11) 0.241134(16)
S1 S -0.09779(7) 0.13922(4) -0.03665(6)
S2 S 1.08067(6) -0.12910(3) 0.47083(4)
O1 O 0.50565(15) 0.09585(6) 0.32011(8)
O2 O 0.52248(18) 0.17635(7) 0.22176(9)
O3 O 0.53384(15) 0.41863(6) 0.32399(9)
O4 O 0.4553(3) 0.44128(8) 0.44140(13)
O5 O 0.4994(2) 0.21643(7) 0.60388(9)
H1 H 0.5062 0.2492 0.6378
O6 O 0.59601(16) 0.05360(7) 0.16301(9)
H2 H 0.5798 0.0944 0.1581
H3 H 0.5779 0.0352 0.1119
N1 N 0.29511(18) 0.04758(8) 0.15143(11)
N2 N 0.0238(3) 0.31275(18) -0.1931(2)
N3 N 0.66983(17) -0.02862(8) 0.32591(11)
N4 N 1.36162(16) -0.03466(8) 0.31866(10)
C1 C 0.50535(19) 0.20990(9) 0.36763(12)
C2 C 0.50064(19) 0.27858(9) 0.34621(12)
H4 H 0.5025 0.2923 0.2886
C3 C 0.4931(2) 0.32671(9) 0.41059(12)
C4 C 0.4889(2) 0.30627(9) 0.49622(12)
H5 H 0.4798 0.3385 0.5384
C5 C 0.4982(2) 0.23818(9) 0.51929(12)
C6 C 0.5048(2) 0.18991(9) 0.45467(12)
H6 H 0.5088 0.1440 0.4695
C7 C 0.51164(19) 0.15709(9) 0.29734(12)
C8 C 0.4915(2) 0.40158(9) 0.39035(13)
C9 C 0.2093(3) 0.08615(12) 0.18201(16)
H7 H 0.2308 0.0939 0.2443
C10 C 0.0910(3) 0.11504(14) 0.12674(18)
H8 H 0.0344 0.1415 0.1513
C11 C 0.0582(2) 0.10399(13) 0.03470(17)
C12 C 0.1439(3) 0.06304(14) 0.00214(16)
H9 H 0.1230 0.0536 -0.0597
C13 C 0.2611(2) 0.03618(11) 0.06223(14)
H10 H 0.3187 0.0090 0.0394
C14 C 0.1203(4) 0.2748(2) -0.1363(3)
H11 H 0.2122 0.2854 -0.1300
C15 C 0.0940(3) 0.22168(18) -0.0869(2)
H12 H 0.1660 0.1974 -0.0481
C16 C -0.0407(2) 0.20467(13) -0.09552(15)
C17 C -0.1422(3) 0.24337(13) -0.15365(17)
H13 H -0.2349 0.2340 -0.1611
C18 C -0.1050(3) 0.29538(17) -0.2000(2)
H14 H -0.1750 0.3205 -0.2392
C19 C 0.7893(2) 0.00361(10) 0.33441(15)
H15 H 0.7861 0.0470 0.3101
C20 C 0.9162(2) -0.02368(11) 0.37692(16)
H16 H 0.9963 0.0009 0.3809
C21 C 0.9236(2) -0.08812(10) 0.41373(14)
C22 C 0.8005(2) -0.12136(11) 0.40756(16)
H17 H 0.8009 -0.1642 0.4332
C23 C 0.6780(2) -0.09055(10) 0.36327(15)
H18 H 0.5964 -0.1138 0.3590
C24 C 1.2763(3) -0.08545(13) 0.28435(17)
H19 H 1.2744 -0.1020 0.2272
C25 C 1.1904(3) -0.11504(13) 0.32852(17)
H20 H 1.1324 -0.1505 0.3016
C26 C 1.1915(2) -0.09163(10) 0.41240(14)
C27 C 1.2809(3) -0.04011(12) 0.44939(14)
H21 H 1.2866 -0.0237 0.5072
C28 C 1.3620(2) -0.01283(11) 0.40007(14)
H22 H 1.4204 0.0230 0.4255
Ni1_2 Ni 1.48207(3) 0.009444(11) 0.241134(16)
Ni1A Ni 0.51793(3) 0.509444(11) 0.258866(16)
O3A O 0.46616(15) -0.08137(6) 0.17601(9)
N4_2 N 0.36162(16) -0.03466(8) 0.31866(10)
loop_
_geom_bond_atom_site_label_1
_geom_bond_atom_site_label_2
_geom_bond_site_symmetry_1
_geom_bond_site_symmetry_2
Ni1 O1 1_555 1_555
S1 C11 1_555 1_555
S2 C21 1_555 1_555
O1 C7 1_555 1_555
O2 C7 1_555 1_555
O3 C8 1_555 1_555
O4 C8 1_555 1_555
O5 H1 1_555 1_555
O6 Ni1 1_555 1_555
H2 O6 1_555 1_555
H3 O6 1_555 1_555
N1 Ni1 1_555 1_555
N2 C14 1_555 1_555
N3 Ni1 1_555 1_555
N4 C24 1_555 1_555
C1 C2 1_555 1_555
C2 H4 1_555 1_555
C3 C2 1_555 1_555
C4 C3 1_555 1_555
H5 C4 1_555 1_555
C5 O5 1_555 1_555
C6 C1 1_555 1_555
H6 C6 1_555 1_555
C7 C1 1_555 1_555
C8 C3 1_555 1_555
C9 N1 1_555 1_555
H7 C9 1_555 1_555
C10 C9 1_555 1_555
H8 C10 1_555 1_555
C11 C10 1_555 1_555
C12 C11 1_555 1_555
H9 C12 1_555 1_555
C13 N1 1_555 1_555
H10 C13 1_555 1_555
C14 H11 1_555 1_555
C15 C14 1_555 1_555
H12 C15 1_555 1_555
C16 S1 1_555 1_555
C17 C16 1_555 1_555
H13 C17 1_555 1_555
C18 N2 1_555 1_555
H14 C18 1_555 1_555
C19 N3 1_555 1_555
H15 C19 1_555 1_555
C20 C19 1_555 1_555
H16 C20 1_555 1_555
C21 C20 1_555 1_555
C22 C21 1_555 1_555
H17 C22 1_555 1_555
C23 N3 1_555 1_555
H18 C23 1_555 1_555
C24 H19 1_555 1_555
C25 C24 1_555 1_555
H20 C25 1_555 1_555
C26 S2 1_555 1_555
C27 C26 1_555 1_555
H21 C27 1_555 1_555
C28 N4 1_555 1_555
H22 C28 1_555 1_555
Ni1_2 N4 1_555 1_555
Ni1A O3 1_555 1_555
O3A Ni1 1_555 1_555
N4_2 Ni1 1_555 1_555
C4 C5 1_555 1_555
C5 C6 1_555 1_555
C12 C13 1_555 1_555
C15 C16 1_555 1_555
C17 C18 1_555 1_555
C22 C23 1_555 1_555
C25 C26 1_555 1_555
C27 C28 1_555 1_555

#END
