
#######################################################################
#
#                 Cambridge Crystallographic Data Centre
#                                CCDC 
#
#######################################################################
#
# If this CIF has been generated from an entry in the Cambridge 
# Structural Database, then it will include bibliographic, chemical, 
# crystal, experimental, refinement or atomic coordinate data resulting 
# from the CCDC's data processing and validation procedures.
#
#######################################################################

data_VUJWIH
_symmetry_cell_setting           monoclinic
_symmetry_space_group_name_H-M   'P 2/n'
_symmetry_Int_Tables_number      13
_space_group_name_Hall           '-P 2yac'
loop_
_symmetry_equiv_pos_site_id
_symmetry_equiv_pos_as_xyz
1 x,y,z
2 1/2-x,y,1/2-z
3 -x,-y,-z
4 1/2+x,-y,1/2+z
_cell_length_a                   14.3584(14)
_cell_length_b                   8.2781(8)
_cell_length_c                   15.8981(15)
_cell_angle_alpha                90
_cell_angle_beta                 93.7350(10)
_cell_angle_gamma                90
_cell_volume                     1885.64
loop_
_atom_site_label
_atom_site_type_symbol
_atom_site_fract_x
_atom_site_fract_y
_atom_site_fract_z
Ni1 Ni 0.7500 0.72217(4) 1.2500
Ni2 Ni 0.7500 0.24878(4) 0.7500
S1 S 0.54475(5) 1.26901(7) 1.47408(4)
O1 O 0.63149(9) 0.65651(17) 1.17995(8)
O2 O 0.76140(9) 0.53202(17) 1.15171(9)
O3 O 0.69000(11) 0.25382(17) 0.86195(9)
O4 O 0.56350(9) 0.09528(16) 0.84502(8)
O5 O 0.32576(9) 0.1641(2) 1.06030(9)
O6 O 0.37542(10) 0.24900(17) 1.18355(9)
O7 O 0.84237(12) 0.06311(18) 0.79484(9)
H1 H 0.8805 0.0478 0.7582
H2 H 0.8132 -0.0204 0.8046
N1 N 0.34667(10) 1.58118(19) 1.30565(10)
N2 N 0.68709(10) 0.89336(18) 1.31880(9)
N3 N 0.38595(11) 0.2247(2) 1.10898(10)
C1 C 0.67424(13) 0.5439(2) 1.14365(11)
C2 C 0.61593(12) 0.4239(2) 1.09303(11)
C3 C 0.53048(12) 0.3798(2) 1.12156(11)
H3 H 0.5105 0.4227 1.1714
C4 C 0.47536(13) 0.2713(2) 1.07506(12)
C5 C 0.49997(13) 0.2092(2) 0.99862(11)
H4 H 0.4601 0.1404 0.9672
C6 C 0.58652(13) 0.25339(19) 0.97035(11)
C7 C 0.64470(12) 0.3573(2) 1.01858(11)
H5 H 0.7034 0.3825 1.0008
C8 C 0.61482(12) 0.1934(2) 0.88524(10)
C9 C 0.31561(13) 1.4656(2) 1.35511(13)
H6 H 0.2514 1.4522 1.3567
C10 C 0.37354(14) 1.3641(3) 1.40437(14)
H7 H 0.3486 1.2851 1.4379
C11 C 0.46925(14) 1.3831(2) 1.40250(12)
C12 C 0.50312(13) 1.5001(3) 1.35020(12)
H8 H 0.5670 1.5144 1.3469
C13 C 0.44021(13) 1.5954(2) 1.30309(12)
H9 H 0.4634 1.6733 1.2678
C14 C 0.71414(14) 0.9264(3) 1.39897(12)
H10 H 0.7635 0.8675 1.4244
C15 C 0.67277(15) 1.0433(3) 1.44614(12)
H11 H 0.6941 1.0630 1.5017
C16 C 0.59872(13) 1.1308(2) 1.40865(12)
C17 C 0.57071(14) 1.0994(2) 1.32504(12)
H12 H 0.5223 1.1577 1.2977
C18 C 0.61622(13) 0.9799(2) 1.28331(12)
H13 H 0.5966 0.9584 1.2275
Ni2B Ni 0.2500 1.75122(4) 1.2500
Ni2_2 Ni 0.7500 0.24878(4) 1.7500
Ni2B_2 Ni 1.2500 1.75122(4) 1.2500
S1A S 0.95525(5) 1.26901(7) 1.02592(4)
O1A O 0.86851(9) 0.65651(17) 1.32005(8)
O2A O 0.73860(9) 0.53202(17) 1.34829(9)
O3A O 0.81000(11) 0.25382(17) 1.63805(9)
O3A_2 O 0.81000(11) 0.25382(17) 0.63805(9)
O4A O 0.93650(9) 0.09528(16) 1.65498(8)
O5A O 1.17424(9) 0.1641(2) 1.43970(9)
O6A O 1.12458(10) 0.24900(17) 1.31645(9)
O7A O 0.65763(12) 0.06311(18) 0.70516(9)
H1A H 0.6195 0.0478 0.7418
H2A H 0.6868 -0.0204 0.6954
N1A N 1.15333(10) 1.58118(19) 1.19435(10)
N1C N 0.84667(10) 0.41882(19) 0.80565(10)
N1B N 0.65333(10) 0.41882(19) 0.69435(10)
N2A N 0.81291(10) 0.89336(18) 1.18120(9)
N3A N 1.11405(11) 0.2247(2) 1.39102(10)
C1A C 0.82576(13) 0.5439(2) 1.35635(11)
C2A C 0.88407(12) 0.4239(2) 1.40697(11)
C3A C 0.96952(12) 0.3798(2) 1.37844(11)
H3A H 0.9895 0.4227 1.3286
C4A C 1.02464(13) 0.2713(2) 1.42494(12)
C5A C 1.00003(13) 0.2092(2) 1.50138(11)
H4A H 1.0399 0.1404 1.5328
C6A C 0.91348(13) 0.25339(19) 1.52965(11)
C7A C 0.85530(12) 0.3573(2) 1.48142(11)
H5A H 0.7966 0.3825 1.4992
C8A C 0.88518(12) 0.1934(2) 1.61476(10)
C9A C 1.18439(13) 1.4656(2) 1.14489(13)
H6A H 1.2486 1.4522 1.1433
C10A C 1.12646(14) 1.3641(3) 1.09563(14)
H7A H 1.1514 1.2851 1.0621
C11A C 1.03075(14) 1.3831(2) 1.09750(12)
C12A C 0.99688(13) 1.5001(3) 1.14980(12)
H8A H 0.9330 1.5144 1.1531
C13A C 1.05979(13) 1.5954(2) 1.19691(12)
H9A H 1.0366 1.6733 1.2322
C14A C 0.78586(14) 0.9264(3) 1.10103(12)
H10A H 0.7365 0.8675 1.0756
C15A C 0.82723(15) 1.0433(3) 1.05386(12)
H11A H 0.8059 1.0630 0.9983
C16A C 0.90128(13) 1.1308(2) 1.09135(12)
C17A C 0.92929(14) 1.0994(2) 1.17496(12)
H12A H 0.9777 1.1577 1.2023
C18A C 0.88378(13) 0.9799(2) 1.21669(12)
H13A H 0.9034 0.9584 1.2725
loop_
_geom_bond_atom_site_label_1
_geom_bond_atom_site_label_2
_geom_bond_site_symmetry_1
_geom_bond_site_symmetry_2
Ni1 O1 1_555 1_555
Ni2 O3 1_555 1_555
S1 C11 1_555 1_555
O1 C1 1_555 1_555
O2 Ni1 1_555 1_555
O3 C8 1_555 1_555
O4 C8 1_555 1_555
O5 N3 1_555 1_555
O6 N3 1_555 1_555
O7 Ni2 1_555 1_555
H1 O7 1_555 1_555
H2 O7 1_555 1_555
N1 C9 1_555 1_555
N2 Ni1 1_555 1_555
N3 C4 1_555 1_555
C1 O2 1_555 1_555
C2 C1 1_555 1_555
C3 C2 1_555 1_555
H3 C3 1_555 1_555
C4 C3 1_555 1_555
C5 C4 1_555 1_555
H4 C5 1_555 1_555
C6 C5 1_555 1_555
C7 C2 1_555 1_555
H5 C7 1_555 1_555
C8 C6 1_555 1_555
C9 H6 1_555 1_555
C10 C9 1_555 1_555
H7 C10 1_555 1_555
C11 C10 1_555 1_555
C12 C11 1_555 1_555
H8 C12 1_555 1_555
C13 N1 1_555 1_555
H9 C13 1_555 1_555
C14 N2 1_555 1_555
H10 C14 1_555 1_555
C15 C14 1_555 1_555
H11 C15 1_555 1_555
C16 S1 1_555 1_555
C17 C16 1_555 1_555
H12 C17 1_555 1_555
C18 N2 1_555 1_555
H13 C18 1_555 1_555
Ni2B N1 1_555 1_555
Ni2_2 O3A 1_555 1_555
Ni2B_2 N1A 1_555 1_555
S1A C11A 1_555 1_555
O1A Ni1 1_555 1_555
O2A Ni1 1_555 1_555
O3A C8A 1_555 1_555
O3A_2 Ni2 1_555 1_555
O4A C8A 1_555 1_555
O5A N3A 1_555 1_555
O6A N3A 1_555 1_555
O7A Ni2 1_555 1_555
H1A O7A 1_555 1_555
H2A O7A 1_555 1_555
N1A C9A 1_555 1_555
N1C Ni2 1_555 1_555
N1B Ni2 1_555 1_555
N2A Ni1 1_555 1_555
N3A C4A 1_555 1_555
C1A O1A 1_555 1_555
C2A C1A 1_555 1_555
C3A C2A 1_555 1_555
H3A C3A 1_555 1_555
C4A C3A 1_555 1_555
C5A C4A 1_555 1_555
H4A C5A 1_555 1_555
C6A C5A 1_555 1_555
C7A C2A 1_555 1_555
H5A C7A 1_555 1_555
C8A C6A 1_555 1_555
C9A H6A 1_555 1_555
C10A C9A 1_555 1_555
H7A C10A 1_555 1_555
C11A C10A 1_555 1_555
C12A C11A 1_555 1_555
H8A C12A 1_555 1_555
C13A N1A 1_555 1_555
H9A C13A 1_555 1_555
C14A N2A 1_555 1_555
H10A C14A 1_555 1_555
C15A C14A 1_555 1_555
H11A C15A 1_555 1_555
C16A S1A 1_555 1_555
C17A C16A 1_555 1_555
H12A C17A 1_555 1_555
C18A N2A 1_555 1_555
H13A C18A 1_555 1_555
C6 C7 1_555 1_555
C12 C13 1_555 1_555
C15 C16 1_555 1_555
C17 C18 1_555 1_555
O2A C1A 1_555 1_555
C6A C7A 1_555 1_555
C12A C13A 1_555 1_555
C15A C16A 1_555 1_555
C17A C18A 1_555 1_555

#END
