
#######################################################################
#
#                 Cambridge Crystallographic Data Centre
#                                CCDC 
#
#######################################################################
#
# If this CIF has been generated from an entry in the Cambridge 
# Structural Database, then it will include bibliographic, chemical, 
# crystal, experimental, refinement or atomic coordinate data resulting 
# from the CCDC's data processing and validation procedures.
#
#######################################################################

data_VUJXUU
_symmetry_cell_setting           monoclinic
_symmetry_space_group_name_H-M   'P 21/c'
_symmetry_Int_Tables_number      14
_space_group_name_Hall           '-P 2ybc'
loop_
_symmetry_equiv_pos_site_id
_symmetry_equiv_pos_as_xyz
1 x,y,z
2 -x,1/2+y,1/2-z
3 -x,-y,-z
4 x,1/2-y,1/2+z
_cell_length_a                   10.635(5)
_cell_length_b                   14.016(5)
_cell_length_c                   17.117(5)
_cell_angle_alpha                90
_cell_angle_beta                 90.453(5)
_cell_angle_gamma                90
_cell_volume                     2551.38
loop_
_atom_site_label
_atom_site_type_symbol
_atom_site_fract_x
_atom_site_fract_y
_atom_site_fract_z
Hg1 Hg 0.43503(2) 0.870389(15) 0.679529(13)
I1 I 0.40453(4) 1.05180(3) 0.64368(3)
I2 I 0.30919(5) 0.70768(3) 0.68384(3)
N1 N 0.5119(4) 0.8735(3) 0.8136(2)
N2 N 1.3559(4) 1.3230(3) 0.8574(3)
N3 N 1.1962(4) 1.2657(3) 0.9207(3)
C1 C 1.1161(5) 1.2286(3) 0.9803(3)
C2 C 0.5861(5) 0.9352(4) 0.8493(3)
H1 H 0.6201 0.9890 0.8256
C3 C 0.6509(5) 0.9410(3) 1.0607(3)
H2 H 0.5847 0.9005 1.0731
C4 C 0.7191(5) 0.9837(4) 1.1199(3)
H3 H 0.7018 0.9714 1.1722
C5 C 0.8444(5) 1.0626(3) 1.0198(3)
C6 C 1.0731(5) 1.2118(4) 1.1174(3)
H4 H 1.0903 1.2269 1.1693
N4 N 0.8956(4) 1.0992(3) 1.1452(2)
C7 C 0.9108(5) 1.0888(4) 1.2297(3)
H5 H 0.8308 1.0704 1.2520
H6 H 0.9342 1.1500 1.2519
C8 C 0.6793(5) 0.9572(3) 0.9828(3)
N5 N 1.1698(5) 1.2513(4) 0.8430(3)
N6 N 0.5421(4) 0.8285(3) 0.9381(3)
N7 N 0.6061(4) 0.9107(3) 0.9233(3)
C9 C 0.4879(5) 0.8097(4) 0.8704(4)
H7 H 0.4370 0.7566 0.8625
C10 C 1.0191(5) 1.1690(3) 0.9594(3)
H8 H 1.0014 1.1562 0.9071
C11 C 1.0092(6) 1.0155(4) 1.2523(3)
H9 H 1.0895 1.0344 1.2308
H10 H 0.9864 0.9544 1.2295
C12 C 0.7764(5) 1.0165(3) 0.9613(3)
H11 H 0.7959 1.0254 0.9089
C13 C 1.2673(6) 1.2867(5) 0.8091(4)
H12 H 1.2758 1.2872 0.7550
C14 C 0.9483(5) 1.1283(3) 1.0184(3)
C15 C 1.1416(5) 1.2508(4) 1.0587(3)
H13 H 1.2064 1.2930 1.0707
C16 C 1.0230(6) 1.0040(5) 1.3403(3)
H14 H 1.0359 1.0663 1.3636
H15 H 0.9453 0.9782 1.3609
C17 C 1.1295(6) 0.9401(5) 1.3639(4)
H16 H 1.2070 0.9664 1.3436
H17 H 1.1170 0.8781 1.3398
C18 C 0.9772(5) 1.1490(3) 1.0979(3)
C19 C 1.3087(5) 1.3067(4) 0.9266(4)
H18 H 1.3486 1.3218 0.9735
C20 C 1.2474(8) 0.8599(5) 1.4729(5)
H19 H 1.2420 0.8036 1.4412
H20 H 1.2396 0.8427 1.5270
H21 H 1.3270 0.8904 1.4649
C21 C 0.8148(5) 1.0459(4) 1.0984(3)
C22 C 1.1449(7) 0.9262(5) 1.4511(4)
H22 H 1.1612 0.9877 1.4751
H23 H 1.0666 0.9021 1.4720
Hg1A Hg 1.56497(2) 1.370389(15) 0.820471(13)
N2A N 0.6441(4) 0.8230(3) 0.6426(3)
loop_
_geom_bond_atom_site_label_1
_geom_bond_atom_site_label_2
_geom_bond_site_symmetry_1
_geom_bond_site_symmetry_2
Hg1 I1 1_555 1_555
I2 Hg1 1_555 1_555
N1 Hg1 1_555 1_555
N2 C13 1_555 1_555
N3 C1 1_555 1_555
C1 C10 1_555 1_555
C2 N1 1_555 1_555
H1 C2 1_555 1_555
C3 H2 1_555 1_555
C4 C3 1_555 1_555
H3 C4 1_555 1_555
C5 C12 1_555 1_555
C6 H4 1_555 1_555
N4 C7 1_555 1_555
C7 H5 1_555 1_555
H6 C7 1_555 1_555
C8 C3 1_555 1_555
N5 N3 1_555 1_555
N6 N7 1_555 1_555
N7 C2 1_555 1_555
C9 N1 1_555 1_555
H7 C9 1_555 1_555
C10 H8 1_555 1_555
C11 C7 1_555 1_555
H9 C11 1_555 1_555
H10 C11 1_555 1_555
C12 C8 1_555 1_555
H11 C12 1_555 1_555
C13 N5 1_555 1_555
H12 C13 1_555 1_555
C14 C5 1_555 1_555
C15 C1 1_555 1_555
H13 C15 1_555 1_555
C16 C11 1_555 1_555
H14 C16 1_555 1_555
H15 C16 1_555 1_555
C17 C16 1_555 1_555
H16 C17 1_555 1_555
H17 C17 1_555 1_555
C18 C6 1_555 1_555
C19 N2 1_555 1_555
H18 C19 1_555 1_555
C20 H19 1_555 1_555
H20 C20 1_555 1_555
H21 C20 1_555 1_555
C21 C4 1_555 1_555
C22 C17 1_555 1_555
H22 C22 1_555 1_555
H23 C22 1_555 1_555
Hg1A N2 1_555 1_555
N2A Hg1 1_555 1_555
N3 C19 1_555 1_555
C5 C21 1_555 1_555
C6 C15 1_555 1_555
N4 C18 1_555 1_555
N4 C21 1_555 1_555
C8 N7 1_555 1_555
N6 C9 1_555 1_555
C10 C14 1_555 1_555
C14 C18 1_555 1_555
C20 C22 1_555 1_555

#END
