
#######################################################################
#
#                 Cambridge Crystallographic Data Centre
#                                CCDC 
#
#######################################################################
#
# If this CIF has been generated from an entry in the Cambridge 
# Structural Database, then it will include bibliographic, chemical, 
# crystal, experimental, refinement or atomic coordinate data resulting 
# from the CCDC's data processing and validation procedures.
#
#######################################################################

data_VUJXOO
_symmetry_cell_setting           monoclinic
_symmetry_space_group_name_H-M   'P 21/c'
_symmetry_Int_Tables_number      14
_space_group_name_Hall           '-P 2ybc'
loop_
_symmetry_equiv_pos_site_id
_symmetry_equiv_pos_as_xyz
1 x,y,z
2 -x,1/2+y,1/2-z
3 -x,-y,-z
4 x,1/2-y,1/2+z
_cell_length_a                   23.242(5)
_cell_length_b                   15.310(3)
_cell_length_c                   28.120(6)
_cell_angle_alpha                90
_cell_angle_beta                 97.551(5)
_cell_angle_gamma                90
_cell_volume                     9919.31
loop_
_atom_site_label
_atom_site_type_symbol
_atom_site_fract_x
_atom_site_fract_y
_atom_site_fract_z
Cu1 Cu 0.46311(4) -0.11669(6) 0.79208(3)
Cu2 Cu 0.46529(4) 0.13977(6) 0.75583(3)
Cu3 Cu 0.45633(4) -0.01680(6) 0.87808(3)
Cu4 Cu 0.30961(4) 0.04736(6) 0.78147(3)
Cu5 Cu 0.13913(4) 0.01533(7) 0.72221(3)
Cu6 Cu 0.14617(4) 0.12178(7) 0.80791(3)
S1 S 0.47937(8) -0.01287(12) 0.73271(7)
S2 S 0.46623(8) -0.26105(12) 0.76072(7)
S3 S 0.46807(9) 0.11271(12) 0.84169(7)
S4 S 0.36604(8) 0.14885(14) 0.74816(7)
S5 S 0.53690(8) -0.10046(13) 0.85745(7)
S6 S 0.44312(9) -0.06389(14) 0.95145(7)
S7 S 0.37413(8) -0.06028(12) 0.81653(7)
S8 S 0.23756(8) -0.01857(13) 0.72516(7)
S9 S 0.07517(10) -0.02434(15) 0.65685(8)
S10 S 0.12461(9) -0.03828(13) 0.79807(7)
S11 S 0.24563(8) 0.11435(13) 0.82804(7)
S12 S 0.12582(9) 0.17185(14) 0.72914(7)
S13 S 0.08555(10) 0.17900(16) 0.85801(8)
N1 N 0.6671(3) -0.0294(4) 0.7106(2)
H1 H 0.7044 -0.0304 0.7079
C1 C 0.6451(4) -0.0887(5) 0.7373(3)
H2 H 0.6700 -0.1323 0.7528
C2 C 0.5871(3) -0.0891(5) 0.7433(3)
H3 H 0.5721 -0.1334 0.7619
C3 C 0.5509(3) -0.0242(5) 0.7219(2)
C4 C 0.5756(3) 0.0348(5) 0.6910(3)
H4 H 0.5516 0.0763 0.6727
C5 C 0.6334(4) 0.0317(5) 0.6877(3)
H5 H 0.6500 0.0739 0.6688
N2 N 0.2930(3) -0.3509(6) 0.6880(3)
H6 H 0.2589 -0.3691 0.6743
C6 C 0.3403(4) -0.3963(6) 0.6821(3)
H7 H 0.3368 -0.4480 0.6632
C7 C 0.3940(3) -0.3697(5) 0.7028(3)
H8 H 0.4273 -0.4032 0.6982
C8 C 0.4005(3) -0.2936(5) 0.7305(3)
C9 C 0.3488(4) -0.2460(6) 0.7331(3)
H9 H 0.3509 -0.1903 0.7481
C10 C 0.2964(4) -0.2785(7) 0.7144(4)
H10 H 0.2619 -0.2494 0.7202
N3 N 0.5342(3) 0.3303(5) 0.9394(3)
H11 H 0.5475 0.3731 0.9587
C11 C 0.5297(4) 0.2480(6) 0.9577(3)
H12 H 0.5404 0.2379 0.9910
C12 C 0.5101(3) 0.1809(5) 0.9285(3)
H13 H 0.5067 0.1241 0.9415
C13 C 0.4948(3) 0.1950(5) 0.8796(3)
C14 C 0.5012(3) 0.2808(5) 0.8621(3)
H14 H 0.4933 0.2926 0.8287
C15 C 0.5189(4) 0.3465(5) 0.8937(3)
H15 H 0.5202 0.4048 0.8823
N4 N 0.2587(3) 0.2800(5) 0.6251(3)
H16 H 0.2374 0.3043 0.6004
C16 C 0.3163(4) 0.2816(6) 0.6276(3)
H17 H 0.3340 0.3113 0.6037
C17 C 0.3502(4) 0.2403(6) 0.6648(3)
H18 H 0.3913 0.2409 0.6661
C18 C 0.3250(3) 0.1985(5) 0.6998(3)
C19 C 0.2649(3) 0.2013(5) 0.6975(3)
H19 H 0.2460 0.1752 0.7219
C20 C 0.2331(4) 0.2427(5) 0.6590(3)
H20 H 0.1920 0.2443 0.6569
N5 N 0.5583(3) -0.3181(5) 0.9654(2)
H21 H 0.5645 -0.3610 0.9862
C21 C 0.5286(4) -0.3337(5) 0.9221(3)
H22 H 0.5129 -0.3901 0.9147
C22 C 0.5206(3) -0.2683(5) 0.8883(3)
H23 H 0.4999 -0.2801 0.8575
C23 C 0.5429(3) -0.1832(5) 0.8991(3)
C24 C 0.5712(3) -0.1719(5) 0.9449(3)
H24 H 0.5860 -0.1156 0.9540
C25 C 0.5790(4) -0.2377(6) 0.9775(3)
H25 H 0.5988 -0.2271 1.0087
N6 N 0.2855(3) 0.0541(5) 1.0016(2)
H26 H 0.2557 0.0789 1.0126
C26 C 0.3008(4) 0.0801(6) 0.9603(3)
H27 H 0.2790 0.1248 0.9428
C27 C 0.3479(4) 0.0438(5) 0.9419(3)
H28 H 0.3574 0.0624 0.9116
C28 C 0.3812(3) -0.0201(5) 0.9680(3)
C29 C 0.3616(4) -0.0485(6) 1.0110(3)
H29 H 0.3809 -0.0949 1.0289
C30 C 0.3146(4) -0.0089(6) 1.0267(3)
H30 H 0.3026 -0.0270 1.0562
N7 N 0.2793(3) -0.2443(4) 0.9039(3)
H31 H 0.2608 -0.2798 0.9213
C31 C 0.2518(4) -0.1755(6) 0.8827(3)
H32 H 0.2127 -0.1647 0.8872
C32 C 0.2789(3) -0.1194(5) 0.8543(3)
H33 H 0.2582 -0.0719 0.8385
C33 C 0.3377(3) -0.1337(5) 0.8491(3)
C34 C 0.3641(4) -0.2066(5) 0.8713(3)
H34 H 0.4031 -0.2199 0.8674
C35 C 0.3347(4) -0.2598(5) 0.8988(3)
H35 H 0.3540 -0.3086 0.9146
N8 N 0.3005(4) 0.0088(6) 0.5819(3)
H36 H 0.3132 0.0167 0.5541
C36 C 0.3375(4) -0.0102(6) 0.6205(3)
H37 H 0.3774 -0.0173 0.6172
C37 C 0.3205(4) -0.0197(5) 0.6645(3)
H38 H 0.3480 -0.0322 0.6917
C38 C 0.2610(4) -0.0108(5) 0.6690(3)
C39 C 0.2236(4) 0.0082(6) 0.6279(3)
H39 H 0.1834 0.0160 0.6298
C40 C 0.2435(4) 0.0159(7) 0.5854(3)
H40 H 0.2169 0.0265 0.5573
N9 N 0.1124(4) -0.2993(7) 0.6178(4)
H41 H 0.1196 -0.3536 0.6101
C41 C 0.0802(6) -0.2507(8) 0.5863(4)
H42 H 0.0666 -0.2737 0.5555
C42 C 0.0659(5) -0.1643(7) 0.5980(3)
H43 H 0.0396 -0.1307 0.5767
C43 C 0.0911(4) -0.1294(6) 0.6418(3)
C44 C 0.1250(4) -0.1843(6) 0.6725(4)
H44 H 0.1424 -0.1625 0.7026
C45 C 0.1345(5) -0.2697(8) 0.6607(5)
H45 H 0.1567 -0.3071 0.6831
N10 N -0.0623(3) -0.0107(6) 0.8197(3)
H46 H -0.0983 -0.0030 0.8252
C46 C -0.0459(4) 0.0207(7) 0.7796(4)
H47 H -0.0731 0.0489 0.7564
C47 C 0.0120(4) 0.0116(6) 0.7723(3)
H48 H 0.0240 0.0336 0.7436
C48 C 0.0522(3) -0.0287(5) 0.8057(3)
C49 C 0.0319(4) -0.0610(6) 0.8466(3)
H49 H 0.0582 -0.0881 0.8708
C50 C -0.0251(4) -0.0543(8) 0.8525(4)
H50 H -0.0388 -0.0802 0.8796
N11 N 0.3101(3) 0.3706(4) 0.8913(2)
H51 H 0.3225 0.4217 0.9027
C51 C 0.3489(4) 0.3114(6) 0.8792(3)
H52 H 0.3893 0.3237 0.8844
C52 C 0.3296(4) 0.2343(5) 0.8595(3)
H53 H 0.3569 0.1939 0.8500
C53 C 0.2704(4) 0.2125(5) 0.8527(2)
C54 C 0.2327(4) 0.2743(5) 0.8670(3)
H54 H 0.1922 0.2627 0.8635
C55 C 0.2538(4) 0.3531(6) 0.8863(3)
H55 H 0.2276 0.3951 0.8961
N12 N -0.0597(4) 0.2588(5) 0.7070(4)
H56 H -0.0966 0.2736 0.7040
C56 C -0.0425(4) 0.2080(6) 0.6732(4)
H57 H -0.0684 0.1913 0.6457
C57 C 0.0150(4) 0.1806(6) 0.6798(4)
H58 H 0.0281 0.1434 0.6564
C58 C 0.0539(4) 0.2052(5) 0.7188(3)
C59 C 0.0303(4) 0.2624(6) 0.7518(3)
H59 H 0.0548 0.2823 0.7793
C60 C -0.0254(4) 0.2889(6) 0.7451(4)
H60 H -0.0398 0.3281 0.7669
N13 N 0.1086(4) 0.0342(7) 0.9966(3)
H61 H 0.1114 0.0034 1.0232
C61 C 0.0721(6) 0.1018(9) 0.9914(4)
H62 H 0.0514 0.1191 1.0169
C62 C 0.0651(5) 0.1456(8) 0.9487(4)
H63 H 0.0383 0.1927 0.9444
C63 C 0.0961(4) 0.1234(6) 0.9110(3)
C64 C 0.1359(4) 0.0548(6) 0.9205(3)
H64 H 0.1596 0.0384 0.8969
C65 C 0.1410(4) 0.0119(7) 0.9624(3)
H65 H 0.1679 -0.0348 0.9680
Cu2A Cu 0.53471(4) -0.36023(6) 0.74417(3)
S2A S 0.53377(8) 0.23895(12) 0.73928(7)
B1 B 0.8073(3) 0.1614(5) 0.6993(3)
F1 F 0.8278(3) 0.1650(6) 0.6547(2)
F2 F 0.8134(3) 0.2446(5) 0.7197(3)
F3 F 0.8401(3) 0.1045(5) 0.7291(3)
F4 F 0.7502(2) 0.1359(4) 0.6921(2)
B2 B 0.0831(4) -0.2929(6) 0.4576(3)
F5 F 0.0584(8) -0.2168(9) 0.4733(6)
F6 F 0.1306(6) -0.3113(10) 0.4935(5)
F7 F 0.0428(6) -0.3559(9) 0.4585(6)
F8 F 0.1051(7) -0.2804(12) 0.4161(4)
Si1 Si 0.80694(11) -0.00933(17) 0.88013(9)
F9 F 0.8232(2) 0.0464(3) 0.83095(17)
F10 F 0.7912(2) -0.0647(3) 0.92713(16)
F11 F 0.7731(2) 0.0793(4) 0.89650(19)
F12 F 0.8705(2) 0.0282(3) 0.91072(16)
F13 F 0.8425(2) -0.0962(3) 0.86268(17)
F14 F 0.7445(2) -0.0439(4) 0.8477(2)
Si2 Si 0.38289(10) -0.02116(14) 0.47857(7)
F15 F 0.41661(19) -0.0070(3) 0.53551(14)
F16 F 0.3486(2) -0.0325(3) 0.42291(14)
F17 F 0.3457(2) -0.1048(3) 0.49775(16)
F18 F 0.4349(2) -0.0891(3) 0.46731(16)
F19 F 0.4194(2) 0.0660(3) 0.46030(15)
F20 F 0.3303(2) 0.0476(3) 0.49132(16)
C66 C 0.0954(5) 0.2777(10) 1.0791(5)
H66 H 0.0944 0.2175 1.0908
H67 H 0.0585 0.2914 1.0594
H68 H 0.1013 0.3178 1.1065
O1 O 0.1411(4) 0.2870(6) 1.0514(3)
C67 C 0.0781(7) 0.4840(11) 1.0068(6)
H69 H 0.0433 0.4471 1.0037
H70 H 0.0724 0.5319 0.9836
H71 H 0.0851 0.5080 1.0394
O2 O 0.1287(4) 0.4310(6) 0.9975(3)
C68 C 0.8094(5) -0.1187(7) 0.7416(4)
H72 H 0.8498 -0.1265 0.7360
H73 H 0.7881 -0.1736 0.7350
H74 H 0.8083 -0.1018 0.7751
O3 O 0.7831(3) -0.0522(5) 0.7108(3)
C69 C 0.0870(8) 0.4365(14) 0.8630(7)
O4 O 0.1066(5) 0.3754(8) 0.9017(4)
C70 C 0.2548(5) 0.2852(7) 1.0048(4)
H75 H 0.2778 0.3030 1.0350
H76 H 0.2278 0.3321 0.9934
H77 H 0.2807 0.2735 0.9808
O5 O 0.2243(3) 0.2113(4) 1.0122(2)
C71? C 0.1043(19) 0.483(3) 0.8779(15)
F21? F 0.8231(7) 0.2192(10) 0.6673(6)
F22? F 0.8174(8) 0.1942(15) 0.7462(5)
F23? F 0.8430(6) 0.0876(8) 0.7003(6)
F24? F 0.0765(7) -0.2042(6) 0.4553(5)
F25? F 0.0280(5) -0.3298(10) 0.4421(5)
F26? F 0.1051(7) -0.3290(10) 0.4997(4)
F27? F 0.1169(4) -0.3151(7) 0.4209(3)
O6? O 0.1550(11) 0.4973(17) 0.9149(9)
loop_
_geom_bond_atom_site_label_1
_geom_bond_atom_site_label_2
_geom_bond_site_symmetry_1
_geom_bond_site_symmetry_2
Cu1 S1 1_555 1_555
Cu2 S1 1_555 1_555
Cu3 S3 1_555 1_555
Cu4 S4 1_555 1_555
Cu5 S8 1_555 1_555
Cu6 S10 1_555 1_555
S1 C3 1_555 1_555
S2 Cu1 1_555 1_555
S3 Cu2 1_555 1_555
S4 Cu2 1_555 1_555
S5 Cu1 1_555 1_555
S6 Cu3 1_555 1_555
S7 Cu1 1_555 1_555
S8 Cu4 1_555 1_555
S9 Cu5 1_555 1_555
S10 Cu5 1_555 1_555
S11 Cu4 1_555 1_555
S12 Cu5 1_555 1_555
S13 Cu6 1_555 1_555
N1 H1 1_555 1_555
C1 N1 1_555 1_555
H2 C1 1_555 1_555
C2 C1 1_555 1_555
H3 C2 1_555 1_555
C3 C2 1_555 1_555
C4 C3 1_555 1_555
H4 C4 1_555 1_555
C5 N1 1_555 1_555
H5 C5 1_555 1_555
N2 H6 1_555 1_555
C6 N2 1_555 1_555
H7 C6 1_555 1_555
C7 C6 1_555 1_555
H8 C7 1_555 1_555
C8 S2 1_555 1_555
C9 C8 1_555 1_555
H9 C9 1_555 1_555
C10 N2 1_555 1_555
H10 C10 1_555 1_555
N3 H11 1_555 1_555
C11 N3 1_555 1_555
H12 C11 1_555 1_555
C12 C11 1_555 1_555
H13 C12 1_555 1_555
C13 S3 1_555 1_555
C14 C13 1_555 1_555
H14 C14 1_555 1_555
C15 N3 1_555 1_555
H15 C15 1_555 1_555
N4 H16 1_555 1_555
C16 N4 1_555 1_555
H17 C16 1_555 1_555
C17 C16 1_555 1_555
H18 C17 1_555 1_555
C18 S4 1_555 1_555
C19 C18 1_555 1_555
H19 C19 1_555 1_555
C20 N4 1_555 1_555
H20 C20 1_555 1_555
N5 H21 1_555 1_555
C21 N5 1_555 1_555
H22 C21 1_555 1_555
C22 C21 1_555 1_555
H23 C22 1_555 1_555
C23 S5 1_555 1_555
C24 C23 1_555 1_555
H24 C24 1_555 1_555
C25 N5 1_555 1_555
H25 C25 1_555 1_555
N6 H26 1_555 1_555
C26 N6 1_555 1_555
H27 C26 1_555 1_555
C27 C26 1_555 1_555
H28 C27 1_555 1_555
C28 S6 1_555 1_555
C29 C28 1_555 1_555
H29 C29 1_555 1_555
C30 N6 1_555 1_555
H30 C30 1_555 1_555
N7 H31 1_555 1_555
C31 N7 1_555 1_555
H32 C31 1_555 1_555
C32 C31 1_555 1_555
H33 C32 1_555 1_555
C33 S7 1_555 1_555
C34 C33 1_555 1_555
H34 C34 1_555 1_555
C35 N7 1_555 1_555
H35 C35 1_555 1_555
N8 H36 1_555 1_555
C36 N8 1_555 1_555
H37 C36 1_555 1_555
C37 C36 1_555 1_555
H38 C37 1_555 1_555
C38 S8 1_555 1_555
C39 C38 1_555 1_555
H39 C39 1_555 1_555
C40 N8 1_555 1_555
H40 C40 1_555 1_555
N9 H41 1_555 1_555
C41 N9 1_555 1_555
H42 C41 1_555 1_555
C42 C41 1_555 1_555
H43 C42 1_555 1_555
C43 S9 1_555 1_555
C44 C43 1_555 1_555
H44 C44 1_555 1_555
C45 N9 1_555 1_555
H45 C45 1_555 1_555
N10 H46 1_555 1_555
C46 N10 1_555 1_555
H47 C46 1_555 1_555
C47 C46 1_555 1_555
H48 C47 1_555 1_555
C48 S10 1_555 1_555
C49 C48 1_555 1_555
H49 C49 1_555 1_555
C50 N10 1_555 1_555
H50 C50 1_555 1_555
N11 H51 1_555 1_555
C51 N11 1_555 1_555
H52 C51 1_555 1_555
C52 C51 1_555 1_555
H53 C52 1_555 1_555
C53 S11 1_555 1_555
C54 C53 1_555 1_555
H54 C54 1_555 1_555
C55 N11 1_555 1_555
H55 C55 1_555 1_555
N12 H56 1_555 1_555
C56 N12 1_555 1_555
H57 C56 1_555 1_555
C57 C56 1_555 1_555
H58 C57 1_555 1_555
C58 S12 1_555 1_555
C59 C58 1_555 1_555
H59 C59 1_555 1_555
C60 N12 1_555 1_555
H60 C60 1_555 1_555
N13 H61 1_555 1_555
C61 N13 1_555 1_555
H62 C61 1_555 1_555
C62 C61 1_555 1_555
H63 C62 1_555 1_555
C63 S13 1_555 1_555
C64 C63 1_555 1_555
H64 C64 1_555 1_555
C65 N13 1_555 1_555
H65 C65 1_555 1_555
B1 F1 1_555 1_555
F2 B1 1_555 1_555
F3 B1 1_555 1_555
F4 B1 1_555 1_555
B2 F5 1_555 1_555
F6 B2 1_555 1_555
F7 B2 1_555 1_555
F8 B2 1_555 1_555
Si1 F9 1_555 1_555
F10 Si1 1_555 1_555
F11 Si1 1_555 1_555
F12 Si1 1_555 1_555
F13 Si1 1_555 1_555
F14 Si1 1_555 1_555
Si2 F15 1_555 1_555
F16 Si2 1_555 1_555
F17 Si2 1_555 1_555
F18 Si2 1_555 1_555
F19 Si2 1_555 1_555
F20 Si2 1_555 1_555
C66 H66 1_555 1_555
H67 C66 1_555 1_555
H68 C66 1_555 1_555
O1 C66 1_555 1_555
C67 H69 1_555 1_555
H70 C67 1_555 1_555
H71 C67 1_555 1_555
O2 C67 1_555 1_555
C68 H72 1_555 1_555
H73 C68 1_555 1_555
H74 C68 1_555 1_555
O3 C68 1_555 1_555
C69 O4 1_555 1_555
C70 H75 1_555 1_555
H76 C70 1_555 1_555
H77 C70 1_555 1_555
O5 C70 1_555 1_555
Cu2A S2 1_555 1_555
S2A Cu2 1_555 1_555
Cu3 S5 1_555 1_555
Cu3 S7 1_555 1_555
Cu4 S7 1_555 1_555
Cu6 S11 1_555 1_555
Cu6 S12 1_555 1_555
C4 C5 1_555 1_555
C7 C8 1_555 1_555
C9 C10 1_555 1_555
C12 C13 1_555 1_555
C14 C15 1_555 1_555
C17 C18 1_555 1_555
C19 C20 1_555 1_555
C22 C23 1_555 1_555
C24 C25 1_555 1_555
C27 C28 1_555 1_555
C29 C30 1_555 1_555
C32 C33 1_555 1_555
C34 C35 1_555 1_555
C37 C38 1_555 1_555
C39 C40 1_555 1_555
C42 C43 1_555 1_555
C44 C45 1_555 1_555
C47 C48 1_555 1_555
C49 C50 1_555 1_555
C52 C53 1_555 1_555
C54 C55 1_555 1_555
C57 C58 1_555 1_555
C59 C60 1_555 1_555
C62 C63 1_555 1_555
C64 C65 1_555 1_555

#END
