
#######################################################################
#
#                 Cambridge Crystallographic Data Centre
#                                CCDC 
#
#######################################################################
#
# If this CIF has been generated from an entry in the Cambridge 
# Structural Database, then it will include bibliographic, chemical, 
# crystal, experimental, refinement or atomic coordinate data resulting 
# from the CCDC's data processing and validation procedures.
#
#######################################################################

data_VUJYAB
_symmetry_cell_setting           monoclinic
_symmetry_space_group_name_H-M   'P 21/c'
_symmetry_Int_Tables_number      14
_space_group_name_Hall           '-P 2ybc'
loop_
_symmetry_equiv_pos_site_id
_symmetry_equiv_pos_as_xyz
1 x,y,z
2 -x,1/2+y,1/2-z
3 -x,-y,-z
4 x,1/2-y,1/2+z
_cell_length_a                   10.769(5)
_cell_length_b                   13.245(5)
_cell_length_c                   17.086(5)
_cell_angle_alpha                90
_cell_angle_beta                 90.876(5)
_cell_angle_gamma                90
_cell_volume                     2436.78
loop_
_atom_site_label
_atom_site_type_symbol
_atom_site_fract_x
_atom_site_fract_y
_atom_site_fract_z
Hg1 Hg -0.06929(2) 0.127381(17) -0.320276(13)
Br1 Br -0.10721(7) -0.05263(5) -0.35112(4)
Br2 Br -0.18635(7) 0.28897(5) -0.31247(4)
N1 N 0.7050(4) -0.2720(3) -0.0774(2)
N2 N 0.0125(4) 0.1249(3) -0.1887(2)
N3 N 0.8661(4) -0.3254(3) -0.1406(3)
C1 C 0.2209(5) 0.0126(4) 0.1190(3)
H1 H 0.2043 0.0263 0.1712
C2 C 0.2758(4) -0.0230(4) -0.0388(3)
H2 H 0.2943 -0.0329 -0.0912
N4 N 0.0441(4) 0.1740(3) -0.0644(3)
C3 C 0.3453(4) -0.0700(3) 0.0195(3)
C4 C 0.4806(5) -0.1572(4) 0.0985(3)
C5 C 0.8161(5) -0.3145(4) -0.0711(3)
H3 H 0.8537 -0.3339 -0.0241
C6 C 0.6363(5) 0.0608(4) 0.3652(3)
H4 H 0.7105 0.0286 0.3455
H5 H 0.6293 0.1265 0.3404
C7 C 0.4136(5) -0.0941(4) 0.2307(3)
H6 H 0.4365 -0.1587 0.2535
H7 H 0.3347 -0.0740 0.2526
C8 C 0.5117(5) -0.0161(4) 0.2532(3)
H8 H 0.5911 -0.0371 0.2327
H9 H 0.4901 0.0481 0.2294
C9 C 0.1524(5) 0.0555(4) 0.0605(3)
H10 H 0.0861 0.0972 0.0729
C10 C 0.1800(4) 0.0378(4) -0.0182(3)
N5 N 0.3983(4) -0.1060(3) 0.1461(2)
N6 N 0.1059(4) 0.0866(3) -0.0780(2)
C11 C 0.5243(5) -0.0023(4) 0.3413(3)
H11 H 0.4498 0.0300 0.3605
H12 H 0.5309 -0.0681 0.3659
C12 C 0.6521(6) 0.0758(5) 0.4528(3)
H13 H 0.5776 0.1071 0.4728
H14 H 0.6610 0.0103 0.4776
C13 C 0.7792(5) -0.2876(4) -0.1900(3)
H15 H 0.7888 -0.2858 -0.2440
C14 C 0.5241(4) -0.1776(4) -0.0390(3)
H16 H 0.5055 -0.1652 -0.0914
C15 C 0.4515(4) -0.1365(4) 0.0196(3)
C16 C 0.5793(5) -0.2205(4) 0.1182(3)
H17 H 0.5965 -0.2363 0.1703
C17 C 0.0847(5) 0.0594(4) -0.1515(3)
H18 H 0.1167 0.0013 -0.1742
C18 C 0.3168(5) -0.0525(4) 0.0985(3)
C19 C 0.6238(4) -0.2367(4) -0.0179(3)
C20 C 0.6506(4) -0.2592(4) 0.0600(3)
H19 H 0.7176 -0.3008 0.0726
C21 C -0.0098(5) 0.1930(4) -0.1322(3)
H20 H -0.0597 0.2494 -0.1406
N7 N 0.6798(4) -0.2536(3) -0.1551(3)
C22 C 0.7611(7) 0.1393(5) 0.4747(4)
H21 H 0.8361 0.1039 0.4626
H22 H 0.7596 0.1534 0.5298
H23 H 0.7577 0.2015 0.4460
Hg1A Hg 1.06929(2) -0.372619(17) -0.179724(13)
N3A N 0.1339(4) 0.1746(3) -0.3594(3)
loop_
_geom_bond_atom_site_label_1
_geom_bond_atom_site_label_2
_geom_bond_site_symmetry_1
_geom_bond_site_symmetry_2
Hg1 Br1 1_555 1_555
Br2 Hg1 1_555 1_555
N1 C5 1_555 1_555
N2 Hg1 1_555 1_555
N3 C5 1_555 1_555
C1 H1 1_555 1_555
C2 H2 1_555 1_555
N4 N6 1_555 1_555
C3 C2 1_555 1_555
C4 N5 1_555 1_555
C5 H3 1_555 1_555
C6 H4 1_555 1_555
H5 C6 1_555 1_555
C7 H6 1_555 1_555
H7 C7 1_555 1_555
C8 C7 1_555 1_555
H8 C8 1_555 1_555
H9 C8 1_555 1_555
C9 C1 1_555 1_555
H10 C9 1_555 1_555
C10 C2 1_555 1_555
N5 C7 1_555 1_555
N6 C10 1_555 1_555
C11 C6 1_555 1_555
H11 C11 1_555 1_555
H12 C11 1_555 1_555
C12 C6 1_555 1_555
H13 C12 1_555 1_555
H14 C12 1_555 1_555
C13 N3 1_555 1_555
H15 C13 1_555 1_555
C14 H16 1_555 1_555
C15 C3 1_555 1_555
C16 C4 1_555 1_555
H17 C16 1_555 1_555
C17 N2 1_555 1_555
H18 C17 1_555 1_555
C18 C1 1_555 1_555
C19 N1 1_555 1_555
C20 C16 1_555 1_555
H19 C20 1_555 1_555
C21 N2 1_555 1_555
H20 C21 1_555 1_555
N7 N1 1_555 1_555
C22 C12 1_555 1_555
H21 C22 1_555 1_555
H22 C22 1_555 1_555
H23 C22 1_555 1_555
Hg1A N3 1_555 1_555
N3A Hg1 1_555 1_555
N4 C21 1_555 1_555
C3 C18 1_555 1_555
C4 C15 1_555 1_555
C8 C11 1_555 1_555
C9 C10 1_555 1_555
N5 C18 1_555 1_555
N6 C17 1_555 1_555
C13 N7 1_555 1_555
C14 C15 1_555 1_555
C14 C19 1_555 1_555
C19 C20 1_555 1_555

#END
