
#######################################################################
#
#                 Cambridge Crystallographic Data Centre
#                                CCDC 
#
#######################################################################
#
# If this CIF has been generated from an entry in the Cambridge 
# Structural Database, then it will include bibliographic, chemical, 
# crystal, experimental, refinement or atomic coordinate data resulting 
# from the CCDC's data processing and validation procedures.
#
#######################################################################

data_VUJYIJ
_symmetry_cell_setting           triclinic
_symmetry_space_group_name_H-M   'P -1'
_symmetry_Int_Tables_number      2
_space_group_name_Hall           '-P 1'
loop_
_symmetry_equiv_pos_site_id
_symmetry_equiv_pos_as_xyz
1 x,y,z
2 -x,-y,-z
_cell_length_a                   8.4300(17)
_cell_length_b                   22.100(4)
_cell_length_c                   11.290(2)
_cell_angle_alpha                90.00(3)
_cell_angle_beta                 96.07(3)
_cell_angle_gamma                90.00(3)
_cell_volume                     2091.57
loop_
_atom_site_label
_atom_site_type_symbol
_atom_site_fract_x
_atom_site_fract_y
_atom_site_fract_z
Hg1 Hg 0.83127(3) 0.253092(9) 1.293709(19)
Hg2 Hg 0.66886(3) -0.246910(9) 0.206330(19)
C1 C 0.6442(8) 0.6518(3) 0.4299(5)
H1 H 0.5351 0.6584 0.4288
C2 C 0.8772(8) 0.6576(2) 0.3845(5)
H2 H 0.9678 0.6677 0.3485
C3 C 1.0045(7) 0.5875(2) 0.5381(5)
C4 C 1.1569(8) 0.5975(3) 0.5079(5)
H3 H 1.1734 0.6254 0.4487
C5 C 1.2841(7) 0.5664(3) 0.5646(5)
H4 H 1.3869 0.5728 0.5443
C6 C 1.2564(7) 0.5261(2) 0.6509(5)
C7 C 1.1009(7) 0.5165(2) 0.6842(5)
C8 C 1.2779(7) 0.4574(2) 0.7966(5)
C9 C 1.1168(7) 0.4727(2) 0.7786(5)
C10 C 1.0119(7) 0.4470(2) 0.8507(5)
H5 H 0.9038 0.4566 0.8406
C11 C 1.0716(7) 0.4071(2) 0.9372(5)
C12 C 1.2306(7) 0.3906(2) 0.9524(5)
H6 H 1.2655 0.3622 1.0101
C13 C 1.3381(7) 0.4158(2) 0.8826(5)
H7 H 1.4457 0.4056 0.8925
C14 C 1.5332(7) 0.4911(3) 0.7190(5)
H8 H 1.5596 0.5024 0.6404
H9 H 1.5768 0.4511 0.7371
C15 C 1.6075(8) 0.5356(4) 0.8091(7)
H10 H 1.5796 0.5760 0.7834
H11 H 1.7214 0.5311 0.8167
H12 H 1.5688 0.5282 0.8847
C16 C 0.9936(8) 0.3381(2) 1.0962(5)
H13 H 1.0895 0.3174 1.1119
C17 C 0.7580(8) 0.3693(3) 1.0969(6)
H14 H 0.6540 0.3729 1.1166
C18 C 0.8555(8) 0.1520(3) 1.0701(5)
H15 H 0.9643 0.1591 1.0706
C19 C 0.6224(8) 0.1572(2) 1.1162(5)
H16 H 0.5320 0.1669 1.1530
C20 C 0.4953(7) 0.0878(2) 0.9624(5)
C21 C 0.3430(8) 0.0975(3) 0.9922(5)
H17 H 0.3263 0.1254 1.0512
C22 C 0.2159(7) 0.0666(2) 0.9360(5)
H18 H 0.1131 0.0731 0.9562
C23 C 0.2445(7) 0.0255(2) 0.8484(5)
C24 C 0.4002(7) 0.0166(2) 0.8158(5)
C25 C 0.5266(7) 0.0475(2) 0.8742(5)
H19 H 0.6300 0.0415 0.8551
C26 C -0.0333(7) -0.0089(3) 0.7804(6)
H20 H -0.0604 0.0020 0.8589
H21 H -0.0769 -0.0488 0.7613
C27 C -0.1066(8) 0.0356(3) 0.6914(7)
H22 H -0.0673 0.0754 0.7121
H23 H -0.2205 0.0350 0.6913
H24 H -0.0791 0.0251 0.6136
C28 C 0.2212(7) -0.0425(2) 0.7036(5)
C29 C 0.3835(7) -0.0274(2) 0.7207(5)
C30 C 0.4882(7) -0.0531(2) 0.6492(5)
H25 H 0.5962 -0.0436 0.6596
C31 C 0.4293(7) -0.0931(2) 0.5623(5)
C32 C 0.2697(8) -0.1093(2) 0.5481(5)
H26 H 0.2340 -0.1375 0.4901
C33 C 0.1636(7) -0.0844(2) 0.6181(5)
H27 H 0.0564 -0.0951 0.6086
N1 N 0.6848(7) -0.0978(2) 0.4840(5)
C34 C 0.7415(8) -0.1312(3) 0.4023(6)
H28 H 0.8453 -0.1277 0.3821
C35 C 1.0308(9) -0.2155(3) 0.2563(9)
C36 C 0.3337(8) -0.3070(3) 0.2083(6)
C37 C 1.1669(8) 0.1929(3) 1.2920(6)
C38 C 0.9729(7) 0.5475(2) 0.6264(5)
H29 H 0.8697 0.5416 0.6461
N2 N 0.6352(6) -0.1713(2) 0.3502(5)
C39 C 0.4687(9) 0.2846(3) 1.2435(9)
N3 N 0.7345(6) 0.67924(19) 0.3534(4)
N4 N 0.8744(6) 0.61930(18) 0.4749(4)
N5 N 0.7239(6) 0.6154(2) 0.5054(5)
N6 N 1.3617(6) 0.4892(2) 0.7187(4)
N7 N 0.9651(6) 0.38174(19) 1.0151(4)
N8 N 0.8149(7) 0.4020(2) 1.0161(5)
N9 N 0.8657(6) 0.3288(2) 1.1504(4)
N10 N 1.1100(9) -0.2060(4) 0.3420(9)
N11 N 0.2825(8) -0.3410(3) 0.2697(6)
N12 N 0.7656(6) 0.1789(2) 1.1465(4)
N13 N 0.6255(6) 0.11953(18) 1.0255(4)
N14 N 0.7767(6) 0.1148(2) 0.9949(5)
N15 N 0.5341(6) -0.11822(19) 0.4847(4)
C40 C 0.5069(8) -0.1617(2) 0.4038(5)
H30 H 0.4108 -0.1823 0.3876
N16 N 0.1394(6) -0.0109(2) 0.7817(4)
N17 N 1.2177(8) 0.1592(3) 1.2301(6)
N18 N 0.3891(9) 0.2947(4) 1.1590(9)
S1 S 0.4025(2) -0.26102(9) 0.11108(17)
S2 S 1.0982(2) 0.23894(9) 1.38906(17)
S3 S 0.9226(3) -0.23179(10) 0.13035(19)
S4 S 0.5777(3) 0.26827(10) 1.36976(19)
Hg2_2 Hg 0.66886(3) 0.753090(9) 0.206330(19)
N3_2 N 0.7345(6) -0.32076(19) 0.3534(4)
loop_
_geom_bond_atom_site_label_1
_geom_bond_atom_site_label_2
_geom_bond_site_symmetry_1
_geom_bond_site_symmetry_2
Hg1 N9 1_555 1_555
Hg2 N2 1_555 1_555
C1 H1 1_555 1_555
C2 H2 1_555 1_555
C3 C4 1_555 1_555
C4 H3 1_555 1_555
C5 C4 1_555 1_555
H4 C5 1_555 1_555
C6 C5 1_555 1_555
C7 C6 1_555 1_555
C8 C9 1_555 1_555
C9 C7 1_555 1_555
C10 C9 1_555 1_555
H5 C10 1_555 1_555
C11 C10 1_555 1_555
C12 C11 1_555 1_555
H6 C12 1_555 1_555
C13 C8 1_555 1_555
H7 C13 1_555 1_555
C14 H8 1_555 1_555
H9 C14 1_555 1_555
C15 C14 1_555 1_555
H10 C15 1_555 1_555
H11 C15 1_555 1_555
H12 C15 1_555 1_555
C16 H13 1_555 1_555
C17 H14 1_555 1_555
C18 H15 1_555 1_555
C19 H16 1_555 1_555
C20 C21 1_555 1_555
C21 H17 1_555 1_555
C22 C21 1_555 1_555
H18 C22 1_555 1_555
C23 C22 1_555 1_555
C24 C23 1_555 1_555
C25 C20 1_555 1_555
H19 C25 1_555 1_555
C26 H20 1_555 1_555
H21 C26 1_555 1_555
C27 C26 1_555 1_555
H22 C27 1_555 1_555
H23 C27 1_555 1_555
H24 C27 1_555 1_555
C28 C29 1_555 1_555
C29 C24 1_555 1_555
C30 C29 1_555 1_555
H25 C30 1_555 1_555
C31 C30 1_555 1_555
C32 C31 1_555 1_555
H26 C32 1_555 1_555
C33 C28 1_555 1_555
H27 C33 1_555 1_555
N1 C34 1_555 1_555
C34 H28 1_555 1_555
C35 N10 1_555 1_555
C36 N11 1_555 1_555
C37 N17 1_555 1_555
C38 C3 1_555 1_555
H29 C38 1_555 1_555
N2 C34 1_555 1_555
C39 N18 1_555 1_555
N3 C1 1_555 1_555
N4 C2 1_555 1_555
N5 C1 1_555 1_555
N6 C6 1_555 1_555
N7 C11 1_555 1_555
N8 C17 1_555 1_555
N9 C16 1_555 1_555
N12 Hg1 1_555 1_555
N13 C19 1_555 1_555
N14 C18 1_555 1_555
N15 C31 1_555 1_555
C40 N2 1_555 1_555
H30 C40 1_555 1_555
N16 C23 1_555 1_555
S1 Hg2 1_555 1_555
S2 Hg1 1_555 1_555
S3 Hg2 1_555 1_555
S4 Hg1 1_555 1_555
Hg2_2 N3 1_555 1_555
N3_2 Hg2 1_555 1_555
C2 N3 1_555 1_555
C3 N4 1_555 1_555
C7 C38 1_555 1_555
C8 N6 1_555 1_555
C12 C13 1_555 1_555
C14 N6 1_555 1_555
C16 N7 1_555 1_555
C17 N9 1_555 1_555
C18 N12 1_555 1_555
C19 N12 1_555 1_555
C20 N13 1_555 1_555
C24 C25 1_555 1_555
C26 N16 1_555 1_555
C28 N16 1_555 1_555
C32 C33 1_555 1_555
N1 N15 1_555 1_555
C35 S3 1_555 1_555
C36 S1 1_555 1_555
C37 S2 1_555 1_555
C39 S4 1_555 1_555
N4 N5 1_555 1_555
N7 N8 1_555 1_555
N13 N14 1_555 1_555
N15 C40 1_555 1_555

#END
