
#######################################################################
#
#                 Cambridge Crystallographic Data Centre
#                                CCDC 
#
#######################################################################
#
# If this CIF has been generated from an entry in the Cambridge 
# Structural Database, then it will include bibliographic, chemical, 
# crystal, experimental, refinement or atomic coordinate data resulting 
# from the CCDC's data processing and validation procedures.
#
#######################################################################

data_VUJZAC
_symmetry_cell_setting           monoclinic
_symmetry_space_group_name_H-M   'P 21/c'
_symmetry_Int_Tables_number      14
_space_group_name_Hall           '-P 2ybc'
loop_
_symmetry_equiv_pos_site_id
_symmetry_equiv_pos_as_xyz
1 x,y,z
2 -x,1/2+y,1/2-z
3 -x,-y,-z
4 x,1/2-y,1/2+z
_cell_length_a                   10.8306(8)
_cell_length_b                   12.8699(9)
_cell_length_c                   17.0548(13)
_cell_angle_alpha                90
_cell_angle_beta                 91.438(1)
_cell_angle_gamma                90
_cell_volume                     2376.5
loop_
_atom_site_label
_atom_site_type_symbol
_atom_site_fract_x
_atom_site_fract_y
_atom_site_fract_z
C1 C 0.7210(3) 0.5082(3) 0.61721(17)
H1 H 0.7032 0.5208 0.6694
C2 C 0.6517(3) 0.5529(2) 0.55768(18)
H2 H 0.5853 0.5954 0.5695
C3 C 0.6806(3) 0.5346(2) 0.47905(17)
C4 C 0.7776(3) 0.4720(2) 0.45832(17)
H3 H 0.7957 0.4611 0.4059
C5 C 0.8481(3) 0.4253(2) 0.51854(17)
C6 C 0.8186(3) 0.4436(3) 0.59744(17)
C7 C 0.9836(3) 0.3386(3) 0.59878(18)
C8 C 0.9547(3) 0.3586(2) 0.51948(18)
C9 C 1.0280(3) 0.3182(3) 0.46078(17)
H4 H 1.0088 0.3305 0.4081
C10 C 1.1290(3) 0.2598(3) 0.48264(18)
C11 C 1.1557(3) 0.2354(3) 0.56179(19)
H5 H 1.2221 0.1923 0.5748
C12 C 1.0834(3) 0.2754(3) 0.62008(18)
H6 H 1.1010 0.2605 0.6725
C13 C 0.4927(3) 0.6940(3) 0.3638(2)
H7 H 0.4444 0.7527 0.3545
C14 C 0.5836(3) 0.5521(3) 0.34535(18)
H8 H 0.6133 0.4913 0.3232
C15 C 0.9150(3) 0.4025(3) 0.73084(18)
H9 H 0.9383 0.3364 0.7542
H10 H 0.8364 0.4229 0.7521
C16 C 1.0111(4) 0.4828(3) 0.75326(19)
H11 H 0.9882 0.5488 0.7295
H12 H 1.0899 0.4621 0.7325
C17 C 1.0251(4) 0.4969(3) 0.84152(19)
H13 H 0.9519 0.5310 0.8607
H14 H 1.0309 0.4291 0.8662
C18 C 1.1377(4) 0.5603(3) 0.8655(2)
H15 H 1.1322 0.6276 0.8401
H16 H 1.2107 0.5256 0.8465
C19 C 1.1537(4) 0.5768(3) 0.9532(2)
H17 H 1.0813 0.6119 0.9725
H18 H 1.1599 0.5098 0.9790
C20 C 1.2674(5) 0.6405(4) 0.9744(3)
H19 H 1.3402 0.6021 0.9614
H20 H 1.2690 0.6550 1.0296
H21 H 1.2653 0.7046 0.9456
C21 C 1.2873(3) 0.2130(3) 0.3127(2)
H22 H 1.2983 0.2170 0.2588
C22 C 1.3229(3) 0.1811(3) 0.4316(2)
H23 H 1.3594 0.1597 0.4788
Cl1 Cl 0.32034(12) 0.78427(9) 0.18772(8)
Cl2 Cl 0.38866(13) 0.44846(9) 0.14853(8)
Hg1 Hg 0.426049(12) 0.624138(12) 0.177212(8)
N1 N 0.6068(2) 0.5826(2) 0.41882(14)
N2 N 0.5478(3) 0.6753(2) 0.43146(17)
N3 N 0.5121(3) 0.6207(2) 0.30827(17)
N4 N 0.9004(3) 0.3894(2) 0.64557(16)
N5 N 1.2116(2) 0.2248(2) 0.42399(15)
N6 N 1.1869(3) 0.2459(2) 0.34641(16)
N7 N 1.3735(3) 0.1727(3) 0.36274(17)
Hg1A Hg 1.573951(12) 0.124138(12) 0.322788(8)
N7A N 0.6265(3) 0.6727(3) 0.13726(17)
loop_
_geom_bond_atom_site_label_1
_geom_bond_atom_site_label_2
_geom_bond_site_symmetry_1
_geom_bond_site_symmetry_2
C1 H1 1_555 1_555
C2 C1 1_555 1_555
H2 C2 1_555 1_555
C3 C2 1_555 1_555
C4 C3 1_555 1_555
H3 C4 1_555 1_555
C5 C4 1_555 1_555
C6 C1 1_555 1_555
C7 C8 1_555 1_555
C8 C5 1_555 1_555
C9 C8 1_555 1_555
H4 C9 1_555 1_555
C10 C9 1_555 1_555
C11 C10 1_555 1_555
H5 C11 1_555 1_555
C12 C7 1_555 1_555
H6 C12 1_555 1_555
C13 H7 1_555 1_555
C14 H8 1_555 1_555
C15 H9 1_555 1_555
H10 C15 1_555 1_555
C16 C15 1_555 1_555
H11 C16 1_555 1_555
H12 C16 1_555 1_555
C17 C16 1_555 1_555
H13 C17 1_555 1_555
H14 C17 1_555 1_555
C18 C17 1_555 1_555
H15 C18 1_555 1_555
H16 C18 1_555 1_555
C19 C18 1_555 1_555
H17 C19 1_555 1_555
H18 C19 1_555 1_555
C20 C19 1_555 1_555
H19 C20 1_555 1_555
H20 C20 1_555 1_555
H21 C20 1_555 1_555
C21 H22 1_555 1_555
C22 H23 1_555 1_555
Cl1 Hg1 1_555 1_555
Cl2 Hg1 1_555 1_555
Hg1 N3 1_555 1_555
N1 C3 1_555 1_555
N2 C13 1_555 1_555
N3 C13 1_555 1_555
N4 C6 1_555 1_555
N5 C10 1_555 1_555
N6 C21 1_555 1_555
N7 C21 1_555 1_555
Hg1A N7 1_555 1_555
N7A Hg1 1_555 1_555
C5 C6 1_555 1_555
C7 N4 1_555 1_555
C11 C12 1_555 1_555
C14 N1 1_555 1_555
C14 N3 1_555 1_555
C15 N4 1_555 1_555
C22 N5 1_555 1_555
C22 N7 1_555 1_555
N1 N2 1_555 1_555
N5 N6 1_555 1_555

#END
