
#######################################################################
#
#                 Cambridge Crystallographic Data Centre
#                                CCDC 
#
#######################################################################
#
# If this CIF has been generated from an entry in the Cambridge 
# Structural Database, then it will include bibliographic, chemical, 
# crystal, experimental, refinement or atomic coordinate data resulting 
# from the CCDC's data processing and validation procedures.
#
#######################################################################

data_VUKFUD
_symmetry_cell_setting           triclinic
_symmetry_space_group_name_H-M   'P -1'
_symmetry_Int_Tables_number      2
_space_group_name_Hall           '-P 1'
loop_
_symmetry_equiv_pos_site_id
_symmetry_equiv_pos_as_xyz
1 x,y,z
2 -x,-y,-z
_cell_length_a                   8.4405(6)
_cell_length_b                   11.4677(8)
_cell_length_c                   11.7069(8)
_cell_angle_alpha                108.704(1)
_cell_angle_beta                 95.000(1)
_cell_angle_gamma                95.813(1)
_cell_volume                     1059.14
loop_
_atom_site_label
_atom_site_type_symbol
_atom_site_fract_x
_atom_site_fract_y
_atom_site_fract_z
Cu1 Cu 0.14452(5) 0.93803(3) 0.01230(3)
Cu2 Cu -0.11221(6) 0.79121(3) -0.21772(3)
O1 O -0.0053(3) 0.95729(19) -0.1159(2)
O2 O -0.0813(5) 0.7482(3) -0.0262(6)
O3 O -0.2822(5) 0.8292(4) -0.0651(4)
O4 O 0.2957(3) 0.8667(2) -0.0947(2)
O5 O 0.1293(4) 0.7170(2) -0.2409(2)
O6 O -0.1065(3) 0.8272(2) -0.3711(2)
O7 O 0.0841(3) 0.9922(2) -0.3158(2)
C1 C -0.2062(5) 0.7828(3) -0.0029(3)
H1 H -0.2469 0.7739 0.0656
C2 C 0.2617(5) 0.7736(4) -0.1897(3)
H2 H 0.3491 0.7430 -0.2266
C3 C -0.0100(5) 0.9072(3) -0.3911(3)
H3 H -0.0093 0.9019 -0.4720
N1 N 0.2743(3) 0.9105(2) 0.1479(2)
N2 N 0.2324(4) 0.3771(2) 0.3150(2)
S1 S 0.59778(10) 0.83705(8) 0.44128(8)
S2 S 0.45214(12) 0.77185(7) 0.54307(7)
C4 C 0.4336(4) 0.9417(3) 0.1653(3)
H4 H 0.4806 0.9790 0.1144
C5 C 0.5311(4) 0.9210(3) 0.2556(3)
H5 H 0.6415 0.9443 0.2652
C6 C 0.4633(4) 0.8652(3) 0.3315(3)
C7 C 0.2970(4) 0.8332(3) 0.3142(3)
H6 H 0.2468 0.7962 0.3640
C8 C 0.2090(4) 0.8574(3) 0.2223(3)
H7 H 0.0981 0.8358 0.2112
C9 C 0.3759(4) 0.6165(3) 0.4517(3)
C10 C 0.2557(5) 0.5565(3) 0.4930(3)
H8 H 0.2207 0.5960 0.5671
C11 C 0.1876(5) 0.4374(3) 0.4237(3)
H9 H 0.1077 0.3973 0.4532
C12 C 0.3510(5) 0.4348(3) 0.2771(3)
H10 H 0.3852 0.3931 0.2034
C13 C 0.4265(5) 0.5545(3) 0.3421(3)
H11 H 0.5090 0.5917 0.3124
H12 H 0.028(4) 0.972(3) -0.161(3)
Cu1A Cu -0.14452(5) 1.06197(3) -0.01230(3)
Cu2A Cu 0.11221(6) 0.20879(3) 0.21772(3)
O1A O 0.0053(3) 1.04271(19) 0.1159(2)
O3A O 0.2822(5) 1.1708(4) 0.0651(4)
N2A N -0.2324(4) 0.6229(2) -0.3150(2)
H12A H -0.028(4) 1.028(3) 0.161(3)
Cl1 Cl 0.1167(3) 0.37347(17) 0.71900(18)
Cl2 Cl 0.2867(3) 0.5336(2) 0.9492(2)
C14 C 0.1035(8) 0.4770(5) 0.8615(6)
H13 H 0.0529 0.5462 0.8520
H14 H 0.0352 0.4358 0.9036
loop_
_geom_bond_atom_site_label_1
_geom_bond_atom_site_label_2
_geom_bond_site_symmetry_1
_geom_bond_site_symmetry_2
Cu1 O1 1_555 1_555
Cu2 O1 1_555 1_555
O1 H12 1_555 1_555
O2 Cu1 1_555 1_555
O3 Cu2 1_555 1_555
O4 Cu1 1_555 1_555
O5 Cu2 1_555 1_555
O6 Cu2 1_555 1_555
O7 C3 1_555 1_555
C1 O2 1_555 1_555
H1 C1 1_555 1_555
C2 O4 1_555 1_555
H2 C2 1_555 1_555
C3 O6 1_555 1_555
H3 C3 1_555 1_555
N1 Cu1 1_555 1_555
N2 C11 1_555 1_555
S1 S2 1_555 1_555
S2 C9 1_555 1_555
C4 N1 1_555 1_555
H4 C4 1_555 1_555
C5 C4 1_555 1_555
H5 C5 1_555 1_555
C6 S1 1_555 1_555
C7 C6 1_555 1_555
H6 C7 1_555 1_555
C8 N1 1_555 1_555
H7 C8 1_555 1_555
C9 C10 1_555 1_555
C10 H8 1_555 1_555
C11 C10 1_555 1_555
H9 C11 1_555 1_555
C12 N2 1_555 1_555
H10 C12 1_555 1_555
C13 C9 1_555 1_555
H11 C13 1_555 1_555
Cl1 C14 1_555 1_555
Cl2 C14 1_555 1_555
C14 H13 1_555 1_555
H14 C14 1_555 1_555
Cu1A O1 1_555 1_555
Cu2A N2 1_555 1_555
O1A Cu1 1_555 1_555
O3A Cu1 1_555 1_555
N2A Cu2 1_555 1_555
H12A O1A 1_555 1_555
Cu2 O2 1_555 1_555
O3 C1 1_555 1_555
O3 Cu1A 1_555 1_555
O5 C2 1_555 1_555
C5 C6 1_555 1_555
C7 C8 1_555 1_555
C12 C13 1_555 1_555
Cu1A O1A 1_555 1_555

#END
