
#######################################################################
#
#                 Cambridge Crystallographic Data Centre
#                                CCDC 
#
#######################################################################
#
# If this CIF has been generated from an entry in the Cambridge 
# Structural Database, then it will include bibliographic, chemical, 
# crystal, experimental, refinement or atomic coordinate data resulting 
# from the CCDC's data processing and validation procedures.
#
#######################################################################

data_VUKFEN
_symmetry_cell_setting           hexagonal
_symmetry_space_group_name_H-M   'P 64 2 2'
_symmetry_Int_Tables_number      181
_space_group_name_Hall           "P 64 2' (0,0,2)"
loop_
_symmetry_equiv_pos_site_id
_symmetry_equiv_pos_as_xyz
1 x,y,z
2 -x,-y,z
3 -y,x-y,1/3+z
4 -x+y,-x,2/3+z
5 x-y,x,2/3+z
6 y,-x+y,1/3+z
7 x-y,-y,-z
8 -x,-x+y,2/3-z
9 y,x,1/3-z
10 -y,-x,1/3-z
11 x,x-y,2/3-z
12 -x+y,y,-z
_cell_length_a                   11.641(1)
_cell_length_b                   11.641(1)
_cell_length_c                   18.756(2)
_cell_angle_alpha                90
_cell_angle_beta                 90
_cell_angle_gamma                120
_cell_volume                     2201.16
loop_
_atom_site_label
_atom_site_type_symbol
_atom_site_fract_x
_atom_site_fract_y
_atom_site_fract_z
Co1 Co 1.0000 1.0000 0.8333
N1 N 1.0000 0.80817(19) 0.8333
O1 O 0.85739(18) 0.91841(19) 0.91165(10)
H1 H 0.8665 0.8671 0.9411
H2 H 0.8001 0.9265 0.9163
C1 C 1.0000 0.5643(2) 0.8333
C2 C 1.1144(2) 0.6847(2) 0.84707(13)
H3 H 1.1937 0.6868 0.8569
C3 C 1.1098(2) 0.8016(2) 0.84612(13)
H4 H 1.1881 0.8805 0.8549
Co1_2 Co 1.0000 0.0000 0.8333
N1A N 1.0000 0.19183(19) 0.8333
N1A_2 N 1.0000 1.19183(19) 0.8333
O1A O 1.14261(18) 1.08159(19) 0.91165(10)
O1G O 1.14261(18) 1.06102(26) 0.75502(10)
O1J O 0.85739(18) 0.93898(26) 0.75502(10)
H1A H 1.1335 1.1329 0.9411
H1G H 1.1335 1.0006 0.7256
H1J H 0.8665 0.9994 0.7256
H2A H 1.1999 1.0735 0.9163
H2G H 1.1999 1.1264 0.7504
H2J H 0.8001 0.8736 0.7504
C1A C 1.0000 0.4357(2) 0.8333
C2A C 0.8856(2) 0.3153(2) 0.84707(13)
C2J C 1.1144(2) 0.4297(3) 0.81960(13)
C2G C 0.8856(2) 0.5703(3) 0.81960(13)
H3A H 0.8063 0.3132 0.8569
H3J H 1.1937 0.5069 0.8098
H3G H 0.8063 0.4931 0.8098
C3A C 0.8902(2) 0.1984(2) 0.84612(13)
C3J C 1.1098(2) 0.3082(3) 0.82055(13)
C3G C 0.8902(2) 0.6918(3) 0.82055(13)
H4J H 1.1881 0.3076 0.8118
H4A H 0.8119 0.1195 0.8549
H4G H 0.8119 0.6924 0.8118
O2 O 0.86626(10) 0.73252(19) 1.0000
C4 C 0.66562(16) 0.3312(3) 1.0000
H5 H 0.6195 0.2390 1.0000
C5 C 0.80479(14) 0.6096(3) 1.0000
N2 N 0.67522(19) 0.53729(19) 0.98042(10)
O3 O 0.48286(17) 0.34632(17) 0.95692(12)
C6 C 0.6016(2) 0.3991(2) 0.97844(12)
H9 H 0.636(3) 0.578(2) 0.9696(13)
N2K N 0.86207(27) 0.53729(19) 1.01958(10)
O3K O 0.86346(24) 0.34632(17) 1.04308(12)
C6K C 0.7975(3) 0.3991(2) 1.02156(12)
H9K H 0.942(4) 0.578(2) 1.0304(13)
O4 O 0.6346(2) 0.9218(2) 0.94027(17)
H6 H 0.5716 0.9308 0.9163
H7 H 0.6057 0.8425 0.9550
O5 O 1.5000 1.0000 0.8541(2)
H8 H 1.4337 0.9724 0.8316
H8A H 1.5663 1.0276 0.8316
loop_
_geom_bond_atom_site_label_1
_geom_bond_atom_site_label_2
_geom_bond_site_symmetry_1
_geom_bond_site_symmetry_2
Co1 N1 1_555 1_555
N1 C3 1_555 1_555
O1 Co1 1_555 1_555
H1 O1 1_555 1_555
H2 O1 1_555 1_555
C1 C2 1_555 1_555
C2 H3 1_555 1_555
C3 C2 1_555 1_555
H4 C3 1_555 1_555
O2 C5 1_555 1_555
C4 H5 1_555 1_555
C5 N2 1_555 1_555
N2 C6 1_555 1_555
O3 C6 1_555 1_555
C6 C4 1_555 1_555
O4 H6 1_555 1_555
H7 O4 1_555 1_555
O5 H8 1_555 1_555
H9 N2 1_555 1_555
Co1_2 N1A 1_555 1_555
N1A C3A 1_555 1_555
N1A_2 Co1 1_555 1_555
O1A Co1 1_555 1_555
O1G Co1 1_555 1_555
O1J Co1 1_555 1_555
H1A O1A 1_555 1_555
H1G O1G 1_555 1_555
H1J O1J 1_555 1_555
H2A O1A 1_555 1_555
H2G O1G 1_555 1_555
H2J O1J 1_555 1_555
C1A C1 1_555 1_555
C2A C1A 1_555 1_555
C2J C1A 1_555 1_555
C2G C1 1_555 1_555
H3A C2A 1_555 1_555
H3J C2J 1_555 1_555
H3G C2G 1_555 1_555
C3A C2A 1_555 1_555
C3J N1A 1_555 1_555
C3G N1 1_555 1_555
H4J C3J 1_555 1_555
H4A C3A 1_555 1_555
H4G C3G 1_555 1_555
N2K C5 1_555 1_555
O3K C6K 1_555 1_555
C6K C4 1_555 1_555
H8A O5 1_555 1_555
H9K N2K 1_555 1_555
C2J C3J 1_555 1_555
C2G C3G 1_555 1_555
N2K C6K 1_555 1_555

#END
