
#######################################################################
#
#                 Cambridge Crystallographic Data Centre
#                                CCDC 
#
#######################################################################
#
# If this CIF has been generated from an entry in the Cambridge 
# Structural Database, then it will include bibliographic, chemical, 
# crystal, experimental, refinement or atomic coordinate data resulting 
# from the CCDC's data processing and validation procedures.
#
#######################################################################

data_VUKGOY
_symmetry_cell_setting           monoclinic
_symmetry_space_group_name_H-M   'P 21/n'
_symmetry_Int_Tables_number      14
_space_group_name_Hall           '-P 2yn'
loop_
_symmetry_equiv_pos_site_id
_symmetry_equiv_pos_as_xyz
1 x,y,z
2 1/2-x,1/2+y,1/2-z
3 -x,-y,-z
4 1/2+x,1/2-y,1/2+z
_cell_length_a                   6.942(3)
_cell_length_b                   27.341(11)
_cell_length_c                   11.782(5)
_cell_angle_alpha                90
_cell_angle_beta                 90.095(7)
_cell_angle_gamma                90
_cell_volume                     2236.23
loop_
_atom_site_label
_atom_site_type_symbol
_atom_site_fract_x
_atom_site_fract_y
_atom_site_fract_z
Mn1 Mn 0.5000 0.0000 0.5000
Mn2 Mn 0.5000 0.5000 0.5000
O1 O 0.3263(2) 0.06563(6) 0.53120(16)
O2 O 0.0773(2) 0.04091(6) 0.63449(15)
O3 O 0.3097(2) 0.43885(6) 0.47136(16)
O4 O 0.0784(2) 0.46707(6) 0.35746(15)
O5 O 0.6926(3) 0.01524(8) 0.63882(16)
H1 H 0.8066 0.0257 0.6287
H2 H 0.6387 0.0246 0.6998
O6 O 0.6954(3) 0.03773(6) 0.38753(17)
H3 H 0.7863 0.0181 0.3714
O7 O 0.3203(3) 0.52075(8) 0.64252(16)
H4 H 0.1982 0.5228 0.6392
H5 H 0.3731 0.5352 0.6984
O8 O 0.3149(3) 0.54338(7) 0.39033(18)
H6 H 0.2151 0.5272 0.3717
F1 F -0.4580(2) 0.18954(5) 0.35675(14)
F2 F -0.5061(2) 0.26356(6) 0.30709(16)
F3 F -0.2490(2) 0.22637(6) 0.25495(13)
F4 F -0.5599(2) 0.23463(6) 0.54897(16)
F5 F -0.4910(2) 0.30887(5) 0.50923(16)
F6 F -0.3355(2) 0.27204(6) 0.64050(14)
C1 C 0.0266(3) 0.19287(8) 0.4370(2)
H7 H 0.0743 0.2135 0.3810
C2 C 0.1269(3) 0.15092(8) 0.4648(2)
H8 H 0.2412 0.1438 0.4273
C3 C 0.0599(3) 0.11928(8) 0.5480(2)
C4 C 0.1630(3) 0.07188(8) 0.5731(2)
C5 C -0.1069(4) 0.13204(9) 0.6051(2)
H9 H -0.1514 0.1121 0.6634
C6 C -0.2086(4) 0.17371(9) 0.5771(2)
H10 H -0.3211 0.1812 0.6162
C7 C -0.1455(3) 0.20467(8) 0.4917(2)
C8 C -0.2615(3) 0.24936(8) 0.4494(2)
C9 C -0.3697(4) 0.23246(9) 0.3416(2)
C10 C -0.4132(3) 0.26610(9) 0.5376(3)
C11 C -0.1345(3) 0.29486(8) 0.4273(2)
C12 C -0.1633(4) 0.32693(9) 0.3374(2)
H11 H -0.2499 0.3188 0.2802
C13 C -0.0655(4) 0.37060(9) 0.3319(2)
H12 H -0.0869 0.3915 0.2709
C14 C 0.0645(3) 0.38402(8) 0.4158(2)
C15 C 0.1011(3) 0.35088(8) 0.5025(2)
H13 H 0.1934 0.3583 0.5572
C16 C 0.0023(3) 0.30706(8) 0.5088(2)
H14 H 0.0276 0.2856 0.5682
C17 C 0.1590(3) 0.43337(8) 0.4148(2)
C18 C 0.6812(5) 0.07893(10) 0.3192(3)
H15 H 0.6819 0.0692 0.2408
H16 H 0.7885 0.1002 0.3337
H17 H 0.5633 0.0958 0.3357
C19 C 0.3237(5) 0.58851(11) 0.3424(4)
H18 H 0.4293 0.6064 0.3747
H19 H 0.2055 0.6057 0.3566
H20 H 0.3424 0.5853 0.2620
Mn2_2 Mn 0.5000 -0.5000 0.5000
O1B O 0.6737(2) -0.06563(6) 0.46880(16)
O2B O 0.9227(2) -0.04091(6) 0.36551(15)
O3B O 0.6903(2) -0.43885(6) 0.52864(16)
O3B_2 O 0.6903(2) 0.56115(6) 0.52864(16)
O4B O 0.9216(2) -0.46707(6) 0.64254(15)
O5B O 0.3074(3) -0.01524(8) 0.36118(16)
H1B H 0.1934 -0.0257 0.3713
H2B H 0.3613 -0.0246 0.3002
O6B O 0.3046(3) -0.03773(6) 0.61247(17)
H3B H 0.2137 -0.0181 0.6286
O7B O 0.6797(3) 0.47925(8) 0.35748(16)
H4B H 0.8018 0.4772 0.3608
H5B H 0.6269 0.4648 0.3016
O8B O 0.6851(3) 0.45662(7) 0.60967(18)
H6B H 0.7849 0.4728 0.6283
F1B F 1.4580(2) -0.18954(5) 0.64325(14)
F2B F 1.5061(2) -0.26356(6) 0.69291(16)
F3B F 1.2490(2) -0.22637(6) 0.74505(13)
F4B F 1.5599(2) -0.23463(6) 0.45103(16)
F5B F 1.4910(2) -0.30887(5) 0.49077(16)
F6B F 1.3355(2) -0.27204(6) 0.35950(14)
C1B C 0.9734(3) -0.19287(8) 0.5630(2)
H7B H 0.9257 -0.2135 0.6190
C2B C 0.8731(3) -0.15092(8) 0.5352(2)
H8B H 0.7588 -0.1438 0.5727
C3B C 0.9401(3) -0.11928(8) 0.4520(2)
C4B C 0.8370(3) -0.07188(8) 0.4269(2)
C5B C 1.1069(4) -0.13204(9) 0.3949(2)
H9B H 1.1514 -0.1121 0.3366
C6B C 1.2086(4) -0.17371(9) 0.4229(2)
H10B H 1.3211 -0.1812 0.3838
C7B C 1.1455(3) -0.20467(8) 0.5083(2)
C8B C 1.2615(3) -0.24936(8) 0.5506(2)
C9B C 1.3697(4) -0.23246(9) 0.6584(2)
C10B C 1.4132(3) -0.26610(9) 0.4624(3)
C11B C 1.1345(3) -0.29486(8) 0.5727(2)
C12B C 1.1633(4) -0.32693(9) 0.6626(2)
H11B H 1.2499 -0.3188 0.7198
C13B C 1.0655(4) -0.37060(9) 0.6681(2)
H12B H 1.0869 -0.3915 0.7291
C14B C 0.9355(3) -0.38402(8) 0.5842(2)
C15B C 0.8989(3) -0.35088(8) 0.4975(2)
H13B H 0.8066 -0.3583 0.4428
C16B C 0.9977(3) -0.30706(8) 0.4912(2)
H14B H 0.9724 -0.2856 0.4318
C17B C 0.8410(3) -0.43337(8) 0.5852(2)
C18B C 0.3188(5) -0.07893(10) 0.6808(3)
H15B H 0.3181 -0.0692 0.7592
H16B H 0.2115 -0.1002 0.6663
H17B H 0.4367 -0.0958 0.6643
C19B C 0.6763(5) 0.41149(11) 0.6576(4)
H18B H 0.5707 0.3936 0.6253
H19B H 0.7945 0.3943 0.6434
H20B H 0.6576 0.4147 0.7380
loop_
_geom_bond_atom_site_label_1
_geom_bond_atom_site_label_2
_geom_bond_site_symmetry_1
_geom_bond_site_symmetry_2
Mn1 O1 1_555 1_555
Mn2 O3 1_555 1_555
O1 C4 1_555 1_555
O2 C4 1_555 1_555
O3 C17 1_555 1_555
O4 C17 1_555 1_555
O5 Mn1 1_555 1_555
H1 O5 1_555 1_555
H2 O5 1_555 1_555
O6 Mn1 1_555 1_555
H3 O6 1_555 1_555
O7 Mn2 1_555 1_555
H4 O7 1_555 1_555
H5 O7 1_555 1_555
O8 Mn2 1_555 1_555
H6 O8 1_555 1_555
F1 C9 1_555 1_555
F2 C9 1_555 1_555
F3 C9 1_555 1_555
F4 C10 1_555 1_555
F5 C10 1_555 1_555
F6 C10 1_555 1_555
C1 H7 1_555 1_555
C2 C1 1_555 1_555
H8 C2 1_555 1_555
C3 C2 1_555 1_555
C4 C3 1_555 1_555
C5 C3 1_555 1_555
H9 C5 1_555 1_555
C6 C5 1_555 1_555
H10 C6 1_555 1_555
C7 C1 1_555 1_555
C8 C7 1_555 1_555
C9 C8 1_555 1_555
C10 C8 1_555 1_555
C11 C8 1_555 1_555
C12 C11 1_555 1_555
H11 C12 1_555 1_555
C13 C12 1_555 1_555
H12 C13 1_555 1_555
C14 C13 1_555 1_555
C15 C14 1_555 1_555
H13 C15 1_555 1_555
C16 C11 1_555 1_555
H14 C16 1_555 1_555
C17 C14 1_555 1_555
C18 O6 1_555 1_555
H15 C18 1_555 1_555
H16 C18 1_555 1_555
H17 C18 1_555 1_555
C19 O8 1_555 1_555
H18 C19 1_555 1_555
H19 C19 1_555 1_555
H20 C19 1_555 1_555
Mn2_2 O3B 1_555 1_555
O1B Mn1 1_555 1_555
O2B C4B 1_555 1_555
O3B C17B 1_555 1_555
O3B_2 Mn2 1_555 1_555
O4B C17B 1_555 1_555
O5B Mn1 1_555 1_555
H1B O5B 1_555 1_555
H2B O5B 1_555 1_555
O6B Mn1 1_555 1_555
H3B O6B 1_555 1_555
O7B Mn2 1_555 1_555
H4B O7B 1_555 1_555
H5B O7B 1_555 1_555
O8B Mn2 1_555 1_555
H6B O8B 1_555 1_555
F1B C9B 1_555 1_555
F2B C9B 1_555 1_555
F3B C9B 1_555 1_555
F4B C10B 1_555 1_555
F5B C10B 1_555 1_555
F6B C10B 1_555 1_555
C1B H7B 1_555 1_555
C2B C1B 1_555 1_555
H8B C2B 1_555 1_555
C3B C2B 1_555 1_555
C4B O1B 1_555 1_555
C5B C3B 1_555 1_555
H9B C5B 1_555 1_555
C6B C5B 1_555 1_555
H10B C6B 1_555 1_555
C7B C1B 1_555 1_555
C8B C7B 1_555 1_555
C9B C8B 1_555 1_555
C10B C8B 1_555 1_555
C11B C8B 1_555 1_555
C12B C11B 1_555 1_555
H11B C12B 1_555 1_555
C13B C12B 1_555 1_555
H12B C13B 1_555 1_555
C14B C13B 1_555 1_555
C15B C14B 1_555 1_555
H13B C15B 1_555 1_555
C16B C11B 1_555 1_555
H14B C16B 1_555 1_555
C17B C14B 1_555 1_555
C18B O6B 1_555 1_555
H15B C18B 1_555 1_555
H16B C18B 1_555 1_555
H17B C18B 1_555 1_555
C19B O8B 1_555 1_555
H18B C19B 1_555 1_555
H19B C19B 1_555 1_555
H20B C19B 1_555 1_555
C6 C7 1_555 1_555
C15 C16 1_555 1_555
C3B C4B 1_555 1_555
C6B C7B 1_555 1_555
C15B C16B 1_555 1_555

#END
