
#######################################################################
#
#                 Cambridge Crystallographic Data Centre
#                                CCDC 
#
#######################################################################
#
# If this CIF has been generated from an entry in the Cambridge 
# Structural Database, then it will include bibliographic, chemical, 
# crystal, experimental, refinement or atomic coordinate data resulting 
# from the CCDC's data processing and validation procedures.
#
#######################################################################

data_VUKGIS
_symmetry_cell_setting           triclinic
_symmetry_space_group_name_H-M   'P -1'
_symmetry_Int_Tables_number      2
_space_group_name_Hall           '-P 1'
loop_
_symmetry_equiv_pos_site_id
_symmetry_equiv_pos_as_xyz
1 x,y,z
2 -x,-y,-z
_cell_length_a                   7.6637(14)
_cell_length_b                   7.8319(14)
_cell_length_c                   10.2543(18)
_cell_angle_alpha                71.048(3)
_cell_angle_beta                 83.663(3)
_cell_angle_gamma                77.074(3)
_cell_volume                     566.886
loop_
_atom_site_label
_atom_site_type_symbol
_atom_site_fract_x
_atom_site_fract_y
_atom_site_fract_z
Cu1 Cu 0.5000 1.0000 0.5000
N1 N 0.4063(3) 0.8256(3) 0.4312(2)
O1 O 0.2921(3) 0.2506(3) 0.3504(2)
O2 O 0.0078(3) 0.4600(3) 0.2985(2)
O3 O 0.2514(3) 0.4798(3) 0.1265(2)
O4 O 0.3083(3) 0.9863(3) 0.65023(19)
S1 S 0.19912(10) 0.43089(9) 0.27194(7)
S2 S 0.30678(11) 0.82541(9) 0.78372(7)
C1 C 0.2323(4) 0.8175(4) 0.4449(3)
H1 H 0.1548 0.8938 0.4885
C2 C 0.1623(4) 0.7021(4) 0.3980(3)
H2 H 0.0405 0.7008 0.4096
C3 C 0.2766(4) 0.5883(3) 0.3333(3)
C4 C 0.4563(4) 0.5967(4) 0.3169(3)
H3 H 0.5359 0.5236 0.2720
C5 C 0.5159(4) 0.7147(4) 0.3680(3)
H4 H 0.6374 0.7177 0.3582
C6 C 0.4137(5) 0.8785(5) 0.9065(3)
H5 H 0.5356 0.8852 0.8758
H6 H 0.4115 0.7841 0.9939
H7 H 0.3517 0.9949 0.9162
C7 C 0.0831(5) 0.8676(6) 0.8484(4)
H8 H 0.0520 0.9906 0.8545
H9 H 0.0715 0.7810 0.9384
H10 H 0.0043 0.8541 0.7875
Cu1_2 Cu 0.5000 0.0000 0.5000
Cu1_3 Cu 0.5000 2.0000 0.5000
N1A N 0.5937(3) 1.1744(3) 0.5688(2)
O1A O 0.7079(3) 1.7494(3) 0.6496(2)
O1_2 O 0.2921(3) 1.2506(3) 0.3504(2)
O1A_2 O 0.7079(3) 0.7494(3) 0.6496(2)
O2A O 0.9922(3) 1.5400(3) 0.7015(2)
O3A O 0.7486(3) 1.5202(3) 0.8735(2)
O4A O 0.6917(3) 1.0137(3) 0.34977(19)
S1A S 0.80088(10) 1.56911(9) 0.72806(7)
S2A S 0.69322(11) 1.17459(9) 0.21628(7)
C1A C 0.7677(4) 1.1825(4) 0.5551(3)
H1A H 0.8452 1.1062 0.5115
C2A C 0.8377(4) 1.2979(4) 0.6020(3)
H2A H 0.9595 1.2992 0.5904
C3A C 0.7234(4) 1.4117(3) 0.6667(3)
C4A C 0.5437(4) 1.4033(4) 0.6831(3)
H3A H 0.4641 1.4764 0.7280
C5A C 0.4841(4) 1.2853(4) 0.6320(3)
H4A H 0.3626 1.2823 0.6418
C6A C 0.5863(5) 1.1215(5) 0.0935(3)
H5A H 0.4644 1.1148 0.1242
H6A H 0.5885 1.2159 0.0061
H7A H 0.6483 1.0051 0.0838
C7A C 0.9169(5) 1.1324(6) 0.1516(4)
H8A H 0.9480 1.0094 0.1455
H9A H 0.9285 1.2190 0.0616
H10A H 0.9957 1.1459 0.2125
O5 O 0.2172(4) 0.3134(4) 0.9183(3)
H11 H 0.223(5) 0.373(6) 0.979(5)
H12 H 0.138(7) 0.394(7) 0.857(5)
loop_
_geom_bond_atom_site_label_1
_geom_bond_atom_site_label_2
_geom_bond_site_symmetry_1
_geom_bond_site_symmetry_2
Cu1 N1 1_555 1_555
N1 C1 1_555 1_555
O1 S1 1_555 1_555
O2 S1 1_555 1_555
O3 S1 1_555 1_555
O4 Cu1 1_555 1_555
S1 C3 1_555 1_555
S2 O4 1_555 1_555
C1 H1 1_555 1_555
C2 C1 1_555 1_555
H2 C2 1_555 1_555
C3 C2 1_555 1_555
C4 C3 1_555 1_555
H3 C4 1_555 1_555
C5 N1 1_555 1_555
H4 C5 1_555 1_555
C6 S2 1_555 1_555
H5 C6 1_555 1_555
H6 C6 1_555 1_555
H7 C6 1_555 1_555
C7 S2 1_555 1_555
H8 C7 1_555 1_555
H9 C7 1_555 1_555
H10 C7 1_555 1_555
O5 H11 1_555 1_555
H12 O5 1_555 1_555
Cu1_2 O1 1_555 1_555
Cu1_3 O1A 1_555 1_555
N1A Cu1 1_555 1_555
O1A S1A 1_555 1_555
O1_2 Cu1 1_555 1_555
O1A_2 Cu1 1_555 1_555
O2A S1A 1_555 1_555
O3A S1A 1_555 1_555
O4A Cu1 1_555 1_555
S1A C3A 1_555 1_555
S2A O4A 1_555 1_555
C1A N1A 1_555 1_555
H1A C1A 1_555 1_555
C2A C1A 1_555 1_555
H2A C2A 1_555 1_555
C3A C2A 1_555 1_555
C4A C3A 1_555 1_555
H3A C4A 1_555 1_555
C5A N1A 1_555 1_555
H4A C5A 1_555 1_555
C6A S2A 1_555 1_555
H5A C6A 1_555 1_555
H6A C6A 1_555 1_555
H7A C6A 1_555 1_555
C7A S2A 1_555 1_555
H8A C7A 1_555 1_555
H9A C7A 1_555 1_555
H10A C7A 1_555 1_555
C4 C5 1_555 1_555
C4A C5A 1_555 1_555

#END
