
#######################################################################
#
#                 Cambridge Crystallographic Data Centre
#                                CCDC 
#
#######################################################################
#
# If this CIF has been generated from an entry in the Cambridge 
# Structural Database, then it will include bibliographic, chemical, 
# crystal, experimental, refinement or atomic coordinate data resulting 
# from the CCDC's data processing and validation procedures.
#
#######################################################################

data_VUKGEO
_symmetry_cell_setting           orthorhombic
_symmetry_space_group_name_H-M   'A b a 2'
_symmetry_Int_Tables_number      41
_space_group_name_Hall           'A 2 -2ab'
loop_
_symmetry_equiv_pos_site_id
_symmetry_equiv_pos_as_xyz
1 x,y,z
2 -x,-y,z
3 1/2+x,1/2-y,z
4 1/2-x,1/2+y,z
5 x,1/2+y,1/2+z
6 -x,1/2-y,1/2+z
7 1/2+x,-y,1/2+z
8 1/2-x,y,1/2+z
_cell_length_a                   20.144(2)
_cell_length_b                   16.6614(17)
_cell_length_c                   10.5603(11)
_cell_angle_alpha                90
_cell_angle_beta                 90
_cell_angle_gamma                90
_cell_volume                     3544.32
loop_
_atom_site_label
_atom_site_type_symbol
_atom_site_fract_x
_atom_site_fract_y
_atom_site_fract_z
Cu1 Cu 0.5000 0.0000 0.27981(8)
S1 S 0.72774(6) 0.00663(10) -0.16210(11)
S2 S 0.71291(7) 0.10157(8) -0.27830(12)
S3 S 0.44080(7) 0.21869(9) 0.24506(14)
N1 N 0.5699(2) 0.0143(3) 0.1465(4)
N2 N 0.5679(2) 0.0267(3) -0.5854(4)
C1 C 0.5631(3) 0.0586(3) 0.0411(5)
H1 H 0.5249 0.0896 0.0331
C2 C 0.6087(3) 0.0615(3) -0.0562(5)
H2 H 0.6020 0.0936 -0.1271
C3 C 0.6646(3) 0.0148(3) -0.0437(5)
C4 C 0.6738(2) -0.0296(3) 0.0626(4)
H3 H 0.7123 -0.0598 0.0726
C5 C 0.6258(2) -0.0296(3) 0.1554(5)
H4 H 0.6323 -0.0611 0.2270
C6 C 0.6560(2) 0.0666(3) -0.3933(4)
C7 C 0.6238(3) -0.0067(3) -0.3933(5)
H5 H 0.6320 -0.0441 -0.3298
C8 C 0.5800(3) -0.0233(3) -0.4878(5)
H6 H 0.5571 -0.0718 -0.4848
C9 C 0.5994(3) 0.0967(3) -0.5866(5)
H7 H 0.5912 0.1319 -0.6531
C10 C 0.6435(2) 0.1195(3) -0.4942(5)
H8 H 0.6647 0.1690 -0.4983
O1 O 0.47677(17) 0.2932(2) 0.2597(5)
O2 O 0.47906(15) 0.14723(19) 0.2726(4)
O3 O 0.4060(2) 0.2139(3) 0.1262(4)
C11 C 0.3793(3) 0.2180(3) 0.3634(5)
C12 C 0.3127(3) 0.2062(3) 0.3349(5)
H9 H 0.2997 0.1996 0.2510
C13 C 0.2658(3) 0.2042(4) 0.4291(8)
H10 H 0.2216 0.1955 0.4072
N3 N 0.2809(3) 0.2142(4) 0.5495(7)
C14 C 0.3445(4) 0.2265(4) 0.5783(7)
H11 H 0.3556 0.2335 0.6631
C15 C 0.3956(3) 0.2296(4) 0.4886(6)
H12 H 0.4392 0.2391 0.5129
Cu1_2 Cu 0.5000 0.0000 -0.72019(8)
S1A S 0.27226(6) -0.00663(10) -0.16210(11)
S2A S 0.28709(7) -0.10157(8) -0.27830(12)
S3A S 0.55920(7) -0.21869(9) 0.24506(14)
N1A N 0.4301(2) -0.0143(3) 0.1465(4)
N2A N 0.4321(2) -0.0267(3) -0.5854(4)
N2_2 N 0.5679(2) 0.0267(3) 0.4146(4)
N2A_2 N 0.4321(2) -0.0267(3) 0.4146(4)
C1A C 0.4369(3) -0.0586(3) 0.0411(5)
H1A H 0.4751 -0.0896 0.0331
C2A C 0.3913(3) -0.0615(3) -0.0562(5)
H2A H 0.3980 -0.0936 -0.1271
C3A C 0.3354(3) -0.0148(3) -0.0437(5)
C4A C 0.3262(2) 0.0296(3) 0.0626(4)
H3A H 0.2877 0.0598 0.0726
C5A C 0.3742(2) 0.0296(3) 0.1554(5)
H4A H 0.3677 0.0611 0.2270
C6A C 0.3440(2) -0.0666(3) -0.3933(4)
C7A C 0.3762(3) 0.0067(3) -0.3933(5)
H5A H 0.3680 0.0441 -0.3298
C8A C 0.4200(3) 0.0233(3) -0.4878(5)
H6A H 0.4429 0.0718 -0.4848
C9A C 0.4006(3) -0.0967(3) -0.5866(5)
H7A H 0.4088 -0.1319 -0.6531
C10A C 0.3565(2) -0.1195(3) -0.4942(5)
H8A H 0.3353 -0.1690 -0.4983
O1A O 0.52323(17) -0.2932(2) 0.2597(5)
O2A O 0.52094(15) -0.14723(19) 0.2726(4)
O3A O 0.5940(2) -0.2139(3) 0.1262(4)
C11A C 0.6207(3) -0.2180(3) 0.3634(5)
C12A C 0.6873(3) -0.2062(3) 0.3349(5)
H9A H 0.7003 -0.1996 0.2510
C13A C 0.7342(3) -0.2042(4) 0.4291(8)
H10A H 0.7784 -0.1955 0.4072
N3A N 0.7191(3) -0.2142(4) 0.5495(7)
C14A C 0.6555(4) -0.2265(4) 0.5783(7)
H11A H 0.6444 -0.2335 0.6631
C15A C 0.6044(3) -0.2296(4) 0.4886(6)
H12A H 0.5608 -0.2391 0.5129
O4 O 0.4050(2) 0.1648(3) 0.8704(5)
loop_
_geom_bond_atom_site_label_1
_geom_bond_atom_site_label_2
_geom_bond_site_symmetry_1
_geom_bond_site_symmetry_2
Cu1 N1 1_555 1_555
S1 S2 1_555 1_555
S2 C6 1_555 1_555
S3 O1 1_555 1_555
N1 C1 1_555 1_555
N2 C8 1_555 1_555
C1 H1 1_555 1_555
C2 C1 1_555 1_555
H2 C2 1_555 1_555
C3 S1 1_555 1_555
C4 C3 1_555 1_555
H3 C4 1_555 1_555
C5 N1 1_555 1_555
H4 C5 1_555 1_555
C6 C7 1_555 1_555
C7 H5 1_555 1_555
C8 C7 1_555 1_555
H6 C8 1_555 1_555
C9 N2 1_555 1_555
H7 C9 1_555 1_555
C10 C6 1_555 1_555
H8 C10 1_555 1_555
O2 Cu1 1_555 1_555
O3 S3 1_555 1_555
C11 S3 1_555 1_555
C12 C11 1_555 1_555
H9 C12 1_555 1_555
C13 C12 1_555 1_555
H10 C13 1_555 1_555
N3 C13 1_555 1_555
C14 N3 1_555 1_555
H11 C14 1_555 1_555
C15 C11 1_555 1_555
H12 C15 1_555 1_555
Cu1_2 N2 1_555 1_555
S1A S2A 1_555 1_555
S2A C6A 1_555 1_555
S3A O1A 1_555 1_555
N1A Cu1 1_555 1_555
N2A Cu1_2 1_555 1_555
N2_2 Cu1 1_555 1_555
N2A_2 Cu1 1_555 1_555
C1A N1A 1_555 1_555
H1A C1A 1_555 1_555
C2A C1A 1_555 1_555
H2A C2A 1_555 1_555
C3A S1A 1_555 1_555
C4A C3A 1_555 1_555
H3A C4A 1_555 1_555
C5A N1A 1_555 1_555
H4A C5A 1_555 1_555
C6A C7A 1_555 1_555
C7A H5A 1_555 1_555
C8A N2A 1_555 1_555
H6A C8A 1_555 1_555
C9A N2A 1_555 1_555
H7A C9A 1_555 1_555
C10A C6A 1_555 1_555
H8A C10A 1_555 1_555
O2A Cu1 1_555 1_555
O3A S3A 1_555 1_555
C11A S3A 1_555 1_555
C12A C11A 1_555 1_555
H9A C12A 1_555 1_555
C13A C12A 1_555 1_555
H10A C13A 1_555 1_555
N3A C13A 1_555 1_555
C14A N3A 1_555 1_555
H11A C14A 1_555 1_555
C15A C11A 1_555 1_555
H12A C15A 1_555 1_555
S3 O2 1_555 1_555
C2 C3 1_555 1_555
C4 C5 1_555 1_555
C9 C10 1_555 1_555
C14 C15 1_555 1_555
S3A O2A 1_555 1_555
C2A C3A 1_555 1_555
C4A C5A 1_555 1_555
C7A C8A 1_555 1_555
C9A C10A 1_555 1_555
C14A C15A 1_555 1_555

#END
