
#######################################################################
#
#                 Cambridge Crystallographic Data Centre
#                                CCDC 
#
#######################################################################
#
# If this CIF has been generated from an entry in the Cambridge 
# Structural Database, then it will include bibliographic, chemical, 
# crystal, experimental, refinement or atomic coordinate data resulting 
# from the CCDC's data processing and validation procedures.
#
#######################################################################

data_VUKGUE
_symmetry_cell_setting           monoclinic
_symmetry_space_group_name_H-M   'P 21/n'
_symmetry_Int_Tables_number      14
_space_group_name_Hall           '-P 2yn'
loop_
_symmetry_equiv_pos_site_id
_symmetry_equiv_pos_as_xyz
1 x,y,z
2 1/2-x,1/2+y,1/2-z
3 -x,-y,-z
4 1/2+x,1/2-y,1/2+z
_cell_length_a                   6.877(5)
_cell_length_b                   27.252(18)
_cell_length_c                   11.664(8)
_cell_angle_alpha                90
_cell_angle_beta                 90.052(3)
_cell_angle_gamma                90
_cell_volume                     2185.97
loop_
_atom_site_label
_atom_site_type_symbol
_atom_site_fract_x
_atom_site_fract_y
_atom_site_fract_z
Co1 Co 0.5000 0.0000 0.5000
Co2 Co 0.5000 0.5000 0.5000
F1 F 1.5149(3) 0.26390(7) 0.3114(2)
F2 F 1.4649(3) 0.18931(7) 0.36038(18)
F3 F 1.2548(3) 0.22653(8) 0.25672(17)
F4 F 1.5653(3) 0.23436(7) 0.55537(19)
F5 F 1.3380(3) 0.27192(7) 0.64728(18)
F6 F 1.4965(3) 0.30918(7) 0.5159(2)
O1 O 0.9264(3) 0.03835(7) 0.63395(19)
O2 O 0.6733(3) 0.06372(7) 0.5300(2)
O3 O 0.6870(3) 0.44023(8) 0.4716(2)
O4 O 0.9253(3) 0.46897(7) 0.35933(19)
O5 O 0.3190(3) 0.01427(9) 0.6360(2)
H1 H 0.1997 0.0207 0.6246
H2 H 0.3668 0.0243 0.6990
O6 O 0.3091(3) 0.03829(8) 0.3961(2)
H3 H 0.2272 0.0183 0.3681
O7 O 0.6709(3) 0.51841(10) 0.6394(2)
H4 H 0.7935 0.5217 0.6346
H5 H 0.6166 0.5315 0.6973
O8 O 0.6816(4) 0.54275(9) 0.3977(2)
H6 H 0.7715 0.5233 0.3768
C1 C 0.8378(5) 0.06995(11) 0.5724(3)
C2 C 0.9415(4) 0.11793(11) 0.5497(3)
C3 C 0.8745(4) 0.14985(11) 0.4654(3)
H7 H 0.7604 0.1425 0.4264
C4 C 0.9741(4) 0.19222(11) 0.4387(3)
H8 H 0.9263 0.2130 0.3820
C5 C 1.1458(4) 0.20437(10) 0.4959(3)
C6 C 1.2100(5) 0.17318(11) 0.5819(3)
H9 H 1.3231 0.1806 0.6219
C7 C 1.1071(5) 0.13103(11) 0.6088(3)
H10 H 1.1508 0.1111 0.6681
C8 C 1.2651(4) 0.24936(11) 0.4536(3)
C9 C 1.4172(5) 0.26611(12) 0.5437(3)
C10 C 1.3754(5) 0.23264(12) 0.3451(3)
C11 C 1.1372(4) 0.29543(10) 0.4308(3)
C12 C 0.9989(4) 0.30796(11) 0.5128(3)
H11 H 0.9724 0.2864 0.5726
C13 C 0.9000(4) 0.35229(11) 0.5064(3)
H12 H 0.8074 0.3600 0.5616
C14 C 0.9378(4) 0.38525(11) 0.4183(3)
C15 C 1.0700(5) 0.37154(11) 0.3340(3)
H13 H 1.0927 0.3925 0.2724
C16 C 1.1683(5) 0.32741(11) 0.3400(3)
H14 H 1.2562 0.3190 0.2827
C17 C 0.8419(5) 0.43497(11) 0.4166(3)
C18 C 0.3375(6) 0.07846(13) 0.3231(4)
H15 H 0.4533 0.0957 0.3452
H16 H 0.2279 0.1002 0.3283
H17 H 0.3506 0.0671 0.2456
C19 C 0.6594(6) 0.58676(14) 0.3440(4)
H18 H 0.6450 0.5815 0.2631
H19 H 0.7717 0.6068 0.3579
H20 H 0.5458 0.6030 0.3732
Co2_2 Co 0.5000 -0.5000 0.5000
F1B F -0.5149(3) -0.26390(7) 0.6886(2)
F2B F -0.4649(3) -0.18931(7) 0.63962(18)
F3B F -0.2548(3) -0.22653(8) 0.74328(17)
F4B F -0.5653(3) -0.23436(7) 0.44463(19)
F5B F -0.3380(3) -0.27192(7) 0.35272(18)
F6B F -0.4965(3) -0.30918(7) 0.4841(2)
O1B O 0.0736(3) -0.03835(7) 0.36605(19)
O2B O 0.3267(3) -0.06372(7) 0.4700(2)
O3B O 0.3130(3) -0.44023(8) 0.5284(2)
O3B_2 O 0.3130(3) 0.55977(8) 0.5284(2)
O4B O 0.0747(3) -0.46897(7) 0.64067(19)
O5B O 0.6810(3) -0.01427(9) 0.3640(2)
H1B H 0.8003 -0.0207 0.3754
H2B H 0.6332 -0.0243 0.3010
O6B O 0.6909(3) -0.03829(8) 0.6039(2)
H3B H 0.7728 -0.0183 0.6319
O7B O 0.3291(3) 0.48159(10) 0.3606(2)
H4B H 0.2065 0.4783 0.3654
H5B H 0.3834 0.4685 0.3027
O8B O 0.3184(4) 0.45725(9) 0.6023(2)
H6B H 0.2285 0.4767 0.6232
C1B C 0.1622(5) -0.06995(11) 0.4276(3)
C2B C 0.0585(4) -0.11793(11) 0.4503(3)
C3B C 0.1255(4) -0.14985(11) 0.5346(3)
H7B H 0.2396 -0.1425 0.5736
C4B C 0.0259(4) -0.19222(11) 0.5613(3)
H8B H 0.0737 -0.2130 0.6180
C5B C -0.1458(4) -0.20437(10) 0.5041(3)
C6B C -0.2100(5) -0.17318(11) 0.4181(3)
H9B H -0.3231 -0.1806 0.3781
C7B C -0.1071(5) -0.13103(11) 0.3912(3)
H10B H -0.1508 -0.1111 0.3319
C8B C -0.2651(4) -0.24936(11) 0.5464(3)
C9B C -0.4172(5) -0.26611(12) 0.4563(3)
C10B C -0.3754(5) -0.23264(12) 0.6549(3)
C11B C -0.1372(4) -0.29543(10) 0.5692(3)
C12B C 0.0011(4) -0.30796(11) 0.4872(3)
H11B H 0.0276 -0.2864 0.4274
C13B C 0.1000(4) -0.35229(11) 0.4936(3)
H12B H 0.1926 -0.3600 0.4384
C14B C 0.0622(4) -0.38525(11) 0.5817(3)
C15B C -0.0700(5) -0.37154(11) 0.6660(3)
H13B H -0.0927 -0.3925 0.7276
C16B C -0.1683(5) -0.32741(11) 0.6600(3)
H14B H -0.2562 -0.3190 0.7173
C17B C 0.1581(5) -0.43497(11) 0.5834(3)
C18B C 0.6625(6) -0.07846(13) 0.6769(4)
H15B H 0.5467 -0.0957 0.6548
H16B H 0.7721 -0.1002 0.6717
H17B H 0.6494 -0.0671 0.7544
C19B C 0.3406(6) 0.41324(14) 0.6560(4)
H18B H 0.3550 0.4185 0.7369
H19B H 0.2283 0.3932 0.6421
H20B H 0.4542 0.3970 0.6268
loop_
_geom_bond_atom_site_label_1
_geom_bond_atom_site_label_2
_geom_bond_site_symmetry_1
_geom_bond_site_symmetry_2
Co1 O2 1_555 1_555
Co2 O3 1_555 1_555
F1 C10 1_555 1_555
F2 C10 1_555 1_555
F3 C10 1_555 1_555
F4 C9 1_555 1_555
F5 C9 1_555 1_555
F6 C9 1_555 1_555
O1 C1 1_555 1_555
O2 C1 1_555 1_555
O3 C17 1_555 1_555
O4 C17 1_555 1_555
O5 Co1 1_555 1_555
H1 O5 1_555 1_555
H2 O5 1_555 1_555
O6 Co1 1_555 1_555
H3 O6 1_555 1_555
O7 Co2 1_555 1_555
H4 O7 1_555 1_555
H5 O7 1_555 1_555
O8 Co2 1_555 1_555
H6 O8 1_555 1_555
C1 C2 1_555 1_555
C2 C3 1_555 1_555
C3 H7 1_555 1_555
C4 C3 1_555 1_555
H8 C4 1_555 1_555
C5 C4 1_555 1_555
C6 C5 1_555 1_555
H9 C6 1_555 1_555
C7 C2 1_555 1_555
H10 C7 1_555 1_555
C8 C5 1_555 1_555
C9 C8 1_555 1_555
C10 C8 1_555 1_555
C11 C8 1_555 1_555
C12 C11 1_555 1_555
H11 C12 1_555 1_555
C13 C12 1_555 1_555
H12 C13 1_555 1_555
C14 C13 1_555 1_555
C15 C14 1_555 1_555
H13 C15 1_555 1_555
C16 C11 1_555 1_555
H14 C16 1_555 1_555
C17 C14 1_555 1_555
C18 O6 1_555 1_555
H15 C18 1_555 1_555
H16 C18 1_555 1_555
H17 C18 1_555 1_555
C19 O8 1_555 1_555
H18 C19 1_555 1_555
H19 C19 1_555 1_555
H20 C19 1_555 1_555
Co2_2 O3B 1_555 1_555
F1B C10B 1_555 1_555
F2B C10B 1_555 1_555
F3B C10B 1_555 1_555
F4B C9B 1_555 1_555
F5B C9B 1_555 1_555
F6B C9B 1_555 1_555
O1B C1B 1_555 1_555
O2B Co1 1_555 1_555
O3B C17B 1_555 1_555
O3B_2 Co2 1_555 1_555
O4B C17B 1_555 1_555
O5B Co1 1_555 1_555
H1B O5B 1_555 1_555
H2B O5B 1_555 1_555
O6B Co1 1_555 1_555
H3B O6B 1_555 1_555
O7B Co2 1_555 1_555
H4B O7B 1_555 1_555
H5B O7B 1_555 1_555
O8B Co2 1_555 1_555
H6B O8B 1_555 1_555
C1B O2B 1_555 1_555
C2B C1B 1_555 1_555
C3B C2B 1_555 1_555
H7B C3B 1_555 1_555
C4B C3B 1_555 1_555
H8B C4B 1_555 1_555
C5B C4B 1_555 1_555
C6B C5B 1_555 1_555
H9B C6B 1_555 1_555
C7B C2B 1_555 1_555
H10B C7B 1_555 1_555
C8B C5B 1_555 1_555
C9B C8B 1_555 1_555
C10B C8B 1_555 1_555
C11B C8B 1_555 1_555
C12B C11B 1_555 1_555
H11B C12B 1_555 1_555
C13B C12B 1_555 1_555
H12B C13B 1_555 1_555
C14B C13B 1_555 1_555
C15B C14B 1_555 1_555
H13B C15B 1_555 1_555
C16B C11B 1_555 1_555
H14B C16B 1_555 1_555
C17B C14B 1_555 1_555
C18B O6B 1_555 1_555
H15B C18B 1_555 1_555
H16B C18B 1_555 1_555
H17B C18B 1_555 1_555
C19B O8B 1_555 1_555
H18B C19B 1_555 1_555
H19B C19B 1_555 1_555
H20B C19B 1_555 1_555
C6 C7 1_555 1_555
C15 C16 1_555 1_555
C6B C7B 1_555 1_555
C15B C16B 1_555 1_555

#END
