
#######################################################################
#
#                 Cambridge Crystallographic Data Centre
#                                CCDC 
#
#######################################################################
#
# If this CIF has been generated from an entry in the Cambridge 
# Structural Database, then it will include bibliographic, chemical, 
# crystal, experimental, refinement or atomic coordinate data resulting 
# from the CCDC's data processing and validation procedures.
#
#######################################################################

data_VUKGAK
_symmetry_cell_setting           monoclinic
_symmetry_space_group_name_H-M   'C 2/c'
_symmetry_Int_Tables_number      15
_space_group_name_Hall           '-C 2yn'
loop_
_symmetry_equiv_pos_site_id
_symmetry_equiv_pos_as_xyz
1 x,y,z
2 -x,y,1/2-z
3 1/2+x,1/2+y,z
4 1/2-x,1/2+y,1/2-z
5 -x,-y,-z
6 x,-y,1/2+z
7 1/2-x,1/2-y,-z
8 1/2+x,1/2-y,1/2+z
_cell_length_a                   18.9365(13)
_cell_length_b                   10.7022(7)
_cell_length_c                   20.3222(14)
_cell_angle_alpha                90
_cell_angle_beta                 114.901(1)
_cell_angle_gamma                90
_cell_volume                     3735.67
loop_
_atom_site_label
_atom_site_type_symbol
_atom_site_fract_x
_atom_site_fract_y
_atom_site_fract_z
Cu1 Cu 0.0000 0.18283(3) 0.2500
S1 S 0.08605(4) 0.62335(5) 0.49837(3)
S2 S -0.00580(4) 0.74077(5) 0.47291(4)
N1 N 0.01887(11) 0.31789(16) 0.32652(10)
N2 N 0.01003(10) 1.04825(15) 0.32486(10)
O1 O 0.13697(11) 0.1804(2) 0.28471(13)
C1 C -0.02851(13) 0.4172(2) 0.31567(13)
H1 H -0.0739 0.4211 0.2730
C2 C -0.01258(13) 0.5130(2) 0.36502(13)
H2 H -0.0466 0.5803 0.3555
C3 C 0.05456(13) 0.50840(19) 0.42911(12)
C4 C 0.10356(13) 0.40527(19) 0.44154(13)
H3 H 0.1488 0.3986 0.4842
C5 C 0.08368(13) 0.3141(2) 0.38951(13)
H4 H 0.1167 0.2457 0.3981
C6 C 0.00551(13) 0.85603(19) 0.41562(12)
C7 C -0.03607(13) 0.9664(2) 0.40873(12)
H5 H -0.0660 0.9775 0.4347
C8 C -0.03245(13) 1.0582(2) 0.36335(12)
H6 H -0.0608 1.1311 0.3590
C9 C 0.05120(13) 0.94232(19) 0.33313(13)
H7 H 0.0818 0.9342 0.3077
C10 C 0.05035(13) 0.84528(19) 0.37740(13)
H8 H 0.0796 0.7736 0.3814
H9 H 0.1680(17) 0.128(3) 0.3094(17)
H10 H 0.1535(14) 0.204(2) 0.2595(14)
Cu1_2 Cu 0.0000 1.18283(3) 0.2500
S1A S -0.08605(4) 0.62335(5) 0.00163(3)
S2A S 0.00580(4) 0.74077(5) 0.02709(4)
N1A N -0.01887(11) 0.31789(16) 0.17348(10)
N2_2 N 0.01003(10) 0.04825(15) 0.32486(10)
N2A N -0.01003(10) 0.04825(15) 0.17514(10)
N2A_2 N -0.01003(10) 1.04825(15) 0.17514(10)
O1A O -0.13697(11) 0.1804(2) 0.21529(13)
C1A C 0.02851(13) 0.4172(2) 0.18433(13)
H1A H 0.0739 0.4211 0.2270
C2A C 0.01258(13) 0.5130(2) 0.13498(13)
H2A H 0.0466 0.5803 0.1445
C3A C -0.05456(13) 0.50840(19) 0.07089(12)
C4A C -0.10356(13) 0.40527(19) 0.05846(13)
H3A H -0.1488 0.3986 0.0158
C5A C -0.08368(13) 0.3141(2) 0.11049(13)
H4A H -0.1167 0.2457 0.1019
C6A C -0.00551(13) 0.85603(19) 0.08438(12)
C7A C 0.03607(13) 0.9664(2) 0.09127(12)
H5A H 0.0660 0.9775 0.0653
C8A C 0.03245(13) 1.0582(2) 0.13665(12)
H6A H 0.0608 1.1311 0.1410
C9A C -0.05120(13) 0.94232(19) 0.16687(13)
H7A H -0.0818 0.9342 0.1923
C10A C -0.05035(13) 0.84528(19) 0.12260(13)
H8A H -0.0796 0.7736 0.1186
H9A H -0.1680(17) 0.128(3) 0.1906(17)
H10A H -0.1535(14) 0.204(2) 0.2405(14)
S3 S 0.27351(4) 0.80720(7) 0.69609(4)
O2 O 0.19992(11) 0.75206(16) 0.68817(10)
O3 O 0.31676(12) 0.8639(2) 0.76670(12)
O4 O 0.31677(14) 0.7223(2) 0.67322(15)
N3 N 0.19685(16) 1.1236(3) 0.5305(2)
C11 C 0.21442(18) 1.1431(3) 0.5992(2)
H11 H 0.2095 1.2241 0.6134
C12 C 0.23966(16) 1.0519(3) 0.65224(18)
H12 H 0.2518 1.0715 0.7004
C13 C 0.24636(14) 0.9311(2) 0.63189(15)
C14 C 0.22893(17) 0.9078(3) 0.56022(18)
H13 H 0.2329 0.8276 0.5445
C15 C 0.20504(19) 1.0078(4) 0.51163(19)
H14 H 0.1943 0.9922 0.4633
O5 O 0.2606(2) 0.0239(3) 0.36541(17)
H15 H 0.2854(17) 0.038(3) 0.3419(18)
H16 H 0.249(2) -0.037(3) 0.353(2)
loop_
_geom_bond_atom_site_label_1
_geom_bond_atom_site_label_2
_geom_bond_site_symmetry_1
_geom_bond_site_symmetry_2
Cu1 N1 1_555 1_555
S1 S2 1_555 1_555
S2 C6 1_555 1_555
N1 C1 1_555 1_555
N2 C8 1_555 1_555
O1 Cu1 1_555 1_555
C1 H1 1_555 1_555
C2 C1 1_555 1_555
H2 C2 1_555 1_555
C3 S1 1_555 1_555
C4 C3 1_555 1_555
H3 C4 1_555 1_555
C5 N1 1_555 1_555
H4 C5 1_555 1_555
C6 C7 1_555 1_555
C7 H5 1_555 1_555
C8 C7 1_555 1_555
H6 C8 1_555 1_555
C9 N2 1_555 1_555
H7 C9 1_555 1_555
C10 C6 1_555 1_555
H8 C10 1_555 1_555
H9 O1 1_555 1_555
H10 O1 1_555 1_555
S3 O2 1_555 1_555
O3 S3 1_555 1_555
O4 S3 1_555 1_555
N3 C11 1_555 1_555
C11 H11 1_555 1_555
C12 C11 1_555 1_555
H12 C12 1_555 1_555
C13 S3 1_555 1_555
C14 C13 1_555 1_555
H13 C14 1_555 1_555
C15 N3 1_555 1_555
H14 C15 1_555 1_555
O5 H15 1_555 1_555
H16 O5 1_555 1_555
Cu1_2 N2 1_555 1_555
S1A S2A 1_555 1_555
S2A C6A 1_555 1_555
N1A Cu1 1_555 1_555
N2_2 Cu1 1_555 1_555
N2A Cu1 1_555 1_555
N2A_2 Cu1_2 1_555 1_555
O1A Cu1 1_555 1_555
C1A N1A 1_555 1_555
H1A C1A 1_555 1_555
C2A C1A 1_555 1_555
H2A C2A 1_555 1_555
C3A S1A 1_555 1_555
C4A C3A 1_555 1_555
H3A C4A 1_555 1_555
C5A N1A 1_555 1_555
H4A C5A 1_555 1_555
C6A C7A 1_555 1_555
C7A H5A 1_555 1_555
C8A N2A_2 1_555 1_555
H6A C8A 1_555 1_555
C9A N2A_2 1_555 1_555
H7A C9A 1_555 1_555
C10A C6A 1_555 1_555
H8A C10A 1_555 1_555
H9A O1A 1_555 1_555
H10A O1A 1_555 1_555
C2 C3 1_555 1_555
C4 C5 1_555 1_555
C9 C10 1_555 1_555
C12 C13 1_555 1_555
C14 C15 1_555 1_555
C2A C3A 1_555 1_555
C4A C5A 1_555 1_555
C7A C8A 1_555 1_555
C9A C10A 1_555 1_555

#END
