
#######################################################################
#
#                 Cambridge Crystallographic Data Centre
#                                CCDC 
#
#######################################################################
#
# If this CIF has been generated from an entry in the Cambridge 
# Structural Database, then it will include bibliographic, chemical, 
# crystal, experimental, refinement or atomic coordinate data resulting 
# from the CCDC's data processing and validation procedures.
#
#######################################################################

data_VUKHAL
_symmetry_cell_setting           monoclinic
_symmetry_space_group_name_H-M   'P 21/n'
_symmetry_Int_Tables_number      14
_space_group_name_Hall           '-P 2yn'
loop_
_symmetry_equiv_pos_site_id
_symmetry_equiv_pos_as_xyz
1 x,y,z
2 1/2-x,1/2+y,1/2-z
3 -x,-y,-z
4 1/2+x,1/2-y,1/2+z
_cell_length_a                   6.8247(5)
_cell_length_b                   27.1975(19)
_cell_length_c                   11.5922(8)
_cell_angle_alpha                90
_cell_angle_beta                 90.035(1)
_cell_angle_gamma                90
_cell_volume                     2151.68
loop_
_atom_site_label
_atom_site_type_symbol
_atom_site_fract_x
_atom_site_fract_y
_atom_site_fract_z
Ni1 Ni 0.5000 0.0000 0.5000
Ni2 Ni 0.5000 0.5000 0.5000
F1 F -0.5556(3) 0.26598(7) 0.55629(19)
F2 F -0.3280(3) 0.22802(7) 0.64825(17)
F3 F -0.4879(3) 0.19107(7) 0.5166(2)
F4 F -0.5057(3) 0.23630(7) 0.31186(19)
F5 F -0.4541(3) 0.31075(6) 0.36019(17)
F6 F -0.2437(3) 0.27330(8) 0.25643(16)
O1 O 0.3214(3) 0.05933(7) 0.4721(2)
O2 O 0.0805(3) 0.03096(7) 0.36030(18)
O3 O 0.3350(3) 0.43693(7) 0.5278(2)
O4 O 0.0802(3) 0.46176(7) 0.63269(18)
O5 O 0.6717(4) 0.01843(12) 0.3630(2)
H1 H 0.7933 0.0252 0.3645
H2 H 0.6247 0.0336 0.3051
O6 O 0.6744(4) 0.04162(8) 0.6036(3)
H3 H 0.7750 0.0243 0.6185
O7 O 0.3172(3) 0.51466(11) 0.3658(2)
H4 H 0.3698 0.5244 0.3034
H5 H 0.2050 0.5263 0.3822
O8 O 0.3142(4) 0.53739(8) 0.6049(2)
H6 H 0.2206 0.5185 0.6244
C1 C 0.0713(4) 0.11467(10) 0.4192(3)
C2 C -0.0611(5) 0.12828(11) 0.3337(3)
H7 H -0.0841 0.1073 0.2718
C3 C -0.1585(5) 0.17255(11) 0.3396(3)
H8 H -0.2460 0.1812 0.2815
C4 C -0.1274(4) 0.20442(9) 0.4313(2)
C5 C 0.0120(4) 0.19165(10) 0.5137(3)
H9 H 0.0395 0.2132 0.5739
C6 C 0.1097(4) 0.14732(10) 0.5070(3)
H10 H 0.2027 0.1394 0.5626
C7 C 0.1655(4) 0.06469(10) 0.4174(2)
C8 C -0.2544(4) 0.25044(10) 0.4544(3)
C9 C -0.4080(4) 0.23412(11) 0.5442(3)
C10 C -0.3656(5) 0.26753(11) 0.3450(3)
C11 C -0.1350(4) 0.29544(10) 0.4966(2)
C12 C -0.1978(5) 0.32628(11) 0.5837(3)
H11 H -0.3101 0.3182 0.6250
C13 C -0.0971(5) 0.36884(11) 0.6108(3)
H12 H -0.1412 0.3888 0.6706
C14 C 0.0695(4) 0.38209(10) 0.5494(2)
C15 C 0.1365(4) 0.35037(10) 0.4646(3)
H13 H 0.2503 0.3581 0.4244
C16 C 0.0373(4) 0.30761(10) 0.4387(3)
H14 H 0.0858 0.2867 0.3820
C17 C 0.1699(4) 0.43051(10) 0.5717(3)
C18 C 0.6585(6) 0.08653(14) 0.6501(4)
H15 H 0.5552 0.1042 0.6123
H16 H 0.7798 0.1039 0.6406
H17 H 0.6293 0.0836 0.7308
C19 C 0.3396(6) 0.57826(13) 0.6728(4)
H18 H 0.4581 0.5948 0.6508
H19 H 0.3482 0.5685 0.7522
H20 H 0.2303 0.6001 0.6628
Ni2_2 Ni 0.5000 -0.5000 0.5000
F1B F 1.5556(3) -0.26598(7) 0.44371(19)
F2B F 1.3280(3) -0.22802(7) 0.35175(17)
F3B F 1.4879(3) -0.19107(7) 0.4834(2)
F4B F 1.5057(3) -0.23630(7) 0.68814(19)
F5B F 1.4541(3) -0.31075(6) 0.63981(17)
F6B F 1.2437(3) -0.27330(8) 0.74357(16)
O1B O 0.6786(3) -0.05933(7) 0.5279(2)
O2B O 0.9195(3) -0.03096(7) 0.63970(18)
O3B O 0.6650(3) -0.43693(7) 0.4722(2)
O3B_2 O 0.6650(3) 0.56307(7) 0.4722(2)
O4B O 0.9198(3) -0.46176(7) 0.36731(18)
O5B O 0.3283(4) -0.01843(12) 0.6370(2)
H1B H 0.2067 -0.0252 0.6355
H2B H 0.3753 -0.0336 0.6949
O6B O 0.3256(4) -0.04162(8) 0.3964(3)
H3B H 0.2250 -0.0243 0.3815
O7B O 0.6828(3) 0.48534(11) 0.6342(2)
H4B H 0.6302 0.4756 0.6966
H5B H 0.7950 0.4737 0.6178
O8B O 0.6858(4) 0.46261(8) 0.3951(2)
H6B H 0.7794 0.4815 0.3756
C1B C 0.9287(4) -0.11467(10) 0.5808(3)
C2B C 1.0611(5) -0.12828(11) 0.6663(3)
H7B H 1.0841 -0.1073 0.7282
C3B C 1.1585(5) -0.17255(11) 0.6604(3)
H8B H 1.2460 -0.1812 0.7185
C4B C 1.1274(4) -0.20442(9) 0.5687(2)
C5B C 0.9880(4) -0.19165(10) 0.4863(3)
H9B H 0.9605 -0.2132 0.4261
C6B C 0.8903(4) -0.14732(10) 0.4930(3)
H10B H 0.7973 -0.1394 0.4374
C7B C 0.8345(4) -0.06469(10) 0.5826(2)
C8B C 1.2544(4) -0.25044(10) 0.5456(3)
C9B C 1.4080(4) -0.23412(11) 0.4558(3)
C10B C 1.3656(5) -0.26753(11) 0.6550(3)
C11B C 1.1350(4) -0.29544(10) 0.5034(2)
C12B C 1.1978(5) -0.32628(11) 0.4163(3)
H11B H 1.3101 -0.3182 0.3750
C13B C 1.0971(5) -0.36884(11) 0.3892(3)
H12B H 1.1412 -0.3888 0.3294
C14B C 0.9305(4) -0.38209(10) 0.4506(2)
C15B C 0.8635(4) -0.35037(10) 0.5354(3)
H13B H 0.7497 -0.3581 0.5756
C16B C 0.9627(4) -0.30761(10) 0.5613(3)
H14B H 0.9142 -0.2867 0.6180
C17B C 0.8301(4) -0.43051(10) 0.4283(3)
C18B C 0.3415(6) -0.08653(14) 0.3499(4)
H15B H 0.4448 -0.1042 0.3877
H16B H 0.2202 -0.1039 0.3594
H17B H 0.3707 -0.0836 0.2692
C19B C 0.6604(6) 0.42174(13) 0.3272(4)
H18B H 0.5419 0.4052 0.3492
H19B H 0.6518 0.4315 0.2478
H20B H 0.7697 0.3999 0.3372
loop_
_geom_bond_atom_site_label_1
_geom_bond_atom_site_label_2
_geom_bond_site_symmetry_1
_geom_bond_site_symmetry_2
Ni1 O1 1_555 1_555
Ni2 O3 1_555 1_555
F1 C9 1_555 1_555
F2 C9 1_555 1_555
F3 C9 1_555 1_555
F4 C10 1_555 1_555
F5 C10 1_555 1_555
F6 C10 1_555 1_555
O1 C7 1_555 1_555
O2 C7 1_555 1_555
O3 C17 1_555 1_555
O4 C17 1_555 1_555
O5 Ni1 1_555 1_555
H1 O5 1_555 1_555
H2 O5 1_555 1_555
O6 Ni1 1_555 1_555
H3 O6 1_555 1_555
O7 Ni2 1_555 1_555
H4 O7 1_555 1_555
H5 O7 1_555 1_555
O8 Ni2 1_555 1_555
H6 O8 1_555 1_555
C1 C2 1_555 1_555
C2 H7 1_555 1_555
C3 C2 1_555 1_555
H8 C3 1_555 1_555
C4 C3 1_555 1_555
C5 C4 1_555 1_555
H9 C5 1_555 1_555
C6 C1 1_555 1_555
H10 C6 1_555 1_555
C7 C1 1_555 1_555
C8 C4 1_555 1_555
C9 C8 1_555 1_555
C10 C8 1_555 1_555
C11 C8 1_555 1_555
C12 C11 1_555 1_555
H11 C12 1_555 1_555
C13 C12 1_555 1_555
H12 C13 1_555 1_555
C14 C13 1_555 1_555
C15 C14 1_555 1_555
H13 C15 1_555 1_555
C16 C11 1_555 1_555
H14 C16 1_555 1_555
C17 C14 1_555 1_555
C18 O6 1_555 1_555
H15 C18 1_555 1_555
H16 C18 1_555 1_555
H17 C18 1_555 1_555
C19 O8 1_555 1_555
H18 C19 1_555 1_555
H19 C19 1_555 1_555
H20 C19 1_555 1_555
Ni2_2 O3B 1_555 1_555
F1B C9B 1_555 1_555
F2B C9B 1_555 1_555
F3B C9B 1_555 1_555
F4B C10B 1_555 1_555
F5B C10B 1_555 1_555
F6B C10B 1_555 1_555
O1B Ni1 1_555 1_555
O2B C7B 1_555 1_555
O3B C17B 1_555 1_555
O3B_2 Ni2 1_555 1_555
O4B C17B 1_555 1_555
O5B Ni1 1_555 1_555
H1B O5B 1_555 1_555
H2B O5B 1_555 1_555
O6B Ni1 1_555 1_555
H3B O6B 1_555 1_555
O7B Ni2 1_555 1_555
H4B O7B 1_555 1_555
H5B O7B 1_555 1_555
O8B Ni2 1_555 1_555
H6B O8B 1_555 1_555
C1B C2B 1_555 1_555
C2B H7B 1_555 1_555
C3B C2B 1_555 1_555
H8B C3B 1_555 1_555
C4B C3B 1_555 1_555
C5B C4B 1_555 1_555
H9B C5B 1_555 1_555
C6B C1B 1_555 1_555
H10B C6B 1_555 1_555
C7B O1B 1_555 1_555
C8B C4B 1_555 1_555
C9B C8B 1_555 1_555
C10B C8B 1_555 1_555
C11B C8B 1_555 1_555
C12B C11B 1_555 1_555
H11B C12B 1_555 1_555
C13B C12B 1_555 1_555
H12B C13B 1_555 1_555
C14B C13B 1_555 1_555
C15B C14B 1_555 1_555
H13B C15B 1_555 1_555
C16B C11B 1_555 1_555
H14B C16B 1_555 1_555
C17B C14B 1_555 1_555
C18B O6B 1_555 1_555
H15B C18B 1_555 1_555
H16B C18B 1_555 1_555
H17B C18B 1_555 1_555
C19B O8B 1_555 1_555
H18B C19B 1_555 1_555
H19B C19B 1_555 1_555
H20B C19B 1_555 1_555
C5 C6 1_555 1_555
C15 C16 1_555 1_555
C1B C7B 1_555 1_555
C5B C6B 1_555 1_555
C15B C16B 1_555 1_555

#END
