
#######################################################################
#
#                 Cambridge Crystallographic Data Centre
#                                CCDC 
#
#######################################################################
#
# If this CIF has been generated from an entry in the Cambridge 
# Structural Database, then it will include bibliographic, chemical, 
# crystal, experimental, refinement or atomic coordinate data resulting 
# from the CCDC's data processing and validation procedures.
#
#######################################################################

data_VUKHIT
_symmetry_cell_setting           monoclinic
_symmetry_space_group_name_H-M   'P 21'
_symmetry_Int_Tables_number      4
_space_group_name_Hall           'P 2yb'
loop_
_symmetry_equiv_pos_site_id
_symmetry_equiv_pos_as_xyz
1 x,y,z
2 -x,1/2+y,-z
_cell_length_a                   12.9861(17)
_cell_length_b                   12.1989(16)
_cell_length_c                   13.2626(17)
_cell_angle_alpha                90
_cell_angle_beta                 95.072(2)
_cell_angle_gamma                90
_cell_volume                     2092.78
loop_
_atom_site_label
_atom_site_type_symbol
_atom_site_fract_x
_atom_site_fract_y
_atom_site_fract_z
Zn1 Zn -0.01964(3) 0.91005(4) 0.46655(3)
O1 O 0.1388(2) 0.8279(3) 0.5668(2)
O2 O -0.0199(2) 0.8514(2) 0.60674(19)
O3 O 0.0412(3) 0.8636(3) 1.3430(2)
O4 O -0.0394(2) 0.7182(3) 1.3935(2)
O9 O 0.0390(2) 1.0611(3) 0.4724(2)
H1 H 0.0769 1.0796 0.4262
H2 H 0.0500 1.0935 0.5291
O10 O -0.1671(2) 0.9510(3) 0.4381(2)
H3 H -0.2134 0.9021 0.4403
H4 H -0.1821 1.0148 0.4581
F1 F 0.1243(2) 0.3476(2) 1.0203(2)
F2 F 0.12151(18) 0.3933(2) 0.86399(17)
F3 F -0.00228(18) 0.4419(2) 0.95020(18)
F4 F 0.28671(18) 0.4608(2) 1.09897(18)
F5 F 0.31123(17) 0.4462(2) 0.94249(18)
F6 F 0.32883(17) 0.6018(2) 1.01702(18)
C1 C 0.0418(3) 0.6631(3) 0.8711(3)
H16 H -0.0088 0.6525 0.9155
C2 C 0.0203(3) 0.7278(3) 0.7871(3)
H17 H -0.0449 0.7593 0.7751
C3 C 0.0942(3) 0.7469(3) 0.7197(3)
C4 C 0.0707(3) 0.8136(3) 0.6266(3)
C5 C 0.1902(3) 0.6998(4) 0.7409(3)
H18 H 0.2416 0.7138 0.6980
C6 C 0.2124(3) 0.6331(4) 0.8228(3)
H19 H 0.2773 0.6007 0.8333
C7 C 0.1383(3) 0.6130(3) 0.8910(3)
C8 C 0.1567(3) 0.5377(3) 0.9822(3)
C9 C 0.0998(3) 0.4297(3) 0.9546(3)
C10 C 0.2713(3) 0.5101(4) 1.0099(3)
C11 C 0.1179(3) 0.5912(3) 1.0782(3)
C12 C 0.0659(3) 0.5366(3) 1.1497(3)
H20 H 0.0526 0.4620 1.1421
C13 C 0.0339(3) 0.5916(3) 1.2318(3)
H21 H -0.0027 0.5540 1.2781
C14 C 0.0551(3) 0.7023(3) 1.2468(3)
C15 C 0.0170(3) 0.7633(4) 1.3340(3)
C16 C 0.1105(3) 0.7556(3) 1.1782(3)
H22 H 0.1275 0.8291 1.1882
C17 C 0.1412(3) 0.7020(3) 1.0948(3)
H23 H 0.1780 0.7399 1.0488
Zn1_2 Zn -0.01964(3) 0.91005(4) 1.46655(3)
O3_2 O 0.0412(3) 0.8636(3) 0.3430(2)
Zn2 Zn 0.53831(3) 0.39868(4) 0.47256(3)
O5 O 0.5102(2) 0.3367(3) 0.6010(2)
O6 O 0.3456(2) 0.3404(3) 0.5440(2)
O7 O 0.4943(2) 0.3274(3) 1.3477(2)
O8 O 0.5720(2) 0.1730(3) 1.3974(2)
O11 O 0.4861(2) 0.5492(3) 0.4487(2)
H5 H 0.4414 0.5629 0.3997
H6 H 0.4740 0.5712 0.5072
O12 O 0.6869(2) 0.4334(3) 0.4839(2)
H7 H 0.7238 0.3804 0.4656
H8 H 0.7176 0.4983 0.4964
F7 F 0.21856(18) -0.0379(2) 1.05738(18)
F8 F 0.17748(18) -0.0453(2) 0.89793(18)
F9 F 0.17220(17) 0.1081(2) 0.97578(18)
F10 F 0.3702(2) -0.1539(2) 0.9829(2)
F11 F 0.49213(18) -0.05994(19) 0.92420(18)
F12 F 0.35548(17) -0.0999(2) 0.82887(17)
C18 C 0.4476(3) 0.1700(3) 0.8612(3)
H24 H 0.4986 0.1602 0.9142
C19 C 0.4683(3) 0.2341(4) 0.7793(3)
H25 H 0.5332 0.2660 0.7770
C20 C 0.3917(3) 0.2508(3) 0.7003(3)
C21 C 0.4156(4) 0.3152(4) 0.6082(3)
C22 C 0.2957(3) 0.2037(4) 0.7060(3)
H26 H 0.2436 0.2158 0.6545
C23 C 0.2762(3) 0.1381(4) 0.7881(3)
H27 H 0.2114 0.1063 0.7905
C24 C 0.3521(3) 0.1198(3) 0.8659(3)
C25 C 0.3410(3) 0.0397(3) 0.9539(3)
C26 C 0.2270(3) 0.0161(3) 0.9712(3)
C27 C 0.3902(3) -0.0692(3) 0.9221(3)
C28 C 0.3920(3) 0.0843(3) 1.0546(3)
C29 C 0.4548(3) 0.0242(3) 1.1236(3)
H28 H 0.4697 -0.0483 1.1090
C30 C 0.4961(3) 0.0692(3) 1.2137(3)
H29 H 0.5392 0.0274 1.2583
C31 C 0.4732(3) 0.1771(3) 1.2381(3)
C32 C 0.5167(3) 0.2276(4) 1.3343(3)
C33 C 0.4079(3) 0.2370(3) 1.1696(3)
H30 H 0.3908 0.3087 1.1850
C34 C 0.3686(3) 0.1916(3) 1.0801(3)
H31 H 0.3254 0.2332 1.0354
Zn2_2 Zn 0.53831(3) 0.39868(4) 1.47256(3)
O7_2 O 0.4943(2) 0.3274(3) 0.3477(2)
O13 O 0.2312(3) 0.6429(3) 0.4874(2)
H9 H 0.2905 0.6673 0.4649
H10 H 0.1924 0.6918 0.5096
O14 O 0.2228(3) 0.0854(3) 0.3858(3)
H11 H 0.2324 0.1517 0.3823
C35 C 0.2200(6) 0.0384(7) 0.2862(5)
H32 H 0.2325 0.0946 0.2381
H33 H 0.1534 0.0062 0.2687
H34 H 0.2724 -0.0171 0.2852
O15 O 0.2316(3) 0.3042(4) 0.3504(3)
H12 H 0.2273 0.3709 0.3320
H13 H 0.2559 0.2919 0.4131
O16 O 0.3255(4) 0.5661(5) 0.3100(3)
H14 H 0.2820 0.5267 0.3388
H15 H 0.3498 0.6222 0.3418
loop_
_geom_bond_atom_site_label_1
_geom_bond_atom_site_label_2
_geom_bond_site_symmetry_1
_geom_bond_site_symmetry_2
Zn1 O2 1_555 1_555
Zn2 O5 1_555 1_555
O1 C4 1_555 1_555
O2 C4 1_555 1_555
O3 C15 1_555 1_555
O4 C15 1_555 1_555
O5 C21 1_555 1_555
O6 C21 1_555 1_555
O7 C32 1_555 1_555
O8 C32 1_555 1_555
O9 Zn1 1_555 1_555
H1 O9 1_555 1_555
H2 O9 1_555 1_555
O10 Zn1 1_555 1_555
H3 O10 1_555 1_555
H4 O10 1_555 1_555
O11 Zn2 1_555 1_555
H5 O11 1_555 1_555
H6 O11 1_555 1_555
O12 Zn2 1_555 1_555
H7 O12 1_555 1_555
H8 O12 1_555 1_555
O13 H9 1_555 1_555
H10 O13 1_555 1_555
O14 H11 1_555 1_555
O15 H12 1_555 1_555
H13 O15 1_555 1_555
O16 H14 1_555 1_555
H15 O16 1_555 1_555
F1 C9 1_555 1_555
F2 C9 1_555 1_555
F3 C9 1_555 1_555
F4 C10 1_555 1_555
F5 C10 1_555 1_555
F6 C10 1_555 1_555
F7 C26 1_555 1_555
F8 C26 1_555 1_555
F9 C26 1_555 1_555
F10 C27 1_555 1_555
F11 C27 1_555 1_555
F12 C27 1_555 1_555
C1 H16 1_555 1_555
C2 C1 1_555 1_555
H17 C2 1_555 1_555
C3 C2 1_555 1_555
C4 C3 1_555 1_555
C5 C3 1_555 1_555
H18 C5 1_555 1_555
C6 C5 1_555 1_555
H19 C6 1_555 1_555
C7 C1 1_555 1_555
C8 C7 1_555 1_555
C9 C8 1_555 1_555
C10 C8 1_555 1_555
C11 C8 1_555 1_555
C12 C11 1_555 1_555
H20 C12 1_555 1_555
C13 C12 1_555 1_555
H21 C13 1_555 1_555
C14 C13 1_555 1_555
C15 C14 1_555 1_555
C16 C14 1_555 1_555
H22 C16 1_555 1_555
C17 C11 1_555 1_555
H23 C17 1_555 1_555
C18 H24 1_555 1_555
C19 C18 1_555 1_555
H25 C19 1_555 1_555
C20 C19 1_555 1_555
C21 C20 1_555 1_555
C22 C20 1_555 1_555
H26 C22 1_555 1_555
C23 C22 1_555 1_555
H27 C23 1_555 1_555
C24 C18 1_555 1_555
C25 C24 1_555 1_555
C26 C25 1_555 1_555
C27 C25 1_555 1_555
C28 C25 1_555 1_555
C29 C28 1_555 1_555
H28 C29 1_555 1_555
C30 C29 1_555 1_555
H29 C30 1_555 1_555
C31 C30 1_555 1_555
C32 C31 1_555 1_555
C33 C31 1_555 1_555
H30 C33 1_555 1_555
C34 C28 1_555 1_555
H31 C34 1_555 1_555
C35 O14 1_555 1_555
H32 C35 1_555 1_555
H33 C35 1_555 1_555
H34 C35 1_555 1_555
Zn1_2 O3 1_555 1_555
Zn2_2 O7 1_555 1_555
O3_2 Zn1 1_555 1_555
O7_2 Zn2 1_555 1_555
C6 C7 1_555 1_555
C16 C17 1_555 1_555
C23 C24 1_555 1_555
C33 C34 1_555 1_555

#END
