
#######################################################################
#
#                 Cambridge Crystallographic Data Centre
#                                CCDC 
#
#######################################################################
#
# If this CIF has been generated from an entry in the Cambridge 
# Structural Database, then it will include bibliographic, chemical, 
# crystal, experimental, refinement or atomic coordinate data resulting 
# from the CCDC's data processing and validation procedures.
#
#######################################################################

data_VUKKAO
_symmetry_cell_setting           monoclinic
_symmetry_space_group_name_H-M   'P 21/c'
_symmetry_Int_Tables_number      14
_space_group_name_Hall           '-P 2ybc'
loop_
_symmetry_equiv_pos_site_id
_symmetry_equiv_pos_as_xyz
1 x,y,z
2 -x,1/2+y,1/2-z
3 -x,-y,-z
4 x,1/2-y,1/2+z
_cell_length_a                   7.0901(12)
_cell_length_b                   17.798(3)
_cell_length_c                   11.1041(14)
_cell_angle_alpha                90
_cell_angle_beta                 121.728(8)
_cell_angle_gamma                90
_cell_volume                     1191.82
loop_
_atom_site_label
_atom_site_type_symbol
_atom_site_fract_x
_atom_site_fract_y
_atom_site_fract_z
Co1 Co 1.5000 1.0000 1.0000
O1 O 1.2613(3) 1.06778(8) 1.00104(17)
N1 N 1.7220(4) 1.08514(14) 0.5504(3)
N2 N 1.3584(3) 1.08911(10) 0.8428(2)
N3 N 1.2412(3) 1.19987(11) 0.7073(2)
N4 N 1.1226(3) 1.17558(10) 0.8686(2)
N5 N 0.7480(3) 1.41822(10) 0.6279(2)
C1 C 1.6000(5) 1.14729(18) 0.5211(3)
H1 H 1.5973 1.1822 0.4544
C2 C 1.4780(5) 1.16440(15) 0.5813(3)
H2 H 1.3924 1.2098 0.5561
C3 C 1.4795(4) 1.11575(13) 0.6791(3)
C4 C 1.6045(4) 1.05072(14) 0.7098(3)
H3 H 1.6095 1.0146 0.7757
C5 C 1.7210(4) 1.03888(16) 0.6437(3)
H4 H 1.8080 0.9939 0.6665
C6 C 1.3520(4) 1.13499(12) 0.7464(2)
C7 C 1.2427(4) 1.11122(12) 0.9047(2)
C8 C 1.1307(4) 1.21600(12) 0.7713(3)
C9 C 1.0034(4) 1.28816(12) 0.7275(3)
C10 C 1.0143(4) 1.33482(13) 0.6316(3)
H5 H 1.1098 1.3225 0.5974
C11 C 0.8857(4) 1.39871(13) 0.5857(3)
H6 H 0.8968 1.4312 0.5207
C12 C 0.7448(5) 1.37478(15) 0.7251(3)
H7 H 0.6517 1.3894 0.7600
C13 C 0.8700(5) 1.30978(15) 0.7779(3)
H8 H 0.8637 1.2799 0.8476
Co1A Co 0.5000 1.5000 0.5000
Co1A_2 Co 2.5000 0.5000 1.5000
O1B O 1.7387(3) 0.93222(8) 0.99896(17)
N1B N 1.2780(4) 0.91486(14) 1.4496(3)
N2B N 1.6416(3) 0.91089(10) 1.1572(2)
N3B N 1.7588(3) 0.80013(11) 1.2927(2)
N4B N 1.8774(3) 0.82442(10) 1.1314(2)
N5B N 2.2520(3) 0.58178(10) 1.3721(2)
N5A N 1.2520(3) 0.91822(10) 0.8721(2)
N5C N 1.7480(3) 1.08178(10) 1.1279(2)
C1B C 1.4000(5) 0.85271(18) 1.4789(3)
H1B H 1.4027 0.8178 1.5456
C2B C 1.5220(5) 0.83560(15) 1.4187(3)
H2B H 1.6076 0.7902 1.4439
C3B C 1.5205(4) 0.88425(13) 1.3209(3)
C4B C 1.3955(4) 0.94928(14) 1.2902(3)
H3B H 1.3905 0.9854 1.2243
C5B C 1.2790(4) 0.96112(16) 1.3563(3)
H4B H 1.1920 1.0061 1.3335
C6B C 1.6480(4) 0.86501(12) 1.2536(2)
C7B C 1.7573(4) 0.88878(12) 1.0953(2)
C8B C 1.8693(4) 0.78400(12) 1.2287(3)
C9B C 1.9966(4) 0.71184(12) 1.2725(3)
C10B C 1.9857(4) 0.66518(13) 1.3684(3)
H5B H 1.8902 0.6775 1.4026
C11B C 2.1143(4) 0.60129(13) 1.4143(3)
H6B H 2.1032 0.5688 1.4793
C12B C 2.2552(5) 0.62522(15) 1.2749(3)
H7B H 2.3483 0.6106 1.2400
C13B C 2.1300(5) 0.69022(15) 1.2221(3)
H8B H 2.1363 0.7201 1.1524
O2 O 0.998(3) 0.5232(9) 0.0289(17)
H9 H 0.9435 0.4825 0.0372
loop_
_geom_bond_atom_site_label_1
_geom_bond_atom_site_label_2
_geom_bond_site_symmetry_1
_geom_bond_site_symmetry_2
Co1 O1 1_555 1_555
O1 C7 1_555 1_555
N1 C1 1_555 1_555
N2 Co1 1_555 1_555
N3 C6 1_555 1_555
N4 C7 1_555 1_555
N5 C11 1_555 1_555
C1 H1 1_555 1_555
C2 C1 1_555 1_555
H2 C2 1_555 1_555
C3 C2 1_555 1_555
C4 C3 1_555 1_555
H3 C4 1_555 1_555
C5 N1 1_555 1_555
H4 C5 1_555 1_555
C6 N2 1_555 1_555
C7 N2 1_555 1_555
C8 N3 1_555 1_555
C9 C8 1_555 1_555
C10 C9 1_555 1_555
H5 C10 1_555 1_555
C11 C10 1_555 1_555
H6 C11 1_555 1_555
C12 N5 1_555 1_555
H7 C12 1_555 1_555
C13 C9 1_555 1_555
H8 C13 1_555 1_555
O2 H9 1_555 1_555
Co1A N5 1_555 1_555
Co1A_2 N5B 1_555 1_555
O1B Co1 1_555 1_555
N1B C1B 1_555 1_555
N2B Co1 1_555 1_555
N3B C6B 1_555 1_555
N4B C7B 1_555 1_555
N5B C11B 1_555 1_555
N5A Co1 1_555 1_555
N5C Co1 1_555 1_555
C1B H1B 1_555 1_555
C2B C1B 1_555 1_555
H2B C2B 1_555 1_555
C3B C2B 1_555 1_555
C4B C3B 1_555 1_555
H3B C4B 1_555 1_555
C5B N1B 1_555 1_555
H4B C5B 1_555 1_555
C6B N2B 1_555 1_555
C7B O1B 1_555 1_555
C8B N3B 1_555 1_555
C9B C8B 1_555 1_555
C10B C9B 1_555 1_555
H5B C10B 1_555 1_555
C11B C10B 1_555 1_555
H6B C11B 1_555 1_555
C12B N5B 1_555 1_555
H7B C12B 1_555 1_555
C13B C9B 1_555 1_555
H8B C13B 1_555 1_555
N4 C8 1_555 1_555
C3 C6 1_555 1_555
C4 C5 1_555 1_555
C12 C13 1_555 1_555
N2B C7B 1_555 1_555
N4B C8B 1_555 1_555
C3B C6B 1_555 1_555
C4B C5B 1_555 1_555
C12B C13B 1_555 1_555

#END
