
#######################################################################
#
#                 Cambridge Crystallographic Data Centre
#                                CCDC 
#
#######################################################################
#
# If this CIF has been generated from an entry in the Cambridge 
# Structural Database, then it will include bibliographic, chemical, 
# crystal, experimental, refinement or atomic coordinate data resulting 
# from the CCDC's data processing and validation procedures.
#
#######################################################################

data_VUKKUI
_symmetry_cell_setting           monoclinic
_symmetry_space_group_name_H-M   'P 21/c'
_symmetry_Int_Tables_number      14
_space_group_name_Hall           '-P 2ybc'
loop_
_symmetry_equiv_pos_site_id
_symmetry_equiv_pos_as_xyz
1 x,y,z
2 -x,1/2+y,1/2-z
3 -x,-y,-z
4 x,1/2-y,1/2+z
_cell_length_a                   6.9760(9)
_cell_length_b                   17.636(2)
_cell_length_c                   11.053(1)
_cell_angle_alpha                90
_cell_angle_beta                 121.308(6)
_cell_angle_gamma                90
_cell_volume                     1161.83
loop_
_atom_site_label
_atom_site_type_symbol
_atom_site_fract_x
_atom_site_fract_y
_atom_site_fract_z
Ni1 Ni 0.5000 0.5000 0.5000
O1 O 0.2600(3) 0.43286(8) 0.50294(16)
N1 N 0.7295(4) 0.41586(14) 0.0478(2)
N2 N 0.3608(3) 0.41257(9) 0.34420(19)
N3 N 0.2442(3) 0.30078(11) 0.2094(2)
N4 N 0.1216(3) 0.32436(10) 0.3706(2)
N5 N -0.2547(3) 0.07999(10) 0.1263(2)
C1 C 0.6055(5) 0.35316(17) 0.0198(3)
H1 H 0.6010 0.3193 -0.0459
C2 C 0.4835(5) 0.33641(14) 0.0813(3)
H2 H 0.3995 0.2920 0.0559
C3 C 0.4851(4) 0.38581(12) 0.1792(2)
C4 C 0.6115(4) 0.45136(13) 0.2085(3)
H3 H 0.6187 0.4863 0.2735
C5 C 0.7294(4) 0.46297(16) 0.1413(3)
H4 H 0.8140 0.5072 0.1643
C6 C 0.3561(4) 0.36629(12) 0.2479(2)
C7 C 0.2426(4) 0.38957(11) 0.4066(2)
C8 C 0.1317(4) 0.28392(12) 0.2733(2)
C9 C 0.0033(4) 0.21085(12) 0.2287(2)
C10 C 0.0117(4) 0.16604(13) 0.1295(2)
H5 H 0.1050 0.1783 0.0969
C11 C -0.1187(4) 0.10145(12) 0.0821(3)
H6 H -0.1109 0.0710 0.0165
C12 C -0.2538(5) 0.12149(14) 0.2280(3)
H7 H -0.3448 0.1067 0.2611
C13 C -0.1268(5) 0.18670(14) 0.2820(3)
H8 H -0.1297 0.2142 0.3523
Ni1A Ni -0.5000 0.0000 0.0000
Ni1A_2 Ni 1.5000 1.0000 1.0000
O1B O 0.7400(3) 0.56714(8) 0.49706(16)
N1B N 0.2705(4) 0.58414(14) 0.9522(2)
N2B N 0.6392(3) 0.58743(9) 0.65580(19)
N3B N 0.7558(3) 0.69922(11) 0.7906(2)
N4B N 0.8784(3) 0.67564(10) 0.6294(2)
N5A N 0.2547(3) 0.57999(10) 0.3737(2)
N5B N 1.2547(3) 0.92001(10) 0.8737(2)
N5C N 0.7453(3) 0.42001(10) 0.6263(2)
C1B C 0.3945(5) 0.64684(17) 0.9802(3)
H1B H 0.3990 0.6807 1.0459
C2B C 0.5165(5) 0.66359(14) 0.9187(3)
H2B H 0.6005 0.7080 0.9441
C3B C 0.5149(4) 0.61419(12) 0.8208(2)
C4B C 0.3885(4) 0.54864(13) 0.7915(3)
H3B H 0.3813 0.5137 0.7265
C5B C 0.2706(4) 0.53703(16) 0.8587(3)
H4B H 0.1860 0.4928 0.8357
C6B C 0.6439(4) 0.63371(12) 0.7521(2)
C7B C 0.7574(4) 0.61043(11) 0.5934(2)
C8B C 0.8683(4) 0.71608(12) 0.7267(2)
C9B C 0.9967(4) 0.78915(12) 0.7713(2)
C10B C 0.9883(4) 0.83396(13) 0.8705(2)
H5B H 0.8950 0.8217 0.9031
C11B C 1.1187(4) 0.89855(12) 0.9179(3)
H6B H 1.1109 0.9290 0.9835
C12B C 1.2538(5) 0.87851(14) 0.7720(3)
H7B H 1.3448 0.8933 0.7389
C13B C 1.1268(5) 0.81330(14) 0.7180(3)
H8B H 1.1297 0.7858 0.6477
loop_
_geom_bond_atom_site_label_1
_geom_bond_atom_site_label_2
_geom_bond_site_symmetry_1
_geom_bond_site_symmetry_2
Ni1 O1 1_555 1_555
O1 C7 1_555 1_555
N1 C1 1_555 1_555
N2 Ni1 1_555 1_555
N3 C6 1_555 1_555
N4 C7 1_555 1_555
N5 C11 1_555 1_555
C1 H1 1_555 1_555
C2 C1 1_555 1_555
H2 C2 1_555 1_555
C3 C2 1_555 1_555
C4 C3 1_555 1_555
H3 C4 1_555 1_555
C5 N1 1_555 1_555
H4 C5 1_555 1_555
C6 N2 1_555 1_555
C7 N2 1_555 1_555
C8 N3 1_555 1_555
C9 C8 1_555 1_555
C10 C9 1_555 1_555
H5 C10 1_555 1_555
C11 C10 1_555 1_555
H6 C11 1_555 1_555
C12 N5 1_555 1_555
H7 C12 1_555 1_555
C13 C9 1_555 1_555
H8 C13 1_555 1_555
Ni1A N5 1_555 1_555
Ni1A_2 N5B 1_555 1_555
O1B Ni1 1_555 1_555
N1B C1B 1_555 1_555
N2B Ni1 1_555 1_555
N3B C6B 1_555 1_555
N4B C7B 1_555 1_555
N5A Ni1 1_555 1_555
N5B C11B 1_555 1_555
N5C Ni1 1_555 1_555
C1B H1B 1_555 1_555
C2B C1B 1_555 1_555
H2B C2B 1_555 1_555
C3B C2B 1_555 1_555
C4B C3B 1_555 1_555
H3B C4B 1_555 1_555
C5B N1B 1_555 1_555
H4B C5B 1_555 1_555
C6B N2B 1_555 1_555
C7B O1B 1_555 1_555
C8B N3B 1_555 1_555
C9B C8B 1_555 1_555
C10B C9B 1_555 1_555
H5B C10B 1_555 1_555
C11B C10B 1_555 1_555
H6B C11B 1_555 1_555
C12B N5B 1_555 1_555
H7B C12B 1_555 1_555
C13B C9B 1_555 1_555
H8B C13B 1_555 1_555
N4 C8 1_555 1_555
C3 C6 1_555 1_555
C4 C5 1_555 1_555
C12 C13 1_555 1_555
N2B C7B 1_555 1_555
N4B C8B 1_555 1_555
C3B C6B 1_555 1_555
C4B C5B 1_555 1_555
C12B C13B 1_555 1_555

#END
