
#######################################################################
#
#                 Cambridge Crystallographic Data Centre
#                                CCDC 
#
#######################################################################
#
# If this CIF has been generated from an entry in the Cambridge 
# Structural Database, then it will include bibliographic, chemical, 
# crystal, experimental, refinement or atomic coordinate data resulting 
# from the CCDC's data processing and validation procedures.
#
#######################################################################

data_VUKKES
_symmetry_cell_setting           monoclinic
_symmetry_space_group_name_H-M   'P 21/c'
_symmetry_Int_Tables_number      14
_space_group_name_Hall           '-P 2ybc'
loop_
_symmetry_equiv_pos_site_id
_symmetry_equiv_pos_as_xyz
1 x,y,z
2 -x,1/2+y,1/2-z
3 -x,-y,-z
4 x,1/2-y,1/2+z
_cell_length_a                   6.9626(13)
_cell_length_b                   17.913(3)
_cell_length_c                   11.0206(16)
_cell_angle_alpha                90
_cell_angle_beta                 121.714(8)
_cell_angle_gamma                90
_cell_volume                     1169.26
loop_
_atom_site_label
_atom_site_type_symbol
_atom_site_fract_x
_atom_site_fract_y
_atom_site_fract_z
Co1 Co 0.5000 0.5000 0.5000
O1 O 0.2579(3) 0.43204(9) 0.49867(19)
N1 N 0.7286(5) 0.41411(15) 0.0445(3)
N2 N 0.3601(3) 0.41106(11) 0.3408(2)
N3 N 0.2468(4) 0.29984(12) 0.2076(2)
N4 N 0.1237(4) 0.32437(11) 0.3685(2)
N5 N -0.2464(4) 0.08077(11) 0.1310(2)
C1 C 0.6083(6) 0.35215(19) 0.0176(3)
H1 H 0.6068 0.3183 -0.0468
C2 C 0.4857(5) 0.33494(16) 0.0793(3)
H2 H 0.4031 0.2908 0.0556
C3 C 0.4861(4) 0.38396(14) 0.1771(3)
C4 C 0.6111(5) 0.44903(15) 0.2060(3)
H3 H 0.6161 0.4840 0.2699
C5 C 0.7282(5) 0.46082(18) 0.1380(3)
H4 H 0.8123 0.5045 0.1591
C6 C 0.3572(4) 0.36469(14) 0.2454(2)
C7 C 0.2426(4) 0.38883(13) 0.4030(3)
C8 C 0.1347(4) 0.28363(13) 0.2718(3)
C9 C 0.0074(4) 0.21143(14) 0.2290(3)
C10 C 0.0181(5) 0.16571(14) 0.1316(3)
H5 H 0.1105 0.1781 0.0971
C11 C -0.1100(5) 0.10143(14) 0.0864(3)
H6 H -0.1006 0.0710 0.0214
C12 C -0.2468(5) 0.12319(16) 0.2311(3)
H7 H -0.3347 0.1083 0.2675
C13 C -0.1221(5) 0.18812(16) 0.2823(3)
H8 H -0.1257 0.2159 0.3525
Co1A Co -0.5000 0.0000 0.0000
Co1A_2 Co 1.5000 1.0000 1.0000
O1B O 0.7421(3) 0.56796(9) 0.50133(19)
N1B N 0.2714(5) 0.58589(15) 0.9555(3)
N2B N 0.6399(3) 0.58894(11) 0.6592(2)
N3B N 0.7532(4) 0.70016(12) 0.7924(2)
N4B N 0.8763(4) 0.67563(11) 0.6315(2)
N5B N 1.2464(4) 0.91923(11) 0.8690(2)
N5A N 0.2464(4) 0.58077(11) 0.3690(2)
N5C N 0.7536(4) 0.41923(11) 0.6310(2)
C1B C 0.3917(6) 0.64785(19) 0.9824(3)
H1B H 0.3932 0.6817 1.0468
C2B C 0.5143(5) 0.66506(16) 0.9207(3)
H2B H 0.5969 0.7092 0.9444
C3B C 0.5139(4) 0.61604(14) 0.8229(3)
C4B C 0.3889(5) 0.55097(15) 0.7940(3)
H3B H 0.3839 0.5160 0.7301
C5B C 0.2718(5) 0.53918(18) 0.8620(3)
H4B H 0.1877 0.4955 0.8409
C6B C 0.6428(4) 0.63531(14) 0.7546(2)
C7B C 0.7574(4) 0.61117(13) 0.5970(3)
C8B C 0.8653(4) 0.71637(13) 0.7282(3)
C9B C 0.9926(4) 0.78857(14) 0.7710(3)
C10B C 0.9819(5) 0.83429(14) 0.8684(3)
H5B H 0.8895 0.8219 0.9029
C11B C 1.1100(5) 0.89857(14) 0.9136(3)
H6B H 1.1006 0.9290 0.9786
C12B C 1.2468(5) 0.87681(16) 0.7689(3)
H7B H 1.3347 0.8917 0.7325
C13B C 1.1221(5) 0.81188(16) 0.7177(3)
H8B H 1.1257 0.7841 0.6475
loop_
_geom_bond_atom_site_label_1
_geom_bond_atom_site_label_2
_geom_bond_site_symmetry_1
_geom_bond_site_symmetry_2
Co1 O1 1_555 1_555
O1 C7 1_555 1_555
N1 C1 1_555 1_555
N2 Co1 1_555 1_555
N3 C6 1_555 1_555
N4 C7 1_555 1_555
N5 C11 1_555 1_555
C1 H1 1_555 1_555
C2 C1 1_555 1_555
H2 C2 1_555 1_555
C3 C2 1_555 1_555
C4 C3 1_555 1_555
H3 C4 1_555 1_555
C5 N1 1_555 1_555
H4 C5 1_555 1_555
C6 N2 1_555 1_555
C7 N2 1_555 1_555
C8 N3 1_555 1_555
C9 C8 1_555 1_555
C10 C9 1_555 1_555
H5 C10 1_555 1_555
C11 C10 1_555 1_555
H6 C11 1_555 1_555
C12 N5 1_555 1_555
H7 C12 1_555 1_555
C13 C9 1_555 1_555
H8 C13 1_555 1_555
Co1A N5 1_555 1_555
Co1A_2 N5B 1_555 1_555
O1B Co1 1_555 1_555
N1B C1B 1_555 1_555
N2B Co1 1_555 1_555
N3B C6B 1_555 1_555
N4B C7B 1_555 1_555
N5B C11B 1_555 1_555
N5A Co1 1_555 1_555
N5C Co1 1_555 1_555
C1B H1B 1_555 1_555
C2B C1B 1_555 1_555
H2B C2B 1_555 1_555
C3B C2B 1_555 1_555
C4B C3B 1_555 1_555
H3B C4B 1_555 1_555
C5B N1B 1_555 1_555
H4B C5B 1_555 1_555
C6B N2B 1_555 1_555
C7B O1B 1_555 1_555
C8B N3B 1_555 1_555
C9B C8B 1_555 1_555
C10B C9B 1_555 1_555
H5B C10B 1_555 1_555
C11B C10B 1_555 1_555
H6B C11B 1_555 1_555
C12B N5B 1_555 1_555
H7B C12B 1_555 1_555
C13B C9B 1_555 1_555
H8B C13B 1_555 1_555
N4 C8 1_555 1_555
C3 C6 1_555 1_555
C4 C5 1_555 1_555
C12 C13 1_555 1_555
N2B C7B 1_555 1_555
N4B C8B 1_555 1_555
C3B C6B 1_555 1_555
C4B C5B 1_555 1_555
C12B C13B 1_555 1_555

#END
