
#######################################################################
#
#                 Cambridge Crystallographic Data Centre
#                                CCDC 
#
#######################################################################
#
# If this CIF has been generated from an entry in the Cambridge 
# Structural Database, then it will include bibliographic, chemical, 
# crystal, experimental, refinement or atomic coordinate data resulting 
# from the CCDC's data processing and validation procedures.
#
#######################################################################

data_VUKMUJ
_symmetry_cell_setting           orthorhombic
_symmetry_space_group_name_H-M   'P b c a'
_symmetry_Int_Tables_number      61
_space_group_name_Hall           '-P 2ac 2ab'
loop_
_symmetry_equiv_pos_site_id
_symmetry_equiv_pos_as_xyz
1 x,y,z
2 1/2-x,-y,1/2+z
3 1/2+x,1/2-y,-z
4 -x,1/2+y,1/2-z
5 -x,-y,-z
6 1/2+x,y,1/2-z
7 1/2-x,1/2+y,z
8 x,1/2-y,1/2+z
_cell_length_a                   7.5547(4)
_cell_length_b                   7.4478(6)
_cell_length_c                   27.982(1)
_cell_angle_alpha                90
_cell_angle_beta                 90
_cell_angle_gamma                90
_cell_volume                     1574.43
loop_
_atom_site_label
_atom_site_type_symbol
_atom_site_fract_x
_atom_site_fract_y
_atom_site_fract_z
Cu1 Cu -0.19128(8) -0.06378(9) -0.01038(2)
P1 P -0.4540(2) 0.1547(2) 0.05684(5)
O1 O -0.0729(6) -0.1746(6) -0.0666(1)
O2 O -0.2736(5) 0.0766(5) 0.0443(1)
O3 O -0.6009(5) 0.0195(5) 0.0481(1)
O4 O -0.4928(5) 0.3289(5) 0.0300(1)
C1 C -0.4560(7) 0.2038(8) 0.1197(2)
C2 C -0.5798(9) 0.321(1) 0.1380(2)
C3 C -0.588(1) 0.352(1) 0.1867(3)
C4 C -0.475(1) 0.267(1) 0.2170(2)
C5 C -0.352(1) 0.149(1) 0.1993(3)
C6 C -0.340(1) 0.116(1) 0.1507(2)
H1 H -0.664(9) 0.38(1) 0.118(2)
H2 H -0.66(1) 0.41(1) 0.196(3)
H3 H -0.48(1) 0.30(1) 0.247(3)
H4 H -0.27(1) 0.08(1) 0.219(2)
H5 H -0.26(1) 0.05(1) 0.139(2)
H6 H 0.05(1) -0.15(1) -0.063(2)
H7 H -0.08(1) -0.29(1) -0.062(3)
O4B O 0.0072(5) 0.1711(5) -0.0300(1)
O3D O -0.3991(5) -0.0195(5) -0.0481(1)
O4F O -0.0072(5) -0.1711(5) 0.0300(1)
Cu1D Cu -0.80872(8) 0.06378(9) 0.01038(2)
Cu1F Cu -0.30872(8) 0.43622(9) -0.01038(2)
Cu1B Cu -0.69128(8) 0.56378(9) 0.01038(2)
loop_
_geom_bond_atom_site_label_1
_geom_bond_atom_site_label_2
_geom_bond_site_symmetry_1
_geom_bond_site_symmetry_2
Cu1 O1 1_555 1_555
P1 O2 1_555 1_555
O1 H6 1_555 1_555
O2 Cu1 1_555 1_555
O3 P1 1_555 1_555
O4 P1 1_555 1_555
C1 P1 1_555 1_555
C2 C1 1_555 1_555
C3 C2 1_555 1_555
C4 C3 1_555 1_555
C5 C4 1_555 1_555
C6 C1 1_555 1_555
H1 C2 1_555 1_555
H2 C3 1_555 1_555
H3 C4 1_555 1_555
H4 C5 1_555 1_555
H5 C6 1_555 1_555
H7 O1 1_555 1_555
O4B Cu1 1_555 1_555
O3D Cu1 1_555 1_555
O4F Cu1 1_555 1_555
Cu1D O3 1_555 1_555
Cu1F O4 1_555 1_555
Cu1B O4 1_555 1_555
C5 C6 1_555 1_555

#END
