
#######################################################################
#
#                 Cambridge Crystallographic Data Centre
#                                CCDC 
#
#######################################################################
#
# If this CIF has been generated from an entry in the Cambridge 
# Structural Database, then it will include bibliographic, chemical, 
# crystal, experimental, refinement or atomic coordinate data resulting 
# from the CCDC's data processing and validation procedures.
#
#######################################################################

data_VUKPIB
_symmetry_cell_setting           orthorhombic
_symmetry_space_group_name_H-M   'P b c a'
_symmetry_Int_Tables_number      61
_space_group_name_Hall           '-P 2ac 2ab'
loop_
_symmetry_equiv_pos_site_id
_symmetry_equiv_pos_as_xyz
1 x,y,z
2 1/2-x,-y,1/2+z
3 -x,1/2+y,1/2-z
4 1/2+x,1/2-y,-z
5 -x,-y,-z
6 1/2+x,y,1/2-z
7 x,1/2-y,1/2+z
8 1/2-x,1/2+y,z
_cell_length_a                   5.8209(4)
_cell_length_b                   10.0529(8)
_cell_length_c                   24.9876(19)
_cell_angle_alpha                90
_cell_angle_beta                 90
_cell_angle_gamma                90
_cell_volume                     1462.2
loop_
_atom_site_label
_atom_site_type_symbol
_atom_site_fract_x
_atom_site_fract_y
_atom_site_fract_z
O1 O 0.2123(5) -0.1596(3) 0.34187(11)
Sc1 Sc 0.29687(13) -0.30573(8) 0.28039(3)
S1 S 0.05660(19) -0.06348(11) 0.36621(4)
O2 O 0.1033(5) 0.0711(3) 0.34681(11)
O3 O -0.1807(5) -0.0994(3) 0.36143(12)
O4 O 0.4910(5) -0.4084(3) 0.22570(13)
O5 O 0.6040(4) -0.2000(3) 0.27392(10)
C1 C 0.1218(7) -0.0622(4) 0.43520(15)
C2 C 0.3079(7) -0.1318(4) 0.45215(16)
H1 H 0.4036 -0.1730 0.4274
C3 C -0.2156(7) 0.0829(4) 0.45628(16)
H2 H -0.2460 0.0942 0.4200
C4 C -0.0261(7) 0.0058(4) 0.47208(15)
C5 C 0.3559(7) -0.1416(4) 0.50697(17)
H3 H 0.4845 -0.1885 0.5184
H4 H 0.6703 -0.1969 0.3014
H5 H 0.4876 -0.4829 0.2100
O1D O -0.2123(5) 0.1596(3) 0.65813(11)
Sc1D Sc -0.29687(13) 0.30573(8) 0.71961(3)
Sc1G Sc 0.20313(13) 0.19427(8) 0.28039(3)
Sc1E Sc 0.79687(13) -0.30573(8) 0.21961(3)
Sc1C Sc -0.20313(13) -0.19427(8) 0.71961(3)
Sc1E_2 Sc -0.20313(13) -0.30573(8) 0.21961(3)
S1D S -0.05660(19) 0.06348(11) 0.63379(4)
O2D O -0.1033(5) -0.0711(3) 0.65319(11)
O2G O 0.3967(5) -0.4289(3) 0.34681(11)
O2C O -0.3967(5) 0.4289(3) 0.65319(11)
O3D O 0.1807(5) 0.0994(3) 0.63857(12)
O4E O -0.0090(5) -0.4084(3) 0.27430(13)
O4D O -0.4910(5) 0.4084(3) 0.77430(13)
O4A O 0.0090(5) 0.4084(3) 0.72570(13)
O5E O 0.1040(4) -0.2000(3) 0.22608(10)
O5D O -0.6040(4) 0.2000(3) 0.72608(10)
O5A O -0.1040(4) 0.2000(3) 0.77392(10)
C1D C -0.1218(7) 0.0622(4) 0.56480(15)
C2D C -0.3079(7) 0.1318(4) 0.54785(16)
H1D H -0.4036 0.1730 0.5726
C3D C 0.2156(7) -0.0829(4) 0.54372(16)
H2D H 0.2460 -0.0942 0.5800
C4D C 0.0261(7) -0.0058(4) 0.52792(15)
C5D C -0.3559(7) 0.1416(4) 0.49303(17)
H3D H -0.4845 0.1885 0.4816
H4E H 0.1703 -0.1969 0.1986
H4D H -0.6703 0.1969 0.6986
H4A H -0.1703 0.1969 0.8014
H5E H -0.0124 -0.4829 0.2900
H5D H -0.4876 0.4829 0.7900
H5A H 0.0124 0.4829 0.7100
loop_
_geom_bond_atom_site_label_1
_geom_bond_atom_site_label_2
_geom_bond_site_symmetry_1
_geom_bond_site_symmetry_2
O1 Sc1 1_555 1_555
Sc1 O4 1_555 1_555
S1 O1 1_555 1_555
O2 S1 1_555 1_555
O3 S1 1_555 1_555
O4 H5 1_555 1_555
O5 Sc1 1_555 1_555
C1 S1 1_555 1_555
C2 C1 1_555 1_555
H1 C2 1_555 1_555
C3 H2 1_555 1_555
C4 C1 1_555 1_555
C5 C2 1_555 1_555
H3 C5 1_555 1_555
H4 O5 1_555 1_555
O1D Sc1D 1_555 1_555
Sc1D O2C 1_555 1_555
Sc1G O2 1_555 1_555
Sc1E O4 1_555 1_555
Sc1C O2D 1_555 1_555
Sc1E_2 O4E 1_555 1_555
S1D O1D 1_555 1_555
O2D S1D 1_555 1_555
O2G Sc1 1_555 1_555
O3D S1D 1_555 1_555
O4E Sc1 1_555 1_555
O4D Sc1D 1_555 1_555
O4A Sc1D 1_555 1_555
O5E Sc1 1_555 1_555
O5D Sc1D 1_555 1_555
O5A Sc1D 1_555 1_555
C1D S1D 1_555 1_555
C2D C1D 1_555 1_555
H1D C2D 1_555 1_555
C3D C5 1_555 1_555
H2D C3D 1_555 1_555
C4D C4 1_555 1_555
C5D C3 1_555 1_555
H3D C5D 1_555 1_555
H4E O5E 1_555 1_555
H4D O5D 1_555 1_555
H4A O5A 1_555 1_555
H5E O4E 1_555 1_555
H5D O4D 1_555 1_555
H5A O4A 1_555 1_555
O5 Sc1E 1_555 1_555
C3 C4 1_555 1_555
Sc1E_2 O5E 1_555 1_555
C1D C4D 1_555 1_555
C2D C5D 1_555 1_555
C3D C4D 1_555 1_555

#END
