
#######################################################################
#
#                 Cambridge Crystallographic Data Centre
#                                CCDC 
#
#######################################################################
#
# If this CIF has been generated from an entry in the Cambridge 
# Structural Database, then it will include bibliographic, chemical, 
# crystal, experimental, refinement or atomic coordinate data resulting 
# from the CCDC's data processing and validation procedures.
#
#######################################################################

data_VUKPOH
_symmetry_cell_setting           triclinic
_symmetry_space_group_name_H-M   'P -1'
_symmetry_Int_Tables_number      2
_space_group_name_Hall           '-P 1'
loop_
_symmetry_equiv_pos_site_id
_symmetry_equiv_pos_as_xyz
1 x,y,z
2 -x,-y,-z
_cell_length_a                   5.2459(7)
_cell_length_b                   10.8963(14)
_cell_length_c                   13.2466(17)
_cell_angle_alpha                86.026(2)
_cell_angle_beta                 81.604(2)
_cell_angle_gamma                85.685(2)
_cell_volume                     745.643
loop_
_atom_site_label
_atom_site_type_symbol
_atom_site_fract_x
_atom_site_fract_y
_atom_site_fract_z
Sc1 Sc 1.4021(3) 0.63263(14) 0.44381(11)
Sc2 Sc 1.0771(3) 0.86535(14) 0.55651(12)
S1 S 0.9668(4) 0.6863(2) 0.27352(16)
S2 S 0.5084(4) 0.8147(2) 0.72809(16)
O1 O 1.2184(11) 0.6463(6) 0.3042(4)
O2 O 0.7585(12) 0.6332(6) 0.3441(5)
O3 O 0.9302(13) 0.8176(6) 0.2569(5)
O4 O 0.7139(12) 0.8737(6) 0.6610(5)
O5 O 0.5596(13) 0.6841(6) 0.7478(5)
O6 O 0.2562(11) 0.8432(6) 0.6922(4)
O7 O 1.4208(11) 0.8171(5) 0.4677(4)
H1 H 1.5551 0.8672 0.4436
O8 O 1.0545(11) 0.6814(5) 0.5300(4)
H2 H 0.9178 0.6319 0.5521
O9 O 1.4068(11) 0.4409(5) 0.4349(4)
H3 H 1.3392 0.3981 0.3877
O10 O 1.1093(11) 1.0554(5) 0.5629(4)
H4 H 1.1886 1.0952 0.6086
C1 C 0.9537(17) 0.6229(8) 0.1559(7)
C2 C 0.7463(17) 0.6704(9) 0.1000(7)
H5 H 0.6285 0.7327 0.1256
C3 C 0.7261(18) 0.6227(9) 0.0097(8)
H6 H 0.5967 0.6539 -0.0279
C4 C 0.9019(17) 0.5256(9) -0.0272(7)
C5 C 1.1188(19) 0.5282(9) 0.1213(7)
H7 H 1.2478 0.4976 0.1592
C6 C 0.4704(17) 0.8823(8) 0.8467(7)
C7 C 0.2641(16) 0.8461(8) 0.9221(7)
H8 H 0.1534 0.7889 0.9076
C8 C 0.2279(17) 0.8948(9) 1.0153(7)
H9 H 0.0908 0.8718 1.0640
C9 C 0.3985(18) 0.9809(8) 1.0388(7)
C10 C 0.6363(17) 0.9677(8) 0.8652(7)
H10 H 0.7695 0.9911 0.8148
Sc1A Sc 0.5979(3) 0.36737(14) -0.44381(11)
Sc1_2 Sc 0.4021(3) 0.63263(14) 0.44381(11)
Sc1A_2 Sc 1.5979(3) 0.36737(14) 0.55619(11)
Sc1A_3 Sc 1.5979(3) 0.36737(14) -0.44381(11)
Sc2A Sc -0.0771(3) 1.13465(14) 1.44349(12)
Sc2_2 Sc 0.0771(3) 0.86535(14) 0.55651(12)
Sc2A_2 Sc 0.9229(3) 1.13465(14) 0.44349(12)
Sc2A_3 Sc 0.9229(3) 1.13465(14) 1.44349(12)
Sc2A_4 Sc 0.9229(3) 0.13465(14) -0.55651(12)
S1A S 1.0332(4) 0.3137(2) -0.27352(16)
S2A S 0.4916(4) 1.1853(2) 1.27191(16)
O1A O 0.7816(11) 0.3537(6) -0.3042(4)
O2A O 1.2415(12) 0.3668(6) -0.3441(5)
O2_2 O 1.7585(12) 0.6332(6) 0.3441(5)
O2A_2 O 0.2415(12) 0.3668(6) -0.3441(5)
O3A O 1.0698(13) 0.1824(6) -0.2569(5)
O4A O 0.2861(12) 1.1263(6) 1.3390(5)
O5A O 0.4404(13) 1.3159(6) 1.2522(5)
O6A O 0.7438(11) 1.1568(6) 1.3078(4)
O6_2 O 1.2562(11) 0.8432(6) 0.6922(4)
O6A_2 O -0.2562(11) 1.1568(6) 1.3078(4)
O7A O 0.5792(11) 0.1829(5) -0.4677(4)
O7A_2 O -0.4208(11) 1.1829(5) 1.5323(4)
H1A H 0.4449 0.1328 -0.4436
H1A_2 H -0.5551 1.1328 1.5564
O8A O 0.9455(11) 0.3186(5) -0.5300(4)
O8A_2 O -0.0545(11) 1.3186(5) 1.4700(4)
H2A H 1.0822 0.3681 -0.5521
H2A_2 H 0.0822 1.3681 1.4479
O9A O 1.5932(11) 0.5591(5) 0.5651(4)
O9A_2 O 0.5932(11) 0.5591(5) -0.4349(4)
O9_2 O 0.4068(11) 0.4409(5) -0.5651(4)
H3A H 1.6608 0.6019 0.6123
H3A_2 H 0.6608 0.6019 -0.3877
H3_2 H 0.3392 0.3981 -0.6123
O10A O 0.8907(11) 0.9446(5) 0.4371(4)
O10A_2 O -0.1093(11) 0.9446(5) 1.4371(4)
O10_2 O 0.1093(11) 1.0554(5) 1.5629(4)
H4A H 0.8114 0.9048 0.3914
H4A_2 H -0.1886 0.9048 1.3914
H4_2 H 0.1886 1.0952 1.6086
C1A C 1.0463(17) 0.3771(8) -0.1559(7)
C2A C 1.2537(17) 0.3296(9) -0.1000(7)
H5A H 1.3715 0.2673 -0.1256
C3A C 1.2739(18) 0.3773(9) -0.0097(8)
H6A H 1.4033 0.3461 0.0279
C4A C 1.0981(17) 0.4744(9) 0.0272(7)
C5A C 0.8812(19) 0.4718(9) -0.1213(7)
H7A H 0.7522 0.5024 -0.1592
C6A C 0.5296(17) 1.1177(8) 1.1533(7)
C7A C 0.7359(16) 1.1539(8) 1.0779(7)
H8A H 0.8466 1.2111 1.0924
C8A C 0.7721(17) 1.1052(9) 0.9847(7)
H9A H 0.9092 1.1282 0.9360
C9A C 0.6015(18) 1.0191(8) 0.9612(7)
C10A C 0.3637(17) 1.0323(8) 1.1348(7)
H10A H 0.2305 1.0089 1.1852
loop_
_geom_bond_atom_site_label_1
_geom_bond_atom_site_label_2
_geom_bond_site_symmetry_1
_geom_bond_site_symmetry_2
Sc1 O1 1_555 1_555
Sc2 O4 1_555 1_555
S1 O1 1_555 1_555
S2 O4 1_555 1_555
O2 S1 1_555 1_555
O3 S1 1_555 1_555
O5 S2 1_555 1_555
O6 S2 1_555 1_555
O7 Sc1 1_555 1_555
H1 O7 1_555 1_555
O8 Sc1 1_555 1_555
H2 O8 1_555 1_555
O9 Sc1 1_555 1_555
H3 O9 1_555 1_555
O10 Sc2 1_555 1_555
H4 O10 1_555 1_555
C1 S1 1_555 1_555
C2 C1 1_555 1_555
H5 C2 1_555 1_555
C3 C2 1_555 1_555
H6 C3 1_555 1_555
C4 C3 1_555 1_555
C5 C1 1_555 1_555
H7 C5 1_555 1_555
C6 S2 1_555 1_555
C7 C6 1_555 1_555
H8 C7 1_555 1_555
C8 C7 1_555 1_555
H9 C8 1_555 1_555
C9 C8 1_555 1_555
C10 C6 1_555 1_555
H10 C10 1_555 1_555
Sc1A O1A 1_555 1_555
Sc1_2 O2 1_555 1_555
Sc1A_2 O9 1_555 1_555
Sc1A_3 O2A 1_555 1_555
Sc2A O4A 1_555 1_555
Sc2_2 O6 1_555 1_555
Sc2A_2 O10 1_555 1_555
Sc2A_3 O6A 1_555 1_555
Sc2A_4 O7A 1_555 1_555
S1A O1A 1_555 1_555
S2A O4A 1_555 1_555
O2A S1A 1_555 1_555
O2_2 Sc1 1_555 1_555
O2A_2 Sc1A 1_555 1_555
O3A S1A 1_555 1_555
O5A S2A 1_555 1_555
O6A S2A 1_555 1_555
O6_2 Sc2 1_555 1_555
O6A_2 Sc2A 1_555 1_555
O7A Sc1A 1_555 1_555
O7A_2 Sc2A 1_555 1_555
H1A O7A 1_555 1_555
H1A_2 O7A_2 1_555 1_555
O8A Sc1A 1_555 1_555
O8A_2 Sc2A 1_555 1_555
H2A O8A 1_555 1_555
H2A_2 O8A_2 1_555 1_555
O9A Sc1 1_555 1_555
O9A_2 Sc1A 1_555 1_555
O9_2 Sc1A 1_555 1_555
H3A O9A 1_555 1_555
H3A_2 O9A_2 1_555 1_555
H3_2 O9_2 1_555 1_555
O10A Sc2 1_555 1_555
O10A_2 Sc2A 1_555 1_555
O10_2 Sc2A 1_555 1_555
H4A O10A 1_555 1_555
H4A_2 O10A_2 1_555 1_555
H4_2 O10_2 1_555 1_555
C1A S1A 1_555 1_555
C2A C1A 1_555 1_555
H5A C2A 1_555 1_555
C3A C2A 1_555 1_555
H6A C3A 1_555 1_555
C4A C4 1_555 1_555
C5A C4 1_555 1_555
H7A C5A 1_555 1_555
C6A S2A 1_555 1_555
C7A C6A 1_555 1_555
H8A C7A 1_555 1_555
C8A C7A 1_555 1_555
H9A C8A 1_555 1_555
C9A C9 1_555 1_555
C10A C9 1_555 1_555
H10A C10A 1_555 1_555
Sc2 O7 1_555 1_555
Sc2 O8 1_555 1_555
C5 C4A 1_555 1_555
C10 C9A 1_555 1_555
Sc1A_2 O9A 1_555 1_555
Sc2A_2 O10A 1_555 1_555
Sc2A_4 O8A 1_555 1_555
C1A C5A 1_555 1_555
C3A C4A 1_555 1_555
C6A C10A 1_555 1_555
C8A C9A 1_555 1_555

#END
