
#######################################################################
#
#                 Cambridge Crystallographic Data Centre
#                                CCDC 
#
#######################################################################
#
# If this CIF has been generated from an entry in the Cambridge 
# Structural Database, then it will include bibliographic, chemical, 
# crystal, experimental, refinement or atomic coordinate data resulting 
# from the CCDC's data processing and validation procedures.
#
#######################################################################

data_VUKPUN
_symmetry_cell_setting           monoclinic
_symmetry_space_group_name_H-M   'P 21/n'
_symmetry_Int_Tables_number      14
_space_group_name_Hall           '-P 2yn'
loop_
_symmetry_equiv_pos_site_id
_symmetry_equiv_pos_as_xyz
1 x,y,z
2 1/2-x,1/2+y,1/2-z
3 -x,-y,-z
4 1/2+x,1/2-y,1/2+z
_cell_length_a                   7.6693(5)
_cell_length_b                   7.8627(5)
_cell_length_c                   21.0191(13)
_cell_angle_alpha                90
_cell_angle_beta                 91.607(1)
_cell_angle_gamma                90
_cell_volume                     1266.98
loop_
_atom_site_label
_atom_site_type_symbol
_atom_site_fract_x
_atom_site_fract_y
_atom_site_fract_z
Y1 Y 0.83252(4) 0.33623(4) 0.008699(14)
O1 O 0.7036(3) 0.5053(3) 0.08272(10)
O2 O 0.6551(3) 0.8011(3) 0.05757(11)
O3 O 0.4130(3) 0.6051(3) 0.06075(11)
S1 S 0.58531(10) 0.65133(10) 0.08605(3)
C1 C 0.5641(4) 0.6943(4) 0.16867(14)
C2 C 0.6103(4) 0.8516(4) 0.18984(15)
H1 H 0.6511 0.9322 0.1615
C3 C 0.5965(4) 0.8928(4) 0.25499(16)
H2 H 0.6270 1.0010 0.2693
C4 C 0.5049(4) 0.5652(4) 0.21090(14)
C5 C 0.4572(4) 0.3980(4) 0.19061(15)
H3 H 0.4611 0.3704 0.1476
C6 C 0.4389(4) 0.4759(4) 0.31957(14)
C7 C 0.3969(4) 0.3162(4) 0.29799(15)
H4 H 0.3622 0.2330 0.3264
C8 C 0.4064(4) 0.2784(4) 0.23282(15)
H5 H 0.3774 0.1699 0.2184
C9 C 0.4934(4) 0.6069(4) 0.27682(15)
C10 C 0.5386(4) 0.7749(4) 0.29685(15)
H6 H 0.5283 0.8045 0.3394
S2 S 0.40478(10) 0.51998(9) 0.40135(4)
O4 O 0.5601(3) 0.6060(3) 0.42668(10)
O5 O 0.2489(3) 0.6213(3) 0.40441(11)
O6 O 0.3865(3) 0.3520(3) 0.43053(10)
O7 O 1.0880(3) 0.4363(3) 0.04563(12)
H7 H 1.167(6) 0.382(6) 0.074(2)
O8 O 0.6077(3) 0.1539(3) 0.04476(13)
H8 H 0.627(6) 0.059(3) 0.054(2)
H9 H 0.508(3) 0.165(7) 0.037(3)
Y1B Y 0.16748(4) 0.66377(4) -0.008699(14)
Y1A Y 0.66748(4) 0.83623(4) 0.491301(14)
Y1C Y 0.33252(4) 0.16377(4) 0.508699(14)
Y1B_2 Y 1.16748(4) 0.66377(4) -0.008699(14)
O3B O 0.5870(3) 0.3949(3) -0.06075(11)
O4A O 0.9399(3) 0.1060(3) 0.07332(10)
O6C O 0.8865(3) 0.1480(3) -0.06947(10)
O7B O 0.9120(3) 0.5637(3) -0.04563(12)
H7B H 0.833(6) 0.618(6) -0.074(2)
loop_
_geom_bond_atom_site_label_1
_geom_bond_atom_site_label_2
_geom_bond_site_symmetry_1
_geom_bond_site_symmetry_2
Y1 O1 1_555 1_555
O1 S1 1_555 1_555
O2 S1 1_555 1_555
O3 S1 1_555 1_555
S1 C1 1_555 1_555
C1 C2 1_555 1_555
C2 H1 1_555 1_555
C3 C2 1_555 1_555
H2 C3 1_555 1_555
C4 C1 1_555 1_555
C5 C4 1_555 1_555
H3 C5 1_555 1_555
C6 C7 1_555 1_555
C7 H4 1_555 1_555
C8 C5 1_555 1_555
H5 C8 1_555 1_555
C9 C4 1_555 1_555
C10 C3 1_555 1_555
H6 C10 1_555 1_555
S2 C6 1_555 1_555
O4 S2 1_555 1_555
O5 S2 1_555 1_555
O6 S2 1_555 1_555
O7 Y1 1_555 1_555
H7 O7 1_555 1_555
O8 Y1 1_555 1_555
H8 O8 1_555 1_555
H9 O8 1_555 1_555
Y1B O3 1_555 1_555
Y1A O4 1_555 1_555
Y1C O6 1_555 1_555
Y1B_2 O7 1_555 1_555
O3B Y1 1_555 1_555
O4A Y1 1_555 1_555
O6C Y1 1_555 1_555
O7B Y1 1_555 1_555
H7B O7B 1_555 1_555
C6 C9 1_555 1_555
C7 C8 1_555 1_555
C9 C10 1_555 1_555
Y1B_2 O7B 1_555 1_555

#END
