
#######################################################################
#
#                 Cambridge Crystallographic Data Centre
#                                CCDC 
#
#######################################################################
#
# If this CIF has been generated from an entry in the Cambridge 
# Structural Database, then it will include bibliographic, chemical, 
# crystal, experimental, refinement or atomic coordinate data resulting 
# from the CCDC's data processing and validation procedures.
#
#######################################################################

data_VUKRUQ
_symmetry_cell_setting           triclinic
_symmetry_space_group_name_H-M   'P 1'
_symmetry_Int_Tables_number      1
_space_group_name_Hall           'P 1'
loop_
_symmetry_equiv_pos_site_id
_symmetry_equiv_pos_as_xyz
1 x,y,z
_cell_length_a                   9.4778
_cell_length_b                   11.0657
_cell_length_c                   12.6936
_cell_angle_alpha                101.5443
_cell_angle_beta                 92.0654
_cell_angle_gamma                100.5905
_cell_volume                     1278.47
loop_
_atom_site_label
_atom_site_type_symbol
_atom_site_fract_x
_atom_site_fract_y
_atom_site_fract_z
Ni1 Ni 0.16762 1.26634 0.45472
O1 O 1.17891 1.33750 0.33319
O2 O 0.94241 1.32701 0.34025
O3 O -0.01729 0.42277 0.57072
O4 O -0.15006 1.13530 0.39358
N1 N 0.39763 1.27416 0.46495
C1 C 0.47585 1.38077 0.55282
C2 C 0.43346 1.15698 0.49226
C3 C 0.46190 1.28903 0.36587
C4 C 1.05472 1.33326 0.28688
C5 C 1.02585 1.30700 0.16880
C6 C 1.13788 1.30878 0.09943
C7 C 1.10805 1.28107 -0.01338
C8 C 1.21885 1.27357 -0.08307
C9 C 0.88354 1.28607 0.12371
C10 C 0.10459 0.47049 0.54628
C11 C 0.09296 0.59148 0.51038
C12 C -0.02274 0.64690 0.53471
C13 C -0.03315 0.75185 0.49904
C14 C -0.15587 0.80617 0.51735
C15 C 0.21003 0.64331 0.46055
Ni2 Ni 0.90480 1.27367 0.47709
O5 O 0.89928 1.20551 -0.40268
O6 O 1.13389 1.20893 -0.41075
O7 O 0.07654 1.11792 0.35972
O8 O 0.20942 0.40232 0.54307
N2 N 0.68241 1.27989 0.47625
C16 C 0.63982 1.38541 0.56091
C17 C 0.59511 1.16591 0.49853
C18 C 0.62228 1.29490 0.37034
C19 C 1.02195 1.20694 -0.35689
C20 C 1.04759 1.23516 -0.23910
C21 C 0.93504 1.23866 -0.16991
C22 C 0.96457 1.26022 -0.05746
C23 C 0.85347 1.26307 0.01186
C24 C 1.18887 1.25014 -0.19449
C25 C -0.04779 1.08188 0.38866
C26 C -0.05467 0.95598 0.42108
C27 C 0.06543 0.90795 0.40294
C28 C 0.08061 0.80479 0.44328
C29 C 0.20049 0.74998 0.42246
C30 C -0.16878 0.90868 0.47533
H1 H 1.24731 1.32445 0.13339
H2 H 1.32876 1.28590 -0.05168
H3 H 0.79504 1.28629 0.17470
H4 H 0.82540 1.22791 -0.20334
H5 H 0.74303 1.24300 -0.02099
H6 H 1.27664 1.24580 -0.24588
H7 H -0.10856 0.60419 0.58449
H8 H -0.24309 0.76471 0.56671
H9 H 0.30869 0.59768 0.45250
H10 H 0.15169 0.95324 0.35486
H11 H 0.28977 0.79176 0.37486
H12 H -0.26702 0.95489 0.48321
H13 H 0.43175 1.36886 0.63328
H14 H 0.45701 1.47402 0.53559
H15 H 0.38063 1.07214 0.42730
H16 H 0.39154 1.14542 0.57344
H17 H 0.43893 1.37910 0.34436
H18 H 0.41147 1.20615 0.29831
H19 H 0.69802 1.48042 0.54791
H20 H 0.67305 1.37467 0.64524
H21 H 0.63097 1.15647 0.58271
H22 H 0.61484 1.08056 0.43817
H23 H 0.64700 1.21735 0.30399
H24 H 0.67530 1.38997 0.35428
Ni1_2 Ni 0.16762 0.26634 0.45472
Ni1_3 Ni 1.16762 1.26634 -0.54528
Ni1_4 Ni 1.16762 1.26634 0.45472
O1_2 O 0.17891 1.33750 0.33319
O3_2 O 0.98271 1.42277 0.57072
O4_2 O 0.84994 1.13530 0.39358
Ni2_2 Ni -0.09520 0.27367 0.47709
Ni2_3 Ni -0.09520 1.27367 0.47709
Ni2_4 Ni 0.90480 1.27367 -0.52291
O5_2 O 0.89928 1.20551 0.59732
O6_2 O 0.13389 1.20893 0.58925
O8_2 O 0.20942 1.40232 0.54307
C31 C -0.10482 1.60651 0.08007
C32 C 0.03316 1.56942 0.12023
H25 H -0.19071 1.51854 0.04524
H26 H -0.07699 1.66181 0.01512
H27 H -0.14891 1.66664 0.15013
H28 H 0.12109 1.65714 0.14604
H29 H 0.07039 1.50076 0.05252
H30 H 0.01016 1.52292 0.19187
C33 C 0.28805 0.08737 0.08651
C34 C 0.44379 0.11646 0.05426
H31 H 0.20896 0.10218 0.02189
H32 H 0.27956 0.15294 0.16585
H33 H 0.26034 -0.01456 0.09566
H34 H 0.52147 0.11159 0.12328
H35 H 0.46741 0.21478 0.03625
H36 H 0.45777 0.04455 -0.02064
C35 C 0.01783 0.51732 -1.18049
C36 C -0.13754 0.45887 -1.22717
H37 H 0.09187 0.53071 -1.24851
H38 H 0.05660 0.45174 -1.13301
H39 H 0.02005 0.61278 -1.12541
H40 H -0.20678 0.43648 -1.15934
H41 H -0.13798 0.36863 -1.28913
H42 H -0.18289 0.52822 -1.26758
C37 C 0.21813 0.96637 0.82519
C38 C 0.05881 0.97844 0.82271
H43 H 0.23774 0.89327 0.75213
H44 H 0.24598 0.93577 0.90203
H45 H 0.28862 1.06112 0.82325
H46 H 0.03889 1.04328 0.90025
H47 H -0.01219 0.88164 0.81546
H48 H 0.03177 1.01932 0.75060
C39 C -0.44757 0.62995 0.76312
C40 C -0.42626 0.55907 0.85343
H49 H -0.55110 0.58225 0.70994
H50 H -0.35186 0.62909 0.71229
H51 H -0.45552 0.73098 0.80026
H52 H -0.31723 0.60125 0.89967
H53 H -0.43051 0.45556 0.81658
H54 H -0.51528 0.56793 0.91089
C41 C 0.58089 -0.37972 -0.61968
C42 C 0.68338 -0.37912 -0.71107
H55 H 0.46577 -0.42700 -0.65369
H56 H 0.58274 -0.27887 -0.57788
H57 H 0.61827 -0.43371 -0.55981
H58 H 0.79428 -0.32260 -0.67709
H59 H 0.63930 -0.33450 -0.77549
H60 H 0.69245 -0.47981 -0.74830
C43 C 0.43408 0.94194 0.24887
C44 C 0.50945 0.86322 0.31174
H61 H 0.31266 0.92371 0.25883
H62 H 0.45341 0.91422 0.16056
H63 H 0.48038 1.04615 0.28069
H64 H 0.62751 0.87435 0.29360
H65 H 0.45498 0.75998 0.28629
H66 H 0.50165 0.89707 0.40188
C45 C -0.54225 0.78769 -0.39565
C46 C -0.47200 0.91600 -0.32445
H67 H -0.57067 0.79824 -0.48154
H68 H -0.64382 0.74975 -0.35894
H69 H -0.46426 0.72008 -0.39915
H70 H -0.45571 0.90554 -0.23755
H71 H -0.54488 0.98653 -0.32829
H72 H -0.36338 0.95092 -0.35482
C47 C -0.19705 -0.05007 0.14129
C48 C -0.31179 -0.14012 0.05891
H73 H -0.13115 -0.10570 0.18417
H74 H -0.25368 0.00927 0.20272
H75 H -0.12138 0.01287 0.09795
H76 H -0.38386 -0.08376 0.02383
H77 H -0.37982 -0.20998 0.10066
H78 H -0.25664 -0.19326 -0.00873
loop_
_geom_bond_atom_site_label_1
_geom_bond_atom_site_label_2
_geom_bond_site_symmetry_1
_geom_bond_site_symmetry_2
Ni1 N1 1_555 1_555
O1 C4 1_555 1_555
O2 C4 1_555 1_555
O3 C10 1_555 1_555
O4 C25 1_555 1_555
N1 C1 1_555 1_555
C1 C16 1_555 1_555
C2 N1 1_555 1_555
C3 N1 1_555 1_555
C4 C5 1_555 1_555
C5 C6 1_555 1_555
C6 C7 1_555 1_555
C7 C8 1_555 1_555
C8 C24 1_555 1_555
C9 C5 1_555 1_555
C10 C11 1_555 1_555
C11 C12 1_555 1_555
C12 C13 1_555 1_555
C13 C14 1_555 1_555
C14 C30 1_555 1_555
C15 C11 1_555 1_555
Ni2 O2 1_555 1_555
O5 C19 1_555 1_555
O6 C19 1_555 1_555
O7 Ni1 1_555 1_555
O8 C10 1_555 1_555
N2 Ni2 1_555 1_555
C16 N2 1_555 1_555
C17 C2 1_555 1_555
C18 C3 1_555 1_555
C19 C20 1_555 1_555
C20 C21 1_555 1_555
C21 C22 1_555 1_555
C22 C7 1_555 1_555
C23 C9 1_555 1_555
C24 C20 1_555 1_555
C25 O7 1_555 1_555
C26 C25 1_555 1_555
C27 C26 1_555 1_555
C28 C13 1_555 1_555
C29 C15 1_555 1_555
C30 C26 1_555 1_555
H1 C6 1_555 1_555
H2 C8 1_555 1_555
H3 C9 1_555 1_555
H4 C21 1_555 1_555
H5 C23 1_555 1_555
H6 C24 1_555 1_555
H7 C12 1_555 1_555
H8 C14 1_555 1_555
H9 C15 1_555 1_555
H10 C27 1_555 1_555
H11 C29 1_555 1_555
H12 C30 1_555 1_555
H13 C1 1_555 1_555
H14 C1 1_555 1_555
H15 C2 1_555 1_555
H16 C2 1_555 1_555
H17 C3 1_555 1_555
H18 C3 1_555 1_555
H19 C16 1_555 1_555
H20 C16 1_555 1_555
H21 C17 1_555 1_555
H22 C17 1_555 1_555
H23 C18 1_555 1_555
H24 C18 1_555 1_555
C31 C32 1_555 1_555
C32 H28 1_555 1_555
H25 C31 1_555 1_555
H26 C31 1_555 1_555
H27 C31 1_555 1_555
H29 C32 1_555 1_555
H30 C32 1_555 1_555
C33 C34 1_555 1_555
C34 H34 1_555 1_555
H31 C33 1_555 1_555
H32 C33 1_555 1_555
H33 C33 1_555 1_555
H35 C34 1_555 1_555
H36 C34 1_555 1_555
C35 C36 1_555 1_555
C36 H40 1_555 1_555
H37 C35 1_555 1_555
H38 C35 1_555 1_555
H39 C35 1_555 1_555
H41 C36 1_555 1_555
H42 C36 1_555 1_555
C37 C38 1_555 1_555
C38 H46 1_555 1_555
H43 C37 1_555 1_555
H44 C37 1_555 1_555
H45 C37 1_555 1_555
H47 C38 1_555 1_555
H48 C38 1_555 1_555
C39 C40 1_555 1_555
C40 H52 1_555 1_555
H49 C39 1_555 1_555
H50 C39 1_555 1_555
H51 C39 1_555 1_555
H53 C40 1_555 1_555
H54 C40 1_555 1_555
C41 C42 1_555 1_555
C42 H58 1_555 1_555
H55 C41 1_555 1_555
H56 C41 1_555 1_555
H57 C41 1_555 1_555
H59 C42 1_555 1_555
H60 C42 1_555 1_555
C43 C44 1_555 1_555
C44 H64 1_555 1_555
H61 C43 1_555 1_555
H62 C43 1_555 1_555
H63 C43 1_555 1_555
H65 C44 1_555 1_555
H66 C44 1_555 1_555
C45 C46 1_555 1_555
C46 H70 1_555 1_555
H67 C45 1_555 1_555
H68 C45 1_555 1_555
H69 C45 1_555 1_555
H71 C46 1_555 1_555
H72 C46 1_555 1_555
C47 C48 1_555 1_555
C48 H76 1_555 1_555
H73 C47 1_555 1_555
H74 C47 1_555 1_555
H75 C47 1_555 1_555
H77 C48 1_555 1_555
H78 C48 1_555 1_555
Ni1_2 O8 1_555 1_555
Ni1_3 O6 1_555 1_555
Ni1_4 O1 1_555 1_555
O1_2 Ni1 1_555 1_555
O3_2 Ni2 1_555 1_555
O4_2 Ni2 1_555 1_555
Ni2_2 O3 1_555 1_555
Ni2_3 O4 1_555 1_555
Ni2_4 O5 1_555 1_555
O5_2 Ni2 1_555 1_555
O6_2 Ni1 1_555 1_555
O8_2 Ni1 1_555 1_555
N2 C17 1_555 1_555
N2 C18 1_555 1_555
C22 C23 1_555 1_555
C27 C28 1_555 1_555
C28 C29 1_555 1_555

#END
