
#######################################################################
#
#                 Cambridge Crystallographic Data Centre
#                                CCDC 
#
#######################################################################
#
# If this CIF has been generated from an entry in the Cambridge 
# Structural Database, then it will include bibliographic, chemical, 
# crystal, experimental, refinement or atomic coordinate data resulting 
# from the CCDC's data processing and validation procedures.
#
#######################################################################

data_VUKSOL
_symmetry_cell_setting           monoclinic
_symmetry_space_group_name_H-M   'P 21/c'
_symmetry_Int_Tables_number      14
_space_group_name_Hall           '-P 2ybc'
loop_
_symmetry_equiv_pos_site_id
_symmetry_equiv_pos_as_xyz
1 x,y,z
2 -x,1/2+y,1/2-z
3 -x,-y,-z
4 x,1/2-y,1/2+z
_cell_length_a                   9.3468(12)
_cell_length_b                   15.2267(8)
_cell_length_c                   17.6517(8)
_cell_angle_alpha                90
_cell_angle_beta                 95.599(8)
_cell_angle_gamma                90
_cell_volume                     2500.22
loop_
_atom_site_label
_atom_site_type_symbol
_atom_site_fract_x
_atom_site_fract_y
_atom_site_fract_z
Zn1 Zn -0.07258(8) 0.60963(5) 0.33770(4)
Zn2 Zn 0.0000 0.5000 0.5000
O1 O 0.7332(5) 0.5694(3) 0.3588(3)
O2 O 0.8032(5) 0.4622(4) 0.4418(4)
O3 O 0.4547(4) 0.5377(3) 0.3752(2)
O4 O 0.2034(6) 0.6203(4) 0.3270(3)
O5 O 0.0749(5) 0.5236(3) 0.3835(3)
O6 O -0.0584(6) 0.7192(3) 0.3983(3)
O7 O -0.0543(5) 0.6435(3) 0.5084(3)
O8 O -0.0839(5) 0.7988(3) 0.5854(2)
O9 O -0.1198(8) 0.9843(4) 0.7057(4)
O10 O -0.0899(5) 0.8434(4) 0.7332(3)
C1 C 0.7106(7) 0.5049(5) 0.4004(4)
C2 C 0.5586(7) 0.4797(5) 0.4036(4)
C3 C 0.4965(8) 0.4069(5) 0.4326(5)
H1 H 0.5438 0.3578 0.4542
C4 C 0.3451(7) 0.4214(5) 0.4229(4)
H2 H 0.2741 0.3837 0.4371
C5 C 0.3248(7) 0.5005(5) 0.3890(4)
C6 C 0.1959(7) 0.5543(5) 0.3647(4)
C7 C -0.0618(7) 0.7118(5) 0.4708(4)
C8 C -0.0840(8) 0.7986(5) 0.5079(4)
C9 C -0.1076(13) 0.8800(5) 0.4800(5)
H3 H -0.1136 0.8965 0.4290
C10 C -0.1215(12) 0.9355(6) 0.5426(5)
H4 H -0.1374 0.9958 0.5408
C11 C -0.1078(8) 0.8860(5) 0.6044(4)
C12 C -0.1047(8) 0.9074(5) 0.6869(4)
Zn1B Zn 0.07258(8) 0.39037(5) 0.66230(4)
O1B O -0.7332(5) 0.4306(3) 0.6412(3)
O2B O -0.8032(5) 0.5378(4) 0.5582(4)
O3B O -0.4547(4) 0.4623(3) 0.6248(2)
O4B O -0.2034(6) 0.3797(4) 0.6730(3)
O5B O -0.0749(5) 0.4764(3) 0.6165(3)
O6B O 0.0584(6) 0.2808(3) 0.6017(3)
O7B O 0.0543(5) 0.3565(3) 0.4916(3)
O8B O 0.0839(5) 0.2012(3) 0.4146(2)
O9B O 0.1198(8) 0.0157(4) 0.2943(4)
O10B O 0.0899(5) 0.1566(4) 0.2668(3)
C1B C -0.7106(7) 0.4951(5) 0.5996(4)
C2B C -0.5586(7) 0.5203(5) 0.5964(4)
C3B C -0.4965(8) 0.5931(5) 0.5674(5)
H1B H -0.5438 0.6422 0.5458
C4B C -0.3451(7) 0.5786(5) 0.5771(4)
H2B H -0.2741 0.6163 0.5629
C5B C -0.3248(7) 0.4995(5) 0.6110(4)
C6B C -0.1959(7) 0.4457(5) 0.6353(4)
C7B C 0.0618(7) 0.2882(5) 0.5292(4)
C8B C 0.0840(8) 0.2014(5) 0.4921(4)
C9B C 0.1076(13) 0.1200(5) 0.5200(5)
H3B H 0.1136 0.1035 0.5710
C10B C 0.1215(12) 0.0645(6) 0.4574(5)
H4B H 0.1374 0.0042 0.4592
C11B C 0.1078(8) 0.1140(5) 0.3956(4)
C12B C 0.1047(8) 0.0926(5) 0.3131(4)
Zn1_2 Zn 0.92742(8) 0.60963(5) 0.33770(4)
Zn1A Zn 0.07258(8) 0.10963(5) 0.16230(4)
Zn1B_2 Zn -0.92742(8) 0.39037(5) 0.66230(4)
Zn1C Zn -0.07258(8) 0.89037(5) 0.83770(4)
Zn2_2 Zn -1.0000 0.5000 0.5000
Zn2_3 Zn 1.0000 0.5000 0.5000
O1_2 O -0.2668(5) 0.5694(3) 0.3588(3)
O1B_2 O 0.2668(5) 0.4306(3) 0.6412(3)
O2_2 O -0.1968(5) 0.4622(4) 0.4418(4)
O2B_2 O 0.1968(5) 0.5378(4) 0.5582(4)
O10A O 0.0899(5) 0.3434(4) 0.7668(3)
O10C O -0.0899(5) 0.6566(4) 0.2332(3)
O11 O 0.239(2) 0.8595(14) 0.4044(13)
N1 N 0.451(2) 0.8085(14) 0.4447(13)
C13 C 0.329(3) 0.8100(18) 0.4079(16)
H5 H 0.3087 0.7606 0.3777
C14 C 0.543(3) 0.7544(12) 0.4077(13)
H6 H 0.5464 0.7746 0.3564
H7 H 0.5071 0.6952 0.4071
H8 H 0.6372 0.7562 0.4342
C15 C 0.500(3) 0.8909(18) 0.4878(16)
H9 H 0.5212 0.9357 0.4523
H10 H 0.5840 0.8783 0.5215
H11 H 0.4244 0.9110 0.5168
O12 O 0.431(2) 1.0800(14) 0.6997(11)
N2 N 0.4208(19) 0.9166(14) 0.6836(10)
C16 C 0.491(3) 1.0046(17) 0.7042(14)
H12 H 0.5884 1.0035 0.7217
C17 C 0.2780(19) 0.9108(17) 0.6459(12)
H13 H 0.2234 0.8689 0.6717
H14 H 0.2825 0.8925 0.5942
H15 H 0.2324 0.9673 0.6466
C18 C 0.496(2) 0.8451(14) 0.7056(11)
H16 H 0.5201 0.8134 0.6616
H17 H 0.4394 0.8083 0.7353
H18 H 0.5824 0.8622 0.7358
N4 N 0.0118(18) 0.8520(11) 0.1858(9)
H27 H -0.0307 0.8150 0.1516
H28 H 0.0236 0.9033 0.1631
C21 C 0.155(3) 0.8159(17) 0.2177(16)
H29 H 0.1409 0.7614 0.2433
H30 H 0.2014 0.8571 0.2531
H31 H 0.2142 0.8061 0.1770
C22 C -0.085(4) 0.864(3) 0.2550(18)
H32 H -0.0397 0.9058 0.2906
H33 H -0.0947 0.8089 0.2799
H34 H -0.1781 0.8856 0.2359
N3? N 0.0528(19) 0.8278(12) 0.2674(10)
H19? H 0.0857 0.8611 0.3067
H20? H 0.0572 0.7717 0.2816
C19? C 0.140(4) 0.8434(19) 0.1985(16)
H21? H 0.2406 0.8436 0.2153
H22? H 0.1132 0.8990 0.1756
H23? H 0.1195 0.7974 0.1618
C20? C -0.104(4) 0.854(3) 0.238(2)
H24? H -0.1599 0.8616 0.2799
H25? H -0.1459 0.8089 0.2047
H26? H -0.1025 0.9083 0.2098
loop_
_geom_bond_atom_site_label_1
_geom_bond_atom_site_label_2
_geom_bond_site_symmetry_1
_geom_bond_site_symmetry_2
Zn1 O5 1_555 1_555
Zn2 O5 1_555 1_555
O1 C1 1_555 1_555
O2 C1 1_555 1_555
O3 C2 1_555 1_555
O4 C6 1_555 1_555
O5 C6 1_555 1_555
O6 Zn1 1_555 1_555
O7 Zn2 1_555 1_555
O8 C8 1_555 1_555
O9 C12 1_555 1_555
O10 C12 1_555 1_555
C1 C2 1_555 1_555
C2 C3 1_555 1_555
C3 H1 1_555 1_555
C4 C3 1_555 1_555
H2 C4 1_555 1_555
C5 O3 1_555 1_555
C6 C5 1_555 1_555
C7 O6 1_555 1_555
C8 C7 1_555 1_555
C9 C8 1_555 1_555
H3 C9 1_555 1_555
C10 C9 1_555 1_555
H4 C10 1_555 1_555
C11 O8 1_555 1_555
C12 C11 1_555 1_555
O11 C13 1_555 1_555
N1 C13 1_555 1_555
C13 H5 1_555 1_555
C14 N1 1_555 1_555
H6 C14 1_555 1_555
H7 C14 1_555 1_555
H8 C14 1_555 1_555
C15 N1 1_555 1_555
H9 C15 1_555 1_555
H10 C15 1_555 1_555
H11 C15 1_555 1_555
O12 C16 1_555 1_555
N2 C16 1_555 1_555
C16 H12 1_555 1_555
C17 N2 1_555 1_555
H13 C17 1_555 1_555
H14 C17 1_555 1_555
H15 C17 1_555 1_555
C18 N2 1_555 1_555
H16 C18 1_555 1_555
H17 C18 1_555 1_555
H18 C18 1_555 1_555
N4 H27 1_555 1_555
H28 N4 1_555 1_555
C21 N4 1_555 1_555
H29 C21 1_555 1_555
H30 C21 1_555 1_555
H31 C21 1_555 1_555
C22 N4 1_555 1_555
H32 C22 1_555 1_555
H33 C22 1_555 1_555
H34 C22 1_555 1_555
Zn1B O5B 1_555 1_555
O1B C1B 1_555 1_555
O2B C1B 1_555 1_555
O3B C2B 1_555 1_555
O4B C6B 1_555 1_555
O5B Zn2 1_555 1_555
O6B Zn1B 1_555 1_555
O7B Zn2 1_555 1_555
O8B C8B 1_555 1_555
O9B C12B 1_555 1_555
O10B C12B 1_555 1_555
C1B C2B 1_555 1_555
C2B C3B 1_555 1_555
C3B H1B 1_555 1_555
C4B C3B 1_555 1_555
H2B C4B 1_555 1_555
C5B O3B 1_555 1_555
C6B O5B 1_555 1_555
C7B O6B 1_555 1_555
C8B C7B 1_555 1_555
C9B C8B 1_555 1_555
H3B C9B 1_555 1_555
C10B C9B 1_555 1_555
H4B C10B 1_555 1_555
C11B O8B 1_555 1_555
C12B C11B 1_555 1_555
Zn1_2 O1 1_555 1_555
Zn1A O10B 1_555 1_555
Zn1B_2 O1B 1_555 1_555
Zn1C O10 1_555 1_555
Zn2_2 O2B 1_555 1_555
Zn2_3 O2 1_555 1_555
O1_2 Zn1 1_555 1_555
O1B_2 Zn1B 1_555 1_555
O2_2 Zn2 1_555 1_555
O2B_2 Zn2 1_555 1_555
O10A Zn1B 1_555 1_555
O10C Zn1 1_555 1_555
O7 C7 1_555 1_555
C4 C5 1_555 1_555
C10 C11 1_555 1_555
O7B C7B 1_555 1_555
C4B C5B 1_555 1_555
C5B C6B 1_555 1_555
C10B C11B 1_555 1_555

#END
