
#######################################################################
#
#                 Cambridge Crystallographic Data Centre
#                                CCDC 
#
#######################################################################
#
# If this CIF has been generated from an entry in the Cambridge 
# Structural Database, then it will include bibliographic, chemical, 
# crystal, experimental, refinement or atomic coordinate data resulting 
# from the CCDC's data processing and validation procedures.
#
#######################################################################

data_VUKWUV
_symmetry_cell_setting           triclinic
_symmetry_space_group_name_H-M   'P -1'
_symmetry_Int_Tables_number      2
_space_group_name_Hall           '-P 1'
loop_
_symmetry_equiv_pos_site_id
_symmetry_equiv_pos_as_xyz
1 x,y,z
2 -x,-y,-z
_cell_length_a                   6.7656(6)
_cell_length_b                   8.7886(7)
_cell_length_c                   10.0635(8)
_cell_angle_alpha                64.603(5)
_cell_angle_beta                 76.394(5)
_cell_angle_gamma                82.581(5)
_cell_volume                     525.107
loop_
_atom_site_label
_atom_site_type_symbol
_atom_site_fract_x
_atom_site_fract_y
_atom_site_fract_z
Co1 Co 0.5000 0.0000 0.5000
S1 S 0.01053(11) 0.40608(9) 0.78219(9)
N1 N 0.3406(4) 0.0812(3) 0.6689(3)
N2 N 0.1473(3) 0.2397(3) 0.7707(3)
N3 N 0.1928(4) 0.5342(3) 0.7524(3)
N4 N 0.3925(4) 0.7507(3) 0.6422(3)
N5 N 0.8041(4) -0.0612(4) 0.7052(3)
O1 O -0.0835(3) 0.4825(3) 0.6569(2)
O2 O -0.0949(3) 0.3537(3) 0.9319(2)
O3 O 0.7668(3) -0.0768(3) 0.5928(2)
O4 O 0.8110(4) 0.0798(3) 0.7012(3)
O5 O 0.8332(4) -0.1909(3) 0.8156(3)
C1 C 0.2324(4) 0.2201(4) 0.6411(4)
H1 H 0.2148 0.2964 0.5458
C2 C 0.3286(5) 0.0074(4) 0.8228(3)
H2 H 0.3929 -0.0942 0.8744
C3 C 0.2121(5) 0.1020(4) 0.8871(3)
H3 H 0.1811 0.0800 0.9886
C4 C 0.2327(5) 0.6880(4) 0.6345(4)
H4 H 0.1569 0.7403 0.5597
C5 C 0.4608(5) 0.6319(4) 0.7678(4)
H5 H 0.5753 0.6427 0.7988
C6 C 0.3397(5) 0.4994(4) 0.8384(4)
H6 H 0.3514 0.4046 0.9261
S1A S 0.98947(11) -0.40608(9) 0.21781(9)
N1A N 0.6594(4) -0.0812(3) 0.3311(3)
N2A N 0.8527(3) -0.2397(3) 0.2293(3)
N3A N 0.8072(4) -0.5342(3) 0.2476(3)
N4A N 0.6075(4) -0.7507(3) 0.3578(3)
N5A N 0.1959(4) 0.0612(4) 0.2948(3)
O1A O 1.0835(3) -0.4825(3) 0.3431(2)
O2A O 1.0949(3) -0.3537(3) 0.0681(2)
O3A O 0.2332(3) 0.0768(3) 0.4072(2)
O4A O 0.1890(4) -0.0798(3) 0.2988(3)
O5A O 0.1668(4) 0.1909(3) 0.1844(3)
C1A C 0.7676(4) -0.2201(4) 0.3589(4)
H1A H 0.7852 -0.2964 0.4542
C2A C 0.6714(5) -0.0074(4) 0.1772(3)
H2A H 0.6071 0.0942 0.1256
C3A C 0.7879(5) -0.1020(4) 0.1129(3)
H3A H 0.8189 -0.0800 0.0114
C4A C 0.7673(5) -0.6880(4) 0.3655(4)
H4A H 0.8431 -0.7403 0.4403
C5A C 0.5392(5) -0.6319(4) 0.2322(4)
H5A H 0.4247 -0.6427 0.2012
C6A C 0.6603(5) -0.4994(4) 0.1616(4)
H6A H 0.6486 -0.4046 0.0739
Co1_2 Co 0.5000 -1.0000 0.5000
Co1_3 Co 0.5000 1.0000 0.5000
N4_2 N 0.3925(4) -0.2493(3) 0.6422(3)
N4A_2 N 0.6075(4) 0.2493(3) 0.3578(3)
loop_
_geom_bond_atom_site_label_1
_geom_bond_atom_site_label_2
_geom_bond_site_symmetry_1
_geom_bond_site_symmetry_2
Co1 N1 1_555 1_555
S1 N2 1_555 1_555
N1 C1 1_555 1_555
N2 C1 1_555 1_555
N3 S1 1_555 1_555
N4 C4 1_555 1_555
N5 O3 1_555 1_555
O1 S1 1_555 1_555
O2 S1 1_555 1_555
O3 Co1 1_555 1_555
O4 N5 1_555 1_555
O5 N5 1_555 1_555
C1 H1 1_555 1_555
C2 N1 1_555 1_555
H2 C2 1_555 1_555
C3 N2 1_555 1_555
H3 C3 1_555 1_555
C4 N3 1_555 1_555
H4 C4 1_555 1_555
C5 N4 1_555 1_555
H5 C5 1_555 1_555
C6 N3 1_555 1_555
H6 C6 1_555 1_555
S1A N2A 1_555 1_555
N1A Co1 1_555 1_555
N2A C1A 1_555 1_555
N3A S1A 1_555 1_555
N4A C4A 1_555 1_555
N5A O3A 1_555 1_555
O1A S1A 1_555 1_555
O2A S1A 1_555 1_555
O3A Co1 1_555 1_555
O4A N5A 1_555 1_555
O5A N5A 1_555 1_555
C1A N1A 1_555 1_555
H1A C1A 1_555 1_555
C2A N1A 1_555 1_555
H2A C2A 1_555 1_555
C3A N2A 1_555 1_555
H3A C3A 1_555 1_555
C4A N3A 1_555 1_555
H4A C4A 1_555 1_555
C5A N4A 1_555 1_555
H5A C5A 1_555 1_555
C6A N3A 1_555 1_555
H6A C6A 1_555 1_555
Co1_2 N4A 1_555 1_555
Co1_3 N4 1_555 1_555
N4_2 Co1 1_555 1_555
N4A_2 Co1 1_555 1_555
C2 C3 1_555 1_555
C5 C6 1_555 1_555
C2A C3A 1_555 1_555
C5A C6A 1_555 1_555

#END
