
#######################################################################
#
#                 Cambridge Crystallographic Data Centre
#                                CCDC 
#
#######################################################################
#
# If this CIF has been generated from an entry in the Cambridge 
# Structural Database, then it will include bibliographic, chemical, 
# crystal, experimental, refinement or atomic coordinate data resulting 
# from the CCDC's data processing and validation procedures.
#
#######################################################################

data_VUKWOP
_symmetry_cell_setting           triclinic
_symmetry_space_group_name_H-M   'P -1'
_symmetry_Int_Tables_number      2
_space_group_name_Hall           '-P 1'
loop_
_symmetry_equiv_pos_site_id
_symmetry_equiv_pos_as_xyz
1 x,y,z
2 -x,-y,-z
_cell_length_a                   6.6953(13)
_cell_length_b                   8.7758(18)
_cell_length_c                   10.028(2)
_cell_angle_alpha                64.41(3)
_cell_angle_beta                 76.36(3)
_cell_angle_gamma                82.37(3)
_cell_volume                     516.105
loop_
_atom_site_label
_atom_site_type_symbol
_atom_site_fract_x
_atom_site_fract_y
_atom_site_fract_z
Zn1 Zn 0.5000 0.0000 0.5000
S1 S 0.00659(5) 0.40580(4) 0.78261(4)
O1 O -0.08772(16) 0.48230(13) 0.65585(12)
O2 O -0.10223(16) 0.35315(13) 0.93307(12)
O3 O 0.22384(16) 0.07968(14) 0.40778(12)
O4 O 0.16272(19) 0.19685(15) 0.18075(13)
O5 O 0.18363(18) -0.07637(14) 0.29645(13)
N1 N 0.34180(18) 0.07982(15) 0.67024(13)
N2 N 0.14590(18) 0.23892(15) 0.77162(13)
N3 N 0.18950(18) 0.53392(15) 0.75361(13)
N4 N 0.39221(18) 0.74958(15) 0.64220(13)
N5 N 0.18990(18) 0.06519(16) 0.29341(14)
C1 C 0.2305(2) 0.21994(17) 0.64110(15)
H1 H 0.2114 0.2961 0.5454
C2 C 0.2121(2) 0.10022(18) 0.89083(16)
H2 H 0.1813 0.0789 0.9926
C3 C 0.3304(2) 0.00418(18) 0.82574(16)
H3 H 0.3952 -0.0982 0.8774
C4 C 0.2303(2) 0.68841(17) 0.63422(16)
H4 H 0.1539 0.7415 0.5589
C5 C 0.3379(2) 0.49799(18) 0.84115(16)
H5 H 0.3493 0.4026 0.9294
C6 C 0.4614(2) 0.63123(18) 0.77036(16)
H6 H 0.5759 0.6426 0.8023
S1A S 0.99341(5) -0.40580(4) 0.21739(4)
O1A O 1.08772(16) -0.48230(13) 0.34415(12)
O2A O 1.10223(16) -0.35315(13) 0.06693(12)
O3A O 0.77616(16) -0.07968(14) 0.59222(12)
O4A O 0.83728(19) -0.19685(15) 0.81925(13)
O5A O 0.81637(18) 0.07637(14) 0.70355(13)
N1A N 0.65820(18) -0.07982(15) 0.32976(13)
N2A N 0.85410(18) -0.23892(15) 0.22838(13)
N3A N 0.81050(18) -0.53392(15) 0.24639(13)
N4A N 0.60779(18) -0.74958(15) 0.35780(13)
N5A N 0.81010(18) -0.06519(16) 0.70659(14)
C1A C 0.7695(2) -0.21994(17) 0.35890(15)
H1A H 0.7886 -0.2961 0.4546
C2A C 0.7879(2) -0.10022(18) 0.10917(16)
H2A H 0.8187 -0.0789 0.0074
C3A C 0.6696(2) -0.00418(18) 0.17426(16)
H3A H 0.6048 0.0982 0.1226
C4A C 0.7697(2) -0.68841(17) 0.36578(16)
H4A H 0.8461 -0.7415 0.4411
C5A C 0.6621(2) -0.49799(18) 0.15885(16)
H5A H 0.6507 -0.4026 0.0706
C6A C 0.5386(2) -0.63123(18) 0.22964(16)
H6A H 0.4241 -0.6426 0.1977
Zn1_2 Zn 0.5000 -1.0000 0.5000
Zn1_3 Zn 0.5000 1.0000 0.5000
N4_2 N 0.39221(18) -0.25042(15) 0.64220(13)
N4A_2 N 0.60779(18) 0.25042(15) 0.35780(13)
loop_
_geom_bond_atom_site_label_1
_geom_bond_atom_site_label_2
_geom_bond_site_symmetry_1
_geom_bond_site_symmetry_2
Zn1 O3 1_555 1_555
S1 O1 1_555 1_555
O2 S1 1_555 1_555
O3 N5 1_555 1_555
O4 N5 1_555 1_555
O5 N5 1_555 1_555
N1 Zn1 1_555 1_555
N2 S1 1_555 1_555
N3 S1 1_555 1_555
N4 C4 1_555 1_555
C1 N1 1_555 1_555
H1 C1 1_555 1_555
C2 N2 1_555 1_555
H2 C2 1_555 1_555
C3 N1 1_555 1_555
H3 C3 1_555 1_555
C4 N3 1_555 1_555
H4 C4 1_555 1_555
C5 N3 1_555 1_555
H5 C5 1_555 1_555
C6 N4 1_555 1_555
H6 C6 1_555 1_555
S1A O1A 1_555 1_555
O2A S1A 1_555 1_555
O3A Zn1 1_555 1_555
O4A N5A 1_555 1_555
O5A N5A 1_555 1_555
N1A Zn1 1_555 1_555
N2A S1A 1_555 1_555
N3A S1A 1_555 1_555
N4A C4A 1_555 1_555
N5A O3A 1_555 1_555
C1A N1A 1_555 1_555
H1A C1A 1_555 1_555
C2A N2A 1_555 1_555
H2A C2A 1_555 1_555
C3A N1A 1_555 1_555
H3A C3A 1_555 1_555
C4A N3A 1_555 1_555
H4A C4A 1_555 1_555
C5A N3A 1_555 1_555
H5A C5A 1_555 1_555
C6A N4A 1_555 1_555
H6A C6A 1_555 1_555
Zn1_2 N4A 1_555 1_555
Zn1_3 N4 1_555 1_555
N4_2 Zn1 1_555 1_555
N4A_2 Zn1 1_555 1_555
N2 C1 1_555 1_555
C2 C3 1_555 1_555
C5 C6 1_555 1_555
N2A C1A 1_555 1_555
C2A C3A 1_555 1_555
C5A C6A 1_555 1_555

#END
