
#######################################################################
#
#                 Cambridge Crystallographic Data Centre
#                                CCDC 
#
#######################################################################
#
# If this CIF has been generated from an entry in the Cambridge 
# Structural Database, then it will include bibliographic, chemical, 
# crystal, experimental, refinement or atomic coordinate data resulting 
# from the CCDC's data processing and validation procedures.
#
#######################################################################

data_VUKWUT
_symmetry_cell_setting           monoclinic
_symmetry_space_group_name_H-M   'P 21/n'
_symmetry_Int_Tables_number      14
_space_group_name_Hall           '-P 2yn'
loop_
_symmetry_equiv_pos_site_id
_symmetry_equiv_pos_as_xyz
1 x,y,z
2 1/2-x,1/2+y,1/2-z
3 -x,-y,-z
4 1/2+x,1/2-y,1/2+z
_cell_length_a                   11.439(3)
_cell_length_b                   10.522(1)
_cell_length_c                   7.376(1)
_cell_angle_alpha                90
_cell_angle_beta                 106.47(4)
_cell_angle_gamma                90
_cell_volume                     851.357
loop_
_atom_site_label
_atom_site_type_symbol
_atom_site_fract_x
_atom_site_fract_y
_atom_site_fract_z
Cu1 Cu 0.02310(9) 0.9010(1) 0.1855(1)
O1 O 0.0999(5) 1.0374(5) 0.3646(8)
N1 N -0.0686(6) 0.8693(6) 0.3675(9)
N2 N -0.043(1) 0.749(1) 0.020(2)
N3 N 0.1292(7) 0.9479(9) 0.026(1)
N4 N 0.2278(7) 0.9933(8) 0.085(1)
N5 N 0.3227(8) 1.040(1) 0.133(1)
C1 C 0.0490(7) 1.0481(7) 0.497(1)
C2 C -0.165(1) 0.772(1) 0.360(2)
C3 C -0.163(2) 0.670(2) 0.230(2)
C4 C -0.138(1) 0.672(1) 0.064(2)
C5 C 0.022(1) 0.693(1) -0.081(2)
N3B N -0.1292(7) 1.0521(9) -0.026(1)
C1B C -0.0490(7) 0.9519(7) 0.503(1)
Cu1B Cu -0.02310(9) 1.0990(1) -0.1855(1)
N1B N 0.0686(6) 1.1307(6) 0.6325(9)
N4B N -0.2278(7) 1.0067(8) -0.085(1)
O1B O -0.0999(5) 0.9626(5) 0.6354(8)
Cu1B_2 Cu -0.02310(9) 1.0990(1) 0.8145(1)
C2B C 0.165(1) 1.228(1) 0.640(2)
N5B N -0.3227(8) 0.960(1) -0.133(1)
C3B C 0.163(2) 1.330(2) 0.770(2)
C4B C 0.138(1) 1.328(1) 0.936(2)
N2B N 0.043(1) 1.251(1) 0.980(2)
N3_2 N 0.1292(7) 0.9479(9) 1.026(1)
N3B_2 N -0.1292(7) 1.0521(9) 0.974(1)
C5B C -0.022(1) 1.307(1) 1.081(2)
loop_
_geom_bond_atom_site_label_1
_geom_bond_atom_site_label_2
_geom_bond_site_symmetry_1
_geom_bond_site_symmetry_2
Cu1 O1 1_555 1_555
O1 C1 1_555 1_555
N1 Cu1 1_555 1_555
N2 Cu1 1_555 1_555
N3 Cu1 1_555 1_555
N4 N3 1_555 1_555
N5 N4 1_555 1_555
C1 C1B 1_555 1_555
C2 N1 1_555 1_555
C3 C2 1_555 1_555
C4 N2 1_555 1_555
C5 N2 1_555 1_555
N3B Cu1 1_555 1_555
C1B N1 1_555 1_555
Cu1B N3 1_555 1_555
N1B C1 1_555 1_555
N4B N3B 1_555 1_555
O1B C1B 1_555 1_555
Cu1B_2 N1B 1_555 1_555
C2B N1B 1_555 1_555
N5B N4B 1_555 1_555
C3B C2B 1_555 1_555
C4B C3B 1_555 1_555
N2B Cu1B_2 1_555 1_555
N3_2 Cu1B_2 1_555 1_555
N3B_2 Cu1B_2 1_555 1_555
C5B N2B 1_555 1_555
C3 C4 1_555 1_555
N3B Cu1B 1_555 1_555
O1B Cu1B_2 1_555 1_555
C4B N2B 1_555 1_555

#END
