
#######################################################################
#
#                 Cambridge Crystallographic Data Centre
#                                CCDC 
#
#######################################################################
#
# If this CIF has been generated from an entry in the Cambridge 
# Structural Database, then it will include bibliographic, chemical, 
# crystal, experimental, refinement or atomic coordinate data resulting 
# from the CCDC's data processing and validation procedures.
#
#######################################################################

data_VUKXUW
_symmetry_cell_setting           triclinic
_symmetry_space_group_name_H-M   'P -1'
_symmetry_Int_Tables_number      2
_space_group_name_Hall           '-P 1'
loop_
_symmetry_equiv_pos_site_id
_symmetry_equiv_pos_as_xyz
1 x,y,z
2 -x,-y,-z
_cell_length_a                   6.6171(4)
_cell_length_b                   10.0019(6)
_cell_length_c                   10.9248(7)
_cell_angle_alpha                64.702(3)
_cell_angle_beta                 80.817(4)
_cell_angle_gamma                88.608(4)
_cell_volume                     644.541
loop_
_atom_site_label
_atom_site_type_symbol
_atom_site_fract_x
_atom_site_fract_y
_atom_site_fract_z
Cd1 Cd 0.76726(3) 0.488235(19) 0.428724(17)
S1 S 0.62434(11) 0.79416(8) -0.15541(7)
O1 O 0.5754(4) 0.9433(3) -0.2241(2)
O2 O 0.4949(3) 0.6708(3) -0.1277(2)
N1 N 0.7322(4) 0.6659(3) 0.2072(2)
N2 N 0.6849(4) 0.7746(2) -0.0071(2)
N3 N 0.8459(4) 0.7716(3) -0.2390(2)
N4 N 1.0808(4) 0.6678(3) -0.3307(3)
N5 N 0.5591(4) 0.6244(3) 0.5241(3)
N6 N 0.6148(4) 0.7422(3) 0.5065(3)
N7 N 0.6746(5) 0.8573(3) 0.4901(4)
N8 N 0.9185(4) 0.3631(3) 0.6205(3)
N9 N 0.8308(4) 0.3114(3) 0.7365(3)
N10 N 0.7512(5) 0.2633(4) 0.8489(3)
C1 C 0.6911(4) 0.6429(3) 0.1056(3)
H1 H 0.6689 0.5500 0.1087
C2 C 0.7519(5) 0.8182(3) 0.1608(3)
H2 H 0.7802 0.8660 0.2132
C3 C 0.7244(5) 0.8869(3) 0.0294(3)
H3 H 0.7307 0.9883 -0.0256
C4 C 0.9019(5) 0.6456(3) -0.2540(3)
H4 H 0.8232 0.5572 -0.2149
C5 C 1.0023(5) 0.8786(3) -0.3133(3)
H5 H 1.0078 0.9755 -0.3232
C6 C 1.1438(5) 0.8130(4) -0.3679(3)
H6 H 1.2673 0.8585 -0.4231
Cd1A Cd 0.23274(3) 0.511765(19) 0.571276(17)
Cd1A_2 Cd 1.23274(3) 0.511765(19) -0.428724(17)
Cd1A_3 Cd 1.23274(3) 0.511765(19) 0.571276(17)
N4A N 0.9192(4) 0.3322(3) 0.3307(3)
N5A N 0.4409(4) 0.3756(3) 0.4759(3)
N8A N 1.0815(4) 0.6369(3) 0.3795(3)
loop_
_geom_bond_atom_site_label_1
_geom_bond_atom_site_label_2
_geom_bond_site_symmetry_1
_geom_bond_site_symmetry_2
Cd1 N1 1_555 1_555
S1 O1 1_555 1_555
O2 S1 1_555 1_555
N1 C1 1_555 1_555
N2 S1 1_555 1_555
N3 S1 1_555 1_555
N4 C4 1_555 1_555
N5 Cd1 1_555 1_555
N6 N5 1_555 1_555
N7 N6 1_555 1_555
N8 Cd1 1_555 1_555
N9 N8 1_555 1_555
N10 N9 1_555 1_555
C1 N2 1_555 1_555
H1 C1 1_555 1_555
C2 N1 1_555 1_555
H2 C2 1_555 1_555
C3 N2 1_555 1_555
H3 C3 1_555 1_555
C4 N3 1_555 1_555
H4 C4 1_555 1_555
C5 N3 1_555 1_555
H5 C5 1_555 1_555
C6 N4 1_555 1_555
H6 C6 1_555 1_555
Cd1A N5 1_555 1_555
Cd1A_2 N4 1_555 1_555
Cd1A_3 N8 1_555 1_555
N4A Cd1 1_555 1_555
N5A Cd1 1_555 1_555
N8A Cd1 1_555 1_555
C2 C3 1_555 1_555
C5 C6 1_555 1_555
Cd1A N5A 1_555 1_555
Cd1A_3 N8A 1_555 1_555

#END
