
#######################################################################
#
#                 Cambridge Crystallographic Data Centre
#                                CCDC 
#
#######################################################################
#
# If this CIF has been generated from an entry in the Cambridge 
# Structural Database, then it will include bibliographic, chemical, 
# crystal, experimental, refinement or atomic coordinate data resulting 
# from the CCDC's data processing and validation procedures.
#
#######################################################################

data_VUKXEG
_symmetry_cell_setting           monoclinic
_symmetry_space_group_name_H-M   'C 2/c'
_symmetry_Int_Tables_number      15
_space_group_name_Hall           '-C 2yn'
loop_
_symmetry_equiv_pos_site_id
_symmetry_equiv_pos_as_xyz
1 x,y,z
2 -x,y,1/2-z
3 1/2+x,1/2+y,z
4 1/2-x,1/2+y,1/2-z
5 -x,-y,-z
6 x,-y,1/2+z
7 1/2-x,1/2-y,-z
8 1/2+x,1/2-y,1/2+z
_cell_length_a                   10.269(2)
_cell_length_b                   15.040(3)
_cell_length_c                   15.004(3)
_cell_angle_alpha                90
_cell_angle_beta                 100.71(3)
_cell_angle_gamma                90
_cell_volume                     2276.94
loop_
_atom_site_label
_atom_site_type_symbol
_atom_site_fract_x
_atom_site_fract_y
_atom_site_fract_z
Mn1 Mn 1.0000 0.36117(4) 0.2500
S1 S 0.43745(8) 0.28132(6) 0.09828(5)
N1 N 0.7810(3) 0.36873(19) 0.19644(19)
N2 N 0.5723(3) 0.33855(19) 0.14224(18)
N3 N 0.4336(3) 0.28447(19) -0.01278(18)
N4 N 0.4672(3) 0.2415(2) -0.14626(19)
O1 O 0.4622(3) 0.1926(2) 0.1253(2)
O2 O 0.3283(3) 0.3312(2) 0.11470(19)
O3 O 0.9903(4) 0.4664(2) 0.3499(2)
H1 H 1.0501 0.4594 0.3939
C1 C 0.6987(3) 0.3056(2) 0.1650(2)
H2 H 0.7222 0.2465 0.1589
C2 C 0.5788(4) 0.4297(2) 0.1588(3)
H3 H 0.5094 0.4703 0.1492
C3 C 0.7077(4) 0.4460(2) 0.1920(3)
H4 H 0.7425 0.5017 0.2094
C4 C 0.4854(3) 0.2206(2) -0.0609(2)
H5 H 0.5278 0.1692 -0.0360
C5 C 0.4012(4) 0.3227(2) -0.1546(2)
H6 H 0.3753 0.3536 -0.2087
C6 C 0.3801(4) 0.3498(2) -0.0734(2)
H7 H 0.3382 0.4018 -0.0606
H8 H 0.916(6) 0.484(4) 0.364(4)
S1A S 1.56255(8) 0.28132(6) 0.40172(5)
N1A N 1.2190(3) 0.36873(19) 0.30356(19)
N2A N 1.4277(3) 0.33855(19) 0.35776(18)
N3A N 1.5664(3) 0.28447(19) 0.51278(18)
N4A N 1.5328(3) 0.2415(2) 0.64626(19)
O1A O 1.5378(3) 0.1926(2) 0.3747(2)
O2A O 1.6717(3) 0.3312(2) 0.38530(19)
O3A O 1.0097(4) 0.4664(2) 0.1501(2)
H1A H 0.9499 0.4594 0.1061
C1A C 1.3013(3) 0.3056(2) 0.3350(2)
H2A H 1.2778 0.2465 0.3411
C2A C 1.4212(4) 0.4297(2) 0.3412(3)
H3A H 1.4906 0.4703 0.3508
C3A C 1.2923(4) 0.4460(2) 0.3080(3)
H4A H 1.2575 0.5017 0.2906
C4A C 1.5146(3) 0.2206(2) 0.5609(2)
H5A H 1.4722 0.1692 0.5360
C5A C 1.5988(4) 0.3227(2) 0.6546(2)
H6A H 1.6247 0.3536 0.7087
C6A C 1.6199(4) 0.3498(2) 0.5734(2)
H7A H 1.6618 0.4018 0.5606
H8A H 1.084(6) 0.484(4) 0.136(4)
Mn1F Mn 0.5000 0.13883(4) -0.2500
Mn1F_2 Mn 1.5000 0.13883(4) 0.7500
N4F N 1.0328(3) 0.2585(2) 0.14626(19)
N4G N 0.9672(3) 0.2585(2) 0.35374(19)
N5 N 0.2513(3) 0.0709(3) 0.4394(2)
O4 O 0.2350(8) 0.0754(4) 0.3592(3)
O5 O 0.2190(7) 0.1438(4) 0.4759(4)
O6 O 0.3255(5) 0.0176(3) 0.4863(3)
loop_
_geom_bond_atom_site_label_1
_geom_bond_atom_site_label_2
_geom_bond_site_symmetry_1
_geom_bond_site_symmetry_2
Mn1 N1 1_555 1_555
S1 N2 1_555 1_555
N1 C1 1_555 1_555
N2 C1 1_555 1_555
N3 S1 1_555 1_555
N4 C4 1_555 1_555
O1 S1 1_555 1_555
O2 S1 1_555 1_555
O3 Mn1 1_555 1_555
H1 O3 1_555 1_555
C1 H2 1_555 1_555
C2 N2 1_555 1_555
H3 C2 1_555 1_555
C3 N1 1_555 1_555
H4 C3 1_555 1_555
C4 N3 1_555 1_555
H5 C4 1_555 1_555
C5 N4 1_555 1_555
H6 C5 1_555 1_555
C6 N3 1_555 1_555
H7 C6 1_555 1_555
H8 O3 1_555 1_555
N5 O4 1_555 1_555
O5 N5 1_555 1_555
O6 N5 1_555 1_555
S1A N2A 1_555 1_555
N1A Mn1 1_555 1_555
N2A C1A 1_555 1_555
N3A S1A 1_555 1_555
N4A C4A 1_555 1_555
O1A S1A 1_555 1_555
O2A S1A 1_555 1_555
O3A Mn1 1_555 1_555
H1A O3A 1_555 1_555
C1A N1A 1_555 1_555
H2A C1A 1_555 1_555
C2A N2A 1_555 1_555
H3A C2A 1_555 1_555
C3A N1A 1_555 1_555
H4A C3A 1_555 1_555
C4A N3A 1_555 1_555
H5A C4A 1_555 1_555
C5A N4A 1_555 1_555
H6A C5A 1_555 1_555
C6A N3A 1_555 1_555
H7A C6A 1_555 1_555
H8A O3A 1_555 1_555
Mn1F N4 1_555 1_555
Mn1F_2 N4A 1_555 1_555
N4F Mn1 1_555 1_555
N4G Mn1 1_555 1_555
C2 C3 1_555 1_555
C5 C6 1_555 1_555
C2A C3A 1_555 1_555
C5A C6A 1_555 1_555

#END
