
#######################################################################
#
#                 Cambridge Crystallographic Data Centre
#                                CCDC 
#
#######################################################################
#
# If this CIF has been generated from an entry in the Cambridge 
# Structural Database, then it will include bibliographic, chemical, 
# crystal, experimental, refinement or atomic coordinate data resulting 
# from the CCDC's data processing and validation procedures.
#
#######################################################################

data_VUKXUV
_symmetry_cell_setting           triclinic
_symmetry_space_group_name_H-M   'P -1'
_symmetry_Int_Tables_number      2
_space_group_name_Hall           '-P 1'
loop_
_symmetry_equiv_pos_site_id
_symmetry_equiv_pos_as_xyz
1 x,y,z
2 -x,-y,-z
_cell_length_a                   7.98580(10)
_cell_length_b                   9.1574(2)
_cell_length_c                   9.4523
_cell_angle_alpha                62.025(6)
_cell_angle_beta                 82.335(7)
_cell_angle_gamma                72.873(7)
_cell_volume                     583.388
loop_
_atom_site_label
_atom_site_type_symbol
_atom_site_fract_x
_atom_site_fract_y
_atom_site_fract_z
Zn1 Zn 1.00796(6) -0.16815(5) 0.82516(5)
O1 O 0.8403(3) 0.1752(3) 0.3702(3)
O2 O 1.1646(3) -0.4029(3) 0.9860(3)
O3 O 0.8567(3) -0.1133(3) 1.0033(3)
O4 O 1.1503(3) -0.6726(3) 1.1414(3)
O5 O 0.8506(3) 0.0281(3) 1.1434(3)
O8 O 0.8467(3) 0.0362(3) 0.6384(3)
C1 C 1.0911(4) -0.5216(4) 1.0366(4)
C2 C 0.9153(4) -0.0247(4) 1.0424(4)
C5 C 0.9098(4) 0.0603(4) 0.5035(4)
Zn1A Zn 0.99204(6) -0.83185(5) 1.17484(5)
Zn1A_2 Zn 0.99204(6) 0.16815(5) 0.17484(5)
Zn1A_3 Zn 0.99204(6) 0.16815(5) 1.17484(5)
O1A O 1.1597(3) -0.1752(3) 0.6298(3)
O1_2 O 0.8403(3) -0.8248(3) 1.3702(3)
O2A O 0.8354(3) -0.5971(3) 1.0140(3)
O3A O 1.1433(3) 0.1133(3) 0.9967(3)
O3A_2 O 1.1433(3) -0.8867(3) 0.9967(3)
O4A O 0.8497(3) -0.3274(3) 0.8586(3)
O5A O 1.1494(3) -0.0281(3) 0.8566(3)
O5_2 O 0.8506(3) -0.9719(3) 1.1434(3)
O8A O 1.1533(3) -0.0362(3) 0.3616(3)
O8A_2 O 1.1533(3) -1.0362(3) 1.3616(3)
C1A C 0.9089(4) -0.4784(4) 0.9634(4)
C2A C 1.0847(4) 0.0247(4) 0.9576(4)
C5A C 1.0902(4) -0.0603(4) 0.4965(4)
O6 O 0.6077(4) 0.7957(4) 0.5414(4)
O7 O 0.4629(4) 0.5919(4) 0.6418(5)
C3 C 0.6082(6) 0.6464(5) 0.5872(5)
C4 C 0.7677(6) 0.5055(5) 0.5937(6)
C6 C 0.9222(6) 0.5718(6) 0.5011(6)
O6A O 1.3923(4) 0.2043(4) 0.4586(4)
O7A O 1.5371(4) 0.4081(4) 0.3582(5)
C3A C 1.3918(6) 0.3536(5) 0.4128(5)
C4A C 1.2323(6) 0.4945(5) 0.4063(6)
C6A C 1.0778(6) 0.4282(6) 0.4989(6)
O9 O 0.5061(8) 0.3805(8) 0.9970(8)
O10 O 0.4455(5) 0.2232(5) 0.8438(6)
N1 N 0.4840(4) 0.0564(4) 1.2311(4)
loop_
_geom_bond_atom_site_label_1
_geom_bond_atom_site_label_2
_geom_bond_site_symmetry_1
_geom_bond_site_symmetry_2
Zn1 O2 1_555 1_555
O1 C5 1_555 1_555
O2 C1 1_555 1_555
O3 Zn1 1_555 1_555
O4 C1 1_555 1_555
O5 C2 1_555 1_555
O6 C3 1_555 1_555
O7 C3 1_555 1_555
O8 Zn1 1_555 1_555
C1 C1A 1_555 1_555
C2 O3 1_555 1_555
C3 C4 1_555 1_555
C4 C6 1_555 1_555
C5 O8 1_555 1_555
C6 C6A 1_555 1_555
Zn1A O4 1_555 1_555
Zn1A_2 O1 1_555 1_555
Zn1A_3 O5 1_555 1_555
O1A Zn1 1_555 1_555
O1_2 Zn1A 1_555 1_555
O2A Zn1A 1_555 1_555
O3A Zn1A_3 1_555 1_555
O3A_2 Zn1A 1_555 1_555
O4A Zn1 1_555 1_555
O5A Zn1 1_555 1_555
O5_2 Zn1A 1_555 1_555
O6A C3A 1_555 1_555
O7A C3A 1_555 1_555
O8A Zn1A_2 1_555 1_555
O8A_2 Zn1A 1_555 1_555
C1A O2A 1_555 1_555
C2A C2 1_555 1_555
C3A C4A 1_555 1_555
C4A C6A 1_555 1_555
C5A C5 1_555 1_555
O1A C5A 1_555 1_555
O3A C2A 1_555 1_555
O4A C1A 1_555 1_555
O5A C2A 1_555 1_555
O8A C5A 1_555 1_555

#END
