
#######################################################################
#
#                 Cambridge Crystallographic Data Centre
#                                CCDC 
#
#######################################################################
#
# If this CIF has been generated from an entry in the Cambridge 
# Structural Database, then it will include bibliographic, chemical, 
# crystal, experimental, refinement or atomic coordinate data resulting 
# from the CCDC's data processing and validation procedures.
#
#######################################################################

data_VUKXOQ
_symmetry_cell_setting           monoclinic
_symmetry_space_group_name_H-M   'C 2/c'
_symmetry_Int_Tables_number      15
_space_group_name_Hall           '-C 2yn'
loop_
_symmetry_equiv_pos_site_id
_symmetry_equiv_pos_as_xyz
1 x,y,z
2 -x,y,1/2-z
3 1/2+x,1/2+y,z
4 1/2-x,1/2+y,1/2-z
5 -x,-y,-z
6 x,-y,1/2+z
7 1/2-x,1/2-y,-z
8 1/2+x,1/2-y,1/2+z
_cell_length_a                   9.6762(5)
_cell_length_b                   23.2403(15)
_cell_length_c                   16.8723(11)
_cell_angle_alpha                90
_cell_angle_beta                 101.630(4)
_cell_angle_gamma                90
_cell_volume                     3716.31
loop_
_atom_site_label
_atom_site_type_symbol
_atom_site_fract_x
_atom_site_fract_y
_atom_site_fract_z
Zn1 Zn -0.5000 -0.35020(2) 0.2500
Zn2 Zn -0.5000 0.02514(2) 0.2500
S1 S -0.76960(10) -0.16550(3) 0.06146(5)
O1 O -0.9115(3) -0.16552(10) 0.01962(17)
O2 O -0.6518(3) -0.16488(10) 0.02410(16)
O3 O -0.5613(2) -0.39262(9) 0.33814(12)
O4 O -0.3535(2) -0.43128(10) 0.33810(14)
O5 O -0.4105(2) 0.02933(11) 0.14379(14)
O6 O -0.6453(2) 0.09035(10) 0.20013(17)
H1 H -0.6971 0.0976 0.2317
H2 H -0.641(4) 0.1081(17) 0.165(2)
N1 N -0.6505(3) -0.03786(11) 0.19912(16)
N2 N -0.7498(3) -0.10997(10) 0.12535(16)
N3 N -0.7513(3) -0.22274(10) 0.12213(16)
N4 N -0.6519(3) -0.29403(11) 0.19685(15)
C1 C -0.6294(3) -0.07818(13) 0.1498(2)
H3 H -0.5446 -0.0846 0.1334
C2 C -0.8517(3) -0.08800(14) 0.1646(2)
H4 H -0.9435 -0.1011 0.1609
C3 C -0.7890(3) -0.04391(14) 0.2088(2)
H5 H -0.8322 -0.0206 0.2414
C4 C -0.6286(3) -0.25130(13) 0.15204(19)
H6 H -0.5408 -0.2415 0.1417
C5 C -0.7955(4) -0.29359(16) 0.1960(2)
H7 H -0.8420 -0.3199 0.2229
C6 C -0.8573(4) -0.24991(15) 0.1511(3)
H8 H -0.9523 -0.2399 0.1413
C7 C -0.4616(3) -0.42755(13) 0.36710(17)
C8 C -0.4812(3) -0.46433(12) 0.43678(17)
C9 C -0.5903(3) -0.45364(13) 0.47701(18)
H9 H -0.6507 -0.4227 0.4617
C10 C -0.3909(3) -0.51109(13) 0.46039(18)
H10 H -0.3177 -0.5184 0.4336
C11 C -0.4770(6) 0.0514(3) 0.0679(3)
H11 H -0.4144 0.0481 0.0307
H12 H -0.5004 0.0911 0.0736
H13 H -0.5616 0.0300 0.0478
O3D O -0.4387(2) -0.60738(9) 0.66186(12)
O4D O -0.6465(2) -0.56872(10) 0.66190(14)
C7D C -0.5384(3) -0.57245(13) 0.63290(17)
C8D C -0.5188(3) -0.53567(12) 0.56322(17)
C9D C -0.4097(3) -0.54636(13) 0.52299(18)
H9D H -0.3493 -0.5773 0.5383
C10D C -0.6091(3) -0.48891(13) 0.53961(18)
H10D H -0.6823 -0.4816 0.5664
S1A S -0.23040(10) -0.16550(3) 0.43854(5)
O1A O -0.0885(3) -0.16552(10) 0.48038(17)
O2A O -0.3482(3) -0.16488(10) 0.47590(16)
O5A O -0.5895(2) 0.02933(11) 0.35621(14)
O6A O -0.3547(2) 0.09035(10) 0.29987(17)
H1A H -0.3029 0.0976 0.2683
H2A H -0.359(4) 0.1081(17) 0.335(2)
N1A N -0.3495(3) -0.03786(11) 0.30088(16)
N2A N -0.2502(3) -0.10997(10) 0.37465(16)
N3A N -0.2487(3) -0.22274(10) 0.37787(16)
N4A N -0.3481(3) -0.29403(11) 0.30315(15)
C1A C -0.3706(3) -0.07818(13) 0.3502(2)
H3A H -0.4554 -0.0846 0.3666
C2A C -0.1483(3) -0.08800(14) 0.3354(2)
H4A H -0.0565 -0.1011 0.3391
C3A C -0.2110(3) -0.04391(14) 0.2912(2)
H5A H -0.1678 -0.0206 0.2586
C4A C -0.3714(3) -0.25130(13) 0.34796(19)
H6A H -0.4592 -0.2415 0.3583
C5A C -0.2045(4) -0.29359(16) 0.3040(2)
H7A H -0.1580 -0.3199 0.2771
C6A C -0.1427(4) -0.24991(15) 0.3489(3)
H8A H -0.0477 -0.2399 0.3587
C11A C -0.5230(6) 0.0514(3) 0.4321(3)
H11A H -0.5856 0.0481 0.4693
H12A H -0.4996 0.0911 0.4264
H13A H -0.4384 0.0300 0.4522
Zn1D Zn -0.5000 -0.64980(2) 0.7500
O3A O -0.4387(2) -0.39262(9) 0.16186(12)
O7 O 0.6412(3) 0.16571(11) 0.70073(17)
O8 O 0.6813(3) 0.11738(14) 0.5877(2)
O9 O 0.6779(3) 0.21785(14) 0.5896(2)
O10 O 0.8654(3) 0.16777(14) 0.6690(2)
Cl1 Cl 0.71879(9) 0.16702(4) 0.63711(6)
O11 O -0.6530(4) 0.17707(14) 0.0901(2)
loop_
_geom_bond_atom_site_label_1
_geom_bond_atom_site_label_2
_geom_bond_site_symmetry_1
_geom_bond_site_symmetry_2
Zn1 O3 1_555 1_555
Zn2 O5 1_555 1_555
S1 O1 1_555 1_555
O2 S1 1_555 1_555
O3 C7 1_555 1_555
O4 C7 1_555 1_555
O5 C11 1_555 1_555
O6 Zn2 1_555 1_555
H1 O6 1_555 1_555
H2 O6 1_555 1_555
N1 Zn2 1_555 1_555
N2 S1 1_555 1_555
N3 S1 1_555 1_555
N4 Zn1 1_555 1_555
C1 N1 1_555 1_555
H3 C1 1_555 1_555
C2 N2 1_555 1_555
H4 C2 1_555 1_555
C3 N1 1_555 1_555
H5 C3 1_555 1_555
C4 N3 1_555 1_555
H6 C4 1_555 1_555
C5 N4 1_555 1_555
H7 C5 1_555 1_555
C6 N3 1_555 1_555
H8 C6 1_555 1_555
C7 C8 1_555 1_555
C8 C9 1_555 1_555
C9 H9 1_555 1_555
C10 C8 1_555 1_555
H10 C10 1_555 1_555
C11 H11 1_555 1_555
H12 C11 1_555 1_555
H13 C11 1_555 1_555
O7 Cl1 1_555 1_555
O8 Cl1 1_555 1_555
O9 Cl1 1_555 1_555
O10 Cl1 1_555 1_555
O3D C7D 1_555 1_555
O4D C7D 1_555 1_555
C7D C8D 1_555 1_555
C8D C9D 1_555 1_555
C9D C10 1_555 1_555
H9D C9D 1_555 1_555
C10D C9 1_555 1_555
H10D C10D 1_555 1_555
S1A O1A 1_555 1_555
O2A S1A 1_555 1_555
O5A Zn2 1_555 1_555
O6A Zn2 1_555 1_555
H1A O6A 1_555 1_555
H2A O6A 1_555 1_555
N1A Zn2 1_555 1_555
N2A S1A 1_555 1_555
N3A S1A 1_555 1_555
N4A Zn1 1_555 1_555
C1A N1A 1_555 1_555
H3A C1A 1_555 1_555
C2A N2A 1_555 1_555
H4A C2A 1_555 1_555
C3A N1A 1_555 1_555
H5A C3A 1_555 1_555
C4A N3A 1_555 1_555
H6A C4A 1_555 1_555
C5A N4A 1_555 1_555
H7A C5A 1_555 1_555
C6A N3A 1_555 1_555
H8A C6A 1_555 1_555
C11A O5A 1_555 1_555
H11A C11A 1_555 1_555
H12A C11A 1_555 1_555
H13A C11A 1_555 1_555
Zn1D O3D 1_555 1_555
O3A Zn1 1_555 1_555
N2 C1 1_555 1_555
N4 C4 1_555 1_555
C2 C3 1_555 1_555
C5 C6 1_555 1_555
C8D C10D 1_555 1_555
N2A C1A 1_555 1_555
N4A C4A 1_555 1_555
C2A C3A 1_555 1_555
C5A C6A 1_555 1_555

#END
