
#######################################################################
#
#                 Cambridge Crystallographic Data Centre
#                                CCDC 
#
#######################################################################
#
# If this CIF has been generated from an entry in the Cambridge 
# Structural Database, then it will include bibliographic, chemical, 
# crystal, experimental, refinement or atomic coordinate data resulting 
# from the CCDC's data processing and validation procedures.
#
#######################################################################

data_VUKXIK
_symmetry_cell_setting           monoclinic
_symmetry_space_group_name_H-M   'C 2/c'
_symmetry_Int_Tables_number      15
_space_group_name_Hall           '-C 2yn'
loop_
_symmetry_equiv_pos_site_id
_symmetry_equiv_pos_as_xyz
1 x,y,z
2 -x,y,1/2-z
3 1/2+x,1/2+y,z
4 1/2-x,1/2+y,1/2-z
5 -x,-y,-z
6 x,-y,1/2+z
7 1/2-x,1/2-y,-z
8 1/2+x,1/2-y,1/2+z
_cell_length_a                   10.184(2)
_cell_length_b                   16.442(3)
_cell_length_c                   14.923(3)
_cell_angle_alpha                90
_cell_angle_beta                 99.55(3)
_cell_angle_gamma                90
_cell_volume                     2464.16
loop_
_atom_site_label
_atom_site_type_symbol
_atom_site_fract_x
_atom_site_fract_y
_atom_site_fract_z
Co1 Co 0.5000 0.34623(4) 0.2500
S1 S 0.55552(9) 0.22057(7) -0.09823(6)
O1 O 0.6643(2) 0.1733(2) -0.11601(18)
O2 O 0.5325(3) 0.30215(19) -0.12409(17)
O3 O 0.5201(3) 0.4439(2) 0.15741(19)
H1 H 0.4642 0.4387 0.1114
N1 N 0.5320(3) 0.2584(2) 0.14980(18)
N2 N 0.5591(3) 0.21695(19) 0.01384(18)
N3 N 0.4184(3) 0.1696(2) -0.14220(18)
N4 N 0.2083(3) 0.14458(19) -0.19654(18)
C1 C 0.5108(3) 0.2767(2) 0.0634(2)
H2 H 0.4687 0.3238 0.0389
C2 C 0.6131(4) 0.1565(2) 0.0739(2)
H3 H 0.6528 0.1082 0.0601
C3 C 0.5953(4) 0.1832(2) 0.1563(2)
H4 H 0.6217 0.1551 0.2104
C4 C 0.2927(3) 0.2016(2) -0.1660(2)
H5 H 0.2710 0.2561 -0.1610
C5 C 0.2803(4) 0.0727(3) -0.1912(3)
H6 H 0.2444 0.0219 -0.2079
C6 C 0.4092(4) 0.0867(3) -0.1585(2)
H7 H 0.4778 0.0488 -0.1489
H8 H 0.578(6) 0.469(4) 0.151(4)
S1A S 0.44448(9) 0.22057(7) 0.59823(6)
O1A O 0.3357(2) 0.1733(2) 0.61601(18)
O2A O 0.4675(3) 0.30215(19) 0.62409(17)
O3A O 0.4799(3) 0.4439(2) 0.34259(19)
H1A H 0.5358 0.4387 0.3886
N1A N 0.4680(3) 0.2584(2) 0.35020(18)
N2A N 0.4409(3) 0.21695(19) 0.48616(18)
N3A N 0.5816(3) 0.1696(2) 0.64220(18)
N4A N 0.7917(3) 0.14458(19) 0.69654(18)
C1A C 0.4892(3) 0.2767(2) 0.4366(2)
H2A H 0.5313 0.3238 0.4611
C2A C 0.3869(4) 0.1565(2) 0.4261(2)
H3A H 0.3472 0.1082 0.4399
C3A C 0.4047(4) 0.1832(2) 0.3437(2)
H4A H 0.3783 0.1551 0.2896
C4A C 0.7073(3) 0.2016(2) 0.6660(2)
H5A H 0.7290 0.2561 0.6610
C5A C 0.7197(4) 0.0727(3) 0.6912(3)
H6A H 0.7556 0.0219 0.7079
C6A C 0.5908(4) 0.0867(3) 0.6585(2)
H7A H 0.5222 0.0488 0.6489
H8A H 0.422(6) 0.469(4) 0.349(4)
Co1F Co 0.0000 0.15377(4) -0.2500
Co1F_2 Co 1.0000 0.15377(4) 0.7500
N4F N 0.2917(3) 0.35542(19) 0.19654(18)
N4G N 0.7083(3) 0.35542(19) 0.30346(18)
Cl1 Cl 0.76174(9) 0.56914(6) 0.06246(6)
O4 O 0.8705(4) 0.5228(2) 0.0409(3)
O5 O 0.7590(4) 0.5686(3) 0.1574(2)
O6 O 0.6402(3) 0.5347(2) 0.0158(2)
O7 O 0.7726(3) 0.65066(17) 0.0322(2)
loop_
_geom_bond_atom_site_label_1
_geom_bond_atom_site_label_2
_geom_bond_site_symmetry_1
_geom_bond_site_symmetry_2
Co1 O3 1_555 1_555
S1 O1 1_555 1_555
O2 S1 1_555 1_555
O3 H1 1_555 1_555
N1 Co1 1_555 1_555
N2 S1 1_555 1_555
N3 S1 1_555 1_555
N4 C4 1_555 1_555
C1 N1 1_555 1_555
H2 C1 1_555 1_555
C2 N2 1_555 1_555
H3 C2 1_555 1_555
C3 N1 1_555 1_555
H4 C3 1_555 1_555
C4 N3 1_555 1_555
H5 C4 1_555 1_555
C5 N4 1_555 1_555
H6 C5 1_555 1_555
C6 N3 1_555 1_555
H7 C6 1_555 1_555
H8 O3 1_555 1_555
Cl1 O4 1_555 1_555
O5 Cl1 1_555 1_555
O6 Cl1 1_555 1_555
O7 Cl1 1_555 1_555
S1A O1A 1_555 1_555
O2A S1A 1_555 1_555
O3A Co1 1_555 1_555
H1A O3A 1_555 1_555
N1A Co1 1_555 1_555
N2A S1A 1_555 1_555
N3A S1A 1_555 1_555
N4A C4A 1_555 1_555
C1A N1A 1_555 1_555
H2A C1A 1_555 1_555
C2A N2A 1_555 1_555
H3A C2A 1_555 1_555
C3A N1A 1_555 1_555
H4A C3A 1_555 1_555
C4A N3A 1_555 1_555
H5A C4A 1_555 1_555
C5A N4A 1_555 1_555
H6A C5A 1_555 1_555
C6A N3A 1_555 1_555
H7A C6A 1_555 1_555
H8A O3A 1_555 1_555
Co1F N4 1_555 1_555
Co1F_2 N4A 1_555 1_555
N4F Co1 1_555 1_555
N4G Co1 1_555 1_555
N2 C1 1_555 1_555
C2 C3 1_555 1_555
C5 C6 1_555 1_555
N2A C1A 1_555 1_555
C2A C3A 1_555 1_555
C5A C6A 1_555 1_555

#END
