
#######################################################################
#
#                 Cambridge Crystallographic Data Centre
#                                CCDC 
#
#######################################################################
#
# If this CIF has been generated from an entry in the Cambridge 
# Structural Database, then it will include bibliographic, chemical, 
# crystal, experimental, refinement or atomic coordinate data resulting 
# from the CCDC's data processing and validation procedures.
#
#######################################################################

data_VUKYIL
_symmetry_cell_setting           monoclinic
_symmetry_space_group_name_H-M   'C 2/c'
_symmetry_Int_Tables_number      15
_space_group_name_Hall           '-C 2yn'
loop_
_symmetry_equiv_pos_site_id
_symmetry_equiv_pos_as_xyz
1 x,y,z
2 -x,y,1/2-z
3 1/2+x,1/2+y,z
4 1/2-x,1/2+y,1/2-z
5 -x,-y,-z
6 x,-y,1/2+z
7 1/2-x,1/2-y,-z
8 1/2+x,1/2-y,1/2+z
_cell_length_a                   18.592(4)
_cell_length_b                   8.3621(17)
_cell_length_c                   19.857(4)
_cell_angle_alpha                90
_cell_angle_beta                 100.14(3)
_cell_angle_gamma                90
_cell_volume                     3038.91
loop_
_atom_site_label
_atom_site_type_symbol
_atom_site_fract_x
_atom_site_fract_y
_atom_site_fract_z
Cd1 Cd -0.070991(14) -0.35556(3) 0.494764(15)
S1 S 0.0000 0.02695(18) 0.7500
O1 O 0.0527(2) 0.1038(4) 0.71853(16)
O2 O -0.10427(16) -0.1155(3) 0.43983(17)
O3 O 0.02824(13) -0.3937(3) 0.44707(14)
O4 O 0.05500(15) -0.1627(3) 0.50099(15)
O5 O 0.30793(14) 0.0537(3) 0.49033(15)
O6 O 0.36352(14) -0.0199(3) 0.40627(14)
O7 O 0.23626(18) -0.3706(4) 0.22455(18)
O8 O 0.12345(15) -0.4566(4) 0.22419(14)
N1 N -0.07042(17) -0.2406(4) 0.59771(17)
N2 N -0.04457(18) -0.0958(4) 0.69104(16)
C1 C -0.0212(2) -0.1487(5) 0.6333(2)
H1 H 0.0235 -0.1228 0.6212
C2 C -0.1136(2) -0.1595(5) 0.6902(2)
H2 H -0.1434 -0.1450 0.7227
C3 C -0.1280(2) -0.2459(6) 0.6329(2)
H3 H -0.1711 -0.3022 0.6187
C4 C -0.1703(3) -0.0851(6) 0.3951(3)
H4 H -0.1707 0.0234 0.3793
H5 H -0.2105 -0.1016 0.4188
H6 H -0.1748 -0.1565 0.3567
C5 C 0.12692(19) -0.2426(4) 0.41808(18)
C6 C 0.1857(2) -0.1418(4) 0.44301(19)
H7 H 0.1860 -0.0855 0.4834
C7 C 0.24389(19) -0.1251(4) 0.40765(19)
C8 C 0.2414(2) -0.2058(5) 0.3466(2)
H8 H 0.2801 -0.1955 0.3230
C9 C 0.18220(19) -0.3025(4) 0.31977(19)
C10 C 0.12494(19) -0.3220(4) 0.35623(19)
H9 H 0.0856 -0.3879 0.3392
C11 C 0.30846(19) -0.0231(4) 0.4364(2)
C12 C 0.1837(2) -0.3787(5) 0.2522(2)
C13 C 0.06652(19) -0.2649(5) 0.45857(19)
O1A O -0.0527(2) 0.1038(4) 0.78147(16)
N1A N 0.07042(17) -0.2406(4) 0.90229(17)
N2A N 0.04457(18) -0.0958(4) 0.80896(16)
C1A C 0.0212(2) -0.1487(5) 0.8667(2)
H1A H -0.0235 -0.1228 0.8788
C2A C 0.1136(2) -0.1595(5) 0.8098(2)
H2A H 0.1434 -0.1450 0.7773
C3A C 0.1280(2) -0.2459(6) 0.8671(2)
H3A H 0.1711 -0.3022 0.8813
Cd1A Cd 0.070991(14) -0.35556(3) 1.005236(15)
O2A O 0.10427(16) -0.1155(3) 1.06017(17)
O3A O -0.02824(13) -0.3937(3) 1.05293(14)
O4A O -0.05500(15) -0.1627(3) 0.99901(15)
O5A O -0.30793(14) 0.0537(3) 1.00967(15)
O6A O -0.36352(14) -0.0199(3) 1.09373(14)
O7A O -0.23626(18) -0.3706(4) 1.27545(18)
O8A O -0.12345(15) -0.4566(4) 1.27581(14)
C4A C 0.1703(3) -0.0851(6) 1.1049(3)
H4A H 0.1707 0.0234 1.1207
H5A H 0.2105 -0.1016 1.0812
H6A H 0.1748 -0.1565 1.1433
C5A C -0.12692(19) -0.2426(4) 1.08192(18)
C6A C -0.1857(2) -0.1418(4) 1.05699(19)
H7A H -0.1860 -0.0855 1.0166
C7A C -0.24389(19) -0.1251(4) 1.09235(19)
C8A C -0.2414(2) -0.2058(5) 1.1534(2)
H8A H -0.2801 -0.1955 1.1770
C9A C -0.18220(19) -0.3025(4) 1.18023(19)
C10A C -0.12494(19) -0.3220(4) 1.14377(19)
H9A H -0.0856 -0.3879 1.1608
C11A C -0.30846(19) -0.0231(4) 1.0636(2)
C12A C -0.1837(2) -0.3787(5) 1.2478(2)
C13A C -0.06652(19) -0.2649(5) 1.04143(19)
Cd1B Cd 0.429009(14) 0.14444(3) 0.494764(15)
Cd1C Cd -0.429009(14) 0.14444(3) 1.005236(15)
Cd1D Cd 0.070991(14) -0.64444(3) 0.505236(15)
Cd1E Cd -0.070991(14) -0.64444(3) 0.994764(15)
O3D O -0.02824(13) -0.6063(3) 0.55293(14)
O3E O 0.02824(13) -0.6063(3) 0.94707(14)
O5B O -0.19207(14) -0.4463(3) 0.49033(15)
O5C O 0.19207(14) -0.4463(3) 1.00967(15)
O6B O -0.13648(14) -0.5199(3) 0.40627(14)
O6C O 0.13648(14) -0.5199(3) 1.09373(14)
loop_
_geom_bond_atom_site_label_1
_geom_bond_atom_site_label_2
_geom_bond_site_symmetry_1
_geom_bond_site_symmetry_2
Cd1 O2 1_555 1_555
S1 O1 1_555 1_555
O2 C4 1_555 1_555
O3 Cd1 1_555 1_555
O4 C13 1_555 1_555
O5 C11 1_555 1_555
O6 C11 1_555 1_555
O7 C12 1_555 1_555
O8 C12 1_555 1_555
N1 Cd1 1_555 1_555
N2 S1 1_555 1_555
C1 N1 1_555 1_555
H1 C1 1_555 1_555
C2 N2 1_555 1_555
H2 C2 1_555 1_555
C3 N1 1_555 1_555
H3 C3 1_555 1_555
C4 H4 1_555 1_555
H5 C4 1_555 1_555
H6 C4 1_555 1_555
C5 C6 1_555 1_555
C6 H7 1_555 1_555
C7 C6 1_555 1_555
C8 C7 1_555 1_555
H8 C8 1_555 1_555
C9 C8 1_555 1_555
C10 C5 1_555 1_555
H9 C10 1_555 1_555
C11 C7 1_555 1_555
C12 C9 1_555 1_555
C13 O3 1_555 1_555
O1A S1 1_555 1_555
N1A C1A 1_555 1_555
N2A S1 1_555 1_555
C1A N2A 1_555 1_555
H1A C1A 1_555 1_555
C2A N2A 1_555 1_555
H2A C2A 1_555 1_555
C3A N1A 1_555 1_555
H3A C3A 1_555 1_555
Cd1A N1A 1_555 1_555
O2A Cd1A 1_555 1_555
O3A Cd1A 1_555 1_555
O4A C13A 1_555 1_555
O5A C11A 1_555 1_555
O6A C11A 1_555 1_555
O7A C12A 1_555 1_555
O8A C12A 1_555 1_555
C4A O2A 1_555 1_555
H4A C4A 1_555 1_555
H5A C4A 1_555 1_555
H6A C4A 1_555 1_555
C5A C6A 1_555 1_555
C6A H7A 1_555 1_555
C7A C6A 1_555 1_555
C8A C7A 1_555 1_555
H8A C8A 1_555 1_555
C9A C8A 1_555 1_555
C10A C5A 1_555 1_555
H9A C10A 1_555 1_555
C11A C7A 1_555 1_555
C12A C9A 1_555 1_555
C13A O3A 1_555 1_555
Cd1B O5 1_555 1_555
Cd1C O5A 1_555 1_555
Cd1D O3 1_555 1_555
Cd1E O3A 1_555 1_555
O3D Cd1 1_555 1_555
O3E Cd1A 1_555 1_555
O5B Cd1 1_555 1_555
O5C Cd1A 1_555 1_555
O6B Cd1 1_555 1_555
O6C Cd1A 1_555 1_555
O6 Cd1B 1_555 1_555
N2 C1 1_555 1_555
C2 C3 1_555 1_555
C5 C13 1_555 1_555
C9 C10 1_555 1_555
C2A C3A 1_555 1_555
O6A Cd1C 1_555 1_555
C5A C13A 1_555 1_555
C9A C10A 1_555 1_555
Cd1D O3D 1_555 1_555
Cd1E O3E 1_555 1_555

#END
