
#######################################################################
#
#                 Cambridge Crystallographic Data Centre
#                                CCDC 
#
#######################################################################
#
# If this CIF has been generated from an entry in the Cambridge 
# Structural Database, then it will include bibliographic, chemical, 
# crystal, experimental, refinement or atomic coordinate data resulting 
# from the CCDC's data processing and validation procedures.
#
#######################################################################

data_VULFIT
_symmetry_cell_setting           monoclinic
_symmetry_space_group_name_H-M   'P 21/c'
_symmetry_Int_Tables_number      14
_space_group_name_Hall           '-P 2ybc'
loop_
_symmetry_equiv_pos_site_id
_symmetry_equiv_pos_as_xyz
1 x,y,z
2 -x,1/2+y,1/2-z
3 -x,-y,-z
4 x,1/2-y,1/2+z
_cell_length_a                   13.5497(7)
_cell_length_b                   10.8567(4)
_cell_length_c                   14.6263(7)
_cell_angle_alpha                90
_cell_angle_beta                 109.784(6)
_cell_angle_gamma                90
_cell_volume                     2024.6
loop_
_atom_site_label
_atom_site_type_symbol
_atom_site_fract_x
_atom_site_fract_y
_atom_site_fract_z
Co1 Co 0.403598(18) 0.91509(3) 0.457131(17)
Co2 Co 0.504781(17) 1.02144(2) 0.294754(17)
O1 O 0.29680(10) 1.03794(13) 0.36946(9)
O2 O 0.4959(4) 0.7327(5) 0.5395(3)
H1 H 0.4983 0.6663 0.5709
H2 H 0.5515 0.7740 0.5663
O3 O 0.39120(9) 1.14730(13) 0.29933(11)
O4 O 0.48142(11) 1.10694(15) 0.15552(10)
H3 H 0.4811 1.0515 0.1144
H4 H 0.5309 1.1575 0.1606
O5 O 0.37994(10) 1.42022(15) 0.23512(10)
O6 O 0.31740(10) 1.28750(14) 0.11241(10)
O7 O -0.36693(9) 1.28409(12) 0.15489(9)
O8 O -0.37223(9) 1.40562(12) 0.27721(9)
O9 O -0.38351(10) 1.16122(14) 0.34814(10)
O10 O -0.28501(10) 1.15399(14) 0.50453(9)
O11 O 0.53840(8) 0.95638(11) 0.43331(8)
C1 C 0.31033(13) 1.12697(18) 0.32111(13)
C2 C 0.22212(13) 1.21774(18) 0.28523(13)
C3 C 0.13632(13) 1.20416(18) 0.31635(13)
H5 H 0.1355 1.1386 0.3570
C4 C 0.05165(13) 1.28536(19) 0.28874(14)
C5 C 0.05525(14) 1.38263(19) 0.22808(15)
H6 H 0.0000 1.4385 0.2087
C6 C 0.13960(14) 1.39770(19) 0.19614(15)
H7 H 0.1400 1.4634 0.1554
C7 C 0.22458(13) 1.31568(17) 0.22406(13)
C8 C 0.31566(13) 1.34098(18) 0.18794(13)
C9 C -0.03751(13) 1.26643(18) 0.32567(13)
C10 C -0.13953(13) 1.30092(18) 0.26957(13)
H8 H -0.1516 1.3394 0.2100
C11 C -0.22295(13) 1.27824(16) 0.30199(12)
C12 C -0.20682(13) 1.21686(17) 0.39036(12)
C13 C -0.10486(13) 1.18574(18) 0.44722(13)
H9 H -0.0927 1.1480 0.5071
C14 C -0.02099(13) 1.21036(19) 0.41574(13)
H10 H 0.0467 1.1894 0.4549
C15 C -0.33081(13) 1.32407(17) 0.24038(12)
C16 C -0.29905(13) 1.17488(17) 0.41692(13)
H11 H 0.5852(15) 0.8977(19) 0.4418(14)
Co1A Co -0.403598(18) 1.41509(3) 0.042869(17)
Co1B Co -0.403598(18) 1.08491(3) 0.542869(17)
Co1B_2 Co 0.596402(18) 1.08491(3) 0.542869(17)
Co2_2 Co -0.495219(17) 1.02144(2) 0.294754(17)
Co2A Co -0.504781(17) 1.52144(2) 0.205246(17)
Co2A_2 Co 0.495219(17) 1.52144(2) 0.205246(17)
O5A O 0.62006(10) 0.92022(15) 0.26488(10)
O7A O 0.36693(9) 0.78409(12) 0.34511(9)
O8A O 0.37223(9) 0.90562(12) 0.22279(9)
O9_2 O 0.61649(10) 1.16122(14) 0.34814(10)
O10B O 0.28501(10) 0.84601(14) 0.49547(9)
O11B O 0.46160(8) 1.04362(11) 0.56669(8)
N1 N 0.25952(19) 0.0406(2) 0.05386(18)
H12 H 0.2803 0.1191 0.0687
H13 H 0.2948 -0.0064 0.1052
C17 C 0.1448(3) 0.0320(3) 0.0388(3)
H14 H 0.1056 0.0732 -0.0204
H15 H 0.1309 0.0704 0.0924
H16 H 0.1243 -0.0530 0.0349
C18 C 0.2888(3) 0.0018(4) -0.0310(2)
H17 H 0.2593 0.0582 -0.0838
H18 H 0.2623 -0.0795 -0.0508
H19 H 0.3638 0.0015 -0.0134
loop_
_geom_bond_atom_site_label_1
_geom_bond_atom_site_label_2
_geom_bond_site_symmetry_1
_geom_bond_site_symmetry_2
Co1 O1 1_555 1_555
Co2 O3 1_555 1_555
O1 C1 1_555 1_555
O2 Co1 1_555 1_555
H1 O2 1_555 1_555
H2 O2 1_555 1_555
O3 C1 1_555 1_555
O4 Co2 1_555 1_555
H3 O4 1_555 1_555
H4 O4 1_555 1_555
O5 C8 1_555 1_555
O6 C8 1_555 1_555
O7 C15 1_555 1_555
O8 C15 1_555 1_555
O9 C16 1_555 1_555
O10 C16 1_555 1_555
O11 Co1 1_555 1_555
C1 C2 1_555 1_555
C2 C3 1_555 1_555
C3 H5 1_555 1_555
C4 C3 1_555 1_555
C5 C4 1_555 1_555
H6 C5 1_555 1_555
C6 C5 1_555 1_555
H7 C6 1_555 1_555
C7 C2 1_555 1_555
C8 C7 1_555 1_555
C9 C4 1_555 1_555
C10 C9 1_555 1_555
H8 C10 1_555 1_555
C11 C10 1_555 1_555
C12 C11 1_555 1_555
C13 C12 1_555 1_555
H9 C13 1_555 1_555
C14 C9 1_555 1_555
H10 C14 1_555 1_555
C15 C11 1_555 1_555
C16 C12 1_555 1_555
H11 O11 1_555 1_555
N1 H12 1_555 1_555
H13 N1 1_555 1_555
C17 N1 1_555 1_555
H14 C17 1_555 1_555
H15 C17 1_555 1_555
H16 C17 1_555 1_555
C18 N1 1_555 1_555
H17 C18 1_555 1_555
H18 C18 1_555 1_555
H19 C18 1_555 1_555
Co1A O7 1_555 1_555
Co1B O10 1_555 1_555
Co1B_2 O11 1_555 1_555
Co2_2 O9 1_555 1_555
Co2A O8 1_555 1_555
Co2A_2 O5 1_555 1_555
O5A Co2 1_555 1_555
O7A Co1 1_555 1_555
O8A Co2 1_555 1_555
O9_2 Co2 1_555 1_555
O10B Co1 1_555 1_555
O11B Co1 1_555 1_555
Co2 O11 1_555 1_555
C6 C7 1_555 1_555
C13 C14 1_555 1_555
Co1B_2 O11B 1_555 1_555

#END
