
#######################################################################
#
#                 Cambridge Crystallographic Data Centre
#                                CCDC 
#
#######################################################################
#
# If this CIF has been generated from an entry in the Cambridge 
# Structural Database, then it will include bibliographic, chemical, 
# crystal, experimental, refinement or atomic coordinate data resulting 
# from the CCDC's data processing and validation procedures.
#
#######################################################################

data_VULFEO
_symmetry_cell_setting           monoclinic
_symmetry_space_group_name_H-M   'P 2/c'
_symmetry_Int_Tables_number      13
_space_group_name_Hall           '-P 2yc'
loop_
_symmetry_equiv_pos_site_id
_symmetry_equiv_pos_as_xyz
1 x,y,z
2 -x,y,1/2-z
3 -x,-y,-z
4 x,-y,1/2+z
_cell_length_a                   8.8975(5)
_cell_length_b                   15.1126(11)
_cell_length_c                   8.4960(6)
_cell_angle_alpha                90
_cell_angle_beta                 96.210(5)
_cell_angle_gamma                90
_cell_volume                     1135.71
loop_
_atom_site_label
_atom_site_type_symbol
_atom_site_fract_x
_atom_site_fract_y
_atom_site_fract_z
C1 C -0.2673(18) 0.3505(10) 0.014(2)
C2 C -0.3860(17) 0.3486(10) -0.1194(18)
C3 C -0.5410(19) 0.3438(11) -0.095(2)
C4 C -0.3504(18) 0.3477(11) -0.276(2)
H1 H -0.2493 0.3498 -0.2944
C5 C -0.138(2) 0.1654(12) 0.402(3)
C6 C -0.0679(18) 0.0809(11) 0.456(2)
C7 C 0.078(2) 0.0752(13) 0.529(3)
C8 C -0.148(2) 0.0025(13) 0.427(2)
H2 H -0.2473 0.0031 0.3784
O1 O 0.1746(13) 0.4203(8) 0.0892(14)
H3 H 0.1744 0.4652 0.0483
H4 H 0.2490 0.3943 0.0718
O2 O 0.0000 0.5235(11) 0.2500
H5 H 0.0271 0.5620 0.2109
O3 O -0.1449(12) 0.3932(8) -0.0064(14)
O4 O -0.2779(12) 0.3114(8) 0.1418(13)
O5 O -0.5825(12) 0.3393(8) 0.0551(13)
O6 O -0.4477(17) 0.1416(10) 0.045(2)
H6 H -0.5155 0.1196 -0.0240
H7 H -0.3598 0.1195 0.0541
O7 O -0.2768(14) 0.1660(9) 0.3465(18)
O8 O -0.0544(14) 0.2343(7) 0.4044(16)
O9 O 0.1634(19) 0.1525(11) 0.566(2)
Gd1 Gd 0.0000 0.36063(7) 0.2500
Gd2 Gd -0.5000 0.24691(7) 0.2500
C1A C -0.7327(18) 0.3505(10) -0.514(2)
C2A C -0.6140(17) 0.3486(10) -0.3806(18)
C3A C -0.4590(19) 0.3438(11) -0.405(2)
C4A C -0.6496(18) 0.3477(11) -0.224(2)
H1A H -0.7507 0.3498 -0.2056
C5B C 0.138(2) -0.1654(12) 0.598(3)
C6B C 0.0679(18) -0.0809(11) 0.544(2)
C7B C -0.078(2) -0.0752(13) 0.471(3)
C8B C 0.148(2) -0.0025(13) 0.573(2)
H2B H 0.2473 -0.0031 0.6216
O1A O -0.1746(13) 0.4203(8) 0.4108(14)
H3A H -0.1744 0.4652 0.4517
H4A H -0.2490 0.3943 0.4282
H5A H -0.0271 0.5620 0.2891
O3A O -0.8551(12) 0.3932(8) -0.4936(14)
O3A_2 O 0.1449(12) 0.3932(8) 0.5064(14)
O4A O -0.7221(12) 0.3114(8) -0.6418(13)
O4A_2 O 0.2779(12) 0.3114(8) 0.3582(13)
O4A_3 O -0.7221(12) 0.3114(8) 0.3582(13)
O5A O -0.4175(12) 0.3393(8) -0.5551(13)
O5A_2 O -0.4175(12) 0.3393(8) 0.4449(13)
O6A O -0.5523(17) 0.1416(10) 0.455(2)
H6A H -0.4845 0.1196 0.5240
H7A H -0.6402 0.1195 0.4459
O7B O 0.2768(14) -0.1660(9) 0.6535(18)
O7A O -0.7232(14) 0.1660(9) 0.1535(18)
O8B O 0.0544(14) -0.2343(7) 0.5956(16)
O8A O 0.0544(14) 0.2343(7) 0.0956(16)
O9B O -0.1634(19) -0.1525(11) 0.434(2)
Gd1_2 Gd -1.0000 0.36063(7) -0.7500
Gd1B Gd 0.0000 -0.36063(7) 0.7500
Gd2_2 Gd -0.5000 0.24691(7) -0.7500
Gd2B Gd 0.5000 -0.24691(7) 0.7500
loop_
_geom_bond_atom_site_label_1
_geom_bond_atom_site_label_2
_geom_bond_site_symmetry_1
_geom_bond_site_symmetry_2
C1 C2 1_555 1_555
C2 C3 1_555 1_555
C3 O5 1_555 1_555
C4 C2 1_555 1_555
H1 C4 1_555 1_555
C5 C6 1_555 1_555
C6 C7 1_555 1_555
C7 O9 1_555 1_555
C8 C6 1_555 1_555
H2 C8 1_555 1_555
O1 H3 1_555 1_555
H4 O1 1_555 1_555
O2 H5 1_555 1_555
O3 C1 1_555 1_555
O4 C1 1_555 1_555
O5 Gd2 1_555 1_555
O6 H6 1_555 1_555
H7 O6 1_555 1_555
O7 C5 1_555 1_555
O8 C5 1_555 1_555
Gd1 O1 1_555 1_555
Gd2 O4 1_555 1_555
C1A C2A 1_555 1_555
C2A C3A 1_555 1_555
C3A C4 1_555 1_555
C4A C3 1_555 1_555
H1A C4A 1_555 1_555
C5B C6B 1_555 1_555
C6B C7B 1_555 1_555
C7B C8 1_555 1_555
C8B C7 1_555 1_555
H2B C8B 1_555 1_555
O1A Gd1 1_555 1_555
H3A O1A 1_555 1_555
H4A O1A 1_555 1_555
H5A O2 1_555 1_555
O3A C1A 1_555 1_555
O3A_2 Gd1 1_555 1_555
O4A C1A 1_555 1_555
O4A_2 Gd1 1_555 1_555
O4A_3 Gd2 1_555 1_555
O5A C3A 1_555 1_555
O5A_2 Gd2 1_555 1_555
O6A Gd2 1_555 1_555
H6A O6A 1_555 1_555
H7A O6A 1_555 1_555
O7B C5B 1_555 1_555
O7A Gd2 1_555 1_555
O8B C5B 1_555 1_555
O8A Gd1 1_555 1_555
O9B C7B 1_555 1_555
Gd1_2 O3A 1_555 1_555
Gd1B O8B 1_555 1_555
Gd2_2 O4A 1_555 1_555
Gd2B O7B 1_555 1_555
O2 Gd1 1_555 1_555
O3 Gd1 1_555 1_555
O4 Gd1 1_555 1_555
O6 Gd2 1_555 1_555
O7 Gd2 1_555 1_555
O8 Gd1 1_555 1_555
C2A C4A 1_555 1_555
C6B C8B 1_555 1_555
O4A Gd1_2 1_555 1_555
O5A Gd2_2 1_555 1_555

#END
