
#######################################################################
#
#                 Cambridge Crystallographic Data Centre
#                                CCDC 
#
#######################################################################
#
# If this CIF has been generated from an entry in the Cambridge 
# Structural Database, then it will include bibliographic, chemical, 
# crystal, experimental, refinement or atomic coordinate data resulting 
# from the CCDC's data processing and validation procedures.
#
#######################################################################

data_VULFUE
_symmetry_cell_setting           orthorhombic
_symmetry_space_group_name_H-M   'P 21 21 21'
_symmetry_Int_Tables_number      19
_space_group_name_Hall           'P 2ac 2ab'
loop_
_symmetry_equiv_pos_site_id
_symmetry_equiv_pos_as_xyz
1 x,y,z
2 1/2-x,-y,1/2+z
3 -x,1/2+y,1/2-z
4 1/2+x,1/2-y,-z
_cell_length_a                   14.5315(16)
_cell_length_b                   14.5565(17)
_cell_length_c                   23.839(3)
_cell_angle_alpha                90
_cell_angle_beta                 90
_cell_angle_gamma                90
_cell_volume                     5042.61
loop_
_atom_site_label
_atom_site_type_symbol
_atom_site_fract_x
_atom_site_fract_y
_atom_site_fract_z
Si1 Si -0.21710(13) -0.01679(12) 1.00263(7)
F1 F -0.1330(4) -0.0915(4) 1.0051(2)
F2 F -0.1436(5) 0.0674(5) 1.0006(3)
F3 F -0.2922(4) -0.1016(4) 1.0051(3)
F4 F -0.3009(4) 0.0587(4) 1.00071(18)
F5 F -0.2175(3) -0.0212(3) 0.93192(14)
F6 F -0.2179(3) -0.0099(3) 1.07340(15)
O7 O -0.2036(5) -0.5696(5) 0.8275(3)
O8 O 0.0421(10) 0.137(2) 1.0202(7)
O9 O 0.9946(17) 0.263(3) 0.9907(6)
Cu1 Cu 0.28079(5) 0.00991(5) 0.84769(3)
N1 N 0.4121(3) 0.0503(3) 0.8594(2)
N2 N 0.6859(4) 0.1298(4) 0.8789(2)
H1 H 0.7171 0.0921 0.8991
C1 C 0.4456(5) 0.1246(4) 0.8324(2)
H2 H 0.4064 0.1564 0.8085
C2 C 0.5342(5) 0.1560(5) 0.8382(3)
H3 H 0.5531 0.2091 0.8198
C3 C 0.5952(5) 0.1074(5) 0.8720(3)
C4 C 0.5589(5) 0.0308(5) 0.8996(3)
H4 H 0.5965 -0.0035 0.9233
C5 C 0.4712(4) 0.0059(5) 0.8925(3)
H5 H 0.4501 -0.0454 0.9118
N3 N 0.7663(4) -0.3603(3) 0.6433(2)
N4 N 0.8732(4) -0.0979(4) 0.6183(2)
H6 H 0.8393 -0.0632 0.5976
C6 C 0.8300(5) -0.3270(5) 0.6781(3)
H7 H 0.8487 -0.3625 0.7085
C7 C 0.8688(5) -0.2420(5) 0.6704(3)
H8 H 0.9146 -0.2220 0.6948
C8 C 0.8408(5) -0.1859(4) 0.6273(3)
C9 C 0.7723(5) -0.2197(4) 0.5921(3)
H9 H 0.7498 -0.1836 0.5629
C10 C 0.7379(5) -0.3074(5) 0.6005(3)
H10 H 0.6938 -0.3302 0.5759
O1 O 0.6988(4) 0.2636(4) 0.8331(3)
O2 O 1.0086(4) -0.1008(4) 0.6649(3)
C11 C 0.7339(6) 0.2020(6) 0.8590(3)
C12 C 0.9520(7) -0.0592(6) 0.6382(3)
C13 C 0.8358(6) 0.1957(6) 0.8664(4)
H11 H 0.8488 0.1773 0.9046
H12 H 0.8623 0.2562 0.8608
C14 C 0.8820(6) 0.1290(6) 0.8269(4)
H13 H 0.9479 0.1309 0.8333
H14 H 0.8611 0.0673 0.8356
C15 C 0.8637(7) 0.1481(6) 0.7661(5)
H15 H 0.8792 0.2115 0.7579
H16 H 0.7986 0.1399 0.7586
C16 C 0.9188(7) 0.0855(7) 0.7278(5)
H17 H 0.9839 0.0964 0.7341
H18 H 0.9061 0.0221 0.7378
C17 C 0.8981(9) 0.0988(6) 0.6660(5)
H19 H 0.9055 0.1633 0.6569
H20 H 0.8342 0.0829 0.6593
C18 C 0.9583(7) 0.0423(7) 0.6260(4)
H21 H 0.9390 0.0536 0.5877
H22 H 1.0218 0.0619 0.6297
C19 C 0.4761(5) -0.4404(5) 0.8291(3)
C20 C 0.4764(6) -0.5435(5) 0.8391(4)
H23 H 0.5334 -0.5681 0.8243
H24 H 0.4766 -0.5539 0.8793
C21 C 0.4001(10) -0.5961(6) 0.8149(5)
H25 H 0.3442 -0.5813 0.8352
H26 H 0.4122 -0.6610 0.8203
C22 C 0.3844(9) -0.5794(10) 0.7553(5)
H27 H 0.4422 -0.5837 0.7351
H28 H 0.3598 -0.5181 0.7500
C23 C 0.3163(10) -0.6506(9) 0.7325(5)
H29 H 0.3287 -0.7085 0.7512
H30 H 0.2549 -0.6316 0.7435
C24 C 0.3155(10) -0.6674(9) 0.6727(5)
H31 H 0.3777 -0.6846 0.6621
H32 H 0.3029 -0.6090 0.6546
C25 C 0.2521(7) -0.7370(6) 0.6466(4)
H33 H 0.2697 -0.7978 0.6594
H34 H 0.2599 -0.7354 0.6062
C26 C 0.1511(7) -0.7214(6) 0.6602(4)
N5 N 0.3195(4) -0.1226(3) 0.8468(2)
N6 N 0.4060(4) -0.3956(4) 0.8565(2)
H35 H 0.3747 -0.4283 0.8797
C27 C 0.3790(5) -0.1564(5) 0.8108(3)
H36 H 0.4001 -0.1172 0.7829
C28 C 0.4125(5) -0.2439(4) 0.8109(3)
H37 H 0.4561 -0.2626 0.7847
C29 C 0.3793(4) -0.3045(4) 0.8515(3)
C30 C 0.3160(5) -0.2702(5) 0.8885(3)
H38 H 0.2917 -0.3086 0.9159
C31 C 0.2881(5) -0.1819(4) 0.8860(3)
H39 H 0.2456 -0.1610 0.9122
N7 N -0.1488(4) -0.5345(3) 0.6512(2)
N8 N 0.1131(4) -0.6472(4) 0.6339(2)
H40 H 0.1471 -0.6203 0.6094
C32 C -0.0941(5) -0.5145(5) 0.6084(3)
H41 H -0.1162 -0.4752 0.5808
C33 C -0.0080(5) -0.5482(5) 0.6026(3)
H42 H 0.0285 -0.5303 0.5724
C34 C 0.0256(4) -0.6097(4) 0.6422(3)
C35 C -0.0304(5) -0.6324(4) 0.6866(3)
H43 H -0.0104 -0.6736 0.7138
C36 C -0.1170(4) -0.5932(4) 0.6901(3)
H44 H -0.1544 -0.6080 0.7204
O3 O 0.1104(4) -0.7685(4) 0.6936(2)
O4 O 0.5300(4) -0.4026(4) 0.7988(2)
O5 O 0.3015(3) 0.0290(3) 0.75037(17)
O6 O 0.2843(6) -0.0086(7) 0.9690(3)
Cu1B Cu 0.71921(5) -0.49009(5) 0.65231(3)
Cu1B_2 Cu -0.28079(5) -0.49009(5) 0.65231(3)
N3B N 0.2337(4) 0.1397(3) 0.8567(2)
N7B N 0.1488(4) -0.0345(3) 0.8488(2)
loop_
_geom_bond_atom_site_label_1
_geom_bond_atom_site_label_2
_geom_bond_site_symmetry_1
_geom_bond_site_symmetry_2
Cu1 N1 1_555 1_555
Si1 F1 1_555 1_555
F2 Si1 1_555 1_555
F3 Si1 1_555 1_555
F4 Si1 1_555 1_555
F5 Si1 1_555 1_555
F6 Si1 1_555 1_555
N1 C1 1_555 1_555
N2 H1 1_555 1_555
C1 H2 1_555 1_555
C2 C1 1_555 1_555
H3 C2 1_555 1_555
C3 N2 1_555 1_555
C4 C3 1_555 1_555
H4 C4 1_555 1_555
C5 N1 1_555 1_555
H5 C5 1_555 1_555
N3 C6 1_555 1_555
N4 H6 1_555 1_555
C6 H7 1_555 1_555
C7 C6 1_555 1_555
H8 C7 1_555 1_555
C8 N4 1_555 1_555
C9 C8 1_555 1_555
H9 C9 1_555 1_555
C10 N3 1_555 1_555
H10 C10 1_555 1_555
O1 C11 1_555 1_555
O2 C12 1_555 1_555
C11 N2 1_555 1_555
C12 N4 1_555 1_555
C13 C11 1_555 1_555
H11 C13 1_555 1_555
H12 C13 1_555 1_555
C14 C13 1_555 1_555
H13 C14 1_555 1_555
H14 C14 1_555 1_555
C15 C14 1_555 1_555
H15 C15 1_555 1_555
H16 C15 1_555 1_555
C16 C15 1_555 1_555
H17 C16 1_555 1_555
H18 C16 1_555 1_555
C17 C16 1_555 1_555
H19 C17 1_555 1_555
H20 C17 1_555 1_555
C18 C12 1_555 1_555
H21 C18 1_555 1_555
H22 C18 1_555 1_555
C19 C20 1_555 1_555
C20 H23 1_555 1_555
H24 C20 1_555 1_555
C21 C20 1_555 1_555
H25 C21 1_555 1_555
H26 C21 1_555 1_555
C22 C21 1_555 1_555
H27 C22 1_555 1_555
H28 C22 1_555 1_555
C23 C22 1_555 1_555
H29 C23 1_555 1_555
H30 C23 1_555 1_555
C24 C23 1_555 1_555
H31 C24 1_555 1_555
H32 C24 1_555 1_555
C25 C24 1_555 1_555
H33 C25 1_555 1_555
H34 C25 1_555 1_555
C26 C25 1_555 1_555
N5 Cu1 1_555 1_555
N6 C19 1_555 1_555
H35 N6 1_555 1_555
C27 N5 1_555 1_555
H36 C27 1_555 1_555
C28 C27 1_555 1_555
H37 C28 1_555 1_555
C29 N6 1_555 1_555
C30 C29 1_555 1_555
H38 C30 1_555 1_555
C31 N5 1_555 1_555
H39 C31 1_555 1_555
N7 C32 1_555 1_555
N8 C26 1_555 1_555
H40 N8 1_555 1_555
C32 H41 1_555 1_555
C33 C32 1_555 1_555
H42 C33 1_555 1_555
C34 N8 1_555 1_555
C35 C34 1_555 1_555
H43 C35 1_555 1_555
C36 N7 1_555 1_555
H44 C36 1_555 1_555
O3 C26 1_555 1_555
O4 C19 1_555 1_555
O5 Cu1 1_555 1_555
O6 Cu1 1_555 1_555
Cu1B N3 1_555 1_555
Cu1B_2 N7 1_555 1_555
N3B Cu1 1_555 1_555
N7B Cu1 1_555 1_555
C2 C3 1_555 1_555
C4 C5 1_555 1_555
C7 C8 1_555 1_555
C9 C10 1_555 1_555
C17 C18 1_555 1_555
C28 C29 1_555 1_555
C30 C31 1_555 1_555
C33 C34 1_555 1_555
C35 C36 1_555 1_555

#END
