
#######################################################################
#
#                 Cambridge Crystallographic Data Centre
#                                CCDC 
#
#######################################################################
#
# If this CIF has been generated from an entry in the Cambridge 
# Structural Database, then it will include bibliographic, chemical, 
# crystal, experimental, refinement or atomic coordinate data resulting 
# from the CCDC's data processing and validation procedures.
#
#######################################################################

data_VULGAL
_symmetry_cell_setting           orthorhombic
_symmetry_space_group_name_H-M   'C 2 2 21'
_symmetry_Int_Tables_number      20
_space_group_name_Hall           'C 2n 2'
loop_
_symmetry_equiv_pos_site_id
_symmetry_equiv_pos_as_xyz
1 x,y,z
2 -x,-y,1/2+z
3 -x,y,1/2-z
4 x,-y,-z
5 1/2+x,1/2+y,z
6 1/2-x,1/2-y,1/2+z
7 1/2-x,1/2+y,1/2-z
8 1/2+x,1/2-y,-z
_cell_length_a                   15.1320(9)
_cell_length_b                   22.9477(13)
_cell_length_c                   15.4770(9)
_cell_angle_alpha                90
_cell_angle_beta                 90
_cell_angle_gamma                90
_cell_volume                     5374.3
loop_
_atom_site_label
_atom_site_type_symbol
_atom_site_fract_x
_atom_site_fract_y
_atom_site_fract_z
N6 N 0.5000 0.0361(5) 0.2500
O4 O 0.4467(7) 0.0059(5) 0.2943(8)
O5 O 0.5000 0.0851(3) 0.2500
O4B O 0.5533(7) 0.0059(5) 0.2057(8)
Cu1 Cu 1.5000 0.36983(4) -0.2500
O1 O 1.1147(5) 0.3078(4) -0.0046(5)
O2 O 0.7256(5) 0.1774(4) -0.3876(5)
O3 O 1.5000 0.2668(3) -0.2500
N1 N 1.3768(4) 0.3702(2) -0.2021(3)
N2 N 1.1130(4) 0.3612(3) -0.1263(4)
H1 H 1.0770 0.3806 -0.1582
N3 N 0.9526(3) 0.1283(2) -0.6282(3)
N4 N 0.8525(5) 0.1243(3) -0.3769(4)
H2 H 0.8816 0.1023 -0.3422
C1 C 1.3154(4) 0.4082(3) -0.2297(4)
H3 H 1.3325 0.4370 -0.2685
C2 C 1.3471(5) 0.3299(3) -0.1453(4)
H4 H 1.3874 0.3025 -0.1250
C3 C 1.2288(5) 0.4067(3) -0.2034(4)
H5 H 1.1887 0.4340 -0.2242
C4 C 1.2646(5) 0.3264(3) -0.1164(5)
H6 H 1.2495 0.2981 -0.0760
C5 C 1.2018(4) 0.3646(3) -0.1462(4)
C6 C 0.8882(5) 0.1655(3) -0.6033(4)
H7 H 0.8665 0.1919 -0.6437
C7 C 0.8529(5) 0.1663(3) -0.5208(5)
H8 H 0.8095 0.1932 -0.5060
C8 C 0.8827(5) 0.1272(3) -0.4618(4)
C9 C 0.9516(5) 0.0904(3) -0.4867(4)
H9 H 0.9766 0.0650 -0.4468
C10 C 0.9818(5) 0.0918(3) -0.5690(4)
H10 H 1.0258 0.0655 -0.5847
C11 C 1.0732(6) 0.3310(5) -0.0606(7)
C12 C 0.9726(6) 0.3303(7) -0.0652(8)
H11 H 0.9510 0.3645 -0.0954
H12 H 0.9474 0.3298 -0.0076
C13 C 0.9484(9) 0.2755(8) -0.1137(11)
H13 H 0.9684 0.2816 -0.1726
H14 H 0.9856 0.2450 -0.0899
C14 C 0.8590(10) 0.2500(9) -0.1207(15)
H15 H 0.8164 0.2813 -0.1269
H16 H 0.8455 0.2294 -0.0676
C15 C 0.8487(11) 0.2085(11) -0.1957(11)
H17 H 0.8668 0.2275 -0.2488
H18 H 0.8858 0.1746 -0.1869
C16 C 0.7543(9) 0.1905(6) -0.2019(9)
H19 H 0.7287 0.1845 -0.1451
H20 H 0.7196 0.2193 -0.2329
C17 C 0.7598(9) 0.1358(5) -0.2501(6)
H21 H 0.7046 0.1146 -0.2448
H22 H 0.8067 0.1117 -0.2266
C18 C 0.7780(9) 0.1486(5) -0.3435(6)
C19 C 1.5001(17) 0.1284(10) -0.1675(17)
C20 C 1.4847(10) 0.2264(6) -0.2928(8)
N5 N 1.5000 0.1694(4) -0.2500
O6 O 1.5000 0.4861(8) -0.2500
C21 C 1.4180(8) 0.5171(5) -0.3035(8)
C22 C 1.5000 0.5308(5) -0.2500
C23 C 1.5000 0.5807(3) -0.2500
Cu1E Cu 1.0000 0.13017(4) -0.7500
Cu1E_2 Cu 2.0000 0.13017(4) 0.2500
O1B O 1.8853(5) 0.3078(4) -0.4954(5)
O2B O 2.2744(5) 0.1774(4) -0.1124(5)
N1B N 1.6232(4) 0.3702(2) -0.2979(3)
N2B N 1.8870(4) 0.3612(3) -0.3737(4)
H1B H 1.9230 0.3806 -0.3418
N3B N 2.0474(3) 0.1283(2) 0.1282(3)
N3E N 1.5474(3) 0.3717(2) -0.1282(3)
N3G N 1.4526(3) 0.3717(2) -0.3718(3)
N4B N 2.1475(5) 0.1243(3) -0.1231(4)
H2B H 2.1184 0.1023 -0.1578
C1B C 1.6846(4) 0.4082(3) -0.2703(4)
H3B H 1.6675 0.4370 -0.2315
C2B C 1.6529(5) 0.3299(3) -0.3547(4)
H4B H 1.6126 0.3025 -0.3750
C3B C 1.7712(5) 0.4067(3) -0.2966(4)
H5B H 1.8113 0.4340 -0.2758
C4B C 1.7354(5) 0.3264(3) -0.3836(5)
H6B H 1.7505 0.2981 -0.4240
C5B C 1.7982(4) 0.3646(3) -0.3538(4)
C6B C 2.1118(5) 0.1655(3) 0.1033(4)
H7B H 2.1335 0.1919 0.1437
C7B C 2.1471(5) 0.1663(3) 0.0208(5)
H8B H 2.1905 0.1932 0.0060
C8B C 2.1173(5) 0.1272(3) -0.0382(4)
C9B C 2.0484(5) 0.0904(3) -0.0133(4)
H9B H 2.0234 0.0650 -0.0532
C10B C 2.0182(5) 0.0918(3) 0.0690(4)
H10B H 1.9742 0.0655 0.0847
C11B C 1.9268(6) 0.3310(5) -0.4394(7)
C12B C 2.0274(6) 0.3303(7) -0.4348(8)
H11B H 2.0490 0.3645 -0.4046
H12B H 2.0526 0.3298 -0.4924
C13B C 2.0516(9) 0.2755(8) -0.3863(11)
H13B H 2.0316 0.2816 -0.3274
H14B H 2.0144 0.2450 -0.4101
C14B C 2.1410(10) 0.2500(9) -0.3793(15)
H15B H 2.1836 0.2813 -0.3731
H16B H 2.1545 0.2294 -0.4324
C15B C 2.1513(11) 0.2085(11) -0.3043(11)
H17B H 2.1332 0.2275 -0.2512
H18B H 2.1142 0.1746 -0.3131
C16B C 2.2457(9) 0.1905(6) -0.2981(9)
H19B H 2.2713 0.1845 -0.3549
H20B H 2.2804 0.2193 -0.2671
C17B C 2.2402(9) 0.1358(5) -0.2499(6)
H21B H 2.2954 0.1146 -0.2552
H22B H 2.1933 0.1117 -0.2734
C18B C 2.2220(9) 0.1486(5) -0.1565(6)
C19B C 1.4999(17) 0.1284(10) -0.3325(17)
C20B C 1.5153(10) 0.2264(6) -0.2072(8)
C21B C 1.5820(8) 0.5171(5) -0.1965(8)
loop_
_geom_bond_atom_site_label_1
_geom_bond_atom_site_label_2
_geom_bond_site_symmetry_1
_geom_bond_site_symmetry_2
Cu1 O3 1_555 1_555
O1 C11 1_555 1_555
O2 C18 1_555 1_555
O3 C20 1_555 1_555
N1 Cu1 1_555 1_555
N2 H1 1_555 1_555
N3 C6 1_555 1_555
N4 H2 1_555 1_555
C1 N1 1_555 1_555
H3 C1 1_555 1_555
C2 N1 1_555 1_555
H4 C2 1_555 1_555
C3 C1 1_555 1_555
H5 C3 1_555 1_555
C4 C2 1_555 1_555
H6 C4 1_555 1_555
C5 N2 1_555 1_555
C6 H7 1_555 1_555
C7 C6 1_555 1_555
H8 C7 1_555 1_555
C8 N4 1_555 1_555
C9 C8 1_555 1_555
H9 C9 1_555 1_555
C10 N3 1_555 1_555
H10 C10 1_555 1_555
C11 N2 1_555 1_555
C12 C11 1_555 1_555
H11 C12 1_555 1_555
H12 C12 1_555 1_555
C13 C12 1_555 1_555
H13 C13 1_555 1_555
H14 C13 1_555 1_555
C14 C13 1_555 1_555
H15 C14 1_555 1_555
H16 C14 1_555 1_555
C15 C14 1_555 1_555
H17 C15 1_555 1_555
H18 C15 1_555 1_555
C16 C15 1_555 1_555
H19 C16 1_555 1_555
H20 C16 1_555 1_555
C17 C16 1_555 1_555
H21 C17 1_555 1_555
H22 C17 1_555 1_555
C18 N4 1_555 1_555
C19 N5 1_555 1_555
C20 N5 1_555 1_555
N5 C19B 1_555 1_555
N6 O4 1_555 1_555
O5 N6 1_555 1_555
O6 Cu1 1_555 1_555
C21 O6 1_555 1_555
C22 O6 1_555 1_555
C23 C22 1_555 1_555
Cu1E N3 1_555 1_555
Cu1E_2 N3B 1_555 1_555
O1B C11B 1_555 1_555
O2B C18B 1_555 1_555
N1B Cu1 1_555 1_555
N2B H1B 1_555 1_555
N3B C6B 1_555 1_555
N3E Cu1 1_555 1_555
N3G Cu1 1_555 1_555
N4B H2B 1_555 1_555
C1B N1B 1_555 1_555
H3B C1B 1_555 1_555
C2B N1B 1_555 1_555
H4B C2B 1_555 1_555
C3B C1B 1_555 1_555
H5B C3B 1_555 1_555
C4B C2B 1_555 1_555
H6B C4B 1_555 1_555
C5B N2B 1_555 1_555
C6B H7B 1_555 1_555
C7B C6B 1_555 1_555
H8B C7B 1_555 1_555
C8B N4B 1_555 1_555
C9B C8B 1_555 1_555
H9B C9B 1_555 1_555
C10B N3B 1_555 1_555
H10B C10B 1_555 1_555
C11B N2B 1_555 1_555
C12B C11B 1_555 1_555
H11B C12B 1_555 1_555
H12B C12B 1_555 1_555
C13B C12B 1_555 1_555
H13B C13B 1_555 1_555
H14B C13B 1_555 1_555
C14B C13B 1_555 1_555
H15B C14B 1_555 1_555
H16B C14B 1_555 1_555
C15B C14B 1_555 1_555
H17B C15B 1_555 1_555
H18B C15B 1_555 1_555
C16B C15B 1_555 1_555
H19B C16B 1_555 1_555
H20B C16B 1_555 1_555
C17B C16B 1_555 1_555
H21B C17B 1_555 1_555
H22B C17B 1_555 1_555
C18B N4B 1_555 1_555
C20B O3 1_555 1_555
O4B N6 1_555 1_555
C21B O6 1_555 1_555
C3 C5 1_555 1_555
C4 C5 1_555 1_555
C7 C8 1_555 1_555
C9 C10 1_555 1_555
C17 C18 1_555 1_555
C20 C20B 1_555 1_555
N5 C20B 1_555 1_555
C21 C22 1_555 1_555
C22 C21B 1_555 1_555
C3B C5B 1_555 1_555
C4B C5B 1_555 1_555
C7B C8B 1_555 1_555
C9B C10B 1_555 1_555
C17B C18B 1_555 1_555

#END
