
#######################################################################
#
#                 Cambridge Crystallographic Data Centre
#                                CCDC 
#
#######################################################################
#
# If this CIF has been generated from an entry in the Cambridge 
# Structural Database, then it will include bibliographic, chemical, 
# crystal, experimental, refinement or atomic coordinate data resulting 
# from the CCDC's data processing and validation procedures.
#
#######################################################################

data_VULKIX
_symmetry_cell_setting           monoclinic
_symmetry_space_group_name_H-M   'I 2/a'
_symmetry_Int_Tables_number      15
_space_group_name_Hall           '-I 2ya'
loop_
_symmetry_equiv_pos_site_id
_symmetry_equiv_pos_as_xyz
1 x,y,z
2 1/2-x,y,-z
3 1/2+x,1/2+y,1/2+z
4 -x,1/2+y,1/2-z
5 -x,-y,-z
6 1/2+x,-y,z
7 1/2-x,1/2-y,1/2-z
8 x,1/2-y,1/2+z
_cell_length_a                   11.0311(4)
_cell_length_b                   11.5197(5)
_cell_length_c                   27.0330(10)
_cell_angle_alpha                90
_cell_angle_beta                 100.739(4)
_cell_angle_gamma                90
_cell_volume                     3375.05
loop_
_atom_site_label
_atom_site_type_symbol
_atom_site_fract_x
_atom_site_fract_y
_atom_site_fract_z
Mn1 Mn 0.91794(3) 0.12666(3) 1.002544(13)
S1 S 0.47339(6) 0.37353(6) 0.68533(2)
S2 S 0.57329(6) 0.29036(7) 0.82663(2)
S3 S 0.83652(6) 0.44432(7) 0.75468(2)
O1 O 1.07614(19) 0.2367(2) 1.01253(8)
O2 O 0.7500 0.0150(2) 1.0000
O3 O 0.62388(17) 0.20192(18) 0.93037(6)
O4 O 0.82664(17) 0.23814(17) 0.94643(6)
O5 O 0.35985(17) 0.42157(18) 0.58449(6)
O6 O 0.52130(15) 0.48959(15) 0.55405(6)
N1 N 1.1823 0.3528 1.0719
H1 H 1.1260 0.4498 1.0149
H2 H 1.0366 0.4447 1.0536
H3 H 1.1589 0.5169 1.0661
H4 H 1.2295 0.3357 1.1463
H5 H 1.3421 0.3267 1.1186
H6 H 1.2833 0.4481 1.1258
H7 H 1.1779 0.1917 1.0706
H8 H 0.7185 0.4997 0.6396
H9 H 0.8867 0.3483 0.8664
C1 C 1.1215 0.4481 1.0500
C2 C 1.2664 0.3670 1.1197
C3 C 1.1464(4) 0.2569(3) 1.05222(18)
C4 C 0.4701(2) 0.4495(2) 0.58960(8)
C5 C 0.5464(2) 0.4372(2) 0.64022(9)
C6 C 0.6657(2) 0.4657(2) 0.65852(9)
C7 C 0.6044(2) 0.3876(2) 0.72995(9)
C8 C 0.6995(2) 0.4367(2) 0.71041(9)
C9 C 0.6416(2) 0.3552(2) 0.78135(9)
C10 C 0.7643(3) 0.3777(2) 0.79935(9)
C11 C 0.8060(2) 0.3408(2) 0.84908(9)
C12 C 0.7130(2) 0.2927(2) 0.86855(9)
C13 C 0.7214(2) 0.2396(2) 0.91933(9)
Mn1A Mn 0.58206(3) 0.12666(3) 0.997456(13)
Mn1B Mn 0.41794(3) 0.62666(3) 0.502544(13)
Mn1C Mn 1.08206(3) 0.62666(3) 1.497456(13)
Mn1F Mn 0.58206(3) 0.37334(3) 0.497456(13)
Mn1G Mn 0.91794(3) 0.37334(3) 1.502544(13)
S1A S 1.02661(6) 0.37353(6) 1.31467(2)
S2A S 0.92671(6) 0.29036(7) 1.17337(2)
S3A S 0.66348(6) 0.44432(7) 1.24532(2)
O1A O 0.42386(19) 0.2367(2) 0.98747(8)
O3A O 0.87612(17) 0.20192(18) 1.06963(6)
O4A O 0.67336(17) 0.23814(17) 1.05357(6)
O5A O 1.14015(17) 0.42157(18) 1.41551(6)
O6A O 0.97870(15) 0.48959(15) 1.44595(6)
O6B O 1.02130(15) -0.01041(15) 1.05405(6)
O6C O 0.47870(15) -0.01041(15) 0.94595(6)
O6F O 0.97870(15) 0.01041(15) 0.94595(6)
O6G O 0.52130(15) 0.01041(15) 1.05405(6)
N1A N 0.3177 0.3528 0.9281
H1A H 0.3740 0.4498 0.9851
H2A H 0.4634 0.4447 0.9464
H3A H 0.3411 0.5169 0.9339
H4A H 0.2705 0.3357 0.8537
H5A H 0.1579 0.3267 0.8814
H6A H 0.2167 0.4481 0.8742
H7A H 0.3221 0.1917 0.9294
H8A H 0.7815 0.4997 1.3604
H9A H 0.6133 0.3483 1.1336
C1A C 0.3785 0.4481 0.9500
C2A C 0.2336 0.3670 0.8803
C3A C 0.3536(4) 0.2569(3) 0.94778(18)
C4A C 1.0299(2) 0.4495(2) 1.41040(8)
C5A C 0.9536(2) 0.4372(2) 1.35978(9)
C6A C 0.8343(2) 0.4657(2) 1.34148(9)
C7A C 0.8956(2) 0.3876(2) 1.27005(9)
C8A C 0.8005(2) 0.4367(2) 1.28959(9)
C9A C 0.8584(2) 0.3552(2) 1.21865(9)
C10A C 0.7357(3) 0.3777(2) 1.20065(9)
C11A C 0.6940(2) 0.3408(2) 1.15092(9)
C12A C 0.7870(2) 0.2927(2) 1.13145(9)
C13A C 0.7786(2) 0.2396(2) 1.08067(9)
loop_
_geom_bond_atom_site_label_1
_geom_bond_atom_site_label_2
_geom_bond_site_symmetry_1
_geom_bond_site_symmetry_2
Mn1 O1 1_555 1_555
S1 C5 1_555 1_555
S2 C9 1_555 1_555
S3 C8 1_555 1_555
O1 C3 1_555 1_555
O2 Mn1 1_555 1_555
O3 C13 1_555 1_555
O4 Mn1 1_555 1_555
O5 C4 1_555 1_555
O6 C4 1_555 1_555
N1 C1 1_555 1_555
H1 C1 1_555 1_555
H2 C1 1_555 1_555
H3 C1 1_555 1_555
H4 C2 1_555 1_555
H5 C2 1_555 1_555
H6 C2 1_555 1_555
H7 C3 1_555 1_555
H8 C6 1_555 1_555
H9 C11 1_555 1_555
C2 N1 1_555 1_555
C3 N1 1_555 1_555
C4 C5 1_555 1_555
C5 C6 1_555 1_555
C6 C8 1_555 1_555
C7 S1 1_555 1_555
C8 C7 1_555 1_555
C9 C7 1_555 1_555
C10 S3 1_555 1_555
C11 C10 1_555 1_555
C12 S2 1_555 1_555
C13 O4 1_555 1_555
Mn1A O2 1_555 1_555
Mn1B O6 1_555 1_555
Mn1C O6A 1_555 1_555
Mn1F O6 1_555 1_555
Mn1G O6A 1_555 1_555
S1A C5A 1_555 1_555
S2A C9A 1_555 1_555
S3A C8A 1_555 1_555
O1A Mn1A 1_555 1_555
O3A Mn1 1_555 1_555
O4A Mn1A 1_555 1_555
O5A C4A 1_555 1_555
O6A C4A 1_555 1_555
O6B Mn1 1_555 1_555
O6C Mn1A 1_555 1_555
O6F Mn1 1_555 1_555
O6G Mn1A 1_555 1_555
N1A C1A 1_555 1_555
H1A C1A 1_555 1_555
H2A C1A 1_555 1_555
H3A C1A 1_555 1_555
H4A C2A 1_555 1_555
H5A C2A 1_555 1_555
H6A C2A 1_555 1_555
H7A C3A 1_555 1_555
H8A C6A 1_555 1_555
H9A C11A 1_555 1_555
C2A N1A 1_555 1_555
C3A O1A 1_555 1_555
C4A C5A 1_555 1_555
C5A C6A 1_555 1_555
C6A C8A 1_555 1_555
C7A S1A 1_555 1_555
C8A C7A 1_555 1_555
C9A C7A 1_555 1_555
C10A S3A 1_555 1_555
C11A C10A 1_555 1_555
C12A S2A 1_555 1_555
C13A O3A 1_555 1_555
O3 Mn1A 1_555 1_555
C9 C10 1_555 1_555
C11 C12 1_555 1_555
C12 C13 1_555 1_555
O4A C13A 1_555 1_555
N1A C3A 1_555 1_555
C9A C10A 1_555 1_555
C11A C12A 1_555 1_555
C12A C13A 1_555 1_555

#END
