
#######################################################################
#
#                 Cambridge Crystallographic Data Centre
#                                CCDC 
#
#######################################################################
#
# If this CIF has been generated from an entry in the Cambridge 
# Structural Database, then it will include bibliographic, chemical, 
# crystal, experimental, refinement or atomic coordinate data resulting 
# from the CCDC's data processing and validation procedures.
#
#######################################################################

data_VULKOD
_symmetry_cell_setting           orthorhombic
_symmetry_space_group_name_H-M   'P b c a'
_symmetry_Int_Tables_number      61
_space_group_name_Hall           '-P 2ac 2ab'
loop_
_symmetry_equiv_pos_site_id
_symmetry_equiv_pos_as_xyz
1 x,y,z
2 1/2-x,-y,1/2+z
3 1/2+x,1/2-y,-z
4 -x,1/2+y,1/2-z
5 -x,-y,-z
6 1/2+x,y,1/2-z
7 1/2-x,1/2+y,z
8 x,1/2-y,1/2+z
_cell_length_a                   20.1491(3)
_cell_length_b                   7.65480(10)
_cell_length_c                   25.6413(5)
_cell_angle_alpha                90
_cell_angle_beta                 90
_cell_angle_gamma                90
_cell_volume                     3954.85
loop_
_atom_site_label
_atom_site_type_symbol
_atom_site_fract_x
_atom_site_fract_y
_atom_site_fract_z
Mn1 Mn 0.180562(18) 0.25885(5) 0.159881(14)
S1 S 0.25946(3) 0.34375(9) -0.16568(2)
S2 S 0.41389(3) 0.61137(10) -0.09147(2)
S3 S 0.26248(3) 0.34467(9) -0.01290(2)
O1 O 0.09034(9) 0.1760(3) 0.20886(7)
O2 O 0.32373(8) 0.4844(2) -0.30387(6)
O3 O 0.23943(8) 0.3177(3) -0.27631(7)
O4 O 0.24933(9) 0.3203(3) 0.09971(6)
O5 O 0.33016(8) 0.5056(2) 0.12251(6)
N1 N 0.06036(11) 0.0424(3) 0.28428(9)
N2 N 0.10130(11) 0.3705(3) 0.10622(9)
H1 H 0.1192 -0.0396 0.3413
H2 H 0.0441 -0.0804 0.3513
H3 H 0.0845 -0.1924 0.3112
H4 H 0.0064 0.2591 0.2915
H5 H -0.0301 0.1109 0.2605
H6 H -0.0238 0.0991 0.3213
H7 H 0.1381 0.0018 0.2422
H8 H 0.0913 0.6588 0.0161
H9 H -0.0335 0.2687 0.0467
H10 H 0.0347 0.1887 0.1137
H11 H 0.1524 0.5749 0.0868
H12 H 0.3931 0.5828 -0.2143
H13 H 0.3977 0.5870 0.0314
C1 C 0.07857(18) -0.0776(5) 0.32548(13)
C2 C -0.00212(15) 0.1358(5) 0.28988(13)
C3 C 0.09982(14) 0.0692(4) 0.24414(11)
C4 C 0.02074(12) 0.4738(4) 0.02274(11)
C5 C 0.07793(16) 0.5629(4) 0.03571(15)
C6 C 0.00484(12) 0.3324(3) 0.05333(10)
C7 C 0.04620(12) 0.2857(4) 0.09386(9)
C8 C 0.11525(18) 0.5093(5) 0.07789(14)
C9 C 0.28953(11) 0.4123(3) -0.26937(9)
C10 C 0.30890(11) 0.4366(3) -0.21382(9)
C11 C 0.36150(11) 0.5258(3) -0.19405(9)
C12 C 0.36219(11) 0.5213(3) -0.13919(9)
C13 C 0.31011(11) 0.4276(3) -0.11772(9)
C14 C 0.31098(11) 0.4275(3) -0.06240(9)
C15 C 0.36395(11) 0.5221(3) -0.04271(9)
C16 C 0.36528(12) 0.5291(3) 0.01219(9)
C17 C 0.31338(11) 0.4408(3) 0.03374(9)
C18 C 0.29627(13) 0.4218(3) 0.09026(9)
Mn1D Mn -0.180562(18) 0.74115(5) -0.159881(14)
Mn1A Mn 0.319438(18) 0.74115(5) -0.340119(14)
Mn1B Mn -0.319438(18) 0.24115(5) -0.159881(14)
Mn1C Mn -0.180562(18) 0.75885(5) 0.340119(14)
Mn1E Mn -0.319438(18) 0.25885(5) 0.340119(14)
Mn1F Mn 0.319438(18) 0.75885(5) 0.159881(14)
Mn1G Mn 0.180562(18) 0.24115(5) -0.340119(14)
S1D S -0.25946(3) 0.65625(9) 0.16568(2)
S2D S -0.41389(3) 0.38863(10) 0.09147(2)
S3D S -0.26248(3) 0.65533(9) 0.01290(2)
O1D O -0.09034(9) 0.8240(3) -0.20886(7)
O2D O -0.32373(8) 0.5156(2) 0.30387(6)
O2A O 0.17627(8) 0.5156(2) 0.19613(6)
O2E O -0.17627(8) 0.4844(2) -0.19613(6)
O3D O -0.23943(8) 0.6823(3) 0.27631(7)
O3C O -0.23943(8) 0.8177(3) -0.22369(7)
O3G O 0.23943(8) 0.1823(3) 0.22369(7)
O4D O -0.24933(9) 0.6797(3) -0.09971(6)
O5D O -0.33016(8) 0.4944(2) -0.12251(6)
O5B O -0.16984(8) 0.9944(2) -0.12251(6)
O5F O 0.16984(8) 0.0056(2) 0.12251(6)
N1D N -0.06036(11) 0.9576(3) -0.28428(9)
N2D N -0.10130(11) 0.6295(3) -0.10622(9)
H1D H -0.1192 1.0396 -0.3413
H2D H -0.0441 1.0804 -0.3513
H3D H -0.0845 1.1924 -0.3112
H4D H -0.0064 0.7409 -0.2915
H5D H 0.0301 0.8891 -0.2605
H6D H 0.0238 0.9009 -0.3213
H7D H -0.1381 0.9982 -0.2422
H8D H -0.0913 0.3412 -0.0161
H9D H 0.0335 0.7313 -0.0467
H10D H -0.0347 0.8113 -0.1137
H11D H -0.1524 0.4251 -0.0868
H12D H -0.3931 0.4172 0.2143
H13D H -0.3977 0.4130 -0.0314
C1D C -0.07857(18) 1.0776(5) -0.32548(13)
C2D C 0.00212(15) 0.8642(5) -0.28988(13)
C3D C -0.09982(14) 0.9308(4) -0.24414(11)
C4D C -0.02074(12) 0.5262(4) -0.02274(11)
C5D C -0.07793(16) 0.4371(4) -0.03571(15)
C6D C -0.00484(12) 0.6676(3) -0.05333(10)
C7D C -0.04620(12) 0.7143(4) -0.09386(9)
C8D C -0.11525(18) 0.4907(5) -0.07789(14)
C9D C -0.28953(11) 0.5877(3) 0.26937(9)
C10D C -0.30890(11) 0.5634(3) 0.21382(9)
C11D C -0.36150(11) 0.4742(3) 0.19405(9)
C12D C -0.36219(11) 0.4787(3) 0.13919(9)
C13D C -0.31011(11) 0.5724(3) 0.11772(9)
C14D C -0.31098(11) 0.5725(3) 0.06240(9)
C15D C -0.36395(11) 0.4779(3) 0.04271(9)
C16D C -0.36528(12) 0.4709(3) -0.01219(9)
C17D C -0.31338(11) 0.5592(3) -0.03374(9)
C18D C -0.29627(13) 0.5782(3) -0.09026(9)
loop_
_geom_bond_atom_site_label_1
_geom_bond_atom_site_label_2
_geom_bond_site_symmetry_1
_geom_bond_site_symmetry_2
Mn1 O1 1_555 1_555
S1 C10 1_555 1_555
S2 C12 1_555 1_555
S3 C14 1_555 1_555
O1 C3 1_555 1_555
O2 C9 1_555 1_555
O3 C9 1_555 1_555
O4 Mn1 1_555 1_555
O5 C18 1_555 1_555
N1 C1 1_555 1_555
N2 Mn1 1_555 1_555
H1 C1 1_555 1_555
H2 C1 1_555 1_555
H3 C1 1_555 1_555
H4 C2 1_555 1_555
H5 C2 1_555 1_555
H6 C2 1_555 1_555
H7 C3 1_555 1_555
H8 C5 1_555 1_555
H9 C6 1_555 1_555
H10 C7 1_555 1_555
H11 C8 1_555 1_555
H12 C11 1_555 1_555
H13 C16 1_555 1_555
C2 N1 1_555 1_555
C3 N1 1_555 1_555
C4 C5 1_555 1_555
C5 C8 1_555 1_555
C6 C4 1_555 1_555
C7 N2 1_555 1_555
C8 N2 1_555 1_555
C9 C10 1_555 1_555
C10 C11 1_555 1_555
C11 C12 1_555 1_555
C12 C13 1_555 1_555
C13 S1 1_555 1_555
C14 C13 1_555 1_555
C15 S2 1_555 1_555
C16 C15 1_555 1_555
C17 S3 1_555 1_555
C18 O4 1_555 1_555
Mn1D O1D 1_555 1_555
Mn1A O2 1_555 1_555
Mn1B O5D 1_555 1_555
Mn1C O3D 1_555 1_555
Mn1E O2D 1_555 1_555
Mn1F O5 1_555 1_555
Mn1G O3 1_555 1_555
S1D C10D 1_555 1_555
S2D C12D 1_555 1_555
S3D C14D 1_555 1_555
O1D C3D 1_555 1_555
O2D C9D 1_555 1_555
O2A Mn1 1_555 1_555
O2E Mn1D 1_555 1_555
O3D C9D 1_555 1_555
O3C Mn1D 1_555 1_555
O3G Mn1 1_555 1_555
O4D Mn1D 1_555 1_555
O5D C18D 1_555 1_555
O5B Mn1D 1_555 1_555
O5F Mn1 1_555 1_555
N1D C1D 1_555 1_555
N2D Mn1D 1_555 1_555
H1D C1D 1_555 1_555
H2D C1D 1_555 1_555
H3D C1D 1_555 1_555
H4D C2D 1_555 1_555
H5D C2D 1_555 1_555
H6D C2D 1_555 1_555
H7D C3D 1_555 1_555
H8D C5D 1_555 1_555
H9D C6D 1_555 1_555
H10D C7D 1_555 1_555
H11D C8D 1_555 1_555
H12D C11D 1_555 1_555
H13D C16D 1_555 1_555
C2D N1D 1_555 1_555
C3D N1D 1_555 1_555
C4D C4 1_555 1_555
C5D C4D 1_555 1_555
C6D C4D 1_555 1_555
C7D N2D 1_555 1_555
C8D N2D 1_555 1_555
C9D C10D 1_555 1_555
C10D C11D 1_555 1_555
C11D C12D 1_555 1_555
C12D C13D 1_555 1_555
C13D S1D 1_555 1_555
C14D C13D 1_555 1_555
C15D S2D 1_555 1_555
C16D C15D 1_555 1_555
C17D S3D 1_555 1_555
C18D O4D 1_555 1_555
C6 C7 1_555 1_555
C14 C15 1_555 1_555
C16 C17 1_555 1_555
C17 C18 1_555 1_555
C5D C8D 1_555 1_555
C6D C7D 1_555 1_555
C14D C15D 1_555 1_555
C16D C17D 1_555 1_555
C17D C18D 1_555 1_555

#END
