
#######################################################################
#
#                 Cambridge Crystallographic Data Centre
#                                CCDC 
#
#######################################################################
#
# If this CIF has been generated from an entry in the Cambridge 
# Structural Database, then it will include bibliographic, chemical, 
# crystal, experimental, refinement or atomic coordinate data resulting 
# from the CCDC's data processing and validation procedures.
#
#######################################################################

data_VULLEU
_symmetry_cell_setting           monoclinic
_symmetry_space_group_name_H-M   'P 21/c'
_symmetry_Int_Tables_number      14
_space_group_name_Hall           '-P 2ybc'
loop_
_symmetry_equiv_pos_site_id
_symmetry_equiv_pos_as_xyz
1 x,y,z
2 -x,1/2+y,1/2-z
3 -x,-y,-z
4 x,1/2-y,1/2+z
_cell_length_a                   13.3355(17)
_cell_length_b                   19.351(3)
_cell_length_c                   8.9028(12)
_cell_angle_alpha                90
_cell_angle_beta                 102.693(3)
_cell_angle_gamma                90
_cell_volume                     2241.27
loop_
_atom_site_label
_atom_site_type_symbol
_atom_site_fract_x
_atom_site_fract_y
_atom_site_fract_z
Zn1 Zn 0.5000 0.0000 0.5000
S1 S 0.14890(6) 0.01379(4) 0.51160(11)
C1 C 0.08469(19) 0.10927(14) 0.1015(3)
C2 C 0.07879(19) 0.18223(14) 0.1057(3)
C3 C 0.1473(2) 0.22392(15) 0.0462(3)
C4 C 0.00351(19) 0.21362(14) 0.1723(3)
C5 C 0.1626(2) 0.07556(15) 0.0325(3)
C6 C -0.0583(2) 0.10094(15) 0.2263(3)
H1 H -0.1050 0.0730 0.2661
C7 C 0.2266(2) 0.19198(16) -0.0237(3)
C8 C -0.0651(2) 0.17222(14) 0.2319(3)
C9 C -0.0014(2) 0.28657(14) 0.1785(3)
C10 C 0.0174(2) 0.06983(15) 0.1618(3)
H2 H 0.0223 0.0209 0.1599
C11 C -0.0785(2) 0.32043(16) 0.2512(3)
C12 C 0.0661(2) 0.32601(15) 0.1189(3)
H3 H 0.0620 0.3750 0.1230
C13 C -0.1461(2) 0.20436(15) 0.3007(3)
C14 C -0.2257(2) 0.31007(17) 0.3765(4)
H4 H -0.1999 0.3556 0.4191
H5 H -0.2361 0.2808 0.4631
C15 C 0.3069(2) 0.08687(16) -0.0966(3)
H6 H 0.3164 0.1146 -0.1859
H7 H 0.2833 0.0402 -0.1344
C16 C 0.4987(2) 0.10218(15) -0.0158(3)
H8 H 0.4987 0.1212 -0.1142
C17 C 0.2640(2) 0.02483(14) 0.4890(3)
C18 C 0.4089(2) 0.08086(14) 0.0186(3)
C19 C 0.1404(2) 0.29561(15) 0.0529(3)
H9 H 0.1865 0.3237 0.0123
C20 C 0.4145(2) 0.05186(15) 0.1632(3)
H10 H 0.3526 0.0358 0.1875
C21 C 0.5883(2) 0.06817(14) 0.2346(3)
H11 H 0.6509 0.0651 0.3099
C22 C -0.3274(2) 0.31995(16) 0.2649(3)
C23 C -0.3995(2) 0.26763(18) 0.2369(5)
H12 H -0.3851 0.2242 0.2868
C24 C 0.5902(2) 0.09598(16) 0.0935(4)
H13 H 0.6531 0.1108 0.0709
C25 C -0.3537(2) 0.38290(16) 0.1930(3)
H14 H -0.3044 0.4191 0.2110
C26 C -0.5120(2) 0.34236(17) 0.0701(4)
H15 H -0.5761 0.3495 0.0001
C27 C -0.4926(2) 0.27884(18) 0.1354(5)
H16 H -0.5421 0.2429 0.1119
N1 N -0.14689(17) 0.27722(12) 0.3036(3)
N2 N 0.22787(17) 0.11953(12) -0.0282(3)
N3 N 0.50194(16) 0.04517(12) 0.2703(3)
N4 N 0.34813(18) 0.03080(14) 0.4734(3)
N5 N -0.44615(17) 0.39548(13) 0.0984(3)
O1 O 0.17359(15) 0.01330(11) 0.0278(3)
O2 O 0.28891(15) 0.22479(11) -0.0753(3)
O3 O -0.08152(18) 0.38241(11) 0.2687(3)
O4 O -0.20776(16) 0.17181(12) 0.3506(3)
Zn1A Zn -0.5000 0.5000 0.0000
Zn1A_2 Zn 1.5000 -0.5000 1.0000
S1B S 0.85110(6) -0.01379(4) 0.48840(11)
C1B C 0.91531(19) -0.10927(14) 0.8985(3)
C2B C 0.92121(19) -0.18223(14) 0.8943(3)
C3B C 0.8527(2) -0.22392(15) 0.9538(3)
C4B C 0.99649(19) -0.21362(14) 0.8277(3)
C5B C 0.8374(2) -0.07556(15) 0.9675(3)
C6B C 1.0583(2) -0.10094(15) 0.7737(3)
H1B H 1.1050 -0.0730 0.7339
C7B C 0.7734(2) -0.19198(16) 1.0237(3)
C8B C 1.0651(2) -0.17222(14) 0.7681(3)
C9B C 1.0014(2) -0.28657(14) 0.8215(3)
C10B C 0.9826(2) -0.06983(15) 0.8382(3)
H2B H 0.9777 -0.0209 0.8401
C11B C 1.0785(2) -0.32043(16) 0.7488(3)
C12B C 0.9339(2) -0.32601(15) 0.8811(3)
H3B H 0.9380 -0.3750 0.8770
C13B C 1.1461(2) -0.20436(15) 0.6993(3)
C14B C 1.2257(2) -0.31007(17) 0.6235(4)
H4B H 1.1999 -0.3556 0.5809
H5B H 1.2361 -0.2808 0.5369
C15B C 0.6931(2) -0.08687(16) 1.0966(3)
H6B H 0.6836 -0.1146 1.1859
H7B H 0.7167 -0.0402 1.1344
C16B C 0.5013(2) -0.10218(15) 1.0158(3)
H8B H 0.5013 -0.1212 1.1142
C17B C 0.7360(2) -0.02483(14) 0.5110(3)
C18B C 0.5911(2) -0.08086(14) 0.9814(3)
C19B C 0.8596(2) -0.29561(15) 0.9471(3)
H9B H 0.8135 -0.3237 0.9877
C20B C 0.5855(2) -0.05186(15) 0.8368(3)
H10B H 0.6474 -0.0358 0.8125
C21B C 0.4117(2) -0.06817(14) 0.7654(3)
H11B H 0.3491 -0.0651 0.6901
C22B C 1.3274(2) -0.31995(16) 0.7351(3)
C23B C 1.3995(2) -0.26763(18) 0.7631(5)
H12B H 1.3851 -0.2242 0.7132
C24B C 0.4098(2) -0.09598(16) 0.9065(4)
H13B H 0.3469 -0.1108 0.9291
C25B C 1.3537(2) -0.38290(16) 0.8070(3)
H14B H 1.3044 -0.4191 0.7890
C26B C 1.5120(2) -0.34236(17) 0.9299(4)
H15B H 1.5761 -0.3495 0.9999
C27B C 1.4926(2) -0.27884(18) 0.8646(5)
H16B H 1.5421 -0.2429 0.8881
N1B N 1.14689(17) -0.27722(12) 0.6964(3)
N2B N 0.77213(17) -0.11953(12) 1.0282(3)
N3B N 0.49806(16) -0.04517(12) 0.7297(3)
N4B N 0.65187(18) -0.03080(14) 0.5266(3)
N5B N 1.44615(17) -0.39548(13) 0.9016(3)
N5A N 0.44615(17) -0.10452(13) 0.4016(3)
N5C N 0.55385(17) 0.10452(13) 0.5984(3)
O1B O 0.82641(15) -0.01330(11) 0.9722(3)
O2B O 0.71109(15) -0.22479(11) 1.0753(3)
O3B O 1.08152(18) -0.38241(11) 0.7313(3)
O4B O 1.20776(16) -0.17181(12) 0.6494(3)
loop_
_geom_bond_atom_site_label_1
_geom_bond_atom_site_label_2
_geom_bond_site_symmetry_1
_geom_bond_site_symmetry_2
Zn1 N3 1_555 1_555
S1 C17 1_555 1_555
C1 C2 1_555 1_555
C2 C3 1_555 1_555
C3 C7 1_555 1_555
C4 C2 1_555 1_555
C5 C1 1_555 1_555
C6 H1 1_555 1_555
C7 N2 1_555 1_555
C8 C4 1_555 1_555
C9 C4 1_555 1_555
C10 C1 1_555 1_555
H2 C10 1_555 1_555
C11 C9 1_555 1_555
C12 C9 1_555 1_555
H3 C12 1_555 1_555
C13 C8 1_555 1_555
C14 H4 1_555 1_555
H5 C14 1_555 1_555
C15 H6 1_555 1_555
H7 C15 1_555 1_555
C16 H8 1_555 1_555
C17 N4 1_555 1_555
C18 C15 1_555 1_555
C19 C3 1_555 1_555
H9 C19 1_555 1_555
C20 C18 1_555 1_555
H10 C20 1_555 1_555
C21 H11 1_555 1_555
C22 C14 1_555 1_555
C23 C22 1_555 1_555
H12 C23 1_555 1_555
C24 C16 1_555 1_555
H13 C24 1_555 1_555
C25 C22 1_555 1_555
H14 C25 1_555 1_555
C26 H15 1_555 1_555
C27 C23 1_555 1_555
H16 C27 1_555 1_555
N1 C11 1_555 1_555
N2 C5 1_555 1_555
N3 C20 1_555 1_555
N4 Zn1 1_555 1_555
N5 C25 1_555 1_555
O1 C5 1_555 1_555
O2 C7 1_555 1_555
O3 C11 1_555 1_555
O4 C13 1_555 1_555
Zn1A N5 1_555 1_555
Zn1A_2 N5B 1_555 1_555
S1B C17B 1_555 1_555
C1B C2B 1_555 1_555
C2B C3B 1_555 1_555
C3B C7B 1_555 1_555
C4B C2B 1_555 1_555
C5B C1B 1_555 1_555
C6B H1B 1_555 1_555
C7B N2B 1_555 1_555
C8B C4B 1_555 1_555
C9B C4B 1_555 1_555
C10B C1B 1_555 1_555
H2B C10B 1_555 1_555
C11B C9B 1_555 1_555
C12B C9B 1_555 1_555
H3B C12B 1_555 1_555
C13B C8B 1_555 1_555
C14B H4B 1_555 1_555
H5B C14B 1_555 1_555
C15B H6B 1_555 1_555
H7B C15B 1_555 1_555
C16B H8B 1_555 1_555
C17B N4B 1_555 1_555
C18B C15B 1_555 1_555
C19B C3B 1_555 1_555
H9B C19B 1_555 1_555
C20B C18B 1_555 1_555
H10B C20B 1_555 1_555
C21B H11B 1_555 1_555
C22B C14B 1_555 1_555
C23B C22B 1_555 1_555
H12B C23B 1_555 1_555
C24B C16B 1_555 1_555
H13B C24B 1_555 1_555
C25B C22B 1_555 1_555
H14B C25B 1_555 1_555
C26B H15B 1_555 1_555
C27B C23B 1_555 1_555
H16B C27B 1_555 1_555
N1B C11B 1_555 1_555
N2B C5B 1_555 1_555
N3B Zn1 1_555 1_555
N4B Zn1 1_555 1_555
N5B C25B 1_555 1_555
N5A Zn1 1_555 1_555
N5C Zn1 1_555 1_555
O1B C5B 1_555 1_555
O2B C7B 1_555 1_555
O3B C11B 1_555 1_555
O4B C13B 1_555 1_555
C6 C8 1_555 1_555
C6 C10 1_555 1_555
C12 C19 1_555 1_555
C13 N1 1_555 1_555
C14 N1 1_555 1_555
C15 N2 1_555 1_555
C16 C18 1_555 1_555
C21 C24 1_555 1_555
C21 N3 1_555 1_555
C26 C27 1_555 1_555
C26 N5 1_555 1_555
C6B C8B 1_555 1_555
C6B C10B 1_555 1_555
C12B C19B 1_555 1_555
C13B N1B 1_555 1_555
C14B N1B 1_555 1_555
C15B N2B 1_555 1_555
C16B C18B 1_555 1_555
C20B N3B 1_555 1_555
C21B C24B 1_555 1_555
C21B N3B 1_555 1_555
C26B C27B 1_555 1_555
C26B N5B 1_555 1_555

#END
