
#######################################################################
#
#                 Cambridge Crystallographic Data Centre
#                                CCDC 
#
#######################################################################
#
# If this CIF has been generated from an entry in the Cambridge 
# Structural Database, then it will include bibliographic, chemical, 
# crystal, experimental, refinement or atomic coordinate data resulting 
# from the CCDC's data processing and validation procedures.
#
#######################################################################

data_VULLIY
_symmetry_cell_setting           triclinic
_symmetry_space_group_name_H-M   'P -1'
_symmetry_Int_Tables_number      2
_space_group_name_Hall           '-P 1'
loop_
_symmetry_equiv_pos_site_id
_symmetry_equiv_pos_as_xyz
1 x,y,z
2 -x,-y,-z
_cell_length_a                   9.1325(12)
_cell_length_b                   9.1810(12)
_cell_length_c                   13.3784(17)
_cell_angle_alpha                84.447(2)
_cell_angle_beta                 83.507(2)
_cell_angle_gamma                86.195(2)
_cell_volume                     1107.55
loop_
_atom_site_label
_atom_site_type_symbol
_atom_site_fract_x
_atom_site_fract_y
_atom_site_fract_z
Cd1 Cd -1.0000 1.0000 0.0000
C1 C -1.1640(3) 0.7212(3) 0.0967(2)
H1 H -1.1661 0.7788 0.1522
C2 C -1.1384(3) 0.3992(3) 0.3168(2)
C3 C -0.6961(3) 0.9269(3) -0.1590(2)
H2 H -0.7573 0.9601 -0.2104
C4 C -1.2324(3) 0.5895(3) 0.1125(2)
C5 C -1.0415(3) 0.5073(3) 0.45873(19)
C6 C -0.5233(4) 0.8253(4) -0.0122(3)
H3 H -0.4655 0.7874 0.0402
C7 C -1.0472(3) 0.3858(3) 0.4013(2)
C8 C -1.0938(3) 0.6912(3) -0.0701(2)
H4 H -1.0466 0.7263 -0.1340
C9 C -0.6713(3) 0.8575(3) 0.0081(2)
H5 H -0.7146 0.8422 0.0760
C10 C -0.5456(3) 0.8985(3) -0.1868(2)
C11 C -0.4797(3) 0.9269(3) -0.2960(2)
H6 H -0.5322 1.0140 -0.3278
H7 H -0.3748 0.9491 -0.2973
C12 C -1.1119(3) 0.7596(3) 0.4906(2)
H8 H -1.169(3) 0.860(4) 0.477(2)
C13 C -1.2287(4) 0.5070(3) 0.0314(2)
H9 H -1.2740 0.4158 0.0391
C14 C -1.1195(3) 0.6425(3) 0.4342(2)
C15 C -0.9718(3) 0.2548(3) 0.4273(2)
H10 H -0.980(3) 0.172(4) 0.394(2)
C16 C -1.3119(3) 0.5429(3) 0.2146(2)
H11 H -1.3958 0.6141 0.2297
H12 H -1.3526 0.4461 0.2121
C17 C -1.2120(3) 0.6570(3) 0.3496(2)
C18 C -0.4591(3) 0.8494(4) -0.1117(3)
H13 H -0.3558 0.8319 -0.1274
C19 C -1.1590(4) 0.5579(3) -0.0609(2)
H14 H -1.1557 0.5022 -0.1174
C20 C -0.3969(3) 0.6763(3) -0.3338(2)
C21 C -0.5809(3) 0.8178(3) -0.4343(2)
C22 C -0.3314(3) 0.2997(3) -0.4263(2)
H15 H -0.276(4) 0.210(4) -0.410(2)
C23 C -0.4972(3) 0.5602(3) -0.47161(19)
C24 C -0.3253(3) 0.4197(3) -0.3706(2)
H16 H -0.271(3) 0.413(3) -0.308(2)
C25 C -0.4058(3) 0.5484(3) -0.39210(19)
C26 C -0.5827(3) 0.6912(3) -0.4951(2)
N1 N -0.9145(2) 0.8970(3) 0.23382(17)
N2 N -0.7584(2) 0.9095(2) -0.06273(17)
N3 N -1.2154(3) 0.5330(3) 0.29660(17)
N4 N -1.0953(2) 0.7720(2) 0.00776(16)
N5 N -0.4891(3) 0.8004(2) -0.35591(17)
O1 O -1.1502(3) 0.2990(2) 0.26554(17)
O2 O -1.2830(3) 0.7684(2) 0.32620(16)
O3 O -0.9017(3) 0.7656(3) 0.21758(18)
O4 O -0.9543(3) 0.9903(2) 0.16878(16)
O5 O -0.8920(3) 0.9360(3) 0.31668(18)
O6 O -0.3152(2) 0.6738(2) -0.26842(16)
O7 O -0.6535(2) 0.9304(2) -0.45070(17)
Cd1_2 Cd -1.0000 0.0000 1.0000
Cd1_3 Cd 0.0000 0.0000 -1.0000
C1A C -0.8360(3) 0.2788(3) 0.9033(2)
H1A H -0.8339 0.2212 0.8478
C2A C -0.8616(3) 0.6008(3) 0.6832(2)
C3A C -0.3039(3) 0.0731(3) -0.8410(2)
H2A H -0.2427 0.0399 -0.7896
C4A C -0.7676(3) 0.4105(3) 0.8875(2)
C5A C -0.9585(3) 0.4927(3) 0.54127(19)
C6A C -0.4767(4) 0.1747(4) -0.9878(3)
H3A H -0.5345 0.2126 -1.0402
C7A C -0.9528(3) 0.6142(3) 0.5987(2)
C8A C -0.9062(3) 0.3088(3) 1.0701(2)
H4A H -0.9534 0.2737 1.1340
C9A C -0.3287(3) 0.1425(3) -1.0081(2)
H5A H -0.2854 0.1578 -1.0760
C10A C -0.4544(3) 0.1015(3) -0.8132(2)
C11A C -0.5203(3) 0.0731(3) -0.7040(2)
H6A H -0.4678 -0.0140 -0.6722
H7A H -0.6252 0.0509 -0.7027
C12A C -0.8881(3) 0.2404(3) 0.5094(2)
H8A H -0.831(3) 0.140(4) 0.523(2)
C13A C -0.7713(4) 0.4930(3) 0.9686(2)
H9A H -0.7260 0.5842 0.9609
C14A C -0.8805(3) 0.3575(3) 0.5658(2)
C15A C -1.0282(3) 0.7452(3) 0.5727(2)
H10A H -1.020(3) 0.828(4) 0.606(2)
C16A C -0.6881(3) 0.4571(3) 0.7854(2)
H11A H -0.6042 0.3859 0.7703
H12A H -0.6474 0.5539 0.7879
C17A C -0.7880(3) 0.3430(3) 0.6504(2)
C18A C -0.5409(3) 0.1506(4) -0.8883(3)
H13A H -0.6442 0.1681 -0.8726
C19A C -0.8410(4) 0.4421(3) 1.0609(2)
H14A H -0.8443 0.4978 1.1174
C20A C -0.6031(3) 0.3237(3) -0.6662(2)
C21A C -0.4191(3) 0.1822(3) -0.5657(2)
C22A C -0.6686(3) 0.7003(3) -0.5737(2)
H15A H -0.724(4) 0.790(4) -0.590(2)
C23A C -0.5028(3) 0.4398(3) -0.52839(19)
C24A C -0.6747(3) 0.5803(3) -0.6294(2)
H16A H -0.729(3) 0.587(3) -0.692(2)
C25A C -0.5942(3) 0.4516(3) -0.60790(19)
C26A C -0.4173(3) 0.3088(3) -0.5049(2)
N1A N -1.0855(2) 1.1030(3) -0.23382(17)
N2A N -0.2416(2) 0.0905(2) -0.93727(17)
N2A_2 N -1.2416(2) 1.0905(2) 0.06273(17)
N3A N -0.7846(3) 0.4670(3) 0.70340(17)
N4A N -0.9047(2) 0.2280(2) 0.99224(16)
N4A_2 N -0.9047(2) 1.2280(2) -0.00776(16)
N5A N -0.5109(3) 0.1996(2) -0.64409(17)
O1A O -0.8498(3) 0.7010(2) 0.73446(17)
O2A O -0.7170(3) 0.2316(2) 0.67380(16)
O3A O -1.0983(3) 1.2344(3) -0.21758(18)
O4A O -1.0457(3) 1.0097(2) -0.16878(16)
O5A O -1.1080(3) 1.0640(3) -0.31668(18)
O6A O -0.6848(2) 0.3262(2) -0.73158(16)
O7A O -0.3465(2) 0.0696(2) -0.54930(17)
loop_
_geom_bond_atom_site_label_1
_geom_bond_atom_site_label_2
_geom_bond_site_symmetry_1
_geom_bond_site_symmetry_2
Cd1 N2 1_555 1_555
C1 H1 1_555 1_555
C2 C7 1_555 1_555
C3 H2 1_555 1_555
C4 C1 1_555 1_555
C5 C7 1_555 1_555
C6 H3 1_555 1_555
C7 C15 1_555 1_555
C8 H4 1_555 1_555
C9 C6 1_555 1_555
H5 C9 1_555 1_555
C10 C3 1_555 1_555
C11 C10 1_555 1_555
H6 C11 1_555 1_555
H7 C11 1_555 1_555
C12 H8 1_555 1_555
C13 C4 1_555 1_555
H9 C13 1_555 1_555
C14 C5 1_555 1_555
C15 H10 1_555 1_555
C16 C4 1_555 1_555
H11 C16 1_555 1_555
H12 C16 1_555 1_555
C17 C14 1_555 1_555
C18 C6 1_555 1_555
H13 C18 1_555 1_555
C19 C8 1_555 1_555
H14 C19 1_555 1_555
C20 C25 1_555 1_555
C21 C26 1_555 1_555
C22 H15 1_555 1_555
C23 C25 1_555 1_555
C24 C22 1_555 1_555
H16 C24 1_555 1_555
C25 C24 1_555 1_555
C26 C23 1_555 1_555
N1 O3 1_555 1_555
N2 C3 1_555 1_555
N3 C2 1_555 1_555
N4 Cd1 1_555 1_555
N5 C11 1_555 1_555
O1 C2 1_555 1_555
O2 C17 1_555 1_555
O4 Cd1 1_555 1_555
O5 N1 1_555 1_555
O6 C20 1_555 1_555
O7 C21 1_555 1_555
Cd1_2 N4A 1_555 1_555
Cd1_3 N2A 1_555 1_555
C1A H1A 1_555 1_555
C2A C7A 1_555 1_555
C3A H2A 1_555 1_555
C4A C1A 1_555 1_555
C5A C5 1_555 1_555
C6A H3A 1_555 1_555
C7A C5A 1_555 1_555
C8A H4A 1_555 1_555
C9A C6A 1_555 1_555
H5A C9A 1_555 1_555
C10A C3A 1_555 1_555
C11A C10A 1_555 1_555
H6A C11A 1_555 1_555
H7A C11A 1_555 1_555
C12A C15 1_555 1_555
H8A C12A 1_555 1_555
C13A C4A 1_555 1_555
H9A C13A 1_555 1_555
C14A C5A 1_555 1_555
C15A C12 1_555 1_555
H10A C15A 1_555 1_555
C16A C4A 1_555 1_555
H11A C16A 1_555 1_555
H12A C16A 1_555 1_555
C17A C14A 1_555 1_555
C18A C6A 1_555 1_555
H13A C18A 1_555 1_555
C19A C8A 1_555 1_555
H14A C19A 1_555 1_555
C20A C25A 1_555 1_555
C21A C26A 1_555 1_555
C22A C26 1_555 1_555
H15A C22A 1_555 1_555
C23A C23 1_555 1_555
C24A C22A 1_555 1_555
H16A C24A 1_555 1_555
C25A C23A 1_555 1_555
C26A C22 1_555 1_555
N1A O3A 1_555 1_555
N2A C3A 1_555 1_555
N2A_2 Cd1 1_555 1_555
N3A C2A 1_555 1_555
N4A C1A 1_555 1_555
N4A_2 Cd1 1_555 1_555
N5A C11A 1_555 1_555
O1A C2A 1_555 1_555
O2A C17A 1_555 1_555
O4A Cd1 1_555 1_555
O5A N1A 1_555 1_555
O6A C20A 1_555 1_555
O7A C21A 1_555 1_555
C1 N4 1_555 1_555
C8 N4 1_555 1_555
C9 N2 1_555 1_555
C10 C18 1_555 1_555
C12 C14 1_555 1_555
C13 C19 1_555 1_555
C16 N3 1_555 1_555
C17 N3 1_555 1_555
C20 N5 1_555 1_555
C21 N5 1_555 1_555
N1 O4 1_555 1_555
C7A C15A 1_555 1_555
C8A N4A 1_555 1_555
C9A N2A 1_555 1_555
C10A C18A 1_555 1_555
C12A C14A 1_555 1_555
C13A C19A 1_555 1_555
C16A N3A 1_555 1_555
C17A N3A 1_555 1_555
C20A N5A 1_555 1_555
C21A N5A 1_555 1_555
C23A C26A 1_555 1_555
C24A C25A 1_555 1_555
N1A O4A 1_555 1_555

#END
