
#######################################################################
#
#                 Cambridge Crystallographic Data Centre
#                                CCDC 
#
#######################################################################
#
# If this CIF has been generated from an entry in the Cambridge 
# Structural Database, then it will include bibliographic, chemical, 
# crystal, experimental, refinement or atomic coordinate data resulting 
# from the CCDC's data processing and validation procedures.
#
#######################################################################

data_VULLAQ
_symmetry_cell_setting           monoclinic
_symmetry_space_group_name_H-M   'C 2/c'
_symmetry_Int_Tables_number      15
_space_group_name_Hall           '-C 2yn'
loop_
_symmetry_equiv_pos_site_id
_symmetry_equiv_pos_as_xyz
1 x,y,z
2 -x,y,1/2-z
3 1/2+x,1/2+y,z
4 1/2-x,1/2+y,1/2-z
5 -x,-y,-z
6 x,-y,1/2+z
7 1/2-x,1/2-y,-z
8 1/2+x,1/2-y,1/2+z
_cell_length_a                   23.9714(12)
_cell_length_b                   5.1891(2)
_cell_length_c                   19.0506(8)
_cell_angle_alpha                90
_cell_angle_beta                 106.860(3)
_cell_angle_gamma                90
_cell_volume                     2267.85
loop_
_atom_site_label
_atom_site_type_symbol
_atom_site_fract_x
_atom_site_fract_y
_atom_site_fract_z
Hg1 Hg 0.0000 0.98288(13) 0.2500
Cl1 Cl -0.09898(15) 1.0856(7) 0.19523(19)
O1 O 0.2120(4) 0.674(2) 0.2005(5)
O2 O 0.1350(4) 0.1464(19) 0.0062(5)
N1 N 0.0167(5) 0.663(2) 0.1659(5)
N2 N 0.1748(5) 0.407(2) 0.1030(6)
C1 C -0.0290(7) 0.550(3) 0.1165(8)
H1 H -0.0670 0.6178 0.1099
C2 C -0.0220(7) 0.336(3) 0.0749(8)
H2 H -0.0549 0.2555 0.0420
C3 C 0.0332(6) 0.244(3) 0.0825(7)
H3 H 0.0384 0.1005 0.0540
C4 C 0.0819(6) 0.360(2) 0.1319(6)
C5 C 0.0688(7) 0.569(3) 0.1740(9)
H4 H 0.1004 0.6442 0.2104
C6 C 0.2099(6) 0.608(3) 0.1391(8)
C7 C 0.1676(5) 0.327(3) 0.0315(7)
C8 C 0.2418(5) 0.752(2) 0.0946(7)
C9 C 0.1981(5) 0.478(2) -0.0128(8)
C10 C 0.2778(6) 0.954(2) 0.1259(8)
H5 H 0.2820 1.0028 0.1753
C11 C 0.2341(5) 0.679(2) 0.0211(6)
C12 C 0.1917(6) 0.411(3) -0.0846(7)
H6 H 0.1666 0.2733 -0.1063
C13 C 0.1418(6) 0.261(3) 0.1460(7)
H7 H 0.1404 0.0761 0.1325
H8 H 0.1625 0.2753 0.1990
Hg1F Hg 0.5000 0.51712(13) -0.2500
Cl1A Cl 0.09898(15) 1.0856(7) 0.30477(19)
O1F O 0.2880(4) 0.826(2) -0.2005(5)
O2F O 0.3650(4) 1.3536(19) -0.0062(5)
N1F N 0.4833(5) 0.837(2) -0.1659(5)
N1A N -0.0167(5) 0.663(2) 0.3341(5)
N2F N 0.3252(5) 1.093(2) -0.1030(6)
C1F C 0.5290(7) 0.950(3) -0.1165(8)
H1F H 0.5670 0.8822 -0.1099
C2F C 0.5220(7) 1.164(3) -0.0749(8)
H2F H 0.5549 1.2445 -0.0420
C3F C 0.4668(6) 1.256(3) -0.0825(7)
H3F H 0.4616 1.3995 -0.0540
C4F C 0.4181(6) 1.140(2) -0.1319(6)
C5F C 0.4312(7) 0.931(3) -0.1740(9)
H4F H 0.3996 0.8558 -0.2104
C6F C 0.2901(6) 0.892(3) -0.1391(8)
C7F C 0.3324(5) 1.173(3) -0.0315(7)
C8F C 0.2582(5) 0.748(2) -0.0946(7)
C9F C 0.3019(5) 1.022(2) 0.0128(8)
C10F C 0.2222(6) 0.546(2) -0.1259(8)
H5F H 0.2180 0.4972 -0.1753
C11F C 0.2659(5) 0.821(2) -0.0211(6)
C12F C 0.3083(6) 1.089(3) 0.0846(7)
H6F H 0.3334 1.2267 0.1063
C13F C 0.3582(6) 1.239(3) -0.1460(7)
H7F H 0.3596 1.4239 -0.1325
H8F H 0.3375 1.2247 -0.1990
loop_
_geom_bond_atom_site_label_1
_geom_bond_atom_site_label_2
_geom_bond_site_symmetry_1
_geom_bond_site_symmetry_2
Hg1 Cl1 1_555 1_555
O1 C6 1_555 1_555
O2 C7 1_555 1_555
N1 Hg1 1_555 1_555
N2 C6 1_555 1_555
C1 N1 1_555 1_555
H1 C1 1_555 1_555
C2 C1 1_555 1_555
H2 C2 1_555 1_555
C3 C2 1_555 1_555
H3 C3 1_555 1_555
C4 C3 1_555 1_555
C5 N1 1_555 1_555
H4 C5 1_555 1_555
C6 C8 1_555 1_555
C7 N2 1_555 1_555
C8 C10 1_555 1_555
C9 C7 1_555 1_555
C10 H5 1_555 1_555
C11 C8 1_555 1_555
C12 C9 1_555 1_555
H6 C12 1_555 1_555
C13 N2 1_555 1_555
H7 C13 1_555 1_555
H8 C13 1_555 1_555
Hg1F N1F 1_555 1_555
Cl1A Hg1 1_555 1_555
O1F C6F 1_555 1_555
O2F C7F 1_555 1_555
N1F C1F 1_555 1_555
N1A Hg1 1_555 1_555
N2F C6F 1_555 1_555
C1F H1F 1_555 1_555
C2F C1F 1_555 1_555
H2F C2F 1_555 1_555
C3F C2F 1_555 1_555
H3F C3F 1_555 1_555
C4F C3F 1_555 1_555
C5F N1F 1_555 1_555
H4F C5F 1_555 1_555
C6F C8F 1_555 1_555
C7F N2F 1_555 1_555
C8F C10F 1_555 1_555
C9F C7F 1_555 1_555
C10F C12 1_555 1_555
H5F C10F 1_555 1_555
C11F C11 1_555 1_555
C12F C10 1_555 1_555
H6F C12F 1_555 1_555
C13F N2F 1_555 1_555
H7F C13F 1_555 1_555
H8F C13F 1_555 1_555
C4 C5 1_555 1_555
C4 C13 1_555 1_555
C9 C11 1_555 1_555
C4F C5F 1_555 1_555
C4F C13F 1_555 1_555
C8F C11F 1_555 1_555
C9F C11F 1_555 1_555
C9F C12F 1_555 1_555

#END
