
#######################################################################
#
#                 Cambridge Crystallographic Data Centre
#                                CCDC 
#
#######################################################################
#
# If this CIF has been generated from an entry in the Cambridge 
# Structural Database, then it will include bibliographic, chemical, 
# crystal, experimental, refinement or atomic coordinate data resulting 
# from the CCDC's data processing and validation procedures.
#
#######################################################################

data_VULLOE
_symmetry_cell_setting           monoclinic
_symmetry_space_group_name_H-M   'P 21/c'
_symmetry_Int_Tables_number      14
_space_group_name_Hall           '-P 2ybc'
loop_
_symmetry_equiv_pos_site_id
_symmetry_equiv_pos_as_xyz
1 x,y,z
2 -x,1/2+y,1/2-z
3 -x,-y,-z
4 x,1/2-y,1/2+z
_cell_length_a                   17.462
_cell_length_b                   14.342
_cell_length_c                   15.258
_cell_angle_alpha                90
_cell_angle_beta                 99.41
_cell_angle_gamma                90
_cell_volume                     3769.79
loop_
_atom_site_label
_atom_site_type_symbol
_atom_site_fract_x
_atom_site_fract_y
_atom_site_fract_z
Co1 Co 0.75655(3) 0.61998(4) 1.09883(4)
C1 C 0.73041(19) 0.8199(2) 1.0306(2)
H1 H 0.7684 0.8319 1.0813
C2 C 0.69951(18) 0.8950(2) 0.9795(2)
C3 C 0.6427(2) 0.8772(2) 0.9062(2)
H2 H 0.6195 0.9268 0.8700
C4 C 0.6207(2) 0.7861(3) 0.8869(3)
H3 H 0.5820 0.7723 0.8373
C5 C 0.6556(2) 0.7152(3) 0.9403(2)
H4 H 0.6408 0.6526 0.9255
C6 C 0.7281(2) 0.9926(2) 1.0031(2)
H5 H 0.6836 1.0325 1.0112
H6 H 0.7646 0.9911 1.0601
C7 C 0.84628(18) 1.0120(2) 0.9389(2)
C8 C 0.88740(18) 1.0571(2) 0.8724(2)
C9 C 0.84723(18) 1.1191(2) 0.8091(2)
C10 C 0.76748(19) 1.1381(2) 0.8071(2)
C11 C 0.72565(19) 1.0926(2) 0.8722(2)
C12 C 0.96448(19) 1.0397(2) 0.8734(2)
H7 H 0.9914 0.9987 0.9167
C13 C 1.00432(19) 1.0818(3) 0.8110(2)
H8 H 1.0580 1.0695 0.8124
C14 C 0.96547(19) 1.1411(2) 0.7476(2)
C15 C 0.88661(19) 1.1617(2) 0.7463(2)
C16 C 0.8465(2) 1.2232(2) 0.6826(2)
C17 C 0.7690(2) 1.2403(3) 0.6823(3)
H9 H 0.7420 1.2820 0.6397
C18 C 0.7292(2) 1.1973(3) 0.7438(3)
H10 H 0.6754 1.2091 0.7418
C19 C 1.0076(2) 1.1831(3) 0.6812(3)
C20 C 0.8874(2) 1.2675(2) 0.6160(2)
C21 C 1.1031(2) 1.2048(3) 0.4760(3)
H11 H 1.1429 1.2317 0.5185
C22 C 1.0268(2) 1.2222(3) 0.4845(2)
C23 C 0.9692(2) 1.1807(3) 0.4247(3)
H12 H 0.9161 1.1897 0.4292
C24 C 0.9900(3) 1.1254(4) 0.3576(3)
H13 H 0.9513 1.0961 0.3155
C25 C 1.0669(2) 1.1137(3) 0.3528(3)
H14 H 1.0804 1.0766 0.3060
C26 C 0.5842(2) 0.6392(3) 1.1167(3)
H15 H 0.5976 0.7034 1.1167
C27 C 0.5079(2) 0.6168(3) 1.1200(3)
C28 C 0.4888(3) 0.5231(3) 1.1215(3)
H16 H 0.4368 0.5045 1.1226
C29 C 0.5459(3) 0.4580(3) 1.1213(3)
H17 H 0.5344 0.3934 1.1244
C30 C 0.6201(3) 0.4870(3) 1.1165(3)
H18 H 0.6590 0.4409 1.1153
C31 C 0.4455(3) 0.6898(3) 1.1218(4)
H19 H 0.3962 0.6670 1.0871
H20 H 0.4372 0.6989 1.1839
C32 C 0.4381(2) 0.7952(3) 0.9953(3)
C33 C 0.4534(2) 0.8881(2) 0.9600(2)
C34 C 0.49250(19) 0.9555(2) 1.0167(2)
C35 C 0.5172(2) 0.9372(3) 1.1076(2)
C36 C 0.5020(2) 0.8459(3) 1.1442(3)
C37 C 0.4295(2) 0.9078(3) 0.8719(3)
H21 H 0.4034 0.8616 0.8334
C38 C 0.5562(2) 1.0044(3) 1.1613(3)
H22 H 0.5738 0.9909 1.2222
C39 C 1.0093(2) 1.2882(3) 0.5557(2)
H23 H 1.0588 1.3125 0.5887
H24 H 0.9793 1.3417 0.5272
N1 N 0.70950(17) 0.7309(2) 1.0121(2)
N2 N 0.76766(15) 1.03334(19) 0.93366(18)
N3 N 0.96503(17) 1.2440(2) 0.6192(2)
N4 N 1.12445(19) 1.1520(2) 0.4112(2)
N5 N 0.64055(19) 0.5769(2) 1.1135(2)
N6 N 0.7785(3) 0.4608(3) 1.0173(3)
N7 N 0.7808(2) 0.6666(3) 1.2659(2)
N8 N 0.46519(19) 0.7799(2) 1.0855(2)
O1 O 0.87766(13) 0.95898(17) 0.99510(15)
O2 O 0.65668(14) 1.10519(19) 0.87138(19)
O3 O 0.85557(16) 1.3221(2) 0.56075(19)
O4 O 1.07484(15) 1.1675(2) 0.6781(2)
O5 O 0.7418(2) 0.5301(2) 0.9809(2)
O6 O 0.8024(3) 0.4706(3) 1.0989(3)
O7 O 0.7855(3) 0.3894(3) 0.9739(3)
O8 O 0.78905(19) 0.5840(3) 1.2400(2)
O9 O 0.79449(19) 0.6890(3) 1.3442(2)
O10 O 0.75702(18) 0.7239(2) 1.20419(19)
O11 O 0.40396(18) 0.7347(2) 0.9493(2)
O12 O 0.52107(19) 0.8264(2) 1.2225(2)
Co1B Co 0.24345(3) 1.38002(4) 0.90117(4)
Co1A Co 1.24345(3) 1.11998(4) 0.40117(4)
Co1C Co -0.24345(3) 0.88002(4) 1.59883(4)
C1B C 0.26959(19) 1.1801(2) 0.9694(2)
H1B H 0.2316 1.1681 0.9187
C2B C 0.30049(18) 1.1050(2) 1.0205(2)
C3B C 0.3573(2) 1.1228(2) 1.0938(2)
H2B H 0.3805 1.0732 1.1300
C4B C 0.3793(2) 1.2139(3) 1.1131(3)
H3B H 0.4180 1.2277 1.1627
C5B C 0.3444(2) 1.2848(3) 1.0597(2)
H4B H 0.3592 1.3474 1.0745
C6B C 0.2719(2) 1.0074(2) 0.9969(2)
H5B H 0.3164 0.9675 0.9888
H6B H 0.2354 1.0089 0.9399
C7B C 0.15372(18) 0.9880(2) 1.0611(2)
C8B C 0.11260(18) 0.9429(2) 1.1276(2)
C9B C 0.15277(18) 0.8809(2) 1.1909(2)
C10B C 0.23252(19) 0.8619(2) 1.1929(2)
C11B C 0.27435(19) 0.9074(2) 1.1278(2)
C12B C 0.03552(19) 0.9603(2) 1.1266(2)
H7B H 0.0086 1.0013 1.0833
C13B C -0.00432(19) 0.9182(3) 1.1890(2)
H8B H -0.0580 0.9305 1.1876
C14B C 0.03453(19) 0.8589(2) 1.2524(2)
C15B C 0.11339(19) 0.8383(2) 1.2537(2)
C16B C 0.1535(2) 0.7768(2) 1.3174(2)
C17B C 0.2310(2) 0.7597(3) 1.3177(3)
H9B H 0.2580 0.7180 1.3603
C18B C 0.2708(2) 0.8027(3) 1.2562(3)
H10B H 0.3246 0.7909 1.2582
C19B C -0.0076(2) 0.8169(3) 1.3188(3)
C20B C 0.1126(2) 0.7325(2) 1.3840(2)
C21B C -0.1031(2) 0.7952(3) 1.5240(3)
H11B H -0.1429 0.7683 1.4815
C22B C -0.0268(2) 0.7778(3) 1.5155(2)
C23B C 0.0308(2) 0.8193(3) 1.5753(3)
H12B H 0.0839 0.8103 1.5708
C24B C 0.0100(3) 0.8746(4) 1.6424(3)
H13B H 0.0487 0.9039 1.6845
C25B C -0.0669(2) 0.8863(3) 1.6472(3)
H14B H -0.0804 0.9234 1.6940
C26B C 0.4158(2) 1.3608(3) 0.8833(3)
H15B H 0.4024 1.2966 0.8833
C27B C 0.4921(2) 1.3832(3) 0.8800(3)
C28B C 0.5112(3) 1.4769(3) 0.8785(3)
H16B H 0.5632 1.4955 0.8774
C29B C 0.4541(3) 1.5420(3) 0.8787(3)
H17B H 0.4656 1.6066 0.8756
C30B C 0.3799(3) 1.5130(3) 0.8835(3)
H18B H 0.3410 1.5591 0.8847
C31B C 0.5545(3) 1.3102(3) 0.8782(4)
H19B H 0.6038 1.3330 0.9129
H20B H 0.5628 1.3011 0.8161
C32B C 0.5619(2) 1.2048(3) 1.0047(3)
C33B C 0.5466(2) 1.1119(2) 1.0400(2)
C34B C 0.50750(19) 1.0445(2) 0.9833(2)
C35B C 0.4828(2) 1.0628(3) 0.8924(2)
C36B C 0.4980(2) 1.1541(3) 0.8558(3)
C37B C 0.5705(2) 1.0922(3) 1.1281(3)
H21B H 0.5966 1.1384 1.1666
C38B C 0.4438(2) 0.9956(3) 0.8387(3)
H22B H 0.4262 1.0091 0.7778
C39B C -0.0093(2) 0.7118(3) 1.4443(2)
H23B H -0.0588 0.6875 1.4113
H24B H 0.0207 0.6583 1.4728
N1B N 0.29050(17) 1.2691(2) 0.9879(2)
N2B N 0.23234(15) 0.96666(19) 1.06634(18)
N3B N 0.03497(17) 0.7560(2) 1.3808(2)
N4B N -0.12445(19) 0.8480(2) 1.5888(2)
N4A N 0.87555(19) 0.6520(2) 1.0888(2)
N4C N 0.12445(19) 1.3480(2) 0.9112(2)
N5B N 0.35945(19) 1.4231(2) 0.8865(2)
N6B N 0.2215(3) 1.5392(3) 0.9827(3)
N7B N 0.2192(2) 1.3334(3) 0.7341(2)
N8B N 0.53481(19) 1.2201(2) 0.9145(2)
O1B O 0.12234(13) 1.04102(17) 1.00490(15)
O2B O 0.34332(14) 0.89481(19) 1.12862(19)
O3B O 0.14443(16) 0.6779(2) 1.43925(19)
O4B O -0.07484(15) 0.8325(2) 1.3219(2)
O5B O 0.2582(2) 1.4699(2) 1.0191(2)
O6B O 0.1976(3) 1.5294(3) 0.9011(3)
O7B O 0.2145(3) 1.6106(3) 1.0261(3)
O8B O 0.21095(19) 1.4160(3) 0.7600(2)
O9B O 0.20551(19) 1.3110(3) 0.6558(2)
O10B O 0.24298(18) 1.2761(2) 0.79581(19)
O11B O 0.59604(18) 1.2653(2) 1.0507(2)
O12B O 0.47893(19) 1.1736(2) 0.7775(2)
O13 O 0.6994(3) 0.4221(4) 0.7982(4)
C40 C 0.7558(7) 0.5713(8) 0.7563(8)
C41 C 0.7612(7) 0.4663(9) 0.7647(10)
C42? C 0.7273(8) 0.5380(11) 0.7731(10)
C43? C 0.8051(7) 0.5091(9) 0.7595(8)
O14? O 0.6830(9) 0.4806(12) 0.8177(11)
loop_
_geom_bond_atom_site_label_1
_geom_bond_atom_site_label_2
_geom_bond_site_symmetry_1
_geom_bond_site_symmetry_2
Co1 N1 1_555 1_555
C1 H1 1_555 1_555
C2 C1 1_555 1_555
C3 C2 1_555 1_555
H2 C3 1_555 1_555
C4 C3 1_555 1_555
H3 C4 1_555 1_555
C5 C4 1_555 1_555
H4 C5 1_555 1_555
C6 C2 1_555 1_555
H5 C6 1_555 1_555
H6 C6 1_555 1_555
C7 C8 1_555 1_555
C8 C9 1_555 1_555
C9 C10 1_555 1_555
C10 C11 1_555 1_555
C11 N2 1_555 1_555
C12 C8 1_555 1_555
H7 C12 1_555 1_555
C13 C12 1_555 1_555
H8 C13 1_555 1_555
C14 C13 1_555 1_555
C15 C9 1_555 1_555
C16 C15 1_555 1_555
C17 C16 1_555 1_555
H9 C17 1_555 1_555
C18 C10 1_555 1_555
H10 C18 1_555 1_555
C19 C14 1_555 1_555
C20 C16 1_555 1_555
C21 H11 1_555 1_555
C22 C21 1_555 1_555
C23 C22 1_555 1_555
H12 C23 1_555 1_555
C24 C23 1_555 1_555
H13 C24 1_555 1_555
C25 C24 1_555 1_555
H14 C25 1_555 1_555
C26 H15 1_555 1_555
C27 C26 1_555 1_555
C28 C27 1_555 1_555
H16 C28 1_555 1_555
C29 C28 1_555 1_555
H17 C29 1_555 1_555
C30 C29 1_555 1_555
H18 C30 1_555 1_555
C31 C27 1_555 1_555
H19 C31 1_555 1_555
H20 C31 1_555 1_555
C32 C33 1_555 1_555
C33 C34 1_555 1_555
C34 C35 1_555 1_555
C35 C36 1_555 1_555
C36 N8 1_555 1_555
C37 C33 1_555 1_555
H21 C37 1_555 1_555
C38 C35 1_555 1_555
H22 C38 1_555 1_555
C39 C22 1_555 1_555
H23 C39 1_555 1_555
H24 C39 1_555 1_555
N1 C1 1_555 1_555
N2 C6 1_555 1_555
N3 C19 1_555 1_555
N4 C21 1_555 1_555
N5 Co1 1_555 1_555
N6 O5 1_555 1_555
N7 O8 1_555 1_555
N8 C31 1_555 1_555
O1 C7 1_555 1_555
O2 C11 1_555 1_555
O3 C20 1_555 1_555
O4 C19 1_555 1_555
O5 Co1 1_555 1_555
O6 Co1 1_555 1_555
O7 N6 1_555 1_555
O8 Co1 1_555 1_555
O9 N7 1_555 1_555
O10 Co1 1_555 1_555
O11 C32 1_555 1_555
O12 C36 1_555 1_555
O13 C41 1_555 1_555
C40 C41 1_555 1_555
Co1B N1B 1_555 1_555
Co1A N4 1_555 1_555
Co1C N4B 1_555 1_555
C1B H1B 1_555 1_555
C2B C1B 1_555 1_555
C3B C2B 1_555 1_555
H2B C3B 1_555 1_555
C4B C3B 1_555 1_555
H3B C4B 1_555 1_555
C5B C4B 1_555 1_555
H4B C5B 1_555 1_555
C6B C2B 1_555 1_555
H5B C6B 1_555 1_555
H6B C6B 1_555 1_555
C7B C8B 1_555 1_555
C8B C9B 1_555 1_555
C9B C10B 1_555 1_555
C10B C11B 1_555 1_555
C11B N2B 1_555 1_555
C12B C8B 1_555 1_555
H7B C12B 1_555 1_555
C13B C12B 1_555 1_555
H8B C13B 1_555 1_555
C14B C13B 1_555 1_555
C15B C9B 1_555 1_555
C16B C15B 1_555 1_555
C17B C16B 1_555 1_555
H9B C17B 1_555 1_555
C18B C10B 1_555 1_555
H10B C18B 1_555 1_555
C19B C14B 1_555 1_555
C20B C16B 1_555 1_555
C21B H11B 1_555 1_555
C22B C21B 1_555 1_555
C23B C22B 1_555 1_555
H12B C23B 1_555 1_555
C24B C23B 1_555 1_555
H13B C24B 1_555 1_555
C25B C24B 1_555 1_555
H14B C25B 1_555 1_555
C26B H15B 1_555 1_555
C27B C26B 1_555 1_555
C28B C27B 1_555 1_555
H16B C28B 1_555 1_555
C29B C28B 1_555 1_555
H17B C29B 1_555 1_555
C30B C29B 1_555 1_555
H18B C30B 1_555 1_555
C31B C27B 1_555 1_555
H19B C31B 1_555 1_555
H20B C31B 1_555 1_555
C32B C33B 1_555 1_555
C33B C34B 1_555 1_555
C34B C34 1_555 1_555
C35B C34B 1_555 1_555
C36B C35B 1_555 1_555
C37B C38 1_555 1_555
H21B C37B 1_555 1_555
C38B C37 1_555 1_555
H22B C38B 1_555 1_555
C39B C22B 1_555 1_555
H23B C39B 1_555 1_555
H24B C39B 1_555 1_555
N1B C1B 1_555 1_555
N2B C6B 1_555 1_555
N3B C19B 1_555 1_555
N4B C21B 1_555 1_555
N4A Co1 1_555 1_555
N4C Co1B 1_555 1_555
N5B Co1B 1_555 1_555
N6B O5B 1_555 1_555
N7B O8B 1_555 1_555
N8B C31B 1_555 1_555
O1B C7B 1_555 1_555
O2B C11B 1_555 1_555
O3B C20B 1_555 1_555
O4B C19B 1_555 1_555
O5B Co1B 1_555 1_555
O6B Co1B 1_555 1_555
O7B N6B 1_555 1_555
O8B Co1B 1_555 1_555
O9B N7B 1_555 1_555
O10B Co1B 1_555 1_555
O11B C32B 1_555 1_555
O12B C36B 1_555 1_555
C5 N1 1_555 1_555
C7 N2 1_555 1_555
C14 C15 1_555 1_555
C17 C18 1_555 1_555
C20 N3 1_555 1_555
C25 N4 1_555 1_555
C26 N5 1_555 1_555
C30 N5 1_555 1_555
C32 N8 1_555 1_555
C39 N3 1_555 1_555
N6 O6 1_555 1_555
N7 O10 1_555 1_555
C5B N1B 1_555 1_555
C7B N2B 1_555 1_555
C14B C15B 1_555 1_555
C17B C18B 1_555 1_555
C20B N3B 1_555 1_555
C25B N4B 1_555 1_555
C26B N5B 1_555 1_555
C30B N5B 1_555 1_555
C32B N8B 1_555 1_555
C33B C37B 1_555 1_555
C35B C38B 1_555 1_555
C36B N8B 1_555 1_555
C39B N3B 1_555 1_555
N6B O6B 1_555 1_555
N7B O10B 1_555 1_555

#END
