
#######################################################################
#
#                 Cambridge Crystallographic Data Centre
#                                CCDC 
#
#######################################################################
#
# If this CIF has been generated from an entry in the Cambridge 
# Structural Database, then it will include bibliographic, chemical, 
# crystal, experimental, refinement or atomic coordinate data resulting 
# from the CCDC's data processing and validation procedures.
#
#######################################################################

data_VULMUL
_symmetry_cell_setting           monoclinic
_symmetry_space_group_name_H-M   'P 21/c'
_symmetry_Int_Tables_number      14
_space_group_name_Hall           '-P 2ybc'
loop_
_symmetry_equiv_pos_site_id
_symmetry_equiv_pos_as_xyz
1 x,y,z
2 -x,1/2+y,1/2-z
3 -x,-y,-z
4 x,1/2-y,1/2+z
_cell_length_a                   10.7482(5)
_cell_length_b                   17.4273(8)
_cell_length_c                   16.4072(6)
_cell_angle_alpha                90
_cell_angle_beta                 120.690(2)
_cell_angle_gamma                90
_cell_volume                     2642.83
loop_
_atom_site_label
_atom_site_type_symbol
_atom_site_fract_x
_atom_site_fract_y
_atom_site_fract_z
Co1 Co 0.37988(3) 0.15492(2) 0.15262(2)
C1 C 0.6912(3) 0.11474(18) 0.21177(19)
C2 C 0.8509(3) 0.13086(19) 0.2757(2)
H1 H 0.8972 0.0852 0.3126
H2 H 0.8926 0.1412 0.2366
C3 C 0.8769(3) 0.18059(18) 0.4185(2)
C4 C 0.8639(3) 0.11108(19) 0.4517(2)
H3 H 0.8547 0.0671 0.4170
C5 C 0.8642(3) 0.10412(18) 0.5387(2)
C6 C 0.8533(3) 0.0328(2) 0.5757(2)
H4 H 0.8422 -0.0121 0.5420
C7 C 0.8589(4) 0.0292(2) 0.6604(2)
H5 H 0.8537 -0.0182 0.6845
C8 C 0.8726(3) 0.0963(2) 0.7118(2)
H6 H 0.8760 0.0932 0.7695
C9 C 0.8808(3) 0.1658(2) 0.6771(2)
H7 H 0.8887 0.2101 0.7111
C10 C 0.8776(3) 0.17157(17) 0.5901(2)
C11 C 0.8880(3) 0.24292(19) 0.5543(2)
H8 H 0.8957 0.2871 0.5883
C12 C 0.8871(3) 0.24947(18) 0.4703(2)
C13 C 0.9117(3) 0.38357(17) 0.4812(2)
H9 H 0.8406 0.3851 0.5008
H10 H 0.8945 0.4273 0.4402
C14 C 1.0625(3) 0.39084(16) 0.56876(19)
C15 C 0.2806(3) 0.29814(19) 0.2105(2)
H11 H 0.2011 0.2916 0.1499
C16 C 0.2806(4) 0.3593(2) 0.2629(3)
H12 H 0.2021 0.3925 0.2390
C17 C 0.4001(4) 0.3704(2) 0.3522(3)
H13 H 0.4046 0.4123 0.3888
C18 C 0.5121(4) 0.3186(2) 0.3858(3)
H14 H 0.5929 0.3240 0.4461
C19 C 0.5016(3) 0.25836(19) 0.3281(2)
H15 H 0.5778 0.2236 0.3509
C20 C 0.2620(3) 0.2490(2) -0.0318(2)
H16 H 0.1835 0.2160 -0.0524
C21 C 0.2569(4) 0.3048(3) -0.0926(2)
H17 H 0.1767 0.3091 -0.1533
C22 C 0.3717(4) 0.3539(2) -0.0625(3)
H18 H 0.3699 0.3923 -0.1024
C23 C 0.4888(4) 0.3458(2) 0.0268(3)
H19 H 0.5684 0.3782 0.0486
C24 C 0.4861(3) 0.2890(2) 0.0835(2)
H20 H 0.5657 0.2840 0.1444
C25 C 0.4536(4) 0.0047(2) 0.2798(3)
H21 H 0.4459 -0.0234 0.2270
H22 H 0.4207 -0.0268 0.3130
H23 H 0.5528 0.0188 0.3219
H24 H 0.310(4) 0.046(2) 0.014(2)
H26 H 0.454(5) 0.056(3) 0.079(3)
H28 H 0.299(3) 0.064(2) 0.223(2)
N1 N 0.3884(2) 0.24725(14) 0.24150(16)
N2 N 0.3761(2) 0.24018(15) 0.05663(16)
O1 O 0.60429(18) 0.14900(11) 0.22765(13)
O2 O 0.6612(2) 0.06821(17) 0.14672(19)
O3 O 0.8829(2) 0.19350(12) 0.33893(13)
O4 O 0.8917(2) 0.31490(12) 0.42858(13)
O5 O 1.0804(2) 0.44370(13) 0.62543(14)
O6 O 1.15607(19) 0.34490(11) 0.57543(14)
O7 O 0.3758(3) 0.06183(15) 0.07167(16)
O8 O 0.3674(3) 0.07182(14) 0.24643(16)
Co1C Co 1.37988(3) 0.34508(2) 0.65262(2)
O6C O 0.15607(19) 0.15510(11) 0.07543(14)
H25 H 0.090(6) 0.501(3) 0.390(4)
H27 H 0.218(5) 0.520(3) 0.391(3)
O9 O 0.1719(3) 0.48262(18) 0.39857(17)
loop_
_geom_bond_atom_site_label_1
_geom_bond_atom_site_label_2
_geom_bond_site_symmetry_1
_geom_bond_site_symmetry_2
Co1 N1 1_555 1_555
C1 C2 1_555 1_555
C2 H1 1_555 1_555
H2 C2 1_555 1_555
C3 C4 1_555 1_555
C4 H3 1_555 1_555
C5 C4 1_555 1_555
C6 C5 1_555 1_555
H4 C6 1_555 1_555
C7 C6 1_555 1_555
H5 C7 1_555 1_555
C8 C7 1_555 1_555
H6 C8 1_555 1_555
C9 C8 1_555 1_555
H7 C9 1_555 1_555
C10 C5 1_555 1_555
C11 C10 1_555 1_555
H8 C11 1_555 1_555
C12 C3 1_555 1_555
C13 H9 1_555 1_555
H10 C13 1_555 1_555
C14 C13 1_555 1_555
C15 H11 1_555 1_555
C16 C15 1_555 1_555
H12 C16 1_555 1_555
C17 C16 1_555 1_555
H13 C17 1_555 1_555
C18 C17 1_555 1_555
H14 C18 1_555 1_555
C19 C18 1_555 1_555
H15 C19 1_555 1_555
C20 H16 1_555 1_555
C21 C20 1_555 1_555
H17 C21 1_555 1_555
C22 C21 1_555 1_555
H18 C22 1_555 1_555
C23 C22 1_555 1_555
H19 C23 1_555 1_555
C24 C23 1_555 1_555
H20 C24 1_555 1_555
C25 H21 1_555 1_555
H22 C25 1_555 1_555
H23 C25 1_555 1_555
H24 O7 1_555 1_555
H25 O9 1_555 1_555
H26 O7 1_555 1_555
H27 O9 1_555 1_555
H28 O8 1_555 1_555
N1 C15 1_555 1_555
N2 Co1 1_555 1_555
O1 Co1 1_555 1_555
O2 C1 1_555 1_555
O3 C2 1_555 1_555
O4 C12 1_555 1_555
O5 C14 1_555 1_555
O6 C14 1_555 1_555
O7 Co1 1_555 1_555
O8 Co1 1_555 1_555
Co1C O6 1_555 1_555
O6C Co1 1_555 1_555
C1 O1 1_555 1_555
C3 O3 1_555 1_555
C9 C10 1_555 1_555
C11 C12 1_555 1_555
C13 O4 1_555 1_555
C19 N1 1_555 1_555
C20 N2 1_555 1_555
C24 N2 1_555 1_555
C25 O8 1_555 1_555

#END
