
#######################################################################
#
#                 Cambridge Crystallographic Data Centre
#                                CCDC 
#
#######################################################################
#
# If this CIF has been generated from an entry in the Cambridge 
# Structural Database, then it will include bibliographic, chemical, 
# crystal, experimental, refinement or atomic coordinate data resulting 
# from the CCDC's data processing and validation procedures.
#
#######################################################################

data_VULMEV
_symmetry_cell_setting           triclinic
_symmetry_space_group_name_H-M   'P -1'
_symmetry_Int_Tables_number      2
_space_group_name_Hall           '-P 1'
loop_
_symmetry_equiv_pos_site_id
_symmetry_equiv_pos_as_xyz
1 x,y,z
2 -x,-y,-z
_cell_length_a                   8.958(2)
_cell_length_b                   14.948(3)
_cell_length_c                   30.757(8)
_cell_angle_alpha                89.685(6)
_cell_angle_beta                 89.532(5)
_cell_angle_gamma                78.434(5)
_cell_volume                     4034.7
loop_
_atom_site_label
_atom_site_type_symbol
_atom_site_fract_x
_atom_site_fract_y
_atom_site_fract_z
In1 In 0.08296(4) 0.55286(2) 0.131366(12)
O1 O 0.0264(5) 0.4710(3) 0.18833(13)
O2 O -0.0162(8) 0.4641(4) 0.25841(17)
O3 O 0.3643(7) 0.8268(3) 0.1979(2)
O4 O 0.3382(7) 0.8452(4) 0.2692(2)
O5 O 0.0387(5) 0.6952(3) 0.10871(14)
O6 O -0.1312(6) 0.8116(3) 0.08276(19)
O7 O -0.5113(6) 0.4695(4) 0.17441(18)
O8 O -0.6763(5) 0.5468(4) 0.12636(16)
O9 O 0.0419(5) 0.4227(3) 0.10760(13)
O10 O 0.0503(7) 0.3220(3) 0.05387(17)
O11 O 0.3770(10) 0.7087(4) -0.0118(2)
O12 O 0.4209(7) 0.6135(4) -0.06626(17)
N1 N 0.1254(5) 0.6241(3) 0.19491(15)
N2 N -0.1782(5) 0.6006(3) 0.12693(14)
N3 N 0.1450(6) 0.5379(3) 0.05620(15)
C1 C 0.0299(8) 0.4982(4) 0.2271(2)
C2 C 0.0927(7) 0.5843(4) 0.2321(2)
C3 C 0.1218(9) 0.6193(5) 0.2728(2)
H7 H 0.0929 0.5936 0.2984
C4 C 0.1933(9) 0.6916(5) 0.2742(2)
H8 H 0.2163 0.7148 0.3007
C5 C 0.2318(7) 0.7305(4) 0.2352(2)
C6 C 0.1910(7) 0.6967(4) 0.1968(2)
H9 H 0.2096 0.7255 0.1710
C7 C 0.3151(9) 0.8081(5) 0.2366(3)
C8 C -0.0958(7) 0.7348(4) 0.0990(2)
C9 C -0.2226(7) 0.6849(4) 0.10955(18)
C10 C -0.3720(7) 0.7207(4) 0.1018(2)
H10 H -0.4002 0.7783 0.0893
C11 C -0.4833(7) 0.6704(4) 0.1129(2)
H11 H -0.5857 0.6941 0.1076
C12 C -0.4386(6) 0.5856(4) 0.13165(18)
C13 C -0.2824(6) 0.5532(4) 0.13849(18)
H12 H -0.2509 0.4964 0.1516
C14 C -0.5494(7) 0.5281(5) 0.1458(2)
C15 C 0.0753(7) 0.3936(4) 0.0684(2)
C16 C 0.1510(7) 0.4535(4) 0.04043(19)
C17 C 0.2168(9) 0.4251(5) 0.0010(2)
H13 H 0.2124 0.3680 -0.0101
C18 C 0.2904(9) 0.4850(5) -0.0217(2)
H14 H 0.3420 0.4665 -0.0475
C19 C 0.2866(8) 0.5702(5) -0.0062(2)
C20 C 0.2121(8) 0.5954(4) 0.0331(2)
H15 H 0.2088 0.6540 0.0437
C21 C 0.3652(10) 0.6380(5) -0.0291(3)
In1_2 In -0.91704(4) 0.55286(2) 0.131366(12)
O8_2 O 0.3237(5) 0.5468(4) 0.12636(16)
In2 In 0.57411(4) 0.73201(2) 0.395619(12)
O13 O 0.4550(5) 0.6647(3) 0.44993(14)
O14 O 0.4036(7) 0.6580(3) 0.52117(16)
O15 O 0.8071(7) 1.0157(3) 0.46958(17)
O16 O 0.7379(6) 1.0450(3) 0.53823(17)
O17 O 0.5485(5) 0.8820(3) 0.37350(14)
O18 O 0.3943(6) 1.0104(3) 0.35345(18)
O19 O -0.0101(6) 0.6448(4) 0.3907(3)
O20 O -0.1900(5) 0.7675(3) 0.39151(15)
O21 O 0.4898(5) 0.6091(3) 0.36801(13)
O22 O 0.4894(8) 0.5148(4) 0.31265(18)
O23 O 0.8693(7) 0.8828(4) 0.25578(18)
O24 O 0.8592(7) 0.8112(4) 0.19445(17)
O25 O 0.7420(6) 0.6078(3) 0.41825(19)
N4 N 0.5895(5) 0.8049(3) 0.46106(15)
N5 N 0.3216(5) 0.7955(3) 0.38257(15)
N6 N 0.6348(5) 0.7148(3) 0.32250(15)
C22 C 0.4552(7) 0.6914(4) 0.4891(2)
C23 C 0.5261(6) 0.7742(3) 0.49669(18)
C24 C 0.5329(8) 0.8142(4) 0.5360(2)
H16 H 0.4919 0.7909 0.5605
C25 C 0.6002(8) 0.8893(4) 0.5401(2)
H17 H 0.6003 0.9186 0.5667
C26 C 0.6665(7) 0.9192(4) 0.50427(19)
C27 C 0.6571(6) 0.8761(4) 0.4644(2)
H18 H 0.6991 0.8976 0.4396
C28 C 0.7416(7) 1.0004(4) 0.5061(2)
C29 C 0.4173(7) 0.9302(4) 0.36479(19)
C30 C 0.2855(7) 0.8824(4) 0.36985(18)
C31 C 0.1377(8) 0.9260(4) 0.3629(2)
H19 H 0.1148 0.9869 0.3543
C32 C 0.0236(8) 0.8770(4) 0.3691(2)
H20 H -0.0776 0.9055 0.3650
C33 C 0.0591(6) 0.7860(4) 0.38125(19)
C34 C 0.2126(6) 0.7473(4) 0.3877(2)
H21 H 0.2396 0.6862 0.3958
C35 C -0.0565(7) 0.7270(4) 0.3880(2)
C36 C 0.5211(8) 0.5827(4) 0.3297(2)
C37 C 0.6009(8) 0.6435(4) 0.3020(2)
C38 C 0.6279(9) 0.6277(5) 0.2576(2)
H22 H 0.5957 0.5802 0.2435
C39 C 0.7041(9) 0.6854(5) 0.2360(2)
H23 H 0.7296 0.6744 0.2068
C40 C 0.7439(7) 0.7590(5) 0.2559(2)
C41 C 0.7059(7) 0.7708(4) 0.2999(2)
H24 H 0.7314 0.8202 0.3142
C42 C 0.8277(9) 0.8212(6) 0.2329(3)
In2_2 In -0.42589(4) 0.73201(2) 0.395619(12)
O20_2 O 0.8100(5) 0.7675(3) 0.39151(15)
O26 O -0.5913(14) 0.3973(6) 0.2517(3)
O27 O -0.7864(18) 0.2896(9) 0.2732(6)
O28 O 0.7198(11) 0.4296(5) 0.4155(3)
O29 O 0.6721(16) 1.0678(10) 0.3717(5)
O30 O 0.1616(14) 1.1405(8) 0.3167(5)
N7 N 0.6727(10) 0.4900(5) 0.5693(5)
H1 H 0.6187 0.4490 0.5730
N8 N 1.0688(7) 0.8415(4) 0.5339(2)
H2 H 1.1120 0.8872 0.5293
C43 C 0.6976(15) 0.5414(8) 0.6038(5)
H25 H 0.6606 0.5313 0.6314
C44 C 0.7295(14) 0.5009(6) 0.5295(6)
H26 H 0.7116 0.4636 0.5068
C45 C 0.7801(15) 0.6092(7) 0.5965(4)
H27 H 0.7968 0.6465 0.6194
C46 C 0.8132(11) 0.5662(5) 0.5222(4)
H28 H 0.8534 0.5730 0.4947
C47 C 0.8382(8) 0.6221(4) 0.5554(3)
C48 C 0.9223(7) 0.6983(4) 0.5483(2)
C49 C 0.9475(11) 0.7531(5) 0.5815(3)
H29 H 0.9129 0.7441 0.6094
C50 C 0.9726(9) 0.7175(4) 0.5079(2)
H30 H 0.9581 0.6820 0.4842
C51 C 1.0241(13) 0.8215(6) 0.5732(3)
H31 H 1.0462 0.8560 0.5965
C52 C 1.0445(10) 0.7894(5) 0.5027(2)
H32 H 1.0779 0.8013 0.4750
N9 N -0.4853(9) -0.0420(5) 0.1998(3)
H3 H -0.5294 -0.0879 0.2023
N10 N -0.1080(9) 0.3189(5) 0.1733(5)
H4 H -0.0591 0.3624 0.1695
C53 C -0.4843(10) 0.0100(7) 0.2333(3)
H33 H -0.5272 -0.0044 0.2594
C54 C -0.4239(11) -0.0287(6) 0.1629(4)
H34 H -0.4281 -0.0673 0.1396
C55 C -0.4161(10) 0.0916(6) 0.2306(3)
H35 H -0.4205 0.1320 0.2537
C56 C -0.3523(10) 0.0436(5) 0.1590(3)
H36 H -0.3059 0.0516 0.1325
C57 C -0.3440(8) 0.1047(5) 0.1911(3)
C58 C -0.2629(8) 0.1823(4) 0.1843(3)
C59 C -0.2390(12) 0.2368(6) 0.2197(4)
H37 H -0.2776 0.2281 0.2472
C60 C -0.2119(10) 0.2019(6) 0.1439(4)
H38 H -0.2329 0.1683 0.1202
C61 C -0.1534(14) 0.3057(6) 0.2117(5)
H39 H -0.1304 0.3411 0.2345
C62 C -0.1309(12) 0.2696(8) 0.1375(5)
H40 H -0.0934 0.2813 0.1102
N11 N 0.4252(8) 0.2732(4) 0.1006(2)
H5 H 0.4744 0.3112 0.0890
N12 N 0.0285(10) -0.0220(6) 0.2063(3)
H6 H -0.0211 -0.0560 0.2208
C63 C 0.3643(8) 0.2883(5) 0.1397(3)
H41 H 0.3759 0.3404 0.1545
C64 C 0.4098(12) 0.1984(7) 0.0792(4)
H42 H 0.4535 0.1873 0.0517
C65 C 0.2852(9) 0.2302(5) 0.1590(3)
H43 H 0.2459 0.2423 0.1869
C66 C 0.3279(12) 0.1356(6) 0.0976(4)
H44 H 0.3193 0.0830 0.0826
C67 C 0.2625(9) 0.1528(6) 0.1373(3)
C68 C 0.1754(9) 0.0872(6) 0.1597(4)
C69 C 0.1524(12) 0.0895(7) 0.2051(4)
H45 H 0.1948 0.1321 0.2201
C70 C 0.1202(13) 0.0214(7) 0.1359(5)
H46 H 0.1298 0.0151 0.1059
C71 C 0.0757(14) 0.0371(7) 0.2299(4)
H47 H 0.0599 0.0433 0.2598
C72 C 0.0399(9) -0.0406(6) 0.1659(3)
H48 H 0.0021 -0.0891 0.1545
O31 O -0.1574(9) 0.1700(6) 0.3190(3)
loop_
_geom_bond_atom_site_label_1
_geom_bond_atom_site_label_2
_geom_bond_site_symmetry_1
_geom_bond_site_symmetry_2
In1 O1 1_555 1_555
In2 O13 1_555 1_555
O1 C1 1_555 1_555
O2 C1 1_555 1_555
O3 C7 1_555 1_555
O4 C7 1_555 1_555
O5 In1 1_555 1_555
O6 C8 1_555 1_555
O7 C14 1_555 1_555
O8 C14 1_555 1_555
O9 In1 1_555 1_555
O10 C15 1_555 1_555
O11 C21 1_555 1_555
O12 C21 1_555 1_555
O13 C22 1_555 1_555
O14 C22 1_555 1_555
O15 C28 1_555 1_555
O16 C28 1_555 1_555
O17 In2 1_555 1_555
O18 C29 1_555 1_555
O19 C35 1_555 1_555
O20 C35 1_555 1_555
O21 In2 1_555 1_555
O22 C36 1_555 1_555
O23 C42 1_555 1_555
O24 C42 1_555 1_555
O25 In2 1_555 1_555
N1 In1 1_555 1_555
N2 In1 1_555 1_555
N3 In1 1_555 1_555
N4 In2 1_555 1_555
N5 In2 1_555 1_555
N6 In2 1_555 1_555
N7 H1 1_555 1_555
N8 H2 1_555 1_555
N9 H3 1_555 1_555
N10 H4 1_555 1_555
N11 H5 1_555 1_555
N12 H6 1_555 1_555
C1 C2 1_555 1_555
C2 N1 1_555 1_555
C3 C2 1_555 1_555
H7 C3 1_555 1_555
C4 C3 1_555 1_555
H8 C4 1_555 1_555
C5 C4 1_555 1_555
C6 N1 1_555 1_555
H9 C6 1_555 1_555
C7 C5 1_555 1_555
C8 O5 1_555 1_555
C9 N2 1_555 1_555
C10 C9 1_555 1_555
H10 C10 1_555 1_555
C11 C10 1_555 1_555
H11 C11 1_555 1_555
C12 C11 1_555 1_555
C13 N2 1_555 1_555
H12 C13 1_555 1_555
C14 C12 1_555 1_555
C15 O9 1_555 1_555
C16 N3 1_555 1_555
C17 C16 1_555 1_555
H13 C17 1_555 1_555
C18 C17 1_555 1_555
H14 C18 1_555 1_555
C19 C18 1_555 1_555
C20 N3 1_555 1_555
H15 C20 1_555 1_555
C21 C19 1_555 1_555
C22 C23 1_555 1_555
C23 N4 1_555 1_555
C24 C23 1_555 1_555
H16 C24 1_555 1_555
C25 C24 1_555 1_555
H17 C25 1_555 1_555
C26 C25 1_555 1_555
C27 N4 1_555 1_555
H18 C27 1_555 1_555
C28 C26 1_555 1_555
C29 O17 1_555 1_555
C30 N5 1_555 1_555
C31 C30 1_555 1_555
H19 C31 1_555 1_555
C32 C31 1_555 1_555
H20 C32 1_555 1_555
C33 C32 1_555 1_555
C34 N5 1_555 1_555
H21 C34 1_555 1_555
C35 C33 1_555 1_555
C36 O21 1_555 1_555
C37 N6 1_555 1_555
C38 C37 1_555 1_555
H22 C38 1_555 1_555
C39 C38 1_555 1_555
H23 C39 1_555 1_555
C40 C39 1_555 1_555
C41 N6 1_555 1_555
H24 C41 1_555 1_555
C42 C40 1_555 1_555
C43 N7 1_555 1_555
H25 C43 1_555 1_555
C44 N7 1_555 1_555
H26 C44 1_555 1_555
C45 C43 1_555 1_555
H27 C45 1_555 1_555
C46 C44 1_555 1_555
H28 C46 1_555 1_555
C47 C45 1_555 1_555
C48 C47 1_555 1_555
C49 C48 1_555 1_555
H29 C49 1_555 1_555
C50 C48 1_555 1_555
H30 C50 1_555 1_555
C51 N8 1_555 1_555
H31 C51 1_555 1_555
C52 N8 1_555 1_555
H32 C52 1_555 1_555
C53 N9 1_555 1_555
H33 C53 1_555 1_555
C54 N9 1_555 1_555
H34 C54 1_555 1_555
C55 C53 1_555 1_555
H35 C55 1_555 1_555
C56 C54 1_555 1_555
H36 C56 1_555 1_555
C57 C55 1_555 1_555
C58 C57 1_555 1_555
C59 C58 1_555 1_555
H37 C59 1_555 1_555
C60 C58 1_555 1_555
H38 C60 1_555 1_555
C61 N10 1_555 1_555
H39 C61 1_555 1_555
C62 N10 1_555 1_555
H40 C62 1_555 1_555
C63 N11 1_555 1_555
H41 C63 1_555 1_555
C64 N11 1_555 1_555
H42 C64 1_555 1_555
C65 C63 1_555 1_555
H43 C65 1_555 1_555
C66 C64 1_555 1_555
H44 C66 1_555 1_555
C67 C65 1_555 1_555
C68 C67 1_555 1_555
C69 C68 1_555 1_555
H45 C69 1_555 1_555
C70 C68 1_555 1_555
H46 C70 1_555 1_555
C71 N12 1_555 1_555
H47 C71 1_555 1_555
C72 N12 1_555 1_555
H48 C72 1_555 1_555
In1_2 O8 1_555 1_555
In2_2 O20 1_555 1_555
O8_2 In1 1_555 1_555
O20_2 In2 1_555 1_555
C5 C6 1_555 1_555
C8 C9 1_555 1_555
C12 C13 1_555 1_555
C15 C16 1_555 1_555
C19 C20 1_555 1_555
C26 C27 1_555 1_555
C29 C30 1_555 1_555
C33 C34 1_555 1_555
C36 C37 1_555 1_555
C40 C41 1_555 1_555
C46 C47 1_555 1_555
C49 C51 1_555 1_555
C50 C52 1_555 1_555
C56 C57 1_555 1_555
C59 C61 1_555 1_555
C60 C62 1_555 1_555
C66 C67 1_555 1_555
C69 C71 1_555 1_555
C70 C72 1_555 1_555

#END
