
#######################################################################
#
#                 Cambridge Crystallographic Data Centre
#                                CCDC 
#
#######################################################################
#
# If this CIF has been generated from an entry in the Cambridge 
# Structural Database, then it will include bibliographic, chemical, 
# crystal, experimental, refinement or atomic coordinate data resulting 
# from the CCDC's data processing and validation procedures.
#
#######################################################################

data_VULMIZ
_symmetry_cell_setting           monoclinic
_symmetry_space_group_name_H-M   'P 21/c'
_symmetry_Int_Tables_number      14
_space_group_name_Hall           '-P 2ybc'
loop_
_symmetry_equiv_pos_site_id
_symmetry_equiv_pos_as_xyz
1 x,y,z
2 -x,1/2+y,1/2-z
3 -x,-y,-z
4 x,1/2-y,1/2+z
_cell_length_a                   8.114(4)
_cell_length_b                   12.648(6)
_cell_length_c                   16.325(6)
_cell_angle_alpha                90
_cell_angle_beta                 115.375(19)
_cell_angle_gamma                90
_cell_volume                     1513.73
loop_
_atom_site_label
_atom_site_type_symbol
_atom_site_fract_x
_atom_site_fract_y
_atom_site_fract_z
In1 In 0.879665(18) 0.262676(11) 0.310793(9)
Cl1 Cl 0.96502(8) 0.08557(4) 0.37591(4)
O1 O 0.8647(2) 0.43280(12) 0.28969(10)
O2 O 0.9617(2) 0.58941(13) 0.35636(12)
O3 O 1.6741(2) 0.30746(16) 0.69420(11)
O4 O 1.4832(2) 0.17080(15) 0.65900(12)
O5 O 0.7019(2) 0.29515(12) 0.37672(11)
O6 O 1.0460(3) 0.26016(15) 0.23674(17)
N1 N 1.1165(2) 0.33114(13) 0.43343(11)
N2 N 0.6470(2) 0.21252(14) 0.41086(12)
C1 C 0.9715(3) 0.49213(16) 0.35344(14)
C2 C 1.1228(3) 0.43754(16) 0.43306(13)
C3 C 1.2597(3) 0.49337(18) 0.50113(16)
H1 H 1.2614 0.5669 0.5001
C4 C 1.3952(3) 0.43750(19) 0.57132(15)
H2 H 1.4906 0.4733 0.6170
C5 C 1.3863(3) 0.32813(17) 0.57247(13)
C6 C 1.2433(3) 0.27736(16) 0.50222(14)
H3 H 1.2355 0.2040 0.5031
C7 C 1.5228(3) 0.26129(18) 0.64746(15)
C8 C 0.5020(3) 0.15551(19) 0.35608(15)
H4 H 0.4410 0.1733 0.2951
C9 C 0.4429(3) 0.07120(19) 0.38937(14)
H5 H 0.3434 0.0317 0.3506
C10 C 0.5314(3) 0.04449(16) 0.48105(13)
C11 C 0.6822(3) 0.10566(17) 0.53549(14)
H6 H 0.7456 0.0899 0.5968
C12 C 0.7377(3) 0.18908(18) 0.49922(14)
H7 H 0.8382 0.2293 0.5360
H10 H 1.1265 0.3071 0.2403
H11 H 1.0542 0.2003 0.2121
In1B In 0.120335(18) -0.262676(11) 0.689207(9)
In1A In -0.879665(18) -0.237324(11) 0.189207(9)
In1C In 1.879665(18) 0.237324(11) 0.810793(9)
Cl1B Cl 0.03498(8) -0.08557(4) 0.62409(4)
O1B O 0.1353(2) -0.43280(12) 0.71031(10)
O2B O 0.0383(2) -0.58941(13) 0.64364(12)
O3B O -0.6741(2) -0.30746(16) 0.30580(11)
O3A O 0.3259(2) -0.19254(16) 0.80580(11)
O3C O 0.6741(2) 0.19254(16) 0.19420(11)
O4B O -0.4832(2) -0.17080(15) 0.34100(12)
O5B O 0.2981(2) -0.29515(12) 0.62328(11)
O6B O -0.0460(3) -0.26016(15) 0.76326(17)
N1B N -0.1165(2) -0.33114(13) 0.56657(11)
N2B N 0.3530(2) -0.21252(14) 0.58914(12)
C1B C 0.0285(3) -0.49213(16) 0.64656(14)
C2B C -0.1228(3) -0.43754(16) 0.56694(13)
C3B C -0.2597(3) -0.49337(18) 0.49887(16)
H1B H -0.2614 -0.5669 0.4999
C4B C -0.3952(3) -0.43750(19) 0.42868(15)
H2B H -0.4906 -0.4733 0.3830
C5B C -0.3863(3) -0.32813(17) 0.42753(13)
C6B C -0.2433(3) -0.27736(16) 0.49778(14)
H3B H -0.2355 -0.2040 0.4969
C7B C -0.5228(3) -0.26129(18) 0.35254(15)
C8B C 0.4980(3) -0.15551(19) 0.64392(15)
H4B H 0.5590 -0.1733 0.7049
C9B C 0.5571(3) -0.07120(19) 0.61063(14)
H5B H 0.6566 -0.0317 0.6494
C10B C 0.4686(3) -0.04449(16) 0.51895(13)
C11B C 0.3178(3) -0.10566(17) 0.46451(14)
H6B H 0.2544 -0.0899 0.4032
C12B C 0.2623(3) -0.18908(18) 0.50078(14)
H7B H 0.1618 -0.2293 0.4640
H10B H -0.1265 -0.3071 0.7597
H11B H -0.0542 -0.2003 0.7879
O7 O 0.2921(3) 0.40635(15) 0.25764(15)
H8 H 0.3765 0.3924 0.2392
H9 H 0.2278 0.4644 0.2276
loop_
_geom_bond_atom_site_label_1
_geom_bond_atom_site_label_2
_geom_bond_site_symmetry_1
_geom_bond_site_symmetry_2
In1 Cl1 1_555 1_555
O1 In1 1_555 1_555
O2 C1 1_555 1_555
O3 C7 1_555 1_555
O4 C7 1_555 1_555
O5 In1 1_555 1_555
O6 In1 1_555 1_555
O7 H8 1_555 1_555
N1 In1 1_555 1_555
N2 O5 1_555 1_555
C1 O1 1_555 1_555
C2 N1 1_555 1_555
C3 C2 1_555 1_555
H1 C3 1_555 1_555
C4 C3 1_555 1_555
H2 C4 1_555 1_555
C5 C4 1_555 1_555
C6 N1 1_555 1_555
H3 C6 1_555 1_555
C7 C5 1_555 1_555
C8 N2 1_555 1_555
H4 C8 1_555 1_555
C9 C8 1_555 1_555
H5 C9 1_555 1_555
C10 C9 1_555 1_555
C11 C10 1_555 1_555
H6 C11 1_555 1_555
C12 N2 1_555 1_555
H7 C12 1_555 1_555
H9 O7 1_555 1_555
H10 O6 1_555 1_555
H11 O6 1_555 1_555
In1B Cl1B 1_555 1_555
In1A O3B 1_555 1_555
In1C O3 1_555 1_555
O1B In1B 1_555 1_555
O2B C1B 1_555 1_555
O3B C7B 1_555 1_555
O3A In1B 1_555 1_555
O3C In1 1_555 1_555
O4B C7B 1_555 1_555
O5B In1B 1_555 1_555
O6B In1B 1_555 1_555
N1B In1B 1_555 1_555
N2B O5B 1_555 1_555
C1B O1B 1_555 1_555
C2B N1B 1_555 1_555
C3B C2B 1_555 1_555
H1B C3B 1_555 1_555
C4B C3B 1_555 1_555
H2B C4B 1_555 1_555
C5B C4B 1_555 1_555
C6B N1B 1_555 1_555
H3B C6B 1_555 1_555
C7B C5B 1_555 1_555
C8B N2B 1_555 1_555
H4B C8B 1_555 1_555
C9B C8B 1_555 1_555
H5B C9B 1_555 1_555
C10B C10 1_555 1_555
C11B C10B 1_555 1_555
H6B C11B 1_555 1_555
C12B N2B 1_555 1_555
H7B C12B 1_555 1_555
H10B O6B 1_555 1_555
H11B O6B 1_555 1_555
C1 C2 1_555 1_555
C5 C6 1_555 1_555
C11 C12 1_555 1_555
C1B C2B 1_555 1_555
C5B C6B 1_555 1_555
C9B C10B 1_555 1_555
C11B C12B 1_555 1_555

#END
