
#######################################################################
#
#                 Cambridge Crystallographic Data Centre
#                                CCDC 
#
#######################################################################
#
# If this CIF has been generated from an entry in the Cambridge 
# Structural Database, then it will include bibliographic, chemical, 
# crystal, experimental, refinement or atomic coordinate data resulting 
# from the CCDC's data processing and validation procedures.
#
#######################################################################

data_VULMOF
_symmetry_cell_setting           monoclinic
_symmetry_space_group_name_H-M   'P 21'
_symmetry_Int_Tables_number      4
_space_group_name_Hall           'P 2yb'
loop_
_symmetry_equiv_pos_site_id
_symmetry_equiv_pos_as_xyz
1 x,y,z
2 -x,1/2+y,-z
_cell_length_a                   10.8599(5)
_cell_length_b                   11.5232(4)
_cell_length_c                   11.6934(6)
_cell_angle_alpha                90
_cell_angle_beta                 114.691(2)
_cell_angle_gamma                90
_cell_volume                     1329.54
loop_
_atom_site_label
_atom_site_type_symbol
_atom_site_fract_x
_atom_site_fract_y
_atom_site_fract_z
In1 In 0.322752(14) 0.756827(13) 0.135046(13)
In2 In 0.248461(18) 0.544618(15) 0.546703(17)
Cl1 Cl 0.01652(8) 0.54518(11) 0.52178(9)
Cl2 Cl 0.35316(13) 0.66132(10) 0.73183(10)
O1 O 0.49488(18) 0.86180(17) 0.26245(18)
O2 O 0.7200(2) 0.87500(19) 0.3524(2)
O3 O 0.4971(2) 0.3405(2) 0.0005(2)
O4 O 0.7072(2) 0.36688(17) 0.01850(18)
O5 O -0.0453(2) 1.1215(2) -0.0836(2)
O6 O -0.20712(19) 1.12273(18) -0.01268(18)
O7 O 0.30624(19) 0.69020(16) 0.30397(16)
O8 O 0.1834(2) 0.69475(18) 0.4151(2)
N1 N 0.5050(2) 0.65185(18) 0.17000(18)
N2 N 0.1642(2) 0.86434(18) 0.15794(18)
N3 N 0.2029(3) 0.4230(2) 0.3790(2)
N4 N 0.4419(2) 0.5251(2) 0.5159(2)
C1 C 0.5034(2) 0.5516(2) 0.1135(2)
H1 H 0.4208 0.5151 0.0686
C2 C 0.6209(3) 0.4998(2) 0.1193(2)
C3 C 0.7437(3) 0.5528(3) 0.1900(3)
H2 H 0.8243 0.5194 0.1962
C4 C 0.7455(3) 0.6568(3) 0.2520(3)
H3 H 0.8271 0.6925 0.3023
C5 C 0.6239(2) 0.7055(2) 0.2371(2)
C6 C 0.6115(3) 0.8233(2) 0.2872(2)
C7 C 0.6046(3) 0.3923(2) 0.0413(3)
C8 C 0.1259(3) 0.8263(2) 0.2469(2)
C9 C 0.0151(3) 0.8720(2) 0.2596(2)
H4 H -0.0084 0.8460 0.3231
C10 C -0.0609(3) 0.9573(2) 0.1764(2)
H5 H -0.1374 0.9880 0.1820
C11 C -0.0212(3) 0.9961(2) 0.0846(2)
C12 C 0.0938(2) 0.9482(2) 0.0802(2)
H6 H 0.1227 0.9757 0.0207
C13 C -0.0953(3) 1.0871(2) -0.0130(3)
C14 C 0.2122(3) 0.7287(2) 0.3281(2)
C15 C 0.0824(4) 0.3737(3) 0.3161(4)
H7 H 0.0145 0.3854 0.3436
C16 C 0.0553(5) 0.3051(4) 0.2102(5)
H8 H -0.0288 0.2697 0.1692
C17 C 0.1520(5) 0.2904(4) 0.1679(4)
H9 H 0.1334 0.2485 0.0946
C18 C 0.2810(5) 0.3386(4) 0.2349(4)
H10 H 0.3501 0.3270 0.2089
C19 C 0.3027(4) 0.4049(3) 0.3426(3)
C20 C 0.4370(3) 0.4552(3) 0.4221(3)
C21 C 0.5521(4) 0.4315(3) 0.4042(3)
H11 H 0.5487 0.3800 0.3418
C22 C 0.6717(4) 0.4847(4) 0.4796(4)
H12 H 0.7498 0.4703 0.4677
C23 C 0.6756(3) 0.5586(4) 0.5715(3)
H13 H 0.7553 0.5969 0.6220
C24 C 0.5584(3) 0.5753(3) 0.5880(3)
H14 H 0.5612 0.6238 0.6525
In1A In -0.322752(14) 1.256827(13) -0.135046(13)
In1A_2 In 0.677248(14) 0.256827(13) -0.135046(13)
In2A In 0.751539(18) 1.044618(15) 0.453297(17)
O2A O 0.2800(2) 0.37500(19) 0.6476(2)
O4A O 0.2928(2) 0.86688(17) -0.01850(18)
O6A O 0.20712(19) 0.62273(18) 0.01268(18)
loop_
_geom_bond_atom_site_label_1
_geom_bond_atom_site_label_2
_geom_bond_site_symmetry_1
_geom_bond_site_symmetry_2
In1 O1 1_555 1_555
In2 Cl1 1_555 1_555
Cl2 In2 1_555 1_555
O1 C6 1_555 1_555
O2 C6 1_555 1_555
O3 C7 1_555 1_555
O4 C7 1_555 1_555
O5 C13 1_555 1_555
O6 C13 1_555 1_555
O7 In1 1_555 1_555
O8 In2 1_555 1_555
N1 In1 1_555 1_555
N2 In1 1_555 1_555
N3 In2 1_555 1_555
N4 In2 1_555 1_555
C1 N1 1_555 1_555
H1 C1 1_555 1_555
C2 C1 1_555 1_555
C3 C2 1_555 1_555
H2 C3 1_555 1_555
C4 C3 1_555 1_555
H3 C4 1_555 1_555
C5 N1 1_555 1_555
C6 C5 1_555 1_555
C7 C2 1_555 1_555
C8 N2 1_555 1_555
C9 C8 1_555 1_555
H4 C9 1_555 1_555
C10 C9 1_555 1_555
H5 C10 1_555 1_555
C11 C10 1_555 1_555
C12 N2 1_555 1_555
H6 C12 1_555 1_555
C13 C11 1_555 1_555
C14 O7 1_555 1_555
C15 N3 1_555 1_555
H7 C15 1_555 1_555
C16 C15 1_555 1_555
H8 C16 1_555 1_555
C17 C16 1_555 1_555
H9 C17 1_555 1_555
C18 C17 1_555 1_555
H10 C18 1_555 1_555
C19 N3 1_555 1_555
C20 N4 1_555 1_555
C21 C20 1_555 1_555
H11 C21 1_555 1_555
C22 C21 1_555 1_555
H12 C22 1_555 1_555
C23 C22 1_555 1_555
H13 C23 1_555 1_555
C24 N4 1_555 1_555
H14 C24 1_555 1_555
In1A O6 1_555 1_555
In1A_2 O4 1_555 1_555
In2A O2 1_555 1_555
O2A In2 1_555 1_555
O4A In1 1_555 1_555
O6A In1 1_555 1_555
O8 C14 1_555 1_555
C4 C5 1_555 1_555
C8 C14 1_555 1_555
C11 C12 1_555 1_555
C18 C19 1_555 1_555
C19 C20 1_555 1_555
C23 C24 1_555 1_555

#END
