
#######################################################################
#
#                 Cambridge Crystallographic Data Centre
#                                CCDC 
#
#######################################################################
#
# If this CIF has been generated from an entry in the Cambridge 
# Structural Database, then it will include bibliographic, chemical, 
# crystal, experimental, refinement or atomic coordinate data resulting 
# from the CCDC's data processing and validation procedures.
#
#######################################################################

data_VULNUM
_symmetry_cell_setting           monoclinic
_symmetry_space_group_name_H-M   'C 2/c'
_symmetry_Int_Tables_number      15
_space_group_name_Hall           '-C 2yn'
loop_
_symmetry_equiv_pos_site_id
_symmetry_equiv_pos_as_xyz
1 x,y,z
2 -x,y,1/2-z
3 1/2+x,1/2+y,z
4 1/2-x,1/2+y,1/2-z
5 -x,-y,-z
6 x,-y,1/2+z
7 1/2-x,1/2-y,-z
8 1/2+x,1/2-y,1/2+z
_cell_length_a                   16.3719(6)
_cell_length_b                   22.7018(6)
_cell_length_c                   7.4514(2)
_cell_angle_alpha                90
_cell_angle_beta                 94.705(2)
_cell_angle_gamma                90
_cell_volume                     2760.14
loop_
_atom_site_label
_atom_site_type_symbol
_atom_site_fract_x
_atom_site_fract_y
_atom_site_fract_z
Zn1 Zn 0.0000 0.301627(13) 0.2500
Na1 Na 0.30525(5) 0.18323(3) 0.43660(12)
O1 O 0.18022(9) 0.23621(6) 0.3451(2)
O2 O 0.07130(9) 0.24359(7) 0.1438(2)
O3 O 0.20022(8) 0.12275(6) 0.2630(2)
O4 O 0.33570(8) 0.07888(6) 0.3881(2)
O5 O 0.43469(8) 0.15186(6) 0.5716(2)
O6 O 0.54478(9) 0.09854(7) 0.5204(3)
O7 O 0.37467(19) 0.19625(9) 0.1721(3)
H1 H 0.3939 0.1647 0.1428
C1 C 0.12948(11) 0.21565(9) 0.2322(3)
C2 C 0.12782(12) 0.15047(9) 0.1869(3)
H2 H 0.0803 0.1323 0.2337
H3 H 0.1235 0.1454 0.0573
C3 C 0.20273(11) 0.06239(8) 0.2553(3)
C4 C 0.14065(11) 0.02628(9) 0.1891(3)
H4 H 0.0917 0.0425 0.1399
C5 C 0.15048(11) -0.03595(9) 0.1950(3)
C6 C 0.08643(13) -0.07481(10) 0.1341(3)
H5 H 0.0366 -0.0595 0.0862
C7 C 0.09677(14) -0.13440(10) 0.1448(3)
H6 H 0.0540 -0.1593 0.1047
C8 C 0.17154(15) -0.15810(10) 0.2159(3)
H7 H 0.1780 -0.1987 0.2235
C9 C 0.23521(13) -0.12196(9) 0.2743(3)
H8 H 0.2848 -0.1382 0.3198
C10 C 0.22600(12) -0.06000(8) 0.2656(3)
C11 C 0.29034(11) -0.02156(8) 0.3296(3)
H9 H 0.3406 -0.0370 0.3741
C12 C 0.27880(11) 0.03777(8) 0.3259(3)
C13 C 0.41581(11) 0.05747(8) 0.4358(3)
H10 H 0.4386 0.0414 0.3302
H11 H 0.4135 0.0261 0.5238
C14 C 0.47015(11) 0.10658(9) 0.5138(3)
Zn1F Zn -0.5000 0.198373(13) -0.2500
Zn1F_2 Zn 0.5000 0.198373(13) 0.7500
Na1A Na -0.30525(5) 0.18323(3) 0.06340(12)
Na1F Na 0.19475(5) 0.31677(3) 0.56340(12)
Na1G Na -0.19475(5) 0.31677(3) -0.06340(12)
O1A O -0.18022(9) 0.23621(6) 0.1549(2)
O1F O 0.31978(9) 0.26379(6) 0.6549(2)
O1G O -0.31978(9) 0.26379(6) -0.1549(2)
O2A O -0.07130(9) 0.24359(7) 0.3562(2)
O3A O -0.20022(8) 0.12275(6) 0.2370(2)
O4A O -0.33570(8) 0.07888(6) 0.1119(2)
O5A O -0.43469(8) 0.15186(6) -0.0716(2)
O5F O 0.06531(8) 0.34814(6) 0.4284(2)
O5G O -0.06531(8) 0.34814(6) 0.0716(2)
O6A O -0.54478(9) 0.09854(7) -0.0204(3)
O7A O -0.37467(19) 0.19625(9) 0.3279(3)
H1A H -0.3939 0.1647 0.3572
C1A C -0.12948(11) 0.21565(9) 0.2678(3)
C2A C -0.12782(12) 0.15047(9) 0.3131(3)
H2A H -0.0803 0.1323 0.2663
H3A H -0.1235 0.1454 0.4427
C3A C -0.20273(11) 0.06239(8) 0.2447(3)
C4A C -0.14065(11) 0.02628(9) 0.3109(3)
H4A H -0.0917 0.0425 0.3601
C5A C -0.15048(11) -0.03595(9) 0.3050(3)
C6A C -0.08643(13) -0.07481(10) 0.3659(3)
H5A H -0.0366 -0.0595 0.4138
C7A C -0.09677(14) -0.13440(10) 0.3552(3)
H6A H -0.0540 -0.1593 0.3953
C8A C -0.17154(15) -0.15810(10) 0.2841(3)
H7A H -0.1780 -0.1987 0.2765
C9A C -0.23521(13) -0.12196(9) 0.2257(3)
H8A H -0.2848 -0.1382 0.1802
C10A C -0.22600(12) -0.06000(8) 0.2344(3)
C11A C -0.29034(11) -0.02156(8) 0.1704(3)
H9A H -0.3406 -0.0370 0.1259
C12A C -0.27880(11) 0.03777(8) 0.1741(3)
C13A C -0.41581(11) 0.05747(8) 0.0642(3)
H10A H -0.4386 0.0414 0.1698
H11A H -0.4135 0.0261 -0.0238
C14A C -0.47015(11) 0.10658(9) -0.0138(3)
loop_
_geom_bond_atom_site_label_1
_geom_bond_atom_site_label_2
_geom_bond_site_symmetry_1
_geom_bond_site_symmetry_2
Zn1 O2 1_555 1_555
Na1 O1 1_555 1_555
O1 C1 1_555 1_555
O2 C1 1_555 1_555
O3 Na1 1_555 1_555
O4 Na1 1_555 1_555
O5 Na1 1_555 1_555
O6 C14 1_555 1_555
O7 Na1 1_555 1_555
H1 O7 1_555 1_555
C1 C2 1_555 1_555
C2 O3 1_555 1_555
H2 C2 1_555 1_555
H3 C2 1_555 1_555
C3 O3 1_555 1_555
C4 C3 1_555 1_555
H4 C4 1_555 1_555
C5 C4 1_555 1_555
C6 C5 1_555 1_555
H5 C6 1_555 1_555
C7 C6 1_555 1_555
H6 C7 1_555 1_555
C8 C7 1_555 1_555
H7 C8 1_555 1_555
C9 C8 1_555 1_555
H8 C9 1_555 1_555
C10 C5 1_555 1_555
C11 C10 1_555 1_555
H9 C11 1_555 1_555
C12 O4 1_555 1_555
C13 O4 1_555 1_555
H10 C13 1_555 1_555
H11 C13 1_555 1_555
C14 O5 1_555 1_555
Zn1F O5A 1_555 1_555
Zn1F_2 O5 1_555 1_555
Na1A O1A 1_555 1_555
Na1F O1 1_555 1_555
Na1G O1A 1_555 1_555
O1A C1A 1_555 1_555
O1F Na1 1_555 1_555
O1G Na1A 1_555 1_555
O2A Zn1 1_555 1_555
O3A Na1A 1_555 1_555
O4A Na1A 1_555 1_555
O5A Na1A 1_555 1_555
O5F Zn1 1_555 1_555
O5G Zn1 1_555 1_555
O6A C14A 1_555 1_555
O7A Na1A 1_555 1_555
H1A O7A 1_555 1_555
C1A O2A 1_555 1_555
C2A O3A 1_555 1_555
H2A C2A 1_555 1_555
H3A C2A 1_555 1_555
C3A O3A 1_555 1_555
C4A C3A 1_555 1_555
H4A C4A 1_555 1_555
C5A C4A 1_555 1_555
C6A C5A 1_555 1_555
H5A C6A 1_555 1_555
C7A C6A 1_555 1_555
H6A C7A 1_555 1_555
C8A C7A 1_555 1_555
H7A C8A 1_555 1_555
C9A C8A 1_555 1_555
H8A C9A 1_555 1_555
C10A C5A 1_555 1_555
C11A C10A 1_555 1_555
H9A C11A 1_555 1_555
C12A O4A 1_555 1_555
C13A O4A 1_555 1_555
H10A C13A 1_555 1_555
H11A C13A 1_555 1_555
C14A O5A 1_555 1_555
C3 C12 1_555 1_555
C9 C10 1_555 1_555
C11 C12 1_555 1_555
C13 C14 1_555 1_555
Na1F O1F 1_555 1_555
Na1F O5F 1_555 1_555
Na1G O1G 1_555 1_555
Na1G O5G 1_555 1_555
C1A C2A 1_555 1_555
C3A C12A 1_555 1_555
C9A C10A 1_555 1_555
C11A C12A 1_555 1_555
C13A C14A 1_555 1_555

#END
