
#######################################################################
#
#                 Cambridge Crystallographic Data Centre
#                                CCDC 
#
#######################################################################
#
# If this CIF has been generated from an entry in the Cambridge 
# Structural Database, then it will include bibliographic, chemical, 
# crystal, experimental, refinement or atomic coordinate data resulting 
# from the CCDC's data processing and validation procedures.
#
#######################################################################

data_VULNOG
_symmetry_cell_setting           monoclinic
_symmetry_space_group_name_H-M   'P 21/c'
_symmetry_Int_Tables_number      14
_space_group_name_Hall           '-P 2ybc'
loop_
_symmetry_equiv_pos_site_id
_symmetry_equiv_pos_as_xyz
1 x,y,z
2 -x,1/2+y,1/2-z
3 -x,-y,-z
4 x,1/2-y,1/2+z
_cell_length_a                   10.727(2)
_cell_length_b                   17.456(4)
_cell_length_c                   16.435(3)
_cell_angle_alpha                90
_cell_angle_beta                 120.721(12)
_cell_angle_gamma                90
_cell_volume                     2645.59
loop_
_atom_site_label
_atom_site_type_symbol
_atom_site_fract_x
_atom_site_fract_y
_atom_site_fract_z
Zn1 Zn 0.37992(5) 0.15492(3) 0.15264(4)
C1 C 0.6909(4) 0.1150(3) 0.2117(3)
C2 C 0.8513(5) 0.1310(3) 0.2758(3)
H1 H 0.8976 0.0853 0.3126
H2 H 0.8933 0.1413 0.2368
C3 C 0.8767(5) 0.1805(3) 0.4186(3)
C4 C 0.8640(5) 0.1114(3) 0.4516(4)
H3 H 0.8553 0.0675 0.4170
C5 C 0.8637(5) 0.1042(3) 0.5386(3)
C6 C 0.8540(5) 0.0329(3) 0.5757(4)
H4 H 0.8446 -0.0119 0.5425
C7 C 0.8584(6) 0.0295(4) 0.6602(4)
H5 H 0.8519 -0.0178 0.6838
C8 C 0.8723(5) 0.0961(4) 0.7119(4)
H6 H 0.8756 0.0929 0.7694
C9 C 0.8810(5) 0.1653(3) 0.6772(4)
H7 H 0.8896 0.2094 0.7114
C10 C 0.8773(5) 0.1713(3) 0.5897(3)
C11 C 0.8882(5) 0.2432(3) 0.5541(3)
H8 H 0.8960 0.2874 0.5882
C12 C 0.8874(5) 0.2495(3) 0.4707(3)
C13 C 0.9118(5) 0.3836(3) 0.4813(3)
H9 H 0.8403 0.3851 0.5007
H10 H 0.8946 0.4273 0.4404
C14 C 1.0625(4) 0.3908(2) 0.5688(3)
C15 C 0.2801(5) 0.2979(3) 0.2105(4)
H11 H 0.2001 0.2912 0.1501
C16 C 0.2807(6) 0.3594(3) 0.2632(5)
H12 H 0.2023 0.3928 0.2392
C17 C 0.4004(6) 0.3706(3) 0.3527(5)
H13 H 0.4051 0.4122 0.3895
C18 C 0.5117(6) 0.3186(3) 0.3856(4)
H14 H 0.5930 0.3240 0.4457
C19 C 0.5014(5) 0.2585(3) 0.3283(3)
H15 H 0.5776 0.2236 0.3514
C20 C 0.2618(5) 0.2492(3) -0.0318(3)
H16 H 0.1831 0.2162 -0.0526
C21 C 0.2568(6) 0.3048(4) -0.0923(4)
H17 H 0.1763 0.3092 -0.1529
C22 C 0.3714(7) 0.3537(4) -0.0625(5)
H18 H 0.3699 0.3920 -0.1024
C23 C 0.4892(6) 0.3455(3) 0.0274(4)
H19 H 0.5689 0.3778 0.0495
C24 C 0.4862(5) 0.2887(3) 0.0836(4)
H20 H 0.5659 0.2836 0.1444
C25 C 0.4535(7) 0.0042(4) 0.2804(5)
H21 H 0.4423 -0.0256 0.2280
H22 H 0.4241 -0.0257 0.3167
H23 H 0.5532 0.0189 0.3197
N1 N 0.3883(4) 0.2474(2) 0.2416(3)
N2 N 0.3765(4) 0.2402(2) 0.0568(3)
O1 O 0.6046(3) 0.14907(17) 0.2277(2)
O2 O 0.6609(4) 0.0683(3) 0.1465(3)
O3 O 0.8830(3) 0.19342(19) 0.3389(2)
O4 O 0.8920(3) 0.31478(18) 0.4286(2)
O5 O 1.0802(3) 0.4436(2) 0.6256(2)
O6 O 1.1555(3) 0.34487(17) 0.5753(2)
O7 O 0.3759(3) 0.0614(2) 0.0713(2)
O8 O 0.3652(3) 0.07133(18) 0.2458(2)
Zn1C Zn 1.37992(5) 0.34508(3) 0.65264(4)
O6C O 0.1555(3) 0.15513(17) 0.0753(2)
H24 H 0.115(8) 0.499(5) 0.393(6)
H25 H 0.206(7) 0.516(4) 0.406(5)
O9 O 0.1718(6) 0.4817(3) 0.3983(3)
loop_
_geom_bond_atom_site_label_1
_geom_bond_atom_site_label_2
_geom_bond_site_symmetry_1
_geom_bond_site_symmetry_2
Zn1 N1 1_555 1_555
C1 C2 1_555 1_555
C2 H1 1_555 1_555
H2 C2 1_555 1_555
C3 C4 1_555 1_555
C4 H3 1_555 1_555
C5 C4 1_555 1_555
C6 C5 1_555 1_555
H4 C6 1_555 1_555
C7 C6 1_555 1_555
H5 C7 1_555 1_555
C8 C7 1_555 1_555
H6 C8 1_555 1_555
C9 C8 1_555 1_555
H7 C9 1_555 1_555
C10 C5 1_555 1_555
C11 C10 1_555 1_555
H8 C11 1_555 1_555
C12 C3 1_555 1_555
C13 H9 1_555 1_555
H10 C13 1_555 1_555
C14 C13 1_555 1_555
C15 H11 1_555 1_555
C16 C15 1_555 1_555
H12 C16 1_555 1_555
C17 C16 1_555 1_555
H13 C17 1_555 1_555
C18 C17 1_555 1_555
H14 C18 1_555 1_555
C19 C18 1_555 1_555
H15 C19 1_555 1_555
C20 H16 1_555 1_555
C21 C20 1_555 1_555
H17 C21 1_555 1_555
C22 C21 1_555 1_555
H18 C22 1_555 1_555
C23 C22 1_555 1_555
H19 C23 1_555 1_555
C24 C23 1_555 1_555
H20 C24 1_555 1_555
C25 H21 1_555 1_555
H22 C25 1_555 1_555
H23 C25 1_555 1_555
N1 C15 1_555 1_555
N2 Zn1 1_555 1_555
O1 Zn1 1_555 1_555
O2 C1 1_555 1_555
O3 C2 1_555 1_555
O4 C12 1_555 1_555
O5 C14 1_555 1_555
O6 C14 1_555 1_555
O7 Zn1 1_555 1_555
O8 Zn1 1_555 1_555
H24 O9 1_555 1_555
H25 O9 1_555 1_555
Zn1C O6 1_555 1_555
O6C Zn1 1_555 1_555
C1 O1 1_555 1_555
C3 O3 1_555 1_555
C9 C10 1_555 1_555
C11 C12 1_555 1_555
C13 O4 1_555 1_555
C19 N1 1_555 1_555
C20 N2 1_555 1_555
C24 N2 1_555 1_555
C25 O8 1_555 1_555

#END
