
#######################################################################
#
#                 Cambridge Crystallographic Data Centre
#                                CCDC 
#
#######################################################################
#
# If this CIF has been generated from an entry in the Cambridge 
# Structural Database, then it will include bibliographic, chemical, 
# crystal, experimental, refinement or atomic coordinate data resulting 
# from the CCDC's data processing and validation procedures.
#
#######################################################################

data_VULPEY
_symmetry_cell_setting           monoclinic
_symmetry_space_group_name_H-M   'P 21/c'
_symmetry_Int_Tables_number      14
_space_group_name_Hall           '-P 2ybc'
loop_
_symmetry_equiv_pos_site_id
_symmetry_equiv_pos_as_xyz
1 x,y,z
2 -x,1/2+y,1/2-z
3 -x,-y,-z
4 x,1/2-y,1/2+z
_cell_length_a                   9.3548(3)
_cell_length_b                   18.3574(6)
_cell_length_c                   18.7369(6)
_cell_angle_alpha                90
_cell_angle_beta                 115.724(2)
_cell_angle_gamma                90
_cell_volume                     2898.8
loop_
_atom_site_label
_atom_site_type_symbol
_atom_site_fract_x
_atom_site_fract_y
_atom_site_fract_z
Zn1 Zn 1.03195(4) 0.18696(2) 0.52226(2)
C1 C 0.9191(4) 0.19393(17) 0.3288(2)
C2 C 0.7894(4) 0.22907(19) 0.2560(2)
H1 H 0.8310 0.2730 0.2432
H2 H 0.7598 0.1960 0.2114
C3 C 0.5551(4) 0.18936(17) 0.2628(2)
C4 C 0.5819(4) 0.11814(18) 0.2530(2)
H3 H 0.6720 0.1054 0.2467
C5 C 0.4757(4) 0.06288(17) 0.25206(19)
C6 C 0.5015(5) -0.01208(19) 0.2438(2)
H4 H 0.5910 -0.0264 0.2378
C7 C 0.3978(6) -0.0630(2) 0.2446(2)
H5 H 0.4173 -0.1120 0.2397
C8 C 0.2634(6) -0.0431(2) 0.2528(3)
H6 H 0.1941 -0.0789 0.2539
C9 C 0.2310(5) 0.0286(2) 0.2592(2)
H7 H 0.1386 0.0411 0.2634
C10 C 0.3359(4) 0.08355(17) 0.25961(19)
C11 C 0.3093(4) 0.15836(18) 0.26793(19)
H8 H 0.2167 0.1724 0.2712
C12 C 0.4157(4) 0.21012(16) 0.27129(19)
C13 C 0.2643(4) 0.31046(17) 0.2851(2)
H9 H 0.2885 0.3560 0.3143
H10 H 0.2298 0.2761 0.3138
C14 C 0.1288(4) 0.32321(16) 0.2044(2)
C15 C 0.6936(5) 0.3521(2) 0.4681(3)
H11 H 0.6059 0.3765 0.4308
C16 C 0.7658(6) 0.3651(2) 0.5475(3)
H12 H 0.7374 0.3996 0.5754
C17 C 0.8897(5) 0.3165(2) 0.5777(2)
H13 H 0.9604 0.3130 0.6310
C18 C 0.7514(5) 0.0213(2) 0.5406(3)
H14 H 0.7055 -0.0022 0.5695
C19 C 0.7245(5) 0.0058(2) 0.4651(3)
H15 H 0.6580 -0.0299 0.4322
C20 C 0.8169(5) 0.0543(2) 0.4479(2)
H16 H 0.8224 0.0568 0.3996
C21 C 1.4336(5) 0.1728(3) 0.4804(2)
H17 H 1.4808 0.1646 0.4464
C22 C 1.5104(5) 0.1869(3) 0.5587(3)
H18 H 1.6194 0.1901 0.5894
C23 C 1.3923(4) 0.1956(2) 0.5837(2)
H19 H 1.4097 0.2060 0.6354
N1 N 0.8948(3) 0.27507(15) 0.52074(17)
N2 N 0.7726(4) 0.29811(17) 0.45425(19)
H20 H 0.7483 0.2800 0.4081
N3 N 0.8976(3) 0.09721(15) 0.50966(17)
N4 N 0.8544(4) 0.07570(17) 0.5661(2)
N5 N 1.2503(3) 0.18681(14) 0.52326(16)
N6 N 1.2790(4) 0.17277(17) 0.4603(2)
O1 O 0.9140(3) 0.20377(14) 0.39351(14)
O2 O 1.0225(3) 0.16006(16) 0.31813(15)
O3 O 0.6511(2) 0.24710(11) 0.26636(14)
O4 O 0.4060(3) 0.28339(11) 0.28361(13)
O5 O 0.0060(3) 0.34896(15) 0.20403(16)
O6 O 0.1515(3) 0.30866(13) 0.14472(14)
H21 H 0.906(5) 0.096(2) 0.618(3)
H22 H 1.206(5) 0.168(2) 0.416(3)
Zn1C Zn 0.03195(4) 0.31304(2) 0.02226(2)
O6C O 1.1515(3) 0.19134(13) 0.64472(14)
C24 C 0.0760(10) 0.4006(6) 0.4184(5)
H23 H 0.0625 0.4193 0.3680
H24 H -0.0063 0.4194 0.4308
H25 H 0.0702 0.3484 0.4161
C25 C 0.2304(16) 0.4086(7) 0.5559(5)
H26 H 0.3337 0.4228 0.5948
H27 H 0.2137 0.3579 0.5622
H28 H 0.1511 0.4370 0.5629
C26 C 0.3440(10) 0.4426(5) 0.4722(8)
H29 H 0.4384 0.4465 0.5181
N7 N 0.2188(6) 0.4214(3) 0.4749(3)
O7 O 0.3378(8) 0.4592(3) 0.4021(3)
loop_
_geom_bond_atom_site_label_1
_geom_bond_atom_site_label_2
_geom_bond_site_symmetry_1
_geom_bond_site_symmetry_2
Zn1 N1 1_555 1_555
C1 C2 1_555 1_555
C2 H1 1_555 1_555
H2 C2 1_555 1_555
C3 C4 1_555 1_555
C4 H3 1_555 1_555
C5 C4 1_555 1_555
C6 C5 1_555 1_555
H4 C6 1_555 1_555
C7 C6 1_555 1_555
H5 C7 1_555 1_555
C8 C7 1_555 1_555
H6 C8 1_555 1_555
C9 C8 1_555 1_555
H7 C9 1_555 1_555
C10 C5 1_555 1_555
C11 C10 1_555 1_555
H8 C11 1_555 1_555
C12 C3 1_555 1_555
C13 H9 1_555 1_555
H10 C13 1_555 1_555
C14 C13 1_555 1_555
C15 H11 1_555 1_555
C16 C15 1_555 1_555
H12 C16 1_555 1_555
C17 C16 1_555 1_555
H13 C17 1_555 1_555
C18 H14 1_555 1_555
C19 C18 1_555 1_555
H15 C19 1_555 1_555
C20 C19 1_555 1_555
H16 C20 1_555 1_555
C21 H17 1_555 1_555
C22 C21 1_555 1_555
H18 C22 1_555 1_555
C23 C22 1_555 1_555
H19 C23 1_555 1_555
N1 C17 1_555 1_555
N2 C15 1_555 1_555
H20 N2 1_555 1_555
N3 Zn1 1_555 1_555
N4 C18 1_555 1_555
N5 Zn1 1_555 1_555
N6 C21 1_555 1_555
O1 Zn1 1_555 1_555
O2 C1 1_555 1_555
O3 C2 1_555 1_555
O4 C12 1_555 1_555
O5 C14 1_555 1_555
O6 C14 1_555 1_555
H21 N4 1_555 1_555
H22 N6 1_555 1_555
C24 H23 1_555 1_555
H24 C24 1_555 1_555
H25 C24 1_555 1_555
C25 H26 1_555 1_555
H27 C25 1_555 1_555
H28 C25 1_555 1_555
C26 H29 1_555 1_555
N7 C24 1_555 1_555
O7 C26 1_555 1_555
Zn1C O6 1_555 1_555
O6C Zn1 1_555 1_555
C1 O1 1_555 1_555
C3 O3 1_555 1_555
C9 C10 1_555 1_555
C11 C12 1_555 1_555
C13 O4 1_555 1_555
C20 N3 1_555 1_555
C23 N5 1_555 1_555
N1 N2 1_555 1_555
N3 N4 1_555 1_555
N5 N6 1_555 1_555
C25 N7 1_555 1_555
C26 N7 1_555 1_555

#END
