
#######################################################################
#
#                 Cambridge Crystallographic Data Centre
#                                CCDC 
#
#######################################################################
#
# If this CIF has been generated from an entry in the Cambridge 
# Structural Database, then it will include bibliographic, chemical, 
# crystal, experimental, refinement or atomic coordinate data resulting 
# from the CCDC's data processing and validation procedures.
#
#######################################################################

data_VULRAW02
_symmetry_cell_setting           triclinic
_symmetry_space_group_name_H-M   'P -1'
_symmetry_Int_Tables_number      2
_space_group_name_Hall           '-P 1'
loop_
_symmetry_equiv_pos_site_id
_symmetry_equiv_pos_as_xyz
1 x,y,z
2 -x,-y,-z
_cell_length_a                   7.2059(2)
_cell_length_b                   15.3431(4)
_cell_length_c                   15.9791(5)
_cell_angle_alpha                95.315(2)
_cell_angle_beta                 96.638(2)
_cell_angle_gamma                98.272(2)
_cell_volume                     1725.8
loop_
_atom_site_label
_atom_site_type_symbol
_atom_site_fract_x
_atom_site_fract_y
_atom_site_fract_z
C1 C 0.5714(6) 0.3733(3) 0.9418(3)
C2 C 0.6959(6) 0.4372(3) 1.0068(3)
C3 C 0.7594(6) 0.5224(3) 0.9912(3)
H1 H 0.7248 0.5409 0.9387
C4 C 0.8735(6) 0.5797(3) 1.0531(3)
H2 H 0.9149 0.6370 1.0413
C5 C 0.8660(7) 0.4738(3) 1.1452(3)
H3 H 0.9020 0.4564 1.1982
C6 C 0.7509(7) 0.4134(3) 1.0852(3)
H4 H 0.7106 0.3563 1.0979
C7 C 0.1619(7) 0.3503(3) 0.5514(3)
H5 H 0.0999 0.2923 0.5383
C8 C 0.1598(7) 0.4069(3) 0.4884(3)
H6 H 0.0982 0.3867 0.4341
C9 C 0.2507(6) 0.4942(3) 0.5071(3)
C10 C 0.2524(6) 0.5562(3) 0.4431(3)
C11 C 0.3406(7) 0.5199(3) 0.5890(3)
H7 H 0.4028 0.5777 0.6040
C12 C 0.3377(7) 0.4592(3) 0.6488(3)
H8 H 0.3992 0.4773 0.7034
C13 C 0.6357(6) 0.9555(3) 0.4231(3)
H9 H 0.6011 0.9724 0.3698
C14 C 0.7489(6) 1.0159(3) 0.4823(3)
H10 H 0.7895 1.0725 0.4687
C15 C 0.8038(6) 0.9936(3) 0.5618(3)
C16 C 0.9271(6) 1.0574(3) 0.6262(3)
C17 C 0.7396(7) 0.9073(3) 0.5779(3)
H11 H 0.7738 0.8890 0.6306
C18 C 0.6266(7) 0.8499(3) 0.5161(3)
H12 H 0.5860 0.7926 0.5280
C19 C 0.2515(6) 0.8757(3) 0.1259(3)
C20 C 0.2502(6) 0.9374(3) 0.0620(3)
C21 C 0.1587(7) 0.9114(3) -0.0198(3)
H13 H 0.0973 0.8535 -0.0348
C22 C 0.1592(6) 0.9718(3) -0.0788(3)
H14 H 0.0958 0.9534 -0.1330
C23 C 0.3361(6) 1.0803(3) 0.0178(3)
H15 H 0.3982 1.1383 0.0310
C24 C 0.3400(6) 1.0242(3) 0.0798(3)
H16 H 0.4029 1.0445 0.1337
Cu1 Cu 0.24560(9) 0.13848(4) 0.85262(4)
Cu2 Cu 0.25453(8) 0.29169(4) 0.71555(3)
Cu3 Cu 0.10384(9) 0.63954(4) 0.21488(4)
Cu4 Cu 0.39910(9) 0.79042(4) 0.35241(4)
N1 N 0.3885(5) 0.2594(2) 0.8841(2)
N2 N 0.4062(5) 0.3181(2) 0.8274(2)
N3 N 0.5230(5) 0.3908(3) 0.8630(2)
N4 N 0.4925(5) 0.2937(2) 0.9571(2)
N5 N 0.9281(5) 0.5571(3) 1.1299(2)
N6 N 0.2495(5) 0.3757(3) 0.6302(2)
N7 N 0.1681(6) 0.5344(3) 0.3621(2)
N8 N 0.2019(5) 0.6100(3) 0.3265(2)
N9 N 0.3026(6) 0.6733(3) 0.3841(2)
N10 N 0.3339(5) 0.6399(3) 0.4575(2)
N11 N 0.5714(5) 0.8721(2) 0.4390(2)
N12 N 0.9843(5) 1.1409(2) 0.6148(2)
N13 N 1.0978(5) 1.1739(2) 0.6859(2)
N14 N 1.1071(5) 1.1101(2) 0.7378(2)
N15 N 1.0002(5) 1.0361(3) 0.7005(2)
N16 N 0.1890(5) 0.7597(3) 0.1865(2)
N17 N 0.1449(5) 0.7942(3) 0.1135(2)
N18 N 0.3581(5) 0.8924(3) 0.2020(2)
N19 N 0.3154(5) 0.8183(2) 0.2386(2)
N20 N 0.2464(5) 1.0553(3) -0.0615(2)
Cu1_2 Cu 0.24560(9) 1.13848(4) -0.14738(4)
Cu1_3 Cu 1.24560(9) 1.13848(4) 0.85262(4)
Cu2_2 Cu 1.25453(8) 1.29169(4) 0.71555(3)
Cu3_2 Cu 1.10384(9) 0.63954(4) 1.21488(4)
N5_2 N -0.0719(5) 0.5571(3) 0.1299(2)
N13_2 N 0.0978(5) 0.1739(2) 0.6859(2)
N14_2 N 0.1071(5) 0.1101(2) 0.7378(2)
N20_2 N 0.2464(5) 0.0553(3) 0.9385(2)
loop_
_geom_bond_atom_site_label_1
_geom_bond_atom_site_label_2
_geom_bond_site_symmetry_1
_geom_bond_site_symmetry_2
C1 C2 1_555 1_555
C2 C3 1_555 1_555
C3 H1 1_555 1_555
C4 C3 1_555 1_555
H2 C4 1_555 1_555
C5 H3 1_555 1_555
C6 C2 1_555 1_555
H4 C6 1_555 1_555
C7 H5 1_555 1_555
C8 C7 1_555 1_555
H6 C8 1_555 1_555
C9 C8 1_555 1_555
C10 C9 1_555 1_555
C11 C9 1_555 1_555
H7 C11 1_555 1_555
C12 C11 1_555 1_555
H8 C12 1_555 1_555
C13 H9 1_555 1_555
C14 C13 1_555 1_555
H10 C14 1_555 1_555
C15 C14 1_555 1_555
C16 C15 1_555 1_555
C17 C15 1_555 1_555
H11 C17 1_555 1_555
C18 C17 1_555 1_555
H12 C18 1_555 1_555
C19 C20 1_555 1_555
C20 C21 1_555 1_555
C21 H13 1_555 1_555
C22 C21 1_555 1_555
H14 C22 1_555 1_555
C23 H15 1_555 1_555
C24 C20 1_555 1_555
H16 C24 1_555 1_555
Cu1 N1 1_555 1_555
Cu2 N2 1_555 1_555
Cu3 N8 1_555 1_555
Cu4 N9 1_555 1_555
N1 N2 1_555 1_555
N2 N3 1_555 1_555
N3 C1 1_555 1_555
N4 C1 1_555 1_555
N5 C4 1_555 1_555
N6 C7 1_555 1_555
N7 C10 1_555 1_555
N8 N7 1_555 1_555
N9 N8 1_555 1_555
N10 C10 1_555 1_555
N11 C13 1_555 1_555
N12 C16 1_555 1_555
N13 N12 1_555 1_555
N14 N13 1_555 1_555
N15 C16 1_555 1_555
N16 Cu3 1_555 1_555
N17 C19 1_555 1_555
N18 C19 1_555 1_555
N19 Cu4 1_555 1_555
N20 C22 1_555 1_555
Cu1_2 N20 1_555 1_555
Cu1_3 N14 1_555 1_555
Cu2_2 N13 1_555 1_555
Cu3_2 N5 1_555 1_555
N5_2 Cu3 1_555 1_555
N13_2 Cu2 1_555 1_555
N14_2 Cu1 1_555 1_555
N20_2 Cu1 1_555 1_555
C5 C6 1_555 1_555
C5 N5 1_555 1_555
C12 N6 1_555 1_555
C18 N11 1_555 1_555
C23 C24 1_555 1_555
C23 N20 1_555 1_555
Cu2 N6 1_555 1_555
Cu4 N11 1_555 1_555
N1 N4 1_555 1_555
N9 N10 1_555 1_555
N14 N15 1_555 1_555
N16 N17 1_555 1_555
N16 N19 1_555 1_555
N18 N19 1_555 1_555
N13_2 N14_2 1_555 1_555

#END
