
#######################################################################
#
#                 Cambridge Crystallographic Data Centre
#                                CCDC 
#
#######################################################################
#
# If this CIF has been generated from an entry in the Cambridge 
# Structural Database, then it will include bibliographic, chemical, 
# crystal, experimental, refinement or atomic coordinate data resulting 
# from the CCDC's data processing and validation procedures.
#
#######################################################################

data_VULRAW01
_symmetry_cell_setting           triclinic
_symmetry_space_group_name_H-M   'P -1'
_symmetry_Int_Tables_number      2
_space_group_name_Hall           '-P 1'
loop_
_symmetry_equiv_pos_site_id
_symmetry_equiv_pos_as_xyz
1 x,y,z
2 -x,-y,-z
_cell_length_a                   7.0485(6)
_cell_length_b                   15.2337(8)
_cell_length_c                   16.0392(8)
_cell_angle_alpha                95.618(4)
_cell_angle_beta                 94.709(6)
_cell_angle_gamma                98.855(6)
_cell_volume                     1685.22
loop_
_atom_site_label
_atom_site_type_symbol
_atom_site_fract_x
_atom_site_fract_y
_atom_site_fract_z
Cu1 Cu 0.40475(15) 0.79476(6) 0.85101(5)
Cu2 Cu 0.10917(15) 0.63786(6) 0.71733(5)
Cu3 Cu 0.24186(15) 1.13852(6) 0.35209(5)
Cu4 Cu 0.26047(16) 0.29579(6) 1.21836(5)
N1 N 0.3218(10) 0.8212(4) 0.7385(3)
N2 N 0.3640(10) 0.8952(4) 0.7019(3)
N3 N 0.1522(9) 0.7936(4) 0.6151(3)
N4 N 0.1969(9) 0.7604(4) 0.6871(3)
N5 N -0.0707(10) 0.5578(4) 0.6328(3)
N6 N 0.2057(10) 0.6113(4) 0.8281(3)
N7 N 0.1715(10) 0.5361(4) 0.8659(3)
N8 N 0.3374(10) 0.6434(4) 0.9584(3)
N9 N 0.3046(10) 0.6756(4) 0.8835(3)
N10 N 0.5734(9) 0.8751(4) 0.9388(3)
N11 N 0.9969(10) 1.0366(4) 1.2018(3)
N12 N 1.1054(10) 1.1118(4) 1.2394(3)
N13 N 1.1028(9) 1.1759(4) 1.1878(3)
N14 N 0.9899(9) 1.1442(4) 1.1175(3)
N15 N 0.2474(9) 1.0571(4) 0.4389(3)
N16 N -0.4721(10) 0.3949(4) 0.3632(3)
N17 N -0.5909(10) 0.3207(4) 0.3281(3)
N18 N -0.6136(9) 0.2612(4) 0.3838(3)
N19 N -0.5110(9) 0.2944(4) 0.4572(3)
N20 N 0.2534(10) 0.3802(4) 1.1333(3)
C1 C 0.2562(11) 0.8763(5) 0.6269(4)
C2 C 0.2522(12) 0.9391(5) 0.5617(4)
C3 C 0.3401(11) 1.0278(5) 0.5799(4)
H1 H 0.4011 1.0497 0.6346
C4 C 0.3372(11) 1.0841(5) 0.5164(4)
H2 H 0.4015 1.1441 0.5285
C5 C 0.1604(12) 0.9699(5) 0.4235(4)
H3 H 0.0969 0.9497 0.3689
C6 C 0.1585(11) 0.9091(5) 0.4818(4)
H4 H 0.0956 0.8490 0.4679
C7 C -0.1185(12) 0.5836(5) 0.5562(4)
H5 H -0.0715 0.6428 0.5453
C8 C -0.2340(12) 0.5258(5) 0.4934(4)
H6 H -0.2654 0.5457 0.4405
C9 C -0.3032(11) 0.4395(5) 0.5079(4)
C10 C -0.4258(12) 0.3768(5) 0.4427(4)
C11 C -0.2598(12) 0.4142(5) 0.5871(4)
H7 H -0.3093 0.3560 0.6001
C12 C -0.1441(12) 0.4747(5) 0.6463(4)
H8 H -0.1143 0.4564 0.7001
C13 C 0.2545(11) 0.5577(5) 0.9444(4)
C14 C 0.2519(11) 0.4970(5) 1.0088(4)
C15 C 0.1677(12) 0.4083(5) 0.9926(4)
H9 H 0.1072 0.3856 0.9380
C16 C 0.1708(12) 0.3530(5) 1.0548(4)
H10 H 0.1116 0.2923 1.0417
C17 C 0.3353(11) 0.4677(5) 1.1504(4)
H11 H 0.3942 0.4889 1.2056
C18 C 0.3358(12) 0.5262(5) 1.0905(4)
H12 H 0.3936 0.5870 1.1048
C19 C 0.6236(11) 0.8517(5) 1.0156(4)
H13 H 0.5798 0.7922 1.0266
C20 C 0.7332(12) 0.9085(5) 1.0783(5)
H14 H 0.7601 0.8890 1.1319
C21 C 0.8057(11) 0.9951(5) 1.0635(4)
C22 C 0.9258(12) 1.0589(5) 1.1276(4)
C23 C 0.7549(12) 1.0218(5) 0.9855(4)
H15 H 0.7963 1.0812 0.9737
C24 C 0.6421(11) 0.9595(5) 0.9254(4)
H16 H 0.6115 0.9775 0.8715
Cu3_2 Cu -0.75814(15) 0.13852(6) 0.35209(5)
Cu3_3 Cu 1.24186(15) 1.13852(6) 1.35209(5)
Cu4_2 Cu -0.73953(16) 0.29579(6) 0.21836(5)
Cu4_3 Cu 1.26047(16) 1.29579(6) 1.21836(5)
N12_2 N 0.1054(10) 1.1118(4) 0.2394(3)
N13_2 N 0.1028(9) 0.1759(4) 1.1878(3)
N17_2 N 0.4091(10) 0.3207(4) 1.3281(3)
N18_2 N 0.3864(9) 1.2612(4) 0.3838(3)
C25 C 0.340(2) 0.7883(8) 0.2626(9)
H17 H 0.4825 0.8039 0.2661
H18 H 0.2992 0.8056 0.3187
C26 C 0.251(3) 0.8392(12) 0.1988(10)
H19 H 0.2806 0.8178 0.1425
H20 H 0.3026 0.9030 0.2114
H21 H 0.1105 0.8300 0.2007
O1 O 0.2866(14) 0.6972(5) 0.2416(5)
H22 H 0.1664 0.6836 0.2412
C27 C 0.7429(16) 0.6383(7) 0.2793(5)
H23 H 0.7176 0.5800 0.3022
H24 H 0.6213 0.6497 0.2502
C28 C 0.8203(18) 0.7132(7) 0.3502(6)
H25 H 0.9278 0.6962 0.3843
H26 H 0.7172 0.7230 0.3858
H27 H 0.8652 0.7683 0.3259
O2 O 0.8877(11) 0.6379(4) 0.2230(4)
H28 H 0.8507 0.5977 0.1828
loop_
_geom_bond_atom_site_label_1
_geom_bond_atom_site_label_2
_geom_bond_site_symmetry_1
_geom_bond_site_symmetry_2
Cu1 N1 1_555 1_555
Cu2 N4 1_555 1_555
Cu3 N15 1_555 1_555
Cu4 N20 1_555 1_555
N1 N2 1_555 1_555
N2 C1 1_555 1_555
N3 N4 1_555 1_555
N4 N1 1_555 1_555
N5 Cu2 1_555 1_555
N6 Cu2 1_555 1_555
N7 N6 1_555 1_555
N8 N9 1_555 1_555
N9 Cu1 1_555 1_555
N10 Cu1 1_555 1_555
N11 N12 1_555 1_555
N12 N13 1_555 1_555
N13 N14 1_555 1_555
N14 C22 1_555 1_555
N15 C4 1_555 1_555
N16 N17 1_555 1_555
N17 N18 1_555 1_555
N18 N19 1_555 1_555
N19 C10 1_555 1_555
N20 C16 1_555 1_555
C1 N3 1_555 1_555
C2 C1 1_555 1_555
C3 C2 1_555 1_555
H1 C3 1_555 1_555
C4 C3 1_555 1_555
H2 C4 1_555 1_555
C5 N15 1_555 1_555
H3 C5 1_555 1_555
C6 C2 1_555 1_555
H4 C6 1_555 1_555
C7 N5 1_555 1_555
H5 C7 1_555 1_555
C8 C7 1_555 1_555
H6 C8 1_555 1_555
C9 C8 1_555 1_555
C10 N16 1_555 1_555
C11 C9 1_555 1_555
H7 C11 1_555 1_555
C12 N5 1_555 1_555
H8 C12 1_555 1_555
C13 N7 1_555 1_555
C14 C13 1_555 1_555
C15 C14 1_555 1_555
H9 C15 1_555 1_555
C16 C15 1_555 1_555
H10 C16 1_555 1_555
C17 N20 1_555 1_555
H11 C17 1_555 1_555
C18 C14 1_555 1_555
H12 C18 1_555 1_555
C19 N10 1_555 1_555
H13 C19 1_555 1_555
C20 C19 1_555 1_555
H14 C20 1_555 1_555
C21 C20 1_555 1_555
C22 N11 1_555 1_555
C23 C21 1_555 1_555
H15 C23 1_555 1_555
C24 N10 1_555 1_555
H16 C24 1_555 1_555
C25 H17 1_555 1_555
H18 C25 1_555 1_555
C26 C25 1_555 1_555
H19 C26 1_555 1_555
H20 C26 1_555 1_555
H21 C26 1_555 1_555
O1 C25 1_555 1_555
H22 O1 1_555 1_555
C27 H23 1_555 1_555
H24 C27 1_555 1_555
C28 C27 1_555 1_555
H25 C28 1_555 1_555
H26 C28 1_555 1_555
H27 C28 1_555 1_555
O2 C27 1_555 1_555
H28 O2 1_555 1_555
Cu3_2 N18 1_555 1_555
Cu3_3 N12 1_555 1_555
Cu4_2 N17 1_555 1_555
Cu4_3 N13 1_555 1_555
N12_2 Cu3 1_555 1_555
N13_2 Cu4 1_555 1_555
N17_2 Cu4 1_555 1_555
N18_2 Cu3 1_555 1_555
N6 N9 1_555 1_555
N8 C13 1_555 1_555
C5 C6 1_555 1_555
C9 C10 1_555 1_555
C11 C12 1_555 1_555
C17 C18 1_555 1_555
C21 C22 1_555 1_555
C23 C24 1_555 1_555

#END
