
#######################################################################
#
#                 Cambridge Crystallographic Data Centre
#                                CCDC 
#
#######################################################################
#
# If this CIF has been generated from an entry in the Cambridge 
# Structural Database, then it will include bibliographic, chemical, 
# crystal, experimental, refinement or atomic coordinate data resulting 
# from the CCDC's data processing and validation procedures.
#
#######################################################################

data_VULREA
_symmetry_cell_setting           monoclinic
_symmetry_space_group_name_H-M   'P 21/c'
_symmetry_Int_Tables_number      14
_space_group_name_Hall           '-P 2ybc'
loop_
_symmetry_equiv_pos_site_id
_symmetry_equiv_pos_as_xyz
1 x,y,z
2 -x,1/2+y,1/2-z
3 -x,-y,-z
4 x,1/2-y,1/2+z
_cell_length_a                   7.8371(14)
_cell_length_b                   8.7545(15)
_cell_length_c                   10.1003(18)
_cell_angle_alpha                90
_cell_angle_beta                 100.605(3)
_cell_angle_gamma                90
_cell_volume                     681.144
loop_
_atom_site_label
_atom_site_type_symbol
_atom_site_fract_x
_atom_site_fract_y
_atom_site_fract_z
Mn1 Mn 0.33276(5) 0.49478(4) 0.17857(4)
P1 P 0.65587(8) 0.71053(7) 0.10274(6)
H1 H 0.7822 0.6996 0.1272
O1 O 0.5800(2) 0.5933(2) 0.18678(19)
O2 O 0.6162(3) 0.8754(2) 0.13592(19)
O3 O 0.6110(3) 0.6833(2) -0.04825(19)
O4 O 0.1750(2) 0.6261(2) 0.0089(2)
O5 O -0.0589(3) 0.5988(2) -0.1513(2)
O6 O 0.2993(3) 0.7110(2) 0.2988(2)
C1 C 0.0331(3) 0.5650(3) -0.0418(3)
H7 H 0.403(4) 0.751(6) 0.349(5)
H8 H 0.241(6) 0.760(6) 0.361(4)
Mn1B Mn -0.33276(5) 0.50522(4) -0.17857(4)
Mn1_2 Mn -0.66724(5) 0.49478(4) 0.17857(4)
Mn1A Mn 0.66724(5) 0.99478(4) 0.32143(4)
Mn1B_2 Mn 0.66724(5) 0.50522(4) -0.17857(4)
Mn1C Mn -0.66724(5) 0.00522(4) -0.32143(4)
P1B P -0.65587(8) 0.28947(7) -0.10274(6)
H1B H -0.7822 0.3004 -0.1272
O1B O -0.5800(2) 0.4067(2) -0.18678(19)
O2B O -0.6162(3) 0.1246(2) -0.13592(19)
O2A O 0.3838(3) 0.3754(2) 0.36408(19)
O2C O -0.3838(3) 0.6246(2) -0.36408(19)
O3B O -0.6110(3) 0.3167(2) 0.04825(19)
O3_2 O -0.3890(3) 0.6833(2) -0.04825(19)
O3B_2 O 0.3890(3) 0.3167(2) 0.04825(19)
O4B O -0.1750(2) 0.3739(2) -0.0089(2)
O5B O 0.0589(3) 0.4012(2) 0.1513(2)
O6B O -0.2993(3) 0.2890(2) -0.2988(2)
C1B C -0.0331(3) 0.4350(3) 0.0418(3)
H7B H -0.403(4) 0.249(6) -0.349(5)
H8B H -0.241(6) 0.240(6) -0.361(4)
N1 N 0.2379(3) 0.5303(3) 0.5749(2)
H2 H 0.3016 0.4991 0.6524
H3 H 0.2382 0.6319 0.5718
H4 H 0.2823 0.4931 0.5066
C2 C 0.0565(4) 0.4748(3) 0.5650(3)
H5 H 0.0090 0.5139 0.6405
H6 H 0.0566 0.3641 0.5699
N1B N -0.2379(3) 0.4697(3) 0.4251(2)
H2B H -0.3016 0.5009 0.3476
H3B H -0.2382 0.3681 0.4282
H4B H -0.2823 0.5069 0.4934
C2B C -0.0565(4) 0.5252(3) 0.4350(3)
H5B H -0.0090 0.4861 0.3595
H6B H -0.0566 0.6359 0.4301
loop_
_geom_bond_atom_site_label_1
_geom_bond_atom_site_label_2
_geom_bond_site_symmetry_1
_geom_bond_site_symmetry_2
Mn1 O1 1_555 1_555
P1 H1 1_555 1_555
O1 P1 1_555 1_555
O2 P1 1_555 1_555
O3 P1 1_555 1_555
O4 Mn1 1_555 1_555
O5 C1 1_555 1_555
O6 Mn1 1_555 1_555
C1 O4 1_555 1_555
N1 H2 1_555 1_555
H3 N1 1_555 1_555
H4 N1 1_555 1_555
C2 N1 1_555 1_555
H5 C2 1_555 1_555
H6 C2 1_555 1_555
H7 O6 1_555 1_555
H8 O6 1_555 1_555
Mn1B O5 1_555 1_555
Mn1_2 O3B 1_555 1_555
Mn1A O2 1_555 1_555
Mn1B_2 O3 1_555 1_555
Mn1C O2B 1_555 1_555
P1B H1B 1_555 1_555
O1B Mn1B 1_555 1_555
O2B P1B 1_555 1_555
O2A Mn1 1_555 1_555
O2C Mn1B 1_555 1_555
O3B P1B 1_555 1_555
O3_2 Mn1B 1_555 1_555
O3B_2 Mn1 1_555 1_555
O4B Mn1B 1_555 1_555
O5B Mn1 1_555 1_555
O6B Mn1B 1_555 1_555
C1B C1 1_555 1_555
N1B H2B 1_555 1_555
H3B N1B 1_555 1_555
H4B N1B 1_555 1_555
C2B C2 1_555 1_555
H5B C2B 1_555 1_555
H6B C2B 1_555 1_555
H7B O6B 1_555 1_555
H8B O6B 1_555 1_555
P1B O1B 1_555 1_555
O4B C1B 1_555 1_555
O5B C1B 1_555 1_555
N1B C2B 1_555 1_555

#END
