
#######################################################################
#
#                 Cambridge Crystallographic Data Centre
#                                CCDC 
#
#######################################################################
#
# If this CIF has been generated from an entry in the Cambridge 
# Structural Database, then it will include bibliographic, chemical, 
# crystal, experimental, refinement or atomic coordinate data resulting 
# from the CCDC's data processing and validation procedures.
#
#######################################################################

data_VULSEB
_symmetry_cell_setting           monoclinic
_symmetry_space_group_name_H-M   'C 2/c'
_symmetry_Int_Tables_number      15
_space_group_name_Hall           '-C 2yn'
loop_
_symmetry_equiv_pos_site_id
_symmetry_equiv_pos_as_xyz
1 x,y,z
2 -x,y,1/2-z
3 1/2+x,1/2+y,z
4 1/2-x,1/2+y,1/2-z
5 -x,-y,-z
6 x,-y,1/2+z
7 1/2-x,1/2-y,-z
8 1/2+x,1/2-y,1/2+z
_cell_length_a                   15.3556(9)
_cell_length_b                   15.9303(9)
_cell_length_c                   18.8663(14)
_cell_angle_alpha                90
_cell_angle_beta                 109.3740(10)
_cell_angle_gamma                90
_cell_volume                     4353.73
loop_
_atom_site_label
_atom_site_type_symbol
_atom_site_fract_x
_atom_site_fract_y
_atom_site_fract_z
Mn1 Mn 0.08363(2) 0.369015(18) 0.185547(15)
O1 O 0.14994(10) 0.44733(9) 0.27888(7)
O2 O 0.05247(11) 0.41323(10) 0.33823(8)
O3 O 0.07546(10) 0.57119(10) 0.57551(8)
O4 O 0.21115(10) 0.61780(9) 0.64448(7)
C1 C 0.12165(14) 0.45127(12) 0.33442(10)
C2 C 0.17714(14) 0.50229(11) 0.40126(10)
C3 C 0.14456(14) 0.51647(11) 0.46120(10)
H1 H 0.0891 0.4926 0.4608
C4 C 0.19491(14) 0.56621(12) 0.52131(10)
C5 C 0.15798(14) 0.58566(12) 0.58408(10)
C6 C 0.27808(15) 0.60100(14) 0.52229(12)
H2 H 0.3121 0.6339 0.5627
C7 C 0.31062(16) 0.58678(16) 0.46300(12)
H3 H 0.3666 0.6098 0.4639
C8 C 0.26001(15) 0.53869(14) 0.40286(11)
H4 H 0.2815 0.5304 0.3628
C9 C -0.04932(17) 0.25427(14) 0.05326(12)
H5 H -0.0683 0.3061 0.0308
C10 C -0.08931(18) 0.18241(14) 0.01459(12)
H6 H -0.1339 0.1866 -0.0327
C11 C -0.06299(16) 0.10567(14) 0.04622(12)
H7 H -0.0889 0.0570 0.0206
C12 C 0.00373(14) 0.10116(12) 0.11788(11)
C13 C 0.03855(14) 0.02432(12) 0.15663(11)
C14 C 0.06842(14) -0.10415(13) 0.18697(11)
C15 C 0.06720(15) -0.19619(13) 0.18537(11)
C16 C 0.01201(17) -0.23661(14) 0.12126(13)
H8 H -0.0243 -0.2051 0.0807
C17 C 0.0102(2) -0.32323(15) 0.11691(15)
H9 H -0.0261 -0.3498 0.0732
C18 C 0.0620(2) -0.36976(15) 0.17694(16)
H10 H 0.0605 -0.4280 0.1740
C19 C 0.1162(2) -0.33121(15) 0.24154(15)
H11 H 0.1506 -0.3634 0.2824
C20 C 0.11980(17) -0.24428(14) 0.24606(13)
H12 H 0.1573 -0.2182 0.2896
C21 C 0.10565(14) 0.02522(12) 0.22635(11)
C22 C 0.14301(14) 0.10022(12) 0.26551(11)
C23 C 0.20776(17) 0.10465(14) 0.33829(12)
H13 H 0.2305 0.0559 0.3652
C24 C 0.23668(18) 0.18123(14) 0.36882(12)
H14 H 0.2791 0.1852 0.4171
C25 C 0.20268(17) 0.25347(14) 0.32778(12)
H15 H 0.2243 0.3051 0.3495
C26 C 0.11041(13) 0.17636(12) 0.22800(10)
C27 C 0.04113(13) 0.17668(12) 0.15357(10)
N1 N 0.01501(12) 0.25258(10) 0.12106(9)
N2 N 0.14101(12) 0.25271(10) 0.25917(9)
N3 N 0.01511(12) -0.05663(10) 0.13184(9)
N4 N 0.12404(13) -0.05780(11) 0.24535(10)
H16 H 0.1674(17) -0.0727(15) 0.2811(14)
Mn1A Mn -0.08363(2) 0.369015(18) 0.314453(15)
Mn1E Mn 0.08363(2) 0.630985(18) 0.685547(15)
O2A O -0.05247(11) 0.41323(10) 0.16177(8)
O3E O 0.07546(10) 0.42881(10) 0.07551(8)
O4E O 0.21115(10) 0.38220(9) 0.14448(7)
loop_
_geom_bond_atom_site_label_1
_geom_bond_atom_site_label_2
_geom_bond_site_symmetry_1
_geom_bond_site_symmetry_2
Mn1 O1 1_555 1_555
O1 C1 1_555 1_555
O2 C1 1_555 1_555
O3 C5 1_555 1_555
O4 C5 1_555 1_555
C1 C2 1_555 1_555
C2 C3 1_555 1_555
C3 H1 1_555 1_555
C4 C3 1_555 1_555
C5 C4 1_555 1_555
C6 C4 1_555 1_555
H2 C6 1_555 1_555
C7 C6 1_555 1_555
H3 C7 1_555 1_555
C8 C2 1_555 1_555
H4 C8 1_555 1_555
C9 H5 1_555 1_555
C10 C9 1_555 1_555
H6 C10 1_555 1_555
C11 C10 1_555 1_555
H7 C11 1_555 1_555
C12 C11 1_555 1_555
C13 C12 1_555 1_555
C14 C15 1_555 1_555
C15 C16 1_555 1_555
C16 H8 1_555 1_555
C17 C16 1_555 1_555
H9 C17 1_555 1_555
C18 C17 1_555 1_555
H10 C18 1_555 1_555
C19 C18 1_555 1_555
H11 C19 1_555 1_555
C20 C15 1_555 1_555
H12 C20 1_555 1_555
C21 C13 1_555 1_555
C22 C21 1_555 1_555
C23 C22 1_555 1_555
H13 C23 1_555 1_555
C24 C23 1_555 1_555
H14 C24 1_555 1_555
C25 C24 1_555 1_555
H15 C25 1_555 1_555
C26 C22 1_555 1_555
C27 C12 1_555 1_555
N1 Mn1 1_555 1_555
N2 Mn1 1_555 1_555
N3 C13 1_555 1_555
N4 C14 1_555 1_555
H16 N4 1_555 1_555
Mn1A O2 1_555 1_555
Mn1E O3 1_555 1_555
O2A Mn1 1_555 1_555
O3E Mn1 1_555 1_555
O4E Mn1 1_555 1_555
O4 Mn1E 1_555 1_555
C7 C8 1_555 1_555
C9 N1 1_555 1_555
C14 N3 1_555 1_555
C19 C20 1_555 1_555
C21 N4 1_555 1_555
C25 N2 1_555 1_555
C26 C27 1_555 1_555
C26 N2 1_555 1_555
C27 N1 1_555 1_555

#END
