
#######################################################################
#
#                 Cambridge Crystallographic Data Centre
#                                CCDC 
#
#######################################################################
#
# If this CIF has been generated from an entry in the Cambridge 
# Structural Database, then it will include bibliographic, chemical, 
# crystal, experimental, refinement or atomic coordinate data resulting 
# from the CCDC's data processing and validation procedures.
#
#######################################################################

data_VULSIF
_symmetry_cell_setting           monoclinic
_symmetry_space_group_name_H-M   'P 2/n'
_symmetry_Int_Tables_number      13
_space_group_name_Hall           '-P 2yac'
loop_
_symmetry_equiv_pos_site_id
_symmetry_equiv_pos_as_xyz
1 x,y,z
2 1/2-x,y,1/2-z
3 -x,-y,-z
4 1/2+x,-y,1/2+z
_cell_length_a                   12.716(2)
_cell_length_b                   11.6747(18)
_cell_length_c                   14.079(2)
_cell_angle_alpha                90
_cell_angle_beta                 90.754(3)
_cell_angle_gamma                90
_cell_volume                     2089.92
loop_
_atom_site_label
_atom_site_type_symbol
_atom_site_fract_x
_atom_site_fract_y
_atom_site_fract_z
Mn1 Mn -0.2500 0.40182(6) 0.2500
O1 O -0.2241(2) 0.27136(19) 0.42288(19)
O3 O -0.35339(19) 0.28223(18) 0.31558(18)
C1 C -0.3112(3) 0.2402(3) 0.3896(3)
C2 C -0.3748(3) 0.0102(3) 0.5697(3)
H1 H -0.345(3) -0.033(3) 0.632(2)
C3 C -0.3241(3) 0.0952(3) 0.5219(3)
H2 H -0.249(3) 0.123(3) 0.547(2)
C4 C -0.3702(3) 0.1469(3) 0.4411(2)
C5 C -0.4665(3) 0.1116(3) 0.4099(3)
H3 H -0.4997(19) 0.1463(19) 0.3520(18)
C6 C -0.5237(3) 0.0256(3) 0.4594(2)
C7 C 0.0029(3) 0.4382(3) 0.3052(3)
H4 H 0.007(2) 0.370(2) 0.2619(19)
C8 C 0.0927(3) 0.4924(3) 0.3423(3)
H5 H 0.161(2) 0.466(2) 0.322(2)
C9 C 0.0817(3) 0.5826(3) 0.4030(3)
H6 H 0.141(3) 0.624(2) 0.430(2)
C10 C -0.0193(3) 0.6193(3) 0.4272(2)
C11 C -0.1064(3) 0.5605(3) 0.3865(2)
C12 C -0.0436(3) 0.7101(3) 0.4908(2)
C13 C -0.1439(3) 0.7391(3) 0.5160(2)
C14 C -0.2132(3) 0.5921(3) 0.4108(2)
C15 C -0.2334(3) 0.6787(3) 0.4777(2)
C16 C -0.3377(3) 0.7007(3) 0.5029(3)
H7 H -0.3532 0.7574 0.5471
C17 C -0.4162(3) 0.6378(3) 0.4617(3)
H8 H -0.4859 0.6498 0.4782
C18 C -0.3905(3) 0.5556(3) 0.3945(3)
H9 H -0.444(2) 0.514(2) 0.361(2)
C19 C -0.0436(3) 0.8589(3) 0.5867(3)
C20 C -0.0048(3) 0.9606(3) 0.6381(3)
C21 C 0.1000(4) 0.9913(4) 0.6367(3)
H10 H 0.1481 0.9445 0.6061
C22 C 0.1342(4) 1.0910(4) 0.6804(4)
H11 H 0.2047 1.1121 0.6777
C23 C 0.0640(6) 1.1583(4) 0.7275(4)
H12 H 0.098(3) 1.227(3) 0.761(3)
C24 C -0.0399(5) 1.1308(4) 0.7282(3)
H13 H -0.0874 1.1780 0.7591
C25 C -0.0750(4) 1.0315(3) 0.6824(3)
H14 H -0.1462 1.0133 0.6820
N1 N -0.2927(2) 0.5332(2) 0.36730(19)
N2 N -0.0944(2) 0.4720(2) 0.32509(19)
N3 N -0.1446(2) 0.8315(2) 0.5772(2)
N4 N 0.0209(3) 0.7873(2) 0.5374(2)
H15 H 0.095(3) 0.781(3) 0.539(2)
Mn1B Mn -0.7500 -0.40182(6) 0.7500
O1B O -0.7759(2) -0.27136(19) 0.57712(19)
O3B O -0.64661(19) -0.28223(18) 0.68442(18)
O3A O -0.14661(19) 0.28223(18) 0.18442(18)
C1B C -0.6888(3) -0.2402(3) 0.6104(3)
C2B C -0.6252(3) -0.0102(3) 0.4303(3)
H1B H -0.655(3) 0.033(3) 0.368(2)
C3B C -0.6759(3) -0.0952(3) 0.4781(3)
H2B H -0.751(3) -0.123(3) 0.453(2)
C4B C -0.6298(3) -0.1469(3) 0.5589(2)
C5B C -0.5335(3) -0.1116(3) 0.5901(3)
H3B H -0.5003(19) -0.1463(19) 0.6480(18)
C6B C -0.4763(3) -0.0256(3) 0.5406(2)
C7A C -0.5029(3) 0.4382(3) 0.1948(3)
H4A H -0.507(2) 0.370(2) 0.2381(19)
C8A C -0.5927(3) 0.4924(3) 0.1577(3)
H5A H -0.661(2) 0.466(2) 0.178(2)
C9A C -0.5817(3) 0.5826(3) 0.0970(3)
H6A H -0.641(3) 0.624(2) 0.070(2)
C10A C -0.4807(3) 0.6193(3) 0.0728(2)
C11A C -0.3936(3) 0.5605(3) 0.1135(2)
C12A C -0.4564(3) 0.7101(3) 0.0092(2)
C13A C -0.3561(3) 0.7391(3) -0.0160(2)
C14A C -0.2868(3) 0.5921(3) 0.0892(2)
C15A C -0.2666(3) 0.6787(3) 0.0223(2)
C16A C -0.1623(3) 0.7007(3) -0.0029(3)
H7A H -0.1468 0.7574 -0.0471
C17A C -0.0838(3) 0.6378(3) 0.0383(3)
H8A H -0.0141 0.6498 0.0218
C18A C -0.1095(3) 0.5556(3) 0.1055(3)
H9A H -0.056(2) 0.514(2) 0.139(2)
C19A C -0.4564(3) 0.8589(3) -0.0867(3)
C20A C -0.4952(3) 0.9606(3) -0.1381(3)
C21A C -0.6000(4) 0.9913(4) -0.1367(3)
H10A H -0.6481 0.9445 -0.1061
C22A C -0.6342(4) 1.0910(4) -0.1804(4)
H11A H -0.7047 1.1121 -0.1777
C23A C -0.5640(6) 1.1583(4) -0.2275(4)
H12A H -0.598(3) 1.227(3) -0.261(3)
C24A C -0.4601(5) 1.1308(4) -0.2282(3)
H13A H -0.4126 1.1780 -0.2591
C25A C -0.4250(4) 1.0315(3) -0.1824(3)
H14A H -0.3538 1.0133 -0.1820
N1A N -0.2073(2) 0.5332(2) 0.13270(19)
N2A N -0.4056(2) 0.4720(2) 0.17491(19)
N3A N -0.3554(2) 0.8315(2) -0.0772(2)
N4A N -0.5209(3) 0.7873(2) -0.0374(2)
H15A H -0.595(3) 0.781(3) -0.039(2)
O2 O -0.2500 0.7415(4) 0.7500
loop_
_geom_bond_atom_site_label_1
_geom_bond_atom_site_label_2
_geom_bond_site_symmetry_1
_geom_bond_site_symmetry_2
Mn1 O3 1_555 1_555
O1 C1 1_555 1_555
O3 C1 1_555 1_555
C1 C4 1_555 1_555
C2 H1 1_555 1_555
C3 C2 1_555 1_555
H2 C3 1_555 1_555
C4 C3 1_555 1_555
C5 C4 1_555 1_555
H3 C5 1_555 1_555
C6 C5 1_555 1_555
C7 H4 1_555 1_555
C8 C7 1_555 1_555
H5 C8 1_555 1_555
C9 C8 1_555 1_555
H6 C9 1_555 1_555
C10 C9 1_555 1_555
C11 C10 1_555 1_555
C12 C10 1_555 1_555
C13 C12 1_555 1_555
C14 C11 1_555 1_555
C15 C13 1_555 1_555
C16 C15 1_555 1_555
H7 C16 1_555 1_555
C17 C16 1_555 1_555
H8 C17 1_555 1_555
C18 C17 1_555 1_555
H9 C18 1_555 1_555
C19 C20 1_555 1_555
C20 C21 1_555 1_555
C21 H10 1_555 1_555
C22 C21 1_555 1_555
H11 C22 1_555 1_555
C23 C22 1_555 1_555
H12 C23 1_555 1_555
C24 C23 1_555 1_555
H13 C24 1_555 1_555
C25 C20 1_555 1_555
H14 C25 1_555 1_555
N1 Mn1 1_555 1_555
N2 Mn1 1_555 1_555
N3 C13 1_555 1_555
N4 C12 1_555 1_555
H15 N4 1_555 1_555
Mn1B O3B 1_555 1_555
O1B C1B 1_555 1_555
O3B C1B 1_555 1_555
O3A Mn1 1_555 1_555
C1B C4B 1_555 1_555
C2B C6 1_555 1_555
H1B C2B 1_555 1_555
C3B C2B 1_555 1_555
H2B C3B 1_555 1_555
C4B C3B 1_555 1_555
C5B C4B 1_555 1_555
H3B C5B 1_555 1_555
C6B C2 1_555 1_555
C7A H4A 1_555 1_555
C8A C7A 1_555 1_555
H5A C8A 1_555 1_555
C9A C8A 1_555 1_555
H6A C9A 1_555 1_555
C10A C9A 1_555 1_555
C11A C10A 1_555 1_555
C12A C10A 1_555 1_555
C13A C12A 1_555 1_555
C14A C11A 1_555 1_555
C15A C13A 1_555 1_555
C16A C15A 1_555 1_555
H7A C16A 1_555 1_555
C17A C16A 1_555 1_555
H8A C17A 1_555 1_555
C18A C17A 1_555 1_555
H9A C18A 1_555 1_555
C19A C20A 1_555 1_555
C20A C21A 1_555 1_555
C21A H10A 1_555 1_555
C22A C21A 1_555 1_555
H11A C22A 1_555 1_555
C23A C22A 1_555 1_555
H12A C23A 1_555 1_555
C24A C23A 1_555 1_555
H13A C24A 1_555 1_555
C25A C20A 1_555 1_555
H14A C25A 1_555 1_555
N1A Mn1 1_555 1_555
N2A Mn1 1_555 1_555
N3A C13A 1_555 1_555
N4A C12A 1_555 1_555
H15A N4A 1_555 1_555
C6 C6B 1_555 1_555
C7 N2 1_555 1_555
C11 N2 1_555 1_555
C14 C15 1_555 1_555
C14 N1 1_555 1_555
C18 N1 1_555 1_555
C19 N3 1_555 1_555
C19 N4 1_555 1_555
C24 C25 1_555 1_555
C5B C6B 1_555 1_555
C7A N2A 1_555 1_555
C11A N2A 1_555 1_555
C14A C15A 1_555 1_555
C14A N1A 1_555 1_555
C18A N1A 1_555 1_555
C19A N3A 1_555 1_555
C19A N4A 1_555 1_555
C24A C25A 1_555 1_555

#END
