
#######################################################################
#
#                 Cambridge Crystallographic Data Centre
#                                CCDC 
#
#######################################################################
#
# If this CIF has been generated from an entry in the Cambridge 
# Structural Database, then it will include bibliographic, chemical, 
# crystal, experimental, refinement or atomic coordinate data resulting 
# from the CCDC's data processing and validation procedures.
#
#######################################################################

data_VULSUS
_symmetry_cell_setting           monoclinic
_symmetry_space_group_name_H-M   'P 21/n'
_symmetry_Int_Tables_number      14
_space_group_name_Hall           '-P 2yn'
loop_
_symmetry_equiv_pos_site_id
_symmetry_equiv_pos_as_xyz
1 x,y,z
2 1/2-x,1/2+y,1/2-z
3 -x,-y,-z
4 1/2+x,1/2-y,1/2+z
_cell_length_a                   15.9354(12)
_cell_length_b                   10.0723(8)
_cell_length_c                   17.0026(13)
_cell_angle_alpha                90
_cell_angle_beta                 91.0010(10)
_cell_angle_gamma                90
_cell_volume                     2728.61
loop_
_atom_site_label
_atom_site_type_symbol
_atom_site_fract_x
_atom_site_fract_y
_atom_site_fract_z
Sn1 Sn 0.285277(14) 0.26880(2) 0.236054(14)
Fe1 Fe 0.54988(3) 0.64372(5) 0.19115(3)
O1 O 0.37609(16) 0.4074(2) 0.19345(17)
O2 O 0.30977(16) 0.5874(3) 0.23462(15)
C1 C 0.3629(2) 0.1021(4) 0.2077(3)
H1 H 0.3587 0.0389 0.2505
H2 H 0.3383 0.0601 0.1614
C2 C 0.4546(2) 0.1217(4) 0.1923(3)
C3 C 0.5136(3) 0.1066(6) 0.2512(3)
H3 H 0.4967 0.0868 0.3019
C4 C 0.5978(3) 0.1204(7) 0.2357(4)
H4 H 0.6370 0.1104 0.2764
C5 C 0.6247(3) 0.1481(6) 0.1622(4)
H5 H 0.6817 0.1581 0.1526
C6 C 0.5674(3) 0.1611(5) 0.1030(4)
H6 H 0.5850 0.1785 0.0521
C7 C 0.4827(3) 0.1487(5) 0.1178(3)
H7 H 0.4439 0.1587 0.0767
C8 C 0.3676(2) 0.5339(3) 0.1981(2)
C9 C 0.4300(2) 0.6113(3) 0.1555(2)
C10 C 0.6233(5) 0.5030(7) 0.2407(5)
H8 H 0.6272 0.4152 0.2242
C11 C 0.5671(4) 0.5541(8) 0.2961(4)
H9 H 0.5264 0.5063 0.3225
C12 C 0.5831(4) 0.6845(8) 0.3040(3)
H10 H 0.5554 0.7419 0.3377
C13 C 0.6475(4) 0.7207(7) 0.2540(4)
H11 H 0.6697 0.8054 0.2482
C14 C 0.6720(4) 0.6091(9) 0.2151(4)
H12 H 0.7140 0.6046 0.1780
C15 C 0.5369(3) 0.6621(5) 0.0723(2)
H13 H 0.5789 0.6548 0.0353
C16 C 0.4875(2) 0.5570(4) 0.1007(2)
H14 H 0.4917 0.4682 0.0863
C17 C 0.5118(3) 0.7803(4) 0.1096(3)
H15 H 0.5348 0.8640 0.1016
C18 C 0.4460(2) 0.7505(3) 0.1612(3)
H16 H 0.4181 0.8105 0.1931
C19 C 0.1912(2) 0.3251(4) 0.1496(2)
H17 H 0.1363 0.3212 0.1732
H18 H 0.2011 0.4159 0.1333
C20 C 0.1919(2) 0.2369(4) 0.0790(2)
C21 C 0.2590(3) 0.2371(6) 0.0283(3)
H19 H 0.3035 0.2950 0.0380
C22 C 0.2616(4) 0.1546(7) -0.0356(3)
H20 H 0.3082 0.1559 -0.0676
C23 C 0.1971(4) 0.0709(6) -0.0528(3)
H21 H 0.1982 0.0172 -0.0972
C24 C 0.1312(3) 0.0677(6) -0.0036(3)
H22 H 0.0871 0.0093 -0.0138
C25 C 0.1282(3) 0.1495(5) 0.0614(3)
H23 H 0.0820 0.1453 0.0940
C26 C 0.2812(3) 0.3346(4) 0.3562(2)
H24 H 0.3137 0.4157 0.3607
H25 H 0.2235 0.3567 0.3679
C27 C 0.3124(3) 0.2408(4) 0.4175(2)
C28 C 0.3976(4) 0.2228(6) 0.4315(4)
H26 H 0.4362 0.2676 0.4008
C29 C 0.4260(5) 0.1385(8) 0.4911(5)
H27 H 0.4832 0.1287 0.5016
C30 C 0.3698(6) 0.0719(8) 0.5329(4)
H28 H 0.3893 0.0133 0.5714
C31 C 0.2861(6) 0.0852(7) 0.5222(4)
H29 H 0.2486 0.0388 0.5532
C32 C 0.2578(4) 0.1703(6) 0.4634(3)
H30 H 0.2003 0.1801 0.4547
Sn1A Sn 0.214723(14) 0.76880(2) 0.263946(14)
O2A O 0.19023(16) 0.0874(3) 0.26538(15)
loop_
_geom_bond_atom_site_label_1
_geom_bond_atom_site_label_2
_geom_bond_site_symmetry_1
_geom_bond_site_symmetry_2
Sn1 O1 1_555 1_555
Fe1 C9 1_555 1_555
O1 C8 1_555 1_555
O2 C8 1_555 1_555
C1 Sn1 1_555 1_555
H1 C1 1_555 1_555
H2 C1 1_555 1_555
C2 C1 1_555 1_555
C3 C2 1_555 1_555
H3 C3 1_555 1_555
C4 C3 1_555 1_555
H4 C4 1_555 1_555
C5 C4 1_555 1_555
H5 C5 1_555 1_555
C6 C5 1_555 1_555
H6 C6 1_555 1_555
C7 C2 1_555 1_555
H7 C7 1_555 1_555
C8 C9 1_555 1_555
C9 C16 1_555 1_555
C10 Fe1 1_555 1_555
H8 C10 1_555 1_555
C11 Fe1 1_555 1_555
H9 C11 1_555 1_555
C12 Fe1 1_555 1_555
H10 C12 1_555 1_555
C13 Fe1 1_555 1_555
H11 C13 1_555 1_555
C14 Fe1 1_555 1_555
H12 C14 1_555 1_555
C15 Fe1 1_555 1_555
H13 C15 1_555 1_555
C16 Fe1 1_555 1_555
H14 C16 1_555 1_555
C17 Fe1 1_555 1_555
H15 C17 1_555 1_555
C18 Fe1 1_555 1_555
H16 C18 1_555 1_555
C19 Sn1 1_555 1_555
H17 C19 1_555 1_555
H18 C19 1_555 1_555
C20 C19 1_555 1_555
C21 C20 1_555 1_555
H19 C21 1_555 1_555
C22 C21 1_555 1_555
H20 C22 1_555 1_555
C23 C22 1_555 1_555
H21 C23 1_555 1_555
C24 C23 1_555 1_555
H22 C24 1_555 1_555
C25 C20 1_555 1_555
H23 C25 1_555 1_555
C26 Sn1 1_555 1_555
H24 C26 1_555 1_555
H25 C26 1_555 1_555
C27 C26 1_555 1_555
C28 C27 1_555 1_555
H26 C28 1_555 1_555
C29 C28 1_555 1_555
H27 C29 1_555 1_555
C30 C29 1_555 1_555
H28 C30 1_555 1_555
C31 C30 1_555 1_555
H29 C31 1_555 1_555
C32 C27 1_555 1_555
H30 C32 1_555 1_555
Sn1A O2 1_555 1_555
O2A Sn1 1_555 1_555
C6 C7 1_555 1_555
C9 C18 1_555 1_555
C10 C11 1_555 1_555
C10 C14 1_555 1_555
C11 C12 1_555 1_555
C12 C13 1_555 1_555
C13 C14 1_555 1_555
C15 C16 1_555 1_555
C15 C17 1_555 1_555
C17 C18 1_555 1_555
C24 C25 1_555 1_555
C31 C32 1_555 1_555

#END
