
#######################################################################
#
#                 Cambridge Crystallographic Data Centre
#                                CCDC 
#
#######################################################################
#
# If this CIF has been generated from an entry in the Cambridge 
# Structural Database, then it will include bibliographic, chemical, 
# crystal, experimental, refinement or atomic coordinate data resulting 
# from the CCDC's data processing and validation procedures.
#
#######################################################################

data_VUMBIP
_symmetry_cell_setting           tetragonal
_symmetry_space_group_name_H-M   'P 41 21 2'
_symmetry_Int_Tables_number      92
_space_group_name_Hall           'P 4abw 2nw'
loop_
_symmetry_equiv_pos_site_id
_symmetry_equiv_pos_as_xyz
1 x,y,z
2 1/2-y,1/2+x,1/4+z
3 -x,-y,1/2+z
4 1/2+y,1/2-x,3/4+z
5 1/2+x,1/2-y,3/4-z
6 1/2-x,1/2+y,1/4-z
7 y,x,-z
8 -y,-x,1/2-z
_cell_length_a                   28.7749(3)
_cell_length_b                   28.7749(3)
_cell_length_c                   24.4911(6)
_cell_angle_alpha                90
_cell_angle_beta                 90
_cell_angle_gamma                90
_cell_volume                     20278.5
loop_
_atom_site_label
_atom_site_type_symbol
_atom_site_fract_x
_atom_site_fract_y
_atom_site_fract_z
Ag1 Ag -0.24680(3) 0.32463(3) -0.27344(3)
N1 N -0.19794(19) 0.26952(15) -0.2895(2)
C1 C -0.1519(2) 0.27301(15) -0.2728(2)
H1 H -0.1416 0.2997 -0.2552
C2 C -0.12128(15) 0.23655(18) -0.2823(2)
H2 H -0.0905 0.2389 -0.2711
C3 C -0.13669(16) 0.19659(15) -0.3086(2)
C4 C -0.18272(17) 0.19309(15) -0.3253(2)
H3 H -0.1930 0.1664 -0.3429
C5 C -0.21335(14) 0.22956(18) -0.3157(2)
H4 H -0.2441 0.2272 -0.3269
C6 C 0.0048(3) 0.1112(4) -0.2457(4)
H5 H 0.0016 0.1349 -0.2184
H6 H 0.0342 0.1146 -0.2638
H7 H 0.0033 0.0811 -0.2287
C7 C -0.10207(16) 0.15657(15) -0.3187(2)
C8 C -0.10532(15) 0.12641(17) -0.36292(18)
C9 C -0.07301(17) 0.09090(16) -0.36919(18)
C10 C -0.03746(16) 0.08554(17) -0.3313(2)
C11 C -0.03421(16) 0.11569(19) -0.28711(18)
C12 C -0.06652(18) 0.15121(17) -0.28083(18)
H8 H -0.0644 0.1714 -0.2513
C13 C -0.0035(3) 0.0457(4) -0.3369(4)
H9 H 0.0188 0.0471 -0.3079
H10 H 0.0122 0.0480 -0.3714
H11 H -0.0201 0.0168 -0.3351
C14 C -0.1306(4) 0.1620(3) -0.4456(4)
H12 H -0.1568 0.1630 -0.4699
H13 H -0.1038 0.1512 -0.4651
H14 H -0.1247 0.1926 -0.4316
C15 C -0.07542(15) 0.06203(15) -0.41994(15)
C16 C -0.10664(16) 0.02519(16) -0.42160(17)
C17 C -0.10931(16) -0.00271(14) -0.4678(2)
C18 C -0.08077(19) 0.00623(17) -0.51239(17)
H15 H -0.0826 -0.0124 -0.5433
C19 C -0.04956(17) 0.04307(17) -0.51073(15)
C20 C -0.04688(14) 0.07097(13) -0.46451(16)
C21 C -0.0113(2) 0.1096(2) -0.4626(3)
H16 H 0.0052 0.1107 -0.4966
H17 H 0.0102 0.1039 -0.4334
H18 H -0.0268 0.1387 -0.4566
C22 C -0.0218(4) 0.0533(4) -0.5617(4)
H19 H -0.0017 0.0793 -0.5551
H20 H -0.0427 0.0605 -0.5911
H21 H -0.0036 0.0265 -0.5711
C23 C -0.1827(3) 0.0297(4) -0.3834(4)
H22 H -0.1989 0.0235 -0.3500
H23 H -0.1956 0.0113 -0.4122
H24 H -0.1857 0.0621 -0.3923
C24 C -0.1427(2) -0.04465(17) -0.4696(2)
C25 C -0.1474(2) -0.0746(2) -0.4253(2)
H25 H -0.1301 -0.0695 -0.3938
C26 C -0.1778(2) -0.11199(19) -0.4283(2)
H26 H -0.1809 -0.1320 -0.3987
N2 N -0.2036(2) -0.11952(17) -0.4755(2)
C27 C -0.1989(2) -0.08961(19) -0.51971(18)
H27 H -0.2162 -0.0947 -0.5513
C28 C -0.1685(2) -0.05218(18) -0.51676(19)
H28 H -0.1654 -0.0322 -0.5464
O1 O -0.14037(19) 0.13119(19) -0.4014(2)
O2 O -0.1343(2) 0.0184(2) -0.3768(2)
Ag1E Ag -0.25320(3) -0.17537(3) -0.47656(3)
N2E N -0.2964(2) 0.38048(17) -0.2745(2)
Ag2 Ag -0.18594(3) 0.40461(3) -0.33041(3)
C29 C -0.0853(4) 0.2040(4) -0.6137(4)
H29 H -0.0878 0.1806 -0.6414
H30 H -0.0633 0.1942 -0.5866
H31 H -0.0749 0.2326 -0.6299
N3 N -0.1848(2) 0.35205(18) -0.3906(2)
C30 C -0.14522(17) 0.3249(2) -0.3972(2)
H32 H -0.1201 0.3286 -0.3737
C31 C -0.14317(16) 0.29229(18) -0.4390(2)
H33 H -0.1167 0.2741 -0.4434
C32 C -0.18069(19) 0.28680(18) -0.47417(19)
C33 C -0.22026(17) 0.3139(2) -0.4675(2)
H34 H -0.2454 0.3103 -0.4911
C34 C -0.22230(18) 0.3466(2) -0.4258(2)
H35 H -0.2488 0.3647 -0.4213
C35 C -0.1660(4) 0.1508(3) -0.6500(3)
H36 H -0.1952 0.1351 -0.6550
H37 H -0.1422 0.1283 -0.6425
H38 H -0.1583 0.1676 -0.6827
C36 C -0.17742(18) 0.25028(16) -0.51937(18)
C37 C -0.21577(14) 0.22368(18) -0.53401(19)
C38 C -0.21199(15) 0.19087(17) -0.5754(2)
C39 C -0.16986(18) 0.18467(17) -0.60222(18)
C40 C -0.13151(14) 0.21128(19) -0.5876(2)
C41 C -0.13529(15) 0.24408(18) -0.5462(2)
H39 H -0.1096 0.2619 -0.5364
C42 C -0.2596(4) 0.2052(4) -0.4558(4)
H40 H -0.2896 0.2101 -0.4397
H41 H -0.2360 0.2176 -0.4322
H42 H -0.2546 0.1725 -0.4609
C43 C -0.25323(13) 0.16058(14) -0.58476(18)
C44 C -0.25509(15) 0.11851(16) -0.55694(19)
C45 C -0.29354(17) 0.08969(13) -0.56276(19)
C46 C -0.33013(15) 0.10294(16) -0.5964(2)
H43 H -0.3559 0.0837 -0.6003
C47 C -0.32827(14) 0.14500(16) -0.62421(18)
C48 C -0.28982(15) 0.17382(12) -0.61839(15)
C49 C -0.2868(2) 0.22123(15) -0.6466(3)
H44 H -0.3141 0.2260 -0.6685
H45 H -0.2598 0.2221 -0.6695
H46 H -0.2848 0.2453 -0.6195
C50 C -0.3705(4) 0.1591(4) -0.6580(4)
H47 H -0.3648 0.1887 -0.6750
H48 H -0.3972 0.1615 -0.6347
H49 H -0.3762 0.1362 -0.6856
C51 C -0.1882(4) 0.0726(4) -0.5402(5)
H50 H -0.1644 0.0685 -0.5132
H51 H -0.1743 0.0813 -0.5743
H52 H -0.2051 0.0441 -0.5447
C52 C -0.2977(2) 0.04508(16) -0.5306(2)
C53 C -0.2866(2) 0.04534(17) -0.4753(2)
H53 H -0.2772 0.0728 -0.4586
C54 C -0.2896(2) 0.0046(2) -0.44507(16)
H54 H -0.2822 0.0048 -0.4081
N4 N -0.3038(2) -0.03642(17) -0.4700(2)
C55 C -0.3149(2) -0.03668(16) -0.5253(2)
H55 H -0.3243 -0.0641 -0.5420
C56 C -0.3119(2) 0.0041(2) -0.55554(16)
H56 H -0.3193 0.0039 -0.5925
O3 O -0.2576(2) 0.2284(2) -0.5078(2)
O4 O -0.2190(2) 0.1079(2) -0.5230(2)
Ag2E Ag -0.31406(3) -0.09539(3) -0.41959(3)
N4E N -0.1962(2) 0.46358(17) -0.2800(2)
Ag3 Ag -0.12901(4) 0.47979(4) -0.41988(5)
C57 C -0.1273(3) 0.7620(3) -0.2074(4)
H57 H -0.1564 0.7548 -0.2247
H58 H -0.1152 0.7904 -0.2221
H59 H -0.1321 0.7654 -0.1688
N5 N -0.1190(2) 0.5353(2) -0.3625(3)
C58 C -0.1277(2) 0.5808(3) -0.3784(2)
H60 H -0.1422 0.5868 -0.4116
C59 C -0.1147(2) 0.61746(19) -0.3447(3)
H61 H -0.1206 0.6479 -0.3554
C60 C -0.0930(2) 0.60856(19) -0.2951(2)
C61 C -0.0843(2) 0.5630(2) -0.2792(2)
H62 H -0.0698 0.5571 -0.2460
C62 C -0.0973(2) 0.52638(17) -0.3129(3)
H63 H -0.0914 0.4959 -0.3022
C63 C -0.0326(4) 0.7643(4) -0.1612(5)
H64 H -0.0576 0.7861 -0.1581
H65 H -0.0061 0.7793 -0.1773
H66 H -0.0244 0.7530 -0.1255
C64 C -0.07666(17) 0.64851(16) -0.2600(2)
C65 C -0.03172(16) 0.64965(16) -0.2392(2)
C66 C -0.01724(13) 0.68716(18) -0.2078(2)
C67 C -0.04771(17) 0.72353(15) -0.1971(2)
C68 C -0.09265(16) 0.72239(16) -0.2178(2)
C69 C -0.10712(14) 0.68488(18) -0.2493(2)
H67 H -0.1372 0.6841 -0.2632
C70 C 0.0214(4) 0.6155(4) -0.3014(4)
H68 H 0.0419 0.5893 -0.3044
H69 H 0.0389 0.6437 -0.3046
H70 H -0.0014 0.6141 -0.3300
C71 C 0.03201(11) 0.68710(18) -0.18684(18)
C72 C 0.04093(14) 0.6618(2) -0.13966(19)
C73 C 0.08634(16) 0.65634(18) -0.12141(17)
C74 C 0.12284(12) 0.6762(2) -0.15033(19)
H71 H 0.1532 0.6726 -0.1381
C75 C 0.11392(11) 0.70155(18) -0.19751(18)
C76 C 0.06851(13) 0.70699(14) -0.21577(14)
C77 C 0.0586(2) 0.7367(2) -0.2661(2)
H72 H 0.0873 0.7477 -0.2812
H73 H 0.0396 0.7627 -0.2560
H74 H 0.0425 0.7183 -0.2929
C78 C 0.1546(3) 0.7256(4) -0.2258(4)
H75 H 0.1436 0.7417 -0.2576
H76 H 0.1772 0.7028 -0.2365
H77 H 0.1686 0.7475 -0.2012
C79 C -0.0064(4) 0.5998(4) -0.1146(5)
H78 H -0.0323 0.5913 -0.0920
H79 H 0.0204 0.5819 -0.1043
H80 H -0.0138 0.5938 -0.1522
C80 C 0.0980(2) 0.6288(2) -0.0700(2)
C81 C 0.0720(2) 0.6319(2) -0.0223(3)
H81 H 0.0470 0.6524 -0.0204
C82 C 0.0832(2) 0.6045(3) 0.0225(2)
H82 H 0.0658 0.6067 0.0544
N6 N 0.1205(3) 0.5739(3) 0.0197(3)
C83 C 0.1466(2) 0.5707(3) -0.0280(3)
H83 H 0.1715 0.5503 -0.0299
C84 C 0.1353(2) 0.5982(3) -0.0728(3)
H84 H 0.1528 0.5960 -0.1047
O5 O -0.0015(2) 0.6143(2) -0.2495(2)
O6 O 0.0034(2) 0.6476(2) -0.1077(3)
Ag3B Ag 0.12901(4) 0.52021(4) 0.08012(5)
N6B N -0.1205(3) 0.4261(3) -0.4803(3)
N7 N -0.3384(3) 0.2495(4) -0.3593(4)
O7 O -0.3622(4) 0.2560(5) -0.4005(3)
O8 O -0.3432(3) 0.2143(4) -0.3302(4)
O9 O -0.3098(3) 0.2790(3) -0.3447(4)
N8 N -0.2355(5) 0.4879(6) -0.4603(5)
O10 O -0.2116(6) 0.5237(5) -0.4545(6)
O11 O -0.2619(5) 0.4808(5) -0.4994(5)
O12 O -0.2354(5) 0.4556(4) -0.4267(5)
N9 N -0.0813(4) 0.3922(4) -0.2844(5)
O13 O -0.0853(5) 0.4090(6) -0.3308(5)
O14 O -0.1151(5) 0.3761(6) -0.2597(5)
O15 O -0.0497(5) 0.4099(6) -0.2567(5)
O16 O -0.1978(4) 0.8929(4) -0.2361(5)
C85 C -0.1488(14) 0.8918(13) -0.1538(16)
C86 C -0.1974(11) 0.8946(10) -0.1737(13)
C87 C -0.2365(9) 0.8639(9) -0.1505(11)
O17 O 0.1389(8) 0.0459(7) -0.1592(9)
C88 C 0.1215(9) 0.0233(9) -0.2430(11)
C89 C 0.1012(12) 0.0184(12) -0.1857(13)
C90 C 0.1223(14) -0.0303(12) -0.1852(17)
O18 O -0.0022(9) 0.6870(9) 0.0668(12)
C91 C -0.0562(16) 0.7217(18) 0.007(2)
C92 C -0.0134(18) 0.7354(12) 0.0415(19)
C93 C 0.006(2) 0.7668(12) 0.088(2)
O19 O -0.3641(4) 0.3518(4) -0.4381(4)
O20 O 0.4636(5) 0.7355(5) 0.1040(6)
O21 O 0.0294(7) 0.7035(7) 0.1592(9)
O22 O 0.0432(6) 0.5082(6) 0.3310(8)
O23 O 0.0048(11) 0.5360(10) 0.1457(12)
O24 O -0.0372(11) 0.5892(11) 0.0604(13)
O25 O -0.0052(15) 0.5195(15) 0.0073(18)
O26 O -0.3253(15) 0.3253(15) -0.7500
O27 O -0.403(2) 0.350(2) -0.728(3)
loop_
_geom_bond_atom_site_label_1
_geom_bond_atom_site_label_2
_geom_bond_site_symmetry_1
_geom_bond_site_symmetry_2
Ag1 N1 1_555 1_555
Ag2 N3 1_555 1_555
Ag3 N5 1_555 1_555
N1 C1 1_555 1_555
C1 H1 1_555 1_555
C2 C1 1_555 1_555
H2 C2 1_555 1_555
C3 C2 1_555 1_555
C4 C3 1_555 1_555
H3 C4 1_555 1_555
C5 N1 1_555 1_555
H4 C5 1_555 1_555
C6 H5 1_555 1_555
H6 C6 1_555 1_555
H7 C6 1_555 1_555
C7 C3 1_555 1_555
C8 C7 1_555 1_555
C9 C8 1_555 1_555
C10 C9 1_555 1_555
C11 C6 1_555 1_555
C12 C7 1_555 1_555
H8 C12 1_555 1_555
C13 C10 1_555 1_555
H9 C13 1_555 1_555
H10 C13 1_555 1_555
H11 C13 1_555 1_555
C14 H12 1_555 1_555
H13 C14 1_555 1_555
H14 C14 1_555 1_555
C15 C9 1_555 1_555
C16 C15 1_555 1_555
C17 C16 1_555 1_555
C18 C17 1_555 1_555
H15 C18 1_555 1_555
C19 C18 1_555 1_555
C20 C15 1_555 1_555
C21 C20 1_555 1_555
H16 C21 1_555 1_555
H17 C21 1_555 1_555
H18 C21 1_555 1_555
C22 C19 1_555 1_555
H19 C22 1_555 1_555
H20 C22 1_555 1_555
H21 C22 1_555 1_555
C23 H22 1_555 1_555
H23 C23 1_555 1_555
H24 C23 1_555 1_555
C24 C17 1_555 1_555
C25 C24 1_555 1_555
H25 C25 1_555 1_555
C26 C25 1_555 1_555
H26 C26 1_555 1_555
N2 C26 1_555 1_555
C27 N2 1_555 1_555
H27 C27 1_555 1_555
C28 C24 1_555 1_555
H28 C28 1_555 1_555
C29 H29 1_555 1_555
H30 C29 1_555 1_555
H31 C29 1_555 1_555
N3 C30 1_555 1_555
C30 H32 1_555 1_555
C31 C30 1_555 1_555
H33 C31 1_555 1_555
C32 C31 1_555 1_555
C33 C32 1_555 1_555
H34 C33 1_555 1_555
C34 N3 1_555 1_555
H35 C34 1_555 1_555
C35 H36 1_555 1_555
H37 C35 1_555 1_555
H38 C35 1_555 1_555
C36 C32 1_555 1_555
C37 C36 1_555 1_555
C38 C37 1_555 1_555
C39 C35 1_555 1_555
C40 C29 1_555 1_555
C41 C36 1_555 1_555
H39 C41 1_555 1_555
C42 H40 1_555 1_555
H41 C42 1_555 1_555
H42 C42 1_555 1_555
C43 C38 1_555 1_555
C44 C43 1_555 1_555
C45 C44 1_555 1_555
C46 C45 1_555 1_555
H43 C46 1_555 1_555
C47 C46 1_555 1_555
C48 C43 1_555 1_555
C49 C48 1_555 1_555
H44 C49 1_555 1_555
H45 C49 1_555 1_555
H46 C49 1_555 1_555
C50 C47 1_555 1_555
H47 C50 1_555 1_555
H48 C50 1_555 1_555
H49 C50 1_555 1_555
C51 H50 1_555 1_555
H51 C51 1_555 1_555
H52 C51 1_555 1_555
C52 C45 1_555 1_555
C53 C52 1_555 1_555
H53 C53 1_555 1_555
C54 C53 1_555 1_555
H54 C54 1_555 1_555
N4 C54 1_555 1_555
C55 N4 1_555 1_555
H55 C55 1_555 1_555
C56 C52 1_555 1_555
H56 C56 1_555 1_555
C57 H57 1_555 1_555
H58 C57 1_555 1_555
H59 C57 1_555 1_555
N5 C58 1_555 1_555
C58 H60 1_555 1_555
C59 C58 1_555 1_555
H61 C59 1_555 1_555
C60 C59 1_555 1_555
C61 C60 1_555 1_555
H62 C61 1_555 1_555
C62 N5 1_555 1_555
H63 C62 1_555 1_555
C63 H64 1_555 1_555
H65 C63 1_555 1_555
H66 C63 1_555 1_555
C64 C60 1_555 1_555
C65 C64 1_555 1_555
C66 C65 1_555 1_555
C67 C63 1_555 1_555
C68 C57 1_555 1_555
C69 C64 1_555 1_555
H67 C69 1_555 1_555
C70 H68 1_555 1_555
H69 C70 1_555 1_555
H70 C70 1_555 1_555
C71 C66 1_555 1_555
C72 C71 1_555 1_555
C73 C72 1_555 1_555
C74 C73 1_555 1_555
H71 C74 1_555 1_555
C75 C74 1_555 1_555
C76 C71 1_555 1_555
C77 C76 1_555 1_555
H72 C77 1_555 1_555
H73 C77 1_555 1_555
H74 C77 1_555 1_555
C78 C75 1_555 1_555
H75 C78 1_555 1_555
H76 C78 1_555 1_555
H77 C78 1_555 1_555
C79 H78 1_555 1_555
H79 C79 1_555 1_555
H80 C79 1_555 1_555
C80 C73 1_555 1_555
C81 C80 1_555 1_555
H81 C81 1_555 1_555
C82 C81 1_555 1_555
H82 C82 1_555 1_555
N6 C82 1_555 1_555
C83 N6 1_555 1_555
H83 C83 1_555 1_555
C84 C80 1_555 1_555
H84 C84 1_555 1_555
O1 C8 1_555 1_555
O2 C16 1_555 1_555
O3 C37 1_555 1_555
O4 C44 1_555 1_555
O5 C65 1_555 1_555
O6 C72 1_555 1_555
N7 O7 1_555 1_555
O8 N7 1_555 1_555
O9 N7 1_555 1_555
N8 O10 1_555 1_555
O11 N8 1_555 1_555
O12 N8 1_555 1_555
N9 O13 1_555 1_555
O14 N9 1_555 1_555
O15 N9 1_555 1_555
O16 C86 1_555 1_555
C85 C86 1_555 1_555
C86 C87 1_555 1_555
O17 C89 1_555 1_555
C88 C89 1_555 1_555
C89 C90 1_555 1_555
O18 C92 1_555 1_555
C91 C92 1_555 1_555
C92 C93 1_555 1_555
Ag1E N2 1_555 1_555
Ag2E N4 1_555 1_555
Ag3B N6 1_555 1_555
N2E Ag1 1_555 1_555
N4E Ag2 1_555 1_555
N6B Ag3 1_555 1_555
C4 C5 1_555 1_555
C10 C11 1_555 1_555
C11 C12 1_555 1_555
C14 O1 1_555 1_555
C19 C20 1_555 1_555
C23 O2 1_555 1_555
C27 C28 1_555 1_555
C33 C34 1_555 1_555
C38 C39 1_555 1_555
C39 C40 1_555 1_555
C40 C41 1_555 1_555
C42 O3 1_555 1_555
C47 C48 1_555 1_555
C51 O4 1_555 1_555
C55 C56 1_555 1_555
C61 C62 1_555 1_555
C66 C67 1_555 1_555
C67 C68 1_555 1_555
C68 C69 1_555 1_555
C70 O5 1_555 1_555
C75 C76 1_555 1_555
C79 O6 1_555 1_555
C83 C84 1_555 1_555

#END
