
#######################################################################
#
#                 Cambridge Crystallographic Data Centre
#                                CCDC 
#
#######################################################################
#
# If this CIF has been generated from an entry in the Cambridge 
# Structural Database, then it will include bibliographic, chemical, 
# crystal, experimental, refinement or atomic coordinate data resulting 
# from the CCDC's data processing and validation procedures.
#
#######################################################################

data_VUMBOW
_symmetry_cell_setting           orthorhombic
_symmetry_space_group_name_H-M   'C m c a'
_symmetry_Int_Tables_number      64
_space_group_name_Hall           '-C 2ac 2'
loop_
_symmetry_equiv_pos_site_id
_symmetry_equiv_pos_as_xyz
1 x,y,z
2 -x,1/2-y,1/2+z
3 x,-y,-z
4 -x,1/2+y,1/2-z
5 1/2+x,1/2+y,z
6 1/2-x,-y,1/2+z
7 1/2+x,1/2-y,-z
8 1/2-x,y,1/2-z
9 -x,-y,-z
10 x,1/2+y,1/2-z
11 -x,y,z
12 x,1/2-y,1/2+z
13 1/2-x,1/2-y,-z
14 1/2+x,y,1/2-z
15 1/2-x,1/2+y,z
16 1/2+x,-y,1/2+z
_cell_length_a                   33.7186(11)
_cell_length_b                   7.9481(3)
_cell_length_c                   20.5910(5)
_cell_angle_alpha                90
_cell_angle_beta                 90
_cell_angle_gamma                90
_cell_volume                     5518.36
loop_
_atom_site_label
_atom_site_type_symbol
_atom_site_fract_x
_atom_site_fract_y
_atom_site_fract_z
C1 C 0.87639(12) 0.2202(6) -0.02776(19)
H1 H 0.8963 0.1792 -0.0562
C2 C 0.83683(13) 0.1917(7) -0.0430(2)
H2 H 0.8295 0.1321 -0.0811
C3 C 0.80722(12) 0.2494(8) -0.0020(2)
C4 C 0.81901(13) 0.3362(7) 0.0535(2)
H3 H 0.7991 0.3772 0.0820
C5 C 0.85889(12) 0.3603(6) 0.0659(2)
H4 H 0.8662 0.4199 0.1040
C6 C 0.76504(13) 0.2244(8) -0.0180(2)
C7 C 0.96411(10) 0.2509(5) 0.24748(17)
C8 C 1.0000 0.2694(7) 0.2151(2)
H5 H 1.0000 0.2942 0.1700
C9 C 0.96418(10) 0.2124(5) 0.31373(17)
H6 H 0.9399 0.1988 0.3361
C10 C 1.0000 0.1930(7) 0.3467(2)
Cu1 Cu 0.94524(2) 0.33315(7) 0.05044(2)
N1 N 0.88762(9) 0.3028(5) 0.02601(15)
O1 O 0.93048(7) 0.3707(3) 0.13967(11)
O2 O 0.90662(8) 0.0944(4) 0.17795(12)
O3 O 0.88838(7) 0.3573(4) 0.24241(12)
O4 O 1.0000 -0.0714(5) 0.43059(16)
O5 O 1.03838(7) 0.1871(3) 0.46008(11)
O6 O 0.95914(9) 0.0599(4) 0.06995(14)
P1 P 0.91955(3) 0.27588(13) 0.20077(4)
P2 P 1.0000 0.12468(17) 0.42989(6)
H7 H 0.761(4) 0.199(13) -0.0626(13)
H8 H 0.8982(13) 0.021(4) 0.2040(15)
H9 H 0.9476(13) 0.044(8) 0.1126(10)
H10 H 0.9875(5) 0.047(19) 0.075(3)
C1L C 0.62361(12) 0.2798(6) 0.02776(19)
H1L H 0.6037 0.3208 0.0562
C2L C 0.66317(13) 0.3083(7) 0.0430(2)
H2L H 0.6705 0.3679 0.0811
C3L C 0.69278(12) 0.2506(8) 0.0020(2)
C4L C 0.68099(13) 0.1638(7) -0.0535(2)
H3L H 0.7009 0.1228 -0.0820
C5L C 0.64111(12) 0.1397(6) -0.0659(2)
H4L H 0.6338 0.0801 -0.1040
C6L C 0.73496(13) 0.2756(8) 0.0180(2)
N1L N 0.61238(9) 0.1972(5) -0.02601(15)
H7L H 0.739(4) 0.301(13) 0.0626(13)
C7J C 1.03589(10) 0.2509(5) 0.24748(17)
O1J O 1.06952(7) 0.3707(3) 0.13967(11)
O2J O 1.09338(8) 0.0944(4) 0.17795(12)
O3J O 1.11162(7) 0.3573(4) 0.24241(12)
P1J P 1.08045(3) 0.27588(13) 0.20077(4)
H8J H 1.1018(13) 0.021(4) 0.2040(15)
C9J C 1.03582(10) 0.2124(5) 0.31373(17)
H6J H 1.0601 0.1988 0.3361
O5J O 0.96162(7) 0.1871(3) 0.46008(11)
Cu1J Cu 1.05476(2) 0.33315(7) 0.05044(2)
O6J O 1.04086(9) 0.0599(4) 0.06995(14)
H9J H 1.0524(13) 0.044(8) 0.1126(10)
H10J H 1.0125(5) 0.047(19) 0.075(3)
Cu1A Cu 1.05476(2) 0.16685(7) 0.55044(2)
Cu1C Cu 1.05476(2) -0.16685(7) 0.44956(2)
Cu1I Cu 0.94524(2) -0.16685(7) 0.44956(2)
Cu1K Cu 0.94524(2) 0.16685(7) 0.55044(2)
Cu1L Cu 0.55476(2) 0.16685(7) -0.05044(2)
N1J N 1.11238(9) 0.3028(5) 0.02601(15)
O4C O 1.0000 0.4286(5) 0.06941(16)
O5A O 0.96162(7) 0.3129(3) -0.03992(11)
O5K O 1.03838(7) 0.3129(3) -0.03992(11)
O7 O 0.8077(2) 0.3008(16) 0.2496(5)
O9 O 0.7508(4) 0.456(2) 0.1680(5)
O8? O 0.8086(2) 0.4365(19) 0.2372(6)
O10? O 0.7445(4) 0.302(3) 0.1739(5)
loop_
_geom_bond_atom_site_label_1
_geom_bond_atom_site_label_2
_geom_bond_site_symmetry_1
_geom_bond_site_symmetry_2
C1 H1 1_555 1_555
C2 C1 1_555 1_555
H2 C2 1_555 1_555
C3 C2 1_555 1_555
C4 C3 1_555 1_555
H3 C4 1_555 1_555
C5 C4 1_555 1_555
H4 C5 1_555 1_555
C6 C3 1_555 1_555
C7 C8 1_555 1_555
C8 H5 1_555 1_555
C9 C7 1_555 1_555
H6 C9 1_555 1_555
C10 C9 1_555 1_555
Cu1 N1 1_555 1_555
N1 C1 1_555 1_555
O1 Cu1 1_555 1_555
O2 P1 1_555 1_555
O3 P1 1_555 1_555
O4 P2 1_555 1_555
O5 P2 1_555 1_555
O6 Cu1 1_555 1_555
P1 C7 1_555 1_555
P2 C10 1_555 1_555
H7 C6 1_555 1_555
H8 O2 1_555 1_555
H9 O6 1_555 1_555
H10 O6 1_555 1_555
C1L H1L 1_555 1_555
C2L C1L 1_555 1_555
H2L C2L 1_555 1_555
C3L C2L 1_555 1_555
C4L C3L 1_555 1_555
H3L C4L 1_555 1_555
C5L C4L 1_555 1_555
H4L C5L 1_555 1_555
C6L C6 1_555 1_555
N1L C1L 1_555 1_555
H7L C6L 1_555 1_555
C7J C8 1_555 1_555
O1J P1J 1_555 1_555
O2J P1J 1_555 1_555
O3J P1J 1_555 1_555
P1J C7J 1_555 1_555
H8J O2J 1_555 1_555
C9J C10 1_555 1_555
H6J C9J 1_555 1_555
O5J P2 1_555 1_555
Cu1J O1J 1_555 1_555
O6J Cu1J 1_555 1_555
H9J O6J 1_555 1_555
H10J O6J 1_555 1_555
Cu1A O5 1_555 1_555
Cu1C O4 1_555 1_555
Cu1I O4 1_555 1_555
Cu1K O5J 1_555 1_555
Cu1L N1L 1_555 1_555
N1J Cu1J 1_555 1_555
O4C Cu1 1_555 1_555
O5A Cu1 1_555 1_555
O5K Cu1J 1_555 1_555
C5 N1 1_555 1_555
O1 P1 1_555 1_555
C3L C6L 1_555 1_555
C5L N1L 1_555 1_555
C7J C9J 1_555 1_555
Cu1J O4C 1_555 1_555

#END
