
#######################################################################
#
#                 Cambridge Crystallographic Data Centre
#                                CCDC 
#
#######################################################################
#
# If this CIF has been generated from an entry in the Cambridge 
# Structural Database, then it will include bibliographic, chemical, 
# crystal, experimental, refinement or atomic coordinate data resulting 
# from the CCDC's data processing and validation procedures.
#
#######################################################################

data_VUMBUB
_symmetry_cell_setting           tetragonal
_symmetry_space_group_name_H-M   'P 43 2 2'
_symmetry_Int_Tables_number      95
_space_group_name_Hall           'P 4cw 2c'
loop_
_symmetry_equiv_pos_site_id
_symmetry_equiv_pos_as_xyz
1 x,y,z
2 -y,x,3/4+z
3 -x,-y,1/2+z
4 y,-x,1/4+z
5 x,-y,1/2-z
6 -x,y,-z
7 y,x,1/4-z
8 -y,-x,3/4-z
_cell_length_a                   17.4625(2)
_cell_length_b                   17.4625(2)
_cell_length_c                   24.1023(7)
_cell_angle_alpha                90
_cell_angle_beta                 90
_cell_angle_gamma                90
_cell_volume                     7349.73
loop_
_atom_site_label
_atom_site_type_symbol
_atom_site_fract_x
_atom_site_fract_y
_atom_site_fract_z
Ag1 Ag -0.15446(4) 0.95745(5) 0.01540(3)
N1 N -0.2409(4) 1.0155(4) -0.0300(3)
O1 O -0.5228(3) 1.0643(3) -0.0757(2)
O2 O -0.6448(3) 1.0726(3) -0.1770(2)
C1 C -0.2304(6) 1.0456(5) -0.0807(4)
H1 H -0.1832 1.0386 -0.0978
C2 C -0.2866(3) 1.0870(3) -0.10910(19)
H2 H -0.2769 1.1084 -0.1437
C3 C -0.3575(3) 1.0950(3) -0.08358(19)
C4 C -0.3700(3) 1.0632(3) -0.03149(19)
H3 H -0.4185 1.0686 -0.0140
C5 C -0.3091(5) 1.0229(5) -0.0079(4)
H4 H -0.3176 0.9994 0.0262
C6 C -0.4182(5) 1.1431(5) -0.1104(3)
C7 C -0.4964(5) 1.1327(5) -0.1054(3)
C8 C -0.5503(5) 1.1830(4) -0.1220(3)
C9 C -0.5289(5) 1.2488(5) -0.1491(3)
C10 C -0.4492(5) 1.2633(5) -0.1578(4)
C11 C -0.3964(5) 1.2118(5) -0.1381(3)
H5 H -0.3446 1.2221 -0.1430
C12 C -0.4245(6) 1.3347(6) -0.1868(5)
H6 H -0.3697 1.3355 -0.1896
H7 H -0.4415 1.3785 -0.1661
H8 H -0.4465 1.3361 -0.2233
C13 C -0.5866(6) 1.3064(6) -0.1696(5)
H9 H -0.6373 1.2893 -0.1605
H10 H -0.5821 1.3116 -0.2091
H11 H -0.5772 1.3550 -0.1523
C14 C -0.5126(6) 0.9934(6) -0.1047(5)
H12 H -0.5322 0.9521 -0.0825
H13 H -0.4591 0.9852 -0.1116
H14 H -0.5397 0.9953 -0.1393
C15 C -0.6334(5) 1.1695(4) -0.1060(3)
C16 C -0.6780(5) 1.1186(5) -0.1317(3)
C17 C -0.7525(5) 1.1028(5) -0.1182(3)
C18 C -0.7840(3) 1.1468(3) -0.0742(2)
H15 H -0.8349 1.1398 -0.0640
C19 C -0.7395(3) 1.2002(3) -0.0461(2)
C20 C -0.6625(4) 1.2113(5) -0.0616(3)
C21 C -0.6134(5) 1.2649(5) -0.0282(4)
H16 H -0.6438 1.2884 0.0003
H17 H -0.5929 1.3038 -0.0521
H18 H -0.5721 1.2368 -0.0116
C22 C -0.7758(5) 1.2416(5) 0.0021(4)
H19 H -0.7388 1.2752 0.0188
H20 H -0.7929 1.2050 0.0290
H21 H -0.8186 1.2711 -0.0109
C23 C -0.6445(7) 1.1126(7) -0.2296(4)
H22 H -0.6212 1.0809 -0.2574
H23 H -0.6160 1.1593 -0.2260
H24 H -0.6962 1.1241 -0.2403
C24 C -0.8027(4) 1.0432(4) -0.1442(3)
C25 C -0.7720(4) 0.9718(4) -0.1567(3)
H25 H -0.7208 0.9613 -0.1496
C26 C -0.8194(6) 0.9164(6) -0.1800(4)
H26 H -0.7994 0.8681 -0.1874
C27 C -0.9219(6) 0.9979(5) -0.1793(4)
H27 H -0.9733 1.0075 -0.1865
C28 C -0.8782(5) 1.0563(5) -0.1549(4)
H28 H -0.9004 1.1032 -0.1462
N2 N -0.8944(5) 0.9308(4) -0.1923(3)
Ag1A Ag -0.95745(5) 0.84554(4) -0.23460(3)
N2C N -0.0692(4) 0.8944(5) 0.0577(3)
O3 O 0.1001(10) 1.0641(9) 0.2204(8)
O4 O 0.1878(7) 0.9783(7) 0.2064(5)
Cl1 Cl 0.13617(16) 1.0000 0.2500
O3D O 0.1001(10) 0.9359(9) 0.2796(8)
O4D O 0.1878(7) 1.0217(7) 0.2936(5)
O5 O 0.833(2) 0.3796(17) 0.2647(16)
O6 O 0.7326(16) 0.312(2) 0.3071(16)
O7 O 0.812(2) 0.251(2) 0.2401(14)
O8 O 0.861(2) 0.281(2) 0.3285(14)
Cl2 Cl 0.8086(12) 0.3055(12) 0.2860(8)
O9 O 0.7631(13) 0.4945(13) 0.0804(10)
O10 O 0.5000 0.560(5) 0.0000
O11 O 0.847(2) 0.320(2) 0.1367(14)
O12? O 0.0833(7) 0.9364(7) 0.2511(6)
O13? O 0.4042(15) -0.0423(14) 0.2420(13)
loop_
_geom_bond_atom_site_label_1
_geom_bond_atom_site_label_2
_geom_bond_site_symmetry_1
_geom_bond_site_symmetry_2
Ag1 N1 1_555 1_555
N1 C1 1_555 1_555
O1 C7 1_555 1_555
O2 C16 1_555 1_555
C1 H1 1_555 1_555
C2 C1 1_555 1_555
H2 C2 1_555 1_555
C3 C2 1_555 1_555
C4 C3 1_555 1_555
H3 C4 1_555 1_555
C5 N1 1_555 1_555
H4 C5 1_555 1_555
C6 C3 1_555 1_555
C7 C6 1_555 1_555
C8 C7 1_555 1_555
C9 C8 1_555 1_555
C10 C9 1_555 1_555
C11 C6 1_555 1_555
H5 C11 1_555 1_555
C12 C10 1_555 1_555
H6 C12 1_555 1_555
H7 C12 1_555 1_555
H8 C12 1_555 1_555
C13 C9 1_555 1_555
H9 C13 1_555 1_555
H10 C13 1_555 1_555
H11 C13 1_555 1_555
C14 O1 1_555 1_555
H12 C14 1_555 1_555
H13 C14 1_555 1_555
H14 C14 1_555 1_555
C15 C8 1_555 1_555
C16 C15 1_555 1_555
C17 C16 1_555 1_555
C18 C17 1_555 1_555
H15 C18 1_555 1_555
C19 C18 1_555 1_555
C20 C15 1_555 1_555
C21 C20 1_555 1_555
H16 C21 1_555 1_555
H17 C21 1_555 1_555
H18 C21 1_555 1_555
C22 C19 1_555 1_555
H19 C22 1_555 1_555
H20 C22 1_555 1_555
H21 C22 1_555 1_555
C23 O2 1_555 1_555
H22 C23 1_555 1_555
H23 C23 1_555 1_555
H24 C23 1_555 1_555
C24 C17 1_555 1_555
C25 C24 1_555 1_555
H25 C25 1_555 1_555
C26 C25 1_555 1_555
H26 C26 1_555 1_555
C27 H27 1_555 1_555
C28 C24 1_555 1_555
H28 C28 1_555 1_555
N2 C26 1_555 1_555
O3 Cl1 1_555 1_555
O4 Cl1 1_555 1_555
Cl1 O3D 1_555 1_555
O5 Cl2 1_555 1_555
O6 Cl2 1_555 1_555
O7 Cl2 1_555 1_555
O8 Cl2 1_555 1_555
Ag1A N2 1_555 1_555
N2C Ag1 1_555 1_555
O4D Cl1 1_555 1_555
C4 C5 1_555 1_555
C10 C11 1_555 1_555
C19 C20 1_555 1_555
C27 C28 1_555 1_555
C27 N2 1_555 1_555

#END
