
#######################################################################
#
#                 Cambridge Crystallographic Data Centre
#                                CCDC 
#
#######################################################################
#
# If this CIF has been generated from an entry in the Cambridge 
# Structural Database, then it will include bibliographic, chemical, 
# crystal, experimental, refinement or atomic coordinate data resulting 
# from the CCDC's data processing and validation procedures.
#
#######################################################################

data_VUMCUC
_symmetry_cell_setting           monoclinic
_symmetry_space_group_name_H-M   'P 21/c'
_symmetry_Int_Tables_number      14
_space_group_name_Hall           '-P 2ybc'
loop_
_symmetry_equiv_pos_site_id
_symmetry_equiv_pos_as_xyz
1 x,y,z
2 -x,1/2+y,1/2-z
3 -x,-y,-z
4 x,1/2-y,1/2+z
_cell_length_a                   12.2012(15)
_cell_length_b                   11.0296(14)
_cell_length_c                   9.4947(12)
_cell_angle_alpha                90
_cell_angle_beta                 92.928(2)
_cell_angle_gamma                90
_cell_volume                     1276.08
loop_
_atom_site_label
_atom_site_type_symbol
_atom_site_fract_x
_atom_site_fract_y
_atom_site_fract_z
Na1 Na 0.55545(7) -0.33701(8) -0.21400(9)
Na2 Na 1.42324(7) -0.38571(7) 0.44128(9)
O1 O 0.44701(15) -0.32734(15) -0.00985(18)
H1 H 0.479(2) -0.343(3) 0.069(3)
H2 H 0.397(3) -0.366(3) -0.016(3)
P1 P 0.64436(4) -0.03242(4) -0.23857(5)
P2 P 0.71470(4) -0.16621(5) 0.00364(5)
O2 O 0.55044(11) -0.12077(13) -0.25065(15)
O3 O 0.70135(12) -0.01743(12) -0.38133(15)
H3 H 0.7021 -0.0829 -0.4222
O4 O 0.69855(12) -0.29634(13) -0.03971(15)
O5 O 0.74050(11) -0.09193(12) -0.13781(15)
O6 O 0.62139(12) -0.10468(13) 0.07204(15)
O7 O 0.61778(12) 0.09016(12) -0.18313(15)
O8 O 1.29004(13) -0.31111(16) 0.26706(19)
H4 H 1.3185 -0.2552 0.2253
C1 C 0.83890(18) -0.1499(2) 0.1096(2)
H5 H 0.8444 -0.0664 0.141
H6 H 0.8337 -0.2002 0.1928
C2 C 0.9445(2) -0.1826(3) 0.0395(3)
H7 H 0.9361 -0.2609 -0.0062
H8 H 0.9589 -0.1228 -0.0322
C3 C 1.0400(2) -0.1871(3) 0.1466(3)
H9 H 1.06 -0.1142 0.19
C4 C 1.09806(18) -0.2834(2) 0.1851(3)
C5 C 1.18323(18) -0.2759(2) 0.3052(3)
H10 H 1.1863 -0.1932 0.3401
H11 H 1.161 -0.3275 0.3814
C6 C 1.0850(3) -0.4063(3) 0.1177(3)
H12 H 1.0373 -0.4552 0.1715
H13 H 1.1555 -0.4447 0.1151
H14 H 1.0539 -0.3973 0.0233
Na1C Na 0.55545(7) -0.16299(8) 0.28600(9)
Na1A Na 0.44455(7) 0.16299(8) -0.28600(9)
Na2C Na 0.42324(7) -0.11429(7) -0.05872(9)
Na2A Na 0.57676(7) 0.11429(7) 0.05872(9)
O1C O 1.44701(15) -0.17266(15) 0.49015(18)
H1C H 1.479(2) -0.157(3) 0.569(3)
H2C H 1.397(3) -0.134(3) 0.484(3)
O2C O 1.55044(11) -0.37923(13) 0.24935(15)
O6C O 0.62139(12) -0.39532(13) -0.42796(15)
O6A O 1.37861(12) -0.60468(13) 0.42796(15)
O6C_2 O 1.62139(12) -0.39532(13) 0.57204(15)
O7A O 0.38222(12) -0.40984(12) -0.31687(15)
O7A_2 O 1.38222(12) -0.40984(12) 0.68313(15)
loop_
_geom_bond_atom_site_label_1
_geom_bond_atom_site_label_2
_geom_bond_site_symmetry_1
_geom_bond_site_symmetry_2
Na1 O1 1_555 1_555
Na2 O8 1_555 1_555
O1 H1 1_555 1_555
H2 O1 1_555 1_555
P1 O2 1_555 1_555
P2 O4 1_555 1_555
O2 Na1 1_555 1_555
O3 P1 1_555 1_555
H3 O3 1_555 1_555
O4 Na1 1_555 1_555
O5 P1 1_555 1_555
O6 P2 1_555 1_555
O7 P1 1_555 1_555
O8 H4 1_555 1_555
C1 P2 1_555 1_555
H5 C1 1_555 1_555
H6 C1 1_555 1_555
C2 C1 1_555 1_555
H7 C2 1_555 1_555
H8 C2 1_555 1_555
C3 C2 1_555 1_555
H9 C3 1_555 1_555
C4 C3 1_555 1_555
C5 O8 1_555 1_555
H10 C5 1_555 1_555
H11 C5 1_555 1_555
C6 C4 1_555 1_555
H12 C6 1_555 1_555
H13 C6 1_555 1_555
H14 C6 1_555 1_555
Na1C O6 1_555 1_555
Na1A O7 1_555 1_555
Na2C O1 1_555 1_555
Na2A O6 1_555 1_555
O1C Na2 1_555 1_555
H1C O1C 1_555 1_555
H2C O1C 1_555 1_555
O2C Na2 1_555 1_555
O6C Na1 1_555 1_555
O6A Na2 1_555 1_555
O6C_2 Na2 1_555 1_555
O7A Na1 1_555 1_555
O7A_2 Na2 1_555 1_555
P2 O5 1_555 1_555
O2 Na2C 1_555 1_555
O6 Na2C 1_555 1_555
O7 Na2A 1_555 1_555
C4 C5 1_555 1_555

#END
