
#######################################################################
#
#                 Cambridge Crystallographic Data Centre
#                                CCDC 
#
#######################################################################
#
# If this CIF has been generated from an entry in the Cambridge 
# Structural Database, then it will include bibliographic, chemical, 
# crystal, experimental, refinement or atomic coordinate data resulting 
# from the CCDC's data processing and validation procedures.
#
#######################################################################

data_VUMCEM
_symmetry_cell_setting           monoclinic
_symmetry_space_group_name_H-M   'P 21/c'
_symmetry_Int_Tables_number      14
_space_group_name_Hall           '-P 2ybc'
loop_
_symmetry_equiv_pos_site_id
_symmetry_equiv_pos_as_xyz
1 x,y,z
2 -x,1/2+y,1/2-z
3 -x,-y,-z
4 x,1/2-y,1/2+z
_cell_length_a                   8.0960(16)
_cell_length_b                   21.507(4)
_cell_length_c                   13.935(5)
_cell_angle_alpha                90
_cell_angle_beta                 111.81(3)
_cell_angle_gamma                90
_cell_volume                     2252.69
loop_
_atom_site_label
_atom_site_type_symbol
_atom_site_fract_x
_atom_site_fract_y
_atom_site_fract_z
Co1 Co 1.0000 0.5000 0.5000
N1 N 0.7604(3) 0.54506(10) 0.39994(16)
N2 N 0.5732(3) 0.61258(10) 0.29665(17)
N3 N 0.9460(3) 0.52862(10) 0.63624(15)
N4 N 0.9356(3) 0.53108(10) 0.79280(16)
N5 N 0.1486(3) 0.91560(9) 0.01008(16)
N6 N 0.3062(3) 0.83074(10) 0.07222(17)
C1 C 0.7411(3) 0.60195(12) 0.3635(2)
H1 H 0.8317 0.6314 0.3814
C2 C 0.5940(3) 0.51780(13) 0.3547(2)
H2 H 0.5660 0.4773 0.3667
C3 C 0.4788(4) 0.55866(13) 0.2906(2)
H3 H 0.3596 0.5517 0.2505
C4 C 0.5062(4) 0.66929(12) 0.2420(2)
C5 C 0.3348(4) 0.68828(13) 0.2265(2)
H4 H 0.2645 0.6649 0.2527
C6 C 0.6134(4) 0.70385(13) 0.2045(2)
H5 H 0.7280 0.6905 0.2148
C7 C 0.5481(4) 0.75850(13) 0.1516(2)
H6 H 0.6199 0.7829 0.1278
C8 C 1.0116(3) 0.50526(12) 0.73051(19)
H7 H 1.0993 0.4748 0.7516
C9 C 0.8224(4) 0.57231(12) 0.6389(2)
H8 H 0.7538 0.5966 0.5831
C10 C 0.8156(4) 0.57469(13) 0.7341(2)
H9 H 0.7443 0.6006 0.7558
C11 C 0.9690(3) 0.51518(12) 0.89857(19)
C12 C 1.0253(3) 0.45564(12) 0.9344(2)
H10 H 1.0419 0.4261 0.8901
C13 C 0.9431(4) 0.55964(13) 0.9637(2)
H11 H 0.9049 0.5994 0.9392
C14 C 0.1849(3) 0.87145(12) 0.0806(2)
H12 H 0.1334 0.8686 0.1300
C15 C 0.2533(4) 0.90206(13) -0.0462(2)
H13 H 0.2565 0.9254 -0.1017
C16 C 0.3503(4) 0.85023(14) -0.0096(2)
H14 H 0.4302 0.8315 -0.0343
C17 C 0.3757(4) 0.77666(12) 0.1342(2)
C18 C 0.2687(4) 0.74233(13) 0.1715(2)
H15 H 0.1533 0.7553 0.1599
Co1_2 Co 1.0000 0.5000 1.5000
Co1A Co 0.0000 1.0000 0.0000
Co1A_2 Co 2.0000 0.0000 1.0000
N1B N 1.2396(3) 0.45494(10) 0.60006(16)
N2B N 1.4268(3) 0.38742(10) 0.70335(17)
N3B N 1.0540(3) 0.47138(10) 1.36376(15)
N3B_2 N 1.0540(3) 0.47138(10) 0.36376(15)
N4B N 1.0644(3) 0.46892(10) 1.20720(16)
N5B N 1.8514(3) 0.08440(9) 0.98992(16)
N5A N 0.8514(3) 0.41560(9) 0.48992(16)
N5C N 1.1486(3) 0.58440(9) 0.51008(16)
N6B N 1.6938(3) 0.16926(10) 0.92778(17)
C1B C 1.2589(3) 0.39805(12) 0.6365(2)
H1B H 1.1683 0.3686 0.6186
C2B C 1.4060(3) 0.48220(13) 0.6453(2)
H2B H 1.4340 0.5227 0.6333
C3B C 1.5212(4) 0.44134(13) 0.7094(2)
H3B H 1.6404 0.4483 0.7495
C4B C 1.4938(4) 0.33071(12) 0.7580(2)
C5B C 1.6652(4) 0.31172(13) 0.7735(2)
H4B H 1.7355 0.3351 0.7473
C6B C 1.3866(4) 0.29615(13) 0.7955(2)
H5B H 1.2720 0.3095 0.7852
C7B C 1.4519(4) 0.24150(13) 0.8484(2)
H6B H 1.3801 0.2171 0.8722
C8B C 0.9884(3) 0.49474(12) 1.26949(19)
H7B H 0.9007 0.5252 1.2484
C9B C 1.1776(4) 0.42769(12) 1.3611(2)
H8B H 1.2462 0.4034 1.4169
C10B C 1.1844(4) 0.42531(13) 1.2659(2)
H9B H 1.2557 0.3994 1.2442
C11B C 1.0310(3) 0.48482(12) 1.10143(19)
C12B C 0.9747(3) 0.54436(12) 1.0656(2)
H10B H 0.9581 0.5739 1.1099
C13B C 1.0569(4) 0.44036(13) 1.0363(2)
H11B H 1.0951 0.4006 1.0608
C14B C 1.8151(3) 0.12855(12) 0.9194(2)
H12B H 1.8666 0.1314 0.8700
C15B C 1.7467(4) 0.09794(13) 1.0462(2)
H13B H 1.7435 0.0746 1.1017
C16B C 1.6497(4) 0.14977(14) 1.0096(2)
H14B H 1.5698 0.1685 1.0343
C17B C 1.6243(4) 0.22334(12) 0.8658(2)
C18B C 1.7313(4) 0.25767(13) 0.8285(2)
H15B H 1.8467 0.2447 0.8401
Cl1 Cl 0.80448(10) 0.76059(4) 0.48113(7)
O1 O 0.8403(6) 0.81478(19) 0.5464(3)
O2 O 0.8543(4) 0.70643(14) 0.5542(3)
O3 O 0.6165(4) 0.75478(17) 0.4270(2)
O4 O 0.9051(7) 0.7574(3) 0.4202(4)
Cl2 Cl 0.43259(12) 0.91529(5) 0.33567(6)
Cl3 Cl 0.43543(13) 0.93030(4) 0.54096(7)
Cl4 Cl 0.23018(12) 0.83091(4) 0.41183(8)
C19 C 0.4241(4) 0.87562(15) 0.4448(2)
H16 H 0.5273 0.8479 0.4715
O5? O 0.8595(19) 0.8000(5) 0.5649(7)
O6? O 0.9540(15) 0.7397(7) 0.4545(12)
O7? O 0.7164(16) 0.8047(4) 0.3855(6)
O8? O 0.6850(13) 0.7149(4) 0.4698(8)
loop_
_geom_bond_atom_site_label_1
_geom_bond_atom_site_label_2
_geom_bond_site_symmetry_1
_geom_bond_site_symmetry_2
Co1 N1 1_555 1_555
N1 C1 1_555 1_555
N2 C1 1_555 1_555
N3 Co1 1_555 1_555
N4 C8 1_555 1_555
N5 C14 1_555 1_555
N6 C14 1_555 1_555
C1 H1 1_555 1_555
C2 N1 1_555 1_555
H2 C2 1_555 1_555
C3 N2 1_555 1_555
H3 C3 1_555 1_555
C4 N2 1_555 1_555
C5 C4 1_555 1_555
H4 C5 1_555 1_555
C6 C4 1_555 1_555
H5 C6 1_555 1_555
C7 C6 1_555 1_555
H6 C7 1_555 1_555
C8 N3 1_555 1_555
H7 C8 1_555 1_555
C9 N3 1_555 1_555
H8 C9 1_555 1_555
C10 N4 1_555 1_555
H9 C10 1_555 1_555
C11 N4 1_555 1_555
C12 C11 1_555 1_555
H10 C12 1_555 1_555
C13 C11 1_555 1_555
H11 C13 1_555 1_555
C14 H12 1_555 1_555
C15 N5 1_555 1_555
H13 C15 1_555 1_555
C16 N6 1_555 1_555
H14 C16 1_555 1_555
C17 N6 1_555 1_555
C18 C5 1_555 1_555
H15 C18 1_555 1_555
Cl1 O1 1_555 1_555
Cl2 C19 1_555 1_555
Cl3 C19 1_555 1_555
Cl4 C19 1_555 1_555
C19 H16 1_555 1_555
O2 Cl1 1_555 1_555
O3 Cl1 1_555 1_555
O4 Cl1 1_555 1_555
Co1_2 N3B 1_555 1_555
Co1A N5 1_555 1_555
Co1A_2 N5B 1_555 1_555
N1B Co1 1_555 1_555
N2B C1B 1_555 1_555
N3B C8B 1_555 1_555
N3B_2 Co1 1_555 1_555
N4B C8B 1_555 1_555
N5B C14B 1_555 1_555
N5A Co1 1_555 1_555
N5C Co1 1_555 1_555
N6B C14B 1_555 1_555
C1B N1B 1_555 1_555
H1B C1B 1_555 1_555
C2B N1B 1_555 1_555
H2B C2B 1_555 1_555
C3B N2B 1_555 1_555
H3B C3B 1_555 1_555
C4B N2B 1_555 1_555
C5B C4B 1_555 1_555
H4B C5B 1_555 1_555
C6B C4B 1_555 1_555
H5B C6B 1_555 1_555
C7B C6B 1_555 1_555
H6B C7B 1_555 1_555
C8B H7B 1_555 1_555
C9B N3B 1_555 1_555
H8B C9B 1_555 1_555
C10B N4B 1_555 1_555
H9B C10B 1_555 1_555
C11B N4B 1_555 1_555
C12B C13 1_555 1_555
H10B C12B 1_555 1_555
C13B C12 1_555 1_555
H11B C13B 1_555 1_555
C14B H12B 1_555 1_555
C15B N5B 1_555 1_555
H13B C15B 1_555 1_555
C16B N6B 1_555 1_555
H14B C16B 1_555 1_555
C17B N6B 1_555 1_555
C18B C5B 1_555 1_555
H15B C18B 1_555 1_555
C2 C3 1_555 1_555
C7 C17 1_555 1_555
C9 C10 1_555 1_555
C15 C16 1_555 1_555
C17 C18 1_555 1_555
C2B C3B 1_555 1_555
C7B C17B 1_555 1_555
C9B C10B 1_555 1_555
C11B C12B 1_555 1_555
C11B C13B 1_555 1_555
C15B C16B 1_555 1_555
C17B C18B 1_555 1_555

#END
