
#######################################################################
#
#                 Cambridge Crystallographic Data Centre
#                                CCDC 
#
#######################################################################
#
# If this CIF has been generated from an entry in the Cambridge 
# Structural Database, then it will include bibliographic, chemical, 
# crystal, experimental, refinement or atomic coordinate data resulting 
# from the CCDC's data processing and validation procedures.
#
#######################################################################

data_VUMDOY
_symmetry_cell_setting           monoclinic
_symmetry_space_group_name_H-M   'C 2/c'
_symmetry_Int_Tables_number      15
_space_group_name_Hall           '-C 2yn'
loop_
_symmetry_equiv_pos_site_id
_symmetry_equiv_pos_as_xyz
1 x,y,z
2 -x,y,1/2-z
3 1/2+x,1/2+y,z
4 1/2-x,1/2+y,1/2-z
5 -x,-y,-z
6 x,-y,1/2+z
7 1/2-x,1/2-y,-z
8 1/2+x,1/2-y,1/2+z
_cell_length_a                   32.834(4)
_cell_length_b                   10.0905(12)
_cell_length_c                   22.446(3)
_cell_angle_alpha                90
_cell_angle_beta                 129.262(4)
_cell_angle_gamma                90
_cell_volume                     5757.88
loop_
_atom_site_label
_atom_site_type_symbol
_atom_site_fract_x
_atom_site_fract_y
_atom_site_fract_z
Mn1 Mn 0.0000 0.0000 1.0000
S1 S 0.02928(4) 0.27679(14) 1.20108(6)
N1 N 0.07918(10) 0.0314(3) 1.02350(15)
N2 N 0.18258(10) -0.0509(3) 0.94621(14)
N3 N 0.18472(10) -0.1250(2) 0.89537(14)
N4 N 0.22813(9) 0.1637(3) 0.88775(13)
N5 N 0.17961(9) 0.1509(3) 0.81205(13)
N6 N 0.03656(10) 0.1744(3) 0.58560(14)
N7 N 0.02659(10) 0.1348(3) 1.09279(15)
C1 C 0.08789(12) -0.0188(3) 0.97735(18)
H1 H 0.0594 -0.0611 0.9313
C2 C 0.13571(12) -0.0131(3) 0.99236(18)
C3 C 0.17758(11) 0.0477(3) 1.06067(17)
H2 H 0.2114 0.0514 1.0742
C4 C 0.16905(12) 0.1019(3) 1.10773(18)
H3 H 0.1968 0.1457 1.1538
C5 C 0.11978(12) 0.0926(3) 1.08796(17)
H4 H 0.1144 0.1310 1.1211
C6 C 0.14154(12) -0.0723(3) 0.93891(18)
H5 H 0.1144 -0.1272 0.8983
C7 C 0.21673(11) -0.0770(3) 0.88663(16)
C8 C 0.24559(11) 0.0520(3) 0.92296(16)
C9 C 0.15604(12) 0.2617(3) 0.78594(18)
H6 H 0.1713 0.3382 0.8177
C10 C 0.10552(12) 0.2739(3) 0.70739(18)
C11 C 0.08234(12) 0.1669(3) 0.65786(18)
H7 H 0.0997 0.0836 0.6758
C12 C 0.01254(13) 0.2926(4) 0.5625(2)
H8 H -0.0201 0.2999 0.5119
C13 C 0.03238(15) 0.4028(4) 0.6078(2)
H9 H 0.0137 0.4843 0.5889
C14 C 0.08016(14) 0.3948(4) 0.6818(2)
H10 H 0.0950 0.4707 0.7141
C15 C 0.22808(11) -0.1545(3) 0.84309(16)
C16 C 0.26985(12) -0.1202(3) 0.84502(17)
H11 H 0.2887 -0.0404 0.8696
C17 C 0.28440(13) -0.2013(4) 0.81132(18)
H12 H 0.3136 -0.1779 0.8140
C18 C 0.25675(14) -0.3154(3) 0.77404(19)
H13 H 0.2671 -0.3717 0.7518
C19 C 0.21429(16) -0.3474(4) 0.7691(2)
H14 H 0.1946 -0.4248 0.7419
C20 C 0.19951(14) -0.2688(3) 0.8032(2)
H15 H 0.1700 -0.2926 0.7994
C21 C 0.29763(11) 0.0489(3) 1.00105(16)
C22 C 0.31576(12) -0.0639(3) 1.04600(16)
H16 H 0.2938 -0.1400 1.0281
C23 C 0.36570(12) -0.0671(3) 1.11699(18)
H17 H 0.3775 -0.1444 1.1481
C24 C 0.39806(14) 0.0410(4) 1.14239(19)
H18 H 0.4328 0.0378 1.1902
C25 C 0.38018(16) 0.1538(4) 1.0987(2)
H19 H 0.4024 0.2294 1.1167
C26 C 0.32994(15) 0.1585(4) 1.0282(2)
H20 H 0.3177 0.2376 0.9985
C27 C 0.02901(11) 0.1948(3) 1.13905(18)
N1A N -0.07918(10) 0.0314(3) 0.47650(15)
N2A N -0.18258(10) -0.0509(3) 0.55379(14)
N3A N -0.18472(10) -0.1250(2) 0.60463(14)
N4A N -0.22813(9) 0.1637(3) 0.61225(13)
N5A N -0.17961(9) 0.1509(3) 0.68795(13)
N6A N -0.03656(10) 0.1744(3) 0.91440(14)
C1A C -0.08789(12) -0.0188(3) 0.52265(18)
H1A H -0.0594 -0.0611 0.5687
C2A C -0.13571(12) -0.0131(3) 0.50764(18)
C3A C -0.17758(11) 0.0477(3) 0.43933(17)
H2A H -0.2114 0.0514 0.4258
C4A C -0.16905(12) 0.1019(3) 0.39227(18)
H3A H -0.1968 0.1457 0.3462
C5A C -0.11978(12) 0.0926(3) 0.41204(17)
H4A H -0.1144 0.1310 0.3789
C6A C -0.14154(12) -0.0723(3) 0.56109(18)
H5A H -0.1144 -0.1272 0.6017
C7A C -0.21673(11) -0.0770(3) 0.61337(16)
C8A C -0.24559(11) 0.0520(3) 0.57704(16)
C9A C -0.15604(12) 0.2617(3) 0.71406(18)
H6A H -0.1713 0.3382 0.6823
C10A C -0.10552(12) 0.2739(3) 0.79261(18)
C11A C -0.08234(12) 0.1669(3) 0.84214(18)
H7A H -0.0997 0.0836 0.8242
C12A C -0.01254(13) 0.2926(4) 0.9375(2)
H8A H 0.0201 0.2999 0.9881
C13A C -0.03238(15) 0.4028(4) 0.8922(2)
H9A H -0.0137 0.4843 0.9111
C14A C -0.08016(14) 0.3948(4) 0.8182(2)
H10A H -0.0950 0.4707 0.7859
C15A C -0.22808(11) -0.1545(3) 0.65691(16)
C16A C -0.26985(12) -0.1202(3) 0.65498(17)
H11A H -0.2887 -0.0404 0.6304
C17A C -0.28440(13) -0.2013(4) 0.68868(18)
H12A H -0.3136 -0.1779 0.6860
C18A C -0.25675(14) -0.3154(3) 0.72596(19)
H13A H -0.2671 -0.3717 0.7482
C19A C -0.21429(16) -0.3474(4) 0.7309(2)
H14A H -0.1946 -0.4248 0.7581
C20A C -0.19951(14) -0.2688(3) 0.6968(2)
H15A H -0.1700 -0.2926 0.7006
C21A C -0.29763(11) 0.0489(3) 0.49895(16)
C22A C -0.31576(12) -0.0639(3) 0.45400(16)
H16A H -0.2938 -0.1400 0.4719
C23A C -0.36570(12) -0.0671(3) 0.38301(18)
H17A H -0.3775 -0.1444 0.3519
C24A C -0.39806(14) 0.0410(4) 0.35761(19)
H18A H -0.4328 0.0378 0.3098
C25A C -0.38018(16) 0.1538(4) 0.4013(2)
H19A H -0.4024 0.2294 0.3833
C26A C -0.32994(15) 0.1585(4) 0.4718(2)
H20A H -0.3177 0.2376 0.5015
S1D S -0.02928(4) -0.27679(14) 0.79892(6)
N7D N -0.02659(10) -0.1348(3) 0.90721(15)
C27D C -0.02901(11) -0.1948(3) 0.86095(18)
Mn1A Mn 0.0000 0.0000 0.5000
N1D N -0.07918(10) -0.0314(3) 0.97650(15)
N6E N 0.03656(10) -0.1744(3) 1.08560(14)
N8 N 0.11007(14) 0.4253(4) 0.0768(2)
C28 C 0.10232(14) 0.5167(4) 0.0415(2)
C29 C 0.09290(17) 0.6384(5) -0.0011(3)
H21 H 0.0814 0.7087 0.0153
H22 H 0.0655 0.6223 -0.0564
H23 H 0.1255 0.6655 0.0091
N9? N 0.4930(4) 0.2817(10) 0.2867(6)
C30? C 0.5078(8) 0.3595(9) 0.2638(14)
C31? C 0.5267(5) 0.4543(11) 0.2433(7)
H24? H 0.5086 0.4475 0.1881
H25? H 0.5645 0.4409 0.2724
H26? H 0.5206 0.5423 0.2548
loop_
_geom_bond_atom_site_label_1
_geom_bond_atom_site_label_2
_geom_bond_site_symmetry_1
_geom_bond_site_symmetry_2
Mn1 N1 1_555 1_555
S1 C27 1_555 1_555
N1 C1 1_555 1_555
N2 N3 1_555 1_555
N3 C7 1_555 1_555
N4 N5 1_555 1_555
N5 C9 1_555 1_555
N6 C11 1_555 1_555
N7 Mn1 1_555 1_555
C1 H1 1_555 1_555
C2 C1 1_555 1_555
C3 C2 1_555 1_555
H2 C3 1_555 1_555
C4 C3 1_555 1_555
H3 C4 1_555 1_555
C5 N1 1_555 1_555
H4 C5 1_555 1_555
C6 N2 1_555 1_555
H5 C6 1_555 1_555
C7 C8 1_555 1_555
C8 N4 1_555 1_555
C9 H6 1_555 1_555
C10 C9 1_555 1_555
C11 C10 1_555 1_555
H7 C11 1_555 1_555
C12 N6 1_555 1_555
H8 C12 1_555 1_555
C13 C12 1_555 1_555
H9 C13 1_555 1_555
C14 C10 1_555 1_555
H10 C14 1_555 1_555
C15 C7 1_555 1_555
C16 C15 1_555 1_555
H11 C16 1_555 1_555
C17 C16 1_555 1_555
H12 C17 1_555 1_555
C18 C17 1_555 1_555
H13 C18 1_555 1_555
C19 C18 1_555 1_555
H14 C19 1_555 1_555
C20 C15 1_555 1_555
H15 C20 1_555 1_555
C21 C8 1_555 1_555
C22 C21 1_555 1_555
H16 C22 1_555 1_555
C23 C22 1_555 1_555
H17 C23 1_555 1_555
C24 C23 1_555 1_555
H18 C24 1_555 1_555
C25 C24 1_555 1_555
H19 C25 1_555 1_555
C26 C21 1_555 1_555
H20 C26 1_555 1_555
C27 N7 1_555 1_555
N8 C28 1_555 1_555
C28 C29 1_555 1_555
C29 H21 1_555 1_555
H22 C29 1_555 1_555
H23 C29 1_555 1_555
N1A C1A 1_555 1_555
N2A N3A 1_555 1_555
N3A C7A 1_555 1_555
N4A N5A 1_555 1_555
N5A C9A 1_555 1_555
N6A Mn1 1_555 1_555
C1A H1A 1_555 1_555
C2A C1A 1_555 1_555
C3A C2A 1_555 1_555
H2A C3A 1_555 1_555
C4A C3A 1_555 1_555
H3A C4A 1_555 1_555
C5A N1A 1_555 1_555
H4A C5A 1_555 1_555
C6A N2A 1_555 1_555
H5A C6A 1_555 1_555
C7A C8A 1_555 1_555
C8A N4A 1_555 1_555
C9A H6A 1_555 1_555
C10A C9A 1_555 1_555
C11A N6A 1_555 1_555
H7A C11A 1_555 1_555
C12A N6A 1_555 1_555
H8A C12A 1_555 1_555
C13A C12A 1_555 1_555
H9A C13A 1_555 1_555
C14A C10A 1_555 1_555
H10A C14A 1_555 1_555
C15A C7A 1_555 1_555
C16A C15A 1_555 1_555
H11A C16A 1_555 1_555
C17A C16A 1_555 1_555
H12A C17A 1_555 1_555
C18A C17A 1_555 1_555
H13A C18A 1_555 1_555
C19A C18A 1_555 1_555
H14A C19A 1_555 1_555
C20A C15A 1_555 1_555
H15A C20A 1_555 1_555
C21A C8A 1_555 1_555
C22A C21A 1_555 1_555
H16A C22A 1_555 1_555
C23A C22A 1_555 1_555
H17A C23A 1_555 1_555
C24A C23A 1_555 1_555
H18A C24A 1_555 1_555
C25A C24A 1_555 1_555
H19A C25A 1_555 1_555
C26A C21A 1_555 1_555
H20A C26A 1_555 1_555
S1D C27D 1_555 1_555
N7D Mn1 1_555 1_555
C27D N7D 1_555 1_555
Mn1A N6 1_555 1_555
N1D Mn1 1_555 1_555
N6E Mn1 1_555 1_555
C2 C6 1_555 1_555
C4 C5 1_555 1_555
C13 C14 1_555 1_555
C19 C20 1_555 1_555
C25 C26 1_555 1_555
N1A Mn1A 1_555 1_555
C2A C6A 1_555 1_555
C4A C5A 1_555 1_555
C10A C11A 1_555 1_555
C13A C14A 1_555 1_555
C19A C20A 1_555 1_555
C25A C26A 1_555 1_555

#END
