
#######################################################################
#
#                 Cambridge Crystallographic Data Centre
#                                CCDC 
#
#######################################################################
#
# If this CIF has been generated from an entry in the Cambridge 
# Structural Database, then it will include bibliographic, chemical, 
# crystal, experimental, refinement or atomic coordinate data resulting 
# from the CCDC's data processing and validation procedures.
#
#######################################################################

data_VUMFOZ
_symmetry_cell_setting           triclinic
_symmetry_space_group_name_H-M   'P -1'
_symmetry_Int_Tables_number      2
_space_group_name_Hall           '-P 1'
loop_
_symmetry_equiv_pos_site_id
_symmetry_equiv_pos_as_xyz
1 x,y,z
2 -x,-y,-z
_cell_length_a                   13.426(3)
_cell_length_b                   18.161(4)
_cell_length_c                   24.972(5)
_cell_angle_alpha                94.763(3)
_cell_angle_beta                 102.297(4)
_cell_angle_gamma                90.479(4)
_cell_volume                     5926.55
loop_
_atom_site_label
_atom_site_type_symbol
_atom_site_fract_x
_atom_site_fract_y
_atom_site_fract_z
O1 O 1.2030(7) 0.0485(5) 1.3252(4)
O2 O 0.6940(8) 0.3290(5) 0.9548(4)
Eu1 Eu 0.55748(5) 0.31828(4) 0.87558(3)
Eu2 Eu 0.89471(5) 0.38512(4) 1.12597(3)
Eu3 Eu 1.59526(5) 0.14661(4) 1.37431(3)
Eu4 Eu 0.08097(5) 0.83897(4) 0.38225(3)
Ba1 Ba 0.62556(7) 0.60913(5) 0.90328(3)
Ba2 Ba 0.71307(6) 0.60499(4) 0.74097(3)
Ba3 Ba 1.20663(7) 0.13643(4) 1.23926(3)
Ba4 Ba 1.11204(7) 0.14074(5) 1.39946(3)
O3 O 0.5079(7) 0.3132(5) 0.7737(4)
O4 O 0.4089(9) 0.2686(6) 0.6934(4)
O5 O 0.3939(13) 0.1460(8) 0.9515(5)
O6 O 0.4875(8) 0.2416(5) 0.9358(4)
O7 O 0.6409(8) 0.2020(5) 0.8620(4)
O8 O 0.7823(9) 0.1376(6) 0.8559(5)
O9 O 0.7190(7) 0.5173(5) 0.8276(4)
O10 O 0.6176(6) 0.4435(5) 0.8623(3)
O11 O 1.1754(7) 0.4192(5) 1.0528(4)
O12 O 1.0440(7) 0.3712(5) 1.0832(3)
O13 O 0.7954(7) 0.4971(5) 1.1343(4)
O14 O 0.7587(8) 0.6154(5) 1.1166(4)
O15 O 0.7827(7) 0.3875(5) 1.0336(4)
O16 O 1.0229(8) 0.1579(6) 1.1624(4)
O17 O 0.9794(7) 0.2776(5) 1.1671(4)
O18 O 0.7273(7) 0.3365(5) 1.1383(4)
O19 O 0.6189(7) 0.3122(5) 1.1927(4)
O20 O 1.0370(7) 0.4363(5) 1.1982(4)
O21 O 1.1139(7) 0.4676(5) 1.2856(4)
O22 O 1.4510(7) 0.0962(5) 1.3010(3)
O23 O 1.3775(7) 0.0642(5) 1.2129(4)
O24 O 1.8693(7) 0.2233(6) 1.3080(4)
O25 O 1.7585(7) 0.2015(5) 1.3614(4)
O26 O 0.4864(7) 0.7458(5) 0.6666(3)
O27 O 0.5359(8) 0.6288(5) 0.6612(4)
O28 O 0.2331(7) 0.8063(5) 0.4474(4)
O29 O 0.2942(7) 0.8574(5) 0.5331(4)
O30 O 1.4431(7) 0.1566(5) 1.4174(4)
O31 O 1.3117(7) 0.1043(5) 1.4452(4)
O32 O 1.7411(8) -0.0793(5) 1.3912(5)
O33 O 1.7008(7) 0.0362(5) 1.3685(4)
O34 O 1.1505(7) -0.2763(5) 1.3466(4)
O35 O 1.2937(8) -0.3310(5) 1.3365(4)
O36 O 1.1283(7) -0.0305(4) 1.3698(4)
O37 O 0.0101(8) 0.8548(5) 0.2848(4)
O38 O -0.0842(8) 0.8142(6) 0.2021(4)
O39 O -0.0844(9) 0.6603(6) 0.4516(4)
O40 O 0.0120(7) 0.7567(5) 0.4394(4)
O41 O 0.5065(8) 0.3966(5) 0.9560(4)
O42 O 0.4027(7) 0.3914(5) 0.8450(4)
O43 O 0.6471(8) 0.5187(6) 0.9951(4)
O44 O 0.4350(8) 0.5391(5) 0.8940(5)
O45 O 0.4620(8) 0.6880(6) 0.9499(4)
O46 O 0.7104(10) 0.7192(8) 0.9868(6)
O47 O 0.5607(7) 0.7484(5) 0.8561(4)
O48 O 0.7736(7) 0.6795(5) 0.8502(4)
O49 O 0.5324(7) 0.5918(5) 0.7862(4)
O50 O 0.6389(10) 0.4753(6) 0.6814(6)
O51 O 0.7487(9) 0.6289(5) 0.6341(4)
O52 O 0.8693(7) 0.7147(5) 0.7419(4)
O53 O 1.2256(9) 0.1629(6) 1.1288(4)
O54 O 0.6360(7) 0.7534(4) 0.7591(3)
O55 O 1.2655(7) 0.2121(5) 1.3502(4)
O56 O 1.0273(7) 0.1340(5) 1.2842(4)
O57 O 1.0510(7) 0.2840(5) 1.3567(4)
O58 O 1.1976(9) 0.2471(7) 1.4819(5)
O59 O 1.1087(9) 0.0722(5) 1.4961(4)
O60 O 0.1010(9) 0.9162(5) 0.4770(4)
O61 O -0.0667(8) 0.9140(5) 0.3835(5)
N1 N 0.4231(9) 0.2189(6) 0.8284(5)
N2 N 0.7208(8) 0.3244(5) 0.8395(4)
N3 N 0.9587(8) 0.5011(6) 1.0912(4)
N4 N 0.8538(9) 0.2606(6) 1.0700(4)
N5 N 0.8646(8) 0.3974(5) 1.2237(4)
N6 N 1.6256(8) 0.1348(6) 1.2759(4)
N7 N 0.3808(8) 0.7331(5) 0.5647(4)
N8 N 1.5337(8) 0.0282(6) 1.4084(4)
N9 N 1.2256(8) -0.1447(5) 1.3354(4)
N10 N -0.0629(8) 0.7498(6) 0.3332(5)
C1 C 0.4394(11) 0.2670(9) 0.7438(6)
C2 C 0.3949(11) 0.2095(8) 0.7739(6)
C3 C 0.3344(12) 0.1515(9) 0.7457(6)
H1 H 0.3157 0.1474 0.7075
C4 C 0.3028(13) 0.1002(10) 0.7758(8)
H2 H 0.2609 0.0603 0.7585
C5 C 0.3341(14) 0.1084(10) 0.8333(8)
H3 H 0.3154 0.0728 0.8542
C6 C 0.3928(12) 0.1693(8) 0.8586(6)
C7 C 0.4254(13) 0.1862(9) 0.9201(7)
C8 C 0.7281(11) 0.1931(7) 0.8515(6)
C9 C 0.7728(11) 0.2630(7) 0.8336(6)
C10 C 0.8592(12) 0.2628(8) 0.8110(6)
H4 H 0.8952 0.2197 0.8077
C11 C 0.8912(11) 0.3293(8) 0.7930(6)
H5 H 0.9467 0.3302 0.7763
C12 C 0.8377(11) 0.3931(8) 0.8009(5)
H6 H 0.8578 0.4382 0.7910
C13 C 0.7517(11) 0.3869(7) 0.8246(5)
C14 C 0.6903(11) 0.4553(8) 0.8384(5)
C15 C 1.0945(11) 0.4233(8) 1.0687(5)
C16 C 1.0464(10) 0.4989(7) 1.0716(5)
C17 C 1.0878(10) 0.5625(8) 1.0564(6)
H7 H 1.1490 0.5612 1.0446
C18 C 1.0355(12) 0.6287(8) 1.0595(6)
H8 H 1.0594 0.6716 1.0481
C19 C 0.9480(12) 0.6287(9) 1.0798(6)
H9 H 0.9136 0.6725 1.0833
C20 C 0.9108(10) 0.5646(7) 1.0949(5)
C21 C 0.8137(11) 0.5593(8) 1.1166(6)
C22 C 0.7492(10) 0.3300(7) 1.0016(5)
C23 C 0.7823(11) 0.2546(7) 1.0227(5)
C24 C 0.7406(13) 0.1867(8) 0.9972(6)
H10 H 0.6904 0.1840 0.9650
C25 C 0.7759(14) 0.1245(9) 1.0210(7)
H11 H 0.7481 0.0787 1.0053
C26 C 0.8535(13) 0.1282(8) 1.0690(7)
H12 H 0.8789 0.0855 1.0844
C27 C 0.8909(10) 0.1972(8) 1.0924(6)
C28 C 0.9727(11) 0.2089(9) 1.1450(5)
C29 C 0.7004(12) 0.3375(8) 1.1854(6)
C30 C 0.7753(10) 0.3771(7) 1.2335(5)
C31 C 0.7529(11) 0.3872(8) 1.2851(6)
H13 H 0.6897 0.3723 1.2906
C32 C 0.8269(13) 0.4204(9) 1.3291(7)
H14 H 0.8144 0.4279 1.3643
C33 C 0.9202(12) 0.4420(8) 1.3179(6)
H15 H 0.9705 0.4653 1.3457
C34 C 0.9371(10) 0.4282(7) 1.2650(5)
C35 C 1.0357(11) 0.4457(8) 1.2482(6)
C36 C 1.4535(11) 0.0852(7) 1.2502(6)
C37 C 1.5538(10) 0.1020(7) 1.2341(5)
C38 C 1.5724(12) 0.0906(9) 1.1820(6)
H16 H 1.5223 0.0686 1.1534
C39 C 1.6655(14) 0.1118(9) 1.1724(7)
H17 H 1.6796 0.1025 1.1376
C40 C 1.7378(12) 0.1470(9) 1.2152(6)
H18 H 1.8004 0.1625 1.2092
C41 C 1.7154(10) 0.1588(7) 1.2669(5)
C42 C 1.7861(11) 0.1961(7) 1.3156(6)
C43 C 0.4878(11) 0.6816(7) 0.6418(6)
C44 C 0.4233(10) 0.6710(7) 0.5820(5)
C45 C 0.4148(13) 0.6058(8) 0.5496(6)
H19 H 0.4454 0.5635 0.5634
C46 C 0.3603(15) 0.6040(9) 0.4968(6)
H20 H 0.3541 0.5606 0.4737
C47 C 0.3147(12) 0.6669(8) 0.4780(6)
H21 H 0.2769 0.6666 0.4421
C48 C 0.3259(10) 0.7305(8) 0.5132(5)
C49 C 0.2797(10) 0.8042(8) 0.4960(6)
C50 C 1.3942(11) 0.1027(8) 1.4300(5)
C51 C 1.4457(10) 0.0274(7) 1.4266(5)
C52 C 1.4053(10) -0.0381(8) 1.4402(5)
H22 H 1.3439 -0.0385 1.4517
C53 C 1.4603(11) -0.1039(8) 1.4360(6)
H23 H 1.4355 -0.1483 1.4448
C54 C 1.5493(11) -0.1012(7) 1.4190(6)
H24 H 1.5859 -0.1440 1.4160
C55 C 1.5867(11) -0.0345(8) 1.4058(5)
C56 C 1.6847(11) -0.0258(8) 1.3866(6)
C57 C 1.2391(11) -0.2763(7) 1.3361(5)
C58 C 1.2778(10) -0.2040(7) 1.3200(6)
C59 C 1.3557(10) -0.1980(8) 1.2929(5)
H25 H 1.3919 -0.2393 1.2846
C60 C 1.3796(11) -0.1292(8) 1.2781(6)
H26 H 1.4306 -0.1240 1.2586
C61 C 1.3274(10) -0.0690(8) 1.2926(6)
H27 H 1.3429 -0.0225 1.2830
C62 C 1.2504(10) -0.0775(7) 1.3219(5)
C63 C 1.1898(10) -0.0139(7) 1.3398(5)
C64 C -0.0532(12) 0.8098(8) 0.2526(6)
C65 C -0.0947(10) 0.7476(7) 0.2787(5)
C66 C -0.1575(11) 0.6886(9) 0.2495(6)
H28 H -0.1787 0.6865 0.2114
C67 C -0.1865(14) 0.6349(10) 0.2780(7)
H29 H -0.2272 0.5953 0.2592
C68 C -0.1571(13) 0.6378(9) 0.3339(7)
H30 H -0.1787 0.6014 0.3533
C69 C -0.0948(11) 0.6958(8) 0.3609(6)
C70 C -0.0546(12) 0.7046(8) 0.4234(6)
O80 O 1.1364(9) -0.0018(6) 1.1830(5)
O81 O 0.9115(8) 0.0593(6) 1.3637(5)
O82 O 0.9487(8) 0.2045(6) 1.4450(4)
Eu3A Eu 0.40474(5) 0.85339(4) 0.62569(3)
Eu4_2 Eu 1.08097(5) -0.16103(4) 1.38225(3)
Ba1A Ba 1.37444(7) 0.39087(5) 1.09672(3)
Ba2A Ba 1.28693(6) 0.39501(4) 1.25903(3)
Ba3A Ba 0.79337(7) 0.86357(4) 0.76074(3)
O11A O 0.8246(7) 0.5808(5) 0.9472(4)
O21A O 0.8861(7) 0.5324(5) 0.7144(4)
O26A O 1.5136(7) 0.2542(5) 1.3334(3)
O29A O 1.7058(7) 0.1426(5) 1.4669(4)
O34_2 O 0.1505(7) 0.7237(5) 0.3466(4)
O36_2 O 0.1283(7) 0.9695(4) 0.3698(4)
O52A O 1.1307(7) 0.2853(5) 1.2581(4)
O54A O 1.3640(7) 0.2466(4) 1.2409(3)
N7A N 1.6192(8) 0.2669(5) 1.4353(4)
N9_2 N 0.2256(8) 0.8553(5) 0.3354(4)
O62 O 0.4046(15) 0.1364(9) 0.0623(7)
O63 O 0.0931(10) 0.2296(7) 0.0323(6)
O64 O 0.5592(9) 0.5453(6) 0.2567(4)
O65 O 0.5919(12) 0.5502(8) 0.3717(6)
O66 O 0.7808(11) 0.5394(7) 0.4488(5)
O67 O 0.6487(12) 0.5848(8) 0.5271(6)
O68 O 0.0964(13) 0.5405(9) 0.4722(7)
O69 O 0.1129(10) 0.5789(6) 0.3738(5)
O70 O 0.5028(10) 0.6957(7) 0.3893(5)
O71 O 0.5938(9) 0.7262(6) 0.5003(5)
O72 O 0.9392(9) 0.9956(6) 0.2569(5)
O73 O 0.9299(11) 0.9378(8) 0.1491(6)
O74 O 0.3474(19) 0.9713(12) 0.1136(8)
O75 O 0.0312(18) 0.3904(11) 0.4421(8)
O76 O 0.486(2) 0.9982(12) 0.0553(9)
O77 O 0.7884(16) 0.9386(11) 0.0529(8)
O78 O 0.9651(18) 0.1533(13) 0.9394(9)
O79 O 0.878(3) 0.9635(17) 0.9573(13)
loop_
_geom_bond_atom_site_label_1
_geom_bond_atom_site_label_2
_geom_bond_site_symmetry_1
_geom_bond_site_symmetry_2
O1 Ba3 1_555 1_555
O2 Eu1 1_555 1_555
Eu1 O3 1_555 1_555
Eu2 O12 1_555 1_555
Eu3 O22 1_555 1_555
Eu4 O28 1_555 1_555
Ba1 O9 1_555 1_555
Ba2 O9 1_555 1_555
Ba3 O16 1_555 1_555
Ba4 O1 1_555 1_555
O3 C1 1_555 1_555
O4 C1 1_555 1_555
O5 C7 1_555 1_555
O6 Eu1 1_555 1_555
O7 Eu1 1_555 1_555
O8 C8 1_555 1_555
O9 C14 1_555 1_555
O10 Eu1 1_555 1_555
O11 C15 1_555 1_555
O12 C15 1_555 1_555
O13 Eu2 1_555 1_555
O14 C21 1_555 1_555
O15 Eu2 1_555 1_555
O16 C28 1_555 1_555
O17 Eu2 1_555 1_555
O18 Eu2 1_555 1_555
O19 C29 1_555 1_555
O20 Eu2 1_555 1_555
O21 C35 1_555 1_555
O22 C36 1_555 1_555
O23 Ba3 1_555 1_555
O24 C42 1_555 1_555
O25 Eu3 1_555 1_555
O26 C43 1_555 1_555
O27 Ba2 1_555 1_555
O28 C49 1_555 1_555
O29 C49 1_555 1_555
O30 Eu3 1_555 1_555
O31 Ba4 1_555 1_555
O32 C56 1_555 1_555
O33 Eu3 1_555 1_555
O34 C57 1_555 1_555
O35 C57 1_555 1_555
O36 Ba4 1_555 1_555
O37 Eu4 1_555 1_555
O38 C64 1_555 1_555
O39 C70 1_555 1_555
O40 Eu4 1_555 1_555
O41 Eu1 1_555 1_555
O42 Eu1 1_555 1_555
O43 Ba1 1_555 1_555
O44 Ba1 1_555 1_555
O45 Ba1 1_555 1_555
O46 Ba1 1_555 1_555
O47 Ba1 1_555 1_555
O48 Ba1 1_555 1_555
O49 Ba1 1_555 1_555
O50 Ba2 1_555 1_555
O51 Ba2 1_555 1_555
O52 Ba2 1_555 1_555
O53 Ba3 1_555 1_555
O54 Ba2 1_555 1_555
O55 Ba3 1_555 1_555
O56 Ba3 1_555 1_555
O57 Ba4 1_555 1_555
O58 Ba4 1_555 1_555
O59 Ba4 1_555 1_555
O60 Eu4 1_555 1_555
O61 Eu4 1_555 1_555
N1 Eu1 1_555 1_555
N2 Eu1 1_555 1_555
N3 Eu2 1_555 1_555
N4 Eu2 1_555 1_555
N5 Eu2 1_555 1_555
N6 Eu3 1_555 1_555
N7 C44 1_555 1_555
N8 Eu3 1_555 1_555
N9 C58 1_555 1_555
N10 Eu4 1_555 1_555
C1 C2 1_555 1_555
C2 N1 1_555 1_555
C3 C2 1_555 1_555
H1 C3 1_555 1_555
C4 C3 1_555 1_555
H2 C4 1_555 1_555
C5 C4 1_555 1_555
H3 C5 1_555 1_555
C6 N1 1_555 1_555
C7 O6 1_555 1_555
C8 O7 1_555 1_555
C9 N2 1_555 1_555
C10 C9 1_555 1_555
H4 C10 1_555 1_555
C11 C10 1_555 1_555
H5 C11 1_555 1_555
C12 C11 1_555 1_555
H6 C12 1_555 1_555
C13 N2 1_555 1_555
C14 O10 1_555 1_555
C15 C16 1_555 1_555
C16 N3 1_555 1_555
C17 C16 1_555 1_555
H7 C17 1_555 1_555
C18 C17 1_555 1_555
H8 C18 1_555 1_555
C19 C18 1_555 1_555
H9 C19 1_555 1_555
C20 N3 1_555 1_555
C21 O13 1_555 1_555
C22 O2 1_555 1_555
C23 N4 1_555 1_555
C24 C23 1_555 1_555
H10 C24 1_555 1_555
C25 C24 1_555 1_555
H11 C25 1_555 1_555
C26 C25 1_555 1_555
H12 C26 1_555 1_555
C27 N4 1_555 1_555
C28 O17 1_555 1_555
C29 O18 1_555 1_555
C30 N5 1_555 1_555
C31 C30 1_555 1_555
H13 C31 1_555 1_555
C32 C31 1_555 1_555
H14 C32 1_555 1_555
C33 C32 1_555 1_555
H15 C33 1_555 1_555
C34 N5 1_555 1_555
C35 O20 1_555 1_555
C36 O23 1_555 1_555
C37 N6 1_555 1_555
C38 C37 1_555 1_555
H16 C38 1_555 1_555
C39 C38 1_555 1_555
H17 C39 1_555 1_555
C40 C39 1_555 1_555
H18 C40 1_555 1_555
C41 N6 1_555 1_555
C42 O25 1_555 1_555
C43 O27 1_555 1_555
C44 C43 1_555 1_555
C45 C44 1_555 1_555
H19 C45 1_555 1_555
C46 C45 1_555 1_555
H20 C46 1_555 1_555
C47 C46 1_555 1_555
H21 C47 1_555 1_555
C48 N7 1_555 1_555
C49 C48 1_555 1_555
C50 O30 1_555 1_555
C51 N8 1_555 1_555
C52 C51 1_555 1_555
H22 C52 1_555 1_555
C53 C52 1_555 1_555
H23 C53 1_555 1_555
C54 C53 1_555 1_555
H24 C54 1_555 1_555
C55 N8 1_555 1_555
C56 O33 1_555 1_555
C57 C58 1_555 1_555
C58 C59 1_555 1_555
C59 H25 1_555 1_555
C60 C59 1_555 1_555
H26 C60 1_555 1_555
C61 C60 1_555 1_555
H27 C61 1_555 1_555
C62 N9 1_555 1_555
C63 O1 1_555 1_555
C64 O37 1_555 1_555
C65 N10 1_555 1_555
C66 C65 1_555 1_555
H28 C66 1_555 1_555
C67 C66 1_555 1_555
H29 C67 1_555 1_555
C68 C67 1_555 1_555
H30 C68 1_555 1_555
C69 N10 1_555 1_555
C70 O40 1_555 1_555
O80 Ba3 1_555 1_555
O81 Ba4 1_555 1_555
O82 Ba4 1_555 1_555
Eu3A O26 1_555 1_555
Eu4_2 O34 1_555 1_555
Ba1A O11 1_555 1_555
Ba2A O21 1_555 1_555
Ba3A O52 1_555 1_555
O11A Ba1 1_555 1_555
O21A Ba2 1_555 1_555
O26A Eu3 1_555 1_555
O29A Eu3 1_555 1_555
O34_2 Eu4 1_555 1_555
O36_2 Eu4 1_555 1_555
O52A Ba3 1_555 1_555
O54A Ba3 1_555 1_555
N7A Eu3 1_555 1_555
N9_2 Eu4 1_555 1_555
Ba1 O10 1_555 1_555
Ba2 O48 1_555 1_555
Ba2 O49 1_555 1_555
Ba4 O55 1_555 1_555
Ba4 O56 1_555 1_555
O15 C22 1_555 1_555
O29 Eu3A 1_555 1_555
O31 C50 1_555 1_555
O36 C63 1_555 1_555
O36 Eu4_2 1_555 1_555
O54 Ba3A 1_555 1_555
N7 Eu3A 1_555 1_555
N9 Eu4_2 1_555 1_555
C5 C6 1_555 1_555
C6 C7 1_555 1_555
C8 C9 1_555 1_555
C12 C13 1_555 1_555
C13 C14 1_555 1_555
C19 C20 1_555 1_555
C20 C21 1_555 1_555
C22 C23 1_555 1_555
C26 C27 1_555 1_555
C27 C28 1_555 1_555
C29 C30 1_555 1_555
C33 C34 1_555 1_555
C34 C35 1_555 1_555
C36 C37 1_555 1_555
C40 C41 1_555 1_555
C41 C42 1_555 1_555
C47 C48 1_555 1_555
C50 C51 1_555 1_555
C54 C55 1_555 1_555
C55 C56 1_555 1_555
C61 C62 1_555 1_555
C62 C63 1_555 1_555
C64 C65 1_555 1_555
C68 C69 1_555 1_555
C69 C70 1_555 1_555
Ba2A O52A 1_555 1_555
Ba2A O54A 1_555 1_555

#END
