
#######################################################################
#
#                 Cambridge Crystallographic Data Centre
#                                CCDC 
#
#######################################################################
#
# If this CIF has been generated from an entry in the Cambridge 
# Structural Database, then it will include bibliographic, chemical, 
# crystal, experimental, refinement or atomic coordinate data resulting 
# from the CCDC's data processing and validation procedures.
#
#######################################################################

data_VUMGOA
_symmetry_cell_setting           monoclinic
_symmetry_space_group_name_H-M   'P 21/c'
_symmetry_Int_Tables_number      14
_space_group_name_Hall           '-P 2ybc'
loop_
_symmetry_equiv_pos_site_id
_symmetry_equiv_pos_as_xyz
1 x,y,z
2 -x,1/2+y,1/2-z
3 -x,-y,-z
4 x,1/2-y,1/2+z
_cell_length_a                   10.1928(12)
_cell_length_b                   21.094(3)
_cell_length_c                   15.4861(19)
_cell_angle_alpha                90
_cell_angle_beta                 106.661(2)
_cell_angle_gamma                90
_cell_volume                     3189.83
loop_
_atom_site_label
_atom_site_type_symbol
_atom_site_fract_x
_atom_site_fract_y
_atom_site_fract_z
Dy1 Dy 0.999077(19) 0.410450(9) 0.748692(13)
Ba1 Ba 0.56418(3) 0.423180(13) 0.414780(18)
O1 O 0.8210(3) 0.33163(16) 0.7079(2)
O2 O 0.6605(4) 0.2715(2) 0.7377(2)
O3 O 1.1120(3) 0.45430(16) 0.8940(2)
O4 O 1.1503(4) 0.4558(2) 1.0432(2)
O5 O 0.9020(3) 0.42945(17) 0.5906(2)
O6 O 0.8409(4) 0.3964(2) 0.4489(2)
O7 O 1.1562(3) 0.32822(16) 0.8207(2)
O8 O 1.2908(3) 0.24568(17) 0.8196(2)
O9 O 1.2153(3) 0.44859(16) 0.7312(2)
O10 O 1.3603(3) 0.52660(17) 0.7283(2)
O11 O 0.7928(3) 0.47058(15) 0.7433(2)
O12 O 0.6776(3) 0.56141(17) 0.7309(2)
O13 O 0.3422(4) 0.3564(2) 0.4535(3)
H1 H 0.2675 0.3509 0.4123
H2 H 0.3513 0.3421 0.5062
O14 O 0.5559(3) 0.45222(17) 0.5917(2)
H3 H 0.5010 0.4212 0.6119
H4 H 0.6476 0.4519 0.6330
O15 O 0.6467(4) 0.3161(2) 0.5291(3)
H5 H 0.6488 0.2795 0.5064
H6 H 0.6693 0.3207 0.5860
O16 O 0.7476(6) 0.5274(2) 0.4924(4)
H7 H 0.7601 0.5574 0.4589
H8 H 0.7887 0.5279 0.5486
O17 O 0.5174(3) 0.31830(17) 0.3003(3)
H9 H 0.4903 0.3233 0.2435
H10 H 0.5304 0.2812 0.3224
O18 O 1.3543(5) 0.5282(3) 0.9488(3)
H11 H 1.2787 0.5047 0.9096
H12 H 1.3273 0.5723 0.9491
N1 N 0.9116(3) 0.37199(18) 0.8728(2)
N2 N 1.0648(4) 0.33381(18) 0.6467(2)
N3 N 1.0174(3) 0.52753(17) 0.7345(2)
C1 C 0.7583(5) 0.3090(2) 0.7610(3)
C2 C 0.8068(5) 0.3314(2) 0.8569(3)
C3 C 0.7526(6) 0.3119(3) 0.9242(3)
H13 H 0.6829 0.2819 0.9126
C4 C 0.8032(6) 0.3376(3) 1.0090(4)
H14 H 0.7658 0.3262 1.0549
C5 C 0.9097(5) 0.3803(3) 1.0252(3)
H15 H 0.9449 0.3982 1.0821
C6 C 0.9635(4) 0.3960(2) 0.9557(3)
C7 C 1.0858(5) 0.4393(2) 0.9662(3)
C8 C 0.9090(5) 0.3919(3) 0.5291(3)
C9 C 1.0090(4) 0.3378(2) 0.5573(3)
C10 C 1.0424(5) 0.2960(3) 0.4983(3)
H16 H 1.0025 0.3001 0.4365
C11 C 1.1347(6) 0.2487(3) 0.5314(4)
H17 H 1.1598 0.2208 0.4924
C12 C 1.1906(5) 0.2427(2) 0.6241(3)
H18 H 1.2516 0.2102 0.6484
C13 C 1.1529(4) 0.2865(2) 0.6794(3)
C14 C 1.2049(4) 0.2871(2) 0.7815(3)
C15 C 1.2473(4) 0.5055(2) 0.7307(3)
C16 C 1.1386(4) 0.5534(2) 0.7356(3)
C17 C 1.1607(5) 0.6180(2) 0.7437(3)
H19 H 1.2464 0.6350 0.7479
C18 C 1.0506(6) 0.6572(2) 0.7456(3)
H20 H 1.0618 0.7010 0.7496
C19 C 0.9262(5) 0.6305(2) 0.7413(3)
H21 H 0.8515 0.6558 0.7414
C20 C 0.9142(4) 0.5654(2) 0.7370(3)
C21 C 0.7834(4) 0.5309(2) 0.7371(3)
Ba2 Ba 1.41738(7) 0.48194(4) 1.11158(5)
O19 O 1.5319(9) 0.6040(5) 1.1552(7)
O21 O 1.4352(8) 0.3767(4) 1.1181(5)
Ba1B Ba 1.43582(3) 0.576820(13) 0.585220(18)
Ba1B_2 Ba 0.43582(3) 0.576820(13) 0.585220(18)
O10B O 0.6397(3) 0.47340(17) 0.2717(2)
O10B_2 O 1.6397(3) 0.47340(17) 1.2717(2)
O12B O 0.3224(3) 0.43859(17) 0.2691(2)
O12B_2 O 1.3224(3) 0.43859(17) 1.2691(2)
O14B O 0.4441(3) 0.54778(17) 0.4083(2)
H3B H 0.4990 0.5788 0.3881
H4B H 0.3524 0.5481 0.3670
O18B O 1.6457(5) 0.4718(3) 1.0512(3)
H11B H 1.7213 0.4953 1.0904
H12B H 1.6727 0.4277 1.0509
Ba2B Ba 1.58262(7) 0.51806(4) 0.88842(5)
Ba2B_2 Ba 0.58262(7) 0.51806(4) 0.88842(5)
O20 O 0.4064(10) 0.3982(6) 0.9408(6)
O22 O 0.4121(6) 0.3650(3) 0.6565(4)
O23 O 0.5367(7) 0.7936(4) 0.5160(4)
loop_
_geom_bond_atom_site_label_1
_geom_bond_atom_site_label_2
_geom_bond_site_symmetry_1
_geom_bond_site_symmetry_2
Dy1 O1 1_555 1_555
Ba1 O6 1_555 1_555
O1 C1 1_555 1_555
O2 C1 1_555 1_555
O3 Dy1 1_555 1_555
O4 C7 1_555 1_555
O5 Dy1 1_555 1_555
O6 C8 1_555 1_555
O7 Dy1 1_555 1_555
O8 C14 1_555 1_555
O9 Dy1 1_555 1_555
O10 C15 1_555 1_555
O11 Dy1 1_555 1_555
O12 C21 1_555 1_555
O13 Ba1 1_555 1_555
H1 O13 1_555 1_555
H2 O13 1_555 1_555
O14 Ba1 1_555 1_555
H3 O14 1_555 1_555
H4 O14 1_555 1_555
O15 Ba1 1_555 1_555
H5 O15 1_555 1_555
H6 O15 1_555 1_555
O16 Ba1 1_555 1_555
H7 O16 1_555 1_555
H8 O16 1_555 1_555
O17 Ba1 1_555 1_555
H9 O17 1_555 1_555
H10 O17 1_555 1_555
O18 H11 1_555 1_555
H12 O18 1_555 1_555
N1 Dy1 1_555 1_555
N2 Dy1 1_555 1_555
N3 Dy1 1_555 1_555
C1 C2 1_555 1_555
C2 N1 1_555 1_555
C3 C2 1_555 1_555
H13 C3 1_555 1_555
C4 C3 1_555 1_555
H14 C4 1_555 1_555
C5 C4 1_555 1_555
H15 C5 1_555 1_555
C6 N1 1_555 1_555
C7 O3 1_555 1_555
C8 O5 1_555 1_555
C9 N2 1_555 1_555
C10 C9 1_555 1_555
H16 C10 1_555 1_555
C11 C10 1_555 1_555
H17 C11 1_555 1_555
C12 C11 1_555 1_555
H18 C12 1_555 1_555
C13 N2 1_555 1_555
C14 O7 1_555 1_555
C15 O9 1_555 1_555
C16 N3 1_555 1_555
C17 C16 1_555 1_555
H19 C17 1_555 1_555
C18 C17 1_555 1_555
H20 C18 1_555 1_555
C19 C18 1_555 1_555
H21 C19 1_555 1_555
C20 N3 1_555 1_555
C21 O11 1_555 1_555
Ba2 O4 1_555 1_555
O19 Ba2 1_555 1_555
O21 Ba2 1_555 1_555
Ba1B O10 1_555 1_555
Ba1B_2 O12 1_555 1_555
O10B Ba1 1_555 1_555
O10B_2 Ba2 1_555 1_555
O12B Ba1 1_555 1_555
O12B_2 Ba2 1_555 1_555
O14B Ba1 1_555 1_555
H3B O14B 1_555 1_555
H4B O14B 1_555 1_555
O18B Ba2 1_555 1_555
H11B O18B 1_555 1_555
H12B O18B 1_555 1_555
Ba2B O10 1_555 1_555
Ba2B_2 O12 1_555 1_555
O14 Ba1B_2 1_555 1_555
O18 Ba2 1_555 1_555
O18 Ba2B 1_555 1_555
C5 C6 1_555 1_555
C6 C7 1_555 1_555
C8 C9 1_555 1_555
C12 C13 1_555 1_555
C13 C14 1_555 1_555
C15 C16 1_555 1_555
C19 C20 1_555 1_555
C20 C21 1_555 1_555
Ba1B_2 O14B 1_555 1_555
O18B Ba2B 1_555 1_555

#END
