
#######################################################################
#
#                 Cambridge Crystallographic Data Centre
#                                CCDC 
#
#######################################################################
#
# If this CIF has been generated from an entry in the Cambridge 
# Structural Database, then it will include bibliographic, chemical, 
# crystal, experimental, refinement or atomic coordinate data resulting 
# from the CCDC's data processing and validation procedures.
#
#######################################################################

data_VUMGEQ
_symmetry_cell_setting           monoclinic
_symmetry_space_group_name_H-M   'P 21/n'
_symmetry_Int_Tables_number      14
_space_group_name_Hall           '-P 2yn'
loop_
_symmetry_equiv_pos_site_id
_symmetry_equiv_pos_as_xyz
1 x,y,z
2 1/2-x,1/2+y,1/2-z
3 -x,-y,-z
4 1/2+x,1/2-y,1/2+z
_cell_length_a                   12.8071(14)
_cell_length_b                   10.7274(12)
_cell_length_c                   29.754(3)
_cell_angle_alpha                90
_cell_angle_beta                 99.518(2)
_cell_angle_gamma                90
_cell_volume                     4031.54
loop_
_atom_site_label
_atom_site_type_symbol
_atom_site_fract_x
_atom_site_fract_y
_atom_site_fract_z
Tb1 Tb 0.85222(2) 0.09446(3) 0.113946(11)
Ba1 Ba 0.37494(3) 0.07639(4) 0.149542(15)
Ba2 Ba 0.48518(3) 0.29598(4) 0.041650(15)
Ba3 Ba 1.23086(3) -0.04417(4) 0.266500(16)
O1 O 0.7267(3) 0.2562(4) 0.08399(17)
O2 O 0.6771(4) 0.4153(4) 0.03781(18)
O3 O 1.0096(4) 0.0284(5) 0.08661(19)
O4 O 1.1243(4) 0.0423(5) 0.0373(2)
O5 O 0.9587(4) -0.0029(4) 0.18021(16)
O6 O 1.0554(4) -0.1630(5) 0.21035(19)
O7 O 0.7400(3) -0.0063(4) 0.05078(16)
O8 O 0.6602(4) -0.1747(5) 0.01744(18)
O9 O 0.9797(4) 0.2577(4) 0.14358(17)
O10 O 1.0366(4) 0.4097(4) 0.19279(19)
O11 O 0.6943(3) 0.0315(4) 0.14213(17)
O12 O 0.5754(4) 0.0558(4) 0.18817(17)
O13 O 0.3664(4) -0.1230(4) 0.20456(18)
O14 O 0.3191(4) -0.2878(4) 0.24126(19)
O15 O 0.3786(4) -0.6759(4) 0.17867(19)
O16 O 0.4990(3) -0.7056(4) 0.13333(16)
O17 O 0.3551(5) 0.4891(6) 0.0721(2)
O18 O 0.4808(5) 0.5788(5) 0.0445(2)
O19 O 0.3666(5) 0.6920(5) 0.0732(2)
O20 O 0.5919(4) 0.1285(4) -0.00909(17)
H1 H 0.5971 0.0518 -0.0018
H2 H 0.6188 0.1551 -0.0316
O21 O 0.4984(4) 0.0430(4) 0.07845(17)
H3 H 0.4670 -0.0177 0.0561
H4 H 0.5708 0.0192 0.0903
O22 O 0.2876(4) 0.2190(5) 0.07319(18)
H5 H 0.2480 0.2899 0.0816
H6 H 0.2426 0.1693 0.0505
O23 O 0.2535(5) -0.1018(6) 0.0965(3)
H7 H 0.2481 -0.1001 0.0676
H8 H 0.2219 -0.1581 0.1092
O24 O 0.3993(3) 0.1084(4) 0.24711(16)
H9 H 0.4675 0.0786 0.2624
H10 H 0.3901 0.1947 0.2554
O25 O 0.1769(4) 0.0840(5) 0.1743(2)
H11 H 0.1250 0.0375 0.1534
H12 H 0.1523 0.1687 0.1770
O26 O 1.2965(5) 0.1026(7) 0.3580(3)
H13 H 1.3402 0.1626 0.3593
H14 H 1.2705 0.0823 0.3814
N1 N 0.8945(4) 0.2116(5) 0.0474(2)
N2 N 0.8545(4) -0.1397(5) 0.11504(18)
N3 N 0.8101(4) 0.2176(5) 0.18041(19)
N4 N 0.4321(4) -0.4351(5) 0.19033(19)
N5 N 0.3996(6) 0.5878(7) 0.0632(3)
C1 C 0.7388(5) 0.3310(6) 0.0520(3)
C2 C 0.8344(5) 0.3092(6) 0.0299(2)
C3 C 0.8599(6) 0.3785(8) -0.0056(3)
H17 H 0.8183 0.4461 -0.0170
C4 C 0.9471(7) 0.3465(9) -0.0240(3)
H18 H 0.9657 0.3930 -0.0479
C5 C 1.0071(6) 0.2460(8) -0.0072(3)
H19 H 1.0654 0.2221 -0.0201
C6 C 0.9800(5) 0.1814(7) 0.0287(3)
C7 C 1.0440(6) 0.0739(7) 0.0524(3)
C8 C 0.9838(5) -0.1163(7) 0.1822(2)
C9 C 0.9201(5) -0.2016(6) 0.1468(2)
C10 C 0.9275(6) -0.3303(7) 0.1462(3)
H20 H 0.9739 -0.3719 0.1686
C11 C 0.8657(6) -0.3953(7) 0.1124(3)
H21 H 0.8702 -0.4818 0.1115
C12 C 0.7955(5) -0.3319(6) 0.0790(3)
H22 H 0.7521 -0.3748 0.0559
C13 C 0.7929(5) -0.2039(6) 0.0815(2)
C14 C 0.7252(5) -0.1222(6) 0.0466(2)
C15 C 0.9708(5) 0.3298(6) 0.1764(3)
C16 C 0.8701(5) 0.3151(6) 0.1964(2)
C17 C 0.8373(6) 0.3962(7) 0.2275(3)
H23 H 0.8786 0.4649 0.2379
C18 C 0.7450(7) 0.3750(9) 0.2426(3)
H24 H 0.7213 0.4302 0.2628
C19 C 0.6859(6) 0.2701(7) 0.2276(3)
H25 H 0.6246 0.2508 0.2391
C20 C 0.7195(5) 0.1964(6) 0.1959(2)
C21 C 0.6570(5) 0.0863(6) 0.1740(2)
C22 C 0.3740(5) -0.2352(7) 0.2150(3)
C23 C 0.4527(5) -0.3127(6) 0.1943(2)
C24 C 0.5364(6) -0.2605(7) 0.1779(3)
H26 H 0.5485 -0.1750 0.1800
C25 C 0.6018(6) -0.3368(7) 0.1584(3)
H27 H 0.6622 -0.3039 0.1493
C26 C 0.5794(6) -0.4612(7) 0.1520(3)
H28 H 0.6214 -0.5128 0.1373
C27 C 0.4917(5) -0.5065(6) 0.1684(2)
C28 C 0.4541(5) -0.6405(6) 0.1602(2)
Ba1_2 Ba 0.37494(3) -0.92361(4) 0.149542(15)
Ba2B Ba 0.51482(3) -0.29598(4) -0.041650(15)
Ba2_2 Ba 0.48518(3) -0.70402(4) 0.041650(15)
Ba2B_2 Ba 0.51482(3) 0.70402(4) -0.041650(15)
Ba3A Ba 1.26914(3) 0.45583(4) 0.233500(16)
Ba3_2 Ba 0.23086(3) -0.04417(4) 0.266500(16)
Ba3A_2 Ba 0.26914(3) -0.54417(4) 0.233500(16)
O8B O 0.3398(4) 0.1747(5) -0.01744(18)
O10A O 1.4634(4) -0.0903(4) 0.30721(19)
O13_2 O 1.3664(4) -0.1230(4) 0.20456(18)
O14_2 O 1.3191(4) -0.2878(4) 0.24126(19)
O14A O 1.1809(4) 0.2122(4) 0.25874(19)
O15_2 O 0.3786(4) 0.3241(4) 0.17867(19)
O15A O 1.1214(4) -0.1759(4) 0.32133(19)
O16_2 O 0.4990(3) 0.2944(4) 0.13333(16)
O18B O 0.5192(5) 0.4212(5) -0.0445(2)
O24_2 O 1.3993(3) 0.1084(4) 0.24711(16)
H9_2 H 1.4675 0.0786 0.2624
H10_2 H 1.3901 0.1947 0.2554
O25_2 O 1.1769(4) 0.0840(5) 0.1743(2)
H11_2 H 1.1250 0.0375 0.1534
H12_2 H 1.1523 0.1687 0.1770
N4A N 1.0679(4) 0.0649(5) 0.30967(19)
O27 O 0.1293(5) 0.3694(7) 0.0978(3)
H15 H 0.1536 0.4218 0.1186
H16 H 0.1513 0.3764 0.0724
loop_
_geom_bond_atom_site_label_1
_geom_bond_atom_site_label_2
_geom_bond_site_symmetry_1
_geom_bond_site_symmetry_2
Tb1 O1 1_555 1_555
Ba1 O12 1_555 1_555
Ba2 O1 1_555 1_555
Ba3 O6 1_555 1_555
O1 C1 1_555 1_555
O2 Ba2 1_555 1_555
O3 Tb1 1_555 1_555
O4 C7 1_555 1_555
O5 Tb1 1_555 1_555
O6 C8 1_555 1_555
O7 Tb1 1_555 1_555
O8 C14 1_555 1_555
O9 Tb1 1_555 1_555
O10 C15 1_555 1_555
O11 Tb1 1_555 1_555
O12 C21 1_555 1_555
O13 Ba1 1_555 1_555
O14 C22 1_555 1_555
O15 C28 1_555 1_555
O16 C28 1_555 1_555
O17 Ba2 1_555 1_555
O18 Ba2 1_555 1_555
O19 N5 1_555 1_555
O20 Ba2 1_555 1_555
H1 O20 1_555 1_555
H2 O20 1_555 1_555
O21 Ba1 1_555 1_555
H3 O21 1_555 1_555
H4 O21 1_555 1_555
O22 Ba1 1_555 1_555
H5 O22 1_555 1_555
H6 O22 1_555 1_555
O23 Ba1 1_555 1_555
H7 O23 1_555 1_555
H8 O23 1_555 1_555
O24 Ba1 1_555 1_555
H9 O24 1_555 1_555
H10 O24 1_555 1_555
O25 Ba1 1_555 1_555
H11 O25 1_555 1_555
H12 O25 1_555 1_555
O26 Ba3 1_555 1_555
H13 O26 1_555 1_555
H14 O26 1_555 1_555
O27 H15 1_555 1_555
H16 O27 1_555 1_555
N1 Tb1 1_555 1_555
N2 Tb1 1_555 1_555
N3 Tb1 1_555 1_555
N4 C23 1_555 1_555
N5 O17 1_555 1_555
C1 O2 1_555 1_555
C2 N1 1_555 1_555
C3 C2 1_555 1_555
H17 C3 1_555 1_555
C4 C3 1_555 1_555
H18 C4 1_555 1_555
C5 C4 1_555 1_555
H19 C5 1_555 1_555
C6 N1 1_555 1_555
C7 O3 1_555 1_555
C8 O5 1_555 1_555
C9 N2 1_555 1_555
C10 C9 1_555 1_555
H20 C10 1_555 1_555
C11 C10 1_555 1_555
H21 C11 1_555 1_555
C12 C11 1_555 1_555
H22 C12 1_555 1_555
C13 N2 1_555 1_555
C14 O7 1_555 1_555
C15 O9 1_555 1_555
C16 N3 1_555 1_555
C17 C16 1_555 1_555
H23 C17 1_555 1_555
C18 C17 1_555 1_555
H24 C18 1_555 1_555
C19 C18 1_555 1_555
H25 C19 1_555 1_555
C20 N3 1_555 1_555
C21 O11 1_555 1_555
C22 O13 1_555 1_555
C23 C22 1_555 1_555
C24 C23 1_555 1_555
H26 C24 1_555 1_555
C25 C24 1_555 1_555
H27 C25 1_555 1_555
C26 C25 1_555 1_555
H28 C26 1_555 1_555
C27 N4 1_555 1_555
C28 C27 1_555 1_555
Ba1_2 O15 1_555 1_555
Ba2B O8 1_555 1_555
Ba2_2 O16 1_555 1_555
Ba2B_2 O18 1_555 1_555
Ba3A O10 1_555 1_555
Ba3_2 O13 1_555 1_555
Ba3A_2 O14 1_555 1_555
O8B Ba2 1_555 1_555
O10A Ba3 1_555 1_555
O13_2 Ba3 1_555 1_555
O14_2 Ba3 1_555 1_555
O14A Ba3 1_555 1_555
O15_2 Ba1 1_555 1_555
O15A Ba3 1_555 1_555
O16_2 Ba1 1_555 1_555
O18B Ba2 1_555 1_555
O24_2 Ba3 1_555 1_555
H9_2 O24_2 1_555 1_555
H10_2 O24_2 1_555 1_555
O25_2 Ba3 1_555 1_555
H11_2 O25_2 1_555 1_555
H12_2 O25_2 1_555 1_555
N4A Ba3 1_555 1_555
Ba2 O21 1_555 1_555
Ba2 O22 1_555 1_555
Ba2 O16_2 1_555 1_555
O14 Ba3_2 1_555 1_555
O15 Ba3A_2 1_555 1_555
O16 Ba1_2 1_555 1_555
O18 N5 1_555 1_555
O24 Ba3_2 1_555 1_555
O25 Ba3_2 1_555 1_555
N4 Ba3A_2 1_555 1_555
C1 C2 1_555 1_555
C5 C6 1_555 1_555
C6 C7 1_555 1_555
C8 C9 1_555 1_555
C12 C13 1_555 1_555
C13 C14 1_555 1_555
C15 C16 1_555 1_555
C19 C20 1_555 1_555
C20 C21 1_555 1_555
C26 C27 1_555 1_555
Ba2B_2 O18B 1_555 1_555
Ba3A O14A 1_555 1_555

#END
