
#######################################################################
#
#                 Cambridge Crystallographic Data Centre
#                                CCDC 
#
#######################################################################
#
# If this CIF has been generated from an entry in the Cambridge 
# Structural Database, then it will include bibliographic, chemical, 
# crystal, experimental, refinement or atomic coordinate data resulting 
# from the CCDC's data processing and validation procedures.
#
#######################################################################

data_VUMPOJ
_symmetry_cell_setting           monoclinic
_symmetry_space_group_name_H-M   'P 21'
_symmetry_Int_Tables_number      4
_space_group_name_Hall           'P 2yb'
loop_
_symmetry_equiv_pos_site_id
_symmetry_equiv_pos_as_xyz
1 x,y,z
2 -x,1/2+y,-z
_cell_length_a                   11.242(2)
_cell_length_b                   9.752(2)
_cell_length_c                   14.864(3)
_cell_angle_alpha                90
_cell_angle_beta                 98.648(3)
_cell_angle_gamma                90
_cell_volume                     1611.04
loop_
_atom_site_label
_atom_site_type_symbol
_atom_site_fract_x
_atom_site_fract_y
_atom_site_fract_z
Cd1 Cd 0.67158(5) 0.9642(3) 0.42806(4)
Cd2 Cd 1.03356(5) 0.5832(3) 0.20930(4)
C1 C 0.8735(7) 0.9458(11) 0.3114(6)
C2 C 0.9428(7) 0.8668(10) 0.2628(6)
C3 C 0.8504(7) 0.7320(9) 0.3466(6)
C4 C 0.8540(8) 1.0929(11) 0.3127(6)
C5 C 1.0191(8) 0.9010(14) 0.1938(7)
C6 C 0.8127(8) 0.6096(10) 0.3931(6)
H1 H 0.7263 0.6137 0.3919
H2 H 0.8298 0.5291 0.3589
C7 C 0.8709(12) 0.5918(16) 0.4894(8)
H3 H 0.8536 0.6714 0.5244
H4 H 0.9574 0.5867 0.4913
C8 C 0.8271(16) 0.462(2) 0.5335(11)
H5 H 0.7474 0.4390 0.5043
H6 H 0.8259 0.4780 0.5970
H7 H 0.8806 0.3870 0.5265
C9 C 0.4439(7) 0.8409(10) 0.3074(6)
C10 C 0.4487(7) 0.7674(10) 0.3932(5)
C11 C 0.5228(7) 0.7146(10) 0.5319(6)
C12 C 0.5975(8) 0.7161(13) 0.6216(6)
H8 H 0.6733 0.7617 0.6179
H9 H 0.6145 0.6229 0.6425
C13 C 0.5247(17) 0.798(3) 0.6928(10)
H10 H 0.5052 0.8906 0.6724
H11 H 0.4512 0.7501 0.7007
C14 C 0.3753(7) 0.6693(10) 0.4248(6)
C15 C 0.2656(7) 0.5992(10) 0.3825(6)
C16 C 0.7590(10) 0.5003(14) 0.1501(10)
H12 H 0.7583 0.5081 0.2124
C17 C 0.6511(14) 0.4941(13) 0.0904(9)
H13 H 0.5820 0.4984 0.1177
C18 C 0.6311(10) 0.4826(10) -0.0045(9)
C19 C 0.7425(8) 0.4761(15) -0.0335(8)
H14 H 0.7443 0.4658 -0.0955
C20 C 0.8515(8) 0.4841(15) 0.0242(6)
H15 H 0.9212 0.4819 -0.0023
C21 C 0.1696(11) 0.385(2) 0.0844(12)
H16 H 0.1440 0.3225 0.1246
C22 C 0.2337(14) 0.325(3) 0.0178(17)
H17 H 0.2530 0.2330 0.0142
C23 C 0.2639(10) 0.432(3) -0.0435(10)
C24 C 0.2359(12) 0.559(3) -0.0315(10)
H18 H 0.2559 0.6273 -0.0699
C25 C 0.1743(9) 0.589(2) 0.0411(9)
H19 H 0.1555 0.6808 0.0474
N1 N 0.8161(6) 0.8585(8) 0.3631(5)
N2 N 0.9282(7) 0.7324(9) 0.2850(5)
N3 N 0.5420(6) 0.7958(8) 0.4616(5)
N4 N 0.4239(6) 0.6356(8) 0.5123(5)
N5 N 0.8647(7) 0.4948(10) 0.1174(5)
N6 N 0.1412(7) 0.5105(14) 0.0984(7)
O1 O 1.0636(6) 0.8047(9) 0.1537(4)
O2 O 1.0381(7) 1.0279(9) 0.1787(6)
O3 O 0.9188(7) 1.1707(8) 0.2690(6)
H20 H 0.9587 1.1230 0.2392
O4 O 0.7769(7) 1.1413(8) 0.3565(6)
O5 O 0.2212(6) 0.5063(7) 0.4229(4)
O6 O 0.5227(6) 0.9235(7) 0.2946(4)
O7 O 0.3545(6) 0.8154(9) 0.2415(4)
H21 H 0.3097 0.7580 0.2587
O8 O 0.2207(5) 0.6388(7) 0.3006(4)
O9 O 1.0474(9) 0.3964(9) 0.2993(6)
H22 H 0.9991 0.3384 0.2768
C26 C 0.603(5) 0.797(6) 0.769(4)
H23 H 0.5926 0.7151 0.8031
H24 H 0.5906 0.8758 0.8051
H25 H 0.6836 0.7989 0.7545
C27 C 0.5071(9) 0.4769(11) -0.0686(8)
H26 H 0.4481 0.5358 -0.0466
H27 H 0.5151 0.5028 -0.1304
C28 C 0.4743(13) 0.3295(14) -0.0628(12)
H28 H 0.4773 0.2951 -0.0012
H29 H 0.5156 0.2687 -0.0995
C29 C 0.3447(12) 0.376(3) -0.1097(10)
H30 H 0.3537 0.4463 -0.1544
H31 H 0.3047 0.2983 -0.1419
H32 H 1.098(15) 0.46(3) 0.348(12)
Cd1A Cd 0.32842(5) 0.4642(3) 0.57194(4)
Cd2_2 Cd 0.03356(5) 0.5832(3) 0.20930(4)
N4A N 0.5761(6) 1.1356(8) 0.4877(5)
N6_2 N 1.1412(7) 0.5105(14) 0.0984(7)
O5A O 0.7788(6) 1.0063(7) 0.5771(4)
O8_2 O 1.2207(5) 0.6388(7) 0.3006(4)
loop_
_geom_bond_atom_site_label_1
_geom_bond_atom_site_label_2
_geom_bond_site_symmetry_1
_geom_bond_site_symmetry_2
Cd1 N1 1_555 1_555
Cd2 N2 1_555 1_555
C1 C2 1_555 1_555
C2 C5 1_555 1_555
C3 C6 1_555 1_555
C4 C1 1_555 1_555
C5 O1 1_555 1_555
C6 H1 1_555 1_555
H2 C6 1_555 1_555
C7 C6 1_555 1_555
H3 C7 1_555 1_555
H4 C7 1_555 1_555
C8 C7 1_555 1_555
H5 C8 1_555 1_555
H6 C8 1_555 1_555
H7 C8 1_555 1_555
C9 C10 1_555 1_555
C10 C14 1_555 1_555
C11 C12 1_555 1_555
C12 H8 1_555 1_555
H9 C12 1_555 1_555
C13 C12 1_555 1_555
H10 C13 1_555 1_555
H11 C13 1_555 1_555
C14 C15 1_555 1_555
C15 O5 1_555 1_555
C16 H12 1_555 1_555
C17 C16 1_555 1_555
H13 C17 1_555 1_555
C18 C17 1_555 1_555
C19 C18 1_555 1_555
H14 C19 1_555 1_555
C20 C19 1_555 1_555
H15 C20 1_555 1_555
C21 H16 1_555 1_555
C22 C21 1_555 1_555
H17 C22 1_555 1_555
C23 C22 1_555 1_555
C24 C23 1_555 1_555
H18 C24 1_555 1_555
C25 C24 1_555 1_555
H19 C25 1_555 1_555
N1 C1 1_555 1_555
N2 C2 1_555 1_555
N3 Cd1 1_555 1_555
N4 C11 1_555 1_555
N5 Cd2 1_555 1_555
N6 C21 1_555 1_555
O1 Cd2 1_555 1_555
O2 C5 1_555 1_555
O3 C4 1_555 1_555
H20 O3 1_555 1_555
O4 Cd1 1_555 1_555
O5 Cd1A 1_555 1_555
O6 Cd1 1_555 1_555
O7 C9 1_555 1_555
H21 O7 1_555 1_555
O8 C15 1_555 1_555
O9 Cd2 1_555 1_555
H22 O9 1_555 1_555
C26 C13 1_555 1_555
H23 C26 1_555 1_555
H24 C26 1_555 1_555
H25 C26 1_555 1_555
C27 C18 1_555 1_555
H26 C27 1_555 1_555
H27 C27 1_555 1_555
C28 C27 1_555 1_555
H28 C28 1_555 1_555
H29 C28 1_555 1_555
C29 C23 1_555 1_555
H30 C29 1_555 1_555
H31 C29 1_555 1_555
H32 O9 1_555 1_555
Cd1A N4 1_555 1_555
Cd2_2 N6 1_555 1_555
N4A Cd1 1_555 1_555
N6_2 Cd2 1_555 1_555
O5A Cd1 1_555 1_555
O8_2 Cd2 1_555 1_555
C3 N1 1_555 1_555
C3 N2 1_555 1_555
C4 O4 1_555 1_555
C9 O6 1_555 1_555
C10 N3 1_555 1_555
C11 N3 1_555 1_555
C14 N4 1_555 1_555
C16 N5 1_555 1_555
C20 N5 1_555 1_555
C25 N6 1_555 1_555
O8 Cd2_2 1_555 1_555
C28 C29 1_555 1_555

#END
