
#######################################################################
#
#                 Cambridge Crystallographic Data Centre
#                                CCDC 
#
#######################################################################
#
# If this CIF has been generated from an entry in the Cambridge 
# Structural Database, then it will include bibliographic, chemical, 
# crystal, experimental, refinement or atomic coordinate data resulting 
# from the CCDC's data processing and validation procedures.
#
#######################################################################

data_VUMQEA
_symmetry_cell_setting           monoclinic
_symmetry_space_group_name_H-M   'C 2/c'
_symmetry_Int_Tables_number      15
_space_group_name_Hall           '-C 2yn'
loop_
_symmetry_equiv_pos_site_id
_symmetry_equiv_pos_as_xyz
1 x,y,z
2 -x,y,1/2-z
3 1/2+x,1/2+y,z
4 1/2-x,1/2+y,1/2-z
5 -x,-y,-z
6 x,-y,1/2+z
7 1/2-x,1/2-y,-z
8 1/2+x,1/2-y,1/2+z
_cell_length_a                   14.137(2)
_cell_length_b                   9.7816(16)
_cell_length_c                   11.3998(18)
_cell_angle_alpha                90
_cell_angle_beta                 127.9890(10)
_cell_angle_gamma                90
_cell_volume                     1242.4
loop_
_atom_site_label
_atom_site_type_symbol
_atom_site_fract_x
_atom_site_fract_y
_atom_site_fract_z
Zn1 Zn 0.5000 0.38587(2) 0.2500
N1 N 0.35047(8) 0.48699(12) 0.11027(10)
N2 N 0.29025(8) 0.54022(12) 0.15976(10)
C1 C 0.19494(9) 0.59428(13) 0.03906(12)
N3 N 0.18393(9) 0.58356(13) -0.08576(11)
C2 C 0.28489(10) 0.51472(15) -0.03401(12)
H1 H 0.3066 0.4891 -0.0931
N4 N 0.02803(8) 0.77203(12) 0.12724(10)
N5 N -0.06318(8) 0.74082(14) -0.02037(11)
C3 C -0.01138(10) 0.67396(17) -0.06797(13)
H2 H -0.0510 0.6398 -0.1638
N6 N 0.10845(8) 0.66259(12) 0.04385(10)
C4 C 0.12960(9) 0.72482(14) 0.16304(12)
H3 H 0.2042 0.7331 0.2559
Zn1B Zn 0.0000 0.88587(2) 0.2500
Zn1B_2 Zn 1.0000 0.88587(2) 0.2500
N1A N 0.64953(8) 0.48699(12) 0.38973(10)
N2A N 0.70975(8) 0.54022(12) 0.34024(10)
C1A C 0.80506(9) 0.59428(13) 0.46094(12)
N3A N 0.81607(9) 0.58356(13) 0.58576(11)
C2A C 0.71511(10) 0.51472(15) 0.53401(12)
H1A H 0.6934 0.4891 0.5931
N4A N 0.97197(8) 0.77203(12) 0.37276(10)
N4B N 0.52803(8) 0.27203(12) 0.12724(10)
N4C N 0.47197(8) 0.27203(12) 0.37276(10)
N5A N 1.06318(8) 0.74082(14) 0.52037(11)
C3A C 1.01138(10) 0.67396(17) 0.56797(13)
H2A H 1.0510 0.6398 0.6638
N6A N 0.89155(8) 0.66259(12) 0.45615(10)
C4A C 0.87040(9) 0.72482(14) 0.33696(12)
H3A H 0.7958 0.7331 0.2441
loop_
_geom_bond_atom_site_label_1
_geom_bond_atom_site_label_2
_geom_bond_site_symmetry_1
_geom_bond_site_symmetry_2
Zn1 N1 1_555 1_555
N1 N2 1_555 1_555
N2 C1 1_555 1_555
C1 N3 1_555 1_555
N3 C2 1_555 1_555
C2 N1 1_555 1_555
H1 C2 1_555 1_555
N4 N5 1_555 1_555
N5 C3 1_555 1_555
C3 H2 1_555 1_555
N6 C1 1_555 1_555
C4 N4 1_555 1_555
H3 C4 1_555 1_555
Zn1B N4 1_555 1_555
Zn1B_2 N4A 1_555 1_555
N1A Zn1 1_555 1_555
N2A N1A 1_555 1_555
C1A N2A 1_555 1_555
N3A C1A 1_555 1_555
C2A N1A 1_555 1_555
H1A C2A 1_555 1_555
N4A N5A 1_555 1_555
N4B Zn1 1_555 1_555
N4C Zn1 1_555 1_555
N5A C3A 1_555 1_555
C3A H2A 1_555 1_555
N6A C1A 1_555 1_555
C4A N4A 1_555 1_555
H3A C4A 1_555 1_555
C3 N6 1_555 1_555
N6 C4 1_555 1_555
N3A C2A 1_555 1_555
C3A N6A 1_555 1_555
N6A C4A 1_555 1_555

#END
