
#######################################################################
#
#                 Cambridge Crystallographic Data Centre
#                                CCDC 
#
#######################################################################
#
# If this CIF has been generated from an entry in the Cambridge 
# Structural Database, then it will include bibliographic, chemical, 
# crystal, experimental, refinement or atomic coordinate data resulting 
# from the CCDC's data processing and validation procedures.
#
#######################################################################

data_VUMVOQ
_symmetry_cell_setting           monoclinic
_symmetry_space_group_name_H-M   'P 21'
_symmetry_Int_Tables_number      4
_space_group_name_Hall           'P 2yb'
loop_
_symmetry_equiv_pos_site_id
_symmetry_equiv_pos_as_xyz
1 x,y,z
2 -x,1/2+y,-z
_cell_length_a                   11.2551(11)
_cell_length_b                   7.5431(7)
_cell_length_c                   13.1330(13)
_cell_angle_alpha                90
_cell_angle_beta                 103.567(2)
_cell_angle_gamma                90
_cell_volume                     1083.86
loop_
_atom_site_label
_atom_site_type_symbol
_atom_site_fract_x
_atom_site_fract_y
_atom_site_fract_z
S1 S -0.29658(5) 0.30165(8) 0.57573(4)
Na1 Na 0.42966(9) 0.22172(14) 0.41937(7)
O1 O 0.45890(16) 0.1919(3) 0.72187(16)
O2 O -0.3589(2) 0.1032(4) 1.01904(17)
O3 O -0.35331(18) 0.3555(3) 0.93363(16)
O4 O 0.32797(18) 0.3370(3) 0.53279(15)
O5 O -0.38393(16) 0.1688(3) 0.52382(14)
O6 O -0.3592(2) 0.4503(3) 0.60857(17)
O7 O -0.21135(19) 0.3481(4) 0.51426(15)
O8 O 0.4214(2) 0.3634(3) 0.26872(16)
C1 C 0.1923(2) 0.0154(4) 0.8167(2)
H1 H 0.2151 0.0621 0.8874
H2 H 0.1653 -0.1060 0.8207
C2 C 0.3039(2) 0.0168(4) 0.7697(2)
H3 H 0.3685 -0.0532 0.8134
H4 H 0.2829 -0.0373 0.7008
C3 C 0.3496(2) 0.2026(4) 0.76057(19)
H5 H 0.3732 0.2514 0.8316
C4 C 0.2532(2) 0.3290(3) 0.69533(17)
C5 C 0.13527(19) 0.3146(3) 0.73848(16)
H6 H 0.1591 0.3628 0.8097
C6 C 0.0317(2) 0.4352(3) 0.68136(19)
H7 H 0.0645 0.5506 0.6702
H8 H -0.0057 0.3848 0.6134
C7 C -0.0648(2) 0.4565(3) 0.7449(2)
H9 H -0.1314 0.5270 0.7044
H10 H -0.0290 0.5223 0.8081
C8 C -0.11776(19) 0.2825(3) 0.77629(16)
C9 C -0.0105(2) 0.1501(3) 0.81968(17)
H11 H 0.0352 0.2045 0.8849
C10 C 0.08575(19) 0.1258(3) 0.75221(17)
C11 C -0.0582(2) -0.0258(4) 0.85410(19)
H12 H -0.0909 -0.0973 0.7925
H13 H 0.0096 -0.0902 0.8977
C12 C -0.1557(2) -0.0005(4) 0.91385(19)
H14 H -0.1819 -0.0976 0.9464
C13 C -0.2046(2) 0.1554(4) 0.92111(17)
C14 C -0.1723(2) 0.3222(4) 0.87168(17)
H15 H -0.1100 0.3847 0.9240
C15 C -0.2916(3) 0.4264(4) 0.8567(2)
H16 H -0.2751 0.5519 0.8685
H17 H -0.3414 0.4102 0.7863
C16 C -0.3114(3) 0.1956(4) 0.9640(2)
C17 C -0.21580(19) 0.1891(3) 0.68996(16)
H18 H -0.2767 0.1418 0.7240
H19 H -0.1761 0.0881 0.6664
C18 C 0.0338(2) 0.0292(4) 0.64794(19)
H20 H 0.0998 -0.0088 0.6183
H21 H -0.0183 0.1083 0.6002
H22 H -0.0125 -0.0721 0.6604
C19 C 0.3025(2) 0.5197(4) 0.7129(2)
H23 H 0.3867 0.5218 0.7095
H24 H 0.2955 0.5604 0.7805
H25 H 0.2558 0.5958 0.6596
C20 C 0.2275(2) 0.2880(4) 0.57711(17)
H26 H 0.2116 0.1622 0.5663
H27 H 0.1549 0.3517 0.5411
H28 H 0.448(3) 0.250(5) 0.670(2)
H29 H 0.331(3) 0.442(2) 0.529(2)
H30 H 0.443(3) 0.466(3) 0.269(2)
H31 H 0.420(4) 0.304(5) 0.215(2)
Na1_2 Na -0.57034(9) 0.22172(14) 0.41937(7)
Na1A Na -0.42966(9) 0.72172(14) 0.58063(7)
O5_2 O 0.61607(16) 0.1688(3) 0.52382(14)
O6A O 0.3592(2) -0.0497(3) 0.39143(17)
O9 O 0.4210(3) 0.2578(3) 0.0637(2)
H32 H 0.483(3) 0.206(5) 0.057(3)
H33 H 0.412(4) 0.351(4) 0.034(3)
loop_
_geom_bond_atom_site_label_1
_geom_bond_atom_site_label_2
_geom_bond_site_symmetry_1
_geom_bond_site_symmetry_2
S1 O5 1_555 1_555
Na1 O4 1_555 1_555
O1 C3 1_555 1_555
O2 C16 1_555 1_555
O3 C15 1_555 1_555
O4 C20 1_555 1_555
O5 Na1_2 1_555 1_555
O6 S1 1_555 1_555
O7 S1 1_555 1_555
O8 Na1 1_555 1_555
C1 H1 1_555 1_555
H2 C1 1_555 1_555
C2 C1 1_555 1_555
H3 C2 1_555 1_555
H4 C2 1_555 1_555
C3 C2 1_555 1_555
H5 C3 1_555 1_555
C4 C3 1_555 1_555
C5 C4 1_555 1_555
H6 C5 1_555 1_555
C6 C5 1_555 1_555
H7 C6 1_555 1_555
H8 C6 1_555 1_555
C7 C6 1_555 1_555
H9 C7 1_555 1_555
H10 C7 1_555 1_555
C8 C7 1_555 1_555
C9 C8 1_555 1_555
H11 C9 1_555 1_555
C10 C1 1_555 1_555
C11 C9 1_555 1_555
H12 C11 1_555 1_555
H13 C11 1_555 1_555
C12 C11 1_555 1_555
H14 C12 1_555 1_555
C13 C12 1_555 1_555
C14 C8 1_555 1_555
H15 C14 1_555 1_555
C15 C14 1_555 1_555
H16 C15 1_555 1_555
H17 C15 1_555 1_555
C16 O3 1_555 1_555
C17 S1 1_555 1_555
H18 C17 1_555 1_555
H19 C17 1_555 1_555
C18 C10 1_555 1_555
H20 C18 1_555 1_555
H21 C18 1_555 1_555
H22 C18 1_555 1_555
C19 C4 1_555 1_555
H23 C19 1_555 1_555
H24 C19 1_555 1_555
H25 C19 1_555 1_555
C20 C4 1_555 1_555
H26 C20 1_555 1_555
H27 C20 1_555 1_555
H28 O1 1_555 1_555
H29 O4 1_555 1_555
H30 O8 1_555 1_555
H31 O8 1_555 1_555
O9 H32 1_555 1_555
H33 O9 1_555 1_555
Na1A O6 1_555 1_555
O5_2 Na1 1_555 1_555
O6A Na1 1_555 1_555
C5 C10 1_555 1_555
C8 C17 1_555 1_555
C9 C10 1_555 1_555
C13 C14 1_555 1_555
C13 C16 1_555 1_555

#END
