
#######################################################################
#
#                 Cambridge Crystallographic Data Centre
#                                CCDC 
#
#######################################################################
#
# If this CIF has been generated from an entry in the Cambridge 
# Structural Database, then it will include bibliographic, chemical, 
# crystal, experimental, refinement or atomic coordinate data resulting 
# from the CCDC's data processing and validation procedures.
#
#######################################################################

data_VUMXUY
_symmetry_cell_setting           monoclinic
_symmetry_space_group_name_H-M   'C 2/c'
_symmetry_Int_Tables_number      15
_space_group_name_Hall           '-C 2yn'
loop_
_symmetry_equiv_pos_site_id
_symmetry_equiv_pos_as_xyz
1 x,y,z
2 -x,y,1/2-z
3 1/2+x,1/2+y,z
4 1/2-x,1/2+y,1/2-z
5 -x,-y,-z
6 x,-y,1/2+z
7 1/2-x,1/2-y,-z
8 1/2+x,1/2-y,1/2+z
_cell_length_a                   7.8089(4)
_cell_length_b                   17.5619(8)
_cell_length_c                   9.1480(5)
_cell_angle_alpha                90
_cell_angle_beta                 114.512(5)
_cell_angle_gamma                90
_cell_volume                     1141.48
loop_
_atom_site_label
_atom_site_type_symbol
_atom_site_fract_x
_atom_site_fract_y
_atom_site_fract_z
Ba1 Ba 0.0000 0.470779(13) 0.7500
Ba2 Ba -0.5000 0.568443(14) 0.7500
O1 O 0.0000 0.3156(2) 0.7500
O2 O 0.3240(3) 0.54404(12) 0.9668(3)
O3 O 0.2980(3) 0.56693(12) 1.1962(3)
O4 O -0.0796(3) 0.58697(12) 0.9265(3)
O5 O -0.2485(3) 0.69282(13) 0.8547(3)
C1 C 0.2950(4) 0.5878(2) 1.0636(3)
C2 C -0.0936(4) 0.6596(2) 0.9103(3)
C3 C 0.2644(4) 0.67156(15) 1.0235(3)
C4 C 0.0864(4) 0.7051(2) 0.9590(3)
C5 C 0.0755(5) 0.7840(2) 0.9376(4)
H1 H -0.0159(63) 0.8011(24) 0.9042(49)
H2 H 0.0889(54) 0.2925(22) 0.7775(49)
H2A H -0.0889(54) 0.2925(22) 0.7225(49)
O2F O 0.1760(3) 0.95596(12) 1.0332(3)
O3F O 0.2020(3) 0.93307(12) 0.8038(3)
O4F O 0.5796(3) 0.91303(12) 1.0735(3)
O5F O 0.7485(3) 0.80718(13) 1.1453(3)
C1F C 0.2050(4) 0.9122(2) 0.9364(3)
C2F C 0.5936(4) 0.8404(2) 1.0897(3)
C3F C 0.2356(4) 0.82844(15) 0.9765(3)
C4F C 0.4136(4) 0.7949(2) 1.0410(3)
C5F C 0.4245(5) 0.7160(2) 1.0624(4)
H1F H 0.5159(63) 0.6989(24) 1.0958(49)
Ba1B Ba 0.5000 0.970779(13) 0.7500
Ba1D Ba 0.0000 0.529221(13) 1.2500
Ba1F Ba 0.5000 1.029221(13) 1.2500
Ba2_2 Ba 0.5000 0.568443(14) 0.7500
Ba2B Ba 0.0000 1.068443(14) 0.7500
Ba2D Ba 0.5000 0.431557(14) 1.2500
Ba2F Ba 0.0000 0.931557(14) 1.2500
Ba2F_2 Ba 1.0000 0.931557(14) 1.2500
O2_2 O -0.6760(3) 0.54404(12) 0.9668(3)
O2A O -0.3240(3) 0.54404(12) 0.5332(3)
O2D O -0.3240(3) 0.45596(12) 1.0332(3)
O2E O -0.6760(3) 0.45596(12) 0.4668(3)
O3D O -0.2980(3) 0.43307(12) 0.8038(3)
O3E O -0.7020(3) 0.43307(12) 0.6962(3)
O3E_2 O 0.2980(3) 0.43307(12) 0.6962(3)
O4A O -0.9204(3) 0.58697(12) 0.5735(3)
O4A_2 O 0.0796(3) 0.58697(12) 0.5735(3)
O4D O 0.0796(3) 0.41303(12) 1.0735(3)
O4E O -0.0796(3) 0.41303(12) 0.4265(3)
O5A O -0.7515(3) 0.69282(13) 0.6453(3)
loop_
_geom_bond_atom_site_label_1
_geom_bond_atom_site_label_2
_geom_bond_site_symmetry_1
_geom_bond_site_symmetry_2
Ba1 O1 1_555 1_555
Ba2 O4 1_555 1_555
O1 H2 1_555 1_555
O2 Ba1 1_555 1_555
O3 C1 1_555 1_555
O4 Ba1 1_555 1_555
O5 Ba2 1_555 1_555
C1 O2 1_555 1_555
C2 O4 1_555 1_555
C3 C1 1_555 1_555
C4 C2 1_555 1_555
C5 C4 1_555 1_555
H1 C5 1_555 1_555
H2A O1 1_555 1_555
O2F C1F 1_555 1_555
O3F C1F 1_555 1_555
O4F C2F 1_555 1_555
O5F C2F 1_555 1_555
C1F C3F 1_555 1_555
C2F C4F 1_555 1_555
C3F C5 1_555 1_555
C4F C3F 1_555 1_555
C5F C3 1_555 1_555
H1F C5F 1_555 1_555
Ba1B O3F 1_555 1_555
Ba1D O3 1_555 1_555
Ba1F O2F 1_555 1_555
Ba2_2 O2 1_555 1_555
Ba2B O2F 1_555 1_555
Ba2D O2 1_555 1_555
Ba2F O2F 1_555 1_555
Ba2F_2 O4F 1_555 1_555
O2_2 Ba2 1_555 1_555
O2A Ba1 1_555 1_555
O2D Ba2 1_555 1_555
O2E Ba2 1_555 1_555
O3D Ba1 1_555 1_555
O3E Ba2 1_555 1_555
O3E_2 Ba1 1_555 1_555
O4A Ba2 1_555 1_555
O4A_2 Ba1 1_555 1_555
O4D Ba1 1_555 1_555
O4E Ba1 1_555 1_555
O5A Ba2 1_555 1_555
Ba2 O2A 1_555 1_555
Ba2 O3D 1_555 1_555
O3 Ba2D 1_555 1_555
O4 Ba1D 1_555 1_555
O5 C2 1_555 1_555
C3 C4 1_555 1_555
O3F Ba2B 1_555 1_555
O4F Ba1B 1_555 1_555
O4F Ba1F 1_555 1_555
O5F Ba2F_2 1_555 1_555
C4F C5F 1_555 1_555
Ba1D O2D 1_555 1_555
Ba1D O4D 1_555 1_555
Ba2_2 O3E_2 1_555 1_555
Ba2_2 O4A_2 1_555 1_555
Ba2D O4D 1_555 1_555

#END
