
#######################################################################
#
#                 Cambridge Crystallographic Data Centre
#                                CCDC 
#
#######################################################################
#
# If this CIF has been generated from an entry in the Cambridge 
# Structural Database, then it will include bibliographic, chemical, 
# crystal, experimental, refinement or atomic coordinate data resulting 
# from the CCDC's data processing and validation procedures.
#
#######################################################################

data_VUMYEJ
_symmetry_cell_setting           triclinic
_symmetry_space_group_name_H-M   'P -1'
_symmetry_Int_Tables_number      2
_space_group_name_Hall           '-P 1'
loop_
_symmetry_equiv_pos_site_id
_symmetry_equiv_pos_as_xyz
1 x,y,z
2 -x,-y,-z
_cell_length_a                   11.0226(15)
_cell_length_b                   11.5954(16)
_cell_length_c                   14.884(2)
_cell_angle_alpha                107.126(2)
_cell_angle_beta                 108.410(2)
_cell_angle_gamma                117.568(2)
_cell_volume                     1362.91
loop_
_atom_site_label
_atom_site_type_symbol
_atom_site_fract_x
_atom_site_fract_y
_atom_site_fract_z
Zn1 Zn 0.45903(8) 0.39358(8) 0.28446(5)
O1 O 0.2591(5) 0.3698(5) 0.2281(4)
O2 O 0.3365(6) 0.4701(6) 0.1331(4)
O3 O 0.0075(7) 0.1635(7) -0.0318(4)
O4 O -0.2158(7) 0.1267(6) -0.1396(4)
H1 H -0.2487 0.0477 -0.1947
O5 O 0.4802(6) 0.6327(5) 0.5887(4)
O6 O 0.6961(6) 0.8754(6) 0.7013(4)
O7 O 0.8333(7) 1.1786(6) 0.5178(5)
O8 O 0.6629(10) 1.0704(10) 0.3417(7)
H2 H 0.7263 1.1464 0.3410
N1 N 0.6613(6) 0.6120(6) 0.3613(4)
N2 N 0.4740(7) 0.2578(6) 0.1736(4)
C1 C 0.2451(8) 0.4256(7) 0.1660(5)
C2 C 0.1136(7) 0.4442(7) 0.1428(5)
C3 C -0.0381(8) 0.3406(7) 0.0431(5)
C4 C -0.1515(9) 0.3658(8) 0.0278(6)
H3 H -0.2535 0.2951 -0.0372
C5 C -0.1163(9) 0.4945(10) 0.1077(7)
H4 H -0.1929 0.5115 0.0957
C6 C 0.0340(8) 0.5972(8) 0.2053(5)
H5 H 0.0575 0.6831 0.2596
C7 C 0.1504(8) 0.5744(7) 0.2238(5)
C8 C -0.0772(8) 0.2034(7) -0.0444(6)
C9 C 0.3158(7) 0.6923(7) 0.3260(5)
C10 C 0.4261(8) 0.8228(8) 0.3323(5)
H6 H 0.3966 0.8358 0.2724
C11 C 0.5811(8) 0.9351(7) 0.4276(5)
C12 C 0.6229(8) 0.9181(7) 0.5176(5)
H7 H 0.7247 0.9948 0.5821
C13 C 0.5168(8) 0.7899(7) 0.5135(5)
C14 C 0.3617(8) 0.6759(7) 0.4169(5)
H8 H 0.2891 0.5887 0.4138
C15 C 0.5692(8) 0.7674(7) 0.6086(5)
C16 C 0.7008(10) 1.0722(9) 0.4310(7)
C17 C 0.7070(10) 0.6750(9) 0.3056(6)
H9 H 0.6481 0.6147 0.2284
C18 C 0.8380(10) 0.8260(9) 0.3565(6)
H10 H 0.8643 0.8652 0.3136
C19 C 0.9297(7) 0.9187(7) 0.4709(5)
C20 C 0.8849(8) 0.8507(7) 0.5284(6)
H11 H 0.9451 0.9072 0.6057
C21 C 0.7508(8) 0.6986(7) 0.4720(5)
H12 H 0.7226 0.6558 0.5128
C22 C 0.3509(9) 0.1475(9) 0.0722(6)
H13 H 0.2565 0.1386 0.0468
C23 C 0.3563(10) 0.0440(9) 0.0016(6)
H14 H 0.2664 -0.0328 -0.0698
C24 C 0.4936(8) 0.0545(8) 0.0367(5)
C25 C 0.6233(11) 0.1730(12) 0.1425(7)
H15 H 0.7212 0.1883 0.1691
C26 C 0.6063(10) 0.2674(11) 0.2073(7)
H16 H 0.6930 0.3434 0.2799
N1A N 1.3387(6) 1.3880(6) 0.6387(4)
C17A C 1.2930(10) 1.3250(9) 0.6944(6)
H9A H 1.3519 1.3853 0.7716
C18A C 1.1620(10) 1.1740(9) 0.6435(6)
H10A H 1.1357 1.1348 0.6864
C19A C 1.0703(7) 1.0813(7) 0.5291(5)
C20A C 1.1151(8) 1.1493(7) 0.4716(6)
H11A H 1.0549 1.0928 0.3943
C21A C 1.2492(8) 1.3014(7) 0.5280(5)
H12A H 1.2774 1.3442 0.4872
N2A N 0.5260(7) -0.2578(6) -0.1736(4)
C22A C 0.6491(9) -0.1475(9) -0.0722(6)
H13A H 0.7435 -0.1386 -0.0468
C23A C 0.6437(10) -0.0440(9) -0.0016(6)
H14A H 0.7336 0.0328 0.0698
C24A C 0.5064(8) -0.0545(8) -0.0367(5)
C25A C 0.3767(11) -0.1730(12) -0.1425(7)
H15A H 0.2788 -0.1883 -0.1691
C26A C 0.3937(10) -0.2674(11) -0.2073(7)
H16A H 0.3070 -0.3434 -0.2799
Zn1A Zn 0.54097(8) -0.39358(8) -0.28446(5)
O1A O 0.7409(5) -0.3698(5) -0.2281(4)
O2A O 0.6635(6) -0.4701(6) -0.1331(4)
O3A O 0.9925(7) -0.1635(7) 0.0318(4)
O4A O 1.2158(7) -0.1267(6) 0.1396(4)
H1A H 1.2487 -0.0477 0.1947
O5A O 0.5198(6) -0.6327(5) -0.5887(4)
O6A O 0.3039(6) -0.8754(6) -0.7013(4)
O7A O 0.1667(7) -1.1786(6) -0.5178(5)
O8A O 0.3371(10) -1.0704(10) -0.3417(7)
H2A H 0.2737 -1.1464 -0.3410
C1A C 0.7549(8) -0.4256(7) -0.1660(5)
C2A C 0.8864(7) -0.4442(7) -0.1428(5)
C3A C 1.0381(8) -0.3406(7) -0.0431(5)
C4A C 1.1515(9) -0.3658(8) -0.0278(6)
H3A H 1.2535 -0.2951 0.0372
C5A C 1.1163(9) -0.4945(10) -0.1077(7)
H4A H 1.1929 -0.5115 -0.0957
C6A C 0.9660(8) -0.5972(8) -0.2053(5)
H5A H 0.9425 -0.6831 -0.2596
C7A C 0.8496(8) -0.5744(7) -0.2238(5)
C8A C 1.0772(8) -0.2034(7) 0.0444(6)
C9A C 0.6842(7) -0.6923(7) -0.3260(5)
C10A C 0.5739(8) -0.8228(8) -0.3323(5)
H6A H 0.6034 -0.8358 -0.2724
C11A C 0.4189(8) -0.9351(7) -0.4276(5)
C12A C 0.3771(8) -0.9181(7) -0.5176(5)
H7A H 0.2753 -0.9948 -0.5821
C13A C 0.4832(8) -0.7899(7) -0.5135(5)
C14A C 0.6383(8) -0.6759(7) -0.4169(5)
H8A H 0.7109 -0.5887 -0.4138
C15A C 0.4308(8) -0.7674(7) -0.6086(5)
C16A C 0.2992(10) -1.0722(9) -0.4310(7)
Zn1_2 Zn 0.45903(8) -0.60642(8) -0.71554(5)
Zn1A_2 Zn 0.54097(8) 0.60642(8) 0.71554(5)
Zn1A_3 Zn 1.54097(8) 1.60642(8) 0.71554(5)
O5_2 O 0.4802(6) -0.3673(5) -0.4113(4)
O5A_2 O 0.5198(6) 0.3673(5) 0.4113(4)
N1A_2 N 0.3387(6) -0.6120(6) -0.3613(4)
O9 O 0.0111(9) 0.2497(10) 0.2762(7)
H17 H 0.0859 0.2955 0.2661
H18 H -0.0197 0.1600 0.2531
O10 O -0.0626(13) -0.0320(12) 0.1943(7)
H19 H -0.0408 -0.0590 0.1466
H20 H -0.1618 -0.0940 0.1687
loop_
_geom_bond_atom_site_label_1
_geom_bond_atom_site_label_2
_geom_bond_site_symmetry_1
_geom_bond_site_symmetry_2
Zn1 O1 1_555 1_555
O1 C1 1_555 1_555
O2 C1 1_555 1_555
O3 C8 1_555 1_555
O4 H1 1_555 1_555
O5 C15 1_555 1_555
O6 C15 1_555 1_555
O7 C16 1_555 1_555
O8 H2 1_555 1_555
N1 Zn1 1_555 1_555
N2 Zn1 1_555 1_555
C1 C2 1_555 1_555
C2 C3 1_555 1_555
C3 C4 1_555 1_555
C4 H3 1_555 1_555
C5 C4 1_555 1_555
H4 C5 1_555 1_555
C6 C5 1_555 1_555
H5 C6 1_555 1_555
C7 C2 1_555 1_555
C8 O4 1_555 1_555
C9 C7 1_555 1_555
C10 C9 1_555 1_555
H6 C10 1_555 1_555
C11 C10 1_555 1_555
C12 C11 1_555 1_555
H7 C12 1_555 1_555
C13 C12 1_555 1_555
C14 C9 1_555 1_555
H8 C14 1_555 1_555
C15 C13 1_555 1_555
C16 O8 1_555 1_555
C17 N1 1_555 1_555
H9 C17 1_555 1_555
C18 C17 1_555 1_555
H10 C18 1_555 1_555
C19 C18 1_555 1_555
C20 C19 1_555 1_555
H11 C20 1_555 1_555
C21 N1 1_555 1_555
H12 C21 1_555 1_555
C22 N2 1_555 1_555
H13 C22 1_555 1_555
C23 C22 1_555 1_555
H14 C23 1_555 1_555
C24 C23 1_555 1_555
C25 C24 1_555 1_555
H15 C25 1_555 1_555
C26 N2 1_555 1_555
H16 C26 1_555 1_555
O9 H17 1_555 1_555
H18 O9 1_555 1_555
O10 H19 1_555 1_555
H20 O10 1_555 1_555
N1A C17A 1_555 1_555
C17A H9A 1_555 1_555
C18A C17A 1_555 1_555
H10A C18A 1_555 1_555
C19A C19 1_555 1_555
C20A C19A 1_555 1_555
H11A C20A 1_555 1_555
C21A N1A 1_555 1_555
H12A C21A 1_555 1_555
N2A C22A 1_555 1_555
C22A H13A 1_555 1_555
C23A C22A 1_555 1_555
H14A C23A 1_555 1_555
C24A C24 1_555 1_555
C25A C24A 1_555 1_555
H15A C25A 1_555 1_555
C26A N2A 1_555 1_555
H16A C26A 1_555 1_555
Zn1A N2A 1_555 1_555
O1A Zn1A 1_555 1_555
O2A C1A 1_555 1_555
O3A C8A 1_555 1_555
O4A H1A 1_555 1_555
O5A C15A 1_555 1_555
O6A C15A 1_555 1_555
O7A C16A 1_555 1_555
O8A H2A 1_555 1_555
C1A O1A 1_555 1_555
C2A C1A 1_555 1_555
C3A C2A 1_555 1_555
C4A C3A 1_555 1_555
H3A C4A 1_555 1_555
C5A C4A 1_555 1_555
H4A C5A 1_555 1_555
C6A C5A 1_555 1_555
H5A C6A 1_555 1_555
C7A C2A 1_555 1_555
C8A O4A 1_555 1_555
C9A C7A 1_555 1_555
C10A C9A 1_555 1_555
H6A C10A 1_555 1_555
C11A C10A 1_555 1_555
C12A C11A 1_555 1_555
H7A C12A 1_555 1_555
C13A C12A 1_555 1_555
C14A C9A 1_555 1_555
H8A C14A 1_555 1_555
C15A C13A 1_555 1_555
C16A O8A 1_555 1_555
Zn1_2 O5A 1_555 1_555
Zn1A_2 O5 1_555 1_555
Zn1A_3 N1A 1_555 1_555
O5_2 Zn1A 1_555 1_555
O5A_2 Zn1 1_555 1_555
N1A_2 Zn1A 1_555 1_555
C3 C8 1_555 1_555
C6 C7 1_555 1_555
C11 C16 1_555 1_555
C13 C14 1_555 1_555
C20 C21 1_555 1_555
C25 C26 1_555 1_555
C18A C19A 1_555 1_555
C20A C21A 1_555 1_555
C23A C24A 1_555 1_555
C25A C26A 1_555 1_555
C3A C8A 1_555 1_555
C6A C7A 1_555 1_555
C11A C16A 1_555 1_555
C13A C14A 1_555 1_555

#END
