
#######################################################################
#
#                 Cambridge Crystallographic Data Centre
#                                CCDC 
#
#######################################################################
#
# If this CIF has been generated from an entry in the Cambridge 
# Structural Database, then it will include bibliographic, chemical, 
# crystal, experimental, refinement or atomic coordinate data resulting 
# from the CCDC's data processing and validation procedures.
#
#######################################################################

data_VUMYAF
_symmetry_cell_setting           monoclinic
_symmetry_space_group_name_H-M   'C 2/c'
_symmetry_Int_Tables_number      15
_space_group_name_Hall           '-C 2yn'
loop_
_symmetry_equiv_pos_site_id
_symmetry_equiv_pos_as_xyz
1 x,y,z
2 -x,y,1/2-z
3 1/2+x,1/2+y,z
4 1/2-x,1/2+y,1/2-z
5 -x,-y,-z
6 x,-y,1/2+z
7 1/2-x,1/2-y,-z
8 1/2+x,1/2-y,1/2+z
_cell_length_a                   7.5670(10)
_cell_length_b                   17.228(2)
_cell_length_c                   8.902(2)
_cell_angle_alpha                90
_cell_angle_beta                 113.590(10)
_cell_angle_gamma                90
_cell_volume                     1063.52
loop_
_atom_site_label
_atom_site_type_symbol
_atom_site_fract_x
_atom_site_fract_y
_atom_site_fract_z
Pb1 Pb 1.0000 0.53067(4) -0.2500
Pb2 Pb 0.5000 0.43748(4) -0.2500
O1 O 1.0000 0.6820(7) -0.2500
O2 O 0.6755(11) 0.5394(5) 0.0355(9)
O3 O 0.6986(10) 0.5636(5) -0.2009(9)
O4 O 1.0848(11) 0.5845(5) 0.0711(10)
O5 O 1.2583(10) 0.6900(5) 0.1458(10)
C1 C 0.7079(13) 0.5857(6) -0.0612(12)
C2 C 1.1000(14) 0.6568(7) 0.0893(11)
C3 C 0.7339(13) 0.6709(6) -0.0240(11)
C4 C 0.9186(13) 0.7047(6) 0.0418(11)
C5 C 0.5707(14) 0.7150(6) -0.0621(12)
H1 H 0.4508(14) 0.6909(6) -0.1023(12)
O2F O 0.8245(11) 0.9606(5) -0.0355(9)
O3F O 0.8014(10) 0.9364(5) 0.2009(9)
O4F O 0.4152(11) 0.9155(5) -0.0711(10)
O5F O 0.2417(10) 0.8100(5) -0.1458(10)
C1F C 0.7921(13) 0.9143(6) 0.0612(12)
C2F C 0.4000(14) 0.8432(7) -0.0893(11)
C3F C 0.7661(13) 0.8291(6) 0.0240(11)
C4F C 0.5814(13) 0.7953(6) -0.0418(11)
C5F C 0.9293(14) 0.7850(6) 0.0621(12)
H1F H 1.0492(14) 0.8091(6) 0.1023(12)
Pb1B Pb 0.5000 1.03067(4) -0.2500
Pb1D Pb 1.0000 0.46933(4) 0.2500
Pb1F Pb 0.5000 0.96933(4) 0.2500
Pb2B Pb 0.0000 0.93748(4) -0.2500
Pb2B_2 Pb 1.0000 0.93748(4) -0.2500
Pb2D Pb 0.5000 0.56252(4) 0.2500
Pb2D_2 Pb 1.5000 0.56252(4) 0.2500
Pb2F Pb 1.0000 1.06252(4) 0.2500
O2D O 0.3245(11) 0.4606(5) -0.0355(9)
O2D_2 O 1.3245(11) 0.4606(5) -0.0355(9)
O2E O 0.6755(11) 0.4606(5) -0.4645(9)
O3A O 0.3014(10) 0.5636(5) -0.2991(9)
O3A_2 O 1.3014(10) 0.5636(5) -0.2991(9)
O4A O 0.9152(11) 0.5845(5) -0.5711(10)
O4D O 0.9152(11) 0.4155(5) -0.0711(10)
O4E O 0.0848(11) 0.4155(5) -0.4289(10)
O4E_2 O 1.0848(11) 0.4155(5) -0.4289(10)
O5D O 0.7417(10) 0.3100(5) -0.1458(10)
O5E O 0.2583(10) 0.3100(5) -0.3542(10)
loop_
_geom_bond_atom_site_label_1
_geom_bond_atom_site_label_2
_geom_bond_site_symmetry_1
_geom_bond_site_symmetry_2
Pb1 O1 1_555 1_555
Pb2 O3 1_555 1_555
O2 C1 1_555 1_555
O3 Pb1 1_555 1_555
O4 Pb1 1_555 1_555
O5 C2 1_555 1_555
C1 O3 1_555 1_555
C2 O4 1_555 1_555
C3 C1 1_555 1_555
C4 C2 1_555 1_555
C5 C3 1_555 1_555
H1 C5 1_555 1_555
O2F C1F 1_555 1_555
O3F C1F 1_555 1_555
O4F C2F 1_555 1_555
O5F C2F 1_555 1_555
C1F C3F 1_555 1_555
C2F C4F 1_555 1_555
C3F C4F 1_555 1_555
C4F C5 1_555 1_555
C5F C4 1_555 1_555
H1F C5F 1_555 1_555
Pb1B O2F 1_555 1_555
Pb1D O2 1_555 1_555
Pb1F O3F 1_555 1_555
Pb2B O4F 1_555 1_555
Pb2B_2 O2F 1_555 1_555
Pb2D O2 1_555 1_555
Pb2D_2 O4 1_555 1_555
Pb2F O3F 1_555 1_555
O2D Pb2 1_555 1_555
O2D_2 Pb1 1_555 1_555
O2E Pb1 1_555 1_555
O3A Pb2 1_555 1_555
O3A_2 Pb1 1_555 1_555
O4A Pb1 1_555 1_555
O4D Pb1 1_555 1_555
O4E Pb2 1_555 1_555
O4E_2 Pb1 1_555 1_555
O5D Pb2 1_555 1_555
O5E Pb2 1_555 1_555
Pb2 O2E 1_555 1_555
Pb2 O4D 1_555 1_555
O4 Pb1D 1_555 1_555
O5 Pb2D_2 1_555 1_555
C3 C4 1_555 1_555
O4F Pb1B 1_555 1_555
O4F Pb1F 1_555 1_555
O5F Pb2B 1_555 1_555
C3F C5F 1_555 1_555
Pb1D O4D 1_555 1_555

#END
