
#######################################################################
#
#                 Cambridge Crystallographic Data Centre
#                                CCDC 
#
#######################################################################
#
# If this CIF has been generated from an entry in the Cambridge 
# Structural Database, then it will include bibliographic, chemical, 
# crystal, experimental, refinement or atomic coordinate data resulting 
# from the CCDC's data processing and validation procedures.
#
#######################################################################

data_VUMZEK
_symmetry_cell_setting           triclinic
_symmetry_space_group_name_H-M   'P -1'
_symmetry_Int_Tables_number      2
_space_group_name_Hall           '-P 1'
loop_
_symmetry_equiv_pos_site_id
_symmetry_equiv_pos_as_xyz
1 x,y,z
2 -x,-y,-z
_cell_length_a                   6.8753(5)
_cell_length_b                   7.1157(4)
_cell_length_c                   11.5510(8)
_cell_angle_alpha                82.995(5)
_cell_angle_beta                 86.235(6)
_cell_angle_gamma                86.647(5)
_cell_volume                     558.948
loop_
_atom_site_label
_atom_site_type_symbol
_atom_site_fract_x
_atom_site_fract_y
_atom_site_fract_z
Cd1 Cd 0.20793(6) 0.21404(5) 0.24689(4)
Cd2 Cd 0.5000 0.5000 0.0000
Cd3 Cd 0.5000 0.0000 0.0000
S1 S -0.2706(2) 0.20327(19) 0.19118(13)
O1 O 0.3090(6) 0.2471(5) 0.0560(4)
O2 O -0.1134(6) 0.1835(5) 0.2739(4)
O3 O -0.4578(6) 0.1987(7) 0.2590(4)
O4 O -0.2534(7) 0.0477(6) 0.1179(4)
O5 O -0.2542(7) 0.3850(5) 0.1162(4)
N1 N 0.2056(7) 0.2265(6) 0.4492(4)
C1 C 0.0442(8) 0.2341(7) 0.5206(5)
H1 H -0.0761 0.2034 0.4935
C2 C 0.3743(10) 0.2679(9) 0.4910(6)
H2 H 0.4914 0.2581 0.4432
C3 C 0.0465(9) 0.2853(7) 0.6334(5)
C4 C -0.1270(9) 0.2823(7) 0.7146(5)
C5 C 0.2194(9) 0.3334(8) 0.6727(6)
H3 H 0.2244 0.3722 0.7483
C6 C 0.3835(10) 0.3237(10) 0.6001(6)
H4 H 0.5049 0.3559 0.6252
N2 N -0.2211(7) 0.1252(6) 0.7583(4)
N3 N -0.1990(7) 0.4330(6) 0.7674(4)
N4 N -0.3397(7) 0.3637(6) 0.8454(4)
N5 N -0.3532(7) 0.1811(6) 0.8397(4)
H5 H 0.203(5) 0.266(8) 0.019(5)
Cd1A Cd -0.20793(6) -0.21404(5) -0.24689(4)
S1A S 0.2706(2) -0.20327(19) -0.19118(13)
O1A O -0.3090(6) -0.2471(5) -0.0560(4)
O2A O 0.1134(6) -0.1835(5) -0.2739(4)
O3A O 0.4578(6) -0.1987(7) -0.2590(4)
O4A O 0.2534(7) -0.0477(6) -0.1179(4)
O5A O 0.2542(7) -0.3850(5) -0.1162(4)
N1A N -0.2056(7) -0.2265(6) -0.4492(4)
C1A C -0.0442(8) -0.2341(7) -0.5206(5)
H1A H 0.0761 -0.2034 -0.4935
C2A C -0.3743(10) -0.2679(9) -0.4910(6)
H2A H -0.4914 -0.2581 -0.4432
C3A C -0.0465(9) -0.2853(7) -0.6334(5)
C4A C 0.1270(9) -0.2823(7) -0.7146(5)
C5A C -0.2194(9) -0.3334(8) -0.6727(6)
H3A H -0.2244 -0.3722 -0.7483
C6A C -0.3835(10) -0.3237(10) -0.6001(6)
H4A H -0.5049 -0.3559 -0.6252
N2A N 0.2211(7) -0.1252(6) -0.7583(4)
N3A N 0.1990(7) -0.4330(6) -0.7674(4)
N4A N 0.3397(7) -0.3637(6) -0.8454(4)
N5A N 0.3532(7) -0.1811(6) -0.8397(4)
H5A H -0.203(5) -0.266(8) -0.019(5)
Cd1_2 Cd -0.79207(6) 0.21404(5) 0.24689(4)
Cd1_3 Cd 0.20793(6) -0.78596(5) -0.75311(4)
Cd1_4 Cd 0.20793(6) 0.21404(5) -0.75311(4)
Cd1A_2 Cd -0.20793(6) -0.21404(5) 0.75311(4)
Cd1A_3 Cd -0.20793(6) 0.78596(5) 0.75311(4)
Cd1A_4 Cd 0.79207(6) -0.21404(5) -0.24689(4)
Cd2_2 Cd -0.5000 -0.5000 0.0000
Cd2_3 Cd -0.5000 0.5000 0.0000
Cd2_4 Cd -0.5000 0.5000 1.0000
Cd2_5 Cd 0.5000 -0.5000 -1.0000
Cd2_6 Cd 0.5000 -0.5000 0.0000
Cd3_2 Cd -0.5000 0.0000 0.0000
Cd3_3 Cd -0.5000 0.0000 1.0000
Cd3_4 Cd 0.5000 0.0000 -1.0000
O1A_2 O 0.6910(6) -0.2471(5) -0.0560(4)
O1A_3 O 0.6910(6) 0.7529(5) -0.0560(4)
O3_2 O 0.5422(6) 0.1987(7) 0.2590(4)
O3A_2 O -0.5422(6) -0.1987(7) -0.2590(4)
O4_2 O 0.7466(7) 0.0477(6) 0.1179(4)
O5_2 O 0.7458(7) 0.3850(5) 0.1162(4)
O5A_2 O 0.2542(7) 0.6150(5) -0.1162(4)
N2_2 N -0.2211(7) 0.1252(6) -0.2417(4)
N2A_2 N 0.2211(7) -0.1252(6) 0.2417(4)
N3_2 N -0.1990(7) -0.5670(6) -0.2326(4)
N3A_2 N 0.1990(7) 0.5670(6) 0.2326(4)
N4_2 N 0.6603(7) 0.3637(6) -0.1546(4)
N4A_2 N 0.3397(7) 0.6363(6) 0.1546(4)
N5_2 N 0.6468(7) 0.1811(6) -0.1603(4)
N5A_2 N 0.3532(7) -0.1811(6) 0.1603(4)
loop_
_geom_bond_atom_site_label_1
_geom_bond_atom_site_label_2
_geom_bond_site_symmetry_1
_geom_bond_site_symmetry_2
Cd1 O1 1_555 1_555
Cd2 O1 1_555 1_555
Cd3 O1 1_555 1_555
S1 O2 1_555 1_555
O1 H5 1_555 1_555
O2 Cd1 1_555 1_555
O3 S1 1_555 1_555
O4 S1 1_555 1_555
O5 S1 1_555 1_555
N1 Cd1 1_555 1_555
C1 N1 1_555 1_555
H1 C1 1_555 1_555
C2 N1 1_555 1_555
H2 C2 1_555 1_555
C3 C1 1_555 1_555
C4 C3 1_555 1_555
C5 C3 1_555 1_555
H3 C5 1_555 1_555
C6 C2 1_555 1_555
H4 C6 1_555 1_555
N2 C4 1_555 1_555
N3 C4 1_555 1_555
N4 N3 1_555 1_555
N5 N2 1_555 1_555
Cd1A O1A 1_555 1_555
S1A O2A 1_555 1_555
O1A H5A 1_555 1_555
O2A Cd1A 1_555 1_555
O3A S1A 1_555 1_555
O4A Cd3 1_555 1_555
O5A S1A 1_555 1_555
N1A Cd1A 1_555 1_555
C1A N1A 1_555 1_555
H1A C1A 1_555 1_555
C2A N1A 1_555 1_555
H2A C2A 1_555 1_555
C3A C1A 1_555 1_555
C4A C3A 1_555 1_555
C5A C3A 1_555 1_555
H3A C5A 1_555 1_555
C6A C2A 1_555 1_555
H4A C6A 1_555 1_555
N2A C4A 1_555 1_555
N3A C4A 1_555 1_555
N4A N3A 1_555 1_555
N5A N2A 1_555 1_555
Cd1_2 O3 1_555 1_555
Cd1_3 N3A 1_555 1_555
Cd1_4 N2A 1_555 1_555
Cd1A_2 N2 1_555 1_555
Cd1A_3 N3 1_555 1_555
Cd1A_4 O3A 1_555 1_555
Cd2_2 O1A 1_555 1_555
Cd2_3 O5 1_555 1_555
Cd2_4 N4 1_555 1_555
Cd2_5 N4A 1_555 1_555
Cd2_6 O5A 1_555 1_555
Cd3_2 O4 1_555 1_555
Cd3_3 N5 1_555 1_555
Cd3_4 N5A 1_555 1_555
O1A_2 Cd3 1_555 1_555
O1A_3 Cd2 1_555 1_555
O3_2 Cd1 1_555 1_555
O3A_2 Cd1A 1_555 1_555
O4_2 Cd3 1_555 1_555
O5_2 Cd2 1_555 1_555
O5A_2 Cd2 1_555 1_555
N2_2 Cd1A 1_555 1_555
N2A_2 Cd1 1_555 1_555
N3_2 Cd1A 1_555 1_555
N3A_2 Cd1 1_555 1_555
N4_2 Cd2 1_555 1_555
N4A_2 Cd2 1_555 1_555
N5_2 Cd3 1_555 1_555
N5A_2 Cd3 1_555 1_555
C5 C6 1_555 1_555
N4 N5 1_555 1_555
S1A O4A 1_555 1_555
O1A Cd3_2 1_555 1_555
C5A C6A 1_555 1_555
N4A N5A 1_555 1_555
Cd1A_4 O1A_2 1_555 1_555
Cd2_6 O1A_2 1_555 1_555
N2A_2 N5A_2 1_555 1_555
N3A_2 N4A_2 1_555 1_555
N4_2 N5_2 1_555 1_555

#END
