
#######################################################################
#
#                 Cambridge Crystallographic Data Centre
#                                CCDC 
#
#######################################################################
#
# If this CIF has been generated from an entry in the Cambridge 
# Structural Database, then it will include bibliographic, chemical, 
# crystal, experimental, refinement or atomic coordinate data resulting 
# from the CCDC's data processing and validation procedures.
#
#######################################################################

data_VUNBEL
_symmetry_cell_setting           cubic
_symmetry_space_group_name_H-M   'P -4 3 n'
_symmetry_Int_Tables_number      218
_space_group_name_Hall           'P -4n 2 3'
loop_
_symmetry_equiv_pos_site_id
_symmetry_equiv_pos_as_xyz
1 x,y,z
2 z,x,y
3 y,z,x
4 x,-y,-z
5 z,-x,-y
6 y,-z,-x
7 -x,y,-z
8 -z,x,-y
9 -y,z,-x
10 -x,-y,z
11 -z,-x,y
12 -y,-z,x
13 1/2+y,1/2+x,1/2+z
14 1/2+x,1/2+z,1/2+y
15 1/2+z,1/2+y,1/2+x
16 1/2-y,1/2+x,1/2-z
17 1/2-x,1/2+z,1/2-y
18 1/2-z,1/2+y,1/2-x
19 1/2+y,1/2-x,1/2-z
20 1/2+x,1/2-z,1/2-y
21 1/2+z,1/2-y,1/2-x
22 1/2-y,1/2-x,1/2+z
23 1/2-x,1/2-z,1/2+y
24 1/2-z,1/2-y,1/2+x
_cell_length_a                   19.464(6)
_cell_length_b                   19.464(6)
_cell_length_c                   19.464(6)
_cell_angle_alpha                90
_cell_angle_beta                 90
_cell_angle_gamma                90
_cell_volume                     7373.88
loop_
_atom_site_label
_atom_site_type_symbol
_atom_site_fract_x
_atom_site_fract_y
_atom_site_fract_z
Zn1 Zn 0.15867(5) 0.159 0.159
Na1 Na 0.2515(2) 0.252 0.252
P1 P 0.2320(2) 0.0619(1) 0.2707(2)
O1 O 0.1916(3) 0.0696(3) 0.1151(3)
O2 O 0.2188(3) 0.1323(3) 0.2458(3)
C1 C 0.2235(4) 0.0003(5) 0.2076(5)
C2 C 0.2070(4) 0.0127(5) 0.1388(4)
C3 C 0.2059(7) -0.0494(5) 0.0888(5)
N1 N 0.2468(4) -0.1234(4) 0.2493(5)
C4 C 0.2359(6) -0.0697(5) 0.2305(5)
O3 O 0.1851(6) 0.0414(4) 0.3338(4)
O4 O 0.3084(5) 0.0541(4) 0.2991(5)
C5 C 0.139(1) 0.076(1) 0.3637(9)
C6 C 0.3519(8) 0.0942(9) 0.331(1)
C7 C 0.101(2) 0.065(1) 0.405(1)
C8 C 0.4186(8) 0.087(1) 0.338(1)
O1A O 0.1151(3) 0.1916(3) 0.0696(3)
O1B O 0.0696(3) 0.1151(3) 0.1916(3)
O2A O 0.2458(3) 0.2188(3) 0.1323(3)
O2B O 0.1323(3) 0.2458(3) 0.2188(3)
N1Q N 0.2507(5) 0.3766(4) 0.2532(4)
N1R N 0.3766(4) 0.2532(4) 0.2507(5)
N1V N 0.2532(4) 0.2507(5) 0.3766(4)
Na1O Na 0.248 -0.2485(2) 0.248
C2A C 0.1388(4) 0.2070(4) 0.0127(5)
C2B C 0.0127(5) 0.1388(4) 0.2070(4)
P1A P 0.2707(2) 0.2320(2) 0.0619(1)
P1B P 0.0619(1) 0.2707(2) 0.2320(2)
C1A C 0.2076(5) 0.2235(4) 0.0003(5)
C3A C 0.0888(5) 0.2059(7) -0.0494(5)
C1B C 0.0003(5) 0.2076(5) 0.2235(4)
C3B C -0.0494(5) 0.0888(5) 0.2059(7)
O3A O 0.3338(4) 0.1851(6) 0.0414(4)
O4A O 0.2991(5) 0.3084(5) 0.0541(4)
O3B O 0.0414(4) 0.3338(4) 0.1851(6)
O4B O 0.0541(4) 0.2991(5) 0.3084(5)
C4A C 0.2305(5) 0.2359(6) -0.0697(5)
C4B C -0.0697(5) 0.2305(5) 0.2359(6)
C5A C 0.3637(9) 0.139(1) 0.076(1)
C6A C 0.331(1) 0.3519(8) 0.0942(9)
C5B C 0.076(1) 0.3637(9) 0.139(1)
C6B C 0.0942(9) 0.331(1) 0.3519(8)
N1A N 0.2493(5) 0.2468(4) -0.1234(4)
N1B N -0.1234(4) 0.2493(5) 0.2468(4)
C7A C 0.405(1) 0.101(2) 0.065(1)
C8A C 0.338(1) 0.4186(8) 0.087(1)
C7B C 0.065(1) 0.405(1) 0.101(2)
C8B C 0.087(1) 0.338(1) 0.4186(8)
Na1U Na 0.248 0.2485(2) -0.248
Na1R Na -0.248 0.2485(2) 0.248
loop_
_geom_bond_atom_site_label_1
_geom_bond_atom_site_label_2
_geom_bond_site_symmetry_1
_geom_bond_site_symmetry_2
Zn1 O1 1_555 1_555
Na1 O2 1_555 1_555
P1 O2 1_555 1_555
O1 C2 1_555 1_555
O2 Zn1 1_555 1_555
C1 P1 1_555 1_555
C2 C1 1_555 1_555
C3 C2 1_555 1_555
N1 C4 1_555 1_555
C4 C1 1_555 1_555
O3 P1 1_555 1_555
O4 P1 1_555 1_555
C5 O3 1_555 1_555
C6 O4 1_555 1_555
C7 C5 1_555 1_555
C8 C6 1_555 1_555
O1A Zn1 1_555 1_555
O1B Zn1 1_555 1_555
O2A Zn1 1_555 1_555
O2B Zn1 1_555 1_555
N1Q Na1 1_555 1_555
N1R Na1 1_555 1_555
N1V Na1 1_555 1_555
Na1O N1 1_555 1_555
C2A O1A 1_555 1_555
C2B O1B 1_555 1_555
P1A O2A 1_555 1_555
P1B O2B 1_555 1_555
C1A C2A 1_555 1_555
C3A C2A 1_555 1_555
C1B C2B 1_555 1_555
C3B C2B 1_555 1_555
O3A P1A 1_555 1_555
O4A P1A 1_555 1_555
O3B P1B 1_555 1_555
O4B P1B 1_555 1_555
C4A C1A 1_555 1_555
C4B C1B 1_555 1_555
C5A O3A 1_555 1_555
C6A O4A 1_555 1_555
C5B O3B 1_555 1_555
C6B O4B 1_555 1_555
N1A C4A 1_555 1_555
N1B C4B 1_555 1_555
C7A C5A 1_555 1_555
C8A C6A 1_555 1_555
C7B C5B 1_555 1_555
C8B C6B 1_555 1_555
Na1U N1A 1_555 1_555
Na1R N1B 1_555 1_555
Na1 O2A 1_555 1_555
Na1 O2B 1_555 1_555
P1A C1A 1_555 1_555
P1B C1B 1_555 1_555

#END
