
#######################################################################
#
#                 Cambridge Crystallographic Data Centre
#                                CCDC 
#
#######################################################################
#
# If this CIF has been generated from an entry in the Cambridge 
# Structural Database, then it will include bibliographic, chemical, 
# crystal, experimental, refinement or atomic coordinate data resulting 
# from the CCDC's data processing and validation procedures.
#
#######################################################################

data_VUNBUC
_symmetry_cell_setting           triclinic
_symmetry_space_group_name_H-M   'P -1'
_symmetry_Int_Tables_number      2
_space_group_name_Hall           '-P 1'
loop_
_symmetry_equiv_pos_site_id
_symmetry_equiv_pos_as_xyz
1 x,y,z
2 -x,-y,-z
_cell_length_a                   9.5864(18)
_cell_length_b                   10.2309(18)
_cell_length_c                   14.952(3)
_cell_angle_alpha                97.849(3)
_cell_angle_beta                 106.200(4)
_cell_angle_gamma                101.286(3)
_cell_volume                     1352.24
loop_
_atom_site_label
_atom_site_type_symbol
_atom_site_fract_x
_atom_site_fract_y
_atom_site_fract_z
Zn1 Zn 0.32234(6) 0.17245(5) 0.33591(4)
Zn2 Zn 1.0000 0.0000 1.0000
O1 O 0.2201(4) 0.2862(3) 0.2537(2)
O2 O 0.3809(5) 0.4476(4) 0.3705(3)
O3 O 0.3747(4) 0.9276(4) 0.3730(3)
O4 O 0.1973(4) 0.9870(3) 0.2700(2)
O5 O -0.2161(4) 0.6005(4) 0.0258(3)
O6 O -0.2482(4) 0.4052(4) 0.0751(3)
O7 O 0.9254(5) -0.2133(4) 0.9544(3)
H1 H 0.885(7) -0.249(7) 0.901(5)
H2 H 0.881(8) -0.260(7) 0.976(5)
O8 O 0.9466(5) -0.0022(4) 1.1287(3)
H3 H 0.898(6) 0.054(6) 1.138(4)
H4 H 1.001(8) -0.007(7) 1.170(5)
N1 N 0.2640(7) 0.2548(7) 0.6007(3)
N2 N 0.1617(9) 0.1402(8) 0.5694(6)
N3 N 0.2771(5) 0.1942(5) 0.4612(3)
N4 N 0.5817(5) 0.0969(5) 0.9055(3)
N5 N 0.5306(5) -0.0406(5) 0.8817(4)
N6 N 0.7810(4) 0.0185(4) 0.9398(3)
N7 N 0.7784(5) 0.2984(5) 0.3834(3)
N8 N 0.7798(5) 0.2093(6) 0.4420(4)
N9 N 0.5453(5) 0.2103(4) 0.3645(3)
C1 C 0.2890(13) 0.3412(10) 0.6956(6)
H9 H 0.2112 0.3903 0.6914
H10 H 0.3850 0.4072 0.7151
C2 C 0.2864(8) 0.2507(8) 0.7694(5)
H11 H 0.2883 0.3048 0.8284
H12 H 0.1944 0.1792 0.7465
C3 C 0.4150(9) 0.1897(10) 0.7870(5)
H13 H 0.4931 0.2427 0.7678
H14 H 0.3848 0.0983 0.7487
C4 C 0.4766(7) 0.1836(7) 0.8904(5)
H15 H 0.5270 0.2748 0.9270
H16 H 0.3943 0.1490 0.9134
C5 C 0.1778(9) 0.1062(8) 0.4864(5)
H17 H 0.1225 0.0238 0.4458
C6 C 0.3352(7) 0.2940(7) 0.5367(4)
H18 H 0.4081 0.3734 0.5450
C7 C 0.6536(6) -0.0826(6) 0.9036(4)
H19 H 0.6538 -0.1743 0.8951
C8 C 0.7300(6) 0.1290(5) 0.9391(4)
H20 H 0.7899 0.2175 0.9593
C9 C 1.0280(6) 0.4483(7) 0.4737(4)
H21 H 1.0487 0.3809 0.5120
H22 H 1.1218 0.4934 0.4663
C10 C 0.9199(7) 0.3755(7) 0.3759(5)
H23 H 0.8994 0.4418 0.3366
H24 H 0.9657 0.3138 0.3455
C11 C 0.6393(6) 0.1592(6) 0.4281(4)
H25 H 0.6054 0.0932 0.4594
C12 C 0.6383(6) 0.2970(6) 0.3373(4)
H26 H 0.6097 0.3493 0.2924
C13 C 0.1916(5) 0.5138(5) 0.2589(3)
C14 C 0.2544(5) 0.6523(5) 0.2962(3)
H27 H 0.3452 0.6800 0.3451
C15 C 0.1841(5) 0.7491(4) 0.2618(3)
C16 C 0.0487(5) 0.7069(5) 0.1880(3)
H28 H 0.0028 0.7715 0.1624
C17 C -0.0186(5) 0.5686(5) 0.1520(3)
C18 C 0.0541(5) 0.4736(5) 0.1879(3)
H29 H 0.0100 0.3814 0.1639
C19 C 0.2720(6) 0.4114(5) 0.2984(4)
C20 C 0.2581(6) 0.8963(5) 0.3051(3)
C21 C -0.1729(6) 0.5209(5) 0.0775(4)
Zn1A Zn 1.67766(6) -0.17245(5) 1.66409(4)
Zn1_2 Zn 0.32234(6) 1.17245(5) 0.33591(4)
Zn1A_2 Zn 1.67766(6) 0.82755(5) 0.66409(4)
Zn1_3 Zn 0.32234(6) -0.82755(5) 0.33591(4)
O1_2 O 0.2201(4) -0.7138(3) 0.2537(2)
O1A O 1.7799(4) -0.2862(3) 1.7463(2)
O2_2 O 0.3809(5) -0.5524(4) 0.3705(3)
O2A O 1.6191(5) -0.4476(4) 1.6295(3)
O3_2 O 0.3747(4) -0.0724(4) 0.3730(3)
O3A O 1.6253(4) 0.0724(4) 1.6270(3)
O4_2 O 0.1973(4) -0.0130(3) 0.2700(2)
O4A O 1.8027(4) 0.0130(3) 1.7300(2)
O5_2 O -0.2161(4) -0.3995(4) 0.0258(3)
O6_2 O -0.2482(4) -0.5948(4) 0.0751(3)
O7A O 1.0746(5) 0.2133(4) 1.0456(3)
H1A H 1.115(7) 0.249(7) 1.099(5)
H2A H 1.119(8) 0.260(7) 1.024(5)
O8A O 1.0534(5) 0.0022(4) 0.8713(3)
H3A H 1.102(6) -0.054(6) 0.862(4)
H4A H 0.999(8) 0.007(7) 0.830(5)
N1A N 1.7360(7) -0.2548(7) 1.3993(3)
N2A N 1.8383(9) -0.1402(8) 1.4306(6)
N3A N 1.7229(5) -0.1942(5) 1.5388(3)
N4A N 1.4183(5) -0.0969(5) 1.0945(3)
N5A N 1.4694(5) 0.0406(5) 1.1183(4)
N6A N 1.2190(4) -0.0185(4) 1.0602(3)
N7A N 1.2216(5) 0.7016(5) 0.6166(3)
N8A N 1.2202(5) 0.7907(6) 0.5580(4)
N9A N 1.4547(5) 0.7897(4) 0.6355(3)
N9A_2 N 1.4547(5) -0.2103(4) 1.6355(3)
C1A C 1.7110(13) -0.3412(10) 1.3044(6)
H9A H 1.7888 -0.3903 1.3086
H10A H 1.6150 -0.4072 1.2849
C2A C 1.7136(8) -0.2507(8) 1.2306(5)
H11A H 1.7117 -0.3048 1.1716
H12A H 1.8056 -0.1792 1.2535
C3A C 1.5850(9) -0.1897(10) 1.2130(5)
H13A H 1.5069 -0.2427 1.2322
H14A H 1.6152 -0.0983 1.2513
C4A C 1.5234(7) -0.1836(7) 1.1096(5)
H15A H 1.4730 -0.2748 1.0730
H16A H 1.6057 -0.1490 1.0866
C5A C 1.8222(9) -0.1062(8) 1.5136(5)
H17A H 1.8775 -0.0238 1.5542
C6A C 1.6648(7) -0.2940(7) 1.4633(4)
H18A H 1.5919 -0.3734 1.4550
C7A C 1.3464(6) 0.0826(6) 1.0964(4)
H19A H 1.3462 0.1743 1.1049
C8A C 1.2700(6) -0.1290(5) 1.0609(4)
H20A H 1.2101 -0.2175 1.0407
C9A C 0.9720(6) 0.5517(7) 0.5263(4)
H21A H 0.9513 0.6191 0.4880
H22A H 0.8782 0.5066 0.5337
C10A C 1.0801(7) 0.6245(7) 0.6241(5)
H23A H 1.1006 0.5582 0.6634
H24A H 1.0343 0.6862 0.6545
C11A C 1.3607(6) 0.8408(6) 0.5719(4)
H25A H 1.3946 0.9068 0.5406
C12A C 1.3617(6) 0.7030(6) 0.6627(4)
H26A H 1.3903 0.6507 0.7076
C13_2 C 0.1916(5) -0.4862(5) 0.2589(3)
C14_2 C 0.2544(5) -0.3477(5) 0.2962(3)
H27_2 H 0.3452 -0.3200 0.3451
C15_2 C 0.1841(5) -0.2509(4) 0.2618(3)
C16_2 C 0.0487(5) -0.2931(5) 0.1880(3)
H28_2 H 0.0028 -0.2285 0.1624
C17_2 C -0.0186(5) -0.4314(5) 0.1520(3)
C18_2 C 0.0541(5) -0.5264(5) 0.1879(3)
H29_2 H 0.0100 -0.6186 0.1639
C19_2 C 0.2720(6) -0.5886(5) 0.2984(4)
C20_2 C 0.2581(6) -0.1037(5) 0.3051(3)
C21_2 C -0.1729(6) -0.4791(5) 0.0775(4)
O9 O 0.7809(5) 0.1819(5) 1.1646(3)
H5 H 0.701(8) 0.150(7) 1.156(5)
H6 H 0.761(8) 0.248(8) 1.139(5)
O10 O -0.4825(7) 0.5838(6) -0.1248(4)
H7 H -0.434(11) 0.558(10) -0.089(7)
H8 H -0.577(11) 0.568(9) -0.112(6)
loop_
_geom_bond_atom_site_label_1
_geom_bond_atom_site_label_2
_geom_bond_site_symmetry_1
_geom_bond_site_symmetry_2
Zn1 O1 1_555 1_555
Zn2 O7 1_555 1_555
O1 C19 1_555 1_555
O2 Zn1 1_555 1_555
O3 C20 1_555 1_555
O4 C20 1_555 1_555
O5 C21 1_555 1_555
O6 C21 1_555 1_555
O7 H1 1_555 1_555
H2 O7 1_555 1_555
O8 Zn2 1_555 1_555
H3 O8 1_555 1_555
H4 O8 1_555 1_555
O9 H5 1_555 1_555
H6 O9 1_555 1_555
O10 H7 1_555 1_555
H8 O10 1_555 1_555
N1 N2 1_555 1_555
N2 C5 1_555 1_555
N3 Zn1 1_555 1_555
N4 N5 1_555 1_555
N5 C7 1_555 1_555
N6 Zn2 1_555 1_555
N7 N8 1_555 1_555
N8 C11 1_555 1_555
N9 Zn1 1_555 1_555
C1 N1 1_555 1_555
H9 C1 1_555 1_555
H10 C1 1_555 1_555
C2 C1 1_555 1_555
H11 C2 1_555 1_555
H12 C2 1_555 1_555
C3 C2 1_555 1_555
H13 C3 1_555 1_555
H14 C3 1_555 1_555
C4 N4 1_555 1_555
H15 C4 1_555 1_555
H16 C4 1_555 1_555
C5 N3 1_555 1_555
H17 C5 1_555 1_555
C6 N1 1_555 1_555
H18 C6 1_555 1_555
C7 N6 1_555 1_555
H19 C7 1_555 1_555
C8 N4 1_555 1_555
H20 C8 1_555 1_555
C9 H21 1_555 1_555
H22 C9 1_555 1_555
C10 N7 1_555 1_555
H23 C10 1_555 1_555
H24 C10 1_555 1_555
C11 N9 1_555 1_555
H25 C11 1_555 1_555
C12 N7 1_555 1_555
H26 C12 1_555 1_555
C13 C14 1_555 1_555
C14 H27 1_555 1_555
C15 C14 1_555 1_555
C16 C15 1_555 1_555
H28 C16 1_555 1_555
C17 C16 1_555 1_555
C18 C13 1_555 1_555
H29 C18 1_555 1_555
C19 O2 1_555 1_555
C20 C15 1_555 1_555
C21 C17 1_555 1_555
Zn1A O1A 1_555 1_555
Zn1_2 O3 1_555 1_555
Zn1A_2 N9A 1_555 1_555
Zn1_3 O1_2 1_555 1_555
O1_2 C19_2 1_555 1_555
O2_2 Zn1_3 1_555 1_555
O2A Zn1A 1_555 1_555
O3_2 Zn1 1_555 1_555
O3A Zn1A 1_555 1_555
O4_2 Zn1 1_555 1_555
O4A Zn1A 1_555 1_555
O5_2 C21_2 1_555 1_555
O6_2 C21_2 1_555 1_555
O7A Zn2 1_555 1_555
H1A O7A 1_555 1_555
H2A O7A 1_555 1_555
O8A Zn2 1_555 1_555
H3A O8A 1_555 1_555
H4A O8A 1_555 1_555
N1A N2A 1_555 1_555
N2A C5A 1_555 1_555
N3A Zn1A 1_555 1_555
N4A N5A 1_555 1_555
N5A C7A 1_555 1_555
N6A Zn2 1_555 1_555
N7A N8A 1_555 1_555
N8A C11A 1_555 1_555
N9A C11A 1_555 1_555
N9A_2 Zn1A 1_555 1_555
C1A N1A 1_555 1_555
H9A C1A 1_555 1_555
H10A C1A 1_555 1_555
C2A C1A 1_555 1_555
H11A C2A 1_555 1_555
H12A C2A 1_555 1_555
C3A C2A 1_555 1_555
H13A C3A 1_555 1_555
H14A C3A 1_555 1_555
C4A N4A 1_555 1_555
H15A C4A 1_555 1_555
H16A C4A 1_555 1_555
C5A N3A 1_555 1_555
H17A C5A 1_555 1_555
C6A N1A 1_555 1_555
H18A C6A 1_555 1_555
C7A N6A 1_555 1_555
H19A C7A 1_555 1_555
C8A N4A 1_555 1_555
H20A C8A 1_555 1_555
C9A C9 1_555 1_555
H21A C9A 1_555 1_555
H22A C9A 1_555 1_555
C10A N7A 1_555 1_555
H23A C10A 1_555 1_555
H24A C10A 1_555 1_555
C11A H25A 1_555 1_555
C12A N7A 1_555 1_555
H26A C12A 1_555 1_555
C13_2 C14_2 1_555 1_555
C14_2 H27_2 1_555 1_555
C15_2 C14_2 1_555 1_555
C16_2 C15_2 1_555 1_555
H28_2 C16_2 1_555 1_555
C17_2 C16_2 1_555 1_555
C18_2 C13_2 1_555 1_555
H29_2 C18_2 1_555 1_555
C19_2 O2_2 1_555 1_555
C20_2 O3_2 1_555 1_555
C21_2 C17_2 1_555 1_555
O4 Zn1_2 1_555 1_555
N3 C6 1_555 1_555
N6 C8 1_555 1_555
N9 C12 1_555 1_555
C3 C4 1_555 1_555
C9 C10 1_555 1_555
C13 C19 1_555 1_555
C17 C18 1_555 1_555
O4_2 C20_2 1_555 1_555
N3A C6A 1_555 1_555
N6A C8A 1_555 1_555
N9A C12A 1_555 1_555
C3A C4A 1_555 1_555
C9A C10A 1_555 1_555
C13_2 C19_2 1_555 1_555
C15_2 C20_2 1_555 1_555
C17_2 C18_2 1_555 1_555

#END
