
#######################################################################
#
#                 Cambridge Crystallographic Data Centre
#                                CCDC 
#
#######################################################################
#
# If this CIF has been generated from an entry in the Cambridge 
# Structural Database, then it will include bibliographic, chemical, 
# crystal, experimental, refinement or atomic coordinate data resulting 
# from the CCDC's data processing and validation procedures.
#
#######################################################################

data_VUNBAI
_symmetry_cell_setting           orthorhombic
_symmetry_space_group_name_H-M   'P n m a'
_symmetry_Int_Tables_number      62
_space_group_name_Hall           '-P 2ac 2n'
loop_
_symmetry_equiv_pos_site_id
_symmetry_equiv_pos_as_xyz
1 x,y,z
2 1/2-x,-y,1/2+z
3 1/2+x,1/2-y,1/2-z
4 -x,1/2+y,-z
5 -x,-y,-z
6 1/2+x,y,1/2-z
7 1/2-x,1/2+y,1/2+z
8 x,1/2-y,z
_cell_length_a                   8.5223(9)
_cell_length_b                   17.1570(19)
_cell_length_c                   10.5244(11)
_cell_angle_alpha                90
_cell_angle_beta                 90
_cell_angle_gamma                90
_cell_volume                     1538.85
loop_
_atom_site_label
_atom_site_type_symbol
_atom_site_fract_x
_atom_site_fract_y
_atom_site_fract_z
Zn1 Zn 0.22745(4) 0.2500 0.51938(3)
S1 S 0.60268(9) 0.2500 0.54964(7)
O1 O 0.0081(3) 0.2500 0.6088(2)
O2 O 0.2817(2) 0.16046(10) 0.65744(16)
O3 O 0.4640(3) 0.2500 0.4646(2)
O4 O 0.7462(3) 0.2500 0.4734(2)
O5 O 0.5988(2) 0.18041(11) 0.63128(18)
N1 N 0.1414(2) 0.42431(11) 0.24313(17)
N2 N 0.0684(2) 0.45923(12) 0.34363(19)
N3 N 0.1614(2) 0.34114(11) 0.39807(17)
C1 C 0.0829(3) 0.40676(14) 0.4339(2)
H1 H 0.0421 0.4140 0.5171
C2 C 0.1953(3) 0.35492(13) 0.2771(2)
H2 H 0.2501 0.3201 0.2227
C3 C 0.1530(3) 0.46281(14) 0.1193(2)
H3 H 0.2123 0.4290 0.0600
H4 H 0.2116 0.5123 0.1288
C4 C -0.0080(3) 0.47961(14) 0.0641(2)
H5 H -0.0679 0.5132 0.1233
H6 H -0.0664 0.4302 0.0533
H7 H 0.242(3) 0.1667(19) 0.728(2)
H8 H 0.378(2) 0.157(2) 0.665(3)
H9 H -0.077(3) 0.2500 0.568(3)
H10 H -0.015(6) 0.2500 0.6859(18)
Zn1C Zn -0.22745(4) 0.7500 -0.51938(3)
O2G O 0.2817(2) 0.33954(10) 0.65744(16)
O5G O 0.5988(2) 0.31959(11) 0.63128(18)
N1D N -0.1414(2) 0.57569(11) -0.24313(17)
N2D N -0.0684(2) 0.54077(12) -0.34363(19)
N3D N -0.1614(2) 0.65886(11) -0.39807(17)
N3G N 0.1614(2) 0.15886(11) 0.39807(17)
C1D C -0.0829(3) 0.59324(14) -0.4339(2)
H1D H -0.0421 0.5860 -0.5171
C2D C -0.1953(3) 0.64508(13) -0.2771(2)
H2D H -0.2501 0.6799 -0.2227
C3D C -0.1530(3) 0.53719(14) -0.1193(2)
H3D H -0.2123 0.5710 -0.0600
H4D H -0.2116 0.4877 -0.1288
C4D C 0.0080(3) 0.52039(14) -0.0641(2)
H5D H 0.0679 0.4868 -0.1233
H6D H 0.0664 0.5698 -0.0533
H7G H 0.242(3) 0.3333(19) 0.728(2)
H8G H 0.378(2) 0.343(2) 0.665(3)
loop_
_geom_bond_atom_site_label_1
_geom_bond_atom_site_label_2
_geom_bond_site_symmetry_1
_geom_bond_site_symmetry_2
Zn1 O1 1_555 1_555
S1 O3 1_555 1_555
O1 H9 1_555 1_555
O2 Zn1 1_555 1_555
O3 Zn1 1_555 1_555
O4 S1 1_555 1_555
O5 S1 1_555 1_555
N1 N2 1_555 1_555
N2 C1 1_555 1_555
N3 Zn1 1_555 1_555
C1 N3 1_555 1_555
H1 C1 1_555 1_555
C2 N1 1_555 1_555
H2 C2 1_555 1_555
C3 N1 1_555 1_555
H3 C3 1_555 1_555
H4 C3 1_555 1_555
C4 C3 1_555 1_555
H5 C4 1_555 1_555
H6 C4 1_555 1_555
H7 O2 1_555 1_555
H8 O2 1_555 1_555
H10 O1 1_555 1_555
Zn1C N3D 1_555 1_555
O2G Zn1 1_555 1_555
O5G S1 1_555 1_555
N1D N2D 1_555 1_555
N2D C1D 1_555 1_555
N3D C1D 1_555 1_555
N3G Zn1 1_555 1_555
C1D H1D 1_555 1_555
C2D N1D 1_555 1_555
H2D C2D 1_555 1_555
C3D N1D 1_555 1_555
H3D C3D 1_555 1_555
H4D C3D 1_555 1_555
C4D C4 1_555 1_555
H5D C4D 1_555 1_555
H6D C4D 1_555 1_555
H7G O2G 1_555 1_555
H8G O2G 1_555 1_555
N3 C2 1_555 1_555
N3D C2D 1_555 1_555
C3D C4D 1_555 1_555

#END
