
#######################################################################
#
#                 Cambridge Crystallographic Data Centre
#                                CCDC 
#
#######################################################################
#
# If this CIF has been generated from an entry in the Cambridge 
# Structural Database, then it will include bibliographic, chemical, 
# crystal, experimental, refinement or atomic coordinate data resulting 
# from the CCDC's data processing and validation procedures.
#
#######################################################################

data_VUNCUD
_symmetry_cell_setting           orthorhombic
_symmetry_space_group_name_H-M   'P n m a'
_symmetry_Int_Tables_number      62
_space_group_name_Hall           '-P 2ac 2n'
loop_
_symmetry_equiv_pos_site_id
_symmetry_equiv_pos_as_xyz
1 x,y,z
2 1/2-x,-y,1/2+z
3 1/2+x,1/2-y,1/2-z
4 -x,1/2+y,-z
5 -x,-y,-z
6 1/2+x,y,1/2-z
7 1/2-x,1/2+y,1/2+z
8 x,1/2-y,z
_cell_length_a                   7.9263(14)
_cell_length_b                   10.2173(18)
_cell_length_c                   9.5413(17)
_cell_angle_alpha                90
_cell_angle_beta                 90
_cell_angle_gamma                90
_cell_volume                     772.706
loop_
_atom_site_label
_atom_site_type_symbol
_atom_site_fract_x
_atom_site_fract_y
_atom_site_fract_z
Sm1 Sm 0.34047(4) 0.2500 -0.17359(3)
O1 O 0.3127(4) 0.0410(3) 0.0013(3)
O2 O 0.3758(4) -0.0923(3) 0.1813(3)
O3 O 0.5040(5) 0.2500 0.5581(4)
O4 O 0.3797(5) 0.2500 0.1433(4)
C1 C 0.3604(5) 0.0182(4) 0.1232(5)
C2 C 0.4009(5) 0.1364(4) 0.2136(5)
C3 C 0.4463(6) 0.1310(5) 0.3505(4)
H1 H 0.4629 0.0504 0.3937
C4 C 0.4689(7) 0.2500 0.4286(6)
Sm1A Sm 0.15953(4) -0.2500 0.32641(3)
Sm1C Sm 0.65953(4) -0.2500 0.17359(3)
Sm1_2 Sm 0.34047(4) 0.2500 0.82641(3)
Sm1B Sm 0.84047(4) 0.2500 0.67359(3)
Sm1A_2 Sm 0.15953(4) 0.7500 0.32641(3)
Sm1C_2 Sm 0.65953(4) 0.7500 0.17359(3)
O1G O 0.3127(4) 0.4590(3) 0.0013(3)
O2G O 0.3758(4) 0.5923(3) 0.1813(3)
O2A O 0.1242(4) 0.0923(3) -0.3187(3)
O2C O 0.6242(4) 0.4077(3) -0.1813(3)
O2D O 0.6242(4) 0.0923(3) -0.1813(3)
O2F O 0.1242(4) 0.4077(3) -0.3187(3)
O3_2 O 0.5040(5) 0.2500 -0.4419(4)
O3B O 0.0040(5) 0.2500 -0.0581(4)
C1G C 0.3604(5) 0.4818(4) 0.1232(5)
C2G C 0.4009(5) 0.3636(4) 0.2136(5)
C3G C 0.4463(6) 0.3690(5) 0.3505(4)
H1G H 0.4629 0.4496 0.3937
loop_
_geom_bond_atom_site_label_1
_geom_bond_atom_site_label_2
_geom_bond_site_symmetry_1
_geom_bond_site_symmetry_2
Sm1 O1 1_555 1_555
O1 C1 1_555 1_555
O2 C1 1_555 1_555
O3 C4 1_555 1_555
O4 C2 1_555 1_555
C1 C2 1_555 1_555
C2 C3 1_555 1_555
C3 H1 1_555 1_555
C4 C3 1_555 1_555
Sm1A O2 1_555 1_555
Sm1C O2 1_555 1_555
Sm1_2 O3 1_555 1_555
Sm1B O3 1_555 1_555
Sm1A_2 O2G 1_555 1_555
Sm1C_2 O2G 1_555 1_555
O1G Sm1 1_555 1_555
O2G C1G 1_555 1_555
O2A Sm1 1_555 1_555
O2C Sm1 1_555 1_555
O2D Sm1 1_555 1_555
O2F Sm1 1_555 1_555
O3_2 Sm1 1_555 1_555
O3B Sm1 1_555 1_555
C1G O1G 1_555 1_555
C2G O4 1_555 1_555
C3G C4 1_555 1_555
H1G C3G 1_555 1_555
C1G C2G 1_555 1_555
C2G C3G 1_555 1_555

#END
