
#######################################################################
#
#                 Cambridge Crystallographic Data Centre
#                                CCDC 
#
#######################################################################
#
# If this CIF has been generated from an entry in the Cambridge 
# Structural Database, then it will include bibliographic, chemical, 
# crystal, experimental, refinement or atomic coordinate data resulting 
# from the CCDC's data processing and validation procedures.
#
#######################################################################

data_VUNCOX
_symmetry_cell_setting           orthorhombic
_symmetry_space_group_name_H-M   'P n m a'
_symmetry_Int_Tables_number      62
_space_group_name_Hall           '-P 2ac 2n'
loop_
_symmetry_equiv_pos_site_id
_symmetry_equiv_pos_as_xyz
1 x,y,z
2 1/2-x,-y,1/2+z
3 -x,1/2+y,-z
4 1/2+x,1/2-y,1/2-z
5 -x,-y,-z
6 1/2+x,y,1/2-z
7 x,1/2-y,z
8 1/2-x,1/2+y,1/2+z
_cell_length_a                   7.9247(12)
_cell_length_b                   10.2187(15)
_cell_length_c                   9.5383(14)
_cell_angle_alpha                90
_cell_angle_beta                 90
_cell_angle_gamma                90
_cell_volume                     772.413
loop_
_atom_site_label
_atom_site_type_symbol
_atom_site_fract_x
_atom_site_fract_y
_atom_site_fract_z
Nd1 Nd 0.15963(4) 0.2500 0.32644(4)
O1 O 0.1201(6) 0.2500 0.6430(4)
O2 O 0.1869(4) 0.4596(3) 0.5015(3)
O3 O 0.1245(4) 0.5921(3) 0.6815(3)
O4 O -0.0034(6) 0.2500 1.0577(5)
C1 C 0.1398(5) 0.4825(4) 0.6223(5)
C2 C 0.0989(6) 0.3649(4) 0.7141(5)
C3 C 0.0549(6) 0.3687(5) 0.8494(4)
H1 H 0.0390 0.4492 0.8929
C4 C 0.0317(8) 0.2500 0.9292(7)
Nd1A Nd 0.34037(4) 0.7500 0.82644(4)
Nd1B Nd -0.15963(4) 0.7500 0.67356(4)
Nd1_2 Nd 0.15963(4) 0.2500 1.32644(4)
Nd1C Nd -0.34037(4) 0.2500 1.17356(4)
Nd1A_2 Nd 0.34037(4) -0.2500 0.82644(4)
Nd1B_2 Nd -0.15963(4) -0.2500 0.67356(4)
O2F O 0.1869(4) 0.0404(3) 0.5015(3)
O3F O 0.1245(4) -0.0921(3) 0.6815(3)
O3A O 0.3755(4) 0.4079(3) 0.1815(3)
O3B O -0.1245(4) 0.0921(3) 0.3185(3)
O3D O -0.1245(4) 0.4079(3) 0.3185(3)
O3G O 0.3755(4) 0.0921(3) 0.1815(3)
O4_2 O -0.0034(6) 0.2500 0.0577(5)
O4C O 0.4966(6) 0.2500 0.4423(5)
C1F C 0.1398(5) 0.0175(4) 0.6223(5)
C2F C 0.0989(6) 0.1351(4) 0.7141(5)
C3F C 0.0549(6) 0.1313(5) 0.8494(4)
H1F H 0.0390 0.0508 0.8929
loop_
_geom_bond_atom_site_label_1
_geom_bond_atom_site_label_2
_geom_bond_site_symmetry_1
_geom_bond_site_symmetry_2
Nd1 O2 1_555 1_555
O1 C2 1_555 1_555
O2 C1 1_555 1_555
O3 C1 1_555 1_555
O4 C4 1_555 1_555
C1 C2 1_555 1_555
C2 C3 1_555 1_555
C3 H1 1_555 1_555
C4 C3 1_555 1_555
Nd1A O3 1_555 1_555
Nd1B O3 1_555 1_555
Nd1_2 O4 1_555 1_555
Nd1C O4 1_555 1_555
Nd1A_2 O3F 1_555 1_555
Nd1B_2 O3F 1_555 1_555
O2F Nd1 1_555 1_555
O3F C1F 1_555 1_555
O3A Nd1 1_555 1_555
O3B Nd1 1_555 1_555
O3D Nd1 1_555 1_555
O3G Nd1 1_555 1_555
O4_2 Nd1 1_555 1_555
O4C Nd1 1_555 1_555
C1F O2F 1_555 1_555
C2F O1 1_555 1_555
C3F C4 1_555 1_555
H1F C3F 1_555 1_555
C1F C2F 1_555 1_555
C2F C3F 1_555 1_555

#END
