
#######################################################################
#
#                 Cambridge Crystallographic Data Centre
#                                CCDC 
#
#######################################################################
#
# If this CIF has been generated from an entry in the Cambridge 
# Structural Database, then it will include bibliographic, chemical, 
# crystal, experimental, refinement or atomic coordinate data resulting 
# from the CCDC's data processing and validation procedures.
#
#######################################################################

data_VUNCEN
_symmetry_cell_setting           triclinic
_symmetry_space_group_name_H-M   'P -1'
_symmetry_Int_Tables_number      2
_space_group_name_Hall           '-P 1'
loop_
_symmetry_equiv_pos_site_id
_symmetry_equiv_pos_as_xyz
1 x,y,z
2 -x,-y,-z
_cell_length_a                   8.0067(17)
_cell_length_b                   9.8939(19)
_cell_length_c                   14.203(3)
_cell_angle_alpha                76.760(8)
_cell_angle_beta                 83.927(9)
_cell_angle_gamma                79.662(9)
_cell_volume                     1074.98
loop_
_atom_site_label
_atom_site_type_symbol
_atom_site_fract_x
_atom_site_fract_y
_atom_site_fract_z
Zn1 Zn 0.5000 0.5000 0.0000
O1 O 0.24584(16) 0.51775(15) -0.03904(9)
N1 N 0.33899(18) 0.64071(14) 0.26565(10)
N2 N 0.18449(18) 0.62226(16) 0.24236(11)
N3 N 0.39042(17) 0.57048(14) 0.12937(10)
N4 N 0.43684(17) 1.10367(14) 0.18891(10)
N5 N 0.48175(19) 1.05300(15) 0.10678(10)
N6 N 0.48183(17) 1.28637(14) 0.07632(10)
C1 C 0.3546(2) 0.68957(18) 0.35386(12)
H1 H 0.4704 0.7120 0.3531
H2 H 0.3384 0.6135 0.4113
C2 C 0.2239(2) 0.81929(18) 0.36176(12)
H3 H 0.2354 0.8464 0.4234
H4 H 0.1085 0.7952 0.3642
C3 C 0.2411(2) 0.94506(18) 0.27834(12)
H5 H 0.2448 0.9151 0.2161
H6 H 0.1396 1.0181 0.2812
C4 C 0.3999(2) 1.00809(17) 0.28104(12)
H7 H 0.3836 1.0601 0.3340
H8 H 0.4980 0.9315 0.2948
C5 C 0.2225(2) 0.58034(18) 0.16038(12)
H9 H 0.1397 0.5586 0.1254
C6 C 0.4583(2) 0.60937(17) 0.19865(12)
H10 H 0.5755 0.6140 0.1998
C7 C 0.5070(2) 1.16642(17) 0.04161(13)
H11 H 0.5400 1.1649 -0.0244
C8 C 0.4372(2) 1.24100(17) 0.16980(12)
H12 H 0.4097 1.2988 0.2160
H15 H 0.207(3) 0.591(3) -0.0730(18)
H16 H 0.223(3) 0.455(3) -0.0651(18)
Zn1_2 Zn 0.5000 -0.5000 0.0000
Zn1_3 Zn 0.5000 1.5000 0.0000
O1A O 0.75416(16) 0.48225(15) 0.03904(9)
N1A N 0.66101(18) 0.35929(14) -0.26565(10)
N2A N 0.81551(18) 0.37774(16) -0.24236(11)
N3A N 0.60958(17) 0.42952(14) -0.12937(10)
N4A N 0.56316(17) -0.10367(14) -0.18891(10)
N5A N 0.51825(19) -0.05300(15) -0.10678(10)
N6A N 0.51817(17) -0.28637(14) -0.07632(10)
N6_2 N 0.48183(17) 0.28637(14) 0.07632(10)
N6A_2 N 0.51817(17) 0.71363(14) -0.07632(10)
C1A C 0.6454(2) 0.31043(18) -0.35386(12)
H1A H 0.5296 0.2880 -0.3531
H2A H 0.6616 0.3865 -0.4113
C2A C 0.7761(2) 0.18071(18) -0.36176(12)
H3A H 0.7646 0.1536 -0.4234
H4A H 0.8915 0.2048 -0.3642
C3A C 0.7589(2) 0.05494(18) -0.27834(12)
H5A H 0.7552 0.0849 -0.2161
H6A H 0.8604 -0.0181 -0.2812
C4A C 0.6001(2) -0.00809(17) -0.28104(12)
H7A H 0.6164 -0.0601 -0.3340
H8A H 0.5020 0.0685 -0.2948
C5A C 0.7775(2) 0.41966(18) -0.16038(12)
H9A H 0.8603 0.4414 -0.1254
C6A C 0.5417(2) 0.39063(17) -0.19865(12)
H10A H 0.4245 0.3860 -0.1998
C7A C 0.4930(2) -0.16642(17) -0.04161(13)
H11A H 0.4600 -0.1649 0.0244
C8A C 0.5628(2) -0.24100(17) -0.16980(12)
H12A H 0.5903 -0.2988 -0.2160
H15A H 0.793(3) 0.409(3) 0.0730(18)
H16A H 0.777(3) 0.545(3) 0.0651(18)
O2 O 0.88269(17) 1.24236(12) 0.16115(9)
O3 O 0.81982(15) 1.04321(13) 0.25095(8)
O4 O 0.78313(15) 0.81127(13) 0.23473(9)
O5 O 0.81238(16) 0.69361(13) 0.11941(9)
C9 C 0.93434(19) 1.04619(17) 0.08633(12)
C10 C 0.91638(19) 0.91067(17) 0.07614(12)
C11 C 0.9821(2) 0.87087(17) -0.00971(12)
H13 H 0.9692 0.7802 -0.0167
C12 C 0.8735(2) 1.11472(17) 0.17199(12)
C13 C 0.8316(2) 0.79804(18) 0.14690(12)
H18 H 0.806(3) 0.903(3) 0.246(2)
O2A O 1.11731(17) 0.75764(12) -0.16115(9)
O3A O 1.18018(15) 0.95679(13) -0.25095(8)
O4A O 1.21687(15) 1.18873(13) -0.23473(9)
O5A O 1.18762(16) 1.30639(13) -0.11941(9)
C9A C 1.06566(19) 0.95381(17) -0.08633(12)
C10A C 1.08362(19) 1.08933(17) -0.07614(12)
C11A C 1.0179(2) 1.12913(17) 0.00971(12)
H13A H 1.0308 1.2198 0.0167
C12A C 1.1265(2) 0.88528(17) -0.17199(12)
C13A C 1.1684(2) 1.20196(18) -0.14690(12)
H18A H 1.194(3) 1.097(3) -0.246(2)
O6 O 0.7076(2) 0.83704(15) 0.47415(11)
O7 O 0.58276(18) 0.67176(14) 0.57403(11)
O8 O 1.13161(17) 0.62248(14) 0.69857(9)
O9 O 0.86858(18) 0.73413(16) 0.67093(11)
C14 C 0.8627(2) 0.60539(17) 0.51201(12)
C15 C 0.9964(2) 0.57355(17) 0.57337(12)
C16 C 1.1322(2) 0.46822(17) 0.56073(12)
H14 H 1.2228 0.4464 0.6026
C17 C 0.7114(2) 0.71853(18) 0.51988(12)
C18 C 0.9913(2) 0.65214(18) 0.65213(12)
H17 H 0.499(3) 0.741(3) 0.5785(19)
H21 H 1.117(3) 0.679(3) 0.745(2)
O6A O 1.2924(2) 0.16296(15) 0.52585(11)
O7A O 1.41724(18) 0.32824(14) 0.42597(11)
O8A O 0.86839(17) 0.37752(14) 0.30143(9)
O9A O 1.13142(18) 0.26587(16) 0.32907(11)
C14A C 1.1373(2) 0.39461(17) 0.48799(12)
C15A C 1.0036(2) 0.42645(17) 0.42663(12)
C16A C 0.8678(2) 0.53178(17) 0.43927(12)
H14A H 0.7772 0.5536 0.3974
C17A C 1.2886(2) 0.28147(18) 0.48012(12)
C18A C 1.0087(2) 0.34786(18) 0.34787(12)
H17A H 1.501(3) 0.259(3) 0.4215(19)
H21A H 0.883(3) 0.321(3) 0.255(2)
O10 O 0.33000(18) 0.87263(15) 0.58245(11)
H19 H 0.281(3) 0.882(3) 0.636(2)
H20 H 0.335(3) 0.960(3) 0.5544(18)
loop_
_geom_bond_atom_site_label_1
_geom_bond_atom_site_label_2
_geom_bond_site_symmetry_1
_geom_bond_site_symmetry_2
Zn1 O1 1_555 1_555
O1 H15 1_555 1_555
O2 C12 1_555 1_555
O3 C12 1_555 1_555
O4 C13 1_555 1_555
O5 C13 1_555 1_555
O6 C17 1_555 1_555
O7 C17 1_555 1_555
O8 C18 1_555 1_555
O9 C18 1_555 1_555
O10 H19 1_555 1_555
N1 N2 1_555 1_555
N2 C5 1_555 1_555
N3 Zn1 1_555 1_555
N4 N5 1_555 1_555
N5 C7 1_555 1_555
N6 C7 1_555 1_555
C1 N1 1_555 1_555
H1 C1 1_555 1_555
H2 C1 1_555 1_555
C2 C1 1_555 1_555
H3 C2 1_555 1_555
H4 C2 1_555 1_555
C3 C2 1_555 1_555
H5 C3 1_555 1_555
H6 C3 1_555 1_555
C4 N4 1_555 1_555
H7 C4 1_555 1_555
H8 C4 1_555 1_555
C5 N3 1_555 1_555
H9 C5 1_555 1_555
C6 N1 1_555 1_555
H10 C6 1_555 1_555
C7 H11 1_555 1_555
C8 N4 1_555 1_555
H12 C8 1_555 1_555
C9 C10 1_555 1_555
C10 C11 1_555 1_555
C11 H13 1_555 1_555
C12 C9 1_555 1_555
C13 C10 1_555 1_555
C14 C15 1_555 1_555
C15 C16 1_555 1_555
C16 H14 1_555 1_555
C17 C14 1_555 1_555
C18 C15 1_555 1_555
H16 O1 1_555 1_555
H17 O7 1_555 1_555
H18 O4 1_555 1_555
H20 O10 1_555 1_555
H21 O8 1_555 1_555
Zn1_2 N6A 1_555 1_555
Zn1_3 N6 1_555 1_555
O1A Zn1 1_555 1_555
O2A C12A 1_555 1_555
O3A C12A 1_555 1_555
O4A C13A 1_555 1_555
O5A C13A 1_555 1_555
O6A C17A 1_555 1_555
O7A C17A 1_555 1_555
O8A C18A 1_555 1_555
O9A C18A 1_555 1_555
N1A N2A 1_555 1_555
N2A C5A 1_555 1_555
N3A Zn1 1_555 1_555
N4A N5A 1_555 1_555
N5A C7A 1_555 1_555
N6A C7A 1_555 1_555
N6_2 Zn1 1_555 1_555
N6A_2 Zn1 1_555 1_555
C1A N1A 1_555 1_555
H1A C1A 1_555 1_555
H2A C1A 1_555 1_555
C2A C1A 1_555 1_555
H3A C2A 1_555 1_555
H4A C2A 1_555 1_555
C3A C2A 1_555 1_555
H5A C3A 1_555 1_555
H6A C3A 1_555 1_555
C4A N4A 1_555 1_555
H7A C4A 1_555 1_555
H8A C4A 1_555 1_555
C5A N3A 1_555 1_555
H9A C5A 1_555 1_555
C6A N1A 1_555 1_555
H10A C6A 1_555 1_555
C7A H11A 1_555 1_555
C8A N4A 1_555 1_555
H12A C8A 1_555 1_555
C9A C11 1_555 1_555
C10A C9A 1_555 1_555
C11A C9 1_555 1_555
H13A C11A 1_555 1_555
C12A C9A 1_555 1_555
C13A C10A 1_555 1_555
C14A C16 1_555 1_555
C15A C14A 1_555 1_555
C16A C14 1_555 1_555
H14A C16A 1_555 1_555
C17A C14A 1_555 1_555
C18A C15A 1_555 1_555
H15A O1A 1_555 1_555
H16A O1A 1_555 1_555
H17A O7A 1_555 1_555
H18A O4A 1_555 1_555
H21A O8A 1_555 1_555
N3 C6 1_555 1_555
N6 C8 1_555 1_555
C3 C4 1_555 1_555
N3A C6A 1_555 1_555
N6A C8A 1_555 1_555
C3A C4A 1_555 1_555
C10A C11A 1_555 1_555
C15A C16A 1_555 1_555

#END
