
#######################################################################
#
#                 Cambridge Crystallographic Data Centre
#                                CCDC 
#
#######################################################################
#
# If this CIF has been generated from an entry in the Cambridge 
# Structural Database, then it will include bibliographic, chemical, 
# crystal, experimental, refinement or atomic coordinate data resulting 
# from the CCDC's data processing and validation procedures.
#
#######################################################################

data_VUNCAJ
_symmetry_cell_setting           monoclinic
_symmetry_space_group_name_H-M   'P 21/n'
_symmetry_Int_Tables_number      14
_space_group_name_Hall           '-P 2yn'
loop_
_symmetry_equiv_pos_site_id
_symmetry_equiv_pos_as_xyz
1 x,y,z
2 1/2-x,1/2+y,1/2-z
3 -x,-y,-z
4 1/2+x,1/2-y,1/2+z
_cell_length_a                   8.6296(18)
_cell_length_b                   9.608(2)
_cell_length_c                   14.497(3)
_cell_angle_alpha                90
_cell_angle_beta                 93.097(5)
_cell_angle_gamma                90
_cell_volume                     1200.24
loop_
_atom_site_label
_atom_site_type_symbol
_atom_site_fract_x
_atom_site_fract_y
_atom_site_fract_z
Zn1 Zn 0.34326(6) 0.49706(5) 0.32831(4)
O1 O 0.3942(4) 0.3392(3) 0.4071(2)
O2 O 0.5070(4) 0.2248(4) 0.2954(2)
O3 O 0.2419(4) 0.0176(3) 0.2968(2)
O4 O 0.4090(4) -0.1493(4) 0.2667(2)
O5 O 0.5355(4) 0.6106(4) 0.3227(3)
N1 N 0.0448(5) 0.7214(4) 0.4889(3)
N2 N 0.1194(6) 0.6444(5) 0.5571(3)
N3 N 0.2106(5) 0.5963(4) 0.4190(3)
C1 C -0.0641(7) 0.9624(6) 0.4752(5)
H1 H -0.0440 0.9596 0.4086
H2 H -0.1617 1.0148 0.4818
C2 C -0.0862(7) 0.8138(6) 0.5093(5)
H3 H -0.0977 0.8155 0.5769
H4 H -0.1831 0.7753 0.4799
C3 C 0.2158(6) 0.5706(5) 0.5115(4)
H5 H 0.2842 0.5042 0.5403
C4 C 0.0999(6) 0.6921(5) 0.4087(4)
H6 H 0.0656 0.7332 0.3516
C5 C 0.5305(5) 0.1338(5) 0.5285(3)
H7 H 0.5497 0.2266 0.5487
C6 C 0.4738(5) 0.1109(5) 0.4389(3)
C7 C 0.4400(5) -0.0253(5) 0.4103(3)
C8 C 0.4576(5) 0.2324(5) 0.3734(3)
C9 C 0.3617(6) -0.0560(5) 0.3169(3)
H8 H 0.605(8) 0.578(7) 0.302(4)
H9 H 0.508(9) 0.698(9) 0.305(5)
Zn1B Zn -0.34326(6) 1.50294(5) 0.67169(4)
Zn1A Zn 0.15674(6) -0.00294(5) 0.17169(4)
Zn1B_2 Zn 0.65674(6) -0.49706(5) 0.67169(4)
Zn1C Zn 0.84326(6) 0.00294(5) 0.82831(4)
O1B O 0.6058(4) -0.3392(3) 0.5929(2)
O1B_2 O -0.3942(4) 1.6608(3) 0.5929(2)
O2B O 0.4930(4) -0.2248(4) 0.7046(2)
O3B O 0.7581(4) -0.0176(3) 0.7032(2)
O3A O 0.2581(4) 0.5176(3) 0.2032(2)
O3C O -0.2581(4) 1.4824(3) 0.7968(2)
O4B O 0.5910(4) 0.1493(4) 0.7333(2)
O5B O -0.5355(4) 1.3894(4) 0.6773(3)
N1B N -0.0448(5) 1.2786(4) 0.5111(3)
N2B N -0.1194(6) 1.3556(5) 0.4429(3)
N3B N -0.2106(5) 1.4037(4) 0.5810(3)
C1B C 0.0641(7) 1.0376(6) 0.5248(5)
H1B H 0.0440 1.0404 0.5914
H2B H 0.1617 0.9852 0.5182
C2B C 0.0862(7) 1.1862(6) 0.4907(5)
H3B H 0.0977 1.1845 0.4231
H4B H 0.1831 1.2247 0.5201
C3B C -0.2158(6) 1.4294(5) 0.4885(4)
H5B H -0.2842 1.4958 0.4597
C4B C -0.0999(6) 1.3079(5) 0.5913(4)
H6B H -0.0656 1.2668 0.6484
C5B C 0.4695(5) -0.1338(5) 0.4715(3)
H7B H 0.4503 -0.2266 0.4513
C6B C 0.5262(5) -0.1109(5) 0.5611(3)
C7B C 0.5600(5) 0.0253(5) 0.5897(3)
C8B C 0.5424(5) -0.2324(5) 0.6266(3)
C9B C 0.6383(6) 0.0560(5) 0.6831(3)
H8B H -0.605(8) 1.422(7) 0.698(4)
H9B H -0.508(9) 1.302(9) 0.695(5)
O6 O 0.7912(6) 0.5192(6) 0.2576(4)
H10 H 0.873(14) 0.572(14) 0.239(12)
H11 H 0.787(18) 0.422(5) 0.256(11)
loop_
_geom_bond_atom_site_label_1
_geom_bond_atom_site_label_2
_geom_bond_site_symmetry_1
_geom_bond_site_symmetry_2
Zn1 O1 1_555 1_555
O1 C8 1_555 1_555
O2 C8 1_555 1_555
O3 C9 1_555 1_555
O4 C9 1_555 1_555
O5 Zn1 1_555 1_555
O6 H10 1_555 1_555
N1 N2 1_555 1_555
N2 C3 1_555 1_555
N3 Zn1 1_555 1_555
C1 H1 1_555 1_555
H2 C1 1_555 1_555
C2 N1 1_555 1_555
H3 C2 1_555 1_555
H4 C2 1_555 1_555
C3 N3 1_555 1_555
H5 C3 1_555 1_555
C4 N1 1_555 1_555
H6 C4 1_555 1_555
C5 H7 1_555 1_555
C6 C5 1_555 1_555
C7 C6 1_555 1_555
C8 C6 1_555 1_555
C9 C7 1_555 1_555
H8 O5 1_555 1_555
H9 O5 1_555 1_555
H11 O6 1_555 1_555
Zn1B O1B_2 1_555 1_555
Zn1A O3 1_555 1_555
Zn1B_2 O1B 1_555 1_555
Zn1C O3B 1_555 1_555
O1B C8B 1_555 1_555
O2B C8B 1_555 1_555
O3B C9B 1_555 1_555
O3A Zn1 1_555 1_555
O3C Zn1B 1_555 1_555
O4B C9B 1_555 1_555
O5B Zn1B 1_555 1_555
N1B N2B 1_555 1_555
N2B C3B 1_555 1_555
N3B Zn1B 1_555 1_555
C1B C1 1_555 1_555
H1B C1B 1_555 1_555
H2B C1B 1_555 1_555
C2B N1B 1_555 1_555
H3B C2B 1_555 1_555
H4B C2B 1_555 1_555
C3B N3B 1_555 1_555
H5B C3B 1_555 1_555
C4B N1B 1_555 1_555
H6B C4B 1_555 1_555
C5B C7 1_555 1_555
H7B C5B 1_555 1_555
C6B C5B 1_555 1_555
C7B C5 1_555 1_555
C8B C6B 1_555 1_555
C9B C7B 1_555 1_555
H8B O5B 1_555 1_555
H9B O5B 1_555 1_555
N3 C4 1_555 1_555
C1 C2 1_555 1_555
N3B C4B 1_555 1_555
C1B C2B 1_555 1_555
C6B C7B 1_555 1_555

#END
