
#######################################################################
#
#                 Cambridge Crystallographic Data Centre
#                                CCDC 
#
#######################################################################
#
# If this CIF has been generated from an entry in the Cambridge 
# Structural Database, then it will include bibliographic, chemical, 
# crystal, experimental, refinement or atomic coordinate data resulting 
# from the CCDC's data processing and validation procedures.
#
#######################################################################

data_VUNCIR
_symmetry_cell_setting           orthorhombic
_symmetry_space_group_name_H-M   'P n m a'
_symmetry_Int_Tables_number      62
_space_group_name_Hall           '-P 2ac 2n'
loop_
_symmetry_equiv_pos_site_id
_symmetry_equiv_pos_as_xyz
1 x,y,z
2 1/2-x,-y,1/2+z
3 1/2+x,1/2-y,1/2-z
4 -x,1/2+y,-z
5 -x,-y,-z
6 1/2+x,y,1/2-z
7 1/2-x,1/2+y,1/2+z
8 x,1/2-y,z
_cell_length_a                   7.9153(18)
_cell_length_b                   10.228(2)
_cell_length_c                   9.528(2)
_cell_angle_alpha                90
_cell_angle_beta                 90
_cell_angle_gamma                90
_cell_volume                     771.365
loop_
_atom_site_label
_atom_site_type_symbol
_atom_site_fract_x
_atom_site_fract_y
_atom_site_fract_z
Pr1 Pr 0.15954(3) 0.7500 -0.17360(3)
O1 O 0.1868(3) 0.5406(3) 0.0014(3)
O2 O 0.1247(4) 0.4081(3) 0.1811(3)
O3 O -0.0041(5) 0.7500 0.5577(4)
O4 O 0.1202(5) 0.7500 0.1429(3)
C1 C 0.1400(4) 0.5178(3) 0.1227(4)
C2 C 0.0993(4) 0.6356(3) 0.2141(4)
C3 C 0.0548(5) 0.6312(4) 0.3498(4)
H1 H 0.0386 0.5507 0.3932
C4 C 0.0318(7) 0.7500 0.4293(5)
Pr1A Pr 0.34046(3) 0.2500 0.32640(3)
Pr1C Pr -0.15954(3) 0.2500 0.17360(3)
Pr1_2 Pr 0.15954(3) 0.7500 0.82640(3)
Pr1B Pr -0.34046(3) 0.7500 0.67360(3)
Pr1A_2 Pr 0.34046(3) 1.2500 0.32640(3)
Pr1C_2 Pr -0.15954(3) 1.2500 0.17360(3)
O1G O 0.1868(3) 0.9594(3) 0.0014(3)
O2G O 0.1247(4) 1.0919(3) 0.1811(3)
O2A O 0.3753(4) 0.5919(3) -0.3189(3)
O2C O -0.1247(4) 0.9081(3) -0.1811(3)
O2D O -0.1247(4) 0.5919(3) -0.1811(3)
O2F O 0.3753(4) 0.9081(3) -0.3189(3)
O3_2 O -0.0041(5) 0.7500 -0.4423(4)
O3B O 0.4959(5) 0.7500 -0.0577(4)
C1G C 0.1400(4) 0.9822(3) 0.1227(4)
C2G C 0.0993(4) 0.8644(3) 0.2141(4)
C3G C 0.0548(5) 0.8688(4) 0.3498(4)
H1G H 0.0386 0.9493 0.3932
loop_
_geom_bond_atom_site_label_1
_geom_bond_atom_site_label_2
_geom_bond_site_symmetry_1
_geom_bond_site_symmetry_2
Pr1 O1 1_555 1_555
O1 C1 1_555 1_555
O2 C1 1_555 1_555
O3 C4 1_555 1_555
O4 C2 1_555 1_555
C1 C2 1_555 1_555
C2 C3 1_555 1_555
C3 H1 1_555 1_555
C4 C3 1_555 1_555
Pr1A O2 1_555 1_555
Pr1C O2 1_555 1_555
Pr1_2 O3 1_555 1_555
Pr1B O3 1_555 1_555
Pr1A_2 O2G 1_555 1_555
Pr1C_2 O2G 1_555 1_555
O1G Pr1 1_555 1_555
O2G C1G 1_555 1_555
O2A Pr1 1_555 1_555
O2C Pr1 1_555 1_555
O2D Pr1 1_555 1_555
O2F Pr1 1_555 1_555
O3_2 Pr1 1_555 1_555
O3B Pr1 1_555 1_555
C1G O1G 1_555 1_555
C2G O4 1_555 1_555
C3G C4 1_555 1_555
H1G C3G 1_555 1_555
C1G C2G 1_555 1_555
C2G C3G 1_555 1_555

#END
