
#######################################################################
#
#                 Cambridge Crystallographic Data Centre
#                                CCDC 
#
#######################################################################
#
# If this CIF has been generated from an entry in the Cambridge 
# Structural Database, then it will include bibliographic, chemical, 
# crystal, experimental, refinement or atomic coordinate data resulting 
# from the CCDC's data processing and validation procedures.
#
#######################################################################

data_VUNDAK
_symmetry_cell_setting           orthorhombic
_symmetry_space_group_name_H-M   'P n m a'
_symmetry_Int_Tables_number      62
_space_group_name_Hall           '-P 2ac 2n'
loop_
_symmetry_equiv_pos_site_id
_symmetry_equiv_pos_as_xyz
1 x,y,z
2 1/2-x,-y,1/2+z
3 1/2+x,1/2-y,1/2-z
4 -x,1/2+y,-z
5 -x,-y,-z
6 1/2+x,y,1/2-z
7 1/2-x,1/2+y,1/2+z
8 x,1/2-y,z
_cell_length_a                   19.476(5)
_cell_length_b                   10.024(3)
_cell_length_c                   4.3060(12)
_cell_angle_alpha                90
_cell_angle_beta                 90
_cell_angle_gamma                90
_cell_volume                     840.649
loop_
_atom_site_label
_atom_site_type_symbol
_atom_site_fract_x
_atom_site_fract_y
_atom_site_fract_z
Ho1 Ho 0.33754(2) 0.2500 0.55142(9)
C1 C 0.6387(3) 0.0123(5) -0.1443(12)
C2 C 0.6040(3) 0.1347(5) -0.0150(11)
C3 C 0.5518(2) 0.1298(5) 0.1907(12)
H1 H 0.5349 0.0476 0.2557
C4 C 0.5223(4) 0.2500 0.3096(17)
O1 O 0.4748(3) 0.2500 0.5020(13)
O2 O 0.62037(18) -0.0961(4) -0.0320(8)
O3 O 0.6808(2) 0.0271(4) -0.3588(10)
O4 O 0.6294(2) 0.2500 -0.1244(12)
O5 O 0.2417(3) 0.2500 0.0767(14)
Ho1C Ho 0.66246(2) -0.2500 -0.55142(9)
Ho1C_2 Ho 0.66246(2) -0.2500 0.44858(9)
Ho1C_3 Ho 0.66246(2) 0.7500 -0.55142(9)
Ho1C_4 Ho 0.66246(2) 0.7500 0.44858(9)
C1G C 0.6387(3) 0.4877(5) -0.1443(12)
C2G C 0.6040(3) 0.3653(5) -0.0150(11)
C3G C 0.5518(2) 0.3702(5) 0.1907(12)
H1G H 0.5349 0.4524 0.2557
O2G O 0.62037(18) 0.5961(4) -0.0320(8)
O2C O 0.37963(18) 0.4039(4) 0.0320(8)
O2C_2 O 0.37963(18) 0.4039(4) 1.0320(8)
O2D O 0.37963(18) 0.0961(4) 0.0320(8)
O2D_2 O 0.37963(18) 0.0961(4) 1.0320(8)
O3G O 0.6808(2) 0.4729(4) -0.3588(10)
loop_
_geom_bond_atom_site_label_1
_geom_bond_atom_site_label_2
_geom_bond_site_symmetry_1
_geom_bond_site_symmetry_2
Ho1 O1 1_555 1_555
C1 C2 1_555 1_555
C2 C3 1_555 1_555
C3 H1 1_555 1_555
C4 C3 1_555 1_555
O1 C4 1_555 1_555
O2 C1 1_555 1_555
O3 C1 1_555 1_555
O4 C2 1_555 1_555
O5 Ho1 1_555 1_555
Ho1C O2 1_555 1_555
Ho1C_2 O2 1_555 1_555
Ho1C_3 O2G 1_555 1_555
Ho1C_4 O2G 1_555 1_555
C1G C2G 1_555 1_555
C2G O4 1_555 1_555
C3G C4 1_555 1_555
H1G C3G 1_555 1_555
O2G C1G 1_555 1_555
O2C Ho1 1_555 1_555
O2C_2 Ho1 1_555 1_555
O2D Ho1 1_555 1_555
O2D_2 Ho1 1_555 1_555
O3G C1G 1_555 1_555
C2G C3G 1_555 1_555

#END
