
#######################################################################
#
#                 Cambridge Crystallographic Data Centre
#                                CCDC 
#
#######################################################################
#
# If this CIF has been generated from an entry in the Cambridge 
# Structural Database, then it will include bibliographic, chemical, 
# crystal, experimental, refinement or atomic coordinate data resulting 
# from the CCDC's data processing and validation procedures.
#
#######################################################################

data_VUNDIT
_symmetry_cell_setting           triclinic
_symmetry_space_group_name_H-M   'P -1'
_symmetry_Int_Tables_number      2
_space_group_name_Hall           '-P 1'
loop_
_symmetry_equiv_pos_site_id
_symmetry_equiv_pos_as_xyz
1 x,y,z
2 -x,-y,-z
_cell_length_a                   7.412(4)
_cell_length_b                   14.291(9)
_cell_length_c                   16.206(9)
_cell_angle_alpha                103.696(5)
_cell_angle_beta                 96.531(4)
_cell_angle_gamma                97.864(5)
_cell_volume                     1632.97
loop_
_atom_site_label
_atom_site_type_symbol
_atom_site_fract_x
_atom_site_fract_y
_atom_site_fract_z
Cd1 Cd 0.21164(6) -0.54975(4) 0.96986(3)
Cd2 Cd 0.24507(5) -0.02053(3) 0.47268(3)
C1 C 0.3870(10) -0.5589(6) 0.7945(5)
H1 H 0.4832 -0.5074 0.8198
N1 N 0.2035(8) -0.6819(5) 0.6975(4)
C2 C 0.4597(9) -0.6009(5) 0.6446(4)
H2 H 0.4846 -0.6644 0.6156
H3 H 0.5768 -0.5581 0.6679
C3 C 0.2768(8) -0.5995(5) 0.5010(4)
C4 C 0.2654(7) -0.6996(5) 0.4471(4)
C5 C 0.2539(9) -0.7120(5) 0.3600(4)
H4 H 0.2519 -0.6586 0.3365
C6 C 0.2453(9) -0.8034(5) 0.3082(4)
H5 H 0.2365 -0.8132 0.2490
C7 C 0.2498(8) -0.8807(5) 0.3445(4)
H6 H 0.2506 -0.9421 0.3089
C8 C 0.2586(8) -0.7826(5) 0.4781(4)
H7 H 0.2579 -0.7755 0.5366
C9 C 0.2565(8) -0.4503(5) 0.5375(5)
C10 C 0.2238(8) -0.3531(5) 0.5302(4)
C11 C 0.1583(8) -0.3398(5) 0.4535(4)
H8 H 0.1186 -0.3934 0.4065
C12 C 0.1502(8) -0.2468(5) 0.4445(4)
H9 H 0.1057 -0.2397 0.3908
C13 C 0.2572(8) -0.1804(5) 0.5857(4)
H10 H 0.2898 -0.1258 0.6322
C14 C 0.2676(9) -0.2714(5) 0.5998(4)
H11 H 0.3031 -0.2777 0.6549
C15 C 0.4737(9) -0.3597(5) 0.9704(4)
C16 C 0.0780(9) -0.3456(6) 0.9829(5)
C17 C 0.1939(9) -0.2840(5) 0.9398(4)
C18 C 0.1146(10) -0.2182(6) 0.9044(6)
H12 H -0.0075 -0.2128 0.9096
C19 C 0.2097(13) -0.1602(7) 0.8616(6)
H13 H 0.1537 -0.1150 0.8396
C20 C 0.3871(12) -0.1696(7) 0.8515(6)
H14 H 0.4522 -0.1314 0.8219
C21 C 0.4699(10) -0.2360(6) 0.8854(5)
H15 H 0.5907 -0.2422 0.8780
C22 C 0.3780(9) -0.2929(5) 0.9294(4)
C23 C 0.4783(7) 0.1069(5) 0.6466(4)
C24 C 0.0676(8) 0.0812(5) 0.6590(4)
C25 C 0.2155(8) 0.0927(5) 0.7342(4)
C26 C 0.1607(10) 0.0969(5) 0.8150(4)
H16 H 0.0369 0.0948 0.8208
C27 C 0.2883(11) 0.1040(6) 0.8856(5)
H17 H 0.2511 0.1075 0.9390
C28 C 0.4735(11) 0.1061(6) 0.8772(5)
H18 H 0.5596 0.1081 0.9243
C29 C 0.5282(8) 0.1052(5) 0.7995(4)
H19 H 0.6527 0.1089 0.7949
C30 C 0.4019(8) 0.0989(4) 0.7264(4)
N2 N 0.2523(8) -0.5935(5) 0.8345(4)
C31 C 0.1517(9) -0.6690(6) 0.7736(5)
H20 H 0.0524 -0.7092 0.7845
N3 N 0.3592(7) -0.6107(4) 0.7127(4)
N4 N 0.3577(7) -0.5613(4) 0.5837(4)
N5 N 0.3454(7) -0.4648(4) 0.6086(4)
N6 N 0.2113(7) -0.5299(4) 0.4705(3)
N7 N 0.2529(7) -0.8718(4) 0.4279(3)
N8 N 0.2027(6) -0.1672(4) 0.5087(4)
O1 O 0.3993(5) -0.4016(4) 1.0201(3)
O2 O 0.6316(6) -0.3709(4) 0.9514(3)
O3 O 0.0161(6) -0.4336(4) 0.9433(3)
O4 O 0.0287(7) -0.3065(4) 1.0514(3)
O5 O 0.4893(5) 0.0295(3) 0.5914(3)
O6 O 0.5374(6) 0.1909(4) 0.6428(3)
O7 O 0.1070(5) 0.0607(3) 0.5838(3)
O8 O -0.0931(5) 0.0933(3) 0.6734(3)
Cd1A Cd -0.21164(6) -0.45025(4) 1.03014(3)
Cd1A_2 Cd 0.78836(6) -0.45025(4) 1.03014(3)
Cd2_2 Cd 0.24507(5) -1.02053(3) 0.47268(3)
Cd2A Cd -0.24507(5) 0.02053(3) 0.52732(3)
Cd2A_2 Cd 0.75493(5) 0.02053(3) 0.52732(3)
N7_2 N 0.2529(7) 0.1282(4) 0.4279(3)
O2A O 0.3684(6) -0.6291(4) 1.0486(3)
O3A O -0.0161(6) -0.5664(4) 1.0567(3)
O4A O -0.0287(7) -0.6935(4) 0.9486(3)
O5A O 0.5107(5) -0.0295(3) 0.4086(3)
O7A O -0.1070(5) -0.0607(3) 0.4162(3)
O8A O 0.0931(5) -0.0933(3) 0.3266(3)
O9 O 0.7246(8) 0.3367(5) 0.7899(4)
H21 H 0.6538 0.2914 0.7516
H22 H 0.6751 0.3456 0.8353
O10 O -0.1562(13) -0.4769(8) 0.7606(6)
H23 H -0.0964 -0.4494 0.8104
H24 H -0.0864 -0.4644 0.7243
loop_
_geom_bond_atom_site_label_1
_geom_bond_atom_site_label_2
_geom_bond_site_symmetry_1
_geom_bond_site_symmetry_2
Cd1 N2 1_555 1_555
Cd2 N8 1_555 1_555
C1 H1 1_555 1_555
N1 C31 1_555 1_555
C2 H2 1_555 1_555
H3 C2 1_555 1_555
C3 C4 1_555 1_555
C4 C5 1_555 1_555
C5 H4 1_555 1_555
C6 C5 1_555 1_555
H5 C6 1_555 1_555
C7 C6 1_555 1_555
H6 C7 1_555 1_555
C8 C4 1_555 1_555
H7 C8 1_555 1_555
C9 C10 1_555 1_555
C10 C11 1_555 1_555
C11 H8 1_555 1_555
C12 C11 1_555 1_555
H9 C12 1_555 1_555
C13 H10 1_555 1_555
C14 C10 1_555 1_555
H11 C14 1_555 1_555
C15 C22 1_555 1_555
C16 C17 1_555 1_555
C17 C18 1_555 1_555
C18 H12 1_555 1_555
C19 C18 1_555 1_555
H13 C19 1_555 1_555
C20 C19 1_555 1_555
H14 C20 1_555 1_555
C21 C20 1_555 1_555
H15 C21 1_555 1_555
C22 C17 1_555 1_555
C23 C30 1_555 1_555
C24 C25 1_555 1_555
C25 C26 1_555 1_555
C26 H16 1_555 1_555
C27 C26 1_555 1_555
H17 C27 1_555 1_555
C28 C27 1_555 1_555
H18 C28 1_555 1_555
C29 C28 1_555 1_555
H19 C29 1_555 1_555
C30 C25 1_555 1_555
N2 C1 1_555 1_555
C31 N2 1_555 1_555
H20 C31 1_555 1_555
N3 C1 1_555 1_555
N4 C2 1_555 1_555
N5 C9 1_555 1_555
N6 C3 1_555 1_555
N7 C7 1_555 1_555
N8 C12 1_555 1_555
O1 Cd1 1_555 1_555
O2 C15 1_555 1_555
O3 Cd1 1_555 1_555
O4 C16 1_555 1_555
O5 Cd2 1_555 1_555
O6 C23 1_555 1_555
O7 Cd2 1_555 1_555
O8 C24 1_555 1_555
O9 H21 1_555 1_555
H22 O9 1_555 1_555
O10 H23 1_555 1_555
H24 O10 1_555 1_555
Cd1A O3 1_555 1_555
Cd1A_2 O2 1_555 1_555
Cd2_2 N7 1_555 1_555
Cd2A O7 1_555 1_555
Cd2A_2 O5 1_555 1_555
N7_2 Cd2 1_555 1_555
O2A Cd1 1_555 1_555
O3A Cd1 1_555 1_555
O4A Cd1 1_555 1_555
O5A Cd2 1_555 1_555
O7A Cd2 1_555 1_555
O8A Cd2 1_555 1_555
N1 N3 1_555 1_555
C2 N3 1_555 1_555
C3 N4 1_555 1_555
C8 N7 1_555 1_555
C9 N6 1_555 1_555
C13 C14 1_555 1_555
C13 N8 1_555 1_555
C15 O1 1_555 1_555
C16 O3 1_555 1_555
C21 C22 1_555 1_555
C23 O5 1_555 1_555
C24 O7 1_555 1_555
C29 C30 1_555 1_555
N4 N5 1_555 1_555
O4 Cd1A 1_555 1_555
O8 Cd2A 1_555 1_555
Cd1A O3A 1_555 1_555
Cd2A O7A 1_555 1_555
Cd2A_2 O5A 1_555 1_555

#END
