
#######################################################################
#
#                 Cambridge Crystallographic Data Centre
#                                CCDC 
#
#######################################################################
#
# If this CIF has been generated from an entry in the Cambridge 
# Structural Database, then it will include bibliographic, chemical, 
# crystal, experimental, refinement or atomic coordinate data resulting 
# from the CCDC's data processing and validation procedures.
#
#######################################################################

data_VUNDAL
_symmetry_cell_setting           monoclinic
_symmetry_space_group_name_H-M   'P 21/n'
_symmetry_Int_Tables_number      14
_space_group_name_Hall           '-P 2yn'
loop_
_symmetry_equiv_pos_site_id
_symmetry_equiv_pos_as_xyz
1 x,y,z
2 1/2-x,1/2+y,1/2-z
3 -x,-y,-z
4 1/2+x,1/2-y,1/2+z
_cell_length_a                   9.3348(8)
_cell_length_b                   13.1153(11)
_cell_length_c                   27.046(2)
_cell_angle_alpha                90
_cell_angle_beta                 95.5150(10)
_cell_angle_gamma                90
_cell_volume                     3295.88
loop_
_atom_site_label
_atom_site_type_symbol
_atom_site_fract_x
_atom_site_fract_y
_atom_site_fract_z
Zn1 Zn 0.48020(4) -0.10114(2) -0.177199(12)
Zn2 Zn 0.50405(4) 0.53169(3) 0.089952(12)
N1 N 0.3144(3) 0.05927(18) 0.15269(9)
N2 N 0.4697(2) 0.21415(17) 0.12012(8)
N3 N 0.5749(2) 0.41967(17) 0.14720(8)
N4 N 0.4906(3) 0.61964(18) 0.15143(9)
O1 O -0.0368(3) 0.4062(2) -0.23322(9)
O2 O 0.1090(3) 0.30931(16) -0.27018(7)
O3 O 0.4035(3) 0.0260(2) -0.10347(10)
O4 O 0.3487(3) 0.01546(18) -0.18343(9)
O5 O 0.1885(2) 0.50275(16) 0.10187(7)
O6 O 0.3459(2) 0.48872(16) 0.04585(7)
O7 O 0.4104(2) 0.33280(18) -0.02775(9)
O8 O 0.3058(2) 0.46660(17) -0.06506(7)
C1 C 0.0535(3) 0.3373(2) -0.23158(11)
C2 C 0.1024(3) 0.2830(2) -0.18407(10)
C3 C 0.1962(3) 0.2006(2) -0.18517(10)
H1 H 0.2256 0.1788 -0.2153
C4 C 0.2461(3) 0.1510(2) -0.14165(10)
C5 C 0.2046(3) 0.1866(2) -0.09673(10)
H2 H 0.2409 0.1553 -0.0673
C6 C 0.1099(3) 0.2680(2) -0.09494(10)
C7 C 0.0570(3) 0.3154(2) -0.13918(10)
H3 H -0.0086 0.3686 -0.1386
C8 C 0.0679(3) 0.3065(2) -0.04628(10)
C9 C 0.1643(3) 0.3670(2) -0.01641(9)
C10 C 0.1229(3) 0.4068(2) 0.02837(10)
C11 C -0.0134(3) 0.3856(2) 0.04203(11)
H4 H -0.0415 0.4122 0.0715
C12 C -0.1072(3) 0.3258(3) 0.01268(12)
H5 H -0.1982 0.3121 0.0223
C13 C -0.0670(3) 0.2858(3) -0.03132(11)
H6 H -0.1309 0.2449 -0.0509
C14 C 0.2232(3) 0.4722(2) 0.06172(10)
C15 C 0.3062(3) 0.3901(2) -0.03607(10)
C16 C 0.3393(3) 0.0583(2) -0.14255(12)
C17 C 0.2228(4) 0.0050(3) 0.17734(14)
H7 H 0.2505 -0.0153 0.2098
C18 C 0.0888(5) -0.0212(3) 0.15567(19)
H8 H 0.0276 -0.0611 0.1728
C19 C 0.0461(5) 0.0123(4) 0.1082(2)
H9 H -0.0452 -0.0032 0.0933
C20 C 0.1397(4) 0.0689(3) 0.08338(15)
H10 H 0.1128 0.0919 0.0513
C21 C 0.2737(3) 0.0912(2) 0.10633(11)
C22 C 0.3809(3) 0.1532(2) 0.08201(10)
H11 H 0.4426 0.1086 0.0649
H12 H 0.3313 0.1985 0.0577
C23 C 0.5667(3) 0.5809(2) 0.19174(11)
C24 C 0.5609(4) 0.6239(3) 0.23840(12)
H13 H 0.6134 0.5959 0.2661
C25 C 0.4769(5) 0.7081(3) 0.24308(15)
H14 H 0.4729 0.7389 0.2739
C26 C 0.3993(5) 0.7463(3) 0.20209(17)
H15 H 0.3403 0.8027 0.2049
C27 C 0.4081(4) 0.7011(3) 0.15643(14)
H16 H 0.3552 0.7280 0.1286
C28 C 0.6561(3) 0.4898(2) 0.18255(11)
H17 H 0.7439 0.5113 0.1691
H18 H 0.6825 0.4546 0.2136
C29 C 0.4554(3) 0.3726(2) 0.17158(10)
H19 H 0.3890 0.4253 0.1799
H20 H 0.4938 0.3399 0.2022
C30 C 0.3757(3) 0.2948(2) 0.13837(11)
H21 H 0.3031 0.2626 0.1565
H22 H 0.3264 0.3296 0.1100
C31 C 0.5892(3) 0.2645(2) 0.09660(11)
H23 H 0.5502 0.3012 0.0672
H24 H 0.6548 0.2130 0.0863
C32 C 0.6707(3) 0.3376(2) 0.13200(11)
H25 H 0.7110 0.3008 0.1612
H26 H 0.7495 0.3675 0.1161
Zn1A Zn 0.01980(4) 0.39886(2) -0.322801(12)
Zn1B Zn 0.51980(4) 0.10114(2) 0.177199(12)
Zn2B Zn 0.49595(4) 0.46831(3) -0.089952(12)
N1B N 0.6856(3) -0.05927(18) -0.15269(9)
N2B N 0.5303(2) -0.21415(17) -0.12012(8)
O1A O 0.5368(3) -0.0938(2) -0.26678(9)
O2A O 0.3910(3) -0.19069(16) -0.22982(7)
O8B O 0.6942(2) 0.53340(17) 0.06506(7)
O9 O 0.5870(3) 0.1658(2) 0.95765(11)
H27 H 0.5336 0.1248 0.9400
H28 H 0.5125 0.2218 0.9640
O10 O 0.9290(4) 0.5943(2) 0.81715(12)
H29 H 0.8914 0.5614 0.8438
H30 H 0.8561 0.5528 0.7954
O11 O 0.2465(4) 0.9627(3) 0.97771(15)
H31 H 0.2927 0.9818 0.9538
H32 H 0.2892 0.9072 1.0023
loop_
_geom_bond_atom_site_label_1
_geom_bond_atom_site_label_2
_geom_bond_site_symmetry_1
_geom_bond_site_symmetry_2
Zn1 O4 1_555 1_555
Zn2 N3 1_555 1_555
N1 C17 1_555 1_555
N2 C22 1_555 1_555
N3 C28 1_555 1_555
N4 Zn2 1_555 1_555
O1 C1 1_555 1_555
O2 C1 1_555 1_555
O3 C16 1_555 1_555
O4 C16 1_555 1_555
O5 C14 1_555 1_555
O6 Zn2 1_555 1_555
O7 C15 1_555 1_555
O8 C15 1_555 1_555
C1 C2 1_555 1_555
C2 C3 1_555 1_555
C3 H1 1_555 1_555
C4 C3 1_555 1_555
C5 C4 1_555 1_555
H2 C5 1_555 1_555
C6 C5 1_555 1_555
C7 C2 1_555 1_555
H3 C7 1_555 1_555
C8 C6 1_555 1_555
C9 C8 1_555 1_555
C10 C9 1_555 1_555
C11 C10 1_555 1_555
H4 C11 1_555 1_555
C12 C11 1_555 1_555
H5 C12 1_555 1_555
C13 C8 1_555 1_555
H6 C13 1_555 1_555
C14 O6 1_555 1_555
C15 C9 1_555 1_555
C16 C4 1_555 1_555
C17 H7 1_555 1_555
C18 C17 1_555 1_555
H8 C18 1_555 1_555
C19 C18 1_555 1_555
H9 C19 1_555 1_555
C20 C19 1_555 1_555
H10 C20 1_555 1_555
C21 N1 1_555 1_555
C22 C21 1_555 1_555
H11 C22 1_555 1_555
H12 C22 1_555 1_555
C23 N4 1_555 1_555
C24 C23 1_555 1_555
H13 C24 1_555 1_555
C25 C24 1_555 1_555
H14 C25 1_555 1_555
C26 C25 1_555 1_555
H15 C26 1_555 1_555
C27 N4 1_555 1_555
H16 C27 1_555 1_555
C28 C23 1_555 1_555
H17 C28 1_555 1_555
H18 C28 1_555 1_555
C29 N3 1_555 1_555
H19 C29 1_555 1_555
H20 C29 1_555 1_555
C30 N2 1_555 1_555
H21 C30 1_555 1_555
H22 C30 1_555 1_555
C31 N2 1_555 1_555
H23 C31 1_555 1_555
H24 C31 1_555 1_555
C32 N3 1_555 1_555
H25 C32 1_555 1_555
H26 C32 1_555 1_555
O9 H27 1_555 1_555
H28 O9 1_555 1_555
O10 H29 1_555 1_555
H30 O10 1_555 1_555
O11 H31 1_555 1_555
H32 O11 1_555 1_555
Zn1A O1 1_555 1_555
Zn1B N1 1_555 1_555
Zn2B O8 1_555 1_555
N1B Zn1 1_555 1_555
N2B Zn1 1_555 1_555
O1A Zn1 1_555 1_555
O2A Zn1 1_555 1_555
O8B Zn2 1_555 1_555
N2 Zn1B 1_555 1_555
O2 Zn1A 1_555 1_555
C6 C7 1_555 1_555
C10 C14 1_555 1_555
C12 C13 1_555 1_555
C20 C21 1_555 1_555
C26 C27 1_555 1_555
C29 C30 1_555 1_555
C31 C32 1_555 1_555

#END
