
#######################################################################
#
#                 Cambridge Crystallographic Data Centre
#                                CCDC 
#
#######################################################################
#
# If this CIF has been generated from an entry in the Cambridge 
# Structural Database, then it will include bibliographic, chemical, 
# crystal, experimental, refinement or atomic coordinate data resulting 
# from the CCDC's data processing and validation procedures.
#
#######################################################################

data_VUNDOZ
_symmetry_cell_setting           triclinic
_symmetry_space_group_name_H-M   'P -1'
_symmetry_Int_Tables_number      2
_space_group_name_Hall           '-P 1'
loop_
_symmetry_equiv_pos_site_id
_symmetry_equiv_pos_as_xyz
1 x,y,z
2 -x,-y,-z
_cell_length_a                   12.885(5)
_cell_length_b                   15.048(6)
_cell_length_c                   15.446(5)
_cell_angle_alpha                66.554(4)
_cell_angle_beta                 74.732(3)
_cell_angle_gamma                76.115(3)
_cell_volume                     2619.52
loop_
_atom_site_label
_atom_site_type_symbol
_atom_site_fract_x
_atom_site_fract_y
_atom_site_fract_z
Cd1 Cd -0.13954(2) 0.066763(18) 0.330979(16)
Cd2 Cd 0.42576(2) -0.36456(2) 0.067146(17)
C1 C 0.0086(3) 0.1989(3) 0.2560(2)
C2 C 0.2910(3) 0.4906(3) 0.1365(3)
O1 O -0.0112(3) 0.1720(2) 0.19534(18)
O2 O -0.1951(3) 0.0233(2) 0.49904(19)
O3 O 0.3133(2) 0.5421(2) 0.04870(18)
N1 N 0.2085(3) -0.3306(2) 0.49447(19)
N2 N -0.1911(3) 0.0241(2) 0.21587(19)
C3 C 0.2788(3) -0.3781(3) 0.4395(2)
N3 N 0.0103(3) -0.0550(2) 0.3517(2)
N4 N 0.2523(3) -0.4661(2) 0.4633(2)
N5 N 0.1045(3) -0.1720(2) 0.0286(2)
N6 N -0.0756(3) -0.2108(2) 0.0772(2)
N7 N 0.1368(3) -0.1622(2) 0.42164(19)
N8 N -0.2082(3) -0.2713(2) 0.1917(2)
N9 N -0.0002(5) -0.7193(4) 0.6744(4)
C4 C 0.2193(3) 0.4144(3) 0.1669(2)
N10 N 0.1311(3) -0.3870(2) 0.5545(2)
C5 C -0.2013(3) -0.0962(3) 0.1551(2)
N11 N 0.2637(3) -0.2481(2) 0.0609(2)
C6 C -0.3127(3) -0.0906(3) 0.6075(2)
C7 C -0.0013(3) -0.1487(3) 0.0031(3)
H1 H 0.0056 -0.1575 -0.0572
H2 H -0.0305 -0.0805 -0.0058
C8 C -0.1505(3) -0.0592(3) 0.1997(3)
H3 H -0.0853 -0.0941 0.2190
N12 N 0.4429(3) -0.3259(2) 0.1949(2)
C9 C 0.0842(3) 0.2725(3) 0.2244(2)
N13 N -0.0656(3) -0.3047(2) 0.0815(2)
N14 N 0.1792(3) -0.1371(3) 0.3255(2)
N15 N -0.2312(4) -0.6197(3) 0.2301(3)
C10 C -0.1477(3) -0.3374(3) 0.1519(3)
C11 C -0.4126(3) -0.1980(3) 0.7916(2)
C12 C 0.1841(4) -0.2452(3) 0.0219(3)
H4 H 0.1831 -0.2887 -0.0069
C13 C 0.3675(3) -0.3535(3) 0.2744(2)
H5 H 0.3131 -0.3839 0.2734
C14 C 0.1284(3) 0.3169(3) 0.1280(2)
H6 H 0.1130 0.2990 0.0821
N16 N 0.1317(3) -0.1237(3) 0.0758(2)
C15 C 0.1043(4) -0.5532(3) 0.5821(3)
C16 C 0.1624(3) -0.4680(3) 0.5334(2)
C17 C -0.1738(4) -0.4363(3) 0.1804(3)
C18 C 0.1091(3) 0.3001(3) 0.2917(2)
H7 H 0.0800 0.2716 0.3566
C19 C 0.1998(3) -0.2321(3) 0.4923(3)
H8 H 0.2720 -0.2149 0.4770
H9 H 0.1651 -0.2294 0.5553
C20 C 0.3653(3) -0.3395(3) 0.3582(3)
C21 C -0.1606(3) -0.1925(3) 0.1437(2)
C22 C -0.3382(4) 0.0433(3) 0.1400(3)
H10 H -0.4016 0.0809 0.1189
C23 C -0.3723(4) -0.1613(3) 0.6221(3)
H11 H -0.3788 -0.1739 0.5696
C24 C 0.1762(3) 0.3691(3) 0.2629(3)
H12 H 0.1931 0.3857 0.3089
C25 C 0.2270(4) -0.1721(3) 0.0933(3)
H13 H 0.2669 -0.1559 0.1256
C26 C 0.0389(3) -0.1126(3) 0.4351(2)
H14 H -0.0044 -0.1174 0.4949
C27 C 0.1946(3) 0.3871(3) 0.0993(2)
H15 H 0.2229 0.4164 0.0345
C28 C -0.4226(4) -0.2142(3) 0.7127(3)
H16 H -0.4636 -0.2610 0.7207
C29 C -0.2550(3) -0.0348(3) 0.5081(3)
C30 C 0.5227(4) -0.2630(4) 0.2779(3)
H17 H 0.5767 -0.2310 0.2768
C31 C -0.2603(4) -0.4677(3) 0.2551(3)
H18 H -0.3000 -0.4280 0.2897
C32 C -0.3529(4) -0.1269(4) 0.7769(3)
H19 H -0.3461 -0.1145 0.8294
C33 C -0.3032(4) -0.0737(3) 0.6861(3)
H20 H -0.2630 -0.0263 0.6779
C34 C -0.1162(4) -0.4988(3) 0.1330(3)
H21 H -0.0569 -0.4811 0.0837
C35 C 0.0993(4) -0.0737(3) 0.2880(3)
H22 H 0.1034 -0.0435 0.2219
C36 C 0.5195(4) -0.2812(4) 0.1976(3)
H23 H 0.5729 -0.2614 0.1431
C37 C -0.2969(4) -0.0443(3) 0.1258(3)
H24 H -0.3333 -0.0679 0.0968
C38 C 0.0138(4) -0.5552(4) 0.6537(3)
H25 H -0.0140 -0.5018 0.6733
C39 C -0.2855(5) -0.5595(4) 0.2767(4)
H26 H -0.3435 -0.5803 0.3263
C40 C -0.2834(4) 0.0736(3) 0.1860(3)
H27 H -0.3124 0.1320 0.1969
C41 C -0.1492(5) -0.5889(3) 0.1611(4)
H28 H -0.1102 -0.6306 0.1286
C42 C 0.1393(5) -0.6356(4) 0.5575(3)
H29 H 0.1993 -0.6374 0.5088
C43 C 0.0850(6) -0.7152(4) 0.6054(4)
H30 H 0.1107 -0.7698 0.5874
C44 C 0.4448(4) -0.2930(4) 0.3594(3)
H31 H 0.4457 -0.2821 0.4144
C45 C -0.0348(5) -0.6394(5) 0.6959(4)
H32 H -0.0968 -0.6394 0.7432
O4 O -0.0351(2) 0.16723(19) 0.34239(17)
O5 O -0.2666(3) -0.0493(2) 0.43733(18)
O6 O 0.3263(3) 0.5026(2) 0.19870(19)
C46 C -0.4659(3) -0.2579(3) 0.8907(3)
O7 O -0.4602(3) -0.2392(2) 0.96159(18)
O8 O -0.5145(3) -0.3246(2) 0.90123(18)
O9 O 0.5626(2) -0.4955(2) 0.10209(19)
H33 H 0.5698 -0.5368 0.0754
H34 H 0.6244 -0.4976 0.1135
O10 O -0.2814(2) 0.19438(18) 0.30901(18)
H35 H -0.3390 0.2009 0.2886
H36 H -0.2559 0.2480 0.2803
Cd2_2 Cd -0.57424(2) -0.36456(2) 1.067146(17)
Cd2_3 Cd 0.42576(2) 0.63544(2) 0.067146(17)
O3_2 O 0.3133(2) -0.4579(2) 0.04870(18)
O6_2 O 0.3263(3) -0.4974(2) 0.19870(19)
O7_2 O 0.5398(3) -0.2392(2) -0.03841(18)
O8_2 O 0.4855(3) -0.3246(2) -0.09877(18)
O11 O -0.4428(3) 0.2325(2) 0.4559(2)
H37 H -0.3943 0.2222 0.4114
H38 H -0.4880 0.2823 0.4326
O12 O 0.4048(3) 0.3957(2) 0.3785(2)
H39 H 0.3774 0.4355 0.4082
H40 H 0.3885 0.4222 0.3231
O13 O -0.4451(4) -0.0903(4) 0.3962(3)
H41 H -0.3876 -0.0822 0.4071
H42 H -0.4544 -0.0490 0.3409
O14 O -0.4375(9) -0.0836(7) 0.9966(6)
H43 H -0.4226 -0.0323 0.9521
H44 H -0.4921 -0.0702 1.0371
O15 O -0.2215(14) -0.1028(12) 0.9317(9)
H45 H -0.1746 -0.0974 0.8806
H46 H -0.1915 -0.1423 0.9787
O16 O -0.3689(11) 0.0643(10) 0.8434(11)
H47 H -0.3230 0.0166 0.8662
H48 H -0.4228 0.0699 0.8859
loop_
_geom_bond_atom_site_label_1
_geom_bond_atom_site_label_2
_geom_bond_site_symmetry_1
_geom_bond_site_symmetry_2
Cd1 O1 1_555 1_555
Cd2 N11 1_555 1_555
C1 O1 1_555 1_555
C2 O3 1_555 1_555
O2 Cd1 1_555 1_555
O3 Cd2_3 1_555 1_555
N1 C3 1_555 1_555
N2 Cd1 1_555 1_555
C3 N4 1_555 1_555
N3 Cd1 1_555 1_555
N4 C16 1_555 1_555
N5 C7 1_555 1_555
N6 C7 1_555 1_555
N7 N14 1_555 1_555
N8 C10 1_555 1_555
N9 C43 1_555 1_555
C4 C2 1_555 1_555
N10 N1 1_555 1_555
C5 C8 1_555 1_555
N11 C12 1_555 1_555
C6 C23 1_555 1_555
C7 H1 1_555 1_555
H2 C7 1_555 1_555
C8 N2 1_555 1_555
H3 C8 1_555 1_555
N12 Cd2 1_555 1_555
C9 C1 1_555 1_555
N13 N6 1_555 1_555
N14 C35 1_555 1_555
N15 C39 1_555 1_555
C10 N13 1_555 1_555
C11 C28 1_555 1_555
C12 N5 1_555 1_555
H4 C12 1_555 1_555
C13 N12 1_555 1_555
H5 C13 1_555 1_555
C14 C9 1_555 1_555
H6 C14 1_555 1_555
N16 N5 1_555 1_555
C15 C16 1_555 1_555
C16 N10 1_555 1_555
C17 C10 1_555 1_555
C18 C9 1_555 1_555
H7 C18 1_555 1_555
C19 N1 1_555 1_555
H8 C19 1_555 1_555
H9 C19 1_555 1_555
C20 C3 1_555 1_555
C21 N6 1_555 1_555
C22 H10 1_555 1_555
C23 H11 1_555 1_555
C24 C4 1_555 1_555
H12 C24 1_555 1_555
C25 N11 1_555 1_555
H13 C25 1_555 1_555
C26 N3 1_555 1_555
H14 C26 1_555 1_555
C27 C4 1_555 1_555
H15 C27 1_555 1_555
C28 C23 1_555 1_555
H16 C28 1_555 1_555
C29 O2 1_555 1_555
C30 H17 1_555 1_555
C31 C17 1_555 1_555
H18 C31 1_555 1_555
C32 C11 1_555 1_555
H19 C32 1_555 1_555
C33 C6 1_555 1_555
H20 C33 1_555 1_555
C34 C17 1_555 1_555
H21 C34 1_555 1_555
C35 N3 1_555 1_555
H22 C35 1_555 1_555
C36 N12 1_555 1_555
H23 C36 1_555 1_555
C37 C5 1_555 1_555
H24 C37 1_555 1_555
C38 C15 1_555 1_555
H25 C38 1_555 1_555
C39 C31 1_555 1_555
H26 C39 1_555 1_555
C40 N2 1_555 1_555
H27 C40 1_555 1_555
C41 N15 1_555 1_555
H28 C41 1_555 1_555
C42 C15 1_555 1_555
H29 C42 1_555 1_555
C43 C42 1_555 1_555
H30 C43 1_555 1_555
C44 C20 1_555 1_555
H31 C44 1_555 1_555
C45 N9 1_555 1_555
H32 C45 1_555 1_555
O4 Cd1 1_555 1_555
O5 Cd1 1_555 1_555
O6 C2 1_555 1_555
C46 C11 1_555 1_555
O7 C46 1_555 1_555
O8 C46 1_555 1_555
O9 Cd2 1_555 1_555
H33 O9 1_555 1_555
H34 O9 1_555 1_555
O10 Cd1 1_555 1_555
H35 O10 1_555 1_555
H36 O10 1_555 1_555
O11 H37 1_555 1_555
H38 O11 1_555 1_555
O12 H39 1_555 1_555
H40 O12 1_555 1_555
O13 H41 1_555 1_555
H42 O13 1_555 1_555
O14 H43 1_555 1_555
H44 O14 1_555 1_555
O15 H45 1_555 1_555
H46 O15 1_555 1_555
O16 H47 1_555 1_555
H48 O16 1_555 1_555
Cd2_2 O7 1_555 1_555
Cd2_3 O6 1_555 1_555
O3_2 Cd2 1_555 1_555
O6_2 Cd2 1_555 1_555
O7_2 Cd2 1_555 1_555
O8_2 Cd2 1_555 1_555
C1 O4 1_555 1_555
N7 C19 1_555 1_555
N7 C26 1_555 1_555
N8 C21 1_555 1_555
C5 C21 1_555 1_555
C6 C29 1_555 1_555
C13 C20 1_555 1_555
C14 C27 1_555 1_555
N16 C25 1_555 1_555
C18 C24 1_555 1_555
C22 C37 1_555 1_555
C22 C40 1_555 1_555
C29 O5 1_555 1_555
C30 C36 1_555 1_555
C30 C44 1_555 1_555
C32 C33 1_555 1_555
C34 C41 1_555 1_555
C38 C45 1_555 1_555
O8 Cd2_2 1_555 1_555

#END
