
#######################################################################
#
#                 Cambridge Crystallographic Data Centre
#                                CCDC 
#
#######################################################################
#
# If this CIF has been generated from an entry in the Cambridge 
# Structural Database, then it will include bibliographic, chemical, 
# crystal, experimental, refinement or atomic coordinate data resulting 
# from the CCDC's data processing and validation procedures.
#
#######################################################################

data_VUNDEO
_symmetry_cell_setting           monoclinic
_symmetry_space_group_name_H-M   'C 2/c'
_symmetry_Int_Tables_number      15
_space_group_name_Hall           '-C 2yn'
loop_
_symmetry_equiv_pos_site_id
_symmetry_equiv_pos_as_xyz
1 x,y,z
2 -x,y,1/2-z
3 1/2+x,1/2+y,z
4 1/2-x,1/2+y,1/2-z
5 -x,-y,-z
6 x,-y,1/2+z
7 1/2-x,1/2-y,-z
8 1/2+x,1/2-y,1/2+z
_cell_length_a                   21.507(2)
_cell_length_b                   6.8401(8)
_cell_length_c                   16.2843(19)
_cell_angle_alpha                90
_cell_angle_beta                 120.453(2)
_cell_angle_gamma                90
_cell_volume                     2065.1
loop_
_atom_site_label
_atom_site_type_symbol
_atom_site_fract_x
_atom_site_fract_y
_atom_site_fract_z
Pr1 Pr 0.096221(14) 0.46810(4) 0.151568(18)
O1 O 0.17769(18) 0.7109(5) 0.2591(3)
O2 O 0.2761(2) 0.8580(6) 0.2779(3)
O3 O 0.48795(19) 0.8141(6) 0.5095(3)
O4 O 0.5240(2) 0.7075(6) 0.6544(3)
O5 O 0.2824(2) 0.4123(6) 0.5936(3)
H1 H 0.2389 0.3947 0.5598
O6 O -0.02552(19) 0.3878(6) 0.1312(2)
O7 O -0.09260(19) 0.4428(7) 0.1973(3)
O8 O 0.1372(2) 0.6410(7) 0.0525(3)
O9 O 0.1116(2) 0.1207(6) 0.2093(3)
C1 C 0.2436(3) 0.7477(7) 0.3041(4)
C2 C 0.2869(3) 0.6590(7) 0.4025(4)
O10 O 0.3574(2) 0.7044(6) 0.4433(3)
C3 C 0.4023(3) 0.6518(7) 0.5349(4)
C4 C 0.4774(3) 0.7253(7) 0.5692(4)
C5 C 0.3809(3) 0.5545(8) 0.5877(4)
H2 H 0.4137 0.5219 0.6507
C6 C 0.3067(3) 0.5020(6) 0.5447(4)
C7 C 0.2601(3) 0.5576(8) 0.4484(4)
H3 H 0.2115 0.5242 0.4173
C8 C -0.0343(3) 0.4157(8) 0.2007(3)
H4 H 0.108(2) 0.646(11) -0.0071(11)
H5 H 0.088(3) 0.019(5) 0.182(4)
H6 H 0.1815(10) 0.626(12) 0.071(4)
H7 H 0.148(3) 0.107(9) 0.265(3)
Pr1C Pr 0.403779(14) -0.03190(4) 0.348432(18)
Pr1C_2 Pr 0.403779(14) 0.96810(4) 0.348432(18)
Pr1G Pr 0.596221(14) 1.03190(4) 0.651568(18)
Pr1A Pr -0.096221(14) 0.46810(4) 0.348432(18)
Pr1D Pr -0.096221(14) 0.53190(4) -0.151568(18)
O1C O 0.32231(18) 0.2109(5) 0.2409(3)
O2C O 0.2239(2) 0.3580(6) 0.2221(3)
O2_2 O 0.2761(2) -0.1420(6) 0.2779(3)
O3C O 0.01205(19) 0.3141(6) -0.0095(3)
O3G O -0.01205(19) 0.6859(6) 0.0095(3)
O3_2 O 0.48795(19) -0.1859(6) 0.5095(3)
O3D O 0.51205(19) 0.1859(6) 0.4905(3)
O4C O -0.0240(2) 0.2075(6) -0.1544(3)
O4G O 0.0240(2) 0.7925(6) 0.1544(3)
O4D O 0.4760(2) 0.2925(6) 0.3456(3)
O5C O 0.2176(2) -0.0877(6) -0.0936(3)
H1C H 0.2611 -0.1053 -0.0598
O6A O 0.02552(19) 0.3878(6) 0.3688(2)
O6C O 0.52552(19) -0.1122(6) 0.3688(2)
O7A O 0.09260(19) 0.4428(7) 0.3027(3)
O7B O 0.40740(19) -0.0572(7) 0.1973(3)
O8C O 0.3628(2) 0.1410(7) 0.4475(3)
O9C O 0.3884(2) -0.3793(6) 0.2907(3)
C1C C 0.2564(3) 0.2477(7) 0.1959(4)
C2C C 0.2131(3) 0.1590(7) 0.0975(4)
O10C O 0.1426(2) 0.2044(6) 0.0567(3)
O10_2 O 0.3574(2) -0.2956(6) 0.4433(3)
C3C C 0.0977(3) 0.1518(7) -0.0349(4)
C4C C 0.0226(3) 0.2253(7) -0.0692(4)
C5C C 0.1191(3) 0.0545(8) -0.0877(4)
H2C H 0.0863 0.0219 -0.1507
C6C C 0.1933(3) 0.0020(6) -0.0447(4)
C7C C 0.2399(3) 0.0576(8) 0.0516(4)
H3C H 0.2885 0.0242 0.0827
C8A C 0.0343(3) 0.4157(8) 0.2993(3)
H4C H 0.392(2) 0.146(11) 0.5071(11)
H5C H 0.412(3) -0.481(5) 0.318(4)
H6C H 0.3185(10) 0.126(12) 0.429(4)
H7C H 0.352(3) -0.393(9) 0.235(3)
loop_
_geom_bond_atom_site_label_1
_geom_bond_atom_site_label_2
_geom_bond_site_symmetry_1
_geom_bond_site_symmetry_2
Pr1 O1 1_555 1_555
O1 C1 1_555 1_555
O2 C1 1_555 1_555
O3 C4 1_555 1_555
O4 C4 1_555 1_555
O5 H1 1_555 1_555
O6 Pr1 1_555 1_555
O7 C8 1_555 1_555
O8 Pr1 1_555 1_555
O9 Pr1 1_555 1_555
C1 C2 1_555 1_555
C2 O10 1_555 1_555
O10 C3 1_555 1_555
C3 C4 1_555 1_555
C5 C3 1_555 1_555
H2 C5 1_555 1_555
C6 O5 1_555 1_555
C7 C2 1_555 1_555
H3 C7 1_555 1_555
C8 O6 1_555 1_555
H4 O8 1_555 1_555
H5 O9 1_555 1_555
H6 O8 1_555 1_555
H7 O9 1_555 1_555
Pr1C O1C 1_555 1_555
Pr1C_2 O2 1_555 1_555
Pr1G O3 1_555 1_555
Pr1A O7 1_555 1_555
Pr1D O3C 1_555 1_555
O1C C1C 1_555 1_555
O2C Pr1 1_555 1_555
O2_2 Pr1C 1_555 1_555
O3C Pr1 1_555 1_555
O3G Pr1 1_555 1_555
O3_2 Pr1C 1_555 1_555
O3D Pr1C 1_555 1_555
O4C Pr1D 1_555 1_555
O4G Pr1 1_555 1_555
O4D Pr1C 1_555 1_555
O5C H1C 1_555 1_555
O6A Pr1A 1_555 1_555
O6C Pr1C 1_555 1_555
O7A Pr1 1_555 1_555
O7B Pr1C 1_555 1_555
O8C Pr1C 1_555 1_555
O9C Pr1C 1_555 1_555
C1C O2C 1_555 1_555
C2C C1C 1_555 1_555
O10C Pr1 1_555 1_555
O10_2 Pr1C 1_555 1_555
C3C O10C 1_555 1_555
C4C O3C 1_555 1_555
C5C C3C 1_555 1_555
H2C C5C 1_555 1_555
C6C O5C 1_555 1_555
C7C C2C 1_555 1_555
H3C C7C 1_555 1_555
C8A C8 1_555 1_555
H4C O8C 1_555 1_555
H5C O9C 1_555 1_555
H6C O8C 1_555 1_555
H7C O9C 1_555 1_555
O3 Pr1C_2 1_555 1_555
O4 Pr1G 1_555 1_555
O10 Pr1C_2 1_555 1_555
C5 C6 1_555 1_555
C6 C7 1_555 1_555
Pr1D O3G 1_555 1_555
O4C C4C 1_555 1_555
O6A C8A 1_555 1_555
O7A C8A 1_555 1_555
C2C O10C 1_555 1_555
C3C C4C 1_555 1_555
C5C C6C 1_555 1_555
C6C C7C 1_555 1_555

#END
