
#######################################################################
#
#                 Cambridge Crystallographic Data Centre
#                                CCDC 
#
#######################################################################
#
# If this CIF has been generated from an entry in the Cambridge 
# Structural Database, then it will include bibliographic, chemical, 
# crystal, experimental, refinement or atomic coordinate data resulting 
# from the CCDC's data processing and validation procedures.
#
#######################################################################

data_VUNDUE
_symmetry_cell_setting           monoclinic
_symmetry_space_group_name_H-M   'P 21/n'
_symmetry_Int_Tables_number      14
_space_group_name_Hall           '-P 2yn'
loop_
_symmetry_equiv_pos_site_id
_symmetry_equiv_pos_as_xyz
1 x,y,z
2 1/2-x,1/2+y,1/2-z
3 -x,-y,-z
4 1/2+x,1/2-y,1/2+z
_cell_length_a                   15.254(3)
_cell_length_b                   15.472(3)
_cell_length_c                   15.524(3)
_cell_angle_alpha                90
_cell_angle_beta                 119.36(3)
_cell_angle_gamma                90
_cell_volume                     3193.22
loop_
_atom_site_label
_atom_site_type_symbol
_atom_site_fract_x
_atom_site_fract_y
_atom_site_fract_z
Sm1 Sm 1.07934(2) 0.75432(2) 0.74198(2)
Sm2 Sm 1.09917(2) 0.75189(2) 0.24282(2)
Ba1 Ba 1.08252(3) 1.00280(2) 0.67797(3)
Ba2 Ba 1.06702(2) 0.50142(2) 0.85285(3)
Ba3 Ba 0.76467(3) 0.49642(2) 0.80283(3)
C1 C 0.9209(4) 0.7443(4) 0.4953(5)
C2 C 0.8484(4) 0.7187(4) 0.4027(5)
H1 H 0.8423 0.7468 0.3470
C3 C 0.7828(4) 0.6498(4) 0.3918(5)
C4 C 0.8030(4) 0.6055(4) 0.4794(5)
H2 H 0.7669 0.5561 0.4765
C5 C 0.8772(4) 0.6369(4) 0.5696(4)
C6 C 0.8985(4) 0.6024(4) 0.6692(4)
C7 C 0.9887(4) 0.8199(4) 0.5097(5)
C8 C 1.0637(4) 0.8630(4) 0.9220(4)
C9 C 1.0881(4) 0.8935(4) 1.0137(5)
H3 H 1.0626 0.9461 1.0206
C10 C 1.1530(4) 0.8438(4) 1.0984(5)
C11 C 1.1922(4) 0.7673(4) 1.0826(4)
H4 H 1.2370 0.7338 1.1358
C12 C 1.1639(4) 0.7427(4) 0.9889(4)
C13 C 1.1949(4) 0.6576(4) 0.9645(5)
C14 C 0.9881(4) 0.9055(4) 0.8271(5)
C15 C 1.0922(4) 0.6533(4) 0.4344(5)
C16 C 1.1105(4) 0.6320(4) 0.5290(5)
H5 H 1.0817 0.5828 0.5392
C17 C 1.1721(4) 0.6851(4) 0.6078(5)
C18 C 1.2191(4) 0.7555(4) 0.5875(5)
H6 H 1.2652 0.7901 0.6386
C19 C 1.1955(4) 0.7719(4) 0.4913(4)
C20 C 1.2347(4) 0.8489(4) 0.4621(5)
C21 C 1.0195(4) 0.6050(4) 0.3448(5)
C22 C 0.9412(4) 0.7235(4) -0.0062(5)
C23 C 0.8757(4) 0.7473(4) -0.1028(4)
H7 H 0.8714 0.7145 -0.1549
C24 C 0.8155(4) 0.8220(4) -0.1219(5)
C25 C 0.8332(4) 0.8730(4) -0.0398(4)
H8 H 0.7987 0.9247 -0.0486
C26 C 0.9017(4) 0.8455(4) 0.0530(5)
C27 C 0.9154(4) 0.8922(4) 0.1438(5)
C28 C 0.9974(4) 0.6388(4) 0.0184(4)
N1 N 0.9361(3) 0.7057(3) 0.5789(4)
N2 N 1.1007(3) 0.7884(3) 0.9076(4)
N3 N 1.1331(4) 0.7221(3) 0.4152(4)
N4 N 0.9559(3) 0.7720(3) 0.0726(4)
O1 O 1.0480(3) 0.8420(3) 0.6000(3)
O2 O 0.9844(3) 0.8564(3) 0.4368(3)
O3 O 0.9703(3) 0.6415(3) 0.7437(3)
O4 O 0.8512(3) 0.5409(3) 0.6786(3)
O5 O 0.7053(3) 0.6325(3) 0.3050(3)
O6 O 0.9866(3) 0.8802(3) 0.7474(3)
O7 O 0.9293(3) 0.9605(3) 0.8284(3)
O8 O 1.1793(3) 0.6495(3) 0.8772(3)
O9 O 1.2300(3) 0.5978(3) 1.0290(3)
O10 O 1.1715(3) 0.8636(3) 1.1885(3)
O11 O 0.8884(3) 0.9936(3) 0.5049(3)
O12 O 1.2816(3) 1.0129(3) 0.7249(3)
O13 O 1.0028(3) 0.6382(3) 0.2615(3)
O14 O 0.9782(3) 0.5378(3) 0.3501(3)
O15 O 1.2012(3) 0.8595(3) 0.3697(3)
O16 O 1.2950(3) 0.8999(3) 0.5264(3)
O17 O 1.1818(3) 0.6750(3) 0.6962(3)
O18 O 1.0581(3) 0.6242(3) 0.1096(3)
O19 O 0.9777(3) 0.5867(3) -0.0508(3)
O20 O 0.9816(3) 0.8627(3) 0.2279(3)
O21 O 0.8614(3) 0.9558(3) 0.1334(3)
O22 O 0.7419(3) 0.8401(3) -0.2119(3)
Sm1C Sm 0.57934(2) 0.74568(2) 0.24198(2)
Sm2_2 Sm 1.09917(2) 0.75189(2) 1.24282(2)
Sm2C Sm 0.59917(2) 0.74811(2) -0.25718(2)
Ba1B Ba 0.91748(3) 0.99720(2) 0.32203(3)
Ba1C Ba 0.58252(3) 0.49720(2) 0.17797(3)
Ba2A Ba 1.43298(2) 1.00142(2) 0.64715(3)
Ba2B Ba 0.93298(2) 0.49858(2) 0.14715(3)
Ba2_2 Ba 1.06702(2) 0.50142(2) -0.14715(3)
Ba3A Ba 0.73533(3) 0.99642(2) 0.69717(3)
Ba3B Ba 1.23533(3) 0.50358(2) 1.19717(3)
Ba3C Ba 1.26467(3) 1.00358(2) 1.30283(3)
Ba3C_2 Ba 1.26467(3) 1.00358(2) 0.30283(3)
Ba3B_2 Ba 1.23533(3) 0.50358(2) 0.19717(3)
Ba3A_2 Ba 0.73533(3) 0.99642(2) -0.30283(3)
O2B O 1.0156(3) 1.1436(3) 0.5632(3)
O5C O 1.2053(3) 0.8675(3) 0.8050(3)
O7A O 0.5707(3) 0.4605(3) 0.6716(3)
O9B O 0.7700(3) 0.4022(3) 0.9710(3)
O10_2 O 1.1715(3) 0.8636(3) 0.1885(3)
O10C O 0.6715(3) 0.6364(3) 0.6885(3)
O11B O 1.1116(3) 1.0064(3) 0.4951(3)
O12A O 1.2184(3) 0.5129(3) 0.7751(3)
O13B O 0.9972(3) 0.3618(3) 0.7385(3)
O14B O 1.0218(3) 0.4622(3) 0.6499(3)
O15C O 0.7012(3) 0.6405(3) 0.8697(3)
O16A O 1.2050(3) 0.3999(3) 0.9736(3)
O18B O 0.9419(3) 0.3758(3) 0.8904(3)
O19_2 O 0.9777(3) 0.5867(3) 0.9492(3)
O20B O 1.0184(3) 1.1373(3) 0.7721(3)
O21B O 1.1386(3) 1.0442(3) 0.8666(3)
O22C O 1.2419(3) 0.6599(3) 0.2881(3)
O22A O 0.7581(3) 0.3401(3) 0.7119(3)
loop_
_geom_bond_atom_site_label_1
_geom_bond_atom_site_label_2
_geom_bond_site_symmetry_1
_geom_bond_site_symmetry_2
Sm1 N1 1_555 1_555
Sm2 N3 1_555 1_555
Ba1 O1 1_555 1_555
Ba2 O3 1_555 1_555
Ba3 O4 1_555 1_555
C1 C2 1_555 1_555
C2 H1 1_555 1_555
C3 C2 1_555 1_555
C4 C3 1_555 1_555
H2 C4 1_555 1_555
C5 C4 1_555 1_555
C6 C5 1_555 1_555
C7 C1 1_555 1_555
C8 C9 1_555 1_555
C9 H3 1_555 1_555
C10 C9 1_555 1_555
C11 C10 1_555 1_555
H4 C11 1_555 1_555
C12 C11 1_555 1_555
C13 C12 1_555 1_555
C14 C8 1_555 1_555
C15 C16 1_555 1_555
C16 H5 1_555 1_555
C17 C16 1_555 1_555
C18 C17 1_555 1_555
H6 C18 1_555 1_555
C19 C18 1_555 1_555
C20 C19 1_555 1_555
C21 C15 1_555 1_555
C22 C23 1_555 1_555
C23 H7 1_555 1_555
C24 C23 1_555 1_555
C25 C24 1_555 1_555
H8 C25 1_555 1_555
C26 C25 1_555 1_555
C27 C26 1_555 1_555
C28 C22 1_555 1_555
N1 C1 1_555 1_555
N2 Sm1 1_555 1_555
N3 C15 1_555 1_555
N4 Sm2 1_555 1_555
O1 Sm1 1_555 1_555
O2 C7 1_555 1_555
O3 Sm1 1_555 1_555
O4 C6 1_555 1_555
O5 C3 1_555 1_555
O6 Sm1 1_555 1_555
O7 C14 1_555 1_555
O8 Sm1 1_555 1_555
O9 Ba2 1_555 1_555
O10 C10 1_555 1_555
O11 Ba1 1_555 1_555
O12 Ba1 1_555 1_555
O13 Sm2 1_555 1_555
O14 C21 1_555 1_555
O15 Sm2 1_555 1_555
O16 C20 1_555 1_555
O17 Sm1 1_555 1_555
O18 Sm2 1_555 1_555
O19 C28 1_555 1_555
O20 Sm2 1_555 1_555
O21 C27 1_555 1_555
O22 C24 1_555 1_555
Sm1C O5 1_555 1_555
Sm2_2 O10 1_555 1_555
Sm2C O22 1_555 1_555
Ba1B O2 1_555 1_555
Ba1C O5 1_555 1_555
Ba2A O12 1_555 1_555
Ba2B O13 1_555 1_555
Ba2_2 O19 1_555 1_555
Ba3A O7 1_555 1_555
Ba3B O9 1_555 1_555
Ba3C O10 1_555 1_555
Ba3C_2 O15 1_555 1_555
Ba3B_2 O18 1_555 1_555
Ba3A_2 O22 1_555 1_555
O2B Ba1 1_555 1_555
O5C Sm1 1_555 1_555
O7A Ba3 1_555 1_555
O9B Ba3 1_555 1_555
O10_2 Sm2 1_555 1_555
O10C Ba3 1_555 1_555
O11B Ba1 1_555 1_555
O12A Ba2 1_555 1_555
O13B Ba2 1_555 1_555
O14B Ba2 1_555 1_555
O15C Ba3 1_555 1_555
O16A Ba2 1_555 1_555
O18B Ba2 1_555 1_555
O19_2 Ba2 1_555 1_555
O20B Ba1 1_555 1_555
O21B Ba1 1_555 1_555
O22C Sm2 1_555 1_555
O22A Ba3 1_555 1_555
Ba1 O6 1_555 1_555
Ba1 O5C 1_555 1_555
Ba2 O8 1_555 1_555
Ba3 O18B 1_555 1_555
C5 N1 1_555 1_555
C6 O3 1_555 1_555
C7 O1 1_555 1_555
C8 N2 1_555 1_555
C12 N2 1_555 1_555
C13 O8 1_555 1_555
C13 O9 1_555 1_555
C14 O6 1_555 1_555
C17 O17 1_555 1_555
C19 N3 1_555 1_555
C20 O15 1_555 1_555
C21 O13 1_555 1_555
C22 N4 1_555 1_555
C26 N4 1_555 1_555
C27 O20 1_555 1_555
C28 O18 1_555 1_555
O11 Ba1B 1_555 1_555
O14 Ba2B 1_555 1_555
O16 Ba2A 1_555 1_555
O18 Ba2B 1_555 1_555
O20 Ba1B 1_555 1_555
O21 Ba1B 1_555 1_555
Ba1B O11B 1_555 1_555
Ba3C_2 O10_2 1_555 1_555
Ba3B_2 O22C 1_555 1_555

#END
