
#######################################################################
#
#                 Cambridge Crystallographic Data Centre
#                                CCDC 
#
#######################################################################
#
# If this CIF has been generated from an entry in the Cambridge 
# Structural Database, then it will include bibliographic, chemical, 
# crystal, experimental, refinement or atomic coordinate data resulting 
# from the CCDC's data processing and validation procedures.
#
#######################################################################

data_VUNFOB
_symmetry_cell_setting           orthorhombic
_symmetry_space_group_name_H-M   'P 21 21 2'
_symmetry_Int_Tables_number      18
_space_group_name_Hall           'P 2 2ab'
loop_
_symmetry_equiv_pos_site_id
_symmetry_equiv_pos_as_xyz
1 x,y,z
2 -x,-y,z
3 1/2+x,1/2-y,-z
4 1/2-x,1/2+y,-z
_cell_length_a                   19.393(3)
_cell_length_b                   13.928(2)
_cell_length_c                   14.571(2)
_cell_angle_alpha                90
_cell_angle_beta                 90
_cell_angle_gamma                90
_cell_volume                     3935.71
loop_
_atom_site_label
_atom_site_type_symbol
_atom_site_fract_x
_atom_site_fract_y
_atom_site_fract_z
C1 C 0.8326(8) 0.2075(10) 0.6016(10)
H1 H 0.8346 0.2432 0.5478
C2 C 0.8299(8) 0.1091(10) 0.5936(10)
H2 H 0.8312 0.0790 0.5367
C3 C 0.8253(7) 0.0563(10) 0.6753(10)
H3 H 0.8196 -0.0100 0.6731
C4 C 0.8292(6) 0.1036(9) 0.7612(8)
C5 C 0.8322(7) 0.2020(10) 0.7587(9)
C6 C 0.8381(7) 0.2546(10) 0.8472(8)
C7 C 0.8371(7) 0.2078(9) 0.9283(8)
C8 C 0.8420(7) 0.2631(10) 1.0068(10)
H4 H 0.8435 0.2340 1.0642
C9 C 0.8447(7) 0.3621(12) 0.9992(10)
H5 H 0.8485 0.3997 1.0517
C10 C 0.8418(7) 0.4035(10) 0.9172(9)
H6 H 0.8416 0.4702 0.9135
C11 C 0.8320(7) 0.1049(9) 0.9300(8)
C12 C 0.8292(7) 0.0540(9) 0.8444(9)
C13 C 0.8301(7) -0.0400(10) 1.0100(9)
C14 C 0.8290(7) -0.0901(10) 0.9255(10)
C15 C 0.8278(6) -0.0899(10) 1.0914(9)
H7 H 0.8245 -0.0571 1.1468
C16 C 0.8303(7) -0.1860(10) 1.0904(11)
H8 H 0.8321 -0.2193 1.1457
C17 C 0.8302(8) -0.2381(11) 1.0062(10)
H9 H 0.8295 -0.3048 1.0069
C18 C 0.8309(8) -0.1931(10) 0.9300(11)
H10 H 0.8328 -0.2280 0.8756
C19 C 0.6378(6) 0.5692(8) 0.6837(8)
C20 C 0.7075(6) 0.5533(9) 0.6988(9)
C21 C 0.6696(6) 0.4305(9) 0.6285(7)
C22 C 0.6672(7) 0.3372(8) 0.5818(8)
C23 C 0.6943(8) 0.3297(13) 0.4956(11)
H11 H 0.7139 0.3831 0.4676
C24 C 0.6926(10) 0.2440(17) 0.4508(15)
H12 H 0.7103 0.2414 0.3914
C25 C 0.6425(13) 0.1728(14) 0.574(2)
H13 H 0.6252 0.1186 0.6032
C26 C 0.6422(9) 0.2573(11) 0.6184(12)
H14 H 0.6238 0.2598 0.6773
C27 C 0.5899(6) 0.6502(8) 0.7046(8)
C28 C 0.7573(7) 0.6129(9) 0.7527(9)
C29 C 0.5109(7) 0.3071(9) 0.4680(9)
H15 H 0.5104 0.2761 0.5245
C30 C 0.5180(7) 0.2516(10) 0.3921(11)
H16 H 0.5238 0.1854 0.3954
C31 C 0.5159(7) 0.3007(10) 0.3087(11)
H17 H 0.5203 0.2661 0.2544
C32 C 0.5035(6) 0.4432(7) 0.3853(7)
C33 C 0.5076(6) 0.3994(8) 0.3042(7)
C34 C 0.5024(7) 0.4504(9) 0.2184(7)
C35 C 0.4995(10) 0.4525(12) 0.0606(8)
C36 C 0.5006(9) 0.4018(16) -0.0263(9)
H18 H 0.4989 0.3351 -0.0284
C37 C 0.5043(13) 0.455(2) -0.1050(9)
H19 H 0.5133 0.4237 -0.1602
C38 C 0.9230(7) 0.4535(9) 0.5119(9)
C39 C 0.9677(5) 0.4841(9) 0.5861(7)
C40 C 1.0000 0.5000 0.7249(11)
C41 C 1.0000 0.5000 0.8304(10)
C42 C 0.9711(7) 0.5756(11) 0.8798(8)
H20 H 0.9501 0.6258 0.8485
C43 C 0.9730(8) 0.5770(14) 0.9677(11)
H21 H 0.9561 0.6304 0.9989
N1 N 0.8324(5) 0.2547(7) 0.6794(6)
N2 N 0.8393(6) 0.3539(7) 0.8426(6)
N3 N 0.8296(6) 0.0585(8) 1.0111(7)
N4 N 0.8314(6) -0.0450(8) 0.8439(7)
N5 N 0.6131(5) 0.4894(8) 0.6371(6)
N6 N 0.7264(5) 0.4669(7) 0.6670(7)
N7 N 0.6674(13) 0.1642(13) 0.4867(16)
N8 N 0.5044(6) 0.4048(7) 0.4681(6)
N9 N 0.5037(6) 0.3982(8) 0.1409(6)
N10 N 0.9467(4) 0.4728(6) 0.6737(7)
N11 N 1.0000 0.5000 1.0177(12)
O1 O 0.5303(4) 0.6424(6) 0.6809(6)
O2 O 0.6154(5) 0.7216(7) 0.7450(6)
O3 O 0.7394(5) 0.6978(7) 0.7805(6)
O4 O 0.8163(5) 0.5825(8) 0.7663(7)
O5 O 0.8649(5) 0.4195(8) 0.5319(6)
O6 O 0.9424(5) 0.4622(6) 0.4309(6)
Cd1 Cd 0.83607(5) 0.42279(7) 0.69266(7)
Cd2 Cd 0.5000 0.5000 0.60034(8)
C29A C 0.4891(7) 0.6929(9) 0.4680(9)
H15A H 0.4896 0.7239 0.5245
C30A C 0.4820(7) 0.7484(10) 0.3921(11)
H16A H 0.4762 0.8146 0.3954
C31A C 0.4841(7) 0.6993(10) 0.3087(11)
H17A H 0.4797 0.7339 0.2544
C32A C 0.4965(6) 0.5568(7) 0.3853(7)
C33A C 0.4924(6) 0.6006(8) 0.3042(7)
C34A C 0.4976(7) 0.5496(9) 0.2184(7)
C35A C 0.5005(10) 0.5475(12) 0.0606(8)
C36A C 0.4994(9) 0.5982(16) -0.0263(9)
H18A H 0.5011 0.6649 -0.0284
C37A C 0.4957(13) 0.545(2) -0.1050(9)
H19A H 0.4867 0.5763 -0.1602
N8A N 0.4956(6) 0.5952(7) 0.4681(6)
N9A N 0.4963(6) 0.6018(8) 0.1409(6)
C38A C 1.0770(7) 0.5465(9) 0.5119(9)
C39A C 1.0323(5) 0.5159(9) 0.5861(7)
C42A C 1.0289(7) 0.4244(11) 0.8798(8)
H20A H 1.0499 0.3742 0.8485
C43A C 1.0270(8) 0.4230(14) 0.9677(11)
H21A H 1.0439 0.3696 0.9989
N10A N 1.0533(4) 0.5272(6) 0.6737(7)
O5A O 1.1351(5) 0.5805(8) 0.5319(6)
O6A O 1.0576(5) 0.5378(6) 0.4309(6)
C1A C 0.1674(8) 0.7925(10) 0.6016(10)
H1A H 0.1654 0.7568 0.5478
C2A C 0.1701(8) 0.8909(10) 0.5936(10)
H2A H 0.1688 0.9210 0.5367
C3A C 0.1747(7) 0.9437(10) 0.6753(10)
H3A H 0.1804 1.0100 0.6731
C4A C 0.1708(6) 0.8964(9) 0.7612(8)
C5A C 0.1678(7) 0.7980(10) 0.7587(9)
C6A C 0.1619(7) 0.7454(10) 0.8472(8)
C7A C 0.1629(7) 0.7922(9) 0.9283(8)
C8A C 0.1580(7) 0.7369(10) 1.0068(10)
H4A H 0.1565 0.7660 1.0642
C9A C 0.1553(7) 0.6379(12) 0.9992(10)
H5A H 0.1515 0.6003 1.0517
C10A C 0.1582(7) 0.5965(10) 0.9172(9)
H6A H 0.1584 0.5298 0.9135
C11A C 0.1680(7) 0.8951(9) 0.9300(8)
C12A C 0.1708(7) 0.9460(9) 0.8444(9)
C13A C 0.1699(7) 1.0400(10) 1.0100(9)
C14A C 0.1710(7) 1.0901(10) 0.9255(10)
C15A C 0.1722(6) 1.0899(10) 1.0914(9)
H7A H 0.1755 1.0571 1.1468
C16A C 0.1697(7) 1.1860(10) 1.0904(11)
H8A H 0.1679 1.2193 1.1457
C17A C 0.1698(8) 1.2381(11) 1.0062(10)
H9A H 0.1705 1.3048 1.0069
C18A C 0.1691(8) 1.1931(10) 0.9300(11)
H10A H 0.1672 1.2280 0.8756
C19A C 0.3622(6) 0.4308(8) 0.6837(8)
C20A C 0.2925(6) 0.4467(9) 0.6988(9)
C21A C 0.3304(6) 0.5695(9) 0.6285(7)
C22A C 0.3328(7) 0.6628(8) 0.5818(8)
C23A C 0.3057(8) 0.6703(13) 0.4956(11)
H11A H 0.2861 0.6169 0.4676
C24A C 0.3074(10) 0.7560(17) 0.4508(15)
H12A H 0.2897 0.7586 0.3914
C25A C 0.3575(13) 0.8272(14) 0.574(2)
H13A H 0.3748 0.8814 0.6032
C26A C 0.3578(9) 0.7427(11) 0.6184(12)
H14A H 0.3762 0.7402 0.6773
C27A C 0.4101(6) 0.3498(8) 0.7046(8)
C28A C 0.2427(7) 0.3871(9) 0.7527(9)
N1A N 0.1676(5) 0.7453(7) 0.6794(6)
N2A N 0.1607(6) 0.6461(7) 0.8426(6)
N3A N 0.1704(6) 0.9415(8) 1.0111(7)
N4A N 0.1686(6) 1.0450(8) 0.8439(7)
N5A N 0.3869(5) 0.5106(8) 0.6371(6)
N6A N 0.2736(5) 0.5331(7) 0.6670(7)
N7A N 0.3326(13) 0.8358(13) 0.4867(16)
O1A O 0.4697(4) 0.3576(6) 0.6809(6)
O2A O 0.3846(5) 0.2784(7) 0.7450(6)
O3A O 0.2606(5) 0.3022(7) 0.7805(6)
O4A O 0.1837(5) 0.4175(8) 0.7663(7)
Cd1A Cd 0.16393(5) 0.57721(7) 0.69266(7)
N10A_2 N 0.0533(4) 0.5272(6) 0.6737(7)
O5A_2 O 0.1351(5) 0.5805(8) 0.5319(6)
Cd1A_2 Cd 1.16393(5) 0.57721(7) 0.69266(7)
O7 O 0.6548(8) 0.0741(12) 0.8289(10)
loop_
_geom_bond_atom_site_label_1
_geom_bond_atom_site_label_2
_geom_bond_site_symmetry_1
_geom_bond_site_symmetry_2
C1 H1 1_555 1_555
C2 C1 1_555 1_555
H2 C2 1_555 1_555
C3 C2 1_555 1_555
H3 C3 1_555 1_555
C4 C3 1_555 1_555
C5 C4 1_555 1_555
C6 C5 1_555 1_555
C7 C6 1_555 1_555
C8 C7 1_555 1_555
H4 C8 1_555 1_555
C9 C8 1_555 1_555
H5 C9 1_555 1_555
C10 C9 1_555 1_555
H6 C10 1_555 1_555
C11 C7 1_555 1_555
C12 C4 1_555 1_555
C13 C14 1_555 1_555
C14 C18 1_555 1_555
C15 C13 1_555 1_555
H7 C15 1_555 1_555
C16 C15 1_555 1_555
H8 C16 1_555 1_555
C17 C16 1_555 1_555
H9 C17 1_555 1_555
C18 C17 1_555 1_555
H10 C18 1_555 1_555
C19 C20 1_555 1_555
C20 C28 1_555 1_555
C21 C22 1_555 1_555
C22 C23 1_555 1_555
C23 H11 1_555 1_555
C24 C23 1_555 1_555
H12 C24 1_555 1_555
C25 H13 1_555 1_555
C26 C22 1_555 1_555
H14 C26 1_555 1_555
C27 C19 1_555 1_555
C28 O3 1_555 1_555
C29 H15 1_555 1_555
C30 C29 1_555 1_555
H16 C30 1_555 1_555
C31 C30 1_555 1_555
H17 C31 1_555 1_555
C32 C33 1_555 1_555
C33 C31 1_555 1_555
C34 C33 1_555 1_555
C35 C36 1_555 1_555
C36 H18 1_555 1_555
C37 C36 1_555 1_555
H19 C37 1_555 1_555
C38 C39 1_555 1_555
C39 N10 1_555 1_555
C40 C41 1_555 1_555
C41 C42 1_555 1_555
C42 H20 1_555 1_555
C43 C42 1_555 1_555
H21 C43 1_555 1_555
N1 C1 1_555 1_555
N2 C6 1_555 1_555
N3 C11 1_555 1_555
N4 C12 1_555 1_555
N5 C19 1_555 1_555
N6 C20 1_555 1_555
N7 C24 1_555 1_555
N8 C29 1_555 1_555
N9 C34 1_555 1_555
N10 C40 1_555 1_555
N11 C43 1_555 1_555
O1 C27 1_555 1_555
O2 C27 1_555 1_555
O4 C28 1_555 1_555
O5 C38 1_555 1_555
O6 C38 1_555 1_555
Cd1 N1 1_555 1_555
Cd2 N5 1_555 1_555
C29A H15A 1_555 1_555
C30A C29A 1_555 1_555
H16A C30A 1_555 1_555
C31A C30A 1_555 1_555
H17A C31A 1_555 1_555
C32A C32 1_555 1_555
C33A C31A 1_555 1_555
C34A C34 1_555 1_555
C35A C35 1_555 1_555
C36A C35A 1_555 1_555
H18A C36A 1_555 1_555
C37A C37 1_555 1_555
H19A C37A 1_555 1_555
N8A Cd2 1_555 1_555
N9A C34A 1_555 1_555
C38A C39A 1_555 1_555
C39A C39 1_555 1_555
C42A C41 1_555 1_555
H20A C42A 1_555 1_555
C43A N11 1_555 1_555
H21A C43A 1_555 1_555
N10A C40 1_555 1_555
O5A C38A 1_555 1_555
O6A C38A 1_555 1_555
C1A H1A 1_555 1_555
C2A C1A 1_555 1_555
H2A C2A 1_555 1_555
C3A C2A 1_555 1_555
H3A C3A 1_555 1_555
C4A C3A 1_555 1_555
C5A C4A 1_555 1_555
C6A C5A 1_555 1_555
C7A C6A 1_555 1_555
C8A C7A 1_555 1_555
H4A C8A 1_555 1_555
C9A C8A 1_555 1_555
H5A C9A 1_555 1_555
C10A C9A 1_555 1_555
H6A C10A 1_555 1_555
C11A C7A 1_555 1_555
C12A C4A 1_555 1_555
C13A C14A 1_555 1_555
C14A C18A 1_555 1_555
C15A C13A 1_555 1_555
H7A C15A 1_555 1_555
C16A C15A 1_555 1_555
H8A C16A 1_555 1_555
C17A C16A 1_555 1_555
H9A C17A 1_555 1_555
C18A C17A 1_555 1_555
H10A C18A 1_555 1_555
C19A C20A 1_555 1_555
C20A C28A 1_555 1_555
C21A C22A 1_555 1_555
C22A C23A 1_555 1_555
C23A H11A 1_555 1_555
C24A C23A 1_555 1_555
H12A C24A 1_555 1_555
C25A H13A 1_555 1_555
C26A C22A 1_555 1_555
H14A C26A 1_555 1_555
C27A C19A 1_555 1_555
C28A O3A 1_555 1_555
N1A C1A 1_555 1_555
N2A C6A 1_555 1_555
N3A C11A 1_555 1_555
N4A C12A 1_555 1_555
N5A Cd2 1_555 1_555
N6A C20A 1_555 1_555
N7A C24A 1_555 1_555
O1A Cd2 1_555 1_555
O2A C27A 1_555 1_555
O4A C28A 1_555 1_555
Cd1A N1A 1_555 1_555
N10A_2 Cd1A 1_555 1_555
O5A_2 Cd1A 1_555 1_555
Cd1A_2 N10A 1_555 1_555
C5 N1 1_555 1_555
C10 N2 1_555 1_555
C11 C12 1_555 1_555
C13 N3 1_555 1_555
C14 N4 1_555 1_555
C21 N5 1_555 1_555
C21 N6 1_555 1_555
C25 C26 1_555 1_555
C25 N7 1_555 1_555
C32 N8 1_555 1_555
C35 N9 1_555 1_555
N2 Cd1 1_555 1_555
N6 Cd1 1_555 1_555
N8 Cd2 1_555 1_555
N10 Cd1 1_555 1_555
O1 Cd2 1_555 1_555
O4 Cd1 1_555 1_555
O5 Cd1 1_555 1_555
C29A N8A 1_555 1_555
C32A C33A 1_555 1_555
C32A N8A 1_555 1_555
C33A C34A 1_555 1_555
C35A N9A 1_555 1_555
C36A C37A 1_555 1_555
C39A N10A 1_555 1_555
C42A C43A 1_555 1_555
O5A Cd1A_2 1_555 1_555
C5A N1A 1_555 1_555
C10A N2A 1_555 1_555
C11A C12A 1_555 1_555
C13A N3A 1_555 1_555
C14A N4A 1_555 1_555
C19A N5A 1_555 1_555
C21A N5A 1_555 1_555
C21A N6A 1_555 1_555
C25A C26A 1_555 1_555
C25A N7A 1_555 1_555
C27A O1A 1_555 1_555
N2A Cd1A 1_555 1_555
N6A Cd1A 1_555 1_555
O4A Cd1A 1_555 1_555

#END
