
#######################################################################
#
#                 Cambridge Crystallographic Data Centre
#                                CCDC 
#
#######################################################################
#
# If this CIF has been generated from an entry in the Cambridge 
# Structural Database, then it will include bibliographic, chemical, 
# crystal, experimental, refinement or atomic coordinate data resulting 
# from the CCDC's data processing and validation procedures.
#
#######################################################################

data_VUNHAO
_symmetry_cell_setting           orthorhombic
_symmetry_space_group_name_H-M   'P c a 21'
_symmetry_Int_Tables_number      29
_space_group_name_Hall           'P 2c -2ac'
loop_
_symmetry_equiv_pos_site_id
_symmetry_equiv_pos_as_xyz
1 x,y,z
2 -x,-y,1/2+z
3 1/2+x,-y,z
4 1/2-x,y,1/2+z
_cell_length_a                   29.846(17)
_cell_length_b                   21.310(8)
_cell_length_c                   12.090(8)
_cell_angle_alpha                90
_cell_angle_beta                 90
_cell_angle_gamma                90
_cell_volume                     7689.46
loop_
_atom_site_label
_atom_site_type_symbol
_atom_site_fract_x
_atom_site_fract_y
_atom_site_fract_z
Cu1 Cu 0.38684(3) 0.62095(4) 0.1708
N25 N 0.3461(3) 0.6680(4) 0.3058(8)
C17 C 0.3247(4) 0.6880(6) 0.3757(8)
N26 N 0.3083(4) 0.6912(7) 0.4791(11)
C18 C 0.2705(3) 0.7251(8) 0.4936(19)
N27 N 0.2343(4) 0.7347(7) 0.5230(15)
N31 N 0.4251(2) 0.6981(3) 0.1645(7)
H1 H 0.4063 0.7314 0.1722
C21 C 0.4528(3) 0.6960(4) 0.2666(8)
H2 H 0.4345 0.7028 0.3317
H3 H 0.4762 0.7276 0.2643
C22 C 0.4733(4) 0.6288(5) 0.2671(12)
H4 H 0.4897 0.6210 0.1992
H5 H 0.4935 0.6235 0.3293
N32 N 0.4336(2) 0.5844(3) 0.2766(7)
H6 H 0.4225 0.5891 0.3462
C23 C 0.4477(3) 0.5164(5) 0.2660(9)
C24 C 0.4043(4) 0.4776(5) 0.2682(11)
H7 H 0.4129 0.4338 0.2744
H8 H 0.3885 0.4884 0.3356
C25 C 0.3723(3) 0.4826(4) 0.1763(11)
H9 H 0.3880 0.4787 0.1054
N33 N 0.3478(2) 0.5448(3) 0.1817(7)
H10 H 0.3348 0.5464 0.2498
C26 C 0.3112(4) 0.5585(7) 0.1004(9)
H11 H 0.2962 0.5194 0.0829
H12 H 0.2894 0.5855 0.1362
C27 C 0.3251(4) 0.5889(6) -0.0058(10)
H13 H 0.2993 0.6049 -0.0457
H14 H 0.3410 0.5595 -0.0528
N34 N 0.3553(3) 0.6413(4) 0.0306(7)
H15 H 0.3375 0.6751 0.0445
C28 C 0.3844(3) 0.6581(5) -0.0642(10)
C29 C 0.4126(3) 0.7132(4) -0.0345(8)
H16 H 0.3926 0.7473 -0.0147
H17 H 0.4284 0.7262 -0.1008
C30 C 0.4479(3) 0.7066(4) 0.0602(8)
H18 H 0.4663 0.6695 0.0456
C31 C 0.4789(4) 0.4979(6) 0.3678(12)
H19 H 0.4865 0.4542 0.3631
H20 H 0.4633 0.5057 0.4358
H21 H 0.5058 0.5226 0.3658
C32 C 0.4723(3) 0.5028(4) 0.1628(10)
H22 H 0.4567 0.5212 0.1014
H23 H 0.4742 0.4582 0.1526
H24 H 0.5019 0.5201 0.1674
C33 C 0.3390(4) 0.4271(5) 0.1916(14)
H25 H 0.3556 0.3888 0.2000
H26 H 0.3199 0.4242 0.1279
H27 H 0.3211 0.4342 0.2564
C34 C 0.4151(4) 0.6042(5) -0.1008(11)
H28 H 0.4422 0.6050 -0.0581
H29 H 0.4222 0.6089 -0.1778
H30 H 0.4001 0.5648 -0.0895
C35 C 0.3557(5) 0.6829(7) -0.1596(15)
H31 H 0.3437 0.6482 -0.2007
H32 H 0.3738 0.7083 -0.2075
H33 H 0.3316 0.7077 -0.1305
C36 C 0.4793(3) 0.7666(4) 0.0593(9)
H34 H 0.4616 0.8035 0.0720
H35 H 0.4939 0.7698 -0.0111
H36 H 0.5014 0.7627 0.1166
Cu2 Cu 0.63749(3) 0.93092(4) 0.14635(11)
N28 N 0.6911(3) 0.9094(4) 0.0252(9)
C19 C 0.7056(4) 0.9034(6) -0.0610(12)
N29 N 0.7261(5) 0.9058(7) -0.1606(14)
C20 C 0.7240(7) 0.8514(10) -0.221(2)
N30 N 0.7335(5) 0.8147(8) -0.2905(16)
N35 N 0.6549(2) 1.0214(4) 0.1402(9)
H37 H 0.6700 1.0264 0.0755
C37 C 0.6886(4) 1.0302(6) 0.2296(11)
H38 H 0.7179 1.0193 0.2006
H39 H 0.6894 1.0742 0.2496
C38 C 0.6809(4) 0.9938(6) 0.3285(12)
H40 H 0.6574 1.0134 0.3719
H41 H 0.7080 0.9931 0.3729
N36 N 0.6677(3) 0.9288(4) 0.3003(8)
H42 H 0.6939 0.9075 0.2907
C39 C 0.6427(3) 0.8939(5) 0.3911(8)
C40 C 0.6358(3) 0.8255(4) 0.3555(9)
H43 H 0.6233 0.8025 0.4175
H44 H 0.6648 0.8074 0.3387
C41 C 0.6047(3) 0.8160(4) 0.2540(9)
H45 H 0.5773 0.8402 0.2669
N37 N 0.6244(2) 0.8380(3) 0.1514(8)
H46 H 0.6506 0.8170 0.1407
C42 C 0.5961(3) 0.8292(4) 0.0518(8)
H47 H 0.5814 0.7887 0.0561
H48 H 0.6151 0.8290 -0.0133
C43 C 0.5609(3) 0.8799(4) 0.0393(9)
H49 H 0.5449 0.8751 -0.0299
H50 H 0.5396 0.8782 0.0997
N38 N 0.5858(2) 0.9395(3) 0.0410(7)
H51 H 0.5990 0.9414 -0.0268
C44 C 0.5567(3) 0.9985(4) 0.0458(7)
C45 C 0.5880(3) 1.0560(5) 0.0455(10)
H52 H 0.6058 1.0535 -0.0214
H53 H 0.5691 1.0928 0.0382
C46 C 0.6203(3) 1.0689(4) 0.1404(11)
H54 H 0.6033 1.0641 0.2094
C47 C 0.5986(4) 0.9272(6) 0.4190(13)
H55 H 0.5879 0.9126 0.4893
H56 H 0.5768 0.9180 0.3629
H57 H 0.6036 0.9716 0.4223
C48 C 0.6736(3) 0.8909(6) 0.4889(9)
H58 H 0.6804 0.9327 0.5133
H59 H 0.7008 0.8698 0.4682
H60 H 0.6593 0.8682 0.5477
C49 C 0.5915(3) 0.7433(4) 0.2518(10)
H61 H 0.6140 0.7202 0.2121
H62 H 0.5631 0.7383 0.2157
H63 H 0.5896 0.7278 0.3262
C50 C 0.5255(4) 1.0013(6) -0.0557(11)
H64 H 0.5164 0.9596 -0.0754
H65 H 0.5412 1.0200 -0.1167
H66 H 0.4996 1.0260 -0.0383
C51 C 0.5280(3) 0.9982(4) 0.1449(8)
H67 H 0.5045 1.0286 0.1364
H68 H 0.5457 1.0085 0.2087
H69 H 0.5151 0.9573 0.1543
C52 C 0.6351(4) 1.1365(5) 0.1336(11)
H70 H 0.6611 1.1396 0.0871
H71 H 0.6423 1.1515 0.2064
H72 H 0.6114 1.1615 0.1031
Fe1 Fe 0.47485(4) 1.24062(5) 0.15566(15)
Fe2 Fe 0.64892(3) 1.11245(5) 0.66380(14)
Fe3 Fe 0.65784(4) 1.54653(5) 0.16011(15)
O1 O 0.66851(17) 1.2141(2) 0.6501(6)
O2 O 0.7011(3) 1.6294(4) 0.1958(8)
N1 N 0.5175(3) 1.1797(4) 0.2560(8)
C1 C 0.5372(3) 1.1466(4) 0.3098(8)
N2 N 0.5565(3) 1.1049(4) 0.3702(8)
C2 C 0.5844(3) 1.1139(4) 0.4453(8)
N3 N 0.6087(2) 1.1140(3) 0.5128(7)
N4 N 0.5304(3) 1.3025(4) 0.1207(8)
C3 C 0.5522(3) 1.3416(5) 0.0826(9)
N5 N 0.5758(3) 1.3802(4) 0.0288(9)
C4 C 0.5986(3) 1.4249(5) 0.0893(9)
N6 N 0.6179(3) 1.4654(4) 0.1211(8)
N7 N 0.4321(3) 1.3007(4) 0.0634(9)
C5 C 0.4264(4) 1.3454(6) 0.0078(11)
N8 N 0.4278(3) 1.4016(5) -0.0374(9)
C6 C 0.3999(3) 1.4103(5) -0.1171(9)
N9 N 0.3811(3) 1.4294(5) -0.1904(9)
N10 N 0.4906(3) 1.1917(4) 0.0103(8)
C7 C 0.5034(3) 1.1734(4) -0.0723(8)
N11 N 0.5126(2) 1.1516(3) -0.1767(6)
C8 C 0.5554(3) 1.1473(4) -0.2097(9)
N12 N 0.5897(3) 1.1431(4) -0.2492(8)
N13 N 0.4214(3) 1.1756(4) 0.1927(7)
C9 C 0.4061(3) 1.1301(5) 0.2306(9)
N14 N 0.3878(3) 1.0816(4) 0.2827(9)
C10 C 0.3769(3) 1.0302(5) 0.2340(10)
N15 N 0.3666(3) 0.9836(5) 0.1916(9)
N16 N 0.4577(3) 1.2954(4) 0.3046(8)
C11 C 0.4508(3) 1.3146(4) 0.3895(8)
N17 N 0.4497(3) 1.3414(4) 0.4847(9)
C12 C 0.4129(3) 1.3692(4) 0.5183(9)
N18 N 0.3835(3) 1.3972(4) 0.5670(9)
N19 N 0.6899(3) 1.1116(4) 0.8118(8)
C13 C 0.7063(3) 1.0928(5) 0.8898(9)
N20 N 0.7250(3) 1.0650(5) 0.9714(9)
C14 C 0.7612(3) 1.0828(4) 1.0206(9)
N21 N 0.7936(2) 1.0916(4) 1.0710(7)
N22 N 0.7022(3) 1.4947(4) 0.2615(8)
C15 C 0.7349(3) 1.4871(4) 0.3083(9)
N23 N 0.7726(3) 1.4660(4) 0.3591(8)
C16 C 0.7877(4) 1.4963(5) 0.4522(10)
N24 N 0.8001(3) 1.5245(4) 0.5208(9)
Fe2_2 Fe 0.64892(3) 1.11245(5) -0.33620(14)
Fe2A Fe 0.35108(3) 0.88755(5) 0.16380(14)
Fe2C Fe 0.85108(3) 1.11245(5) 1.16380(14)
Fe3A Fe 0.34216(4) 1.45347(5) -0.33989(15)
Fe3A_2 Fe 0.34216(4) 1.45347(5) 0.66011(15)
Fe3C Fe 0.84216(4) 1.54653(5) 0.66011(15)
N9A N 0.6189(3) 1.5706(5) 0.3096(9)
N12_2 N 0.5897(3) 1.1431(4) 0.7508(8)
N15A N 0.6334(3) 1.0164(5) 0.6916(9)
N18A N 0.6165(3) 1.6028(4) 0.0670(9)
N21C N 0.7064(2) 1.0916(4) 0.5710(7)
N24C N 0.6999(3) 1.5245(4) 0.0208(9)
O3 O 0.8001(4) 0.7460(5) 0.6036(12)
O4 O 0.7232(7) 1.6664(10) 0.426(2)
O5 O 0.3265(6) 1.2727(9) 0.1038(19)
loop_
_geom_bond_atom_site_label_1
_geom_bond_atom_site_label_2
_geom_bond_site_symmetry_1
_geom_bond_site_symmetry_2
Cu1 N25 1_555 1_555
Cu2 N28 1_555 1_555
Fe1 N1 1_555 1_555
Fe2 O1 1_555 1_555
Fe3 O2 1_555 1_555
N1 C1 1_555 1_555
C1 N2 1_555 1_555
N2 C2 1_555 1_555
C2 N3 1_555 1_555
N3 Fe2 1_555 1_555
N4 Fe1 1_555 1_555
C3 N4 1_555 1_555
N5 C3 1_555 1_555
C4 N5 1_555 1_555
N6 Fe3 1_555 1_555
N7 Fe1 1_555 1_555
C5 N7 1_555 1_555
N8 C5 1_555 1_555
C6 N8 1_555 1_555
N9 C6 1_555 1_555
N10 Fe1 1_555 1_555
C7 N10 1_555 1_555
N11 C7 1_555 1_555
C8 N11 1_555 1_555
N12 C8 1_555 1_555
N13 Fe1 1_555 1_555
C9 N13 1_555 1_555
N14 C9 1_555 1_555
C10 N14 1_555 1_555
N15 C10 1_555 1_555
N16 Fe1 1_555 1_555
C11 N16 1_555 1_555
N17 C11 1_555 1_555
C12 N17 1_555 1_555
N18 C12 1_555 1_555
N19 Fe2 1_555 1_555
C13 N19 1_555 1_555
N20 C13 1_555 1_555
C14 N20 1_555 1_555
N21 C14 1_555 1_555
N22 Fe3 1_555 1_555
C15 N22 1_555 1_555
N23 C15 1_555 1_555
C16 N23 1_555 1_555
N24 C16 1_555 1_555
N25 C17 1_555 1_555
C17 N26 1_555 1_555
N26 C18 1_555 1_555
C18 N27 1_555 1_555
N28 C19 1_555 1_555
C19 N29 1_555 1_555
N29 C20 1_555 1_555
C20 N30 1_555 1_555
N31 Cu1 1_555 1_555
H1 N31 1_555 1_555
C21 N31 1_555 1_555
H2 C21 1_555 1_555
H3 C21 1_555 1_555
C22 C21 1_555 1_555
H4 C22 1_555 1_555
H5 C22 1_555 1_555
N32 Cu1 1_555 1_555
H6 N32 1_555 1_555
C23 N32 1_555 1_555
C24 C23 1_555 1_555
H7 C24 1_555 1_555
H8 C24 1_555 1_555
C25 C24 1_555 1_555
H9 C25 1_555 1_555
N33 Cu1 1_555 1_555
H10 N33 1_555 1_555
C26 N33 1_555 1_555
H11 C26 1_555 1_555
H12 C26 1_555 1_555
C27 C26 1_555 1_555
H13 C27 1_555 1_555
H14 C27 1_555 1_555
N34 Cu1 1_555 1_555
H15 N34 1_555 1_555
C28 N34 1_555 1_555
C29 C28 1_555 1_555
H16 C29 1_555 1_555
H17 C29 1_555 1_555
C30 N31 1_555 1_555
H18 C30 1_555 1_555
C31 C23 1_555 1_555
H19 C31 1_555 1_555
H20 C31 1_555 1_555
H21 C31 1_555 1_555
C32 C23 1_555 1_555
H22 C32 1_555 1_555
H23 C32 1_555 1_555
H24 C32 1_555 1_555
C33 C25 1_555 1_555
H25 C33 1_555 1_555
H26 C33 1_555 1_555
H27 C33 1_555 1_555
C34 C28 1_555 1_555
H28 C34 1_555 1_555
H29 C34 1_555 1_555
H30 C34 1_555 1_555
C35 C28 1_555 1_555
H31 C35 1_555 1_555
H32 C35 1_555 1_555
H33 C35 1_555 1_555
C36 C30 1_555 1_555
H34 C36 1_555 1_555
H35 C36 1_555 1_555
H36 C36 1_555 1_555
N35 Cu2 1_555 1_555
H37 N35 1_555 1_555
C37 N35 1_555 1_555
H38 C37 1_555 1_555
H39 C37 1_555 1_555
C38 C37 1_555 1_555
H40 C38 1_555 1_555
H41 C38 1_555 1_555
N36 Cu2 1_555 1_555
H42 N36 1_555 1_555
C39 N36 1_555 1_555
C40 C39 1_555 1_555
H43 C40 1_555 1_555
H44 C40 1_555 1_555
C41 C40 1_555 1_555
H45 C41 1_555 1_555
N37 Cu2 1_555 1_555
H46 N37 1_555 1_555
C42 N37 1_555 1_555
H47 C42 1_555 1_555
H48 C42 1_555 1_555
C43 C42 1_555 1_555
H49 C43 1_555 1_555
H50 C43 1_555 1_555
N38 Cu2 1_555 1_555
H51 N38 1_555 1_555
C44 N38 1_555 1_555
C45 C44 1_555 1_555
H52 C45 1_555 1_555
H53 C45 1_555 1_555
C46 N35 1_555 1_555
H54 C46 1_555 1_555
C47 C39 1_555 1_555
H55 C47 1_555 1_555
H56 C47 1_555 1_555
H57 C47 1_555 1_555
C48 C39 1_555 1_555
H58 C48 1_555 1_555
H59 C48 1_555 1_555
H60 C48 1_555 1_555
C49 C41 1_555 1_555
H61 C49 1_555 1_555
H62 C49 1_555 1_555
H63 C49 1_555 1_555
C50 C44 1_555 1_555
H64 C50 1_555 1_555
H65 C50 1_555 1_555
H66 C50 1_555 1_555
C51 C44 1_555 1_555
H67 C51 1_555 1_555
H68 C51 1_555 1_555
H69 C51 1_555 1_555
C52 C46 1_555 1_555
H70 C52 1_555 1_555
H71 C52 1_555 1_555
H72 C52 1_555 1_555
Fe2_2 N12 1_555 1_555
Fe2A N15 1_555 1_555
Fe2C N21 1_555 1_555
Fe3A N9 1_555 1_555
Fe3A_2 N18 1_555 1_555
Fe3C N24 1_555 1_555
N9A Fe3 1_555 1_555
N12_2 Fe2 1_555 1_555
N15A Fe2 1_555 1_555
N18A Fe3 1_555 1_555
N21C Fe2 1_555 1_555
N24C Fe3 1_555 1_555
C4 N6 1_555 1_555
C22 N32 1_555 1_555
C25 N33 1_555 1_555
C27 N34 1_555 1_555
C29 C30 1_555 1_555
C38 N36 1_555 1_555
C41 N37 1_555 1_555
C43 N38 1_555 1_555
C45 C46 1_555 1_555

#END
