
#######################################################################
#
#                 Cambridge Crystallographic Data Centre
#                                CCDC 
#
#######################################################################
#
# If this CIF has been generated from an entry in the Cambridge 
# Structural Database, then it will include bibliographic, chemical, 
# crystal, experimental, refinement or atomic coordinate data resulting 
# from the CCDC's data processing and validation procedures.
#
#######################################################################

data_VUNJEU
_symmetry_cell_setting           monoclinic
_symmetry_space_group_name_H-M   'C 2/c'
_symmetry_Int_Tables_number      15
_space_group_name_Hall           '-C 2yn'
loop_
_symmetry_equiv_pos_site_id
_symmetry_equiv_pos_as_xyz
1 x,y,z
2 -x,y,1/2-z
3 1/2+x,1/2+y,z
4 1/2-x,1/2+y,1/2-z
5 -x,-y,-z
6 x,-y,1/2+z
7 1/2-x,1/2-y,-z
8 1/2+x,1/2-y,1/2+z
_cell_length_a                   20.681(4)
_cell_length_b                   17.603(3)
_cell_length_c                   12.788(2)
_cell_angle_alpha                90
_cell_angle_beta                 105.997(2)
_cell_angle_gamma                90
_cell_volume                     4475.16
loop_
_atom_site_label
_atom_site_type_symbol
_atom_site_fract_x
_atom_site_fract_y
_atom_site_fract_z
Cd1 Cd 0.306234(16) 0.366922(17) 0.89066(2)
O1 O 0.20535(19) 0.3677(2) 0.7314(3)
O2 O 0.22766(17) 0.2659(2) 0.8320(3)
O3 O -0.11355(17) 0.2273(2) 0.4656(3)
O4 O -0.07829(18) 0.1107(2) 0.5109(3)
O5 O 0.2708(2) 0.3596(2) 1.0471(3)
H1 H 0.2281 0.3612 1.0288
H2 H 0.2894 0.3217 1.0848
N1 N 0.3652(2) 0.3856(2) 0.7567(3)
N2 N 0.2300(2) -0.0060(2) 0.6081(3)
C1 C 0.3713(3) 0.3344(3) 0.6820(4)
C2 C 0.3902(2) 0.4542(3) 0.7513(4)
H3 H 0.3865 0.4895 0.8036
C3 C 0.4209(3) 0.4773(3) 0.6752(4)
H4 H 0.4365 0.5268 0.6741
C4 C 0.4279(3) 0.4244(3) 0.6000(5)
H5 H 0.4481 0.4377 0.5461
C5 C 0.4051(3) 0.3524(3) 0.6048(5)
H6 H 0.4121 0.3155 0.5571
C6 C 0.3415(3) 0.2594(3) 0.6874(4)
H7 H 0.3359 0.2446 0.7541
C7 C 0.3220(3) 0.2110(3) 0.6053(4)
H8 H 0.3290 0.2257 0.5394
C8 C 0.2905(3) 0.1368(3) 0.6081(4)
C9 C 0.2808(3) 0.1047(3) 0.7030(4)
H9 H 0.2936 0.1314 0.7683
C10 C 0.2527(3) 0.0346(3) 0.6995(4)
H10 H 0.2490 0.0136 0.7643
C11 C 0.2384(3) 0.0252(3) 0.5173(4)
H11 H 0.2226 -0.0011 0.4522
C12 C 0.2692(3) 0.0945(3) 0.5156(4)
H12 H 0.2755 0.1126 0.4507
C13 C 0.1898(2) 0.3040(3) 0.7546(4)
C14 C 0.1238(2) 0.2696(3) 0.6912(4)
C15 C 0.0790(3) 0.3142(3) 0.6162(5)
H13 H 0.0904 0.3640 0.6044
C16 C 0.0167(3) 0.2850(3) 0.5578(5)
H14 H -0.0131 0.3153 0.5070
C17 C -0.0009(2) 0.2111(3) 0.5755(4)
C18 C -0.0688(3) 0.1807(3) 0.5131(4)
C19 C 0.0451(2) 0.1659(3) 0.6474(4)
H15 H 0.0346 0.1154 0.6566
C20 C 0.1068(2) 0.1950(3) 0.7063(4)
H16 H 0.1368 0.1644 0.7561
Cd1G Cd -0.193766(16) 0.133078(17) 0.39066(2)
Cd1C Cd 0.193766(16) -0.133078(17) 0.60934(2)
O3G O 0.38645(17) 0.2727(2) 0.9656(3)
O4G O 0.42171(18) 0.3893(2) 1.0109(3)
N2C N 0.2700(2) 0.4940(2) 0.8919(3)
O6 O 0.1390(3) 0.3767(3) 1.0057(5)
H17 H 0.1365 0.4248 1.0088
H18 H 0.1378 0.3594 0.9432
loop_
_geom_bond_atom_site_label_1
_geom_bond_atom_site_label_2
_geom_bond_site_symmetry_1
_geom_bond_site_symmetry_2
Cd1 O1 1_555 1_555
O1 C13 1_555 1_555
O2 Cd1 1_555 1_555
O3 C18 1_555 1_555
O4 C18 1_555 1_555
O5 Cd1 1_555 1_555
H1 O5 1_555 1_555
H2 O5 1_555 1_555
N1 Cd1 1_555 1_555
N2 C10 1_555 1_555
C1 N1 1_555 1_555
C2 N1 1_555 1_555
H3 C2 1_555 1_555
C3 C2 1_555 1_555
H4 C3 1_555 1_555
C4 C3 1_555 1_555
H5 C4 1_555 1_555
C5 C1 1_555 1_555
H6 C5 1_555 1_555
C6 C1 1_555 1_555
H7 C6 1_555 1_555
C7 C6 1_555 1_555
H8 C7 1_555 1_555
C8 C7 1_555 1_555
C9 C8 1_555 1_555
H9 C9 1_555 1_555
C10 C9 1_555 1_555
H10 C10 1_555 1_555
C11 N2 1_555 1_555
H11 C11 1_555 1_555
C12 C8 1_555 1_555
H12 C12 1_555 1_555
C13 O2 1_555 1_555
C14 C13 1_555 1_555
C15 C14 1_555 1_555
H13 C15 1_555 1_555
C16 C15 1_555 1_555
H14 C16 1_555 1_555
C17 C16 1_555 1_555
C18 C17 1_555 1_555
C19 C17 1_555 1_555
H15 C19 1_555 1_555
C20 C14 1_555 1_555
H16 C20 1_555 1_555
O6 H17 1_555 1_555
H18 O6 1_555 1_555
Cd1G O3 1_555 1_555
Cd1C N2 1_555 1_555
O3G Cd1 1_555 1_555
O4G Cd1 1_555 1_555
N2C Cd1 1_555 1_555
O4 Cd1G 1_555 1_555
C4 C5 1_555 1_555
C11 C12 1_555 1_555
C19 C20 1_555 1_555

#END
