
#######################################################################
#
#                 Cambridge Crystallographic Data Centre
#                                CCDC 
#
#######################################################################
#
# If this CIF has been generated from an entry in the Cambridge 
# Structural Database, then it will include bibliographic, chemical, 
# crystal, experimental, refinement or atomic coordinate data resulting 
# from the CCDC's data processing and validation procedures.
#
#######################################################################

data_VUNJIY
_symmetry_cell_setting           monoclinic
_symmetry_space_group_name_H-M   'P 21/n'
_symmetry_Int_Tables_number      14
_space_group_name_Hall           '-P 2yn'
loop_
_symmetry_equiv_pos_site_id
_symmetry_equiv_pos_as_xyz
1 x,y,z
2 1/2-x,1/2+y,1/2-z
3 -x,-y,-z
4 1/2+x,1/2-y,1/2+z
_cell_length_a                   11.9488(13)
_cell_length_b                   18.454(2)
_cell_length_c                   14.4823(15)
_cell_angle_alpha                90
_cell_angle_beta                 94.866(2)
_cell_angle_gamma                90
_cell_volume                     3181.88
loop_
_atom_site_label
_atom_site_type_symbol
_atom_site_fract_x
_atom_site_fract_y
_atom_site_fract_z
Zn1 Zn 0.64524(4) 0.10590(3) 0.91617(4)
Br1 Br 1.14654(4) 0.31722(3) 0.74013(4)
Br2 Br 1.01558(4) 0.20106(3) 0.86923(4)
Br3 Br 0.65034(4) 0.19174(3) 0.59775(4)
Br4 Br 0.78209(4) 0.30791(3) 0.46927(4)
O1 O 0.7162(3) 0.17746(17) 0.8347(2)
O2 O 0.8112(4) 0.0876(2) 0.7783(3)
O3 O 1.0852(2) 0.31453(16) 0.5003(2)
O4 O 1.0061(3) 0.41434(17) 0.5474(2)
O5 O 0.6548(2) -0.00229(17) 0.8927(2)
H1 H 0.6094 -0.0306 0.9169
H2 H 0.6779 -0.0154 0.8413
N1 N 0.7910(3) 0.0929(2) 1.0167(3)
N2 N 1.3216(4) 0.0637(2) 1.2800(3)
N3 N 0.4843(3) 0.1079(2) 0.8308(3)
N4 N 0.0115(5) 0.1305(3) 0.5020(6)
C1 C 0.9391(4) 0.1495(3) 1.1116(4)
H3 H 0.9702 0.1925 1.1355
C2 C 0.8427(4) 0.1517(3) 1.0547(4)
H4 H 0.8105 0.1967 1.0412
C3 C 0.8399(4) 0.0299(3) 1.0397(4)
H5 H 0.8066 -0.0123 1.0154
C4 C 0.9378(5) 0.0237(3) 1.0978(4)
H6 H 0.9674 -0.0219 1.1122
C5 C 0.9916(4) 0.0847(3) 1.1345(4)
C6 C 1.0976(4) 0.0766(3) 1.1932(4)
H7 H 1.1344 0.0323 1.1902
C7 C 1.1457(5) 0.1256(3) 1.2493(4)
H8 H 1.1110 0.1706 1.2526
C8 C 1.2516(4) 0.1135(3) 1.3075(3)
C9 C 1.4146(5) 0.0505(3) 1.3364(5)
H9 H 1.4641 0.0153 1.3183
C10 C 1.4410(5) 0.0851(4) 1.4180(4)
H10 H 1.5064 0.0737 1.4546
C11 C 1.3697(5) 0.1370(4) 1.4451(4)
H11 H 1.3869 0.1620 1.5003
C12 C 1.2713(5) 0.1527(3) 1.3906(4)
H12 H 1.2209 0.1874 1.4083
C13 C 0.3084(4) 0.0563(3) 0.7753(4)
H13 H 0.2583 0.0179 0.7771
C14 C 0.4069(4) 0.0559(3) 0.8302(4)
H14 H 0.4210 0.0167 0.8698
C15 C 0.4583(4) 0.1646(3) 0.7758(4)
H15 H 0.5095 0.2026 0.7758
C16 C 0.3622(5) 0.1701(3) 0.7202(4)
H16 H 0.3489 0.2114 0.6841
C17 C 0.2835(5) 0.1152(3) 0.7162(4)
C18 C 0.1816(6) 0.1221(4) 0.6499(5)
H17 H 0.1805 0.1597 0.6070
C19 C 0.1006(6) 0.0831(4) 0.6473(5)
H18 H 0.0981 0.0481 0.6933
C20 C -0.0004(6) 0.0873(4) 0.5720(5)
C21 C -0.0754(8) 0.1316(4) 0.4312(6)
H19 H -0.0705 0.1613 0.3798
C22 C -0.1698(6) 0.0879(4) 0.4382(5)
H20 H -0.2280 0.0871 0.3913
C23 C -0.1736(5) 0.0472(4) 0.5146(5)
H21 H -0.2369 0.0192 0.5218
C24 C -0.0887(6) 0.0461(4) 0.5804(4)
H22 H -0.0919 0.0163 0.6319
C25 C 0.7852(4) 0.1504(3) 0.7833(3)
C26 C 0.8428(3) 0.2050(2) 0.7236(3)
C27 C 0.7943(3) 0.2281(2) 0.6389(3)
C28 C 0.8490(3) 0.2758(2) 0.5846(3)
C29 C 0.9558(3) 0.3009(2) 0.6123(3)
C30 C 1.0207(3) 0.3478(3) 0.5492(3)
C31 C 1.0041(3) 0.2796(2) 0.6988(3)
C32 C 0.9487(3) 0.2322(2) 0.7535(3)
Zn1C Zn 1.14524(4) 0.39410(3) 0.41617(4)
O3C O 0.5852(2) 0.18547(16) 1.0003(2)
loop_
_geom_bond_atom_site_label_1
_geom_bond_atom_site_label_2
_geom_bond_site_symmetry_1
_geom_bond_site_symmetry_2
Zn1 O1 1_555 1_555
Br1 C31 1_555 1_555
Br2 C32 1_555 1_555
Br3 C27 1_555 1_555
Br4 C28 1_555 1_555
O1 C25 1_555 1_555
O2 C25 1_555 1_555
O3 C30 1_555 1_555
O4 C30 1_555 1_555
O5 Zn1 1_555 1_555
H1 O5 1_555 1_555
H2 O5 1_555 1_555
N1 Zn1 1_555 1_555
N2 C8 1_555 1_555
N3 Zn1 1_555 1_555
N4 C20 1_555 1_555
C1 H3 1_555 1_555
C2 N1 1_555 1_555
H4 C2 1_555 1_555
C3 N1 1_555 1_555
H5 C3 1_555 1_555
C4 C3 1_555 1_555
H6 C4 1_555 1_555
C5 C1 1_555 1_555
C6 C5 1_555 1_555
H7 C6 1_555 1_555
C7 C6 1_555 1_555
H8 C7 1_555 1_555
C8 C7 1_555 1_555
C9 N2 1_555 1_555
H9 C9 1_555 1_555
C10 C9 1_555 1_555
H10 C10 1_555 1_555
C11 C10 1_555 1_555
H11 C11 1_555 1_555
C12 C8 1_555 1_555
H12 C12 1_555 1_555
C13 H13 1_555 1_555
C14 N3 1_555 1_555
H14 C14 1_555 1_555
C15 N3 1_555 1_555
H15 C15 1_555 1_555
C16 C15 1_555 1_555
H16 C16 1_555 1_555
C17 C13 1_555 1_555
C18 C17 1_555 1_555
H17 C18 1_555 1_555
C19 C18 1_555 1_555
H18 C19 1_555 1_555
C20 C19 1_555 1_555
C21 N4 1_555 1_555
H19 C21 1_555 1_555
C22 C21 1_555 1_555
H20 C22 1_555 1_555
C23 C22 1_555 1_555
H21 C23 1_555 1_555
C24 C20 1_555 1_555
H22 C24 1_555 1_555
C25 C26 1_555 1_555
C26 C27 1_555 1_555
C27 C28 1_555 1_555
C28 C29 1_555 1_555
C29 C30 1_555 1_555
C31 C29 1_555 1_555
C32 C26 1_555 1_555
Zn1C O3 1_555 1_555
O3C Zn1 1_555 1_555
C1 C2 1_555 1_555
C4 C5 1_555 1_555
C11 C12 1_555 1_555
C13 C14 1_555 1_555
C16 C17 1_555 1_555
C23 C24 1_555 1_555
C31 C32 1_555 1_555

#END
