
#######################################################################
#
#                 Cambridge Crystallographic Data Centre
#                                CCDC 
#
#######################################################################
#
# If this CIF has been generated from an entry in the Cambridge 
# Structural Database, then it will include bibliographic, chemical, 
# crystal, experimental, refinement or atomic coordinate data resulting 
# from the CCDC's data processing and validation procedures.
#
#######################################################################

data_VUNJAR
_symmetry_cell_setting           triclinic
_symmetry_space_group_name_H-M   'P -1'
_symmetry_Int_Tables_number      2
_space_group_name_Hall           '-P 1'
loop_
_symmetry_equiv_pos_site_id
_symmetry_equiv_pos_as_xyz
1 x,y,z
2 -x,-y,-z
_cell_length_a                   10.143(2)
_cell_length_b                   10.328(2)
_cell_length_c                   18.048(4)
_cell_angle_alpha                102.71(3)
_cell_angle_beta                 101.23(3)
_cell_angle_gamma                90.79(3)
_cell_volume                     1805.84
loop_
_atom_site_label
_atom_site_type_symbol
_atom_site_fract_x
_atom_site_fract_y
_atom_site_fract_z
Zn1 Zn 0.050027(4) 0.044907(4) 0.315796(2)
O1 O 0.11003(5) 0.23923(4) 0.40034(3)
O2 O 0.04963(6) 0.29640(5) 0.28989(3)
O3 O 0.02314(7) 0.78753(5) 0.30066(3)
O4 O 0.09418(6) 0.93467(4) 0.40991(3)
O5 O 0.38417(7) 0.51325(6) 0.60856(3)
O6 O 0.61085(6) 0.72366(6) 0.99844(3)
O7 O 0.87508(4) 0.98111(4) 1.20940(3)
O8 O 0.81710(5) 1.06597(4) 1.32124(2)
O9 O 0.33066(6) 1.03550(7) 1.33855(3)
O10 O 0.18181(5) 0.99707(5) 1.23067(3)
N1 N 0.23809(6) 0.66693(5) 0.60634(3)
H1 H 0.2033 0.7313 0.6336
N2 N 0.43744(6) 0.84676(5) 1.01670(3)
H2 H 0.3605 0.8676 0.9942
C1 C 0.08871(7) 0.32822(6) 0.36218(3)
C2 C 0.11192(6) 0.46955(6) 0.40559(3)
C3 C 0.16091(7) 0.50023(6) 0.48385(3)
H3 H 0.1770 0.4323 0.5102
C4 C 0.18768(7) 0.63587(6) 0.52566(3)
C5 C 0.15441(7) 0.73652(6) 0.49011(3)
H4 H 0.1668 0.8244 0.5180
C6 C 0.10094(7) 0.70536(6) 0.41045(3)
C7 C 0.08048(6) 0.57185(6) 0.36839(4)
H5 H 0.0456 0.5526 0.3153
C8 C 0.06843(7) 0.81557(6) 0.36970(4)
C9 C 0.33330(8) 0.60652(7) 0.64369(4)
C10 C 0.37605(7) 0.65864(6) 0.72585(3)
C11 C 0.50886(8) 0.67536(7) 0.75804(4)
H6 H 0.5724 0.6614 0.7267
C12 C 0.55038(7) 0.71398(7) 0.83924(4)
H7 H 0.6419 0.7264 0.8610
C13 C 0.45786(7) 0.73396(6) 0.88751(3)
C14 C 0.32039(7) 0.71560(7) 0.85422(4)
H8 H 0.2570 0.7281 0.8857
C15 C 0.27973(8) 0.67952(6) 0.77582(4)
H9 H 0.1882 0.6681 0.7540
C16 C 0.50754(8) 0.76852(7) 0.97220(4)
C17 C 0.47657(7) 0.89907(6) 1.09720(3)
C18 C 0.60946(6) 0.92961(6) 1.13324(3)
H10 H 0.6768 0.9154 1.1045
C19 C 0.64249(6) 0.98177(6) 1.21284(3)
C20 C 0.54102(6) 1.00357(6) 1.25562(3)
H11 H 0.5643 1.0371 1.3090
C21 C 0.40799(6) 0.97687(6) 1.22101(3)
C22 C 0.37543(6) 0.92370(6) 1.14077(4)
H12 H 0.2857 0.9045 1.1161
C23 C 0.78630(6) 1.01207(6) 1.25046(3)
C24 C 0.30162(7) 1.00638(7) 1.26631(4)
Zn1_2 Zn 0.050027(4) 1.044907(4) 0.315796(2)
Zn1_3 Zn 0.050027(4) 1.044907(4) 1.315796(2)
Zn1_4 Zn 1.050027(4) 1.044907(4) 1.315796(2)
O4_2 O 0.09418(6) -0.06533(4) 0.40991(3)
O7_2 O -0.12492(4) -0.01889(4) 0.20940(3)
O8_2 O -0.18290(5) 0.06597(4) 0.32124(2)
O10_2 O 0.18181(5) -0.00293(5) 0.23067(3)
O11 O 0.82137(9) 0.42146(10) 0.87243(6)
N3 N 0.61136(9) 0.38045(8) 0.80667(5)
C25 C 0.70019(13) 0.41731(11) 0.87060(8)
H13 H 0.6705 0.4416 0.9171
C26 C 0.64301(18) 0.34840(16) 0.73069(9)
H14 H 0.7065 0.4149 0.7266
H15 H 0.5623 0.3457 0.6922
H16 H 0.6813 0.2632 0.7225
C27 C 0.47047(13) 0.37005(12) 0.80419(10)
H17 H 0.4553 0.3602 0.8536
H18 H 0.4303 0.2940 0.7647
H19 H 0.4307 0.4489 0.7926
N4 N 0.05125(7) 0.26599(6) 0.86912(3)
H20 H -0.0284 0.2872 0.8442
H21 H 0.0692 0.1855 0.8432
C28 C 0.03997(10) 0.25804(10) 0.94665(5)
H22 H 0.1282 0.2566 0.9775
H23 H -0.0119 0.1783 0.9443
H24 H -0.0038 0.3339 0.9696
C29 C 0.15625(10) 0.36394(11) 0.86745(6)
H25 H 0.1358 0.4509 0.8929
H26 H 0.1599 0.3631 0.8146
H27 H 0.2417 0.3419 0.8937
N5 N 0.69052(13) 0.84779(13) 0.50746(6)
H28 H 0.7512 0.8200 0.5433
H29 H 0.6837 0.9357 0.5245
C30 C 0.55437(18) 0.77541(18) 0.49814(10)
H30 H 0.5313 0.7844 0.5481
H31 H 0.5590 0.6829 0.4751
H32 H 0.4870 0.8133 0.4654
C31 C 0.74015(17) 0.82230(15) 0.42982(8)
H33 H 0.8288 0.8636 0.4384
H34 H 0.6798 0.8592 0.3930
H35 H 0.7426 0.7283 0.4101
O12 O 0.18799(6) 0.95548(7) 0.97770(3)
H44 H 0.14604(16) 1.00903(16) 1.00690(6)
H45 H 0.1451(3) 0.9208(2) 0.93186(5)
O13 O 0.96473(10) 0.64203(8) 0.84999(4)
O14 O 0.91122(7) 0.89760(7) 0.89626(4)
N6? N 0.68596(18) 0.83258(9) 0.50001(6)
H36? H 0.7234 0.8844 0.5466
H37? H 0.5975 0.8470 0.4914
C32? C 0.6993(3) 0.69052(8) 0.50625(8)
H38? H 0.6470 0.6719 0.5421
H39? H 0.7922 0.6763 0.5245
H40? H 0.6673 0.6326 0.4562
C33? C 0.74473(17) 0.88105(10) 0.44003(5)
H41? H 0.7549 0.9764 0.4536
H42? H 0.6857 0.8525 0.3903
H43? H 0.8311 0.8452 0.4379
loop_
_geom_bond_atom_site_label_1
_geom_bond_atom_site_label_2
_geom_bond_site_symmetry_1
_geom_bond_site_symmetry_2
Zn1 O1 1_555 1_555
O1 C1 1_555 1_555
O2 C1 1_555 1_555
O3 C8 1_555 1_555
O4 C8 1_555 1_555
O5 C9 1_555 1_555
O6 C16 1_555 1_555
O7 C23 1_555 1_555
O8 C23 1_555 1_555
O9 C24 1_555 1_555
O10 C24 1_555 1_555
N1 H1 1_555 1_555
N2 H2 1_555 1_555
C1 C2 1_555 1_555
C2 C3 1_555 1_555
C3 H3 1_555 1_555
C4 N1 1_555 1_555
C5 C4 1_555 1_555
H4 C5 1_555 1_555
C6 C5 1_555 1_555
C7 C2 1_555 1_555
H5 C7 1_555 1_555
C8 C6 1_555 1_555
C9 N1 1_555 1_555
C10 C9 1_555 1_555
C11 C10 1_555 1_555
H6 C11 1_555 1_555
C12 C11 1_555 1_555
H7 C12 1_555 1_555
C13 C12 1_555 1_555
C14 C13 1_555 1_555
H8 C14 1_555 1_555
C15 C10 1_555 1_555
H9 C15 1_555 1_555
C16 N2 1_555 1_555
C17 N2 1_555 1_555
C18 C17 1_555 1_555
H10 C18 1_555 1_555
C19 C18 1_555 1_555
C20 C19 1_555 1_555
H11 C20 1_555 1_555
C21 C20 1_555 1_555
C22 C17 1_555 1_555
H12 C22 1_555 1_555
C23 C19 1_555 1_555
C24 C21 1_555 1_555
O11 C25 1_555 1_555
N3 C25 1_555 1_555
C25 H13 1_555 1_555
C26 N3 1_555 1_555
H14 C26 1_555 1_555
H15 C26 1_555 1_555
H16 C26 1_555 1_555
C27 N3 1_555 1_555
H17 C27 1_555 1_555
H18 C27 1_555 1_555
H19 C27 1_555 1_555
N4 H20 1_555 1_555
H21 N4 1_555 1_555
C28 N4 1_555 1_555
H22 C28 1_555 1_555
H23 C28 1_555 1_555
H24 C28 1_555 1_555
C29 N4 1_555 1_555
H25 C29 1_555 1_555
H26 C29 1_555 1_555
H27 C29 1_555 1_555
N5 H28 1_555 1_555
H29 N5 1_555 1_555
C30 N5 1_555 1_555
H30 C30 1_555 1_555
H31 C30 1_555 1_555
H32 C30 1_555 1_555
C31 N5 1_555 1_555
H33 C31 1_555 1_555
H34 C31 1_555 1_555
H35 C31 1_555 1_555
O12 H44 1_555 1_555
H45 O12 1_555 1_555
Zn1_2 O4 1_555 1_555
Zn1_3 O10 1_555 1_555
Zn1_4 O7 1_555 1_555
O4_2 Zn1 1_555 1_555
O7_2 Zn1 1_555 1_555
O8_2 Zn1 1_555 1_555
O10_2 Zn1 1_555 1_555
O8 Zn1_4 1_555 1_555
C3 C4 1_555 1_555
C6 C7 1_555 1_555
C13 C16 1_555 1_555
C14 C15 1_555 1_555
C21 C22 1_555 1_555

#END
