
#######################################################################
#
#                 Cambridge Crystallographic Data Centre
#                                CCDC 
#
#######################################################################
#
# If this CIF has been generated from an entry in the Cambridge 
# Structural Database, then it will include bibliographic, chemical, 
# crystal, experimental, refinement or atomic coordinate data resulting 
# from the CCDC's data processing and validation procedures.
#
#######################################################################

data_VUNKOG
_symmetry_cell_setting           monoclinic
_symmetry_space_group_name_H-M   'P 21/n'
_symmetry_Int_Tables_number      14
_space_group_name_Hall           '-P 2yn'
loop_
_symmetry_equiv_pos_site_id
_symmetry_equiv_pos_as_xyz
1 x,y,z
2 1/2-x,1/2+y,1/2-z
3 -x,-y,-z
4 1/2+x,1/2-y,1/2+z
_cell_length_a                   8.5939(2)
_cell_length_b                   22.9953(5)
_cell_length_c                   10.1832(2)
_cell_angle_alpha                90
_cell_angle_beta                 112.8380(10)
_cell_angle_gamma                90
_cell_volume                     1854.64
loop_
_atom_site_label
_atom_site_type_symbol
_atom_site_fract_x
_atom_site_fract_y
_atom_site_fract_z
Nd1 Nd 0.582952(10) 0.086794(3) 0.489277(9)
S1 S 0.26864(6) 0.29730(2) 0.63587(7)
O1 O -0.20786(15) 0.15943(5) 0.48602(14)
O2 O 0.33762(17) 0.08973(5) 0.56418(18)
N1 N 0.28675(17) 0.18399(6) 0.59814(17)
H1 H 0.3938 0.1898 0.6282
N2 N 0.02074(18) 0.21867(6) 0.54845(16)
H2 H -0.0465 0.2474 0.5399
C1 C 0.1882(2) 0.23049(7) 0.59216(19)
C2 C -0.0496(2) 0.16343(7) 0.51661(17)
C3 C 0.0577(2) 0.11749(7) 0.5220(2)
H3 H 0.0152 0.0799 0.5005
C4 C 0.2295(2) 0.12789(7) 0.55984(19)
S2 S 1.24972(6) 0.16191(2) 0.94152(6)
O3 O 0.89919(17) 0.33634(6) 0.86413(15)
O4 O 0.63186(15) 0.15794(6) 0.68606(15)
N3 N 0.91358(18) 0.16503(6) 0.81545(16)
H4 H 0.9183 0.1277 0.8119
N4 N 1.04347(18) 0.25205(6) 0.89356(17)
H5 H 1.1340 0.2717 0.9372
C5 C 1.0603(2) 0.19410(7) 0.88184(18)
C6 C 0.8919(2) 0.28256(7) 0.84097(18)
C7 C 0.7458(2) 0.25061(8) 0.76699(19)
H6 H 0.6421 0.2694 0.7275
C8 C 0.7553(2) 0.19114(7) 0.75245(18)
O5 O 0.61511(16) -0.00777(6) 0.63614(14)
O6 O 0.83389(18) 0.04996(6) 0.71316(17)
C9 C 0.7683(2) 0.00203(8) 0.71925(19)
C10 C 0.8663(3) -0.04507(11) 0.8188(3)
H7 H 0.7929 -0.0662 0.8527
H8 H 0.9567 -0.0281 0.8981
H9 H 0.9120 -0.0711 0.7693
O7 O 0.75948(18) 0.01827(6) 0.41904(17)
H10 H 0.729(3) -0.0163(9) 0.432(3)
H11 H 0.760(3) 0.0178(11) 0.337(2)
O8 O 0.5556(3) 0.09771(8) 0.22648(19)
H12 H 0.600(3) 0.1319(11) 0.206(3)
H13 H 0.467(3) 0.0851(11) 0.158(3)
Nd1_2 Nd -0.417048(10) 0.086794(3) 0.489277(9)
Nd1B Nd 0.417048(10) -0.086794(3) 0.510723(9)
Nd1C Nd 1.082952(10) 0.413206(3) 0.989277(9)
O1_2 O 0.79214(15) 0.15943(5) 0.48602(14)
O3C O 0.39919(17) 0.16366(6) 0.36413(15)
O5B O 0.38489(16) 0.00777(6) 0.36386(14)
O9 O 0.6023(7) 0.0707(2) 0.9238(5)
H14 H 0.498(4) 0.053(3) 0.899(6)
H15 H 0.583(9) 0.1066(16) 0.885(7)
O10 O 0.2640(6) 0.01326(15) 0.8504(4)
H16 H 0.299(7) -0.0167(19) 0.915(5)
H17 H 0.250(7) 0.0463(12) 0.899(5)
loop_
_geom_bond_atom_site_label_1
_geom_bond_atom_site_label_2
_geom_bond_site_symmetry_1
_geom_bond_site_symmetry_2
Nd1 O2 1_555 1_555
S1 C1 1_555 1_555
O1 C2 1_555 1_555
O2 C4 1_555 1_555
N1 H1 1_555 1_555
N2 H2 1_555 1_555
C1 N1 1_555 1_555
C2 N2 1_555 1_555
C3 C2 1_555 1_555
H3 C3 1_555 1_555
C4 N1 1_555 1_555
S2 C5 1_555 1_555
O3 C6 1_555 1_555
O4 Nd1 1_555 1_555
N3 H4 1_555 1_555
N4 H5 1_555 1_555
C5 N3 1_555 1_555
C6 N4 1_555 1_555
C7 C6 1_555 1_555
H6 C7 1_555 1_555
C8 O4 1_555 1_555
O5 Nd1 1_555 1_555
O6 Nd1 1_555 1_555
C9 O5 1_555 1_555
C10 C9 1_555 1_555
H7 C10 1_555 1_555
H8 C10 1_555 1_555
H9 C10 1_555 1_555
O7 Nd1 1_555 1_555
H10 O7 1_555 1_555
H11 O7 1_555 1_555
O8 Nd1 1_555 1_555
H12 O8 1_555 1_555
H13 O8 1_555 1_555
O9 H14 1_555 1_555
H15 O9 1_555 1_555
O10 H16 1_555 1_555
H17 O10 1_555 1_555
Nd1_2 O1 1_555 1_555
Nd1B O5 1_555 1_555
Nd1C O3 1_555 1_555
O1_2 Nd1 1_555 1_555
O3C Nd1 1_555 1_555
O5B Nd1 1_555 1_555
N2 C1 1_555 1_555
C3 C4 1_555 1_555
N3 C8 1_555 1_555
N4 C5 1_555 1_555
C7 C8 1_555 1_555
O6 C9 1_555 1_555
Nd1B O5B 1_555 1_555

#END
