
#######################################################################
#
#                 Cambridge Crystallographic Data Centre
#                                CCDC 
#
#######################################################################
#
# If this CIF has been generated from an entry in the Cambridge 
# Structural Database, then it will include bibliographic, chemical, 
# crystal, experimental, refinement or atomic coordinate data resulting 
# from the CCDC's data processing and validation procedures.
#
#######################################################################

data_VUNLEX
_symmetry_cell_setting           rhombohedral
_symmetry_space_group_name_H-M   'R -3'
_symmetry_Int_Tables_number      148
_space_group_name_Hall           '-R 3'
loop_
_symmetry_equiv_pos_site_id
_symmetry_equiv_pos_as_xyz
1 x,y,z
2 -y,x-y,z
3 -x+y,-x,z
4 2/3+x,1/3+y,1/3+z
5 2/3-y,1/3+x-y,1/3+z
6 2/3-x+y,1/3-x,1/3+z
7 1/3+x,2/3+y,2/3+z
8 1/3-y,2/3+x-y,2/3+z
9 1/3-x+y,2/3-x,2/3+z
10 -x,-y,-z
11 y,-x+y,-z
12 x-y,x,-z
13 1/3-x,2/3-y,2/3-z
14 1/3+y,2/3-x+y,2/3-z
15 1/3+x-y,2/3+x,2/3-z
16 2/3-x,1/3-y,1/3-z
17 2/3+y,1/3-x+y,1/3-z
18 2/3+x-y,1/3+x,1/3-z
_cell_length_a                   12.9503(3)
_cell_length_b                   12.9503(3)
_cell_length_c                   32.0771(10)
_cell_angle_alpha                90
_cell_angle_beta                 90
_cell_angle_gamma                120
_cell_volume                     4658.92
loop_
_atom_site_label
_atom_site_type_symbol
_atom_site_fract_x
_atom_site_fract_y
_atom_site_fract_z
Pb1 Pb 0.3333 0.6667 0.1667
Pb2 Pb 0.6667 0.3333 0.12068(2)
S1 S 0.19923(10) 0.15828(11) 0.27671(4)
O1 O 0.4061(3) 0.5511(3) 0.20677(9)
O2 O 0.5070(2) 0.2616(3) 0.16987(9)
N1 N 0.3760(3) 0.2302(3) 0.22204(10)
N2 N 0.3116(3) 0.3653(3) 0.23564(10)
C1 C 0.3009(3) 0.2561(3) 0.24308(12)
C2 C 0.3963(3) 0.4502(4) 0.20767(13)
C3 C 0.4585(3) 0.4119(4) 0.18390(13)
H1 H 0.5072 0.4612 0.1627
C4 C 0.4518(3) 0.3029(3) 0.19008(12)
C5 C 0.2387(4) 0.4032(4) 0.25993(15)
H2 H 0.2235 0.4566 0.2432
H3 H 0.1625 0.3339 0.2668
C6 C 0.3804(4) 0.1212(4) 0.23257(14)
H4 H 0.4071 0.0959 0.2084
H5 H 0.3009 0.0578 0.2397
C7 C 0.4631(5) 0.1418(5) 0.26862(15)
H6 H 0.4347 0.1632 0.2929
H7 H 0.5417 0.2052 0.2618
H8 H 0.4657 0.0703 0.2741
C8 C 0.3010(5) 0.4646(5) 0.29888(17)
H9 H 0.3148 0.4112 0.3156
H10 H 0.2526 0.4884 0.3141
H11 H 0.3759 0.5337 0.2921
S1A S 0.84172(11) 0.04095(15) 0.27671(4)
O1A O 0.4489(3) -0.1450(4) 0.20677(9)
O2A O 0.7384(3) 0.2454(4) 0.16987(9)
N1A N 0.7698(3) 0.1458(4) 0.22204(10)
N2A N 0.6347(3) -0.0537(4) 0.23564(10)
C1A C 0.7439(3) 0.0448(4) 0.24308(12)
C2A C 0.5498(4) -0.0539(5) 0.20767(13)
C3A C 0.5881(4) 0.0466(5) 0.18390(13)
H1A H 0.5388 0.0460 0.1627
C4A C 0.6971(3) 0.1489(4) 0.19008(12)
C5A C 0.5968(4) -0.1645(6) 0.25993(15)
H2A H 0.5434 -0.2331 0.2432
H3A H 0.6661 -0.1714 0.2668
C6A C 0.8788(4) 0.2592(6) 0.23257(14)
H4A H 0.9041 0.3112 0.2084
H5A H 0.9422 0.2431 0.2397
C7A C 0.8582(5) 0.3213(7) 0.26862(15)
H6A H 0.8368 0.2715 0.2929
H7A H 0.7948 0.3365 0.2618
H8A H 0.9297 0.3954 0.2741
C8A C 0.5354(5) -0.1636(7) 0.29888(17)
H9A H 0.5888 -0.0964 0.3156
H10A H 0.5116 -0.2358 0.3141
H11A H 0.4663 -0.1578 0.2921
S1B S -0.04095(15) -0.19923(10) 0.27671(4)
O1B O 0.1450(4) -0.4061(3) 0.20677(9)
O2B O -0.2454(4) -0.5070(2) 0.16987(9)
N1B N -0.1458(4) -0.3760(3) 0.22204(10)
N2B N 0.0537(4) -0.3116(3) 0.23564(10)
C1B C -0.0448(4) -0.3009(3) 0.24308(12)
C2B C 0.0539(5) -0.3963(3) 0.20767(13)
C3B C -0.0466(5) -0.4585(3) 0.18390(13)
H1B H -0.0460 -0.5072 0.1627
C4B C -0.1489(4) -0.4518(3) 0.19008(12)
C5B C 0.1645(6) -0.2387(4) 0.25993(15)
H2B H 0.2331 -0.2235 0.2432
H3B H 0.1714 -0.1625 0.2668
C6B C -0.2592(6) -0.3804(4) 0.23257(14)
H4B H -0.3112 -0.4071 0.2084
H5B H -0.2431 -0.3009 0.2397
C7B C -0.3213(7) -0.4631(5) 0.26862(15)
H6B H -0.2715 -0.4347 0.2929
H7B H -0.3365 -0.5417 0.2618
H8B H -0.3954 -0.4657 0.2741
C8B C 0.1636(7) -0.3010(5) 0.29888(17)
H9B H 0.0964 -0.3148 0.3156
H10B H 0.2358 -0.2526 0.3141
H11B H 0.1578 -0.3759 0.2921
Pb2O Pb -0.0000 0.0000 0.21265(2)
S1O S 0.46744(10) 0.17505(11) 0.05662(4)
O1O O 0.2606(3) -0.2178(3) 0.12656(9)
O2O O 0.1597(2) 0.0717(3) 0.16346(9)
N1O N 0.2907(3) 0.1031(3) 0.11129(10)
N2O N 0.3551(3) -0.0320(3) 0.09769(10)
C1O C 0.3658(3) 0.0772(3) 0.09025(12)
C2O C 0.2704(3) -0.1169(4) 0.12566(13)
C3O C 0.2082(3) -0.0786(4) 0.14943(13)
H1O H 0.1595 -0.1279 0.1706
C4O C 0.2149(3) 0.0304(3) 0.14325(12)
C5O C 0.4280(4) -0.0699(4) 0.07340(15)
H2O H 0.4432 -0.1233 0.0901
H3O H 0.5042 -0.0006 0.0665
C6O C 0.2863(4) 0.2121(4) 0.10076(14)
H4O H 0.2596 0.2374 0.1249
H5O H 0.3658 0.2755 0.0936
C7O C 0.2036(5) 0.1915(5) 0.06471(15)
H6O H 0.2320 0.1701 0.0404
H7O H 0.1250 0.1281 0.0715
H8O H 0.2010 0.2630 0.0592
C8O C 0.3657(5) -0.1313(5) 0.03445(17)
H9O H 0.3519 -0.0779 0.0177
H10O H 0.4141 -0.1551 0.0192
H11O H 0.2908 -0.2004 0.0412
S1P S -0.17505(11) 0.29238(15) 0.05662(4)
O1P O 0.2178(3) 0.4783(4) 0.12656(9)
O2P O -0.0717(3) 0.0879(4) 0.16346(9)
N1P N -0.1031(3) 0.1875(4) 0.11129(10)
N2P N 0.0320(3) 0.3870(4) 0.09769(10)
C1P C -0.0772(3) 0.2885(4) 0.09025(12)
C2P C 0.1169(4) 0.3872(5) 0.12566(13)
C3P C 0.0786(4) 0.2867(5) 0.14943(13)
H1P H 0.1279 0.2873 0.1706
C4P C -0.0304(3) 0.1844(4) 0.14325(12)
C5P C 0.0699(4) 0.4978(6) 0.07340(15)
H2P H 0.1233 0.5664 0.0901
H3P H 0.0006 0.5047 0.0665
C6P C -0.2121(4) 0.0741(6) 0.10076(14)
H4P H -0.2374 0.0221 0.1249
H5P H -0.2755 0.0902 0.0936
C7P C -0.1915(5) 0.0120(7) 0.06471(15)
H6P H -0.1701 0.0618 0.0404
H7P H -0.1281 -0.0032 0.0715
H8P H -0.2630 -0.0621 0.0592
C8P C 0.1313(5) 0.4969(7) 0.03445(17)
H9P H 0.0779 0.4297 0.0177
H10P H 0.1551 0.5691 0.0192
H11P H 0.2004 0.4911 0.0412
S1Q S -0.29238(15) -0.46744(10) 0.05662(4)
O1Q O -0.4783(4) -0.2606(3) 0.12656(9)
O2Q O -0.0879(4) -0.1597(2) 0.16346(9)
N1Q N -0.1875(4) -0.2907(3) 0.11129(10)
N2Q N -0.3870(4) -0.3551(3) 0.09769(10)
C1Q C -0.2885(4) -0.3658(3) 0.09025(12)
C2Q C -0.3872(5) -0.2704(3) 0.12566(13)
C3Q C -0.2867(5) -0.2082(3) 0.14943(13)
H1Q H -0.2873 -0.1595 0.1706
C4Q C -0.1844(4) -0.2149(3) 0.14325(12)
C5Q C -0.4978(6) -0.4280(4) 0.07340(15)
H2Q H -0.5664 -0.4432 0.0901
H3Q H -0.5047 -0.5042 0.0665
C6Q C -0.0741(6) -0.2863(4) 0.10076(14)
H4Q H -0.0221 -0.2596 0.1249
H5Q H -0.0902 -0.3658 0.0936
C7Q C -0.0120(7) -0.2036(5) 0.06471(15)
H6Q H -0.0618 -0.2320 0.0404
H7Q H 0.0032 -0.1250 0.0715
H8Q H 0.0621 -0.2010 0.0592
C8Q C -0.4969(7) -0.3657(5) 0.03445(17)
H9Q H -0.4297 -0.3519 0.0177
H10Q H -0.5691 -0.4141 0.0192
H11Q H -0.4911 -0.2908 0.0412
Pb1_2 Pb -0.6667 -0.3333 0.1667
Pb1_3 Pb 0.3333 -0.3333 0.1667
Pb2_2 Pb -0.3333 -0.6667 0.12068(2)
Pb2_3 Pb -0.3333 0.3333 0.12068(2)
Pb2O_2 Pb 1.0000 0.0000 0.21265(2)
S1A_2 S -0.15828(11) 0.04095(15) 0.27671(4)
S1P_2 S 0.82495(11) 0.29238(15) 0.05662(4)
S1Q_2 S 0.70762(15) 0.53256(10) 0.05662(4)
O1A_2 O 0.4489(3) 0.8550(4) 0.20677(9)
O1B_2 O 0.1450(4) 0.5939(3) 0.20677(9)
O1O_2 O 0.2606(3) 0.7822(3) 0.12656(9)
O1Q_2 O 0.5217(4) 0.7394(3) 0.12656(9)
O2B_2 O 0.7546(4) 0.4930(2) 0.16987(9)
loop_
_geom_bond_atom_site_label_1
_geom_bond_atom_site_label_2
_geom_bond_site_symmetry_1
_geom_bond_site_symmetry_2
Pb1 O1 1_555 1_555
Pb2 O2 1_555 1_555
S1 C1 1_555 1_555
O1 C2 1_555 1_555
O2 C4 1_555 1_555
N1 C1 1_555 1_555
N2 C1 1_555 1_555
C2 N2 1_555 1_555
C3 C2 1_555 1_555
H1 C3 1_555 1_555
C4 N1 1_555 1_555
C5 N2 1_555 1_555
H2 C5 1_555 1_555
H3 C5 1_555 1_555
C6 N1 1_555 1_555
H4 C6 1_555 1_555
H5 C6 1_555 1_555
C7 C6 1_555 1_555
H6 C7 1_555 1_555
H7 C7 1_555 1_555
H8 C7 1_555 1_555
C8 C5 1_555 1_555
H9 C8 1_555 1_555
H10 C8 1_555 1_555
H11 C8 1_555 1_555
S1A C1A 1_555 1_555
O1A C2A 1_555 1_555
O2A Pb2 1_555 1_555
N1A C1A 1_555 1_555
N2A C1A 1_555 1_555
C2A N2A 1_555 1_555
C3A C2A 1_555 1_555
H1A C3A 1_555 1_555
C4A O2A 1_555 1_555
C5A N2A 1_555 1_555
H2A C5A 1_555 1_555
H3A C5A 1_555 1_555
C6A N1A 1_555 1_555
H4A C6A 1_555 1_555
H5A C6A 1_555 1_555
C7A C6A 1_555 1_555
H6A C7A 1_555 1_555
H7A C7A 1_555 1_555
H8A C7A 1_555 1_555
C8A C5A 1_555 1_555
H9A C8A 1_555 1_555
H10A C8A 1_555 1_555
H11A C8A 1_555 1_555
S1B C1B 1_555 1_555
O1B C2B 1_555 1_555
O2B C4B 1_555 1_555
N1B C1B 1_555 1_555
N2B C1B 1_555 1_555
C2B N2B 1_555 1_555
C3B C2B 1_555 1_555
H1B C3B 1_555 1_555
C4B N1B 1_555 1_555
C5B N2B 1_555 1_555
H2B C5B 1_555 1_555
H3B C5B 1_555 1_555
C6B N1B 1_555 1_555
H4B C6B 1_555 1_555
H5B C6B 1_555 1_555
C7B C6B 1_555 1_555
H6B C7B 1_555 1_555
H7B C7B 1_555 1_555
H8B C7B 1_555 1_555
C8B C5B 1_555 1_555
H9B C8B 1_555 1_555
H10B C8B 1_555 1_555
H11B C8B 1_555 1_555
Pb2O S1 1_555 1_555
S1O Pb2 1_555 1_555
O1O C2O 1_555 1_555
O2O Pb2O 1_555 1_555
N1O C1O 1_555 1_555
N2O C1O 1_555 1_555
C1O S1O 1_555 1_555
C2O N2O 1_555 1_555
C3O C2O 1_555 1_555
H1O C3O 1_555 1_555
C4O O2O 1_555 1_555
C5O N2O 1_555 1_555
H2O C5O 1_555 1_555
H3O C5O 1_555 1_555
C6O N1O 1_555 1_555
H4O C6O 1_555 1_555
H5O C6O 1_555 1_555
C7O C6O 1_555 1_555
H6O C7O 1_555 1_555
H7O C7O 1_555 1_555
H8O C7O 1_555 1_555
C8O C5O 1_555 1_555
H9O C8O 1_555 1_555
H10O C8O 1_555 1_555
H11O C8O 1_555 1_555
S1P C1P 1_555 1_555
O1P Pb1 1_555 1_555
O2P Pb2O 1_555 1_555
N1P C1P 1_555 1_555
N2P C1P 1_555 1_555
C2P O1P 1_555 1_555
C3P C2P 1_555 1_555
H1P C3P 1_555 1_555
C4P O2P 1_555 1_555
C5P N2P 1_555 1_555
H2P C5P 1_555 1_555
H3P C5P 1_555 1_555
C6P N1P 1_555 1_555
H4P C6P 1_555 1_555
H5P C6P 1_555 1_555
C7P C6P 1_555 1_555
H6P C7P 1_555 1_555
H7P C7P 1_555 1_555
H8P C7P 1_555 1_555
C8P C5P 1_555 1_555
H9P C8P 1_555 1_555
H10P C8P 1_555 1_555
H11P C8P 1_555 1_555
S1Q C1Q 1_555 1_555
O1Q C2Q 1_555 1_555
O2Q Pb2O 1_555 1_555
N1Q C1Q 1_555 1_555
N2Q C1Q 1_555 1_555
C2Q N2Q 1_555 1_555
C3Q C2Q 1_555 1_555
H1Q C3Q 1_555 1_555
C4Q O2Q 1_555 1_555
C5Q N2Q 1_555 1_555
H2Q C5Q 1_555 1_555
H3Q C5Q 1_555 1_555
C6Q N1Q 1_555 1_555
H4Q C6Q 1_555 1_555
H5Q C6Q 1_555 1_555
C7Q C6Q 1_555 1_555
H6Q C7Q 1_555 1_555
H7Q C7Q 1_555 1_555
H8Q C7Q 1_555 1_555
C8Q C5Q 1_555 1_555
H9Q C8Q 1_555 1_555
H10Q C8Q 1_555 1_555
H11Q C8Q 1_555 1_555
Pb1_2 O1Q 1_555 1_555
Pb1_3 O1A 1_555 1_555
Pb2_2 O2B 1_555 1_555
Pb2_3 S1P 1_555 1_555
Pb2O_2 S1A 1_555 1_555
S1A_2 Pb2O 1_555 1_555
S1P_2 Pb2 1_555 1_555
S1Q_2 Pb2 1_555 1_555
O1A_2 Pb1 1_555 1_555
O1B_2 Pb1 1_555 1_555
O1O_2 Pb1 1_555 1_555
O1Q_2 Pb1 1_555 1_555
O2B_2 Pb2 1_555 1_555
C3 C4 1_555 1_555
N1A C4A 1_555 1_555
C3A C4A 1_555 1_555
S1B Pb2O 1_555 1_555
O1B Pb1_3 1_555 1_555
C3B C4B 1_555 1_555
O1O Pb1_3 1_555 1_555
N1O C4O 1_555 1_555
C3O C4O 1_555 1_555
N1P C4P 1_555 1_555
N2P C2P 1_555 1_555
C3P C4P 1_555 1_555
S1Q Pb2_2 1_555 1_555
N1Q C4Q 1_555 1_555
C3Q C4Q 1_555 1_555

#END
