
#######################################################################
#
#                 Cambridge Crystallographic Data Centre
#                                CCDC 
#
#######################################################################
#
# If this CIF has been generated from an entry in the Cambridge 
# Structural Database, then it will include bibliographic, chemical, 
# crystal, experimental, refinement or atomic coordinate data resulting 
# from the CCDC's data processing and validation procedures.
#
#######################################################################

data_VUNLAS
_symmetry_cell_setting           triclinic
_symmetry_space_group_name_H-M   'P -1'
_symmetry_Int_Tables_number      2
_space_group_name_Hall           '-P 1'
loop_
_symmetry_equiv_pos_site_id
_symmetry_equiv_pos_as_xyz
1 x,y,z
2 -x,-y,-z
_cell_length_a                   7.2014(14)
_cell_length_b                   9.3868(19)
_cell_length_c                   11.354(2)
_cell_angle_alpha                75.34(3)
_cell_angle_beta                 81.51(3)
_cell_angle_gamma                69.41(3)
_cell_volume                     693.632
loop_
_atom_site_label
_atom_site_type_symbol
_atom_site_fract_x
_atom_site_fract_y
_atom_site_fract_z
Ag1 Ag 0.72515(2) 0.53968(2) 0.236498(13)
C1 C 0.7839(4) 0.3866(3) 1.0147(2)
H1 H 0.8095 0.2939 1.0733
C3 C 0.8359(3) 0.3857(2) 0.62720(19)
H2 H 0.9058 0.2928 0.6776
C4 C 0.7151(4) 0.6522(3) 0.9635(2)
H3 H 0.6925 0.7455 0.9866
C5 C 0.7833(4) 0.3811(3) 0.8948(2)
H4 H 0.8084 0.2861 0.8741
C6 C 0.8283(4) 0.3927(3) 0.5055(2)
H5 H 0.8944 0.3031 0.4756
C7 C 0.6319(3) 0.6508(3) 0.4739(2)
H6 H 0.5607 0.7415 0.4218
C8 C 0.7121(4) 0.6560(3) 0.8424(2)
H7 H 0.6881 0.7502 0.7856
C9 C 0.6332(3) 0.6529(2) 0.59400(19)
H8 H 0.5638 0.7438 0.6216
C11 C 0.7384(3) 0.5187(2) 0.67542(19)
C14 C 0.7453(3) 0.5178(2) 0.80434(19)
H13 H 0.5553 0.8869 0.2272
H14 H 0.4387 0.8723 0.1403
O3 O 0.5217(3) 0.8277(2) 0.19517(15)
N1 N 0.7296(3) 0.5231(2) 0.42776(16)
N2 N 0.7491(3) 0.5201(2) 1.05098(17)
Ag1_2 Ag 0.72515(2) 0.53968(2) 1.236498(13)
N2_2 N 0.7491(3) 0.5201(2) 0.05098(17)
C2 C 0.7977(3) 0.0090(2) 0.29086(18)
C10 C 0.8065(3) -0.0025(2) 0.51576(19)
H9 H 0.6767 -0.0041 0.5269
C12 C 1.0969(3) 0.0097(2) 0.38459(19)
H10 H 1.1627 0.0163 0.3075
C13 C 0.9020(3) 0.0074(2) 0.39904(18)
O1 O 0.6196(2) 0.0154(2) 0.30959(16)
O4 O 0.8966(3) 0.0009(3) 0.19140(16)
C2A C 1.2023(3) -0.0090(2) 0.70914(18)
C10A C 1.1935(3) 0.0025(2) 0.48424(19)
H9A H 1.3233 0.0041 0.4731
C12A C 0.9031(3) -0.0097(2) 0.61541(19)
H10A H 0.8373 -0.0163 0.6925
C13A C 1.0980(3) -0.0074(2) 0.60096(18)
O1A O 1.3804(2) -0.0154(2) 0.69041(16)
O4A O 1.1034(3) -0.0009(3) 0.80860(16)
H11 H 0.2073 -0.0068 -0.0343
H12 H 0.1243 0.0161 0.0794
O2 O 0.2312(2) 0.0027(2) 0.03397(16)
loop_
_geom_bond_atom_site_label_1
_geom_bond_atom_site_label_2
_geom_bond_site_symmetry_1
_geom_bond_site_symmetry_2
Ag1 O3 1_555 1_555
C1 H1 1_555 1_555
C2 C13 1_555 1_555
C3 H2 1_555 1_555
C4 H3 1_555 1_555
C5 C1 1_555 1_555
H4 C5 1_555 1_555
C6 C3 1_555 1_555
H5 C6 1_555 1_555
C7 H6 1_555 1_555
C8 C4 1_555 1_555
H7 C8 1_555 1_555
C9 C7 1_555 1_555
H8 C9 1_555 1_555
C10 H9 1_555 1_555
C11 C3 1_555 1_555
C12 H10 1_555 1_555
C13 C10 1_555 1_555
C14 C5 1_555 1_555
H11 O2 1_555 1_555
H12 O2 1_555 1_555
H13 O3 1_555 1_555
H14 O3 1_555 1_555
O1 C2 1_555 1_555
O4 C2 1_555 1_555
N1 Ag1 1_555 1_555
N2 C1 1_555 1_555
Ag1_2 N2 1_555 1_555
C2A C13A 1_555 1_555
C10A C12 1_555 1_555
H9A C10A 1_555 1_555
C12A C10 1_555 1_555
H10A C12A 1_555 1_555
C13A C10A 1_555 1_555
O1A C2A 1_555 1_555
O4A C2A 1_555 1_555
N2_2 Ag1 1_555 1_555
C4 N2 1_555 1_555
C6 N1 1_555 1_555
C7 N1 1_555 1_555
C8 C14 1_555 1_555
C9 C11 1_555 1_555
C11 C14 1_555 1_555
C12 C13 1_555 1_555
C12A C13A 1_555 1_555

#END
