
#######################################################################
#
#                 Cambridge Crystallographic Data Centre
#                                CCDC 
#
#######################################################################
#
# If this CIF has been generated from an entry in the Cambridge 
# Structural Database, then it will include bibliographic, chemical, 
# crystal, experimental, refinement or atomic coordinate data resulting 
# from the CCDC's data processing and validation procedures.
#
#######################################################################

data_VUNMOI
_symmetry_cell_setting           triclinic
_symmetry_space_group_name_H-M   'P -1'
_symmetry_Int_Tables_number      2
_space_group_name_Hall           '-P 1'
loop_
_symmetry_equiv_pos_site_id
_symmetry_equiv_pos_as_xyz
1 x,y,z
2 -x,-y,-z
_cell_length_a                   8.7022(3)
_cell_length_b                   8.9520(3)
_cell_length_c                   12.6698(6)
_cell_angle_alpha                106.807(4)
_cell_angle_beta                 90.983(3)
_cell_angle_gamma                110.054(2)
_cell_volume                     880.102
loop_
_atom_site_label
_atom_site_type_symbol
_atom_site_fract_x
_atom_site_fract_y
_atom_site_fract_z
Cu1 Cu 0.0000 0.0000 0.0000
Cu2 Cu 0.01194(5) 0.04353(5) 0.33241(3)
Cu3 Cu -0.33935(5) 0.05522(5) 0.34359(3)
O1 O -0.2225(3) 0.2511(3) 0.3003(2)
O2 O 0.0370(3) 0.2636(3) 0.3207(2)
O3 O 0.0167(3) 0.2312(3) 0.0741(2)
O4 O 0.2897(3) 0.3607(4) 0.1086(3)
O5 O 0.3742(3) 0.8247(4) 0.2088(2)
O6 O 0.5021(3) 0.8554(3) 0.3695(2)
O7 O -0.2115(3) -0.0636(3) 0.25930(18)
O8 O 0.0189(3) 0.8247(3) 0.33327(19)
O9 O 0.1642(3) 0.8975(3) 0.49817(18)
C1 C -0.0113(4) 0.4841(4) 0.2766(3)
H1 H -0.1024 0.5150 0.2559
C2 C -0.0697(4) 0.3194(4) 0.2999(3)
C3 C 0.1236(4) 0.5067(4) 0.1983(3)
H2 H 0.1090 0.5763 0.1548
C4 C 0.1465(4) 0.3550(4) 0.1222(3)
C5 C 0.2574(4) 0.6162(4) 0.2980(3)
H3 H 0.3135 0.5484 0.3182
C6 C 0.3839(4) 0.7757(4) 0.2890(3)
C7 C 0.1166(4) 0.6264(4) 0.3736(2)
H4 H 0.1275 0.5907 0.4386
C8 C 0.0968(4) 0.7943(4) 0.4044(3)
O10 O -0.4513(3) 0.1967(2) 0.4345(4)
O11 O 0.2168(3) 0.1606(3) 0.4367(2)
O12 O 0.1451(4) -0.0032(4) 0.1712(2)
O13 O 0.2196(3) 0.0686(3) -0.0490(2)
H5 H 0.210(6) 0.067(7) -0.1236(16)
H6 H 0.278(5) 0.182(2) -0.009(3)
H7 H 0.129(12) -0.119(3) 0.148(8)
H8 H 0.244(4) 0.090(4) 0.200(4)
H9 H 0.198(7) 0.097(6) 0.486(4)
H10 H 0.249(6) 0.271(3) 0.485(3)
H11 H -0.4637 0.1615 0.5020
H12 H -0.5488 0.2060 0.4130
H13 H -0.258(5) -0.1638(17) 0.248(4)
Cu2A Cu -0.01194(5) -0.04353(5) -0.33241(3)
Cu3A Cu 0.33935(5) -0.05522(5) -0.34359(3)
O1A O 0.2225(3) -0.2511(3) -0.3003(2)
O2A O -0.0370(3) -0.2636(3) -0.3207(2)
O3A O -0.0167(3) -0.2312(3) -0.0741(2)
O4A O -0.2897(3) -0.3607(4) -0.1086(3)
O5A O -0.3742(3) -0.8247(4) -0.2088(2)
O6A O -0.5021(3) -0.8554(3) -0.3695(2)
O7A O 0.2115(3) 0.0636(3) -0.25930(18)
O8A O -0.0189(3) -0.8247(3) -0.33327(19)
O9A O -0.1642(3) -0.8975(3) -0.49817(18)
C1A C 0.0113(4) -0.4841(4) -0.2766(3)
H1A H 0.1024 -0.5150 -0.2559
C2A C 0.0697(4) -0.3194(4) -0.2999(3)
C3A C -0.1236(4) -0.5067(4) -0.1983(3)
H2A H -0.1090 -0.5763 -0.1548
C4A C -0.1465(4) -0.3550(4) -0.1222(3)
C5A C -0.2574(4) -0.6162(4) -0.2980(3)
H3A H -0.3135 -0.5484 -0.3182
C6A C -0.3839(4) -0.7757(4) -0.2890(3)
C7A C -0.1166(4) -0.6264(4) -0.3736(2)
H4A H -0.1275 -0.5907 -0.4386
C8A C -0.0968(4) -0.7943(4) -0.4044(3)
O10A O 0.4513(3) -0.1967(2) -0.4345(4)
O11A O -0.2168(3) -0.1606(3) -0.4367(2)
O12A O -0.1451(4) 0.0032(4) -0.1712(2)
O13A O -0.2196(3) -0.0686(3) 0.0490(2)
H5A H -0.210(6) -0.067(7) 0.1236(16)
H6A H -0.278(5) -0.182(2) 0.009(3)
H7A H -0.129(12) 0.119(3) -0.148(8)
H8A H -0.244(4) -0.090(4) -0.200(4)
H9A H -0.198(7) -0.097(6) -0.486(4)
H10A H -0.249(6) -0.271(3) -0.485(3)
H11A H 0.4637 -0.1615 -0.5020
H12A H 0.5488 -0.2060 -0.4130
H13A H 0.258(5) 0.1638(17) -0.248(4)
Cu2_2 Cu 0.01194(5) -0.95647(5) -0.66759(3)
Cu2_3 Cu 0.01194(5) 1.04353(5) 0.33241(3)
Cu2A_2 Cu -0.01194(5) -1.04353(5) -0.33241(3)
Cu2A_3 Cu -0.01194(5) 0.95647(5) 0.66759(3)
Cu3_2 Cu -0.33935(5) -0.94478(5) -0.65641(3)
Cu3_3 Cu 0.66065(5) 1.05522(5) 0.34359(3)
Cu3A_2 Cu -0.66065(5) -1.05522(5) -0.34359(3)
Cu3A_3 Cu 0.33935(5) 0.94478(5) 0.65641(3)
O5_2 O -0.6258(3) -0.1753(4) 0.2088(2)
O5A_2 O 0.6258(3) 0.1753(4) -0.2088(2)
O6_2 O -0.4979(3) -0.1446(3) 0.3695(2)
O6A_2 O 0.4979(3) 0.1446(3) -0.3695(2)
O8_2 O 0.0189(3) -0.1753(3) 0.33327(19)
O8A_2 O -0.0189(3) 0.1753(3) -0.33327(19)
O9_2 O 0.1642(3) -0.1025(3) -0.50183(18)
O9A_2 O -0.1642(3) 0.1025(3) 0.50183(18)
O14 O 0.4478(8) 0.2092(13) 0.2131(8)
O15 O 0.7275(6) 0.3256(7) 0.0356(3)
O16 O 0.6256(4) 0.5693(4) 0.1848(3)
O17 O 0.3316(5) 0.4554(4) 0.5898(3)
loop_
_geom_bond_atom_site_label_1
_geom_bond_atom_site_label_2
_geom_bond_site_symmetry_1
_geom_bond_site_symmetry_2
Cu1 O3 1_555 1_555
Cu2 O2 1_555 1_555
Cu3 O1 1_555 1_555
O1 C2 1_555 1_555
O2 C2 1_555 1_555
O3 C4 1_555 1_555
O4 C4 1_555 1_555
O5 C6 1_555 1_555
O6 C6 1_555 1_555
O7 Cu2 1_555 1_555
O8 C8 1_555 1_555
O9 C8 1_555 1_555
C1 H1 1_555 1_555
C2 C1 1_555 1_555
C3 C1 1_555 1_555
H2 C3 1_555 1_555
C4 C3 1_555 1_555
C5 C3 1_555 1_555
H3 C5 1_555 1_555
C6 C5 1_555 1_555
C7 C1 1_555 1_555
H4 C7 1_555 1_555
C8 C7 1_555 1_555
O10 Cu3 1_555 1_555
O11 Cu2 1_555 1_555
O12 Cu1 1_555 1_555
O13 Cu1 1_555 1_555
H5 O13 1_555 1_555
H6 O13 1_555 1_555
H7 O12 1_555 1_555
H8 O12 1_555 1_555
H9 O11 1_555 1_555
H10 O11 1_555 1_555
H11 O10 1_555 1_555
H12 O10 1_555 1_555
H13 O7 1_555 1_555
Cu2A O2A 1_555 1_555
Cu3A O1A 1_555 1_555
O1A C2A 1_555 1_555
O2A C2A 1_555 1_555
O3A Cu1 1_555 1_555
O4A C4A 1_555 1_555
O5A C6A 1_555 1_555
O6A C6A 1_555 1_555
O7A Cu2A 1_555 1_555
O8A C8A 1_555 1_555
O9A C8A 1_555 1_555
C1A H1A 1_555 1_555
C2A C1A 1_555 1_555
C3A C1A 1_555 1_555
H2A C3A 1_555 1_555
C4A O3A 1_555 1_555
C5A C3A 1_555 1_555
H3A C5A 1_555 1_555
C6A C5A 1_555 1_555
C7A C1A 1_555 1_555
H4A C7A 1_555 1_555
C8A C7A 1_555 1_555
O10A Cu3A 1_555 1_555
O11A Cu2A 1_555 1_555
O12A Cu1 1_555 1_555
O13A Cu1 1_555 1_555
H5A O13A 1_555 1_555
H6A O13A 1_555 1_555
H7A O12A 1_555 1_555
H8A O12A 1_555 1_555
H9A O11A 1_555 1_555
H10A O11A 1_555 1_555
H11A O10A 1_555 1_555
H12A O10A 1_555 1_555
H13A O7A 1_555 1_555
Cu2_2 O9A 1_555 1_555
Cu2_3 O8 1_555 1_555
Cu2A_2 O8A 1_555 1_555
Cu2A_3 O9 1_555 1_555
Cu3_2 O9A 1_555 1_555
Cu3_3 O5 1_555 1_555
Cu3A_2 O5A 1_555 1_555
Cu3A_3 O9 1_555 1_555
O5_2 Cu3 1_555 1_555
O5A_2 Cu3A 1_555 1_555
O6_2 Cu3 1_555 1_555
O6A_2 Cu3A 1_555 1_555
O8_2 Cu2 1_555 1_555
O8A_2 Cu2A 1_555 1_555
O9_2 Cu2A 1_555 1_555
O9A_2 Cu2 1_555 1_555
Cu2 O12 1_555 1_555
Cu3 O7 1_555 1_555
Cu3 O9A_2 1_555 1_555
O6 Cu3_3 1_555 1_555
C5 C7 1_555 1_555
Cu2A O12A 1_555 1_555
Cu3A O7A 1_555 1_555
Cu3A O9_2 1_555 1_555
O6A Cu3A_2 1_555 1_555
C3A C4A 1_555 1_555
C5A C7A 1_555 1_555

#END
