
#######################################################################
#
#                 Cambridge Crystallographic Data Centre
#                                CCDC 
#
#######################################################################
#
# If this CIF has been generated from an entry in the Cambridge 
# Structural Database, then it will include bibliographic, chemical, 
# crystal, experimental, refinement or atomic coordinate data resulting 
# from the CCDC's data processing and validation procedures.
#
#######################################################################

data_VUNMUO
_symmetry_cell_setting           triclinic
_symmetry_space_group_name_H-M   'P -1'
_symmetry_Int_Tables_number      2
_space_group_name_Hall           '-P 1'
loop_
_symmetry_equiv_pos_site_id
_symmetry_equiv_pos_as_xyz
1 x,y,z
2 -x,-y,-z
_cell_length_a                   6.2340(12)
_cell_length_b                   11.118(2)
_cell_length_c                   11.948(2)
_cell_angle_alpha                86.78(3)
_cell_angle_beta                 79.95(3)
_cell_angle_gamma                83.01(3)
_cell_volume                     808.827
loop_
_atom_site_label
_atom_site_type_symbol
_atom_site_fract_x
_atom_site_fract_y
_atom_site_fract_z
Cu1 Cu 1.4228(6) 0.5768(4) 0.0804(4)
Cu2 Cu 1.0000 0.0000 0.5000
Cu3 Cu 0.5000 0.0000 0.5000
O1 O 0.961(4) 0.080(3) 0.353(2)
O2 O 0.603(5) 0.078(3) 0.353(2)
O3 O 0.630(4) 0.485(3) 0.172(2)
O4 O 0.762(5) 0.359(3) 0.032(2)
O5 O 1.225(4) 0.454(2) 0.134(2)
O6 O 1.349(5) 0.322(3) -0.002(3)
O7 O 1.374(4) 0.050(3) 0.135(3)
H1 H 1.4482 -0.0151 0.1419
O8 O 1.105(5) -0.067(3) 0.137(3)
C1 C 0.808(6) 0.171(4) 0.197(3)
H2 H 0.6842 0.1668 0.1578
C2 C 0.790(6) 0.103(4) 0.310(3)
C3 C 0.857(5) 0.305(3) 0.211(3)
H3 H 0.8301 0.3304 0.2897
C4 C 0.743(6) 0.390(3) 0.131(3)
C5 C 1.102(5) 0.264(3) 0.164(3)
H4 H 1.1755 0.2389 0.2286
C6 C 1.233(5) 0.354(3) 0.091(3)
C7 C 1.035(6) 0.150(3) 0.119(3)
H5 H 1.0171 0.1642 0.0390
C8 C 1.177(6) 0.032(4) 0.131(3)
O9 O 1.288(4) -0.069(3) 0.430(2)
O10 O 1.264(5) 0.700(3) 0.208(2)
O11 O 1.208(6) 0.172(4) 0.526(3)
H6 H 1.32(9) -0.04(5) 0.358(18)
H7 H 1.26(14) 0.785(10) 0.20(7)
H8 H 1.31(14) 0.68(8) 0.28(3)
H9 H 1.20(11) 0.25(3) 0.48(5)
H10 H 1.22(12) 0.20(6) 0.60(3)
Cu1A Cu -0.4228(6) -0.5768(4) 0.9196(4)
O1A O 0.039(4) -0.080(3) 0.647(2)
O2A O 0.397(5) -0.078(3) 0.647(2)
O3A O 0.370(4) -0.485(3) 0.828(2)
O4A O 0.238(5) -0.359(3) 0.968(2)
O5A O -0.225(4) -0.454(2) 0.866(2)
O6A O -0.349(5) -0.322(3) 1.002(3)
O7A O -0.374(4) -0.050(3) 0.865(3)
H1A H -0.4482 0.0151 0.8581
O8A O -0.105(5) 0.067(3) 0.863(3)
C1A C 0.192(6) -0.171(4) 0.803(3)
H2A H 0.3158 -0.1668 0.8422
C2A C 0.210(6) -0.103(4) 0.690(3)
C3A C 0.143(5) -0.305(3) 0.789(3)
H3A H 0.1699 -0.3304 0.7103
C4A C 0.257(6) -0.390(3) 0.869(3)
C5A C -0.102(5) -0.264(3) 0.836(3)
H4A H -0.1755 -0.2389 0.7714
C6A C -0.233(5) -0.354(3) 0.909(3)
C7A C -0.035(6) -0.150(3) 0.881(3)
H5A H -0.0171 -0.1642 0.9610
C8A C -0.177(6) -0.032(4) 0.869(3)
O10A O -0.264(5) -0.700(3) 0.792(2)
H7A H -0.26(14) -0.785(10) 0.80(7)
H8A H -0.31(14) -0.68(8) 0.72(3)
O11A O 0.792(6) -0.172(4) 0.474(3)
H9A H 0.80(11) -0.25(3) 0.52(5)
H10A H 0.78(12) -0.20(6) 0.40(3)
O9A O 0.712(4) 0.069(3) 0.570(2)
H6A H 0.68(9) 0.04(5) 0.642(18)
Cu1_2 Cu -0.5772(6) -0.4232(4) 1.0804(4)
Cu1_3 Cu 0.4228(6) -0.4232(4) 1.0804(4)
Cu1_4 Cu 0.4228(6) 0.5768(4) 0.0804(4)
Cu1A_2 Cu 0.5772(6) -0.5768(4) 0.9196(4)
Cu1A_3 Cu 0.5772(6) 0.4232(4) -0.0804(4)
Cu1A_4 Cu 1.5772(6) 0.4232(4) -0.0804(4)
Cu2_2 Cu 0.0000 0.0000 0.5000
Cu3_2 Cu 1.5000 0.0000 0.5000
O1A_2 O 1.039(4) -0.080(3) 0.647(2)
O3_2 O 1.630(4) 0.485(3) 0.172(2)
O3A_2 O -0.630(4) -0.485(3) 0.828(2)
O4_2 O -0.238(5) -0.641(3) 1.032(2)
O4A_2 O 1.238(5) 0.641(3) -0.032(2)
O6_2 O -0.651(5) -0.678(3) 0.998(3)
O6A_2 O 1.651(5) 0.678(3) 0.002(3)
O9_2 O 0.288(4) -0.069(3) 0.430(2)
O11_2 O 0.208(6) 0.172(4) 0.526(3)
O12 O 1.67(2) -0.382(10) 0.611(10)
O13 O 0.97(2) 0.448(14) 0.462(10)
O14 O 1.347(13) -0.311(5) 0.431(7)
O15 O 1.664(5) -0.140(3) 0.150(3)
O16 O 0.846(9) -0.359(8) 0.300(6)
loop_
_geom_bond_atom_site_label_1
_geom_bond_atom_site_label_2
_geom_bond_site_symmetry_1
_geom_bond_site_symmetry_2
Cu1 O5 1_555 1_555
Cu2 O1 1_555 1_555
Cu3 O2 1_555 1_555
O1 C2 1_555 1_555
O2 C2 1_555 1_555
O3 C4 1_555 1_555
O4 C4 1_555 1_555
O5 C6 1_555 1_555
O6 C6 1_555 1_555
O7 H1 1_555 1_555
O8 C8 1_555 1_555
C1 H2 1_555 1_555
C2 C1 1_555 1_555
C3 C1 1_555 1_555
H3 C3 1_555 1_555
C4 C3 1_555 1_555
C5 C3 1_555 1_555
H4 C5 1_555 1_555
C6 C5 1_555 1_555
C7 C1 1_555 1_555
H5 C7 1_555 1_555
C8 O7 1_555 1_555
O9 Cu2 1_555 1_555
O10 Cu1 1_555 1_555
O11 Cu2 1_555 1_555
H6 O9 1_555 1_555
H7 O10 1_555 1_555
H8 O10 1_555 1_555
H9 O11 1_555 1_555
H10 O11 1_555 1_555
Cu1A O5A 1_555 1_555
O1A C2A 1_555 1_555
O2A Cu3 1_555 1_555
O3A C4A 1_555 1_555
O4A C4A 1_555 1_555
O5A C6A 1_555 1_555
O6A C6A 1_555 1_555
O7A H1A 1_555 1_555
O8A C8A 1_555 1_555
C1A H2A 1_555 1_555
C2A O2A 1_555 1_555
C3A C1A 1_555 1_555
H3A C3A 1_555 1_555
C4A C3A 1_555 1_555
C5A C3A 1_555 1_555
H4A C5A 1_555 1_555
C6A C5A 1_555 1_555
C7A C1A 1_555 1_555
H5A C7A 1_555 1_555
C8A O7A 1_555 1_555
O10A Cu1A 1_555 1_555
H7A O10A 1_555 1_555
H8A O10A 1_555 1_555
O11A Cu2 1_555 1_555
H9A O11A 1_555 1_555
H10A O11A 1_555 1_555
O9A Cu2 1_555 1_555
H6A O9A 1_555 1_555
Cu1_2 Cu1A 1_555 1_555
Cu1_3 O4A 1_555 1_555
Cu1_4 O3 1_555 1_555
Cu1A_2 O3A 1_555 1_555
Cu1A_3 O4 1_555 1_555
Cu1A_4 Cu1 1_555 1_555
Cu2_2 O1A 1_555 1_555
Cu3_2 O9 1_555 1_555
O1A_2 Cu2 1_555 1_555
O3_2 Cu1 1_555 1_555
O3A_2 Cu1A 1_555 1_555
O4_2 Cu1A 1_555 1_555
O4A_2 Cu1 1_555 1_555
O6_2 Cu1A 1_555 1_555
O6A_2 Cu1 1_555 1_555
O9_2 Cu3 1_555 1_555
O11_2 Cu3 1_555 1_555
Cu3 O11A 1_555 1_555
Cu3 O9A 1_555 1_555
O6 Cu1A_4 1_555 1_555
C5 C7 1_555 1_555
C7 C8 1_555 1_555
O11 Cu3_2 1_555 1_555
O6A Cu1_2 1_555 1_555
C1A C2A 1_555 1_555
C5A C7A 1_555 1_555
C7A C8A 1_555 1_555
Cu1_3 Cu1A_2 1_555 1_555
Cu1_4 Cu1A_3 1_555 1_555
Cu2_2 O9_2 1_555 1_555
Cu2_2 O11_2 1_555 1_555

#END
