
#######################################################################
#
#                 Cambridge Crystallographic Data Centre
#                                CCDC 
#
#######################################################################
#
# If this CIF has been generated from an entry in the Cambridge 
# Structural Database, then it will include bibliographic, chemical, 
# crystal, experimental, refinement or atomic coordinate data resulting 
# from the CCDC's data processing and validation procedures.
#
#######################################################################

data_VUNNID
_symmetry_cell_setting           triclinic
_symmetry_space_group_name_H-M   'P -1'
_symmetry_Int_Tables_number      2
_space_group_name_Hall           '-P 1'
loop_
_symmetry_equiv_pos_site_id
_symmetry_equiv_pos_as_xyz
1 x,y,z
2 -x,-y,-z
_cell_length_a                   8.0007(8)
_cell_length_b                   11.0476(9)
_cell_length_c                   14.0408(11)
_cell_angle_alpha                110.768(8)
_cell_angle_beta                 96.370(8)
_cell_angle_gamma                97.671(7)
_cell_volume                     1133.12
loop_
_atom_site_label
_atom_site_type_symbol
_atom_site_fract_x
_atom_site_fract_y
_atom_site_fract_z
O19 O 0.3395(6) 1.1392(5) 0.4639(4)
O20 O 0.4195(9) 1.5343(7) 0.5555(6)
O21 O -0.3887(9) 0.6838(8) -0.0360(6)
O22 O 0.0393(12) 0.5097(10) -0.0502(8)
O22A O -0.0393(12) 0.4903(10) 0.0502(8)
Cu1 Cu 0.61735(8) 0.63031(6) 0.23110(5)
Cu2 Cu 0.71096(8) 0.94243(6) 0.26347(5)
Cu3 Cu 0.76720(8) 1.22854(6) 0.25432(5)
Cu4 Cu 0.16483(8) 1.28362(6) 0.24884(5)
O1 O 0.2843(7) 0.6225(5) 0.1080(6)
O2 O 0.5176(4) 0.7650(3) 0.1939(3)
O3 O 0.6049(4) 1.0612(3) 0.2091(2)
O4 O 0.4202(5) 1.1928(3) 0.2096(3)
O5 O -0.1352(4) 0.9163(3) 0.1570(3)
O6 O 0.0110(4) 1.1206(3) 0.2395(3)
O7 O -0.0630(4) 0.7504(3) -0.1066(3)
O8 O 0.2190(4) 0.7923(4) -0.1114(3)
O9 O 1.0614(5) 0.9477(4) 0.3686(4)
O10 O 0.8035(4) 0.8195(3) 0.3155(3)
O11 O 0.7289(4) 0.5022(3) 0.2698(3)
O12 O 0.9258(4) 0.3946(3) 0.3025(3)
O13 O 1.3139(4) 0.4475(3) 0.2572(3)
O14 O 1.4682(4) 0.6485(3) 0.3340(3)
O15 O 1.2467(4) 0.7423(3) 0.6017(2)
O16 O 1.2951(5) 0.9441(3) 0.5949(3)
C1 C 0.3196(6) 0.8343(4) 0.0975(4)
H1 H 0.3946 0.8487 0.0503
C2 C 0.3718(7) 0.7313(5) 0.1343(4)
C3 C 0.3081(6) 0.9688(4) 0.1806(3)
H2 H 0.2874 0.9589 0.2452
C4 C 0.4472(6) 1.0826(5) 0.2011(4)
C5 C 0.1369(5) 0.9666(4) 0.1143(3)
H3 H 0.1562 1.0205 0.0727
C6 C -0.0074(6) 1.0028(5) 0.1740(4)
C7 C 0.1316(6) 0.8184(4) 0.0493(3)
H4 H 0.0548 0.7607 0.0715
C8 C 0.0942(6) 0.7816(4) -0.0665(3)
C9 C 1.0170(5) 0.7462(4) 0.3982(3)
H5 H 0.9480 0.7348 0.4489
C10 C 0.9636(6) 0.8487(4) 0.3600(4)
C11 C 1.0250(5) 0.6108(4) 0.3154(3)
H6 H 1.0452 0.6206 0.2507
C12 C 0.8827(6) 0.4964(4) 0.2942(3)
C13 C 1.1969(5) 0.6124(4) 0.3802(3)
H7 H 1.1768 0.5646 0.4260
C14 C 1.3351(6) 0.5652(4) 0.3196(3)
C15 C 1.2111(6) 0.7620(4) 0.4390(3)
H8 H 1.2812 0.8124 0.4078
C16 C 1.2571(6) 0.8208(4) 0.5547(4)
O17 O 0.2497(5) 1.3170(4) 0.3943(3)
O18 O 0.7079(7) 0.5809(5) 0.1020(4)
Cu1_2 Cu 1.61735(8) 0.63031(6) 0.23110(5)
Cu2_2 Cu -0.28904(8) 0.94243(6) 0.26347(5)
Cu2A Cu 1.28904(8) 1.05757(6) 0.73653(5)
Cu3_2 Cu -0.23280(8) 1.22854(6) 0.25432(5)
Cu3_3 Cu 0.76720(8) 0.22854(6) 0.25432(5)
Cu3A Cu 0.23280(8) 0.77146(6) -0.25432(5)
Cu3A_2 Cu 1.23280(8) 0.77146(6) 0.74568(5)
Cu4_2 Cu 1.16483(8) 0.28362(6) 0.24884(5)
Cu4A Cu -0.16483(8) 0.71638(6) -0.24884(5)
O5_2 O 0.8648(4) 0.9163(3) 0.1570(3)
O6_2 O 1.0110(4) 1.1206(3) 0.2395(3)
O7A O 0.0630(4) 1.2496(3) 0.1066(3)
O8A O 0.7810(4) 1.2077(4) 0.1114(3)
O12_2 O -0.0742(4) 1.3946(3) 0.3025(3)
O12_3 O 0.9258(4) 1.3946(3) 0.3025(3)
O13_2 O 0.3139(4) 1.4475(3) 0.2572(3)
O14_2 O 0.4682(4) 0.6485(3) 0.3340(3)
O15A O 0.7533(4) 1.2577(3) 0.3983(2)
O16A O 0.7049(5) 1.0559(3) 0.4051(3)
loop_
_geom_bond_atom_site_label_1
_geom_bond_atom_site_label_2
_geom_bond_site_symmetry_1
_geom_bond_site_symmetry_2
Cu1 O2 1_555 1_555
Cu2 O2 1_555 1_555
Cu3 O3 1_555 1_555
Cu4 O4 1_555 1_555
O1 C2 1_555 1_555
O2 C2 1_555 1_555
O3 Cu2 1_555 1_555
O4 Cu3 1_555 1_555
O5 C6 1_555 1_555
O6 Cu4 1_555 1_555
O7 C8 1_555 1_555
O8 C8 1_555 1_555
O9 C10 1_555 1_555
O10 Cu1 1_555 1_555
O11 Cu1 1_555 1_555
O12 C12 1_555 1_555
O13 C14 1_555 1_555
O14 C14 1_555 1_555
O15 C16 1_555 1_555
O16 C16 1_555 1_555
C1 H1 1_555 1_555
C2 C1 1_555 1_555
C3 C1 1_555 1_555
H2 C3 1_555 1_555
C4 O3 1_555 1_555
C5 C3 1_555 1_555
H3 C5 1_555 1_555
C6 O6 1_555 1_555
C7 C1 1_555 1_555
H4 C7 1_555 1_555
C8 C7 1_555 1_555
C9 H5 1_555 1_555
C10 O10 1_555 1_555
C11 C9 1_555 1_555
H6 C11 1_555 1_555
C12 O11 1_555 1_555
C13 C11 1_555 1_555
H7 C13 1_555 1_555
C14 C13 1_555 1_555
C15 C9 1_555 1_555
H8 C15 1_555 1_555
C16 C15 1_555 1_555
O17 Cu4 1_555 1_555
O18 Cu1 1_555 1_555
O22 O22A 1_555 1_555
Cu1_2 O14 1_555 1_555
Cu2_2 O5 1_555 1_555
Cu2A O16 1_555 1_555
Cu3_2 O6 1_555 1_555
Cu3_3 O12 1_555 1_555
Cu3A O8 1_555 1_555
Cu3A_2 O15 1_555 1_555
Cu4_2 O12 1_555 1_555
Cu4A O7 1_555 1_555
O5_2 Cu2 1_555 1_555
O6_2 Cu3 1_555 1_555
O7A Cu4 1_555 1_555
O8A Cu3 1_555 1_555
O12_2 Cu4 1_555 1_555
O12_3 Cu3 1_555 1_555
O13_2 Cu4 1_555 1_555
O14_2 Cu1 1_555 1_555
O15A Cu3 1_555 1_555
O16A Cu2 1_555 1_555
Cu2 O10 1_555 1_555
O4 C4 1_555 1_555
O13 Cu4_2 1_555 1_555
C3 C4 1_555 1_555
C5 C6 1_555 1_555
C5 C7 1_555 1_555
C9 C10 1_555 1_555
C11 C12 1_555 1_555
C13 C15 1_555 1_555
Cu3_2 O12_2 1_555 1_555

#END
