
#######################################################################
#
#                 Cambridge Crystallographic Data Centre
#                                CCDC 
#
#######################################################################
#
# If this CIF has been generated from an entry in the Cambridge 
# Structural Database, then it will include bibliographic, chemical, 
# crystal, experimental, refinement or atomic coordinate data resulting 
# from the CCDC's data processing and validation procedures.
#
#######################################################################

data_VUNNAV
_symmetry_cell_setting           orthorhombic
_symmetry_space_group_name_H-M   'P c c n'
_symmetry_Int_Tables_number      56
_space_group_name_Hall           '-P 2ab 2ac'
loop_
_symmetry_equiv_pos_site_id
_symmetry_equiv_pos_as_xyz
1 x,y,z
2 1/2-x,1/2-y,z
3 1/2+x,-y,1/2-z
4 -x,1/2+y,1/2-z
5 -x,-y,-z
6 1/2+x,1/2+y,-z
7 1/2-x,y,1/2+z
8 x,1/2-y,1/2+z
_cell_length_a                   7.9815(5)
_cell_length_b                   14.4504(6)
_cell_length_c                   10.2757(6)
_cell_angle_alpha                90
_cell_angle_beta                 90
_cell_angle_gamma                90
_cell_volume                     1185.16
loop_
_atom_site_label
_atom_site_type_symbol
_atom_site_fract_x
_atom_site_fract_y
_atom_site_fract_z
Cu1 Cu 0.11228(8) 0.56071(4) 0.10614(6)
O1 O 0.3987(5) 0.4163(3) 0.0482(4)
O2 O 0.1313(4) 0.4460(2) 0.0067(3)
O3 O 0.5339(5) 0.3065(2) -0.2860(3)
O4 O 0.6002(4) 0.1659(2) -0.2193(3)
C1 C 0.2585(6) 0.3252(3) -0.1103(4)
H1 H 0.2613 0.3519 -0.1979
C2 C 0.2677(6) 0.4016(3) -0.0094(4)
C3 C 0.3879(5) 0.2464(3) -0.1000(4)
H2 H 0.4412 0.2448 -0.0141
C4 C 0.5159(6) 0.2404(3) -0.2088(4)
O5 O 0.0250(7) 0.4871(3) 0.2515(4)
O6 O 0.2493(6) 0.6319(3) -0.0206(3)
O1A O 0.1013(5) 0.0837(3) 0.0482(4)
O2A O 0.3687(4) 0.0540(2) 0.0067(3)
O3A O -0.0339(5) 0.1935(2) -0.2860(3)
O4A O -0.1002(4) 0.3341(2) -0.2193(3)
C1A C 0.2415(6) 0.1748(3) -0.1103(4)
H1A H 0.2387 0.1481 -0.1979
C2A C 0.2323(6) 0.0984(3) -0.0094(4)
C3A C 0.1121(5) 0.2536(3) -0.1000(4)
H2A H 0.0588 0.2552 -0.0141
C4A C -0.0159(6) 0.2596(3) -0.2088(4)
Cu1A Cu 0.38772(8) -0.06071(4) 0.10614(6)
O5A O 0.4750(7) 0.0129(3) 0.2515(4)
O6A O 0.2507(6) -0.1319(3) -0.0206(3)
Cu1D Cu -0.11228(8) 0.43929(4) -0.10614(6)
Cu1E Cu 0.61228(8) 0.06071(4) -0.10614(6)
O2D O -0.1313(4) 0.5540(2) -0.0067(3)
O2E O 0.6313(4) -0.0540(2) -0.0067(3)
O4D O 0.3998(4) -0.1659(2) 0.2193(3)
O4E O 0.1002(4) 0.6659(2) 0.2193(3)
loop_
_geom_bond_atom_site_label_1
_geom_bond_atom_site_label_2
_geom_bond_site_symmetry_1
_geom_bond_site_symmetry_2
Cu1 O2 1_555 1_555
O1 C2 1_555 1_555
O2 C2 1_555 1_555
O3 C4 1_555 1_555
O4 C4 1_555 1_555
C1 H1 1_555 1_555
C2 C1 1_555 1_555
C3 C1 1_555 1_555
H2 C3 1_555 1_555
C4 C3 1_555 1_555
O5 Cu1 1_555 1_555
O6 Cu1 1_555 1_555
O1A C2A 1_555 1_555
O2A C2A 1_555 1_555
O3A C4A 1_555 1_555
O4A C4A 1_555 1_555
C1A C3 1_555 1_555
H1A C1A 1_555 1_555
C2A C1A 1_555 1_555
C3A C1 1_555 1_555
H2A C3A 1_555 1_555
C4A C3A 1_555 1_555
Cu1A O2A 1_555 1_555
O5A Cu1A 1_555 1_555
O6A Cu1A 1_555 1_555
Cu1D O2 1_555 1_555
Cu1E O4 1_555 1_555
O2D Cu1 1_555 1_555
O2E Cu1A 1_555 1_555
O4D Cu1A 1_555 1_555
O4E Cu1 1_555 1_555
O2A Cu1E 1_555 1_555
O4A Cu1D 1_555 1_555
C1A C3A 1_555 1_555
Cu1D O2D 1_555 1_555
Cu1E O2E 1_555 1_555

#END
