
#######################################################################
#
#                 Cambridge Crystallographic Data Centre
#                                CCDC 
#
#######################################################################
#
# If this CIF has been generated from an entry in the Cambridge 
# Structural Database, then it will include bibliographic, chemical, 
# crystal, experimental, refinement or atomic coordinate data resulting 
# from the CCDC's data processing and validation procedures.
#
#######################################################################

data_VUNNOI
_symmetry_cell_setting           triclinic
_symmetry_space_group_name_H-M   'P -1'
_symmetry_Int_Tables_number      2
_space_group_name_Hall           '-P 1'
loop_
_symmetry_equiv_pos_site_id
_symmetry_equiv_pos_as_xyz
1 x,y,z
2 -x,-y,-z
_cell_length_a                   8.5850(5)
_cell_length_b                   8.9606(5)
_cell_length_c                   11.9532(7)
_cell_angle_alpha                70.215(5)
_cell_angle_beta                 76.919(5)
_cell_angle_gamma                69.639(5)
_cell_volume                     805.015
loop_
_atom_site_label
_atom_site_type_symbol
_atom_site_fract_x
_atom_site_fract_y
_atom_site_fract_z
Cu1 Cu 0.0000 0.5000 0.5000
N1 N 0.26520(18) -0.35909(18) 1.16764(12)
N2 N 0.31398(18) -0.12595(18) 0.84104(12)
N3 N 0.45139(18) 0.14158(18) 0.68510(12)
N4 N -0.07648(19) -0.10649(19) 0.62971(14)
N5 N 0.09113(18) -0.16463(17) 0.62496(12)
N6 N 0.51791(19) 0.1658(2) 0.56908(13)
N7 N 0.26386(19) 0.33399(19) 0.58036(13)
N8 N 0.13444(18) -0.41554(17) 1.34399(12)
N9 N 0.40565(19) 0.2812(2) 0.50673(13)
C1 C 0.2699(2) -0.1536(2) 0.96978(15)
C2 C 0.5372(2) 0.0077(2) 0.78111(17)
N10 N 0.3195(2) -0.2963(2) 1.23399(15)
N12 N 0.01313(17) -0.32146(17) 0.56278(12)
N13 N -0.12333(18) -0.20153(18) 0.59197(13)
C3 C 0.4930(2) -0.1493(2) 0.79997(16)
N14 N 0.2399(2) -0.3304(2) 1.33984(14)
C4 C 0.3265(2) -0.3364(2) 1.04065(15)
C5 C 0.2967(2) 0.2443(2) 0.68979(17)
C6 C 0.1838(3) -0.0921(2) 0.67099(16)
C7 C 0.1443(2) -0.2948(2) 0.58362(15)
C8 C 0.2355(3) -0.2050(2) 0.79127(16)
C9 C 0.1538(2) -0.4332(2) 1.23688(15)
H1 H 0.500(2) 0.044(2) 0.8488(18)
H2 H 0.647(3) -0.006(2) 0.7577(16)
H3 H 0.255(2) -0.354(2) 0.5709(16)
H4 H 0.521(2) -0.172(2) 0.7225(17)
H5 H 0.111(2) 0.011(3) 0.6768(17)
H6 H 0.276(2) -0.078(2) 0.6146(17)
H7 H 0.233(2) 0.250(2) 0.7529(18)
H8 H 0.304(2) -0.308(2) 0.7820(16)
H9 H 0.568(2) -0.242(2) 0.8554(17)
H10 H 0.132(2) -0.223(2) 0.8399(18)
H11 H 0.283(2) -0.403(2) 1.0160(15)
H12 H 0.321(2) -0.095(2) 0.9955(15)
H13 H 0.155(3) -0.112(2) 0.9889(16)
H14 H 0.444(2) -0.375(2) 1.0352(15)
H15 H 0.102(2) -0.487(2) 1.2104(18)
Cu1_2 Cu 0.0000 -0.5000 1.5000
Cu1_3 Cu 0.0000 -0.5000 0.5000
Cu1_4 Cu 0.0000 1.5000 -0.5000
Cu1_5 Cu 0.0000 1.5000 0.5000
N1A N -0.26520(18) 1.35909(18) -0.16764(12)
N2A N -0.31398(18) 1.12595(18) 0.15896(12)
N3A N -0.45139(18) 0.85842(18) 0.31490(12)
N4A N 0.07648(19) 1.10649(19) 0.37029(14)
N5A N -0.09113(18) 1.16463(17) 0.37504(12)
N6A N -0.51791(19) 0.8342(2) 0.43092(13)
N7A N -0.26386(19) 0.66601(19) 0.41964(13)
N8A N -0.13444(18) 1.41554(17) -0.34399(12)
N8_2 N 0.13444(18) 0.58446(17) 0.34399(12)
N8A_2 N -0.13444(18) 0.41554(17) 0.65601(12)
N9A N -0.40565(19) 0.7188(2) 0.49327(13)
C1A C -0.2699(2) 1.1536(2) 0.03022(15)
C2A C -0.5372(2) 0.9923(2) 0.21889(17)
N10A N -0.3195(2) 1.2963(2) -0.23399(15)
N12A N -0.01313(17) 1.32146(17) 0.43722(12)
N12_2 N 0.01313(17) 0.67854(17) 0.56278(12)
N12A_2 N -0.01313(17) 0.32146(17) 0.43722(12)
N13A N 0.12333(18) 1.20153(18) 0.40803(13)
C3A C -0.4930(2) 1.1493(2) 0.20003(16)
N14A N -0.2399(2) 1.3304(2) -0.33984(14)
C4A C -0.3265(2) 1.3364(2) -0.04065(15)
C5A C -0.2967(2) 0.7557(2) 0.31021(17)
C6A C -0.1838(3) 1.0921(2) 0.32901(16)
C7A C -0.1443(2) 1.2948(2) 0.41638(15)
C8A C -0.2355(3) 1.2050(2) 0.20873(16)
C9A C -0.1538(2) 1.4332(2) -0.23688(15)
H1A H -0.500(2) 0.956(2) 0.1512(18)
H2A H -0.647(3) 1.006(2) 0.2423(16)
H3A H -0.255(2) 1.354(2) 0.4291(16)
H4A H -0.521(2) 1.172(2) 0.2775(17)
H5A H -0.111(2) 0.989(3) 0.3232(17)
H6A H -0.276(2) 1.078(2) 0.3854(17)
H7A H -0.233(2) 0.750(2) 0.2471(18)
H8A H -0.304(2) 1.308(2) 0.2180(16)
H9A H -0.568(2) 1.242(2) 0.1446(17)
H10A H -0.132(2) 1.223(2) 0.1601(18)
H11A H -0.283(2) 1.403(2) -0.0160(15)
H12A H -0.321(2) 1.095(2) 0.0045(15)
H13A H -0.155(3) 1.112(2) 0.0111(16)
H14A H -0.444(2) 1.375(2) -0.0352(15)
H15A H -0.102(2) 1.487(2) -0.2104(18)
O1 O 0.08296(17) 0.26120(18) 0.95247(13)
O2 O 0.12256(19) 0.3342(2) 1.09631(13)
N11 N 0.1673(2) 0.3120(2) 0.99546(15)
O3 O 0.2969(2) 0.3426(3) 0.93590(16)
loop_
_geom_bond_atom_site_label_1
_geom_bond_atom_site_label_2
_geom_bond_site_symmetry_1
_geom_bond_site_symmetry_2
Cu1 N7 1_555 1_555
O1 N11 1_555 1_555
N1 N10 1_555 1_555
N2 C1 1_555 1_555
N3 N6 1_555 1_555
N4 N5 1_555 1_555
N5 C6 1_555 1_555
N6 N9 1_555 1_555
O2 N11 1_555 1_555
N7 N9 1_555 1_555
N8 N14 1_555 1_555
C1 C4 1_555 1_555
C2 N3 1_555 1_555
N10 N14 1_555 1_555
N11 O3 1_555 1_555
N12 N13 1_555 1_555
N13 N4 1_555 1_555
C3 N2 1_555 1_555
C4 N1 1_555 1_555
C5 N3 1_555 1_555
C6 C8 1_555 1_555
C7 N5 1_555 1_555
C8 N2 1_555 1_555
C9 N1 1_555 1_555
H1 C2 1_555 1_555
H2 C2 1_555 1_555
H3 C7 1_555 1_555
H4 C3 1_555 1_555
H5 C6 1_555 1_555
H6 C6 1_555 1_555
H7 C5 1_555 1_555
H8 C8 1_555 1_555
H9 C3 1_555 1_555
H10 C8 1_555 1_555
H11 C4 1_555 1_555
H12 C1 1_555 1_555
H13 C1 1_555 1_555
H14 C4 1_555 1_555
H15 C9 1_555 1_555
Cu1_2 N8 1_555 1_555
Cu1_3 N12 1_555 1_555
Cu1_4 N8A 1_555 1_555
Cu1_5 N12A 1_555 1_555
N1A N10A 1_555 1_555
N2A C1A 1_555 1_555
N3A N6A 1_555 1_555
N4A N5A 1_555 1_555
N5A C6A 1_555 1_555
N6A N9A 1_555 1_555
N7A Cu1 1_555 1_555
N8A N14A 1_555 1_555
N8_2 Cu1 1_555 1_555
N8A_2 Cu1 1_555 1_555
N9A N7A 1_555 1_555
C1A C4A 1_555 1_555
C2A N3A 1_555 1_555
N10A N14A 1_555 1_555
N12A N13A 1_555 1_555
N12_2 Cu1 1_555 1_555
N12A_2 Cu1 1_555 1_555
N13A N4A 1_555 1_555
C3A N2A 1_555 1_555
C4A N1A 1_555 1_555
C5A N3A 1_555 1_555
C6A C8A 1_555 1_555
C7A N5A 1_555 1_555
C8A N2A 1_555 1_555
C9A N1A 1_555 1_555
H1A C2A 1_555 1_555
H2A C2A 1_555 1_555
H3A C7A 1_555 1_555
H4A C3A 1_555 1_555
H5A C6A 1_555 1_555
H6A C6A 1_555 1_555
H7A C5A 1_555 1_555
H8A C8A 1_555 1_555
H9A C3A 1_555 1_555
H10A C8A 1_555 1_555
H11A C4A 1_555 1_555
H12A C1A 1_555 1_555
H13A C1A 1_555 1_555
H14A C4A 1_555 1_555
H15A C9A 1_555 1_555
N7 C5 1_555 1_555
N8 C9 1_555 1_555
C2 C3 1_555 1_555
N12 C7 1_555 1_555
N7A C5A 1_555 1_555
N8A C9A 1_555 1_555
C2A C3A 1_555 1_555
N12A C7A 1_555 1_555

#END
