
#######################################################################
#
#                 Cambridge Crystallographic Data Centre
#                                CCDC 
#
#######################################################################
#
# If this CIF has been generated from an entry in the Cambridge 
# Structural Database, then it will include bibliographic, chemical, 
# crystal, experimental, refinement or atomic coordinate data resulting 
# from the CCDC's data processing and validation procedures.
#
#######################################################################

data_VUNNUP
_symmetry_cell_setting           triclinic
_symmetry_space_group_name_H-M   'P -1'
_symmetry_Int_Tables_number      2
_space_group_name_Hall           '-P 1'
loop_
_symmetry_equiv_pos_site_id
_symmetry_equiv_pos_as_xyz
1 x,y,z
2 -x,-y,-z
_cell_length_a                   9.979(2)
_cell_length_b                   11.477(3)
_cell_length_c                   13.994(4)
_cell_angle_alpha                96.837(11)
_cell_angle_beta                 110.401(7)
_cell_angle_gamma                102.488(8)
_cell_volume                     1433.17
loop_
_atom_site_label
_atom_site_type_symbol
_atom_site_fract_x
_atom_site_fract_y
_atom_site_fract_z
Cd1 Cd 0.5000 1.0000 0.5000
Cd2 Cd 0.36024(3) 0.77186(3) 0.27015(2)
O1 O 0.3006(4) 0.8309(3) 0.4079(3)
O2 O 0.0947(4) 0.7761(4) 0.2662(3)
O3 O 0.3748(5) 0.9362(4) 0.2006(3)
O4 O 0.4805(5) 1.0671(4) 0.3539(3)
O5 O -0.3918(4) 0.7854(4) 0.3103(3)
O6 O -0.3701(5) 0.8719(5) 0.4667(4)
O7 O 0.6419(7) 1.5096(4) 0.3647(4)
O8 O 0.6043(6) 1.5709(4) 0.2143(4)
N1 N 0.2563(5) 0.6460(4) 0.1046(3)
N2 N 0.3030(5) 0.5702(4) 0.2891(3)
C1 C 0.1582(5) 0.8093(4) 0.3617(4)
C2 C 0.0720(5) 0.8230(4) 0.4300(4)
C3 C -0.0794(5) 0.8159(4) 0.3848(4)
H1 H -0.1290 0.7977 0.3127
C4 C 0.1438(5) 0.8459(4) 0.5375(4)
H2 H 0.2439 0.8483 0.5666
C5 C 0.0693(6) 0.8652(5) 0.6027(4)
C6 C 0.2406(5) 0.4852(5) 0.1988(4)
C7 C 0.2171(5) 0.5253(5) 0.1015(4)
C8 C 0.4379(5) 1.0405(5) 0.2571(4)
C9 C -0.3164(5) 0.8325(4) 0.4058(4)
C10 C -0.1545(5) 0.8363(4) 0.4493(4)
C11 C -0.0794(5) 0.8634(4) 0.5566(4)
H3 H -0.1296 0.8807 0.5989
C12 C 0.1487(8) 0.8918(9) 0.7194(5)
H4 H 0.2498 0.8891 0.7368
H5 H 0.0995 0.8317 0.7474
H6 H 0.1476 0.9715 0.7486
C13 C 0.2891(9) 0.4071(7) 0.3815(6)
H7 H 0.3072 0.3833 0.4451
C14 C 0.1353(7) 0.2742(6) 0.0986(7)
H8 H 0.1102 0.1910 0.0974
C15 C 0.1091(7) 0.3111(6) 0.0071(6)
H9 H 0.0629 0.2535 -0.0554
C16 C 0.3261(8) 0.5326(6) 0.3782(5)
H10 H 0.3679 0.5906 0.4405
C17 C 0.1713(7) 0.6030(7) -0.0817(4)
H11 H 0.1582 0.6326 -0.1424
C18 C 0.4167(6) 1.1223(5) 0.0946(4)
H12 H 0.3742 1.0423 0.0565
C19 C 0.4333(7) 1.2167(6) 0.0424(4)
C20 C 0.5448(6) 1.3584(5) 0.2087(4)
C21 C 0.4627(5) 1.1454(5) 0.2033(4)
C22 C 0.1304(7) 0.4822(7) -0.0864(5)
H13 H 0.0879 0.4278 -0.1507
C23 C 0.1994(6) 0.3577(5) 0.1962(5)
C24 C 0.1518(6) 0.4380(5) 0.0058(4)
C25 C 0.5274(6) 1.2625(5) 0.2601(4)
H14 H 0.5596 1.2782 0.3324
C26 C 0.2341(6) 0.6839(6) 0.0159(4)
H15 H 0.2611 0.7674 0.0185
C27 C 0.2273(8) 0.3225(7) 0.2914(7)
H16 H 0.2033 0.2400 0.2929
C28 C 0.6047(6) 1.4860(5) 0.2713(5)
C29 C 0.4970(6) 1.3339(5) 0.1008(4)
H17 H 0.5085 1.3984 0.0672
C30 C 0.3769(10) 1.1906(7) -0.0760(5)
H18 H 0.3983 1.2656 -0.0987
H19 H 0.2714 1.1535 -0.1050
H20 H 0.4255 1.1361 -0.0990
Cd2A Cd -0.36024(3) 1.22814(3) 0.72985(2)
O1A O -0.3006(4) 1.1691(3) 0.5921(3)
O2A O -0.0947(4) 1.2239(4) 0.7338(3)
O3A O -0.3748(5) 1.0638(4) 0.7994(3)
O4A O -0.4805(5) 0.9329(4) 0.6461(3)
O5A O 0.3918(4) 1.2146(4) 0.6897(3)
O6A O 0.3701(5) 1.1281(5) 0.5333(4)
O7A O -0.6419(7) 0.4904(4) 0.6353(4)
O8A O -0.6043(6) 0.4291(4) 0.7857(4)
N1A N -0.2563(5) 1.3540(4) 0.8954(3)
N2A N -0.3030(5) 1.4298(4) 0.7109(3)
C1A C -0.1582(5) 1.1907(4) 0.6383(4)
C2A C -0.0720(5) 1.1770(4) 0.5700(4)
C3A C 0.0794(5) 1.1841(4) 0.6152(4)
H1A H 0.1290 1.2023 0.6873
C4A C -0.1438(5) 1.1541(4) 0.4625(4)
H2A H -0.2439 1.1517 0.4334
C5A C -0.0693(6) 1.1348(5) 0.3973(4)
C6A C -0.2406(5) 1.5148(5) 0.8012(4)
C7A C -0.2171(5) 1.4747(5) 0.8985(4)
C8A C -0.4379(5) 0.9595(5) 0.7429(4)
C9A C 0.3164(5) 1.1675(4) 0.5942(4)
C10A C 0.1545(5) 1.1637(4) 0.5507(4)
C11A C 0.0794(5) 1.1366(4) 0.4434(4)
H3A H 0.1296 1.1193 0.4011
C12A C -0.1487(8) 1.1082(9) 0.2806(5)
H4A H -0.2498 1.1109 0.2632
H5A H -0.0995 1.1683 0.2526
H6A H -0.1476 1.0285 0.2514
C13A C -0.2891(9) 1.5929(7) 0.6185(6)
H7A H -0.3072 1.6167 0.5549
C14A C -0.1353(7) 1.7258(6) 0.9014(7)
H8A H -0.1102 1.8090 0.9026
C15A C -0.1091(7) 1.6889(6) 0.9929(6)
H9A H -0.0629 1.7465 1.0554
C16A C -0.3261(8) 1.4674(6) 0.6218(5)
H10A H -0.3679 1.4094 0.5595
C17A C -0.1713(7) 1.3970(7) 1.0817(4)
H11A H -0.1582 1.3674 1.1424
C18A C -0.4167(6) 0.8777(5) 0.9054(4)
H12A H -0.3742 0.9577 0.9435
C19A C -0.4333(7) 0.7833(6) 0.9576(4)
C20A C -0.5448(6) 0.6416(5) 0.7913(4)
C21A C -0.4627(5) 0.8546(5) 0.7967(4)
C22A C -0.1304(7) 1.5178(7) 1.0864(5)
H13A H -0.0879 1.5722 1.1507
C23A C -0.1994(6) 1.6423(5) 0.8038(5)
C24A C -0.1518(6) 1.5620(5) 0.9942(4)
C25A C -0.5274(6) 0.7375(5) 0.7399(4)
H14A H -0.5596 0.7218 0.6676
C26A C -0.2341(6) 1.3161(6) 0.9841(4)
H15A H -0.2611 1.2326 0.9815
C27A C -0.2273(8) 1.6775(7) 0.7086(7)
H16A H -0.2033 1.7600 0.7071
C28A C -0.6047(6) 0.5140(5) 0.7287(5)
C29A C -0.4970(6) 0.6661(5) 0.8992(4)
H17A H -0.5085 0.6016 0.9328
C30A C -0.3769(10) 0.8094(7) 1.0760(5)
H18A H -0.3983 0.7344 1.0987
H19A H -0.2714 0.8465 1.1050
H20A H -0.4255 0.8639 1.0990
Cd1_2 Cd -0.5000 1.0000 0.5000
Cd2_2 Cd -0.63976(3) 0.77186(3) 0.27015(2)
Cd2A_2 Cd 0.63976(3) 1.22814(3) 0.72985(2)
O1A_2 O 0.6994(4) 1.1691(3) 0.5921(3)
O4A_2 O 0.5195(5) 0.9329(4) 0.6461(3)
O5_2 O 0.6082(4) 0.7854(4) 0.3103(3)
O5A_2 O -0.6082(4) 1.2146(4) 0.6897(3)
O6_2 O 0.6299(5) 0.8719(5) 0.4667(4)
loop_
_geom_bond_atom_site_label_1
_geom_bond_atom_site_label_2
_geom_bond_site_symmetry_1
_geom_bond_site_symmetry_2
Cd1 O1 1_555 1_555
Cd2 O1 1_555 1_555
O1 C1 1_555 1_555
O2 Cd2 1_555 1_555
O3 Cd2 1_555 1_555
O4 Cd1 1_555 1_555
O5 C9 1_555 1_555
O6 C9 1_555 1_555
O7 C28 1_555 1_555
O8 C28 1_555 1_555
N1 Cd2 1_555 1_555
N2 Cd2 1_555 1_555
C1 O2 1_555 1_555
C2 C1 1_555 1_555
C3 C2 1_555 1_555
H1 C3 1_555 1_555
C4 C2 1_555 1_555
H2 C4 1_555 1_555
C5 C4 1_555 1_555
C6 N2 1_555 1_555
C7 N1 1_555 1_555
C8 O3 1_555 1_555
C9 C10 1_555 1_555
C10 C3 1_555 1_555
C11 C5 1_555 1_555
H3 C11 1_555 1_555
C12 C5 1_555 1_555
H4 C12 1_555 1_555
H5 C12 1_555 1_555
H6 C12 1_555 1_555
C13 H7 1_555 1_555
C14 H8 1_555 1_555
C15 C14 1_555 1_555
H9 C15 1_555 1_555
C16 N2 1_555 1_555
H10 C16 1_555 1_555
C17 H11 1_555 1_555
C18 H12 1_555 1_555
C19 C18 1_555 1_555
C20 C25 1_555 1_555
C21 C8 1_555 1_555
C22 C17 1_555 1_555
H13 C22 1_555 1_555
C23 C6 1_555 1_555
C24 C7 1_555 1_555
C25 C21 1_555 1_555
H14 C25 1_555 1_555
C26 N1 1_555 1_555
H15 C26 1_555 1_555
C27 C13 1_555 1_555
H16 C27 1_555 1_555
C28 C20 1_555 1_555
C29 C19 1_555 1_555
H17 C29 1_555 1_555
C30 C19 1_555 1_555
H18 C30 1_555 1_555
H19 C30 1_555 1_555
H20 C30 1_555 1_555
Cd2A O1A 1_555 1_555
O1A C1A 1_555 1_555
O2A Cd2A 1_555 1_555
O3A Cd2A 1_555 1_555
O4A C8A 1_555 1_555
O5A C9A 1_555 1_555
O6A Cd1 1_555 1_555
O7A C28A 1_555 1_555
O8A C28A 1_555 1_555
N1A Cd2A 1_555 1_555
N2A Cd2A 1_555 1_555
C1A O2A 1_555 1_555
C2A C1A 1_555 1_555
C3A C2A 1_555 1_555
H1A C3A 1_555 1_555
C4A C2A 1_555 1_555
H2A C4A 1_555 1_555
C5A C4A 1_555 1_555
C6A N2A 1_555 1_555
C7A N1A 1_555 1_555
C8A O3A 1_555 1_555
C9A O6A 1_555 1_555
C10A C3A 1_555 1_555
C11A C5A 1_555 1_555
H3A C11A 1_555 1_555
C12A C5A 1_555 1_555
H4A C12A 1_555 1_555
H5A C12A 1_555 1_555
H6A C12A 1_555 1_555
C13A H7A 1_555 1_555
C14A H8A 1_555 1_555
C15A C14A 1_555 1_555
H9A C15A 1_555 1_555
C16A N2A 1_555 1_555
H10A C16A 1_555 1_555
C17A H11A 1_555 1_555
C18A H12A 1_555 1_555
C19A C18A 1_555 1_555
C20A C25A 1_555 1_555
C21A C8A 1_555 1_555
C22A C17A 1_555 1_555
H13A C22A 1_555 1_555
C23A C6A 1_555 1_555
C24A C7A 1_555 1_555
C25A C21A 1_555 1_555
H14A C25A 1_555 1_555
C26A N1A 1_555 1_555
H15A C26A 1_555 1_555
C27A C13A 1_555 1_555
H16A C27A 1_555 1_555
C28A C20A 1_555 1_555
C29A C19A 1_555 1_555
H17A C29A 1_555 1_555
C30A C19A 1_555 1_555
H18A C30A 1_555 1_555
H19A C30A 1_555 1_555
H20A C30A 1_555 1_555
Cd1_2 O6 1_555 1_555
Cd2_2 O5 1_555 1_555
Cd2A_2 O5A 1_555 1_555
O1A_2 Cd1 1_555 1_555
O4A_2 Cd1 1_555 1_555
O5_2 Cd2 1_555 1_555
O5A_2 Cd2A 1_555 1_555
O6_2 Cd1 1_555 1_555
O4 C8 1_555 1_555
C6 C7 1_555 1_555
C10 C11 1_555 1_555
C13 C16 1_555 1_555
C14 C23 1_555 1_555
C15 C24 1_555 1_555
C17 C26 1_555 1_555
C18 C21 1_555 1_555
C20 C29 1_555 1_555
C22 C24 1_555 1_555
C23 C27 1_555 1_555
O1A Cd1_2 1_555 1_555
O4A Cd1_2 1_555 1_555
C6A C7A 1_555 1_555
C9A C10A 1_555 1_555
C10A C11A 1_555 1_555
C13A C16A 1_555 1_555
C14A C23A 1_555 1_555
C15A C24A 1_555 1_555
C17A C26A 1_555 1_555
C18A C21A 1_555 1_555
C20A C29A 1_555 1_555
C22A C24A 1_555 1_555
C23A C27A 1_555 1_555
Cd2A_2 O1A_2 1_555 1_555

#END
