
#######################################################################
#
#                 Cambridge Crystallographic Data Centre
#                                CCDC 
#
#######################################################################
#
# If this CIF has been generated from an entry in the Cambridge 
# Structural Database, then it will include bibliographic, chemical, 
# crystal, experimental, refinement or atomic coordinate data resulting 
# from the CCDC's data processing and validation procedures.
#
#######################################################################

data_VUNNEZ
_symmetry_cell_setting           tetragonal
_symmetry_space_group_name_H-M   'I 41/a'
_symmetry_Int_Tables_number      88
_space_group_name_Hall           '-I 4ad'
loop_
_symmetry_equiv_pos_site_id
_symmetry_equiv_pos_as_xyz
1 x,y,z
2 3/4-y,1/4+x,1/4+z
3 1/2-x,-y,1/2+z
4 3/4+y,3/4-x,3/4+z
5 1/2+x,1/2+y,1/2+z
6 1/4-y,3/4+x,3/4+z
7 -x,1/2-y,z
8 1/4+y,1/4-x,1/4+z
9 -x,-y,-z
10 1/4+y,3/4-x,3/4-z
11 1/2+x,y,1/2-z
12 1/4-y,1/4+x,1/4-z
13 1/2-x,1/2-y,1/2-z
14 3/4+y,1/4-x,1/4-z
15 x,1/2+y,-z
16 3/4-y,3/4+x,3/4-z
_cell_length_a                   18.6107(5)
_cell_length_b                   18.6107(5)
_cell_length_c                   4.8022(3)
_cell_angle_alpha                90
_cell_angle_beta                 90
_cell_angle_gamma                90
_cell_volume                     1663.28
loop_
_atom_site_label
_atom_site_type_symbol
_atom_site_fract_x
_atom_site_fract_y
_atom_site_fract_z
Cu1 Cu 0.0000 0.5000 0.0000
C1 C -0.01651(9) 0.69415(9) 0.3990(4)
H1 H -0.0209 0.6792 0.5940
C2 C -0.03027(10) 0.63145(10) 0.2074(4)
O1 O -0.07838(7) 0.63191(7) 0.0267(3)
O2 O 0.01337(8) 0.57973(7) 0.2436(3)
O3 O 0.08304(9) 0.53294(8) -0.2124(3)
H2 H 0.084(2) 0.577(2) -0.249(7)
H3 H 0.0963(17) 0.5114(19) -0.333(8)
C1I C -0.05585(9) 0.76651(9) 0.3510(4)
H1I H -0.0708 0.7709 0.1560
C2I C -0.11855(10) 0.78027(10) 0.5426(4)
O1I O -0.11809(7) 0.82838(7) 0.7233(3)
O2I O -0.17027(7) 0.73663(8) 0.5064(3)
C1O C 0.05585(9) 0.73349(9) 0.3510(4)
H1O H 0.0708 0.7291 0.1560
C2O C 0.11855(10) 0.71973(10) 0.5426(4)
O1O O 0.11809(7) 0.67162(7) 0.7233(3)
O2O O 0.17027(7) 0.76337(8) 0.5064(3)
C1F C 0.01651(9) 0.80585(9) 0.3990(4)
H1F H 0.0209 0.8208 0.5940
C2F C 0.03027(10) 0.86855(10) 0.2074(4)
O1F O 0.07838(7) 0.86809(7) 0.0267(3)
O2F O -0.01337(8) 0.92027(7) 0.2436(3)
Cu1F Cu 0.0000 1.0000 0.0000
O3F O -0.08304(9) 0.96706(8) -0.2124(3)
H2F H -0.084(2) 0.923(2) -0.249(7)
H3F H -0.0963(17) 0.9886(19) -0.333(8)
O3H O -0.08304(9) 0.46706(8) 0.2124(3)
H2H H -0.084(2) 0.423(2) 0.249(7)
H3H H -0.0963(17) 0.4886(19) 0.333(8)
O3N O 0.08304(9) 1.03294(8) 0.2124(3)
H2N H 0.084(2) 1.077(2) 0.249(7)
H3N H 0.0963(17) 1.0114(19) 0.333(8)
Cu1C Cu 0.2500 0.7500 0.7500
Cu1E Cu -0.2500 0.7500 0.7500
O2H O -0.01337(8) 0.42027(7) -0.2436(3)
O2N O 0.01337(8) 1.07973(7) -0.2436(3)
O4 O 0.21642(8) 0.59589(10) 0.1119(4)
H4 H 0.197(2) 0.562(2) 0.165(8)
H5 H 0.191(2) 0.617(2) -0.013(8)
loop_
_geom_bond_atom_site_label_1
_geom_bond_atom_site_label_2
_geom_bond_site_symmetry_1
_geom_bond_site_symmetry_2
Cu1 O2 1_555 1_555
C1 H1 1_555 1_555
C2 C1 1_555 1_555
O1 C2 1_555 1_555
O2 C2 1_555 1_555
O3 Cu1 1_555 1_555
H2 O3 1_555 1_555
H3 O3 1_555 1_555
O4 H4 1_555 1_555
H5 O4 1_555 1_555
C1I C1 1_555 1_555
H1I C1I 1_555 1_555
C2I C1I 1_555 1_555
O1I C2I 1_555 1_555
O2I C2I 1_555 1_555
C1O C1 1_555 1_555
H1O C1O 1_555 1_555
C2O C1O 1_555 1_555
O1O C2O 1_555 1_555
O2O C2O 1_555 1_555
C1F C1I 1_555 1_555
H1F C1F 1_555 1_555
C2F C1F 1_555 1_555
O1F C2F 1_555 1_555
O2F C2F 1_555 1_555
Cu1F O2F 1_555 1_555
O3F Cu1F 1_555 1_555
H2F O3F 1_555 1_555
H3F O3F 1_555 1_555
O3H Cu1 1_555 1_555
H2H O3H 1_555 1_555
H3H O3H 1_555 1_555
O3N Cu1F 1_555 1_555
H2N O3N 1_555 1_555
H3N O3N 1_555 1_555
Cu1C O2O 1_555 1_555
Cu1E O2I 1_555 1_555
O2H Cu1 1_555 1_555
O2N Cu1F 1_555 1_555
C1O C1F 1_555 1_555

#END
