
#######################################################################
#
#                 Cambridge Crystallographic Data Centre
#                                CCDC 
#
#######################################################################
#
# If this CIF has been generated from an entry in the Cambridge 
# Structural Database, then it will include bibliographic, chemical, 
# crystal, experimental, refinement or atomic coordinate data resulting 
# from the CCDC's data processing and validation procedures.
#
#######################################################################

data_VUNNIC
_symmetry_cell_setting           orthorhombic
_symmetry_space_group_name_H-M   'P 21 21 2'
_symmetry_Int_Tables_number      18
_space_group_name_Hall           'P 2 2ab'
loop_
_symmetry_equiv_pos_site_id
_symmetry_equiv_pos_as_xyz
1 x,y,z
2 -x,-y,z
3 1/2-x,1/2+y,-z
4 1/2+x,1/2-y,-z
_cell_length_a                   12.3596(11)
_cell_length_b                   25.978(2)
_cell_length_c                   7.9585(7)
_cell_angle_alpha                90
_cell_angle_beta                 90
_cell_angle_gamma                90
_cell_volume                     2555.3
loop_
_atom_site_label
_atom_site_type_symbol
_atom_site_fract_x
_atom_site_fract_y
_atom_site_fract_z
Cu1 Cu 1.19233(6) 1.08301(3) 0.44734(9)
Cu2 Cu 1.5000 1.0000 0.8800(3)
O1 O 1.0247(4) 1.11430(16) 0.4093(6)
O2 O 1.1717(4) 1.03565(16) 0.2522(5)
O3 O 1.1405(4) 1.03348(15) 0.6181(5)
O4 O 1.1283(4) 0.96189(16) 0.4646(6)
O5 O 1.4703(5) 1.2914(2) 0.3954(8)
O6 O 1.3597(5) 1.30460(19) 0.6914(8)
O7 O 1.5587(10) 1.0472(4) 0.6988(12)
O8 O 1.3808(7) 1.0463(5) 0.5444(15)
O9 O 1.6747(10) 0.9604(4) 0.8788(13)
N1 N 1.2122(4) 1.13737(18) 0.6237(6)
N2 N 1.2921(4) 1.13095(19) 0.3225(6)
N3 N 1.0480(6) 0.8978(2) 1.0335(9)
N4 N 1.5656(9) 1.0386(4) 0.0910(18)
C1 C 1.3349(6) 1.1240(3) 0.1687(8)
H1 H 1.3169 1.0947 0.1079
C2 C 1.4061(6) 1.1600(3) 0.0985(9)
H2 H 1.4358 1.1544 -0.0073
C3 C 1.4312(7) 1.2031(3) 0.1859(10)
H3 H 1.4782 1.2271 0.1396
C4 C 1.3875(5) 1.2115(2) 0.3437(8)
C5 C 1.4092(5) 1.2586(2) 0.4427(10)
C6 C 1.3498(5) 1.2649(2) 0.6149(9)
C7 C 1.2808(5) 1.2220(2) 0.6759(8)
C8 C 1.2294(5) 1.2233(3) 0.8282(9)
H4 H 1.2354 1.2522 0.8968
C9 C 1.1693(6) 1.1819(3) 0.8787(9)
H5 H 1.1336 1.1822 0.9815
C10 C 1.1627(5) 1.1393(2) 0.7728(8)
H6 H 1.1223 1.1110 0.8074
C11 C 1.2698(5) 1.1780(2) 0.5756(8)
C12 C 1.3176(5) 1.1736(2) 0.4067(7)
C13 C 1.0939(5) 0.9558(2) 0.7545(7)
C14 C 1.1355(5) 0.9061(2) 0.7692(8)
H7 H 1.1778 0.8925 0.6833
C15 C 1.1142(6) 0.8769(2) 0.9107(8)
H8 H 1.1435 0.8441 0.9231
C16 C 1.0033(5) 0.9459(2) 1.0198(6)
H9 H 0.9584 0.9589 1.1036
C17 C 1.0257(5) 0.9735(2) 0.8839(7)
C18 C 1.1224(5) 0.9855(2) 0.6002(7)
C19 C 1.5377(7) 1.0249(3) 0.251(2)
C20 C 1.5608(11) 1.0518(5) 0.386(2)
C21 C 1.6288(11) 1.0946(4) 0.367(2)
H10 H 1.6514 1.1131 0.4606
C22 C 1.6620(9) 1.1094(4) 0.208(2)
H11 H 1.7069 1.1377 0.1937
C23 C 1.6271(12) 1.0810(5) 0.072(2)
H12 H 1.6465 1.0914 -0.0354
C24 C 1.4881(13) 1.0520(4) 0.574(2)
H13 H 0.9726 1.0907 0.4300
H14 H 1.0004 1.1408 0.4668
H15 H 1.1656 1.0047 0.3030
H16 H 1.0988 1.0386 0.2434
Cu1A Cu 1.80767(6) 0.91699(3) 0.44734(9)
Cu1A_2 Cu 0.80767(6) 0.91699(3) 0.44734(9)
Cu2_2 Cu 1.5000 1.0000 -0.1200(3)
O1A O 1.9753(4) 0.88570(16) 0.4093(6)
O2A O 1.8283(4) 0.96435(16) 0.2522(5)
O3A O 0.8595(4) 0.96652(15) 0.6181(5)
O3A_2 O 1.8595(4) 0.96652(15) 0.6181(5)
O4A O 0.8717(4) 1.03811(16) 0.4646(6)
O5A O 1.5297(5) 0.7086(2) 0.3954(8)
O6A O 1.6403(5) 0.69540(19) 0.6914(8)
O7A O 1.4413(10) 0.9528(4) 0.6988(12)
O8A O 1.6192(7) 0.9537(5) 0.5444(15)
O9A O 1.3253(10) 1.0396(4) 0.8788(13)
N1A N 1.7878(4) 0.86263(18) 0.6237(6)
N2A N 1.7079(4) 0.86905(19) 0.3225(6)
N3A N 0.9520(6) 1.1022(2) 1.0335(9)
N4A N 1.4344(9) 0.9614(4) 0.0910(18)
N4_2 N 1.5656(9) 1.0386(4) 1.0910(18)
N4A_2 N 1.4344(9) 0.9614(4) 1.0910(18)
C1A C 1.6651(6) 0.8760(3) 0.1687(8)
H1A H 1.6831 0.9053 0.1079
C2A C 1.5939(6) 0.8400(3) 0.0985(9)
H2A H 1.5642 0.8456 -0.0073
C3A C 1.5688(7) 0.7969(3) 0.1859(10)
H3A H 1.5218 0.7729 0.1396
C4A C 1.6125(5) 0.7885(2) 0.3437(8)
C5A C 1.5908(5) 0.7414(2) 0.4427(10)
C6A C 1.6502(5) 0.7351(2) 0.6149(9)
C7A C 1.7192(5) 0.7780(2) 0.6759(8)
C8A C 1.7706(5) 0.7767(3) 0.8282(9)
H4A H 1.7646 0.7478 0.8968
C9A C 1.8307(6) 0.8181(3) 0.8787(9)
H5A H 1.8664 0.8178 0.9815
C10A C 1.8373(5) 0.8607(2) 0.7728(8)
H6A H 1.8777 0.8890 0.8074
C11A C 1.7302(5) 0.8220(2) 0.5756(8)
C12A C 1.6824(5) 0.8264(2) 0.4067(7)
C13A C 0.9061(5) 1.0442(2) 0.7545(7)
C14A C 0.8645(5) 1.0939(2) 0.7692(8)
H7A H 0.8222 1.1075 0.6833
C15A C 0.8858(6) 1.1231(2) 0.9107(8)
H8A H 0.8565 1.1559 0.9231
C16A C 0.9967(5) 1.0541(2) 1.0198(6)
H9A H 1.0416 1.0411 1.1036
C17A C 0.9743(5) 1.0265(2) 0.8839(7)
C18A C 0.8776(5) 1.0145(2) 0.6002(7)
C19A C 1.4623(7) 0.9751(3) 0.251(2)
C20A C 1.4392(11) 0.9482(5) 0.386(2)
C21A C 1.3712(11) 0.9054(4) 0.367(2)
H10A H 1.3486 0.8869 0.4606
C22A C 1.3380(9) 0.8906(4) 0.208(2)
H11A H 1.2931 0.8623 0.1937
C23A C 1.3729(12) 0.9190(5) 0.072(2)
H12A H 1.3535 0.9086 -0.0354
C24A C 1.5119(13) 0.9480(4) 0.574(2)
H13A H 2.0274 0.9093 0.4300
H14A H 1.9996 0.8592 0.4668
H15A H 1.8344 0.9953 0.3030
H16A H 1.9012 0.9614 0.2434
Cl1 Cl 1.61937(15) 1.21492(8) 0.7335(2)
O10 O 1.6493(9) 1.1952(3) 0.8949(10)
O11 O 1.7007(7) 1.1994(3) 0.6247(13)
O12 O 1.6157(6) 1.2703(3) 0.7397(11)
O13 O 1.5182(6) 1.1937(3) 0.6871(11)
loop_
_geom_bond_atom_site_label_1
_geom_bond_atom_site_label_2
_geom_bond_site_symmetry_1
_geom_bond_site_symmetry_2
Cu1 O1 1_555 1_555
Cu2 O7 1_555 1_555
Cl1 O10 1_555 1_555
O1 H13 1_555 1_555
O2 Cu1 1_555 1_555
O3 Cu1 1_555 1_555
O4 C18 1_555 1_555
O5 C5 1_555 1_555
O6 C6 1_555 1_555
O7 C24 1_555 1_555
O8 Cu1 1_555 1_555
O9 Cu2 1_555 1_555
O11 Cl1 1_555 1_555
O12 Cl1 1_555 1_555
O13 Cl1 1_555 1_555
N1 Cu1 1_555 1_555
N2 Cu1 1_555 1_555
N3 C15 1_555 1_555
N4 C19 1_555 1_555
C1 N2 1_555 1_555
H1 C1 1_555 1_555
C2 C1 1_555 1_555
H2 C2 1_555 1_555
C3 C2 1_555 1_555
H3 C3 1_555 1_555
C4 C3 1_555 1_555
C5 C4 1_555 1_555
C6 C5 1_555 1_555
C7 C6 1_555 1_555
C8 C7 1_555 1_555
H4 C8 1_555 1_555
C9 C8 1_555 1_555
H5 C9 1_555 1_555
C10 N1 1_555 1_555
H6 C10 1_555 1_555
C11 N1 1_555 1_555
C12 N2 1_555 1_555
C13 C14 1_555 1_555
C14 H7 1_555 1_555
C15 C14 1_555 1_555
H8 C15 1_555 1_555
C16 N3 1_555 1_555
H9 C16 1_555 1_555
C17 C13 1_555 1_555
C18 O3 1_555 1_555
C19 C20 1_555 1_555
C20 C21 1_555 1_555
C21 H10 1_555 1_555
C22 C21 1_555 1_555
H11 C22 1_555 1_555
C23 N4 1_555 1_555
H12 C23 1_555 1_555
C24 O8 1_555 1_555
H14 O1 1_555 1_555
H15 O2 1_555 1_555
H16 O2 1_555 1_555
Cu1A O1A 1_555 1_555
Cu1A_2 O3A 1_555 1_555
Cu2_2 N4 1_555 1_555
O1A H13A 1_555 1_555
O2A Cu1A 1_555 1_555
O3A C18A 1_555 1_555
O3A_2 Cu1A 1_555 1_555
O4A C18A 1_555 1_555
O5A C5A 1_555 1_555
O6A C6A 1_555 1_555
O7A Cu2 1_555 1_555
O8A Cu1A 1_555 1_555
O9A Cu2 1_555 1_555
N1A Cu1A 1_555 1_555
N2A Cu1A 1_555 1_555
N3A C15A 1_555 1_555
N4A Cu2_2 1_555 1_555
N4_2 Cu2 1_555 1_555
N4A_2 Cu2 1_555 1_555
C1A N2A 1_555 1_555
H1A C1A 1_555 1_555
C2A C1A 1_555 1_555
H2A C2A 1_555 1_555
C3A C2A 1_555 1_555
H3A C3A 1_555 1_555
C4A C3A 1_555 1_555
C5A C4A 1_555 1_555
C6A C5A 1_555 1_555
C7A C6A 1_555 1_555
C8A C7A 1_555 1_555
H4A C8A 1_555 1_555
C9A C8A 1_555 1_555
H5A C9A 1_555 1_555
C10A N1A 1_555 1_555
H6A C10A 1_555 1_555
C11A N1A 1_555 1_555
C12A N2A 1_555 1_555
C13A C14A 1_555 1_555
C14A H7A 1_555 1_555
C15A C14A 1_555 1_555
H8A C15A 1_555 1_555
C16A N3A 1_555 1_555
H9A C16A 1_555 1_555
C17A C17 1_555 1_555
C18A C13A 1_555 1_555
C19A C19 1_555 1_555
C20A C19A 1_555 1_555
C21A C20A 1_555 1_555
H10A C21A 1_555 1_555
C22A C21A 1_555 1_555
H11A C22A 1_555 1_555
C23A N4A 1_555 1_555
H12A C23A 1_555 1_555
C24A O7A 1_555 1_555
H14A O1A 1_555 1_555
H15A O2A 1_555 1_555
H16A O2A 1_555 1_555
C4 C12 1_555 1_555
C7 C11 1_555 1_555
C9 C10 1_555 1_555
C11 C12 1_555 1_555
C13 C18 1_555 1_555
C16 C17 1_555 1_555
C20 C24 1_555 1_555
C22 C23 1_555 1_555
O8A C24A 1_555 1_555
N4A C19A 1_555 1_555
C4A C12A 1_555 1_555
C7A C11A 1_555 1_555
C9A C10A 1_555 1_555
C11A C12A 1_555 1_555
C13A C17A 1_555 1_555
C16A C17A 1_555 1_555
C20A C24A 1_555 1_555
C22A C23A 1_555 1_555

#END
