
#######################################################################
#
#                 Cambridge Crystallographic Data Centre
#                                CCDC 
#
#######################################################################
#
# If this CIF has been generated from an entry in the Cambridge 
# Structural Database, then it will include bibliographic, chemical, 
# crystal, experimental, refinement or atomic coordinate data resulting 
# from the CCDC's data processing and validation procedures.
#
#######################################################################

data_VUNPAX
_symmetry_cell_setting           monoclinic
_symmetry_space_group_name_H-M   'P 21/n'
_symmetry_Int_Tables_number      14
_space_group_name_Hall           '-P 2yn'
loop_
_symmetry_equiv_pos_site_id
_symmetry_equiv_pos_as_xyz
1 x,y,z
2 1/2-x,1/2+y,1/2-z
3 -x,-y,-z
4 1/2+x,1/2-y,1/2+z
_cell_length_a                   10.186(3)
_cell_length_b                   14.296(4)
_cell_length_c                   24.778(8)
_cell_angle_alpha                90
_cell_angle_beta                 93.425(6)
_cell_angle_gamma                90
_cell_volume                     3601.7
loop_
_atom_site_label
_atom_site_type_symbol
_atom_site_fract_x
_atom_site_fract_y
_atom_site_fract_z
Cd1 Cd 0.91234(3) 0.339157(19) 0.112941(13)
Cd2 Cd 1.01574(3) 0.07761(2) 0.114380(13)
O1 O 1.3342(3) 0.49911(19) 0.32811(15)
O2 O 1.4274(4) 0.4144(2) 0.39359(15)
O3 O 0.9563(3) 0.4776(2) 0.06509(14)
N1 N 0.8132(4) 0.0790(2) 0.06116(16)
O4 O 0.8637(3) 0.8786(2) -0.04520(14)
O5 O 1.0535(3) 0.3530(2) 0.18438(14)
O6 O 0.8178(4) 0.4864(2) 0.12956(14)
N2 N 0.8429(4) 0.0424(2) 0.16873(16)
O7 O 0.9880(4) 0.7580(2) -0.05744(16)
O8 O 1.0308(3) 0.2008(2) 0.17933(15)
C1 C 0.7616(4) 0.6724(3) 0.10892(18)
H1 H 0.7297 0.6445 0.1394
C2 C 0.7254(4) 0.7641(3) 0.09589(18)
C3 C 0.8566(4) 0.7552(3) 0.01843(17)
C4 C 0.8920(4) 0.6625(3) 0.03150(17)
H2 H 0.9466 0.6287 0.0099
C5 C 1.2912(4) 0.3364(3) 0.32657(18)
C6 C 0.8435(4) 0.6223(3) 0.07745(17)
C7 C 0.7042(4) 0.0753(3) 0.0898(2)
C8 C 0.8753(4) 0.5226(3) 0.09157(18)
C9 C 1.2077(4) 0.3433(3) 0.28035(18)
H3 H 1.1842 0.4021 0.2669
C10 C 1.1939(4) 0.1760(3) 0.27465(19)
H4 H 1.1620 0.1227 0.2567
C11 C 1.3551(4) 0.4217(3) 0.35120(19)
C12 C 0.9049(4) 0.7995(3) -0.03111(19)
C13 C 0.5759(4) 0.0882(3) 0.0655(2)
C14 C 1.1592(4) 0.2648(3) 0.25416(17)
C15 C 0.7751(4) 0.8045(3) 0.05108(18)
H5 H 0.7535 0.8662 0.0425
C16 C 1.3247(4) 0.2470(3) 0.34645(19)
H6 H 1.3814 0.2415 0.3771
C17 C 0.7975(5) 0.0939(3) 0.0090(2)
H7 H 0.8720 0.0950 -0.0110
C18 C 1.2752(5) 0.1669(3) 0.3214(2)
C19 C 0.7192(4) 0.0534(3) 0.1468(2)
C20 C 1.0754(4) 0.2718(3) 0.20248(19)
C21 C 0.4787(6) 0.0599(4) 0.1512(3)
H8 H 0.4042 0.0540 0.1708
C22 C 0.8584(6) 0.0211(4) 0.2207(2)
H9 H 0.9433 0.0136 0.2360
C23 C 0.6066(5) 0.0458(3) 0.1775(2)
N3 N 0.7316(3) 0.2887(2) 0.16160(16)
N4 N 0.7218(4) 0.3289(3) 0.05354(17)
C24 C 0.6085(4) 0.3308(3) 0.0791(2)
C25 C 0.7347(5) 0.2668(3) 0.2139(2)
H10 H 0.8153 0.2519 0.2314
C26 C 0.6131(4) 0.3090(3) 0.1361(2)
C27 C 0.7189(5) 0.3479(4) 0.0013(2)
H11 H 0.7970 0.3472 -0.0162
C28 C 0.6762(6) 0.1081(4) -0.0182(3)
H12 H 0.6702 0.1176 -0.0554
C29 C 0.4966(5) 0.3101(3) 0.1636(2)
C30 C 0.6246(5) 0.2653(4) 0.2433(2)
H13 H 0.6312 0.2492 0.2797
C31 C 0.6333(6) 0.8163(4) 0.1300(2)
H14 H 0.6188 0.8779 0.1155
H15 H 0.6712 0.8209 0.1663
H16 H 0.5511 0.7835 0.1301
C32 C 0.6302(7) 0.0212(4) 0.2317(3)
H17 H 0.5592 0.0126 0.2531
C33 C 0.5670(6) 0.1081(4) 0.0099(3)
H18 H 0.4857 0.1212 -0.0075
C34 C 0.4859(6) 0.3736(5) -0.0022(3)
H19 H 0.4075 0.3905 -0.0209
C35 C 1.3118(6) 0.0711(3) 0.3437(3)
H20 H 1.2696 0.0238 0.3213
H21 H 1.2834 0.0656 0.3799
H22 H 1.4054 0.0632 0.3442
C36 C 0.5061(5) 0.2874(4) 0.2187(3)
H23 H 0.4312 0.2874 0.2384
C37 C 0.7528(7) 0.0095(4) 0.2537(3)
H24 H 0.7673 -0.0060 0.2900
C38 C 0.4875(5) 0.3530(4) 0.0517(3)
C39 C 0.3706(5) 0.3548(4) 0.0822(3)
H25 H 0.2904 0.3704 0.0646
C40 C 0.6001(6) 0.3693(5) -0.0287(2)
H26 H 0.5996 0.3802 -0.0657
C41 C 0.3750(5) 0.3348(4) 0.1343(3)
H27 H 0.2979 0.3368 0.1525
C42 C 0.4657(5) 0.0814(4) 0.0982(3)
H28 H 0.3819 0.0922 0.0824
Cd1B Cd 1.08766(3) 0.660843(19) -0.112941(13)
Cd2A Cd 1.48426(3) 0.57761(2) 0.385620(13)
Cd2B Cd 0.98426(3) 0.92239(2) -0.114380(13)
O1A O 1.1658(3) -0.00089(19) 0.17189(15)
O2A O 1.0726(4) -0.0856(2) 0.10641(15)
O4B O 1.1363(3) 0.1214(2) 0.04520(14)
O7B O 1.0120(4) 0.2420(2) 0.05744(16)
loop_
_geom_bond_atom_site_label_1
_geom_bond_atom_site_label_2
_geom_bond_site_symmetry_1
_geom_bond_site_symmetry_2
Cd1 O3 1_555 1_555
Cd2 N1 1_555 1_555
O1 C11 1_555 1_555
O2 C11 1_555 1_555
O3 C8 1_555 1_555
N1 C7 1_555 1_555
O4 C12 1_555 1_555
O5 Cd1 1_555 1_555
O6 Cd1 1_555 1_555
N2 Cd2 1_555 1_555
O7 C12 1_555 1_555
O8 Cd1 1_555 1_555
C1 H1 1_555 1_555
C2 C1 1_555 1_555
C3 C4 1_555 1_555
C4 H2 1_555 1_555
C5 C9 1_555 1_555
C6 C1 1_555 1_555
C7 C13 1_555 1_555
C8 O6 1_555 1_555
C9 H3 1_555 1_555
C10 H4 1_555 1_555
C11 C5 1_555 1_555
C12 C3 1_555 1_555
C13 C33 1_555 1_555
C14 C9 1_555 1_555
C15 C2 1_555 1_555
H5 C15 1_555 1_555
C16 C5 1_555 1_555
H6 C16 1_555 1_555
C17 N1 1_555 1_555
H7 C17 1_555 1_555
C18 C10 1_555 1_555
C19 N2 1_555 1_555
C20 O5 1_555 1_555
C21 H8 1_555 1_555
C22 N2 1_555 1_555
H9 C22 1_555 1_555
C23 C19 1_555 1_555
N3 Cd1 1_555 1_555
N4 Cd1 1_555 1_555
C24 N4 1_555 1_555
C25 N3 1_555 1_555
H10 C25 1_555 1_555
C26 N3 1_555 1_555
C27 N4 1_555 1_555
H11 C27 1_555 1_555
C28 C17 1_555 1_555
H12 C28 1_555 1_555
C29 C26 1_555 1_555
C30 C25 1_555 1_555
H13 C30 1_555 1_555
C31 C2 1_555 1_555
H14 C31 1_555 1_555
H15 C31 1_555 1_555
H16 C31 1_555 1_555
C32 C23 1_555 1_555
H17 C32 1_555 1_555
C33 C28 1_555 1_555
H18 C33 1_555 1_555
C34 H19 1_555 1_555
C35 C18 1_555 1_555
H20 C35 1_555 1_555
H21 C35 1_555 1_555
H22 C35 1_555 1_555
C36 C29 1_555 1_555
H23 C36 1_555 1_555
C37 C22 1_555 1_555
H24 C37 1_555 1_555
C38 C24 1_555 1_555
C39 C38 1_555 1_555
H25 C39 1_555 1_555
C40 C27 1_555 1_555
H26 C40 1_555 1_555
C41 C29 1_555 1_555
H27 C41 1_555 1_555
C42 C13 1_555 1_555
H28 C42 1_555 1_555
Cd1B O7 1_555 1_555
Cd2A O1 1_555 1_555
Cd2B O4 1_555 1_555
O1A Cd2 1_555 1_555
O2A Cd2 1_555 1_555
O4B Cd2 1_555 1_555
O7B Cd1 1_555 1_555
Cd2 O8 1_555 1_555
Cd2 O7B 1_555 1_555
O2 Cd2A 1_555 1_555
O7 Cd2B 1_555 1_555
O8 C20 1_555 1_555
C3 C15 1_555 1_555
C4 C6 1_555 1_555
C6 C8 1_555 1_555
C7 C19 1_555 1_555
C10 C14 1_555 1_555
C14 C20 1_555 1_555
C16 C18 1_555 1_555
C21 C23 1_555 1_555
C21 C42 1_555 1_555
C24 C26 1_555 1_555
C30 C36 1_555 1_555
C32 C37 1_555 1_555
C34 C38 1_555 1_555
C34 C40 1_555 1_555
C39 C41 1_555 1_555

#END
