
#######################################################################
#
#                 Cambridge Crystallographic Data Centre
#                                CCDC 
#
#######################################################################
#
# If this CIF has been generated from an entry in the Cambridge 
# Structural Database, then it will include bibliographic, chemical, 
# crystal, experimental, refinement or atomic coordinate data resulting 
# from the CCDC's data processing and validation procedures.
#
#######################################################################

data_VUNRIH
_symmetry_cell_setting           orthorhombic
_symmetry_space_group_name_H-M   'A m a 2'
_symmetry_Int_Tables_number      40
_space_group_name_Hall           'A 2 -2a'
loop_
_symmetry_equiv_pos_site_id
_symmetry_equiv_pos_as_xyz
1 x,y,z
2 -x,-y,z
3 1/2-x,y,z
4 1/2+x,-y,z
5 x,1/2+y,1/2+z
6 -x,1/2-y,1/2+z
7 1/2-x,1/2+y,1/2+z
8 1/2+x,1/2-y,1/2+z
_cell_length_a                   15.7306(12)
_cell_length_b                   19.6397(12)
_cell_length_c                   8.8114(5)
_cell_angle_alpha                90
_cell_angle_beta                 90
_cell_angle_gamma                90
_cell_volume                     2722.23
loop_
_atom_site_label
_atom_site_type_symbol
_atom_site_fract_x
_atom_site_fract_y
_atom_site_fract_z
Cu1 Cu 0.7500 1.02872(7) 0.99798(17)
C1 C 0.7500 0.8077(8) 1.1641(19)
C2 C 0.7500 0.7421(7) 1.2218(19)
H1 H 0.7500 0.7350 1.3261
C3 C 0.7500 0.6869(8) 1.1225(18)
C4 C 0.7500 0.6987(7) 0.9670(17)
H2 H 0.7500 0.6618 0.9007
C5 C 0.7500 0.7654(8) 0.9074(19)
C6 C 0.7500 0.8200(7) 1.011(2)
H3 H 0.7500 0.8646 0.9748
C7 C 0.7500 0.6145(8) 1.1785(19)
C8 C 0.7500 0.7759(8) 0.744(2)
C9 C 0.6355(6) 0.9629(5) 0.7590(13)
H4 H 0.6663 0.9786 0.6760
C10 C 0.5915(6) 0.9412(5) 0.9816(15)
H5 H 0.5887 0.9405 1.0870
C11 C 0.5158(7) 0.9040(5) 0.6157(14)
H6 H 0.5533 0.9037 0.5283
H7 H 0.4704 0.9363 0.5959
C12 C 0.4778(6) 0.8333(5) 0.6368(13)
H8 H 0.4413 0.8337 0.7255
H9 H 0.4426 0.8228 0.5495
C13 C 0.5433(7) 0.7774(5) 0.6555(14)
H10 H 0.5751 0.7849 0.7483
H11 H 0.5830 0.7789 0.5712
C14 C 0.5010(7) 0.7077(5) 0.6615(14)
H12 H 0.4634 0.7060 0.7486
H13 H 0.4666 0.7017 0.5710
C15 C 0.6192(6) 0.6321(5) 0.5672(14)
H14 H 0.6280 0.6534 0.4743
C16 C 0.6226(6) 0.5654(6) 0.7562(14)
H15 H 0.6372 0.5287 0.8177
N1 N 0.6555(5) 0.9736(4) 0.9033(11)
N2 N 0.5641(5) 0.9262(4) 0.7513(11)
N3 N 0.5343(6) 0.9113(5) 0.8942(12)
N4 N 0.5627(5) 0.6512(4) 0.6719(12)
N5 N 0.5645(7) 0.6096(5) 0.7929(13)
N6 N 0.6608(6) 0.5779(4) 0.6171(11)
O1 O 0.7500 0.9375(6) 1.2133(15)
O2 O 0.8036(5) 0.8632(4) 1.4135(11)
O3 O 0.7500 0.6091(5) 1.3259(13)
O4 O 0.7500 0.5672(5) 1.0878(13)
O5 O 0.7500 0.7290(5) 0.6533(12)
O6 O 0.7500 0.8410(6) 0.7035(13)
H16 H 0.7500 0.8373 0.6073
S1 S 0.7500 0.8781(2) 1.2952(5)
O2B O 0.6964(5) 0.8632(4) 1.4135(11)
C9B C 0.8645(6) 0.9629(5) 0.7590(13)
H4B H 0.8337 0.9786 0.6760
C10B C 0.9085(6) 0.9412(5) 0.9816(15)
H5B H 0.9113 0.9405 1.0870
C11B C 0.9842(7) 0.9040(5) 0.6157(14)
H6B H 0.9467 0.9037 0.5283
H7B H 1.0296 0.9363 0.5959
C12B C 1.0222(6) 0.8333(5) 0.6368(13)
H8B H 1.0587 0.8337 0.7255
H9B H 1.0574 0.8228 0.5495
C13B C 0.9567(7) 0.7774(5) 0.6555(14)
H10B H 0.9249 0.7849 0.7483
H11B H 0.9170 0.7789 0.5712
C14B C 0.9990(7) 0.7077(5) 0.6615(14)
H12B H 1.0366 0.7060 0.7486
H13B H 1.0334 0.7017 0.5710
C15B C 0.8808(6) 0.6321(5) 0.5672(14)
H14B H 0.8720 0.6534 0.4743
C16B C 0.8774(6) 0.5654(6) 0.7562(14)
H15B H 0.8628 0.5287 0.8177
N1B N 0.8445(5) 0.9736(4) 0.9033(11)
N2B N 0.9359(5) 0.9262(4) 0.7513(11)
N3B N 0.9657(6) 0.9113(5) 0.8942(12)
N4B N 0.9373(5) 0.6512(4) 0.6719(12)
N5B N 0.9355(7) 0.6096(5) 0.7929(13)
N6B N 0.8392(6) 0.5779(4) 0.6171(11)
Cu1D Cu 0.7500 0.52872(7) 0.49798(17)
Cu1D_2 Cu 0.7500 0.52872(7) 1.49798(17)
N6D N 0.6608(6) 1.0779(4) 1.1171(11)
N6F N 0.8392(6) 1.0779(4) 1.1171(11)
O3D O 0.7500 1.1091(5) 0.8259(13)
loop_
_geom_bond_atom_site_label_1
_geom_bond_atom_site_label_2
_geom_bond_site_symmetry_1
_geom_bond_site_symmetry_2
Cu1 N1 1_555 1_555
C1 C2 1_555 1_555
C2 H1 1_555 1_555
C3 C2 1_555 1_555
C4 C3 1_555 1_555
H2 C4 1_555 1_555
C5 C4 1_555 1_555
C6 C1 1_555 1_555
H3 C6 1_555 1_555
C7 C3 1_555 1_555
C8 C5 1_555 1_555
C9 H4 1_555 1_555
C10 H5 1_555 1_555
C11 H6 1_555 1_555
H7 C11 1_555 1_555
C12 C11 1_555 1_555
H8 C12 1_555 1_555
H9 C12 1_555 1_555
C13 C12 1_555 1_555
H10 C13 1_555 1_555
H11 C13 1_555 1_555
C14 C13 1_555 1_555
H12 C14 1_555 1_555
H13 C14 1_555 1_555
C15 H14 1_555 1_555
C16 H15 1_555 1_555
N1 C9 1_555 1_555
N2 C9 1_555 1_555
N3 C10 1_555 1_555
N4 C14 1_555 1_555
N5 C16 1_555 1_555
N6 C15 1_555 1_555
O1 Cu1 1_555 1_555
O2 S1 1_555 1_555
O3 C7 1_555 1_555
O4 C7 1_555 1_555
O5 C8 1_555 1_555
O6 C8 1_555 1_555
H16 O6 1_555 1_555
S1 C1 1_555 1_555
O2B S1 1_555 1_555
C9B H4B 1_555 1_555
C10B H5B 1_555 1_555
C11B H6B 1_555 1_555
H7B C11B 1_555 1_555
C12B C11B 1_555 1_555
H8B C12B 1_555 1_555
H9B C12B 1_555 1_555
C13B C12B 1_555 1_555
H10B C13B 1_555 1_555
H11B C13B 1_555 1_555
C14B C13B 1_555 1_555
H12B C14B 1_555 1_555
H13B C14B 1_555 1_555
C15B H14B 1_555 1_555
C16B H15B 1_555 1_555
N1B Cu1 1_555 1_555
N2B C9B 1_555 1_555
N3B C10B 1_555 1_555
N4B C14B 1_555 1_555
N5B C16B 1_555 1_555
N6B C15B 1_555 1_555
Cu1D N6 1_555 1_555
Cu1D_2 O3 1_555 1_555
N6D Cu1 1_555 1_555
N6F Cu1 1_555 1_555
O3D Cu1 1_555 1_555
C5 C6 1_555 1_555
C10 N1 1_555 1_555
C11 N2 1_555 1_555
C15 N4 1_555 1_555
C16 N6 1_555 1_555
N2 N3 1_555 1_555
N4 N5 1_555 1_555
O1 S1 1_555 1_555
C9B N1B 1_555 1_555
C10B N1B 1_555 1_555
C11B N2B 1_555 1_555
C15B N4B 1_555 1_555
C16B N6B 1_555 1_555
N2B N3B 1_555 1_555
N4B N5B 1_555 1_555
N6B Cu1D 1_555 1_555

#END
