
#######################################################################
#
#                 Cambridge Crystallographic Data Centre
#                                CCDC 
#
#######################################################################
#
# If this CIF has been generated from an entry in the Cambridge 
# Structural Database, then it will include bibliographic, chemical, 
# crystal, experimental, refinement or atomic coordinate data resulting 
# from the CCDC's data processing and validation procedures.
#
#######################################################################

data_VUNWUX
_symmetry_cell_setting           triclinic
_symmetry_space_group_name_H-M   'P -1'
_symmetry_Int_Tables_number      2
_space_group_name_Hall           '-P 1'
loop_
_symmetry_equiv_pos_site_id
_symmetry_equiv_pos_as_xyz
1 x,y,z
2 -x,-y,-z
_cell_length_a                   5.0606(9)
_cell_length_b                   5.5530(10)
_cell_length_c                   16.997(3)
_cell_angle_alpha                83.233(4)
_cell_angle_beta                 86.532(4)
_cell_angle_gamma                87.185(4)
_cell_volume                     473.02
loop_
_atom_site_label
_atom_site_type_symbol
_atom_site_fract_x
_atom_site_fract_y
_atom_site_fract_z
K1 K 0.02513(7) 1.24926(6) 0.08117(2)
S1 S -0.52285(8) 1.76738(7) 0.09783(2)
O1 O -0.3368(2) 1.6171(2) 0.05587(7)
O2 O -0.4420(2) 2.0113(2) 0.10273(7)
O3 O -0.7959(2) 1.7553(2) 0.07825(7)
C1 C -0.5184(3) 1.6180(3) 0.20128(9)
C2 C -0.6095(3) 1.7832(3) 0.26597(10)
C3 C -0.6785(4) 1.6444(3) 0.34888(10)
C4 C -0.6841(5) 1.8016(4) 0.41832(11)
F1 F -0.2698(2) 1.5310(2) 0.21479(6)
F2 F -0.6770(2) 1.42641(18) 0.20831(6)
F3 F -0.4165(2) 1.93552(19) 0.27294(6)
F4 F -0.8276(2) 1.91623(19) 0.24249(6)
F5 F -0.4990(2) 1.4612(2) 0.36387(6)
F6 F -0.9182(2) 1.5517(2) 0.34851(7)
F7 F -0.4422(3) 1.8616(3) 0.43141(8)
F8 F -0.8339(3) 2.0008(3) 0.40290(8)
F9 F -0.7842(3) 1.6765(3) 0.48370(7)
K1A K -0.02513(7) 1.75074(6) -0.08117(2)
K1_2 K 0.02513(7) 2.24926(6) 0.08117(2)
K1_3 K -0.97487(7) 2.24926(6) 0.08117(2)
K1_4 K -0.97487(7) 1.24926(6) 0.08117(2)
K1A_2 K -1.02513(7) 1.75074(6) -0.08117(2)
O1A O 0.3368(2) 1.3829(2) -0.05587(7)
O2_2 O -0.4420(2) 1.0113(2) 0.10273(7)
O2_3 O 0.5580(2) 1.0113(2) 0.10273(7)
O3_2 O 0.2041(2) 0.7553(2) 0.07825(7)
O3_3 O 0.2041(2) 1.7553(2) 0.07825(7)
O3A O -0.2041(2) 1.2447(2) -0.07825(7)
loop_
_geom_bond_atom_site_label_1
_geom_bond_atom_site_label_2
_geom_bond_site_symmetry_1
_geom_bond_site_symmetry_2
K1 O1 1_555 1_555
S1 O1 1_555 1_555
O1 K1A 1_555 1_555
O2 S1 1_555 1_555
O3 S1 1_555 1_555
C1 S1 1_555 1_555
C2 C1 1_555 1_555
C3 C2 1_555 1_555
C4 C3 1_555 1_555
F1 C1 1_555 1_555
F2 C1 1_555 1_555
F3 C2 1_555 1_555
F4 C2 1_555 1_555
F5 C3 1_555 1_555
F6 C3 1_555 1_555
F7 C4 1_555 1_555
F8 C4 1_555 1_555
F9 C4 1_555 1_555
K1A O1A 1_555 1_555
K1_2 O2 1_555 1_555
K1_3 O2 1_555 1_555
K1_4 O3 1_555 1_555
K1A_2 O3 1_555 1_555
O1A K1 1_555 1_555
O2_2 K1 1_555 1_555
O2_3 K1 1_555 1_555
O3_2 K1 1_555 1_555
O3_3 K1 1_555 1_555
O3A K1 1_555 1_555
O3 K1_3 1_555 1_555
K1A O3_3 1_555 1_555
K1A O3A 1_555 1_555
K1_2 O3_3 1_555 1_555
K1_4 O2_2 1_555 1_555

#END
