
#######################################################################
#
#                 Cambridge Crystallographic Data Centre
#                                CCDC 
#
#######################################################################
#
# If this CIF has been generated from an entry in the Cambridge 
# Structural Database, then it will include bibliographic, chemical, 
# crystal, experimental, refinement or atomic coordinate data resulting 
# from the CCDC's data processing and validation procedures.
#
#######################################################################

data_VUNXIM
_symmetry_cell_setting           monoclinic
_symmetry_space_group_name_H-M   'P 2/c'
_symmetry_Int_Tables_number      13
_space_group_name_Hall           '-P 2yc'
loop_
_symmetry_equiv_pos_site_id
_symmetry_equiv_pos_as_xyz
1 x,y,z
2 -x,y,1/2-z
3 -x,-y,-z
4 x,-y,1/2+z
_cell_length_a                   17.165(5)
_cell_length_b                   5.634(5)
_cell_length_c                   11.085(5)
_cell_angle_alpha                90
_cell_angle_beta                 100.122(5)
_cell_angle_gamma                90
_cell_volume                     1055.32
loop_
_atom_site_label
_atom_site_type_symbol
_atom_site_fract_x
_atom_site_fract_y
_atom_site_fract_z
Na1 Na 0.41701(8) 0.6567(2) 1.02596(11)
S1 S 0.37404(6) 0.82828(14) 0.71333(7)
O1 O 0.39214(15) 0.8738(3) 0.84308(19)
O2 O 0.39484(16) 1.0147(4) 0.6371(2)
O3 O 0.39742(16) 0.5931(4) 0.6806(2)
O4 O 0.44507(15) 0.3410(3) 0.90306(19)
F1 F 0.24374(15) 0.6480(5) 0.7515(2)
F2 F 0.24054(14) 1.0289(5) 0.7251(2)
F3 F 0.23325(18) 1.0010(5) 0.4919(2)
F4 F 0.26286(16) 0.6366(5) 0.4943(2)
F5 F 0.1319(2) 0.4987(7) 0.5541(3)
F6 F 0.10206(17) 0.8467(8) 0.6069(3)
F7 F 0.0830(2) 0.9920(8) 0.3772(3)
F8 F 0.01830(17) 0.6961(8) 0.3936(3)
F9 F 0.12614(16) 0.6742(6) 0.3200(2)
C1 C 0.2648(2) 0.8235(6) 0.6843(3)
C2 C 0.2252(2) 0.7934(7) 0.5515(3)
C3 C 0.1387(3) 0.7415(10) 0.5280(4)
C4 C 0.0913(3) 0.7466(11) 0.4054(5)
H1 H 0.4239(10) 0.2125(18) 0.908(3)
H2 H 0.4472(15) 0.414(3) 0.8402(9)
Na1B Na 0.58299(8) 0.3433(2) 0.97404(11)
Na1A Na 0.58299(8) -0.3433(2) 1.47404(11)
Na1A_2 Na 0.58299(8) 0.6567(2) 1.47404(11)
Na1C Na 0.41701(8) 0.3433(2) 0.52596(11)
Na1C_2 Na 0.41701(8) 1.3433(2) 0.52596(11)
S1B S 0.62596(6) 0.17172(14) 1.28667(7)
O1B O 0.60786(15) 0.1262(3) 1.15692(19)
O2B O 0.60516(16) -0.0147(4) 1.3629(2)
O2A O 0.60516(16) 0.0147(4) 0.8629(2)
O2C O 0.39484(16) 0.9853(4) 1.1371(2)
O3B O 0.60258(16) 0.4069(4) 1.3194(2)
O3A O 0.60258(16) 0.5931(4) 0.8194(2)
O3C O 0.39742(16) 0.4069(4) 1.1806(2)
O4B O 0.55493(15) 0.6590(3) 1.09694(19)
F1B F 0.75626(15) 0.3520(5) 1.2485(2)
F2B F 0.75946(14) -0.0289(5) 1.2749(2)
F3B F 0.76675(18) -0.0010(5) 1.5081(2)
F4B F 0.73714(16) 0.3634(5) 1.5057(2)
F5B F 0.8681(2) 0.5013(7) 1.4459(3)
F6B F 0.89794(17) 0.1533(8) 1.3931(3)
F7B F 0.9170(2) 0.0080(8) 1.6228(3)
F8B F 0.98170(17) 0.3039(8) 1.6064(3)
F9B F 0.87386(16) 0.3258(6) 1.6800(2)
C1B C 0.7352(2) 0.1765(6) 1.3157(3)
C2B C 0.7748(2) 0.2066(7) 1.4485(3)
C3B C 0.8613(3) 0.2585(10) 1.4720(4)
C4B C 0.9087(3) 0.2534(11) 1.5946(5)
H1B H 0.5761(10) 0.7875(18) 1.092(3)
H2B H 0.5528(15) 0.586(3) 1.1598(9)
loop_
_geom_bond_atom_site_label_1
_geom_bond_atom_site_label_2
_geom_bond_site_symmetry_1
_geom_bond_site_symmetry_2
Na1 O1 1_555 1_555
S1 O1 1_555 1_555
O2 S1 1_555 1_555
O3 S1 1_555 1_555
O4 Na1 1_555 1_555
F1 C1 1_555 1_555
F2 C1 1_555 1_555
F3 C2 1_555 1_555
F4 C2 1_555 1_555
F5 C3 1_555 1_555
F6 C3 1_555 1_555
F7 C4 1_555 1_555
F8 C4 1_555 1_555
F9 C4 1_555 1_555
C1 S1 1_555 1_555
C2 C1 1_555 1_555
C3 C2 1_555 1_555
C4 C3 1_555 1_555
H1 O4 1_555 1_555
H2 O4 1_555 1_555
Na1B O4 1_555 1_555
Na1A O2B 1_555 1_555
Na1A_2 O3B 1_555 1_555
Na1C O3 1_555 1_555
Na1C_2 O2 1_555 1_555
S1B O1B 1_555 1_555
O1B Na1B 1_555 1_555
O2B S1B 1_555 1_555
O2A Na1B 1_555 1_555
O2C Na1 1_555 1_555
O3B S1B 1_555 1_555
O3A Na1B 1_555 1_555
O3C Na1 1_555 1_555
O4B Na1 1_555 1_555
F1B C1B 1_555 1_555
F2B C1B 1_555 1_555
F3B C2B 1_555 1_555
F4B C2B 1_555 1_555
F5B C3B 1_555 1_555
F6B C3B 1_555 1_555
F7B C4B 1_555 1_555
F8B C4B 1_555 1_555
F9B C4B 1_555 1_555
C1B S1B 1_555 1_555
C2B C1B 1_555 1_555
C3B C2B 1_555 1_555
C4B C3B 1_555 1_555
H1B O4B 1_555 1_555
H2B O4B 1_555 1_555
Na1B O4B 1_555 1_555

#END
