
#######################################################################
#
#                 Cambridge Crystallographic Data Centre
#                                CCDC 
#
#######################################################################
#
# If this CIF has been generated from an entry in the Cambridge 
# Structural Database, then it will include bibliographic, chemical, 
# crystal, experimental, refinement or atomic coordinate data resulting 
# from the CCDC's data processing and validation procedures.
#
#######################################################################

data_VUNXAE
_symmetry_cell_setting           monoclinic
_symmetry_space_group_name_H-M   'C 2/c'
_symmetry_Int_Tables_number      15
_space_group_name_Hall           '-C 2yn'
loop_
_symmetry_equiv_pos_site_id
_symmetry_equiv_pos_as_xyz
1 x,y,z
2 -x,y,1/2-z
3 1/2+x,1/2+y,z
4 1/2-x,1/2+y,1/2-z
5 -x,-y,-z
6 x,-y,1/2+z
7 1/2-x,1/2-y,-z
8 1/2+x,1/2-y,1/2+z
_cell_length_a                   9.493(2)
_cell_length_b                   8.5886(15)
_cell_length_c                   30.962(5)
_cell_angle_alpha                90
_cell_angle_beta                 95.036(19)
_cell_angle_gamma                90
_cell_volume                     2514.64
loop_
_atom_site_label
_atom_site_type_symbol
_atom_site_fract_x
_atom_site_fract_y
_atom_site_fract_z
K1 K 0.76127(5) 0.27263(6) 0.752079(14)
C1 C 0.50152(19) 0.0206(2) 0.62580(6)
C2 C 0.3524(2) 0.0139(2) 0.60138(6)
C3 C 0.3512(2) -0.0061(3) 0.55156(7)
C4 C 0.2041(3) 0.0025(3) 0.52603(8)
C5 C 0.5218(3) 0.5132(3) 0.67517(9)
C6 C 0.4292(3) 0.5218(3) 0.63558(9)
H1 H 0.3675 0.6099 0.6368
H2 H 0.3738 0.4283 0.6323
H3 H 0.4847 0.5328 0.6113
F1 F 0.56693(13) 0.14975(16) 0.61321(4)
F2 F 0.57629(13) -0.10389(16) 0.61384(4)
F3 F 0.28308(14) 0.14505(16) 0.60907(5)
F4 F 0.28045(13) -0.10609(17) 0.61638(4)
F5 F 0.4322(2) 0.1018(3) 0.53572(5)
F6 F 0.4044(2) -0.1467(2) 0.54301(5)
F7 F 0.1456(2) 0.1389(3) 0.53051(7)
F8 F 0.1193(2) -0.1033(3) 0.53895(7)
F9 F 0.2174(2) -0.0181(3) 0.48430(5)
N1 N 0.5957(3) 0.5080(3) 0.70587(9)
O1 O 0.65862(16) 0.03867(18) 0.69748(5)
O2 O 0.42522(18) 0.1552(2) 0.69511(5)
O3 O 0.45311(18) -0.12677(19) 0.69676(5)
S1 S 0.50850(5) 0.02191(6) 0.685504(14)
K1C K 0.73873(5) 0.77263(6) 0.747921(14)
K1C_2 K 0.73873(5) -0.22737(6) 0.747921(14)
K1A K 0.23873(5) 0.27263(6) 0.747921(14)
K1B K 0.26127(5) -0.22737(6) 0.752079(14)
N1C N 0.9043(3) 0.0080(3) 0.79413(9)
O1C O 0.84138(16) 0.53867(18) 0.80252(5)
O2A O 0.57478(18) 0.1552(2) 0.80489(5)
O3B O 0.95311(18) 0.37323(19) 0.69676(5)
O3C O 1.04689(18) 0.37323(19) 0.80324(5)
loop_
_geom_bond_atom_site_label_1
_geom_bond_atom_site_label_2
_geom_bond_site_symmetry_1
_geom_bond_site_symmetry_2
K1 N1 1_555 1_555
C1 C2 1_555 1_555
C2 C3 1_555 1_555
C3 C4 1_555 1_555
C4 F7 1_555 1_555
C5 C6 1_555 1_555
C6 H1 1_555 1_555
H2 C6 1_555 1_555
H3 C6 1_555 1_555
F1 C1 1_555 1_555
F2 C1 1_555 1_555
F3 C2 1_555 1_555
F4 C2 1_555 1_555
F5 C3 1_555 1_555
F6 C3 1_555 1_555
F8 C4 1_555 1_555
F9 C4 1_555 1_555
N1 C5 1_555 1_555
O1 K1 1_555 1_555
O2 S1 1_555 1_555
O3 S1 1_555 1_555
S1 C1 1_555 1_555
K1C N1 1_555 1_555
K1C_2 O1 1_555 1_555
K1A O2 1_555 1_555
K1B O3 1_555 1_555
N1C K1 1_555 1_555
O1C K1 1_555 1_555
O2A K1 1_555 1_555
O3B K1 1_555 1_555
O3C K1 1_555 1_555
O1 S1 1_555 1_555
O3 K1C_2 1_555 1_555
K1C O1C 1_555 1_555
K1C_2 N1C 1_555 1_555

#END
