
#######################################################################
#
#                 Cambridge Crystallographic Data Centre
#                                CCDC 
#
#######################################################################
#
# If this CIF has been generated from an entry in the Cambridge 
# Structural Database, then it will include bibliographic, chemical, 
# crystal, experimental, refinement or atomic coordinate data resulting 
# from the CCDC's data processing and validation procedures.
#
#######################################################################

data_VUNXUY
_symmetry_cell_setting           cubic
_symmetry_space_group_name_H-M   'P a -3'
_symmetry_Int_Tables_number      205
_space_group_name_Hall           '-P 2ac 2ab 3'
loop_
_symmetry_equiv_pos_site_id
_symmetry_equiv_pos_as_xyz
1 x,y,z
2 1/2-x,-y,1/2+z
3 -x,1/2+y,1/2-z
4 1/2+x,1/2-y,-z
5 z,x,y
6 1/2+z,1/2-x,-y
7 1/2-z,-x,1/2+y
8 -z,1/2+x,1/2-y
9 y,z,x
10 -y,1/2+z,1/2-x
11 1/2+y,1/2-z,-x
12 1/2-y,-z,1/2+x
13 -x,-y,-z
14 1/2+x,y,1/2-z
15 x,1/2-y,1/2+z
16 1/2-x,1/2+y,z
17 -z,-x,-y
18 1/2-z,1/2+x,y
19 1/2+z,x,1/2-y
20 z,1/2-x,1/2+y
21 -y,-z,-x
22 y,1/2-z,1/2+x
23 1/2-y,1/2+z,x
24 1/2+y,z,1/2-x
_cell_length_a                   20.276(2)
_cell_length_b                   20.276(2)
_cell_length_c                   20.276(2)
_cell_angle_alpha                90
_cell_angle_beta                 90
_cell_angle_gamma                90
_cell_volume                     8335.79
loop_
_atom_site_label
_atom_site_type_symbol
_atom_site_fract_x
_atom_site_fract_y
_atom_site_fract_z
Cu1 Cu 0.84507(3) 0.60641(3) -0.13910(3)
Cu2 Cu 0.72956(3) 0.50424(3) -0.05222(3)
C1 C 0.6905(2) 0.7062(2) -0.0313(2)
H1 H 0.6670 0.6917 0.0084
C2 C 0.6421(2) 0.7319(2) -0.0833(2)
H2 H 0.6295 0.6950 -0.1119
C3 C 0.7317(2) 0.8066(2) -0.0818(2)
H3 H 0.7741 0.8016 -0.1046
C4 C 0.7336(2) 0.7676(2) -0.0166(2)
H4 H 0.7106 0.7940 0.0168
C5 C 0.7283(2) 0.6487(2) -0.0627(2)
C6 C 0.5792(2) 0.7631(2) -0.0559(2)
C7 C 0.7182(2) 0.8792(3) -0.0705(2)
C8 C 0.8023(2) 0.7512(2) 0.0106(2)
O1 O 0.77926(18) 0.66140(17) -0.09453(19)
O2 O 0.6151(5) 0.4863(6) -0.0405(7)
H5 H 0.5887 0.5189 -0.0402
H6 H 0.6002 0.4472 -0.0376
O3 O 0.70156(19) 0.59384(17) -0.0545(2)
O4 O 0.8507(2) 0.5327(3) -0.0580(2)
H7 H 0.8582 0.4916 -0.0615
H8 H 0.8447 0.5426 -0.0178
O5 O 0.7625(2) 0.90990(18) -0.0403(2)
O7 O 0.66534(17) 0.90474(17) -0.09028(18)
O9 O 0.56065(18) 0.81743(18) -0.07888(19)
O11 O 0.54763(18) 0.7303(2) -0.0141(2)
O13 O 0.80064(19) 0.7110(2) 0.05842(19)
O14 O 0.85143(18) 0.77806(18) -0.01283(18)
O15 O 0.68027(16) 0.77780(16) -0.12161(16)
Cu1D Cu 0.86090(3) 0.84507(3) -0.39359(3)
Cu1V Cu 0.89359(3) 0.36090(3) -0.15493(3)
Cu1H Cu 0.60641(3) 0.86090(3) -0.15493(3)
Cu1S Cu 0.86090(3) 0.65493(3) 0.10641(3)
Cu1W Cu 1.10641(3) 0.86090(3) -0.34507(3)
Cu1Q Cu 0.63910(3) 0.34507(3) -0.39359(3)
Cu2D Cu 0.94778(3) 0.72956(3) -0.49576(3)
Cu2V Cu 0.99576(3) 0.44778(3) -0.27044(3)
Cu2O Cu 0.77044(3) 1.00424(3) -0.05222(3)
Cu2R Cu 0.44778(3) 0.72956(3) -0.00424(3)
Cu2S Cu 0.94778(3) 0.77044(3) 0.00424(3)
Cu2W Cu 1.00424(3) 0.94778(3) -0.22956(3)
Cu2I Cu 0.49576(3) 0.44778(3) -0.22956(3)
Cu2A Cu 0.77044(3) 0.49576(3) -0.55222(3)
C1D C 0.9687(2) 0.6905(2) -0.2938(2)
C1V C 0.7938(2) 0.4687(2) -0.3095(2)
H1D H 1.0084 0.6670 -0.3083
H1V H 0.8083 0.5084 -0.3330
C2D C 0.9167(2) 0.6421(2) -0.2681(2)
C2V C 0.7681(2) 0.4167(2) -0.3579(2)
H2D H 0.8881 0.6295 -0.3050
H2V H 0.8050 0.3881 -0.3705
C3D C 0.9182(2) 0.7317(2) -0.1934(2)
C3V C 0.6934(2) 0.4182(2) -0.2683(2)
H3D H 0.8954 0.7741 -0.1984
H3V H 0.6984 0.3954 -0.2259
C4D C 0.9834(2) 0.7336(2) -0.2324(2)
C4V C 0.7324(2) 0.4834(2) -0.2664(2)
H4D H 1.0168 0.7106 -0.2060
H4V H 0.7060 0.5168 -0.2894
C5D C 0.9373(2) 0.7283(2) -0.3513(2)
C5V C 0.8513(2) 0.4373(2) -0.2717(2)
C6D C 0.9441(2) 0.5792(2) -0.2369(2)
C6V C 0.7369(2) 0.4441(2) -0.4208(2)
C7D C 0.9295(2) 0.7182(2) -0.1208(3)
C7V C 0.6208(3) 0.4295(2) -0.2818(2)
C8D C 1.0106(2) 0.8023(2) -0.2488(2)
C8V C 0.7488(2) 0.5106(2) -0.1977(2)
O1D O 0.90547(19) 0.77926(18) -0.33860(17)
O1V O 0.83860(17) 0.40547(19) -0.22074(18)
O2D O 0.9595(7) 0.6151(5) -0.5137(6)
O2V O 1.0137(6) 0.4595(7) -0.3849(5)
H5D H 0.9598 0.5887 -0.4811
H5V H 0.9811 0.4598 -0.4113
H6D H 0.9624 0.6002 -0.5528
H6V H 1.0528 0.4624 -0.3998
O3D O 0.9455(2) 0.70156(19) -0.40616(17)
O3V O 0.90616(17) 0.4455(2) -0.29844(19)
O4D O 0.9420(2) 0.8507(2) -0.4673(3)
O4V O 0.9673(3) 0.4420(2) -0.1493(2)
H7D H 0.9385 0.8582 -0.5084
H7V H 1.0084 0.4385 -0.1418
H8D H 0.9822 0.8447 -0.4574
H8V H 0.9574 0.4822 -0.1553
O5D O 0.9597(2) 0.7625(2) -0.09010(18)
O5V O 0.59010(18) 0.4597(2) -0.2375(2)
O5O O 0.7375(2) 0.40990(18) -0.0403(2)
O5S O 0.9597(2) 0.7375(2) -0.59010(18)
O5I O 1.09010(18) 0.4597(2) -0.2625(2)
O7D O 0.90972(18) 0.66534(17) -0.09526(17)
O7V O 0.59526(17) 0.40972(18) -0.33466(17)
O7H O 0.90474(17) 0.90972(18) -0.33466(17)
O7O O 0.83466(17) 0.40474(17) -0.09028(18)
O9D O 0.92112(19) 0.56065(18) -0.18257(18)
O9V O 0.68257(18) 0.42112(19) -0.43935(18)
O9H O 0.81743(18) 0.92112(19) -0.43935(18)
O9O O 0.93935(18) 0.31743(18) -0.07888(19)
O11D O 0.9859(2) 0.54763(18) -0.2697(2)
O11V O 0.7697(2) 0.4859(2) -0.45237(18)
O11U O 0.7303(2) 0.5141(2) 0.04763(18)
O11M O 1.04763(18) 0.7303(2) -0.4859(2)
O13D O 1.05842(19) 0.80064(19) -0.2890(2)
O13V O 0.7890(2) 0.55842(19) -0.19936(19)
O13N O 0.80064(19) 0.7890(2) -0.44158(19)
O13G O 0.94158(19) 0.30064(19) -0.2110(2)
O14D O 0.98717(18) 0.85143(18) -0.22194(18)
O14V O 0.72194(18) 0.48717(18) -0.14857(18)
O14N O 0.85143(18) 0.72194(18) -0.51283(18)
O14G O 1.01283(18) 0.35143(18) -0.27806(18)
O15D O 0.87839(16) 0.68027(16) -0.22220(16)
O15V O 0.72220(16) 0.37839(16) -0.31973(16)
O15H O 0.77780(16) 0.87839(16) -0.31973(16)
O15O O 0.81973(16) 0.27780(16) -0.12161(16)
O6 O 0.3819(6) 0.3952(6) 0.1900(8)
H9 H 0.3550 0.4254 0.1792
H10 H 0.4189 0.4112 0.2014
O8 O 0.2798(11) 0.2798(11) 0.2798(11)
H12 H 0.3040 0.3040 0.3040
O10 O 0.9133(13) 0.4133(13) 0.0867(13)
H13 H 0.9375 0.4375 0.0625
O12 O 0.4513(15) 0.4188(15) 0.0955(16)
H15 H 0.4264 0.3930 0.1172
H16 H 0.4405 0.4200 0.0550
H11? H 0.2495 0.2713 0.3075
H14? H 0.9191 0.3729 0.0807
loop_
_geom_bond_atom_site_label_1
_geom_bond_atom_site_label_2
_geom_bond_site_symmetry_1
_geom_bond_site_symmetry_2
Cu1 O1 1_555 1_555
Cu2 O2 1_555 1_555
C1 H1 1_555 1_555
C2 C1 1_555 1_555
H2 C2 1_555 1_555
C3 H3 1_555 1_555
C4 C1 1_555 1_555
H4 C4 1_555 1_555
C5 C1 1_555 1_555
C6 C2 1_555 1_555
C7 C3 1_555 1_555
C8 C4 1_555 1_555
O1 C5 1_555 1_555
O2 H5 1_555 1_555
H6 O2 1_555 1_555
O3 Cu2 1_555 1_555
O4 Cu1 1_555 1_555
H7 O4 1_555 1_555
H8 O4 1_555 1_555
O5 C7 1_555 1_555
O6 H9 1_555 1_555
H10 O6 1_555 1_555
O7 C7 1_555 1_555
O8 H12 1_555 1_555
O9 C6 1_555 1_555
O10 H13 1_555 1_555
O11 C6 1_555 1_555
O12 H15 1_555 1_555
H16 O12 1_555 1_555
O13 C8 1_555 1_555
O14 C8 1_555 1_555
O15 C2 1_555 1_555
Cu1D O1D 1_555 1_555
Cu1V O1V 1_555 1_555
Cu1H O7 1_555 1_555
Cu1S O13 1_555 1_555
Cu1W O13D 1_555 1_555
Cu1Q O7V 1_555 1_555
Cu2D O2D 1_555 1_555
Cu2V O2V 1_555 1_555
Cu2O O5 1_555 1_555
Cu2R O11 1_555 1_555
Cu2S O14 1_555 1_555
Cu2W O14D 1_555 1_555
Cu2I O5V 1_555 1_555
Cu2A O11V 1_555 1_555
C1D H1D 1_555 1_555
C1V H1V 1_555 1_555
C2D C1D 1_555 1_555
C2V C1V 1_555 1_555
H2D C2D 1_555 1_555
H2V C2V 1_555 1_555
C3D H3D 1_555 1_555
C3V H3V 1_555 1_555
C4D C1D 1_555 1_555
C4V C1V 1_555 1_555
H4D C4D 1_555 1_555
H4V C4V 1_555 1_555
C5D C1D 1_555 1_555
C5V C1V 1_555 1_555
C6D C2D 1_555 1_555
C6V C2V 1_555 1_555
C7D C3D 1_555 1_555
C7V C3V 1_555 1_555
C8D C4D 1_555 1_555
C8V C4V 1_555 1_555
O1D C5D 1_555 1_555
O1V C5V 1_555 1_555
O2D H5D 1_555 1_555
O2V H5V 1_555 1_555
H6D O2D 1_555 1_555
H6V O2V 1_555 1_555
O3D Cu2D 1_555 1_555
O3V Cu2V 1_555 1_555
O4D Cu1D 1_555 1_555
O4V Cu1V 1_555 1_555
H7D O4D 1_555 1_555
H7V O4V 1_555 1_555
H8D O4D 1_555 1_555
H8V O4V 1_555 1_555
O5D Cu2S 1_555 1_555
O5V C7V 1_555 1_555
O5O Cu2 1_555 1_555
O5S Cu2D 1_555 1_555
O5I Cu2V 1_555 1_555
O7D Cu1 1_555 1_555
O7V C7V 1_555 1_555
O7H Cu1D 1_555 1_555
O7O Cu1V 1_555 1_555
O9D Cu1 1_555 1_555
O9V Cu1Q 1_555 1_555
O9H Cu1D 1_555 1_555
O9O Cu1V 1_555 1_555
O11D Cu2V 1_555 1_555
O11V C6V 1_555 1_555
O11U Cu2 1_555 1_555
O11M Cu2D 1_555 1_555
O13D C8D 1_555 1_555
O13V Cu1 1_555 1_555
O13N Cu1D 1_555 1_555
O13G Cu1V 1_555 1_555
O14D C8D 1_555 1_555
O14V Cu2 1_555 1_555
O14N Cu2D 1_555 1_555
O14G Cu2V 1_555 1_555
O15D Cu1 1_555 1_555
O15V Cu1Q 1_555 1_555
O15H Cu1D 1_555 1_555
O15O Cu1V 1_555 1_555
Cu2 O4 1_555 1_555
C3 C4 1_555 1_555
C3 O15 1_555 1_555
C5 O3 1_555 1_555
O9 Cu1H 1_555 1_555
O15 Cu1H 1_555 1_555
Cu2D O4D 1_555 1_555
Cu2V O4V 1_555 1_555
C2D O15D 1_555 1_555
C2V O15V 1_555 1_555
C3D C4D 1_555 1_555
C3D O15D 1_555 1_555
C3V C4V 1_555 1_555
C3V O15V 1_555 1_555
C5D O3D 1_555 1_555
C5V O3V 1_555 1_555
C6D O9D 1_555 1_555
C6D O11D 1_555 1_555
C6V O9V 1_555 1_555
C7D O5D 1_555 1_555
C7D O7D 1_555 1_555
C8V O13V 1_555 1_555
C8V O14V 1_555 1_555

#END
