
#######################################################################
#
#                 Cambridge Crystallographic Data Centre
#                                CCDC 
#
#######################################################################
#
# If this CIF has been generated from an entry in the Cambridge 
# Structural Database, then it will include bibliographic, chemical, 
# crystal, experimental, refinement or atomic coordinate data resulting 
# from the CCDC's data processing and validation procedures.
#
#######################################################################

data_VUNYIN
_symmetry_cell_setting           monoclinic
_symmetry_space_group_name_H-M   'P 21/n'
_symmetry_Int_Tables_number      14
_space_group_name_Hall           '-P 2yn'
loop_
_symmetry_equiv_pos_site_id
_symmetry_equiv_pos_as_xyz
1 x,y,z
2 1/2-x,1/2+y,1/2-z
3 -x,-y,-z
4 1/2+x,1/2-y,1/2+z
_cell_length_a                   10.194(2)
_cell_length_b                   13.637(3)
_cell_length_c                   21.570(4)
_cell_angle_alpha                90
_cell_angle_beta                 98.92(3)
_cell_angle_gamma                90
_cell_volume                     2962.3
loop_
_atom_site_label
_atom_site_type_symbol
_atom_site_fract_x
_atom_site_fract_y
_atom_site_fract_z
Mn1 Mn 0.71983(6) 0.13694(4) 0.15335(3)
Mn2 Mn 0.99619(6) -0.38949(4) 0.17666(3)
C1 C 0.9945(4) -0.0986(3) 0.23715(17)
H1 H 1.0840 -0.0805 0.2574
C2 C 0.9477(3) -0.0272(3) 0.18303(17)
H2 H 0.9672 -0.0561 0.1439
C3 C 0.7653(3) -0.0608(3) 0.23579(16)
H3 H 0.7222 -0.1244 0.2260
C4 C 0.8935(3) -0.0758(3) 0.28159(16)
H4 H 0.9180 -0.0129 0.3022
C5 C 0.9938(4) -0.2048(3) 0.21478(18)
C6 C 1.0105(4) 0.0748(3) 0.19055(18)
C7 C 0.6703(4) 0.0074(3) 0.26094(17)
C8 C 0.8832(4) -0.1523(3) 0.33298(18)
C9 C 1.2732(4) -0.3672(3) 0.1225(2)
H5 H 1.3104 -0.3688 0.1647
C10 C 1.3586(4) -0.3576(3) 0.0777(2)
H6 H 1.4500 -0.3541 0.0900
C11 C 1.3050(4) -0.3536(3) 0.0157(2)
H7 H 1.3599 -0.3465 -0.0147
C12 C 1.1669(4) -0.3601(3) -0.0021(2)
C13 C 1.1023(5) -0.3570(3) -0.0660(2)
H8 H 1.1533 -0.3491 -0.0979
C14 C 0.9708(5) -0.3653(3) -0.0808(2)
H9 H 0.9320 -0.3625 -0.1227
C15 C 0.8882(4) -0.3782(3) -0.03325(19)
C16 C 0.7498(5) -0.3893(3) -0.0466(2)
H10 H 0.7065 -0.3873 -0.0878
C17 C 0.6799(4) -0.4031(3) 0.0015(2)
H11 H 0.5882 -0.4108 -0.0067
C18 C 0.7462(4) -0.4056(3) 0.0632(2)
H12 H 0.6969 -0.4158 0.0955
C19 C 0.9470(4) -0.3803(3) 0.02975(18)
C20 C 1.0886(4) -0.3704(3) 0.04560(18)
C21 C 0.8665(5) 0.1096(3) 0.0292(2)
H13 H 0.9442 0.1079 0.0581
C22 C 0.8784(5) 0.1061(3) -0.0342(2)
H14 H 0.9612 0.1019 -0.0470
C23 C 0.7640(5) 0.1088(3) -0.0771(2)
H15 H 0.7688 0.1071 -0.1198
C24 C 0.6408(5) 0.1141(3) -0.0571(2)
C25 C 0.5183(5) 0.1227(3) -0.0991(2)
H16 H 0.5187 0.1200 -0.1421
C26 C 0.4018(5) 0.1349(3) -0.0774(2)
H17 H 0.3239 0.1427 -0.1057
C27 C 0.3970(4) 0.1359(3) -0.0116(2)
C28 C 0.2788(5) 0.1475(3) 0.0139(2)
H18 H 0.1983 0.1554 -0.0125
C29 C 0.2827(4) 0.1470(3) 0.0772(2)
H19 H 0.2050 0.1542 0.0944
C30 C 0.4042(4) 0.1357(3) 0.1162(2)
H20 H 0.4053 0.1348 0.1594
C31 C 0.5151(4) 0.1258(3) 0.03158(18)
C32 C 0.6396(4) 0.1170(3) 0.00797(18)
N1 N 1.1422(3) -0.3741(2) 0.10790(16)
N2 N 0.8765(3) -0.3940(2) 0.07759(16)
N3 N 0.7529(3) 0.1153(2) 0.05125(15)
N4 N 0.5179(3) 0.1262(2) 0.09447(16)
O1 O 0.9340(3) 0.14762(19) 0.18390(14)
O3 O 1.1327(3) 0.0794(2) 0.20011(18)
O5 O 0.9484(3) -0.1406(2) 0.38483(14)
O6 O 0.8034(3) -0.22300(19) 0.31597(13)
O7 O 0.6333(3) -0.0146(2) 0.31137(13)
O8 O 0.6322(3) 0.08455(19) 0.23159(14)
O9 O 0.8993(3) -0.23440(19) 0.17504(14)
O10 O 1.0893(3) -0.26025(19) 0.23560(14)
O11 O 0.8049(2) -0.02004(17) 0.17956(11)
O12 O 1.1429(3) -0.4867(2) 0.23100(14)
H25 H 1.1867 -0.4670 0.2655
H26 H 1.1559 -0.5439 0.2175
Mn1A Mn 0.78017(6) -0.36306(4) 0.34665(3)
Mn2A Mn 0.50381(6) 0.11051(4) 0.32334(3)
O6A O 0.6966(3) 0.27700(19) 0.18403(13)
O7A O 0.8667(3) -0.5146(2) 0.18863(13)
O2 O 0.3578(4) 0.8096(2) 0.25885(18)
H21 H 0.2810 0.7838 0.2526
H22 H 0.4129 0.7648 0.2739
O4 O 0.8772(4) 0.1913(3) 0.31243(17)
H23 H 0.7946 0.2073 0.3079
H24 H 0.8913 0.2073 0.2759
loop_
_geom_bond_atom_site_label_1
_geom_bond_atom_site_label_2
_geom_bond_site_symmetry_1
_geom_bond_site_symmetry_2
Mn1 N3 1_555 1_555
Mn2 N1 1_555 1_555
C1 H1 1_555 1_555
C2 C1 1_555 1_555
H2 C2 1_555 1_555
C3 H3 1_555 1_555
C4 C1 1_555 1_555
H4 C4 1_555 1_555
C5 C1 1_555 1_555
C6 C2 1_555 1_555
C7 C3 1_555 1_555
C8 C4 1_555 1_555
C9 H5 1_555 1_555
C10 C9 1_555 1_555
H6 C10 1_555 1_555
C11 C10 1_555 1_555
H7 C11 1_555 1_555
C12 C11 1_555 1_555
C13 C12 1_555 1_555
H8 C13 1_555 1_555
C14 C13 1_555 1_555
H9 C14 1_555 1_555
C15 C14 1_555 1_555
C16 C15 1_555 1_555
H10 C16 1_555 1_555
C17 C16 1_555 1_555
H11 C17 1_555 1_555
C18 C17 1_555 1_555
H12 C18 1_555 1_555
C19 C15 1_555 1_555
C20 C12 1_555 1_555
C21 H13 1_555 1_555
C22 C21 1_555 1_555
H14 C22 1_555 1_555
C23 C22 1_555 1_555
H15 C23 1_555 1_555
C24 C23 1_555 1_555
C25 C24 1_555 1_555
H16 C25 1_555 1_555
C26 C25 1_555 1_555
H17 C26 1_555 1_555
C27 C26 1_555 1_555
C28 C27 1_555 1_555
H18 C28 1_555 1_555
C29 C28 1_555 1_555
H19 C29 1_555 1_555
C30 C29 1_555 1_555
H20 C30 1_555 1_555
C31 C27 1_555 1_555
C32 C24 1_555 1_555
N1 C9 1_555 1_555
N2 Mn2 1_555 1_555
N3 C21 1_555 1_555
N4 Mn1 1_555 1_555
O1 Mn1 1_555 1_555
O2 H21 1_555 1_555
H22 O2 1_555 1_555
O3 C6 1_555 1_555
O4 H23 1_555 1_555
H24 O4 1_555 1_555
O5 C8 1_555 1_555
O6 C8 1_555 1_555
O7 C7 1_555 1_555
O8 Mn1 1_555 1_555
O9 Mn2 1_555 1_555
O10 Mn2 1_555 1_555
O11 Mn1 1_555 1_555
O12 Mn2 1_555 1_555
H25 O12 1_555 1_555
H26 O12 1_555 1_555
Mn1A O6 1_555 1_555
Mn2A O7 1_555 1_555
O6A Mn1 1_555 1_555
O7A Mn2 1_555 1_555
C2 O11 1_555 1_555
C3 C4 1_555 1_555
C3 O11 1_555 1_555
C5 O9 1_555 1_555
C5 O10 1_555 1_555
C6 O1 1_555 1_555
C7 O8 1_555 1_555
C18 N2 1_555 1_555
C19 C20 1_555 1_555
C19 N2 1_555 1_555
C20 N1 1_555 1_555
C30 N4 1_555 1_555
C31 C32 1_555 1_555
C31 N4 1_555 1_555
C32 N3 1_555 1_555

#END
