
#######################################################################
#
#                 Cambridge Crystallographic Data Centre
#                                CCDC 
#
#######################################################################
#
# If this CIF has been generated from an entry in the Cambridge 
# Structural Database, then it will include bibliographic, chemical, 
# crystal, experimental, refinement or atomic coordinate data resulting 
# from the CCDC's data processing and validation procedures.
#
#######################################################################

data_VUNYOT
_symmetry_cell_setting           monoclinic
_symmetry_space_group_name_H-M   'P 21/c'
_symmetry_Int_Tables_number      14
_space_group_name_Hall           '-P 2ybc'
loop_
_symmetry_equiv_pos_site_id
_symmetry_equiv_pos_as_xyz
1 x,y,z
2 -x,1/2+y,1/2-z
3 -x,-y,-z
4 x,1/2-y,1/2+z
_cell_length_a                   10.292(12)
_cell_length_b                   13.955(16)
_cell_length_c                   22.615(18)
_cell_angle_alpha                90
_cell_angle_beta                 108.06(4)
_cell_angle_gamma                90
_cell_volume                     3088.05
loop_
_atom_site_label
_atom_site_type_symbol
_atom_site_fract_x
_atom_site_fract_y
_atom_site_fract_z
Cd1 Cd 0.82055(9) 0.38368(7) 0.82415(4)
Cd2 Cd 0.43229(9) 0.35368(7) 0.64977(4)
C1 C 0.2365(12) 0.5899(9) 0.7357(6)
H1 H 0.1683 0.5723 0.7559
C2 C 0.2322(12) 0.5187(9) 0.6819(5)
H2 H 0.1754 0.5470 0.6427
C3 C 0.4654(12) 0.5514(9) 0.7352(5)
H3 H 0.4972 0.6132 0.7244
C4 C 0.3852(11) 0.5686(9) 0.7798(5)
H4 H 0.3833 0.5089 0.8024
C5 C 0.2164(13) 0.6938(10) 0.7127(7)
C6 C 0.1739(13) 0.4201(11) 0.6890(7)
C7 C 0.5885(13) 0.4867(10) 0.7621(6)
C8 C 0.4462(12) 0.6504(10) 0.8288(6)
C9 C 1.1554(15) 0.3666(10) 0.8797(7)
H5 H 1.1488 0.3685 0.8377
C10 C 1.2865(13) 0.3576(11) 0.9245(8)
H6 H 1.3644 0.3522 0.9122
C11 C 1.2960(14) 0.3571(10) 0.9860(8)
H7 H 1.3811 0.3535 1.0162
C12 C 1.1806(13) 0.3618(9) 1.0032(6)
C13 C 1.1769(16) 0.3627(10) 1.0678(7)
H8 H 1.2599 0.3590 1.0994
C14 C 1.0626(17) 0.3684(11) 1.0845(7)
H9 H 1.0674 0.3656 1.1262
C15 C 0.9325(14) 0.3791(10) 1.0370(6)
C16 C 0.8082(17) 0.3894(11) 1.0512(7)
H10 H 0.8089 0.3911 1.0924
C17 C 0.6900(17) 0.3966(12) 1.0050(9)
H11 H 0.6076 0.4009 1.0136
C18 C 0.6927(15) 0.3975(11) 0.9421(7)
H12 H 0.6107 0.4053 0.9103
C19 C 0.9246(13) 0.3801(10) 0.9735(6)
C20 C 1.0513(14) 0.3717(10) 0.9573(6)
C21 C 0.7136(16) 0.3614(10) 0.6108(7)
H13 H 0.7559 0.3590 0.6536
C22 C 0.7936(17) 0.3571(12) 0.5722(8)
H14 H 0.8881 0.3537 0.5891
C23 C 0.7356(19) 0.3578(11) 0.5100(10)
H15 H 0.7899 0.3521 0.4841
C24 C 0.5932(15) 0.3670(10) 0.4841(7)
C25 C 0.520(2) 0.3702(11) 0.4173(8)
H16 H 0.5684 0.3643 0.3889
C26 C 0.387(2) 0.3812(12) 0.3972(8)
H17 H 0.3435 0.3873 0.3546
C27 C 0.3044(16) 0.3842(11) 0.4391(6)
C28 C 0.1610(19) 0.3885(13) 0.4180(8)
H18 H 0.1143 0.3927 0.3757
C29 C 0.0896(17) 0.3866(13) 0.4611(8)
H19 H -0.0054 0.3887 0.4477
C30 C 0.1613(15) 0.3815(12) 0.5246(7)
H20 H 0.1129 0.3793 0.5531
C31 C 0.3694(14) 0.3792(9) 0.5038(6)
C32 C 0.5178(14) 0.3739(9) 0.5268(6)
N1 N 1.0423(10) 0.3722(8) 0.8955(5)
N2 N 0.8070(11) 0.3878(7) 0.9271(5)
N3 N 0.5779(11) 0.3690(8) 0.5895(5)
N4 N 0.2991(11) 0.3799(8) 0.5454(5)
O1 O 0.6706(8) 0.5110(7) 0.8128(4)
O2 O 0.9154(11) 0.4884(8) 0.7686(5)
H21 H 0.9659 0.4723 0.7468
H22 H 0.9114 0.5489 0.7642
O3 O 0.6054(8) 0.4141(7) 0.7324(4)
O5 O 0.2386(9) 0.3459(7) 0.6820(5)
O7 O 0.0618(11) 0.4188(8) 0.6979(6)
O8 O 0.5076(9) 0.7151(6) 0.8063(4)
O9 O 0.4340(11) 0.6443(7) 0.8802(5)
O10 O 0.2707(10) 0.7215(7) 0.6717(5)
O11 O 0.1493(9) 0.7505(7) 0.7355(4)
O12 O 0.3698(7) 0.5098(6) 0.6791(3)
Cd1A Cd 0.17945(9) 0.88368(7) 0.67585(4)
Cd2A Cd 0.56771(9) 0.85368(7) 0.85023(4)
O8A O 0.4924(9) 0.2151(6) 0.6937(4)
O10A O 0.7293(10) 0.2215(7) 0.8283(5)
O11A O 0.8507(9) 0.2505(7) 0.7645(4)
O4 O 0.0967(13) 0.1899(8) 0.7409(6)
H23 H 0.1805 0.1868 0.7626
H24 H 0.0478 0.2357 0.7211
O6 O 0.4391(13) 0.3090(9) 0.8120(5)
H25 H 0.4887 0.2642 0.8052
H26 H 0.4351 0.3486 0.7829
loop_
_geom_bond_atom_site_label_1
_geom_bond_atom_site_label_2
_geom_bond_site_symmetry_1
_geom_bond_site_symmetry_2
Cd1 N1 1_555 1_555
Cd2 N3 1_555 1_555
C1 H1 1_555 1_555
C2 C1 1_555 1_555
H2 C2 1_555 1_555
C3 H3 1_555 1_555
C4 C1 1_555 1_555
H4 C4 1_555 1_555
C5 C1 1_555 1_555
C6 C2 1_555 1_555
C7 C3 1_555 1_555
C8 C4 1_555 1_555
C9 H5 1_555 1_555
C10 C9 1_555 1_555
H6 C10 1_555 1_555
C11 C10 1_555 1_555
H7 C11 1_555 1_555
C12 C11 1_555 1_555
C13 C12 1_555 1_555
H8 C13 1_555 1_555
C14 C13 1_555 1_555
H9 C14 1_555 1_555
C15 C14 1_555 1_555
C16 C15 1_555 1_555
H10 C16 1_555 1_555
C17 C16 1_555 1_555
H11 C17 1_555 1_555
C18 C17 1_555 1_555
H12 C18 1_555 1_555
C19 C15 1_555 1_555
C20 C12 1_555 1_555
C21 H13 1_555 1_555
C22 C21 1_555 1_555
H14 C22 1_555 1_555
C23 C22 1_555 1_555
H15 C23 1_555 1_555
C24 C23 1_555 1_555
C25 C24 1_555 1_555
H16 C25 1_555 1_555
C26 C25 1_555 1_555
H17 C26 1_555 1_555
C27 C26 1_555 1_555
C28 C27 1_555 1_555
H18 C28 1_555 1_555
C29 C28 1_555 1_555
H19 C29 1_555 1_555
C30 C29 1_555 1_555
H20 C30 1_555 1_555
C31 C27 1_555 1_555
C32 C24 1_555 1_555
N1 C9 1_555 1_555
N2 Cd1 1_555 1_555
N3 C21 1_555 1_555
N4 Cd2 1_555 1_555
O1 Cd1 1_555 1_555
O2 Cd1 1_555 1_555
H21 O2 1_555 1_555
H22 O2 1_555 1_555
O3 Cd1 1_555 1_555
O4 H23 1_555 1_555
H24 O4 1_555 1_555
O5 Cd2 1_555 1_555
O6 H25 1_555 1_555
H26 O6 1_555 1_555
O7 C6 1_555 1_555
O8 C8 1_555 1_555
O9 C8 1_555 1_555
O10 C5 1_555 1_555
O11 C5 1_555 1_555
O12 Cd2 1_555 1_555
Cd1A O10 1_555 1_555
Cd2A O8 1_555 1_555
O8A Cd2 1_555 1_555
O10A Cd1 1_555 1_555
O11A Cd1 1_555 1_555
Cd2 O3 1_555 1_555
C2 O12 1_555 1_555
C3 C4 1_555 1_555
C3 O12 1_555 1_555
C6 O5 1_555 1_555
C7 O1 1_555 1_555
C7 O3 1_555 1_555
C18 N2 1_555 1_555
C19 C20 1_555 1_555
C19 N2 1_555 1_555
C20 N1 1_555 1_555
C30 N4 1_555 1_555
C31 C32 1_555 1_555
C31 N4 1_555 1_555
C32 N3 1_555 1_555
O11 Cd1A 1_555 1_555

#END
