
#######################################################################
#
#                 Cambridge Crystallographic Data Centre
#                                CCDC 
#
#######################################################################
#
# If this CIF has been generated from an entry in the Cambridge 
# Structural Database, then it will include bibliographic, chemical, 
# crystal, experimental, refinement or atomic coordinate data resulting 
# from the CCDC's data processing and validation procedures.
#
#######################################################################

data_VUNYEJ
_symmetry_cell_setting           monoclinic
_symmetry_space_group_name_H-M   'P 21/c'
_symmetry_Int_Tables_number      14
_space_group_name_Hall           '-P 2ybc'
loop_
_symmetry_equiv_pos_site_id
_symmetry_equiv_pos_as_xyz
1 x,y,z
2 -x,1/2+y,1/2-z
3 -x,-y,-z
4 x,1/2-y,1/2+z
_cell_length_a                   8.8222(18)
_cell_length_b                   23.392(5)
_cell_length_c                   15.038(5)
_cell_angle_alpha                90
_cell_angle_beta                 124.92(2)
_cell_angle_gamma                90
_cell_volume                     2544.62
loop_
_atom_site_label
_atom_site_type_symbol
_atom_site_fract_x
_atom_site_fract_y
_atom_site_fract_z
Cu1 Cu 1.27855(8) 0.64390(3) -0.06436(5)
Cu2 Cu 0.67225(8) 0.77524(3) 0.31500(5)
C1 C 0.8928(6) 0.7224(2) 0.1448(4)
H1 H 0.8917 0.6818 0.1282
C2 C 0.7398(6) 0.7523(2) 0.0402(4)
H2 H 0.6927 0.7846 0.0591
C3 C 1.0129(6) 0.7577(2) 0.0489(4)
H3 H 1.0844 0.7894 0.0478
C4 C 1.0703(6) 0.7494(2) 0.1651(4)
H4 H 1.1722 0.7219 0.2026
C5 C 0.8636(7) 0.7266(2) 0.2355(4)
C6 C 0.5822(6) 0.7115(2) -0.0315(4)
C7 C 1.0407(7) 0.7051(2) -0.0003(4)
C8 C 1.1273(6) 0.8054(2) 0.2300(4)
C9 C 0.9062(8) 0.5895(3) -0.2251(5)
H5 H 0.8692 0.6242 -0.2621
C10 C 0.7796(10) 0.5447(3) -0.2652(6)
H6 H 0.6608 0.5495 -0.3275
C11 C 0.8332(11) 0.4929(3) -0.2108(7)
H7 H 0.7509 0.4623 -0.2371
C12 C 1.0121(10) 0.4866(3) -0.1158(6)
C13 C 1.0819(12) 0.4358(3) -0.0505(7)
H8 H 1.0056 0.4040 -0.0710
C14 C 1.2488(13) 0.4334(3) 0.0364(8)
H9 H 1.2897 0.3994 0.0755
C15 C 1.3734(10) 0.4813(3) 0.0748(6)
C16 C 1.5565(12) 0.4813(3) 0.1708(7)
H10 H 1.6056 0.4486 0.2134
C17 C 1.6591(11) 0.5305(3) 0.1994(6)
H11 H 1.7786 0.5314 0.2623
C18 C 1.5838(9) 0.5797(3) 0.1337(5)
H12 H 1.6546 0.6128 0.1549
C19 C 1.3126(8) 0.5319(2) 0.0145(5)
C20 C 1.1300(8) 0.5343(2) -0.0821(5)
N1 N 1.0778(6) 0.58504(19) -0.1364(4)
N2 N 1.4145(6) 0.58001(19) 0.0423(4)
O1 O 0.7569(5) 0.76676(16) 0.2245(3)
O3 O 0.9359(6) 0.69099(19) 0.3090(3)
O5 O 1.1551(4) 0.79937(15) 0.3224(3)
O6 O 1.1501(5) 0.85022(16) 0.1950(3)
O7 O 0.9016(5) 0.68079(15) -0.0803(3)
O8 O 1.2033(5) 0.68795(17) 0.0427(3)
O9 O 0.5412(5) 0.69762(17) -0.1227(3)
O10 O 0.5018(5) 0.69233(16) 0.0103(3)
O11 O 0.8216(4) 0.77383(14) -0.0130(3)
O12 O 0.5069(5) 0.7074(2) 0.2470(3)
H20 H 0.5032 0.6892 0.1969
H21 H 0.4402 0.6968 0.2681
O13 O 0.4714(6) 0.8443(2) 0.1870(3)
H22 H 0.4740 0.8515 0.1324
H23 H 0.3965 0.8622 0.1954
Cu1_2 Cu 0.27855(8) 0.64390(3) -0.06436(5)
Cu1C Cu 1.27855(8) 0.85610(3) 0.43564(5)
Cu2C Cu 0.67225(8) 0.72476(3) -0.18500(5)
O5C O 1.1551(4) 0.70063(15) -0.1776(3)
O7C O 0.9016(5) 0.81921(15) 0.4197(3)
O9C O 0.5412(5) 0.80238(17) 0.3773(3)
O10_2 O 1.5018(5) 0.69233(16) 0.0103(3)
O11C O 0.8216(4) 0.72617(14) 0.4870(3)
C21 C 0.854(3) 0.9134(9) 1.0129(19)
H13 H 0.8983 0.9505 1.0453
H14 H 0.8744 0.8867 1.0671
H15 H 0.7248 0.9155 0.9563
O14 O 0.952(3) 0.8950(7) 0.9687(14)
H24 H 0.9975 0.9225 0.9581
O2 O 0.3132(7) 0.6902(2) 0.4678(4)
H16 H 0.3475 0.7248 0.4842
H17 H 0.2001 0.6942 0.4158
O4 O 0.4542(12) 0.8697(4) 0.8616(6)
H18 H 0.5475 0.8741 0.8592
H19 H 0.3933 0.8423 0.8638
loop_
_geom_bond_atom_site_label_1
_geom_bond_atom_site_label_2
_geom_bond_site_symmetry_1
_geom_bond_site_symmetry_2
Cu1 N1 1_555 1_555
Cu2 O1 1_555 1_555
C1 H1 1_555 1_555
C2 C1 1_555 1_555
H2 C2 1_555 1_555
C3 H3 1_555 1_555
C4 C1 1_555 1_555
H4 C4 1_555 1_555
C5 C1 1_555 1_555
C6 C2 1_555 1_555
C7 C3 1_555 1_555
C8 C4 1_555 1_555
C9 H5 1_555 1_555
C10 C9 1_555 1_555
H6 C10 1_555 1_555
C11 C10 1_555 1_555
H7 C11 1_555 1_555
C12 C11 1_555 1_555
C13 C12 1_555 1_555
H8 C13 1_555 1_555
C14 C13 1_555 1_555
H9 C14 1_555 1_555
C15 C14 1_555 1_555
C16 C15 1_555 1_555
H10 C16 1_555 1_555
C17 C16 1_555 1_555
H11 C17 1_555 1_555
C18 C17 1_555 1_555
H12 C18 1_555 1_555
C19 C15 1_555 1_555
C20 C12 1_555 1_555
C21 H13 1_555 1_555
H14 C21 1_555 1_555
H15 C21 1_555 1_555
N1 C9 1_555 1_555
N2 Cu1 1_555 1_555
O1 C5 1_555 1_555
O2 H16 1_555 1_555
H17 O2 1_555 1_555
O3 C5 1_555 1_555
O4 H18 1_555 1_555
H19 O4 1_555 1_555
O5 C8 1_555 1_555
O6 C8 1_555 1_555
O7 C7 1_555 1_555
O8 Cu1 1_555 1_555
O9 C6 1_555 1_555
O10 C6 1_555 1_555
O11 C2 1_555 1_555
O12 Cu2 1_555 1_555
H20 O12 1_555 1_555
H21 O12 1_555 1_555
O13 Cu2 1_555 1_555
H22 O13 1_555 1_555
H23 O13 1_555 1_555
O14 C21 1_555 1_555
H24 O14 1_555 1_555
Cu1_2 O10 1_555 1_555
Cu1C O5 1_555 1_555
Cu2C O7 1_555 1_555
O5C Cu1 1_555 1_555
O7C Cu2 1_555 1_555
O9C Cu2 1_555 1_555
O10_2 Cu1 1_555 1_555
O11C Cu2 1_555 1_555
C3 C4 1_555 1_555
C3 O11 1_555 1_555
C7 O8 1_555 1_555
C18 N2 1_555 1_555
C19 C20 1_555 1_555
C19 N2 1_555 1_555
C20 N1 1_555 1_555
O9 Cu2C 1_555 1_555
O11 Cu2C 1_555 1_555

#END
