
#######################################################################
#
#                 Cambridge Crystallographic Data Centre
#                                CCDC 
#
#######################################################################
#
# If this CIF has been generated from an entry in the Cambridge 
# Structural Database, then it will include bibliographic, chemical, 
# crystal, experimental, refinement or atomic coordinate data resulting 
# from the CCDC's data processing and validation procedures.
#
#######################################################################

data_VUPDIU
_symmetry_cell_setting           monoclinic
_symmetry_space_group_name_H-M   'C 2/c'
_symmetry_Int_Tables_number      15
_space_group_name_Hall           '-C 2yn'
loop_
_symmetry_equiv_pos_site_id
_symmetry_equiv_pos_as_xyz
1 x,y,z
2 -x,y,1/2-z
3 1/2+x,1/2+y,z
4 1/2-x,1/2+y,1/2-z
5 -x,-y,-z
6 x,-y,1/2+z
7 1/2-x,1/2-y,-z
8 1/2+x,1/2-y,1/2+z
_cell_length_a                   22.4647(5)
_cell_length_b                   14.7540(3)
_cell_length_c                   25.4170(6)
_cell_angle_alpha                90
_cell_angle_beta                 106.8900(10)
_cell_angle_gamma                90
_cell_volume                     8060.93
loop_
_atom_site_label
_atom_site_type_symbol
_atom_site_fract_x
_atom_site_fract_y
_atom_site_fract_z
Au1 Au 0.50000 0.03660(3) 0.25000
Au2 Au 0.50000 0.23223(3) 0.25000
Au3 Au 0.50000 0.53622(3) 0.25000
Au4 Au 0.50000 -0.26982(3) 0.25000
Ag1 Ag 0.52446(3) -0.11809(4) 0.19954(3)
Ag2 Ag 0.42763(3) 0.38234(4) 0.24096(3)
C1 C 0.4885(3) 0.0347(5) 0.1660(3)
C2 C 0.5324(4) 0.0690(5) 0.1432(3)
C3 C 0.5232(4) 0.0833(5) 0.0878(3)
C4 C 0.4650(4) 0.0630(6) 0.0527(3)
C5 C 0.4189(4) 0.0284(6) 0.0721(3)
C6 C 0.4315(4) 0.0159(6) 0.1280(3)
F1 F 0.5899(2) 0.0895(4) 0.17637(18)
Cl1 Cl 0.57955(14) 0.13049(18) 0.06262(10)
F2 F 0.4546(3) 0.0761(4) -0.00120(17)
Cl2 Cl 0.34739(12) 0.0015(2) 0.02727(10)
F3 F 0.3850(2) -0.0159(4) 0.14674(19)
C7 C 0.4198(4) 0.2364(5) 0.1837(3)
C8 C 0.4237(5) 0.2583(5) 0.1315(4)
C9 C 0.3765(5) 0.2453(6) 0.0836(4)
C10 C 0.3218(5) 0.2076(7) 0.0873(4)
C11 C 0.3146(4) 0.1842(7) 0.1377(4)
C12 C 0.3629(4) 0.2002(6) 0.1843(4)
F4 F 0.4781(3) 0.2912(4) 0.1270(2)
Cl3 Cl 0.38553(18) 0.2719(2) 0.02079(11)
F5 F 0.2750(3) 0.1919(5) 0.0424(2)
Cl4 Cl 0.24770(15) 0.1325(2) 0.14104(16)
F6 F 0.3547(2) 0.1780(4) 0.2325(2)
C13 C 0.4097(4) 0.5356(5) 0.1984(3)
C14 C 0.3946(4) 0.5150(5) 0.1424(4)
C15 C 0.3374(4) 0.5288(5) 0.1056(4)
C16 C 0.2920(4) 0.5657(7) 0.1244(4)
C17 C 0.3023(4) 0.5884(7) 0.1783(4)
C18 C 0.3596(4) 0.5729(6) 0.2130(4)
F7 F 0.4399(2) 0.4799(4) 0.1226(2)
Cl5 Cl 0.32353(14) 0.5006(2) 0.03659(12)
F8 F 0.2352(2) 0.5801(4) 0.0878(3)
Cl6 Cl 0.24288(13) 0.6333(2) 0.20047(16)
F9 F 0.3689(2) 0.5965(4) 0.2663(2)
C19 C 0.4594(4) -0.2634(5) 0.1666(3)
C20 C 0.4860(4) -0.2967(5) 0.1273(3)
C21 C 0.4550(4) -0.3031(6) 0.0715(3)
C22 C 0.3948(4) -0.2736(7) 0.0541(4)
C23 C 0.3645(4) -0.2399(6) 0.0901(3)
C24 C 0.3985(4) -0.2363(6) 0.1447(3)
F10 F 0.5446(2) -0.3265(4) 0.1440(2)
Cl7 Cl 0.49041(15) -0.3478(2) 0.02626(11)
F11 F 0.3631(3) -0.2798(4) 0.0006(2)
Cl8 Cl 0.28797(12) -0.2080(2) 0.06729(10)
F12 F 0.3675(2) -0.2045(4) 0.17984(19)
O1 O 0.6149(4) -0.1317(5) 0.1762(3)
C25 C 0.6207(7) -0.1426(11) 0.1218(5)
H1 H 0.6079 -0.2033 0.1087
H2 H 0.5936 -0.0997 0.0972
C26 C 0.6822(8) -0.1281(11) 0.1218(7)
H3 H 0.6864 -0.0696 0.1058
H4 H 0.6954 -0.1749 0.1009
C27 C 0.7202(6) -0.1313(8) 0.1812(6)
H5 H 0.7447 -0.1864 0.189
H6 H 0.7479 -0.0796 0.1904
C28 C 0.6735(6) -0.1290(9) 0.2128(5)
H7 H 0.6796 -0.1805 0.2375
H8 H 0.6786 -0.074 0.2346
O2 O 0.3831(4) 0.3948(5) 0.3109(3)
C29 C 0.4104(7) 0.4464(11) 0.3603(6)
H9 H 0.4499 0.4195 0.3802
H10 H 0.4183 0.5079 0.3505
C30 C 0.3725(7) 0.4487(14) 0.3932(5)
H11 H 0.3548 0.5085 0.3934
H12 H 0.395 0.4321 0.4307
C31 C 0.3233(11) 0.3810(13) 0.3686(8)
H13 H 0.3238 0.3321 0.3942
H14 H 0.2825 0.4091 0.3584
C32 C 0.3385(10) 0.3474(14) 0.3201(7)
H15 H 0.3512 0.2844 0.3256
H16 H 0.302 0.3507 0.2884
Au3_2 Au 0.50000 -0.46378(3) 0.25000
Au4_2 Au 0.50000 0.73018(3) 0.25000
Ag1A Ag 0.47554(3) -0.11809(4) 0.30046(3)
Ag2A Ag 0.57237(3) 0.38234(4) 0.25904(3)
C1A C 0.5115(3) 0.0347(5) 0.3340(3)
C2A C 0.4676(4) 0.0690(5) 0.3568(3)
C3A C 0.4768(4) 0.0833(5) 0.4122(3)
C4A C 0.5350(4) 0.0630(6) 0.4473(3)
C5A C 0.5811(4) 0.0284(6) 0.4279(3)
C6A C 0.5685(4) 0.0159(6) 0.3720(3)
F1A F 0.4101(2) 0.0895(4) 0.32363(18)
Cl1A Cl 0.42045(14) 0.13049(18) 0.43738(10)
F2A F 0.5454(3) 0.0761(4) 0.50120(17)
Cl2A Cl 0.65261(12) 0.0015(2) 0.47273(10)
F3A F 0.6150(2) -0.0159(4) 0.35326(19)
C7A C 0.5802(4) 0.2364(5) 0.3163(3)
C8A C 0.5763(5) 0.2583(5) 0.3685(4)
C9A C 0.6235(5) 0.2453(6) 0.4164(4)
C10A C 0.6782(5) 0.2076(7) 0.4127(4)
C11A C 0.6854(4) 0.1842(7) 0.3623(4)
C12A C 0.6371(4) 0.2002(6) 0.3157(4)
F4A F 0.5219(3) 0.2912(4) 0.3730(2)
Cl3A Cl 0.61447(18) 0.2719(2) 0.47921(11)
F5A F 0.7250(3) 0.1919(5) 0.4576(2)
Cl4A Cl 0.75230(15) 0.1325(2) 0.35896(16)
F6A F 0.6453(2) 0.1780(4) 0.2675(2)
C13A C 0.5903(4) 0.5356(5) 0.3016(3)
C14A C 0.6054(4) 0.5150(5) 0.3576(4)
C15A C 0.6626(4) 0.5288(5) 0.3944(4)
C16A C 0.7080(4) 0.5657(7) 0.3756(4)
C17A C 0.6977(4) 0.5884(7) 0.3217(4)
C18A C 0.6404(4) 0.5729(6) 0.2870(4)
F7A F 0.5601(2) 0.4799(4) 0.3774(2)
Cl5A Cl 0.67647(14) 0.5006(2) 0.46341(12)
F8A F 0.7648(2) 0.5801(4) 0.4122(3)
Cl6A Cl 0.75712(13) 0.6333(2) 0.29953(16)
F9A F 0.6311(2) 0.5965(4) 0.2337(2)
C19A C 0.5406(4) -0.2634(5) 0.3334(3)
C20A C 0.5140(4) -0.2967(5) 0.3727(3)
C21A C 0.5450(4) -0.3031(6) 0.4285(3)
C22A C 0.6052(4) -0.2736(7) 0.4459(4)
C23A C 0.6355(4) -0.2399(6) 0.4099(3)
C24A C 0.6015(4) -0.2363(6) 0.3553(3)
F10A F 0.4554(2) -0.3265(4) 0.3560(2)
Cl7A Cl 0.50959(15) -0.3478(2) 0.47374(11)
F11A F 0.6369(3) -0.2798(4) 0.4994(2)
Cl8A Cl 0.71203(12) -0.2080(2) 0.43271(10)
F12A F 0.6325(2) -0.2045(4) 0.32016(19)
O1A O 0.3851(4) -0.1317(5) 0.3238(3)
C25A C 0.3793(7) -0.1426(11) 0.3782(5)
H1A H 0.3921 -0.2033 0.3913
H2A H 0.4064 -0.0997 0.4028
C26A C 0.3178(8) -0.1281(11) 0.3782(7)
H3A H 0.3136 -0.0696 0.3942
H4A H 0.3046 -0.1749 0.3991
C27A C 0.2798(6) -0.1313(8) 0.3188(6)
H5A H 0.2553 -0.1864 0.311
H6A H 0.2521 -0.0796 0.3096
C28A C 0.3265(6) -0.1290(9) 0.2872(5)
H7A H 0.3204 -0.1805 0.2625
H8A H 0.3214 -0.074 0.2654
O2A O 0.6169(4) 0.3948(5) 0.1891(3)
C29A C 0.5896(7) 0.4464(11) 0.1397(6)
H9A H 0.5501 0.4195 0.1198
H10A H 0.5817 0.5079 0.1495
C30A C 0.6275(7) 0.4487(14) 0.1068(5)
H11A H 0.6452 0.5085 0.1066
H12A H 0.605 0.4321 0.0693
C31A C 0.6767(11) 0.3810(13) 0.1314(8)
H13A H 0.6762 0.3321 0.1058
H14A H 0.7175 0.4091 0.1416
C32A C 0.6615(10) 0.3474(14) 0.1799(7)
H15A H 0.6488 0.2844 0.1744
H16A H 0.698 0.3507 0.2116
loop_
_geom_bond_atom_site_label_1
_geom_bond_atom_site_label_2
_geom_bond_site_symmetry_1
_geom_bond_site_symmetry_2
Au1 Au2 1_555 1_555
Au2 Ag2 1_555 1_555
Au3 Ag2 1_555 1_555
Au4 Ag1 1_555 1_555
Ag1 Au1 1_555 1_555
Ag2 C7 1_555 1_555
C1 Au1 1_555 1_555
C2 C1 1_555 1_555
C3 C2 1_555 1_555
C4 C3 1_555 1_555
C5 C4 1_555 1_555
C6 C1 1_555 1_555
F1 C2 1_555 1_555
Cl1 C3 1_555 1_555
F2 C4 1_555 1_555
Cl2 C5 1_555 1_555
F3 C6 1_555 1_555
C7 Au2 1_555 1_555
C8 C7 1_555 1_555
C9 C8 1_555 1_555
C10 C9 1_555 1_555
C11 C10 1_555 1_555
C12 C7 1_555 1_555
F4 C8 1_555 1_555
Cl3 C9 1_555 1_555
F5 C10 1_555 1_555
Cl4 C11 1_555 1_555
F6 C12 1_555 1_555
C13 Au3 1_555 1_555
C14 C13 1_555 1_555
C15 C14 1_555 1_555
C16 C15 1_555 1_555
C17 C16 1_555 1_555
C18 C13 1_555 1_555
F7 C14 1_555 1_555
Cl5 C15 1_555 1_555
F8 C16 1_555 1_555
Cl6 C17 1_555 1_555
F9 C18 1_555 1_555
C19 Au4 1_555 1_555
C20 C19 1_555 1_555
C21 C20 1_555 1_555
C22 C21 1_555 1_555
C23 C22 1_555 1_555
C24 C19 1_555 1_555
F10 C20 1_555 1_555
Cl7 C21 1_555 1_555
F11 C22 1_555 1_555
Cl8 C23 1_555 1_555
F12 C24 1_555 1_555
O1 Ag1 1_555 1_555
C25 O1 1_555 1_555
H1 C25 1_555 1_555
H2 C25 1_555 1_555
C26 C25 1_555 1_555
H3 C26 1_555 1_555
H4 C26 1_555 1_555
C27 C26 1_555 1_555
H5 C27 1_555 1_555
H6 C27 1_555 1_555
C28 O1 1_555 1_555
H7 C28 1_555 1_555
H8 C28 1_555 1_555
O2 Ag2 1_555 1_555
C29 O2 1_555 1_555
H9 C29 1_555 1_555
H10 C29 1_555 1_555
C30 C29 1_555 1_555
H11 C30 1_555 1_555
H12 C30 1_555 1_555
C31 C30 1_555 1_555
H13 C31 1_555 1_555
H14 C31 1_555 1_555
C32 O2 1_555 1_555
H15 C32 1_555 1_555
H16 C32 1_555 1_555
Au3_2 Au4 1_555 1_555
Au4_2 Au3 1_555 1_555
Ag1A Au1 1_555 1_555
Ag2A Au2 1_555 1_555
C1A Au1 1_555 1_555
C2A C1A 1_555 1_555
C3A C2A 1_555 1_555
C4A C3A 1_555 1_555
C5A C4A 1_555 1_555
C6A C1A 1_555 1_555
F1A C2A 1_555 1_555
Cl1A C3A 1_555 1_555
F2A C4A 1_555 1_555
Cl2A C5A 1_555 1_555
F3A C6A 1_555 1_555
C7A Au2 1_555 1_555
C8A C7A 1_555 1_555
C9A C8A 1_555 1_555
C10A C9A 1_555 1_555
C11A C10A 1_555 1_555
C12A C7A 1_555 1_555
F4A C8A 1_555 1_555
Cl3A C9A 1_555 1_555
F5A C10A 1_555 1_555
Cl4A C11A 1_555 1_555
F6A C12A 1_555 1_555
C13A Au3 1_555 1_555
C14A C13A 1_555 1_555
C15A C14A 1_555 1_555
C16A C15A 1_555 1_555
C17A C16A 1_555 1_555
C18A C13A 1_555 1_555
F7A C14A 1_555 1_555
Cl5A C15A 1_555 1_555
F8A C16A 1_555 1_555
Cl6A C17A 1_555 1_555
F9A C18A 1_555 1_555
C19A Au4 1_555 1_555
C20A C19A 1_555 1_555
C21A C20A 1_555 1_555
C22A C21A 1_555 1_555
C23A C22A 1_555 1_555
C24A C19A 1_555 1_555
F10A C20A 1_555 1_555
Cl7A C21A 1_555 1_555
F11A C22A 1_555 1_555
Cl8A C23A 1_555 1_555
F12A C24A 1_555 1_555
O1A Ag1A 1_555 1_555
C25A O1A 1_555 1_555
H1A C25A 1_555 1_555
H2A C25A 1_555 1_555
C26A C25A 1_555 1_555
H3A C26A 1_555 1_555
H4A C26A 1_555 1_555
C27A C26A 1_555 1_555
H5A C27A 1_555 1_555
H6A C27A 1_555 1_555
C28A O1A 1_555 1_555
H7A C28A 1_555 1_555
H8A C28A 1_555 1_555
O2A Ag2A 1_555 1_555
C29A O2A 1_555 1_555
H9A C29A 1_555 1_555
H10A C29A 1_555 1_555
C30A C29A 1_555 1_555
H11A C30A 1_555 1_555
H12A C30A 1_555 1_555
C31A C30A 1_555 1_555
H13A C31A 1_555 1_555
H14A C31A 1_555 1_555
C32A O2A 1_555 1_555
H15A C32A 1_555 1_555
H16A C32A 1_555 1_555
Au3 Ag2A 1_555 1_555
Au4 Ag1A 1_555 1_555
Ag1 C1 1_555 1_555
Ag1 C19 1_555 1_555
Ag1 Ag1A 1_555 1_555
Ag2 C13 1_555 1_555
Ag2 Ag2A 1_555 1_555
C5 C6 1_555 1_555
C11 C12 1_555 1_555
C17 C18 1_555 1_555
C23 C24 1_555 1_555
C27 C28 1_555 1_555
C31 C32 1_555 1_555
Ag1A C1A 1_555 1_555
Ag1A C19A 1_555 1_555
Ag2A C7A 1_555 1_555
Ag2A C13A 1_555 1_555
C5A C6A 1_555 1_555
C11A C12A 1_555 1_555
C17A C18A 1_555 1_555
C23A C24A 1_555 1_555
C27A C28A 1_555 1_555
C31A C32A 1_555 1_555

#END
