
#######################################################################
#
#                 Cambridge Crystallographic Data Centre
#                                CCDC 
#
#######################################################################
#
# If this CIF has been generated from an entry in the Cambridge 
# Structural Database, then it will include bibliographic, chemical, 
# crystal, experimental, refinement or atomic coordinate data resulting 
# from the CCDC's data processing and validation procedures.
#
#######################################################################

data_VUPJIA
_symmetry_cell_setting           monoclinic
_symmetry_space_group_name_H-M   'P 21/c'
_symmetry_Int_Tables_number      14
_space_group_name_Hall           '-P 2ybc'
loop_
_symmetry_equiv_pos_site_id
_symmetry_equiv_pos_as_xyz
1 x,y,z
2 -x,1/2+y,1/2-z
3 -x,-y,-z
4 x,1/2-y,1/2+z
_cell_length_a                   11.6707(6)
_cell_length_b                   8.1019(4)
_cell_length_c                   20.9503(11)
_cell_angle_alpha                90
_cell_angle_beta                 94.6640(10)
_cell_angle_gamma                90
_cell_volume                     1974.39
loop_
_atom_site_label
_atom_site_type_symbol
_atom_site_fract_x
_atom_site_fract_y
_atom_site_fract_z
Cd1 Cd 0.50249(3) 0.98823(5) 0.136930(18)
K1 K 0.34901(12) 0.81125(18) -0.00851(6)
K2 K 0.51101(13) 0.51092(16) 0.18314(6)
N1 N 0.1205(8) 0.9765(11) -0.0463(5)
H1 H 0.0760 0.9011 -0.0680
H2 H 0.1342 1.0569 -0.0744
C1 C 0.7071(5) 0.6584(7) 0.0332(3)
C2 C 0.7055(5) 0.6560(7) -0.0339(3)
C3 C 0.7798(5) 0.5496(8) -0.0630(3)
H3 H 0.7790 0.5467 -0.1074
C4 C 0.8548(6) 0.4483(9) -0.0263(4)
H4 H 0.9039 0.3780 -0.0461
C5 C 0.8566(6) 0.4514(8) 0.0398(4)
H5 H 0.9077 0.3840 0.0642
C6 C 0.7831(5) 0.5541(8) 0.0697(3)
H6 H 0.7838 0.5542 0.1141
C7 C 0.6315(5) 0.7706(8) 0.0687(3)
C8 C 0.6283(5) 0.7684(7) -0.0750(3)
C9 C 0.1955(5) 0.7880(7) 0.2047(3)
C10 C 0.2037(5) 0.7235(7) 0.2672(3)
C11 C 0.1029(6) 0.6911(9) 0.2965(3)
H7 H 0.1076 0.6516 0.3383
C12 C -0.0035(6) 0.7168(11) 0.2644(4)
H8 H -0.0697 0.6933 0.2846
C13 C -0.0121(6) 0.7772(10) 0.2028(4)
H9 H -0.0839 0.7926 0.1810
C14 C 0.0865(5) 0.8150(8) 0.1734(3)
H10 H 0.0803 0.8589 0.1323
C15 C 0.2993(5) 0.8389(7) 0.1719(3)
C16 C 0.3155(5) 0.6768(7) 0.3030(3)
C17 C 0.0571(10) 1.0436(15) -0.0025(6)
H11 H 0.1006 1.0404 0.0390
H12 H 0.0425 1.1585 -0.0133
O1 O 0.5343(4) 0.7208(6) 0.0820(2)
O2 O 0.6717(4) 0.9072(6) 0.0872(2)
O3 O 0.5684(3) 0.8733(5) -0.04687(18)
O4 O 0.6252(4) 0.7570(6) -0.13452(19)
O5 O 0.3927(3) 0.8646(5) 0.20658(18)
O6 O 0.2907(4) 0.8611(7) 0.11317(19)
O7 O 0.3690(4) 0.5550(5) 0.28054(19)
O8 O 0.3480(4) 0.7464(5) 0.35429(19)
O9 O 0.6896(4) 0.7121(6) 0.2329(2)
H13 H 0.6786 0.7214 0.2748
H14 H 0.6826 0.8170 0.2190
Cd1B Cd 0.49751(3) 1.01177(5) -0.136930(18)
Cd1A Cd 0.49751(3) 0.48823(5) 0.363070(18)
Cd1A_2 Cd 0.49751(3) 1.48823(5) 0.363070(18)
K1B K 0.65099(12) 1.18875(18) 0.00851(6)
K1C K 0.34901(12) 0.68875(18) 0.49149(6)
K1B_2 K -0.34901(12) 1.18875(18) 0.00851(6)
K1A K 0.65099(12) 1.31125(18) 0.50851(6)
K2B K 0.48899(13) 1.48908(16) -0.18314(6)
K2B_2 K 0.48899(13) 0.48908(16) -0.18314(6)
K2A K 0.48899(13) 1.01092(16) 0.31686(6)
K2_2 K 0.51101(13) 1.51092(16) 0.18314(6)
N1B N -0.1205(8) 1.0235(11) 0.0463(5)
N1B_2 N 0.8795(8) 1.0235(11) 0.0463(5)
H1B H -0.0760 1.0989 0.0680
H1B_2 H 0.9240 1.0989 0.0680
H2B H -0.1342 0.9431 0.0744
H2B_2 H 0.8658 0.9431 0.0744
C1B C 0.2929(5) 1.3416(7) -0.0332(3)
C2B C 0.2945(5) 1.3440(7) 0.0339(3)
C3B C 0.2202(5) 1.4504(8) 0.0630(3)
H3B H 0.2210 1.4533 0.1074
C4B C 0.1452(6) 1.5517(9) 0.0263(4)
H4B H 0.0961 1.6220 0.0461
C5B C 0.1434(6) 1.5486(8) -0.0398(4)
H5B H 0.0923 1.6160 -0.0642
C6B C 0.2169(5) 1.4459(8) -0.0697(3)
H6B H 0.2162 1.4458 -0.1141
C7B C 0.3685(5) 1.2294(8) -0.0687(3)
C8B C 0.3717(5) 1.2316(7) 0.0750(3)
C9A C 0.8045(5) 1.2880(7) 0.2953(3)
C10A C 0.7963(5) 1.2235(7) 0.2328(3)
C11A C 0.8971(6) 1.1911(9) 0.2035(3)
H7A H 0.8924 1.1516 0.1617
C12A C 1.0035(6) 1.2168(11) 0.2356(4)
H8A H 1.0697 1.1933 0.2154
C13A C 1.0121(6) 1.2772(10) 0.2972(4)
H9A H 1.0839 1.2926 0.3190
C14A C 0.9135(5) 1.3150(8) 0.3266(3)
H10A H 0.9197 1.3589 0.3677
C15A C 0.7007(5) 1.3389(7) 0.3281(3)
C16A C 0.6845(5) 1.1768(7) 0.1970(3)
C17B C -0.0571(10) 0.9564(15) 0.0025(6)
H11B H -0.1006 0.9596 -0.0390
H12B H -0.0425 0.8415 0.0133
O1B O 0.4657(4) 1.2792(6) -0.0820(2)
O2B O 0.3283(4) 1.0928(6) -0.0872(2)
O3B O 0.4316(3) 1.1267(5) 0.04687(18)
O4B O 0.3748(4) 1.2430(6) 0.13452(19)
O4B_2 O 0.3748(4) 0.2430(6) 0.13452(19)
O4_2 O 0.6252(4) 1.7570(6) -0.13452(19)
O5A O 0.6073(3) 1.3646(5) 0.29342(18)
O5A_2 O 0.6073(3) 0.3646(5) 0.29342(18)
O5B O 0.6073(3) 1.1354(5) -0.20658(18)
O5C O 0.3927(3) 1.6354(5) -0.29342(18)
O6A O 0.7093(4) 1.3611(7) 0.38683(19)
O6B O 0.7093(4) 1.1389(7) -0.11317(19)
O7A O 0.6310(4) 1.0550(5) 0.21946(19)
O7C O 0.3690(4) 0.9450(5) -0.21946(19)
O7B O 0.6310(4) 1.4450(5) -0.28054(19)
O8A O 0.6520(4) 1.2464(5) 0.14571(19)
O8C O 0.3480(4) 0.7536(5) -0.14571(19)
O8A_2 O 0.6520(4) 0.2464(5) 0.14571(19)
O8C_2 O 0.3480(4) 1.7536(5) -0.14571(19)
O9B O 0.3104(4) 1.2879(6) -0.2329(2)
H13B H 0.3214 1.2786 -0.2748
H14B H 0.3174 1.1830 -0.2190
loop_
_geom_bond_atom_site_label_1
_geom_bond_atom_site_label_2
_geom_bond_site_symmetry_1
_geom_bond_site_symmetry_2
Cd1 O1 1_555 1_555
K1 N1 1_555 1_555
K2 O1 1_555 1_555
N1 H1 1_555 1_555
H2 N1 1_555 1_555
C1 C2 1_555 1_555
C2 C3 1_555 1_555
C3 H3 1_555 1_555
C4 C3 1_555 1_555
H4 C4 1_555 1_555
C5 C4 1_555 1_555
H5 C5 1_555 1_555
C6 C1 1_555 1_555
H6 C6 1_555 1_555
C7 C1 1_555 1_555
C8 C2 1_555 1_555
C9 C10 1_555 1_555
C10 C11 1_555 1_555
C11 H7 1_555 1_555
C12 C11 1_555 1_555
H8 C12 1_555 1_555
C13 C12 1_555 1_555
H9 C13 1_555 1_555
C14 C9 1_555 1_555
H10 C14 1_555 1_555
C15 C9 1_555 1_555
C16 C10 1_555 1_555
C17 N1 1_555 1_555
H11 C17 1_555 1_555
H12 C17 1_555 1_555
O1 K1 1_555 1_555
O2 Cd1 1_555 1_555
O3 K1 1_555 1_555
O4 C8 1_555 1_555
O5 Cd1 1_555 1_555
O6 K1 1_555 1_555
O7 K2 1_555 1_555
O8 C16 1_555 1_555
O9 K2 1_555 1_555
H13 O9 1_555 1_555
H14 O9 1_555 1_555
Cd1B O3 1_555 1_555
Cd1A O7 1_555 1_555
Cd1A_2 O5A 1_555 1_555
K1B O2 1_555 1_555
K1C O8 1_555 1_555
K1B_2 N1B 1_555 1_555
K1A O6A 1_555 1_555
K2B O1B 1_555 1_555
K2B_2 O4 1_555 1_555
K2A O5 1_555 1_555
K2_2 O4B 1_555 1_555
N1B H1B 1_555 1_555
N1B_2 K1B 1_555 1_555
H1B_2 N1B_2 1_555 1_555
H2B N1B 1_555 1_555
H2B_2 N1B_2 1_555 1_555
C1B C2B 1_555 1_555
C2B C3B 1_555 1_555
C3B H3B 1_555 1_555
C4B C3B 1_555 1_555
H4B C4B 1_555 1_555
C5B C4B 1_555 1_555
H5B C5B 1_555 1_555
C6B C1B 1_555 1_555
H6B C6B 1_555 1_555
C7B C1B 1_555 1_555
C8B C2B 1_555 1_555
C9A C10A 1_555 1_555
C10A C11A 1_555 1_555
C11A H7A 1_555 1_555
C12A C11A 1_555 1_555
H8A C12A 1_555 1_555
C13A C12A 1_555 1_555
H9A C13A 1_555 1_555
C14A C9A 1_555 1_555
H10A C14A 1_555 1_555
C15A C9A 1_555 1_555
C16A C10A 1_555 1_555
C17B C17 1_555 1_555
H11B C17B 1_555 1_555
H12B C17B 1_555 1_555
O1B Cd1B 1_555 1_555
O2B K1 1_555 1_555
O3B Cd1 1_555 1_555
O4B Cd1 1_555 1_555
O4B_2 K2 1_555 1_555
O4_2 K2B 1_555 1_555
O5A K2A 1_555 1_555
O5A_2 K2 1_555 1_555
O5B Cd1B 1_555 1_555
O5C K2B 1_555 1_555
O6A C15A 1_555 1_555
O6B K1B 1_555 1_555
O7A Cd1 1_555 1_555
O7C Cd1B 1_555 1_555
O7B K2B 1_555 1_555
O8A K1B 1_555 1_555
O8C K1 1_555 1_555
O8A_2 K2 1_555 1_555
O8C_2 K2B 1_555 1_555
O9B K2B 1_555 1_555
H13B O9B 1_555 1_555
H14B O9B 1_555 1_555
K1 O3B 1_555 1_555
K2 O5 1_555 1_555
C5 C6 1_555 1_555
C7 O1 1_555 1_555
C7 O2 1_555 1_555
C8 O3 1_555 1_555
C13 C14 1_555 1_555
C15 O5 1_555 1_555
C15 O6 1_555 1_555
C16 O7 1_555 1_555
O3 K1B 1_555 1_555
O4 Cd1B 1_555 1_555
O8 K2A 1_555 1_555
Cd1B O2B 1_555 1_555
Cd1A O5A_2 1_555 1_555
K1B O1B 1_555 1_555
K1B O3B 1_555 1_555
K2B O5B 1_555 1_555
K2B_2 O8C 1_555 1_555
K2A O7A 1_555 1_555
K2_2 O5A 1_555 1_555
K2_2 O8A 1_555 1_555
N1B C17B 1_555 1_555
C5B C6B 1_555 1_555
C7B O1B 1_555 1_555
C7B O2B 1_555 1_555
C8B O3B 1_555 1_555
C8B O4B 1_555 1_555
C13A C14A 1_555 1_555
C15A O5A 1_555 1_555
C16A O7A 1_555 1_555
C16A O8A 1_555 1_555

#END
