
#######################################################################
#
#                 Cambridge Crystallographic Data Centre
#                                CCDC 
#
#######################################################################
#
# If this CIF has been generated from an entry in the Cambridge 
# Structural Database, then it will include bibliographic, chemical, 
# crystal, experimental, refinement or atomic coordinate data resulting 
# from the CCDC's data processing and validation procedures.
#
#######################################################################

data_VUPLUO
_symmetry_cell_setting           monoclinic
_symmetry_space_group_name_H-M   'P 21'
_symmetry_Int_Tables_number      4
_space_group_name_Hall           'P 2yb'
loop_
_symmetry_equiv_pos_site_id
_symmetry_equiv_pos_as_xyz
1 x,y,z
2 -x,1/2+y,-z
_cell_length_a                   10.358(5)
_cell_length_b                   12.915(6)
_cell_length_c                   28.398(13)
_cell_angle_alpha                90
_cell_angle_beta                 90.220(8)
_cell_angle_gamma                90
_cell_volume                     3798.87
loop_
_atom_site_label
_atom_site_type_symbol
_atom_site_fract_x
_atom_site_fract_y
_atom_site_fract_z
Sn1 Sn 0.9490(3) 0.30315(18) 0.02813(7)
Sn2 Sn 0.73812(16) 0.03331(19) 0.27766(6)
Sn3 Sn 0.23750(17) 0.02018(19) 0.22201(6)
Sn4 Sn 0.4495(3) -0.25060(18) 0.47165(7)
N1 N 0.899(2) -0.0170(19) 0.1060(8)
N2 N 0.941(3) -0.1005(19) 0.0758(11)
N3 N 0.983(3) -0.059(2) 0.0377(7)
N4 N 0.972(3) 0.034(3) 0.0387(7)
N5 N 0.403(2) 0.0737(19) 0.3952(8)
N6 N 0.444(3) 0.160(2) 0.4196(8)
N7 N 0.485(3) 0.113(2) 0.4614(8)
N8 N 0.463(3) 0.018(2) 0.4637(7)
O1 O 0.9351(19) 0.001(2) 0.2291(6)
O2 O 1.0779(18) -0.0101(19) 0.1727(6)
O3 O 0.577(2) 0.060(2) 0.3295(5)
O4 O 0.4354(17) 0.0428(18) 0.2712(6)
S1 S 0.8878(11) 0.1889(7) 0.0988(3)
S2 S 0.3873(10) -0.1344(7) 0.4001(3)
C1 C 0.922(4) 0.069(3) 0.0805(11)
C2 C 0.960(3) -0.010(3) 0.1912(12)
C3 C 0.856(3) -0.029(3) 0.1509(10)
H1 H 0.8221 -0.0982 0.1542
H2 H 0.7851 0.0191 0.1558
C4 C 0.429(3) -0.025(3) 0.4215(11)
C5 C 0.467(3) 0.058(3) 0.3109(12)
C6 C 0.357(3) 0.080(3) 0.3473(10)
H3 H 0.3226 0.1489 0.3416
H4 H 0.2876 0.0308 0.3428
C7 C 1.1552(16) 0.275(2) 0.0204(11)
H5 H 1.1764 0.2208 0.0428
H6 H 1.1658 0.2445 -0.0106
C8 C 1.263(2) 0.356(2) 0.0252(10)
H7 H 1.2710 0.3941 -0.0042
H8 H 1.2399 0.4057 0.0495
C9 C 1.393(2) 0.306(3) 0.0376(9)
H9 H 1.3862 0.2314 0.0329
H10 H 1.4588 0.3317 0.0165
C10 C 1.433(3) 0.327(3) 0.0880(9)
H11 H 1.3769 0.3781 0.1014
H12 H 1.5203 0.3519 0.0886
H13 H 1.4275 0.2641 0.1060
C11 C 0.932(3) 0.4403(19) 0.0713(10)
H14 H 0.9448 0.4213 0.1041
H15 H 1.0001 0.4886 0.0629
C12 C 0.804(3) 0.493(2) 0.0659(9)
H16 H 0.7356 0.4428 0.0719
H17 H 0.7941 0.5167 0.0337
C13 C 0.787(3) 0.585(2) 0.0994(9)
H18 H 0.8300 0.6451 0.0861
H19 H 0.6954 0.6017 0.1016
C14 C 0.839(4) 0.566(3) 0.1484(9)
H20 H 0.8432 0.6301 0.1654
H21 H 0.9243 0.5368 0.1462
H22 H 0.7837 0.5185 0.1646
C15 C 0.855(3) 0.233(2) -0.0319(8)
H23 H 0.7905 0.2841 -0.0403
H24 H 0.9204 0.2384 -0.0561
C16 C 0.790(3) 0.1348(18) -0.0440(9)
H25 H 0.7689 0.0988 -0.0151
H26 H 0.8505 0.0916 -0.0612
C17 C 0.667(2) 0.147(3) -0.0735(8)
H27 H 0.6089 0.0903 -0.0661
H28 H 0.6247 0.2109 -0.0648
C18 C 0.692(3) 0.147(3) -0.1257(8)
H29 H 0.6464 0.0909 -0.1402
H30 H 0.7826 0.1403 -0.1314
H31 H 0.6617 0.2116 -0.1389
C19 C 0.881(2) 0.062(3) 0.3327(6)
H32 H 0.9582 0.0224 0.3257
H33 H 0.9050 0.1349 0.3318
C20 C 0.839(2) 0.036(3) 0.3818(7)
H34 H 0.8303 -0.0383 0.3845
H35 H 0.7538 0.0662 0.3869
C21 C 0.931(3) 0.075(3) 0.4206(7)
H36 H 0.8876 0.1286 0.4386
H37 H 0.9499 0.0184 0.4419
C22 C 1.057(3) 0.118(3) 0.4026(10)
H38 H 1.1030 0.1503 0.4281
H39 H 1.0393 0.1691 0.3787
H40 H 1.1076 0.0634 0.3896
C23 C 0.675(3) -0.1200(14) 0.2553(9)
H41 H 0.6038 -0.1115 0.2333
H42 H 0.7453 -0.1524 0.2383
C24 C 0.633(3) -0.1929(19) 0.2936(8)
H43 H 0.5426 -0.1795 0.3006
H44 H 0.6823 -0.1782 0.3218
C25 C 0.648(3) -0.3074(17) 0.2816(10)
H45 H 0.5829 -0.3468 0.2984
H46 H 0.6328 -0.3170 0.2482
C26 C 0.780(3) -0.349(3) 0.2942(12)
H47 H 0.8363 -0.2927 0.3026
H48 H 0.8156 -0.3853 0.2676
H49 H 0.7733 -0.3958 0.3204
C27 C 0.705(3) 0.1711(14) 0.2350(8)
H50 H 0.7621 0.1703 0.2081
H51 H 0.6166 0.1709 0.2234
C28 C 0.729(3) 0.2707(19) 0.2643(9)
H52 H 0.6879 0.2640 0.2948
H53 H 0.8209 0.2796 0.2694
C29 C 0.675(3) 0.3649(17) 0.2390(10)
H54 H 0.7203 0.3732 0.2093
H55 H 0.6925 0.4260 0.2579
C30 C 0.531(3) 0.358(3) 0.2294(11)
H56 H 0.4909 0.4225 0.2375
H57 H 0.4947 0.3033 0.2479
H58 H 0.5170 0.3439 0.1966
C31 C 0.374(2) -0.018(3) 0.1663(6)
H59 H 0.4536 0.0194 0.1735
H60 H 0.3939 -0.0908 0.1694
C32 C 0.345(2) 0.002(3) 0.1148(7)
H61 H 0.2891 0.0616 0.1123
H62 H 0.2983 -0.0573 0.1024
C33 C 0.464(2) 0.020(3) 0.0839(8)
H63 H 0.4887 0.0925 0.0856
H64 H 0.4429 0.0043 0.0514
C34 C 0.578(2) -0.048(3) 0.1001(11)
H65 H 0.6006 -0.0948 0.0753
H66 H 0.5534 -0.0861 0.1276
H67 H 0.6506 -0.0044 0.1074
C35 C 0.209(3) -0.1170(16) 0.2649(9)
H68 H 0.2945 -0.1481 0.2672
H69 H 0.1908 -0.0904 0.2961
C36 C 0.119(2) -0.2074(19) 0.2589(10)
H70 H 0.0502 -0.1879 0.2373
H71 H 0.0797 -0.2232 0.2890
C37 C 0.186(3) -0.3047(18) 0.2402(9)
H72 H 0.2643 -0.2850 0.2238
H73 H 0.1297 -0.3393 0.2178
C38 C 0.220(4) -0.379(2) 0.2805(11)
H74 H 0.2774 -0.3457 0.3022
H75 H 0.2608 -0.4399 0.2679
H76 H 0.1422 -0.3991 0.2966
C39 C 0.164(3) 0.1676(13) 0.2439(9)
H77 H 0.0774 0.1790 0.2320
H78 H 0.1636 0.1735 0.2780
C40 C 0.259(2) 0.242(2) 0.2222(10)
H79 H 0.3124 0.2048 0.2002
H80 H 0.3144 0.2691 0.2469
C41 C 0.196(3) 0.333(2) 0.1967(10)
H81 H 0.1829 0.3142 0.1639
H82 H 0.2537 0.3917 0.1978
C42 C 0.066(3) 0.363(2) 0.2182(12)
H83 H 0.0278 0.4179 0.1998
H84 H 0.0791 0.3872 0.2499
H85 H 0.0093 0.3046 0.2184
C43 C 0.6449(17) -0.196(2) 0.4819(10)
H86 H 0.6529 -0.1242 0.4728
H87 H 0.6713 -0.2038 0.5145
C44 C 0.727(2) -0.267(2) 0.4493(10)
H88 H 0.7229 -0.3382 0.4600
H89 H 0.6944 -0.2639 0.4173
C45 C 0.868(2) -0.227(2) 0.4512(11)
H90 H 0.8885 -0.1940 0.4215
H91 H 0.8758 -0.1759 0.4759
C46 C 0.965(3) -0.313(3) 0.4602(12)
H92 H 0.9505 -0.3416 0.4908
H93 H 1.0507 -0.2847 0.4587
H94 H 0.9549 -0.3656 0.4367
C47 C 0.288(2) -0.199(3) 0.5143(8)
H95 H 0.2282 -0.1571 0.4959
H96 H 0.2419 -0.2568 0.5278
C48 C 0.354(3) -0.134(3) 0.5523(9)
H97 H 0.3630 -0.0635 0.5415
H98 H 0.4394 -0.1618 0.5584
C49 C 0.274(3) -0.136(3) 0.5986(7)
H99 H 0.2847 -0.2019 0.6145
H100 H 0.3026 -0.0815 0.6195
C50 C 0.131(3) -0.120(3) 0.5858(11)
H101 H 0.1033 -0.0529 0.5966
H102 H 0.0795 -0.1725 0.6007
H103 H 0.1200 -0.1241 0.5523
C51 C 0.415(3) -0.3967(17) 0.4374(11)
H104 H 0.4681 -0.3939 0.4095
H105 H 0.4555 -0.4469 0.4580
C52 C 0.293(3) -0.4508(19) 0.4208(10)
H106 H 0.2497 -0.4800 0.4480
H107 H 0.2357 -0.3997 0.4070
C53 C 0.315(3) -0.536(2) 0.3852(11)
H108 H 0.3753 -0.5857 0.3982
H109 H 0.3526 -0.5066 0.3571
C54 C 0.190(3) -0.593(2) 0.3717(12)
H110 H 0.1394 -0.6045 0.3994
H111 H 0.2110 -0.6577 0.3573
H112 H 0.1416 -0.5511 0.3499
Sn3_2 Sn 1.23750(17) 0.02018(19) 0.22201(6)
O2_2 O 0.0779(18) -0.0101(19) 0.1727(6)
loop_
_geom_bond_atom_site_label_1
_geom_bond_atom_site_label_2
_geom_bond_site_symmetry_1
_geom_bond_site_symmetry_2
Sn1 S1 1_555 1_555
Sn2 O1 1_555 1_555
Sn3 O4 1_555 1_555
Sn4 S2 1_555 1_555
N1 N2 1_555 1_555
N2 N3 1_555 1_555
N3 N4 1_555 1_555
N4 C1 1_555 1_555
N5 N6 1_555 1_555
N6 N7 1_555 1_555
N7 N8 1_555 1_555
N8 C4 1_555 1_555
O1 C2 1_555 1_555
O2 C2 1_555 1_555
O3 Sn2 1_555 1_555
O4 C5 1_555 1_555
S1 C1 1_555 1_555
S2 C4 1_555 1_555
C1 N1 1_555 1_555
C2 C3 1_555 1_555
C3 N1 1_555 1_555
H1 C3 1_555 1_555
H2 C3 1_555 1_555
C4 N5 1_555 1_555
C5 O3 1_555 1_555
C6 N5 1_555 1_555
H3 C6 1_555 1_555
H4 C6 1_555 1_555
C7 Sn1 1_555 1_555
H5 C7 1_555 1_555
H6 C7 1_555 1_555
C8 C7 1_555 1_555
H7 C8 1_555 1_555
H8 C8 1_555 1_555
C9 C8 1_555 1_555
H9 C9 1_555 1_555
H10 C9 1_555 1_555
C10 C9 1_555 1_555
H11 C10 1_555 1_555
H12 C10 1_555 1_555
H13 C10 1_555 1_555
C11 Sn1 1_555 1_555
H14 C11 1_555 1_555
H15 C11 1_555 1_555
C12 C11 1_555 1_555
H16 C12 1_555 1_555
H17 C12 1_555 1_555
C13 C12 1_555 1_555
H18 C13 1_555 1_555
H19 C13 1_555 1_555
C14 C13 1_555 1_555
H20 C14 1_555 1_555
H21 C14 1_555 1_555
H22 C14 1_555 1_555
C15 Sn1 1_555 1_555
H23 C15 1_555 1_555
H24 C15 1_555 1_555
C16 C15 1_555 1_555
H25 C16 1_555 1_555
H26 C16 1_555 1_555
C17 C16 1_555 1_555
H27 C17 1_555 1_555
H28 C17 1_555 1_555
C18 C17 1_555 1_555
H29 C18 1_555 1_555
H30 C18 1_555 1_555
H31 C18 1_555 1_555
C19 Sn2 1_555 1_555
H32 C19 1_555 1_555
H33 C19 1_555 1_555
C20 C19 1_555 1_555
H34 C20 1_555 1_555
H35 C20 1_555 1_555
C21 C20 1_555 1_555
H36 C21 1_555 1_555
H37 C21 1_555 1_555
C22 C21 1_555 1_555
H38 C22 1_555 1_555
H39 C22 1_555 1_555
H40 C22 1_555 1_555
C23 Sn2 1_555 1_555
H41 C23 1_555 1_555
H42 C23 1_555 1_555
C24 C23 1_555 1_555
H43 C24 1_555 1_555
H44 C24 1_555 1_555
C25 C24 1_555 1_555
H45 C25 1_555 1_555
H46 C25 1_555 1_555
C26 C25 1_555 1_555
H47 C26 1_555 1_555
H48 C26 1_555 1_555
H49 C26 1_555 1_555
C27 Sn2 1_555 1_555
H50 C27 1_555 1_555
H51 C27 1_555 1_555
C28 C27 1_555 1_555
H52 C28 1_555 1_555
H53 C28 1_555 1_555
C29 C28 1_555 1_555
H54 C29 1_555 1_555
H55 C29 1_555 1_555
C30 C29 1_555 1_555
H56 C30 1_555 1_555
H57 C30 1_555 1_555
H58 C30 1_555 1_555
C31 Sn3 1_555 1_555
H59 C31 1_555 1_555
H60 C31 1_555 1_555
C32 C31 1_555 1_555
H61 C32 1_555 1_555
H62 C32 1_555 1_555
C33 C32 1_555 1_555
H63 C33 1_555 1_555
H64 C33 1_555 1_555
C34 C33 1_555 1_555
H65 C34 1_555 1_555
H66 C34 1_555 1_555
H67 C34 1_555 1_555
C35 Sn3 1_555 1_555
H68 C35 1_555 1_555
H69 C35 1_555 1_555
C36 C35 1_555 1_555
H70 C36 1_555 1_555
H71 C36 1_555 1_555
C37 C36 1_555 1_555
H72 C37 1_555 1_555
H73 C37 1_555 1_555
C38 C37 1_555 1_555
H74 C38 1_555 1_555
H75 C38 1_555 1_555
H76 C38 1_555 1_555
C39 Sn3 1_555 1_555
H77 C39 1_555 1_555
H78 C39 1_555 1_555
C40 C39 1_555 1_555
H79 C40 1_555 1_555
H80 C40 1_555 1_555
C41 C40 1_555 1_555
H81 C41 1_555 1_555
H82 C41 1_555 1_555
C42 C41 1_555 1_555
H83 C42 1_555 1_555
H84 C42 1_555 1_555
H85 C42 1_555 1_555
C43 Sn4 1_555 1_555
H86 C43 1_555 1_555
H87 C43 1_555 1_555
C44 C43 1_555 1_555
H88 C44 1_555 1_555
H89 C44 1_555 1_555
C45 C44 1_555 1_555
H90 C45 1_555 1_555
H91 C45 1_555 1_555
C46 C45 1_555 1_555
H92 C46 1_555 1_555
H93 C46 1_555 1_555
H94 C46 1_555 1_555
C47 Sn4 1_555 1_555
H95 C47 1_555 1_555
H96 C47 1_555 1_555
C48 C47 1_555 1_555
H97 C48 1_555 1_555
H98 C48 1_555 1_555
C49 C48 1_555 1_555
H99 C49 1_555 1_555
H100 C49 1_555 1_555
C50 C49 1_555 1_555
H101 C50 1_555 1_555
H102 C50 1_555 1_555
H103 C50 1_555 1_555
C51 Sn4 1_555 1_555
H104 C51 1_555 1_555
H105 C51 1_555 1_555
C52 C51 1_555 1_555
H106 C52 1_555 1_555
H107 C52 1_555 1_555
C53 C52 1_555 1_555
H108 C53 1_555 1_555
H109 C53 1_555 1_555
C54 C53 1_555 1_555
H110 C54 1_555 1_555
H111 C54 1_555 1_555
H112 C54 1_555 1_555
Sn3_2 O2 1_555 1_555
O2_2 Sn3 1_555 1_555
C5 C6 1_555 1_555

#END
