
#######################################################################
#
#                 Cambridge Crystallographic Data Centre
#                                CCDC 
#
#######################################################################
#
# If this CIF has been generated from an entry in the Cambridge 
# Structural Database, then it will include bibliographic, chemical, 
# crystal, experimental, refinement or atomic coordinate data resulting 
# from the CCDC's data processing and validation procedures.
#
#######################################################################

data_VUPLEY
_symmetry_cell_setting           monoclinic
_symmetry_space_group_name_H-M   'C 2/c'
_symmetry_Int_Tables_number      15
_space_group_name_Hall           '-C 2yn'
loop_
_symmetry_equiv_pos_site_id
_symmetry_equiv_pos_as_xyz
1 x,y,z
2 -x,y,1/2-z
3 1/2+x,1/2+y,z
4 1/2-x,1/2+y,1/2-z
5 -x,-y,-z
6 x,-y,1/2+z
7 1/2-x,1/2-y,-z
8 1/2+x,1/2-y,1/2+z
_cell_length_a                   21.504(2)
_cell_length_b                   7.3544(14)
_cell_length_c                   22.799(2)
_cell_angle_alpha                90
_cell_angle_beta                 116.164(2)
_cell_angle_gamma                90
_cell_volume                     3236.19
loop_
_atom_site_label
_atom_site_type_symbol
_atom_site_fract_x
_atom_site_fract_y
_atom_site_fract_z
Sn1 Sn 0.317526(11) 0.43908(3) 0.196013(11)
N1 N 0.59778(14) 0.7019(4) 0.52634(14)
N2 N 0.53422(14) 0.8063(4) 0.57500(14)
H1 H 0.5244 0.8465 0.6054
O1 O 0.33036(12) 0.5302(3) 0.29497(12)
O2 O 0.41996(13) 0.5933(4) 0.27646(12)
O3 O 0.29088(12) 0.8862(3) 0.31788(12)
O4 O 0.27048(12) 0.7883(4) 0.39872(12)
O5 O 0.38051(14) 0.4108(4) 0.13153(14)
H2 H 0.3536 0.4264 0.0913
H3 H 0.3989 0.3061 0.1365
C1 C 0.59744(18) 0.7602(5) 0.58096(18)
H11 H 0.6374 0.7687 0.6202
C2 C 0.48831(17) 0.7762(4) 0.51039(16)
C3 C 0.52804(16) 0.7109(5) 0.48031(16)
C4 C 0.49660(17) 0.6611(5) 0.41444(17)
H12 H 0.5226 0.6152 0.3943
C5 C 0.42521(17) 0.6823(5) 0.37992(16)
C6 C 0.38633(16) 0.7575(4) 0.41097(17)
C7 C 0.41714(16) 0.8031(5) 0.47623(16)
H13 H 0.3915 0.8499 0.4966
C8 C 0.38967(18) 0.6025(5) 0.31291(17)
C9 C 0.31151(17) 0.8093(5) 0.37325(17)
C10 C 0.3588(2) 0.1825(5) 0.2339(2)
H14 H 0.3504 0.1000 0.1986
H15 H 0.3370 0.1371 0.2598
H16 H 0.4078 0.1933 0.2607
C11 C 0.2897(2) 0.6957(6) 0.1506(2)
H17 H 0.3300 0.7542 0.1514
H18 H 0.2708 0.7693 0.1736
H19 H 0.2557 0.6805 0.1061
Sn1C Sn 0.182474(11) 0.93908(3) 0.303987(11)
O3C O 0.20912(12) 0.3862(3) 0.18212(12)
O4C O 0.22952(12) 0.2883(4) 0.10128(12)
O6 O 0.5000 0.8495(6) 0.2500
H4 H 0.4733 0.7817 0.2589
H4A H 0.5267 0.7817 0.2411
O7 O 0.66297(16) 0.9248(5) 0.45697(16)
H5 H 0.6524 0.8604 0.4822
H6 H 0.7064 0.9437 0.4753
O8 O 0.54718(15) 0.0799(4) 0.35939(14)
H7 H 0.5329 0.0101 0.3263
H8 H 0.5829 0.0321 0.3896
O9 O 0.30391(14) 0.4742(4) 0.99725(14)
H9 H 0.3327 0.5442 0.9923
H10 H 0.2922 0.3917 0.9682
loop_
_geom_bond_atom_site_label_1
_geom_bond_atom_site_label_2
_geom_bond_site_symmetry_1
_geom_bond_site_symmetry_2
Sn1 O1 1_555 1_555
N1 C1 1_555 1_555
N2 H1 1_555 1_555
O1 C8 1_555 1_555
O2 Sn1 1_555 1_555
O3 C9 1_555 1_555
O4 C9 1_555 1_555
O5 Sn1 1_555 1_555
H2 O5 1_555 1_555
H3 O5 1_555 1_555
O6 H4 1_555 1_555
O7 H5 1_555 1_555
H6 O7 1_555 1_555
O8 H7 1_555 1_555
H8 O8 1_555 1_555
O9 H9 1_555 1_555
H10 O9 1_555 1_555
C1 N2 1_555 1_555
H11 C1 1_555 1_555
C2 N2 1_555 1_555
C3 N1 1_555 1_555
C4 C3 1_555 1_555
H12 C4 1_555 1_555
C5 C4 1_555 1_555
C6 C5 1_555 1_555
C7 C2 1_555 1_555
H13 C7 1_555 1_555
C8 O2 1_555 1_555
C9 C6 1_555 1_555
C10 Sn1 1_555 1_555
H14 C10 1_555 1_555
H15 C10 1_555 1_555
H16 C10 1_555 1_555
C11 Sn1 1_555 1_555
H17 C11 1_555 1_555
H18 C11 1_555 1_555
H19 C11 1_555 1_555
Sn1C O3 1_555 1_555
O3C Sn1 1_555 1_555
O4C Sn1 1_555 1_555
H4A O6 1_555 1_555
O4 Sn1C 1_555 1_555
C2 C3 1_555 1_555
C5 C8 1_555 1_555
C6 C7 1_555 1_555

#END
