
#######################################################################
#
#                 Cambridge Crystallographic Data Centre
#                                CCDC 
#
#######################################################################
#
# If this CIF has been generated from an entry in the Cambridge 
# Structural Database, then it will include bibliographic, chemical, 
# crystal, experimental, refinement or atomic coordinate data resulting 
# from the CCDC's data processing and validation procedures.
#
#######################################################################

data_VUPLOI
_symmetry_cell_setting           monoclinic
_symmetry_space_group_name_H-M   'P 21/c'
_symmetry_Int_Tables_number      14
_space_group_name_Hall           '-P 2ybc'
loop_
_symmetry_equiv_pos_site_id
_symmetry_equiv_pos_as_xyz
1 x,y,z
2 -x,1/2+y,1/2-z
3 -x,-y,-z
4 x,1/2-y,1/2+z
_cell_length_a                   10.5018(5)
_cell_length_b                   11.2110(5)
_cell_length_c                   17.0123(8)
_cell_angle_alpha                90
_cell_angle_beta                 94.8080(10)
_cell_angle_gamma                90
_cell_volume                     1995.91
loop_
_atom_site_label
_atom_site_type_symbol
_atom_site_fract_x
_atom_site_fract_y
_atom_site_fract_z
Sn1 Sn 0.920525(17) 0.400840(15) 0.139844(9)
Sn2 Sn 0.563847(15) -0.211966(14) -0.250040(10)
O1 O 0.84043(19) -0.02374(15) -0.26931(10)
O2 O 0.70709(16) -0.08346(15) -0.18316(10)
O3 O 0.59436(15) 0.16879(16) -0.20201(10)
O4 O 0.54615(16) 0.1408(2) -0.07822(11)
N1 N 1.00395(19) 0.27299(18) 0.04456(11)
N2 N 1.13637(17) 0.15333(18) -0.01319(11)
H3 H 1.2062 0.1182 -0.0228
C1 C 0.7943(2) -0.0176(2) -0.20381(13)
C2 C 0.8477(2) 0.06847(19) -0.14171(13)
C3 C 0.9767(2) 0.0662(2) -0.11746(13)
H4 H 1.0333 0.0187 -0.1427
C4 C 0.6225(2) 0.1486(2) -0.12913(14)
C5 C 0.7628(2) 0.14118(19) -0.10303(13)
C6 C 1.1225(2) 0.2325(2) 0.04346(14)
H5 H 1.1894 0.2573 0.0790
C7 C 1.0183(2) 0.1379(2) -0.05371(13)
C8 C 0.9357(2) 0.21222(19) -0.01647(13)
C9 C 0.8056(2) 0.2128(2) -0.04062(13)
H6 H 0.7492 0.2603 -0.0152
C10 C 0.8742(3) 0.2441(2) 0.19992(17)
H7 H 0.9498 0.2129 0.2283
H8 H 0.8400 0.1859 0.1625
H9 H 0.8118 0.2623 0.2363
C11 C 1.0961(3) 0.4938(3) 0.15736(19)
H10 H 1.1252 0.4927 0.2124
H11 H 1.0843 0.5748 0.1400
H12 H 1.1586 0.4559 0.1276
C12 C 0.7870(3) 0.4849(3) 0.05794(17)
H13 H 0.7035 0.4520 0.0627
H14 H 0.8110 0.4718 0.0054
H15 H 0.7856 0.5689 0.0685
C13 C 0.7158(3) -0.3032(3) -0.2968(2)
H16 H 0.7948 -0.2818 -0.2679
H17 H 0.7026 -0.3877 -0.2927
H18 H 0.7191 -0.2819 -0.3513
C14 C 0.4781(3) -0.0704(3) -0.3161(2)
H19 H 0.5049 0.0041 -0.2923
H20 H 0.5035 -0.0735 -0.3690
H21 H 0.3868 -0.0771 -0.3173
C15 C 0.5078(3) -0.2473(3) -0.13592(17)
H22 H 0.4180 -0.2650 -0.1392
H23 H 0.5549 -0.3144 -0.1138
H24 H 0.5248 -0.1787 -0.1030
Sn1C Sn 0.920525(17) 0.099160(15) -0.360156(9)
Sn2A Sn 0.436153(15) 0.288034(14) -0.249960(10)
O1C O 0.84043(19) 0.52374(15) 0.23069(10)
O3A O 0.40564(15) -0.33121(16) -0.29799(10)
O5 O 0.33549(17) 0.01351(19) 0.95479(12)
H1 H 0.3943 0.0606 0.9428
H2 H 0.3725 -0.0390 0.9846
loop_
_geom_bond_atom_site_label_1
_geom_bond_atom_site_label_2
_geom_bond_site_symmetry_1
_geom_bond_site_symmetry_2
Sn1 N1 1_555 1_555
Sn2 O2 1_555 1_555
O1 C1 1_555 1_555
O2 C1 1_555 1_555
O3 C4 1_555 1_555
O4 C4 1_555 1_555
O5 H1 1_555 1_555
H2 O5 1_555 1_555
N1 C6 1_555 1_555
N2 H3 1_555 1_555
C1 C2 1_555 1_555
C2 C3 1_555 1_555
C3 H4 1_555 1_555
C4 C5 1_555 1_555
C5 C2 1_555 1_555
C6 N2 1_555 1_555
H5 C6 1_555 1_555
C7 N2 1_555 1_555
C8 N1 1_555 1_555
C9 C5 1_555 1_555
H6 C9 1_555 1_555
C10 Sn1 1_555 1_555
H7 C10 1_555 1_555
H8 C10 1_555 1_555
H9 C10 1_555 1_555
C11 Sn1 1_555 1_555
H10 C11 1_555 1_555
H11 C11 1_555 1_555
H12 C11 1_555 1_555
C12 Sn1 1_555 1_555
H13 C12 1_555 1_555
H14 C12 1_555 1_555
H15 C12 1_555 1_555
C13 Sn2 1_555 1_555
H16 C13 1_555 1_555
H17 C13 1_555 1_555
H18 C13 1_555 1_555
C14 Sn2 1_555 1_555
H19 C14 1_555 1_555
H20 C14 1_555 1_555
H21 C14 1_555 1_555
C15 Sn2 1_555 1_555
H22 C15 1_555 1_555
H23 C15 1_555 1_555
H24 C15 1_555 1_555
Sn1C O1 1_555 1_555
Sn2A O3 1_555 1_555
O1C Sn1 1_555 1_555
O3A Sn2 1_555 1_555
C3 C7 1_555 1_555
C7 C8 1_555 1_555
C8 C9 1_555 1_555

#END
