
#######################################################################
#
#                 Cambridge Crystallographic Data Centre
#                                CCDC 
#
#######################################################################
#
# If this CIF has been generated from an entry in the Cambridge 
# Structural Database, then it will include bibliographic, chemical, 
# crystal, experimental, refinement or atomic coordinate data resulting 
# from the CCDC's data processing and validation procedures.
#
#######################################################################

data_VUPNUQ
_symmetry_cell_setting           orthorhombic
_symmetry_space_group_name_H-M   'C c c a'
_symmetry_Int_Tables_number      68
_space_group_name_Hall           '-C 2b 2bc'
loop_
_symmetry_equiv_pos_site_id
_symmetry_equiv_pos_as_xyz
1 x,y,z
2 1/2-x,-y,z
3 -x,y,1/2-z
4 1/2+x,-y,1/2-z
5 1/2+x,1/2+y,z
6 -x,1/2-y,z
7 1/2-x,1/2+y,1/2-z
8 x,1/2-y,1/2-z
9 -x,-y,-z
10 1/2+x,y,-z
11 x,-y,1/2+z
12 1/2-x,y,1/2+z
13 1/2-x,1/2-y,-z
14 x,1/2+y,-z
15 1/2+x,1/2-y,1/2+z
16 -x,1/2+y,1/2+z
_cell_length_a                   15.3196(16)
_cell_length_b                   18.1947(13)
_cell_length_c                   14.8493(13)
_cell_angle_alpha                90
_cell_angle_beta                 90
_cell_angle_gamma                90
_cell_volume                     4139.03
loop_
_atom_site_label
_atom_site_type_symbol
_atom_site_fract_x
_atom_site_fract_y
_atom_site_fract_z
Zn1 Zn 0.5000 0.52945(5) 0.7500
Br1 Br 0.44216(4) 0.60147(4) 0.86777(4)
O1 O 0.8083(3) 0.3660(3) 1.0501(3)
N1 N 0.5947(2) 0.4653(2) 0.8038(3)
N2 N 0.7982(3) 0.3352(3) 0.9029(3)
H1 H 0.8209 0.3070 0.8628
C1 C 0.6442(4) 0.4229(3) 0.7501(4)
H2 H 0.6324 0.4226 0.6886
C2 C 0.7113(4) 0.3802(4) 0.7815(4)
H3 H 0.7438 0.3514 0.7420
C3 C 0.7303(3) 0.3803(3) 0.8731(3)
C4 C 0.6802(3) 0.4245(3) 0.9279(3)
H4 H 0.6914 0.4269 0.9894
C5 C 0.6144(3) 0.4646(3) 0.8913(3)
H5 H 0.5809 0.4934 0.9298
C6 C 0.8338(3) 0.3297(3) 0.9879(3)
C7 C 0.9028(3) 0.2718(3) 0.9946(3)
H6 H 0.9372 0.2726 0.9397
H7 H 0.8746 0.2242 0.9982
C8 C 0.9638(3) 0.2795(4) 1.0738(3)
H8 H 0.9305 0.2757 1.1291
H9 H 0.9905 0.3278 1.0723
Zn1E Zn 1.5000 -0.02945(5) 0.7500
Br1B Br 0.55784(4) 0.60147(4) 0.63223(4)
O1E O 1.1917(3) 0.1340(3) 1.0501(3)
N1E N 1.4053(2) 0.0347(2) 0.8038(3)
N1B N 0.4053(2) 0.4653(2) 0.6962(3)
N2E N 1.2018(3) 0.1648(3) 0.9029(3)
H1E H 1.1791 0.1930 0.8628
C1E C 1.3558(4) 0.0771(3) 0.7501(4)
H2E H 1.3676 0.0774 0.6886
C2E C 1.2887(4) 0.1198(4) 0.7815(4)
H3E H 1.2562 0.1486 0.7420
C3E C 1.2697(3) 0.1197(3) 0.8731(3)
C4E C 1.3198(3) 0.0755(3) 0.9279(3)
H4E H 1.3086 0.0731 0.9894
C5E C 1.3856(3) 0.0354(3) 0.8913(3)
H5E H 1.4191 0.0066 0.9298
C6E C 1.1662(3) 0.1703(3) 0.9879(3)
C7E C 1.0972(3) 0.2282(3) 0.9946(3)
H6E H 1.0628 0.2274 0.9397
H7E H 1.1254 0.2758 0.9982
C8E C 1.0362(3) 0.2205(4) 1.0738(3)
H8E H 1.0695 0.2243 1.1291
H9E H 1.0095 0.1722 1.0723
O2 O 0.8774(4) 0.2500 0.7500
H10 H 0.907(4) 0.218(3) 0.775(4)
H10G H 0.907(4) 0.282(3) 0.725(4)
loop_
_geom_bond_atom_site_label_1
_geom_bond_atom_site_label_2
_geom_bond_site_symmetry_1
_geom_bond_site_symmetry_2
Zn1 Br1 1_555 1_555
O1 C6 1_555 1_555
N1 Zn1 1_555 1_555
N2 H1 1_555 1_555
C1 N1 1_555 1_555
H2 C1 1_555 1_555
C2 C1 1_555 1_555
H3 C2 1_555 1_555
C3 N2 1_555 1_555
C4 C3 1_555 1_555
H4 C4 1_555 1_555
C5 N1 1_555 1_555
H5 C5 1_555 1_555
C6 N2 1_555 1_555
C7 C6 1_555 1_555
H6 C7 1_555 1_555
H7 C7 1_555 1_555
C8 C7 1_555 1_555
H8 C8 1_555 1_555
H9 C8 1_555 1_555
O2 H10 1_555 1_555
Zn1E N1E 1_555 1_555
Br1B Zn1 1_555 1_555
O1E C6E 1_555 1_555
N1E C1E 1_555 1_555
N1B Zn1 1_555 1_555
N2E H1E 1_555 1_555
C1E H2E 1_555 1_555
C2E C1E 1_555 1_555
H3E C2E 1_555 1_555
C3E N2E 1_555 1_555
C4E C3E 1_555 1_555
H4E C4E 1_555 1_555
C5E N1E 1_555 1_555
H5E C5E 1_555 1_555
C6E N2E 1_555 1_555
C7E C6E 1_555 1_555
H6E C7E 1_555 1_555
H7E C7E 1_555 1_555
C8E C8 1_555 1_555
H8E C8E 1_555 1_555
H9E C8E 1_555 1_555
H10G O2 1_555 1_555
C2 C3 1_555 1_555
C4 C5 1_555 1_555
C2E C3E 1_555 1_555
C4E C5E 1_555 1_555
C7E C8E 1_555 1_555

#END
