
#######################################################################
#
#                 Cambridge Crystallographic Data Centre
#                                CCDC 
#
#######################################################################
#
# If this CIF has been generated from an entry in the Cambridge 
# Structural Database, then it will include bibliographic, chemical, 
# crystal, experimental, refinement or atomic coordinate data resulting 
# from the CCDC's data processing and validation procedures.
#
#######################################################################

data_VUPPUS
_symmetry_cell_setting           monoclinic
_symmetry_space_group_name_H-M   'P 21/c'
_symmetry_Int_Tables_number      14
_space_group_name_Hall           '-P 2ybc'
loop_
_symmetry_equiv_pos_site_id
_symmetry_equiv_pos_as_xyz
1 x,y,z
2 -x,1/2+y,1/2-z
3 -x,-y,-z
4 x,1/2-y,1/2+z
_cell_length_a                   14.0527(8)
_cell_length_b                   14.4139(8)
_cell_length_c                   14.9697(8)
_cell_angle_alpha                90
_cell_angle_beta                 117.7940(10)
_cell_angle_gamma                90
_cell_volume                     2682.35
loop_
_atom_site_label
_atom_site_type_symbol
_atom_site_fract_x
_atom_site_fract_y
_atom_site_fract_z
O1 O 0.8864(2) -0.47608(18) 0.1545(3)
C1 C 0.8300(4) -0.4528(3) 0.1953(3)
C2 C 0.1497(3) -0.4973(3) 0.1935(3)
C3 C 0.2346(3) -0.5511(3) 0.1829(3)
C4 C 0.2782(3) -0.6309(3) 0.2397(3)
H1 H 0.2542 -0.6506 0.2849
C5 C 0.3566(3) -0.6814(3) 0.2301(3)
H2 H 0.3835 -0.7353 0.2678
C6 C 0.3956(3) -0.6527(3) 0.1649(3)
C7 C 0.3519(3) -0.5729(3) 0.1087(3)
H3 H 0.3767 -0.5523 0.0644
C8 C 0.2727(3) -0.5236(3) 0.1174(3)
H4 H 0.2444 -0.4707 0.0783
C9 C 0.4823(3) -0.7045(3) 0.1494(3)
C10 C 0.5412(4) -0.7780(4) 0.2311(6)
C11 C 0.4246(4) -0.7532(4) 0.0455(5)
C12 C 0.5704(3) -0.6363(3) 0.1553(3)
C13 C 0.6232(3) -0.6474(3) 0.0976(3)
H5 H 0.6037 -0.6953 0.0507
C14 C 0.7054(3) -0.5869(3) 0.1100(3)
H6 H 0.7402 -0.5949 0.0708
C15 C 0.7368(3) -0.5152(3) 0.1790(3)
C16 C 0.6830(3) -0.5034(3) 0.2353(3)
H7 H 0.7017 -0.4548 0.2813
C17 C 0.6014(3) -0.5636(3) 0.2233(3)
H8 H 0.5662 -0.5550 0.2621
C18 C -0.0879(3) -0.2766(3) 0.0154(3)
H9 H -0.1044 -0.3353 -0.0138
C19 C -0.1111(3) -0.2021(3) -0.0467(3)
H10 H -0.1433 -0.2095 -0.1164
C20 C -0.0856(3) -0.1156(3) -0.0037(3)
H11 H -0.0991 -0.0631 -0.0439
C21 C -0.0406(4) -0.1074(3) 0.0983(3)
H12 H -0.0226 -0.0491 0.1284
C22 C -0.0215(3) -0.1865(3) 0.1579(3)
C23 C 0.0693(3) -0.2325(3) 0.3423(3)
C24 C 0.1006(3) -0.1937(3) 0.4376(3)
H13 H 0.0825 -0.1327 0.4432
C25 C 0.1571(3) -0.2450(3) 0.5214(3)
H14 H 0.1784 -0.2197 0.5851
C26 C 0.1827(4) -0.3355(3) 0.5114(3)
H15 H 0.2232 -0.3718 0.5680
C27 C 0.1473(3) -0.3703(3) 0.4167(3)
H16 H 0.1636 -0.4317 0.4103
F1 F 0.5784(2) -0.7422(2) 0.3240(3)
F2 F 0.4788(2) -0.85000(19) 0.2260(3)
F3 F 0.6265(2) -0.8128(2) 0.2263(3)
F4 F 0.3374(2) -0.7985(2) 0.0363(3)
F5 F 0.4857(2) -0.8167(2) 0.0318(3)
F6 F 0.3925(2) -0.6939(3) -0.0301(2)
N1 N -0.0423(2) -0.2706(2) 0.1170(2)
N2 N 0.0898(2) -0.3211(2) 0.3313(2)
N3 N 0.0186(3) -0.1749(2) 0.2605(3)
H17 H 0.0100 -0.1195 0.2768
O2 O 0.1058(2) -0.4303(2) 0.1345(2)
O3 O 0.1229(2) -0.51939(19) 0.2593(2)
O4 O 0.8464(3) -0.3826(3) 0.2461(3)
Zn1 Zn 0.00873(4) -0.39014(3) 0.19758(3)
O1_2 O -0.1136(2) -0.47608(18) 0.1545(3)
Zn1_2 Zn 1.00873(4) -0.39014(3) 0.19758(3)
loop_
_geom_bond_atom_site_label_1
_geom_bond_atom_site_label_2
_geom_bond_site_symmetry_1
_geom_bond_site_symmetry_2
O1 C1 1_555 1_555
C1 C15 1_555 1_555
C2 C3 1_555 1_555
C3 C4 1_555 1_555
C4 H1 1_555 1_555
C5 C4 1_555 1_555
H2 C5 1_555 1_555
C6 C5 1_555 1_555
C7 C6 1_555 1_555
H3 C7 1_555 1_555
C8 C3 1_555 1_555
H4 C8 1_555 1_555
C9 C6 1_555 1_555
C10 C9 1_555 1_555
C11 C9 1_555 1_555
C12 C9 1_555 1_555
C13 C12 1_555 1_555
H5 C13 1_555 1_555
C14 C13 1_555 1_555
H6 C14 1_555 1_555
C15 C14 1_555 1_555
C16 C15 1_555 1_555
H7 C16 1_555 1_555
C17 C12 1_555 1_555
H8 C17 1_555 1_555
C18 H9 1_555 1_555
C19 C18 1_555 1_555
H10 C19 1_555 1_555
C20 C19 1_555 1_555
H11 C20 1_555 1_555
C21 C20 1_555 1_555
H12 C21 1_555 1_555
C22 C21 1_555 1_555
C23 C24 1_555 1_555
C24 H13 1_555 1_555
C25 C24 1_555 1_555
H14 C25 1_555 1_555
C26 C25 1_555 1_555
H15 C26 1_555 1_555
C27 C26 1_555 1_555
H16 C27 1_555 1_555
F1 C10 1_555 1_555
F2 C10 1_555 1_555
F3 C10 1_555 1_555
F4 C11 1_555 1_555
F5 C11 1_555 1_555
F6 C11 1_555 1_555
N1 C18 1_555 1_555
N2 C23 1_555 1_555
N3 C22 1_555 1_555
H17 N3 1_555 1_555
O2 C2 1_555 1_555
O3 C2 1_555 1_555
O4 C1 1_555 1_555
Zn1 N1 1_555 1_555
O1_2 Zn1 1_555 1_555
Zn1_2 O1 1_555 1_555
C7 C8 1_555 1_555
C16 C17 1_555 1_555
C22 N1 1_555 1_555
C23 N3 1_555 1_555
C27 N2 1_555 1_555
N2 Zn1 1_555 1_555
O2 Zn1 1_555 1_555
O3 Zn1 1_555 1_555

#END
