
#######################################################################
#
#                 Cambridge Crystallographic Data Centre
#                                CCDC 
#
#######################################################################
#
# If this CIF has been generated from an entry in the Cambridge 
# Structural Database, then it will include bibliographic, chemical, 
# crystal, experimental, refinement or atomic coordinate data resulting 
# from the CCDC's data processing and validation procedures.
#
#######################################################################

data_VUPPOM
_symmetry_cell_setting           monoclinic
_symmetry_space_group_name_H-M   'P 21/n'
_symmetry_Int_Tables_number      14
_space_group_name_Hall           '-P 2yn'
loop_
_symmetry_equiv_pos_site_id
_symmetry_equiv_pos_as_xyz
1 x,y,z
2 1/2-x,1/2+y,1/2-z
3 -x,-y,-z
4 1/2+x,1/2-y,1/2+z
_cell_length_a                   14.502(4)
_cell_length_b                   18.010(5)
_cell_length_c                   22.474(6)
_cell_angle_alpha                90
_cell_angle_beta                 105.787(5)
_cell_angle_gamma                90
_cell_volume                     5648.37
loop_
_atom_site_label
_atom_site_type_symbol
_atom_site_fract_x
_atom_site_fract_y
_atom_site_fract_z
O1 O -0.98156(17) 0.20234(13) 0.34582(11)
C1 C -0.9008(3) 0.1696(2) 0.36710(16)
C2 C -0.8143(2) 0.21926(19) 0.37815(15)
O2 O -0.11852(17) 0.14753(12) 0.22820(11)
O3 O -0.23579(17) 0.21118(12) 0.16537(11)
C3 C -0.1483(3) 0.19703(19) 0.18901(17)
C4 C -0.0754(2) 0.24208(18) 0.16801(15)
C5 C -0.1009(2) 0.29156(19) 0.11959(16)
H1 H -0.1653 0.2971 0.0986
C6 C -0.0333(2) 0.3330(2) 0.10152(17)
H2 H -0.0522 0.3653 0.0681
C7 C 0.0201(2) 0.2357(2) 0.19872(16)
H3 H 0.0390 0.2029 0.2318
C8 C 0.0883(2) 0.2770(2) 0.18134(17)
H4 H 0.1526 0.2713 0.2025
C9 C 0.0629(2) 0.32665(19) 0.13326(16)
Zn1 Zn -0.33362(3) 0.13797(2) 0.180540(19)
Zn2 Zn -1.09409(3) 0.13815(2) 0.324080(19)
C10 C -1.0956(3) 0.1312(2) 0.46412(19)
H5 H -1.0847 0.1821 0.4650
C11 C -1.1044(3) 0.0969(2) 0.51763(19)
H6 H -1.0994 0.1246 0.5533
C12 C -1.1205(3) 0.0219(2) 0.51748(19)
H7 H -1.1262 -0.0019 0.5530
C13 C -1.1283(2) -0.0184(2) 0.46299(17)
C14 C -1.1444(3) -0.0969(2) 0.4577(2)
H8 H -1.1508 -0.1236 0.4918
C15 C -1.1506(3) -0.1324(2) 0.4044(2)
H9 H -1.1610 -0.1834 0.4023
C16 C -1.1414(2) -0.0937(2) 0.35067(19)
C17 C -1.1491(3) -0.1280(2) 0.2941(2)
H10 H -1.1620 -0.1785 0.2893
C18 C -1.1376(3) -0.0868(2) 0.24576(19)
H11 H -1.1417 -0.1090 0.2078
C19 C -1.1197(3) -0.0108(2) 0.25396(18)
H12 H -1.1116 0.0168 0.2208
C20 C -1.1238(2) -0.01722(18) 0.35510(16)
C21 C -1.1172(2) 0.0209(2) 0.41171(16)
C22 C -0.3767(3) -0.0029(2) 0.24855(18)
H13 H -0.3668 0.0271 0.2834
C23 C -0.4055(3) -0.0766(2) 0.2522(2)
H14 H -0.4138 -0.0946 0.2891
C24 C -0.4211(3) -0.1217(2) 0.2024(2)
H15 H -0.4398 -0.1707 0.2048
C25 C -0.4087(2) -0.09305(19) 0.14668(18)
C26 C -0.4262(3) -0.1349(2) 0.09093(19)
H16 H -0.4479 -0.1836 0.0903
C27 C -0.3785(3) -0.0307(2) 0.03884(17)
C28 C -0.3605(3) 0.0031(3) -0.01273(19)
H17 H -0.3692 -0.0233 -0.0494
C29 C -0.3299(3) 0.0748(3) -0.0091(2)
H18 H -0.3184 0.0978 -0.0435
C30 C -0.3159(3) 0.1134(2) 0.0458(2)
H19 H -0.2936 0.1620 0.0476
C31 C -0.3630(2) 0.01275(19) 0.09178(16)
C32 C -0.3788(2) -0.01902(19) 0.14708(16)
C33 C -0.2745(3) 0.19944(19) 0.31495(16)
C34 C -0.3459(2) 0.23922(18) 0.34106(15)
C35 C -0.3173(2) 0.28205(19) 0.39367(17)
H20 H -0.2524 0.2866 0.4136
C36 C -0.3828(2) 0.3182(2) 0.41726(16)
H21 H -0.3617 0.3464 0.4530
C37 C -0.4801(2) 0.31301(18) 0.38838(16)
C38 C -0.5081(2) 0.2702(2) 0.33542(16)
H22 H -0.5729 0.2663 0.3149
C39 C -0.4423(2) 0.23314(19) 0.31234(16)
H23 H -0.4632 0.2038 0.2772
C40 C -0.5574(2) 0.3560(2) 0.40961(16)
C41 C -0.6514(2) 0.3092(2) 0.39714(16)
C42 C -0.5270(3) 0.3734(3) 0.4794(2)
C43 C -0.5712(3) 0.4299(2) 0.3741(2)
C44 C 0.4743(3) 0.1812(2) 0.13667(17)
C45 C 0.3913(2) 0.2332(2) 0.13250(15)
C46 C 0.2998(3) 0.2130(2) 0.09886(18)
H24 H 0.2901 0.1676 0.0784
C47 C 0.2234(3) 0.2594(2) 0.09542(18)
H25 H 0.1628 0.2446 0.0723
C48 C 0.2335(2) 0.3268(2) 0.12502(16)
C49 C 0.3248(2) 0.34777(19) 0.15788(16)
H26 H 0.3345 0.3937 0.1776
C50 C 0.4018(2) 0.3011(2) 0.16165(15)
H27 H 0.4625 0.3160 0.1846
C51 C 0.1431(2) 0.3741(2) 0.11879(19)
C52 C 0.1600(3) 0.4390(2) 0.1655(3)
C53 C 0.1143(3) 0.4054(4) 0.0528(3)
C54 C -0.4120(3) -0.1056(2) 0.0398(2)
H28 H -0.4240 -0.1342 0.0040
C55 C -0.6448(3) 0.2363(2) 0.41728(17)
H29 H -0.5851 0.2169 0.4375
C56 C -0.7249(3) 0.1919(2) 0.40792(17)
H30 H -0.7186 0.1431 0.4218
C57 C -0.7407(2) 0.3362(2) 0.36725(16)
H31 H -0.7472 0.3849 0.3529
C58 C -0.8209(2) 0.29172(19) 0.35831(16)
H32 H -0.8807 0.3112 0.3384
F1 F -0.60039(16) 0.39886(15) 0.49853(11)
F2 F -0.45808(16) 0.42342(14) 0.49558(11)
F3 F -0.49625(16) 0.31223(15) 0.51249(10)
F4 F 0.07842(17) 0.47397(13) 0.16505(15)
F5 F 0.21779(18) 0.49143(13) 0.15337(15)
F6 F 0.19794(17) 0.41634(15) 0.22307(13)
F7 F 0.18799(18) 0.43671(18) 0.03829(14)
F8 F 0.04761(18) 0.45909(17) 0.04575(15)
F9 F -0.48893(16) 0.46558(13) 0.38000(12)
F10 F -0.60910(16) 0.41928(12) 0.31355(11)
F11 F -0.62862(16) 0.47726(12) 0.39236(12)
F12 F 0.0796(2) 0.3539(2) 0.01144(13)
N1 N -1.1019(2) 0.09509(16) 0.41210(14)
N2 N -1.11364(19) 0.02364(15) 0.30683(13)
N3 N -0.36318(19) 0.02569(15) 0.19717(14)
N4 N -0.3329(2) 0.08442(16) 0.09534(14)
O4 O -0.18816(16) 0.21702(13) 0.33505(11)
O5 O -0.30472(16) 0.14941(13) 0.27599(11)
O6 O 0.45918(19) 0.11800(16) 0.11687(15)
O7 O 0.55716(16) 0.20662(13) 0.16241(11)
O8 O -0.89252(19) 0.10351(16) 0.37777(14)
O2_2 O -1.11852(17) 0.14753(12) 0.22820(11)
Zn1_2 Zn 0.66638(3) 0.13797(2) 0.180540(19)
Zn2_2 Zn -0.09409(3) 0.13815(2) 0.324080(19)
O4_2 O -1.18816(16) 0.21702(13) 0.33505(11)
O7_2 O -0.44284(16) 0.20662(13) 0.16241(11)
loop_
_geom_bond_atom_site_label_1
_geom_bond_atom_site_label_2
_geom_bond_site_symmetry_1
_geom_bond_site_symmetry_2
O1 C1 1_555 1_555
C1 C2 1_555 1_555
C2 C56 1_555 1_555
O2 C3 1_555 1_555
O3 C3 1_555 1_555
C3 C4 1_555 1_555
C4 C5 1_555 1_555
C5 H1 1_555 1_555
C6 C5 1_555 1_555
H2 C6 1_555 1_555
C7 C4 1_555 1_555
H3 C7 1_555 1_555
C8 C7 1_555 1_555
H4 C8 1_555 1_555
C9 C6 1_555 1_555
Zn1 O3 1_555 1_555
Zn2 O1 1_555 1_555
C10 H5 1_555 1_555
C11 C10 1_555 1_555
H6 C11 1_555 1_555
C12 C11 1_555 1_555
H7 C12 1_555 1_555
C13 C12 1_555 1_555
C14 C13 1_555 1_555
H8 C14 1_555 1_555
C15 C14 1_555 1_555
H9 C15 1_555 1_555
C16 C15 1_555 1_555
C17 C16 1_555 1_555
H10 C17 1_555 1_555
C18 C17 1_555 1_555
H11 C18 1_555 1_555
C19 C18 1_555 1_555
H12 C19 1_555 1_555
C20 C16 1_555 1_555
C21 C13 1_555 1_555
C22 H13 1_555 1_555
C23 C22 1_555 1_555
H14 C23 1_555 1_555
C24 C23 1_555 1_555
H15 C24 1_555 1_555
C25 C24 1_555 1_555
C26 C25 1_555 1_555
H16 C26 1_555 1_555
C27 C28 1_555 1_555
C28 H17 1_555 1_555
C29 C28 1_555 1_555
H18 C29 1_555 1_555
C30 C29 1_555 1_555
H19 C30 1_555 1_555
C31 C27 1_555 1_555
C32 C25 1_555 1_555
C33 C34 1_555 1_555
C34 C35 1_555 1_555
C35 H20 1_555 1_555
C36 C35 1_555 1_555
H21 C36 1_555 1_555
C37 C36 1_555 1_555
C38 C37 1_555 1_555
H22 C38 1_555 1_555
C39 C34 1_555 1_555
H23 C39 1_555 1_555
C40 C37 1_555 1_555
C41 C40 1_555 1_555
C42 C40 1_555 1_555
C43 C40 1_555 1_555
C44 C45 1_555 1_555
C45 C46 1_555 1_555
C46 H24 1_555 1_555
C47 C46 1_555 1_555
H25 C47 1_555 1_555
C48 C47 1_555 1_555
C49 C48 1_555 1_555
H26 C49 1_555 1_555
C50 C45 1_555 1_555
H27 C50 1_555 1_555
C51 C9 1_555 1_555
C52 C51 1_555 1_555
C53 C51 1_555 1_555
C54 C26 1_555 1_555
H28 C54 1_555 1_555
C55 C41 1_555 1_555
H29 C55 1_555 1_555
C56 C55 1_555 1_555
H30 C56 1_555 1_555
C57 C41 1_555 1_555
H31 C57 1_555 1_555
C58 C2 1_555 1_555
H32 C58 1_555 1_555
F1 C42 1_555 1_555
F2 C42 1_555 1_555
F3 C42 1_555 1_555
F4 C52 1_555 1_555
F5 C52 1_555 1_555
F6 C52 1_555 1_555
F7 C53 1_555 1_555
F8 C53 1_555 1_555
F9 C43 1_555 1_555
F10 C43 1_555 1_555
F11 C43 1_555 1_555
F12 C53 1_555 1_555
N1 Zn2 1_555 1_555
N2 Zn2 1_555 1_555
N3 Zn1 1_555 1_555
N4 Zn1 1_555 1_555
O4 C33 1_555 1_555
O5 Zn1 1_555 1_555
O6 C44 1_555 1_555
O7 C44 1_555 1_555
O8 C1 1_555 1_555
O2_2 Zn2 1_555 1_555
Zn1_2 O7 1_555 1_555
Zn2_2 O2 1_555 1_555
O4_2 Zn2 1_555 1_555
O7_2 Zn1 1_555 1_555
C8 C9 1_555 1_555
C10 N1 1_555 1_555
C19 N2 1_555 1_555
C20 C21 1_555 1_555
C20 N2 1_555 1_555
C21 N1 1_555 1_555
C22 N3 1_555 1_555
C27 C54 1_555 1_555
C30 N4 1_555 1_555
C31 C32 1_555 1_555
C31 N4 1_555 1_555
C32 N3 1_555 1_555
C33 O5 1_555 1_555
C38 C39 1_555 1_555
C48 C51 1_555 1_555
C49 C50 1_555 1_555
C57 C58 1_555 1_555
O4 Zn2_2 1_555 1_555

#END
