
#######################################################################
#
#                 Cambridge Crystallographic Data Centre
#                                CCDC 
#
#######################################################################
#
# If this CIF has been generated from an entry in the Cambridge 
# Structural Database, then it will include bibliographic, chemical, 
# crystal, experimental, refinement or atomic coordinate data resulting 
# from the CCDC's data processing and validation procedures.
#
#######################################################################

data_VUPPAY
_symmetry_cell_setting           monoclinic
_symmetry_space_group_name_H-M   'P 21/c'
_symmetry_Int_Tables_number      14
_space_group_name_Hall           '-P 2ybc'
loop_
_symmetry_equiv_pos_site_id
_symmetry_equiv_pos_as_xyz
1 x,y,z
2 -x,1/2+y,1/2-z
3 -x,-y,-z
4 x,1/2-y,1/2+z
_cell_length_a                   9.3270(11)
_cell_length_b                   9.9752(12)
_cell_length_c                   22.896(3)
_cell_angle_alpha                90
_cell_angle_beta                 91.813(11)
_cell_angle_gamma                90
_cell_volume                     2129.15
loop_
_atom_site_label
_atom_site_type_symbol
_atom_site_fract_x
_atom_site_fract_y
_atom_site_fract_z
Zn1 Zn 0.25565(13) 0.74363(12) 0.46191(5)
I1 I 0.08409(9) 0.59413(8) 0.40202(3)
I2 I 0.42976(9) 0.89923(8) 0.41174(3)
O1 O -0.1437(10) 0.9041(8) 0.7110(4)
O2 O -0.3458(9) 1.5578(9) 0.7201(4)
N1 N 0.1438(9) 0.8553(8) 0.5214(4)
N2 N -0.0054(10) 1.0579(8) 0.6676(4)
H2 H 0.0272 1.1383 0.6709
N3 N -0.5150(9) 1.4256(8) 0.6776(4)
H3 H -0.5602 1.3510 0.6812
N4 N -0.6390(10) 1.6263(8) 0.5238(4)
C1 C 0.1898(12) 0.9758(11) 0.5379(5)
H4 H 0.2606 1.0159 0.5161
C2 C 0.1414(12) 1.0436(11) 0.5836(5)
H5 H 0.1776 1.1283 0.5924
C3 C 0.0352(11) 0.9862(10) 0.6183(4)
C4 C -0.0185(11) 0.8615(11) 0.5999(5)
H6 H -0.0917 0.8205 0.6201
C5 C 0.0371(12) 0.8004(11) 0.5523(5)
H7 H 0.0001 0.7177 0.5406
C6 C -0.0903(12) 1.0154(11) 0.7110(5)
C7 C -0.1133(13) 1.1160(11) 0.7582(5)
H8 H -0.0319 1.1764 0.7612
H9 H -0.1216 1.0705 0.7954
C8 C -0.2512(13) 1.1966(12) 0.7442(5)
H10 H -0.2427 1.2396 0.7065
H11 H -0.3318 1.1352 0.7414
C9 C -0.2811(12) 1.3004(11) 0.7887(5)
H12 H -0.2039 1.3657 0.7898
H13 H -0.2846 1.2588 0.8269
C10 C -0.4230(13) 1.3716(11) 0.7749(5)
H14 H -0.4976 1.3045 0.7697
H15 H -0.4470 1.4262 0.8082
C11 C -0.4235(11) 1.4569(10) 0.7229(5)
C12 C -0.5464(11) 1.4958(10) 0.6264(5)
C13 C -0.6576(13) 1.4470(11) 0.5928(5)
H16 H -0.7036 1.3684 0.6035
C14 C -0.7018(11) 1.5147(11) 0.5428(5)
H17 H -0.7797 1.4808 0.5211
C15 C -0.5294(12) 1.6705(12) 0.5560(5)
H18 H -0.4831 1.7478 0.5438
C16 C -0.4777(12) 1.6082(12) 0.6076(5)
H19 H -0.3989 1.6426 0.6285
Zn1_2 Zn -0.74435(13) 1.74363(12) 0.46191(5)
N4_2 N 0.3610(10) 0.6263(8) 0.5238(4)
O3 O -0.2415(8) 1.7431(7) 0.7994(3)
H1 H -0.2770 1.6935 0.7681
loop_
_geom_bond_atom_site_label_1
_geom_bond_atom_site_label_2
_geom_bond_site_symmetry_1
_geom_bond_site_symmetry_2
Zn1 I1 1_555 1_555
I2 Zn1 1_555 1_555
O1 C6 1_555 1_555
O2 C11 1_555 1_555
O3 H1 1_555 1_555
N1 Zn1 1_555 1_555
N2 H2 1_555 1_555
N3 H3 1_555 1_555
N4 C14 1_555 1_555
C1 N1 1_555 1_555
H4 C1 1_555 1_555
C2 C1 1_555 1_555
H5 C2 1_555 1_555
C3 N2 1_555 1_555
C4 C3 1_555 1_555
H6 C4 1_555 1_555
C5 N1 1_555 1_555
H7 C5 1_555 1_555
C6 N2 1_555 1_555
C7 C6 1_555 1_555
H8 C7 1_555 1_555
H9 C7 1_555 1_555
C8 C7 1_555 1_555
H10 C8 1_555 1_555
H11 C8 1_555 1_555
C9 C8 1_555 1_555
H12 C9 1_555 1_555
H13 C9 1_555 1_555
C10 C9 1_555 1_555
H14 C10 1_555 1_555
H15 C10 1_555 1_555
C11 N3 1_555 1_555
C12 N3 1_555 1_555
C13 C12 1_555 1_555
H16 C13 1_555 1_555
C14 C13 1_555 1_555
H17 C14 1_555 1_555
C15 N4 1_555 1_555
H18 C15 1_555 1_555
C16 C12 1_555 1_555
H19 C16 1_555 1_555
Zn1_2 N4 1_555 1_555
N4_2 Zn1 1_555 1_555
C2 C3 1_555 1_555
C4 C5 1_555 1_555
C10 C11 1_555 1_555
C15 C16 1_555 1_555

#END
