
#######################################################################
#
#                 Cambridge Crystallographic Data Centre
#                                CCDC 
#
#######################################################################
#
# If this CIF has been generated from an entry in the Cambridge 
# Structural Database, then it will include bibliographic, chemical, 
# crystal, experimental, refinement or atomic coordinate data resulting 
# from the CCDC's data processing and validation procedures.
#
#######################################################################

data_VUPQAZ
_symmetry_cell_setting           monoclinic
_symmetry_space_group_name_H-M   'C 2/c'
_symmetry_Int_Tables_number      15
_space_group_name_Hall           '-C 2yn'
loop_
_symmetry_equiv_pos_site_id
_symmetry_equiv_pos_as_xyz
1 x,y,z
2 -x,y,1/2-z
3 1/2+x,1/2+y,z
4 1/2-x,1/2+y,1/2-z
5 -x,-y,-z
6 x,-y,1/2+z
7 1/2-x,1/2-y,-z
8 1/2+x,1/2-y,1/2+z
_cell_length_a                   12.468(2)
_cell_length_b                   17.796(3)
_cell_length_c                   13.267(3)
_cell_angle_alpha                90
_cell_angle_beta                 105.031(3)
_cell_angle_gamma                90
_cell_volume                     2842.97
loop_
_atom_site_label
_atom_site_type_symbol
_atom_site_fract_x
_atom_site_fract_y
_atom_site_fract_z
Zn1 Zn 0.5000 0.44798(4) 0.2500
N1 N 0.3685(3) 0.5212(2) 0.2355(3)
O1 O 0.5122(3) 0.4051(2) 0.1187(3)
O2 O 0.3665(4) 0.3408(2) 0.1294(4)
F1 F 0.5888(3) 0.07362(18) -0.1170(3)
F2 F 0.6937(3) 0.1475(2) -0.1749(3)
F3 F 0.6156(3) 0.05483(18) -0.2677(2)
C1 C 0.4448(4) 0.3520(3) 0.0903(4)
C2 C 0.3506(4) 0.5497(3) 0.3230(4)
H1 H 0.3984 0.5358 0.3864
C3 C 0.2656(4) 0.5981(3) 0.3242(4)
H2 H 0.2566 0.6154 0.3876
C4 C 0.1940(3) 0.6213(2) 0.2332(4)
C5 C 0.2118(4) 0.5930(3) 0.1429(4)
H3 H 0.1657 0.6069 0.0786
C6 C 0.2988(4) 0.5434(3) 0.1475(4)
H4 H 0.3087 0.5247 0.0851
C7 C 0.0972(4) 0.6713(3) 0.2342(4)
H5 H 0.0745 0.6985 0.1687
H6 H 0.1192 0.7078 0.2901
C8 C 0.0000 0.6249(4) 0.2500
H7 H 0.0266 0.5927 0.3103
C9 C 0.4611(4) 0.3010(2) 0.0051(3)
C10 C 0.5434(4) 0.3140(3) -0.0444(4)
H8 H 0.5929 0.3534 -0.0222
C11 C 0.5537(4) 0.2694(3) -0.1268(4)
H9 H 0.6089 0.2797 -0.1604
C12 C 0.4820(4) 0.2094(2) -0.1594(3)
C13 C 0.4011(4) 0.1951(3) -0.1080(4)
H10 H 0.3531 0.1546 -0.1280
C14 C 0.3916(4) 0.2407(3) -0.0271(4)
H11 H 0.3366 0.2305 0.0068
C15 C 0.5000 0.1602(3) -0.2500
C16 C 0.5991(5) 0.1088(3) -0.2031(4)
Zn1_2 Zn -0.5000 0.44798(4) 0.2500
Zn1_3 Zn 0.5000 0.44798(4) -0.7500
N1A N -0.3685(3) 0.5212(2) 0.2645(3)
N1A_2 N 0.6315(3) 0.5212(2) 0.2645(3)
O1A O 0.4878(3) 0.4051(2) -0.6187(3)
O1A_2 O 0.4878(3) 0.4051(2) 0.3813(3)
O2A O 0.6335(4) 0.3408(2) -0.6294(4)
F1A F 0.4112(3) 0.07362(18) -0.3830(3)
F2A F 0.3063(3) 0.1475(2) -0.3251(3)
F3A F 0.3844(3) 0.05483(18) -0.2323(2)
C1A C 0.5552(4) 0.3520(3) -0.5903(4)
C2A C -0.3506(4) 0.5497(3) 0.1770(4)
H1A H -0.3984 0.5358 0.1136
C3A C -0.2656(4) 0.5981(3) 0.1758(4)
H2A H -0.2566 0.6154 0.1124
C4A C -0.1940(3) 0.6213(2) 0.2668(4)
C5A C -0.2118(4) 0.5930(3) 0.3571(4)
H3A H -0.1657 0.6069 0.4214
C6A C -0.2988(4) 0.5434(3) 0.3525(4)
H4A H -0.3087 0.5247 0.4149
C7A C -0.0972(4) 0.6713(3) 0.2658(4)
H5A H -0.0745 0.6985 0.3313
H6A H -0.1192 0.7078 0.2099
H7A H -0.0266 0.5927 0.1897
C9A C 0.5389(4) 0.3010(2) -0.5051(3)
C10A C 0.4566(4) 0.3140(3) -0.4556(4)
H8A H 0.4071 0.3534 -0.4778
C11A C 0.4463(4) 0.2694(3) -0.3732(4)
H9A H 0.3911 0.2797 -0.3396
C12A C 0.5180(4) 0.2094(2) -0.3406(3)
C13A C 0.5989(4) 0.1951(3) -0.3920(4)
H10A H 0.6469 0.1546 -0.3720
C14A C 0.6084(4) 0.2407(3) -0.4729(4)
H11A H 0.6634 0.2305 -0.5068
C16A C 0.4009(5) 0.1088(3) -0.2969(4)
loop_
_geom_bond_atom_site_label_1
_geom_bond_atom_site_label_2
_geom_bond_site_symmetry_1
_geom_bond_site_symmetry_2
Zn1 N1 1_555 1_555
N1 C2 1_555 1_555
O1 Zn1 1_555 1_555
O2 C1 1_555 1_555
F1 C16 1_555 1_555
F2 C16 1_555 1_555
F3 C16 1_555 1_555
C1 O1 1_555 1_555
C2 H1 1_555 1_555
C3 C2 1_555 1_555
H2 C3 1_555 1_555
C4 C3 1_555 1_555
C5 C4 1_555 1_555
H3 C5 1_555 1_555
C6 N1 1_555 1_555
H4 C6 1_555 1_555
C7 C4 1_555 1_555
H5 C7 1_555 1_555
H6 C7 1_555 1_555
C8 C7 1_555 1_555
H7 C8 1_555 1_555
C9 C1 1_555 1_555
C10 C9 1_555 1_555
H8 C10 1_555 1_555
C11 C10 1_555 1_555
H9 C11 1_555 1_555
C12 C11 1_555 1_555
C13 C12 1_555 1_555
H10 C13 1_555 1_555
C14 C9 1_555 1_555
H11 C14 1_555 1_555
C15 C12 1_555 1_555
C16 C15 1_555 1_555
Zn1_2 N1A 1_555 1_555
Zn1_3 O1A 1_555 1_555
N1A C2A 1_555 1_555
N1A_2 Zn1 1_555 1_555
O1A C1A 1_555 1_555
O1A_2 Zn1 1_555 1_555
O2A C1A 1_555 1_555
F1A C16A 1_555 1_555
F2A C16A 1_555 1_555
F3A C16A 1_555 1_555
C1A C9A 1_555 1_555
C2A H1A 1_555 1_555
C3A C2A 1_555 1_555
H2A C3A 1_555 1_555
C4A C3A 1_555 1_555
C5A C4A 1_555 1_555
H3A C5A 1_555 1_555
C6A N1A 1_555 1_555
H4A C6A 1_555 1_555
C7A C8 1_555 1_555
H5A C7A 1_555 1_555
H6A C7A 1_555 1_555
H7A C8 1_555 1_555
C9A C10A 1_555 1_555
C10A H8A 1_555 1_555
C11A C10A 1_555 1_555
H9A C11A 1_555 1_555
C12A C15 1_555 1_555
C13A C12A 1_555 1_555
H10A C13A 1_555 1_555
C14A C9A 1_555 1_555
H11A C14A 1_555 1_555
C16A C15 1_555 1_555
C5 C6 1_555 1_555
C13 C14 1_555 1_555
C4A C7A 1_555 1_555
C5A C6A 1_555 1_555
C11A C12A 1_555 1_555
C13A C14A 1_555 1_555

#END
