
#######################################################################
#
#                 Cambridge Crystallographic Data Centre
#                                CCDC 
#
#######################################################################
#
# If this CIF has been generated from an entry in the Cambridge 
# Structural Database, then it will include bibliographic, chemical, 
# crystal, experimental, refinement or atomic coordinate data resulting 
# from the CCDC's data processing and validation procedures.
#
#######################################################################

data_VUPQED
_symmetry_cell_setting           monoclinic
_symmetry_space_group_name_H-M   'C 2/c'
_symmetry_Int_Tables_number      15
_space_group_name_Hall           '-C 2yn'
loop_
_symmetry_equiv_pos_site_id
_symmetry_equiv_pos_as_xyz
1 x,y,z
2 -x,y,1/2-z
3 1/2+x,1/2+y,z
4 1/2-x,1/2+y,1/2-z
5 -x,-y,-z
6 x,-y,1/2+z
7 1/2-x,1/2-y,-z
8 1/2+x,1/2-y,1/2+z
_cell_length_a                   31.3355(12)
_cell_length_b                   15.4292(6)
_cell_length_c                   23.8481(9)
_cell_angle_alpha                90
_cell_angle_beta                 91.5520(10)
_cell_angle_gamma                90
_cell_volume                     11525.9
loop_
_atom_site_label
_atom_site_type_symbol
_atom_site_fract_x
_atom_site_fract_y
_atom_site_fract_z
O1 O 0.04892(14) 0.7363(3) 0.55035(17)
O2 O 0.00508(14) 0.6227(3) 0.55262(16)
C1 C 0.0366(2) 0.6656(5) 0.5705(3)
C2 C 0.06289(19) 0.6299(4) 0.6190(2)
C3 C 0.0938(2) 0.6806(4) 0.6452(2)
H1 H 0.0968 0.7382 0.6345
O3 O -0.00577(14) 0.8611(3) 0.42114(17)
O4 O -0.05237(13) 0.7514(3) 0.42268(16)
C4 C -0.0377(2) 0.8209(4) 0.4033(2)
C5 C -0.0627(2) 0.8592(4) 0.3541(2)
C6 C -0.0507(2) 0.9391(4) 0.3330(2)
H2 H -0.0259 0.9657 0.3466
C7 C -0.09904(19) 0.8199(4) 0.3320(2)
H3 H -0.1068 0.7653 0.3447
C8 C -0.0755(2) 0.9793(4) 0.2919(2)
H4 H -0.0670 1.0326 0.2779
C9 C -0.1240(2) 0.8608(4) 0.2912(2)
H5 H -0.1485 0.8338 0.2772
C10 C -0.11277(19) 0.9416(4) 0.2711(2)
Zn1 Zn 0.03082(2) 0.81882(4) 0.48690(3)
Zn2 Zn -0.03144(2) 0.67272(4) 0.48812(3)
C11 C -0.11389(18) 1.0453(4) 0.1881(2)
C12 C 0.11859(19) 0.4665(4) 0.7910(2)
C13 C 0.06921(19) 0.3829(4) 0.8707(2)
C14 C -0.08342(19) 0.9985(4) 0.1591(2)
H6 H -0.0790 0.9403 0.1677
C15 C -0.05967(18) 1.0371(4) 0.1178(2)
H7 H -0.0395 1.0048 0.0990
C16 C 0.1772(2) 0.4618(5) 0.7177(3)
C17 C 0.0838(2) 0.5070(4) 0.8148(3)
H8 H 0.0766 0.5629 0.8036
C18 C 0.14500(18) 0.5189(4) 0.7498(3)
C19 C 0.0438(2) 0.3372(4) 0.9154(2)
C20 C -0.06578(18) 1.1241(4) 0.1043(2)
C21 C 0.11564(19) 0.5624(4) 0.7049(2)
C22 C 0.0839(2) 0.5127(4) 0.6795(2)
H9 H 0.0800 0.4560 0.6914
C23 C -0.14131(18) 0.9960(4) 0.2308(3)
C24 C -0.0412(2) 1.1656(4) 0.0587(2)
C25 C 0.1025(2) 0.3409(4) 0.8465(3)
H10 H 0.1084 0.2837 0.8564
C26 C -0.09567(19) 1.1701(4) 0.1333(2)
H11 H -0.0999 1.2284 0.1251
C27 C -0.1513(2) 0.4775(4) 0.4680(3)
C28 C -0.11948(19) 1.1315(4) 0.1744(3)
H12 H -0.1396 1.1641 0.1931
C29 C -0.0798(2) 0.5090(4) 0.4992(2)
H13 H -0.0543 0.4892 0.5152
C30 C 0.0597(2) 0.4666(4) 0.8546(3)
H14 H 0.0371 0.4958 0.8705
C31 C 0.1514(2) 1.0082(4) 0.5141(3)
C32 C 0.1275(2) 0.3820(4) 0.8077(3)
H15 H 0.1505 0.3528 0.7926
C33 C 0.1204(2) 0.6474(4) 0.6872(3)
H16 H 0.1416 0.6822 0.7036
C34 C -0.2165(2) 0.2741(5) 0.4301(3)
C35 C 0.05787(19) 0.5453(4) 0.6364(2)
H17 H 0.0371 0.5103 0.6194
C36 C 0.0779(2) 0.9737(4) 0.5258(3)
H18 H 0.0519 0.9878 0.5414
C37 C 0.1713(3) 0.5852(6) 0.7862(3)
C38 C -0.1130(2) 0.4519(4) 0.4928(2)
H19 H -0.1098 0.3951 0.5053
C39 C 0.2290(2) 1.1824(5) 0.5739(3)
C40 C 0.1895(2) 1.0625(4) 0.5260(3)
H20 H 0.2139 1.0503 0.5062
C41 C 0.1534(2) 0.9367(4) 0.4801(3)
H21 H 0.1787 0.9223 0.4629
C42 C -0.1867(2) 0.4171(5) 0.4547(3)
H22 H -0.2141 0.4400 0.4522
C43 C -0.1732(2) 0.9395(6) 0.1962(3)
C44 C -0.1199(2) 0.6181(4) 0.4611(3)
H23 H -0.1226 0.6758 0.4502
C45 C -0.1824(2) 0.3341(5) 0.4464(3)
H24 H -0.1552 0.3110 0.4512
C46 C 0.1916(2) 1.1265(4) 0.5623(3)
H25 H 0.1673 1.1375 0.5826
C47 C -0.1672(3) 1.0572(5) 0.2683(3)
C48 C 0.1122(2) 1.0273(5) 0.5353(3)
H26 H 0.1089 1.0774 0.5565
C49 C 0.1175(2) 0.8866(4) 0.4718(3)
H27 H 0.1194 0.8388 0.4483
C50 C -0.1546(2) 0.5650(4) 0.4532(3)
H28 H -0.1801 0.5869 0.4382
C51 C 0.2665(2) 1.1673(5) 0.5523(3)
H29 H 0.2710 1.1179 0.5310
C52 C 0.2983(3) 1.2249(6) 0.5619(4)
H30 H 0.3249 1.2146 0.5466
C53 C 0.2537(3) 1.3105(6) 0.6151(4)
H31 H 0.2494 1.3595 0.6370
C54 C 0.2926(3) 1.2971(6) 0.5930(4)
H32 H 0.3148 1.3365 0.5990
C55 C -0.2070(2) 0.1895(5) 0.4154(3)
H33 H -0.1787 0.1717 0.4146
C56 C -0.2389(3) 0.1320(5) 0.4019(3)
H34 H -0.2325 0.0753 0.3920
C57 C -0.2803(3) 0.1592(5) 0.4033(3)
H35 H -0.3029 0.1220 0.3947
C58 C -0.2872(2) 0.2445(5) 0.4180(3)
H36 H -0.3153 0.2635 0.4183
F1 F -0.19818(13) 1.0994(3) 0.23992(18)
F2 F -0.14216(15) 1.1169(3) 0.29258(17)
F3 F -0.18572(14) 1.0134(3) 0.30951(18)
F4 F -0.20438(12) 0.9057(3) 0.22614(17)
F5 F -0.15394(13) 0.8732(3) 0.17137(16)
F6 F -0.19232(12) 0.9857(3) 0.15480(17)
F7 F 0.20821(12) 0.4295(3) 0.75063(17)
F8 F 0.15739(13) 0.3947(3) 0.69303(16)
F9 F 0.19579(12) 0.5065(3) 0.67722(17)
F10 F 0.20159(13) 0.6249(3) 0.75691(18)
F11 F 0.14640(14) 0.6470(3) 0.80628(16)
F12 F 0.19102(13) 0.5463(3) 0.82935(17)
N1 N 0.08059(15) 0.9019(3) 0.4950(2)
N2 N -0.08254(15) 0.5920(3) 0.48346(19)
N3 N 0.2208(2) 1.2535(5) 0.6059(3)
N4 N -0.25698(19) 0.3016(4) 0.4317(2)
O5 O -0.00979(14) 1.1247(3) 0.04044(17)
O6 O -0.05433(13) 1.2383(3) 0.04218(17)
O7 O 0.01130(13) 0.3756(3) 0.93271(16)
O8 O 0.05770(14) 0.2656(3) 0.93221(17)
Zn1E Zn 0.03082(2) 1.18118(4) -0.01310(3)
Zn1E_2 Zn 0.03082(2) 0.18118(4) 0.98690(3)
Zn2E Zn -0.03144(2) 1.32728(4) -0.01188(3)
Zn2E_2 Zn -0.03144(2) 0.32728(4) 0.98812(3)
O5E O -0.00979(14) 0.8753(3) 0.54044(17)
O6E O -0.05433(13) 0.7617(3) 0.54218(17)
O7E O 0.01130(13) 0.6244(3) 0.43271(16)
O8E O 0.05770(14) 0.7344(3) 0.43221(17)
loop_
_geom_bond_atom_site_label_1
_geom_bond_atom_site_label_2
_geom_bond_site_symmetry_1
_geom_bond_site_symmetry_2
O1 C1 1_555 1_555
O2 C1 1_555 1_555
C1 C2 1_555 1_555
C2 C3 1_555 1_555
C3 H1 1_555 1_555
O3 C4 1_555 1_555
O4 C4 1_555 1_555
C4 C5 1_555 1_555
C5 C6 1_555 1_555
C6 H2 1_555 1_555
C7 C5 1_555 1_555
H3 C7 1_555 1_555
C8 C6 1_555 1_555
H4 C8 1_555 1_555
C9 C7 1_555 1_555
H5 C9 1_555 1_555
C10 C8 1_555 1_555
Zn1 O1 1_555 1_555
Zn2 O2 1_555 1_555
C11 C14 1_555 1_555
C12 C17 1_555 1_555
C13 C19 1_555 1_555
C14 H6 1_555 1_555
C15 C14 1_555 1_555
H7 C15 1_555 1_555
C16 C18 1_555 1_555
C17 H8 1_555 1_555
C18 C12 1_555 1_555
C19 O7 1_555 1_555
C20 C15 1_555 1_555
C21 C18 1_555 1_555
C22 C21 1_555 1_555
H9 C22 1_555 1_555
C23 C10 1_555 1_555
C24 C20 1_555 1_555
C25 C13 1_555 1_555
H10 C25 1_555 1_555
C26 C20 1_555 1_555
H11 C26 1_555 1_555
C27 C38 1_555 1_555
C28 C11 1_555 1_555
H12 C28 1_555 1_555
C29 H13 1_555 1_555
C30 C13 1_555 1_555
H14 C30 1_555 1_555
C31 C40 1_555 1_555
C32 C12 1_555 1_555
H15 C32 1_555 1_555
C33 C3 1_555 1_555
H16 C33 1_555 1_555
C34 C45 1_555 1_555
C35 C2 1_555 1_555
H17 C35 1_555 1_555
C36 H18 1_555 1_555
C37 C18 1_555 1_555
C38 C29 1_555 1_555
H19 C38 1_555 1_555
C39 C46 1_555 1_555
C40 H20 1_555 1_555
C41 C31 1_555 1_555
H21 C41 1_555 1_555
C42 C27 1_555 1_555
H22 C42 1_555 1_555
C43 C23 1_555 1_555
C44 H23 1_555 1_555
C45 C42 1_555 1_555
H24 C45 1_555 1_555
C46 C40 1_555 1_555
H25 C46 1_555 1_555
C47 C23 1_555 1_555
C48 C31 1_555 1_555
H26 C48 1_555 1_555
C49 C41 1_555 1_555
H27 C49 1_555 1_555
C50 C27 1_555 1_555
H28 C50 1_555 1_555
C51 C39 1_555 1_555
H29 C51 1_555 1_555
C52 C51 1_555 1_555
H30 C52 1_555 1_555
C53 H31 1_555 1_555
C54 C52 1_555 1_555
H32 C54 1_555 1_555
C55 C34 1_555 1_555
H33 C55 1_555 1_555
C56 C55 1_555 1_555
H34 C56 1_555 1_555
C57 C56 1_555 1_555
H35 C57 1_555 1_555
C58 C57 1_555 1_555
H36 C58 1_555 1_555
F1 C47 1_555 1_555
F2 C47 1_555 1_555
F3 C47 1_555 1_555
F4 C43 1_555 1_555
F5 C43 1_555 1_555
F6 C43 1_555 1_555
F7 C16 1_555 1_555
F8 C16 1_555 1_555
F9 C16 1_555 1_555
F10 C37 1_555 1_555
F11 C37 1_555 1_555
F12 C37 1_555 1_555
N1 Zn1 1_555 1_555
N2 Zn2 1_555 1_555
N3 C39 1_555 1_555
N4 C34 1_555 1_555
O5 C24 1_555 1_555
O6 C24 1_555 1_555
O7 Zn2E_2 1_555 1_555
O8 C19 1_555 1_555
Zn1E O5 1_555 1_555
Zn1E_2 O8 1_555 1_555
Zn2E O6 1_555 1_555
O5E Zn1 1_555 1_555
O6E Zn2 1_555 1_555
O7E Zn2 1_555 1_555
O8E Zn1 1_555 1_555
O3 Zn1 1_555 1_555
O4 Zn2 1_555 1_555
C9 C10 1_555 1_555
C11 C23 1_555 1_555
C17 C30 1_555 1_555
C21 C33 1_555 1_555
C22 C35 1_555 1_555
C25 C32 1_555 1_555
C26 C28 1_555 1_555
C29 N2 1_555 1_555
C36 C48 1_555 1_555
C36 N1 1_555 1_555
C44 C50 1_555 1_555
C44 N2 1_555 1_555
C49 N1 1_555 1_555
C53 C54 1_555 1_555
C53 N3 1_555 1_555
C58 N4 1_555 1_555

#END
