
#######################################################################
#
#                 Cambridge Crystallographic Data Centre
#                                CCDC 
#
#######################################################################
#
# If this CIF has been generated from an entry in the Cambridge 
# Structural Database, then it will include bibliographic, chemical, 
# crystal, experimental, refinement or atomic coordinate data resulting 
# from the CCDC's data processing and validation procedures.
#
#######################################################################

data_VUPQAZ01
_symmetry_cell_setting           monoclinic
_symmetry_space_group_name_H-M   'C 2/c'
_symmetry_Int_Tables_number      15
_space_group_name_Hall           '-C 2yn'
loop_
_symmetry_equiv_pos_site_id
_symmetry_equiv_pos_as_xyz
1 x,y,z
2 -x,y,1/2-z
3 1/2+x,1/2+y,z
4 1/2-x,1/2+y,1/2-z
5 -x,-y,-z
6 x,-y,1/2+z
7 1/2-x,1/2-y,-z
8 1/2+x,1/2-y,1/2+z
_cell_length_a                   12.4777(19)
_cell_length_b                   17.797(3)
_cell_length_c                   13.250(2)
_cell_angle_alpha                90
_cell_angle_beta                 105.063(2)
_cell_angle_gamma                90
_cell_volume                     2841.27
loop_
_atom_site_label
_atom_site_type_symbol
_atom_site_fract_x
_atom_site_fract_y
_atom_site_fract_z
Zn1 Zn 0.0000 0.448159(19) 0.2500
O1 O 0.01231(16) 0.40468(11) 0.11883(14)
O2 O -0.1335(2) 0.34090(12) 0.1293(2)
N1 N 0.13161(15) 0.52147(10) 0.26397(14)
C1 C 0.1495(2) 0.54950(13) 0.1756(2)
H1 H 0.1021 0.5351 0.1121
C2 C 0.2016(2) 0.54382(14) 0.3536(2)
H2 H 0.1920 0.5252 0.4163
C3 C 0.40286(19) 0.67142(14) 0.2656(2)
H3 H 0.4255 0.6986 0.3311
H4 H 0.3809 0.7078 0.2095
C4 C 0.0540(2) 0.26894(13) -0.12587(18)
H5 H 0.1095 0.2790 -0.1591
C5 C 0.0444(2) 0.31359(13) -0.04419(18)
H6 H 0.0944 0.3527 -0.0221
C6 C -0.03882(18) 0.30108(12) 0.00594(17)
C7 C -0.0566(2) 0.35182(13) 0.09076(19)
C8 C 0.0000 0.15947(18) -0.2500
C9 C -0.01753(19) 0.20899(12) -0.15992(17)
C10 C 0.30623(17) 0.62142(12) 0.26659(18)
C11 C 0.2873(2) 0.59319(15) 0.3568(2)
H7 H 0.3332 0.6076 0.4210
C12 C -0.1087(2) 0.24036(13) -0.02687(19)
H8 H -0.1640 0.2301 0.0067
C13 C 0.23393(19) 0.59808(14) 0.17453(19)
H9 H 0.2428 0.6156 0.1111
C14 C -0.0985(2) 0.19493(13) -0.10774(19)
H10 H -0.1463 0.1544 -0.1277
F1 F -0.19432(15) 0.14743(11) -0.32514(13)
C15 C 0.5000 0.62473(19) 0.2500
H11 H 0.5264 0.5926 0.3105
C16 C -0.0998(3) 0.10902(16) -0.2972(2)
F2 F -0.0882(2) 0.07315(10) -0.38275(14)
F3 F -0.1159(2) 0.05463(8) -0.23229(15)
Zn1_2 Zn 0.0000 0.448159(19) -0.7500
Zn1_3 Zn 1.0000 0.448159(19) 0.2500
O1A O -0.01231(16) 0.40468(11) -0.61883(14)
O1A_2 O -0.01231(16) 0.40468(11) 0.38117(14)
O2A O 0.1335(2) 0.34090(12) -0.6293(2)
N1A N 0.86839(15) 0.52147(10) 0.23603(14)
N1A_2 N -0.13161(15) 0.52147(10) 0.23603(14)
C1A C 0.8505(2) 0.54950(13) 0.3244(2)
H1A H 0.8979 0.5351 0.3879
C2A C 0.7984(2) 0.54382(14) 0.1464(2)
H2A H 0.8080 0.5252 0.0837
C3A C 0.59714(19) 0.67142(14) 0.2344(2)
H3A H 0.5745 0.6986 0.1689
H4A H 0.6191 0.7078 0.2905
C4A C -0.0540(2) 0.26894(13) -0.37413(18)
H5A H -0.1095 0.2790 -0.3409
C5A C -0.0444(2) 0.31359(13) -0.45581(18)
H6A H -0.0944 0.3527 -0.4779
C6A C 0.03882(18) 0.30108(12) -0.50594(17)
C7A C 0.0566(2) 0.35182(13) -0.59076(19)
C9A C 0.01753(19) 0.20899(12) -0.34008(17)
C10A C 0.69377(17) 0.62142(12) 0.23341(18)
C11A C 0.7127(2) 0.59319(15) 0.1432(2)
H7A H 0.6668 0.6076 0.0790
C12A C 0.1087(2) 0.24036(13) -0.47313(19)
H8A H 0.1640 0.2301 -0.5067
C13A C 0.76607(19) 0.59808(14) 0.32547(19)
H9A H 0.7572 0.6156 0.3889
C14A C 0.0985(2) 0.19493(13) -0.39226(19)
H10A H 0.1463 0.1544 -0.3723
F1A F 0.19432(15) 0.14743(11) -0.17486(13)
H11A H 0.4736 0.5926 0.1895
C16A C 0.0998(3) 0.10902(16) -0.2028(2)
F2A F 0.0882(2) 0.07315(10) -0.11725(14)
F3A F 0.1159(2) 0.05463(8) -0.26771(15)
loop_
_geom_bond_atom_site_label_1
_geom_bond_atom_site_label_2
_geom_bond_site_symmetry_1
_geom_bond_site_symmetry_2
Zn1 O1 1_555 1_555
O1 C7 1_555 1_555
O2 C7 1_555 1_555
N1 Zn1 1_555 1_555
C1 N1 1_555 1_555
H1 C1 1_555 1_555
C2 N1 1_555 1_555
H2 C2 1_555 1_555
C3 H3 1_555 1_555
H4 C3 1_555 1_555
C4 H5 1_555 1_555
C5 C4 1_555 1_555
H6 C5 1_555 1_555
C6 C5 1_555 1_555
C7 C6 1_555 1_555
C8 C9 1_555 1_555
C9 C4 1_555 1_555
C10 C3 1_555 1_555
C11 C2 1_555 1_555
H7 C11 1_555 1_555
C12 C6 1_555 1_555
H8 C12 1_555 1_555
C13 C1 1_555 1_555
H9 C13 1_555 1_555
C14 C9 1_555 1_555
H10 C14 1_555 1_555
F1 C16 1_555 1_555
C15 C3 1_555 1_555
H11 C15 1_555 1_555
C16 C8 1_555 1_555
F2 C16 1_555 1_555
F3 C16 1_555 1_555
Zn1_2 O1A 1_555 1_555
Zn1_3 N1A 1_555 1_555
O1A C7A 1_555 1_555
O1A_2 Zn1 1_555 1_555
O2A C7A 1_555 1_555
N1A C1A 1_555 1_555
N1A_2 Zn1 1_555 1_555
C1A H1A 1_555 1_555
C2A N1A 1_555 1_555
H2A C2A 1_555 1_555
C3A C15 1_555 1_555
H3A C3A 1_555 1_555
H4A C3A 1_555 1_555
C4A H5A 1_555 1_555
C5A C4A 1_555 1_555
H6A C5A 1_555 1_555
C6A C5A 1_555 1_555
C7A C6A 1_555 1_555
C9A C8 1_555 1_555
C10A C3A 1_555 1_555
C11A C2A 1_555 1_555
H7A C11A 1_555 1_555
C12A C6A 1_555 1_555
H8A C12A 1_555 1_555
C13A C1A 1_555 1_555
H9A C13A 1_555 1_555
C14A C9A 1_555 1_555
H10A C14A 1_555 1_555
F1A C16A 1_555 1_555
H11A C15 1_555 1_555
C16A C8 1_555 1_555
F2A C16A 1_555 1_555
F3A C16A 1_555 1_555
C10 C11 1_555 1_555
C10 C13 1_555 1_555
C12 C14 1_555 1_555
C4A C9A 1_555 1_555
C10A C11A 1_555 1_555
C10A C13A 1_555 1_555
C12A C14A 1_555 1_555

#END
