
#######################################################################
#
#                 Cambridge Crystallographic Data Centre
#                                CCDC 
#
#######################################################################
#
# If this CIF has been generated from an entry in the Cambridge 
# Structural Database, then it will include bibliographic, chemical, 
# crystal, experimental, refinement or atomic coordinate data resulting 
# from the CCDC's data processing and validation procedures.
#
#######################################################################

data_VUPSUV01
_symmetry_cell_setting           orthorhombic
_symmetry_space_group_name_H-M   'P n a 21'
_symmetry_Int_Tables_number      33
_space_group_name_Hall           'P 2c -2n'
loop_
_symmetry_equiv_pos_site_id
_symmetry_equiv_pos_as_xyz
1 x,y,z
2 -x,-y,1/2+z
3 1/2+x,1/2-y,z
4 1/2-x,1/2+y,1/2+z
_cell_length_a                   18.754
_cell_length_b                   6.5583(16)
_cell_length_c                   18.754(5)
_cell_angle_alpha                90
_cell_angle_beta                 90
_cell_angle_gamma                90
_cell_volume                     2306.64
loop_
_atom_site_label
_atom_site_type_symbol
_atom_site_fract_x
_atom_site_fract_y
_atom_site_fract_z
Ce1 Ce 1.02168(3) 0.86379(9) 0.50858(4)
O1 O 0.8742(4) 0.7330(11) 0.5286(4)
O2 O 0.9528(4) 0.7318(14) 0.6156(5)
O3 O 0.9456(4) 1.1529(13) 0.5565(5)
O4 O 1.0823(5) 0.5570(13) 0.5649(5)
O5 O 1.0656(4) 1.1909(12) 0.4572(6)
O6 O 0.9882(3) 0.5767(11) 0.4416(4)
O7 O 0.9415(4) 0.9748(12) 0.4058(5)
O8 O 1.0874(4) 0.9712(14) 0.6451(5)
O9 O 1.1502(4) 0.9498(12) 0.5461(5)
O10 O 1.1284(4) 0.7926(13) 0.4178(4)
Ce2 Ce 0.75526(3) 0.63729(8) 0.46955(4)
C1 C 0.8883(6) 0.7134(18) 0.5926(7)
C2 C 1.1139(6) 0.7640(18) 0.3527(7)
N1 N 0.7691(5) 0.6270(14) 0.6123(6)
C3 C 0.8308(6) 0.6623(18) 0.6447(6)
O11 O 1.2209(4) 0.5023(10) 0.5214(5)
N2 N 1.2346(5) 0.8627(14) 0.3301(6)
O12 O 1.3547(4) 0.9503(14) 0.3901(5)
O13 O 1.3084(3) 1.2307(9) 0.5095(7)
O14 O 1.2094(3) 1.2251(10) 0.4330(5)
O15 O 1.2961(4) 0.4989(10) 0.4203(5)
O16 O 1.0595(5) 0.6882(18) 0.3260(5)
C4 C 1.1714(6) 0.8171(18) 0.3006(7)
C5 C 0.7117(6) 0.5898(17) 0.6537(7)
C6 C 0.6446(6) 0.5498(19) 0.6111(8)
C7 C 0.8401(6) 0.666(2) 0.7167(7)
C8 C 1.2914(7) 0.899(2) 0.2835(7)
C9 C 1.3566(6) 0.953(2) 0.3230(8)
S1 S 1.25822(12) 1.3632(3) 0.4701(2)
C10 C 1.1615(7) 0.8274(19) 0.2260(7)
C11 C 0.7138(7) 0.6038(19) 0.7272(7)
C12 C 0.7812(7) 0.637(2) 0.7602(8)
H1 H 0.8850 0.6880 0.7363
C13 C 1.2831(7) 0.911(2) 0.2126(9)
O17 O 1.4122(5) 0.9894(16) 0.2886(5)
C14 C 1.2184(8) 0.872(2) 0.1805(7)
H2 H 1.1165 0.8041 0.2069
H3 H 0.6725 0.5919 0.7543
H4 H 0.7855 0.6387 0.8096
H5 H 1.3220 0.9457 0.1844
H6 H 1.2129 0.8756 0.1312
Ce2B Ce 1.25526(3) 0.86271(8) 0.46955(4)
O9B O 0.6502(4) 0.5502(12) 0.5461(5)
O1B O 1.3742(4) 0.7670(11) 0.5286(4)
N1B N 1.2691(5) 0.8730(14) 0.6123(6)
Ce1B Ce 0.52168(3) 0.63621(9) 0.50858(4)
O8B O 0.5874(4) 0.5288(14) 0.6451(5)
O11_2 O 1.2209(4) 1.5023(10) 0.5214(5)
O15_2 O 1.2961(4) 1.4989(10) 0.4203(5)
Ce2B_2 Ce 1.25526(3) 1.86271(8) 0.46955(4)
O18 O 0.5060(6) 0.1545(16) 0.6710(5)
O19 O 0.4875(6) 0.3459(15) 0.2801(6)
loop_
_geom_bond_atom_site_label_1
_geom_bond_atom_site_label_2
_geom_bond_site_symmetry_1
_geom_bond_site_symmetry_2
Ce1 O1 1_555 1_555
O1 Ce2 1_555 1_555
O2 Ce1 1_555 1_555
O3 Ce1 1_555 1_555
O4 Ce1 1_555 1_555
O5 Ce1 1_555 1_555
O6 Ce1 1_555 1_555
O7 Ce1 1_555 1_555
O8 Ce1 1_555 1_555
O9 Ce1 1_555 1_555
O10 Ce1 1_555 1_555
Ce2 N1 1_555 1_555
C1 O1 1_555 1_555
C2 O10 1_555 1_555
N1 C3 1_555 1_555
C3 C1 1_555 1_555
O11 Ce2B 1_555 1_555
N2 C4 1_555 1_555
O12 C9 1_555 1_555
O13 S1 1_555 1_555
O14 S1 1_555 1_555
O15 Ce2B 1_555 1_555
O16 C2 1_555 1_555
C4 C2 1_555 1_555
C5 N1 1_555 1_555
C6 C5 1_555 1_555
C7 C3 1_555 1_555
C8 N2 1_555 1_555
C9 C8 1_555 1_555
S1 O11_2 1_555 1_555
C10 C4 1_555 1_555
C11 C5 1_555 1_555
C12 C7 1_555 1_555
H1 C7 1_555 1_555
C13 C8 1_555 1_555
O17 C9 1_555 1_555
C14 C10 1_555 1_555
H2 C10 1_555 1_555
H3 C11 1_555 1_555
H4 C12 1_555 1_555
H5 C13 1_555 1_555
H6 C14 1_555 1_555
Ce2B O9 1_555 1_555
O9B Ce2 1_555 1_555
O1B Ce2B 1_555 1_555
N1B Ce2B 1_555 1_555
Ce1B O9B 1_555 1_555
O8B C6 1_555 1_555
O11_2 Ce2B_2 1_555 1_555
O15_2 S1 1_555 1_555
Ce2B_2 O15_2 1_555 1_555
O2 C1 1_555 1_555
O10 Ce2B 1_555 1_555
N2 Ce2B 1_555 1_555
O12 Ce2B 1_555 1_555
O13 Ce2B 1_555 1_555
O14 Ce2B 1_555 1_555
C6 O9B 1_555 1_555
C11 C12 1_555 1_555
C13 C14 1_555 1_555
Ce1B O8B 1_555 1_555

#END
