
#######################################################################
#
#                 Cambridge Crystallographic Data Centre
#                                CCDC 
#
#######################################################################
#
# If this CIF has been generated from an entry in the Cambridge 
# Structural Database, then it will include bibliographic, chemical, 
# crystal, experimental, refinement or atomic coordinate data resulting 
# from the CCDC's data processing and validation procedures.
#
#######################################################################

data_VUPSUV
_symmetry_cell_setting           orthorhombic
_symmetry_space_group_name_H-M   'P n a 21'
_symmetry_Int_Tables_number      33
_space_group_name_Hall           'P 2c -2n'
loop_
_symmetry_equiv_pos_site_id
_symmetry_equiv_pos_as_xyz
1 x,y,z
2 -x,-y,1/2+z
3 1/2+x,1/2-y,z
4 1/2-x,1/2+y,1/2+z
_cell_length_a                   18.8558(19)
_cell_length_b                   6.5831(7)
_cell_length_c                   18.7543(19)
_cell_angle_alpha                90
_cell_angle_beta                 90
_cell_angle_gamma                90
_cell_volume                     2327.96
loop_
_atom_site_label
_atom_site_type_symbol
_atom_site_fract_x
_atom_site_fract_y
_atom_site_fract_z
Ce1 Ce 0.522249(14) 0.13660(4) 0.761263(16)
Ce2 Ce 0.755806(13) 0.13751(4) 0.721065(14)
S1 S 0.75929(6) 0.63599(16) 0.72195(9)
O1 O 0.49023(17) 0.4529(5) 0.69028(19)
H1 H 0.5167 0.4358 0.6554
H2 H 0.4508 0.4957 0.6775
O2 O 0.5839(2) 0.4363(6) 0.8196(2)
H3 H 0.6150 0.5050 0.7996
H4 H 0.5563 0.5100 0.8425
O3 O 0.56523(18) -0.1913(6) 0.7118(3)
H5 H 0.6064 -0.2250 0.7004
H6 H 0.5381 -0.2910 0.7088
O4 O 0.4452(2) -0.1463(6) 0.8103(2)
H7 H 0.4532 -0.2249 0.8437
H8 H 0.4066 -0.1723 0.7908
O5 O 0.44600(19) 0.0247(6) 0.66041(19)
H9 H 0.4646 -0.0589 0.6332
H10 H 0.4046 -0.0075 0.6702
O6 O 0.5607(2) 0.3178(7) 0.5782(2)
O7 O 0.62757(18) 0.2133(6) 0.67046(19)
O8 O 0.9115(2) 0.0080(7) 0.5390(2)
O9 O 0.85532(19) 0.0415(6) 0.6433(2)
O10 O 0.45198(19) 0.2713(6) 0.8676(2)
O11 O 0.37468(18) 0.2685(6) 0.77942(17)
O12 O 0.15075(17) 0.4444(6) 0.7976(2)
O13 O 0.08673(18) 0.4736(6) 0.8956(2)
O14 O 0.79617(17) 0.4996(5) 0.67133(19)
O15 O 0.72073(18) 0.4998(5) 0.77141(19)
O16 O 0.70995(17) 0.7746(5) 0.68437(19)
O17 O 0.80889(16) 0.7689(5) 0.7609(2)
N1 N 0.7356(2) 0.1380(6) 0.5807(3)
N2 N 0.2684(2) 0.3731(6) 0.8644(2)
C1 C 0.3902(3) 0.2896(9) 0.8447(3)
C2 C 0.3313(3) 0.3352(8) 0.8961(3)
C3 C 0.3394(3) 0.3321(8) 0.9691(3)
H11 H 0.3836 0.3075 0.9893
C4 C 0.2811(3) 0.3660(8) 1.0115(3)
H12 H 0.2855 0.3627 1.0609
C5 C 0.2158(3) 0.4052(9) 0.9804(3)
H13 H 0.1758 0.4276 1.0084
C6 C 0.2118(3) 0.4101(8) 0.9069(3)
C7 C 0.1444(3) 0.4464(8) 0.8656(3)
C8 C 0.8577(3) 0.0445(9) 0.5755(3)
C9 C 0.7896(3) 0.0952(8) 0.5378(3)
C10 C 0.7828(3) 0.0942(8) 0.4635(3)
H14 H 0.8219 0.0698 0.4345
C11 C 0.7170(3) 0.1301(8) 0.4343(3)
H15 H 0.7106 0.1249 0.3851
C12 C 0.6605(3) 0.1742(8) 0.4789(3)
H16 H 0.6156 0.1995 0.4602
C13 C 0.6722(3) 0.1797(8) 0.5522(3)
C14 C 0.6149(3) 0.2421(8) 0.6035(3)
Ce1B Ce 0.022249(14) 0.36340(4) 0.761263(16)
Ce2B Ce 0.255806(13) 0.36249(4) 0.721065(14)
Ce2_2 Ce 0.755806(13) 1.13751(4) 0.721065(14)
O11B O 0.87468(18) 0.2315(6) 0.77942(17)
O12B O 0.65075(17) 0.0556(6) 0.7976(2)
O13B O 0.58673(18) 0.0264(6) 0.8956(2)
O16_2 O 0.70995(17) -0.2254(5) 0.68437(19)
O17_2 O 0.80889(16) -0.2311(5) 0.7609(2)
N2B N 0.7684(2) 0.1269(6) 0.8644(2)
O18 O 0.4894(3) 0.8473(7) 0.5351(3)
H17 H 0.4789 0.9045 0.4971
H18 H 0.4703 0.7335 0.5378
O19 O 0.0090(2) 0.8447(7) 0.9217(3)
H19 H 0.0338 0.7544 0.9400
H20 H -0.0084 0.9199 0.9526
loop_
_geom_bond_atom_site_label_1
_geom_bond_atom_site_label_2
_geom_bond_site_symmetry_1
_geom_bond_site_symmetry_2
Ce1 O1 1_555 1_555
Ce2 O7 1_555 1_555
S1 O14 1_555 1_555
O1 H1 1_555 1_555
H2 O1 1_555 1_555
O2 Ce1 1_555 1_555
H3 O2 1_555 1_555
H4 O2 1_555 1_555
O3 Ce1 1_555 1_555
H5 O3 1_555 1_555
H6 O3 1_555 1_555
O4 Ce1 1_555 1_555
H7 O4 1_555 1_555
H8 O4 1_555 1_555
O5 Ce1 1_555 1_555
H9 O5 1_555 1_555
H10 O5 1_555 1_555
O6 C14 1_555 1_555
O7 Ce1 1_555 1_555
O8 C8 1_555 1_555
O9 Ce2 1_555 1_555
O10 Ce1 1_555 1_555
O11 Ce1 1_555 1_555
O12 C7 1_555 1_555
O13 C7 1_555 1_555
O14 Ce2 1_555 1_555
O15 Ce2 1_555 1_555
O16 S1 1_555 1_555
O17 S1 1_555 1_555
N1 Ce2 1_555 1_555
N2 C2 1_555 1_555
C1 O10 1_555 1_555
C2 C1 1_555 1_555
C3 C2 1_555 1_555
H11 C3 1_555 1_555
C4 C3 1_555 1_555
H12 C4 1_555 1_555
C5 C4 1_555 1_555
H13 C5 1_555 1_555
C6 N2 1_555 1_555
C7 C6 1_555 1_555
C8 O9 1_555 1_555
C9 N1 1_555 1_555
C10 C9 1_555 1_555
H14 C10 1_555 1_555
C11 C10 1_555 1_555
H15 C11 1_555 1_555
C12 C11 1_555 1_555
H16 C12 1_555 1_555
C13 N1 1_555 1_555
C14 O7 1_555 1_555
O18 H17 1_555 1_555
H18 O18 1_555 1_555
O19 H19 1_555 1_555
H20 O19 1_555 1_555
Ce1B O12 1_555 1_555
Ce2B O11 1_555 1_555
Ce2_2 O16 1_555 1_555
O11B Ce2 1_555 1_555
O12B Ce1 1_555 1_555
O13B Ce1 1_555 1_555
O16_2 Ce2 1_555 1_555
O17_2 Ce2 1_555 1_555
N2B Ce2 1_555 1_555
Ce2 O12B 1_555 1_555
S1 O15 1_555 1_555
O11 C1 1_555 1_555
O12 Ce2B 1_555 1_555
O13 Ce1B 1_555 1_555
O17 Ce2_2 1_555 1_555
N2 Ce2B 1_555 1_555
C5 C6 1_555 1_555
C8 C9 1_555 1_555
C12 C13 1_555 1_555
C13 C14 1_555 1_555

#END
