
#######################################################################
#
#                 Cambridge Crystallographic Data Centre
#                                CCDC 
#
#######################################################################
#
# If this CIF has been generated from an entry in the Cambridge 
# Structural Database, then it will include bibliographic, chemical, 
# crystal, experimental, refinement or atomic coordinate data resulting 
# from the CCDC's data processing and validation procedures.
#
#######################################################################

data_VUPSAB
_symmetry_cell_setting           monoclinic
_symmetry_space_group_name_H-M   'P 21/c'
_symmetry_Int_Tables_number      14
_space_group_name_Hall           '-P 2ybc'
loop_
_symmetry_equiv_pos_site_id
_symmetry_equiv_pos_as_xyz
1 x,y,z
2 -x,1/2+y,1/2-z
3 -x,-y,-z
4 x,1/2-y,1/2+z
_cell_length_a                   13.0632(2)
_cell_length_b                   17.6269(3)
_cell_length_c                   16.0409(2)
_cell_angle_alpha                90
_cell_angle_beta                 96.061(2)
_cell_angle_gamma                90
_cell_volume                     3672.99
loop_
_atom_site_label
_atom_site_type_symbol
_atom_site_fract_x
_atom_site_fract_y
_atom_site_fract_z
Ag1 Ag -0.14354(4) 0.91625(3) 0.18172(4)
P1 P -0.21774(15) 0.82622(11) 0.07511(12)
P2 P -0.19128(15) 0.60458(11) -0.17135(12)
C1 C -0.0212(6) 0.7951(4) -0.1063(4)
C2 C -0.3940(6) 0.5526(5) -0.1841(5)
H1 H -0.3658 0.5048 -0.1725
C3 C 0.0742(6) 0.9125(4) -0.1362(4)
H2 H 0.0208 0.9395 -0.1162
C4 C -0.3440(6) 0.8570(4) 0.0275(5)
C5 C 0.0679(6) 0.8345(4) -0.1364(4)
N1 N 0.1525(5) 0.9524(4) -0.1632(4)
C6 C -0.0694(6) 0.8253(4) -0.0389(5)
H3 H -0.0439 0.8693 -0.0122
C7 C -0.4140(6) 0.8817(5) 0.0816(5)
H4 H -0.3946 0.8827 0.1391
C8 C 0.1480(6) 0.7958(5) -0.1670(5)
H5 H 0.1477 0.7431 -0.1681
C9 C -0.3732(7) 0.8592(5) -0.0580(5)
H6 H -0.3272 0.8442 -0.0953
C10 C -0.3312(6) 0.6160(4) -0.1809(4)
C11 C -0.1441(6) 0.6914(4) -0.1184(4)
C12 C -0.3748(6) 0.6876(5) -0.1976(5)
H7 H -0.3330 0.7304 -0.1959
C13 C -0.1911(6) 0.7224(4) -0.0515(5)
H8 H -0.2476 0.6979 -0.0329
C14 C -0.1548(6) 0.7894(4) -0.0123(4)
C15 C -0.2420(6) 0.7376(4) 0.1274(4)
C16 C -0.5423(6) 0.6322(6) -0.2205(5)
H9 H -0.6130 0.6374 -0.2337
C17 C -0.4993(7) 0.5607(5) -0.2047(5)
H10 H -0.5415 0.5181 -0.2080
C18 C -0.0588(5) 0.7285(4) -0.1445(4)
H11 H -0.0262 0.7082 -0.1882
C19 C 0.2288(6) 0.9125(5) -0.1911(5)
H12 H 0.2850 0.9386 -0.2079
C20 C 0.2281(6) 0.8348(5) -0.1960(5)
H13 H 0.2809 0.8090 -0.2185
C21 C -0.3371(6) 0.7057(5) 0.1338(5)
H14 H -0.3962 0.7301 0.1100
C22 C -0.4806(6) 0.6945(5) -0.2167(5)
H15 H -0.5095 0.7423 -0.2270
C23 C -0.5398(7) 0.9067(5) -0.0349(6)
H16 H -0.6049 0.9233 -0.0561
C24 C -0.1645(6) 0.5293(4) -0.0944(5)
C25 C -0.2081(7) 0.5269(5) -0.0198(5)
H17 H -0.2556 0.5638 -0.0086
C26 C -0.1822(8) 0.4699(5) 0.0394(6)
H18 H -0.2109 0.4688 0.0900
C27 C -0.3454(7) 0.6367(5) 0.1761(6)
H19 H -0.4100 0.6160 0.1805
C28 C -0.2596(8) 0.5996(6) 0.2108(6)
H20 H -0.2660 0.5539 0.2386
C29 C -0.5119(7) 0.9048(5) 0.0510(6)
H21 H -0.5588 0.9190 0.0878
C30 C -0.1528(7) 0.6998(5) 0.1649(5)
H22 H -0.0881 0.7213 0.1628
C31 C -0.1623(8) 0.6304(5) 0.2047(5)
H23 H -0.1038 0.6046 0.2272
S1 S 0.11738(15) 0.89123(13) 0.19633(14)
F1 F 0.2507(5) 0.9752(4) 0.1280(4)
C32 C -0.0678(8) 0.4162(5) -0.0527(7)
H24 H -0.0203 0.3792 -0.0638
F2 F 0.1098(6) 0.9543(5) 0.0495(4)
C33 C -0.1117(7) 0.4150(5) 0.0200(6)
H25 H -0.0943 0.3762 0.0582
F3 F 0.2254(7) 0.8679(5) 0.0724(6)
C34 C -0.0944(7) 0.4738(5) -0.1109(6)
H26 H -0.0649 0.4747 -0.1612
C35 C 0.1812(8) 0.9211(7) 0.1090(6)
C36 C -0.4701(8) 0.8837(5) -0.0880(6)
H27 H -0.4889 0.8846 -0.1455
O2 O 0.1989(5) 0.8769(4) 0.2612(4)
O3 O 0.0603(6) 0.8245(5) 0.1667(5)
O4 O 0.0530(7) 0.9535(5) 0.2132(5)
Ag1C Ag -0.14354(4) 0.58375(3) -0.31828(4)
Ag1B Ag 0.14354(4) 1.08375(3) -0.18172(4)
P2C P -0.19128(15) 0.89542(11) 0.32865(12)
N1B N -0.1525(5) 1.0476(4) 0.1632(4)
O1 O 0.4002(5) 0.8658(4) 0.6742(4)
C37 C 0.3640(8) 0.8294(6) 0.6131(6)
H28 H 0.3170 0.7916 0.6231
C38 C 0.3381(10) 0.7899(6) 0.4671(7)
H29 H 0.2968 0.7517 0.4900
H30 H 0.3913 0.7661 0.4394
H31 H 0.2956 0.8201 0.4275
N2 N 0.3842(6) 0.8378(5) 0.5338(5)
C39 C 0.4498(8) 0.8990(6) 0.5090(7)
H32 H 0.4763 0.9273 0.5577
H33 H 0.4102 0.9320 0.4704
H34 H 0.5059 0.8780 0.4825
loop_
_geom_bond_atom_site_label_1
_geom_bond_atom_site_label_2
_geom_bond_site_symmetry_1
_geom_bond_site_symmetry_2
Ag1 P1 1_555 1_555
P1 C4 1_555 1_555
P2 C10 1_555 1_555
C1 C5 1_555 1_555
C2 H1 1_555 1_555
C3 H2 1_555 1_555
C4 C7 1_555 1_555
C5 C3 1_555 1_555
N1 C3 1_555 1_555
C6 C1 1_555 1_555
H3 C6 1_555 1_555
C7 H4 1_555 1_555
C8 C5 1_555 1_555
H5 C8 1_555 1_555
C9 C4 1_555 1_555
H6 C9 1_555 1_555
C10 C2 1_555 1_555
C11 P2 1_555 1_555
C12 C10 1_555 1_555
H7 C12 1_555 1_555
C13 C11 1_555 1_555
H8 C13 1_555 1_555
C14 P1 1_555 1_555
C15 P1 1_555 1_555
C16 H9 1_555 1_555
C17 C2 1_555 1_555
H10 C17 1_555 1_555
C18 C1 1_555 1_555
H11 C18 1_555 1_555
C19 N1 1_555 1_555
H12 C19 1_555 1_555
C20 C8 1_555 1_555
H13 C20 1_555 1_555
C21 C15 1_555 1_555
H14 C21 1_555 1_555
C22 C12 1_555 1_555
H15 C22 1_555 1_555
C23 H16 1_555 1_555
C24 P2 1_555 1_555
C25 C24 1_555 1_555
H17 C25 1_555 1_555
C26 C25 1_555 1_555
H18 C26 1_555 1_555
C27 C21 1_555 1_555
H19 C27 1_555 1_555
C28 C27 1_555 1_555
H20 C28 1_555 1_555
C29 C7 1_555 1_555
H21 C29 1_555 1_555
C30 C15 1_555 1_555
H22 C30 1_555 1_555
C31 C28 1_555 1_555
H23 C31 1_555 1_555
S1 C35 1_555 1_555
F1 C35 1_555 1_555
C32 H24 1_555 1_555
F2 C35 1_555 1_555
C33 C26 1_555 1_555
H25 C33 1_555 1_555
F3 C35 1_555 1_555
C34 C24 1_555 1_555
H26 C34 1_555 1_555
C36 C9 1_555 1_555
H27 C36 1_555 1_555
O1 C37 1_555 1_555
C37 H28 1_555 1_555
C38 H29 1_555 1_555
H30 C38 1_555 1_555
H31 C38 1_555 1_555
N2 C37 1_555 1_555
C39 N2 1_555 1_555
H32 C39 1_555 1_555
H33 C39 1_555 1_555
H34 C39 1_555 1_555
O2 S1 1_555 1_555
O3 S1 1_555 1_555
O4 Ag1 1_555 1_555
Ag1C P2 1_555 1_555
Ag1B N1 1_555 1_555
P2C Ag1 1_555 1_555
N1B Ag1 1_555 1_555
C6 C14 1_555 1_555
C11 C18 1_555 1_555
C13 C14 1_555 1_555
C16 C17 1_555 1_555
C16 C22 1_555 1_555
C19 C20 1_555 1_555
C23 C29 1_555 1_555
C23 C36 1_555 1_555
C30 C31 1_555 1_555
S1 O4 1_555 1_555
C32 C33 1_555 1_555
C32 C34 1_555 1_555
C38 N2 1_555 1_555

#END
