
#######################################################################
#
#                 Cambridge Crystallographic Data Centre
#                                CCDC 
#
#######################################################################
#
# If this CIF has been generated from an entry in the Cambridge 
# Structural Database, then it will include bibliographic, chemical, 
# crystal, experimental, refinement or atomic coordinate data resulting 
# from the CCDC's data processing and validation procedures.
#
#######################################################################

data_VUPSEF
_symmetry_cell_setting           triclinic
_symmetry_space_group_name_H-M   'P -1'
_symmetry_Int_Tables_number      2
_space_group_name_Hall           '-P 1'
loop_
_symmetry_equiv_pos_site_id
_symmetry_equiv_pos_as_xyz
1 x,y,z
2 -x,-y,-z
_cell_length_a                   8.2591(17)
_cell_length_b                   10.651(2)
_cell_length_c                   13.120(3)
_cell_angle_alpha                93.858(2)
_cell_angle_beta                 103.532(2)
_cell_angle_gamma                107.906(2)
_cell_volume                     1055.58
loop_
_atom_site_label
_atom_site_type_symbol
_atom_site_fract_x
_atom_site_fract_y
_atom_site_fract_z
Sm1 Sm 0.72321(3) 0.320860(19) 0.104615(16)
Sm2 Sm 1.17397(3) -0.02848(2) 0.311834(17)
O1 O 0.5501(4) 0.1815(3) 0.2097(2)
O2 O 0.4605(4) 0.1436(3) 0.3563(3)
O3 O 0.9233(4) 0.5520(3) 0.1629(2)
O4 O 1.0394(4) 0.7417(3) 0.2745(3)
O5 O 0.6640(4) 0.4535(3) -0.0389(2)
O6 O 0.5207(4) 0.5896(3) -0.1057(2)
O7 O 0.7642(4) 0.0929(3) 0.0916(2)
O8 O 0.9325(4) -0.0265(3) 0.1614(2)
O9 O 0.9887(4) 0.3103(3) 0.2289(2)
O10 O 1.1330(4) 0.1839(3) 0.3105(3)
O11 O 1.2207(4) 0.0267(3) 0.5016(2)
O12 O 1.1028(4) 0.0697(3) 0.6320(2)
O13 O 0.4842(4) 0.1689(3) -0.0390(2)
H1 H 0.4162 0.0923 -0.0429
H2 H 0.4745 0.1951 -0.0972
O14 O 0.9096(4) 0.3152(3) -0.0148(3)
H3 H 0.9871 0.2806 0.0047
H4 H 0.9391 0.3716 -0.0535
O15 O 1.2846(4) -0.0592(3) 0.1621(3)
H5 H 1.2352 -0.1158 0.1083
H6 H 1.3743 -0.0022 0.1555
O16 O 1.3936(5) -0.1344(4) 0.3906(3)
H7 H 1.4139 -0.1912 0.3540
H8 H 1.4856 -0.0754 0.4252
N1 N 0.7524(5) 0.4268(3) 0.2925(3)
C1 C 0.6620(6) 0.3565(4) 0.3544(3)
C2 C 0.6730(7) 0.4133(5) 0.4553(4)
H15 H 0.6093 0.3636 0.4974
C3 C 0.7794(8) 0.5440(5) 0.4927(4)
H16 H 0.7877 0.5837 0.5599
C4 C 0.8738(7) 0.6153(5) 0.4282(4)
H17 H 0.9475 0.7031 0.4517
C5 C 0.8558(6) 0.5531(4) 0.3288(3)
C6 C 0.5484(6) 0.2165(4) 0.3039(4)
C7 C 0.9472(6) 0.6214(4) 0.2493(4)
C8 C 0.5539(5) 0.5122(4) -0.0417(3)
C9 C 1.0928(6) 0.0278(4) 0.5384(3)
C10 C 0.8930(5) 0.0781(4) 0.1560(3)
C11 C 1.0159(6) 0.2024(4) 0.2385(4)
Sm1A Sm 0.27679(3) 0.679140(19) -0.104615(16)
Sm2A Sm -0.17397(3) 1.02848(2) -0.311834(17)
Sm2_2 Sm 0.17397(3) -0.02848(2) 0.311834(17)
Sm2_3 Sm 1.17397(3) 0.97152(2) 0.311834(17)
Sm2A_2 Sm -0.17397(3) 0.02848(2) -0.311834(17)
Sm2A_3 Sm 0.82603(3) 0.02848(2) 0.688166(17)
Sm2A_4 Sm 0.82603(3) 1.02848(2) -0.311834(17)
O1A O 0.4499(4) 0.8185(3) -0.2097(2)
O2A O 0.5395(4) 0.8564(3) -0.3563(3)
O2_2 O 1.4605(4) 0.1436(3) 0.3563(3)
O2A_2 O -0.4605(4) 0.8564(3) -0.3563(3)
O3A O 0.0767(4) 0.4480(3) -0.1629(2)
O4A O -0.0394(4) 0.2583(3) -0.2745(3)
O4_2 O 1.0394(4) -0.2583(3) 0.2745(3)
O4A_2 O -0.0394(4) 1.2583(3) -0.2745(3)
O5A O 0.3360(4) 0.5465(3) 0.0389(2)
O6A O 0.4793(4) 0.4104(3) 0.1057(2)
O7A O 0.2358(4) 0.9071(3) -0.0916(2)
O8A O 0.0675(4) 1.0265(3) -0.1614(2)
O9A O 0.0113(4) 0.6897(3) -0.2289(2)
O10A O -0.1330(4) 0.8161(3) -0.3105(3)
O11A O 0.7793(4) -0.0267(3) 0.4984(2)
O11A_2 O -0.2207(4) 0.9733(3) -0.5016(2)
O12A O 0.8972(4) -0.0697(3) 0.3680(2)
O12_2 O 0.1028(4) 1.0697(3) -0.3680(2)
O13A O 0.5158(4) 0.8311(3) 0.0390(2)
H1A H 0.5838 0.9077 0.0429
H2A H 0.5255 0.8049 0.0972
O14A O 0.0904(4) 0.6848(3) 0.0148(3)
H3A H 0.0129 0.7194 -0.0047
H4A H 0.0609 0.6284 0.0535
O15A O -0.2846(4) 1.0592(3) -0.1621(3)
H5A H -0.2352 1.1158 -0.1083
H6A H -0.3743 1.0022 -0.1555
O16A O -0.3936(5) 1.1344(4) -0.3906(3)
H7A H -0.4139 1.1912 -0.3540
H8A H -0.4856 1.0754 -0.4252
N1A N 0.2476(5) 0.5732(3) -0.2925(3)
C1A C 0.3380(6) 0.6435(4) -0.3544(3)
C2A C 0.3270(7) 0.5867(5) -0.4553(4)
H15A H 0.3907 0.6364 -0.4974
C3A C 0.2206(8) 0.4560(5) -0.4927(4)
H16A H 0.2123 0.4163 -0.5599
C4A C 0.1262(7) 0.3847(5) -0.4282(4)
H17A H 0.0525 0.2969 -0.4517
C5A C 0.1442(6) 0.4469(4) -0.3288(3)
C6A C 0.4516(6) 0.7835(4) -0.3039(4)
C7A C 0.0528(6) 0.3786(4) -0.2493(4)
C8A C 0.4461(5) 0.4878(4) 0.0417(3)
C9A C 0.9072(6) -0.0278(4) 0.4616(3)
C10A C 0.1070(5) 0.9219(4) -0.1560(3)
C11A C -0.0159(6) 0.7976(4) -0.2385(4)
O17 O 0.8554(4) 0.8074(3) -0.0395(3)
H9 H 0.7542 0.7530 -0.0651
H10 H 0.8573 0.8618 0.0095
O18 O 1.6534(7) 0.4584(7) 0.7240(4)
H11 H 1.5994 0.5081 0.7350
H12 H 1.7603 0.4983 0.7333
O19 O 1.4147(9) 0.2419(6) 0.7683(4)
H13 H 1.3106 0.2092 0.7314
H14 H 1.4717 0.3051 0.7431
loop_
_geom_bond_atom_site_label_1
_geom_bond_atom_site_label_2
_geom_bond_site_symmetry_1
_geom_bond_site_symmetry_2
Sm1 O1 1_555 1_555
Sm2 O8 1_555 1_555
O1 C6 1_555 1_555
O2 C6 1_555 1_555
O3 Sm1 1_555 1_555
O4 C7 1_555 1_555
O5 Sm1 1_555 1_555
O6 C8 1_555 1_555
O7 Sm1 1_555 1_555
O8 C10 1_555 1_555
O9 Sm1 1_555 1_555
O10 Sm2 1_555 1_555
O11 Sm2 1_555 1_555
O12 C9 1_555 1_555
O13 Sm1 1_555 1_555
H1 O13 1_555 1_555
H2 O13 1_555 1_555
O14 Sm1 1_555 1_555
H3 O14 1_555 1_555
H4 O14 1_555 1_555
O15 Sm2 1_555 1_555
H5 O15 1_555 1_555
H6 O15 1_555 1_555
O16 Sm2 1_555 1_555
H7 O16 1_555 1_555
H8 O16 1_555 1_555
O17 H9 1_555 1_555
H10 O17 1_555 1_555
O18 H11 1_555 1_555
H12 O18 1_555 1_555
O19 H13 1_555 1_555
H14 O19 1_555 1_555
N1 Sm1 1_555 1_555
C1 N1 1_555 1_555
C2 C1 1_555 1_555
H15 C2 1_555 1_555
C3 C2 1_555 1_555
H16 C3 1_555 1_555
C4 C3 1_555 1_555
H17 C4 1_555 1_555
C5 N1 1_555 1_555
C6 C1 1_555 1_555
C7 O3 1_555 1_555
C8 O5 1_555 1_555
C9 O11 1_555 1_555
C10 O7 1_555 1_555
C11 O9 1_555 1_555
Sm1A O6 1_555 1_555
Sm2A O2A_2 1_555 1_555
Sm2_2 O2 1_555 1_555
Sm2_3 O4 1_555 1_555
Sm2A_2 O4A 1_555 1_555
Sm2A_3 O12 1_555 1_555
Sm2A_4 O2A 1_555 1_555
O1A Sm1A 1_555 1_555
O2A C6A 1_555 1_555
O2_2 Sm2 1_555 1_555
O3A Sm1A 1_555 1_555
O4A C7A 1_555 1_555
O4_2 Sm2 1_555 1_555
O4A_2 Sm2A 1_555 1_555
O5A Sm1A 1_555 1_555
O6A Sm1 1_555 1_555
O7A Sm1A 1_555 1_555
O8A Sm2A 1_555 1_555
O9A Sm1A 1_555 1_555
O10A Sm2A 1_555 1_555
O11A Sm2A_3 1_555 1_555
O11A_2 Sm2A 1_555 1_555
O12A Sm2 1_555 1_555
O12_2 Sm2A 1_555 1_555
O13A Sm1A 1_555 1_555
H1A O13A 1_555 1_555
H2A O13A 1_555 1_555
O14A Sm1A 1_555 1_555
H3A O14A 1_555 1_555
H4A O14A 1_555 1_555
O15A Sm2A 1_555 1_555
H5A O15A 1_555 1_555
H6A O15A 1_555 1_555
O16A Sm2A 1_555 1_555
H7A O16A 1_555 1_555
H8A O16A 1_555 1_555
N1A Sm1A 1_555 1_555
C1A N1A 1_555 1_555
C2A C1A 1_555 1_555
H15A C2A 1_555 1_555
C3A C2A 1_555 1_555
H16A C3A 1_555 1_555
C4A C3A 1_555 1_555
H17A C4A 1_555 1_555
C5A N1A 1_555 1_555
C6A O1A 1_555 1_555
C7A O3A 1_555 1_555
C8A C8 1_555 1_555
C9A C9 1_555 1_555
C10A O7A 1_555 1_555
C11A O9A 1_555 1_555
O10 C11 1_555 1_555
C4 C5 1_555 1_555
C5 C7 1_555 1_555
C10 C11 1_555 1_555
O5A C8A 1_555 1_555
O6A C8A 1_555 1_555
O8A C10A 1_555 1_555
O10A C11A 1_555 1_555
O11A C9A 1_555 1_555
O12A C9A 1_555 1_555
C1A C6A 1_555 1_555
C4A C5A 1_555 1_555
C5A C7A 1_555 1_555
C10A C11A 1_555 1_555

#END
