
#######################################################################
#
#                 Cambridge Crystallographic Data Centre
#                                CCDC 
#
#######################################################################
#
# If this CIF has been generated from an entry in the Cambridge 
# Structural Database, then it will include bibliographic, chemical, 
# crystal, experimental, refinement or atomic coordinate data resulting 
# from the CCDC's data processing and validation procedures.
#
#######################################################################

data_VUPSIJ
_symmetry_cell_setting           triclinic
_symmetry_space_group_name_H-M   'P -1'
_symmetry_Int_Tables_number      2
_space_group_name_Hall           '-P 1'
loop_
_symmetry_equiv_pos_site_id
_symmetry_equiv_pos_as_xyz
1 x,y,z
2 -x,-y,-z
_cell_length_a                   8.2119(10)
_cell_length_b                   10.5846(13)
_cell_length_c                   13.0751(16)
_cell_angle_alpha                94.0010(10)
_cell_angle_beta                 103.3020(10)
_cell_angle_gamma                107.7200(10)
_cell_volume                     1041.47
loop_
_atom_site_label
_atom_site_type_symbol
_atom_site_fract_x
_atom_site_fract_y
_atom_site_fract_z
Gd1 Gd -0.72261(2) 0.178940(18) 0.395200(15)
Gd2 Gd -1.17169(3) 0.528630(19) 0.188530(15)
O1 O -0.5479(4) 0.3186(3) 0.2924(2)
O2 O -0.4554(4) 0.3582(3) 0.1459(2)
O3 O -0.9217(4) -0.0513(3) 0.3392(2)
O4 O -1.0380(4) -0.2434(3) 0.2269(3)
O5 O -0.9857(4) 0.1892(3) 0.2717(2)
O6 O -1.1318(4) 0.3164(3) 0.1896(3)
O7 O -0.7624(4) 0.4073(3) 0.4088(2)
O8 O -0.9315(4) 0.5275(3) 0.3384(2)
O9 O -0.4803(4) 0.0893(3) 0.3932(2)
O10 O -0.3344(4) -0.0471(3) 0.4614(2)
O11 O -0.1042(4) -0.5694(3) 0.8681(2)
O12 O 0.2214(4) -0.4740(3) 1.0000(2)
N1 N -0.7507(4) 0.0735(3) 0.2089(3)
C1 C -0.6603(6) 0.1440(4) 0.1462(3)
C2 C -0.6709(7) 0.0878(5) 0.0447(4)
H1 H -0.6069 0.1378 0.0025
C3 C -0.7781(8) -0.0440(5) 0.0072(4)
H2 H -0.7864 -0.0842 -0.0602
C4 C -0.8729(7) -0.1150(5) 0.0722(4)
H3 H -0.9480 -0.2028 0.0481
C5 C -0.8548(5) -0.0538(4) 0.1728(3)
C6 C -0.5452(5) 0.2843(4) 0.1980(3)
C7 C -0.9450(6) -0.1222(4) 0.2523(3)
C8 C -1.0131(6) 0.2981(4) 0.2611(3)
C9 C -0.8907(5) 0.4224(4) 0.3439(3)
C10 C -0.4461(5) 0.0117(4) 0.4580(3)
C11 C 0.0941(5) -0.4725(4) 1.0385(3)
O13 O -0.9088(4) 0.1850(3) 0.5131(2)
H4 H -0.9869 0.2205 0.4930
H5 H -0.9352 0.1380 0.5595
O14 O -0.4852(4) 0.3292(3) 0.5378(2)
H6 H -0.4170 0.4058 0.5391
H7 H -0.4713 0.3081 0.5984
O15 O 0.2815(4) -0.5603(3) 0.6627(3)
H8 H 0.3723 -0.5026 0.6577
H9 H 0.2417 -0.6219 0.6120
O16 O 0.3908(5) -0.6344(4) 0.8885(3)
H10 H 0.3485 -0.6974 0.9191
H11 H 0.4985 -0.5979 0.9150
Gd1A Gd -0.27739(2) -0.178940(18) 0.604800(15)
Gd2_2 Gd -1.17169(3) -0.471370(19) 0.188530(15)
Gd2_3 Gd -0.17169(3) 0.528630(19) 0.188530(15)
Gd2A Gd -0.82831(3) -0.528630(19) 0.811470(15)
Gd2A_2 Gd 0.17169(3) 0.471370(19) 0.811470(15)
Gd2A_3 Gd 0.17169(3) -0.528630(19) 0.811470(15)
Gd2_4 Gd -0.17169(3) -0.471370(19) 1.188530(15)
O1A O -0.4521(4) -0.3186(3) 0.7076(2)
O2A O -0.5446(4) -0.3582(3) 0.8541(2)
O2A_2 O 0.4554(4) -0.3582(3) 0.8541(2)
O2_2 O -1.4554(4) 0.3582(3) 0.1459(2)
O3A O -0.0783(4) 0.0513(3) 0.6608(2)
O4A O 0.0380(4) 0.2434(3) 0.7731(3)
O4A_2 O 0.0380(4) -0.7566(3) 0.7731(3)
O4_2 O -1.0380(4) 0.7566(3) 0.2269(3)
O5A O -0.0143(4) -0.1892(3) 0.7283(2)
O6A O 0.1318(4) -0.3164(3) 0.8104(3)
O7A O -0.2376(4) -0.4073(3) 0.5912(2)
O8A O -0.0685(4) -0.5275(3) 0.6616(2)
O9A O -0.5197(4) -0.0893(3) 0.6068(2)
O10A O -0.6656(4) 0.0471(3) 0.5386(2)
O11A O -0.8958(4) 0.5694(3) 0.1319(2)
O11A_2 O 0.1042(4) -0.4306(3) 1.1319(2)
O12A O -1.2214(4) 0.4740(3) 0.0000(2)
O12A_2 O -0.2214(4) -0.5260(3) 1.0000(2)
N1A N -0.2493(4) -0.0735(3) 0.7911(3)
C1A C -0.3397(6) -0.1440(4) 0.8538(3)
C2A C -0.3291(7) -0.0878(5) 0.9553(4)
H1A H -0.3931 -0.1378 0.9975
C3A C -0.2219(8) 0.0440(5) 0.9928(4)
H2A H -0.2136 0.0842 1.0602
C4A C -0.1271(7) 0.1150(5) 0.9278(4)
H3A H -0.0520 0.2028 0.9519
C5A C -0.1452(5) 0.0538(4) 0.8272(3)
C6A C -0.4548(5) -0.2843(4) 0.8020(3)
C7A C -0.0550(6) 0.1222(4) 0.7477(3)
C8A C 0.0131(6) -0.2981(4) 0.7389(3)
C9A C -0.1093(5) -0.4224(4) 0.6561(3)
C10A C -0.5539(5) -0.0117(4) 0.5420(3)
C11A C -0.0941(5) -0.5275(4) 0.9615(3)
O13A O -0.0912(4) -0.1850(3) 0.4869(2)
H4A H -0.0131 -0.2205 0.5070
H5A H -0.0648 -0.1380 0.4405
O14A O -0.5148(4) -0.3292(3) 0.4622(2)
H6A H -0.5830 -0.4058 0.4609
H7A H -0.5287 -0.3081 0.4016
O15A O -1.2815(4) 0.5603(3) 0.3373(3)
H8A H -1.3723 0.5026 0.3423
H9A H -1.2417 0.6219 0.3880
O16A O -1.3908(5) 0.6344(4) 0.1115(3)
H10A H -1.3485 0.6974 0.0809
H11A H -1.4985 0.5979 0.0850
O17 O -0.1454(4) 0.3091(3) 0.4595(3)
H12 H -0.1385 0.3472 0.5182
H13 H -0.2420 0.2499 0.4342
O18 O 0.4166(8) 0.7411(5) 0.2678(4)
H14 H 0.5027 0.7786 0.2443
H15 H 0.3290 0.6952 0.2180
O19 O -0.3457(7) -0.0381(6) 0.2236(4)
H16 H -0.3392 -0.0587 0.2853
H17 H -0.3142 0.0431 0.2260
loop_
_geom_bond_atom_site_label_1
_geom_bond_atom_site_label_2
_geom_bond_site_symmetry_1
_geom_bond_site_symmetry_2
Gd1 O1 1_555 1_555
Gd2 O6 1_555 1_555
O1 C6 1_555 1_555
O2 C6 1_555 1_555
O3 Gd1 1_555 1_555
O4 C7 1_555 1_555
O5 Gd1 1_555 1_555
O6 C8 1_555 1_555
O7 Gd1 1_555 1_555
O8 Gd2 1_555 1_555
O9 Gd1 1_555 1_555
O10 C10 1_555 1_555
O11 Gd2A_3 1_555 1_555
O12 C11 1_555 1_555
N1 Gd1 1_555 1_555
C1 N1 1_555 1_555
C2 C1 1_555 1_555
H1 C2 1_555 1_555
C3 C2 1_555 1_555
H2 C3 1_555 1_555
C4 C3 1_555 1_555
H3 C4 1_555 1_555
C5 N1 1_555 1_555
C6 C1 1_555 1_555
C7 O3 1_555 1_555
C8 O5 1_555 1_555
C9 O7 1_555 1_555
C10 O9 1_555 1_555
C11 O11A_2 1_555 1_555
O13 Gd1 1_555 1_555
H4 O13 1_555 1_555
H5 O13 1_555 1_555
O14 Gd1 1_555 1_555
H6 O14 1_555 1_555
H7 O14 1_555 1_555
O15 H8 1_555 1_555
H9 O15 1_555 1_555
O16 H10 1_555 1_555
H11 O16 1_555 1_555
O17 H12 1_555 1_555
H13 O17 1_555 1_555
O18 H14 1_555 1_555
H15 O18 1_555 1_555
O19 H16 1_555 1_555
H17 O19 1_555 1_555
Gd1A O10 1_555 1_555
Gd2_2 O4 1_555 1_555
Gd2_3 O2 1_555 1_555
Gd2A O2A 1_555 1_555
Gd2A_2 O4A 1_555 1_555
Gd2A_3 O12 1_555 1_555
Gd2_4 O11A_2 1_555 1_555
O1A Gd1A 1_555 1_555
O2A C6A 1_555 1_555
O2A_2 Gd2A_3 1_555 1_555
O2_2 Gd2 1_555 1_555
O3A Gd1A 1_555 1_555
O4A C7A 1_555 1_555
O4A_2 Gd2A_3 1_555 1_555
O4_2 Gd2 1_555 1_555
O5A Gd1A 1_555 1_555
O6A Gd2A_3 1_555 1_555
O7A Gd1A 1_555 1_555
O8A Gd2A_3 1_555 1_555
O9A Gd1A 1_555 1_555
O10A Gd1 1_555 1_555
O11A Gd2 1_555 1_555
O12A Gd2 1_555 1_555
O12A_2 Gd2_4 1_555 1_555
N1A Gd1A 1_555 1_555
C1A N1A 1_555 1_555
C2A C1A 1_555 1_555
H1A C2A 1_555 1_555
C3A C2A 1_555 1_555
H2A C3A 1_555 1_555
C4A C3A 1_555 1_555
H3A C4A 1_555 1_555
C5A N1A 1_555 1_555
C6A O1A 1_555 1_555
C7A O3A 1_555 1_555
C8A O5A 1_555 1_555
C9A O7A 1_555 1_555
C10A C10 1_555 1_555
C11A O11 1_555 1_555
O13A Gd1A 1_555 1_555
H4A O13A 1_555 1_555
H5A O13A 1_555 1_555
O14A Gd1A 1_555 1_555
H6A O14A 1_555 1_555
H7A O14A 1_555 1_555
O15A Gd2 1_555 1_555
H8A O15A 1_555 1_555
H9A O15A 1_555 1_555
O16A Gd2 1_555 1_555
H10A O16A 1_555 1_555
H11A O16A 1_555 1_555
O8 C9 1_555 1_555
C4 C5 1_555 1_555
C5 C7 1_555 1_555
C8 C9 1_555 1_555
C11 C11A 1_555 1_555
O15 Gd2A_3 1_555 1_555
O16 Gd2A_3 1_555 1_555
O6A C8A 1_555 1_555
O8A C9A 1_555 1_555
O9A C10A 1_555 1_555
O10A C10A 1_555 1_555
O12A_2 C11A 1_555 1_555
C1A C6A 1_555 1_555
C4A C5A 1_555 1_555
C5A C7A 1_555 1_555
C8A C9A 1_555 1_555

#END
