
#######################################################################
#
#                 Cambridge Crystallographic Data Centre
#                                CCDC 
#
#######################################################################
#
# If this CIF has been generated from an entry in the Cambridge 
# Structural Database, then it will include bibliographic, chemical, 
# crystal, experimental, refinement or atomic coordinate data resulting 
# from the CCDC's data processing and validation procedures.
#
#######################################################################

data_VUQHUL01
_symmetry_cell_setting           monoclinic
_symmetry_space_group_name_H-M   'P 21/c'
_symmetry_Int_Tables_number      14
_space_group_name_Hall           '-P 2ybc'
loop_
_symmetry_equiv_pos_site_id
_symmetry_equiv_pos_as_xyz
1 x,y,z
2 -x,1/2+y,1/2-z
3 -x,-y,-z
4 x,1/2-y,1/2+z
_cell_length_a                   3.5793(3)
_cell_length_b                   10.4878(9)
_cell_length_c                   8.5834(7)
_cell_angle_alpha                90
_cell_angle_beta                 99.5510(10)
_cell_angle_gamma                90
_cell_volume                     317.746
loop_
_atom_site_label
_atom_site_type_symbol
_atom_site_fract_x
_atom_site_fract_y
_atom_site_fract_z
C1 C 0.5743(9) 0.5552(3) 0.6000(4)
C2 C 0.3533(10) 0.5762(4) 0.4425(5)
Cd1 Cd 1.21353(7) 0.62225(2) 0.92213(3)
O1 O 0.6586(8) 0.6226(2) 0.7216(4)
O2 O 0.1729(7) 0.6681(3) 0.3738(4)
O3 O 0.7695(7) 0.5947(3) 1.0733(3)
H1 H 0.8072 0.6393 1.1746
C1B C 0.4257(9) 0.4448(3) 0.4000(4)
C2B C 0.6467(10) 0.4238(4) 0.5575(5)
Cd1B Cd -0.21353(7) 0.37775(2) 0.07787(3)
Cd1_2 Cd 0.21353(7) 0.62225(2) 0.92213(3)
Cd1C Cd 0.21353(7) 0.87775(2) 0.42213(3)
Cd1B_2 Cd 0.78647(7) 0.37775(2) 1.07787(3)
Cd1A Cd 0.78647(7) 0.12225(2) 0.57787(3)
Cd1B_3 Cd 0.78647(7) 0.37775(2) 0.07787(3)
Cd1_3 Cd 2.21353(7) 0.62225(2) 0.92213(3)
Cd1B_4 Cd 1.78647(7) 0.37775(2) 1.07787(3)
O1B O 0.3414(8) 0.3774(2) 0.2784(4)
O1_2 O 1.6586(8) 0.6226(2) 0.7216(4)
O1B_2 O -0.6586(8) 0.3774(2) 0.2784(4)
O2B O 0.8271(7) 0.3319(3) 0.6262(4)
O2C O 1.1729(7) 0.8319(3) 0.8738(4)
O2A O -0.1729(7) 0.1681(3) 0.1262(4)
O3_2 O 1.7695(7) 0.5947(3) 1.0733(3)
O3B O 1.2305(7) 0.4053(3) 0.9267(3)
O3B_2 O 0.2305(7) 0.4053(3) -0.0733(3)
O3B_3 O -0.7695(7) 0.4053(3) -0.0733(3)
O3_3 O -0.2305(7) 0.5947(3) 0.0733(3)
H1_2 H 1.8072 0.6393 1.1746
H1B H 1.1928 0.3607 0.8254
H1B_2 H 0.1928 0.3607 -0.1746
H1B_3 H -0.8072 0.3607 -0.1746
H1_3 H -0.1928 0.6393 0.1746
loop_
_geom_bond_atom_site_label_1
_geom_bond_atom_site_label_2
_geom_bond_site_symmetry_1
_geom_bond_site_symmetry_2
C1 C2 1_555 1_555
C2 O2 1_555 1_555
Cd1 O1 1_555 1_555
O1 C1 1_555 1_555
O2 Cd1C 1_555 1_555
O3 Cd1 1_555 1_555
H1 O3 1_555 1_555
C1B C2 1_555 1_555
C2B C1 1_555 1_555
Cd1B O1B 1_555 1_555
Cd1_2 O1 1_555 1_555
Cd1B_2 O3 1_555 1_555
Cd1A O2B 1_555 1_555
Cd1B_3 O1B 1_555 1_555
Cd1_3 O1_2 1_555 1_555
Cd1B_4 O3_2 1_555 1_555
O1B C1B 1_555 1_555
O1_2 Cd1 1_555 1_555
O1B_2 Cd1B 1_555 1_555
O2B C2B 1_555 1_555
O2C Cd1 1_555 1_555
O2A Cd1B 1_555 1_555
O3_2 Cd1 1_555 1_555
O3B Cd1 1_555 1_555
O3B_2 Cd1B 1_555 1_555
O3B_3 Cd1B 1_555 1_555
O3_3 Cd1B 1_555 1_555
H1_2 O3_2 1_555 1_555
H1B O3B 1_555 1_555
H1B_2 O3B_2 1_555 1_555
H1B_3 O3B_3 1_555 1_555
H1_3 O3_3 1_555 1_555
O3 Cd1_2 1_555 1_555
C1B C2B 1_555 1_555
Cd1B_2 O3B 1_555 1_555
Cd1B_3 O3B_2 1_555 1_555
Cd1_3 O3_2 1_555 1_555
Cd1B_4 O3B 1_555 1_555

#END
