
#######################################################################
#
#                 Cambridge Crystallographic Data Centre
#                                CCDC 
#
#######################################################################
#
# If this CIF has been generated from an entry in the Cambridge 
# Structural Database, then it will include bibliographic, chemical, 
# crystal, experimental, refinement or atomic coordinate data resulting 
# from the CCDC's data processing and validation procedures.
#
#######################################################################

data_VUQKAU
_symmetry_cell_setting           monoclinic
_symmetry_space_group_name_H-M   'P 21/c'
_symmetry_Int_Tables_number      14
_space_group_name_Hall           '-P 2ybc'
loop_
_symmetry_equiv_pos_site_id
_symmetry_equiv_pos_as_xyz
1 x,y,z
2 -x,1/2+y,1/2-z
3 -x,-y,-z
4 x,1/2-y,1/2+z
_cell_length_a                   13.958(3)
_cell_length_b                   18.507(4)
_cell_length_c                   12.351(3)
_cell_angle_alpha                90
_cell_angle_beta                 113.79(3)
_cell_angle_gamma                90
_cell_volume                     2919.42
loop_
_atom_site_label
_atom_site_type_symbol
_atom_site_fract_x
_atom_site_fract_y
_atom_site_fract_z
Mn1 Mn 0.08492(7) 0.51901(5) 0.32279(8)
Mn2 Mn 0.0000 0.5000 0.0000
C1 C 0.2674(5) 0.3561(3) 0.2259(6)
C2 C 0.3459(6) 0.3500(4) 0.3385(6)
H1 H 0.3379 0.3723 0.4018
C3 C 0.4366(5) 0.3109(4) 0.3583(6)
H2 H 0.4877 0.3067 0.4349
C4 C 0.4520(5) 0.2780(3) 0.2654(6)
C5 C 0.3722(5) 0.2833(3) 0.1538(6)
H3 H 0.3801 0.2607 0.0906
C6 C 0.2802(5) 0.3213(3) 0.1329(6)
H4 H 0.2276 0.3233 0.0569
C7 C 0.5499(5) 0.2372(3) 0.2856(5)
C8 C 0.5937(5) 0.2398(3) 0.2021(6)
H5 H 0.5648 0.2703 0.1371
C9 C 0.6797(5) 0.1975(4) 0.2147(6)
H6 H 0.7065 0.1988 0.1569
C10 C 0.7263(4) 0.1529(3) 0.3136(5)
C11 C 0.6847(5) 0.1521(3) 0.3978(6)
H7 H 0.7154 0.1233 0.4647
C12 C 0.5980(5) 0.1935(3) 0.3842(6)
H8 H 0.5714 0.1919 0.4422
C13 C 0.1727(4) 0.4036(3) 0.2043(6)
C14 C 0.8176(5) 0.1045(3) 0.3248(6)
C15 C -0.2226(4) 0.4847(3) 0.1327(5)
C16 C -0.2711(5) 0.5270(4) 0.0337(7)
H9 H -0.2309 0.5519 0.0015
C17 C -0.3792(5) 0.5329(4) -0.0185(7)
H10 H -0.4107 0.5617 -0.0852
C18 C -0.4415(4) 0.4960(3) 0.0278(6)
C19 C -0.3913(5) 0.4512(4) 0.1239(6)
H11 H -0.4313 0.4237 0.1531
C20 C -0.2830(4) 0.4463(4) 0.1780(6)
H12 H -0.2512 0.4172 0.2444
C21 C -0.1061(4) 0.4840(3) 0.1940(5)
C22 C 0.0408(7) 0.6751(4) 0.3805(9)
C23 C 0.1211(9) 0.6916(6) 0.5074(9)
H13 H 0.0998 0.7341 0.5364
H14 H 0.1888 0.6995 0.5066
H15 H 0.1245 0.6514 0.5581
C24 C 0.0610(9) 0.8004(4) 0.3327(11)
H16 H 0.0654 0.8169 0.4082
H17 H 0.0169 0.8324 0.2718
H18 H 0.1298 0.7997 0.3327
C25 C -0.0619(9) 0.7096(6) 0.1860(10)
H19 H -0.0256 0.6913 0.1402
H20 H -0.0995 0.7526 0.1494
H21 H -0.1102 0.6739 0.1898
C26 C 0.2523(7) 0.4669(5) 0.5615(7)
C27 C 0.2113(10) 0.3995(6) 0.5956(12)
H22 H 0.1390 0.4062 0.5816
H23 H 0.2511 0.3895 0.6779
H24 H 0.2174 0.3596 0.5490
C28 C 0.4325(9) 0.4252(7) 0.6743(11)
H25 H 0.4011 0.3908 0.7084
H26 H 0.4856 0.4519 0.7363
H27 H 0.4634 0.4002 0.6283
C29 C 0.3885(9) 0.5411(6) 0.5602(13)
H28 H 0.3638 0.5412 0.4755
H29 H 0.4637 0.5430 0.5948
H30 H 0.3612 0.5825 0.5851
N1 N 0.0167(7) 0.7272(4) 0.3104(9)
N2 N 0.3532(6) 0.4745(4) 0.5989(7)
O1 O 0.1113(3) 0.4149(2) 0.0990(4)
O2 O 0.1641(4) 0.4275(3) 0.2945(4)
O3 O 0.8281(4) 0.0938(3) 0.2293(5)
O4 O 0.8731(3) 0.0796(2) 0.4235(4)
O5 O -0.0521(3) 0.5141(2) 0.1437(4)
O6 O -0.0624(3) 0.4591(2) 0.2969(4)
O7 O 0.0068(4) 0.6125(2) 0.3571(5)
O8 O 0.1904(4) 0.5141(3) 0.5017(5)
Mn1B Mn -0.08492(7) 0.48099(5) -0.32279(8)
Mn1A Mn 0.91508(7) 0.01901(5) 0.17721(8)
Mn1B_2 Mn -1.08492(7) 0.48099(5) -0.32279(8)
Mn1C Mn -0.91508(7) 0.98099(5) -0.17721(8)
Mn2A Mn 1.0000 0.0000 0.5000
Mn2_2 Mn -1.0000 0.5000 0.0000
Mn2A_2 Mn -1.0000 1.0000 -0.5000
C1B C -0.2674(5) 0.6439(3) -0.2259(6)
C2B C -0.3459(6) 0.6500(4) -0.3385(6)
H1B H -0.3379 0.6277 -0.4018
C3B C -0.4366(5) 0.6891(4) -0.3583(6)
H2B H -0.4877 0.6933 -0.4349
C4B C -0.4520(5) 0.7220(3) -0.2654(6)
C5B C -0.3722(5) 0.7167(3) -0.1538(6)
H3B H -0.3801 0.7393 -0.0906
C6B C -0.2802(5) 0.6787(3) -0.1329(6)
H4B H -0.2276 0.6767 -0.0569
C7B C -0.5499(5) 0.7628(3) -0.2856(5)
C8B C -0.5937(5) 0.7602(3) -0.2021(6)
H5B H -0.5648 0.7297 -0.1371
C9B C -0.6797(5) 0.8025(4) -0.2147(6)
H6B H -0.7065 0.8012 -0.1569
C10B C -0.7263(4) 0.8471(3) -0.3136(5)
C11B C -0.6847(5) 0.8479(3) -0.3978(6)
H7B H -0.7154 0.8767 -0.4647
C12B C -0.5980(5) 0.8065(3) -0.3842(6)
H8B H -0.5714 0.8081 -0.4422
C13B C -0.1727(4) 0.5964(3) -0.2043(6)
C14B C -0.8176(5) 0.8955(3) -0.3248(6)
C15B C -0.7774(4) 0.5153(3) -0.1327(5)
C16B C -0.7289(5) 0.4730(4) -0.0337(7)
H9B H -0.7691 0.4481 -0.0015
C17B C -0.6208(5) 0.4671(4) 0.0185(7)
H10B H -0.5893 0.4383 0.0852
C18B C -0.5585(4) 0.5040(3) -0.0278(6)
C19B C -0.6087(5) 0.5488(4) -0.1239(6)
H11B H -0.5687 0.5763 -0.1531
C20B C -0.7170(4) 0.5537(4) -0.1780(6)
H12B H -0.7488 0.5828 -0.2444
C21B C -0.8939(4) 0.5160(3) -0.1940(5)
C22B C -0.0408(7) 0.3249(4) -0.3805(9)
C23B C -0.1211(9) 0.3084(6) -0.5074(9)
H13B H -0.0998 0.2659 -0.5364
H14B H -0.1888 0.3005 -0.5066
H15B H -0.1245 0.3486 -0.5581
C24B C -0.0610(9) 0.1996(4) -0.3327(11)
H16B H -0.0654 0.1831 -0.4082
H17B H -0.0169 0.1676 -0.2718
H18B H -0.1298 0.2003 -0.3327
C25B C 0.0619(9) 0.2904(6) -0.1860(10)
H19B H 0.0256 0.3087 -0.1402
H20B H 0.0995 0.2474 -0.1494
H21B H 0.1102 0.3261 -0.1898
C26B C -0.2523(7) 0.5331(5) -0.5615(7)
C27B C -0.2113(10) 0.6005(6) -0.5956(12)
H22B H -0.1390 0.5938 -0.5816
H23B H -0.2511 0.6105 -0.6779
H24B H -0.2174 0.6404 -0.5490
C28B C -0.4325(9) 0.5748(7) -0.6743(11)
H25B H -0.4011 0.6092 -0.7084
H26B H -0.4856 0.5481 -0.7363
H27B H -0.4634 0.5998 -0.6283
C29B C -0.3885(9) 0.4589(6) -0.5602(13)
H28B H -0.3638 0.4588 -0.4755
H29B H -0.4637 0.4570 -0.5948
H30B H -0.3612 0.4175 -0.5851
N1B N -0.0167(7) 0.2728(4) -0.3104(9)
N2B N -0.3532(6) 0.5255(4) -0.5989(7)
O1B O -0.1113(3) 0.5851(2) -0.0990(4)
O2B O -0.1641(4) 0.5725(3) -0.2945(4)
O3B O -0.8281(4) 0.9062(3) -0.2293(5)
O3A O 0.1719(4) 0.5938(3) 0.2707(5)
O3C O -0.1719(4) 0.4062(3) -0.2707(5)
O4B O -0.8731(3) 0.9204(2) -0.4235(4)
O4A O 0.1269(3) 0.5796(2) 0.0765(4)
O4C O -0.1269(3) 0.4204(2) -0.0765(4)
O5B O -0.9479(3) 0.4859(2) -0.1437(4)
O5B_2 O 0.0521(3) 0.4859(2) -0.1437(4)
O6B O -0.9376(3) 0.5409(2) -0.2969(4)
O6B_2 O 0.0624(3) 0.5409(2) -0.2969(4)
O7B O -0.0068(4) 0.3875(2) -0.3571(5)
O8B O -0.1904(4) 0.4859(3) -0.5017(5)
loop_
_geom_bond_atom_site_label_1
_geom_bond_atom_site_label_2
_geom_bond_site_symmetry_1
_geom_bond_site_symmetry_2
Mn1 O2 1_555 1_555
Mn2 O1 1_555 1_555
C1 C2 1_555 1_555
C2 H1 1_555 1_555
C3 C2 1_555 1_555
H2 C3 1_555 1_555
C4 C3 1_555 1_555
C5 C4 1_555 1_555
H3 C5 1_555 1_555
C6 C1 1_555 1_555
H4 C6 1_555 1_555
C7 C4 1_555 1_555
C8 C7 1_555 1_555
H5 C8 1_555 1_555
C9 C8 1_555 1_555
H6 C9 1_555 1_555
C10 C9 1_555 1_555
C11 C10 1_555 1_555
H7 C11 1_555 1_555
C12 C7 1_555 1_555
H8 C12 1_555 1_555
C13 C1 1_555 1_555
C14 C10 1_555 1_555
C15 C16 1_555 1_555
C16 H9 1_555 1_555
C17 C16 1_555 1_555
H10 C17 1_555 1_555
C18 C17 1_555 1_555
C19 C18 1_555 1_555
H11 C19 1_555 1_555
C20 C15 1_555 1_555
H12 C20 1_555 1_555
C21 C15 1_555 1_555
C22 C23 1_555 1_555
C23 H13 1_555 1_555
H14 C23 1_555 1_555
H15 C23 1_555 1_555
C24 H16 1_555 1_555
H17 C24 1_555 1_555
H18 C24 1_555 1_555
C25 H19 1_555 1_555
H20 C25 1_555 1_555
H21 C25 1_555 1_555
C26 C27 1_555 1_555
C27 H22 1_555 1_555
H23 C27 1_555 1_555
H24 C27 1_555 1_555
C28 H25 1_555 1_555
H26 C28 1_555 1_555
H27 C28 1_555 1_555
C29 H28 1_555 1_555
H29 C29 1_555 1_555
H30 C29 1_555 1_555
N1 C22 1_555 1_555
N2 C26 1_555 1_555
O1 C13 1_555 1_555
O2 C13 1_555 1_555
O3 C14 1_555 1_555
O4 C14 1_555 1_555
O5 Mn1 1_555 1_555
O6 Mn1 1_555 1_555
O7 Mn1 1_555 1_555
O8 Mn1 1_555 1_555
Mn1B O2B 1_555 1_555
Mn1A O3 1_555 1_555
Mn1B_2 O5B 1_555 1_555
Mn1C O3B 1_555 1_555
Mn2A O4 1_555 1_555
Mn2_2 O5B 1_555 1_555
Mn2A_2 O4B 1_555 1_555
C1B C2B 1_555 1_555
C2B H1B 1_555 1_555
C3B C2B 1_555 1_555
H2B C3B 1_555 1_555
C4B C3B 1_555 1_555
C5B C4B 1_555 1_555
H3B C5B 1_555 1_555
C6B C1B 1_555 1_555
H4B C6B 1_555 1_555
C7B C4B 1_555 1_555
C8B C7B 1_555 1_555
H5B C8B 1_555 1_555
C9B C8B 1_555 1_555
H6B C9B 1_555 1_555
C10B C9B 1_555 1_555
C11B C10B 1_555 1_555
H7B C11B 1_555 1_555
C12B C7B 1_555 1_555
H8B C12B 1_555 1_555
C13B C1B 1_555 1_555
C14B C10B 1_555 1_555
C15B C16B 1_555 1_555
C16B H9B 1_555 1_555
C17B C16B 1_555 1_555
H10B C17B 1_555 1_555
C18B C18 1_555 1_555
C19B C18B 1_555 1_555
H11B C19B 1_555 1_555
C20B C15B 1_555 1_555
H12B C20B 1_555 1_555
C21B C15B 1_555 1_555
C22B C23B 1_555 1_555
C23B H13B 1_555 1_555
H14B C23B 1_555 1_555
H15B C23B 1_555 1_555
C24B H16B 1_555 1_555
H17B C24B 1_555 1_555
H18B C24B 1_555 1_555
C25B H19B 1_555 1_555
H20B C25B 1_555 1_555
H21B C25B 1_555 1_555
C26B C27B 1_555 1_555
C27B H22B 1_555 1_555
H23B C27B 1_555 1_555
H24B C27B 1_555 1_555
C28B H25B 1_555 1_555
H26B C28B 1_555 1_555
H27B C28B 1_555 1_555
C29B H28B 1_555 1_555
H29B C29B 1_555 1_555
H30B C29B 1_555 1_555
N1B C22B 1_555 1_555
N2B C26B 1_555 1_555
O1B Mn2 1_555 1_555
O2B C13B 1_555 1_555
O3B C14B 1_555 1_555
O3A Mn1 1_555 1_555
O3C Mn1B 1_555 1_555
O4B C14B 1_555 1_555
O4A Mn2 1_555 1_555
O4C Mn2 1_555 1_555
O5B C21B 1_555 1_555
O5B_2 Mn2 1_555 1_555
O6B Mn1B_2 1_555 1_555
O6B_2 Mn1B 1_555 1_555
O7B Mn1B 1_555 1_555
O8B Mn1B 1_555 1_555
Mn2 O5 1_555 1_555
C5 C6 1_555 1_555
C11 C12 1_555 1_555
C19 C20 1_555 1_555
C21 O5 1_555 1_555
C21 O6 1_555 1_555
C22 O7 1_555 1_555
C24 N1 1_555 1_555
C25 N1 1_555 1_555
C26 O8 1_555 1_555
C28 N2 1_555 1_555
C29 N2 1_555 1_555
Mn1B O5B_2 1_555 1_555
C5B C6B 1_555 1_555
C11B C12B 1_555 1_555
C13B O1B 1_555 1_555
C17B C18B 1_555 1_555
C19B C20B 1_555 1_555
C21B O6B 1_555 1_555
C22B O7B 1_555 1_555
C24B N1B 1_555 1_555
C25B N1B 1_555 1_555
C26B O8B 1_555 1_555
C28B N2B 1_555 1_555
C29B N2B 1_555 1_555

#END
