
#######################################################################
#
#                 Cambridge Crystallographic Data Centre
#                                CCDC 
#
#######################################################################
#
# If this CIF has been generated from an entry in the Cambridge 
# Structural Database, then it will include bibliographic, chemical, 
# crystal, experimental, refinement or atomic coordinate data resulting 
# from the CCDC's data processing and validation procedures.
#
#######################################################################

data_VUQKAU02
_symmetry_cell_setting           monoclinic
_symmetry_space_group_name_H-M   'P 21/c'
_symmetry_Int_Tables_number      14
_space_group_name_Hall           '-P 2ybc'
loop_
_symmetry_equiv_pos_site_id
_symmetry_equiv_pos_as_xyz
1 x,y,z
2 -x,1/2+y,1/2-z
3 -x,-y,-z
4 x,1/2-y,1/2+z
_cell_length_a                   13.9430(4)
_cell_length_b                   18.2501(6)
_cell_length_c                   12.1687(4)
_cell_angle_alpha                90
_cell_angle_beta                 113.169(4)
_cell_angle_gamma                90
_cell_volume                     2846.73
loop_
_atom_site_label
_atom_site_type_symbol
_atom_site_fract_x
_atom_site_fract_y
_atom_site_fract_z
Mn1 Mn 0.417625(16) 0.480617(11) 0.673126(19)
Mn2 Mn 0.5000 0.5000 1.0000
O1 O 0.32974(9) 0.40501(6) 0.72659(10)
O2 O 0.37298(8) 0.41993(5) 0.92315(10)
O3 O -0.33994(8) 0.07417(6) 0.79732(10)
O4 O -0.39108(8) 0.08700(5) 0.59901(9)
O5 O 0.56528(7) 0.54014(5) 0.70001(9)
O6 O 0.55318(7) 0.48446(5) 0.85507(9)
O7 O 0.49528(8) 0.38619(5) 0.63746(10)
O8 O 0.30841(9) 0.48385(6) 0.49399(10)
C1 C 0.22603(10) 0.34643(7) 0.81235(13)
C2 C 0.17977(11) 0.30096(8) 0.71325(14)
H1 H 0.2080 0.2984 0.6539
C3 C 0.09280(11) 0.25942(8) 0.70100(13)
H2 H 0.0630 0.2280 0.6339
C4 C 0.04835(11) 0.26298(7) 0.78550(13)
C5 C 0.09649(11) 0.30754(8) 0.88562(13)
H3 H 0.0685 0.3100 0.9452
C6 C 0.18458(11) 0.34818(7) 0.89937(13)
H4 H 0.2169 0.3775 0.9688
C7 C -0.05018(11) 0.22321(7) 0.76619(13)
C8 C -0.06641(11) 0.19009(8) 0.86099(14)
H5 H -0.0144 0.1937 0.9398
C9 C -0.15802(11) 0.15187(8) 0.84080(13)
H6 H -0.1676 0.1293 0.9061
C10 C -0.23570(10) 0.14608(7) 0.72694(13)
C11 C -0.22172(11) 0.18099(7) 0.63267(13)
H7 H -0.2753 0.1790 0.5546
C12 C -0.12996(11) 0.21870(8) 0.65201(13)
H8 H -0.1212 0.2418 0.5866
C13 C 0.31775(10) 0.39450(7) 0.82258(13)
C14 C -0.33080(11) 0.09864(7) 0.70535(13)
C15 C 0.72301(10) 0.51461(7) 0.86551(13)
C16 C 0.78451(11) 0.55354(8) 0.81932(13)
H9 H 0.7526 0.5834 0.7505
C17 C 0.89235(11) 0.54886(8) 0.87356(14)
H10 H 0.9334 0.5771 0.8427
C18 C 0.94202(10) 0.50380(7) 0.97221(13)
C19 C 0.87877(11) 0.46616(9) 1.01872(15)
H11 H 0.9103 0.4361 1.0873
C20 C 0.77091(11) 0.47193(8) 0.96648(15)
H12 H 0.7296 0.4464 1.0002
C21 C 0.60708(10) 0.51474(7) 0.80331(13)
C22 C 0.45686(13) 0.32322(8) 0.61255(16)
C23 C 0.37895(17) 0.30670(10) 0.48876(18)
H13 H 0.3768 0.3475 0.4355
H14 H 0.3098 0.3000 0.4905
H15 H 0.3994 0.2618 0.4595
C24 C 0.43682(16) 0.19768(9) 0.6734(2)
H16 H 0.4311 0.1792 0.5955
H17 H 0.3671 0.2009 0.6747
H18 H 0.4801 0.1643 0.7364
C25 C 0.55955(18) 0.28773(11) 0.81446(19)
H19 H 0.6034 0.3290 0.8114
H20 H 0.6036 0.2449 0.8484
H21 H 0.5217 0.3008 0.8646
C26 C 0.24625(13) 0.53206(9) 0.43545(15)
C27 C 0.28523(18) 0.60079(10) 0.3991(2)
H22 H 0.3608 0.5973 0.4223
H23 H 0.2696 0.6430 0.4391
H24 H 0.2507 0.6070 0.3123
C28 C 0.06574(16) 0.57358(11) 0.3285(2)
H25 H 0.0968 0.6069 0.2885
H26 H 0.0383 0.6020 0.3780
H27 H 0.0089 0.5460 0.2684
C29 C 0.11023(17) 0.45540(11) 0.4411(2)
H28 H 0.1541 0.4457 0.5252
H29 H 0.1160 0.4146 0.3918
H30 H 0.0374 0.4607 0.4316
N1 N 0.48495(12) 0.27063(7) 0.69365(14)
N2 N 0.14466(11) 0.52294(8) 0.40349(14)
O5B O 1.43472(7) 0.45986(5) 1.29999(9)
O6B O 1.44682(7) 0.51554(5) 1.14493(9)
C15B C 1.27699(10) 0.48539(7) 1.13449(13)
C16B C 1.21549(11) 0.44646(8) 1.18068(13)
H9B H 1.2474 0.4166 1.2495
C17B C 1.10765(11) 0.45114(8) 1.12644(14)
H10B H 1.0666 0.4229 1.1573
C18B C 1.05798(10) 0.49620(7) 1.02779(13)
C19B C 1.12123(11) 0.53384(9) 0.98128(15)
H11B H 1.0897 0.5639 0.9127
C20B C 1.22909(11) 0.52807(8) 1.03352(15)
H12B H 1.2704 0.5536 0.9998
C21B C 1.39292(10) 0.48526(7) 1.19669(13)
Mn1B Mn 0.582375(16) 0.519383(11) 1.326874(19)
O1B O 0.67026(9) 0.59499(6) 1.27341(10)
O2B O 0.62702(8) 0.58007(5) 1.07685(10)
O3B O 1.33994(8) 0.92583(6) 1.20268(10)
O4B O 1.39108(8) 0.91300(5) 1.40099(9)
O7B O 0.50472(8) 0.61381(5) 1.36254(10)
O8B O 0.69159(9) 0.51615(6) 1.50601(10)
C1B C 0.77397(10) 0.65357(7) 1.18765(13)
C2B C 0.82023(11) 0.69904(8) 1.28675(14)
H1B H 0.7920 0.7016 1.3461
C3B C 0.90720(11) 0.74058(8) 1.29900(13)
H2B H 0.9370 0.7720 1.3661
C4B C 0.95165(11) 0.73702(7) 1.21450(13)
C5B C 0.90351(11) 0.69246(8) 1.11438(13)
H3B H 0.9315 0.6900 1.0548
C6B C 0.81542(11) 0.65182(7) 1.10063(13)
H4B H 0.7831 0.6225 1.0312
C7B C 1.05018(11) 0.77679(7) 1.23381(13)
C8B C 1.06641(11) 0.80991(8) 1.13901(14)
H5B H 1.0144 0.8063 1.0602
C9B C 1.15802(11) 0.84813(8) 1.15920(13)
H6B H 1.1676 0.8707 1.0939
C10B C 1.23570(10) 0.85392(7) 1.27306(13)
C11B C 1.22172(11) 0.81901(7) 1.36733(13)
H7B H 1.2753 0.8210 1.4454
C12B C 1.12996(11) 0.78130(8) 1.34799(13)
H8B H 1.1212 0.7582 1.4134
C13B C 0.68225(10) 0.60550(7) 1.17742(13)
C14B C 1.33080(11) 0.90136(7) 1.29465(13)
C22B C 0.54314(13) 0.67678(8) 1.38745(16)
C23B C 0.62105(17) 0.69330(10) 1.51124(18)
H13B H 0.6232 0.6525 1.5645
H14B H 0.6902 0.7000 1.5095
H15B H 0.6006 0.7382 1.5405
C24B C 0.56318(16) 0.80232(9) 1.3266(2)
H16B H 0.5689 0.8208 1.4045
H17B H 0.6329 0.7991 1.3253
H18B H 0.5199 0.8357 1.2636
C25B C 0.44045(18) 0.71227(11) 1.18554(19)
H19B H 0.3966 0.6710 1.1886
H20B H 0.3964 0.7551 1.1516
H21B H 0.4783 0.6992 1.1354
C26B C 0.75375(13) 0.46794(9) 1.56455(15)
C27B C 0.71477(18) 0.39921(10) 1.6009(2)
H22B H 0.6392 0.4027 1.5777
H23B H 0.7304 0.3570 1.5609
H24B H 0.7493 0.3930 1.6877
C28B C 0.93426(16) 0.42642(11) 1.6715(2)
H25B H 0.9032 0.3931 1.7115
H26B H 0.9617 0.3980 1.6220
H27B H 0.9911 0.4540 1.7316
C29B C 0.88977(17) 0.54460(11) 1.5589(2)
H28B H 0.8459 0.5543 1.4748
H29B H 0.8840 0.5854 1.6082
H30B H 0.9626 0.5393 1.5684
N1B N 0.51505(12) 0.72937(7) 1.30635(14)
N2B N 0.85534(11) 0.47706(8) 1.59651(14)
Mn1A Mn -0.417625(16) -0.019383(11) 0.826874(19)
Mn1B_2 Mn 1.582375(16) 0.519383(11) 1.326874(19)
Mn1C Mn 1.417625(16) 1.019383(11) 1.173126(19)
Mn2_2 Mn 1.5000 0.5000 1.0000
Mn2A Mn -0.5000 0.0000 0.5000
Mn2A_2 Mn 1.5000 1.0000 1.5000
O3A O 0.33994(8) 0.57417(6) 0.70268(10)
O3C O 0.66006(8) 0.42583(6) 1.29732(10)
O4A O 0.39108(8) 0.58700(5) 0.90099(9)
O4C O 0.60892(8) 0.41300(5) 1.09901(9)
O5B_2 O 0.43472(7) 0.45986(5) 1.29999(9)
O6B_2 O 0.44682(7) 0.51554(5) 1.14493(9)
loop_
_geom_bond_atom_site_label_1
_geom_bond_atom_site_label_2
_geom_bond_site_symmetry_1
_geom_bond_site_symmetry_2
Mn1 O1 1_555 1_555
Mn2 O2 1_555 1_555
O1 C13 1_555 1_555
O2 C13 1_555 1_555
O3 C14 1_555 1_555
O4 C14 1_555 1_555
O5 Mn1 1_555 1_555
O6 Mn1 1_555 1_555
O7 Mn1 1_555 1_555
O8 Mn1 1_555 1_555
C1 C2 1_555 1_555
C2 H1 1_555 1_555
C3 C2 1_555 1_555
H2 C3 1_555 1_555
C4 C3 1_555 1_555
C5 C4 1_555 1_555
H3 C5 1_555 1_555
C6 C1 1_555 1_555
H4 C6 1_555 1_555
C7 C4 1_555 1_555
C8 C7 1_555 1_555
H5 C8 1_555 1_555
C9 C8 1_555 1_555
H6 C9 1_555 1_555
C10 C9 1_555 1_555
C11 C10 1_555 1_555
H7 C11 1_555 1_555
C12 C7 1_555 1_555
H8 C12 1_555 1_555
C13 C1 1_555 1_555
C14 C10 1_555 1_555
C15 C16 1_555 1_555
C16 H9 1_555 1_555
C17 C16 1_555 1_555
H10 C17 1_555 1_555
C18 C17 1_555 1_555
C19 C18 1_555 1_555
H11 C19 1_555 1_555
C20 C15 1_555 1_555
H12 C20 1_555 1_555
C21 O5 1_555 1_555
C22 O7 1_555 1_555
C23 C22 1_555 1_555
H13 C23 1_555 1_555
H14 C23 1_555 1_555
H15 C23 1_555 1_555
C24 H16 1_555 1_555
H17 C24 1_555 1_555
H18 C24 1_555 1_555
C25 H19 1_555 1_555
H20 C25 1_555 1_555
H21 C25 1_555 1_555
C26 O8 1_555 1_555
C27 C26 1_555 1_555
H22 C27 1_555 1_555
H23 C27 1_555 1_555
H24 C27 1_555 1_555
C28 H25 1_555 1_555
H26 C28 1_555 1_555
H27 C28 1_555 1_555
C29 H28 1_555 1_555
H29 C29 1_555 1_555
H30 C29 1_555 1_555
N1 C22 1_555 1_555
N2 C26 1_555 1_555
O5B C21B 1_555 1_555
O6B C21B 1_555 1_555
C15B C16B 1_555 1_555
C16B H9B 1_555 1_555
C17B C16B 1_555 1_555
H10B C17B 1_555 1_555
C18B C18 1_555 1_555
C19B C18B 1_555 1_555
H11B C19B 1_555 1_555
C20B C15B 1_555 1_555
H12B C20B 1_555 1_555
C21B C15B 1_555 1_555
Mn1B O1B 1_555 1_555
O1B C13B 1_555 1_555
O2B Mn2 1_555 1_555
O3B C14B 1_555 1_555
O4B C14B 1_555 1_555
O7B Mn1B 1_555 1_555
O8B Mn1B 1_555 1_555
C1B C2B 1_555 1_555
C2B H1B 1_555 1_555
C3B C2B 1_555 1_555
H2B C3B 1_555 1_555
C4B C3B 1_555 1_555
C5B C4B 1_555 1_555
H3B C5B 1_555 1_555
C6B C1B 1_555 1_555
H4B C6B 1_555 1_555
C7B C4B 1_555 1_555
C8B C7B 1_555 1_555
H5B C8B 1_555 1_555
C9B C8B 1_555 1_555
H6B C9B 1_555 1_555
C10B C9B 1_555 1_555
C11B C10B 1_555 1_555
H7B C11B 1_555 1_555
C12B C7B 1_555 1_555
H8B C12B 1_555 1_555
C13B O2B 1_555 1_555
C14B C10B 1_555 1_555
C22B O7B 1_555 1_555
C23B C22B 1_555 1_555
H13B C23B 1_555 1_555
H14B C23B 1_555 1_555
H15B C23B 1_555 1_555
C24B H16B 1_555 1_555
H17B C24B 1_555 1_555
H18B C24B 1_555 1_555
C25B H19B 1_555 1_555
H20B C25B 1_555 1_555
H21B C25B 1_555 1_555
C26B O8B 1_555 1_555
C27B C26B 1_555 1_555
H22B C27B 1_555 1_555
H23B C27B 1_555 1_555
H24B C27B 1_555 1_555
C28B H25B 1_555 1_555
H26B C28B 1_555 1_555
H27B C28B 1_555 1_555
C29B H28B 1_555 1_555
H29B C29B 1_555 1_555
H30B C29B 1_555 1_555
N1B C22B 1_555 1_555
N2B C26B 1_555 1_555
Mn1A O3 1_555 1_555
Mn1B_2 O5B 1_555 1_555
Mn1C O3B 1_555 1_555
Mn2_2 O6B 1_555 1_555
Mn2A O4 1_555 1_555
Mn2A_2 O4B 1_555 1_555
O3A Mn1 1_555 1_555
O3C Mn1B 1_555 1_555
O4A Mn2 1_555 1_555
O4C Mn2 1_555 1_555
O5B_2 Mn1B 1_555 1_555
O6B_2 Mn2 1_555 1_555
Mn2 O6 1_555 1_555
O6 C21 1_555 1_555
C5 C6 1_555 1_555
C11 C12 1_555 1_555
C15 C21 1_555 1_555
C19 C20 1_555 1_555
C24 N1 1_555 1_555
C25 N1 1_555 1_555
C28 N2 1_555 1_555
C29 N2 1_555 1_555
O6B Mn1B_2 1_555 1_555
C17B C18B 1_555 1_555
C19B C20B 1_555 1_555
Mn1B O6B_2 1_555 1_555
C1B C13B 1_555 1_555
C5B C6B 1_555 1_555
C11B C12B 1_555 1_555
C24B N1B 1_555 1_555
C25B N1B 1_555 1_555
C28B N2B 1_555 1_555
C29B N2B 1_555 1_555

#END
