
#######################################################################
#
#                 Cambridge Crystallographic Data Centre
#                                CCDC 
#
#######################################################################
#
# If this CIF has been generated from an entry in the Cambridge 
# Structural Database, then it will include bibliographic, chemical, 
# crystal, experimental, refinement or atomic coordinate data resulting 
# from the CCDC's data processing and validation procedures.
#
#######################################################################

data_VUQWAG
_symmetry_cell_setting           orthorhombic
_symmetry_space_group_name_H-M   'P 21 21 2'
_symmetry_Int_Tables_number      18
_space_group_name_Hall           'P 2 2ab'
loop_
_symmetry_equiv_pos_site_id
_symmetry_equiv_pos_as_xyz
1 x,y,z
2 -x,-y,z
3 1/2-x,1/2+y,-z
4 1/2+x,1/2-y,-z
_cell_length_a                   10.397(2)
_cell_length_b                   11.321(2)
_cell_length_c                   12.295(3)
_cell_angle_alpha                90
_cell_angle_beta                 90
_cell_angle_gamma                90
_cell_volume                     1447.18
loop_
_atom_site_label
_atom_site_type_symbol
_atom_site_fract_x
_atom_site_fract_y
_atom_site_fract_z
W1 W 0.5000 0.5000 1.21682(2)
Mn1 Mn 0.83648(8) 0.44942(7) 0.88147(6)
O1 O 0.7019(5) 0.4443(4) 0.7497(4)
H1 H 0.669(5) 0.510(3) 0.727(5)
H2 H 0.722(6) 0.385(4) 0.714(5)
O2 O 0.7851(5) 0.6430(4) 0.8933(4)
H3 H 0.711(3) 0.667(5) 0.875(6)
H4 H 0.820(6) 0.656(6) 0.953(3)
O3 O 1.0000 0.5000 0.7747(3)
O4 O 1.0000 0.5000 -0.0144(3)
N1 N 0.6942(5) 0.4374(4) 1.0118(4)
N2 N 0.3872(5) 0.2378(4) 1.1397(4)
N3 N 0.2681(5) 0.6767(4) 1.3041(4)
N4 N 0.6293(6) 0.6306(5) 1.4305(5)
N5 N 1.0000 0.5000 0.6647(4)
N6 N 1.0000 0.5000 0.0966(4)
C1 C 0.6256(5) 0.4613(4) 1.0822(4)
C2 C 0.4255(5) 0.3310(5) 1.1639(4)
C3 C 0.3477(6) 0.6135(4) 1.2732(5)
C4 C 0.5865(6) 0.5848(5) 1.3547(5)
C5 C 0.9646(5) 0.5973(4) 0.6114(4)
H5 H 0.9395 0.6642 0.6499
C6 C 0.9651(6) 0.5988(5) 0.4998(4)
H6 H 0.9415 0.6674 0.4632
C7 C 1.0000 0.5000 0.4410(5)
C8 C 1.0000 0.5000 0.3203(4)
C9 C 0.9208(6) 0.5743(5) 0.2610(4)
H7 H 0.8657 0.6255 0.2974
C10 C 0.9223(6) 0.5737(4) 0.1498(4)
H8 H 0.8690 0.6247 0.1113
Mn1A Mn 0.16352(8) 0.55058(7) 0.88147(6)
Mn1A_2 Mn 1.16352(8) 0.55058(7) 0.88147(6)
Mn1_2 Mn 0.83648(8) 0.44942(7) -0.11853(6)
Mn1A_3 Mn 1.16352(8) 0.55058(7) -0.11853(6)
Mn1C Mn 0.33648(8) 0.05058(7) 1.11853(6)
Mn1B Mn 0.66352(8) 0.94942(7) 1.11853(6)
O1A O 0.2981(5) 0.5557(4) 0.7497(4)
H1A H 0.331(5) 0.490(3) 0.727(5)
H2A H 0.278(6) 0.615(4) 0.714(5)
O2A O 0.2149(5) 0.3570(4) 0.8933(4)
H3A H 0.289(3) 0.333(5) 0.875(6)
H4A H 0.180(6) 0.344(6) 0.953(3)
O3_2 O 0.0000 0.5000 0.7747(3)
O4_2 O 1.0000 0.5000 0.9856(3)
O4_3 O 0.0000 0.5000 0.9856(3)
N1A N 0.3058(5) 0.5626(4) 1.0118(4)
N2A N 0.6128(5) 0.7622(4) 1.1397(4)
N2C N 0.8872(5) 0.2622(4) 0.8603(4)
N2B N 0.1128(5) 0.7378(4) 0.8603(4)
N3A N 0.7319(5) 0.3233(4) 1.3041(4)
N4A N 0.3707(6) 0.3694(5) 1.4305(5)
C1A C 0.3744(5) 0.5387(4) 1.0822(4)
C2A C 0.5745(5) 0.6690(5) 1.1639(4)
C3A C 0.6523(6) 0.3865(4) 1.2732(5)
C4A C 0.4135(6) 0.4152(5) 1.3547(5)
C5A C 1.0354(5) 0.4027(4) 0.6114(4)
H5A H 1.0605 0.3358 0.6499
C6A C 1.0349(6) 0.4012(5) 0.4998(4)
H6A H 1.0585 0.3326 0.4632
C9A C 1.0792(6) 0.4257(5) 0.2610(4)
H7A H 1.1343 0.3745 0.2974
C10A C 1.0777(6) 0.4263(4) 0.1498(4)
H8A H 1.1310 0.3753 0.1113
O5 O 0.5899(5) 0.6405(4) 0.6646(4)
H9 H 0.517(4) 0.674(6) 0.674(5)
H10 H 0.629(6) 0.704(4) 0.684(5)
O6 O 0.5308(8) 0.6829(5) 0.8828(5)
H11 H 0.562(8) 0.619(4) 0.915(6)
H12 H 0.543(8) 0.668(7) 0.812(2)
O7 O 0.7178(7) 0.3355(5) 0.5558(4)
H13 H 0.700(9) 0.364(7) 0.492(3)
H14 H 0.699(9) 0.400(4) 0.587(7)
loop_
_geom_bond_atom_site_label_1
_geom_bond_atom_site_label_2
_geom_bond_site_symmetry_1
_geom_bond_site_symmetry_2
W1 C1 1_555 1_555
Mn1 O1 1_555 1_555
O1 H1 1_555 1_555
H2 O1 1_555 1_555
O2 Mn1 1_555 1_555
H3 O2 1_555 1_555
H4 O2 1_555 1_555
O3 Mn1 1_555 1_555
O4 N6 1_555 1_555
N1 Mn1 1_555 1_555
N2 C2 1_555 1_555
N3 C3 1_555 1_555
N4 C4 1_555 1_555
N5 O3 1_555 1_555
N6 C10 1_555 1_555
C1 N1 1_555 1_555
C2 W1 1_555 1_555
C3 W1 1_555 1_555
C4 W1 1_555 1_555
C5 N5 1_555 1_555
H5 C5 1_555 1_555
C6 C5 1_555 1_555
H6 C6 1_555 1_555
C7 C6 1_555 1_555
C8 C7 1_555 1_555
C9 C8 1_555 1_555
H7 C9 1_555 1_555
C10 C9 1_555 1_555
H8 C10 1_555 1_555
O5 H9 1_555 1_555
H10 O5 1_555 1_555
O6 H11 1_555 1_555
H12 O6 1_555 1_555
O7 H13 1_555 1_555
H14 O7 1_555 1_555
Mn1A O1A 1_555 1_555
Mn1A_2 O3 1_555 1_555
Mn1_2 O4 1_555 1_555
Mn1A_3 O4 1_555 1_555
Mn1C N2 1_555 1_555
Mn1B N2A 1_555 1_555
O1A H1A 1_555 1_555
H2A O1A 1_555 1_555
O2A Mn1A 1_555 1_555
H3A O2A 1_555 1_555
H4A O2A 1_555 1_555
O3_2 Mn1A 1_555 1_555
O4_2 Mn1 1_555 1_555
O4_3 Mn1A 1_555 1_555
N1A Mn1A 1_555 1_555
N2A C2A 1_555 1_555
N2C Mn1 1_555 1_555
N2B Mn1A 1_555 1_555
N3A C3A 1_555 1_555
N4A C4A 1_555 1_555
C1A W1 1_555 1_555
C2A W1 1_555 1_555
C3A W1 1_555 1_555
C4A W1 1_555 1_555
C5A N5 1_555 1_555
H5A C5A 1_555 1_555
C6A C7 1_555 1_555
H6A C6A 1_555 1_555
C9A C8 1_555 1_555
H7A C9A 1_555 1_555
C10A N6 1_555 1_555
H8A C10A 1_555 1_555
Mn1A_2 O4_2 1_555 1_555
N1A C1A 1_555 1_555
C5A C6A 1_555 1_555
C9A C10A 1_555 1_555

#END
