
#######################################################################
#
#                 Cambridge Crystallographic Data Centre
#                                CCDC 
#
#######################################################################
#
# If this CIF has been generated from an entry in the Cambridge 
# Structural Database, then it will include bibliographic, chemical, 
# crystal, experimental, refinement or atomic coordinate data resulting 
# from the CCDC's data processing and validation procedures.
#
#######################################################################

data_VUQWEK
_symmetry_cell_setting           monoclinic
_symmetry_space_group_name_H-M   'P 21/c'
_symmetry_Int_Tables_number      14
_space_group_name_Hall           '-P 2ybc'
loop_
_symmetry_equiv_pos_site_id
_symmetry_equiv_pos_as_xyz
1 x,y,z
2 -x,1/2+y,1/2-z
3 -x,-y,-z
4 x,1/2-y,1/2+z
_cell_length_a                   13.038(3)
_cell_length_b                   13.784(3)
_cell_length_c                   13.225(3)
_cell_angle_alpha                90
_cell_angle_beta                 93.44(3)
_cell_angle_gamma                90
_cell_volume                     2372.46
loop_
_atom_site_label
_atom_site_type_symbol
_atom_site_fract_x
_atom_site_fract_y
_atom_site_fract_z
W1 W 0.11236(2) 0.03930(2) 0.79665(2)
Cu1 Cu 0.11734(7) -0.28151(6) 1.00364(6)
Cu2 Cu -0.24580(7) -0.12674(7) 0.83629(7)
O1 O 0.6179(5) -0.3224(7) 0.3551(5)
O2 O -0.3225(6) -0.0538(5) 0.7115(6)
O3 O 0.2509(4) -0.3440(4) 0.9699(4)
N1 N 0.1455(5) -0.1700(4) 0.9177(5)
N2 N 0.3557(6) -0.0048(6) 0.7573(7)
N3 N 0.1170(5) -0.1179(4) 0.6081(5)
N4 N -0.0207(5) 0.1443(5) 0.6063(5)
N5 N 0.2163(5) 0.2476(5) 0.7378(5)
N6 N -0.1161(5) -0.0657(5) 0.8072(5)
N7 N -0.0325(5) 0.1960(5) 0.9139(5)
N8 N 0.2264(5) 0.0852(5) 1.0220(5)
N9 N 0.5668(7) -0.3304(7) 0.4413(7)
N10 N 0.2957(6) -0.3357(5) 0.8807(6)
C1 C 0.1346(6) -0.0968(6) 0.8762(5)
C2 C 0.2700(7) 0.0105(5) 0.7720(7)
C3 C 0.1151(6) -0.0621(5) 0.6726(6)
C4 C 0.0246(6) 0.1064(5) 0.6720(6)
C5 C 0.1832(6) 0.1737(6) 0.7613(6)
C6 C 0.0174(5) 0.1416(6) 0.8727(6)
C7 C 0.1877(6) 0.0691(5) 0.9437(6)
C8 C -0.0361(6) -0.0288(5) 0.8047(5)
C9 C 0.6041(8) -0.2806(8) 0.5253(9)
H2 H 0.6647 -0.2454 0.5231
C10 C 0.5531(7) -0.2823(7) 0.6119(8)
H3 H 0.5799 -0.2517 0.6703
C11 C 0.4576(7) -0.3323(6) 0.6109(7)
C12 C 0.4224(7) -0.3802(7) 0.5249(6)
H4 H 0.3604 -0.4136 0.5241
C13 C 0.4772(8) -0.3792(8) 0.4407(8)
H5 H 0.4530 -0.4121 0.3828
C14 C 0.3994(7) -0.3319(6) 0.7063(7)
C15 C 0.4536(8) -0.3363(7) 0.8002(7)
H6 H 0.5251 -0.3386 0.8052
C16 C 0.3984(8) -0.3372(7) 0.8850(8)
H7 H 0.4337 -0.3390 0.9482
C17 C 0.2457(8) -0.3303(7) 0.7890(7)
H8 H 0.1743 -0.3279 0.7850
C18 C 0.2942(7) -0.3283(7) 0.7047(7)
H9 H 0.2565 -0.3243 0.6429
Cu1C Cu 0.11734(7) -0.21849(6) 0.50364(6)
Cu1A Cu -0.11734(7) 0.21849(6) 0.49636(6)
Cu1B Cu -0.11734(7) 0.28151(6) 0.99636(6)
Cu2C Cu 0.75420(7) -0.37326(7) 0.33629(7)
Cu2A Cu 0.24580(7) 0.37326(7) 0.66371(7)
Cu2B Cu 0.24580(7) 0.12674(7) 1.16371(7)
O1C O -0.3821(5) -0.1776(7) 0.8551(5)
N3C N 0.1170(5) -0.3821(4) 1.1081(5)
N4A N 0.0207(5) -0.3557(5) 0.8937(5)
N5A N -0.2163(5) -0.2524(5) 0.7622(5)
N7B N 0.0325(5) -0.1960(5) 1.0861(5)
N8B N -0.2264(5) -0.0852(5) 0.9780(5)
O4 O 0.4778(13) -0.0561(9) 0.5984(10)
O5 O 0.2555(13) -0.5525(12) 0.9626(13)
H1 H 0.2961 -0.5696 1.0089
C19 C 0.1703(11) -0.6047(12) 0.9646(11)
H10 H 0.1870 -0.6689 0.9885
H11 H 0.1380 -0.6085 0.8976
H12 H 0.1243 -0.5747 1.0091
loop_
_geom_bond_atom_site_label_1
_geom_bond_atom_site_label_2
_geom_bond_site_symmetry_1
_geom_bond_site_symmetry_2
W1 C1 1_555 1_555
Cu1 O3 1_555 1_555
Cu2 O2 1_555 1_555
O1 N9 1_555 1_555
O3 N10 1_555 1_555
O5 H1 1_555 1_555
N1 Cu1 1_555 1_555
N2 C2 1_555 1_555
N3 C3 1_555 1_555
N4 C4 1_555 1_555
N5 C5 1_555 1_555
N6 Cu2 1_555 1_555
N7 C6 1_555 1_555
N8 C7 1_555 1_555
N9 C9 1_555 1_555
N10 C16 1_555 1_555
C1 N1 1_555 1_555
C2 W1 1_555 1_555
C3 W1 1_555 1_555
C4 W1 1_555 1_555
C5 W1 1_555 1_555
C6 W1 1_555 1_555
C7 W1 1_555 1_555
C8 W1 1_555 1_555
C9 H2 1_555 1_555
C10 C9 1_555 1_555
H3 C10 1_555 1_555
C11 C10 1_555 1_555
C12 C11 1_555 1_555
H4 C12 1_555 1_555
C13 N9 1_555 1_555
H5 C13 1_555 1_555
C14 C11 1_555 1_555
C15 C14 1_555 1_555
H6 C15 1_555 1_555
C16 C15 1_555 1_555
H7 C16 1_555 1_555
C17 N10 1_555 1_555
H8 C17 1_555 1_555
C18 C14 1_555 1_555
H9 C18 1_555 1_555
C19 O5 1_555 1_555
H10 C19 1_555 1_555
H11 C19 1_555 1_555
H12 C19 1_555 1_555
Cu1C N3 1_555 1_555
Cu1A N4 1_555 1_555
Cu1B N7 1_555 1_555
Cu2C O1 1_555 1_555
Cu2A N5 1_555 1_555
Cu2B N8 1_555 1_555
O1C Cu2 1_555 1_555
N3C Cu1 1_555 1_555
N4A Cu1 1_555 1_555
N5A Cu2 1_555 1_555
N7B Cu1 1_555 1_555
N8B Cu2 1_555 1_555
N6 C8 1_555 1_555
C12 C13 1_555 1_555
C17 C18 1_555 1_555

#END
