
#######################################################################
#
#                 Cambridge Crystallographic Data Centre
#                                CCDC 
#
#######################################################################
#
# If this CIF has been generated from an entry in the Cambridge 
# Structural Database, then it will include bibliographic, chemical, 
# crystal, experimental, refinement or atomic coordinate data resulting 
# from the CCDC's data processing and validation procedures.
#
#######################################################################

data_VUQXUB
_symmetry_cell_setting           orthorhombic
_symmetry_space_group_name_H-M   'P b c a'
_symmetry_Int_Tables_number      61
_space_group_name_Hall           '-P 2ac 2ab'
loop_
_symmetry_equiv_pos_site_id
_symmetry_equiv_pos_as_xyz
1 x,y,z
2 1/2-x,-y,1/2+z
3 -x,1/2+y,1/2-z
4 1/2+x,1/2-y,-z
5 -x,-y,-z
6 1/2+x,y,1/2-z
7 x,1/2-y,1/2+z
8 1/2-x,1/2+y,z
_cell_length_a                   14.6857(12)
_cell_length_b                   13.7151(11)
_cell_length_c                   20.455(2)
_cell_angle_alpha                90
_cell_angle_beta                 90
_cell_angle_gamma                90
_cell_volume                     4119.96
loop_
_atom_site_label
_atom_site_type_symbol
_atom_site_fract_x
_atom_site_fract_y
_atom_site_fract_z
Sn1 Sn 0.25164(7) 0.13178(6) 0.52030(4)
Se1 Se 0.24295(11) 0.38265(10) 0.56022(7)
O1 O 0.2808(8) 0.2851(7) 0.5182(5)
O2 O 0.2805(8) 0.4706(7) 0.5165(6)
O3 O 0.3070(9) 0.3750(10) 0.6305(6)
C1 C 0.4036(13) 0.3770(16) 0.6212(10)
H1 H 0.4212 0.4385 0.6015
H2 H 0.4213 0.3249 0.5917
C2 C 0.4523(18) 0.365(3) 0.6858(13)
H3 H 0.4178 0.3959 0.7198
H4 H 0.5116 0.3938 0.6832
H5 H 0.4583 0.2965 0.6956
C3 C 0.2391(9) 0.1289(9) 0.4157(4)
C4 C 0.2389(10) 0.2161(7) 0.3810(6)
H6 H 0.2449 0.2750 0.4031
C5 C 0.2297(10) 0.2152(10) 0.3134(6)
H7 H 0.2296 0.2735 0.2903
C6 C 0.2207(10) 0.1271(13) 0.2804(4)
H8 H 0.2146 0.1265 0.2352
C7 C 0.2209(10) 0.0399(9) 0.3150(6)
H9 H 0.2149 -0.0190 0.2930
C8 C 0.2302(9) 0.0408(7) 0.3827(6)
H10 H 0.2303 -0.0175 0.4058
C9 C 0.3743(12) 0.0977(15) 0.5726(9)
C10 C 0.4578(13) 0.1146(17) 0.5436(10)
H11 H 0.4608 0.1365 0.5006
C11 C 0.5373(15) 0.099(2) 0.5786(12)
H12 H 0.5939 0.1109 0.5600
C12 C 0.5301(17) 0.064(2) 0.6432(13)
H13 H 0.5831 0.0515 0.6668
C13 C 0.4493(16) 0.0471(19) 0.6717(12)
H14 H 0.4466 0.0253 0.7147
C14 C 0.3709(14) 0.0624(17) 0.6373(10)
H15 H 0.3149 0.0495 0.6567
C15 C 0.1318(6) 0.1444(10) 0.5763(5)
C16 C 0.0474(8) 0.1302(10) 0.5471(5)
H16 H 0.0439 0.1063 0.5047
C17 C -0.0318(6) 0.1519(12) 0.5814(7)
H17 H -0.0883 0.1424 0.5619
C18 C -0.0265(8) 0.1877(12) 0.6449(7)
H18 H -0.0795 0.2021 0.6678
C19 C 0.0579(10) 0.2018(11) 0.6741(5)
H19 H 0.0614 0.2257 0.7165
C20 C 0.1371(7) 0.1802(11) 0.6398(6)
H20 H 0.1936 0.1896 0.6593
Sn1G Sn 0.24836(7) 0.63178(6) 0.52030(4)
O2G O 0.2195(8) -0.0294(7) 0.5165(6)
loop_
_geom_bond_atom_site_label_1
_geom_bond_atom_site_label_2
_geom_bond_site_symmetry_1
_geom_bond_site_symmetry_2
Sn1 O1 1_555 1_555
Se1 O1 1_555 1_555
O2 Se1 1_555 1_555
O3 Se1 1_555 1_555
C1 O3 1_555 1_555
H1 C1 1_555 1_555
H2 C1 1_555 1_555
C2 C1 1_555 1_555
H3 C2 1_555 1_555
H4 C2 1_555 1_555
H5 C2 1_555 1_555
C3 Sn1 1_555 1_555
C4 C3 1_555 1_555
H6 C4 1_555 1_555
C5 C4 1_555 1_555
H7 C5 1_555 1_555
C6 C5 1_555 1_555
H8 C6 1_555 1_555
C7 C6 1_555 1_555
H9 C7 1_555 1_555
C8 C3 1_555 1_555
H10 C8 1_555 1_555
C9 Sn1 1_555 1_555
C10 C9 1_555 1_555
H11 C10 1_555 1_555
C11 C10 1_555 1_555
H12 C11 1_555 1_555
C12 C11 1_555 1_555
H13 C12 1_555 1_555
C13 C12 1_555 1_555
H14 C13 1_555 1_555
C14 C9 1_555 1_555
H15 C14 1_555 1_555
C15 Sn1 1_555 1_555
C16 C15 1_555 1_555
H16 C16 1_555 1_555
C17 C16 1_555 1_555
H17 C17 1_555 1_555
C18 C17 1_555 1_555
H18 C18 1_555 1_555
C19 C18 1_555 1_555
H19 C19 1_555 1_555
C20 C15 1_555 1_555
H20 C20 1_555 1_555
Sn1G O2 1_555 1_555
O2G Sn1 1_555 1_555
C7 C8 1_555 1_555
C13 C14 1_555 1_555
C19 C20 1_555 1_555

#END
