
#######################################################################
#
#                 Cambridge Crystallographic Data Centre
#                                CCDC 
#
#######################################################################
#
# If this CIF has been generated from an entry in the Cambridge 
# Structural Database, then it will include bibliographic, chemical, 
# crystal, experimental, refinement or atomic coordinate data resulting 
# from the CCDC's data processing and validation procedures.
#
#######################################################################

data_VURKOI
_symmetry_cell_setting           monoclinic
_symmetry_space_group_name_H-M   'I 2/a'
_symmetry_Int_Tables_number      15
_space_group_name_Hall           '-I 2ya'
loop_
_symmetry_equiv_pos_site_id
_symmetry_equiv_pos_as_xyz
1 x,y,z
2 1/2+x,1/2+y,1/2+z
3 1/2-x,y,-z
4 -x,1/2+y,1/2-z
5 -x,-y,-z
6 1/2-x,1/2-y,1/2-z
7 1/2+x,-y,z
8 x,1/2-y,1/2+z
_cell_length_a                   21.419(4)
_cell_length_b                   7.806(3)
_cell_length_c                   30.156(6)
_cell_angle_alpha                90
_cell_angle_beta                 90.36(2)
_cell_angle_gamma                90
_cell_volume                     5041.88
loop_
_atom_site_label
_atom_site_type_symbol
_atom_site_fract_x
_atom_site_fract_y
_atom_site_fract_z
Ni1 Ni -0.31307(2) 0.04679(6) 0.39145(2)
Cu1 Cu -0.11864(2) 0.32223(6) 0.47053(2)
Cu2 Cu -0.25000 -0.25000 0.25000
N2 N -0.4069(1) 0.0415(4) 0.3743(1)
N3 N -0.3057(1) 0.2604(4) 0.3529(1)
O1 O -0.0417(2) 0.4561(5) 0.4333(1)
O2 O -0.1390(1) 0.5359(4) 0.5025(1)
O3 O -0.1076(1) 0.0949(4) 0.4440(1)
O4 O -0.1648(2) -0.2722(4) 0.2700(1)
O12 O -0.3321(1) -0.1827(4) 0.4177(1)
O13 O -0.4056(1) -0.3844(4) 0.4164(1)
O14 O -0.2263(1) 0.1350(4) 0.4124(1)
O15 O -0.1829(1) 0.3910(4) 0.4275(1)
O16 O -0.3468(1) 0.1764(4) 0.4475(1)
O17 O -0.4355(1) 0.2504(4) 0.4804(1)
O18 O -0.2832(1) -0.0800(4) 0.3330(1)
O19 O -0.2493(1) -0.0124(4) 0.2653(1)
C1 C -0.4102(2) 0.1476(5) 0.3325(1)
C2 C -0.4193(2) -0.1446(5) 0.3684(1)
C3 C -0.3837(2) -0.2451(5) 0.4038(1)
C4 C -0.3713(2) 0.3115(5) 0.3409(1)
C5 C -0.2725(2) 0.3894(5) 0.3807(1)
C6 C -0.2237(2) 0.2958(5) 0.4092(1)
C7 C -0.3763(2) 0.4386(5) 0.3030(2)
C8 C -0.4434(2) 0.1093(6) 0.4115(1)
C9 C -0.4045(2) 0.1826(5) 0.4487(1)
C10 C -0.4447(2) 0.4788(6) 0.2919(2)
C11 C -0.2655(2) 0.2149(5) 0.3150(1)
C12 C -0.2672(2) 0.0252(5) 0.3040(1)
C13 C -0.4780(2) 0.3160(6) 0.2786(1)
C14 C -0.4763(2) 0.1858(5) 0.3166(1)
H1 H 0.0025 0.4414 0.4329
H2 H -0.0589 0.4590 0.4057
H3 H -0.1238 0.5542 0.5288
H4 H -0.1807 0.5575 0.4992
H5 H -0.1436 0.0598 0.4300
H6 H -0.1568 -0.3871 0.2743
H7 H -0.1447 -0.2071 0.2860
H14 H -0.3858 0.0760 0.3097
H15 H -0.4643 -0.1760 0.3661
H16 H -0.4008 -0.1881 0.3404
H17 H -0.3867 0.3674 0.3705
H18 H -0.2540 0.4795 0.3626
H19 H -0.3035 0.4494 0.4034
H20 H -0.3508 0.5413 0.3104
H21 H -0.3603 0.3845 0.2722
H22 H -0.4732 0.0283 0.4209
H23 H -0.4790 0.1963 0.4025
H24 H -0.4631 0.5397 0.3183
H25 H -0.4477 0.5627 0.2615
H26 H -0.2215 0.2410 0.3234
H27 H -0.2704 0.2858 0.2888
H28 H -0.5214 0.3365 0.2710
H29 H -0.4537 0.2669 0.2497
H30 H -0.5037 0.2418 0.3417
H31 H -0.4962 0.0930 0.3098
O17B O -0.0645(1) 0.2504(4) 0.5196(1)
O4E O -0.3352(2) -0.2278(4) 0.2300(1)
O19E O -0.2507(1) -0.4876(4) 0.2347(1)
Cu1B Cu -0.38136(2) 0.32223(6) 0.52947(2)
H6E H -0.3432 -0.1129 0.2257
H7E H -0.3553 -0.2929 0.2140
C12E C -0.2328(2) -0.5252(5) 0.1960(1)
O18E O -0.2168(1) -0.4200(4) 0.1670(1)
C11E C -0.2345(2) -0.7149(5) 0.1850(1)
Ni1E Ni -0.18693(2) -0.54679(6) 0.10855(2)
N3E N -0.1943(1) -0.7604(4) 0.1471(1)
H26E H -0.2785 -0.7410 0.1766
H27E H -0.2296 -0.7858 0.2112
N2E N -0.0931(1) -0.5415(4) 0.1257(1)
O12E O -0.1679(1) -0.3173(4) 0.0823(1)
O14E O -0.2737(1) -0.6350(4) 0.0876(1)
O16E O -0.1532(1) -0.6764(4) 0.0525(1)
C4E C -0.1287(2) -0.8115(5) 0.1591(1)
C5E C -0.2275(2) -0.8894(5) 0.1193(1)
C1E C -0.0898(2) -0.6476(5) 0.1675(1)
C2E C -0.0807(2) -0.3554(5) 0.1316(1)
C8E C -0.0566(2) -0.6093(6) 0.0885(1)
C3E C -0.1163(2) -0.2549(5) 0.0962(1)
C6E C -0.2763(2) -0.7958(5) 0.0908(1)
C9E C -0.0955(2) -0.6826(5) 0.0513(1)
C7E C -0.1237(2) -0.9386(5) 0.1970(2)
H17E H -0.1133 -0.8674 0.1295
H18E H -0.2460 -0.9795 0.1374
H19E H -0.1965 -0.9494 0.0966
C14E C -0.0237(2) -0.6858(5) 0.1834(1)
H14E H -0.1142 -0.5760 0.1903
H15E H -0.0357 -0.3240 0.1339
H16E H -0.0992 -0.3119 0.1596
H22E H -0.0268 -0.5283 0.0791
H23E H -0.0210 -0.6963 0.0975
O13E O -0.0944(1) -0.1156(4) 0.0836(1)
O15E O -0.3171(1) -0.8910(4) 0.0725(1)
O17E O -0.0645(1) -0.7504(4) 0.0196(1)
C10E C -0.0553(2) -0.9788(6) 0.2081(2)
H20E H -0.1492 -1.0413 0.1896
H21E H -0.1397 -0.8845 0.2278
C13E C -0.0220(2) -0.8160(6) 0.2214(1)
H30E H 0.0037 -0.7418 0.1583
H31E H -0.0038 -0.5930 0.1902
Cu1E Cu -0.38136(2) -0.82223(6) 0.02947(2)
Cu1G Cu -0.11864(2) -0.82223(6) -0.02947(2)
H24E H -0.0369 -1.0397 0.1817
H25E H -0.0523 -1.0627 0.2385
H28E H 0.0214 -0.8365 0.2290
H29E H -0.0463 -0.7669 0.2503
O1E O -0.4583(2) -0.9561(5) 0.0667(1)
O2E O -0.3610(1) -1.0359(4) -0.0025(1)
O3E O -0.3924(1) -0.5949(4) 0.0560(1)
O17G O -0.4355(1) -0.7504(4) -0.0196(1)
H1E H -0.5025 -0.9414 0.0671
H2E H -0.4411 -0.9590 0.0943
H3E H -0.3762 -1.0542 -0.0288
H4E H -0.3193 -1.0575 0.0008
H5E H -0.3564 -0.5598 0.0700
N1 N -0.5991(2) -0.0970(5) 0.8274(1)
O9 O -0.5920(2) 0.0385(5) 0.8484(1)
O10 O -0.6299(2) -0.0987(5) 0.7926(1)
O11 O -0.5736(2) -0.2292(5) 0.8409(2)
O5 O -0.9409(1) 0.1549(4) 0.5069(1)
H8 H -0.9195 0.2390 0.5094
H9 H -0.9798 0.1906 0.5133
O6 O -0.6294(2) 0.0503(5) 0.3309(1)
H10 H -0.6244 0.1233 0.3513
H11 H -0.6181 -0.0373 0.3360
O7 O -0.6810(2) 0.2230(6) 0.4074(2)
H12 H -0.6377 0.2421 0.4125
O8 O -0.7500 0.2191(9) 0.00000
H13 H -0.7557 0.1426 0.0226
H13B H -0.7443 0.1426 -0.0226
loop_
_geom_bond_atom_site_label_1
_geom_bond_atom_site_label_2
_geom_bond_site_symmetry_1
_geom_bond_site_symmetry_2
Ni1 N2 1_555 1_555
Cu1 O1 1_555 1_555
Cu2 O4 1_555 1_555
N1 O9 1_555 1_555
N2 C1 1_555 1_555
N3 Ni1 1_555 1_555
O1 H1 1_555 1_555
O2 Cu1 1_555 1_555
O3 Cu1 1_555 1_555
O4 H6 1_555 1_555
O5 H8 1_555 1_555
O6 H10 1_555 1_555
O7 H12 1_555 1_555
O8 H13 1_555 1_555
O10 N1 1_555 1_555
O11 N1 1_555 1_555
O12 Ni1 1_555 1_555
O13 C3 1_555 1_555
O14 Ni1 1_555 1_555
O15 Cu1 1_555 1_555
O16 Ni1 1_555 1_555
O17 C9 1_555 1_555
O18 Ni1 1_555 1_555
O19 Cu2 1_555 1_555
C1 C4 1_555 1_555
C2 N2 1_555 1_555
C3 O12 1_555 1_555
C4 N3 1_555 1_555
C5 N3 1_555 1_555
C6 O14 1_555 1_555
C7 C4 1_555 1_555
C8 N2 1_555 1_555
C9 O16 1_555 1_555
C10 C7 1_555 1_555
C11 N3 1_555 1_555
C12 O18 1_555 1_555
C13 C10 1_555 1_555
C14 C1 1_555 1_555
H2 O1 1_555 1_555
H3 O2 1_555 1_555
H4 O2 1_555 1_555
H5 O3 1_555 1_555
H7 O4 1_555 1_555
H9 O5 1_555 1_555
H11 O6 1_555 1_555
H14 C1 1_555 1_555
H15 C2 1_555 1_555
H16 C2 1_555 1_555
H17 C4 1_555 1_555
H18 C5 1_555 1_555
H19 C5 1_555 1_555
H20 C7 1_555 1_555
H21 C7 1_555 1_555
H22 C8 1_555 1_555
H23 C8 1_555 1_555
H24 C10 1_555 1_555
H25 C10 1_555 1_555
H26 C11 1_555 1_555
H27 C11 1_555 1_555
H28 C13 1_555 1_555
H29 C13 1_555 1_555
H30 C14 1_555 1_555
H31 C14 1_555 1_555
O17B Cu1 1_555 1_555
O4E Cu2 1_555 1_555
O19E Cu2 1_555 1_555
Cu1B O17 1_555 1_555
H6E O4E 1_555 1_555
H7E O4E 1_555 1_555
C12E O19E 1_555 1_555
O18E C12E 1_555 1_555
C11E C12E 1_555 1_555
Ni1E O18E 1_555 1_555
N3E C11E 1_555 1_555
H26E C11E 1_555 1_555
H27E C11E 1_555 1_555
N2E Ni1E 1_555 1_555
O12E Ni1E 1_555 1_555
O14E Ni1E 1_555 1_555
O16E Ni1E 1_555 1_555
C4E N3E 1_555 1_555
C5E N3E 1_555 1_555
C1E N2E 1_555 1_555
C2E N2E 1_555 1_555
C8E N2E 1_555 1_555
C3E O12E 1_555 1_555
C6E O14E 1_555 1_555
C9E O16E 1_555 1_555
C7E C4E 1_555 1_555
H17E C4E 1_555 1_555
H18E C5E 1_555 1_555
H19E C5E 1_555 1_555
C14E C1E 1_555 1_555
H14E C1E 1_555 1_555
H15E C2E 1_555 1_555
H16E C2E 1_555 1_555
H22E C8E 1_555 1_555
H23E C8E 1_555 1_555
O13E C3E 1_555 1_555
O15E C6E 1_555 1_555
O17E C9E 1_555 1_555
C10E C7E 1_555 1_555
H20E C7E 1_555 1_555
H21E C7E 1_555 1_555
C13E C14E 1_555 1_555
H30E C14E 1_555 1_555
H31E C14E 1_555 1_555
Cu1E O15E 1_555 1_555
Cu1G O17E 1_555 1_555
H24E C10E 1_555 1_555
H25E C10E 1_555 1_555
H28E C13E 1_555 1_555
H29E C13E 1_555 1_555
O1E Cu1E 1_555 1_555
O2E Cu1E 1_555 1_555
O3E Cu1E 1_555 1_555
O17G Cu1E 1_555 1_555
H1E O1E 1_555 1_555
H2E O1E 1_555 1_555
H3E O2E 1_555 1_555
H4E O2E 1_555 1_555
H5E O3E 1_555 1_555
H13B O8 1_555 1_555
O15 C6 1_555 1_555
O19 C12 1_555 1_555
C2 C3 1_555 1_555
C5 C6 1_555 1_555
C8 C9 1_555 1_555
C11 C12 1_555 1_555
C13 C14 1_555 1_555
Ni1E N3E 1_555 1_555
C4E C1E 1_555 1_555
C5E C6E 1_555 1_555
C2E C3E 1_555 1_555
C8E C9E 1_555 1_555
C10E C13E 1_555 1_555

#END
