
#######################################################################
#
#                 Cambridge Crystallographic Data Centre
#                                CCDC 
#
#######################################################################
#
# If this CIF has been generated from an entry in the Cambridge 
# Structural Database, then it will include bibliographic, chemical, 
# crystal, experimental, refinement or atomic coordinate data resulting 
# from the CCDC's data processing and validation procedures.
#
#######################################################################

data_VURKUO
_symmetry_cell_setting           monoclinic
_symmetry_space_group_name_H-M   'I 2/a'
_symmetry_Int_Tables_number      15
_space_group_name_Hall           '-I 2ya'
loop_
_symmetry_equiv_pos_site_id
_symmetry_equiv_pos_as_xyz
1 x,y,z
2 1/2+x,1/2+y,1/2+z
3 1/2-x,y,-z
4 -x,1/2+y,1/2-z
5 -x,-y,-z
6 1/2-x,1/2-y,1/2-z
7 1/2+x,-y,z
8 x,1/2-y,1/2+z
_cell_length_a                   21.404(6)
_cell_length_b                   7.742(2)
_cell_length_c                   30.712(5)
_cell_angle_alpha                90
_cell_angle_beta                 90.99(2)
_cell_angle_gamma                90
_cell_volume                     5088.52
loop_
_atom_site_label
_atom_site_type_symbol
_atom_site_fract_x
_atom_site_fract_y
_atom_site_fract_z
Cu1 Cu -0.31095(3) 0.04723(10) 0.39046(3)
Cu2 Cu -0.11772(4) 0.32253(10) 0.47036(3)
Cu3 Cu -0.25000 -0.25000 0.25000
N2 N -0.4053(2) 0.0461(7) 0.3757(2)
N3 N -0.3036(2) 0.2567(6) 0.3523(2)
O1 O -0.0397(2) 0.4535(7) 0.4341(2)
O2 O -0.1397(2) 0.5417(6) 0.5007(2)
O3 O -0.1058(2) 0.0936(6) 0.4452(2)
O4 O -0.1644(2) -0.2724(7) 0.2721(2)
O12 O -0.3276(2) -0.1765(6) 0.4175(2)
O13 O -0.400(2) -0.3855(6) 0.4176(2)
O14 O -0.2250(2) 0.1326(6) 0.4119(2)
O15 O -0.1806(2) 0.3901(6) 0.4268(1)
O16 O -0.3459(2) 0.1918(7) 0.4494(2)
O17 O -0.4359(2) 0.2549(6) 0.4803(1)
O18 O -0.2842(2) -0.0903(6) 0.3282(1)
O19 O -0.2488(2) -0.0079(6) 0.2637(1)
C1 C -0.4092(3) 0.1479(8) 0.3340(2)
C2 C -0.4169(3) -0.1438(8) 0.3710(2)
C3 C -0.3793(3) -0.2425(9) 0.4045(2)
C4 C -0.3693(3) 0.3115(8) 0.3405(2)
C5 C -0.2697(3) 0.3875(8) 0.3796(2)
C6 C -0.2214(3) 0.2931(8) 0.4079(2)
C7 C -0.3741(3) 0.4335(9) 0.3014(2)
C8 C -0.4415(3) 0.1189(9) 0.4112(2)
C9 C -0.4037(3) 0.1930(9) 0.4498(2)
C10 C -0.4432(3) 0.476(1) 0.2906(3)
C11 C -0.2623(3) 0.2116(8) 0.3148(2)
C12 C -0.2667(3) 0.0222(8) 0.3021(2)
C13 C -0.4775(3) 0.312(1) 0.2797(2)
C14 C -0.4757(3) 0.1863(9) 0.3181(2)
H1 H -0.3910 0.0705 0.3079
H2 H -0.4660 -0.1696 0.3754
H3 H -0.4037 -0.1847 0.3388
H4 H -0.3868 0.3878 0.3671
H5 H -0.2465 0.4792 0.3588
H6 H -0.3023 0.4548 0.3999
H7 H -0.3494 0.5518 0.3089
H8 H -0.3533 0.3725 0.2735
H9 H -0.4712 0.0179 0.4235
H10 H -0.4701 0.2217 0.3979
H11 H -0.4642 0.5366 0.3184
H12 H -0.4456 0.5625 0.2631
H13 H -0.2144 0.2403 0.3239
H14 H -0.2759 0.2893 0.2870
H15 H -0.5256 0.3420 0.2717
H16 H -0.4559 0.2511 0.2521
H17 H -0.5013 0.2423 0.3446
H18 H -0.4976 0.0666 0.3082
H19 H -0.0011 0.4456 0.4397
H20 H -0.0448 0.4696 0.4042
H21 H -0.1261 0.5568 0.5288
H22 H -0.1377 0.0564 0.4305
H23 H -0.1550 -0.3836 0.2816
O17B O -0.0641(2) 0.2549(6) 0.5197(1)
O4E O -0.3356(2) -0.2276(7) 0.2279(2)
O19E O -0.2512(2) -0.4921(6) 0.2363(1)
Cu2B Cu -0.38228(4) 0.32253(10) 0.52964(3)
H23E H -0.3450 -0.1164 0.2184
C12E C -0.2333(3) -0.5222(8) 0.1979(2)
O18E O -0.2158(2) -0.4097(6) 0.1718(1)
C11E C -0.2377(3) -0.7116(8) 0.1852(2)
Cu1E Cu -0.18905(3) -0.54723(10) 0.10954(3)
N3E N -0.1964(2) -0.7567(6) 0.1477(2)
H13E H -0.2856 -0.7403 0.1761
H14E H -0.2241 -0.7893 0.2130
N2E N -0.0947(2) -0.5461(7) 0.1243(2)
O12E O -0.1724(2) -0.3235(6) 0.0825(2)
O14E O -0.2750(2) -0.6326(6) 0.0881(2)
O16E O -0.1541(2) -0.6918(7) 0.0506(2)
C4E C -0.1307(3) -0.8115(8) 0.1595(2)
C5E C -0.2303(3) -0.8875(8) 0.1204(2)
C1E C -0.0908(3) -0.6479(8) 0.1660(2)
C2E C -0.0831(3) -0.3562(8) 0.1290(2)
C8E C -0.0585(3) -0.6189(9) 0.0888(2)
C3E C -0.1207(3) -0.2575(9) 0.0955(2)
C6E C -0.2786(3) -0.7931(8) 0.0921(2)
C9E C -0.0963(3) -0.6930(9) 0.0502(2)
C7E C -0.1259(3) -0.9335(9) 0.1986(2)
H4E H -0.1132 -0.8878 0.1329
H5E H -0.2535 -0.9792 0.1412
H6E H -0.1977 -0.9548 0.1001
C14E C -0.0243(3) -0.6863(9) 0.1819(2)
H1E H -0.1090 -0.5705 0.1921
H2E H -0.0340 -0.3304 0.1246
H3E H -0.0963 -0.3153 0.1612
H9E H -0.0288 -0.5179 0.0765
H10E H -0.0299 -0.7217 0.1021
O13E O -0.100(2) -0.1145(6) 0.0824(2)
O15E O -0.3194(2) -0.8901(6) 0.0732(1)
O17E O -0.0641(2) -0.7549(6) 0.0197(1)
C10E C -0.0568(3) -0.976(1) 0.2094(3)
H7E H -0.1506 -1.0518 0.1911
H8E H -0.1467 -0.8725 0.2265
C13E C -0.0225(3) -0.812(1) 0.2203(2)
H17E H 0.0013 -0.7423 0.1554
H18E H -0.0024 -0.5666 0.1918
Cu2E Cu -0.38228(4) -0.82253(10) 0.02964(3)
Cu2G Cu -0.11772(4) -0.82253(10) -0.02964(3)
H11E H -0.0358 -1.0366 0.1816
H12E H -0.0544 -1.0625 0.2369
H15E H 0.0256 -0.8420 0.2283
H16E H -0.0441 -0.7511 0.2479
O1E O -0.4603(2) -0.9535(7) 0.0659(2)
O2E O -0.3603(2) -1.0417(6) -0.0007(2)
O3E O -0.3942(2) -0.5936(6) 0.0548(2)
O17G O -0.4359(2) -0.7549(6) -0.0197(1)
H19E H -0.4989 -0.9456 0.0603
H20E H -0.4552 -0.9696 0.0958
H21E H -0.3739 -1.0568 -0.0288
H22E H -0.3623 -0.5564 0.0695
N1 N -0.5963(3) -0.0959(9) 0.8296(2)
O9 O -0.5895(3) 0.0383(9) 0.8500(2)
O10 O -0.6285(3) -0.1003(8) 0.7960(2)
O11 O -0.5698(3) -0.2294(8) 0.8425(2)
O5 O -0.9430(2) 0.1585(6) 0.5062(2)
H24 H -0.9217 0.2433 0.5055
H25 H -0.9826 0.1918 0.5016
O6 O -0.6303(3) 0.0441(8) 0.3319(2)
H26 H -0.6131 -0.0524 0.3375
O7 O -0.6743(4) 0.2260(9) 0.4071(3)
O8 O -0.7500 0.2199(15) 0.0000
H27 H -0.7524 0.1733 0.0228
H27B H -0.7476 0.1733 -0.0228
loop_
_geom_bond_atom_site_label_1
_geom_bond_atom_site_label_2
_geom_bond_site_symmetry_1
_geom_bond_site_symmetry_2
Cu1 N2 1_555 1_555
Cu2 O1 1_555 1_555
Cu3 O4 1_555 1_555
N1 O9 1_555 1_555
N2 C1 1_555 1_555
N3 Cu1 1_555 1_555
O1 H19 1_555 1_555
O2 Cu2 1_555 1_555
O3 Cu2 1_555 1_555
O4 H23 1_555 1_555
O5 H24 1_555 1_555
O6 H26 1_555 1_555
O8 H27 1_555 1_555
O10 N1 1_555 1_555
O11 N1 1_555 1_555
O12 Cu1 1_555 1_555
O13 C3 1_555 1_555
O14 Cu1 1_555 1_555
O15 Cu2 1_555 1_555
O16 Cu1 1_555 1_555
O17 C9 1_555 1_555
O18 Cu1 1_555 1_555
O19 Cu3 1_555 1_555
C1 C4 1_555 1_555
C2 N2 1_555 1_555
C3 O12 1_555 1_555
C4 N3 1_555 1_555
C5 N3 1_555 1_555
C6 O14 1_555 1_555
C7 C4 1_555 1_555
C8 N2 1_555 1_555
C9 O16 1_555 1_555
C10 C7 1_555 1_555
C11 N3 1_555 1_555
C12 O18 1_555 1_555
C13 C10 1_555 1_555
C14 C1 1_555 1_555
H1 C1 1_555 1_555
H2 C2 1_555 1_555
H3 C2 1_555 1_555
H4 C4 1_555 1_555
H5 C5 1_555 1_555
H6 C5 1_555 1_555
H7 C7 1_555 1_555
H8 C7 1_555 1_555
H9 C8 1_555 1_555
H10 C8 1_555 1_555
H11 C10 1_555 1_555
H12 C10 1_555 1_555
H13 C11 1_555 1_555
H14 C11 1_555 1_555
H15 C13 1_555 1_555
H16 C13 1_555 1_555
H17 C14 1_555 1_555
H18 C14 1_555 1_555
H20 O1 1_555 1_555
H21 O2 1_555 1_555
H22 O3 1_555 1_555
H25 O5 1_555 1_555
O17B Cu2 1_555 1_555
O4E Cu3 1_555 1_555
O19E Cu3 1_555 1_555
Cu2B O17 1_555 1_555
H23E O4E 1_555 1_555
C12E O19E 1_555 1_555
O18E C12E 1_555 1_555
C11E C12E 1_555 1_555
Cu1E O18E 1_555 1_555
N3E C11E 1_555 1_555
H13E C11E 1_555 1_555
H14E C11E 1_555 1_555
N2E Cu1E 1_555 1_555
O12E Cu1E 1_555 1_555
O14E Cu1E 1_555 1_555
O16E Cu1E 1_555 1_555
C4E N3E 1_555 1_555
C5E N3E 1_555 1_555
C1E N2E 1_555 1_555
C2E N2E 1_555 1_555
C8E N2E 1_555 1_555
C3E O12E 1_555 1_555
C6E O14E 1_555 1_555
C9E O16E 1_555 1_555
C7E C4E 1_555 1_555
H4E C4E 1_555 1_555
H5E C5E 1_555 1_555
H6E C5E 1_555 1_555
C14E C1E 1_555 1_555
H1E C1E 1_555 1_555
H2E C2E 1_555 1_555
H3E C2E 1_555 1_555
H9E C8E 1_555 1_555
H10E C8E 1_555 1_555
O13E C3E 1_555 1_555
O15E C6E 1_555 1_555
O17E C9E 1_555 1_555
C10E C7E 1_555 1_555
H7E C7E 1_555 1_555
H8E C7E 1_555 1_555
C13E C14E 1_555 1_555
H17E C14E 1_555 1_555
H18E C14E 1_555 1_555
Cu2E O15E 1_555 1_555
Cu2G O17E 1_555 1_555
H11E C10E 1_555 1_555
H12E C10E 1_555 1_555
H15E C13E 1_555 1_555
H16E C13E 1_555 1_555
O1E Cu2E 1_555 1_555
O2E Cu2E 1_555 1_555
O3E Cu2E 1_555 1_555
O17G Cu2E 1_555 1_555
H19E O1E 1_555 1_555
H20E O1E 1_555 1_555
H21E O2E 1_555 1_555
H22E O3E 1_555 1_555
H27B O8 1_555 1_555
O15 C6 1_555 1_555
O19 C12 1_555 1_555
C2 C3 1_555 1_555
C5 C6 1_555 1_555
C8 C9 1_555 1_555
C11 C12 1_555 1_555
C13 C14 1_555 1_555
Cu1E N3E 1_555 1_555
C4E C1E 1_555 1_555
C5E C6E 1_555 1_555
C2E C3E 1_555 1_555
C8E C9E 1_555 1_555
C10E C13E 1_555 1_555

#END
