
#######################################################################
#
#                 Cambridge Crystallographic Data Centre
#                                CCDC 
#
#######################################################################
#
# If this CIF has been generated from an entry in the Cambridge 
# Structural Database, then it will include bibliographic, chemical, 
# crystal, experimental, refinement or atomic coordinate data resulting 
# from the CCDC's data processing and validation procedures.
#
#######################################################################

data_VURLIE
_symmetry_cell_setting           monoclinic
_symmetry_space_group_name_H-M   'P 21/n'
_symmetry_Int_Tables_number      14
_space_group_name_Hall           '-P 2yn'
loop_
_symmetry_equiv_pos_site_id
_symmetry_equiv_pos_as_xyz
1 x,y,z
2 1/2-x,1/2+y,1/2-z
3 -x,-y,-z
4 1/2+x,1/2-y,1/2+z
_cell_length_a                   16.2068(11)
_cell_length_b                   19.5571(13)
_cell_length_c                   19.2949(13)
_cell_angle_alpha                90
_cell_angle_beta                 109.6890(10)
_cell_angle_gamma                90
_cell_volume                     5758.12
loop_
_atom_site_label
_atom_site_type_symbol
_atom_site_fract_x
_atom_site_fract_y
_atom_site_fract_z
W1 W -0.14198(2) 0.103370(17) -0.315410(19)
W2 W -0.02962(2) 0.250070(17) -0.322420(19)
W3 W -0.07584(2) 0.134570(18) -0.46357(2)
W4 W -0.21324(2) 0.352340(17) -0.296470(19)
W5 W -0.32106(2) 0.203220(16) -0.289500(18)
W6 W -0.36946(2) 0.074260(16) -0.445450(18)
W7 W -0.18770(2) 0.269960(18) -0.600540(19)
W8 W -0.13743(2) 0.386440(17) -0.456590(19)
W9 W -0.42365(2) 0.326870(17) -0.412570(18)
W10 W -0.46234(2) 0.198530(17) -0.567980(18)
W11 W -0.34807(2) 0.365110(17) -0.568940(19)
As1 As -0.25473(5) 0.23029(4) -0.44524(4)
Cu1 Cu -0.24978(6) 0.00887(5) -0.55574(6)
Cu2 Cu 0.14179(6) 0.36222(5) -0.19441(6)
Cu3 Cu -0.68623(7) 0.23083(5) -0.60211(6)
O1 O -0.1077(4) 0.0372(3) -0.2564(3)
O2 O -0.0458(3) 0.1678(3) -0.2766(3)
O3 O 0.0714(4) 0.2777(3) -0.2660(3)
O4 O 0.0033(3) 0.1935(3) -0.3911(3)
O5 O -0.0021(4) 0.0914(3) -0.4923(3)
O6 O -0.0833(4) 0.0778(3) -0.3865(3)
O7 O -0.2464(4) 0.0704(3) -0.3818(3)
O8 O -0.2091(4) 0.1583(3) -0.2748(3)
O9 O -0.1099(4) 0.2940(3) -0.2848(3)
O10 O -0.0596(4) 0.3194(3) -0.3959(3)
O11 O -0.1072(3) 0.2113(3) -0.5291(3)
O12 O -0.1846(4) 0.0960(3) -0.5271(3)
O13 O -0.1585(3) 0.1924(3) -0.4026(3)
O14 O -0.1726(4) 0.4119(3) -0.2298(3)
O15 O -0.2490(4) 0.2829(3) -0.2413(3)
O16 O -0.3497(4) 0.1723(3) -0.2185(3)
O17 O -0.3694(3) 0.1424(3) -0.3654(3)
O18 O -0.4158(4) 0.0073(3) -0.4144(3)
O19 O -0.3387(4) 0.0356(3) -0.5168(3)
O20 O 0.2380(4) 0.3031(3) -0.1313(3)
O21 O -0.1425(4) 0.2762(3) -0.6684(3)
O22 O -0.1205(4) 0.3495(3) -0.5402(3)
O23 O -0.1864(4) 0.3875(3) -0.3778(3)
O24 O -0.0751(4) 0.4587(3) -0.4414(4)
O25 O -0.2873(3) 0.2672(3) -0.3803(3)
O26 O -0.3275(3) 0.1743(3) -0.4944(3)
O27 O -0.2375(3) 0.2914(3) -0.4994(3)
O28 O -0.3309(4) 0.3801(3) -0.3377(3)
O29 O -0.4149(4) 0.2674(3) -0.3300(3)
O30 O -0.4714(3) 0.1219(3) -0.5093(3)
O31 O -0.2825(4) 0.3330(3) -0.6306(3)
O32 O -0.2488(4) 0.4213(3) -0.5188(3)
O33 O -0.5155(4) 0.3713(3) -0.4182(3)
O34 O -0.4630(4) 0.2568(3) -0.4789(3)
O35 O -0.5754(3) 0.2116(3) -0.6138(3)
O36 O 0.0687(4) 0.3468(3) -0.1347(3)
O37 O -0.4143(4) 0.2825(3) -0.5887(3)
O38 O -0.4160(4) 0.4235(3) -0.6252(4)
O39 O -0.3814(4) 0.3707(3) -0.4834(3)
O40 O -0.1416(4) -0.0466(3) -0.4659(4)
O41 O -0.7085(4) 0.1310(3) -0.6027(4)
C1 C -0.3789(6) -0.1033(5) -0.5707(5)
H1 H -0.3998 -0.0776 -0.5396
C2 C -0.4148(7) -0.1660(5) -0.5939(6)
H2 H -0.4590 -0.1837 -0.5785
C3 C -0.3836(8) -0.2016(6) -0.6406(7)
H3 H -0.4077 -0.2442 -0.6575
C4 C -0.3186(8) -0.1772(6) -0.6631(7)
H4 H -0.2976 -0.2023 -0.6946
C5 C -0.2840(6) -0.1127(5) -0.6373(5)
C6 C -0.2154(6) -0.0794(5) -0.6591(5)
C7 C -0.1744(6) -0.1081(6) -0.7040(6)
H5 H -0.1886 -0.1522 -0.7223
C8 C -0.1123(6) -0.0707(6) -0.7216(5)
H6 H -0.0859 -0.0885 -0.7536
C9 C -0.0897(6) -0.0070(7) -0.6913(5)
H7 H -0.0469 0.0184 -0.7019
C10 C -0.1311(6) 0.0194(5) -0.6449(5)
H8 H -0.1162 0.0629 -0.6252
C11 C 0.0124(6) 0.4750(5) -0.2121(6)
H9 H -0.0058 0.4516 -0.1779
C12 C -0.0276(7) 0.5363(6) -0.2409(6)
H10 H -0.0724 0.5539 -0.2263
C13 C -0.0005(7) 0.5701(5) -0.2905(6)
H11 H -0.0270 0.6112 -0.3101
C14 C 0.0659(7) 0.5441(5) -0.3122(6)
H12 H 0.0847 0.5674 -0.3461
C15 C 0.1040(5) 0.4828(5) -0.2825(5)
C16 C 0.1753(6) 0.4492(4) -0.3000(5)
C17 C 0.2128(7) 0.4745(5) -0.3499(6)
H13 H 0.1924 0.5152 -0.3747
C18 C 0.2806(7) 0.4392(6) -0.3626(6)
H14 H 0.3053 0.4549 -0.3967
C19 C 0.3102(7) 0.3801(6) -0.3229(6)
H15 H 0.3566 0.3556 -0.3288
C20 C 0.2701(7) 0.3582(5) -0.2748(6)
H16 H 0.2899 0.3177 -0.2494
C21 C -0.6062(6) 0.3668(5) -0.6087(5)
H17 H -0.5664 0.3440 -0.6257
C22 C -0.6003(6) 0.4362(5) -0.6002(5)
H18 H -0.5558 0.4605 -0.6095
C23 C -0.6614(7) 0.4691(5) -0.5776(6)
H19 H -0.6590 0.5165 -0.5734
C24 C -0.7258(7) 0.4349(5) -0.5611(6)
H20 H -0.7666 0.4577 -0.5453
C25 C -0.7273(6) 0.3653(4) -0.5688(5)
C26 C -0.7892(6) 0.3196(5) -0.5502(5)
C27 C -0.8543(7) 0.3447(6) -0.5234(7)
H21 H -0.8621 0.3913 -0.5183
C28 C -0.9058(9) 0.2968(7) -0.5052(9)
H22 H -0.9526 0.3110 -0.4912
C29 C -0.8891(10) 0.2293(7) -0.5074(11)
H23 H -0.9187 0.1972 -0.4889
C30 C -0.8268(8) 0.2087(6) -0.5380(8)
H24 H -0.8187 0.1622 -0.5432
N1 N -0.3136(5) -0.0776(4) -0.5919(4)
N2 N -0.1922(5) -0.0164(4) -0.6276(4)
N3 N 0.0774(5) 0.4488(4) -0.2332(4)
N4 N 0.2054(5) 0.3907(4) -0.2622(4)
N5 N -0.6682(5) 0.3310(4) -0.5930(4)
N6 N -0.7790(5) 0.2525(4) -0.5597(5)
O44 O 0.203(3) 0.383(2) -0.088(2)
W7C W 0.31230(2) 0.230040(18) -0.100540(19)
W10C W 0.03766(2) 0.301470(17) -0.067980(18)
Cu1C Cu 0.25022(6) 0.49113(5) -0.05574(6)
O20C O -0.2620(4) 0.1969(3) -0.6313(3)
O36C O -0.4313(4) 0.1532(3) -0.6347(3)
O44C O -0.297(3) 0.117(2) -0.588(2)
O42 O -0.8697(6) 0.0994(5) -0.6924(6)
O43 O -0.9994(13) 0.8037(15) -0.2921(11)
loop_
_geom_bond_atom_site_label_1
_geom_bond_atom_site_label_2
_geom_bond_site_symmetry_1
_geom_bond_site_symmetry_2
W1 O1 1_555 1_555
W2 O2 1_555 1_555
W3 O4 1_555 1_555
W4 O9 1_555 1_555
W5 O8 1_555 1_555
W6 O7 1_555 1_555
W7 O11 1_555 1_555
W8 O10 1_555 1_555
W9 O25 1_555 1_555
W10 O26 1_555 1_555
W11 O27 1_555 1_555
As1 O13 1_555 1_555
Cu1 O12 1_555 1_555
Cu2 O3 1_555 1_555
Cu3 O35 1_555 1_555
O2 W1 1_555 1_555
O3 W2 1_555 1_555
O4 W2 1_555 1_555
O5 W3 1_555 1_555
O6 W1 1_555 1_555
O7 W1 1_555 1_555
O8 W1 1_555 1_555
O9 W2 1_555 1_555
O10 W2 1_555 1_555
O11 W3 1_555 1_555
O12 W3 1_555 1_555
O13 W1 1_555 1_555
O14 W4 1_555 1_555
O15 W4 1_555 1_555
O16 W5 1_555 1_555
O17 W5 1_555 1_555
O18 W6 1_555 1_555
O19 W6 1_555 1_555
O20 Cu2 1_555 1_555
O21 W7 1_555 1_555
O22 W7 1_555 1_555
O23 W4 1_555 1_555
O24 W8 1_555 1_555
O25 W4 1_555 1_555
O26 W6 1_555 1_555
O27 W7 1_555 1_555
O28 W4 1_555 1_555
O29 W5 1_555 1_555
O30 W6 1_555 1_555
O31 W7 1_555 1_555
O32 W8 1_555 1_555
O33 W9 1_555 1_555
O34 W9 1_555 1_555
O35 W10 1_555 1_555
O36 Cu2 1_555 1_555
O37 W10 1_555 1_555
O38 W11 1_555 1_555
O39 W9 1_555 1_555
O40 Cu1 1_555 1_555
O41 Cu3 1_555 1_555
C1 H1 1_555 1_555
C2 C1 1_555 1_555
H2 C2 1_555 1_555
C3 C2 1_555 1_555
H3 C3 1_555 1_555
C4 C3 1_555 1_555
H4 C4 1_555 1_555
C5 C4 1_555 1_555
C6 C5 1_555 1_555
C7 C6 1_555 1_555
H5 C7 1_555 1_555
C8 C7 1_555 1_555
H6 C8 1_555 1_555
C9 C8 1_555 1_555
H7 C9 1_555 1_555
C10 C9 1_555 1_555
H8 C10 1_555 1_555
C11 H9 1_555 1_555
C12 C11 1_555 1_555
H10 C12 1_555 1_555
C13 C12 1_555 1_555
H11 C13 1_555 1_555
C14 C13 1_555 1_555
H12 C14 1_555 1_555
C15 C14 1_555 1_555
C16 C15 1_555 1_555
C17 C16 1_555 1_555
H13 C17 1_555 1_555
C18 C17 1_555 1_555
H14 C18 1_555 1_555
C19 C18 1_555 1_555
H15 C19 1_555 1_555
C20 C19 1_555 1_555
H16 C20 1_555 1_555
C21 H17 1_555 1_555
C22 C21 1_555 1_555
H18 C22 1_555 1_555
C23 C22 1_555 1_555
H19 C23 1_555 1_555
C24 C23 1_555 1_555
H20 C24 1_555 1_555
C25 C24 1_555 1_555
C26 C25 1_555 1_555
C27 C26 1_555 1_555
H21 C27 1_555 1_555
C28 C27 1_555 1_555
H22 C28 1_555 1_555
C29 C28 1_555 1_555
H23 C29 1_555 1_555
C30 C29 1_555 1_555
H24 C30 1_555 1_555
N1 Cu1 1_555 1_555
N2 Cu1 1_555 1_555
N3 Cu2 1_555 1_555
N4 Cu2 1_555 1_555
N5 Cu3 1_555 1_555
N6 Cu3 1_555 1_555
O44 Cu2 1_555 1_555
W7C O20 1_555 1_555
W10C O36 1_555 1_555
Cu1C O44 1_555 1_555
O20C W7 1_555 1_555
O36C W10 1_555 1_555
O44C Cu1 1_555 1_555
W2 O13 1_555 1_555
W3 O6 1_555 1_555
W3 O13 1_555 1_555
W5 O15 1_555 1_555
W5 O25 1_555 1_555
W6 O17 1_555 1_555
W8 O22 1_555 1_555
W8 O23 1_555 1_555
W8 O27 1_555 1_555
W9 O28 1_555 1_555
W9 O29 1_555 1_555
W10 O30 1_555 1_555
W10 O34 1_555 1_555
W11 O31 1_555 1_555
W11 O32 1_555 1_555
W11 O37 1_555 1_555
W11 O39 1_555 1_555
As1 O25 1_555 1_555
As1 O26 1_555 1_555
As1 O27 1_555 1_555
Cu1 O19 1_555 1_555
C1 N1 1_555 1_555
C5 N1 1_555 1_555
C6 N2 1_555 1_555
C10 N2 1_555 1_555
C11 N3 1_555 1_555
C15 N3 1_555 1_555
C16 N4 1_555 1_555
C20 N4 1_555 1_555
C21 N5 1_555 1_555
C25 N5 1_555 1_555
C26 N6 1_555 1_555
C30 N6 1_555 1_555

#END
