
#######################################################################
#
#                 Cambridge Crystallographic Data Centre
#                                CCDC 
#
#######################################################################
#
# If this CIF has been generated from an entry in the Cambridge 
# Structural Database, then it will include bibliographic, chemical, 
# crystal, experimental, refinement or atomic coordinate data resulting 
# from the CCDC's data processing and validation procedures.
#
#######################################################################

data_VURLEA
_symmetry_cell_setting           triclinic
_symmetry_space_group_name_H-M   'P -1'
_symmetry_Int_Tables_number      2
_space_group_name_Hall           '-P 1'
loop_
_symmetry_equiv_pos_site_id
_symmetry_equiv_pos_as_xyz
1 x,y,z
2 -x,-y,-z
_cell_length_a                   9.5111(19)
_cell_length_b                   11.355(2)
_cell_length_c                   11.585(2)
_cell_angle_alpha                98.84(3)
_cell_angle_beta                 110.83(3)
_cell_angle_gamma                105.39(3)
_cell_volume                     1083.9
loop_
_atom_site_label
_atom_site_type_symbol
_atom_site_fract_x
_atom_site_fract_y
_atom_site_fract_z
Zn1 Zn 0.36115(6) 0.42956(5) 0.22485(5)
Zn2 Zn 0.5000 0.5000 0.0000
O1 O 0.1692(5) 0.1960(3) 0.1371(4)
O2 O 0.4243(4) 0.2843(3) 0.2679(3)
O3 O 0.5524(4) 0.5828(3) 0.3318(3)
O4 O 0.6698(4) 0.5636(3) 0.1970(3)
N1 N 0.2249(4) 0.4645(4) 0.3187(3)
N2 N 0.4954(4) 0.3099(3) -0.0077(3)
N3 N 0.6964(5) 0.5423(4) -0.0552(4)
N4 N 0.8124(12) 0.5410(6) 0.0006(9)
N5 N 0.9523(13) 0.5358(17) 0.0687(19)
C1 C 0.2960(6) 0.1880(5) 0.2068(4)
C2 C 0.3050(6) 0.0606(5) 0.2217(5)
C3 C 0.1751(7) -0.0492(5) 0.1475(6)
H1 H 0.0826 -0.0435 0.0881
C4 C 0.1807(10) -0.1657(6) 0.1602(7)
H2 H 0.0918 -0.2384 0.1104
C5 C 0.3171(11) -0.1760(6) 0.2461(7)
H3 H 0.3214 -0.2555 0.2535
C6 C 0.4470(9) -0.0684(6) 0.3210(7)
H4 H 0.5388 -0.0750 0.3805
C7 C 0.4418(7) 0.0495(5) 0.3084(6)
H5 H 0.5309 0.1219 0.3585
C8 C 0.6687(5) 0.6145(4) 0.3005(4)
C9 C 0.8167(5) 0.7205(4) 0.3968(4)
C10 C 0.9547(6) 0.7543(4) 0.3760(5)
H6 H 0.9541 0.7149 0.2992
C11 C 1.0923(6) 0.8458(5) 0.4683(5)
H7 H 1.1851 0.8667 0.4542
C12 C 1.0949(7) 0.9076(5) 0.5823(5)
H8 H 1.1887 0.9698 0.6442
C13 C 0.9583(7) 0.8765(5) 0.6033(5)
H9 H 0.9588 0.9180 0.6792
C14 C 0.8198(6) 0.7833(5) 0.5111(4)
H10 H 0.7274 0.7623 0.5256
C15 C 0.0695(6) 0.3961(5) 0.2750(5)
H11 H 0.0202 0.3371 0.1947
C16 C -0.0209(6) 0.4081(5) 0.3423(5)
H12 H -0.1290 0.3585 0.3071
C17 C 0.0475(5) 0.4934(4) 0.4617(4)
C18 C 0.2084(5) 0.5650(4) 0.5079(5)
H13 H 0.2603 0.6242 0.5881
C19 C 0.2913(6) 0.5479(4) 0.4340(4)
H14 H 0.3993 0.5971 0.4664
C20 C 0.6314(6) 0.2889(4) 0.0494(5)
H15 H 0.7269 0.3578 0.0874
C21 C 0.6375(6) 0.1698(4) 0.0550(5)
H16 H 0.7354 0.1601 0.0972
C22 C 0.4979(5) 0.0645(4) -0.0021(4)
C23 C 0.3589(6) 0.0881(4) -0.0628(5)
H17 H 0.2618 0.0208 -0.1044
C24 C 0.3621(6) 0.2099(4) -0.0625(5)
H18 H 0.2656 0.2224 -0.1028
Zn1A Zn 0.63885(6) 0.57044(5) -0.22485(5)
Zn1A_2 Zn -0.36115(6) 0.57044(5) 0.77515(5)
Zn2_2 Zn 0.5000 -0.5000 0.0000
O1A O 0.8308(5) 0.8040(3) -0.1371(4)
O2A O 0.5757(4) 0.7157(3) -0.2679(3)
O3A O 0.4476(4) 0.4172(3) -0.3318(3)
O4A O 0.3302(4) 0.4364(3) -0.1970(3)
N1A N -0.2249(4) 0.5355(4) 0.6813(3)
N1A_2 N 0.7751(4) 0.5355(4) -0.3187(3)
N2A N 0.5046(4) -0.3099(3) 0.0077(3)
N2A_2 N 0.5046(4) 0.6901(3) 0.0077(3)
N3A N 0.3036(5) 0.4577(4) 0.0552(4)
N4A N 0.1876(12) 0.4590(6) -0.0006(9)
N5A N 0.0477(13) 0.4642(17) -0.0687(19)
C1A C 0.7040(6) 0.8120(5) -0.2068(4)
C2A C 0.6950(6) 0.9394(5) -0.2217(5)
C3A C 0.8249(7) 1.0492(5) -0.1475(6)
H1A H 0.9174 1.0435 -0.0881
C4A C 0.8193(10) 1.1657(6) -0.1602(7)
H2A H 0.9082 1.2384 -0.1104
C5A C 0.6829(11) 1.1760(6) -0.2461(7)
H3A H 0.6786 1.2555 -0.2535
C6A C 0.5530(9) 1.0684(6) -0.3210(7)
H4A H 0.4612 1.0750 -0.3805
C7A C 0.5582(7) 0.9505(5) -0.3084(6)
H5A H 0.4691 0.8781 -0.3585
C8A C 0.3313(5) 0.3855(4) -0.3005(4)
C9A C 0.1833(5) 0.2795(4) -0.3968(4)
C10A C 0.0453(6) 0.2457(4) -0.3760(5)
H6A H 0.0459 0.2851 -0.2992
C11A C -0.0923(6) 0.1542(5) -0.4683(5)
H7A H -0.1851 0.1333 -0.4542
C12A C -0.0949(7) 0.0924(5) -0.5823(5)
H8A H -0.1887 0.0302 -0.6442
C13A C 0.0417(7) 0.1235(5) -0.6033(5)
H9A H 0.0412 0.0820 -0.6792
C14A C 0.1802(6) 0.2167(5) -0.5111(4)
H10A H 0.2726 0.2377 -0.5256
C15A C -0.0695(6) 0.6039(5) 0.7250(5)
H11A H -0.0202 0.6629 0.8053
C16A C 0.0209(6) 0.5919(5) 0.6577(5)
H12A H 0.1290 0.6415 0.6929
C17A C -0.0475(5) 0.5066(4) 0.5383(4)
C18A C -0.2084(5) 0.4350(4) 0.4921(5)
H13A H -0.2603 0.3758 0.4119
C19A C -0.2913(6) 0.4521(4) 0.5660(4)
H14A H -0.3993 0.4029 0.5336
C20A C 0.3686(6) -0.2889(4) -0.0494(5)
H15A H 0.2731 -0.3578 -0.0874
C21A C 0.3625(6) -0.1698(4) -0.0550(5)
H16A H 0.2646 -0.1601 -0.0972
C22A C 0.5021(5) -0.0645(4) 0.0021(4)
C23A C 0.6411(6) -0.0881(4) 0.0628(5)
H17A H 0.7382 -0.0208 0.1044
C24A C 0.6379(6) -0.2099(4) 0.0625(5)
H18A H 0.7344 -0.2224 0.1028
loop_
_geom_bond_atom_site_label_1
_geom_bond_atom_site_label_2
_geom_bond_site_symmetry_1
_geom_bond_site_symmetry_2
Zn1 O2 1_555 1_555
Zn2 O4 1_555 1_555
O1 C1 1_555 1_555
O2 C1 1_555 1_555
O3 Zn1 1_555 1_555
O4 C8 1_555 1_555
N1 Zn1 1_555 1_555
N2 Zn2 1_555 1_555
N3 Zn2 1_555 1_555
N4 N3 1_555 1_555
N5 N4 1_555 1_555
C1 C2 1_555 1_555
C2 C3 1_555 1_555
C3 H1 1_555 1_555
C4 C3 1_555 1_555
H2 C4 1_555 1_555
C5 C4 1_555 1_555
H3 C5 1_555 1_555
C6 C5 1_555 1_555
H4 C6 1_555 1_555
C7 C2 1_555 1_555
H5 C7 1_555 1_555
C8 O3 1_555 1_555
C9 C8 1_555 1_555
C10 C9 1_555 1_555
H6 C10 1_555 1_555
C11 C10 1_555 1_555
H7 C11 1_555 1_555
C12 C11 1_555 1_555
H8 C12 1_555 1_555
C13 C12 1_555 1_555
H9 C13 1_555 1_555
C14 C9 1_555 1_555
H10 C14 1_555 1_555
C15 N1 1_555 1_555
H11 C15 1_555 1_555
C16 C15 1_555 1_555
H12 C16 1_555 1_555
C17 C16 1_555 1_555
C18 C17 1_555 1_555
H13 C18 1_555 1_555
C19 N1 1_555 1_555
H14 C19 1_555 1_555
C20 N2 1_555 1_555
H15 C20 1_555 1_555
C21 C20 1_555 1_555
H16 C21 1_555 1_555
C22 C21 1_555 1_555
C23 C22 1_555 1_555
H17 C23 1_555 1_555
C24 N2 1_555 1_555
H18 C24 1_555 1_555
Zn1A N3 1_555 1_555
Zn1A_2 N1A 1_555 1_555
Zn2_2 N2A 1_555 1_555
O1A C1A 1_555 1_555
O2A Zn1A 1_555 1_555
O3A Zn1A 1_555 1_555
O4A Zn2 1_555 1_555
N1A C15A 1_555 1_555
N1A_2 Zn1A 1_555 1_555
N2A C20A 1_555 1_555
N2A_2 Zn2 1_555 1_555
N3A Zn1 1_555 1_555
N4A N3A 1_555 1_555
N5A N4A 1_555 1_555
C1A O2A 1_555 1_555
C2A C1A 1_555 1_555
C3A C2A 1_555 1_555
H1A C3A 1_555 1_555
C4A C3A 1_555 1_555
H2A C4A 1_555 1_555
C5A C4A 1_555 1_555
H3A C5A 1_555 1_555
C6A C5A 1_555 1_555
H4A C6A 1_555 1_555
C7A C2A 1_555 1_555
H5A C7A 1_555 1_555
C8A O3A 1_555 1_555
C9A C8A 1_555 1_555
C10A C9A 1_555 1_555
H6A C10A 1_555 1_555
C11A C10A 1_555 1_555
H7A C11A 1_555 1_555
C12A C11A 1_555 1_555
H8A C12A 1_555 1_555
C13A C12A 1_555 1_555
H9A C13A 1_555 1_555
C14A C9A 1_555 1_555
H10A C14A 1_555 1_555
C15A H11A 1_555 1_555
C16A C15A 1_555 1_555
H12A C16A 1_555 1_555
C17A C17 1_555 1_555
C18A C17A 1_555 1_555
H13A C18A 1_555 1_555
C19A N1A 1_555 1_555
H14A C19A 1_555 1_555
C20A H15A 1_555 1_555
C21A C20A 1_555 1_555
H16A C21A 1_555 1_555
C22A C22 1_555 1_555
C23A C22A 1_555 1_555
H17A C23A 1_555 1_555
C24A N2A 1_555 1_555
H18A C24A 1_555 1_555
Zn2 N3A 1_555 1_555
C6 C7 1_555 1_555
C13 C14 1_555 1_555
C18 C19 1_555 1_555
C23 C24 1_555 1_555
O4A C8A 1_555 1_555
C6A C7A 1_555 1_555
C13A C14A 1_555 1_555
C16A C17A 1_555 1_555
C18A C19A 1_555 1_555
C21A C22A 1_555 1_555
C23A C24A 1_555 1_555

#END
