
#######################################################################
#
#                 Cambridge Crystallographic Data Centre
#                                CCDC 
#
#######################################################################
#
# If this CIF has been generated from an entry in the Cambridge 
# Structural Database, then it will include bibliographic, chemical, 
# crystal, experimental, refinement or atomic coordinate data resulting 
# from the CCDC's data processing and validation procedures.
#
#######################################################################

data_VURMOL
_symmetry_cell_setting           cubic
_symmetry_space_group_name_H-M   'P a -3'
_symmetry_Int_Tables_number      205
_space_group_name_Hall           '-P 2ac 2ab 3'
loop_
_symmetry_equiv_pos_site_id
_symmetry_equiv_pos_as_xyz
1 x,y,z
2 1/2-x,-y,1/2+z
3 -x,1/2+y,1/2-z
4 1/2+x,1/2-y,-z
5 z,x,y
6 1/2+z,1/2-x,-y
7 1/2-z,-x,1/2+y
8 -z,1/2+x,1/2-y
9 y,z,x
10 -y,1/2+z,1/2-x
11 1/2+y,1/2-z,-x
12 1/2-y,-z,1/2+x
13 -x,-y,-z
14 1/2+x,y,1/2-z
15 x,1/2-y,1/2+z
16 1/2-x,1/2+y,z
17 -z,-x,-y
18 1/2-z,1/2+x,y
19 1/2+z,x,1/2-y
20 z,1/2-x,1/2+y
21 -y,-z,-x
22 y,1/2-z,1/2+x
23 1/2-y,1/2+z,x
24 1/2+y,z,1/2-x
_cell_length_a                   25.0872(10)
_cell_length_b                   25.0872(10)
_cell_length_c                   25.0872(10)
_cell_angle_alpha                90
_cell_angle_beta                 90
_cell_angle_gamma                90
_cell_volume                     15789.1
loop_
_atom_site_label
_atom_site_type_symbol
_atom_site_fract_x
_atom_site_fract_y
_atom_site_fract_z
Zn1 Zn 0.16206(5) 1.16206(5) 0.16206(5)
Zn2 Zn 0.16450(5) 1.26431(6) 0.23622(6)
O1 O 0.2072(3) 1.2072(3) 0.2072(3)
O2 O -0.1865(5) 1.1691(4) 0.2319(5)
O3 O -0.1678(8) 1.2247(5) 0.3011(6)
O4 O 0.0881(4) 1.1674(3) 0.1797(3)
O5 O 0.0933(6) 1.2448(4) 0.2239(5)
N1 N -0.1094(3) 1.1201(10) 0.1911(8)
H1 H -0.1438 1.1193 0.1981
H2 H -0.0949 1.0946 0.1718
C1 C -0.1002(4) 1.2024(5) 0.2412(5)
C2 C -0.0779(3) 1.1618(3) 0.2106(5)
C3 C -0.0233(5) 1.1635(3) 0.1998(4)
H3 H -0.0079 1.1359 0.1790
C4 C 0.0093(5) 1.2043(4) 0.2185(4)
C5 C -0.0134(5) 1.2448(5) 0.2490(6)
H4 H 0.0080 1.2730 0.2622
C6 C -0.0677(6) 1.2434(4) 0.2600(6)
H5 H -0.0831 1.2711 0.2809
C7 C -0.1566(5) 1.1984(5) 0.2598(3)
C8 C 0.0674(3) 1.2050(4) 0.2063(3)
Zn2R Zn -0.26378(6) 1.16450(5) 0.23569(6)
Zn2V Zn 0.23569(6) 0.73622(6) 0.16450(5)
Zn2D Zn 0.23622(6) 1.16450(5) 0.26431(6)
Zn2H Zn 0.26431(6) 1.23622(6) 0.16450(5)
Zn2W Zn -0.23569(6) 1.23622(6) 0.33550(5)
Zn2O Zn 0.33550(5) 0.76431(6) 0.23622(6)
Zn2N Zn 0.16450(5) 1.23569(6) -0.26378(6)
Zn2S Zn 0.23622(6) 1.33550(5) -0.23569(6)
O2D O 0.2319(5) 0.8135(5) 0.1691(4)
O2H O 0.1691(4) 1.2319(5) -0.1865(5)
O2U O 0.1691(4) 1.2681(5) 0.3135(5)
O2M O 0.3135(5) 1.1691(4) 0.2681(5)
O2Q O 0.2681(5) 1.3135(5) 0.1691(4)
O3D O 0.3011(6) 0.8322(8) 0.2247(5)
O3H O 0.2247(5) 1.3011(6) -0.1678(8)
O3Q O 0.1989(6) 1.3322(8) 0.2247(5)
O3U O 0.2247(5) 1.1989(6) 0.3322(8)
O3M O 0.3322(8) 1.2247(5) 0.1989(6)
O4D O 0.1797(3) 1.0881(4) 0.1674(3)
O4H O 0.1674(3) 1.1797(3) 0.0881(4)
O5D O 0.2239(5) 1.0933(6) 0.2448(4)
O5H O 0.2448(4) 1.2239(5) 0.0933(6)
N1D N 0.1911(8) 0.8906(3) 0.1201(10)
N1H N 0.1201(10) 1.1911(8) -0.1094(3)
H1D H 0.1981 0.8562 0.1193
H1H H 0.1193 1.1981 -0.1438
H2D H 0.1718 0.9051 0.0946
H2H H 0.0946 1.1718 -0.0949
C1D C 0.2412(5) 0.8998(4) 0.2024(5)
C1H C 0.2024(5) 1.2412(5) -0.1002(4)
C2D C 0.2106(5) 0.9221(3) 0.1618(3)
C2H C 0.1618(3) 1.2106(5) -0.0779(3)
C3D C 0.1998(4) 0.9767(5) 0.1635(3)
C3H C 0.1635(3) 1.1998(4) -0.0233(5)
H3D H 0.1790 0.9921 0.1359
H3H H 0.1359 1.1790 -0.0079
C4D C 0.2185(4) 1.0093(5) 0.2043(4)
C4H C 0.2043(4) 1.2185(4) 0.0093(5)
C5D C 0.2490(6) 0.9866(5) 0.2448(5)
C5H C 0.2448(5) 1.2490(6) -0.0134(5)
H4D H 0.2622 1.0080 0.2730
H4H H 0.2730 1.2622 0.0080
C6D C 0.2600(6) 0.9323(6) 0.2434(4)
C6H C 0.2434(4) 1.2600(6) -0.0677(6)
H5D H 0.2809 0.9169 0.2711
H5H H 0.2711 1.2809 -0.0831
C7D C 0.2598(3) 0.8434(5) 0.1984(5)
C7H C 0.1984(5) 1.2598(3) -0.1566(5)
C8D C 0.2063(3) 1.0674(3) 0.2050(4)
C8H C 0.2050(4) 1.2063(3) 0.0674(3)
loop_
_geom_bond_atom_site_label_1
_geom_bond_atom_site_label_2
_geom_bond_site_symmetry_1
_geom_bond_site_symmetry_2
Zn1 O1 1_555 1_555
Zn2 O1 1_555 1_555
O1 Zn2D 1_555 1_555
O2 C7 1_555 1_555
O3 C7 1_555 1_555
O4 Zn1 1_555 1_555
O5 Zn2 1_555 1_555
N1 H1 1_555 1_555
H2 N1 1_555 1_555
C1 C2 1_555 1_555
C2 N1 1_555 1_555
C3 C2 1_555 1_555
H3 C3 1_555 1_555
C4 C3 1_555 1_555
C5 C4 1_555 1_555
H4 C5 1_555 1_555
C6 C1 1_555 1_555
H5 C6 1_555 1_555
C7 C1 1_555 1_555
C8 O4 1_555 1_555
Zn2R O2 1_555 1_555
Zn2V O2D 1_555 1_555
Zn2D O2M 1_555 1_555
Zn2H O1 1_555 1_555
Zn2W O3 1_555 1_555
Zn2O O3D 1_555 1_555
Zn2N O2H 1_555 1_555
Zn2S O3H 1_555 1_555
O2D C7D 1_555 1_555
O2H C7H 1_555 1_555
O2U Zn2 1_555 1_555
O2Q Zn2H 1_555 1_555
O3D C7D 1_555 1_555
O3H C7H 1_555 1_555
O3Q Zn2 1_555 1_555
O3U Zn2D 1_555 1_555
O3M Zn2H 1_555 1_555
O4D Zn1 1_555 1_555
O4H Zn1 1_555 1_555
O5D Zn2D 1_555 1_555
O5H Zn2H 1_555 1_555
N1D H1D 1_555 1_555
N1H H1H 1_555 1_555
H2D N1D 1_555 1_555
H2H N1H 1_555 1_555
C1D C2D 1_555 1_555
C1H C2H 1_555 1_555
C2D N1D 1_555 1_555
C2H N1H 1_555 1_555
C3D C2D 1_555 1_555
C3H C2H 1_555 1_555
H3D C3D 1_555 1_555
H3H C3H 1_555 1_555
C4D C3D 1_555 1_555
C4H C3H 1_555 1_555
C5D C4D 1_555 1_555
C5H C4H 1_555 1_555
H4D C5D 1_555 1_555
H4H C5H 1_555 1_555
C6D C1D 1_555 1_555
C6H C1H 1_555 1_555
H5D C6D 1_555 1_555
H5H C6H 1_555 1_555
C7D C1D 1_555 1_555
C7H C1H 1_555 1_555
C8D O4D 1_555 1_555
C8H O4H 1_555 1_555
O5 C8 1_555 1_555
C4 C8 1_555 1_555
C5 C6 1_555 1_555
O5D C8D 1_555 1_555
O5H C8H 1_555 1_555
C4D C8D 1_555 1_555
C4H C8H 1_555 1_555
C5D C6D 1_555 1_555
C5H C6H 1_555 1_555

#END
