
#######################################################################
#
#                 Cambridge Crystallographic Data Centre
#                                CCDC 
#
#######################################################################
#
# If this CIF has been generated from an entry in the Cambridge 
# Structural Database, then it will include bibliographic, chemical, 
# crystal, experimental, refinement or atomic coordinate data resulting 
# from the CCDC's data processing and validation procedures.
#
#######################################################################

data_VURQEF
_symmetry_cell_setting           tetragonal
_symmetry_space_group_name_H-M   'P 41 2 2'
_symmetry_Int_Tables_number      91
_space_group_name_Hall           'P 4w 2c'
loop_
_symmetry_equiv_pos_site_id
_symmetry_equiv_pos_as_xyz
1 x,y,z
2 -x,-y,1/2+z
3 -y,x,1/4+z
4 y,-x,3/4+z
5 -x,y,-z
6 x,-y,1/2-z
7 y,x,3/4-z
8 -y,-x,1/4-z
_cell_length_a                   8.0340(7)
_cell_length_b                   8.0340(7)
_cell_length_c                   27.976(3)
_cell_angle_alpha                90
_cell_angle_beta                 90
_cell_angle_gamma                90
_cell_volume                     1805.72
loop_
_atom_site_label
_atom_site_type_symbol
_atom_site_fract_x
_atom_site_fract_y
_atom_site_fract_z
Zn1 Zn 1.0000 0.01142(10) 0.0000
C1 C 0.2886(8) 0.9105(9) 0.0477(2)
C2 C 0.4086(8) 0.7705(7) 0.05823(19)
C3 C 0.5737(8) 0.8051(7) 0.0640(2)
H1 H 0.6082 0.9155 0.0647
C4 C 0.6908(7) 0.6806(8) 0.0687(2)
H2 H 0.8031 0.7055 0.0724
C5 C 0.6365(7) 0.5190(7) 0.06788(18)
C6 C 0.4712(7) 0.4777(7) 0.0637(2)
H3 H 0.4369 0.3671 0.0646
C7 C 0.3577(7) 0.6052(7) 0.05819(19)
H4 H 0.2455 0.5801 0.0544
C8 C 0.9007(8) 0.3876(8) 0.0971(2)
H5 H 0.9311 0.4628 0.1208
C9 C 0.9833(8) 0.2526(7) 0.0824(2)
H6 H 1.0854 0.2181 0.0945
C10 C 0.7647(8) 0.2568(7) 0.0399(2)
H7 H 0.6832 0.2296 0.0176
N1 N 0.7601(6) 0.3893(6) 0.06887(16)
N2 N 0.8979(6) 0.1727(6) 0.04742(17)
O1 O 0.3319(6) 1.0548(5) 0.05381(17)
O2 O 0.1463(5) 0.8613(5) 0.03268(16)
Zn1_2 Zn 0.0000 1.01142(10) 0.0000
Zn1_3 Zn 2.0000 -0.98858(10) 0.0000
C1_2 C 1.2886(8) -0.0895(9) 0.0477(2)
C2_2 C 1.4086(8) -0.2295(7) 0.05823(19)
C3_2 C 1.5737(8) -0.1949(7) 0.0640(2)
H1_2 H 1.6082 -0.0845 0.0647
C4_2 C 1.6908(7) -0.3194(8) 0.0687(2)
H2_2 H 1.8031 -0.2945 0.0724
C5_2 C 1.6365(7) -0.4810(7) 0.06788(18)
C6_2 C 1.4712(7) -0.5223(7) 0.0637(2)
H3_2 H 1.4369 -0.6329 0.0646
C7_2 C 1.3577(7) -0.3948(7) 0.05819(19)
H4_2 H 1.2455 -0.4199 0.0544
C8_2 C 1.9007(8) -0.6124(8) 0.0971(2)
H5_2 H 1.9311 -0.5372 0.1208
C9_2 C 1.9833(8) -0.7474(7) 0.0824(2)
H6_2 H 2.0854 -0.7819 0.0945
C10_2 C 1.7647(8) -0.7432(7) 0.0399(2)
H7_2 H 1.6832 -0.7704 0.0176
N1_2 N 1.7601(6) -0.6107(6) 0.06887(16)
N2_2 N 1.8979(6) -0.8273(6) 0.04742(17)
N2D N 1.1021(6) 0.1727(6) -0.04742(17)
O1_2 O 1.3319(6) 0.0548(5) 0.05381(17)
O2_2 O 1.1463(5) -0.1387(5) 0.03268(16)
O2D O 0.8537(5) -0.1387(5) -0.03268(16)
loop_
_geom_bond_atom_site_label_1
_geom_bond_atom_site_label_2
_geom_bond_site_symmetry_1
_geom_bond_site_symmetry_2
Zn1 N2 1_555 1_555
C1 C2 1_555 1_555
C2 C3 1_555 1_555
C3 H1 1_555 1_555
C4 C3 1_555 1_555
H2 C4 1_555 1_555
C5 C4 1_555 1_555
C6 C5 1_555 1_555
H3 C6 1_555 1_555
C7 C2 1_555 1_555
H4 C7 1_555 1_555
C8 H5 1_555 1_555
C9 C8 1_555 1_555
H6 C9 1_555 1_555
C10 H7 1_555 1_555
N1 C5 1_555 1_555
N2 C9 1_555 1_555
O1 C1 1_555 1_555
O2 C1 1_555 1_555
Zn1_2 O2 1_555 1_555
Zn1_3 N2_2 1_555 1_555
C1_2 C2_2 1_555 1_555
C2_2 C3_2 1_555 1_555
C3_2 H1_2 1_555 1_555
C4_2 C3_2 1_555 1_555
H2_2 C4_2 1_555 1_555
C5_2 C4_2 1_555 1_555
C6_2 C5_2 1_555 1_555
H3_2 C6_2 1_555 1_555
C7_2 C2_2 1_555 1_555
H4_2 C7_2 1_555 1_555
C8_2 H5_2 1_555 1_555
C9_2 C8_2 1_555 1_555
H6_2 C9_2 1_555 1_555
C10_2 H7_2 1_555 1_555
N1_2 C5_2 1_555 1_555
N2_2 C9_2 1_555 1_555
N2D Zn1 1_555 1_555
O1_2 C1_2 1_555 1_555
O2_2 Zn1 1_555 1_555
O2D Zn1 1_555 1_555
C6 C7 1_555 1_555
C8 N1 1_555 1_555
C10 N1 1_555 1_555
C10 N2 1_555 1_555
C1_2 O2_2 1_555 1_555
C6_2 C7_2 1_555 1_555
C8_2 N1_2 1_555 1_555
C10_2 N1_2 1_555 1_555
C10_2 N2_2 1_555 1_555

#END
