
#######################################################################
#
#                 Cambridge Crystallographic Data Centre
#                                CCDC 
#
#######################################################################
#
# If this CIF has been generated from an entry in the Cambridge 
# Structural Database, then it will include bibliographic, chemical, 
# crystal, experimental, refinement or atomic coordinate data resulting 
# from the CCDC's data processing and validation procedures.
#
#######################################################################

data_VURQIJ
_symmetry_cell_setting           orthorhombic
_symmetry_space_group_name_H-M   'P b c n'
_symmetry_Int_Tables_number      60
_space_group_name_Hall           '-P 2n 2ab'
loop_
_symmetry_equiv_pos_site_id
_symmetry_equiv_pos_as_xyz
1 x,y,z
2 1/2-x,1/2-y,1/2+z
3 -x,y,1/2-z
4 1/2+x,1/2-y,-z
5 -x,-y,-z
6 1/2+x,1/2+y,1/2-z
7 x,-y,1/2+z
8 1/2-x,1/2+y,z
_cell_length_a                   15.919(2)
_cell_length_b                   17.295(2)
_cell_length_c                   17.987(3)
_cell_angle_alpha                90
_cell_angle_beta                 90
_cell_angle_gamma                90
_cell_volume                     4952.16
loop_
_atom_site_label
_atom_site_type_symbol
_atom_site_fract_x
_atom_site_fract_y
_atom_site_fract_z
Cd1 Cd 0.82050(2) 0.48460(2) 0.53919(2)
O1 O 0.7872(3) 0.3530(2) 0.5135(2)
O2 O 0.8544(3) 0.4125(2) 0.4235(2)
O3 O 0.8318(3) 0.6249(2) 0.5857(2)
O4 O 0.9080(3) 0.5817(2) 0.4927(2)
O5 O 0.9490(3) 0.4455(3) 0.5922(2)
H1 H 0.934(4) 0.3997(14) 0.602(3)
H2 H 0.994(2) 0.446(4) 0.566(3)
N1 N 0.7499(3) 0.0953(2) 0.2625(2)
N2 N 0.7244(3) 0.0302(2) 0.1589(3)
N3 N 1.0804(3) 0.9115(2) 0.5344(3)
N4 N 1.1918(3) 0.9842(3) 0.5102(3)
C1 C 0.8167(4) 0.3543(3) 0.4485(3)
C2 C 0.8012(3) 0.2855(3) 0.3995(3)
C3 C 0.7377(4) 0.2353(4) 0.4150(3)
H3 H 0.7049 0.2437 0.4570
C4 C 0.7205(4) 0.1727(4) 0.3707(3)
H4 H 0.6761 0.1399 0.3822
C5 C 0.7685(4) 0.1590(3) 0.3103(3)
C6 C 0.8344(5) 0.2072(4) 0.2932(3)
H5 H 0.8684 0.1970 0.2524
C7 C 0.8493(4) 0.2708(4) 0.3372(4)
H6 H 0.8926 0.3045 0.3248
C8 C 0.7161(5) 0.0249(3) 0.2833(3)
H7 H 0.7055 0.0076 0.3314
C9 C 0.7019(5) -0.0132(4) 0.2197(4)
H8 H 0.6795 -0.0628 0.2170
C10 C 0.7532(4) 0.0946(3) 0.1882(3)
H9 H 0.7738 0.1355 0.1600
C11 C 0.8891(4) 0.6339(3) 0.5383(4)
C12 C 0.9369(3) 0.7089(3) 0.5368(3)
C13 C 0.9352(4) 0.7583(3) 0.5955(3)
H10 H 0.9026 0.7462 0.6367
C14 C 0.9808(4) 0.8262(3) 0.5952(4)
H11 H 0.9798 0.8587 0.6364
C15 C 1.0278(4) 0.8456(3) 0.5336(3)
C16 C 1.0259(4) 0.7990(3) 0.4734(3)
H12 H 1.0542 0.8136 0.4304
C17 C 0.9820(4) 0.7294(3) 0.4746(3)
H13 H 0.9832 0.6968 0.4335
C18 C 1.0700(4) 0.9804(4) 0.5706(4)
H14 H 1.0244 0.9946 0.6000
C19 C 1.1381(4) 1.0237(4) 0.5557(4)
H15 H 1.1473 1.0734 0.5737
C20 C 1.1539(4) 0.9182(3) 0.4980(4)
H16 H 1.1757 0.8798 0.4674
Cd1A Cd 0.67950(2) 0.01540(2) 0.03919(2)
Cd1C Cd 1.32050(2) 1.01540(2) 0.46081(2)
N2A N 0.7756(3) 0.4698(2) 0.6589(3)
N4C N 0.6918(3) 0.5158(3) 0.4898(3)
O6 O 0.4383(5) 0.1808(4) 0.3040(4)
H17 H 0.4442 0.1320 0.3025
H18 H 0.3922 0.1919 0.3254
O7 O 0.7896(4) 0.2345(3) 0.6203(3)
H19 H 0.793(5) 0.273(3) 0.591(3)
H20 H 0.752(4) 0.199(3) 0.620(4)
O8 O 0.4918(3) 0.0696(3) 0.6745(3)
H21 H 0.5257 0.1023 0.6559
H22 H 0.4941 0.0277 0.6498
O9 O 0.8884(17) 1.157(3) 0.7495(15)
O10? O 0.9423(18) 1.015(3) 0.7316(13)
loop_
_geom_bond_atom_site_label_1
_geom_bond_atom_site_label_2
_geom_bond_site_symmetry_1
_geom_bond_site_symmetry_2
Cd1 O1 1_555 1_555
O1 C1 1_555 1_555
O2 Cd1 1_555 1_555
O3 Cd1 1_555 1_555
O4 Cd1 1_555 1_555
O5 Cd1 1_555 1_555
H1 O5 1_555 1_555
H2 O5 1_555 1_555
N1 C5 1_555 1_555
N2 C9 1_555 1_555
N3 C15 1_555 1_555
N4 C19 1_555 1_555
C1 O2 1_555 1_555
C2 C1 1_555 1_555
C3 C2 1_555 1_555
H3 C3 1_555 1_555
C4 C3 1_555 1_555
H4 C4 1_555 1_555
C5 C4 1_555 1_555
C6 C5 1_555 1_555
H5 C6 1_555 1_555
C7 C2 1_555 1_555
H6 C7 1_555 1_555
C8 N1 1_555 1_555
H7 C8 1_555 1_555
C9 C8 1_555 1_555
H8 C9 1_555 1_555
C10 N1 1_555 1_555
H9 C10 1_555 1_555
C11 O3 1_555 1_555
C12 C11 1_555 1_555
C13 C12 1_555 1_555
H10 C13 1_555 1_555
C14 C13 1_555 1_555
H11 C14 1_555 1_555
C15 C14 1_555 1_555
C16 C15 1_555 1_555
H12 C16 1_555 1_555
C17 C12 1_555 1_555
H13 C17 1_555 1_555
C18 N3 1_555 1_555
H14 C18 1_555 1_555
C19 C18 1_555 1_555
H15 C19 1_555 1_555
C20 N3 1_555 1_555
H16 C20 1_555 1_555
O6 H17 1_555 1_555
H18 O6 1_555 1_555
O7 H19 1_555 1_555
H20 O7 1_555 1_555
O8 H21 1_555 1_555
H22 O8 1_555 1_555
Cd1A N2 1_555 1_555
Cd1C N4 1_555 1_555
N2A Cd1 1_555 1_555
N4C Cd1 1_555 1_555
O4 C11 1_555 1_555
N2 C10 1_555 1_555
N4 C20 1_555 1_555
C6 C7 1_555 1_555
C16 C17 1_555 1_555

#END
