
#######################################################################
#
#                 Cambridge Crystallographic Data Centre
#                                CCDC 
#
#######################################################################
#
# If this CIF has been generated from an entry in the Cambridge 
# Structural Database, then it will include bibliographic, chemical, 
# crystal, experimental, refinement or atomic coordinate data resulting 
# from the CCDC's data processing and validation procedures.
#
#######################################################################

data_VUSCER
_symmetry_cell_setting           monoclinic
_symmetry_space_group_name_H-M   'P 21/n'
_symmetry_Int_Tables_number      14
_space_group_name_Hall           '-P 2yn'
loop_
_symmetry_equiv_pos_site_id
_symmetry_equiv_pos_as_xyz
1 x,y,z
2 1/2-x,1/2+y,1/2-z
3 -x,-y,-z
4 1/2+x,1/2-y,1/2+z
_cell_length_a                   5.259(2)
_cell_length_b                   15.511(9)
_cell_length_c                   13.227(5)
_cell_angle_alpha                90
_cell_angle_beta                 100.88(3)
_cell_angle_gamma                90
_cell_volume                     1059.56
loop_
_atom_site_label
_atom_site_type_symbol
_atom_site_fract_x
_atom_site_fract_y
_atom_site_fract_z
Hg1 Hg 0.2027(1) 0.2486(1) 0.0892(1)
Ag1 Ag 0.7677(3) 0.1717(1) 0.2577(1)
N1 N 0.4214(26) 0.3490(9) 0.1418(10)
C1 C 0.6704(31) 0.3625(11) 0.1787(11)
O1 O 0.8412(26) 0.3131(8) 0.2053(9)
C2 C 0.6531(38) 0.4615(12) 0.1710(14)
C3 C 0.3636(37) 0.4452(10) 0.1317(14)
N2 N -0.0150(30) 0.1517(10) 0.0164(10)
C4 C -0.2418(36) 0.1164(11) 0.0243(13)
O2 O -0.3653(26) 0.1146(9) 0.0944(9)
C5 C -0.2771(39) 0.0728(14) -0.0804(12)
C6 C -0.0129(41) 0.1167(13) -0.0890(13)
N3 N 1.3288(33) 0.1528(11) 0.3730(13)
O3 O 1.2438(30) 0.1461(9) 0.2785(9)
O4 O 1.5655(29) 0.1549(10) 0.4011(10)
O5 O 1.1759(32) 0.1558(11) 0.4300(13)
H1 H 0.7417 0.4861 0.1208
H2 H 0.6930 0.4912 0.2357
H3 H 0.2544 0.4661 0.1770
H4 H 0.3015 0.4639 0.0622
H5 H -0.4237 0.0925 -0.1295
H6 H -0.2701 0.0110 -0.0772
H7 H 0.1266 0.0774 -0.0917
H8 H -0.0267 0.1598 -0.1419
O2_2 O 0.6347(26) 0.1146(9) 0.0944(9)
O4_2 O 0.5655(29) 0.1549(10) 0.4011(10)
Ag1_2 Ag -0.2323(3) 0.1717(1) 0.2577(1)
Ag1_3 Ag 1.7677(3) 0.1717(1) 0.2577(1)
loop_
_geom_bond_atom_site_label_1
_geom_bond_atom_site_label_2
_geom_bond_site_symmetry_1
_geom_bond_site_symmetry_2
Hg1 N1 1_555 1_555
Ag1 O1 1_555 1_555
N1 C1 1_555 1_555
C1 O1 1_555 1_555
C2 C1 1_555 1_555
C3 N1 1_555 1_555
N2 Hg1 1_555 1_555
C4 N2 1_555 1_555
O2 C4 1_555 1_555
C5 C4 1_555 1_555
C6 N2 1_555 1_555
N3 O3 1_555 1_555
O3 Ag1 1_555 1_555
O4 N3 1_555 1_555
O5 N3 1_555 1_555
H1 C2 1_555 1_555
H2 C2 1_555 1_555
H3 C3 1_555 1_555
H4 C3 1_555 1_555
H5 C5 1_555 1_555
H6 C5 1_555 1_555
H7 C6 1_555 1_555
H8 C6 1_555 1_555
O2_2 Ag1 1_555 1_555
O4_2 Ag1 1_555 1_555
Ag1_2 O2 1_555 1_555
Ag1_3 O4 1_555 1_555
C2 C3 1_555 1_555
C5 C6 1_555 1_555

#END
