
#######################################################################
#
#                 Cambridge Crystallographic Data Centre
#                                CCDC 
#
#######################################################################
#
# If this CIF has been generated from an entry in the Cambridge 
# Structural Database, then it will include bibliographic, chemical, 
# crystal, experimental, refinement or atomic coordinate data resulting 
# from the CCDC's data processing and validation procedures.
#
#######################################################################

data_VUSCAN
_symmetry_cell_setting           monoclinic
_symmetry_space_group_name_H-M   'P 21/c'
_symmetry_Int_Tables_number      14
_space_group_name_Hall           '-P 2ybc'
loop_
_symmetry_equiv_pos_site_id
_symmetry_equiv_pos_as_xyz
1 x,y,z
2 -x,1/2+y,1/2-z
3 -x,-y,-z
4 x,1/2-y,1/2+z
_cell_length_a                   9.333(3)
_cell_length_b                   14.817(3)
_cell_length_c                   16.374(3)
_cell_angle_alpha                90
_cell_angle_beta                 95.58(2)
_cell_angle_gamma                90
_cell_volume                     2253.58
loop_
_atom_site_label
_atom_site_type_symbol
_atom_site_fract_x
_atom_site_fract_y
_atom_site_fract_z
Hg1 Hg 0.0236(1) 0.0887(1) 0.1781(1)
Hg2 Hg -0.0466(1) 0.1271(1) 0.6770(1)
Ag1 Ag -0.1667(1) 0.0928(1) 0.3378(1)
Ag2 Ag 0.1256(1) 0.0991(1) 0.5201(1)
N1 N -0.1644(10) 0.0855(8) 0.1092(6)
C1 C -0.2886(14) 0.0807(9) 0.1398(9)
O1 O -0.3128(9) 0.0744(7) 0.2128(5)
O2 O -0.4010(9) 0.0869(7) 0.0815(6)
C2 C -0.3468(15) 0.0910(11) 0.0030(9)
C3 C -0.1882(13) 0.1025(11) 0.0204(7)
N2 N 0.2056(10) 0.0872(7) 0.2548(6)
C4 C 0.2025(12) 0.0817(8) 0.3347(7)
O3 O 0.0966(8) 0.0779(6) 0.3738(5)
O4 O 0.3360(8) 0.0843(7) 0.3742(5)
C5 C 0.4397(12) 0.0878(10) 0.3151(7)
C6 C 0.3541(13) 0.0897(12) 0.2324(8)
N3 N -0.2297(10) 0.1322(8) 0.6008(6)
C7 C -0.2324(13) 0.1063(8) 0.5231(8)
O5 O -0.1338(8) 0.0786(6) 0.4848(5)
O6 O -0.3664(9) 0.1080(6) 0.4847(5)
C8 C -0.4661(16) 0.1336(13) 0.5439(9)
C9 C -0.3702(12) 0.1574(10) 0.6208(8)
N4 N 0.1427(10) 0.1202(7) 0.7467(6)
C10 C 0.2630(13) 0.1058(8) 0.7103(8)
O7 O 0.2786(9) 0.0741(7) 0.6437(5)
O8 O 0.3827(9) 0.1266(7) 0.7603(5)
C11 C 0.3365(15) 0.1516(10) 0.8397(8)
C12 C 0.1767(14) 0.1610(9) 0.8272(8)
N5 N 0.1723(12) 0.3018(8) 0.5441(6)
O9 O 0.1821(12) 0.3843(7) 0.5449(6)
O10 O 0.2318(12) 0.2551(7) 0.4955(6)
O11 O 0.0997(12) 0.2636(7) 0.5939(7)
N6 N -0.2000(13) 0.2929(9) 0.3207(7)
O12 O -0.1300(10) 0.2471(6) 0.2744(6)
O13 O -0.2707(13) 0.2536(7) 0.3685(7)
O14 O -0.1986(13) 0.3762(8) 0.3151(6)
H1 H -0.3683 0.0362 -0.0270
H2 H -0.3879 0.1413 -0.0280
H3 H -0.1593 0.1626 0.0074
H4 H -0.1369 0.0597 -0.0098
H5 H 0.4976 0.1412 0.3229
H6 H 0.5006 0.0355 0.3199
H7 H 0.3748 0.0381 0.2001
H8 H 0.3722 0.1439 0.2029
H9 H -0.5229 0.1847 0.5246
H10 H -0.5285 0.0842 0.5541
H11 H -0.3969 0.1238 0.6671
H12 H -0.3746 0.2209 0.6323
H13 H 0.3630 0.1056 0.8796
H14 H 0.3797 0.2079 0.8580
H15 H 0.1481 0.2232 0.8272
H16 H 0.1311 0.1289 0.8686
O12C O -0.1300(10) 0.2529(6) 0.7744(6)
O5B O 0.1338(8) -0.0786(6) 0.5152(5)
O7B O -0.2786(9) -0.0741(7) 0.3563(5)
O11C O 0.0997(12) 0.2364(7) 0.0939(7)
Ag2B Ag -0.1256(1) -0.0991(1) 0.4799(1)
O14C O -0.1986(13) 0.1238(8) 0.8151(6)
Hg2C Hg -0.0466(1) 0.3729(1) 0.1770(1)
Ag1B Ag 0.1667(1) -0.0928(1) 0.6622(1)
Hg1C Hg 0.0236(1) 0.4113(1) 0.6781(1)
O9C O 0.1821(12) 0.1157(7) 0.0449(6)
loop_
_geom_bond_atom_site_label_1
_geom_bond_atom_site_label_2
_geom_bond_site_symmetry_1
_geom_bond_site_symmetry_2
Hg1 N1 1_555 1_555
Hg2 N3 1_555 1_555
Ag1 O1 1_555 1_555
Ag2 O3 1_555 1_555
N1 C1 1_555 1_555
C1 O1 1_555 1_555
O2 C1 1_555 1_555
C2 O2 1_555 1_555
C3 N1 1_555 1_555
N2 Hg1 1_555 1_555
C4 N2 1_555 1_555
O3 Ag1 1_555 1_555
O4 C4 1_555 1_555
C5 O4 1_555 1_555
C6 N2 1_555 1_555
N3 C7 1_555 1_555
C7 O5 1_555 1_555
O5 Ag1 1_555 1_555
O6 C7 1_555 1_555
C8 O6 1_555 1_555
C9 N3 1_555 1_555
N4 Hg2 1_555 1_555
C10 N4 1_555 1_555
O7 Ag2 1_555 1_555
O8 C10 1_555 1_555
C11 O8 1_555 1_555
C12 N4 1_555 1_555
N5 O9 1_555 1_555
O9 Hg1C 1_555 1_555
O10 Ag2 1_555 1_555
O11 Ag2 1_555 1_555
N6 O12 1_555 1_555
O12 Ag1 1_555 1_555
O13 Ag1 1_555 1_555
O14 N6 1_555 1_555
H1 C2 1_555 1_555
H2 C2 1_555 1_555
H3 C3 1_555 1_555
H4 C3 1_555 1_555
H5 C5 1_555 1_555
H6 C5 1_555 1_555
H7 C6 1_555 1_555
H8 C6 1_555 1_555
H9 C8 1_555 1_555
H10 C8 1_555 1_555
H11 C9 1_555 1_555
H12 C9 1_555 1_555
H13 C11 1_555 1_555
H14 C11 1_555 1_555
H15 C12 1_555 1_555
H16 C12 1_555 1_555
O12C Hg2 1_555 1_555
O5B Ag2 1_555 1_555
O7B Ag1 1_555 1_555
O11C Hg1 1_555 1_555
Ag2B O5 1_555 1_555
O14C Hg2 1_555 1_555
Hg2C O12 1_555 1_555
Ag1B O7 1_555 1_555
Hg1C O11 1_555 1_555
O9C Hg1 1_555 1_555
Ag2 O5 1_555 1_555
C2 C3 1_555 1_555
C4 O3 1_555 1_555
C5 C6 1_555 1_555
C8 C9 1_555 1_555
C10 O7 1_555 1_555
C11 C12 1_555 1_555
N5 O10 1_555 1_555
N5 O11 1_555 1_555
N6 O13 1_555 1_555
O14 Hg2C 1_555 1_555
O5B Ag1B 1_555 1_555
O5B Ag2B 1_555 1_555
O7B Ag2B 1_555 1_555

#END
