
#######################################################################
#
#                 Cambridge Crystallographic Data Centre
#                                CCDC 
#
#######################################################################
#
# If this CIF has been generated from an entry in the Cambridge 
# Structural Database, then it will include bibliographic, chemical, 
# crystal, experimental, refinement or atomic coordinate data resulting 
# from the CCDC's data processing and validation procedures.
#
#######################################################################

data_VUSDUJ
_symmetry_cell_setting           monoclinic
_symmetry_space_group_name_H-M   'P 21/c'
_symmetry_Int_Tables_number      14
_space_group_name_Hall           '-P 2ybc'
loop_
_symmetry_equiv_pos_site_id
_symmetry_equiv_pos_as_xyz
1 x,y,z
2 -x,1/2+y,1/2-z
3 -x,-y,-z
4 x,1/2-y,1/2+z
_cell_length_a                   13.549(5)
_cell_length_b                   5.503(2)
_cell_length_c                   9.512(4)
_cell_angle_alpha                90
_cell_angle_beta                 90.031(6)
_cell_angle_gamma                90
_cell_volume                     709.216
loop_
_atom_site_label
_atom_site_type_symbol
_atom_site_fract_x
_atom_site_fract_y
_atom_site_fract_z
Cu1 Cu 0.0000 0.0000 0.0000
Cu2 Cu -0.05203(5) 0.47546(11) -0.14197(6)
S1 S 0.21581(11) -0.0610(2) 0.18281(15)
O1 O 0.0448(3) 0.1404(5) -0.1802(4)
H1 H 0.1077(18) 0.179(9) -0.164(6)
O2 O 0.0498(3) -0.3247(5) -0.0454(4)
H2 H 0.112(2) -0.341(9) -0.074(6)
O3 O 0.1591(3) 0.0907(6) 0.0880(4)
O4 O 0.2227(3) 0.0343(7) 0.3244(4)
O5 O 0.1810(3) -0.3161(6) 0.1884(4)
C1 C 0.3368(4) -0.0769(8) 0.1159(6)
C2 C 0.3693(4) 0.0981(9) 0.0258(6)
H3 H 0.3256 0.2230 -0.0040
C3 C 0.4680(4) 0.0945(8) -0.0239(5)
C4 C 0.5059(3) 0.2720(6) -0.1181(4)
H4 H 0.4634 0.3971 -0.1510
C5 C 0.3995(3) -0.2671(6) 0.1619(4)
H5 H 0.3751 -0.3898 0.2230
Cu1_2 Cu 1.0000 0.0000 0.0000
Cu2B Cu 0.05203(5) -0.47546(11) 0.14197(6)
Cu2A Cu 0.05203(5) -0.02454(11) -0.35803(6)
Cu2_2 Cu -0.05203(5) -0.52454(11) -0.14197(6)
Cu2_3 Cu 0.94797(5) 0.47546(11) -0.14197(6)
Cu2C Cu -0.05203(5) 0.02454(11) 0.35803(6)
Cu2B_2 Cu 0.05203(5) 0.52454(11) 0.14197(6)
S1B S 0.78419(11) 0.0610(2) -0.18281(15)
O1B O -0.0448(3) -0.1404(5) 0.1802(4)
O1A O -0.0448(3) 0.6404(5) -0.3198(4)
O1C O 0.0448(3) -0.6404(5) 0.3198(4)
H1B H -0.1077(18) -0.179(9) 0.164(6)
H1A H -0.1077(18) 0.679(9) -0.336(6)
H1C H 0.1077(18) -0.679(9) 0.336(6)
O2B O -0.0498(3) 0.3247(5) 0.0454(4)
O2_2 O 0.0498(3) 0.6753(5) -0.0454(4)
O2B_2 O -0.0498(3) -0.6753(5) 0.0454(4)
H2B H -0.112(2) 0.341(9) 0.074(6)
H2_2 H 0.112(2) 0.659(9) -0.074(6)
H2B_2 H -0.112(2) -0.659(9) 0.074(6)
O3B O 0.8409(3) -0.0907(6) -0.0880(4)
O3B_2 O -0.1591(3) -0.0907(6) -0.0880(4)
O4B O 0.7773(3) -0.0343(7) -0.3244(4)
O5B O 0.8190(3) 0.3161(6) -0.1884(4)
O5B_2 O -0.1810(3) 0.3161(6) -0.1884(4)
C1B C 0.6632(4) 0.0769(8) -0.1159(6)
C2B C 0.6307(4) -0.0981(9) -0.0258(6)
H3B H 0.6744 -0.2230 0.0040
C3B C 0.5320(4) -0.0945(8) 0.0239(5)
C4B C 0.4941(3) -0.2720(6) 0.1181(4)
H4B H 0.5366 -0.3971 0.1510
C5B C 0.6005(3) 0.2671(6) -0.1619(4)
H5B H 0.6249 0.3898 -0.2230
loop_
_geom_bond_atom_site_label_1
_geom_bond_atom_site_label_2
_geom_bond_site_symmetry_1
_geom_bond_site_symmetry_2
Cu1 O1 1_555 1_555
Cu2 O1 1_555 1_555
S1 O3 1_555 1_555
O1 H1 1_555 1_555
O2 Cu1 1_555 1_555
H2 O2 1_555 1_555
O3 Cu1 1_555 1_555
O4 S1 1_555 1_555
O5 S1 1_555 1_555
C1 S1 1_555 1_555
C2 C1 1_555 1_555
H3 C2 1_555 1_555
C3 C2 1_555 1_555
C4 C3 1_555 1_555
H4 C4 1_555 1_555
C5 C1 1_555 1_555
H5 C5 1_555 1_555
Cu1_2 O3B 1_555 1_555
Cu2B O2 1_555 1_555
Cu2A O1 1_555 1_555
Cu2_2 O2 1_555 1_555
Cu2_3 O5B 1_555 1_555
Cu2C O1B 1_555 1_555
Cu2B_2 O2B 1_555 1_555
S1B O3B 1_555 1_555
O1B Cu1 1_555 1_555
O1A Cu2 1_555 1_555
O1C Cu2B 1_555 1_555
H1B O1B 1_555 1_555
H1A O1A 1_555 1_555
H1C O1C 1_555 1_555
O2B Cu1 1_555 1_555
O2_2 Cu2 1_555 1_555
O2B_2 Cu2B 1_555 1_555
H2B O2B 1_555 1_555
H2_2 O2_2 1_555 1_555
H2B_2 O2B_2 1_555 1_555
O3B_2 Cu1 1_555 1_555
O4B S1B 1_555 1_555
O5B S1B 1_555 1_555
O5B_2 Cu2 1_555 1_555
C1B S1B 1_555 1_555
C2B C1B 1_555 1_555
H3B C2B 1_555 1_555
C3B C3 1_555 1_555
C4B C5 1_555 1_555
H4B C4B 1_555 1_555
C5B C4 1_555 1_555
H5B C5B 1_555 1_555
Cu2 O2B 1_555 1_555
O5 Cu2B 1_555 1_555
Cu2B O1B 1_555 1_555
Cu2_2 O2B_2 1_555 1_555
Cu2B_2 O2_2 1_555 1_555
C1B C5B 1_555 1_555
C2B C3B 1_555 1_555
C3B C4B 1_555 1_555

#END
