
#######################################################################
#
#                 Cambridge Crystallographic Data Centre
#                                CCDC 
#
#######################################################################
#
# If this CIF has been generated from an entry in the Cambridge 
# Structural Database, then it will include bibliographic, chemical, 
# crystal, experimental, refinement or atomic coordinate data resulting 
# from the CCDC's data processing and validation procedures.
#
#######################################################################

data_VUSKIE
_symmetry_cell_setting           monoclinic
_symmetry_space_group_name_H-M   'C 2/m'
_symmetry_Int_Tables_number      12
_space_group_name_Hall           '-C 2y'
loop_
_symmetry_equiv_pos_site_id
_symmetry_equiv_pos_as_xyz
1 x,y,z
2 -x,y,-z
3 1/2+x,1/2+y,z
4 1/2-x,1/2+y,-z
5 -x,-y,-z
6 x,-y,z
7 1/2-x,1/2-y,-z
8 1/2+x,1/2-y,z
_cell_length_a                   31.3518(7)
_cell_length_b                   18.101
_cell_length_c                   18.101
_cell_angle_alpha                90
_cell_angle_beta                 125.26
_cell_angle_gamma                90
_cell_volume                     8387.75
loop_
_atom_site_label
_atom_site_type_symbol
_atom_site_fract_x
_atom_site_fract_y
_atom_site_fract_z
Zn1 Zn 0.20623(11) 0.5000 0.11874(17)
Zn2 Zn 0.29362(7) 0.41267(11) 0.29365(12)
Zn3 Zn 0.20653(11) 0.5000 0.29383(18)
O1 O 0.2511(5) 0.5000 0.2514(9)
O2 O 0.1356(7) 0.5000 0.0698(13)
O3 O 0.1356(7) 0.5000 0.1997(13)
O4 O 0.2178(5) 0.4187(7) 0.0718(9)
O5 O 0.2822(5) 0.3529(7) 0.1999(9)
O6 O 0.2169(5) 0.4181(8) 0.3638(9)
O7 O 0.2825(5) 0.3528(8) 0.3644(9)
O8 O 0.3645(5) 0.4347(8) 0.3658(9)
C1 C 0.1161(13) 0.5000 0.112(2)
C2 C 0.0493(12) 0.5000 0.051(2)
C3 C 0.0251(15) 0.5000 -0.044(3)
H1 H 0.0448 0.5000 -0.0692
C4 C 0.0239(14) 0.5000 0.093(2)
H2 H 0.0430 0.5000 0.1575
C5 C 0.2484(8) 0.3673(12) 0.1129(15)
C6 C 0.2518(8) 0.3001(12) 0.0539(15)
C7 C 0.2169(9) 0.3099(15) -0.0449(18)
H3 H 0.1964 0.3534 -0.0701
C8 C 0.2856(9) 0.2411(14) 0.0968(17)
H4 H 0.3092 0.2384 0.1608
C9 C 0.2503(9) 0.3672(12) 0.3838(14)
C10 C 0.2495(8) 0.3012(12) 0.4483(14)
C11 C 0.2852(10) 0.2402(15) 0.4738(17)
H5 H 0.3070 0.2374 0.4534
C12 C 0.2137(10) 0.3113(15) 0.4739(17)
H6 H 0.1908 0.3525 0.4541
C13 C 0.3848(11) 0.5000 0.384(2)
C14 C 0.4505(13) 0.5000 0.451(2)
C15 C 0.4754(6) 0.4293(11) 0.4737(14)
H7 H 0.4560 0.3847 0.4501
Zn1A Zn -0.20623(11) 0.5000 -0.11874(17)
Zn1C Zn 0.29377(11) 0.0000 -0.11874(17)
Zn1C_2 Zn 0.29377(11) 1.0000 -0.11874(17)
Zn2E Zn 0.29362(7) 0.58733(11) 0.29365(12)
Zn2F Zn 0.20638(7) 0.08733(11) -0.29365(12)
Zn2C Zn 0.20638(7) 0.91267(11) -0.29365(12)
Zn2F_2 Zn 0.20638(7) 0.08733(11) 0.70635(12)
Zn2A Zn 0.70638(7) 0.41267(11) 0.70635(12)
Zn2D Zn 0.70638(7) 0.58733(11) 0.70635(12)
Zn2C_2 Zn 0.20638(7) 0.91267(11) 0.70635(12)
Zn2A_2 Zn -0.29362(7) 0.41267(11) -0.29365(12)
Zn2D_2 Zn -0.29362(7) 0.58733(11) -0.29365(12)
Zn3A Zn -0.20653(11) 0.5000 -0.29383(18)
Zn3C Zn 0.29347(11) 0.0000 0.70617(18)
Zn3C_2 Zn 0.29347(11) 1.0000 0.70617(18)
O1A O -0.2511(5) 0.5000 -0.2514(9)
O1C O 0.2489(5) 0.0000 -0.2514(9)
O1C_2 O 0.2489(5) 1.0000 -0.2514(9)
O2A O -0.1356(7) 0.5000 -0.0698(13)
O3A O -0.1356(7) 0.5000 -0.1997(13)
O4F O 0.2822(5) 0.0813(7) -0.0718(9)
O4E O 0.2178(5) 0.5813(7) 0.0718(9)
O4C O 0.2822(5) 0.9187(7) -0.0718(9)
O4A O -0.2178(5) 0.4187(7) -0.0718(9)
O4D O -0.2178(5) 0.5813(7) -0.0718(9)
O5F O 0.2178(5) 0.1471(7) -0.1999(9)
O5E O 0.2822(5) 0.6471(7) 0.1999(9)
O5C O 0.2178(5) 0.8529(7) -0.1999(9)
O6F O 0.2831(5) 0.0819(8) 0.6362(9)
O6E O 0.2169(5) 0.5819(8) 0.3638(9)
O6C O 0.2831(5) 0.9181(8) 0.6362(9)
O6A O -0.2169(5) 0.4181(8) -0.3638(9)
O6D O -0.2169(5) 0.5819(8) -0.3638(9)
O7F O 0.2175(5) 0.1472(8) 0.6356(9)
O7E O 0.2825(5) 0.6472(8) 0.3644(9)
O7C O 0.2175(5) 0.8528(8) 0.6356(9)
O7F_2 O 0.2175(5) 0.1472(8) -0.3644(9)
O7C_2 O 0.2175(5) 0.8528(8) -0.3644(9)
O8E O 0.3645(5) 0.5653(8) 0.3658(9)
O8A O 0.6355(5) 0.4347(8) 0.6342(9)
O8D O 0.6355(5) 0.5653(8) 0.6342(9)
O8F O 0.1355(5) 0.0653(8) -0.3658(9)
O8C O 0.1355(5) 0.9347(8) -0.3658(9)
C1A C -0.1161(13) 0.5000 -0.112(2)
C2A C -0.0493(12) 0.5000 -0.051(2)
C3A C -0.0251(15) 0.5000 0.044(3)
H1A H -0.0448 0.5000 0.0692
C4A C -0.0239(14) 0.5000 -0.093(2)
H2A H -0.0430 0.5000 -0.1575
C5F C 0.2516(8) 0.1327(12) -0.1129(15)
C5E C 0.2484(8) 0.6327(12) 0.1129(15)
C5C C 0.2516(8) 0.8673(12) -0.1129(15)
C6F C 0.2482(8) 0.1999(12) -0.0539(15)
C6E C 0.2518(8) 0.6999(12) 0.0539(15)
C6C C 0.2482(8) 0.8001(12) -0.0539(15)
C7F C 0.2831(9) 0.1901(15) 0.0449(18)
C7E C 0.2169(9) 0.6901(15) -0.0449(18)
C7C C 0.2831(9) 0.8099(15) 0.0449(18)
H3F H 0.3036 0.1466 0.0701
H3E H 0.1964 0.6466 -0.0701
H3C H 0.3036 0.8534 0.0701
C8F C 0.2144(9) 0.2589(14) -0.0968(17)
C8E C 0.2856(9) 0.7589(14) 0.0968(17)
C8C C 0.2144(9) 0.7411(14) -0.0968(17)
H4F H 0.1908 0.2616 -0.1608
H4E H 0.3092 0.7616 0.1608
H4C H 0.1908 0.7384 -0.1608
C9F C 0.2497(9) 0.1328(12) 0.6162(14)
C9E C 0.2503(9) 0.6328(12) 0.3838(14)
C9C C 0.2497(9) 0.8672(12) 0.6162(14)
C10F C 0.2505(8) 0.1988(12) 0.5517(14)
C10E C 0.2495(8) 0.6988(12) 0.4483(14)
C10C C 0.2505(8) 0.8012(12) 0.5517(14)
C11F C 0.2148(10) 0.2598(15) 0.5262(17)
C11E C 0.2852(10) 0.7598(15) 0.4738(17)
C11C C 0.2148(10) 0.7402(15) 0.5262(17)
H5F H 0.1930 0.2626 0.5466
H5E H 0.3070 0.7626 0.4534
H5C H 0.1930 0.7374 0.5466
C12F C 0.2863(10) 0.1887(15) 0.5261(17)
C12E C 0.2137(10) 0.6887(15) 0.4739(17)
C12C C 0.2863(10) 0.8113(15) 0.5261(17)
H6F H 0.3092 0.1475 0.5459
H6E H 0.1908 0.6475 0.4541
H6C H 0.3092 0.8525 0.5459
C13A C 0.6152(11) 0.5000 0.616(2)
C14A C 0.5495(13) 0.5000 0.549(2)
C15A C 0.5246(6) 0.4293(11) 0.5263(14)
C15D C 0.5246(6) 0.5707(11) 0.5263(14)
C15E C 0.4754(6) 0.5707(11) 0.4737(14)
H7D H 0.5440 0.6153 0.5499
H7E H 0.4560 0.6153 0.4501
H7A H 0.5440 0.3847 0.5499
O9 O 0.130(3) 0.0000 0.402(6)
O10 O 0.363(5) 0.5000 0.128(8)
O11 O 0.135(3) 0.268(4) 0.125(5)
Br1? Br 0.0609 0.5000 -0.1045
C16? C 0.0534 0.5000 -0.0916
Br2? Br 0.0614 0.5000 0.2250
C17? C 0.0544 0.5000 0.1973
Br3? Br 0.1703 0.3924 -0.1067
C18? C 0.1801 0.3749 -0.0935
Br4? Br 0.3364 0.2322 0.2332
C19? C 0.3258 0.2344 0.2045
Br5? Br 0.3352 0.2289 0.4364
C20? C 0.3247 0.2315 0.4442
Br6? Br 0.1640 0.3971 0.4352
C21? C 0.1746 0.3790 0.4432
Br7? Br 0.4399 0.3354 0.4342
C22? C 0.4473 0.3557 0.4423
loop_
_geom_bond_atom_site_label_1
_geom_bond_atom_site_label_2
_geom_bond_site_symmetry_1
_geom_bond_site_symmetry_2
Zn1 O1 1_555 1_555
Zn2 O1 1_555 1_555
Zn3 O1 1_555 1_555
O1 Zn2E 1_555 1_555
O2 Zn1 1_555 1_555
O3 Zn3 1_555 1_555
O4 Zn1 1_555 1_555
O5 Zn2 1_555 1_555
O6 Zn3 1_555 1_555
O7 Zn2 1_555 1_555
O8 Zn2 1_555 1_555
C1 O2 1_555 1_555
C2 C1 1_555 1_555
C3 C2 1_555 1_555
H1 C3 1_555 1_555
C4 C2 1_555 1_555
H2 C4 1_555 1_555
C5 O4 1_555 1_555
C6 C5 1_555 1_555
C7 C6 1_555 1_555
H3 C7 1_555 1_555
C8 C6 1_555 1_555
H4 C8 1_555 1_555
C9 O6 1_555 1_555
C10 C9 1_555 1_555
C11 C10 1_555 1_555
H5 C11 1_555 1_555
C12 C10 1_555 1_555
H6 C12 1_555 1_555
C13 O8 1_555 1_555
C14 C13 1_555 1_555
C15 C14 1_555 1_555
H7 C15 1_555 1_555
Zn1A O1A 1_555 1_555
Zn1C O1C 1_555 1_555
Zn1C_2 O1C_2 1_555 1_555
Zn2E O5E 1_555 1_555
Zn2F O1C 1_555 1_555
Zn2C O1C_2 1_555 1_555
Zn2F_2 O7F 1_555 1_555
Zn2A O8A 1_555 1_555
Zn2D O8D 1_555 1_555
Zn2C_2 O7C 1_555 1_555
Zn2A_2 O1A 1_555 1_555
Zn2D_2 O1A 1_555 1_555
Zn3A O1A 1_555 1_555
Zn3C O6F 1_555 1_555
Zn3C_2 O6C 1_555 1_555
O2A Zn1A 1_555 1_555
O3A Zn3A 1_555 1_555
O4F Zn1C 1_555 1_555
O4E Zn1 1_555 1_555
O4C Zn1C_2 1_555 1_555
O4A Zn1A 1_555 1_555
O4D Zn1A 1_555 1_555
O5F Zn2F 1_555 1_555
O5E C5E 1_555 1_555
O5C Zn2C 1_555 1_555
O6F C9F 1_555 1_555
O6E Zn3 1_555 1_555
O6C C9C 1_555 1_555
O6A Zn3A 1_555 1_555
O6D Zn3A 1_555 1_555
O7F C9F 1_555 1_555
O7E Zn2E 1_555 1_555
O7C C9C 1_555 1_555
O7F_2 Zn2F 1_555 1_555
O7C_2 Zn2C 1_555 1_555
O8E C13 1_555 1_555
O8A C13A 1_555 1_555
O8D C13A 1_555 1_555
O8F Zn2F 1_555 1_555
O8C Zn2C 1_555 1_555
C1A O2A 1_555 1_555
C2A C1A 1_555 1_555
C3A C4 1_555 1_555
H1A C3A 1_555 1_555
C4A C3 1_555 1_555
H2A C4A 1_555 1_555
C5F O4F 1_555 1_555
C5E O4E 1_555 1_555
C5C O4C 1_555 1_555
C6F C5F 1_555 1_555
C6E C5E 1_555 1_555
C6C C5C 1_555 1_555
C7F C8 1_555 1_555
C7E C6E 1_555 1_555
C7C C6C 1_555 1_555
H3F C7F 1_555 1_555
H3E C7E 1_555 1_555
H3C C7C 1_555 1_555
C8F C7 1_555 1_555
C8E C6E 1_555 1_555
C8C C6C 1_555 1_555
H4F C8F 1_555 1_555
H4E C8E 1_555 1_555
H4C C8C 1_555 1_555
C9F C10F 1_555 1_555
C9E O6E 1_555 1_555
C9C C10C 1_555 1_555
C10F C11F 1_555 1_555
C10E C9E 1_555 1_555
C10C C11C 1_555 1_555
C11F C12 1_555 1_555
C11E C10E 1_555 1_555
C11C H5C 1_555 1_555
H5F C11F 1_555 1_555
H5E C11E 1_555 1_555
C12F C11 1_555 1_555
C12E C10E 1_555 1_555
C12C C10C 1_555 1_555
H6F C12F 1_555 1_555
H6E C12E 1_555 1_555
H6C C12C 1_555 1_555
C13A C14A 1_555 1_555
C14A C15A 1_555 1_555
C15A C15 1_555 1_555
C15D C14A 1_555 1_555
C15E C14 1_555 1_555
H7D C15D 1_555 1_555
H7E C15E 1_555 1_555
H7A C15A 1_555 1_555
O3 C1 1_555 1_555
O5 C5 1_555 1_555
O7 C9 1_555 1_555
Zn2E O8E 1_555 1_555
O3A C1A 1_555 1_555
O5F C5F 1_555 1_555
O5C C5C 1_555 1_555
O7E C9E 1_555 1_555
C2A C3A 1_555 1_555
C2A C4A 1_555 1_555
C6F C7F 1_555 1_555
C6F C8F 1_555 1_555
C7E C8C 1_555 1_555
C7C C8E 1_555 1_555
C10F C12F 1_555 1_555
C11E C12C 1_555 1_555
C11C C12E 1_555 1_555
C15D C15E 1_555 1_555

#END
