
#######################################################################
#
#                 Cambridge Crystallographic Data Centre
#                                CCDC 
#
#######################################################################
#
# If this CIF has been generated from an entry in the Cambridge 
# Structural Database, then it will include bibliographic, chemical, 
# crystal, experimental, refinement or atomic coordinate data resulting 
# from the CCDC's data processing and validation procedures.
#
#######################################################################

data_VUSNUT
_symmetry_cell_setting           monoclinic
_symmetry_space_group_name_H-M   'C 2/c'
_symmetry_Int_Tables_number      15
_space_group_name_Hall           '-C 2yn'
loop_
_symmetry_equiv_pos_site_id
_symmetry_equiv_pos_as_xyz
1 x,y,z
2 -x,y,1/2-z
3 1/2+x,1/2+y,z
4 1/2-x,1/2+y,1/2-z
5 -x,-y,-z
6 x,-y,1/2+z
7 1/2-x,1/2-y,-z
8 1/2+x,1/2-y,1/2+z
_cell_length_a                   22.129(5)
_cell_length_b                   3.6781(8)
_cell_length_c                   13.749(3)
_cell_angle_alpha                90
_cell_angle_beta                 90.036(4)
_cell_angle_gamma                90
_cell_volume                     1119.07
loop_
_atom_site_label
_atom_site_type_symbol
_atom_site_fract_x
_atom_site_fract_y
_atom_site_fract_z
Br1 Br 0.182242(11) 0.57313(6) 0.191776(17)
Cu1 Cu 0.0000 0.09041(13) 0.2500
N1 N 0.04563(10) 0.2738(7) 0.13799(15)
N2 N 0.06506(11) 0.1405(7) -0.16483(17)
C1 C 0.08036(12) 0.2674(7) 0.07645(19)
C2 C 0.12057(12) 0.2412(8) -0.00343(17)
C3 C 0.18462(12) 0.2497(7) 0.00134(17)
C4 C 0.21998(12) 0.3787(7) 0.08046(17)
C5 C 0.28147(12) 0.3803(7) 0.07850(18)
H1 H 0.3021 0.4712 0.1322
C6 C 0.09100(12) 0.1796(8) -0.09324(19)
Br1F Br 0.317758(11) -0.07313(6) -0.191776(17)
Cu1B Cu 0.5000 0.59041(13) 0.2500
Cu1D Cu 0.0000 -0.09041(13) -0.2500
Cu1F Cu 0.5000 0.40959(13) -0.2500
N1F N 0.45437(10) 0.2262(7) -0.13799(15)
N1A N -0.04563(10) 0.2738(7) 0.36201(15)
N2F N 0.43494(11) 0.3595(7) 0.16483(17)
N2D N -0.06506(11) -0.1405(7) 0.16483(17)
N2E N 0.06506(11) -0.1405(7) 0.33517(17)
C1F C 0.41964(12) 0.2326(7) -0.07645(19)
C2F C 0.37943(12) 0.2588(8) 0.00343(17)
C3F C 0.31538(12) 0.2503(7) -0.00134(17)
C4F C 0.28002(12) 0.1213(7) -0.08046(17)
C5F C 0.21853(12) 0.1197(7) -0.07850(18)
H1F H 0.1979 0.0288 -0.1322
C6F C 0.40900(12) 0.3204(8) 0.09324(19)
loop_
_geom_bond_atom_site_label_1
_geom_bond_atom_site_label_2
_geom_bond_site_symmetry_1
_geom_bond_site_symmetry_2
Br1 C4 1_555 1_555
Cu1 N1 1_555 1_555
N1 C1 1_555 1_555
N2 C6 1_555 1_555
C1 C2 1_555 1_555
C2 C3 1_555 1_555
C3 C4 1_555 1_555
C4 C5 1_555 1_555
C5 H1 1_555 1_555
C6 C2 1_555 1_555
Br1F C4F 1_555 1_555
Cu1B N2F 1_555 1_555
Cu1D N2 1_555 1_555
Cu1F N1F 1_555 1_555
N1F C1F 1_555 1_555
N1A Cu1 1_555 1_555
N2F C6F 1_555 1_555
N2D Cu1 1_555 1_555
N2E Cu1 1_555 1_555
C1F C2F 1_555 1_555
C2F C3F 1_555 1_555
C3F C5 1_555 1_555
C4F C3F 1_555 1_555
C5F C3 1_555 1_555
H1F C5F 1_555 1_555
C6F C2F 1_555 1_555
C4F C5F 1_555 1_555

#END
