
#######################################################################
#
#                 Cambridge Crystallographic Data Centre
#                                CCDC 
#
#######################################################################
#
# If this CIF has been generated from an entry in the Cambridge 
# Structural Database, then it will include bibliographic, chemical, 
# crystal, experimental, refinement or atomic coordinate data resulting 
# from the CCDC's data processing and validation procedures.
#
#######################################################################

data_VUTLEC
_symmetry_cell_setting           triclinic
_symmetry_space_group_name_H-M   'P -1'
_symmetry_Int_Tables_number      2
_space_group_name_Hall           '-P 1'
loop_
_symmetry_equiv_pos_site_id
_symmetry_equiv_pos_as_xyz
1 x,y,z
2 -x,-y,-z
_cell_length_a                   5.898(5)
_cell_length_b                   7.941(5)
_cell_length_c                   12.000(5)
_cell_angle_alpha                101.093(5)
_cell_angle_beta                 101.662(5)
_cell_angle_gamma                98.265(5)
_cell_volume                     530.302
loop_
_atom_site_label
_atom_site_type_symbol
_atom_site_fract_x
_atom_site_fract_y
_atom_site_fract_z
Mn1 Mn 0.49172(8) 0.14089(6) -0.08874(4)
V1 V 0.27298(8) 0.42784(6) 0.09713(4)
V2 V 0.22049(8) -0.30896(6) -0.19640(4)
N1 N 0.3404(5) 0.1591(4) -0.2648(2)
N2 N 0.3119(5) 0.2119(4) -0.4409(2)
O1 O 0.3321(4) -0.1197(3) -0.09289(18)
O2 O 0.7977(4) 0.0334(3) -0.1335(2)
O3 O 0.7167(4) 0.3928(3) -0.0459(2)
O4 O 0.2248(4) 0.2464(3) -0.00999(19)
O5 O 0.0603(4) 0.4136(3) 0.18106(19)
O6 O 0.4489(4) -0.4369(3) -0.18942(19)
O7 O 0.1785(4) -0.2637(3) -0.3225(2)
C1 C 0.4497(6) 0.1759(5) -0.3490(3)
H1 H 0.6056 0.1640 -0.3447
C2 C 0.1199(7) 0.1912(6) -0.3054(4)
H2 H 0.0015 0.1914 -0.2646
C3 C 0.0999(7) 0.2227(6) -0.4138(4)
H3 H -0.0322 0.2469 -0.4604
C4 C 0.3758(7) 0.2490(5) -0.5476(3)
H4 H 0.2560 0.1814 -0.6155
H5 H 0.5242 0.2128 -0.5531
C5 C 0.3989(6) 0.4410(5) -0.5481(3)
H6 H 0.2522 0.4775 -0.5393
H7 H 0.4229 0.4568 -0.6234
H8 H 0.8016 -0.0552 -0.1030
H9 H 0.9142 0.1133 -0.0936
Mn1A Mn 0.50828(8) 0.85911(6) -0.91126(4)
Mn1A_2 Mn 0.50828(8) -0.14089(6) 0.08874(4)
Mn1_2 Mn -0.50828(8) 0.14089(6) -0.08874(4)
Mn1A_3 Mn -0.49172(8) -0.14089(6) 0.08874(4)
V1A V 0.72702(8) 0.57216(6) -0.09713(4)
V1A_2 V -0.27298(8) -0.42784(6) -0.09713(4)
V1A_3 V 0.72702(8) -0.42784(6) -0.09713(4)
V1_2 V -0.72702(8) 0.42784(6) 0.09713(4)
V1_3 V -0.72702(8) -0.57216(6) 0.09713(4)
V2A V -0.22049(8) 0.30896(6) 0.19640(4)
N1A N 0.6596(5) 0.8409(4) -0.7352(2)
N1A_2 N -0.3404(5) -0.1591(4) 0.2648(2)
N2A N 0.6881(5) 0.7881(4) -0.5591(2)
O1A O 0.6679(4) 0.1197(3) 0.09289(18)
O1A_2 O -0.3321(4) 0.1197(3) 0.09289(18)
O1_2 O -0.6679(4) -0.1197(3) -0.09289(18)
O2A O -0.7977(4) -0.0334(3) 0.1335(2)
O3A O 0.2833(4) 0.6072(3) 0.0459(2)
O3_2 O -0.2833(4) -0.6072(3) -0.0459(2)
O3A_2 O -0.7167(4) -0.3928(3) 0.0459(2)
O4A O -0.2248(4) -0.2464(3) 0.00999(19)
O5A O -0.0603(4) -0.4136(3) -0.18106(19)
O6A O 0.5511(4) 0.4369(3) 0.18942(19)
O6A_2 O -0.4489(4) 0.4369(3) 0.18942(19)
O6_2 O -0.5511(4) -0.4369(3) -0.18942(19)
O7A O -0.1785(4) 0.2637(3) 0.3225(2)
C1A C 0.5503(6) 0.8241(5) -0.6510(3)
H1A H 0.3944 0.8360 -0.6553
C2A C 0.8801(7) 0.8088(6) -0.6946(4)
H2A H 0.9985 0.8086 -0.7354
C3A C 0.9001(7) 0.7773(6) -0.5862(4)
H3A H 1.0322 0.7531 -0.5396
C4A C 0.6242(7) 0.7510(5) -0.4524(3)
H4A H 0.7440 0.8186 -0.3845
H5A H 0.4758 0.7872 -0.4469
C5A C 0.6011(6) 0.5590(5) -0.4519(3)
H6A H 0.7478 0.5225 -0.4607
H7A H 0.5771 0.5432 -0.3766
H8A H -0.8016 0.0552 0.1030
H9A H -0.9142 -0.1133 0.0936
loop_
_geom_bond_atom_site_label_1
_geom_bond_atom_site_label_2
_geom_bond_site_symmetry_1
_geom_bond_site_symmetry_2
Mn1 N1 1_555 1_555
V1 O4 1_555 1_555
V2 O1 1_555 1_555
N1 C1 1_555 1_555
N2 C1 1_555 1_555
O1 Mn1 1_555 1_555
O2 Mn1 1_555 1_555
O3 Mn1 1_555 1_555
O4 Mn1 1_555 1_555
O5 V1 1_555 1_555
O6 V2 1_555 1_555
O7 V2 1_555 1_555
C1 H1 1_555 1_555
C2 N1 1_555 1_555
H2 C2 1_555 1_555
C3 N2 1_555 1_555
H3 C3 1_555 1_555
C4 N2 1_555 1_555
H4 C4 1_555 1_555
H5 C4 1_555 1_555
C5 C4 1_555 1_555
H6 C5 1_555 1_555
H7 C5 1_555 1_555
H8 O2 1_555 1_555
H9 O2 1_555 1_555
Mn1A N1A 1_555 1_555
Mn1A_2 O1 1_555 1_555
Mn1_2 O1A_2 1_555 1_555
Mn1A_3 N1A_2 1_555 1_555
V1A O3 1_555 1_555
V1A_2 O3_2 1_555 1_555
V1A_3 O6 1_555 1_555
V1_2 O6A_2 1_555 1_555
V1_3 O3A_2 1_555 1_555
V2A O5 1_555 1_555
N1A C1A 1_555 1_555
N2A C1A 1_555 1_555
O1A Mn1 1_555 1_555
O1A_2 Mn1A_3 1_555 1_555
O1_2 Mn1_2 1_555 1_555
O2A Mn1A_3 1_555 1_555
O3A V1 1_555 1_555
O3A_2 Mn1A_3 1_555 1_555
O4A Mn1A_3 1_555 1_555
O5A V2 1_555 1_555
O6A V1 1_555 1_555
O6A_2 V2A 1_555 1_555
O6_2 V1A_2 1_555 1_555
O7A V2A 1_555 1_555
C1A H1A 1_555 1_555
C2A N1A 1_555 1_555
H2A C2A 1_555 1_555
C3A N2A 1_555 1_555
H3A C3A 1_555 1_555
C4A N2A 1_555 1_555
H4A C4A 1_555 1_555
H5A C4A 1_555 1_555
C5A C5 1_555 1_555
H6A C5A 1_555 1_555
H7A C5A 1_555 1_555
H8A O2A 1_555 1_555
H9A O2A 1_555 1_555
C2 C3 1_555 1_555
Mn1A_2 O1A 1_555 1_555
Mn1A_3 O1_2 1_555 1_555
V1A_2 O4A 1_555 1_555
V1A_2 O5A 1_555 1_555
V2A O1A_2 1_555 1_555
C2A C3A 1_555 1_555
C4A C5A 1_555 1_555

#END
