
#######################################################################
#
#                 Cambridge Crystallographic Data Centre
#                                CCDC 
#
#######################################################################
#
# If this CIF has been generated from an entry in the Cambridge 
# Structural Database, then it will include bibliographic, chemical, 
# crystal, experimental, refinement or atomic coordinate data resulting 
# from the CCDC's data processing and validation procedures.
#
#######################################################################

data_VUTLIG
_symmetry_cell_setting           triclinic
_symmetry_space_group_name_H-M   'P -1'
_symmetry_Int_Tables_number      2
_space_group_name_Hall           '-P 1'
loop_
_symmetry_equiv_pos_site_id
_symmetry_equiv_pos_as_xyz
1 x,y,z
2 -x,-y,-z
_cell_length_a                   9.01810(10)
_cell_length_b                   10.5762(2)
_cell_length_c                   11.8915(2)
_cell_angle_alpha                87.6740(10)
_cell_angle_beta                 81.3840(10)
_cell_angle_gamma                85.2410(10)
_cell_volume                     1117.06
loop_
_atom_site_label
_atom_site_type_symbol
_atom_site_fract_x
_atom_site_fract_y
_atom_site_fract_z
Ni1 Ni 0.45970(2) 0.504049(19) 0.367053(17)
V1 V 0.08865(3) 0.63331(3) 0.35296(2)
V2 V 0.17564(3) 0.59812(3) 0.60025(2)
C1 C 0.65468(19) 0.73622(16) 0.34106(14)
H1 H 0.7285 0.6967 0.3802
C2 C 0.6678(2) 0.84580(17) 0.27806(15)
H2 H 0.7506 0.8942 0.2657
C3 C 0.26555(19) 0.28349(16) 0.37596(15)
H3 H 0.1835 0.3386 0.3634
C4 C 0.5253(2) 0.94416(17) 0.03681(15)
H4 H 0.4718 0.8711 0.0251
H5 H 0.6321 0.9222 0.0148
C5 C 0.44594(19) 0.77620(16) 0.27403(14)
H6 H 0.3493 0.7707 0.2571
C6 C 0.1317(2) 0.08450(17) 0.38433(16)
H7 H 0.1579 0.0172 0.3302
H8 H 0.0518 0.1404 0.3588
C7 C 0.4040(2) 0.10865(17) 0.40528(15)
H9 H 0.4358 0.0238 0.4167
C8 C 0.5587(2) 0.36548(19) 0.13584(16)
H10 H 0.5045 0.2956 0.1591
C9 C 0.6528(2) 0.54466(18) 0.13500(15)
H11 H 0.6772 0.6228 0.1570
C10 C 0.48804(19) 0.20986(16) 0.40336(15)
H12 H 0.5889 0.2056 0.4127
C11 C 0.6450(2) 0.3802(2) 0.03288(17)
H13 H 0.6609 0.3234 -0.0262
C12 C 0.07548(19) 0.02719(17) 0.50048(16)
H14 H 0.0647 0.0919 0.5573
H15 H 0.1481 -0.0396 0.5205
C13 C 0.4951(2) 0.97721(17) 0.16099(16)
H16 H 0.5528 1.0477 0.1727
H17 H 0.3893 1.0044 0.1810
C14 C 0.8112(2) 0.5503(2) -0.05633(16)
H18 H 0.8094 0.6409 -0.0457
H19 H 0.7808 0.5380 -0.1298
C15 C 0.9702(2) 0.4911(2) -0.05579(16)
H20 H 1.0363 0.5286 -0.1178
H21 H 0.9723 0.4010 -0.0690
N1 N 0.51506(16) 0.69201(13) 0.33844(12)
N2 N 0.53390(17) 0.87067(14) 0.23632(12)
N3 N 0.56366(16) 0.46979(14) 0.20033(12)
N4 N 0.70382(18) 0.49490(16) 0.03338(13)
N5 N 0.40030(16) 0.31973(13) 0.38542(12)
N6 N 0.26313(16) 0.15619(14) 0.38698(13)
O1 O 0.06470(16) 0.75408(13) 0.26602(12)
O3 O -0.05978(14) 0.52959(13) 0.36060(12)
O5 O 0.16926(15) 0.68812(13) 0.70761(11)
O6 O 0.09610(14) 0.69181(12) 0.49209(11)
O7 O 0.25405(13) 0.55582(12) 0.31381(10)
O8 O 0.35463(13) 0.54208(11) 0.55125(10)
Ni1A Ni 0.54030(2) 1.495951(19) -0.367053(17)
Ni1A_2 Ni 0.54030(2) 0.495951(19) 0.632947(17)
Ni1A_3 Ni -0.45970(2) -0.504049(19) 0.632947(17)
Ni1A_4 Ni 1.54030(2) 0.495951(19) -0.367053(17)
Ni1A_5 Ni -0.45970(2) 0.495951(19) 0.632947(17)
V1A V -0.08865(3) 0.36669(3) 0.64704(2)
V2A V 0.82436(3) 0.40188(3) 0.39975(2)
V2A_2 V -0.17564(3) 0.40188(3) 0.39975(2)
C1A C 0.34532(19) 1.26378(16) -0.34106(14)
H1A H 0.2715 1.3033 -0.3802
C2A C 0.3322(2) 1.15420(17) -0.27806(15)
H2A H 0.2494 1.1058 -0.2657
C3A C -0.26555(19) -0.28349(16) 0.62404(15)
H3A H -0.1835 -0.3386 0.6366
C4A C 0.4747(2) 1.05584(17) -0.03681(15)
H4A H 0.5282 1.1289 -0.0251
H5A H 0.3679 1.0778 -0.0148
C5A C 0.55406(19) 1.22380(16) -0.27403(14)
H6A H 0.6507 1.2293 -0.2571
C6A C -0.1317(2) -0.08450(17) 0.61567(16)
H7A H -0.1579 -0.0172 0.6698
H8A H -0.0518 -0.1404 0.6412
C7A C -0.4040(2) -0.10865(17) 0.59472(15)
H9A H -0.4358 -0.0238 0.5833
C8A C 1.4413(2) 0.63452(19) -0.13584(16)
H10A H 1.4955 0.7044 -0.1591
C9A C 1.3472(2) 0.45534(18) -0.13500(15)
H11A H 1.3228 0.3772 -0.1570
C10A C -0.48804(19) -0.20986(16) 0.59664(15)
H12A H -0.5889 -0.2056 0.5873
C11A C 1.3550(2) 0.6198(2) -0.03288(17)
H13A H 1.3391 0.6766 0.0262
C12A C -0.07548(19) -0.02719(17) 0.49952(16)
H14A H -0.0647 -0.0919 0.4427
H15A H -0.1481 0.0396 0.4795
C13A C 0.5049(2) 1.02279(17) -0.16099(16)
H16A H 0.4472 0.9523 -0.1727
H17A H 0.6107 0.9956 -0.1810
C14A C 1.1888(2) 0.4497(2) 0.05633(16)
H18A H 1.1906 0.3591 0.0457
H19A H 1.2192 0.4620 0.1298
C15A C 1.0298(2) 0.5089(2) 0.05579(16)
H20A H 0.9637 0.4714 0.1178
H21A H 1.0277 0.5990 0.0690
N1A N 0.48494(16) 1.30799(13) -0.33844(12)
N1A_2 N 0.48494(16) 0.30799(13) 0.66156(12)
N2A N 0.46610(17) 1.12933(14) -0.23632(12)
N3A N 1.43634(16) 0.53021(14) -0.20033(12)
N3A_2 N 0.43634(16) 0.53021(14) 0.79967(12)
N4A N 1.29618(18) 0.50510(16) -0.03338(13)
N5A N -0.40030(16) -0.31973(13) 0.61458(12)
N5A_2 N 0.59970(16) 0.68027(13) 0.61458(12)
N6A N -0.26313(16) -0.15619(14) 0.61302(13)
O1A O -0.06470(16) 0.24592(13) 0.73398(12)
O3A O 0.05978(14) 0.47041(13) 0.63940(12)
O5A O -0.16926(15) 0.31188(13) 0.29239(11)
O6A O -0.09610(14) 0.30819(12) 0.50791(11)
O7A O -0.25405(13) 0.44418(12) 0.68619(10)
O7A_2 O 0.74595(13) 0.44418(12) 0.68619(10)
O8A O 0.64537(13) 0.45792(11) 0.44875(10)
O8A_2 O -0.35463(13) 0.45792(11) 0.44875(10)
O2 O 0.8714(4) 0.1019(2) 0.1337(2)
H22 H 0.8505 0.1824 0.1776
H23 H 0.9857(19) 0.1585(16) 0.1021(14)
O4 O 0.1379(2) 0.93129(19) 0.09588(16)
H24 H 0.1090 0.8683 0.1512
H25 H 0.0456 0.9809 0.1103
loop_
_geom_bond_atom_site_label_1
_geom_bond_atom_site_label_2
_geom_bond_site_symmetry_1
_geom_bond_site_symmetry_2
Ni1 N1 1_555 1_555
V1 O1 1_555 1_555
V2 O5 1_555 1_555
C1 H1 1_555 1_555
C2 C1 1_555 1_555
H2 C2 1_555 1_555
C3 H3 1_555 1_555
C4 H4 1_555 1_555
H5 C4 1_555 1_555
C5 H6 1_555 1_555
C6 H7 1_555 1_555
H8 C6 1_555 1_555
C7 H9 1_555 1_555
C8 H10 1_555 1_555
C9 H11 1_555 1_555
C10 C7 1_555 1_555
H12 C10 1_555 1_555
C11 C8 1_555 1_555
H13 C11 1_555 1_555
C12 C6 1_555 1_555
H14 C12 1_555 1_555
H15 C12 1_555 1_555
C13 C4 1_555 1_555
H16 C13 1_555 1_555
H17 C13 1_555 1_555
C14 H18 1_555 1_555
H19 C14 1_555 1_555
C15 C14 1_555 1_555
H20 C15 1_555 1_555
H21 C15 1_555 1_555
N1 C1 1_555 1_555
N2 C2 1_555 1_555
N3 Ni1 1_555 1_555
N4 C9 1_555 1_555
N5 Ni1 1_555 1_555
N6 C3 1_555 1_555
O2 H22 1_555 1_555
H23 O2 1_555 1_555
O3 V1 1_555 1_555
O4 H24 1_555 1_555
H25 O4 1_555 1_555
O6 V1 1_555 1_555
O7 Ni1 1_555 1_555
O8 Ni1 1_555 1_555
Ni1A N1A 1_555 1_555
Ni1A_2 O8 1_555 1_555
Ni1A_3 N5A 1_555 1_555
Ni1A_4 N3A 1_555 1_555
Ni1A_5 O7A 1_555 1_555
V1A O1A 1_555 1_555
V2A O8A 1_555 1_555
V2A_2 O3 1_555 1_555
C1A H1A 1_555 1_555
C2A C1A 1_555 1_555
H2A C2A 1_555 1_555
C3A H3A 1_555 1_555
C4A C4 1_555 1_555
H4A C4A 1_555 1_555
H5A C4A 1_555 1_555
C5A H6A 1_555 1_555
C6A H7A 1_555 1_555
H8A C6A 1_555 1_555
C7A H9A 1_555 1_555
C8A H10A 1_555 1_555
C9A H11A 1_555 1_555
C10A C7A 1_555 1_555
H12A C10A 1_555 1_555
C11A C8A 1_555 1_555
H13A C11A 1_555 1_555
C12A C12 1_555 1_555
H14A C12A 1_555 1_555
H15A C12A 1_555 1_555
C13A C4A 1_555 1_555
H16A C13A 1_555 1_555
H17A C13A 1_555 1_555
C14A H18A 1_555 1_555
H19A C14A 1_555 1_555
C15A C15 1_555 1_555
H20A C15A 1_555 1_555
H21A C15A 1_555 1_555
N1A C1A 1_555 1_555
N1A_2 Ni1A_2 1_555 1_555
N2A C2A 1_555 1_555
N3A C8A 1_555 1_555
N3A_2 Ni1A_2 1_555 1_555
N4A C9A 1_555 1_555
N5A C3A 1_555 1_555
N5A_2 Ni1A_2 1_555 1_555
N6A C3A 1_555 1_555
O3A V2 1_555 1_555
O5A V2A_2 1_555 1_555
O6A V1A 1_555 1_555
O7A V1A 1_555 1_555
O7A_2 Ni1A_2 1_555 1_555
O8A Ni1 1_555 1_555
O8A_2 Ni1A_5 1_555 1_555
V1 O7 1_555 1_555
V2 O6 1_555 1_555
V2 O8 1_555 1_555
C3 N5 1_555 1_555
C5 N1 1_555 1_555
C5 N2 1_555 1_555
C6 N6 1_555 1_555
C7 N6 1_555 1_555
C8 N3 1_555 1_555
C9 N3 1_555 1_555
C10 N5 1_555 1_555
C11 N4 1_555 1_555
C13 N2 1_555 1_555
C14 N4 1_555 1_555
Ni1A_2 O8A 1_555 1_555
V1A O3A 1_555 1_555
V2A_2 O6A 1_555 1_555
V2A_2 O8A_2 1_555 1_555
C5A N1A 1_555 1_555
C5A N2A 1_555 1_555
C6A C12A 1_555 1_555
C6A N6A 1_555 1_555
C7A N6A 1_555 1_555
C9A N3A 1_555 1_555
C10A N5A 1_555 1_555
C11A N4A 1_555 1_555
C13A N2A 1_555 1_555
C14A C15A 1_555 1_555
C14A N4A 1_555 1_555

#END
