
#######################################################################
#
#                 Cambridge Crystallographic Data Centre
#                                CCDC 
#
#######################################################################
#
# If this CIF has been generated from an entry in the Cambridge 
# Structural Database, then it will include bibliographic, chemical, 
# crystal, experimental, refinement or atomic coordinate data resulting 
# from the CCDC's data processing and validation procedures.
#
#######################################################################

data_VUTLAY
_symmetry_cell_setting           triclinic
_symmetry_space_group_name_H-M   'P -1'
_symmetry_Int_Tables_number      2
_space_group_name_Hall           '-P 1'
loop_
_symmetry_equiv_pos_site_id
_symmetry_equiv_pos_as_xyz
1 x,y,z
2 -x,-y,-z
_cell_length_a                   5.8981(5)
_cell_length_b                   7.8249(7)
_cell_length_c                   11.9081(10)
_cell_angle_alpha                99.135(6)
_cell_angle_beta                 102.321(5)
_cell_angle_gamma                98.686(6)
_cell_volume                     520.285
loop_
_atom_site_label
_atom_site_type_symbol
_atom_site_fract_x
_atom_site_fract_y
_atom_site_fract_z
Co1 Co -0.00149(5) -0.35667(4) 0.41671(3)
V1 V -0.28189(7) -0.79990(5) 0.30575(3)
V2 V -0.22175(7) -0.07486(5) 0.59597(3)
N1 N -0.1495(4) -0.3344(3) 0.24821(19)
N2 N -0.1793(4) -0.2903(3) 0.06778(19)
O1 O -0.1638(3) -0.6120(2) 0.40930(15)
O2 O 0.2906(3) -0.4599(3) 0.36983(17)
O3 O 0.2074(3) -0.1081(2) 0.45798(16)
O4 O -0.2715(3) -0.2557(2) 0.49048(15)
O5 O -0.3294(3) -0.7471(3) 0.17940(16)
O6 O -0.0543(3) -0.9300(2) 0.30878(15)
O7 O -0.5624(3) -0.9094(2) 0.32172(16)
C1 C -0.3722(5) -0.3059(5) 0.2038(3)
H1 H -0.4913 -0.3053 0.2438
C2 C -0.3923(5) -0.2787(5) 0.0929(3)
H2 H -0.5251 -0.2566 0.0436
C3 C -0.0390(5) -0.3215(4) 0.1636(2)
H3 H 0.1176 -0.3329 0.1698
C4 C -0.1143(6) -0.2548(4) -0.0402(2)
H4 H -0.2318 -0.3262 -0.1076
H5 H 0.0366 -0.2885 -0.0422
C5 C -0.0972(6) -0.0609(4) -0.0480(3)
H6 H -0.0691 -0.0460 -0.1235
H7 H -0.2472 -0.0271 -0.0438
H8 H 0.416(7) -0.398(5) 0.405(3)
H9 H 0.299(6) -0.552(5) 0.400(3)
Co1A Co 0.00149(5) 0.35667(4) -0.41671(3)
Co1A_2 Co 0.00149(5) -0.64333(4) 0.58329(3)
Co1A_3 Co -0.99851(5) -0.64333(4) 0.58329(3)
Co1_2 Co -1.00149(5) -0.35667(4) 0.41671(3)
V1A V -0.71811(7) -0.20010(5) 0.69425(3)
V2A V 0.22175(7) 0.07486(5) 0.40403(3)
V2A_2 V 0.22175(7) -0.92514(5) 0.40403(3)
V2A_3 V -0.77825(7) -0.92514(5) 0.40403(3)
V2_2 V -1.22175(7) -0.07486(5) 0.59597(3)
V2_3 V -1.22175(7) -1.07486(5) 0.59597(3)
N1A N 0.1495(4) 0.3344(3) -0.24821(19)
N1A_2 N -0.8505(4) -0.6656(3) 0.75179(19)
N2A N 0.1793(4) 0.2903(3) -0.06778(19)
O1A O 0.1638(3) -0.3880(2) 0.59070(15)
O1A_2 O -0.8362(3) -0.3880(2) 0.59070(15)
O1_2 O -1.1638(3) -0.6120(2) 0.40930(15)
O2A O -1.2906(3) -0.5401(3) 0.63017(17)
O3A O -0.2074(3) 0.1081(2) 0.54202(16)
O3_2 O -0.7926(3) -1.1081(2) 0.45798(16)
O3A_2 O -1.2074(3) -0.8919(2) 0.54202(16)
O4A O -0.7285(3) -0.7443(2) 0.50952(15)
O5A O -0.6706(3) -0.2529(3) 0.82060(16)
O6A O 0.0543(3) -0.0700(2) 0.69122(15)
O6_2 O -1.0543(3) -0.9300(2) 0.30878(15)
O6A_2 O -0.9457(3) -0.0700(2) 0.69122(15)
O7A O -0.4376(3) -0.0906(2) 0.67828(16)
C1A C 0.3722(5) 0.3059(5) -0.2038(3)
H1A H 0.4913 0.3053 -0.2438
C2A C 0.3923(5) 0.2787(5) -0.0929(3)
H2A H 0.5251 0.2566 -0.0436
C3A C 0.0390(5) 0.3215(4) -0.1636(2)
H3A H -0.1176 0.3329 -0.1698
C4A C 0.1143(6) 0.2548(4) 0.0402(2)
H4A H 0.2318 0.3262 0.1076
H5A H -0.0366 0.2885 0.0422
C5A C 0.0972(6) 0.0609(4) 0.0480(3)
H6A H 0.0691 0.0460 0.1235
H7A H 0.2472 0.0271 0.0438
H8A H -1.416(7) -0.602(5) 0.595(3)
H9A H -1.299(6) -0.448(5) 0.600(3)
loop_
_geom_bond_atom_site_label_1
_geom_bond_atom_site_label_2
_geom_bond_site_symmetry_1
_geom_bond_site_symmetry_2
Co1 N1 1_555 1_555
V1 O1 1_555 1_555
V2 O4 1_555 1_555
N1 C1 1_555 1_555
N2 C2 1_555 1_555
O1 Co1 1_555 1_555
O2 Co1 1_555 1_555
O3 Co1 1_555 1_555
O4 Co1 1_555 1_555
O5 V1 1_555 1_555
O6 V1 1_555 1_555
O7 V1 1_555 1_555
C1 H1 1_555 1_555
C2 C1 1_555 1_555
H2 C2 1_555 1_555
C3 N1 1_555 1_555
H3 C3 1_555 1_555
C4 N2 1_555 1_555
H4 C4 1_555 1_555
H5 C4 1_555 1_555
C5 C4 1_555 1_555
H6 C5 1_555 1_555
H7 C5 1_555 1_555
H8 O2 1_555 1_555
H9 O2 1_555 1_555
Co1A N1A 1_555 1_555
Co1A_2 O1 1_555 1_555
Co1A_3 N1A_2 1_555 1_555
Co1_2 O1A_2 1_555 1_555
V1A O1A_2 1_555 1_555
V2A O3 1_555 1_555
V2A_2 O6 1_555 1_555
V2A_3 O7 1_555 1_555
V2_2 O6A_2 1_555 1_555
V2_3 O3A_2 1_555 1_555
N1A C1A 1_555 1_555
N2A C2A 1_555 1_555
O1A Co1 1_555 1_555
O1A_2 Co1A_3 1_555 1_555
O1_2 Co1A_3 1_555 1_555
O2A Co1A_3 1_555 1_555
O3A V2 1_555 1_555
O3_2 V2A_3 1_555 1_555
O3A_2 Co1A_3 1_555 1_555
O4A Co1A_3 1_555 1_555
O5A V1A 1_555 1_555
O6A V2 1_555 1_555
O6_2 V2A_3 1_555 1_555
O6A_2 V1A 1_555 1_555
O7A V2 1_555 1_555
C1A H1A 1_555 1_555
C2A C1A 1_555 1_555
H2A C2A 1_555 1_555
C3A N1A 1_555 1_555
H3A C3A 1_555 1_555
C4A N2A 1_555 1_555
H4A C4A 1_555 1_555
H5A C4A 1_555 1_555
C5A C5 1_555 1_555
H6A C5A 1_555 1_555
H7A C5A 1_555 1_555
H8A O2A 1_555 1_555
H9A O2A 1_555 1_555
N2 C3 1_555 1_555
Co1A_2 O1A 1_555 1_555
Co1_2 O1_2 1_555 1_555
V1A O7A 1_555 1_555
V2A_3 O4A 1_555 1_555
N2A C3A 1_555 1_555
C4A C5A 1_555 1_555

#END
