
#######################################################################
#
#                 Cambridge Crystallographic Data Centre
#                                CCDC 
#
#######################################################################
#
# If this CIF has been generated from an entry in the Cambridge 
# Structural Database, then it will include bibliographic, chemical, 
# crystal, experimental, refinement or atomic coordinate data resulting 
# from the CCDC's data processing and validation procedures.
#
#######################################################################

data_VUTSIM
_symmetry_cell_setting           orthorhombic
_symmetry_space_group_name_H-M   'P b c a'
_symmetry_Int_Tables_number      61
_space_group_name_Hall           '-P 2ac 2ab'
loop_
_symmetry_equiv_pos_site_id
_symmetry_equiv_pos_as_xyz
1 x,y,z
2 1/2-x,1/2+y,z
3 x,1/2-y,1/2+z
4 1/2-x,-y,1/2+z
5 -x,-y,-z
6 1/2+x,1/2-y,-z
7 -x,1/2+y,1/2-z
8 1/2+x,y,1/2-z
_cell_length_a                   8.699(3)
_cell_length_b                   17.164(4)
_cell_length_c                   20.469(6)
_cell_angle_alpha                90
_cell_angle_beta                 90
_cell_angle_gamma                90
_cell_volume                     3056.22
loop_
_atom_site_label
_atom_site_type_symbol
_atom_site_fract_x
_atom_site_fract_y
_atom_site_fract_z
Pb1 Pb 0.1679(1) 0.1159(1) 0.2170(1)
S1 S 0.3628(4) 0.1896(2) 0.1180(2)
S2 S 0.3919(4) 0.5293(2) 0.1038(2)
Cl1 Cl 0.4527(4) 0.0142(2) 0.2202(2)
Cl2 Cl -0.0681(5) 0.2177(3) 0.1895(2)
N1 N 0.1504(14) 0.2655(6) 0.0424(5)
N2 N 0.2441(12) 0.3365(6) 0.1189(5)
N3 N 0.4838(11) 0.3891(7) 0.1558(5)
N4 N 0.6731(13) 0.4597(6) 0.1219(5)
C1 C 0.2520(15) 0.2645(7) 0.0930(6)
C2 C 0.0836(16) 0.3377(9) 0.0370(7)
C3 C 0.1367(14) 0.3823(8) 0.0847(6)
C4 C 0.3335(16) 0.3643(7) 0.1749(6)
C5 C 0.5202(17) 0.4585(8) 0.1283(6)
C6 C 0.6197(16) 0.3489(8) 0.1693(6)
C7 C 0.7343(16) 0.3943(8) 0.1478(7)
C8 C 0.1179(21) 0.1995(8) 0.0004(8)
C9 C 0.7552(18) 0.5258(9) 0.0925(8)
S2A S 0.1081(4) 0.0293(2) 0.1038(2)
Cl1G Cl -0.0473(4) 0.0142(2) 0.2798(2)
Cl2G Cl 0.4319(5) 0.2177(3) 0.3105(2)
Pb1A Pb 0.3321(1) 0.6159(1) 0.2170(1)
Pb1G Pb 0.6679(1) 0.1159(1) 0.2830(1)
Pb1G_2 Pb -0.3321(1) 0.1159(1) 0.2830(1)
loop_
_geom_bond_atom_site_label_1
_geom_bond_atom_site_label_2
_geom_bond_site_symmetry_1
_geom_bond_site_symmetry_2
Pb1 S1 1_555 1_555
S1 C1 1_555 1_555
S2 C5 1_555 1_555
Cl1 Pb1 1_555 1_555
Cl2 Pb1 1_555 1_555
N1 C1 1_555 1_555
N2 C1 1_555 1_555
N3 C4 1_555 1_555
N4 C5 1_555 1_555
C2 N1 1_555 1_555
C3 N2 1_555 1_555
C4 N2 1_555 1_555
C5 N3 1_555 1_555
C6 N3 1_555 1_555
C7 N4 1_555 1_555
C8 N1 1_555 1_555
C9 N4 1_555 1_555
S2A Pb1 1_555 1_555
Cl1G Pb1 1_555 1_555
Cl2G Pb1 1_555 1_555
Pb1A S2 1_555 1_555
Pb1G Cl1 1_555 1_555
Pb1G_2 Cl2 1_555 1_555
C2 C3 1_555 1_555
C6 C7 1_555 1_555
Cl1G Pb1G_2 1_555 1_555
Cl2G Pb1G 1_555 1_555

#END
