
#######################################################################
#
#                 Cambridge Crystallographic Data Centre
#                                CCDC 
#
#######################################################################
#
# If this CIF has been generated from an entry in the Cambridge 
# Structural Database, then it will include bibliographic, chemical, 
# crystal, experimental, refinement or atomic coordinate data resulting 
# from the CCDC's data processing and validation procedures.
#
#######################################################################

data_VUWCIA
_symmetry_cell_setting           triclinic
_symmetry_space_group_name_H-M   'P -1'
_symmetry_Int_Tables_number      2
_space_group_name_Hall           '-P 1'
loop_
_symmetry_equiv_pos_site_id
_symmetry_equiv_pos_as_xyz
1 x,y,z
2 -x,-y,-z
_cell_length_a                   8.8754(7)
_cell_length_b                   10.0779(8)
_cell_length_c                   13.4952(12)
_cell_angle_alpha                96.491(6)
_cell_angle_beta                 99.845(6)
_cell_angle_gamma                93.894(6)
_cell_volume                     1176.98
loop_
_atom_site_label
_atom_site_type_symbol
_atom_site_fract_x
_atom_site_fract_y
_atom_site_fract_z
Zn1 Zn 0.21312(8) 0.50520(7) 0.83630(5)
Zn2 Zn 0.39401(8) 0.38132(7) 0.02948(5)
C1 C -0.2449(7) 0.0558(6) 0.9916(5)
H1 H -0.2854 0.0658 1.0541
H2 H -0.2055 -0.0316 0.9850
C2 C -0.4338(8) 0.0491(7) 0.7081(5)
C3 C 0.3424(8) 0.3615(7) 0.5535(5)
H3 H 0.3974 0.2907 0.5339
C4 C 0.3224(9) 0.3848(7) 0.6500(5)
H4 H 0.3661 0.3297 0.6957
C5 C -0.3134(7) 0.0582(6) 0.8034(4)
H5 H -0.2605 -0.0238 0.7971
C6 C 0.2979(7) 0.4199(6) 0.3742(4)
C7 C -0.1931(7) 0.1722(6) 0.8080(5)
H6 H -0.2388 0.2567 0.8155
H7 H -0.1529 0.1655 0.7453
C8 C -0.0624(7) 0.1692(6) 0.8971(4)
H8 H -0.0168 0.0848 0.8826
C9 C 0.4077(7) 0.3377(6) 0.3436(5)
H9 H 0.4671 0.2928 0.3904
C10 C -0.1119(7) 0.1633(6) 0.9998(4)
H10 H -0.0247 0.1361 1.0456
C11 C 0.2808(7) 0.4429(6) 0.4817(4)
C12 C 0.1874(8) 0.5634(7) 0.6181(5)
H11 H 0.1349 0.6345 0.6403
C13 C 0.2035(8) 0.5468(7) 0.5174(5)
H12 H 0.1622 0.6057 0.4740
C14 C 0.0677(7) 0.2805(6) 0.9033(5)
C15 C 0.2094(7) 0.4785(7) 0.2988(5)
H13 H 0.1331 0.5316 0.3149
C16 C -0.4757(7) 0.1773(6) 0.9159(5)
C17 C 0.4268(8) 0.3240(6) 0.2442(5)
H14 H 0.5012 0.2705 0.2255
C18 C 0.2337(7) 0.4586(7) 0.2012(5)
H15 H 0.1719 0.4983 0.1521
C19 C -0.3771(7) 0.0597(6) 0.9026(5)
H16 H -0.4445 -0.0230 0.8970
C20 C -0.1485(7) 0.2992(7) 1.0469(5)
N1 N 0.2422(6) 0.4843(5) 0.6845(4)
N2 N 0.3426(6) 0.3845(5) 0.1728(4)
O1 O -0.4229(6) 0.1120(6) 0.6386(4)
O3 O -0.5525(6) -0.0392(5) 0.7058(4)
H17 H -0.5881 -0.0673 0.6439
O5 O 0.0648(5) 0.3470(4) 0.8286(3)
O7 O 0.1694(5) 0.2952(4) 0.9805(3)
O9 O -0.1786(6) 0.3913(4) 0.9969(3)
O10 O -0.1437(5) 0.3122(4) 1.1445(3)
O11 O -0.4891(5) 0.2212(4) 1.0058(3)
O12 O -0.5379(6) 0.2226(5) 0.8383(3)
O13 O 0.4163(4) 0.4749(4) 0.9056(3)
H18 H 0.4243 0.4063 0.8716
Zn1A Zn -0.21312(8) 0.49480(7) 1.16370(5)
Zn2_2 Zn 0.39401(8) 0.38132(7) 1.02948(5)
Zn2_3 Zn -0.60599(8) 0.38132(7) 1.02948(5)
Zn2A Zn 0.60599(8) 0.61868(7) 0.97052(5)
O7_2 O 0.1694(5) 0.2952(4) -0.0195(3)
O9A O 0.1786(6) 0.6087(4) 1.0031(3)
O10A O 0.1437(5) 0.6878(4) 0.8555(3)
O11_2 O 0.5109(5) 0.2212(4) 0.0058(3)
O13_2 O 0.4163(4) 0.4749(4) -0.0944(3)
O13A O 0.5837(4) 0.5251(4) 0.0944(3)
H18_2 H 0.4243 0.4063 -0.1284
H18A H 0.5757 0.5937 0.1284
O2 O -0.8407(8) 0.1057(7) 0.7114(5)
O4 O -0.7215(8) -0.0867(11) 0.5248(5)
O6 O -0.0022(9) 0.8558(7) 0.7181(5)
O8 O 0.0156(9) 0.1757(8) 0.4969(6)
loop_
_geom_bond_atom_site_label_1
_geom_bond_atom_site_label_2
_geom_bond_site_symmetry_1
_geom_bond_site_symmetry_2
Zn1 N1 1_555 1_555
Zn2 N2 1_555 1_555
C1 H1 1_555 1_555
H2 C1 1_555 1_555
C2 C5 1_555 1_555
C3 H3 1_555 1_555
C4 C3 1_555 1_555
H4 C4 1_555 1_555
C5 H5 1_555 1_555
C6 C9 1_555 1_555
C7 C5 1_555 1_555
H6 C7 1_555 1_555
H7 C7 1_555 1_555
C8 C7 1_555 1_555
H8 C8 1_555 1_555
C9 H9 1_555 1_555
C10 C1 1_555 1_555
H10 C10 1_555 1_555
C11 C3 1_555 1_555
C12 H11 1_555 1_555
C13 C11 1_555 1_555
H12 C13 1_555 1_555
C14 C8 1_555 1_555
C15 C6 1_555 1_555
H13 C15 1_555 1_555
C16 C19 1_555 1_555
C17 C9 1_555 1_555
H14 C17 1_555 1_555
C18 C15 1_555 1_555
H15 C18 1_555 1_555
C19 C1 1_555 1_555
H16 C19 1_555 1_555
C20 C10 1_555 1_555
N1 C4 1_555 1_555
N2 C17 1_555 1_555
O1 C2 1_555 1_555
O3 C2 1_555 1_555
H17 O3 1_555 1_555
O5 Zn1 1_555 1_555
O7 C14 1_555 1_555
O9 C20 1_555 1_555
O10 C20 1_555 1_555
O11 C16 1_555 1_555
O12 C16 1_555 1_555
O13 Zn1 1_555 1_555
H18 O13 1_555 1_555
Zn1A O9 1_555 1_555
Zn2_2 O7 1_555 1_555
Zn2_3 O11 1_555 1_555
Zn2A O13 1_555 1_555
O7_2 Zn2 1_555 1_555
O9A Zn1 1_555 1_555
O10A Zn1 1_555 1_555
O11_2 Zn2 1_555 1_555
O13_2 Zn2 1_555 1_555
O13A Zn2 1_555 1_555
H18_2 O13_2 1_555 1_555
H18A O13A 1_555 1_555
C5 C19 1_555 1_555
C6 C11 1_555 1_555
C8 C10 1_555 1_555
C12 C13 1_555 1_555
C12 N1 1_555 1_555
C14 O5 1_555 1_555
C18 N2 1_555 1_555
O10 Zn1A 1_555 1_555
O13 Zn2_2 1_555 1_555

#END
