
#######################################################################
#
#                 Cambridge Crystallographic Data Centre
#                                CCDC 
#
#######################################################################
#
# If this CIF has been generated from an entry in the Cambridge 
# Structural Database, then it will include bibliographic, chemical, 
# crystal, experimental, refinement or atomic coordinate data resulting 
# from the CCDC's data processing and validation procedures.
#
#######################################################################

data_VUWDOH
_symmetry_cell_setting           triclinic
_symmetry_space_group_name_H-M   'P -1'
_symmetry_Int_Tables_number      2
_space_group_name_Hall           '-P 1'
loop_
_symmetry_equiv_pos_site_id
_symmetry_equiv_pos_as_xyz
1 x,y,z
2 -x,-y,-z
_cell_length_a                   3.5350(10)
_cell_length_b                   9.038(3)
_cell_length_c                   10.139(3)
_cell_angle_alpha                82.84(2)
_cell_angle_beta                 89.56(2)
_cell_angle_gamma                87.96(2)
_cell_volume                     321.203
loop_
_atom_site_label
_atom_site_type_symbol
_atom_site_fract_x
_atom_site_fract_y
_atom_site_fract_z
Mn1 Mn 0.5000 0.5000 0.0000
N1 N 0.9798(3) 0.62337(11) 0.07483(10)
N2 N 0.9287(3) 0.71170(11) 0.15362(10)
N3 N 0.8776(4) 0.79721(14) 0.22797(13)
N4 N 0.4811(3) 0.34590(11) 0.19684(10)
C1 C 0.4630(3) 0.19618(13) 0.20891(11)
C2 C 0.3380(3) 0.11239(13) 0.32677(12)
H1 H 0.3164 0.00963 0.33126
C3 C 0.2486(3) 0.18463(14) 0.43490(12)
H2 H 0.1647 0.13131 0.51342
C4 C 0.2849(3) 0.33926(14) 0.42574(12)
H3 H 0.2342 0.39027 0.49845
C5 C 0.3978(3) 0.41373(13) 0.30576(12)
H4 H 0.4181 0.51670 0.29924
N5 N 0.5592(3) 0.12582(12) 0.10014(11)
H5 H 0.6090 0.0282 0.1183
H6 H 0.7212 0.1744 0.0454
Mn1_2 Mn 1.5000 0.5000 0.0000
N1A N 1.0202(3) 0.37663(11) -0.07483(10)
N1_2 N -0.0202(3) 0.62337(11) 0.07483(10)
N1A_2 N 0.0202(3) 0.37663(11) -0.07483(10)
N2A N 1.0713(3) 0.28830(11) -0.15362(10)
N3A N 1.1224(4) 0.20279(14) -0.22797(13)
N4A N 0.5189(3) 0.65410(11) -0.19684(10)
C1A C 0.5370(3) 0.80382(13) -0.20891(11)
C2A C 0.6620(3) 0.88761(13) -0.32677(12)
H1A H 0.6836 0.99037 -0.33126
C3A C 0.7514(3) 0.81537(14) -0.43490(12)
H2A H 0.8353 0.86869 -0.51342
C4A C 0.7151(3) 0.66074(14) -0.42574(12)
H3A H 0.7658 0.60973 -0.49845
C5A C 0.6022(3) 0.58627(13) -0.30576(12)
H4A H 0.5819 0.48330 -0.29924
N5A N 0.4408(3) 0.87418(12) -0.10014(11)
H5A H 0.3910 0.9718 -0.1183
H6A H 0.2788 0.8256 -0.0454
loop_
_geom_bond_atom_site_label_1
_geom_bond_atom_site_label_2
_geom_bond_site_symmetry_1
_geom_bond_site_symmetry_2
Mn1 N1 1_555 1_555
N1 N2 1_555 1_555
N2 N3 1_555 1_555
N4 Mn1 1_555 1_555
C1 N4 1_555 1_555
C2 C1 1_555 1_555
H1 C2 1_555 1_555
C3 C2 1_555 1_555
H2 C3 1_555 1_555
C4 C3 1_555 1_555
H3 C4 1_555 1_555
C5 N4 1_555 1_555
H4 C5 1_555 1_555
N5 C1 1_555 1_555
H5 N5 1_555 1_555
H6 N5 1_555 1_555
Mn1_2 N1 1_555 1_555
N1A Mn1 1_555 1_555
N1_2 Mn1 1_555 1_555
N1A_2 Mn1 1_555 1_555
N2A N1A 1_555 1_555
N3A N2A 1_555 1_555
N4A Mn1 1_555 1_555
C1A N4A 1_555 1_555
C2A C1A 1_555 1_555
H1A C2A 1_555 1_555
C3A C2A 1_555 1_555
H2A C3A 1_555 1_555
C4A C3A 1_555 1_555
H3A C4A 1_555 1_555
C5A N4A 1_555 1_555
H4A C5A 1_555 1_555
N5A C1A 1_555 1_555
H5A N5A 1_555 1_555
H6A N5A 1_555 1_555
C4 C5 1_555 1_555
Mn1_2 N1A 1_555 1_555
C4A C5A 1_555 1_555

#END
