
#######################################################################
#
#                 Cambridge Crystallographic Data Centre
#                                CCDC 
#
#######################################################################
#
# If this CIF has been generated from an entry in the Cambridge 
# Structural Database, then it will include bibliographic, chemical, 
# crystal, experimental, refinement or atomic coordinate data resulting 
# from the CCDC's data processing and validation procedures.
#
#######################################################################

data_VUWDUN
_symmetry_cell_setting           triclinic
_symmetry_space_group_name_H-M   'P -1'
_symmetry_Int_Tables_number      2
_space_group_name_Hall           '-P 1'
loop_
_symmetry_equiv_pos_site_id
_symmetry_equiv_pos_as_xyz
1 x,y,z
2 -x,-y,-z
_cell_length_a                   8.252(3)
_cell_length_b                   8.313(3)
_cell_length_c                   11.927(6)
_cell_angle_alpha                82.71(3)
_cell_angle_beta                 69.88(3)
_cell_angle_gamma                80.83(3)
_cell_volume                     756.135
loop_
_atom_site_label
_atom_site_type_symbol
_atom_site_fract_x
_atom_site_fract_y
_atom_site_fract_z
Mn1 Mn 0.03488(5) 0.29852(4) 0.48075(3)
N1 N 0.0971(3) 0.4712(2) 0.5849(2)
N2 N 0.1106(3) 0.4422(2) 0.6799(2)
N3 N 0.1264(3) 0.4133(3) 0.7740(2)
N4 N -0.0463(3) 0.1567(3) 0.3652(2)
N5 N -0.1054(3) 0.0324(2) 0.3986(2)
N6 N -0.1670(3) -0.0913(3) 0.4301(2)
N7 N 0.2863(3) 0.3102(3) 0.3293(2)
C1 C 0.4393(3) 0.2995(3) 0.3468(2)
H1 H 0.4398 0.2852 0.4253
C2 C 0.5961(3) 0.3081(3) 0.2562(2)
H2 H 0.6993 0.2999 0.2729
C3 C 0.5954(3) 0.3293(3) 0.1393(2)
C4 C 0.4382(3) 0.3401(3) 0.1190(2)
H3 H 0.4340 0.3539 0.0414
C5 C 0.2885(3) 0.3300(3) 0.2157(2)
H4 H 0.1836 0.3373 0.2015
N8 N 0.7458(3) 0.3395(3) 0.0354(2)
N9 N 0.8877(3) 0.3271(3) 0.0529(2)
N10 N 1.0252(3) 0.3158(3) 0.0525(2)
N11 N -0.2162(3) 0.2464(2) 0.6281(2)
C6 C -0.3594(3) 0.2332(3) 0.6029(2)
H5 H -0.3594 0.2637 0.5252
C7 C -0.5072(3) 0.1772(3) 0.6851(2)
H6 H -0.6036 0.1693 0.6635
C8 C -0.5067(3) 0.1333(3) 0.8006(2)
C9 C -0.3605(3) 0.1467(3) 0.8297(2)
H7 H -0.3578 0.1181 0.9071
C10 C -0.2193(3) 0.2037(3) 0.7407(2)
H8 H -0.1214 0.2128 0.7600
N12 N -0.6470(3) 0.0734(3) 0.8959(2)
N13 N -0.7787(3) 0.0592(3) 0.8710(2)
N14 N -0.9061(3) 0.0383(3) 0.8633(2)
Mn1A Mn -0.03488(5) 0.70148(4) 0.51925(3)
Mn1A_2 Mn -0.03488(5) -0.29852(4) 0.51925(3)
N1A N -0.0971(3) 0.5288(2) 0.4151(2)
N6A N 0.1670(3) 0.0913(3) 0.5699(2)
loop_
_geom_bond_atom_site_label_1
_geom_bond_atom_site_label_2
_geom_bond_site_symmetry_1
_geom_bond_site_symmetry_2
Mn1 N1 1_555 1_555
N1 N2 1_555 1_555
N2 N3 1_555 1_555
N4 Mn1 1_555 1_555
N5 N4 1_555 1_555
N6 N5 1_555 1_555
N7 Mn1 1_555 1_555
C1 N7 1_555 1_555
H1 C1 1_555 1_555
C2 C1 1_555 1_555
H2 C2 1_555 1_555
C3 C2 1_555 1_555
C4 C3 1_555 1_555
H3 C4 1_555 1_555
C5 N7 1_555 1_555
H4 C5 1_555 1_555
N8 C3 1_555 1_555
N9 N8 1_555 1_555
N10 N9 1_555 1_555
N11 Mn1 1_555 1_555
C6 N11 1_555 1_555
H5 C6 1_555 1_555
C7 C6 1_555 1_555
H6 C7 1_555 1_555
C8 C7 1_555 1_555
C9 C8 1_555 1_555
H7 C9 1_555 1_555
C10 N11 1_555 1_555
H8 C10 1_555 1_555
N12 C8 1_555 1_555
N13 N12 1_555 1_555
N14 N13 1_555 1_555
Mn1A N1 1_555 1_555
Mn1A_2 N6 1_555 1_555
N1A Mn1 1_555 1_555
N6A Mn1 1_555 1_555
C4 C5 1_555 1_555
C9 C10 1_555 1_555
Mn1A N1A 1_555 1_555

#END
