
#######################################################################
#
#                 Cambridge Crystallographic Data Centre
#                                CCDC 
#
#######################################################################
#
# If this CIF has been generated from an entry in the Cambridge 
# Structural Database, then it will include bibliographic, chemical, 
# crystal, experimental, refinement or atomic coordinate data resulting 
# from the CCDC's data processing and validation procedures.
#
#######################################################################

data_VUWFID
_symmetry_cell_setting           monoclinic
_symmetry_space_group_name_H-M   'C 2/c'
_symmetry_Int_Tables_number      15
_space_group_name_Hall           '-C 2yn'
loop_
_symmetry_equiv_pos_site_id
_symmetry_equiv_pos_as_xyz
1 x,y,z
2 -x,y,1/2-z
3 1/2+x,1/2+y,z
4 1/2-x,1/2+y,1/2-z
5 -x,-y,-z
6 x,-y,1/2+z
7 1/2-x,1/2-y,-z
8 1/2+x,1/2-y,1/2+z
_cell_length_a                   21.0661(11)
_cell_length_b                   8.9541(4)
_cell_length_c                   13.5256(6)
_cell_angle_alpha                90
_cell_angle_beta                 105.7150(10)
_cell_angle_gamma                90
_cell_volume                     2455.94
loop_
_atom_site_label
_atom_site_type_symbol
_atom_site_fract_x
_atom_site_fract_y
_atom_site_fract_z
H1 H 0.478(3) 0.523(7) 1.105(5)
H2 H 0.418(4) 0.536(9) 1.101(6)
H3 H 0.127(3) 0.813(7) 0.576(6)
H4 H 0.214(2) 0.723(6) 0.867(4)
Tb1 Tb 0.449721(9) 0.83040(2) 1.046259(14)
C1 C 0.3359(3) 0.8221(5) 0.8842(4)
C2 C 0.2752(2) 0.8164(5) 0.7959(4)
C3 C 0.2775(2) 0.8713(6) 0.7015(4)
H5 H 0.3161 0.9130 0.6927
C4 C 0.2213(2) 0.8625(6) 0.6204(4)
C5 C 0.1624(2) 0.8055(6) 0.6311(4)
C6 C 0.2172(2) 0.7569(5) 0.8090(4)
C7 C 0.5193(2) 0.7897(6) 0.8946(4)
C8 C 0.5328(2) 0.7784(6) 0.7906(4)
H6 H 0.5567 0.6871 0.7863
H7 H 0.5593 0.8624 0.7802
C9 C 0.0975(3) 0.6891(5) 0.7393(4)
C10 C 0.1605(2) 0.7515(5) 0.7260(4)
N1 N 0.22424(19) 0.9138(5) 0.5184(3)
O1 O 0.38229(15) 0.9091(4) 0.8815(3)
O2 O 0.34093(15) 0.7364(4) 0.9604(3)
O3 O 0.4954(2) 0.6797(3) 0.9293(3)
O4 O 0.09801(16) 0.6296(4) 0.8238(3)
O5 O 0.4438(2) 0.5813(4) 1.1057(3)
O6 O 0.04729(16) 0.6990(5) 0.6652(3)
O7 O 0.52846(16) 0.9113(4) 0.9429(2)
O8 O 0.17418(17) 0.9050(5) 0.4463(3)
O9 O 0.2763(2) 0.9600(6) 0.5087(3)
H1F H 0.022(3) 0.977(7) 0.895(5)
H2F H 0.082(4) 0.964(9) 0.899(6)
H3F H 0.373(3) 0.687(7) 1.424(6)
H4F H 0.286(2) 0.777(6) 1.133(4)
Tb1F Tb 0.050279(9) 0.66960(2) 0.953741(14)
Tb1G Tb -0.050279(9) 0.66960(2) 0.546259(14)
Tb1D Tb 0.550279(9) 1.16960(2) 0.953741(14)
Tb1A Tb 0.550279(9) 0.83040(2) 0.453741(14)
Tb1E Tb 0.449721(9) 1.16960(2) 0.546259(14)
Tb1A_2 Tb 0.550279(9) 0.83040(2) 1.453741(14)
C1F C 0.1641(3) 0.6779(5) 1.1158(4)
C2F C 0.2248(2) 0.6836(5) 1.2041(4)
C3F C 0.2225(2) 0.6287(6) 1.2985(4)
H5F H 0.1839 0.5870 1.3073
C4F C 0.2787(2) 0.6375(6) 1.3796(4)
C5F C 0.3376(2) 0.6945(6) 1.3689(4)
C6F C 0.2828(2) 0.7431(5) 1.1910(4)
C7A C 0.4807(2) 0.7897(6) 0.6054(4)
C8A C 0.4672(2) 0.7784(6) 0.7094(4)
H6A H 0.4433 0.6871 0.7137
H7A H 0.4407 0.8624 0.7198
C9F C 0.4025(3) 0.8109(5) 1.2607(4)
C10F C 0.3395(2) 0.7485(5) 1.2740(4)
N1F N 0.27576(19) 0.5862(5) 1.4816(3)
O1F O 0.11771(15) 0.5909(4) 1.1185(3)
O2F O 0.15907(15) 0.7636(4) 1.0396(3)
O3A O 0.5046(2) 0.6797(3) 0.5707(3)
O3F O 0.0046(2) 0.8203(3) 1.0707(3)
O4F O 0.40199(16) 0.8704(4) 1.1762(3)
O5F O 0.0562(2) 0.9187(4) 0.8943(3)
O6F O 0.45271(16) 0.8010(5) 1.3348(3)
O6G O 0.54729(16) 0.8010(5) 1.1652(3)
O6A O -0.04729(16) 0.6990(5) 0.8348(3)
O7A O 0.47154(16) 0.9113(4) 0.5571(2)
O7D O 0.47154(16) 1.0887(4) 1.0571(2)
O7F O -0.02846(16) 0.5887(4) 1.0571(2)
O7B O 0.02846(16) 0.4113(4) 0.9429(2)
O8F O 0.32582(17) 0.5950(5) 1.5537(3)
O9F O 0.2237(2) 0.5400(6) 1.4913(3)
loop_
_geom_bond_atom_site_label_1
_geom_bond_atom_site_label_2
_geom_bond_site_symmetry_1
_geom_bond_site_symmetry_2
H1 O5 1_555 1_555
H2 O5 1_555 1_555
H3 C5 1_555 1_555
H4 C6 1_555 1_555
Tb1 O1 1_555 1_555
C1 C2 1_555 1_555
C2 C3 1_555 1_555
C3 H5 1_555 1_555
C4 C3 1_555 1_555
C5 C4 1_555 1_555
C6 C2 1_555 1_555
C7 C8 1_555 1_555
C8 H6 1_555 1_555
H7 C8 1_555 1_555
C9 C10 1_555 1_555
C10 C5 1_555 1_555
N1 C4 1_555 1_555
O1 C1 1_555 1_555
O2 Tb1 1_555 1_555
O3 Tb1 1_555 1_555
O4 C9 1_555 1_555
O5 Tb1 1_555 1_555
O6 C9 1_555 1_555
O7 Tb1 1_555 1_555
O8 N1 1_555 1_555
O9 N1 1_555 1_555
H1F O5F 1_555 1_555
H2F O5F 1_555 1_555
H3F C5F 1_555 1_555
H4F C6F 1_555 1_555
Tb1F O4 1_555 1_555
Tb1G O6 1_555 1_555
Tb1D O7 1_555 1_555
Tb1A O3A 1_555 1_555
Tb1E O7A 1_555 1_555
Tb1A_2 O6F 1_555 1_555
C1F C2F 1_555 1_555
C2F C3F 1_555 1_555
C3F H5F 1_555 1_555
C4F C3F 1_555 1_555
C5F C4F 1_555 1_555
C6F C2F 1_555 1_555
C7A C8A 1_555 1_555
C8A C8 1_555 1_555
H6A C8A 1_555 1_555
H7A C8A 1_555 1_555
C9F C10F 1_555 1_555
C10F C5F 1_555 1_555
N1F C4F 1_555 1_555
O1F Tb1F 1_555 1_555
O2F Tb1F 1_555 1_555
O3A C7A 1_555 1_555
O3F Tb1F 1_555 1_555
O4F Tb1 1_555 1_555
O5F Tb1F 1_555 1_555
O6F C9F 1_555 1_555
O6G Tb1 1_555 1_555
O6A Tb1F 1_555 1_555
O7A Tb1A 1_555 1_555
O7D Tb1 1_555 1_555
O7F Tb1F 1_555 1_555
O7B Tb1F 1_555 1_555
O8F N1F 1_555 1_555
O9F N1F 1_555 1_555
C1 O2 1_555 1_555
C6 C10 1_555 1_555
C7 O3 1_555 1_555
C7 O7 1_555 1_555
Tb1D O7D 1_555 1_555
C1F O1F 1_555 1_555
C1F O2F 1_555 1_555
C6F C10F 1_555 1_555
C7A O7A 1_555 1_555
C9F O4F 1_555 1_555

#END
