
#######################################################################
#
#                 Cambridge Crystallographic Data Centre
#                                CCDC 
#
#######################################################################
#
# If this CIF has been generated from an entry in the Cambridge 
# Structural Database, then it will include bibliographic, chemical, 
# crystal, experimental, refinement or atomic coordinate data resulting 
# from the CCDC's data processing and validation procedures.
#
#######################################################################

data_VUWFUP
_symmetry_cell_setting           monoclinic
_symmetry_space_group_name_H-M   'C 2/c'
_symmetry_Int_Tables_number      15
_space_group_name_Hall           '-C 2yn'
loop_
_symmetry_equiv_pos_site_id
_symmetry_equiv_pos_as_xyz
1 x,y,z
2 -x,y,1/2-z
3 1/2+x,1/2+y,z
4 1/2-x,1/2+y,1/2-z
5 -x,-y,-z
6 x,-y,1/2+z
7 1/2-x,1/2-y,-z
8 1/2+x,1/2-y,1/2+z
_cell_length_a                   21.1173(13)
_cell_length_b                   8.9759(6)
_cell_length_c                   13.5497(8)
_cell_angle_alpha                90
_cell_angle_beta                 105.6610(10)
_cell_angle_gamma                90
_cell_volume                     2472.96
loop_
_atom_site_label
_atom_site_type_symbol
_atom_site_fract_x
_atom_site_fract_y
_atom_site_fract_z
Gd1 Gd 0.449520(13) 0.16989(3) 1.04631(2)
C1 C 0.3360(4) 0.1782(7) 0.8828(7)
C2 C 0.2743(4) 0.1824(7) 0.7944(7)
C3 C 0.2771(3) 0.1289(8) 0.7004(6)
H1 H 0.3157 0.0879 0.6916
C4 C 0.2217(4) 0.1376(8) 0.6205(5)
C5 C 0.1628(3) 0.1931(8) 0.6306(6)
H2 H 0.1255 0.1933 0.5751
C6 C 0.2172(4) 0.2427(6) 0.8086(6)
H3 H 0.2163 0.2791 0.8725
C7 C 0.5205(3) 0.2099(9) 0.8944(6)
C8 C 0.5334(4) 0.2222(8) 0.7906(6)
H4 H 0.5598 0.1387 0.7796
H5 H 0.5570 0.3135 0.7863
C9 C 0.0984(4) 0.3108(7) 0.7387(7)
C10 C 0.1603(3) 0.2484(7) 0.7250(6)
N1 N 0.2251(3) 0.0854(7) 0.5187(5)
O1 O 0.3403(2) 0.2636(6) 0.9598(4)
O2 O 0.3820(2) 0.0914(6) 0.8804(4)
O3 O 0.4958(3) 0.3212(5) 0.9285(5)
O4 O 0.0987(2) 0.3699(6) 0.8234(4)
O5 O 0.4426(3) 0.4214(5) 1.1053(5)
O6 O 0.0477(3) 0.2989(7) 0.6645(5)
O7 O 0.5285(2) 0.0892(5) 0.9419(4)
O8 O 0.1745(3) 0.0947(6) 0.4464(4)
O9 O 0.2766(3) 0.0385(8) 0.5091(5)
Gd1F Gd 0.050480(13) 0.33011(3) 0.95369(2)
Gd1G Gd -0.050480(13) 0.33011(3) 0.54631(2)
Gd1D Gd 0.550480(13) -0.16989(3) 0.95369(2)
Gd1A Gd 0.550480(13) 0.16989(3) 0.45369(2)
Gd1E Gd 0.449520(13) -0.16989(3) 0.54631(2)
Gd1A_2 Gd 0.550480(13) 0.16989(3) 1.45369(2)
C1F C 0.1640(4) 0.3218(7) 1.1172(7)
C2F C 0.2257(4) 0.3176(7) 1.2056(7)
C3F C 0.2229(3) 0.3711(8) 1.2996(6)
H1F H 0.1843 0.4121 1.3084
C4F C 0.2783(4) 0.3624(8) 1.3795(5)
C5F C 0.3372(3) 0.3069(8) 1.3694(6)
H2F H 0.3745 0.3067 1.4249
C6F C 0.2828(4) 0.2573(6) 1.1914(6)
H3F H 0.2837 0.2209 1.1275
C7A C 0.4795(3) 0.2099(9) 0.6056(6)
C8A C 0.4666(4) 0.2222(8) 0.7094(6)
H4A H 0.4402 0.1387 0.7204
H5A H 0.4430 0.3135 0.7137
C9F C 0.4016(4) 0.1892(7) 1.2613(7)
C10F C 0.3397(3) 0.2516(7) 1.2750(6)
N1F N 0.2749(3) 0.4146(7) 1.4813(5)
O1F O 0.1597(2) 0.2364(6) 1.0402(4)
O2F O 0.1180(2) 0.4086(6) 1.1196(4)
O3A O 0.5042(3) 0.3212(5) 0.5715(5)
O3F O 0.0042(3) 0.1788(5) 1.0715(5)
O4F O 0.4013(2) 0.1301(6) 1.1766(4)
O5F O 0.0574(3) 0.0786(5) 0.8947(5)
O6F O 0.4523(3) 0.2011(7) 1.3355(5)
O6G O 0.5477(3) 0.2011(7) 1.1645(5)
O6A O -0.0477(3) 0.2989(7) 0.8355(5)
O7A O 0.4715(2) 0.0892(5) 0.5581(4)
O7D O 0.4715(2) -0.0892(5) 1.0581(4)
O7F O -0.0285(2) 0.4108(5) 1.0581(4)
O7B O 0.0285(2) 0.5892(5) 0.9419(4)
O8F O 0.3255(3) 0.4053(6) 1.5536(4)
O9F O 0.2234(3) 0.4615(8) 1.4909(5)
loop_
_geom_bond_atom_site_label_1
_geom_bond_atom_site_label_2
_geom_bond_site_symmetry_1
_geom_bond_site_symmetry_2
Gd1 O1 1_555 1_555
C1 C2 1_555 1_555
C2 C3 1_555 1_555
C3 H1 1_555 1_555
C4 C3 1_555 1_555
C5 C4 1_555 1_555
H2 C5 1_555 1_555
C6 C2 1_555 1_555
H3 C6 1_555 1_555
C7 C8 1_555 1_555
C8 H4 1_555 1_555
H5 C8 1_555 1_555
C9 C10 1_555 1_555
C10 C5 1_555 1_555
N1 C4 1_555 1_555
O1 C1 1_555 1_555
O2 Gd1 1_555 1_555
O3 Gd1 1_555 1_555
O4 C9 1_555 1_555
O5 Gd1 1_555 1_555
O6 C9 1_555 1_555
O7 Gd1 1_555 1_555
O8 N1 1_555 1_555
O9 N1 1_555 1_555
Gd1F O4 1_555 1_555
Gd1G O6 1_555 1_555
Gd1D O7 1_555 1_555
Gd1A O3A 1_555 1_555
Gd1E O7A 1_555 1_555
Gd1A_2 O6F 1_555 1_555
C1F C2F 1_555 1_555
C2F C3F 1_555 1_555
C3F H1F 1_555 1_555
C4F C3F 1_555 1_555
C5F C4F 1_555 1_555
H2F C5F 1_555 1_555
C6F C2F 1_555 1_555
H3F C6F 1_555 1_555
C7A C8A 1_555 1_555
C8A C8 1_555 1_555
H4A C8A 1_555 1_555
H5A C8A 1_555 1_555
C9F C10F 1_555 1_555
C10F C5F 1_555 1_555
N1F C4F 1_555 1_555
O1F Gd1F 1_555 1_555
O2F Gd1F 1_555 1_555
O3A C7A 1_555 1_555
O3F Gd1F 1_555 1_555
O4F Gd1 1_555 1_555
O5F Gd1F 1_555 1_555
O6F C9F 1_555 1_555
O6G Gd1 1_555 1_555
O6A Gd1F 1_555 1_555
O7A Gd1A 1_555 1_555
O7D Gd1 1_555 1_555
O7F Gd1F 1_555 1_555
O7B Gd1F 1_555 1_555
O8F N1F 1_555 1_555
O9F N1F 1_555 1_555
C1 O2 1_555 1_555
C6 C10 1_555 1_555
C7 O3 1_555 1_555
C7 O7 1_555 1_555
Gd1D O7D 1_555 1_555
C1F O1F 1_555 1_555
C1F O2F 1_555 1_555
C6F C10F 1_555 1_555
C7A O7A 1_555 1_555
C9F O4F 1_555 1_555

#END
