
#######################################################################
#
#                 Cambridge Crystallographic Data Centre
#                                CCDC 
#
#######################################################################
#
# If this CIF has been generated from an entry in the Cambridge 
# Structural Database, then it will include bibliographic, chemical, 
# crystal, experimental, refinement or atomic coordinate data resulting 
# from the CCDC's data processing and validation procedures.
#
#######################################################################

data_VUWFOJ
_symmetry_cell_setting           monoclinic
_symmetry_space_group_name_H-M   'C 2/c'
_symmetry_Int_Tables_number      15
_space_group_name_Hall           '-C 2yn'
loop_
_symmetry_equiv_pos_site_id
_symmetry_equiv_pos_as_xyz
1 x,y,z
2 -x,y,1/2-z
3 1/2+x,1/2+y,z
4 1/2-x,1/2+y,1/2-z
5 -x,-y,-z
6 x,-y,1/2+z
7 1/2-x,1/2-y,-z
8 1/2+x,1/2-y,1/2+z
_cell_length_a                   21.1270(8)
_cell_length_b                   9.0027(3)
_cell_length_c                   13.5812(5)
_cell_angle_alpha                90
_cell_angle_beta                 105.5850(10)
_cell_angle_gamma                90
_cell_volume                     2488.17
loop_
_atom_site_label
_atom_site_type_symbol
_atom_site_fract_x
_atom_site_fract_y
_atom_site_fract_z
H1 H 0.468(3) 0.970(7) 1.110(5)
H2 H 0.407(5) 0.934(9) 1.093(7)
Eu1 Eu 0.449273(7) 0.670049(17) 1.046274(12)
C1 C 0.3356(2) 0.6785(4) 0.8835(3)
C2 C 0.2747(2) 0.6826(4) 0.7954(3)
C3 C 0.27784(18) 0.6276(4) 0.7012(3)
H3 H 0.3163 0.5859 0.6928
C4 C 0.22179(19) 0.6367(4) 0.6204(3)
C5 C 0.16345(19) 0.6936(4) 0.6308(3)
H4 H 0.1264 0.6961 0.5753
C6 C 0.21709(19) 0.7424(4) 0.8078(3)
H5 H 0.2158 0.7796 0.8711
C7 C 0.51965(18) 0.7114(5) 0.8938(3)
C8 C 0.5330(2) 0.7204(5) 0.7904(3)
H6 H 0.5591 0.6361 0.7805
H7 H 0.5570 0.8106 0.7854
C9 C 0.0978(2) 0.8095(4) 0.7381(3)
C10 C 0.16081(17) 0.7471(4) 0.7257(3)
N1 N 0.22521(16) 0.5849(4) 0.5191(2)
O1 O 0.33994(13) 0.7631(3) 0.9595(2)
O2 O 0.38197(13) 0.5929(3) 0.8797(2)
O3 O 0.49593(16) 0.8208(3) 0.9291(2)
O4 O 0.09866(13) 0.8698(3) 0.8224(2)
O5 O 0.4421(2) 0.9204(4) 1.1048(3)
O6 O 0.04802(13) 0.7986(3) 0.6643(2)
O7 O 0.52829(13) 0.5893(3) 0.94253(19)
O8 O 0.27729(17) 0.5394(5) 0.5100(2)
O9 O 0.17532(14) 0.5952(4) 0.4475(2)
H1F H 0.032(3) 0.530(7) 0.890(5)
H2F H 0.093(5) 0.566(9) 0.907(7)
Eu1F Eu 0.050727(7) 0.829951(17) 0.953726(12)
Eu1G Eu -0.050727(7) 0.829951(17) 0.546274(12)
Eu1D Eu 0.550727(7) 0.329951(17) 0.953726(12)
Eu1A Eu 0.550727(7) 0.670049(17) 0.453726(12)
Eu1E Eu 0.449273(7) 0.329951(17) 0.546274(12)
Eu1A_2 Eu 0.550727(7) 0.670049(17) 1.453726(12)
C1F C 0.1644(2) 0.8215(4) 1.1165(3)
C2F C 0.2253(2) 0.8174(4) 1.2046(3)
C3F C 0.22216(18) 0.8724(4) 1.2988(3)
H3F H 0.1837 0.9141 1.3072
C4F C 0.27821(19) 0.8633(4) 1.3796(3)
C5F C 0.33655(19) 0.8064(4) 1.3692(3)
H4F H 0.3736 0.8039 1.4247
C6F C 0.28291(19) 0.7576(4) 1.1922(3)
H5F H 0.2842 0.7204 1.1289
C7A C 0.48035(18) 0.7114(5) 0.6062(3)
C8A C 0.4670(2) 0.7204(5) 0.7096(3)
H6A H 0.4409 0.6361 0.7195
H7A H 0.4430 0.8106 0.7146
C9F C 0.4022(2) 0.6905(4) 1.2619(3)
C10F C 0.33919(17) 0.7529(4) 1.2743(3)
N1F N 0.27479(16) 0.9151(4) 1.4809(2)
O1F O 0.16006(13) 0.7369(3) 1.0405(2)
O2F O 0.11803(13) 0.9071(3) 1.1203(2)
O3A O 0.50407(16) 0.8208(3) 0.5709(2)
O3F O 0.00407(16) 0.6792(3) 1.0709(2)
O4F O 0.40134(13) 0.6302(3) 1.1776(2)
O5F O 0.0579(2) 0.5796(4) 0.8952(3)
O6F O 0.45198(13) 0.7014(3) 1.3357(2)
O6G O 0.54802(13) 0.7014(3) 1.1643(2)
O6A O -0.04802(13) 0.7986(3) 0.8357(2)
O7A O 0.47171(13) 0.5893(3) 0.55747(19)
O7D O 0.47171(13) 0.4107(3) 1.05747(19)
O7F O -0.02829(13) 0.9107(3) 1.05747(19)
O7B O 0.02829(13) 1.0893(3) 0.94253(19)
O8F O 0.22271(17) 0.9606(5) 1.4900(2)
O9F O 0.32468(14) 0.9048(4) 1.5525(2)
loop_
_geom_bond_atom_site_label_1
_geom_bond_atom_site_label_2
_geom_bond_site_symmetry_1
_geom_bond_site_symmetry_2
H1 O5 1_555 1_555
H2 O5 1_555 1_555
Eu1 O1 1_555 1_555
C1 C2 1_555 1_555
C2 C3 1_555 1_555
C3 H3 1_555 1_555
C4 C3 1_555 1_555
C5 C4 1_555 1_555
H4 C5 1_555 1_555
C6 C2 1_555 1_555
H5 C6 1_555 1_555
C7 C8 1_555 1_555
C8 H6 1_555 1_555
H7 C8 1_555 1_555
C9 C10 1_555 1_555
C10 C5 1_555 1_555
N1 C4 1_555 1_555
O1 C1 1_555 1_555
O2 Eu1 1_555 1_555
O3 Eu1 1_555 1_555
O4 C9 1_555 1_555
O5 Eu1 1_555 1_555
O6 C9 1_555 1_555
O7 Eu1 1_555 1_555
O8 N1 1_555 1_555
O9 N1 1_555 1_555
H1F O5F 1_555 1_555
H2F O5F 1_555 1_555
Eu1F O4 1_555 1_555
Eu1G O6 1_555 1_555
Eu1D O7 1_555 1_555
Eu1A O3A 1_555 1_555
Eu1E O7A 1_555 1_555
Eu1A_2 O6F 1_555 1_555
C1F C2F 1_555 1_555
C2F C3F 1_555 1_555
C3F H3F 1_555 1_555
C4F C3F 1_555 1_555
C5F C4F 1_555 1_555
H4F C5F 1_555 1_555
C6F C2F 1_555 1_555
H5F C6F 1_555 1_555
C7A C8A 1_555 1_555
C8A C8 1_555 1_555
H6A C8A 1_555 1_555
H7A C8A 1_555 1_555
C9F C10F 1_555 1_555
C10F C5F 1_555 1_555
N1F C4F 1_555 1_555
O1F Eu1F 1_555 1_555
O2F Eu1F 1_555 1_555
O3A C7A 1_555 1_555
O3F Eu1F 1_555 1_555
O4F Eu1 1_555 1_555
O5F Eu1F 1_555 1_555
O6F C9F 1_555 1_555
O6G Eu1 1_555 1_555
O6A Eu1F 1_555 1_555
O7A Eu1A 1_555 1_555
O7D Eu1 1_555 1_555
O7F Eu1F 1_555 1_555
O7B Eu1F 1_555 1_555
O8F N1F 1_555 1_555
O9F N1F 1_555 1_555
C1 O2 1_555 1_555
C6 C10 1_555 1_555
C7 O3 1_555 1_555
C7 O7 1_555 1_555
Eu1D O7D 1_555 1_555
C1F O1F 1_555 1_555
C1F O2F 1_555 1_555
C6F C10F 1_555 1_555
C7A O7A 1_555 1_555
C9F O4F 1_555 1_555

#END
