
#######################################################################
#
#                 Cambridge Crystallographic Data Centre
#                                CCDC 
#
#######################################################################
#
# If this CIF has been generated from an entry in the Cambridge 
# Structural Database, then it will include bibliographic, chemical, 
# crystal, experimental, refinement or atomic coordinate data resulting 
# from the CCDC's data processing and validation procedures.
#
#######################################################################

data_VUWGUP
_symmetry_cell_setting           monoclinic
_symmetry_space_group_name_H-M   'C 2/c'
_symmetry_Int_Tables_number      15
_space_group_name_Hall           '-C 2yn'
loop_
_symmetry_equiv_pos_site_id
_symmetry_equiv_pos_as_xyz
1 x,y,z
2 1/2+x,1/2+y,z
3 -x,y,1/2-z
4 1/2-x,1/2+y,1/2-z
5 -x,-y,-z
6 1/2-x,1/2-y,-z
7 x,-y,1/2+z
8 1/2+x,1/2-y,1/2+z
_cell_length_a                   11.403(2)
_cell_length_b                   13.943(3)
_cell_length_c                   7.722(2)
_cell_angle_alpha                90
_cell_angle_beta                 93.93(2)
_cell_angle_gamma                90
_cell_volume                     1224.85
loop_
_atom_site_label
_atom_site_type_symbol
_atom_site_fract_x
_atom_site_fract_y
_atom_site_fract_z
Cu1 Cu 0.0000 0.3685(1) 0.2500
N1 N 0.0546(1) 0.2589(1) 0.1082(2)
C1 C 0.1050(2) 0.2639(1) -0.0430(2)
C2 C 0.1319(2) 0.1817(1) -0.1323(2)
C3 C 0.1057(2) 0.0946(2) -0.0571(3)
N2 N 0.0543(1) 0.0884(1) 0.0932(2)
C4 C 0.0304(1) 0.1711(1) 0.1680(2)
N3 N 0.0974(1) 0.4628(1) 0.1437(2)
C5 C 0.1402(1) 0.5339(1) 0.1037(2)
S1 S -0.2012(1) 0.3663(1) -0.0451(1)
H1 H 0.1229 0.3255 -0.0904
H2 H 0.1671 0.1847 -0.2416
H3 H 0.1250 0.0365 -0.1154
N1B N -0.0546(1) 0.2589(1) 0.3918(2)
N3B N -0.0974(1) 0.4628(1) 0.3563(2)
S1B S 0.2012(1) 0.3663(1) 0.5451(1)
C4B C -0.0304(1) 0.1711(1) 0.3320(2)
S1D S 0.2012(1) 0.6337(1) 0.0451(1)
C5D C -0.1402(1) 0.4661(1) -0.1037(2)
C1B C -0.1050(2) 0.2639(1) 0.5430(2)
C5B C -0.1402(1) 0.5339(1) 0.3963(2)
C5F C 0.1402(1) 0.4661(1) 0.6037(2)
N2B N -0.0543(1) 0.0884(1) 0.4068(2)
Cu1D Cu 0.0000 0.6315(1) -0.2500
N3D N -0.0974(1) 0.5372(1) -0.1437(2)
C2B C -0.1319(2) 0.1817(1) 0.6323(2)
H1B H -0.1229 0.3255 0.5904
S1F S -0.2012(1) 0.6337(1) 0.4549(1)
N3F N 0.0974(1) 0.5372(1) 0.6437(2)
C3B C -0.1057(2) 0.0946(2) 0.5571(3)
N1D N -0.0546(1) 0.7411(1) -0.1082(2)
N1F N 0.0546(1) 0.7411(1) -0.3918(2)
N3F_2 N 0.0974(1) 0.5372(1) -0.3563(2)
S1F_2 S -0.2012(1) 0.6337(1) -0.5451(1)
H2B H -0.1671 0.1847 0.7416
Cu1D_2 Cu 0.0000 0.6315(1) 0.7500
H3B H -0.1250 0.0365 0.6154
C1D C -0.1050(2) 0.7361(1) 0.0430(2)
C4D C -0.0304(1) 0.8289(1) -0.1680(2)
C1F C 0.1050(2) 0.7361(1) -0.5430(2)
C4F C 0.0304(1) 0.8289(1) -0.3320(2)
C2D C -0.1319(2) 0.8183(1) 0.1323(2)
H1D H -0.1229 0.6745 0.0904
N2D N -0.0543(1) 0.9116(1) -0.0932(2)
C2F C 0.1319(2) 0.8183(1) -0.6323(2)
H1F H 0.1229 0.6745 -0.5904
N2F N 0.0543(1) 0.9116(1) -0.4068(2)
C3D C -0.1057(2) 0.9054(2) 0.0571(3)
H2D H -0.1671 0.8153 0.2416
C3F C 0.1057(2) 0.9054(2) -0.5571(3)
H2F H 0.1671 0.8153 -0.7416
H3D H -0.1250 0.9635 0.1154
H3F H 0.1250 0.9635 -0.6154
loop_
_geom_bond_atom_site_label_1
_geom_bond_atom_site_label_2
_geom_bond_site_symmetry_1
_geom_bond_site_symmetry_2
Cu1 N1 1_555 1_555
N1 C1 1_555 1_555
C1 C2 1_555 1_555
C2 C3 1_555 1_555
C3 N2 1_555 1_555
N2 C4 1_555 1_555
C4 N1 1_555 1_555
N3 Cu1 1_555 1_555
C5 N3 1_555 1_555
S1 Cu1 1_555 1_555
H1 C1 1_555 1_555
H2 C2 1_555 1_555
H3 C3 1_555 1_555
N1B Cu1 1_555 1_555
N3B Cu1 1_555 1_555
S1B Cu1 1_555 1_555
C4B C4 1_555 1_555
S1D C5 1_555 1_555
C5D S1 1_555 1_555
C1B N1B 1_555 1_555
C5B N3B 1_555 1_555
C5F S1B 1_555 1_555
N2B C4B 1_555 1_555
Cu1D S1D 1_555 1_555
N3D C5D 1_555 1_555
C2B C1B 1_555 1_555
H1B C1B 1_555 1_555
S1F C5B 1_555 1_555
N3F C5F 1_555 1_555
C3B N2B 1_555 1_555
N1D Cu1D 1_555 1_555
N1F Cu1D 1_555 1_555
N3F_2 Cu1D 1_555 1_555
S1F_2 Cu1D 1_555 1_555
H2B C2B 1_555 1_555
Cu1D_2 S1F 1_555 1_555
H3B C3B 1_555 1_555
C1D N1D 1_555 1_555
C4D N1D 1_555 1_555
C1F N1F 1_555 1_555
C4F N1F 1_555 1_555
C2D C1D 1_555 1_555
H1D C1D 1_555 1_555
N2D C4D 1_555 1_555
C2F C1F 1_555 1_555
H1F C1F 1_555 1_555
N2F C4F 1_555 1_555
C3D C2D 1_555 1_555
H2D C2D 1_555 1_555
C3F C2F 1_555 1_555
H2F C2F 1_555 1_555
H3D C3D 1_555 1_555
H3F C3F 1_555 1_555
N1B C4B 1_555 1_555
Cu1D N3D 1_555 1_555
C2B C3B 1_555 1_555
N3F Cu1D_2 1_555 1_555
C4D C4F 1_555 1_555
N2D C3D 1_555 1_555
N2F C3F 1_555 1_555

#END
