
#######################################################################
#
#                 Cambridge Crystallographic Data Centre
#                                CCDC 
#
#######################################################################
#
# If this CIF has been generated from an entry in the Cambridge 
# Structural Database, then it will include bibliographic, chemical, 
# crystal, experimental, refinement or atomic coordinate data resulting 
# from the CCDC's data processing and validation procedures.
#
#######################################################################

data_VUWGIE
_symmetry_cell_setting           monoclinic
_symmetry_space_group_name_H-M   'C 2/c'
_symmetry_Int_Tables_number      15
_space_group_name_Hall           '-C 2yn'
loop_
_symmetry_equiv_pos_site_id
_symmetry_equiv_pos_as_xyz
1 x,y,z
2 -x,y,1/2-z
3 1/2+x,1/2+y,z
4 1/2-x,1/2+y,1/2-z
5 -x,-y,-z
6 x,-y,1/2+z
7 1/2-x,1/2-y,-z
8 1/2+x,1/2-y,1/2+z
_cell_length_a                   20.9717(11)
_cell_length_b                   8.8751(4)
_cell_length_c                   13.4118(7)
_cell_angle_alpha                90
_cell_angle_beta                 105.9860(10)
_cell_angle_gamma                90
_cell_volume                     2399.75
loop_
_atom_site_label
_atom_site_type_symbol
_atom_site_fract_x
_atom_site_fract_y
_atom_site_fract_z
H1 H 0.417(3) 0.446(8) 1.100(5)
H2 H 0.455(2) 0.491(7) 1.068(4)
Tm1 Tm 0.450479(10) 0.16880(3) 1.046455(15)
C1 C 0.3375(3) 0.1781(6) 0.8868(4)
C2 C 0.2751(3) 0.1827(6) 0.7977(4)
C3 C 0.2770(3) 0.1268(7) 0.7022(4)
H3 H 0.3155 0.0838 0.6932
C4 C 0.2201(3) 0.1368(6) 0.6204(4)
C5 C 0.1623(3) 0.1958(6) 0.6313(4)
H4 H 0.1249 0.2007 0.5747
C6 C 0.2169(3) 0.2436(6) 0.8106(4)
H5 H 0.2161 0.2814 0.8749
C7 C 0.5189(3) 0.2120(7) 0.8959(4)
C8 C 0.5332(3) 0.2223(7) 0.7920(4)
H6 H 0.5599 0.1371 0.7825
H7 H 0.5575 0.3140 0.7880
C9 C 0.0964(3) 0.3123(6) 0.7405(4)
C10 C 0.1597(2) 0.2485(6) 0.7280(4)
N1 N 0.2228(2) 0.0864(5) 0.5169(3)
O1 O 0.34253(18) 0.2647(5) 0.9637(3)
O2 O 0.38328(18) 0.0898(5) 0.8834(3)
O3 O 0.52786(19) 0.0869(5) 0.9446(3)
O4 O 0.04614(19) 0.3056(4) 0.6656(3)
O5 O 0.4460(3) 0.4150(5) 1.1073(4)
O6 O 0.09761(19) 0.3715(4) 0.8268(3)
O7 O 0.4940(2) 0.3196(4) 0.9310(3)
O8 O 0.2753(2) 0.0408(5) 0.5072(3)
O9 O 0.17206(19) 0.0959(5) 0.4445(3)
H1F H 0.083(3) 0.054(8) 0.900(5)
H2F H 0.045(2) 0.009(7) 0.932(4)
Tm1D Tm 0.549521(10) -0.16880(3) 0.953545(15)
Tm1G Tm -0.049521(10) 0.33120(3) 0.546455(15)
Tm1F Tm 0.049521(10) 0.33120(3) 0.953545(15)
Tm1A Tm 0.549521(10) 0.16880(3) 0.453545(15)
Tm1E Tm 0.450479(10) -0.16880(3) 0.546455(15)
Tm1A_2 Tm 0.549521(10) 0.16880(3) 1.453545(15)
C1F C 0.1625(3) 0.3219(6) 1.1132(4)
C2F C 0.2249(3) 0.3173(6) 1.2023(4)
C3F C 0.2230(3) 0.3732(7) 1.2978(4)
H3F H 0.1845 0.4162 1.3068
C4F C 0.2799(3) 0.3632(6) 1.3796(4)
C5F C 0.3377(3) 0.3042(6) 1.3687(4)
H4F H 0.3751 0.2993 1.4253
C6F C 0.2831(3) 0.2564(6) 1.1894(4)
H5F H 0.2839 0.2186 1.1251
C7A C 0.4811(3) 0.2120(7) 0.6041(4)
C8A C 0.4668(3) 0.2223(7) 0.7080(4)
H6A H 0.4401 0.1371 0.7175
H7A H 0.4425 0.3140 0.7120
C9F C 0.4036(3) 0.1877(6) 1.2595(4)
C10F C 0.3403(2) 0.2515(6) 1.2720(4)
N1F N 0.2772(2) 0.4136(5) 1.4831(3)
O1F O 0.15747(18) 0.2353(5) 1.0363(3)
O2F O 0.11672(18) 0.4102(5) 1.1166(3)
O3A O 0.47214(19) 0.0869(5) 0.5554(3)
O3D O 0.47214(19) -0.0869(5) 1.0554(3)
O3B O 0.02786(19) 0.5869(5) 0.9446(3)
O3F O -0.02786(19) 0.4131(5) 1.0554(3)
O4G O 0.54614(19) 0.1944(4) 1.1656(3)
O4A O -0.04614(19) 0.3056(4) 0.8344(3)
O4F O 0.45386(19) 0.1944(4) 1.3344(3)
O5F O 0.0540(3) 0.0850(5) 0.8927(4)
O6F O 0.40239(19) 0.1285(4) 1.1732(3)
O7A O 0.5060(2) 0.3196(4) 0.5690(3)
O7F O 0.0060(2) 0.1804(4) 1.0690(3)
O8F O 0.2247(2) 0.4592(5) 1.4928(3)
O9F O 0.32794(19) 0.4041(5) 1.5555(3)
loop_
_geom_bond_atom_site_label_1
_geom_bond_atom_site_label_2
_geom_bond_site_symmetry_1
_geom_bond_site_symmetry_2
H1 O5 1_555 1_555
H2 O5 1_555 1_555
Tm1 O1 1_555 1_555
C1 C2 1_555 1_555
C2 C3 1_555 1_555
C3 H3 1_555 1_555
C4 C3 1_555 1_555
C5 C4 1_555 1_555
H4 C5 1_555 1_555
C6 C2 1_555 1_555
H5 C6 1_555 1_555
C7 C8 1_555 1_555
C8 H6 1_555 1_555
H7 C8 1_555 1_555
C9 C10 1_555 1_555
C10 C5 1_555 1_555
N1 C4 1_555 1_555
O1 C1 1_555 1_555
O2 Tm1 1_555 1_555
O3 Tm1 1_555 1_555
O4 C9 1_555 1_555
O5 Tm1 1_555 1_555
O6 C9 1_555 1_555
O7 Tm1 1_555 1_555
O8 N1 1_555 1_555
O9 N1 1_555 1_555
H1F O5F 1_555 1_555
H2F O5F 1_555 1_555
Tm1D O3 1_555 1_555
Tm1G O4 1_555 1_555
Tm1F O6 1_555 1_555
Tm1A O3A 1_555 1_555
Tm1E O3A 1_555 1_555
Tm1A_2 O4F 1_555 1_555
C1F C2F 1_555 1_555
C2F C3F 1_555 1_555
C3F H3F 1_555 1_555
C4F C3F 1_555 1_555
C5F C4F 1_555 1_555
H4F C5F 1_555 1_555
C6F C2F 1_555 1_555
H5F C6F 1_555 1_555
C7A C8A 1_555 1_555
C8A C8 1_555 1_555
H6A C8A 1_555 1_555
H7A C8A 1_555 1_555
C9F C10F 1_555 1_555
C10F C5F 1_555 1_555
N1F C4F 1_555 1_555
O1F Tm1F 1_555 1_555
O2F Tm1F 1_555 1_555
O3A C7A 1_555 1_555
O3D Tm1 1_555 1_555
O3B Tm1F 1_555 1_555
O3F Tm1F 1_555 1_555
O4G Tm1 1_555 1_555
O4A Tm1F 1_555 1_555
O4F C9F 1_555 1_555
O5F Tm1F 1_555 1_555
O6F Tm1 1_555 1_555
O7A Tm1A 1_555 1_555
O7F Tm1F 1_555 1_555
O8F N1F 1_555 1_555
O9F N1F 1_555 1_555
C1 O2 1_555 1_555
C6 C10 1_555 1_555
C7 O3 1_555 1_555
C7 O7 1_555 1_555
Tm1D O3D 1_555 1_555
C1F O1F 1_555 1_555
C1F O2F 1_555 1_555
C6F C10F 1_555 1_555
C7A O7A 1_555 1_555
C9F O6F 1_555 1_555

#END
