
#######################################################################
#
#                 Cambridge Crystallographic Data Centre
#                                CCDC 
#
#######################################################################
#
# If this CIF has been generated from an entry in the Cambridge 
# Structural Database, then it will include bibliographic, chemical, 
# crystal, experimental, refinement or atomic coordinate data resulting 
# from the CCDC's data processing and validation procedures.
#
#######################################################################

data_VUWGAW
_symmetry_cell_setting           monoclinic
_symmetry_space_group_name_H-M   'C 2/c'
_symmetry_Int_Tables_number      15
_space_group_name_Hall           '-C 2yn'
loop_
_symmetry_equiv_pos_site_id
_symmetry_equiv_pos_as_xyz
1 x,y,z
2 -x,y,1/2-z
3 1/2+x,1/2+y,z
4 1/2-x,1/2+y,1/2-z
5 -x,-y,-z
6 x,-y,1/2+z
7 1/2-x,1/2-y,-z
8 1/2+x,1/2-y,1/2+z
_cell_length_a                   21.0230(6)
_cell_length_b                   8.9147(3)
_cell_length_c                   13.4567(4)
_cell_angle_alpha                90
_cell_angle_beta                 105.8500(10)
_cell_angle_gamma                90
_cell_volume                     2426.09
loop_
_atom_site_label
_atom_site_type_symbol
_atom_site_fract_x
_atom_site_fract_y
_atom_site_fract_z
H1 H 0.413(2) 0.545(5) 0.097(4)
H2 H 0.4535(16) 0.511(5) 0.061(3)
H3 H 0.184(2) 0.584(5) 0.307(3)
Ho1 Ho 0.450220(8) 0.83079(2) 0.046394(12)
C1 C 0.4027(2) 0.8121(4) 0.2598(3)
C2 C 0.3399(2) 0.7480(4) 0.2729(3)
C3 C 0.3376(2) 0.6942(4) 0.3691(3)
H4 H 0.3751 0.6968 0.4252
C4 C 0.2792(2) 0.6373(5) 0.3796(3)
C5 C 0.2225(2) 0.6280(5) 0.2985(3)
C6 C 0.2829(2) 0.7431(4) 0.1905(3)
H5 H 0.2839 0.7807 0.1265
C7 C 0.5198(2) 0.7891(5) -0.1047(3)
C8 C 0.5332(2) 0.7783(5) -0.2081(3)
H6 H 0.5573 0.6868 -0.2123
H7 H 0.5598 0.8629 -0.2181
C9 C 0.1635(2) 0.6783(4) 0.1147(4)
C10 C 0.2250(2) 0.6829(4) 0.2030(3)
N1 N 0.27686(18) 0.5865(4) 0.4826(3)
O1 O 0.40193(14) 0.8709(3) 0.1744(2)
O2 O 0.45318(15) 0.8034(3) 0.3345(2)
O3 O 0.49475(16) 0.6796(3) -0.0692(2)
O4 O 0.11687(14) 0.5902(3) 0.1178(2)
O5 O 0.44513(18) 0.5833(4) 0.1069(3)
O6 O 0.15827(14) 0.7646(3) 0.0377(2)
O7 O 0.52865(15) 0.9125(3) -0.0559(2)
O8 O 0.32707(15) 0.5953(4) 0.5551(2)
O9 O 0.22431(18) 0.5398(4) 0.4924(3)
H1F H 0.087(2) 0.955(5) -0.097(4)
H2F H 0.0465(16) 0.989(5) -0.061(3)
H3F H 0.316(2) 0.916(5) -0.307(3)
Ho1A Ho 0.549780(8) 0.83079(2) 0.453606(12)
Ho1F Ho 0.049780(8) 0.66921(2) -0.046394(12)
Ho1D Ho 0.549780(8) 1.16921(2) -0.046394(12)
Ho1A_2 Ho 0.549780(8) 0.83079(2) -0.546394(12)
Ho1E Ho 0.450220(8) 1.16921(2) -0.453606(12)
Ho1G Ho -0.049780(8) 0.66921(2) -0.453606(12)
C1F C 0.0973(2) 0.6879(4) -0.2598(3)
C2F C 0.1601(2) 0.7520(4) -0.2729(3)
C3F C 0.1624(2) 0.8058(4) -0.3691(3)
H4F H 0.1249 0.8032 -0.4252
C4F C 0.2208(2) 0.8627(5) -0.3796(3)
C5F C 0.2775(2) 0.8720(5) -0.2985(3)
C6F C 0.2171(2) 0.7569(4) -0.1905(3)
H5F H 0.2161 0.7193 -0.1265
C7A C 0.4802(2) 0.7891(5) -0.3953(3)
C8A C 0.4668(2) 0.7783(5) -0.2919(3)
H6A H 0.4427 0.6868 -0.2877
H7A H 0.4402 0.8629 -0.2819
C9F C 0.3365(2) 0.8217(4) -0.1147(4)
C10F C 0.2750(2) 0.8171(4) -0.2030(3)
N1F N 0.22314(18) 0.9135(4) -0.4826(3)
O1F O 0.09807(14) 0.6291(3) -0.1744(2)
O2A O 0.54682(15) 0.8034(3) 0.1655(2)
O2G O -0.04682(15) 0.6966(3) -0.1655(2)
O2F O 0.04682(15) 0.6966(3) -0.3345(2)
O3A O 0.50525(16) 0.6796(3) -0.4308(2)
O3F O 0.00525(16) 0.8204(3) 0.0692(2)
O4F O 0.38313(14) 0.9098(3) -0.1178(2)
O5F O 0.05487(18) 0.9167(4) -0.1069(3)
O6F O 0.34173(14) 0.7354(3) -0.0377(2)
O7A O 0.47135(15) 0.9125(3) -0.4441(2)
O7D O 0.47135(15) 1.0875(3) 0.0559(2)
O7B O 0.02865(15) 0.4125(3) -0.0559(2)
O7F O -0.02865(15) 0.5875(3) 0.0559(2)
O8F O 0.17293(15) 0.9047(4) -0.5551(2)
O9F O 0.27569(18) 0.9602(4) -0.4924(3)
loop_
_geom_bond_atom_site_label_1
_geom_bond_atom_site_label_2
_geom_bond_site_symmetry_1
_geom_bond_site_symmetry_2
H1 O5 1_555 1_555
H2 O5 1_555 1_555
H3 C5 1_555 1_555
Ho1 O1 1_555 1_555
C1 C2 1_555 1_555
C2 C3 1_555 1_555
C3 H4 1_555 1_555
C4 C3 1_555 1_555
C5 C4 1_555 1_555
C6 C2 1_555 1_555
H5 C6 1_555 1_555
C7 C8 1_555 1_555
C8 H6 1_555 1_555
H7 C8 1_555 1_555
C9 C10 1_555 1_555
C10 C5 1_555 1_555
N1 C4 1_555 1_555
O1 C1 1_555 1_555
O2 C1 1_555 1_555
O3 Ho1 1_555 1_555
O4 C9 1_555 1_555
O5 Ho1 1_555 1_555
O6 C9 1_555 1_555
O7 Ho1 1_555 1_555
O8 N1 1_555 1_555
O9 N1 1_555 1_555
H1F O5F 1_555 1_555
H2F O5F 1_555 1_555
H3F C5F 1_555 1_555
Ho1A O2 1_555 1_555
Ho1F O4 1_555 1_555
Ho1D O7 1_555 1_555
Ho1A_2 O3A 1_555 1_555
Ho1E O7A 1_555 1_555
Ho1G O2F 1_555 1_555
C1F C2F 1_555 1_555
C2F C3F 1_555 1_555
C3F H4F 1_555 1_555
C4F C3F 1_555 1_555
C5F C4F 1_555 1_555
C6F C2F 1_555 1_555
H5F C6F 1_555 1_555
C7A C8A 1_555 1_555
C8A C8 1_555 1_555
H6A C8A 1_555 1_555
H7A C8A 1_555 1_555
C9F C10F 1_555 1_555
C10F C5F 1_555 1_555
N1F C4F 1_555 1_555
O1F Ho1F 1_555 1_555
O2A Ho1 1_555 1_555
O2G Ho1F 1_555 1_555
O2F C1F 1_555 1_555
O3A C7A 1_555 1_555
O3F Ho1F 1_555 1_555
O4F Ho1 1_555 1_555
O5F Ho1F 1_555 1_555
O6F Ho1 1_555 1_555
O7A Ho1A_2 1_555 1_555
O7D Ho1 1_555 1_555
O7B Ho1F 1_555 1_555
O7F Ho1F 1_555 1_555
O8F N1F 1_555 1_555
O9F N1F 1_555 1_555
C6 C10 1_555 1_555
C7 O3 1_555 1_555
C7 O7 1_555 1_555
O6 Ho1F 1_555 1_555
Ho1D O7D 1_555 1_555
C1F O1F 1_555 1_555
C6F C10F 1_555 1_555
C7A O7A 1_555 1_555
C9F O4F 1_555 1_555
C9F O6F 1_555 1_555

#END
