
#######################################################################
#
#                 Cambridge Crystallographic Data Centre
#                                CCDC 
#
#######################################################################
#
# If this CIF has been generated from an entry in the Cambridge 
# Structural Database, then it will include bibliographic, chemical, 
# crystal, experimental, refinement or atomic coordinate data resulting 
# from the CCDC's data processing and validation procedures.
#
#######################################################################

data_VUWGEA
_symmetry_cell_setting           monoclinic
_symmetry_space_group_name_H-M   'C 2/c'
_symmetry_Int_Tables_number      15
_space_group_name_Hall           '-C 2yn'
loop_
_symmetry_equiv_pos_site_id
_symmetry_equiv_pos_as_xyz
1 x,y,z
2 -x,y,1/2-z
3 1/2+x,1/2+y,z
4 1/2-x,1/2+y,1/2-z
5 -x,-y,-z
6 x,-y,1/2+z
7 1/2-x,1/2-y,-z
8 1/2+x,1/2-y,1/2+z
_cell_length_a                   20.997(2)
_cell_length_b                   8.8943(8)
_cell_length_c                   13.4302(12)
_cell_angle_alpha                90
_cell_angle_beta                 105.906(2)
_cell_angle_gamma                90
_cell_volume                     2412.11
loop_
_atom_site_label
_atom_site_type_symbol
_atom_site_fract_x
_atom_site_fract_y
_atom_site_fract_z
H1 H 0.409(4) 0.959(8) 1.090(5)
H2 H 0.472(6) 0.975(12) 1.113(8)
Er1 Er 0.450432(11) 0.66903(3) 1.046463(16)
C1 C 0.3371(3) 0.6789(6) 0.8860(4)
C2 C 0.2751(3) 0.6824(6) 0.7973(4)
C3 C 0.2772(3) 0.6272(6) 0.7011(4)
H3 H 0.3157 0.5848 0.6916
C4 C 0.2199(3) 0.6377(6) 0.6202(4)
C5 C 0.1619(3) 0.6953(6) 0.6310(4)
H4 H 0.1243 0.6988 0.5750
C6 C 0.2169(3) 0.7427(6) 0.8106(4)
H5 H 0.2159 0.7792 0.8750
C7 C 0.5193(3) 0.7106(6) 0.8952(4)
C8 C 0.5328(3) 0.7218(7) 0.7912(4)
H6 H 0.5595 0.6371 0.7810
H7 H 0.5568 0.8136 0.7870
C9 C 0.0969(3) 0.8128(6) 0.7402(4)
C10 C 0.1602(3) 0.7484(6) 0.7274(4)
N1 N 0.2230(2) 0.5868(5) 0.5167(3)
O1 O 0.34200(18) 0.7646(4) 0.9630(3)
O2 O 0.38322(18) 0.5892(4) 0.8831(3)
O3 O 0.4942(2) 0.8195(4) 0.9306(3)
O4 O 0.09790(18) 0.8719(4) 0.8264(3)
O5 O 0.4448(3) 0.9157(5) 1.1065(4)
O6 O 0.04656(18) 0.8030(4) 0.6656(3)
O7 O 0.52829(18) 0.5875(4) 0.9450(3)
O8 O 0.1724(2) 0.5952(5) 0.4452(3)
O9 O 0.2755(2) 0.5403(5) 0.5071(3)
H1F H 0.091(4) 0.541(8) 0.910(5)
H2F H 0.028(6) 0.525(12) 0.887(8)
Er1F Er 0.049568(11) 0.83097(3) 0.953537(16)
Er1G Er -0.049568(11) 0.83097(3) 0.546463(16)
Er1D Er 0.549568(11) 0.33097(3) 0.953537(16)
Er1A Er 0.549568(11) 0.66903(3) 0.453537(16)
Er1E Er 0.450432(11) 0.33097(3) 0.546463(16)
Er1A_2 Er 0.549568(11) 0.66903(3) 1.453537(16)
C1F C 0.1629(3) 0.8211(6) 1.1140(4)
C2F C 0.2249(3) 0.8176(6) 1.2027(4)
C3F C 0.2228(3) 0.8728(6) 1.2989(4)
H3F H 0.1843 0.9152 1.3084
C4F C 0.2801(3) 0.8623(6) 1.3798(4)
C5F C 0.3381(3) 0.8047(6) 1.3690(4)
H4F H 0.3757 0.8012 1.4250
C6F C 0.2831(3) 0.7573(6) 1.1894(4)
H5F H 0.2841 0.7208 1.1250
C7A C 0.4807(3) 0.7106(6) 0.6048(4)
C8A C 0.4672(3) 0.7218(7) 0.7088(4)
H6A H 0.4405 0.6371 0.7190
H7A H 0.4432 0.8136 0.7130
C9F C 0.4031(3) 0.6872(6) 1.2598(4)
C10F C 0.3398(3) 0.7516(6) 1.2726(4)
N1F N 0.2770(2) 0.9132(5) 1.4833(3)
O1F O 0.15800(18) 0.7354(4) 1.0370(3)
O2F O 0.11678(18) 0.9108(4) 1.1169(3)
O3A O 0.5058(2) 0.8195(4) 0.5694(3)
O3F O 0.0058(2) 0.6805(4) 1.0694(3)
O4F O 0.40210(18) 0.6281(4) 1.1736(3)
O5F O 0.0552(3) 0.5843(5) 0.8935(4)
O6F O 0.45344(18) 0.6970(4) 1.3344(3)
O6G O 0.54656(18) 0.6970(4) 1.1656(3)
O6A O -0.04656(18) 0.8030(4) 0.8344(3)
O7A O 0.47171(18) 0.5875(4) 0.5550(3)
O7D O 0.47171(18) 0.4125(4) 1.0550(3)
O7F O -0.02829(18) 0.9125(4) 1.0550(3)
O7B O 0.02829(18) 1.0875(4) 0.9450(3)
O8F O 0.3276(2) 0.9048(5) 1.5548(3)
O9F O 0.2245(2) 0.9597(5) 1.4929(3)
loop_
_geom_bond_atom_site_label_1
_geom_bond_atom_site_label_2
_geom_bond_site_symmetry_1
_geom_bond_site_symmetry_2
H1 O5 1_555 1_555
H2 O5 1_555 1_555
Er1 O1 1_555 1_555
C1 C2 1_555 1_555
C2 C3 1_555 1_555
C3 H3 1_555 1_555
C4 C3 1_555 1_555
C5 C4 1_555 1_555
H4 C5 1_555 1_555
C6 C2 1_555 1_555
H5 C6 1_555 1_555
C7 C8 1_555 1_555
C8 H6 1_555 1_555
H7 C8 1_555 1_555
C9 C10 1_555 1_555
C10 C5 1_555 1_555
N1 C4 1_555 1_555
O1 C1 1_555 1_555
O2 Er1 1_555 1_555
O3 Er1 1_555 1_555
O4 C9 1_555 1_555
O5 Er1 1_555 1_555
O6 C9 1_555 1_555
O7 Er1 1_555 1_555
O8 N1 1_555 1_555
O9 N1 1_555 1_555
H1F O5F 1_555 1_555
H2F O5F 1_555 1_555
Er1F O4 1_555 1_555
Er1G O6 1_555 1_555
Er1D O7 1_555 1_555
Er1A O3A 1_555 1_555
Er1E O7A 1_555 1_555
Er1A_2 O6F 1_555 1_555
C1F C2F 1_555 1_555
C2F C3F 1_555 1_555
C3F H3F 1_555 1_555
C4F C3F 1_555 1_555
C5F C4F 1_555 1_555
H4F C5F 1_555 1_555
C6F C2F 1_555 1_555
H5F C6F 1_555 1_555
C7A C8A 1_555 1_555
C8A C8 1_555 1_555
H6A C8A 1_555 1_555
H7A C8A 1_555 1_555
C9F C10F 1_555 1_555
C10F C5F 1_555 1_555
N1F C4F 1_555 1_555
O1F Er1F 1_555 1_555
O2F Er1F 1_555 1_555
O3A C7A 1_555 1_555
O3F Er1F 1_555 1_555
O4F Er1 1_555 1_555
O5F Er1F 1_555 1_555
O6F C9F 1_555 1_555
O6G Er1 1_555 1_555
O6A Er1F 1_555 1_555
O7A Er1A 1_555 1_555
O7D Er1 1_555 1_555
O7F Er1F 1_555 1_555
O7B Er1F 1_555 1_555
O8F N1F 1_555 1_555
O9F N1F 1_555 1_555
C1 O2 1_555 1_555
C6 C10 1_555 1_555
C7 O3 1_555 1_555
C7 O7 1_555 1_555
Er1D O7D 1_555 1_555
C1F O1F 1_555 1_555
C1F O2F 1_555 1_555
C6F C10F 1_555 1_555
C7A O7A 1_555 1_555
C9F O4F 1_555 1_555

#END
