
#######################################################################
#
#                 Cambridge Crystallographic Data Centre
#                                CCDC 
#
#######################################################################
#
# If this CIF has been generated from an entry in the Cambridge 
# Structural Database, then it will include bibliographic, chemical, 
# crystal, experimental, refinement or atomic coordinate data resulting 
# from the CCDC's data processing and validation procedures.
#
#######################################################################

data_VUWHUR
_symmetry_cell_setting           orthorhombic
_symmetry_space_group_name_H-M   'P 21 21 21'
_symmetry_Int_Tables_number      19
_space_group_name_Hall           'P 2ac 2ab'
loop_
_symmetry_equiv_pos_site_id
_symmetry_equiv_pos_as_xyz
1 x,y,z
2 1/2-x,-y,1/2+z
3 -x,1/2+y,1/2-z
4 1/2+x,1/2-y,-z
_cell_length_a                   9.1291(10)
_cell_length_b                   10.1560(11)
_cell_length_c                   17.0129(18)
_cell_angle_alpha                90
_cell_angle_beta                 90
_cell_angle_gamma                90
_cell_volume                     1577.35
loop_
_atom_site_label
_atom_site_type_symbol
_atom_site_fract_x
_atom_site_fract_y
_atom_site_fract_z
Mn1 Mn 0.40235(3) 1.04468(2) 0.773763(15)
O1 O 0.27285(16) 1.18142(12) 0.84753(8)
O2 O 0.11409(16) 1.19903(13) 0.94708(8)
O3 O 0.46859(14) 0.82225(11) 0.76179(7)
O4 O 0.49026(15) 0.63238(13) 0.82653(8)
N1 N 0.31600(16) 0.93132(14) 0.87528(8)
N2 N 0.20514(19) 1.00490(16) 0.70103(10)
N3 N 0.0346(2) 0.9037(2) 0.63336(12)
H3 H -0.0113 0.8422 0.6088
N4 N 0.61398(18) 1.05542(17) 0.83910(9)
N5 N 0.7758(2) 1.0756(2) 0.93310(12)
H4 H 0.8145 1.0972 0.9773
C1 C 0.2362(2) 0.99516(17) 0.92872(11)
C2 C 0.1902(2) 0.93433(19) 0.99734(11)
H5 H 0.1334 0.9793 1.0339
C3 C 0.2312(2) 0.8049(2) 1.00990(12)
H6 H 0.2028 0.7619 1.0557
C4 C 0.3147(2) 0.73933(18) 0.95402(11)
H7 H 0.3432 0.6524 0.9619
C5 C 0.35445(19) 0.80577(17) 0.88644(10)
C6 C 0.2040(2) 1.13727(18) 0.90686(11)
C7 C 0.44448(19) 0.74960(17) 0.81914(11)
C8 C 0.0937(3) 1.0905(2) 0.68524(14)
H8 H 0.0909 1.1782 0.7009
C9 C -0.0117(3) 1.0293(3) 0.64355(16)
H9 H -0.0988 1.0658 0.6254
C10 C 0.1646(3) 0.8931(2) 0.66841(13)
H10 H 0.2198 0.8162 0.6697
C11 C 0.7407(2) 0.9942(3) 0.81792(15)
H11 H 0.7559 0.9501 0.7707
C12 C 0.8404(3) 1.0071(3) 0.87542(18)
H12 H 0.9357 0.9748 0.8752
C13 C 0.6402(3) 1.1039(2) 0.90908(13)
H13 H 0.5728 1.1521 0.9383
Mn1B Mn 0.59765(3) 0.54468(2) 0.726237(15)
O4B O 0.50974(15) 1.13238(13) 0.67347(8)
O5 O 0.3664(2) 0.41788(15) 0.90801(9)
H1 H 0.4183 0.4675 0.8811
H2 H 0.3369 0.3553 0.8806
loop_
_geom_bond_atom_site_label_1
_geom_bond_atom_site_label_2
_geom_bond_site_symmetry_1
_geom_bond_site_symmetry_2
Mn1 O1 1_555 1_555
O1 C6 1_555 1_555
O2 C6 1_555 1_555
O3 Mn1 1_555 1_555
O4 C7 1_555 1_555
O5 H1 1_555 1_555
H2 O5 1_555 1_555
N1 Mn1 1_555 1_555
N2 Mn1 1_555 1_555
N3 H3 1_555 1_555
N4 Mn1 1_555 1_555
N5 H4 1_555 1_555
C1 N1 1_555 1_555
C2 C1 1_555 1_555
H5 C2 1_555 1_555
C3 C2 1_555 1_555
H6 C3 1_555 1_555
C4 C3 1_555 1_555
H7 C4 1_555 1_555
C5 N1 1_555 1_555
C6 C1 1_555 1_555
C7 O3 1_555 1_555
C8 N2 1_555 1_555
H8 C8 1_555 1_555
C9 N3 1_555 1_555
H9 C9 1_555 1_555
C10 N2 1_555 1_555
H10 C10 1_555 1_555
C11 N4 1_555 1_555
H11 C11 1_555 1_555
C12 N5 1_555 1_555
H12 C12 1_555 1_555
C13 N4 1_555 1_555
H13 C13 1_555 1_555
Mn1B O4 1_555 1_555
O4B Mn1 1_555 1_555
N3 C10 1_555 1_555
N5 C13 1_555 1_555
C4 C5 1_555 1_555
C5 C7 1_555 1_555
C8 C9 1_555 1_555
C11 C12 1_555 1_555

#END
