
#######################################################################
#
#                 Cambridge Crystallographic Data Centre
#                                CCDC 
#
#######################################################################
#
# If this CIF has been generated from an entry in the Cambridge 
# Structural Database, then it will include bibliographic, chemical, 
# crystal, experimental, refinement or atomic coordinate data resulting 
# from the CCDC's data processing and validation procedures.
#
#######################################################################

data_VUWHAW01
_symmetry_cell_setting           orthorhombic
_symmetry_space_group_name_H-M   'F d d d'
_symmetry_Int_Tables_number      70
_space_group_name_Hall           '-F 2uv 2vw'
loop_
_symmetry_equiv_pos_site_id
_symmetry_equiv_pos_as_xyz
1 x,y,z
2 x,1/2+y,1/2+z
3 1/2+x,y,1/2+z
4 1/2+x,1/2+y,z
5 -x,1/4+y,1/4+z
6 -x,3/4+y,3/4+z
7 1/2-x,1/4+y,3/4+z
8 1/2-x,3/4+y,1/4+z
9 1/4+x,-y,1/4+z
10 1/4+x,1/2-y,3/4+z
11 3/4+x,-y,3/4+z
12 3/4+x,1/2-y,1/4+z
13 1/4-x,3/4-y,1/2+z
14 1/4-x,1/4-y,z
15 3/4-x,3/4-y,z
16 3/4-x,1/4-y,1/2+z
17 -x,-y,-z
18 -x,1/2-y,1/2-z
19 1/2-x,-y,1/2-z
20 1/2-x,1/2-y,-z
21 x,3/4-y,3/4-z
22 x,1/4-y,1/4-z
23 1/2+x,3/4-y,1/4-z
24 1/2+x,1/4-y,3/4-z
25 3/4-x,y,3/4-z
26 3/4-x,1/2+y,1/4-z
27 1/4-x,y,1/4-z
28 1/4-x,1/2+y,3/4-z
29 3/4+x,1/4+y,1/2-z
30 3/4+x,3/4+y,-z
31 1/4+x,1/4+y,-z
32 1/4+x,3/4+y,1/2-z
_cell_length_a                   12.811(1)
_cell_length_b                   22.473(1)
_cell_length_c                   24.259(1)
_cell_angle_alpha                90
_cell_angle_beta                 90
_cell_angle_gamma                90
_cell_volume                     6984.2
loop_
_atom_site_label
_atom_site_type_symbol
_atom_site_fract_x
_atom_site_fract_y
_atom_site_fract_z
Cu1 Cu 0.6250 0.1250 1.0118(1)
Cu2 Cu 0.3750 0.2525(1) 0.8750
S1 S 0.3963(1) 0.1179(1) 1.0232(1)
S2 S 0.6027(1) 0.2639(1) 0.8679(1)
N1 N 0.6244(4) 0.0658(2) 1.0762(2)
N2 N 0.3748(4) 0.3225(2) 0.8203(2)
N3 N 0.6273(5) 0.1877(2) 0.9579(2)
N4 N 0.3728(5) 0.1948(2) 0.9335(3)
C1 C 0.6250 0.0925(3) 1.1250
C2 C 0.6242(5) 0.0064(2) 1.0759(2)
C3 C 0.6250 -0.0258(3) 1.1250
C4 C 0.6158(5) 0.2189(2) 0.9197(2)
C5 C 0.3841(5) 0.1624(2) 0.9706(3)
C6 C 0.3748(6) 0.3229(3) 0.7641(2)
C7 C 0.3750 0.3750 0.7366(3)
C8 C 0.3750 0.3750 0.8446(3)
H1 H 0.625(7) -0.012(3) 1.051(3)
H2 H 0.625 -0.060(5) 1.125
H3 H 0.372(7) 0.293(4) 0.749(3)
H4 H 0.375 0.375 0.699(5)
N1Z N 0.6256(4) 0.0658(2) 1.1738(2)
C2Z C 0.6258(5) 0.0064(2) 1.1741(2)
H1Z H 0.625(7) -0.012(3) 1.199(3)
C1M C 0.6250 0.1575(3) 1.1250
N1M N 0.6256(4) 0.1842(2) 1.0762(2)
C2M C 0.6258(5) 0.2436(2) 1.0759(2)
C3M C 0.6250 0.2758(3) 1.1250
C2U C 0.6242(5) 0.2436(2) 1.1741(2)
N1U N 0.6244(4) 0.1842(2) 1.1738(2)
H1U H 0.625(7) 0.262(3) 1.199(3)
H2M H 0.625 0.310(5) 1.125
H1M H 0.625(7) 0.262(3) 1.051(3)
C6N C 0.3752(6) 0.4271(3) 0.7641(2)
N2N N 0.3752(4) 0.4275(2) 0.8203(2)
C8T C 0.3750 0.3750 0.9054(3)
N2T N 0.3748(4) 0.4275(2) 0.9297(2)
C6T C 0.3748(6) 0.4271(3) 0.9859(2)
C7T C 0.3750 0.3750 1.0134(3)
C6X C 0.3752(6) 0.3229(3) 0.9859(2)
N2X N 0.3752(4) 0.3225(2) 0.9297(2)
H3X H 0.378(7) 0.293(4) 1.001(3)
H4T H 0.375 0.375 1.051(5)
H3T H 0.372(7) 0.457(4) 1.001(3)
H3N H 0.378(7) 0.457(4) 0.749(3)
S1M S 0.8537(1) 0.1321(1) 1.0232(1)
N4M N 0.8772(5) 0.0552(2) 0.9335(3)
C5M C 0.8659(5) 0.0876(2) 0.9706(3)
S2M S 0.6473(1) -0.0139(1) 0.8679(1)
N3M N 0.6227(5) 0.0623(2) 0.9579(2)
C4M C 0.6342(5) 0.0311(2) 0.9197(2)
Cu1Z Cu 0.6250 0.1250 1.2382(1)
Cu2M Cu 0.8750 -0.0025(1) 0.8750
S2X S 0.1473(1) 0.2639(1) 0.8821(1)
N3X N 0.1227(5) 0.1877(2) 0.7921(2)
C4X C 0.1342(5) 0.2189(2) 0.8303(2)
S1X S 0.3537(1) 0.1179(1) 0.7268(1)
N4X N 0.3772(5) 0.1948(2) 0.8165(3)
C5X C 0.3659(5) 0.1624(2) 0.7794(3)
S1Z S 0.8537(1) 0.1179(1) 1.2268(1)
N4Z N 0.8772(5) 0.1948(2) 1.3165(3)
C5Z C 0.8659(5) 0.1624(2) 1.2794(3)
S2Z S 0.6473(1) 0.2639(1) 1.3821(1)
N3Z N 0.6227(5) 0.1877(2) 1.2921(2)
C4Z C 0.6342(5) 0.2189(2) 1.3303(2)
Cu2N Cu 0.3750 0.4975(1) 0.8750
S1U S 0.3963(1) 0.1321(1) 1.2268(1)
N3U N 0.6273(5) 0.0623(2) 1.2921(2)
S2W S 1.1027(1) -0.0139(1) 0.8821(1)
N2M N 0.8752(4) -0.0725(2) 0.8203(2)
N2W N 0.8748(4) -0.0725(2) 0.9297(2)
N4W N 0.8728(5) 0.0552(2) 0.8165(3)
Cu1W Cu 0.1250 0.1250 0.7382(1)
Cu2B Cu 0.8750 0.2525(1) 1.3750
loop_
_geom_bond_atom_site_label_1
_geom_bond_atom_site_label_2
_geom_bond_site_symmetry_1
_geom_bond_site_symmetry_2
Cu1 S1 1_555 1_555
Cu2 S2 1_555 1_555
S1 C5 1_555 1_555
S2 C4 1_555 1_555
N1 Cu1 1_555 1_555
N2 Cu2 1_555 1_555
N3 Cu1 1_555 1_555
N4 Cu2 1_555 1_555
C1 N1 1_555 1_555
C2 N1 1_555 1_555
C3 C2 1_555 1_555
C4 N3 1_555 1_555
C5 N4 1_555 1_555
C6 N2 1_555 1_555
C7 C6 1_555 1_555
C8 N2 1_555 1_555
H1 C2 1_555 1_555
H2 C3 1_555 1_555
H3 C6 1_555 1_555
H4 C7 1_555 1_555
N1Z C1 1_555 1_555
C2Z C3 1_555 1_555
H1Z C2Z 1_555 1_555
C1M C1 1_555 1_555
N1M Cu1 1_555 1_555
C2M N1M 1_555 1_555
C3M C2M 1_555 1_555
C2U C3M 1_555 1_555
N1U C1M 1_555 1_555
H1U C2U 1_555 1_555
H2M C3M 1_555 1_555
H1M C2M 1_555 1_555
C6N C7 1_555 1_555
N2N C8 1_555 1_555
C8T C8 1_555 1_555
N2T C8T 1_555 1_555
C6T N2T 1_555 1_555
C7T C6T 1_555 1_555
C6X C7T 1_555 1_555
N2X Cu2 1_555 1_555
H3X C6X 1_555 1_555
H4T C7T 1_555 1_555
H3T C6T 1_555 1_555
H3N C6N 1_555 1_555
S1M Cu1 1_555 1_555
N4M C5M 1_555 1_555
C5M S1M 1_555 1_555
S2M C4M 1_555 1_555
N3M Cu1 1_555 1_555
C4M N3M 1_555 1_555
Cu1Z N1Z 1_555 1_555
Cu2M N4M 1_555 1_555
S2X Cu2 1_555 1_555
N3X C4X 1_555 1_555
C4X S2X 1_555 1_555
S1X C5X 1_555 1_555
N4X Cu2 1_555 1_555
C5X N4X 1_555 1_555
S1Z Cu1Z 1_555 1_555
N4Z C5Z 1_555 1_555
C5Z S1Z 1_555 1_555
S2Z C4Z 1_555 1_555
N3Z Cu1Z 1_555 1_555
C4Z N3Z 1_555 1_555
Cu2N N2N 1_555 1_555
S1U Cu1Z 1_555 1_555
N3U Cu1Z 1_555 1_555
S2W Cu2M 1_555 1_555
N2M Cu2M 1_555 1_555
N2W Cu2M 1_555 1_555
N4W Cu2M 1_555 1_555
Cu1W N3X 1_555 1_555
Cu2B N4Z 1_555 1_555
N1Z C2Z 1_555 1_555
C1M N1M 1_555 1_555
C2U N1U 1_555 1_555
N1U Cu1Z 1_555 1_555
C6N N2N 1_555 1_555
C8T N2X 1_555 1_555
N2T Cu2N 1_555 1_555
C6X N2X 1_555 1_555
S2M Cu2M 1_555 1_555
S1X Cu1W 1_555 1_555
S2Z Cu2B 1_555 1_555

#END
