
#######################################################################
#
#                 Cambridge Crystallographic Data Centre
#                                CCDC 
#
#######################################################################
#
# If this CIF has been generated from an entry in the Cambridge 
# Structural Database, then it will include bibliographic, chemical, 
# crystal, experimental, refinement or atomic coordinate data resulting 
# from the CCDC's data processing and validation procedures.
#
#######################################################################

data_VUWJON
_symmetry_cell_setting           monoclinic
_symmetry_space_group_name_H-M   'P 2/c'
_symmetry_Int_Tables_number      13
_space_group_name_Hall           '-P 2yc'
loop_
_symmetry_equiv_pos_site_id
_symmetry_equiv_pos_as_xyz
1 x,y,z
2 -x,y,1/2-z
3 -x,-y,-z
4 x,-y,1/2+z
_cell_length_a                   26.39(3)
_cell_length_b                   4.971(5)
_cell_length_c                   7.527(8)
_cell_angle_alpha                90
_cell_angle_beta                 94.918(18)
_cell_angle_gamma                90
_cell_volume                     983.792
loop_
_atom_site_label
_atom_site_type_symbol
_atom_site_fract_x
_atom_site_fract_y
_atom_site_fract_z
O1 O 0.4119(2) 0.4929(10) 0.4888(7)
H1 H 0.5000 0.0000 0.5000
C1 C 0.3960(3) 0.2567(16) 0.5119(9)
C2 C 0.3466(3) 0.1967(15) 0.5918(10)
H2 H 0.3481 0.2735 0.7135
H3 H 0.3428 -0.0007 0.6023
C3 C 0.2999(3) 0.3094(15) 0.4823(10)
H4 H 0.3011 0.2558 0.3561
H5 H 0.3008 0.5083 0.4880
C4 C 0.2503(3) 0.2088(15) 0.5498(11)
H6 H 0.2498 0.2587 0.6769
H7 H 0.2495 0.0100 0.5423
C5 C 0.2022(3) 0.3215(16) 0.4459(11)
H8 H 0.2034 0.2797 0.3177
H9 H 0.2019 0.5197 0.4588
C6 C 0.1530(3) 0.2054(16) 0.5105(13)
H10 H 0.1530 0.0078 0.4940
H11 H 0.1526 0.2417 0.6397
C7 C 0.1050(3) 0.3207(18) 0.4137(13)
H12 H 0.1056 0.2851 0.2844
H13 H 0.1050 0.5182 0.4306
C8 C 0.0556(3) 0.2036(19) 0.4778(15)
H14 H 0.0262 0.2853 0.4099
H15 H 0.0543 0.2427 0.6049
H16 H 0.0550 0.0085 0.4593
N1 N 0.4215(2) 0.0419(12) 0.4653(7)
H17 H 0.4091 -0.1191 0.4842
O2 O 0.46682(19) 0.0640(12) 0.3878(6)
K1 K 0.5000 0.4602(5) 0.7500
O1B O 0.5881(2) -0.4929(10) 0.5112(7)
O1A O 0.5881(2) 0.4929(10) 1.0112(7)
C1B C 0.6040(3) -0.2567(16) 0.4881(9)
C2B C 0.6534(3) -0.1967(15) 0.4082(10)
H2B H 0.6519 -0.2735 0.2865
H3B H 0.6572 0.0007 0.3977
C3B C 0.7001(3) -0.3094(15) 0.5177(10)
H4B H 0.6989 -0.2558 0.6439
H5B H 0.6992 -0.5083 0.5120
C4B C 0.7497(3) -0.2088(15) 0.4502(11)
H6B H 0.7502 -0.2587 0.3231
H7B H 0.7505 -0.0100 0.4577
C5B C 0.7978(3) -0.3215(16) 0.5541(11)
H8B H 0.7966 -0.2797 0.6823
H9B H 0.7981 -0.5197 0.5412
C6B C 0.8470(3) -0.2054(16) 0.4895(13)
H10B H 0.8470 -0.0078 0.5060
H11B H 0.8474 -0.2417 0.3603
C7B C 0.8950(3) -0.3207(18) 0.5863(13)
H12B H 0.8944 -0.2851 0.7156
H13B H 0.8950 -0.5182 0.5694
C8B C 0.9444(3) -0.2036(19) 0.5222(15)
H14B H 0.9738 -0.2853 0.5901
H15B H 0.9457 -0.2427 0.3951
H16B H 0.9450 -0.0085 0.5407
N1B N 0.5785(2) -0.0419(12) 0.5347(7)
H17B H 0.5909 0.1191 0.5158
O2B O 0.53318(19) -0.0640(12) 0.6122(6)
O2B_2 O 0.53318(19) 0.9360(12) 0.6122(6)
O2C O 0.46682(19) -0.0640(12) 0.8878(6)
O2C_2 O 0.46682(19) 0.9360(12) 0.8878(6)
K1B K 0.5000 -0.4602(5) 0.2500
K1B_2 K 0.5000 0.5398(5) 0.2500
K1_2 K 0.5000 -0.5398(5) 0.7500
loop_
_geom_bond_atom_site_label_1
_geom_bond_atom_site_label_2
_geom_bond_site_symmetry_1
_geom_bond_site_symmetry_2
O1 C1 1_555 1_555
H1 O2 1_555 1_555
C1 C2 1_555 1_555
C2 H2 1_555 1_555
H3 C2 1_555 1_555
C3 C2 1_555 1_555
H4 C3 1_555 1_555
H5 C3 1_555 1_555
C4 C3 1_555 1_555
H6 C4 1_555 1_555
H7 C4 1_555 1_555
C5 C4 1_555 1_555
H8 C5 1_555 1_555
H9 C5 1_555 1_555
C6 C5 1_555 1_555
H10 C6 1_555 1_555
H11 C6 1_555 1_555
C7 C6 1_555 1_555
H12 C7 1_555 1_555
H13 C7 1_555 1_555
C8 C7 1_555 1_555
H14 C8 1_555 1_555
H15 C8 1_555 1_555
H16 C8 1_555 1_555
N1 C1 1_555 1_555
H17 N1 1_555 1_555
O2 N1 1_555 1_555
K1 O1 1_555 1_555
O1B C1B 1_555 1_555
O1A K1 1_555 1_555
C1B C2B 1_555 1_555
C2B H2B 1_555 1_555
H3B C2B 1_555 1_555
C3B C2B 1_555 1_555
H4B C3B 1_555 1_555
H5B C3B 1_555 1_555
C4B C3B 1_555 1_555
H6B C4B 1_555 1_555
H7B C4B 1_555 1_555
C5B C4B 1_555 1_555
H8B C5B 1_555 1_555
H9B C5B 1_555 1_555
C6B C5B 1_555 1_555
H10B C6B 1_555 1_555
H11B C6B 1_555 1_555
C7B C6B 1_555 1_555
H12B C7B 1_555 1_555
H13B C7B 1_555 1_555
C8B C7B 1_555 1_555
H14B C8B 1_555 1_555
H15B C8B 1_555 1_555
H16B C8B 1_555 1_555
N1B C1B 1_555 1_555
H17B N1B 1_555 1_555
O2B H1 1_555 1_555
O2B_2 K1 1_555 1_555
O2C K1 1_555 1_555
O2C_2 K1 1_555 1_555
K1B O2 1_555 1_555
K1B_2 O2 1_555 1_555
K1_2 O2B 1_555 1_555
K1 O2B 1_555 1_555
O1B K1B 1_555 1_555
N1B O2B 1_555 1_555
O2C K1_2 1_555 1_555

#END
