
#######################################################################
#
#                 Cambridge Crystallographic Data Centre
#                                CCDC 
#
#######################################################################
#
# If this CIF has been generated from an entry in the Cambridge 
# Structural Database, then it will include bibliographic, chemical, 
# crystal, experimental, refinement or atomic coordinate data resulting 
# from the CCDC's data processing and validation procedures.
#
#######################################################################

data_VUWJAZ
_symmetry_cell_setting           triclinic
_symmetry_space_group_name_H-M   'P -1'
_symmetry_Int_Tables_number      2
_space_group_name_Hall           '-P 1'
loop_
_symmetry_equiv_pos_site_id
_symmetry_equiv_pos_as_xyz
1 x,y,z
2 -x,-y,-z
_cell_length_a                   7.8020(9)
_cell_length_b                   12.8907(14)
_cell_length_c                   15.7288(17)
_cell_angle_alpha                100.0480(10)
_cell_angle_beta                 101.2490(10)
_cell_angle_gamma                103.2040(10)
_cell_volume                     1470.21
loop_
_atom_site_label
_atom_site_type_symbol
_atom_site_fract_x
_atom_site_fract_y
_atom_site_fract_z
Zn1 Zn 0.45289(5) 0.24780(3) 0.13403(2)
Zn2 Zn 0.11886(5) 0.22232(3) 0.41147(2)
O1 O 0.4533(3) 0.17177(17) -0.00064(13)
O2 O 0.3406(3) 0.01652(19) -0.10580(14)
O3 O 0.3393(3) 0.24124(17) 0.25941(13)
O4 O 0.1601(3) 0.12241(19) 0.31494(14)
O5 O 0.6765(3) 0.19149(19) 0.18329(16)
H1 H 0.6623 0.1289 0.1553
H2 H 0.7666 0.2183 0.2233
O6 O 0.6358(3) 0.39697(17) 0.17601(15)
H3 H 0.5822 0.4448 0.1772
H4 H 0.7305 0.4153 0.2165
O7 O 0.3180(3) 0.2247(2) 0.52423(16)
O8 O 0.5062(4) 0.3374(3) 0.64864(16)
O9 O -0.0320(3) 0.30503(18) 0.31879(14)
O10 O -0.0531(3) 0.4710(2) 0.30265(16)
N1 N 0.2823(3) 0.09220(19) 0.11100(15)
N2 N 0.2690(3) 0.3345(2) 0.08229(16)
N3 N 0.2102(3) 0.3839(2) 0.46898(16)
N4 N -0.1045(4) 0.1376(2) 0.44344(18)
C1 C 0.2052(4) 0.0596(2) 0.17394(19)
C2 C 0.1041(5) -0.0473(3) 0.1620(2)
H15 H 0.0482 -0.0691 0.2054
C3 C 0.0883(5) -0.1210(3) 0.0837(2)
H16 H 0.0245 -0.1939 0.0749
C4 C 0.1674(4) -0.0862(3) 0.0183(2)
H17 H 0.1555 -0.1349 -0.0351
C5 C 0.2641(4) 0.0219(2) 0.03377(19)
C6 C 0.2397(4) 0.1500(3) 0.25606(19)
C7 C 0.3592(4) 0.0730(2) -0.03006(19)
C8 C 0.1431(5) 0.3596(3) 0.1207(2)
H18 H 0.1266 0.3334 0.1708
C9 C 0.0354(6) 0.4225(4) 0.0903(3)
H19 H -0.0525 0.4368 0.1195
C10 C 0.0559(4) 0.4650(3) 0.0170(2)
C11 C 0.1859(5) 0.4376(3) -0.0231(2)
H20 H 0.2045 0.4623 -0.0736
C12 C 0.2891(5) 0.3738(3) 0.0109(2)
H21 H 0.3769 0.3574 -0.0174
C13 C 0.3324(4) 0.4132(3) 0.5477(2)
C14 C 0.3991(5) 0.5217(3) 0.5933(2)
H22 H 0.4830 0.5418 0.6482
C15 C 0.3376(5) 0.5995(3) 0.5551(2)
H23 H 0.3802 0.6729 0.5847
C16 C 0.2127(4) 0.5689(3) 0.4729(2)
H24 H 0.1721 0.6208 0.4464
C17 C 0.1505(4) 0.4580(3) 0.4316(2)
C18 C 0.3905(5) 0.3163(3) 0.5767(2)
C19 C 0.0102(4) 0.4084(3) 0.3432(2)
C20 C -0.1006(6) 0.1181(4) 0.5229(3)
H25 H 0.0096 0.1422 0.5654
C21 C -0.2518(6) 0.0638(4) 0.5465(3)
H26 H -0.2400 0.0509 0.6034
C22 C -0.4163(5) 0.0290(3) 0.4884(2)
C23 C -0.4200(6) 0.0489(5) 0.4071(3)
H27 H -0.5293 0.0267 0.3640
C24 C -0.2638(6) 0.1019(5) 0.3869(3)
H28 H -0.2721 0.1129 0.3296
Zn1A Zn -0.45289(5) 0.75220(3) -0.13403(2)
Zn2A Zn -0.11886(5) 0.77768(3) -0.41147(2)
Zn2A_2 Zn -1.11886(5) -0.22232(3) 0.58853(2)
O1A O -0.4533(3) 0.82823(17) 0.00064(13)
O2A O -0.3406(3) 0.98348(19) 0.10580(14)
O3A O -0.3393(3) 0.75876(17) -0.25941(13)
O4A O -0.1601(3) 0.87759(19) -0.31494(14)
O5A O -0.6765(3) 0.80851(19) -0.18329(16)
H1A H -0.6623 0.8711 -0.1553
H2A H -0.7666 0.7817 -0.2233
O6A O -0.6358(3) 0.60303(17) -0.17601(15)
H3A H -0.5822 0.5552 -0.1772
H4A H -0.7305 0.5847 -0.2165
O7A O -0.3180(3) 0.7753(2) -0.52423(16)
O8A O -0.5062(4) 0.6626(3) -0.64864(16)
O9A O 0.0320(3) 0.69497(18) -0.31879(14)
O10A O 0.0531(3) 0.5290(2) -0.30265(16)
N1A N -0.2823(3) 0.90780(19) -0.11100(15)
N2A N -0.2690(3) 0.6655(2) -0.08229(16)
N3A N -0.2102(3) 0.6161(2) -0.46898(16)
N4A N -0.8955(4) -0.1376(2) 0.55656(18)
N4A_2 N 0.1045(4) 0.8624(2) -0.44344(18)
C1A C -0.2052(4) 0.9404(2) -0.17394(19)
C2A C -0.1041(5) 1.0473(3) -0.1620(2)
H15A H -0.0482 1.0691 -0.2054
C3A C -0.0883(5) 1.1210(3) -0.0837(2)
H16A H -0.0245 1.1939 -0.0749
C4A C -0.1674(4) 1.0862(3) -0.0183(2)
H17A H -0.1555 1.1349 0.0351
C5A C -0.2641(4) 0.9781(2) -0.03377(19)
C6A C -0.2397(4) 0.8500(3) -0.25606(19)
C7A C -0.3592(4) 0.9270(2) 0.03006(19)
C8A C -0.1431(5) 0.6404(3) -0.1207(2)
H18A H -0.1266 0.6666 -0.1708
C9A C -0.0354(6) 0.5775(4) -0.0903(3)
H19A H 0.0525 0.5632 -0.1195
C10A C -0.0559(4) 0.5350(3) -0.0170(2)
C11A C -0.1859(5) 0.5624(3) 0.0231(2)
H20A H -0.2045 0.5377 0.0736
C12A C -0.2891(5) 0.6262(3) -0.0109(2)
H21A H -0.3769 0.6426 0.0174
C13A C -0.3324(4) 0.5868(3) -0.5477(2)
C14A C -0.3991(5) 0.4783(3) -0.5933(2)
H22A H -0.4830 0.4582 -0.6482
C15A C -0.3376(5) 0.4005(3) -0.5551(2)
H23A H -0.3802 0.3271 -0.5847
C16A C -0.2127(4) 0.4311(3) -0.4729(2)
H24A H -0.1721 0.3792 -0.4464
C17A C -0.1505(4) 0.5420(3) -0.4316(2)
C18A C -0.3905(5) 0.6837(3) -0.5767(2)
C19A C -0.0102(4) 0.5916(3) -0.3432(2)
C20A C -0.8994(6) -0.1181(4) 0.4771(3)
H25A H -1.0096 -0.1422 0.4346
C21A C -0.7482(6) -0.0638(4) 0.4535(3)
H26A H -0.7600 -0.0509 0.3966
C22A C -0.5837(5) -0.0290(3) 0.5116(2)
C23A C -0.5800(6) -0.0489(5) 0.5929(3)
H27A H -0.4707 -0.0267 0.6360
C24A C -0.7362(6) -0.1019(5) 0.6131(3)
H28A H -0.7279 -0.1129 0.6704
O11 O 0.5520(4) 0.5853(2) 0.18897(18)
H5 H 0.5005 0.6153 0.1532
H6 H 0.5249 0.5986 0.2375
O12 O 0.9422(7) 0.7044(5) 0.2805(4)
H7 H 0.8917 0.7494 0.2540
H8 H 0.9940 0.6759 0.2461
O13 O 0.6413(4) 0.3008(2) 0.90408(18)
H9 H 0.5736 0.2550 0.9235
H10 H 0.6612 0.2685 0.8578
O14 O 0.7073(5) 0.2187(3) 0.7388(2)
H11 H 0.8099 0.2644 0.7565
H12 H 0.6426 0.2398 0.6995
O15 O 0.2725(9) 0.1251(6) 0.7461(4)
H13 H 0.3840 0.1542 0.7620
H14 H 0.2312 0.1283 0.6940
loop_
_geom_bond_atom_site_label_1
_geom_bond_atom_site_label_2
_geom_bond_site_symmetry_1
_geom_bond_site_symmetry_2
Zn1 O1 1_555 1_555
Zn2 O4 1_555 1_555
O1 C7 1_555 1_555
O2 C7 1_555 1_555
O3 Zn1 1_555 1_555
O4 C6 1_555 1_555
O5 Zn1 1_555 1_555
H1 O5 1_555 1_555
H2 O5 1_555 1_555
O6 Zn1 1_555 1_555
H3 O6 1_555 1_555
H4 O6 1_555 1_555
O7 Zn2 1_555 1_555
O8 C18 1_555 1_555
O9 Zn2 1_555 1_555
O10 C19 1_555 1_555
O11 H5 1_555 1_555
H6 O11 1_555 1_555
O12 H7 1_555 1_555
H8 O12 1_555 1_555
O13 H9 1_555 1_555
H10 O13 1_555 1_555
O14 H11 1_555 1_555
H12 O14 1_555 1_555
O15 H13 1_555 1_555
H14 O15 1_555 1_555
N1 Zn1 1_555 1_555
N2 Zn1 1_555 1_555
N3 Zn2 1_555 1_555
N4 Zn2 1_555 1_555
C1 N1 1_555 1_555
C2 C1 1_555 1_555
H15 C2 1_555 1_555
C3 C2 1_555 1_555
H16 C3 1_555 1_555
C4 C3 1_555 1_555
H17 C4 1_555 1_555
C5 N1 1_555 1_555
C6 O3 1_555 1_555
C7 C5 1_555 1_555
C8 N2 1_555 1_555
H18 C8 1_555 1_555
C9 C8 1_555 1_555
H19 C9 1_555 1_555
C10 C9 1_555 1_555
C11 C10 1_555 1_555
H20 C11 1_555 1_555
C12 N2 1_555 1_555
H21 C12 1_555 1_555
C13 N3 1_555 1_555
C14 C13 1_555 1_555
H22 C14 1_555 1_555
C15 C14 1_555 1_555
H23 C15 1_555 1_555
C16 C15 1_555 1_555
H24 C16 1_555 1_555
C17 N3 1_555 1_555
C18 O7 1_555 1_555
C19 O9 1_555 1_555
C20 N4 1_555 1_555
H25 C20 1_555 1_555
C21 C20 1_555 1_555
H26 C21 1_555 1_555
C22 C21 1_555 1_555
C23 C22 1_555 1_555
H27 C23 1_555 1_555
C24 N4 1_555 1_555
H28 C24 1_555 1_555
Zn1A O1A 1_555 1_555
Zn2A O4A 1_555 1_555
Zn2A_2 N4A 1_555 1_555
O1A C7A 1_555 1_555
O2A C7A 1_555 1_555
O3A Zn1A 1_555 1_555
O4A C6A 1_555 1_555
O5A Zn1A 1_555 1_555
H1A O5A 1_555 1_555
H2A O5A 1_555 1_555
O6A Zn1A 1_555 1_555
H3A O6A 1_555 1_555
H4A O6A 1_555 1_555
O7A Zn2A 1_555 1_555
O8A C18A 1_555 1_555
O9A Zn2A 1_555 1_555
O10A C19A 1_555 1_555
N1A Zn1A 1_555 1_555
N2A Zn1A 1_555 1_555
N3A Zn2A 1_555 1_555
N4A C20A 1_555 1_555
N4A_2 Zn2A 1_555 1_555
C1A N1A 1_555 1_555
C2A C1A 1_555 1_555
H15A C2A 1_555 1_555
C3A C2A 1_555 1_555
H16A C3A 1_555 1_555
C4A C3A 1_555 1_555
H17A C4A 1_555 1_555
C5A N1A 1_555 1_555
C6A O3A 1_555 1_555
C7A C5A 1_555 1_555
C8A N2A 1_555 1_555
H18A C8A 1_555 1_555
C9A C8A 1_555 1_555
H19A C9A 1_555 1_555
C10A C10 1_555 1_555
C11A C10A 1_555 1_555
H20A C11A 1_555 1_555
C12A N2A 1_555 1_555
H21A C12A 1_555 1_555
C13A N3A 1_555 1_555
C14A C13A 1_555 1_555
H22A C14A 1_555 1_555
C15A C14A 1_555 1_555
H23A C15A 1_555 1_555
C16A C15A 1_555 1_555
H24A C16A 1_555 1_555
C17A N3A 1_555 1_555
C18A O7A 1_555 1_555
C19A O9A 1_555 1_555
C20A H25A 1_555 1_555
C21A C20A 1_555 1_555
H26A C21A 1_555 1_555
C22A C22 1_555 1_555
C23A C22A 1_555 1_555
H27A C23A 1_555 1_555
C24A N4A 1_555 1_555
H28A C24A 1_555 1_555
C1 C6 1_555 1_555
C4 C5 1_555 1_555
C11 C12 1_555 1_555
C13 C18 1_555 1_555
C16 C17 1_555 1_555
C17 C19 1_555 1_555
C23 C24 1_555 1_555
C1A C6A 1_555 1_555
C4A C5A 1_555 1_555
C9A C10A 1_555 1_555
C11A C12A 1_555 1_555
C13A C18A 1_555 1_555
C16A C17A 1_555 1_555
C17A C19A 1_555 1_555
C21A C22A 1_555 1_555
C23A C24A 1_555 1_555

#END
