
#######################################################################
#
#                 Cambridge Crystallographic Data Centre
#                                CCDC 
#
#######################################################################
#
# If this CIF has been generated from an entry in the Cambridge 
# Structural Database, then it will include bibliographic, chemical, 
# crystal, experimental, refinement or atomic coordinate data resulting 
# from the CCDC's data processing and validation procedures.
#
#######################################################################

data_VUWNIL
_symmetry_cell_setting           monoclinic
_symmetry_space_group_name_H-M   'C 2/c'
_symmetry_Int_Tables_number      15
_space_group_name_Hall           '-C 2yn'
loop_
_symmetry_equiv_pos_site_id
_symmetry_equiv_pos_as_xyz
1 x,y,z
2 -x,y,1/2-z
3 1/2+x,1/2+y,z
4 1/2-x,1/2+y,1/2-z
5 -x,-y,-z
6 x,-y,1/2+z
7 1/2-x,1/2-y,-z
8 1/2+x,1/2-y,1/2+z
_cell_length_a                   25.850(5)
_cell_length_b                   9.1274(18)
_cell_length_c                   19.378(4)
_cell_angle_alpha                90
_cell_angle_beta                 131.51(3)
_cell_angle_gamma                90
_cell_volume                     3423.78
loop_
_atom_site_label
_atom_site_type_symbol
_atom_site_fract_x
_atom_site_fract_y
_atom_site_fract_z
Cd1 Cd 0.0000 -0.06345(4) 0.7500
S1 S 0.0000 -0.39780(12) 0.7500
O1 O 0.05561(13) -0.2980(3) 0.77485(18)
O2 O 0.02474(14) -0.4898(3) 0.82853(16)
N1 N 0.09070(13) 0.0910(3) 0.79482(18)
N2 N 0.15827(14) 0.2865(3) 0.83720(17)
N3 N 0.09168(14) 0.1782(3) 0.53571(17)
N4 N 0.05556(14) 0.0703(3) 0.40640(18)
C1 C 0.15982(16) 0.0437(3) 0.8521(2)
C2 C 0.18838(18) -0.0960(3) 0.8825(2)
H1 H 0.1610 -0.1784 0.8655
C3 C 0.26000(18) -0.1063(4) 0.9397(2)
H2 H 0.2808 -0.1979 0.9612
C4 C 0.30147(18) 0.0169(4) 0.9658(2)
H3 H 0.3491 0.0051 1.0046
C5 C 0.27367(17) 0.1558(4) 0.9355(2)
H4 H 0.3013 0.2376 0.9521
C6 C 0.20217(16) 0.1671(3) 0.8786(2)
C7 C 0.09331(17) 0.2349(4) 0.7898(2)
H5 H 0.0545 0.2948 0.7570
C8 C 0.17780(18) 0.4408(4) 0.8455(2)
H6 H 0.2263 0.4516 0.9001
H7 H 0.1514 0.4996 0.8546
C9 C 0.1665(2) 0.5010(4) 0.7638(2)
H8 H 0.1757 0.6055 0.7732
H9 H 0.1181 0.4889 0.7096
C10 C 0.2088(2) 0.4358(4) 0.7426(3)
H10 H 0.2557 0.4223 0.8006
H11 H 0.2106 0.5073 0.7072
C11 C 0.18443(18) 0.2903(4) 0.6903(2)
H12 H 0.2144 0.2642 0.6785
H13 H 0.1885 0.2142 0.7286
C12 C 0.11036(19) 0.2962(4) 0.5995(2)
H14 H 0.0798 0.2925 0.6121
H15 H 0.1029 0.3892 0.5699
C13 C 0.07168(18) 0.1952(4) 0.4516(2)
H16 H 0.0694 0.2859 0.4278
C14 C 0.08686(16) 0.0295(4) 0.5462(2)
C15 C 0.09576(18) -0.0473(4) 0.6152(2)
H17 H 0.1089 -0.0012 0.6676
C16 C 0.0839(2) -0.1967(5) 0.6016(3)
H18 H 0.0880 -0.2525 0.6452
C17 C 0.06580(19) -0.2653(4) 0.5238(3)
H19 H 0.0600 -0.3664 0.5184
C18 C 0.05618(18) -0.1887(4) 0.4543(3)
H20 H 0.0442 -0.2361 0.4029
C19 C 0.06548(17) -0.0359(4) 0.4652(2)
Cd1D Cd 0.0000 0.06345(4) 0.2500
O1A O -0.05561(13) -0.2980(3) 0.72515(18)
O2A O -0.02474(14) -0.4898(3) 0.67147(16)
N1D N -0.09070(13) -0.0910(3) 0.20518(18)
N1A N -0.09070(13) 0.0910(3) 0.70518(18)
N2D N -0.15827(14) -0.2865(3) 0.16280(17)
N3D N -0.09168(14) -0.1782(3) 0.46429(17)
N4D N -0.05556(14) -0.0703(3) 0.59360(18)
N4E N 0.05556(14) -0.0703(3) 0.90640(18)
C1D C -0.15982(16) -0.0437(3) 0.1479(2)
C2D C -0.18838(18) 0.0960(3) 0.1175(2)
H1D H -0.1610 0.1784 0.1345
C3D C -0.26000(18) 0.1063(4) 0.0603(2)
H2D H -0.2808 0.1979 0.0388
C4D C -0.30147(18) -0.0169(4) 0.0342(2)
H3D H -0.3491 -0.0051 -0.0046
C5D C -0.27367(17) -0.1558(4) 0.0645(2)
H4D H -0.3013 -0.2376 0.0479
C6D C -0.20217(16) -0.1671(3) 0.1214(2)
C7D C -0.09331(17) -0.2349(4) 0.2102(2)
H5D H -0.0545 -0.2948 0.2430
C8D C -0.17780(18) -0.4408(4) 0.1545(2)
H6D H -0.2263 -0.4516 0.0999
H7D H -0.1514 -0.4996 0.1454
C9D C -0.1665(2) -0.5010(4) 0.2362(2)
H8D H -0.1757 -0.6055 0.2268
H9D H -0.1181 -0.4889 0.2904
C10D C -0.2088(2) -0.4358(4) 0.2574(3)
H10D H -0.2557 -0.4223 0.1994
H11D H -0.2106 -0.5073 0.2928
C11D C -0.18443(18) -0.2903(4) 0.3097(2)
H12D H -0.2144 -0.2642 0.3215
H13D H -0.1885 -0.2142 0.2714
C12D C -0.11036(19) -0.2962(4) 0.4005(2)
H14D H -0.0798 -0.2925 0.3879
H15D H -0.1029 -0.3892 0.4301
C13D C -0.07168(18) -0.1952(4) 0.5484(2)
H16D H -0.0694 -0.2859 0.5722
C14D C -0.08686(16) -0.0295(4) 0.4538(2)
C15D C -0.09576(18) 0.0473(4) 0.3848(2)
H17D H -0.1089 0.0012 0.3324
C16D C -0.0839(2) 0.1967(5) 0.3984(3)
H18D H -0.0880 0.2525 0.3548
C17D C -0.06580(19) 0.2653(4) 0.4762(3)
H19D H -0.0600 0.3664 0.4816
C18D C -0.05618(18) 0.1887(4) 0.5457(3)
H20D H -0.0442 0.2361 0.5971
C19D C -0.06548(17) 0.0359(4) 0.5348(2)
loop_
_geom_bond_atom_site_label_1
_geom_bond_atom_site_label_2
_geom_bond_site_symmetry_1
_geom_bond_site_symmetry_2
Cd1 O1 1_555 1_555
S1 O1 1_555 1_555
O2 S1 1_555 1_555
N1 Cd1 1_555 1_555
N2 C6 1_555 1_555
N3 C12 1_555 1_555
N4 C13 1_555 1_555
C1 N1 1_555 1_555
C2 C1 1_555 1_555
H1 C2 1_555 1_555
C3 C2 1_555 1_555
H2 C3 1_555 1_555
C4 C3 1_555 1_555
H3 C4 1_555 1_555
C5 C4 1_555 1_555
H4 C5 1_555 1_555
C6 C1 1_555 1_555
C7 N1 1_555 1_555
H5 C7 1_555 1_555
C8 N2 1_555 1_555
H6 C8 1_555 1_555
H7 C8 1_555 1_555
C9 C8 1_555 1_555
H8 C9 1_555 1_555
H9 C9 1_555 1_555
C10 C9 1_555 1_555
H10 C10 1_555 1_555
H11 C10 1_555 1_555
C11 C10 1_555 1_555
H12 C11 1_555 1_555
H13 C11 1_555 1_555
C12 C11 1_555 1_555
H14 C12 1_555 1_555
H15 C12 1_555 1_555
C13 N3 1_555 1_555
H16 C13 1_555 1_555
C14 N3 1_555 1_555
C15 C14 1_555 1_555
H17 C15 1_555 1_555
C16 C15 1_555 1_555
H18 C16 1_555 1_555
C17 C16 1_555 1_555
H19 C17 1_555 1_555
C18 C17 1_555 1_555
H20 C18 1_555 1_555
C19 N4 1_555 1_555
Cd1D N4 1_555 1_555
O1A Cd1 1_555 1_555
O2A S1 1_555 1_555
N1D Cd1D 1_555 1_555
N1A Cd1 1_555 1_555
N2D C6D 1_555 1_555
N3D C12D 1_555 1_555
N4D Cd1 1_555 1_555
N4E Cd1 1_555 1_555
C1D N1D 1_555 1_555
C2D C1D 1_555 1_555
H1D C2D 1_555 1_555
C3D C2D 1_555 1_555
H2D C3D 1_555 1_555
C4D C3D 1_555 1_555
H3D C4D 1_555 1_555
C5D C4D 1_555 1_555
H4D C5D 1_555 1_555
C6D C1D 1_555 1_555
C7D N1D 1_555 1_555
H5D C7D 1_555 1_555
C8D N2D 1_555 1_555
H6D C8D 1_555 1_555
H7D C8D 1_555 1_555
C9D C8D 1_555 1_555
H8D C9D 1_555 1_555
H9D C9D 1_555 1_555
C10D C9D 1_555 1_555
H10D C10D 1_555 1_555
H11D C10D 1_555 1_555
C11D C10D 1_555 1_555
H12D C11D 1_555 1_555
H13D C11D 1_555 1_555
C12D C11D 1_555 1_555
H14D C12D 1_555 1_555
H15D C12D 1_555 1_555
C13D N3D 1_555 1_555
H16D C13D 1_555 1_555
C14D N3D 1_555 1_555
C15D C14D 1_555 1_555
H17D C15D 1_555 1_555
C16D C15D 1_555 1_555
H18D C16D 1_555 1_555
C17D C16D 1_555 1_555
H19D C17D 1_555 1_555
C18D C17D 1_555 1_555
H20D C18D 1_555 1_555
C19D N4D 1_555 1_555
S1 O1A 1_555 1_555
N2 C7 1_555 1_555
C5 C6 1_555 1_555
C14 C19 1_555 1_555
C18 C19 1_555 1_555
N2D C7D 1_555 1_555
N4D C13D 1_555 1_555
C5D C6D 1_555 1_555
C14D C19D 1_555 1_555
C18D C19D 1_555 1_555

#END
