
#######################################################################
#
#                 Cambridge Crystallographic Data Centre
#                                CCDC 
#
#######################################################################
#
# If this CIF has been generated from an entry in the Cambridge 
# Structural Database, then it will include bibliographic, chemical, 
# crystal, experimental, refinement or atomic coordinate data resulting 
# from the CCDC's data processing and validation procedures.
#
#######################################################################

data_VUWPIN
_symmetry_cell_setting           cubic
_symmetry_space_group_name_H-M   'P n -3 m'
_symmetry_Int_Tables_number      224
_space_group_name_Hall           '-P 4bc 2bc 3'
loop_
_symmetry_equiv_pos_site_id
_symmetry_equiv_pos_as_xyz
1 x,y,z
2 1/2-x,1/2-y,z
3 1/2-x,y,1/2-z
4 x,1/2-y,1/2-z
5 z,x,y
6 z,1/2-x,1/2-y
7 1/2-z,1/2-x,y
8 1/2-z,x,1/2-y
9 y,z,x
10 1/2-y,z,1/2-x
11 y,1/2-z,1/2-x
12 1/2-y,1/2-z,x
13 1/2+y,1/2+x,-z
14 -y,-x,-z
15 1/2+y,-x,1/2+z
16 -y,1/2+x,1/2+z
17 1/2+x,1/2+z,-y
18 -x,1/2+z,1/2+y
19 -x,-z,-y
20 1/2+x,-z,1/2+y
21 1/2+z,1/2+y,-x
22 1/2+z,-y,1/2+x
23 -z,1/2+y,1/2+x
24 -z,-y,-x
25 -x,-y,-z
26 1/2+x,1/2+y,-z
27 1/2+x,-y,1/2+z
28 -x,1/2+y,1/2+z
29 -z,-x,-y
30 -z,1/2+x,1/2+y
31 1/2+z,1/2+x,-y
32 1/2+z,-x,1/2+y
33 -y,-z,-x
34 1/2+y,-z,1/2+x
35 -y,1/2+z,1/2+x
36 1/2+y,1/2+z,-x
37 1/2-y,1/2-x,z
38 y,x,z
39 1/2-y,x,1/2-z
40 y,1/2-x,1/2-z
41 1/2-x,1/2-z,y
42 x,1/2-z,1/2-y
43 x,z,y
44 1/2-x,z,1/2-y
45 1/2-z,1/2-y,x
46 1/2-z,y,1/2-x
47 z,1/2-y,1/2-x
48 z,y,x
_cell_length_a                   19.3329(5)
_cell_length_b                   19.3329(5)
_cell_length_c                   19.3329(5)
_cell_angle_alpha                90
_cell_angle_beta                 90
_cell_angle_gamma                90
_cell_volume                     7225.88
loop_
_atom_site_label
_atom_site_type_symbol
_atom_site_fract_x
_atom_site_fract_y
_atom_site_fract_z
Ag1 Ag 0.49472(10) 0.00528(10) 0.13646(14)
Ag2 Ag 0.76922(11) 0.17434(8) 0.17434(8)
Ag3 Ag 1.0626(8) 0.2232(5) 0.2768(5)
N1 N 0.5740(8) 0.0797(9) 0.1297(8)
C1 C 0.6370(12) 0.0846(9) 0.1599(11)
H1 H 0.6513 0.0558 0.1956
N2 N 0.6760(12) 0.1339(9) 0.1339(9)
N3 N 0.8556(13) 0.2264(9) 0.2264(9)
C2 C 0.9213(19) 0.2130(12) 0.2130(12)
H2 H 0.9367 0.1807 0.1807
N4 N 0.9603(17) 0.2500 0.2500
Ag1I Ag 0.49472(10) 0.13646(14) 0.00528(10)
Ag1F Ag 0.36354(14) 0.00528(10) 0.00528(10)
Ag1C Ag 0.49472(10) 0.49472(10) 0.36354(14)
Ag1K Ag 0.49472(10) 0.36354(14) 0.49472(10)
Ag1B Ag 0.00528(10) 0.00528(10) 0.36354(14)
Ag1E Ag 0.13646(14) 0.00528(10) 0.49472(10)
Ag1G Ag 0.36354(14) 0.49472(10) 0.49472(10)
Ag2F Ag 0.32566(8) -0.26922(11) 0.17434(8)
Ag2I Ag 0.32566(8) 0.17434(8) -0.26922(11)
Ag2C Ag 0.76922(11) 0.32566(8) 0.32566(8)
Ag2E Ag 0.17434(8) -0.26922(11) 0.32566(8)
Ag2J Ag 0.17434(8) 0.32566(8) -0.26922(11)
Ag2G Ag 0.32566(8) 0.76922(11) 0.32566(8)
Ag3E Ag 0.2768(5) -0.5626(8) 0.2768(5)
Ag3C Ag 1.0626(8) 0.2768(5) 0.2232(5)
Ag3F Ag 0.2232(5) -0.5626(8) 0.2232(5)
Ag3I Ag 0.2768(5) 0.2768(5) -0.5626(8)
Ag3J Ag 0.2232(5) 0.2232(5) -0.5626(8)
N1PA N 0.5740(8) 0.1297(8) 0.0797(9)
N1JA N 0.4203(9) -0.0740(8) 0.1297(8)
N1F N 0.3703(8) -0.0740(8) 0.0797(9)
N1I N 0.4203(9) 0.1297(8) -0.0740(8)
N1SA N 0.3703(8) 0.0797(9) -0.0740(8)
N1C N 0.5740(8) 0.4203(9) 0.3703(8)
N1OA N 0.5740(8) 0.3703(8) 0.4203(9)
N1MA N 0.0797(9) -0.0740(8) 0.3703(8)
N1E N 0.1297(8) -0.0740(8) 0.4203(9)
N1LA N 0.4203(9) 0.5740(8) 0.3703(8)
N1G N 0.3703(8) 0.5740(8) 0.4203(9)
N1K N 0.4203(9) 0.3703(8) 0.5740(8)
N1B N -0.0740(8) 0.0797(9) 0.3703(8)
C1PA C 0.6370(12) 0.1599(11) 0.0846(9)
C1JA C 0.4154(9) -0.1370(12) 0.1599(11)
C1F C 0.3401(11) -0.1370(12) 0.0846(9)
C1I C 0.4154(9) 0.1599(11) -0.1370(12)
C1SA C 0.3401(11) 0.0846(9) -0.1370(12)
C1C C 0.6370(12) 0.4154(9) 0.3401(11)
C1OA C 0.6370(12) 0.3401(11) 0.4154(9)
C1MA C 0.0846(9) -0.1370(12) 0.3401(11)
C1E C 0.1599(11) -0.1370(12) 0.4154(9)
C1LA C 0.4154(9) 0.6370(12) 0.3401(11)
C1G C 0.3401(11) 0.6370(12) 0.4154(9)
H1PA H 0.6513 0.1956 0.0558
H1JA H 0.4442 -0.1513 0.1956
H1F H 0.3044 -0.1513 0.0558
H1I H 0.4442 0.1956 -0.1513
H1SA H 0.3044 0.0558 -0.1513
H1C H 0.6513 0.4442 0.3044
H1OA H 0.6513 0.3044 0.4442
H1MA H 0.0558 -0.1513 0.3044
H1E H 0.1956 -0.1513 0.4442
H1LA H 0.4442 0.6513 0.3044
H1G H 0.3044 0.6513 0.4442
N2F N 0.3661(9) -0.1760(12) 0.1339(9)
N2I N 0.3661(9) 0.1339(9) -0.1760(12)
N2C N 0.6760(12) 0.3661(9) 0.3661(9)
N2E N 0.1339(9) -0.1760(12) 0.3661(9)
N2G N 0.3661(9) 0.6760(12) 0.3661(9)
N2J N 0.1339(9) 0.3661(9) -0.1760(12)
N3C N 0.8556(13) 0.2736(9) 0.2736(9)
N3F N 0.2736(9) -0.3556(13) 0.2264(9)
N3E N 0.2264(9) -0.3556(13) 0.2736(9)
N3I N 0.2736(9) 0.2264(9) -0.3556(13)
N3J N 0.2264(9) 0.2736(9) -0.3556(13)
C2C C 0.9213(19) 0.2870(12) 0.2870(12)
C2F C 0.2870(12) -0.4213(19) 0.2130(12)
C2E C 0.2130(12) -0.4213(19) 0.2870(12)
C2I C 0.2870(12) 0.2130(12) -0.4213(19)
C2J C 0.2130(12) 0.2870(12) -0.4213(19)
H2C H 0.9367 0.3193 0.3193
H2F H 0.3193 -0.4367 0.1807
H2E H 0.1807 -0.4367 0.3193
H2I H 0.3193 0.1807 -0.4367
H2J H 0.1807 0.3193 -0.4367
N4E N 0.2500 -0.4603(17) 0.2500
N4I N 0.2500 0.2500 -0.4603(17)
P1 P 0.5000 0.0000 0.5000
W1 W 0.63093(4) 0.0000 0.36907(4)
W2 W 0.45662(5) 0.04338(5) 0.32663(6)
O1 O 0.4512(16) 0.0488(16) 0.4512(16)
O2 O 0.5738(16) 0.0149(11) 0.4851(11)
O3 O 0.6918(8) 0.0000 0.3082(8)
O4 O 0.5558(9) 0.0411(9) 0.3202(14)
O5 O 0.646(2) 0.0870(10) 0.4130(10)
O6 O 0.4404(11) 0.0596(11) 0.250(2)
O7 O 0.4620(13) 0.1353(12) 0.3647(12)
W1IA W 0.5000 -0.13093(4) 0.36907(4)
W1CA W 0.63093(4) 0.13093(4) 0.5000
W1E W 0.36907(4) -0.13093(4) 0.5000
W1K W 0.5000 0.13093(4) 0.63093(4)
W1X W 0.36907(4) 0.0000 0.63093(4)
W2W W 0.67337(6) -0.04338(5) 0.54338(5)
W2Q W 0.54338(5) -0.17337(6) 0.54338(5)
W2K W 0.45662(5) 0.17337(6) 0.45662(5)
W2E W 0.32663(6) 0.04338(5) 0.45662(5)
W2L W 0.54338(5) -0.04338(5) 0.67337(6)
O1L O 0.5488(16) -0.0488(16) 0.5488(16)
O2W O 0.5149(11) -0.0149(11) 0.4262(16)
O2E O 0.4851(11) -0.0738(16) 0.4851(11)
O2K O 0.4851(11) 0.0149(11) 0.5738(16)
O2Q O 0.4262(16) -0.0149(11) 0.5149(11)
O2L O 0.5149(11) 0.0738(16) 0.5149(11)
O3IA O 0.5000 -0.1918(8) 0.3082(8)
O3CA O 0.6918(8) 0.1918(8) 0.5000
O3E O 0.3082(8) -0.1918(8) 0.5000
O3K O 0.5000 0.1918(8) 0.6918(8)
O3X O 0.3082(8) 0.0000 0.6918(8)
O4W O 0.6798(14) -0.0411(9) 0.4442(9)
O4JA O 0.4589(9) -0.0558(9) 0.3202(14)
O4IA O 0.5411(9) -0.1798(14) 0.4442(9)
O4CA O 0.6798(14) 0.0558(9) 0.5411(9)
O4OA O 0.5558(9) 0.1798(14) 0.4589(9)
O4E O 0.3202(14) -0.0558(9) 0.4589(9)
O4Q O 0.4442(9) -0.1798(14) 0.5411(9)
O4K O 0.4589(9) 0.1798(14) 0.5558(9)
O4L O 0.5411(9) 0.0558(9) 0.6798(14)
O4UA O 0.3202(14) 0.0411(9) 0.5558(9)
O4X O 0.4442(9) -0.0411(9) 0.6798(14)
O5W O 0.5870(10) -0.0870(10) 0.354(2)
O5E O 0.4130(10) -0.146(2) 0.4130(10)
O5L O 0.5870(10) 0.146(2) 0.5870(10)
O5Q O 0.354(2) -0.0870(10) 0.5870(10)
O5K O 0.4130(10) 0.0870(10) 0.646(2)
O6W O 0.750(2) -0.0596(11) 0.5596(11)
O6Q O 0.5596(11) -0.250(2) 0.5596(11)
O6K O 0.4404(11) 0.250(2) 0.4404(11)
O6E O 0.250(2) 0.0596(11) 0.4404(11)
O6L O 0.5596(11) -0.0596(11) 0.750(2)
O7E O 0.3647(12) 0.0380(13) 0.3647(12)
O7W O 0.6353(12) -0.1353(12) 0.5380(13)
O7L O 0.6353(12) -0.0380(13) 0.6353(12)
O7Q O 0.5380(13) -0.1353(12) 0.6353(12)
O7K O 0.3647(12) 0.1353(12) 0.4620(13)
loop_
_geom_bond_atom_site_label_1
_geom_bond_atom_site_label_2
_geom_bond_site_symmetry_1
_geom_bond_site_symmetry_2
Ag1 N1 1_555 1_555
Ag2 N2 1_555 1_555
Ag3 N4 1_555 1_555
P1 O1 1_555 1_555
W1 O3 1_555 1_555
W2 O1 1_555 1_555
O1 W2K 1_555 1_555
O2 P1 1_555 1_555
O4 W1 1_555 1_555
O5 W1 1_555 1_555
O6 W2 1_555 1_555
O7 W2 1_555 1_555
N1 C1 1_555 1_555
C1 H1 1_555 1_555
N2 C1 1_555 1_555
N3 Ag2 1_555 1_555
C2 N3 1_555 1_555
H2 C2 1_555 1_555
N4 C2 1_555 1_555
Ag1I N1PA 1_555 1_555
Ag1F N1F 1_555 1_555
Ag1C N1C 1_555 1_555
Ag1K N1OA 1_555 1_555
Ag1B N1MA 1_555 1_555
Ag1E N1E 1_555 1_555
Ag1G N1G 1_555 1_555
Ag2F N2F 1_555 1_555
Ag2I N2I 1_555 1_555
Ag2C N2C 1_555 1_555
Ag2E N2E 1_555 1_555
Ag2J N2J 1_555 1_555
Ag2G N2G 1_555 1_555
Ag3E Ag3F 1_555 1_555
Ag3C Ag3 1_555 1_555
Ag3F N4E 1_555 1_555
Ag3I Ag3J 1_555 1_555
Ag3J N4I 1_555 1_555
W1IA O3IA 1_555 1_555
W1CA O5 1_555 1_555
W1E O3E 1_555 1_555
W1K O3K 1_555 1_555
W1X O3X 1_555 1_555
W2W O1L 1_555 1_555
W2Q O1L 1_555 1_555
W2K O7 1_555 1_555
W2E O1 1_555 1_555
W2L O1L 1_555 1_555
O1L P1 1_555 1_555
O2W P1 1_555 1_555
O2E P1 1_555 1_555
O2K P1 1_555 1_555
O2Q P1 1_555 1_555
O2L P1 1_555 1_555
O3CA W1CA 1_555 1_555
O4W W1 1_555 1_555
O4JA W2 1_555 1_555
O4IA W1IA 1_555 1_555
O4CA W1CA 1_555 1_555
O4OA W1CA 1_555 1_555
O4E W1E 1_555 1_555
O4Q W1E 1_555 1_555
O4K W1K 1_555 1_555
O4L W1K 1_555 1_555
O4UA W1X 1_555 1_555
O4X W1X 1_555 1_555
O5W W1 1_555 1_555
O5E W1IA 1_555 1_555
O5L W1CA 1_555 1_555
O5Q W1E 1_555 1_555
O5K W1K 1_555 1_555
O6W W2W 1_555 1_555
O6Q W2Q 1_555 1_555
O6K W2K 1_555 1_555
O6E W2E 1_555 1_555
O6L W2L 1_555 1_555
O7E W2 1_555 1_555
O7W W2W 1_555 1_555
O7L W2W 1_555 1_555
O7Q W2Q 1_555 1_555
O7K W2K 1_555 1_555
N1PA N1 1_555 1_555
N1JA Ag1 1_555 1_555
N1F N1JA 1_555 1_555
N1I Ag1I 1_555 1_555
N1SA Ag1F 1_555 1_555
N1C N1OA 1_555 1_555
N1OA C1OA 1_555 1_555
N1MA N1E 1_555 1_555
N1E C1E 1_555 1_555
N1LA Ag1C 1_555 1_555
N1G N1LA 1_555 1_555
N1K Ag1K 1_555 1_555
N1B Ag1B 1_555 1_555
C1PA N2 1_555 1_555
C1JA N1JA 1_555 1_555
C1F N1F 1_555 1_555
C1I N1I 1_555 1_555
C1SA N1SA 1_555 1_555
C1C N1C 1_555 1_555
C1OA H1OA 1_555 1_555
C1MA N1MA 1_555 1_555
C1E H1E 1_555 1_555
C1LA N1LA 1_555 1_555
C1G N1G 1_555 1_555
H1PA C1PA 1_555 1_555
H1JA C1JA 1_555 1_555
H1F C1F 1_555 1_555
H1I C1I 1_555 1_555
H1SA C1SA 1_555 1_555
H1C C1C 1_555 1_555
H1MA C1MA 1_555 1_555
H1LA C1LA 1_555 1_555
H1G C1G 1_555 1_555
N2F C1JA 1_555 1_555
N2I C1I 1_555 1_555
N2C C1C 1_555 1_555
N2E C1MA 1_555 1_555
N2G C1LA 1_555 1_555
N3C N3 1_555 1_555
N3F Ag2F 1_555 1_555
N3E Ag2E 1_555 1_555
N3I Ag2I 1_555 1_555
N3J Ag2J 1_555 1_555
C2C N4 1_555 1_555
C2F N3F 1_555 1_555
C2E N3E 1_555 1_555
C2I N3I 1_555 1_555
C2J N3J 1_555 1_555
H2C C2C 1_555 1_555
H2F C2F 1_555 1_555
H2E C2E 1_555 1_555
H2I C2I 1_555 1_555
H2J C2J 1_555 1_555
N4E Ag3E 1_555 1_555
N4I Ag3I 1_555 1_555
W2 O4 1_555 1_555
O1 O2W 1_555 1_555
O1 O2Q 1_555 1_555
O1 O2L 1_555 1_555
O2 O1L 1_555 1_555
O2 O2W 1_555 1_555
O2 O2L 1_555 1_555
N4 Ag3C 1_555 1_555
Ag2C N3C 1_555 1_555
W1IA O4JA 1_555 1_555
W1IA O5W 1_555 1_555
W1E O5E 1_555 1_555
W1K O5L 1_555 1_555
W1X O5Q 1_555 1_555
W1X O5K 1_555 1_555
W2W O4W 1_555 1_555
W2W O4CA 1_555 1_555
W2Q O4IA 1_555 1_555
W2Q O4Q 1_555 1_555
W2Q O7W 1_555 1_555
W2K O4OA 1_555 1_555
W2K O4K 1_555 1_555
W2E O4E 1_555 1_555
W2E O4UA 1_555 1_555
W2E O7E 1_555 1_555
W2E O7K 1_555 1_555
W2L O4L 1_555 1_555
W2L O4X 1_555 1_555
W2L O7L 1_555 1_555
W2L O7Q 1_555 1_555
O1L O2E 1_555 1_555
O1L O2K 1_555 1_555
O2W O2E 1_555 1_555
O2E O2Q 1_555 1_555
O2K O2Q 1_555 1_555
O2K O2L 1_555 1_555
N1PA C1PA 1_555 1_555
N1I N1SA 1_555 1_555
C1F N2F 1_555 1_555
C1SA N2I 1_555 1_555
C1OA N2C 1_555 1_555
C1E N2E 1_555 1_555
C1G N2G 1_555 1_555
N3C C2C 1_555 1_555
N3F N3E 1_555 1_555
N3I N3J 1_555 1_555
C2F N4E 1_555 1_555
C2E N4E 1_555 1_555
C2I N4I 1_555 1_555
C2J N4I 1_555 1_555

#END
