
#######################################################################
#
#                 Cambridge Crystallographic Data Centre
#                                CCDC 
#
#######################################################################
#
# If this CIF has been generated from an entry in the Cambridge 
# Structural Database, then it will include bibliographic, chemical, 
# crystal, experimental, refinement or atomic coordinate data resulting 
# from the CCDC's data processing and validation procedures.
#
#######################################################################

data_VUWTUC
_symmetry_cell_setting           monoclinic
_symmetry_space_group_name_H-M   'P 21/a'
_symmetry_Int_Tables_number      14
_space_group_name_Hall           '-P 2yab'
loop_
_symmetry_equiv_pos_site_id
_symmetry_equiv_pos_as_xyz
1 x,y,z
2 1/2-x,1/2+y,-z
3 -x,-y,-z
4 1/2+x,1/2-y,z
_cell_length_a                   7.554(4)
_cell_length_b                   11.047(6)
_cell_length_c                   10.891(3)
_cell_angle_alpha                90
_cell_angle_beta                 106.16(3)
_cell_angle_gamma                90
_cell_volume                     872.933
loop_
_atom_site_label
_atom_site_type_symbol
_atom_site_fract_x
_atom_site_fract_y
_atom_site_fract_z
Mn1 Mn 0.1095(1) 0.0615 0.1512
N1 N 0.2253(4) 0.2253(2) 0.2513(3)
N2 N 0.2939(3) 0.3160(2) 0.2323(2)
N3 N 0.3609(4) 0.4089(3) 0.2180(3)
O1 O 0.3859(3) 0.0371(2) 0.1212(3)
O2 O 0.0174(3) -0.1121(2) 0.0460(2)
O3 O 0.0046(3) -0.3137(2) 0.0539(2)
C1 C 0.0547(4) -0.2137(2) 0.1024(3)
N4 N 0.2008(3) -0.0948(2) 0.2910(2)
C2 C 0.1700(4) -0.2072(3) 0.2404(3)
C3 C 0.2421(4) -0.3100(3) 0.3102(3)
C4 C 0.3457(5) -0.2965(3) 0.4353(4)
C5 C 0.3733(5) -0.1817(4) 0.4887(3)
C6 C 0.2995(4) -0.0843(3) 0.4125(3)
H1 H 0.4037(53) -0.0418(25) 0.0955(39)
H2 H 0.4237(50) 0.1005(29) 0.0816(37)
H3 H 0.2174(4) -0.3987(3) 0.2674(3)
H4 H 0.4047(5) -0.3746(3) 0.4914(4)
H5 H 0.4510(5) -0.1690(4) 0.5872(3)
H6 H 0.3227(4) 0.0052(3) 0.4537(3)
N3C N -0.1391(4) 0.0911(3) 0.2180(3)
O2B O -0.0174(3) 0.1121(2) -0.0460(2)
Mn1C Mn 0.6095(1) 0.4385 0.1512
Mn1B Mn -0.1095(1) -0.0615 -0.1512
loop_
_geom_bond_atom_site_label_1
_geom_bond_atom_site_label_2
_geom_bond_site_symmetry_1
_geom_bond_site_symmetry_2
Mn1 N1 1_555 1_555
N1 N2 1_555 1_555
N2 N3 1_555 1_555
N3 Mn1C 1_555 1_555
O1 Mn1 1_555 1_555
O2 Mn1 1_555 1_555
O3 C1 1_555 1_555
C1 O2 1_555 1_555
N4 Mn1 1_555 1_555
C2 C1 1_555 1_555
C3 C2 1_555 1_555
C4 C3 1_555 1_555
C5 C4 1_555 1_555
C6 N4 1_555 1_555
H1 O1 1_555 1_555
H2 O1 1_555 1_555
H3 C3 1_555 1_555
H4 C4 1_555 1_555
H5 C5 1_555 1_555
H6 C6 1_555 1_555
N3C Mn1 1_555 1_555
O2B Mn1 1_555 1_555
Mn1B O2 1_555 1_555
N4 C2 1_555 1_555
C5 C6 1_555 1_555
O2B Mn1B 1_555 1_555

#END
