
#######################################################################
#
#                 Cambridge Crystallographic Data Centre
#                                CCDC 
#
#######################################################################
#
# If this CIF has been generated from an entry in the Cambridge 
# Structural Database, then it will include bibliographic, chemical, 
# crystal, experimental, refinement or atomic coordinate data resulting 
# from the CCDC's data processing and validation procedures.
#
#######################################################################

data_VUXBUL01
_symmetry_cell_setting           monoclinic
_symmetry_space_group_name_H-M   'P 21/c'
_symmetry_Int_Tables_number      14
_space_group_name_Hall           '-P 2ybc'
loop_
_symmetry_equiv_pos_site_id
_symmetry_equiv_pos_as_xyz
1 x,y,z
2 -x,1/2+y,1/2-z
3 -x,-y,-z
4 x,1/2-y,1/2+z
_cell_length_a                   6.8551(14)
_cell_length_b                   18.892(4)
_cell_length_c                   10.716(3)
_cell_angle_alpha                90
_cell_angle_beta                 126.87(2)
_cell_angle_gamma                90
_cell_volume                     1110.23
loop_
_atom_site_label
_atom_site_type_symbol
_atom_site_fract_x
_atom_site_fract_y
_atom_site_fract_z
Cu1 Cu 0.88938(8) 0.72640(2) 0.67913(5)
O1 O 1.0451(6) 0.87364(14) 0.7671(3)
O2 O 0.7879(5) 0.81134(12) 0.5539(3)
O3 O 0.2513(5) 0.91554(14) 0.0486(3)
O4 O 0.2713(6) 1.02917(15) 0.0054(3)
O5 O 1.0069(5) 1.13796(13) 0.7111(3)
O6 O 0.7413(5) 1.18913(13) 0.4807(3)
O7 O 1.1364(6) 0.71108(15) 0.6410(4)
O8 O 0.6921(6) 0.75211(17) 0.7518(3)
O9 O 0.5840(5) 0.67089(15) 0.4599(3)
C1 C 0.7775(6) 0.93545(17) 0.5254(4)
C2 C 0.8790(7) 0.86999(18) 0.6244(4)
C3 C 0.8375(7) 1.13575(18) 0.5656(4)
C4 C 0.8509(6) 1.00280(18) 0.5912(4)
H1 H 0.9642 1.0078 0.6986
C5 C 0.5841(7) 1.05491(18) 0.3357(4)
H2 H 0.5191 1.0949 0.2726
C6 C 0.6077(6) 0.92832(18) 0.3648(4)
H3 H 0.5587 0.8834 0.3208
C7 C 0.5101(7) 0.98796(18) 0.2688(4)
C8 C 0.3348(7) 0.98117(19) 0.0959(4)
C9 C 0.7546(6) 1.06249(18) 0.4962(4)
H4 H 0.167(6) 0.915(2) -0.0485(13)
H5 H 1.132(7) 0.7397(13) 0.579(4)
H6 H 0.715(6) 0.746(2) 0.836(2)
H7 H 1.166(7) 0.6699(7) 0.628(4)
H8 H 0.439(3) 0.6782(16) 0.424(4)
H9 H 0.575(5) 0.7788(17) 0.691(3)
H10 H 0.619(6) 0.6279(7) 0.475(4)
Cu1A Cu 1.11062(8) 1.22640(2) 0.82087(5)
O5A O 0.9931(5) 0.63796(13) 0.7889(3)
loop_
_geom_bond_atom_site_label_1
_geom_bond_atom_site_label_2
_geom_bond_site_symmetry_1
_geom_bond_site_symmetry_2
Cu1 O2 1_555 1_555
O1 C2 1_555 1_555
O2 C2 1_555 1_555
O3 C8 1_555 1_555
O4 C8 1_555 1_555
O5 C3 1_555 1_555
O6 C3 1_555 1_555
O7 Cu1 1_555 1_555
O8 Cu1 1_555 1_555
O9 Cu1 1_555 1_555
C1 C2 1_555 1_555
C3 C9 1_555 1_555
C4 C1 1_555 1_555
H1 C4 1_555 1_555
C5 H2 1_555 1_555
C6 C1 1_555 1_555
H3 C6 1_555 1_555
C7 C5 1_555 1_555
C8 C7 1_555 1_555
C9 C4 1_555 1_555
H4 O3 1_555 1_555
H5 O7 1_555 1_555
H6 O8 1_555 1_555
H7 O7 1_555 1_555
H8 O9 1_555 1_555
H9 O8 1_555 1_555
H10 O9 1_555 1_555
Cu1A O5 1_555 1_555
O5A Cu1 1_555 1_555
C5 C9 1_555 1_555
C6 C7 1_555 1_555

#END
