
#######################################################################
#
#                 Cambridge Crystallographic Data Centre
#                                CCDC 
#
#######################################################################
#
# If this CIF has been generated from an entry in the Cambridge 
# Structural Database, then it will include bibliographic, chemical, 
# crystal, experimental, refinement or atomic coordinate data resulting 
# from the CCDC's data processing and validation procedures.
#
#######################################################################

data_VUXBUL02
_symmetry_cell_setting           monoclinic
_symmetry_space_group_name_H-M   'P 21/n'
_symmetry_Int_Tables_number      14
_space_group_name_Hall           '-P 2yn'
loop_
_symmetry_equiv_pos_site_id
_symmetry_equiv_pos_as_xyz
1 x,y,z
2 1/2-x,1/2+y,1/2-z
3 -x,-y,-z
4 1/2+x,1/2-y,1/2+z
_cell_length_a                   6.7778(7)
_cell_length_b                   18.8206(18)
_cell_length_c                   8.5384(8)
_cell_angle_alpha                90
_cell_angle_beta                 92.471(4)
_cell_angle_gamma                90
_cell_volume                     1088.16
loop_
_atom_site_label
_atom_site_type_symbol
_atom_site_fract_x
_atom_site_fract_y
_atom_site_fract_z
Cu1 Cu 0.28800(3) 0.225703(9) 0.67920(2)
O1 O 0.21325(19) 0.37290(6) 0.76454(13)
O2 O 0.26282(17) 0.31014(6) 0.55002(12)
O3 O 0.20327(17) 0.63714(6) 0.70946(13)
O4 O 0.24091(17) 0.68863(6) 0.47757(13)
O5 O 0.30147(19) 0.41493(6) 0.04327(13)
O6 O 0.2329(2) 0.52871(7) 0.00008(14)
O7 O 0.55452(18) 0.25524(7) 0.75611(15)
O8 O 0.37653(18) 0.16942(6) 0.46243(13)
O9 O -0.00047(17) 0.21053(6) 0.64473(15)
C1 C 0.2468(2) 0.43450(8) 0.52193(17)
C2 C 0.2392(2) 0.50185(8) 0.58888(16)
C3 C 0.2435(2) 0.56206(7) 0.49336(17)
C4 C 0.2545(2) 0.55462(8) 0.33173(17)
C5 C 0.2607(2) 0.48730(8) 0.26466(17)
C6 C 0.2579(2) 0.42732(7) 0.35995(17)
C7 C 0.2407(2) 0.36894(8) 0.62158(17)
C8 C 0.2295(2) 0.63497(8) 0.56335(17)
C9 C 0.2632(2) 0.48045(8) 0.09111(18)
H1 H 0.2227 0.5062 0.6970
H2 H 0.2529 0.5956 0.2684
H3 H 0.2807 0.4134 -0.0579
H4 H 0.2601 0.3809 0.3155
H5 H 0.6262 0.2778 0.6934
H6 H 0.6240 0.2451 0.8361
H7 H 0.4841 0.1731 0.4159
H8 H 0.3677 0.1242 0.4750
H9 H -0.0721 0.2388 0.5870
H10 H -0.0387 0.1703 0.6184
Cu1A Cu 0.21200(3) 0.725703(9) 0.82080(2)
O3A O 0.29673(17) 0.13714(6) 0.79054(13)
loop_
_geom_bond_atom_site_label_1
_geom_bond_atom_site_label_2
_geom_bond_site_symmetry_1
_geom_bond_site_symmetry_2
Cu1 O2 1_555 1_555
O1 C7 1_555 1_555
O2 C7 1_555 1_555
O3 C8 1_555 1_555
O4 C8 1_555 1_555
O5 C9 1_555 1_555
O6 C9 1_555 1_555
O7 Cu1 1_555 1_555
O8 Cu1 1_555 1_555
O9 Cu1 1_555 1_555
C1 C2 1_555 1_555
C2 C3 1_555 1_555
C3 C4 1_555 1_555
C4 C5 1_555 1_555
C5 C6 1_555 1_555
C6 C1 1_555 1_555
C7 C1 1_555 1_555
C8 C3 1_555 1_555
C9 C5 1_555 1_555
H1 C2 1_555 1_555
H2 C4 1_555 1_555
H3 O5 1_555 1_555
H4 C6 1_555 1_555
H5 O7 1_555 1_555
H6 O7 1_555 1_555
H7 O8 1_555 1_555
H8 O8 1_555 1_555
H9 O9 1_555 1_555
H10 O9 1_555 1_555
Cu1A O3 1_555 1_555
O3A Cu1 1_555 1_555

#END
