
#######################################################################
#
#                 Cambridge Crystallographic Data Centre
#                                CCDC 
#
#######################################################################
#
# If this CIF has been generated from an entry in the Cambridge 
# Structural Database, then it will include bibliographic, chemical, 
# crystal, experimental, refinement or atomic coordinate data resulting 
# from the CCDC's data processing and validation procedures.
#
#######################################################################

data_VUXBUL
_symmetry_cell_setting           monoclinic
_symmetry_space_group_name_H-M   'P 21/n'
_symmetry_Int_Tables_number      14
_space_group_name_Hall           '-P 2yn'
loop_
_symmetry_equiv_pos_site_id
_symmetry_equiv_pos_as_xyz
1 x,y,z
2 1/2-x,1/2+y,1/2-z
3 -x,-y,-z
4 1/2+x,1/2-y,1/2+z
_cell_length_a                   8.570(1)
_cell_length_b                   18.855(1)
_cell_length_c                   6.845(3)
_cell_angle_alpha                90
_cell_angle_beta                 92.87(2)
_cell_angle_gamma                90
_cell_volume                     1104.68
loop_
_atom_site_label
_atom_site_type_symbol
_atom_site_fract_x
_atom_site_fract_y
_atom_site_fract_z
Cu1 Cu 0.8208 0.2736 0.2100(1)
O1 O 0.9462(3) 0.1889(1) 0.2339(4)
O2 O 0.7331(3) 0.1263(1) 0.2784(5)
O3 O 0.7109(3) 0.3622(1) 0.2036(4)
O4 O 0.4802(3) 0.3110(1) 0.2391(4)
O5 O 0.0484(3) 0.5845(1) 0.2968(4)
O6 O 0.0050(3) 0.4706(1) 0.2338(5)
O7 O 0.7487(3) 0.2475(2) -0.0601(4)
O8 O 0.8590(4) 0.2890(2) 0.4956(4)
O9 O 1.0399(3) 0.3293(1) 0.1229(5)
C1 C 0.4965(4) 0.4372(2) 0.2423(5)
C2 C 0.3358(4) 0.4446(2) 0.2519(5)
C3 C 0.2694(4) 0.5120(2) 0.2588(6)
C4 C 0.3646(4) 0.5722(2) 0.2571(5)
C5 C 0.5261(4) 0.5645(2) 0.2489(5)
C6 C 0.5921(4) 0.4973(2) 0.2407(5)
C7 C 0.5665(4) 0.3647(2) 0.2278(5)
C8 C 0.0955(4) 0.5186(2) 0.2611(6)
C9 C 0.8754(4) 0.1298(2) 0.2537(5)
H1 H 0.2622 0.3982 0.2540
H2 H 0.3134 0.6244 0.2622
H3 H 0.7170 0.4914 0.2329
H4 H -0.0538 0.5860 0.3051
H5 H 0.8896 0.3315 0.5285
H6 H 0.8862 0.2583 0.5884
H7 H 0.8180 0.2239 -0.1271
H8 H 0.6573 0.2547 -0.1162
H9 H 1.0147 0.3740 0.1260
H10 H 1.0784 0.3161 0.0161
C9A C 0.6246(4) 0.6298(2) 0.2463(5)
C5A C 0.9739(4) 0.0645(2) 0.2511(5)
O1A O 0.5538(3) 0.6889(1) 0.2661(4)
O2A O 0.7669(3) 0.6263(1) 0.2216(5)
C4A C 1.1354(4) 0.0722(2) 0.2429(5)
C6A C 0.9079(4) -0.0027(2) 0.2593(5)
Cu1A Cu 0.6792 0.7736 0.2900(1)
C3A C 1.2306(4) 0.0120(2) 0.2412(6)
H2A H 1.1866 0.1244 0.2378
C1A C 1.0035(4) -0.0628(2) 0.2577(5)
H3A H 0.7830 -0.0086 0.2671
O3A O 0.7891(3) 0.8622(1) 0.2964(4)
O7A O 0.7513(3) 0.7475(2) 0.5601(4)
O8A O 0.6410(4) 0.7890(2) 0.0044(4)
O9A O 0.4601(3) 0.8293(1) 0.3771(5)
C2A C 1.1642(4) -0.0554(2) 0.2481(5)
C8A C 1.4045(4) 0.0186(2) 0.2389(6)
C7A C 0.9335(4) -0.1353(2) 0.2722(5)
H7A H 0.6820 0.7239 0.6271
H8A H 0.8427 0.7547 0.6162
H5A H 0.6104 0.8315 -0.0285
H6A H 0.6138 0.7583 -0.0884
H9A H 0.4853 0.8740 0.3740
H10A H 0.4216 0.8161 0.4839
H1A H 1.2378 -0.1018 0.2460
O5A O 1.4516(3) 0.0845(1) 0.2032(4)
O6A O 1.4950(3) -0.0294(1) 0.2662(5)
O3A_2 O 0.7891(3) -0.1378(1) 0.2964(4)
O4A O 1.0198(3) -0.1890(1) 0.2609(4)
H4A H 1.5538 0.0860 0.1949
Cu1A_2 Cu 0.6792 -0.2264 0.2900(1)
loop_
_geom_bond_atom_site_label_1
_geom_bond_atom_site_label_2
_geom_bond_site_symmetry_1
_geom_bond_site_symmetry_2
Cu1 O1 1_555 1_555
O1 C9 1_555 1_555
O2 C9 1_555 1_555
O3 Cu1 1_555 1_555
O4 C7 1_555 1_555
O5 C8 1_555 1_555
O6 C8 1_555 1_555
O7 Cu1 1_555 1_555
O8 Cu1 1_555 1_555
O9 Cu1 1_555 1_555
C1 C2 1_555 1_555
C2 C3 1_555 1_555
C3 C4 1_555 1_555
C4 C5 1_555 1_555
C5 C6 1_555 1_555
C6 C1 1_555 1_555
C7 O3 1_555 1_555
C8 C3 1_555 1_555
C9 C5A 1_555 1_555
H1 C2 1_555 1_555
H2 C4 1_555 1_555
H3 C6 1_555 1_555
H4 O5 1_555 1_555
H5 O8 1_555 1_555
H6 O8 1_555 1_555
H7 O7 1_555 1_555
H8 O7 1_555 1_555
H9 O9 1_555 1_555
H10 O9 1_555 1_555
C9A C5 1_555 1_555
C5A C4A 1_555 1_555
O1A C9A 1_555 1_555
O2A C9A 1_555 1_555
C4A C3A 1_555 1_555
C6A C5A 1_555 1_555
Cu1A O1A 1_555 1_555
C3A C2A 1_555 1_555
H2A C4A 1_555 1_555
C1A C6A 1_555 1_555
H3A C6A 1_555 1_555
O3A Cu1A 1_555 1_555
O7A Cu1A 1_555 1_555
O8A Cu1A 1_555 1_555
O9A Cu1A 1_555 1_555
C2A C1A 1_555 1_555
C8A C3A 1_555 1_555
C7A C1A 1_555 1_555
H7A O7A 1_555 1_555
H8A O7A 1_555 1_555
H5A O8A 1_555 1_555
H6A O8A 1_555 1_555
H9A O9A 1_555 1_555
H10A O9A 1_555 1_555
H1A C2A 1_555 1_555
O5A C8A 1_555 1_555
O6A C8A 1_555 1_555
O3A_2 C7A 1_555 1_555
O4A C7A 1_555 1_555
H4A O5A 1_555 1_555
Cu1A_2 O3A_2 1_555 1_555
C1 C7 1_555 1_555

#END
