
#######################################################################
#
#                 Cambridge Crystallographic Data Centre
#                                CCDC 
#
#######################################################################
#
# If this CIF has been generated from an entry in the Cambridge 
# Structural Database, then it will include bibliographic, chemical, 
# crystal, experimental, refinement or atomic coordinate data resulting 
# from the CCDC's data processing and validation procedures.
#
#######################################################################

data_VUXWOB
_symmetry_cell_setting           monoclinic
_symmetry_space_group_name_H-M   'C 2/c'
_symmetry_Int_Tables_number      15
_space_group_name_Hall           '-C 2yn'
loop_
_symmetry_equiv_pos_site_id
_symmetry_equiv_pos_as_xyz
1 x,y,z
2 -x,y,1/2-z
3 1/2+x,1/2+y,z
4 1/2-x,1/2+y,1/2-z
5 -x,-y,-z
6 x,-y,1/2+z
7 1/2-x,1/2-y,-z
8 1/2+x,1/2-y,1/2+z
_cell_length_a                   26.272(5)
_cell_length_b                   8.8773(18)
_cell_length_c                   14.453(3)
_cell_angle_alpha                90
_cell_angle_beta                 115.46(3)
_cell_angle_gamma                90
_cell_volume                     3043.44
loop_
_atom_site_label
_atom_site_type_symbol
_atom_site_fract_x
_atom_site_fract_y
_atom_site_fract_z
Cd1 Cd 0.5000 0.5000 0.5000
Cl1 Cl 0.41333(3) 0.34130(8) 0.38539(5)
S1 S 0.45032(3) 0.63726(8) 0.60981(5)
O1 O 0.25935(8) 0.6262(2) 0.44396(17)
N1 N 0.34748(9) 0.5318(2) 0.48917(16)
H1 H 0.3656 0.4642 0.4726
N2 N 0.35198(9) 0.7333(2) 0.59269(16)
H2 H 0.3158 0.7314 0.5660
N3 N 0.38086(9) 0.8371(2) 0.66833(16)
H3 H 0.3884 0.8183 0.7312
N4 N 0.46686(9) 1.3021(2) 0.87810(16)
O2 O 0.38809(11) 0.9997(2) 0.55513(15)
C1 C 0.21305(15) 0.1154(4) 0.2926(3)
H4 H 0.1950 0.0264 0.2620
C2 C 0.26365(16) 0.1101(4) 0.3779(3)
H5 H 0.2800 0.0176 0.4045
C3 C 0.29043(13) 0.2425(3) 0.4247(2)
H6 H 0.3253 0.2391 0.4813
C4 C 0.26513(11) 0.3792(3) 0.3869(2)
C5 C 0.21404(12) 0.3845(4) 0.3002(2)
H7 H 0.1968 0.4765 0.2746
C6 C 0.18907(13) 0.2514(4) 0.2525(3)
H8 H 0.1557 0.2542 0.1926
C7 C 0.28880(11) 0.5233(3) 0.4406(2)
C8 C 0.37951(10) 0.6364(3) 0.56055(18)
C9 C 0.39726(11) 0.9688(3) 0.6423(2)
C10 C 0.42468(11) 1.0792(3) 0.72875(19)
C11 C 0.44504(14) 1.0437(3) 0.8315(2)
H9 H 0.4448 0.9446 0.8523
C12 C 0.46586(14) 1.1585(3) 0.9029(2)
H10 H 0.4799 1.1336 0.9720
C13 C 0.42716(12) 1.2273(3) 0.7029(2)
H11 H 0.4151 1.2548 0.6346
C14 C 0.44756(12) 1.3344(3) 0.7789(2)
H12 H 0.4479 1.4344 0.7601
Cd1A Cd 0.5000 1.5000 1.0000
Cd1A_2 Cd 0.5000 1.5000 0.0000
Cl1D Cl 0.58667(3) 0.65870(8) 0.61461(5)
S1E S 0.45032(3) 1.36274(8) 0.10981(5)
S1D S 0.54968(3) 0.36274(8) 0.39019(5)
O1E O 0.25935(8) 1.3738(2) -0.05604(17)
N1E N 0.34748(9) 1.4682(2) -0.01083(16)
H1E H 0.3656 1.5358 -0.0274
N2E N 0.35198(9) 1.2667(2) 0.09269(16)
H2E H 0.3158 1.2686 0.0660
N3E N 0.38086(9) 1.1629(2) 0.16833(16)
H3E H 0.3884 1.1817 0.2312
N4E N 0.46686(9) 0.6979(2) 0.37810(16)
N4A N 0.53314(9) 0.3021(2) 0.62190(16)
O2E O 0.38809(11) 1.0003(2) 0.05513(15)
C1E C 0.21305(15) 1.8846(4) -0.2074(3)
H4E H 0.1950 1.9736 -0.2380
C2E C 0.26365(16) 1.8899(4) -0.1221(3)
H5E H 0.2800 1.9824 -0.0955
C3E C 0.29043(13) 1.7575(3) -0.0753(2)
H6E H 0.3253 1.7609 -0.0187
C4E C 0.26513(11) 1.6208(3) -0.1131(2)
C5E C 0.21404(12) 1.6155(4) -0.1998(2)
H7E H 0.1968 1.5235 -0.2254
C6E C 0.18907(13) 1.7486(4) -0.2475(3)
H8E H 0.1557 1.7458 -0.3074
C7E C 0.28880(11) 1.4767(3) -0.0594(2)
C8E C 0.37951(10) 1.3636(3) 0.06055(18)
C9E C 0.39726(11) 1.0312(3) 0.1423(2)
C10E C 0.42468(11) 0.9208(3) 0.22875(19)
C11E C 0.44504(14) 0.9563(3) 0.3315(2)
H9E H 0.4448 1.0554 0.3523
C12E C 0.46586(14) 0.8415(3) 0.4029(2)
H10E H 0.4799 0.8664 0.4720
C13E C 0.42716(12) 0.7727(3) 0.2029(2)
H11E H 0.4151 0.7452 0.1346
C14E C 0.44756(12) 0.6656(3) 0.2789(2)
H12E H 0.4479 0.5656 0.2601
loop_
_geom_bond_atom_site_label_1
_geom_bond_atom_site_label_2
_geom_bond_site_symmetry_1
_geom_bond_site_symmetry_2
Cd1 Cl1 1_555 1_555
S1 Cd1 1_555 1_555
O1 C7 1_555 1_555
N1 H1 1_555 1_555
N2 H2 1_555 1_555
N3 N2 1_555 1_555
H3 N3 1_555 1_555
N4 C12 1_555 1_555
O2 C9 1_555 1_555
C1 H4 1_555 1_555
C2 C1 1_555 1_555
H5 C2 1_555 1_555
C3 C2 1_555 1_555
H6 C3 1_555 1_555
C4 C3 1_555 1_555
C5 C4 1_555 1_555
H7 C5 1_555 1_555
C6 C1 1_555 1_555
H8 C6 1_555 1_555
C7 N1 1_555 1_555
C8 S1 1_555 1_555
C9 N3 1_555 1_555
C10 C9 1_555 1_555
C11 C10 1_555 1_555
H9 C11 1_555 1_555
C12 C11 1_555 1_555
H10 C12 1_555 1_555
C13 C10 1_555 1_555
H11 C13 1_555 1_555
C14 N4 1_555 1_555
H12 C14 1_555 1_555
Cd1A N4 1_555 1_555
Cd1A_2 S1E 1_555 1_555
Cl1D Cd1 1_555 1_555
S1E C8E 1_555 1_555
S1D Cd1 1_555 1_555
O1E C7E 1_555 1_555
N1E H1E 1_555 1_555
N2E H2E 1_555 1_555
N3E N2E 1_555 1_555
H3E N3E 1_555 1_555
N4E Cd1 1_555 1_555
N4A Cd1 1_555 1_555
O2E C9E 1_555 1_555
C1E H4E 1_555 1_555
C2E C1E 1_555 1_555
H5E C2E 1_555 1_555
C3E C2E 1_555 1_555
H6E C3E 1_555 1_555
C4E C3E 1_555 1_555
C5E C4E 1_555 1_555
H7E C5E 1_555 1_555
C6E C1E 1_555 1_555
H8E C6E 1_555 1_555
C7E N1E 1_555 1_555
C8E N1E 1_555 1_555
C9E N3E 1_555 1_555
C10E C9E 1_555 1_555
C11E C10E 1_555 1_555
H9E C11E 1_555 1_555
C12E N4E 1_555 1_555
H10E C12E 1_555 1_555
C13E C10E 1_555 1_555
H11E C13E 1_555 1_555
C14E N4E 1_555 1_555
H12E C14E 1_555 1_555
N1 C8 1_555 1_555
N2 C8 1_555 1_555
C4 C7 1_555 1_555
C5 C6 1_555 1_555
C13 C14 1_555 1_555
N2E C8E 1_555 1_555
C4E C7E 1_555 1_555
C5E C6E 1_555 1_555
C11E C12E 1_555 1_555
C13E C14E 1_555 1_555

#END
