
#######################################################################
#
#                 Cambridge Crystallographic Data Centre
#                                CCDC 
#
#######################################################################
#
# If this CIF has been generated from an entry in the Cambridge 
# Structural Database, then it will include bibliographic, chemical, 
# crystal, experimental, refinement or atomic coordinate data resulting 
# from the CCDC's data processing and validation procedures.
#
#######################################################################

data_VUXZUK
_symmetry_cell_setting           triclinic
_symmetry_space_group_name_H-M   'P -1'
_symmetry_Int_Tables_number      2
_space_group_name_Hall           '-P 1'
loop_
_symmetry_equiv_pos_site_id
_symmetry_equiv_pos_as_xyz
1 x,y,z
2 -x,-y,-z
_cell_length_a                   7.5422(7)
_cell_length_b                   9.3001(8)
_cell_length_c                   9.9890(9)
_cell_angle_alpha                64.194(2)
_cell_angle_beta                 79.405(2)
_cell_angle_gamma                77.000(2)
_cell_volume                     611.662
loop_
_atom_site_label
_atom_site_type_symbol
_atom_site_fract_x
_atom_site_fract_y
_atom_site_fract_z
Cu1 Cu 0.5000 0.5000 0.5000
O1 O 0.4292(7) 0.6175(6) 0.6239(5)
O2 O 0.2454(8) 0.4936(11) 0.5040(10)
H1 H 0.1963 0.4563 0.4678
H2 H 0.1830 0.5087 0.5306
O3 O 0.4295(9) 0.8338(7) 0.4071(6)
O4 O 0.7158(10) 0.8939(9) 0.9512(7)
N1 N 0.3377(9) 0.7917(7) 0.7897(7)
C1 C 0.4042(10) 0.7683(9) 0.5435(8)
C2 C 0.3214(11) 0.8765(9) 0.6271(8)
H3 H 0.3826 0.9702 0.5861
H4 H 0.1932 0.9148 0.6107
C3 C 0.2186(11) 0.6898(10) 0.8751(9)
H5 H 0.1288 0.6746 0.8321
C4 C 0.2320(11) 0.6095(10) 1.0252(9)
H6 H 0.1528 0.5373 1.0848
C5 C 0.3618(12) 0.6351(10) 1.0880(9)
H7 H 0.3681 0.5819 1.1907
C6 C 0.4849(11) 0.7399(9) 1.0003(8)
C7 C 0.4693(11) 0.8171(9) 0.8479(8)
H8 H 0.5501 0.8867 0.7856
C8 C 0.6243(13) 0.7737(11) 1.0664(10)
H9 H 0.5654 0.8110 1.1431
H10 H 0.7109 0.6759 1.1117
C9 C 0.8556(11) 0.9412(11) 0.9825(10)
C10 C 0.9060(12) 0.8939(11) 1.1252(9)
H11 H 0.8431 0.8239 1.2087
C11 C 0.9504(12) 1.0480(11) 0.8589(9)
H12 H 0.9157 1.0805 0.7640
Cu1_2 Cu 1.5000 1.5000 1.5000
O1A O 1.5708(7) 1.3825(6) 1.3761(5)
O1A_2 O 0.5708(7) 0.3825(6) 0.3761(5)
O2A O 0.7546(8) 0.5064(11) 0.4960(10)
H1A H 0.8037 0.5437 0.5322
H2A H 0.8170 0.4913 0.4694
O3A O 1.5705(9) 1.1662(7) 1.5929(6)
O4A O 1.2842(10) 1.1061(9) 1.0488(7)
N1A N 1.6623(9) 1.2083(7) 1.2103(7)
C1A C 1.5958(10) 1.2317(9) 1.4565(8)
C2A C 1.6786(11) 1.1235(9) 1.3729(8)
H3A H 1.6174 1.0298 1.4139
H4A H 1.8068 1.0852 1.3893
C3A C 1.7814(11) 1.3102(10) 1.1249(9)
H5A H 1.8712 1.3254 1.1679
C4A C 1.7680(11) 1.3905(10) 0.9748(9)
H6A H 1.8472 1.4627 0.9152
C5A C 1.6382(12) 1.3649(10) 0.9120(9)
H7A H 1.6319 1.4181 0.8093
C6A C 1.5151(11) 1.2601(9) 0.9997(8)
C7A C 1.5307(11) 1.1829(9) 1.1521(8)
H8A H 1.4499 1.1133 1.2144
C8A C 1.3757(13) 1.2263(11) 0.9336(10)
H9A H 1.4346 1.1890 0.8569
H10A H 1.2891 1.3241 0.8883
C9A C 1.1444(11) 1.0588(11) 1.0175(10)
C10A C 1.0940(12) 1.1061(11) 0.8748(9)
H11A H 1.1569 1.1761 0.7913
C11A C 1.0496(12) 0.9520(11) 1.1411(9)
H12A H 1.0843 0.9195 1.2360
Br1 Br -0.09111(11) 0.71414(10) 0.61132(10)
loop_
_geom_bond_atom_site_label_1
_geom_bond_atom_site_label_2
_geom_bond_site_symmetry_1
_geom_bond_site_symmetry_2
Cu1 O1 1_555 1_555
O1 C1 1_555 1_555
O2 Cu1 1_555 1_555
H1 O2 1_555 1_555
H2 O2 1_555 1_555
O3 C1 1_555 1_555
O4 C8 1_555 1_555
N1 C2 1_555 1_555
C1 C2 1_555 1_555
C2 H3 1_555 1_555
H4 C2 1_555 1_555
C3 N1 1_555 1_555
H5 C3 1_555 1_555
C4 C3 1_555 1_555
H6 C4 1_555 1_555
C5 C4 1_555 1_555
H7 C5 1_555 1_555
C6 C5 1_555 1_555
C7 N1 1_555 1_555
H8 C7 1_555 1_555
C8 C6 1_555 1_555
H9 C8 1_555 1_555
H10 C8 1_555 1_555
C9 O4 1_555 1_555
C10 C9 1_555 1_555
H11 C10 1_555 1_555
C11 C9 1_555 1_555
H12 C11 1_555 1_555
Cu1_2 O1A 1_555 1_555
O1A C1A 1_555 1_555
O1A_2 Cu1 1_555 1_555
O2A Cu1 1_555 1_555
H1A O2A 1_555 1_555
H2A O2A 1_555 1_555
O3A C1A 1_555 1_555
O4A C8A 1_555 1_555
N1A C2A 1_555 1_555
C1A C2A 1_555 1_555
C2A H3A 1_555 1_555
H4A C2A 1_555 1_555
C3A N1A 1_555 1_555
H5A C3A 1_555 1_555
C4A C3A 1_555 1_555
H6A C4A 1_555 1_555
C5A C4A 1_555 1_555
H7A C5A 1_555 1_555
C6A C5A 1_555 1_555
C7A N1A 1_555 1_555
H8A C7A 1_555 1_555
C8A C6A 1_555 1_555
H9A C8A 1_555 1_555
H10A C8A 1_555 1_555
C9A O4A 1_555 1_555
C10A C11 1_555 1_555
H11A C10A 1_555 1_555
C11A C10 1_555 1_555
H12A C11A 1_555 1_555
C6 C7 1_555 1_555
C6A C7A 1_555 1_555
C9A C10A 1_555 1_555
C9A C11A 1_555 1_555

#END
