
#######################################################################
#
#                 Cambridge Crystallographic Data Centre
#                                CCDC 
#
#######################################################################
#
# If this CIF has been generated from an entry in the Cambridge 
# Structural Database, then it will include bibliographic, chemical, 
# crystal, experimental, refinement or atomic coordinate data resulting 
# from the CCDC's data processing and validation procedures.
#
#######################################################################

data_VUYCAU
_symmetry_cell_setting           monoclinic
_symmetry_space_group_name_H-M   'P 21/c'
_symmetry_Int_Tables_number      14
_space_group_name_Hall           '-P 2ybc'
loop_
_symmetry_equiv_pos_site_id
_symmetry_equiv_pos_as_xyz
1 x,y,z
2 -x,1/2+y,1/2-z
3 -x,-y,-z
4 x,1/2-y,1/2+z
_cell_length_a                   8.1632(16)
_cell_length_b                   16.998(3)
_cell_length_c                   7.0684(14)
_cell_angle_alpha                90
_cell_angle_beta                 90.49(3)
_cell_angle_gamma                90
_cell_volume                     980.762
loop_
_atom_site_label
_atom_site_type_symbol
_atom_site_fract_x
_atom_site_fract_y
_atom_site_fract_z
K1 K 0.30646(5) 0.70455(2) 0.53719(5)
C1 C 0.24609(16) 0.97819(8) 0.52276(19)
C2 C 0.26751(18) 0.88921(9) 0.5373(2)
C3 C 0.30932(17) 1.02265(9) 0.3727(2)
C4 C 0.16004(17) 1.01430(9) 0.6686(2)
H1 H 0.1179 0.9844 0.7670
C5 C 0.28318(19) 1.10416(9) 0.3816(2)
O1 O 0.25937(19) 0.85008(8) 0.38860(17)
O2 O 0.39480(19) 1.22199(8) 0.2829(2)
O3 O 0.28968(18) 0.86252(8) 0.69897(17)
N1 N 0.04619(18) 1.13215(9) 0.8188(2)
N2 N 0.34771(18) 1.15683(9) 0.2343(2)
C6 C 0.13803(18) 1.09462(9) 0.6657(2)
O4 O 0.3523(2) 1.13326(10) 0.0711(2)
C7 C 0.4096(2) 0.98522(10) 0.2191(2)
H2 H 0.3405 0.9739 0.1120
H3 H 0.4573 0.9373 0.2656
H4 H 0.4951 1.0207 0.1819
C8 C 0.20004(19) 1.14170(10) 0.5248(2)
H5 H 0.1866 1.1960 0.5261
O5 O 0.0391(2) 1.20350(9) 0.8230(3)
O6 O -0.0210(2) 1.08967(10) 0.9335(2)
K1C K 0.30646(5) 0.79545(2) 1.03719(5)
K1C_2 K 0.30646(5) 0.79545(2) 0.03719(5)
K1B K 0.69354(5) 1.29545(2) 0.46281(5)
K1A K 0.69354(5) 1.20455(2) -0.03719(5)
K1A_2 K -0.30646(5) 1.20455(2) 0.96281(5)
O1C O 0.25937(19) 0.64992(8) 0.88860(17)
O2B O 0.60520(19) 0.77801(8) 0.7171(2)
O3C O 0.28968(18) 0.63748(8) 0.19897(17)
O4A O 0.6477(2) 0.63326(10) 0.4289(2)
O5A O -0.0391(2) 0.70350(9) 0.6770(3)
O6A O 0.0210(2) 0.58967(10) 0.5665(2)
loop_
_geom_bond_atom_site_label_1
_geom_bond_atom_site_label_2
_geom_bond_site_symmetry_1
_geom_bond_site_symmetry_2
K1 O1 1_555 1_555
C1 C2 1_555 1_555
C2 O1 1_555 1_555
C3 C1 1_555 1_555
C4 C1 1_555 1_555
H1 C4 1_555 1_555
C5 C3 1_555 1_555
O1 K1C_2 1_555 1_555
O2 N2 1_555 1_555
O3 K1 1_555 1_555
N1 C6 1_555 1_555
N2 C5 1_555 1_555
C6 C4 1_555 1_555
O4 N2 1_555 1_555
C7 C3 1_555 1_555
H2 C7 1_555 1_555
H3 C7 1_555 1_555
H4 C7 1_555 1_555
C8 C5 1_555 1_555
H5 C8 1_555 1_555
O5 N1 1_555 1_555
O6 N1 1_555 1_555
K1C O3 1_555 1_555
K1C_2 O3C 1_555 1_555
K1B O2 1_555 1_555
K1A O4 1_555 1_555
K1A_2 O5 1_555 1_555
O1C K1 1_555 1_555
O2B K1 1_555 1_555
O3C K1 1_555 1_555
O4A K1 1_555 1_555
O5A K1 1_555 1_555
O6A K1 1_555 1_555
C2 O3 1_555 1_555
C6 C8 1_555 1_555
O6 K1A_2 1_555 1_555
K1C O1C 1_555 1_555

#END
