
#######################################################################
#
#                 Cambridge Crystallographic Data Centre
#                                CCDC 
#
#######################################################################
#
# If this CIF has been generated from an entry in the Cambridge 
# Structural Database, then it will include bibliographic, chemical, 
# crystal, experimental, refinement or atomic coordinate data resulting 
# from the CCDC's data processing and validation procedures.
#
#######################################################################

data_VUYCUO
_symmetry_cell_setting           triclinic
_symmetry_space_group_name_H-M   'P -1'
_symmetry_Int_Tables_number      2
_space_group_name_Hall           '-P 1'
loop_
_symmetry_equiv_pos_site_id
_symmetry_equiv_pos_as_xyz
1 x,y,z
2 -x,-y,-z
_cell_length_a                   4.7322(10)
_cell_length_b                   10.459(2)
_cell_length_c                   18.979(4)
_cell_angle_alpha                79.340(2)
_cell_angle_beta                 89.838(2)
_cell_angle_gamma                82.847(3)
_cell_volume                     915.756
loop_
_atom_site_label
_atom_site_type_symbol
_atom_site_fract_x
_atom_site_fract_y
_atom_site_fract_z
Zn1 Zn 0.66929(6) 0.53465(3) 0.409892(14)
Cl1 Cl 0.46808(18) 1.18539(7) 0.33205(4)
Cl2 Cl -0.18417(19) 1.02366(8) 0.14274(4)
O1 O 0.5602(4) 0.69621(17) 0.44411(10)
C1 C 0.2487(7) 0.8626(2) 0.48725(14)
H1 H 0.0425 0.8686 0.4858
H2 H 0.3034 0.8854 0.5321
C2 C 0.3707(5) 0.7213(2) 0.48733(13)
O2 O 0.3338(4) 0.95654(17) 0.43021(10)
C3 C 0.2572(6) 1.0724(2) 0.31164(15)
C4 C 0.2031(6) 0.9673(2) 0.36461(14)
C5 C 0.1426(6) 1.0904(3) 0.24305(15)
H3 H 0.1846 1.1593 0.2077
C6 C 0.0218(6) 0.8825(3) 0.34807(15)
H4 H -0.0198 0.8129 0.3830
C7 C -0.0369(6) 1.0027(3) 0.22834(15)
C8 C -0.0982(6) 0.9003(3) 0.27995(16)
H5 H -0.2199 0.8429 0.2693
O3 O 0.4663(4) 0.5250(2) 0.32238(10)
C9 C 0.2002(5) 0.5268(2) 0.32394(13)
C10 C 0.0513(6) 0.4985(3) 0.25952(14)
H6 H -0.0637 0.4283 0.2752
H7 H -0.0762 0.5759 0.2383
O4 O 0.2391(4) 0.46218(19) 0.20660(10)
C11 C 0.3544(6) 0.5571(3) 0.16035(14)
C12 C 0.5536(6) 0.5123(3) 0.11352(14)
C13 C 0.6058(7) 0.7315(3) 0.05874(16)
C14 C 0.4104(7) 0.7786(3) 0.10480(18)
H8 H 0.3623 0.8684 0.1018
C15 C 0.6794(7) 0.5995(3) 0.06313(15)
H9 H 0.8135 0.5685 0.0323
C16 C 0.2865(7) 0.6908(3) 0.15540(17)
H10 H 0.1552 0.7224 0.1866
Cl3 Cl 0.6472(2) 0.34585(8) 0.11910(5)
Cl4 Cl 0.7620(2) 0.84005(10) -0.00545(5)
O5 O 0.0604(4) 0.54895(18) 0.37772(9)
O6 O 0.2660(4) 0.64018(18) 0.53311(11)
Zn1_2 Zn -0.33071(6) 0.53465(3) 0.409892(14)
Zn1A Zn 0.33071(6) 0.46535(3) 0.590108(14)
O5_2 O 1.0604(4) 0.54895(18) 0.37772(9)
O6A O 0.7340(4) 0.35982(18) 0.46689(11)
loop_
_geom_bond_atom_site_label_1
_geom_bond_atom_site_label_2
_geom_bond_site_symmetry_1
_geom_bond_site_symmetry_2
Zn1 O1 1_555 1_555
Cl1 C3 1_555 1_555
Cl2 C7 1_555 1_555
O1 C2 1_555 1_555
C1 H1 1_555 1_555
H2 C1 1_555 1_555
C2 C1 1_555 1_555
O2 C1 1_555 1_555
C3 C4 1_555 1_555
C4 O2 1_555 1_555
C5 C3 1_555 1_555
H3 C5 1_555 1_555
C6 C4 1_555 1_555
H4 C6 1_555 1_555
C7 C5 1_555 1_555
C8 C6 1_555 1_555
H5 C8 1_555 1_555
O3 Zn1 1_555 1_555
C9 O3 1_555 1_555
C10 C9 1_555 1_555
H6 C10 1_555 1_555
H7 C10 1_555 1_555
O4 C10 1_555 1_555
C11 O4 1_555 1_555
C12 C11 1_555 1_555
C13 C14 1_555 1_555
C14 H8 1_555 1_555
C15 C12 1_555 1_555
H9 C15 1_555 1_555
C16 C11 1_555 1_555
H10 C16 1_555 1_555
Cl3 C12 1_555 1_555
Cl4 C13 1_555 1_555
O5 C9 1_555 1_555
O6 C2 1_555 1_555
Zn1_2 O5 1_555 1_555
Zn1A O6 1_555 1_555
O5_2 Zn1 1_555 1_555
O6A Zn1 1_555 1_555
C7 C8 1_555 1_555
C13 C15 1_555 1_555
C14 C16 1_555 1_555

#END
