
#######################################################################
#
#                 Cambridge Crystallographic Data Centre
#                                CCDC 
#
#######################################################################
#
# If this CIF has been generated from an entry in the Cambridge 
# Structural Database, then it will include bibliographic, chemical, 
# crystal, experimental, refinement or atomic coordinate data resulting 
# from the CCDC's data processing and validation procedures.
#
#######################################################################

data_VUYFAX
_symmetry_cell_setting           monoclinic
_symmetry_space_group_name_H-M   'P 21/c'
_symmetry_Int_Tables_number      14
_space_group_name_Hall           '-P 2ybc'
loop_
_symmetry_equiv_pos_site_id
_symmetry_equiv_pos_as_xyz
1 x,y,z
2 -x,1/2+y,1/2-z
3 -x,-y,-z
4 x,1/2-y,1/2+z
_cell_length_a                   14.2727(13)
_cell_length_b                   10.9821(10)
_cell_length_c                   20.0716(18)
_cell_angle_alpha                90
_cell_angle_beta                 99.249(3)
_cell_angle_gamma                90
_cell_volume                     3105.21
loop_
_atom_site_label
_atom_site_type_symbol
_atom_site_fract_x
_atom_site_fract_y
_atom_site_fract_z
Pt1 Pt 0.26231(3) 0.37872(3) 0.527664(17)
Cl1 Cl 0.2212(2) 0.2066(3) 0.58061(15)
Cl2 Cl 0.3097(2) 0.5510(2) 0.47650(14)
N1 N 0.2340(6) 0.4823(8) 0.6036(4)
C1 C 0.1620(8) 0.5710(9) 0.5966(5)
C2 C 0.0955(8) 0.6111(11) 0.5421(5)
H1 H 0.0940 0.5768 0.4985
C3 C 0.0340(8) 0.6989(12) 0.5523(7)
H2 H -0.0100 0.7293 0.5156
C4 C 0.0348(10) 0.7488(11) 0.6216(7)
H3 H -0.0113 0.8079 0.6284
C5 C 0.0992(9) 0.7126(10) 0.6750(6)
H4 H 0.1018 0.7468 0.7188
C6 C 0.1626(8) 0.6199(10) 0.6609(5)
N2 N 0.2308(7) 0.5555(8) 0.7023(4)
N3 N 0.2737(7) 0.4742(8) 0.6659(4)
O1 O 0.2552(6) 0.5648(7) 0.7691(4)
N4 N 0.2852(7) 0.2812(8) 0.4469(4)
C7 C 0.3658(7) 0.2703(9) 0.4180(5)
C8 C 0.4600(9) 0.3121(10) 0.4392(5)
H5 H 0.4781 0.3549 0.4804
C9 C 0.5228(9) 0.2866(11) 0.3965(6)
H6 H 0.5870 0.3119 0.4081
C10 C 0.4941(9) 0.2230(12) 0.3349(6)
H7 H 0.5403 0.2078 0.3067
C11 C 0.4049(9) 0.1832(10) 0.3144(6)
H8 H 0.3864 0.1416 0.2728
C12 C 0.3423(8) 0.2076(9) 0.3586(5)
N5 N 0.2459(7) 0.1814(9) 0.3558(4)
N6 N 0.2129(6) 0.2248(8) 0.4094(4)
O2 O 0.1871(6) 0.1243(9) 0.3072(4)
H9 H 0.2188 0.0847 0.2828
O3 O 0.4161(7) 0.6331(9) 0.3022(5)
C13 C 0.4979(11) 0.6571(17) 0.3516(7)
H10 H 0.4980 0.6022 0.3907
H11 H 0.5561 0.6407 0.3320
C14 C 0.4981(11) 0.7788(17) 0.3731(9)
H12 H 0.5588 0.7971 0.4028
H13 H 0.4923 0.8336 0.3335
O4 O 0.4228(7) 0.7993(8) 0.4081(5)
C15 C 0.4190(14) 0.9189(16) 0.4377(13)
H14 H 0.4796 0.9350 0.4680
H15 H 0.4119 0.9808 0.4014
C16 C 0.3432(19) 0.9305(19) 0.4746(11)
H16 H 0.3465 1.0111 0.4969
H17 H 0.3490 0.8672 0.5101
O5 O 0.2539(9) 0.9180(9) 0.4314(5)
C17 C 0.1692(19) 0.9269(17) 0.4658(11)
H18 H 0.1752 0.8691 0.5041
H19 H 0.1639 1.0103 0.4835
C18 C 0.084(2) 0.897(2) 0.4162(15)
H20 H 0.0261 0.9117 0.4364
H21 H 0.0813 0.9504 0.3760
O6 O 0.0883(8) 0.7821(13) 0.3984(6)
C19 C 0.0019(12) 0.740(3) 0.3545(10)
H22 H -0.0530 0.7486 0.3787
H23 H -0.0100 0.7918 0.3137
C20 C 0.0092(14) 0.613(3) 0.3341(10)
H24 H 0.0174 0.5602 0.3746
H25 H -0.0504 0.5886 0.3048
O7 O 0.0817(8) 0.5961(12) 0.3011(6)
C21 C 0.0933(18) 0.468(2) 0.2871(12)
H26 H 0.0316 0.4331 0.2665
H27 H 0.1158 0.4242 0.3297
C22 C 0.1637(17) 0.4551(19) 0.2400(11)
H28 H 0.1704 0.3682 0.2285
H29 H 0.1420 0.5006 0.1978
O8 O 0.2516(10) 0.5015(11) 0.2723(6)
C23 C 0.3247(16) 0.4920(14) 0.2324(8)
H30 H 0.3163 0.5539 0.1960
H31 H 0.3247 0.4102 0.2117
C24 C 0.4148(16) 0.5133(16) 0.2799(8)
H32 H 0.4188 0.4571 0.3189
H33 H 0.4699 0.4980 0.2568
K1 K 0.25264(18) 0.7160(2) 0.34906(12)
O1C O 0.2552(6) 0.9352(7) 0.2691(4)
K1C K 0.25264(18) 0.7840(2) 0.84906(12)
loop_
_geom_bond_atom_site_label_1
_geom_bond_atom_site_label_2
_geom_bond_site_symmetry_1
_geom_bond_site_symmetry_2
Pt1 Cl1 1_555 1_555
Cl2 Pt1 1_555 1_555
N1 Pt1 1_555 1_555
C1 N1 1_555 1_555
C2 C1 1_555 1_555
H1 C2 1_555 1_555
C3 C2 1_555 1_555
H2 C3 1_555 1_555
C4 C3 1_555 1_555
H3 C4 1_555 1_555
C5 C4 1_555 1_555
H4 C5 1_555 1_555
C6 C1 1_555 1_555
N2 C6 1_555 1_555
N3 N1 1_555 1_555
O1 N2 1_555 1_555
N4 Pt1 1_555 1_555
C7 N4 1_555 1_555
C8 C7 1_555 1_555
H5 C8 1_555 1_555
C9 C8 1_555 1_555
H6 C9 1_555 1_555
C10 C9 1_555 1_555
H7 C10 1_555 1_555
C11 C10 1_555 1_555
H8 C11 1_555 1_555
C12 C7 1_555 1_555
N5 C12 1_555 1_555
N6 N4 1_555 1_555
O2 N5 1_555 1_555
H9 O2 1_555 1_555
O3 C13 1_555 1_555
C13 H10 1_555 1_555
H11 C13 1_555 1_555
C14 C13 1_555 1_555
H12 C14 1_555 1_555
H13 C14 1_555 1_555
O4 C14 1_555 1_555
C15 O4 1_555 1_555
H14 C15 1_555 1_555
H15 C15 1_555 1_555
C16 C15 1_555 1_555
H16 C16 1_555 1_555
H17 C16 1_555 1_555
O5 C16 1_555 1_555
C17 O5 1_555 1_555
H18 C17 1_555 1_555
H19 C17 1_555 1_555
C18 C17 1_555 1_555
H20 C18 1_555 1_555
H21 C18 1_555 1_555
O6 C18 1_555 1_555
C19 O6 1_555 1_555
H22 C19 1_555 1_555
H23 C19 1_555 1_555
C20 C19 1_555 1_555
H24 C20 1_555 1_555
H25 C20 1_555 1_555
O7 C20 1_555 1_555
C21 O7 1_555 1_555
H26 C21 1_555 1_555
H27 C21 1_555 1_555
C22 C21 1_555 1_555
H28 C22 1_555 1_555
H29 C22 1_555 1_555
O8 C22 1_555 1_555
C23 O8 1_555 1_555
H30 C23 1_555 1_555
H31 C23 1_555 1_555
C24 O3 1_555 1_555
H32 C24 1_555 1_555
H33 C24 1_555 1_555
K1 Cl2 1_555 1_555
O1C K1 1_555 1_555
K1C O1 1_555 1_555
C5 C6 1_555 1_555
N2 N3 1_555 1_555
C11 C12 1_555 1_555
N5 N6 1_555 1_555
O3 K1 1_555 1_555
O4 K1 1_555 1_555
O5 K1 1_555 1_555
O6 K1 1_555 1_555
O7 K1 1_555 1_555
O8 K1 1_555 1_555
C23 C24 1_555 1_555

#END
