
#######################################################################
#
#                 Cambridge Crystallographic Data Centre
#                                CCDC 
#
#######################################################################
#
# If this CIF has been generated from an entry in the Cambridge 
# Structural Database, then it will include bibliographic, chemical, 
# crystal, experimental, refinement or atomic coordinate data resulting 
# from the CCDC's data processing and validation procedures.
#
#######################################################################

data_VUYNOS
_symmetry_cell_setting           triclinic
_symmetry_space_group_name_H-M   'P -1'
_symmetry_Int_Tables_number      2
_space_group_name_Hall           '-P 1'
loop_
_symmetry_equiv_pos_site_id
_symmetry_equiv_pos_as_xyz
1 x,y,z
2 -x,-y,-z
_cell_length_a                   7.411(2)
_cell_length_b                   9.849(2)
_cell_length_c                   12.511(2)
_cell_angle_alpha                93.60(2)
_cell_angle_beta                 91.45(1)
_cell_angle_gamma                98.18(3)
_cell_volume                     901.573
loop_
_atom_site_label
_atom_site_type_symbol
_atom_site_fract_x
_atom_site_fract_y
_atom_site_fract_z
C1 C 0.5590(5) 0.4030(3) 0.7595(3)
C2 C 0.5309(6) 0.3909(4) 0.8684(4)
C3 C 0.6723(6) 0.3822(4) 0.9418(3)
C4 C 0.8486(6) 0.3880(4) 0.9045(4)
C5 C 0.8796(6) 0.4000(4) 0.7966(4)
C6 C 0.7372(5) 0.4077(3) 0.7224(3)
C7 C 0.3928(5) 0.4107(4) 0.6863(3)
C8 C 0.7796(5) 0.4243(4) 0.6063(3)
O1 O 0.9354(3) 0.4015(2) 0.5757(2)
O2 O 0.6617(3) 0.4616(2) 0.5443(2)
O3 O 0.3235(3) 0.5187(2) 0.6949(2)
O4 O 0.3338(3) 0.3060(2) 0.6253(2)
C9 C 0.8059(4) -0.0275(3) 0.7622(3)
C10 C 0.7394(5) 0.0301(4) 0.8558(4)
C11 C 0.7484(5) -0.0332(4) 0.9517(4)
C12 C 0.8239(5) -0.1528(4) 0.9559(4)
C13 C 0.8859(5) -0.2141(5) 0.8629(4)
C14 C 0.8757(4) -0.1521(3) 0.7657(3)
C15 C 0.8175(6) 0.0520(4) 0.6631(3)
C16 C 0.9311(5) -0.2247(4) 0.6636(3)
O5 O 0.6693(3) 0.0724(3) 0.6180(2)
O6 O 0.9744(3) 0.1006(2) 0.6351(2)
O7 O 0.8244(3) -0.2343(2) 0.5827(2)
O8 O 1.0777(3) -0.2760(2) 0.6673(2)
O9 O 0.5612(5) 0.1763(3) 0.4319(3)
O10 O 1.4123(6) -0.2485(5) 0.8146(3)
O11 O 1.2958(6) 0.0368(4) 0.7345(3)
Li1 Li 1.0810(8) 0.2494(6) 0.5622(5)
Li2 Li 0.4259(8) 0.3377(7) 0.4735(5)
Li3 Li 1.3041(9) -0.1532(7) 0.7067(5)
Li4 Li 1.1443(8) 0.5646(6) 0.5875(5)
H1 H 0.4090(37) 0.3810(28) 0.8952(22)
H2 H 0.6417(41) 0.3587(31) 1.0292(26)
H3 H 0.9465(43) 0.3666(33) 0.9601(25)
H4 H 0.9999(37) 0.4023(29) 0.7702(23)
H5 H 0.6921(36) 0.1188(26) 0.8533(22)
H6 H 0.7080(39) 0.0144(30) 1.0213(24)
H7 H 0.8279(36) -0.2026(27) 1.0262(22)
H8 H 0.9365(38) -0.3049(28) 0.8641(22)
H9 H 0.4905(44) 0.1079(33) 0.4231(28)
H10 H 0.6086(49) 0.1567(42) 0.4905(30)
H11 H 1.4023(61) -0.3464(42) 0.7845(36)
H12 H 1.4851(50) -0.2363(46) 0.8359(35)
H13 H 1.2246(45) 0.0553(41) 0.7150(31)
H14 H 1.3384(88) 0.1247(60) 0.6866(48)
Li4_2 Li 0.1443(8) 0.5646(6) 0.5875(5)
Li1_2 Li 0.0810(8) 0.2494(6) 0.5622(5)
Li1A Li 0.9190(8) -0.2494(6) 0.4378(5)
Li2A Li 0.5741(8) -0.3377(7) 0.5265(5)
Li4_3 Li 1.1443(8) -0.4354(6) 0.5875(5)
Li3A Li 0.6959(9) 0.1532(7) 0.2933(5)
O4_2 O 1.3338(3) 0.3060(2) 0.6253(2)
O7A O 1.1756(3) 0.2343(2) 0.4173(2)
O7A_2 O 0.1756(3) 0.2343(2) 0.4173(2)
O9A O 1.4388(5) -0.1763(3) 0.5681(3)
O3_2 O 1.3235(3) 0.5187(2) 0.6949(2)
O8_2 O 1.0777(3) 0.7240(2) 0.6673(2)
H9A H 1.5095(44) -0.1079(33) 0.5769(28)
H10A H 1.3914(49) -0.1567(42) 0.5095(30)
loop_
_geom_bond_atom_site_label_1
_geom_bond_atom_site_label_2
_geom_bond_site_symmetry_1
_geom_bond_site_symmetry_2
C1 C2 1_555 1_555
C2 C3 1_555 1_555
C3 C4 1_555 1_555
C4 C5 1_555 1_555
C5 C6 1_555 1_555
C6 C1 1_555 1_555
C7 C1 1_555 1_555
C8 C6 1_555 1_555
O1 C8 1_555 1_555
O2 C8 1_555 1_555
O3 C7 1_555 1_555
O4 C7 1_555 1_555
C9 C10 1_555 1_555
C10 C11 1_555 1_555
C11 C12 1_555 1_555
C12 C13 1_555 1_555
C13 C14 1_555 1_555
C14 C9 1_555 1_555
C15 C9 1_555 1_555
C16 C14 1_555 1_555
O5 C15 1_555 1_555
O6 C15 1_555 1_555
O7 C16 1_555 1_555
O8 C16 1_555 1_555
O9 Li2 1_555 1_555
O10 Li3 1_555 1_555
O11 Li3 1_555 1_555
Li1 O1 1_555 1_555
Li2 O2 1_555 1_555
Li3 O8 1_555 1_555
Li4 O1 1_555 1_555
H1 C2 1_555 1_555
H2 C3 1_555 1_555
H3 C4 1_555 1_555
H4 C5 1_555 1_555
H5 C10 1_555 1_555
H6 C11 1_555 1_555
H7 C12 1_555 1_555
H8 C13 1_555 1_555
H9 O9 1_555 1_555
H10 O9 1_555 1_555
H11 O10 1_555 1_555
H12 O10 1_555 1_555
H13 O11 1_555 1_555
H14 O11 1_555 1_555
Li4_2 O3 1_555 1_555
Li1_2 O4 1_555 1_555
Li1A O7 1_555 1_555
Li2A O7 1_555 1_555
Li4_3 O8 1_555 1_555
Li3A O9 1_555 1_555
O4_2 Li1 1_555 1_555
O7A Li1 1_555 1_555
O7A_2 Li2 1_555 1_555
O9A Li3 1_555 1_555
O3_2 Li4 1_555 1_555
O8_2 Li4 1_555 1_555
H9A O9A 1_555 1_555
H10A O9A 1_555 1_555
O4 Li2 1_555 1_555
O6 Li1 1_555 1_555
Li1_2 O7A_2 1_555 1_555

#END
