
#######################################################################
#
#                 Cambridge Crystallographic Data Centre
#                                CCDC 
#
#######################################################################
#
# If this CIF has been generated from an entry in the Cambridge 
# Structural Database, then it will include bibliographic, chemical, 
# crystal, experimental, refinement or atomic coordinate data resulting 
# from the CCDC's data processing and validation procedures.
#
#######################################################################

data_VUYQUC
_symmetry_cell_setting           monoclinic
_symmetry_space_group_name_H-M   'P 21/c'
_symmetry_Int_Tables_number      14
_space_group_name_Hall           '-P 2ybc'
loop_
_symmetry_equiv_pos_site_id
_symmetry_equiv_pos_as_xyz
1 x,y,z
2 -x,1/2+y,1/2-z
3 -x,-y,-z
4 x,1/2-y,1/2+z
_cell_length_a                   17.2461(10)
_cell_length_b                   5.4568(3)
_cell_length_c                   10.7178(6)
_cell_angle_alpha                90
_cell_angle_beta                 106.190(2)
_cell_angle_gamma                90
_cell_volume                     968.636
loop_
_atom_site_label
_atom_site_type_symbol
_atom_site_fract_x
_atom_site_fract_y
_atom_site_fract_z
Na1 Na 0.08149(3) 0.90539(10) 0.72118(5)
S1 S 0.148180(17) 1.41852(5) 0.54858(3)
Cl1 Cl 0.42170(2) 1.19246(8) 0.92304(3)
Cl2 Cl 0.25118(2) 1.84404(7) 0.45028(3)
O1 O 0.12791(6) 1.21059(18) 0.61606(9)
O2 O 0.13814(6) 1.37277(18) 0.41079(8)
O3 O 0.10928(6) 1.64583(17) 0.57044(8)
C1 C 0.29337(8) 1.3214(2) 0.72508(11)
H1 H 0.2667 1.1916 0.7514
C2 C 0.37368(8) 1.3708(3) 0.78932(12)
C3 C 0.41525(8) 1.5610(3) 0.75190(13)
H2 H 0.4688 1.5921 0.7967
C4 C 0.37588(8) 1.7047(3) 0.64672(14)
H3 H 0.4032 1.8323 0.6199
C5 C 0.29559(8) 1.6583(2) 0.58129(12)
C6 C 0.25339(7) 1.4687(2) 0.62083(11)
O4 O 0.04880(6) 0.57236(17) 0.84097(9)
H4 H 0.0610 0.6420 0.9041
H5 H 0.0771 0.4600 0.8467
Na1C Na 0.08149(3) 1.59461(10) 0.22118(5)
Na1_2 Na 0.08149(3) 1.90539(10) 0.72118(5)
Na1A Na -0.08149(3) 0.40539(10) 0.77882(5)
O2C O 0.13814(6) 1.12723(18) 0.91079(8)
O3_2 O 0.10928(6) 0.64583(17) 0.57044(8)
O4A O -0.04880(6) 1.07236(17) 0.65903(9)
H4A H -0.0610 1.1420 0.5959
H5A H -0.0771 0.9600 0.6533
loop_
_geom_bond_atom_site_label_1
_geom_bond_atom_site_label_2
_geom_bond_site_symmetry_1
_geom_bond_site_symmetry_2
Na1 O1 1_555 1_555
S1 O1 1_555 1_555
Cl1 C2 1_555 1_555
Cl2 C5 1_555 1_555
O2 S1 1_555 1_555
O3 S1 1_555 1_555
C1 H1 1_555 1_555
C2 C1 1_555 1_555
C3 C2 1_555 1_555
H2 C3 1_555 1_555
C4 C3 1_555 1_555
H3 C4 1_555 1_555
C5 C4 1_555 1_555
C6 S1 1_555 1_555
O4 Na1 1_555 1_555
H4 O4 1_555 1_555
H5 O4 1_555 1_555
Na1C O2 1_555 1_555
Na1_2 O3 1_555 1_555
Na1A O4 1_555 1_555
O2C Na1 1_555 1_555
O3_2 Na1 1_555 1_555
O4A Na1 1_555 1_555
H4A O4A 1_555 1_555
H5A O4A 1_555 1_555
C1 C6 1_555 1_555
C5 C6 1_555 1_555

#END
