
#######################################################################
#
#                 Cambridge Crystallographic Data Centre
#                                CCDC 
#
#######################################################################
#
# If this CIF has been generated from an entry in the Cambridge 
# Structural Database, then it will include bibliographic, chemical, 
# crystal, experimental, refinement or atomic coordinate data resulting 
# from the CCDC's data processing and validation procedures.
#
#######################################################################

data_VUYQIQ
_symmetry_cell_setting           tetragonal
_symmetry_space_group_name_H-M   'I -4'
_symmetry_Int_Tables_number      82
_space_group_name_Hall           'I -4'
loop_
_symmetry_equiv_pos_site_id
_symmetry_equiv_pos_as_xyz
1 x,y,z
2 y,-x,-z
3 -x,-y,z
4 -y,x,-z
5 1/2+x,1/2+y,1/2+z
6 1/2+y,1/2-x,1/2-z
7 1/2-x,1/2-y,1/2+z
8 1/2-y,1/2+x,1/2-z
_cell_length_a                   23.604(3)
_cell_length_b                   23.604(3)
_cell_length_c                   13.8458(18)
_cell_angle_alpha                90
_cell_angle_beta                 90
_cell_angle_gamma                90
_cell_volume                     7714.17
loop_
_atom_site_label
_atom_site_type_symbol
_atom_site_fract_x
_atom_site_fract_y
_atom_site_fract_z
Sn1 Sn 0.217535(17) 0.739451(17) 0.13286(3)
Sn2 Sn 0.036022(17) 0.791156(19) 0.37080(3)
O1 O 0.15759(19) 0.7609(2) 0.2618(3)
O2 O 0.12560(18) 0.8069(2) 0.3907(3)
O3 O 0.2318(2) 0.77354(19) 0.5059(3)
O4 O 0.2431(2) 0.8673(2) 0.5045(3)
C1 C 0.1443(3) 0.7032(3) 0.0687(5)
C2 C 0.1082(3) 0.6687(3) 0.1211(7)
H1 H 0.1146 0.6622 0.1865
C3 C 0.0618(4) 0.6435(4) 0.0742(7)
H2 H 0.0370 0.6211 0.1099
C4 C 0.0520(3) 0.6508(4) -0.0206(6)
H3 H 0.0214 0.6329 -0.0501
C5 C 0.0877(4) 0.6850(4) -0.0738(6)
H4 H 0.0808 0.6905 -0.1392
C6 C 0.1346(3) 0.7117(4) -0.0299(5)
H5 H 0.1587 0.7346 -0.0660
C7 C 0.2330(3) 0.8282(3) 0.1215(5)
C8 C 0.1879(3) 0.8657(3) 0.1222(7)
H6 H 0.1509 0.8523 0.1236
C9 C 0.1984(3) 0.9234(3) 0.1208(6)
H7 H 0.1682 0.9486 0.1171
C10 C 0.2528(3) 0.9440(3) 0.1246(7)
H8 H 0.2592 0.9828 0.1258
C11 C 0.2972(3) 0.9074(3) 0.1267(7)
H9 H 0.3340 0.9212 0.1293
C12 C 0.2877(3) 0.8498(3) 0.1249(7)
H10 H 0.3183 0.8250 0.1260
C13 C 0.2702(3) 0.6933(3) 0.2302(5)
C14 C 0.3288(3) 0.6913(3) 0.2152(5)
H11 H 0.3449 0.7104 0.1633
C15 C 0.3635(3) 0.6601(4) 0.2795(6)
H12 H 0.4026 0.6600 0.2713
C16 C 0.3395(4) 0.6300(3) 0.3539(6)
H13 H 0.3623 0.6077 0.3935
C17 C 0.2809(3) 0.6324(3) 0.3708(6)
H14 H 0.2650 0.6129 0.4225
C18 C 0.2473(3) 0.6642(3) 0.3096(5)
H15 H 0.2086 0.6663 0.3212
C19 C 0.0405(3) 0.7008(3) 0.3759(5)
C20 C -0.0015(4) 0.6672(4) 0.3374(6)
H16 H -0.0334 0.6838 0.3097
C21 C 0.0036(5) 0.6079(4) 0.3399(7)
H17 H -0.0252 0.5855 0.3147
C22 C 0.0506(4) 0.5827(4) 0.3790(8)
H18 H 0.0539 0.5434 0.3802
C23 C 0.0934(4) 0.6165(4) 0.4168(7)
H19 H 0.1255 0.5997 0.4430
C24 C 0.0887(3) 0.6751(3) 0.4158(5)
H20 H 0.1176 0.6973 0.4415
C25 C 0.0251(3) 0.8406(3) 0.4989(5)
C26 C -0.0171(3) 0.8283(3) 0.5668(5)
H21 H -0.0421 0.7986 0.5556
C27 C -0.0219(3) 0.8604(3) 0.6510(5)
H22 H -0.0494 0.8514 0.6966
C28 C 0.0143(4) 0.9055(4) 0.6665(6)
H23 H 0.0108 0.9273 0.7221
C29 C 0.0555(3) 0.9182(4) 0.5996(6)
H24 H 0.0798 0.9485 0.6103
C30 C 0.0609(3) 0.8857(3) 0.5161(5)
H25 H 0.0890 0.8945 0.4714
C31 C 0.0315(3) 0.8320(3) 0.2348(5)
C32 C 0.0313(3) 0.8901(3) 0.2256(5)
H26 H 0.0314 0.9121 0.2813
C33 C 0.0311(3) 0.9169(3) 0.1369(7)
H27 H 0.0307 0.9563 0.1337
C34 C 0.0316(3) 0.8851(4) 0.0528(6)
H28 H 0.0312 0.9029 -0.0071
C35 C 0.0327(3) 0.8264(4) 0.0589(5)
H29 H 0.0338 0.8046 0.0030
C36 C 0.0321(3) 0.8009(3) 0.1475(5)
H30 H 0.0320 0.7615 0.1506
C37 C 0.1639(3) 0.7929(3) 0.3331(4)
C38 C 0.2218(3) 0.8202(3) 0.3560(5)
H31 H 0.2517 0.7985 0.3254
H32 H 0.2228 0.8583 0.3301
C39 C 0.2319(3) 0.8221(3) 0.4648(4)
O5 O -0.06172(18) 0.7845(2) 0.3536(3)
H33 H -0.0802 0.7629 0.3919
H34 H -0.0759 0.8179 0.3609
Sn1F Sn 0.282465(17) 0.760549(17) 0.63286(3)
O3F O 0.2682(2) 0.72646(19) 0.0059(3)
O6 O 0.1396(14) 0.4466(12) 0.798(2)
C40 C 0.1640(7) 0.5374(7) 0.8785(16)
H35 H 0.2028 0.5338 0.8586
H36 H 0.1616 0.5339 0.9475
H37 H 0.1498 0.5738 0.8593
C41 C 0.1293(10) 0.4918(11) 0.8319(19)
C42 C 0.0680(10) 0.4962(11) 0.861(2)
H38 H 0.0490 0.4613 0.8469
H39 H 0.0503 0.5266 0.8265
H40 H 0.0657 0.5036 0.9294
loop_
_geom_bond_atom_site_label_1
_geom_bond_atom_site_label_2
_geom_bond_site_symmetry_1
_geom_bond_site_symmetry_2
Sn1 O1 1_555 1_555
Sn2 O2 1_555 1_555
O1 C37 1_555 1_555
O2 C37 1_555 1_555
O3 C39 1_555 1_555
O4 C39 1_555 1_555
C1 Sn1 1_555 1_555
C2 C1 1_555 1_555
H1 C2 1_555 1_555
C3 C2 1_555 1_555
H2 C3 1_555 1_555
C4 C3 1_555 1_555
H3 C4 1_555 1_555
C5 C4 1_555 1_555
H4 C5 1_555 1_555
C6 C1 1_555 1_555
H5 C6 1_555 1_555
C7 Sn1 1_555 1_555
C8 C7 1_555 1_555
H6 C8 1_555 1_555
C9 C8 1_555 1_555
H7 C9 1_555 1_555
C10 C9 1_555 1_555
H8 C10 1_555 1_555
C11 C10 1_555 1_555
H9 C11 1_555 1_555
C12 C7 1_555 1_555
H10 C12 1_555 1_555
C13 Sn1 1_555 1_555
C14 C13 1_555 1_555
H11 C14 1_555 1_555
C15 C14 1_555 1_555
H12 C15 1_555 1_555
C16 C15 1_555 1_555
H13 C16 1_555 1_555
C17 C16 1_555 1_555
H14 C17 1_555 1_555
C18 C13 1_555 1_555
H15 C18 1_555 1_555
C19 Sn2 1_555 1_555
C20 C19 1_555 1_555
H16 C20 1_555 1_555
C21 C20 1_555 1_555
H17 C21 1_555 1_555
C22 C21 1_555 1_555
H18 C22 1_555 1_555
C23 C22 1_555 1_555
H19 C23 1_555 1_555
C24 C19 1_555 1_555
H20 C24 1_555 1_555
C25 Sn2 1_555 1_555
C26 C25 1_555 1_555
H21 C26 1_555 1_555
C27 C26 1_555 1_555
H22 C27 1_555 1_555
C28 C27 1_555 1_555
H23 C28 1_555 1_555
C29 C28 1_555 1_555
H24 C29 1_555 1_555
C30 C25 1_555 1_555
H25 C30 1_555 1_555
C31 Sn2 1_555 1_555
C32 C31 1_555 1_555
H26 C32 1_555 1_555
C33 C32 1_555 1_555
H27 C33 1_555 1_555
C34 C33 1_555 1_555
H28 C34 1_555 1_555
C35 C34 1_555 1_555
H29 C35 1_555 1_555
C36 C31 1_555 1_555
H30 C36 1_555 1_555
C37 C38 1_555 1_555
C38 H31 1_555 1_555
H32 C38 1_555 1_555
C39 C38 1_555 1_555
O5 Sn2 1_555 1_555
H33 O5 1_555 1_555
H34 O5 1_555 1_555
O6 C41 1_555 1_555
C40 H35 1_555 1_555
H36 C40 1_555 1_555
H37 C40 1_555 1_555
C41 C40 1_555 1_555
C42 C41 1_555 1_555
H38 C42 1_555 1_555
H39 C42 1_555 1_555
H40 C42 1_555 1_555
Sn1F O3 1_555 1_555
O3F Sn1 1_555 1_555
C5 C6 1_555 1_555
C11 C12 1_555 1_555
C17 C18 1_555 1_555
C23 C24 1_555 1_555
C29 C30 1_555 1_555
C35 C36 1_555 1_555

#END
