
#######################################################################
#
#                 Cambridge Crystallographic Data Centre
#                                CCDC 
#
#######################################################################
#
# If this CIF has been generated from an entry in the Cambridge 
# Structural Database, then it will include bibliographic, chemical, 
# crystal, experimental, refinement or atomic coordinate data resulting 
# from the CCDC's data processing and validation procedures.
#
#######################################################################

data_VUYSEO
_symmetry_cell_setting           triclinic
_symmetry_space_group_name_H-M   'P -1'
_symmetry_Int_Tables_number      2
_space_group_name_Hall           '-P 1'
loop_
_symmetry_equiv_pos_site_id
_symmetry_equiv_pos_as_xyz
1 x,y,z
2 -x,-y,-z
_cell_length_a                   9.275(3)
_cell_length_b                   10.378(3)
_cell_length_c                   10.625(5)
_cell_angle_alpha                114.461(3)
_cell_angle_beta                 101.274(3)
_cell_angle_gamma                106.687(2)
_cell_volume                     831.73
loop_
_atom_site_label
_atom_site_type_symbol
_atom_site_fract_x
_atom_site_fract_y
_atom_site_fract_z
Cd1 Cd 0.18482(2) 0.45331(2) 0.36199(2)
O1 O 0.0456(2) 0.6107(3) 0.3511(2)
O2 O -0.0444(3) 0.3806(3) 0.1510(3)
O3 O -0.3418(3) 0.5696(3) 0.4297(3)
O4 O -0.2497(3) 0.3895(3) 0.3798(3)
O5 O -0.0262(3) 0.2695(3) 0.3722(3)
H1 H -0.098(4) 0.297(5) 0.346(4)
H2 H -0.007(4) 0.295(4) 0.461(2)
O6 O 0.4016(3) 0.6335(3) 0.3687(3)
H3 H 0.483(3) 0.611(4) 0.379(4)
H4 H 0.430(4) 0.720(3) 0.441(3)
N1 N 0.2421(3) 0.2552(3) 0.2065(3)
N2 N 0.5008(3) 0.0578(3) 0.3970(3)
C1 C 0.1678(4) 0.1796(4) 0.0587(4)
H5 H 0.0989 0.2150 0.0165
C2 C 0.1890(4) 0.0519(4) -0.0333(4)
H6 H 0.1354 0.0005 -0.1376
C3 C 0.2875(4) -0.0005(4) 0.0262(4)
H7 H 0.2997 -0.0904 -0.0364
C4 C 0.3700(4) 0.0788(4) 0.1793(4)
C5 C 0.3413(4) 0.2057(4) 0.2633(4)
H8 H 0.3956 0.2609 0.3677
C6 C 0.4891(4) 0.0317(4) 0.2474(4)
H9 H 0.4588 -0.0801 0.1810
H10 H 0.5971 0.0900 0.2520
C7 C 0.3498(4) -0.0430(4) 0.3945(4)
H11 H 0.3231 -0.1530 0.3243
H12 H 0.2605 -0.0176 0.3595
C8 C 0.6337(4) 0.0216(4) 0.4535(4)
H13 H 0.7361 0.0906 0.4580
H14 H 0.6126 -0.0871 0.3846
C9 C -0.0570(4) 0.5055(4) 0.2235(3)
C10 C -0.2056(4) 0.5280(4) 0.1593(4)
C11 C -0.3507(4) 0.4289(4) 0.1793(3)
H15 H -0.4454 0.4496 0.1483
H16 H -0.3787 0.3173 0.1142
C12 C -0.3141(3) 0.4641(4) 0.3390(3)
C13 C -0.2436(4) 0.4650(4) -0.0073(4)
H17 H -0.3426 0.4721 -0.0503
H18 H -0.2585 0.3561 -0.0552
H19 H -0.1540 0.5264 -0.0228
C14 C -0.1754(4) 0.6995(4) 0.2367(4)
H20 H -0.0781 0.7601 0.2292
H21 H -0.1607 0.7363 0.3414
H22 H -0.2681 0.7121 0.1892
Cd1A Cd -0.18482(2) 0.54669(2) 0.63801(2)
Cd1A_2 Cd 0.81518(2) -0.45331(2) 0.63801(2)
O1A O -0.0456(2) 0.3893(3) 0.6489(2)
O2A O 0.0444(3) 0.6194(3) 0.8490(3)
O3A O 0.3418(3) 0.4304(3) 0.5703(3)
O4A O 0.2497(3) 0.6105(3) 0.6202(3)
O5A O 0.0262(3) 0.7305(3) 0.6278(3)
H1A H 0.098(4) 0.703(5) 0.654(4)
H2A H 0.007(4) 0.705(4) 0.539(2)
O6A O -0.4016(3) 0.3665(3) 0.6313(3)
H3A H -0.483(3) 0.389(4) 0.621(4)
H4A H -0.430(4) 0.280(3) 0.559(3)
N1A N 0.7579(3) -0.2552(3) 0.7935(3)
N1A_2 N -0.2421(3) 0.7448(3) 0.7935(3)
N2A N 0.4992(3) -0.0578(3) 0.6030(3)
C1A C 0.8322(4) -0.1796(4) 0.9413(4)
H5A H 0.9011 -0.2150 0.9835
C2A C 0.8110(4) -0.0519(4) 1.0333(4)
H6A H 0.8646 -0.0005 1.1376
C3A C 0.7125(4) 0.0005(4) 0.9738(4)
H7A H 0.7003 0.0904 1.0364
C4A C 0.6300(4) -0.0788(4) 0.8207(4)
C5A C 0.6587(4) -0.2057(4) 0.7367(4)
H8A H 0.6044 -0.2609 0.6323
C6A C 0.5109(4) -0.0317(4) 0.7526(4)
H9A H 0.5412 0.0801 0.8190
H10A H 0.4029 -0.0900 0.7480
C7A C 0.6502(4) 0.0430(4) 0.6055(4)
H11A H 0.6769 0.1530 0.6757
H12A H 0.7395 0.0176 0.6405
C8A C 0.3663(4) -0.0216(4) 0.5465(4)
H13A H 0.2639 -0.0906 0.5420
H14A H 0.3874 0.0871 0.6154
C9A C 0.0570(4) 0.4945(4) 0.7765(3)
C10A C 0.2056(4) 0.4720(4) 0.8407(4)
C11A C 0.3507(4) 0.5711(4) 0.8207(3)
H15A H 0.4454 0.5504 0.8517
H16A H 0.3787 0.6827 0.8858
C12A C 0.3141(3) 0.5359(4) 0.6610(3)
C13A C 0.2436(4) 0.5350(4) 1.0073(4)
H17A H 0.3426 0.5279 1.0503
H18A H 0.2585 0.6439 1.0552
H19A H 0.1540 0.4736 1.0228
C14A C 0.1754(4) 0.3005(4) 0.7633(4)
H20A H 0.0781 0.2399 0.7708
H21A H 0.1607 0.2637 0.6586
H22A H 0.2681 0.2879 0.8108
loop_
_geom_bond_atom_site_label_1
_geom_bond_atom_site_label_2
_geom_bond_site_symmetry_1
_geom_bond_site_symmetry_2
Cd1 O1 1_555 1_555
O1 C9 1_555 1_555
O2 Cd1 1_555 1_555
O3 C12 1_555 1_555
O4 C12 1_555 1_555
O5 Cd1 1_555 1_555
H1 O5 1_555 1_555
H2 O5 1_555 1_555
O6 Cd1 1_555 1_555
H3 O6 1_555 1_555
H4 O6 1_555 1_555
N1 Cd1 1_555 1_555
N2 C6 1_555 1_555
C1 N1 1_555 1_555
H5 C1 1_555 1_555
C2 C1 1_555 1_555
H6 C2 1_555 1_555
C3 C2 1_555 1_555
H7 C3 1_555 1_555
C4 C3 1_555 1_555
C5 N1 1_555 1_555
H8 C5 1_555 1_555
C6 C4 1_555 1_555
H9 C6 1_555 1_555
H10 C6 1_555 1_555
C7 N2 1_555 1_555
H11 C7 1_555 1_555
H12 C7 1_555 1_555
C8 N2 1_555 1_555
H13 C8 1_555 1_555
H14 C8 1_555 1_555
C9 O2 1_555 1_555
C10 C9 1_555 1_555
C11 C10 1_555 1_555
H15 C11 1_555 1_555
H16 C11 1_555 1_555
C12 C11 1_555 1_555
C13 C10 1_555 1_555
H17 C13 1_555 1_555
H18 C13 1_555 1_555
H19 C13 1_555 1_555
C14 C10 1_555 1_555
H20 C14 1_555 1_555
H21 C14 1_555 1_555
H22 C14 1_555 1_555
Cd1A O3 1_555 1_555
Cd1A_2 N1A 1_555 1_555
O1A Cd1A 1_555 1_555
O2A Cd1A 1_555 1_555
O3A Cd1 1_555 1_555
O4A Cd1 1_555 1_555
O5A Cd1A 1_555 1_555
H1A O5A 1_555 1_555
H2A O5A 1_555 1_555
O6A Cd1A 1_555 1_555
H3A O6A 1_555 1_555
H4A O6A 1_555 1_555
N1A C1A 1_555 1_555
N1A_2 Cd1A 1_555 1_555
N2A C6A 1_555 1_555
C1A H5A 1_555 1_555
C2A C1A 1_555 1_555
H6A C2A 1_555 1_555
C3A C2A 1_555 1_555
H7A C3A 1_555 1_555
C4A C3A 1_555 1_555
C5A N1A 1_555 1_555
H8A C5A 1_555 1_555
C6A C4A 1_555 1_555
H9A C6A 1_555 1_555
H10A C6A 1_555 1_555
C7A C8 1_555 1_555
H11A C7A 1_555 1_555
H12A C7A 1_555 1_555
C8A C7 1_555 1_555
H13A C8A 1_555 1_555
H14A C8A 1_555 1_555
C9A O1A 1_555 1_555
C10A C9A 1_555 1_555
C11A C10A 1_555 1_555
H15A C11A 1_555 1_555
H16A C11A 1_555 1_555
C12A O3A 1_555 1_555
C13A C10A 1_555 1_555
H17A C13A 1_555 1_555
H18A C13A 1_555 1_555
H19A C13A 1_555 1_555
C14A C10A 1_555 1_555
H20A C14A 1_555 1_555
H21A C14A 1_555 1_555
H22A C14A 1_555 1_555
O4 Cd1A 1_555 1_555
C4 C5 1_555 1_555
O2A C9A 1_555 1_555
O4A C12A 1_555 1_555
N2A C7A 1_555 1_555
N2A C8A 1_555 1_555
C4A C5A 1_555 1_555
C11A C12A 1_555 1_555

#END
