
#######################################################################
#
#                 Cambridge Crystallographic Data Centre
#                                CCDC 
#
#######################################################################
#
# If this CIF has been generated from an entry in the Cambridge 
# Structural Database, then it will include bibliographic, chemical, 
# crystal, experimental, refinement or atomic coordinate data resulting 
# from the CCDC's data processing and validation procedures.
#
#######################################################################

data_VUYTOZ
_symmetry_cell_setting           orthorhombic
_symmetry_space_group_name_H-M   'I b a 2'
_symmetry_Int_Tables_number      45
_space_group_name_Hall           'I 2 -2c'
loop_
_symmetry_equiv_pos_site_id
_symmetry_equiv_pos_as_xyz
1 x,y,z
2 -x,-y,z
3 -x,y,1/2+z
4 x,-y,1/2+z
5 1/2+x,1/2+y,1/2+z
6 1/2-x,1/2-y,1/2+z
7 1/2-x,1/2+y,z
8 1/2+x,1/2-y,z
_cell_length_a                   10.3513(2)
_cell_length_b                   18.9903(4)
_cell_length_c                   10.4899(5)
_cell_angle_alpha                90
_cell_angle_beta                 90
_cell_angle_gamma                90
_cell_volume                     2062.04
loop_
_atom_site_label
_atom_site_type_symbol
_atom_site_fract_x
_atom_site_fract_y
_atom_site_fract_z
Mn1 Mn 0.23964(2) 0.466637(12) 0.21088(5)
O1 O 0.37728(10) 0.37412(6) 0.22354(12)
O2 O 0.35327(13) 0.46639(7) 0.59926(14)
C1 C 0.35590(15) 0.45297(10) 0.48293(17)
O3 O 0.12217(13) 0.56135(8) 0.23773(15)
C2 C 0.28402(16) 0.32972(9) 0.4091(2)
H1 H 0.2856 0.2879 0.4636
O4 O 0.08680(12) 0.35748(7) 0.51658(13)
O5 O 0.32170(11) 0.49510(7) 0.39659(14)
O6 O 0.11371(12) 0.40095(7) 0.32282(15)
C3 C 0.40058(15) 0.37989(9) 0.44426(17)
H2 H 0.4519 0.3589 0.5130
C4 C 0.15121(15) 0.36557(9) 0.41784(18)
O7 O 0.15899(16) 0.41688(10) 0.04225(15)
C5 C 0.47817(16) 0.37949(10) 0.31993(18)
H3 H 0.5344 0.4206 0.3094
C6 C 0.32042(18) 0.30945(10) 0.27210(19)
H4 H 0.2471 0.2926 0.2215
C7 C 0.54794(18) 0.30928(12) 0.3051(2)
H5 H 0.5904 0.2955 0.3837
H6 H 0.6112 0.3111 0.2370
C8 C 0.4359(2) 0.25889(11) 0.2721(2)
H7 H 0.4481 0.2373 0.1892
H8 H 0.4262 0.2224 0.3361
H9 H 0.0832(18) 0.4022(14) 0.017(3)
H10 H 0.0462(18) 0.5712(14) 0.268(2)
H11 H 0.193(2) 0.4298(16) -0.022(2)
H12 H 0.125(2) 0.5871(13) 0.176(2)
Mn1C Mn 0.23964(2) 0.533363(12) 0.71088(5)
O2C O 0.35327(13) 0.53361(7) 0.09926(14)
loop_
_geom_bond_atom_site_label_1
_geom_bond_atom_site_label_2
_geom_bond_site_symmetry_1
_geom_bond_site_symmetry_2
Mn1 O1 1_555 1_555
O1 C5 1_555 1_555
O2 C1 1_555 1_555
C1 O5 1_555 1_555
O3 Mn1 1_555 1_555
C2 H1 1_555 1_555
O4 C4 1_555 1_555
O5 Mn1 1_555 1_555
O6 Mn1 1_555 1_555
C3 C1 1_555 1_555
H2 C3 1_555 1_555
C4 C2 1_555 1_555
O7 Mn1 1_555 1_555
C5 C3 1_555 1_555
H3 C5 1_555 1_555
C6 O1 1_555 1_555
H4 C6 1_555 1_555
C7 C5 1_555 1_555
H5 C7 1_555 1_555
H6 C7 1_555 1_555
C8 C6 1_555 1_555
H7 C8 1_555 1_555
H8 C8 1_555 1_555
H9 O7 1_555 1_555
H10 O3 1_555 1_555
H11 O7 1_555 1_555
H12 O3 1_555 1_555
Mn1C O2 1_555 1_555
O2C Mn1 1_555 1_555
C2 C3 1_555 1_555
C2 C6 1_555 1_555
O6 C4 1_555 1_555
C7 C8 1_555 1_555

#END
