
#######################################################################
#
#                 Cambridge Crystallographic Data Centre
#                                CCDC 
#
#######################################################################
#
# If this CIF has been generated from an entry in the Cambridge 
# Structural Database, then it will include bibliographic, chemical, 
# crystal, experimental, refinement or atomic coordinate data resulting 
# from the CCDC's data processing and validation procedures.
#
#######################################################################

data_VUYTAL
_symmetry_cell_setting           triclinic
_symmetry_space_group_name_H-M   'P -1'
_symmetry_Int_Tables_number      2
_space_group_name_Hall           '-P 1'
loop_
_symmetry_equiv_pos_site_id
_symmetry_equiv_pos_as_xyz
1 x,y,z
2 -x,-y,-z
_cell_length_a                   7.7410(14)
_cell_length_b                   7.8943(15)
_cell_length_c                   9.801(3)
_cell_angle_alpha                101.080(2)
_cell_angle_beta                 102.264(2)
_cell_angle_gamma                119.136(2)
_cell_volume                     479.576
loop_
_atom_site_label
_atom_site_type_symbol
_atom_site_fract_x
_atom_site_fract_y
_atom_site_fract_z
Co1 Co 0.5000 0.5000 0.0000
S1 S 0.75373(12) 1.06782(11) 0.44195(8)
N1 N 0.2531(3) 0.5500(3) -0.0887(2)
N2 N -0.3493(3) 0.6090(3) -0.3539(2)
N3 N 0.6324(3) 0.7503(3) 0.1850(2)
C1 C 0.0560(4) 0.3911(4) -0.1764(3)
H1 H 0.0304 0.2594 -0.2075
C2 C -0.1098(4) 0.4140(4) -0.2225(3)
H2 H -0.2440 0.2996 -0.2828
C3 C -0.0749(4) 0.6093(4) -0.1781(2)
C4 C 0.1289(4) 0.7751(4) -0.0883(3)
H3 H 0.1589 0.9085 -0.0564
C5 C 0.2849(4) 0.7384(4) -0.0476(3)
H4 H 0.4208 0.8506 0.0119
C6 C -0.2526(4) 0.6408(3) -0.2131(3)
C7 C -0.5284(4) 0.6312(4) -0.3955(3)
H5 H -0.4879 0.7492 -0.4281
H6 H -0.5682 0.6550 -0.3099
C8 C -0.2853(4) 0.5629(4) -0.4802(3)
H7 H -0.1706 0.5438 -0.4478
H8 H -0.2349 0.6781 -0.5163
C9 C 0.6850(4) 0.8842(4) 0.2928(3)
O1 O -0.3046(2) 0.6962(2) -0.10853(17)
Co1_2 Co -0.5000 0.5000 0.0000
Co1_3 Co -1.5000 0.5000 -1.0000
Co1_4 Co -0.5000 0.5000 -1.0000
S1A S 0.24627(12) -0.06782(11) -0.44195(8)
N1A N -1.2531(3) 0.4500(3) -0.9113(2)
N1A_2 N 0.7469(3) 0.4500(3) 0.0887(2)
N2A N -0.6507(3) 0.3910(3) -0.6461(2)
N3A N 0.3676(3) 0.2497(3) -0.1850(2)
C1A C -1.0560(4) 0.6089(4) -0.8236(3)
H1A H -1.0304 0.7406 -0.7925
C2A C -0.8902(4) 0.5860(4) -0.7775(3)
H2A H -0.7560 0.7004 -0.7172
C3A C -0.9251(4) 0.3907(4) -0.8219(2)
C4A C -1.1289(4) 0.2249(4) -0.9117(3)
H3A H -1.1589 0.0915 -0.9436
C5A C -1.2849(4) 0.2616(4) -0.9524(3)
H4A H -1.4208 0.1494 -1.0119
C6A C -0.7474(4) 0.3592(3) -0.7869(3)
C7A C -0.4716(4) 0.3688(4) -0.6045(3)
H5A H -0.5121 0.2508 -0.5719
H6A H -0.4318 0.3450 -0.6901
C8A C -0.7147(4) 0.4371(4) -0.5198(3)
H7A H -0.8294 0.4562 -0.5522
H8A H -0.7651 0.3219 -0.4837
C9A C 0.3150(4) 0.1158(4) -0.2928(3)
O1A O -0.6954(2) 0.3038(2) -0.89147(17)
O1_2 O 0.6954(2) 0.6962(2) -0.10853(17)
O1A_2 O 0.3046(2) 0.3038(2) 0.10853(17)
loop_
_geom_bond_atom_site_label_1
_geom_bond_atom_site_label_2
_geom_bond_site_symmetry_1
_geom_bond_site_symmetry_2
Co1 N1 1_555 1_555
S1 C9 1_555 1_555
N1 C1 1_555 1_555
N2 C6 1_555 1_555
N3 Co1 1_555 1_555
C1 H1 1_555 1_555
C2 C1 1_555 1_555
H2 C2 1_555 1_555
C3 C2 1_555 1_555
C4 C3 1_555 1_555
H3 C4 1_555 1_555
C5 N1 1_555 1_555
H4 C5 1_555 1_555
C6 C3 1_555 1_555
C7 N2 1_555 1_555
H5 C7 1_555 1_555
H6 C7 1_555 1_555
C8 N2 1_555 1_555
H7 C8 1_555 1_555
H8 C8 1_555 1_555
C9 N3 1_555 1_555
O1 C6 1_555 1_555
Co1_2 O1 1_555 1_555
Co1_3 N1A 1_555 1_555
Co1_4 O1A 1_555 1_555
S1A C9A 1_555 1_555
N1A C1A 1_555 1_555
N1A_2 Co1 1_555 1_555
N2A C6A 1_555 1_555
N3A Co1 1_555 1_555
C1A H1A 1_555 1_555
C2A C1A 1_555 1_555
H2A C2A 1_555 1_555
C3A C2A 1_555 1_555
C4A C3A 1_555 1_555
H3A C4A 1_555 1_555
C5A N1A 1_555 1_555
H4A C5A 1_555 1_555
C6A C3A 1_555 1_555
C7A C8 1_555 1_555
H5A C7A 1_555 1_555
H6A C7A 1_555 1_555
C8A C7 1_555 1_555
H7A C8A 1_555 1_555
H8A C8A 1_555 1_555
C9A N3A 1_555 1_555
O1A C6A 1_555 1_555
O1_2 Co1 1_555 1_555
O1A_2 Co1 1_555 1_555
C4 C5 1_555 1_555
N2A C7A 1_555 1_555
N2A C8A 1_555 1_555
C4A C5A 1_555 1_555

#END
