
#######################################################################
#
#                 Cambridge Crystallographic Data Centre
#                                CCDC 
#
#######################################################################
#
# If this CIF has been generated from an entry in the Cambridge 
# Structural Database, then it will include bibliographic, chemical, 
# crystal, experimental, refinement or atomic coordinate data resulting 
# from the CCDC's data processing and validation procedures.
#
#######################################################################

data_VUYTOZ01
_symmetry_cell_setting           orthorhombic
_symmetry_space_group_name_H-M   'I b a 2'
_symmetry_Int_Tables_number      45
_space_group_name_Hall           'I 2 -2c'
loop_
_symmetry_equiv_pos_site_id
_symmetry_equiv_pos_as_xyz
1 x,y,z
2 -x,-y,z
3 1/2+x,1/2-y,z
4 1/2-x,1/2+y,z
5 1/2+x,1/2+y,1/2+z
6 1/2-x,1/2-y,1/2+z
7 x,-y,1/2+z
8 -x,y,1/2+z
_cell_length_a                   18.9914(5)
_cell_length_b                   10.3558(2)
_cell_length_c                   10.4856(2)
_cell_angle_alpha                90
_cell_angle_beta                 90
_cell_angle_gamma                90
_cell_volume                     2062.21
loop_
_atom_site_label
_atom_site_type_symbol
_atom_site_fract_x
_atom_site_fract_y
_atom_site_fract_z
C1 C 0.32959(15) 0.2839(3) 0.6686(3)
H1 H 0.2877 0.2855 0.6141
C2 C 0.30956(15) 0.3205(3) 0.8058(3)
H2 H 0.2927 0.2473 0.8566
C3 C 0.25889(18) 0.4358(4) 0.8055(4)
H3 H 0.2372 0.4482 0.8884
H4 H 0.2224 0.4258 0.7415
C4 C 0.30922(19) 0.5480(3) 0.7722(3)
H5 H 0.2955 0.5900 0.6934
H6 H 0.3109 0.6115 0.8401
C5 C 0.37939(16) 0.4782(3) 0.7581(3)
H7 H 0.4205 0.5344 0.7687
C6 C 0.37975(15) 0.4007(3) 0.6337(3)
H8 H 0.3588 0.4520 0.5649
C7 C 0.45311(15) 0.3559(2) 0.5950(3)
C8 C 0.36551(15) 0.1511(3) 0.6600(3)
O1 O 0.41680(17) 0.1591(3) 1.0359(3)
H9 H 0.434(3) 0.187(5) 1.103(3)
H10 H 0.402(3) 0.085(3) 1.058(5)
O2 O 0.46648(12) 0.3532(2) 0.4789(2)
O3 O 0.56147(14) 0.1222(2) 0.8400(2)
H11 H 0.589(2) 0.128(5) 0.902(3)
H12 H 0.573(2) 0.052(3) 0.808(4)
O4 O 0.49502(12) 0.3217(2) 0.6813(2)
O5 O 0.35737(13) 0.0868(2) 0.5613(2)
O6 O 0.40100(13) 0.1137(2) 0.7551(2)
O7 O 0.37400(10) 0.37723(18) 0.85430(19)
Mn1 Mn 0.46664(2) 0.23964(4) 0.86701(7)
O2G O 0.53352(12) 0.3532(2) 0.9789(2)
Mn1G Mn 0.53336(2) 0.23964(4) 0.36701(7)
loop_
_geom_bond_atom_site_label_1
_geom_bond_atom_site_label_2
_geom_bond_site_symmetry_1
_geom_bond_site_symmetry_2
C1 H1 1_555 1_555
C2 C1 1_555 1_555
H2 C2 1_555 1_555
C3 C2 1_555 1_555
H3 C3 1_555 1_555
H4 C3 1_555 1_555
C4 C3 1_555 1_555
H5 C4 1_555 1_555
H6 C4 1_555 1_555
C5 C4 1_555 1_555
H7 C5 1_555 1_555
C6 C1 1_555 1_555
H8 C6 1_555 1_555
C7 C6 1_555 1_555
C8 C1 1_555 1_555
O1 H9 1_555 1_555
H10 O1 1_555 1_555
O2 C7 1_555 1_555
O3 H11 1_555 1_555
H12 O3 1_555 1_555
O4 C7 1_555 1_555
O5 C8 1_555 1_555
O6 C8 1_555 1_555
O7 C2 1_555 1_555
Mn1 O1 1_555 1_555
O2G Mn1 1_555 1_555
Mn1G O2 1_555 1_555
C5 C6 1_555 1_555
C5 O7 1_555 1_555
O3 Mn1 1_555 1_555
O4 Mn1 1_555 1_555
O6 Mn1 1_555 1_555
O7 Mn1 1_555 1_555

#END
