
#######################################################################
#
#                 Cambridge Crystallographic Data Centre
#                                CCDC 
#
#######################################################################
#
# If this CIF has been generated from an entry in the Cambridge 
# Structural Database, then it will include bibliographic, chemical, 
# crystal, experimental, refinement or atomic coordinate data resulting 
# from the CCDC's data processing and validation procedures.
#
#######################################################################

data_VUYVAN
_symmetry_cell_setting           monoclinic
_symmetry_space_group_name_H-M   'C 2/c'
_symmetry_Int_Tables_number      15
_space_group_name_Hall           '-C 2yn'
loop_
_symmetry_equiv_pos_site_id
_symmetry_equiv_pos_as_xyz
1 x,y,z
2 -x,y,1/2-z
3 1/2+x,1/2+y,z
4 1/2-x,1/2+y,1/2-z
5 -x,-y,-z
6 x,-y,1/2+z
7 1/2-x,1/2-y,-z
8 1/2+x,1/2-y,1/2+z
_cell_length_a                   14.133(6)
_cell_length_b                   13.631(8)
_cell_length_c                   10.806(5)
_cell_angle_alpha                90
_cell_angle_beta                 96.211(18)
_cell_angle_gamma                90
_cell_volume                     2069.52
loop_
_atom_site_label
_atom_site_type_symbol
_atom_site_fract_x
_atom_site_fract_y
_atom_site_fract_z
C1 C 0.88489(15) -0.14358(16) 0.29942(19)
H1 H 0.9333 -0.1663 0.3575
C2 C 0.79651(15) -0.18759(17) 0.2749(2)
H2 H 0.7746 -0.2436 0.3119
C3 C 0.74852(14) -0.13104(15) 0.1848(2)
H3 H 0.6867 -0.1416 0.1484
C4 C 0.78951(16) 0.02164(16) 0.0679(2)
H4 H 0.8434 0.0250 0.0195
H5 H 0.7869 0.0830 0.1128
C5 C 0.69915(14) 0.01146(16) -0.02073(19)
C6 C 0.68227(14) -0.06955(16) -0.0965(2)
H6 H 0.7242 -0.1223 -0.0887
C7 C 0.60311(14) -0.07260(16) -0.18418(19)
H7 H 0.5914 -0.1284 -0.2330
C8 C 0.54120(13) 0.00614(15) -0.20021(17)
C9 C 0.55799(14) 0.08674(16) -0.1228(2)
H8 H 0.5169 0.1402 -0.1312
C10 C 0.63546(14) 0.08820(16) -0.0331(2)
H9 H 0.6447 0.1419 0.0199
Co1 Co 1.0000 0.03534(3) 0.2500
N1 N 0.89123(11) -0.06439(12) 0.22882(15)
N2 N 0.80555(11) -0.05793(12) 0.15780(15)
N3 N 1.06867(12) 0.16070(13) 0.10362(17)
O1 O 1.00539(10) 0.09498(12) 0.07781(14)
O2 O 1.10495(11) 0.16308(13) 0.21497(15)
O3 O 1.09153(13) 0.21630(14) 0.02403(17)
C1A C 0.11511(15) -0.14358(16) -0.79942(19)
H1A H 0.0667 -0.1663 -0.8575
C2A C 0.20349(15) -0.18759(17) -0.7749(2)
H2A H 0.2254 -0.2436 -0.8119
C3A C 0.25148(14) -0.13104(15) -0.6848(2)
H3A H 0.3133 -0.1416 -0.6484
C4A C 0.21049(16) 0.02164(16) -0.5679(2)
H4A H 0.1566 0.0250 -0.5195
H5A H 0.2131 0.0830 -0.6128
C5A C 0.30085(14) 0.01146(16) -0.47927(19)
C6A C 0.31773(14) -0.06955(16) -0.4035(2)
H6A H 0.2758 -0.1223 -0.4113
C7A C 0.39689(14) -0.07260(16) -0.31582(19)
H7A H 0.4086 -0.1284 -0.2670
C8A C 0.45880(13) 0.00614(15) -0.29979(17)
C9A C 0.44201(14) 0.08674(16) -0.3772(2)
H8A H 0.4831 0.1402 -0.3688
C10A C 0.36454(14) 0.08820(16) -0.4669(2)
H9A H 0.3553 0.1419 -0.5199
Co1_2 Co 0.0000 0.03534(3) -0.7500
N1A N 0.10877(11) -0.06439(12) -0.72882(15)
N1A_2 N 1.10877(11) -0.06439(12) 0.27118(15)
N2A N 0.19445(11) -0.05793(12) -0.65780(15)
N3A N 0.93133(12) 0.16070(13) 0.39638(17)
O1A O 0.99461(10) 0.09498(12) 0.42219(14)
O2A O 0.89505(11) 0.16308(13) 0.28503(15)
O3A O 0.90847(13) 0.21630(14) 0.47597(17)
loop_
_geom_bond_atom_site_label_1
_geom_bond_atom_site_label_2
_geom_bond_site_symmetry_1
_geom_bond_site_symmetry_2
C1 H1 1_555 1_555
C2 C1 1_555 1_555
H2 C2 1_555 1_555
C3 C2 1_555 1_555
H3 C3 1_555 1_555
C4 H4 1_555 1_555
H5 C4 1_555 1_555
C5 C4 1_555 1_555
C6 C5 1_555 1_555
H6 C6 1_555 1_555
C7 C6 1_555 1_555
H7 C7 1_555 1_555
C8 C7 1_555 1_555
C9 C8 1_555 1_555
H8 C9 1_555 1_555
C10 C5 1_555 1_555
H9 C10 1_555 1_555
Co1 N1 1_555 1_555
N1 C1 1_555 1_555
N2 C3 1_555 1_555
N3 O1 1_555 1_555
O1 Co1 1_555 1_555
O2 Co1 1_555 1_555
O3 N3 1_555 1_555
C1A H1A 1_555 1_555
C2A C1A 1_555 1_555
H2A C2A 1_555 1_555
C3A C2A 1_555 1_555
H3A C3A 1_555 1_555
C4A H4A 1_555 1_555
H5A C4A 1_555 1_555
C5A C4A 1_555 1_555
C6A C5A 1_555 1_555
H6A C6A 1_555 1_555
C7A C6A 1_555 1_555
H7A C7A 1_555 1_555
C8A C8 1_555 1_555
C9A C8A 1_555 1_555
H8A C9A 1_555 1_555
C10A C5A 1_555 1_555
H9A C10A 1_555 1_555
Co1_2 N1A 1_555 1_555
N1A C1A 1_555 1_555
N1A_2 Co1 1_555 1_555
N2A C3A 1_555 1_555
N3A O1A 1_555 1_555
O1A Co1 1_555 1_555
O2A Co1 1_555 1_555
O3A N3A 1_555 1_555
C4 N2 1_555 1_555
C9 C10 1_555 1_555
N1 N2 1_555 1_555
N3 O2 1_555 1_555
C4A N2A 1_555 1_555
C7A C8A 1_555 1_555
C9A C10A 1_555 1_555
N1A N2A 1_555 1_555
N3A O2A 1_555 1_555

#END
