
#######################################################################
#
#                 Cambridge Crystallographic Data Centre
#                                CCDC 
#
#######################################################################
#
# If this CIF has been generated from an entry in the Cambridge 
# Structural Database, then it will include bibliographic, chemical, 
# crystal, experimental, refinement or atomic coordinate data resulting 
# from the CCDC's data processing and validation procedures.
#
#######################################################################

data_VUYXIX
_symmetry_cell_setting           monoclinic
_symmetry_space_group_name_H-M   'C 2/c'
_symmetry_Int_Tables_number      15
_space_group_name_Hall           '-C 2yn'
loop_
_symmetry_equiv_pos_site_id
_symmetry_equiv_pos_as_xyz
1 x,y,z
2 -x,y,1/2-z
3 1/2+x,1/2+y,z
4 1/2-x,1/2+y,1/2-z
5 -x,-y,-z
6 x,-y,1/2+z
7 1/2-x,1/2-y,-z
8 1/2+x,1/2-y,1/2+z
_cell_length_a                   23.565(3)
_cell_length_b                   7.4989(10)
_cell_length_c                   18.719(3)
_cell_angle_alpha                90
_cell_angle_beta                 124.133(2)
_cell_angle_gamma                90
_cell_volume                     2738.04
loop_
_atom_site_label
_atom_site_type_symbol
_atom_site_fract_x
_atom_site_fract_y
_atom_site_fract_z
Cd1 Cd 0.0000 0.98587(4) 0.2500
O1 O 0.08374(10) 0.5183(3) 0.41826(15)
O2 O 0.04106(10) 0.7822(3) 0.35767(15)
O3 O 0.11120(10) 0.9456(3) 0.28957(14)
N1 N 0.26146(11) 0.5764(3) 0.43559(15)
N2 N 0.33353(11) 0.7134(3) 0.40468(15)
N3 N 0.29069(12) 0.9516(3) 0.29966(17)
N4 N 0.40508(11) 0.8712(3) 0.38073(16)
N5 N 0.49005(11) 0.7117(3) 0.33262(16)
C1 C 0.08550(13) 0.6605(4) 0.38550(18)
C2 C 0.14781(13) 0.6884(3) 0.38139(18)
C3 C 0.15495(13) 0.8283(3) 0.33412(18)
C4 C 0.21915(13) 0.8271(3) 0.34077(18)
C5 C 0.23209(14) 0.9413(4) 0.29215(19)
H1 H 0.1966 1.0149 0.2518
C6 C 0.34189(14) 0.8435(3) 0.36193(18)
C7 C 0.27239(13) 0.7084(3) 0.39339(18)
C8 C 0.20076(14) 0.5712(4) 0.42765(19)
H2 H 0.1945 0.4798 0.4562
C9 C 0.31463(14) 0.4398(4) 0.48763(19)
H3 H 0.3068 0.3881 0.5289
H4 H 0.3594 0.4961 0.5197
C10 C 0.3138(2) 0.2948(4) 0.4318(2)
H5 H 0.2691 0.2417 0.3985
H6 H 0.3471 0.2055 0.4676
H7 H 0.3248 0.3444 0.3937
C11 C 0.46394(14) 0.7639(4) 0.4430(2)
H8 H 0.4543 0.7030 0.4808
H9 H 0.5034 0.8405 0.4781
C12 C 0.47967(14) 0.6281(4) 0.39627(19)
H10 H 0.5207 0.5626 0.4383
H11 H 0.4421 0.5436 0.3667
C13 C 0.41713(15) 0.9697(4) 0.3225(2)
H12 H 0.4554 1.0511 0.3553
H13 H 0.3768 1.0385 0.2815
C14 C 0.43293(15) 0.8350(4) 0.2749(2)
H14 H 0.3920 0.7653 0.2366
H15 H 0.4443 0.8992 0.2395
H16 H 0.5260(10) 0.785(3) 0.3622(16)
Cd1B Cd -0.5000 0.48587(4) 0.2500
Cd1B_2 Cd 0.5000 0.48587(4) 0.2500
O1A O -0.08374(10) 0.5183(3) 0.08174(15)
O2A O -0.04106(10) 0.7822(3) 0.14233(15)
O3A O -0.11120(10) 0.9456(3) 0.21043(14)
N1A N -0.26146(11) 0.5764(3) 0.06441(15)
N2A N -0.33353(11) 0.7134(3) 0.09532(15)
N3A N -0.29069(12) 0.9516(3) 0.20034(17)
N4A N -0.40508(11) 0.8712(3) 0.11927(16)
N5A N -0.49005(11) 0.7117(3) 0.16738(16)
N5B N -0.00995(11) 1.2117(3) 0.33262(16)
N5C N 0.00995(11) 1.2117(3) 0.16738(16)
C1A C -0.08550(13) 0.6605(4) 0.11450(18)
C2A C -0.14781(13) 0.6884(3) 0.11861(18)
C3A C -0.15495(13) 0.8283(3) 0.16588(18)
C4A C -0.21915(13) 0.8271(3) 0.15923(18)
C5A C -0.23209(14) 0.9413(4) 0.20785(19)
H1A H -0.1966 1.0149 0.2482
C6A C -0.34189(14) 0.8435(3) 0.13807(18)
C7A C -0.27239(13) 0.7084(3) 0.10661(18)
C8A C -0.20076(14) 0.5712(4) 0.07235(19)
H2A H -0.1945 0.4798 0.0438
C9A C -0.31463(14) 0.4398(4) 0.01237(19)
H3A H -0.3068 0.3881 -0.0289
H4A H -0.3594 0.4961 -0.0197
C10A C -0.3138(2) 0.2948(4) 0.0682(2)
H5A H -0.2691 0.2417 0.1015
H6A H -0.3471 0.2055 0.0324
H7A H -0.3248 0.3444 0.1063
C11A C -0.46394(14) 0.7639(4) 0.0570(2)
H8A H -0.4543 0.7030 0.0192
H9A H -0.5034 0.8405 0.0219
C12A C -0.47967(14) 0.6281(4) 0.10373(19)
H10A H -0.5207 0.5626 0.0617
H11A H -0.4421 0.5436 0.1333
C13A C -0.41713(15) 0.9697(4) 0.1775(2)
H12A H -0.4554 1.0511 0.1447
H13A H -0.3768 1.0385 0.2185
C14A C -0.43293(15) 0.8350(4) 0.2251(2)
H14A H -0.3920 0.7653 0.2634
H15A H -0.4443 0.8992 0.2605
H16A H -0.5260(10) 0.785(3) 0.1378(16)
H16B H 0.0260(10) 1.285(3) 0.3622(16)
H16C H -0.0260(10) 1.285(3) 0.1378(16)
loop_
_geom_bond_atom_site_label_1
_geom_bond_atom_site_label_2
_geom_bond_site_symmetry_1
_geom_bond_site_symmetry_2
Cd1 O2 1_555 1_555
O1 C1 1_555 1_555
O2 C1 1_555 1_555
O3 Cd1 1_555 1_555
N1 C7 1_555 1_555
N2 C6 1_555 1_555
N3 C5 1_555 1_555
N4 C6 1_555 1_555
N5 C12 1_555 1_555
C1 C2 1_555 1_555
C2 C3 1_555 1_555
C3 O3 1_555 1_555
C4 C3 1_555 1_555
C5 C4 1_555 1_555
H1 C5 1_555 1_555
C6 N3 1_555 1_555
C7 N2 1_555 1_555
C8 N1 1_555 1_555
H2 C8 1_555 1_555
C9 N1 1_555 1_555
H3 C9 1_555 1_555
H4 C9 1_555 1_555
C10 C9 1_555 1_555
H5 C10 1_555 1_555
H6 C10 1_555 1_555
H7 C10 1_555 1_555
C11 N4 1_555 1_555
H8 C11 1_555 1_555
H9 C11 1_555 1_555
C12 C11 1_555 1_555
H10 C12 1_555 1_555
H11 C12 1_555 1_555
C13 N4 1_555 1_555
H12 C13 1_555 1_555
H13 C13 1_555 1_555
C14 N5 1_555 1_555
H14 C14 1_555 1_555
H15 C14 1_555 1_555
H16 N5 1_555 1_555
Cd1B N5A 1_555 1_555
Cd1B_2 N5 1_555 1_555
O1A C1A 1_555 1_555
O2A Cd1 1_555 1_555
O3A Cd1 1_555 1_555
N1A C7A 1_555 1_555
N2A C6A 1_555 1_555
N3A C5A 1_555 1_555
N4A C6A 1_555 1_555
N5A C12A 1_555 1_555
N5B Cd1 1_555 1_555
N5C Cd1 1_555 1_555
C1A O2A 1_555 1_555
C2A C1A 1_555 1_555
C3A O3A 1_555 1_555
C4A C3A 1_555 1_555
C5A C4A 1_555 1_555
H1A C5A 1_555 1_555
C6A N3A 1_555 1_555
C7A N2A 1_555 1_555
C8A N1A 1_555 1_555
H2A C8A 1_555 1_555
C9A N1A 1_555 1_555
H3A C9A 1_555 1_555
H4A C9A 1_555 1_555
C10A C9A 1_555 1_555
H5A C10A 1_555 1_555
H6A C10A 1_555 1_555
H7A C10A 1_555 1_555
C11A N4A 1_555 1_555
H8A C11A 1_555 1_555
H9A C11A 1_555 1_555
C12A C11A 1_555 1_555
H10A C12A 1_555 1_555
H11A C12A 1_555 1_555
C13A N4A 1_555 1_555
H12A C13A 1_555 1_555
H13A C13A 1_555 1_555
C14A N5A 1_555 1_555
H14A C14A 1_555 1_555
H15A C14A 1_555 1_555
H16A N5A 1_555 1_555
H16B N5B 1_555 1_555
H16C N5C 1_555 1_555
C2 C8 1_555 1_555
C4 C7 1_555 1_555
C13 C14 1_555 1_555
C2A C3A 1_555 1_555
C2A C8A 1_555 1_555
C4A C7A 1_555 1_555
C13A C14A 1_555 1_555

#END
