
#######################################################################
#
#                 Cambridge Crystallographic Data Centre
#                                CCDC 
#
#######################################################################
#
# If this CIF has been generated from an entry in the Cambridge 
# Structural Database, then it will include bibliographic, chemical, 
# crystal, experimental, refinement or atomic coordinate data resulting 
# from the CCDC's data processing and validation procedures.
#
#######################################################################

data_VUYZIZ
_symmetry_cell_setting           triclinic
_symmetry_space_group_name_H-M   'P -1'
_symmetry_Int_Tables_number      2
_space_group_name_Hall           '-P 1'
loop_
_symmetry_equiv_pos_site_id
_symmetry_equiv_pos_as_xyz
1 x,y,z
2 -x,-y,-z
_cell_length_a                   6.2449(5)
_cell_length_b                   6.9764(6)
_cell_length_c                   7.8256(6)
_cell_angle_alpha                76.4240(10)
_cell_angle_beta                 74.1350(10)
_cell_angle_gamma                69.8440(10)
_cell_volume                     304.115
loop_
_atom_site_label
_atom_site_type_symbol
_atom_site_fract_x
_atom_site_fract_y
_atom_site_fract_z
Fe1 Fe 0.5000 0.5000 1.0000
N1 N 0.5314(3) 0.6482(3) 0.7101(2)
N2 N 0.3404(3) 0.7685(3) 0.6503(2)
N3 N 0.3949(3) 0.8147(3) 0.4742(2)
N4 N 0.6210(3) 0.7259(3) 0.4135(2)
N5 N 0.9299(3) 0.5062(3) 0.5738(2)
O1 O 0.8288(3) 0.2802(3) 0.9369(2)
O2 O 0.6617(3) 0.6912(3) 1.0508(2)
C1 C 0.7009(3) 0.6250(3) 0.5618(3)
H1 H 0.829(4) 0.172(3) 0.903(3)
H2 H 0.710(4) 0.784(3) 0.975(3)
H4 H 0.922(4) 0.329(4) 0.851(2)
H5 H 0.658(4) 0.707(4) 1.1563(18)
Fe1_2 Fe 1.5000 0.5000 0.0000
N1A N 1.4686(3) 0.3518(3) 0.2899(2)
N1A_2 N 0.4686(3) 0.3518(3) 1.2899(2)
N2A N 1.6596(3) 0.2315(3) 0.3497(2)
N3A N 1.6051(3) 0.1853(3) 0.5258(2)
N4A N 1.3790(3) 0.2741(3) 0.5865(2)
N5A N 1.0701(3) 0.4938(3) 0.4262(2)
O1A O 0.1712(3) 0.7198(3) 1.0631(2)
O2A O 0.3383(3) 0.3088(3) 0.9492(2)
C1A C 1.2991(3) 0.3750(3) 0.4382(3)
H1A H 0.171(4) 0.828(3) 1.097(3)
H2A H 0.290(4) 0.216(3) 1.025(3)
H4A H 0.078(4) 0.671(4) 1.149(2)
H5A H 0.342(4) 0.293(4) 0.8437(18)
O3 O 0.8598(3) 0.9497(3) 0.7946(2)
H3 H 1.002(2) 0.886(3) 0.754(3)
H6 H 0.797(4) 1.008(3) 0.705(2)
loop_
_geom_bond_atom_site_label_1
_geom_bond_atom_site_label_2
_geom_bond_site_symmetry_1
_geom_bond_site_symmetry_2
Fe1 N1 1_555 1_555
N1 N2 1_555 1_555
N2 N3 1_555 1_555
N3 N4 1_555 1_555
N4 C1 1_555 1_555
N5 C1 1_555 1_555
O1 Fe1 1_555 1_555
O2 Fe1 1_555 1_555
O3 H3 1_555 1_555
C1 N1 1_555 1_555
H1 O1 1_555 1_555
H2 O2 1_555 1_555
H4 O1 1_555 1_555
H5 O2 1_555 1_555
H6 O3 1_555 1_555
Fe1_2 N1A 1_555 1_555
N1A N2A 1_555 1_555
N1A_2 Fe1 1_555 1_555
N2A N3A 1_555 1_555
N3A N4A 1_555 1_555
N4A C1A 1_555 1_555
N5A N5 1_555 1_555
O1A Fe1 1_555 1_555
O2A Fe1 1_555 1_555
C1A N1A 1_555 1_555
H1A O1A 1_555 1_555
H2A O2A 1_555 1_555
H4A O1A 1_555 1_555
H5A O2A 1_555 1_555
N5A C1A 1_555 1_555

#END
