
#######################################################################
#
#                 Cambridge Crystallographic Data Centre
#                                CCDC 
#
#######################################################################
#
# If this CIF has been generated from an entry in the Cambridge 
# Structural Database, then it will include bibliographic, chemical, 
# crystal, experimental, refinement or atomic coordinate data resulting 
# from the CCDC's data processing and validation procedures.
#
#######################################################################

data_VUZNIN
_symmetry_cell_setting           monoclinic
_symmetry_space_group_name_H-M   'P 21/c'
_symmetry_Int_Tables_number      14
_space_group_name_Hall           '-P 2ybc'
loop_
_symmetry_equiv_pos_site_id
_symmetry_equiv_pos_as_xyz
1 x,y,z
2 -x,1/2+y,1/2-z
3 -x,-y,-z
4 x,1/2-y,1/2+z
_cell_length_a                   16.753(2)
_cell_length_b                   14.605(2)
_cell_length_c                   21.521(3)
_cell_angle_alpha                90
_cell_angle_beta                 91.242(6)
_cell_angle_gamma                90
_cell_volume                     5264.47
loop_
_atom_site_label
_atom_site_type_symbol
_atom_site_fract_x
_atom_site_fract_y
_atom_site_fract_z
La1 La 0.2790(1) -0.0678(1) 0.6132(1)
La2 La 0.3730(1) 0.1830(1) 0.4872(1)
La3 La 0.2255(1) 0.0688(1) 0.9027(1)
La4 La 0.1345(1) -0.3155(1) 0.5261(1)
O1 O 0.4510(4) 0.1142(5) 0.5738(3)
O2 O 0.4085(4) 0.0132(5) 0.6415(3)
O3 O 0.3927(5) 0.2663(6) 0.8814(3)
O4 O 0.3305(5) 0.1433(6) 0.8450(3)
O5 O 0.3646(5) -0.6771(5) 0.5488(3)
O6 O 0.3347(5) -0.5670(6) 0.4797(3)
O7 O 0.2657(4) -0.2586(5) 0.5696(3)
O8 O 0.3633(5) -0.2075(5) 0.6314(3)
O9 O 0.1514(5) 0.5359(5) 0.5712(3)
O10 O 0.1553(4) 0.4231(5) 0.5017(3)
O11 O 0.2754(4) 0.1246(5) 0.5742(3)
O12 O 0.2272(4) 0.0775(4) 0.6634(3)
O13 O 0.2355(4) 0.2382(5) 0.4463(3)
O14 O 0.1424(4) 0.2928(4) 0.3831(3)
O15 O 0.1026(5) -0.1671(5) 0.4851(4)
O16 O 0.1681(5) -0.0657(6) 0.5436(4)
O17 O 0.0571(4) -0.1178(5) 0.9407(3)
O18 O 0.0991(4) -0.0158(5) 0.8727(3)
O19 O 0.1059(5) -0.2612(5) 0.6298(3)
O20 O 0.1789(5) -0.1476(5) 0.6722(3)
O21 O 0.2330(4) -0.3813(4) 0.4448(3)
O22 O 0.2785(5) -0.4233(5) 0.3546(3)
O23 O 0.4931(5) 0.0902(6) 0.4471(3)
O24 O 0.5056(6) 0.2750(7) 0.4837(4)
O25 O -0.0080(4) -0.3438(6) 0.5519(3)
O26 O 0.1811(5) 0.0725(5) 0.7848(3)
O27 O 0.3229(4) -0.0707(5) 0.7311(3)
O29 O 0.3249(5) 0.0418(5) 0.4427(3)
O30 O 0.3417(5) -0.0712(5) 0.5108(3)
C1 C 0.4527(6) 0.1571(6) 0.6793(4)
C2 C 0.4135(6) 0.1522(7) 0.7342(4)
C3 C 0.4246(6) 0.2155(7) 0.7814
C4 C 0.4786(6) 0.2860(7) 0.7725(4)
C5 C 0.5220(7) 0.2917(7) 0.7181(4)
C6 C 0.5075(6) 0.2270(7) 0.6707(4)
C7 C 0.4376(5) 0.0896(6) 0.6282(4)
C8 C 0.3791(7) 0.2084(8) 0.8406(4)
C9 C 0.3628(6) -0.5238(6) 0.5844(4)
C10 C 0.3416(5) -0.4345(6) 0.5716(4)
C11 C 0.3517(6) -0.3682(6) 0.6177(4)
C12 C 0.3865(7) -0.3913(7) 0.6752(4)
C13 C 0.4055(8) -0.4815(8) 0.6872(5)
C14 C 0.3926(7) -0.5481(8) 0.6426(5)
C15 C 0.3550(6) -0.5937(7) 0.5347(5)
C16 C 0.3261(7) -0.2715(7) 0.6055(4)
C17 C 0.1782(6) 0.3875(7) 0.6083(4)
C18 C 0.1795(7) 0.4172(7) 0.6691(4)
C19 C 0.2000(8) 0.3566(7) 0.7164(4)
C20 C 0.2204(7) 0.2668(7) 0.7026(4)
C21 C 0.2204(6) 0.2378(7) 0.6407(4)
C22 C 0.1956(6) 0.2989(7) 0.5949(4)
C23 C 0.1596(6) 0.4530(7) 0.5565(4)
C24 C 0.2411(6) 0.1404(7) 0.6248(4)
C25 C 0.1299(7) 0.1382(7) 0.4121(5)
C26 C 0.1431(6) 0.0710(7) 0.4558(4)
C27 C 0.1049(7) -0.0118(7) 0.4522(5)
C28 C 0.0497(9) -0.0274(8) 0.4033(6)
C29 C 0.0350(10) 0.0365(9) 0.3601(7)
C30 C 0.0752(8) 0.1230(8) 0.3641(6)
C31 C 0.1732(6) 0.2278(7) 0.4141(4)
C32 C 0.1246(7) -0.0872(8) 0.4969(5)
C33 C 0.0514(6) -0.1584(7) 0.8344(4)
C34 C 0.0001(6) -0.2329(8) 0.8447(4)
C35 C -0.0133(6) -0.2960(8) 0.7962(4)
C36 C 0.0257(6) -0.2871(7) 0.7411(4)
C37 C 0.0779(6) -0.2150(7) 0.7317(4)
C38 C 0.0900(6) -0.1504(7) 0.7777(4)
C39 C 0.0705(6) -0.0916(7) 0.8857(4)
C40 C 0.1246(7) -0.2083(7) 0.6727(4)
C41 C 0.2721(6) -0.2634(7) 0.3758(4)
C42 C 0.2928(6) -0.2010(6) 0.4215(4)
C43 C 0.3013(7) -0.1083(7) 0.4075(4)
C44 C 0.2862(7) -0.0783(7) 0.3464(4)
C45 C 0.2631(8) -0.1416(8) 0.3008(5)
C46 C 0.2604(7) -0.2335(7) 0.3151(4)
C47 C 0.2604(6) -0.3593(7) 0.3921(4)
C48 C 0.3245(6) -0.0420(7) 0.4566(5)
O3C O 0.3927(5) 0.2337(6) 0.3814(3)
O5_2 O 0.3646(5) 0.3229(5) 0.5488(3)
O6C O 0.3347(5) 0.0670(6) 0.9797(3)
O10C O 0.1553(4) 0.0769(5) 1.0017(3)
O14C O 0.1424(4) 0.2072(4) 0.8831(3)
O22C O 0.2785(5) -0.0767(5) 0.8546(3)
O9_2 O 0.1514(5) -0.4641(5) 0.5712(3)
O17C O 0.0571(4) -0.3822(5) 0.4407(3)
La2C La 0.3730(1) 0.3170(1) 0.9872(1)
La2_2 La 0.3730(1) -0.8170(1) 0.4872(1)
La3C La 0.2255(1) -0.5688(1) 0.4027(1)
La4_2 La 0.1345(1) 0.6845(1) 0.5261(1)
La3C_2 La 0.2255(1) 0.4312(1) 0.4027(1)
La4C La 0.1345(1) -0.1845(1) 1.0261(1)
O28 O 0.4451(7) 0.5768(8) 0.4429(5)
loop_
_geom_bond_atom_site_label_1
_geom_bond_atom_site_label_2
_geom_bond_site_symmetry_1
_geom_bond_site_symmetry_2
La1 O2 1_555 1_555
La2 O1 1_555 1_555
La3 O4 1_555 1_555
La4 O7 1_555 1_555
O1 C7 1_555 1_555
O2 C7 1_555 1_555
O3 C8 1_555 1_555
O4 C8 1_555 1_555
O5 C15 1_555 1_555
O6 C15 1_555 1_555
O7 C16 1_555 1_555
O8 La1 1_555 1_555
O9 C23 1_555 1_555
O10 C23 1_555 1_555
O11 La2 1_555 1_555
O12 La1 1_555 1_555
O13 La2 1_555 1_555
O14 C31 1_555 1_555
O15 La4 1_555 1_555
O16 La1 1_555 1_555
O17 C39 1_555 1_555
O18 La3 1_555 1_555
O19 La4 1_555 1_555
O20 La1 1_555 1_555
O21 La4 1_555 1_555
O22 C47 1_555 1_555
O23 La2 1_555 1_555
O24 La2 1_555 1_555
O25 La4 1_555 1_555
O26 La3 1_555 1_555
O27 La1 1_555 1_555
O29 La2 1_555 1_555
O30 La1 1_555 1_555
C1 C2 1_555 1_555
C2 C3 1_555 1_555
C3 C4 1_555 1_555
C4 C5 1_555 1_555
C5 C6 1_555 1_555
C6 C1 1_555 1_555
C7 C1 1_555 1_555
C8 C3 1_555 1_555
C9 C10 1_555 1_555
C10 C11 1_555 1_555
C11 C12 1_555 1_555
C12 C13 1_555 1_555
C13 C14 1_555 1_555
C14 C9 1_555 1_555
C15 C9 1_555 1_555
C16 O8 1_555 1_555
C17 C18 1_555 1_555
C18 C19 1_555 1_555
C19 C20 1_555 1_555
C20 C21 1_555 1_555
C21 C22 1_555 1_555
C22 C17 1_555 1_555
C23 C17 1_555 1_555
C24 O11 1_555 1_555
C25 C26 1_555 1_555
C26 C27 1_555 1_555
C27 C28 1_555 1_555
C28 C29 1_555 1_555
C29 C30 1_555 1_555
C30 C25 1_555 1_555
C31 O13 1_555 1_555
C32 O15 1_555 1_555
C33 C34 1_555 1_555
C34 C35 1_555 1_555
C35 C36 1_555 1_555
C36 C37 1_555 1_555
C37 C38 1_555 1_555
C38 C33 1_555 1_555
C39 O18 1_555 1_555
C40 O19 1_555 1_555
C41 C42 1_555 1_555
C42 C43 1_555 1_555
C43 C44 1_555 1_555
C44 C45 1_555 1_555
C45 C46 1_555 1_555
C46 C41 1_555 1_555
C47 O21 1_555 1_555
C48 O29 1_555 1_555
O3C La2 1_555 1_555
O5_2 La2 1_555 1_555
O6C La3 1_555 1_555
O10C La3 1_555 1_555
O14C La3 1_555 1_555
O22C La3 1_555 1_555
O9_2 La4 1_555 1_555
O17C La4 1_555 1_555
La2C O3 1_555 1_555
La2_2 O5 1_555 1_555
La3C O6 1_555 1_555
La4_2 O9 1_555 1_555
La3C_2 O10 1_555 1_555
La4C O17 1_555 1_555
O12 C24 1_555 1_555
O14 La3C_2 1_555 1_555
O16 C32 1_555 1_555
O20 C40 1_555 1_555
O22 La3C 1_555 1_555
O30 C48 1_555 1_555
C11 C16 1_555 1_555
C21 C24 1_555 1_555
C25 C31 1_555 1_555
C27 C32 1_555 1_555
C33 C39 1_555 1_555
C37 C40 1_555 1_555
C41 C47 1_555 1_555
C43 C48 1_555 1_555

#END
