
#######################################################################
#
#                 Cambridge Crystallographic Data Centre
#                                CCDC 
#
#######################################################################
#
# If this CIF has been generated from an entry in the Cambridge 
# Structural Database, then it will include bibliographic, chemical, 
# crystal, experimental, refinement or atomic coordinate data resulting 
# from the CCDC's data processing and validation procedures.
#
#######################################################################

data_VUZTUF01
_symmetry_cell_setting           monoclinic
_symmetry_space_group_name_H-M   'C 2/c'
_symmetry_Int_Tables_number      15
_space_group_name_Hall           '-C 2yn'
loop_
_symmetry_equiv_pos_site_id
_symmetry_equiv_pos_as_xyz
1 x,y,z
2 1/2+x,1/2+y,z
3 -x,y,1/2-z
4 1/2-x,1/2+y,1/2-z
5 -x,-y,-z
6 1/2-x,1/2-y,-z
7 x,-y,1/2+z
8 1/2+x,1/2-y,1/2+z
_cell_length_a                   31.514(4)
_cell_length_b                   5.8098(8)
_cell_length_c                   7.8218(10)
_cell_angle_alpha                90
_cell_angle_beta                 102.063(3)
_cell_angle_gamma                90
_cell_volume                     1400.47
loop_
_atom_site_label
_atom_site_type_symbol
_atom_site_fract_x
_atom_site_fract_y
_atom_site_fract_z
Sr1 Sr 0.0000 -0.11064(18) 0.2500
P1 P 0.06314(7) 0.3351(4) 0.4131(3)
O1 O 0.05194(17) 0.5858(9) 0.4155(6)
O2 O 0.03805(17) 0.1742(9) 0.5059(6)
O3 O 0.05423(18) 0.2376(9) 0.2215(7)
H1 H 0.052(3) 0.319(17) 0.137(12)
C1 C 0.1203(3) 0.2988(14) 0.5054(9)
C2 C 0.1501(3) 0.4618(16) 0.4734(10)
H2 H 0.1402 0.5941 0.4053
C3 C 0.1941(3) 0.4328(16) 0.5400(11)
H3 H 0.2145 0.5438 0.5179
C4 C 0.2079(3) 0.2398(17) 0.6387(11)
H4 H 0.2380 0.2203 0.6866
C5 C 0.1789(3) 0.0737(16) 0.6698(11)
H5 H 0.1888 -0.0585 0.7379
C6 C 0.1348(3) 0.1041(16) 0.5991(10)
H6 H 0.1147 -0.0110 0.6160
Sr1_2 Sr 0.0000 0.88936(18) 0.2500
Sr1F Sr 0.0000 0.11064(18) 0.7500
Sr1F_2 Sr 0.0000 0.11064(18) -0.2500
P1B P -0.06314(7) 0.3351(4) 0.0869(3)
O1B O -0.05194(17) 0.5858(9) 0.0845(6)
O1_2 O 0.05194(17) -0.4142(9) 0.4155(6)
O1B_2 O -0.05194(17) -0.4142(9) 0.0845(6)
O2B O -0.03805(17) 0.1742(9) -0.0059(6)
O2F O 0.03805(17) -0.1742(9) 0.0059(6)
O2D O -0.03805(17) -0.1742(9) 0.4941(6)
O3B O -0.05423(18) 0.2376(9) 0.2785(7)
H1B H -0.052(3) 0.319(17) 0.363(12)
C1B C -0.1203(3) 0.2988(14) -0.0054(9)
C2B C -0.1501(3) 0.4618(16) 0.0266(10)
H2B H -0.1402 0.5941 0.0947
C3B C -0.1941(3) 0.4328(16) -0.0400(11)
H3B H -0.2145 0.5438 -0.0179
C4B C -0.2079(3) 0.2398(17) -0.1387(11)
H4B H -0.2380 0.2203 -0.1866
C5B C -0.1789(3) 0.0737(16) -0.1698(11)
H5B H -0.1888 -0.0585 -0.2379
C6B C -0.1348(3) 0.1041(16) -0.0991(10)
H6B H -0.1147 -0.0110 -0.1160
loop_
_geom_bond_atom_site_label_1
_geom_bond_atom_site_label_2
_geom_bond_site_symmetry_1
_geom_bond_site_symmetry_2
Sr1 O2 1_555 1_555
P1 O1 1_555 1_555
O1 Sr1_2 1_555 1_555
O2 P1 1_555 1_555
O3 Sr1 1_555 1_555
H1 O3 1_555 1_555
C1 P1 1_555 1_555
C2 C1 1_555 1_555
H2 C2 1_555 1_555
C3 C2 1_555 1_555
H3 C3 1_555 1_555
C4 C3 1_555 1_555
H4 C4 1_555 1_555
C5 C4 1_555 1_555
H5 C5 1_555 1_555
C6 C1 1_555 1_555
H6 C6 1_555 1_555
Sr1_2 O1B 1_555 1_555
Sr1F O2 1_555 1_555
Sr1F_2 O2B 1_555 1_555
P1B O1B 1_555 1_555
O1_2 Sr1 1_555 1_555
O1B_2 Sr1 1_555 1_555
O2B Sr1 1_555 1_555
O2F Sr1 1_555 1_555
O2D Sr1 1_555 1_555
O3B Sr1 1_555 1_555
H1B O3B 1_555 1_555
C1B P1B 1_555 1_555
C2B C1B 1_555 1_555
H2B C2B 1_555 1_555
C3B C2B 1_555 1_555
H3B C3B 1_555 1_555
C4B C3B 1_555 1_555
H4B C4B 1_555 1_555
C5B C4B 1_555 1_555
H5B C5B 1_555 1_555
C6B C1B 1_555 1_555
H6B C6B 1_555 1_555
P1 O3 1_555 1_555
C5 C6 1_555 1_555
Sr1F O2D 1_555 1_555
Sr1F_2 O2F 1_555 1_555
P1B O2B 1_555 1_555
P1B O3B 1_555 1_555
C5B C6B 1_555 1_555

#END
