
#######################################################################
#
#                 Cambridge Crystallographic Data Centre
#                                CCDC 
#
#######################################################################
#
# If this CIF has been generated from an entry in the Cambridge 
# Structural Database, then it will include bibliographic, chemical, 
# crystal, experimental, refinement or atomic coordinate data resulting 
# from the CCDC's data processing and validation procedures.
#
#######################################################################

data_VUZTIT
_symmetry_cell_setting           orthorhombic
_symmetry_space_group_name_H-M   'P n m a'
_symmetry_Int_Tables_number      62
_space_group_name_Hall           '-P 2ac 2n'
loop_
_symmetry_equiv_pos_site_id
_symmetry_equiv_pos_as_xyz
1 x,y,z
2 1/2-x,-y,1/2+z
3 1/2+x,1/2-y,1/2-z
4 -x,1/2+y,-z
5 -x,-y,-z
6 1/2+x,y,1/2-z
7 1/2-x,1/2+y,1/2+z
8 x,1/2-y,z
_cell_length_a                   13.5045(10)
_cell_length_b                   3.9989(4)
_cell_length_c                   11.9939(11)
_cell_angle_alpha                90
_cell_angle_beta                 90
_cell_angle_gamma                90
_cell_volume                     647.708
loop_
_atom_site_label
_atom_site_type_symbol
_atom_site_fract_x
_atom_site_fract_y
_atom_site_fract_z
Pb1 Pb 0.21405(2) 0.25000 0.38016(2)
C1 C -0.0175(7) -0.2500 0.3908(6)
C2 C -0.1740(6) -0.2500 0.3222(9)
C3 C 0.3447(6) -0.2500 0.5762(7)
C4 C 0.5020(7) -0.2500 0.6452(7)
N1 N 0.0668(6) -0.2500 0.3882(5)
N2 N -0.1125(5) -0.2500 0.4054(6)
N3 N -0.2364(5) -0.2500 0.2560(6)
N4 N 0.2838(5) -0.2500 0.5080(6)
N5 N 0.4051(6) -0.2500 0.6593(6)
N6 N 0.5864(7) -0.2500 0.6421(7)
N1_2 N 0.0668(6) 0.7500 0.3882(5)
N3B N 0.2636(5) 0.7500 0.2440(6)
N4_2 N 0.2838(5) 0.7500 0.5080(6)
N2C N 0.1125(5) 0.2500 0.5946(6)
N5A N 0.0949(6) 0.2500 0.1593(6)
Pb1_2 Pb 0.21405(2) -0.75000 0.38016(2)
Pb1C Pb -0.21405(2) -0.25000 0.61984(2)
Pb1A Pb 0.28595(2) -0.25000 0.88016(2)
Pb1B Pb -0.28595(2) 0.25000 0.11984(2)
N3B_2 N 0.2636(5) -0.2500 0.2440(6)
N6C N 0.4136(7) 0.2500 0.3579(7)
Pb1B_2 Pb -0.28595(2) -0.75000 0.11984(2)
Pb1C_2 Pb 0.78595(2) -0.25000 0.61984(2)
loop_
_geom_bond_atom_site_label_1
_geom_bond_atom_site_label_2
_geom_bond_site_symmetry_1
_geom_bond_site_symmetry_2
Pb1 N1 1_555 1_555
C1 N1 1_555 1_555
C2 N2 1_555 1_555
C3 N4 1_555 1_555
C4 N5 1_555 1_555
N1 Pb1_2 1_555 1_555
N2 C1 1_555 1_555
N3 C2 1_555 1_555
N4 Pb1 1_555 1_555
N5 C3 1_555 1_555
N6 C4 1_555 1_555
N1_2 Pb1 1_555 1_555
N3B Pb1 1_555 1_555
N4_2 Pb1 1_555 1_555
N2C Pb1 1_555 1_555
N5A Pb1 1_555 1_555
Pb1_2 N4 1_555 1_555
Pb1C N2 1_555 1_555
Pb1A N5 1_555 1_555
Pb1B N3 1_555 1_555
N3B_2 Pb1 1_555 1_555
N6C Pb1 1_555 1_555
Pb1B_2 N3 1_555 1_555
Pb1C_2 N6 1_555 1_555
Pb1_2 N3B_2 1_555 1_555

#END
