
#######################################################################
#
#                 Cambridge Crystallographic Data Centre
#                                CCDC 
#
#######################################################################
#
# If this CIF has been generated from an entry in the Cambridge 
# Structural Database, then it will include bibliographic, chemical, 
# crystal, experimental, refinement or atomic coordinate data resulting 
# from the CCDC's data processing and validation procedures.
#
#######################################################################

data_VUZTIT01
_symmetry_cell_setting           orthorhombic
_symmetry_space_group_name_H-M   'P n m a'
_symmetry_Int_Tables_number      62
_space_group_name_Hall           '-P 2ac 2n'
loop_
_symmetry_equiv_pos_site_id
_symmetry_equiv_pos_as_xyz
1 x,y,z
2 1/2+x,y,1/2-z
3 1/2-x,1/2+y,1/2+z
4 x,1/2-y,z
5 -x,-y,-z
6 1/2-x,-y,1/2+z
7 1/2+x,1/2-y,1/2-z
8 -x,1/2+y,-z
_cell_length_a                   13.501(2)
_cell_length_b                   3.995(1)
_cell_length_c                   11.980(2)
_cell_angle_alpha                90
_cell_angle_beta                 90
_cell_angle_gamma                90
_cell_volume                     646.159
loop_
_atom_site_label
_atom_site_type_symbol
_atom_site_fract_x
_atom_site_fract_y
_atom_site_fract_z
Pb1 Pb 0.71407(5) 1.2500 0.38005(5)
N1 N 0.5669(15) 0.7500 0.3891(12)
N2 N 0.3864(12) 0.7500 0.4134(14)
N3 N 0.2644(12) 0.7500 0.2522(14)
N4 N 0.5927(11) 1.2500 0.1567(14)
N5 N 0.4097(12) 1.2500 0.1427(14)
N6 N 0.7176(10) 1.2500 0.0051(15)
C1 C 0.4797(15) 0.7500 0.3884(15)
C2 C 0.3274(14) 0.7500 0.3266(16)
C3 C 0.4959(16) 1.2500 0.1403(16)
C4 C 0.6533(14) 1.2500 0.0684(16)
N1_2 N 0.5669(15) 1.7500 0.3891(12)
N2D N 0.6136(12) 1.2500 0.5866(14)
N3A N 0.7644(12) 0.7500 0.2478(14)
N3A_2 N 0.7644(12) 1.7500 0.2478(14)
N5A N 0.9097(12) 1.2500 0.3573(14)
N6B N 0.7824(10) 0.7500 0.5051(15)
N6B_2 N 0.7824(10) 1.7500 0.5051(15)
Pb1_2 Pb 0.71407(5) 0.2500 0.38005(5)
Pb1D Pb 0.28593(5) 0.7500 0.61995(5)
Pb1A Pb 0.21407(5) 0.2500 0.11995(5)
Pb1A_2 Pb 0.21407(5) 1.2500 0.11995(5)
Pb1B Pb 0.78593(5) 0.7500 -0.11995(5)
Pb1B_2 Pb 0.78593(5) 1.7500 -0.11995(5)
loop_
_geom_bond_atom_site_label_1
_geom_bond_atom_site_label_2
_geom_bond_site_symmetry_1
_geom_bond_site_symmetry_2
Pb1 N1 1_555 1_555
N1 C1 1_555 1_555
N2 C1 1_555 1_555
N3 C2 1_555 1_555
N4 Pb1 1_555 1_555
N5 C3 1_555 1_555
N6 C4 1_555 1_555
C2 N2 1_555 1_555
C3 N4 1_555 1_555
C4 N4 1_555 1_555
N1_2 Pb1 1_555 1_555
N2D Pb1 1_555 1_555
N3A Pb1 1_555 1_555
N3A_2 Pb1 1_555 1_555
N5A Pb1 1_555 1_555
N6B Pb1 1_555 1_555
N6B_2 Pb1 1_555 1_555
Pb1_2 N1 1_555 1_555
Pb1D N2 1_555 1_555
Pb1A N3 1_555 1_555
Pb1A_2 N3 1_555 1_555
Pb1B N6 1_555 1_555
Pb1B_2 N6 1_555 1_555
N5 Pb1A_2 1_555 1_555
N3A Pb1_2 1_555 1_555
N6B Pb1_2 1_555 1_555

#END
