
#######################################################################
#
#                 Cambridge Crystallographic Data Centre
#                                CCDC 
#
#######################################################################
#
# If this CIF has been generated from an entry in the Cambridge 
# Structural Database, then it will include bibliographic, chemical, 
# crystal, experimental, refinement or atomic coordinate data resulting 
# from the CCDC's data processing and validation procedures.
#
#######################################################################

data_VUZVER
_symmetry_cell_setting           orthorhombic
_symmetry_space_group_name_H-M   'P m m n'
_symmetry_Int_Tables_number      59
_space_group_name_Hall           '-P 2ab 2a'
loop_
_symmetry_equiv_pos_site_id
_symmetry_equiv_pos_as_xyz
1 x,y,z
2 1/2-x,1/2-y,z
3 1/2+x,-y,-z
4 -x,1/2+y,-z
5 -x,-y,-z
6 1/2+x,1/2+y,-z
7 1/2-x,y,z
8 x,1/2-y,z
_cell_length_a                   17.937(1)
_cell_length_b                   6.4299(4)
_cell_length_c                   4.4936(3)
_cell_angle_alpha                90
_cell_angle_beta                 90
_cell_angle_gamma                90
_cell_volume                     518.261
loop_
_atom_site_label
_atom_site_type_symbol
_atom_site_fract_x
_atom_site_fract_y
_atom_site_fract_z
Ni1 Ni 0.5000 0.0000 0.000
Ni2 Ni 0.5917(5) -0.2500 0.369(2)
P1 P 0.4106(3) -0.2500 -0.487(1)
O1 O 0.5687(5) -0.250 -0.177(2)
O2 O 0.4176(4) -0.0457(8) -0.296(1)
O3 O 0.4729(5) -0.2500 -0.738(2)
O4 O 0.296(1) 0.2500 -0.344(5)
C1 C 0.3227(5) -0.2500 -0.658(3)
C2 C 0.2500 -0.2500 -0.463(4)
O1C O 0.4313(5) 0.250 0.177(2)
O2D O 0.5824(4) 0.0457(8) 0.296(1)
O3_2 O 0.4729(5) -0.2500 0.262(2)
O3C O 0.5271(5) 0.2500 -0.262(2)
Ni1C Ni 0.5000 -0.5000 0.000
Ni2_2 Ni 0.5917(5) -0.2500 -0.631(2)
Ni1C_2 Ni 0.5000 0.5000 0.000
Ni2C Ni 0.4083(5) 0.2500 -0.369(2)
Ni2C_2 Ni 0.4083(5) 0.2500 0.631(2)
Ni1_2 Ni 0.5000 0.0000 -1.000
Ni1C_3 Ni 0.5000 -0.5000 -1.000
O2G O 0.4176(4) -0.4543(8) -0.296(1)
O3C_2 O 0.5271(5) -0.7500 -0.262(2)
Ni2C_3 Ni 0.4083(5) -0.7500 -0.369(2)
C1A C 0.1773(5) -0.2500 -0.658(3)
P1A P 0.0894(3) -0.2500 -0.487(1)
O2F O 0.0824(4) -0.0457(8) -0.296(1)
O2A O 0.0824(4) -0.4543(8) -0.296(1)
O3A O 0.0271(5) -0.2500 -0.738(2)
Ni1B Ni 0.0000 0.0000 0.000
Ni2B Ni 0.0917(5) 0.2500 -0.369(2)
Ni1A Ni 0.0000 -0.5000 0.000
Ni2B_2 Ni 0.0917(5) -0.7500 -0.369(2)
Ni1A_2 Ni 0.0000 -0.5000 -1.000
Ni1B_2 Ni 0.0000 0.0000 -1.000
Ni2A Ni -0.0917(5) -0.2500 -0.631(2)
O1C_2 O 0.4313(5) -0.750 0.177(2)
O2C O 0.5824(4) -0.5457(8) 0.296(1)
O1_2 O 0.5687(5) -0.250 0.823(2)
O4C O 0.704(1) -0.2500 0.344(5)
O2G_2 O 0.4176(4) 0.5457(8) -0.296(1)
O1C_3 O 0.4313(5) 0.250 -0.823(2)
O5 O 0.2500 0.2500 0.178(5)
loop_
_geom_bond_atom_site_label_1
_geom_bond_atom_site_label_2
_geom_bond_site_symmetry_1
_geom_bond_site_symmetry_2
Ni1 O1 1_555 1_555
Ni2 O1 1_555 1_555
P1 O2 1_555 1_555
O1 Ni1C 1_555 1_555
O2 Ni1 1_555 1_555
O3 P1 1_555 1_555
O4 Ni2C 1_555 1_555
C1 P1 1_555 1_555
C2 C1 1_555 1_555
O1C Ni1 1_555 1_555
O2D Ni1 1_555 1_555
O3_2 Ni1 1_555 1_555
O3C Ni1 1_555 1_555
Ni1C O3_2 1_555 1_555
Ni2_2 O1 1_555 1_555
Ni1C_2 O1C 1_555 1_555
Ni2C O2 1_555 1_555
Ni2C_2 O1C 1_555 1_555
Ni1_2 O3 1_555 1_555
Ni1C_3 O3 1_555 1_555
O2G P1 1_555 1_555
O3C_2 Ni1C 1_555 1_555
Ni2C_3 O2G 1_555 1_555
C1A C2 1_555 1_555
P1A C1A 1_555 1_555
O2F P1A 1_555 1_555
O2A P1A 1_555 1_555
O3A P1A 1_555 1_555
Ni1B O2F 1_555 1_555
Ni2B O2F 1_555 1_555
Ni1A O2A 1_555 1_555
Ni2B_2 O2A 1_555 1_555
Ni1A_2 O3A 1_555 1_555
Ni1B_2 O3A 1_555 1_555
Ni2A O3A 1_555 1_555
O1C_2 Ni1C 1_555 1_555
O2C Ni2 1_555 1_555
O1_2 Ni2 1_555 1_555
O4C Ni2 1_555 1_555
O2G_2 Ni1C_2 1_555 1_555
O1C_3 Ni2C 1_555 1_555
Ni2 O2D 1_555 1_555
Ni2 O3_2 1_555 1_555
O3 Ni2_2 1_555 1_555
O1C Ni2C 1_555 1_555
O3C Ni1C_2 1_555 1_555
O3C Ni2C 1_555 1_555
Ni1C O2C 1_555 1_555
Ni1C O2G 1_555 1_555
Ni2C O2G_2 1_555 1_555
Ni1_2 O1C_3 1_555 1_555
O3C_2 Ni2C_3 1_555 1_555
Ni2C_3 O1C_2 1_555 1_555

#END
