
#######################################################################
#
#                 Cambridge Crystallographic Data Centre
#                                CCDC 
#
#######################################################################
#
# If this CIF has been generated from an entry in the Cambridge 
# Structural Database, then it will include bibliographic, chemical, 
# crystal, experimental, refinement or atomic coordinate data resulting 
# from the CCDC's data processing and validation procedures.
#
#######################################################################

data_WABBUY
_symmetry_cell_setting           monoclinic
_symmetry_space_group_name_H-M   'P 21/m'
_symmetry_Int_Tables_number      11
_space_group_name_Hall           '-P 2yb'
loop_
_symmetry_equiv_pos_site_id
_symmetry_equiv_pos_as_xyz
1 x,y,z
2 -x,1/2+y,-z
3 -x,-y,-z
4 x,1/2-y,z
_cell_length_a                   6.8806(14)
_cell_length_b                   11.767(2)
_cell_length_c                   8.8082(18)
_cell_angle_alpha                90
_cell_angle_beta                 103.59(3)
_cell_angle_gamma                90
_cell_volume                     693.181
loop_
_atom_site_label
_atom_site_type_symbol
_atom_site_fract_x
_atom_site_fract_y
_atom_site_fract_z
N1 N -0.5444(2) -0.2500 -0.27480(15)
N2 N -0.8006(2) -0.2500 -0.55968(15)
O1 O -0.38289(14) -0.07723(7) -0.12018(11)
O2 O -0.93637(16) -0.06583(8) -0.71680(11)
O3 O -0.78081(16) 0.05057(7) -0.53464(10)
O4 O -0.55443(15) 0.04935(7) -0.28323(11)
C1 C -0.50647(17) -0.05281(9) -0.23971(13)
C2 C -0.73876(16) -0.15142(8) -0.49057(12)
C3 C -0.60549(16) -0.15127(8) -0.34235(12)
C4 C -0.82699(17) -0.04920(10) -0.58970(13)
O5 O 0.16203(15) -0.08803(8) -0.07884(12)
O6 O -0.0702(2) -0.2500 0.09008(14)
O7 O -0.5445(2) -0.2500 0.09036(16)
O8 O -0.0754(3) -0.2500 -0.27674(19)
Li1 Li 0.1189(6) -0.2500 -0.0608(4)
Li2 Li -0.3432(5) -0.2500 -0.0520(4)
H1 H 0.071(3) -0.0464(18) -0.147(2)
H2 H 0.230(4) -0.038(2) -0.008(3)
H3 H -0.024(3) -0.1928(17) 0.148(2)
H4 H -0.516(3) -0.1934(16) 0.154(2)
H5 H -0.125(3) -0.1906(16) -0.339(2)
H6 H -0.664(3) 0.055(2) -0.412(2)
O1C O -0.38289(14) -0.42277(7) -0.12018(11)
O2C O -0.93637(16) -0.43417(8) -0.71680(11)
O3C O -0.78081(16) -0.55057(7) -0.53464(10)
O4C O -0.55443(15) -0.54935(7) -0.28323(11)
C1C C -0.50647(17) -0.44719(9) -0.23971(13)
C2C C -0.73876(16) -0.34858(8) -0.49057(12)
C3C C -0.60549(16) -0.34873(8) -0.34235(12)
C4C C -0.82699(17) -0.45080(10) -0.58970(13)
O5C O 0.16203(15) -0.41197(8) -0.07884(12)
O7_2 O 0.4555(2) -0.2500 0.09036(16)
Li1_2 Li -0.8811(6) -0.2500 -0.0608(4)
H1C H 0.071(3) -0.4536(18) -0.147(2)
H2C H 0.230(4) -0.462(2) -0.008(3)
H3C H -0.024(3) -0.3072(17) 0.148(2)
H4C H 0.484(3) -0.3066(16) 0.154(2)
H4_2 H 0.484(3) -0.1934(16) 0.154(2)
H4C_2 H -0.516(3) -0.3066(16) 0.154(2)
H5C H -0.125(3) -0.3094(16) -0.339(2)
H6C H -0.664(3) -0.555(2) -0.412(2)
loop_
_geom_bond_atom_site_label_1
_geom_bond_atom_site_label_2
_geom_bond_site_symmetry_1
_geom_bond_site_symmetry_2
N1 C3 1_555 1_555
N2 C2 1_555 1_555
O1 C1 1_555 1_555
O2 C4 1_555 1_555
O3 C4 1_555 1_555
O4 C1 1_555 1_555
C1 C3 1_555 1_555
C2 C3 1_555 1_555
C4 C2 1_555 1_555
O5 Li1 1_555 1_555
O6 Li1 1_555 1_555
O7 Li2 1_555 1_555
O8 Li1 1_555 1_555
Li1 O5C 1_555 1_555
Li2 N1 1_555 1_555
H1 O5 1_555 1_555
H2 O5 1_555 1_555
H3 O6 1_555 1_555
H4 O7 1_555 1_555
H5 O8 1_555 1_555
H6 O3 1_555 1_555
O1C Li2 1_555 1_555
O2C C4C 1_555 1_555
O3C C4C 1_555 1_555
O4C C1C 1_555 1_555
C1C O1C 1_555 1_555
C2C N2 1_555 1_555
C3C N1 1_555 1_555
C4C C2C 1_555 1_555
O5C H1C 1_555 1_555
O7_2 Li1 1_555 1_555
Li1_2 O7 1_555 1_555
H2C O5C 1_555 1_555
H3C O6 1_555 1_555
H4C O7_2 1_555 1_555
H4_2 O7_2 1_555 1_555
H4C_2 O7 1_555 1_555
H5C O8 1_555 1_555
H6C O3C 1_555 1_555
O1 Li2 1_555 1_555
O6 Li2 1_555 1_555
C1C C3C 1_555 1_555
C2C C3C 1_555 1_555

#END
