
#######################################################################
#
#                 Cambridge Crystallographic Data Centre
#                                CCDC 
#
#######################################################################
#
# If this CIF has been generated from an entry in the Cambridge 
# Structural Database, then it will include bibliographic, chemical, 
# crystal, experimental, refinement or atomic coordinate data resulting 
# from the CCDC's data processing and validation procedures.
#
#######################################################################

data_WABDAF
_symmetry_cell_setting           monoclinic
_symmetry_space_group_name_H-M   'P 21/n'
_symmetry_Int_Tables_number      14
_space_group_name_Hall           '-P 2yn'
loop_
_symmetry_equiv_pos_site_id
_symmetry_equiv_pos_as_xyz
1 x,y,z
2 1/2+x,1/2-y,1/2+z
3 -x,-y,-z
4 1/2-x,1/2+y,1/2-z
_cell_length_a                   14.67330(10)
_cell_length_b                   5.8547(2)
_cell_length_c                   22.3503(5)
_cell_angle_alpha                90
_cell_angle_beta                 90.730(2)
_cell_angle_gamma                90
_cell_volume                     1919.91
loop_
_atom_site_label
_atom_site_type_symbol
_atom_site_fract_x
_atom_site_fract_y
_atom_site_fract_z
Cd1 Cd 0.36854(3) 1.19533(7) 0.127008(16)
S1 S 0.36983(12) 0.9453(2) 0.01995(6)
S2 S 0.34204(10) 1.4355(2) 0.22843(6)
O1 O 0.6605(4) 1.8783(10) 0.31047(19)
H1 H 0.6596 1.8897 0.3470
O2 O 0.5917(3) 1.5517(8) 0.33102(18)
O3 O 0.0847(3) 1.8344(8) -0.05566(18)
H2 H 0.0911 1.8531 -0.0917
O4 O 0.1564(3) 1.5090(8) -0.07626(17)
N1 N 0.3709(4) 0.5019(8) 0.0663(2)
N2 N 0.3834(4) 1.8721(8) 0.1845(2)
N3 N 0.5311(3) 1.1962(8) 0.12753(18)
H3 H 0.5497 1.0759 0.1496
H4 H 0.5490 1.1700 0.0898
N4 N 0.2090(3) 1.1290(8) 0.12274(19)
H5 H 0.1979 1.0110 0.0979
H6 H 0.1902 1.0882 0.1594
C1 C 0.3708(3) 0.6850(9) 0.0478(2)
C2 C 0.3665(3) 1.6914(10) 0.2019(2)
C3 C 0.6269(4) 1.6892(12) 0.2951(2)
C4 C 0.6268(4) 1.6347(10) 0.2301(2)
C5 C 0.5841(3) 1.4385(10) 0.2097(2)
H7 H 0.5580 1.3378 0.2368
C6 C 0.5802(3) 1.3925(9) 0.1488(2)
C7 C 0.6206(4) 1.5416(10) 0.1095(2)
H8 H 0.6171 1.5127 0.0686
C8 C 0.6659(4) 1.7321(10) 0.1298(2)
H9 H 0.6949 1.8276 0.1028
C9 C 0.6687(4) 1.7830(10) 0.1904(2)
H10 H 0.6981 1.9138 0.2042
C10 C 0.1189(4) 1.6441(11) -0.0403(2)
C11 C 0.1131(3) 1.5775(10) 0.0236(2)
C12 C 0.1571(3) 1.3802(10) 0.0430(2)
H11 H 0.1869 1.2877 0.0156
C13 C 0.1565(3) 1.3210(10) 0.1030(2)
C14 C 0.1106(4) 1.4582(10) 0.1428(2)
H12 H 0.1106 1.4198 0.1832
C15 C 0.0650(4) 1.6501(11) 0.1238(2)
H13 H 0.0330 1.7387 0.1509
C16 C 0.0669(4) 1.7113(10) 0.0638(2)
H14 H 0.0370 1.8427 0.0508
N1_2 N 0.3709(4) 1.5019(8) 0.0663(2)
N2_2 N 0.3834(4) 0.8721(8) 0.1845(2)
Cd1_2 Cd 0.36854(3) 0.19533(7) 0.127008(16)
Cd1_3 Cd 0.36854(3) 2.19533(7) 0.127008(16)
loop_
_geom_bond_atom_site_label_1
_geom_bond_atom_site_label_2
_geom_bond_site_symmetry_1
_geom_bond_site_symmetry_2
Cd1 S1 1_555 1_555
S1 C1 1_555 1_555
S2 Cd1 1_555 1_555
O1 H1 1_555 1_555
O2 C3 1_555 1_555
O3 H2 1_555 1_555
O4 C10 1_555 1_555
N1 C1 1_555 1_555
N2 C2 1_555 1_555
N3 Cd1 1_555 1_555
H3 N3 1_555 1_555
H4 N3 1_555 1_555
N4 Cd1 1_555 1_555
H5 N4 1_555 1_555
H6 N4 1_555 1_555
C2 S2 1_555 1_555
C3 O1 1_555 1_555
C4 C3 1_555 1_555
C5 C4 1_555 1_555
H7 C5 1_555 1_555
C6 N3 1_555 1_555
C7 C6 1_555 1_555
H8 C7 1_555 1_555
C8 C7 1_555 1_555
H9 C8 1_555 1_555
C9 C4 1_555 1_555
H10 C9 1_555 1_555
C10 O3 1_555 1_555
C11 C10 1_555 1_555
C12 C11 1_555 1_555
H11 C12 1_555 1_555
C13 N4 1_555 1_555
C14 C13 1_555 1_555
H12 C14 1_555 1_555
C15 C14 1_555 1_555
H13 C15 1_555 1_555
C16 C11 1_555 1_555
H14 C16 1_555 1_555
N1_2 Cd1 1_555 1_555
N2_2 Cd1 1_555 1_555
Cd1_2 N1 1_555 1_555
Cd1_3 N2 1_555 1_555
C5 C6 1_555 1_555
C8 C9 1_555 1_555
C12 C13 1_555 1_555
C15 C16 1_555 1_555

#END
