
#######################################################################
#
#                 Cambridge Crystallographic Data Centre
#                                CCDC 
#
#######################################################################
#
# If this CIF has been generated from an entry in the Cambridge 
# Structural Database, then it will include bibliographic, chemical, 
# crystal, experimental, refinement or atomic coordinate data resulting 
# from the CCDC's data processing and validation procedures.
#
#######################################################################

data_WABJOZ
_symmetry_cell_setting           monoclinic
_symmetry_space_group_name_H-M   'P 21/n'
_symmetry_Int_Tables_number      14
_space_group_name_Hall           '-P 2yn'
loop_
_symmetry_equiv_pos_site_id
_symmetry_equiv_pos_as_xyz
1 x,y,z
2 1/2+x,1/2-y,1/2+z
3 -x,-y,-z
4 1/2-x,1/2+y,1/2-z
_cell_length_a                   7.4315(18)
_cell_length_b                   15.614(4)
_cell_length_c                   15.344(4)
_cell_angle_alpha                90.00
_cell_angle_beta                 93.444(6)
_cell_angle_gamma                90.00
_cell_volume                     1777.23
loop_
_atom_site_label
_atom_site_type_symbol
_atom_site_fract_x
_atom_site_fract_y
_atom_site_fract_z
H1 H 0.144(3) -0.2585(16) 0.2012(16)
H2 H 0.263(4) -0.2781(18) 0.0605(18)
H3 H 0.300(4) 0.002(2) -0.047(2)
H4 H -0.074(4) 0.215(2) 0.257(2)
H5 H 0.324(4) -0.1628(18) -0.026(2)
H6 H 0.214(4) 0.1333(19) 0.0106(19)
H7 H -0.104(3) 0.0901(16) 0.3322(18)
H8 H 0.071(4) 0.219(2) 0.123(2)
H9 H -0.497(5) -0.088(2) 0.642(2)
H10 H -0.581(5) -0.130(2) 0.578(2)
N1 N 0.0010(3) 0.01490(12) 0.24357(13)
N2 N 0.1140(3) -0.13328(12) 0.18836(13)
O1 O -0.5023(3) -0.10218(13) 0.58777(15)
C1 C -0.2431(3) -0.12126(15) 0.21766(17)
C2 C -0.1780(3) -0.07278(16) 0.38357(17)
N3 N -0.6877(3) -0.06381(14) 0.41384(14)
C3 C 0.0848(3) 0.01609(15) 0.16769(16)
C4 C 0.2383(4) -0.2218(2) 0.07986(19)
C5 C 0.1448(3) -0.06421(16) 0.13686(15)
N4 N -0.2806(3) -0.05411(14) 0.43368(14)
C6 C -0.0284(3) -0.21852(17) 0.33352(16)
C7 C 0.2269(3) -0.07030(18) 0.05739(17)
C8 C 0.1123(4) 0.09118(17) 0.11961(19)
C9 C -0.0522(4) 0.08949(17) 0.2755(2)
N5 N -0.0224(3) -0.28851(16) 0.35598(17)
C10 C 0.1595(3) -0.21037(17) 0.15960(18)
C11 C -0.8090(3) -0.08140(15) 0.36821(16)
N6 N -0.3668(3) -0.13139(16) 0.17176(17)
C12 C 0.2531(4) 0.0074(2) 0.00973(19)
C13 C -0.0268(4) 0.16687(19) 0.2325(2)
C14 C 0.2727(4) -0.1526(2) 0.02976(19)
C15 C 0.0531(4) 0.16827(19) 0.1553(2)
C16 C 0.1989(4) 0.0828(2) 0.0392(2)
Co1 Co -0.5000 0.0000 0.5000
Fe1 Fe -0.02363(4) -0.10309(2) 0.29205(2)
H9B H -0.503(5) 0.088(2) 0.358(2)
H10B H -0.419(5) 0.130(2) 0.422(2)
O1B O -0.4977(3) 0.10218(13) 0.41223(15)
N3B N -0.3123(3) 0.06381(14) 0.58616(14)
C11B C -0.1910(3) 0.08140(15) 0.63179(16)
C2B C -0.8220(3) 0.07278(16) 0.61643(17)
N4B N -0.7194(3) 0.05411(14) 0.56632(14)
Fe1B Fe -0.97637(4) 0.10309(2) 0.70795(2)
H1B H -1.144(3) 0.2585(16) 0.7988(16)
H2B H -1.263(4) 0.2781(18) 0.9395(18)
H3B H -1.300(4) -0.002(2) 1.047(2)
H4B H -0.926(4) -0.215(2) 0.743(2)
H5B H -1.324(4) 0.1628(18) 1.026(2)
H6B H -1.214(4) -0.1333(19) 0.9894(19)
H7B H -0.896(3) -0.0901(16) 0.6678(18)
H8B H -1.071(4) -0.219(2) 0.877(2)
N1B N -1.0010(3) -0.01490(12) 0.75643(13)
N2B N -1.1140(3) 0.13328(12) 0.81164(13)
C3B C -1.0848(3) -0.01609(15) 0.83231(16)
C4B C -1.2383(4) 0.2218(2) 0.92014(19)
C5B C -1.1448(3) 0.06421(16) 0.86314(15)
C7B C -1.2269(3) 0.07030(18) 0.94261(17)
C8B C -1.1123(4) -0.09118(17) 0.88039(19)
C9B C -0.9478(4) -0.08949(17) 0.7245(2)
C10B C -1.1595(3) 0.21037(17) 0.84040(18)
C12B C -1.2531(4) -0.0074(2) 0.99027(19)
C13B C -0.9732(4) -0.16687(19) 0.7675(2)
C14B C -1.2727(4) 0.1526(2) 0.97024(19)
C15B C -1.0531(4) -0.16827(19) 0.8447(2)
C16B C -1.1989(4) -0.0828(2) 0.9608(2)
C1B C -0.7569(3) 0.12126(15) 0.78234(17)
N6B N -0.6332(3) 0.13139(16) 0.82824(17)
C6B C -0.9716(3) 0.21852(17) 0.66648(16)
N5B N -0.9776(3) 0.28851(16) 0.64402(17)
Fe1_2 Fe -1.02363(4) -0.10309(2) 0.29205(2)
C11_2 C 0.1910(3) -0.08140(15) 0.36821(16)
Fe1B_2 Fe 0.02363(4) 0.10309(2) 0.70795(2)
C11B_2 C -1.1910(3) 0.08140(15) 0.63179(16)
H11 H -0.005(5) -0.414(2) 0.292(2)
H14 H -0.034(7) -0.493(3) 0.276(3)
O2 O 0.0058(4) -0.44574(17) 0.25779(16)
H12 H 0.129(7) 0.793(3) 0.513(3)
H13 H 0.169(7) 0.750(3) 0.587(3)
O3 O 0.1953(4) 0.78843(18) 0.55721(18)
loop_
_geom_bond_atom_site_label_1
_geom_bond_atom_site_label_2
_geom_bond_site_symmetry_1
_geom_bond_site_symmetry_2
H1 C10 1_555 1_555
H2 C4 1_555 1_555
H3 C12 1_555 1_555
H4 C13 1_555 1_555
H5 C14 1_555 1_555
H6 C16 1_555 1_555
H7 C9 1_555 1_555
H8 C15 1_555 1_555
H9 O1 1_555 1_555
H10 O1 1_555 1_555
H11 O2 1_555 1_555
H12 O3 1_555 1_555
H13 O3 1_555 1_555
H14 O2 1_555 1_555
N1 C3 1_555 1_555
N2 C5 1_555 1_555
O1 Co1 1_555 1_555
C1 N6 1_555 1_555
C2 N4 1_555 1_555
N3 C11 1_555 1_555
C3 C5 1_555 1_555
C4 C10 1_555 1_555
C5 C7 1_555 1_555
N4 Co1 1_555 1_555
C6 N5 1_555 1_555
C7 C12 1_555 1_555
C8 C3 1_555 1_555
C9 N1 1_555 1_555
C10 N2 1_555 1_555
C11 Fe1_2 1_555 1_555
C12 C16 1_555 1_555
C13 C9 1_555 1_555
C14 C4 1_555 1_555
C15 C8 1_555 1_555
C16 C8 1_555 1_555
Co1 N3 1_555 1_555
Fe1 N1 1_555 1_555
H9B O1B 1_555 1_555
H10B O1B 1_555 1_555
O1B Co1 1_555 1_555
N3B Co1 1_555 1_555
C11B N3B 1_555 1_555
C2B N4B 1_555 1_555
N4B Co1 1_555 1_555
Fe1B C2B 1_555 1_555
H1B C10B 1_555 1_555
H2B C4B 1_555 1_555
H3B C12B 1_555 1_555
H4B C13B 1_555 1_555
H5B C14B 1_555 1_555
H6B C16B 1_555 1_555
H7B C9B 1_555 1_555
H8B C15B 1_555 1_555
N1B Fe1B 1_555 1_555
N2B Fe1B 1_555 1_555
C3B N1B 1_555 1_555
C4B C10B 1_555 1_555
C5B N2B 1_555 1_555
C7B C5B 1_555 1_555
C8B C3B 1_555 1_555
C9B N1B 1_555 1_555
C10B N2B 1_555 1_555
C12B C7B 1_555 1_555
C13B C9B 1_555 1_555
C14B C4B 1_555 1_555
C15B C8B 1_555 1_555
C16B C8B 1_555 1_555
C1B Fe1B 1_555 1_555
N6B C1B 1_555 1_555
C6B Fe1B 1_555 1_555
N5B C6B 1_555 1_555
C11_2 Fe1 1_555 1_555
Fe1B_2 C11B 1_555 1_555
C11B_2 Fe1B 1_555 1_555
N2 Fe1 1_555 1_555
C1 Fe1 1_555 1_555
C2 Fe1 1_555 1_555
C6 Fe1 1_555 1_555
C7 C14 1_555 1_555
C13 C15 1_555 1_555
C3B C5B 1_555 1_555
C7B C14B 1_555 1_555
C12B C16B 1_555 1_555
C13B C15B 1_555 1_555

#END
