
#######################################################################
#
#                 Cambridge Crystallographic Data Centre
#                                CCDC 
#
#######################################################################
#
# If this CIF has been generated from an entry in the Cambridge 
# Structural Database, then it will include bibliographic, chemical, 
# crystal, experimental, refinement or atomic coordinate data resulting 
# from the CCDC's data processing and validation procedures.
#
#######################################################################

data_WABJOZ01
_symmetry_cell_setting           monoclinic
_symmetry_space_group_name_H-M   'P 21/n'
_symmetry_Int_Tables_number      14
_space_group_name_Hall           '-P 2yn'
loop_
_symmetry_equiv_pos_site_id
_symmetry_equiv_pos_as_xyz
1 x,y,z
2 1/2+x,1/2-y,1/2+z
3 -x,-y,-z
4 1/2-x,1/2+y,1/2-z
_cell_length_a                   7.4350(15)
_cell_length_b                   15.620(3)
_cell_length_c                   15.363(3)
_cell_angle_alpha                90
_cell_angle_beta                 93.45(3)
_cell_angle_gamma                90
_cell_volume                     1780.94
loop_
_atom_site_label
_atom_site_type_symbol
_atom_site_fract_x
_atom_site_fract_y
_atom_site_fract_z
Fe1 Fe 0.02411(4) -0.39702(2) 0.20783(2)
Co1 Co 0.5000 -0.5000 0.0000
O1 O 0.4977(3) -0.60249(15) 0.08746(15)
N1 N -0.0003(3) -0.51504(12) 0.25558(12)
C1 C 0.2426(3) -0.37892(15) 0.28248(15)
N2 N -0.1133(2) -0.36690(12) 0.31129(12)
C2 C 0.1789(3) -0.42756(16) 0.11669(15)
C3 C 0.0289(3) -0.28145(18) 0.16632(16)
C4 C -0.2382(4) -0.2786(2) 0.41933(18)
C5 C -0.1442(3) -0.43600(16) 0.36239(14)
C6 C -0.0836(3) -0.51650(15) 0.33238(15)
N3 N 0.2817(3) -0.44546(14) 0.06652(13)
C7 C -0.1904(3) -0.41922(16) 0.13148(15)
C8 C -0.2266(3) -0.42960(18) 0.44196(16)
C9 C 0.0528(3) -0.58970(17) 0.22337(19)
C10 C 0.0279(4) -0.66658(19) 0.2670(2)
C11 C -0.1113(3) -0.59123(17) 0.37971(17)
N4 N 0.0233(3) -0.21148(16) 0.14381(16)
C12 C -0.1600(3) -0.28978(18) 0.33927(17)
C13 C -0.2523(4) -0.5076(2) 0.48935(18)
N5 N 0.3665(3) -0.36875(16) 0.32892(15)
C14 C -0.0523(4) -0.66852(18) 0.3453(2)
C15 C -0.1985(4) -0.5831(2) 0.46051(19)
C16 C -0.2721(3) -0.3477(2) 0.46954(17)
N6 N 1.3111(3) -0.56278(14) -0.08568(13)
H2 H 0.113(3) -0.5870(16) 0.1677(18)
H3 H -0.334(3) -0.3423(16) 0.5298(17)
H4 H 0.495(4) -0.588(2) 0.136(2)
H5 H -0.138(3) -0.2416(16) 0.3034(16)
H6 H -0.301(4) -0.5029(18) 0.5485(19)
H7 H -0.211(4) -0.633(2) 0.490(2)
H8 H -0.267(4) -0.2220(18) 0.4343(17)
H9 H 0.067(4) -0.713(2) 0.2414(19)
H10 H 0.422(4) -0.635(2) 0.079(2)
H12 H -0.046(2) -0.7505(11) 0.3793(11)
O1B O 0.5023(3) -0.39751(15) -0.08746(15)
H4B H 0.505(4) -0.412(2) -0.136(2)
H10B H 0.578(4) -0.365(2) -0.079(2)
C2B C 0.8211(3) -0.57244(16) -0.11669(15)
N3B N 0.7183(3) -0.55454(14) -0.06652(13)
N6_2 N 0.3111(3) -0.56278(14) -0.08568(13)
Fe1B Fe 0.97589(4) -0.60298(2) -0.20783(2)
N1B N 1.0003(3) -0.48496(12) -0.25558(12)
N2B N 1.1133(2) -0.63310(12) -0.31129(12)
C4B C 1.2382(4) -0.7214(2) -0.41933(18)
C5B C 1.1442(3) -0.56400(16) -0.36239(14)
C6B C 1.0836(3) -0.48350(15) -0.33238(15)
C8B C 1.2266(3) -0.57040(18) -0.44196(16)
C9B C 0.9472(3) -0.41030(17) -0.22337(19)
C10B C 0.9721(4) -0.33342(19) -0.2670(2)
C11B C 1.1113(3) -0.40877(17) -0.37971(17)
C12B C 1.1600(3) -0.71022(18) -0.33927(17)
C13B C 1.2523(4) -0.4924(2) -0.48935(18)
C14B C 1.0523(4) -0.33148(18) -0.3453(2)
C15B C 1.1985(4) -0.4169(2) -0.46051(19)
C16B C 1.2721(3) -0.6523(2) -0.46954(17)
H2B H 0.887(3) -0.4130(16) -0.1677(18)
H3B H 1.334(3) -0.6577(16) -0.5298(17)
H5B H 1.138(3) -0.7584(16) -0.3034(16)
H6B H 1.301(4) -0.4971(18) -0.5485(19)
H7B H 1.211(4) -0.367(2) -0.490(2)
H8B H 1.267(4) -0.7780(18) -0.4343(17)
H9B H 0.933(4) -0.287(2) -0.2414(19)
H12B H 1.046(2) -0.2495(11) -0.3793(11)
C1B C 0.7574(3) -0.62108(15) -0.28248(15)
N5B N 0.6335(3) -0.63125(16) -0.32892(15)
C3B C 0.9711(3) -0.71855(18) -0.16632(16)
N4B N 0.9767(3) -0.78852(16) -0.14381(16)
C7B C 1.1904(3) -0.58078(16) -0.13148(15)
N6B N 0.6889(3) -0.43722(14) 0.08568(13)
N6B_2 N -0.3111(3) -0.43722(14) 0.08568(13)
Co1_2 Co -0.5000 -0.5000 0.0000
Co1_3 Co 1.5000 -0.5000 0.0000
O2 O 0.5061(4) -0.5547(2) 0.25781(16)
H1 H 0.484(6) -0.514(3) 0.279(3)
H14 H 0.485(5) -0.590(3) 0.290(3)
O3 O 0.1965(4) -0.7116(2) 0.0572(2)
H11 H 0.135(7) -0.699(4) 0.021(3)
H13 H 0.170(6) -0.753(3) 0.082(3)
loop_
_geom_bond_atom_site_label_1
_geom_bond_atom_site_label_2
_geom_bond_site_symmetry_1
_geom_bond_site_symmetry_2
Fe1 N1 1_555 1_555
Co1 O1 1_555 1_555
O1 H4 1_555 1_555
N1 C6 1_555 1_555
C1 Fe1 1_555 1_555
N2 Fe1 1_555 1_555
C2 Fe1 1_555 1_555
C3 Fe1 1_555 1_555
C4 C12 1_555 1_555
C5 N2 1_555 1_555
C6 C5 1_555 1_555
N3 Co1 1_555 1_555
C7 Fe1 1_555 1_555
C8 C5 1_555 1_555
C9 N1 1_555 1_555
C10 C9 1_555 1_555
C11 C6 1_555 1_555
N4 C3 1_555 1_555
C12 N2 1_555 1_555
C13 C8 1_555 1_555
N5 C1 1_555 1_555
C14 C10 1_555 1_555
C15 C11 1_555 1_555
C16 C4 1_555 1_555
O2 H1 1_555 1_555
O3 H11 1_555 1_555
N6 C7B 1_555 1_555
H2 C9 1_555 1_555
H3 C16 1_555 1_555
H5 C12 1_555 1_555
H6 C13 1_555 1_555
H7 C15 1_555 1_555
H8 C4 1_555 1_555
H9 C10 1_555 1_555
H10 O1 1_555 1_555
H12 C14 1_555 1_555
H13 O3 1_555 1_555
H14 O2 1_555 1_555
O1B Co1 1_555 1_555
H4B O1B 1_555 1_555
H10B O1B 1_555 1_555
C2B N3B 1_555 1_555
N3B Co1 1_555 1_555
N6_2 Co1 1_555 1_555
Fe1B C2B 1_555 1_555
N1B Fe1B 1_555 1_555
N2B Fe1B 1_555 1_555
C4B C12B 1_555 1_555
C5B N2B 1_555 1_555
C6B N1B 1_555 1_555
C8B C5B 1_555 1_555
C9B N1B 1_555 1_555
C10B C9B 1_555 1_555
C11B C6B 1_555 1_555
C12B N2B 1_555 1_555
C13B C8B 1_555 1_555
C14B C10B 1_555 1_555
C15B C11B 1_555 1_555
C16B C4B 1_555 1_555
H2B C9B 1_555 1_555
H3B C16B 1_555 1_555
H5B C12B 1_555 1_555
H6B C13B 1_555 1_555
H7B C15B 1_555 1_555
H8B C4B 1_555 1_555
H9B C10B 1_555 1_555
H12B C14B 1_555 1_555
C1B Fe1B 1_555 1_555
N5B C1B 1_555 1_555
C3B Fe1B 1_555 1_555
N4B C3B 1_555 1_555
C7B Fe1B 1_555 1_555
N6B Co1 1_555 1_555
N6B_2 C7 1_555 1_555
Co1_2 N6B_2 1_555 1_555
Co1_3 N6 1_555 1_555
C2 N3 1_555 1_555
C8 C16 1_555 1_555
C11 C14 1_555 1_555
C13 C15 1_555 1_555
C5B C6B 1_555 1_555
C8B C16B 1_555 1_555
C11B C14B 1_555 1_555
C13B C15B 1_555 1_555

#END
