
#######################################################################
#
#                 Cambridge Crystallographic Data Centre
#                                CCDC 
#
#######################################################################
#
# If this CIF has been generated from an entry in the Cambridge 
# Structural Database, then it will include bibliographic, chemical, 
# crystal, experimental, refinement or atomic coordinate data resulting 
# from the CCDC's data processing and validation procedures.
#
#######################################################################

data_WABJIU
_symmetry_cell_setting           triclinic
_symmetry_space_group_name_H-M   'P -1'
_symmetry_Int_Tables_number      2
_space_group_name_Hall           '-P 1'
loop_
_symmetry_equiv_pos_site_id
_symmetry_equiv_pos_as_xyz
1 x,y,z
2 -x,-y,-z
_cell_length_a                   8.1151(3)
_cell_length_b                   9.8048(4)
_cell_length_c                   13.2396(5)
_cell_angle_alpha                92.120(2)
_cell_angle_beta                 90.829(2)
_cell_angle_gamma                112.550(2)
_cell_volume                     971.76
loop_
_atom_site_label
_atom_site_type_symbol
_atom_site_fract_x
_atom_site_fract_y
_atom_site_fract_z
Ce1 Ce 0.208699(13) -0.089222(12) 0.466072(8)
N1 N 0.0546(3) -0.3859(2) 0.33905(16)
O1 O 0.2726(2) -0.28503(19) 0.56174(16)
H1 H 0.379(2) -0.277(3) 0.573(2)
H2 H 0.214(3) -0.364(2) 0.587(2)
O2 O 0.7474(3) 0.5608(2) 0.07849(16)
H3 H 0.7371 0.4920 0.0384
O3 O 0.3683(2) 0.18203(18) 0.42823(15)
O4 O 0.0678(2) -0.0555(2) 0.30083(12)
H4 H -0.019(3) -0.031(3) 0.304(2)
H5 H 0.055(4) -0.101(3) 0.2447(16)
O5 O 0.09817(19) 0.14048(17) 0.47414(12)
O6 O 0.0288(3) -0.1882(3) 1.10768(14)
H6 H -0.0557 -0.2660 1.0935
O7 O 0.4853(2) 0.03842(17) 0.59596(11)
O8 O 0.2196(2) -0.0107(2) 0.65299(12)
O9 O -0.0071(3) -0.4974(2) 0.2852(2)
O10 O -0.0245(2) -0.3651(2) 0.41577(15)
O11 O 0.2019(2) -0.28460(19) 0.32163(14)
C1 C 0.6258(3) 0.5107(3) 0.1536(2)
C2 C 0.6439(4) 0.6015(3) 0.2378(2)
H7 H 0.7371 0.6938 0.2434
C3 C 0.5227(3) 0.5555(3) 0.3150(2)
H8 H 0.5352 0.6178 0.3719
C4 C 0.3841(3) 0.4185(3) 0.3082(2)
C5 C 0.3692(5) 0.3305(3) 0.2238(3)
H9 H 0.2763 0.2381 0.2182
C6 C 0.4886(4) 0.3746(3) 0.1456(2)
H10 H 0.4754 0.3125 0.0886
C7 C 0.2519(4) 0.3655(3) 0.3915(2)
H11 H 0.2849 0.4411 0.4457
H12 H 0.1347 0.3536 0.3652
C8 C 0.2399(3) 0.2229(2) 0.43422(17)
C9 C 0.1213(3) -0.1356(3) 1.02159(19)
C10 C 0.2361(4) 0.0088(3) 1.0244(2)
H13 H 0.2437 0.0702 1.0810
C11 C 0.3413(4) 0.0630(3) 0.9425(2)
H14 H 0.4198 0.1616 0.9448
C12 C 0.3332(3) -0.0242(3) 0.85785(18)
C13 C 0.2135(4) -0.1682(3) 0.8556(2)
H15 H 0.2035 -0.2289 0.7983
C14 C 0.1074(4) -0.2248(3) 0.9369(2)
H16 H 0.0271 -0.3227 0.9342
C15 C 0.4615(3) 0.0341(4) 0.77382(19)
H17 H 0.5323 0.1378 0.7900
H18 H 0.5426 -0.0173 0.7732
C16 C 0.3832(3) 0.0212(2) 0.66965(16)
Ce1A Ce -0.208699(13) 0.089222(12) 0.533928(8)
Ce1A_2 Ce 0.791301(13) 0.089222(12) 0.533928(8)
O5A O -0.09817(19) -0.14048(17) 0.52586(12)
O7A O 0.5147(2) -0.03842(17) 0.40404(11)
O12 O 0.7347(4) 0.4032(3) -0.09596(17)
H19 H 0.801(5) 0.363(4) -0.120(3)
H20 H 0.721(6) 0.448(4) -0.144(2)
loop_
_geom_bond_atom_site_label_1
_geom_bond_atom_site_label_2
_geom_bond_site_symmetry_1
_geom_bond_site_symmetry_2
Ce1 O1 1_555 1_555
N1 O9 1_555 1_555
O1 H1 1_555 1_555
H2 O1 1_555 1_555
O2 H3 1_555 1_555
O3 Ce1 1_555 1_555
O4 Ce1 1_555 1_555
H4 O4 1_555 1_555
H5 O4 1_555 1_555
O5 Ce1 1_555 1_555
O6 H6 1_555 1_555
O7 Ce1 1_555 1_555
O8 Ce1 1_555 1_555
O10 Ce1 1_555 1_555
O11 Ce1 1_555 1_555
C1 O2 1_555 1_555
C2 C1 1_555 1_555
H7 C2 1_555 1_555
C3 C2 1_555 1_555
H8 C3 1_555 1_555
C4 C3 1_555 1_555
C5 C4 1_555 1_555
H9 C5 1_555 1_555
C6 C1 1_555 1_555
H10 C6 1_555 1_555
C7 C4 1_555 1_555
H11 C7 1_555 1_555
H12 C7 1_555 1_555
C8 O3 1_555 1_555
C9 O6 1_555 1_555
C10 C9 1_555 1_555
H13 C10 1_555 1_555
C11 C10 1_555 1_555
H14 C11 1_555 1_555
C12 C11 1_555 1_555
C13 C12 1_555 1_555
H15 C13 1_555 1_555
C14 C9 1_555 1_555
H16 C14 1_555 1_555
C15 C12 1_555 1_555
H17 C15 1_555 1_555
H18 C15 1_555 1_555
C16 O7 1_555 1_555
O12 H19 1_555 1_555
H20 O12 1_555 1_555
Ce1A O5 1_555 1_555
Ce1A_2 O7 1_555 1_555
O5A Ce1 1_555 1_555
O7A Ce1 1_555 1_555
N1 O10 1_555 1_555
N1 O11 1_555 1_555
O5 C8 1_555 1_555
O8 C16 1_555 1_555
C5 C6 1_555 1_555
C7 C8 1_555 1_555
C13 C14 1_555 1_555
C15 C16 1_555 1_555
Ce1A O5A 1_555 1_555
Ce1A_2 O7A 1_555 1_555

#END
