
#######################################################################
#
#                 Cambridge Crystallographic Data Centre
#                                CCDC 
#
#######################################################################
#
# If this CIF has been generated from an entry in the Cambridge 
# Structural Database, then it will include bibliographic, chemical, 
# crystal, experimental, refinement or atomic coordinate data resulting 
# from the CCDC's data processing and validation procedures.
#
#######################################################################

data_WABLAO
_symmetry_cell_setting           triclinic
_symmetry_space_group_name_H-M   'P -1'
_symmetry_Int_Tables_number      2
_space_group_name_Hall           '-P 1'
loop_
_symmetry_equiv_pos_site_id
_symmetry_equiv_pos_as_xyz
1 x,y,z
2 -x,-y,-z
_cell_length_a                   9.0512(5)
_cell_length_b                   10.6827(6)
_cell_length_c                   12.8945(8)
_cell_angle_alpha                92.955(1)
_cell_angle_beta                 97.054(1)
_cell_angle_gamma                108.612(1)
_cell_volume                     1167.17
loop_
_atom_site_label
_atom_site_type_symbol
_atom_site_fract_x
_atom_site_fract_y
_atom_site_fract_z
Er1 Er -0.09070(2) 0.049642(19) 0.366467(14)
Er2 Er -0.37193(2) 0.088827(18) -0.105666(14)
Co1 Co 0.34879(7) 0.28628(6) 0.27282(4)
S1 S -0.22681(13) -0.07707(11) 0.09734(8)
S2 S -0.07687(14) -0.27513(11) 0.40191(9)
C1 C 0.4802(5) 0.0827(4) 0.6454(3)
C2 C 0.5054(5) 0.1537(4) 0.5507(3)
C3 C 0.6350(6) 0.2989(5) 0.4510(4)
H1 H 0.7175 0.3621 0.4271
C4 C 0.4062(5) 0.1634(4) 0.4630(3)
C5 C 0.2387(5) 0.1004(4) 0.4232(3)
C6 C -0.5165(5) -0.1950(4) -0.1209(3)
C7 C -0.5691(6) -0.3402(5) -0.1209(4)
C8 C -0.5776(6) -0.5343(5) -0.1817(4)
H2 H -0.5609 -0.6028 -0.2209
C9 C -0.6679(6) -0.4298(4) -0.0658(4)
C10 C -0.7520(6) -0.4192(5) 0.0250(4)
N1 N 0.6495(5) 0.2411(4) 0.5397(3)
N2 N 0.4904(5) 0.2554(4) 0.4025(3)
N3 N -0.5133(5) -0.4078(4) -0.1927(3)
N4 N -0.6703(5) -0.5521(4) -0.1067(3)
O1 O -0.2200(4) 0.0083(3) 0.0104(2)
O2 O -0.3866(4) -0.1266(3) 0.1256(3)
O3 O -0.1750(4) -0.1884(3) 0.0667(3)
O4 O -0.1162(4) 0.0023(3) 0.1883(2)
O5 O -0.1393(4) -0.1746(3) 0.3560(2)
O6 O -0.1995(5) -0.4018(4) 0.3964(3)
O7 O -0.0089(4) -0.2307(3) 0.5147(2)
O8 O 0.0526(4) -0.2828(4) 0.3446(3)
O9 O 0.1450(4) 0.0157(3) 0.4693(2)
O10 O 0.1848(4) 0.1367(3) 0.3383(2)
O11 O 0.3504(4) -0.0057(3) 0.6478(2)
O12 O 0.5935(4) 0.1177(3) 0.7192(2)
O13 O -0.4190(4) -0.1442(3) -0.1823(2)
O14 O -0.5640(4) -0.1192(3) -0.0648(2)
O15 O -0.7324(5) -0.3048(3) 0.0682(3)
O16 O -0.8340(5) -0.5232(3) 0.0549(3)
H3 H -0.726(7) -0.631(3) -0.097(5)
H4 H 0.739(4) 0.250(6) 0.576(5)
O17 O -0.1359(4) 0.1275(4) -0.1711(3)
H5 H -0.120(7) 0.159(6) -0.227(3)
H6 H -0.050(4) 0.140(6) -0.135(4)
O18 O 0.1566(5) 0.2533(4) 0.1512(3)
H7 H 0.164(8) 0.320(4) 0.122(4)
H8 H 0.121(7) 0.182(3) 0.118(4)
O19 O 0.2893(6) 0.4288(4) 0.3606(3)
H9 H 0.226(7) 0.456(7) 0.326(5)
H10 H 0.290(9) 0.416(7) 0.422(2)
O20 O -0.1271(5) 0.2319(4) 0.2783(3)
H11 H -0.072(7) 0.310(3) 0.286(5)
H12 H -0.106(8) 0.223(7) 0.220(3)
Er1A Er 0.09070(2) -0.049642(19) 0.633533(14)
Er2A Er -0.62807(2) -0.088827(18) 0.105666(14)
Er2_2 Er 0.62807(2) 0.088827(18) 0.894334(14)
Co1A Co -0.34879(7) -0.28628(6) -0.27282(4)
N3A N 0.5133(5) 0.4078(4) 0.1927(3)
O2A O -0.6134(4) 0.1266(3) -0.1256(3)
O7A O 0.0089(4) 0.2307(3) 0.4853(2)
O9A O -0.1450(4) -0.0157(3) 0.5307(2)
O11A O -0.3504(4) 0.0057(3) 0.3522(2)
O12_2 O -0.4065(4) 0.1177(3) -0.2808(2)
O13A O 0.4190(4) 0.1442(3) 0.1823(2)
O14A O -0.4360(4) 0.1192(3) 0.0648(2)
O15A O -0.2676(5) 0.3048(3) -0.0682(3)
O21 O 0.0527(6) 0.4842(4) 0.2458(3)
H13 H 0.044(9) 0.557(4) 0.269(5)
H14 H 0.079(9) 0.499(7) 0.185(3)
loop_
_geom_bond_atom_site_label_1
_geom_bond_atom_site_label_2
_geom_bond_site_symmetry_1
_geom_bond_site_symmetry_2
Er1 O4 1_555 1_555
Er2 O1 1_555 1_555
Co1 N2 1_555 1_555
S1 O1 1_555 1_555
S2 O5 1_555 1_555
C1 C2 1_555 1_555
C2 C4 1_555 1_555
C3 H1 1_555 1_555
C4 C5 1_555 1_555
C5 O9 1_555 1_555
C6 C7 1_555 1_555
C7 C9 1_555 1_555
C8 H2 1_555 1_555
C9 C10 1_555 1_555
C10 O15 1_555 1_555
N1 C2 1_555 1_555
N2 C3 1_555 1_555
N3 C7 1_555 1_555
N4 C8 1_555 1_555
O2 S1 1_555 1_555
O3 S1 1_555 1_555
O4 S1 1_555 1_555
O5 Er1 1_555 1_555
O6 S2 1_555 1_555
O7 S2 1_555 1_555
O8 S2 1_555 1_555
O9 Er1 1_555 1_555
O10 Er1 1_555 1_555
O11 C1 1_555 1_555
O12 C1 1_555 1_555
O13 Er2 1_555 1_555
O14 Er2 1_555 1_555
O15 Er2A 1_555 1_555
O16 C10 1_555 1_555
H3 N4 1_555 1_555
H4 N1 1_555 1_555
O17 Er2 1_555 1_555
H5 O17 1_555 1_555
H6 O17 1_555 1_555
O18 Co1 1_555 1_555
H7 O18 1_555 1_555
H8 O18 1_555 1_555
O19 Co1 1_555 1_555
H9 O19 1_555 1_555
H10 O19 1_555 1_555
O20 Er1 1_555 1_555
H11 O20 1_555 1_555
H12 O20 1_555 1_555
O21 H13 1_555 1_555
H14 O21 1_555 1_555
Er1A O7 1_555 1_555
Er2A O2 1_555 1_555
Er2_2 O12 1_555 1_555
Co1A N3 1_555 1_555
N3A Co1 1_555 1_555
O2A Er2 1_555 1_555
O7A Er1 1_555 1_555
O9A Er1 1_555 1_555
O11A Er1 1_555 1_555
O12_2 Er2 1_555 1_555
O13A Co1 1_555 1_555
O14A Er2 1_555 1_555
O15A Er2 1_555 1_555
Co1 O10 1_555 1_555
C3 N1 1_555 1_555
C4 N2 1_555 1_555
C5 O10 1_555 1_555
C6 O13 1_555 1_555
C6 O14 1_555 1_555
C8 N3 1_555 1_555
C9 N4 1_555 1_555
O9 Er1A 1_555 1_555
O11 Er1A 1_555 1_555
O13 Co1A 1_555 1_555
O14 Er2A 1_555 1_555
Er1A O9A 1_555 1_555
Er2A O14A 1_555 1_555

#END
