
#######################################################################
#
#                 Cambridge Crystallographic Data Centre
#                                CCDC 
#
#######################################################################
#
# If this CIF has been generated from an entry in the Cambridge 
# Structural Database, then it will include bibliographic, chemical, 
# crystal, experimental, refinement or atomic coordinate data resulting 
# from the CCDC's data processing and validation procedures.
#
#######################################################################

data_WABPEW
_symmetry_cell_setting           orthorhombic
_symmetry_space_group_name_H-M   'P b c n'
_symmetry_Int_Tables_number      60
_space_group_name_Hall           '-P 2n 2ab'
loop_
_symmetry_equiv_pos_site_id
_symmetry_equiv_pos_as_xyz
1 x,y,z
2 1/2-x,1/2-y,1/2+z
3 -x,y,1/2-z
4 1/2+x,1/2-y,-z
5 -x,-y,-z
6 1/2+x,1/2+y,1/2-z
7 x,-y,1/2+z
8 1/2-x,1/2+y,z
_cell_length_a                   13.078(3)
_cell_length_b                   16.348(3)
_cell_length_c                   11.354(2)
_cell_angle_alpha                90
_cell_angle_beta                 90
_cell_angle_gamma                90
_cell_volume                     2427.48
loop_
_atom_site_label
_atom_site_type_symbol
_atom_site_fract_x
_atom_site_fract_y
_atom_site_fract_z
Co1 Co 0.0000 0.40968(2) 0.2500
O1 O 0.08394(11) 0.37040(10) 0.39033(14)
C1 C 0.45996(14) 0.51680(12) -0.20359(17)
C2 C 0.44299(15) 0.44856(12) -0.13277(18)
H1 H 0.4800 0.4009 -0.1461
C3 C 0.23045(15) 0.58691(12) 0.15147(17)
C4 C 0.11760(15) 0.61095(13) 0.31741(17)
H2 H 0.0633 0.5956 0.3655
N1 N 0.24267(12) 0.52419(10) 0.06971(14)
N2 N 0.11225(12) 0.48650(10) 0.18429(14)
C5 C 0.40024(15) 0.58655(13) -0.18495(18)
H3 H 0.4096 0.6322 -0.2327
C6 C 0.37154(15) 0.45080(12) -0.04256(18)
H4 H 0.3618 0.4054 0.0055
C7 C 0.31481(14) 0.52118(12) -0.02460(17)
C8 C 0.32729(15) 0.58878(12) -0.09655(18)
H5 H 0.2872 0.6351 -0.0857
C9 C 0.02557(15) 0.31459(12) 0.42490(18)
O2 O -0.06065(12) 0.30382(10) 0.38106(15)
C10 C 0.17056(15) 0.68295(13) 0.33635(18)
H6 H 0.1517 0.7165 0.3989
C11 C 0.17101(15) 0.46685(12) 0.09472(17)
H7 H 0.1641 0.4184 0.0526
C12 C 0.06315(17) 0.25921(14) 0.5229(2)
H8 H 0.0636 0.2889 0.5958
H9 H 0.1312 0.2408 0.5052
H10 H 0.0185 0.2128 0.5297
C13 C 0.14891(15) 0.56223(12) 0.22333(17)
C14 C 0.28339(15) 0.65947(12) 0.16999(17)
H11 H 0.3372 0.6753 0.1216
C15 C 0.25205(16) 0.70673(13) 0.26368(18)
H12 H 0.2858 0.7557 0.2792
Co1_2 Co 1.0000 0.40968(2) -0.7500
O1B O -0.08394(11) 0.37040(10) 0.10967(14)
C1B C 0.54004(14) 0.51680(12) -0.29641(17)
C2B C 0.55701(15) 0.44856(12) -0.36723(18)
H1B H 0.5200 0.4009 -0.3539
C3B C 0.76955(15) 0.58691(12) -0.65147(17)
C4B C 0.88240(15) 0.61095(13) -0.81741(17)
H2B H 0.9367 0.5956 -0.8655
N1B N 0.75733(12) 0.52419(10) -0.56971(14)
N2B N 0.88775(12) 0.48650(10) -0.68429(14)
N2B_2 N -0.11225(12) 0.48650(10) 0.31571(14)
C5B C 0.59976(15) 0.58655(13) -0.31505(18)
H3B H 0.5904 0.6322 -0.2673
C6B C 0.62846(15) 0.45080(12) -0.45744(18)
H4B H 0.6382 0.4054 -0.5055
C7B C 0.68519(14) 0.52118(12) -0.47540(17)
C8B C 0.67271(15) 0.58878(12) -0.40345(18)
H5B H 0.7128 0.6351 -0.4143
C9B C -0.02557(15) 0.31459(12) 0.07510(18)
O2B O 0.06065(12) 0.30382(10) 0.11894(15)
C10B C 0.82944(15) 0.68295(13) -0.83635(18)
H6B H 0.8483 0.7165 -0.8989
C11B C 0.82899(15) 0.46685(12) -0.59472(17)
H7B H 0.8359 0.4184 -0.5526
C12B C -0.06315(17) 0.25921(14) -0.0229(2)
H8B H -0.0636 0.2889 -0.0958
H9B H -0.1312 0.2408 -0.0052
H10B H -0.0185 0.2128 -0.0297
C13B C 0.85109(15) 0.56223(12) -0.72333(17)
C14B C 0.71661(15) 0.65947(12) -0.66999(17)
H11B H 0.6628 0.6753 -0.6216
C15B C 0.74795(16) 0.70673(13) -0.76368(18)
H12B H 0.7142 0.7557 -0.7792
loop_
_geom_bond_atom_site_label_1
_geom_bond_atom_site_label_2
_geom_bond_site_symmetry_1
_geom_bond_site_symmetry_2
Co1 O1 1_555 1_555
O1 C9 1_555 1_555
C1 C2 1_555 1_555
C2 H1 1_555 1_555
C3 N1 1_555 1_555
C4 H2 1_555 1_555
N1 C7 1_555 1_555
N2 Co1 1_555 1_555
C5 C1 1_555 1_555
H3 C5 1_555 1_555
C6 C2 1_555 1_555
H4 C6 1_555 1_555
C7 C6 1_555 1_555
C8 C5 1_555 1_555
H5 C8 1_555 1_555
C9 O2 1_555 1_555
O2 Co1 1_555 1_555
C10 C4 1_555 1_555
H6 C10 1_555 1_555
C11 N1 1_555 1_555
H7 C11 1_555 1_555
C12 C9 1_555 1_555
H8 C12 1_555 1_555
H9 C12 1_555 1_555
H10 C12 1_555 1_555
C13 C3 1_555 1_555
C14 C3 1_555 1_555
H11 C14 1_555 1_555
C15 C10 1_555 1_555
H12 C15 1_555 1_555
Co1_2 N2B 1_555 1_555
O1B Co1 1_555 1_555
C1B C1 1_555 1_555
C2B C1B 1_555 1_555
H1B C2B 1_555 1_555
C3B N1B 1_555 1_555
C4B H2B 1_555 1_555
N1B C7B 1_555 1_555
N2B C11B 1_555 1_555
N2B_2 Co1 1_555 1_555
C5B C1B 1_555 1_555
H3B C5B 1_555 1_555
C6B C2B 1_555 1_555
H4B C6B 1_555 1_555
C7B C6B 1_555 1_555
C8B C5B 1_555 1_555
H5B C8B 1_555 1_555
C9B O1B 1_555 1_555
O2B Co1 1_555 1_555
C10B C4B 1_555 1_555
H6B C10B 1_555 1_555
C11B N1B 1_555 1_555
H7B C11B 1_555 1_555
C12B C9B 1_555 1_555
H8B C12B 1_555 1_555
H9B C12B 1_555 1_555
H10B C12B 1_555 1_555
C13B C3B 1_555 1_555
C14B C3B 1_555 1_555
H11B C14B 1_555 1_555
C15B C10B 1_555 1_555
H12B C15B 1_555 1_555
C4 C13 1_555 1_555
N2 C11 1_555 1_555
N2 C13 1_555 1_555
C7 C8 1_555 1_555
C14 C15 1_555 1_555
C4B C13B 1_555 1_555
N2B C13B 1_555 1_555
C7B C8B 1_555 1_555
C9B O2B 1_555 1_555
C14B C15B 1_555 1_555

#END
