
#######################################################################
#
#                 Cambridge Crystallographic Data Centre
#                                CCDC 
#
#######################################################################
#
# If this CIF has been generated from an entry in the Cambridge 
# Structural Database, then it will include bibliographic, chemical, 
# crystal, experimental, refinement or atomic coordinate data resulting 
# from the CCDC's data processing and validation procedures.
#
#######################################################################

data_WABSUP
_symmetry_cell_setting           monoclinic
_symmetry_space_group_name_H-M   'P 2/n'
_symmetry_Int_Tables_number      13
_space_group_name_Hall           '-P 2yac'
loop_
_symmetry_equiv_pos_site_id
_symmetry_equiv_pos_as_xyz
1 x,y,z
2 1/2-x,y,1/2-z
3 -x,-y,-z
4 1/2+x,-y,1/2+z
_cell_length_a                   9.4060(19)
_cell_length_b                   7.0110(14)
_cell_length_c                   19.493(4)
_cell_angle_alpha                90
_cell_angle_beta                 92.58(3)
_cell_angle_gamma                90
_cell_volume                     1284.17
loop_
_atom_site_label
_atom_site_type_symbol
_atom_site_fract_x
_atom_site_fract_y
_atom_site_fract_z
Co1 Co 0.2500 0.17828(7) 0.2500
K1 K 0.42443(6) 0.23207(9) 0.44538(3)
C1 C 0.0167(3) 0.3045(3) 0.56951(13)
C2 C -0.1309(3) 0.2706(3) 0.58237(13)
O1 O -0.18964(19) 0.3004(2) 0.63736(9)
C3 C -0.2022(3) 0.1925(3) 0.51963(13)
O2 O -0.32681(18) 0.1369(3) 0.51461(9)
C4 C -0.0990(2) 0.1952(3) 0.46673(13)
C5 C 0.0376(3) 0.2594(3) 0.49667(13)
O3 O 0.14928(18) 0.2729(3) 0.46684(9)
C6 C 0.1215(3) 0.3657(3) 0.61569(13)
C7 C -0.1203(2) 0.1460(3) 0.39800(13)
C8 C 0.2638(3) 0.4102(4) 0.59492(13)
N1 N 0.3752(2) 0.4503(4) 0.57986(12)
C9 C 0.0935(3) 0.3955(4) 0.68581(15)
N2 N 0.0713(3) 0.4206(4) 0.74186(14)
C10 C -0.0119(3) 0.1587(4) 0.35161(13)
N3 N 0.0736(2) 0.1691(3) 0.31124(11)
C11 C -0.2557(3) 0.0854(4) 0.36967(14)
N4 N -0.3609(3) 0.0374(4) 0.34506(13)
O4 O 0.34625(18) 0.3966(3) 0.31272(9)
H1 H 0.2763 0.4939 0.3210
H2 H 0.4233 0.4533 0.2891
O5 O 0.35063(17) -0.0188(3) 0.31486(10)
H3 H 0.4359 -0.0690 0.2954
H4 H 0.2877 -0.1230 0.3255
K1A K 1.07557(6) 0.23207(9) 0.05462(3)
K1B K -0.42443(6) -0.23207(9) 0.55462(3)
K1_2 K -0.57557(6) 0.23207(9) 0.44538(3)
K1B_2 K 0.57557(6) 0.76793(9) 0.55462(3)
K1C K 0.92443(6) -0.23207(9) -0.05462(3)
K1A_2 K 0.07557(6) 0.23207(9) 0.05462(3)
K1C_2 K -0.07557(6) 0.76793(9) -0.05462(3)
C1A C 0.4833(3) 0.3045(3) -0.06951(13)
C2A C 0.6309(3) 0.2706(3) -0.08237(13)
O1A O 0.68964(19) 0.3004(2) -0.13736(9)
C3A C 0.7022(3) 0.1925(3) -0.01963(13)
O2A O 0.82681(18) 0.1369(3) -0.01461(9)
O2_2 O 0.67319(18) 0.1369(3) 0.51461(9)
O2B O 0.32681(18) -0.1369(3) 0.48539(9)
O2A_2 O -0.17319(18) 0.1369(3) -0.01461(9)
O2C O 0.17319(18) -0.1369(3) 0.01461(9)
C4A C 0.5990(2) 0.1952(3) 0.03327(13)
C5A C 0.4624(3) 0.2594(3) 0.00333(13)
O3A O 0.35072(18) 0.2729(3) 0.03316(9)
C6A C 0.3785(3) 0.3657(3) -0.11569(13)
C7A C 0.6203(2) 0.1460(3) 0.10200(13)
C8A C 0.2362(3) 0.4102(4) -0.09492(13)
N1A N 0.1248(2) 0.4503(4) -0.07986(12)
N1B N 0.6248(2) 0.5497(4) 0.42014(12)
N1C N -0.1248(2) 0.5497(4) 0.07986(12)
C9A C 0.4065(3) 0.3955(4) -0.18581(15)
N2A N 0.4287(3) 0.4206(4) -0.24186(14)
C10A C 0.5119(3) 0.1587(4) 0.14839(13)
N3A N 0.4264(2) 0.1691(3) 0.18876(11)
C11A C 0.7557(3) 0.0854(4) 0.13033(14)
N4A N 0.8609(3) 0.0374(4) 0.15494(13)
N4_2 N 0.6391(3) 0.0374(4) 0.34506(13)
N4A_2 N -0.1391(3) 0.0374(4) 0.15494(13)
O4A O 0.15375(18) 0.3966(3) 0.18728(9)
H1A H 0.2237 0.4939 0.1790
H2A H 0.0767 0.4533 0.2109
O5A O 0.14937(17) -0.0188(3) 0.18514(10)
H3A H 0.0641 -0.0690 0.2046
H4A H 0.2123 -0.1230 0.1745
loop_
_geom_bond_atom_site_label_1
_geom_bond_atom_site_label_2
_geom_bond_site_symmetry_1
_geom_bond_site_symmetry_2
Co1 N3 1_555 1_555
K1 O3 1_555 1_555
C1 C2 1_555 1_555
C2 O1 1_555 1_555
C3 C2 1_555 1_555
O2 C3 1_555 1_555
C4 C3 1_555 1_555
C5 C1 1_555 1_555
O3 C5 1_555 1_555
C6 C1 1_555 1_555
C7 C4 1_555 1_555
C8 C6 1_555 1_555
N1 K1 1_555 1_555
C9 C6 1_555 1_555
N2 C9 1_555 1_555
C10 C7 1_555 1_555
N3 C10 1_555 1_555
C11 C7 1_555 1_555
N4 C11 1_555 1_555
O4 Co1 1_555 1_555
H1 O4 1_555 1_555
H2 O4 1_555 1_555
O5 Co1 1_555 1_555
H3 O5 1_555 1_555
H4 O5 1_555 1_555
K1A O2A 1_555 1_555
K1B O2 1_555 1_555
K1_2 O2 1_555 1_555
K1B_2 N1 1_555 1_555
K1C O2A 1_555 1_555
K1A_2 O2A_2 1_555 1_555
K1C_2 N1A 1_555 1_555
C1A C2A 1_555 1_555
C2A O1A 1_555 1_555
C3A C2A 1_555 1_555
O2A C3A 1_555 1_555
O2_2 K1 1_555 1_555
O2B K1 1_555 1_555
O2C K1A_2 1_555 1_555
C4A C3A 1_555 1_555
C5A C1A 1_555 1_555
O3A K1A_2 1_555 1_555
C6A C1A 1_555 1_555
C7A C4A 1_555 1_555
C8A C6A 1_555 1_555
N1A K1A_2 1_555 1_555
N1B K1 1_555 1_555
N1C K1A_2 1_555 1_555
C9A C6A 1_555 1_555
N2A C9A 1_555 1_555
C10A C7A 1_555 1_555
N3A Co1 1_555 1_555
C11A C7A 1_555 1_555
N4A K1A 1_555 1_555
N4_2 K1 1_555 1_555
N4A_2 K1A_2 1_555 1_555
O4A Co1 1_555 1_555
H1A O4A 1_555 1_555
H2A O4A 1_555 1_555
O5A Co1 1_555 1_555
H3A O5A 1_555 1_555
H4A O5A 1_555 1_555
K1 O4 1_555 1_555
K1 O5 1_555 1_555
C4 C5 1_555 1_555
C8 N1 1_555 1_555
N4 K1_2 1_555 1_555
K1B_2 N1B 1_555 1_555
K1A_2 O4A 1_555 1_555
K1A_2 O5A 1_555 1_555
K1C_2 N1C 1_555 1_555
C4A C5A 1_555 1_555
C5A O3A 1_555 1_555
C8A N1A 1_555 1_555
C10A N3A 1_555 1_555
C11A N4A 1_555 1_555

#END
