
#######################################################################
#
#                 Cambridge Crystallographic Data Centre
#                                CCDC 
#
#######################################################################
#
# If this CIF has been generated from an entry in the Cambridge 
# Structural Database, then it will include bibliographic, chemical, 
# crystal, experimental, refinement or atomic coordinate data resulting 
# from the CCDC's data processing and validation procedures.
#
#######################################################################

data_WABTOK
_symmetry_cell_setting           monoclinic
_symmetry_space_group_name_H-M   'C 2/c'
_symmetry_Int_Tables_number      15
_space_group_name_Hall           '-C 2yn'
loop_
_symmetry_equiv_pos_site_id
_symmetry_equiv_pos_as_xyz
1 x,y,z
2 -x,y,1/2-z
3 1/2+x,1/2+y,z
4 1/2-x,1/2+y,1/2-z
5 -x,-y,-z
6 x,-y,1/2+z
7 1/2-x,1/2-y,-z
8 1/2+x,1/2-y,1/2+z
_cell_length_a                   15.145(2)
_cell_length_b                   13.8871(18)
_cell_length_c                   11.5943(16)
_cell_angle_alpha                90
_cell_angle_beta                 102.865(2)
_cell_angle_gamma                90
_cell_volume                     2377.3
loop_
_atom_site_label
_atom_site_type_symbol
_atom_site_fract_x
_atom_site_fract_y
_atom_site_fract_z
Cd1 Cd 0.330474(14) 0.189847(18) 0.421324(19)
Cd2 Cd 0.5000 0.27411(3) 0.2500
C1 C 0.3234(2) 0.4003(3) 0.0979(3)
H1 H 0.2736 0.3744 0.1282
H2 H 0.3363 0.3559 0.0391
C2 C 0.3835(3) 0.4763(3) 0.2794(3)
H3 H 0.4365 0.4832 0.3435
H4 H 0.3344 0.4514 0.3121
C3 C 0.4236(2) -0.0363(3) 0.4210(3)
H5 H 0.3812 -0.0333 0.3449
H6 H 0.4074 -0.0909 0.4642
C4 C 0.5171(2) -0.0496(3) 0.4028(3)
H7 H 0.5315 0.0025 0.3543
H8 H 0.5205 -0.1096 0.3613
C5 C 0.2975(3) 0.4971(3) 0.0419(3)
H9 H 0.3468 0.5221 0.0096
H10 H 0.2446 0.4903 -0.0225
C6 C 0.3573(3) 0.5732(3) 0.2228(3)
H11 H 0.3448 0.6178 0.2814
H12 H 0.4070 0.5989 0.1919
Cl1 Cl 0.35989(6) 0.16305(8) 0.20972(8)
Cl2 Cl 0.52322(7) 0.29108(8) 0.03346(8)
Cl3 Cl 0.30007(7) 0.18952(6) 0.63572(8)
O1 O 0.40258(16) 0.41052(19) 0.1933(2)
O2 O 0.41779(16) 0.05092(19) 0.4859(2)
O3 O 0.27808(17) 0.56271(19) 0.1281(2)
Cd1A Cd 0.669526(14) 0.189847(18) 0.078676(19)
Cd1F Cd 0.169526(14) 0.310153(18) 0.578676(19)
Cd1C Cd 0.169526(14) 0.689847(18) 0.078676(19)
Cd1D Cd 0.669526(14) -0.189847(18) 0.578676(19)
Cd1B Cd 0.830474(14) 0.689847(18) 0.421324(19)
Cd1G Cd 0.830474(14) 0.310153(18) -0.078676(19)
C1A C 0.6766(2) 0.4003(3) 0.4021(3)
H1A H 0.7264 0.3744 0.3718
H2A H 0.6637 0.3559 0.4609
C2A C 0.6165(3) 0.4763(3) 0.2206(3)
H3A H 0.5635 0.4832 0.1565
H4A H 0.6656 0.4514 0.1879
C3D C 0.5764(2) 0.0363(3) 0.5790(3)
H5D H 0.6188 0.0333 0.6551
H6D H 0.5926 0.0909 0.5358
C4D C 0.4829(2) 0.0496(3) 0.5972(3)
H7D H 0.4685 -0.0025 0.6457
H8D H 0.4795 0.1096 0.6387
C5A C 0.7025(3) 0.4971(3) 0.4581(3)
H9A H 0.6532 0.5221 0.4904
H10A H 0.7554 0.4903 0.5225
C6A C 0.6427(3) 0.5732(3) 0.2772(3)
H11A H 0.6552 0.6178 0.2186
H12A H 0.5930 0.5989 0.3081
Cl1A Cl 0.64011(6) 0.16305(8) 0.29028(8)
Cl2A Cl 0.47678(7) 0.29108(8) 0.46654(8)
Cl3F Cl 0.19993(7) 0.31048(6) 0.36428(8)
Cl3A Cl 0.69993(7) 0.18952(6) -0.13572(8)
Cl3G Cl 0.80007(7) 0.31048(6) 0.13572(8)
O1A O 0.59742(16) 0.41052(19) 0.3067(2)
O2D O 0.58221(16) -0.05092(19) 0.5141(2)
O2A O 0.58221(16) 0.05092(19) 0.0141(2)
O3A O 0.72192(17) 0.56271(19) 0.3719(2)
O3C O 0.22192(17) 0.06271(19) 0.3719(2)
O3B O 0.77808(17) 0.06271(19) 0.1281(2)
loop_
_geom_bond_atom_site_label_1
_geom_bond_atom_site_label_2
_geom_bond_site_symmetry_1
_geom_bond_site_symmetry_2
Cd1 Cl1 1_555 1_555
Cd2 Cl1 1_555 1_555
C1 H1 1_555 1_555
H2 C1 1_555 1_555
C2 H3 1_555 1_555
H4 C2 1_555 1_555
C3 H5 1_555 1_555
H6 C3 1_555 1_555
C4 C3 1_555 1_555
H7 C4 1_555 1_555
H8 C4 1_555 1_555
C5 C1 1_555 1_555
H9 C5 1_555 1_555
H10 C5 1_555 1_555
C6 C2 1_555 1_555
H11 C6 1_555 1_555
H12 C6 1_555 1_555
Cl2 Cd2 1_555 1_555
Cl3 Cd1 1_555 1_555
O1 Cd2 1_555 1_555
O2 Cd1 1_555 1_555
O3 C5 1_555 1_555
Cd1A Cl2 1_555 1_555
Cd1F Cl3 1_555 1_555
Cd1C O3 1_555 1_555
Cd1D O2D 1_555 1_555
Cd1B O3A 1_555 1_555
Cd1G Cl3A 1_555 1_555
C1A H1A 1_555 1_555
H2A C1A 1_555 1_555
C2A H3A 1_555 1_555
H4A C2A 1_555 1_555
C3D H5D 1_555 1_555
H6D C3D 1_555 1_555
C4D O2 1_555 1_555
H7D C4D 1_555 1_555
H8D C4D 1_555 1_555
C5A C1A 1_555 1_555
H9A C5A 1_555 1_555
H10A C5A 1_555 1_555
C6A C2A 1_555 1_555
H11A C6A 1_555 1_555
H12A C6A 1_555 1_555
Cl1A Cd2 1_555 1_555
Cl2A Cd1 1_555 1_555
Cl3F Cd1 1_555 1_555
Cl3A Cd1A 1_555 1_555
Cl3G Cd1A 1_555 1_555
O1A Cd2 1_555 1_555
O2D C4 1_555 1_555
O2A Cd1A 1_555 1_555
O3A C5A 1_555 1_555
O3C Cd1 1_555 1_555
O3B Cd1A 1_555 1_555
Cd2 Cl2A 1_555 1_555
C1 O1 1_555 1_555
C2 O1 1_555 1_555
C3 O2 1_555 1_555
C6 O3 1_555 1_555
Cd1A Cl1A 1_555 1_555
Cd1F Cl3F 1_555 1_555
Cd1G Cl3G 1_555 1_555
C1A O1A 1_555 1_555
C2A O1A 1_555 1_555
C3D C4D 1_555 1_555
C3D O2D 1_555 1_555
C6A O3A 1_555 1_555

#END
