
#######################################################################
#
#                 Cambridge Crystallographic Data Centre
#                                CCDC 
#
#######################################################################
#
# If this CIF has been generated from an entry in the Cambridge 
# Structural Database, then it will include bibliographic, chemical, 
# crystal, experimental, refinement or atomic coordinate data resulting 
# from the CCDC's data processing and validation procedures.
#
#######################################################################

data_WABVAY
_symmetry_cell_setting           triclinic
_symmetry_space_group_name_H-M   'P -1'
_symmetry_Int_Tables_number      2
_space_group_name_Hall           '-P 1'
loop_
_symmetry_equiv_pos_site_id
_symmetry_equiv_pos_as_xyz
1 x,y,z
2 -x,-y,-z
_cell_length_a                   6.5389(11)
_cell_length_b                   8.5052(14)
_cell_length_c                   15.548(3)
_cell_angle_alpha                84.566(3)
_cell_angle_beta                 86.593(3)
_cell_angle_gamma                83.729(2)
_cell_volume                     854.607
loop_
_atom_site_label
_atom_site_type_symbol
_atom_site_fract_x
_atom_site_fract_y
_atom_site_fract_z
Pb1 Pb 0.31380(3) 0.02444(2) 0.362929(15)
O1 O 0.3180(9) 0.0845(7) 0.5451(4)
O2 O 0.2641(8) -0.0974(7) 0.2180(4)
O3 O 0.0370(9) 0.1789(8) 0.4866(4)
O4 O 0.5402(9) 0.0249(7) 0.2331(4)
O5 O 0.0478(10) 0.1446(10) 0.6257(5)
N1 N 0.1340(9) 0.1372(8) 0.5520(5)
N2 N 0.4378(8) 0.2885(6) 0.3637(4)
N3 N 0.1021(8) 0.2377(6) 0.2836(4)
C1 C 0.6040(10) 0.3077(9) 0.4070(5)
H1 H 0.6739 0.2188 0.4357
C2 C 0.5298(18) -0.2934(13) -0.0021(7)
H2 H 0.4584 -0.3589 -0.0314
C3 C 0.4407(11) -0.0630(9) 0.1930(5)
C4 C 0.8340(17) -0.1765(12) 0.0162(8)
H3 H 0.9697 -0.1615 -0.0009
C5 C -0.0635(12) 0.2054(10) 0.2451(5)
H4 H -0.0986 0.1017 0.2507
C6 C -0.1339(12) 0.4738(10) 0.1900(6)
H5 H -0.2144 0.5531 0.1583
C7 C -0.1831(11) 0.3195(10) 0.1977(6)
H6 H -0.2966 0.2933 0.1709
C8 C 0.5419(13) -0.1335(9) 0.1145(5)
C9 C 0.7274(19) -0.2662(12) -0.0304(7)
H7 H 0.7873 -0.3080 -0.0802
C10 C 0.5708(13) 0.5819(10) 0.3691(7)
H8 H 0.6165 0.6812 0.3708
C11 C 0.6744(12) 0.4517(10) 0.4106(6)
H9 H 0.7907 0.4609 0.4406
C12 C 0.7444(14) -0.1082(10) 0.0878(6)
H10 H 0.8178 -0.0458 0.1181
C13 C 0.4357(15) -0.2243(11) 0.0694(6)
H11 H 0.3002 -0.2400 0.0864
C14 C 0.1514(10) 0.3891(7) 0.2771(5)
C15 C 0.0347(11) 0.5089(9) 0.2296(5)
H12 H 0.0708 0.6123 0.2246
C16 C 0.3344(10) 0.4157(7) 0.3236(5)
C17 C 0.3976(13) 0.5674(9) 0.3244(7)
H13 H 0.3258 0.6557 0.2959
Pb1A Pb 0.68620(3) -0.02444(2) 0.637071(15)
Pb1A_2 Pb -0.31380(3) -0.02444(2) 0.637071(15)
O1A O 0.6820(9) -0.0845(7) 0.4549(4)
O5A O -0.0478(10) -0.1446(10) 0.3743(5)
loop_
_geom_bond_atom_site_label_1
_geom_bond_atom_site_label_2
_geom_bond_site_symmetry_1
_geom_bond_site_symmetry_2
Pb1 O1 1_555 1_555
O1 N1 1_555 1_555
O2 Pb1 1_555 1_555
O3 Pb1 1_555 1_555
O4 Pb1 1_555 1_555
O5 N1 1_555 1_555
N1 O3 1_555 1_555
N2 Pb1 1_555 1_555
N3 Pb1 1_555 1_555
C1 N2 1_555 1_555
H1 C1 1_555 1_555
C2 H2 1_555 1_555
C3 O2 1_555 1_555
C4 H3 1_555 1_555
C5 N3 1_555 1_555
H4 C5 1_555 1_555
C6 H5 1_555 1_555
C7 C5 1_555 1_555
H6 C7 1_555 1_555
C8 C3 1_555 1_555
C9 C2 1_555 1_555
H7 C9 1_555 1_555
C10 H8 1_555 1_555
C11 C1 1_555 1_555
H9 C11 1_555 1_555
C12 C4 1_555 1_555
H10 C12 1_555 1_555
C13 C2 1_555 1_555
H11 C13 1_555 1_555
C14 N3 1_555 1_555
C15 C6 1_555 1_555
H12 C15 1_555 1_555
C16 N2 1_555 1_555
C17 C10 1_555 1_555
H13 C17 1_555 1_555
Pb1A O1 1_555 1_555
Pb1A_2 O5 1_555 1_555
O1A Pb1 1_555 1_555
O5A Pb1 1_555 1_555
O4 C3 1_555 1_555
C4 C9 1_555 1_555
C6 C7 1_555 1_555
C8 C12 1_555 1_555
C8 C13 1_555 1_555
C10 C11 1_555 1_555
C14 C15 1_555 1_555
C14 C16 1_555 1_555
C16 C17 1_555 1_555
Pb1A O1A 1_555 1_555

#END
