
#######################################################################
#
#                 Cambridge Crystallographic Data Centre
#                                CCDC 
#
#######################################################################
#
# If this CIF has been generated from an entry in the Cambridge 
# Structural Database, then it will include bibliographic, chemical, 
# crystal, experimental, refinement or atomic coordinate data resulting 
# from the CCDC's data processing and validation procedures.
#
#######################################################################

data_WABYEF
_symmetry_cell_setting           monoclinic
_symmetry_space_group_name_H-M   'P 21/c'
_symmetry_Int_Tables_number      14
_space_group_name_Hall           '-P 2ybc'
loop_
_symmetry_equiv_pos_site_id
_symmetry_equiv_pos_as_xyz
1 x,y,z
2 -x,1/2+y,1/2-z
3 -x,-y,-z
4 x,1/2-y,1/2+z
_cell_length_a                   8.0610(10)
_cell_length_b                   15.039(2)
_cell_length_c                   17.847(5)
_cell_angle_alpha                90
_cell_angle_beta                 99.464(3)
_cell_angle_gamma                90
_cell_volume                     2134.13
loop_
_atom_site_label
_atom_site_type_symbol
_atom_site_fract_x
_atom_site_fract_y
_atom_site_fract_z
Ni1 Ni -0.68282(3) -0.123960(17) -0.355720(14)
O1 O -0.26452(19) -0.59960(9) -0.41468(8)
O2 O -0.31673(18) -0.63651(9) -0.26522(8)
O3 O -0.45649(19) -0.19111(9) -0.36917(8)
C1 C -0.5405(3) -0.26262(14) -0.37422(11)
O4 O -0.09217(19) -0.61077(10) -0.18204(8)
C2 C -0.1600(3) -0.62592(12) -0.24953(12)
O5 O -0.69556(18) -0.26047(9) -0.37013(9)
C3 C -0.3211(3) -0.51512(13) -0.40085(10)
C4 C -0.0473(3) -0.63366(12) -0.30753(11)
C5 C -0.4606(3) -0.35004(13) -0.38414(11)
N1 N -0.6059(2) 0.00501(11) -0.35985(10)
C6 C -0.2878(3) -0.36017(14) -0.37544(13)
H1 H -0.2185 -0.3109 -0.3641
C7 C -0.6367(3) 0.04269(13) -0.42942(12)
C8 C 0.1211(3) -0.65605(15) -0.28357(13)
H2 H 0.1607 -0.6626 -0.2319
C9 C -0.5772(3) 0.12678(14) -0.44207(14)
H3 H -0.5992 0.1520 -0.4903
C10 C -0.4924(3) -0.50607(14) -0.40999(12)
H4 H -0.5614 -0.5553 -0.4222
C11 C -0.0992(3) -0.62165(12) -0.38548(11)
C12 C -0.2171(3) -0.44267(14) -0.38340(13)
H5 H -0.1009 -0.4492 -0.3771
C13 C -0.5622(3) -0.42420(14) -0.40102(11)
H6 H -0.6784 -0.4185 -0.4063
C14 C 0.0083(3) -0.63424(14) -0.43671(13)
H7 H -0.0290 -0.6256 -0.4883
C15 C -0.7357(3) -0.01309(13) -0.48899(11)
C16 C -0.7938(3) 0.01503(15) -0.56268(13)
H8 H -0.7699 0.0720 -0.5781
N2 N -0.7676(2) -0.09560(11) -0.46637(9)
C17 C -0.5176(3) 0.05082(16) -0.30230(13)
H9 H -0.4968 0.0250 -0.2543
C18 C -0.4567(4) 0.13476(16) -0.31178(16)
H10 H -0.3970 0.1655 -0.2708
C19 C -0.4857(3) 0.17254(16) -0.38283(16)
H11 H -0.4434 0.2287 -0.3907
C20 C 0.2301(3) -0.66874(17) -0.33440(15)
H12 H 0.3419 -0.6833 -0.3171
C21 C 0.1728(3) -0.65981(17) -0.41097(15)
H13 H 0.2448 -0.6710 -0.4456
C22 C -0.8592(3) -0.15033(16) -0.51506(13)
H14 H -0.8819 -0.2071 -0.4987
C23 C -0.9221(3) -0.12635(17) -0.58905(14)
H15 H -0.9862 -0.1659 -0.6219
C24 C -0.8876(3) -0.04291(18) -0.61271(14)
H16 H -0.9271 -0.0252 -0.6624
Ni1A Ni -0.31718(3) -0.623960(17) -0.144280(14)
O2A O -0.68327(18) -0.13651(9) -0.23478(8)
O4A O -0.90783(19) -0.11077(10) -0.31796(8)
C2A C -0.8400(3) -0.12592(12) -0.25047(12)
loop_
_geom_bond_atom_site_label_1
_geom_bond_atom_site_label_2
_geom_bond_site_symmetry_1
_geom_bond_site_symmetry_2
Ni1 O3 1_555 1_555
O1 C3 1_555 1_555
O2 C2 1_555 1_555
O3 C1 1_555 1_555
C1 O5 1_555 1_555
O4 C2 1_555 1_555
C2 C4 1_555 1_555
O5 Ni1 1_555 1_555
C3 C10 1_555 1_555
C4 C8 1_555 1_555
C5 C1 1_555 1_555
N1 Ni1 1_555 1_555
C6 C5 1_555 1_555
H1 C6 1_555 1_555
C7 N1 1_555 1_555
C8 H2 1_555 1_555
C9 C7 1_555 1_555
H3 C9 1_555 1_555
C10 H4 1_555 1_555
C11 O1 1_555 1_555
C12 C3 1_555 1_555
H5 C12 1_555 1_555
C13 C5 1_555 1_555
H6 C13 1_555 1_555
C14 C11 1_555 1_555
H7 C14 1_555 1_555
C15 C7 1_555 1_555
C16 C15 1_555 1_555
H8 C16 1_555 1_555
N2 Ni1 1_555 1_555
C17 N1 1_555 1_555
H9 C17 1_555 1_555
C18 C17 1_555 1_555
H10 C18 1_555 1_555
C19 C9 1_555 1_555
H11 C19 1_555 1_555
C20 C8 1_555 1_555
H12 C20 1_555 1_555
C21 C14 1_555 1_555
H13 C21 1_555 1_555
C22 N2 1_555 1_555
H14 C22 1_555 1_555
C23 C22 1_555 1_555
H15 C23 1_555 1_555
C24 C16 1_555 1_555
H16 C24 1_555 1_555
Ni1A O2 1_555 1_555
O2A Ni1 1_555 1_555
O4A Ni1 1_555 1_555
C2A O2A 1_555 1_555
O4 Ni1A 1_555 1_555
C4 C11 1_555 1_555
C6 C12 1_555 1_555
C10 C13 1_555 1_555
C15 N2 1_555 1_555
C18 C19 1_555 1_555
C20 C21 1_555 1_555
C23 C24 1_555 1_555
O4A C2A 1_555 1_555

#END
