
#######################################################################
#
#                 Cambridge Crystallographic Data Centre
#                                CCDC 
#
#######################################################################
#
# If this CIF has been generated from an entry in the Cambridge 
# Structural Database, then it will include bibliographic, chemical, 
# crystal, experimental, refinement or atomic coordinate data resulting 
# from the CCDC's data processing and validation procedures.
#
#######################################################################

data_WACBEI
_symmetry_cell_setting           tetragonal
_symmetry_space_group_name_H-M   'I 4/m c m'
_symmetry_Int_Tables_number      140
_space_group_name_Hall           '-I 4 2c'
loop_
_symmetry_equiv_pos_site_id
_symmetry_equiv_pos_as_xyz
1 x,y,z
2 -y,x,z
3 y,-x,z
4 y,x,1/2-z
5 1/2+x,1/2+y,1/2+z
6 1/2-y,1/2+x,1/2+z
7 1/2+y,1/2-x,1/2+z
8 1/2+y,1/2+x,-z
9 x,y,-z
10 x,-y,1/2+z
11 -x,y,1/2+z
12 y,x,1/2+z
13 1/2+x,1/2+y,1/2-z
14 1/2+x,1/2-y,z
15 1/2-x,1/2+y,z
16 1/2+y,1/2+x,z
17 -x,-y,-z
18 y,-x,-z
19 -y,x,-z
20 -y,-x,1/2+z
21 1/2-x,1/2-y,1/2-z
22 1/2+y,1/2-x,1/2-z
23 1/2-y,1/2+x,1/2-z
24 1/2-y,1/2-x,z
25 -x,-y,z
26 -x,y,1/2-z
27 x,-y,1/2-z
28 -y,-x,1/2-z
29 1/2-x,1/2-y,1/2+z
30 1/2-x,1/2+y,-z
31 1/2+x,1/2-y,-z
32 1/2-y,1/2-x,-z
_cell_length_a                   6.3595(5)
_cell_length_b                   6.3595(5)
_cell_length_c                   12.4077(13)
_cell_angle_alpha                90
_cell_angle_beta                 90
_cell_angle_gamma                90
_cell_volume                     501.808
loop_
_atom_site_label
_atom_site_type_symbol
_atom_site_fract_x
_atom_site_fract_y
_atom_site_fract_z
Ba1 Ba 0.0000 0.0000 0.2500
O1 O 0.1791(2) 0.3209(2) 0.13150(13)
C1 C 0.0815(3) 0.4185(3) 0.0587(2)
C1H C 0.0815(3) 0.4185(3) -0.0587(2)
O1H O 0.1791(2) 0.3209(2) -0.13150(13)
C1G C -0.0815(3) 0.5815(3) -0.0587(2)
O1G O -0.1791(2) 0.6791(2) -0.13150(13)
C1O C -0.0815(3) 0.5815(3) 0.0587(2)
O1O O -0.1791(2) 0.6791(2) 0.13150(13)
O1A O -0.3209(2) 0.1791(2) 0.13150(13)
O1B O 0.3209(2) -0.1791(2) 0.13150(13)
O1C O 0.3209(2) 0.1791(2) 0.36850(13)
O1L O -0.3209(2) -0.1791(2) 0.36850(13)
O1O_2 O -0.1791(2) -0.3209(2) 0.13150(13)
O1U O -0.1791(2) 0.3209(2) 0.36850(13)
O1V O 0.1791(2) -0.3209(2) 0.36850(13)
Ba1L Ba 0.5000 0.5000 0.2500
Ba1D Ba 0.5000 0.5000 -0.2500
Ba1H Ba 0.0000 0.0000 -0.2500
Ba1D_2 Ba -0.5000 0.5000 -0.2500
Ba1H_2 Ba 0.0000 1.0000 -0.2500
Ba1_2 Ba 0.0000 1.0000 0.2500
Ba1L_2 Ba -0.5000 0.5000 0.2500
loop_
_geom_bond_atom_site_label_1
_geom_bond_atom_site_label_2
_geom_bond_site_symmetry_1
_geom_bond_site_symmetry_2
Ba1 O1 1_555 1_555
O1 C1 1_555 1_555
C1 C1H 1_555 1_555
C1H O1H 1_555 1_555
O1H Ba1D 1_555 1_555
C1G C1H 1_555 1_555
O1G C1G 1_555 1_555
C1O C1 1_555 1_555
O1O C1O 1_555 1_555
O1A Ba1 1_555 1_555
O1B Ba1 1_555 1_555
O1C Ba1 1_555 1_555
O1L Ba1 1_555 1_555
O1O_2 Ba1 1_555 1_555
O1U Ba1 1_555 1_555
O1V Ba1 1_555 1_555
Ba1L O1 1_555 1_555
Ba1H O1H 1_555 1_555
Ba1D_2 O1G 1_555 1_555
Ba1H_2 O1G 1_555 1_555
Ba1_2 O1O 1_555 1_555
Ba1L_2 O1O 1_555 1_555
C1G C1O 1_555 1_555
O1A Ba1L_2 1_555 1_555
O1C Ba1L 1_555 1_555
O1U Ba1L_2 1_555 1_555

#END
