
#######################################################################
#
#                 Cambridge Crystallographic Data Centre
#                                CCDC 
#
#######################################################################
#
# If this CIF has been generated from an entry in the Cambridge 
# Structural Database, then it will include bibliographic, chemical, 
# crystal, experimental, refinement or atomic coordinate data resulting 
# from the CCDC's data processing and validation procedures.
#
#######################################################################

data_WACJUG
_symmetry_cell_setting           orthorhombic
_symmetry_space_group_name_H-M   'P 21 21 2'
_symmetry_Int_Tables_number      18
_space_group_name_Hall           'P 2 2ab'
loop_
_symmetry_equiv_pos_site_id
_symmetry_equiv_pos_as_xyz
1 x,y,z
2 -x,-y,z
3 1/2-x,1/2+y,-z
4 1/2+x,1/2-y,-z
_cell_length_a                   6.8119(11)
_cell_length_b                   6.8003(11)
_cell_length_c                   11.8471(19)
_cell_angle_alpha                90
_cell_angle_beta                 90
_cell_angle_gamma                90
_cell_volume                     548.793
loop_
_atom_site_label
_atom_site_type_symbol
_atom_site_fract_x
_atom_site_fract_y
_atom_site_fract_z
Cd1 Cd 1.0000 1.0000 0.46057(7)
O1 O 0.6708(11) 1.015(3) 0.4274(7)
O2 O 0.519(3) 0.8306(11) 0.5727(7)
N1 N 1.0000 1.0000 0.6584(10)
N2 N 1.0000 1.0000 1.2589(9)
C1 C 1.113(3) 0.885(3) 0.7167(12)
H1 H 1.1954 0.7987 0.6784
C2 C 1.0000 1.0000 1.0200(10)
C3 C 1.0000 1.0000 0.8955(11)
C4 C 1.117(3) 0.886(3) 0.8321(12)
H2 H 1.2061 0.8040 0.8686
C5 C 1.119(3) 0.882(3) 1.0831(12)
H3 H 1.2055 0.7982 1.0459
C6 C 1.118(3) 0.882(3) 1.1990(12)
H4 H 1.2021 0.7978 1.2372
S1 S 0.5000 1.0000 0.5000(3)
O1A O 0.3292(11) 0.985(3) 0.4274(7)
O2A O 0.481(3) 1.1694(11) 0.5727(7)
C6A C 0.882(3) 1.118(3) 1.1990(12)
C5A C 0.881(3) 1.118(3) 1.0831(12)
H3A H 0.7945 1.2018 1.0459
H4A H 0.7979 1.2022 1.2372
C4A C 0.883(3) 1.114(3) 0.8321(12)
C1A C 0.887(3) 1.115(3) 0.7167(12)
H1A H 0.8046 1.2013 0.6784
H2A H 0.7939 1.1960 0.8686
O1A_2 O 1.3292(11) 0.985(3) 0.4274(7)
O2B O 0.981(3) 1.3306(11) 0.4273(7)
O2C O 1.019(3) 0.6694(11) 0.4273(7)
N2_2 N 1.0000 1.0000 0.2589(9)
Cd1B Cd 0.5000 0.5000 0.53943(7)
Cd1_2 Cd 1.0000 1.0000 1.46057(7)
Cd1_3 Cd 0.0000 1.0000 0.46057(7)
Cd1B_2 Cd 0.5000 1.5000 0.53943(7)
loop_
_geom_bond_atom_site_label_1
_geom_bond_atom_site_label_2
_geom_bond_site_symmetry_1
_geom_bond_site_symmetry_2
Cd1 O1 1_555 1_555
O1 S1 1_555 1_555
O2 S1 1_555 1_555
N1 Cd1 1_555 1_555
N2 C6 1_555 1_555
C1 N1 1_555 1_555
H1 C1 1_555 1_555
C2 C3 1_555 1_555
C3 C4 1_555 1_555
C4 C1 1_555 1_555
H2 C4 1_555 1_555
C5 C2 1_555 1_555
H3 C5 1_555 1_555
C6 C5 1_555 1_555
H4 C6 1_555 1_555
S1 O1A 1_555 1_555
O1A Cd1_3 1_555 1_555
O2A S1 1_555 1_555
C6A N2 1_555 1_555
C5A C2 1_555 1_555
H3A C5A 1_555 1_555
H4A C6A 1_555 1_555
C4A C3 1_555 1_555
C1A N1 1_555 1_555
H1A C1A 1_555 1_555
H2A C4A 1_555 1_555
O1A_2 Cd1 1_555 1_555
O2B Cd1 1_555 1_555
O2C Cd1 1_555 1_555
N2_2 Cd1 1_555 1_555
Cd1B O2 1_555 1_555
Cd1_2 N2 1_555 1_555
Cd1B_2 O2A 1_555 1_555
C6A C5A 1_555 1_555
C4A C1A 1_555 1_555

#END
