
#######################################################################
#
#                 Cambridge Crystallographic Data Centre
#                                CCDC 
#
#######################################################################
#
# If this CIF has been generated from an entry in the Cambridge 
# Structural Database, then it will include bibliographic, chemical, 
# crystal, experimental, refinement or atomic coordinate data resulting 
# from the CCDC's data processing and validation procedures.
#
#######################################################################

data_WACJUG01
_symmetry_cell_setting           tetragonal
_symmetry_space_group_name_H-M   'P -4 21 m'
_symmetry_Int_Tables_number      113
_space_group_name_Hall           'P -4 2ab'
loop_
_symmetry_equiv_pos_site_id
_symmetry_equiv_pos_as_xyz
1 x,y,z
2 -x,-y,z
3 1/2+x,1/2-y,-z
4 1/2-x,1/2+y,-z
5 1/2+y,1/2+x,z
6 1/2-y,1/2-x,z
7 -y,x,-z
8 y,-x,-z
_cell_length_a                   6.8212(7)
_cell_length_b                   6.8212(7)
_cell_length_c                   11.838(2)
_cell_angle_alpha                90
_cell_angle_beta                 90
_cell_angle_gamma                90
_cell_volume                     550.808
loop_
_atom_site_label
_atom_site_type_symbol
_atom_site_fract_x
_atom_site_fract_y
_atom_site_fract_z
Cd1 Cd 0.5000 0.0000 0.46021(6)
O1 O 0.4853(19) -0.3305(7) 0.4280(3)
N1 N 0.5000 0.0000 0.6588(7)
N2 N 0.5000 0.0000 1.2579(7)
C1 C 0.6138(13) 0.1138(13) 0.7155(9)
H1 H 0.6973 0.1973 0.6762
C2 C 0.6174(13) 0.1174(13) 0.8337(8)
H2 H 0.7023 0.2023 0.8708
C3 C 0.5000 0.0000 0.8937(9)
C4 C 0.3837(11) -0.1163(11) 1.1997(8)
H3 H 0.3001 -0.1999 1.2387
C5 C 0.3806(13) -0.1194(13) 1.0821(8)
H4 H 0.2957 -0.2043 1.0448
C6 C 0.5000 0.0000 1.0211(7)
S1 S 0.5000 -0.5000 0.5000
Cd1_2 Cd 0.5000 0.0000 1.46021(6)
Cd1_3 Cd 0.5000 -1.0000 0.46021(6)
Cd1B Cd 1.0000 -0.5000 0.53979(6)
Cd1B_2 Cd 0.0000 -0.5000 0.53979(6)
O1A O 0.5147(19) -0.6695(7) 0.4280(3)
O1G O 0.6695(7) -0.4853(19) 0.5720(3)
O1F O 0.3305(7) -0.5147(19) 0.5720(3)
O1A_2 O 0.5147(19) 0.3305(7) 0.4280(3)
O1D O 0.1695(7) -0.0147(19) 0.4280(3)
O1E O 0.8305(7) 0.0147(19) 0.4280(3)
N2_2 N 0.5000 0.0000 0.2579(7)
C1A C 0.3862(13) -0.1138(13) 0.7155(9)
H1A H 0.3027 -0.1973 0.6762
C2A C 0.3826(13) -0.1174(13) 0.8337(8)
H2A H 0.2977 -0.2023 0.8708
C4A C 0.6163(11) 0.1163(11) 1.1997(8)
H3A H 0.6999 0.1999 1.2387
C5A C 0.6194(13) 0.1194(13) 1.0821(8)
H4A H 0.7043 0.2043 1.0448
loop_
_geom_bond_atom_site_label_1
_geom_bond_atom_site_label_2
_geom_bond_site_symmetry_1
_geom_bond_site_symmetry_2
Cd1 O1 1_555 1_555
O1 S1 1_555 1_555
N1 Cd1 1_555 1_555
N2 C4 1_555 1_555
C1 N1 1_555 1_555
H1 C1 1_555 1_555
C2 C1 1_555 1_555
H2 C2 1_555 1_555
C3 C2 1_555 1_555
C4 H3 1_555 1_555
C5 C4 1_555 1_555
H4 C5 1_555 1_555
C6 C3 1_555 1_555
S1 O1A 1_555 1_555
Cd1_2 N2 1_555 1_555
Cd1_3 O1A 1_555 1_555
Cd1B O1G 1_555 1_555
Cd1B_2 O1F 1_555 1_555
O1G S1 1_555 1_555
O1F S1 1_555 1_555
O1A_2 Cd1 1_555 1_555
O1D Cd1 1_555 1_555
O1E Cd1 1_555 1_555
N2_2 Cd1 1_555 1_555
C1A N1 1_555 1_555
H1A C1A 1_555 1_555
C2A C3 1_555 1_555
H2A C2A 1_555 1_555
C4A N2 1_555 1_555
H3A C4A 1_555 1_555
C5A C6 1_555 1_555
H4A C5A 1_555 1_555
C5 C6 1_555 1_555
C1A C2A 1_555 1_555
C4A C5A 1_555 1_555

#END
