
#######################################################################
#
#                 Cambridge Crystallographic Data Centre
#                                CCDC 
#
#######################################################################
#
# If this CIF has been generated from an entry in the Cambridge 
# Structural Database, then it will include bibliographic, chemical, 
# crystal, experimental, refinement or atomic coordinate data resulting 
# from the CCDC's data processing and validation procedures.
#
#######################################################################

data_WACKIV
_symmetry_cell_setting           monoclinic
_symmetry_space_group_name_H-M   'P 21/n'
_symmetry_Int_Tables_number      14
_space_group_name_Hall           '-P 2yn'
loop_
_symmetry_equiv_pos_site_id
_symmetry_equiv_pos_as_xyz
1 x,y,z
2 1/2+x,1/2-y,1/2+z
3 -x,-y,-z
4 1/2-x,1/2+y,1/2-z
_cell_length_a                   8.293(3)
_cell_length_b                   17.278(6)
_cell_length_c                   14.975(5)
_cell_angle_alpha                90
_cell_angle_beta                 95.054(6)
_cell_angle_gamma                90
_cell_volume                     2137.37
loop_
_atom_site_label
_atom_site_type_symbol
_atom_site_fract_x
_atom_site_fract_y
_atom_site_fract_z
Cu1 Cu 0.83045(8) 0.87071(4) 0.75512(5)
N1 N 0.7032(6) 0.8953(3) 0.6205(3)
N2 N 0.6451(6) 0.7945(3) 0.7652(4)
N3 N 0.6689(6) 0.9502(3) 0.7982(3)
N4 N 0.9919(5) 0.7824(3) 0.7522(3)
N5 N 1.4926(5) 0.4511(3) 0.7399(3)
C1 C 0.6211(8) 0.8205(4) 0.5994(5)
H1 H 0.6996 0.7831 0.5818
H2 H 0.5400 0.8274 0.5493
C2 C 0.5408(8) 0.7895(4) 0.6791(5)
H3 H 0.4419 0.8183 0.6850
H4 H 0.5113 0.7358 0.6679
C3 C 0.5583(9) 0.8244(4) 0.8397(5)
H5 H 0.6241 0.8170 0.8959
H6 H 0.4580 0.7960 0.8428
C4 C 0.5214(8) 0.9107(4) 0.8258(5)
H7 H 0.4326 0.9173 0.7798
H8 H 0.4901 0.9333 0.8810
C5 C 0.6317(8) 1.0022(4) 0.7195(4)
H9 H 0.7256 1.0342 0.7115
H10 H 0.5432 1.0363 0.7314
C6 C 0.5858(8) 0.9574(4) 0.6334(4)
H11 H 0.4790 0.9351 0.6358
H12 H 0.5818 0.9926 0.5828
C7 C 1.0271(7) 0.7503(4) 0.6752(4)
H13 H 0.9848 0.7730 0.6219
C8 C 1.1213(7) 0.6862(4) 0.6703(4)
H14 H 1.1398 0.6656 0.6148
C9 C 1.1892(7) 0.6521(3) 0.7478(4)
C10 C 1.1577(8) 0.6870(4) 0.8276(4)
H15 H 1.2025 0.6669 0.8819
C11 C 1.0606(8) 0.7510(4) 0.8267(4)
H16 H 1.0418 0.7736 0.8812
C12 C 1.2894(7) 0.5810(3) 0.7450(4)
C13 C 1.3252(7) 0.5337(3) 0.8187(4)
H17 H 1.2807 0.5450 0.8721
C14 C 1.4240(7) 0.4710(3) 0.8150(4)
H18 H 1.4450 0.4409 0.8662
C15 C 1.4530(7) 0.4944(3) 0.6676(4)
H19 H 1.4943 0.4804 0.6141
C16 C 1.3550(7) 0.5583(3) 0.6674(4)
H20 H 1.3326 0.5866 0.6149
N5C N 1.0074(5) 0.9511(3) 0.7601(3)
Cu1C Cu 1.66955(8) 0.37071(4) 0.74488(5)
Cl1 Cl 0.2198(3) 0.88714(10) 0.03851(11)
O1 O 0.2350(7) 0.8727(3) 0.1332(3)
O2 O 0.0542(6) 0.8719(3) 0.0037(3)
O3 O 0.2582(7) 0.9671(3) 0.0236(3)
O4 O 0.3252(7) 0.8377(3) -0.0047(3)
Cl2 Cl 0.1417(2) 0.86450(11) 0.46339(11)
O5 O 0.1462(7) 0.8555(3) 0.3694(3)
O6 O 0.1992(8) 0.9396(4) 0.4876(4)
O7 O -0.0228(6) 0.8572(3) 0.4859(3)
O8 O 0.2336(7) 0.8064(5) 0.5103(4)
loop_
_geom_bond_atom_site_label_1
_geom_bond_atom_site_label_2
_geom_bond_site_symmetry_1
_geom_bond_site_symmetry_2
Cu1 N1 1_555 1_555
N1 C1 1_555 1_555
N2 Cu1 1_555 1_555
N3 Cu1 1_555 1_555
N4 Cu1 1_555 1_555
N5 C14 1_555 1_555
C1 H1 1_555 1_555
H2 C1 1_555 1_555
C2 N2 1_555 1_555
H3 C2 1_555 1_555
H4 C2 1_555 1_555
C3 N2 1_555 1_555
H5 C3 1_555 1_555
H6 C3 1_555 1_555
C4 N3 1_555 1_555
H7 C4 1_555 1_555
H8 C4 1_555 1_555
C5 N3 1_555 1_555
H9 C5 1_555 1_555
H10 C5 1_555 1_555
C6 N1 1_555 1_555
H11 C6 1_555 1_555
H12 C6 1_555 1_555
C7 N4 1_555 1_555
H13 C7 1_555 1_555
C8 C7 1_555 1_555
H14 C8 1_555 1_555
C9 C8 1_555 1_555
C10 C9 1_555 1_555
H15 C10 1_555 1_555
C11 N4 1_555 1_555
H16 C11 1_555 1_555
C12 C9 1_555 1_555
C13 C12 1_555 1_555
H17 C13 1_555 1_555
C14 C13 1_555 1_555
H18 C14 1_555 1_555
C15 N5 1_555 1_555
H19 C15 1_555 1_555
C16 C12 1_555 1_555
H20 C16 1_555 1_555
Cl1 O1 1_555 1_555
Cl2 O5 1_555 1_555
O2 Cl1 1_555 1_555
O3 Cl1 1_555 1_555
O4 Cl1 1_555 1_555
O6 Cl2 1_555 1_555
O7 Cl2 1_555 1_555
O8 Cl2 1_555 1_555
N5C Cu1 1_555 1_555
Cu1C N5 1_555 1_555
C1 C2 1_555 1_555
C3 C4 1_555 1_555
C5 C6 1_555 1_555
C10 C11 1_555 1_555
C15 C16 1_555 1_555

#END
