
#######################################################################
#
#                 Cambridge Crystallographic Data Centre
#                                CCDC 
#
#######################################################################
#
# If this CIF has been generated from an entry in the Cambridge 
# Structural Database, then it will include bibliographic, chemical, 
# crystal, experimental, refinement or atomic coordinate data resulting 
# from the CCDC's data processing and validation procedures.
#
#######################################################################

data_WACKUH
_symmetry_cell_setting           monoclinic
_symmetry_space_group_name_H-M   'C 2/c'
_symmetry_Int_Tables_number      15
_space_group_name_Hall           '-C 2yn'
loop_
_symmetry_equiv_pos_site_id
_symmetry_equiv_pos_as_xyz
1 x,y,z
2 1/2+x,1/2+y,z
3 x,-y,1/2+z
4 1/2+x,1/2-y,1/2+z
5 -x,-y,-z
6 1/2-x,1/2-y,-z
7 -x,y,1/2-z
8 1/2-x,1/2+y,1/2-z
_cell_length_a                   29.280(7)
_cell_length_b                   5.451(3)
_cell_length_c                   23.152(5)
_cell_angle_alpha                90
_cell_angle_beta                 128.56(3)
_cell_angle_gamma                90
_cell_volume                     2889.47
loop_
_atom_site_label
_atom_site_type_symbol
_atom_site_fract_x
_atom_site_fract_y
_atom_site_fract_z
Pb1 Pb -0.27399(3) 0.15246(11) 0.05860(4)
P1 P -0.15684(17) -0.1523(8) 0.0878(2)
P2 P -0.19066(19) -0.3473(8) 0.1800(2)
O1 O -0.2018(4) 0.056(2) 0.0505(5)
O2 O -0.1735(5) -0.394(2) 0.0489(6)
O3 O -0.2469(5) -0.212(2) 0.1265(7)
O4 O -0.1914(5) -0.6150(19) 0.1671(6)
C1 C -0.1361(7) -0.204(3) 0.1782(9)
H1 H -0.1259 -0.047 0.2034
H2 H -0.1013 -0.3052 0.2061
C2 C -0.0937(8) -0.045(4) 0.1024(10)
C3 C -0.0650(10) 0.156(5) 0.1371(17)
H3 H -0.0801 0.2607 0.1532
C4 C -0.0098(16) 0.225(5) 0.152(2)
H4 H 0.0103 0.3689 0.1759
C5 C 0.0084(9) 0.062(6) 0.1280(16)
H5 H 0.0446 0.0939 0.1399
C6 C -0.0188(14) -0.146(7) 0.0883(18)
H6 H -0.0051 -0.2422 0.0688
C7 C -0.0672(11) -0.197(7) 0.0800(16)
H7 H -0.0855 -0.3451 0.0575
C8 C -0.1647(7) -0.293(4) 0.2743(10)
C9 C -0.1282(9) -0.464(5) 0.3274(9)
H8 H -0.1192 -0.6058 0.314
C10 C -0.1045(11) -0.430(5) 0.4002(11)
H9 H -0.0793 -0.546 0.4359
C11 C -0.1185(9) -0.229(5) 0.4182(12)
H10 H -0.1019 -0.2025 0.4674
C12 C -0.1558(11) -0.065(4) 0.3677(14)
H11 H -0.1655 0.0722 0.382
C13 C -0.1804(10) -0.095(4) 0.2933(12)
H12 H -0.2069 0.0186 0.2579
O1E O -0.2982(4) 0.444(2) -0.0505(5)
O2E O -0.3265(5) -0.106(2) -0.0489(6)
O4_2 O -0.1914(5) 0.3850(19) 0.1671(6)
Pb1E Pb -0.22601(3) 0.34754(11) -0.05860(4)
Pb1E_2 Pb -0.22601(3) -0.65246(11) -0.05860(4)
Pb1_2 Pb -0.27399(3) -0.84754(11) 0.05860(4)
loop_
_geom_bond_atom_site_label_1
_geom_bond_atom_site_label_2
_geom_bond_site_symmetry_1
_geom_bond_site_symmetry_2
Pb1 O1 1_555 1_555
P1 O1 1_555 1_555
P2 O3 1_555 1_555
O1 Pb1E 1_555 1_555
O2 P1 1_555 1_555
O3 Pb1 1_555 1_555
O4 P2 1_555 1_555
C1 P1 1_555 1_555
H1 C1 1_555 1_555
H2 C1 1_555 1_555
C2 P1 1_555 1_555
C3 C2 1_555 1_555
H3 C3 1_555 1_555
C4 C3 1_555 1_555
H4 C4 1_555 1_555
C5 C4 1_555 1_555
H5 C5 1_555 1_555
C6 C5 1_555 1_555
H6 C6 1_555 1_555
C7 C2 1_555 1_555
H7 C7 1_555 1_555
C8 P2 1_555 1_555
C9 C8 1_555 1_555
H8 C9 1_555 1_555
C10 C9 1_555 1_555
H9 C10 1_555 1_555
C11 C10 1_555 1_555
H10 C11 1_555 1_555
C12 C11 1_555 1_555
H11 C12 1_555 1_555
C13 C8 1_555 1_555
H12 C13 1_555 1_555
O1E Pb1 1_555 1_555
O2E Pb1 1_555 1_555
O4_2 Pb1 1_555 1_555
Pb1E O1E 1_555 1_555
Pb1E_2 O2 1_555 1_555
Pb1_2 O4 1_555 1_555
P2 C1 1_555 1_555
C6 C7 1_555 1_555
C12 C13 1_555 1_555

#END
