
#######################################################################
#
#                 Cambridge Crystallographic Data Centre
#                                CCDC 
#
#######################################################################
#
# If this CIF has been generated from an entry in the Cambridge 
# Structural Database, then it will include bibliographic, chemical, 
# crystal, experimental, refinement or atomic coordinate data resulting 
# from the CCDC's data processing and validation procedures.
#
#######################################################################

data_WACMET
_symmetry_cell_setting           triclinic
_symmetry_space_group_name_H-M   'P -1'
_symmetry_Int_Tables_number      2
_space_group_name_Hall           '-P 1'
loop_
_symmetry_equiv_pos_site_id
_symmetry_equiv_pos_as_xyz
1 x,y,z
2 -x,-y,-z
_cell_length_a                   6.954(2)
_cell_length_b                   13.786(5)
_cell_length_c                   24.587(9)
_cell_angle_alpha                74.03(3)
_cell_angle_beta                 84.63(3)
_cell_angle_gamma                79.98(3)
_cell_volume                     2228.96
loop_
_atom_site_label
_atom_site_type_symbol
_atom_site_fract_x
_atom_site_fract_y
_atom_site_fract_z
Ba1 Ba 0.10104(4) 0.47607(2) 0.278291(12)
Ba2 Ba -0.41385(4) 0.99500(2) 0.267910(11)
S1 S -0.0504(2) 0.72261(9) 0.33619(5)
S2 S 0.46421(19) 0.21453(9) 0.34740(5)
S3 S -0.2646(2) 1.24662(10) 0.14708(5)
S4 S -0.3942(2) 0.79490(10) 0.17607(6)
O1 O -0.1466(8) 0.5166(4) 0.1904(2)
O2 O -0.2557(6) 0.4171(3) 0.34170(17)
O3 O 0.0659(7) 0.2925(3) 0.2533(2)
O4 O 0.1612(6) 0.6519(3) 0.18460(16)
O5 O 0.4121(6) 0.5722(3) 0.30539(17)
O6 O 0.4227(7) 0.4440(3) 0.20991(18)
O7 O -0.0906(6) 1.0707(3) 0.29955(17)
O8 O -0.7556(5) 0.9184(3) 0.33287(16)
O9 O -0.7668(6) 1.0744(3) 0.21019(16)
O10 O -0.0926(6) 0.9750(3) 0.18697(19)
O11 O -0.1520(6) 0.8240(3) 0.31164(16)
O12 O 0.1554(6) 0.7225(3) 0.34470(16)
O13 O -0.0736(6) 0.6495(3) 0.30583(16)
O14 O 0.1456(6) 0.6123(3) 0.54926(17)
H1 H 0.1972 0.5962 0.5798
O15 O -0.1117(6) 0.5602(3) 0.60444(15)
O16 O -0.4393(6) 0.5793(4) 0.56069(18)
H2 H -0.5543 0.5793 0.5557
O17 O 0.4119(6) 0.1556(3) 0.31163(15)
O18 O 0.3856(6) 0.3228(3) 0.32787(16)
O19 O 0.6736(5) 0.1991(3) 0.35585(16)
O20 O 0.3861(5) 0.0559(3) 0.61494(15)
O21 O 0.6452(6) 0.1062(3) 0.56029(16)
H3 H 0.6946 0.0912 0.5911
O22 O 0.0641(6) 0.0720(4) 0.56995(17)
H4 H -0.0499 0.0701 0.5648
O23 O -0.3786(7) 1.1806(4) 0.1890(2)
O24 O -0.1003(6) 1.1889(3) 0.12384(16)
O25 O -0.2068(8) 1.3242(4) 0.1688(2)
O26 O -0.5212(6) 1.4304(3) -0.10622(16)
O27 O -0.2233(6) 1.3590(3) -0.07481(17)
H5 H -0.1958 1.3711 -0.1089
O28 O -0.8135(6) 1.4456(4) -0.03354(19)
H6 H -0.7597 1.4525 -0.0652
O29 O -0.4888(6) 0.8666(3) 0.20708(19)
O30 O -0.1823(6) 0.7923(3) 0.16762(17)
O31 O -0.4466(7) 0.6920(3) 0.20018(17)
O32 O -0.1276(6) 0.8248(3) -0.03251(17)
H7 H -0.0640 0.8244 -0.0623
O33 O -0.3747(6) 0.8861(3) -0.09102(17)
O34 O -0.7272(6) 0.9310(3) -0.04889(19)
H8 H -0.6433 0.9243 -0.0739
C1 C -0.1601(7) 0.6790(4) 0.4046(2)
C2 C -0.0545(7) 0.6568(4) 0.4521(2)
H9 H 0.0762 0.6653 0.4488
C3 C -0.1450(7) 0.6212(4) 0.5052(2)
C4 C -0.3438(8) 0.6107(4) 0.5102(2)
C5 C -0.4480(8) 0.6353(5) 0.4617(3)
H10 H -0.5800 0.6295 0.4646
C6 C -0.3579(8) 0.6684(5) 0.4092(2)
H11 H -0.4284 0.6838 0.3768
C7 C -0.0363(8) 0.5950(4) 0.5575(2)
C8 C 0.3498(7) 0.1699(4) 0.4146(2)
C9 C 0.4504(7) 0.1483(3) 0.4629(2)
H12 H 0.5811 0.1566 0.4604
C10 C 0.3569(7) 0.1138(4) 0.5159(2)
C11 C 0.1599(8) 0.1041(4) 0.5195(2)
C12 C 0.0580(8) 0.1272(5) 0.4698(2)
H13 H -0.0735 0.1205 0.4721
C13 C 0.1507(8) 0.1596(4) 0.4184(2)
H14 H 0.0822 0.1749 0.3856
C14 C 0.4632(8) 0.0901(4) 0.5677(2)
C15 C -0.4232(8) 1.3113(4) 0.0918(2)
C16 C -0.3525(8) 1.3300(4) 0.0360(2)
H15 H -0.2200 1.3130 0.0274
C17 C -0.4824(8) 1.3747(4) -0.0074(2)
C18 C -0.6801(9) 1.4033(4) 0.0057(2)
C19 C -0.7476(9) 1.3859(4) 0.0619(3)
H16 H -0.8789 1.4056 0.0709
C20 C -0.6200(8) 1.3393(4) 0.1046(2)
H17 H -0.6664 1.3266 0.1422
C21 C -0.4105(9) 1.3905(4) -0.0663(2)
C22 C -0.4878(8) 0.8377(4) 0.1079(2)
C23 C -0.3679(8) 0.8315(4) 0.0610(2)
H18 H -0.2356 0.8063 0.0652
C24 C -0.4427(8) 0.8627(4) 0.0070(2)
C25 C -0.6451(9) 0.8994(4) 0.0017(2)
C26 C -0.7652(8) 0.9054(4) 0.0492(3)
H19 H -0.8980 0.9296 0.0455
C27 C -0.6871(9) 0.8751(4) 0.1025(3)
H20 H -0.7674 0.8798 0.1344
C28 C -0.3142(9) 0.8592(4) -0.0433(2)
O15A O 0.1117(6) 0.4398(3) 0.39556(15)
O17_2 O -0.5881(6) 1.1556(3) 0.31163(15)
O20A O -0.3861(5) 0.9441(3) 0.38506(15)
Ba1A Ba -0.10104(4) 0.52393(2) 0.721709(12)
Ba2_2 Ba 0.58615(4) -0.00500(2) 0.267910(11)
Ba2A Ba 0.41385(4) 0.00500(2) 0.732090(11)
loop_
_geom_bond_atom_site_label_1
_geom_bond_atom_site_label_2
_geom_bond_site_symmetry_1
_geom_bond_site_symmetry_2
Ba1 O1 1_555 1_555
Ba2 O7 1_555 1_555
S1 O11 1_555 1_555
S2 O17 1_555 1_555
S3 O23 1_555 1_555
S4 O29 1_555 1_555
O2 Ba1 1_555 1_555
O3 Ba1 1_555 1_555
O4 Ba1 1_555 1_555
O5 Ba1 1_555 1_555
O6 Ba1 1_555 1_555
O8 Ba2 1_555 1_555
O9 Ba2 1_555 1_555
O10 Ba2 1_555 1_555
O11 Ba2 1_555 1_555
O12 S1 1_555 1_555
O13 Ba1 1_555 1_555
O14 H1 1_555 1_555
O15 C7 1_555 1_555
O16 H2 1_555 1_555
O17 Ba2_2 1_555 1_555
O18 Ba1 1_555 1_555
O19 S2 1_555 1_555
O20 C14 1_555 1_555
O21 H3 1_555 1_555
O22 H4 1_555 1_555
O23 Ba2 1_555 1_555
O24 S3 1_555 1_555
O25 S3 1_555 1_555
O26 C21 1_555 1_555
O27 H5 1_555 1_555
O28 H6 1_555 1_555
O29 Ba2 1_555 1_555
O30 S4 1_555 1_555
O31 S4 1_555 1_555
O32 H7 1_555 1_555
O33 C28 1_555 1_555
O34 H8 1_555 1_555
C1 S1 1_555 1_555
C2 C1 1_555 1_555
H9 C2 1_555 1_555
C3 C2 1_555 1_555
C4 O16 1_555 1_555
C5 C4 1_555 1_555
H10 C5 1_555 1_555
C6 C1 1_555 1_555
H11 C6 1_555 1_555
C7 O14 1_555 1_555
C8 S2 1_555 1_555
C9 C8 1_555 1_555
H12 C9 1_555 1_555
C10 C9 1_555 1_555
C11 O22 1_555 1_555
C12 C11 1_555 1_555
H13 C12 1_555 1_555
C13 C8 1_555 1_555
H14 C13 1_555 1_555
C14 O21 1_555 1_555
C15 S3 1_555 1_555
C16 C15 1_555 1_555
H15 C16 1_555 1_555
C17 C16 1_555 1_555
C18 O28 1_555 1_555
C19 C18 1_555 1_555
H16 C19 1_555 1_555
C20 C15 1_555 1_555
H17 C20 1_555 1_555
C21 O27 1_555 1_555
C22 S4 1_555 1_555
C23 C22 1_555 1_555
H18 C23 1_555 1_555
C24 C23 1_555 1_555
C25 O34 1_555 1_555
C26 C25 1_555 1_555
H19 C26 1_555 1_555
C27 C22 1_555 1_555
H20 C27 1_555 1_555
C28 O32 1_555 1_555
O15A Ba1 1_555 1_555
O17_2 Ba2 1_555 1_555
O20A Ba2 1_555 1_555
Ba1A O15 1_555 1_555
Ba2A O20 1_555 1_555
S1 O13 1_555 1_555
S2 O18 1_555 1_555
C3 C4 1_555 1_555
C3 C7 1_555 1_555
C5 C6 1_555 1_555
C10 C11 1_555 1_555
C10 C14 1_555 1_555
C12 C13 1_555 1_555
C17 C18 1_555 1_555
C17 C21 1_555 1_555
C19 C20 1_555 1_555
C24 C25 1_555 1_555
C24 C28 1_555 1_555
C26 C27 1_555 1_555

#END
