
#######################################################################
#
#                 Cambridge Crystallographic Data Centre
#                                CCDC 
#
#######################################################################
#
# If this CIF has been generated from an entry in the Cambridge 
# Structural Database, then it will include bibliographic, chemical, 
# crystal, experimental, refinement or atomic coordinate data resulting 
# from the CCDC's data processing and validation procedures.
#
#######################################################################

data_WACMAP
_symmetry_cell_setting           monoclinic
_symmetry_space_group_name_H-M   'P 21/c'
_symmetry_Int_Tables_number      14
_space_group_name_Hall           '-P 2ybc'
loop_
_symmetry_equiv_pos_site_id
_symmetry_equiv_pos_as_xyz
1 x,y,z
2 x,1/2-y,1/2+z
3 -x,-y,-z
4 -x,1/2+y,1/2-z
_cell_length_a                   9.73(2)
_cell_length_b                   18.24(5)
_cell_length_c                   13.43(4)
_cell_angle_alpha                90
_cell_angle_beta                 105.30(5)
_cell_angle_gamma                90
_cell_volume                     2299.01
loop_
_atom_site_label
_atom_site_type_symbol
_atom_site_fract_x
_atom_site_fract_y
_atom_site_fract_z
Cu1 Cu 0.67961(9) 0.86770(5) 0.08351(7)
O1 O 0.8060(6) 0.7670(4) 0.1273(5)
O2 O 0.6458(6) 0.6793(3) 0.0733(5)
O3 O 1.1747(5) 0.4243(3) 0.3196(4)
O4 O 1.3295(6) 0.5163(3) 0.3582(4)
N1 N 0.5395(7) 0.8593(4) 0.1709(5)
N2 N 0.5235(6) 0.8149(4) -0.0185(5)
H1 H 0.5430 0.7662 -0.0086
N3 N 0.7568(7) 0.8917(4) -0.0430(5)
C1 C 0.7684(9) 0.7005(6) 0.1181(6)
C2 C 0.8822(8) 0.6447(5) 0.1637(5)
C3 C 0.8523(8) 0.5700(5) 0.1658(7)
H2 H 0.7610 0.5527 0.1353
C4 C 0.9575(8) 0.5225(5) 0.2128(6)
H3 H 0.9351 0.4731 0.2144
C5 C 1.0947(8) 0.5440(5) 0.2578(6)
C6 C 1.1262(9) 0.6193(5) 0.2518(7)
H4 H 1.2187 0.6364 0.2782
C7 C 1.0189(9) 0.6669(4) 0.2066(6)
H5 H 1.0402 0.7165 0.2052
C8 C 1.2095(8) 0.4941(5) 0.3146(6)
C9 C 0.5645(11) 0.8750(5) 0.2718(8)
H6 H 0.6554 0.8903 0.3073
C10 C 0.4635(17) 0.8693(6) 0.3244(9)
H7 H 0.4845 0.8791 0.3948
C11 C 0.3263(15) 0.8482(7) 0.2686(12)
H8 H 0.2541 0.8453 0.3020
C12 C 0.2971(10) 0.8319(6) 0.1662(10)
H9 H 0.2072 0.8164 0.1289
C13 C 0.4105(9) 0.8397(4) 0.1195(7)
C14 C 0.3851(8) 0.8264(5) 0.0035(7)
H10 H 0.3252 0.7836 -0.0171
H11 H 0.3373 0.8683 -0.0349
C15 C 0.5261(8) 0.8306(5) -0.1248(6)
H12 H 0.4775 0.8764 -0.1481
H13 H 0.4799 0.7917 -0.1707
C16 C 0.6799(9) 0.8358(5) -0.1229(7)
H14 H 0.6882 0.8501 -0.1907
H15 H 0.7244 0.7882 -0.1066
C17 C 0.9128(9) 0.8795(6) -0.0193(8)
H16 H 0.9455 0.8910 -0.0789
H17 H 0.9337 0.8291 -0.0007
H18 H 0.9603 0.9105 0.0372
C18 C 0.7191(10) 0.9658(5) -0.0807(7)
H19 H 0.7565 0.9752 -0.1389
H20 H 0.7586 1.0004 -0.0268
H21 H 0.6173 0.9708 -0.1013
O3C O 0.8253(5) 0.9243(3) 0.1804(4)
Cu1C Cu 1.32039(9) 0.36770(5) 0.41649(7)
O5 O 0.3834(11) 0.6352(8) 0.0878(10)
H22 H 0.4646 0.6509 0.1108
C19 C 0.3833(16) 0.5576(8) 0.0983(12)
H23 H 0.4251 0.5448 0.1692
H24 H 0.4379 0.5360 0.0559
H25 H 0.2872 0.5397 0.0773
O6 O 0.0251(12) 0.8271(8) 0.3380(11)
H26 H -0.0444 0.8451 0.2970
C20 C 0.022(3) 0.8372(13) 0.4407(12)
H27 H 0.1148 0.8334 0.4878
H28 H -0.0400 0.8011 0.4579
H29 H -0.0162 0.8853 0.4456
loop_
_geom_bond_atom_site_label_1
_geom_bond_atom_site_label_2
_geom_bond_site_symmetry_1
_geom_bond_site_symmetry_2
Cu1 O1 1_555 1_555
O1 C1 1_555 1_555
O2 C1 1_555 1_555
O3 C8 1_555 1_555
O4 C8 1_555 1_555
N1 Cu1 1_555 1_555
N2 Cu1 1_555 1_555
H1 N2 1_555 1_555
N3 Cu1 1_555 1_555
C1 C2 1_555 1_555
C2 C3 1_555 1_555
C3 H2 1_555 1_555
C4 C3 1_555 1_555
H3 C4 1_555 1_555
C5 C4 1_555 1_555
C6 C5 1_555 1_555
H4 C6 1_555 1_555
C7 C2 1_555 1_555
H5 C7 1_555 1_555
C8 C5 1_555 1_555
C9 N1 1_555 1_555
H6 C9 1_555 1_555
C10 C9 1_555 1_555
H7 C10 1_555 1_555
C11 C10 1_555 1_555
H8 C11 1_555 1_555
C12 C11 1_555 1_555
H9 C12 1_555 1_555
C13 N1 1_555 1_555
C14 N2 1_555 1_555
H10 C14 1_555 1_555
H11 C14 1_555 1_555
C15 N2 1_555 1_555
H12 C15 1_555 1_555
H13 C15 1_555 1_555
C16 N3 1_555 1_555
H14 C16 1_555 1_555
H15 C16 1_555 1_555
C17 N3 1_555 1_555
H16 C17 1_555 1_555
H17 C17 1_555 1_555
H18 C17 1_555 1_555
C18 N3 1_555 1_555
H19 C18 1_555 1_555
H20 C18 1_555 1_555
H21 C18 1_555 1_555
O5 H22 1_555 1_555
C19 O5 1_555 1_555
H23 C19 1_555 1_555
H24 C19 1_555 1_555
H25 C19 1_555 1_555
O6 H26 1_555 1_555
C20 O6 1_555 1_555
H27 C20 1_555 1_555
H28 C20 1_555 1_555
H29 C20 1_555 1_555
O3C Cu1 1_555 1_555
Cu1C O3 1_555 1_555
C6 C7 1_555 1_555
C12 C13 1_555 1_555
C13 C14 1_555 1_555
C15 C16 1_555 1_555

#END
