
#######################################################################
#
#                 Cambridge Crystallographic Data Centre
#                                CCDC 
#
#######################################################################
#
# If this CIF has been generated from an entry in the Cambridge 
# Structural Database, then it will include bibliographic, chemical, 
# crystal, experimental, refinement or atomic coordinate data resulting 
# from the CCDC's data processing and validation procedures.
#
#######################################################################

data_WACNUK
_symmetry_cell_setting           monoclinic
_symmetry_space_group_name_H-M   'C 2/c'
_symmetry_Int_Tables_number      15
_space_group_name_Hall           '-C 2yn'
loop_
_symmetry_equiv_pos_site_id
_symmetry_equiv_pos_as_xyz
1 x,y,z
2 1/2+x,1/2+y,z
3 x,-y,1/2+z
4 1/2+x,1/2-y,1/2+z
5 -x,-y,-z
6 1/2-x,1/2-y,-z
7 -x,y,1/2-z
8 1/2-x,1/2+y,1/2-z
_cell_length_a                   21.0620(17)
_cell_length_b                   19.2248(17)
_cell_length_c                   15.1653(13)
_cell_angle_alpha                90
_cell_angle_beta                 122.439(2)
_cell_angle_gamma                90
_cell_volume                     5182.46
loop_
_atom_site_label
_atom_site_type_symbol
_atom_site_fract_x
_atom_site_fract_y
_atom_site_fract_z
Cd1 Cd 0.134112(12) 0.746166(12) 0.165357(19)
S1 S 0.15857(5) 0.62497(5) 0.26136(7)
S2 S 0.09362(5) 0.63947(5) 0.03314(7)
S3 S 0.10091(5) 0.84992(5) 0.03087(7)
S4 S 0.16754(5) 0.87051(5) 0.25837(7)
N1 N 0.12443(16) 0.51832(15) 0.1317(2)
N2 N 0.13714(16) 0.97333(16) 0.1230(2)
N3 N 0.00968(15) 0.75299(14) 0.1368(2)
N4 N 0.26237(16) 0.74424(16) 0.2075(2)
C1 C 0.12556(17) 0.58694(18) 0.1411(3)
C2 C 0.0972(2) 0.4850(2) 0.0299(3)
H1 H 0.0555 0.5117 -0.0247
H2 H 0.0790 0.4387 0.0299
C3 C 0.1586(2) 0.4802(2) 0.0066(3)
H3 H 0.1390 0.4584 -0.0602
H4 H 0.1996 0.4530 0.0597
H5 H 0.1762 0.5260 0.0054
C4 C 0.1508(2) 0.47040(19) 0.2204(3)
H6 H 0.1890 0.4934 0.2841
H7 H 0.1736 0.4300 0.2100
C5 C 0.0873(2) 0.4471(2) 0.2324(3)
H8 H 0.1066 0.4165 0.2914
H9 H 0.0501 0.4231 0.1704
H10 H 0.0648 0.4870 0.2431
C6 C 0.13611(17) 0.90503(18) 0.1364(3)
C7 C 0.1119(2) 1.0029(2) 0.0206(3)
H11 H 0.0939 1.0499 0.0172
H12 H 0.0703 0.9756 -0.0329
C8 C 0.1743(2) 1.0044(2) -0.0007(3)
H13 H 0.1556 1.0239 -0.0686
H14 H 0.1917 0.9578 0.0016
H15 H 0.2151 1.0322 0.0513
C9 C 0.1622(2) 1.0236(2) 0.2086(3)
H16 H 0.1869 1.0624 0.1981
H17 H 0.1986 1.0015 0.2743
C10 C 0.0969(2) 1.0505(2) 0.2145(4)
H18 H 0.1152 1.0830 0.2710
H19 H 0.0730 1.0122 0.2262
H20 H 0.0613 1.0731 0.1500
C11 C -0.02285(19) 0.81511(19) 0.1239(3)
H21 H 0.0066 0.8548 0.1403
C12 C -0.09774(19) 0.82287(19) 0.0876(3)
H22 H -0.1177 0.8671 0.0814
C13 C -0.14346(18) 0.76497(18) 0.0604(3)
C14 C -0.10968(18) 0.7008(2) 0.0759(3)
H23 H -0.1380 0.6604 0.0603
C15 C -0.03366(19) 0.69688(19) 0.1145(3)
H24 H -0.0117 0.6532 0.1255
C16 C -0.22436(19) 0.7749(2) 0.0171(3)
H25 H -0.2409 0.8203 0.0135
C17 C 0.3198(2) 0.7511(3) 0.3027(3)
H26 H 0.3106 0.7547 0.3561
C18 C 0.3938(2) 0.7533(3) 0.3295(3)
H27 H 0.4322 0.7583 0.3993
C19 C 0.41096(18) 0.74847(18) 0.2557(3)
C20 C 0.3509(2) 0.7391(3) 0.1563(4)
H28 H 0.3583 0.7336 0.1016
C21 C 0.2788(2) 0.7378(4) 0.1368(3)
H29 H 0.2391 0.7319 0.0680
C22 C 0.48905(19) 0.74927(18) 0.2836(3)
H30 H 0.5264 0.7498 0.3543
C16E C -0.27564(19) 0.7251(2) -0.0171(3)
C13E C -0.35654(18) 0.73503(18) -0.0604(3)
C12E C -0.40226(19) 0.67713(19) -0.0876(3)
C11E C -0.47715(19) 0.68489(19) -0.1239(3)
N3E N -0.50968(15) 0.74701(14) -0.1368(2)
C15E C -0.46634(19) 0.80312(19) -0.1145(3)
C14E C -0.39032(18) 0.7992(2) -0.0759(3)
H23E H -0.3620 0.8396 -0.0603
H24E H -0.4883 0.8468 -0.1255
H21E H -0.5066 0.6452 -0.1403
H22E H -0.3823 0.6329 -0.0814
H25E H -0.2591 0.6797 -0.0135
C22F C 0.51095(19) 0.74927(18) 0.2164(3)
C19F C 0.58904(18) 0.74847(18) 0.2443(3)
C18F C 0.6062(2) 0.7533(3) 0.1705(3)
C17F C 0.6802(2) 0.7511(3) 0.1973(3)
N4F N 0.73763(16) 0.74424(16) 0.2925(2)
C21F C 0.7212(2) 0.7378(4) 0.3632(3)
C20F C 0.6491(2) 0.7391(3) 0.3437(4)
H28F H 0.6417 0.7336 0.3984
H29F H 0.7609 0.7319 0.4320
H26F H 0.6894 0.7547 0.1439
H27F H 0.5678 0.7583 0.1007
H30F H 0.4736 0.7498 0.1457
Cd1E Cd -0.634112(12) 0.753834(12) -0.165357(19)
S1E S -0.65857(5) 0.87503(5) -0.26136(7)
S2E S -0.59362(5) 0.86053(5) -0.03314(7)
N1E N -0.62443(16) 0.98168(15) -0.1317(2)
C1E C -0.62556(17) 0.91306(18) -0.1411(3)
C2E C -0.5972(2) 1.0150(2) -0.0299(3)
H1E H -0.5555 0.9883 0.0247
H2E H -0.5790 1.0613 -0.0299
C3E C -0.6586(2) 1.0198(2) -0.0066(3)
H3E H -0.6390 1.0416 0.0602
H4E H -0.6996 1.0470 -0.0597
H5E H -0.6762 0.9740 -0.0054
C4E C -0.6508(2) 1.02960(19) -0.2204(3)
H6E H -0.6890 1.0066 -0.2841
H7E H -0.6736 1.0700 -0.2100
C5E C -0.5873(2) 1.0529(2) -0.2324(3)
H8E H -0.6066 1.0835 -0.2914
H9E H -0.5501 1.0769 -0.1704
H10E H -0.5648 1.0130 -0.2431
S3E S -0.60091(5) 0.65008(5) -0.03087(7)
S4E S -0.66754(5) 0.62949(5) -0.25837(7)
N2E N -0.63714(16) 0.52667(16) -0.1230(2)
C6E C -0.63611(17) 0.59497(18) -0.1364(3)
C7E C -0.6119(2) 0.4971(2) -0.0206(3)
H11E H -0.5939 0.4501 -0.0172
H12E H -0.5703 0.5244 0.0329
C8E C -0.6743(2) 0.4956(2) 0.0007(3)
H13E H -0.6556 0.4761 0.0686
H14E H -0.6917 0.5422 -0.0016
H15E H -0.7151 0.4678 -0.0513
C9E C -0.6622(2) 0.4764(2) -0.2086(3)
H16E H -0.6869 0.4376 -0.1981
H17E H -0.6986 0.4985 -0.2743
C10E C -0.5969(2) 0.4495(2) -0.2145(4)
H18E H -0.6152 0.4170 -0.2710
H19E H -0.5730 0.4878 -0.2262
H20E H -0.5613 0.4269 -0.1500
Cd1F Cd 0.865888(12) 0.746166(12) 0.334643(19)
N4E N -0.76237(16) 0.75576(16) -0.2075(2)
loop_
_geom_bond_atom_site_label_1
_geom_bond_atom_site_label_2
_geom_bond_site_symmetry_1
_geom_bond_site_symmetry_2
Cd1 S1 1_555 1_555
S1 C1 1_555 1_555
S2 Cd1 1_555 1_555
S3 Cd1 1_555 1_555
S4 Cd1 1_555 1_555
N1 C1 1_555 1_555
N2 C6 1_555 1_555
N3 Cd1 1_555 1_555
N4 Cd1 1_555 1_555
C1 S2 1_555 1_555
C2 N1 1_555 1_555
H1 C2 1_555 1_555
H2 C2 1_555 1_555
C3 C2 1_555 1_555
H3 C3 1_555 1_555
H4 C3 1_555 1_555
H5 C3 1_555 1_555
C4 N1 1_555 1_555
H6 C4 1_555 1_555
H7 C4 1_555 1_555
C5 C4 1_555 1_555
H8 C5 1_555 1_555
H9 C5 1_555 1_555
H10 C5 1_555 1_555
C6 S3 1_555 1_555
C7 N2 1_555 1_555
H11 C7 1_555 1_555
H12 C7 1_555 1_555
C8 C7 1_555 1_555
H13 C8 1_555 1_555
H14 C8 1_555 1_555
H15 C8 1_555 1_555
C9 N2 1_555 1_555
H16 C9 1_555 1_555
H17 C9 1_555 1_555
C10 C9 1_555 1_555
H18 C10 1_555 1_555
H19 C10 1_555 1_555
H20 C10 1_555 1_555
C11 N3 1_555 1_555
H21 C11 1_555 1_555
C12 C11 1_555 1_555
H22 C12 1_555 1_555
C13 C12 1_555 1_555
C14 C13 1_555 1_555
H23 C14 1_555 1_555
C15 N3 1_555 1_555
H24 C15 1_555 1_555
C16 C13 1_555 1_555
H25 C16 1_555 1_555
C17 N4 1_555 1_555
H26 C17 1_555 1_555
C18 C17 1_555 1_555
H27 C18 1_555 1_555
C19 C18 1_555 1_555
C20 C19 1_555 1_555
H28 C20 1_555 1_555
C21 N4 1_555 1_555
H29 C21 1_555 1_555
C22 C19 1_555 1_555
H30 C22 1_555 1_555
C16E C16 1_555 1_555
C13E C16E 1_555 1_555
C12E C13E 1_555 1_555
C11E C12E 1_555 1_555
N3E C11E 1_555 1_555
C15E N3E 1_555 1_555
C14E C13E 1_555 1_555
H23E C14E 1_555 1_555
H24E C15E 1_555 1_555
H21E C11E 1_555 1_555
H22E C12E 1_555 1_555
H25E C16E 1_555 1_555
C22F C22 1_555 1_555
C19F C22F 1_555 1_555
C18F C19F 1_555 1_555
C17F C18F 1_555 1_555
N4F C17F 1_555 1_555
C21F N4F 1_555 1_555
C20F C19F 1_555 1_555
H28F C20F 1_555 1_555
H29F C21F 1_555 1_555
H26F C17F 1_555 1_555
H27F C18F 1_555 1_555
H30F C22F 1_555 1_555
Cd1E N3E 1_555 1_555
S1E Cd1E 1_555 1_555
S2E Cd1E 1_555 1_555
N1E C1E 1_555 1_555
C1E S1E 1_555 1_555
C2E N1E 1_555 1_555
H1E C2E 1_555 1_555
H2E C2E 1_555 1_555
C3E C2E 1_555 1_555
H3E C3E 1_555 1_555
H4E C3E 1_555 1_555
H5E C3E 1_555 1_555
C4E N1E 1_555 1_555
H6E C4E 1_555 1_555
H7E C4E 1_555 1_555
C5E C4E 1_555 1_555
H8E C5E 1_555 1_555
H9E C5E 1_555 1_555
H10E C5E 1_555 1_555
S3E Cd1E 1_555 1_555
S4E Cd1E 1_555 1_555
N2E C6E 1_555 1_555
C6E S3E 1_555 1_555
C7E N2E 1_555 1_555
H11E C7E 1_555 1_555
H12E C7E 1_555 1_555
C8E C7E 1_555 1_555
H13E C8E 1_555 1_555
H14E C8E 1_555 1_555
H15E C8E 1_555 1_555
C9E N2E 1_555 1_555
H16E C9E 1_555 1_555
H17E C9E 1_555 1_555
C10E C9E 1_555 1_555
H18E C10E 1_555 1_555
H19E C10E 1_555 1_555
H20E C10E 1_555 1_555
Cd1F N4F 1_555 1_555
N4E Cd1E 1_555 1_555
S4 C6 1_555 1_555
C14 C15 1_555 1_555
C20 C21 1_555 1_555
C15E C14E 1_555 1_555
C21F C20F 1_555 1_555
S2E C1E 1_555 1_555
S4E C6E 1_555 1_555

#END
