
#######################################################################
#
#                 Cambridge Crystallographic Data Centre
#                                CCDC 
#
#######################################################################
#
# If this CIF has been generated from an entry in the Cambridge 
# Structural Database, then it will include bibliographic, chemical, 
# crystal, experimental, refinement or atomic coordinate data resulting 
# from the CCDC's data processing and validation procedures.
#
#######################################################################

data_WACPUM
_symmetry_cell_setting           tetragonal
_symmetry_space_group_name_H-M   'I 41'
_symmetry_Int_Tables_number      80
_space_group_name_Hall           'I 4bw'
loop_
_symmetry_equiv_pos_site_id
_symmetry_equiv_pos_as_xyz
1 x,y,z
2 1/2-x,1/2-y,1/2+z
3 -y,1/2+x,1/4+z
4 1/2+y,-x,3/4+z
5 1/2+x,1/2+y,1/2+z
6 -x,-y,z
7 1/2-y,x,3/4+z
8 y,1/2-x,1/4+z
_cell_length_a                   12.513(3)
_cell_length_b                   12.513(3)
_cell_length_c                   55.192(19)
_cell_angle_alpha                90
_cell_angle_beta                 90
_cell_angle_gamma                90
_cell_volume                     8641.7
loop_
_atom_site_label
_atom_site_type_symbol
_atom_site_fract_x
_atom_site_fract_y
_atom_site_fract_z
Co1 Co 0.5000 1.0000 0.25098(3)
S1 S 0.8447(4) 0.8441(5) 0.25966(11)
C1 C 0.7329(10) 0.9026(9) 0.2539(2)
N1 N 0.6554(8) 0.9453(7) 0.25114(14)
O1 O 0.3462(8) 0.7187(7) 0.35833(16)
O2 O 0.4687(9) 0.6068(7) 0.34292(14)
O3 O 0.3127(11) 0.5833(10) 0.1732(2)
O4 O 0.4676(8) 0.6180(6) 0.15642(16)
N3 N 0.4585(7) 0.8875(7) 0.27948(15)
N4 N 0.4584(9) 0.8824(7) 0.22353(15)
C3 C 0.5019(10) 0.7898(11) 0.2812(2)
H1 H 0.5443 0.7652 0.2685
C4 C 0.4855(10) 0.7216(9) 0.3018(3)
H2 H 0.5188 0.6552 0.3027
C5 C 0.4214(9) 0.7554(10) 0.31966(18)
C6 C 0.3763(7) 0.8549(10) 0.31876(18)
H3 H 0.3339 0.8794 0.3314
C7 C 0.3953(8) 0.9193(8) 0.2984(2)
H4 H 0.3636 0.9864 0.2977
C8 C 0.4041(11) 0.6932(11) 0.3420(3)
C9 C 0.4552(14) 0.5335(12) 0.3638(2)
H5 H 0.4513 0.5736 0.3788
H6 H 0.3902 0.4920 0.3620
C10 C 0.5303(11) 0.8519(10) 0.2065(3)
H7 H 0.5940 0.8901 0.2062
C11 C 0.5206(14) 0.7713(12) 0.1896(2)
H8 H 0.5742 0.7531 0.1787
C12 C 0.4175(12) 0.7176(10) 0.19065(18)
C13 C 0.3454(9) 0.7470(9) 0.2074(2)
H9 H 0.2804 0.7113 0.2083
C14 C 0.3673(9) 0.8310(8) 0.22351(16)
H10 H 0.3151 0.8509 0.2346
C15 C 0.3922(15) 0.6294(10) 0.1738(3)
C16 C 0.4559(11) 0.5369(11) 0.1378(2)
H11 H 0.3899 0.4979 0.1404
H12 H 0.4514 0.5713 0.1220
C9E C 0.5448(14) 0.4665(12) 0.3638(2)
O2E O 0.5313(9) 0.3932(7) 0.34292(14)
C8E C 0.5959(11) 0.3068(11) 0.3420(3)
O1E O 0.6538(8) 0.2813(7) 0.35833(16)
C5E C 0.5786(9) 0.2446(10) 0.31966(18)
C4E C 0.5145(10) 0.2784(9) 0.3018(3)
C3E C 0.4981(10) 0.2102(11) 0.2812(2)
N3E N 0.5415(7) 0.1125(7) 0.27948(15)
C7E C 0.6047(8) 0.0807(8) 0.2984(2)
C6E C 0.6237(7) 0.1451(10) 0.31876(18)
H3E H 0.6661 0.1206 0.3314
H4E H 0.6364 0.0136 0.2977
H1E H 0.4557 0.2348 0.2685
H2E H 0.4812 0.3448 0.3027
H5E H 0.5487 0.4264 0.3788
H6E H 0.6098 0.5080 0.3620
C16E C 0.5441(11) 0.4631(11) 0.1378(2)
O4E O 0.5324(8) 0.3820(6) 0.15642(16)
C15E C 0.6078(15) 0.3706(10) 0.1738(3)
O3E O 0.6873(11) 0.4167(10) 0.1732(2)
C12E C 0.5825(12) 0.2824(10) 0.19065(18)
C11E C 0.4794(14) 0.2287(12) 0.1896(2)
C10E C 0.4697(11) 0.1481(10) 0.2065(3)
N4E N 0.5416(9) 0.1176(7) 0.22353(15)
C14E C 0.6327(9) 0.1690(8) 0.22351(16)
C13E C 0.6546(9) 0.2530(9) 0.2074(2)
H9E H 0.7196 0.2887 0.2083
H10E H 0.6849 0.1491 0.2346
H7E H 0.4060 0.1099 0.2062
H8E H 0.4258 0.2469 0.1787
H11E H 0.6101 0.5021 0.1404
H12E H 0.5486 0.4287 0.1220
S1E S 0.1553(4) 1.1559(5) 0.25966(11)
C1E C 0.2671(10) 1.0974(9) 0.2539(2)
N1E N 0.3446(8) 1.0547(7) 0.25114(14)
N3E_2 N 0.5415(7) 1.1125(7) 0.27948(15)
N4E_2 N 0.5416(9) 1.1176(7) 0.22353(15)
Co1_2 Co 0.5000 0.0000 0.25098(3)
Co2 Co 0.0000 1.0000 0.35271(3)
S2 S 0.3433(3) 1.1582(5) 0.34419(11)
C2 C 0.2321(10) 1.0971(9) 0.34979(19)
N2 N 0.1522(8) 1.0542(6) 0.35250(14)
O5 O 0.1881(11) 0.5838(11) 0.4302(3)
O6 O 0.0336(8) 0.6163(6) 0.44670(15)
O7 O 0.1535(8) 0.7195(7) 0.24574(16)
O8 O 0.0364(9) 0.6048(7) 0.26099(14)
N5 N 0.0408(9) 0.8812(6) 0.38024(15)
N6 N 0.0415(7) 0.8864(8) 0.32355(15)
C17 C 0.1299(10) 0.8295(8) 0.37978(18)
H13 H 0.1796 0.8465 0.3679
C18 C 0.1554(10) 0.7477(9) 0.3967(2)
H14 H 0.2224 0.7155 0.3966
C19 C 0.0798(13) 0.7173(10) 0.41309(19)
C20 C -0.0143(11) 0.7680(11) 0.4143(2)
H15 H -0.0648 0.7506 0.4261
C21 C -0.0338(11) 0.8505(11) 0.3968(2)
H16 H -0.1000 0.8843 0.3968
C22 C 0.1116(14) 0.6288(9) 0.4302(3)
C23 C 0.0438(11) 0.5340(10) 0.4652(2)
H17 H 0.1083 0.4928 0.4623
H18 H 0.0504 0.5675 0.4810
C24 C 0.1052(8) 0.9183(8) 0.3056(2)
H19 H 0.1398 0.9839 0.3068
C25 C 0.1209(8) 0.8574(11) 0.2854(2)
H20 H 0.1614 0.8845 0.2727
C26 C 0.0778(9) 0.7563(9) 0.28349(17)
C27 C 0.0152(10) 0.7234(9) 0.3032(3)
H21 H -0.0148 0.6554 0.3031
C28 C -0.0026(9) 0.7897(11) 0.3225(2)
H22 H -0.0462 0.7667 0.3351
C29 C 0.0963(11) 0.6935(10) 0.2616(2)
C30 C 0.0474(12) 0.5391(10) 0.2391(3)
H23 H 0.1145 0.5003 0.2394
H24 H 0.0457 0.5837 0.2247
C23E C -0.0438(11) 0.4660(10) 0.4652(2)
O6E O -0.0336(8) 0.3837(6) 0.44670(15)
C22E C -0.1116(14) 0.3712(9) 0.4302(3)
O5E O -0.1881(11) 0.4162(11) 0.4302(3)
C19E C -0.0798(13) 0.2827(10) 0.41309(19)
C18E C -0.1554(10) 0.2523(9) 0.3967(2)
C17E C -0.1299(10) 0.1705(8) 0.37978(18)
N5E N -0.0408(9) 0.1188(6) 0.38024(15)
C21E C 0.0338(11) 0.1495(11) 0.3968(2)
C20E C 0.0143(11) 0.2320(11) 0.4143(2)
H15E H 0.0648 0.2494 0.4261
H16E H 0.1000 0.1157 0.3968
H13E H -0.1796 0.1535 0.3679
H14E H -0.2224 0.2845 0.3966
H17E H -0.1083 0.5072 0.4623
H18E H -0.0504 0.4325 0.4810
C30E C -0.0474(12) 0.4609(10) 0.2391(3)
O8E O -0.0364(9) 0.3952(7) 0.26099(14)
C29E C -0.0963(11) 0.3065(10) 0.2616(2)
O7E O -0.1535(8) 0.2805(7) 0.24574(16)
C26E C -0.0778(9) 0.2437(9) 0.28349(17)
C25E C -0.1209(8) 0.1426(11) 0.2854(2)
C24E C -0.1052(8) 0.0817(8) 0.3056(2)
N6E N -0.0415(7) 0.1136(8) 0.32355(15)
C28E C 0.0026(9) 0.2103(11) 0.3225(2)
C27E C -0.0152(10) 0.2766(9) 0.3032(3)
H21E H 0.0148 0.3446 0.3031
H22E H 0.0462 0.2333 0.3351
H19E H -0.1398 0.0161 0.3068
H20E H -0.1614 0.1155 0.2727
H23E H -0.1145 0.4997 0.2394
H24E H -0.0457 0.4163 0.2247
S2E S -0.3433(3) 0.8418(5) 0.34419(11)
C2E C -0.2321(10) 0.9029(9) 0.34979(19)
N2E N -0.1522(8) 0.9458(6) 0.35250(14)
N5E_2 N -0.0408(9) 1.1188(6) 0.38024(15)
N6E_2 N -0.0415(7) 1.1136(8) 0.32355(15)
Co2_2 Co 0.0000 0.0000 0.35271(3)
loop_
_geom_bond_atom_site_label_1
_geom_bond_atom_site_label_2
_geom_bond_site_symmetry_1
_geom_bond_site_symmetry_2
Co1 N1 1_555 1_555
Co2 N2 1_555 1_555
S1 C1 1_555 1_555
S2 C2 1_555 1_555
C1 N1 1_555 1_555
C2 N2 1_555 1_555
O1 C8 1_555 1_555
O2 C8 1_555 1_555
O3 C15 1_555 1_555
O4 C15 1_555 1_555
O5 C22 1_555 1_555
O6 C22 1_555 1_555
O7 C29 1_555 1_555
O8 C29 1_555 1_555
N3 Co1 1_555 1_555
N4 Co1 1_555 1_555
N5 Co2 1_555 1_555
N6 Co2 1_555 1_555
C3 N3 1_555 1_555
H1 C3 1_555 1_555
C4 C3 1_555 1_555
H2 C4 1_555 1_555
C5 C4 1_555 1_555
C6 C5 1_555 1_555
H3 C6 1_555 1_555
C7 N3 1_555 1_555
H4 C7 1_555 1_555
C8 C5 1_555 1_555
C9 O2 1_555 1_555
H5 C9 1_555 1_555
H6 C9 1_555 1_555
C10 N4 1_555 1_555
H7 C10 1_555 1_555
C11 C10 1_555 1_555
H8 C11 1_555 1_555
C12 C11 1_555 1_555
C13 C12 1_555 1_555
H9 C13 1_555 1_555
C14 N4 1_555 1_555
H10 C14 1_555 1_555
C15 C12 1_555 1_555
C16 O4 1_555 1_555
H11 C16 1_555 1_555
H12 C16 1_555 1_555
C17 N5 1_555 1_555
H13 C17 1_555 1_555
C18 C17 1_555 1_555
H14 C18 1_555 1_555
C19 C18 1_555 1_555
C20 C19 1_555 1_555
H15 C20 1_555 1_555
C21 N5 1_555 1_555
H16 C21 1_555 1_555
C22 C19 1_555 1_555
C23 O6 1_555 1_555
H17 C23 1_555 1_555
H18 C23 1_555 1_555
C24 N6 1_555 1_555
H19 C24 1_555 1_555
C25 C24 1_555 1_555
H20 C25 1_555 1_555
C26 C25 1_555 1_555
C27 C26 1_555 1_555
H21 C27 1_555 1_555
C28 N6 1_555 1_555
H22 C28 1_555 1_555
C29 C26 1_555 1_555
C30 O8 1_555 1_555
H23 C30 1_555 1_555
H24 C30 1_555 1_555
C9E C9 1_555 1_555
O2E C9E 1_555 1_555
C8E O2E 1_555 1_555
O1E C8E 1_555 1_555
C5E C8E 1_555 1_555
C4E C5E 1_555 1_555
C3E C4E 1_555 1_555
N3E C3E 1_555 1_555
C7E N3E 1_555 1_555
C6E C5E 1_555 1_555
H3E C6E 1_555 1_555
H4E C7E 1_555 1_555
H1E C3E 1_555 1_555
H2E C4E 1_555 1_555
H5E C9E 1_555 1_555
H6E C9E 1_555 1_555
C16E C16 1_555 1_555
O4E C16E 1_555 1_555
C15E O4E 1_555 1_555
O3E C15E 1_555 1_555
C12E C15E 1_555 1_555
C11E C12E 1_555 1_555
C10E C11E 1_555 1_555
N4E C10E 1_555 1_555
C14E N4E 1_555 1_555
C13E C12E 1_555 1_555
H9E C13E 1_555 1_555
H10E C14E 1_555 1_555
H7E C10E 1_555 1_555
H8E C11E 1_555 1_555
H11E C16E 1_555 1_555
H12E C16E 1_555 1_555
C23E C23 1_555 1_555
O6E C23E 1_555 1_555
C22E O6E 1_555 1_555
O5E C22E 1_555 1_555
C19E C22E 1_555 1_555
C18E C19E 1_555 1_555
C17E C18E 1_555 1_555
N5E C17E 1_555 1_555
C21E N5E 1_555 1_555
C20E C19E 1_555 1_555
H15E C20E 1_555 1_555
H16E C21E 1_555 1_555
H13E C17E 1_555 1_555
H14E C18E 1_555 1_555
H17E C23E 1_555 1_555
H18E C23E 1_555 1_555
C30E C30 1_555 1_555
O8E C30E 1_555 1_555
C29E O8E 1_555 1_555
O7E C29E 1_555 1_555
C26E C29E 1_555 1_555
C25E C26E 1_555 1_555
C24E C25E 1_555 1_555
N6E C24E 1_555 1_555
C28E N6E 1_555 1_555
C27E C26E 1_555 1_555
H21E C27E 1_555 1_555
H22E C28E 1_555 1_555
H19E C24E 1_555 1_555
H20E C25E 1_555 1_555
H23E C30E 1_555 1_555
H24E C30E 1_555 1_555
S1E C1E 1_555 1_555
C1E N1E 1_555 1_555
N1E Co1 1_555 1_555
S2E C2E 1_555 1_555
C2E N2E 1_555 1_555
N2E Co2 1_555 1_555
N3E_2 Co1 1_555 1_555
N4E_2 Co1 1_555 1_555
N5E_2 Co2 1_555 1_555
N6E_2 Co2 1_555 1_555
Co1_2 N3E 1_555 1_555
Co2_2 N5E 1_555 1_555
C6 C7 1_555 1_555
C13 C14 1_555 1_555
C20 C21 1_555 1_555
C27 C28 1_555 1_555
C7E C6E 1_555 1_555
N4E Co1_2 1_555 1_555
C14E C13E 1_555 1_555
C21E C20E 1_555 1_555
N6E Co2_2 1_555 1_555
C28E C27E 1_555 1_555

#END
