
#######################################################################
#
#                 Cambridge Crystallographic Data Centre
#                                CCDC 
#
#######################################################################
#
# If this CIF has been generated from an entry in the Cambridge 
# Structural Database, then it will include bibliographic, chemical, 
# crystal, experimental, refinement or atomic coordinate data resulting 
# from the CCDC's data processing and validation procedures.
#
#######################################################################

data_WACPIA
_symmetry_cell_setting           orthorhombic
_symmetry_space_group_name_H-M   'F d d 2'
_symmetry_Int_Tables_number      43
_space_group_name_Hall           'F 2 -2d'
loop_
_symmetry_equiv_pos_site_id
_symmetry_equiv_pos_as_xyz
1 x,y,z
2 -x,-y,z
3 1/4-x,1/4+y,1/4+z
4 3/4+x,3/4-y,1/4+z
5 x,1/2+y,1/2+z
6 -x,1/2-y,1/2+z
7 1/4-x,3/4+y,3/4+z
8 3/4+x,1/4-y,3/4+z
9 1/2+x,y,1/2+z
10 1/2-x,-y,1/2+z
11 3/4-x,1/4+y,3/4+z
12 1/4+x,3/4-y,3/4+z
13 1/2+x,1/2+y,z
14 1/2-x,1/2-y,z
15 3/4-x,3/4+y,1/4+z
16 1/4+x,1/4-y,1/4+z
_cell_length_a                   13.5612(18)
_cell_length_b                   52.231(7)
_cell_length_c                   11.9567(16)
_cell_angle_alpha                90
_cell_angle_beta                 90
_cell_angle_gamma                90
_cell_volume                     8469.11
loop_
_atom_site_label
_atom_site_type_symbol
_atom_site_fract_x
_atom_site_fract_y
_atom_site_fract_z
Zn1 Zn 0.39164(4) 0.067743(9) 0.87104(5)
O1 O 0.3909(3) 0.02513(9) 0.7495(5)
O2 O 0.2933(3) 0.03964(6) 0.8809(4)
C1 C 0.3164(4) 0.02316(8) 0.8081(5)
C2 C 0.2481(4) 0.00057(9) 0.7928(4)
C3 C 0.1646(3) -0.00242(9) 0.8571(5)
H1 H 0.1479 0.0099 0.9099
C4 C 0.1046(4) -0.02406(9) 0.8429(4)
H2 H 0.0494 -0.0262 0.8882
C5 C 0.1264(3) -0.04230(9) 0.7623(4)
C6 C 0.2095(4) -0.03824(9) 0.6962(5)
H3 H 0.2253 -0.0501 0.6409
C7 C 0.2686(4) -0.01718(9) 0.7109(5)
H4 H 0.3233 -0.0149 0.6650
C8 C 0.0655(4) -0.06557(9) 0.7473(4)
C9 C -0.0376(4) -0.06497(9) 0.7581(4)
H5 H -0.0689 -0.0498 0.7777
C10 C -0.0924(3) -0.08659(9) 0.7401(4)
H6 H -0.1606 -0.0859 0.7477
C11 C -0.0483(3) -0.10952(8) 0.7108(4)
C12 C 0.0530(4) -0.11061(9) 0.7008(5)
H7 H 0.0837 -0.1259 0.6820
C13 C 0.1086(4) -0.08876(10) 0.7189(5)
H8 H 0.1768 -0.0897 0.7117
C14 C -0.1100(3) -0.13293(9) 0.6847(4)
C15 C 0.5119(5) 0.07000(12) 0.6604(6)
H9 H 0.5455 0.0564 0.6932
C16 C 0.5417(5) 0.07816(15) 0.5574(6)
H10 H 0.5959 0.0708 0.5223
C17 C 0.4887(5) 0.09769(14) 0.5066(6)
H11 H 0.5061 0.1036 0.4359
C18 C 0.4104(5) 0.10811(11) 0.5627(6)
H12 H 0.3728 0.1210 0.5300
C19 C 0.3883(4) 0.09938(10) 0.6668(5)
H13 H 0.3363 0.1070 0.7051
C20 C 0.5964(4) 0.07399(12) 0.9472(6)
H14 H 0.5877 0.0906 0.9210
C21 C 0.6892(5) 0.06647(16) 0.9873(7)
H15 H 0.7422 0.0777 0.9845
C22 C 0.7010(5) 0.04286(15) 1.0300(6)
H16 H 0.7621 0.0377 1.0571
C23 C 0.6229(6) 0.02654(14) 1.0333(8)
H17 H 0.6289 0.0104 1.0652
C24 C 0.5349(5) 0.03449(11) 0.9883(6)
H18 H 0.4824 0.0230 0.9872
O3 O -0.1978(3) -0.13080(7) 0.6678(4)
O4 O -0.0618(2) -0.15424(6) 0.6786(3)
N1 N 0.4371(3) 0.08055(7) 0.7163(4)
N2 N 0.5211(3) 0.05789(8) 0.9458(4)
O1B O -0.1409(3) 0.27513(9) 0.9995(5)
O2B O -0.0433(3) 0.28964(6) 1.1309(4)
C1B C -0.0664(4) 0.27316(8) 1.0581(5)
C2B C 0.0019(4) 0.25057(9) 1.0428(4)
C3B C 0.0854(3) 0.24758(9) 1.1071(5)
H1B H 0.1021 0.2599 1.1599
C4B C 0.1454(4) 0.22594(9) 1.0929(4)
H2B H 0.2006 0.2238 1.1382
C5B C 0.1236(3) 0.20770(9) 1.0123(4)
C6B C 0.0405(4) 0.21176(9) 0.9462(5)
H3B H 0.0247 0.1999 0.8909
C7B C -0.0186(4) 0.23282(9) 0.9609(5)
H4B H -0.0733 0.2351 0.9150
C8B C 0.1845(4) 0.18443(9) 0.9973(4)
C9B C 0.2876(4) 0.18503(9) 1.0081(4)
H5B H 0.3189 0.2002 1.0277
C10B C 0.3424(3) 0.16341(9) 0.9901(4)
H6B H 0.4106 0.1641 0.9977
C11B C 0.2983(3) 0.14048(8) 0.9608(4)
C12B C 0.1970(4) 0.13939(9) 0.9508(5)
H7B H 0.1663 0.1241 0.9320
C13B C 0.1414(4) 0.16124(10) 0.9689(5)
H8B H 0.0732 0.1603 0.9617
C14B C 0.3600(3) 0.11707(9) 0.9347(4)
O3B O 0.4478(3) 0.11920(7) 0.9178(4)
O4B O 0.3118(2) 0.09576(6) 0.9286(3)
Zn1B Zn -0.14164(4) 0.317743(9) 1.12104(5)
C15B C -0.2619(5) 0.32000(12) 0.9104(6)
H9B H -0.2955 0.3064 0.9432
C16B C -0.2917(5) 0.32816(15) 0.8074(6)
H10B H -0.3459 0.3208 0.7723
C17B C -0.2387(5) 0.34769(14) 0.7566(6)
H11B H -0.2561 0.3536 0.6859
C18B C -0.1604(5) 0.35811(11) 0.8127(6)
H12B H -0.1228 0.3710 0.7800
C19B C -0.1383(4) 0.34938(10) 0.9168(5)
H13B H -0.0863 0.3570 0.9551
N1B N -0.1871(3) 0.33055(7) 0.9663(4)
C20B C -0.3464(4) 0.32399(12) 1.1972(6)
H14B H -0.3377 0.3406 1.1710
C21B C -0.4392(5) 0.31647(16) 1.2373(7)
H15B H -0.4922 0.3277 1.2345
C22B C -0.4510(5) 0.29286(15) 1.2800(6)
H16B H -0.5121 0.2877 1.3071
C23B C -0.3729(6) 0.27654(14) 1.2833(8)
H17B H -0.3789 0.2604 1.3152
C24B C -0.2849(5) 0.28449(11) 1.2383(6)
H18B H -0.2324 0.2730 1.2372
N2B N -0.2711(3) 0.30789(8) 1.1958(4)
Zn1F Zn -0.14164(4) -0.182257(9) 0.62104(5)
O4D O -0.0618(2) 0.34576(6) 1.1786(3)
O5 O 0.5000 0.0000 0.5827(5)
H19 H 0.5380 -0.0087 0.6245
H19A H 0.4620 0.0087 0.6245
loop_
_geom_bond_atom_site_label_1
_geom_bond_atom_site_label_2
_geom_bond_site_symmetry_1
_geom_bond_site_symmetry_2
Zn1 O2 1_555 1_555
O1 C1 1_555 1_555
O2 C1 1_555 1_555
C1 C2 1_555 1_555
C2 C3 1_555 1_555
C3 H1 1_555 1_555
C4 C3 1_555 1_555
H2 C4 1_555 1_555
C5 C4 1_555 1_555
C6 C5 1_555 1_555
H3 C6 1_555 1_555
C7 C2 1_555 1_555
H4 C7 1_555 1_555
C8 C5 1_555 1_555
C9 C8 1_555 1_555
H5 C9 1_555 1_555
C10 C9 1_555 1_555
H6 C10 1_555 1_555
C11 C10 1_555 1_555
C12 C11 1_555 1_555
H7 C12 1_555 1_555
C13 C8 1_555 1_555
H8 C13 1_555 1_555
C14 C11 1_555 1_555
C15 H9 1_555 1_555
C16 C15 1_555 1_555
H10 C16 1_555 1_555
C17 C16 1_555 1_555
H11 C17 1_555 1_555
C18 C17 1_555 1_555
H12 C18 1_555 1_555
C19 C18 1_555 1_555
H13 C19 1_555 1_555
C20 H14 1_555 1_555
C21 C20 1_555 1_555
H15 C21 1_555 1_555
C22 C21 1_555 1_555
H16 C22 1_555 1_555
C23 C22 1_555 1_555
H17 C23 1_555 1_555
C24 C23 1_555 1_555
H18 C24 1_555 1_555
O3 C14 1_555 1_555
O4 C14 1_555 1_555
N1 Zn1 1_555 1_555
N2 Zn1 1_555 1_555
O5 H19 1_555 1_555
H19A O5 1_555 1_555
O1B C1B 1_555 1_555
O2B C1B 1_555 1_555
C1B C2B 1_555 1_555
C2B C3B 1_555 1_555
C3B H1B 1_555 1_555
C4B C3B 1_555 1_555
H2B C4B 1_555 1_555
C5B C4B 1_555 1_555
C6B C5B 1_555 1_555
H3B C6B 1_555 1_555
C7B C2B 1_555 1_555
H4B C7B 1_555 1_555
C8B C5B 1_555 1_555
C9B C8B 1_555 1_555
H5B C9B 1_555 1_555
C10B C9B 1_555 1_555
H6B C10B 1_555 1_555
C11B C10B 1_555 1_555
C12B C11B 1_555 1_555
H7B C12B 1_555 1_555
C13B C8B 1_555 1_555
H8B C13B 1_555 1_555
C14B C11B 1_555 1_555
O3B C14B 1_555 1_555
O4B Zn1 1_555 1_555
Zn1B O2B 1_555 1_555
C15B H9B 1_555 1_555
C16B C15B 1_555 1_555
H10B C16B 1_555 1_555
C17B C16B 1_555 1_555
H11B C17B 1_555 1_555
C18B C17B 1_555 1_555
H12B C18B 1_555 1_555
C19B C18B 1_555 1_555
H13B C19B 1_555 1_555
N1B Zn1B 1_555 1_555
C20B H14B 1_555 1_555
C21B C20B 1_555 1_555
H15B C21B 1_555 1_555
C22B C21B 1_555 1_555
H16B C22B 1_555 1_555
C23B C22B 1_555 1_555
H17B C23B 1_555 1_555
C24B C23B 1_555 1_555
H18B C24B 1_555 1_555
N2B Zn1B 1_555 1_555
Zn1F O4 1_555 1_555
O4D Zn1B 1_555 1_555
C6 C7 1_555 1_555
C12 C13 1_555 1_555
C15 N1 1_555 1_555
C19 N1 1_555 1_555
C20 N2 1_555 1_555
C24 N2 1_555 1_555
C6B C7B 1_555 1_555
C12B C13B 1_555 1_555
C14B O4B 1_555 1_555
C15B N1B 1_555 1_555
C19B N1B 1_555 1_555
C20B N2B 1_555 1_555
C24B N2B 1_555 1_555

#END
