
#######################################################################
#
#                 Cambridge Crystallographic Data Centre
#                                CCDC 
#
#######################################################################
#
# If this CIF has been generated from an entry in the Cambridge 
# Structural Database, then it will include bibliographic, chemical, 
# crystal, experimental, refinement or atomic coordinate data resulting 
# from the CCDC's data processing and validation procedures.
#
#######################################################################

data_WACQAT
_symmetry_cell_setting           triclinic
_symmetry_space_group_name_H-M   'P -1'
_symmetry_Int_Tables_number      2
_space_group_name_Hall           '-P 1'
loop_
_symmetry_equiv_pos_site_id
_symmetry_equiv_pos_as_xyz
1 x,y,z
2 -x,-y,-z
_cell_length_a                   9.027(2)
_cell_length_b                   11.378(3)
_cell_length_c                   11.563(3)
_cell_angle_alpha                114.914(5)
_cell_angle_beta                 94.303(5)
_cell_angle_gamma                103.437(5)
_cell_volume                     1027.3
loop_
_atom_site_label
_atom_site_type_symbol
_atom_site_fract_x
_atom_site_fract_y
_atom_site_fract_z
Co1 Co 1.0000 1.0000 0.0000
S1 S 0.9084(3) 1.43218(16) 0.17868(18)
N1 N 0.9355(5) 0.9404(4) 0.1556(4)
N2 N 0.2411(5) 0.1070(4) 0.1053(4)
N3 N 0.9420(5) 1.1758(4) 0.0911(4)
O1 O 0.8436(4) 0.7376(3) 0.4556(3)
O2 O 0.7547(5) 0.9157(4) 0.5477(4)
O3 O 0.6849(4) 0.4705(3) 0.4212(3)
O4 O 0.7668(4) 0.2916(3) 0.4000(4)
C1 C 0.8626(6) 1.0120(5) 0.2434(5)
H1 H 0.8387 1.0843 0.2365
C2 C 0.8209(6) 0.9847(5) 0.3435(5)
H2 H 0.7727 1.0392 0.4036
C3 C 0.8513(6) 0.8758(5) 0.3541(5)
C4 C 0.9249(6) 0.8014(5) 0.2617(5)
H3 H 0.9477 0.7270 0.2648
C5 C 0.9644(6) 0.8351(5) 0.1667(5)
H4 H 1.0140 0.7826 0.1063
C6 C 0.8105(6) 0.8486(5) 0.4632(5)
C7 C 0.8114(6) 0.7014(5) 0.5583(5)
H5 H 0.7081 0.7051 0.5741
H6 H 0.8860 0.7639 0.6380
C8 C 0.8224(6) 0.5612(5) 0.5165(5)
H7 H 0.9142 0.5513 0.4793
H8 H 0.8290 0.5415 0.5903
C9 C 0.6737(6) 0.3385(5) 0.3684(5)
C10 C 0.5290(6) 0.2574(5) 0.2697(5)
C11 C 0.4688(6) 0.1224(5) 0.2353(5)
H9 H 0.5239 0.0787 0.2665
C12 C 0.3267(7) 0.0528(5) 0.1542(5)
H10 H 0.2877 -0.0387 0.1322
C13 C 0.3031(6) 0.2371(5) 0.1355(5)
H11 H 0.2479 0.2771 0.0993
C14 C 0.4438(6) 0.3154(5) 0.2173(5)
H12 H 0.4812 0.4064 0.2370
C15 C 0.9272(6) 1.2829(5) 0.1283(5)
N1A N 1.0645(5) 1.0596(4) -0.1556(4)
N2A N 1.7589(5) 1.8930(4) -0.1053(4)
O1A O 1.1564(4) 1.2624(3) -0.4556(3)
O2A O 1.2453(5) 1.0843(4) -0.5477(4)
O3A O 1.3151(4) 1.5295(3) -0.4212(3)
O4A O 1.2332(4) 1.7084(3) -0.4000(4)
C1A C 1.1374(6) 0.9880(5) -0.2434(5)
H1A H 1.1613 0.9157 -0.2365
C2A C 1.1791(6) 1.0153(5) -0.3435(5)
H2A H 1.2273 0.9608 -0.4036
C3A C 1.1487(6) 1.1242(5) -0.3541(5)
C4A C 1.0751(6) 1.1986(5) -0.2617(5)
H3A H 1.0523 1.2730 -0.2648
C5A C 1.0356(6) 1.1649(5) -0.1667(5)
H4A H 0.9860 1.2174 -0.1063
C6A C 1.1895(6) 1.1514(5) -0.4632(5)
C7A C 1.1886(6) 1.2986(5) -0.5583(5)
H5A H 1.2919 1.2949 -0.5741
H6A H 1.1140 1.2361 -0.6380
C8A C 1.1776(6) 1.4388(5) -0.5165(5)
H7A H 1.0858 1.4487 -0.4793
H8A H 1.1710 1.4585 -0.5903
C9A C 1.3263(6) 1.6615(5) -0.3684(5)
C10A C 1.4710(6) 1.7426(5) -0.2697(5)
C11A C 1.5312(6) 1.8776(5) -0.2353(5)
H9A H 1.4761 1.9213 -0.2665
C12A C 1.6733(7) 1.9472(5) -0.1542(5)
H10A H 1.7123 2.0387 -0.1322
C13A C 1.6969(6) 1.7629(5) -0.1355(5)
H11A H 1.7521 1.7229 -0.0993
C14A C 1.5562(6) 1.6846(5) -0.2173(5)
H12A H 1.5188 1.5936 -0.2370
S1A S 1.0916(3) 0.56782(16) -0.17868(18)
N3A N 1.0580(5) 0.8242(4) -0.0911(4)
C15A C 1.0728(6) 0.7171(5) -0.1283(5)
N2_2 N 1.2411(5) 1.1070(4) 0.1053(4)
N2A_2 N 0.7589(5) 0.8930(4) -0.1053(4)
Co1_2 Co 0.0000 0.0000 0.0000
Co1_3 Co 2.0000 2.0000 0.0000
C16 C 0.5914(19) 0.3953(10) 0.8554(13)
H13 H 0.6904 0.4625 0.9032
H14 H 0.5085 0.4326 0.8886
C17 C 0.576(2) 0.3542(11) 0.7135(14)
H15 H 0.4686 0.3244 0.6701
H16 H 0.6350 0.4262 0.6965
C18 C 0.6449(15) 0.241(2) 0.6768(13)
H17 H 0.7575 0.2731 0.6965
H18 H 0.6095 0.1775 0.5854
C19 C 0.5830(14) 0.1802(9) 0.7618(15)
H19 H 0.4791 0.1186 0.7218
H20 H 0.6498 0.1313 0.7787
O5 O 0.5817(15) 0.2807(14) 0.8657(12)
loop_
_geom_bond_atom_site_label_1
_geom_bond_atom_site_label_2
_geom_bond_site_symmetry_1
_geom_bond_site_symmetry_2
Co1 N1 1_555 1_555
S1 C15 1_555 1_555
N1 C1 1_555 1_555
N2 C12 1_555 1_555
N3 Co1 1_555 1_555
O1 C6 1_555 1_555
O2 C6 1_555 1_555
O3 C8 1_555 1_555
O4 C9 1_555 1_555
C1 H1 1_555 1_555
C2 C1 1_555 1_555
H2 C2 1_555 1_555
C3 C2 1_555 1_555
C4 C3 1_555 1_555
H3 C4 1_555 1_555
C5 N1 1_555 1_555
H4 C5 1_555 1_555
C6 C3 1_555 1_555
C7 O1 1_555 1_555
H5 C7 1_555 1_555
H6 C7 1_555 1_555
C8 C7 1_555 1_555
H7 C8 1_555 1_555
H8 C8 1_555 1_555
C9 O3 1_555 1_555
C10 C9 1_555 1_555
C11 C10 1_555 1_555
H9 C11 1_555 1_555
C12 C11 1_555 1_555
H10 C12 1_555 1_555
C13 N2 1_555 1_555
H11 C13 1_555 1_555
C14 C10 1_555 1_555
H12 C14 1_555 1_555
C15 N3 1_555 1_555
C16 H13 1_555 1_555
H14 C16 1_555 1_555
C17 C16 1_555 1_555
H15 C17 1_555 1_555
H16 C17 1_555 1_555
C18 C17 1_555 1_555
H17 C18 1_555 1_555
H18 C18 1_555 1_555
C19 C18 1_555 1_555
H19 C19 1_555 1_555
H20 C19 1_555 1_555
O5 C16 1_555 1_555
N1A Co1 1_555 1_555
N2A C12A 1_555 1_555
O1A C6A 1_555 1_555
O2A C6A 1_555 1_555
O3A C8A 1_555 1_555
O4A C9A 1_555 1_555
C1A N1A 1_555 1_555
H1A C1A 1_555 1_555
C2A C1A 1_555 1_555
H2A C2A 1_555 1_555
C3A C2A 1_555 1_555
C4A C3A 1_555 1_555
H3A C4A 1_555 1_555
C5A N1A 1_555 1_555
H4A C5A 1_555 1_555
C6A C3A 1_555 1_555
C7A O1A 1_555 1_555
H5A C7A 1_555 1_555
H6A C7A 1_555 1_555
C8A C7A 1_555 1_555
H7A C8A 1_555 1_555
H8A C8A 1_555 1_555
C9A O3A 1_555 1_555
C10A C9A 1_555 1_555
C11A C10A 1_555 1_555
H9A C11A 1_555 1_555
C12A C11A 1_555 1_555
H10A C12A 1_555 1_555
C13A N2A 1_555 1_555
H11A C13A 1_555 1_555
C14A C10A 1_555 1_555
H12A C14A 1_555 1_555
S1A C15A 1_555 1_555
N3A Co1 1_555 1_555
C15A N3A 1_555 1_555
N2_2 Co1 1_555 1_555
N2A_2 Co1 1_555 1_555
Co1_2 N2 1_555 1_555
Co1_3 N2A 1_555 1_555
C4 C5 1_555 1_555
C13 C14 1_555 1_555
C19 O5 1_555 1_555
C4A C5A 1_555 1_555
C13A C14A 1_555 1_555

#END
