
#######################################################################
#
#                 Cambridge Crystallographic Data Centre
#                                CCDC 
#
#######################################################################
#
# If this CIF has been generated from an entry in the Cambridge 
# Structural Database, then it will include bibliographic, chemical, 
# crystal, experimental, refinement or atomic coordinate data resulting 
# from the CCDC's data processing and validation procedures.
#
#######################################################################

data_WACROH
_symmetry_cell_setting           monoclinic
_symmetry_space_group_name_H-M   'P 21/c'
_symmetry_Int_Tables_number      14
_space_group_name_Hall           '-P 2ybc'
loop_
_symmetry_equiv_pos_site_id
_symmetry_equiv_pos_as_xyz
1 x,y,z
2 -x,1/2+y,1/2-z
3 -x,-y,-z
4 x,1/2-y,1/2+z
_cell_length_a                   10.267(4)
_cell_length_b                   13.901(8)
_cell_length_c                   32.181(15)
_cell_angle_alpha                90
_cell_angle_beta                 95.37(3)
_cell_angle_gamma                90
_cell_volume                     4572.76
loop_
_atom_site_label
_atom_site_type_symbol
_atom_site_fract_x
_atom_site_fract_y
_atom_site_fract_z
Co1 Co 0.5889(1) 0.7809(1) 0.0886(1)
Co2 Co 0.9690(1) 0.7815(1) 0.0930(1)
P1 P 0.7905(2) 0.6363(2) 0.1416(1)
P2 P 0.7599(2) 0.7539(2) 0.0118(1)
P3 P 0.7840(2) 0.9529(2) 0.1198(1)
P4 P 0.2862(2) 0.7512(2) 0.1161(1)
O1 O 0.6680(5) 0.6659(4) 0.1155(2)
O2 O 0.6409(5) 0.7855(4) 0.0321(1)
O3 O 0.6604(5) 0.8947(4) 0.1182(2)
O4 O 0.4027(4) 0.7750(4) 0.0926(2)
O5 O 0.9178(5) 0.6764(4) 0.1290(2)
O6 O 0.8896(5) 0.7700(5) 0.0363(2)
O7 O 0.9109(5) 0.8980(4) 0.1192(2)
O8 O 0.1574(4) 0.7789(4) 0.0932(2)
C1 C 0.7982(8) 0.5088(6) 0.1413(2)
C2 C 0.8937(9) 0.4548(8) 0.1633(3)
C3 C 0.8994(11) 0.3552(8) 0.1623(4)
C4 C 0.8120(15) 0.3070(10) 0.1378(4)
C5 C 0.7151(17) 0.3534(11) 0.1149(5)
C6 C 0.7079(13) 0.4556(9) 0.1178(4)
C7 C 0.7770(7) 0.6726(6) 0.1950(2)
C8 C 0.8266(8) 0.7594(7) 0.2093(3)
C9 C 0.8098(11) 0.7917(9) 0.2490(3)
C10 C 0.7463(11) 0.7339(10) 0.2750(3)
C11 C 0.6944(10) 0.6473(8) 0.2620(3)
C12 C 0.7093(8) 0.6169(7) 0.2214(3)
C13 C 0.7451(9) 0.6281(7) 0.0008(2)
C14 C 0.8298(17) 0.5634(10) 0.0174(4)
C15 C 0.8165(24) 0.4621(15) 0.0112(6)
C16 C 0.7106(25) 0.4327(12) -0.0118(6)
C17 C 0.6201(15) 0.4948(11) -0.0314(5)
C18 C 0.6369(11) 0.5935(8) -0.0242(4)
C19 C 0.7593(8) 0.8207(7) -0.0365(2)
C20 C 0.7083(11) 0.9102(8) -0.0409(3)
C21 C 0.7135(12) 0.9642(9) -0.0768(4)
C22 C 0.7653(13) 0.9271(9) -0.1089(4)
C23 C 0.8287(13) 0.8391(10) -0.1064(3)
C24 C 0.8257(11) 0.7831(8) -0.0691(3)
C25 C 0.7943(8) 1.0190(6) 0.1684(2)
C26 C 0.6827(10) 1.0400(8) 0.1874(3)
C27 C 0.6965(14) 1.0844(11) 0.2262(4)
C28 C 0.8134(16) 1.1064(9) 0.2455(4)
C29 C 0.9250(13) 1.0878(8) 0.2272(4)
C30 C 0.9164(9) 1.0434(7) 0.1885(3)
C31 C 0.7715(7) 1.0363(6) 0.0768(2)
C32 C 0.6567(9) 1.0763(7) 0.0630(3)
C33 C 0.6465(10) 1.1374(8) 0.0282(3)
C34 C 0.7536(12) 1.1573(8) 0.0087(3)
C35 C 0.8702(12) 1.1144(9) 0.0213(3)
C36 C 0.8813(9) 1.0543(8) 0.0555(3)
C37 C 0.2851(7) 0.6235(6) 0.1266(2)
C38 C 0.1824(9) 0.5669(8) 0.1093(4)
C39 C 0.1842(14) 0.4659(9) 0.1153(5)
C40 C 0.2892(16) 0.4253(11) 0.1386(4)
C41 C 0.3829(15) 0.4811(9) 0.1562(4)
C42 C 0.3827(12) 0.5813(8) 0.1508(3)
C43 C 0.3034(7) 0.8065(6) 0.1673(2)
C44 C 0.1966(8) 0.8270(8) 0.1873(3)
C45 C 0.2068(10) 0.8592(9) 0.2285(3)
C46 C 0.3271(11) 0.8691(7) 0.2491(3)
C47 C 0.4353(11) 0.8554(9) 0.2286(3)
C48 C 0.4232(9) 0.8229(8) 0.1874(3)
H1 H 0.9606 0.4882 0.1804
H2 H 0.9662 0.3214 0.1793
H3 H 0.8179 0.2382 0.1362
H4 H 0.6514 0.3185 0.0971
H5 H 0.6366 0.4884 0.1024
H6 H 0.8740 0.7986 0.1913
H7 H 0.8422 0.8535 0.2583
H8 H 0.7377 0.7548 0.3030
H9 H 0.6487 0.6080 0.2805
H10 H 0.6723 0.5567 0.2116
H11 H 0.9047 0.5864 0.0346
H12 H 0.8811 0.4177 0.0231
H13 H 0.6963 0.3647 -0.0149
H14 H 0.5476 0.4710 -0.0496
H15 H 0.5729 0.6380 -0.0365
H16 H 0.6667 0.9375 -0.0181
H17 H 0.6793 1.0285 -0.0782
H18 H 0.7592 0.9618 -0.1348
H19 H 0.8737 0.8160 -0.1293
H20 H 0.8682 0.7217 -0.0664
H21 H 0.5978 1.0243 0.1741
H22 H 0.6193 1.0995 0.2396
H23 H 0.8186 1.1357 0.2726
H24 H 1.0085 1.1056 0.2410
H25 H 0.9947 1.0292 0.1755
H26 H 0.5805 1.0629 0.0772
H27 H 0.5635 1.1648 0.0183
H28 H 0.7482 1.2021 -0.0141
H29 H 0.9449 1.1259 0.0061
H30 H 0.9638 1.0252 0.0646
H31 H 0.1099 0.5965 0.0932
H32 H 0.1134 0.4267 0.1033
H33 H 0.2941 0.3568 0.1421
H34 H 0.4537 0.4518 0.1733
H35 H 0.4521 0.6194 0.1644
H36 H 0.1113 0.8190 0.1728
H37 H 0.1299 0.8746 0.2420
H38 H 0.3359 0.8854 0.2782
H39 H 0.5204 0.8682 0.2425
H40 H 0.5001 0.8121 0.1732
O8_2 O 1.1574(4) 0.7789(4) 0.0932(2)
Co2_2 Co -0.0310(1) 0.7815(1) 0.0930(1)
loop_
_geom_bond_atom_site_label_1
_geom_bond_atom_site_label_2
_geom_bond_site_symmetry_1
_geom_bond_site_symmetry_2
Co1 O1 1_555 1_555
Co2 O5 1_555 1_555
P1 O1 1_555 1_555
P2 O2 1_555 1_555
P3 O3 1_555 1_555
P4 O4 1_555 1_555
O2 Co1 1_555 1_555
O3 Co1 1_555 1_555
O4 Co1 1_555 1_555
O5 P1 1_555 1_555
O6 Co2 1_555 1_555
O7 Co2 1_555 1_555
O8 P4 1_555 1_555
C1 P1 1_555 1_555
C2 C1 1_555 1_555
C3 C2 1_555 1_555
C4 C3 1_555 1_555
C5 C4 1_555 1_555
C6 C1 1_555 1_555
C7 P1 1_555 1_555
C8 C7 1_555 1_555
C9 C8 1_555 1_555
C10 C9 1_555 1_555
C11 C10 1_555 1_555
C12 C7 1_555 1_555
C13 P2 1_555 1_555
C14 C13 1_555 1_555
C15 C14 1_555 1_555
C16 C15 1_555 1_555
C17 C16 1_555 1_555
C18 C13 1_555 1_555
C19 P2 1_555 1_555
C20 C19 1_555 1_555
C21 C20 1_555 1_555
C22 C21 1_555 1_555
C23 C22 1_555 1_555
C24 C19 1_555 1_555
C25 P3 1_555 1_555
C26 C25 1_555 1_555
C27 C26 1_555 1_555
C28 C27 1_555 1_555
C29 C28 1_555 1_555
C30 C25 1_555 1_555
C31 P3 1_555 1_555
C32 C31 1_555 1_555
C33 C32 1_555 1_555
C34 C33 1_555 1_555
C35 C34 1_555 1_555
C36 C31 1_555 1_555
C37 P4 1_555 1_555
C38 C37 1_555 1_555
C39 C38 1_555 1_555
C40 C39 1_555 1_555
C41 C40 1_555 1_555
C42 C37 1_555 1_555
C43 P4 1_555 1_555
C44 C43 1_555 1_555
C45 C44 1_555 1_555
C46 C45 1_555 1_555
C47 C46 1_555 1_555
C48 C43 1_555 1_555
H1 C2 1_555 1_555
H2 C3 1_555 1_555
H3 C4 1_555 1_555
H4 C5 1_555 1_555
H5 C6 1_555 1_555
H6 C8 1_555 1_555
H7 C9 1_555 1_555
H8 C10 1_555 1_555
H9 C11 1_555 1_555
H10 C12 1_555 1_555
H11 C14 1_555 1_555
H12 C15 1_555 1_555
H13 C16 1_555 1_555
H14 C17 1_555 1_555
H15 C18 1_555 1_555
H16 C20 1_555 1_555
H17 C21 1_555 1_555
H18 C22 1_555 1_555
H19 C23 1_555 1_555
H20 C24 1_555 1_555
H21 C26 1_555 1_555
H22 C27 1_555 1_555
H23 C28 1_555 1_555
H24 C29 1_555 1_555
H25 C30 1_555 1_555
H26 C32 1_555 1_555
H27 C33 1_555 1_555
H28 C34 1_555 1_555
H29 C35 1_555 1_555
H30 C36 1_555 1_555
H31 C38 1_555 1_555
H32 C39 1_555 1_555
H33 C40 1_555 1_555
H34 C41 1_555 1_555
H35 C42 1_555 1_555
H36 C44 1_555 1_555
H37 C45 1_555 1_555
H38 C46 1_555 1_555
H39 C47 1_555 1_555
H40 C48 1_555 1_555
O8_2 Co2 1_555 1_555
Co2_2 O8 1_555 1_555
P2 O6 1_555 1_555
P3 O7 1_555 1_555
C5 C6 1_555 1_555
C11 C12 1_555 1_555
C17 C18 1_555 1_555
C23 C24 1_555 1_555
C29 C30 1_555 1_555
C35 C36 1_555 1_555
C41 C42 1_555 1_555
C47 C48 1_555 1_555

#END
