
#######################################################################
#
#                 Cambridge Crystallographic Data Centre
#                                CCDC 
#
#######################################################################
#
# If this CIF has been generated from an entry in the Cambridge 
# Structural Database, then it will include bibliographic, chemical, 
# crystal, experimental, refinement or atomic coordinate data resulting 
# from the CCDC's data processing and validation procedures.
#
#######################################################################

data_WACRIB
_symmetry_cell_setting           monoclinic
_symmetry_space_group_name_H-M   'P 21/a'
_symmetry_Int_Tables_number      14
_space_group_name_Hall           '-P 2yab'
loop_
_symmetry_equiv_pos_site_id
_symmetry_equiv_pos_as_xyz
1 x,y,z
2 1/2-x,1/2+y,-z
3 -x,-y,-z
4 1/2+x,1/2-y,z
_cell_length_a                   9.407(4)
_cell_length_b                   23.65(1)
_cell_length_c                   12.969(7)
_cell_angle_alpha                90
_cell_angle_beta                 105.25(4)
_cell_angle_gamma                90
_cell_volume                     2783.69
loop_
_atom_site_label
_atom_site_type_symbol
_atom_site_fract_x
_atom_site_fract_y
_atom_site_fract_z
Co1 Co 0.0897(4) 0.2515(2) 0.8593(3)
P1 P 0.3798(8) 0.1712(3) 0.9729(5)
P2 P -0.2189(8) 0.1963(3) 0.7092(6)
O1 O 0.2321(17) 0.2008(7) 0.9476(11)
O2 O -0.0589(15) 0.2052(7) 0.7661(11)
O3 O 0.0118(16) 0.2936(7) 0.9574(10)
O4 O 0.1745(15) 0.3042(6) 0.7786(11)
C1 C 0.5658(16) 0.1613(6) 1.1780(14)
C2 C 0.5966(15) 0.1469(6) 1.2862(14)
C3 C 0.4886(15) 0.1208(6) 1.3258(14)
C4 C 0.3497(15) 0.1091(6) 1.2571(14)
C5 C 0.3189(15) 0.1234(6) 1.1488(14)
C6 C 0.4269(15) 0.1495(6) 1.1092(14)
C7 C 0.4798(16) 0.0697(8) 0.9113(11)
C8 C 0.4696(16) 0.0211(8) 0.8484(11)
C9 C 0.3393(16) 0.0095(8) 0.7695(11)
C10 C 0.2193(16) 0.0464(8) 0.7534(11)
C11 C 0.2295(16) 0.0950(8) 0.8163(11)
C12 C 0.3598(16) 0.1066(8) 0.8952(11)
C13 C -0.2037(16) 0.3041(10) 0.6173(12)
C14 C -0.2488(16) 0.3457(10) 0.5388(12)
C15 C -0.3644(16) 0.3347(10) 0.4479(12)
C16 C -0.4350(16) 0.2822(10) 0.4354(12)
C17 C -0.3899(16) 0.2406(10) 0.5140(12)
C18 C -0.2742(16) 0.2515(10) 0.6049(12)
C19 C -0.1414(14) 0.1171(7) 0.5779(13)
C20 C -0.1490(14) 0.0644(7) 0.5279(13)
C21 C -0.2500(14) 0.0239(7) 0.5426(13)
C22 C -0.3434(14) 0.0360(7) 0.6074(13)
C23 C -0.3359(14) 0.0887(7) 0.6574(13)
C24 C -0.2349(14) 0.1292(7) 0.6427(13)
H1 H 0.6401 0.1793 1.1507
H2 H 0.6922 0.1550 1.3335
H3 H 0.5098 0.1110 1.4003
H4 H 0.2754 0.0911 1.2843
H5 H 0.2233 0.1153 1.1015
H6 H 0.5695 0.0777 0.9656
H7 H 0.5522 -0.0043 0.8595
H8 H 0.3322 -0.0240 0.7262
H9 H 0.1296 0.0384 0.6991
H10 H 0.1469 0.1204 0.8053
H11 H -0.1241 0.3116 0.6798
H12 H -0.2002 0.3818 0.5473
H13 H -0.3954 0.3633 0.3938
H14 H -0.5145 0.2746 0.3729
H15 H -0.4384 0.2044 0.5054
H16 H -0.0719 0.1450 0.5678
H17 H -0.0847 0.0561 0.4833
H18 H -0.2552 -0.0123 0.5082
H19 H -0.4130 0.0082 0.6175
H20 H -0.4002 0.0970 0.7020
O3C O 0.5118(16) 0.2064(7) 0.9574(10)
O4C O -0.3255(15) 0.1958(6) 0.7786(11)
P1C P -0.1202(8) 0.3288(3) 0.9729(5)
P2C P 0.2811(8) 0.3037(3) 0.7092(6)
Co1C Co 0.5897(4) 0.2485(2) 0.8593(3)
Co1C_2 Co -0.4103(4) 0.2485(2) 0.8593(3)
O1C O -0.2679(17) 0.2992(7) 0.9476(11)
C6C C -0.0731(15) 0.3505(6) 1.1092(14)
C12C C -0.1402(16) 0.3934(8) 0.8952(11)
O2C O 0.4411(15) 0.2948(7) 0.7661(11)
C18C C 0.2258(16) 0.2485(10) 0.6049(12)
C24C C 0.2651(14) 0.3708(7) 0.6427(13)
O1C_2 O 0.7321(17) 0.2992(7) 0.9476(11)
O4C_2 O 0.6745(15) 0.1958(6) 0.7786(11)
C1C C 0.0658(16) 0.3387(6) 1.1780(14)
C5C C -0.1811(15) 0.3766(6) 1.1488(14)
C7C C -0.0202(16) 0.4303(8) 0.9113(11)
C11C C -0.2705(16) 0.4050(8) 0.8163(11)
C13C C 0.2963(16) 0.1959(10) 0.6173(12)
C17C C 0.1101(16) 0.2594(10) 0.5140(12)
C19C C 0.3586(14) 0.3829(7) 0.5779(13)
C23C C 0.1641(14) 0.4113(7) 0.6574(13)
C2C C 0.0966(15) 0.3531(6) 1.2862(14)
H1C H 0.1401 0.3207 1.1507
C4C C -0.1503(15) 0.3909(6) 1.2571(14)
H5C H -0.2767 0.3847 1.1015
C8C C -0.0304(16) 0.4789(8) 0.8484(11)
H6C H 0.0695 0.4223 0.9656
C10C C -0.2807(16) 0.4536(8) 0.7534(11)
H10C H -0.3531 0.3796 0.8053
C14C C 0.2512(16) 0.1543(10) 0.5388(12)
H11C H 0.3759 0.1884 0.6798
C16C C 0.0650(16) 0.2178(10) 0.4354(12)
H15C H 0.0616 0.2956 0.5054
C20C C 0.3510(14) 0.4356(7) 0.5279(13)
H16C H 0.4281 0.3550 0.5678
C22C C 0.1566(14) 0.4640(7) 0.6074(13)
H20C H 0.0998 0.4030 0.7020
C3C C -0.0114(15) 0.3792(6) 1.3258(14)
H2C H 0.1922 0.3450 1.3335
H4C H -0.2246 0.4089 1.2843
C9C C -0.1607(16) 0.4905(8) 0.7695(11)
H7C H 0.0522 0.5043 0.8595
H9C H -0.3704 0.4616 0.6991
C15C C 0.1356(16) 0.1653(10) 0.4479(12)
H12C H 0.2998 0.1182 0.5473
H14C H -0.0145 0.2254 0.3729
C21C C 0.2500(14) 0.4761(7) 0.5426(13)
H17C H 0.4153 0.4439 0.4833
H19C H 0.0870 0.4918 0.6175
H3C H 0.0098 0.3890 1.4003
H8C H -0.1678 0.5240 0.7262
H13C H 0.1046 0.1367 0.3938
H18C H 0.2448 0.5123 0.5082
O5 O -0.0445(23) 0.0873(10) 1.2444(17)
C25 C -0.0649(37) 0.0771(15) 1.1332(29)
N1 N -0.0802(32) 0.1178(15) 1.0659(28)
C26 C -0.1057(36) 0.0974(15) 0.9657(32)
C27 C -0.0626(36) 0.1766(15) 1.1147(27)
loop_
_geom_bond_atom_site_label_1
_geom_bond_atom_site_label_2
_geom_bond_site_symmetry_1
_geom_bond_site_symmetry_2
Co1 O1 1_555 1_555
P1 O1 1_555 1_555
P2 O2 1_555 1_555
O2 Co1 1_555 1_555
O3 Co1 1_555 1_555
O4 Co1 1_555 1_555
C1 C2 1_555 1_555
C2 C3 1_555 1_555
C3 C4 1_555 1_555
C4 C5 1_555 1_555
C5 C6 1_555 1_555
C6 P1 1_555 1_555
C7 C8 1_555 1_555
C8 C9 1_555 1_555
C9 C10 1_555 1_555
C10 C11 1_555 1_555
C11 C12 1_555 1_555
C12 P1 1_555 1_555
C13 C14 1_555 1_555
C14 C15 1_555 1_555
C15 C16 1_555 1_555
C16 C17 1_555 1_555
C17 C18 1_555 1_555
C18 P2 1_555 1_555
C19 C20 1_555 1_555
C20 C21 1_555 1_555
C21 C22 1_555 1_555
C22 C23 1_555 1_555
C23 C24 1_555 1_555
C24 P2 1_555 1_555
O5 C25 1_555 1_555
C25 N1 1_555 1_555
N1 C26 1_555 1_555
C27 N1 1_555 1_555
H1 C1 1_555 1_555
H2 C2 1_555 1_555
H3 C3 1_555 1_555
H4 C4 1_555 1_555
H5 C5 1_555 1_555
H6 C7 1_555 1_555
H7 C8 1_555 1_555
H8 C9 1_555 1_555
H9 C10 1_555 1_555
H10 C11 1_555 1_555
H11 C13 1_555 1_555
H12 C14 1_555 1_555
H13 C15 1_555 1_555
H14 C16 1_555 1_555
H15 C17 1_555 1_555
H16 C19 1_555 1_555
H17 C20 1_555 1_555
H18 C21 1_555 1_555
H19 C22 1_555 1_555
H20 C23 1_555 1_555
O3C P1 1_555 1_555
O4C P2 1_555 1_555
P1C O3 1_555 1_555
P2C O4 1_555 1_555
Co1C O3C 1_555 1_555
Co1C_2 O4C 1_555 1_555
O1C P1C 1_555 1_555
C6C P1C 1_555 1_555
C12C P1C 1_555 1_555
O2C P2C 1_555 1_555
C18C P2C 1_555 1_555
C24C P2C 1_555 1_555
O1C_2 Co1C 1_555 1_555
O4C_2 Co1C 1_555 1_555
C1C C6C 1_555 1_555
C5C C6C 1_555 1_555
C7C C12C 1_555 1_555
C11C C12C 1_555 1_555
C13C C18C 1_555 1_555
C17C C18C 1_555 1_555
C19C C24C 1_555 1_555
C23C C24C 1_555 1_555
C2C C1C 1_555 1_555
H1C C1C 1_555 1_555
C4C C5C 1_555 1_555
H5C C5C 1_555 1_555
C8C C7C 1_555 1_555
H6C C7C 1_555 1_555
C10C C11C 1_555 1_555
H10C C11C 1_555 1_555
C14C C13C 1_555 1_555
H11C C13C 1_555 1_555
C16C C17C 1_555 1_555
H15C C17C 1_555 1_555
C20C C19C 1_555 1_555
H16C C19C 1_555 1_555
C22C C23C 1_555 1_555
H20C C23C 1_555 1_555
C3C C2C 1_555 1_555
H2C C2C 1_555 1_555
H4C C4C 1_555 1_555
C9C C8C 1_555 1_555
H7C C8C 1_555 1_555
H9C C10C 1_555 1_555
C15C C14C 1_555 1_555
H12C C14C 1_555 1_555
H14C C16C 1_555 1_555
C21C C20C 1_555 1_555
H17C C20C 1_555 1_555
H19C C22C 1_555 1_555
H3C C3C 1_555 1_555
H8C C9C 1_555 1_555
H13C C15C 1_555 1_555
H18C C21C 1_555 1_555
C1 C6 1_555 1_555
C7 C12 1_555 1_555
C13 C18 1_555 1_555
C19 C24 1_555 1_555
Co1C O2C 1_555 1_555
Co1C_2 O1C 1_555 1_555
C4C C3C 1_555 1_555
C10C C9C 1_555 1_555
C16C C15C 1_555 1_555
C22C C21C 1_555 1_555

#END
