
#######################################################################
#
#                 Cambridge Crystallographic Data Centre
#                                CCDC 
#
#######################################################################
#
# If this CIF has been generated from an entry in the Cambridge 
# Structural Database, then it will include bibliographic, chemical, 
# crystal, experimental, refinement or atomic coordinate data resulting 
# from the CCDC's data processing and validation procedures.
#
#######################################################################

data_WADHAL
_symmetry_cell_setting           orthorhombic
_symmetry_space_group_name_H-M   'P 21 21 21'
_symmetry_Int_Tables_number      19
_space_group_name_Hall           'P 2ac 2ab'
loop_
_symmetry_equiv_pos_site_id
_symmetry_equiv_pos_as_xyz
1 x,y,z
2 1/2-x,-y,1/2+z
3 -x,1/2+y,1/2-z
4 1/2+x,1/2-y,-z
_cell_length_a                   6.0300(10)
_cell_length_b                   10.4670(10)
_cell_length_c                   13.5680(10)
_cell_angle_alpha                90
_cell_angle_beta                 90
_cell_angle_gamma                90
_cell_volume                     856.358
loop_
_atom_site_label
_atom_site_type_symbol
_atom_site_fract_x
_atom_site_fract_y
_atom_site_fract_z
Mn1 Mn 0.59460(10) 0.33199(5) 0.44853(4)
O1 O 0.4604(5) 0.4990(3) 0.3799(2)
O2 O 0.2213(5) 0.3352(3) 0.4800(2)
O3 O -0.0829(6) 0.3704(3) 0.3897(2)
O4 O 0.4665(5) 0.2358(3) 0.3166(2)
O5 O 0.3837(6) 0.2248(2) 0.1576(2)
O6 O 0.1039(8) 0.6292(3) 0.4979(2)
O7 O 0.1345(6) 0.8052(3) 0.4082(3)
O8 O 0.6686(6) 0.4344(3) 0.5833(2)
C1 C 0.2454(7) 0.4781(3) 0.3398(3)
C2 C 0.1170(8) 0.3889(3) 0.4098(3)
C3 C 0.2694(8) 0.4114(4) 0.2395(3)
C4 C 0.3823(7) 0.2829(3) 0.2382(3)
C5 C 0.1214(8) 0.6039(4) 0.3255(3)
C6 C 0.1219(8) 0.6909(3) 0.4142(3)
H1 H 0.511(7) 0.572(2) 0.366(3)
H2 H 0.118(9) 0.678(4) 0.547(2)
H3 H 0.668(7) 0.5150(10) 0.590(4)
H4 H 0.789(5) 0.403(4) 0.605(4)
H5 H 0.142(3) 0.397(4) 0.215(3)
H6 H 0.346(5) 0.457(4) 0.200(2)
H7 H -0.017(2) 0.595(4) 0.316(3)
H8 H 0.179(5) 0.646(4) 0.278(2)
O2C O 0.7213(5) 0.1648(3) 0.5200(2)
O3_2 O 0.9171(6) 0.3704(3) 0.3897(2)
Mn1C Mn 0.09460(10) 0.16801(5) 0.55147(4)
Mn1_2 Mn -0.40540(10) 0.33199(5) 0.44853(4)
loop_
_geom_bond_atom_site_label_1
_geom_bond_atom_site_label_2
_geom_bond_site_symmetry_1
_geom_bond_site_symmetry_2
Mn1 O1 1_555 1_555
O1 C1 1_555 1_555
O2 Mn1 1_555 1_555
O3 C2 1_555 1_555
O4 Mn1 1_555 1_555
O5 C4 1_555 1_555
O6 C6 1_555 1_555
O7 C6 1_555 1_555
O8 Mn1 1_555 1_555
C1 C2 1_555 1_555
C2 O2 1_555 1_555
C3 C1 1_555 1_555
C4 O4 1_555 1_555
C5 C1 1_555 1_555
C6 C5 1_555 1_555
H1 O1 1_555 1_555
H2 O6 1_555 1_555
H3 O8 1_555 1_555
H4 O8 1_555 1_555
H5 C3 1_555 1_555
H6 C3 1_555 1_555
H7 C5 1_555 1_555
H8 C5 1_555 1_555
O2C Mn1 1_555 1_555
O3_2 Mn1 1_555 1_555
Mn1C O2 1_555 1_555
Mn1_2 O3 1_555 1_555
C3 C4 1_555 1_555

#END
