
#######################################################################
#
#                 Cambridge Crystallographic Data Centre
#                                CCDC 
#
#######################################################################
#
# If this CIF has been generated from an entry in the Cambridge 
# Structural Database, then it will include bibliographic, chemical, 
# crystal, experimental, refinement or atomic coordinate data resulting 
# from the CCDC's data processing and validation procedures.
#
#######################################################################

data_WADHAL01
_symmetry_cell_setting           orthorhombic
_symmetry_space_group_name_H-M   'P 21 21 21'
_symmetry_Int_Tables_number      19
_space_group_name_Hall           'P 2ac 2ab'
loop_
_symmetry_equiv_pos_site_id
_symmetry_equiv_pos_as_xyz
1 x,y,z
2 1/2+x,1/2-y,-z
3 -x,1/2+y,1/2-z
4 1/2-x,-y,1/2+z
_cell_length_a                   6.0017(7)
_cell_length_b                   10.4430(12)
_cell_length_c                   13.5101(15)
_cell_angle_alpha                90
_cell_angle_beta                 90
_cell_angle_gamma                90
_cell_volume                     846.756
loop_
_atom_site_label
_atom_site_type_symbol
_atom_site_fract_x
_atom_site_fract_y
_atom_site_fract_z
Mn1 Mn -0.09213(5) 0.83176(3) 0.55127(2)
O1 O 0.0404(2) 0.99899(14) 0.62028(10)
H1 H -0.011(4) 1.0682(15) 0.6424(16)
O2 O 0.0364(2) 0.73475(14) 0.68388(10)
O3 O 0.1157(3) 0.72499(14) 0.84386(10)
O4 O 0.2807(2) 0.83617(15) 0.52067(10)
O5 O 0.5855(3) 0.87002(14) 0.61196(10)
O6 O 0.3995(3) 1.12841(14) 0.50275(11)
H2 H 0.3809 1.1792 0.4552
O7 O 0.3657(3) 1.30598(14) 0.59205(12)
O8 O -0.1687(3) 0.93376(15) 0.41632(11)
H3 H -0.268(3) 0.902(2) 0.3793(16)
H4 H -0.174(4) 1.0144(10) 0.416(2)
C1 C 0.1184(3) 0.78225(19) 0.76202(14)
C2 C 0.2327(4) 0.9119(2) 0.76181(14)
H5 H 0.3835 0.9012 0.7903
H6 H 0.1486 0.9696 0.8064
C3 C 0.2562(3) 0.97834(19) 0.66149(15)
C4 C 0.3861(3) 0.88937(18) 0.59124(14)
C5 C 0.3802(3) 1.10503(19) 0.67602(14)
H7 H 0.3111 1.1518 0.7319
H8 H 0.5364 1.0861 0.6945
C6 C 0.3804(3) 1.1908(2) 0.58631(15)
Mn1_2 Mn 0.90787(5) 0.83176(3) 0.55127(2)
Mn1A Mn 0.40787(5) 0.66824(3) 0.44873(2)
O4A O -0.2193(2) 0.66383(15) 0.47933(10)
O5_2 O -0.4145(3) 0.87002(14) 0.61196(10)
loop_
_geom_bond_atom_site_label_1
_geom_bond_atom_site_label_2
_geom_bond_site_symmetry_1
_geom_bond_site_symmetry_2
Mn1 O1 1_555 1_555
O1 H1 1_555 1_555
O2 Mn1 1_555 1_555
O3 C1 1_555 1_555
O4 Mn1 1_555 1_555
O5 C4 1_555 1_555
O6 H2 1_555 1_555
O7 C6 1_555 1_555
O8 Mn1 1_555 1_555
H3 O8 1_555 1_555
H4 O8 1_555 1_555
C1 O2 1_555 1_555
C2 C1 1_555 1_555
H5 C2 1_555 1_555
H6 C2 1_555 1_555
C3 O1 1_555 1_555
C4 O4 1_555 1_555
C5 C3 1_555 1_555
H7 C5 1_555 1_555
H8 C5 1_555 1_555
C6 O6 1_555 1_555
Mn1_2 O5 1_555 1_555
Mn1A O4 1_555 1_555
O4A Mn1 1_555 1_555
O5_2 Mn1 1_555 1_555
C2 C3 1_555 1_555
C3 C4 1_555 1_555
C5 C6 1_555 1_555

#END
