
#######################################################################
#
#                 Cambridge Crystallographic Data Centre
#                                CCDC 
#
#######################################################################
#
# If this CIF has been generated from an entry in the Cambridge 
# Structural Database, then it will include bibliographic, chemical, 
# crystal, experimental, refinement or atomic coordinate data resulting 
# from the CCDC's data processing and validation procedures.
#
#######################################################################

data_WADJUH
_symmetry_cell_setting           monoclinic
_symmetry_space_group_name_H-M   'C 2/c'
_symmetry_Int_Tables_number      15
_space_group_name_Hall           '-C 2yn'
loop_
_symmetry_equiv_pos_site_id
_symmetry_equiv_pos_as_xyz
1 x,y,z
2 1/2+x,1/2+y,z
3 x,-y,1/2+z
4 1/2+x,1/2-y,1/2+z
5 -x,-y,-z
6 1/2-x,1/2-y,-z
7 -x,y,1/2-z
8 1/2-x,1/2+y,1/2-z
_cell_length_a                   10.8329(9)
_cell_length_b                   11.3792(9)
_cell_length_c                   19.7327(16)
_cell_angle_alpha                90
_cell_angle_beta                 97.662(2)
_cell_angle_gamma                90
_cell_volume                     2410.73
loop_
_atom_site_label
_atom_site_type_symbol
_atom_site_fract_x
_atom_site_fract_y
_atom_site_fract_z
Co1 Co 0.0000 0.99524(2) 0.2500
O1 O 0.15648(11) 0.98432(9) 0.32321(7)
O2 O 0.08213(13) 1.05745(13) 0.41457(7)
O3 O 0.11660(13) 1.00046(14) 0.16970(8)
N1 N 0.0000 0.80683(16) 0.2500
N2 N 0.0000 0.18433(16) 0.2500
N3 N 0.62514(19) 0.72518(18) 0.59807(11)
C1 C 0.15987(17) 1.00064(14) 0.38713(10)
C2 C 0.26562(16) 0.94349(16) 0.43295(10)
C3 C 0.2710(3) 0.9523(2) 0.50260(12)
C4 C 0.3640(3) 0.8966(2) 0.54516(13)
C5 C 0.45224(19) 0.83169(18) 0.51835(11)
C6 C 0.4482(2) 0.8218(2) 0.44890(12)
C7 C 0.35454(19) 0.8782(2) 0.40627(11)
C8 C 0.5494(2) 0.77226(19) 0.56278(12)
C9 C 0.10606(16) 0.74478(14) 0.26169(10)
C10 C 0.11041(16) 0.62410(14) 0.26134(10)
C11 C 0.0000 0.56061(19) 0.2500
C12 C 0.0000 0.43116(19) 0.2500
C13 C 0.09153(16) 0.36720(15) 0.28971(10)
C14 C 0.08851(16) 0.24640(15) 0.28834(10)
H1 H 0.210(3) 0.985(2) 0.5206(15)
H2 H 0.366(2) 0.903(2) 0.5927(16)
H3 H 0.509(2) 0.7825(19) 0.4299(12)
H4 H 0.3478(19) 0.871(2) 0.3575(13)
H5 H 0.1812(15) 0.7910(15) 0.2710(9)
H6 H 0.1857(16) 0.5863(15) 0.2667(9)
H7 H 0.1527(17) 0.3994(16) 0.3182(10)
H8 H 0.1510(18) 0.2033(17) 0.3162(11)
H9 H 0.130(2) 0.937(2) 0.1540(14)
H10 H 0.065(2) 1.029(2) 0.1404(13)
C10F C -0.11041(16) 0.62410(14) 0.23866(10)
C9F C -0.10606(16) 0.74478(14) 0.23831(10)
H5F H -0.1812(15) 0.7910(15) 0.2290(9)
H6F H -0.1857(16) 0.5863(15) 0.2333(9)
C14F C -0.08851(16) 0.24640(15) 0.21166(10)
C13F C -0.09153(16) 0.36720(15) 0.21029(10)
H7F H -0.1527(17) 0.3994(16) 0.1818(10)
H8F H -0.1510(18) 0.2033(17) 0.1838(11)
O1F O -0.15648(11) 0.98432(9) 0.17679(7)
O2F O -0.08213(13) 1.05745(13) 0.08543(7)
N3F N -0.62514(19) 0.72518(18) -0.09807(11)
C1F C -0.15987(17) 1.00064(14) 0.11287(10)
C2F C -0.26562(16) 0.94349(16) 0.06705(10)
C3F C -0.2710(3) 0.9523(2) -0.00260(12)
C4F C -0.3640(3) 0.8966(2) -0.04516(13)
C5F C -0.45224(19) 0.83169(18) -0.01835(11)
C6F C -0.4482(2) 0.8218(2) 0.05110(12)
C7F C -0.35454(19) 0.8782(2) 0.09373(11)
C8F C -0.5494(2) 0.77226(19) -0.06278(12)
H1F H -0.210(3) 0.985(2) -0.0206(15)
H2F H -0.366(2) 0.903(2) -0.0927(16)
H3F H -0.509(2) 0.7825(19) 0.0701(12)
H4F H -0.3478(19) 0.871(2) 0.1425(13)
O3F O -0.11660(13) 1.00046(14) 0.33030(8)
H9F H -0.130(2) 0.937(2) 0.3460(14)
H10F H -0.065(2) 1.029(2) 0.3596(13)
N2_2 N 0.0000 1.18433(16) 0.2500
Co1_2 Co 0.0000 -0.00476(2) 0.2500
loop_
_geom_bond_atom_site_label_1
_geom_bond_atom_site_label_2
_geom_bond_site_symmetry_1
_geom_bond_site_symmetry_2
Co1 O1 1_555 1_555
O1 C1 1_555 1_555
O2 C1 1_555 1_555
O3 Co1 1_555 1_555
N1 Co1 1_555 1_555
N2 C14 1_555 1_555
N3 C8 1_555 1_555
C1 C2 1_555 1_555
C2 C3 1_555 1_555
C3 C4 1_555 1_555
C4 C5 1_555 1_555
C5 C6 1_555 1_555
C6 C7 1_555 1_555
C7 C2 1_555 1_555
C8 C5 1_555 1_555
C9 N1 1_555 1_555
C10 C9 1_555 1_555
C11 C10 1_555 1_555
C12 C11 1_555 1_555
C13 C12 1_555 1_555
C14 C13 1_555 1_555
H1 C3 1_555 1_555
H2 C4 1_555 1_555
H3 C6 1_555 1_555
H4 C7 1_555 1_555
H5 C9 1_555 1_555
H6 C10 1_555 1_555
H7 C13 1_555 1_555
H8 C14 1_555 1_555
H9 O3 1_555 1_555
H10 O3 1_555 1_555
C10F C11 1_555 1_555
C9F N1 1_555 1_555
H5F C9F 1_555 1_555
H6F C10F 1_555 1_555
C14F N2 1_555 1_555
C13F C12 1_555 1_555
H7F C13F 1_555 1_555
H8F C14F 1_555 1_555
O1F Co1 1_555 1_555
O2F C1F 1_555 1_555
N3F C8F 1_555 1_555
C1F O1F 1_555 1_555
C2F C1F 1_555 1_555
C3F C2F 1_555 1_555
C4F C3F 1_555 1_555
C5F C4F 1_555 1_555
C6F C5F 1_555 1_555
C7F C2F 1_555 1_555
C8F C5F 1_555 1_555
H1F C3F 1_555 1_555
H2F C4F 1_555 1_555
H3F C6F 1_555 1_555
H4F C7F 1_555 1_555
O3F Co1 1_555 1_555
H9F O3F 1_555 1_555
H10F O3F 1_555 1_555
N2_2 Co1 1_555 1_555
Co1_2 N2 1_555 1_555
C10F C9F 1_555 1_555
C14F C13F 1_555 1_555
C6F C7F 1_555 1_555

#END
