
#######################################################################
#
#                 Cambridge Crystallographic Data Centre
#                                CCDC 
#
#######################################################################
#
# If this CIF has been generated from an entry in the Cambridge 
# Structural Database, then it will include bibliographic, chemical, 
# crystal, experimental, refinement or atomic coordinate data resulting 
# from the CCDC's data processing and validation procedures.
#
#######################################################################

data_WADJOB
_symmetry_cell_setting           triclinic
_symmetry_space_group_name_H-M   'P -1'
_symmetry_Int_Tables_number      2
_space_group_name_Hall           '-P 1'
loop_
_symmetry_equiv_pos_site_id
_symmetry_equiv_pos_as_xyz
1 x,y,z
2 -x,-y,-z
_cell_length_a                   7.0244(7)
_cell_length_b                   8.5982(11)
_cell_length_c                   8.7399(5)
_cell_angle_alpha                100.248(6)
_cell_angle_beta                 111.981(7)
_cell_angle_gamma                104.734(9)
_cell_volume                     450.913
loop_
_atom_site_label
_atom_site_type_symbol
_atom_site_fract_x
_atom_site_fract_y
_atom_site_fract_z
Ni1 Ni 0.5000 0.5000 0.5000
O1 O 0.2572(2) 0.26719(15) 0.42382(16)
O2 O 0.0967(2) 0.32317(16) 0.59500(17)
O3 O 0.6927(2) 0.37982(16) 0.42754(17)
N1 N 0.2349(3) 0.4384(2) -0.0384(2)
H1 H 0.1875 0.3759 -0.1428
N2 N 0.3693(2) 0.51412(19) 0.24894(19)
C1 C 0.3061(3) 0.3921(2) 0.1062(2)
H2 H 0.3104 0.2847 0.1054
C2 C 0.3732(3) 0.8149(2) 0.2864(2)
H3 H 0.4291 0.8477 0.4065
C3 C 0.3231(4) 0.9261(3) 0.1941(3)
H4 H 0.3469 1.0356 0.2533
C4 C 0.2372(4) 0.8762(3) 0.0130(3)
H5 H 0.2051 0.9538 -0.0451
C5 C 0.1991(4) 0.7161(3) -0.0812(3)
H6 H 0.1409 0.6834 -0.2014
C6 C 0.2519(3) 0.6049(2) 0.0121(2)
C7 C 0.3368(3) 0.6521(2) 0.1932(2)
C8 C 0.1251(3) 0.2230(2) 0.4862(2)
C9 C -0.0135(3) 0.0370(2) 0.4253(2)
H7 H 0.0277 -0.0249 0.3462
H8 H -0.1666 0.0230 0.3623
H9 H 0.7902 0.3340 0.4474
H10 H 0.6808 0.4112 0.3376
C9A C 0.0135(3) -0.0370(2) 0.5747(2)
C8A C -0.1251(3) -0.2230(2) 0.5138(2)
O1A O -0.2572(2) -0.26719(15) 0.57618(16)
O2A O -0.0967(2) -0.32317(16) 0.40500(17)
H7A H -0.0277 0.0249 0.6538
H8A H 0.1666 -0.0230 0.6377
O3A O 0.3073(2) 0.62018(16) 0.57246(17)
H9A H 0.2098 0.6660 0.5526
H10A H 0.3192 0.5888 0.6624
N1A N 0.7651(3) 0.5616(2) 1.0384(2)
H1A H 0.8125 0.6241 1.1428
N2A N 0.6307(2) 0.48588(19) 0.75106(19)
C1A C 0.6939(3) 0.6079(2) 0.8938(2)
H2A H 0.6896 0.7153 0.8946
C2A C 0.6268(3) 0.1851(2) 0.7136(2)
H3A H 0.5709 0.1523 0.5935
C3A C 0.6769(4) 0.0739(3) 0.8059(3)
H4A H 0.6531 -0.0356 0.7467
C4A C 0.7628(4) 0.1238(3) 0.9870(3)
H5A H 0.7949 0.0462 1.0451
C5A C 0.8009(4) 0.2839(3) 1.0812(3)
H6A H 0.8591 0.3166 1.2014
C6A C 0.7481(3) 0.3951(2) 0.9879(2)
C7A C 0.6632(3) 0.3479(2) 0.8068(2)
O1A_2 O 0.7428(2) 0.73281(15) 0.57618(16)
Ni1_2 Ni -0.5000 -0.5000 0.5000
loop_
_geom_bond_atom_site_label_1
_geom_bond_atom_site_label_2
_geom_bond_site_symmetry_1
_geom_bond_site_symmetry_2
Ni1 O1 1_555 1_555
O1 C8 1_555 1_555
O2 C8 1_555 1_555
O3 Ni1 1_555 1_555
N1 H1 1_555 1_555
N2 Ni1 1_555 1_555
C1 N1 1_555 1_555
H2 C1 1_555 1_555
C2 H3 1_555 1_555
C3 C2 1_555 1_555
H4 C3 1_555 1_555
C4 C3 1_555 1_555
H5 C4 1_555 1_555
C5 C4 1_555 1_555
H6 C5 1_555 1_555
C6 N1 1_555 1_555
C7 N2 1_555 1_555
C8 C9 1_555 1_555
C9 H7 1_555 1_555
H8 C9 1_555 1_555
H9 O3 1_555 1_555
H10 O3 1_555 1_555
C9A C9 1_555 1_555
C8A C9A 1_555 1_555
O1A C8A 1_555 1_555
O2A C8A 1_555 1_555
H7A C9A 1_555 1_555
H8A C9A 1_555 1_555
O3A Ni1 1_555 1_555
H9A O3A 1_555 1_555
H10A O3A 1_555 1_555
N1A H1A 1_555 1_555
N2A Ni1 1_555 1_555
C1A N1A 1_555 1_555
H2A C1A 1_555 1_555
C2A H3A 1_555 1_555
C3A C2A 1_555 1_555
H4A C3A 1_555 1_555
C4A C3A 1_555 1_555
H5A C4A 1_555 1_555
C5A C4A 1_555 1_555
H6A C5A 1_555 1_555
C6A N1A 1_555 1_555
C7A N2A 1_555 1_555
O1A_2 Ni1 1_555 1_555
Ni1_2 O1A 1_555 1_555
N2 C1 1_555 1_555
C2 C7 1_555 1_555
C5 C6 1_555 1_555
C6 C7 1_555 1_555
N2A C1A 1_555 1_555
C2A C7A 1_555 1_555
C5A C6A 1_555 1_555
C6A C7A 1_555 1_555

#END
