
#######################################################################
#
#                 Cambridge Crystallographic Data Centre
#                                CCDC 
#
#######################################################################
#
# If this CIF has been generated from an entry in the Cambridge 
# Structural Database, then it will include bibliographic, chemical, 
# crystal, experimental, refinement or atomic coordinate data resulting 
# from the CCDC's data processing and validation procedures.
#
#######################################################################

data_WADKAO
_symmetry_cell_setting           triclinic
_symmetry_space_group_name_H-M   'P -1'
_symmetry_Int_Tables_number      2
_space_group_name_Hall           '-P 1'
loop_
_symmetry_equiv_pos_site_id
_symmetry_equiv_pos_as_xyz
1 x,y,z
2 -x,-y,-z
_cell_length_a                   8.2974(7)
_cell_length_b                   8.8446(6)
_cell_length_c                   15.7890(10)
_cell_angle_alpha                95.743(4)
_cell_angle_beta                 102.490(2)
_cell_angle_gamma                97.897(4)
_cell_volume                     1110.42
loop_
_atom_site_label
_atom_site_type_symbol
_atom_site_fract_x
_atom_site_fract_y
_atom_site_fract_z
S1 S 0.43010(7) 0.27994(7) 0.45382(4)
S2 S 0.16572(7) -0.33281(7) 0.45344(4)
S3 S 0.21040(7) -0.09787(7) 0.14849(4)
S4 S -0.43052(7) -0.52342(7) 0.21393(4)
Na1 Na 0.59680(10) 0.08050(10) 0.11192(6)
Na2 Na 0.17600(10) -0.50270(10) 0.08505(6)
O1 O 0.3103(2) 0.0041(2) 0.53190(10)
O2 O 0.3151(2) 0.0318(2) 0.12640(10)
O3 O 0.2526(2) -0.2459(2) 0.12050(10)
O4 O 0.0314(2) -0.0916(2) 0.11680(10)
O5 O -0.0644(2) -0.2550(2) 0.57310(10)
O6 O -0.3848(2) -0.6765(2) 0.20350(10)
O7 O -0.3704(2) -0.4248(2) 0.15430(10)
O8 O -0.6086(2) -0.5273(2) 0.20930(10)
O9 O 0.8835(2) 0.1779(2) 0.12510(10)
O10 O 0.7461(2) -0.0932(2) 0.20880(10)
O11 O 0.4993(2) 0.1736(2) -0.02060(10)
O12 O 0.2069(2) -0.7417(2) 0.02650(10)
O13 O 0.1253(2) -0.4631(2) -0.06510(10)
C1 C 0.2861(3) -0.0281(3) 0.44450(10)
C2 C 0.2199(3) -0.1744(3) 0.3970(2)
C3 C 0.2034(3) -0.1983(3) 0.3067(2)
C4 C 0.2483(3) -0.0743(3) 0.2637(2)
C5 C 0.3118(3) 0.0708(3) 0.3097(2)
C6 C 0.3312(3) 0.0948(3) 0.3997(2)
C7 C -0.1421(3) -0.3105(3) 0.4892(2)
C8 C -0.0573(3) -0.3548(3) 0.4252(2)
C9 C -0.1484(3) -0.4215(3) 0.3420(2)
C10 C -0.3220(3) -0.4378(3) 0.3210(2)
C11 C -0.4065(3) -0.3875(3) 0.3827(2)
C12 C 0.3166(3) 0.3260(3) 0.5330(2)
H1 H 0.285 -0.083 0.554
H2 H 0.157 -0.301 0.279
H3 H 0.345 0.161 0.280
H4 H 0.038 -0.244 0.581
H5 H -0.096 -0.455 0.299
H6 H -0.528 -0.402 0.364
H7 H 0.938 0.101 0.111
H8 H 0.955 0.235 0.172
H9 H 0.842 -0.092 0.191
H10 H 0.700 -0.193 0.200
H11 H 0.554 0.218 -0.058
H12 H 0.427 0.236 -0.012
H13 H 0.234 -0.812 0.062
H14 H 0.121 -0.793 -0.016
H15 H 0.193 -0.502 -0.096
H16 H 0.139 -0.363 -0.071
C12A C -0.3166(3) -0.3260(3) 0.4670(2)
S1A S -0.43010(7) -0.27994(7) 0.54618(4)
C6A C -0.3312(3) -0.0948(3) 0.6003(2)
C1A C -0.2861(3) 0.0281(3) 0.55550(10)
O1A O -0.3103(2) -0.0041(2) 0.46810(10)
H1A H -0.285 0.083 0.446
C2A C -0.2199(3) 0.1744(3) 0.6030(2)
S2A S -0.16572(7) 0.33281(7) 0.54656(4)
C8A C 0.0573(3) 0.3548(3) 0.5748(2)
C7A C 0.1421(3) 0.3105(3) 0.5108(2)
O5A O 0.0644(2) 0.2550(2) 0.42690(10)
H4A H -0.038 0.244 0.419
C11A C 0.4065(3) 0.3875(3) 0.6173(2)
C10A C 0.3220(3) 0.4378(3) 0.6790(2)
S4A S 0.43052(7) 0.52342(7) 0.78607(4)
O6A O 0.3848(2) 0.6765(2) 0.79650(10)
O7A O 0.3704(2) 0.4248(2) 0.84570(10)
O8A O 0.6086(2) 0.5273(2) 0.79070(10)
C9A C 0.1484(3) 0.4215(3) 0.6580(2)
H5A H 0.096 0.455 0.701
H6A H 0.528 0.402 0.636
C3A C -0.2034(3) 0.1983(3) 0.6933(2)
C4A C -0.2483(3) 0.0743(3) 0.7363(2)
S3A S -0.21040(7) 0.09787(7) 0.85151(4)
O2A O -0.3151(2) -0.0318(2) 0.87360(10)
O3A O -0.2526(2) 0.2459(2) 0.87950(10)
O4A O -0.0314(2) 0.0916(2) 0.88320(10)
C5A C -0.3118(3) -0.0708(3) 0.6903(2)
H3A H -0.345 -0.161 0.720
H2A H -0.157 0.301 0.721
O11A O 0.5007(2) -0.1736(2) 0.02060(10)
H11A H 0.446 -0.218 0.058
H12A H 0.573 -0.236 0.012
Na1A Na -0.59680(10) -0.08050(10) 0.88808(6)
Na2A Na -0.17600(10) 0.50270(10) 0.91495(6)
O13A O -0.1253(2) -0.5369(2) 0.06510(10)
H15A H -0.193 -0.498 0.096
H16A H -0.139 -0.637 0.071
O9A O -0.8835(2) -0.1779(2) 0.87490(10)
H7A H -0.938 -0.101 0.889
H8A H -0.955 -0.235 0.828
O10A O -0.7461(2) 0.0932(2) 0.79120(10)
H9A H -0.842 0.092 0.809
H10A H -0.700 0.193 0.800
O12A O -0.2069(2) 0.7417(2) 0.97350(10)
H13A H -0.234 0.812 0.938
H14A H -0.121 0.793 1.016
O6_2 O 0.6152(2) 0.3235(2) 0.20350(10)
O8_2 O 0.3914(2) -0.5273(2) 0.20930(10)
Na1_2 Na -0.40320(10) -0.91950(10) 0.11192(6)
Na2_2 Na -0.82400(10) -0.50270(10) 0.08505(6)
Na1A_2 Na 0.40320(10) -0.08050(10) -0.11192(6)
Na2A_2 Na -0.17600(10) -0.49730(10) -0.08505(6)
Na1A_3 Na 0.40320(10) 0.91950(10) 0.88808(6)
Na2A_3 Na 0.82400(10) 0.50270(10) 0.91495(6)
O6A_2 O -0.6152(2) -0.3235(2) 0.79650(10)
O11_2 O -0.5007(2) 0.1736(2) 0.97940(10)
O11A_2 O -0.4993(2) -0.1736(2) 1.02060(10)
O8A_2 O -0.3914(2) 0.5273(2) 0.79070(10)
O13_2 O 0.1253(2) 0.5369(2) 0.93490(10)
O13A_2 O -0.1253(2) 0.4631(2) 1.06510(10)
H11_2 H -0.446 0.218 0.942
H12_2 H -0.573 0.236 0.988
H11A_2 H -0.554 -0.218 1.058
H12A_2 H -0.427 -0.236 1.012
H15_2 H 0.193 0.498 0.904
H16_2 H 0.139 0.637 0.929
H15A_2 H -0.193 0.502 1.096
H16A_2 H -0.139 0.363 1.071
O14 O 0.1040(2) 0.3651(2) 0.26380(10)
H17 H 0.112 0.343 0.3188
H18 H 0.211 0.389 0.260
O15 O 0.7472(2) 0.1531(2) 0.33720(10)
H19 H 0.698 0.215 0.302
H20 H 0.742 0.066 0.302
loop_
_geom_bond_atom_site_label_1
_geom_bond_atom_site_label_2
_geom_bond_site_symmetry_1
_geom_bond_site_symmetry_2
S1 C6 1_555 1_555
S2 C2 1_555 1_555
S3 O2 1_555 1_555
S4 O6 1_555 1_555
Na1 O2 1_555 1_555
Na2 O3 1_555 1_555
O1 C1 1_555 1_555
O3 S3 1_555 1_555
O4 S3 1_555 1_555
O5 C7 1_555 1_555
O6 Na1_2 1_555 1_555
O7 S4 1_555 1_555
O8 S4 1_555 1_555
O9 Na1 1_555 1_555
O10 Na1 1_555 1_555
O11 Na1 1_555 1_555
O12 Na2 1_555 1_555
O13 Na2 1_555 1_555
O14 H17 1_555 1_555
O15 H19 1_555 1_555
C1 C2 1_555 1_555
C2 C3 1_555 1_555
C3 C4 1_555 1_555
C4 S3 1_555 1_555
C5 C4 1_555 1_555
C6 C1 1_555 1_555
C7 C8 1_555 1_555
C8 S2 1_555 1_555
C9 C8 1_555 1_555
C10 S4 1_555 1_555
C11 C10 1_555 1_555
C12 S1 1_555 1_555
H1 O1 1_555 1_555
H2 C3 1_555 1_555
H3 C5 1_555 1_555
H4 O5 1_555 1_555
H5 C9 1_555 1_555
H6 C11 1_555 1_555
H7 O9 1_555 1_555
H8 O9 1_555 1_555
H9 O10 1_555 1_555
H10 O10 1_555 1_555
H11 O11 1_555 1_555
H12 O11 1_555 1_555
H13 O12 1_555 1_555
H14 O12 1_555 1_555
H15 O13 1_555 1_555
H16 O13 1_555 1_555
H18 O14 1_555 1_555
H20 O15 1_555 1_555
C12A C7 1_555 1_555
S1A C12A 1_555 1_555
C6A S1A 1_555 1_555
C1A C6A 1_555 1_555
O1A C1A 1_555 1_555
H1A O1A 1_555 1_555
C2A C1A 1_555 1_555
S2A C2A 1_555 1_555
C8A S2A 1_555 1_555
C7A C12 1_555 1_555
O5A C7A 1_555 1_555
H4A O5A 1_555 1_555
C11A C12 1_555 1_555
C10A C11A 1_555 1_555
S4A C10A 1_555 1_555
O6A S4A 1_555 1_555
O7A S4A 1_555 1_555
O8A S4A 1_555 1_555
C9A C8A 1_555 1_555
H5A C9A 1_555 1_555
H6A C11A 1_555 1_555
C3A C2A 1_555 1_555
C4A C3A 1_555 1_555
S3A C4A 1_555 1_555
O2A S3A 1_555 1_555
O3A S3A 1_555 1_555
O4A S3A 1_555 1_555
C5A C6A 1_555 1_555
H3A C5A 1_555 1_555
H2A C3A 1_555 1_555
O11A Na1 1_555 1_555
H11A O11A 1_555 1_555
H12A O11A 1_555 1_555
Na1A O2A 1_555 1_555
Na2A O3A 1_555 1_555
O13A Na2 1_555 1_555
H15A O13A 1_555 1_555
H16A O13A 1_555 1_555
O9A Na1A 1_555 1_555
H7A O9A 1_555 1_555
H8A O9A 1_555 1_555
O10A Na1A 1_555 1_555
H9A O10A 1_555 1_555
H10A O10A 1_555 1_555
O12A Na2A 1_555 1_555
H13A O12A 1_555 1_555
H14A O12A 1_555 1_555
O6_2 Na1 1_555 1_555
O8_2 Na2 1_555 1_555
Na2_2 O8 1_555 1_555
Na1A_2 O11 1_555 1_555
Na2A_2 O13 1_555 1_555
Na1A_3 O6A 1_555 1_555
Na2A_3 O8A 1_555 1_555
O6A_2 Na1A 1_555 1_555
O11_2 Na1A 1_555 1_555
O11A_2 Na1A 1_555 1_555
O8A_2 Na2A 1_555 1_555
O13_2 Na2A 1_555 1_555
O13A_2 Na2A 1_555 1_555
H11_2 O11_2 1_555 1_555
H12_2 O11_2 1_555 1_555
H11A_2 O11A_2 1_555 1_555
H12A_2 O11A_2 1_555 1_555
H15_2 O13_2 1_555 1_555
H16_2 O13_2 1_555 1_555
H15A_2 O13A_2 1_555 1_555
H16A_2 O13A_2 1_555 1_555
C5 C6 1_555 1_555
C9 C10 1_555 1_555
C11 C12A 1_555 1_555
C8A C7A 1_555 1_555
C10A C9A 1_555 1_555
C4A C5A 1_555 1_555
O11A Na1A_2 1_555 1_555
O13A Na2A_2 1_555 1_555

#END
