
#######################################################################
#
#                 Cambridge Crystallographic Data Centre
#                                CCDC 
#
#######################################################################
#
# If this CIF has been generated from an entry in the Cambridge 
# Structural Database, then it will include bibliographic, chemical, 
# crystal, experimental, refinement or atomic coordinate data resulting 
# from the CCDC's data processing and validation procedures.
#
#######################################################################

data_WADLET
_symmetry_cell_setting           monoclinic
_symmetry_space_group_name_H-M   'P 21/c'
_symmetry_Int_Tables_number      14
_space_group_name_Hall           '-P 2ybc'
loop_
_symmetry_equiv_pos_site_id
_symmetry_equiv_pos_as_xyz
1 x,y,z
2 -x,1/2+y,1/2-z
3 -x,-y,-z
4 x,1/2-y,1/2+z
_cell_length_a                   9.526(2)
_cell_length_b                   19.053(4)
_cell_length_c                   10.787(2)
_cell_angle_alpha                90
_cell_angle_beta                 92.19(3)
_cell_angle_gamma                90
_cell_volume                     1956.4
loop_
_atom_site_label
_atom_site_type_symbol
_atom_site_fract_x
_atom_site_fract_y
_atom_site_fract_z
Nd1 Nd 0.25241(2) 0.51046(2) -0.04413(2)
O1 O 0.3452(3) 0.56756(18) 0.1506(3)
O2 O 0.1446(3) 0.61303(16) 0.0849(3)
O3 O 0.1012(4) 0.46213(19) 0.1093(3)
O4 O -0.0965(3) 0.44003(19) 0.2017(3)
O5 O 0.3780(3) 0.61452(17) -0.1132(3)
O6 O 0.5803(3) 0.57285(17) -0.0386(3)
O7 O 0.1373(3) 0.40425(17) -0.1363(3)
H1 H 0.0614 0.3892 -0.1176
H2 H 0.1919 0.3689 -0.1676
O8 O 0.3869(4) 0.47161(19) -0.2241(3)
H3 H 0.4622 0.4508 -0.2061
H4 H 0.3600 0.4595 -0.2906
N1 N 0.2392(6) 0.7218(3) 0.5086(5)
N2 N 0.2602(5) 0.4250(3) 0.5534(4)
N3 N 0.7190(5) 0.7923(2) -0.2603(5)
C1 C 0.2397(5) 0.6480(3) 0.2845(5)
C2 C 0.3105(7) 0.6233(3) 0.3886(6)
H5 H 0.356(6) 0.578(3) 0.379(5)
C3 C 0.3052(9) 0.6607(4) 0.4979(6)
H6 H 0.350(7) 0.638(3) 0.569(6)
C4 C 0.1732(6) 0.7461(3) 0.4061(6)
H7 H 0.142(6) 0.788(3) 0.410(5)
C5 C 0.1671(6) 0.7108(3) 0.2944(5)
H8 H 0.129(5) 0.730(3) 0.235(5)
C6 C 0.2430(5) 0.6081(2) 0.1653(4)
C7 C 0.1137(5) 0.4339(2) 0.3240(4)
C8 C 0.2597(6) 0.4396(3) 0.3340(5)
H9 H 0.315(6) 0.448(3) 0.282(5)
C9 C 0.3263(6) 0.4345(3) 0.4484(5)
H10 H 0.431(7) 0.439(3) 0.454(6)
C10 C 0.1204(7) 0.4175(4) 0.5430(5)
H11 H 0.077(7) 0.411(3) 0.615(6)
C11 C 0.0429(6) 0.4220(3) 0.4305(5)
H12 H -0.063(6) 0.419(3) 0.430(5)
C12 C 0.0344(5) 0.4458(2) 0.2028(4)
C13 C 0.5088(5) 0.6182(2) -0.0950(4)
C14 C 0.5812(5) 0.6813(2) -0.1492(4)
C15 C 0.5129(5) 0.7233(3) -0.2358(5)
H13 H 0.423(6) 0.718(3) -0.261(5)
C16 C 0.7194(5) 0.6963(3) -0.1179(6)
H14 H 0.763(6) 0.672(3) -0.065(5)
C17 C 0.7824(6) 0.7517(3) -0.1756(7)
H15 H 0.858(6) 0.765(3) -0.147(5)
C18 C 0.5864(6) 0.7779(3) -0.2883(5)
H16 H 0.541(5) 0.796(3) -0.350(5)
O4B O 0.0965(3) 0.55997(19) -0.2017(3)
O6B O 0.4197(3) 0.42715(17) 0.0386(3)
Nd1B Nd -0.25241(2) 0.48954(2) 0.04413(2)
Nd1B_2 Nd 0.74759(2) 0.48954(2) 0.04413(2)
loop_
_geom_bond_atom_site_label_1
_geom_bond_atom_site_label_2
_geom_bond_site_symmetry_1
_geom_bond_site_symmetry_2
Nd1 O1 1_555 1_555
O1 C6 1_555 1_555
O2 Nd1 1_555 1_555
O3 Nd1 1_555 1_555
O4 C12 1_555 1_555
O5 Nd1 1_555 1_555
O6 C13 1_555 1_555
O7 Nd1 1_555 1_555
H1 O7 1_555 1_555
H2 O7 1_555 1_555
O8 Nd1 1_555 1_555
H3 O8 1_555 1_555
H4 O8 1_555 1_555
N1 C3 1_555 1_555
N2 C9 1_555 1_555
N3 C17 1_555 1_555
C1 C2 1_555 1_555
C2 H5 1_555 1_555
C3 C2 1_555 1_555
H6 C3 1_555 1_555
C4 N1 1_555 1_555
H7 C4 1_555 1_555
C5 C1 1_555 1_555
H8 C5 1_555 1_555
C6 O2 1_555 1_555
C7 C8 1_555 1_555
C8 H9 1_555 1_555
C9 C8 1_555 1_555
H10 C9 1_555 1_555
C10 N2 1_555 1_555
H11 C10 1_555 1_555
C11 C7 1_555 1_555
H12 C11 1_555 1_555
C12 O3 1_555 1_555
C13 O5 1_555 1_555
C14 C13 1_555 1_555
C15 C14 1_555 1_555
H13 C15 1_555 1_555
C16 C14 1_555 1_555
H14 C16 1_555 1_555
C17 C16 1_555 1_555
H15 C17 1_555 1_555
C18 N3 1_555 1_555
H16 C18 1_555 1_555
O4B Nd1 1_555 1_555
O6B Nd1 1_555 1_555
Nd1B O4 1_555 1_555
Nd1B_2 O6 1_555 1_555
C1 C6 1_555 1_555
C4 C5 1_555 1_555
C7 C12 1_555 1_555
C10 C11 1_555 1_555
C15 C18 1_555 1_555

#END
