
#######################################################################
#
#                 Cambridge Crystallographic Data Centre
#                                CCDC 
#
#######################################################################
#
# If this CIF has been generated from an entry in the Cambridge 
# Structural Database, then it will include bibliographic, chemical, 
# crystal, experimental, refinement or atomic coordinate data resulting 
# from the CCDC's data processing and validation procedures.
#
#######################################################################

data_WADPAT
_symmetry_cell_setting           orthorhombic
_symmetry_space_group_name_H-M   'P n m a'
_symmetry_Int_Tables_number      62
_space_group_name_Hall           '-P 2ac 2n'
loop_
_symmetry_equiv_pos_site_id
_symmetry_equiv_pos_as_xyz
1 x,y,z
2 1/2+x,y,1/2-z
3 x,1/2-y,z
4 1/2-x,1/2+y,1/2+z
5 -x,-y,-z
6 1/2-x,-y,1/2+z
7 -x,1/2+y,-z
8 1/2+x,1/2-y,1/2-z
_cell_length_a                   17.9522(13)
_cell_length_b                   7.5712(5)
_cell_length_c                   7.4092(6)
_cell_angle_alpha                90
_cell_angle_beta                 90
_cell_angle_gamma                90
_cell_volume                     1007.06
loop_
_atom_site_label
_atom_site_type_symbol
_atom_site_fract_x
_atom_site_fract_y
_atom_site_fract_z
O1 O 0.2003(3) -0.2500 0.0693(8)
N1 N 0.3773(4) -0.2500 0.4358(9)
C1 C 0.3707(5) -0.2500 0.6162(12)
H1 H 0.3231 -0.2500 0.6657
C2 C 0.4470(5) -0.2500 0.3700(13)
H2 H 0.4533 -0.2500 0.2454
C3 C 0.5014(6) -0.2500 0.6621(14)
H3 H 0.5428 -0.2500 0.7376
C4 C 0.4309(5) -0.2500 0.7323(13)
H4 H 0.4236 -0.2500 0.8565
C5 C 0.5099(6) -0.2500 0.4770(14)
H5 H 0.5571 -0.2500 0.4253
H6 H 0.211(4) -0.168(9) 0.003(9)
O2 O 0.1575(2) 0.0621(6) 0.6137(6)
C6 C 0.1754(3) -0.0456(8) 0.4931(8)
C7 C 0.1127(3) -0.1625(8) 0.4326(7)
H7 H 0.0698 -0.1069 0.3912
O3 O 0.2391(2) -0.0553(6) 0.4216(6)
Ni1 Ni 0.28623(6) -0.2500 0.26154(14)
C7B C 0.1127(3) -0.3375(8) 0.4326(7)
Ni1C Ni 0.21377(6) 0.2500 0.76154(14)
C6B C 0.1754(3) -0.4544(8) 0.4931(8)
H7B H 0.0698 -0.3931 0.3912
O2B O 0.1575(2) -0.5621(6) 0.6137(6)
O3B O 0.2391(2) -0.4447(6) 0.4216(6)
Ni1C_2 Ni 0.21377(6) -0.7500 0.76154(14)
O2C O 0.3425(2) -0.4379(6) 0.1137(6)
O2E O 0.3425(2) -0.0621(6) 0.1137(6)
H6B H 0.211(4) -0.332(9) 0.003(9)
loop_
_geom_bond_atom_site_label_1
_geom_bond_atom_site_label_2
_geom_bond_site_symmetry_1
_geom_bond_site_symmetry_2
O1 H6 1_555 1_555
N1 C1 1_555 1_555
C1 H1 1_555 1_555
C2 N1 1_555 1_555
H2 C2 1_555 1_555
C3 H3 1_555 1_555
C4 C1 1_555 1_555
H4 C4 1_555 1_555
C5 C2 1_555 1_555
H5 C5 1_555 1_555
O2 C6 1_555 1_555
C6 C7 1_555 1_555
C7 H7 1_555 1_555
O3 C6 1_555 1_555
Ni1 O1 1_555 1_555
C7B C7 1_555 1_555
Ni1C O2 1_555 1_555
C6B C7B 1_555 1_555
H7B C7B 1_555 1_555
O2B C6B 1_555 1_555
O3B Ni1 1_555 1_555
Ni1C_2 O2B 1_555 1_555
O2C Ni1 1_555 1_555
O2E Ni1 1_555 1_555
H6B O1 1_555 1_555
N1 Ni1 1_555 1_555
C3 C4 1_555 1_555
C3 C5 1_555 1_555
O3 Ni1 1_555 1_555
C6B O3B 1_555 1_555

#END
