
#######################################################################
#
#                 Cambridge Crystallographic Data Centre
#                                CCDC 
#
#######################################################################
#
# If this CIF has been generated from an entry in the Cambridge 
# Structural Database, then it will include bibliographic, chemical, 
# crystal, experimental, refinement or atomic coordinate data resulting 
# from the CCDC's data processing and validation procedures.
#
#######################################################################

data_WAFDAJ
_symmetry_cell_setting           monoclinic
_symmetry_space_group_name_H-M   'P 21/n'
_symmetry_Int_Tables_number      14
_space_group_name_Hall           '-P 2yn'
loop_
_symmetry_equiv_pos_site_id
_symmetry_equiv_pos_as_xyz
1 x,y,z
2 1/2+x,1/2-y,1/2+z
3 -x,-y,-z
4 1/2-x,1/2+y,1/2-z
_cell_length_a                   9.643(3)
_cell_length_b                   8.976(3)
_cell_length_c                   21.410(7)
_cell_angle_alpha                90
_cell_angle_beta                 90.776(5)
_cell_angle_gamma                90
_cell_volume                     1852.98
loop_
_atom_site_label
_atom_site_type_symbol
_atom_site_fract_x
_atom_site_fract_y
_atom_site_fract_z
Zn1 Zn -0.30592(4) -0.10871(4) -0.161690(16)
N1 N -0.3654(3) 0.0501(3) -0.09227(11)
N2 N -0.1796(3) -0.1722(3) -0.08161(12)
C1 C -0.4589(4) 0.1574(4) -0.09780(16)
H1 H -0.4994 0.1745 -0.1368
C2 C -0.4992(4) 0.2459(4) -0.04782(16)
H2 H -0.5648 0.3207 -0.0536
C3 C -0.4415(4) 0.2217(4) 0.00967(17)
H3 H -0.4692 0.2783 0.0437
C4 C -0.3400(4) 0.1112(4) 0.01752(14)
C5 C -0.2729(4) 0.0775(4) 0.07642(16)
H4 H -0.2986 0.1292 0.1121
C6 C -0.1733(4) -0.0276(4) 0.08064(15)
H5 H -0.1283 -0.0439 0.1187
C7 C -0.1357(4) -0.1143(4) 0.02757(15)
C8 C -0.0327(4) -0.2265(4) 0.02875(18)
H6 H 0.0172 -0.2459 0.0653
C9 C -0.0071(4) -0.3061(4) -0.02410(19)
H7 H 0.0615 -0.3790 -0.0239
C10 C -0.0839(4) -0.2781(4) -0.07861(18)
H8 H -0.0674 -0.3355 -0.1139
C11 C -0.2036(3) -0.0893(4) -0.02983(14)
C12 C -0.3056(3) 0.0268(4) -0.03514(13)
O1 O -0.1582(2) -0.2005(2) -0.22345(10)
O2 O -0.1084(2) 0.0295(3) -0.19605(10)
O3 O -0.1749(2) 0.0493(3) -0.34311(12)
O4 O -0.0360(2) 0.2475(2) -0.33852(10)
C13 C 0.0458(3) -0.0893(3) -0.26582(14)
C14 C 0.0597(3) 0.0113(3) -0.31493(13)
C15 C 0.1829(3) 0.0128(4) -0.34827(15)
H9 H 0.1933 0.0793 -0.3812
C16 C 0.2898(3) -0.0836(4) -0.33280(16)
H10 H 0.3717 -0.0814 -0.3552
C17 C 0.2752(4) -0.1836(4) -0.28400(18)
H11 H 0.3470 -0.2486 -0.2736
C18 C 0.1533(4) -0.1862(4) -0.25081(16)
H12 H 0.1433 -0.2534 -0.2181
C19 C -0.0812(3) -0.0853(4) -0.22606(14)
C20 C -0.0613(3) 0.1086(4) -0.33350(13)
O5 O -0.4123(2) 0.0144(2) -0.23129(10)
H13 H -0.3792 0.0980 -0.2424
H14 H -0.4210 -0.0437 -0.2625
Zn1C Zn -0.19408(4) 0.39129(4) -0.338310(16)
O4C O -0.4640(2) -0.2525(2) -0.16148(10)
O6 O -0.3773(2) 0.8348(3) -0.33856(11)
H15 H -0.3666 0.7497 -0.3217
H16 H -0.2997 0.8789 -0.3420
loop_
_geom_bond_atom_site_label_1
_geom_bond_atom_site_label_2
_geom_bond_site_symmetry_1
_geom_bond_site_symmetry_2
Zn1 N1 1_555 1_555
N1 C1 1_555 1_555
N2 Zn1 1_555 1_555
C1 H1 1_555 1_555
C2 C1 1_555 1_555
H2 C2 1_555 1_555
C3 C2 1_555 1_555
H3 C3 1_555 1_555
C4 C3 1_555 1_555
C5 C4 1_555 1_555
H4 C5 1_555 1_555
C6 C5 1_555 1_555
H5 C6 1_555 1_555
C7 C6 1_555 1_555
C8 C7 1_555 1_555
H6 C8 1_555 1_555
C9 C8 1_555 1_555
H7 C9 1_555 1_555
C10 N2 1_555 1_555
H8 C10 1_555 1_555
C11 N2 1_555 1_555
C12 N1 1_555 1_555
O1 Zn1 1_555 1_555
O2 Zn1 1_555 1_555
O3 C20 1_555 1_555
O4 C20 1_555 1_555
C13 C14 1_555 1_555
C14 C15 1_555 1_555
C15 H9 1_555 1_555
C16 C15 1_555 1_555
H10 C16 1_555 1_555
C17 C16 1_555 1_555
H11 C17 1_555 1_555
C18 C13 1_555 1_555
H12 C18 1_555 1_555
C19 O1 1_555 1_555
C20 C14 1_555 1_555
O5 Zn1 1_555 1_555
H13 O5 1_555 1_555
H14 O5 1_555 1_555
O6 H15 1_555 1_555
H16 O6 1_555 1_555
Zn1C O4 1_555 1_555
O4C Zn1 1_555 1_555
C4 C12 1_555 1_555
C7 C11 1_555 1_555
C9 C10 1_555 1_555
C11 C12 1_555 1_555
O2 C19 1_555 1_555
C13 C19 1_555 1_555
C17 C18 1_555 1_555

#END
