
#######################################################################
#
#                 Cambridge Crystallographic Data Centre
#                                CCDC 
#
#######################################################################
#
# If this CIF has been generated from an entry in the Cambridge 
# Structural Database, then it will include bibliographic, chemical, 
# crystal, experimental, refinement or atomic coordinate data resulting 
# from the CCDC's data processing and validation procedures.
#
#######################################################################

data_WAFDAJ02
_symmetry_cell_setting           monoclinic
_symmetry_space_group_name_H-M   'P 21/n'
_symmetry_Int_Tables_number      14
_space_group_name_Hall           '-P 2yn'
loop_
_symmetry_equiv_pos_site_id
_symmetry_equiv_pos_as_xyz
1 x,y,z
2 1/2-x,1/2+y,1/2-z
3 -x,-y,-z
4 1/2+x,1/2-y,1/2+z
_cell_length_a                   9.62940(10)
_cell_length_b                   8.96760(10)
_cell_length_c                   21.3832(3)
_cell_angle_alpha                90
_cell_angle_beta                 90.7350(10)
_cell_angle_gamma                90
_cell_volume                     1846.34
loop_
_atom_site_label
_atom_site_type_symbol
_atom_site_fract_x
_atom_site_fract_y
_atom_site_fract_z
Zn1 Zn 0.80586(2) 0.39130(2) 0.161392(9)
N1 N 0.86574(16) 0.54996(18) 0.09225(7)
N2 N 0.68007(16) 0.32847(19) 0.08159(7)
C1 C 0.8406(2) 0.6116(2) -0.01798(9)
C2 C 0.80598(19) 0.5275(2) 0.03511(8)
C3 C 0.6354(2) 0.3856(2) -0.02767(9)
C4 C 0.7034(2) 0.4107(2) 0.02983(8)
C5 C 0.9584(2) 0.6577(2) 0.09790(9)
H1 H 0.9983 0.6752 0.1371
C6 C 0.9994(3) 0.7466(3) 0.04776(10)
H2 H 1.0650 0.8216 0.0537
C7 C 0.5841(2) 0.2219(3) 0.07861(11)
H3 H 0.5676 0.1643 0.1139
C8 C 0.9418(3) 0.7220(3) -0.01013(10)
H4 H 0.9698 0.7786 -0.0442
C9 C 0.6735(2) 0.4729(3) -0.08098(9)
H5 H 0.6286 0.4566 -0.1192
C10 C 0.7729(3) 0.5781(3) -0.07673(10)
H6 H 0.7984 0.6301 -0.1124
C11 C 0.5331(2) 0.2738(3) -0.02901(11)
H7 H 0.4834 0.2545 -0.0657
C12 C 0.5072(2) 0.1938(3) 0.02378(12)
H8 H 0.4386 0.1208 0.0234
C13 C 0.93866(19) 0.1083(2) 0.16641(8)
C14 C 1.04562(18) -0.0901(2) 0.23444(8)
C15 C 1.05977(18) 0.0105(2) 0.18496(8)
C16 C 1.1830(2) 0.0130(2) 0.15214(9)
H9 H 1.1935 0.0804 0.1195
C17 C 1.1535(2) -0.1870(2) 0.24930(10)
H10 H 1.1436 -0.2548 0.2819
C18 C 1.2759(2) -0.1833(3) 0.21588(11)
H11 H 1.3481 -0.2480 0.2262
C19 C 1.2905(2) -0.0832(3) 0.16710(10)
H12 H 1.3723 -0.0807 0.1445
O1 O 0.96376(14) 0.24712(15) 0.16143(6)
O2 O 0.82512(14) 0.04946(18) 0.15673(7)
C20 C 0.91776(19) -0.0857(2) 0.27381(8)
O3 O 0.84128(14) -0.20074(15) 0.27655(6)
O4 O 0.89138(15) 0.02952(16) 0.30389(6)
O5 O 0.91232(15) 0.51491(17) 0.23127(6)
H13 H 0.9191 0.4647 0.2632
H14 H 0.878(3) 0.596(3) 0.2444(15)
Zn1A Zn 0.69414(2) -0.10870(2) 0.338608(9)
O3A O 0.65872(14) 0.29926(15) 0.22345(6)
O4A O 0.60862(15) 0.52952(16) 0.19611(6)
O6 O 0.62290(18) 0.8346(2) 0.16131(8)
H15 H 0.706(4) 0.868(4) 0.1612(17)
H16 H 0.628(3) 0.741(4) 0.1754(14)
loop_
_geom_bond_atom_site_label_1
_geom_bond_atom_site_label_2
_geom_bond_site_symmetry_1
_geom_bond_site_symmetry_2
Zn1 N1 1_555 1_555
N1 C2 1_555 1_555
N2 Zn1 1_555 1_555
C1 C2 1_555 1_555
C2 C4 1_555 1_555
C3 C4 1_555 1_555
C4 N2 1_555 1_555
C5 N1 1_555 1_555
H1 C5 1_555 1_555
C6 C5 1_555 1_555
H2 C6 1_555 1_555
C7 N2 1_555 1_555
H3 C7 1_555 1_555
C8 C1 1_555 1_555
H4 C8 1_555 1_555
C9 C3 1_555 1_555
H5 C9 1_555 1_555
C10 C1 1_555 1_555
H6 C10 1_555 1_555
C11 C3 1_555 1_555
H7 C11 1_555 1_555
C12 C7 1_555 1_555
H8 C12 1_555 1_555
C13 C15 1_555 1_555
C14 C15 1_555 1_555
C15 C16 1_555 1_555
C16 H9 1_555 1_555
C17 C14 1_555 1_555
H10 C17 1_555 1_555
C18 C17 1_555 1_555
H11 C18 1_555 1_555
C19 C16 1_555 1_555
H12 C19 1_555 1_555
O1 Zn1 1_555 1_555
O2 C13 1_555 1_555
C20 C14 1_555 1_555
O3 C20 1_555 1_555
O4 C20 1_555 1_555
O5 Zn1 1_555 1_555
H13 O5 1_555 1_555
H14 O5 1_555 1_555
O6 H15 1_555 1_555
H16 O6 1_555 1_555
Zn1A O3 1_555 1_555
O3A Zn1 1_555 1_555
O4A Zn1 1_555 1_555
C6 C8 1_555 1_555
C9 C10 1_555 1_555
C11 C12 1_555 1_555
C13 O1 1_555 1_555
C18 C19 1_555 1_555
O4 Zn1A 1_555 1_555

#END
