
#######################################################################
#
#                 Cambridge Crystallographic Data Centre
#                                CCDC 
#
#######################################################################
#
# If this CIF has been generated from an entry in the Cambridge 
# Structural Database, then it will include bibliographic, chemical, 
# crystal, experimental, refinement or atomic coordinate data resulting 
# from the CCDC's data processing and validation procedures.
#
#######################################################################

data_WAFKOE
_symmetry_cell_setting           tetragonal
_symmetry_space_group_name_H-M   'P 43'
_symmetry_Int_Tables_number      78
_space_group_name_Hall           'P 4cw'
loop_
_symmetry_equiv_pos_site_id
_symmetry_equiv_pos_as_xyz
1 x,y,z
2 -x,-y,1/2+z
3 -y,x,3/4+z
4 y,-x,1/4+z
_cell_length_a                   11.1568(16)
_cell_length_b                   11.1568(16)
_cell_length_c                   24.461(5)
_cell_angle_alpha                90
_cell_angle_beta                 90
_cell_angle_gamma                90
_cell_volume                     3044.76
loop_
_atom_site_label
_atom_site_type_symbol
_atom_site_fract_x
_atom_site_fract_y
_atom_site_fract_z
Cd1 Cd -0.49677(2) 0.09651(2) 0.090830(15)
C1 C -0.4434(3) 0.1018(3) 0.23330(14)
H1 H -0.4182 0.1794 0.2256
C2 C -0.4353(4) 0.0607(4) 0.28659(14)
H2 H -0.4067 0.1105 0.3141
C3 C -0.4695(3) -0.0532(4) 0.29816(13)
H3 H -0.4640 -0.0816 0.3338
C4 C -0.5128(3) -0.1281(3) 0.25717(13)
C5 C -0.5512(3) -0.2486(4) 0.26645(15)
H4 H -0.5462 -0.2805 0.3015
C6 C -0.5937(3) -0.3159(3) 0.22630(14)
H5 H -0.6178 -0.3941 0.2337
C7 C -0.6032(3) -0.2701(3) 0.17132(14)
C8 C -0.6493(4) -0.3367(4) 0.12717(15)
H6 H -0.6742 -0.4154 0.1326
C9 C -0.6576(4) -0.2870(4) 0.07701(16)
H7 H -0.6890 -0.3303 0.0478
C10 C -0.6179(3) -0.1691(3) 0.06982(14)
H8 H -0.6223 -0.1357 0.0350
C11 C -0.5672(3) -0.1511(3) 0.16003(13)
C12 C -0.5207(3) -0.0787(3) 0.20383(12)
C13 C -0.6874(4) 0.2531(4) 0.16596(15)
H9 H -0.6210 0.2559 0.1889
C14 C -0.7934(4) 0.3091(4) 0.18331(17)
H10 H -0.7960 0.3503 0.2163
C15 C -0.8929(4) 0.3020(4) 0.15075(15)
H11 H -0.9646 0.3367 0.1619
C16 C -0.8859(3) 0.2427(3) 0.10098(14)
C17 C -0.9854(3) 0.2346(4) 0.06419(17)
H12 H -1.0604 0.2617 0.0753
C18 C -0.9720(4) 0.1886(4) 0.01394(16)
H13 H -1.0375 0.1858 -0.0096
C19 C -0.8583(3) 0.1438(3) -0.00404(16)
C20 C -0.8396(4) 0.1001(4) -0.05815(16)
H14 H -0.9022 0.0996 -0.0833
C21 C -0.7294(4) 0.0593(4) -0.07256(14)
H15 H -0.7157 0.0311 -0.1078
C22 C -0.6368(4) 0.0600(3) -0.03416(16)
H16 H -0.5621 0.0311 -0.0446
C23 C -0.7601(3) 0.1425(3) 0.03144(15)
C24 C -0.7746(3) 0.1925(3) 0.08532(15)
C25 C 0.5408(3) -0.3642(3) -0.14318(12)
C26 C 0.4441(3) -0.3807(3) -0.17726(13)
H17 H 0.4554 -0.4153 -0.2115
C27 C 0.3297(3) -0.3461(3) -0.16117(17)
H18 H 0.2653 -0.3590 -0.1846
C28 C 0.3100(3) -0.2923(3) -0.11033(12)
C29 C 0.4087(4) -0.2724(3) -0.07805(15)
H19 H 0.3986 -0.2320 -0.0451
C30 C 0.5225(4) -0.3101(3) -0.09253(14)
H20 H 0.5864 -0.2993 -0.0686
C31 C 0.1877(3) -0.2581(3) -0.09475(13)
H21 H 0.1275 -0.2727 -0.1202
C32 C 0.1548(3) -0.2081(3) -0.04761(14)
H22 H 0.2159 -0.1951 -0.0224
C33 C 0.0343(3) -0.1710(3) -0.03044(14)
C34 C -0.0657(3) -0.1828(3) -0.06351(13)
H23 H -0.0578 -0.2173 -0.0979
C35 C -0.1771(3) -0.1444(3) -0.04625(13)
H24 H -0.2432 -0.1544 -0.0690
C36 C -0.1919(3) -0.0901(3) 0.00548(13)
C37 C -0.0933(3) -0.0800(3) 0.03854(13)
H25 H -0.1008 -0.0452 0.0729
C38 C 0.0171(3) -0.1210(3) 0.02122(13)
H26 H 0.0822 -0.1151 0.0448
C39 C 0.6654(3) -0.4071(3) -0.15871(18)
C40 C -0.3154(3) -0.0433(3) 0.02189(14)
N1 N -0.6504(3) 0.1002(3) 0.01683(11)
N2 N -0.4860(3) 0.0343(3) 0.19243(11)
N3 N -0.5746(3) -0.1031(3) 0.10985(10)
N4 N -0.6771(3) 0.1962(3) 0.11852(12)
O1 O -0.3184(2) 0.0248(2) 0.06283(10)
O2 O -0.4030(3) -0.0738(2) -0.00559(10)
O3 O 0.7447(3) -0.4012(2) -0.12124(10)
O4 O 0.6853(3) -0.4473(2) -0.20432(10)
O3C O -0.4012(2) 0.2553(3) 0.12876(10)
Cd1B Cd 0.90349(2) -0.49677(2) -0.159170(15)
loop_
_geom_bond_atom_site_label_1
_geom_bond_atom_site_label_2
_geom_bond_site_symmetry_1
_geom_bond_site_symmetry_2
Cd1 N1 1_555 1_555
C1 H1 1_555 1_555
C2 C1 1_555 1_555
H2 C2 1_555 1_555
C3 C2 1_555 1_555
H3 C3 1_555 1_555
C4 C3 1_555 1_555
C5 C4 1_555 1_555
H4 C5 1_555 1_555
C6 C5 1_555 1_555
H5 C6 1_555 1_555
C7 C6 1_555 1_555
C8 C7 1_555 1_555
H6 C8 1_555 1_555
C9 C8 1_555 1_555
H7 C9 1_555 1_555
C10 C9 1_555 1_555
H8 C10 1_555 1_555
C11 C7 1_555 1_555
C12 C4 1_555 1_555
C13 H9 1_555 1_555
C14 C13 1_555 1_555
H10 C14 1_555 1_555
C15 C14 1_555 1_555
H11 C15 1_555 1_555
C16 C15 1_555 1_555
C17 C16 1_555 1_555
H12 C17 1_555 1_555
C18 C17 1_555 1_555
H13 C18 1_555 1_555
C19 C18 1_555 1_555
C20 C19 1_555 1_555
H14 C20 1_555 1_555
C21 C20 1_555 1_555
H15 C21 1_555 1_555
C22 C21 1_555 1_555
H16 C22 1_555 1_555
C23 C19 1_555 1_555
C24 C16 1_555 1_555
C25 C26 1_555 1_555
C26 H17 1_555 1_555
C27 C26 1_555 1_555
H18 C27 1_555 1_555
C28 C27 1_555 1_555
C29 C28 1_555 1_555
H19 C29 1_555 1_555
C30 C25 1_555 1_555
H20 C30 1_555 1_555
C31 C28 1_555 1_555
H21 C31 1_555 1_555
C32 C31 1_555 1_555
H22 C32 1_555 1_555
C33 C32 1_555 1_555
C34 C33 1_555 1_555
H23 C34 1_555 1_555
C35 C34 1_555 1_555
H24 C35 1_555 1_555
C36 C35 1_555 1_555
C37 C36 1_555 1_555
H25 C37 1_555 1_555
C38 C33 1_555 1_555
H26 C38 1_555 1_555
C39 C25 1_555 1_555
C40 C36 1_555 1_555
N1 C22 1_555 1_555
N2 Cd1 1_555 1_555
N3 Cd1 1_555 1_555
N4 Cd1 1_555 1_555
O1 Cd1 1_555 1_555
O2 C40 1_555 1_555
O3 C39 1_555 1_555
O4 C39 1_555 1_555
O3C Cd1 1_555 1_555
Cd1B O3 1_555 1_555
C1 N2 1_555 1_555
C10 N3 1_555 1_555
C11 C12 1_555 1_555
C11 N3 1_555 1_555
C12 N2 1_555 1_555
C13 N4 1_555 1_555
C23 C24 1_555 1_555
C23 N1 1_555 1_555
C24 N4 1_555 1_555
C29 C30 1_555 1_555
C37 C38 1_555 1_555
C40 O1 1_555 1_555

#END
