
#######################################################################
#
#                 Cambridge Crystallographic Data Centre
#                                CCDC 
#
#######################################################################
#
# If this CIF has been generated from an entry in the Cambridge 
# Structural Database, then it will include bibliographic, chemical, 
# crystal, experimental, refinement or atomic coordinate data resulting 
# from the CCDC's data processing and validation procedures.
#
#######################################################################

data_WAFKUK
_symmetry_cell_setting           monoclinic
_symmetry_space_group_name_H-M   'P 2/c'
_symmetry_Int_Tables_number      13
_space_group_name_Hall           '-P 2yc'
loop_
_symmetry_equiv_pos_site_id
_symmetry_equiv_pos_as_xyz
1 x,y,z
2 x,-y,1/2+z
3 -x,-y,-z
4 -x,y,1/2-z
_cell_length_a                   16.776(3)
_cell_length_b                   10.141(2)
_cell_length_c                   17.559(4)
_cell_angle_alpha                90
_cell_angle_beta                 97.11(3)
_cell_angle_gamma                90
_cell_volume                     2964.26
loop_
_atom_site_label
_atom_site_type_symbol
_atom_site_fract_x
_atom_site_fract_y
_atom_site_fract_z
Cd1 Cd -1.0000 0.16749(6) 0.2500
C25 C -0.8689(4) -0.0108(7) 0.1778(4)
H16 H -0.8472 0.0699 0.1660
C26 C -0.8314(5) -0.1284(8) 0.1567(5)
H17 H -0.7856 -0.1247 0.1319
C27 C -0.8635(5) -0.2467(7) 0.1734(4)
H18 H -0.8398 -0.3243 0.1590
C28 C -0.9306(4) -0.2530(6) 0.2113(4)
C29 C -0.9656(4) -0.1295(6) 0.2294(4)
C30 C -0.9650(5) -0.3739(6) 0.2315(5)
H19 H -0.9413 -0.4534 0.2204
C31 C -0.9994(5) 0.4160(6) 0.0631(4)
C32 C -1.0698(5) 0.4474(6) 0.0200(5)
H20 H -1.1179 0.4135 0.0329
C33 C -0.9295(5) 0.4687(6) 0.0445(4)
H21 H -0.8812 0.4494 0.0743
C34 C -0.9952(6) 0.3244(6) 0.1311(4)
N3 N -0.9329(4) -0.0124(5) 0.2132(3)
O5 O -0.9294(3) 0.2922(5) 0.1640(3)
O6 O -1.0620(3) 0.2874(4) 0.1507(2)
C29C C -1.0344(4) -0.1295(6) 0.2706(4)
C28C C -1.0694(4) -0.2530(6) 0.2887(4)
C27C C -1.1365(5) -0.2467(7) 0.3266(4)
C26C C -1.1686(5) -0.1284(8) 0.3433(5)
C25C C -1.1311(4) -0.0108(7) 0.3222(4)
H16C H -1.1528 0.0699 0.3340
N3C N -1.0671(4) -0.0124(5) 0.2868(3)
C33B C -1.0705(5) 0.5313(6) -0.0445(4)
C31B C -1.0006(5) 0.5840(6) -0.0631(4)
C32B C -0.9302(5) 0.5526(6) -0.0200(5)
H20B H -0.8821 0.5865 -0.0329
C34B C -1.0048(6) 0.6756(6) -0.1311(4)
O5B O -1.0706(3) 0.7078(5) -0.1640(3)
Cd1A Cd -1.0000 0.83251(6) -0.2500
O6B O -0.9380(3) 0.7126(4) -0.1507(2)
H21B H -1.1188 0.5506 -0.0743
O5C O -1.0706(3) 0.2922(5) 0.3360(3)
O6C O -0.9380(3) 0.2874(4) 0.3493(2)
H17C H -1.2144 -0.1247 0.3681
H18C H -1.1602 -0.3243 0.3410
C30C C -1.0350(5) -0.3739(6) 0.2685(5)
H19C H -1.0587 -0.4534 0.2796
Cd2 Cd 0.38919(3) -0.29072(4) -0.75865(3)
C1 C 0.3187(5) -0.4446(7) -0.9207(4)
H1 H 0.3130 -0.3601 -0.9411
C2 C 0.2939(5) -0.5532(10) -0.9688(5)
H2 H -0.2755 0.5411 0.0205
C3 C 0.2980(5) -0.6749(8) -0.9372(6)
H3 H -0.2780 0.7464 -0.0333
C4 C 0.3313(4) -0.6961(7) -0.8618(5)
C5 C 0.3392(6) -0.8246(7) -0.8290(6)
H4 H -0.3216 0.8978 -0.1417
C6 C 0.3720(6) -0.8398(7) -0.7563(6)
H5 H -0.3756 0.9240 -0.2648
C7 C 0.4023(4) -0.7290(7) -0.7093(5)
C8 C 0.4376(5) -0.7404(7) -0.6345(5)
H6 H -0.4424 0.8234 -0.3881
C9 C 0.4655(5) -0.6333(8) -0.5930(5)
H7 H -0.4909 0.6411 -0.4570
C10 C 0.4541(4) -0.5092(7) -0.6296(4)
H8 H -0.4708 0.4340 -0.3982
C11 C -0.3936(4) 0.6014(6) -0.2578(4)
C12 C -0.3567(4) 0.5835(6) -0.1809(4)
C13 C 0.2097(4) -0.1593(6) -0.6290(4)
C14 C 0.2133(4) -0.0254(7) -0.6132(4)
H9 H 0.2543 0.0251 -0.6293
C15 C 0.1562(4) 0.0339(6) -0.5737(4)
H10 H 0.1588 0.1240 -0.5637
C16 C 0.0950(4) -0.0416(7) -0.5489(4)
C17 C 0.0916(4) -0.1768(6) -0.5649(4)
H11 H 0.0504 -0.2277 -0.5495
C18 C 0.1494(3) -0.2347(6) -0.6035(3)
H12 H 0.1478 -0.3250 -0.6125
C19 C 0.0330(4) 0.0265(7) -0.5102(4)
H13 H -0.0414 -0.1155 -0.5009
C20 C 0.2675(4) -0.2227(8) -0.6749(4)
C21 C -0.4729(4) 0.0728(5) -0.0580(3)
C22 C -0.4196(4) -0.0030(5) -0.0119(3)
H14 H -0.3656 -0.0049 -0.0191
C23 C -0.4477(4) -0.0783(5) 0.0468(3)
H15 H -0.5877 0.1318 -0.0779
C24 C -0.4444(4) 0.1538(6) -0.1230(4)
N1 N 0.4215(3) -0.4952(5) -0.6999(3)
N2 N 0.3493(3) -0.4581(5) -0.8482(3)
O1 O 0.2655(3) -0.3416(5) -0.6901(3)
O2 O -0.3207(3) 0.1468(4) -0.3027(2)
O3 O -0.3731(3) 0.1457(4) -0.1319(3)
O4 O -0.5069(3) -0.2252(4) 0.1649(2)
O4C O 0.5069(3) -0.2252(4) -0.6649(2)
Cd2C Cd -0.38919(3) -0.29072(4) 0.25865(3)
C19B C -0.0330(4) -0.0265(7) -0.4898(4)
C16B C -0.0950(4) 0.0416(7) -0.4511(4)
C15B C -0.1562(4) -0.0339(6) -0.4263(4)
C14B C -0.2133(4) 0.0254(7) -0.3868(4)
C13B C -0.2097(4) 0.1593(6) -0.3710(4)
C18B C -0.1494(3) 0.2347(6) -0.3965(3)
C17B C -0.0916(4) 0.1768(6) -0.4351(4)
H11B H -0.0504 0.2277 -0.4505
H12B H -0.1478 0.3250 -0.3875
C20B C -0.2675(4) 0.2227(8) -0.3251(4)
O1B O -0.2655(3) 0.3416(5) -0.3099(3)
Cd2B Cd -0.38919(3) 0.29072(4) -0.24135(3)
N1B N -0.4215(3) 0.4952(5) -0.3001(3)
C10B C -0.4541(4) 0.5092(7) -0.3704(4)
C9B C -0.4655(5) 0.6333(8) -0.4070(5)
C8B C -0.4376(5) 0.7404(7) -0.3655(5)
C7B C -0.4023(4) 0.7290(7) -0.2907(5)
C6B C -0.3720(6) 0.8398(7) -0.2437(6)
C5B C -0.3392(6) 0.8246(7) -0.1710(6)
C4B C -0.3313(4) 0.6961(7) -0.1382(5)
C3B C -0.2980(5) 0.6749(8) -0.0628(6)
C2B C -0.2939(5) 0.5532(10) -0.0312(5)
C1B C -0.3187(5) 0.4446(7) -0.0793(4)
H1B H -0.3130 0.3601 -0.0589
N2B N -0.3493(3) 0.4581(5) -0.1518(3)
C21B C -0.5271(4) -0.0728(5) 0.0580(3)
C22B C -0.5804(4) 0.0030(5) 0.0119(3)
H14B H -0.6344 0.0049 0.0191
C23B C -0.5523(4) 0.0783(5) -0.0468(3)
C24B C -0.5556(4) -0.1538(6) 0.1230(4)
O3B O -0.6269(3) -0.1457(4) 0.1319(3)
Cd2_2 Cd -0.61081(3) -0.29072(4) 0.24135(3)
H15B H -0.4123 -0.1318 0.0779
O4B O -0.4931(3) 0.2252(4) -0.1649(2)
O4A O -0.5069(3) 0.2252(4) -0.3351(2)
Cd2A Cd -0.61081(3) 0.29072(4) -0.25865(3)
H9B H -0.2543 -0.0251 -0.3707
H10B H -0.1588 -0.1240 -0.4363
H13B H 0.0414 0.1155 -0.4991
O2B O 0.3207(3) -0.1468(4) -0.6973(2)
O3B_2 O 0.3731(3) -0.1457(4) -0.8681(3)
O4_2 O 0.4931(3) -0.2252(4) -0.8351(2)
C12B C 0.3567(4) -0.5835(6) -0.8191(4)
C11B C 0.3936(4) -0.6014(6) -0.7422(4)
H2B H 0.2755 -0.5411 -1.0205
H3B H 0.2780 -0.7464 -0.9667
H4B H 0.3216 -0.8978 -0.8583
H5B H 0.3756 -0.9240 -0.7352
H6B H 0.4424 -0.8234 -0.6119
H7B H 0.4909 -0.6411 -0.5430
H8B H 0.4708 -0.4340 -0.6018
O7 O -0.2274(4) -0.6067(6) 0.1438(4)
loop_
_geom_bond_atom_site_label_1
_geom_bond_atom_site_label_2
_geom_bond_site_symmetry_1
_geom_bond_site_symmetry_2
Cd1 N3 1_555 1_555
Cd2 N1 1_555 1_555
C1 H1 1_555 1_555
C2 C1 1_555 1_555
H2 C2B 1_555 1_555
C3 C2 1_555 1_555
H3 C3B 1_555 1_555
C4 C3 1_555 1_555
C5 C4 1_555 1_555
H4 C5B 1_555 1_555
C6 C5 1_555 1_555
H5 C6B 1_555 1_555
C7 C6 1_555 1_555
C8 C7 1_555 1_555
H6 C8B 1_555 1_555
C9 C8 1_555 1_555
H7 C9B 1_555 1_555
C10 C9 1_555 1_555
H8 C10B 1_555 1_555
C11 C12 1_555 1_555
C12 C4B 1_555 1_555
C13 C14 1_555 1_555
C14 H9 1_555 1_555
C15 C14 1_555 1_555
H10 C15 1_555 1_555
C16 C15 1_555 1_555
C17 C16 1_555 1_555
H11 C17 1_555 1_555
C18 C13 1_555 1_555
H12 C18 1_555 1_555
C19 C16 1_555 1_555
H13 C19B 1_555 1_555
C20 C13 1_555 1_555
C21 C22 1_555 1_555
C22 H14 1_555 1_555
C23 C22 1_555 1_555
H15 C23B 1_555 1_555
C24 C21 1_555 1_555
C25 H16 1_555 1_555
C26 C25 1_555 1_555
H17 C26 1_555 1_555
C27 C26 1_555 1_555
H18 C27 1_555 1_555
C28 C27 1_555 1_555
C29 C28 1_555 1_555
C30 C28 1_555 1_555
H19 C30 1_555 1_555
C31 C32 1_555 1_555
C32 H20 1_555 1_555
C33 C31 1_555 1_555
H21 C33 1_555 1_555
C34 C31 1_555 1_555
N1 C10 1_555 1_555
N2 Cd2 1_555 1_555
N3 C25 1_555 1_555
O1 Cd2 1_555 1_555
O2 C20B 1_555 1_555
O3 C24 1_555 1_555
O4 Cd2C 1_555 1_555
O5 Cd1 1_555 1_555
O6 Cd1 1_555 1_555
C29C C29 1_555 1_555
C28C C29C 1_555 1_555
C27C C28C 1_555 1_555
C26C C27C 1_555 1_555
C25C C26C 1_555 1_555
H16C C25C 1_555 1_555
N3C Cd1 1_555 1_555
C33B C32 1_555 1_555
C31B C33B 1_555 1_555
C32B C33 1_555 1_555
H20B C32B 1_555 1_555
C34B C31B 1_555 1_555
O5B C34B 1_555 1_555
Cd1A O5B 1_555 1_555
O6B C34B 1_555 1_555
H21B C33B 1_555 1_555
O5C Cd1 1_555 1_555
O6C Cd1 1_555 1_555
H17C C26C 1_555 1_555
H18C C27C 1_555 1_555
C30C C30 1_555 1_555
H19C C30C 1_555 1_555
O4C Cd2 1_555 1_555
C19B C19 1_555 1_555
C16B C19B 1_555 1_555
C15B C16B 1_555 1_555
C14B C15B 1_555 1_555
C13B C14B 1_555 1_555
C18B C13B 1_555 1_555
C17B C16B 1_555 1_555
H11B C17B 1_555 1_555
H12B C18B 1_555 1_555
C20B C13B 1_555 1_555
O1B C20B 1_555 1_555
Cd2B O2 1_555 1_555
N1B C11 1_555 1_555
C10B N1B 1_555 1_555
C9B C10B 1_555 1_555
C8B C9B 1_555 1_555
C7B C11 1_555 1_555
C6B C7B 1_555 1_555
C5B C6B 1_555 1_555
C4B C5B 1_555 1_555
C3B C4B 1_555 1_555
C2B C3B 1_555 1_555
C1B C2B 1_555 1_555
H1B C1B 1_555 1_555
N2B C12 1_555 1_555
C21B C23 1_555 1_555
C22B C21B 1_555 1_555
H14B C22B 1_555 1_555
C23B C21 1_555 1_555
C24B O4 1_555 1_555
O3B C24B 1_555 1_555
Cd2_2 O4 1_555 1_555
H15B C23 1_555 1_555
O4B C24 1_555 1_555
O4A Cd2B 1_555 1_555
Cd2A O4B 1_555 1_555
H9B C14B 1_555 1_555
H10B C15B 1_555 1_555
H13B C19 1_555 1_555
O2B Cd2 1_555 1_555
O3B_2 Cd2 1_555 1_555
O4_2 Cd2 1_555 1_555
C12B C4 1_555 1_555
C11B C7 1_555 1_555
H2B C2 1_555 1_555
H3B C3 1_555 1_555
H4B C5 1_555 1_555
H5B C6 1_555 1_555
H6B C8 1_555 1_555
H7B C9 1_555 1_555
H8B C10 1_555 1_555
C1 N2 1_555 1_555
C17 C18 1_555 1_555
C20 O1 1_555 1_555
C20 O2B 1_555 1_555
C29 N3 1_555 1_555
C34 O5 1_555 1_555
C34 O6 1_555 1_555
N1 C11B 1_555 1_555
N2 C12B 1_555 1_555
O3 Cd2B 1_555 1_555
C29C N3C 1_555 1_555
C28C C30C 1_555 1_555
C25C N3C 1_555 1_555
C31B C32B 1_555 1_555
Cd1A O6B 1_555 1_555
C18B C17B 1_555 1_555
O1B Cd2B 1_555 1_555
Cd2B N1B 1_555 1_555
Cd2B N2B 1_555 1_555
Cd2B O4B 1_555 1_555
C8B C7B 1_555 1_555
C1B N2B 1_555 1_555
C21B C24B 1_555 1_555
C22B C23B 1_555 1_555
O3B Cd2_2 1_555 1_555
O4A Cd2A 1_555 1_555
C12B C11B 1_555 1_555

#END
