
#######################################################################
#
#                 Cambridge Crystallographic Data Centre
#                                CCDC 
#
#######################################################################
#
# If this CIF has been generated from an entry in the Cambridge 
# Structural Database, then it will include bibliographic, chemical, 
# crystal, experimental, refinement or atomic coordinate data resulting 
# from the CCDC's data processing and validation procedures.
#
#######################################################################

data_WAFLAR
_symmetry_cell_setting           triclinic
_symmetry_space_group_name_H-M   'P -1'
_symmetry_Int_Tables_number      2
_space_group_name_Hall           '-P 1'
loop_
_symmetry_equiv_pos_site_id
_symmetry_equiv_pos_as_xyz
1 x,y,z
2 -x,-y,-z
_cell_length_a                   13.214(3)
_cell_length_b                   13.661(3)
_cell_length_c                   16.964(3)
_cell_angle_alpha                113.03(3)
_cell_angle_beta                 92.53(3)
_cell_angle_gamma                90.27(3)
_cell_volume                     2814.67
loop_
_atom_site_label
_atom_site_type_symbol
_atom_site_fract_x
_atom_site_fract_y
_atom_site_fract_z
Cd1 Cd 0.21239(3) 0.35219(4) 0.46811(3)
Cd2 Cd -0.01413(3) 0.42652(4) 0.38922(3)
Cd3 Cd 0.16746(4) 0.21123(4) 0.24645(3)
C1 C 0.4007(5) 0.2792(7) 0.5636(5)
H1 H 0.3653 0.2144 0.5415
C2 C 0.4881(7) 0.2896(9) 0.6137(6)
H2 H 0.5106 0.2313 0.6245
C3 C 0.5413(6) 0.3812(8) 0.6474(5)
H3 H 0.5997 0.3867 0.6817
C4 C 0.5087(5) 0.4685(7) 0.6309(5)
C5 C 0.5611(6) 0.5695(8) 0.6610(5)
H4 H 0.6215 0.5791 0.6937
C6 C 0.5247(6) 0.6506(7) 0.6432(5)
H5 H 0.5601 0.7154 0.6640
C7 C 0.4330(6) 0.6389(6) 0.5931(5)
C8 C 0.3913(6) 0.7203(6) 0.5744(5)
H6 H 0.4239 0.7866 0.5946
C9 C 0.3016(7) 0.7035(6) 0.5257(5)
H7 H 0.2739 0.7578 0.5123
C10 C 0.2525(6) 0.6033(6) 0.4968(4)
H8 H 0.1912 0.5930 0.4652
C11 C 0.3786(5) 0.5408(5) 0.5605(4)
C12 C 0.4175(5) 0.4537(6) 0.5788(4)
C13 C -0.1989(6) 0.4792(6) 0.2806(5)
H9 H -0.1645 0.5445 0.2997
C14 C -0.2886(6) 0.4655(8) 0.2298(5)
H10 H -0.3133 0.5206 0.2158
C15 C -0.3391(6) 0.3690(9) 0.2010(5)
H11 H -0.3983 0.3582 0.1666
C16 C -0.3027(5) 0.2881(7) 0.2227(5)
C17 C -0.3528(6) 0.1889(8) 0.1973(5)
H12 H -0.4136 0.1767 0.1648
C18 C -0.3153(7) 0.1113(8) 0.2188(5)
H13 H -0.3492 0.0457 0.1997
C19 C -0.2214(6) 0.1288(6) 0.2720(5)
C20 C -0.1813(8) 0.0522(6) 0.2995(6)
H14 H -0.2135 -0.0140 0.2827
C21 C -0.0957(8) 0.0744(7) 0.3504(6)
H15 H -0.0691 0.0249 0.3703
C22 C -0.0480(6) 0.1742(6) 0.3726(5)
H16 H 0.0121 0.1883 0.4061
C23 C -0.1705(5) 0.2278(5) 0.2999(4)
C24 C -0.2108(5) 0.3072(6) 0.2744(4)
C25 C -0.0042(6) 0.3016(6) 0.1401(5)
H17 H 0.0347 0.3641 0.1638
C26 C -0.0886(6) 0.2989(7) 0.0870(5)
H18 H -0.1062 0.3592 0.0773
C27 C -0.1443(6) 0.2084(7) 0.0499(5)
H19 H -0.2010 0.2067 0.0148
C28 C -0.1180(5) 0.1168(6) 0.0634(4)
C29 C -0.1721(5) 0.0190(6) 0.0277(5)
H20 H -0.2288 0.0128 -0.0086
C30 C -0.1436(6) -0.0669(6) 0.0446(5)
H21 H -0.1808 -0.1306 0.0205
C31 C -0.0566(5) -0.0584(5) 0.0997(4)
C32 C -0.0242(6) -0.1453(6) 0.1215(5)
H22 H -0.0606 -0.2095 0.1000
C33 C 0.0577(7) -0.1334(6) 0.1724(6)
H23 H 0.0800 -0.1902 0.1853
C34 C 0.1099(6) -0.0380(6) 0.2062(5)
H24 H 0.1675 -0.0322 0.2415
C35 C -0.0009(5) 0.0371(5) 0.1380(4)
C36 C -0.0323(5) 0.1279(5) 0.1201(4)
C37 C 0.6138(6) 0.7497(8) -0.0834(5)
C38 C 0.5860(6) 0.6487(9) -0.0936(5)
H25 H 0.6144 0.5916 -0.1367
C39 C 0.5174(6) 0.6282(8) -0.0427(5)
H26 H 0.5008 0.5585 -0.0509
C40 C 0.4732(6) 0.7142(8) 0.0217(5)
C41 C 0.4979(6) 0.8146(8) 0.0331(5)
H27 H 0.4690 0.8718 0.0757
C42 C 0.5691(6) 0.8322(8) -0.0210(5)
H28 H 0.5855 0.9016 -0.0137
C43 C 0.4012(6) 0.6867(8) 0.0755(5)
H29 H 0.3713 0.6191 0.0515
C44 C 0.3758(6) 0.7461(7) 0.1514(5)
H30 H 0.4051 0.8141 0.1761
C45 C 0.3032(5) 0.7153(6) 0.2035(4)
C46 C 0.2632(5) 0.6144(6) 0.1771(4)
H31 H 0.2827 0.5624 0.1259
C47 C 0.1942(5) 0.5882(6) 0.2254(4)
H32 H 0.1713 0.5180 0.2077
C48 C 0.1592(5) 0.6636(5) 0.2984(4)
C49 C 0.2005(5) 0.7642(5) 0.3259(5)
H33 H 0.1787 0.8163 0.3761
C50 C 0.2734(5) 0.7908(6) 0.2816(5)
H34 H 0.3028 0.8588 0.3036
C51 C 0.6878(7) 0.7667(11) -0.1411(6)
C52 C 0.0776(5) 0.6352(5) 0.3472(4)
N1 N 0.3660(4) 0.3595(5) 0.5460(4)
N2 N 0.2901(4) 0.5237(4) 0.5127(3)
N3 N -0.0828(4) 0.2483(4) 0.3492(3)
N4 N -0.1611(4) 0.4034(5) 0.3025(3)
N5 N 0.0820(4) 0.0474(4) 0.1908(3)
N6 N 0.0235(4) 0.2195(4) 0.1585(3)
O1 O 0.1588(4) 0.2530(5) 0.5581(4)
H40 H 0.2052 0.2160 0.5630
H41 H 0.1022 0.2788 0.5895
O2 O 0.0594(3) 0.4171(3) 0.5113(2)
H42 H 0.0261 0.3807 0.5370
O3 O 0.1395(3) 0.3706(4) 0.3450(2)
H43 H 0.1672 0.4092 0.3470
O4 O 0.2337(4) 0.1941(4) 0.3646(3)
H44 H 0.1649 0.1531 0.3593
O5 O 0.7430(5) 0.6905(6) -0.1818(4)
O6 O 0.6950(5) 0.8530(7) -0.1465(4)
O7 O 0.0455(3) 0.5403(4) 0.3168(3)
O8 O 0.0480(4) 0.7077(4) 0.4133(3)
Cd2A Cd 0.01413(3) 0.57348(4) 0.61078(3)
O2A O -0.0594(3) 0.5829(3) 0.4887(2)
H42A H -0.0261 0.6193 0.4630
C37A C 0.3862(6) 0.2503(8) 0.0834(5)
C38A C 0.4140(6) 0.3513(9) 0.0936(5)
H25A H 0.3856 0.4084 0.1367
C39A C 0.4826(6) 0.3718(8) 0.0427(5)
H26A H 0.4992 0.4415 0.0509
C40A C 0.5268(6) 0.2858(8) -0.0217(5)
C41A C 0.5021(6) 0.1854(8) -0.0331(5)
H27A H 0.5310 0.1282 -0.0757
C42A C 0.4309(6) 0.1678(8) 0.0210(5)
H28A H 0.4145 0.0984 0.0137
C43A C 0.5988(6) 0.3133(8) -0.0755(5)
H29A H 0.6287 0.3809 -0.0515
C44A C 0.6242(6) 0.2539(7) -0.1514(5)
H30A H 0.5949 0.1859 -0.1761
C45A C 0.6968(5) 0.2847(6) -0.2035(4)
C46A C 0.7368(5) 0.3856(6) -0.1771(4)
H31A H 0.7173 0.4376 -0.1259
C47A C 0.8058(5) 0.4118(6) -0.2254(4)
H32A H 0.8287 0.4820 -0.2077
C48A C 0.8408(5) 0.3364(5) -0.2984(4)
C49A C 0.7995(5) 0.2358(5) -0.3259(5)
H33A H 0.8213 0.1837 -0.3761
C50A C 0.7266(5) 0.2092(6) -0.2816(5)
H34A H 0.6972 0.1412 -0.3036
C51A C 0.3122(7) 0.2333(11) 0.1411(6)
C52A C 0.9224(5) 0.3648(5) -0.3472(4)
O5A O 0.2570(5) 0.3095(6) 0.1818(4)
O6A O 0.3050(5) 0.1470(7) 0.1465(4)
O7A O 0.9545(3) 0.4597(4) -0.3168(3)
O8A O 0.9520(4) 0.2923(4) -0.4133(3)
C13A C 0.1989(6) 0.5208(6) 0.7194(5)
H9A H 0.1645 0.4555 0.7003
C14A C 0.2886(6) 0.5345(8) 0.7702(5)
H10A H 0.3133 0.4794 0.7842
C15A C 0.3391(6) 0.6310(9) 0.7990(5)
H11A H 0.3983 0.6418 0.8334
C16A C 0.3027(5) 0.7119(7) 0.7773(5)
C17A C 0.3528(6) 0.8111(8) 0.8027(5)
H12A H 0.4136 0.8233 0.8352
C18A C 0.3153(7) 0.8887(8) 0.7812(5)
H13A H 0.3492 0.9543 0.8003
C19A C 0.2214(6) 0.8712(6) 0.7280(5)
C20A C 0.1813(8) 0.9478(6) 0.7005(6)
H14A H 0.2135 1.0140 0.7173
C21A C 0.0957(8) 0.9256(7) 0.6496(6)
H15A H 0.0691 0.9751 0.6297
C22A C 0.0480(6) 0.8258(6) 0.6274(5)
H16A H -0.0121 0.8117 0.5939
C23A C 0.1705(5) 0.7722(5) 0.7001(4)
C24A C 0.2108(5) 0.6928(6) 0.7256(4)
N3A N 0.0828(4) 0.7517(4) 0.6508(3)
N4A N 0.1611(4) 0.5966(5) 0.6975(3)
O3A O -0.1395(3) 0.6294(4) 0.6550(2)
H43A H -0.1672 0.5908 0.6530
Cd1A Cd -0.21239(3) 0.64781(4) 0.53189(3)
Cd3A Cd -0.16746(4) 0.78877(4) 0.75355(3)
C1A C -0.4007(5) 0.7208(7) 0.4364(5)
H1A H -0.3653 0.7856 0.4585
C2A C -0.4881(7) 0.7104(9) 0.3863(6)
H2A H -0.5106 0.7687 0.3755
C3A C -0.5413(6) 0.6188(8) 0.3526(5)
H3A H -0.5997 0.6133 0.3183
C4A C -0.5087(5) 0.5315(7) 0.3691(5)
C5A C -0.5611(6) 0.4305(8) 0.3390(5)
H4A H -0.6215 0.4209 0.3063
C6A C -0.5247(6) 0.3494(7) 0.3568(5)
H5A H -0.5601 0.2846 0.3360
C7A C -0.4330(6) 0.3611(6) 0.4069(5)
C8A C -0.3913(6) 0.2797(6) 0.4256(5)
H6A H -0.4239 0.2134 0.4054
C9A C -0.3016(7) 0.2965(6) 0.4743(5)
H7A H -0.2739 0.2422 0.4877
C10A C -0.2525(6) 0.3967(6) 0.5032(4)
H8A H -0.1912 0.4070 0.5348
C11A C -0.3786(5) 0.4592(5) 0.4395(4)
C12A C -0.4175(5) 0.5463(6) 0.4212(4)
N1A N -0.3660(4) 0.6405(5) 0.4540(4)
N2A N -0.2901(4) 0.4763(4) 0.4873(3)
O1A O -0.1588(4) 0.7470(5) 0.4419(4)
H40A H -0.2052 0.7840 0.4370
H41A H -0.1022 0.7212 0.4105
O4A O -0.2337(4) 0.8059(4) 0.6354(3)
H44A H -0.1649 0.8469 0.6407
C25A C 0.0042(6) 0.6984(6) 0.8599(5)
H17A H -0.0347 0.6359 0.8362
C26A C 0.0886(6) 0.7011(7) 0.9130(5)
H18A H 0.1062 0.6408 0.9227
C27A C 0.1443(6) 0.7916(7) 0.9501(5)
H19A H 0.2010 0.7933 0.9852
C28A C 0.1180(5) 0.8832(6) 0.9366(4)
C29A C 0.1721(5) 0.9810(6) 0.9723(5)
H20A H 0.2288 0.9872 1.0086
C30A C 0.1436(6) 1.0669(6) 0.9554(5)
H21A H 0.1808 1.1306 0.9795
C31A C 0.0566(5) 1.0584(5) 0.9003(4)
C32A C 0.0242(6) 1.1453(6) 0.8785(5)
H22A H 0.0606 1.2095 0.9000
C33A C -0.0577(7) 1.1334(6) 0.8276(6)
H23A H -0.0800 1.1902 0.8147
C34A C -0.1099(6) 1.0380(6) 0.7938(5)
H24A H -0.1675 1.0322 0.7585
C35A C 0.0009(5) 0.9629(5) 0.8620(4)
C36A C 0.0323(5) 0.8721(5) 0.8799(4)
N5A N -0.0820(4) 0.9526(4) 0.8092(3)
N6A N -0.0235(4) 0.7805(4) 0.8415(3)
Cd3A_2 Cd 0.83254(4) 0.78877(4) -0.24645(3)
O7A_2 O -0.0455(3) 0.4597(4) 0.6832(3)
Cd2A_2 Cd 1.01413(3) 0.57348(4) -0.38922(3)
O5_2 O -0.2570(5) 0.6905(6) 0.8182(4)
O6_2 O -0.3050(5) 0.8530(7) 0.8535(4)
C53 C 0.2272(5) 1.2764(6) 0.8038(5)
C54 C 0.1353(6) 1.3137(6) 0.7860(5)
H35 H 0.1121 1.2919 0.7291
C55 C 0.0771(6) 1.3811(6) 0.8484(5)
H36 H 0.0164 1.4043 0.8326
C56 C 0.1071(5) 1.4154(5) 0.9346(5)
C57 C 0.1997(6) 1.3777(6) 0.9542(5)
H37 H 0.2226 1.3991 1.0113
C58 C 0.2571(6) 1.3101(6) 0.8912(6)
H38 H 0.3174 1.2859 0.9066
C59 C 0.0466(5) 1.4832(5) 1.0028(5)
H39 H 0.0768 1.5064 1.0578
C60 C 0.2888(6) 1.2000(6) 0.7347(6)
O9 O 0.3643(5) 1.1617(5) 0.7578(4)
O10 O 0.2585(5) 1.1745(5) 0.6591(4)
C59A C -0.0466(5) 1.5168(5) 0.9972(5)
C56A C -0.1071(5) 1.5846(5) 1.0654(5)
C55A C -0.0771(6) 1.6189(6) 1.1516(5)
C54A C -0.1353(6) 1.6863(6) 1.2140(5)
C53A C -0.2272(5) 1.7236(6) 1.1962(5)
C58A C -0.2571(6) 1.6899(6) 1.1088(6)
C57A C -0.1997(6) 1.6223(6) 1.0458(5)
H37A H -0.2226 1.6009 0.9887
H38A H -0.3174 1.7141 1.0934
C60A C -0.2888(6) 1.8000(6) 1.2653(6)
O9A O -0.3643(5) 1.8383(5) 1.2422(4)
O10A O -0.2585(5) 1.8255(5) 1.3409(4)
H35A H -0.1121 1.7081 1.2709
H36A H -0.0164 1.5957 1.1674
H39A H -0.0768 1.4936 0.9422
O11 O 0.1737(9) 0.0326(6) 0.4284(6)
O12 O 0.4799(7) 1.0165(7) 0.6441(6)
H45 H 0.4434 1.0511 0.6703
O13 O 0.6096(7) 0.9290(7) 0.7217(7)
O14 O 0.3279(16) 0.9816(10) 0.5031(10)
O15 O 0.0119(15) -0.0806(12) 0.4474(11)
loop_
_geom_bond_atom_site_label_1
_geom_bond_atom_site_label_2
_geom_bond_site_symmetry_1
_geom_bond_site_symmetry_2
Cd1 N1 1_555 1_555
Cd2 N3 1_555 1_555
Cd3 N5 1_555 1_555
C1 H1 1_555 1_555
C2 C1 1_555 1_555
H2 C2 1_555 1_555
C3 C2 1_555 1_555
H3 C3 1_555 1_555
C4 C3 1_555 1_555
C5 C4 1_555 1_555
H4 C5 1_555 1_555
C6 C5 1_555 1_555
H5 C6 1_555 1_555
C7 C6 1_555 1_555
C8 C7 1_555 1_555
H6 C8 1_555 1_555
C9 C8 1_555 1_555
H7 C9 1_555 1_555
C10 C9 1_555 1_555
H8 C10 1_555 1_555
C11 C7 1_555 1_555
C12 C4 1_555 1_555
C13 H9 1_555 1_555
C14 C13 1_555 1_555
H10 C14 1_555 1_555
C15 C14 1_555 1_555
H11 C15 1_555 1_555
C16 C15 1_555 1_555
C17 C16 1_555 1_555
H12 C17 1_555 1_555
C18 C17 1_555 1_555
H13 C18 1_555 1_555
C19 C18 1_555 1_555
C20 C19 1_555 1_555
H14 C20 1_555 1_555
C21 C20 1_555 1_555
H15 C21 1_555 1_555
C22 C21 1_555 1_555
H16 C22 1_555 1_555
C23 C19 1_555 1_555
C24 C16 1_555 1_555
C25 H17 1_555 1_555
C26 C25 1_555 1_555
H18 C26 1_555 1_555
C27 C26 1_555 1_555
H19 C27 1_555 1_555
C28 C27 1_555 1_555
C29 C28 1_555 1_555
H20 C29 1_555 1_555
C30 C29 1_555 1_555
H21 C30 1_555 1_555
C31 C30 1_555 1_555
C32 C31 1_555 1_555
H22 C32 1_555 1_555
C33 C32 1_555 1_555
H23 C33 1_555 1_555
C34 C33 1_555 1_555
H24 C34 1_555 1_555
C35 C31 1_555 1_555
C36 C28 1_555 1_555
C37 C38 1_555 1_555
C38 H25 1_555 1_555
C39 C38 1_555 1_555
H26 C39 1_555 1_555
C40 C39 1_555 1_555
C41 C40 1_555 1_555
H27 C41 1_555 1_555
C42 C37 1_555 1_555
H28 C42 1_555 1_555
C43 C40 1_555 1_555
H29 C43 1_555 1_555
C44 C43 1_555 1_555
H30 C44 1_555 1_555
C45 C44 1_555 1_555
C46 C45 1_555 1_555
H31 C46 1_555 1_555
C47 C46 1_555 1_555
H32 C47 1_555 1_555
C48 C47 1_555 1_555
C49 C48 1_555 1_555
H33 C49 1_555 1_555
C50 C45 1_555 1_555
H34 C50 1_555 1_555
C51 C37 1_555 1_555
C52 C48 1_555 1_555
C53 C54 1_555 1_555
C54 H35 1_555 1_555
C55 C54 1_555 1_555
H36 C55 1_555 1_555
C56 C55 1_555 1_555
C57 C56 1_555 1_555
H37 C57 1_555 1_555
C58 C53 1_555 1_555
H38 C58 1_555 1_555
C59 C56 1_555 1_555
H39 C59 1_555 1_555
C60 C53 1_555 1_555
N1 C1 1_555 1_555
N2 Cd1 1_555 1_555
N3 C22 1_555 1_555
N4 Cd2 1_555 1_555
N5 C34 1_555 1_555
N6 Cd3 1_555 1_555
O1 Cd1 1_555 1_555
H40 O1 1_555 1_555
H41 O1 1_555 1_555
O2 Cd1 1_555 1_555
H42 O2 1_555 1_555
O3 Cd1 1_555 1_555
H43 O3 1_555 1_555
O4 Cd1 1_555 1_555
H44 O4 1_555 1_555
O5 C51 1_555 1_555
O6 C51 1_555 1_555
O7 Cd2 1_555 1_555
O8 C52 1_555 1_555
O9 C60 1_555 1_555
O10 C60 1_555 1_555
O12 H45 1_555 1_555
C59A C59 1_555 1_555
C56A C59A 1_555 1_555
C55A C56A 1_555 1_555
C54A C55A 1_555 1_555
C53A C54A 1_555 1_555
C58A C53A 1_555 1_555
C57A C56A 1_555 1_555
H37A C57A 1_555 1_555
H38A C58A 1_555 1_555
C60A C53A 1_555 1_555
O9A C60A 1_555 1_555
O10A C60A 1_555 1_555
H35A C54A 1_555 1_555
H36A C55A 1_555 1_555
H39A C59A 1_555 1_555
Cd2A O2 1_555 1_555
O2A Cd2 1_555 1_555
H42A O2A 1_555 1_555
C37A C38A 1_555 1_555
C38A H25A 1_555 1_555
C39A C38A 1_555 1_555
H26A C39A 1_555 1_555
C40A C39A 1_555 1_555
C41A C40A 1_555 1_555
H27A C41A 1_555 1_555
C42A C37A 1_555 1_555
H28A C42A 1_555 1_555
C43A C40A 1_555 1_555
H29A C43A 1_555 1_555
C44A C43A 1_555 1_555
H30A C44A 1_555 1_555
C45A C44A 1_555 1_555
C46A C45A 1_555 1_555
H31A C46A 1_555 1_555
C47A C46A 1_555 1_555
H32A C47A 1_555 1_555
C48A C47A 1_555 1_555
C49A C48A 1_555 1_555
H33A C49A 1_555 1_555
C50A C45A 1_555 1_555
H34A C50A 1_555 1_555
C51A C37A 1_555 1_555
C52A C48A 1_555 1_555
O5A Cd3 1_555 1_555
O6A Cd3 1_555 1_555
O7A C52A 1_555 1_555
O8A C52A 1_555 1_555
C13A H9A 1_555 1_555
C14A C13A 1_555 1_555
H10A C14A 1_555 1_555
C15A C14A 1_555 1_555
H11A C15A 1_555 1_555
C16A C15A 1_555 1_555
C17A C16A 1_555 1_555
H12A C17A 1_555 1_555
C18A C17A 1_555 1_555
H13A C18A 1_555 1_555
C19A C18A 1_555 1_555
C20A C19A 1_555 1_555
H14A C20A 1_555 1_555
C21A C20A 1_555 1_555
H15A C21A 1_555 1_555
C22A C21A 1_555 1_555
H16A C22A 1_555 1_555
C23A C19A 1_555 1_555
C24A C16A 1_555 1_555
N3A Cd2A 1_555 1_555
N4A Cd2A 1_555 1_555
O3A Cd2A 1_555 1_555
H43A O3A 1_555 1_555
Cd1A O2A 1_555 1_555
Cd3A O3A 1_555 1_555
C1A H1A 1_555 1_555
C2A C1A 1_555 1_555
H2A C2A 1_555 1_555
C3A C2A 1_555 1_555
H3A C3A 1_555 1_555
C4A C3A 1_555 1_555
C5A C4A 1_555 1_555
H4A C5A 1_555 1_555
C6A C5A 1_555 1_555
H5A C6A 1_555 1_555
C7A C6A 1_555 1_555
C8A C7A 1_555 1_555
H6A C8A 1_555 1_555
C9A C8A 1_555 1_555
H7A C9A 1_555 1_555
C10A C9A 1_555 1_555
H8A C10A 1_555 1_555
C11A C7A 1_555 1_555
C12A C4A 1_555 1_555
N1A Cd1A 1_555 1_555
N2A Cd1A 1_555 1_555
O1A Cd1A 1_555 1_555
H40A O1A 1_555 1_555
H41A O1A 1_555 1_555
O4A Cd1A 1_555 1_555
H44A O4A 1_555 1_555
C25A H17A 1_555 1_555
C26A C25A 1_555 1_555
H18A C26A 1_555 1_555
C27A C26A 1_555 1_555
H19A C27A 1_555 1_555
C28A C27A 1_555 1_555
C29A C28A 1_555 1_555
H20A C29A 1_555 1_555
C30A C29A 1_555 1_555
H21A C30A 1_555 1_555
C31A C30A 1_555 1_555
C32A C31A 1_555 1_555
H22A C32A 1_555 1_555
C33A C32A 1_555 1_555
H23A C33A 1_555 1_555
C34A C33A 1_555 1_555
H24A C34A 1_555 1_555
C35A C31A 1_555 1_555
C36A C28A 1_555 1_555
N5A Cd3A 1_555 1_555
N6A Cd3A 1_555 1_555
Cd3A_2 O5 1_555 1_555
O7A_2 Cd2A 1_555 1_555
Cd2A_2 O7A 1_555 1_555
O5_2 Cd3A 1_555 1_555
O6_2 Cd3A 1_555 1_555
Cd2 O2 1_555 1_555
Cd2 O3 1_555 1_555
Cd3 O3 1_555 1_555
Cd3 O4 1_555 1_555
C10 N2 1_555 1_555
C11 N2 1_555 1_555
C11 C12 1_555 1_555
C12 N1 1_555 1_555
C13 N4 1_555 1_555
C23 N3 1_555 1_555
C23 C24 1_555 1_555
C24 N4 1_555 1_555
C25 N6 1_555 1_555
C35 N5 1_555 1_555
C35 C36 1_555 1_555
C36 N6 1_555 1_555
C41 C42 1_555 1_555
C49 C50 1_555 1_555
C52 O7 1_555 1_555
C57 C58 1_555 1_555
O6 Cd3A_2 1_555 1_555
C58A C57A 1_555 1_555
Cd2A O2A 1_555 1_555
C41A C42A 1_555 1_555
C49A C50A 1_555 1_555
C51A O5A 1_555 1_555
C51A O6A 1_555 1_555
C13A N4A 1_555 1_555
C22A N3A 1_555 1_555
C23A N3A 1_555 1_555
C23A C24A 1_555 1_555
C24A N4A 1_555 1_555
O3A Cd1A 1_555 1_555
Cd3A O4A 1_555 1_555
C1A N1A 1_555 1_555
C10A N2A 1_555 1_555
C11A N2A 1_555 1_555
C11A C12A 1_555 1_555
C12A N1A 1_555 1_555
C25A N6A 1_555 1_555
C34A N5A 1_555 1_555
C35A N5A 1_555 1_555
C35A C36A 1_555 1_555
C36A N6A 1_555 1_555

#END
