
#######################################################################
#
#                 Cambridge Crystallographic Data Centre
#                                CCDC 
#
#######################################################################
#
# If this CIF has been generated from an entry in the Cambridge 
# Structural Database, then it will include bibliographic, chemical, 
# crystal, experimental, refinement or atomic coordinate data resulting 
# from the CCDC's data processing and validation procedures.
#
#######################################################################

data_WAFPUP
_symmetry_cell_setting           orthorhombic
_symmetry_space_group_name_H-M   'P b n m'
_symmetry_Int_Tables_number      62
_space_group_name_Hall           '-P 2c 2ab'
loop_
_symmetry_equiv_pos_site_id
_symmetry_equiv_pos_as_xyz
1 x,y,z
2 x,y,1/2-z
3 1/2-x,1/2+y,z
4 1/2+x,1/2-y,1/2+z
5 -x,-y,-z
6 -x,-y,1/2+z
7 1/2+x,1/2-y,-z
8 1/2-x,1/2+y,1/2-z
_cell_length_a                   6.6061(17)
_cell_length_b                   11.5023(18)
_cell_length_c                   11.680(2)
_cell_angle_alpha                90
_cell_angle_beta                 90
_cell_angle_gamma                90
_cell_volume                     887.509
loop_
_atom_site_label
_atom_site_type_symbol
_atom_site_fract_x
_atom_site_fract_y
_atom_site_fract_z
Cl1 Cl 0.20385(17) 0.21597(10) 0.40811(9)
Zn1 Zn 0.01880(9) 0.22755(6) 0.2500
N1 N -0.1614(7) 0.0787(4) 0.2500
N2 N -0.3583(7) -0.1172(4) 0.2500
C1 C -0.2917(8) 0.0672(4) 0.3526(4)
H1 H -0.2082 0.0711 0.4208
H2 H -0.3864 0.1316 0.3549
C2 C -0.4080(7) -0.0461(3) 0.3524(3)
H3 H -0.5521 -0.0298 0.3532
H4 H -0.3755 -0.0897 0.4210
C3 C -0.1362(9) -0.1357(5) 0.2500
H5 H -0.0984 -0.1803 0.3172
H6 H -0.0984 -0.1803 0.1828
C4 C -0.0221(10) -0.0210(5) 0.2500
H7 H 0.0639 -0.0171 0.1828
H8 H 0.0639 -0.0171 0.3172
C2A C -0.4080(7) -0.0461(3) 0.1476(3)
C1A C -0.2917(8) 0.0672(4) 0.1474(4)
H1A H -0.2082 0.0711 0.0792
H2A H -0.3864 0.1316 0.1451
H3A H -0.5521 -0.0298 0.1468
H4A H -0.3755 -0.0897 0.0790
Cl1A Cl 0.20385(17) 0.21597(10) 0.09189(9)
N2B N -0.1417(7) 0.3828(4) 0.2500
Zn1B Zn -0.51880(9) -0.27245(6) 0.2500
loop_
_geom_bond_atom_site_label_1
_geom_bond_atom_site_label_2
_geom_bond_site_symmetry_1
_geom_bond_site_symmetry_2
Cl1 Zn1 1_555 1_555
Zn1 N1 1_555 1_555
N1 C1 1_555 1_555
N2 C2 1_555 1_555
C1 H1 1_555 1_555
H2 C1 1_555 1_555
C2 C1 1_555 1_555
H3 C2 1_555 1_555
H4 C2 1_555 1_555
C3 N2 1_555 1_555
H5 C3 1_555 1_555
H6 C3 1_555 1_555
C4 N1 1_555 1_555
H7 C4 1_555 1_555
H8 C4 1_555 1_555
C2A N2 1_555 1_555
C1A N1 1_555 1_555
H1A C1A 1_555 1_555
H2A C1A 1_555 1_555
H3A C2A 1_555 1_555
H4A C2A 1_555 1_555
Cl1A Zn1 1_555 1_555
N2B Zn1 1_555 1_555
Zn1B N2 1_555 1_555
C3 C4 1_555 1_555
C2A C1A 1_555 1_555

#END
