
#######################################################################
#
#                 Cambridge Crystallographic Data Centre
#                                CCDC 
#
#######################################################################
#
# If this CIF has been generated from an entry in the Cambridge 
# Structural Database, then it will include bibliographic, chemical, 
# crystal, experimental, refinement or atomic coordinate data resulting 
# from the CCDC's data processing and validation procedures.
#
#######################################################################

data_WAFQEA
_symmetry_cell_setting           monoclinic
_symmetry_space_group_name_H-M   'C 2/c'
_symmetry_Int_Tables_number      15
_space_group_name_Hall           '-C 2yn'
loop_
_symmetry_equiv_pos_site_id
_symmetry_equiv_pos_as_xyz
1 x,y,z
2 1/2+x,1/2+y,z
3 x,-y,1/2+z
4 1/2+x,1/2-y,1/2+z
5 -x,-y,-z
6 1/2-x,1/2-y,-z
7 -x,y,1/2-z
8 1/2-x,1/2+y,1/2-z
_cell_length_a                   12.7026(19)
_cell_length_b                   6.8787(10)
_cell_length_c                   10.8189(16)
_cell_angle_alpha                90
_cell_angle_beta                 95.426(2)
_cell_angle_gamma                90
_cell_volume                     941.091
loop_
_atom_site_label
_atom_site_type_symbol
_atom_site_fract_x
_atom_site_fract_y
_atom_site_fract_z
Cu1 Cu 0.5000 0.26929(6) 0.2500
Ti1 Ti 0.2500 0.2500 0.0000
F1 F 0.39252(13) 0.2685(2) 0.06052(16)
F2 F 0.22181(16) 0.4703(3) 0.0883(2)
F3 F 0.22550(16) 0.0980(3) 0.13559(19)
O1 O 0.62101(16) 0.2749(3) 0.1523(2)
N1 N 0.5000 -0.0288(5) 0.2500
N2 N 0.5000 -0.4333(5) 0.2500
C1 C 0.4609(2) -0.3317(4) 0.1506(2)
H1 H 0.4326 -0.3993 0.0783
C2 C 0.4607(2) -0.1301(4) 0.1504(2)
H2 H 0.4321 -0.0626 0.0783
H3 H 0.6602 0.1821 0.1433
H4 H 0.6611 0.3693 0.1587
C1F C 0.5391(2) -0.3317(4) 0.3494(2)
H1F H 0.5674 -0.3993 0.4217
C2F C 0.5393(2) -0.1301(4) 0.3496(2)
H2F H 0.5679 -0.0626 0.4217
F1F F 0.60748(13) 0.2685(2) 0.43948(16)
O1F O 0.37899(16) 0.2749(3) 0.3477(2)
H3F H 0.3398 0.1821 0.3567
H4F H 0.3389 0.3693 0.3413
F2E F 0.27819(16) 0.0297(3) -0.0883(2)
F3E F 0.27450(16) 0.4020(3) -0.13559(19)
N2_2 N 0.5000 0.5667(5) 0.2500
F1E F 0.10748(13) 0.2315(2) -0.06052(16)
Cu1_2 Cu 0.5000 -0.73071(6) 0.2500
Cu1C Cu 0.0000 0.23071(6) -0.2500
loop_
_geom_bond_atom_site_label_1
_geom_bond_atom_site_label_2
_geom_bond_site_symmetry_1
_geom_bond_site_symmetry_2
Cu1 F1 1_555 1_555
Ti1 F1 1_555 1_555
F2 Ti1 1_555 1_555
F3 Ti1 1_555 1_555
O1 Cu1 1_555 1_555
N1 Cu1 1_555 1_555
N2 C1 1_555 1_555
C1 H1 1_555 1_555
C2 N1 1_555 1_555
H2 C2 1_555 1_555
H3 O1 1_555 1_555
H4 O1 1_555 1_555
C1F N2 1_555 1_555
H1F C1F 1_555 1_555
C2F N1 1_555 1_555
H2F C2F 1_555 1_555
F1F Cu1 1_555 1_555
O1F Cu1 1_555 1_555
H3F O1F 1_555 1_555
H4F O1F 1_555 1_555
F2E Ti1 1_555 1_555
F3E Ti1 1_555 1_555
N2_2 Cu1 1_555 1_555
F1E Ti1 1_555 1_555
Cu1_2 N2 1_555 1_555
Cu1C F1E 1_555 1_555
C1 C2 1_555 1_555
C1F C2F 1_555 1_555

#END
