
#######################################################################
#
#                 Cambridge Crystallographic Data Centre
#                                CCDC 
#
#######################################################################
#
# If this CIF has been generated from an entry in the Cambridge 
# Structural Database, then it will include bibliographic, chemical, 
# crystal, experimental, refinement or atomic coordinate data resulting 
# from the CCDC's data processing and validation procedures.
#
#######################################################################

data_WAFQAW
_symmetry_cell_setting           monoclinic
_symmetry_space_group_name_H-M   'P 21/c'
_symmetry_Int_Tables_number      14
_space_group_name_Hall           '-P 2ybc'
loop_
_symmetry_equiv_pos_site_id
_symmetry_equiv_pos_as_xyz
1 x,y,z
2 x,1/2-y,1/2+z
3 -x,-y,-z
4 -x,1/2+y,1/2-z
_cell_length_a                   10.561(2)
_cell_length_b                   12.782(3)
_cell_length_c                   16.147(3)
_cell_angle_alpha                90
_cell_angle_beta                 101.72(3)
_cell_angle_gamma                90
_cell_volume                     2134.25
loop_
_atom_site_label
_atom_site_type_symbol
_atom_site_fract_x
_atom_site_fract_y
_atom_site_fract_z
Ag1 Ag 0.15602(3) 0.09413(2) 0.23671(2)
C1 C 0.4376(5) 0.1998(4) 0.2886(3)
H1 H 0.4004 0.2442 0.3261
H2 H 0.4174 0.2301 0.2324
C2 C 0.5834(5) 0.1948(4) 0.3190(3)
H3 H 0.6252 0.2174 0.2738
H4 H 0.6091 0.2423 0.3663
C3 C 0.4480(5) 0.0265(5) 0.2356(3)
H5 H 0.4363 0.0548 0.1788
H6 H 0.4104 -0.0430 0.2317
C4 C 0.5910(5) 0.0191(6) 0.2735(3)
H7 H 0.6125 -0.0522 0.2916
H8 H 0.6402 0.0370 0.2309
C5 C 0.4089(5) 0.0539(5) 0.3737(3)
H9 H 0.3764 -0.0169 0.3748
H10 H 0.3653 0.0971 0.4086
C6 C 0.5533(5) 0.0549(5) 0.4095(3)
H11 H 0.5717 0.1019 0.4576
H12 H 0.5813 -0.0147 0.4290
C7 C -0.0779(5) 0.2409(4) 0.2574(4)
H13 H -0.0815 0.1992 0.3070
H14 H -0.1245 0.2038 0.2082
C8 C -0.1424(5) 0.3461(4) 0.2642(3)
H15 H -0.2188 0.3519 0.2195
H16 H -0.1696 0.3502 0.3180
C9 C 0.1227(5) 0.3154(4) 0.3243(3)
H17 H 0.2125 0.3264 0.3213
H18 H 0.1207 0.2761 0.3754
C10 C 0.0576(6) 0.4207(4) 0.3288(3)
H19 H 0.0283 0.4260 0.3818
H20 H 0.1196 0.4763 0.3272
C11 C 0.0579(6) 0.3186(4) 0.1743(3)
H21 H 0.0139 0.2808 0.1246
H22 H 0.1463 0.3308 0.1684
C12 C -0.0081(7) 0.4217(4) 0.1791(3)
H23 H 0.0518 0.4779 0.1745
H24 H -0.0809 0.4276 0.1318
N1 N 0.3806(3) 0.0933(3) 0.28665(19)
N2 N 0.6260(4) 0.0891(3) 0.3451(2)
N3 N 0.0585(3) 0.2543(2) 0.25014(18)
N4 N -0.0537(3) 0.4332(3) 0.25752(18)
O3 O 0.1235(4) 0.0949(3) 0.07085(19)
H28 H 0.1266(4) 0.026(4) 0.0574(7)
H29 H 0.050(4) 0.1104(8) 0.0496(11)
N4C N 0.0537(3) -0.0668(3) 0.24248(18)
Ag1C Ag -0.15602(3) 0.59413(2) 0.26329(2)
C13 C 0.3465(6) 0.5631(5) 0.4856(4)
H25 H 0.3265 0.4954 0.5054
H26 H 0.4219 0.5905 0.5227
H27 H 0.3627 0.5569 0.4295
C14 C 0.2343(4) 0.6357(4) 0.4847(2)
O1 O 0.2432(3) 0.7280(3) 0.4613(2)
O2 O 0.1372(4) 0.5999(3) 0.5085(2)
O4 O -0.1337(4) 0.5941(3) 0.0196(2)
H30 H -0.1387(4) 0.541(3) 0.0013(10)
H31 H -0.071(4) 0.5922(4) 0.0331(8)
O5 O 0.1357(3) 0.8826(3) 0.5433(2)
H32 H 0.1581(13) 0.826(3) 0.5199(13)
H33 H 0.186(3) 0.8946(7) 0.581(2)
O6 O 0.4395(5) 0.7879(4) 0.3803(2)
H34 H 0.501(4) 0.7739(10) 0.4096(19)
H35 H 0.386(3) 0.7627(17) 0.3966(11)
O7 O 0.3040(5) 0.2445(4) 0.0377(3)
H36 H 0.259(4) 0.210(3) 0.0546(14)
H37 H 0.276(2) 0.284(3) 0.0236(11)
loop_
_geom_bond_atom_site_label_1
_geom_bond_atom_site_label_2
_geom_bond_site_symmetry_1
_geom_bond_site_symmetry_2
Ag1 N1 1_555 1_555
C1 H1 1_555 1_555
H2 C1 1_555 1_555
C2 C1 1_555 1_555
H3 C2 1_555 1_555
H4 C2 1_555 1_555
C3 H5 1_555 1_555
H6 C3 1_555 1_555
C4 C3 1_555 1_555
H7 C4 1_555 1_555
H8 C4 1_555 1_555
C5 H9 1_555 1_555
H10 C5 1_555 1_555
C6 C5 1_555 1_555
H11 C6 1_555 1_555
H12 C6 1_555 1_555
C7 H13 1_555 1_555
H14 C7 1_555 1_555
C8 C7 1_555 1_555
H15 C8 1_555 1_555
H16 C8 1_555 1_555
C9 H17 1_555 1_555
H18 C9 1_555 1_555
C10 C9 1_555 1_555
H19 C10 1_555 1_555
H20 C10 1_555 1_555
C11 H21 1_555 1_555
H22 C11 1_555 1_555
C12 C11 1_555 1_555
H23 C12 1_555 1_555
H24 C12 1_555 1_555
C13 H25 1_555 1_555
H26 C13 1_555 1_555
H27 C13 1_555 1_555
C14 C13 1_555 1_555
N1 C1 1_555 1_555
N2 C2 1_555 1_555
N3 Ag1 1_555 1_555
N4 C8 1_555 1_555
O1 C14 1_555 1_555
O2 C14 1_555 1_555
O3 Ag1 1_555 1_555
H28 O3 1_555 1_555
H29 O3 1_555 1_555
O4 H30 1_555 1_555
H31 O4 1_555 1_555
O5 H32 1_555 1_555
H33 O5 1_555 1_555
O6 H34 1_555 1_555
H35 O6 1_555 1_555
O7 H36 1_555 1_555
H37 O7 1_555 1_555
N4C Ag1 1_555 1_555
Ag1C N4 1_555 1_555
C3 N1 1_555 1_555
C4 N2 1_555 1_555
C5 N1 1_555 1_555
C6 N2 1_555 1_555
C7 N3 1_555 1_555
C9 N3 1_555 1_555
C10 N4 1_555 1_555
C11 N3 1_555 1_555
C12 N4 1_555 1_555

#END
