
#######################################################################
#
#                 Cambridge Crystallographic Data Centre
#                                CCDC 
#
#######################################################################
#
# If this CIF has been generated from an entry in the Cambridge 
# Structural Database, then it will include bibliographic, chemical, 
# crystal, experimental, refinement or atomic coordinate data resulting 
# from the CCDC's data processing and validation procedures.
#
#######################################################################

data_WAFSOM
_symmetry_cell_setting           monoclinic
_symmetry_space_group_name_H-M   'C 2/m'
_symmetry_Int_Tables_number      12
_space_group_name_Hall           '-C 2y'
loop_
_symmetry_equiv_pos_site_id
_symmetry_equiv_pos_as_xyz
1 x,y,z
2 1/2+x,1/2+y,z
3 x,-y,z
4 1/2+x,1/2-y,z
5 -x,-y,-z
6 1/2-x,1/2-y,-z
7 -x,y,-z
8 1/2-x,1/2+y,-z
_cell_length_a                   17.329(4)
_cell_length_b                   7.318(3)
_cell_length_c                   6.679(2)
_cell_angle_alpha                90
_cell_angle_beta                 109.10(2)
_cell_angle_gamma                90
_cell_volume                     800.361
loop_
_atom_site_label
_atom_site_type_symbol
_atom_site_fract_x
_atom_site_fract_y
_atom_site_fract_z
Co1 Co 0.0000 0.0000 0.0000
O1 O 0.12554(13) 0.0000 0.1488(3)
N1 N 0.17130(14) 0.0000 0.3502(3)
C1 C 0.13952(17) 0.0000 0.5094(4)
H1 H 0.0832 0.0000 0.4790
C2 C 0.19005(19) 0.0000 0.7160(4)
H2 H 0.1680 0.0000 0.8257
C3 C 0.2733(2) 0.0000 0.7607(5)
H3 H 0.3083 0.0000 0.9001
C4 C 0.3039(2) 0.0000 0.5938(6)
H4 H 0.3601 0.0000 0.6208
C5 C 0.25244(19) 0.0000 0.3905(5)
H5 H 0.2735 0.0000 0.2790
N2 N 0.02056(12) 0.2062(2) -0.2000(3)
N3 N 0.07441(15) 0.5000 -0.2719(4)
C6 C 0.04343(11) 0.3472(2) -0.2313(2)
C6B C 0.04343(11) 0.6528(2) -0.2313(2)
N2B N 0.02056(12) 0.7938(2) -0.2000(3)
O1D O -0.12554(13) 0.0000 -0.1488(3)
N1D N -0.17130(14) 0.0000 -0.3502(3)
C1D C -0.13952(17) 0.0000 -0.5094(4)
H1D H -0.0832 0.0000 -0.4790
C2D C -0.19005(19) 0.0000 -0.7160(4)
H2D H -0.1680 0.0000 -0.8257
C3D C -0.2733(2) 0.0000 -0.7607(5)
H3D H -0.3083 0.0000 -0.9001
C4D C -0.3039(2) 0.0000 -0.5938(6)
H4D H -0.3601 0.0000 -0.6208
C5D C -0.25244(19) 0.0000 -0.3905(5)
H5D H -0.2735 0.0000 -0.2790
N2B_2 N 0.02056(12) -0.2062(2) -0.2000(3)
N3B N 0.07441(15) -0.5000 -0.2719(4)
C6B_2 C 0.04343(11) -0.3472(2) -0.2313(2)
C6_2 C 0.04343(11) -0.6528(2) -0.2313(2)
N2_2 N 0.02056(12) -0.7938(2) -0.2000(3)
N2D N -0.02056(12) -0.2062(2) 0.2000(3)
N2F N -0.02056(12) 0.2062(2) 0.2000(3)
Co1_2 Co 0.0000 1.0000 0.0000
Co1_3 Co 0.0000 -1.0000 0.0000
loop_
_geom_bond_atom_site_label_1
_geom_bond_atom_site_label_2
_geom_bond_site_symmetry_1
_geom_bond_site_symmetry_2
Co1 O1 1_555 1_555
O1 N1 1_555 1_555
N1 C1 1_555 1_555
C1 H1 1_555 1_555
C2 C1 1_555 1_555
H2 C2 1_555 1_555
C3 C2 1_555 1_555
H3 C3 1_555 1_555
C4 C3 1_555 1_555
H4 C4 1_555 1_555
C5 N1 1_555 1_555
H5 C5 1_555 1_555
N2 Co1 1_555 1_555
N3 C6 1_555 1_555
C6 N2 1_555 1_555
C6B N3 1_555 1_555
N2B C6B 1_555 1_555
O1D Co1 1_555 1_555
N1D O1D 1_555 1_555
C1D N1D 1_555 1_555
H1D C1D 1_555 1_555
C2D C1D 1_555 1_555
H2D C2D 1_555 1_555
C3D C2D 1_555 1_555
H3D C3D 1_555 1_555
C4D C3D 1_555 1_555
H4D C4D 1_555 1_555
C5D N1D 1_555 1_555
H5D C5D 1_555 1_555
N2B_2 Co1 1_555 1_555
N3B C6B_2 1_555 1_555
C6B_2 N2B_2 1_555 1_555
C6_2 N3B 1_555 1_555
N2_2 C6_2 1_555 1_555
N2D Co1 1_555 1_555
N2F Co1 1_555 1_555
Co1_2 N2B 1_555 1_555
Co1_3 N2_2 1_555 1_555
C4 C5 1_555 1_555
C4D C5D 1_555 1_555

#END
