
#######################################################################
#
#                 Cambridge Crystallographic Data Centre
#                                CCDC 
#
#######################################################################
#
# If this CIF has been generated from an entry in the Cambridge 
# Structural Database, then it will include bibliographic, chemical, 
# crystal, experimental, refinement or atomic coordinate data resulting 
# from the CCDC's data processing and validation procedures.
#
#######################################################################

data_WAGCUE
_symmetry_cell_setting           monoclinic
_symmetry_space_group_name_H-M   'C 2/m'
_symmetry_Int_Tables_number      12
_space_group_name_Hall           '-C 2y'
loop_
_symmetry_equiv_pos_site_id
_symmetry_equiv_pos_as_xyz
1 x,y,z
2 -x,y,-z
3 1/2+x,1/2+y,z
4 1/2-x,1/2+y,-z
5 -x,-y,-z
6 x,-y,z
7 1/2-x,1/2-y,-z
8 1/2+x,1/2-y,z
_cell_length_a                   21.550(2)
_cell_length_b                   23.951(2)
_cell_length_c                   10.3896(9)
_cell_angle_alpha                90
_cell_angle_beta                 99.490(2)
_cell_angle_gamma                90
_cell_volume                     5289.14
loop_
_atom_site_label
_atom_site_type_symbol
_atom_site_fract_x
_atom_site_fract_y
_atom_site_fract_z
Cs1 Cs 0.13760(5) 0.0000 -0.71401(11)
Cs2 Cs 0.13621(6) 0.0000 -0.21041(11)
Cs3 Cs 0.0000 0.29419(5) -0.5000
Cs4 Cs 0.5000 -0.07312(16) 0.0000
Cs5 Cs 0.01461(19) 0.5000 -0.4230(4)
O20 O 0.0906(13) 0.0000 -0.468(3)
O21 O 0.0170(7) 0.4178(10) -0.3612(18)
O22 O 0.0334(13) 0.3747(12) -0.759(3)
U1 U 0.34097(3) 0.0000 -0.28120(5)
U2 U 0.490110(18) -0.366460(15) -0.29270(4)
U3 U 0.32705(3) 0.0000 0.12873(5)
P1 P 0.39821(13) -0.37161(11) -0.0294(2)
P2 P 0.36517(13) -0.35073(11) -0.5717(3)
P3 P 0.32693(13) -0.08540(11) -0.5722(2)
P4 P 0.30673(13) -0.11729(11) -0.0903(3)
F1 F 0.5000 -0.3331(3) -0.5000
F2 F 0.2945(4) 0.0000 -0.0938(7)
O1 O 0.4185(3) -0.3902(3) -0.1559(6)
O2 O 0.4230(5) 0.0000 -0.2159(10)
O3 O 0.4089(4) 0.0000 0.1156(9)
O4 O 0.2467(5) 0.0000 0.1434(9)
O5 O 0.3906(3) -0.3701(3) -0.4353(6)
O6 O 0.2977(3) -0.3778(3) -0.6117(6)
O7 O 0.4025(3) -0.3645(3) -0.6785(6)
O8 O 0.3497(3) -0.0611(3) -0.6892(6)
O9 O 0.3605(3) -0.0626(3) -0.4430(6)
O10 O 0.2537(3) -0.0767(3) -0.5876(6)
O11 O 0.3441(3) -0.0913(3) -0.1877(6)
O12 O 0.2363(3) -0.1167(3) -0.1450(7)
O13 O 0.3213(3) -0.0918(3) 0.0448(6)
O14 O 0.4956(3) -0.4386(3) -0.3273(6)
O15 O 0.2598(5) 0.0000 -0.3517(9)
O16 O 0.4489(3) -0.3773(3) 0.0888(6)
O17 O 0.3392(3) -0.4074(3) -0.0152(6)
O18 O 0.4825(3) -0.2939(3) -0.2599(6)
C1 C 0.3722(5) -0.3008(4) -0.0466(9)
C2 C 0.3117(5) -0.2871(4) -0.1149(10)
H1 H 0.2840 -0.3159 -0.1520
C3 C 0.4106(5) -0.2569(4) 0.0068(10)
H2 H 0.4513 -0.2650 0.0538
C4 C 0.3541(5) -0.2767(4) -0.5702(10)
C5 C 0.3441(5) -0.2478(4) -0.4563(10)
H3 H 0.3430 -0.2681 -0.3781
C6 C 0.3562(4) -0.2445(4) -0.6832(9)
H4 H 0.3637 -0.2627 -0.7604
C7 C 0.3378(5) -0.1601(4) -0.5710(9)
C8 C 0.3359(5) -0.1916(4) -0.4571(10)
H5 H 0.3287 -0.1732 -0.3798
C9 C 0.3478(5) -0.1880(4) -0.6848(10)
H6 H 0.3487 -0.1676 -0.7628
C10 C 0.3319(5) -0.1891(4) -0.0734(10)
C11 C 0.3910(5) -0.2017(5) -0.0071(10)
H7 H 0.4183 -0.1726 0.0292
C12 C 0.2931(5) -0.2326(5) -0.1273(10)
H8 H 0.2525 -0.2240 -0.1741
U2E U 0.490110(18) 0.366460(15) -0.29270(4)
U2A U 0.509890(18) -0.366460(15) -0.70730(4)
U2A_2 U 0.509890(18) -0.366460(15) 0.29270(4)
U2D U 0.509890(18) 0.366460(15) -0.70730(4)
U2D_2 U 0.509890(18) 0.366460(15) 0.29270(4)
U3_2 U 0.32705(3) 0.0000 -0.87127(5)
P1E P 0.39821(13) 0.37161(11) -0.0294(2)
P2E P 0.36517(13) 0.35073(11) -0.5717(3)
P3E P 0.32693(13) 0.08540(11) -0.5722(2)
P4E P 0.30673(13) 0.11729(11) -0.0903(3)
F1D F 0.5000 0.3331(3) -0.5000
O1E O 0.4185(3) 0.3902(3) -0.1559(6)
O5E O 0.3906(3) 0.3701(3) -0.4353(6)
O6E O 0.2977(3) 0.3778(3) -0.6117(6)
O7E O 0.4025(3) 0.3645(3) -0.6785(6)
O7A O 0.5975(3) -0.3645(3) -0.3215(6)
O7D O 0.5975(3) 0.3645(3) -0.3215(6)
O8E O 0.3497(3) 0.0611(3) -0.6892(6)
O8_2 O 0.3497(3) -0.0611(3) 0.3108(6)
O8E_2 O 0.3497(3) 0.0611(3) 0.3108(6)
O9E O 0.3605(3) 0.0626(3) -0.4430(6)
O10E O 0.2537(3) 0.0767(3) -0.5876(6)
O11E O 0.3441(3) 0.0913(3) -0.1877(6)
O12E O 0.2363(3) 0.1167(3) -0.1450(7)
O13E O 0.3213(3) 0.0918(3) 0.0448(6)
O14E O 0.4956(3) 0.4386(3) -0.3273(6)
O16E O 0.4489(3) 0.3773(3) 0.0888(6)
O16A O 0.5511(3) -0.3773(3) -0.0888(6)
O16D O 0.5511(3) 0.3773(3) -0.0888(6)
O17E O 0.3392(3) 0.4074(3) -0.0152(6)
O18E O 0.4825(3) 0.2939(3) -0.2599(6)
C1E C 0.3722(5) 0.3008(4) -0.0466(9)
C2E C 0.3117(5) 0.2871(4) -0.1149(10)
H1E H 0.2840 0.3159 -0.1520
C3E C 0.4106(5) 0.2569(4) 0.0068(10)
H2E H 0.4513 0.2650 0.0538
C4E C 0.3541(5) 0.2767(4) -0.5702(10)
C5E C 0.3441(5) 0.2478(4) -0.4563(10)
H3E H 0.3430 0.2681 -0.3781
C6E C 0.3562(4) 0.2445(4) -0.6832(9)
H4E H 0.3637 0.2627 -0.7604
C7E C 0.3378(5) 0.1601(4) -0.5710(9)
C8E C 0.3359(5) 0.1916(4) -0.4571(10)
H5E H 0.3287 0.1732 -0.3798
C9E C 0.3478(5) 0.1880(4) -0.6848(10)
H6E H 0.3487 0.1676 -0.7628
C10E C 0.3319(5) 0.1891(4) -0.0734(10)
C11E C 0.3910(5) 0.2017(5) -0.0071(10)
H7E H 0.4183 0.1726 0.0292
C12E C 0.2931(5) 0.2326(5) -0.1273(10)
H8E H 0.2525 0.2240 -0.1741
O19? O 0.0331(11) 0.0000 -1.002(2)
O23? O 0.0429(11) 0.3398(10) -0.749(2)
loop_
_geom_bond_atom_site_label_1
_geom_bond_atom_site_label_2
_geom_bond_site_symmetry_1
_geom_bond_site_symmetry_2
U1 F2 1_555 1_555
U2 F1 1_555 1_555
U3 F2 1_555 1_555
P1 O1 1_555 1_555
P2 O5 1_555 1_555
P3 O8 1_555 1_555
P4 O11 1_555 1_555
F1 U2A 1_555 1_555
O1 U2 1_555 1_555
O2 U1 1_555 1_555
O3 U3 1_555 1_555
O4 U3 1_555 1_555
O5 U2 1_555 1_555
O6 P2 1_555 1_555
O7 P2 1_555 1_555
O8 U3_2 1_555 1_555
O9 U1 1_555 1_555
O10 P3 1_555 1_555
O11 U1 1_555 1_555
O12 P4 1_555 1_555
O13 U3 1_555 1_555
O14 U2 1_555 1_555
O15 U1 1_555 1_555
O16 P1 1_555 1_555
O17 P1 1_555 1_555
O18 U2 1_555 1_555
C1 P1 1_555 1_555
C2 C1 1_555 1_555
H1 C2 1_555 1_555
C3 C1 1_555 1_555
H2 C3 1_555 1_555
C4 P2 1_555 1_555
C5 C4 1_555 1_555
H3 C5 1_555 1_555
C6 C4 1_555 1_555
H4 C6 1_555 1_555
C7 P3 1_555 1_555
C8 C5 1_555 1_555
H5 C8 1_555 1_555
C9 C6 1_555 1_555
H6 C9 1_555 1_555
C10 P4 1_555 1_555
C11 C3 1_555 1_555
H7 C11 1_555 1_555
C12 C2 1_555 1_555
H8 C12 1_555 1_555
U2E F1D 1_555 1_555
U2A O7 1_555 1_555
U2A_2 O16 1_555 1_555
U2D F1D 1_555 1_555
U2D_2 O16E 1_555 1_555
U3_2 O8E 1_555 1_555
P1E O1E 1_555 1_555
P2E O5E 1_555 1_555
P3E O8E 1_555 1_555
P4E O11E 1_555 1_555
O1E U2E 1_555 1_555
O5E U2E 1_555 1_555
O6E P2E 1_555 1_555
O7E U2D 1_555 1_555
O7A U2 1_555 1_555
O7D U2E 1_555 1_555
O8_2 U3 1_555 1_555
O8E_2 U3 1_555 1_555
O9E U1 1_555 1_555
O10E P3E 1_555 1_555
O11E U1 1_555 1_555
O12E P4E 1_555 1_555
O13E U3 1_555 1_555
O14E U2E 1_555 1_555
O16E P1E 1_555 1_555
O16A U2 1_555 1_555
O16D U2E 1_555 1_555
O17E P1E 1_555 1_555
O18E U2E 1_555 1_555
C1E P1E 1_555 1_555
C2E C1E 1_555 1_555
H1E C2E 1_555 1_555
C3E C1E 1_555 1_555
H2E C3E 1_555 1_555
C4E P2E 1_555 1_555
C5E C4E 1_555 1_555
H3E C5E 1_555 1_555
C6E C4E 1_555 1_555
H4E C6E 1_555 1_555
C7E P3E 1_555 1_555
C8E C5E 1_555 1_555
H5E C8E 1_555 1_555
C9E C6E 1_555 1_555
H6E C9E 1_555 1_555
C10E P4E 1_555 1_555
C11E C3E 1_555 1_555
H7E C11E 1_555 1_555
C12E C2E 1_555 1_555
H8E C12E 1_555 1_555
P3 O9 1_555 1_555
P4 O13 1_555 1_555
C7 C8 1_555 1_555
C7 C9 1_555 1_555
C10 C11 1_555 1_555
C10 C12 1_555 1_555
P2E O7E 1_555 1_555
P3E O9E 1_555 1_555
P4E O13E 1_555 1_555
C7E C8E 1_555 1_555
C7E C9E 1_555 1_555
C10E C11E 1_555 1_555
C10E C12E 1_555 1_555

#END
