
#######################################################################
#
#                 Cambridge Crystallographic Data Centre
#                                CCDC 
#
#######################################################################
#
# If this CIF has been generated from an entry in the Cambridge 
# Structural Database, then it will include bibliographic, chemical, 
# crystal, experimental, refinement or atomic coordinate data resulting 
# from the CCDC's data processing and validation procedures.
#
#######################################################################

data_WAGDEP
_symmetry_cell_setting           triclinic
_symmetry_space_group_name_H-M   'P -1'
_symmetry_Int_Tables_number      2
_space_group_name_Hall           '-P 1'
loop_
_symmetry_equiv_pos_site_id
_symmetry_equiv_pos_as_xyz
1 x,y,z
2 -x,-y,-z
_cell_length_a                   9.5417(3)
_cell_length_b                   9.9607(3)
_cell_length_c                   10.9998(3)
_cell_angle_alpha                87.85
_cell_angle_beta                 66.54
_cell_angle_gamma                87.98
_cell_volume                     958.115
loop_
_atom_site_label
_atom_site_type_symbol
_atom_site_fract_x
_atom_site_fract_y
_atom_site_fract_z
U1 U 0.694590(10) 0.556398(9) 0.524855(8)
O1 O 0.7109(2) 0.70750(19) 0.42840(18)
O2 O 0.6789(2) 0.40398(19) 0.61900(19)
P1 P 0.95393(7) 0.62245(7) 0.69374(6)
O3 O 0.8539(2) 0.64015(19) 0.61623(18)
O4 O 1.0817(2) 0.5180(2) 0.63728(18)
O5 O 1.0203(2) 0.76112(19) 0.70058(18)
C1 C 0.8444(3) 0.5684(3) 0.8619(2)
C2 C 0.7361(4) 0.4695(3) 0.8876(3)
H1 H 0.7098 0.4411 0.8180
C3 C 0.6661(4) 0.4116(3) 1.0134(3)
H2 H 0.5915 0.3450 1.0296
C4 C 0.7048(3) 0.4509(3) 1.1162(2)
C5 C 0.8076(3) 0.5545(3) 1.0928(3)
H3 H 0.8306 0.5858 1.1631
C6 C 0.8764(3) 0.6120(3) 0.9664(3)
H4 H 0.9466 0.6824 0.9512
P2 P 0.62909(7) 0.35509(7) 1.26960(6)
O6 O 0.4694(2) 0.31120(19) 1.28792(18)
O7 O 0.5961(2) 0.45059(19) 1.38668(18)
O8 O 0.7385(2) 0.24123(19) 1.26456(19)
U1A U 1.305410(10) 0.443602(9) 0.475145(8)
U1A_2 U 0.305410(10) 0.443602(9) 1.475145(8)
U1_2 U 0.694590(10) 0.556398(9) 1.524855(8)
O4A O 0.9183(2) 0.4820(2) 0.36272(18)
O6A O 0.5306(2) 0.68880(19) 0.71208(18)
O7_2 O 0.5961(2) 0.45059(19) 0.38668(18)
O7A O 0.4039(2) 0.54941(19) 0.61332(18)
N1 N 0.6734(3) 0.9128(2) 0.7339(2)
H5 H 0.6136 0.8438 0.7673
C7 C 0.7010(4) 0.9537(3) 0.6101(3)
H6 H 0.6561 0.9094 0.5601
C8 C 0.7963(4) 1.0621(3) 0.5543(3)
H7 H 0.8145 1.0936 0.4668
C9 C 0.8633(4) 1.1226(3) 0.6263(3)
H8 H 0.9304 1.1949 0.5878
C10 C 0.8337(3) 1.0786(3) 0.7573(3)
C11 C 0.8982(4) 1.1376(3) 0.8393(4)
H9 H 0.9686 1.2082 0.8039
C12 C 0.8612(4) 1.0949(3) 0.9654(4)
H10 H 0.9064 1.1356 1.0173
C13 C 0.7541(3) 0.9885(3) 1.0234(3)
C14 C 0.7087(4) 0.9433(3) 1.1563(3)
H11 H 0.7495 0.9820 1.2125
C15 C 0.6046(4) 0.8428(3) 1.2032(3)
H12 H 0.5729 0.8101 1.2921
C16 C 0.5454(3) 0.7888(3) 1.1172(3)
H13 H 0.4727 0.7196 1.1512
C17 C 0.6890(3) 0.9265(3) 0.9462(3)
C18 C 0.7324(3) 0.9719(3) 0.8108(3)
N2 N 0.5848(3) 0.8285(2) 0.9926(2)
H14 H 0.5452 0.7929 0.9418
loop_
_geom_bond_atom_site_label_1
_geom_bond_atom_site_label_2
_geom_bond_site_symmetry_1
_geom_bond_site_symmetry_2
U1 O1 1_555 1_555
O2 U1 1_555 1_555
P1 O3 1_555 1_555
O3 U1 1_555 1_555
O4 P1 1_555 1_555
O5 P1 1_555 1_555
C1 P1 1_555 1_555
C2 C1 1_555 1_555
H1 C2 1_555 1_555
C3 C2 1_555 1_555
H2 C3 1_555 1_555
C4 C3 1_555 1_555
C5 C4 1_555 1_555
H3 C5 1_555 1_555
C6 C1 1_555 1_555
H4 C6 1_555 1_555
P2 C4 1_555 1_555
O6 P2 1_555 1_555
O7 P2 1_555 1_555
O8 P2 1_555 1_555
N1 H5 1_555 1_555
C7 N1 1_555 1_555
H6 C7 1_555 1_555
C8 C7 1_555 1_555
H7 C8 1_555 1_555
C9 C8 1_555 1_555
H8 C9 1_555 1_555
C10 C9 1_555 1_555
C11 C10 1_555 1_555
H9 C11 1_555 1_555
C12 C11 1_555 1_555
H10 C12 1_555 1_555
C13 C12 1_555 1_555
C14 C13 1_555 1_555
H11 C14 1_555 1_555
C15 C14 1_555 1_555
H12 C15 1_555 1_555
C16 C15 1_555 1_555
H13 C16 1_555 1_555
C17 C13 1_555 1_555
C18 N1 1_555 1_555
N2 C16 1_555 1_555
H14 N2 1_555 1_555
U1A O4 1_555 1_555
U1A_2 O6 1_555 1_555
U1_2 O7 1_555 1_555
O4A U1 1_555 1_555
O6A U1 1_555 1_555
O7_2 U1 1_555 1_555
O7A U1 1_555 1_555
C5 C6 1_555 1_555
O7 U1A_2 1_555 1_555
C10 C18 1_555 1_555
C17 C18 1_555 1_555
C17 N2 1_555 1_555

#END
