
#######################################################################
#
#                 Cambridge Crystallographic Data Centre
#                                CCDC 
#
#######################################################################
#
# If this CIF has been generated from an entry in the Cambridge 
# Structural Database, then it will include bibliographic, chemical, 
# crystal, experimental, refinement or atomic coordinate data resulting 
# from the CCDC's data processing and validation procedures.
#
#######################################################################

data_WAGFOZ
_symmetry_cell_setting           monoclinic
_symmetry_space_group_name_H-M   'P 21/c'
_symmetry_Int_Tables_number      14
_space_group_name_Hall           '-P 2ybc'
loop_
_symmetry_equiv_pos_site_id
_symmetry_equiv_pos_as_xyz
1 x,y,z
2 -x,1/2+y,1/2-z
3 -x,-y,-z
4 x,1/2-y,1/2+z
_cell_length_a                   9.418(4)
_cell_length_b                   15.547(7)
_cell_length_c                   18.259(8)
_cell_angle_alpha                90
_cell_angle_beta                 92.29(4)
_cell_angle_gamma                90
_cell_volume                     2671.38
loop_
_atom_site_label
_atom_site_type_symbol
_atom_site_fract_x
_atom_site_fract_y
_atom_site_fract_z
Er1 Er 0.2166(1) 0.1858(1) 0.2852(1)
P1 P 0.4531(2) 0.3571(1) 0.3106(1)
N1 N 0.4335(5) 0.1223(3) 0.1946(3)
O1 O 0.3638(4) 0.1891(2) 0.1772(2)
O2 O 0.3917(5) 0.0834(3) 0.2507(2)
O3 O 0.5319(6) 0.0988(3) 0.1598(3)
N2 N -0.0120(6) 0.2363(3) 0.3710(3)
O4 O -0.0313(5) 0.2000(3) 0.3091(3)
O5 O 0.1139(5) 0.2545(3) 0.3898(2)
O6 O -0.1108(6) 0.2522(4) 0.4100(3)
N3 N 0.2460(6) 0.0547(3) 0.3907(3)
O7 O 0.1459(5) 0.0554(3) 0.3431(2)
O8 O 0.3246(5) 0.1194(3) 0.3943(2)
O9 O 0.2636(7) -0.0061(3) 0.4331(3)
N4 N 0.2640(6) 0.3981(3) 0.1413(3)
O10 O 0.0275(5) 0.5571(3) 0.4067(2)
O11 O -0.0836(4) 0.6193(3) 0.3111(2)
O12 O 0.4047(4) 0.2674(2) 0.3201(2)
O13 O 0.1670(4) 0.3155(2) 0.2271(2)
O14 O 0.5647(4) 0.3654(3) 0.2520(3)
O15 O 0.5101(5) 0.3965(3) 0.3828(2)
C1 C 0.3181(5) 0.4275(3) 0.2724(3)
C2 C 0.2115(6) 0.4606(3) 0.3267(3)
C3 C 0.1152(7) 0.5295(3) 0.2893(3)
C4 C 0.0092(6) 0.5722(4) 0.3349(3)
C5 C -0.0683(9) 0.6032(5) 0.4545(5)
C6 C 0.2453(5) 0.3778(3) 0.2095(3)
C7 C 0.3645(8) 0.4663(4) 0.1181(4)
C8 C 0.2996(10) 0.5524(5) 0.1091(5)
C9 C 0.1911(8) 0.3480(4) 0.0831(3)
C10 C 0.0486(8) 0.3799(6) 0.0629(5)
C11 C 0.8136(8) 0.3875(5) 0.2735(5)
C12 C 0.7043(6) 0.3229(4) 0.2512(4)
C13 C 0.7199(9) 0.2892(6) 0.1760(5)
C14 C 0.4320(12) 0.3259(8) 0.4894(5)
C15 C 0.5557(8) 0.3452(5) 0.4474(3)
C16 C 0.6658(9) 0.3969(6) 0.4875(5)
H1 H 0.3646 0.4764 0.2519
H2 H 0.2614 0.4855 0.3684
H3 H 0.1542 0.4141 0.3434
H4 H 0.0656 0.5028 0.2484
H5 H 0.1754 0.5732 0.2702
H6 H -0.0465 0.5883 0.5047
H7 H -0.0571 0.6641 0.4481
H8 H -0.1647 0.5872 0.4417
H9 H 0.4052 0.4493 0.0730
H10 H 0.4402 0.4704 0.1547
H11 H 0.3700 0.5931 0.0948
H12 H 0.2252 0.5492 0.0717
H13 H 0.2605 0.5705 0.1544
H14 H 0.1834 0.2895 0.0991
H15 H 0.2477 0.3485 0.0405
H16 H 0.0063 0.3446 0.0248
H17 H -0.0093 0.3784 0.1050
H18 H 0.0556 0.4381 0.0457
H19 H 0.7977 0.4069 0.3224
H20 H 0.9061 0.3618 0.2719
H21 H 0.8079 0.4355 0.2404
H22 H 0.7073 0.2760 0.2855
H23 H 0.6464 0.2480 0.1647
H24 H 0.7128 0.3358 0.1415
H25 H 0.8110 0.2621 0.1730
H26 H 0.3667 0.2928 0.4591
H27 H 0.4614 0.2927 0.5317
H28 H 0.3864 0.3777 0.5048
H29 H 0.5983 0.2929 0.4310
H30 H 0.6987 0.3661 0.4304
H31 H 0.7441 0.4069 0.4564
H32 H 0.6262 0.4510 0.5016
O11A O 0.0836(4) 0.1193(3) 0.1889(2)
Er1A Er -0.2166(1) 0.6858(1) 0.2148(1)
loop_
_geom_bond_atom_site_label_1
_geom_bond_atom_site_label_2
_geom_bond_site_symmetry_1
_geom_bond_site_symmetry_2
Er1 O1 1_555 1_555
P1 O12 1_555 1_555
N1 O1 1_555 1_555
O2 Er1 1_555 1_555
O3 N1 1_555 1_555
N2 O4 1_555 1_555
O4 Er1 1_555 1_555
O5 Er1 1_555 1_555
O6 N2 1_555 1_555
N3 O7 1_555 1_555
O7 Er1 1_555 1_555
O8 Er1 1_555 1_555
O9 N3 1_555 1_555
N4 C6 1_555 1_555
O10 C4 1_555 1_555
O11 C4 1_555 1_555
O12 Er1 1_555 1_555
O13 Er1 1_555 1_555
O14 P1 1_555 1_555
O15 P1 1_555 1_555
C1 P1 1_555 1_555
C2 C1 1_555 1_555
C3 C2 1_555 1_555
C4 C3 1_555 1_555
C5 O10 1_555 1_555
C6 O13 1_555 1_555
C7 N4 1_555 1_555
C8 C7 1_555 1_555
C9 N4 1_555 1_555
C10 C9 1_555 1_555
C11 C12 1_555 1_555
C12 O14 1_555 1_555
C13 C12 1_555 1_555
C14 C15 1_555 1_555
C15 O15 1_555 1_555
C16 C15 1_555 1_555
H1 C1 1_555 1_555
H2 C2 1_555 1_555
H3 C2 1_555 1_555
H4 C3 1_555 1_555
H5 C3 1_555 1_555
H6 C5 1_555 1_555
H7 C5 1_555 1_555
H8 C5 1_555 1_555
H9 C7 1_555 1_555
H10 C7 1_555 1_555
H11 C8 1_555 1_555
H12 C8 1_555 1_555
H13 C8 1_555 1_555
H14 C9 1_555 1_555
H15 C9 1_555 1_555
H16 C10 1_555 1_555
H17 C10 1_555 1_555
H18 C10 1_555 1_555
H19 C11 1_555 1_555
H20 C11 1_555 1_555
H21 C11 1_555 1_555
H22 C12 1_555 1_555
H23 C13 1_555 1_555
H24 C13 1_555 1_555
H25 C13 1_555 1_555
H26 C14 1_555 1_555
H27 C14 1_555 1_555
H28 C14 1_555 1_555
H29 C15 1_555 1_555
H30 C16 1_555 1_555
H31 C16 1_555 1_555
H32 C16 1_555 1_555
O11A Er1 1_555 1_555
Er1A O11 1_555 1_555
N1 O2 1_555 1_555
N2 O5 1_555 1_555
N3 O8 1_555 1_555
C1 C6 1_555 1_555

#END
