
#######################################################################
#
#                 Cambridge Crystallographic Data Centre
#                                CCDC 
#
#######################################################################
#
# If this CIF has been generated from an entry in the Cambridge 
# Structural Database, then it will include bibliographic, chemical, 
# crystal, experimental, refinement or atomic coordinate data resulting 
# from the CCDC's data processing and validation procedures.
#
#######################################################################

data_WAGHUJ
_symmetry_cell_setting           orthorhombic
_symmetry_space_group_name_H-M   'P n a 21'
_symmetry_Int_Tables_number      33
_space_group_name_Hall           'P 2c -2n'
loop_
_symmetry_equiv_pos_site_id
_symmetry_equiv_pos_as_xyz
1 x,y,z
2 -x,-y,1/2+z
3 1/2+x,1/2-y,z
4 1/2-x,1/2+y,1/2+z
_cell_length_a                   13.203(2)
_cell_length_b                   8.9082(14)
_cell_length_c                   17.077(3)
_cell_angle_alpha                90
_cell_angle_beta                 90
_cell_angle_gamma                90
_cell_volume                     2008.51
loop_
_atom_site_label
_atom_site_type_symbol
_atom_site_fract_x
_atom_site_fract_y
_atom_site_fract_z
Zn1 Zn 0.62730(3) 0.28387(4) 0.08131(4)
C1 C 0.8395(3) 0.4437(4) 0.0392(2)
C2 C 0.8455(3) 0.5341(4) -0.0272(2)
H1 H 0.8168 0.6319 -0.0263
C3 C 0.8927(3) 0.4828(4) -0.0943(2)
H2 H 0.8938 0.5433 -0.1401
C4 C 0.9382(3) 0.3440(4) -0.0945(2)
H3 H 0.9714 0.3093 -0.1404
C5 C 0.9358(3) 0.2537(5) -0.0277(2)
C6 C 0.8851(2) 0.2992(4) 0.0400(2)
C7 C 0.8724(2) 0.2010(4) 0.1104(2)
C8 C 0.8075(2) 0.0758(4) 0.1044(2)
C9 C 0.7915(3) -0.0202(4) 0.1679(2)
H4 H 0.7482 -0.1048 0.1624
C10 C 0.8384(3) 0.0077(4) 0.2385(2)
H5 H 0.8269 -0.0571 0.2818
C11 C 0.9022(3) 0.1300(4) 0.2464(2)
H6 H 0.9338 0.1496 0.2953
C12 C 0.9206(3) 0.2246(4) 0.1829(2)
C13 C 0.7840(3) 0.5058(4) 0.1087(2)
C14 C 0.9906(3) 0.1032(4) -0.0329(2)
C15 C 0.7505(3) 0.0436(4) 0.0299(2)
C16 C 0.9918(3) 0.3522(4) 0.1967(2)
O1 O 0.71076(19) 0.4289(3) 0.13755(14)
O2 O 0.80906(19) 0.6310(3) 0.13346(15)
O3 O 0.9853(2) 0.0283(3) -0.09182(17)
O4 O 1.04382(19) 0.0671(3) 0.02881(15)
O5 O 0.68733(19) 0.1430(3) 0.00651(14)
O6 O 0.7665(2) -0.0745(3) -0.00458(16)
O7 O 0.9751(2) 0.4387(3) 0.25288(15)
O8 O 1.06858(18) 0.3652(3) 0.15180(15)
Zn1B Zn 1.12730(3) 0.21613(4) 0.08131(4)
O4B O 0.54382(19) 0.4329(3) 0.02881(15)
O8B O 0.56858(18) 0.1348(3) 0.15180(15)
C17 C 0.5523(3) 0.7905(4) 0.0362(3)
H7 H 0.5175 0.7810 -0.0142
H8 H 0.6195 0.7442 0.0327
H9 H 0.5596 0.8970 0.0495
C18 C 0.5418(4) 0.7237(4) 0.1763(3)
H10 H 0.5003 0.6702 0.2148
H11 H 0.5482 0.8292 0.1918
H12 H 0.6092 0.6778 0.1738
N1 N 0.4926(3) 0.7144(4) 0.0975(2)
H19 H 0.487(3) 0.634(5) 0.077(3)
H21 H 0.423(5) 0.780(6) 0.107(4)
C19 C 0.7677(4) 0.6180(5) 0.3236(3)
H13 H 0.8238 0.6840 0.3385
H14 H 0.7069 0.6460 0.3530
H15 H 0.7545 0.6283 0.2673
C20 C 0.7132(3) 0.3517(5) 0.3203(3)
H16 H 0.7347 0.2494 0.3334
H17 H 0.6994 0.3584 0.2641
H18 H 0.6516 0.3764 0.3497
N2 N 0.7949(3) 0.4592(4) 0.3415(2)
H20 H 0.867(3) 0.438(6) 0.319(3)
H22 H 0.795(4) 0.461(6) 0.394(4)
loop_
_geom_bond_atom_site_label_1
_geom_bond_atom_site_label_2
_geom_bond_site_symmetry_1
_geom_bond_site_symmetry_2
Zn1 O1 1_555 1_555
C1 C2 1_555 1_555
C2 H1 1_555 1_555
C3 C2 1_555 1_555
H2 C3 1_555 1_555
C4 C3 1_555 1_555
H3 C4 1_555 1_555
C5 C4 1_555 1_555
C6 C1 1_555 1_555
C7 C6 1_555 1_555
C8 C7 1_555 1_555
C9 C8 1_555 1_555
H4 C9 1_555 1_555
C10 C9 1_555 1_555
H5 C10 1_555 1_555
C11 C10 1_555 1_555
H6 C11 1_555 1_555
C12 C7 1_555 1_555
C13 C1 1_555 1_555
C14 C5 1_555 1_555
C15 C8 1_555 1_555
C16 C12 1_555 1_555
C17 H7 1_555 1_555
H8 C17 1_555 1_555
H9 C17 1_555 1_555
C18 H10 1_555 1_555
H11 C18 1_555 1_555
H12 C18 1_555 1_555
C19 H13 1_555 1_555
H14 C19 1_555 1_555
H15 C19 1_555 1_555
C20 H16 1_555 1_555
H17 C20 1_555 1_555
H18 C20 1_555 1_555
N1 C17 1_555 1_555
N2 C19 1_555 1_555
O1 C13 1_555 1_555
O2 C13 1_555 1_555
O3 C14 1_555 1_555
O4 C14 1_555 1_555
O5 Zn1 1_555 1_555
O6 C15 1_555 1_555
O7 C16 1_555 1_555
O8 C16 1_555 1_555
H19 N1 1_555 1_555
H20 N2 1_555 1_555
H21 N1 1_555 1_555
H22 N2 1_555 1_555
Zn1B O4 1_555 1_555
O4B Zn1 1_555 1_555
O8B Zn1 1_555 1_555
C5 C6 1_555 1_555
C11 C12 1_555 1_555
C15 O5 1_555 1_555
C18 N1 1_555 1_555
C20 N2 1_555 1_555
O8 Zn1B 1_555 1_555

#END
