
#######################################################################
#
#                 Cambridge Crystallographic Data Centre
#                                CCDC 
#
#######################################################################
#
# If this CIF has been generated from an entry in the Cambridge 
# Structural Database, then it will include bibliographic, chemical, 
# crystal, experimental, refinement or atomic coordinate data resulting 
# from the CCDC's data processing and validation procedures.
#
#######################################################################

data_WAGHIX
_symmetry_cell_setting           monoclinic
_symmetry_space_group_name_H-M   'P 21'
_symmetry_Int_Tables_number      4
_space_group_name_Hall           'P 2yb'
loop_
_symmetry_equiv_pos_site_id
_symmetry_equiv_pos_as_xyz
1 x,y,z
2 -x,1/2+y,-z
_cell_length_a                   17.340(5)
_cell_length_b                   10.649(5)
_cell_length_c                   34.966(5)
_cell_angle_alpha                90
_cell_angle_beta                 93.239(5)
_cell_angle_gamma                90
_cell_volume                     6446.29
loop_
_atom_site_label
_atom_site_type_symbol
_atom_site_fract_x
_atom_site_fract_y
_atom_site_fract_z
C1 C 0.0262(3) -0.0758(6) 0.50788(15)
H1 H -0.0074 -0.0315 0.5245
H2 H -0.0006 -0.0832 0.4829
C2 C 0.1375(3) 0.0079(6) 0.54319(14)
H3 H 0.1849 0.0556 0.5416
H4 H 0.1046 0.0523 0.5602
C3 C 0.1489(3) -0.0733(6) 0.47924(15)
H5 H 0.1236 -0.0812 0.4539
H6 H 0.1964 -0.0268 0.4768
C4 C 0.0946(3) -0.2699(6) 0.49817(15)
H7 H 0.1059 -0.3525 0.5087
H8 H 0.0690 -0.2807 0.4730
C5 C 0.2051(3) -0.1849(6) 0.53362(15)
H9 H 0.2175 -0.2670 0.5443
H10 H 0.2531 -0.1390 0.5318
C6 C 0.0834(3) -0.1874(6) 0.56180(14)
H11 H 0.0504 -0.1430 0.5788
H12 H 0.0944 -0.2696 0.5727
C7 C 0.2389(3) 0.2391(5) 0.46045(15)
H13 H 0.2361 0.1493 0.4560
H14 H 0.2428 0.2530 0.4879
C8 C 0.1629(3) 0.2829(6) 0.40231(14)
H15 H 0.1167 0.3246 0.3918
H16 H 0.1585 0.1943 0.3961
C9 C 0.1742(3) 0.4357(6) 0.45253(15)
H17 H 0.1277 0.4775 0.4425
H18 H 0.1782 0.4483 0.4800
C10 C 0.3010(3) 0.2732(6) 0.40157(14)
H19 H 0.2985 0.1842 0.3958
H20 H 0.3462 0.3073 0.3901
C11 C 0.3129(3) 0.4275(6) 0.45121(15)
H21 H 0.3180 0.4410 0.4787
H22 H 0.3580 0.4628 0.4401
C12 C 0.2360(3) 0.4693(6) 0.39329(15)
H23 H 0.1903 0.5111 0.3823
H24 H 0.2805 0.5047 0.3816
C13 C 0.4316(3) 0.7369(6) 0.47429(15)
H25 H 0.4377 0.6499 0.4668
H26 H 0.4142 0.7382 0.5002
C14 C 0.4977(3) 0.9358(5) 0.48467(14)
H27 H 0.4818 0.9403 0.5108
H28 H 0.5468 0.9790 0.4836
C15 C 0.5324(3) 0.7981(6) 0.43311(14)
H29 H 0.5819 0.8398 0.4318
H30 H 0.5386 0.7115 0.4252
C16 C 0.4649(3) 0.9902(6) 0.41952(15)
H31 H 0.4267 1.0306 0.4023
H32 H 0.5132 1.0352 0.4179
C17 C 0.3648(3) 0.9305(5) 0.45992(16)
H33 H 0.3268 0.9714 0.4428
H34 H 0.3466 0.9342 0.4856
C18 C 0.4005(3) 0.7962(6) 0.40917(14)
H35 H 0.4054 0.7101 0.4006
H36 H 0.3626 0.8377 0.3920
C35 C 0.2913(4) 0.2866(7) 0.65017(17)
C36 C 0.3271(3) 0.3280(6) 0.68879(16)
H69 H 0.3805 0.3534 0.6869
H70 H 0.3246 0.2618 0.7077
C37 C 0.2762(4) 0.4399(7) 0.69864(16)
H71 H 0.2780 0.4619 0.7259
C38 C 0.2237(3) 0.3743(5) 0.64088(14)
C39 C 0.2647(4) 0.5025(7) 0.63183(17)
H72 H 0.3063 0.4899 0.6148
H73 H 0.2282 0.5625 0.6203
C40 C 0.2963(4) 0.5472(6) 0.67199(16)
H74 H 0.3517 0.5604 0.6725
H75 H 0.2715 0.6247 0.6792
C41 C 0.1960(3) 0.3985(5) 0.68179(14)
C42 C 0.1652(4) 0.2813(6) 0.69984(17)
H76 H 0.2033 0.2159 0.6994
H77 H 0.1190 0.2547 0.6857
H78 H 0.1539 0.2987 0.7259
C43 C 0.1333(4) 0.5018(6) 0.6832(2)
H79 H 0.1520 0.5778 0.6722
H80 H 0.1217 0.5168 0.7093
H81 H 0.0874 0.4748 0.6689
C44 C 0.1628(4) 0.3196(6) 0.61209(15)
H82 H 0.1122 0.3382 0.6212
H83 H 0.1685 0.2290 0.6121
C69 C 0.5751(3) 0.3383(6) 0.36324(13)
H116 H 0.6201 0.3879 0.3579
H117 H 0.5881 0.2510 0.3589
C70 C 0.5105(3) 0.3741(6) 0.33440(15)
C71 C 0.4566(4) 0.2631(6) 0.32372(17)
C72 C 0.4132(4) 0.2999(8) 0.2860(2)
H118 H 0.3581 0.3063 0.2890
H119 H 0.4225 0.2401 0.2659
C73 C 0.4488(4) 0.4290(7) 0.27775(17)
H120 H 0.4433 0.4547 0.2508
C74 C 0.5333(4) 0.4110(6) 0.29332(15)
C75 C 0.4168(4) 0.5221(7) 0.30544(18)
H121 H 0.3612 0.5144 0.3060
H122 H 0.4296 0.6075 0.2986
C76 C 0.4573(3) 0.4848(6) 0.34482(17)
H123 H 0.4871 0.5542 0.3558
H124 H 0.4198 0.4584 0.3628
C77 C 0.5785(4) 0.3075(7) 0.27357(16)
H125 H 0.5495 0.2307 0.2734
H126 H 0.6274 0.2950 0.2873
H127 H 0.5868 0.3323 0.2477
C78 C 0.5810(4) 0.5325(6) 0.29295(17)
H128 H 0.5538 0.5984 0.3052
H129 H 0.5890 0.5559 0.2670
H130 H 0.6301 0.5191 0.3064
C81 C 0.1969(4) 0.9424(7) 0.33028(15)
H135 H 0.1665 1.0187 0.3275
H136 H 0.2506 0.9680 0.3309
C82 C 0.1824(4) 0.8712(6) 0.29464(15)
C83 C 0.1197(4) 0.7785(8) 0.28156(18)
C84 C 0.1402(6) 0.7567(9) 0.2432(2)
H137 H 0.1038 0.7053 0.2275
C85 C 0.1695(5) 0.8674(9) 0.22426(17)
H138 H 0.1290 0.9116 0.2095
H139 H 0.2111 0.8468 0.2079
C86 C 0.2254(5) 0.6834(8) 0.2580(2)
H140 H 0.2165 0.5977 0.2661
H141 H 0.2619 0.6834 0.2380
C87 C 0.2529(5) 0.7651(8) 0.2913(2)
H142 H 0.3014 0.8055 0.2864
H143 H 0.2595 0.7162 0.3147
C88 C 0.0906(4) 0.6813(8) 0.30709(19)
H144 H 0.0812 0.7179 0.3315
H145 H 0.1284 0.6157 0.3105
H146 H 0.0434 0.6469 0.2959
C89 C 0.1982(5) 0.9412(8) 0.2594(2)
C95 C 0.0464(5) 0.8775(10) 0.2736(3)
H160 H 0.0264 0.9017 0.2975
H161 H 0.0064 0.8373 0.2579
H162 H 0.0640 0.9508 0.2606
N1 N 0.5073(3) 0.8019(5) 0.47364(12)
N2 N 0.3730(3) 0.7968(5) 0.44831(12)
N3 N 0.4753(2) 0.8601(5) 0.40715(12)
N4 N 0.4398(2) 0.9983(4) 0.45892(12)
N5 N 0.2427(3) 0.4933(4) 0.43527(12)
N6 N 0.3093(3) 0.2901(4) 0.44324(12)
N7 N 0.2312(3) 0.3354(5) 0.38446(13)
N8 N 0.1680(3) 0.2983(5) 0.44420(12)
N9 N 0.0978(3) -0.0019(4) 0.50427(12)
N10 N 0.1674(3) -0.2004(5) 0.49456(12)
N11 N 0.0419(2) -0.2023(5) 0.52342(11)
N12 N 0.1557(3) -0.1180(5) 0.55908(12)
O5 O 0.3106(3) 0.1972(6) 0.63172(13)
O6 O 0.1381(3) 0.5024(4) 0.56366(11)
O7 O 0.2443(2) 0.3615(5) 0.55269(11)
O8 O 0.1117(3) 0.2903(4) 0.54190(12)
O9 O 0.4836(2) 0.3004(4) 0.41899(11)
O10 O 0.0972(2) 0.8710(5) 0.37986(12)
O11 O 0.2148(3) 0.9765(4) 0.40210(11)
O12 O 0.2186(3) 0.7610(4) 0.38114(12)
O16 O 0.5590(2) 0.4913(3) 0.42049(11)
O17 O 0.6225(2) 0.2923(4) 0.43277(10)
O23 O 0.4529(3) 0.1649(4) 0.33927(12)
O24 O 0.2185(5) 1.0543(9) 0.26064(18)
S2 S 0.16455(9) 0.37291(15) 0.56374(4)
S3 S 0.55810(8) 0.35663(15) 0.41281(4)
S4 S 0.18062(8) 0.88188(15) 0.37661(4)
Ag1 Ag 0.24894(2) 0.70361(4) 0.452433(11)
Ag2 Ag 0.41672(2) 0.20430(4) 0.478210(11)
Ag3 Ag 0.07235(2) 0.19009(4) 0.475120(11)
N1A N 0.4927(3) 0.3019(5) 0.52636(12)
N4_2 N 0.4398(2) -0.0017(4) 0.45892(12)
N10_2 N 0.1674(3) 0.7996(5) 0.49456(12)
N11A N -0.0419(2) 0.2977(5) 0.47658(11)
Ag1_2 Ag 0.24894(2) -0.29639(4) 0.452433(11)
Ag2_2 Ag 0.41672(2) 1.20430(4) 0.478210(11)
Ag2A Ag 0.58328(2) 0.70430(4) 0.521790(11)
Ag3A Ag -0.07235(2) -0.30991(4) 0.524880(11)
C19 C -0.0263(3) 0.3057(6) -0.00768(14)
H37 H 0.0079 0.2606 -0.0238
H38 H -0.0005 0.3146 0.0175
C20 C 0.2405(3) 0.4920(6) -0.04165(14)
H39 H 0.2377 0.5809 -0.0475
H40 H 0.2459 0.4830 -0.0140
C21 C 0.2984(3) 0.4517(6) -0.10116(14)
H41 H 0.2963 0.5404 -0.1074
H42 H 0.3428 0.4159 -0.1129
C22 C 0.2315(3) 0.2548(5) -0.10670(14)
H43 H 0.1846 0.2136 -0.1165
H44 H 0.2747 0.2161 -0.1186
C23 C 0.3123(3) 0.3021(6) -0.05001(16)
H45 H 0.3192 0.2907 -0.0225
H46 H 0.3564 0.2652 -0.0617
C24 C -0.0940(3) 0.4995(5) 0.00139(15)
H47 H -0.1046 0.5831 -0.0086
H48 H -0.0681 0.5080 0.0266
C25 C 0.1735(3) 0.2949(5) -0.04707(14)
H49 H 0.1266 0.2525 -0.0563
H50 H 0.1788 0.2846 -0.0195
C26 C -0.0829(3) 0.4182(6) -0.06228(14)
H51 H -0.0493 0.3749 -0.0792
H52 H -0.0944 0.5005 -0.0730
C27 C -0.1373(3) 0.2238(6) -0.04332(14)
H53 H -0.1040 0.1786 -0.0600
H54 H -0.1847 0.1762 -0.0419
C28 C -0.1491(3) 0.3041(5) 0.01998(14)
H55 H -0.1238 0.3125 0.0453
H56 H -0.1965 0.2572 0.0225
C29 C 0.4017(3) 0.9485(6) -0.08905(15)
H57 H 0.3649 0.9119 -0.1078
H58 H 0.4066 1.0370 -0.0951
C30 C 0.3671(3) 0.8012(6) -0.04116(15)
H59 H 0.3495 0.7916 -0.0155
H60 H 0.3290 0.7623 -0.0588
C31 C 0.4295(3) 0.9926(6) -0.02230(14)
H61 H 0.4343 1.0814 -0.0278
H62 H 0.4118 0.9843 0.0034
C32 C 0.5314(3) 0.9452(6) -0.06313(15)
H63 H 0.5814 0.9054 -0.0648
H64 H 0.5373 1.0336 -0.0689
C33 C 0.4688(3) 0.7532(6) -0.08292(14)
H65 H 0.5186 0.7128 -0.0846
H66 H 0.4329 0.7140 -0.1016
C34 C 0.4974(3) 0.7964(6) -0.01610(16)
H67 H 0.4807 0.7856 0.0097
H68 H 0.5472 0.7555 -0.0175
C45 C 0.1898(3) -0.2097(6) -0.16971(14)
H84 H 0.2441 -0.2027 -0.1746
H85 H 0.1784 -0.2988 -0.1687
C46 C 0.1455(3) -0.1590(6) -0.20466(14)
C47 C 0.1534(3) -0.0195(6) -0.21810(17)
C48 C 0.1017(4) -0.0453(7) -0.25621(17)
H86 H 0.0935 0.0287 -0.2726
C49 C 0.1472(5) -0.1514(8) -0.27460(18)
H87 H 0.1142 -0.2004 -0.2922
H88 H 0.1902 -0.1184 -0.2881
C50 C 0.5695(3) 0.3280(5) -0.13343(14)
H89 H 0.6202 0.3495 -0.1419
H90 H 0.5664 0.2371 -0.1326
C51 C 0.5089(3) 0.3753(6) -0.16354(14)
C52 C 0.4805(3) 0.5114(5) -0.15986(15)
H91 H 0.5232 0.5672 -0.1529
H92 H 0.4425 0.5175 -0.1407
C53 C 0.4444(4) 0.5442(6) -0.19983(16)
H93 H 0.3903 0.5665 -0.1987
H94 H 0.4716 0.6131 -0.2112
C54 C 0.4538(4) 0.4231(7) -0.22209(16)
H95 H 0.4492 0.4328 -0.2500
C55 C 0.3973(4) 0.3294(7) -0.20615(17)
H96 H 0.3475 0.3680 -0.2026
H97 H 0.3902 0.2568 -0.2227
C56 C 0.4377(3) 0.2943(5) -0.16815(16)
C57 C 0.5341(4) 0.3750(6) -0.20606(15)
C58 C 0.5552(4) 0.2418(7) -0.2188(2)
H98 H 0.5133 0.1856 -0.2143
H99 H 0.6009 0.2142 -0.2045
H100 H 0.5644 0.2423 -0.2456
C59 C 0.6004(4) 0.4624(8) -0.21359(17)
H101 H 0.6478 0.4270 -0.2030
H102 H 0.5918 0.5423 -0.2019
H103 H 0.6036 0.4734 -0.2407
C60 C 0.1538(3) 0.4270(6) 0.11260(15)
H104 H 0.1557 0.5175 0.1098
H105 H 0.1033 0.4065 0.1214
C61 C 0.2131(4) 0.3913(6) 0.14419(15)
C62 C 0.1909(4) 0.4529(7) 0.18268(15)
H106 H 0.2025 0.5420 0.1829
H107 H 0.1364 0.4415 0.1865
C63 C 0.2304(3) 0.2523(5) 0.15764(15)
C64 C 0.1590(4) 0.1827(7) 0.1698(2)
H108 H 0.1329 0.2330 0.1878
H109 H 0.1742 0.1044 0.1815
H110 H 0.1249 0.1670 0.1477
C65 C 0.3462(4) 0.3729(7) 0.1706(2)
H111 H 0.3831 0.3209 0.1580
H112 H 0.3738 0.4300 0.1881
C66 C 0.2928(4) 0.4440(8) 0.14148(18)
C67 C 0.2875(4) 0.2934(8) 0.19097(17)
H113 H 0.3104 0.2233 0.2058
C68 C 0.2417(4) 0.3822(7) 0.21410(16)
H114 H 0.2752 0.4398 0.2287
H115 H 0.2099 0.3371 0.2315
C79 C -0.2055(3) 0.4164(6) -0.03451(14)
H131 H -0.2541 0.3721 -0.0331
H132 H -0.2164 0.4988 -0.0453
C80 C 0.1616(3) 0.4445(6) -0.09868(14)
H133 H 0.1147 0.4042 -0.1089
H134 H 0.1581 0.5332 -0.1049
C90 C 0.2712(5) 0.1709(6) 0.12831(18)
H147 H 0.3160 0.2144 0.1203
H148 H 0.2364 0.1554 0.1065
H149 H 0.2866 0.0925 0.1399
C91 C 0.0575(4) -0.1853(6) -0.20829(17)
H150 H 0.0328 -0.1607 -0.1852
H151 H 0.0472 -0.2735 -0.2133
C92 C 0.0292(4) -0.1019(7) -0.24317(18)
H152 H 0.0039 -0.1524 -0.2633
H153 H -0.0062 -0.0375 -0.2354
C93 C 0.1154(4) 0.0772(6) -0.19272(17)
H154 H 0.0629 0.0530 -0.1893
H155 H 0.1162 0.1582 -0.2047
H156 H 0.1433 0.0810 -0.1682
C94 C 0.2350(4) 0.0242(7) -0.22239(18)
H157 H 0.2612 -0.0346 -0.2379
H158 H 0.2615 0.0298 -0.1976
H159 H 0.2343 0.1053 -0.2344
C96 C 0.1752(5) -0.2291(7) -0.24000(17)
N13 N 0.1677(3) 0.4294(4) -0.05643(12)
N14 N 0.2404(2) 0.2371(4) -0.06453(12)
N15 N 0.3086(3) 0.4368(5) -0.05887(12)
N16 N 0.2280(3) 0.3902(5) -0.11688(13)
N17 N -0.1684(3) 0.4303(5) 0.00470(12)
N18 N -0.0986(2) 0.2334(5) -0.00458(12)
N19 N -0.0431(3) 0.4325(5) -0.02425(12)
N20 N -0.1551(3) 0.3466(5) -0.05973(13)
N21 N 0.3715(3) 0.9355(5) -0.05009(12)
N22 N 0.5063(3) 0.9322(5) -0.02395(12)
N23 N 0.4408(2) 0.7351(4) -0.04358(11)
N24 N 0.4759(3) 0.8881(5) -0.09189(12)
O1 O 0.2198(3) -0.0309(4) -0.11994(11)
O2 O 0.0972(2) -0.1385(4) -0.11696(11)
O3 O 0.2165(2) -0.2473(4) -0.09847(10)
O4 O 0.2083(3) -0.3288(5) -0.23979(13)
O13 O 0.4827(2) 0.3766(4) -0.07632(10)
O14 O 0.5905(2) 0.5149(3) -0.08617(10)
O15 O 0.6136(2) 0.3059(4) -0.06195(10)
O18 O 0.4159(2) 0.2169(4) -0.14604(11)
O19 O 0.1118(3) 0.4397(4) 0.04089(11)
O20 O 0.2409(2) 0.3623(4) 0.05703(11)
O21 O 0.1298(3) 0.2310(4) 0.06764(11)
O22 O 0.3113(3) 0.5335(6) 0.12177(13)
S1 S 0.17977(8) -0.15067(14) -0.12286(3)
S5 S 0.56306(8) 0.38548(15) -0.08599(4)
S6 S 0.15966(8) 0.36009(15) 0.06605(4)
Ag4 Ag 0.07275(2) 0.54168(4) -0.025361(11)
Ag5 Ag 0.42008(2) 0.52612(4) -0.027187(12)
Ag6 Ag 0.24952(2) 0.02840(4) -0.045980(11)
N17A N 0.1684(3) -0.0697(5) -0.00470(12)
N18A N 0.0986(2) 0.7334(5) 0.00458(12)
N21_2 N 0.3715(3) -0.0645(5) -0.05009(12)
N22A N 0.4937(3) 0.4322(5) 0.02395(12)
Ag4A Ag -0.07275(2) 0.04168(4) 0.025361(11)
Ag5A Ag 0.57992(2) 1.02612(4) 0.027187(12)
Ag6A Ag -0.24952(2) 0.52840(4) 0.045980(11)
Ag6_2 Ag 0.24952(2) 1.02840(4) -0.045980(11)
O25 O 0.0129(2) 0.6524(5) 0.90373(13)
O26 O 0.0096(3) 0.0687(4) 0.40714(12)
O27 O 0.6765(3) 0.6570(5) 0.96858(11)
O28 O 0.3228(2) 0.1180(4) 0.53700(12)
O29 O 0.3314(3) 0.5708(4) 0.53256(13)
O30 O 0.0409(3) 0.1130(5) 0.90656(12)
O31 O 0.0034(3) 1.2457(6) 0.34233(15)
O32 O 0.1608(5) 0.2671(7) 0.30889(18)
O33 O 0.2228(3) 0.7662(5) 0.13274(12)
O34 O 0.2201(3) 0.9620(6) 0.63434(13)
O35 O 0.0575(3) 0.9929(6) 0.64454(13)
O36 O 0.9397(3) 0.2361(6) 0.85310(13)
O37 O 0.0039(3) 0.4742(5) 0.83665(15)
O38 O 0.1573(3) 0.4527(5) 0.80668(13)
O39 O 0.4685(3) 0.8913(5) 0.32235(13)
O40 O -0.0411(3) 1.1203(5) 0.59250(12)
O41 O 0.6821(2) 0.0950(4) 0.96743(11)
loop_
_geom_bond_atom_site_label_1
_geom_bond_atom_site_label_2
_geom_bond_site_symmetry_1
_geom_bond_site_symmetry_2
C1 H1 1_555 1_555
H2 C1 1_555 1_555
C2 H3 1_555 1_555
H4 C2 1_555 1_555
C3 H5 1_555 1_555
H6 C3 1_555 1_555
C4 H7 1_555 1_555
H8 C4 1_555 1_555
C5 H9 1_555 1_555
H10 C5 1_555 1_555
C6 H11 1_555 1_555
H12 C6 1_555 1_555
C7 H13 1_555 1_555
H14 C7 1_555 1_555
C8 H15 1_555 1_555
H16 C8 1_555 1_555
C9 H17 1_555 1_555
H18 C9 1_555 1_555
C10 H19 1_555 1_555
H20 C10 1_555 1_555
C11 H21 1_555 1_555
H22 C11 1_555 1_555
C12 H23 1_555 1_555
H24 C12 1_555 1_555
C13 H25 1_555 1_555
H26 C13 1_555 1_555
C14 H27 1_555 1_555
H28 C14 1_555 1_555
C15 H29 1_555 1_555
H30 C15 1_555 1_555
C16 H31 1_555 1_555
H32 C16 1_555 1_555
C17 H33 1_555 1_555
H34 C17 1_555 1_555
C18 H35 1_555 1_555
H36 C18 1_555 1_555
C19 H37 1_555 1_555
H38 C19 1_555 1_555
C20 H39 1_555 1_555
H40 C20 1_555 1_555
C21 H41 1_555 1_555
H42 C21 1_555 1_555
C22 H43 1_555 1_555
H44 C22 1_555 1_555
C23 H45 1_555 1_555
H46 C23 1_555 1_555
C24 H47 1_555 1_555
H48 C24 1_555 1_555
C25 H49 1_555 1_555
H50 C25 1_555 1_555
C26 H51 1_555 1_555
H52 C26 1_555 1_555
C27 H53 1_555 1_555
H54 C27 1_555 1_555
C28 H55 1_555 1_555
H56 C28 1_555 1_555
C29 H57 1_555 1_555
H58 C29 1_555 1_555
C30 H59 1_555 1_555
H60 C30 1_555 1_555
C31 H61 1_555 1_555
H62 C31 1_555 1_555
C32 H63 1_555 1_555
H64 C32 1_555 1_555
C33 H65 1_555 1_555
H66 C33 1_555 1_555
C34 H67 1_555 1_555
H68 C34 1_555 1_555
C35 C36 1_555 1_555
C36 H69 1_555 1_555
H70 C36 1_555 1_555
C37 C36 1_555 1_555
H71 C37 1_555 1_555
C38 C35 1_555 1_555
C39 C38 1_555 1_555
H72 C39 1_555 1_555
H73 C39 1_555 1_555
C40 C37 1_555 1_555
H74 C40 1_555 1_555
H75 C40 1_555 1_555
C41 C37 1_555 1_555
C42 C41 1_555 1_555
H76 C42 1_555 1_555
H77 C42 1_555 1_555
H78 C42 1_555 1_555
C43 C41 1_555 1_555
H79 C43 1_555 1_555
H80 C43 1_555 1_555
H81 C43 1_555 1_555
C44 C38 1_555 1_555
H82 C44 1_555 1_555
H83 C44 1_555 1_555
C45 H84 1_555 1_555
H85 C45 1_555 1_555
C46 C45 1_555 1_555
C47 C46 1_555 1_555
C48 C47 1_555 1_555
H86 C48 1_555 1_555
C49 C48 1_555 1_555
H87 C49 1_555 1_555
H88 C49 1_555 1_555
C50 H89 1_555 1_555
H90 C50 1_555 1_555
C51 C50 1_555 1_555
C52 C51 1_555 1_555
H91 C52 1_555 1_555
H92 C52 1_555 1_555
C53 C52 1_555 1_555
H93 C53 1_555 1_555
H94 C53 1_555 1_555
C54 C53 1_555 1_555
H95 C54 1_555 1_555
C55 C54 1_555 1_555
H96 C55 1_555 1_555
H97 C55 1_555 1_555
C56 C51 1_555 1_555
C57 C51 1_555 1_555
C58 C57 1_555 1_555
H98 C58 1_555 1_555
H99 C58 1_555 1_555
H100 C58 1_555 1_555
C59 C57 1_555 1_555
H101 C59 1_555 1_555
H102 C59 1_555 1_555
H103 C59 1_555 1_555
C60 H104 1_555 1_555
H105 C60 1_555 1_555
C61 C60 1_555 1_555
C62 C61 1_555 1_555
H106 C62 1_555 1_555
H107 C62 1_555 1_555
C63 C61 1_555 1_555
C64 C63 1_555 1_555
H108 C64 1_555 1_555
H109 C64 1_555 1_555
H110 C64 1_555 1_555
C65 H111 1_555 1_555
H112 C65 1_555 1_555
C66 C61 1_555 1_555
C67 C63 1_555 1_555
H113 C67 1_555 1_555
C68 C62 1_555 1_555
H114 C68 1_555 1_555
H115 C68 1_555 1_555
C69 H116 1_555 1_555
H117 C69 1_555 1_555
C70 C69 1_555 1_555
C71 C70 1_555 1_555
C72 C71 1_555 1_555
H118 C72 1_555 1_555
H119 C72 1_555 1_555
C73 C72 1_555 1_555
H120 C73 1_555 1_555
C74 C70 1_555 1_555
C75 C73 1_555 1_555
H121 C75 1_555 1_555
H122 C75 1_555 1_555
C76 C70 1_555 1_555
H123 C76 1_555 1_555
H124 C76 1_555 1_555
C77 C74 1_555 1_555
H125 C77 1_555 1_555
H126 C77 1_555 1_555
H127 C77 1_555 1_555
C78 C74 1_555 1_555
H128 C78 1_555 1_555
H129 C78 1_555 1_555
H130 C78 1_555 1_555
C79 H131 1_555 1_555
H132 C79 1_555 1_555
C80 H133 1_555 1_555
H134 C80 1_555 1_555
C81 H135 1_555 1_555
H136 C81 1_555 1_555
C82 C81 1_555 1_555
C83 C82 1_555 1_555
C84 C83 1_555 1_555
H137 C84 1_555 1_555
C85 C84 1_555 1_555
H138 C85 1_555 1_555
H139 C85 1_555 1_555
C86 C84 1_555 1_555
H140 C86 1_555 1_555
H141 C86 1_555 1_555
C87 C82 1_555 1_555
H142 C87 1_555 1_555
H143 C87 1_555 1_555
C88 C83 1_555 1_555
H144 C88 1_555 1_555
H145 C88 1_555 1_555
H146 C88 1_555 1_555
C89 C82 1_555 1_555
C90 C63 1_555 1_555
H147 C90 1_555 1_555
H148 C90 1_555 1_555
H149 C90 1_555 1_555
C91 C46 1_555 1_555
H150 C91 1_555 1_555
H151 C91 1_555 1_555
C92 C48 1_555 1_555
H152 C92 1_555 1_555
H153 C92 1_555 1_555
C93 C47 1_555 1_555
H154 C93 1_555 1_555
H155 C93 1_555 1_555
H156 C93 1_555 1_555
C94 C47 1_555 1_555
H157 C94 1_555 1_555
H158 C94 1_555 1_555
H159 C94 1_555 1_555
C95 C83 1_555 1_555
H160 C95 1_555 1_555
H161 C95 1_555 1_555
H162 C95 1_555 1_555
C96 C46 1_555 1_555
N1 C13 1_555 1_555
N2 C13 1_555 1_555
N3 C15 1_555 1_555
N4 C14 1_555 1_555
N5 C9 1_555 1_555
N6 C7 1_555 1_555
N7 C8 1_555 1_555
N8 C7 1_555 1_555
N9 C1 1_555 1_555
N10 C3 1_555 1_555
N11 C1 1_555 1_555
N12 C2 1_555 1_555
N13 C20 1_555 1_555
N14 C22 1_555 1_555
N15 C20 1_555 1_555
N16 C21 1_555 1_555
N17 C24 1_555 1_555
N18 C19 1_555 1_555
N19 C19 1_555 1_555
N20 C26 1_555 1_555
N21 C29 1_555 1_555
N22 C31 1_555 1_555
N23 C30 1_555 1_555
N24 C29 1_555 1_555
O1 S1 1_555 1_555
O2 S1 1_555 1_555
O3 S1 1_555 1_555
O4 C96 1_555 1_555
O5 C35 1_555 1_555
O6 S2 1_555 1_555
O7 S2 1_555 1_555
O8 S2 1_555 1_555
O9 S3 1_555 1_555
O10 S4 1_555 1_555
O11 S4 1_555 1_555
O12 S4 1_555 1_555
O13 S5 1_555 1_555
O14 S5 1_555 1_555
O15 S5 1_555 1_555
O16 S3 1_555 1_555
O17 S3 1_555 1_555
O18 C56 1_555 1_555
O19 S6 1_555 1_555
O20 S6 1_555 1_555
O21 S6 1_555 1_555
O22 C66 1_555 1_555
O23 C71 1_555 1_555
O24 C89 1_555 1_555
S1 C45 1_555 1_555
S2 C44 1_555 1_555
S3 C69 1_555 1_555
S4 C81 1_555 1_555
S5 C50 1_555 1_555
S6 C60 1_555 1_555
Ag1 N2 1_555 1_555
Ag2 N6 1_555 1_555
Ag3 N8 1_555 1_555
Ag4 N13 1_555 1_555
Ag5 N15 1_555 1_555
Ag6 N14 1_555 1_555
N1A Ag2 1_555 1_555
N4_2 Ag2 1_555 1_555
N10_2 Ag1 1_555 1_555
N11A Ag3 1_555 1_555
N17A Ag6 1_555 1_555
N18A Ag4 1_555 1_555
N21_2 Ag6 1_555 1_555
N22A Ag5 1_555 1_555
Ag1_2 N10 1_555 1_555
Ag2_2 N4 1_555 1_555
Ag2A N1 1_555 1_555
Ag3A N11 1_555 1_555
Ag4A N18 1_555 1_555
Ag5A N22 1_555 1_555
Ag6A N17 1_555 1_555
Ag6_2 N21 1_555 1_555
C2 N9 1_555 1_555
C3 N9 1_555 1_555
C4 N10 1_555 1_555
C4 N11 1_555 1_555
C5 N10 1_555 1_555
C5 N12 1_555 1_555
C6 N11 1_555 1_555
C6 N12 1_555 1_555
C8 N8 1_555 1_555
C9 N8 1_555 1_555
C10 N6 1_555 1_555
C10 N7 1_555 1_555
C11 N5 1_555 1_555
C11 N6 1_555 1_555
C12 N5 1_555 1_555
C12 N7 1_555 1_555
C14 N1 1_555 1_555
C15 N1 1_555 1_555
C16 N3 1_555 1_555
C16 N4 1_555 1_555
C17 N2 1_555 1_555
C17 N4 1_555 1_555
C18 N2 1_555 1_555
C18 N3 1_555 1_555
C21 N15 1_555 1_555
C22 N16 1_555 1_555
C23 N14 1_555 1_555
C23 N15 1_555 1_555
C24 N19 1_555 1_555
C25 N13 1_555 1_555
C25 N14 1_555 1_555
C26 N19 1_555 1_555
C27 N18 1_555 1_555
C27 N20 1_555 1_555
C28 N17 1_555 1_555
C28 N18 1_555 1_555
C30 N21 1_555 1_555
C31 N21 1_555 1_555
C32 N22 1_555 1_555
C32 N24 1_555 1_555
C33 N23 1_555 1_555
C33 N24 1_555 1_555
C34 N22 1_555 1_555
C34 N23 1_555 1_555
C38 C41 1_555 1_555
C39 C40 1_555 1_555
C49 C96 1_555 1_555
C54 C57 1_555 1_555
C55 C56 1_555 1_555
C65 C66 1_555 1_555
C65 C67 1_555 1_555
C67 C68 1_555 1_555
C73 C74 1_555 1_555
C75 C76 1_555 1_555
C79 N17 1_555 1_555
C79 N20 1_555 1_555
C80 N13 1_555 1_555
C80 N16 1_555 1_555
C85 C89 1_555 1_555
C86 C87 1_555 1_555
C91 C92 1_555 1_555
N5 Ag1 1_555 1_555
N9 Ag3 1_555 1_555
N19 Ag4 1_555 1_555
N23 Ag5 1_555 1_555
O1 Ag6 1_555 1_555
O8 Ag3 1_555 1_555
O9 Ag2 1_555 1_555
O12 Ag1 1_555 1_555
O13 Ag5 1_555 1_555
O19 Ag4 1_555 1_555

#END
