
#######################################################################
#
#                 Cambridge Crystallographic Data Centre
#                                CCDC 
#
#######################################################################
#
# If this CIF has been generated from an entry in the Cambridge 
# Structural Database, then it will include bibliographic, chemical, 
# crystal, experimental, refinement or atomic coordinate data resulting 
# from the CCDC's data processing and validation procedures.
#
#######################################################################

data_WAGJAR
_symmetry_cell_setting           monoclinic
_symmetry_space_group_name_H-M   'P 21/c'
_symmetry_Int_Tables_number      14
_space_group_name_Hall           '-P 2ybc'
loop_
_symmetry_equiv_pos_site_id
_symmetry_equiv_pos_as_xyz
1 x,y,z
2 -x,1/2+y,1/2-z
3 -x,-y,-z
4 x,1/2-y,1/2+z
_cell_length_a                   16.0518(19)
_cell_length_b                   13.2540(16)
_cell_length_c                   17.011(2)
_cell_angle_alpha                90
_cell_angle_beta                 113.194(2)
_cell_angle_gamma                90
_cell_volume                     3326.59
loop_
_atom_site_label
_atom_site_type_symbol
_atom_site_fract_x
_atom_site_fract_y
_atom_site_fract_z
Zn1 Zn 1.02948(2) 1.18269(2) 0.51269(2)
Zn2 Zn 0.44116(2) 0.94100(2) 0.19721(2)
C1 C 0.63032(18) 1.0401(2) 0.41465(17)
C2 C 0.6085(2) 1.0233(2) 0.48488(18)
H1 H 0.5528 0.9911 0.4768
C3 C 0.6661(2) 1.0522(2) 0.56635(18)
H2 H 0.6509 1.0394 0.6140
C4 C 0.74600(19) 1.1002(2) 0.57695(17)
H3 H 0.7853 1.1216 0.6325
C5 C 0.77082(18) 1.11802(19) 0.50795(16)
C6 C 0.71260(18) 1.08711(18) 0.42500(16)
C7 C 0.73879(17) 1.10447(19) 0.34998(15)
C8 C 0.70980(18) 1.19115(19) 0.29925(16)
C9 C 0.74454(19) 1.2139(2) 0.23775(17)
H4 H 0.7281 1.2754 0.2068
C10 C 0.80255(19) 1.1480(2) 0.22127(17)
H5 H 0.8233 1.1621 0.1772
C11 C 0.82985(19) 1.0615(2) 0.26986(17)
H6 H 0.8694 1.0157 0.2588
C12 C 0.80032(17) 1.04032(19) 0.33484(16)
C13 C 0.56008(19) 1.0042(2) 0.33072(17)
C14 C 0.86298(18) 1.16669(18) 0.53128(16)
C15 C 0.63926(19) 1.2633(2) 0.30379(16)
C16 C 0.84339(18) 0.95343(19) 0.39300(17)
C17 C 1.1310(2) 1.2983(2) 0.68575(18)
H7 H 1.1233 1.2388 0.7133
C18 C 1.1761(2) 1.3802(2) 0.73542(19)
H8 H 1.1986 1.3760 0.7960
C19 C 1.1882(2) 1.4670(2) 0.69731(19)
H9 H 1.2200 1.5226 0.7310
C20 C 1.15291(18) 1.4722(2) 0.60772(18)
C21 C 1.1556(2) 1.5616(2) 0.56054(19)
H10 H 1.1849 1.6205 0.5906
C22 C 1.1173(2) 1.5628(2) 0.47451(19)
H11 H 1.1184 1.6233 0.4450
C23 C 1.07496(18) 1.4747(2) 0.42652(18)
C24 C 1.0337(2) 1.4716(2) 0.33664(18)
H12 H 1.0316 1.5306 0.3042
C25 C 0.9968(2) 1.3838(2) 0.29620(19)
H13 H 0.9701 1.3806 0.2355
C26 C 0.9990(2) 1.2987(2) 0.34521(18)
H14 H 0.9733 1.2377 0.3165
C27 C 1.07247(18) 1.3858(2) 0.47044(17)
C28 C 1.10999(18) 1.38549(19) 0.56244(17)
C29 C 0.4498(2) 0.8328(2) 0.03670(19)
H15 H 0.4731 0.7753 0.0720
C30 C 0.4401(2) 0.8287(2) -0.04860(19)
H16 H 0.4571 0.7697 -0.0704
C31 C 0.4058(2) 0.9105(2) -0.10055(19)
H17 H 0.4011 0.9098 -0.1580
C32 C 0.37772(19) 0.9957(2) -0.06814(18)
C33 C 0.3378(2) 1.0832(2) -0.11881(19)
H18 H 0.3272 1.0840 -0.1778
C34 C 0.3152(2) 1.1641(3) -0.0837(2)
H19 H 0.2883 1.2209 -0.1186
C35 C 0.3306(2) 1.1668(2) 0.0050(2)
C36 C 0.3150(2) 1.2520(2) 0.0473(2)
H20 H 0.2886 1.3111 0.0157
C37 C 0.3376(2) 1.2495(2) 0.1333(2)
H21 H 0.3284 1.3071 0.1622
C38 C 0.3746(2) 1.1614(2) 0.1786(2)
H22 H 0.3908 1.1606 0.2387
C39 C 0.36777(19) 1.0816(2) 0.05581(18)
C40 C 0.39076(18) 0.9937(2) 0.01809(18)
N1 N 1.09850(15) 1.30068(16) 0.60082(14)
N2 N 1.03514(16) 1.29904(17) 0.42994(15)
N3 N 0.42763(16) 0.91386(17) 0.07036(14)
N4 N 0.38794(16) 1.07875(17) 0.14129(15)
O1 O 0.58112(13) 0.97498(14) 0.26974(11)
O2 O 0.47904(14) 1.0003(2) 0.32398(13)
O3 O 0.89988(13) 1.20733(14) 0.60203(12)
O4 O 0.89936(13) 1.16043(15) 0.47658(12)
O5 O 0.56830(13) 1.23269(16) 0.30768(13)
O6 O 0.65730(14) 1.35696(14) 0.29831(13)
O7 O 0.92238(13) 0.92601(14) 0.39689(13)
O8 O 0.80677(14) 0.91224(14) 0.43632(13)
O9 O 1.03925(14) 1.08132(14) 0.41375(12)
H23 H 1.0036 1.0311 0.4037
H24 H 1.0897 1.0516 0.4394
Zn1B Zn 0.97052(2) 0.81731(2) 0.48731(2)
Zn2A Zn 0.55884(2) 1.44100(2) 0.30279(2)
O6A O 0.34270(14) 0.85696(14) 0.20169(13)
O7B O 1.07762(13) 1.07399(14) 0.60311(13)
loop_
_geom_bond_atom_site_label_1
_geom_bond_atom_site_label_2
_geom_bond_site_symmetry_1
_geom_bond_site_symmetry_2
Zn1 N1 1_555 1_555
Zn2 N3 1_555 1_555
C1 C2 1_555 1_555
C2 H1 1_555 1_555
C3 C2 1_555 1_555
H2 C3 1_555 1_555
C4 C3 1_555 1_555
H3 C4 1_555 1_555
C5 C4 1_555 1_555
C6 C1 1_555 1_555
C7 C6 1_555 1_555
C8 C7 1_555 1_555
C9 C8 1_555 1_555
H4 C9 1_555 1_555
C10 C9 1_555 1_555
H5 C10 1_555 1_555
C11 C10 1_555 1_555
H6 C11 1_555 1_555
C12 C7 1_555 1_555
C13 C1 1_555 1_555
C14 C5 1_555 1_555
C15 C8 1_555 1_555
C16 C12 1_555 1_555
C17 H7 1_555 1_555
C18 C17 1_555 1_555
H8 C18 1_555 1_555
C19 C18 1_555 1_555
H9 C19 1_555 1_555
C20 C19 1_555 1_555
C21 C20 1_555 1_555
H10 C21 1_555 1_555
C22 C21 1_555 1_555
H11 C22 1_555 1_555
C23 C22 1_555 1_555
C24 C23 1_555 1_555
H12 C24 1_555 1_555
C25 C24 1_555 1_555
H13 C25 1_555 1_555
C26 C25 1_555 1_555
H14 C26 1_555 1_555
C27 C23 1_555 1_555
C28 C20 1_555 1_555
C29 H15 1_555 1_555
C30 C29 1_555 1_555
H16 C30 1_555 1_555
C31 C30 1_555 1_555
H17 C31 1_555 1_555
C32 C31 1_555 1_555
C33 C32 1_555 1_555
H18 C33 1_555 1_555
C34 C33 1_555 1_555
H19 C34 1_555 1_555
C35 C34 1_555 1_555
C36 C35 1_555 1_555
H20 C36 1_555 1_555
C37 C36 1_555 1_555
H21 C37 1_555 1_555
C38 C37 1_555 1_555
H22 C38 1_555 1_555
C39 C35 1_555 1_555
C40 C32 1_555 1_555
N1 C17 1_555 1_555
N2 Zn1 1_555 1_555
N3 C29 1_555 1_555
N4 Zn2 1_555 1_555
O1 Zn2 1_555 1_555
O2 Zn2 1_555 1_555
O3 C14 1_555 1_555
O4 Zn1 1_555 1_555
O5 C15 1_555 1_555
O6 C15 1_555 1_555
O7 C16 1_555 1_555
O8 C16 1_555 1_555
O9 Zn1 1_555 1_555
H23 O9 1_555 1_555
H24 O9 1_555 1_555
Zn1B O7 1_555 1_555
Zn2A O6 1_555 1_555
O6A Zn2 1_555 1_555
O7B Zn1 1_555 1_555
C5 C6 1_555 1_555
C11 C12 1_555 1_555
C13 O1 1_555 1_555
C13 O2 1_555 1_555
C14 O4 1_555 1_555
C26 N2 1_555 1_555
C27 C28 1_555 1_555
C27 N2 1_555 1_555
C28 N1 1_555 1_555
C38 N4 1_555 1_555
C39 C40 1_555 1_555
C39 N4 1_555 1_555
C40 N3 1_555 1_555

#END
