
#######################################################################
#
#                 Cambridge Crystallographic Data Centre
#                                CCDC 
#
#######################################################################
#
# If this CIF has been generated from an entry in the Cambridge 
# Structural Database, then it will include bibliographic, chemical, 
# crystal, experimental, refinement or atomic coordinate data resulting 
# from the CCDC's data processing and validation procedures.
#
#######################################################################

data_WAGJEV
_symmetry_cell_setting           monoclinic
_symmetry_space_group_name_H-M   'P 21/c'
_symmetry_Int_Tables_number      14
_space_group_name_Hall           '-P 2ybc'
loop_
_symmetry_equiv_pos_site_id
_symmetry_equiv_pos_as_xyz
1 x,y,z
2 -x,1/2+y,1/2-z
3 -x,-y,-z
4 x,1/2-y,1/2+z
_cell_length_a                   18.622(9)
_cell_length_b                   10.582(5)
_cell_length_c                   15.479(7)
_cell_angle_alpha                90
_cell_angle_beta                 108.839(9)
_cell_angle_gamma                90
_cell_volume                     2886.86
loop_
_atom_site_label
_atom_site_type_symbol
_atom_site_fract_x
_atom_site_fract_y
_atom_site_fract_z
Zn1 Zn 0.543024(16) -0.20246(3) -0.02437(2)
Zn2 Zn 0.965120(17) 0.40316(3) 0.264060(19)
C1 C 0.71516(13) 0.0627(2) -0.02240(16)
C2 C 0.71404(15) 0.1133(2) -0.10604(17)
H1 H 0.6879 0.0713 -0.1598
C3 C 0.75138(17) 0.2252(3) -0.11005(18)
H2 H 0.7508 0.2581 -0.1660
C4 C 0.78977(15) 0.2875(2) -0.02941(17)
H3 H 0.8149 0.3628 -0.0316
C5 C 0.79109(13) 0.2391(2) 0.05446(16)
C6 C 0.75327(13) 0.1257(2) 0.05908(16)
C7 C 0.75093(13) 0.0731(2) 0.14818(16)
C8 C 0.68273(13) 0.0821(2) 0.16931(16)
C9 C 0.67701(14) 0.0267(2) 0.24861(17)
H4 H 0.6312 0.0301 0.2605
C10 C 0.73843(15) -0.0333(2) 0.30975(17)
H5 H 0.7343 -0.0696 0.3626
C11 C 0.80621(14) -0.0385(2) 0.29125(17)
H6 H 0.8482 -0.0760 0.3334
C12 C 0.81307(13) 0.0114(2) 0.21063(16)
C13 C 0.67662(15) -0.0627(2) -0.02317(18)
C14 C 0.83471(14) 0.3073(2) 0.14111(17)
C15 C 0.61458(14) 0.1550(2) 0.11013(17)
C16 C 0.88843(13) -0.0071(2) 0.19443(16)
C17 C 0.49191(18) -0.4335(3) -0.1788(2)
H7 H 0.4597 -0.3925 -0.2298
C18 C 0.50650(18) -0.5589(3) -0.1725(2)
H8 H 0.4865 -0.6192 -0.2177
C19 C 0.57033(14) -0.4683(2) -0.04414(19)
C20 C 0.61758(14) -0.4373(2) 0.04705(19)
C21 C 0.70072(19) -0.4320(3) 0.1833(2)
H9 H 0.7377 -0.4549 0.2376
C22 C 0.66795(19) -0.3165(3) 0.1616(2)
H10 H 0.6793 -0.2458 0.1993
C23 C 0.87913(16) 0.6422(3) 0.3196(2)
H11 H 0.8716 0.6986 0.2713
C24 C 0.85405(18) 0.6589(3) 0.3923(2)
H12 H 0.8267 0.7273 0.4029
C25 C 0.91451(14) 0.4791(3) 0.40636(17)
C26 C 0.94819(15) 0.3568(3) 0.43343(17)
C27 C 1.00352(19) 0.1821(3) 0.4202(2)
H13 H 1.0266 0.1185 0.3971
C28 C 0.99143(19) 0.1790(3) 0.5026(2)
H14 H 1.0042 0.1138 0.5452
N1 N 0.53230(13) -0.3759(2) -0.09786(16)
N2 N 0.61579(13) -0.3204(2) 0.07602(17)
N3 N 0.55616(15) -0.5802(2) -0.08737(18)
N4 N 0.66864(13) -0.5078(2) 0.10967(17)
N5 N 0.91708(12) 0.5296(2) 0.32853(14)
N6 N 0.97630(13) 0.2939(2) 0.37689(15)
N7 N 0.87717(14) 0.5549(3) 0.44672(18)
N8 N 0.95694(14) 0.2901(2) 0.51030(17)
O1 O 0.60633(11) -0.05682(18) -0.03293(16)
O2 O 0.71283(15) -0.1600(2) -0.0157(3)
O3 O 0.90362(11) 0.3356(2) 0.14739(13)
O4 O 0.80552(12) 0.3306(2) 0.19959(14)
O5 O 0.62228(10) 0.24489(17) 0.06219(13)
O6 O 0.55045(10) 0.11911(17) 0.11476(13)
O7 O 0.94106(10) -0.0566(2) 0.26078(12)
O8 O 0.89782(10) 0.02355(19) 0.12192(13)
O9 O 0.50331(11) -0.13155(18) 0.08619(14)
H15 H 0.5178 -0.0551 0.0951
H16 H 0.4610 -0.1601 0.0875
H19 H 0.870(2) 0.536(3) 0.497(2)
H20 H 0.938(2) 0.303(3) 0.549(3)
H21 H 0.575(2) -0.647(4) -0.066(3)
H22 H 0.6758(19) -0.584(3) 0.102(2)
Zn1B Zn 0.456976(16) 0.20246(3) 0.02437(2)
Zn2A Zn 1.034880(17) -0.09684(3) 0.235940(19)
O6B O 0.44955(10) -0.11911(17) -0.11476(13)
O7A O 1.05894(10) 0.4434(2) 0.23922(12)
O10 O 0.8136(3) -0.3591(6) 0.0565(4)
H17 H 0.7741 -0.4004 0.0550
H18 H 0.7956 -0.2846 0.0500
loop_
_geom_bond_atom_site_label_1
_geom_bond_atom_site_label_2
_geom_bond_site_symmetry_1
_geom_bond_site_symmetry_2
Zn1 N1 1_555 1_555
Zn2 N5 1_555 1_555
C1 C2 1_555 1_555
C2 H1 1_555 1_555
C3 C2 1_555 1_555
H2 C3 1_555 1_555
C4 C3 1_555 1_555
H3 C4 1_555 1_555
C5 C4 1_555 1_555
C6 C1 1_555 1_555
C7 C6 1_555 1_555
C8 C7 1_555 1_555
C9 C8 1_555 1_555
H4 C9 1_555 1_555
C10 C9 1_555 1_555
H5 C10 1_555 1_555
C11 C10 1_555 1_555
H6 C11 1_555 1_555
C12 C7 1_555 1_555
C13 C1 1_555 1_555
C14 C5 1_555 1_555
C15 C8 1_555 1_555
C16 C12 1_555 1_555
C17 H7 1_555 1_555
C18 C17 1_555 1_555
H8 C18 1_555 1_555
C19 C20 1_555 1_555
C20 N2 1_555 1_555
C21 H9 1_555 1_555
C22 C21 1_555 1_555
H10 C22 1_555 1_555
C23 H11 1_555 1_555
C24 C23 1_555 1_555
H12 C24 1_555 1_555
C25 C26 1_555 1_555
C26 N6 1_555 1_555
C27 H13 1_555 1_555
C28 C27 1_555 1_555
H14 C28 1_555 1_555
N1 C17 1_555 1_555
N2 Zn1 1_555 1_555
N3 C18 1_555 1_555
N4 C20 1_555 1_555
N5 C23 1_555 1_555
N6 Zn2 1_555 1_555
N7 C24 1_555 1_555
N8 C26 1_555 1_555
O1 Zn1 1_555 1_555
O2 C13 1_555 1_555
O3 Zn2 1_555 1_555
O4 C14 1_555 1_555
O5 C15 1_555 1_555
O6 C15 1_555 1_555
O7 C16 1_555 1_555
O8 C16 1_555 1_555
O9 Zn1 1_555 1_555
H15 O9 1_555 1_555
H16 O9 1_555 1_555
O10 H17 1_555 1_555
H18 O10 1_555 1_555
H19 N7 1_555 1_555
H20 N8 1_555 1_555
H21 N3 1_555 1_555
H22 N4 1_555 1_555
Zn1B O6 1_555 1_555
Zn2A O7 1_555 1_555
O6B Zn1 1_555 1_555
O7A Zn2 1_555 1_555
C5 C6 1_555 1_555
C11 C12 1_555 1_555
C13 O1 1_555 1_555
C14 O3 1_555 1_555
C19 N1 1_555 1_555
C19 N3 1_555 1_555
C21 N4 1_555 1_555
C22 N2 1_555 1_555
C25 N5 1_555 1_555
C25 N7 1_555 1_555
C27 N6 1_555 1_555
C28 N8 1_555 1_555

#END
