
#######################################################################
#
#                 Cambridge Crystallographic Data Centre
#                                CCDC 
#
#######################################################################
#
# If this CIF has been generated from an entry in the Cambridge 
# Structural Database, then it will include bibliographic, chemical, 
# crystal, experimental, refinement or atomic coordinate data resulting 
# from the CCDC's data processing and validation procedures.
#
#######################################################################

data_WAGJOD
_symmetry_cell_setting           monoclinic
_symmetry_space_group_name_H-M   'P 21/c'
_symmetry_Int_Tables_number      14
_space_group_name_Hall           '-P 2ybc'
loop_
_symmetry_equiv_pos_site_id
_symmetry_equiv_pos_as_xyz
1 x,y,z
2 -x,1/2+y,1/2-z
3 -x,-y,-z
4 x,1/2-y,1/2+z
_cell_length_a                   10.156(2)
_cell_length_b                   18.009(4)
_cell_length_c                   19.690(4)
_cell_angle_alpha                90
_cell_angle_beta                 96.65(1)
_cell_angle_gamma                90
_cell_volume                     3577.06
loop_
_atom_site_label
_atom_site_type_symbol
_atom_site_fract_x
_atom_site_fract_y
_atom_site_fract_z
Gd1 Gd 0.2112(1) 0.2166(1) 0.1814(1)
P1 P 0.4618(2) 0.2295(1) 0.3245(1)
O1 O 0.4021(4) 0.2002(2) 0.2578(2)
O2 O 0.5578(5) 0.2959(3) 0.3213(3)
O3 O 0.5420(4) 0.1701(3) 0.3686(2)
P2 P -0.0170(2) 0.1940(1) 0.5411(1)
O4 O 0.0660(4) 0.2159(2) 0.6047(2)
O5 O -0.1011(4) 0.1237(2) 0.5525(2)
O6 O -0.1153(4) 0.2532(3) 0.5096(2)
C1 C 0.3395(6) 0.2673(3) 0.3743(3)
C2 C 0.2584(6) 0.2063(3) 0.4035(3)
C3 C 0.1526(6) 0.2360(3) 0.4451(3)
C4 C 0.0755(7) 0.1727(4) 0.4720(3)
C5 C 0.2527(6) 0.3206(3) 0.3294(3)
O7 O 0.1832(4) 0.2944(2) 0.2774(2)
C6 C 0.1587(8) 0.4415(4) 0.3010(4)
C7 C 0.0257(9) 0.4497(5) 0.3214(6)
C8 C 0.3085(9) 0.4263(5) 0.4081(5)
C9 C 0.4362(11) 0.4605(6) 0.3991(7)
C10 C 0.6731(9) 0.2929(7) 0.2825(5)
C11 C 0.7919(10) 0.2830(7) 0.3297(7)
C12 C 0.6715(11) 0.3633(11) 0.2466(8)
C13 C 0.5250(8) 0.0888(4) 0.3622(4)
C14 C 0.5983(10) 0.0597(5) 0.3076(5)
C15 C 0.5726(11) 0.0595(5) 0.4319(5)
C16 C -0.0750(7) 0.0725(4) 0.6099(3)
C17 C -0.1970(8) 0.0250(4) 0.6092(4)
C18 C 0.0489(8) 0.0288(4) 0.6045(4)
C19 C -0.2063(7) 0.2940(4) 0.5499(4)
C20 C -0.2037(12) 0.3705(6) 0.5310(9)
C21 C -0.3374(10) 0.2653(7) 0.5329(8)
N1 N 0.2434(6) 0.3912(3) 0.3462(3)
N2 N 0.3708(7) 0.3180(4) 0.1114(4)
O8 O 0.3271(5) 0.3365(3) 0.1661(3)
O9 O 0.3543(5) 0.2510(4) 0.0948(3)
O10 O 0.4255(7) 0.3612(4) 0.0771(4)
N3 N 0.0082(7) 0.1420(4) 0.2490(4)
O11 O 0.1296(6) 0.1207(3) 0.2571(3)
O12 O -0.0184(5) 0.1945(3) 0.2084(3)
O13 O -0.0736(7) 0.1131(4) 0.2798(4)
N4 N 0.2317(8) 0.0825(4) 0.1044(4)
O14 O 0.3178(6) 0.0993(3) 0.1525(3)
O15 O 0.1363(6) 0.1267(3) 0.0917(3)
O16 O 0.2385(8) 0.0247(3) 0.0718(4)
H1 H 0.3827 0.2936 0.4131
H2 H 0.3175 0.1752 0.4326
H3 H 0.2160 0.1773 0.3663
H4 H 0.0929 0.2672 0.4165
H5 H 0.1940 0.2645 0.4829
H6 H 0.0143 0.1546 0.4349
H7 H 0.1375 0.1342 0.4871
H8 H 0.1519 0.4223 0.2552
H9 H 0.1999 0.4896 0.3023
H10 H -0.0248 0.4830 0.2904
H11 H 0.0310 0.4692 0.3670
H12 H -0.0170 0.4020 0.3199
H13 H 0.2507 0.4642 0.4218
H14 H 0.3223 0.3892 0.4433
H15 H 0.4726 0.4825 0.4416
H16 H 0.4242 0.4982 0.3645
H17 H 0.4958 0.4232 0.3859
H18 H 0.6702 0.2516 0.2516
H19 H 0.8667 0.2812 0.3041
H20 H 0.7863 0.2373 0.3544
H21 H 0.8022 0.3236 0.3615
H22 H 0.7456 0.3642 0.2204
H23 H 0.6771 0.4048 0.2774
H24 H 0.5906 0.3663 0.2162
H25 H 0.4350 0.0740 0.3487
H26 H 0.5860 0.0069 0.3041
H27 H 0.6910 0.0705 0.3183
O4C O 0.0660(4) 0.2841(2) 0.1047(2)
Gd1C Gd 0.2112(1) 0.2834(1) 0.6814(1)
loop_
_geom_bond_atom_site_label_1
_geom_bond_atom_site_label_2
_geom_bond_site_symmetry_1
_geom_bond_site_symmetry_2
Gd1 O1 1_555 1_555
P1 O1 1_555 1_555
O2 P1 1_555 1_555
O3 P1 1_555 1_555
P2 O4 1_555 1_555
O4 Gd1C 1_555 1_555
O5 P2 1_555 1_555
O6 P2 1_555 1_555
C1 P1 1_555 1_555
C2 C1 1_555 1_555
C3 C2 1_555 1_555
C4 P2 1_555 1_555
C5 C1 1_555 1_555
O7 Gd1 1_555 1_555
C6 C7 1_555 1_555
C7 H10 1_555 1_555
C8 C9 1_555 1_555
C9 H15 1_555 1_555
C10 O2 1_555 1_555
C11 C10 1_555 1_555
C12 C10 1_555 1_555
C13 O3 1_555 1_555
C14 C13 1_555 1_555
C15 C13 1_555 1_555
C16 O5 1_555 1_555
C17 C16 1_555 1_555
C18 C16 1_555 1_555
C19 O6 1_555 1_555
C20 C19 1_555 1_555
C21 C19 1_555 1_555
N1 C5 1_555 1_555
N2 O8 1_555 1_555
O8 Gd1 1_555 1_555
O9 Gd1 1_555 1_555
O10 N2 1_555 1_555
N3 O11 1_555 1_555
O11 Gd1 1_555 1_555
O12 Gd1 1_555 1_555
O13 N3 1_555 1_555
N4 O14 1_555 1_555
O14 Gd1 1_555 1_555
O15 Gd1 1_555 1_555
O16 N4 1_555 1_555
H1 C1 1_555 1_555
H2 C2 1_555 1_555
H3 C2 1_555 1_555
H4 C3 1_555 1_555
H5 C3 1_555 1_555
H6 C4 1_555 1_555
H7 C4 1_555 1_555
H8 C6 1_555 1_555
H9 C6 1_555 1_555
H11 C7 1_555 1_555
H12 C7 1_555 1_555
H13 C8 1_555 1_555
H14 C8 1_555 1_555
H16 C9 1_555 1_555
H17 C9 1_555 1_555
H18 C10 1_555 1_555
H19 C11 1_555 1_555
H20 C11 1_555 1_555
H21 C11 1_555 1_555
H22 C12 1_555 1_555
H23 C12 1_555 1_555
H24 C12 1_555 1_555
H25 C13 1_555 1_555
H26 C14 1_555 1_555
H27 C14 1_555 1_555
O4C Gd1 1_555 1_555
C3 C4 1_555 1_555
C5 O7 1_555 1_555
C6 N1 1_555 1_555
C8 N1 1_555 1_555
N2 O9 1_555 1_555
N3 O12 1_555 1_555
N4 O15 1_555 1_555

#END
