
#######################################################################
#
#                 Cambridge Crystallographic Data Centre
#                                CCDC 
#
#######################################################################
#
# If this CIF has been generated from an entry in the Cambridge 
# Structural Database, then it will include bibliographic, chemical, 
# crystal, experimental, refinement or atomic coordinate data resulting 
# from the CCDC's data processing and validation procedures.
#
#######################################################################

data_WAGVIL
_symmetry_cell_setting           monoclinic
_symmetry_space_group_name_H-M   'P 21/n'
_symmetry_Int_Tables_number      14
_space_group_name_Hall           '-P 2yn'
loop_
_symmetry_equiv_pos_site_id
_symmetry_equiv_pos_as_xyz
1 x,y,z
2 1/2-x,1/2+y,1/2-z
3 -x,-y,-z
4 1/2+x,1/2-y,1/2+z
_cell_length_a                   15.414(5)
_cell_length_b                   15.591(5)
_cell_length_c                   16.260(5)
_cell_angle_alpha                90
_cell_angle_beta                 117.953(5)
_cell_angle_gamma                90
_cell_volume                     3451.71
loop_
_atom_site_label
_atom_site_type_symbol
_atom_site_fract_x
_atom_site_fract_y
_atom_site_fract_z
O5 O 0.8407(9) 0.2800(5) 0.5906(8)
C1 C -0.0593(4) 0.0963(4) -0.4283(5)
H1 H -0.0771 0.1533 -0.4437
C2 C 0.0336(4) 0.0657(5) -0.3856(5)
H2 H 0.0906 0.0977 -0.3677
C3 C -0.0665(4) -0.0377(4) -0.4116(4)
H3 H -0.0907 -0.0929 -0.4142
C4 C 0.1099(4) -0.0777(4) -0.3250(4)
H4 H 0.1667 -0.0577 -0.3303
H5 H 0.0922 -0.1340 -0.3534
C5 C 0.1352(4) -0.0838(4) -0.2236(4)
C6 C 0.0891(4) -0.1437(4) -0.1944(5)
H6 H 0.0440 -0.1818 -0.2371
C7 C 0.1099(5) -0.1469(4) -0.1029(5)
H7 H 0.0780 -0.1869 -0.0842
C8 C 0.1774(5) -0.0920(4) -0.0380(4)
H8 H 0.1910 -0.0953 0.0241
C9 C 0.2244(4) -0.0324(4) -0.0655(4)
C10 C 0.2028(4) -0.0298(4) -0.1589(4)
H9 H 0.2351 0.0097 -0.1777
C11 C 0.2986(6) 0.0325(5) -0.0001(4)
H10 H 0.3576 0.0293 -0.0072
H11 H 0.2715 0.0897 -0.0183
C12 C 0.4008(4) -0.0256(4) 0.1616(4)
H12 H 0.4479 -0.0528 0.1503
C13 C 0.3195(5) 0.0201(4) 0.2295(4)
H13 H 0.3002 0.0305 0.2749
C14 C 0.2730(5) 0.0484(5) 0.1411(5)
H14 H 0.2161 0.0814 0.1145
C15 C 0.6782(3) 0.1331(3) 0.6227(3)
C16 C 0.7195(3) 0.1855(3) 0.7101(3)
C17 C 0.6608(4) 0.2463(3) 0.7206(3)
H15 H 0.5946 0.2491 0.6773
C18 C 0.6989(4) 0.3037(3) 0.7949(4)
H16 H 0.6575 0.3446 0.7994
C19 C 0.7950(3) 0.3017(3) 0.8613(3)
C20 C 0.8588(3) 0.2381(3) 0.8563(3)
C21 C 0.8201(4) 0.1783(3) 0.7797(3)
C22 C 0.8824(4) 0.1138(4) 0.7753(4)
H17 H 0.8573 0.0744 0.7267
C23 C 0.9785(5) 0.1081(5) 0.8410(5)
H18 H 1.0179 0.0639 0.8388
C24 C 1.0169(5) 0.1698(5) 0.9116(5)
H19 H 1.0836 0.1690 0.9535
C25 C 0.9589(4) 0.2313(4) 0.9203(4)
H20 H 0.9862 0.2696 0.9699
C26 C 0.8282(3) 0.3697(3) 0.9375(3)
C27 C 0.6745(3) -0.1192(3) 0.3396(3)
C28 C 0.7224(3) -0.1804(3) 0.3016(3)
C29 C 0.6886(4) -0.1815(3) 0.2080(3)
H21 H 0.6362 -0.1463 0.1703
C30 C 0.7309(4) -0.2347(3) 0.1669(3)
H22 H 0.7053 -0.2353 0.1025
C31 C 0.8099(3) -0.2861(3) 0.2210(3)
C32 C 0.8453(4) -0.3460(3) 0.1699(3)
C33 C 0.8481(3) -0.2857(3) 0.3196(3)
C34 C 0.9281(4) -0.3400(4) 0.3795(4)
H23 H 0.9578 -0.3756 0.3542
C35 C 0.9602(5) -0.3399(4) 0.4716(4)
H24 H 1.0141 -0.3737 0.5093
C36 C 0.9144(4) -0.2897(4) 0.5135(4)
H25 H 0.9361 -0.2920 0.5774
C37 C 0.8376(4) -0.2383(3) 0.4574(3)
H26 H 0.8070 -0.2054 0.4840
C38 C 0.8033(3) -0.2333(3) 0.3608(3)
O1 O 0.5913(2) 0.1034(2) 0.5894(2)
O2 O 0.7297(2) 0.1239(2) 0.5832(2)
O3 O 0.5622(2) 0.0386(2) 0.4206(2)
O4 O 0.5826(2) -0.1209(2) 0.3030(2)
O6 O 0.7296(3) -0.0696(2) 0.4023(2)
O7 O 0.7780(2) -0.3783(2) 0.0983(2)
O8 O 0.9345(3) -0.3580(3) 0.1982(3)
O9 O 0.9006(3) 0.3517(2) 1.0168(3)
O10 O 0.7779(3) 0.4349(2) 0.9207(2)
Co1 Co 0.50661(5) -0.07830(5) 0.36569(5)
Co2 Co 0.77522(5) 0.52767(4) 1.01015(5)
N1 N -0.1222(3) 0.0299(3) -0.4449(3)
N2 N 0.0288(3) -0.0190(3) -0.3736(3)
N3 N 0.3252(4) 0.0196(3) 0.0974(3)
N4 N 0.4002(3) -0.0267(3) 0.2417(3)
Ca1 Ca 0.5000 0.0000 0.5000
C1A C 0.5593(4) 0.5963(4) 0.9283(5)
H1A H 0.5771 0.6533 0.9437
C2A C 0.4664(4) 0.5657(5) 0.8856(5)
H2A H 0.4094 0.5977 0.8677
C3A C 0.5665(4) 0.4623(4) 0.9116(4)
H3A H 0.5907 0.4071 0.9142
C4A C 0.3901(4) 0.4223(4) 0.8250(4)
H4A H 0.3333 0.4423 0.8303
H5A H 0.4078 0.3660 0.8534
C5A C 0.3648(4) 0.4162(4) 0.7236(4)
C6A C 0.4109(4) 0.3563(4) 0.6944(5)
H6A H 0.4560 0.3182 0.7371
C7A C 0.3901(5) 0.3531(4) 0.6029(5)
H7A H 0.4220 0.3131 0.5842
C8A C 0.3226(5) 0.4080(4) 0.5380(4)
H8A H 0.3090 0.4047 0.4759
C9A C 0.2756(4) 0.4676(4) 0.5655(4)
C10A C 0.2972(4) 0.4702(4) 0.6589(4)
H9A H 0.2649 0.5097 0.6777
C11A C 0.2014(6) 0.5325(5) 0.5001(4)
H10A H 0.1424 0.5293 0.5072
H11A H 0.2285 0.5897 0.5183
C12A C 0.0992(4) 0.4744(4) 0.3384(4)
H12A H 0.0521 0.4472 0.3497
C13A C 0.1805(5) 0.5201(4) 0.2705(4)
H13A H 0.1998 0.5305 0.2251
C14A C 0.2270(5) 0.5484(5) 0.3589(5)
H14A H 0.2839 0.5814 0.3855
C15A C 0.8218(3) -0.3669(3) 0.8773(3)
C16A C 0.7805(3) -0.3145(3) 0.7899(3)
C17A C 0.8392(4) -0.2537(3) 0.7794(3)
H15A H 0.9054 -0.2509 0.8227
C18A C 0.8011(4) -0.1963(3) 0.7051(4)
H16A H 0.8425 -0.1554 0.7006
C19A C 0.7050(3) -0.1983(3) 0.6387(3)
C20A C 0.6412(3) -0.2619(3) 0.6437(3)
C21A C 0.6799(4) -0.3217(3) 0.7203(3)
C22A C 0.6176(4) -0.3862(4) 0.7247(4)
H17A H 0.6427 -0.4256 0.7733
C23A C 0.5215(5) -0.3919(5) 0.6590(5)
H18A H 0.4821 -0.4361 0.6612
C24A C 0.4831(5) -0.3302(5) 0.5884(5)
H19A H 0.4164 -0.3310 0.5465
C25A C 0.5411(4) -0.2687(4) 0.5797(4)
H20A H 0.5138 -0.2304 0.5301
C26A C 0.6718(3) -0.1303(3) 0.5625(3)
C27_2 C 0.6745(3) 0.8808(3) 1.3396(3)
C28_2 C 0.7224(3) 0.8196(3) 1.3016(3)
C29_2 C 0.6886(4) 0.8185(3) 1.2080(3)
H21_2 H 0.6362 0.8537 1.1703
C30_2 C 0.7309(4) 0.7653(3) 1.1669(3)
H22_2 H 0.7053 0.7647 1.1025
C31_2 C 0.8099(3) 0.7139(3) 1.2210(3)
C32_2 C 0.8453(4) 0.6540(3) 1.1699(3)
C33_2 C 0.8481(3) 0.7143(3) 1.3196(3)
C34_2 C 0.9281(4) 0.6600(4) 1.3795(4)
H23_2 H 0.9578 0.6244 1.3542
C35_2 C 0.9602(5) 0.6601(4) 1.4716(4)
H24_2 H 1.0141 0.6263 1.5093
C36_2 C 0.9144(4) 0.7103(4) 1.5135(4)
H25_2 H 0.9361 0.7080 1.5774
C37_2 C 0.8376(4) 0.7617(3) 1.4574(3)
H26_2 H 0.8070 0.7946 1.4840
C38_2 C 0.8033(3) 0.7667(3) 1.3608(3)
O1A O 0.9087(2) -0.3966(2) 0.9106(2)
O1B O 0.4087(2) -0.1034(2) 0.4106(2)
O2A O 0.7703(2) -0.3761(2) 0.9168(2)
O2A_2 O 0.7703(2) 0.6239(2) 0.9168(2)
O3B O 0.4378(2) -0.0386(2) 0.5794(2)
O3A O 0.9378(2) 0.5386(2) 1.0794(2)
O4_2 O 0.5826(2) 0.8791(2) 1.3030(2)
O4B O 0.4174(2) 0.1209(2) 0.6970(2)
O6_2 O 0.7296(3) 0.9304(2) 1.4023(2)
O6A O 0.7704(3) 0.4304(2) 1.0977(2)
O7_2 O 0.7780(2) 0.6217(2) 1.0983(2)
O7A O 0.7220(2) 0.1217(2) 0.4017(2)
O8_2 O 0.9345(3) 0.6420(3) 1.1982(3)
O9A O 0.5994(3) -0.1483(2) 0.4832(3)
O9C O 0.4006(3) 0.1483(2) 0.5168(3)
O10A O 0.7221(3) -0.0651(2) 0.5793(2)
Co1B Co 0.49339(5) 0.07830(5) 0.63431(5)
Co1A Co 0.99339(5) 0.42170(5) 1.13431(5)
Co1C Co 1.00661(5) -0.42170(5) 0.86569(5)
Co1_2 Co 0.50661(5) 0.92170(5) 1.36569(5)
Co1A_2 Co -0.00661(5) 0.42170(5) 0.13431(5)
Co2A Co 0.72478(5) 0.02767(4) 0.48985(5)
Co2_2 Co 0.77522(5) -0.47233(4) 0.01015(5)
Co2A_2 Co -0.27522(5) 0.02767(4) -0.51015(5)
Co2_3 Co 0.77522(5) -0.47233(4) 1.01015(5)
Co2C Co 0.27522(5) -0.02767(4) 0.51015(5)
Co2A_3 Co 0.72478(5) 1.02767(4) 1.48985(5)
N1A N 0.6222(3) 0.5299(3) 0.9449(3)
N1_2 N 0.8778(3) 0.0299(3) 0.5551(3)
N2A N 0.4712(3) 0.4810(3) 0.8736(3)
N3A N 0.1748(4) 0.5196(3) 0.4026(3)
N4A N 0.0998(3) 0.4733(3) 0.2583(3)
N4B N 0.5998(3) 0.0267(3) 0.7583(3)
Ca1A Ca 1.0000 0.5000 1.0000
Ca1A_2 Ca 1.0000 -0.5000 1.0000
loop_
_geom_bond_atom_site_label_1
_geom_bond_atom_site_label_2
_geom_bond_site_symmetry_1
_geom_bond_site_symmetry_2
C1 H1 1_555 1_555
C2 C1 1_555 1_555
H2 C2 1_555 1_555
C3 H3 1_555 1_555
C4 H4 1_555 1_555
H5 C4 1_555 1_555
C5 C4 1_555 1_555
C6 C5 1_555 1_555
H6 C6 1_555 1_555
C7 C6 1_555 1_555
H7 C7 1_555 1_555
C8 C7 1_555 1_555
H8 C8 1_555 1_555
C9 C8 1_555 1_555
C10 C5 1_555 1_555
H9 C10 1_555 1_555
C11 C9 1_555 1_555
H10 C11 1_555 1_555
H11 C11 1_555 1_555
C12 H12 1_555 1_555
C13 H13 1_555 1_555
C14 C13 1_555 1_555
H14 C14 1_555 1_555
C15 C16 1_555 1_555
C16 C17 1_555 1_555
C17 H15 1_555 1_555
C18 C17 1_555 1_555
H16 C18 1_555 1_555
C19 C18 1_555 1_555
C20 C19 1_555 1_555
C21 C16 1_555 1_555
C22 C21 1_555 1_555
H17 C22 1_555 1_555
C23 C22 1_555 1_555
H18 C23 1_555 1_555
C24 C23 1_555 1_555
H19 C24 1_555 1_555
C25 C20 1_555 1_555
H20 C25 1_555 1_555
C26 C19 1_555 1_555
C27 C28 1_555 1_555
C28 C29 1_555 1_555
C29 H21 1_555 1_555
C30 C29 1_555 1_555
H22 C30 1_555 1_555
C31 C30 1_555 1_555
C32 C31 1_555 1_555
C33 C31 1_555 1_555
C34 C33 1_555 1_555
H23 C34 1_555 1_555
C35 C34 1_555 1_555
H24 C35 1_555 1_555
C36 C35 1_555 1_555
H25 C36 1_555 1_555
C37 C36 1_555 1_555
H26 C37 1_555 1_555
C38 C28 1_555 1_555
O1 C15 1_555 1_555
O2 C15 1_555 1_555
O3 Co1 1_555 1_555
O4 C27 1_555 1_555
O6 C27 1_555 1_555
O7 C32 1_555 1_555
O8 C32 1_555 1_555
O9 C26 1_555 1_555
O10 C26 1_555 1_555
Co1 O4 1_555 1_555
Co2 O10 1_555 1_555
N1 C1 1_555 1_555
N2 C2 1_555 1_555
N3 C11 1_555 1_555
N4 C12 1_555 1_555
Ca1 O1 1_555 1_555
C1A H1A 1_555 1_555
C2A C1A 1_555 1_555
H2A C2A 1_555 1_555
C3A H3A 1_555 1_555
C4A H4A 1_555 1_555
H5A C4A 1_555 1_555
C5A C4A 1_555 1_555
C6A C5A 1_555 1_555
H6A C6A 1_555 1_555
C7A C6A 1_555 1_555
H7A C7A 1_555 1_555
C8A C7A 1_555 1_555
H8A C8A 1_555 1_555
C9A C8A 1_555 1_555
C10A C5A 1_555 1_555
H9A C10A 1_555 1_555
C11A C9A 1_555 1_555
H10A C11A 1_555 1_555
H11A C11A 1_555 1_555
C12A H12A 1_555 1_555
C13A H13A 1_555 1_555
C14A C13A 1_555 1_555
H14A C14A 1_555 1_555
C15A C16A 1_555 1_555
C16A C17A 1_555 1_555
C17A H15A 1_555 1_555
C18A C17A 1_555 1_555
H16A C18A 1_555 1_555
C19A C18A 1_555 1_555
C20A C19A 1_555 1_555
C21A C16A 1_555 1_555
C22A C21A 1_555 1_555
H17A C22A 1_555 1_555
C23A C22A 1_555 1_555
H18A C23A 1_555 1_555
C24A C23A 1_555 1_555
H19A C24A 1_555 1_555
C25A C20A 1_555 1_555
H20A C25A 1_555 1_555
C26A C19A 1_555 1_555
C27_2 C28_2 1_555 1_555
C28_2 C29_2 1_555 1_555
C29_2 H21_2 1_555 1_555
C30_2 C29_2 1_555 1_555
H22_2 C30_2 1_555 1_555
C31_2 C30_2 1_555 1_555
C32_2 C31_2 1_555 1_555
C33_2 C31_2 1_555 1_555
C34_2 C33_2 1_555 1_555
H23_2 C34_2 1_555 1_555
C35_2 C34_2 1_555 1_555
H24_2 C35_2 1_555 1_555
C36_2 C35_2 1_555 1_555
H25_2 C36_2 1_555 1_555
C37_2 C36_2 1_555 1_555
H26_2 C37_2 1_555 1_555
C38_2 C28_2 1_555 1_555
O1A C15A 1_555 1_555
O1B Co1 1_555 1_555
O2A C15A 1_555 1_555
O2A_2 Co2 1_555 1_555
O3B Ca1 1_555 1_555
O3A Co2 1_555 1_555
O4_2 C27_2 1_555 1_555
O4B Co1B 1_555 1_555
O6_2 C27_2 1_555 1_555
O6A Co2 1_555 1_555
O7_2 Co2 1_555 1_555
O7A Co2A 1_555 1_555
O8_2 C32_2 1_555 1_555
O9A Co1 1_555 1_555
O9C Ca1 1_555 1_555
O10A C26A 1_555 1_555
Co1B O1 1_555 1_555
Co1A O9 1_555 1_555
Co1C O1A 1_555 1_555
Co1_2 O4_2 1_555 1_555
Co1A_2 N4A 1_555 1_555
Co2A O2 1_555 1_555
Co2_2 O7 1_555 1_555
Co2A_2 N1 1_555 1_555
Co2_3 O2A 1_555 1_555
Co2C O3B 1_555 1_555
Co2A_3 O6_2 1_555 1_555
N1A Co2 1_555 1_555
N1_2 Co2A 1_555 1_555
N2A C2A 1_555 1_555
N3A C11A 1_555 1_555
N4A C12A 1_555 1_555
N4B Co1B 1_555 1_555
Ca1A O9 1_555 1_555
Ca1A_2 O1A 1_555 1_555
C3 N1 1_555 1_555
C3 N2 1_555 1_555
C4 N2 1_555 1_555
C9 C10 1_555 1_555
C12 N3 1_555 1_555
C13 N4 1_555 1_555
C14 N3 1_555 1_555
C20 C21 1_555 1_555
C24 C25 1_555 1_555
C33 C38 1_555 1_555
C37 C38 1_555 1_555
O3 Ca1 1_555 1_555
O3 Co2A 1_555 1_555
O6 Co2A 1_555 1_555
Co1 N4 1_555 1_555
Ca1 O1B 1_555 1_555
Ca1 O9A 1_555 1_555
C1A N1A 1_555 1_555
C3A N1A 1_555 1_555
C3A N2A 1_555 1_555
C4A N2A 1_555 1_555
C9A C10A 1_555 1_555
C12A N3A 1_555 1_555
C13A N4A 1_555 1_555
C14A N3A 1_555 1_555
C20A C21A 1_555 1_555
C24A C25A 1_555 1_555
C26A O9A 1_555 1_555
C32_2 O7_2 1_555 1_555
C33_2 C38_2 1_555 1_555
C37_2 C38_2 1_555 1_555
O3B Co1B 1_555 1_555
O3A Co1A 1_555 1_555
O3A Ca1A 1_555 1_555
O9C Co1B 1_555 1_555
O10A Co2A 1_555 1_555

#END
