
#######################################################################
#
#                 Cambridge Crystallographic Data Centre
#                                CCDC 
#
#######################################################################
#
# If this CIF has been generated from an entry in the Cambridge 
# Structural Database, then it will include bibliographic, chemical, 
# crystal, experimental, refinement or atomic coordinate data resulting 
# from the CCDC's data processing and validation procedures.
#
#######################################################################

data_WAGWOS
_symmetry_cell_setting           monoclinic
_symmetry_space_group_name_H-M   'P 21/c'
_symmetry_Int_Tables_number      14
_space_group_name_Hall           '-P 2ybc'
loop_
_symmetry_equiv_pos_site_id
_symmetry_equiv_pos_as_xyz
1 x,y,z
2 -x,1/2+y,1/2-z
3 -x,-y,-z
4 x,1/2-y,1/2+z
_cell_length_a                   8.0683(8)
_cell_length_b                   15.9656(16)
_cell_length_c                   14.4286(15)
_cell_angle_alpha                90
_cell_angle_beta                 101.8500(10)
_cell_angle_gamma                90
_cell_volume                     1819.01
loop_
_atom_site_label
_atom_site_type_symbol
_atom_site_fract_x
_atom_site_fract_y
_atom_site_fract_z
Zn1 Zn 0.53902(2) 0.878089(10) 0.970985(12)
C1 C 0.7871(2) 0.79611(12) 1.13123(13)
H1 H 0.6988 0.8033 1.1629
C2 C 0.9246(2) 0.74859(12) 1.17393(13)
H2 H 0.9281 0.7246 1.2330
C3 C 1.0569(2) 0.73711(10) 1.12766(11)
C4 C 1.0511(2) 0.77937(12) 1.04313(13)
H3 H 1.1420 0.7769 1.0126
C5 C 0.9074(2) 0.82536(12) 1.00490(13)
H4 H 0.9032 0.8527 0.9475
C6 C 1.1924(2) 0.67454(11) 1.16960(12)
C7 C 1.4608(3) 0.60665(14) 1.15997(14)
H5 H 1.4329 0.5722 1.2100
H6 H 1.5664 0.6354 1.1852
C8 C 1.4826(2) 0.55156(11) 1.07798(13)
C9 C 1.6137(3) 0.56133(13) 1.03053(16)
C10 C 1.6297(3) 0.51150(13) 0.95533(15)
C11 C 0.4281(2) 0.74088(10) 0.89144(12)
C12 C 0.3402(2) 0.66690(10) 0.83773(11)
C13 C 0.3974(2) 0.63722(10) 0.75917(11)
H7 H 0.4887 0.6632 0.7408
C14 C 0.3194(2) 0.56895(9) 0.70767(11)
C15 C 0.1794(2) 0.53164(11) 0.73396(13)
H8 H 0.1262 0.4863 0.6998
C16 C 0.1197(2) 0.56217(12) 0.81085(14)
H9 H 0.0249 0.5380 0.8274
C17 C 0.2013(2) 0.62890(11) 0.86344(13)
H10 H 0.1627 0.6481 0.9161
C18 C 0.3902(2) 0.53495(9) 0.62674(10)
F1 F 1.7303(2) 0.62113(10) 1.05786(16)
F2 F 1.7612(2) 0.52455(11) 0.91254(14)
N1 N 0.77484(17) 0.83221(9) 1.04663(10)
N2 N 1.3264(2) 0.66830(10) 1.12953(10)
H11 H 1.3344 0.7018 1.0840
O1 O 1.1686(2) 0.63062(9) 1.23613(11)
O2 O 0.40183(16) 0.75780(8) 0.97293(9)
O3 O 0.52186(17) 0.78651(8) 0.85411(9)
O4 O 0.50227(16) 0.57806(7) 0.59921(8)
O5 O 0.33806(15) 0.46464(7) 0.59416(9)
O6 O 0.29495(16) 0.92725(8) 0.90896(9)
H12 H 0.2609 0.9048 0.8574
H13 H 0.3081 0.9781 0.9135
Zn1B Zn 2.46098(2) 0.121911(10) 1.029015(12)
Zn1A Zn 0.46098(2) 0.378089(10) 0.529015(12)
Zn1A_2 Zn 2.46098(2) 0.378089(10) 1.529015(12)
Zn1C Zn 0.53902(2) 0.621911(10) 0.470985(12)
Zn1C_2 Zn 2.53902(2) 0.621911(10) 1.470985(12)
C1B C 2.2129(2) 0.20389(12) 0.86877(13)
H1B H 2.3012 0.1967 0.8371
C2B C 2.0754(2) 0.25141(12) 0.82607(13)
H2B H 2.0719 0.2754 0.7670
C3B C 1.9431(2) 0.26289(10) 0.87234(11)
C4B C 1.9489(2) 0.22063(12) 0.95687(13)
H3B H 1.8580 0.2231 0.9874
C5B C 2.0926(2) 0.17464(12) 0.99510(13)
H4B H 2.0968 0.1473 1.0525
C6B C 1.8076(2) 0.32546(11) 0.83040(12)
C7B C 1.5392(3) 0.39335(14) 0.84003(14)
H5B H 1.5671 0.4278 0.7900
H6B H 1.4336 0.3646 0.8148
C8B C 1.5174(2) 0.44844(11) 0.92202(13)
C9B C 1.3863(3) 0.43867(13) 0.96947(16)
C10B C 1.3703(3) 0.48850(13) 1.04467(15)
C11B C 2.5719(2) 0.25912(10) 1.10856(12)
C12B C 2.6598(2) 0.33310(10) 1.16227(11)
C13B C 2.6026(2) 0.36278(10) 1.24083(11)
H7B H 2.5113 0.3368 1.2592
C14B C 2.6806(2) 0.43105(9) 1.29233(11)
C15B C 2.8206(2) 0.46836(11) 1.26604(13)
H8B H 2.8738 0.5137 1.3002
C16B C 2.8803(2) 0.43783(12) 1.18915(14)
H9B H 2.9751 0.4620 1.1726
C17B C 2.7987(2) 0.37110(11) 1.13656(13)
H10B H 2.8373 0.3519 1.0839
C18B C 2.6098(2) 0.46505(9) 1.37326(10)
F1B F 1.2697(2) 0.37887(10) 0.94214(16)
F2B F 1.2388(2) 0.47545(11) 1.08746(14)
N1B N 2.22516(17) 0.16779(9) 0.95337(10)
N2B N 1.6736(2) 0.33170(10) 0.87047(10)
H11B H 1.6656 0.2982 0.9160
O1B O 1.8314(2) 0.36938(9) 0.76387(11)
O2B O 2.59817(16) 0.24220(8) 1.02707(9)
O3B O 2.47814(17) 0.21349(8) 1.14589(9)
O4B O 2.49773(16) 0.42194(7) 1.40079(8)
O4A O 2.49773(16) 0.07806(7) 0.90079(8)
O4C O 0.50227(16) 0.92194(7) 1.09921(8)
O5B O 2.66194(15) 0.53536(7) 1.40584(9)
O5A O 0.66194(15) 0.96464(7) 0.90584(9)
O5C O 2.33806(15) 0.03536(7) 1.09416(9)
O6B O 2.70505(16) 0.07275(8) 1.09104(9)
H12B H 2.7391 0.0952 1.1426
H13B H 2.6919 0.0219 1.0865
loop_
_geom_bond_atom_site_label_1
_geom_bond_atom_site_label_2
_geom_bond_site_symmetry_1
_geom_bond_site_symmetry_2
Zn1 N1 1_555 1_555
C1 H1 1_555 1_555
C2 C1 1_555 1_555
H2 C2 1_555 1_555
C3 C2 1_555 1_555
C4 C3 1_555 1_555
H3 C4 1_555 1_555
C5 C4 1_555 1_555
H4 C5 1_555 1_555
C6 C3 1_555 1_555
C7 H5 1_555 1_555
H6 C7 1_555 1_555
C8 C7 1_555 1_555
C9 C8 1_555 1_555
C10 C9 1_555 1_555
C11 C12 1_555 1_555
C12 C13 1_555 1_555
C13 H7 1_555 1_555
C14 C13 1_555 1_555
C15 C14 1_555 1_555
H8 C15 1_555 1_555
C16 C15 1_555 1_555
H9 C16 1_555 1_555
C17 C12 1_555 1_555
H10 C17 1_555 1_555
C18 C14 1_555 1_555
F1 C9 1_555 1_555
F2 C10 1_555 1_555
N1 C1 1_555 1_555
N2 C6 1_555 1_555
H11 N2 1_555 1_555
O1 C6 1_555 1_555
O2 Zn1 1_555 1_555
O3 Zn1 1_555 1_555
O4 C18 1_555 1_555
O5 C18 1_555 1_555
O6 Zn1 1_555 1_555
H12 O6 1_555 1_555
H13 O6 1_555 1_555
Zn1B N1B 1_555 1_555
Zn1A O5 1_555 1_555
Zn1A_2 O4B 1_555 1_555
Zn1C O4 1_555 1_555
Zn1C_2 O5B 1_555 1_555
C1B H1B 1_555 1_555
C2B C1B 1_555 1_555
H2B C2B 1_555 1_555
C3B C2B 1_555 1_555
C4B C3B 1_555 1_555
H3B C4B 1_555 1_555
C5B C4B 1_555 1_555
H4B C5B 1_555 1_555
C6B C3B 1_555 1_555
C7B H5B 1_555 1_555
H6B C7B 1_555 1_555
C8B C10 1_555 1_555
C9B C8B 1_555 1_555
C10B C8 1_555 1_555
C11B C12B 1_555 1_555
C12B C13B 1_555 1_555
C13B H7B 1_555 1_555
C14B C13B 1_555 1_555
C15B C14B 1_555 1_555
H8B C15B 1_555 1_555
C16B C15B 1_555 1_555
H9B C16B 1_555 1_555
C17B C12B 1_555 1_555
H10B C17B 1_555 1_555
C18B C14B 1_555 1_555
F1B C9B 1_555 1_555
F2B C10B 1_555 1_555
N1B C1B 1_555 1_555
N2B C6B 1_555 1_555
H11B N2B 1_555 1_555
O1B C6B 1_555 1_555
O2B Zn1B 1_555 1_555
O3B Zn1B 1_555 1_555
O4B C18B 1_555 1_555
O4A Zn1B 1_555 1_555
O4C Zn1 1_555 1_555
O5B C18B 1_555 1_555
O5A Zn1 1_555 1_555
O5C Zn1B 1_555 1_555
O6B Zn1B 1_555 1_555
H12B O6B 1_555 1_555
H13B O6B 1_555 1_555
C5 N1 1_555 1_555
C7 N2 1_555 1_555
C11 O2 1_555 1_555
C11 O3 1_555 1_555
C16 C17 1_555 1_555
C5B N1B 1_555 1_555
C7B C8B 1_555 1_555
C7B N2B 1_555 1_555
C9B C10B 1_555 1_555
C11B O2B 1_555 1_555
C11B O3B 1_555 1_555
C16B C17B 1_555 1_555

#END
