
#######################################################################
#
#                 Cambridge Crystallographic Data Centre
#                                CCDC 
#
#######################################################################
#
# If this CIF has been generated from an entry in the Cambridge 
# Structural Database, then it will include bibliographic, chemical, 
# crystal, experimental, refinement or atomic coordinate data resulting 
# from the CCDC's data processing and validation procedures.
#
#######################################################################

data_WAGWUY
_symmetry_cell_setting           monoclinic
_symmetry_space_group_name_H-M   'P 21/c'
_symmetry_Int_Tables_number      14
_space_group_name_Hall           '-P 2ybc'
loop_
_symmetry_equiv_pos_site_id
_symmetry_equiv_pos_as_xyz
1 x,y,z
2 -x,1/2+y,1/2-z
3 -x,-y,-z
4 x,1/2-y,1/2+z
_cell_length_a                   8.2753(9)
_cell_length_b                   16.4858(18)
_cell_length_c                   14.4799(16)
_cell_angle_alpha                90
_cell_angle_beta                 106.4530(10)
_cell_angle_gamma                90
_cell_volume                     1894.53
loop_
_atom_site_label
_atom_site_type_symbol
_atom_site_fract_x
_atom_site_fract_y
_atom_site_fract_z
C1 C 0.1743(4) 0.2961(2) 0.3767(3)
H1 H 0.2570 0.2986 0.3446
C2 C 0.0367(4) 0.2472(2) 0.3394(3)
H2 H 0.0280 0.2178 0.2834
C3 C -0.0887(4) 0.2417(2) 0.3849(2)
C4 C -0.0727(5) 0.2894(2) 0.4659(3)
H3 H -0.1566 0.2895 0.4971
C5 C 0.0694(4) 0.3368(2) 0.4997(3)
H4 H 0.0791 0.3679 0.5545
C6 C -0.2281(4) 0.1815(2) 0.3443(2)
C7 C -0.4922(5) 0.1227(2) 0.3522(3)
H5 H -0.4821 0.0953 0.2948
H6 H -0.5971 0.1528 0.3350
C8 C -0.4983(4) 0.0589(2) 0.4285(3)
C9 C -0.6172(4) 0.0602(2) 0.4785(3)
C10 C -0.6173(5) 0.0028(2) 0.5480(3)
C11 C 0.5334(4) 0.2503(2) 0.6138(2)
C12 C 0.6169(4) 0.1778(2) 0.6690(2)
C13 C 0.5614(4) 0.1451(2) 0.7430(2)
H7 H 0.4688 0.1679 0.7577
C14 C 0.6425(4) 0.07882(19) 0.7953(2)
C15 C 0.7838(4) 0.0462(2) 0.7741(3)
H8 H 0.8393 0.0022 0.8094
C16 C 0.8424(5) 0.0786(2) 0.7013(3)
C17 C 0.7580(4) 0.1433(2) 0.6488(3)
H9 H 0.7954 0.1644 0.5989
C18 C 0.5818(4) 0.0424(2) 0.8740(2)
C19 C 0.9971(5) 0.0445(2) 0.6794(3)
H10 H 0.9899 0.0540 0.6130
H11 H 1.0037 -0.0128 0.6918
H12 H 1.0959 0.0705 0.7196
F1 F -0.7326(3) 0.11923(13) 0.46360(15)
F2 F -0.7339(3) 0.00792(13) 0.59608(15)
N1 N 0.1953(4) 0.34026(17) 0.4570(2)
N2 N -0.3575(4) 0.17715(18) 0.3841(2)
H13 H -0.3572 0.2092 0.4310
O1 O -0.2172(3) 0.13674(16) 0.27874(19)
O2 O 0.5626(3) 0.26836(15) 0.53432(18)
O3 O 0.4419(3) 0.29458(16) 0.64791(18)
O4 O 0.4638(3) 0.07873(15) 0.89793(16)
O5 O 0.6480(3) -0.02342(15) 0.90962(19)
O6 O 0.6987(3) 0.42224(17) 0.59801(18)
H14 H 0.7114 0.4710 0.5822
H15 H 0.7175 0.4192 0.6587
Zn1 Zn 0.44113(5) 0.38385(3) 0.52803(3)
C1B C -1.1743(4) -0.2961(2) 0.6233(3)
H1B H -1.2570 -0.2986 0.6554
C2B C -1.0367(4) -0.2472(2) 0.6606(3)
H2B H -1.0280 -0.2178 0.7166
C3B C -0.9113(4) -0.2417(2) 0.6151(2)
C4B C -0.9273(5) -0.2894(2) 0.5341(3)
H3B H -0.8434 -0.2895 0.5029
C5B C -1.0694(4) -0.3368(2) 0.5003(3)
H4B H -1.0791 -0.3679 0.4455
C6B C -0.7719(4) -0.1815(2) 0.6557(2)
C7B C -0.5078(5) -0.1227(2) 0.6478(3)
H5B H -0.5179 -0.0953 0.7052
H6B H -0.4029 -0.1528 0.6650
C8B C -0.5017(4) -0.0589(2) 0.5715(3)
C9B C -0.3828(4) -0.0602(2) 0.5215(3)
C10B C -0.3827(5) -0.0028(2) 0.4520(3)
C11B C -1.5334(4) -0.2503(2) 0.3862(2)
C12B C -1.6169(4) -0.1778(2) 0.3310(2)
C13B C -1.5614(4) -0.1451(2) 0.2570(2)
H7B H -1.4688 -0.1679 0.2423
C14B C -1.6425(4) -0.07882(19) 0.2047(2)
C15B C -1.7838(4) -0.0462(2) 0.2259(3)
H8B H -1.8393 -0.0022 0.1906
C16B C -1.8424(5) -0.0786(2) 0.2987(3)
C17B C -1.7580(4) -0.1433(2) 0.3512(3)
H9B H -1.7954 -0.1644 0.4011
C18B C -1.5818(4) -0.0424(2) 0.1260(2)
C19B C -1.9971(5) -0.0445(2) 0.3206(3)
H10B H -1.9899 -0.0540 0.3870
H11B H -2.0037 0.0128 0.3082
H12B H -2.0959 -0.0705 0.2804
F1B F -0.2674(3) -0.11923(13) 0.53640(15)
F2B F -0.2661(3) -0.00792(13) 0.40392(15)
N1B N -1.1953(4) -0.34026(17) 0.5430(2)
N2B N -0.6425(4) -0.17715(18) 0.6159(2)
H13B H -0.6428 -0.2092 0.5690
O1B O -0.7828(3) -0.13674(16) 0.72126(19)
O2B O -1.5626(3) -0.26836(15) 0.46568(18)
O3B O -1.4419(3) -0.29458(16) 0.35209(18)
O4B O -1.4638(3) -0.07873(15) 0.10207(16)
O4A O -1.4638(3) -0.42127(15) 0.60207(16)
O4C O 0.4638(3) 0.42127(15) 0.39793(16)
O5B O -1.6480(3) 0.02342(15) 0.09038(19)
O5A O 0.3520(3) 0.47658(15) 0.59038(19)
O5C O -1.3520(3) -0.47658(15) 0.40962(19)
O6B O -1.6987(3) -0.42224(17) 0.40199(18)
H14B H -1.7114 -0.4710 0.4178
H15B H -1.7175 -0.4192 0.3413
Zn1B Zn -1.44113(5) -0.38385(3) 0.47197(3)
Zn1A Zn -1.44113(5) -0.11615(3) -0.02803(3)
Zn1A_2 Zn 0.55887(5) -0.11615(3) 0.97197(3)
Zn1C Zn -1.55887(5) 0.11615(3) 0.02803(3)
Zn1C_2 Zn 0.44113(5) 0.11615(3) 1.02803(3)
loop_
_geom_bond_atom_site_label_1
_geom_bond_atom_site_label_2
_geom_bond_site_symmetry_1
_geom_bond_site_symmetry_2
C1 H1 1_555 1_555
C2 C1 1_555 1_555
H2 C2 1_555 1_555
C3 C2 1_555 1_555
C4 C3 1_555 1_555
H3 C4 1_555 1_555
C5 C4 1_555 1_555
H4 C5 1_555 1_555
C6 C3 1_555 1_555
C7 H5 1_555 1_555
H6 C7 1_555 1_555
C8 C7 1_555 1_555
C9 C8 1_555 1_555
C10 C9 1_555 1_555
C11 C12 1_555 1_555
C12 C13 1_555 1_555
C13 H7 1_555 1_555
C14 C13 1_555 1_555
C15 C14 1_555 1_555
H8 C15 1_555 1_555
C16 C15 1_555 1_555
C17 C12 1_555 1_555
H9 C17 1_555 1_555
C18 C14 1_555 1_555
C19 C16 1_555 1_555
H10 C19 1_555 1_555
H11 C19 1_555 1_555
H12 C19 1_555 1_555
F1 C9 1_555 1_555
F2 C10 1_555 1_555
N1 C1 1_555 1_555
N2 C6 1_555 1_555
H13 N2 1_555 1_555
O1 C6 1_555 1_555
O2 C11 1_555 1_555
O3 C11 1_555 1_555
O4 C18 1_555 1_555
O5 C18 1_555 1_555
O6 H14 1_555 1_555
H15 O6 1_555 1_555
Zn1 N1 1_555 1_555
C1B H1B 1_555 1_555
C2B C1B 1_555 1_555
H2B C2B 1_555 1_555
C3B C2B 1_555 1_555
C4B C3B 1_555 1_555
H3B C4B 1_555 1_555
C5B C4B 1_555 1_555
H4B C5B 1_555 1_555
C6B C3B 1_555 1_555
C7B H5B 1_555 1_555
H6B C7B 1_555 1_555
C8B C10 1_555 1_555
C9B C8B 1_555 1_555
C10B C8 1_555 1_555
C11B C12B 1_555 1_555
C12B C13B 1_555 1_555
C13B H7B 1_555 1_555
C14B C13B 1_555 1_555
C15B C14B 1_555 1_555
H8B C15B 1_555 1_555
C16B C15B 1_555 1_555
C17B C12B 1_555 1_555
H9B C17B 1_555 1_555
C18B C14B 1_555 1_555
C19B C16B 1_555 1_555
H10B C19B 1_555 1_555
H11B C19B 1_555 1_555
H12B C19B 1_555 1_555
F1B C9B 1_555 1_555
F2B C10B 1_555 1_555
N1B C1B 1_555 1_555
N2B C6B 1_555 1_555
H13B N2B 1_555 1_555
O1B C6B 1_555 1_555
O2B C11B 1_555 1_555
O3B C11B 1_555 1_555
O4B C18B 1_555 1_555
O4A Zn1B 1_555 1_555
O4C Zn1 1_555 1_555
O5B C18B 1_555 1_555
O5A Zn1 1_555 1_555
O5C Zn1B 1_555 1_555
O6B H14B 1_555 1_555
H15B O6B 1_555 1_555
Zn1B N1B 1_555 1_555
Zn1A O4B 1_555 1_555
Zn1A_2 O5 1_555 1_555
Zn1C O5B 1_555 1_555
Zn1C_2 O4 1_555 1_555
C5 N1 1_555 1_555
C7 N2 1_555 1_555
C16 C17 1_555 1_555
O2 Zn1 1_555 1_555
O3 Zn1 1_555 1_555
O6 Zn1 1_555 1_555
C5B N1B 1_555 1_555
C7B C8B 1_555 1_555
C7B N2B 1_555 1_555
C9B C10B 1_555 1_555
C16B C17B 1_555 1_555
O2B Zn1B 1_555 1_555
O3B Zn1B 1_555 1_555
O6B Zn1B 1_555 1_555

#END
