
#######################################################################
#
#                 Cambridge Crystallographic Data Centre
#                                CCDC 
#
#######################################################################
#
# If this CIF has been generated from an entry in the Cambridge 
# Structural Database, then it will include bibliographic, chemical, 
# crystal, experimental, refinement or atomic coordinate data resulting 
# from the CCDC's data processing and validation procedures.
#
#######################################################################

data_WAGXEH
_symmetry_cell_setting           orthorhombic
_symmetry_space_group_name_H-M   'P b c n'
_symmetry_Int_Tables_number      60
_space_group_name_Hall           '-P 2n 2ab'
loop_
_symmetry_equiv_pos_site_id
_symmetry_equiv_pos_as_xyz
1 x,y,z
2 1/2-x,1/2-y,1/2+z
3 1/2+x,1/2-y,-z
4 -x,y,1/2-z
5 -x,-y,-z
6 1/2+x,1/2+y,1/2-z
7 1/2-x,1/2+y,z
8 x,-y,1/2+z
_cell_length_a                   4.969(6)
_cell_length_b                   12.357(4)
_cell_length_c                   15.787(5)
_cell_angle_alpha                90
_cell_angle_beta                 90
_cell_angle_gamma                90
_cell_volume                     969.352
loop_
_atom_site_label
_atom_site_type_symbol
_atom_site_fract_x
_atom_site_fract_y
_atom_site_fract_z
O1 O 0.9739(3) 0.4393(1) 0.4230(1)
H1 H 1.1219(7) 0.4509(7) 0.3974(7)
H2 H 0.8381(7) 0.4491(7) 0.4034(7)
Li1 Li 0.9443(4) 0.2831(2) 0.4511(2)
O2 O 1.1830(2) 0.2087(1) 0.3743(1)
O3 O 1.5790(2) 0.2385(1) 0.4343(1)
C1 C 1.4323(3) 0.2230(1) 0.3706(1)
C2 C 1.5664(3) 0.2216(1) 0.2860(1)
H3 H 1.7536(7) 0.2205(7) 0.2870(6)
C2C C 1.4336(3) 0.2216(1) 0.2140(1)
C1C C 1.5677(3) 0.2230(1) 0.1294(1)
O2C O 1.8170(2) 0.2087(1) 0.1257(1)
O3C O 1.4210(2) 0.2385(1) 0.0657(1)
H3C H 1.2464(7) 0.2205(7) 0.2130(6)
Li1C Li 2.0557(4) 0.2831(2) 0.0489(2)
O1C O 2.0261(3) 0.4393(1) 0.0770(1)
H1C H 1.8781(7) 0.4509(7) 0.1026(7)
H2C H 2.1619(7) 0.4491(7) 0.0966(7)
O3_2 O 0.5790(2) 0.2385(1) 0.4343(1)
O3B O 1.0790(2) 0.2615(1) 0.5657(1)
Li1_2 Li 1.9443(4) 0.2831(2) 0.4511(2)
Li1B Li 1.4443(4) 0.2169(2) 0.5489(2)
Li1A Li 1.5557(4) 0.2169(2) -0.0489(2)
Li1C_2 Li 1.0557(4) 0.2831(2) 0.0489(2)
O3A O 1.9210(2) 0.2615(1) -0.0657(1)
O3C_2 O 2.4210(2) 0.2385(1) 0.0657(1)
O4 O 0.4753(3) 0.4975(1) 0.3399(1)
H4 H 0.4289(7) 0.5649(7) 0.3505(7)
H5 H 0.6496(7) 0.4964(7) 0.3570(7)
loop_
_geom_bond_atom_site_label_1
_geom_bond_atom_site_label_2
_geom_bond_site_symmetry_1
_geom_bond_site_symmetry_2
O1 H1 1_555 1_555
H2 O1 1_555 1_555
Li1 O1 1_555 1_555
O2 Li1 1_555 1_555
O3 C1 1_555 1_555
C1 O2 1_555 1_555
C2 C1 1_555 1_555
H3 C2 1_555 1_555
O4 H4 1_555 1_555
H5 O4 1_555 1_555
C2C C2 1_555 1_555
C1C C2C 1_555 1_555
O2C C1C 1_555 1_555
O3C C1C 1_555 1_555
H3C C2C 1_555 1_555
Li1C O2C 1_555 1_555
O1C Li1C 1_555 1_555
H1C O1C 1_555 1_555
H2C O1C 1_555 1_555
O3_2 Li1 1_555 1_555
O3B Li1 1_555 1_555
Li1_2 O3 1_555 1_555
Li1B O3 1_555 1_555
Li1A O3C 1_555 1_555
Li1C_2 O3C 1_555 1_555
O3A Li1C 1_555 1_555
O3C_2 Li1C 1_555 1_555
O3B Li1B 1_555 1_555
Li1A O3A 1_555 1_555

#END
