
#######################################################################
#
#                 Cambridge Crystallographic Data Centre
#                                CCDC 
#
#######################################################################
#
# If this CIF has been generated from an entry in the Cambridge 
# Structural Database, then it will include bibliographic, chemical, 
# crystal, experimental, refinement or atomic coordinate data resulting 
# from the CCDC's data processing and validation procedures.
#
#######################################################################

data_WAGXAD
_symmetry_cell_setting           monoclinic
_symmetry_space_group_name_H-M   'C 2/c'
_symmetry_Int_Tables_number      15
_space_group_name_Hall           '-C 2yn'
loop_
_symmetry_equiv_pos_site_id
_symmetry_equiv_pos_as_xyz
1 x,y,z
2 1/2+x,1/2+y,z
3 -x,y,1/2-z
4 1/2-x,1/2+y,1/2-z
5 -x,-y,-z
6 1/2-x,1/2-y,-z
7 x,-y,1/2+z
8 1/2+x,1/2-y,1/2+z
_cell_length_a                   24.22(6)
_cell_length_b                   5.064(1)
_cell_length_c                   21.65(6)
_cell_angle_alpha                90
_cell_angle_beta                 158.97
_cell_angle_gamma                90
_cell_volume                     952.899
loop_
_atom_site_label
_atom_site_type_symbol
_atom_site_fract_x
_atom_site_fract_y
_atom_site_fract_z
O1 O 0.1850(2) 0.0399(3) 0.7245(2)
O2 O 0.0579(2) -0.3355(2) 0.6082(2)
C1 C 0.0853(2) -0.0940(4) 0.6491(3)
C2 C -0.0039(2) 0.0360(4) 0.6052(3)
C3 C -0.0929(3) -0.0875(4) 0.5519(3)
C4 C -0.1827(3) 0.0356(6) 0.5088(3)
Li1 Li 0.1503(4) 0.3968(6) 0.6537(4)
H1 H 0.0137(10) 0.2196(13) 0.6265(10)
H2 H -0.0978(10) -0.2585(13) 0.5431(10)
H3 H -0.1416(10) -0.0363(13) 0.5916(10)
H4 H -0.2871(10) -0.0115(13) 0.3966(10)
H5 H -0.1717(10) 0.2441(13) 0.5203(11)
Li1C Li 0.3497(4) -0.1032(6) 0.8463(4)
Li1_2 Li 0.1503(4) -0.6032(6) 0.6537(4)
Li1D Li -0.1503(4) -0.3968(6) 0.3463(4)
O1C O 0.3150(2) 0.5399(3) 0.7755(2)
O2_2 O 0.0579(2) 0.6645(2) 0.6082(2)
O2D O -0.0579(2) 0.3355(2) 0.3918(2)
loop_
_geom_bond_atom_site_label_1
_geom_bond_atom_site_label_2
_geom_bond_site_symmetry_1
_geom_bond_site_symmetry_2
O1 C1 1_555 1_555
O2 C1 1_555 1_555
C1 C2 1_555 1_555
C2 C3 1_555 1_555
C3 C4 1_555 1_555
C4 H3 1_555 1_555
Li1 O1 1_555 1_555
H1 C2 1_555 1_555
H2 C3 1_555 1_555
H4 C4 1_555 1_555
H5 C4 1_555 1_555
Li1C O1 1_555 1_555
Li1_2 O2 1_555 1_555
Li1D O2 1_555 1_555
O1C Li1 1_555 1_555
O2_2 Li1 1_555 1_555
O2D Li1 1_555 1_555

#END
