
#######################################################################
#
#                 Cambridge Crystallographic Data Centre
#                                CCDC 
#
#######################################################################
#
# If this CIF has been generated from an entry in the Cambridge 
# Structural Database, then it will include bibliographic, chemical, 
# crystal, experimental, refinement or atomic coordinate data resulting 
# from the CCDC's data processing and validation procedures.
#
#######################################################################

data_WAGXAF
_symmetry_cell_setting           monoclinic
_symmetry_space_group_name_H-M   'P 21/c'
_symmetry_Int_Tables_number      14
_space_group_name_Hall           '-P 2ybc'
loop_
_symmetry_equiv_pos_site_id
_symmetry_equiv_pos_as_xyz
1 x,y,z
2 -x,1/2+y,1/2-z
3 -x,-y,-z
4 x,1/2-y,1/2+z
_cell_length_a                   16.511(4)
_cell_length_b                   11.031(3)
_cell_length_c                   16.949(4)
_cell_angle_alpha                90
_cell_angle_beta                 112.683(3)
_cell_angle_gamma                90
_cell_volume                     2848.2
loop_
_atom_site_label
_atom_site_type_symbol
_atom_site_fract_x
_atom_site_fract_y
_atom_site_fract_z
Zn1 Zn 0.672471(14) 0.420511(18) 0.776518(13)
C1 C 0.74961(15) 0.59513(18) 0.69140(13)
H1 H 0.7239 0.5442 0.6446
C2 C 0.79301(15) 0.69748(19) 0.68189(13)
H2 H 0.7951 0.7159 0.6292
C3 C 0.83340(13) 0.77241(17) 0.75155(13)
C4 C 0.82618(15) 0.74321(19) 0.82759(14)
H3 H 0.8516 0.7924 0.8754
C5 C 0.78086(14) 0.64024(19) 0.83206(13)
H4 H 0.7764 0.6214 0.8837
C6 C 0.88563(15) 0.88430(18) 0.74951(14)
C7 C 0.97806(13) 0.98043(18) 0.68651(14)
H5 H 1.0246 0.9432 0.6733
H6 H 1.0045 1.0157 0.7432
C8 C 0.93689(12) 1.08051(16) 0.62270(13)
C9 C 0.91689(13) 1.06325(17) 0.53659(13)
C10 C 0.89035(13) 1.15674(18) 0.47877(12)
C11 C 0.88244(12) 1.27395(17) 0.50344(12)
C12 C 0.89741(13) 1.28980(17) 0.58885(13)
C13 C 0.92287(13) 1.19615(18) 0.64656(12)
C14 C 0.85850(13) 1.37777(18) 0.44042(13)
H7 H 0.8919 1.4491 0.4679
H8 H 0.8742 1.3569 0.3925
C15 C 0.73318(13) 1.50219(17) 0.43391(12)
C16 C 0.63532(13) 1.51574(17) 0.39157(11)
C17 C 0.57798(14) 1.41789(17) 0.36790(13)
H9 H 0.5988 1.3391 0.3813
C18 C 0.48965(14) 1.43982(17) 0.32418(13)
H10 H 0.4514 1.3741 0.3084
C19 C 0.51220(13) 1.64555(17) 0.32835(13)
H11 H 0.4897 1.7236 0.3153
C20 C 0.60092(14) 1.63142(18) 0.37225(14)
H12 H 0.6375 1.6988 0.3888
C21 C 0.64376(13) 0.49627(16) 0.91655(12)
C22 C 0.64140(13) 0.48844(16) 1.00444(12)
C23 C 0.66912(13) 0.38466(17) 1.05373(12)
H13 H 0.6916 0.3199 1.0334
C24 C 0.66355(13) 0.37684(17) 1.13336(12)
C25 C 0.63116(17) 0.47351(19) 1.16386(13)
H14 H 0.6276 0.4699 1.2173
C26 C 0.6043(2) 0.57513(19) 1.11382(15)
C27 C 0.60805(17) 0.58537(18) 1.03473(14)
H15 H 0.5888 0.6553 1.0022
C28 C 0.68582(14) 0.25904(18) 1.18117(13)
F1 F 0.92510(9) 0.95075(11) 0.50908(8)
F2 F 0.87368(9) 1.13307(12) 0.39587(8)
F3 F 0.93657(10) 1.21913(12) 0.72883(8)
F4 F 0.88773(10) 1.40139(11) 0.61713(8)
F5 F 0.57146(16) 0.66977(14) 1.14381(11)
N1 N 0.74307(10) 0.56629(13) 0.76537(10)
N2 N 0.91645(11) 0.88695(15) 0.68754(11)
H16 H 0.9133 0.8234 0.6571
N3 N 0.76546(11) 1.40554(14) 0.40907(10)
H17 H 0.7336 1.3571 0.3696
N4 N 0.45643(10) 1.55158(14) 0.30336(10)
O1 O 0.89971(14) 0.96356(16) 0.80340(13)
O2 O 0.77727(10) 1.57901(13) 0.48460(11)
O3 O 0.68078(10) 0.40714(12) 0.89470(8)
O4 O 0.61189(11) 0.58472(12) 0.87111(9)
O5 O 0.69958(15) 0.16836(14) 1.14658(12)
O6 O 0.68310(9) 0.25537(12) 1.25580(8)
Zn1B Zn 0.327529(14) 1.579489(18) 0.223482(13)
Zn1A Zn 0.327529(14) 1.920511(18) -0.276518(13)
Zn1C Zn 0.672471(14) 0.079489(18) 1.276518(13)
C1B C 0.25039(15) 1.40487(18) 0.30860(13)
H1B H 0.2761 1.4558 0.3554
C2B C 0.20699(15) 1.30252(19) 0.31811(13)
H2B H 0.2049 1.2841 0.3708
C3B C 0.16660(13) 1.22759(17) 0.24845(13)
C4B C 0.17382(15) 1.25679(19) 0.17241(14)
H3B H 0.1484 1.2076 0.1246
C5B C 0.21914(14) 1.35976(19) 0.16794(13)
H4B H 0.2236 1.3786 0.1163
C6B C 0.11437(15) 1.11570(18) 0.25049(14)
C7B C 0.02194(13) 1.01957(18) 0.31349(14)
H5B H -0.0246 1.0568 0.3267
H6B H -0.0045 0.9843 0.2568
C8B C 0.06311(12) 0.91949(16) 0.37730(13)
C9B C 0.08311(13) 0.93675(17) 0.46341(13)
C10B C 0.10965(13) 0.84326(18) 0.52123(12)
C11B C 0.11756(12) 0.72605(17) 0.49656(12)
C12B C 0.10259(13) 0.71020(17) 0.41115(13)
C13B C 0.07713(13) 0.80385(18) 0.35344(12)
C14B C 0.14150(13) 0.62223(18) 0.55958(13)
H7B H 0.1081 0.5509 0.5321
H8B H 0.1258 0.6431 0.6075
C15B C 0.26682(13) 0.49781(17) 0.56609(12)
C16B C 0.36468(13) 0.48426(17) 0.60843(11)
C17B C 0.42202(14) 0.58211(17) 0.63210(13)
H9B H 0.4012 0.6609 0.6187
C18B C 0.51035(14) 0.56018(17) 0.67582(13)
H10B H 0.5486 0.6259 0.6916
C19B C 0.48780(13) 0.35445(17) 0.67165(13)
H11B H 0.5103 0.2764 0.6847
C20B C 0.39908(14) 0.36858(18) 0.62775(14)
H12B H 0.3625 0.3012 0.6112
C21B C 0.35624(13) 1.50373(16) 0.08345(12)
C22B C 0.35860(13) 1.51156(16) -0.00444(12)
C23B C 0.33088(13) 1.61534(17) -0.05373(12)
H13B H 0.3084 1.6801 -0.0334
C24B C 0.33645(13) 1.62316(17) -0.13336(12)
C25B C 0.36884(17) 1.52649(19) -0.16386(13)
H14B H 0.3724 1.5301 -0.2173
C26B C 0.3957(2) 1.42487(19) -0.11382(15)
C27B C 0.39195(17) 1.41463(18) -0.03473(14)
H15B H 0.4112 1.3447 -0.0022
C28B C 0.31418(14) 1.74096(18) -0.18117(13)
F1B F 0.07490(9) 1.04925(11) 0.49092(8)
F2B F 0.12632(9) 0.86693(12) 0.60413(8)
F3B F 0.06343(10) 0.78087(12) 0.27117(8)
F4B F 0.11227(10) 0.59861(11) 0.38287(8)
F5B F 0.42854(16) 1.33023(14) -0.14381(11)
N1B N 0.25693(10) 1.43371(13) 0.23463(10)
N2B N 0.08355(11) 1.11305(15) 0.31246(11)
H16B H 0.0867 1.1766 0.3429
N3B N 0.23454(11) 0.59446(14) 0.59093(10)
H17B H 0.2664 0.6429 0.6304
N4B N 0.54357(10) 0.44842(14) 0.69664(10)
O1B O 0.10029(14) 1.03644(16) 0.19660(13)
O2B O 0.22273(10) 0.42099(13) 0.51540(11)
O3B O 0.31922(10) 1.59286(12) 0.10530(8)
O4B O 0.38811(11) 1.41528(12) 0.12889(9)
O5B O 0.30042(15) 1.83164(14) -0.14658(12)
O6B O 0.31690(9) 1.74463(12) -0.25580(8)
O6A O 0.31690(9) 1.75537(12) 0.24420(8)
O6C O 0.68310(9) 0.24463(12) 0.75580(8)
O7 O 0.05604(12) 0.17058(16) 0.90995(11)
H18 H 0.1057 0.1492 0.9412
H19 H 0.0184 0.1210 0.8834
loop_
_geom_bond_atom_site_label_1
_geom_bond_atom_site_label_2
_geom_bond_site_symmetry_1
_geom_bond_site_symmetry_2
Zn1 N1 1_555 1_555
C1 H1 1_555 1_555
C2 C1 1_555 1_555
H2 C2 1_555 1_555
C3 C2 1_555 1_555
C4 C3 1_555 1_555
H3 C4 1_555 1_555
C5 C4 1_555 1_555
H4 C5 1_555 1_555
C6 C3 1_555 1_555
C7 H5 1_555 1_555
H6 C7 1_555 1_555
C8 C7 1_555 1_555
C9 C8 1_555 1_555
C10 C9 1_555 1_555
C11 C10 1_555 1_555
C12 C11 1_555 1_555
C13 C8 1_555 1_555
C14 C11 1_555 1_555
H7 C14 1_555 1_555
H8 C14 1_555 1_555
C15 C16 1_555 1_555
C16 C17 1_555 1_555
C17 H9 1_555 1_555
C18 C17 1_555 1_555
H10 C18 1_555 1_555
C19 H11 1_555 1_555
C20 C16 1_555 1_555
H12 C20 1_555 1_555
C21 C22 1_555 1_555
C22 C23 1_555 1_555
C23 H13 1_555 1_555
C24 C23 1_555 1_555
C25 C24 1_555 1_555
H14 C25 1_555 1_555
C26 C25 1_555 1_555
C27 C22 1_555 1_555
H15 C27 1_555 1_555
C28 C24 1_555 1_555
F1 C9 1_555 1_555
F2 C10 1_555 1_555
F3 C13 1_555 1_555
F4 C12 1_555 1_555
F5 C26 1_555 1_555
N1 C1 1_555 1_555
N2 C6 1_555 1_555
H16 N2 1_555 1_555
N3 C14 1_555 1_555
H17 N3 1_555 1_555
N4 C18 1_555 1_555
O1 C6 1_555 1_555
O2 C15 1_555 1_555
O3 Zn1 1_555 1_555
O4 C21 1_555 1_555
O5 C28 1_555 1_555
O6 C28 1_555 1_555
O7 H18 1_555 1_555
H19 O7 1_555 1_555
Zn1B N4 1_555 1_555
Zn1A O6B 1_555 1_555
Zn1C O6 1_555 1_555
C1B H1B 1_555 1_555
C2B C1B 1_555 1_555
H2B C2B 1_555 1_555
C3B C2B 1_555 1_555
C4B C3B 1_555 1_555
H3B C4B 1_555 1_555
C5B C4B 1_555 1_555
H4B C5B 1_555 1_555
C6B C3B 1_555 1_555
C7B H5B 1_555 1_555
H6B C7B 1_555 1_555
C8B C7B 1_555 1_555
C9B C8B 1_555 1_555
C10B C9B 1_555 1_555
C11B C10B 1_555 1_555
C12B C11B 1_555 1_555
C13B C8B 1_555 1_555
C14B C11B 1_555 1_555
H7B C14B 1_555 1_555
H8B C14B 1_555 1_555
C15B C16B 1_555 1_555
C16B C17B 1_555 1_555
C17B H9B 1_555 1_555
C18B C17B 1_555 1_555
H10B C18B 1_555 1_555
C19B H11B 1_555 1_555
C20B C16B 1_555 1_555
H12B C20B 1_555 1_555
C21B C22B 1_555 1_555
C22B C23B 1_555 1_555
C23B H13B 1_555 1_555
C24B C23B 1_555 1_555
C25B C24B 1_555 1_555
H14B C25B 1_555 1_555
C26B C25B 1_555 1_555
C27B C22B 1_555 1_555
H15B C27B 1_555 1_555
C28B C24B 1_555 1_555
F1B C9B 1_555 1_555
F2B C10B 1_555 1_555
F3B C13B 1_555 1_555
F4B C12B 1_555 1_555
F5B C26B 1_555 1_555
N1B Zn1B 1_555 1_555
N2B C6B 1_555 1_555
H16B N2B 1_555 1_555
N3B C14B 1_555 1_555
H17B N3B 1_555 1_555
N4B Zn1 1_555 1_555
O1B C6B 1_555 1_555
O2B C15B 1_555 1_555
O3B Zn1B 1_555 1_555
O4B C21B 1_555 1_555
O5B C28B 1_555 1_555
O6B C28B 1_555 1_555
O6A Zn1B 1_555 1_555
O6C Zn1 1_555 1_555
C5 N1 1_555 1_555
C7 N2 1_555 1_555
C12 C13 1_555 1_555
C15 N3 1_555 1_555
C19 C20 1_555 1_555
C19 N4 1_555 1_555
C21 O3 1_555 1_555
C26 C27 1_555 1_555
C1B N1B 1_555 1_555
C5B N1B 1_555 1_555
C7B N2B 1_555 1_555
C12B C13B 1_555 1_555
C15B N3B 1_555 1_555
C18B N4B 1_555 1_555
C19B C20B 1_555 1_555
C19B N4B 1_555 1_555
C21B O3B 1_555 1_555
C26B C27B 1_555 1_555

#END
