
#######################################################################
#
#                 Cambridge Crystallographic Data Centre
#                                CCDC 
#
#######################################################################
#
# If this CIF has been generated from an entry in the Cambridge 
# Structural Database, then it will include bibliographic, chemical, 
# crystal, experimental, refinement or atomic coordinate data resulting 
# from the CCDC's data processing and validation procedures.
#
#######################################################################

data_WAHGET
_symmetry_cell_setting           orthorhombic
_symmetry_space_group_name_H-M   'P b n 21'
_symmetry_Int_Tables_number      33
_space_group_name_Hall           'P 2c -2ab'
loop_
_symmetry_equiv_pos_site_id
_symmetry_equiv_pos_as_xyz
1 x,y,z
2 -x,-y,1/2+z
3 1/2-x,1/2+y,z
4 1/2+x,1/2-y,1/2+z
_cell_length_a                   9.668(4)
_cell_length_b                   15.027(4)
_cell_length_c                   15.928(3)
_cell_angle_alpha                90
_cell_angle_beta                 90
_cell_angle_gamma                90
_cell_volume                     2314.04
loop_
_atom_site_label
_atom_site_type_symbol
_atom_site_fract_x
_atom_site_fract_y
_atom_site_fract_z
Gd1 Gd -0.250394(15) 0.362759(9) 0.0000
N1 N -0.1197(3) 0.4016(2) 0.1353(2)
N2 N -0.3762(3) 0.4918(2) 0.0759(2)
N3 N -0.4290(3) 0.4495(2) -0.0855(2)
N4 N -0.1865(3) 0.35205(19) -0.1577(2)
Na1 Na 0.04732(17) 0.63015(10) -0.05466(12)
O1 O -0.0443(2) 0.28291(17) 0.01610(16)
O2 O 0.1677(3) 0.2707(3) 0.0676(2)
O3 O -0.3500(3) 0.29081(19) 0.11590(16)
O4 O -0.3788(4) 0.2850(3) 0.2532(2)
O5 O -0.3549(3) 0.24270(17) -0.06623(16)
O6 O -0.3869(3) 0.15095(18) -0.1732(2)
O7 O -0.0917(3) 0.47209(16) -0.04608(16)
O8 O 0.1050(2) 0.49307(18) -0.1161(2)
O9 O 0.2521(3) 0.7002(4) -0.0895(3)
O10 O 0.0813(3) 0.6732(2) 0.0881(2)
C1 C 0.0524(4) 0.3066(3) 0.0641(3)
C2 C 0.0292(4) 0.3882(3) 0.1192(3)
H1 H 0.0774 0.3805 0.1721
H2 H 0.0669 0.4404 0.0916
C3 C -0.3091(5) 0.3017(3) 0.1915(3)
C4 C -0.1655(5) 0.3410(3) 0.2039(3)
H3 H -0.1643 0.3737 0.2564
H4 H -0.0995 0.2927 0.2087
C5 C -0.0035(3) 0.4531(2) -0.1049(2)
C6 C -0.0370(4) 0.3747(3) -0.1616(3)
H5 H -0.0121 0.3893 -0.2190
H6 H 0.0172 0.3235 -0.1445
C7 C -0.3280(3) 0.2143(2) -0.1404(2)
C8 C -0.2139(5) 0.2612(3) -0.1889(3)
H7 H -0.1297 0.2263 -0.1848
H8 H -0.2397 0.2643 -0.2477
C9 C -0.1518(4) 0.4952(3) 0.1553(3)
H9 H -0.1095 0.5336 0.1137
H10 H -0.1126 0.5100 0.2096
C10 C -0.3051(5) 0.5120(3) 0.1571(3)
H11 H -0.3460 0.4758 0.2010
H12 H -0.3211 0.5739 0.1713
C11 C -0.2672(4) 0.4207(4) -0.2045(3)
H13 H -0.2649 0.4069 -0.2639
H14 H -0.2239 0.4783 -0.1966
C12 C -0.4147(4) 0.4256(3) -0.1761(3)
H15 H -0.4629 0.4696 -0.2097
H16 H -0.4586 0.3685 -0.1857
C13 C -0.3642(5) 0.5700(3) 0.0186(3)
H17 H -0.2703 0.5926 0.0205
H18 H -0.4254 0.6169 0.0380
C14 C -0.4015(5) 0.5460(3) -0.0735(3)
H19 H -0.4828 0.5795 -0.0901
H20 H -0.3259 0.5637 -0.1099
C15 C -0.5265(4) 0.4746(4) 0.0953(3)
H21 H -0.5347 0.4167 0.1218
H22 H -0.5582 0.5188 0.1353
C16 C -0.6185(4) 0.4770(4) 0.0202(3)
H23 H -0.6313 0.5388 0.0044
H24 H -0.7083 0.4542 0.0367
C17 C -0.5717(4) 0.4260(4) -0.0574(3)
H25 H -0.5752 0.3628 -0.0454
H26 H -0.6359 0.4379 -0.1028
Na1B Na -0.54732(17) 0.13015(10) -0.05466(12)
O5B O -0.1451(3) 0.74270(17) -0.06623(16)
O6B O -0.1131(3) 0.65095(18) -0.1732(2)
loop_
_geom_bond_atom_site_label_1
_geom_bond_atom_site_label_2
_geom_bond_site_symmetry_1
_geom_bond_site_symmetry_2
Gd1 N1 1_555 1_555
N1 C2 1_555 1_555
N2 Gd1 1_555 1_555
N3 Gd1 1_555 1_555
N4 Gd1 1_555 1_555
Na1 O7 1_555 1_555
O1 Gd1 1_555 1_555
O2 C1 1_555 1_555
O3 Gd1 1_555 1_555
O4 C3 1_555 1_555
O5 Gd1 1_555 1_555
O6 C7 1_555 1_555
O7 Gd1 1_555 1_555
O8 Na1 1_555 1_555
O9 Na1 1_555 1_555
O10 Na1 1_555 1_555
C1 O1 1_555 1_555
C2 C1 1_555 1_555
H1 C2 1_555 1_555
H2 C2 1_555 1_555
C3 O3 1_555 1_555
C4 N1 1_555 1_555
H3 C4 1_555 1_555
H4 C4 1_555 1_555
C5 O7 1_555 1_555
C6 N4 1_555 1_555
H5 C6 1_555 1_555
H6 C6 1_555 1_555
C7 O5 1_555 1_555
C8 N4 1_555 1_555
H7 C8 1_555 1_555
H8 C8 1_555 1_555
C9 N1 1_555 1_555
H9 C9 1_555 1_555
H10 C9 1_555 1_555
C10 N2 1_555 1_555
H11 C10 1_555 1_555
H12 C10 1_555 1_555
C11 N4 1_555 1_555
H13 C11 1_555 1_555
H14 C11 1_555 1_555
C12 N3 1_555 1_555
H15 C12 1_555 1_555
H16 C12 1_555 1_555
C13 N2 1_555 1_555
H17 C13 1_555 1_555
H18 C13 1_555 1_555
C14 N3 1_555 1_555
H19 C14 1_555 1_555
H20 C14 1_555 1_555
C15 N2 1_555 1_555
H21 C15 1_555 1_555
H22 C15 1_555 1_555
C16 C15 1_555 1_555
H23 C16 1_555 1_555
H24 C16 1_555 1_555
C17 N3 1_555 1_555
H25 C17 1_555 1_555
H26 C17 1_555 1_555
Na1B O5 1_555 1_555
O5B Na1 1_555 1_555
O6B Na1 1_555 1_555
O6 Na1B 1_555 1_555
O8 C5 1_555 1_555
C3 C4 1_555 1_555
C5 C6 1_555 1_555
C7 C8 1_555 1_555
C9 C10 1_555 1_555
C11 C12 1_555 1_555
C13 C14 1_555 1_555
C16 C17 1_555 1_555

#END
