
#######################################################################
#
#                 Cambridge Crystallographic Data Centre
#                                CCDC 
#
#######################################################################
#
# If this CIF has been generated from an entry in the Cambridge 
# Structural Database, then it will include bibliographic, chemical, 
# crystal, experimental, refinement or atomic coordinate data resulting 
# from the CCDC's data processing and validation procedures.
#
#######################################################################

data_WAHMOI01
_symmetry_cell_setting           monoclinic
_symmetry_space_group_name_H-M   'P 21/c'
_symmetry_Int_Tables_number      14
_space_group_name_Hall           '-P 2ybc'
loop_
_symmetry_equiv_pos_site_id
_symmetry_equiv_pos_as_xyz
1 x,y,z
2 x,1/2-y,1/2+z
3 -x,-y,-z
4 -x,1/2+y,1/2-z
_cell_length_a                   15.8890(5)
_cell_length_b                   13.1450(4)
_cell_length_c                   24.6820(7)
_cell_angle_alpha                90
_cell_angle_beta                 127.4320(10)
_cell_angle_gamma                90
_cell_volume                     4093.54
loop_
_atom_site_label
_atom_site_type_symbol
_atom_site_fract_x
_atom_site_fract_y
_atom_site_fract_z
Au1 Au 0.64320(4) 0.27275(4) 0.11413(3)
Au2 Au 1.11978(4) 0.24694(4) 0.09854(3)
Au3 Au 0.44931(4) 0.22885(4) -0.03559(3)
Au4 Au 0.06582(4) 0.74082(4) 0.05657(3)
Fe1 Fe 0.82844(13) 0.00791(11) 0.06109(10)
Fe2 Fe 0.35878(13) 0.50841(11) 0.08822(10)
N1 N 0.4873(8) 0.4098(7) 0.1185(6)
C1 C 0.5222(9) 0.3217(8) -0.0597(6)
N2 N 0.8951(8) -0.0636(7) 0.1631(6)
C2 C 0.5491(10) 0.3604(9) 0.1224(7)
C3 C 0.1708(10) 0.6548(9) 0.0590(7)
N3 N 0.7860(10) 0.0268(12) -0.2212(7)
N4 N 0.3119(8) 0.0849(7) -0.0187(6)
N5 N 0.4455(8) 0.5598(7) 0.1967(6)
C4 C 0.9625(9) -0.1680(8) 0.0529(7)
C5 C 0.3676(10) 0.1378(9) -0.0204(8)
N6 N 0.2667(9) 0.4663(7) -0.0222(6)
C6 C 1.0232(13) -0.1697(13) 0.2556(9)
H1 H 1.0918 -0.1956 0.2829
N7 N 0.2343(8) 0.6086(7) 0.0637(6)
C7 C 0.8512(11) -0.1530(10) 0.2261(7)
N8 N 0.7479(8) 0.0659(7) -0.0450(6)
N9 N 0.2769(8) 0.3913(7) 0.0991(6)
C8 C 1.0237(10) 0.1535(9) 0.1000(7)
C9 C 0.7296(9) 0.1811(9) 0.1016(7)
C10 C 0.4102(10) 0.5405(8) 0.2323(8)
H2 H 0.3490 0.5017 0.2121
C11 C 0.9498(13) -0.1960(11) 0.2674(9)
H3 H 0.9676 -0.2411 0.3019
C12 C 0.4594(11) 0.5749(9) 0.2972(8)
C13 C 0.8270(10) -0.0870(9) 0.1766(7)
H4 H 0.7605 -0.0565 0.1506
C14 C 0.7779(11) 0.0439(9) -0.0850(8)
H5 H 0.8386 0.0051 -0.0668
C15 C 0.7217(10) 0.0772(9) -0.1513(7)
C16 C 0.1608(13) 0.4491(10) -0.0607(9)
H6 H 0.1272 0.4518 -0.0403
C17 C 0.5867(12) 0.6544(10) 0.2908(9)
H7 H 0.6458 0.6955 0.3086
N10 N 0.9040(8) -0.1120(7) 0.0475(5)
N11 N 0.5640(8) 0.3767(7) -0.0711(6)
N12 N 0.7688(8) 0.1277(7) 0.0879(6)
C18 C 0.5524(11) 0.6351(9) 0.3286(8)
H8 H 0.5879 0.6601 0.3727
C19 C 0.5353(9) 0.6141(9) 0.2273(8)
H9 H 0.5636 0.6246 0.2040
C20 C 0.5966(12) 0.1507(9) -0.1425(8)
H10 H 0.5333 0.1853 -0.1616
N13 N 0.9644(8) 0.0991(7) 0.0967(6)
C21 C 0.6305(12) 0.1302(10) -0.1793(8)
H11 H 0.5916 0.1524 -0.2243
C22 C 0.6572(11) 0.1195(9) -0.0761(8)
H12 H 0.6343 0.1365 -0.0504
C23 C 0.3116(13) 0.4656(10) -0.0544(9)
H13 H 0.3838 0.4786 -0.0292
C24 C 0.7586(12) 0.0497(12) -0.1900(9)
C25 C 0.1027(15) 0.4278(11) -0.1286(10)
N14 N 0.7007(12) -0.2012(12) 0.2339(8)
C26 C 0.2224(11) 0.3393(9) 0.1009(8)
C27 C 0.9911(11) -0.1046(10) 0.2027(9)
H14 H 1.0391 -0.0884 0.1942
C28 C 0.4239(11) 0.5448(10) 0.3374(8)
N15 N 0.3983(11) 0.5164(10) 0.3692(7)
C29 C 0.7687(12) -0.1790(13) 0.2324(8)
C30 C 0.2552(18) 0.4467(12) -0.1221(11)
H15 H 0.2895 0.4452 -0.1420
C31 C 0.1498(18) 0.4300(12) -0.1609(11)
H16 H 0.1101 0.4202 -0.2078
N16 N -0.1001(15) 0.4041(19) -0.1971(12)
C32 C -0.0144(19) 0.4130(17) -0.1686(13)
Au4B Au 0.93418(4) 0.25918(4) -0.05657(3)
C26_2 C 1.2224(11) 0.3393(9) 0.1009(8)
Au2B Au -0.11978(4) 0.75306(4) -0.09854(3)
C4_2 C -0.0375(9) 0.8320(8) 0.0529(7)
N4B N 0.6881(8) -0.0849(7) 0.0187(6)
N11B N 0.4360(8) 0.6233(7) 0.0711(6)
Fe1B Fe 0.17156(13) -0.00791(11) -0.06109(10)
Au4_2 Au 1.06582(4) -0.25918(4) 0.05657(3)
Fe2B Fe 0.64122(13) 0.49159(11) -0.08822(10)
Au2_2 Au 0.11978(4) 0.24694(4) 0.09854(3)
loop_
_geom_bond_atom_site_label_1
_geom_bond_atom_site_label_2
_geom_bond_site_symmetry_1
_geom_bond_site_symmetry_2
Au1 Au3 1_555 1_555
Au2 C8 1_555 1_555
Au3 C1 1_555 1_555
Au4 C3 1_555 1_555
Fe1 N2 1_555 1_555
Fe2 N1 1_555 1_555
N1 C2 1_555 1_555
C1 N11 1_555 1_555
N2 C13 1_555 1_555
C2 Au1 1_555 1_555
C3 N7 1_555 1_555
N3 C24 1_555 1_555
N4 C5 1_555 1_555
N5 Fe2 1_555 1_555
C4 N10 1_555 1_555
C5 Au3 1_555 1_555
N6 Fe2 1_555 1_555
C6 H1 1_555 1_555
N7 Fe2 1_555 1_555
C7 C11 1_555 1_555
N8 Fe1 1_555 1_555
N9 Fe2 1_555 1_555
C8 N13 1_555 1_555
C9 Au1 1_555 1_555
C10 N5 1_555 1_555
H2 C10 1_555 1_555
C11 C6 1_555 1_555
H3 C11 1_555 1_555
C12 C10 1_555 1_555
C13 C7 1_555 1_555
H4 C13 1_555 1_555
C14 N8 1_555 1_555
H5 C14 1_555 1_555
C15 C14 1_555 1_555
C16 N6 1_555 1_555
H6 C16 1_555 1_555
C17 H7 1_555 1_555
N10 Fe1 1_555 1_555
N11 Fe2B 1_555 1_555
N12 Fe1 1_555 1_555
C18 C12 1_555 1_555
H8 C18 1_555 1_555
C19 N5 1_555 1_555
H9 C19 1_555 1_555
C20 H10 1_555 1_555
N13 Fe1 1_555 1_555
C21 C15 1_555 1_555
H11 C21 1_555 1_555
C22 N8 1_555 1_555
H12 C22 1_555 1_555
C23 N6 1_555 1_555
H13 C23 1_555 1_555
C24 C15 1_555 1_555
C25 C16 1_555 1_555
N14 C29 1_555 1_555
C26 N9 1_555 1_555
C27 N2 1_555 1_555
H14 C27 1_555 1_555
C28 C12 1_555 1_555
N15 C28 1_555 1_555
C29 C7 1_555 1_555
C30 C23 1_555 1_555
H15 C30 1_555 1_555
C31 C25 1_555 1_555
H16 C31 1_555 1_555
N16 C32 1_555 1_555
C32 C25 1_555 1_555
Au4B Au2 1_555 1_555
C26_2 Au2 1_555 1_555
Au2B Au4 1_555 1_555
C4_2 Au4 1_555 1_555
N4B Fe1 1_555 1_555
N11B Fe2 1_555 1_555
Fe1B N4 1_555 1_555
Au4_2 C4 1_555 1_555
Au2_2 C26 1_555 1_555
C6 C27 1_555 1_555
C9 N12 1_555 1_555
C17 C18 1_555 1_555
C17 C19 1_555 1_555
C20 C22 1_555 1_555
C20 C21 1_555 1_555
C30 C31 1_555 1_555

#END
