
#######################################################################
#
#                 Cambridge Crystallographic Data Centre
#                                CCDC 
#
#######################################################################
#
# If this CIF has been generated from an entry in the Cambridge 
# Structural Database, then it will include bibliographic, chemical, 
# crystal, experimental, refinement or atomic coordinate data resulting 
# from the CCDC's data processing and validation procedures.
#
#######################################################################

data_WAHMEY01
_symmetry_cell_setting           trigonal
_symmetry_space_group_name_H-M   'P -3'
_symmetry_Int_Tables_number      147
_space_group_name_Hall           '-P 3'
loop_
_symmetry_equiv_pos_site_id
_symmetry_equiv_pos_as_xyz
1 x,y,z
2 -y,x-y,z
3 -x+y,-x,z
4 -x,-y,-z
5 y,-x+y,-z
6 x-y,x,-z
_cell_length_a                   15.7900(7)
_cell_length_b                   15.7900(7)
_cell_length_c                   7.0130(3)
_cell_angle_alpha                90
_cell_angle_beta                 90
_cell_angle_gamma                120
_cell_volume                     1514.25
loop_
_atom_site_label
_atom_site_type_symbol
_atom_site_fract_x
_atom_site_fract_y
_atom_site_fract_z
Au1 Au 0.26114(5) -0.26108(5) -0.00008(9)
Fe1 Fe 0.5000 0.0000 -0.5000
N1 N 0.4026(10) -0.1126(10) -0.305(2)
C1 C 0.3511(14) -0.1673(15) -0.196(3)
N2 N 0.5153(10) 0.1122(10) -0.3073(19)
C2 C 0.5177(15) 0.1680(15) -0.193(3)
N3 N 0.3728(9) -0.0005(9) -0.6269(19)
C3 C 0.2810(11) -0.0803(8) -0.664(3)
C4 C 0.2063(9) -0.0658(14) -0.730(3)
C5 C 0.2234(13) 0.0285(17) -0.760(3)
C6 C 0.3153(16) 0.1084(12) -0.723(4)
C7 C 0.3900(11) 0.0938(8) -0.656(3)
C8 C 0.1142(18) -0.140(3) -0.759(8)
N4 N 0.0258(17) -0.205(3) -0.772(8)
N1C N 0.5974(10) 0.1126(10) -0.695(2)
C1C C 0.6489(14) 0.1673(15) -0.804(3)
N2C N 0.4847(10) -0.1122(10) -0.6927(19)
C2C C 0.4823(15) -0.1680(15) -0.807(3)
N3C N 0.6272(9) 0.0005(9) -0.3731(19)
C3C C 0.7190(11) 0.0803(8) -0.336(3)
C4C C 0.7937(9) 0.0658(14) -0.270(3)
C5C C 0.7766(13) -0.0285(17) -0.240(3)
C6C C 0.6847(16) -0.1084(12) -0.277(4)
C7C C 0.6100(11) -0.0938(8) -0.344(3)
C8C C 0.8858(18) 0.140(3) -0.241(8)
N4C N 0.9742(17) 0.205(3) -0.228(8)
Au1C Au 0.73886(5) 0.26108(5) -0.99992(9)
Au1E Au 0.52222(7) 0.26114(5) 0.00008(9)
Au1B Au 0.47778(7) -0.26114(5) -1.00008(9)
N2D N 0.1122(10) -0.4031(14) 0.3073(19)
C2D C 0.1680(15) -0.3497(21) 0.193(3)
N2A N 0.8878(10) 0.4031(14) -1.3073(19)
C2A C 0.8320(15) 0.3497(21) -1.193(3)
N1E N 0.5152(14) 0.4026(10) 0.305(2)
C1E C 0.5184(21) 0.3511(14) 0.196(3)
N1B N 0.4848(14) -0.4026(10) -1.305(2)
C1B C 0.4816(21) -0.3511(14) -1.196(3)
Fe1E Fe 0.5000 0.5000 0.5000
Fe1B Fe 0.5000 -0.5000 -1.5000
N1B_2 N 0.4848(14) 0.5974(10) 0.695(2)
C1B_2 C 0.4816(21) 0.6489(14) 0.804(3)
N2E N 0.4031(14) 0.5153(10) 0.3073(19)
C2E C 0.3497(21) 0.5177(15) 0.193(3)
N2B N 0.5969(14) 0.4847(10) 0.6927(19)
C2B C 0.6503(21) 0.4823(15) 0.807(3)
N3E N 0.3733(13) 0.3728(9) 0.6269(19)
C3E C 0.3613(14) 0.2810(11) 0.664(3)
C4E C 0.2721(17) 0.2063(9) 0.730(3)
C5E C 0.1949(21) 0.2234(13) 0.760(3)
C6E C 0.2069(20) 0.3153(16) 0.723(4)
C7E C 0.2962(14) 0.3900(11) 0.656(3)
C8E C 0.2542(35) 0.1142(18) 0.759(8)
N4E N 0.2308(34) 0.0258(17) 0.772(8)
N3B N 0.6267(13) 0.6272(9) 0.3731(19)
C3B C 0.6387(14) 0.7190(11) 0.336(3)
C4B C 0.7279(17) 0.7937(9) 0.270(3)
C5B C 0.8051(21) 0.7766(13) 0.240(3)
C6B C 0.7931(20) 0.6847(16) 0.277(4)
C7B C 0.7038(14) 0.6100(11) 0.344(3)
C8B C 0.7458(35) 0.8858(18) 0.241(8)
N4B N 0.7692(34) 0.9742(17) 0.228(8)
N1E_2 N 0.5152(14) -0.5974(10) -1.695(2)
C1E_2 C 0.5184(21) -0.6489(14) -1.804(3)
N3B_2 N 0.6267(13) -0.3728(9) -1.6269(19)
C3B_2 C 0.6387(14) -0.2810(11) -1.664(3)
C4B_2 C 0.7279(17) -0.2063(9) -1.730(3)
C5B_2 C 0.8051(21) -0.2234(13) -1.760(3)
C6B_2 C 0.7931(20) -0.3153(16) -1.723(4)
C7B_2 C 0.7038(14) -0.3900(11) -1.656(3)
C8B_2 C 0.7458(35) -0.1142(18) -1.759(8)
N4B_2 N 0.7692(34) -0.0258(17) -1.772(8)
N3E_2 N 0.3733(13) -0.6272(9) -1.3731(19)
C3E_2 C 0.3613(14) -0.7190(11) -1.336(3)
C4E_2 C 0.2721(17) -0.7937(9) -1.270(3)
C5E_2 C 0.1949(21) -0.7766(13) -1.240(3)
C6E_2 C 0.2069(20) -0.6847(16) -1.277(4)
C7E_2 C 0.2962(14) -0.6100(11) -1.344(3)
C8E_2 C 0.2542(35) -0.8858(18) -1.241(8)
N4E_2 N 0.2308(34) -0.9742(17) -1.228(8)
Au1B_2 Au 0.47778(7) 0.73886(5) 0.99992(9)
Au1E_2 Au 0.52222(7) -0.73886(5) -1.99992(9)
Fe1A Fe 0.0000 -0.5000 0.5000
Fe1A_2 Fe 1.0000 0.5000 -1.5000
N2B_2 N 0.5969(14) -0.5153(10) -1.3073(19)
N2E_2 N 0.4031(14) -0.4847(10) -1.6927(19)
Au1A Au 0.26108(5) 0.52222(7) -0.00008(9)
Au1D Au 0.73892(5) 0.47778(7) 1.00008(9)
C2C_2 C 0.4823(15) 0.8320(15) 1.193(3)
C2_2 C 0.5177(15) -0.8320(15) -2.193(3)
O1 O 1.0000 0.0000 0.5000
O2 O 0.0000 0.0000 -1.0000
loop_
_geom_bond_atom_site_label_1
_geom_bond_atom_site_label_2
_geom_bond_site_symmetry_1
_geom_bond_site_symmetry_2
Au1 C1 1_555 1_555
Fe1 N1 1_555 1_555
N1 C1 1_555 1_555
N2 Fe1 1_555 1_555
C2 N2 1_555 1_555
N3 Fe1 1_555 1_555
C3 N3 1_555 1_555
C4 C3 1_555 1_555
C5 C4 1_555 1_555
C6 C5 1_555 1_555
C7 N3 1_555 1_555
C8 C4 1_555 1_555
N4 C8 1_555 1_555
N1C Fe1 1_555 1_555
C1C N1C 1_555 1_555
N2C Fe1 1_555 1_555
C2C N2C 1_555 1_555
N3C Fe1 1_555 1_555
C3C N3C 1_555 1_555
C4C C3C 1_555 1_555
C5C C4C 1_555 1_555
C6C C5C 1_555 1_555
C7C N3C 1_555 1_555
C8C C4C 1_555 1_555
N4C C8C 1_555 1_555
Au1C C1C 1_555 1_555
Au1E C2 1_555 1_555
Au1B C2C 1_555 1_555
N2D C2D 1_555 1_555
C2D Au1 1_555 1_555
N2A C2A 1_555 1_555
C2A Au1C 1_555 1_555
N1E C1E 1_555 1_555
C1E Au1E 1_555 1_555
N1B C1B 1_555 1_555
C1B Au1B 1_555 1_555
Fe1E N1E 1_555 1_555
Fe1B N1B 1_555 1_555
N1B_2 Fe1E 1_555 1_555
C1B_2 N1B_2 1_555 1_555
N2E Fe1E 1_555 1_555
C2E N2E 1_555 1_555
N2B Fe1E 1_555 1_555
C2B N2B 1_555 1_555
N3E Fe1E 1_555 1_555
C3E N3E 1_555 1_555
C4E C3E 1_555 1_555
C5E C4E 1_555 1_555
C6E C5E 1_555 1_555
C7E N3E 1_555 1_555
C8E C4E 1_555 1_555
N4E C8E 1_555 1_555
N3B Fe1E 1_555 1_555
C3B N3B 1_555 1_555
C4B C3B 1_555 1_555
C5B C4B 1_555 1_555
C6B C5B 1_555 1_555
C7B N3B 1_555 1_555
C8B C4B 1_555 1_555
N4B C8B 1_555 1_555
N1E_2 Fe1B 1_555 1_555
C1E_2 N1E_2 1_555 1_555
N3B_2 Fe1B 1_555 1_555
C3B_2 N3B_2 1_555 1_555
C4B_2 C3B_2 1_555 1_555
C5B_2 C4B_2 1_555 1_555
C6B_2 C5B_2 1_555 1_555
C7B_2 N3B_2 1_555 1_555
C8B_2 C4B_2 1_555 1_555
N4B_2 C8B_2 1_555 1_555
N3E_2 Fe1B 1_555 1_555
C3E_2 N3E_2 1_555 1_555
C4E_2 C3E_2 1_555 1_555
C5E_2 C4E_2 1_555 1_555
C6E_2 C5E_2 1_555 1_555
C7E_2 N3E_2 1_555 1_555
C8E_2 C4E_2 1_555 1_555
N4E_2 C8E_2 1_555 1_555
Au1B_2 C1B_2 1_555 1_555
Au1E_2 C1E_2 1_555 1_555
Fe1A N2D 1_555 1_555
Fe1A_2 N2A 1_555 1_555
N2B_2 Fe1B 1_555 1_555
N2E_2 Fe1B 1_555 1_555
Au1A C2E 1_555 1_555
Au1D C2B 1_555 1_555
C2C_2 Au1B_2 1_555 1_555
C2_2 Au1E_2 1_555 1_555
C6 C7 1_555 1_555
C6C C7C 1_555 1_555
C6E C7E 1_555 1_555
C6B C7B 1_555 1_555
C6B_2 C7B_2 1_555 1_555
C6E_2 C7E_2 1_555 1_555

#END
