
#######################################################################
#
#                 Cambridge Crystallographic Data Centre
#                                CCDC 
#
#######################################################################
#
# If this CIF has been generated from an entry in the Cambridge 
# Structural Database, then it will include bibliographic, chemical, 
# crystal, experimental, refinement or atomic coordinate data resulting 
# from the CCDC's data processing and validation procedures.
#
#######################################################################

data_WAHMID
_symmetry_cell_setting           triclinic
_symmetry_space_group_name_H-M   'P -1'
_symmetry_Int_Tables_number      2
_space_group_name_Hall           '-P 1'
loop_
_symmetry_equiv_pos_site_id
_symmetry_equiv_pos_as_xyz
1 x,y,z
2 -x,-y,-z
_cell_length_a                   8.2050(8)
_cell_length_b                   10.4460(11)
_cell_length_c                   10.6300(11)
_cell_angle_alpha                114.1400(11)
_cell_angle_beta                 102.6510(12)
_cell_angle_gamma                92.7040(13)
_cell_volume                     801.606
loop_
_atom_site_label
_atom_site_type_symbol
_atom_site_fract_x
_atom_site_fract_y
_atom_site_fract_z
Mo1 Mo 0.43220(6) 0.66188(5) 0.05619(5)
Mo2 Mo 0.81690(6) 0.56822(5) 0.24863(5)
Mo3 Mo -0.08874(6) 0.57737(5) -0.09182(5)
Cu1 Cu 0.66289(11) 0.89950(8) 0.40711(8)
Cu2 Cu 0.10768(10) 0.88805(9) -0.03145(8)
O1 O 0.6178(5) 0.5515(4) 0.1024(4)
O2 O 1.0211(5) 0.4935(4) 0.2725(4)
O3 O 0.8612(5) 0.7492(4) 0.3511(4)
O4 O 0.7189(5) 0.5060(5) 0.3437(5)
O5 O 0.9601(5) 0.5992(4) 0.0979(4)
O6 O 0.4636(5) 0.7789(4) 0.2347(4)
O7 O 0.2130(5) 0.6508(4) -0.0376(4)
O8 O -0.2938(5) 0.4921(4) -0.1555(4)
O9 O -0.1005(5) 0.7521(4) -0.0661(4)
O10 O 0.5393(5) 0.7501(4) -0.0117(5)
N1 N 0.7608(6) 1.1764(5) 0.3946(5)
N2 N 0.7433(6) 1.0319(5) 0.3364(5)
N3 N 0.3218(6) 1.0829(5) 0.4023(5)
N4 N 0.2309(6) 1.0048(5) 0.1654(5)
N5 N 0.8584(6) 1.1139(5) 0.2089(5)
N6 N 0.3962(6) 1.1719(5) 0.3589(5)
C1 C 0.8042(8) 0.9986(6) 0.2252(6)
H1 H 0.8097 0.9058 0.1640
C2 C 0.2232(7) 0.9848(6) 0.2799(6)
H2 H 0.1546 0.9084 0.2748
C3 C 0.5198(7) 1.2962(6) 0.4612(6)
H3 H 0.5374 1.3582 0.4164
H4 H 0.4755 1.3483 0.5421
C4 C 0.3413(7) 1.1237(6) 0.2194(6)
H5 H 0.3749 1.1667 0.1659
C5 C 0.8330(8) 1.2238(6) 0.3179(6)
H6 H 0.8610 1.3186 0.3379
C6 C 0.6878(7) 1.2558(6) 0.5137(6)
H7 H 0.6716 1.1981 0.5632
H8 H 0.7659 1.3412 0.5811
Mo1A Mo 0.56780(6) 0.33812(5) -0.05619(5)
Mo2A Mo 0.18310(6) 0.43178(5) -0.24863(5)
Mo3A Mo 1.08874(6) 0.42263(5) 0.09182(5)
Mo3_2 Mo 0.91126(6) 0.57737(5) -0.09182(5)
Cu1A Cu 0.33711(11) 1.10050(8) 0.59289(8)
Cu2A Cu 0.89232(10) 1.11195(9) 0.03145(8)
O1A O 0.3822(5) 0.4485(4) -0.1024(4)
O2A O -0.0211(5) 0.5065(4) -0.2725(4)
O5_2 O -0.0399(5) 0.5992(4) 0.0979(4)
O5A O 0.0399(5) 0.4008(4) -0.0979(4)
O7A O 0.7870(5) 0.3492(4) 0.0376(4)
N3A N 0.6782(6) 0.9171(5) 0.5977(5)
N5A N 0.1416(6) 0.8861(5) -0.2089(5)
loop_
_geom_bond_atom_site_label_1
_geom_bond_atom_site_label_2
_geom_bond_site_symmetry_1
_geom_bond_site_symmetry_2
Mo1 O1 1_555 1_555
Mo2 O1 1_555 1_555
Mo3 O7 1_555 1_555
Cu1 O3 1_555 1_555
Cu2 O9 1_555 1_555
O1 Mo1A 1_555 1_555
O2 Mo2 1_555 1_555
O3 Mo2 1_555 1_555
O4 Mo2 1_555 1_555
O5 Mo2 1_555 1_555
O6 Mo1 1_555 1_555
O7 Mo1 1_555 1_555
O8 Mo3 1_555 1_555
O9 Mo3 1_555 1_555
O10 Mo1 1_555 1_555
N1 N2 1_555 1_555
N2 Cu1 1_555 1_555
N3 N6 1_555 1_555
N4 Cu2 1_555 1_555
N5 C1 1_555 1_555
N6 C3 1_555 1_555
C1 N2 1_555 1_555
H1 C1 1_555 1_555
C2 N3 1_555 1_555
H2 C2 1_555 1_555
C3 H3 1_555 1_555
H4 C3 1_555 1_555
C4 N4 1_555 1_555
H5 C4 1_555 1_555
C5 N1 1_555 1_555
H6 C5 1_555 1_555
C6 N1 1_555 1_555
H7 C6 1_555 1_555
H8 C6 1_555 1_555
Mo1A O1A 1_555 1_555
Mo2A O7 1_555 1_555
Mo3A O2 1_555 1_555
Mo3_2 O5 1_555 1_555
Cu1A N3 1_555 1_555
Cu2A N5 1_555 1_555
O1A Mo1 1_555 1_555
O2A Mo3 1_555 1_555
O5_2 Mo3 1_555 1_555
O5A Mo3 1_555 1_555
O7A Mo2 1_555 1_555
N3A Cu1 1_555 1_555
N5A Cu2 1_555 1_555
Cu1 O6 1_555 1_555
O5 Mo3A 1_555 1_555
N4 C2 1_555 1_555
N5 C5 1_555 1_555
N6 C4 1_555 1_555
C3 C6 1_555 1_555
Mo1A O7A 1_555 1_555
Mo2A O1A 1_555 1_555
Mo2A O2A 1_555 1_555
Mo2A O5A 1_555 1_555
Mo3A O7A 1_555 1_555

#END
