
#######################################################################
#
#                 Cambridge Crystallographic Data Centre
#                                CCDC 
#
#######################################################################
#
# If this CIF has been generated from an entry in the Cambridge 
# Structural Database, then it will include bibliographic, chemical, 
# crystal, experimental, refinement or atomic coordinate data resulting 
# from the CCDC's data processing and validation procedures.
#
#######################################################################

data_WAHMEY
_symmetry_cell_setting           trigonal
_symmetry_space_group_name_H-M   'P -3'
_symmetry_Int_Tables_number      147
_space_group_name_Hall           '-P 3'
loop_
_symmetry_equiv_pos_site_id
_symmetry_equiv_pos_as_xyz
1 x,y,z
2 -y,x-y,z
3 -x+y,-x,z
4 -x,-y,-z
5 y,-x+y,-z
6 x-y,x,-z
_cell_length_a                   15.6730(9)
_cell_length_b                   15.6730(9)
_cell_length_c                   6.9500(7)
_cell_angle_alpha                90
_cell_angle_beta                 90
_cell_angle_gamma                120
_cell_volume                     1478.49
loop_
_atom_site_label
_atom_site_type_symbol
_atom_site_fract_x
_atom_site_fract_y
_atom_site_fract_z
Au1 Au 0.26100(7) -0.26125(7) -0.00019(12)
Fe1 Fe 0.5000 0.0000 -0.5000
N1 N 0.4059(12) -0.1086(12) -0.306(2)
C1 C 0.3500(16) -0.1693(16) -0.201(3)
N2 N 0.5150(12) 0.1098(12) -0.307(2)
C2 C 0.5197(17) 0.1665(17) -0.198(3)
N3 N 0.3736(9) 0.0005(10) -0.621(2)
C3 C 0.2857(12) -0.0853(8) -0.661(3)
C4 C 0.2060(10) -0.0798(15) -0.734(4)
C5 C 0.2142(14) 0.0115(19) -0.767(4)
C6 C 0.3021(18) 0.0973(14) -0.727(4)
C7 C 0.3819(12) 0.0918(8) -0.654(3)
C8 C 0.1094(19) -0.148(4) -0.753(10)
N4 N 0.0207(16) -0.213(3) -0.773(7)
N1C N 0.5941(12) 0.1086(12) -0.694(2)
C1C C 0.6500(16) 0.1693(16) -0.799(3)
N2C N 0.4850(12) -0.1098(12) -0.693(2)
C2C C 0.4803(17) -0.1665(17) -0.802(3)
N3C N 0.6264(9) -0.0005(10) -0.379(2)
C3C C 0.7143(12) 0.0853(8) -0.339(3)
C4C C 0.7940(10) 0.0798(15) -0.266(4)
C5C C 0.7858(14) -0.0115(19) -0.233(4)
C6C C 0.6979(18) -0.0973(14) -0.273(4)
C7C C 0.6181(12) -0.0918(8) -0.346(3)
C8C C 0.8906(19) 0.148(4) -0.247(10)
N4C N 0.9793(16) 0.213(3) -0.227(7)
Au1C Au 0.73900(7) 0.26125(7) -0.99981(12)
Au1E Au 0.52225(10) 0.26100(7) 0.00019(12)
Au1B Au 0.47775(10) -0.26100(7) -1.00019(12)
N2D N 0.1098(12) -0.4052(17) 0.307(2)
C2D C 0.1665(17) -0.3532(24) 0.198(3)
N2A N 0.8902(12) 0.4052(17) -1.307(2)
C2A C 0.8335(17) 0.3532(24) -1.198(3)
N1E N 0.5145(17) 0.4059(12) 0.306(2)
C1E C 0.5193(23) 0.3500(16) 0.201(3)
N1B N 0.4855(17) -0.4059(12) -1.306(2)
C1B C 0.4807(23) -0.3500(16) -1.201(3)
Fe1E Fe 0.5000 0.5000 0.5000
Fe1B Fe 0.5000 -0.5000 -1.5000
N1B_2 N 0.4855(17) 0.5941(12) 0.694(2)
C1B_2 C 0.4807(23) 0.6500(16) 0.799(3)
N2E N 0.4052(17) 0.5150(12) 0.307(2)
C2E C 0.3532(24) 0.5197(17) 0.198(3)
N2B N 0.5948(17) 0.4850(12) 0.693(2)
C2B C 0.6468(24) 0.4803(17) 0.802(3)
N3E N 0.3731(13) 0.3736(9) 0.621(2)
C3E C 0.3710(14) 0.2857(12) 0.661(3)
C4E C 0.2858(18) 0.2060(10) 0.734(4)
C5E C 0.2027(24) 0.2142(14) 0.767(4)
C6E C 0.2048(23) 0.3021(18) 0.727(4)
C7E C 0.2901(14) 0.3819(12) 0.654(3)
C8E C 0.2574(44) 0.1094(19) 0.753(10)
N4E N 0.2337(34) 0.0207(16) 0.773(7)
N3B N 0.6269(13) 0.6264(9) 0.379(2)
C3B C 0.6290(14) 0.7143(12) 0.339(3)
C4B C 0.7142(18) 0.7940(10) 0.266(4)
C5B C 0.7973(24) 0.7858(14) 0.233(4)
C6B C 0.7952(23) 0.6979(18) 0.273(4)
C7B C 0.7099(14) 0.6181(12) 0.346(3)
C8B C 0.7426(44) 0.8906(19) 0.247(10)
N4B N 0.7663(34) 0.9793(16) 0.227(7)
N1E_2 N 0.5145(17) -0.5941(12) -1.694(2)
C1E_2 C 0.5193(23) -0.6500(16) -1.799(3)
N3B_2 N 0.6269(13) -0.3736(9) -1.621(2)
C3B_2 C 0.6290(14) -0.2857(12) -1.661(3)
C4B_2 C 0.7142(18) -0.2060(10) -1.734(4)
C5B_2 C 0.7973(24) -0.2142(14) -1.767(4)
C6B_2 C 0.7952(23) -0.3021(18) -1.727(4)
C7B_2 C 0.7099(14) -0.3819(12) -1.654(3)
C8B_2 C 0.7426(44) -0.1094(19) -1.753(10)
N4B_2 N 0.7663(34) -0.0207(16) -1.773(7)
N3E_2 N 0.3731(13) -0.6264(9) -1.379(2)
C3E_2 C 0.3710(14) -0.7143(12) -1.339(3)
C4E_2 C 0.2858(18) -0.7940(10) -1.266(4)
C5E_2 C 0.2027(24) -0.7858(14) -1.233(4)
C6E_2 C 0.2048(23) -0.6979(18) -1.273(4)
C7E_2 C 0.2901(14) -0.6181(12) -1.346(3)
C8E_2 C 0.2574(44) -0.8906(19) -1.247(10)
N4E_2 N 0.2337(34) -0.9793(16) -1.227(7)
Au1B_2 Au 0.47775(10) 0.73900(7) 0.99981(12)
Au1E_2 Au 0.52225(10) -0.73900(7) -1.99981(12)
Fe1A Fe 0.0000 -0.5000 0.5000
Fe1A_2 Fe 1.0000 0.5000 -1.5000
N2B_2 N 0.5948(17) -0.5150(12) -1.307(2)
N2E_2 N 0.4052(17) -0.4850(12) -1.693(2)
Au1A Au 0.26125(7) 0.52225(10) -0.00019(12)
Au1D Au 0.73875(7) 0.47775(10) 1.00019(12)
C2C_2 C 0.4803(17) 0.8335(17) 1.198(3)
C2_2 C 0.5197(17) -0.8335(17) -2.198(3)
O1 O 1.0000 0.0000 0.5000
O2 O 0.0000 0.0000 -1.0000
loop_
_geom_bond_atom_site_label_1
_geom_bond_atom_site_label_2
_geom_bond_site_symmetry_1
_geom_bond_site_symmetry_2
Au1 C1 1_555 1_555
Fe1 N1 1_555 1_555
N1 C1 1_555 1_555
N2 Fe1 1_555 1_555
C2 N2 1_555 1_555
N3 Fe1 1_555 1_555
C3 N3 1_555 1_555
C4 C3 1_555 1_555
C5 C4 1_555 1_555
C6 C5 1_555 1_555
C7 N3 1_555 1_555
C8 C4 1_555 1_555
N4 C8 1_555 1_555
N1C Fe1 1_555 1_555
C1C N1C 1_555 1_555
N2C Fe1 1_555 1_555
C2C N2C 1_555 1_555
N3C Fe1 1_555 1_555
C3C N3C 1_555 1_555
C4C C3C 1_555 1_555
C5C C4C 1_555 1_555
C6C C5C 1_555 1_555
C7C N3C 1_555 1_555
C8C C4C 1_555 1_555
N4C C8C 1_555 1_555
Au1C C1C 1_555 1_555
Au1E C2 1_555 1_555
Au1B C2C 1_555 1_555
N2D C2D 1_555 1_555
C2D Au1 1_555 1_555
N2A C2A 1_555 1_555
C2A Au1C 1_555 1_555
N1E C1E 1_555 1_555
C1E Au1E 1_555 1_555
N1B C1B 1_555 1_555
C1B Au1B 1_555 1_555
Fe1E N1E 1_555 1_555
Fe1B N1B 1_555 1_555
N1B_2 Fe1E 1_555 1_555
C1B_2 N1B_2 1_555 1_555
N2E Fe1E 1_555 1_555
C2E N2E 1_555 1_555
N2B Fe1E 1_555 1_555
C2B N2B 1_555 1_555
N3E Fe1E 1_555 1_555
C3E N3E 1_555 1_555
C4E C3E 1_555 1_555
C5E C4E 1_555 1_555
C6E C5E 1_555 1_555
C7E N3E 1_555 1_555
C8E C4E 1_555 1_555
N4E C8E 1_555 1_555
N3B Fe1E 1_555 1_555
C3B N3B 1_555 1_555
C4B C3B 1_555 1_555
C5B C4B 1_555 1_555
C6B C5B 1_555 1_555
C7B N3B 1_555 1_555
C8B C4B 1_555 1_555
N4B C8B 1_555 1_555
N1E_2 Fe1B 1_555 1_555
C1E_2 N1E_2 1_555 1_555
N3B_2 Fe1B 1_555 1_555
C3B_2 N3B_2 1_555 1_555
C4B_2 C3B_2 1_555 1_555
C5B_2 C4B_2 1_555 1_555
C6B_2 C5B_2 1_555 1_555
C7B_2 N3B_2 1_555 1_555
C8B_2 C4B_2 1_555 1_555
N4B_2 C8B_2 1_555 1_555
N3E_2 Fe1B 1_555 1_555
C3E_2 N3E_2 1_555 1_555
C4E_2 C3E_2 1_555 1_555
C5E_2 C4E_2 1_555 1_555
C6E_2 C5E_2 1_555 1_555
C7E_2 N3E_2 1_555 1_555
C8E_2 C4E_2 1_555 1_555
N4E_2 C8E_2 1_555 1_555
Au1B_2 C1B_2 1_555 1_555
Au1E_2 C1E_2 1_555 1_555
Fe1A N2D 1_555 1_555
Fe1A_2 N2A 1_555 1_555
N2B_2 Fe1B 1_555 1_555
N2E_2 Fe1B 1_555 1_555
Au1A C2E 1_555 1_555
Au1D C2B 1_555 1_555
C2C_2 Au1B_2 1_555 1_555
C2_2 Au1E_2 1_555 1_555
C6 C7 1_555 1_555
C6C C7C 1_555 1_555
C6E C7E 1_555 1_555
C6B C7B 1_555 1_555
C6B_2 C7B_2 1_555 1_555
C6E_2 C7E_2 1_555 1_555

#END
