
#######################################################################
#
#                 Cambridge Crystallographic Data Centre
#                                CCDC 
#
#######################################################################
#
# If this CIF has been generated from an entry in the Cambridge 
# Structural Database, then it will include bibliographic, chemical, 
# crystal, experimental, refinement or atomic coordinate data resulting 
# from the CCDC's data processing and validation procedures.
#
#######################################################################

data_WAHMOI
_symmetry_cell_setting           monoclinic
_symmetry_space_group_name_H-M   'P 21/c'
_symmetry_Int_Tables_number      14
_space_group_name_Hall           '-P 2ybc'
loop_
_symmetry_equiv_pos_site_id
_symmetry_equiv_pos_as_xyz
1 x,y,z
2 x,1/2-y,1/2+z
3 -x,-y,-z
4 -x,1/2+y,1/2-z
_cell_length_a                   15.7190(7)
_cell_length_b                   12.7610(5)
_cell_length_c                   24.2380(8)
_cell_angle_alpha                90
_cell_angle_beta                 127.152(2)
_cell_angle_gamma                90
_cell_volume                     3875.11
loop_
_atom_site_label
_atom_site_type_symbol
_atom_site_fract_x
_atom_site_fract_y
_atom_site_fract_z
Au1 Au 1.04419(6) 0.22851(5) 0.03616(4)
Au2 Au 1.62882(5) -0.24870(5) 0.09913(4)
Au3 Au 0.86057(6) 0.27986(5) -0.11455(4)
Au4 Au 0.56917(6) 0.26364(5) 0.05662(4)
Fe1 Fe 1.3275(2) -0.00958(19) 0.05991(15)
Fe2 Fe 0.8589(2) 0.48888(19) 0.08872(15)
N1 N 0.9258(12) 0.3801(12) 0.0717(9)
C1 C 1.2817(14) -0.0476(13) -0.0854(10)
C2 C 0.9551(14) 0.4255(13) 0.2904(10)
N2 N 0.7712(12) 0.5268(12) -0.0150(9)
N3 N 0.7294(13) 0.1347(13) -0.0879(10)
N4 N 0.7469(12) 0.3944(12) 0.0685(9)
N5 N 1.0255(12) 0.4184(12) -0.1120(9)
N6 N 1.2462(12) -0.0679(12) -0.0480(9)
C3 C 0.9016(14) 0.4583(13) 0.2243(10)
C4 C 1.0530(16) 0.3705(15) 0.3251(12)
C5 C 0.7708(15) 0.1889(14) -0.1014(11)
C6 C 1.0926(14) -0.1537(14) -0.1461(11)
N7 N 1.4669(12) -0.0977(12) 0.0949(9)
N8 N 1.1845(12) 0.0828(12) 0.0180(9)
N9 N 0.4028(17) 0.5807(16) -0.1922(12)
C7 C 0.7657(16) 0.5547(15) -0.1129(12)
C8 C 1.0927(15) 0.3549(15) 0.2884(12)
N10 N 0.9418(11) 0.4451(11) 0.1887(8)
C9 C 1.2206(15) -0.0803(15) -0.1553(11)
C10 C 0.8241(15) 0.5341(15) -0.0450(11)
C11 C 1.451(2) 0.2067(19) 0.2683(15)
C12 C 0.6771(14) 0.3466(13) 0.0612(10)
C13 C 0.6537(17) 0.5656(17) -0.1564(13)
C14 C 1.3261(16) 0.0872(15) 0.1781(12)
N11 N 0.7860(12) 0.5997(11) 0.0988(9)
C15 C 1.4615(14) 0.1749(13) 0.0518(10)
C16 C 1.1530(15) -0.1186(14) -0.0784(11)
C17 C 0.9163(15) 0.4526(14) 0.3321(11)
C18 C 1.0379(15) 0.3970(14) 0.2238(11)
C19 C 1.5281(14) -0.1527(14) 0.1002(11)
N12 N 1.3963(12) 0.0649(12) 0.1625(9)
C20 C 0.6049(17) 0.5614(17) -0.1223(13)
N13 N 1.3988(13) 0.1168(12) 0.0453(9)
C21 C 0.9604(14) 0.3687(13) -0.1194(10)
C22 C 1.4944(16) 0.1081(15) 0.2029(12)
C23 C 1.5240(19) 0.1792(19) 0.2545(14)
N14 N 0.8918(14) 0.4779(13) 0.3656(10)
C24 C 0.9669(15) 0.3232(14) 0.0583(11)
N15 N 1.1968(17) 0.2083(16) 0.2312(12)
C25 C 1.2577(15) -0.0511(15) -0.1974(12)
C26 C 1.2674(18) 0.1859(17) 0.2314(14)
C27 C 1.1244(15) -0.1336(14) -0.1860(11)
N16 N 1.2832(15) -0.0280(15) -0.2307(11)
C28 C 1.3527(15) 0.1601(15) 0.2258(11)
C29 C 0.4930(19) 0.5722(18) -0.1613(14)
C30 C 0.6665(17) 0.5413(16) -0.0499(12)
C31 C 1.1297(14) 0.1359(13) 0.0225(10)
C32 C 0.7283(15) 0.6571(15) 0.0999(11)
Au4B Au 1.43083(6) -0.26364(5) -0.05662(4)
C32_2 C 1.7283(15) -0.3429(15) 0.0999(11)
Au2B Au 0.37118(5) 0.24870(5) -0.09913(4)
C15_2 C 0.4615(14) 0.1749(13) 0.0518(10)
N3B N 1.2706(13) -0.1347(13) 0.0879(10)
N5B N 0.9745(12) 0.5816(12) 0.1120(9)
Fe1B Fe 0.6725(2) 0.00958(19) -0.05991(15)
Fe2B Fe 1.1411(2) 0.51112(19) -0.08872(15)
Au4_2 Au 1.56917(6) 0.26364(5) 0.05662(4)
Au2_2 Au 0.62882(5) 0.75130(5) 0.09913(4)
loop_
_geom_bond_atom_site_label_1
_geom_bond_atom_site_label_2
_geom_bond_site_symmetry_1
_geom_bond_site_symmetry_2
Au1 Au3 1_555 1_555
Au2 C19 1_555 1_555
Au3 C5 1_555 1_555
Au4 C12 1_555 1_555
Fe1 N6 1_555 1_555
Fe2 N1 1_555 1_555
N1 C24 1_555 1_555
C1 N6 1_555 1_555
C2 C3 1_555 1_555
N2 Fe2 1_555 1_555
N3 C5 1_555 1_555
N4 Fe2 1_555 1_555
N5 C21 1_555 1_555
N6 C16 1_555 1_555
C3 N10 1_555 1_555
C4 C2 1_555 1_555
C6 C16 1_555 1_555
N7 Fe1 1_555 1_555
N8 Fe1 1_555 1_555
N9 C29 1_555 1_555
C7 C10 1_555 1_555
C8 C4 1_555 1_555
N10 Fe2 1_555 1_555
C9 C1 1_555 1_555
C10 N2 1_555 1_555
C11 C23 1_555 1_555
C12 N4 1_555 1_555
C13 C7 1_555 1_555
C14 N12 1_555 1_555
N11 Fe2 1_555 1_555
C15 N13 1_555 1_555
C17 C2 1_555 1_555
C18 C8 1_555 1_555
C19 N7 1_555 1_555
N12 Fe1 1_555 1_555
C20 C13 1_555 1_555
N13 Fe1 1_555 1_555
C21 Au3 1_555 1_555
C22 N12 1_555 1_555
C23 C22 1_555 1_555
N14 C17 1_555 1_555
C24 Au1 1_555 1_555
N15 C26 1_555 1_555
C25 C9 1_555 1_555
C26 C28 1_555 1_555
C27 C6 1_555 1_555
N16 C25 1_555 1_555
C28 C11 1_555 1_555
C29 C20 1_555 1_555
C30 N2 1_555 1_555
C31 Au1 1_555 1_555
C32 N11 1_555 1_555
Au4B Au2 1_555 1_555
C32_2 Au2 1_555 1_555
Au2B Au4 1_555 1_555
C15_2 Au4 1_555 1_555
N3B Fe1 1_555 1_555
N5B Fe2 1_555 1_555
Fe1B N3 1_555 1_555
Fe2B N5 1_555 1_555
Au4_2 C15 1_555 1_555
Au2_2 C32 1_555 1_555
N8 C31 1_555 1_555
N10 C18 1_555 1_555
C9 C27 1_555 1_555
C14 C28 1_555 1_555
C20 C30 1_555 1_555

#END
