
#######################################################################
#
#                 Cambridge Crystallographic Data Centre
#                                CCDC 
#
#######################################################################
#
# If this CIF has been generated from an entry in the Cambridge 
# Structural Database, then it will include bibliographic, chemical, 
# crystal, experimental, refinement or atomic coordinate data resulting 
# from the CCDC's data processing and validation procedures.
#
#######################################################################

data_WAHNUQ
_symmetry_cell_setting           rhombohedral
_symmetry_space_group_name_H-M   'R -3'
_symmetry_Int_Tables_number      148
_space_group_name_Hall           '-R 3'
loop_
_symmetry_equiv_pos_site_id
_symmetry_equiv_pos_as_xyz
1 x,y,z
2 -y,x-y,z
3 -x+y,-x,z
4 2/3+x,1/3+y,1/3+z
5 2/3-y,1/3+x-y,1/3+z
6 2/3-x+y,1/3-x,1/3+z
7 1/3+x,2/3+y,2/3+z
8 1/3-y,2/3+x-y,2/3+z
9 1/3-x+y,2/3-x,2/3+z
10 -x,-y,-z
11 y,-x+y,-z
12 x-y,x,-z
13 1/3-x,2/3-y,2/3-z
14 1/3+y,2/3-x+y,2/3-z
15 1/3+x-y,2/3+x,2/3-z
16 2/3-x,1/3-y,1/3-z
17 2/3+y,1/3-x+y,1/3-z
18 2/3+x-y,1/3+x,1/3-z
_cell_length_a                   38.9152(14)
_cell_length_b                   38.9152(14)
_cell_length_c                   14.4944(7)
_cell_angle_alpha                90
_cell_angle_beta                 90
_cell_angle_gamma                120
_cell_volume                     19009.4
loop_
_atom_site_label
_atom_site_type_symbol
_atom_site_fract_x
_atom_site_fract_y
_atom_site_fract_z
O5 O 0.1664(7) 0.0690(11) 0.7282(17)
O6 O 0.121(2) 0.0055(13) 0.699(3)
O7 O 0.1278(8) 0.0407(7) 0.8624(16)
N11 N 0.144(3) 0.045(2) 0.760(4)
O9 O 0.0000 0.0000 0.5000
O10 O 0.0000 0.0000 0.0000
O11 O 0.2339(3) 0.0473(2) 0.6728(5)
Zn1 Zn 0.3333 0.1667 0.6667
Zn2 Zn 0.0000 0.0000 0.3109(2)
Co1 Co 0.21530(2) 0.04885(2) 0.25470(5)
O1 O 0.13278(16) -0.01998(17) 0.0681(4)
O2 O 0.31818(15) 0.04799(18) 0.2702(4)
O3 O 0.18260(15) 0.19381(15) 0.4837(3)
O4 O 0.0705(2) 0.22140(17) 0.8219(3)
N1 N 0.16289(15) 0.02099(15) 0.1926(4)
N2 N 0.27059(14) 0.06683(13) 0.2905(3)
N3 N 0.18769(14) 0.19905(14) 0.6432(3)
N4 N 0.13268(17) 0.22819(15) 0.8207(3)
N5 N 0.22627(15) 0.01953(14) 0.1703(3)
N6 N 0.12745(15) 0.20542(14) 0.6591(3)
N7 N 0.31637(13) 0.13453(13) 0.5342(3)
N8 N 0.28484(13) 0.17966(13) 0.6557(3)
N9 N 0.0550(2) 0.0113(2) 0.2700(7)
N10 N 0.15848(19) 0.26399(16) 1.0969(4)
C1 C 0.2412(3) -0.0246(2) 0.0489(5)
H1 H 0.2465 -0.0396 0.0077
C2 C 0.2056(2) -0.0249(2) 0.0429(5)
H2 H 0.1869 -0.0397 -0.0021
C3 C 0.19874(19) -0.00207(17) 0.1076(4)
C4 C 0.26063(19) 0.02045(18) 0.1761(4)
C5 C 0.2689(2) -0.0022(2) 0.1150(5)
H3 H 0.2928 -0.0022 0.1189
C6 C 0.1610(2) -0.0007(2) 0.1191(5)
C7 C 0.28665(18) 0.04661(19) 0.2516(4)
C8 C 0.1274(2) 0.0197(2) 0.2198(6)
C9 C 0.1060(4) 0.0291(5) 0.1640(10)
H4 H 0.1149 0.0378 0.1043
C10 C 0.0711(4) 0.0262(6) 0.1935(13)
H5 H 0.0587 0.0358 0.1549
C11 C 0.0769(3) 0.0066(4) 0.3305(10)
H6 H 0.0680 0.0012 0.3912
C12 C 0.1126(3) 0.0090(3) 0.3095(7)
H7 H 0.1265 0.0037 0.3540
C13 C 0.28895(17) 0.09008(16) 0.3707(4)
C14 C 0.29419(19) 0.12835(17) 0.3780(4)
H8 H 0.2891 0.1400 0.3276
C15 C 0.30675(17) 0.14837(16) 0.4592(4)
H9 H 0.3088 0.1732 0.4632
C16 C 0.31388(16) 0.09871(16) 0.5245(4)
H10 H 0.3219 0.0890 0.5736
C17 C 0.30020(17) 0.07598(16) 0.4464(4)
H11 H 0.2984 0.0513 0.4440
C18 C 0.0675(3) 0.2022(2) 0.6209(5)
H12 H 0.0451 0.2035 0.6380
C19 C 0.0955(2) 0.2071(2) 0.6850(5)
C20 C 0.0974(2) 0.2187(2) 0.7847(4)
C21 C 0.1401(2) 0.23990(17) 0.9137(4)
C22 C 0.1741(2) 0.2740(2) 0.9369(4)
H13 H 0.1916 0.2902 0.8915
C23 C 0.1821(2) 0.2840(2) 1.0291(5)
H14 H 0.2061 0.3066 1.0438
C24 C 0.1255(3) 0.2311(2) 1.0742(5)
H15 H 0.1084 0.2159 1.1214
C25 C 0.1150(3) 0.2179(2) 0.9846(5)
H16 H 0.0913 0.1946 0.9722
C26 C 0.28670(19) 0.21024(18) 0.6064(5)
H17 H 0.3101 0.2271 0.5753
C27 C 0.25497(19) 0.21734(19) 0.6006(5)
H18 H 0.2573 0.2383 0.5650
C28 C 0.22123(17) 0.19408(16) 0.6461(4)
C29 C 0.21883(18) 0.16266(19) 0.6983(5)
H19 H 0.1961 0.1462 0.7320
C30 C 0.25083(18) 0.15679(19) 0.6987(4)
H20 H 0.2484 0.1352 0.7315
C31 C 0.1708(2) 0.19766(18) 0.5594(4)
C32 C 0.13363(19) 0.1988(2) 0.5716(4)
C33 C 0.1063(2) 0.1932(3) 0.5043(5)
H21 H 0.1101 0.1882 0.4435
C34 C 0.0732(3) 0.1952(3) 0.5302(6)
H22 H 0.0544 0.1918 0.4859
O8 O 0.29671(12) 0.11259(13) 0.7349(3)
H23 H 0.282(2) 0.089(3) 0.714(5)
H24 H 0.289(2) 0.113(2) 0.789(6)
Zn1A Zn -0.1667 0.1666 0.6667
Zn1B Zn -0.1666 -0.3333 0.6667
Zn1J Zn 0.1667 -0.1666 0.3333
Zn2O Zn 0.6667 0.3333 1.0224(2)
Zn2O_2 Zn -0.3333 0.3333 1.0224(2)
Zn2O_3 Zn -0.3333 -0.6667 1.0224(2)
Co1A Co -0.04885(2) 0.16645(3) 0.25470(5)
Co1B Co -0.16645(3) -0.21530(2) 0.25470(5)
Co1O Co 0.45137(2) 0.28448(2) 1.07863(5)
Co1P Co -0.28448(2) 0.16688(3) 1.07863(5)
Co1Q Co -0.16688(3) -0.45137(2) 1.07863(5)
Co1K Co 0.16645(3) 0.21530(2) 0.74530(5)
Co1E Co 0.50022(3) 0.11803(2) 0.58803(5)
Co1I Co -0.21530(2) -0.04885(2) 0.74530(5)
Co1C Co -0.11803(2) 0.38218(2) 0.58803(5)
Co1J Co 0.04885(2) -0.16645(3) 0.74530(5)
O1A O 0.01998(17) 0.15276(23) 0.0681(4)
O1B O -0.15276(23) -0.13278(16) 0.0681(4)
O1O O 0.53389(16) 0.35331(17) 1.2652(4)
O1P O -0.35331(17) 0.18057(23) 1.2652(4)
O1Q O -0.18057(23) -0.53389(16) 1.2652(4)
O2A O -0.04799(18) 0.27019(23) 0.2702(4)
O2B O -0.27019(23) -0.31818(15) 0.2702(4)
O2O O 0.34849(15) 0.28534(18) 1.0631(4)
O2P O -0.28534(18) 0.06314(23) 1.0631(4)
O2Q O -0.06314(23) -0.34849(15) 1.0631(4)
O3O O 0.48407(15) 0.13952(15) 0.8496(3)
O3J O 0.19381(15) 0.01121(21) 0.5163(3)
O3A O -0.19381(15) -0.01121(21) 0.4837(3)
O3P O -0.13952(15) 0.34454(21) 0.8496(3)
O3B O 0.01121(21) -0.18260(15) 0.4837(3)
O4O O 0.5962(2) 0.11193(17) 0.5114(3)
O4J O 0.22140(17) 0.15090(26) 0.1781(3)
O4A O -0.22140(17) -0.15090(26) 0.8219(3)
O4P O -0.11193(17) 0.48423(26) 0.5114(3)
O4B O 0.15090(26) -0.0705(2) 0.8219(3)
N1A N -0.02099(15) 0.14190(21) 0.1926(4)
N1B N -0.14190(21) -0.16289(15) 0.1926(4)
N1O N 0.50378(15) 0.31234(15) 1.1407(4)
N1P N -0.31234(15) 0.19143(21) 1.1407(4)
N1Q N -0.19143(21) -0.50378(15) 1.1407(4)
N2A N -0.06683(13) 0.20376(19) 0.2905(3)
N2B N -0.20376(19) -0.27059(14) 0.2905(3)
N2O N 0.39608(14) 0.26650(13) 1.0428(3)
N2P N -0.26650(13) 0.12957(19) 1.0428(3)
N2Q N -0.12957(19) -0.39608(14) 1.0428(3)
N3O N 0.47898(14) 0.13428(14) 0.6901(3)
N3J N 0.19905(14) 0.01136(20) 0.3568(3)
N3A N -0.19905(14) -0.01136(20) 0.6432(3)
N3P N -0.13428(14) 0.34469(20) 0.6901(3)
N3B N 0.01136(20) -0.18769(14) 0.6432(3)
N3K N -0.01136(20) 0.18769(14) 0.3568(3)
N3I N -0.18769(14) -0.19905(14) 0.3568(3)
N3D N 0.46762(14) 0.32197(20) 0.9765(3)
N3E N -0.32197(20) 0.14564(14) 0.9765(3)
N3C N -0.14564(14) -0.46762(14) 0.9765(3)
N4O N 0.53399(17) 0.10514(15) 0.5126(3)
N4J N 0.22819(15) 0.09551(23) 0.1793(3)
N4A N -0.22819(15) -0.09551(23) 0.8207(3)
N4P N -0.10514(15) 0.42884(23) 0.5126(3)
N4B N 0.09551(23) -0.13268(17) 0.8207(3)
N4K N -0.09551(23) 0.13268(17) 0.1793(3)
N4I N -0.13268(17) -0.22819(15) 0.1793(3)
N4D N 0.43848(15) 0.23782(23) 1.1540(3)
N4E N -0.23782(23) 0.20065(17) 1.1540(3)
N4C N -0.20065(17) -0.43848(15) 1.1540(3)
N5A N -0.01953(14) 0.20674(21) 0.1703(3)
N5B N -0.20674(21) -0.22627(15) 0.1703(3)
N5O N 0.44040(15) 0.31380(14) 1.1630(3)
N5P N -0.31380(14) 0.12659(21) 1.1630(3)
N5Q N -0.12659(21) -0.44040(15) 1.1630(3)
N6O N 0.53922(15) 0.12791(14) 0.6742(3)
N6J N 0.20542(14) 0.07797(21) 0.3409(3)
N6A N -0.20542(14) -0.07797(21) 0.6591(3)
N6P N -0.12791(14) 0.41130(21) 0.6742(3)
N6B N 0.07797(21) -0.12745(15) 0.6591(3)
N6K N -0.07797(21) 0.12745(15) 0.3409(3)
N6I N -0.12745(15) -0.20542(14) 0.3409(3)
N6D N 0.46125(14) 0.25536(21) 0.9924(3)
N6E N -0.25536(21) 0.20588(15) 0.9924(3)
N6C N -0.20588(15) -0.46125(14) 0.9924(3)
N7A N -0.13453(13) 0.18184(18) 0.5342(3)
N7B N -0.18184(18) -0.31637(13) 0.5342(3)
N7O N 0.35030(13) 0.19880(13) 0.7991(3)
N7P N -0.19880(13) 0.15149(18) 0.7991(3)
N7Q N -0.15149(18) -0.35030(13) 0.7991(3)
N7J N 0.13453(13) -0.18184(18) 0.4658(3)
N7G N 0.19880(13) -0.15149(18) 0.2009(3)
N8O N 0.38183(13) 0.15367(13) 0.6776(3)
N8J N 0.17966(13) -0.10518(18) 0.3443(3)
N8A N -0.17966(13) 0.10518(18) 0.6557(3)
N8P N -0.15367(13) 0.22815(18) 0.6776(3)
N8B N -0.10518(18) -0.28484(13) 0.6557(3)
N8Q N -0.22815(18) -0.38183(13) 0.6776(3)
N8G N 0.15367(13) -0.22815(18) 0.3224(3)
N9A N -0.0113(2) 0.0437(3) 0.2700(7)
N9B N -0.0437(3) -0.0550(2) 0.2700(7)
N9O N 0.6117(2) 0.3220(2) 1.0633(7)
N9P N -0.3220(2) 0.2896(3) 1.0633(7)
N9Q N -0.2896(3) -0.6117(2) 1.0633(7)
N9P_2 N 0.6780(2) 0.2896(3) 1.0633(7)
N9Q_2 N 0.7104(3) 0.3883(2) 1.0633(7)
N10O N 0.50819(19) 0.06934(16) 0.2364(4)
N10J N 0.26399(16) 0.10551(25) -0.0969(4)
N10A N -0.26399(16) -0.10551(25) 1.0969(4)
N10P N -0.06934(16) 0.43884(25) 0.2364(4)
N10B N 0.10551(25) -0.15848(19) 1.0969(4)
C1A C 0.0246(2) 0.2658(4) 0.0489(5)
C1B C -0.2658(4) -0.2412(3) 0.0489(5)
C1O C 0.4255(3) 0.3579(2) 1.2844(5)
C1P C -0.3579(2) 0.0675(4) 1.2844(5)
C1Q C -0.0675(4) -0.4255(3) 1.2844(5)
H1A H 0.0396 0.2861 0.0077
H1B H -0.2861 -0.2465 0.0077
H1O H 0.4202 0.3729 1.3256
H1P H -0.3729 0.0472 1.3256
H1Q H -0.0472 -0.4202 1.3256
C2A C 0.0249(2) 0.2305(3) 0.0429(5)
C2B C -0.2305(3) -0.2056(2) 0.0429(5)
C2O C 0.4611(2) 0.3582(2) 1.2904(5)
C2P C -0.3582(2) 0.1028(3) 1.2904(5)
C2Q C -0.1028(3) -0.4611(2) 1.2904(5)
H2A H 0.0397 0.2266 -0.0021
H2B H -0.2266 -0.1869 -0.0021
H2O H 0.4798 0.3730 1.3354
H2P H -0.3730 0.1067 1.3354
H2Q H -0.1067 -0.4798 1.3354
C3A C 0.00207(17) 0.20081(25) 0.1076(4)
C3B C -0.20081(25) -0.19874(19) 0.1076(4)
C3O C 0.46793(19) 0.33540(17) 1.2257(4)
C3P C -0.33540(17) 0.13252(25) 1.2257(4)
C3Q C -0.13252(25) -0.46793(19) 1.2257(4)
C4A C -0.02045(18) 0.24018(26) 0.1761(4)
C4B C -0.24018(26) -0.26063(19) 0.1761(4)
C4O C 0.40604(19) 0.31288(18) 1.1572(4)
C4P C -0.31288(18) 0.09315(26) 1.1572(4)
C4Q C -0.09315(26) -0.40604(19) 1.1572(4)
C5A C 0.0022(2) 0.2711(3) 0.1150(5)
C5B C -0.2711(3) -0.2689(2) 0.1150(5)
C5O C 0.3978(2) 0.3355(2) 1.2183(5)
C5P C -0.3355(2) 0.0622(3) 1.2183(5)
C5Q C -0.0622(3) -0.3978(2) 1.2183(5)
H3A H 0.0022 0.2950 0.1189
H3B H -0.2950 -0.2928 0.1189
H3O H 0.3739 0.3355 1.2144
H3P H -0.3355 0.0383 1.2144
H3Q H -0.0383 -0.3739 1.2144
C6A C 0.0007(2) 0.1617(3) 0.1191(5)
C6B C -0.1617(3) -0.1610(2) 0.1191(5)
C6O C 0.5057(2) 0.3340(2) 1.2142(5)
C6P C -0.3340(2) 0.1716(3) 1.2142(5)
C6Q C -0.1716(3) -0.5057(2) 1.2142(5)
C7A C -0.04661(19) 0.24004(26) 0.2516(4)
C7B C -0.24004(26) -0.28665(18) 0.2516(4)
C7O C 0.38002(18) 0.28672(19) 1.0817(4)
C7P C -0.28672(19) 0.09329(26) 1.0817(4)
C7Q C -0.09329(26) -0.38002(18) 1.0817(4)
C8A C -0.0197(2) 0.1077(3) 0.2198(6)
C8B C -0.1077(3) -0.1274(2) 0.2198(6)
C8O C 0.5393(2) 0.3136(2) 1.1135(6)
C8P C -0.3136(2) 0.2256(3) 1.1135(6)
C8Q C -0.2256(3) -0.5393(2) 1.1135(6)
C9A C -0.0291(5) 0.0769(6) 0.1640(10)
C9B C -0.0769(6) -0.1060(4) 0.1640(10)
C9O C 0.5607(4) 0.3042(5) 1.1693(10)
C9P C -0.3042(5) 0.2564(6) 1.1693(10)
C9Q C -0.2564(6) -0.5607(4) 1.1693(10)
H4A H -0.0378 0.0771 0.1043
H4B H -0.0771 -0.1149 0.1043
H4O H 0.5518 0.2955 1.2290
H4P H -0.2955 0.2562 1.2290
H4Q H -0.2562 -0.5518 1.2290
C10A C -0.0262(6) 0.0449(7) 0.1935(13)
C10B C -0.0449(7) -0.0711(4) 0.1935(13)
C10O C 0.5956(4) 0.3071(6) 1.1398(13)
C10P C -0.3071(6) 0.2884(7) 1.1398(13)
C10Q C -0.2884(7) -0.5956(4) 1.1398(13)
H5A H -0.0358 0.0229 0.1549
H5B H -0.0229 -0.0587 0.1549
H5O H 0.6080 0.2975 1.1784
H5P H -0.2975 0.3104 1.1784
H5Q H -0.3104 -0.6080 1.1784
C11A C -0.0066(4) 0.0703(5) 0.3305(10)
C11B C -0.0703(5) -0.0769(3) 0.3305(10)
C11O C 0.5898(3) 0.3267(4) 1.0028(10)
C11P C -0.3267(4) 0.2630(5) 1.0028(10)
C11Q C -0.2630(5) -0.5898(3) 1.0028(10)
H6A H -0.0012 0.0668 0.3912
H6B H -0.0668 -0.0680 0.3912
H6O H 0.5987 0.3321 0.9421
H6P H -0.3321 0.2665 0.9421
H6Q H -0.2665 -0.5987 0.9421
C12A C -0.0090(3) 0.1036(4) 0.3095(7)
C12B C -0.1036(4) -0.1126(3) 0.3095(7)
C12O C 0.5541(3) 0.3243(3) 1.0238(7)
C12P C -0.3243(3) 0.2297(4) 1.0238(7)
C12Q C -0.2297(4) -0.5541(3) 1.0238(7)
H7A H -0.0037 0.1228 0.3540
H7B H -0.1228 -0.1265 0.3540
H7O H 0.5402 0.3296 0.9793
H7P H -0.3296 0.2105 0.9793
H7Q H -0.2105 -0.5402 0.9793
C13A C -0.09008(16) 0.19887(23) 0.3707(4)
C13B C -0.19887(23) -0.28895(17) 0.3707(4)
C13O C 0.37772(17) 0.24325(16) 0.9626(4)
C13P C -0.24325(16) 0.13446(23) 0.9626(4)
C13Q C -0.13446(23) -0.37772(17) 0.9626(4)
C14A C -0.12835(17) 0.16584(25) 0.3780(4)
C14B C -0.16584(25) -0.29419(19) 0.3780(4)
C14O C 0.37248(19) 0.20498(17) 0.9553(4)
C14P C -0.20498(17) 0.16749(25) 0.9553(4)
C14Q C -0.16749(25) -0.37248(19) 0.9553(4)
H8A H -0.1400 0.1491 0.3276
H8B H -0.1491 -0.2891 0.3276
H8O H 0.3776 0.1933 1.0057
H8P H -0.1933 0.1842 1.0057
H8Q H -0.1842 -0.3776 1.0057
C15A C -0.14837(16) 0.15838(23) 0.4592(4)
C15B C -0.15838(23) -0.30675(17) 0.4592(4)
C15O C 0.35992(17) 0.18496(16) 0.8741(4)
C15P C -0.18496(16) 0.17495(23) 0.8741(4)
C15Q C -0.17495(23) -0.35992(17) 0.8741(4)
H9A H -0.1732 0.1356 0.4632
H9B H -0.1356 -0.3088 0.4632
H9O H 0.3579 0.1601 0.8701
H9P H -0.1601 0.1977 0.8701
H9Q H -0.1977 -0.3579 0.8701
C16A C -0.09871(16) 0.21517(23) 0.5245(4)
C16B C -0.21517(23) -0.31388(16) 0.5245(4)
C16O C 0.35279(16) 0.23462(16) 0.8088(4)
C16P C -0.23462(16) 0.11816(23) 0.8088(4)
C16Q C -0.11816(23) -0.35279(16) 0.8088(4)
H10A H -0.0890 0.2329 0.5736
H10B H -0.2329 -0.3219 0.5736
H10O H 0.3448 0.2443 0.7597
H10P H -0.2443 0.1004 0.7597
H10Q H -0.1004 -0.3448 0.7597
C17A C -0.07598(16) 0.22422(23) 0.4464(4)
C17B C -0.22422(23) -0.30020(17) 0.4464(4)
C17O C 0.36647(17) 0.25735(16) 0.8869(4)
C17P C -0.25735(16) 0.10911(23) 0.8869(4)
C17Q C -0.10911(23) -0.36647(17) 0.8869(4)
H11A H -0.0513 0.2471 0.4440
H11B H -0.2471 -0.2984 0.4440
H11O H 0.3683 0.2820 0.8893
H11P H -0.2820 0.0862 0.8893
H11Q H -0.0862 -0.3683 0.8893
C18O C 0.5992(3) 0.1311(2) 0.7124(5)
C18J C 0.2022(2) 0.1347(4) 0.3791(5)
C18A C -0.2022(2) -0.1347(4) 0.6209(5)
C18P C -0.1311(2) 0.4680(4) 0.7124(5)
C18B C 0.1347(4) -0.0675(3) 0.6209(5)
H12O H 0.6216 0.1298 0.6953
H12J H 0.2035 0.1584 0.3620
H12A H -0.2035 -0.1584 0.6380
H12P H -0.1298 0.4917 0.6953
H12B H 0.1584 -0.0451 0.6380
C19O C 0.5712(2) 0.1262(2) 0.6483(5)
C19J C 0.2071(2) 0.1116(3) 0.3150(5)
C19A C -0.2071(2) -0.1116(3) 0.6850(5)
C19P C -0.1262(2) 0.4449(3) 0.6483(5)
C19B C 0.1116(3) -0.0955(2) 0.6850(5)
C20O C 0.5693(2) 0.1146(2) 0.5486(4)
C20J C 0.2187(2) 0.1213(3) 0.2153(4)
C20A C -0.2187(2) -0.1213(3) 0.7847(4)
C20P C -0.1146(2) 0.4546(3) 0.5486(4)
C20B C 0.1213(3) -0.0974(2) 0.7847(4)
C21O C 0.5266(2) 0.09343(17) 0.4196(4)
C21J C 0.23990(17) 0.09980(26) 0.0863(4)
C21A C -0.23990(17) -0.09980(26) 0.9137(4)
C21P C -0.09343(17) 0.43313(26) 0.4196(4)
C21B C 0.09980(26) -0.1401(2) 0.9137(4)
C22O C 0.4926(2) 0.0593(2) 0.3964(4)
C22J C 0.2740(2) 0.0999(3) 0.0631(4)
C22A C -0.2740(2) -0.0999(3) 0.9369(4)
C22P C -0.0593(2) 0.4332(3) 0.3964(4)
C22B C 0.0999(3) -0.1741(2) 0.9369(4)
H13O H 0.4751 0.0431 0.4418
H13J H 0.2902 0.0986 0.1085
H13A H -0.2902 -0.0986 0.8915
H13P H -0.0431 0.4319 0.4418
H13B H 0.0986 -0.1916 0.8915
C23O C 0.4846(2) 0.0493(2) 0.3042(5)
C23J C 0.2840(2) 0.1019(3) -0.0291(5)
C23A C -0.2840(2) -0.1019(3) 1.0291(5)
C23P C -0.0493(2) 0.4352(3) 0.3042(5)
C23B C 0.1019(3) -0.1821(2) 1.0291(5)
H14O H 0.4606 0.0267 0.2895
H14J H 0.3066 0.1005 -0.0438
H14A H -0.3066 -0.1005 1.0438
H14P H -0.0267 0.4338 0.2895
H14B H 0.1005 -0.2061 1.0438
C24O C 0.5412(3) 0.1022(2) 0.2591(5)
C24J C 0.2311(2) 0.1056(4) -0.0742(5)
C24A C -0.2311(2) -0.1056(4) 1.0742(5)
C24P C -0.1022(2) 0.4389(4) 0.2591(5)
C24B C 0.1056(4) -0.1255(3) 1.0742(5)
H15O H 0.5583 0.1174 0.2119
H15J H 0.2159 0.1075 -0.1214
H15A H -0.2159 -0.1075 1.1214
H15P H -0.1174 0.4408 0.2119
H15B H 0.1075 -0.1084 1.1214
C25O C 0.5517(3) 0.1154(2) 0.3487(5)
C25J C 0.2179(2) 0.1029(4) 0.0154(5)
C25A C -0.2179(2) -0.1029(4) 0.9846(5)
C25P C -0.1154(2) 0.4362(4) 0.3487(5)
C25B C 0.1029(4) -0.1150(3) 0.9846(5)
H16O H 0.5754 0.1387 0.3611
H16J H 0.1946 0.1033 0.0278
H16A H -0.1946 -0.1033 0.9722
H16P H -0.1387 0.4366 0.3611
H16B H 0.1033 -0.0913 0.9722
C26O C 0.37997(19) 0.12309(18) 0.7269(5)
C26J C 0.21024(18) -0.07646(26) 0.3936(5)
C26A C -0.21024(18) 0.07646(26) 0.6064(5)
C26P C -0.12309(18) 0.25687(26) 0.7269(5)
C26B C -0.07646(26) -0.28670(19) 0.6064(5)
H17O H 0.3566 0.1062 0.7580
H17J H 0.2271 -0.0830 0.4247
H17A H -0.2271 0.0830 0.5753
H17P H -0.1062 0.2503 0.7580
H17B H -0.0830 -0.3101 0.5753
C27O C 0.41170(19) 0.11599(19) 0.7327(5)
C27J C 0.21734(19) -0.03763(27) 0.3994(5)
C27A C -0.21734(19) 0.03763(27) 0.6006(5)
C27P C -0.11599(19) 0.29570(27) 0.7327(5)
C27B C -0.03763(27) -0.25497(19) 0.6006(5)
H18O H 0.4094 0.0950 0.7683
H18J H 0.2383 -0.0190 0.4350
H18A H -0.2383 0.0190 0.5650
H18P H -0.0950 0.3143 0.7683
H18B H -0.0190 -0.2573 0.5650
C28O C 0.44544(17) 0.13925(16) 0.6872(4)
C28J C 0.19408(16) -0.02715(23) 0.3539(4)
C28A C -0.19408(16) 0.02715(23) 0.6461(4)
C28P C -0.13925(16) 0.30618(23) 0.6872(4)
C28B C -0.02715(23) -0.22123(17) 0.6461(4)
C29O C 0.44784(18) 0.17067(19) 0.6350(5)
C29J C 0.16266(19) -0.05617(26) 0.3017(5)
C29A C -0.16266(19) 0.05617(26) 0.6983(5)
C29P C -0.17067(19) 0.27716(26) 0.6350(5)
C29B C -0.05617(26) -0.21883(18) 0.6983(5)
H19O H 0.4706 0.1871 0.6013
H19J H 0.1462 -0.0499 0.2680
H19A H -0.1462 0.0499 0.7320
H19P H -0.1871 0.2834 0.6013
H19B H -0.0499 -0.1961 0.7320
C30O C 0.41584(18) 0.17654(19) 0.6346(4)
C30J C 0.15679(19) -0.09404(26) 0.3013(4)
C30A C -0.15679(19) 0.09404(26) 0.6987(4)
C30P C -0.17654(19) 0.23929(26) 0.6346(4)
C30B C -0.09404(26) -0.25083(18) 0.6987(4)
H20O H 0.4183 0.1981 0.6018
H20J H 0.1352 -0.1132 0.2685
H20A H -0.1352 0.1132 0.7315
H20P H -0.1981 0.2201 0.6018
H20B H -0.1132 -0.2484 0.7315
C31O C 0.4959(2) 0.13567(18) 0.7739(4)
C31J C 0.19766(18) 0.02686(27) 0.4406(4)
C31A C -0.19766(18) -0.02686(27) 0.5594(4)
C31P C -0.13567(18) 0.36019(27) 0.7739(4)
C31B C 0.02686(27) -0.1708(2) 0.5594(4)
C32O C 0.53304(19) 0.1345(2) 0.7617(4)
C32J C 0.1988(2) 0.06517(28) 0.4284(4)
C32A C -0.1988(2) -0.06517(28) 0.5716(4)
C32P C -0.1345(2) 0.39850(28) 0.7617(4)
C32B C 0.06517(28) -0.13363(19) 0.5716(4)
C33O C 0.5604(2) 0.1401(3) 0.8290(5)
C33J C 0.1932(3) 0.0869(4) 0.4957(5)
C33A C -0.1932(3) -0.0869(4) 0.5043(5)
C33P C -0.1401(3) 0.4202(4) 0.8290(5)
C33B C 0.0869(4) -0.1063(2) 0.5043(5)
H21O H 0.5566 0.1451 0.8898
H21J H 0.1882 0.0781 0.5565
H21A H -0.1882 -0.0781 0.4435
H21P H -0.1451 0.4114 0.8898
H21B H 0.0781 -0.1101 0.4435
C34O C 0.5935(3) 0.1381(3) 0.8031(6)
C34J C 0.1952(3) 0.1220(4) 0.4698(6)
C34A C -0.1952(3) -0.1220(4) 0.5302(6)
C34P C -0.1381(3) 0.4553(4) 0.8031(6)
C34B C 0.1220(4) -0.0732(3) 0.5302(6)
H22O H 0.6123 0.1415 0.8474
H22J H 0.1918 0.1374 0.5141
H22A H -0.1918 -0.1374 0.4859
H22P H -0.1415 0.4707 0.8474
H22B H 0.1374 -0.0544 0.4859
O8O O 0.36996(12) 0.22074(13) 0.5984(3)
O8A O -0.11259(13) 0.18412(18) 0.7349(3)
O8P O -0.22074(13) 0.14921(18) 0.5984(3)
O8B O -0.18412(18) -0.29671(12) 0.7349(3)
O8Q O -0.14921(18) -0.36996(12) 0.5984(3)
O8J O 0.11259(13) -0.18412(18) 0.2651(3)
O8G O 0.22074(13) -0.14921(18) 0.4016(3)
H23O H 0.385(2) 0.244(3) 0.619(5)
H23A H -0.089(3) 0.193(4) 0.714(5)
H23P H -0.244(3) 0.140(4) 0.619(5)
H23B H -0.193(4) -0.282(2) 0.714(5)
H23Q H -0.140(4) -0.385(2) 0.619(5)
H23J H 0.089(3) -0.193(4) 0.286(5)
H23G H 0.244(3) -0.140(4) 0.381(5)
H24O H 0.378(2) 0.220(2) 0.544(6)
H24A H -0.113(2) 0.176(3) 0.789(6)
H24P H -0.220(2) 0.157(3) 0.544(6)
H24B H -0.176(3) -0.289(2) 0.789(6)
H24Q H -0.157(3) -0.378(2) 0.544(6)
H24J H 0.113(2) -0.176(3) 0.211(6)
H24G H 0.220(2) -0.157(3) 0.456(6)
loop_
_geom_bond_atom_site_label_1
_geom_bond_atom_site_label_2
_geom_bond_site_symmetry_1
_geom_bond_site_symmetry_2
Zn1 N7 1_555 1_555
Zn2 N9 1_555 1_555
Co1 N1 1_555 1_555
O1 C6 1_555 1_555
O2 C7 1_555 1_555
O3 C31 1_555 1_555
O4 C20 1_555 1_555
O5 N11 1_555 1_555
O6 N11 1_555 1_555
O7 N11 1_555 1_555
N1 C6 1_555 1_555
N2 Co1 1_555 1_555
N3 C28 1_555 1_555
N4 C20 1_555 1_555
N5 Co1 1_555 1_555
N6 C19 1_555 1_555
N7 C15 1_555 1_555
N8 Zn1 1_555 1_555
N9 C10 1_555 1_555
N10 C23 1_555 1_555
C1 H1 1_555 1_555
C2 C1 1_555 1_555
H2 C2 1_555 1_555
C3 N5 1_555 1_555
C4 N5 1_555 1_555
C5 C1 1_555 1_555
H3 C5 1_555 1_555
C6 C3 1_555 1_555
C7 N2 1_555 1_555
C8 N1 1_555 1_555
C9 C8 1_555 1_555
H4 C9 1_555 1_555
C10 C9 1_555 1_555
H5 C10 1_555 1_555
C11 N9 1_555 1_555
H6 C11 1_555 1_555
C12 C8 1_555 1_555
H7 C12 1_555 1_555
C13 N2 1_555 1_555
C14 C13 1_555 1_555
H8 C14 1_555 1_555
C15 C14 1_555 1_555
H9 C15 1_555 1_555
C16 N7 1_555 1_555
H10 C16 1_555 1_555
C17 C13 1_555 1_555
H11 C17 1_555 1_555
C18 H12 1_555 1_555
C19 C18 1_555 1_555
C20 C19 1_555 1_555
C21 N4 1_555 1_555
C22 C21 1_555 1_555
H13 C22 1_555 1_555
C23 C22 1_555 1_555
H14 C23 1_555 1_555
C24 N10 1_555 1_555
H15 C24 1_555 1_555
C25 C21 1_555 1_555
H16 C25 1_555 1_555
C26 N8 1_555 1_555
H17 C26 1_555 1_555
C27 C26 1_555 1_555
H18 C27 1_555 1_555
C28 C27 1_555 1_555
C29 C28 1_555 1_555
H19 C29 1_555 1_555
C30 N8 1_555 1_555
H20 C30 1_555 1_555
C31 N3 1_555 1_555
C32 N6 1_555 1_555
C33 C32 1_555 1_555
H21 C33 1_555 1_555
C34 C18 1_555 1_555
H22 C34 1_555 1_555
O8 Zn1 1_555 1_555
H23 O8 1_555 1_555
H24 O8 1_555 1_555
Zn1A N7A 1_555 1_555
Zn1B N7B 1_555 1_555
Zn1J N7J 1_555 1_555
Zn2O N9O 1_555 1_555
Zn2O_2 N9P 1_555 1_555
Zn2O_3 N9Q 1_555 1_555
Co1A N1A 1_555 1_555
Co1B N1B 1_555 1_555
Co1O N1O 1_555 1_555
Co1P N1P 1_555 1_555
Co1Q N1Q 1_555 1_555
Co1K N3 1_555 1_555
Co1E N3O 1_555 1_555
Co1I N3A 1_555 1_555
Co1C N3P 1_555 1_555
Co1J N3B 1_555 1_555
O1A C6A 1_555 1_555
O1B C6B 1_555 1_555
O1O C6O 1_555 1_555
O1P C6P 1_555 1_555
O1Q C6Q 1_555 1_555
O2A C7A 1_555 1_555
O2B C7B 1_555 1_555
O2O C7O 1_555 1_555
O2P C7P 1_555 1_555
O2Q C7Q 1_555 1_555
O3O C31O 1_555 1_555
O3J C31J 1_555 1_555
O3A C31A 1_555 1_555
O3P C31P 1_555 1_555
O3B C31B 1_555 1_555
O4O C20O 1_555 1_555
O4J C20J 1_555 1_555
O4A C20A 1_555 1_555
O4P C20P 1_555 1_555
O4B C20B 1_555 1_555
N1A C6A 1_555 1_555
N1B C6B 1_555 1_555
N1O C6O 1_555 1_555
N1P C6P 1_555 1_555
N1Q C6Q 1_555 1_555
N2A Co1A 1_555 1_555
N2B Co1B 1_555 1_555
N2O Co1O 1_555 1_555
N2P Co1P 1_555 1_555
N2Q Co1Q 1_555 1_555
N3O C28O 1_555 1_555
N3J Co1 1_555 1_555
N3A C28A 1_555 1_555
N3P C28P 1_555 1_555
N3B C28B 1_555 1_555
N3K Co1A 1_555 1_555
N3I Co1B 1_555 1_555
N3D Co1O 1_555 1_555
N3E Co1P 1_555 1_555
N3C Co1Q 1_555 1_555
N4O Co1E 1_555 1_555
N4J Co1 1_555 1_555
N4A Co1I 1_555 1_555
N4P Co1C 1_555 1_555
N4B Co1J 1_555 1_555
N4K Co1A 1_555 1_555
N4I Co1B 1_555 1_555
N4D Co1O 1_555 1_555
N4E Co1P 1_555 1_555
N4C Co1Q 1_555 1_555
N5A Co1A 1_555 1_555
N5B Co1B 1_555 1_555
N5O Co1O 1_555 1_555
N5P Co1P 1_555 1_555
N5Q Co1Q 1_555 1_555
N6O Co1E 1_555 1_555
N6J Co1 1_555 1_555
N6A Co1I 1_555 1_555
N6P Co1C 1_555 1_555
N6B Co1J 1_555 1_555
N6K Co1A 1_555 1_555
N6I Co1B 1_555 1_555
N6D Co1O 1_555 1_555
N6E Co1P 1_555 1_555
N6C Co1Q 1_555 1_555
N7A C15A 1_555 1_555
N7B C15B 1_555 1_555
N7O Zn1 1_555 1_555
N7P Zn1A 1_555 1_555
N7Q Zn1B 1_555 1_555
N7G Zn1J 1_555 1_555
N8O Zn1 1_555 1_555
N8J Zn1J 1_555 1_555
N8A Zn1A 1_555 1_555
N8P Zn1A 1_555 1_555
N8B Zn1B 1_555 1_555
N8Q Zn1B 1_555 1_555
N8G Zn1J 1_555 1_555
N9A Zn2 1_555 1_555
N9B Zn2 1_555 1_555
N9O C10O 1_555 1_555
N9P C10P 1_555 1_555
N9Q C10Q 1_555 1_555
N9P_2 Zn2O 1_555 1_555
N9Q_2 Zn2O 1_555 1_555
N10O C23O 1_555 1_555
N10J C23J 1_555 1_555
N10A C23A 1_555 1_555
N10P C23P 1_555 1_555
N10B C23B 1_555 1_555
C1A H1A 1_555 1_555
C1B H1B 1_555 1_555
C1O H1O 1_555 1_555
C1P H1P 1_555 1_555
C1Q H1Q 1_555 1_555
C2A C1A 1_555 1_555
C2B C1B 1_555 1_555
C2O C1O 1_555 1_555
C2P C1P 1_555 1_555
C2Q C1Q 1_555 1_555
H2A C2A 1_555 1_555
H2B C2B 1_555 1_555
H2O C2O 1_555 1_555
H2P C2P 1_555 1_555
H2Q C2Q 1_555 1_555
C3A N5A 1_555 1_555
C3B N5B 1_555 1_555
C3O N5O 1_555 1_555
C3P N5P 1_555 1_555
C3Q N5Q 1_555 1_555
C4A N5A 1_555 1_555
C4B N5B 1_555 1_555
C4O N5O 1_555 1_555
C4P N5P 1_555 1_555
C4Q N5Q 1_555 1_555
C5A C1A 1_555 1_555
C5B C1B 1_555 1_555
C5O C1O 1_555 1_555
C5P C1P 1_555 1_555
C5Q C1Q 1_555 1_555
H3A C5A 1_555 1_555
H3B C5B 1_555 1_555
H3O C5O 1_555 1_555
H3P C5P 1_555 1_555
H3Q C5Q 1_555 1_555
C6A C3A 1_555 1_555
C6B C3B 1_555 1_555
C6O C3O 1_555 1_555
C6P C3P 1_555 1_555
C6Q C3Q 1_555 1_555
C7A N2A 1_555 1_555
C7B N2B 1_555 1_555
C7O N2O 1_555 1_555
C7P N2P 1_555 1_555
C7Q N2Q 1_555 1_555
C8A N1A 1_555 1_555
C8B N1B 1_555 1_555
C8O N1O 1_555 1_555
C8P N1P 1_555 1_555
C8Q N1Q 1_555 1_555
C9A C8A 1_555 1_555
C9B C8B 1_555 1_555
C9O C8O 1_555 1_555
C9P C8P 1_555 1_555
C9Q C8Q 1_555 1_555
H4A C9A 1_555 1_555
H4B C9B 1_555 1_555
H4O C9O 1_555 1_555
H4P C9P 1_555 1_555
H4Q C9Q 1_555 1_555
C10A N9A 1_555 1_555
C10B N9B 1_555 1_555
C10O C9O 1_555 1_555
C10P C9P 1_555 1_555
C10Q C9Q 1_555 1_555
H5A C10A 1_555 1_555
H5B C10B 1_555 1_555
H5O C10O 1_555 1_555
H5P C10P 1_555 1_555
H5Q C10Q 1_555 1_555
C11A N9A 1_555 1_555
C11B N9B 1_555 1_555
C11O N9O 1_555 1_555
C11P N9P 1_555 1_555
C11Q N9Q 1_555 1_555
H6A C11A 1_555 1_555
H6B C11B 1_555 1_555
H6O C11O 1_555 1_555
H6P C11P 1_555 1_555
H6Q C11Q 1_555 1_555
C12A C8A 1_555 1_555
C12B C8B 1_555 1_555
C12O C8O 1_555 1_555
C12P C8P 1_555 1_555
C12Q C8Q 1_555 1_555
H7A C12A 1_555 1_555
H7B C12B 1_555 1_555
H7O C12O 1_555 1_555
H7P C12P 1_555 1_555
H7Q C12Q 1_555 1_555
C13A N2A 1_555 1_555
C13B N2B 1_555 1_555
C13O N2O 1_555 1_555
C13P N2P 1_555 1_555
C13Q N2Q 1_555 1_555
C14A C13A 1_555 1_555
C14B C13B 1_555 1_555
C14O C13O 1_555 1_555
C14P C13P 1_555 1_555
C14Q C13Q 1_555 1_555
H8A C14A 1_555 1_555
H8B C14B 1_555 1_555
H8O C14O 1_555 1_555
H8P C14P 1_555 1_555
H8Q C14Q 1_555 1_555
C15A C14A 1_555 1_555
C15B C14B 1_555 1_555
C15O N7O 1_555 1_555
C15P N7P 1_555 1_555
C15Q N7Q 1_555 1_555
H9A C15A 1_555 1_555
H9B C15B 1_555 1_555
H9O C15O 1_555 1_555
H9P C15P 1_555 1_555
H9Q C15Q 1_555 1_555
C16A N7A 1_555 1_555
C16B N7B 1_555 1_555
C16O N7O 1_555 1_555
C16P N7P 1_555 1_555
C16Q N7Q 1_555 1_555
H10A C16A 1_555 1_555
H10B C16B 1_555 1_555
H10O C16O 1_555 1_555
H10P C16P 1_555 1_555
H10Q C16Q 1_555 1_555
C17A C13A 1_555 1_555
C17B C13B 1_555 1_555
C17O C13O 1_555 1_555
C17P C13P 1_555 1_555
C17Q C13Q 1_555 1_555
H11A C17A 1_555 1_555
H11B C17B 1_555 1_555
H11O C17O 1_555 1_555
H11P C17P 1_555 1_555
H11Q C17Q 1_555 1_555
C18O H12O 1_555 1_555
C18J H12J 1_555 1_555
C18A H12A 1_555 1_555
C18P H12P 1_555 1_555
C18B H12B 1_555 1_555
C19O N6O 1_555 1_555
C19J N6J 1_555 1_555
C19A N6A 1_555 1_555
C19P N6P 1_555 1_555
C19B N6B 1_555 1_555
C20O N4O 1_555 1_555
C20J N4J 1_555 1_555
C20A N4A 1_555 1_555
C20P N4P 1_555 1_555
C20B N4B 1_555 1_555
C21O N4O 1_555 1_555
C21J N4J 1_555 1_555
C21A N4A 1_555 1_555
C21P N4P 1_555 1_555
C21B N4B 1_555 1_555
C22O C21O 1_555 1_555
C22J C21J 1_555 1_555
C22A C21A 1_555 1_555
C22P C21P 1_555 1_555
C22B C21B 1_555 1_555
H13O C22O 1_555 1_555
H13J C22J 1_555 1_555
H13A C22A 1_555 1_555
H13P C22P 1_555 1_555
H13B C22B 1_555 1_555
C23O C22O 1_555 1_555
C23J C22J 1_555 1_555
C23A C22A 1_555 1_555
C23P C22P 1_555 1_555
C23B C22B 1_555 1_555
H14O C23O 1_555 1_555
H14J C23J 1_555 1_555
H14A C23A 1_555 1_555
H14P C23P 1_555 1_555
H14B C23B 1_555 1_555
C24O N10O 1_555 1_555
C24J N10J 1_555 1_555
C24A N10A 1_555 1_555
C24P N10P 1_555 1_555
C24B N10B 1_555 1_555
H15O C24O 1_555 1_555
H15J C24J 1_555 1_555
H15A C24A 1_555 1_555
H15P C24P 1_555 1_555
H15B C24B 1_555 1_555
C25O C21O 1_555 1_555
C25J C21J 1_555 1_555
C25A C21A 1_555 1_555
C25P C21P 1_555 1_555
C25B C21B 1_555 1_555
H16O C25O 1_555 1_555
H16J C25J 1_555 1_555
H16A C25A 1_555 1_555
H16P C25P 1_555 1_555
H16B C25B 1_555 1_555
C26O N8O 1_555 1_555
C26J N8J 1_555 1_555
C26A N8A 1_555 1_555
C26P N8P 1_555 1_555
C26B N8B 1_555 1_555
H17O C26O 1_555 1_555
H17J C26J 1_555 1_555
H17A C26A 1_555 1_555
H17P C26P 1_555 1_555
H17B C26B 1_555 1_555
C27O C26O 1_555 1_555
C27J C26J 1_555 1_555
C27A C26A 1_555 1_555
C27P C26P 1_555 1_555
C27B C26B 1_555 1_555
H18O C27O 1_555 1_555
H18J C27J 1_555 1_555
H18A C27A 1_555 1_555
H18P C27P 1_555 1_555
H18B C27B 1_555 1_555
C28O C27O 1_555 1_555
C28J N3J 1_555 1_555
C28A C27A 1_555 1_555
C28P C27P 1_555 1_555
C28B C27B 1_555 1_555
C29O C28O 1_555 1_555
C29J C28J 1_555 1_555
C29A C28A 1_555 1_555
C29P C28P 1_555 1_555
C29B C28B 1_555 1_555
H19O C29O 1_555 1_555
H19J C29J 1_555 1_555
H19A C29A 1_555 1_555
H19P C29P 1_555 1_555
H19B C29B 1_555 1_555
C30O N8O 1_555 1_555
C30J N8J 1_555 1_555
C30A N8A 1_555 1_555
C30P N8P 1_555 1_555
C30B N8B 1_555 1_555
H20O C30O 1_555 1_555
H20J C30J 1_555 1_555
H20A C30A 1_555 1_555
H20P C30P 1_555 1_555
H20B C30B 1_555 1_555
C31O N3O 1_555 1_555
C31J N3J 1_555 1_555
C31A N3A 1_555 1_555
C31P N3P 1_555 1_555
C31B N3B 1_555 1_555
C32O N6O 1_555 1_555
C32J N6J 1_555 1_555
C32A N6A 1_555 1_555
C32P N6P 1_555 1_555
C32B N6B 1_555 1_555
C33O C32O 1_555 1_555
C33J C32J 1_555 1_555
C33A C32A 1_555 1_555
C33P C32P 1_555 1_555
C33B C32B 1_555 1_555
H21O C33O 1_555 1_555
H21J C33J 1_555 1_555
H21A C33A 1_555 1_555
H21P C33P 1_555 1_555
H21B C33B 1_555 1_555
C34O C18O 1_555 1_555
C34J C18J 1_555 1_555
C34A C18A 1_555 1_555
C34P C18P 1_555 1_555
C34B C18B 1_555 1_555
H22O C34O 1_555 1_555
H22J C34J 1_555 1_555
H22A C34A 1_555 1_555
H22P C34P 1_555 1_555
H22B C34B 1_555 1_555
O8O Zn1 1_555 1_555
O8A Zn1A 1_555 1_555
O8P Zn1A 1_555 1_555
O8B Zn1B 1_555 1_555
O8Q Zn1B 1_555 1_555
O8J Zn1J 1_555 1_555
O8G Zn1J 1_555 1_555
H23O O8O 1_555 1_555
H23A O8A 1_555 1_555
H23P O8P 1_555 1_555
H23B O8B 1_555 1_555
H23Q O8Q 1_555 1_555
H23J O8J 1_555 1_555
H23G O8G 1_555 1_555
H24O O8O 1_555 1_555
H24A O8A 1_555 1_555
H24P O8P 1_555 1_555
H24B O8B 1_555 1_555
H24Q O8Q 1_555 1_555
H24J O8J 1_555 1_555
H24G O8G 1_555 1_555
N4 Co1K 1_555 1_555
N6 Co1K 1_555 1_555
C2 C3 1_555 1_555
C4 C5 1_555 1_555
C4 C7 1_555 1_555
C11 C12 1_555 1_555
C16 C17 1_555 1_555
C24 C25 1_555 1_555
C29 C30 1_555 1_555
C31 C32 1_555 1_555
C33 C34 1_555 1_555
C2A C3A 1_555 1_555
C2B C3B 1_555 1_555
C2O C3O 1_555 1_555
C2P C3P 1_555 1_555
C2Q C3Q 1_555 1_555
C4A C5A 1_555 1_555
C4A C7A 1_555 1_555
C4B C5B 1_555 1_555
C4B C7B 1_555 1_555
C4O C5O 1_555 1_555
C4O C7O 1_555 1_555
C4P C5P 1_555 1_555
C4P C7P 1_555 1_555
C4Q C5Q 1_555 1_555
C4Q C7Q 1_555 1_555
C9A C10A 1_555 1_555
C9B C10B 1_555 1_555
C11A C12A 1_555 1_555
C11B C12B 1_555 1_555
C11O C12O 1_555 1_555
C11P C12P 1_555 1_555
C11Q C12Q 1_555 1_555
C14O C15O 1_555 1_555
C14P C15P 1_555 1_555
C14Q C15Q 1_555 1_555
C16A C17A 1_555 1_555
C16B C17B 1_555 1_555
C16O C17O 1_555 1_555
C16P C17P 1_555 1_555
C16Q C17Q 1_555 1_555
C18O C19O 1_555 1_555
C18J C19J 1_555 1_555
C18A C19A 1_555 1_555
C18P C19P 1_555 1_555
C18B C19B 1_555 1_555
C19O C20O 1_555 1_555
C19J C20J 1_555 1_555
C19A C20A 1_555 1_555
C19P C20P 1_555 1_555
C19B C20B 1_555 1_555
C24O C25O 1_555 1_555
C24J C25J 1_555 1_555
C24A C25A 1_555 1_555
C24P C25P 1_555 1_555
C24B C25B 1_555 1_555
C27J C28J 1_555 1_555
C29O C30O 1_555 1_555
C29J C30J 1_555 1_555
C29A C30A 1_555 1_555
C29P C30P 1_555 1_555
C29B C30B 1_555 1_555
C31O C32O 1_555 1_555
C31J C32J 1_555 1_555
C31A C32A 1_555 1_555
C31P C32P 1_555 1_555
C31B C32B 1_555 1_555
C33O C34O 1_555 1_555
C33J C34J 1_555 1_555
C33A C34A 1_555 1_555
C33P C34P 1_555 1_555
C33B C34B 1_555 1_555

#END
