
#######################################################################
#
#                 Cambridge Crystallographic Data Centre
#                                CCDC 
#
#######################################################################
#
# If this CIF has been generated from an entry in the Cambridge 
# Structural Database, then it will include bibliographic, chemical, 
# crystal, experimental, refinement or atomic coordinate data resulting 
# from the CCDC's data processing and validation procedures.
#
#######################################################################

data_WAHNEA
_symmetry_cell_setting           triclinic
_symmetry_space_group_name_H-M   'P -1'
_symmetry_Int_Tables_number      2
_space_group_name_Hall           '-P 1'
loop_
_symmetry_equiv_pos_site_id
_symmetry_equiv_pos_as_xyz
1 x,y,z
2 -x,-y,-z
_cell_length_a                   13.241(5)
_cell_length_b                   13.802(5)
_cell_length_c                   14.081(5)
_cell_angle_alpha                116.834(5)
_cell_angle_beta                 93.137(5)
_cell_angle_gamma                90.943(5)
_cell_volume                     2290.34
loop_
_atom_site_label
_atom_site_type_symbol
_atom_site_fract_x
_atom_site_fract_y
_atom_site_fract_z
Zn1 Zn 0.25660(2) 0.80978(2) 0.64196(2)
Co1 Co 0.25349(2) 0.25703(2) 0.52864(3)
O1 O 0.35125(15) -0.04659(14) 0.37333(15)
O2 O -0.00713(14) 0.75411(15) 0.32105(15)
N1 N 0.10746(16) 0.87229(17) 0.63721(17)
O3 O 0.14805(15) 0.41184(15) 0.36156(16)
N2 N 0.24801(16) 0.18731(16) 0.37968(17)
O4 O 0.24345(15) 0.74162(17) 0.47433(15)
O5 O 0.27003(16) 0.88347(14) 0.81280(15)
O6 O -0.51128(14) 0.58290(15) 0.30595(16)
N3 N -0.59560(16) 0.74181(16) 0.62607(17)
N4 N 0.18906(16) 0.66972(16) 0.64778(17)
N5 N -0.12076(16) 0.79567(16) 0.45270(17)
N6 N -0.38751(16) 0.66867(16) 0.44414(17)
N7 N 0.31626(16) 0.12187(16) 0.50858(17)
N8 N 0.32553(16) -0.04196(16) 0.65458(17)
C1 C 0.2135(3) 0.6589(3) 0.3947(3)
N9 N -0.25952(16) 0.67371(16) 0.32314(17)
C2 C 0.4271(2) 0.1389(2) 0.6616(2)
H1 H 0.4622 0.2006 0.6637
C3 C -0.3429(2) 0.6163(2) 0.2697(2)
C4 C 0.34717(19) 0.08811(19) 0.5867(2)
N10 N 0.18847(16) 0.37120(16) 0.50165(17)
C5 C 0.17753(19) 0.3507(2) 0.3981(2)
C6 C -0.4246(2) 0.6210(2) 0.5858(2)
H2 H -0.3670 0.5778 0.5710
C7 C 0.32075(19) 0.0461(2) 0.4062(2)
C8 C -0.04946(19) 0.85894(19) 0.5366(2)
C9 C 0.2971(2) -0.0018(2) 0.5879(2)
H3 H 0.2403 -0.0356 0.5387
C10 C 0.20920(19) 0.2388(2) 0.3265(2)
C11 C -0.0915(2) 0.7485(2) 0.3520(2)
C12 C -0.3483(2) 0.5606(2) 0.1591(2)
H4 H -0.4082 0.5202 0.1201
C13 C -0.45019(19) 0.67491(19) 0.5251(2)
N11 N 0.2165(3) 0.6479(2) 0.2979(2)
C14 C 0.2765(2) 0.0321(2) 0.2198(2)
H5 H 0.3001 -0.0394 0.1843
C15 C -0.17727(19) 0.6809(2) 0.2748(2)
C16 C -0.0641(2) 0.9684(2) 0.6030(2)
H6 H -0.1214 1.0023 0.5901
C17 C 0.2017(2) 0.1887(2) 0.2162(2)
H7 H 0.1740 0.2248 0.1778
C18 C -0.4246(2) 0.62054(19) 0.3420(2)
C19 C 0.2818(2) 0.0877(2) 0.3304(2)
C20 C 0.2124(2) 0.5689(2) 0.5826(2)
H8 H 0.2655 0.5593 0.5368
C21 C 0.16295(19) 0.47586(19) 0.5777(2)
C22 C -0.53710(19) 0.7348(2) 0.5486(2)
H9 H -0.5556 0.7722 0.5082
C23 C 0.4561(2) 0.0997(2) 0.7338(2)
H10 H 0.5101 0.1346 0.7866
C24 C 0.0903(2) 0.9771(2) 0.7030(2)
H11 H 0.1379 1.0176 0.7614
C25 C 0.0878(2) 0.4909(2) 0.6468(2)
H12 H 0.0516 0.4302 0.6454
C26 C 0.0055(2) 1.0271(2) 0.6880(2)
H13 H -0.0048 1.1010 0.7354
C27 C 0.1167(2) 0.6831(2) 0.7156(2)
H14 H 0.1000 0.7548 0.7632
C28 C 0.03827(19) 0.8156(2) 0.5584(2)
H15 H 0.0491 0.7410 0.5142
C29 C -0.5682(2) 0.6921(2) 0.6856(2)
H16 H -0.6082 0.6993 0.7422
C30 C -0.1770(2) 0.6274(2) 0.1655(2)
H17 H -0.1192 0.6322 0.1306
C31 C 0.0660(2) 0.5968(2) 0.7187(2)
H18 H 0.0168 0.6090 0.7691
C32 C -0.4832(2) 0.6307(2) 0.6669(2)
H19 H -0.4656 0.5957 0.7097
C33 C 0.2359(2) 0.0832(2) 0.1625(2)
H20 H 0.2312 0.0467 0.0867
C34 C 0.4043(2) 0.0085(2) 0.7268(2)
H21 H 0.4249 -0.0198 0.7748
C35 C -0.2638(2) 0.5656(3) 0.1068(2)
H22 H -0.2649 0.5270 0.0313
C38 C 0.1652(4) 0.5473(3) 0.2108(3)
H26 H 0.1729 0.5472 0.1419
H27 H 0.0931 0.5456 0.2226
H28 H 0.1961 0.4832 0.2107
C40 C 0.2294(4) 0.7405(3) 0.2778(4)
H32 H 0.2300 0.7160 0.2008
H33 H 0.2937 0.7798 0.3131
H34 H 0.1735 0.7888 0.3059
H35 H 0.1833 0.5901 0.4029
H37 H 0.2734 0.8541 0.8596
H38 H 0.2615 0.9540 0.8493
Zn1A Zn -0.25660(2) 0.19022(2) 0.35804(2)
Zn1_2 Zn -0.74340(2) 0.80978(2) 0.64196(2)
Zn1_3 Zn 0.25660(2) -0.19022(2) 0.64196(2)
Zn1A_2 Zn -0.25660(2) 1.19022(2) 0.35804(2)
Zn1A_3 Zn 0.74340(2) 0.19022(2) 0.35804(2)
Co1A Co -0.25349(2) 0.74297(2) 0.47136(3)
O1A O -0.35125(15) 1.04659(14) 0.62667(15)
O2A O 0.00713(14) 0.24589(15) 0.67895(15)
N1A N -0.10746(16) 0.12771(17) 0.36279(17)
O3A O -0.14805(15) 0.58816(15) 0.63844(16)
N2A N -0.24801(16) 0.81269(16) 0.62032(17)
O4A O -0.24345(15) 0.25838(17) 0.52567(15)
O5A O -0.27003(16) 0.11653(14) 0.18720(15)
O6A O 0.51128(14) 0.41710(15) 0.69405(16)
N3A N 0.59560(16) 0.25819(16) 0.37393(17)
N3_2 N 0.40440(16) 0.74181(16) 0.62607(17)
N3A_2 N -0.40440(16) 0.25819(16) 0.37393(17)
N4A N -0.18906(16) 0.33028(16) 0.35222(17)
N5A N 0.12076(16) 0.20433(16) 0.54730(17)
N6A N 0.38751(16) 0.33133(16) 0.55586(17)
N7A N -0.31626(16) 0.87813(16) 0.49142(17)
N8A N -0.32553(16) 1.04196(16) 0.34542(17)
N8_2 N 0.32553(16) 0.95804(16) 0.65458(17)
N8A_2 N -0.32553(16) 0.04196(16) 0.34542(17)
C1A C -0.2135(3) 0.3411(3) 0.6053(3)
N9A N 0.25952(16) 0.32629(16) 0.67686(17)
C2A C -0.4271(2) 0.8611(2) 0.3384(2)
H1A H -0.4622 0.7994 0.3363
C3A C 0.3429(2) 0.3837(2) 0.7303(2)
C4A C -0.34717(19) 0.91189(19) 0.4133(2)
N10A N -0.18847(16) 0.62880(16) 0.49835(17)
C5A C -0.17753(19) 0.6493(2) 0.6019(2)
C6A C 0.4246(2) 0.3790(2) 0.4142(2)
H2A H 0.3670 0.4222 0.4290
C7A C -0.32075(19) 0.9539(2) 0.5938(2)
C8A C 0.04946(19) 0.14106(19) 0.4634(2)
C9A C -0.2971(2) 1.0018(2) 0.4121(2)
H3A H -0.2403 1.0356 0.4613
C10A C -0.20920(19) 0.7612(2) 0.6735(2)
C11A C 0.0915(2) 0.2515(2) 0.6480(2)
C12A C 0.3483(2) 0.4394(2) 0.8409(2)
H4A H 0.4082 0.4798 0.8799
C13A C 0.45019(19) 0.32509(19) 0.4749(2)
N11A N -0.2165(3) 0.3521(2) 0.7021(2)
C14A C -0.2765(2) 0.9679(2) 0.7802(2)
H5A H -0.3001 1.0394 0.8157
C15A C 0.17727(19) 0.3191(2) 0.7252(2)
C16A C 0.0641(2) 0.0316(2) 0.3970(2)
H6A H 0.1214 -0.0023 0.4099
C17A C -0.2017(2) 0.8113(2) 0.7838(2)
H7A H -0.1740 0.7752 0.8222
C18A C 0.4246(2) 0.37946(19) 0.6580(2)
C19A C -0.2818(2) 0.9123(2) 0.6696(2)
C20A C -0.2124(2) 0.4311(2) 0.4174(2)
H8A H -0.2655 0.4407 0.4632
C21A C -0.16295(19) 0.52414(19) 0.4223(2)
C22A C 0.53710(19) 0.2652(2) 0.4514(2)
H9A H 0.5556 0.2278 0.4918
C23A C -0.4561(2) 0.9003(2) 0.2662(2)
H10A H -0.5101 0.8654 0.2134
C24A C -0.0903(2) 0.0229(2) 0.2970(2)
H11A H -0.1379 -0.0176 0.2386
C25A C -0.0878(2) 0.5091(2) 0.3532(2)
H12A H -0.0516 0.5698 0.3546
C26A C -0.0055(2) -0.0271(2) 0.3120(2)
H13A H 0.0048 -0.1010 0.2646
C27A C -0.1167(2) 0.3169(2) 0.2844(2)
H14A H -0.1000 0.2452 0.2368
C28A C -0.03827(19) 0.1844(2) 0.4416(2)
H15A H -0.0491 0.2590 0.4858
C29A C 0.5682(2) 0.3079(2) 0.3144(2)
H16A H 0.6082 0.3007 0.2578
C30A C 0.1770(2) 0.3726(2) 0.8345(2)
H17A H 0.1192 0.3678 0.8694
C31A C -0.0660(2) 0.4032(2) 0.2813(2)
H18A H -0.0168 0.3910 0.2309
C32A C 0.4832(2) 0.3693(2) 0.3331(2)
H19A H 0.4656 0.4043 0.2903
C33A C -0.2359(2) 0.9168(2) 0.8375(2)
H20A H -0.2312 0.9533 0.9133
C34A C -0.4043(2) 0.9915(2) 0.2732(2)
H21A H -0.4249 1.0198 0.2252
C35A C 0.2638(2) 0.4344(3) 0.8932(2)
H22A H 0.2649 0.4730 0.9687
C38A C -0.1652(4) 0.4527(3) 0.7892(3)
H26A H -0.1729 0.4528 0.8581
H27A H -0.0931 0.4544 0.7774
H28A H -0.1961 0.5168 0.7893
C40A C -0.2294(4) 0.2595(3) 0.7222(4)
H32A H -0.2300 0.2840 0.7992
H33A H -0.2937 0.2202 0.6869
H34A H -0.1735 0.2112 0.6941
H35A H -0.1833 0.4099 0.5971
H37A H -0.2734 0.1459 0.1404
H38A H -0.2615 0.0460 0.1507
O7 O 0.7568(2) 0.90283(17) 0.06832(18)
N12 N 0.6232(3) 0.7922(3) -0.0065(2)
C36 C 0.5602(3) 0.8738(3) -0.0172(3)
H23 H 0.6015 0.9405 0.0025
H24 H 0.5046 0.8896 0.0301
H25 H 0.5325 0.8456 -0.0912
C37 C 0.7163(3) 0.8145(3) 0.0330(3)
C39 C 0.5750(4) 0.6828(3) -0.0407(3)
H29 H 0.6261 0.6335 -0.0380
H30 H 0.5447 0.6551 -0.1138
H31 H 0.5222 0.6877 0.0072
H36 H 0.7538 0.7434 0.0290
O8 O 0.3460(2) 0.7576(2) 0.0647(2)
O10 O 0.3276(3) 0.6811(2) -0.1084(2)
O11 O 0.2887(3) 0.8443(2) -0.01933(19)
N13 N 0.3215(2) 0.7599(2) -0.0218(2)
O9 O 0.9202(2) 0.6930(3) 0.9573(3)
N14 N 1.0008(3) 0.7425(4) 0.9970(3)
O13 O 1.0791(4) 0.6857(7) 1.0295(6)
O14 O 1.0206(4) 0.8537(4) 1.0089(4)
O12 O 0.4008(3) 0.5708(3) 0.1042(3)
H39 H 0.4355 0.5891 0.1840
H40 H 0.3849 0.6295 0.0830
loop_
_geom_bond_atom_site_label_1
_geom_bond_atom_site_label_2
_geom_bond_site_symmetry_1
_geom_bond_site_symmetry_2
Zn1 N1 1_555 1_555
Co1 N2 1_555 1_555
O1 C7 1_555 1_555
O2 C11 1_555 1_555
N1 C24 1_555 1_555
O3 C5 1_555 1_555
N2 C10 1_555 1_555
O4 Zn1 1_555 1_555
O5 Zn1 1_555 1_555
O6 C18 1_555 1_555
N3 C22 1_555 1_555
O7 C37 1_555 1_555
N4 Zn1 1_555 1_555
N5 C8 1_555 1_555
N6 C13 1_555 1_555
N7 Co1 1_555 1_555
N8 C9 1_555 1_555
C1 O4 1_555 1_555
N9 C3 1_555 1_555
C2 H1 1_555 1_555
C3 C12 1_555 1_555
C4 N7 1_555 1_555
N10 Co1 1_555 1_555
C5 N10 1_555 1_555
C6 H2 1_555 1_555
C7 N7 1_555 1_555
C8 C16 1_555 1_555
O8 N13 1_555 1_555
C9 C4 1_555 1_555
H3 C9 1_555 1_555
C10 C5 1_555 1_555
C11 N5 1_555 1_555
C12 H4 1_555 1_555
C13 C6 1_555 1_555
N11 C1 1_555 1_555
C14 H5 1_555 1_555
C15 N9 1_555 1_555
C16 H6 1_555 1_555
C17 C10 1_555 1_555
H7 C17 1_555 1_555
C18 N6 1_555 1_555
C19 N2 1_555 1_555
N12 C36 1_555 1_555
C20 N4 1_555 1_555
H8 C20 1_555 1_555
O9 N14 1_555 1_555
C21 N10 1_555 1_555
C22 C13 1_555 1_555
H9 C22 1_555 1_555
O10 N13 1_555 1_555
O11 N13 1_555 1_555
O12 H39 1_555 1_555
C23 C2 1_555 1_555
H10 C23 1_555 1_555
C24 H11 1_555 1_555
C25 C21 1_555 1_555
H12 C25 1_555 1_555
C26 C16 1_555 1_555
H13 C26 1_555 1_555
C27 N4 1_555 1_555
H14 C27 1_555 1_555
C28 N1 1_555 1_555
H15 C28 1_555 1_555
C29 N3 1_555 1_555
H16 C29 1_555 1_555
C30 C15 1_555 1_555
H17 C30 1_555 1_555
C31 C25 1_555 1_555
H18 C31 1_555 1_555
C32 C6 1_555 1_555
H19 C32 1_555 1_555
C33 C14 1_555 1_555
H20 C33 1_555 1_555
C34 N8 1_555 1_555
H21 C34 1_555 1_555
C35 C12 1_555 1_555
H22 C35 1_555 1_555
C36 H23 1_555 1_555
H24 C36 1_555 1_555
H25 C36 1_555 1_555
C37 N12 1_555 1_555
N14 O13 1_555 1_555
C38 N11 1_555 1_555
H26 C38 1_555 1_555
H27 C38 1_555 1_555
H28 C38 1_555 1_555
O14 N14 1_555 1_555
C39 N12 1_555 1_555
H29 C39 1_555 1_555
H30 C39 1_555 1_555
H31 C39 1_555 1_555
C40 N11 1_555 1_555
H32 C40 1_555 1_555
H33 C40 1_555 1_555
H34 C40 1_555 1_555
H35 C1 1_555 1_555
H36 C37 1_555 1_555
H37 O5 1_555 1_555
H38 O5 1_555 1_555
H40 O12 1_555 1_555
Zn1A N1A 1_555 1_555
Zn1_2 N3 1_555 1_555
Zn1_3 N8 1_555 1_555
Zn1A_2 N8A 1_555 1_555
Zn1A_3 N3A 1_555 1_555
Co1A N5 1_555 1_555
O1A C7A 1_555 1_555
O2A C11A 1_555 1_555
N1A C24A 1_555 1_555
O3A C5A 1_555 1_555
N2A Co1A 1_555 1_555
O4A Zn1A 1_555 1_555
O5A Zn1A 1_555 1_555
O6A C18A 1_555 1_555
N3A C22A 1_555 1_555
N3_2 Zn1 1_555 1_555
N3A_2 Zn1A 1_555 1_555
N4A Zn1A 1_555 1_555
N5A Co1 1_555 1_555
N6A Co1 1_555 1_555
N7A Co1A 1_555 1_555
N8A C9A 1_555 1_555
N8_2 Zn1 1_555 1_555
N8A_2 Zn1A 1_555 1_555
C1A O4A 1_555 1_555
N9A Co1 1_555 1_555
C2A H1A 1_555 1_555
C3A N9A 1_555 1_555
C4A N7A 1_555 1_555
N10A Co1A 1_555 1_555
C5A N10A 1_555 1_555
C6A H2A 1_555 1_555
C7A N7A 1_555 1_555
C8A N5A 1_555 1_555
C9A C4A 1_555 1_555
H3A C9A 1_555 1_555
C10A N2A 1_555 1_555
C11A N5A 1_555 1_555
C12A C3A 1_555 1_555
H4A C12A 1_555 1_555
C13A N6A 1_555 1_555
N11A C1A 1_555 1_555
C14A H5A 1_555 1_555
C15A N9A 1_555 1_555
C16A C8A 1_555 1_555
H6A C16A 1_555 1_555
C17A C10A 1_555 1_555
H7A C17A 1_555 1_555
C18A N6A 1_555 1_555
C19A N2A 1_555 1_555
C20A N4A 1_555 1_555
H8A C20A 1_555 1_555
C21A N10A 1_555 1_555
C22A C13A 1_555 1_555
H9A C22A 1_555 1_555
C23A C2A 1_555 1_555
H10A C23A 1_555 1_555
C24A H11A 1_555 1_555
C25A C21A 1_555 1_555
H12A C25A 1_555 1_555
C26A C16A 1_555 1_555
H13A C26A 1_555 1_555
C27A N4A 1_555 1_555
H14A C27A 1_555 1_555
C28A N1A 1_555 1_555
H15A C28A 1_555 1_555
C29A N3A 1_555 1_555
H16A C29A 1_555 1_555
C30A C15A 1_555 1_555
H17A C30A 1_555 1_555
C31A C25A 1_555 1_555
H18A C31A 1_555 1_555
C32A C6A 1_555 1_555
H19A C32A 1_555 1_555
C33A C14A 1_555 1_555
H20A C33A 1_555 1_555
C34A N8A 1_555 1_555
H21A C34A 1_555 1_555
C35A C12A 1_555 1_555
H22A C35A 1_555 1_555
C38A N11A 1_555 1_555
H26A C38A 1_555 1_555
H27A C38A 1_555 1_555
H28A C38A 1_555 1_555
C40A N11A 1_555 1_555
H32A C40A 1_555 1_555
H33A C40A 1_555 1_555
H34A C40A 1_555 1_555
H35A C1A 1_555 1_555
H37A O5A 1_555 1_555
H38A O5A 1_555 1_555
N6 Co1A 1_555 1_555
N9 Co1A 1_555 1_555
C2 C4 1_555 1_555
C3 C18 1_555 1_555
C7 C19 1_555 1_555
C8 C28 1_555 1_555
C11 C15 1_555 1_555
C14 C19 1_555 1_555
C17 C33 1_555 1_555
C20 C21 1_555 1_555
C23 C34 1_555 1_555
C24 C26 1_555 1_555
C27 C31 1_555 1_555
C29 C32 1_555 1_555
C30 C35 1_555 1_555
C2A C4A 1_555 1_555
C3A C18A 1_555 1_555
C5A C10A 1_555 1_555
C6A C13A 1_555 1_555
C7A C19A 1_555 1_555
C8A C28A 1_555 1_555
C11A C15A 1_555 1_555
C14A C19A 1_555 1_555
C17A C33A 1_555 1_555
C20A C21A 1_555 1_555
C23A C34A 1_555 1_555
C24A C26A 1_555 1_555
C27A C31A 1_555 1_555
C29A C32A 1_555 1_555
C30A C35A 1_555 1_555

#END
