
#######################################################################
#
#                 Cambridge Crystallographic Data Centre
#                                CCDC 
#
#######################################################################
#
# If this CIF has been generated from an entry in the Cambridge 
# Structural Database, then it will include bibliographic, chemical, 
# crystal, experimental, refinement or atomic coordinate data resulting 
# from the CCDC's data processing and validation procedures.
#
#######################################################################

data_WAHPOM
_symmetry_cell_setting           monoclinic
_symmetry_space_group_name_H-M   'C 2/m'
_symmetry_Int_Tables_number      12
_space_group_name_Hall           '-C 2y'
loop_
_symmetry_equiv_pos_site_id
_symmetry_equiv_pos_as_xyz
1 x,y,z
2 -x,y,-z
3 1/2+x,1/2+y,z
4 1/2-x,1/2+y,-z
5 -x,-y,-z
6 x,-y,z
7 1/2-x,1/2-y,-z
8 1/2+x,1/2-y,z
_cell_length_a                   19.4038(4)
_cell_length_b                   7.3913(4)
_cell_length_c                   6.6216(3)
_cell_angle_alpha                90
_cell_angle_beta                 106.7190(10)
_cell_angle_gamma                90
_cell_volume                     909.52
loop_
_atom_site_label
_atom_site_type_symbol
_atom_site_fract_x
_atom_site_fract_y
_atom_site_fract_z
O5 O 0.1727(4) 0.0000 0.2108(11)
Cd1 Cd 0.41072(2) 0.0000 0.25127(7)
C1 C 0.4626(3) 0.4073(7) 0.2454(7)
H1 H 0.5004 0.3460 0.2158
C2 C 0.3558(3) 0.4051(8) 0.3263(8)
N1 N 0.4090(2) 0.3113(6) 0.2872(6)
N2 N 0.2945(5) 0.3401(10) 0.3530(13)
H2 H 0.2863 0.2255 0.3453
H3 H 0.2633 0.4129 0.3778
O1 O 0.3389(3) 0.0000 0.5564(8)
O2 O 0.4658(3) 0.0000 0.6565(8)
O3 O 0.4034(3) 0.1597(10) 0.8699(9)
O4 O 0.2898(3) 0.0000 0.0739(9)
S1 S 0.40238(9) 0.0000 0.7401(2)
Cd1A Cd 0.58928(2) 0.0000 0.74873(7)
Cd1_2 Cd 0.41072(2) 1.0000 0.25127(7)
C1E C 0.4626(3) 0.5927(7) 0.2454(7)
H1E H 0.5004 0.6540 0.2158
C2E C 0.3558(3) 0.5949(8) 0.3263(8)
N1E N 0.4090(2) 0.6887(6) 0.2872(6)
N1E_2 N 0.4090(2) -0.3113(6) 0.2872(6)
N2E N 0.2945(5) 0.6599(10) 0.3530(13)
H2E H 0.2863 0.7745 0.3453
H3E H 0.2633 0.5871 0.3778
O2A O 0.5342(3) 0.0000 0.3435(8)
O3E O 0.4034(3) -0.1597(10) 0.8699(9)
loop_
_geom_bond_atom_site_label_1
_geom_bond_atom_site_label_2
_geom_bond_site_symmetry_1
_geom_bond_site_symmetry_2
Cd1 N1 1_555 1_555
C1 H1 1_555 1_555
C2 N1 1_555 1_555
N1 C1 1_555 1_555
N2 C2 1_555 1_555
H2 N2 1_555 1_555
H3 N2 1_555 1_555
O1 S1 1_555 1_555
O2 Cd1 1_555 1_555
O3 S1 1_555 1_555
O4 Cd1 1_555 1_555
S1 O2 1_555 1_555
Cd1A O2 1_555 1_555
Cd1_2 N1E 1_555 1_555
C1E C1 1_555 1_555
H1E C1E 1_555 1_555
C2E C2 1_555 1_555
N1E C1E 1_555 1_555
N1E_2 Cd1 1_555 1_555
N2E C2E 1_555 1_555
H2E N2E 1_555 1_555
H3E N2E 1_555 1_555
O2A Cd1 1_555 1_555
O3E S1 1_555 1_555
Cd1A O2A 1_555 1_555
C2E N1E 1_555 1_555

#END
