
#######################################################################
#
#                 Cambridge Crystallographic Data Centre
#                                CCDC 
#
#######################################################################
#
# If this CIF has been generated from an entry in the Cambridge 
# Structural Database, then it will include bibliographic, chemical, 
# crystal, experimental, refinement or atomic coordinate data resulting 
# from the CCDC's data processing and validation procedures.
#
#######################################################################

data_WAHQON
_symmetry_cell_setting           triclinic
_symmetry_space_group_name_H-M   'P -1'
_symmetry_Int_Tables_number      2
_space_group_name_Hall           '-P 1'
loop_
_symmetry_equiv_pos_site_id
_symmetry_equiv_pos_as_xyz
1 x,y,z
2 -x,-y,-z
_cell_length_a                   7.5227(15)
_cell_length_b                   14.626(2)
_cell_length_c                   18.9971(18)
_cell_angle_alpha                102.432(2)
_cell_angle_beta                 94.761(3)
_cell_angle_gamma                102.521(2)
_cell_volume                     1974.12
loop_
_atom_site_label
_atom_site_type_symbol
_atom_site_fract_x
_atom_site_fract_y
_atom_site_fract_z
C1 C -0.6059(9) 0.2810(4) -0.1331(3)
C2 C -0.5371(8) 0.1956(4) -0.1406(3)
C3 C -0.6180(8) 0.1102(4) -0.1893(3)
H1 H -0.7277 0.1045 -0.2182
C4 C -0.5387(8) 0.0313(4) -0.1964(3)
H2 H -0.5967 -0.0263 -0.2297
C5 C -0.3744(8) 0.0378(4) -0.1546(3)
C6 C -0.2911(8) 0.1223(4) -0.1079(3)
H3 H -0.1786 0.1284 -0.0808
C7 C -0.3722(9) 0.2018(4) -0.0996(3)
H4 H -0.3140 0.2591 -0.0660
C8 C -0.2910(8) -0.0530(4) -0.1655(3)
C9 C -0.4262(8) -0.1408(4) -0.1525(3)
C10 C -0.3965(8) -0.2351(4) -0.1769(4)
H5 H -0.3068 -0.2439 -0.2068
C11 C -0.4969(8) -0.3116(4) -0.1571(3)
H6 H -0.4791 -0.3728 -0.1751
C12 C -0.6279(8) -0.2996(4) -0.1098(3)
C13 C -0.6632(9) -0.2098(4) -0.0882(3)
H7 H -0.7566 -0.2020 -0.0600
C14 C -0.5597(8) -0.1304(4) -0.1084(3)
H8 H -0.5816 -0.0697 -0.0919
C15 C -0.7254(8) -0.3807(4) -0.0803(3)
C16 C -0.1214(9) -0.0333(4) -0.1055(4)
C17 C -0.2330(10) -0.0669(5) -0.2412(3)
C18 C -0.5313(8) 0.3669(4) -0.2797(3)
C19 C -0.6651(5) 0.3225(2) -0.34805(18)
C20 C -0.7052(6) 0.2250(2) -0.3825(2)
H9 H -0.6436 0.1843 -0.3647
C21 C -0.8375(6) 0.18844(19) -0.4436(2)
H10 H -0.8644 0.1232 -0.4666
C22 C -0.9297(5) 0.2493(3) -0.47013(18)
C23 C -0.8896(5) 0.3468(2) -0.4357(2)
H11 H -0.9512 0.3876 -0.4534
C24 C -0.7573(6) 0.38344(19) -0.37462(19)
H12 H -0.7304 0.4487 -0.3516
C25 C -1.0870(9) 0.2104(5) -0.5341(4)
C26 C -1.0624(5) 0.2724(3) -0.5917(2)
C27 C -1.2080(4) 0.2942(3) -0.6294(2)
H13 H -1.3273 0.2730 -0.6198
C28 C -1.1753(4) 0.3476(3) -0.6813(2)
H14 H -1.2727 0.3622 -0.7065
C29 C -0.9970(5) 0.3792(3) -0.69556(19)
C30 C -0.8514(4) 0.3574(3) -0.6579(2)
H15 H -0.7321 0.3786 -0.6675
C31 C -0.8841(4) 0.3040(3) -0.6060(2)
H16 H -0.7867 0.2894 -0.5808
C32 C -0.9633(8) 0.4375(4) -0.7509(3)
C33 C -1.1017(10) 0.1059(5) -0.5769(4)
C34 C -1.2720(9) 0.2135(5) -0.5001(4)
Cd1 Cd -0.83763(6) 0.40883(3) -0.18382(2)
Cd2 Cd -1.0000 -0.5000 0.0000
Cd3 Cd -0.29002(6) 0.45693(3) -0.15724(2)
Cd4 Cd -0.5000 0.5000 0.0000
F1 F -0.0511(5) -0.1109(3) -0.1108(2)
F2 F -0.1632(5) -0.0100(3) -0.0405(2)
F3 F 0.0190(5) 0.0364(3) -0.1150(2)
F4 F -0.1069(5) -0.1215(3) -0.2486(2)
F5 F -0.3726(5) -0.1094(2) -0.29206(18)
F6 F -0.1461(5) 0.0164(3) -0.2552(2)
F7 F -0.9391(5) 0.0954(3) -0.59494(19)
F8 F -1.2163(5) 0.0803(3) -0.6374(2)
F9 F -1.1568(5) 0.0427(3) -0.53608(19)
F10 F -1.2721(5) 0.1743(3) -0.44364(19)
F11 F -1.4213(5) 0.1646(3) -0.5461(2)
F12 F -1.2869(5) 0.3020(3) -0.4776(2)
O1 O -0.5095(6) 0.3623(3) -0.0942(2)
O2 O -0.7643(6) 0.2736(3) -0.1657(2)
O3 O -0.6648(6) -0.4575(3) -0.0922(2)
O4 O -0.8553(6) -0.3715(3) -0.0476(2)
O5 O -0.3961(5) 0.3299(3) -0.2692(2)
O6 O -0.5649(5) 0.4314(3) -0.2327(2)
O7 O -0.8175(7) 0.4397(3) -0.7791(3)
O8 O -1.0864(6) 0.4797(3) -0.7647(2)
O9 O -1.2509(6) -0.4525(3) -0.0442(2)
H17 H -1.2267 -0.3925 -0.0427
O10 O -1.0609(6) -0.5982(3) -0.1139(2)
H18 H -1.1560 -0.6448 -0.1258
O11 O -1.0522(6) 0.2871(3) -0.2747(2)
H19 H -1.1420 0.2811 -0.2503
H20 H -1.1039 0.3037 -0.3098
C1A C -1.3941(9) -1.2810(4) 0.1331(3)
C2A C -1.4629(8) -1.1956(4) 0.1406(3)
C3A C -1.3820(8) -1.1102(4) 0.1893(3)
H1A H -1.2723 -1.1045 0.2182
C4A C -1.4613(8) -1.0313(4) 0.1964(3)
H2A H -1.4033 -0.9737 0.2297
C5A C -1.6256(8) -1.0378(4) 0.1546(3)
C6A C -1.7089(8) -1.1223(4) 0.1079(3)
H3A H -1.8214 -1.1284 0.0808
C7A C -1.6278(9) -1.2018(4) 0.0996(3)
H4A H -1.6860 -1.2591 0.0660
C8A C -1.7090(8) -0.9470(4) 0.1655(3)
C9A C -1.5738(8) -0.8592(4) 0.1525(3)
C10A C -1.6035(8) -0.7649(4) 0.1769(4)
H5A H -1.6932 -0.7561 0.2068
C11A C -1.5031(8) -0.6884(4) 0.1571(3)
H6A H -1.5209 -0.6272 0.1751
C12A C -1.3721(8) -0.7004(4) 0.1098(3)
C13A C -1.3368(9) -0.7902(4) 0.0882(3)
H7A H -1.2434 -0.7980 0.0600
C14A C -1.4403(8) -0.8696(4) 0.1084(3)
H8A H -1.4184 -0.9303 0.0919
C15A C -1.2746(8) -0.6193(4) 0.0803(3)
C16A C -1.8786(9) -0.9667(4) 0.1055(4)
C17A C -1.7670(10) -0.9331(5) 0.2412(3)
C18A C -1.4687(8) 0.6331(4) -0.7203(3)
C19A C -1.3349(5) 0.6775(2) -0.65195(18)
C20A C -1.2948(6) 0.7750(2) -0.6175(2)
H9A H -1.3564 0.8157 -0.6353
C21A C -1.1625(6) 0.81156(19) -0.5564(2)
H10A H -1.1356 0.8768 -0.5334
C22A C -1.0703(5) 0.7507(3) -0.52987(18)
C23A C -1.1104(5) 0.6532(2) -0.5643(2)
H11A H -1.0488 0.6124 -0.5466
C24A C -1.2427(6) 0.61656(19) -0.62538(19)
H12A H -1.2696 0.5513 -0.6484
C25A C -0.9130(9) 0.7896(5) -0.4659(4)
C26A C -0.9376(5) 0.7276(3) -0.4083(2)
C27A C -0.7920(4) 0.7058(3) -0.3706(2)
H13A H -0.6727 0.7270 -0.3802
C28A C -0.8247(4) 0.6524(3) -0.3187(2)
H14A H -0.7273 0.6378 -0.2935
C29A C -1.0030(5) 0.6208(3) -0.30444(19)
C30A C -1.1486(4) 0.6426(3) -0.3421(2)
H15A H -1.2679 0.6214 -0.3325
C31A C -1.1159(4) 0.6960(3) -0.3940(2)
H16A H -1.2133 0.7106 -0.4192
C32A C -1.0367(8) 0.5625(4) -0.2491(3)
C33A C -0.8983(10) 0.8941(5) -0.4231(4)
C34A C -0.7280(9) 0.7865(5) -0.4999(4)
Cd1A Cd -1.16237(6) -1.40883(3) 0.18382(2)
Cd1_2 Cd -0.83763(6) -0.59117(3) -0.18382(2)
Cd1A_2 Cd -1.16237(6) 0.59117(3) -0.81618(2)
Cd1A_3 Cd -1.16237(6) -0.40883(3) 0.18382(2)
Cd3A Cd -1.70998(6) -1.45693(3) 0.15724(2)
Cd3A_2 Cd -0.70998(6) 0.54307(3) -0.84276(2)
Cd3_2 Cd -1.29002(6) -0.54307(3) -0.15724(2)
Cd3A_3 Cd -0.70998(6) -0.45693(3) 0.15724(2)
Cd3A_4 Cd -1.70998(6) 0.54307(3) -0.84276(2)
Cd3_3 Cd -1.29002(6) 0.45693(3) -0.15724(2)
Cd4_2 Cd -0.5000 -0.5000 0.0000
Cd4_3 Cd -1.5000 -0.5000 0.0000
Cd4_4 Cd -1.5000 -1.5000 0.0000
F1A F -1.9489(5) -0.8891(3) 0.1108(2)
F2A F -1.8368(5) -0.9900(3) 0.0405(2)
F3A F -2.0190(5) -1.0364(3) 0.1150(2)
F4A F -1.8931(5) -0.8785(3) 0.2486(2)
F5A F -1.6274(5) -0.8906(2) 0.29206(18)
F6A F -1.8539(5) -1.0164(3) 0.2552(2)
F7A F -1.0609(5) 0.9046(3) -0.40506(19)
F8A F -0.7837(5) 0.9197(3) -0.3626(2)
F9A F -0.8432(5) 0.9573(3) -0.46392(19)
F10A F -0.7279(5) 0.8257(3) -0.55636(19)
F11A F -0.5787(5) 0.8354(3) -0.4539(2)
F12A F -0.7131(5) 0.6980(3) -0.5224(2)
O1A O -1.4905(6) -1.3623(3) 0.0942(2)
O1A_2 O -0.4905(6) 0.6377(3) 0.0942(2)
O2A O -1.2357(6) -1.2736(3) 0.1657(2)
O3A O -1.3352(6) -0.5425(3) 0.0922(2)
O3_2 O -0.6648(6) 0.5425(3) -0.0922(2)
O3A_2 O -0.3352(6) 0.4575(3) 0.0922(2)
O3A_3 O -1.3352(6) -1.5425(3) 0.0922(2)
O4A O -1.1447(6) -0.6285(3) 0.0476(2)
O5A O -1.6039(5) 0.6701(3) -0.7308(2)
O5A_2 O -1.6039(5) -1.3299(3) 0.2692(2)
O6A O -1.4351(5) 0.5686(3) -0.7673(2)
O6A_2 O -1.4351(5) -1.4314(3) 0.2327(2)
O7A O -1.1825(7) 0.5603(3) -0.2209(3)
O7A_2 O -0.1825(7) 0.5603(3) -0.2209(3)
O7_2 O -1.8175(7) -1.5603(3) 0.2209(3)
O8A O -0.9136(6) 0.5203(3) -0.2353(2)
O8_2 O -1.0864(6) -1.5203(3) 0.2353(2)
O9A O -0.7491(6) -0.5475(3) 0.0442(2)
O9_2 O -0.2509(6) 0.5475(3) -0.0442(2)
O9A_2 O -0.7491(6) 0.4525(3) 0.0442(2)
O9A_3 O -1.7491(6) -1.5475(3) 0.0442(2)
H17A H -0.7733 -0.6075 0.0427
H17_2 H -0.2267 0.6075 -0.0427
H17A_2 H -0.7733 0.3925 0.0427
H17A_3 H -1.7733 -1.6075 0.0427
O10A O -0.9391(6) -0.4018(3) 0.1139(2)
O10_2 O -1.0609(6) 0.4018(3) -0.1139(2)
O10_3 O -0.0609(6) 0.4018(3) -0.1139(2)
O10A_2 O -0.9391(6) -1.4018(3) 0.1139(2)
O10A_3 O -1.9391(6) -1.4018(3) 0.1139(2)
H18A H -0.8440 -0.3552 0.1258
H18_2 H -1.1560 0.3552 -0.1258
H18_3 H -0.1560 0.3552 -0.1258
H18A_2 H -0.8440 -1.3552 0.1258
H18A_3 H -1.8440 -1.3552 0.1258
O11A O -0.9478(6) -1.2871(3) 0.2747(2)
H19A H -0.8580 -1.2811 0.2503
H20A H -0.8961 -1.3037 0.3098
O12 O 0.1288(12) 0.2526(6) 0.0120(5)
H21 H 0.1578 0.2243 0.0444
H22 H 0.0138 0.2487 0.0080
O13? O 0.5173(14) 0.5084(7) 0.4699(5)
H23? H 0.5604 0.4586 0.4642
H24? H 0.4045 0.4931 0.4754
loop_
_geom_bond_atom_site_label_1
_geom_bond_atom_site_label_2
_geom_bond_site_symmetry_1
_geom_bond_site_symmetry_2
C1 C2 1_555 1_555
C2 C3 1_555 1_555
C3 H1 1_555 1_555
C4 C3 1_555 1_555
H2 C4 1_555 1_555
C5 C4 1_555 1_555
C6 C5 1_555 1_555
H3 C6 1_555 1_555
C7 C2 1_555 1_555
H4 C7 1_555 1_555
C8 C5 1_555 1_555
C9 C8 1_555 1_555
C10 C9 1_555 1_555
H5 C10 1_555 1_555
C11 C10 1_555 1_555
H6 C11 1_555 1_555
C12 C11 1_555 1_555
C13 C12 1_555 1_555
H7 C13 1_555 1_555
C14 C9 1_555 1_555
H8 C14 1_555 1_555
C15 C12 1_555 1_555
C16 C8 1_555 1_555
C17 C8 1_555 1_555
C18 C19 1_555 1_555
C19 C20 1_555 1_555
C20 H9 1_555 1_555
C21 C20 1_555 1_555
H10 C21 1_555 1_555
C22 C21 1_555 1_555
C23 C22 1_555 1_555
H11 C23 1_555 1_555
C24 C19 1_555 1_555
H12 C24 1_555 1_555
C25 C22 1_555 1_555
C26 C25 1_555 1_555
C27 C26 1_555 1_555
H13 C27 1_555 1_555
C28 C27 1_555 1_555
H14 C28 1_555 1_555
C29 C28 1_555 1_555
C30 C29 1_555 1_555
H15 C30 1_555 1_555
C31 C26 1_555 1_555
H16 C31 1_555 1_555
C32 C29 1_555 1_555
C33 C25 1_555 1_555
C34 C25 1_555 1_555
Cd1 O2 1_555 1_555
Cd2 O4 1_555 1_555
Cd3 O1 1_555 1_555
Cd4 O1 1_555 1_555
F1 C16 1_555 1_555
F2 C16 1_555 1_555
F3 C16 1_555 1_555
F4 C17 1_555 1_555
F5 C17 1_555 1_555
F6 C17 1_555 1_555
F7 C33 1_555 1_555
F8 C33 1_555 1_555
F9 C33 1_555 1_555
F10 C34 1_555 1_555
F11 C34 1_555 1_555
F12 C34 1_555 1_555
O1 C1 1_555 1_555
O2 C1 1_555 1_555
O3 C15 1_555 1_555
O4 C15 1_555 1_555
O5 C18 1_555 1_555
O6 C18 1_555 1_555
O7 C32 1_555 1_555
O8 C32 1_555 1_555
O9 Cd2 1_555 1_555
H17 O9 1_555 1_555
O10 Cd2 1_555 1_555
H18 O10 1_555 1_555
O11 Cd1 1_555 1_555
H19 O11 1_555 1_555
H20 O11 1_555 1_555
O12 H21 1_555 1_555
H22 O12 1_555 1_555
C1A C2A 1_555 1_555
C2A C3A 1_555 1_555
C3A H1A 1_555 1_555
C4A C3A 1_555 1_555
H2A C4A 1_555 1_555
C5A C4A 1_555 1_555
C6A C5A 1_555 1_555
H3A C6A 1_555 1_555
C7A C2A 1_555 1_555
H4A C7A 1_555 1_555
C8A C5A 1_555 1_555
C9A C8A 1_555 1_555
C10A C9A 1_555 1_555
H5A C10A 1_555 1_555
C11A C10A 1_555 1_555
H6A C11A 1_555 1_555
C12A C11A 1_555 1_555
C13A C12A 1_555 1_555
H7A C13A 1_555 1_555
C14A C9A 1_555 1_555
H8A C14A 1_555 1_555
C15A C12A 1_555 1_555
C16A C8A 1_555 1_555
C17A C8A 1_555 1_555
C18A C19A 1_555 1_555
C19A C20A 1_555 1_555
C20A H9A 1_555 1_555
C21A C20A 1_555 1_555
H10A C21A 1_555 1_555
C22A C21A 1_555 1_555
C23A C22A 1_555 1_555
H11A C23A 1_555 1_555
C24A C19A 1_555 1_555
H12A C24A 1_555 1_555
C25A C22A 1_555 1_555
C26A C25A 1_555 1_555
C27A C26A 1_555 1_555
H13A C27A 1_555 1_555
C28A C27A 1_555 1_555
H14A C28A 1_555 1_555
C29A C28A 1_555 1_555
C30A C29A 1_555 1_555
H15A C30A 1_555 1_555
C31A C26A 1_555 1_555
H16A C31A 1_555 1_555
C32A C29A 1_555 1_555
C33A C25A 1_555 1_555
C34A C25A 1_555 1_555
Cd1A O2A 1_555 1_555
Cd1_2 O3 1_555 1_555
Cd1A_2 O8 1_555 1_555
Cd1A_3 O3A 1_555 1_555
Cd3A O1A 1_555 1_555
Cd3A_2 O7 1_555 1_555
Cd3_2 O9 1_555 1_555
Cd3A_3 O9A 1_555 1_555
Cd3A_4 O5A 1_555 1_555
Cd3_3 O7A 1_555 1_555
Cd4_2 O3 1_555 1_555
Cd4_3 O9 1_555 1_555
Cd4_4 O1A 1_555 1_555
F1A C16A 1_555 1_555
F2A C16A 1_555 1_555
F3A C16A 1_555 1_555
F4A C17A 1_555 1_555
F5A C17A 1_555 1_555
F6A C17A 1_555 1_555
F7A C33A 1_555 1_555
F8A C33A 1_555 1_555
F9A C33A 1_555 1_555
F10A C34A 1_555 1_555
F11A C34A 1_555 1_555
F12A C34A 1_555 1_555
O1A C1A 1_555 1_555
O1A_2 Cd4 1_555 1_555
O2A C1A 1_555 1_555
O3A C15A 1_555 1_555
O3_2 Cd1 1_555 1_555
O3A_2 Cd4 1_555 1_555
O3A_3 Cd1A 1_555 1_555
O4A Cd2 1_555 1_555
O5A C18A 1_555 1_555
O5A_2 Cd3A 1_555 1_555
O6A C18A 1_555 1_555
O6A_2 Cd1A 1_555 1_555
O7A C32A 1_555 1_555
O7A_2 Cd3 1_555 1_555
O7_2 Cd3A 1_555 1_555
O8A Cd1 1_555 1_555
O8_2 Cd1A 1_555 1_555
O9A Cd2 1_555 1_555
O9_2 Cd3 1_555 1_555
O9A_2 Cd4 1_555 1_555
O9A_3 Cd3A 1_555 1_555
H17A O9A 1_555 1_555
H17_2 O9_2 1_555 1_555
H17A_2 O9A_2 1_555 1_555
H17A_3 O9A_3 1_555 1_555
O10A Cd2 1_555 1_555
O10_2 Cd1 1_555 1_555
O10_3 Cd3 1_555 1_555
O10A_2 Cd1A 1_555 1_555
O10A_3 Cd3A 1_555 1_555
H18A O10A 1_555 1_555
H18_2 O10_2 1_555 1_555
H18_3 O10_3 1_555 1_555
H18A_2 O10A_2 1_555 1_555
H18A_3 O10A_3 1_555 1_555
O11A Cd1A 1_555 1_555
H19A O11A 1_555 1_555
H20A O11A 1_555 1_555
C6 C7 1_555 1_555
C13 C14 1_555 1_555
C23 C24 1_555 1_555
C30 C31 1_555 1_555
Cd1 O6 1_555 1_555
Cd3 O5 1_555 1_555
Cd3 O6 1_555 1_555
Cd4 O3_2 1_555 1_555
Cd4 O9_2 1_555 1_555
O10 Cd1_2 1_555 1_555
O10 Cd3_2 1_555 1_555
C6A C7A 1_555 1_555
C13A C14A 1_555 1_555
C15A O4A 1_555 1_555
C23A C24A 1_555 1_555
C30A C31A 1_555 1_555
C32A O8A 1_555 1_555
Cd1A_2 O6A 1_555 1_555
Cd1A_3 O10A 1_555 1_555
Cd3A O6A_2 1_555 1_555
Cd3A_3 O10A 1_555 1_555
Cd3A_4 O6A 1_555 1_555
Cd3_3 O10_2 1_555 1_555
Cd4_2 O9A 1_555 1_555
Cd4_3 O3A 1_555 1_555
Cd4_4 O3A_3 1_555 1_555
Cd4_4 O9A_3 1_555 1_555

#END
