
#######################################################################
#
#                 Cambridge Crystallographic Data Centre
#                                CCDC 
#
#######################################################################
#
# If this CIF has been generated from an entry in the Cambridge 
# Structural Database, then it will include bibliographic, chemical, 
# crystal, experimental, refinement or atomic coordinate data resulting 
# from the CCDC's data processing and validation procedures.
#
#######################################################################

data_WAHRAA
_symmetry_cell_setting           monoclinic
_symmetry_space_group_name_H-M   'C 2/c'
_symmetry_Int_Tables_number      15
_space_group_name_Hall           '-C 2yn'
loop_
_symmetry_equiv_pos_site_id
_symmetry_equiv_pos_as_xyz
1 x,y,z
2 -x,y,1/2-z
3 1/2+x,1/2+y,z
4 1/2-x,1/2+y,1/2-z
5 -x,-y,-z
6 x,-y,1/2+z
7 1/2-x,1/2-y,-z
8 1/2+x,1/2-y,1/2+z
_cell_length_a                   25.003(3)
_cell_length_b                   8.107(2)
_cell_length_c                   28.4059(19)
_cell_angle_alpha                90
_cell_angle_beta                 116.110(3)
_cell_angle_gamma                90
_cell_volume                     5170.27
loop_
_atom_site_label
_atom_site_type_symbol
_atom_site_fract_x
_atom_site_fract_y
_atom_site_fract_z
C1 C 0.81683(16) 0.5240(5) 0.39175(16)
C2 C 0.76482(17) 0.4397(5) 0.36273(18)
H1 H 0.7639 0.3258 0.3660
C3 C 0.71317(17) 0.5230(5) 0.32824(15)
H2 H 0.6780 0.4656 0.3090
C4 C 0.71559(17) 0.6933(5) 0.32349(14)
C5 C 0.76747(15) 0.7784(5) 0.35281(15)
H3 H 0.7685 0.8925 0.3500
C6 C 0.81835(17) 0.6936(5) 0.38667(16)
H4 H 0.8535 0.7511 0.4059
C7 C 0.87223(15) 0.4404(5) 0.42978(14)
C8 C 0.65632(16) 0.7735(5) 0.28861(15)
C9 C 0.62192(15) 0.7019(5) 0.23447(15)
C10 C 0.56005(16) 0.6793(5) 0.21114(17)
H5 H 0.5382 0.7119 0.2289
C11 C 0.53151(18) 0.6093(5) 0.16217(17)
H6 H 0.4904 0.5949 0.1469
C12 C 0.56405(17) 0.5598(5) 0.13540(15)
C13 C 0.62595(17) 0.5827(5) 0.15792(16)
H7 H 0.6477 0.5516 0.1400
C14 C 0.65471(17) 0.6540(6) 0.20840(14)
H8 H 0.6958 0.6687 0.2241
C15 C 0.53508(16) 0.4816(5) 0.08168(14)
C16 C 0.61979(17) 0.7805(5) 0.32265(16)
C17 C 0.66094(18) 0.9603(5) 0.27345(16)
C18 C 1.13050(15) 1.1507(5) 0.49122(15)
H9 H 1.0946 1.1950 0.4878
C19 C 1.16908(17) 1.2489(5) 0.48718(15)
H10 H 1.1576 1.3559 0.4752
C20 C 1.22761(16) 1.1989(5) 0.50035(16)
C21 C 1.23552(15) 1.0359(5) 0.51362(15)
H11 H 1.2724 0.9892 0.5214
C22 C 1.19441(17) 0.9410(6) 0.51612(18)
H12 H 1.2051 0.8356 0.5300
Cu1 Cu 1.073030(19) 0.84603(6) 0.503250(17)
Cu2 Cu 1.0000 0.5000 0.5000
F1 F 0.59979(10) 0.6286(3) 0.32542(10)
F2 F 0.57199(10) 0.8820(3) 0.30130(9)
F3 F 0.65075(10) 0.8234(3) 0.36790(10)
F4 F 0.61688(11) 1.0234(3) 0.24380(9)
F5 F 0.68485(10) 1.0611(3) 0.32021(10)
F6 F 0.70641(10) 0.9671(3) 0.25798(9)
N1 N 1.13970(13) 0.9869(4) 0.50021(12)
O1 O 0.86746(10) 0.2956(3) 0.44225(10)
O2 O 0.91667(12) 0.5348(3) 0.45180(10)
O3 O 0.48065(11) 0.4547(3) 0.06241(10)
O4 O 0.56464(11) 0.4487(3) 0.05809(9)
H20 H 0.9738 0.7656 0.4762
O5 O 1.00987(10) 0.7216(3) 0.50458(10)
C1D C 1.18317(16) 0.4760(5) 0.60825(16)
C2D C 1.23518(17) 0.5603(5) 0.63727(18)
H1D H 1.2361 0.6742 0.6340
C3D C 1.28683(17) 0.4770(5) 0.67176(15)
H2D H 1.3220 0.5344 0.6910
C4D C 1.28441(17) 0.3067(5) 0.67651(14)
C5D C 1.23253(15) 0.2216(5) 0.64719(15)
H3D H 1.2315 0.1075 0.6500
C6D C 1.18165(17) 0.3064(5) 0.61333(16)
H4D H 1.1465 0.2489 0.5941
C7D C 1.12777(15) 0.5596(5) 0.57022(14)
C8D C 1.34368(16) 0.2265(5) 0.71139(15)
C9D C 1.37808(15) 0.2981(5) 0.76553(15)
C10D C 1.43995(16) 0.3207(5) 0.78886(17)
H5D H 1.4618 0.2881 0.7711
C11D C 1.46849(18) 0.3907(5) 0.83783(17)
H6D H 1.5096 0.4051 0.8531
C12D C 1.43595(17) 0.4402(5) 0.86460(15)
C13D C 1.37405(17) 0.4173(5) 0.84208(16)
H7D H 1.3523 0.4484 0.8600
C14D C 1.34529(17) 0.3460(6) 0.79160(14)
H8D H 1.3042 0.3313 0.7759
C15D C 1.46492(16) 0.5184(5) 0.91832(14)
C16D C 1.38021(17) 0.2195(5) 0.67735(16)
C17D C 1.33906(18) 0.0397(5) 0.72655(16)
C18F C 1.36950(15) 1.3493(5) 0.50878(15)
H9F H 1.4054 1.3050 0.5122
C19F C 1.33092(17) 1.2511(5) 0.51282(15)
H10F H 1.3424 1.1441 0.5248
C20F C 1.27239(16) 1.3011(5) 0.49965(16)
C21F C 1.26448(15) 1.4641(5) 0.48638(15)
H11F H 1.2276 1.5108 0.4786
C22F C 1.30559(17) 1.5590(6) 0.48388(18)
H12F H 1.2949 1.6644 0.4700
Cu1D Cu 0.926970(19) 0.15397(6) 0.496750(17)
Cu1C Cu 0.426970(19) 0.34603(6) -0.003250(17)
Cu1G Cu 0.573030(19) 0.65397(6) 0.003250(17)
Cu1F Cu 1.426970(19) 1.65397(6) 0.496750(17)
Cu1G_2 Cu 1.573030(19) 0.65397(6) 1.003250(17)
Cu1C_2 Cu 1.426970(19) 0.34603(6) 0.996750(17)
F1D F 1.40021(10) 0.3714(3) 0.67458(10)
F2D F 1.42801(10) 0.1180(3) 0.69870(9)
F3D F 1.34925(10) 0.1766(3) 0.63210(10)
F4D F 1.38312(11) -0.0234(3) 0.75620(9)
F5D F 1.31515(10) -0.0611(3) 0.67979(10)
F6D F 1.29359(10) 0.0329(3) 0.74202(9)
N1F N 1.36030(13) 1.5131(4) 0.49979(12)
N1D N 0.86030(13) 0.0131(4) 0.49979(12)
O1D O 1.13254(10) 0.7044(3) 0.55775(10)
O2D O 1.08333(12) 0.4652(3) 0.54820(10)
O3D O 1.51935(11) 0.5453(3) 0.93759(10)
O3C O 1.01935(11) 0.9547(3) 0.43759(10)
O3G O 0.98065(11) 0.0453(3) 0.56241(10)
O4D O 1.43536(11) 0.5513(3) 0.94191(9)
O4G O 1.06464(11) 1.0513(3) 0.55809(9)
O4C O 0.93536(11) -0.0513(3) 0.44191(9)
H20D H 1.0262 0.2344 0.5238
O5D O 0.99013(10) 0.2784(3) 0.49542(10)
C23 C 0.99452(18) 0.4686(5) 0.62086(18)
H13 H 0.9695 0.5371 0.5919
H14 H 1.0223 0.4104 0.6120
H15 H 1.0159 0.5362 0.6512
C24 C 0.99070(18) 0.2705(5) 0.68296(15)
H16 H 1.0224 0.2057 0.6822
H17 H 0.9643 0.2002 0.6902
H18 H 1.0070 0.3530 0.7098
C25 C 0.89670(19) 0.3125(5) 0.59458(17)
H19 H 0.8796 0.3631 0.5619
N2 N 0.95777(14) 0.3504(4) 0.63221(13)
O6 O 0.86894(13) 0.2145(4) 0.60676(12)
loop_
_geom_bond_atom_site_label_1
_geom_bond_atom_site_label_2
_geom_bond_site_symmetry_1
_geom_bond_site_symmetry_2
C1 C2 1_555 1_555
C2 H1 1_555 1_555
C3 C2 1_555 1_555
H2 C3 1_555 1_555
C4 C3 1_555 1_555
C5 C4 1_555 1_555
H3 C5 1_555 1_555
C6 C1 1_555 1_555
H4 C6 1_555 1_555
C7 C1 1_555 1_555
C8 C4 1_555 1_555
C9 C8 1_555 1_555
C10 C9 1_555 1_555
H5 C10 1_555 1_555
C11 C10 1_555 1_555
H6 C11 1_555 1_555
C12 C11 1_555 1_555
C13 C12 1_555 1_555
H7 C13 1_555 1_555
C14 C9 1_555 1_555
H8 C14 1_555 1_555
C15 C12 1_555 1_555
C16 C8 1_555 1_555
C17 C8 1_555 1_555
C18 H9 1_555 1_555
C19 C18 1_555 1_555
H10 C19 1_555 1_555
C20 C19 1_555 1_555
C21 C20 1_555 1_555
H11 C21 1_555 1_555
C22 C21 1_555 1_555
H12 C22 1_555 1_555
C23 H13 1_555 1_555
H14 C23 1_555 1_555
H15 C23 1_555 1_555
C24 H16 1_555 1_555
H17 C24 1_555 1_555
H18 C24 1_555 1_555
C25 H19 1_555 1_555
Cu1 N1 1_555 1_555
Cu2 O2 1_555 1_555
F1 C16 1_555 1_555
F2 C16 1_555 1_555
F3 C16 1_555 1_555
F4 C17 1_555 1_555
F5 C17 1_555 1_555
F6 C17 1_555 1_555
N1 C18 1_555 1_555
N2 C23 1_555 1_555
O1 C7 1_555 1_555
O2 C7 1_555 1_555
O3 C15 1_555 1_555
O4 C15 1_555 1_555
H20 O5 1_555 1_555
O5 Cu1 1_555 1_555
O6 C25 1_555 1_555
C1D C2D 1_555 1_555
C2D H1D 1_555 1_555
C3D C2D 1_555 1_555
H2D C3D 1_555 1_555
C4D C3D 1_555 1_555
C5D C4D 1_555 1_555
H3D C5D 1_555 1_555
C6D C1D 1_555 1_555
H4D C6D 1_555 1_555
C7D C1D 1_555 1_555
C8D C4D 1_555 1_555
C9D C8D 1_555 1_555
C10D C9D 1_555 1_555
H5D C10D 1_555 1_555
C11D C10D 1_555 1_555
H6D C11D 1_555 1_555
C12D C11D 1_555 1_555
C13D C12D 1_555 1_555
H7D C13D 1_555 1_555
C14D C9D 1_555 1_555
H8D C14D 1_555 1_555
C15D C12D 1_555 1_555
C16D C8D 1_555 1_555
C17D C8D 1_555 1_555
C18F H9F 1_555 1_555
C19F C18F 1_555 1_555
H10F C19F 1_555 1_555
C20F C20 1_555 1_555
C21F C20F 1_555 1_555
H11F C21F 1_555 1_555
C22F C21F 1_555 1_555
H12F C22F 1_555 1_555
Cu1D O1 1_555 1_555
Cu1C O3 1_555 1_555
Cu1G O4 1_555 1_555
Cu1F N1F 1_555 1_555
Cu1G_2 O3D 1_555 1_555
Cu1C_2 O4D 1_555 1_555
F1D C16D 1_555 1_555
F2D C16D 1_555 1_555
F3D C16D 1_555 1_555
F4D C17D 1_555 1_555
F5D C17D 1_555 1_555
F6D C17D 1_555 1_555
N1F C18F 1_555 1_555
N1D Cu1D 1_555 1_555
O1D Cu1 1_555 1_555
O2D Cu2 1_555 1_555
O3D C15D 1_555 1_555
O3C Cu1 1_555 1_555
O3G Cu1D 1_555 1_555
O4D C15D 1_555 1_555
O4G Cu1 1_555 1_555
O4C Cu1D 1_555 1_555
H20D O5D 1_555 1_555
O5D Cu2 1_555 1_555
C5 C6 1_555 1_555
C13 C14 1_555 1_555
C22 N1 1_555 1_555
C24 N2 1_555 1_555
C25 N2 1_555 1_555
Cu2 O5 1_555 1_555
C5D C6D 1_555 1_555
C7D O1D 1_555 1_555
C7D O2D 1_555 1_555
C13D C14D 1_555 1_555
C19F C20F 1_555 1_555
C22F N1F 1_555 1_555
Cu1D O5D 1_555 1_555

#END
