
#######################################################################
#
#                 Cambridge Crystallographic Data Centre
#                                CCDC 
#
#######################################################################
#
# If this CIF has been generated from an entry in the Cambridge 
# Structural Database, then it will include bibliographic, chemical, 
# crystal, experimental, refinement or atomic coordinate data resulting 
# from the CCDC's data processing and validation procedures.
#
#######################################################################

data_WAHVUX
_symmetry_cell_setting           orthorhombic
_symmetry_space_group_name_H-M   'P c a b'
_symmetry_Int_Tables_number      61
_space_group_name_Hall           '-P 2bc 2ac'
loop_
_symmetry_equiv_pos_site_id
_symmetry_equiv_pos_as_xyz
1 x,y,z
2 x,1/2+y,1/2-z
3 1/2-x,y,1/2+z
4 1/2+x,1/2-y,z
5 -x,-y,-z
6 -x,1/2-y,1/2+z
7 1/2+x,-y,1/2-z
8 1/2-x,1/2+y,-z
_cell_length_a                   8.9331(3)
_cell_length_b                   11.7577(3)
_cell_length_c                   29.8171(4)
_cell_angle_alpha                90
_cell_angle_beta                 90
_cell_angle_gamma                90
_cell_volume                     3131.77
loop_
_atom_site_label
_atom_site_type_symbol
_atom_site_fract_x
_atom_site_fract_y
_atom_site_fract_z
Cu1 Cu 0.01802(5) 0.31017(4) 0.598052(16)
O1 O 0.0167(4) -0.0277(3) 0.59820(11)
O2 O -0.0070(3) 0.1525(2) 0.58274(10)
O3 O 0.3546(3) 0.1539(2) 0.65425(9)
O4 O 0.1942(3) 0.2815(2) 0.63189(11)
C1 C 0.0310(4) 0.0702(3) 0.60881(13)
C2 C 0.0924(4) 0.1051(3) 0.65486(14)
C3 C 0.2256(4) 0.1838(3) 0.64688(12)
C4 C 0.1223(5) 0.0055(3) 0.68534(13)
C5 C 0.2378(6) -0.0693(4) 0.67940(16)
C6 C 0.2643(8) -0.1577(4) 0.70862(19)
C7 C 0.1735(11) -0.1735(6) 0.7435(2)
C8 C 0.0551(12) -0.1037(8) 0.7510(2)
C9 C 0.0292(7) -0.0112(6) 0.72190(19)
C10 C -0.2099(5) 0.3000(4) 0.52419(15)
C11 C -0.3019(6) 0.3487(5) 0.49320(16)
C12 C -0.2983(6) 0.4648(5) 0.48954(16)
C13 C -0.1246(4) 0.4761(3) 0.54363(13)
C14 C -0.0233(4) 0.5416(3) 0.57316(13)
C15 C 0.0730(7) 0.7033(4) 0.6001(2)
C16 C 0.1675(7) 0.6438(4) 0.6273(2)
C17 C 0.1583(5) 0.5279(4) 0.62648(16)
N1 N 0.0625(4) 0.4771(3) 0.59975(11)
N2 N -0.1204(4) 0.3631(3) 0.54983(11)
N3 N -0.2095(4) 0.5297(3) 0.51444(13)
N4 N -0.0217(5) 0.6537(3) 0.57215(15)
H1 H 0.016(5) 0.146(4) 0.6696(15)
H2 H -0.354(5) 0.307(3) 0.4764(14)
H3 H 0.226(6) 0.675(4) 0.6463(18)
H4 H 0.209(5) 0.481(4) 0.6464(15)
H5 H 0.083(6) 0.781(5) 0.5998(17)
H6 H -0.205(5) 0.226(4) 0.5292(16)
H7 H 0.297(5) -0.055(4) 0.6531(14)
H8 H -0.357(6) 0.496(5) 0.4685(19)
H9 H 0.346(6) -0.213(5) 0.7025(19)
H10 H 0.199(6) -0.231(5) 0.7654(19)
H11 H -0.046(6) 0.053(5) 0.7232(19)
H12 H -0.007(7) -0.088(6) 0.770(2)
O3C O -0.1454(3) 0.3461(2) 0.65425(9)
Cu1C Cu 0.51802(5) 0.18983(4) 0.598052(16)
loop_
_geom_bond_atom_site_label_1
_geom_bond_atom_site_label_2
_geom_bond_site_symmetry_1
_geom_bond_site_symmetry_2
Cu1 O2 1_555 1_555
O1 C1 1_555 1_555
O2 C1 1_555 1_555
O3 C3 1_555 1_555
O4 Cu1 1_555 1_555
C1 C2 1_555 1_555
C2 C3 1_555 1_555
C3 O4 1_555 1_555
C4 C2 1_555 1_555
C5 C4 1_555 1_555
C6 C5 1_555 1_555
C7 C6 1_555 1_555
C8 C7 1_555 1_555
C9 C4 1_555 1_555
C10 C11 1_555 1_555
C11 C12 1_555 1_555
C12 N3 1_555 1_555
C13 C14 1_555 1_555
C14 N1 1_555 1_555
C15 C16 1_555 1_555
C16 C17 1_555 1_555
C17 N1 1_555 1_555
N1 Cu1 1_555 1_555
N2 Cu1 1_555 1_555
N3 C13 1_555 1_555
N4 C14 1_555 1_555
H1 C2 1_555 1_555
H2 C11 1_555 1_555
H3 C16 1_555 1_555
H4 C17 1_555 1_555
H5 C15 1_555 1_555
H6 C10 1_555 1_555
H7 C5 1_555 1_555
H8 C12 1_555 1_555
H9 C6 1_555 1_555
H10 C7 1_555 1_555
H11 C9 1_555 1_555
H12 C8 1_555 1_555
O3C Cu1 1_555 1_555
Cu1C O3 1_555 1_555
C8 C9 1_555 1_555
C10 N2 1_555 1_555
C13 N2 1_555 1_555
C15 N4 1_555 1_555

#END
