
#######################################################################
#
#                 Cambridge Crystallographic Data Centre
#                                CCDC 
#
#######################################################################
#
# If this CIF has been generated from an entry in the Cambridge 
# Structural Database, then it will include bibliographic, chemical, 
# crystal, experimental, refinement or atomic coordinate data resulting 
# from the CCDC's data processing and validation procedures.
#
#######################################################################

data_WAHWOS
_symmetry_cell_setting           monoclinic
_symmetry_space_group_name_H-M   'C c'
_symmetry_Int_Tables_number      9
_space_group_name_Hall           'C -2yc'
loop_
_symmetry_equiv_pos_site_id
_symmetry_equiv_pos_as_xyz
1 x,y,z
2 x,-y,1/2+z
3 1/2+x,1/2+y,z
4 1/2+x,1/2-y,1/2+z
_cell_length_a                   23.448(5)
_cell_length_b                   11.826(2)
_cell_length_c                   8.3163(17)
_cell_angle_alpha                90
_cell_angle_beta                 99.08(3)
_cell_angle_gamma                90
_cell_volume                     2277.18
loop_
_atom_site_label
_atom_site_type_symbol
_atom_site_fract_x
_atom_site_fract_y
_atom_site_fract_z
Cd1 Cd 0.37933(2) 0.45186(4) -0.01336(4)
Cd2 Cd 0.713840(19) -0.20745(4) 0.41047(4)
O1 O 0.6120(2) -0.1622(5) 0.3063(8)
O2 O 0.6669(3) -0.0405(5) 0.4554(8)
O3 O 0.4398(4) 0.2982(6) -0.0856(8)
O4 O 0.4363(3) 0.3340(6) 0.1647(7)
O5 O 0.2363(2) 0.7172(5) 0.2026(6)
O6 O 0.2981(2) 0.6030(5) 0.0023(6)
O7 O 0.2992(2) 0.6611(5) 0.4177(6)
O8 O 0.3513(2) 0.5268(5) 0.2177(6)
O9 O 0.7218(2) -0.1405(5) 0.1456(6)
O10 O 0.4462(3) 0.5877(6) -0.0316(7)
N1 N 0.6751(3) -0.3858(5) 0.4492(8)
N2 N 0.7801(3) -0.3498(6) 0.3683(9)
C1 C 0.6245(4) -0.3984(8) 0.4947(11)
H1 H 0.6018 -0.3344 0.4996
C2 C 0.6028(5) -0.5014(9) 0.5360(13)
H2 H 0.5662 -0.5071 0.5649
C3 C 0.6382(4) -0.5972(8) 0.5326(12)
H3 H 0.6264 -0.6680 0.5634
C4 C 0.6905(4) -0.5830(7) 0.4827(11)
H4 H 0.7140 -0.6456 0.4760
C5 C 0.7092(3) -0.4778(6) 0.4421(8)
C6 C 0.7662(3) -0.4588(6) 0.3950(9)
C7 C 0.8043(4) -0.5431(8) 0.3787(14)
H5 H 0.7942 -0.6173 0.3981
C8 C 0.8573(5) -0.5219(10) 0.3344(17)
H6 H 0.8822 -0.5807 0.3186
C9 C 0.8728(5) -0.4098(10) 0.3139(18)
H7 H 0.9090 -0.3915 0.2890
C10 C 0.8334(4) -0.3272(9) 0.3313(14)
H8 H 0.8435 -0.2522 0.3172
C11 C 0.6198(4) -0.0671(6) 0.3709(10)
C12 C 0.5712(3) 0.0188(7) 0.3459(11)
H9 H 0.5529 0.0207 0.4427
H10 H 0.5424 -0.0055 0.2557
C13 C 0.5908(3) 0.1365(7) 0.3117(10)
H11 H 0.6168 0.1637 0.4060
H12 H 0.6121 0.1337 0.2208
C14 C 0.4572(4) 0.2803(7) 0.0595(10)
C15 C 0.5035(3) 0.1931(7) 0.1126(8)
H13 H 0.4852 0.1203 0.1209
H14 H 0.5279 0.1869 0.0290
C16 C 0.5410(4) 0.2188(7) 0.2723(10)
H15 H 0.5176 0.2163 0.3586
H16 H 0.5563 0.2948 0.2687
C17 C 0.2791(3) 0.6622(6) 0.2680(8)
C18 C 0.3119(3) 0.5926(5) 0.1546(7)
O7A O 0.2992(2) 0.3389(5) -0.0823(6)
O8A O 0.3513(2) 0.4732(5) -0.2823(6)
O5C O 0.7363(2) -0.2172(5) 0.7026(6)
O6C O 0.7981(2) -0.1030(5) 0.5023(6)
Cd2C Cd 0.213840(19) 0.70745(4) -0.08953(4)
Cd1A Cd 0.37933(2) 0.54814(4) 0.48664(4)
O11 O 0.5007(5) 0.2516(9) 0.6696(13)
loop_
_geom_bond_atom_site_label_1
_geom_bond_atom_site_label_2
_geom_bond_site_symmetry_1
_geom_bond_site_symmetry_2
Cd1 O3 1_555 1_555
Cd2 O1 1_555 1_555
O1 C11 1_555 1_555
O2 Cd2 1_555 1_555
O3 C14 1_555 1_555
O4 Cd1 1_555 1_555
O5 C17 1_555 1_555
O6 Cd1 1_555 1_555
O7 C17 1_555 1_555
O8 Cd1 1_555 1_555
O9 Cd2 1_555 1_555
O10 Cd1 1_555 1_555
N1 Cd2 1_555 1_555
N2 Cd2 1_555 1_555
C1 N1 1_555 1_555
H1 C1 1_555 1_555
C2 C1 1_555 1_555
H2 C2 1_555 1_555
C3 C2 1_555 1_555
H3 C3 1_555 1_555
C4 C3 1_555 1_555
H4 C4 1_555 1_555
C5 N1 1_555 1_555
C6 N2 1_555 1_555
C7 C6 1_555 1_555
H5 C7 1_555 1_555
C8 C7 1_555 1_555
H6 C8 1_555 1_555
C9 C8 1_555 1_555
H7 C9 1_555 1_555
C10 N2 1_555 1_555
H8 C10 1_555 1_555
C11 O2 1_555 1_555
C12 C11 1_555 1_555
H9 C12 1_555 1_555
H10 C12 1_555 1_555
C13 C12 1_555 1_555
H11 C13 1_555 1_555
H12 C13 1_555 1_555
C14 O4 1_555 1_555
C15 C14 1_555 1_555
H13 C15 1_555 1_555
H14 C15 1_555 1_555
C16 C13 1_555 1_555
H15 C16 1_555 1_555
H16 C16 1_555 1_555
C17 C18 1_555 1_555
C18 O6 1_555 1_555
O7A Cd1 1_555 1_555
O8A Cd1 1_555 1_555
O5C Cd2 1_555 1_555
O6C Cd2 1_555 1_555
Cd2C O5 1_555 1_555
Cd1A O7 1_555 1_555
O6 Cd2C 1_555 1_555
O8 C18 1_555 1_555
O8 Cd1A 1_555 1_555
C4 C5 1_555 1_555
C5 C6 1_555 1_555
C9 C10 1_555 1_555
C15 C16 1_555 1_555

#END
