
#######################################################################
#
#                 Cambridge Crystallographic Data Centre
#                                CCDC 
#
#######################################################################
#
# If this CIF has been generated from an entry in the Cambridge 
# Structural Database, then it will include bibliographic, chemical, 
# crystal, experimental, refinement or atomic coordinate data resulting 
# from the CCDC's data processing and validation procedures.
#
#######################################################################

data_WAHWAE
_symmetry_cell_setting           monoclinic
_symmetry_space_group_name_H-M   'P 21/n'
_symmetry_Int_Tables_number      14
_space_group_name_Hall           '-P 2yn'
loop_
_symmetry_equiv_pos_site_id
_symmetry_equiv_pos_as_xyz
1 x,y,z
2 1/2+x,1/2-y,1/2+z
3 -x,-y,-z
4 1/2-x,1/2+y,1/2-z
_cell_length_a                   5.0145(13)
_cell_length_b                   26.403(3)
_cell_length_c                   14.685(2)
_cell_angle_alpha                90
_cell_angle_beta                 94.750(7)
_cell_angle_gamma                90
_cell_volume                     1937.58
loop_
_atom_site_label
_atom_site_type_symbol
_atom_site_fract_x
_atom_site_fract_y
_atom_site_fract_z
Cu1 Cu 0.56273(7) 0.237769(15) 0.71709(3)
O1 O 0.2636(6) 0.37023(11) 0.62561(19)
O2 O 0.4597(4) 0.29651(8) 0.64647(16)
O3 O -0.1228(4) 0.28220(9) 0.80966(16)
O4 O 0.2528(4) 0.24187(8) 0.78683(16)
N1 N 0.6571(5) 0.16930(10) 0.76690(19)
N2 N 0.8190(5) 0.21710(11) 0.62411(18)
C1 C 0.3255(6) 0.33380(13) 0.6742(2)
C2 C 0.2609(6) 0.33249(12) 0.7758(2)
C3 C 0.1132(6) 0.28199(12) 0.7922(2)
C4 C 0.1184(6) 0.37894(12) 0.8058(2)
C5 C -0.1115(7) 0.39762(15) 0.7626(3)
C6 C -0.2293(9) 0.44129(16) 0.7897(3)
C7 C -0.1169(10) 0.46754(17) 0.8629(4)
C8 C 0.1081(10) 0.45027(16) 0.9097(3)
C9 C 0.2272(9) 0.40592(15) 0.8826(3)
C10 C 0.8975(8) 0.24253(17) 0.5533(3)
C11 C 1.0887(8) 0.22410(16) 0.4986(3)
C12 C 1.2024(7) 0.17835(17) 0.5172(3)
C13 C 1.1235(6) 0.14905(14) 0.5913(2)
C14 C 0.9313(6) 0.17116(13) 0.6434(2)
C15 C 0.8417(6) 0.14480(12) 0.7208(2)
C16 C 0.9444(7) 0.09731(13) 0.7445(3)
C17 C 0.8466(9) 0.07365(17) 0.8209(3)
C18 C 0.6576(9) 0.09826(16) 0.8670(3)
C19 C 0.5667(8) 0.14618(15) 0.8384(3)
C20 C 1.1398(8) 0.07553(17) 0.6897(3)
C21 C 1.2225(8) 0.10012(16) 0.6171(3)
H1 H 0.900(10) 0.040(2) 0.848(3)
H2 H 0.444(6) 0.3308(11) 0.814(2)
H3 H 0.449(7) 0.1604(13) 0.875(2)
H4 H 0.830(6) 0.2723(13) 0.541(2)
H5 H 0.370(8) 0.3939(15) 0.910(3)
H6 H -0.184(6) 0.3832(12) 0.717(2)
H7 H 1.356(7) 0.0874(13) 0.574(3)
H8 H 1.328(7) 0.1655(13) 0.476(3)
H9 H -0.214(7) 0.4988(15) 0.885(3)
H10 H 0.590(7) 0.0868(14) 0.916(3)
H11 H 1.141(8) 0.2409(14) 0.448(3)
H12 H 1.189(8) 0.0441(17) 0.709(3)
H13 H -0.387(8) 0.4516(16) 0.757(3)
H14 H 0.195(8) 0.4676(16) 0.966(3)
O3_2 O 0.8772(4) 0.28220(9) 0.80966(16)
Cu1_2 Cu -0.43727(7) 0.237769(15) 0.71709(3)
O5 O 0.827(2) -0.0263(3) 0.9702(6)
O6 O 0.7220(9) 0.37271(19) 0.5096(3)
O7 O 0.3054(11) -0.02344(16) 0.8828(4)
loop_
_geom_bond_atom_site_label_1
_geom_bond_atom_site_label_2
_geom_bond_site_symmetry_1
_geom_bond_site_symmetry_2
Cu1 O2 1_555 1_555
O1 C1 1_555 1_555
O2 C1 1_555 1_555
O3 C3 1_555 1_555
O4 Cu1 1_555 1_555
N1 Cu1 1_555 1_555
N2 Cu1 1_555 1_555
C1 C2 1_555 1_555
C2 C3 1_555 1_555
C3 O4 1_555 1_555
C4 C2 1_555 1_555
C5 C4 1_555 1_555
C6 C5 1_555 1_555
C7 C6 1_555 1_555
C8 C7 1_555 1_555
C9 C4 1_555 1_555
C10 N2 1_555 1_555
C11 C10 1_555 1_555
C12 C11 1_555 1_555
C13 C12 1_555 1_555
C14 N2 1_555 1_555
C15 N1 1_555 1_555
C16 C15 1_555 1_555
C17 C16 1_555 1_555
C18 C17 1_555 1_555
C19 N1 1_555 1_555
C20 C16 1_555 1_555
C21 C13 1_555 1_555
H1 C17 1_555 1_555
H2 C2 1_555 1_555
H3 C19 1_555 1_555
H4 C10 1_555 1_555
H5 C9 1_555 1_555
H6 C5 1_555 1_555
H7 C21 1_555 1_555
H8 C12 1_555 1_555
H9 C7 1_555 1_555
H10 C18 1_555 1_555
H11 C11 1_555 1_555
H12 C20 1_555 1_555
H13 C6 1_555 1_555
H14 C8 1_555 1_555
O3_2 Cu1 1_555 1_555
Cu1_2 O3 1_555 1_555
C8 C9 1_555 1_555
C13 C14 1_555 1_555
C14 C15 1_555 1_555
C18 C19 1_555 1_555
C20 C21 1_555 1_555

#END
