
#######################################################################
#
#                 Cambridge Crystallographic Data Centre
#                                CCDC 
#
#######################################################################
#
# If this CIF has been generated from an entry in the Cambridge 
# Structural Database, then it will include bibliographic, chemical, 
# crystal, experimental, refinement or atomic coordinate data resulting 
# from the CCDC's data processing and validation procedures.
#
#######################################################################

data_WAHYUA
_symmetry_cell_setting           triclinic
_symmetry_space_group_name_H-M   'P -1'
_symmetry_Int_Tables_number      2
_space_group_name_Hall           '-P 1'
loop_
_symmetry_equiv_pos_site_id
_symmetry_equiv_pos_as_xyz
1 x,y,z
2 -x,-y,-z
_cell_length_a                   8.993(2)
_cell_length_b                   9.749(3)
_cell_length_c                   8.919(3)
_cell_angle_alpha                111.00(2)
_cell_angle_beta                 118.68(2)
_cell_angle_gamma                71.49(2)
_cell_volume                     630.269
loop_
_atom_site_label
_atom_site_type_symbol
_atom_site_fract_x
_atom_site_fract_y
_atom_site_fract_z
Cu1 Cu 0.13390(7) 0.23250(7) -0.13360(8)
S1 S -0.00864(16) 0.36855(14) -0.34377(17)
O1 O 0.2064(4) 0.1449(4) 0.0669(5)
O2 O 0.0937(5) 0.1037(5) 0.2186(5)
O3 O -0.6420(4) 0.1912(4) -0.1322(5)
O4 O -0.5502(5) 0.3881(4) 0.0858(5)
O5 O 0.0913(6) -0.0003(4) -0.3215(5)
N1 N -0.3061(5) 0.5525(5) -0.3695(6)
H1 H -0.3885 0.5922 -0.3355
N2 N -0.2003(5) 0.4159(4) -0.1681(5)
H2 H -0.2894 0.4551 -0.1449
N3 N -0.0706(4) 0.3157(4) -0.0815(5)
C1 C -0.1829(6) 0.4513(5) -0.2925(6)
C2 C -0.0757(5) 0.2720(5) 0.0356(6)
C3 C 0.0869(6) 0.1638(5) 0.1147(6)
C4 C -0.2237(6) 0.3145(5) 0.0863(6)
H3 H -0.2707 0.4199 0.0939
H4 H -0.1838 0.2972 0.2012
C5 C -0.3638(6) 0.2226(5) -0.0501(7)
H5 H -0.3878 0.2267 -0.1668
H6 H -0.3202 0.1192 -0.0439
C6 C -0.5301(6) 0.2733(5) -0.0272(7)
C7 C -0.3114(8) 0.6012(7) -0.5083(7)
H7 H -0.4124 0.6755 -0.5442
H8 H -0.3147 0.5174 -0.6074
H9 H -0.2106 0.6429 -0.4651
H10 H 0.041(10) -0.031(9) -0.293(10)
H11 H 0.188(13) -0.051(10) -0.303(12)
O3_2 O 0.3580(4) 0.1912(4) -0.1322(5)
Cu1_2 Cu -0.86610(7) 0.23250(7) -0.13360(8)
O6 O 0.4241(7) -0.1617(7) -0.3226(8)
O7 O -0.3905(13) 0.0512(12) -0.4607(13)
O8? O -0.4169(12) 0.0047(12) -0.4478(13)
loop_
_geom_bond_atom_site_label_1
_geom_bond_atom_site_label_2
_geom_bond_site_symmetry_1
_geom_bond_site_symmetry_2
Cu1 S1 1_555 1_555
S1 C1 1_555 1_555
O1 Cu1 1_555 1_555
O2 C3 1_555 1_555
O3 C6 1_555 1_555
O4 C6 1_555 1_555
O5 Cu1 1_555 1_555
N1 H1 1_555 1_555
N2 H2 1_555 1_555
N3 Cu1 1_555 1_555
C1 N1 1_555 1_555
C2 N3 1_555 1_555
C3 O1 1_555 1_555
C4 C2 1_555 1_555
H3 C4 1_555 1_555
H4 C4 1_555 1_555
C5 C4 1_555 1_555
H5 C5 1_555 1_555
H6 C5 1_555 1_555
C6 C5 1_555 1_555
C7 N1 1_555 1_555
H7 C7 1_555 1_555
H8 C7 1_555 1_555
H9 C7 1_555 1_555
H10 O5 1_555 1_555
H11 O5 1_555 1_555
O3_2 Cu1 1_555 1_555
Cu1_2 O3 1_555 1_555
N2 C1 1_555 1_555
N2 N3 1_555 1_555
C2 C3 1_555 1_555

#END
