
#######################################################################
#
#                 Cambridge Crystallographic Data Centre
#                                CCDC 
#
#######################################################################
#
# If this CIF has been generated from an entry in the Cambridge 
# Structural Database, then it will include bibliographic, chemical, 
# crystal, experimental, refinement or atomic coordinate data resulting 
# from the CCDC's data processing and validation procedures.
#
#######################################################################

data_WAJCAM
_symmetry_cell_setting           monoclinic
_symmetry_space_group_name_H-M   'C 2/c'
_symmetry_Int_Tables_number      15
_space_group_name_Hall           '-C 2yn'
loop_
_symmetry_equiv_pos_site_id
_symmetry_equiv_pos_as_xyz
1 x,y,z
2 x,-y,1/2+z
3 1/2+x,1/2+y,z
4 1/2+x,1/2-y,1/2+z
5 -x,-y,-z
6 -x,y,1/2-z
7 1/2-x,1/2-y,-z
8 1/2-x,1/2+y,1/2-z
_cell_length_a                   16.765(3)
_cell_length_b                   8.8220(18)
_cell_length_c                   14.048(3)
_cell_angle_alpha                90
_cell_angle_beta                 120.64(3)
_cell_angle_gamma                90
_cell_volume                     1787.63
loop_
_atom_site_label
_atom_site_type_symbol
_atom_site_fract_x
_atom_site_fract_y
_atom_site_fract_z
La1 La 0.413927(11) 1.418039(19) 0.327405(12)
O1 O 0.32780(15) 1.1900(3) 0.20934(18)
O2 O 0.23283(16) 1.0711(3) 0.25212(19)
O3 O 0.21313(15) 0.8295(3) 0.13016(18)
O4 O 0.08365(15) 1.0355(3) 0.00452(17)
O5 O 0.08623(15) 1.0751(3) -0.14773(17)
O6 O 0.44300(17) 0.6808(3) 0.3052(2)
O7 O 0.4190(2) 0.9015(3) 0.3616(2)
C1 C 0.2796(2) 1.0792(3) 0.2049(2)
C2 C 0.2736(2) 0.9448(3) 0.1301(2)
C3 C 0.2298(2) 1.0006(4) 0.0098(2)
H1 H 0.2381 0.9228 -0.0332
H2 H 0.2633 1.0899 0.0090
C4 C 0.1273(2) 1.0395(3) -0.0465(2)
C5 C 0.3707(2) 0.8803(4) 0.1701(3)
H3 H 0.3665 0.8007 0.1201
H4 H 0.4102 0.9597 0.1690
C6 C 0.4143(2) 0.8156(4) 0.2881(3)
O8 O 0.4850(2) 1.1824(3) 0.4282(2)
H5 H 0.232(3) 0.755(6) 0.172(4)
H6 H 0.463(4) 1.097(6) 0.401(5)
H7 H 0.510(4) 1.168(6) 0.493(4)
O2G O 0.26717(16) 1.5711(3) 0.24788(19)
O3G O 0.28687(15) 1.3295(3) 0.36984(18)
O4C O 0.58365(15) 1.4645(3) 0.50452(17)
O4G O 0.41635(15) 1.5355(3) 0.49548(17)
O5C O 0.58623(15) 1.4249(3) 0.35227(17)
O5F O 0.41377(15) 1.4249(3) 0.14773(17)
O6_2 O 0.44300(17) 1.6808(3) 0.3052(2)
La1G La 0.086073(11) 0.918039(19) 0.172595(12)
La1C La -0.086073(11) 1.081961(19) -0.172595(12)
La1F La 0.086073(11) 1.081961(19) -0.327405(12)
La1_2 La 0.413927(11) 0.418039(19) 0.327405(12)
H5G H 0.268(3) 1.255(6) 0.328(4)
loop_
_geom_bond_atom_site_label_1
_geom_bond_atom_site_label_2
_geom_bond_site_symmetry_1
_geom_bond_site_symmetry_2
La1 O1 1_555 1_555
O1 C1 1_555 1_555
O2 C1 1_555 1_555
O3 C2 1_555 1_555
O4 C4 1_555 1_555
O5 C4 1_555 1_555
O6 C6 1_555 1_555
O7 C6 1_555 1_555
C1 C2 1_555 1_555
C2 C3 1_555 1_555
C3 H1 1_555 1_555
H2 C3 1_555 1_555
C4 C3 1_555 1_555
C5 C2 1_555 1_555
H3 C5 1_555 1_555
H4 C5 1_555 1_555
C6 C5 1_555 1_555
O8 La1 1_555 1_555
H5 O3 1_555 1_555
H6 O8 1_555 1_555
H7 O8 1_555 1_555
O2G La1 1_555 1_555
O3G La1 1_555 1_555
O4C La1 1_555 1_555
O4G La1 1_555 1_555
O5C La1 1_555 1_555
O5F La1 1_555 1_555
O6_2 La1 1_555 1_555
La1G O2 1_555 1_555
La1C O4 1_555 1_555
La1F O5 1_555 1_555
La1_2 O6 1_555 1_555
H5G O3G 1_555 1_555
O3 La1G 1_555 1_555
O4 La1G 1_555 1_555
O5 La1C 1_555 1_555

#END
