
#######################################################################
#
#                 Cambridge Crystallographic Data Centre
#                                CCDC 
#
#######################################################################
#
# If this CIF has been generated from an entry in the Cambridge 
# Structural Database, then it will include bibliographic, chemical, 
# crystal, experimental, refinement or atomic coordinate data resulting 
# from the CCDC's data processing and validation procedures.
#
#######################################################################

data_WAJDIV
_symmetry_cell_setting           monoclinic
_symmetry_space_group_name_H-M   'C c'
_symmetry_Int_Tables_number      9
_space_group_name_Hall           'C -2yc'
loop_
_symmetry_equiv_pos_site_id
_symmetry_equiv_pos_as_xyz
1 x,y,z
2 x,-y,1/2+z
3 1/2+x,1/2+y,z
4 1/2+x,1/2-y,1/2+z
_cell_length_a                   11.4639(3)
_cell_length_b                   16.6254(7)
_cell_length_c                   19.0184(9)
_cell_angle_alpha                90
_cell_angle_beta                 102.625(2)
_cell_angle_gamma                90
_cell_volume                     3537.11
loop_
_atom_site_label
_atom_site_type_symbol
_atom_site_fract_x
_atom_site_fract_y
_atom_site_fract_z
Sr1 Sr 0.5038 0.37073(3) 0.4994
Fe1 Fe 1.0043(2) 0.33800(4) 0.4996(1)
O1 O 1.010(1) 0.1708(3) 0.5032(9)
O2 O 0.493(1) 0.2547(7) 0.4140(6)
O3 O 0.5090(8) 0.2536(6) 0.5852(6)
N1 N 0.7359(7) 0.3484(7) 0.5007(5)
N2 N 0.2717(7) 0.3479(8) 0.4975(7)
N3 N 1.049(1) 0.3510(10) 0.6664(6)
N4 N 0.943(1) 0.3529(10) 0.3362(5)
N5 N 1.002(1) 0.5238(4) 0.4993(9)
N6 N 1.0006(10) 0.2394(3) 0.4992(7)
N7 N 0.6228(8) 0.4284(6) 0.6288(4)
N8 N 0.4231(7) 0.5033(6) 0.5609(5)
N9 N 0.5882(8) 0.5086(6) 0.4369(4)
N10 N 0.3811(7) 0.4279(7) 0.3671(4)
N11 N 0.5884(8) 0.1541(8) 0.3657(5)
N12 N 0.4142(9) 0.1564(6) 0.6327(5)
C1 C 0.8334(8) 0.3455(7) 0.4996(6)
C2 C 0.1708(8) 0.3461(7) 0.4997(5)
C3 C 1.0410(10) 0.3498(8) 0.6050(5)
C4 C 0.9703(9) 0.3457(8) 0.3946(6)
C5 C 1.007(1) 0.4548(3) 0.5006(8)
C6 C 0.718(1) 0.3877(7) 0.6667(7)
C7 C 0.782(1) 0.4106(9) 0.7354(6)
C8 C 0.746(1) 0.4826(9) 0.7651(7)
C9 C 0.6567(9) 0.5229(8) 0.7251(5)
C10 C 0.5890(9) 0.4952(7) 0.6617(5)
C11 C 0.4858(9) 0.5384(8) 0.6229(5)
C12 C 0.454(1) 0.6125(6) 0.6526(7)
C13 C 0.353(1) 0.6509(8) 0.6199(7)
C14 C 0.284(1) 0.6193(8) 0.5546(7)
C15 C 0.3218(8) 0.5426(7) 0.5266(6)
C16 C 0.622(1) 0.5979(8) 0.7537(8)
C17 C 0.528(1) 0.6414(8) 0.7215(6)
C18 C 0.6835(9) 0.5457(9) 0.4668(6)
C19 C 0.7208(9) 0.6143(8) 0.4459(7)
C20 C 0.659(1) 0.6494(9) 0.3880(7)
C21 C 0.552(1) 0.6084(8) 0.3458(7)
C22 C 0.5190(7) 0.5385(6) 0.3751(5)
C23 C 0.4128(7) 0.4949(6) 0.3393(4)
C24 C 0.3514(9) 0.5267(8) 0.2687(5)
C25 C 0.2453(10) 0.4776(8) 0.2352(5)
C26 C 0.2201(8) 0.4118(8) 0.2668(7)
C27 C 0.2874(9) 0.3882(7) 0.3333(6)
C28 C 0.488(1) 0.6370(9) 0.2814(8)
C29 C 0.388(1) 0.5981(9) 0.2409(7)
C30 C 0.505(1) 0.1824(8) 0.3944(7)
C31 C 0.686(1) 0.2005(10) 0.3515(7)
C32 C 0.589(1) 0.074(1) 0.3461(7)
C33 C 0.5010(9) 0.1871(8) 0.6024(6)
C34 C 0.4178(10) 0.0699(7) 0.6562(5)
C35 C 0.319(1) 0.209(1) 0.6444(8)
H1 H 0.7499 0.3449 0.6489
H2 H 0.8462 0.3743 0.7622
H3 H 0.7955 0.5068 0.8095
H4 H 0.3362 0.6980 0.6360
H5 H 0.2075 0.6405 0.5270
H6 H 0.2782 0.5258 0.4857
H7 H 0.6475 0.6193 0.8023
H8 H 0.4971 0.6927 0.7424
H9 H 0.7328 0.5165 0.5129
H10 H 0.7896 0.6430 0.4687
H11 H 0.6945 0.7030 0.3682
H12 H 0.2043 0.4892 0.1872
H13 H 0.1505 0.3844 0.2453
H14 H 0.2718 0.3352 0.3604
H15 H 0.4965 0.6903 0.2640
H16 H 0.3324 0.6148 0.1966
H17 H 0.4495 0.1500 0.4053
H18 H 0.7603 0.1819 0.3733
H19 H 0.6787 0.2020 0.2990
H20 H 0.6773 0.2566 0.3650
H21 H 0.5337 0.0463 0.3587
H22 H 0.5901 0.0742 0.2957
H23 H 0.6715 0.0539 0.3701
H24 H 0.5647 0.1451 0.5962
H25 H 0.3610 0.0518 0.6798
H26 H 0.4217 0.0325 0.6164
H27 H 0.4990 0.0561 0.6911
H28 H 0.3442 0.2569 0.6672
H29 H 0.2724 0.2251 0.5937
H30 H 0.2617 0.1825 0.6646
C2_2 C 1.1708(8) 0.3461(7) 0.4997(5)
Fe1_2 Fe 0.0043(2) 0.33800(4) 0.4996(1)
loop_
_geom_bond_atom_site_label_1
_geom_bond_atom_site_label_2
_geom_bond_site_symmetry_1
_geom_bond_site_symmetry_2
Sr1 O2 1_555 1_555
Fe1 N6 1_555 1_555
O1 N6 1_555 1_555
O2 C30 1_555 1_555
O3 Sr1 1_555 1_555
N1 Sr1 1_555 1_555
N2 Sr1 1_555 1_555
N3 C3 1_555 1_555
N4 C4 1_555 1_555
N5 C5 1_555 1_555
N7 Sr1 1_555 1_555
N8 Sr1 1_555 1_555
N9 Sr1 1_555 1_555
N10 Sr1 1_555 1_555
N11 C30 1_555 1_555
N12 C33 1_555 1_555
C1 Fe1 1_555 1_555
C2 N2 1_555 1_555
C3 Fe1 1_555 1_555
C4 Fe1 1_555 1_555
C5 Fe1 1_555 1_555
C6 N7 1_555 1_555
C7 C6 1_555 1_555
C8 C7 1_555 1_555
C9 C8 1_555 1_555
C10 N7 1_555 1_555
C11 N8 1_555 1_555
C12 C11 1_555 1_555
C13 C12 1_555 1_555
C14 C13 1_555 1_555
C15 N8 1_555 1_555
C16 C9 1_555 1_555
C17 C12 1_555 1_555
C18 N9 1_555 1_555
C19 C18 1_555 1_555
C20 C19 1_555 1_555
C21 C20 1_555 1_555
C22 N9 1_555 1_555
C23 N10 1_555 1_555
C24 C23 1_555 1_555
C25 C24 1_555 1_555
C26 C25 1_555 1_555
C27 N10 1_555 1_555
C28 C21 1_555 1_555
C29 C24 1_555 1_555
C30 H17 1_555 1_555
C31 N11 1_555 1_555
C32 N11 1_555 1_555
C33 O3 1_555 1_555
C34 N12 1_555 1_555
C35 N12 1_555 1_555
H1 C6 1_555 1_555
H2 C7 1_555 1_555
H3 C8 1_555 1_555
H4 C13 1_555 1_555
H5 C14 1_555 1_555
H6 C15 1_555 1_555
H7 C16 1_555 1_555
H8 C17 1_555 1_555
H9 C18 1_555 1_555
H10 C19 1_555 1_555
H11 C20 1_555 1_555
H12 C25 1_555 1_555
H13 C26 1_555 1_555
H14 C27 1_555 1_555
H15 C28 1_555 1_555
H16 C29 1_555 1_555
H18 C31 1_555 1_555
H19 C31 1_555 1_555
H20 C31 1_555 1_555
H21 C32 1_555 1_555
H22 C32 1_555 1_555
H23 C32 1_555 1_555
H24 C33 1_555 1_555
H25 C34 1_555 1_555
H26 C34 1_555 1_555
H27 C34 1_555 1_555
H28 C35 1_555 1_555
H29 C35 1_555 1_555
H30 C35 1_555 1_555
C2_2 Fe1 1_555 1_555
Fe1_2 C2 1_555 1_555
N1 C1 1_555 1_555
C9 C10 1_555 1_555
C10 C11 1_555 1_555
C14 C15 1_555 1_555
C16 C17 1_555 1_555
C21 C22 1_555 1_555
C22 C23 1_555 1_555
C26 C27 1_555 1_555
C28 C29 1_555 1_555

#END
