
#######################################################################
#
#                 Cambridge Crystallographic Data Centre
#                                CCDC 
#
#######################################################################
#
# If this CIF has been generated from an entry in the Cambridge 
# Structural Database, then it will include bibliographic, chemical, 
# crystal, experimental, refinement or atomic coordinate data resulting 
# from the CCDC's data processing and validation procedures.
#
#######################################################################

data_WAJFEU
_symmetry_cell_setting           triclinic
_symmetry_space_group_name_H-M   'P -1'
_symmetry_Int_Tables_number      2
_space_group_name_Hall           '-P 1'
loop_
_symmetry_equiv_pos_site_id
_symmetry_equiv_pos_as_xyz
1 x,y,z
2 -x,-y,-z
_cell_length_a                   11.8612(14)
_cell_length_b                   12.8546(15)
_cell_length_c                   16.8747(19)
_cell_angle_alpha                71.216(2)
_cell_angle_beta                 79.836(2)
_cell_angle_gamma                65.4310(10)
_cell_volume                     2212.62
loop_
_atom_site_label
_atom_site_type_symbol
_atom_site_fract_x
_atom_site_fract_y
_atom_site_fract_z
Cu1 Cu 0.52909(6) 0.48431(6) 0.42344(4)
C1 C 0.7071(5) 0.9700(5) 0.4166(4)
C2 C 0.9160(6) 0.9666(5) 0.4132(4)
C3 C 0.8682(6) 0.7931(5) 0.4961(4)
C4 C 0.6591(6) 0.7967(6) 0.4984(4)
H1 H 0.5752 0.8541 0.5031
H2 H 0.6795 0.7389 0.5527
C5 C 0.6665(7) 0.7343(7) 0.4341(4)
H3 H 0.6362 0.7942 0.3819
H4 H 0.7529 0.6868 0.4237
C6 C 0.5944(5) 0.6548(5) 0.4584(4)
C7 C 0.7585(6) 1.1338(5) 0.3201(4)
H5 H 0.7112 1.1286 0.2812
H6 H 0.8332 1.1425 0.2902
C8 C 0.6827(7) 1.2419(5) 0.3507(4)
H7 H 0.7351 1.2540 0.3821
H8 H 0.6163 1.2267 0.3888
C9 C 0.6265(6) 1.3551(5) 0.2819(4)
C10 C 1.0782(6) 0.7868(6) 0.4903(4)
H9 H 1.0826 0.7276 0.5439
H10 H 1.1117 0.8411 0.4960
C11 C 1.1559(6) 0.7257(6) 0.4244(5)
H11 H 1.1167 0.6784 0.4145
H12 H 1.1578 0.7858 0.3723
C12 C 1.2877(6) 0.6460(5) 0.4490(4)
N1 N 0.7470(4) 0.8587(4) 0.4731(3)
N2 N 0.7936(5) 1.0217(4) 0.3899(3)
N3 N 0.9474(4) 0.8534(4) 0.4678(3)
O1 O 0.5891(4) 0.6126(4) 0.4018(3)
O2 O 0.5466(4) 0.6357(4) 0.5306(3)
O3 O 0.6246(5) 1.3479(4) 0.2092(3)
O4 O 0.5803(4) 1.4521(4) 0.3011(3)
O5 O 1.3135(4) 0.6263(4) 0.5221(3)
O6 O 1.3615(4) 0.6040(4) 0.3935(3)
O7 O 0.6014(4) 1.0213(4) 0.3927(3)
O8 O 0.9886(4) 1.0130(4) 0.3889(4)
O9 O 0.9026(4) 0.6909(4) 0.5382(3)
Cu1A Cu 0.47091(6) 0.51569(6) 0.57656(4)
Cu1_2 Cu 0.52909(6) 1.48431(6) 0.42344(4)
Cu1A_2 Cu 1.47091(6) 0.51569(6) 0.57656(4)
Cu1_3 Cu 1.52909(6) 0.48431(6) 0.42344(4)
Cu1A_3 Cu 0.47091(6) -0.48431(6) 0.57656(4)
Cu1_4 Cu -0.47091(6) 0.48431(6) 0.42344(4)
Cu1A_4 Cu -0.52909(6) 0.51569(6) 0.57656(4)
C1A C 0.2929(5) 0.0300(5) 0.5834(4)
C2A C 0.0840(6) 0.0334(5) 0.5868(4)
C3A C 0.1318(6) 0.2069(5) 0.5039(4)
C4A C 0.3409(6) 0.2033(6) 0.5016(4)
H1A H 0.4248 0.1459 0.4969
H2A H 0.3205 0.2611 0.4473
C5A C 0.3335(7) 0.2657(7) 0.5659(4)
H3A H 0.3638 0.2058 0.6181
H4A H 0.2471 0.3132 0.5763
C6A C 0.4056(5) 0.3452(5) 0.5416(4)
C7A C 0.2415(6) -0.1338(5) 0.6799(4)
H5A H 0.2888 -0.1286 0.7188
H6A H 0.1668 -0.1425 0.7098
C8A C 0.3173(7) -0.2419(5) 0.6493(4)
H7A H 0.2649 -0.2540 0.6179
H8A H 0.3837 -0.2267 0.6112
C9A C 0.3735(6) -0.3551(5) 0.7181(4)
C10A C -0.0782(6) 0.2132(6) 0.5097(4)
H9A H -0.0826 0.2724 0.4561
H10A H -0.1117 0.1589 0.5040
C11A C -0.1559(6) 0.2743(6) 0.5756(5)
H11A H -0.1167 0.3216 0.5855
H12A H -0.1578 0.2142 0.6277
C12A C -0.2877(6) 0.3540(5) 0.5510(4)
N1A N 0.2530(4) 0.1413(4) 0.5269(3)
N2A N 0.2064(5) -0.0217(4) 0.6101(3)
N3A N 0.0526(4) 0.1466(4) 0.5322(3)
O1A O 0.4109(4) 0.3874(4) 0.5982(3)
O2A O 0.4534(4) 0.3643(4) 0.4694(3)
O3A O 0.3754(5) -0.3479(4) 0.7908(3)
O4A O 0.4197(4) -0.4521(4) 0.6989(3)
O4_2 O 0.5803(4) 0.4521(4) 0.3011(3)
O4A_2 O 0.4197(4) 0.5479(4) 0.6989(3)
O5A O -0.3135(4) 0.3737(4) 0.4779(3)
O5A_2 O 0.6865(4) 0.3737(4) 0.4779(3)
O5_2 O 0.3135(4) 0.6263(4) 0.5221(3)
O6A O -0.3615(4) 0.3960(4) 0.6065(3)
O6_2 O 0.3615(4) 0.6040(4) 0.3935(3)
O6A_2 O 0.6385(4) 0.3960(4) 0.6065(3)
O7A O 0.3986(4) -0.0213(4) 0.6073(3)
O8A O 0.0114(4) -0.0130(4) 0.6111(4)
O9A O 0.0974(4) 0.3091(4) 0.4618(3)
Cu2 Cu 0.0000 0.5000 1.0000
Cu3 Cu -0.28244(7) 0.57488(7) 0.98830(5)
Cu4 Cu 0.07762(8) 0.71424(7) 1.00172(5)
C13 C 0.0430(7) 0.5107(7) 1.2918(4)
C14 C 0.1893(7) 0.3139(7) 1.2886(4)
C15 C -0.0263(7) 0.3789(7) 1.2572(4)
C16 C -0.1759(7) 0.5721(8) 1.2692(5)
H13 H -0.1947 0.6053 1.3164
H14 H -0.2329 0.5337 1.2738
C17 C -0.1977(7) 0.6745(7) 1.1872(5)
H15 H -0.2822 0.7322 1.1886
H16 H -0.1421 0.7144 1.1826
C18 C -0.1755(6) 0.6282(6) 1.1120(4)
C19 C 0.2679(7) 0.4592(7) 1.2936(4)
H17 H 0.3441 0.3889 1.2979
H18 H 0.2562 0.4844 1.3438
C20 C 0.2804(8) 0.5563(7) 1.2188(4)
H19 H 0.3650 0.5515 1.2143
H20 H 0.2264 0.6322 1.2289
C21 C 0.2508(6) 0.5555(6) 1.1361(4)
C22 C 0.1215(8) 0.1741(7) 1.2630(5)
H21 H 0.0447 0.1631 1.2658
H22 H 0.1704 0.1133 1.3090
C23 C 0.1917(7) 0.1574(7) 1.1815(5)
H23 H 0.2137 0.0765 1.1798
H24 H 0.2678 0.1703 1.1773
C24 C 0.1116(7) 0.2454(6) 1.1075(4)
N4 N -0.0490(5) 0.4823(6) 1.2746(3)
N5 N 0.1630(5) 0.4282(5) 1.2890(3)
N6 N 0.0927(5) 0.2912(5) 1.2735(3)
O10 O -0.2679(4) 0.6347(4) 1.0815(3)
O11 O -0.0639(4) 0.5826(4) 1.0872(3)
O12 O 0.1889(7) 0.6562(5) 1.0907(4)
O13 O 0.2877(5) 0.4601(4) 1.1171(3)
O14 O 0.0505(5) 0.2083(4) 1.0790(3)
O15 O 0.1103(4) 0.3498(4) 1.0849(3)
O16 O 0.0202(6) 0.6044(6) 1.3058(4)
O17 O 0.2918(5) 0.2354(5) 1.2994(3)
O18 O -0.1056(5) 0.3606(5) 1.2324(4)
O19 O -0.1494(4) 0.4277(4) 1.0346(3)
H25 H -0.1622 0.4055 1.0958
O20 O 0.2012(7) 0.8022(7) 0.9028(4)
H26 H 0.1934 0.8725 0.8988
H27 H 0.2539 0.7635 0.8709
O21 O -0.0114(6) 0.8521(6) 1.0460(5)
H28 H -0.001(8) 0.880(9) 1.082(6)
H29 H -0.090(3) 0.880(10) 1.039(7)
O22 O -0.4422(6) 0.5181(6) 1.0604(4)
H30 H -0.382(6) 0.541(8) 1.054(6)
H31 H -0.431(8) 0.458(6) 1.104(4)
O23 O -0.4139(5) 0.7303(4) 0.9472(3)
H32 H -0.420(8) 0.792(4) 0.957(4)
H33 H -0.433(8) 0.746(6) 0.897(2)
Cu3A Cu 0.28244(7) 0.42512(7) 1.01170(5)
Cu4A Cu -0.07762(8) 0.28576(7) 0.99828(5)
C13A C -0.0430(7) 0.4893(7) 0.7082(4)
C14A C -0.1893(7) 0.6861(7) 0.7114(4)
C15A C 0.0263(7) 0.6211(7) 0.7428(4)
C16A C 0.1759(7) 0.4279(8) 0.7308(5)
H13A H 0.1947 0.3947 0.6836
H14A H 0.2329 0.4663 0.7262
C17A C 0.1977(7) 0.3255(7) 0.8128(5)
H15A H 0.2822 0.2678 0.8114
H16A H 0.1421 0.2856 0.8174
C18A C 0.1755(6) 0.3718(6) 0.8880(4)
C19A C -0.2679(7) 0.5408(7) 0.7064(4)
H17A H -0.3441 0.6111 0.7021
H18A H -0.2562 0.5156 0.6562
C20A C -0.2804(8) 0.4437(7) 0.7812(4)
H19A H -0.3650 0.4485 0.7857
H20A H -0.2264 0.3678 0.7711
C21A C -0.2508(6) 0.4445(6) 0.8639(4)
C22A C -0.1215(8) 0.8259(7) 0.7370(5)
H21A H -0.0447 0.8369 0.7342
H22A H -0.1704 0.8867 0.6910
C23A C -0.1917(7) 0.8426(7) 0.8185(5)
H23A H -0.2137 0.9235 0.8202
H24A H -0.2678 0.8297 0.8227
C24A C -0.1116(7) 0.7546(6) 0.8925(4)
N4A N 0.0490(5) 0.5177(6) 0.7254(3)
N5A N -0.1630(5) 0.5718(5) 0.7110(3)
N6A N -0.0927(5) 0.7088(5) 0.7265(3)
O10A O 0.2679(4) 0.3653(4) 0.9185(3)
O11A O 0.0639(4) 0.4174(4) 0.9128(3)
O12A O -0.1889(7) 0.3438(5) 0.9093(4)
O13A O -0.2877(5) 0.5399(4) 0.8829(3)
O14A O -0.0505(5) 0.7917(4) 0.9210(3)
O15A O -0.1103(4) 0.6502(4) 0.9151(3)
O16A O -0.0202(6) 0.3956(6) 0.6942(4)
O17A O -0.2918(5) 0.7646(5) 0.7006(3)
O18A O 0.1056(5) 0.6394(5) 0.7676(4)
O19A O 0.1494(4) 0.5723(4) 0.9654(3)
H25A H 0.1622 0.5945 0.9042
O20A O -0.2012(7) 0.1978(7) 1.0972(4)
H26A H -0.1934 0.1275 1.1012
H27A H -0.2539 0.2365 1.1291
O21A O 0.0114(6) 0.1479(6) 0.9540(5)
H28A H 0.001(8) 0.120(9) 0.918(6)
H29A H 0.090(3) 0.120(10) 0.961(7)
O22A O 0.4422(6) 0.4819(6) 0.9396(4)
H30A H 0.382(6) 0.459(8) 0.946(6)
H31A H 0.431(8) 0.542(6) 0.896(4)
O23A O 0.4139(5) 0.2697(4) 1.0528(3)
H32A H 0.420(8) 0.208(4) 1.043(4)
H33A H 0.433(8) 0.254(6) 1.103(2)
O24 O 0.6566(9) 0.9614(8) 0.2051(6)
H34 H 0.6176 1.0123 0.1624
H35 H 0.6931 0.9811 0.2334
O25 O 0.8888(8) 0.8498(7) 0.2826(5)
H36 H 0.8228 0.9098 0.2657
H37 H 0.9526 0.8599 0.2891
O26 O -0.4871(6) 0.6747(5) 1.1851(4)
H38 H -0.5167 0.7012 1.2276
H39 H -0.5322 0.6595 1.1601
O27 O -0.5109(5) 0.7975(5) 0.7995(3)
H40 H -0.4944 0.8555 0.7663
H41 H -0.5804 0.7936 0.7982
O28 O 0.4099(13) 0.0570(11) 0.0515(9)
H42 H 0.4626 0.0274 0.0154
H43 H 0.3387 0.1094 0.0367
O29 O 0.0468(10) 0.9451(9) 0.1563(7)
H44 H -0.0154 0.9601 0.1908
H45 H 0.0454 0.9943 0.1083
O30 O 0.2544(11) 0.0186(13) 0.9640(8)
H46 H 0.2145 -0.0264 0.9742
H47 H 0.3309 -0.0067 0.9486
O31 O -0.5327(16) 0.8775(16) 1.2382(11)
H48 H -0.5454 0.9336 1.1929
H49 H -0.5886 0.8811 1.2776
O32 O -0.6389(16) 0.7832(16) 1.0491(11)
H50 H -0.6900 0.7520 1.0761
H51 H -0.6608 0.8583 1.0349
loop_
_geom_bond_atom_site_label_1
_geom_bond_atom_site_label_2
_geom_bond_site_symmetry_1
_geom_bond_site_symmetry_2
Cu1 O1 1_555 1_555
Cu2 O11 1_555 1_555
Cu3 O10 1_555 1_555
Cu4 O12 1_555 1_555
C1 N1 1_555 1_555
C2 N2 1_555 1_555
C3 N1 1_555 1_555
C4 H1 1_555 1_555
H2 C4 1_555 1_555
C5 C4 1_555 1_555
H3 C5 1_555 1_555
H4 C5 1_555 1_555
C6 C5 1_555 1_555
C7 H5 1_555 1_555
H6 C7 1_555 1_555
C8 C7 1_555 1_555
H7 C8 1_555 1_555
H8 C8 1_555 1_555
C9 C8 1_555 1_555
C10 H9 1_555 1_555
H10 C10 1_555 1_555
C11 C10 1_555 1_555
H11 C11 1_555 1_555
H12 C11 1_555 1_555
C12 C11 1_555 1_555
C13 N4 1_555 1_555
C14 N5 1_555 1_555
C15 N4 1_555 1_555
C16 H13 1_555 1_555
H14 C16 1_555 1_555
C17 C16 1_555 1_555
H15 C17 1_555 1_555
H16 C17 1_555 1_555
C18 C17 1_555 1_555
C19 H17 1_555 1_555
H18 C19 1_555 1_555
C20 C19 1_555 1_555
H19 C20 1_555 1_555
H20 C20 1_555 1_555
C21 C20 1_555 1_555
C22 H21 1_555 1_555
H22 C22 1_555 1_555
C23 C22 1_555 1_555
H23 C23 1_555 1_555
H24 C23 1_555 1_555
C24 C23 1_555 1_555
N1 C4 1_555 1_555
N2 C1 1_555 1_555
N3 C2 1_555 1_555
N4 C16 1_555 1_555
N5 C13 1_555 1_555
N6 C14 1_555 1_555
O1 C6 1_555 1_555
O2 C6 1_555 1_555
O3 C9 1_555 1_555
O4 C9 1_555 1_555
O5 C12 1_555 1_555
O6 C12 1_555 1_555
O7 C1 1_555 1_555
O8 C2 1_555 1_555
O9 C3 1_555 1_555
O10 C18 1_555 1_555
O11 C18 1_555 1_555
O12 C21 1_555 1_555
O13 C21 1_555 1_555
O14 C24 1_555 1_555
O15 Cu2 1_555 1_555
O16 C13 1_555 1_555
O17 C14 1_555 1_555
O18 C15 1_555 1_555
O19 Cu2 1_555 1_555
H25 O19 1_555 1_555
O20 Cu4 1_555 1_555
H26 O20 1_555 1_555
H27 O20 1_555 1_555
O21 Cu4 1_555 1_555
H28 O21 1_555 1_555
H29 O21 1_555 1_555
O22 Cu3 1_555 1_555
H30 O22 1_555 1_555
H31 O22 1_555 1_555
O23 Cu3 1_555 1_555
H32 O23 1_555 1_555
H33 O23 1_555 1_555
O24 H34 1_555 1_555
H35 O24 1_555 1_555
O25 H36 1_555 1_555
H37 O25 1_555 1_555
O26 H38 1_555 1_555
H39 O26 1_555 1_555
O27 H40 1_555 1_555
H41 O27 1_555 1_555
O28 H42 1_555 1_555
H43 O28 1_555 1_555
O29 H44 1_555 1_555
H45 O29 1_555 1_555
O30 H46 1_555 1_555
H47 O30 1_555 1_555
O31 H48 1_555 1_555
H49 O31 1_555 1_555
O32 H50 1_555 1_555
H51 O32 1_555 1_555
Cu1A O2 1_555 1_555
Cu1_2 O4 1_555 1_555
Cu1A_2 O5 1_555 1_555
Cu1_3 O6 1_555 1_555
Cu1A_3 O4A 1_555 1_555
Cu1_4 O5A 1_555 1_555
Cu1A_4 O6A 1_555 1_555
Cu3A O13 1_555 1_555
Cu4A O14 1_555 1_555
C1A N1A 1_555 1_555
C2A N2A 1_555 1_555
C3A N1A 1_555 1_555
C4A H1A 1_555 1_555
H2A C4A 1_555 1_555
C5A C4A 1_555 1_555
H3A C5A 1_555 1_555
H4A C5A 1_555 1_555
C6A C5A 1_555 1_555
C7A H5A 1_555 1_555
H6A C7A 1_555 1_555
C8A C7A 1_555 1_555
H7A C8A 1_555 1_555
H8A C8A 1_555 1_555
C9A C8A 1_555 1_555
C10A H9A 1_555 1_555
H10A C10A 1_555 1_555
C11A C10A 1_555 1_555
H11A C11A 1_555 1_555
H12A C11A 1_555 1_555
C12A C11A 1_555 1_555
C13A N4A 1_555 1_555
C14A N5A 1_555 1_555
C15A N4A 1_555 1_555
C16A H13A 1_555 1_555
H14A C16A 1_555 1_555
C17A C16A 1_555 1_555
H15A C17A 1_555 1_555
H16A C17A 1_555 1_555
C18A C17A 1_555 1_555
C19A H17A 1_555 1_555
H18A C19A 1_555 1_555
C20A C19A 1_555 1_555
H19A C20A 1_555 1_555
H20A C20A 1_555 1_555
C21A C20A 1_555 1_555
C22A H21A 1_555 1_555
H22A C22A 1_555 1_555
C23A C22A 1_555 1_555
H23A C23A 1_555 1_555
H24A C23A 1_555 1_555
C24A C23A 1_555 1_555
N1A C4A 1_555 1_555
N2A C1A 1_555 1_555
N3A C2A 1_555 1_555
N4A C16A 1_555 1_555
N5A C13A 1_555 1_555
N6A C14A 1_555 1_555
O1A Cu1A 1_555 1_555
O2A Cu1 1_555 1_555
O3A C9A 1_555 1_555
O4A C9A 1_555 1_555
O4_2 Cu1 1_555 1_555
O4A_2 Cu1A 1_555 1_555
O5A C12A 1_555 1_555
O5A_2 Cu1 1_555 1_555
O5_2 Cu1A 1_555 1_555
O6A C12A 1_555 1_555
O6_2 Cu1 1_555 1_555
O6A_2 Cu1A 1_555 1_555
O7A C1A 1_555 1_555
O8A C2A 1_555 1_555
O9A C3A 1_555 1_555
O10A Cu3A 1_555 1_555
O11A Cu2 1_555 1_555
O12A Cu4A 1_555 1_555
O13A Cu3 1_555 1_555
O14A Cu4 1_555 1_555
O15A Cu2 1_555 1_555
O16A C13A 1_555 1_555
O17A C14A 1_555 1_555
O18A C15A 1_555 1_555
O19A Cu2 1_555 1_555
H25A O19A 1_555 1_555
O20A Cu4A 1_555 1_555
H26A O20A 1_555 1_555
H27A O20A 1_555 1_555
O21A Cu4A 1_555 1_555
H28A O21A 1_555 1_555
H29A O21A 1_555 1_555
O22A Cu3A 1_555 1_555
H30A O22A 1_555 1_555
H31A O22A 1_555 1_555
O23A Cu3A 1_555 1_555
H32A O23A 1_555 1_555
H33A O23A 1_555 1_555
Cu3 O19 1_555 1_555
Cu4 O19A 1_555 1_555
C3 N3 1_555 1_555
C7 N2 1_555 1_555
C10 N3 1_555 1_555
C15 N6 1_555 1_555
C19 N5 1_555 1_555
C22 N6 1_555 1_555
C24 O15 1_555 1_555
O19 Cu4A 1_555 1_555
Cu3A O19A 1_555 1_555
C3A N3A 1_555 1_555
C6A O1A 1_555 1_555
C6A O2A 1_555 1_555
C7A N2A 1_555 1_555
C10A N3A 1_555 1_555
C15A N6A 1_555 1_555
C18A O10A 1_555 1_555
C18A O11A 1_555 1_555
C19A N5A 1_555 1_555
C21A O12A 1_555 1_555
C21A O13A 1_555 1_555
C22A N6A 1_555 1_555
C24A O14A 1_555 1_555
C24A O15A 1_555 1_555

#END
