
#######################################################################
#
#                 Cambridge Crystallographic Data Centre
#                                CCDC 
#
#######################################################################
#
# If this CIF has been generated from an entry in the Cambridge 
# Structural Database, then it will include bibliographic, chemical, 
# crystal, experimental, refinement or atomic coordinate data resulting 
# from the CCDC's data processing and validation procedures.
#
#######################################################################

data_WAJGOE
_symmetry_cell_setting           monoclinic
_symmetry_space_group_name_H-M   'P 21/n'
_symmetry_Int_Tables_number      14
_space_group_name_Hall           '-P 2yn'
loop_
_symmetry_equiv_pos_site_id
_symmetry_equiv_pos_as_xyz
1 x,y,z
2 1/2+x,1/2-y,1/2+z
3 -x,-y,-z
4 1/2-x,1/2+y,1/2-z
_cell_length_a                   7.3915(6)
_cell_length_b                   5.9789(5)
_cell_length_c                   12.3309(6)
_cell_angle_alpha                90
_cell_angle_beta                 92.885(2)
_cell_angle_gamma                90
_cell_volume                     544.249
loop_
_atom_site_label
_atom_site_type_symbol
_atom_site_fract_x
_atom_site_fract_y
_atom_site_fract_z
Cd1 Cd 0.27389(18) 0.2658(2) -0.16489(12)
Cd2 Cd 0.51535(18) 0.2722(3) -0.41306(12)
O1 O 0.4672(15) 0.544(2) -0.2313(10)
O2 O 0.558(2) 0.271(2) -0.0626(14)
O3 O 0.706(2) 0.761(2) -0.1892(15)
O4 O 0.8160(16) 0.460(2) -0.0328(10)
O5 O 0.1807(15) 0.042(2) -0.0388(9)
O6 O 0.4083(15) 0.046(2) -0.2857(9)
C1 C 0.665(2) 0.426(3) -0.0822(14)
C2 C 0.610(2) 0.593(3) -0.1756(14)
O1C O 0.0328(15) 0.044(2) -0.2687(10)
O6C O 0.0917(15) 0.546(2) -0.2143(9)
O3C O 0.794(2) 0.261(2) -0.3108(15)
O4A O 0.3160(16) 0.040(2) -0.5328(10)
O4C O 0.6840(16) -0.040(2) -0.4672(10)
O5A O 0.6807(15) 0.458(2) -0.5388(9)
O5C O 0.3193(15) 0.542(2) -0.4612(9)
Cd1C Cd 0.22611(18) 0.7658(2) -0.33511(12)
Cd2C Cd 0.98465(18) 0.7722(3) -0.08694(12)
Cd2A Cd 1.01535(18) 0.2278(3) 0.08694(12)
Cd2A_2 Cd 0.01535(18) 0.2278(3) 0.08694(12)
Cd2C_2 Cd -0.01535(18) -0.2278(3) -0.08694(12)
Cd1C_2 Cd 0.22611(18) -0.2342(2) -0.33511(12)
loop_
_geom_bond_atom_site_label_1
_geom_bond_atom_site_label_2
_geom_bond_site_symmetry_1
_geom_bond_site_symmetry_2
Cd1 O1 1_555 1_555
Cd2 O1 1_555 1_555
O1 C2 1_555 1_555
O2 Cd1 1_555 1_555
O3 C2 1_555 1_555
O4 C1 1_555 1_555
O5 Cd1 1_555 1_555
O6 Cd1 1_555 1_555
C1 O2 1_555 1_555
C2 C1 1_555 1_555
O1C Cd1 1_555 1_555
O6C Cd1 1_555 1_555
O3C Cd2 1_555 1_555
O4A Cd2 1_555 1_555
O4C Cd2 1_555 1_555
O5A Cd2 1_555 1_555
O5C Cd2 1_555 1_555
Cd1C O1 1_555 1_555
Cd2C O3 1_555 1_555
Cd2A O4 1_555 1_555
Cd2A_2 O5 1_555 1_555
Cd2C_2 O5 1_555 1_555
Cd1C_2 O6 1_555 1_555
Cd2 O6 1_555 1_555
O4 Cd2C 1_555 1_555
O1C Cd1C_2 1_555 1_555
O1C Cd2C_2 1_555 1_555
O6C Cd1C 1_555 1_555
O5C Cd1C 1_555 1_555

#END
