
#######################################################################
#
#                 Cambridge Crystallographic Data Centre
#                                CCDC 
#
#######################################################################
#
# If this CIF has been generated from an entry in the Cambridge 
# Structural Database, then it will include bibliographic, chemical, 
# crystal, experimental, refinement or atomic coordinate data resulting 
# from the CCDC's data processing and validation procedures.
#
#######################################################################

data_WAJGEU
_symmetry_cell_setting           monoclinic
_symmetry_space_group_name_H-M   'P 21/c'
_symmetry_Int_Tables_number      14
_space_group_name_Hall           '-P 2ybc'
loop_
_symmetry_equiv_pos_site_id
_symmetry_equiv_pos_as_xyz
1 x,y,z
2 x,1/2-y,1/2+z
3 -x,-y,-z
4 -x,1/2+y,1/2-z
_cell_length_a                   16.9494(13)
_cell_length_b                   11.3682(5)
_cell_length_c                   17.9482(13)
_cell_angle_alpha                90
_cell_angle_beta                 112.4320(10)
_cell_angle_gamma                90
_cell_volume                     3196.65
loop_
_atom_site_label
_atom_site_type_symbol
_atom_site_fract_x
_atom_site_fract_y
_atom_site_fract_z
Zn1 Zn 1.432121(9) 0.634978(14) 0.276651(9)
Zn2 Zn 1.892440(9) 0.262940(15) 0.217770(9)
O1 O 1.53151(6) 0.64385(9) 0.24470(6)
O2 O 1.49609(6) 0.79471(10) 0.16035(7)
O3 O 1.84345(6) 0.41713(10) 0.19108(7)
O4 O 1.76202(7) 0.37187(10) 0.25791(7)
C1 C 1.66728(8) 0.58183(12) 0.20455(8)
H1 H 1.6538 0.5346 0.2403
C2 C 1.73413(8) 0.55081(13) 0.18315(8)
C3 C 1.75477(9) 0.62261(14) 0.13061(9)
H2 H 1.7999 0.6028 0.1157
C4 C 1.70789(10) 0.72381(15) 0.10059(10)
H3 H 1.7221 0.7722 0.0658
C5 C 1.64096(9) 0.75303(14) 0.12171(9)
H4 H 1.6097 0.8209 0.1009
C6 C 1.61940(8) 0.68275(12) 0.17369(7)
C7 C 1.54335(8) 0.71043(12) 0.19367(8)
C8 C 1.78196(9) 0.43868(14) 0.21409(9)
O5 O 0.97214(6) 0.23719(9) 0.16125(6)
O6 O 1.04042(6) 0.34428(10) 0.26769(6)
O7 O 1.37080(6) 0.49695(9) 0.20836(6)
O8 O 1.30323(6) 0.56185(9) 0.28199(6)
C9 C 1.17416(8) 0.38728(12) 0.21532(8)
H5 H 1.1743 0.4279 0.2604
C10 C 1.23850(8) 0.40625(13) 0.18842(8)
C11 C 1.23920(9) 0.34503(15) 0.12161(10)
H6 H 1.2834 0.3565 0.1037
C12 C 1.17358(10) 0.26653(17) 0.08153(11)
H7 H 1.1732 0.2264 0.0362
C13 C 1.10909(9) 0.24863(15) 0.10958(10)
H8 H 1.0655 0.1957 0.0831
C14 C 1.10861(8) 0.30859(12) 0.17663(8)
C15 C 1.03687(8) 0.29544(12) 0.20414(8)
C16 C 1.30764(8) 0.49309(13) 0.22882(8)
N1 N 1.93165(7) 0.17264(11) 0.32293(7)
C17 C 1.99959(9) 0.10204(14) 0.34224(8)
H9 H 2.0287 0.0990 0.3077
C18 C 2.02840(9) 0.03422(14) 0.41011(8)
H10 H 2.0762 -0.0133 0.4210
C19 C 1.98604(8) 0.03634(12) 0.46292(7)
C20 C 1.91541(9) 0.10938(16) 0.44237(9)
H11 H 1.8849 0.1140 0.4757
C21 C 1.89045(9) 0.17472(15) 0.37311(9)
H12 H 1.8427 0.2227 0.3605
N2 N 1.45261(7) 0.77200(10) 0.35625(7)
C22 C 1.51052(9) 0.85390(13) 0.36152(9)
H13 H 1.5386 0.8500 0.3261
C23 C 1.53077(9) 0.94347(13) 0.41640(8)
H14 H 1.5719 0.9985 0.4178
C24 C 1.49022(8) 0.95219(12) 0.46970(7)
C25 C 1.42918(9) 0.86717(14) 0.46334(9)
H15 H 1.3997 0.8690 0.4976
C26 C 1.41273(9) 0.78095(14) 0.40664(9)
H16 H 1.3712 0.7254 0.4032
O9 O 1.49912(7) 0.52137(9) 0.37530(6)
C27 C 1.6310(2) 0.4718(3) 0.48823(17)
H17 H 1.6884 0.5001 0.5144
H18 H 1.6319 0.3949 0.4665
H19 H 1.6042 0.4678 0.5266
C28 C 1.58579(18) 0.5475(2) 0.42682(16)
H20 H 1.6179 0.5562 0.3925
H21 H 1.5857 0.6238 0.4510
O11 O 1.79920(6) 0.14984(10) 0.14783(6)
O12 O 1.34651(7) 0.75676(10) 0.18009(7)
C19B C 2.01396(8) -0.03634(12) 0.53708(7)
C18B C 1.97160(9) -0.03422(14) 0.58989(8)
C17B C 2.00041(9) -0.10204(14) 0.65776(8)
N1B N 2.06835(7) -0.17264(11) 0.67707(7)
C21B C 2.10955(9) -0.17472(15) 0.62689(9)
C20B C 2.08459(9) -0.10938(16) 0.55763(9)
H11B H 2.1151 -0.1140 0.5243
H12B H 2.1573 -0.2227 0.6395
H9B H 1.9713 -0.0990 0.6923
H10B H 1.9238 0.0133 0.5790
C24B C 1.50978(8) 1.04781(12) 0.53030(7)
C23B C 1.46923(9) 1.05653(13) 0.58360(8)
C22B C 1.48948(9) 1.14610(13) 0.63848(9)
N2B N 1.54739(7) 1.22800(10) 0.64375(7)
C26B C 1.58727(9) 1.21905(14) 0.59336(9)
C25B C 1.57082(9) 1.13283(14) 0.53666(9)
H15B H 1.6003 1.1310 0.5024
H16B H 1.6288 1.2746 0.5968
H13B H 1.4614 1.1500 0.6739
H14B H 1.4281 1.0015 0.5822
Zn1B Zn 1.567879(9) 1.365022(14) 0.723349(9)
Zn2_2 Zn 0.892440(9) 0.262940(15) 0.217770(9)
O5_2 O 1.97214(6) 0.23719(9) 0.16125(6)
O6_2 O 2.04042(6) 0.34428(10) 0.26769(6)
O7_2 O 2.37080(6) 0.49695(9) 0.20836(6)
O8_2 O 2.30323(6) 0.56185(9) 0.28199(6)
C9_2 C 2.17416(8) 0.38728(12) 0.21532(8)
H5_2 H 2.1743 0.4279 0.2604
C10_2 C 2.23850(8) 0.40625(13) 0.18842(8)
C11_2 C 2.23920(9) 0.34503(15) 0.12161(10)
H6_2 H 2.2834 0.3565 0.1037
C12_2 C 2.17358(10) 0.26653(17) 0.08153(11)
H7_2 H 2.1732 0.2264 0.0362
C13_2 C 2.10909(9) 0.24863(15) 0.10958(10)
H8_2 H 2.0655 0.1957 0.0831
C14_2 C 2.10861(8) 0.30859(12) 0.17663(8)
C15_2 C 2.03687(8) 0.29544(12) 0.20414(8)
C16_2 C 2.30764(8) 0.49309(13) 0.22882(8)
O1B O 1.46849(6) 1.35615(9) 0.75530(6)
O2B O 1.50391(6) 1.20529(10) 0.83965(7)
O3B O 1.15655(6) 1.58287(10) 0.80892(7)
O4B O 1.23798(7) 1.62813(10) 0.74209(7)
C1B C 1.33272(8) 1.41817(12) 0.79545(8)
H1B H 1.3462 1.4654 0.7597
C2B C 1.26587(8) 1.44919(13) 0.81685(8)
C3B C 1.24523(9) 1.37739(14) 0.86939(9)
H2B H 1.2001 1.3972 0.8843
C4B C 1.29211(10) 1.27619(15) 0.89941(10)
H3B H 1.2779 1.2278 0.9342
C5B C 1.35904(9) 1.24697(14) 0.87829(9)
H4B H 1.3903 1.1791 0.8991
C6B C 1.38060(8) 1.31725(12) 0.82631(7)
C7B C 1.45665(8) 1.28957(12) 0.80633(8)
C8B C 1.21804(9) 1.56132(14) 0.78591(9)
O9B O 1.50088(7) 1.47863(9) 0.62470(6)
C27B C 1.3690(2) 1.5282(3) 0.51177(17)
H17B H 1.3116 1.4999 0.4856
H18B H 1.3681 1.6051 0.5335
H19B H 1.3958 1.5322 0.4734
C28B C 1.41421(18) 1.4525(2) 0.57318(16)
H20B H 1.3821 1.4438 0.6075
H21B H 1.4143 1.3762 0.5490
O12B O 1.65349(7) 1.24324(10) 0.81991(7)
O11_2 O 0.79920(6) 0.14984(10) 0.14783(6)
Zn2B Zn 2.107560(9) -0.262940(15) 0.782230(9)
O7B O 1.62920(6) 1.50305(9) 0.79164(6)
O8B O 1.69677(6) 1.43815(9) 0.71801(6)
O3_2 O 0.84345(6) 0.41713(10) 0.19108(7)
N1_2 N 0.93165(7) 0.17264(11) 0.32293(7)
Zn1_2 Zn 2.432121(9) 0.634978(14) 0.276651(9)
Zn2B_2 Zn 1.107560(9) 1.737060(15) 0.782230(9)
O10 O 0.86179(7) -0.03934(11) 0.09835(7)
H22 H 0.8864 -0.0752 0.1405
C29 C 0.87696(15) 0.0547(2) -0.01199(12)
H23 H 0.9159 0.0699 -0.0382
H24 H 0.8594 0.1279 0.0035
H25 H 0.8278 0.0138 -0.0484
C30 C 0.91945(11) -0.01774(17) 0.05999(10)
H26 H 0.9376 -0.0917 0.0447
H27 H 0.9696 0.0228 0.0967
O13 O 1.25664(14) 0.6503(3) 0.01461(14)
loop_
_geom_bond_atom_site_label_1
_geom_bond_atom_site_label_2
_geom_bond_site_symmetry_1
_geom_bond_site_symmetry_2
Zn1 O1 1_555 1_555
Zn2 O3 1_555 1_555
O1 C7 1_555 1_555
O2 C7 1_555 1_555
O3 C8 1_555 1_555
O4 C8 1_555 1_555
C1 H1 1_555 1_555
C2 C1 1_555 1_555
C3 C2 1_555 1_555
H2 C3 1_555 1_555
C4 C3 1_555 1_555
H3 C4 1_555 1_555
C5 C4 1_555 1_555
H4 C5 1_555 1_555
C6 C1 1_555 1_555
C7 C6 1_555 1_555
C8 C2 1_555 1_555
O5 C15 1_555 1_555
O6 C15 1_555 1_555
O7 Zn1 1_555 1_555
O8 Zn1 1_555 1_555
C9 H5 1_555 1_555
C10 C9 1_555 1_555
C11 C10 1_555 1_555
H6 C11 1_555 1_555
C12 C11 1_555 1_555
H7 C12 1_555 1_555
C13 C12 1_555 1_555
H8 C13 1_555 1_555
C14 C9 1_555 1_555
C15 C14 1_555 1_555
C16 O7 1_555 1_555
N1 Zn2 1_555 1_555
C17 N1 1_555 1_555
H9 C17 1_555 1_555
C18 C17 1_555 1_555
H10 C18 1_555 1_555
C19 C18 1_555 1_555
C20 C19 1_555 1_555
H11 C20 1_555 1_555
C21 N1 1_555 1_555
H12 C21 1_555 1_555
N2 Zn1 1_555 1_555
C22 N2 1_555 1_555
H13 C22 1_555 1_555
C23 C22 1_555 1_555
H14 C23 1_555 1_555
C24 C23 1_555 1_555
C25 C24 1_555 1_555
H15 C25 1_555 1_555
C26 N2 1_555 1_555
H16 C26 1_555 1_555
O9 Zn1 1_555 1_555
C27 H17 1_555 1_555
H18 C27 1_555 1_555
H19 C27 1_555 1_555
C28 O9 1_555 1_555
H20 C28 1_555 1_555
H21 C28 1_555 1_555
O10 H22 1_555 1_555
C29 H23 1_555 1_555
H24 C29 1_555 1_555
H25 C29 1_555 1_555
C30 O10 1_555 1_555
H26 C30 1_555 1_555
H27 C30 1_555 1_555
O11 Zn2 1_555 1_555
O12 Zn1 1_555 1_555
C19B C19 1_555 1_555
C18B C19B 1_555 1_555
C17B C18B 1_555 1_555
N1B C17B 1_555 1_555
C21B N1B 1_555 1_555
C20B C19B 1_555 1_555
H11B C20B 1_555 1_555
H12B C21B 1_555 1_555
H9B C17B 1_555 1_555
H10B C18B 1_555 1_555
C24B C24 1_555 1_555
C23B C24B 1_555 1_555
C22B C23B 1_555 1_555
N2B C22B 1_555 1_555
C26B N2B 1_555 1_555
C25B C24B 1_555 1_555
H15B C25B 1_555 1_555
H16B C26B 1_555 1_555
H13B C22B 1_555 1_555
H14B C23B 1_555 1_555
Zn1B N2B 1_555 1_555
Zn2_2 O5 1_555 1_555
O5_2 Zn2 1_555 1_555
O6_2 Zn2 1_555 1_555
O7_2 C16_2 1_555 1_555
O8_2 C16_2 1_555 1_555
C9_2 H5_2 1_555 1_555
C10_2 C9_2 1_555 1_555
C11_2 C10_2 1_555 1_555
H6_2 C11_2 1_555 1_555
C12_2 C11_2 1_555 1_555
H7_2 C12_2 1_555 1_555
C13_2 C12_2 1_555 1_555
H8_2 C13_2 1_555 1_555
C14_2 C9_2 1_555 1_555
C15_2 O5_2 1_555 1_555
C16_2 C10_2 1_555 1_555
O1B Zn1B 1_555 1_555
O2B C7B 1_555 1_555
O3B C8B 1_555 1_555
O4B C8B 1_555 1_555
C1B H1B 1_555 1_555
C2B C1B 1_555 1_555
C3B C2B 1_555 1_555
H2B C3B 1_555 1_555
C4B C3B 1_555 1_555
H3B C4B 1_555 1_555
C5B C4B 1_555 1_555
H4B C5B 1_555 1_555
C6B C1B 1_555 1_555
C7B O1B 1_555 1_555
C8B C2B 1_555 1_555
O9B Zn1B 1_555 1_555
C27B H17B 1_555 1_555
H18B C27B 1_555 1_555
H19B C27B 1_555 1_555
C28B O9B 1_555 1_555
H20B C28B 1_555 1_555
H21B C28B 1_555 1_555
O12B Zn1B 1_555 1_555
O11_2 Zn2_2 1_555 1_555
Zn2B N1B 1_555 1_555
O7B Zn1B 1_555 1_555
O8B Zn1B 1_555 1_555
O3_2 Zn2_2 1_555 1_555
N1_2 Zn2_2 1_555 1_555
Zn1_2 O7_2 1_555 1_555
Zn2B_2 O3B 1_555 1_555
C5 C6 1_555 1_555
O6 Zn2_2 1_555 1_555
O8 C16 1_555 1_555
C10 C16 1_555 1_555
C13 C14 1_555 1_555
C20 C21 1_555 1_555
C25 C26 1_555 1_555
C27 C28 1_555 1_555
C29 C30 1_555 1_555
C21B C20B 1_555 1_555
C26B C25B 1_555 1_555
O6_2 C15_2 1_555 1_555
O8_2 Zn1_2 1_555 1_555
C13_2 C14_2 1_555 1_555
C14_2 C15_2 1_555 1_555
C5B C6B 1_555 1_555
C6B C7B 1_555 1_555
C27B C28B 1_555 1_555

#END
