
#######################################################################
#
#                 Cambridge Crystallographic Data Centre
#                                CCDC 
#
#######################################################################
#
# If this CIF has been generated from an entry in the Cambridge 
# Structural Database, then it will include bibliographic, chemical, 
# crystal, experimental, refinement or atomic coordinate data resulting 
# from the CCDC's data processing and validation procedures.
#
#######################################################################

data_WAJGAQ
_symmetry_cell_setting           monoclinic
_symmetry_space_group_name_H-M   'P 21/n'
_symmetry_Int_Tables_number      14
_space_group_name_Hall           '-P 2yn'
loop_
_symmetry_equiv_pos_site_id
_symmetry_equiv_pos_as_xyz
1 x,y,z
2 1/2+x,1/2-y,1/2+z
3 -x,-y,-z
4 1/2-x,1/2+y,1/2-z
_cell_length_a                   9.710(3)
_cell_length_b                   13.809(5)
_cell_length_c                   17.981(6)
_cell_angle_alpha                90
_cell_angle_beta                 97.700(4)
_cell_angle_gamma                90
_cell_volume                     2389.25
loop_
_atom_site_label
_atom_site_type_symbol
_atom_site_fract_x
_atom_site_fract_y
_atom_site_fract_z
Zn1 Zn 0.25046(2) 0.145841(19) 0.001563(14)
O1 O 0.44986(14) 0.16957(11) 0.03205(9)
O2 O 0.40356(17) 0.27557(16) 0.11656(12)
O3 O 1.10076(15) 0.20481(12) 0.04732(10)
O4 O 0.93670(16) 0.12568(12) -0.02385(10)
C1 C 0.6382(2) 0.25706(16) 0.09646(13)
C2 C 0.6860(3) 0.3204(2) 0.15208(16)
H1 H 0.6241 0.3503 0.1800
C3 C 0.8265(3) 0.3403(2) 0.16691(18)
H2 H 0.8586 0.3843 0.2044
C4 C 0.9186(2) 0.2959(2) 0.12697(16)
H3 H 1.0131 0.3088 0.1384
C5 C 0.8735(2) 0.23224(16) 0.07016(13)
C6 C 0.7312(2) 0.21239(16) 0.05498(12)
H4 H 0.6986 0.1691 0.0170
C7 C 0.4866(2) 0.23328(17) 0.08205(13)
C8 C 0.9756(2) 0.18248(16) 0.02770(13)
N1 N 0.25024(18) 0.05296(13) -0.08834(10)
N2 N 0.25738(19) -0.23334(14) -0.41529(11)
C9 C 0.3715(2) 0.02580(17) -0.11043(13)
H5 H 0.4538 0.0431 -0.0808
C10 C 0.3792(2) -0.02738(17) -0.17596(13)
H6 H 0.4651 -0.0433 -0.1900
C11 C 0.2582(2) -0.05596(16) -0.21946(12)
C12 C 0.1346(2) -0.02840(18) -0.19550(14)
H7 H 0.0506 -0.0457 -0.2235
C13 C 0.1348(2) 0.02399(19) -0.13111(14)
H8 H 0.0497 0.0404 -0.1163
C14 C 0.3769(3) -0.1553(3) -0.3081(2)
H9 H 0.4618 -0.1455 -0.2784
C15 C 0.3705(3) -0.2120(3) -0.37199(19)
H10 H 0.4535 -0.2365 -0.3847
C16 C 0.1460(3) -0.1937(3) -0.39714(18)
H11 H 0.0625 -0.2059 -0.4274
C17 C 0.1432(3) -0.1347(3) -0.3360(2)
H12 H 0.0591 -0.1081 -0.3268
C18 C 0.2607(2) -0.11436(17) -0.28872(13)
O5 O 0.25493(17) 0.01578(13) 0.07135(9)
O3_2 O 0.10076(15) 0.20481(12) 0.04732(10)
N2C N 0.24262(19) 0.26666(14) -0.08471(11)
Zn1_2 Zn 1.25046(2) 0.145841(19) 0.001563(14)
Zn1C Zn 0.24954(2) -0.354159(19) -0.501563(14)
O6 O 0.3321(5) 0.4664(3) 0.1425(2)
O7 O 0.2600(5) 0.0401(3) 0.22501(18)
O8 O 0.2800(8) 0.2284(6) 0.2389(4)
loop_
_geom_bond_atom_site_label_1
_geom_bond_atom_site_label_2
_geom_bond_site_symmetry_1
_geom_bond_site_symmetry_2
Zn1 O1 1_555 1_555
O1 C7 1_555 1_555
O2 C7 1_555 1_555
O3 C8 1_555 1_555
O4 C8 1_555 1_555
C1 C2 1_555 1_555
C2 H1 1_555 1_555
C3 C2 1_555 1_555
H2 C3 1_555 1_555
C4 C3 1_555 1_555
H3 C4 1_555 1_555
C5 C4 1_555 1_555
C6 C1 1_555 1_555
H4 C6 1_555 1_555
C7 C1 1_555 1_555
C8 C5 1_555 1_555
N1 Zn1 1_555 1_555
N2 C15 1_555 1_555
C9 N1 1_555 1_555
H5 C9 1_555 1_555
C10 C9 1_555 1_555
H6 C10 1_555 1_555
C11 C10 1_555 1_555
C12 C11 1_555 1_555
H7 C12 1_555 1_555
C13 N1 1_555 1_555
H8 C13 1_555 1_555
C14 H9 1_555 1_555
C15 C14 1_555 1_555
H10 C15 1_555 1_555
C16 N2 1_555 1_555
H11 C16 1_555 1_555
C17 C16 1_555 1_555
H12 C17 1_555 1_555
C18 C11 1_555 1_555
O5 Zn1 1_555 1_555
O3_2 Zn1 1_555 1_555
N2C Zn1 1_555 1_555
Zn1_2 O3 1_555 1_555
Zn1C N2 1_555 1_555
C5 C6 1_555 1_555
C12 C13 1_555 1_555
C14 C18 1_555 1_555
C17 C18 1_555 1_555

#END
