
#######################################################################
#
#                 Cambridge Crystallographic Data Centre
#                                CCDC 
#
#######################################################################
#
# If this CIF has been generated from an entry in the Cambridge 
# Structural Database, then it will include bibliographic, chemical, 
# crystal, experimental, refinement or atomic coordinate data resulting 
# from the CCDC's data processing and validation procedures.
#
#######################################################################

data_WAJHUL
_symmetry_cell_setting           monoclinic
_symmetry_space_group_name_H-M   'C 2/c'
_symmetry_Int_Tables_number      15
_space_group_name_Hall           '-C 2yn'
loop_
_symmetry_equiv_pos_site_id
_symmetry_equiv_pos_as_xyz
1 x,y,z
2 1/2+x,1/2+y,z
3 x,-y,1/2+z
4 1/2+x,1/2-y,1/2+z
5 -x,-y,-z
6 1/2-x,1/2-y,-z
7 -x,y,1/2-z
8 1/2-x,1/2+y,1/2-z
_cell_length_a                   25.717(4)
_cell_length_b                   16.286(2)
_cell_length_c                   15.217(2)
_cell_angle_alpha                90
_cell_angle_beta                 120.311(3)
_cell_angle_gamma                90
_cell_volume                     5502.05
loop_
_atom_site_label
_atom_site_type_symbol
_atom_site_fract_x
_atom_site_fract_y
_atom_site_fract_z
Cd1 Cd 0.405630(12) 0.249991(16) 0.34429(2)
Cd2 Cd 0.2500 0.2500 0.5000
S1 S 0.23126(6) 0.13978(9) 0.34975(10)
S2 S 0.26077(6) 0.38962(7) 0.40867(11)
S3 S 0.37084(5) 0.22053(10) 0.62883(9)
N1 N 0.33774(13) 0.3218(2) 0.0310(2)
N2 N 0.37012(14) 0.3273(2) 0.1328(2)
N3 N 0.37148(14) 0.25395(19) 0.1706(2)
N4 N 0.43562(14) 0.4049(2) 0.0161(2)
N5 N 0.46774(14) 0.3348(2) 0.0426(2)
N6 N 0.52265(14) 0.35202(19) 0.1174(2)
N7 N 0.49268(15) 0.0237(2) 0.3404(2)
N8 N 0.45487(15) 0.0883(2) 0.3026(2)
N9 N 0.47327(14) 0.14394(19) 0.3743(2)
N10 N 0.32334(17) 0.1634(2) 0.3062(3)
N11 N 0.34002(16) 0.3536(3) 0.3398(3)
N12 N 0.42663(18) 0.2330(2) 0.5133(3)
C1 C 0.31773(16) 0.2436(2) 0.0009(3)
C2 C 0.28161(17) 0.2067(3) -0.0941(3)
H1 H 0.2662 0.2366 -0.1559
C3 C 0.26979(18) 0.1252(3) -0.0924(3)
H2 H 0.2454 0.0977 -0.1552
C4 C 0.29219(18) 0.0801(3) -0.0015(3)
H3 H 0.2831 0.0233 -0.0049
C5 C 0.32697(17) 0.1164(3) 0.0921(3)
H4 H 0.3417 0.0863 0.1537
C6 C 0.33940(16) 0.2000(2) 0.0917(3)
C7 C 0.46990(17) 0.4691(2) 0.0744(3)
C8 C 0.45888(19) 0.5530(3) 0.0749(3)
H5 H 0.4207 0.5766 0.0298
C9 C 0.5062(2) 0.5988(3) 0.1443(3)
H6 H 0.5007 0.6562 0.1472
C10 C 0.5633(2) 0.5647(3) 0.2121(3)
H7 H 0.5946 0.5993 0.2596
C11 C 0.57430(19) 0.4821(3) 0.2105(3)
H8 H 0.6126 0.4588 0.2552
C12 C 0.52617(18) 0.4344(2) 0.1397(3)
C13 C 0.32905(18) 0.3954(3) -0.0291(3)
H9 H 0.3333 0.4443 0.0129
H10 H 0.2876 0.3954 -0.0883
C14 C 0.37323(17) 0.4022(3) -0.0667(3)
H11 H 0.3678 0.3546 -0.1110
H12 H 0.3643 0.4526 -0.1083
C15 C 0.53682(16) 0.0375(2) 0.4389(3)
C16 C 0.58457(18) -0.0097(2) 0.5119(3)
H13 H 0.5929 -0.0633 0.4975
C17 C 0.61837(18) 0.0259(3) 0.6047(3)
H14 H 0.6514 -0.0040 0.6563
C18 C 0.60664(19) 0.1053(3) 0.6278(3)
H15 H 0.6321 0.1275 0.6938
C19 C 0.55910(18) 0.1510(3) 0.5567(3)
H16 H 0.5505 0.2041 0.5720
C20 C 0.52387(17) 0.1156(2) 0.4605(3)
C21 C 0.48127(19) -0.0478(2) 0.2756(3)
H17 H 0.4381 -0.0490 0.2227
H18 H 0.4902 -0.0982 0.3172
C22 C 0.28582(17) 0.1553(2) 0.3262(3)
C23 C 0.30740(17) 0.3662(2) 0.3694(3)
C24 C 0.40208(17) 0.2286(2) 0.5588(3)
C21F C 0.51873(19) -0.0478(2) 0.2244(3)
N7F N 0.50732(15) 0.0237(2) 0.1596(2)
N8F N 0.54513(15) 0.0883(2) 0.1974(2)
N9F N 0.52673(14) 0.14394(19) 0.1257(2)
C20F C 0.47613(17) 0.1156(2) 0.0395(3)
C15F C 0.46318(16) 0.0375(2) 0.0611(3)
C16F C 0.41543(18) -0.0097(2) -0.0119(3)
H13F H 0.4071 -0.0633 0.0025
C17F C 0.38163(18) 0.0259(3) -0.1047(3)
H14F H 0.3486 -0.0040 -0.1563
C18F C 0.39336(19) 0.1053(3) -0.1278(3)
H15F H 0.3679 0.1275 -0.1938
C19F C 0.44090(18) 0.1510(3) -0.0567(3)
H16F H 0.4495 0.2041 -0.0720
H17F H 0.5619 -0.0490 0.2773
H18F H 0.5098 -0.0982 0.1828
S1E S 0.26874(6) 0.36022(9) 0.65025(10)
N10E N 0.17666(17) 0.3366(2) 0.6938(3)
C22E C 0.21418(17) 0.3447(2) 0.6738(3)
S2E S 0.23923(6) 0.11038(7) 0.59133(11)
N11E N 0.15998(16) 0.1464(3) 0.6602(3)
C23E C 0.19260(17) 0.1338(2) 0.6306(3)
S3E S 0.12916(5) 0.27947(10) 0.37117(9)
N12E N 0.07337(18) 0.2670(2) 0.4867(3)
C24E C 0.09792(17) 0.2714(2) 0.4412(3)
Cd1E Cd 0.094370(12) 0.250009(16) 0.65571(2)
N1F N 0.66226(13) 0.3218(2) 0.4690(2)
N2F N 0.62988(14) 0.3273(2) 0.3672(2)
N3F N 0.62852(14) 0.25395(19) 0.3294(2)
N4F N 0.56438(14) 0.4049(2) 0.4839(2)
N5F N 0.53226(14) 0.3348(2) 0.4574(2)
N6F N 0.47735(14) 0.35202(19) 0.3826(2)
C1F C 0.68227(16) 0.2436(2) 0.4991(3)
C2F C 0.71839(17) 0.2067(3) 0.5941(3)
H1F H 0.7338 0.2366 0.6559
C3F C 0.73021(18) 0.1252(3) 0.5924(3)
H2F H 0.7546 0.0977 0.6552
C4F C 0.70781(18) 0.0801(3) 0.5015(3)
H3F H 0.7169 0.0233 0.5049
C5F C 0.67303(17) 0.1164(3) 0.4079(3)
H4F H 0.6583 0.0863 0.3463
C6F C 0.66060(16) 0.2000(2) 0.4083(3)
C7F C 0.53010(17) 0.4691(2) 0.4256(3)
C8F C 0.54112(19) 0.5530(3) 0.4251(3)
H5F H 0.5793 0.5766 0.4702
C9F C 0.4938(2) 0.5988(3) 0.3557(3)
H6F H 0.4993 0.6562 0.3528
C10F C 0.4367(2) 0.5647(3) 0.2879(3)
H7F H 0.4054 0.5993 0.2404
C11F C 0.42570(19) 0.4821(3) 0.2895(3)
H8F H 0.3874 0.4588 0.2448
C12F C 0.47383(18) 0.4344(2) 0.3603(3)
C13F C 0.67095(18) 0.3954(3) 0.5291(3)
H9F H 0.6667 0.4443 0.4871
H10F H 0.7124 0.3954 0.5883
C14F C 0.62677(17) 0.4022(3) 0.5667(3)
H11F H 0.6322 0.3546 0.6110
H12F H 0.6357 0.4526 0.6083
Cd1F Cd 0.594370(12) 0.249991(16) 0.15571(2)
N3E N 0.12852(14) 0.24605(19) 0.8294(2)
N6C N 0.02265(14) 0.14798(19) 0.6174(2)
N9E N 0.02673(14) 0.35606(19) 0.6257(2)
loop_
_geom_bond_atom_site_label_1
_geom_bond_atom_site_label_2
_geom_bond_site_symmetry_1
_geom_bond_site_symmetry_2
Cd1 N3 1_555 1_555
Cd2 S1 1_555 1_555
S1 C22 1_555 1_555
S2 Cd2 1_555 1_555
S3 Cd2 1_555 1_555
N1 N2 1_555 1_555
N2 N3 1_555 1_555
N3 C6 1_555 1_555
N4 N5 1_555 1_555
N5 N6 1_555 1_555
N6 C12 1_555 1_555
N7 N8 1_555 1_555
N8 N9 1_555 1_555
N9 Cd1 1_555 1_555
N10 Cd1 1_555 1_555
N11 Cd1 1_555 1_555
N12 Cd1 1_555 1_555
C1 N1 1_555 1_555
C2 C1 1_555 1_555
H1 C2 1_555 1_555
C3 C2 1_555 1_555
H2 C3 1_555 1_555
C4 C3 1_555 1_555
H3 C4 1_555 1_555
C5 C4 1_555 1_555
H4 C5 1_555 1_555
C6 C1 1_555 1_555
C7 N4 1_555 1_555
C8 C7 1_555 1_555
H5 C8 1_555 1_555
C9 C8 1_555 1_555
H6 C9 1_555 1_555
C10 C9 1_555 1_555
H7 C10 1_555 1_555
C11 C10 1_555 1_555
H8 C11 1_555 1_555
C12 C7 1_555 1_555
C13 N1 1_555 1_555
H9 C13 1_555 1_555
H10 C13 1_555 1_555
C14 N4 1_555 1_555
H11 C14 1_555 1_555
H12 C14 1_555 1_555
C15 N7 1_555 1_555
C16 C15 1_555 1_555
H13 C16 1_555 1_555
C17 C16 1_555 1_555
H14 C17 1_555 1_555
C18 C17 1_555 1_555
H15 C18 1_555 1_555
C19 C18 1_555 1_555
H16 C19 1_555 1_555
C20 N9 1_555 1_555
C21 N7 1_555 1_555
H17 C21 1_555 1_555
H18 C21 1_555 1_555
C22 N10 1_555 1_555
C23 S2 1_555 1_555
C24 S3 1_555 1_555
C21F C21 1_555 1_555
N7F C21F 1_555 1_555
N8F N7F 1_555 1_555
N9F N8F 1_555 1_555
C20F N9F 1_555 1_555
C15F N7F 1_555 1_555
C16F C15F 1_555 1_555
H13F C16F 1_555 1_555
C17F C16F 1_555 1_555
H14F C17F 1_555 1_555
C18F C17F 1_555 1_555
H15F C18F 1_555 1_555
C19F C20F 1_555 1_555
H16F C19F 1_555 1_555
H17F C21F 1_555 1_555
H18F C21F 1_555 1_555
S1E Cd2 1_555 1_555
N10E C22E 1_555 1_555
C22E S1E 1_555 1_555
S2E Cd2 1_555 1_555
N11E C23E 1_555 1_555
C23E S2E 1_555 1_555
S3E Cd2 1_555 1_555
N12E C24E 1_555 1_555
C24E S3E 1_555 1_555
Cd1E N10E 1_555 1_555
N1F N2F 1_555 1_555
N2F N3F 1_555 1_555
N3F C6F 1_555 1_555
N4F N5F 1_555 1_555
N5F N6F 1_555 1_555
N6F Cd1 1_555 1_555
C1F N1F 1_555 1_555
C2F C1F 1_555 1_555
H1F C2F 1_555 1_555
C3F C2F 1_555 1_555
H2F C3F 1_555 1_555
C4F C3F 1_555 1_555
H3F C4F 1_555 1_555
C5F C4F 1_555 1_555
H4F C5F 1_555 1_555
C6F C1F 1_555 1_555
C7F N4F 1_555 1_555
C8F C7F 1_555 1_555
H5F C8F 1_555 1_555
C9F C8F 1_555 1_555
H6F C9F 1_555 1_555
C10F C9F 1_555 1_555
H7F C10F 1_555 1_555
C11F C10F 1_555 1_555
H8F C11F 1_555 1_555
C12F N6F 1_555 1_555
C13F N1F 1_555 1_555
H9F C13F 1_555 1_555
H10F C13F 1_555 1_555
C14F N4F 1_555 1_555
H11F C14F 1_555 1_555
H12F C14F 1_555 1_555
Cd1F N6 1_555 1_555
N3E Cd1E 1_555 1_555
N6C Cd1E 1_555 1_555
N9E Cd1E 1_555 1_555
N11 C23 1_555 1_555
N12 C24 1_555 1_555
C5 C6 1_555 1_555
C11 C12 1_555 1_555
C13 C14 1_555 1_555
C15 C20 1_555 1_555
C19 C20 1_555 1_555
N9F Cd1F 1_555 1_555
C20F C15F 1_555 1_555
C18F C19F 1_555 1_555
N11E Cd1E 1_555 1_555
N12E Cd1E 1_555 1_555
N3F Cd1F 1_555 1_555
C5F C6F 1_555 1_555
C7F C12F 1_555 1_555
C11F C12F 1_555 1_555
C13F C14F 1_555 1_555

#END
