
#######################################################################
#
#                 Cambridge Crystallographic Data Centre
#                                CCDC 
#
#######################################################################
#
# If this CIF has been generated from an entry in the Cambridge 
# Structural Database, then it will include bibliographic, chemical, 
# crystal, experimental, refinement or atomic coordinate data resulting 
# from the CCDC's data processing and validation procedures.
#
#######################################################################

data_WAJHIY
_symmetry_cell_setting           triclinic
_symmetry_space_group_name_H-M   'P -1'
_symmetry_Int_Tables_number      2
_space_group_name_Hall           '-P 1'
loop_
_symmetry_equiv_pos_site_id
_symmetry_equiv_pos_as_xyz
1 x,y,z
2 -x,-y,-z
_cell_length_a                   9.916(4)
_cell_length_b                   8.785(3)
_cell_length_c                   6.264(2)
_cell_angle_alpha                103.80(3)
_cell_angle_beta                 99.22(3)
_cell_angle_gamma                105.78(3)
_cell_volume                     494.935
loop_
_atom_site_label
_atom_site_type_symbol
_atom_site_fract_x
_atom_site_fract_y
_atom_site_fract_z
Cu1 Cu 0.2965(2) 0.0610(2) 0.7916(3)
Cu2 Cu 0.5000 0.5000 0.5000
P1 P 0.2437(2) 0.3793(4) 0.6880(5)
P2 P 0.3095(3) 0.1381(4) 0.3367(5)
O1 O 0.2497(8) 0.4019(9) 0.2770(12)
O2 O 0.2246(8) 0.2508(9) 0.8133(12)
O3 O 0.3949(8) 0.4965(9) 0.7369(12)
O4 O 0.1387(9) 0.4773(10) 0.7375(13)
O5 O 0.2758(9) 0.0534(9) 0.0884(11)
O6 O 0.2730(8) 0.0110(9) 0.4662(12)
O7 O 0.4635(8) 0.2570(9) 0.4292(13)
O8 O 0.3315(9) -0.1523(10) 0.7586(13)
O9 O 0.5379(8) 0.2298(9) 0.8730(13)
C1 C 0.1965(12) 0.2722(13) 0.3831(16)
C2 C 0.0367(15) 0.1846(16) 0.2848(19)
P1A P 0.7563(2) 0.6207(4) 0.3120(5)
P2A P 0.6905(3) 0.8619(4) 0.6633(5)
O1A O 0.7503(8) 0.5981(9) 0.7230(12)
O2A O 0.7754(8) 0.7492(9) 0.1867(12)
O3A O 0.6051(8) 0.5035(9) 0.2631(12)
O4A O 0.8613(9) 0.5227(10) 0.2625(13)
O5A O 0.7242(9) 0.9466(9) 0.9116(11)
O6A O 0.7270(8) 0.9890(9) 0.5338(12)
O7A O 0.5365(8) 0.7430(9) 0.5708(13)
C1A C 0.8035(12) 0.7278(13) 0.6169(16)
C2A C 0.9633(15) 0.8154(16) 0.7152(19)
Cu1A Cu 0.7035(2) 0.9390(2) 0.2084(3)
O8A O 0.6685(9) 1.1523(10) 0.2414(13)
O9A O 0.4621(8) 0.7702(9) 0.1270(13)
O5_2 O 0.2758(9) 0.0534(9) 1.0884(11)
Cu1_2 Cu 0.2965(2) 0.0610(2) -0.2084(3)
Cu1A_2 Cu 0.7035(2) 0.9390(2) 1.2084(3)
O5A_2 O 0.7242(9) 0.9466(9) -0.0884(11)
O10 O 0.1093(10) 0.6721(12) 0.2344(17)
loop_
_geom_bond_atom_site_label_1
_geom_bond_atom_site_label_2
_geom_bond_site_symmetry_1
_geom_bond_site_symmetry_2
Cu1 O2 1_555 1_555
Cu2 O1 1_555 1_555
P1 O2 1_555 1_555
P2 O5 1_555 1_555
O1 C1 1_555 1_555
O3 Cu2 1_555 1_555
O4 P1 1_555 1_555
O5 Cu1_2 1_555 1_555
O6 Cu1 1_555 1_555
O7 Cu2 1_555 1_555
O8 Cu1 1_555 1_555
O9 Cu1 1_555 1_555
C1 P1 1_555 1_555
C2 C1 1_555 1_555
P1A O2A 1_555 1_555
P2A O5A 1_555 1_555
O1A Cu2 1_555 1_555
O2A Cu1A 1_555 1_555
O3A Cu2 1_555 1_555
O4A P1A 1_555 1_555
O5A Cu1A_2 1_555 1_555
O6A P2A 1_555 1_555
O7A Cu2 1_555 1_555
C1A P1A 1_555 1_555
C2A C1A 1_555 1_555
Cu1A O6A 1_555 1_555
O8A Cu1A 1_555 1_555
O9A Cu1A 1_555 1_555
O5_2 Cu1 1_555 1_555
O5A_2 Cu1A 1_555 1_555
P1 O3 1_555 1_555
P2 O6 1_555 1_555
P2 O7 1_555 1_555
P2 C1 1_555 1_555
P1A O3A 1_555 1_555
P2A O7A 1_555 1_555
P2A C1A 1_555 1_555
O1A C1A 1_555 1_555

#END
