
#######################################################################
#
#                 Cambridge Crystallographic Data Centre
#                                CCDC 
#
#######################################################################
#
# If this CIF has been generated from an entry in the Cambridge 
# Structural Database, then it will include bibliographic, chemical, 
# crystal, experimental, refinement or atomic coordinate data resulting 
# from the CCDC's data processing and validation procedures.
#
#######################################################################

data_WAJHOG
_symmetry_cell_setting           tetragonal
_symmetry_space_group_name_H-M   'P 41 21 2'
_symmetry_Int_Tables_number      92
_space_group_name_Hall           'P 4abw 2nw'
loop_
_symmetry_equiv_pos_site_id
_symmetry_equiv_pos_as_xyz
1 x,y,z
2 -x,-y,1/2+z
3 1/2-y,1/2+x,1/4+z
4 1/2+y,1/2-x,3/4+z
5 1/2-x,1/2+y,1/4-z
6 1/2+x,1/2-y,3/4-z
7 y,x,-z
8 -y,-x,1/2-z
_cell_length_a                   16.6332(9)
_cell_length_b                   16.6332(9)
_cell_length_c                   10.7833(11)
_cell_angle_alpha                90
_cell_angle_beta                 90
_cell_angle_gamma                90
_cell_volume                     2983.34
loop_
_atom_site_label
_atom_site_type_symbol
_atom_site_fract_x
_atom_site_fract_y
_atom_site_fract_z
Li1 Li 0.2558(6) 0.5676(6) 0.9393(8)
Zn1 Zn 0.15210(3) 0.41480(3) 0.85041(5)
O1 O 0.17430(19) 0.48898(19) 1.0002(3)
O2 O 0.1139(2) 0.5459(2) 1.1619(3)
O3 O 0.3454(2) 0.2500(2) 1.1401(3)
O4 O 0.2900(2) 0.1658(3) 1.2669(4)
O5 O 0.0515(2) 0.2482(3) 1.5141(3)
O6 O -0.0117(2) 0.3631(2) 1.4640(3)
O7 O 0.3590(3) 0.5498(4) 1.0085(7)
C1 C 0.1448(3) 0.4864(3) 1.1080(4)
C2 C 0.2879(3) 0.2310(3) 1.2123(5)
C3 C 0.0440(3) 0.3100(3) 1.4495(4)
C4 C 0.1508(3) 0.4109(3) 1.1809(4)
C5 C 0.2130(3) 0.3562(3) 1.1604(4)
H1 H 0.2501 0.3659 1.0978
C6 C 0.2200(3) 0.2870(3) 1.2332(4)
C7 C 0.1642(3) 0.2738(3) 1.3249(4)
H2 H 0.1688 0.2279 1.3735
C8 C 0.1023(3) 0.3259(3) 1.3471(4)
C9 C 0.0959(3) 0.3961(3) 1.2763(4)
H3 H 0.0552 0.4329 1.2928
Li1D Li 0.2442(6) 0.0676(6) 1.3107(8)
Li1C Li 0.0676(6) 0.2442(6) 1.6893(8)
Zn1B Zn 0.08520(3) 0.65210(3) 1.10041(5)
Zn1F Zn 0.41480(3) 0.15210(3) 1.14959(5)
Zn1C Zn -0.08520(3) 0.34790(3) 1.60041(5)
O2C O 0.0459(2) 0.3861(2) 0.9119(3)
O3F O 0.2500(2) 0.3454(2) 0.8599(3)
O4D O 0.2100(2) 0.6658(3) 0.9831(4)
O4F O 0.1658(3) 0.2900(2) 0.7331(4)
O5B O 0.2518(3) 0.5515(2) 0.7641(3)
O6B O 0.1369(2) 0.4883(2) 0.7140(3)
loop_
_geom_bond_atom_site_label_1
_geom_bond_atom_site_label_2
_geom_bond_site_symmetry_1
_geom_bond_site_symmetry_2
Li1 O1 1_555 1_555
Zn1 O1 1_555 1_555
O1 C1 1_555 1_555
O2 C1 1_555 1_555
O3 C2 1_555 1_555
O4 C2 1_555 1_555
O5 C3 1_555 1_555
O6 C3 1_555 1_555
O7 Li1 1_555 1_555
C1 C4 1_555 1_555
C2 C6 1_555 1_555
C3 C8 1_555 1_555
C4 C5 1_555 1_555
C5 H1 1_555 1_555
C6 C5 1_555 1_555
C7 C6 1_555 1_555
H2 C7 1_555 1_555
C8 C7 1_555 1_555
C9 C4 1_555 1_555
H3 C9 1_555 1_555
Li1D O4 1_555 1_555
Li1C O5 1_555 1_555
Zn1B O2 1_555 1_555
Zn1F O3 1_555 1_555
Zn1C O6 1_555 1_555
O2C Zn1 1_555 1_555
O3F Zn1 1_555 1_555
O4D Li1 1_555 1_555
O4F Zn1 1_555 1_555
O5B Li1 1_555 1_555
O6B Zn1 1_555 1_555
O4 Zn1F 1_555 1_555
C8 C9 1_555 1_555
Zn1B O4D 1_555 1_555

#END
