
#######################################################################
#
#                 Cambridge Crystallographic Data Centre
#                                CCDC 
#
#######################################################################
#
# If this CIF has been generated from an entry in the Cambridge 
# Structural Database, then it will include bibliographic, chemical, 
# crystal, experimental, refinement or atomic coordinate data resulting 
# from the CCDC's data processing and validation procedures.
#
#######################################################################

data_WAJHIY01
_symmetry_cell_setting           triclinic
_symmetry_space_group_name_H-M   'P -1'
_symmetry_Int_Tables_number      2
_space_group_name_Hall           '-P 1'
loop_
_symmetry_equiv_pos_site_id
_symmetry_equiv_pos_as_xyz
1 x,y,z
2 -x,-y,-z
_cell_length_a                   6.265(2)
_cell_length_b                   8.792(3)
_cell_length_c                   9.915(3)
_cell_angle_alpha                105.78(3)
_cell_angle_beta                 99.14(3)
_cell_angle_gamma                103.81(3)
_cell_volume                     495.516
loop_
_atom_site_label
_atom_site_type_symbol
_atom_site_fract_x
_atom_site_fract_y
_atom_site_fract_z
Cu1 Cu 0.0000 0.0000 0.0000
Cu2 Cu 0.29123(12) -0.43859(9) -0.20329(8)
P1 P 0.1880(3) -0.1201(2) -0.2565(2)
P2 P -0.1631(3) -0.3621(2) -0.1910(2)
O1 O 0.2380(9) -0.0180(6) -0.3593(6)
O2 O 0.2431(7) -0.0008(6) -0.1040(5)
O3 O 0.3158(7) -0.2483(5) -0.2756(5)
O4 O -0.0631(8) -0.2420(6) -0.0341(5)
O5 O -0.0329(8) -0.4886(6) -0.2276(5)
O6 O -0.4138(7) -0.4467(6) -0.2264(5)
O7 O -0.2222(8) -0.0984(6) -0.2528(6)
O8 O 0.2615(9) -0.6486(6) -0.1672(6)
O9 O 0.3789(9) -0.2696(7) 0.0346(6)
C1 C -0.1160(10) -0.2272(7) -0.3039(7)
C2 C -0.2090(13) -0.3200(10) -0.4641(8)
H1 H -0.1794(13) -0.2443(10) -0.5175(8)
H2 H -0.1386(13) -0.4052(10) -0.4937(8)
H3 H -0.3694(13) -0.3689(10) -0.4823(8)
H4 H 0.314(22) -0.033(15) -0.415(11)
H5 H -0.3512(99) -0.104(12) -0.250(12)
H6 H 0.378(11) -0.664(13) -0.133(12)
H7 H 0.204(15) -0.660(11) -0.1030(77)
H8 H 0.2513(99) -0.270(14) 0.037(11)
H9 H 0.423(26) -0.1836(84) 0.025(13)
P1A P -0.1880(3) 0.1201(2) 0.2565(2)
P2A P 0.1631(3) 0.3621(2) 0.1910(2)
O1A O -0.2380(9) 0.0180(6) 0.3593(6)
O2A O -0.2431(7) 0.0008(6) 0.1040(5)
O3A O -0.3158(7) 0.2483(5) 0.2756(5)
O4A O 0.0631(8) 0.2420(6) 0.0341(5)
O5A O 0.0329(8) 0.4886(6) 0.2276(5)
O6A O 0.4138(7) 0.4467(6) 0.2264(5)
O7A O 0.2222(8) 0.0984(6) 0.2528(6)
C1A C 0.1160(10) 0.2272(7) 0.3039(7)
C2A C 0.2090(13) 0.3200(10) 0.4641(8)
H1A H 0.1794(13) 0.2443(10) 0.5175(8)
H2A H 0.1386(13) 0.4052(10) 0.4937(8)
H3A H 0.3694(13) 0.3689(10) 0.4823(8)
H4A H -0.314(22) 0.033(15) 0.415(11)
H5A H 0.3512(99) 0.104(12) 0.250(12)
Cu2A Cu -0.29123(12) 0.43859(9) 0.20329(8)
O8A O -0.2615(9) 0.6486(6) 0.1672(6)
H6A H -0.378(11) 0.664(13) 0.133(12)
H7A H -0.204(15) 0.660(11) 0.1030(77)
O9A O -0.3789(9) 0.2696(7) -0.0346(6)
H8A H -0.2513(99) 0.270(14) -0.037(11)
H9A H -0.423(26) 0.1836(84) -0.025(13)
O6_2 O 0.5862(7) -0.4467(6) -0.2264(5)
Cu2_2 Cu -0.70877(12) -0.43859(9) -0.20329(8)
Cu2A_2 Cu 0.70877(12) 0.43859(9) 0.20329(8)
O6A_2 O -0.5862(7) 0.4467(6) 0.2264(5)
O10 O 0.2695(15) -0.1710(10) 0.3893(8)
H10 H 0.226(31) -0.136(19) 0.329(16)
H11 H 0.203(21) -0.2672(73) 0.349(15)
loop_
_geom_bond_atom_site_label_1
_geom_bond_atom_site_label_2
_geom_bond_site_symmetry_1
_geom_bond_site_symmetry_2
Cu1 O2 1_555 1_555
Cu2 O3 1_555 1_555
P1 O1 1_555 1_555
P2 O4 1_555 1_555
O1 H4 1_555 1_555
O2 P1 1_555 1_555
O3 P1 1_555 1_555
O4 Cu1 1_555 1_555
O5 Cu2 1_555 1_555
O6 P2 1_555 1_555
O7 Cu1 1_555 1_555
O8 Cu2 1_555 1_555
O9 Cu2 1_555 1_555
O10 H10 1_555 1_555
C1 P1 1_555 1_555
C2 C1 1_555 1_555
H1 C2 1_555 1_555
H2 C2 1_555 1_555
H3 C2 1_555 1_555
H5 O7 1_555 1_555
H6 O8 1_555 1_555
H7 O8 1_555 1_555
H8 O9 1_555 1_555
H9 O9 1_555 1_555
H11 O10 1_555 1_555
P1A O1A 1_555 1_555
P2A O4A 1_555 1_555
O1A H4A 1_555 1_555
O2A Cu1 1_555 1_555
O3A P1A 1_555 1_555
O4A Cu1 1_555 1_555
O5A P2A 1_555 1_555
O6A P2A 1_555 1_555
O7A Cu1 1_555 1_555
C1A P1A 1_555 1_555
C2A C1A 1_555 1_555
H1A C2A 1_555 1_555
H2A C2A 1_555 1_555
H3A C2A 1_555 1_555
H5A O7A 1_555 1_555
Cu2A O3A 1_555 1_555
O8A Cu2A 1_555 1_555
H6A O8A 1_555 1_555
H7A O8A 1_555 1_555
O9A Cu2A 1_555 1_555
H8A O9A 1_555 1_555
H9A O9A 1_555 1_555
O6_2 Cu2 1_555 1_555
Cu2_2 O6 1_555 1_555
Cu2A_2 O6A 1_555 1_555
O6A_2 Cu2A 1_555 1_555
P2 C1 1_555 1_555
P2 O5 1_555 1_555
O7 C1 1_555 1_555
P1A O2A 1_555 1_555
P2A C1A 1_555 1_555
O5A Cu2A 1_555 1_555
O7A C1A 1_555 1_555

#END
