
#######################################################################
#
#                 Cambridge Crystallographic Data Centre
#                                CCDC 
#
#######################################################################
#
# If this CIF has been generated from an entry in the Cambridge 
# Structural Database, then it will include bibliographic, chemical, 
# crystal, experimental, refinement or atomic coordinate data resulting 
# from the CCDC's data processing and validation procedures.
#
#######################################################################

data_WAJHUM
_symmetry_cell_setting           tetragonal
_symmetry_space_group_name_H-M   'P 41 21 2'
_symmetry_Int_Tables_number      92
_space_group_name_Hall           'P 4abw 2nw'
loop_
_symmetry_equiv_pos_site_id
_symmetry_equiv_pos_as_xyz
1 x,y,z
2 -x,-y,1/2+z
3 1/2-y,1/2+x,1/4+z
4 1/2+y,1/2-x,3/4+z
5 1/2-x,1/2+y,1/4-z
6 1/2+x,1/2-y,3/4-z
7 y,x,-z
8 -y,-x,1/2-z
_cell_length_a                   16.3463(10)
_cell_length_b                   16.3463(10)
_cell_length_c                   11.2519(13)
_cell_angle_alpha                90
_cell_angle_beta                 90
_cell_angle_gamma                90
_cell_volume                     3006.52
loop_
_atom_site_label
_atom_site_type_symbol
_atom_site_fract_x
_atom_site_fract_y
_atom_site_fract_z
Li1 Li 0.1744(4) 0.5965(4) 0.8741(5)
Zn1 Zn 0.08343(2) 0.67284(3) 0.08938(4)
O1 O 0.00294(15) 0.68118(15) 0.2274(2)
O2 O -0.05893(16) 0.61046(19) 0.3707(2)
O3 O 0.25047(16) 0.82921(17) 0.4058(3)
O4 O 0.31589(19) 0.77127(18) 0.5571(3)
O5 O 0.19332(17) 0.51569(16) 0.7404(2)
O6 O 0.1240(2) 0.43860(17) 0.6153(3)
C1 C 0.0024(2) 0.6449(2) 0.3266(3)
C2 C 0.2614(2) 0.7722(2) 0.4824(4)
C3 C 0.1562(2) 0.5041(2) 0.6424(3)
C4 C 0.0777(2) 0.6419(2) 0.4011(3)
C5 C 0.1357(2) 0.7040(2) 0.3987(3)
H1 H 0.1312 0.7460 0.3434
C6 C 0.2005(2) 0.7034(2) 0.4791(4)
C7 C 0.2077(2) 0.6389(2) 0.5596(3)
H2 H 0.2504 0.6385 0.6143
C8 C 0.1511(2) 0.5753(2) 0.5582(3)
C9 C 0.0862(2) 0.5773(2) 0.4795(3)
H3 H 0.0481 0.5351 0.4794
Li1B Li -0.0965(4) 0.6744(4) 0.1241(5)
Li1G Li 0.4035(4) 0.8256(4) 0.6259(5)
Li1C Li 0.0965(4) 0.3256(4) 0.6241(5)
Zn1B Zn -0.17284(3) 0.58343(2) 0.33938(4)
Zn1G Zn 0.32716(3) 0.91657(2) 0.41062(4)
Zn1C Zn 0.17284(3) 0.41657(2) 0.83938(4)
O1C O 0.18118(15) 0.49706(15) 0.9774(2)
O2C O 0.11046(19) 0.55893(16) 0.1207(2)
O3G O 0.17079(17) 0.74953(16) 0.0942(3)
O4G O 0.22873(18) 0.68411(19) 0.9429(3)
O5B O -0.01569(16) 0.69332(17) -0.0096(2)
O6B O 0.06140(17) 0.6240(2) 0.8653(3)
loop_
_geom_bond_atom_site_label_1
_geom_bond_atom_site_label_2
_geom_bond_site_symmetry_1
_geom_bond_site_symmetry_2
Li1 O5 1_555 1_555
Zn1 O1 1_555 1_555
O1 C1 1_555 1_555
O2 C1 1_555 1_555
O3 C2 1_555 1_555
O4 C2 1_555 1_555
O5 C3 1_555 1_555
O6 C3 1_555 1_555
C1 C4 1_555 1_555
C2 C6 1_555 1_555
C3 C8 1_555 1_555
C4 C5 1_555 1_555
C5 H1 1_555 1_555
C6 C5 1_555 1_555
C7 C6 1_555 1_555
H2 C7 1_555 1_555
C8 C7 1_555 1_555
C9 C4 1_555 1_555
H3 C9 1_555 1_555
Li1B O1 1_555 1_555
Li1G O4 1_555 1_555
Li1C O6 1_555 1_555
Zn1B O2 1_555 1_555
Zn1G O3 1_555 1_555
Zn1C O5 1_555 1_555
O1C Li1 1_555 1_555
O2C Zn1 1_555 1_555
O3G Zn1 1_555 1_555
O4G Li1 1_555 1_555
O5B Zn1 1_555 1_555
O6B Li1 1_555 1_555
C8 C9 1_555 1_555
Li1B O5B 1_555 1_555
Zn1C O1C 1_555 1_555

#END
