
#######################################################################
#
#                 Cambridge Crystallographic Data Centre
#                                CCDC 
#
#######################################################################
#
# If this CIF has been generated from an entry in the Cambridge 
# Structural Database, then it will include bibliographic, chemical, 
# crystal, experimental, refinement or atomic coordinate data resulting 
# from the CCDC's data processing and validation procedures.
#
#######################################################################

data_WAJJOI01
_symmetry_cell_setting           tetragonal
_symmetry_space_group_name_H-M   'P 41 21 2'
_symmetry_Int_Tables_number      92
_space_group_name_Hall           'P 4abw 2nw'
loop_
_symmetry_equiv_pos_site_id
_symmetry_equiv_pos_as_xyz
1 x,y,z
2 -x,-y,1/2+z
3 1/2-y,1/2+x,1/4+z
4 1/2+y,1/2-x,3/4+z
5 1/2-x,1/2+y,1/4-z
6 1/2+x,1/2-y,3/4-z
7 y,x,-z
8 -y,-x,1/2-z
_cell_length_a                   16.31360(10)
_cell_length_b                   16.31360(10)
_cell_length_c                   11.3049(2)
_cell_angle_alpha                90
_cell_angle_beta                 90
_cell_angle_gamma                90
_cell_volume                     3008.61
loop_
_atom_site_label
_atom_site_type_symbol
_atom_site_fract_x
_atom_site_fract_y
_atom_site_fract_z
Li1 Li 0.1756(4) 0.5967(4) 0.8741(7)
Zn1 Zn 0.08333(3) 0.67293(3) 0.08885(4)
O1 O 0.00281(15) 0.68046(16) 0.2269(2)
O2 O -0.05774(18) 0.60761(19) 0.3682(3)
O3 O 0.25087(18) 0.82935(19) 0.4060(3)
O4 O 0.3180(2) 0.76889(19) 0.5533(3)
O5 O 0.19342(17) 0.51544(17) 0.7402(2)
O6 O 0.1244(2) 0.43746(18) 0.6162(3)
C1 C 0.0026(3) 0.6428(2) 0.3250(4)
C2 C 0.2621(2) 0.7713(2) 0.4819(4)
C3 C 0.1568(2) 0.5038(2) 0.6419(4)
C4 C 0.0786(2) 0.6399(2) 0.3989(4)
C5 C 0.1363(2) 0.7016(3) 0.3964(4)
H1 H 0.1321 0.7433 0.3408
C6 C 0.2007(2) 0.7014(3) 0.4771(4)
C7 C 0.2090(3) 0.6381(3) 0.5588(4)
H2 H 0.2515 0.6383 0.6138
C8 C 0.1516(2) 0.5740(2) 0.5561(4)
C9 C 0.0878(3) 0.5761(3) 0.4785(3)
H3 H 0.0497 0.5338 0.4790
Li1B Li -0.0967(4) 0.6756(4) 0.1241(7)
Li1G Li 0.4033(4) 0.8244(4) 0.6259(7)
Li1C Li 0.0967(4) 0.3244(4) 0.6241(7)
Zn1B Zn -0.17293(3) 0.58333(3) 0.33885(4)
Zn1G Zn 0.32707(3) 0.91667(3) 0.41115(4)
Zn1C Zn 0.17293(3) 0.41667(3) 0.83885(4)
O1C O 0.18046(16) 0.49719(15) 0.9769(2)
O2C O 0.10761(19) 0.55774(18) 0.1182(3)
O3G O 0.17065(19) 0.74913(18) 0.0940(3)
O4G O 0.23111(19) 0.6820(2) 0.9467(3)
O5B O -0.01544(17) 0.69342(17) -0.0098(2)
O6B O 0.06254(18) 0.6244(2) 0.8662(3)
loop_
_geom_bond_atom_site_label_1
_geom_bond_atom_site_label_2
_geom_bond_site_symmetry_1
_geom_bond_site_symmetry_2
Li1 O5 1_555 1_555
Zn1 O1 1_555 1_555
O1 C1 1_555 1_555
O2 C1 1_555 1_555
O3 C2 1_555 1_555
O4 C2 1_555 1_555
O5 C3 1_555 1_555
O6 C3 1_555 1_555
C1 C4 1_555 1_555
C2 C6 1_555 1_555
C3 C8 1_555 1_555
C4 C5 1_555 1_555
C5 H1 1_555 1_555
C6 C5 1_555 1_555
C7 C6 1_555 1_555
H2 C7 1_555 1_555
C8 C7 1_555 1_555
C9 C4 1_555 1_555
H3 C9 1_555 1_555
Li1B O1 1_555 1_555
Li1G O4 1_555 1_555
Li1C O6 1_555 1_555
Zn1B O2 1_555 1_555
Zn1G O3 1_555 1_555
Zn1C O5 1_555 1_555
O1C Li1 1_555 1_555
O2C Zn1 1_555 1_555
O3G Zn1 1_555 1_555
O4G Li1 1_555 1_555
O5B Zn1 1_555 1_555
O6B Li1 1_555 1_555
C8 C9 1_555 1_555
Li1B O5B 1_555 1_555
Zn1C O1C 1_555 1_555

#END
