
#######################################################################
#
#                 Cambridge Crystallographic Data Centre
#                                CCDC 
#
#######################################################################
#
# If this CIF has been generated from an entry in the Cambridge 
# Structural Database, then it will include bibliographic, chemical, 
# crystal, experimental, refinement or atomic coordinate data resulting 
# from the CCDC's data processing and validation procedures.
#
#######################################################################

data_WAJJEY01
_symmetry_cell_setting           tetragonal
_symmetry_space_group_name_H-M   'P 41 21 2'
_symmetry_Int_Tables_number      92
_space_group_name_Hall           'P 4abw 2nw'
loop_
_symmetry_equiv_pos_site_id
_symmetry_equiv_pos_as_xyz
1 x,y,z
2 -x,-y,1/2+z
3 1/2-y,1/2+x,1/4+z
4 1/2+y,1/2-x,3/4+z
5 1/2-x,1/2+y,1/4-z
6 1/2+x,1/2-y,3/4-z
7 y,x,-z
8 -y,-x,1/2-z
_cell_length_a                   16.3514(6)
_cell_length_b                   16.3514(6)
_cell_length_c                   11.2764(8)
_cell_angle_alpha                90
_cell_angle_beta                 90
_cell_angle_gamma                90
_cell_volume                     3014.95
loop_
_atom_site_label
_atom_site_type_symbol
_atom_site_fract_x
_atom_site_fract_y
_atom_site_fract_z
Li1 Li 0.1745(3) 0.5961(3) 0.8727(4)
Zn1 Zn 0.082855(18) 0.674027(18) 0.08990(3)
O1 O 0.00156(10) 0.68133(10) 0.22735(16)
O2 O -0.05991(11) 0.60966(11) 0.36988(17)
O3 O 0.24970(10) 0.82881(11) 0.40573(18)
O4 O 0.31548(11) 0.77081(11) 0.55717(18)
O5 O 0.19358(11) 0.51555(11) 0.74039(17)
O6 O 0.12316(11) 0.43853(11) 0.61515(18)
C1 C 0.00127(16) 0.64442(14) 0.3259(2)
C2 C 0.26037(16) 0.77207(16) 0.4821(3)
C3 C 0.15604(15) 0.50412(16) 0.6416(2)
C4 C 0.07689(16) 0.64147(15) 0.4000(2)
C5 C 0.13497(15) 0.70408(15) 0.3980(3)
H1 H 0.1304 0.7462 0.3430
C6 C 0.19965(16) 0.70337(16) 0.4782(3)
C7 C 0.20731(16) 0.63904(16) 0.5593(2)
H2 H 0.2497 0.6391 0.6142
C8 C 0.15081(15) 0.57445(16) 0.5574(2)
C9 C 0.08529(16) 0.57688(16) 0.4785(2)
H3 H 0.0469 0.5349 0.4786
Li1B Li -0.0961(3) 0.6745(3) 0.1227(4)
Li1G Li 0.4039(3) 0.8255(3) 0.6273(4)
Li1C Li 0.0961(3) 0.3255(3) 0.6227(4)
Zn1B Zn -0.174027(18) 0.582855(18) 0.33990(3)
Zn1G Zn 0.325973(18) 0.917145(18) 0.41010(3)
Zn1C Zn 0.174027(18) 0.417145(18) 0.83990(3)
O1C O 0.18133(10) 0.49844(10) 0.97735(16)
O2C O 0.10966(11) 0.55991(11) 0.11988(17)
O3G O 0.17119(11) 0.75030(10) 0.09427(18)
O4G O 0.22919(11) 0.68452(11) 0.94283(18)
O5B O -0.01555(11) 0.69358(11) -0.00961(17)
O6B O 0.06147(11) 0.62316(11) 0.86515(18)
loop_
_geom_bond_atom_site_label_1
_geom_bond_atom_site_label_2
_geom_bond_site_symmetry_1
_geom_bond_site_symmetry_2
Li1 O5 1_555 1_555
Zn1 O1 1_555 1_555
O1 C1 1_555 1_555
O2 C1 1_555 1_555
O3 C2 1_555 1_555
O4 C2 1_555 1_555
O5 C3 1_555 1_555
O6 C3 1_555 1_555
C1 C4 1_555 1_555
C2 C6 1_555 1_555
C3 C8 1_555 1_555
C4 C5 1_555 1_555
C5 H1 1_555 1_555
C6 C5 1_555 1_555
C7 C6 1_555 1_555
H2 C7 1_555 1_555
C8 C7 1_555 1_555
C9 C4 1_555 1_555
H3 C9 1_555 1_555
Li1B O1 1_555 1_555
Li1G O4 1_555 1_555
Li1C O6 1_555 1_555
Zn1B O2 1_555 1_555
Zn1G O3 1_555 1_555
Zn1C O5 1_555 1_555
O1C Li1 1_555 1_555
O2C Zn1 1_555 1_555
O3G Zn1 1_555 1_555
O4G Li1 1_555 1_555
O5B Zn1 1_555 1_555
O6B Li1 1_555 1_555
C8 C9 1_555 1_555
Li1B O5B 1_555 1_555
Zn1C O1C 1_555 1_555

#END
