
#######################################################################
#
#                 Cambridge Crystallographic Data Centre
#                                CCDC 
#
#######################################################################
#
# If this CIF has been generated from an entry in the Cambridge 
# Structural Database, then it will include bibliographic, chemical, 
# crystal, experimental, refinement or atomic coordinate data resulting 
# from the CCDC's data processing and validation procedures.
#
#######################################################################

data_WAJJAT
_symmetry_cell_setting           triclinic
_symmetry_space_group_name_H-M   'P -1'
_symmetry_Int_Tables_number      2
_space_group_name_Hall           '-P 1'
loop_
_symmetry_equiv_pos_site_id
_symmetry_equiv_pos_as_xyz
1 x,y,z
2 -x,-y,-z
_cell_length_a                   8.884(3)
_cell_length_b                   10.514(3)
_cell_length_c                   12.255(4)
_cell_angle_alpha                69.990(4)
_cell_angle_beta                 86.425(5)
_cell_angle_gamma                84.026(5)
_cell_volume                     1069.31
loop_
_atom_site_label
_atom_site_type_symbol
_atom_site_fract_x
_atom_site_fract_y
_atom_site_fract_z
Hg1 Hg 0.0000 1.0000 1.0000
Hg2 Hg -0.00414(6) 1.31644(5) 0.66725(4)
S1 S 0.1259(5) 1.3308(4) 0.8291(4)
S2 S -0.1831(5) 1.3937(4) 0.5116(4)
O1 O -0.0826(12) 1.0928(10) 0.7942(8)
O2 O -0.1979(10) 0.9148(9) 0.8987(8)
N1 N 0.1813(12) 0.8645(10) 0.9553(9)
N2 N 0.7687(17) 0.4670(15) 0.7710(13)
N3 N 0.1936(14) 1.1902(12) 0.5881(11)
N4 N 0.4073(17) 1.1880(17) 0.8111(14)
N5 N -0.062(2) 1.2567(18) 0.3608(14)
C1 C 0.1516(15) 0.7737(14) 0.9098(13)
H1 H 0.0510 0.7639 0.9002
C2 C 0.2622(16) 0.6931(15) 0.8761(13)
H2 H 0.2351 0.6306 0.8440
C3 C 0.4128(15) 0.7029(13) 0.8888(11)
C4 C 0.4437(15) 0.7992(14) 0.9343(13)
H3 H 0.5434 0.8131 0.9426
C5 C 0.3261(15) 0.8754(14) 0.9678(13)
H4 H 0.3496 0.9380 1.0010
C6 C 0.5326(14) 0.6186(12) 0.8504(10)
C7 C 0.5090(18) 0.5229(16) 0.8080(15)
H5 H 0.4096 0.5050 0.8039
C8 C 0.6249(19) 0.4466(17) 0.7689(17)
H6 H 0.5999 0.3801 0.7407
C9 C 0.7960(18) 0.5613(17) 0.8110(17)
H7 H 0.8962 0.5795 0.8113
C10 C 0.6833(17) 0.6380(16) 0.8539(16)
H8 H 0.7104 0.7017 0.8846
C11 C 0.308(2) 1.2504(17) 0.5220(17)
H9 H 0.3075 1.3442 0.5010
C12 C 0.4266(19) 1.1794(15) 0.4828(15)
H10 H 0.4995 1.2261 0.4311
C13 C 0.4365(14) 1.0395(12) 0.5207(10)
C14 C 0.3175(17) 0.9787(14) 0.5885(13)
H11 H 0.3157 0.8849 0.6111
C15 C 0.2011(18) 1.0537(17) 0.6233(16)
H12 H 0.1251 1.0090 0.6728
C16 C -0.1712(14) 1.0097(13) 0.8065(11)
C17 C -0.262(2) 1.0176(17) 0.7004(14)
H13 H -0.2595 1.1067 0.6431
H14 H -0.3645 0.9999 0.7243
H15 H -0.2169 0.9511 0.6676
C18 C 0.2914(19) 1.2426(16) 0.8171(14)
C19 C -0.1043(19) 1.3089(16) 0.4254(14)
C13A C 0.5635(14) 0.9605(12) 0.4793(10)
C12A C 0.5734(19) 0.8206(15) 0.5172(15)
C11A C 0.692(2) 0.7496(17) 0.4780(17)
N3A N 0.8064(14) 0.8098(12) 0.4119(11)
C15A C 0.7989(18) 0.9463(17) 0.3767(16)
C14A C 0.6825(17) 1.0213(14) 0.4115(13)
H11A H 0.6843 1.1151 0.3889
H12A H 0.8749 0.9910 0.3272
H9A H 0.6925 0.6558 0.4990
H10A H 0.5005 0.7739 0.5689
O1A O 0.0826(12) 0.9072(10) 1.2058(8)
O2A O 0.1979(10) 1.0852(9) 1.1013(8)
C16A C 0.1712(14) 0.9903(13) 1.1935(11)
C17A C 0.262(2) 0.9824(17) 1.2996(14)
H13A H 0.2595 0.8933 1.3569
H14A H 0.3645 1.0001 1.2757
H15A H 0.2169 1.0489 1.3324
N1A N -0.1813(12) 1.1355(10) 1.0447(9)
N2A N -0.7687(17) 1.5330(15) 1.2290(13)
C1A C -0.1516(15) 1.2263(14) 1.0902(13)
H1A H -0.0510 1.2361 1.0998
C2A C -0.2622(16) 1.3069(15) 1.1239(13)
H2A H -0.2351 1.3694 1.1560
C3A C -0.4128(15) 1.2971(13) 1.1112(11)
C4A C -0.4437(15) 1.2008(14) 1.0657(13)
H3A H -0.5434 1.1869 1.0574
C5A C -0.3261(15) 1.1246(14) 1.0322(13)
H4A H -0.3496 1.0620 0.9990
C6A C -0.5326(14) 1.3814(12) 1.1496(10)
C7A C -0.5090(18) 1.4771(16) 1.1920(15)
H5A H -0.4096 1.4950 1.1961
C8A C -0.6249(19) 1.5534(17) 1.2311(17)
H6A H -0.5999 1.6199 1.2593
C9A C -0.7960(18) 1.4387(17) 1.1890(17)
H7A H -0.8962 1.4205 1.1887
C10A C -0.6833(17) 1.3620(16) 1.1461(16)
H8A H -0.7104 1.2983 1.1154
Hg2A Hg 0.00414(6) 0.68356(5) 1.33275(4)
S1A S -0.1259(5) 0.6692(4) 1.1709(4)
N4A N -0.4073(17) 0.8120(17) 1.1889(14)
C18A C -0.2914(19) 0.7574(16) 1.1829(14)
S2A S 0.1831(5) 0.6063(4) 1.4884(4)
N5A N 0.062(2) 0.7433(18) 1.6392(14)
C19A C 0.1043(19) 0.6911(16) 1.5746(14)
Hg2A_2 Hg 1.00414(6) 0.68356(5) 0.33275(4)
N3A_2 N -0.1936(14) 0.8098(12) 1.4119(11)
loop_
_geom_bond_atom_site_label_1
_geom_bond_atom_site_label_2
_geom_bond_site_symmetry_1
_geom_bond_site_symmetry_2
Hg1 O1 1_555 1_555
Hg2 S1 1_555 1_555
S1 C18 1_555 1_555
S2 Hg2 1_555 1_555
O1 Hg2 1_555 1_555
O2 Hg1 1_555 1_555
N1 Hg1 1_555 1_555
N2 C8 1_555 1_555
N3 Hg2 1_555 1_555
N4 C18 1_555 1_555
N5 C19 1_555 1_555
C1 N1 1_555 1_555
H1 C1 1_555 1_555
C2 C1 1_555 1_555
H2 C2 1_555 1_555
C3 C2 1_555 1_555
C4 C3 1_555 1_555
H3 C4 1_555 1_555
C5 N1 1_555 1_555
H4 C5 1_555 1_555
C6 C3 1_555 1_555
C7 C6 1_555 1_555
H5 C7 1_555 1_555
C8 C7 1_555 1_555
H6 C8 1_555 1_555
C9 N2 1_555 1_555
H7 C9 1_555 1_555
C10 C6 1_555 1_555
H8 C10 1_555 1_555
C11 N3 1_555 1_555
H9 C11 1_555 1_555
C12 C11 1_555 1_555
H10 C12 1_555 1_555
C13 C12 1_555 1_555
C14 C13 1_555 1_555
H11 C14 1_555 1_555
C15 N3 1_555 1_555
H12 C15 1_555 1_555
C16 O1 1_555 1_555
C17 C16 1_555 1_555
H13 C17 1_555 1_555
H14 C17 1_555 1_555
H15 C17 1_555 1_555
C19 S2 1_555 1_555
C13A C13 1_555 1_555
C12A C13A 1_555 1_555
C11A C12A 1_555 1_555
N3A C11A 1_555 1_555
C15A N3A 1_555 1_555
C14A C13A 1_555 1_555
H11A C14A 1_555 1_555
H12A C15A 1_555 1_555
H9A C11A 1_555 1_555
H10A C12A 1_555 1_555
O1A Hg1 1_555 1_555
O2A Hg1 1_555 1_555
C16A O1A 1_555 1_555
C17A C16A 1_555 1_555
H13A C17A 1_555 1_555
H14A C17A 1_555 1_555
H15A C17A 1_555 1_555
N1A Hg1 1_555 1_555
N2A C8A 1_555 1_555
C1A N1A 1_555 1_555
H1A C1A 1_555 1_555
C2A C1A 1_555 1_555
H2A C2A 1_555 1_555
C3A C2A 1_555 1_555
C4A C3A 1_555 1_555
H3A C4A 1_555 1_555
C5A N1A 1_555 1_555
H4A C5A 1_555 1_555
C6A C3A 1_555 1_555
C7A C6A 1_555 1_555
H5A C7A 1_555 1_555
C8A C7A 1_555 1_555
H6A C8A 1_555 1_555
C9A N2A 1_555 1_555
H7A C9A 1_555 1_555
C10A C6A 1_555 1_555
H8A C10A 1_555 1_555
Hg2A O1A 1_555 1_555
S1A Hg2A 1_555 1_555
N4A C18A 1_555 1_555
C18A S1A 1_555 1_555
S2A Hg2A 1_555 1_555
N5A C19A 1_555 1_555
C19A S2A 1_555 1_555
Hg2A_2 N3A 1_555 1_555
N3A_2 Hg2A 1_555 1_555
O2 C16 1_555 1_555
C4 C5 1_555 1_555
C9 C10 1_555 1_555
C14 C15 1_555 1_555
C15A C14A 1_555 1_555
O2A C16A 1_555 1_555
C4A C5A 1_555 1_555
C9A C10A 1_555 1_555

#END
