
#######################################################################
#
#                 Cambridge Crystallographic Data Centre
#                                CCDC 
#
#######################################################################
#
# If this CIF has been generated from an entry in the Cambridge 
# Structural Database, then it will include bibliographic, chemical, 
# crystal, experimental, refinement or atomic coordinate data resulting 
# from the CCDC's data processing and validation procedures.
#
#######################################################################

data_WAJJOI
_symmetry_cell_setting           tetragonal
_symmetry_space_group_name_H-M   'P 41 21 2'
_symmetry_Int_Tables_number      92
_space_group_name_Hall           'P 4abw 2nw'
loop_
_symmetry_equiv_pos_site_id
_symmetry_equiv_pos_as_xyz
1 x,y,z
2 -x,-y,1/2+z
3 1/2-y,1/2+x,1/4+z
4 1/2+y,1/2-x,3/4+z
5 1/2-x,1/2+y,1/4-z
6 1/2+x,1/2-y,3/4-z
7 y,x,-z
8 -y,-x,1/2-z
_cell_length_a                   16.3136(1)
_cell_length_b                   16.3136(1)
_cell_length_c                   11.3049(2)
_cell_angle_alpha                90
_cell_angle_beta                 90
_cell_angle_gamma                90
_cell_volume                     3008.61
loop_
_atom_site_label
_atom_site_type_symbol
_atom_site_fract_x
_atom_site_fract_y
_atom_site_fract_z
Li1 Li 0.0962(7) 0.3246(7) 0.6231(11)
Zn1 Zn 0.17293(5) 0.41666(5) -0.16115(8)
O1 O 0.1805(3) 0.4970(3) -0.0235(4)
O2 O 0.1079(3) 0.5578(3) 0.1182(5)
O3 O 0.3291(3) 0.2491(3) 0.1558(5)
O4 O 0.2686(3) 0.1817(3) 0.3033(5)
O5 O 0.0156(3) 0.3065(3) 0.4905(4)
O6 O -0.0627(3) 0.3751(3) 0.3665(5)
C1 C 0.1429(4) 0.4974(4) 0.0753(7)
C2 C 0.2708(4) 0.2379(4) 0.2317(6)
C3 C 0.0036(4) 0.3429(4) 0.3924(7)
C4 C 0.1402(4) 0.4213(4) 0.1494(6)
C5 C 0.2017(4) 0.3635(4) 0.1464(6)
H1 H 0.2433 0.3674 0.0904
C6 C 0.2016(4) 0.2991(5) 0.2275(7)
C7 C 0.1384(5) 0.2913(4) 0.3087(6)
H2 H 0.1385 0.2490 0.3638
C8 C 0.0740(4) 0.3486(4) 0.3062(6)
C9 C 0.0755(5) 0.4124(4) 0.2288(6)
H3 H 0.0330 0.4505 0.2289
O5B O 0.1935(3) 0.5156(3) -0.2595(4)
O2C O 0.0578(3) 0.3921(3) -0.1318(5)
O3F O 0.2491(3) 0.3291(3) -0.1558(5)
Zn1B Zn 0.08334(5) 0.67293(5) 0.08885(8)
Zn1F Zn 0.41666(5) 0.17293(5) 0.16115(8)
Li1F Li 0.3246(7) 0.0962(7) 0.3769(11)
Li1B Li 0.1754(7) 0.5962(7) -0.1269(11)
Zn1C Zn -0.08334(5) 0.32707(5) 0.58885(8)
Li1C Li -0.1754(7) 0.4038(7) 0.3731(11)
O1C O -0.0030(3) 0.3195(3) 0.7265(4)
O4F O 0.1817(3) 0.2686(3) 0.6967(5)
O6B O 0.1249(3) 0.4373(3) 0.6165(5)
loop_
_geom_bond_atom_site_label_1
_geom_bond_atom_site_label_2
_geom_bond_site_symmetry_1
_geom_bond_site_symmetry_2
Li1 O5 1_555 1_555
Zn1 O1 1_555 1_555
O1 C1 1_555 1_555
O2 C1 1_555 1_555
O3 C2 1_555 1_555
O4 C2 1_555 1_555
O5 C3 1_555 1_555
O6 C3 1_555 1_555
C1 C4 1_555 1_555
C2 C6 1_555 1_555
C3 C8 1_555 1_555
C4 C5 1_555 1_555
C5 H1 1_555 1_555
C6 C5 1_555 1_555
C7 C6 1_555 1_555
H2 C7 1_555 1_555
C8 C7 1_555 1_555
C9 C4 1_555 1_555
H3 C9 1_555 1_555
O5B Zn1 1_555 1_555
O2C Zn1 1_555 1_555
O3F Zn1 1_555 1_555
Zn1B O2 1_555 1_555
Zn1F O3 1_555 1_555
Li1F O4 1_555 1_555
Li1B O1 1_555 1_555
Zn1C O5 1_555 1_555
Li1C O6 1_555 1_555
O1C Li1 1_555 1_555
O4F Li1 1_555 1_555
O6B Li1 1_555 1_555
C8 C9 1_555 1_555
O5B Li1B 1_555 1_555
Zn1C O1C 1_555 1_555

#END
