
#######################################################################
#
#                 Cambridge Crystallographic Data Centre
#                                CCDC 
#
#######################################################################
#
# If this CIF has been generated from an entry in the Cambridge 
# Structural Database, then it will include bibliographic, chemical, 
# crystal, experimental, refinement or atomic coordinate data resulting 
# from the CCDC's data processing and validation procedures.
#
#######################################################################

data_WAJLIE
_symmetry_cell_setting           orthorhombic
_symmetry_space_group_name_H-M   'P m n 21'
_symmetry_Int_Tables_number      31
_space_group_name_Hall           'P 2ac -2'
loop_
_symmetry_equiv_pos_site_id
_symmetry_equiv_pos_as_xyz
1 x,y,z
2 1/2-x,-y,1/2+z
3 1/2+x,-y,1/2+z
4 -x,y,z
_cell_length_a                   12.0693(5)
_cell_length_b                   11.0441(5)
_cell_length_c                   10.9609(5)
_cell_angle_alpha                90
_cell_angle_beta                 90
_cell_angle_gamma                90
_cell_volume                     1461.03
loop_
_atom_site_label
_atom_site_type_symbol
_atom_site_fract_x
_atom_site_fract_y
_atom_site_fract_z
O11 O 0.5000 0.7457(4) 0.5725(5)
O12 O 0.0000 0.8399(6) 0.8305(5)
O13 O 0.0000 -0.0121(5) 0.0290(8)
Cu1 Cu 1.0000 0.54755(4) 0.30004(5)
Cu2 Cu 0.5000 0.91135(5) -0.07655(5)
Cu3 Cu 0.74368(3) 0.74978(3) -0.41962(5)
O1 O 1.0000 0.4071(3) 0.4448(3)
O2 O 0.60898(16) 0.84523(18) -0.1900(2)
O3 O 0.76548(19) 0.75568(19) -0.2450(2)
O4 O 0.61557(17) 1.02574(17) -0.0183(2)
O5 O 0.77350(17) 1.07385(17) 0.0745(2)
O6 O 0.73684(19) 0.74871(16) 0.4045(2)
O7 O 0.88978(19) 0.6442(2) 0.3811(2)
O8 O 0.8882(2) 0.46118(19) 0.2099(2)
O9 O 0.75154(17) 0.42565(17) 0.0833(3)
N1 N 1.0000 0.5108(4) 0.6267(4)
H1 H 1.0000 0.5787 0.5882
N2 N 1.0000 0.4226(4) 0.8222(4)
N3 N 1.0000 0.2033(4) 0.8059(4)
H2 H 1.0000 0.1844 0.8821
N4 N 1.0000 0.1818(3) 0.6037(3)
C1 C 1.0000 0.3169(5) 0.7580(4)
C2 C 1.0000 0.3029(4) 0.6336(4)
C3 C 1.0000 0.4061(4) 0.5581(4)
C4 C 1.0000 0.5145(5) 0.7491(6)
H3 H 1.0000 0.5908 0.7849
C5 C 1.0000 0.1252(4) 0.7095(4)
H4 H 1.0000 0.0414 0.7175
C6 C 0.7347(2) 0.7771(3) -0.0355(3)
C7 C 0.7379(2) 0.8681(3) 0.0528(3)
C8 C 0.7685(2) 0.8382(3) 0.1695(3)
H5 H 0.7732 0.8993 0.2277
C9 C 0.7929(2) 0.7202(3) 0.2042(3)
C10 C 0.7925(2) 0.6287(3) 0.1154(2)
C11 C 0.7647(2) 0.6593(3) -0.0047(3)
H6 H 0.7663 0.6000 -0.0649
C12 C 0.6988(2) 0.7962(2) -0.1660(2)
C13 C 0.7060(2) 0.9983(3) 0.0319(3)
C14 C 0.8086(2) 0.6999(2) 0.3392(2)
C15 C 0.8134(3) 0.4962(3) 0.1392(3)
O10 O 0.9558(4) 0.7639(4) -0.3944(5)
Cu2A Cu 1.0000 0.08865(5) 0.42345(5)
Cu2_2 Cu 1.5000 0.91135(5) -0.07655(5)
Cu3C Cu 1.25632(3) 0.74978(3) -0.41962(5)
Cu3A Cu 0.75632(3) 1.25022(3) 0.08038(5)
Cu3_2 Cu 0.74368(3) 0.74978(3) 0.58038(5)
Cu3A_2 Cu 0.75632(3) 0.25022(3) 0.08038(5)
Cu3B Cu 1.24368(3) 1.25022(3) 0.08038(5)
Cu3C_2 Cu 1.25632(3) 0.74978(3) 0.58038(5)
Cu3B_2 Cu 1.24368(3) 0.25022(3) 0.08038(5)
O2C O 1.39102(16) 0.84523(18) -0.1900(2)
O2C_2 O 0.39102(16) 0.84523(18) -0.1900(2)
O3C O 1.23452(19) 0.75568(19) -0.2450(2)
O4C O 1.38443(17) 1.02574(17) -0.0183(2)
O4C_2 O 0.38443(17) 1.02574(17) -0.0183(2)
O5C O 1.22650(17) 1.07385(17) 0.0745(2)
O5A O 0.72650(17) 0.92615(17) -0.4255(2)
O5B O 1.27350(17) 0.92615(17) -0.4255(2)
O6C O 1.26316(19) 0.74871(16) 0.4045(2)
O6_2 O 0.73684(19) 0.74871(16) -0.5955(2)
O6C_2 O 1.26316(19) 0.74871(16) -0.5955(2)
O7C O 1.11022(19) 0.6442(2) 0.3811(2)
O8C O 1.1118(2) 0.46118(19) 0.2099(2)
O9C O 1.24846(17) 0.42565(17) 0.0833(3)
O9A O 0.74846(17) 0.57435(17) -0.4167(3)
O9B O 1.25154(17) 0.57435(17) -0.4167(3)
N4A N 0.5000 0.8182(3) 0.1037(3)
C6C C 1.2653(2) 0.7771(3) -0.0355(3)
C7C C 1.2621(2) 0.8681(3) 0.0528(3)
C8C C 1.2315(2) 0.8382(3) 0.1695(3)
H5C H 1.2268 0.8993 0.2277
C9C C 1.2071(2) 0.7202(3) 0.2042(3)
C10C C 1.2075(2) 0.6287(3) 0.1154(2)
C11C C 1.2353(2) 0.6593(3) -0.0047(3)
H6C H 1.2337 0.6000 -0.0649
C12C C 1.3012(2) 0.7962(2) -0.1660(2)
C13C C 1.2940(2) 0.9983(3) 0.0319(3)
C14C C 1.1914(2) 0.6999(2) 0.3392(2)
C15C C 1.1866(3) 0.4962(3) 0.1392(3)
O10C O 1.0442(4) 0.7639(4) -0.3944(5)
loop_
_geom_bond_atom_site_label_1
_geom_bond_atom_site_label_2
_geom_bond_site_symmetry_1
_geom_bond_site_symmetry_2
Cu1 O1 1_555 1_555
Cu2 O2 1_555 1_555
Cu3 O3 1_555 1_555
O1 C3 1_555 1_555
O2 C12 1_555 1_555
O3 C12 1_555 1_555
O4 Cu2 1_555 1_555
O5 C13 1_555 1_555
O6 C14 1_555 1_555
O7 Cu1 1_555 1_555
O8 Cu1 1_555 1_555
O9 C15 1_555 1_555
N1 H1 1_555 1_555
N2 C1 1_555 1_555
N3 H2 1_555 1_555
N4 C2 1_555 1_555
C1 N3 1_555 1_555
C2 C1 1_555 1_555
C3 N1 1_555 1_555
C4 N1 1_555 1_555
H3 C4 1_555 1_555
C5 N3 1_555 1_555
H4 C5 1_555 1_555
C6 C7 1_555 1_555
C7 C8 1_555 1_555
C8 H5 1_555 1_555
C9 C8 1_555 1_555
C10 C9 1_555 1_555
C11 C6 1_555 1_555
H6 C11 1_555 1_555
C12 C6 1_555 1_555
C13 O4 1_555 1_555
C14 O7 1_555 1_555
C15 O8 1_555 1_555
O10 Cu3 1_555 1_555
Cu2A N4 1_555 1_555
Cu2_2 O2C 1_555 1_555
Cu3C O3C 1_555 1_555
Cu3A O5 1_555 1_555
Cu3_2 O6 1_555 1_555
Cu3A_2 O9 1_555 1_555
Cu3B O5C 1_555 1_555
Cu3C_2 O6C 1_555 1_555
Cu3B_2 O9C 1_555 1_555
O2C C12C 1_555 1_555
O2C_2 Cu2 1_555 1_555
O3C C12C 1_555 1_555
O4C Cu2_2 1_555 1_555
O4C_2 Cu2 1_555 1_555
O5C C13C 1_555 1_555
O5A Cu3 1_555 1_555
O5B Cu3C 1_555 1_555
O6C C14C 1_555 1_555
O6_2 Cu3 1_555 1_555
O6C_2 Cu3C 1_555 1_555
O7C Cu1 1_555 1_555
O8C Cu1 1_555 1_555
O9C C15C 1_555 1_555
O9A Cu3 1_555 1_555
O9B Cu3C 1_555 1_555
N4A Cu2 1_555 1_555
C6C C7C 1_555 1_555
C7C C8C 1_555 1_555
C8C H5C 1_555 1_555
C9C C8C 1_555 1_555
C10C C9C 1_555 1_555
C11C C6C 1_555 1_555
H6C C11C 1_555 1_555
C12C C6C 1_555 1_555
C13C O4C 1_555 1_555
C14C O7C 1_555 1_555
C15C O8C 1_555 1_555
O10C O10 1_555 1_555
N2 C4 1_555 1_555
N4 C5 1_555 1_555
C2 C3 1_555 1_555
C7 C13 1_555 1_555
C9 C14 1_555 1_555
C10 C11 1_555 1_555
C10 C15 1_555 1_555
Cu3C O10C 1_555 1_555
C7C C13C 1_555 1_555
C9C C14C 1_555 1_555
C10C C11C 1_555 1_555
C10C C15C 1_555 1_555

#END
