
#######################################################################
#
#                 Cambridge Crystallographic Data Centre
#                                CCDC 
#
#######################################################################
#
# If this CIF has been generated from an entry in the Cambridge 
# Structural Database, then it will include bibliographic, chemical, 
# crystal, experimental, refinement or atomic coordinate data resulting 
# from the CCDC's data processing and validation procedures.
#
#######################################################################

data_WAJPED
_symmetry_cell_setting           monoclinic
_symmetry_space_group_name_H-M   'P 21/c'
_symmetry_Int_Tables_number      14
_space_group_name_Hall           '-P 2ybc'
loop_
_symmetry_equiv_pos_site_id
_symmetry_equiv_pos_as_xyz
1 x,y,z
2 x,1/2-y,1/2+z
3 -x,-y,-z
4 -x,1/2+y,1/2-z
_cell_length_a                   21.4582(8)
_cell_length_b                   29.1664(11)
_cell_length_c                   18.6555(7)
_cell_angle_alpha                90
_cell_angle_beta                 110.729(2)
_cell_angle_gamma                90
_cell_volume                     10919.9
loop_
_atom_site_label
_atom_site_type_symbol
_atom_site_fract_x
_atom_site_fract_y
_atom_site_fract_z
Cu1 Cu 0.25448(2) 0.001281(12) 0.49210(2)
N1 N 0.31254(17) -0.03133(10) 0.45191(19)
H1 H 0.322(2) -0.0181(14) 0.422(2)
S1 S 0.32270(4) -0.08516(3) 0.44970(5)
C1 C 0.41095(18) -0.09590(12) 0.4848(2)
C2 C 0.4551(2) -0.06435(13) 0.4738(2)
H2 H 0.4393 -0.0374 0.4443
C3 C 0.5229(2) -0.07305(15) 0.5069(3)
H3 H 0.5540 -0.0516 0.5006
C4 C 0.5454(2) -0.11216(16) 0.5483(3)
H4 H 0.5919 -0.1178 0.5705
C5 C 0.5010(2) -0.14337(16) 0.5580(3)
H5 H 0.5169 -0.1706 0.5864
C6 C 0.4331(2) -0.13513(13) 0.5264(2)
H6 H 0.4023 -0.1564 0.5336
C7 C 0.30286(17) -0.10296(12) 0.3521(2)
C8 C 0.2872(2) -0.07180(15) 0.2932(2)
H7 H 0.2873 -0.0398 0.3029
C9 C 0.2711(2) -0.0885(2) 0.2187(3)
H8 H 0.2606 -0.0676 0.1771
C10 C 0.2701(2) -0.1348(2) 0.2047(3)
H9 H 0.2591 -0.1458 0.1538
C11 C 0.2850(2) -0.1648(2) 0.2642(4)
H10 H 0.2845 -0.1968 0.2543
C12 C 0.3009(2) -0.14971(14) 0.3385(3)
H11 H 0.3104 -0.1709 0.3797
N2 N 0.19053(16) 0.03167(10) 0.52752(17)
H12 H 0.184(2) 0.0188(13) 0.5600(19)
S2 S 0.16785(5) 0.08386(3) 0.51995(5)
C13 C 0.19072(16) 0.10948(11) 0.6131(2)
C14 C 0.2200(2) 0.08462(13) 0.6785(2)
H13 H 0.2304 0.0531 0.6763
C15 C 0.2341(2) 0.10689(16) 0.7487(2)
H14 H 0.2544 0.0903 0.7949
C16 C 0.21915(19) 0.15235(15) 0.7521(2)
H15 H 0.2284 0.1670 0.8002
C17 C 0.1904(2) 0.17675(14) 0.6847(3)
H16 H 0.1803 0.2083 0.6868
C18 C 0.1763(2) 0.15566(12) 0.6151(2)
H17 H 0.1570 0.1725 0.5688
C19 C 0.07920(19) 0.08474(13) 0.4975(2)
C20 C 0.0503(2) 0.05884(16) 0.5387(3)
H18 H 0.0771 0.0414 0.5816
C21 C -0.0181(3) 0.0584(2) 0.5172(4)
H19 H -0.0384 0.0405 0.5454
C22 C -0.0567(3) 0.0832(3) 0.4566(5)
H20 H -0.1038 0.0822 0.4425
C23 C -0.0291(4) 0.1093(3) 0.4158(4)
H21 H -0.0566 0.1268 0.3734
C24 C 0.0408(3) 0.11059(19) 0.4366(3)
H22 H 0.0609 0.1290 0.4088
C25 C 0.26460(16) 0.11194(11) 0.34647(18)
C26 C 0.24384(16) 0.14493(10) 0.38676(17)
H23 H 0.2401 0.1373 0.4346
C27 C 0.22839(15) 0.18921(10) 0.35764(17)
C28 C 0.22876(15) 0.19869(10) 0.28485(17)
H24 H 0.2156 0.2282 0.2632
C29 C 0.24819(15) 0.16562(10) 0.24324(17)
C30 C 0.26863(16) 0.12278(11) 0.27558(17)
H25 H 0.2854 0.1009 0.2493
C31 C 0.28291(17) 0.06463(11) 0.38053(18)
O1 O 0.25916(13) 0.05544(7) 0.43340(13)
O2 O 0.31874(13) 0.03990(8) 0.35766(14)
C32 C 0.21624(15) 0.22637(10) 0.40645(17)
O3 O 0.19971(11) 0.21263(7) 0.46264(11)
O4 O 0.22487(12) 0.26700(7) 0.39274(13)
C33 C 0.24741(16) 0.17711(11) 0.16428(18)
O5 O 0.20974(11) 0.21118(8) 0.13340(12)
O6 O 0.28158(14) 0.15508(8) 0.13547(14)
C34 C 0.25825(16) -0.10803(10) 0.64633(17)
C35 C 0.27205(15) -0.14256(10) 0.60275(17)
H26 H 0.2748 -0.1354 0.5543
C36 C 0.28181(15) -0.18752(10) 0.62936(17)
C37 C 0.28123(14) -0.19708(10) 0.70196(17)
H27 H 0.2895 -0.2275 0.7213
C38 C 0.26866(15) -0.16281(10) 0.74686(17)
C39 C 0.25567(15) -0.11842(10) 0.71802(17)
H28 H 0.2450 -0.0951 0.7474
C40 C 0.24563(17) -0.05951(11) 0.61633(18)
O7 O 0.25500(13) -0.05269(7) 0.55406(13)
O8 O 0.2261(2) -0.03088(9) 0.65164(17)
C41 C 0.28799(15) -0.22595(10) 0.57888(17)
O9 O 0.30951(10) -0.21483(7) 0.52512(11)
O10 O 0.27019(11) -0.26517(7) 0.58923(13)
C42 C 0.26928(16) -0.17424(11) 0.82582(17)
O11 O 0.24661(13) -0.14677(8) 0.86092(13)
O12 O 0.29438(11) -0.21334(7) 0.85028(12)
Cu2 Cu 0.209105(18) 0.258067(13) 0.54174(2)
N3 N 0.12578(14) 0.28834(11) 0.48595(16)
H29 H 0.113(2) 0.3086(11) 0.504(2)
S3 S 0.08483(4) 0.28131(3) 0.39678(5)
C43 C -0.00127(16) 0.27549(12) 0.38540(18)
C44 C -0.03464(18) 0.23738(13) 0.3458(2)
H30 H -0.0128 0.2163 0.3239
C45 C -0.10071(19) 0.23058(15) 0.3388(2)
H31 H -0.1245 0.2049 0.3110
C46 C -0.13192(19) 0.26094(15) 0.3720(2)
H32 H -0.1769 0.2559 0.3675
C47 C -0.09795(18) 0.29838(15) 0.4114(2)
H33 H -0.1196 0.3192 0.4340
C48 C -0.03233(17) 0.30602(13) 0.4185(2)
H34 H -0.0089 0.3320 0.4457
C49 C 0.08172(16) 0.33425(12) 0.3467(2)
C50 C 0.05104(17) 0.33445(13) 0.2677(2)
H35 H 0.0308 0.3073 0.2415
C51 C 0.04999(19) 0.37417(14) 0.2273(2)
H36 H 0.0282 0.3746 0.1733
C52 C 0.0804(2) 0.41300(15) 0.2651(3)
H37 H 0.0800 0.4402 0.2370
C53 C 0.1117(2) 0.41276(15) 0.3441(3)
H38 H 0.1325 0.4398 0.3699
C54 C 0.1127(2) 0.37295(14) 0.3855(2)
H39 H 0.1344 0.3724 0.4396
N4 N 0.29578(15) 0.23229(11) 0.60236(16)
H40 H 0.3136(19) 0.2385(14) 0.6449(14)
S4 S 0.34294(4) 0.20089(3) 0.57419(5)
C55 C 0.42384(17) 0.22756(13) 0.6061(2)
C56 C 0.4309(2) 0.27220(13) 0.6318(2)
H41 H 0.3939 0.2887 0.6353
C57 C 0.4933(2) 0.29261(16) 0.6525(3)
H42 H 0.4994 0.3231 0.6719
C58 C 0.5463(2) 0.26919(18) 0.6453(3)
H43 H 0.5885 0.2838 0.6586
C59 C 0.5387(2) 0.22550(19) 0.6195(3)
H44 H 0.5757 0.2094 0.6150
C60 C 0.4772(2) 0.20396(16) 0.5995(3)
H45 H 0.4719 0.1732 0.5814
C61 C 0.36284(16) 0.14929(12) 0.6300(2)
C62 C 0.35937(18) 0.10835(13) 0.5915(2)
H46 H 0.3468 0.1079 0.5372
C63 C 0.3746(2) 0.06773(14) 0.6335(3)
H47 H 0.3733 0.0394 0.6079
C64 C 0.3916(2) 0.06834(14) 0.7120(3)
H48 H 0.4015 0.0405 0.7402
C65 C 0.3941(2) 0.10931(15) 0.7493(3)
H49 H 0.4056 0.1096 0.8034
C66 C 0.3801(2) 0.15016(13) 0.7092(2)
H50 H 0.3822 0.1784 0.7353
Cu3 Cu 0.294813(18) -0.261357(12) 0.44604(2)
N5 N 0.37169(14) -0.29811(10) 0.50105(16)
H51 H 0.3863(19) -0.3146(12) 0.479(2)
S5 S 0.41067(4) -0.29565(3) 0.59106(5)
C67 C 0.41562(18) -0.35208(14) 0.6310(2)
C68 C 0.3983(2) -0.39065(14) 0.5855(3)
H52 H 0.3826 -0.3881 0.5312
C69 C 0.4043(3) -0.43354(18) 0.6204(4)
H53 H 0.3933 -0.4605 0.5898
C70 C 0.4260(3) -0.4368(3) 0.6987(5)
H54 H 0.4300 -0.4661 0.7221
C71 C 0.4419(3) -0.3985(3) 0.7432(4)
H55 H 0.4566 -0.4014 0.7974
C72 C 0.4369(2) -0.3551(2) 0.7104(3)
H56 H 0.4478 -0.3283 0.7414
C73 C 0.49716(17) -0.28652(12) 0.60787(19)
C74 C 0.52934(18) -0.31022(13) 0.5669(2)
H57 H 0.5062 -0.3327 0.5303
C75 C 0.59550(19) -0.30087(14) 0.5795(2)
H58 H 0.6181 -0.3172 0.5520
C76 C 0.6290(2) -0.26784(14) 0.6320(2)
H59 H 0.6744 -0.2614 0.6404
C77 C 0.5961(2) -0.24394(14) 0.6726(2)
H60 H 0.6192 -0.2212 0.7087
C78 C 0.52963(18) -0.25329(13) 0.6605(2)
H61 H 0.5069 -0.2371 0.6881
N6 N 0.20582(15) -0.23756(11) 0.38965(16)
H62 H 0.189(2) -0.2424(14) 0.3459(14)
S6 S 0.16292(4) -0.20460(3) 0.42240(5)
C79 C 0.14141(17) -0.15378(12) 0.3649(2)
C80 C 0.14628(18) -0.11237(13) 0.4025(2)
H63 H 0.1591 -0.1114 0.4567
C81 C 0.1322(2) -0.07208(14) 0.3598(3)
H64 H 0.1348 -0.0434 0.3849
C82 C 0.1144(2) -0.07352(14) 0.2811(3)
H65 H 0.1052 -0.0459 0.2523
C83 C 0.10997(19) -0.11506(14) 0.2442(2)
H66 H 0.0978 -0.1159 0.1901
C84 C 0.12306(18) -0.15560(13) 0.2855(2)
H67 H 0.1196 -0.1842 0.2600
C85 C 0.08186(18) -0.22955(13) 0.4012(2)
C86 C 0.0392(2) -0.20806(15) 0.4327(2)
H68 H 0.0525 -0.1809 0.4622
C87 C -0.0227(2) -0.22712(19) 0.4201(3)
H69 H -0.0521 -0.2128 0.4411
C88 C -0.0423(2) -0.26664(19) 0.3776(3)
H70 H -0.0850 -0.2794 0.3691
C89 C 0.0008(2) -0.28763(17) 0.3474(3)
H71 H -0.0127 -0.3148 0.3178
C90 C 0.0637(2) -0.26943(15) 0.3598(2)
H72 H 0.0935 -0.2843 0.3400
Cu2A Cu 0.209105(18) 0.241933(13) 0.04174(2)
Cu3A Cu 0.294813(18) -0.238643(12) 0.94604(2)
O5A O 0.20974(11) 0.28882(8) 0.63340(12)
O12A O 0.29438(11) -0.28666(7) 0.35028(12)
N7 N 0.0882(4) 0.12820(15) 0.0726(3)
S7 S 0.06364(8) 0.08168(5) 0.06537(8)
C91 C 0.0567(2) 0.06414(16) 0.1540(2)
C92 C 0.0036(2) 0.03777(16) 0.1528(3)
H73 H -0.0284 0.0281 0.1055
C93 C -0.0030(3) 0.02534(16) 0.2219(3)
H74 H -0.0398 0.0073 0.2220
C94 C 0.0437(3) 0.03904(17) 0.2893(3)
H75 H 0.0390 0.0310 0.3365
C95 C 0.0966(3) 0.0641(2) 0.2893(3)
H76 H 0.1301 0.0724 0.3365
C96 C 0.1023(3) 0.0780(2) 0.2208(3)
H77 H 0.1383 0.0971 0.2210
C97 C 0.1284(2) 0.04503(14) 0.0610(2)
C98 C 0.1145(3) -0.00101(18) 0.0457(3)
H78 H 0.0721 -0.0129 0.0410
C99 C 0.1624(4) -0.0292(2) 0.0372(4)
H79 H 0.1534 -0.0610 0.0284
C100 C 0.2217(4) -0.0128(3) 0.0410(4)
H80 H 0.2535 -0.0327 0.0326
C101 C 0.2370(3) 0.0326(3) 0.0570(4)
H81 H 0.2798 0.0439 0.0612
C102 C 0.1895(3) 0.0625(2) 0.0671(3)
H82 H 0.1994 0.0941 0.0779
N9 N 0.4499(3) -0.3856(2) 0.4370(4)
S8 S 0.41090(10) -0.40855(6) 0.36312(11)
C103 C 0.4734(3) -0.42419(16) 0.3241(3)
C104 C 0.5409(3) -0.41584(19) 0.3514(3)
H83 H 0.5621 -0.4063 0.4031
C105 C 0.5775(3) -0.4211(2) 0.3059(4)
H84 H 0.6239 -0.4145 0.3252
C106 C 0.5487(4) -0.4352(2) 0.2349(4)
H85 H 0.5754 -0.4396 0.2043
C107 C 0.4823(4) -0.44393(19) 0.2032(3)
H86 H 0.4632 -0.4540 0.1515
C108 C 0.4422(3) -0.43784(18) 0.2484(4)
H87 H 0.3954 -0.4429 0.2277
C109 C 0.3963(3) -0.46605(15) 0.3956(3)
C110 C 0.3318(3) -0.46714(19) 0.3919(3)
H88 H 0.3048 -0.4404 0.3805
C111 C 0.3066(3) -0.5095(3) 0.4057(3)
H89 H 0.2613 -0.5123 0.4014
C112 C 0.3486(5) -0.5471(2) 0.4255(3)
H90 H 0.3324 -0.5755 0.4369
C113 C 0.4116(4) -0.5440(2) 0.4288(3)
H91 H 0.4396 -0.5702 0.4421
C114 C 0.4359(3) -0.50409(18) 0.4137(3)
H92 H 0.4807 -0.5024 0.4155
O13 O 0.28951(15) 0.15080(10) -0.01370(16)
H93 H 0.268(2) 0.1713(13) -0.039(2)
H94 H 0.287(2) 0.1531(16) 0.0280(16)
O14 O 0.21652(16) -0.34636(10) 0.49939(16)
H95 H 0.228(2) -0.3469(16) 0.463(2)
H96 H 0.235(2) -0.3250(12) 0.525(2)
O15 O 0.08898(18) -0.37752(13) 0.4279(2)
O16 O 0.11618(19) -0.38606(14) 0.2868(2)
O17 O -0.1387(3) 0.02163(15) 0.2653(4)
H97 H -0.162(4) 0.023(3) 0.291(4)
H98 H -0.130(4) 0.0473(12) 0.256(5)
N8? N 0.0058(4) 0.0801(3) 0.0057(5)
N10? N 0.4107(5) -0.3740(3) 0.4019(5)
S9? S 0.45464(12) -0.41686(9) 0.41813(15)
loop_
_geom_bond_atom_site_label_1
_geom_bond_atom_site_label_2
_geom_bond_site_symmetry_1
_geom_bond_site_symmetry_2
Cu1 N1 1_555 1_555
N1 H1 1_555 1_555
S1 N1 1_555 1_555
C1 S1 1_555 1_555
C2 C1 1_555 1_555
H2 C2 1_555 1_555
C3 C2 1_555 1_555
H3 C3 1_555 1_555
C4 C3 1_555 1_555
H4 C4 1_555 1_555
C5 C4 1_555 1_555
H5 C5 1_555 1_555
C6 C1 1_555 1_555
H6 C6 1_555 1_555
C7 S1 1_555 1_555
C8 C7 1_555 1_555
H7 C8 1_555 1_555
C9 C8 1_555 1_555
H8 C9 1_555 1_555
C10 C9 1_555 1_555
H9 C10 1_555 1_555
C11 C10 1_555 1_555
H10 C11 1_555 1_555
C12 C7 1_555 1_555
H11 C12 1_555 1_555
N2 Cu1 1_555 1_555
H12 N2 1_555 1_555
S2 N2 1_555 1_555
C13 S2 1_555 1_555
C14 C13 1_555 1_555
H13 C14 1_555 1_555
C15 C14 1_555 1_555
H14 C15 1_555 1_555
C16 C15 1_555 1_555
H15 C16 1_555 1_555
C17 C16 1_555 1_555
H16 C17 1_555 1_555
C18 C13 1_555 1_555
H17 C18 1_555 1_555
C19 S2 1_555 1_555
C20 C19 1_555 1_555
H18 C20 1_555 1_555
C21 C20 1_555 1_555
H19 C21 1_555 1_555
C22 C21 1_555 1_555
H20 C22 1_555 1_555
C23 C22 1_555 1_555
H21 C23 1_555 1_555
C24 C19 1_555 1_555
H22 C24 1_555 1_555
C25 C26 1_555 1_555
C26 H23 1_555 1_555
C27 C26 1_555 1_555
C28 C27 1_555 1_555
H24 C28 1_555 1_555
C29 C28 1_555 1_555
C30 C25 1_555 1_555
H25 C30 1_555 1_555
C31 C25 1_555 1_555
O1 Cu1 1_555 1_555
O2 C31 1_555 1_555
C32 C27 1_555 1_555
O3 C32 1_555 1_555
O4 C32 1_555 1_555
C33 C29 1_555 1_555
O5 C33 1_555 1_555
O6 C33 1_555 1_555
C34 C35 1_555 1_555
C35 H26 1_555 1_555
C36 C35 1_555 1_555
C37 C36 1_555 1_555
H27 C37 1_555 1_555
C38 C37 1_555 1_555
C39 C34 1_555 1_555
H28 C39 1_555 1_555
C40 C34 1_555 1_555
O7 Cu1 1_555 1_555
O8 C40 1_555 1_555
C41 C36 1_555 1_555
O9 C41 1_555 1_555
O10 C41 1_555 1_555
C42 C38 1_555 1_555
O11 C42 1_555 1_555
O12 C42 1_555 1_555
Cu2 O3 1_555 1_555
N3 Cu2 1_555 1_555
H29 N3 1_555 1_555
S3 N3 1_555 1_555
C43 S3 1_555 1_555
C44 C43 1_555 1_555
H30 C44 1_555 1_555
C45 C44 1_555 1_555
H31 C45 1_555 1_555
C46 C45 1_555 1_555
H32 C46 1_555 1_555
C47 C46 1_555 1_555
H33 C47 1_555 1_555
C48 C43 1_555 1_555
H34 C48 1_555 1_555
C49 S3 1_555 1_555
C50 C49 1_555 1_555
H35 C50 1_555 1_555
C51 C50 1_555 1_555
H36 C51 1_555 1_555
C52 C51 1_555 1_555
H37 C52 1_555 1_555
C53 C52 1_555 1_555
H38 C53 1_555 1_555
C54 C49 1_555 1_555
H39 C54 1_555 1_555
N4 Cu2 1_555 1_555
H40 N4 1_555 1_555
S4 N4 1_555 1_555
C55 S4 1_555 1_555
C56 C55 1_555 1_555
H41 C56 1_555 1_555
C57 C56 1_555 1_555
H42 C57 1_555 1_555
C58 C57 1_555 1_555
H43 C58 1_555 1_555
C59 C58 1_555 1_555
H44 C59 1_555 1_555
C60 C55 1_555 1_555
H45 C60 1_555 1_555
C61 S4 1_555 1_555
C62 C61 1_555 1_555
H46 C62 1_555 1_555
C63 C62 1_555 1_555
H47 C63 1_555 1_555
C64 C63 1_555 1_555
H48 C64 1_555 1_555
C65 C64 1_555 1_555
H49 C65 1_555 1_555
C66 C61 1_555 1_555
H50 C66 1_555 1_555
Cu3 O9 1_555 1_555
N5 Cu3 1_555 1_555
H51 N5 1_555 1_555
S5 N5 1_555 1_555
C67 S5 1_555 1_555
C68 C67 1_555 1_555
H52 C68 1_555 1_555
C69 C68 1_555 1_555
H53 C69 1_555 1_555
C70 C69 1_555 1_555
H54 C70 1_555 1_555
C71 C70 1_555 1_555
H55 C71 1_555 1_555
C72 C67 1_555 1_555
H56 C72 1_555 1_555
C73 S5 1_555 1_555
C74 C73 1_555 1_555
H57 C74 1_555 1_555
C75 C74 1_555 1_555
H58 C75 1_555 1_555
C76 C75 1_555 1_555
H59 C76 1_555 1_555
C77 C76 1_555 1_555
H60 C77 1_555 1_555
C78 C73 1_555 1_555
H61 C78 1_555 1_555
N6 Cu3 1_555 1_555
H62 N6 1_555 1_555
S6 N6 1_555 1_555
C79 S6 1_555 1_555
C80 C79 1_555 1_555
H63 C80 1_555 1_555
C81 C80 1_555 1_555
H64 C81 1_555 1_555
C82 C81 1_555 1_555
H65 C82 1_555 1_555
C83 C82 1_555 1_555
H66 C83 1_555 1_555
C84 C79 1_555 1_555
H67 C84 1_555 1_555
C85 S6 1_555 1_555
C86 C85 1_555 1_555
H68 C86 1_555 1_555
C87 C86 1_555 1_555
H69 C87 1_555 1_555
C88 C87 1_555 1_555
H70 C88 1_555 1_555
C89 C88 1_555 1_555
H71 C89 1_555 1_555
C90 C85 1_555 1_555
H72 C90 1_555 1_555
N7 S7 1_555 1_555
S7 C91 1_555 1_555
C91 C92 1_555 1_555
C92 H73 1_555 1_555
C93 C92 1_555 1_555
H74 C93 1_555 1_555
C94 C93 1_555 1_555
H75 C94 1_555 1_555
C95 C94 1_555 1_555
H76 C95 1_555 1_555
C96 C91 1_555 1_555
H77 C96 1_555 1_555
C97 S7 1_555 1_555
C98 C97 1_555 1_555
H78 C98 1_555 1_555
C99 C98 1_555 1_555
H79 C99 1_555 1_555
C100 C99 1_555 1_555
H80 C100 1_555 1_555
C101 C100 1_555 1_555
H81 C101 1_555 1_555
C102 C97 1_555 1_555
H82 C102 1_555 1_555
N9 S8 1_555 1_555
S8 C103 1_555 1_555
C103 C104 1_555 1_555
C104 H83 1_555 1_555
C105 C104 1_555 1_555
H84 C105 1_555 1_555
C106 C105 1_555 1_555
H85 C106 1_555 1_555
C107 C106 1_555 1_555
H86 C107 1_555 1_555
C108 C103 1_555 1_555
H87 C108 1_555 1_555
C109 S8 1_555 1_555
C110 C109 1_555 1_555
H88 C110 1_555 1_555
C111 C110 1_555 1_555
H89 C111 1_555 1_555
C112 C111 1_555 1_555
H90 C112 1_555 1_555
C113 C112 1_555 1_555
H91 C113 1_555 1_555
C114 C109 1_555 1_555
H92 C114 1_555 1_555
O13 H93 1_555 1_555
H94 O13 1_555 1_555
O14 H95 1_555 1_555
H96 O14 1_555 1_555
O17 H97 1_555 1_555
H98 O17 1_555 1_555
Cu2A O5 1_555 1_555
Cu3A O12 1_555 1_555
O5A Cu2 1_555 1_555
O12A Cu3 1_555 1_555
C5 C6 1_555 1_555
C11 C12 1_555 1_555
C17 C18 1_555 1_555
C23 C24 1_555 1_555
C29 C30 1_555 1_555
C31 O1 1_555 1_555
C38 C39 1_555 1_555
C40 O7 1_555 1_555
C47 C48 1_555 1_555
C53 C54 1_555 1_555
C59 C60 1_555 1_555
C65 C66 1_555 1_555
C71 C72 1_555 1_555
C77 C78 1_555 1_555
C83 C84 1_555 1_555
C89 C90 1_555 1_555
C95 C96 1_555 1_555
C101 C102 1_555 1_555
C107 C108 1_555 1_555
C113 C114 1_555 1_555

#END
