
#######################################################################
#
#                 Cambridge Crystallographic Data Centre
#                                CCDC 
#
#######################################################################
#
# If this CIF has been generated from an entry in the Cambridge 
# Structural Database, then it will include bibliographic, chemical, 
# crystal, experimental, refinement or atomic coordinate data resulting 
# from the CCDC's data processing and validation procedures.
#
#######################################################################

data_WAJQON
_symmetry_cell_setting           monoclinic
_symmetry_space_group_name_H-M   'C 2/c'
_symmetry_Int_Tables_number      15
_space_group_name_Hall           '-C 2yn'
loop_
_symmetry_equiv_pos_site_id
_symmetry_equiv_pos_as_xyz
1 x,y,z
2 -x,y,1/2-z
3 1/2+x,1/2+y,z
4 1/2-x,1/2+y,1/2-z
5 -x,-y,-z
6 x,-y,1/2+z
7 1/2-x,1/2-y,-z
8 1/2+x,1/2-y,1/2+z
_cell_length_a                   20.457(4)
_cell_length_b                   11.292(2)
_cell_length_c                   8.409(2)
_cell_angle_alpha                90.00
_cell_angle_beta                 91.37(3)
_cell_angle_gamma                90.00
_cell_volume                     1941.93
loop_
_atom_site_label
_atom_site_type_symbol
_atom_site_fract_x
_atom_site_fract_y
_atom_site_fract_z
Pb1 Pb 0.5000 0.54227(5) 0.7500
S1 S 0.25894(15) 0.4819(3) 0.9377(3)
O1 O 0.4787(2) 0.3859(5) 0.5745(5)
O2 O 0.3865(3) 0.4889(5) 0.7927(6)
C1 C 0.3561(4) 0.3927(9) 0.7649(10)
C2 C 0.2899(4) 0.3784(9) 0.8172(9)
C3 C 0.4620(6) 0.1864(9) 0.5198(12)
C4 C 0.4405(4) 0.2998(7) 0.5995(9)
C5 C 0.3845(5) 0.2954(9) 0.6820(11)
C6 C 0.2396(5) 0.2979(13) 0.7798(13)
C7 C 0.1870(5) 0.4009(18) 0.936(2)
C8 C 0.1944(14) 0.312(3) 0.844(3)
F1 F 0.4398(4) 0.0905(5) 0.5770(9)
F2 F 0.5234(3) 0.1730(6) 0.5120(9)
F3 F 0.4436(4) 0.1846(6) 0.3695(8)
H1 H 0.359(3) 0.233(5) 0.675(7)
H2 H 0.255(3) 0.251(6) 0.736(8)
H3 H 0.169(3) 0.432(6) 0.983(7)
H4 H 0.172(5) 0.279(8) 0.852(12)
S1A S 0.74106(15) 0.4819(3) 0.5623(3)
O1A O 0.5213(2) 0.3859(5) 0.9255(5)
O2A O 0.6135(3) 0.4889(5) 0.7073(6)
C1A C 0.6439(4) 0.3927(9) 0.7351(10)
C2A C 0.7101(4) 0.3784(9) 0.6828(9)
C3A C 0.5380(6) 0.1864(9) 0.9802(12)
C4A C 0.5595(4) 0.2998(7) 0.9005(9)
C5A C 0.6155(5) 0.2954(9) 0.8180(11)
C6A C 0.7604(5) 0.2979(13) 0.7202(13)
C7A C 0.8130(5) 0.4009(18) 0.564(2)
C8A C 0.8056(14) 0.312(3) 0.656(3)
F1A F 0.5602(4) 0.0905(5) 0.9230(9)
F2A F 0.4766(3) 0.1730(6) 0.9880(9)
F3A F 0.5564(4) 0.1846(6) 1.1305(8)
H1A H 0.641(3) 0.233(5) 0.825(7)
H2A H 0.745(3) 0.251(6) 0.764(8)
H3A H 0.831(3) 0.432(6) 0.517(7)
H4A H 0.828(5) 0.279(8) 0.648(12)
Pb1D Pb 0.5000 0.45773(5) 0.2500
Pb1D_2 Pb 0.5000 0.45773(5) 1.2500
O1D O 0.5213(2) 0.6141(5) 0.4255(5)
O1E O 0.4787(2) 0.6141(5) 1.0745(5)
F3D F 0.5564(4) 0.8154(6) 0.6305(8)
F3E F 0.4436(4) 0.8154(6) 0.8695(8)
loop_
_geom_bond_atom_site_label_1
_geom_bond_atom_site_label_2
_geom_bond_site_symmetry_1
_geom_bond_site_symmetry_2
Pb1 O1 1_555 1_555
S1 C2 1_555 1_555
O1 C4 1_555 1_555
O2 Pb1 1_555 1_555
C1 O2 1_555 1_555
C2 C1 1_555 1_555
C3 C4 1_555 1_555
C4 C5 1_555 1_555
C5 C1 1_555 1_555
C6 C2 1_555 1_555
C7 S1 1_555 1_555
C8 C6 1_555 1_555
F1 C3 1_555 1_555
F2 C3 1_555 1_555
F3 C3 1_555 1_555
H1 C5 1_555 1_555
H2 C6 1_555 1_555
H3 C7 1_555 1_555
H4 C8 1_555 1_555
S1A C2A 1_555 1_555
O1A Pb1 1_555 1_555
O2A Pb1 1_555 1_555
C1A O2A 1_555 1_555
C2A C1A 1_555 1_555
C3A C4A 1_555 1_555
C4A O1A 1_555 1_555
C5A C1A 1_555 1_555
C6A C2A 1_555 1_555
C7A S1A 1_555 1_555
C8A C6A 1_555 1_555
F1A C3A 1_555 1_555
F2A C3A 1_555 1_555
F3A C3A 1_555 1_555
H1A C5A 1_555 1_555
H2A C6A 1_555 1_555
H3A C7A 1_555 1_555
H4A C8A 1_555 1_555
Pb1D O1 1_555 1_555
Pb1D_2 O1A 1_555 1_555
O1D Pb1 1_555 1_555
O1E Pb1 1_555 1_555
F3D Pb1 1_555 1_555
F3E Pb1 1_555 1_555
C7 C8 1_555 1_555
F3 Pb1D 1_555 1_555
C4A C5A 1_555 1_555
C7A C8A 1_555 1_555
F3A Pb1D_2 1_555 1_555
Pb1D O1D 1_555 1_555
Pb1D_2 O1E 1_555 1_555

#END
