
#######################################################################
#
#                 Cambridge Crystallographic Data Centre
#                                CCDC 
#
#######################################################################
#
# If this CIF has been generated from an entry in the Cambridge 
# Structural Database, then it will include bibliographic, chemical, 
# crystal, experimental, refinement or atomic coordinate data resulting 
# from the CCDC's data processing and validation procedures.
#
#######################################################################

data_WAJSOP
_symmetry_cell_setting           monoclinic
_symmetry_space_group_name_H-M   'P 21/n'
_symmetry_Int_Tables_number      14
_space_group_name_Hall           '-P 2yn'
loop_
_symmetry_equiv_pos_site_id
_symmetry_equiv_pos_as_xyz
1 x,y,z
2 1/2-x,1/2+y,1/2-z
3 -x,-y,-z
4 1/2+x,1/2-y,1/2+z
_cell_length_a                   8.020(3)
_cell_length_b                   14.856(3)
_cell_length_c                   9.096(3)
_cell_angle_alpha                90
_cell_angle_beta                 103.50(3)
_cell_angle_gamma                90
_cell_volume                     1053.8
loop_
_atom_site_label
_atom_site_type_symbol
_atom_site_fract_x
_atom_site_fract_y
_atom_site_fract_z
Zn1 Zn 0.1159(1) 0.1174(1) -0.1030(1)
Cl1 Cl -0.1367(2) 0.1311(1) -0.2620(1)
Cl2 Cl 0.2762(2) -0.0021(1) -0.1186(2)
O1 O -0.2448(4) 0.2738(2) 0.3734(4)
O2 O 0.0856(4) 0.1449(2) 0.1032(3)
N1 N 0.1398(5) 0.1511(3) 0.3564(4)
N2 N 0.0222(6) 0.3253(4) 0.3808(6)
C1 C 0.1891(5) 0.1382(3) 0.2282(5)
C2 C 0.3748(7) 0.1141(5) 0.2620(7)
C3 C 0.4348(8) 0.1256(5) 0.4307(7)
C4 C 0.2768(9) 0.1348(6) 0.4920(7)
C5 C -0.0366(6) 0.1648(3) 0.3623(6)
C6 C -0.0913(5) 0.2612(3) 0.3722(5)
H1 H 0.433(8) 0.144(4) 0.209(7)
H2 H 0.398(11) 0.051(7) 0.254(10)
H3 H 0.508(11) 0.080(6) 0.467(10)
H4 H 0.522(12) 0.168(6) 0.432(10)
H5 H 0.241(12) 0.085(7) 0.554(11)
H6 H 0.271(10) 0.184(6) 0.563(6)
H7 H -0.131(7) 0.136(4) 0.259(6)
H8 H -0.048(8) 0.132(4) 0.453(7)
H9 H -0.004(7) 0.367(4) 0.379(6)
H10 H 0.119(9) 0.315(5) 0.365(8)
O1C O 0.2552(4) 0.2262(2) -0.1266(4)
Zn1C Zn -0.3841(1) 0.3826(1) 0.3970(1)
loop_
_geom_bond_atom_site_label_1
_geom_bond_atom_site_label_2
_geom_bond_site_symmetry_1
_geom_bond_site_symmetry_2
Zn1 Cl1 1_555 1_555
Cl2 Zn1 1_555 1_555
O1 C6 1_555 1_555
O2 Zn1 1_555 1_555
N1 C1 1_555 1_555
N2 C6 1_555 1_555
C1 O2 1_555 1_555
C2 C1 1_555 1_555
C3 C2 1_555 1_555
C4 N1 1_555 1_555
C5 N1 1_555 1_555
C6 C5 1_555 1_555
H1 C2 1_555 1_555
H2 C2 1_555 1_555
H3 C3 1_555 1_555
H4 C3 1_555 1_555
H5 C4 1_555 1_555
H6 C4 1_555 1_555
H7 C5 1_555 1_555
H8 C5 1_555 1_555
H9 N2 1_555 1_555
H10 N2 1_555 1_555
O1C Zn1 1_555 1_555
Zn1C O1 1_555 1_555
C3 C4 1_555 1_555

#END
