
#######################################################################
#
#                 Cambridge Crystallographic Data Centre
#                                CCDC 
#
#######################################################################
#
# If this CIF has been generated from an entry in the Cambridge 
# Structural Database, then it will include bibliographic, chemical, 
# crystal, experimental, refinement or atomic coordinate data resulting 
# from the CCDC's data processing and validation procedures.
#
#######################################################################

data_WAKLAW01
_symmetry_cell_setting           monoclinic
_symmetry_space_group_name_H-M   'P 21/a'
_symmetry_Int_Tables_number      14
_space_group_name_Hall           '-P 2yab'
loop_
_symmetry_equiv_pos_site_id
_symmetry_equiv_pos_as_xyz
1 x,y,z
2 1/2-x,1/2+y,-z
3 -x,-y,-z
4 1/2+x,1/2-y,z
_cell_length_a                   11.9906(2)
_cell_length_b                   17.3689(2)
_cell_length_c                   16.96100(10)
_cell_angle_alpha                90
_cell_angle_beta                 101.9820(14)
_cell_angle_gamma                90
_cell_volume                     3455.4
loop_
_atom_site_label
_atom_site_type_symbol
_atom_site_fract_x
_atom_site_fract_y
_atom_site_fract_z
Ag1 Ag 0.8256(1) 0.2208(1) 0.9652(1)
Ag2 Ag 0.9863(1) 0.2941(1) 0.6338(1)
Ag3 Ag 0.6502(1) 0.2526(1) 1.2990(1)
O1 O 0.9410(7) 0.0980(4) 1.0126(5)
N1 N 0.6834(7) 0.1818(5) 1.0366(5)
N2 N 0.4820(7) 0.2032(5) 1.0356(5)
N3 N 0.6190(7) 0.1959(5) 1.1641(5)
N4 N 0.5686(8) 0.0804(5) 1.0811(5)
C1 C 0.5760(9) 0.2185(6) 0.9963(7)
C2 C 0.6618(10) 0.0983(6) 1.0399(7)
C3 C 0.5130(9) 0.2329(6) 1.1177(6)
C4 C 0.4660(9) 0.1196(6) 1.0392(6)
C5 C 0.7103(9) 0.2107(7) 1.1198(7)
C6 C 0.6001(9) 0.1127(6) 1.1624(7)
N5 N 0.8147(7) 0.1869(5) 0.8276(5)
N6 N 0.8787(7) 0.2110(5) 0.7012(5)
N7 N 0.8231(8) 0.0812(5) 0.7338(6)
N8 N 0.6762(7) 0.1805(5) 0.6981(5)
C7 C 0.8912(9) 0.2305(6) 0.7866(6)
C8 C 0.8371(10) 0.1040(6) 0.8184(6)
C9 C 0.7062(10) 0.0983(6) 0.6930(7)
C10 C 0.7578(8) 0.2243(6) 0.6609(6)
C11 C 0.6958(9) 0.2019(6) 0.7842(7)
C12 C 0.9003(10) 0.1268(6) 0.6960(7)
N9 N 0.9615(7) 0.3212(5) 0.4961(5)
N10 N 1.0223(8) 0.3156(5) 0.3659(5)
N11 N 0.9241(7) 0.4298(5) 0.4032(5)
N12 N 0.8187(7) 0.3106(5) 0.3690(5)
C13 C 1.0490(9) 0.2948(6) 0.4527(6)
C14 C 0.8473(9) 0.2883(6) 0.4540(6)
C15 C 0.9086(8) 0.2846(7) 0.3281(7)
C16 C 0.9525(10) 0.4065(6) 0.4866(7)
C17 C 1.0127(9) 0.4017(6) 0.3627(7)
C18 C 0.8149(9) 0.3958(6) 0.3655(7)
O6 O 0.6484(7) 0.4510(5) 0.9803(5)
O7 O 0.7161(7) 0.3475(5) 0.9296(5)
O8 O 0.8880(7) 0.4001(5) 0.6890(5)
O9 O 0.7480(7) 0.4281(6) 0.5823(5)
O10 O 0.4610(7) 0.6222(5) 0.6410(5)
O11 O 0.4340(7) 0.6291(5) 0.7657(5)
C19 C 0.6656(9) 0.4521(6) 0.8427(6)
C20 C 0.7318(9) 0.4270(6) 0.7902(6)
C21 C 0.7183(9) 0.4564(6) 0.7121(6)
C22 C 0.6338(9) 0.5112(6) 0.6875(6)
C23 C 0.5694(9) 0.5394(6) 0.7397(6)
C24 C 0.5843(9) 0.5094(6) 0.8166(6)
C25 C 0.6778(9) 0.4137(6) 0.9242(7)
C26 C 0.7916(10) 0.4274(6) 0.6581(8)
C27 C 0.4814(9) 0.6014(6) 0.7135(6)
H1 H 0.5877 0.2737 0.9948
H2 H 0.5560 0.2003 0.9411
H3 H 0.6430 0.0781 0.9854
H4 H 0.7308 0.0729 1.0678
H5 H 0.4509 0.2236 1.1451
H6 H 0.5246 0.2881 1.1159
H7 H 0.4043 0.1090 1.0667
H8 H 0.4443 0.0995 0.9848
H9 H 0.7238 0.2657 1.1188
H10 H 0.7800 0.1865 1.1482
H11 H 0.5402 0.1012 1.1911
H12 H 0.6691 0.0876 1.1907
H13 H 0.8763 0.2850 0.7912
H14 H 0.9694 0.2209 0.8139
H15 H 0.9142 0.0922 0.8464
H16 H 0.7852 0.0741 0.8432
H17 H 0.6544 0.0673 0.7167
H18 H 0.6962 0.0838 0.6367
H19 H 0.7410 0.2788 0.6631
H20 H 0.7475 0.2098 0.6046
H21 H 0.6438 0.1730 0.8098
H22 H 0.6790 0.2562 0.7885
H23 H 0.8905 0.1121 0.6398
H24 H 0.9784 0.1157 0.7223
H25 H 1.1218 0.3173 0.4777
H26 H 1.0563 0.2393 0.4577
H27 H 0.7883 0.3065 0.4808
H28 H 0.8499 0.2326 0.4580
H29 H 0.9117 0.2288 0.3292
H30 H 0.8896 0.3006 0.2721
H31 H 1.0245 0.4297 0.5121
H32 H 0.8945 0.4254 0.5139
H33 H 0.9953 0.4182 0.3069
H34 H 1.0854 0.4242 0.3882
H35 H 0.7565 0.4143 0.3928
H36 H 0.7946 0.4122 0.3097
H37 H 0.7868 0.3894 0.8072
H38 H 0.6203 0.5293 0.6347
H39 H 0.5397 0.5274 0.8515
Ag1C Ag 0.3256(1) 0.2792(1) 0.9652(1)
Ag2C Ag 0.4863(1) 0.2059(1) 0.6338(1)
Ag3C Ag 1.1502(1) 0.2474(1) 0.2990(1)
Ag3_2 Ag 0.6502(1) 0.2526(1) 0.2990(1)
Ag3B Ag 0.3498(1) 0.7474(1) 0.7010(1)
N2C N 0.9820(7) 0.2968(5) 1.0356(5)
N8C N 1.1762(7) 0.3195(5) 0.6981(5)
N10C N 0.5223(8) 0.1844(5) 1.3659(5)
N12_2 N 0.8187(7) 0.3106(5) 1.3690(5)
O11B O 0.5660(7) 0.3709(5) 1.2343(5)
O2 O -0.2389(8) -0.0941(6) 0.8538(6)
O3 O -0.0157(8) -0.1074(6) 0.4847(6)
O4 O 0.5166(8) 0.0659(5) 0.8406(6)
O5 O 0.2152(8) -0.0730(6) 0.5000(6)
loop_
_geom_bond_atom_site_label_1
_geom_bond_atom_site_label_2
_geom_bond_site_symmetry_1
_geom_bond_site_symmetry_2
Ag1 O1 1_555 1_555
Ag2 N6 1_555 1_555
Ag3 N3 1_555 1_555
N1 Ag1 1_555 1_555
N2 C1 1_555 1_555
N3 C3 1_555 1_555
N4 C2 1_555 1_555
C1 N1 1_555 1_555
C2 N1 1_555 1_555
C3 N2 1_555 1_555
C4 N2 1_555 1_555
C5 N1 1_555 1_555
C6 N3 1_555 1_555
N5 Ag1 1_555 1_555
N6 C7 1_555 1_555
N7 C8 1_555 1_555
N8 C9 1_555 1_555
C7 N5 1_555 1_555
C8 N5 1_555 1_555
C9 N7 1_555 1_555
C10 N6 1_555 1_555
C11 N5 1_555 1_555
C12 N6 1_555 1_555
N9 Ag2 1_555 1_555
N10 C13 1_555 1_555
N11 C16 1_555 1_555
N12 C14 1_555 1_555
C13 N9 1_555 1_555
C14 N9 1_555 1_555
C15 N10 1_555 1_555
C16 N9 1_555 1_555
C17 N10 1_555 1_555
C18 N11 1_555 1_555
O6 C25 1_555 1_555
O7 Ag1 1_555 1_555
O8 Ag2 1_555 1_555
O9 C26 1_555 1_555
O10 C27 1_555 1_555
O11 C27 1_555 1_555
C19 C20 1_555 1_555
C20 C21 1_555 1_555
C21 C22 1_555 1_555
C22 C23 1_555 1_555
C23 C24 1_555 1_555
C24 C19 1_555 1_555
C25 O7 1_555 1_555
C26 O8 1_555 1_555
C27 C23 1_555 1_555
H1 C1 1_555 1_555
H2 C1 1_555 1_555
H3 C2 1_555 1_555
H4 C2 1_555 1_555
H5 C3 1_555 1_555
H6 C3 1_555 1_555
H7 C4 1_555 1_555
H8 C4 1_555 1_555
H9 C5 1_555 1_555
H10 C5 1_555 1_555
H11 C6 1_555 1_555
H12 C6 1_555 1_555
H13 C7 1_555 1_555
H14 C7 1_555 1_555
H15 C8 1_555 1_555
H16 C8 1_555 1_555
H17 C9 1_555 1_555
H18 C9 1_555 1_555
H19 C10 1_555 1_555
H20 C10 1_555 1_555
H21 C11 1_555 1_555
H22 C11 1_555 1_555
H23 C12 1_555 1_555
H24 C12 1_555 1_555
H25 C13 1_555 1_555
H26 C13 1_555 1_555
H27 C14 1_555 1_555
H28 C14 1_555 1_555
H29 C15 1_555 1_555
H30 C15 1_555 1_555
H31 C16 1_555 1_555
H32 C16 1_555 1_555
H33 C17 1_555 1_555
H34 C17 1_555 1_555
H35 C18 1_555 1_555
H36 C18 1_555 1_555
H37 C20 1_555 1_555
H38 C22 1_555 1_555
H39 C24 1_555 1_555
Ag1C N2 1_555 1_555
Ag2C N8 1_555 1_555
Ag3C N10 1_555 1_555
Ag3_2 N12 1_555 1_555
Ag3B O11 1_555 1_555
N2C Ag1 1_555 1_555
N8C Ag2 1_555 1_555
N10C Ag3 1_555 1_555
N12_2 Ag3 1_555 1_555
O11B Ag3 1_555 1_555
N3 C5 1_555 1_555
N4 C4 1_555 1_555
N4 C6 1_555 1_555
N7 C12 1_555 1_555
N8 C10 1_555 1_555
N8 C11 1_555 1_555
N11 C17 1_555 1_555
N12 C15 1_555 1_555
N12 C18 1_555 1_555
C19 C25 1_555 1_555
C21 C26 1_555 1_555

#END
