
#######################################################################
#
#                 Cambridge Crystallographic Data Centre
#                                CCDC 
#
#######################################################################
#
# If this CIF has been generated from an entry in the Cambridge 
# Structural Database, then it will include bibliographic, chemical, 
# crystal, experimental, refinement or atomic coordinate data resulting 
# from the CCDC's data processing and validation procedures.
#
#######################################################################

data_WAKWOU
_symmetry_cell_setting           monoclinic
_symmetry_space_group_name_H-M   'P 21/c'
_symmetry_Int_Tables_number      14
_space_group_name_Hall           '-P 2ybc'
loop_
_symmetry_equiv_pos_site_id
_symmetry_equiv_pos_as_xyz
1 x,y,z
2 -x,1/2+y,1/2-z
3 -x,-y,-z
4 x,1/2-y,1/2+z
_cell_length_a                   10.790(6)
_cell_length_b                   13.274(6)
_cell_length_c                   5.952(5)
_cell_angle_alpha                90
_cell_angle_beta                 92.71(2)
_cell_angle_gamma                90
_cell_volume                     851.531
loop_
_atom_site_label
_atom_site_type_symbol
_atom_site_fract_x
_atom_site_fract_y
_atom_site_fract_z
Cu1 Cu -0.1945(1) 0.2715(1) -0.8491(2)
Cu2 Cu -0.5007(1) 0.3036(2) -0.4682(3)
Cl1 Cl -0.0818(2) 0.1585(1) -0.6199(3)
Cl2 Cl -0.5814(2) 0.3361(2) -0.1400(3)
S1 S -0.3322(2) 0.3515(1) -0.6317(3)
S2 S -0.1447(2) 0.5133(1) -0.6394(3)
S3 S -0.3350(2) 0.5216(1) -0.3081(3)
C1 C -0.2715(5) 0.4609(5) -0.5301(12)
C2 C -0.1484(7) 0.6283(5) -0.4765(14)
C3 C -0.2026(6) 0.6035(6) -0.2533(13)
H1 H -0.2053 0.6840 -0.5642
H2 H -0.0554 0.6572 -0.4488
H3 H -0.1341 0.5651 -0.1465
H4 H -0.2316 0.6716 -0.1713
Cl1C Cl -0.0818(2) 0.3415(1) -1.1199(3)
S1C S -0.3322(2) 0.1485(1) -1.1317(3)
Cu1C Cu -0.1945(1) 0.2285(1) -0.3491(2)
Cl2C Cl -0.5814(2) 0.1639(2) -0.6400(3)
Cu2C Cu -0.5007(1) 0.1964(2) 0.0318(3)
loop_
_geom_bond_atom_site_label_1
_geom_bond_atom_site_label_2
_geom_bond_site_symmetry_1
_geom_bond_site_symmetry_2
Cu1 Cl1 1_555 1_555
Cu2 Cl2 1_555 1_555
Cl1 Cu1C 1_555 1_555
Cl2 Cu2C 1_555 1_555
S1 Cu1 1_555 1_555
S2 C1 1_555 1_555
S3 C1 1_555 1_555
C1 S1 1_555 1_555
C2 S2 1_555 1_555
C3 S3 1_555 1_555
H1 C2 1_555 1_555
H2 C2 1_555 1_555
H3 C3 1_555 1_555
H4 C3 1_555 1_555
Cl1C Cu1 1_555 1_555
S1C Cu1 1_555 1_555
Cu1C S1 1_555 1_555
Cl2C Cu2 1_555 1_555
Cu2 S1 1_555 1_555
C2 C3 1_555 1_555

#END
