
#######################################################################
#
#                 Cambridge Crystallographic Data Centre
#                                CCDC 
#
#######################################################################
#
# If this CIF has been generated from an entry in the Cambridge 
# Structural Database, then it will include bibliographic, chemical, 
# crystal, experimental, refinement or atomic coordinate data resulting 
# from the CCDC's data processing and validation procedures.
#
#######################################################################

data_WAKZIS
_symmetry_cell_setting           monoclinic
_symmetry_space_group_name_H-M   'P 21/c'
_symmetry_Int_Tables_number      14
_space_group_name_Hall           '-P 2ybc'
loop_
_symmetry_equiv_pos_site_id
_symmetry_equiv_pos_as_xyz
1 x,y,z
2 -x,1/2+y,1/2-z
3 -x,-y,-z
4 x,1/2-y,1/2+z
_cell_length_a                   11.790(2)
_cell_length_b                   10.743(2)
_cell_length_c                   17.381(4)
_cell_angle_alpha                90
_cell_angle_beta                 91.80(3)
_cell_angle_gamma                90
_cell_volume                     2200.39
loop_
_atom_site_label
_atom_site_type_symbol
_atom_site_fract_x
_atom_site_fract_y
_atom_site_fract_z
Tb1 Tb 0.53363(6) 0.95892(4) 0.17651(3)
C1 C 0.5923(11) 0.9671(10) 0.3376(7)
C2 C 0.6259(11) 0.9670(10) 0.4202(7)
C3 C 0.6778(14) 1.0678(12) 0.4550(7)
H1 H 0.6941 1.1374 0.4256
C4 C 0.7064(14) 1.0683(13) 0.5327(8)
H2 H 0.7410 1.1377 0.5552
C5 C 0.6831(12) 0.9653(11) 0.5763(8)
H3 H 0.7017 0.9649 0.6287
C6 C 0.6322(11) 0.8627(11) 0.5427(6)
C7 C 0.6028(11) 0.8624(10) 0.4654(6)
H4 H 0.5676 0.7931 0.4432
C8 C 0.6029(10) 0.7524(10) 0.5891(6)
C9 C 0.7988(13) 1.0540(13) 0.2031(9)
C10 C 0.8674(15) 0.9991(14) 0.2666(9)
C11 C 0.8530(13) 0.8738(13) 0.2849(9)
H5 H 0.8028 0.8246 0.2559
C12 C 0.9141(15) 0.8232(17) 0.3466(11)
C13 C 0.9880(19) 0.8961(19) 0.3917(12)
H6 H 1.0276 0.8600 0.4331
C14 C 1.003(2) 1.020(2) 0.3763(15)
H7 H 1.0515 1.0694 0.4065
C15 C 0.9415(16) 1.0679(17) 0.3114(11)
H8 H 0.9520 1.1511 0.2987
C16 C 0.9020(16) 0.6871(18) 0.3596(13)
O1 O 0.5522(9) 0.8700(7) 0.3052(4)
O2 O 0.6043(8) 1.0637(8) 0.2981(5)
O3 O 0.5756(9) 0.6516(8) 0.5577(4)
O4 O 0.6076(9) 0.7562(8) 0.6622(5)
O5 O 0.7292(9) 0.9790(8) 0.1667(5)
O6 O 0.8102(11) 1.1636(10) 0.1847(7)
O7 O 0.9564(16) 0.6454(17) 0.4180(12)
O8 O 0.8452(14) 0.6217(12) 0.3200(11)
O9 O 0.4003(9) 1.0237(8) 0.0755(5)
O10 O 0.5722(9) 1.1725(8) 0.1433(5)
O11 O 0.3795(9) 0.8144(8) 0.1785(5)
O12 O 0.3815(9) 1.0670(9) 0.2318(5)
Tb1C Tb 0.53363(6) 0.54108(4) 0.67651(3)
O3C O 0.5756(9) 0.8484(8) 0.0577(4)
O4C O 0.6076(9) 0.7438(8) 0.1622(5)
O13 O 0.8373(12) 0.3653(12) 0.2754(9)
O14 O 0.9450(15) 0.3996(17) 0.4146(12)
O15 O 0.2404(16) 0.878(2) 0.9939(10)
O16 O 0.8477(16) 0.817(2) 0.0727(15)
loop_
_geom_bond_atom_site_label_1
_geom_bond_atom_site_label_2
_geom_bond_site_symmetry_1
_geom_bond_site_symmetry_2
Tb1 O1 1_555 1_555
C1 C2 1_555 1_555
C2 C3 1_555 1_555
C3 H1 1_555 1_555
C4 C3 1_555 1_555
H2 C4 1_555 1_555
C5 C4 1_555 1_555
H3 C5 1_555 1_555
C6 C5 1_555 1_555
C7 C2 1_555 1_555
H4 C7 1_555 1_555
C8 C6 1_555 1_555
C9 C10 1_555 1_555
C10 C11 1_555 1_555
C11 H5 1_555 1_555
C12 C11 1_555 1_555
C13 C12 1_555 1_555
H6 C13 1_555 1_555
C14 C13 1_555 1_555
H7 C14 1_555 1_555
C15 C10 1_555 1_555
H8 C15 1_555 1_555
C16 C12 1_555 1_555
O1 C1 1_555 1_555
O2 Tb1 1_555 1_555
O3 C8 1_555 1_555
O4 C8 1_555 1_555
O5 Tb1 1_555 1_555
O6 C9 1_555 1_555
O7 C16 1_555 1_555
O8 C16 1_555 1_555
O9 Tb1 1_555 1_555
O10 Tb1 1_555 1_555
O11 Tb1 1_555 1_555
O12 Tb1 1_555 1_555
Tb1C O3 1_555 1_555
O3C Tb1 1_555 1_555
O4C Tb1 1_555 1_555
C1 O2 1_555 1_555
C6 C7 1_555 1_555
C9 O5 1_555 1_555
C14 C15 1_555 1_555
O4 Tb1C 1_555 1_555

#END
