
#######################################################################
#
#                 Cambridge Crystallographic Data Centre
#                                CCDC 
#
#######################################################################
#
# If this CIF has been generated from an entry in the Cambridge 
# Structural Database, then it will include bibliographic, chemical, 
# crystal, experimental, refinement or atomic coordinate data resulting 
# from the CCDC's data processing and validation procedures.
#
#######################################################################

data_WALBOC02
_symmetry_cell_setting           orthorhombic
_symmetry_space_group_name_H-M   'P b c a'
_symmetry_Int_Tables_number      61
_space_group_name_Hall           '-P 2ac 2ab'
loop_
_symmetry_equiv_pos_site_id
_symmetry_equiv_pos_as_xyz
1 x,y,z
2 1/2-x,-y,1/2+z
3 -x,1/2+y,1/2-z
4 1/2+x,1/2-y,-z
5 -x,-y,-z
6 1/2+x,y,1/2-z
7 x,1/2-y,1/2+z
8 1/2-x,1/2+y,z
_cell_length_a                   13.7971(2)
_cell_length_b                   12.9591(2)
_cell_length_c                   16.8153(2)
_cell_angle_alpha                90
_cell_angle_beta                 90
_cell_angle_gamma                90
_cell_volume                     3006.54
loop_
_atom_site_label
_atom_site_type_symbol
_atom_site_fract_x
_atom_site_fract_y
_atom_site_fract_z
Zn1 Zn 0.02246(2) -0.42665(3) -0.40392(2)
Zn2 Zn 0.09286(2) -0.47660(3) -0.07610(2)
C1 C -0.0060(2) -0.4235(3) -0.22305(19)
C2 C 0.0909(2) -0.4724(3) -0.24642(19)
O1 O -0.05825(18) -0.3947(2) -0.27924(14)
O2 O 0.10947(18) -0.4825(2) -0.31869(14)
O3 O -0.02290(17) -0.4172(2) -0.14989(14)
O4 O 0.14516(16) -0.5025(2) -0.19171(13)
C3 C -0.0475(2) -0.2023(2) -0.41099(18)
C4 C 0.0805(2) -0.2221(2) -0.47818(18)
H1 H 0.1366 -0.2518 -0.5016
C5 C -0.2204(2) -0.5269(3) -0.51992(19)
C6 C -0.1880(2) -0.4716(3) -0.40569(18)
H2 H -0.1950 -0.4466 -0.3529
N1 N 0.02147(18) -0.2737(2) -0.42800(15)
N2 N 0.05283(17) -0.1271(2) -0.49140(14)
N3 N -0.03140(17) -0.1136(2) -0.44764(15)
N4 N -0.1256(2) -0.2210(2) -0.3639(2)
H3 H -0.1693 -0.1725 -0.3563
H4 H -0.1325 -0.2817 -0.3410
N5 N -0.12399(17) -0.5233(2) -0.51537(15)
N6 N -0.10408(17) -0.4867(2) -0.43960(15)
N7 N -0.26318(17) -0.4948(2) -0.45276(15)
N8 N -0.2696(2) -0.5637(3) -0.58371(18)
H5 H -0.2378 -0.5871 -0.6253
H6 H -0.3334 -0.5642 -0.5835
Zn1D Zn -0.02246(2) -0.57335(3) -0.59608(2)
Zn2F Zn 0.09286(2) -0.02340(3) -0.57610(2)
Zn2B Zn -0.09286(2) 0.02340(3) -0.42390(2)
Zn2E Zn -0.40714(2) -0.47660(3) -0.42390(2)
N2F N 0.05283(17) -0.3729(2) 0.00860(14)
N3B N 0.03140(17) -0.6136(2) -0.05236(15)
N5D N 0.12399(17) -0.4767(2) -0.48463(15)
N7E N 0.23682(17) -0.4948(2) -0.04724(15)
C7 C 0.1611(11) -0.7104(7) -0.3692(6)
O5 O 0.2143(7) -0.7211(6) -0.3145(5)
O6 O 0.1101(10) -0.7010(6) -0.4121(6)
C8 C 0.6162(12) -0.1835(10) -0.2785(12)
O7 O 0.5756(11) -0.1383(9) -0.2417(8)
O8 O 0.6547(8) -0.2375(10) -0.3248(8)
loop_
_geom_bond_atom_site_label_1
_geom_bond_atom_site_label_2
_geom_bond_site_symmetry_1
_geom_bond_site_symmetry_2
Zn1 O1 1_555 1_555
Zn2 O3 1_555 1_555
C1 C2 1_555 1_555
C2 O2 1_555 1_555
O1 C1 1_555 1_555
O2 Zn1 1_555 1_555
O3 C1 1_555 1_555
O4 Zn2 1_555 1_555
C3 N1 1_555 1_555
C4 H1 1_555 1_555
C5 N5 1_555 1_555
C6 H2 1_555 1_555
N1 Zn1 1_555 1_555
N2 C4 1_555 1_555
N3 C3 1_555 1_555
N4 C3 1_555 1_555
H3 N4 1_555 1_555
H4 N4 1_555 1_555
N5 N6 1_555 1_555
N6 Zn1 1_555 1_555
N7 C5 1_555 1_555
N8 C5 1_555 1_555
H5 N8 1_555 1_555
H6 N8 1_555 1_555
C7 O5 1_555 1_555
O6 C7 1_555 1_555
C8 O7 1_555 1_555
O8 C8 1_555 1_555
Zn1D N5 1_555 1_555
Zn2F N2 1_555 1_555
Zn2B N3 1_555 1_555
Zn2E N7 1_555 1_555
N2F Zn2 1_555 1_555
N3B Zn2 1_555 1_555
N5D Zn1 1_555 1_555
N7E Zn2 1_555 1_555
C2 O4 1_555 1_555
C4 N1 1_555 1_555
C6 N6 1_555 1_555
C6 N7 1_555 1_555
N2 N3 1_555 1_555

#END
