
#######################################################################
#
#                 Cambridge Crystallographic Data Centre
#                                CCDC 
#
#######################################################################
#
# If this CIF has been generated from an entry in the Cambridge 
# Structural Database, then it will include bibliographic, chemical, 
# crystal, experimental, refinement or atomic coordinate data resulting 
# from the CCDC's data processing and validation procedures.
#
#######################################################################

data_WALBOC
_symmetry_cell_setting           orthorhombic
_symmetry_space_group_name_H-M   'P b c a'
_symmetry_Int_Tables_number      61
_space_group_name_Hall           '-P 2ac 2ab'
loop_
_symmetry_equiv_pos_site_id
_symmetry_equiv_pos_as_xyz
1 x,y,z
2 1/2-x,-y,1/2+z
3 -x,1/2+y,1/2-z
4 1/2+x,1/2-y,-z
5 -x,-y,-z
6 1/2+x,y,1/2-z
7 x,1/2-y,1/2+z
8 1/2-x,1/2+y,z
_cell_length_a                   13.7961(2)
_cell_length_b                   12.9305(2)
_cell_length_c                   16.8295(2)
_cell_angle_alpha                90
_cell_angle_beta                 90
_cell_angle_gamma                90
_cell_volume                     3002.22
loop_
_atom_site_label
_atom_site_type_symbol
_atom_site_fract_x
_atom_site_fract_y
_atom_site_fract_z
Zn1 Zn 0.59270(4) 0.52431(5) 0.57610(4)
Zn2 Zn 0.52207(4) 0.57293(5) 0.90351(4)
C1 C 0.4938(3) 0.5769(4) 0.7228(3)
C2 C 0.5913(3) 0.5263(4) 0.7468(3)
O1 O 0.6089(3) 0.5156(3) 0.8185(2)
O2 O 0.4414(2) 0.6050(3) 0.7792(2)
O3 O 0.6457(2) 0.4981(3) 0.6910(2)
O4 O 0.4777(2) 0.5845(3) 0.6498(2)
C3 C 0.4525(4) 0.7016(4) 0.4102(3)
C4 C 0.5809(3) 0.7220(4) 0.4768(3)
H1 H 0.6374 0.7517 0.4996
C5 C 0.7788(3) 0.4724(4) 0.4791(3)
C6 C 0.8120(3) 0.5294(4) 0.5947(3)
H2 H 0.8050 0.5552 0.6472
N1 N 0.5215(3) 0.7744(3) 0.4265(2)
N2 N 0.5533(3) 0.6277(3) 0.4907(2)
N3 N 0.4683(3) 0.6136(3) 0.4472(2)
N4 N 0.3739(3) 0.7206(4) 0.3627(3)
H3 H 0.3299 0.6722 0.3554
H4 H 0.3673 0.7812 0.3395
N5 N 0.8960(3) 0.5129(3) 0.5604(2)
N6 N 0.8764(3) 0.4756(3) 0.4847(2)
N7 N 0.7368(3) 0.5058(3) 0.5472(2)
N8 N 0.7302(3) 0.4355(4) 0.4161(3)
H5 H 0.7621 0.4113 0.3748
H6 H 0.6664 0.4355 0.4160
Zn1D Zn 0.40730(4) 0.47569(5) 0.42390(4)
Zn2F Zn 0.52207(4) 0.92707(5) 0.40351(4)
Zn2E Zn 1.02207(4) 0.57293(5) 0.59649(4)
Zn2A Zn 0.97793(4) 0.42707(5) 0.40351(4)
N1F N 0.5215(3) 0.7256(3) 0.9265(2)
N3D N 0.5317(3) 0.3864(3) 0.5528(2)
N5E N 0.3960(3) 0.5129(3) 0.9396(2)
N6A N 0.6236(3) 0.5244(3) 0.9847(2)
C7 C 0.8923(15) 0.1884(14) 0.2093(14)
O5 O 0.8494(10) 0.2423(13) 0.1645(9)
O6 O 0.9338(13) 0.1438(14) 0.2523(10)
C8 C 0.6658(10) 0.2109(8) 0.3679(7)
O7 O 0.7163(6) 0.2220(6) 0.3122(4)
O8 O 0.6173(10) 0.2021(7) 0.4193(6)
loop_
_geom_bond_atom_site_label_1
_geom_bond_atom_site_label_2
_geom_bond_site_symmetry_1
_geom_bond_site_symmetry_2
Zn1 O3 1_555 1_555
Zn2 O1 1_555 1_555
C1 C2 1_555 1_555
C2 O1 1_555 1_555
O2 Zn2 1_555 1_555
O3 C2 1_555 1_555
O4 Zn1 1_555 1_555
C3 N1 1_555 1_555
C4 H1 1_555 1_555
C5 N6 1_555 1_555
C6 H2 1_555 1_555
N1 C4 1_555 1_555
N2 Zn1 1_555 1_555
N3 C3 1_555 1_555
N4 C3 1_555 1_555
H3 N4 1_555 1_555
H4 N4 1_555 1_555
N5 C6 1_555 1_555
N6 N5 1_555 1_555
N7 Zn1 1_555 1_555
N8 C5 1_555 1_555
H5 N8 1_555 1_555
H6 N8 1_555 1_555
C7 O5 1_555 1_555
O6 C7 1_555 1_555
C8 O7 1_555 1_555
O8 C8 1_555 1_555
Zn1D N3 1_555 1_555
Zn2F N1 1_555 1_555
Zn2E N5 1_555 1_555
Zn2A N6 1_555 1_555
N1F Zn2 1_555 1_555
N3D Zn1 1_555 1_555
N5E Zn2 1_555 1_555
N6A Zn2 1_555 1_555
C1 O2 1_555 1_555
C1 O4 1_555 1_555
C4 N2 1_555 1_555
C5 N7 1_555 1_555
C6 N7 1_555 1_555
N2 N3 1_555 1_555

#END
