
#######################################################################
#
#                 Cambridge Crystallographic Data Centre
#                                CCDC 
#
#######################################################################
#
# If this CIF has been generated from an entry in the Cambridge 
# Structural Database, then it will include bibliographic, chemical, 
# crystal, experimental, refinement or atomic coordinate data resulting 
# from the CCDC's data processing and validation procedures.
#
#######################################################################

data_WALBOC01
_symmetry_cell_setting           orthorhombic
_symmetry_space_group_name_H-M   'P b c a'
_symmetry_Int_Tables_number      61
_space_group_name_Hall           '-P 2ac 2ab'
loop_
_symmetry_equiv_pos_site_id
_symmetry_equiv_pos_as_xyz
1 x,y,z
2 1/2-x,-y,1/2+z
3 -x,1/2+y,1/2-z
4 1/2+x,1/2-y,-z
5 -x,-y,-z
6 1/2+x,y,1/2-z
7 x,1/2-y,1/2+z
8 1/2-x,1/2+y,z
_cell_length_a                   13.8034(2)
_cell_length_b                   12.9639(2)
_cell_length_c                   16.8318(3)
_cell_angle_alpha                90
_cell_angle_beta                 90
_cell_angle_gamma                90
_cell_volume                     3011.98
loop_
_atom_site_label
_atom_site_type_symbol
_atom_site_fract_x
_atom_site_fract_y
_atom_site_fract_z
Zn1 Zn 0.59259(2) 0.02386(3) 0.423968(18)
Zn2 Zn 0.52199(2) 0.07359(2) 0.096147(18)
C1 C 0.59028(18) 0.0278(2) 0.25394(16)
C2 C 0.49301(19) 0.0773(2) 0.27748(15)
O1 O 0.64482(13) -0.00069(16) 0.30866(11)
O2 O 0.47688(13) 0.08394(16) 0.35041(11)
O3 O 0.44098(14) 0.10575(15) 0.22132(11)
O4 O 0.60861(14) 0.01752(17) 0.18153(11)
C3 C 0.77964(18) -0.0279(2) 0.52007(15)
C4 C 0.81180(18) 0.0289(2) 0.40587(16)
H1 H 0.808(2) 0.050(2) 0.3554(19)
C5 C 0.45209(18) 0.2021(2) 0.58937(15)
C6 C 0.58105(18) 0.2221(2) 0.52303(15)
H2 H 0.646(2) 0.249(2) 0.4966(18)
N1 N 0.73659(15) 0.00498(16) 0.45285(12)
N2 N 0.89595(14) 0.01294(17) 0.43948(12)
N3 N 0.87605(14) -0.02496(16) 0.51497(12)
N4 N 0.73089(19) -0.0665(2) 0.58336(15)
H3 H 0.757(3) -0.061(3) 0.631(2)
H4 H 0.670(3) -0.058(3) 0.5895(19)
N5 N 0.55337(15) 0.12709(17) 0.50907(12)
N6 N 0.46835(14) 0.11321(16) 0.55226(12)
N7 N 0.52141(15) 0.27342(16) 0.57287(13)
N8 N 0.37340(19) 0.2210(2) 0.63560(16)
H5 H 0.382(3) 0.274(3) 0.676(3)
H6 H 0.340(3) 0.162(3) 0.654(2)
Zn1D Zn 0.40741(2) -0.02386(3) 0.576032(18)
Zn2E Zn 1.02199(2) 0.07359(2) 0.403853(18)
Zn2A Zn 0.97801(2) -0.07359(2) 0.596147(18)
Zn2F Zn 0.52199(2) 0.42641(2) 0.596147(18)
N2E N 0.39595(14) 0.01294(17) 0.06052(12)
N3A N 0.62395(14) 0.02496(16) 0.01497(12)
N6D N 0.53165(14) -0.11321(16) 0.44774(12)
N7F N 0.52141(15) 0.22658(16) 0.07287(13)
C7 C 0.3342(6) 0.2908(4) 0.3679(4)
O5 O 0.2846(4) 0.2806(4) 0.3145(3)
O6 O 0.3857(7) 0.2994(4) 0.4156(4)
C8 C 0.1081(8) 0.3120(7) 0.2109(8)
O7 O 0.1514(6) 0.2626(8) 0.1674(6)
O8 O 0.0684(8) 0.3602(7) 0.2559(6)
loop_
_geom_bond_atom_site_label_1
_geom_bond_atom_site_label_2
_geom_bond_site_symmetry_1
_geom_bond_site_symmetry_2
Zn1 O1 1_555 1_555
Zn2 O3 1_555 1_555
C1 C2 1_555 1_555
C2 O2 1_555 1_555
O1 C1 1_555 1_555
O2 Zn1 1_555 1_555
O3 C2 1_555 1_555
O4 Zn2 1_555 1_555
C3 N1 1_555 1_555
C4 H1 1_555 1_555
C5 N6 1_555 1_555
C6 H2 1_555 1_555
N1 Zn1 1_555 1_555
N2 C4 1_555 1_555
N3 C3 1_555 1_555
N4 C3 1_555 1_555
H3 N4 1_555 1_555
H4 N4 1_555 1_555
N5 Zn1 1_555 1_555
N6 N5 1_555 1_555
N7 C5 1_555 1_555
N8 C5 1_555 1_555
H5 N8 1_555 1_555
H6 N8 1_555 1_555
C7 O5 1_555 1_555
C8 O7 1_555 1_555
O6 C7 1_555 1_555
O8 C8 1_555 1_555
Zn1D N6 1_555 1_555
Zn2E N2 1_555 1_555
Zn2A N3 1_555 1_555
Zn2F N7 1_555 1_555
N2E Zn2 1_555 1_555
N3A Zn2 1_555 1_555
N6D Zn1 1_555 1_555
N7F Zn2 1_555 1_555
C1 O4 1_555 1_555
C4 N1 1_555 1_555
C6 N5 1_555 1_555
C6 N7 1_555 1_555
N2 N3 1_555 1_555

#END
