
#######################################################################
#
#                 Cambridge Crystallographic Data Centre
#                                CCDC 
#
#######################################################################
#
# If this CIF has been generated from an entry in the Cambridge 
# Structural Database, then it will include bibliographic, chemical, 
# crystal, experimental, refinement or atomic coordinate data resulting 
# from the CCDC's data processing and validation procedures.
#
#######################################################################

data_WALNAZ04
_symmetry_cell_setting           monoclinic
_symmetry_space_group_name_H-M   'P 21/c'
_symmetry_Int_Tables_number      14
_space_group_name_Hall           '-P 2ybc'
loop_
_symmetry_equiv_pos_site_id
_symmetry_equiv_pos_as_xyz
1 x,y,z
2 -x,1/2+y,1/2-z
3 -x,-y,-z
4 x,1/2-y,1/2+z
_cell_length_a                   17.194(6)
_cell_length_b                   29.258(10)
_cell_length_c                   11.560(4)
_cell_angle_alpha                90
_cell_angle_beta                 97.001(10)
_cell_angle_gamma                90
_cell_volume                     5772.04
loop_
_atom_site_label
_atom_site_type_symbol
_atom_site_fract_x
_atom_site_fract_y
_atom_site_fract_z
Ag1 Ag 0.17096(15) 0.86346(7) 0.15019(17)
Ag2 Ag 0.22004(16) 0.68830(7) -0.11966(17)
Ag3 Ag 0.26591(16) 0.73132(7) -0.37009(17)
Ag4 Ag 0.23449(16) 0.56796(7) -0.75915(17)
Ag5 Ag 0.32515(15) 0.50005(7) 0.12629(17)
Ag6 Ag 0.15264(15) 0.63670(7) -0.63184(17)
Ag7 Ag 0.65697(15) 0.76458(7) -0.13024(17)
Ag8 Ag -0.28404(15) 0.69519(7) -0.28113(17)
Ag9 Ag -0.20653(15) 0.87930(7) 0.10575(16)
Ag10 Ag 0.72836(15) 0.56037(7) -0.60946(17)
Ag11 Ag 0.69052(15) 0.50980(7) 0.15487(17)
Ag12 Ag 0.21180(16) 0.39942(7) -1.15405(17)
Fe1 Fe -0.0372(3) 0.75236(13) -0.0382(3)
Fe2 Fe 0.4926(3) 0.62825(13) -0.0158(3)
Fe3 Fe 0.4747(3) 0.62937(13) -0.5183(3)
Fe4 Fe 0.0000 0.5000 -1.0000
Fe5 Fe 0.0000 0.5000 -0.5000
N1 N -0.1262(17) 0.7181(8) -0.1185(18)
N2 N -0.1097(16) 0.7979(7) 0.0076(18)
N3 N 0.0458(16) 0.7900(7) 0.0367(18)
N4 N 0.0470(17) 0.7118(7) -0.0852(18)
N5 N -0.0393(17) 0.7161(8) 0.108(2)
N6 N -0.0360(17) 0.7875(8) -0.1879(19)
N7 N 0.4224(16) 0.5824(7) 0.0308(18)
N8 N 0.5797(16) 0.5914(7) 0.0536(18)
N9 N 0.5606(16) 0.6759(7) -0.0620(18)
N10 N 0.3980(17) 0.6619(7) -0.0839(19)
N11 N 0.4920(15) 0.5928(7) -0.1612(18)
N12 N 0.4869(17) 0.6643(8) 0.1313(18)
N13 N 0.3934(16) 0.6674(8) -0.4690(18)
N14 N 0.3913(16) 0.5932(7) -0.5961(18)
N15 N 0.5558(16) 0.5910(7) -0.5640(18)
N16 N 0.5603(16) 0.6679(7) -0.4442(18)
N17 N 0.4747(16) 0.6640(7) -0.6663(19)
N18 N 0.4777(16) 0.5932(7) -0.3710(17)
N19 N 0.0839(16) 0.5401(7) -0.9246(19)
N20 N 0.0861(16) 0.4630(7) -1.0463(18)
N21 N 0.0014(16) 0.4648(7) -0.8517(18)
N22 N 0.0942(17) 0.4688(8) -0.4283(18)
N23 N 0.0638(16) 0.5480(8) -0.5482(18)
N24 N 0.0081(16) 0.4664(7) -0.6456(18)
N25 N 0.1913(15) 0.6903(7) -0.7228(18)
N26 N 0.2686(16) 0.3477(7) -1.2413(18)
N27 N 0.2762(16) 0.4506(7) 0.2216(18)
N28 N 0.7445(16) 0.4505(7) 0.2302(18)
C1 C -0.181(2) 0.7056(9) -0.173(2)
C2 C -0.1468(19) 0.8273(9) 0.038(2)
C3 C 0.097(2) 0.8127(9) 0.077(2)
C4 C 0.106(2) 0.6982(9) -0.100(2)
C5 C -0.039(2) 0.7351(10) 0.209(2)
H1 H -0.0399 0.7675 0.2115
C6 C -0.033(2) 0.6696(10) 0.110(2)
H2 H -0.0339 0.6544 0.0371
C7 C -0.0270(19) 0.6439(10) 0.206(2)
H3 H -0.0224 0.6116 0.2021
C8 C -0.027(2) 0.8333(10) -0.186(2)
H4 H -0.0214 0.8497 -0.1150
C9 C 0.385(2) 0.5529(9) 0.055(2)
C10 C 0.628(2) 0.5645(9) 0.095(2)
C11 C 0.598(2) 0.7065(9) -0.083(2)
C12 C 0.338(2) 0.6762(9) -0.107(2)
C13 C 0.4844(18) 0.6153(9) -0.265(2)
H5 H 0.4837 0.6478 -0.2640
C14 C 0.4937(18) 0.5468(8) -0.166(2)
H6 H 0.5017 0.5301 -0.0950
C15 C 0.4846(18) 0.5230(9) -0.269(2)
H7 H 0.4825 0.4905 -0.2694
C16 C 0.4782(19) 0.5478(9) -0.376(2)
H8 H 0.4745 0.5323 -0.4483
C17 C 0.4814(19) 0.6431(9) 0.232(2)
H9 H 0.4823 0.6106 0.2313
C18 C 0.480(2) 0.7076(9) 0.130(2)
H10 H 0.4842 0.7232 0.0587
C19 C 0.4651(18) 0.7334(9) 0.227(2)
H11 H 0.4556 0.7653 0.2222
C20 C 0.4652(19) 0.7101(9) -0.668(2)
H12 H 0.4587 0.7262 -0.5990
C21 C 0.346(2) 0.6896(9) -0.441(2)
C22 C 0.339(2) 0.5787(9) -0.649(2)
C23 C 0.616(2) 0.5770(9) -0.586(2)
C24 C -0.383(2) 0.6825(9) -0.389(2)
C25 C 0.137(2) 0.5556(9) -0.868(2)
C26 C 0.133(2) 0.4419(9) -1.076(2)
C27 C 0.0000(19) 0.4854(9) -0.748(2)
H13 H -0.0078 0.5176 -0.7494
C28 C 0.0064(19) 0.4190(9) -0.854(2)
H14 H 0.0040 0.4036 -0.9263
C29 C 0.0149(19) 0.3938(9) -0.752(2)
H15 H 0.0187 0.3614 -0.7522
C30 C 0.0175(19) 0.4194(9) -0.644(2)
H16 H 0.0259 0.4038 -0.5719
C31 C 0.843(2) 0.5445(9) -0.598(2)
C32 C 0.100(2) 0.5777(9) -0.574(2)
C33 C 0.214(2) 0.7804(9) -0.277(2)
C34 C 0.7060(19) 0.8198(9) -0.207(2)
C35 C -0.2537(19) 0.9245(9) 0.209(2)
C36 C 0.229(2) 0.9181(9) 0.227(2)
Ag1A Ag 0.82904(15) 0.36346(7) -0.65019(17)
Ag1A_2 Ag 0.82904(15) 0.36346(7) 0.34981(17)
Ag1C Ag 0.17096(15) 0.63654(7) -0.34981(17)
Ag2_2 Ag 0.22004(16) 0.68830(7) -1.11966(17)
Ag2C Ag 0.22004(16) 0.81170(7) -0.61966(17)
Ag3C Ag 0.26591(16) 0.76868(7) -0.87009(17)
Ag3_2 Ag 0.26591(16) 0.73132(7) -1.37009(17)
Ag4_2 Ag 0.23449(16) 0.56796(7) -1.75915(17)
Ag5_2 Ag 0.32515(15) 0.50005(7) -0.87371(17)
Ag5A Ag -0.32515(15) 1.00005(7) 0.37371(17)
Ag6C Ag 0.15264(15) 0.86330(7) -0.13184(17)
Ag7A Ag 0.34303(15) 0.26458(7) -1.36976(17)
Ag7_2 Ag 0.65697(15) 0.76458(7) -1.13024(17)
Ag8_2 Ag 0.71596(15) 0.69519(7) -0.28113(17)
Ag8C Ag -0.28404(15) 0.80481(7) -0.78113(17)
Ag9A Ag 0.20653(15) 0.37930(7) 0.39425(16)
Ag9C Ag -0.20653(15) 0.62070(7) -0.39425(16)
Ag10B Ag 0.27164(15) 0.43963(7) -0.39054(17)
Ag10_2 Ag 0.72836(15) 0.56037(7) -1.60946(17)
Ag11_2 Ag 0.69052(15) 0.50980(7) -0.84513(17)
Ag11A Ag 0.30948(15) 1.00980(7) 0.34513(17)
Ag12A Ag 0.78820(16) 0.89942(7) -0.34595(17)
Fe1_2 Fe 0.9628(3) 0.75236(13) -0.0382(3)
Fe1_3 Fe -0.0372(3) 0.75236(13) -1.0382(3)
Fe1C Fe -0.0372(3) 0.74764(13) 0.4618(3)
Fe1C_2 Fe -0.0372(3) 0.74764(13) -0.5382(3)
Fe2_2 Fe 0.4926(3) 0.62825(13) -1.0158(3)
Fe3_2 Fe 0.4747(3) 0.62937(13) -1.5183(3)
Fe3_3 Fe 0.4747(3) 0.62937(13) 0.4817(3)
Fe3_4 Fe -0.5253(3) 0.62937(13) -0.5183(3)
Fe5_2 Fe 0.0000 0.5000 -1.5000
Fe5_3 Fe 1.0000 0.5000 -0.5000
N1_2 N 0.8738(17) 0.7181(8) -0.1185(18)
N1C N -0.1262(17) 0.7819(8) -0.6185(18)
N2C N -0.1097(16) 0.7021(7) -0.4924(18)
N3C N 0.0458(16) 0.7100(7) -0.4633(18)
N4_2 N 0.0470(17) 0.7118(7) -1.0852(18)
N4C N 0.0470(17) 0.7882(7) -0.5852(18)
N5C N -0.0393(17) 0.7839(8) -0.392(2)
N6C N -0.0360(17) 0.7125(8) 0.3121(19)
N6C_2 N -0.0360(17) 0.7125(8) -0.6879(19)
N7_2 N 0.4224(16) 0.5824(7) -0.9692(18)
N8_2 N 0.5797(16) 0.5914(7) -0.9464(18)
N9_2 N 0.5606(16) 0.6759(7) -1.0620(18)
N10_2 N 0.3980(17) 0.6619(7) -1.0839(19)
N11_2 N 0.4920(15) 0.5928(7) -1.1612(18)
N12_2 N 0.4869(17) 0.6643(8) -0.8687(18)
N13_2 N 0.3934(16) 0.6674(8) -1.4690(18)
N14_2 N 0.3913(16) 0.5932(7) -1.5961(18)
N15_2 N 0.5558(16) 0.5910(7) -1.5640(18)
N16_2 N -0.4397(16) 0.6679(7) -0.4442(18)
N16_3 N 0.5603(16) 0.6679(7) -1.4442(18)
N17_2 N 0.4747(16) 0.6640(7) 0.3337(19)
N17_3 N 0.4747(16) 0.6640(7) -1.6663(19)
N18_2 N 0.4777(16) 0.5932(7) -1.3710(17)
N19B N -0.0839(16) 0.4599(7) -1.0754(19)
N20B N -0.0861(16) 0.5370(7) -0.9537(18)
N21B N -0.0014(16) 0.5352(7) -1.1483(18)
N22B N -0.0942(17) 0.5312(8) -0.5717(18)
N22B_2 N 0.9058(17) 0.5312(8) -0.5717(18)
N23B N -0.0638(16) 0.4520(8) -0.4518(18)
N24B N -0.0081(16) 0.5336(7) -0.3544(18)
N24B_2 N -0.0081(16) 0.5336(7) -1.3544(18)
N25C N 0.1913(15) 0.8097(7) -0.2228(18)
N26A N 0.7314(16) 0.8477(7) -0.2587(18)
N27A N -0.2762(16) 0.9506(7) 0.2784(18)
N27_2 N 0.2762(16) 0.4506(7) -0.7784(18)
N28A N 0.2555(16) 0.9505(7) 0.2698(18)
N28_2 N 0.7445(16) 0.4505(7) -0.7698(18)
C1_2 C 0.819(2) 0.7056(9) -0.173(2)
C1C C -0.181(2) 0.7944(9) -0.673(2)
C2C C -0.1468(19) 0.6727(9) -0.462(2)
C3C C 0.097(2) 0.6873(9) -0.423(2)
C4_2 C 0.106(2) 0.6982(9) -1.100(2)
C4C C 0.106(2) 0.8018(9) -0.600(2)
C5C C -0.039(2) 0.7649(10) -0.291(2)
H1C H -0.0399 0.7325 -0.2885
C6C C -0.033(2) 0.8304(10) -0.390(2)
H2C H -0.0339 0.8456 -0.4629
C7C C -0.0270(19) 0.8561(10) -0.294(2)
H3C H -0.0224 0.8884 -0.2979
C8C C -0.027(2) 0.6667(10) 0.314(2)
H4C H -0.0214 0.6503 0.3850
C9_2 C 0.385(2) 0.5529(9) -0.945(2)
C10_2 C 0.628(2) 0.5645(9) -0.905(2)
C11_2 C 0.598(2) 0.7065(9) -1.083(2)
C12_2 C 0.338(2) 0.6762(9) -1.107(2)
C12C C 0.338(2) 0.8238(9) -0.607(2)
C13_2 C 0.4844(18) 0.6153(9) -1.265(2)
H5_2 H 0.4837 0.6478 -1.2640
C14_2 C 0.4937(18) 0.5468(8) -1.166(2)
H6_2 H 0.5017 0.5301 -1.0950
C15_2 C 0.4846(18) 0.5230(9) -1.269(2)
H7_2 H 0.4825 0.4905 -1.2694
C16_2 C 0.4782(19) 0.5478(9) -1.376(2)
H8_2 H 0.4745 0.5323 -1.4483
C17_2 C 0.4814(19) 0.6431(9) -0.768(2)
H9_2 H 0.4823 0.6106 -0.7687
C18_2 C 0.480(2) 0.7076(9) -0.870(2)
H10_2 H 0.4842 0.7232 -0.9413
C19_2 C 0.4651(18) 0.7334(9) -0.773(2)
H11_2 H 0.4556 0.7653 -0.7778
C20_2 C 0.4652(19) 0.7101(9) 0.332(2)
H12_2 H 0.4587 0.7262 0.4010
C21_2 C 0.346(2) 0.6896(9) -1.441(2)
C22_2 C 0.339(2) 0.5787(9) -1.649(2)
C23_2 C 0.616(2) 0.5770(9) -1.586(2)
C24_2 C 0.617(2) 0.6825(9) -0.389(2)
C24C C -0.383(2) 0.8175(9) -0.889(2)
C25_2 C 0.137(2) 0.5556(9) -1.868(2)
C27B C 0.0000(19) 0.5146(9) -1.252(2)
H13B H 0.0078 0.4824 -1.2506
C28B C -0.0064(19) 0.5810(9) -1.146(2)
H14B H -0.0040 0.5964 -1.0737
C29B C -0.0149(19) 0.6062(9) -1.248(2)
H15B H -0.0187 0.6386 -1.2478
C30B C -0.0175(19) 0.5806(9) -1.356(2)
H16B H -0.0259 0.5962 -1.4281
C31B C 0.157(2) 0.4555(9) -0.402(2)
C31_2 C 0.843(2) 0.5445(9) -1.598(2)
C33C C 0.214(2) 0.7196(9) -0.777(2)
C33_2 C 0.214(2) 0.7804(9) -1.277(2)
C34A C 0.2940(19) 0.3198(9) -1.293(2)
C34_2 C 0.7060(19) 0.8198(9) -1.207(2)
C35A C 0.2537(19) 0.4245(9) 0.291(2)
C35C C -0.2537(19) 0.5755(9) -0.291(2)
C36A C 0.771(2) 0.4181(9) 0.273(2)
C36A_2 C 0.771(2) 0.4181(9) -0.727(2)
C36C C 0.229(2) 0.5819(9) -0.273(2)
loop_
_geom_bond_atom_site_label_1
_geom_bond_atom_site_label_2
_geom_bond_site_symmetry_1
_geom_bond_site_symmetry_2
Ag1 C3 1_555 1_555
Ag2 C4 1_555 1_555
Ag3 C21 1_555 1_555
Ag4 C22 1_555 1_555
Ag5 N27 1_555 1_555
Ag6 N25 1_555 1_555
Ag7 C11 1_555 1_555
Ag8 C1 1_555 1_555
Ag9 C2 1_555 1_555
Ag10 C23 1_555 1_555
Ag11 N28 1_555 1_555
Ag12 N26 1_555 1_555
Fe1 N1 1_555 1_555
Fe2 N7 1_555 1_555
Fe3 N13 1_555 1_555
Fe4 N19 1_555 1_555
Fe5 N22 1_555 1_555
N1 C1 1_555 1_555
N2 Fe1 1_555 1_555
N3 Fe1 1_555 1_555
N4 Fe1 1_555 1_555
N5 Fe1 1_555 1_555
N6 Fe1 1_555 1_555
N7 C9 1_555 1_555
N8 Fe2 1_555 1_555
N9 Fe2 1_555 1_555
N10 Fe2 1_555 1_555
N11 Fe2 1_555 1_555
N12 Fe2 1_555 1_555
N13 C21 1_555 1_555
N14 Fe3 1_555 1_555
N15 Fe3 1_555 1_555
N16 Fe3 1_555 1_555
N17 Fe3 1_555 1_555
N18 Fe3 1_555 1_555
N19 C25 1_555 1_555
N20 Fe4 1_555 1_555
N21 Fe4 1_555 1_555
N22 C31B 1_555 1_555
N23 Fe5 1_555 1_555
N24 Fe5 1_555 1_555
N25 C33C 1_555 1_555
N26 C34A 1_555 1_555
N27 C35A 1_555 1_555
N28 C36A 1_555 1_555
C2 N2 1_555 1_555
C3 N3 1_555 1_555
C4 N4 1_555 1_555
C5 N5 1_555 1_555
H1 C5 1_555 1_555
C6 N5 1_555 1_555
H2 C6 1_555 1_555
C7 C6 1_555 1_555
H3 C7 1_555 1_555
C8 N6 1_555 1_555
H4 C8 1_555 1_555
C9 Ag5 1_555 1_555
C10 Ag11 1_555 1_555
C11 N9 1_555 1_555
C12 Ag2 1_555 1_555
C13 N11 1_555 1_555
H5 C13 1_555 1_555
C14 N11 1_555 1_555
H6 C14 1_555 1_555
C15 C14 1_555 1_555
H7 C15 1_555 1_555
C16 N18 1_555 1_555
H8 C16 1_555 1_555
C17 N12 1_555 1_555
H9 C17 1_555 1_555
C18 N12 1_555 1_555
H10 C18 1_555 1_555
C19 C18 1_555 1_555
H11 C19 1_555 1_555
C20 N17 1_555 1_555
H12 C20 1_555 1_555
C22 N14 1_555 1_555
C23 N15 1_555 1_555
C24 Ag8 1_555 1_555
C25 Ag4 1_555 1_555
C26 Ag12 1_555 1_555
C27 N21 1_555 1_555
H13 C27 1_555 1_555
C28 N21 1_555 1_555
H14 C28 1_555 1_555
C29 C28 1_555 1_555
H15 C29 1_555 1_555
C30 N24 1_555 1_555
H16 C30 1_555 1_555
C31 Ag10 1_555 1_555
C32 Ag6 1_555 1_555
C33 Ag3 1_555 1_555
C34 Ag7 1_555 1_555
C35 Ag9 1_555 1_555
C36 Ag1 1_555 1_555
Ag1A C36A_2 1_555 1_555
Ag1A_2 C36A 1_555 1_555
Ag1C C3C 1_555 1_555
Ag2_2 C4_2 1_555 1_555
Ag2C C4C 1_555 1_555
Ag3C C33C 1_555 1_555
Ag3_2 C21_2 1_555 1_555
Ag4_2 C22_2 1_555 1_555
Ag5_2 N27_2 1_555 1_555
Ag5A N27A 1_555 1_555
Ag6C N25C 1_555 1_555
Ag7A C34A 1_555 1_555
Ag7_2 C11_2 1_555 1_555
Ag8_2 C1_2 1_555 1_555
Ag8C C1C 1_555 1_555
Ag9A C35A 1_555 1_555
Ag9C C2C 1_555 1_555
Ag10B C31B 1_555 1_555
Ag10_2 C23_2 1_555 1_555
Ag11_2 N28_2 1_555 1_555
Ag11A N28A 1_555 1_555
Ag12A N26A 1_555 1_555
Fe1_2 N1_2 1_555 1_555
Fe1_3 N4_2 1_555 1_555
Fe1C N6C 1_555 1_555
Fe1C_2 N1C 1_555 1_555
Fe2_2 N7_2 1_555 1_555
Fe3_2 N13_2 1_555 1_555
Fe3_3 N17_2 1_555 1_555
Fe3_4 N16_2 1_555 1_555
Fe5_2 N24B_2 1_555 1_555
Fe5_3 N22B_2 1_555 1_555
N1_2 C1_2 1_555 1_555
N1C C1C 1_555 1_555
N2C Fe1C_2 1_555 1_555
N3C Fe1C_2 1_555 1_555
N4_2 C4_2 1_555 1_555
N4C Fe1C_2 1_555 1_555
N5C Fe1C_2 1_555 1_555
N6C C5 1_555 1_555
N6C_2 Fe1C_2 1_555 1_555
N7_2 C9_2 1_555 1_555
N8_2 Fe2_2 1_555 1_555
N9_2 Fe2_2 1_555 1_555
N10_2 Fe2_2 1_555 1_555
N11_2 Fe2_2 1_555 1_555
N12_2 Fe2_2 1_555 1_555
N13_2 C21_2 1_555 1_555
N14_2 Fe3_2 1_555 1_555
N15_2 Fe3_2 1_555 1_555
N16_2 C24 1_555 1_555
N16_3 Fe3_2 1_555 1_555
N17_2 C17 1_555 1_555
N17_3 Fe3_2 1_555 1_555
N18_2 Fe3_2 1_555 1_555
N19B Fe4 1_555 1_555
N20B Fe4 1_555 1_555
N21B Fe4 1_555 1_555
N22B Fe5 1_555 1_555
N22B_2 C31 1_555 1_555
N23B Fe5 1_555 1_555
N24B Fe5 1_555 1_555
N24B_2 C27B 1_555 1_555
N25C C33 1_555 1_555
N26A C34 1_555 1_555
N27A C35 1_555 1_555
N28A C36 1_555 1_555
N28_2 C36A_2 1_555 1_555
C2C N2C 1_555 1_555
C3C N3C 1_555 1_555
C4C N4C 1_555 1_555
C5C N6 1_555 1_555
H1C C5C 1_555 1_555
C6C N5C 1_555 1_555
H2C C6C 1_555 1_555
C7C C8 1_555 1_555
H3C C7C 1_555 1_555
C8C C7 1_555 1_555
H4C C8C 1_555 1_555
C9_2 Ag5_2 1_555 1_555
C10_2 Ag11_2 1_555 1_555
C11_2 N9_2 1_555 1_555
C12_2 Ag2_2 1_555 1_555
C12C Ag2C 1_555 1_555
C13_2 N11_2 1_555 1_555
H5_2 C13_2 1_555 1_555
C14_2 N11_2 1_555 1_555
H6_2 C14_2 1_555 1_555
C15_2 C14_2 1_555 1_555
H7_2 C15_2 1_555 1_555
C16_2 N18_2 1_555 1_555
H8_2 C16_2 1_555 1_555
C17_2 N17 1_555 1_555
H9_2 C17_2 1_555 1_555
C18_2 N12_2 1_555 1_555
H10_2 C18_2 1_555 1_555
C19_2 C20 1_555 1_555
H11_2 C19_2 1_555 1_555
C20_2 C19 1_555 1_555
H12_2 C20_2 1_555 1_555
C22_2 N14_2 1_555 1_555
C23_2 N15_2 1_555 1_555
C24_2 N16 1_555 1_555
C24C Ag8C 1_555 1_555
C25_2 Ag4_2 1_555 1_555
C27B N21B 1_555 1_555
H13B C27B 1_555 1_555
C28B N21B 1_555 1_555
H14B C28B 1_555 1_555
C29B C28B 1_555 1_555
H15B C29B 1_555 1_555
C30B N24B_2 1_555 1_555
H16B C30B 1_555 1_555
C31_2 Ag10_2 1_555 1_555
C33_2 Ag3_2 1_555 1_555
C34_2 Ag7_2 1_555 1_555
C35C Ag9C 1_555 1_555
C36C Ag1C 1_555 1_555
N8 C10 1_555 1_555
N10 C12 1_555 1_555
N18 C13 1_555 1_555
N20 C26 1_555 1_555
N23 C32 1_555 1_555
N24 C27 1_555 1_555
C15 C16 1_555 1_555
C29 C30 1_555 1_555
Ag8_2 C24_2 1_555 1_555
N5C C5C 1_555 1_555
N6C C8C 1_555 1_555
N8_2 C10_2 1_555 1_555
N10_2 C12_2 1_555 1_555
N12_2 C17_2 1_555 1_555
N17_2 C20_2 1_555 1_555
N18_2 C13_2 1_555 1_555
C6C C7C 1_555 1_555
C15_2 C16_2 1_555 1_555
C18_2 C19_2 1_555 1_555
C29B C30B 1_555 1_555

#END
