
#######################################################################
#
#                 Cambridge Crystallographic Data Centre
#                                CCDC 
#
#######################################################################
#
# If this CIF has been generated from an entry in the Cambridge 
# Structural Database, then it will include bibliographic, chemical, 
# crystal, experimental, refinement or atomic coordinate data resulting 
# from the CCDC's data processing and validation procedures.
#
#######################################################################

data_WALNAZ01
_symmetry_cell_setting           monoclinic
_symmetry_space_group_name_H-M   'P 21/c'
_symmetry_Int_Tables_number      14
_space_group_name_Hall           '-P 2ybc'
loop_
_symmetry_equiv_pos_site_id
_symmetry_equiv_pos_as_xyz
1 x,y,z
2 -x,1/2+y,1/2-z
3 -x,-y,-z
4 x,1/2-y,1/2+z
_cell_length_a                   17.5674(4)
_cell_length_b                   29.2216(7)
_cell_length_c                   12.2541(3)
_cell_angle_alpha                90
_cell_angle_beta                 97.3020(10)
_cell_angle_gamma                90
_cell_volume                     6239.6
loop_
_atom_site_label
_atom_site_type_symbol
_atom_site_fract_x
_atom_site_fract_y
_atom_site_fract_z
Ag1 Ag 0.16736(4) 0.86304(2) 0.15534(6)
Ag2 Ag 0.21775(3) 0.68898(2) -0.11460(6)
Ag3 Ag 0.26023(4) 0.73253(2) -0.36487(6)
Ag4 Ag 0.22892(3) 0.56940(2) -0.76207(6)
Ag5 Ag 0.31899(4) 0.49995(2) 0.12883(6)
Ag6 Ag 0.15527(4) 0.63823(2) -0.62860(6)
Ag7 Ag 0.65948(4) 0.768438(19) -0.13334(6)
Ag8 Ag -0.29204(3) 0.69334(2) -0.27878(5)
Ag9 Ag -0.21332(4) 0.88033(2) 0.10898(6)
Ag10 Ag 0.72994(3) 0.56217(2) -0.60707(5)
Ag11 Ag 0.68974(4) 0.50638(2) 0.16241(6)
Ag12 Ag 0.21551(4) 0.39972(2) -1.15474(6)
Fe1 Fe -0.04469(5) 0.74882(3) -0.03594(8)
Fe2 Fe 0.49294(5) 0.62987(3) -0.01641(8)
Fe3 Fe 0.46782(5) 0.62771(3) -0.52003(8)
Fe4 Fe 0.0000 0.5000 -1.0000
Fe5 Fe 0.0000 0.5000 -0.5000
N1 N -0.1360(3) 0.70915(19) -0.1179(5)
N2 N -0.1237(3) 0.79889(19) 0.0130(5)
N3 N 0.0453(3) 0.79099(19) 0.0456(5)
N4 N 0.0419(3) 0.70453(19) -0.0874(5)
N5 N -0.0406(3) 0.70906(19) 0.1185(4)
N6 N -0.0414(3) 0.79001(18) -0.1880(4)
N7 N 0.4131(3) 0.57936(18) 0.0311(5)
N8 N 0.5827(3) 0.58753(18) 0.0605(5)
N9 N 0.5700(3) 0.68040(17) -0.0600(4)
N10 N 0.3969(3) 0.66862(18) -0.0936(5)
N11 N 0.4919(3) 0.58901(17) -0.1703(4)
N12 N 0.4827(3) 0.66850(18) 0.1370(4)
N13 N 0.3794(3) 0.66867(19) -0.4713(5)
N14 N 0.3840(3) 0.58313(19) -0.5993(5)
N15 N 0.5577(3) 0.58617(18) -0.5691(5)
N16 N 0.5538(3) 0.67292(18) -0.4395(5)
N17 N 0.4669(3) 0.66722(18) -0.6729(5)
N18 N 0.4747(3) 0.58830(18) -0.3654(5)
N19 N 0.0759(3) 0.55019(19) -0.9234(5)
N20 N 0.0963(3) 0.46256(19) -1.0447(5)
N21 N 0.0081(3) 0.46147(19) -0.8422(5)
N22 N 0.0942(3) 0.46552(19) -0.4220(5)
N23 N 0.0699(3) 0.55002(19) -0.5460(5)
N24 N 0.0099(3) 0.46214(18) -0.6472(4)
N25 N 0.1944(4) 0.6931(3) -0.7155(6)
N26 N 0.2687(4) 0.3492(2) -1.2384(6)
N27 N 0.2746(4) 0.4509(3) 0.2247(6)
N28 N 0.7440(5) 0.4496(3) 0.2312(7)
C1 C -0.1915(4) 0.7004(2) -0.1734(6)
C2 C -0.1582(4) 0.8285(2) 0.0387(6)
C3 C 0.0934(4) 0.8141(2) 0.0851(6)
C4 C 0.1030(4) 0.6959(2) -0.1012(6)
C5 C -0.0449(4) 0.7306(2) 0.2138(6)
H1 H -0.0510 0.7626 0.2117
C6 C -0.0338(4) 0.6645(2) 0.1223(6)
H2 H -0.0320 0.6484 0.0562
C7 C -0.0292(4) 0.6402(3) 0.2184(6)
H3 H -0.0232 0.6083 0.2198
C8 C -0.0337(4) 0.8354(2) -0.1878(6)
H4 H -0.0314 0.8511 -0.1205
C9 C 0.3769(4) 0.5504(2) 0.0584(6)
C10 C 0.6244(4) 0.5599(2) 0.0977(6)
C11 C 0.6044(4) 0.7117(2) -0.0803(6)
C12 C 0.3330(4) 0.6783(2) -0.1084(6)
C13 C 0.4811(4) 0.6085(2) -0.2687(5)
H5 H 0.4777 0.6406 -0.2695
C14 C 0.4959(4) 0.5430(2) -0.1702(6)
H6 H 0.5038 0.5273 -0.1027
C15 C 0.4885(4) 0.5183(2) -0.2661(6)
H7 H 0.4912 0.4862 -0.2656
C16 C 0.4771(4) 0.5425(2) -0.3634(6)
H8 H 0.4707 0.5264 -0.4303
C17 C 0.4786(4) 0.6474(2) 0.2319(5)
H9 H 0.4845 0.6154 0.2326
C18 C 0.4734(4) 0.7145(2) 0.1376(6)
H10 H 0.4756 0.7309 0.0722
C19 C 0.4609(4) 0.7375(2) 0.2301(6)
H11 H 0.4549 0.7695 0.2293
C20 C 0.4574(4) 0.7131(2) -0.6761(6)
H12 H 0.4481 0.7285 -0.6118
C21 C 0.3317(4) 0.6909(2) -0.4413(6)
C22 C 0.3288(4) 0.5759(2) -0.6556(6)
C23 C 0.6178(4) 0.5754(2) -0.5861(6)
C24 C -0.3905(4) 0.6835(2) -0.3857(6)
C25 C 0.1314(4) 0.5609(2) -0.8689(6)
C26 C 0.1443(4) 0.4422(2) -1.0792(6)
C27 C 0.0036(4) 0.4823(2) -0.7464(6)
H13 H -0.0047 0.5140 -0.7485
C28 C 0.0178(4) 0.4167(3) -0.8399(7)
H14 H 0.0203 0.4009 -0.9061
C29 C 0.0245(4) 0.3925(3) -0.7419(6)
H15 H 0.0322 0.3606 -0.7404
C30 C 0.0195(4) 0.4165(2) -0.6473(6)
H16 H 0.0229 0.4006 -0.5801
C31 C 0.8425(4) 0.5464(2) -0.6006(6)
C32 C 0.1056(4) 0.5809(2) -0.5691(6)
C33 C 0.2116(5) 0.7801(3) -0.2736(6)
C34 C 0.7059(4) 0.8214(2) -0.2107(6)
C35 C -0.2541(4) 0.9270(3) 0.2088(7)
C36 C 0.2268(5) 0.9169(3) 0.2261(7)
Ag1A Ag 0.83264(4) 0.36304(2) 0.34466(6)
Ag1C Ag 0.16736(4) 0.63696(2) -0.34466(6)
Ag1A_2 Ag 0.83264(4) 0.36304(2) -0.65534(6)
Ag2C Ag 0.21775(3) 0.81102(2) -0.61460(6)
Ag2_2 Ag 0.21775(3) 0.68898(2) -1.11460(6)
Ag3C Ag 0.26023(4) 0.76747(2) -0.86487(6)
Ag3_2 Ag 0.26023(4) 0.73253(2) -1.36487(6)
Ag4_2 Ag 0.22892(3) 0.56940(2) -1.76207(6)
Ag5A Ag -0.31899(4) 0.99995(2) 0.37117(6)
Ag5_2 Ag 0.31899(4) 0.49995(2) -0.87117(6)
Ag6C Ag 0.15527(4) 0.86177(2) -0.12860(6)
Ag7A Ag 0.34052(4) 0.268438(19) -1.36666(6)
Ag7_2 Ag 0.65948(4) 0.768438(19) -1.13334(6)
Ag8_2 Ag 0.70796(3) 0.69334(2) -0.27878(5)
Ag8C Ag -0.29204(3) 0.80666(2) -0.77878(5)
Ag9A Ag 0.21332(4) 0.38033(2) 0.39102(6)
Ag9C Ag -0.21332(4) 0.61967(2) -0.39102(6)
Ag10B Ag 0.27006(3) 0.43783(2) -0.39293(5)
Ag10_2 Ag 0.72994(3) 0.56217(2) -1.60707(5)
Ag11A Ag 0.31026(4) 1.00638(2) 0.33759(6)
Ag11_2 Ag 0.68974(4) 0.50638(2) -0.83759(6)
Ag12A Ag 0.78449(4) 0.89972(2) -0.34526(6)
Fe1C Fe -0.04469(5) 0.75118(3) 0.46406(8)
Fe1C_2 Fe -0.04469(5) 0.75118(3) -0.53594(8)
Fe1_2 Fe 0.95531(5) 0.74882(3) -0.03594(8)
Fe1_3 Fe -0.04469(5) 0.74882(3) -1.03594(8)
Fe2_2 Fe 0.49294(5) 0.62987(3) -1.01641(8)
Fe3_2 Fe 0.46782(5) 0.62771(3) 0.47997(8)
Fe3_3 Fe -0.53218(5) 0.62771(3) -0.52003(8)
Fe3_4 Fe 0.46782(5) 0.62771(3) -1.52003(8)
Fe5_2 Fe 1.0000 0.5000 -0.5000
Fe5_3 Fe 0.0000 0.5000 -1.5000
N1C N -0.1360(3) 0.79085(19) -0.6179(5)
N1_2 N 0.8640(3) 0.70915(19) -0.1179(5)
N2C N -0.1237(3) 0.70111(19) -0.4870(5)
N3C N 0.0453(3) 0.70901(19) -0.4544(5)
N4C N 0.0419(3) 0.79547(19) -0.5874(5)
N4_2 N 0.0419(3) 0.70453(19) -1.0874(5)
N5C N -0.0406(3) 0.79094(19) -0.3815(4)
N6C N -0.0414(3) 0.70999(18) 0.3120(4)
N6C_2 N -0.0414(3) 0.70999(18) -0.6880(4)
N7_2 N 0.4131(3) 0.57936(18) -0.9689(5)
N8_2 N 0.5827(3) 0.58753(18) -0.9395(5)
N9_2 N 0.5700(3) 0.68040(17) -1.0600(4)
N10_2 N 0.3969(3) 0.66862(18) -1.0936(5)
N11_2 N 0.4919(3) 0.58901(17) -1.1703(4)
N12_2 N 0.4827(3) 0.66850(18) -0.8630(4)
N13_2 N 0.3794(3) 0.66867(19) -1.4713(5)
N14_2 N 0.3840(3) 0.58313(19) -1.5993(5)
N15_2 N 0.5577(3) 0.58617(18) -1.5691(5)
N16_2 N -0.4462(3) 0.67292(18) -0.4395(5)
N16_3 N 0.5538(3) 0.67292(18) -1.4395(5)
N17_2 N 0.4669(3) 0.66722(18) 0.3271(5)
N17_3 N 0.4669(3) 0.66722(18) -1.6729(5)
N18_2 N 0.4747(3) 0.58830(18) -1.3654(5)
N19B N -0.0759(3) 0.44981(19) -1.0766(5)
N20B N -0.0963(3) 0.53744(19) -0.9553(5)
N21B N -0.0081(3) 0.53853(19) -1.1578(5)
N22B N -0.0942(3) 0.53448(19) -0.5780(5)
N22B_2 N 0.9058(3) 0.53448(19) -0.5780(5)
N23B N -0.0699(3) 0.44998(19) -0.4540(5)
N24B N -0.0099(3) 0.53786(18) -0.3528(4)
N24B_2 N -0.0099(3) 0.53786(18) -1.3528(4)
N25C N 0.1944(4) 0.8069(3) -0.2155(6)
N26A N 0.7313(4) 0.8492(2) -0.2616(6)
N27A N -0.2746(4) 0.9509(3) 0.2753(6)
N27_2 N 0.2746(4) 0.4509(3) -0.7753(6)
N28A N 0.2560(5) 0.9496(3) 0.2688(7)
N28_2 N 0.7440(5) 0.4496(3) -0.7688(7)
C1_2 C 0.8085(4) 0.7004(2) -0.1734(6)
C1C C -0.1915(4) 0.7996(2) -0.6734(6)
C2C C -0.1582(4) 0.6715(2) -0.4613(6)
C3C C 0.0934(4) 0.6859(2) -0.4149(6)
C4C C 0.1030(4) 0.8041(2) -0.6012(6)
C4_2 C 0.1030(4) 0.6959(2) -1.1012(6)
C5C C -0.0449(4) 0.7694(2) -0.2862(6)
H1C H -0.0510 0.7374 -0.2883
C6C C -0.0338(4) 0.8355(2) -0.3777(6)
H2C H -0.0320 0.8516 -0.4438
C7C C -0.0292(4) 0.8598(3) -0.2816(6)
H3C H -0.0232 0.8917 -0.2802
C8C C -0.0337(4) 0.6646(2) 0.3122(6)
H4C H -0.0314 0.6489 0.3795
C9_2 C 0.3769(4) 0.5504(2) -0.9416(6)
C10_2 C 0.6244(4) 0.5599(2) -0.9023(6)
C11_2 C 0.6044(4) 0.7117(2) -1.0803(6)
C12C C 0.3330(4) 0.8217(2) -0.6084(6)
C12_2 C 0.3330(4) 0.6783(2) -1.1084(6)
C13_2 C 0.4811(4) 0.6085(2) -1.2687(5)
H5_2 H 0.4777 0.6406 -1.2695
C14_2 C 0.4959(4) 0.5430(2) -1.1702(6)
H6_2 H 0.5038 0.5273 -1.1027
C15_2 C 0.4885(4) 0.5183(2) -1.2661(6)
H7_2 H 0.4912 0.4862 -1.2656
C16_2 C 0.4771(4) 0.5425(2) -1.3634(6)
H8_2 H 0.4707 0.5264 -1.4303
C17_2 C 0.4786(4) 0.6474(2) -0.7681(5)
H9_2 H 0.4845 0.6154 -0.7674
C18_2 C 0.4734(4) 0.7145(2) -0.8624(6)
H10_2 H 0.4756 0.7309 -0.9278
C19_2 C 0.4609(4) 0.7375(2) -0.7699(6)
H11_2 H 0.4549 0.7695 -0.7707
C20_2 C 0.4574(4) 0.7131(2) 0.3239(6)
H12_2 H 0.4481 0.7285 0.3882
C21_2 C 0.3317(4) 0.6909(2) -1.4413(6)
C22_2 C 0.3288(4) 0.5759(2) -1.6556(6)
C23_2 C 0.6178(4) 0.5754(2) -1.5861(6)
C24_2 C 0.6095(4) 0.6835(2) -0.3857(6)
C24C C -0.3905(4) 0.8165(2) -0.8857(6)
C25_2 C 0.1314(4) 0.5609(2) -1.8689(6)
C27B C -0.0036(4) 0.5177(2) -1.2536(6)
H13B H 0.0047 0.4860 -1.2515
C28B C -0.0178(4) 0.5833(3) -1.1601(7)
H14B H -0.0203 0.5991 -1.0939
C29B C -0.0245(4) 0.6075(3) -1.2581(6)
H15B H -0.0322 0.6394 -1.2596
C30B C -0.0195(4) 0.5835(2) -1.3527(6)
H16B H -0.0229 0.5994 -1.4199
C31B C 0.1575(4) 0.4536(2) -0.3994(6)
C31_2 C 0.8425(4) 0.5464(2) -1.6006(6)
C33C C 0.2116(5) 0.7199(3) -0.7736(6)
C33_2 C 0.2116(5) 0.7801(3) -1.2736(6)
C34A C 0.2941(4) 0.3214(2) -1.2893(6)
C34_2 C 0.7059(4) 0.8214(2) -1.2107(6)
C35A C 0.2541(4) 0.4270(3) 0.2912(7)
C35C C -0.2541(4) 0.5730(3) -0.2912(7)
C36A C 0.7732(5) 0.4169(3) 0.2739(7)
C36C C 0.2268(5) 0.5831(3) -0.2739(7)
C36A_2 C 0.7732(5) 0.4169(3) -0.7261(7)
loop_
_geom_bond_atom_site_label_1
_geom_bond_atom_site_label_2
_geom_bond_site_symmetry_1
_geom_bond_site_symmetry_2
Ag1 C3 1_555 1_555
Ag2 C4 1_555 1_555
Ag3 C21 1_555 1_555
Ag4 C22 1_555 1_555
Ag5 N27 1_555 1_555
Ag6 N25 1_555 1_555
Ag7 C11 1_555 1_555
Ag8 C1 1_555 1_555
Ag9 C2 1_555 1_555
Ag10 C23 1_555 1_555
Ag11 N28 1_555 1_555
Ag12 N26 1_555 1_555
Fe1 N1 1_555 1_555
Fe2 N7 1_555 1_555
Fe3 N13 1_555 1_555
Fe4 N19 1_555 1_555
Fe5 N22 1_555 1_555
N1 C1 1_555 1_555
N2 Fe1 1_555 1_555
N3 Fe1 1_555 1_555
N4 Fe1 1_555 1_555
N5 Fe1 1_555 1_555
N6 Fe1 1_555 1_555
N7 C9 1_555 1_555
N8 Fe2 1_555 1_555
N9 Fe2 1_555 1_555
N10 Fe2 1_555 1_555
N11 Fe2 1_555 1_555
N12 Fe2 1_555 1_555
N13 C21 1_555 1_555
N14 Fe3 1_555 1_555
N15 Fe3 1_555 1_555
N16 Fe3 1_555 1_555
N17 Fe3 1_555 1_555
N18 Fe3 1_555 1_555
N19 C25 1_555 1_555
N20 Fe4 1_555 1_555
N21 Fe4 1_555 1_555
N22 C31B 1_555 1_555
N23 Fe5 1_555 1_555
N24 Fe5 1_555 1_555
N25 C33C 1_555 1_555
N26 C34A 1_555 1_555
N27 C35A 1_555 1_555
N28 C36A 1_555 1_555
C2 N2 1_555 1_555
C3 N3 1_555 1_555
C4 N4 1_555 1_555
C5 N5 1_555 1_555
H1 C5 1_555 1_555
C6 N5 1_555 1_555
H2 C6 1_555 1_555
C7 C6 1_555 1_555
H3 C7 1_555 1_555
C8 N6 1_555 1_555
H4 C8 1_555 1_555
C9 Ag5 1_555 1_555
C10 Ag11 1_555 1_555
C11 N9 1_555 1_555
C12 Ag2 1_555 1_555
C13 N11 1_555 1_555
H5 C13 1_555 1_555
C14 N11 1_555 1_555
H6 C14 1_555 1_555
C15 C14 1_555 1_555
H7 C15 1_555 1_555
C16 N18 1_555 1_555
H8 C16 1_555 1_555
C17 N12 1_555 1_555
H9 C17 1_555 1_555
C18 N12 1_555 1_555
H10 C18 1_555 1_555
C19 C18 1_555 1_555
H11 C19 1_555 1_555
C20 N17 1_555 1_555
H12 C20 1_555 1_555
C22 N14 1_555 1_555
C23 N15 1_555 1_555
C24 Ag8 1_555 1_555
C25 Ag4 1_555 1_555
C26 Ag12 1_555 1_555
C27 N21 1_555 1_555
H13 C27 1_555 1_555
C28 N21 1_555 1_555
H14 C28 1_555 1_555
C29 C28 1_555 1_555
H15 C29 1_555 1_555
C30 N24 1_555 1_555
H16 C30 1_555 1_555
C31 Ag10 1_555 1_555
C32 Ag6 1_555 1_555
C33 Ag3 1_555 1_555
C34 Ag7 1_555 1_555
C35 Ag9 1_555 1_555
C36 Ag1 1_555 1_555
Ag1A C36A 1_555 1_555
Ag1C C3C 1_555 1_555
Ag1A_2 C36A_2 1_555 1_555
Ag2C C4C 1_555 1_555
Ag2_2 C4_2 1_555 1_555
Ag3C C33C 1_555 1_555
Ag3_2 C21_2 1_555 1_555
Ag4_2 C22_2 1_555 1_555
Ag5A N27A 1_555 1_555
Ag5_2 N27_2 1_555 1_555
Ag6C N25C 1_555 1_555
Ag7A C34A 1_555 1_555
Ag7_2 C11_2 1_555 1_555
Ag8_2 C1_2 1_555 1_555
Ag8C C1C 1_555 1_555
Ag9A C35A 1_555 1_555
Ag9C C2C 1_555 1_555
Ag10B C31B 1_555 1_555
Ag10_2 C23_2 1_555 1_555
Ag11A N28A 1_555 1_555
Ag11_2 N28_2 1_555 1_555
Ag12A N26A 1_555 1_555
Fe1C N6C 1_555 1_555
Fe1C_2 N1C 1_555 1_555
Fe1_2 N1_2 1_555 1_555
Fe1_3 N4_2 1_555 1_555
Fe2_2 N7_2 1_555 1_555
Fe3_2 N17_2 1_555 1_555
Fe3_3 N16_2 1_555 1_555
Fe3_4 N13_2 1_555 1_555
Fe5_2 N22B_2 1_555 1_555
Fe5_3 N24B_2 1_555 1_555
N1C C1C 1_555 1_555
N1_2 C1_2 1_555 1_555
N2C Fe1C_2 1_555 1_555
N3C Fe1C_2 1_555 1_555
N4C Fe1C_2 1_555 1_555
N4_2 C4_2 1_555 1_555
N5C Fe1C_2 1_555 1_555
N6C C5 1_555 1_555
N6C_2 Fe1C_2 1_555 1_555
N7_2 C9_2 1_555 1_555
N8_2 Fe2_2 1_555 1_555
N9_2 Fe2_2 1_555 1_555
N10_2 Fe2_2 1_555 1_555
N11_2 Fe2_2 1_555 1_555
N12_2 Fe2_2 1_555 1_555
N13_2 C21_2 1_555 1_555
N14_2 Fe3_4 1_555 1_555
N15_2 Fe3_4 1_555 1_555
N16_2 C24 1_555 1_555
N16_3 Fe3_4 1_555 1_555
N17_2 C17 1_555 1_555
N17_3 Fe3_4 1_555 1_555
N18_2 Fe3_4 1_555 1_555
N19B Fe4 1_555 1_555
N20B Fe4 1_555 1_555
N21B Fe4 1_555 1_555
N22B Fe5 1_555 1_555
N22B_2 C31 1_555 1_555
N23B Fe5 1_555 1_555
N24B Fe5 1_555 1_555
N24B_2 C27B 1_555 1_555
N25C C33 1_555 1_555
N26A C34 1_555 1_555
N27A C35 1_555 1_555
N28A C36 1_555 1_555
N28_2 C36A_2 1_555 1_555
C2C N2C 1_555 1_555
C3C N3C 1_555 1_555
C4C N4C 1_555 1_555
C5C N6 1_555 1_555
H1C C5C 1_555 1_555
C6C N5C 1_555 1_555
H2C C6C 1_555 1_555
C7C C8 1_555 1_555
H3C C7C 1_555 1_555
C8C C7 1_555 1_555
H4C C8C 1_555 1_555
C9_2 Ag5_2 1_555 1_555
C10_2 Ag11_2 1_555 1_555
C11_2 N9_2 1_555 1_555
C12C Ag2C 1_555 1_555
C12_2 Ag2_2 1_555 1_555
C13_2 N11_2 1_555 1_555
H5_2 C13_2 1_555 1_555
C14_2 N11_2 1_555 1_555
H6_2 C14_2 1_555 1_555
C15_2 C14_2 1_555 1_555
H7_2 C15_2 1_555 1_555
C16_2 N18_2 1_555 1_555
H8_2 C16_2 1_555 1_555
C17_2 N17 1_555 1_555
H9_2 C17_2 1_555 1_555
C18_2 N12_2 1_555 1_555
H10_2 C18_2 1_555 1_555
C19_2 C20 1_555 1_555
H11_2 C19_2 1_555 1_555
C20_2 C19 1_555 1_555
H12_2 C20_2 1_555 1_555
C22_2 N14_2 1_555 1_555
C23_2 N15_2 1_555 1_555
C24_2 N16 1_555 1_555
C24C Ag8C 1_555 1_555
C25_2 Ag4_2 1_555 1_555
C27B N21B 1_555 1_555
H13B C27B 1_555 1_555
C28B N21B 1_555 1_555
H14B C28B 1_555 1_555
C29B C28B 1_555 1_555
H15B C29B 1_555 1_555
C30B N24B_2 1_555 1_555
H16B C30B 1_555 1_555
C31_2 Ag10_2 1_555 1_555
C33_2 Ag3_2 1_555 1_555
C34_2 Ag7_2 1_555 1_555
C35C Ag9C 1_555 1_555
C36C Ag1C 1_555 1_555
N8 C10 1_555 1_555
N10 C12 1_555 1_555
N18 C13 1_555 1_555
N20 C26 1_555 1_555
N23 C32 1_555 1_555
N24 C27 1_555 1_555
C15 C16 1_555 1_555
C29 C30 1_555 1_555
Ag8_2 C24_2 1_555 1_555
N5C C5C 1_555 1_555
N6C C8C 1_555 1_555
N8_2 C10_2 1_555 1_555
N10_2 C12_2 1_555 1_555
N12_2 C17_2 1_555 1_555
N17_2 C20_2 1_555 1_555
N18_2 C13_2 1_555 1_555
C6C C7C 1_555 1_555
C15_2 C16_2 1_555 1_555
C18_2 C19_2 1_555 1_555
C29B C30B 1_555 1_555

#END
