
#######################################################################
#
#                 Cambridge Crystallographic Data Centre
#                                CCDC 
#
#######################################################################
#
# If this CIF has been generated from an entry in the Cambridge 
# Structural Database, then it will include bibliographic, chemical, 
# crystal, experimental, refinement or atomic coordinate data resulting 
# from the CCDC's data processing and validation procedures.
#
#######################################################################

data_WALNAZ02
_symmetry_cell_setting           monoclinic
_symmetry_space_group_name_H-M   'P 21/c'
_symmetry_Int_Tables_number      14
_space_group_name_Hall           '-P 2ybc'
loop_
_symmetry_equiv_pos_site_id
_symmetry_equiv_pos_as_xyz
1 x,y,z
2 -x,1/2+y,1/2-z
3 -x,-y,-z
4 x,1/2-y,1/2+z
_cell_length_a                   17.2546(5)
_cell_length_b                   29.5187(10)
_cell_length_c                   11.9267(5)
_cell_angle_alpha                90
_cell_angle_beta                 96.909(2)
_cell_angle_gamma                90
_cell_volume                     6030.55
loop_
_atom_site_label
_atom_site_type_symbol
_atom_site_fract_x
_atom_site_fract_y
_atom_site_fract_z
Ag1 Ag 0.17029(6) 0.86083(3) 0.14223(8)
Ag2 Ag 0.21645(5) 0.68834(3) -0.12160(8)
Ag3 Ag 0.26877(5) 0.73332(3) -0.36285(8)
Ag4 Ag 0.23546(5) 0.56570(3) -0.75290(8)
Ag5 Ag 0.32017(6) 0.49722(3) 0.12692(9)
Ag6 Ag 0.14847(5) 0.63578(3) -0.63945(8)
Ag7 Ag 0.66205(5) 0.76804(3) -0.12087(8)
Ag8 Ag -0.29259(5) 0.69709(3) -0.28300(8)
Ag9 Ag -0.21332(6) 0.87727(3) 0.10543(8)
Ag10 Ag 0.72506(5) 0.55866(3) -0.60055(7)
Ag11 Ag 0.68939(6) 0.50384(3) 0.16797(8)
Ag12 Ag 0.21981(6) 0.40108(3) -1.15884(8)
Fe1 Fe -0.04257(8) 0.75104(5) -0.04457(12)
Fe2 Fe 0.49386(8) 0.62910(4) -0.01182(11)
Fe3 Fe 0.47077(8) 0.62939(4) -0.51495(11)
Fe4 Fe 0.0000 0.5000 -1.0000
Fe5 Fe 0.0000 0.5000 -0.5000
N1 N -0.1322(5) 0.7153(3) -0.1225(7)
N2 N -0.1179(5) 0.7976(3) 0.0035(7)
N3 N 0.0452(5) 0.7897(3) 0.0306(7)
N4 N 0.0392(5) 0.7079(3) -0.0952(8)
N5 N -0.0419(5) 0.7142(3) 0.1032(7)
N6 N -0.0398(5) 0.7875(3) -0.1943(7)
N7 N 0.4132(5) 0.5798(3) 0.0324(7)
N8 N 0.5823(5) 0.5854(3) 0.0645(7)
N9 N 0.5746(5) 0.6785(3) -0.0518(7)
N10 N 0.3989(5) 0.6701(3) -0.0900(7)
N11 N 0.4912(4) 0.5905(2) -0.1738(6)
N12 N 0.4834(5) 0.6670(3) 0.1467(7)
N13 N 0.3886(5) 0.6677(2) -0.4652(7)
N14 N 0.3895(5) 0.5913(3) -0.5904(7)
N15 N 0.5539(5) 0.5919(3) -0.5612(7)
N16 N 0.5520(5) 0.6686(3) -0.4387(7)
N17 N 0.4704(4) 0.6658(2) -0.6555(6)
N18 N 0.4746(4) 0.5926(3) -0.3740(7)
N19 N 0.0799(5) 0.5479(3) -0.9185(7)
N20 N 0.0959(5) 0.4613(3) -1.0447(7)
N21 N 0.0025(5) 0.4634(3) -0.8393(7)
N22 N 0.0969(5) 0.4735(3) -0.4343(7)
N23 N 0.0596(4) 0.5483(3) -0.5541(6)
N24 N 0.0062(4) 0.4644(3) -0.6393(6)
N25 N 0.1946(6) 0.6901(4) -0.7214(9)
N26 N 0.2711(6) 0.3505(3) -1.2465(8)
N27 N 0.2784(7) 0.4482(4) 0.2233(10)
N28 N 0.7455(7) 0.4470(4) 0.2409(10)
C1 C -0.1899(6) 0.7063(3) -0.1780(9)
C2 C -0.1546(6) 0.8265(3) 0.0312(9)
C3 C 0.0937(6) 0.8119(4) 0.0717(10)
C4 C 0.1004(7) 0.6967(4) -0.1103(9)
C5 C -0.0422(6) 0.7336(3) 0.2056(8)
H1 H -0.0444 0.7657 0.2071
C6 C -0.0378(7) 0.6683(4) 0.1059(11)
H2 H -0.0381 0.6527 0.0362
C7 C -0.0333(7) 0.6435(4) 0.2013(10)
H3 H -0.0285 0.6115 0.1993
C8 C -0.0360(6) 0.8340(4) -0.1982(10)
H4 H -0.0352 0.8509 -0.1302
C9 C 0.3765(6) 0.5497(3) 0.0597(9)
C10 C 0.6244(6) 0.5579(3) 0.1016(9)
C11 C 0.6094(6) 0.7098(3) -0.0678(9)
C12 C 0.3344(6) 0.6790(3) -0.1075(9)
C13 C 0.4816(5) 0.6112(3) -0.2734(8)
H5 H 0.4795 0.6433 -0.2716
C14 C 0.4935(6) 0.5444(3) -0.1765(9)
H6 H 0.5005 0.5281 -0.1074
C15 C 0.4861(6) 0.5209(4) -0.2769(9)
H7 H 0.4877 0.4888 -0.2792
C16 C 0.4761(6) 0.5467(3) -0.3744(9)
H8 H 0.4700 0.5315 -0.4452
C17 C 0.4786(6) 0.6459(3) 0.2454(8)
H9 H 0.4814 0.6138 0.2450
C18 C 0.4762(6) 0.7127(3) 0.1477(9)
H10 H 0.4781 0.7291 0.0795
C19 C 0.4663(6) 0.7358(4) 0.2439(8)
H11 H 0.4609 0.7679 0.2434
C20 C 0.4643(5) 0.7111(3) -0.6571(8)
H12 H 0.4586 0.7267 -0.5890
C21 C 0.3421(6) 0.6901(3) -0.4346(8)
C22 C 0.3352(6) 0.5771(4) -0.6443(9)
C23 C 0.6121(6) 0.5762(3) -0.5812(9)
C24 C -0.3918(6) 0.6842(3) -0.3899(9)
C25 C 0.1373(6) 0.5560(4) -0.8625(9)
C26 C 0.1445(6) 0.4427(3) -1.0787(9)
C27 C -0.0016(6) 0.4837(3) -0.7428(8)
H13 H -0.0112 0.5154 -0.7457
C28 C 0.0134(6) 0.4179(4) -0.8339(9)
H14 H 0.0151 0.4018 -0.9026
C29 C 0.0220(6) 0.3940(4) -0.7360(8)
H15 H 0.0293 0.3621 -0.7349
C30 C 0.0197(6) 0.4189(3) -0.6373(9)
H16 H 0.0277 0.4037 -0.5666
C31 C 0.8404(6) 0.5409(3) -0.5891(8)
C32 C 0.0954(6) 0.5794(3) -0.5808(9)
C33 C 0.2150(6) 0.7820(4) -0.2779(9)
C34 C 0.7034(6) 0.8225(3) -0.2019(9)
C35 C -0.2556(7) 0.9230(4) 0.2083(10)
C36 C 0.2302(7) 0.9144(4) 0.2146(10)
Ag1C Ag 0.17029(6) 0.63917(3) -0.35777(8)
Ag1A Ag 0.82971(6) 0.36083(3) -0.64223(8)
Ag1A_2 Ag 0.82971(6) 0.36083(3) 0.35777(8)
Ag2C Ag 0.21645(5) 0.81166(3) -0.62160(8)
Ag2_2 Ag 0.21645(5) 0.68834(3) -1.12160(8)
Ag3C Ag 0.26877(5) 0.76668(3) -0.86285(8)
Ag3_2 Ag 0.26877(5) 0.73332(3) -1.36285(8)
Ag4_2 Ag 0.23546(5) 0.56570(3) -1.75290(8)
Ag5A Ag -0.32017(6) 0.99722(3) 0.37308(9)
Ag5_2 Ag 0.32017(6) 0.49722(3) -0.87308(9)
Ag6C Ag 0.14847(5) 0.86422(3) -0.13945(8)
Ag7A Ag 0.33795(5) 0.26804(3) -1.37913(8)
Ag7_2 Ag 0.66205(5) 0.76804(3) -1.12087(8)
Ag8_2 Ag 0.70741(5) 0.69709(3) -0.28300(8)
Ag8C Ag -0.29259(5) 0.80291(3) -0.78300(8)
Ag9A Ag 0.21332(6) 0.37727(3) 0.39457(8)
Ag9C Ag -0.21332(6) 0.62273(3) -0.39457(8)
Ag10B Ag 0.27494(5) 0.44134(3) -0.39945(7)
Ag10_2 Ag 0.72506(5) 0.55866(3) -1.60055(7)
Ag11A Ag 0.31061(6) 1.00384(3) 0.33203(8)
Ag11_2 Ag 0.68939(6) 0.50384(3) -0.83203(8)
Ag12A Ag 0.78019(6) 0.90108(3) -0.34116(8)
Fe1_2 Fe 0.95743(8) 0.75104(5) -0.04457(12)
Fe1C Fe -0.04257(8) 0.74896(5) 0.45543(12)
Fe1C_2 Fe -0.04257(8) 0.74896(5) -0.54457(12)
Fe1_3 Fe -0.04257(8) 0.75104(5) -1.04457(12)
Fe2_2 Fe 0.49386(8) 0.62910(4) -1.01182(11)
Fe3_2 Fe 0.47077(8) 0.62939(4) 0.48505(11)
Fe3_3 Fe -0.52923(8) 0.62939(4) -0.51495(11)
Fe3_4 Fe 0.47077(8) 0.62939(4) -1.51495(11)
Fe5_2 Fe 0.0000 0.5000 -1.5000
Fe5_3 Fe 1.0000 0.5000 -0.5000
N1_2 N 0.8678(5) 0.7153(3) -0.1225(7)
N1C N -0.1322(5) 0.7847(3) -0.6225(7)
N2C N -0.1179(5) 0.7024(3) -0.4965(7)
N3C N 0.0452(5) 0.7103(3) -0.4694(7)
N4C N 0.0392(5) 0.7921(3) -0.5952(8)
N4_2 N 0.0392(5) 0.7079(3) -1.0952(8)
N5C N -0.0419(5) 0.7858(3) -0.3968(7)
N6C N -0.0398(5) 0.7125(3) 0.3057(7)
N6C_2 N -0.0398(5) 0.7125(3) -0.6943(7)
N7_2 N 0.4132(5) 0.5798(3) -0.9676(7)
N8_2 N 0.5823(5) 0.5854(3) -0.9355(7)
N9_2 N 0.5746(5) 0.6785(3) -1.0518(7)
N10_2 N 0.3989(5) 0.6701(3) -1.0900(7)
N11_2 N 0.4912(4) 0.5905(2) -1.1738(6)
N12_2 N 0.4834(5) 0.6670(3) -0.8533(7)
N13_2 N 0.3886(5) 0.6677(2) -1.4652(7)
N14_2 N 0.3895(5) 0.5913(3) -1.5904(7)
N15_2 N 0.5539(5) 0.5919(3) -1.5612(7)
N16_2 N -0.4480(5) 0.6686(3) -0.4387(7)
N16_3 N 0.5520(5) 0.6686(3) -1.4387(7)
N17_2 N 0.4704(4) 0.6658(2) 0.3445(6)
N17_3 N 0.4704(4) 0.6658(2) -1.6555(6)
N18_2 N 0.4746(4) 0.5926(3) -1.3740(7)
N19B N -0.0799(5) 0.4521(3) -1.0815(7)
N20B N -0.0959(5) 0.5387(3) -0.9553(7)
N21B N -0.0025(5) 0.5366(3) -1.1607(7)
N22B N -0.0969(5) 0.5265(3) -0.5657(7)
N22B_2 N 0.9031(5) 0.5265(3) -0.5657(7)
N23B N -0.0596(4) 0.4517(3) -0.4459(6)
N24B N -0.0062(4) 0.5356(3) -0.3607(6)
N24B_2 N -0.0062(4) 0.5356(3) -1.3607(6)
N25C N 0.1946(6) 0.8099(4) -0.2214(9)
N26A N 0.7289(6) 0.8505(3) -0.2535(8)
N27A N -0.2784(7) 0.9482(4) 0.2767(10)
N27_2 N 0.2784(7) 0.4482(4) -0.7767(10)
N28A N 0.2545(7) 0.9470(4) 0.2591(10)
N28_2 N 0.7455(7) 0.4470(4) -0.7591(10)
C1_2 C 0.8101(6) 0.7063(3) -0.1780(9)
C1C C -0.1899(6) 0.7937(3) -0.6780(9)
C2C C -0.1546(6) 0.6735(3) -0.4688(9)
C3C C 0.0937(6) 0.6881(4) -0.4283(10)
C4C C 0.1004(7) 0.8033(4) -0.6103(9)
C4_2 C 0.1004(7) 0.6967(4) -1.1103(9)
C5C C -0.0422(6) 0.7664(3) -0.2944(8)
H1C H -0.0444 0.7343 -0.2929
C6C C -0.0378(7) 0.8317(4) -0.3941(11)
H2C H -0.0381 0.8473 -0.4638
C7C C -0.0333(7) 0.8565(4) -0.2987(10)
H3C H -0.0285 0.8885 -0.3007
C8C C -0.0360(6) 0.6660(4) 0.3018(10)
H4C H -0.0352 0.6491 0.3698
C9_2 C 0.3765(6) 0.5497(3) -0.9403(9)
C10_2 C 0.6244(6) 0.5579(3) -0.8984(9)
C11_2 C 0.6094(6) 0.7098(3) -1.0678(9)
C12C C 0.3344(6) 0.8210(3) -0.6075(9)
C12_2 C 0.3344(6) 0.6790(3) -1.1075(9)
C13_2 C 0.4816(5) 0.6112(3) -1.2734(8)
H5_2 H 0.4795 0.6433 -1.2716
C14_2 C 0.4935(6) 0.5444(3) -1.1765(9)
H6_2 H 0.5005 0.5281 -1.1074
C15_2 C 0.4861(6) 0.5209(4) -1.2769(9)
H7_2 H 0.4877 0.4888 -1.2792
C16_2 C 0.4761(6) 0.5467(3) -1.3744(9)
H8_2 H 0.4700 0.5315 -1.4452
C17_2 C 0.4786(6) 0.6459(3) -0.7546(8)
H9_2 H 0.4814 0.6138 -0.7550
C18_2 C 0.4762(6) 0.7127(3) -0.8523(9)
H10_2 H 0.4781 0.7291 -0.9205
C19_2 C 0.4663(6) 0.7358(4) -0.7561(8)
H11_2 H 0.4609 0.7679 -0.7566
C20_2 C 0.4643(5) 0.7111(3) 0.3429(8)
H12_2 H 0.4586 0.7267 0.4110
C21_2 C 0.3421(6) 0.6901(3) -1.4346(8)
C22_2 C 0.3352(6) 0.5771(4) -1.6443(9)
C23_2 C 0.6121(6) 0.5762(3) -1.5812(9)
C24_2 C 0.6082(6) 0.6842(3) -0.3899(9)
C24C C -0.3918(6) 0.8158(3) -0.8899(9)
C25_2 C 0.1373(6) 0.5560(4) -1.8625(9)
C27B C 0.0016(6) 0.5163(3) -1.2572(8)
H13B H 0.0112 0.4846 -1.2543
C28B C -0.0134(6) 0.5821(4) -1.1661(9)
H14B H -0.0151 0.5982 -1.0974
C29B C -0.0220(6) 0.6060(4) -1.2640(8)
H15B H -0.0293 0.6379 -1.2651
C30B C -0.0197(6) 0.5811(3) -1.3627(9)
H16B H -0.0277 0.5963 -1.4334
C31B C 0.1596(6) 0.4591(3) -0.4109(8)
C31_2 C 0.8404(6) 0.5409(3) -1.5891(8)
C33C C 0.2150(6) 0.7180(4) -0.7779(9)
C33_2 C 0.2150(6) 0.7820(4) -1.2779(9)
C34A C 0.2966(6) 0.3225(3) -1.2981(9)
C34_2 C 0.7034(6) 0.8225(3) -1.2019(9)
C35A C 0.2556(7) 0.4230(4) 0.2917(10)
C35C C -0.2556(7) 0.5770(4) -0.2917(10)
C36A C 0.7698(7) 0.4144(4) 0.2854(10)
C36C C 0.2302(7) 0.5856(4) -0.2854(10)
C36A_2 C 0.7698(7) 0.4144(4) -0.7146(10)
loop_
_geom_bond_atom_site_label_1
_geom_bond_atom_site_label_2
_geom_bond_site_symmetry_1
_geom_bond_site_symmetry_2
Ag1 C3 1_555 1_555
Ag2 C4 1_555 1_555
Ag3 C21 1_555 1_555
Ag4 C22 1_555 1_555
Ag5 N27 1_555 1_555
Ag6 N25 1_555 1_555
Ag7 C11 1_555 1_555
Ag8 C1 1_555 1_555
Ag9 C2 1_555 1_555
Ag10 C23 1_555 1_555
Ag11 N28 1_555 1_555
Ag12 N26 1_555 1_555
Fe1 N1 1_555 1_555
Fe2 N7 1_555 1_555
Fe3 N13 1_555 1_555
Fe4 N19 1_555 1_555
Fe5 N22 1_555 1_555
N1 C1 1_555 1_555
N2 Fe1 1_555 1_555
N3 Fe1 1_555 1_555
N4 Fe1 1_555 1_555
N5 Fe1 1_555 1_555
N6 Fe1 1_555 1_555
N7 C9 1_555 1_555
N8 Fe2 1_555 1_555
N9 Fe2 1_555 1_555
N10 Fe2 1_555 1_555
N11 Fe2 1_555 1_555
N12 Fe2 1_555 1_555
N13 C21 1_555 1_555
N14 Fe3 1_555 1_555
N15 Fe3 1_555 1_555
N16 Fe3 1_555 1_555
N17 Fe3 1_555 1_555
N18 Fe3 1_555 1_555
N19 C25 1_555 1_555
N20 Fe4 1_555 1_555
N21 Fe4 1_555 1_555
N22 C31B 1_555 1_555
N23 Fe5 1_555 1_555
N24 Fe5 1_555 1_555
N25 C33C 1_555 1_555
N26 C34A 1_555 1_555
N27 C35A 1_555 1_555
N28 C36A 1_555 1_555
C2 N2 1_555 1_555
C3 N3 1_555 1_555
C4 N4 1_555 1_555
C5 N5 1_555 1_555
H1 C5 1_555 1_555
C6 N5 1_555 1_555
H2 C6 1_555 1_555
C7 C6 1_555 1_555
H3 C7 1_555 1_555
C8 N6 1_555 1_555
H4 C8 1_555 1_555
C9 Ag5 1_555 1_555
C10 Ag11 1_555 1_555
C11 N9 1_555 1_555
C12 Ag2 1_555 1_555
C13 N11 1_555 1_555
H5 C13 1_555 1_555
C14 N11 1_555 1_555
H6 C14 1_555 1_555
C15 C14 1_555 1_555
H7 C15 1_555 1_555
C16 N18 1_555 1_555
H8 C16 1_555 1_555
C17 N12 1_555 1_555
H9 C17 1_555 1_555
C18 N12 1_555 1_555
H10 C18 1_555 1_555
C19 C18 1_555 1_555
H11 C19 1_555 1_555
C20 N17 1_555 1_555
H12 C20 1_555 1_555
C22 N14 1_555 1_555
C23 N15 1_555 1_555
C24 Ag8 1_555 1_555
C25 Ag4 1_555 1_555
C26 Ag12 1_555 1_555
C27 N21 1_555 1_555
H13 C27 1_555 1_555
C28 N21 1_555 1_555
H14 C28 1_555 1_555
C29 C28 1_555 1_555
H15 C29 1_555 1_555
C30 N24 1_555 1_555
H16 C30 1_555 1_555
C31 Ag10 1_555 1_555
C32 Ag6 1_555 1_555
C33 Ag3 1_555 1_555
C34 Ag7 1_555 1_555
C35 Ag9 1_555 1_555
C36 Ag1 1_555 1_555
Ag1C C3C 1_555 1_555
Ag1A C36A_2 1_555 1_555
Ag1A_2 C36A 1_555 1_555
Ag2C C4C 1_555 1_555
Ag2_2 C4_2 1_555 1_555
Ag3C C33C 1_555 1_555
Ag3_2 C21_2 1_555 1_555
Ag4_2 C22_2 1_555 1_555
Ag5A N27A 1_555 1_555
Ag5_2 N27_2 1_555 1_555
Ag6C N25C 1_555 1_555
Ag7A C34A 1_555 1_555
Ag7_2 C11_2 1_555 1_555
Ag8_2 C1_2 1_555 1_555
Ag8C C1C 1_555 1_555
Ag9A C35A 1_555 1_555
Ag9C C2C 1_555 1_555
Ag10B C31B 1_555 1_555
Ag10_2 C23_2 1_555 1_555
Ag11A N28A 1_555 1_555
Ag11_2 N28_2 1_555 1_555
Ag12A N26A 1_555 1_555
Fe1_2 N1_2 1_555 1_555
Fe1C N6C 1_555 1_555
Fe1C_2 N1C 1_555 1_555
Fe1_3 N4_2 1_555 1_555
Fe2_2 N7_2 1_555 1_555
Fe3_2 N17_2 1_555 1_555
Fe3_3 N16_2 1_555 1_555
Fe3_4 N13_2 1_555 1_555
Fe5_2 N24B_2 1_555 1_555
Fe5_3 N22B_2 1_555 1_555
N1_2 C1_2 1_555 1_555
N1C C1C 1_555 1_555
N2C Fe1C_2 1_555 1_555
N3C Fe1C_2 1_555 1_555
N4C Fe1C_2 1_555 1_555
N4_2 C4_2 1_555 1_555
N5C Fe1C_2 1_555 1_555
N6C C5 1_555 1_555
N6C_2 Fe1C_2 1_555 1_555
N7_2 C9_2 1_555 1_555
N8_2 Fe2_2 1_555 1_555
N9_2 Fe2_2 1_555 1_555
N10_2 Fe2_2 1_555 1_555
N11_2 Fe2_2 1_555 1_555
N12_2 Fe2_2 1_555 1_555
N13_2 C21_2 1_555 1_555
N14_2 Fe3_4 1_555 1_555
N15_2 Fe3_4 1_555 1_555
N16_2 C24 1_555 1_555
N16_3 Fe3_4 1_555 1_555
N17_2 C17 1_555 1_555
N17_3 Fe3_4 1_555 1_555
N18_2 Fe3_4 1_555 1_555
N19B Fe4 1_555 1_555
N20B Fe4 1_555 1_555
N21B Fe4 1_555 1_555
N22B Fe5 1_555 1_555
N22B_2 C31 1_555 1_555
N23B Fe5 1_555 1_555
N24B Fe5 1_555 1_555
N24B_2 C27B 1_555 1_555
N25C C33 1_555 1_555
N26A C34 1_555 1_555
N27A C35 1_555 1_555
N28A C36 1_555 1_555
N28_2 C36A_2 1_555 1_555
C2C N2C 1_555 1_555
C3C N3C 1_555 1_555
C4C N4C 1_555 1_555
C5C N6 1_555 1_555
H1C C5C 1_555 1_555
C6C N5C 1_555 1_555
H2C C6C 1_555 1_555
C7C C8 1_555 1_555
H3C C7C 1_555 1_555
C8C C7 1_555 1_555
H4C C8C 1_555 1_555
C9_2 Ag5_2 1_555 1_555
C10_2 Ag11_2 1_555 1_555
C11_2 N9_2 1_555 1_555
C12C Ag2C 1_555 1_555
C12_2 Ag2_2 1_555 1_555
C13_2 N11_2 1_555 1_555
H5_2 C13_2 1_555 1_555
C14_2 N11_2 1_555 1_555
H6_2 C14_2 1_555 1_555
C15_2 C14_2 1_555 1_555
H7_2 C15_2 1_555 1_555
C16_2 N18_2 1_555 1_555
H8_2 C16_2 1_555 1_555
C17_2 N17 1_555 1_555
H9_2 C17_2 1_555 1_555
C18_2 N12_2 1_555 1_555
H10_2 C18_2 1_555 1_555
C19_2 C20 1_555 1_555
H11_2 C19_2 1_555 1_555
C20_2 C19 1_555 1_555
H12_2 C20_2 1_555 1_555
C22_2 N14_2 1_555 1_555
C23_2 N15_2 1_555 1_555
C24_2 N16 1_555 1_555
C24C Ag8C 1_555 1_555
C25_2 Ag4_2 1_555 1_555
C27B N21B 1_555 1_555
H13B C27B 1_555 1_555
C28B N21B 1_555 1_555
H14B C28B 1_555 1_555
C29B C28B 1_555 1_555
H15B C29B 1_555 1_555
C30B N24B_2 1_555 1_555
H16B C30B 1_555 1_555
C31_2 Ag10_2 1_555 1_555
C33_2 Ag3_2 1_555 1_555
C34_2 Ag7_2 1_555 1_555
C35C Ag9C 1_555 1_555
C36C Ag1C 1_555 1_555
N8 C10 1_555 1_555
N10 C12 1_555 1_555
N18 C13 1_555 1_555
N20 C26 1_555 1_555
N23 C32 1_555 1_555
N24 C27 1_555 1_555
C15 C16 1_555 1_555
C29 C30 1_555 1_555
Ag8_2 C24_2 1_555 1_555
N5C C5C 1_555 1_555
N6C C8C 1_555 1_555
N8_2 C10_2 1_555 1_555
N10_2 C12_2 1_555 1_555
N12_2 C17_2 1_555 1_555
N17_2 C20_2 1_555 1_555
N18_2 C13_2 1_555 1_555
C6C C7C 1_555 1_555
C15_2 C16_2 1_555 1_555
C18_2 C19_2 1_555 1_555
C29B C30B 1_555 1_555

#END
