
#######################################################################
#
#                 Cambridge Crystallographic Data Centre
#                                CCDC 
#
#######################################################################
#
# If this CIF has been generated from an entry in the Cambridge 
# Structural Database, then it will include bibliographic, chemical, 
# crystal, experimental, refinement or atomic coordinate data resulting 
# from the CCDC's data processing and validation procedures.
#
#######################################################################

data_WALNAZ03
_symmetry_cell_setting           monoclinic
_symmetry_space_group_name_H-M   'P 21/c'
_symmetry_Int_Tables_number      14
_space_group_name_Hall           '-P 2ybc'
loop_
_symmetry_equiv_pos_site_id
_symmetry_equiv_pos_as_xyz
1 x,y,z
2 -x,1/2+y,1/2-z
3 -x,-y,-z
4 x,1/2-y,1/2+z
_cell_length_a                   17.1793(6)
_cell_length_b                   29.2667(11)
_cell_length_c                   11.5799(5)
_cell_angle_alpha                90
_cell_angle_beta                 97.073(2)
_cell_angle_gamma                90
_cell_volume                     5777.85
loop_
_atom_site_label
_atom_site_type_symbol
_atom_site_fract_x
_atom_site_fract_y
_atom_site_fract_z
Ag1 Ag 0.17091(5) 0.86344(3) 0.15119(7)
Ag2 Ag 0.22034(4) 0.68854(3) -0.11870(7)
Ag3 Ag 0.26629(5) 0.73175(3) -0.37025(7)
Ag4 Ag 0.23436(4) 0.56785(3) -0.75906(7)
Ag5 Ag 0.32513(5) 0.49989(3) 0.12657(7)
Ag6 Ag 0.15291(5) 0.63655(3) -0.63207(7)
Ag7 Ag 0.65719(4) 0.76472(2) -0.13002(7)
Ag8 Ag -0.28394(4) 0.69501(3) -0.28043(7)
Ag9 Ag -0.20630(5) 0.87934(2) 0.10636(7)
Ag10 Ag 0.72795(4) 0.56027(3) -0.60924(7)
Ag11 Ag 0.69076(5) 0.50963(2) 0.15472(7)
Ag12 Ag 0.21156(5) 0.39896(3) -1.15349(7)
Fe1 Fe -0.03716(8) 0.75237(4) -0.03742(12)
Fe2 Fe 0.49295(8) 0.62835(4) -0.01517(11)
Fe3 Fe 0.47458(8) 0.62936(4) -0.51752(11)
Fe4 Fe 0.0000 0.5000 -1.0000
Fe5 Fe 0.0000 0.5000 -0.5000
N1 N -0.1244(4) 0.7174(3) -0.1134(7)
N2 N -0.1099(4) 0.7969(3) 0.0100(7)
N3 N 0.0469(5) 0.7900(3) 0.0377(7)
N4 N 0.0435(4) 0.7119(3) -0.0852(7)
N5 N -0.0383(4) 0.7159(3) 0.1083(7)
N6 N -0.0345(4) 0.7867(3) -0.1838(6)
N7 N 0.4228(4) 0.5821(2) 0.0335(7)
N8 N 0.5789(4) 0.5913(2) 0.0542(7)
N9 N 0.5629(4) 0.6751(2) -0.0609(7)
N10 N 0.4006(5) 0.6616(3) -0.0836(7)
N11 N 0.4929(4) 0.5928(2) -0.1652(7)
N12 N 0.4863(5) 0.6637(3) 0.1319(7)
N13 N 0.3938(4) 0.6686(3) -0.4703(7)
N14 N 0.3917(4) 0.5922(3) -0.5943(7)
N15 N 0.5567(5) 0.5905(3) -0.5643(7)
N16 N 0.5580(5) 0.6682(3) -0.4416(7)
N17 N 0.4755(4) 0.6641(2) -0.6664(7)
N18 N 0.4771(4) 0.5940(3) -0.3710(7)
N19 N 0.0796(5) 0.5393(3) -0.9231(7)
N20 N 0.0840(5) 0.4620(3) -1.0466(7)
N21 N 0.0014(4) 0.4650(3) -0.8523(7)
N22 N 0.0939(5) 0.4701(3) -0.4302(7)
N23 N 0.0642(4) 0.5478(3) -0.5496(7)
N24 N 0.0063(4) 0.4648(3) -0.6465(7)
N25 N 0.1932(5) 0.6920(3) -0.7182(8)
N26 N 0.2668(5) 0.3479(3) -1.2403(8)
N27 N 0.2766(6) 0.4504(3) 0.2241(9)
N28 N 0.7441(6) 0.4516(3) 0.2270(9)
C1 C -0.1811(6) 0.7054(3) -0.1686(9)
C2 C -0.1477(5) 0.8269(3) 0.0350(8)
C3 C 0.0966(5) 0.8132(3) 0.0805(8)
C4 C 0.1041(5) 0.6989(3) -0.1026(8)
C5 C -0.0369(5) 0.7360(3) 0.2130(8)
H1 H -0.0375 0.7685 0.2152
C6 C -0.0342(5) 0.6701(3) 0.1062(9)
H2 H -0.0348 0.6549 0.0337
C7 C -0.0291(5) 0.6446(3) 0.2078(8)
H3 H -0.0249 0.6122 0.2058
C8 C -0.0302(6) 0.8326(3) -0.1879(9)
H4 H -0.0279 0.8496 -0.1177
C9 C 0.3849(5) 0.5524(3) 0.0588(8)
C10 C 0.6252(6) 0.5651(3) 0.0913(9)
C11 C 0.6009(6) 0.7061(3) -0.0789(8)
C12 C 0.3391(6) 0.6758(3) -0.1063(8)
C13 C 0.4840(5) 0.6137(3) -0.2685(8)
H5 H 0.4825 0.6462 -0.2677
C14 C 0.4947(6) 0.5464(3) -0.1657(9)
H6 H 0.5012 0.5301 -0.0942
C15 C 0.4871(5) 0.5230(3) -0.2687(8)
H7 H 0.4885 0.4906 -0.2696
C16 C 0.4774(6) 0.5478(3) -0.3728(9)
H8 H 0.4709 0.5321 -0.4451
C17 C 0.4847(5) 0.6423(3) 0.2332(8)
H9 H 0.4903 0.6101 0.2349
C18 C 0.4769(5) 0.7096(3) 0.1295(8)
H10 H 0.4776 0.7254 0.0580
C19 C 0.4665(5) 0.7339(3) 0.2280(8)
H11 H 0.4596 0.7661 0.2256
C20 C 0.4664(5) 0.7096(3) -0.6686(9)
H12 H 0.4599 0.7254 -0.5989
C21 C 0.3435(6) 0.6899(3) -0.4417(9)
C22 C 0.3365(5) 0.5783(3) -0.6506(8)
C23 C 0.6150(6) 0.5747(3) -0.5858(9)
C24 C -0.3858(6) 0.6825(3) -0.3914(9)
C25 C 0.1342(6) 0.5551(4) -0.8712(9)
C26 C 0.1336(6) 0.4411(3) -1.0774(8)
C27 C 0.0004(5) 0.4853(3) -0.7510(8)
H13 H -0.0049 0.5176 -0.7519
C28 C 0.0071(6) 0.4190(3) -0.8514(9)
H14 H 0.0061 0.4031 -0.9231
C29 C 0.0143(6) 0.3947(3) -0.7488(8)
H15 H 0.0186 0.3623 -0.7487
C30 C 0.0151(5) 0.4187(3) -0.6459(8)
H16 H 0.0220 0.4028 -0.5739
C31 C 0.8445(6) 0.5448(3) -0.5985(9)
C32 C 0.1008(5) 0.5787(3) -0.5741(8)
C33 C 0.2130(6) 0.7807(3) -0.2778(9)
C34 C 0.7053(5) 0.8195(3) -0.2087(8)
C35 C -0.2529(6) 0.9257(3) 0.2084(9)
C36 C 0.2298(6) 0.9184(4) 0.2284(9)
Ag1A Ag 0.82909(5) 0.36344(3) -0.65119(7)
Ag1A_2 Ag 0.82909(5) 0.36344(3) 0.34881(7)
Ag1C Ag 0.17091(5) 0.63656(3) -0.34881(7)
Ag2_2 Ag 0.22034(4) 0.68854(3) -1.11870(7)
Ag2C Ag 0.22034(4) 0.81146(3) -0.61870(7)
Ag3C Ag 0.26629(5) 0.76825(3) -0.87025(7)
Ag3_2 Ag 0.26629(5) 0.73175(3) -1.37025(7)
Ag4_2 Ag 0.23436(4) 0.56785(3) -1.75906(7)
Ag5_2 Ag 0.32513(5) 0.49989(3) -0.87343(7)
Ag5A Ag -0.32513(5) 0.99989(3) 0.37343(7)
Ag6C Ag 0.15291(5) 0.86345(3) -0.13207(7)
Ag7A Ag 0.34281(4) 0.26472(2) -1.36998(7)
Ag7_2 Ag 0.65719(4) 0.76472(2) -1.13002(7)
Ag8_2 Ag 0.71606(4) 0.69501(3) -0.28043(7)
Ag8C Ag -0.28394(4) 0.80499(3) -0.78043(7)
Ag9A Ag 0.20630(5) 0.37934(2) 0.39364(7)
Ag9C Ag -0.20630(5) 0.62066(2) -0.39364(7)
Ag10B Ag 0.27205(4) 0.43973(3) -0.39076(7)
Ag10_2 Ag 0.72795(4) 0.56027(3) -1.60924(7)
Ag11_2 Ag 0.69076(5) 0.50963(2) -0.84528(7)
Ag11A Ag 0.30924(5) 1.00963(2) 0.34528(7)
Ag12A Ag 0.78844(5) 0.89896(3) -0.34651(7)
Fe1_2 Fe 0.96284(8) 0.75237(4) -0.03742(12)
Fe1_3 Fe -0.03716(8) 0.75237(4) -1.03742(12)
Fe1C Fe -0.03716(8) 0.74763(4) 0.46258(12)
Fe1C_2 Fe -0.03716(8) 0.74763(4) -0.53742(12)
Fe2_2 Fe 0.49295(8) 0.62835(4) -1.01517(11)
Fe3_2 Fe 0.47458(8) 0.62936(4) -1.51752(11)
Fe3_3 Fe 0.47458(8) 0.62936(4) 0.48248(11)
Fe3_4 Fe -0.52542(8) 0.62936(4) -0.51752(11)
Fe5_2 Fe 0.0000 0.5000 -1.5000
Fe5_3 Fe 1.0000 0.5000 -0.5000
N1_2 N 0.8756(4) 0.7174(3) -0.1134(7)
N1C N -0.1244(4) 0.7826(3) -0.6134(7)
N2C N -0.1099(4) 0.7031(3) -0.4900(7)
N3C N 0.0469(5) 0.7100(3) -0.4623(7)
N4_2 N 0.0435(4) 0.7119(3) -1.0852(7)
N4C N 0.0435(4) 0.7881(3) -0.5852(7)
N5C N -0.0383(4) 0.7841(3) -0.3917(7)
N6C N -0.0345(4) 0.7133(3) 0.3162(6)
N6C_2 N -0.0345(4) 0.7133(3) -0.6838(6)
N7_2 N 0.4228(4) 0.5821(2) -0.9665(7)
N8_2 N 0.5789(4) 0.5913(2) -0.9458(7)
N9_2 N 0.5629(4) 0.6751(2) -1.0609(7)
N10_2 N 0.4006(5) 0.6616(3) -1.0836(7)
N11_2 N 0.4929(4) 0.5928(2) -1.1652(7)
N12_2 N 0.4863(5) 0.6637(3) -0.8681(7)
N13_2 N 0.3938(4) 0.6686(3) -1.4703(7)
N14_2 N 0.3917(4) 0.5922(3) -1.5943(7)
N15_2 N 0.5567(5) 0.5905(3) -1.5643(7)
N16_2 N -0.4420(5) 0.6682(3) -0.4416(7)
N16_3 N 0.5580(5) 0.6682(3) -1.4416(7)
N17_2 N 0.4755(4) 0.6641(2) 0.3336(7)
N17_3 N 0.4755(4) 0.6641(2) -1.6664(7)
N18_2 N 0.4771(4) 0.5940(3) -1.3710(7)
N19B N -0.0796(5) 0.4607(3) -1.0769(7)
N20B N -0.0840(5) 0.5380(3) -0.9534(7)
N21B N -0.0014(4) 0.5350(3) -1.1477(7)
N22B N -0.0939(5) 0.5299(3) -0.5698(7)
N22B_2 N 0.9061(5) 0.5299(3) -0.5698(7)
N23B N -0.0642(4) 0.4522(3) -0.4504(7)
N24B N -0.0063(4) 0.5352(3) -0.3535(7)
N24B_2 N -0.0063(4) 0.5352(3) -1.3535(7)
N25C N 0.1932(5) 0.8080(3) -0.2182(8)
N26A N 0.7332(5) 0.8479(3) -0.2597(8)
N27A N -0.2766(6) 0.9504(3) 0.2759(9)
N27_2 N 0.2766(6) 0.4504(3) -0.7759(9)
N28A N 0.2559(6) 0.9516(3) 0.2730(9)
N28_2 N 0.7441(6) 0.4516(3) -0.7730(9)
C1_2 C 0.8189(6) 0.7054(3) -0.1686(9)
C1C C -0.1811(6) 0.7946(3) -0.6686(9)
C2C C -0.1477(5) 0.6731(3) -0.4650(8)
C3C C 0.0966(5) 0.6868(3) -0.4195(8)
C4_2 C 0.1041(5) 0.6989(3) -1.1026(8)
C4C C 0.1041(5) 0.8011(3) -0.6026(8)
C5C C -0.0369(5) 0.7640(3) -0.2870(8)
H1C H -0.0375 0.7315 -0.2848
C6C C -0.0342(5) 0.8299(3) -0.3938(9)
H2C H -0.0348 0.8451 -0.4663
C7C C -0.0291(5) 0.8554(3) -0.2922(8)
H3C H -0.0249 0.8878 -0.2942
C8C C -0.0302(6) 0.6674(3) 0.3121(9)
H4C H -0.0279 0.6504 0.3823
C9_2 C 0.3849(5) 0.5524(3) -0.9412(8)
C10_2 C 0.6252(6) 0.5651(3) -0.9087(9)
C11_2 C 0.6009(6) 0.7061(3) -1.0789(8)
C12_2 C 0.3391(6) 0.6758(3) -1.1063(8)
C12C C 0.3391(6) 0.8242(3) -0.6063(8)
C13_2 C 0.4840(5) 0.6137(3) -1.2685(8)
H5_2 H 0.4825 0.6462 -1.2677
C14_2 C 0.4947(6) 0.5464(3) -1.1657(9)
H6_2 H 0.5012 0.5301 -1.0942
C15_2 C 0.4871(5) 0.5230(3) -1.2687(8)
H7_2 H 0.4885 0.4906 -1.2696
C16_2 C 0.4774(6) 0.5478(3) -1.3728(9)
H8_2 H 0.4709 0.5321 -1.4451
C17_2 C 0.4847(5) 0.6423(3) -0.7668(8)
H9_2 H 0.4903 0.6101 -0.7651
C18_2 C 0.4769(5) 0.7096(3) -0.8705(8)
H10_2 H 0.4776 0.7254 -0.9420
C19_2 C 0.4665(5) 0.7339(3) -0.7720(8)
H11_2 H 0.4596 0.7661 -0.7744
C20_2 C 0.4664(5) 0.7096(3) 0.3314(9)
H12_2 H 0.4599 0.7254 0.4011
C21_2 C 0.3435(6) 0.6899(3) -1.4417(9)
C22_2 C 0.3365(5) 0.5783(3) -1.6506(8)
C23_2 C 0.6150(6) 0.5747(3) -1.5858(9)
C24_2 C 0.6142(6) 0.6825(3) -0.3914(9)
C24C C -0.3858(6) 0.8175(3) -0.8914(9)
C25_2 C 0.1342(6) 0.5551(4) -1.8712(9)
C27B C -0.0004(5) 0.5147(3) -1.2490(8)
H13B H 0.0049 0.4824 -1.2481
C28B C -0.0071(6) 0.5810(3) -1.1486(9)
H14B H -0.0061 0.5969 -1.0769
C29B C -0.0143(6) 0.6053(3) -1.2512(8)
H15B H -0.0186 0.6377 -1.2513
C30B C -0.0151(5) 0.5813(3) -1.3541(8)
H16B H -0.0220 0.5972 -1.4261
C31B C 0.1555(6) 0.4552(3) -0.4015(9)
C31_2 C 0.8445(6) 0.5448(3) -1.5985(9)
C33C C 0.2130(6) 0.7193(3) -0.7778(9)
C33_2 C 0.2130(6) 0.7807(3) -1.2778(9)
C34A C 0.2947(5) 0.3195(3) -1.2913(8)
C34_2 C 0.7053(5) 0.8195(3) -1.2087(8)
C35A C 0.2529(6) 0.4257(3) 0.2916(9)
C35C C -0.2529(6) 0.5743(3) -0.2916(9)
C36A C 0.7702(6) 0.4184(4) 0.2716(9)
C36A_2 C 0.7702(6) 0.4184(4) -0.7284(9)
C36C C 0.2298(6) 0.5816(4) -0.2716(9)
loop_
_geom_bond_atom_site_label_1
_geom_bond_atom_site_label_2
_geom_bond_site_symmetry_1
_geom_bond_site_symmetry_2
Ag1 C3 1_555 1_555
Ag2 C4 1_555 1_555
Ag3 C21 1_555 1_555
Ag4 C22 1_555 1_555
Ag5 N27 1_555 1_555
Ag6 N25 1_555 1_555
Ag7 C11 1_555 1_555
Ag8 C1 1_555 1_555
Ag9 C2 1_555 1_555
Ag10 C23 1_555 1_555
Ag11 N28 1_555 1_555
Ag12 N26 1_555 1_555
Fe1 N1 1_555 1_555
Fe2 N7 1_555 1_555
Fe3 N13 1_555 1_555
Fe4 N19 1_555 1_555
Fe5 N22 1_555 1_555
N1 C1 1_555 1_555
N2 Fe1 1_555 1_555
N3 Fe1 1_555 1_555
N4 Fe1 1_555 1_555
N5 Fe1 1_555 1_555
N6 Fe1 1_555 1_555
N7 C9 1_555 1_555
N8 Fe2 1_555 1_555
N9 Fe2 1_555 1_555
N10 Fe2 1_555 1_555
N11 Fe2 1_555 1_555
N12 Fe2 1_555 1_555
N13 C21 1_555 1_555
N14 Fe3 1_555 1_555
N15 Fe3 1_555 1_555
N16 Fe3 1_555 1_555
N17 Fe3 1_555 1_555
N18 Fe3 1_555 1_555
N19 C25 1_555 1_555
N20 Fe4 1_555 1_555
N21 Fe4 1_555 1_555
N22 C31B 1_555 1_555
N23 Fe5 1_555 1_555
N24 Fe5 1_555 1_555
N25 C33C 1_555 1_555
N26 C34A 1_555 1_555
N27 C35A 1_555 1_555
N28 C36A 1_555 1_555
C2 N2 1_555 1_555
C3 N3 1_555 1_555
C4 N4 1_555 1_555
C5 N5 1_555 1_555
H1 C5 1_555 1_555
C6 N5 1_555 1_555
H2 C6 1_555 1_555
C7 C6 1_555 1_555
H3 C7 1_555 1_555
C8 N6 1_555 1_555
H4 C8 1_555 1_555
C9 Ag5 1_555 1_555
C10 Ag11 1_555 1_555
C11 N9 1_555 1_555
C12 Ag2 1_555 1_555
C13 N11 1_555 1_555
H5 C13 1_555 1_555
C14 N11 1_555 1_555
H6 C14 1_555 1_555
C15 C14 1_555 1_555
H7 C15 1_555 1_555
C16 N18 1_555 1_555
H8 C16 1_555 1_555
C17 N12 1_555 1_555
H9 C17 1_555 1_555
C18 N12 1_555 1_555
H10 C18 1_555 1_555
C19 C18 1_555 1_555
H11 C19 1_555 1_555
C20 N17 1_555 1_555
H12 C20 1_555 1_555
C22 N14 1_555 1_555
C23 N15 1_555 1_555
C24 Ag8 1_555 1_555
C25 Ag4 1_555 1_555
C26 Ag12 1_555 1_555
C27 N21 1_555 1_555
H13 C27 1_555 1_555
C28 N21 1_555 1_555
H14 C28 1_555 1_555
C29 C28 1_555 1_555
H15 C29 1_555 1_555
C30 N24 1_555 1_555
H16 C30 1_555 1_555
C31 Ag10 1_555 1_555
C32 Ag6 1_555 1_555
C33 Ag3 1_555 1_555
C34 Ag7 1_555 1_555
C35 Ag9 1_555 1_555
C36 Ag1 1_555 1_555
Ag1A C36A_2 1_555 1_555
Ag1A_2 C36A 1_555 1_555
Ag1C C3C 1_555 1_555
Ag2_2 C4_2 1_555 1_555
Ag2C C4C 1_555 1_555
Ag3C C33C 1_555 1_555
Ag3_2 C21_2 1_555 1_555
Ag4_2 C22_2 1_555 1_555
Ag5_2 N27_2 1_555 1_555
Ag5A N27A 1_555 1_555
Ag6C N25C 1_555 1_555
Ag7A C34A 1_555 1_555
Ag7_2 C11_2 1_555 1_555
Ag8_2 C1_2 1_555 1_555
Ag8C C1C 1_555 1_555
Ag9A C35A 1_555 1_555
Ag9C C2C 1_555 1_555
Ag10B C31B 1_555 1_555
Ag10_2 C23_2 1_555 1_555
Ag11_2 N28_2 1_555 1_555
Ag11A N28A 1_555 1_555
Ag12A N26A 1_555 1_555
Fe1_2 N1_2 1_555 1_555
Fe1_3 N4_2 1_555 1_555
Fe1C N6C 1_555 1_555
Fe1C_2 N1C 1_555 1_555
Fe2_2 N7_2 1_555 1_555
Fe3_2 N13_2 1_555 1_555
Fe3_3 N17_2 1_555 1_555
Fe3_4 N16_2 1_555 1_555
Fe5_2 N24B_2 1_555 1_555
Fe5_3 N22B_2 1_555 1_555
N1_2 C1_2 1_555 1_555
N1C C1C 1_555 1_555
N2C Fe1C_2 1_555 1_555
N3C Fe1C_2 1_555 1_555
N4_2 C4_2 1_555 1_555
N4C Fe1C_2 1_555 1_555
N5C Fe1C_2 1_555 1_555
N6C C5 1_555 1_555
N6C_2 Fe1C_2 1_555 1_555
N7_2 C9_2 1_555 1_555
N8_2 Fe2_2 1_555 1_555
N9_2 Fe2_2 1_555 1_555
N10_2 Fe2_2 1_555 1_555
N11_2 Fe2_2 1_555 1_555
N12_2 Fe2_2 1_555 1_555
N13_2 C21_2 1_555 1_555
N14_2 Fe3_2 1_555 1_555
N15_2 Fe3_2 1_555 1_555
N16_2 C24 1_555 1_555
N16_3 Fe3_2 1_555 1_555
N17_2 C17 1_555 1_555
N17_3 Fe3_2 1_555 1_555
N18_2 Fe3_2 1_555 1_555
N19B Fe4 1_555 1_555
N20B Fe4 1_555 1_555
N21B Fe4 1_555 1_555
N22B Fe5 1_555 1_555
N22B_2 C31 1_555 1_555
N23B Fe5 1_555 1_555
N24B Fe5 1_555 1_555
N24B_2 C27B 1_555 1_555
N25C C33 1_555 1_555
N26A C34 1_555 1_555
N27A C35 1_555 1_555
N28A C36 1_555 1_555
N28_2 C36A_2 1_555 1_555
C2C N2C 1_555 1_555
C3C N3C 1_555 1_555
C4C N4C 1_555 1_555
C5C N6 1_555 1_555
H1C C5C 1_555 1_555
C6C N5C 1_555 1_555
H2C C6C 1_555 1_555
C7C C8 1_555 1_555
H3C C7C 1_555 1_555
C8C C7 1_555 1_555
H4C C8C 1_555 1_555
C9_2 Ag5_2 1_555 1_555
C10_2 Ag11_2 1_555 1_555
C11_2 N9_2 1_555 1_555
C12_2 Ag2_2 1_555 1_555
C12C Ag2C 1_555 1_555
C13_2 N11_2 1_555 1_555
H5_2 C13_2 1_555 1_555
C14_2 N11_2 1_555 1_555
H6_2 C14_2 1_555 1_555
C15_2 C14_2 1_555 1_555
H7_2 C15_2 1_555 1_555
C16_2 N18_2 1_555 1_555
H8_2 C16_2 1_555 1_555
C17_2 N17 1_555 1_555
H9_2 C17_2 1_555 1_555
C18_2 N12_2 1_555 1_555
H10_2 C18_2 1_555 1_555
C19_2 C20 1_555 1_555
H11_2 C19_2 1_555 1_555
C20_2 C19 1_555 1_555
H12_2 C20_2 1_555 1_555
C22_2 N14_2 1_555 1_555
C23_2 N15_2 1_555 1_555
C24_2 N16 1_555 1_555
C24C Ag8C 1_555 1_555
C25_2 Ag4_2 1_555 1_555
C27B N21B 1_555 1_555
H13B C27B 1_555 1_555
C28B N21B 1_555 1_555
H14B C28B 1_555 1_555
C29B C28B 1_555 1_555
H15B C29B 1_555 1_555
C30B N24B_2 1_555 1_555
H16B C30B 1_555 1_555
C31_2 Ag10_2 1_555 1_555
C33_2 Ag3_2 1_555 1_555
C34_2 Ag7_2 1_555 1_555
C35C Ag9C 1_555 1_555
C36C Ag1C 1_555 1_555
N8 C10 1_555 1_555
N10 C12 1_555 1_555
N18 C13 1_555 1_555
N20 C26 1_555 1_555
N23 C32 1_555 1_555
N24 C27 1_555 1_555
C15 C16 1_555 1_555
C29 C30 1_555 1_555
Ag8_2 C24_2 1_555 1_555
N5C C5C 1_555 1_555
N6C C8C 1_555 1_555
N8_2 C10_2 1_555 1_555
N10_2 C12_2 1_555 1_555
N12_2 C17_2 1_555 1_555
N17_2 C20_2 1_555 1_555
N18_2 C13_2 1_555 1_555
C6C C7C 1_555 1_555
C15_2 C16_2 1_555 1_555
C18_2 C19_2 1_555 1_555
C29B C30B 1_555 1_555

#END
