
#######################################################################
#
#                 Cambridge Crystallographic Data Centre
#                                CCDC 
#
#######################################################################
#
# If this CIF has been generated from an entry in the Cambridge 
# Structural Database, then it will include bibliographic, chemical, 
# crystal, experimental, refinement or atomic coordinate data resulting 
# from the CCDC's data processing and validation procedures.
#
#######################################################################

data_WALVOU
_symmetry_cell_setting           orthorhombic
_symmetry_space_group_name_H-M   'P 21 21 21'
_symmetry_Int_Tables_number      19
_space_group_name_Hall           'P 2ac 2ab'
loop_
_symmetry_equiv_pos_site_id
_symmetry_equiv_pos_as_xyz
1 x,y,z
2 1/2+x,1/2-y,-z
3 -x,1/2+y,1/2-z
4 1/2-x,-y,1/2+z
_cell_length_a                   8.405(2)
_cell_length_b                   20.694(3)
_cell_length_c                   7.532(3)
_cell_angle_alpha                90
_cell_angle_beta                 90
_cell_angle_gamma                90
_cell_volume                     1310.06
loop_
_atom_site_label
_atom_site_type_symbol
_atom_site_fract_x
_atom_site_fract_y
_atom_site_fract_z
I1 I -0.0478(2) -0.2364(1) -0.3310(3)
I2 I 0.5980(2) -0.1090(1) -0.2436(3)
Cu1 Cu 0.5591(4) -0.5031(2) -0.5221(5)
Cl1 Cl 0.3757(9) -0.5102(4) -0.735(1)
O1 O 0.208(2) -0.1265(9) -0.310(3)
O2 O 0.706(2) -0.499(1) -0.314(3)
O3 O 0.797(2) -0.428(1) -0.110(3)
N1 N 0.468(3) -0.425(1) -0.412(3)
C1 C 0.419(3) -0.300(2) -0.162(4)
C2 C 0.254(3) -0.296(1) -0.211(3)
C3 C 0.191(3) -0.240(2) -0.258(4)
C4 C 0.282(3) -0.182(2) -0.258(4)
C5 C 0.442(3) -0.193(2) -0.214(4)
C6 C 0.510(3) -0.252(2) -0.164(4)
C7 C 0.490(4) -0.366(2) -0.117(4)
C8 C 0.578(3) -0.397(1) -0.285(3)
C9 C 0.701(3) -0.443(1) -0.235(4)
O3C O 0.703(2) -0.572(1) -0.610(3)
Cu1C Cu 0.9409(4) -0.4969(2) -0.0221(5)
I2B I 0.4020(2) -0.6090(1) -0.2564(3)
Cu1B Cu 0.4409(4) -0.0031(2) 0.0221(5)
loop_
_geom_bond_atom_site_label_1
_geom_bond_atom_site_label_2
_geom_bond_site_symmetry_1
_geom_bond_site_symmetry_2
I1 C3 1_555 1_555
I2 C5 1_555 1_555
Cu1 Cl1 1_555 1_555
O1 C4 1_555 1_555
O2 Cu1 1_555 1_555
O3 C9 1_555 1_555
N1 Cu1 1_555 1_555
C1 C2 1_555 1_555
C2 C3 1_555 1_555
C3 C4 1_555 1_555
C4 C5 1_555 1_555
C5 C6 1_555 1_555
C6 C1 1_555 1_555
C7 C1 1_555 1_555
C8 N1 1_555 1_555
C9 O2 1_555 1_555
O3C Cu1 1_555 1_555
Cu1C O3 1_555 1_555
I2B Cu1 1_555 1_555
Cu1B I2 1_555 1_555
C7 C8 1_555 1_555
C8 C9 1_555 1_555

#END
