
#######################################################################
#
#                 Cambridge Crystallographic Data Centre
#                                CCDC 
#
#######################################################################
#
# If this CIF has been generated from an entry in the Cambridge 
# Structural Database, then it will include bibliographic, chemical, 
# crystal, experimental, refinement or atomic coordinate data resulting 
# from the CCDC's data processing and validation procedures.
#
#######################################################################

data_WALZUG
_symmetry_cell_setting           monoclinic
_symmetry_space_group_name_H-M   'P 21/c'
_symmetry_Int_Tables_number      14
_space_group_name_Hall           '-P 2ybc'
loop_
_symmetry_equiv_pos_site_id
_symmetry_equiv_pos_as_xyz
1 x,y,z
2 -x,1/2+y,1/2-z
3 -x,-y,-z
4 x,1/2-y,1/2+z
_cell_length_a                   8.9791(10)
_cell_length_b                   7.2095(10)
_cell_length_c                   20.905(2)
_cell_angle_alpha                90
_cell_angle_beta                 98.574(10)
_cell_angle_gamma                90
_cell_volume                     1338.16
loop_
_atom_site_label
_atom_site_type_symbol
_atom_site_fract_x
_atom_site_fract_y
_atom_site_fract_z
Bi1 Bi 0.479904(16) 0.24822(2) 0.443509(7)
Cl1 Cl 0.64191(13) 0.10284(19) 0.36832(6)
Cl2 Cl 0.65779(13) 0.11032(16) 0.54569(6)
Cl3 Cl 0.66206(12) 0.53481(16) 0.46044(5)
S1 S 0.37184(12) 0.43181(18) 0.31583(5)
S2 S 0.13533(13) 0.24670(16) 0.38472(6)
C1 C 0.5077(5) 0.6096(9) 0.3043(2)
H1 H 0.4850 0.6593 0.2604
H2 H 0.6092 0.5559 0.3108
H3 H 0.5026 0.7097 0.3357
C2 C 0.2067(5) 0.5605(7) 0.3233(2)
C3 C 0.1788(6) 0.7342(6) 0.2961(2)
H4 H 0.2509 0.7909 0.2734
C4 C 0.0459(6) 0.8258(8) 0.3018(2)
H5 H 0.0261 0.9439 0.2822
C5 C -0.0578(7) 0.7457(8) 0.3359(3)
H6 H -0.1472 0.8110 0.3410
C6 C -0.0322(5) 0.5704(8) 0.3629(2)
H7 H -0.1052 0.5150 0.3854
C7 C 0.1010(5) 0.4747(7) 0.3569(2)
C8 C 0.0286(6) 0.2279(9) 0.4519(3)
H8 H 0.0433 0.3404 0.4784
H9 H 0.0637 0.1199 0.4784
H10 H -0.0786 0.2134 0.4351
Bi1B Bi 0.520096(16) -0.24822(2) 0.556491(7)
Bi1B_2 Bi 0.520096(16) 0.75178(2) 0.556491(7)
Cl2B Cl 0.34221(13) -0.11032(16) 0.45431(6)
Cl3B Cl 0.33794(12) 0.46519(16) 0.53956(5)
loop_
_geom_bond_atom_site_label_1
_geom_bond_atom_site_label_2
_geom_bond_site_symmetry_1
_geom_bond_site_symmetry_2
Bi1 Cl1 1_555 1_555
Cl2 Bi1 1_555 1_555
Cl3 Bi1 1_555 1_555
S1 Bi1 1_555 1_555
S2 Bi1 1_555 1_555
C1 S1 1_555 1_555
H1 C1 1_555 1_555
H2 C1 1_555 1_555
H3 C1 1_555 1_555
C2 S1 1_555 1_555
C3 C2 1_555 1_555
H4 C3 1_555 1_555
C4 C3 1_555 1_555
H5 C4 1_555 1_555
C5 C4 1_555 1_555
H6 C5 1_555 1_555
C6 C5 1_555 1_555
H7 C6 1_555 1_555
C7 S2 1_555 1_555
C8 S2 1_555 1_555
H8 C8 1_555 1_555
H9 C8 1_555 1_555
H10 C8 1_555 1_555
Bi1B Cl2 1_555 1_555
Bi1B_2 Cl3 1_555 1_555
Cl2B Bi1 1_555 1_555
Cl3B Bi1 1_555 1_555
C2 C7 1_555 1_555
C6 C7 1_555 1_555
Bi1B Cl2B 1_555 1_555
Bi1B_2 Cl3B 1_555 1_555

#END
