
#######################################################################
#
#                 Cambridge Crystallographic Data Centre
#                                CCDC 
#
#######################################################################
#
# If this CIF has been generated from an entry in the Cambridge 
# Structural Database, then it will include bibliographic, chemical, 
# crystal, experimental, refinement or atomic coordinate data resulting 
# from the CCDC's data processing and validation procedures.
#
#######################################################################

data_WAMCUK
_symmetry_cell_setting           triclinic
_symmetry_space_group_name_H-M   'P -1'
_symmetry_Int_Tables_number      2
_space_group_name_Hall           '-P 1'
loop_
_symmetry_equiv_pos_site_id
_symmetry_equiv_pos_as_xyz
1 x,y,z
2 -x,-y,-z
_cell_length_a                   10.561(4)
_cell_length_b                   11.520(5)
_cell_length_c                   20.851(9)
_cell_angle_alpha                85.10(2)
_cell_angle_beta                 76.39(3)
_cell_angle_gamma                64.67(3)
_cell_volume                     2228.18
loop_
_atom_site_label
_atom_site_type_symbol
_atom_site_fract_x
_atom_site_fract_y
_atom_site_fract_z
Sb1 Sb 0.52456(10) 0.23070(9) 0.31949(5)
Sb2 Sb 0.94896(11) 0.46355(9) 0.24711(5)
Cl1 Cl 0.5572(4) 0.2188(4) 0.43091(17)
Cl2 Cl 0.7200(4) 0.3014(4) 0.28223(18)
Cl3 Cl 0.6891(4) 0.0077(3) 0.29426(19)
Cl4 Cl 0.9010(4) 0.6634(4) 0.2972(2)
Cl5 Cl 1.1864(4) 0.3394(3) 0.27292(18)
Cl6 Cl 1.0670(4) 0.5213(4) 0.14515(19)
S1 S 0.5662(5) 0.2565(5) 0.1650(2)
S2 S 1.0095(4) 0.2321(4) 0.1450(2)
S3 S 0.3726(4) 0.5230(4) 0.35307(19)
S4 S 0.6853(4) 0.6242(4) 0.19441(19)
S5 S 0.3213(4) 0.1068(4) 0.38091(18)
S6 S -0.1174(4) 0.4205(4) 0.40324(19)
C1 C 0.463(2) 0.202(2) 0.1265(10)
H1 H 0.3614 0.2608 0.1387
H2 H 0.4767 0.1155 0.1415
H3 H 0.4968 0.2005 0.0784
C2 C 0.7451(16) 0.1299(15) 0.1322(7)
H4 H 0.8106 0.1237 0.1607
H5 H 0.7387 0.0465 0.1333
C3 C 0.8069(16) 0.1558(15) 0.0620(8)
C4 C 0.8021(18) 0.0846(17) 0.0122(9)
H6 H 0.7608 0.0246 0.0226
C5 C 0.8584(18) 0.1036(16) -0.0523(8)
H7 H 0.8580 0.0537 -0.0862
C6 C 0.9162(18) 0.1937(18) -0.0697(7)
H8 H 0.9534 0.2068 -0.1145
C7 C 0.9168(19) 0.2626(16) -0.0192(9)
H9 H 0.9562 0.3239 -0.0295
C8 C 0.8624(16) 0.2458(15) 0.0457(8)
C9 C 0.8658(16) 0.3262(14) 0.1000(7)
H10 H 0.7717 0.3586 0.1317
H11 H 0.8814 0.4013 0.0798
C10 C 1.1656(18) 0.2076(19) 0.0799(9)
H12 H 1.2526 0.1573 0.0965
H13 H 1.1643 0.2910 0.0649
H14 H 1.1645 0.1612 0.0429
C11 C 0.1845(16) 0.5656(14) 0.3888(8)
H15 H 0.1723 0.5442 0.4357
H16 H 0.1502 0.5176 0.3660
H17 H 0.1290 0.6579 0.3841
C12 C 0.3678(16) 0.5716(13) 0.2679(7)
H18 H 0.4646 0.5258 0.2396
H19 H 0.3011 0.5457 0.2529
C13 C 0.3190(16) 0.7190(14) 0.2590(7)
C14 C 0.1849(16) 0.7928(16) 0.2470(8)
H20 H 0.1232 0.7532 0.2453
C15 C 0.1384(16) 0.9230(15) 0.2375(7)
H21 H 0.0463 0.9716 0.2281
C16 C 0.2253(16) 0.9842(16) 0.2414(7)
H22 H 0.1916 1.0746 0.2369
C17 C 0.3640(17) 0.9091(15) 0.2522(7)
H23 H 0.4260 0.9486 0.2536
C18 C 0.4110(14) 0.7763(14) 0.2610(7)
C19 C 0.5606(17) 0.7023(16) 0.2719(7)
H24 H 0.5612 0.6363 0.3057
H25 H 0.5924 0.7612 0.2883
C20 C 0.7084(19) 0.7614(17) 0.1543(8)
H26 H 0.7740 0.7349 0.1110
H27 H 0.7485 0.7963 0.1815
H28 H 0.6151 0.8274 0.1487
C21 C 0.4220(16) -0.0278(15) 0.4253(8)
H29 H 0.4876 -0.0987 0.3943
H30 H 0.3561 -0.0550 0.4573
H31 H 0.4776 -0.0033 0.4486
C22 C 0.2080(16) 0.2234(15) 0.4480(7)
H32 H 0.2697 0.2339 0.4741
H33 H 0.1563 0.3077 0.4291
C23 C 0.0983(15) 0.1818(13) 0.4939(7)
C24 C 0.1268(17) 0.1262(13) 0.5543(7)
H34 H 0.2130 0.1153 0.5659
C25 C 0.0314(17) 0.0869(15) 0.5975(8)
H35 H 0.0529 0.0477 0.6379
C26 C -0.0976(17) 0.1059(14) 0.5808(7)
H36 H -0.1652 0.0813 0.6102
C27 C -0.1246(15) 0.1609(14) 0.5208(7)
H37 H -0.2138 0.1771 0.5108
C28 C -0.0271(17) 0.1932(14) 0.4751(7)
C29 C -0.0583(16) 0.2475(15) 0.4096(7)
H38 H -0.1334 0.2255 0.4005
H39 H 0.0296 0.2053 0.3748
C30 C -0.3059(18) 0.4776(17) 0.4410(9)
H40 H -0.3508 0.5718 0.4413
H41 H -0.3176 0.4473 0.4865
H42 H -0.3518 0.4449 0.4159
Sb2_2 Sb -0.05104(11) 0.46355(9) 0.24711(5)
S6_2 S 0.8826(4) 0.4205(4) 0.40324(19)
C31 C 0.438(4) 0.601(4) 0.0828(19)
H43 H 0.3837 0.5975 0.0515
H44 H 0.3777 0.6735 0.1137
H45 H 0.4681 0.5210 0.1072
C32 C 0.552(4) 0.617(4) 0.0504(19)
N1 N 0.658(3) 0.621(3) 0.0195(15)
loop_
_geom_bond_atom_site_label_1
_geom_bond_atom_site_label_2
_geom_bond_site_symmetry_1
_geom_bond_site_symmetry_2
Sb1 Cl1 1_555 1_555
Sb2 Cl4 1_555 1_555
Cl2 Sb1 1_555 1_555
Cl3 Sb1 1_555 1_555
Cl5 Sb2 1_555 1_555
Cl6 Sb2 1_555 1_555
S1 Sb1 1_555 1_555
S2 C9 1_555 1_555
S3 Sb1 1_555 1_555
S4 Sb2 1_555 1_555
S5 Sb1 1_555 1_555
S6 C29 1_555 1_555
C1 S1 1_555 1_555
H1 C1 1_555 1_555
H2 C1 1_555 1_555
H3 C1 1_555 1_555
C2 S1 1_555 1_555
H4 C2 1_555 1_555
H5 C2 1_555 1_555
C3 C2 1_555 1_555
C4 C3 1_555 1_555
H6 C4 1_555 1_555
C5 C4 1_555 1_555
H7 C5 1_555 1_555
C6 C5 1_555 1_555
H8 C6 1_555 1_555
C7 C6 1_555 1_555
H9 C7 1_555 1_555
C8 C3 1_555 1_555
C9 C8 1_555 1_555
H10 C9 1_555 1_555
H11 C9 1_555 1_555
C10 S2 1_555 1_555
H12 C10 1_555 1_555
H13 C10 1_555 1_555
H14 C10 1_555 1_555
C11 S3 1_555 1_555
H15 C11 1_555 1_555
H16 C11 1_555 1_555
H17 C11 1_555 1_555
C12 S3 1_555 1_555
H18 C12 1_555 1_555
H19 C12 1_555 1_555
C13 C12 1_555 1_555
C14 C13 1_555 1_555
H20 C14 1_555 1_555
C15 C14 1_555 1_555
H21 C15 1_555 1_555
C16 C15 1_555 1_555
H22 C16 1_555 1_555
C17 C16 1_555 1_555
H23 C17 1_555 1_555
C18 C13 1_555 1_555
C19 S4 1_555 1_555
H24 C19 1_555 1_555
H25 C19 1_555 1_555
C20 S4 1_555 1_555
H26 C20 1_555 1_555
H27 C20 1_555 1_555
H28 C20 1_555 1_555
C21 S5 1_555 1_555
H29 C21 1_555 1_555
H30 C21 1_555 1_555
H31 C21 1_555 1_555
C22 S5 1_555 1_555
H32 C22 1_555 1_555
H33 C22 1_555 1_555
C23 C22 1_555 1_555
C24 C23 1_555 1_555
H34 C24 1_555 1_555
C25 C24 1_555 1_555
H35 C25 1_555 1_555
C26 C25 1_555 1_555
H36 C26 1_555 1_555
C27 C26 1_555 1_555
H37 C27 1_555 1_555
C28 C23 1_555 1_555
C29 C28 1_555 1_555
H38 C29 1_555 1_555
H39 C29 1_555 1_555
C30 S6 1_555 1_555
H40 C30 1_555 1_555
H41 C30 1_555 1_555
H42 C30 1_555 1_555
C31 H43 1_555 1_555
H44 C31 1_555 1_555
H45 C31 1_555 1_555
C32 C31 1_555 1_555
N1 C32 1_555 1_555
Sb2_2 S6 1_555 1_555
S6_2 Sb2 1_555 1_555
C7 C8 1_555 1_555
C17 C18 1_555 1_555
C18 C19 1_555 1_555
C27 C28 1_555 1_555

#END
