
#######################################################################
#
#                 Cambridge Crystallographic Data Centre
#                                CCDC 
#
#######################################################################
#
# If this CIF has been generated from an entry in the Cambridge 
# Structural Database, then it will include bibliographic, chemical, 
# crystal, experimental, refinement or atomic coordinate data resulting 
# from the CCDC's data processing and validation procedures.
#
#######################################################################

data_WAMCEU
_symmetry_cell_setting           monoclinic
_symmetry_space_group_name_H-M   'P 21/c'
_symmetry_Int_Tables_number      14
_space_group_name_Hall           '-P 2ybc'
loop_
_symmetry_equiv_pos_site_id
_symmetry_equiv_pos_as_xyz
1 x,y,z
2 -x,1/2+y,1/2-z
3 -x,-y,-z
4 x,1/2-y,1/2+z
_cell_length_a                   9.546(3)
_cell_length_b                   10.566(3)
_cell_length_c                   15.728(3)
_cell_angle_alpha                90
_cell_angle_beta                 103.820(15)
_cell_angle_gamma                90
_cell_volume                     1540.45
loop_
_atom_site_label
_atom_site_type_symbol
_atom_site_fract_x
_atom_site_fract_y
_atom_site_fract_z
Sb1 Sb 0.15228(5) 0.03742(5) 0.25132(3)
Cl1 Cl 0.0635(2) -0.1775(2) 0.22019(15)
Cl2 Cl 0.3464(2) -0.04784(19) 0.36838(12)
Cl3 Cl 0.2917(2) 0.0329(2) 0.14507(13)
S1 S 0.3332(2) 0.2785(2) 0.29260(14)
S2 S 0.0824(2) 0.5566(2) 0.41353(13)
C1 C 0.5159(10) 0.2305(10) 0.3069(7)
H1 H 0.5798 0.2977 0.3367
H2 H 0.5358 0.2141 0.2496
H3 H 0.5328 0.1532 0.3423
C2 C 0.3216(8) 0.2975(7) 0.4048(5)
H4 H 0.2196 0.3127 0.4057
H5 H 0.3521 0.2176 0.4367
C3 C 0.4125(8) 0.4046(7) 0.4528(5)
C4 C 0.5357(7) 0.3756(7) 0.5169(5)
H6 H 0.5597 0.2891 0.5287
C5 C 0.3749(7) 0.5328(7) 0.4357(4)
C6 C 0.2410(7) 0.5688(7) 0.3684(5)
H7 H 0.2503 0.6566 0.3486
H8 H 0.2294 0.5122 0.3170
C7 C 0.0933(10) 0.7017(9) 0.4739(6)
H9 H 0.0937 0.7734 0.4344
H10 H 0.0099 0.7086 0.4998
H11 H 0.1822 0.7025 0.5205
Sb1B Sb 0.84772(5) 0.96258(5) 0.74868(3)
Sb1A Sb -0.15228(5) 0.53742(5) 0.24868(3)
Sb1C Sb 1.15228(5) 0.46258(5) 0.75132(3)
Cl1B Cl 0.9365(2) 1.1775(2) 0.77981(15)
Cl2B Cl 0.6536(2) 1.04784(19) 0.63162(12)
Cl3B Cl 0.7083(2) 0.9671(2) 0.85493(13)
S1B S 0.6668(2) 0.7215(2) 0.70740(14)
S2B S 0.9176(2) 0.4434(2) 0.58647(13)
S2A S -0.0824(2) 0.0566(2) 0.08647(13)
S2C S 1.0824(2) 0.9434(2) 0.91353(13)
C1B C 0.4841(10) 0.7695(10) 0.6931(7)
H1B H 0.4202 0.7023 0.6633
H2B H 0.4642 0.7859 0.7504
H3B H 0.4672 0.8468 0.6577
C2B C 0.6784(8) 0.7025(7) 0.5952(5)
H4B H 0.7804 0.6873 0.5943
H5B H 0.6479 0.7824 0.5633
C3B C 0.5875(8) 0.5954(7) 0.5472(5)
C4B C 0.4643(7) 0.6244(7) 0.4831(5)
H6B H 0.4403 0.7109 0.4713
C5B C 0.6251(7) 0.4672(7) 0.5643(4)
C6B C 0.7590(7) 0.4312(7) 0.6316(5)
H7B H 0.7497 0.3434 0.6514
H8B H 0.7706 0.4878 0.6830
C7B C 0.9067(10) 0.2983(9) 0.5261(6)
H9B H 0.9063 0.2266 0.5656
H10B H 0.9901 0.2914 0.5002
H11B H 0.8178 0.2975 0.4795
N1 N 0.0257(10) 0.5236(10) 0.1189(6)
C8 C 0.1251(11) 0.4838(10) 0.1017(6)
C9 C 0.2487(13) 0.4267(15) 0.0774(8)
H12 H 0.2364 0.3346 0.0738
H13 H 0.3369 0.4473 0.1217
H14 H 0.2561 0.4596 0.0204
loop_
_geom_bond_atom_site_label_1
_geom_bond_atom_site_label_2
_geom_bond_site_symmetry_1
_geom_bond_site_symmetry_2
Sb1 Cl1 1_555 1_555
Cl2 Sb1 1_555 1_555
Cl3 Sb1 1_555 1_555
S1 Sb1 1_555 1_555
S2 C6 1_555 1_555
C1 S1 1_555 1_555
H1 C1 1_555 1_555
H2 C1 1_555 1_555
H3 C1 1_555 1_555
C2 S1 1_555 1_555
H4 C2 1_555 1_555
H5 C2 1_555 1_555
C3 C2 1_555 1_555
C4 C3 1_555 1_555
H6 C4 1_555 1_555
C5 C3 1_555 1_555
C6 C5 1_555 1_555
H7 C6 1_555 1_555
H8 C6 1_555 1_555
C7 S2 1_555 1_555
H9 C7 1_555 1_555
H10 C7 1_555 1_555
H11 C7 1_555 1_555
N1 C8 1_555 1_555
C8 C9 1_555 1_555
C9 H12 1_555 1_555
H13 C9 1_555 1_555
H14 C9 1_555 1_555
Sb1B Cl1B 1_555 1_555
Sb1A S2 1_555 1_555
Sb1C S2B 1_555 1_555
Cl2B Sb1B 1_555 1_555
Cl3B Sb1B 1_555 1_555
S1B Sb1B 1_555 1_555
S2B C6B 1_555 1_555
S2A Sb1 1_555 1_555
S2C Sb1B 1_555 1_555
C1B S1B 1_555 1_555
H1B C1B 1_555 1_555
H2B C1B 1_555 1_555
H3B C1B 1_555 1_555
C2B S1B 1_555 1_555
H4B C2B 1_555 1_555
H5B C2B 1_555 1_555
C3B C2B 1_555 1_555
C4B C5 1_555 1_555
H6B C4B 1_555 1_555
C5B C4 1_555 1_555
C6B C5B 1_555 1_555
H7B C6B 1_555 1_555
H8B C6B 1_555 1_555
C7B S2B 1_555 1_555
H9B C7B 1_555 1_555
H10B C7B 1_555 1_555
H11B C7B 1_555 1_555
C3B C4B 1_555 1_555
C3B C5B 1_555 1_555

#END
