
#######################################################################
#
#                 Cambridge Crystallographic Data Centre
#                                CCDC 
#
#######################################################################
#
# If this CIF has been generated from an entry in the Cambridge 
# Structural Database, then it will include bibliographic, chemical, 
# crystal, experimental, refinement or atomic coordinate data resulting 
# from the CCDC's data processing and validation procedures.
#
#######################################################################

data_WAMFOH
_symmetry_cell_setting           monoclinic
_symmetry_space_group_name_H-M   'P 21/c'
_symmetry_Int_Tables_number      14
_space_group_name_Hall           '-P 2ybc'
loop_
_symmetry_equiv_pos_site_id
_symmetry_equiv_pos_as_xyz
1 x,y,z
2 -x,1/2+y,1/2-z
3 -x,-y,-z
4 x,1/2-y,1/2+z
_cell_length_a                   5.007(2)
_cell_length_b                   16.861(7)
_cell_length_c                   14.454(6)
_cell_angle_alpha                90
_cell_angle_beta                 102.499(13)
_cell_angle_gamma                90
_cell_volume                     1191.33
loop_
_atom_site_label
_atom_site_type_symbol
_atom_site_fract_x
_atom_site_fract_y
_atom_site_fract_z
Cu1 Cu 0.21713(15) -0.39141(4) 0.34800(5)
Cu2 Cu 0.72990(15) -0.47426(4) 0.45774(5)
Cl1 Cl 0.3782(3) -0.51459(8) 0.35187(10)
Cl2 Cl 0.0241(3) -0.38014(8) 0.49106(10)
O1 O -0.9312(8) -0.3928(2) 0.0042(3)
O2 O -0.7264(8) -0.4950(3) 0.0794(3)
N1 N -0.0999(10) -0.3582(3) 0.2304(3)
N2 N 0.1336(10) -0.2403(3) 0.2580(4)
N3 N 0.3267(10) -0.2805(3) 0.3240(3)
C1 C -0.3070(12) -0.4009(3) 0.1825(4)
H1 H -0.3142 -0.4546 0.1964
C2 C -0.5106(13) -0.3693(3) 0.1134(4)
C3 C -0.5104(13) -0.2906(4) 0.0933(4)
H2 H -0.6520 -0.2679 0.0489
C4 C -0.2918(12) -0.2451(4) 0.1412(4)
H3 H -0.2811 -0.1911 0.1292
C5 C -0.0891(13) -0.2833(4) 0.2079(4)
C6 C 0.2086(12) -0.1621(3) 0.2540(4)
H4 H 0.1126 -0.1229 0.2152
C7 C 0.4454(12) -0.1531(4) 0.3165(4)
H5 H 0.5442 -0.1062 0.3291
C8 C 0.5190(12) -0.2258(3) 0.3593(4)
H6 H 0.6766 -0.2354 0.4054
C9 C -0.7300(12) -0.4236(4) 0.0619(4)
Cu2_2 Cu -0.27010(15) -0.47426(4) 0.45774(5)
Cu2B Cu 0.27010(15) -0.52574(4) 0.54226(5)
Cl2_2 Cl 1.0241(3) -0.38014(8) 0.49106(10)
Cl2B Cl 0.9759(3) -0.61986(8) 0.50894(10)
loop_
_geom_bond_atom_site_label_1
_geom_bond_atom_site_label_2
_geom_bond_site_symmetry_1
_geom_bond_site_symmetry_2
Cu1 Cl1 1_555 1_555
Cu2 Cl1 1_555 1_555
Cl2 Cu1 1_555 1_555
O1 C9 1_555 1_555
O2 C9 1_555 1_555
N1 Cu1 1_555 1_555
N2 N3 1_555 1_555
N3 Cu1 1_555 1_555
C1 N1 1_555 1_555
H1 C1 1_555 1_555
C2 C1 1_555 1_555
C3 C2 1_555 1_555
H2 C3 1_555 1_555
C4 C3 1_555 1_555
H3 C4 1_555 1_555
C5 N1 1_555 1_555
C6 N2 1_555 1_555
H4 C6 1_555 1_555
C7 C6 1_555 1_555
H5 C7 1_555 1_555
C8 N3 1_555 1_555
H6 C8 1_555 1_555
C9 C2 1_555 1_555
Cu2_2 Cl2 1_555 1_555
Cu2B Cl2 1_555 1_555
Cl2_2 Cu2 1_555 1_555
Cl2B Cu2 1_555 1_555
N2 C5 1_555 1_555
C4 C5 1_555 1_555
C7 C8 1_555 1_555

#END
