
#######################################################################
#
#                 Cambridge Crystallographic Data Centre
#                                CCDC 
#
#######################################################################
#
# If this CIF has been generated from an entry in the Cambridge 
# Structural Database, then it will include bibliographic, chemical, 
# crystal, experimental, refinement or atomic coordinate data resulting 
# from the CCDC's data processing and validation procedures.
#
#######################################################################

data_WAMMEC
_symmetry_cell_setting           monoclinic
_symmetry_space_group_name_H-M   'P 21/a'
_symmetry_Int_Tables_number      14
_space_group_name_Hall           '-P 2yab'
loop_
_symmetry_equiv_pos_site_id
_symmetry_equiv_pos_as_xyz
1 x,y,z
2 1/2-x,1/2+y,-z
3 -x,-y,-z
4 1/2+x,1/2-y,z
_cell_length_a                   13.177(3)
_cell_length_b                   10.137(2)
_cell_length_c                   6.650(1)
_cell_angle_alpha                90
_cell_angle_beta                 103.78(2)
_cell_angle_gamma                90
_cell_volume                     862.709
loop_
_atom_site_label
_atom_site_type_symbol
_atom_site_fract_x
_atom_site_fract_y
_atom_site_fract_z
Cu1 Cu 0.0000 0.0000 0.0000
O1 O 0.1184(1) 0.0346(2) 0.2436(2)
C1 C 0.1948(2) 0.1088(2) 0.2522(3)
C2 C 0.2082(2) 0.1961(2) 0.0966(3)
C3 C 0.1294(2) 0.2149(2) -0.0898(3)
N1 N 0.0446(1) 0.1468(2) -0.1476(3)
C4 C -0.0187(2) 0.1957(3) -0.3466(4)
C5 C 0.0408(2) 0.3100(3) -0.4094(5)
C6 C 0.1397(2) 0.3229(2) -0.2395(4)
C7 C 0.3019(2) 0.2711(2) 0.1225(3)
N2 N 0.3757(2) 0.3337(2) 0.1343(3)
O2 O 0.2724(1) 0.1109(2) 0.4263(2)
C8 C 0.2607(2) 0.0253(3) 0.5920(3)
H1 H -0.0271 0.1269 -0.4484
H2 H -0.0862 0.2237 -0.3318
H3 H 0.0577 0.2926 -0.5395
H4 H -0.0002 0.3892 -0.4202
H5 H 0.1434 0.4078 -0.1742
H6 H 0.2008 0.3097 -0.2921
H7 H 0.3203 0.0347 0.7065
H8 H 0.2551 -0.0648 0.5461
H9 H 0.1986 0.0496 0.6349
O1B O -0.1184(1) -0.0346(2) -0.2436(2)
N1B N -0.0446(1) -0.1468(2) 0.1476(3)
N2C N -0.1243(2) 0.1663(2) 0.1343(3)
N2A N 0.1243(2) -0.1663(2) -0.1343(3)
C1B C -0.1948(2) -0.1088(2) -0.2522(3)
C3B C -0.1294(2) -0.2149(2) 0.0898(3)
C4B C 0.0187(2) -0.1957(3) 0.3466(4)
Cu1A Cu 0.5000 0.5000 0.0000
C2B C -0.2082(2) -0.1961(2) -0.0966(3)
O2B O -0.2724(1) -0.1109(2) -0.4263(2)
C6B C -0.1397(2) -0.3229(2) 0.2395(4)
C5B C -0.0408(2) -0.3100(3) 0.4094(5)
H1B H 0.0271 -0.1269 0.4484
H2B H 0.0862 -0.2237 0.3318
C7B C -0.3019(2) -0.2711(2) -0.1225(3)
C8B C -0.2607(2) -0.0253(3) -0.5920(3)
H5B H -0.1434 -0.4078 0.1742
H6B H -0.2008 -0.3097 0.2921
H3B H -0.0577 -0.2926 0.5395
H4B H 0.0002 -0.3892 0.4202
N2B N -0.3757(2) -0.3337(2) -0.1343(3)
H7B H -0.3203 -0.0347 -0.7065
H8B H -0.2551 0.0648 -0.5461
H9B H -0.1986 -0.0496 -0.6349
Cu1A_2 Cu -0.5000 -0.5000 0.0000
loop_
_geom_bond_atom_site_label_1
_geom_bond_atom_site_label_2
_geom_bond_site_symmetry_1
_geom_bond_site_symmetry_2
Cu1 O1 1_555 1_555
O1 C1 1_555 1_555
C1 C2 1_555 1_555
C2 C3 1_555 1_555
C3 N1 1_555 1_555
N1 Cu1 1_555 1_555
C4 N1 1_555 1_555
C5 C4 1_555 1_555
C6 C3 1_555 1_555
C7 C2 1_555 1_555
N2 C7 1_555 1_555
O2 C1 1_555 1_555
C8 O2 1_555 1_555
H1 C4 1_555 1_555
H2 C4 1_555 1_555
H3 C5 1_555 1_555
H4 C5 1_555 1_555
H5 C6 1_555 1_555
H6 C6 1_555 1_555
H7 C8 1_555 1_555
H8 C8 1_555 1_555
H9 C8 1_555 1_555
O1B Cu1 1_555 1_555
N1B Cu1 1_555 1_555
N2C Cu1 1_555 1_555
N2A Cu1 1_555 1_555
C1B O1B 1_555 1_555
C3B N1B 1_555 1_555
C4B N1B 1_555 1_555
Cu1A N2 1_555 1_555
C2B C1B 1_555 1_555
O2B C1B 1_555 1_555
C6B C3B 1_555 1_555
C5B C4B 1_555 1_555
H1B C4B 1_555 1_555
H2B C4B 1_555 1_555
C7B C2B 1_555 1_555
C8B O2B 1_555 1_555
H5B C6B 1_555 1_555
H6B C6B 1_555 1_555
H3B C5B 1_555 1_555
H4B C5B 1_555 1_555
N2B C7B 1_555 1_555
H7B C8B 1_555 1_555
H8B C8B 1_555 1_555
H9B C8B 1_555 1_555
Cu1A_2 N2B 1_555 1_555
C5 C6 1_555 1_555
C3B C2B 1_555 1_555
C6B C5B 1_555 1_555

#END
