
#######################################################################
#
#                 Cambridge Crystallographic Data Centre
#                                CCDC 
#
#######################################################################
#
# If this CIF has been generated from an entry in the Cambridge 
# Structural Database, then it will include bibliographic, chemical, 
# crystal, experimental, refinement or atomic coordinate data resulting 
# from the CCDC's data processing and validation procedures.
#
#######################################################################

data_WAMMAZ
_symmetry_cell_setting           orthorhombic
_symmetry_space_group_name_H-M   'P b c a'
_symmetry_Int_Tables_number      61
_space_group_name_Hall           '-P 2ac 2ab'
loop_
_symmetry_equiv_pos_site_id
_symmetry_equiv_pos_as_xyz
1 x,y,z
2 1/2-x,-y,1/2+z
3 -x,1/2+y,1/2-z
4 1/2+x,1/2-y,-z
5 -x,-y,-z
6 1/2+x,y,1/2-z
7 x,1/2-y,1/2+z
8 1/2-x,1/2+y,z
_cell_length_a                   17.3586(19)
_cell_length_b                   9.8854(11)
_cell_length_c                   26.324(3)
_cell_angle_alpha                90
_cell_angle_beta                 90
_cell_angle_gamma                90
_cell_volume                     4517.11
loop_
_atom_site_label
_atom_site_type_symbol
_atom_site_fract_x
_atom_site_fract_y
_atom_site_fract_z
Cu1 Cu 0.82253(4) 0.33928(7) 0.86116(3)
S1 S 1.00557(9) 0.43566(18) 0.86391(6)
O1 O 0.8217(3) 0.5373(4) 0.85964(15)
O2 O 0.8527(3) 0.7485(5) 0.84165(19)
O3 O 0.9517(2) 0.3240(4) 0.87282(16)
O4 O 0.9936(3) 0.5485(5) 0.89786(17)
O5 O 1.0843(3) 0.3909(6) 0.86131(19)
O6 O 0.8225(3) 0.1377(4) 0.86305(16)
H1 H 0.8478 0.1117 0.8875
H2 H 0.7774 0.1138 0.8648
N1 N 0.8035(3) 0.3468(5) 0.93674(18)
N2 N 0.8087(3) 0.1734(5) 1.28618(17)
C1 C 0.8507(4) 0.4210(7) 0.9654(2)
H3 H 0.8831 0.4830 0.9496
C2 C 0.8534(4) 0.4095(7) 1.0176(2)
H4 H 0.8870 0.4632 1.0363
C3 C 0.8057(4) 0.3173(7) 1.0423(2)
C4 C 0.7549(4) 0.2448(7) 1.0124(2)
H5 H 0.7203 0.1849 1.0273
C5 C 0.7560(4) 0.2616(7) 0.9603(2)
H6 H 0.7218 0.2111 0.9408
C6 C 0.8138(4) 0.3005(7) 1.0972(2)
H7 H 0.8502 0.3552 1.1130
C7 C 0.7755(4) 0.2169(7) 1.1268(2)
H8 H 0.7373 0.1643 1.1119
C8 C 0.7886(4) 0.2006(6) 1.1814(2)
C9 C 0.7413(4) 0.1178(6) 1.2098(2)
H9 H 0.7019 0.0695 1.1942
C10 C 0.7527(4) 0.1068(6) 1.2617(2)
H10 H 0.7201 0.0510 1.2803
C11 C 0.8559(4) 0.2495(7) 1.2585(2)
H11 H 0.8960 0.2942 1.2749
C12 C 0.8485(4) 0.2654(7) 1.2071(2)
H12 H 0.8832 0.3192 1.1894
C13 C 0.8626(4) 0.6281(6) 0.8357(2)
C14 C 0.9173(4) 0.5780(6) 0.7944(2)
C15 C 0.9807(4) 0.4951(6) 0.8019(2)
C16 C 1.0242(4) 0.4525(7) 0.7606(2)
H13 H 1.0667 0.3970 0.7659
C17 C 1.0055(5) 0.4907(8) 0.7122(3)
H14 H 1.0348 0.4601 0.6850
C18 C 0.9438(5) 0.5739(8) 0.7040(3)
H15 H 0.9314 0.6019 0.6713
C19 C 0.9001(4) 0.6160(7) 0.7451(3)
H16 H 0.8577 0.6716 0.7393
Cu1F Cu 0.82253(4) 0.16072(7) 1.36116(3)
N2F N 0.8087(3) 0.3266(5) 0.78618(17)
O7 O 0.8788(4) 1.0325(6) -0.0525(2)
N3 N 0.9263(4) 0.8753(6) 0.0009(2)
C20 C 0.9053(6) 0.9470(10) 0.0464(3)
H17 H 0.8861 1.0350 0.0376
H18 H 0.9498 0.9564 0.0678
H19 H 0.8661 0.8974 0.0641
C21 C 0.9677(6) 0.7490(9) 0.0065(4)
H20 H 1.0182 0.7666 0.0198
H21 H 0.9721 0.7055 -0.0260
H22 H 0.9402 0.6910 0.0295
C22 C 0.9097(5) 0.9246(9) -0.0446(3)
H23 H 0.9229 0.8724 -0.0727
loop_
_geom_bond_atom_site_label_1
_geom_bond_atom_site_label_2
_geom_bond_site_symmetry_1
_geom_bond_site_symmetry_2
Cu1 O1 1_555 1_555
S1 O3 1_555 1_555
O1 C13 1_555 1_555
O2 C13 1_555 1_555
O3 Cu1 1_555 1_555
O4 S1 1_555 1_555
O5 S1 1_555 1_555
O6 Cu1 1_555 1_555
H1 O6 1_555 1_555
H2 O6 1_555 1_555
O7 C22 1_555 1_555
N1 Cu1 1_555 1_555
N2 C10 1_555 1_555
N3 C20 1_555 1_555
C1 N1 1_555 1_555
H3 C1 1_555 1_555
C2 C1 1_555 1_555
H4 C2 1_555 1_555
C3 C2 1_555 1_555
C4 C3 1_555 1_555
H5 C4 1_555 1_555
C5 N1 1_555 1_555
H6 C5 1_555 1_555
C6 C3 1_555 1_555
H7 C6 1_555 1_555
C7 C6 1_555 1_555
H8 C7 1_555 1_555
C8 C7 1_555 1_555
C9 C8 1_555 1_555
H9 C9 1_555 1_555
C10 C9 1_555 1_555
H10 C10 1_555 1_555
C11 N2 1_555 1_555
H11 C11 1_555 1_555
C12 C8 1_555 1_555
H12 C12 1_555 1_555
C13 C14 1_555 1_555
C14 C15 1_555 1_555
C15 S1 1_555 1_555
C16 C15 1_555 1_555
H13 C16 1_555 1_555
C17 C16 1_555 1_555
H14 C17 1_555 1_555
C18 C17 1_555 1_555
H15 C18 1_555 1_555
C19 C14 1_555 1_555
H16 C19 1_555 1_555
C20 H17 1_555 1_555
H18 C20 1_555 1_555
H19 C20 1_555 1_555
C21 N3 1_555 1_555
H20 C21 1_555 1_555
H21 C21 1_555 1_555
H22 C21 1_555 1_555
C22 N3 1_555 1_555
H23 C22 1_555 1_555
Cu1F N2 1_555 1_555
N2F Cu1 1_555 1_555
C4 C5 1_555 1_555
C11 C12 1_555 1_555
C18 C19 1_555 1_555

#END
