
#######################################################################
#
#                 Cambridge Crystallographic Data Centre
#                                CCDC 
#
#######################################################################
#
# If this CIF has been generated from an entry in the Cambridge 
# Structural Database, then it will include bibliographic, chemical, 
# crystal, experimental, refinement or atomic coordinate data resulting 
# from the CCDC's data processing and validation procedures.
#
#######################################################################

data_WAMRIL
_symmetry_cell_setting           tetragonal
_symmetry_space_group_name_H-M   'P 42/m'
_symmetry_Int_Tables_number      84
_space_group_name_Hall           '-P 4c'
loop_
_symmetry_equiv_pos_site_id
_symmetry_equiv_pos_as_xyz
1 x,y,z
2 -y,x,1/2+z
3 -x,-y,z
4 y,-x,1/2+z
5 -x,-y,-z
6 y,-x,1/2-z
7 x,y,-z
8 -y,x,1/2-z
_cell_length_a                   16.697(1)
_cell_length_b                   16.697(1)
_cell_length_c                   6.438(2)
_cell_angle_alpha                90
_cell_angle_beta                 90
_cell_angle_gamma                90
_cell_volume                     1794.85
loop_
_atom_site_label
_atom_site_type_symbol
_atom_site_fract_x
_atom_site_fract_y
_atom_site_fract_z
Cu1 Cu 0.5000 0.5000 0.2500
S1 S 0.4479(1) 0.4064(1) 0.5000
N1 N 0.3056(4) 0.3387(4) 0.5000
C1 C 0.3445(5) 0.4082(5) 0.5000
C2 C 0.2992(5) 0.4806(5) 0.5000
C3 C 0.2169(6) 0.4755(6) 0.5000
C4 C 0.1761(6) 0.4014(6) 0.5000
C5 C 0.0934(6) 0.3942(7) 0.5000
C6 C 0.0588(6) 0.3201(9) 0.5000
C7 C 0.1056(6) 0.2511(7) 0.5000
C8 C 0.1871(5) 0.2557(6) 0.5000
C9 C 0.2231(5) 0.3318(6) 0.5000
H1 H 0.3398 0.2855 0.5000
H2 H 0.3314 0.5284 0.5000
H3 H 0.1901 0.5260 0.5000
H4 H 0.0603 0.4419 0.5000
H5 H 0.0003 0.3186 0.5000
H6 H 0.0746 0.1970 0.5000
H7 H 0.2293 0.2095 0.5000
S1D S 0.5521(1) 0.5936(1) 0.5000
S1A S 0.5936(1) 0.4479(1) 0.0000
S1E S 0.4064(1) 0.5521(1) 0.0000
Cu1D Cu 0.5000 0.5000 0.7500
Cu1D_2 Cu 0.5000 0.5000 -0.2500
C1A C 0.5918(5) 0.3445(5) 0.0000
N1A N 0.6613(4) 0.3056(4) 0.0000
C2A C 0.5194(5) 0.2992(5) 0.0000
C9A C 0.6682(6) 0.2231(5) 0.0000
H1A H 0.7145 0.3398 0.0000
C3A C 0.5245(6) 0.2169(6) 0.0000
H2A H 0.4716 0.3314 0.0000
C4A C 0.5986(6) 0.1761(6) 0.0000
C8A C 0.7443(6) 0.1871(5) 0.0000
H3A H 0.4740 0.1901 0.0000
C5A C 0.6058(7) 0.0934(6) 0.0000
C7A C 0.7489(7) 0.1056(6) 0.0000
H7A H 0.7905 0.2293 0.0000
C6A C 0.6799(9) 0.0588(6) 0.0000
H4A H 0.5581 0.0603 0.0000
H6A H 0.8030 0.0746 0.0000
H5A H 0.6814 0.0003 0.0000
Cu2 Cu 1.0000 0.0000 0.2500
S2 S 1.1061(1) 0.0133(1) 0.5000
N2 N 1.2346(4) -0.0782(4) 0.5000
C10 C 1.1546(5) -0.0781(5) 0.5000
C11 C 1.1141(6) -0.1522(6) 0.5000
C12 C 1.1555(6) -0.2209(6) 0.5000
C13 C 1.2405(5) -0.2225(5) 0.5000
C14 C 1.2871(6) -0.2926(6) 0.5000
C15 C 1.3684(6) -0.2885(6) 0.5000
C16 C 1.4069(5) -0.2147(6) 0.5000
C17 C 1.3650(5) -0.1435(6) 0.5000
C18 C 1.2804(5) -0.1486(5) 0.5000
H8 H 1.2601 -0.0211 0.5000
H9 H 1.0521 -0.1540 0.5000
H10 H 1.1260 -0.2755 0.5000
H11 H 1.2601 -0.3447 0.5000
H12 H 1.3984 -0.3412 0.5000
H13 H 1.4648 -0.2135 0.5000
H14 H 1.3904 -0.0831 0.5000
S2D S 0.8939(1) -0.0133(1) 0.5000
S2A S 0.9867(1) 0.1061(1) 0.0000
S2E S 1.0133(1) -0.1061(1) 0.0000
Cu2D Cu 1.0000 0.0000 0.7500
Cu2D_2 Cu 1.0000 0.0000 -0.2500
C10A C 1.0781(5) 0.1546(5) 0.0000
N2A N 1.0782(4) 0.2346(4) 0.0000
C11A C 1.1522(6) 0.1141(6) 0.0000
C18A C 1.1486(5) 0.2804(5) 0.0000
H8A H 1.0211 0.2601 0.0000
C12A C 1.2209(6) 0.1555(6) 0.0000
H9A H 1.1540 0.0521 0.0000
C13A C 1.2225(5) 0.2405(5) 0.0000
C17A C 1.1435(6) 0.3650(5) 0.0000
H10A H 1.2755 0.1260 0.0000
C14A C 1.2926(6) 0.2871(6) 0.0000
C16A C 1.2147(6) 0.4069(5) 0.0000
H14A H 1.0831 0.3904 0.0000
C15A C 1.2885(6) 0.3684(6) 0.0000
H11A H 1.3447 0.2601 0.0000
H13A H 1.2135 0.4648 0.0000
H12A H 1.3412 0.3984 0.0000
Cl1 Cl 0.3824(1) 0.1106(1) 0.5000
O1 O 0.3061(5) 0.0769(5) 0.5000
O2 O 0.3807(6) 0.1864(5) 0.5000
O3 O 0.4257(9) 0.082(1) 0.350(3)
O3F O 0.4257(9) 0.082(1) 0.650(3)
loop_
_geom_bond_atom_site_label_1
_geom_bond_atom_site_label_2
_geom_bond_site_symmetry_1
_geom_bond_site_symmetry_2
Cu1 S1 1_555 1_555
Cu2 S2 1_555 1_555
Cl1 O1 1_555 1_555
S1 C1 1_555 1_555
S2 C10 1_555 1_555
O2 Cl1 1_555 1_555
O3 Cl1 1_555 1_555
N1 C1 1_555 1_555
N2 C10 1_555 1_555
C1 C2 1_555 1_555
C2 C3 1_555 1_555
C3 C4 1_555 1_555
C4 C5 1_555 1_555
C5 C6 1_555 1_555
C6 C7 1_555 1_555
C7 C8 1_555 1_555
C8 C9 1_555 1_555
C9 N1 1_555 1_555
C10 C11 1_555 1_555
C11 C12 1_555 1_555
C12 C13 1_555 1_555
C13 C14 1_555 1_555
C14 C15 1_555 1_555
C15 C16 1_555 1_555
C16 C17 1_555 1_555
C17 C18 1_555 1_555
C18 N2 1_555 1_555
H1 N1 1_555 1_555
H2 C2 1_555 1_555
H3 C3 1_555 1_555
H4 C5 1_555 1_555
H5 C6 1_555 1_555
H6 C7 1_555 1_555
H7 C8 1_555 1_555
H8 N2 1_555 1_555
H9 C11 1_555 1_555
H10 C12 1_555 1_555
H11 C14 1_555 1_555
H12 C15 1_555 1_555
H13 C16 1_555 1_555
H14 C17 1_555 1_555
S1D Cu1 1_555 1_555
S1A Cu1 1_555 1_555
S1E Cu1 1_555 1_555
Cu1D S1 1_555 1_555
Cu1D_2 S1A 1_555 1_555
C1A S1A 1_555 1_555
N1A C1A 1_555 1_555
C2A C1A 1_555 1_555
C9A N1A 1_555 1_555
H1A N1A 1_555 1_555
C3A C2A 1_555 1_555
H2A C2A 1_555 1_555
C4A C9A 1_555 1_555
C8A C9A 1_555 1_555
H3A C3A 1_555 1_555
C5A C4A 1_555 1_555
C7A C8A 1_555 1_555
H7A C8A 1_555 1_555
C6A C5A 1_555 1_555
H4A C5A 1_555 1_555
H6A C7A 1_555 1_555
H5A C6A 1_555 1_555
S2D Cu2 1_555 1_555
S2A Cu2 1_555 1_555
S2E Cu2 1_555 1_555
Cu2D S2 1_555 1_555
Cu2D_2 S2A 1_555 1_555
C10A S2A 1_555 1_555
N2A C10A 1_555 1_555
C11A C10A 1_555 1_555
C18A N2A 1_555 1_555
H8A N2A 1_555 1_555
C12A C11A 1_555 1_555
H9A C11A 1_555 1_555
C13A C18A 1_555 1_555
C17A C18A 1_555 1_555
H10A C12A 1_555 1_555
C14A C13A 1_555 1_555
C16A C17A 1_555 1_555
H14A C17A 1_555 1_555
C15A C14A 1_555 1_555
H11A C14A 1_555 1_555
H13A C16A 1_555 1_555
H12A C15A 1_555 1_555
O3F Cl1 1_555 1_555
C4 C9 1_555 1_555
C13 C18 1_555 1_555
S1D Cu1D 1_555 1_555
S1E Cu1D_2 1_555 1_555
C3A C4A 1_555 1_555
C7A C6A 1_555 1_555
S2D Cu2D 1_555 1_555
S2E Cu2D_2 1_555 1_555
C12A C13A 1_555 1_555
C16A C15A 1_555 1_555

#END
