
#######################################################################
#
#                 Cambridge Crystallographic Data Centre
#                                CCDC 
#
#######################################################################
#
# If this CIF has been generated from an entry in the Cambridge 
# Structural Database, then it will include bibliographic, chemical, 
# crystal, experimental, refinement or atomic coordinate data resulting 
# from the CCDC's data processing and validation procedures.
#
#######################################################################

data_WAMROR
_symmetry_cell_setting           tetragonal
_symmetry_space_group_name_H-M   'P 42/m'
_symmetry_Int_Tables_number      84
_space_group_name_Hall           '-P 4c'
loop_
_symmetry_equiv_pos_site_id
_symmetry_equiv_pos_as_xyz
1 x,y,z
2 -y,x,1/2+z
3 -x,-y,z
4 y,-x,1/2+z
5 -x,-y,-z
6 y,-x,1/2-z
7 x,y,-z
8 -y,x,1/2-z
_cell_length_a                   16.713(5)
_cell_length_b                   16.713(5)
_cell_length_c                   6.412(2)
_cell_angle_alpha                90
_cell_angle_beta                 90
_cell_angle_gamma                90
_cell_volume                     1791.03
loop_
_atom_site_label
_atom_site_type_symbol
_atom_site_fract_x
_atom_site_fract_y
_atom_site_fract_z
Cu1 Cu 0.5000 0.5000 0.2500
S1 S 0.4523(2) 0.4042(2) 0.5000
N1 N 0.3122(7) 0.3329(6) 0.5000
C1 C 0.3509(8) 0.4032(8) 0.5000
C2 C 0.3012(8) 0.4717(8) 0.5000
C3 C 0.2225(9) 0.4671(8) 0.5000
C4 C 0.1833(9) 0.392(1) 0.5000
C5 C 0.099(1) 0.383(1) 0.5000
C6 C 0.0664(8) 0.307(1) 0.5000
C7 C 0.117(1) 0.239(1) 0.5000
C8 C 0.198(1) 0.246(1) 0.5000
C9 C 0.230(1) 0.3219(8) 0.5000
H1 H 0.3441 0.2850 0.5000
H2 H 0.3262 0.5248 0.5000
H3 H 0.1904 0.5153 0.5000
H4 H 0.0645 0.4305 0.5000
H5 H 0.0078 0.3005 0.5000
H6 H 0.0933 0.1857 0.5000
H7 H 0.2329 0.1988 0.5000
S1A S 0.5958(2) 0.4523(2) 0.0000
N1A N 0.6671(6) 0.3122(7) 0.0000
C1A C 0.5968(8) 0.3509(8) 0.0000
C2A C 0.5283(8) 0.3012(8) 0.0000
C3A C 0.5329(8) 0.2225(9) 0.0000
C4A C 0.608(1) 0.1833(9) 0.0000
C5A C 0.617(1) 0.099(1) 0.0000
C6A C 0.693(1) 0.0664(8) 0.0000
C7A C 0.761(1) 0.117(1) 0.0000
C8A C 0.754(1) 0.198(1) 0.0000
C9A C 0.6781(8) 0.230(1) 0.0000
H1A H 0.7150 0.3441 0.0000
H2A H 0.4752 0.3262 0.0000
H3A H 0.4847 0.1904 0.0000
H4A H 0.5695 0.0645 0.0000
H5A H 0.6995 0.0078 0.0000
H6A H 0.8143 0.0933 0.0000
H7A H 0.8012 0.2329 0.0000
S1B S 0.5477(2) 0.5958(2) 0.5000
S1C S 0.4042(2) 0.5477(2) 0.0000
Cu1A Cu 0.5000 0.5000 0.7500
Cu1A_2 Cu 0.5000 0.5000 -0.2500
Cu2 Cu 1.0000 0.0000 0.2500
S2 S 1.1062(2) 0.0100(2) 0.5000
N2 N 1.2332(7) -0.0853(7) 0.5000
C10 C 1.153(1) -0.0833(8) 0.5000
C11 C 1.1120(8) -0.156(1) 0.5000
C12 C 1.152(1) -0.224(1) 0.5000
C13 C 1.236(1) -0.228(1) 0.5000
C14 C 1.280(1) -0.298(1) 0.5000
C15 C 1.362(1) -0.295(1) 0.5000
C16 C 1.4029(9) -0.223(1) 0.5000
C17 C 1.3582(9) -0.153(1) 0.5000
C18 C 1.2762(8) -0.156(1) 0.5000
H8 H 1.2624 -0.0349 0.5000
H9 H 1.0539 -0.1549 0.5000
H10 H 1.1219 -0.2747 0.5000
H11 H 1.2522 -0.3501 0.5000
H12 H 1.3933 -0.3446 0.5000
H13 H 1.4609 -0.2217 0.5000
H14 H 1.3857 -0.1006 0.5000
S2A S 0.9900(2) 0.1062(2) 0.0000
N2A N 1.0853(7) 0.2332(7) 0.0000
C10A C 1.0833(8) 0.153(1) 0.0000
C11A C 1.156(1) 0.1120(8) 0.0000
C12A C 1.224(1) 0.152(1) 0.0000
C13A C 1.228(1) 0.236(1) 0.0000
C14A C 1.298(1) 0.280(1) 0.0000
C15A C 1.295(1) 0.362(1) 0.0000
C16A C 1.223(1) 0.4029(9) 0.0000
C17A C 1.153(1) 0.3582(9) 0.0000
C18A C 1.156(1) 0.2762(8) 0.0000
H8A H 1.0349 0.2624 0.0000
H9A H 1.1549 0.0539 0.0000
H10A H 1.2747 0.1219 0.0000
H11A H 1.3501 0.2522 0.0000
H12A H 1.3446 0.3933 0.0000
H13A H 1.2217 0.4609 0.0000
H14A H 1.1006 0.3857 0.0000
S2B S 0.8938(2) -0.0100(2) 0.5000
S2C S 1.0100(2) -0.1062(2) 0.0000
Cu2A Cu 1.0000 0.0000 0.7500
Cu2A_2 Cu 1.0000 0.0000 -0.2500
P1 P 0.3889(3) 0.1034(3) 0.5000
F1 F 0.4432(7) 0.0747(6) 0.331(2)
O1 O 0.3200(7) 0.0543(7) 0.5000
O2 O 0.3877(7) 0.1868(7) 0.5000
F1F F 0.4432(7) 0.0747(6) 0.669(2)
loop_
_geom_bond_atom_site_label_1
_geom_bond_atom_site_label_2
_geom_bond_site_symmetry_1
_geom_bond_site_symmetry_2
Cu1 S1 1_555 1_555
Cu2 S2 1_555 1_555
S1 C1 1_555 1_555
S2 C10 1_555 1_555
P1 F1 1_555 1_555
O1 P1 1_555 1_555
O2 P1 1_555 1_555
N1 C1 1_555 1_555
N2 C10 1_555 1_555
C1 C2 1_555 1_555
C2 C3 1_555 1_555
C3 C4 1_555 1_555
C4 C5 1_555 1_555
C5 C6 1_555 1_555
C6 C7 1_555 1_555
C7 C8 1_555 1_555
C8 C9 1_555 1_555
C9 N1 1_555 1_555
C10 C11 1_555 1_555
C11 C12 1_555 1_555
C12 C13 1_555 1_555
C13 C14 1_555 1_555
C14 C15 1_555 1_555
C15 C16 1_555 1_555
C16 C17 1_555 1_555
C17 C18 1_555 1_555
C18 N2 1_555 1_555
H1 N1 1_555 1_555
H2 C2 1_555 1_555
H3 C3 1_555 1_555
H4 C5 1_555 1_555
H5 C6 1_555 1_555
H6 C7 1_555 1_555
H7 C8 1_555 1_555
H8 N2 1_555 1_555
H9 C11 1_555 1_555
H10 C12 1_555 1_555
H11 C14 1_555 1_555
H12 C15 1_555 1_555
H13 C16 1_555 1_555
H14 C17 1_555 1_555
F1F P1 1_555 1_555
S1A Cu1 1_555 1_555
N1A C1A 1_555 1_555
C1A S1A 1_555 1_555
C2A C1A 1_555 1_555
C3A C2A 1_555 1_555
C4A C3A 1_555 1_555
C5A C4A 1_555 1_555
C6A C5A 1_555 1_555
C7A C6A 1_555 1_555
C8A C7A 1_555 1_555
C9A N1A 1_555 1_555
H1A N1A 1_555 1_555
H2A C2A 1_555 1_555
H3A C3A 1_555 1_555
H4A C5A 1_555 1_555
H5A C6A 1_555 1_555
H6A C7A 1_555 1_555
H7A C8A 1_555 1_555
S2A Cu2 1_555 1_555
N2A C10A 1_555 1_555
C10A S2A 1_555 1_555
C11A C10A 1_555 1_555
C12A C11A 1_555 1_555
C13A C12A 1_555 1_555
C14A C13A 1_555 1_555
C15A C14A 1_555 1_555
C16A C15A 1_555 1_555
C17A C16A 1_555 1_555
C18A N2A 1_555 1_555
H8A N2A 1_555 1_555
H9A C11A 1_555 1_555
H10A C12A 1_555 1_555
H11A C14A 1_555 1_555
H12A C15A 1_555 1_555
H13A C16A 1_555 1_555
H14A C17A 1_555 1_555
S1B Cu1 1_555 1_555
S1C Cu1 1_555 1_555
S2B Cu2 1_555 1_555
S2C Cu2 1_555 1_555
Cu1A S1 1_555 1_555
Cu2A S2 1_555 1_555
Cu1A_2 S1A 1_555 1_555
Cu2A_2 S2A 1_555 1_555
C4 C9 1_555 1_555
C13 C18 1_555 1_555
C4A C9A 1_555 1_555
C8A C9A 1_555 1_555
C13A C18A 1_555 1_555
C17A C18A 1_555 1_555
S1B Cu1A 1_555 1_555
S1C Cu1A_2 1_555 1_555
S2B Cu2A 1_555 1_555
S2C Cu2A_2 1_555 1_555

#END
