
#######################################################################
#
#                 Cambridge Crystallographic Data Centre
#                                CCDC 
#
#######################################################################
#
# If this CIF has been generated from an entry in the Cambridge 
# Structural Database, then it will include bibliographic, chemical, 
# crystal, experimental, refinement or atomic coordinate data resulting 
# from the CCDC's data processing and validation procedures.
#
#######################################################################

data_WAMRIN01
_symmetry_cell_setting           orthorhombic
_symmetry_space_group_name_H-M   'P b c a'
_symmetry_Int_Tables_number      61
_space_group_name_Hall           '-P 2ac 2ab'
loop_
_symmetry_equiv_pos_site_id
_symmetry_equiv_pos_as_xyz
1 x,y,z
2 1/2-x,-y,1/2+z
3 1/2+x,1/2-y,-z
4 -x,1/2+y,1/2-z
5 -x,-y,-z
6 1/2+x,y,1/2-z
7 1/2-x,1/2+y,z
8 x,1/2-y,1/2+z
_cell_length_a                   19.706(4)
_cell_length_b                   14.974(3)
_cell_length_c                   19.760(3)
_cell_angle_alpha                90
_cell_angle_beta                 90
_cell_angle_gamma                90
_cell_volume                     5830.73
loop_
_atom_site_label
_atom_site_type_symbol
_atom_site_fract_x
_atom_site_fract_y
_atom_site_fract_z
Mg1 Mg 0.5000 0.5000 0.0000
Mg2 Mg 0.47417(10) 0.26455(12) 0.02532(10)
O1 O 0.4024(2) 0.4683(3) -0.0140(3)
O2 O 0.4232(3) 0.1620(4) 0.0747(4)
O3 O 0.3833(2) 0.3258(3) 0.0092(3)
O4 O 0.4930(4) 0.4689(3) 0.0995(2)
O5 O 0.4870(3) 0.3232(3) 0.1174(2)
O6 O 0.0647(2) 0.3041(3) -0.0378(3)
O7 O 0.1450(3) 0.2132(3) 0.0015(4)
O8 O 0.5096(4) 0.2157(3) 0.3560(3)
H1 H 0.5089 0.1792 0.3868
O9 O 0.4633(3) 0.3037(3) 0.4352(2)
N1 N 0.1733(5) 0.6095(6) -0.0387(5)
H2 H 0.2016 0.6532 -0.0399
H3 H 0.1306 0.6195 -0.0433
N2 N 0.4686(7) 0.6100(4) 0.3281(4)
H4 H 0.4676 0.6541 0.3002
H5 H 0.4659 0.6197 0.3709
C1 C 0.4850(5) 0.4190(4) 0.2119(3)
C2 C 0.2888(3) 0.4177(4) -0.0125(5)
C3 C 0.1969(4) 0.5217(5) -0.0292(6)
C4 C 0.2645(4) 0.5058(5) -0.0220(6)
H6 H 0.2950 0.5532 -0.0232
C5 C 0.4821(5) 0.3646(4) 0.3265(3)
C6 C 0.4848(4) 0.2891(4) 0.3765(4)
C7 C 0.1738(4) 0.3637(5) -0.0176(5)
C8 C 0.4746(6) 0.5223(5) 0.3037(4)
C9 C 0.3630(3) 0.4031(4) -0.0061(4)
C10 C 0.2430(4) 0.3476(4) -0.0129(5)
H7 H 0.2587 0.2892 -0.0098
C11 C 0.1514(4) 0.4513(5) -0.0278(6)
H8 H 0.1053 0.4624 -0.0337
C12 C 0.4756(5) 0.4507(5) 0.3503(4)
H9 H 0.4719 0.4616 0.3965
C13 C 0.4868(5) 0.3484(4) 0.2574(4)
H10 H 0.4912 0.2902 0.2416
C14 C 0.4790(6) 0.5051(5) 0.2356(4)
H11 H 0.4779 0.5523 0.2051
C15 C 0.4890(4) 0.4023(4) 0.1365(3)
C16 C 0.1243(4) 0.2881(4) -0.0188(5)
O10 O 0.5296(2) 0.3686(3) -0.0259(2)
H12 H 0.515(4) 0.342(5) -0.060(3)
H13 H 0.556(10) 0.337(9) -0.003(8)
H14 H 0.436(4) 0.139(5) 0.111(2)
H15 H 0.431(11) 0.132(9) 0.042(3)
Mg2D Mg 0.52583(10) 0.73545(12) -0.02532(10)
Mg2B Mg -0.02583(10) 0.23545(12) -0.02532(10)
Mg2G Mg 0.47417(10) 0.23545(12) 0.52532(10)
Mg2F Mg 1.02583(10) 0.76455(12) 0.02532(10)
Mg2C Mg 0.52583(10) 0.76455(12) -0.52532(10)
O1D O 0.5976(2) 0.5317(3) 0.0140(3)
O2D O 0.5768(3) 0.8380(4) -0.0747(4)
O3D O 0.6167(2) 0.6742(3) -0.0092(3)
O4D O 0.5070(4) 0.5311(3) -0.0995(2)
O5D O 0.5130(3) 0.6768(3) -0.1174(2)
O6D O 0.9353(2) 0.6959(3) 0.0378(3)
O6B O 0.5647(2) 0.1959(3) 0.0378(3)
O6F O 0.4353(2) 0.8041(3) -0.0378(3)
O7D O 0.8550(3) 0.7868(3) -0.0015(4)
O8D O 0.4904(4) 0.7843(3) -0.3560(3)
H1D H 0.4911 0.8208 -0.3868
O9D O 0.5367(3) 0.6963(3) -0.4352(2)
O9G O 0.4633(3) 0.1963(3) -0.0648(2)
O9C O 0.5367(3) 0.8037(3) 0.0648(2)
N1D N 0.8267(5) 0.3905(6) 0.0387(5)
H2D H 0.7984 0.3468 0.0399
H3D H 0.8694 0.3805 0.0433
N2D N 0.5314(7) 0.3900(4) -0.3281(4)
H4D H 0.5324 0.3459 -0.3002
H5D H 0.5341 0.3803 -0.3709
C1D C 0.5150(5) 0.5810(4) -0.2119(3)
C2D C 0.7112(3) 0.5823(4) 0.0125(5)
C3D C 0.8031(4) 0.4783(5) 0.0292(6)
C4D C 0.7355(4) 0.4942(5) 0.0220(6)
H6D H 0.7050 0.4468 0.0232
C5D C 0.5179(5) 0.6354(4) -0.3265(3)
C6D C 0.5152(4) 0.7109(4) -0.3765(4)
C7D C 0.8262(4) 0.6363(5) 0.0176(5)
C8D C 0.5254(6) 0.4777(5) -0.3037(4)
C9D C 0.6370(3) 0.5969(4) 0.0061(4)
C10D C 0.7570(4) 0.6524(4) 0.0129(5)
H7D H 0.7413 0.7108 0.0098
C11D C 0.8486(4) 0.5487(5) 0.0278(6)
H8D H 0.8947 0.5376 0.0337
C12D C 0.5244(5) 0.5493(5) -0.3503(4)
H9D H 0.5281 0.5384 -0.3965
C13D C 0.5132(5) 0.6516(4) -0.2574(4)
H10D H 0.5088 0.7098 -0.2416
C14D C 0.5210(6) 0.4949(5) -0.2356(4)
H11D H 0.5221 0.4477 -0.2051
C15D C 0.5110(4) 0.5977(4) -0.1365(3)
C16D C 0.8757(4) 0.7119(4) 0.0188(5)
O10D O 0.4704(2) 0.6314(3) 0.0259(2)
H12D H 0.485(4) 0.658(5) 0.060(3)
H13D H 0.444(10) 0.663(9) 0.003(8)
H14D H 0.564(4) 0.861(5) -0.111(2)
H15D H 0.569(11) 0.868(9) -0.042(3)
loop_
_geom_bond_atom_site_label_1
_geom_bond_atom_site_label_2
_geom_bond_site_symmetry_1
_geom_bond_site_symmetry_2
Mg1 O1 1_555 1_555
Mg2 O2 1_555 1_555
O1 C9 1_555 1_555
O2 H14 1_555 1_555
O3 Mg2 1_555 1_555
O4 Mg1 1_555 1_555
O5 Mg2 1_555 1_555
O6 C16 1_555 1_555
O7 C16 1_555 1_555
O8 H1 1_555 1_555
O9 C6 1_555 1_555
N1 H2 1_555 1_555
H3 N1 1_555 1_555
N2 H4 1_555 1_555
H5 N2 1_555 1_555
C1 C13 1_555 1_555
C2 C4 1_555 1_555
C3 N1 1_555 1_555
C4 C3 1_555 1_555
H6 C4 1_555 1_555
C5 C6 1_555 1_555
C6 O8 1_555 1_555
C7 C10 1_555 1_555
C8 N2 1_555 1_555
C9 O3 1_555 1_555
C10 C2 1_555 1_555
H7 C10 1_555 1_555
C11 C3 1_555 1_555
H8 C11 1_555 1_555
C12 C5 1_555 1_555
H9 C12 1_555 1_555
C13 C5 1_555 1_555
H10 C13 1_555 1_555
C14 C1 1_555 1_555
H11 C14 1_555 1_555
C15 O4 1_555 1_555
C16 C7 1_555 1_555
O10 Mg1 1_555 1_555
H12 O10 1_555 1_555
H13 O10 1_555 1_555
H15 O2 1_555 1_555
Mg2D O2D 1_555 1_555
Mg2B O6 1_555 1_555
Mg2G O9 1_555 1_555
Mg2F O6D 1_555 1_555
Mg2C O9D 1_555 1_555
O1D Mg1 1_555 1_555
O2D H14D 1_555 1_555
O3D Mg2D 1_555 1_555
O4D Mg1 1_555 1_555
O5D Mg2D 1_555 1_555
O6D C16D 1_555 1_555
O6B Mg2 1_555 1_555
O6F Mg2D 1_555 1_555
O7D C16D 1_555 1_555
O8D H1D 1_555 1_555
O9D C6D 1_555 1_555
O9G Mg2 1_555 1_555
O9C Mg2D 1_555 1_555
N1D H2D 1_555 1_555
H3D N1D 1_555 1_555
N2D H4D 1_555 1_555
H5D N2D 1_555 1_555
C1D C13D 1_555 1_555
C2D C4D 1_555 1_555
C3D N1D 1_555 1_555
C4D C3D 1_555 1_555
H6D C4D 1_555 1_555
C5D C6D 1_555 1_555
C6D O8D 1_555 1_555
C7D C10D 1_555 1_555
C8D N2D 1_555 1_555
C9D O1D 1_555 1_555
C10D C2D 1_555 1_555
H7D C10D 1_555 1_555
C11D C3D 1_555 1_555
H8D C11D 1_555 1_555
C12D C5D 1_555 1_555
H9D C12D 1_555 1_555
C13D C5D 1_555 1_555
H10D C13D 1_555 1_555
C14D C1D 1_555 1_555
H11D C14D 1_555 1_555
C15D O4D 1_555 1_555
C16D C7D 1_555 1_555
O10D Mg1 1_555 1_555
H12D O10D 1_555 1_555
H13D O10D 1_555 1_555
H15D O2D 1_555 1_555
Mg2 O10 1_555 1_555
O5 C15 1_555 1_555
C1 C15 1_555 1_555
C2 C9 1_555 1_555
C7 C11 1_555 1_555
C8 C12 1_555 1_555
C8 C14 1_555 1_555
Mg2D O10D 1_555 1_555
O3D C9D 1_555 1_555
O5D C15D 1_555 1_555
C1D C15D 1_555 1_555
C2D C9D 1_555 1_555
C7D C11D 1_555 1_555
C8D C12D 1_555 1_555
C8D C14D 1_555 1_555

#END
