
#######################################################################
#
#                 Cambridge Crystallographic Data Centre
#                                CCDC 
#
#######################################################################
#
# If this CIF has been generated from an entry in the Cambridge 
# Structural Database, then it will include bibliographic, chemical, 
# crystal, experimental, refinement or atomic coordinate data resulting 
# from the CCDC's data processing and validation procedures.
#
#######################################################################

data_WAMWAK
_symmetry_cell_setting           monoclinic
_symmetry_space_group_name_H-M   'P 21/c'
_symmetry_Int_Tables_number      14
_space_group_name_Hall           '-P 2ybc'
loop_
_symmetry_equiv_pos_site_id
_symmetry_equiv_pos_as_xyz
1 x,y,z
2 -x,1/2+y,1/2-z
3 -x,-y,-z
4 x,1/2-y,1/2+z
_cell_length_a                   18.281(4)
_cell_length_b                   15.144(3)
_cell_length_c                   12.922(3)
_cell_angle_alpha                90
_cell_angle_beta                 107.894(4)
_cell_angle_gamma                90
_cell_volume                     3404.37
loop_
_atom_site_label
_atom_site_type_symbol
_atom_site_fract_x
_atom_site_fract_y
_atom_site_fract_z
Ag1 Ag 0.645938(19) 0.47697(2) 0.36057(3)
Ag2 Ag 0.456519(18) -0.17383(2) 0.34944(3)
C1 C 0.5754(2) 0.6709(3) 0.3964(3)
C2 C 0.6368(2) 0.8023(3) 0.4076(3)
C3 C 0.7058(2) 0.6767(3) 0.4510(3)
C4 C 0.7799(3) 0.5492(3) 0.5439(3)
H1 H 0.7356 0.5439 0.5724
H2 H 0.8273 0.5478 0.6070
C5 C 0.7802(3) 0.4703(3) 0.4736(4)
H3 H 0.7782 0.4137 0.5042
C6 C 0.7830(3) 0.4733(3) 0.3717(4)
H4 H 0.7851 0.5286 0.3381
H5 H 0.7830 0.4200 0.3328
C7 C 0.8472(2) 0.6864(3) 0.5176(4)
H6 H 0.8638 0.7006 0.5962
H7 H 0.8377 0.7427 0.4767
C8 C 0.9100(3) 0.6369(3) 0.4909(4)
H8 H 0.9026 0.6224 0.4169
C9 C 0.9740(3) 0.6124(3) 0.5624(4)
H9 H 0.9833 0.6258 0.6371
H10 H 1.0115 0.5811 0.5397
C10 C 0.2955(2) -0.1678(3) 0.3977(3)
C11 C 0.2814(2) -0.2394(3) 0.2392(4)
C12 C 0.1885(2) -0.2473(3) 0.3205(4)
C13 C 0.0895(3) -0.2517(3) 0.4133(4)
C14 C 0.0498(3) -0.1643(3) 0.3873(4)
H11 H 0.0800 -0.1146 0.3815
C15 C -0.0234(4) -0.1517(4) 0.3721(5)
H12 H -0.0553 -0.2000 0.3773
H13 H -0.0448 -0.0943 0.3559
C16 C 0.0636(3) -0.3194(3) 0.2286(4)
C17 C 0.0362(3) -0.4061(4) 0.2562(4)
H14 H 0.0731 -0.4510 0.2851
C18 C -0.0358(3) -0.4237(4) 0.2428(4)
H15 H -0.0739 -0.3801 0.2141
H16 H -0.0502 -0.4803 0.2618
C19 C 0.4573(2) 0.2885(3) 0.3708(3)
C20 C 0.4855(2) 0.2035(3) 0.3802(3)
H17 H 0.5394 0.1943 0.3998
C21 C 0.4365(2) 0.1311(3) 0.3616(3)
C22 C 0.3580(2) 0.1449(3) 0.3332(3)
H18 H 0.3235 0.0964 0.3207
C23 C 0.3310(2) 0.2301(3) 0.3233(3)
C24 C 0.3788(2) 0.3032(3) 0.3418(3)
H19 H 0.3584 0.3614 0.3348
C25 C 0.5097(2) 0.3688(3) 0.3849(3)
C26 C 0.4677(2) 0.0378(3) 0.3655(3)
N1 N 0.64237(19) 0.6253(2) 0.4278(3)
N2 N 0.56880(19) 0.7594(2) 0.3887(3)
N3 N 0.70660(19) 0.7639(2) 0.4380(3)
N4 N 0.51105(19) 0.6244(2) 0.3704(3)
H25 H 0.4663 0.6514 0.3492
H26 H 0.5130 0.5663 0.3744
N5 N 0.6349(2) 0.8895(2) 0.3943(3)
H27 H 0.6779 0.9193 0.4054
H28 H 0.5905 0.9174 0.3744
N6 N 0.77554(19) 0.6346(2) 0.4901(3)
N7 N 0.3292(2) -0.1931(2) 0.3225(3)
N8 N 0.2107(2) -0.2678(3) 0.2338(3)
N9 N 0.2276(2) -0.1951(2) 0.4032(3)
N10 N 0.3335(2) -0.1107(3) 0.4741(3)
H29 H 0.3134 -0.0933 0.5244
H30 H 0.3787 -0.0906 0.4742
N11 N 0.3060(2) -0.2573(3) 0.1542(3)
H31 H 0.2763 -0.2865 0.0981
H32 H 0.3520 -0.2399 0.1544
N12 N 0.1199(2) -0.2797(3) 0.3248(3)
N13 N 0.2473(2) 0.2447(3) 0.2871(3)
O1 O 0.58103(17) 0.3538(2) 0.4023(3)
O3 O 0.48074(18) 0.4432(2) 0.3794(3)
O4 O 0.53633(18) 0.0247(2) 0.4086(3)
O5 O 0.41875(17) -0.02280(19) 0.3232(2)
O6 O 0.20502(19) 0.1805(2) 0.2707(3)
O7 O 0.22351(18) 0.3212(2) 0.2732(3)
Ag1A Ag 0.354062(19) -0.02303(2) 0.13943(3)
Ag2_2 Ag 0.456519(18) 0.82617(2) 0.34944(3)
N2_2 N 0.56880(19) -0.2406(2) 0.3887(3)
O5A O 0.58125(17) 0.47720(19) 0.1768(2)
C27 C 0.8374(3) 0.9647(4) 0.4835(5)
H20 H 0.8931 0.9564 0.5025
H21 H 0.8118 0.9071 0.4692
H22 H 0.8250 0.9935 0.5439
C28 C 0.8100(3) 1.0216(4) 0.3831(4)
H23 H 0.8358 1.0798 0.3966
H24 H 0.8225 0.9931 0.3217
O8 O 0.72943(18) 1.0325(2) 0.3571(3)
H35 H 0.7102 1.0392 0.2896
O2 O 0.35395(18) 0.5575(2) 0.3693(3)
H33 H 0.3894 0.5220 0.3669
H34 H 0.3682 0.5840 0.4302
loop_
_geom_bond_atom_site_label_1
_geom_bond_atom_site_label_2
_geom_bond_site_symmetry_1
_geom_bond_site_symmetry_2
Ag1 C5 1_555 1_555
Ag2 N7 1_555 1_555
C1 N1 1_555 1_555
C2 N2 1_555 1_555
C3 N1 1_555 1_555
C4 H1 1_555 1_555
H2 C4 1_555 1_555
C5 C4 1_555 1_555
H3 C5 1_555 1_555
C6 Ag1 1_555 1_555
H4 C6 1_555 1_555
H5 C6 1_555 1_555
C7 H6 1_555 1_555
H7 C7 1_555 1_555
C8 C7 1_555 1_555
H8 C8 1_555 1_555
C9 C8 1_555 1_555
H9 C9 1_555 1_555
H10 C9 1_555 1_555
C10 N7 1_555 1_555
C11 N7 1_555 1_555
C12 N8 1_555 1_555
C13 C14 1_555 1_555
C14 H11 1_555 1_555
C15 C14 1_555 1_555
H12 C15 1_555 1_555
H13 C15 1_555 1_555
C16 C17 1_555 1_555
C17 H14 1_555 1_555
C18 C17 1_555 1_555
H15 C18 1_555 1_555
H16 C18 1_555 1_555
C19 C20 1_555 1_555
C20 H17 1_555 1_555
C21 C20 1_555 1_555
C22 C21 1_555 1_555
H18 C22 1_555 1_555
C23 C22 1_555 1_555
C24 C19 1_555 1_555
H19 C24 1_555 1_555
C25 C19 1_555 1_555
C26 C21 1_555 1_555
C27 H20 1_555 1_555
H21 C27 1_555 1_555
H22 C27 1_555 1_555
C28 C27 1_555 1_555
H23 C28 1_555 1_555
H24 C28 1_555 1_555
N1 Ag1 1_555 1_555
N2 C1 1_555 1_555
N3 C2 1_555 1_555
N4 C1 1_555 1_555
H25 N4 1_555 1_555
H26 N4 1_555 1_555
N5 C2 1_555 1_555
H27 N5 1_555 1_555
H28 N5 1_555 1_555
N6 C3 1_555 1_555
N8 C11 1_555 1_555
N9 C10 1_555 1_555
N10 C10 1_555 1_555
H29 N10 1_555 1_555
H30 N10 1_555 1_555
N11 C11 1_555 1_555
H31 N11 1_555 1_555
H32 N11 1_555 1_555
N12 C12 1_555 1_555
N13 C23 1_555 1_555
O1 Ag1 1_555 1_555
O2 H33 1_555 1_555
H34 O2 1_555 1_555
O3 C25 1_555 1_555
O4 C26 1_555 1_555
O5 Ag2 1_555 1_555
O6 N13 1_555 1_555
O7 N13 1_555 1_555
O8 C28 1_555 1_555
H35 O8 1_555 1_555
Ag1A O5 1_555 1_555
Ag2_2 N2 1_555 1_555
N2_2 Ag2 1_555 1_555
O5A Ag1 1_555 1_555
C3 N3 1_555 1_555
C4 N6 1_555 1_555
C5 C6 1_555 1_555
C7 N6 1_555 1_555
C12 N9 1_555 1_555
C13 N12 1_555 1_555
C16 N12 1_555 1_555
C23 C24 1_555 1_555
C25 O1 1_555 1_555
C26 O5 1_555 1_555

#END
