
#######################################################################
#
#                 Cambridge Crystallographic Data Centre
#                                CCDC 
#
#######################################################################
#
# If this CIF has been generated from an entry in the Cambridge 
# Structural Database, then it will include bibliographic, chemical, 
# crystal, experimental, refinement or atomic coordinate data resulting 
# from the CCDC's data processing and validation procedures.
#
#######################################################################

data_WAMZAN
_symmetry_cell_setting           monoclinic
_symmetry_space_group_name_H-M   'P 21/n'
_symmetry_Int_Tables_number      14
_space_group_name_Hall           '-P 2yn'
loop_
_symmetry_equiv_pos_site_id
_symmetry_equiv_pos_as_xyz
1 x,y,z
2 1/2-x,1/2+y,1/2-z
3 -x,-y,-z
4 1/2+x,1/2-y,1/2+z
_cell_length_a                   7.5642(15)
_cell_length_b                   8.0244(16)
_cell_length_c                   10.407(2)
_cell_angle_alpha                90
_cell_angle_beta                 101.70(3)
_cell_angle_gamma                90
_cell_volume                     618.561
loop_
_atom_site_label
_atom_site_type_symbol
_atom_site_fract_x
_atom_site_fract_y
_atom_site_fract_z
Zn1 Zn 0.64420(4) 0.28659(4) 0.60505(3)
P1 P 0.79094(9) 0.18208(8) 0.89101(6)
O1 O 0.8221(3) 0.1923(3) 0.75200(19)
O2 O 0.9189(3) 0.2872(2) 0.98961(18)
O3 O 0.7737(3) 0.0061(2) 0.94032(19)
N1 N 0.4920(3) 0.3440(3) 0.7644(2)
N2 N 0.3020(3) 0.3225(3) 0.9665(2)
C1 C 0.5671(3) 0.2739(3) 0.8806(2)
C2 C 0.4705(3) 0.2660(3) 0.9805(3)
H1 H 0.5257 0.2194 1.0604
C3 C 0.2319(4) 0.3991(3) 0.8529(3)
H2 H 0.1168 0.4447 0.8410
C4 C 0.3270(4) 0.4115(3) 0.7533(3)
H3 H 0.2758 0.4680 0.6768
Zn1A Zn 0.85580(4) -0.21341(4) 0.89495(3)
Zn1C Zn 0.14420(4) 0.21341(4) 1.10505(3)
Zn1C_2 Zn 1.14420(4) 0.21341(4) 1.10505(3)
O2C O 0.4189(3) 0.2128(2) 0.48961(18)
O3A O 0.7263(3) 0.5061(2) 0.55968(19)
N2C N 0.8020(3) 0.1775(3) 0.4665(2)
loop_
_geom_bond_atom_site_label_1
_geom_bond_atom_site_label_2
_geom_bond_site_symmetry_1
_geom_bond_site_symmetry_2
Zn1 O1 1_555 1_555
P1 O1 1_555 1_555
O2 P1 1_555 1_555
O3 P1 1_555 1_555
N1 Zn1 1_555 1_555
N2 C2 1_555 1_555
C1 P1 1_555 1_555
C2 C1 1_555 1_555
H1 C2 1_555 1_555
C3 N2 1_555 1_555
H2 C3 1_555 1_555
C4 N1 1_555 1_555
H3 C4 1_555 1_555
Zn1A O3 1_555 1_555
Zn1C N2 1_555 1_555
Zn1C_2 O2 1_555 1_555
O2C Zn1 1_555 1_555
O3A Zn1 1_555 1_555
N2C Zn1 1_555 1_555
N1 C1 1_555 1_555
C3 C4 1_555 1_555

#END
