
#######################################################################
#
#                 Cambridge Crystallographic Data Centre
#                                CCDC 
#
#######################################################################
#
# If this CIF has been generated from an entry in the Cambridge 
# Structural Database, then it will include bibliographic, chemical, 
# crystal, experimental, refinement or atomic coordinate data resulting 
# from the CCDC's data processing and validation procedures.
#
#######################################################################

data_WAMZUH
_symmetry_cell_setting           triclinic
_symmetry_space_group_name_H-M   'P -1'
_symmetry_Int_Tables_number      2
_space_group_name_Hall           '-P 1'
loop_
_symmetry_equiv_pos_site_id
_symmetry_equiv_pos_as_xyz
1 x,y,z
2 -x,-y,-z
_cell_length_a                   7.9373(3)
_cell_length_b                   10.1767(4)
_cell_length_c                   12.9063(4)
_cell_angle_alpha                110.058(2)
_cell_angle_beta                 106.054(2)
_cell_angle_gamma                92.891(2)
_cell_volume                     928.822
loop_
_atom_site_label
_atom_site_type_symbol
_atom_site_fract_x
_atom_site_fract_y
_atom_site_fract_z
Cd1 Cd 1.47118(2) 1.343094(19) 1.056824(17)
O1 O 1.5727(3) 1.5888(2) 1.11653(18)
O2 O 1.9740(4) 1.8705(3) 1.5628(2)
O3 O 1.1813(3) 1.4098(2) 1.0334(2)
O4 O 0.6799(3) 1.1475(2) 1.1342(2)
N1 N 1.5962(3) 1.4507(3) 1.2689(2)
N2 N 1.7560(4) 1.7836(3) 1.2586(2)
N3 N 1.8547(4) 1.8501(3) 1.3753(3)
H1 H 1.9079 1.9349 1.3952
N4 N 1.2711(3) 1.1949(3) 1.1108(2)
N5 N 0.9055(3) 1.3774(3) 1.0501(2)
H2 H 0.8815 1.4458 1.0266
N6 N 0.7707(3) 1.3131(3) 1.0747(2)
C1 C 1.6140(4) 1.3872(3) 1.3449(3)
H3 H 1.5571 1.2941 1.3174
C2 C 1.7114(4) 1.4490(3) 1.4629(3)
C3 C 1.7975(5) 1.5863(4) 1.5027(3)
H4 H 1.8636 1.6326 1.5805
C4 C 1.7842(4) 1.6551(3) 1.4242(3)
C5 C 1.6830(4) 1.5852(3) 1.3077(3)
C6 C 1.6691(4) 1.6547(3) 1.2239(3)
C7 C 1.8781(5) 1.7998(3) 1.4610(3)
C8 C 1.7172(6) 1.3611(4) 1.5375(3)
H5 H 1.5961 1.3261 1.5286
H6 H 1.7725 1.2794 1.5078
C9 C 1.8147(6) 1.4362(5) 1.6652(3)
H7 H 1.8095 1.3723 1.7047
H8 H 1.7602 1.5164 1.6964
H9 H 1.9365 1.4678 1.6758
C10 C 1.3064(4) 1.0896(3) 1.1479(3)
H10 H 1.4175 1.0623 1.1526
C11 C 1.1878(4) 1.0161(3) 1.1806(3)
C12 C 1.0225(4) 1.0553(3) 1.1710(3)
H11 H 0.9405 1.0105 1.1925
C13 C 0.9777(3) 1.1632(3) 1.1286(2)
C14 C 1.1075(3) 1.2294(3) 1.1007(2)
C15 C 1.0675(3) 1.3446(3) 1.0590(3)
C16 C 0.8030(3) 1.2081(3) 1.1129(2)
C17 C 1.2459(4) 0.9009(4) 1.2253(3)
H12 H 1.2966 0.8360 1.1719
H13 H 1.1426 0.8478 1.2273
C18 C 1.3810(6) 0.9592(5) 1.3454(4)
H14 H 1.4130 0.8824 1.3700
H15 H 1.3309 1.0224 1.3988
H16 H 1.4849 1.0096 1.3435
O5 O 1.4076(3) 1.1279(3) 0.9050(2)
Cd1A Cd 1.52882(2) 1.656906(19) 0.943176(17)
Cd1_2 Cd 0.47118(2) 1.343094(19) 1.056824(17)
O1A O 1.4273(3) 1.4112(2) 0.88347(18)
N6_2 N 1.7707(3) 1.3131(3) 1.0747(2)
loop_
_geom_bond_atom_site_label_1
_geom_bond_atom_site_label_2
_geom_bond_site_symmetry_1
_geom_bond_site_symmetry_2
Cd1 O1 1_555 1_555
O1 C6 1_555 1_555
O2 C7 1_555 1_555
O3 Cd1 1_555 1_555
O4 C16 1_555 1_555
N1 Cd1 1_555 1_555
N2 N3 1_555 1_555
N3 H1 1_555 1_555
N4 Cd1 1_555 1_555
N5 H2 1_555 1_555
N6 N5 1_555 1_555
C1 N1 1_555 1_555
H3 C1 1_555 1_555
C2 C1 1_555 1_555
C3 C2 1_555 1_555
H4 C3 1_555 1_555
C4 C3 1_555 1_555
C5 N1 1_555 1_555
C6 N2 1_555 1_555
C7 N3 1_555 1_555
C8 C2 1_555 1_555
H5 C8 1_555 1_555
H6 C8 1_555 1_555
C9 C8 1_555 1_555
H7 C9 1_555 1_555
H8 C9 1_555 1_555
H9 C9 1_555 1_555
C10 N4 1_555 1_555
H10 C10 1_555 1_555
C11 C10 1_555 1_555
C12 C11 1_555 1_555
H11 C12 1_555 1_555
C13 C12 1_555 1_555
C14 N4 1_555 1_555
C15 O3 1_555 1_555
C16 N6 1_555 1_555
C17 C11 1_555 1_555
H12 C17 1_555 1_555
H13 C17 1_555 1_555
C18 C17 1_555 1_555
H14 C18 1_555 1_555
H15 C18 1_555 1_555
H16 C18 1_555 1_555
O5 Cd1 1_555 1_555
Cd1A O1 1_555 1_555
Cd1_2 N6 1_555 1_555
O1A Cd1 1_555 1_555
N6_2 Cd1 1_555 1_555
N5 C15 1_555 1_555
C4 C5 1_555 1_555
C4 C7 1_555 1_555
C5 C6 1_555 1_555
C13 C14 1_555 1_555
C13 C16 1_555 1_555
C14 C15 1_555 1_555
Cd1A O1A 1_555 1_555

#END
