
#######################################################################
#
#                 Cambridge Crystallographic Data Centre
#                                CCDC 
#
#######################################################################
#
# If this CIF has been generated from an entry in the Cambridge 
# Structural Database, then it will include bibliographic, chemical, 
# crystal, experimental, refinement or atomic coordinate data resulting 
# from the CCDC's data processing and validation procedures.
#
#######################################################################

data_WAMZIV
_symmetry_cell_setting           monoclinic
_symmetry_space_group_name_H-M   'C 2/c'
_symmetry_Int_Tables_number      15
_space_group_name_Hall           '-C 2yn'
loop_
_symmetry_equiv_pos_site_id
_symmetry_equiv_pos_as_xyz
1 x,y,z
2 -x,y,1/2-z
3 1/2+x,1/2+y,z
4 1/2-x,1/2+y,1/2-z
5 -x,-y,-z
6 x,-y,1/2+z
7 1/2-x,1/2-y,-z
8 1/2+x,1/2-y,1/2+z
_cell_length_a                   23.543(5)
_cell_length_b                   10.041(2)
_cell_length_c                   6.9386(14)
_cell_angle_alpha                90
_cell_angle_beta                 101.73(3)
_cell_angle_gamma                90
_cell_volume                     1606
loop_
_atom_site_label
_atom_site_type_symbol
_atom_site_fract_x
_atom_site_fract_y
_atom_site_fract_z
Cd1 Cd 0.0000 -0.070623(18) 0.2500
N1 N 0.07711(8) -0.22703(17) 0.3005(2)
N2 N 0.13078(8) -0.1063(2) 0.7957(3)
N3 N 0.18141(8) -0.1811(2) 0.8390(3)
H1 H 0.2032 -0.1675 0.9528
O1 O 0.04741(7) -0.06396(15) 0.5768(2)
O2 O 0.24464(7) -0.34136(18) 0.7857(3)
C1 C 0.11371(8) -0.2140(2) 0.4771(3)
C2 C 0.16524(9) -0.2851(2) 0.5270(3)
C3 C 0.18116(10) -0.3692(2) 0.3864(4)
H2 H 0.2159 -0.4162 0.4140
C4 C 0.14441(11) -0.3807(2) 0.2074(4)
H3 H 0.1544 -0.4351 0.1111
C5 C 0.09154(10) -0.3106(2) 0.1681(3)
C6 C 0.04893(12) -0.3283(3) -0.0219(4)
H4 H 0.0157 -0.2729 -0.0222
H5 H 0.0370 -0.4198 -0.0360
H6 H 0.0667 -0.3035 -0.1294
C7 C 0.09762(8) -0.1238(2) 0.6230(3)
C8 C 0.20063(9) -0.2718(2) 0.7255(3)
Cd1D Cd 0.0000 0.070623(18) 0.7500
Cd1D_2 Cd 0.0000 0.070623(18) -0.2500
N1E N 0.07711(8) 0.22703(17) -0.1995(2)
N1A N -0.07711(8) -0.22703(17) 0.1995(2)
N2E N 0.13078(8) 0.1063(2) 0.2957(3)
N3E N 0.18141(8) 0.1811(2) 0.3390(3)
H1E H 0.2032 0.1675 0.4528
O1E O 0.04741(7) 0.06396(15) 0.0768(2)
O1D O -0.04741(7) 0.06396(15) 0.4232(2)
O1A O -0.04741(7) -0.06396(15) -0.0768(2)
O2E O 0.24464(7) 0.34136(18) 0.2857(3)
C1E C 0.11371(8) 0.2140(2) -0.0229(3)
C2E C 0.16524(9) 0.2851(2) 0.0270(3)
C3E C 0.18116(10) 0.3692(2) -0.1136(4)
H2E H 0.2159 0.4162 -0.0860
C4E C 0.14441(11) 0.3807(2) -0.2926(4)
H3E H 0.1544 0.4351 -0.3889
C5E C 0.09154(10) 0.3106(2) -0.3319(3)
C6E C 0.04893(12) 0.3283(3) -0.5219(4)
H4E H 0.0157 0.2729 -0.5222
H5E H 0.0370 0.4198 -0.5360
H6E H 0.0667 0.3035 -0.6294
C7E C 0.09762(8) 0.1238(2) 0.1230(3)
C8E C 0.20063(9) 0.2718(2) 0.2255(3)
loop_
_geom_bond_atom_site_label_1
_geom_bond_atom_site_label_2
_geom_bond_site_symmetry_1
_geom_bond_site_symmetry_2
Cd1 N1 1_555 1_555
N1 C1 1_555 1_555
N2 N3 1_555 1_555
N3 H1 1_555 1_555
O1 Cd1 1_555 1_555
O2 C8 1_555 1_555
C1 C2 1_555 1_555
C2 C3 1_555 1_555
C3 H2 1_555 1_555
C4 C3 1_555 1_555
H3 C4 1_555 1_555
C5 N1 1_555 1_555
C6 C5 1_555 1_555
H4 C6 1_555 1_555
H5 C6 1_555 1_555
H6 C6 1_555 1_555
C7 N2 1_555 1_555
C8 N3 1_555 1_555
Cd1D O1 1_555 1_555
Cd1D_2 N1E 1_555 1_555
N1E C1E 1_555 1_555
N1A Cd1 1_555 1_555
N2E N3E 1_555 1_555
N3E H1E 1_555 1_555
O1E Cd1 1_555 1_555
O1D Cd1 1_555 1_555
O1A Cd1 1_555 1_555
O2E C8E 1_555 1_555
C1E C2E 1_555 1_555
C2E C3E 1_555 1_555
C3E H2E 1_555 1_555
C4E C3E 1_555 1_555
H3E C4E 1_555 1_555
C5E N1E 1_555 1_555
C6E C5E 1_555 1_555
H4E C6E 1_555 1_555
H5E C6E 1_555 1_555
H6E C6E 1_555 1_555
C7E N2E 1_555 1_555
C8E N3E 1_555 1_555
O1 C7 1_555 1_555
C1 C7 1_555 1_555
C2 C8 1_555 1_555
C4 C5 1_555 1_555
Cd1D O1D 1_555 1_555
Cd1D_2 O1E 1_555 1_555
Cd1D_2 O1A 1_555 1_555
O1E C7E 1_555 1_555
C1E C7E 1_555 1_555
C2E C8E 1_555 1_555
C4E C5E 1_555 1_555

#END
