
#######################################################################
#
#                 Cambridge Crystallographic Data Centre
#                                CCDC 
#
#######################################################################
#
# If this CIF has been generated from an entry in the Cambridge 
# Structural Database, then it will include bibliographic, chemical, 
# crystal, experimental, refinement or atomic coordinate data resulting 
# from the CCDC's data processing and validation procedures.
#
#######################################################################

data_WAMZER
_symmetry_cell_setting           triclinic
_symmetry_space_group_name_H-M   'P -1'
_symmetry_Int_Tables_number      2
_space_group_name_Hall           '-P 1'
loop_
_symmetry_equiv_pos_site_id
_symmetry_equiv_pos_as_xyz
1 x,y,z
2 -x,-y,-z
_cell_length_a                   5.6914(11)
_cell_length_b                   7.0423(14)
_cell_length_c                   11.570(2)
_cell_angle_alpha                79.50(3)
_cell_angle_beta                 77.90(3)
_cell_angle_gamma                71.68(3)
_cell_volume                     427.053
loop_
_atom_site_label
_atom_site_type_symbol
_atom_site_fract_x
_atom_site_fract_y
_atom_site_fract_z
Cd1 Cd 0.99630(6) 0.03350(5) 0.82357(3)
P1 P 0.5252(2) 0.17863(18) 0.66488(11)
O1 O 0.7303(6) 0.0017(5) 0.7088(3)
O2 O 0.5990(8) 0.2528(6) 0.5316(3)
H1 H 0.729(11) 0.252(9) 0.505(5)
O3 O 0.2662(6) 0.1575(5) 0.6783(3)
Cl1 Cl 1.1854(2) 0.15708(18) 0.97731(10)
C1 C 0.5076(8) 0.3846(7) 0.7449(4)
C2 C 0.3134(8) 0.5624(7) 0.7430(4)
H4 H 0.1853 0.5770 0.7007
C3 C 0.4931(9) 0.6865(7) 0.8591(4)
H5 H 0.4939 0.7894 0.8991
C4 C 0.6868(9) 0.5097(7) 0.8619(4)
H6 H 0.8154 0.4965 0.9036
N1 N 0.6942(7) 0.3570(6) 0.8064(3)
N2 N 0.3050(7) 0.7135(6) 0.8003(3)
Cd1A Cd 1.00370(6) -0.03350(5) 1.17643(3)
Cd1_2 Cd -0.00370(6) 0.03350(5) 0.82357(3)
Cd1_3 Cd -0.00370(6) 1.03350(5) 0.82357(3)
Cd1A_2 Cd 2.00370(6) -1.03350(5) 1.17643(3)
Cd1A_3 Cd 2.00370(6) -0.03350(5) 1.17643(3)
P1A P 1.4748(2) -0.17863(18) 1.33512(11)
O1A O 1.2697(6) -0.0017(5) 1.2912(3)
O2A O 1.4010(8) -0.2528(6) 1.4684(3)
H1A H 1.271(11) -0.252(9) 1.495(5)
O3A O 1.7338(6) -0.1575(5) 1.3217(3)
O3_2 O 1.2662(6) 0.1575(5) 0.6783(3)
O3A_2 O 0.7338(6) -0.1575(5) 1.3217(3)
Cl1A Cl 0.8146(2) -0.15708(18) 1.02269(10)
C1A C 1.4924(8) -0.3846(7) 1.2551(4)
C2A C 1.6866(8) -0.5624(7) 1.2570(4)
H4A H 1.8147 -0.5770 1.2993
C3A C 1.5069(9) -0.6865(7) 1.1409(4)
H5A H 1.5061 -0.7894 1.1009
C4A C 1.3132(9) -0.5097(7) 1.1381(4)
H6A H 1.1846 -0.4965 1.0964
N1A N 1.3058(7) -0.3570(6) 1.1936(3)
N2A N 1.6950(7) -0.7135(6) 1.1997(3)
N2_2 N 1.3050(7) -0.2865(6) 0.8003(3)
N2A_2 N 0.6950(7) 0.2865(6) 1.1997(3)
O4 O 0.0555(7) 0.2726(7) 0.4599(4)
H2 H 0.130(11) 0.176(7) 0.418(5)
H3 H 0.100(13) 0.297(10) 0.521(5)
loop_
_geom_bond_atom_site_label_1
_geom_bond_atom_site_label_2
_geom_bond_site_symmetry_1
_geom_bond_site_symmetry_2
Cd1 O1 1_555 1_555
P1 O1 1_555 1_555
O2 P1 1_555 1_555
H1 O2 1_555 1_555
O3 P1 1_555 1_555
Cl1 Cd1 1_555 1_555
O4 H2 1_555 1_555
H3 O4 1_555 1_555
C1 P1 1_555 1_555
C2 C1 1_555 1_555
H4 C2 1_555 1_555
C3 H5 1_555 1_555
C4 C3 1_555 1_555
H6 C4 1_555 1_555
N1 Cd1 1_555 1_555
N2 C2 1_555 1_555
Cd1A Cl1 1_555 1_555
Cd1_2 O3 1_555 1_555
Cd1_3 N2 1_555 1_555
Cd1A_2 N2A 1_555 1_555
Cd1A_3 O3A 1_555 1_555
P1A O1A 1_555 1_555
O1A Cd1A 1_555 1_555
O2A P1A 1_555 1_555
H1A O2A 1_555 1_555
O3A P1A 1_555 1_555
O3_2 Cd1 1_555 1_555
O3A_2 Cd1A 1_555 1_555
Cl1A Cd1 1_555 1_555
C1A P1A 1_555 1_555
C2A C1A 1_555 1_555
H4A C2A 1_555 1_555
C3A H5A 1_555 1_555
C4A C3A 1_555 1_555
H6A C4A 1_555 1_555
N1A Cd1A 1_555 1_555
N2A C2A 1_555 1_555
N2_2 Cd1 1_555 1_555
N2A_2 Cd1A 1_555 1_555
C1 N1 1_555 1_555
C3 N2 1_555 1_555
C4 N1 1_555 1_555
Cd1A Cl1A 1_555 1_555
C1A N1A 1_555 1_555
C3A N2A 1_555 1_555
C4A N1A 1_555 1_555

#END
