
#######################################################################
#
#                 Cambridge Crystallographic Data Centre
#                                CCDC 
#
#######################################################################
#
# If this CIF has been generated from an entry in the Cambridge 
# Structural Database, then it will include bibliographic, chemical, 
# crystal, experimental, refinement or atomic coordinate data resulting 
# from the CCDC's data processing and validation procedures.
#
#######################################################################

data_WANBUK
_symmetry_cell_setting           triclinic
_symmetry_space_group_name_H-M   'P -1'
_symmetry_Int_Tables_number      2
_space_group_name_Hall           '-P 1'
loop_
_symmetry_equiv_pos_site_id
_symmetry_equiv_pos_as_xyz
1 x,y,z
2 -x,-y,-z
_cell_length_a                   15.6670(6)
_cell_length_b                   15.7985(6)
_cell_length_c                   17.2940(7)
_cell_angle_alpha                64.8460(10)
_cell_angle_beta                 67.1880(10)
_cell_angle_gamma                83.0520(10)
_cell_volume                     3566.6
loop_
_atom_site_label
_atom_site_type_symbol
_atom_site_fract_x
_atom_site_fract_y
_atom_site_fract_z
Na1 Na 0.4537(14) 0.9408(14) 0.4870(14)
O1 O 0.5463(14) 1.0592(14) 0.5130(14)
O52 O 0.393(2) 0.949(2) 0.207(2)
Na3 Na 1.1406(12) 0.7443(11) 0.4852(11)
Na4 Na 1.262(2) 0.647(2) 0.151(2)
Na6 Na 1.414(2) 0.646(3) 0.324(3)
O92 O 1.307(3) 0.6833(10) 0.254(3)
Na7 Na 0.926(3) 1.522(3) -0.096(3)
O81 O 1.372(3) 0.537(3) 0.088(3)
O82 O 0.362(3) 0.517(3) 0.498(3)
O83 O 1.446(3) 0.691(3) 0.150(3)
O84 O 0.109(3) 1.068(3) 0.264(3)
O86 O 0.164(4) 1.266(4) 0.109(4)
O90 O 0.048(5) 1.198(5) 0.236(5)
O85 O 0.769(3) 0.955(3) -0.085(3)
O88 O 0.432(3) 0.868(3) 0.122(3)
O89 O 0.550(4) 0.553(4) 0.276(4)
O91 O 0.706(4) 0.628(4) 0.269(4)
Eu1 Eu 0.95829(10) 0.51954(10) 0.33554(10)
P1 P 0.6660(9) 1.0554(9) 0.2810(8)
P2 P 0.6736(9) 0.8367(9) 0.5209(9)
P3 P 0.5720(8) 0.8055(8) 0.6521(8)
P4 P 0.7138(10) 0.9371(10) 0.3706(10)
P5 P 0.5636(11) 1.1574(11) 0.2623(11)
W1 W 0.79735(7) 0.72641(7) 0.38555(8)
W2 W 0.67165(8) 0.60241(7) 0.64414(8)
W3 W 0.79717(8) 0.92315(9) 0.16389(8)
W4 W 0.65323(10) 1.12077(8) 0.07069(8)
W5 W 0.54741(9) 1.38955(8) 0.16244(7)
W6 W 0.90366(8) 1.06486(10) 0.19677(10)
W7 W 0.76758(9) 1.26595(10) 0.09409(8)
W8 W 0.77956(10) 0.74969(9) 0.67158(11)
W9 W 0.56435(11) 0.74790(9) 0.87230(10)
W10 W 0.91257(9) 0.86504(10) 0.41395(12)
W11 W 0.80914(14) 1.08779(14) 0.41439(14)
W13 W 0.67601(14) 0.97244(16) 0.66816(15)
W15 W 0.67525(14) 1.28737(14) 0.31336(14)
W17 W 0.76331(15) 1.19752(15) 0.33046(16)
N1 N 1.0219(12) 0.6817(12) 0.2186(11)
C1 C 1.0683(13) 0.7340(13) 0.2365(13)
C2 C 1.0935(14) 0.8253(13) 0.1778(14)
H1 H 1.1259 0.8619 0.1903
C3 C 1.0723(14) 0.8642(13) 0.1010(14)
H2 H 1.0898 0.9280 0.0600
C4 C 1.0258(14) 0.8119(13) 0.0831(13)
H3 H 1.0110 0.8391 0.0295
C5 C 1.0007(13) 0.7206(12) 0.1418(12)
C6 C 1.085(2) 0.683(2) 0.322(2)
C7 C 0.945(2) 0.656(2) 0.133(2)
O2 O 0.7573(13) 0.6516(14) 0.5165(13)
O3 O 0.7423(13) 1.2232(13) 0.0158(12)
O4 O 0.6752(14) 0.7220(14) 0.3996(14)
O5 O 0.5761(13) 0.5895(13) 0.7581(13)
O6 O 1.0250(12) 0.8698(12) 0.4013(12)
O7 O 0.7636(13) 0.6254(14) 0.6831(13)
O8 O 0.9284(15) 0.9541(15) 0.2928(14)
O9 O 0.8658(14) 0.7244(15) 0.7159(14)
O10 O 0.7607(13) 0.9946(13) 0.2629(13)
O11 O 0.7487(14) 1.0332(14) 0.0952(14)
O12 O 0.6693(13) 0.8724(13) 0.2327(12)
O13 O 0.8387(12) 0.6334(12) 0.3566(12)
O14 O 0.5517(15) 1.2075(15) 0.0758(15)
O15 O 0.8225(13) 0.8225(13) 0.2620(13)
O16 O 0.8606(12) 1.1185(12) 0.2826(12)
O17 O 0.8354(14) 0.8755(14) 0.0858(14)
O18 O 0.6033(14) 1.7228(14) -0.0421(14)
O19 O 0.7674(12) 0.8763(12) 0.6460(12)
O20 O 0.5876(13) 1.3629(14) 0.2561(13)
O21 O 0.9053(12) 0.9949(12) 0.1291(12)
O22 O 1.0168(14) 1.1072(14) 0.1401(14)
O23 O 0.6695(12) 0.7563(12) 0.6186(12)
O24 O 0.8639(14) 0.7847(14) 0.5420(14)
O25 O 0.6623(15) 1.1146(15) -0.0306(15)
O26 O 0.5814(14) 1.5063(14) 0.0951(14)
O27 O 0.8488(14) 1.3535(14) 0.0118(14)
O28 O 0.5641(14) 1.0278(14) 0.1584(14)
O29 O 0.5075(15) 0.7582(16) 0.7674(15)
O30 O 0.7645(15) 0.8466(15) 0.4259(14)
O31 O 0.6757(14) 0.7195(14) 0.7898(13)
O32 O 0.5768(12) 0.6300(12) 0.5956(12)
O33 O 0.6013(13) 0.8760(14) 0.7976(13)
O34 O 0.9103(13) 0.7635(13) 0.3844(12)
O35 O 0.6607(13) 1.3395(13) 0.1024(13)
O36 O 0.7570(13) 1.2699(13) 0.2061(13)
O37 O 0.4913(12) 1.3721(12) 0.0876(12)
O38 O 0.6581(14) 1.1433(15) 0.1897(14)
O39 O 0.6849(14) 0.4902(7) 0.6641(14)
O40 O 0.8650(13) 0.9649(13) 0.4510(13)
O41 O 0.8491(13) 1.1696(13) 0.1226(13)
O42 O 0.575(2) 1.049(2) 0.681(2)
O43 O 0.672(2) 0.931(2) 0.526(2)
O44 O 0.619(2) 0.900(2) 0.392(2)
O45 O 0.669(3) 1.096(3) 0.345(3)
O46 O 0.732(2) 1.050(3) 0.539(2)
O47 O 0.582(2) 0.985(2) 0.328(2)
O48 O 0.491(2) 1.383(2) 0.524(2)
O49 O 0.591(3) 1.416(3) 0.395(3)
O50 O 0.752(2) 1.107(2) 0.449(2)
O51 O 0.653(2) 1.253(2) 0.381(2)
O53 O 0.514(2) 0.802(2) 0.599(2)
O54 O 0.844(2) 1.277(2) 0.318(2)
O55 O 0.495(3) 1.159(3) 0.773(3)
O56 O 0.746(3) 1.022(3) 0.697(2)
O57 O 0.736(2) 1.378(2) 0.299(2)
O58 O 0.884(3) 1.147(3) 0.418(3)
O59 O 0.452(3) 1.282(3) 0.680(3)
O60 O 0.478(2) 1.192(2) 0.610(2)
O61 O 0.495(3) 1.247(3) 0.526(2)
O62 O 0.597(2) 0.907(2) 0.627(2)
O63 O 0.589(2) 1.175(2) 0.331(2)
O64 O 0.505(2) 1.067(2) 0.310(2)
O65 O 0.506(3) 1.110(2) 0.685(3)
O66 O 0.661(3) 1.020(3) 0.639(3)
O67 O 0.571(3) 1.280(3) 0.422(3)
O68 O 0.587(2) 0.819(2) 0.507(2)
O69 O 0.731(3) 1.187(3) 0.384(4)
O70 O 0.702(2) 1.006(2) 0.416(2)
O71 O 0.845(3) 1.050(3) 0.563(3)
O72 O 0.9244(18) 0.6853(18) 0.0643(17)
O73 O 0.9342(16) 0.5729(16) 0.1948(16)
O74 O 1.0403(15) 0.6004(14) 0.3785(14)
O75 O 1.1392(17) 0.7185(17) 0.3381(17)
O76 O 0.8679(16) 0.4822(16) 0.5037(15)
O77 O 0.8056(18) 0.4400(18) 0.3894(19)
O78 O 0.9798(18) 0.3821(18) 0.2969(18)
O79 O 1.0242(15) 0.3896(16) 0.4449(16)
O80 O 1.1226(15) 0.5112(16) 0.2442(16)
Na2 Na 0.8408(9) 0.8082(9) -0.0118(9)
Na9 Na 0.709(3) 1.622(3) 0.019(3)
O87 O 0.694(3) 0.737(3) 0.095(3)
Eu1A Eu 0.04171(10) 1.48046(10) 0.66446(10)
P1A P 0.3340(9) 0.9446(9) 0.7190(8)
P2A P 0.3264(9) 1.1633(9) 0.4791(9)
P3A P 0.4280(8) 1.1945(8) 0.3479(8)
P4A P 0.2862(10) 1.0629(10) 0.6294(10)
P5A P 0.4364(11) 0.8426(11) 0.7377(11)
W1A W 0.20265(7) 1.27359(7) 0.61445(8)
W2A W 0.32835(8) 1.39759(7) 0.35586(8)
W3A W 0.20283(8) 1.07685(9) 0.83611(8)
W4A W 0.34677(10) 0.87923(8) 0.92931(8)
W5A W 0.45259(9) 0.61045(8) 0.83756(7)
W5_2 W 0.54741(9) 0.38955(8) 1.16244(7)
W6A W 0.09634(8) 0.93514(10) 0.80323(10)
W7A W 0.23242(9) 0.73405(10) 0.90591(8)
W8A W 0.22044(10) 1.25031(9) 0.32842(11)
W9A W 0.43565(11) 1.25210(9) 0.12770(10)
W9_2 W 0.56435(11) 1.74790(9) -0.12770(10)
W10A W 0.08743(9) 1.13496(10) 0.58605(12)
W11A W 0.19086(14) 0.91221(14) 0.58561(14)
W13A W 0.32399(14) 1.02756(16) 0.33184(15)
W15A W 0.32475(14) 0.71263(14) 0.68664(14)
W17A W 0.23669(15) 0.80248(15) 0.66954(16)
N1A N -0.0219(12) 1.3183(12) 0.7814(11)
C1A C -0.0683(13) 1.2660(13) 0.7635(13)
C2A C -0.0935(14) 1.1747(13) 0.8222(14)
H1A H -0.1259 1.1381 0.8097
C3A C -0.0723(14) 1.1358(13) 0.8990(14)
H2A H -0.0898 1.0720 0.9400
C4A C -0.0258(14) 1.1881(13) 0.9169(13)
H3A H -0.0110 1.1609 0.9705
C5A C -0.0007(13) 1.2794(12) 0.8582(12)
C6A C -0.085(2) 1.317(2) 0.678(2)
C7A C 0.055(2) 1.344(2) 0.867(2)
O2A O 0.2427(13) 1.3484(14) 0.4835(13)
O3A O 0.2577(13) 0.7768(13) 0.9842(12)
O4A O 0.3248(14) 1.2780(14) 0.6004(14)
O5A O 0.4239(13) 1.4105(13) 0.2419(13)
O6A O -0.0250(12) 1.1302(12) 0.5987(12)
O7A O 0.2364(13) 1.3746(14) 0.3169(13)
O8A O 0.0716(15) 1.0459(15) 0.7072(14)
O9A O 0.1342(14) 1.2756(15) 0.2841(14)
O10A O 0.2393(13) 1.0054(13) 0.7371(13)
O11A O 0.2513(14) 0.9668(14) 0.9048(14)
O12A O 0.3307(13) 1.1276(13) 0.7673(12)
O13A O 0.1613(12) 1.3666(12) 0.6434(12)
O14A O 0.4483(15) 0.7925(15) 0.9242(15)
O15A O 0.1775(13) 1.1775(13) 0.7380(13)
O16A O 0.1394(12) 0.8815(12) 0.7174(12)
O17A O 0.1646(14) 1.1245(14) 0.9142(14)
O18_2 O 0.6033(14) 0.7228(14) 0.9579(14)
O18A O 0.3967(14) 1.2772(14) 0.0421(14)
O19A O 0.2326(12) 1.1237(12) 0.3540(12)
O20A O 0.4124(13) 0.6371(14) 0.7439(13)
O21A O 0.0947(12) 1.0051(12) 0.8709(12)
O22A O -0.0168(14) 0.8928(14) 0.8599(14)
O23A O 0.3305(12) 1.2437(12) 0.3814(12)
O24A O 0.1361(14) 1.2153(14) 0.4580(14)
O25A O 0.3377(15) 0.8854(15) 1.0306(15)
O26_2 O 0.5814(14) 0.5063(14) 1.0951(14)
O26A O 0.4186(14) 0.4937(14) 0.9049(14)
O27A O 0.1512(14) 0.6465(14) 0.9882(14)
O28A O 0.4359(14) 0.9722(14) 0.8416(14)
O29A O 0.4925(15) 1.2418(16) 0.2326(15)
O30A O 0.2355(15) 1.1534(15) 0.5741(14)
O31A O 0.3243(14) 1.2805(14) 0.2102(13)
O32A O 0.4232(12) 1.3700(12) 0.4044(12)
O33A O 0.3987(13) 1.1240(14) 0.2024(13)
O34A O 0.0897(13) 1.2365(13) 0.6156(12)
O35A O 0.3393(13) 0.6605(13) 0.8976(13)
O36A O 0.2430(13) 0.7301(13) 0.7939(13)
O37A O 0.5087(12) 0.6279(12) 0.9124(12)
O38A O 0.3419(14) 0.8567(15) 0.8103(14)
O39A O 0.3151(14) 1.5098(7) 0.3359(14)
O40A O 0.1350(13) 1.0351(13) 0.5490(13)
O41A O 0.1509(13) 0.8304(13) 0.8774(13)
O42A O 0.425(2) 0.951(2) 0.319(2)
O43A O 0.328(2) 1.069(2) 0.474(2)
O44A O 0.381(2) 1.100(2) 0.608(2)
O45A O 0.331(3) 0.904(3) 0.655(3)
O46A O 0.268(2) 0.950(3) 0.461(2)
O47A O 0.418(2) 1.015(2) 0.672(2)
O48A O 0.509(2) 0.617(2) 0.476(2)
O49A O 0.409(3) 0.584(3) 0.605(3)
O50A O 0.248(2) 0.893(2) 0.551(2)
O51A O 0.347(2) 0.747(2) 0.619(2)
O53A O 0.486(2) 1.198(2) 0.401(2)
O54A O 0.156(2) 0.723(2) 0.682(2)
O55A O 0.505(3) 0.841(3) 0.227(3)
O56A O 0.254(3) 0.978(3) 0.303(2)
O57A O 0.264(2) 0.622(2) 0.701(2)
O58A O 0.116(3) 0.853(3) 0.582(3)
O59A O 0.548(3) 0.718(3) 0.320(3)
O60A O 0.522(2) 0.808(2) 0.390(2)
O61A O 0.505(3) 0.753(3) 0.474(2)
O62A O 0.403(2) 1.093(2) 0.373(2)
O63A O 0.411(2) 0.825(2) 0.669(2)
O64A O 0.495(2) 0.933(2) 0.690(2)
O65A O 0.494(3) 0.890(2) 0.315(3)
O66A O 0.339(3) 0.980(3) 0.361(3)
O67A O 0.429(3) 0.720(3) 0.578(3)
O68A O 0.413(2) 1.181(2) 0.493(2)
O69A O 0.269(3) 0.813(3) 0.616(4)
O70A O 0.298(2) 0.994(2) 0.584(2)
O71A O 0.155(3) 0.950(3) 0.437(3)
O72A O 0.0756(18) 1.3147(18) 0.9357(17)
O73A O 0.0658(16) 1.4271(16) 0.8052(16)
O74A O -0.0403(15) 1.3996(14) 0.6215(14)
O75A O -0.1392(17) 1.2815(17) 0.6619(17)
O76A O 0.1321(16) 1.5178(16) 0.4963(15)
O77A O 0.1944(18) 1.5600(18) 0.6106(19)
O78A O 0.0202(18) 1.6179(18) 0.7031(18)
O79A O -0.0242(15) 1.6104(16) 0.5551(16)
O80A O -0.1226(15) 1.4888(16) 0.7558(16)
Na2A Na 0.1592(9) 1.1918(9) 1.0118(9)
Na9_2 Na 0.709(3) 0.622(3) 1.019(3)
O87A O 0.306(3) 1.263(3) 0.905(3)
W12? W 0.53970(14) 0.70677(14) 0.49295(14)
W14? W 0.58084(14) 0.80258(14) 0.34601(14)
W16? W 0.44119(14) 1.00075(15) 0.25421(14)
W18? W 0.54040(15) 0.90003(15) 0.27259(15)
W19? W 0.23076(14) 0.99925(15) 0.45381(14)
W20? W 0.45554(15) 0.68132(15) 0.60146(15)
Na5? Na 0.034(2) 1.037(2) 0.447(2)
Na8? Na 0.300(3) 0.8384(16) 0.227(3)
O93? O -1.330(4) 1.504(4) 0.907(4)
loop_
_geom_bond_atom_site_label_1
_geom_bond_atom_site_label_2
_geom_bond_site_symmetry_1
_geom_bond_site_symmetry_2
Eu1 N1 1_555 1_555
P1 P4 1_555 1_555
P2 P3 1_555 1_555
P3 O23 1_555 1_555
P4 P2 1_555 1_555
P5 P1 1_555 1_555
W1 O2 1_555 1_555
W2 O2 1_555 1_555
W3 O10 1_555 1_555
W4 O3 1_555 1_555
W5 O20 1_555 1_555
W6 O8 1_555 1_555
W7 O3 1_555 1_555
W8 O7 1_555 1_555
W9 O29 1_555 1_555
W10 O6 1_555 1_555
W11 W17 1_555 1_555
W13 O19 1_555 1_555
W15 W17 1_555 1_555
W17 O16 1_555 1_555
N1 C1 1_555 1_555
C1 C2 1_555 1_555
C2 H1 1_555 1_555
C3 C2 1_555 1_555
H2 C3 1_555 1_555
C4 C3 1_555 1_555
H3 C4 1_555 1_555
C5 N1 1_555 1_555
C6 C1 1_555 1_555
C7 C5 1_555 1_555
O4 W1 1_555 1_555
O5 W2 1_555 1_555
O7 W2 1_555 1_555
O8 W10 1_555 1_555
O9 W8 1_555 1_555
O10 P1 1_555 1_555
O11 W3 1_555 1_555
O12 W3 1_555 1_555
O13 Eu1 1_555 1_555
O14 W4 1_555 1_555
O15 W1 1_555 1_555
O16 W6 1_555 1_555
O17 W3 1_555 1_555
O18 Na9 1_555 1_555
O19 W8 1_555 1_555
O20 W15 1_555 1_555
O21 W3 1_555 1_555
O22 W6 1_555 1_555
O23 P2 1_555 1_555
O24 W8 1_555 1_555
O25 W4 1_555 1_555
O26 W5 1_555 1_555
O27 W7 1_555 1_555
O28 W4 1_555 1_555
O29 P3 1_555 1_555
O30 P2 1_555 1_555
O31 W8 1_555 1_555
O32 W2 1_555 1_555
O33 W9 1_555 1_555
O34 W1 1_555 1_555
O35 W5 1_555 1_555
O36 W7 1_555 1_555
O37 W5 1_555 1_555
O38 P1 1_555 1_555
O39 W2 1_555 1_555
O40 W10 1_555 1_555
O41 W6 1_555 1_555
O42 W13 1_555 1_555
O43 P2 1_555 1_555
O44 P4 1_555 1_555
O45 P1 1_555 1_555
O46 W11 1_555 1_555
O47 P1 1_555 1_555
O48 O49 1_555 1_555
O49 O67 1_555 1_555
O50 W11 1_555 1_555
O51 W15 1_555 1_555
O53 P3 1_555 1_555
O54 W17 1_555 1_555
O55 O65 1_555 1_555
O56 W13 1_555 1_555
O57 W15 1_555 1_555
O58 W11 1_555 1_555
O59 O60 1_555 1_555
O60 O61 1_555 1_555
O61 O48 1_555 1_555
O62 P3 1_555 1_555
O63 P5 1_555 1_555
O64 P5 1_555 1_555
O65 O42 1_555 1_555
O66 W13 1_555 1_555
O67 W15 1_555 1_555
O68 P2 1_555 1_555
O69 W11 1_555 1_555
O70 P4 1_555 1_555
O71 O46 1_555 1_555
O72 C7 1_555 1_555
O73 Eu1 1_555 1_555
O74 Eu1 1_555 1_555
O75 C6 1_555 1_555
O76 Eu1 1_555 1_555
O77 Eu1 1_555 1_555
O78 Eu1 1_555 1_555
O79 Eu1 1_555 1_555
O80 Eu1 1_555 1_555
Na2 O17 1_555 1_555
Na4 O92 1_555 1_555
Na6 O92 1_555 1_555
Na9 O26 1_555 1_555
O84 O90 1_555 1_555
O86 O90 1_555 1_555
O87 Na2 1_555 1_555
Eu1A N1A 1_555 1_555
P1A P4A 1_555 1_555
P2A P3A 1_555 1_555
P3A P5 1_555 1_555
P4A P2A 1_555 1_555
P5A P3 1_555 1_555
W1A O2A 1_555 1_555
W2A O2A 1_555 1_555
W3A O10A 1_555 1_555
W4A O3A 1_555 1_555
W5A O5 1_555 1_555
W5_2 O26_2 1_555 1_555
W6A O8A 1_555 1_555
W7A O3A 1_555 1_555
W8A O7A 1_555 1_555
W9A O14 1_555 1_555
W9_2 O18 1_555 1_555
W10A O6A 1_555 1_555
W11A W17A 1_555 1_555
W13A O19A 1_555 1_555
W15A W17A 1_555 1_555
W17A O16A 1_555 1_555
N1A C1A 1_555 1_555
C1A C2A 1_555 1_555
C2A H1A 1_555 1_555
C3A C2A 1_555 1_555
H2A C3A 1_555 1_555
C4A C3A 1_555 1_555
H3A C4A 1_555 1_555
C5A N1A 1_555 1_555
C6A C1A 1_555 1_555
C7A C5A 1_555 1_555
O4A W1A 1_555 1_555
O5A W5 1_555 1_555
O7A W2A 1_555 1_555
O8A W10A 1_555 1_555
O9A W8A 1_555 1_555
O10A P1A 1_555 1_555
O11A W3A 1_555 1_555
O12A W3A 1_555 1_555
O13A Eu1A 1_555 1_555
O14A W9 1_555 1_555
O15A W1A 1_555 1_555
O16A W6A 1_555 1_555
O17A W3A 1_555 1_555
O18_2 W9 1_555 1_555
O18A W9A 1_555 1_555
O19A W8A 1_555 1_555
O20A W5A 1_555 1_555
O21A W3A 1_555 1_555
O22A W6A 1_555 1_555
O23A P2A 1_555 1_555
O24A W8A 1_555 1_555
O25A W4A 1_555 1_555
O26_2 Na9_2 1_555 1_555
O26A W5A 1_555 1_555
O27A W7A 1_555 1_555
O28A W4A 1_555 1_555
O29A P5 1_555 1_555
O30A P2A 1_555 1_555
O31A W8A 1_555 1_555
O32A W2A 1_555 1_555
O33A W9A 1_555 1_555
O34A W1A 1_555 1_555
O35A W5A 1_555 1_555
O36A W7A 1_555 1_555
O37A W9 1_555 1_555
O38A P1A 1_555 1_555
O39A W2A 1_555 1_555
O40A W10A 1_555 1_555
O41A W6A 1_555 1_555
O42A W13A 1_555 1_555
O43A P2A 1_555 1_555
O44A P4A 1_555 1_555
O45A P1A 1_555 1_555
O46A W11A 1_555 1_555
O47A P1A 1_555 1_555
O48A O49A 1_555 1_555
O49A O67A 1_555 1_555
O50A W11A 1_555 1_555
O51A W15A 1_555 1_555
O53A O63 1_555 1_555
O54A W17A 1_555 1_555
O55A O65A 1_555 1_555
O56A W13A 1_555 1_555
O57A W15A 1_555 1_555
O58A W11A 1_555 1_555
O59A O60A 1_555 1_555
O60A O61A 1_555 1_555
O61A O68 1_555 1_555
O62A O64 1_555 1_555
O63A O53 1_555 1_555
O64A O62 1_555 1_555
O65A O42A 1_555 1_555
O66A W13A 1_555 1_555
O67A W15A 1_555 1_555
O68A O61 1_555 1_555
O69A W11A 1_555 1_555
O70A P4A 1_555 1_555
O71A O46A 1_555 1_555
O72A C7A 1_555 1_555
O73A Eu1A 1_555 1_555
O74A Eu1A 1_555 1_555
O75A C6A 1_555 1_555
O76A Eu1A 1_555 1_555
O77A Eu1A 1_555 1_555
O78A Eu1A 1_555 1_555
O79A Eu1A 1_555 1_555
O80A Eu1A 1_555 1_555
Na2A O17A 1_555 1_555
Na9_2 O18_2 1_555 1_555
O87A Na2A 1_555 1_555
P4 O10 1_555 1_555
P4 O30 1_555 1_555
P5 O38 1_555 1_555
W1 O13 1_555 1_555
W1 O30 1_555 1_555
W2 O23 1_555 1_555
W3 O15 1_555 1_555
W4 O11 1_555 1_555
W4 O38 1_555 1_555
W5 O29A 1_555 1_555
W6 O10 1_555 1_555
W6 O21 1_555 1_555
W7 O35 1_555 1_555
W7 O38 1_555 1_555
W7 O41 1_555 1_555
W8 O23 1_555 1_555
W9 O31 1_555 1_555
W10 O24 1_555 1_555
W10 O30 1_555 1_555
W10 O34 1_555 1_555
W11 O16 1_555 1_555
W11 O40 1_555 1_555
W11 O70 1_555 1_555
W13 O33 1_555 1_555
W13 O46 1_555 1_555
W13 O62 1_555 1_555
W15 O36 1_555 1_555
W15 O63 1_555 1_555
W15 O69 1_555 1_555
W17 O36 1_555 1_555
W17 O45 1_555 1_555
W17 O50 1_555 1_555
W17 O51 1_555 1_555
W17 O69 1_555 1_555
C4 C5 1_555 1_555
C6 O74 1_555 1_555
C7 O73 1_555 1_555
O29 P5A 1_555 1_555
O29 W5A 1_555 1_555
O37 W9A 1_555 1_555
O42 O66 1_555 1_555
O43 O62 1_555 1_555
O43 O70 1_555 1_555
O44 O47 1_555 1_555
O44 O68 1_555 1_555
O45 O63 1_555 1_555
O45 O70 1_555 1_555
O46 O50 1_555 1_555
O46 O66 1_555 1_555
O47 O64 1_555 1_555
O50 O58 1_555 1_555
O50 O69 1_555 1_555
O51 O57 1_555 1_555
O51 O67 1_555 1_555
O51 O69 1_555 1_555
O53 O68 1_555 1_555
O54 O69 1_555 1_555
O56 O66 1_555 1_555
O56 O71 1_555 1_555
O60 O65 1_555 1_555
O61 O67 1_555 1_555
O72 Na2 1_555 1_555
P1A P5A 1_555 1_555
P2A O68A 1_555 1_555
P3A O23A 1_555 1_555
P3A O29A 1_555 1_555
P3A O53A 1_555 1_555
P3A O62A 1_555 1_555
P4A O10A 1_555 1_555
P4A O30A 1_555 1_555
P5A O38A 1_555 1_555
P5A O63A 1_555 1_555
P5A O64A 1_555 1_555
W1A O13A 1_555 1_555
W1A O30A 1_555 1_555
W2A O5A 1_555 1_555
W2A O23A 1_555 1_555
W3A O15A 1_555 1_555
W4A O11A 1_555 1_555
W4A O14A 1_555 1_555
W4A O38A 1_555 1_555
W5A O37A 1_555 1_555
W6A O10A 1_555 1_555
W6A O21A 1_555 1_555
W7A O35A 1_555 1_555
W7A O38A 1_555 1_555
W7A O41A 1_555 1_555
W8A O23A 1_555 1_555
W9A O29A 1_555 1_555
W9A O31A 1_555 1_555
W10A O24A 1_555 1_555
W10A O30A 1_555 1_555
W10A O34A 1_555 1_555
W11A O16A 1_555 1_555
W11A O40A 1_555 1_555
W11A O70A 1_555 1_555
W13A O33A 1_555 1_555
W13A O46A 1_555 1_555
W13A O62A 1_555 1_555
W15A O20A 1_555 1_555
W15A O36A 1_555 1_555
W15A O63A 1_555 1_555
W15A O69A 1_555 1_555
W17A O36A 1_555 1_555
W17A O45A 1_555 1_555
W17A O50A 1_555 1_555
W17A O51A 1_555 1_555
W17A O69A 1_555 1_555
C4A C5A 1_555 1_555
C6A O74A 1_555 1_555
C7A O73A 1_555 1_555
O42A O66A 1_555 1_555
O43A O62A 1_555 1_555
O43A O70A 1_555 1_555
O44A O47A 1_555 1_555
O44A O68A 1_555 1_555
O45A O63A 1_555 1_555
O45A O70A 1_555 1_555
O46A O50A 1_555 1_555
O46A O66A 1_555 1_555
O47A O64A 1_555 1_555
O48A O61A 1_555 1_555
O50A O58A 1_555 1_555
O50A O69A 1_555 1_555
O51A O57A 1_555 1_555
O51A O67A 1_555 1_555
O51A O69A 1_555 1_555
O53A O68A 1_555 1_555
O54A O69A 1_555 1_555
O56A O66A 1_555 1_555
O56A O71A 1_555 1_555
O60A O65A 1_555 1_555
O61A O67A 1_555 1_555
O72A Na2A 1_555 1_555

#END
