
#######################################################################
#
#                 Cambridge Crystallographic Data Centre
#                                CCDC 
#
#######################################################################
#
# If this CIF has been generated from an entry in the Cambridge 
# Structural Database, then it will include bibliographic, chemical, 
# crystal, experimental, refinement or atomic coordinate data resulting 
# from the CCDC's data processing and validation procedures.
#
#######################################################################

data_WANJOL
_symmetry_cell_setting           monoclinic
_symmetry_space_group_name_H-M   'P 21/n'
_symmetry_Int_Tables_number      14
_space_group_name_Hall           '-P 2yn'
loop_
_symmetry_equiv_pos_site_id
_symmetry_equiv_pos_as_xyz
1 x,y,z
2 1/2-x,1/2+y,1/2-z
3 -x,-y,-z
4 1/2+x,1/2-y,1/2+z
_cell_length_a                   10.0877(10)
_cell_length_b                   11.5960(11)
_cell_length_c                   14.6823(14)
_cell_angle_alpha                90
_cell_angle_beta                 93.690(2)
_cell_angle_gamma                90
_cell_volume                     1713.93
loop_
_atom_site_label
_atom_site_type_symbol
_atom_site_fract_x
_atom_site_fract_y
_atom_site_fract_z
Cu1 Cu 0.01700(4) 0.82837(3) 0.22667(3)
O1 O -0.1801(2) 0.83754(17) 0.24170(15)
O2 O -0.8115(2) 0.90451(17) 0.21827(15)
O3 O -0.1205(2) 1.02128(18) 0.25913(17)
O4 O -0.6752(2) 0.75352(17) 0.20490(16)
N1 N 0.0465(3) 0.8277(2) 0.36585(18)
N2 N -0.0129(3) 0.8316(2) 0.08856(18)
N3 N -0.5059(3) 1.1300(2) 0.27607(18)
C1 C -0.6981(3) 0.8558(3) 0.2188(2)
C2 C 0.1267(4) 0.9032(3) 0.4106(2)
H1 H 0.1773 0.9547 0.3764
C3 C 0.1390(5) 0.9092(4) 0.5051(3)
H2 H 0.1987 0.9627 0.5347
C4 C 0.0646(5) 0.8374(3) 0.5555(3)
H3 H 0.0702 0.8416 0.6202
C5 C -0.0178(5) 0.7596(4) 0.5105(3)
H4 H -0.0702 0.7081 0.5435
C6 C -0.0235(4) 0.7575(3) 0.4165(2)
H5 H -0.0807 0.7028 0.3859
C7 C -0.2053(3) 0.9450(3) 0.2541(2)
C8 C -0.3813(3) 1.0899(2) 0.2776(2)
H6 H -0.3108 1.1424 0.2920
C9 C -0.3490(3) 0.9764(2) 0.2595(2)
C10 C -0.4523(3) 0.8986(3) 0.2407(2)
H7 H -0.4340 0.8198 0.2289
C11 C -0.5823(3) 0.9378(2) 0.2392(2)
C12 C -0.6038(3) 1.0545(2) 0.2571(2)
H8 H -0.6928 1.0816 0.2556
C13 C -0.1169(4) 0.8818(3) 0.0434(3)
H9 H -0.1852 0.9138 0.0772
C14 C -0.1283(4) 0.8886(3) -0.0508(3)
H10 H -0.2033 0.9254 -0.0805
C15 C -0.0326(4) 0.8429(3) -0.1012(3)
H11 H -0.0394 0.8478 -0.1660
C16 C 0.0745(4) 0.7891(4) -0.0559(3)
H12 H 0.1429 0.7556 -0.0887
C17 C 0.0797(4) 0.7854(3) 0.0384(2)
H13 H 0.1532 0.7478 0.0694
Cu1_2 Cu -0.98300(4) 0.82837(3) 0.22667(3)
Cu1A Cu -0.51700(4) 1.32837(3) 0.27333(3)
O2_2 O 0.1885(2) 0.90451(17) 0.21827(15)
N3A N 0.0059(3) 0.6300(2) 0.22393(18)
loop_
_geom_bond_atom_site_label_1
_geom_bond_atom_site_label_2
_geom_bond_site_symmetry_1
_geom_bond_site_symmetry_2
Cu1 O1 1_555 1_555
O1 C7 1_555 1_555
O2 C1 1_555 1_555
O3 C7 1_555 1_555
O4 C1 1_555 1_555
N1 Cu1 1_555 1_555
N2 Cu1 1_555 1_555
N3 C8 1_555 1_555
C1 C11 1_555 1_555
C2 N1 1_555 1_555
H1 C2 1_555 1_555
C3 C2 1_555 1_555
H2 C3 1_555 1_555
C4 C3 1_555 1_555
H3 C4 1_555 1_555
C5 C4 1_555 1_555
H4 C5 1_555 1_555
C6 N1 1_555 1_555
H5 C6 1_555 1_555
C7 C9 1_555 1_555
C8 H6 1_555 1_555
C9 C8 1_555 1_555
C10 C9 1_555 1_555
H7 C10 1_555 1_555
C11 C10 1_555 1_555
C12 N3 1_555 1_555
H8 C12 1_555 1_555
C13 N2 1_555 1_555
H9 C13 1_555 1_555
C14 C13 1_555 1_555
H10 C14 1_555 1_555
C15 C14 1_555 1_555
H11 C15 1_555 1_555
C16 C15 1_555 1_555
H12 C16 1_555 1_555
C17 N2 1_555 1_555
H13 C17 1_555 1_555
Cu1_2 O2 1_555 1_555
Cu1A N3 1_555 1_555
O2_2 Cu1 1_555 1_555
N3A Cu1 1_555 1_555
C5 C6 1_555 1_555
C11 C12 1_555 1_555
C16 C17 1_555 1_555

#END
