
#######################################################################
#
#                 Cambridge Crystallographic Data Centre
#                                CCDC 
#
#######################################################################
#
# If this CIF has been generated from an entry in the Cambridge 
# Structural Database, then it will include bibliographic, chemical, 
# crystal, experimental, refinement or atomic coordinate data resulting 
# from the CCDC's data processing and validation procedures.
#
#######################################################################

data_WANMOO01
_symmetry_cell_setting           monoclinic
_symmetry_space_group_name_H-M   'C 2/c'
_symmetry_Int_Tables_number      15
_space_group_name_Hall           '-C 2yn'
loop_
_symmetry_equiv_pos_site_id
_symmetry_equiv_pos_as_xyz
1 x,y,z
2 1/2+x,1/2+y,z
3 -x,y,1/2-z
4 1/2-x,1/2+y,1/2-z
5 -x,-y,-z
6 1/2-x,1/2-y,-z
7 x,-y,1/2+z
8 1/2+x,1/2-y,1/2+z
_cell_length_a                   19.5680(18)
_cell_length_b                   11.4672(11)
_cell_length_c                   13.5953(13)
_cell_angle_alpha                90
_cell_angle_beta                 126.6890(10)
_cell_angle_gamma                90
_cell_volume                     2446.29
loop_
_atom_site_label
_atom_site_type_symbol
_atom_site_fract_x
_atom_site_fract_y
_atom_site_fract_z
Cu1 Cu 0.116063(16) -0.38968(2) 0.39678(2)
Cu2 Cu 0.111038(15) 0.11056(2) 0.38875(2)
N1 N 0.13130(10) -0.23759(14) 0.36890(15)
N2 N 0.13010(10) -0.04337(14) 0.36760(15)
N3 N 0.10175(10) -0.73763(14) 0.42404(15)
N4 N 0.10437(10) -0.54343(14) 0.42972(16)
C1 C 0.10225(13) -0.14063(18) 0.38737(18)
C2 C 0.18149(12) -0.19868(18) 0.33467(18)
H1 H 0.2112 -0.2469 0.3149
C3 C 0.18102(12) -0.08033(18) 0.33418(18)
H2 H 0.2104 -0.0314 0.3144
C4 C 0.04732(13) -0.14243(17) 0.4296(2)
H3 H 0.0264 -0.2229 0.4223
H4 H -0.0029 -0.0919 0.3750
C5 C 0.09307(15) -0.1014(2) 0.5613(2)
H5 H 0.0538 -0.1047 0.5836
H6 H 0.1127 -0.0210 0.5690
H7 H 0.1421 -0.1521 0.6163
C6 C 0.10383(12) -0.63891(17) 0.3723(2)
C7 C 0.10059(12) -0.70110(18) 0.52011(18)
H8 H 0.0989 -0.7507 0.5746
C8 C 0.10224(13) -0.58394(19) 0.52376(19)
H9 H 0.1020 -0.5370 0.5811
C9 C 0.10709(12) -0.63643(17) 0.26572(19)
H10 H 0.0761 -0.5667 0.2154
H11 H 0.0773 -0.7061 0.2142
C10 C 0.19710(15) -0.6341(2) 0.3023(2)
H12 H 0.1950 -0.6325 0.2285
H13 H 0.2278 -0.7038 0.3505
H14 H 0.2266 -0.5643 0.3517
Cu2_2 Cu 0.111038(15) -0.88944(2) 0.38875(2)
N3_2 N 0.10175(10) 0.26237(14) 0.42404(15)
loop_
_geom_bond_atom_site_label_1
_geom_bond_atom_site_label_2
_geom_bond_site_symmetry_1
_geom_bond_site_symmetry_2
Cu1 N1 1_555 1_555
Cu2 N2 1_555 1_555
N1 C1 1_555 1_555
N2 C1 1_555 1_555
N3 C6 1_555 1_555
N4 Cu1 1_555 1_555
C1 C4 1_555 1_555
C2 N1 1_555 1_555
H1 C2 1_555 1_555
C3 N2 1_555 1_555
H2 C3 1_555 1_555
C4 H3 1_555 1_555
H4 C4 1_555 1_555
C5 C4 1_555 1_555
H5 C5 1_555 1_555
H6 C5 1_555 1_555
H7 C5 1_555 1_555
C6 N4 1_555 1_555
C7 N3 1_555 1_555
H8 C7 1_555 1_555
C8 N4 1_555 1_555
H9 C8 1_555 1_555
C9 C6 1_555 1_555
H10 C9 1_555 1_555
H11 C9 1_555 1_555
C10 C9 1_555 1_555
H12 C10 1_555 1_555
H13 C10 1_555 1_555
H14 C10 1_555 1_555
Cu2_2 N3 1_555 1_555
N3_2 Cu2 1_555 1_555
C2 C3 1_555 1_555
C7 C8 1_555 1_555

#END
