
#######################################################################
#
#                 Cambridge Crystallographic Data Centre
#                                CCDC 
#
#######################################################################
#
# If this CIF has been generated from an entry in the Cambridge 
# Structural Database, then it will include bibliographic, chemical, 
# crystal, experimental, refinement or atomic coordinate data resulting 
# from the CCDC's data processing and validation procedures.
#
#######################################################################

data_WANQAD
_symmetry_cell_setting           monoclinic
_symmetry_space_group_name_H-M   'P 21/c'
_symmetry_Int_Tables_number      14
_space_group_name_Hall           '-P 2ybc'
loop_
_symmetry_equiv_pos_site_id
_symmetry_equiv_pos_as_xyz
1 x,y,z
2 -x,1/2+y,1/2-z
3 -x,-y,-z
4 x,1/2-y,1/2+z
_cell_length_a                   12.521(1)
_cell_length_b                   6.7503(6)
_cell_length_c                   11.658(1)
_cell_angle_alpha                90
_cell_angle_beta                 95.42(1)
_cell_angle_gamma                90
_cell_volume                     980.935
loop_
_atom_site_label
_atom_site_type_symbol
_atom_site_fract_x
_atom_site_fract_y
_atom_site_fract_z
Nd1 Nd 0.30586(1) 0.51044(1) -0.33454(1)
O1 O 0.1770(1) 0.2692(2) -0.4392(1)
O2 O 0.3082(1) 0.1714(2) -0.2643(1)
O3 O 0.7191(1) 1.1496(2) -0.7096(1)
O4 O 0.2112(1) 0.6210(2) -0.5161(1)
O5 O 0.0746(1) 0.6072(2) -0.6530(1)
O6 O 0.4077(1) 0.3144(2) -0.4747(1)
O7 O 0.4442(1) 0.7015(2) -0.4329(1)
O8 O 0.4878(1) 0.4761(3) -0.2347(2)
O9 O 0.1194(1) 0.5534(3) -0.2742(2)
O10 O 0.3059(2) 0.5244(3) -0.1147(2)
C1 C 0.1645(2) 0.0721(3) -0.4004(2)
C2 C 0.2579(2) 0.0271(3) -0.3122(2)
C3 C 0.1138(2) 0.3180(3) -0.5427(2)
C4 C 0.1352(2) 0.5322(3) -0.5726(2)
C5 C 0.4891(2) 0.3877(3) -0.5115(2)
H1 H 0.50670 0.39550 -0.16630
H2 H 0.55660 0.52700 -0.25400
H3 H 0.11260 0.66800 -0.22400
H4 H 0.05070 0.48600 -0.30900
H5 H 0.35670 0.47500 -0.05400
H6 H 0.28730 0.65800 -0.09200
H7 H 0.09600 0.06020 -0.36400
H8 H 0.16450 -0.02050 -0.46600
H9 H 0.03690 0.30040 -0.53210
H10 H 0.13330 0.23050 -0.60580
O7B O 0.5558(1) 0.2985(2) -0.5671(1)
Nd1B Nd 0.69414(1) 0.48956(1) -0.66546(1)
O1B O 0.8230(1) 0.7308(2) -0.5608(1)
C1B C 0.8355(2) 0.9279(3) -0.5996(2)
C2B C 0.7421(2) 0.9729(3) -0.6878(2)
O2B O 0.6918(1) 0.8286(2) -0.7357(1)
O3_2 O 0.7191(1) 0.1496(2) -0.7096(1)
O4B O 0.7888(1) 0.3790(2) -0.4839(1)
C4B C 0.8648(2) 0.4678(3) -0.4274(2)
O5B O 0.9254(1) 0.3928(2) -0.3470(1)
C3B C 0.8862(2) 0.6820(3) -0.4573(2)
H9B H 0.96310 0.69960 -0.46790
H10B H 0.86670 0.76950 -0.39420
O6B O 0.5923(1) 0.6856(2) -0.5253(1)
C5B C 0.5109(2) 0.6123(3) -0.4885(2)
O8B O 0.5122(1) 0.5239(3) -0.7653(2)
H1B H 0.49330 0.60450 -0.83370
H2B H 0.44340 0.47300 -0.74600
O9B O 0.8806(1) 0.4466(3) -0.7258(2)
H3B H 0.88740 0.33200 -0.77600
H4B H 0.94930 0.51400 -0.69100
O10B O 0.6941(2) 0.4756(3) -0.8853(2)
H5B H 0.64330 0.52500 -0.94600
H6B H 0.71270 0.34200 -0.90800
O3B O 0.2809(1) 0.8504(2) -0.2904(1)
H7B H 0.90400 0.93980 -0.63600
H8B H 0.83550 1.02050 -0.53400
O3B_2 O 0.2809(1) -0.1496(2) -0.2904(1)
Nd1B_2 Nd 0.69414(1) 1.48956(1) -0.66546(1)
Nd1_2 Nd 0.30586(1) -0.48956(1) -0.33454(1)
loop_
_geom_bond_atom_site_label_1
_geom_bond_atom_site_label_2
_geom_bond_site_symmetry_1
_geom_bond_site_symmetry_2
Nd1 O1 1_555 1_555
O1 C1 1_555 1_555
O2 Nd1 1_555 1_555
O3 C2B 1_555 1_555
O4 Nd1 1_555 1_555
O5 C4 1_555 1_555
O6 Nd1 1_555 1_555
O7 Nd1 1_555 1_555
O8 Nd1 1_555 1_555
O9 Nd1 1_555 1_555
O10 Nd1 1_555 1_555
C1 C2 1_555 1_555
C2 O2 1_555 1_555
C3 O1 1_555 1_555
C4 O4 1_555 1_555
C5 O6 1_555 1_555
H1 O8 1_555 1_555
H2 O8 1_555 1_555
H3 O9 1_555 1_555
H4 O9 1_555 1_555
H5 O10 1_555 1_555
H6 O10 1_555 1_555
H7 C1 1_555 1_555
H8 C1 1_555 1_555
H9 C3 1_555 1_555
H10 C3 1_555 1_555
O7B C5 1_555 1_555
Nd1B O7B 1_555 1_555
O1B Nd1B 1_555 1_555
C1B O1B 1_555 1_555
C2B C1B 1_555 1_555
O2B Nd1B 1_555 1_555
O3_2 Nd1B 1_555 1_555
O4B Nd1B 1_555 1_555
C4B O4B 1_555 1_555
O5B C4B 1_555 1_555
C3B O1B 1_555 1_555
H9B C3B 1_555 1_555
H10B C3B 1_555 1_555
O6B Nd1B 1_555 1_555
C5B O7 1_555 1_555
O8B Nd1B 1_555 1_555
H1B O8B 1_555 1_555
H2B O8B 1_555 1_555
O9B Nd1B 1_555 1_555
H3B O9B 1_555 1_555
H4B O9B 1_555 1_555
O10B Nd1B 1_555 1_555
H5B O10B 1_555 1_555
H6B O10B 1_555 1_555
O3B Nd1 1_555 1_555
H7B C1B 1_555 1_555
H8B C1B 1_555 1_555
O3B_2 C2 1_555 1_555
Nd1B_2 O3 1_555 1_555
Nd1_2 O3B_2 1_555 1_555
C3 C4 1_555 1_555
C5 C5B 1_555 1_555
C2B O2B 1_555 1_555
C4B C3B 1_555 1_555
O6B C5B 1_555 1_555

#END
