
#######################################################################
#
#                 Cambridge Crystallographic Data Centre
#                                CCDC 
#
#######################################################################
#
# If this CIF has been generated from an entry in the Cambridge 
# Structural Database, then it will include bibliographic, chemical, 
# crystal, experimental, refinement or atomic coordinate data resulting 
# from the CCDC's data processing and validation procedures.
#
#######################################################################

data_WANRUY02
_symmetry_cell_setting           monoclinic
_symmetry_space_group_name_H-M   'P 21/n'
_symmetry_Int_Tables_number      14
_space_group_name_Hall           '-P 2yn'
loop_
_symmetry_equiv_pos_site_id
_symmetry_equiv_pos_as_xyz
1 x,y,z
2 1/2-x,1/2+y,1/2-z
3 -x,-y,-z
4 1/2+x,1/2-y,1/2+z
_cell_length_a                   10.02
_cell_length_b                   15.728(6)
_cell_length_c                   14.134(6)
_cell_angle_alpha                90
_cell_angle_beta                 101.313(14)
_cell_angle_gamma                90
_cell_volume                     2184.16
loop_
_atom_site_label
_atom_site_type_symbol
_atom_site_fract_x
_atom_site_fract_y
_atom_site_fract_z
Ni1 Ni -0.8833(1) 0.7711(1) 0.1354(1)
P1 P -0.5496(2) 0.7930(1) 0.1425(2)
P2 P -1.0023(2) 0.7855(1) 0.3402(2)
P3 P -0.2301(2) 0.9938(1) 0.4382(2)
P4 P -0.2725(2) 0.9833(1) 0.0737(2)
Al1 Al -0.2767(2) 0.8781(1) 0.2570(2)
Al2 Al -0.5027(2) 0.6233(1) 0.0365(2)
Al3 Al -0.5010(2) 0.8846(1) -0.0491(2)
O1 O -0.6766(5) 0.7998(3) 0.1802(4)
O2 O -0.9169(6) 0.8088(3) 0.2700(4)
O3 O -0.9160(6) 0.9028(3) 0.1034(4)
O4 O -0.4291(6) 0.8276(3) 0.2154(4)
O5 O -0.5164(6) 0.7000(3) 0.1227(4)
O6 O -0.5596(5) 0.8401(3) 0.0463(4)
O7 O -1.1535(6) 0.8035(3) 0.3053(4)
O8 O -0.3034(5) 0.9517(3) 0.3446(4)
O9 O -0.2201(5) 0.9235(3) 0.1593(4)
O10 O -0.9535(5) 0.8336(3) 0.4359(4)
O11 O -0.1113(6) 1.0453(3) 0.4122(4)
O12 O -0.1655(6) 0.9208(3) 0.5056(4)
O13 O -0.3203(6) 1.0451(3) 0.4846(4)
O14 O -0.3867(6) 1.0372(3) 0.1012(3)
O15 O -0.9899(6) 0.6898(3) 0.3623(4)
O16 O -0.3386(6) 0.9276(3) -0.0120(4)
O17 O -0.1574(6) 1.0327(4) 0.0524(4)
N1 N -0.8637(9) 0.7483(5) -0.0068(7)
N2 N -1.0906(9) 0.7453(4) 0.0809(7)
N3 N -0.8238(7) 0.6482(4) 0.1874(6)
N4 N -0.7439(8) 0.4601(4) 0.1893(6)
C1 C -0.9953(11) 0.7181(8) -0.0629(9)
C2 C -1.1109(12) 0.7557(7) -0.0288(10)
C3 C -0.9128(9) 0.5739(5) 0.1791(7)
C4 C -0.8558(11) 0.4959(5) 0.2302(8)
O7_2 O -0.1535(6) 0.8035(3) 0.3053(4)
O10C O -0.4535(5) 0.6664(3) -0.0641(4)
O15C O -0.4899(6) 0.8102(3) -0.1377(4)
Al1_2 Al -1.2767(2) 0.8781(1) 0.2570(2)
O11A O -0.3887(6) 0.5453(3) 0.0878(4)
O12C O -0.6655(6) 0.5792(3) 0.0056(4)
O14B O -0.6133(6) 0.9628(3) -0.1012(3)
Al2C Al -1.0027(2) 0.8767(1) 0.5365(2)
Al3C Al -1.0010(2) 0.6154(1) 0.4509(2)
Al2A Al 0.0027(2) 1.1233(1) 0.4635(2)
Al2C_2 Al -0.0027(2) 0.8767(1) 0.5365(2)
Al3B Al -0.4990(2) 1.1154(1) 0.0491(2)
O18 O -0.5322(8) 0.5803(5) 0.2836(6)
loop_
_geom_bond_atom_site_label_1
_geom_bond_atom_site_label_2
_geom_bond_site_symmetry_1
_geom_bond_site_symmetry_2
Ni1 O1 1_555 1_555
P1 O1 1_555 1_555
P2 O2 1_555 1_555
P3 O8 1_555 1_555
P4 O9 1_555 1_555
Al1 O4 1_555 1_555
Al2 O5 1_555 1_555
Al3 O6 1_555 1_555
O2 Ni1 1_555 1_555
O3 Ni1 1_555 1_555
O4 P1 1_555 1_555
O5 P1 1_555 1_555
O6 P1 1_555 1_555
O7 P2 1_555 1_555
O8 Al1 1_555 1_555
O9 Al1 1_555 1_555
O10 P2 1_555 1_555
O11 P3 1_555 1_555
O12 P3 1_555 1_555
O13 P3 1_555 1_555
O14 P4 1_555 1_555
O15 P2 1_555 1_555
O16 P4 1_555 1_555
O17 P4 1_555 1_555
N1 Ni1 1_555 1_555
N2 Ni1 1_555 1_555
N3 Ni1 1_555 1_555
N4 C4 1_555 1_555
C1 N1 1_555 1_555
C2 N2 1_555 1_555
C3 N3 1_555 1_555
C4 C3 1_555 1_555
O7_2 Al1 1_555 1_555
O10C Al2 1_555 1_555
O15C Al3 1_555 1_555
Al1_2 O7 1_555 1_555
O11A Al2 1_555 1_555
O12C Al2 1_555 1_555
O14B Al3 1_555 1_555
Al2C O10 1_555 1_555
Al3C O15 1_555 1_555
Al2A O11 1_555 1_555
Al2C_2 O12 1_555 1_555
Al3B O14 1_555 1_555
Al3 O16 1_555 1_555
C1 C2 1_555 1_555

#END
