
#######################################################################
#
#                 Cambridge Crystallographic Data Centre
#                                CCDC 
#
#######################################################################
#
# If this CIF has been generated from an entry in the Cambridge 
# Structural Database, then it will include bibliographic, chemical, 
# crystal, experimental, refinement or atomic coordinate data resulting 
# from the CCDC's data processing and validation procedures.
#
#######################################################################

data_WANRUY01
_symmetry_cell_setting           monoclinic
_symmetry_space_group_name_H-M   'P 21/n'
_symmetry_Int_Tables_number      14
_space_group_name_Hall           '-P 2yn'
loop_
_symmetry_equiv_pos_site_id
_symmetry_equiv_pos_as_xyz
1 x,y,z
2 1/2-x,1/2+y,1/2-z
3 -x,-y,-z
4 1/2+x,1/2-y,1/2+z
_cell_length_a                   10.03(2)
_cell_length_b                   15.67(2)
_cell_length_c                   14.14(2)
_cell_angle_alpha                90
_cell_angle_beta                 101.3(1)
_cell_angle_gamma                90
_cell_volume                     2179.3
loop_
_atom_site_label
_atom_site_type_symbol
_atom_site_fract_x
_atom_site_fract_y
_atom_site_fract_z
Ni1 Ni -0.8826(2) 0.7721(1) 0.1344(2)
P1 P -0.5501(4) 0.7931(3) 0.1420(3)
P2 P -1.0019(4) 0.7858(3) 0.3396(3)
P3 P -0.2296(5) 0.9939(3) 0.4386(4)
P4 P -0.2738(5) 0.9840(3) 0.0736(4)
Al1 Al -0.2755(5) 0.8783(3) 0.2576(4)
Al2 Al -0.5036(5) 0.6239(3) 0.0367(4)
Al3 Al -0.4984(6) 0.8850(3) -0.0509(4)
O1 O -0.678(1) 0.8023(7) 0.1811(7)
O2 O -0.914(1) 0.8088(7) 0.2690(8)
O3 O -0.914(1) 0.9040(7) 0.1047(9)
O4 O -0.430(1) 0.8291(8) 0.2150(8)
O5 O -0.516(1) 0.7009(7) 0.1235(8)
O6 O -0.559(1) 0.8409(8) 0.0465(8)
O7 O -1.154(1) 0.8031(7) 0.3058(7)
O8 O -0.305(1) 0.9526(8) 0.3437(8)
O9 O -0.219(1) 0.9240(8) 0.159(1)
O10 O -0.951(1) 0.8334(8) 0.4351(8)
O11 O -0.113(1) 1.0454(8) 0.4123(8)
O12 O -0.165(1) 0.9196(7) 0.5073(8)
O13 O -0.320(1) 1.0462(8) 0.4846(8)
O14 O -0.390(1) 1.0368(8) 0.101(1)
O15 O -0.988(1) 0.6894(7) 0.3617(8)
O16 O -0.336(1) 0.9279(8) -0.0138(9)
O17 O -0.156(1) 1.0349(8) 0.052(1)
N1 N -0.866(2) 0.749(1) -0.009(1)
N2 N -1.089(1) 0.746(1) 0.077(1)
N3 N -0.824(1) 0.650(1) 0.185(1)
N4 N -0.746(1) 0.460(1) 0.192(1)
C1 C -0.994(2) 0.713(1) -0.066(1)
C2 C -1.110(2) 0.757(1) -0.026(1)
C3 C -0.912(2) 0.576(1) 0.178(1)
C4 C -0.855(2) 0.494(1) 0.231(1)
H1 H -0.8458 0.8016 -0.0379
H2 H -0.7935 0.7100 -0.0100
H3 H -1.1106 0.6897 0.0926
H4 H -1.1453 0.7852 0.1034
H5 H -0.7523 0.6338 0.1535
H6 H -0.7886 0.6562 0.2523
H7 H -0.7111 0.4104 0.2263
H8 H -0.7768 0.4462 0.1256
H9 H -0.6749 0.5016 0.1967
H10 H -1.0008 0.7259 -0.1320
H11 H -0.9957 0.6536 -0.0565
H12 H -1.1941 0.7315 -0.0556
H13 H -1.1121 0.8160 -0.0416
H14 H -0.9909 0.5920 0.2015
H15 H -0.9383 0.5621 0.1108
H16 H -0.9255 0.4529 0.2249
H17 H -0.8234 0.5074 0.2969
H18 H -0.8924 0.9398 0.0554
H19 H -0.9970 0.9313 0.1094
O7_2 O -0.154(1) 0.8031(7) 0.3058(7)
O10C O -0.451(1) 0.6666(8) -0.0649(8)
O11A O -0.387(1) 0.5454(8) 0.0877(8)
O12C O -0.665(1) 0.5804(7) 0.0073(8)
O14B O -0.610(1) 0.9632(8) -0.101(1)
O15C O -0.488(1) 0.8106(7) -0.1383(8)
Al1_2 Al -1.2755(5) 0.8783(3) 0.2576(4)
Al2C Al -1.0036(5) 0.8761(3) 0.5367(4)
Al2A Al 0.0036(5) 1.1239(3) 0.4633(4)
Al2C_2 Al -0.0036(5) 0.8761(3) 0.5367(4)
Al3B Al -0.5016(6) 1.1150(3) 0.0509(4)
Al3C Al -0.9984(6) 0.6150(3) 0.4491(4)
O18 O -0.536(2) 0.5826(9) 0.284(1)
H20 H -0.5400 0.6200 0.2500
H21 H -0.4800 0.5700 0.3400
loop_
_geom_bond_atom_site_label_1
_geom_bond_atom_site_label_2
_geom_bond_site_symmetry_1
_geom_bond_site_symmetry_2
Ni1 O1 1_555 1_555
P1 O1 1_555 1_555
P2 O2 1_555 1_555
P3 O8 1_555 1_555
P4 O9 1_555 1_555
Al1 O4 1_555 1_555
Al2 O5 1_555 1_555
Al3 O6 1_555 1_555
O2 Ni1 1_555 1_555
O3 Ni1 1_555 1_555
O4 P1 1_555 1_555
O5 P1 1_555 1_555
O6 P1 1_555 1_555
O7 P2 1_555 1_555
O8 Al1 1_555 1_555
O9 Al1 1_555 1_555
O10 P2 1_555 1_555
O11 P3 1_555 1_555
O12 P3 1_555 1_555
O13 P3 1_555 1_555
O14 P4 1_555 1_555
O15 P2 1_555 1_555
O16 P4 1_555 1_555
O17 P4 1_555 1_555
O18 H20 1_555 1_555
N1 Ni1 1_555 1_555
N2 Ni1 1_555 1_555
N3 Ni1 1_555 1_555
N4 C4 1_555 1_555
C1 N1 1_555 1_555
C2 N2 1_555 1_555
C3 N3 1_555 1_555
C4 C3 1_555 1_555
H1 N1 1_555 1_555
H2 N1 1_555 1_555
H3 N2 1_555 1_555
H4 N2 1_555 1_555
H5 N3 1_555 1_555
H6 N3 1_555 1_555
H7 N4 1_555 1_555
H8 N4 1_555 1_555
H9 N4 1_555 1_555
H10 C1 1_555 1_555
H11 C1 1_555 1_555
H12 C2 1_555 1_555
H13 C2 1_555 1_555
H14 C3 1_555 1_555
H15 C3 1_555 1_555
H16 C4 1_555 1_555
H17 C4 1_555 1_555
H18 O3 1_555 1_555
H19 O3 1_555 1_555
H21 O18 1_555 1_555
O7_2 Al1 1_555 1_555
O10C Al2 1_555 1_555
O11A Al2 1_555 1_555
O12C Al2 1_555 1_555
O14B Al3 1_555 1_555
O15C Al3 1_555 1_555
Al1_2 O7 1_555 1_555
Al2C O10 1_555 1_555
Al2A O11 1_555 1_555
Al2C_2 O12 1_555 1_555
Al3B O14 1_555 1_555
Al3C O15 1_555 1_555
Al3 O16 1_555 1_555
C1 C2 1_555 1_555

#END
