
#######################################################################
#
#                 Cambridge Crystallographic Data Centre
#                                CCDC 
#
#######################################################################
#
# If this CIF has been generated from an entry in the Cambridge 
# Structural Database, then it will include bibliographic, chemical, 
# crystal, experimental, refinement or atomic coordinate data resulting 
# from the CCDC's data processing and validation procedures.
#
#######################################################################

data_WANROT
_symmetry_cell_setting           monoclinic
_symmetry_space_group_name_H-M   'P 21/c'
_symmetry_Int_Tables_number      14
_space_group_name_Hall           '-P 2ybc'
loop_
_symmetry_equiv_pos_site_id
_symmetry_equiv_pos_as_xyz
1 x,y,z
2 -x,1/2+y,1/2-z
3 -x,-y,-z
4 x,1/2-y,1/2+z
_cell_length_a                   11.8034(9)
_cell_length_b                   8.3749(6)
_cell_length_c                   9.5543(7)
_cell_angle_alpha                90
_cell_angle_beta                 96.2130(10)
_cell_angle_gamma                90
_cell_volume                     938.917
loop_
_atom_site_label
_atom_site_type_symbol
_atom_site_fract_x
_atom_site_fract_y
_atom_site_fract_z
Co1 Co 0.19785(5) 0.10283(6) 0.01804(6)
O1 O 0.1677(2) 0.1057(3) -0.2014(3)
O2 O 0.3236(2) -0.0435(4) -0.0476(3)
O3 O 0.3200(3) -0.2587(3) -0.1829(3)
O4 O -0.0574(2) -0.2284(3) -0.0913(3)
O5 O 0.0936(2) -0.1011(3) 0.0062(3)
O6 O 0.2917(2) 0.1894(3) -0.4955(3)
O7 O 0.4059(2) 0.0392(4) -0.3551(3)
O8 O 0.2589(4) 0.0530(4) 0.2245(3)
H1 H 0.256(5) 0.107(4) 0.299(3)
H2 H 0.276(5) -0.043(2) 0.246(5)
C1 C 0.1852(3) -0.0528(5) -0.2519(4)
C2 C 0.2863(3) -0.1265(5) -0.1544(4)
C3 C 0.0767(3) -0.1513(5) -0.2426(4)
H3 H 0.0163 -0.1070 -0.3080
H4 H 0.0905 -0.2595 -0.2729
C4 C 0.0354(4) -0.1586(5) -0.0984(4)
C5 C 0.2141(3) -0.0457(5) -0.4033(4)
H5 H 0.1473 -0.0124 -0.4644
H6 H 0.2356 -0.1513 -0.4327
C6 C 0.3116(3) 0.0707(5) -0.4183(4)
H7 H 0.133(4) 0.167(5) -0.262(4)
Co1B Co -0.19785(5) -0.10283(6) -0.01804(6)
Co1C Co 0.19785(5) 0.39717(6) -0.48196(6)
O4B O 0.0574(2) 0.2284(3) 0.0913(3)
O6C O 0.2917(2) 0.3106(3) 0.0045(3)
N1 N 0.4979(3) -0.2240(5) 0.1138(4)
H8 H 0.444(2) -0.172(4) 0.069(3)
H9 H 0.472(3) -0.315(2) 0.137(3)
H10 H 0.523(3) -0.174(4) 0.188(2)
H11 H 0.551(2) -0.238(4) 0.063(3)
loop_
_geom_bond_atom_site_label_1
_geom_bond_atom_site_label_2
_geom_bond_site_symmetry_1
_geom_bond_site_symmetry_2
Co1 O1 1_555 1_555
O1 C1 1_555 1_555
O2 Co1 1_555 1_555
O3 C2 1_555 1_555
O4 C4 1_555 1_555
O5 Co1 1_555 1_555
O6 C6 1_555 1_555
O7 C6 1_555 1_555
O8 Co1 1_555 1_555
H1 O8 1_555 1_555
H2 O8 1_555 1_555
C1 C2 1_555 1_555
C2 O2 1_555 1_555
C3 C1 1_555 1_555
H3 C3 1_555 1_555
H4 C3 1_555 1_555
C4 O5 1_555 1_555
C5 C1 1_555 1_555
H5 C5 1_555 1_555
H6 C5 1_555 1_555
C6 C5 1_555 1_555
N1 H8 1_555 1_555
H7 O1 1_555 1_555
H9 N1 1_555 1_555
H10 N1 1_555 1_555
H11 N1 1_555 1_555
Co1B O4 1_555 1_555
Co1C O6 1_555 1_555
O4B Co1 1_555 1_555
O6C Co1 1_555 1_555
C3 C4 1_555 1_555

#END
