
#######################################################################
#
#                 Cambridge Crystallographic Data Centre
#                                CCDC 
#
#######################################################################
#
# If this CIF has been generated from an entry in the Cambridge 
# Structural Database, then it will include bibliographic, chemical, 
# crystal, experimental, refinement or atomic coordinate data resulting 
# from the CCDC's data processing and validation procedures.
#
#######################################################################

data_WANRUY
_symmetry_cell_setting           monoclinic
_symmetry_space_group_name_H-M   'P 21/n'
_symmetry_Int_Tables_number      14
_space_group_name_Hall           '-P 2yn'
loop_
_symmetry_equiv_pos_site_id
_symmetry_equiv_pos_as_xyz
1 x,y,z
2 1/2-x,1/2+y,1/2-z
3 -x,-y,-z
4 1/2+x,1/2-y,1/2+z
_cell_length_a                   10.0209(8)
_cell_length_b                   15.661(1)
_cell_length_c                   14.0914(8)
_cell_angle_alpha                90
_cell_angle_beta                 101.216(5)
_cell_angle_gamma                90
_cell_volume                     2169.23
loop_
_atom_site_label
_atom_site_type_symbol
_atom_site_fract_x
_atom_site_fract_y
_atom_site_fract_z
Ni1 Ni -0.8828(1) 0.77237(7) 0.13402(7)
P1 P -0.5492(1) 0.7934(1) 0.1421(1)
P2 P -1.0018(1) 0.7851(1) 0.3401(1)
P3 P -0.2295(1) 0.9938(1) 0.4387(1)
P4 P -0.2729(1) 0.9840(1) 0.0741(1)
Al1 Al -0.2759(2) 0.8785(1) 0.2572(1)
Al2 Al -0.5031(2) 0.6232(1) 0.0365(1)
Al3 Al -0.4985(2) 0.8851(1) -0.0500(1)
O1 O -0.6763(4) 0.8014(3) 0.1806(3)
O2 O -0.9175(4) 0.8098(3) 0.2690(3)
O3 O -0.9164(5) 0.9037(3) 0.1044(3)
O4 O -0.4284(4) 0.8280(3) 0.2150(3)
O5 O -0.5145(5) 0.6988(3) 0.1245(3)
O6 O -0.5582(5) 0.8395(3) 0.0451(3)
O7 O -1.1539(4) 0.8028(3) 0.3049(3)
O8 O -0.3035(4) 0.9521(3) 0.3438(3)
O9 O -0.2193(4) 0.9236(3) 0.1600(3)
O10 O -0.9537(4) 0.8332(3) 0.4358(3)
O11 O -0.1100(4) 1.0454(3) 0.4126(3)
O12 O -0.1663(4) 0.9200(3) 0.5071(3)
O13 O -0.3197(4) 1.0468(3) 0.4863(3)
O14 O -0.3879(5) 1.0372(3) 0.1031(3)
O15 O -0.9886(4) 0.6892(3) 0.3613(3)
O16 O -0.3367(4) 0.9282(3) -0.0138(3)
O17 O -0.1579(5) 1.0368(3) 0.0532(3)
N1 N -0.8647(6) 0.7506(4) -0.0108(4)
N2 N -1.0907(5) 0.7464(4) 0.0777(4)
N3 N -0.8229(6) 0.6497(4) 0.1861(4)
N4 N -0.7410(6) 0.4607(4) 0.1906(4)
C1 C -0.9954(7) 0.7163(5) -0.0644(5)
C2 C -1.1107(7) 0.7575(5) -0.0283(5)
C3 C -0.9149(7) 0.5765(4) 0.1774(5)
C4 C -0.8563(7) 0.4962(5) 0.2315(5)
H1 H -0.8448 0.8027 -0.0395
H2 H -0.7938 0.7107 -0.0126
H3 H -1.1120 0.6893 0.0930
H4 H -1.1469 0.7848 0.1041
H5 H -0.7515 0.6332 0.1542
H6 H -0.7881 0.6561 0.2532
H7 H -0.7070 0.4111 0.2257
H8 H -0.7724 0.4465 0.1245
H9 H -0.6712 0.5023 0.1958
H10 H -1.0033 0.7271 -0.1315
H11 H -0.9979 0.6559 -0.0543
H12 H -1.1939 0.7316 -0.0587
H13 H -1.1129 0.8165 -0.0437
H14 H -0.9933 0.5929 0.2014
H15 H -0.9407 0.5624 0.1106
H16 H -0.9264 0.4543 0.2262
H17 H -0.8251 0.5100 0.2976
H18 H -0.8924 0.9398 0.0554
H19 H -0.9970 0.9313 0.1094
O7_2 O -0.1539(4) 0.8028(3) 0.3049(3)
O10C O -0.4537(4) 0.6668(3) -0.0642(3)
O11A O -0.3900(4) 0.5454(3) 0.0874(3)
O12C O -0.6663(4) 0.5800(3) 0.0071(3)
O14B O -0.6121(5) 0.9628(3) -0.1031(3)
O15C O -0.4886(4) 0.8108(3) -0.1387(3)
Al1_2 Al -1.2759(2) 0.8785(1) 0.2572(1)
Al2C Al -1.0031(2) 0.8768(1) 0.5365(1)
Al2A Al 0.0031(2) 1.1232(1) 0.4635(1)
Al2C_2 Al -0.0031(2) 0.8768(1) 0.5365(1)
Al3B Al -0.5015(2) 1.1149(1) 0.0500(1)
Al3C Al -0.9985(2) 0.6149(1) 0.4500(1)
O18 O -0.5344(6) 0.5826(4) 0.2850(4)
H20 H -0.5400 0.6200 0.2500
H21 H -0.4800 0.5700 0.3400
loop_
_geom_bond_atom_site_label_1
_geom_bond_atom_site_label_2
_geom_bond_site_symmetry_1
_geom_bond_site_symmetry_2
Ni1 O1 1_555 1_555
P1 O1 1_555 1_555
P2 O2 1_555 1_555
P3 O8 1_555 1_555
P4 O9 1_555 1_555
Al1 O4 1_555 1_555
Al2 O5 1_555 1_555
Al3 O6 1_555 1_555
O2 Ni1 1_555 1_555
O3 Ni1 1_555 1_555
O4 P1 1_555 1_555
O5 P1 1_555 1_555
O6 P1 1_555 1_555
O7 P2 1_555 1_555
O8 Al1 1_555 1_555
O9 Al1 1_555 1_555
O10 P2 1_555 1_555
O11 P3 1_555 1_555
O12 P3 1_555 1_555
O13 P3 1_555 1_555
O14 P4 1_555 1_555
O15 P2 1_555 1_555
O16 P4 1_555 1_555
O17 P4 1_555 1_555
O18 H20 1_555 1_555
N1 Ni1 1_555 1_555
N2 Ni1 1_555 1_555
N3 Ni1 1_555 1_555
N4 C4 1_555 1_555
C1 N1 1_555 1_555
C2 N2 1_555 1_555
C3 N3 1_555 1_555
C4 C3 1_555 1_555
H1 N1 1_555 1_555
H2 N1 1_555 1_555
H3 N2 1_555 1_555
H4 N2 1_555 1_555
H5 N3 1_555 1_555
H6 N3 1_555 1_555
H7 N4 1_555 1_555
H8 N4 1_555 1_555
H9 N4 1_555 1_555
H10 C1 1_555 1_555
H11 C1 1_555 1_555
H12 C2 1_555 1_555
H13 C2 1_555 1_555
H14 C3 1_555 1_555
H15 C3 1_555 1_555
H16 C4 1_555 1_555
H17 C4 1_555 1_555
H18 O3 1_555 1_555
H19 O3 1_555 1_555
H21 O18 1_555 1_555
O7_2 Al1 1_555 1_555
O10C Al2 1_555 1_555
O11A Al2 1_555 1_555
O12C Al2 1_555 1_555
O14B Al3 1_555 1_555
O15C Al3 1_555 1_555
Al1_2 O7 1_555 1_555
Al2C O10 1_555 1_555
Al2A O11 1_555 1_555
Al2C_2 O12 1_555 1_555
Al3B O14 1_555 1_555
Al3C O15 1_555 1_555
Al3 O16 1_555 1_555
C1 C2 1_555 1_555

#END
