
#######################################################################
#
#                 Cambridge Crystallographic Data Centre
#                                CCDC 
#
#######################################################################
#
# If this CIF has been generated from an entry in the Cambridge 
# Structural Database, then it will include bibliographic, chemical, 
# crystal, experimental, refinement or atomic coordinate data resulting 
# from the CCDC's data processing and validation procedures.
#
#######################################################################

data_WANRUZ
_symmetry_cell_setting           monoclinic
_symmetry_space_group_name_H-M   'P 21/n'
_symmetry_Int_Tables_number      14
_space_group_name_Hall           '-P 2yn'
loop_
_symmetry_equiv_pos_site_id
_symmetry_equiv_pos_as_xyz
1 x,y,z
2 1/2-x,1/2+y,1/2-z
3 -x,-y,-z
4 1/2+x,1/2-y,1/2+z
_cell_length_a                   11.2040(12)
_cell_length_b                   11.9100(12)
_cell_length_c                   12.0139(13)
_cell_angle_alpha                90
_cell_angle_beta                 116.254(2)
_cell_angle_gamma                90
_cell_volume                     1437.75
loop_
_atom_site_label
_atom_site_type_symbol
_atom_site_fract_x
_atom_site_fract_y
_atom_site_fract_z
Co1 Co 0.07540(4) 0.17759(3) 0.15184(4)
Co2 Co 0.0000 0.0000 -0.5000
O1 O -0.0412(2) 0.17819(16) -0.04678(19)
H1 H -0.060(3) 0.1147(16) -0.078(3)
O2 O 0.2125(2) 0.12832(17) 0.0895(2)
O3 O 0.2719(2) 0.17107(18) -0.0592(2)
O4 O -0.0376(2) -0.00673(16) -0.15964(19)
O5 O -0.0122(2) -0.00481(17) -0.3323(2)
O6 O 0.1622(2) 0.49191(16) 0.0444(2)
O7 O 0.1145(2) 0.34260(17) 0.12781(19)
O8 O -0.0680(2) 0.22654(19) 0.2057(2)
H2 H -0.146(2) 0.213(2) 0.152(2)
H3 H -0.048(3) 0.193(2) 0.2707(18)
O9 O 0.2145(2) 0.18371(17) 0.3382(2)
H4 H 0.276(2) 0.2310(17) 0.360(3)
H5 H 0.239(3) 0.1238(15) 0.376(3)
O10 O -0.0323(2) 0.17378(17) -0.5305(2)
H6 H -0.0971(19) 0.215(2) -0.537(3)
H7 H 0.0379(17) 0.210(2) -0.504(3)
O11 O 0.1997(2) 0.0340(2) -0.4122(2)
H8 H 0.250(2) 0.033(3) -0.3349(9)
H9 H 0.243(3) 0.021(3) -0.453(2)
C1 C 0.0491(3) 0.2124(2) -0.0972(3)
C2 C 0.1897(3) 0.1651(3) -0.0163(3)
C3 C -0.0029(3) 0.1712(2) -0.2314(3)
H16 H -0.0886 0.2057 -0.2812
H17 H 0.0580 0.1954 -0.2643
C4 C -0.0179(3) 0.0440(3) -0.2435(3)
C5 C 0.0582(3) 0.3407(2) -0.0912(3)
H18 H 0.1109 0.3643 -0.1329
H19 H -0.0308 0.3705 -0.1383
C6 C 0.1170(3) 0.3945(3) 0.0368(3)
Co1B Co -0.07540(4) -0.17759(3) -1.15184(4)
Co1B_2 Co -0.07540(4) -0.17759(3) -0.15184(4)
Co1_2 Co 0.07540(4) 0.17759(3) -0.84816(4)
O1B O 0.0412(2) -0.17819(16) -0.95322(19)
H1B H 0.060(3) -0.1147(16) -0.922(3)
O2B O -0.2125(2) -0.12832(17) -1.0895(2)
O3B O -0.2719(2) -0.17107(18) -0.9408(2)
O4B O 0.0376(2) 0.00673(16) -0.84036(19)
O4B_2 O 0.0376(2) 0.00673(16) 0.15964(19)
O4_2 O -0.0376(2) -0.00673(16) -1.15964(19)
O5B O 0.0122(2) 0.00481(17) -0.6677(2)
O6B O -0.1622(2) -0.49191(16) -1.0444(2)
O7B O -0.1145(2) -0.34260(17) -1.12781(19)
O8B O 0.0680(2) -0.22654(19) -1.2057(2)
H2B H 0.146(2) -0.213(2) -1.152(2)
H3B H 0.048(3) -0.193(2) -1.2707(18)
O9B O -0.2145(2) -0.18371(17) -1.3382(2)
H4B H -0.276(2) -0.2310(17) -1.360(3)
H5B H -0.239(3) -0.1238(15) -1.376(3)
O10B O 0.0323(2) -0.17378(17) -0.4695(2)
H6B H 0.0971(19) -0.215(2) -0.463(3)
H7B H -0.0379(17) -0.210(2) -0.496(3)
O11B O -0.1997(2) -0.0340(2) -0.5878(2)
H8B H -0.250(2) -0.033(3) -0.6651(9)
H9B H -0.243(3) -0.021(3) -0.547(2)
C1B C -0.0491(3) -0.2124(2) -0.9028(3)
C2B C -0.1897(3) -0.1651(3) -0.9837(3)
C3B C 0.0029(3) -0.1712(2) -0.7686(3)
H16B H 0.0886 -0.2057 -0.7188
H17B H -0.0580 -0.1954 -0.7357
C4B C 0.0179(3) -0.0440(3) -0.7565(3)
C5B C -0.0582(3) -0.3407(2) -0.9088(3)
H18B H -0.1109 -0.3643 -0.8671
H19B H 0.0308 -0.3705 -0.8617
C6B C -0.1170(3) -0.3945(3) -1.0368(3)
O12 O 0.3812(3) -0.05363(19) 0.1628(2)
H10 H 0.331(3) 0.0025(17) 0.144(2)
H11 H 0.389(3) -0.082(2) 0.2307(18)
O13 O 0.3733(2) 0.0146(2) -0.1672(2)
H12 H 0.358(3) 0.065(2) -0.125(3)
H13 H 0.4495(17) 0.025(2) -0.165(3)
O14 O 0.1702(3) 0.32874(19) -0.4475(2)
H14 H 0.165(3) 0.359(3) -0.517(3)
H15 H 0.148(4) 0.377(3) -0.411(3)
loop_
_geom_bond_atom_site_label_1
_geom_bond_atom_site_label_2
_geom_bond_site_symmetry_1
_geom_bond_site_symmetry_2
Co1 O1 1_555 1_555
Co2 O5 1_555 1_555
O1 H1 1_555 1_555
O2 Co1 1_555 1_555
O3 C2 1_555 1_555
O4 C4 1_555 1_555
O5 C4 1_555 1_555
O6 C6 1_555 1_555
O7 Co1 1_555 1_555
O8 Co1 1_555 1_555
H2 O8 1_555 1_555
H3 O8 1_555 1_555
O9 Co1 1_555 1_555
H4 O9 1_555 1_555
H5 O9 1_555 1_555
O10 Co2 1_555 1_555
H6 O10 1_555 1_555
H7 O10 1_555 1_555
O11 Co2 1_555 1_555
H8 O11 1_555 1_555
H9 O11 1_555 1_555
O12 H10 1_555 1_555
H11 O12 1_555 1_555
O13 H12 1_555 1_555
H13 O13 1_555 1_555
O14 H14 1_555 1_555
H15 O14 1_555 1_555
C1 O1 1_555 1_555
C2 O2 1_555 1_555
C3 C1 1_555 1_555
H16 C3 1_555 1_555
H17 C3 1_555 1_555
C4 C3 1_555 1_555
C5 C1 1_555 1_555
H18 C5 1_555 1_555
H19 C5 1_555 1_555
C6 O7 1_555 1_555
Co1B O1B 1_555 1_555
Co1B_2 O4 1_555 1_555
Co1_2 O4B 1_555 1_555
O1B H1B 1_555 1_555
O2B Co1B 1_555 1_555
O3B C2B 1_555 1_555
O4B C4B 1_555 1_555
O4B_2 Co1 1_555 1_555
O4_2 Co1B 1_555 1_555
O5B Co2 1_555 1_555
O6B C6B 1_555 1_555
O7B Co1B 1_555 1_555
O8B Co1B 1_555 1_555
H2B O8B 1_555 1_555
H3B O8B 1_555 1_555
O9B Co1B 1_555 1_555
H4B O9B 1_555 1_555
H5B O9B 1_555 1_555
O10B Co2 1_555 1_555
H6B O10B 1_555 1_555
H7B O10B 1_555 1_555
O11B Co2 1_555 1_555
H8B O11B 1_555 1_555
H9B O11B 1_555 1_555
C1B O1B 1_555 1_555
C2B O2B 1_555 1_555
C3B C1B 1_555 1_555
H16B C3B 1_555 1_555
H17B C3B 1_555 1_555
C4B O5B 1_555 1_555
C5B C1B 1_555 1_555
H18B C5B 1_555 1_555
H19B C5B 1_555 1_555
C6B O7B 1_555 1_555
C1 C2 1_555 1_555
C5 C6 1_555 1_555
C1B C2B 1_555 1_555
C3B C4B 1_555 1_555
C5B C6B 1_555 1_555

#END
