
#######################################################################
#
#                 Cambridge Crystallographic Data Centre
#                                CCDC 
#
#######################################################################
#
# If this CIF has been generated from an entry in the Cambridge 
# Structural Database, then it will include bibliographic, chemical, 
# crystal, experimental, refinement or atomic coordinate data resulting 
# from the CCDC's data processing and validation procedures.
#
#######################################################################

data_WANRIN
_symmetry_cell_setting           orthorhombic
_symmetry_space_group_name_H-M   'P 21 21 21'
_symmetry_Int_Tables_number      19
_space_group_name_Hall           'P 2ac 2ab'
loop_
_symmetry_equiv_pos_site_id
_symmetry_equiv_pos_as_xyz
1 x,y,z
2 1/2-x,-y,1/2+z
3 -x,1/2+y,1/2-z
4 1/2+x,1/2-y,-z
_cell_length_a                   5.9131(4)
_cell_length_b                   10.4071(9)
_cell_length_c                   13.4411(7)
_cell_angle_alpha                90
_cell_angle_beta                 90
_cell_angle_gamma                90
_cell_volume                     827.141
loop_
_atom_site_label
_atom_site_type_symbol
_atom_site_fract_x
_atom_site_fract_y
_atom_site_fract_z
Co1 Co 0.57942(8) 0.33280(4) 0.45003(3)
O1 O 0.4549(4) 0.4958(2) 0.38700(18)
O2 O 0.2119(4) 0.3279(2) 0.48062(16)
O3 O -0.0996(5) 0.3723(2) 0.39171(18)
O4 O 0.4759(4) 0.2340(2) 0.32161(17)
O5 O 0.3881(4) 0.2205(2) 0.16168(17)
O6 O 0.1266(5) 0.8052(2) 0.4102(2)
O7 O 0.0948(7) 0.6291(2) 0.50074(19)
C1 C 0.2378(6) 0.4758(3) 0.3431(3)
C2 C 0.1028(6) 0.3862(3) 0.4120(2)
C3 C 0.2721(7) 0.4093(3) 0.2422(3)
H1 H 0.1248 0.3985 0.2115
H2 H 0.3588 0.4666 0.2000
C4 C 0.3887(6) 0.2801(3) 0.2429(3)
C5 C 0.1172(6) 0.6034(3) 0.3272(2)
H3 H 0.1902 0.6483 0.2727
H4 H -0.0375 0.5861 0.3074
C6 C 0.1139(6) 0.6907(3) 0.4169(3)
O8 O 0.6555(5) 0.4317(2) 0.5799(2)
H5 H 0.517(6) 0.567(2) 0.372(3)
H6 H 0.654(6) 0.5119(10) 0.586(3)
H7 H 0.772(4) 0.399(3) 0.605(3)
H8 H 0.115(7) 0.672(3) 0.5531(17)
Co1C Co 0.07942(8) 0.16720(4) 0.54997(3)
Co1_2 Co -0.42058(8) 0.33280(4) 0.45003(3)
O2C O 0.7119(4) 0.1721(2) 0.51938(16)
O3_2 O 0.9004(5) 0.3723(2) 0.39171(18)
loop_
_geom_bond_atom_site_label_1
_geom_bond_atom_site_label_2
_geom_bond_site_symmetry_1
_geom_bond_site_symmetry_2
Co1 O1 1_555 1_555
O1 C1 1_555 1_555
O2 Co1 1_555 1_555
O3 C2 1_555 1_555
O4 Co1 1_555 1_555
O5 C4 1_555 1_555
O6 C6 1_555 1_555
O7 C6 1_555 1_555
C1 C2 1_555 1_555
C2 O2 1_555 1_555
C3 C1 1_555 1_555
H1 C3 1_555 1_555
H2 C3 1_555 1_555
C4 O4 1_555 1_555
C5 C1 1_555 1_555
H3 C5 1_555 1_555
H4 C5 1_555 1_555
C6 C5 1_555 1_555
O8 Co1 1_555 1_555
H5 O1 1_555 1_555
H6 O8 1_555 1_555
H7 O8 1_555 1_555
H8 O7 1_555 1_555
Co1C O2 1_555 1_555
Co1_2 O3 1_555 1_555
O2C Co1 1_555 1_555
O3_2 Co1 1_555 1_555
C3 C4 1_555 1_555

#END
