
#######################################################################
#
#                 Cambridge Crystallographic Data Centre
#                                CCDC 
#
#######################################################################
#
# If this CIF has been generated from an entry in the Cambridge 
# Structural Database, then it will include bibliographic, chemical, 
# crystal, experimental, refinement or atomic coordinate data resulting 
# from the CCDC's data processing and validation procedures.
#
#######################################################################

data_WANSUA
_symmetry_cell_setting           monoclinic
_symmetry_space_group_name_H-M   'P 21/n'
_symmetry_Int_Tables_number      14
_space_group_name_Hall           '-P 2yn'
loop_
_symmetry_equiv_pos_site_id
_symmetry_equiv_pos_as_xyz
1 x,y,z
2 1/2-x,1/2+y,1/2-z
3 -x,-y,-z
4 1/2+x,1/2-y,1/2+z
_cell_length_a                   10.214(2)
_cell_length_b                   7.1250(14)
_cell_length_c                   14.425(3)
_cell_angle_alpha                90
_cell_angle_beta                 99.98(3)
_cell_angle_gamma                90
_cell_volume                     1033.89
loop_
_atom_site_label
_atom_site_type_symbol
_atom_site_fract_x
_atom_site_fract_y
_atom_site_fract_z
Cu1 Cu 1.0000 0.5000 1.0000
O1 O 1.1279(3) 0.7061(4) 0.93880(17)
H1 H 1.1478 0.7166 0.8842
H2 H 1.1426 0.8239 0.9660
O2 O 0.9273(2) 0.7255(3) 1.05937(15)
H3 H 0.8585 0.7031 1.0833
H4 H 0.9144 0.8312 1.0320
N1 N 0.8543(3) 0.5195(3) 0.88501(19)
N2 N 0.9283(3) 0.5826(5) 0.60375(18)
H5 H 0.9877 0.6137 0.6511
O3 O 0.7176(3) 0.4881(3) 0.55451(18)
C1 C 0.7822(3) 0.5343(4) 0.7184(2)
C2 C 0.8804(3) 0.5184(4) 0.7967(2)
H6 H 0.9682 0.5066 0.7881
C3 C 0.7279(3) 0.5354(5) 0.8973(2)
H7 H 0.7093 0.5369 0.9581
C4 C 0.6241(3) 0.5498(5) 0.8221(2)
H8 H 0.5370 0.5609 0.8324
C5 C 0.6514(3) 0.5477(5) 0.7314(2)
H9 H 0.5828 0.5551 0.6799
C6 C 0.8086(3) 0.5321(4) 0.6190(2)
C7 C 0.9628(4) 0.5873(6) 0.5094(2)
H10 H 1.0173 0.6967 0.5037
H11 H 0.8822 0.5978 0.4630
Cu1_2 Cu 1.0000 0.5000 0.0000
O1B O 0.8721(3) 0.2939(4) 1.06120(17)
H1B H 0.8522 0.2834 1.1158
H2B H 0.8574 0.1761 1.0340
O2B O 1.0727(2) 0.2745(3) 0.94063(15)
H3B H 1.1415 0.2969 0.9167
H4B H 1.0856 0.1688 0.9680
N1B N 1.1457(3) 0.4805(3) 0.11499(19)
N1B_2 N 1.1457(3) 0.4805(3) 1.11499(19)
N2B N 1.0717(3) 0.4174(5) 0.39625(18)
H5B H 1.0123 0.3863 0.3489
O3B O 1.2824(3) 0.5119(3) 0.44549(18)
C1B C 1.2178(3) 0.4657(4) 0.2816(2)
C2B C 1.1196(3) 0.4816(4) 0.2033(2)
H6B H 1.0318 0.4934 0.2119
C3B C 1.2721(3) 0.4646(5) 0.1027(2)
H7B H 1.2907 0.4631 0.0419
C4B C 1.3759(3) 0.4502(5) 0.1779(2)
H8B H 1.4630 0.4391 0.1676
C5B C 1.3486(3) 0.4523(5) 0.2686(2)
H9B H 1.4172 0.4449 0.3201
C6B C 1.1914(3) 0.4679(4) 0.3810(2)
C7B C 1.0372(4) 0.4127(6) 0.4906(2)
H10B H 0.9827 0.3033 0.4963
H11B H 1.1178 0.4022 0.5370
N3 N 0.2785(3) 0.3061(5) 0.7808(2)
O4 O 0.2923(3) 0.3240(7) 0.8678(2)
O5 O 0.1690(3) 0.3224(7) 0.7314(3)
O6 O 0.3794(3) 0.2741(5) 0.74633(18)
loop_
_geom_bond_atom_site_label_1
_geom_bond_atom_site_label_2
_geom_bond_site_symmetry_1
_geom_bond_site_symmetry_2
Cu1 O1 1_555 1_555
O1 H1 1_555 1_555
H2 O1 1_555 1_555
O2 Cu1 1_555 1_555
H3 O2 1_555 1_555
H4 O2 1_555 1_555
N1 Cu1 1_555 1_555
N2 H5 1_555 1_555
O3 C6 1_555 1_555
N3 O4 1_555 1_555
O5 N3 1_555 1_555
O6 N3 1_555 1_555
C1 C2 1_555 1_555
C2 N1 1_555 1_555
H6 C2 1_555 1_555
C3 N1 1_555 1_555
H7 C3 1_555 1_555
C4 C3 1_555 1_555
H8 C4 1_555 1_555
C5 C1 1_555 1_555
H9 C5 1_555 1_555
C6 N2 1_555 1_555
C7 N2 1_555 1_555
H10 C7 1_555 1_555
H11 C7 1_555 1_555
Cu1_2 N1B 1_555 1_555
O1B Cu1 1_555 1_555
H1B O1B 1_555 1_555
H2B O1B 1_555 1_555
O2B Cu1 1_555 1_555
H3B O2B 1_555 1_555
H4B O2B 1_555 1_555
N1B C2B 1_555 1_555
N1B_2 Cu1 1_555 1_555
N2B H5B 1_555 1_555
O3B C6B 1_555 1_555
C1B C2B 1_555 1_555
C2B H6B 1_555 1_555
C3B N1B 1_555 1_555
H7B C3B 1_555 1_555
C4B C3B 1_555 1_555
H8B C4B 1_555 1_555
C5B C1B 1_555 1_555
H9B C5B 1_555 1_555
C6B N2B 1_555 1_555
C7B C7 1_555 1_555
H10B C7B 1_555 1_555
H11B C7B 1_555 1_555
C1 C6 1_555 1_555
C4 C5 1_555 1_555
N2B C7B 1_555 1_555
C1B C6B 1_555 1_555
C4B C5B 1_555 1_555

#END
