
#######################################################################
#
#                 Cambridge Crystallographic Data Centre
#                                CCDC 
#
#######################################################################
#
# If this CIF has been generated from an entry in the Cambridge 
# Structural Database, then it will include bibliographic, chemical, 
# crystal, experimental, refinement or atomic coordinate data resulting 
# from the CCDC's data processing and validation procedures.
#
#######################################################################

data_WANSIO
_symmetry_cell_setting           monoclinic
_symmetry_space_group_name_H-M   'C 2/m'
_symmetry_Int_Tables_number      12
_space_group_name_Hall           '-C 2y'
loop_
_symmetry_equiv_pos_site_id
_symmetry_equiv_pos_as_xyz
1 x,y,z
2 1/2+x,1/2+y,z
3 -x,y,-z
4 1/2-x,1/2+y,-z
5 -x,-y,-z
6 1/2-x,1/2-y,-z
7 x,-y,z
8 1/2+x,1/2-y,z
_cell_length_a                   9.6490(19)
_cell_length_b                   15.559(3)
_cell_length_c                   15.163(3)
_cell_angle_alpha                90
_cell_angle_beta                 91.96(3)
_cell_angle_gamma                90
_cell_volume                     2275.07
loop_
_atom_site_label
_atom_site_type_symbol
_atom_site_fract_x
_atom_site_fract_y
_atom_site_fract_z
I1 I 0.84273(7) -0.5000 -0.11329(4)
Cu1 Cu 0.89375(13) -0.5000 0.05677(7)
O1 O 0.9502(4) -0.2973(4) 0.3531(3)
N1 N 0.8065(6) -0.3910(3) 0.1118(3)
N2 N 0.7437(5) -0.2383(4) 0.3780(3)
H1 H 0.6631 -0.2259 0.3557
C1 C 0.7832(6) -0.2961(4) 0.2345(4)
C2 C 0.8443(7) -0.3659(4) 0.1927(4)
H2 H 0.9145 -0.3960 0.2228
C3 C 0.7083(8) -0.3437(5) 0.0681(4)
H3 H 0.6814 -0.3592 0.0109
C4 C 0.6476(9) -0.2738(6) 0.1054(4)
H4 H 0.5792 -0.2434 0.0739
C5 C 0.6870(7) -0.2482(5) 0.1888(4)
H5 H 0.6490 -0.1994 0.2137
C6 C 0.8354(5) -0.2767(4) 0.3282(3)
C7 C 0.7765(7) -0.2167(5) 0.4699(4)
H6 H 0.7354 -0.1616 0.4837
H7 H 0.8762 -0.2116 0.4788
I1D I 1.15727(7) -0.5000 0.11329(4)
Cu1D Cu 1.10625(13) -0.5000 -0.05677(7)
Cu1E Cu 0.60625(13) 0.0000 0.94323(7)
O1E O 0.5498(4) -0.2027(4) 0.6469(3)
N1E N 0.6935(6) -0.1090(3) 0.8882(3)
N1F N 0.8065(6) -0.6090(3) 0.1118(3)
N2E N 0.7563(5) -0.2617(4) 0.6220(3)
H1E H 0.8369 -0.2741 0.6443
C1E C 0.7168(6) -0.2039(4) 0.7655(4)
C2E C 0.6557(7) -0.1341(4) 0.8073(4)
H2E H 0.5855 -0.1040 0.7772
C3E C 0.7917(8) -0.1563(5) 0.9319(4)
H3E H 0.8186 -0.1408 0.9891
C4E C 0.8524(9) -0.2262(6) 0.8946(4)
H4E H 0.9208 -0.2566 0.9261
C5E C 0.8130(7) -0.2518(5) 0.8112(4)
H5E H 0.8510 -0.3006 0.7863
C6E C 0.6646(5) -0.2233(4) 0.6718(3)
C7E C 0.7235(7) -0.2833(5) 0.5301(4)
H6E H 0.7646 -0.3384 0.5163
H7E H 0.6238 -0.2884 0.5212
loop_
_geom_bond_atom_site_label_1
_geom_bond_atom_site_label_2
_geom_bond_site_symmetry_1
_geom_bond_site_symmetry_2
I1 Cu1 1_555 1_555
Cu1 N1 1_555 1_555
O1 C6 1_555 1_555
N1 C2 1_555 1_555
N2 H1 1_555 1_555
C1 C2 1_555 1_555
C2 H2 1_555 1_555
C3 N1 1_555 1_555
H3 C3 1_555 1_555
C4 C3 1_555 1_555
H4 C4 1_555 1_555
C5 C1 1_555 1_555
H5 C5 1_555 1_555
C6 N2 1_555 1_555
C7 N2 1_555 1_555
H6 C7 1_555 1_555
H7 C7 1_555 1_555
I1D Cu1 1_555 1_555
Cu1D I1 1_555 1_555
Cu1E N1E 1_555 1_555
O1E C6E 1_555 1_555
N1E C2E 1_555 1_555
N1F Cu1 1_555 1_555
N2E H1E 1_555 1_555
C1E C2E 1_555 1_555
C2E H2E 1_555 1_555
C3E N1E 1_555 1_555
H3E C3E 1_555 1_555
C4E C3E 1_555 1_555
H4E C4E 1_555 1_555
C5E C1E 1_555 1_555
H5E C5E 1_555 1_555
C6E N2E 1_555 1_555
C7E C7 1_555 1_555
H6E C7E 1_555 1_555
H7E C7E 1_555 1_555
C1 C6 1_555 1_555
C4 C5 1_555 1_555
I1D Cu1D 1_555 1_555
N2E C7E 1_555 1_555
C1E C6E 1_555 1_555
C4E C5E 1_555 1_555

#END
