
#######################################################################
#
#                 Cambridge Crystallographic Data Centre
#                                CCDC 
#
#######################################################################
#
# If this CIF has been generated from an entry in the Cambridge 
# Structural Database, then it will include bibliographic, chemical, 
# crystal, experimental, refinement or atomic coordinate data resulting 
# from the CCDC's data processing and validation procedures.
#
#######################################################################

data_WANTUC
_symmetry_cell_setting           monoclinic
_symmetry_space_group_name_H-M   'C 2/c'
_symmetry_Int_Tables_number      15
_space_group_name_Hall           '-C 2yn'
loop_
_symmetry_equiv_pos_site_id
_symmetry_equiv_pos_as_xyz
1 x,y,z
2 -x,y,1/2-z
3 1/2+x,1/2+y,z
4 1/2-x,1/2+y,1/2-z
5 -x,-y,-z
6 x,-y,1/2+z
7 1/2-x,1/2-y,-z
8 1/2+x,1/2-y,1/2+z
_cell_length_a                   23.493(4)
_cell_length_b                   13.745(2)
_cell_length_c                   14.021(3)
_cell_angle_alpha                90
_cell_angle_beta                 115.996(3)
_cell_angle_gamma                90
_cell_volume                     4069.46
loop_
_atom_site_label
_atom_site_type_symbol
_atom_site_fract_x
_atom_site_fract_y
_atom_site_fract_z
C1 C 1.05173(16) 0.9041(3) 0.9355(3)
H1 H 1.0844 0.8608 0.9727
C2 C 0.99154(17) 0.8695(3) 0.8660(3)
O1 O 1.07077(13) 0.2847(2) 0.9547(2)
H2 H 1.1006 0.2476 0.9860
O2 O 1.14494(12) 0.39676(19) 1.0277(2)
C3 C 0.94047(17) 0.5750(3) 0.8152(3)
H3 H 0.9077 0.6192 0.7817
Co1 Co 0.74119(2) 0.41715(4) 0.62937(4)
C4 C 0.97753(16) 0.4117(3) 0.8533(3)
H4 H 0.9697 0.3452 0.8443
O3 O 0.81865(11) 0.50209(17) 0.69770(19)
C5 C 0.92861(16) 0.4765(3) 0.8020(3)
C6 C 0.95376(16) 1.0330(3) 0.8232(3)
O4 O 1.13795(11) 1.13013(18) 1.03433(19)
N1 N 0.73963(14) 0.3563(2) 0.7625(2)
O5 O 1.17112(11) 0.98038(17) 1.06718(19)
C7 C 0.86322(17) 0.4394(3) 0.7340(3)
C8 C 1.04996(17) 0.5430(3) 0.9300(3)
H5 H 1.0906 0.5656 0.9727
O6 O 0.85195(12) 0.35134(18) 0.71348(19)
O7 O 0.74628(13) 0.3713(2) 0.4978(2)
O8 O 0.91732(14) 1.1917(2) 0.7916(3)
H6 H 0.8877 1.2276 0.7561
C9 C 1.12662(17) 1.0405(3) 1.0203(3)
C10 C 1.03831(16) 0.4444(3) 0.9180(3)
C11 C 1.06198(15) 1.0031(3) 0.9479(3)
C12 C 1.01324(16) 1.0667(2) 0.8934(3)
H7 H 1.0202 1.1333 0.9038
C13 C 0.94327(17) 0.9344(3) 0.8100(3)
H8 H 0.9036 0.9111 0.7632
C14 C 0.90207(18) 1.1024(3) 0.7619(3)
N2 N 1.01856(15) 0.7095(2) 0.8970(2)
C15 C 1.00133(17) 0.6086(3) 0.8786(3)
C16 C 0.7583(2) 0.4056(3) 0.8512(3)
H9 H 0.7694 0.4704 0.8506
C17 C 0.74763(17) 0.2730(3) 0.9500(3)
N3 N 0.97524(15) 0.7684(2) 0.8477(2)
C18 C 1.09069(18) 0.3741(3) 0.9728(3)
C19 C 0.7627(2) 0.3681(3) 0.9442(3)
H10 H 0.7759 0.4075 1.0040
C20 C 0.7286(3) 0.2208(3) 0.8577(3)
H11 H 0.7189 0.1551 0.8570
C21 C 0.7237(3) 0.2645(3) 0.7669(3)
H12 H 0.7085 0.2279 0.7049
O9 O 0.85178(12) 1.0784(2) 0.6922(2)
H13 H 0.7813(9) 0.362(3) 0.490(3)
H14 H 0.7140(10) 0.373(3) 0.4336(15)
C1G C 0.55173(16) 0.5959(3) 0.4355(3)
H1G H 0.5844 0.6392 0.4727
C2G C 0.49154(17) 0.6305(3) 0.3660(3)
O1G O 0.57077(13) 1.2153(2) 0.4547(2)
H2G H 0.6006 1.2524 0.4860
O2G O 0.64494(12) 1.10324(19) 0.5277(2)
C3G C 0.44047(17) 0.9250(3) 0.3152(3)
H3G H 0.4077 0.8808 0.2817
Co1G Co 0.24119(2) 1.08285(4) 0.12937(4)
Co1G_2 Co 1.24119(2) 1.08285(4) 1.12937(4)
Co1F Co 0.75881(2) 0.08285(4) 1.37063(4)
C4G C 0.47753(16) 1.0883(3) 0.3533(3)
H4G H 0.4697 1.1548 0.3443
O3G O 0.31865(11) 0.99791(17) 0.19770(19)
C5G C 0.42861(16) 1.0235(3) 0.3020(3)
C6G C 0.45376(16) 0.4670(3) 0.3232(3)
O4G O 0.63795(11) 0.36987(18) 0.53433(19)
O4_2 O 0.13795(11) 1.13013(18) 0.03433(19)
N1F N 0.76037(14) 0.1437(2) 1.2375(2)
N1G N 0.23963(14) 1.1437(2) 0.2625(2)
O5G O 0.67112(11) 0.51962(17) 0.56718(19)
O5_2 O 0.17112(11) 0.98038(17) 0.06718(19)
C7G C 0.36322(17) 1.0606(3) 0.2340(3)
C8G C 0.54996(17) 0.9570(3) 0.4300(3)
H5G H 0.5906 0.9344 0.4727
O6G O 0.35195(12) 1.14866(18) 0.21348(19)
O7G O 0.24628(13) 1.1287(2) -0.0022(2)
O8G O 0.41732(14) 0.3083(2) 0.2916(3)
H6G H 0.3877 0.2724 0.2561
C9G C 0.62662(17) 0.4595(3) 0.5203(3)
C10G C 0.53831(16) 1.0556(3) 0.4180(3)
C11G C 0.56198(15) 0.4969(3) 0.4479(3)
C12G C 0.51324(16) 0.4333(2) 0.3934(3)
H7G H 0.5202 0.3667 0.4038
C13G C 0.44327(17) 0.5656(3) 0.3100(3)
H8G H 0.4036 0.5889 0.2632
C14G C 0.40207(18) 0.3976(3) 0.2619(3)
N2G N 0.51856(15) 0.7905(2) 0.3970(2)
C15G C 0.50133(17) 0.8914(3) 0.3786(3)
C16F C 0.7417(2) 0.0944(3) 1.1488(3)
H9F H 0.7306 0.0296 1.1494
C17F C 0.75237(17) 0.2270(3) 1.0500(3)
N3G N 0.47524(15) 0.7316(2) 0.3477(2)
C18G C 0.59069(18) 1.1259(3) 0.4728(3)
C19F C 0.7373(2) 0.1319(3) 1.0558(3)
H10F H 0.7241 0.0925 0.9960
C20F C 0.7714(3) 0.2792(3) 1.1423(3)
H11F H 0.7811 0.3449 1.1430
C21F C 0.7763(3) 0.2355(3) 1.2331(3)
H12F H 0.7915 0.2721 1.2951
O9G O 0.35178(12) 0.4216(2) 0.1922(2)
H13G H 0.2813(9) 1.138(3) -0.010(3)
H14G H 0.2140(10) 1.127(3) -0.0664(15)
loop_
_geom_bond_atom_site_label_1
_geom_bond_atom_site_label_2
_geom_bond_site_symmetry_1
_geom_bond_site_symmetry_2
C1 H1 1_555 1_555
C2 C1 1_555 1_555
O1 H2 1_555 1_555
O2 C18 1_555 1_555
C3 H3 1_555 1_555
Co1 O3 1_555 1_555
C4 H4 1_555 1_555
O3 C7 1_555 1_555
C5 C3 1_555 1_555
C6 C12 1_555 1_555
O4 C9 1_555 1_555
N1 Co1 1_555 1_555
O5 C9 1_555 1_555
C7 C5 1_555 1_555
C8 H5 1_555 1_555
O6 C7 1_555 1_555
O7 Co1 1_555 1_555
O8 H6 1_555 1_555
C9 C11 1_555 1_555
C10 C4 1_555 1_555
C11 C1 1_555 1_555
C12 C11 1_555 1_555
H7 C12 1_555 1_555
C13 C2 1_555 1_555
H8 C13 1_555 1_555
C14 C6 1_555 1_555
N2 C15 1_555 1_555
C15 C3 1_555 1_555
C16 N1 1_555 1_555
H9 C16 1_555 1_555
C17 C19 1_555 1_555
N3 C2 1_555 1_555
C18 O1 1_555 1_555
C19 C16 1_555 1_555
H10 C19 1_555 1_555
C20 C17 1_555 1_555
H11 C20 1_555 1_555
C21 N1 1_555 1_555
H12 C21 1_555 1_555
O9 C14 1_555 1_555
H13 O7 1_555 1_555
H14 O7 1_555 1_555
C1G H1G 1_555 1_555
C2G C1G 1_555 1_555
O1G H2G 1_555 1_555
O2G C18G 1_555 1_555
C3G H3G 1_555 1_555
Co1G O3G 1_555 1_555
Co1G_2 O4 1_555 1_555
Co1F N1F 1_555 1_555
C4G H4G 1_555 1_555
O3G C7G 1_555 1_555
C5G C3G 1_555 1_555
C6G C12G 1_555 1_555
O4G Co1 1_555 1_555
O4_2 Co1G 1_555 1_555
N1F C16F 1_555 1_555
N1G Co1G 1_555 1_555
O5G Co1 1_555 1_555
O5_2 Co1G 1_555 1_555
C7G C5G 1_555 1_555
C8G H5G 1_555 1_555
O6G C7G 1_555 1_555
O7G Co1G 1_555 1_555
O8G H6G 1_555 1_555
C9G O4G 1_555 1_555
C10G C4G 1_555 1_555
C11G C1G 1_555 1_555
C12G C11G 1_555 1_555
H7G C12G 1_555 1_555
C13G C2G 1_555 1_555
H8G C13G 1_555 1_555
C14G C6G 1_555 1_555
N2G C15G 1_555 1_555
C15G C3G 1_555 1_555
C16F H9F 1_555 1_555
C17F C17 1_555 1_555
N3G C2G 1_555 1_555
C18G O1G 1_555 1_555
C19F C16F 1_555 1_555
H10F C19F 1_555 1_555
C20F C17F 1_555 1_555
H11F C20F 1_555 1_555
C21F N1F 1_555 1_555
H12F C21F 1_555 1_555
O9G C14G 1_555 1_555
H13G O7G 1_555 1_555
H14G O7G 1_555 1_555
C4 C5 1_555 1_555
C6 C13 1_555 1_555
O5 Co1G_2 1_555 1_555
C8 C10 1_555 1_555
C8 C15 1_555 1_555
O8 C14 1_555 1_555
C10 C18 1_555 1_555
N2 N3 1_555 1_555
C20 C21 1_555 1_555
C4G C5G 1_555 1_555
C6G C13G 1_555 1_555
O5G C9G 1_555 1_555
C8G C10G 1_555 1_555
C8G C15G 1_555 1_555
O8G C14G 1_555 1_555
C9G C11G 1_555 1_555
C10G C18G 1_555 1_555
N2G N3G 1_555 1_555
C17F C19F 1_555 1_555
C20F C21F 1_555 1_555

#END
