
#######################################################################
#
#                 Cambridge Crystallographic Data Centre
#                                CCDC 
#
#######################################################################
#
# If this CIF has been generated from an entry in the Cambridge 
# Structural Database, then it will include bibliographic, chemical, 
# crystal, experimental, refinement or atomic coordinate data resulting 
# from the CCDC's data processing and validation procedures.
#
#######################################################################

data_WANWAL02
_symmetry_cell_setting           orthorhombic
_symmetry_space_group_name_H-M   'P n a 21'
_symmetry_Int_Tables_number      33
_space_group_name_Hall           'P 2c -2n'
loop_
_symmetry_equiv_pos_site_id
_symmetry_equiv_pos_as_xyz
1 x,y,z
2 -x,-y,1/2+z
3 1/2-x,1/2+y,1/2+z
4 1/2+x,1/2-y,z
_cell_length_a                   17.196(3)
_cell_length_b                   12.963(2)
_cell_length_c                   32.342(6)
_cell_angle_alpha                90
_cell_angle_beta                 90
_cell_angle_gamma                90
_cell_volume                     7209.41
loop_
_atom_site_label
_atom_site_type_symbol
_atom_site_fract_x
_atom_site_fract_y
_atom_site_fract_z
Ir1 Ir 0.978657(18) 0.743554(15) 0.087512(7)
Ir2 Ir 0.507701(17) 0.741965(15) 0.371957(7)
Zn1 Zn 0.73578(5) 0.23688(4) 0.22965(3)
C1 C 0.9336(4) 0.5771(5) 0.0263(2)
H1 H 0.8955 0.5582 0.0462
C2 C 0.8338(4) 1.0079(5) 0.0761(2)
H2 H 0.8276 1.0691 0.0919
C3 C 0.8003(4) 0.9052(6) 0.0167(2)
H3 H 0.7691 0.8960 -0.0072
C4 C 0.8549(4) 0.8297(5) 0.02783(19)
H4 H 0.8619 0.7705 0.0109
C5 C 0.7917(4) 0.9937(6) 0.0407(2)
H5 H 0.7557 1.0452 0.0323
C6 C 0.9302(4) 0.9347(5) 0.1275(2)
C7 C 0.7010(4) 0.5441(5) 0.33112(19)
H6 H 0.7560 0.5424 0.3340
C8 C 0.9391(4) 0.5233(6) -0.0113(2)
H7 H 0.9059 0.4664 -0.0169
C9 C 0.9922(5) 0.5541(7) -0.0393(3)
H8 H 0.9944 0.5211 -0.0655
C10 C 0.8869(3) 0.9300(4) 0.08897(17)
C11 C 1.0437(5) 0.6332(5) -0.0304(2)
H9 H 1.0821 0.6527 -0.0499
C12 C 0.5623(4) 0.6293(5) 0.4911(2)
H10 H 0.5972 0.6512 0.5121
C13 C 0.7737(3) 0.5836(5) 0.14201(17)
H11 H 0.7189 0.5924 0.1426
C14 C 0.8206(3) 0.6529(4) 0.12109(18)
H12 H 0.7967 0.7088 0.1070
C15 C 1.1313(4) 0.6332(5) 0.11356(19)
H13 H 1.1566 0.6870 0.0989
C16 C 0.7560(4) 0.4221(5) 0.1838(2)
C17 C 0.6777(4) 0.7987(5) 0.4646(2)
H14 H 0.6893 0.7654 0.4900
C18 C 1.1754(4) 0.9340(5) 0.0489(2)
H15 H 1.2046 0.9915 0.0584
C19 C 1.1092(4) 0.9021(5) 0.07090(19)
H16 H 1.0945 0.9389 0.0951
C20 C 1.1990(4) 0.8818(5) 0.0128(2)
H17 H 1.2442 0.9027 -0.0019
C21 C 0.8088(3) 0.5007(4) 0.16210(18)
C22 C 1.0886(5) 0.7686(5) 0.0206(2)
C23 C 0.9308(4) 1.0131(5) 0.1560(2)
H18 H 0.8994 1.0724 0.1515
C24 C 1.0245(4) 0.9238(5) 0.1967(2)
H19 H 1.0584 0.9208 0.2198
C25 C 1.1886(4) 0.3901(5) 0.1698(2)
C26 C 1.1752(4) 0.5572(5) 0.13040(19)
H20 H 1.2302 0.5592 0.1276
C27 C 1.0612(3) 0.4785(4) 0.15546(17)
H21 H 1.0355 0.4253 0.1704
C28 C 1.0221(4) 0.8455(5) 0.16788(19)
H22 H 1.0535 0.7862 0.1722
C29 C 0.8868(4) 0.4915(4) 0.16071(18)
H23 H 0.9112 0.4355 0.1745
C30 C 1.1403(4) 0.4768(5) 0.15163(18)
C31 C 0.9754(5) 1.0074(6) 0.1904(2)
H24 H 0.9731 1.0609 0.2104
C32 C 1.0180(3) 0.5576(5) 0.13759(19)
C33 C 0.9327(4) 0.5636(5) 0.13919(18)
C34 C 0.9774(3) 0.8495(5) 0.13400(16)
C35 C 0.7066(4) 0.9258(5) 0.4150(2)
H25 H 0.7389 0.9805 0.4056
C36 C 0.6411(4) 0.8964(5) 0.39103(18)
H26 H 0.6293 0.9333 0.3664
C37 C 0.4627(4) 0.5172(6) 0.4679(2)
H27 H 0.4292 0.4597 0.4718
C38 C 0.5607(4) 0.6804(4) 0.45396(18)
C39 C 0.7240(4) 0.8773(5) 0.4509(2)
H28 H 0.7682 0.8977 0.4665
C40 C 0.5136(4) 0.5460(7) 0.4982(2)
H29 H 0.5154 0.5098 0.5238
C41 C 0.4606(4) 0.5727(5) 0.43141(19)
H30 H 0.4247 0.5529 0.4105
C42 C 0.6131(4) 0.7671(4) 0.4414(2)
C43 C 0.3808(4) 0.8373(5) 0.42605(19)
H31 H 0.3823 0.7772 0.4428
C44 C 0.5075(3) 0.6536(4) 0.42448(18)
C45 C 0.4726(4) 0.9357(5) 0.33032(18)
C46 C 0.6564(4) 0.6221(5) 0.34930(17)
H32 H 0.6815 0.6726 0.3659
C47 C 0.5577(4) 0.8353(5) 0.29018(16)
H33 H 0.5846 0.7722 0.2860
C48 C 0.5652(4) 0.9129(5) 0.26149(18)
H34 H 0.5972 0.9035 0.2378
C49 C 0.3281(4) 0.9172(5) 0.43545(19)
H35 H 0.2939 0.9097 0.4583
C50 C 0.6615(4) 0.4689(4) 0.30848(17)
C51 C 0.4245(3) 0.9361(4) 0.36785(16)
C52 C 0.4794(4) 1.0151(5) 0.30194(18)
H36 H 0.4516 1.0774 0.3064
C53 C 0.3253(4) 1.0059(5) 0.41214(19)
H37 H 0.2908 1.0601 0.4194
C54 C 0.3493(4) 0.6604(4) 0.33794(19)
H38 H 0.3280 0.7192 0.3513
C55 C 0.4112(3) 0.4951(4) 0.29766(17)
H39 H 0.4344 0.4390 0.2833
C56 C 0.3300(4) 0.5067(4) 0.29781(17)
C57 C 0.5256(4) 1.0055(6) 0.2674(2)
H40 H 0.5304 1.0606 0.2482
C58 C 0.7108(4) 0.3830(5) 0.2887(2)
C59 C 0.5416(4) 0.5555(4) 0.32102(17)
C60 C 0.4567(4) 0.5648(5) 0.31830(18)
C61 C 0.5833(3) 0.4739(4) 0.30329(17)
H41 H 0.5571 0.4224 0.2877
C62 C 0.9825(3) 0.6552(4) 0.03401(18)
C63 C 0.5124(3) 0.8465(4) 0.32460(16)
C64 C 0.2773(4) 0.4262(5) 0.2798(2)
C65 C 0.3732(4) 1.0153(5) 0.37792(17)
H42 H 0.3711 1.0758 0.3613
C66 C 1.1558(4) 0.8018(5) -0.0004(2)
H43 H 1.1713 0.7664 -0.0248
C67 C 1.0387(4) 0.6838(4) 0.00750(18)
C68 C 0.2987(4) 0.5926(5) 0.31838(19)
H44 H 0.2441 0.6042 0.3189
N1 N 0.8994(3) 0.6447(4) 0.11982(15)
N2 N 1.0538(3) 0.6356(4) 0.11676(14)
N3 N 0.4260(3) 0.6474(4) 0.33894(14)
N4 N 0.5797(3) 0.6275(4) 0.34402(14)
N5 N 0.4305(3) 0.8460(5) 0.39247(18)
N6 N 1.0646(3) 0.8183(4) 0.05844(19)
N7 N 0.5931(3) 0.8131(5) 0.40316(18)
N8 N 0.8986(3) 0.8417(5) 0.06369(18)
O1 O 1.2542(3) 0.3763(4) 0.15672(19)
O2 O 1.1550(2) 0.3384(3) 0.19840(12)
O3 O 0.2087(3) 0.4270(4) 0.28979(17)
O4 O 0.7937(3) 0.3412(3) 0.19743(14)
O5 O 0.3090(2) 0.3647(3) 0.25355(13)
O6 O 0.6706(3) 0.3145(3) 0.26957(13)
O7 O 0.7810(3) 0.3876(4) 0.29158(16)
O8 O 0.6888(3) 0.4388(5) 0.1875(2)
Zn1C Zn 0.23578(5) 0.26312(4) 0.22965(3)
Zn1C_2 Zn 1.23578(5) 0.26312(4) 0.22965(3)
O2C O 0.6550(2) 0.1616(3) 0.19840(12)
O5C O 0.8090(2) 0.1353(3) 0.25355(13)
C69 C 0.2006(5) 0.2786(6) 0.3885(2)
H45 H 0.2184 0.3305 0.3700
C70 C 0.0939(5) 0.1648(6) 0.4116(2)
H46 H 0.1345 0.1400 0.4304
H47 H 0.0753 0.1075 0.3945
H48 H 0.0506 0.1930 0.4277
C71 C 0.0749(5) 0.2916(7) 0.3543(2)
H49 H 0.1030 0.3439 0.3384
H50 H 0.0307 0.3239 0.3685
H51 H 0.0559 0.2376 0.3357
N9 N 0.1264(5) 0.2467(4) 0.3845(2)
O9 O 0.2469(5) 0.2459(4) 0.4140(2)
C72 C 0.1911(7) 0.1785(9) 0.7143(3)
H52 H 0.2407 0.1477 0.7060
H53 H 0.1578 0.1866 0.6899
H54 H 0.1653 0.1336 0.7344
C73 C 0.1422(9) 0.3335(15) 0.7462(4)
H55 H 0.1627 0.3984 0.7573
H56 H 0.1146 0.2963 0.7681
H57 H 0.1063 0.3483 0.7235
C74 C 0.2801(7) 0.3101(8) 0.7316(3)
H58 H 0.2890 0.3776 0.7420
N10 N 0.2043(5) 0.2723(7) 0.7315(3)
O10 O 0.3326(6) 0.2638(6) 0.7196(4)
C75 C 0.4131(7) 0.6912(8) 0.6085(3)
H59 H 0.4556 0.7042 0.6280
H60 H 0.4141 0.6186 0.6000
H61 H 0.3633 0.7066 0.6218
C76 C 0.4891(7) 0.8003(12) 0.5703(3)
H62 H 0.4979 0.8427 0.5468
C77 C 0.3694(16) 0.7455(12) 0.5424(6)
H63 H 0.3832 0.7936 0.5202
H64 H 0.3173 0.7621 0.5528
H65 H 0.3697 0.6748 0.5316
N11 N 0.4224(9) 0.7538(5) 0.5739(3)
O11 O 0.5442(7) 0.7910(10) 0.5976(3)
O12 O 0.2900(7) 0.2090(8) 0.0913(3)
H66 H 0.3393 0.2116 0.0922
H67 H 0.2631 0.2371 0.1103
O13 O 0.5098(3) 0.2733(4) 0.2550(2)
H68 H 0.5592 0.2757 0.2550
H69 H 0.4860 0.2379 0.2369
O14 O 0.4010(5) 0.2474(3) 0.3200(2)
H70 H 0.3582 0.2762 0.3262
H71 H 0.4167 0.2474 0.2951
O15 O 0.4382(4) 0.2419(4) 0.1802(2)
H72 H 0.3982 0.2763 0.1871
H73 H 0.4453 0.2251 0.1551
O16 O 0.3789(4) 0.3685(5) 0.39227(17)
H74 H 0.4136 0.3570 0.3741
H75 H 0.3437 0.3239 0.3969
loop_
_geom_bond_atom_site_label_1
_geom_bond_atom_site_label_2
_geom_bond_site_symmetry_1
_geom_bond_site_symmetry_2
Ir1 C34 1_555 1_555
Ir2 C44 1_555 1_555
Zn1 O4 1_555 1_555
C1 H1 1_555 1_555
C2 H2 1_555 1_555
C3 H3 1_555 1_555
C4 C3 1_555 1_555
H4 C4 1_555 1_555
C5 C2 1_555 1_555
H5 C5 1_555 1_555
C6 C10 1_555 1_555
C7 H6 1_555 1_555
C8 C1 1_555 1_555
H7 C8 1_555 1_555
C9 C8 1_555 1_555
H8 C9 1_555 1_555
C10 C2 1_555 1_555
C11 C9 1_555 1_555
H9 C11 1_555 1_555
C12 H10 1_555 1_555
C13 H11 1_555 1_555
C14 C13 1_555 1_555
H12 C14 1_555 1_555
C15 H13 1_555 1_555
C16 C21 1_555 1_555
C17 H14 1_555 1_555
C18 H15 1_555 1_555
C19 C18 1_555 1_555
H16 C19 1_555 1_555
C20 C18 1_555 1_555
H17 C20 1_555 1_555
C21 C13 1_555 1_555
C22 C66 1_555 1_555
C23 C6 1_555 1_555
H18 C23 1_555 1_555
C24 H19 1_555 1_555
C25 C30 1_555 1_555
C26 C15 1_555 1_555
H20 C26 1_555 1_555
C27 H21 1_555 1_555
C28 C24 1_555 1_555
H22 C28 1_555 1_555
C29 C21 1_555 1_555
H23 C29 1_555 1_555
C30 C26 1_555 1_555
C31 C23 1_555 1_555
H24 C31 1_555 1_555
C32 C27 1_555 1_555
C33 C29 1_555 1_555
C34 C6 1_555 1_555
C35 H25 1_555 1_555
C36 C35 1_555 1_555
H26 C36 1_555 1_555
C37 H27 1_555 1_555
C38 C12 1_555 1_555
C39 C17 1_555 1_555
H28 C39 1_555 1_555
C40 C12 1_555 1_555
H29 C40 1_555 1_555
C41 C37 1_555 1_555
H30 C41 1_555 1_555
C42 C17 1_555 1_555
C43 H31 1_555 1_555
C44 C38 1_555 1_555
C45 C51 1_555 1_555
C46 C7 1_555 1_555
H32 C46 1_555 1_555
C47 H33 1_555 1_555
C48 C47 1_555 1_555
H34 C48 1_555 1_555
C49 C43 1_555 1_555
H35 C49 1_555 1_555
C50 C7 1_555 1_555
C51 C65 1_555 1_555
C52 C45 1_555 1_555
H36 C52 1_555 1_555
C53 C49 1_555 1_555
H37 C53 1_555 1_555
C54 H38 1_555 1_555
C55 H39 1_555 1_555
C56 C55 1_555 1_555
C57 C48 1_555 1_555
H40 C57 1_555 1_555
C58 C50 1_555 1_555
C59 C60 1_555 1_555
C60 C55 1_555 1_555
C61 C50 1_555 1_555
H41 C61 1_555 1_555
C62 Ir1 1_555 1_555
C63 Ir2 1_555 1_555
C64 C56 1_555 1_555
C65 C53 1_555 1_555
H42 C65 1_555 1_555
C66 C20 1_555 1_555
H43 C66 1_555 1_555
C67 C11 1_555 1_555
C68 C54 1_555 1_555
H44 C68 1_555 1_555
N1 Ir1 1_555 1_555
N2 Ir1 1_555 1_555
N3 Ir2 1_555 1_555
N4 Ir2 1_555 1_555
N5 Ir2 1_555 1_555
N6 Ir1 1_555 1_555
N7 Ir2 1_555 1_555
N8 Ir1 1_555 1_555
O1 C25 1_555 1_555
O2 C25 1_555 1_555
O3 C64 1_555 1_555
O4 C16 1_555 1_555
O5 C64 1_555 1_555
O6 Zn1 1_555 1_555
O7 C58 1_555 1_555
O8 C16 1_555 1_555
C69 H45 1_555 1_555
C70 H46 1_555 1_555
H47 C70 1_555 1_555
H48 C70 1_555 1_555
C71 H49 1_555 1_555
H50 C71 1_555 1_555
H51 C71 1_555 1_555
N9 C69 1_555 1_555
O9 C69 1_555 1_555
C72 H52 1_555 1_555
H53 C72 1_555 1_555
H54 C72 1_555 1_555
C73 H55 1_555 1_555
H56 C73 1_555 1_555
H57 C73 1_555 1_555
C74 H58 1_555 1_555
N10 C72 1_555 1_555
O10 C74 1_555 1_555
C75 H59 1_555 1_555
H60 C75 1_555 1_555
H61 C75 1_555 1_555
C76 H62 1_555 1_555
C77 H63 1_555 1_555
H64 C77 1_555 1_555
H65 C77 1_555 1_555
N11 C75 1_555 1_555
O11 C76 1_555 1_555
O12 H66 1_555 1_555
H67 O12 1_555 1_555
O13 H68 1_555 1_555
H69 O13 1_555 1_555
O14 H70 1_555 1_555
H71 O14 1_555 1_555
O15 H72 1_555 1_555
H73 O15 1_555 1_555
O16 H74 1_555 1_555
H75 O16 1_555 1_555
Zn1C O5 1_555 1_555
Zn1C_2 O2 1_555 1_555
O2C Zn1 1_555 1_555
O5C Zn1 1_555 1_555
C1 C62 1_555 1_555
C3 C5 1_555 1_555
C4 N8 1_555 1_555
C10 N8 1_555 1_555
C14 N1 1_555 1_555
C15 N2 1_555 1_555
C19 N6 1_555 1_555
C22 C67 1_555 1_555
C22 N6 1_555 1_555
C24 C31 1_555 1_555
C27 C30 1_555 1_555
C28 C34 1_555 1_555
C32 C33 1_555 1_555
C32 N2 1_555 1_555
C33 N1 1_555 1_555
C35 C39 1_555 1_555
C36 N7 1_555 1_555
C37 C40 1_555 1_555
C38 C42 1_555 1_555
C41 C44 1_555 1_555
C42 N7 1_555 1_555
C43 N5 1_555 1_555
C45 C63 1_555 1_555
C46 N4 1_555 1_555
C47 C63 1_555 1_555
C51 N5 1_555 1_555
C52 C57 1_555 1_555
C54 N3 1_555 1_555
C56 C68 1_555 1_555
C58 O6 1_555 1_555
C59 C61 1_555 1_555
C59 N4 1_555 1_555
C60 N3 1_555 1_555
C62 C67 1_555 1_555
C70 N9 1_555 1_555
C71 N9 1_555 1_555
C73 N10 1_555 1_555
C74 N10 1_555 1_555
C76 N11 1_555 1_555
C77 N11 1_555 1_555

#END
