
#######################################################################
#
#                 Cambridge Crystallographic Data Centre
#                                CCDC 
#
#######################################################################
#
# If this CIF has been generated from an entry in the Cambridge 
# Structural Database, then it will include bibliographic, chemical, 
# crystal, experimental, refinement or atomic coordinate data resulting 
# from the CCDC's data processing and validation procedures.
#
#######################################################################

data_WANWAL
_symmetry_cell_setting           orthorhombic
_symmetry_space_group_name_H-M   'P n a 21'
_symmetry_Int_Tables_number      33
_space_group_name_Hall           'P 2c -2n'
loop_
_symmetry_equiv_pos_site_id
_symmetry_equiv_pos_as_xyz
1 x,y,z
2 -x,-y,1/2+z
3 1/2+x,1/2-y,z
4 1/2-x,1/2+y,1/2+z
_cell_length_a                   17.2485(2)
_cell_length_b                   12.9889(2)
_cell_length_c                   32.3990(4)
_cell_angle_alpha                90
_cell_angle_beta                 90
_cell_angle_gamma                90
_cell_volume                     7258.64
loop_
_atom_site_label
_atom_site_type_symbol
_atom_site_fract_x
_atom_site_fract_y
_atom_site_fract_z
Ir1 Ir 0.491804(17) 1.74127(2) 0.308581(9)
Ir2 Ir 0.522903(17) 0.75746(2) 0.592669(8)
Zn1 Zn 0.76447(6) 1.26376(6) 0.45037(3)
N1 N 0.4922(3) 1.6525(6) 0.2553(2)
N2 N 0.4868(3) 1.8459(5) 0.3555(2)
N3 N 0.5727(4) 1.6456(5) 0.3412(2)
N4 N 0.4199(4) 1.6264(5) 0.3360(2)
N5 N 0.5256(3) 0.6503(6) 0.5458(2)
N6 N 0.5172(4) 0.8456(5) 0.6447(2)
N7 N 0.6018(4) 0.8555(5) 0.5606(2)
N8 N 0.4480(4) 0.8639(5) 0.5631(2)
O1 O 0.6909(3) 1.3658(4) 0.42721(17)
O2 O 0.7897(3) 1.4265(5) 0.3895(2)
O3 O 0.3282(3) 1.3143(4) 0.41007(17)
O4 O 0.2186(3) 1.3859(5) 0.38793(19)
O5 O 0.7073(3) 1.1590(4) 0.48274(17)
O6 O 0.8116(4) 1.0614(5) 0.4920(2)
O7 O 0.3451(3) 1.1595(4) 0.48116(17)
O8 O 0.2483(3) 1.1268(5) 0.5254(2)
C1 C 0.4064(5) 1.8141(6) 0.2765(2)
C2 C 0.3592(5) 1.8946(6) 0.2890(3)
H1 H 0.3707 1.9300 0.3139
C3 C 0.2941(5) 1.9252(6) 0.2653(3)
H2 H 0.2620 1.9797 0.2747
C4 C 0.2772(5) 1.8758(6) 0.2285(3)
H3 H 0.2339 1.8967 0.2125
C5 C 0.3233(5) 1.7967(6) 0.2153(3)
H4 H 0.3115 1.7628 0.1902
C6 C 0.3879(5) 1.7649(5) 0.2384(3)
C7 C 0.4385(5) 1.6785(6) 0.2267(2)
C8 C 0.4362(5) 1.6260(6) 0.1895(3)
H5 H 0.4003 1.6461 0.1687
C9 C 0.4843(5) 1.5471(8) 0.1828(4)
H6 H 0.4833 1.5120 0.1571
C10 C 0.5364(5) 1.5157(7) 0.2136(3)
H7 H 0.5687 1.4572 0.2100
C11 C 0.5389(5) 1.5715(6) 0.2485(3)
H8 H 0.5753 1.5530 0.2692
C12 C 0.5685(4) 1.8455(6) 0.2878(3)
C13 C 0.6197(5) 1.8385(6) 0.2540(3)
H9 H 0.6181 1.7786 0.2371
C14 C 0.6718(5) 1.9154(6) 0.2444(3)
H10 H 0.7060 1.9071 0.2217
C15 C 0.6747(5) 2.0055(6) 0.2680(3)
H11 H 0.7091 2.0599 0.2610
C16 C 0.6259(5) 2.0131(6) 0.3018(2)
H12 H 0.6272 2.0736 0.3183
C17 C 0.5756(4) 1.9348(6) 0.3122(2)
C18 C 0.5265(4) 1.9345(6) 0.3496(2)
C19 C 0.5202(5) 2.0142(6) 0.3780(3)
H13 H 0.5493 2.0755 0.3742
C20 C 0.4713(5) 2.0051(8) 0.4122(3)
H14 H 0.4641 2.0606 0.4309
C21 C 0.4340(5) 1.9126(6) 0.4177(3)
H15 H 0.4025 1.9029 0.4414
C22 C 0.4412(5) 1.8341(6) 0.3897(2)
H16 H 0.4144 1.7711 0.3941
C23 C 0.6505(5) 1.6591(6) 0.3420(3)
H17 H 0.6722 1.7178 0.3288
C24 C 0.6988(5) 1.5905(6) 0.3613(2)
H18 H 0.7533 1.6011 0.3605
C25 C 0.6684(5) 1.5051(6) 0.3820(2)
C26 C 0.5880(5) 1.4946(6) 0.3823(3)
H19 H 0.5645 1.4391 0.3968
C27 C 0.5434(5) 1.5647(6) 0.3617(2)
C28 C 0.4558(5) 1.5552(6) 0.3585(3)
C29 C 0.4161(4) 1.4745(6) 0.3771(3)
H20 H 0.4427 1.4241 0.3929
C30 C 0.3367(5) 1.4697(6) 0.3717(2)
C31 C 0.2999(5) 1.5437(6) 0.3488(3)
H21 H 0.2454 1.5408 0.3448
C32 C 0.3425(5) 1.6217(6) 0.3317(2)
H22 H 0.3167 1.6739 0.3165
C33 C 0.7226(5) 1.4258(6) 0.4014(3)
C34 C 0.2888(5) 1.3827(6) 0.3911(2)
C35 C 0.6024(4) 0.6612(6) 0.6160(3)
C36 C 0.6461(4) 0.6701(6) 0.6523(2)
H23 H 0.6387 0.7288 0.6693
C37 C 0.6996(5) 0.5960(7) 0.6643(3)
H24 H 0.7295 0.6062 0.6886
C38 C 0.7096(5) 0.5069(6) 0.6410(3)
H25 H 0.7449 0.4552 0.6498
C39 C 0.6675(5) 0.4943(6) 0.6048(3)
H26 H 0.6737 0.4337 0.5887
C40 C 0.6157(4) 0.5718(5) 0.5921(3)
C41 C 0.5710(5) 0.5667(6) 0.5536(3)
C42 C 0.5737(5) 0.4866(6) 0.5254(3)
H27 H 0.6064 0.4289 0.5300
C43 C 0.5279(6) 0.4920(8) 0.4903(3)
H28 H 0.5291 0.4377 0.4707
C44 C 0.4803(5) 0.5763(7) 0.4838(3)
H29 H 0.4480 0.5794 0.4601
C45 C 0.4802(5) 0.6551(6) 0.5119(3)
H30 H 0.4480 0.7134 0.5076
C46 C 0.4361(4) 0.6833(6) 0.6222(3)
C47 C 0.3927(4) 0.6006(6) 0.6097(3)
H31 H 0.4077 0.5649 0.5854
C48 C 0.3270(5) 0.5665(7) 0.6313(3)
H32 H 0.2991 0.5077 0.6223
C49 C 0.3035(5) 0.6198(7) 0.6660(3)
H33 H 0.2574 0.6003 0.6800
C50 C 0.3469(5) 0.7012(6) 0.6802(3)
H34 H 0.3320 0.7363 0.7047
C51 C 0.4123(5) 0.7316(6) 0.6588(2)
C52 C 0.4614(5) 0.8178(6) 0.6724(2)
C53 C 0.4556(5) 0.8677(7) 0.7101(3)
H35 H 0.4178 0.8463 0.7296
C54 C 0.5055(6) 0.9496(10) 0.7194(4)
H36 H 0.5010 0.9857 0.7448
C55 C 0.5611(6) 0.9766(7) 0.6911(3)
H37 H 0.5965 1.0307 0.6970
C56 C 0.5653(5) 0.9241(6) 0.6536(3)
H38 H 0.6030 0.9443 0.6338
C57 C 0.6803(4) 0.8471(6) 0.5591(2)
H39 H 0.7044 0.7914 0.5731
C58 C 0.7263(4) 0.9161(6) 0.5382(3)
H40 H 0.7808 0.9062 0.5373
C59 C 0.6936(5) 0.9999(6) 0.5183(3)
C60 C 0.6134(5) 1.0083(6) 0.5193(3)
H41 H 0.5887 1.0637 0.5054
C61 C 0.5686(5) 0.9362(6) 0.5406(2)
C62 C 0.4837(4) 0.9423(7) 0.5426(3)
C63 C 0.4405(4) 1.0231(6) 0.5253(2)
H42 H 0.4660 1.0772 0.5110
C64 C 0.3608(4) 1.0237(6) 0.5292(2)
C65 C 0.3265(4) 0.9441(6) 0.5498(3)
H43 H 0.2717 0.9428 0.5526
C66 C 0.3699(5) 0.8659(6) 0.5667(3)
H44 H 0.3445 0.8121 0.5812
C67 C 0.7431(5) 1.0787(7) 0.4961(3)
C68 C 0.3139(5) 1.1094(6) 0.5109(3)
Zn1B Zn 0.26447(6) 1.23624(6) 0.45037(3)
O3B O 0.8282(3) 1.1857(4) 0.41007(17)
O7B O 0.8451(3) 1.3405(4) 0.48116(17)
O9 O 1.0449(6) 1.2988(9) 0.5844(3)
N9 N 0.9263(6) 1.2544(6) 0.6075(3)
C69 C 0.9935(7) 1.3026(11) 0.6109(4)
H45 H 1.0027 1.3424 0.6350
C70 C 0.8698(9) 1.2598(12) 0.6398(4)
H46 H 0.8688 1.1943 0.6548
H47 H 0.8186 1.2732 0.6279
H48 H 0.8835 1.3156 0.6589
C71 C 0.9118(6) 1.1867(7) 0.5729(3)
H49 H 0.9119 1.2268 0.5473
H50 H 0.8613 1.1532 0.5764
H51 H 0.9525 1.1341 0.5716
C72 C 0.8002(6) 1.2776(7) 0.2905(3)
H52 H 0.7826 1.3295 0.3089
C73 C 0.9246(6) 1.2916(8) 0.3240(3)
H53 H 0.8961 1.3425 0.3403
H54 H 0.9672 1.3256 0.3093
H55 H 0.9456 1.2384 0.3423
C74 C 0.9054(6) 1.1683(7) 0.2667(3)
H56 H 0.8716 1.1614 0.2426
H57 H 0.9091 1.1020 0.2809
H58 H 0.9572 1.1901 0.2578
O10 O 0.7533(4) 1.2448(4) 0.2642(3)
N10 N 0.8733(5) 1.2451(5) 0.2947(2)
O11 O 0.3341(5) 1.7352(7) 0.4626(4)
N11 N 0.2054(5) 1.7269(7) 0.4486(3)
C75 C 0.2794(8) 1.6911(8) 0.4482(3)
H59 H 0.2885 1.6262 0.4355
C76 C 0.1915(7) 1.8216(9) 0.4680(4)
H60 H 0.1737 1.8095 0.4963
H61 H 0.1517 1.8595 0.4527
H62 H 0.2395 1.8620 0.4686
C77 C 0.1414(8) 1.6685(13) 0.4337(4)
H63 H 0.1359 1.6792 0.4039
H64 H 0.0939 1.6907 0.4477
H65 H 0.1504 1.5952 0.4392
O12 O 0.4916(3) 1.2746(5) 0.4248(2)
H66 H 0.4392 1.2710 0.4246
H67 H 0.5073 1.2661 0.4511
O13 O 0.5607(4) 1.2424(4) 0.5002(2)
H68 H 0.6094 1.2413 0.5110
H69 H 0.5285 1.2416 0.5228
O14 O 0.5997(4) 1.2472(4) 0.3602(2)
H70 H 0.6408 1.2131 0.3698
H71 H 0.5652 1.2556 0.3804
O15 O 0.6208(4) 1.3673(5) 0.2877(2)
H72 H 0.6402 1.3266 0.2670
H73 H 0.6151 1.3181 0.3079
O16 O 0.7093(5) 1.2138(6) 0.5881(3)
H74 H 0.6715 1.2253 0.6072
H75 H 0.7452 1.1731 0.6017
loop_
_geom_bond_atom_site_label_1
_geom_bond_atom_site_label_2
_geom_bond_site_symmetry_1
_geom_bond_site_symmetry_2
Ir1 N1 1_555 1_555
Ir2 N5 1_555 1_555
Zn1 O1 1_555 1_555
N1 C7 1_555 1_555
N2 Ir1 1_555 1_555
N3 Ir1 1_555 1_555
N4 Ir1 1_555 1_555
N5 C41 1_555 1_555
N6 Ir2 1_555 1_555
N7 Ir2 1_555 1_555
N8 Ir2 1_555 1_555
O1 C33 1_555 1_555
O2 C33 1_555 1_555
O3 C34 1_555 1_555
O4 C34 1_555 1_555
O5 Zn1 1_555 1_555
O6 C67 1_555 1_555
O7 C68 1_555 1_555
O8 C68 1_555 1_555
C1 Ir1 1_555 1_555
C2 C1 1_555 1_555
H1 C2 1_555 1_555
C3 C2 1_555 1_555
H2 C3 1_555 1_555
C4 C3 1_555 1_555
H3 C4 1_555 1_555
C5 C4 1_555 1_555
H4 C5 1_555 1_555
C6 C1 1_555 1_555
C7 C6 1_555 1_555
C8 C7 1_555 1_555
H5 C8 1_555 1_555
C9 C8 1_555 1_555
H6 C9 1_555 1_555
C10 C9 1_555 1_555
H7 C10 1_555 1_555
C11 N1 1_555 1_555
H8 C11 1_555 1_555
C12 Ir1 1_555 1_555
C13 C12 1_555 1_555
H9 C13 1_555 1_555
C14 C13 1_555 1_555
H10 C14 1_555 1_555
C15 C14 1_555 1_555
H11 C15 1_555 1_555
C16 C15 1_555 1_555
H12 C16 1_555 1_555
C17 C12 1_555 1_555
C18 N2 1_555 1_555
C19 C18 1_555 1_555
H13 C19 1_555 1_555
C20 C19 1_555 1_555
H14 C20 1_555 1_555
C21 C20 1_555 1_555
H15 C21 1_555 1_555
C22 N2 1_555 1_555
H16 C22 1_555 1_555
C23 N3 1_555 1_555
H17 C23 1_555 1_555
C24 C23 1_555 1_555
H18 C24 1_555 1_555
C25 C24 1_555 1_555
C26 C25 1_555 1_555
H19 C26 1_555 1_555
C27 N3 1_555 1_555
C28 N4 1_555 1_555
C29 C28 1_555 1_555
H20 C29 1_555 1_555
C30 C29 1_555 1_555
C31 C30 1_555 1_555
H21 C31 1_555 1_555
C32 N4 1_555 1_555
H22 C32 1_555 1_555
C33 C25 1_555 1_555
C34 C30 1_555 1_555
C35 Ir2 1_555 1_555
C36 C35 1_555 1_555
H23 C36 1_555 1_555
C37 C36 1_555 1_555
H24 C37 1_555 1_555
C38 C37 1_555 1_555
H25 C38 1_555 1_555
C39 C38 1_555 1_555
H26 C39 1_555 1_555
C40 C35 1_555 1_555
C41 C40 1_555 1_555
C42 C41 1_555 1_555
H27 C42 1_555 1_555
C43 C42 1_555 1_555
H28 C43 1_555 1_555
C44 C43 1_555 1_555
H29 C44 1_555 1_555
C45 N5 1_555 1_555
H30 C45 1_555 1_555
C46 Ir2 1_555 1_555
C47 C46 1_555 1_555
H31 C47 1_555 1_555
C48 C47 1_555 1_555
H32 C48 1_555 1_555
C49 C48 1_555 1_555
H33 C49 1_555 1_555
C50 C49 1_555 1_555
H34 C50 1_555 1_555
C51 C46 1_555 1_555
C52 N6 1_555 1_555
C53 C52 1_555 1_555
H35 C53 1_555 1_555
C54 C53 1_555 1_555
H36 C54 1_555 1_555
C55 C54 1_555 1_555
H37 C55 1_555 1_555
C56 N6 1_555 1_555
H38 C56 1_555 1_555
C57 N7 1_555 1_555
H39 C57 1_555 1_555
C58 C57 1_555 1_555
H40 C58 1_555 1_555
C59 C58 1_555 1_555
C60 C59 1_555 1_555
H41 C60 1_555 1_555
C61 N7 1_555 1_555
C62 N8 1_555 1_555
C63 C62 1_555 1_555
H42 C63 1_555 1_555
C64 C63 1_555 1_555
C65 C64 1_555 1_555
H43 C65 1_555 1_555
C66 N8 1_555 1_555
H44 C66 1_555 1_555
C67 O5 1_555 1_555
C68 C64 1_555 1_555
O9 C69 1_555 1_555
N9 C69 1_555 1_555
C69 H45 1_555 1_555
C70 N9 1_555 1_555
H46 C70 1_555 1_555
H47 C70 1_555 1_555
H48 C70 1_555 1_555
C71 N9 1_555 1_555
H49 C71 1_555 1_555
H50 C71 1_555 1_555
H51 C71 1_555 1_555
C72 H52 1_555 1_555
C73 H53 1_555 1_555
H54 C73 1_555 1_555
H55 C73 1_555 1_555
C74 H56 1_555 1_555
H57 C74 1_555 1_555
H58 C74 1_555 1_555
O10 C72 1_555 1_555
N10 C72 1_555 1_555
O11 C75 1_555 1_555
N11 C75 1_555 1_555
C75 H59 1_555 1_555
C76 N11 1_555 1_555
H60 C76 1_555 1_555
H61 C76 1_555 1_555
H62 C76 1_555 1_555
C77 N11 1_555 1_555
H63 C77 1_555 1_555
H64 C77 1_555 1_555
H65 C77 1_555 1_555
O12 H66 1_555 1_555
H67 O12 1_555 1_555
O13 H68 1_555 1_555
H69 O13 1_555 1_555
O14 H70 1_555 1_555
H71 O14 1_555 1_555
O15 H72 1_555 1_555
H73 O15 1_555 1_555
O16 H74 1_555 1_555
H75 O16 1_555 1_555
Zn1B O3 1_555 1_555
O3B Zn1 1_555 1_555
O7B Zn1 1_555 1_555
O7 Zn1B 1_555 1_555
C5 C6 1_555 1_555
C10 C11 1_555 1_555
C16 C17 1_555 1_555
C17 C18 1_555 1_555
C21 C22 1_555 1_555
C26 C27 1_555 1_555
C27 C28 1_555 1_555
C31 C32 1_555 1_555
C39 C40 1_555 1_555
C44 C45 1_555 1_555
C50 C51 1_555 1_555
C51 C52 1_555 1_555
C55 C56 1_555 1_555
C59 C67 1_555 1_555
C60 C61 1_555 1_555
C61 C62 1_555 1_555
C65 C66 1_555 1_555
C73 N10 1_555 1_555
C74 N10 1_555 1_555

#END
