
#######################################################################
#
#                 Cambridge Crystallographic Data Centre
#                                CCDC 
#
#######################################################################
#
# If this CIF has been generated from an entry in the Cambridge 
# Structural Database, then it will include bibliographic, chemical, 
# crystal, experimental, refinement or atomic coordinate data resulting 
# from the CCDC's data processing and validation procedures.
#
#######################################################################

data_WANWIT
_symmetry_cell_setting           orthorhombic
_symmetry_space_group_name_H-M   'P n m a'
_symmetry_Int_Tables_number      62
_space_group_name_Hall           '-P 2ac 2n'
loop_
_symmetry_equiv_pos_site_id
_symmetry_equiv_pos_as_xyz
1 x,y,z
2 1/2-x,-y,1/2+z
3 -x,1/2+y,-z
4 1/2+x,1/2-y,1/2-z
5 -x,-y,-z
6 1/2+x,y,1/2-z
7 x,1/2-y,z
8 1/2-x,1/2+y,1/2+z
_cell_length_a                   16.1640(6)
_cell_length_b                   37.4369(14)
_cell_length_c                   12.5034(5)
_cell_angle_alpha                90
_cell_angle_beta                 90
_cell_angle_gamma                90
_cell_volume                     7566.18
loop_
_atom_site_label
_atom_site_type_symbol
_atom_site_fract_x
_atom_site_fract_y
_atom_site_fract_z
Ir1 Ir 0.759938(16) 0.103023(8) 0.72966(3)
Ni1 Ni 1.01659(7) 0.2500 0.25773(8)
O1 O 0.9662(3) 0.21234(13) 0.3569(4)
O2 O 1.0748(7) 0.1842(3) 0.4202(9)
O3 O 0.5689(3) 0.21258(13) 0.3408(4)
O4 O 0.4661(7) 0.2095(3) 0.4639(9)
O5 O 1.1307(4) 0.2500 0.3371(6)
H1 H 1.1328 0.2665 0.3777
O6 O 0.9013(3) 0.2500 0.1796(5)
H2 H 0.9180 0.2671 0.1443
N1 N 0.7595(8) 0.1424(4) 0.8516(12)
N2 N 0.8425(7) 0.1263(3) 0.6188(10)
N3 N 0.6802(7) 0.1269(3) 0.6105(10)
N4 N 0.6708(9) 0.0793(4) 0.8177(12)
C1 C 0.7514(10) 0.0536(4) 0.6402(13)
C2 C 0.7948(12) 0.0461(5) 0.5560(15)
H3 H 0.8359 0.0622 0.5311
C3 C 0.7796(14) 0.0124(6) 0.4998(18)
H4 H 0.8097 0.0070 0.4366
C4 C 0.7320(14) -0.0071(7) 0.532(2)
H5 H 0.7266 -0.0294 0.4960
C5 C 0.6808(12) -0.0007(5) 0.6191(16)
H6 H 0.6404 -0.0178 0.6397
C6 C 0.6893(11) 0.0306(5) 0.6754(14)
C7 C 0.6436(11) 0.0449(5) 0.7719(12)
C8 C 0.5797(11) 0.0227(5) 0.8167(16)
H7 H 0.5661 -0.0002 0.7896
C9 C 0.5410(11) 0.0378(5) 0.9006(15)
H8 H 0.4937 0.0258 0.9277
C10 C 0.5643(11) 0.0696(5) 0.9520(14)
H9 H 0.5360 0.0773 1.0144
C11 C 0.6320(10) 0.0905(4) 0.9087(14)
H10 H 0.6492 0.1119 0.9434
C12 C 0.8413(4) 0.08126(19) 0.8329(6)
C13 C 0.8881(5) 0.0505(2) 0.8250(7)
H11 H 0.8830 0.0362 0.7625
C14 C 0.9430(5) 0.0395(3) 0.9059(8)
H12 H 0.9759 0.0187 0.8963
C15 C 0.9489(5) 0.0583(3) 0.9964(8)
H13 H 0.9832 0.0501 1.0529
C16 C 0.9042(6) 0.0904(3) 1.0079(8)
H14 H 0.9101 0.1043 1.0710
C17 C 0.8518(5) 0.1016(2) 0.9276(7)
C18 C 0.8058(12) 0.1322(5) 0.9463(16)
C19 C 0.8032(12) 0.1572(5) 1.0366(17)
H15 H 0.8317 0.1514 1.1008
C20 C 0.7613(9) 0.1878(5) 1.0300(15)
H16 H 0.7597 0.2035 1.0897
C21 C 0.7223(10) 0.1964(5) 0.9416(14)
H17 H 0.6955 0.2190 0.9364
C22 C 0.7196(11) 0.1729(5) 0.8554(16)
H18 H 0.6868 0.1794 0.7954
C23 C 0.9259(9) 0.1233(4) 0.6244(12)
H19 H 0.9496 0.1068 0.6734
C24 C 0.9784(9) 0.1441(4) 0.5584(11)
H20 H 1.0369 0.1421 0.5638
C25 C 0.9422(8) 0.1676(4) 0.4854(11)
C26 C 0.8580(8) 0.1697(4) 0.4775(11)
H21 H 0.8332 0.1853 0.4267
C27 C 0.8086(8) 0.1489(4) 0.5447(11)
C28 C 0.7187(10) 0.1485(4) 0.5398(13)
C29 C 0.6723(9) 0.1686(4) 0.4686(12)
H22 H 0.6993 0.1829 0.4164
C30 C 0.5855(10) 0.1679(5) 0.4737(13)
C31 C 0.5489(10) 0.1444(4) 0.5430(13)
H23 H 0.4904 0.1420 0.5455
C32 C 0.5983(9) 0.1246(4) 0.6085(12)
H24 H 0.5725 0.1081 0.6556
C33 C 0.9979(8) 0.1898(4) 0.4126(11)
C34 C 0.5340(8) 0.1906(4) 0.4009(12)
Ir1F Ir 0.759938(16) 0.396977(8) 0.72966(3)
Ni1C Ni 0.51659(7) 0.2500 0.24227(8)
O1F O 0.9662(3) 0.28766(13) 0.3569(4)
O2F O 1.0748(7) 0.3158(3) 0.4202(9)
O3F O 0.5689(3) 0.28742(13) 0.3408(4)
O3C O 1.0689(3) 0.28742(13) 0.1592(4)
O3E O 1.0689(3) 0.21258(13) 0.1592(4)
O4F O 0.4661(7) 0.2905(3) 0.4639(9)
H1F H 1.1328 0.2335 0.3777
H2F H 0.9180 0.2329 0.1443
N1F N 0.7595(8) 0.3576(4) 0.8516(12)
N2F N 0.8425(7) 0.3737(3) 0.6188(10)
N3F N 0.6802(7) 0.3731(3) 0.6105(10)
N4F N 0.6708(9) 0.4207(4) 0.8177(12)
C1F C 0.7514(10) 0.4464(4) 0.6402(13)
C2F C 0.7948(12) 0.4539(5) 0.5560(15)
H3F H 0.8359 0.4378 0.5311
C3F C 0.7796(14) 0.4876(6) 0.4998(18)
H4F H 0.8097 0.4930 0.4366
C4F C 0.7320(14) 0.5071(7) 0.532(2)
H5F H 0.7266 0.5294 0.4960
C5F C 0.6808(12) 0.5007(5) 0.6191(16)
H6F H 0.6404 0.5178 0.6397
C6F C 0.6893(11) 0.4694(5) 0.6754(14)
C7F C 0.6436(11) 0.4551(5) 0.7719(12)
C8F C 0.5797(11) 0.4773(5) 0.8167(16)
H7F H 0.5661 0.5002 0.7896
C9F C 0.5410(11) 0.4622(5) 0.9006(15)
H8F H 0.4937 0.4742 0.9277
C10F C 0.5643(11) 0.4304(5) 0.9520(14)
H9F H 0.5360 0.4227 1.0144
C11F C 0.6320(10) 0.4095(4) 0.9087(14)
H10F H 0.6492 0.3881 0.9434
C12F C 0.8413(4) 0.41874(19) 0.8329(6)
C13F C 0.8881(5) 0.4495(2) 0.8250(7)
H11F H 0.8830 0.4638 0.7625
C14F C 0.9430(5) 0.4605(3) 0.9059(8)
H12F H 0.9759 0.4813 0.8963
C15F C 0.9489(5) 0.4417(3) 0.9964(8)
H13F H 0.9832 0.4499 1.0529
C16F C 0.9042(6) 0.4096(3) 1.0079(8)
H14F H 0.9101 0.3957 1.0710
C17F C 0.8518(5) 0.3984(2) 0.9276(7)
C18F C 0.8058(12) 0.3678(5) 0.9463(16)
C19F C 0.8032(12) 0.3428(5) 1.0366(17)
H15F H 0.8317 0.3486 1.1008
C20F C 0.7613(9) 0.3122(5) 1.0300(15)
H16F H 0.7597 0.2965 1.0897
C21F C 0.7223(10) 0.3036(5) 0.9416(14)
H17F H 0.6955 0.2810 0.9364
C22F C 0.7196(11) 0.3271(5) 0.8554(16)
H18F H 0.6868 0.3206 0.7954
C23F C 0.9259(9) 0.3767(4) 0.6244(12)
H19F H 0.9496 0.3932 0.6734
C24F C 0.9784(9) 0.3559(4) 0.5584(11)
H20F H 1.0369 0.3579 0.5638
C25F C 0.9422(8) 0.3324(4) 0.4854(11)
C26F C 0.8580(8) 0.3303(4) 0.4775(11)
H21F H 0.8332 0.3147 0.4267
C27F C 0.8086(8) 0.3511(4) 0.5447(11)
C28F C 0.7187(10) 0.3515(4) 0.5398(13)
C29F C 0.6723(9) 0.3314(4) 0.4686(12)
H22F H 0.6993 0.3171 0.4164
C30F C 0.5855(10) 0.3321(5) 0.4737(13)
C31F C 0.5489(10) 0.3556(4) 0.5430(13)
H23F H 0.4904 0.3580 0.5455
C32F C 0.5983(9) 0.3754(4) 0.6085(12)
H24F H 0.5725 0.3919 0.6556
C33F C 0.9979(8) 0.3102(4) 0.4126(11)
C34F C 0.5340(8) 0.3094(4) 0.4009(12)
O8 O 1.0368(13) 0.4529(6) 0.2560(11)
N6 N 1.1559(12) 0.4175(5) 0.2530(15)
C38 C 1.1135(15) 0.4495(7) 0.268(2)
H32 H 1.1445 0.4700 0.2881
C39 C 1.2313(15) 0.4158(9) 0.3249(19)
H33 H 1.2586 0.3927 0.3164
H34 H 1.2141 0.4189 0.3996
H35 H 1.2698 0.4350 0.3053
C40 C 1.2060(18) 0.4082(7) 0.1561(17)
H36 H 1.2326 0.3849 0.1667
H37 H 1.2484 0.4265 0.1447
H38 H 1.1697 0.4070 0.0934
O9 O 0.7646(5) 0.2500 0.3447(8)
H39 H 0.7364 0.2500 0.2939
H40 H 0.7407 0.2500 0.3990
O10 O 0.7688(7) 0.2500 0.5865(11)
H41 H 0.8100 0.2500 0.6302
O11 O 0.8584(10) 0.3377(4) 1.2513(10)
H43 H 0.8453 0.3180 1.2305
H44 H 0.8921 0.3406 1.3081
O12 O 0.6869(14) 0.3290(5) 1.2242(12)
H45 H 0.6838 0.3063 1.2299
H46 H 0.7012 0.3364 1.1601
O7? O 1.1281(7) 0.2379(3) 0.7919(9)
N5? N 0.9889(7) 0.2500 0.7731(8)
C35? C 1.0626(8) 0.2500 0.8229(12)
H25? H 1.0676 0.2621 0.8888
C36? C 0.9174(11) 0.2315(5) 0.8128(16)
H26? H 0.9357 0.2175 0.8715
H27? H 0.8804 0.2500 0.8357
H28? H 0.8908 0.2155 0.7644
C37? C 0.9721(13) 0.2673(5) 0.6721(14)
H29? H 1.0228 0.2767 0.6478
H30? H 0.9476 0.2500 0.6185
H31? H 0.9371 0.2874 0.6897
H42? H 0.7600 0.2290 0.5638
C41? C 0.6711(12) 0.4290(5) 0.7979(14)
C42? C 0.5636(11) 0.4462(5) 0.9271(15)
C43? C 0.6273(10) 0.4213(4) 0.8921(14)
C44? C 0.8064(12) 0.3612(5) 0.9144(16)
C45? C 0.8108(11) 0.3338(5) 0.9928(15)
C46? C 0.8130(11) 0.4375(5) 0.5353(14)
C47? C 0.7737(10) 0.3023(5) 0.9765(16)
C48? C 0.7285(10) 0.2974(5) 0.8831(15)
C49? C 0.7281(11) 0.3252(5) 0.8087(18)
C50? C 0.9291(8) 0.3625(4) 0.6583(11)
C51? C 0.9799(9) 0.3407(4) 0.5974(11)
C52? C 0.9462(9) 0.3195(4) 0.5227(12)
C53? C 0.8605(8) 0.3191(4) 0.5086(12)
C54? C 0.8105(9) 0.3404(4) 0.5723(12)
C55? C 0.7191(8) 0.3418(4) 0.5649(12)
C56? C 0.6736(8) 0.3205(4) 0.4937(11)
C57? C 0.8078(12) 0.4640(5) 0.4696(16)
C58? C 0.5881(9) 0.3219(4) 0.4983(12)
C59? C 0.5502(9) 0.3450(4) 0.5705(12)
C60? C 0.5985(8) 0.3663(4) 0.6356(12)
C61? C 0.9998(9) 0.2975(5) 0.4458(12)
C62? C 0.5359(8) 0.2970(4) 0.4299(12)
C63? C 0.7490(13) 0.4940(7) 0.485(2)
C64? C 0.7018(14) 0.4907(6) 0.5694(17)
C65? C 0.7082(11) 0.4615(5) 0.6424(14)
C66? C 0.6561(11) 0.4588(5) 0.7388(13)
C67? C 0.5945(11) 0.4815(5) 0.7673(14)
C68? C 0.5517(12) 0.4739(5) 0.8668(16)
H47? H 0.5325 0.4424 0.9906
H48? H 0.6390 0.4003 0.9322
H49? H 0.8403 0.3378 1.0574
H50? H 0.8519 0.4189 0.5225
H51? H 0.7781 0.2836 1.0277
H52? H 0.6989 0.2759 0.8702
H53? H 0.6992 0.3212 0.7437
H54? H 0.9535 0.3781 0.7094
H55? H 1.0380 0.3408 0.6083
H56? H 0.8364 0.3043 0.4552
H57? H 0.7009 0.3055 0.4436
H58? H 0.8433 0.4644 0.4090
H59? H 0.4915 0.3461 0.5749
H60? H 0.5726 0.3829 0.6822
H61? H 0.7459 0.5138 0.4376
H62? H 0.6613 0.5085 0.5827
H63? H 0.5800 0.5014 0.7241
H64? H 0.5115 0.4908 0.8898
N7? N 0.7612(7) 0.4359(3) 0.6258(10)
N8? N 0.7651(10) 0.3575(5) 0.8206(16)
N9? N 0.8453(7) 0.3623(3) 0.6469(9)
N10? N 0.6822(7) 0.3637(3) 0.6342(10)
O13? O 1.0740(7) 0.2931(3) 0.4746(10)
O14? O 0.4566(7) 0.3128(3) 0.4082(9)
loop_
_geom_bond_atom_site_label_1
_geom_bond_atom_site_label_2
_geom_bond_site_symmetry_1
_geom_bond_site_symmetry_2
Ir1 N1 1_555 1_555
Ni1 O1 1_555 1_555
O1 C33 1_555 1_555
O2 C33 1_555 1_555
O3 C34 1_555 1_555
O4 C34 1_555 1_555
O5 Ni1 1_555 1_555
H1 O5 1_555 1_555
O6 Ni1 1_555 1_555
H2 O6 1_555 1_555
N1 C18 1_555 1_555
N2 Ir1 1_555 1_555
N3 Ir1 1_555 1_555
N4 Ir1 1_555 1_555
C1 Ir1 1_555 1_555
C2 C1 1_555 1_555
H3 C2 1_555 1_555
C3 C2 1_555 1_555
H4 C3 1_555 1_555
C4 C3 1_555 1_555
H5 C4 1_555 1_555
C5 C4 1_555 1_555
H6 C5 1_555 1_555
C6 C1 1_555 1_555
C7 N4 1_555 1_555
C8 C7 1_555 1_555
H7 C8 1_555 1_555
C9 C8 1_555 1_555
H8 C9 1_555 1_555
C10 C9 1_555 1_555
H9 C10 1_555 1_555
C11 N4 1_555 1_555
H10 C11 1_555 1_555
C12 Ir1 1_555 1_555
C13 C12 1_555 1_555
H11 C13 1_555 1_555
C14 C13 1_555 1_555
H12 C14 1_555 1_555
C15 C14 1_555 1_555
H13 C15 1_555 1_555
C16 C15 1_555 1_555
H14 C16 1_555 1_555
C17 C12 1_555 1_555
C18 C17 1_555 1_555
C19 C18 1_555 1_555
H15 C19 1_555 1_555
C20 C19 1_555 1_555
H16 C20 1_555 1_555
C21 C20 1_555 1_555
H17 C21 1_555 1_555
C22 N1 1_555 1_555
H18 C22 1_555 1_555
C23 N2 1_555 1_555
H19 C23 1_555 1_555
C24 C23 1_555 1_555
H20 C24 1_555 1_555
C25 C24 1_555 1_555
C26 C25 1_555 1_555
H21 C26 1_555 1_555
C27 N2 1_555 1_555
C28 N3 1_555 1_555
C29 C28 1_555 1_555
H22 C29 1_555 1_555
C30 C29 1_555 1_555
C31 C30 1_555 1_555
H23 C31 1_555 1_555
C32 N3 1_555 1_555
H24 C32 1_555 1_555
C33 C25 1_555 1_555
C34 C30 1_555 1_555
O8 C38 1_555 1_555
N6 C38 1_555 1_555
C38 H32 1_555 1_555
C39 N6 1_555 1_555
H33 C39 1_555 1_555
H34 C39 1_555 1_555
H35 C39 1_555 1_555
C40 N6 1_555 1_555
H36 C40 1_555 1_555
H37 C40 1_555 1_555
H38 C40 1_555 1_555
O9 H39 1_555 1_555
H40 O9 1_555 1_555
O10 H41 1_555 1_555
O11 H43 1_555 1_555
H44 O11 1_555 1_555
O12 H45 1_555 1_555
H46 O12 1_555 1_555
Ir1F N1F 1_555 1_555
Ni1C O3 1_555 1_555
O1F Ni1 1_555 1_555
O2F C33F 1_555 1_555
O3F Ni1C 1_555 1_555
O3C Ni1 1_555 1_555
O3E Ni1 1_555 1_555
O4F C34F 1_555 1_555
H1F O5 1_555 1_555
H2F O6 1_555 1_555
N1F C18F 1_555 1_555
N2F Ir1F 1_555 1_555
N3F Ir1F 1_555 1_555
N4F Ir1F 1_555 1_555
C1F Ir1F 1_555 1_555
C2F C1F 1_555 1_555
H3F C2F 1_555 1_555
C3F C2F 1_555 1_555
H4F C3F 1_555 1_555
C4F C3F 1_555 1_555
H5F C4F 1_555 1_555
C5F C4F 1_555 1_555
H6F C5F 1_555 1_555
C6F C1F 1_555 1_555
C7F N4F 1_555 1_555
C8F C7F 1_555 1_555
H7F C8F 1_555 1_555
C9F C8F 1_555 1_555
H8F C9F 1_555 1_555
C10F C9F 1_555 1_555
H9F C10F 1_555 1_555
C11F N4F 1_555 1_555
H10F C11F 1_555 1_555
C12F Ir1F 1_555 1_555
C13F C12F 1_555 1_555
H11F C13F 1_555 1_555
C14F C13F 1_555 1_555
H12F C14F 1_555 1_555
C15F C14F 1_555 1_555
H13F C15F 1_555 1_555
C16F C15F 1_555 1_555
H14F C16F 1_555 1_555
C17F C12F 1_555 1_555
C18F C17F 1_555 1_555
C19F C18F 1_555 1_555
H15F C19F 1_555 1_555
C20F C19F 1_555 1_555
H16F C20F 1_555 1_555
C21F C20F 1_555 1_555
H17F C21F 1_555 1_555
C22F N1F 1_555 1_555
H18F C22F 1_555 1_555
C23F N2F 1_555 1_555
H19F C23F 1_555 1_555
C24F C23F 1_555 1_555
H20F C24F 1_555 1_555
C25F C24F 1_555 1_555
C26F C25F 1_555 1_555
H21F C26F 1_555 1_555
C27F N2F 1_555 1_555
C28F N3F 1_555 1_555
C29F C28F 1_555 1_555
H22F C29F 1_555 1_555
C30F C29F 1_555 1_555
C31F C30F 1_555 1_555
H23F C31F 1_555 1_555
C32F N3F 1_555 1_555
H24F C32F 1_555 1_555
C33F O1F 1_555 1_555
C34F O3F 1_555 1_555
C5 C6 1_555 1_555
C6 C7 1_555 1_555
C10 C11 1_555 1_555
C16 C17 1_555 1_555
C21 C22 1_555 1_555
C26 C27 1_555 1_555
C27 C28 1_555 1_555
C31 C32 1_555 1_555
C5F C6F 1_555 1_555
C6F C7F 1_555 1_555
C10F C11F 1_555 1_555
C16F C17F 1_555 1_555
C21F C22F 1_555 1_555
C25F C33F 1_555 1_555
C26F C27F 1_555 1_555
C27F C28F 1_555 1_555
C30F C34F 1_555 1_555
C31F C32F 1_555 1_555

#END
