
#######################################################################
#
#                 Cambridge Crystallographic Data Centre
#                                CCDC 
#
#######################################################################
#
# If this CIF has been generated from an entry in the Cambridge 
# Structural Database, then it will include bibliographic, chemical, 
# crystal, experimental, refinement or atomic coordinate data resulting 
# from the CCDC's data processing and validation procedures.
#
#######################################################################

data_WANXOA
_symmetry_cell_setting           monoclinic
_symmetry_space_group_name_H-M   'P 21'
_symmetry_Int_Tables_number      4
_space_group_name_Hall           'P 2yb'
loop_
_symmetry_equiv_pos_site_id
_symmetry_equiv_pos_as_xyz
1 x,y,z
2 -x,1/2+y,-z
_cell_length_a                   7.8413(5)
_cell_length_b                   17.1764(10)
_cell_length_c                   7.8467(5)
_cell_angle_alpha                90
_cell_angle_beta                 96.0340(10)
_cell_angle_gamma                90
_cell_volume                     1050.98
loop_
_atom_site_label
_atom_site_type_symbol
_atom_site_fract_x
_atom_site_fract_y
_atom_site_fract_z
C1 C 0.0738(5) 0.2665(2) 0.6812(5)
C2 C -0.0213(6) 0.1893(3) 0.4484(6)
H1 H -0.0832 0.1468 0.4017
C3 C 0.0661(8) 0.2361(3) 0.3425(6)
H2 H 0.0678 0.2247 0.2268
C4 C 0.1485(7) 0.2989(3) 0.4145(6)
H3 H 0.2036 0.3322 0.3445
C5 C -0.4331(5) 0.3088(2) 0.8388(5)
C6 C -0.3775(6) 0.2710(3) 1.1220(6)
H4 H -0.3267 0.2370 1.2046
C7 C -0.4715(7) 0.3328(3) 1.1729(6)
H5 H -0.4801 0.3429 1.2881
C8 C -0.5518(6) 0.3785(3) 1.0465(6)
H6 H -0.6208 0.4191 1.0776
C9 C -0.3281(5) 0.0285(2) 0.6055(5)
C10 C -0.6091(6) -0.0043(3) 0.5230(6)
H7 H -0.6892 -0.0376 0.4657
C11 C -0.6665(6) 0.0569(3) 0.6145(7)
H8 H -0.7827 0.0656 0.6205
C12 C -0.5429(6) 0.1045(3) 0.6966(7)
H9 H -0.5780 0.1473 0.7564
C13 C -0.1548(5) 0.0447(2) 1.1009(5)
C14 C 0.0762(6) -0.0386(3) 1.1536(7)
H10 H 0.1233 -0.0846 1.1999
C15 C 0.1769(6) 0.0103(3) 1.0696(7)
H11 H 0.2922 -0.0004 1.0627
C16 C 0.1002(6) 0.0760(3) 0.9956(7)
H12 H 0.1655 0.1097 0.9361
Mn1 Mn -0.19022(8) 0.17983(4) 0.82074(8)
Mn2 Mn 0.28711(8) 0.42701(4) 0.67773(8)
N1 N -0.0183(5) 0.20371(19) 0.6136(5)
N2 N 0.1547(5) 0.3159(2) 0.5825(4)
N3 N -0.3571(5) 0.2584(2) 0.9564(5)
N4 N -0.5356(5) 0.3677(2) 0.8804(5)
N5 N -0.4433(5) -0.0177(2) 0.5135(5)
N6 N -0.3747(4) 0.0921(2) 0.6947(5)
N7 N -0.0867(5) -0.0224(2) 1.1713(5)
N8 N -0.0655(5) 0.0931(2) 1.0065(5)
S1 S 0.07690(16) 0.27873(6) 0.89672(14)
S2 S -0.39082(17) 0.29498(7) 0.63191(14)
S3 S -0.11793(14) 0.00437(7) 0.59956(16)
S4 S -0.35979(15) 0.06593(7) 1.14034(16)
Mn2_2 Mn -0.71289(8) 0.42701(4) 0.67773(8)
Mn2A Mn -0.28711(8) -0.07299(4) 0.32227(8)
Mn2A_2 Mn -0.28711(8) -0.07299(4) 1.32227(8)
N4_2 N 0.4644(5) 0.3677(2) 0.8804(5)
N5A N 0.4433(5) 0.4823(2) 0.4865(5)
N7A N 0.0867(5) 0.4776(2) 0.8287(5)
S3A S 0.11793(14) 0.50437(7) 0.40044(16)
S4A S 0.35979(15) 0.56593(7) 0.85966(16)
loop_
_geom_bond_atom_site_label_1
_geom_bond_atom_site_label_2
_geom_bond_site_symmetry_1
_geom_bond_site_symmetry_2
C1 N1 1_555 1_555
C2 H1 1_555 1_555
C3 C2 1_555 1_555
H2 C3 1_555 1_555
C4 C3 1_555 1_555
H3 C4 1_555 1_555
C5 N3 1_555 1_555
C6 H4 1_555 1_555
C7 C6 1_555 1_555
H5 C7 1_555 1_555
C8 C7 1_555 1_555
H6 C8 1_555 1_555
C9 N5 1_555 1_555
C10 H7 1_555 1_555
C11 C10 1_555 1_555
H8 C11 1_555 1_555
C12 C11 1_555 1_555
H9 C12 1_555 1_555
C13 N7 1_555 1_555
C14 H10 1_555 1_555
C15 C14 1_555 1_555
H11 C15 1_555 1_555
C16 C15 1_555 1_555
H12 C16 1_555 1_555
Mn1 N1 1_555 1_555
Mn2 N2 1_555 1_555
N1 C2 1_555 1_555
N2 C1 1_555 1_555
N3 C6 1_555 1_555
N4 C5 1_555 1_555
N5 C10 1_555 1_555
N6 C9 1_555 1_555
N7 C14 1_555 1_555
N8 C13 1_555 1_555
S1 C1 1_555 1_555
S2 C5 1_555 1_555
S3 C9 1_555 1_555
S4 C13 1_555 1_555
Mn2_2 N4 1_555 1_555
Mn2A N5 1_555 1_555
Mn2A_2 N7 1_555 1_555
N4_2 Mn2 1_555 1_555
N5A Mn2 1_555 1_555
N7A Mn2 1_555 1_555
S3A Mn2 1_555 1_555
S4A Mn2 1_555 1_555
C4 N2 1_555 1_555
C8 N4 1_555 1_555
C12 N6 1_555 1_555
C16 N8 1_555 1_555
Mn1 N3 1_555 1_555
Mn1 N6 1_555 1_555
Mn1 N8 1_555 1_555
Mn1 S1 1_555 1_555
Mn1 S2 1_555 1_555
S3 Mn2A 1_555 1_555
S4 Mn2A_2 1_555 1_555

#END
