
#######################################################################
#
#                 Cambridge Crystallographic Data Centre
#                                CCDC 
#
#######################################################################
#
# If this CIF has been generated from an entry in the Cambridge 
# Structural Database, then it will include bibliographic, chemical, 
# crystal, experimental, refinement or atomic coordinate data resulting 
# from the CCDC's data processing and validation procedures.
#
#######################################################################

data_WANYUH
_symmetry_cell_setting           monoclinic
_symmetry_space_group_name_H-M   'P 21/n'
_symmetry_Int_Tables_number      14
_space_group_name_Hall           '-P 2yn'
loop_
_symmetry_equiv_pos_site_id
_symmetry_equiv_pos_as_xyz
1 x,y,z
2 1/2-x,1/2+y,1/2-z
3 -x,-y,-z
4 1/2+x,1/2-y,1/2+z
_cell_length_a                   14.3744(2)
_cell_length_b                   16.8577(2)
_cell_length_c                   14.6927(2)
_cell_angle_alpha                90
_cell_angle_beta                 97.3050(10)
_cell_angle_gamma                90
_cell_volume                     3531.43
loop_
_atom_site_label
_atom_site_type_symbol
_atom_site_fract_x
_atom_site_fract_y
_atom_site_fract_z
C1 C 0.4748(2) 0.1336(2) 0.3379(3)
C2 C 0.3922(2) 0.1815(2) 0.2935(2)
C3 C 0.2994(2) 0.17084(19) 0.3102(2)
C4 C 0.2268(2) 0.2115(2) 0.2592(2)
H1 H 0.1652 0.2019 0.2694
C5 C 0.2446(2) 0.2658(2) 0.1933(2)
C6 C 0.1648(2) 0.3062(2) 0.1340(2)
C7 C 0.3365(2) 0.2806(2) 0.1800(2)
H2 H 0.3496 0.3193 0.1383
C8 C 0.4092(2) 0.2381(2) 0.2284(3)
H3 H 0.4705 0.2476 0.2172
C9 C 0.3471(3) 0.3340(2) 0.4500(3)
H4 H 0.2923 0.3065 0.4570
C10 C 0.3404(3) 0.3989(3) 0.3955(3)
H5 H 0.2822 0.4141 0.3656
C11 C 0.4181(3) 0.4426(3) 0.3840(3)
C12 C 0.5008(3) 0.4152(3) 0.4294(4)
H6 H 0.5563 0.4423 0.4241
C13 C 0.5028(3) 0.3485(3) 0.4826(4)
H7 H 0.5605 0.3314 0.5121
C14 C 0.4105(3) 0.5178(3) 0.3267(4)
H8 H 0.3934 0.5609 0.3650
H9 H 0.3592 0.5110 0.2776
C15 C 0.4993(4) 0.5441(4) 0.2826(4)
H10 H 0.4889 0.5961 0.2549
H11 H 0.5531 0.5473 0.3295
C16 C 0.5169(4) 0.4875(4) 0.2142(4)
H12 H 0.4633 0.4841 0.1671
H13 H 0.5277 0.4354 0.2417
C17 C 0.6070(3) 0.5157(4) 0.1705(4)
C18 C 0.6030(3) 0.5433(3) 0.0836(3)
H14 H 0.5451 0.5549 0.0506
C19 C 0.6829(2) 0.5544(2) 0.0436(3)
H15 H 0.6769 0.5685 -0.0181
C20 C 0.7744(3) 0.5271(4) 0.1758(3)
H16 H 0.8334 0.5239 0.2098
C21 C 0.6966(4) 0.5118(5) 0.2187(4)
H17 H 0.7041 0.4986 0.2807
C22 C 0.4167(3) 0.2371(3) 0.7619(3)
H18 H 0.4787 0.2518 0.7594
C23 C 0.3818(3) 0.2440(3) 0.8443(3)
H19 H 0.4191 0.2641 0.8954
C24 C 0.2909(3) 0.2210(3) 0.8503(3)
C25 C 0.2379(3) 0.1970(3) 0.7708(3)
H20 H 0.1751 0.1839 0.7713
C26 C 0.2771(3) 0.1924(3) 0.6908(3)
H21 H 0.2396 0.1760 0.6378
C27 C 0.2539(3) 0.2165(3) 0.9419(3)
H22 H 0.1884 0.2322 0.9343
H23 H 0.2884 0.2533 0.9843
C28 C 0.2630(3) 0.1325(3) 0.9822(3)
H24 H 0.2314 0.1305 1.0367
H25 H 0.2316 0.0955 0.9380
C29 C 0.3648(3) 0.1061(3) 1.0075(4)
H26 H 0.4007 0.1227 0.9592
H27 H 0.3907 0.1330 1.0634
C30 C 0.3765(3) 0.0186(3) 1.0211(4)
C31 C 0.3961(3) -0.0163(4) 1.1062(4)
H28 H 0.4021 0.0144 1.1592
N1 N 0.3985(4) -0.1455(4) 1.0403(7)
C32 C 0.3799(5) -0.1116(5) 0.9584(7)
H29 H 0.3740 -0.1436 0.9065
C33 C 0.3690(4) -0.0323(4) 0.9478(4)
H30 H 0.3561 -0.0117 0.8888
Cd1 Cd 0.443722(16) 0.181122(15) 0.560101(18)
Cd2 Cd 0.897700(15) 0.549690(14) 0.009620(17)
N2 N 0.4273(2) 0.30699(17) 0.4943(2)
N3 N 0.76836(19) 0.54607(19) 0.0881(2)
N4 N 0.3670(2) 0.2105(2) 0.6855(2)
C34 C 0.4067(4) -0.0982(6) 1.1114(6)
H31 H 0.4204 -0.1208 1.1693
O1 O 0.50510(16) 0.14848(15) 0.42192(16)
O2 O 0.50963(19) 0.08581(18) 0.28979(19)
O3 O 0.29624(16) 0.14954(15) 0.48428(16)
O4 O 0.17100(16) 0.09297(17) 0.38153(18)
O5 O 0.32714(18) 0.03588(14) 0.39183(19)
O6 O 0.08339(16) 0.28106(16) 0.14088(18)
O7 O 0.18572(16) 0.35950(15) 0.08197(17)
O8 O 0.47885(15) 0.05338(13) 0.57760(15)
H32 H 0.499(2) 0.041(2) 0.6397(10)
S1 S 0.27042(6) 0.10650(5) 0.39843(6)
Cd1C Cd -0.056278(16) 0.318878(15) 0.060101(18)
Cd2A Cd 0.602300(15) 0.049690(14) 0.490380(17)
Cd2C Cd 0.397700(15) -0.049690(14) 0.509620(17)
Cd2B Cd 0.102300(15) 0.450310(14) -0.009620(17)
O1A O 0.99490(16) 0.64848(15) 0.07808(16)
O5C O 0.82714(18) 0.46412(14) -0.10817(19)
O6C O 0.58339(16) 0.21894(16) 0.64088(18)
O7B O 0.81428(16) 0.64050(15) -0.08197(17)
O8A O 1.02115(15) 0.55338(13) -0.07760(15)
O8C O 0.97885(15) 0.44662(13) 0.07760(15)
H32A H 1.001(2) 0.541(2) -0.1397(10)
H32C H 0.999(2) 0.459(2) 0.1397(10)
O9 O 0.4344(3) 0.6871(3) 0.9876(5)
H33 H 0.420(6) 0.737(2) 1.014(5)
H34 H 0.399(5) 0.648(3) 1.016(5)
loop_
_geom_bond_atom_site_label_1
_geom_bond_atom_site_label_2
_geom_bond_site_symmetry_1
_geom_bond_site_symmetry_2
C1 C2 1_555 1_555
C2 C3 1_555 1_555
C3 C4 1_555 1_555
C4 H1 1_555 1_555
C5 C4 1_555 1_555
C6 C5 1_555 1_555
C7 C5 1_555 1_555
H2 C7 1_555 1_555
C8 C2 1_555 1_555
H3 C8 1_555 1_555
C9 H4 1_555 1_555
C10 C9 1_555 1_555
H5 C10 1_555 1_555
C11 C10 1_555 1_555
C12 C11 1_555 1_555
H6 C12 1_555 1_555
C13 C12 1_555 1_555
H7 C13 1_555 1_555
C14 C11 1_555 1_555
H8 C14 1_555 1_555
H9 C14 1_555 1_555
C15 C14 1_555 1_555
H10 C15 1_555 1_555
H11 C15 1_555 1_555
C16 C15 1_555 1_555
H12 C16 1_555 1_555
H13 C16 1_555 1_555
C17 C16 1_555 1_555
C18 C17 1_555 1_555
H14 C18 1_555 1_555
C19 C18 1_555 1_555
H15 C19 1_555 1_555
C20 H16 1_555 1_555
C21 C17 1_555 1_555
H17 C21 1_555 1_555
C22 H18 1_555 1_555
C23 C22 1_555 1_555
H19 C23 1_555 1_555
C24 C23 1_555 1_555
C25 C24 1_555 1_555
H20 C25 1_555 1_555
C26 C25 1_555 1_555
H21 C26 1_555 1_555
C27 C24 1_555 1_555
H22 C27 1_555 1_555
H23 C27 1_555 1_555
C28 C27 1_555 1_555
H24 C28 1_555 1_555
H25 C28 1_555 1_555
C29 C28 1_555 1_555
H26 C29 1_555 1_555
H27 C29 1_555 1_555
C30 C29 1_555 1_555
C31 C30 1_555 1_555
H28 C31 1_555 1_555
N1 C32 1_555 1_555
C32 H29 1_555 1_555
C33 C30 1_555 1_555
H30 C33 1_555 1_555
Cd1 N2 1_555 1_555
Cd2 N3 1_555 1_555
N2 C9 1_555 1_555
N3 C19 1_555 1_555
N4 C22 1_555 1_555
C34 C31 1_555 1_555
H31 C34 1_555 1_555
O1 C1 1_555 1_555
O2 C1 1_555 1_555
O3 Cd1 1_555 1_555
O4 S1 1_555 1_555
O5 S1 1_555 1_555
O6 C6 1_555 1_555
O7 C6 1_555 1_555
O8 Cd1 1_555 1_555
H32 O8 1_555 1_555
O9 H33 1_555 1_555
H34 O9 1_555 1_555
S1 C3 1_555 1_555
Cd1C O6 1_555 1_555
Cd2A O1 1_555 1_555
Cd2C O5 1_555 1_555
Cd2B O7 1_555 1_555
O1A Cd2 1_555 1_555
O5C Cd2 1_555 1_555
O6C Cd1 1_555 1_555
O7B Cd2 1_555 1_555
O8A Cd2 1_555 1_555
O8C Cd2 1_555 1_555
H32A O8A 1_555 1_555
H32C O8C 1_555 1_555
C7 C8 1_555 1_555
C13 N2 1_555 1_555
C20 C21 1_555 1_555
C20 N3 1_555 1_555
C26 N4 1_555 1_555
N1 C34 1_555 1_555
C32 C33 1_555 1_555
Cd1 N4 1_555 1_555
Cd1 O1 1_555 1_555
O3 S1 1_555 1_555
O8 Cd2A 1_555 1_555
O8 Cd2C 1_555 1_555

#END
