
#######################################################################
#
#                 Cambridge Crystallographic Data Centre
#                                CCDC 
#
#######################################################################
#
# If this CIF has been generated from an entry in the Cambridge 
# Structural Database, then it will include bibliographic, chemical, 
# crystal, experimental, refinement or atomic coordinate data resulting 
# from the CCDC's data processing and validation procedures.
#
#######################################################################

data_WANYER
_symmetry_cell_setting           orthorhombic
_symmetry_space_group_name_H-M   'P b c a'
_symmetry_Int_Tables_number      61
_space_group_name_Hall           '-P 2ac 2ab'
loop_
_symmetry_equiv_pos_site_id
_symmetry_equiv_pos_as_xyz
1 x,y,z
2 1/2-x,-y,1/2+z
3 -x,1/2+y,1/2-z
4 1/2+x,1/2-y,-z
5 -x,-y,-z
6 1/2+x,y,1/2-z
7 x,1/2-y,1/2+z
8 1/2-x,1/2+y,z
_cell_length_a                   8.3817(7)
_cell_length_b                   12.2159(10)
_cell_length_c                   22.1945(18)
_cell_angle_alpha                90
_cell_angle_beta                 90
_cell_angle_gamma                90
_cell_volume                     2272.5
loop_
_atom_site_label
_atom_site_type_symbol
_atom_site_fract_x
_atom_site_fract_y
_atom_site_fract_z
C1 C 0.4730(3) 0.0631(2) -0.33358(13)
C2 C 0.5038(4) 0.0897(3) -0.27419(13)
H1 H 0.5623 0.1523 -0.2652
C3 C 0.4478(4) 0.0234(3) -0.22758(14)
C4 C 0.4783(4) 0.0528(3) -0.16325(14)
C5 C 0.3638(4) -0.0708(3) -0.24190(15)
H2 H 0.3258 -0.1155 -0.2112
C6 C 0.3356(4) -0.0991(3) -0.30136(15)
H3 H 0.2821 -0.1639 -0.3101
C7 C 0.3867(4) -0.0318(2) -0.34827(14)
C8 C 0.3391(3) -0.0629(2) -0.41106(13)
Mn1 Mn 0.16996(5) 0.17395(4) -0.42968(2)
Mn2 Mn 0.16934(5) -0.00437(4) -0.53610(2)
O1 O 0.4146(2) 0.21877(17) -0.41012(10)
O2 O 0.6757(2) 0.21525(19) -0.36413(10)
O3 O 0.6034(2) 0.07941(19) -0.43892(10)
O4 O 0.5682(3) 0.13296(18) -0.15311(10)
O5 O 0.4120(3) -0.00549(19) -0.12417(10)
O6 O 0.3727(3) -0.15658(16) -0.42979(10)
O7 O 0.2643(3) 0.00680(16) -0.44236(9)
O8 O 0.0029(2) 0.11847(17) -0.49229(10)
H4 H -0.033(5) 0.160(3) -0.5170(15)
O9 O 0.3011(3) 0.1567(2) -0.54115(12)
H5 H 0.272(4) 0.194(3) -0.5713(13)
H6 H 0.402(2) 0.153(3) -0.5413(17)
S1 S 0.54947(9) 0.15025(6) -0.39045(3)
Mn1E Mn 0.66996(5) 0.17395(4) -0.07032(2)
Mn1G Mn 0.33004(5) -0.32605(4) -0.42968(2)
Mn2A Mn 0.33066(5) 0.00437(4) -0.03610(2)
Mn2D Mn 0.83066(5) 0.00437(4) -0.46390(2)
Mn2D_2 Mn -0.16934(5) 0.00437(4) -0.46390(2)
O3D O 0.3966(2) -0.07941(19) -0.56108(10)
O4E O 0.0682(3) 0.13296(18) -0.34689(10)
O5A O 0.0880(3) 0.00549(19) -0.62417(10)
O6G O 0.1273(3) 0.34342(16) -0.42979(10)
O8D O -0.0029(2) -0.11847(17) -0.50771(10)
H4D H 0.033(5) -0.160(3) -0.4830(15)
loop_
_geom_bond_atom_site_label_1
_geom_bond_atom_site_label_2
_geom_bond_site_symmetry_1
_geom_bond_site_symmetry_2
C1 C2 1_555 1_555
C2 H1 1_555 1_555
C3 C2 1_555 1_555
C4 C3 1_555 1_555
C5 C3 1_555 1_555
H2 C5 1_555 1_555
C6 C5 1_555 1_555
H3 C6 1_555 1_555
C7 C1 1_555 1_555
C8 C7 1_555 1_555
Mn1 O1 1_555 1_555
Mn2 O7 1_555 1_555
O1 S1 1_555 1_555
O2 S1 1_555 1_555
O3 S1 1_555 1_555
O4 C4 1_555 1_555
O5 C4 1_555 1_555
O6 C8 1_555 1_555
O7 C8 1_555 1_555
O8 Mn1 1_555 1_555
H4 O8 1_555 1_555
O9 Mn2 1_555 1_555
H5 O9 1_555 1_555
H6 O9 1_555 1_555
S1 C1 1_555 1_555
Mn1E O4 1_555 1_555
Mn1G O6 1_555 1_555
Mn2A O5 1_555 1_555
Mn2D O3 1_555 1_555
Mn2D_2 O8 1_555 1_555
O3D Mn2 1_555 1_555
O4E Mn1 1_555 1_555
O5A Mn2 1_555 1_555
O6G Mn1 1_555 1_555
O8D Mn2 1_555 1_555
H4D O8D 1_555 1_555
C6 C7 1_555 1_555
Mn1 O7 1_555 1_555
Mn2 O8 1_555 1_555
Mn2D_2 O8D 1_555 1_555

#END
