
#######################################################################
#
#                 Cambridge Crystallographic Data Centre
#                                CCDC 
#
#######################################################################
#
# If this CIF has been generated from an entry in the Cambridge 
# Structural Database, then it will include bibliographic, chemical, 
# crystal, experimental, refinement or atomic coordinate data resulting 
# from the CCDC's data processing and validation procedures.
#
#######################################################################

data_WANYAN
_symmetry_cell_setting           orthorhombic
_symmetry_space_group_name_H-M   'P b c a'
_symmetry_Int_Tables_number      61
_space_group_name_Hall           '-P 2ac 2ab'
loop_
_symmetry_equiv_pos_site_id
_symmetry_equiv_pos_as_xyz
1 x,y,z
2 1/2-x,-y,1/2+z
3 -x,1/2+y,1/2-z
4 1/2+x,1/2-y,-z
5 -x,-y,-z
6 1/2+x,y,1/2-z
7 x,1/2-y,1/2+z
8 1/2-x,1/2+y,z
_cell_length_a                   8.1197(4)
_cell_length_b                   12.0404(6)
_cell_length_c                   21.9277(11)
_cell_angle_alpha                90
_cell_angle_beta                 90
_cell_angle_gamma                90
_cell_volume                     2143.75
loop_
_atom_site_label
_atom_site_type_symbol
_atom_site_fract_x
_atom_site_fract_y
_atom_site_fract_z
Co1 Co 0.33120(3) 0.16782(2) 0.070561(12)
Co2 Co 0.33217(3) 0.00030(2) -0.034180(12)
O1 O 0.24227(18) 0.00207(11) 0.05684(6)
O2 O 0.12733(19) -0.16377(11) 0.06695(7)
O3 O -0.06798(19) 0.12721(12) 0.34959(7)
O4 O 0.0916(2) -0.01562(13) 0.37835(7)
O5 O 0.20371(19) 0.15538(13) -0.03973(8)
C1 C 0.0240(2) 0.04467(16) 0.33935(9)
C2 C 0.1643(2) -0.06975(16) 0.08731(9)
S1 S -0.04941(6) 0.14494(4) 0.10927(2)
O6 O -0.17797(17) 0.21221(13) 0.13570(7)
O7 O -0.10552(18) 0.07421(12) 0.05933(6)
O8 O 0.09161(17) 0.21389(12) 0.08953(7)
C3 C 0.0545(3) 0.01495(17) 0.27370(9)
C4 C -0.0042(2) 0.08289(17) 0.22712(9)
H1 H -0.0648 0.1462 0.2364
C5 C 0.1165(2) -0.04042(16) 0.15161(9)
C6 C 0.0279(2) 0.05572(15) 0.16667(9)
O9 O 0.50151(17) 0.11632(12) 0.01037(6)
C7 C 0.1402(3) -0.08171(18) 0.25923(9)
H2 H 0.1785 -0.1277 0.2902
C8 C 0.1690(3) -0.10993(18) 0.19853(10)
H3 H 0.2237 -0.1757 0.1893
H4 H 0.539(4) 0.162(3) -0.0119(16)
H5 H 0.242(3) 0.190(2) -0.0744(10)
H6 H 0.086(2) 0.155(3) -0.0436(14)
Co1G Co 0.16880(3) -0.33218(2) 0.070561(12)
Co1E Co -0.16880(3) 0.16782(2) 0.429439(12)
Co2A Co 0.16783(3) -0.00030(2) 0.465820(12)
Co2D Co -0.33217(3) -0.00030(2) 0.034180(12)
Co2D_2 Co 0.66783(3) -0.00030(2) 0.034180(12)
O2G O 0.37267(19) 0.33623(11) 0.06695(7)
O3E O 0.43202(19) 0.12721(12) 0.15041(7)
O4A O 0.4084(2) 0.01562(13) -0.12165(7)
O7D O 0.10552(18) -0.07421(12) -0.05933(6)
O9D O 0.49849(17) -0.11632(12) -0.01037(6)
H4D H 0.461(4) -0.162(3) 0.0119(16)
loop_
_geom_bond_atom_site_label_1
_geom_bond_atom_site_label_2
_geom_bond_site_symmetry_1
_geom_bond_site_symmetry_2
Co1 O1 1_555 1_555
Co2 O1 1_555 1_555
O1 C2 1_555 1_555
O2 C2 1_555 1_555
O3 C1 1_555 1_555
O4 C1 1_555 1_555
O5 Co2 1_555 1_555
C1 C3 1_555 1_555
C2 C5 1_555 1_555
S1 O6 1_555 1_555
O7 S1 1_555 1_555
O8 Co1 1_555 1_555
C3 C4 1_555 1_555
C4 H1 1_555 1_555
C5 C6 1_555 1_555
C6 S1 1_555 1_555
O9 Co1 1_555 1_555
C7 C3 1_555 1_555
H2 C7 1_555 1_555
C8 C5 1_555 1_555
H3 C8 1_555 1_555
H4 O9 1_555 1_555
H5 O5 1_555 1_555
H6 O5 1_555 1_555
Co1G O2 1_555 1_555
Co1E O3 1_555 1_555
Co2A O4 1_555 1_555
Co2D O7 1_555 1_555
Co2D_2 O9 1_555 1_555
O2G Co1 1_555 1_555
O3E Co1 1_555 1_555
O4A Co2 1_555 1_555
O7D Co2 1_555 1_555
O9D Co2 1_555 1_555
H4D O9D 1_555 1_555
Co2 O9 1_555 1_555
S1 O8 1_555 1_555
C4 C6 1_555 1_555
C7 C8 1_555 1_555
Co2D_2 O9D 1_555 1_555

#END
