
#######################################################################
#
#                 Cambridge Crystallographic Data Centre
#                                CCDC 
#
#######################################################################
#
# If this CIF has been generated from an entry in the Cambridge 
# Structural Database, then it will include bibliographic, chemical, 
# crystal, experimental, refinement or atomic coordinate data resulting 
# from the CCDC's data processing and validation procedures.
#
#######################################################################

data_WAPCUN
_symmetry_cell_setting           triclinic
_symmetry_space_group_name_H-M   'P -1'
_symmetry_Int_Tables_number      2
_space_group_name_Hall           '-P 1'
loop_
_symmetry_equiv_pos_site_id
_symmetry_equiv_pos_as_xyz
1 x,y,z
2 -x,-y,-z
_cell_length_a                   9.2582(19)
_cell_length_b                   13.590(3)
_cell_length_c                   25.513(5)
_cell_angle_alpha                86.71(3)
_cell_angle_beta                 87.74(3)
_cell_angle_gamma                85.16(3)
_cell_volume                     3191.37
loop_
_atom_site_label
_atom_site_type_symbol
_atom_site_fract_x
_atom_site_fract_y
_atom_site_fract_z
Cd1 Cd 0.46658(10) 0.98018(6) 0.24853(3)
Cd2 Cd 1.10335(10) 1.46334(6) -0.25632(3)
O1 O 1.0334(10) 1.3238(6) -0.2072(3)
O2 O 1.0351(10) 1.4555(6) -0.1649(3)
O3 O 0.6864(9) 1.0014(6) 0.1999(3)
O4 O 0.4898(9) 0.9981(6) 0.1559(3)
O5 O 0.8657(10) 1.4459(6) 0.0178(3)
O6 O 0.9019(10) 1.3125(6) 0.0661(3)
O7 O 1.1173(11) 1.1168(8) 0.1118(4)
O8 O 1.1391(10) 1.1197(7) 0.0282(4)
O9 O 0.8814(9) 0.4805(6) 0.6956(3)
O10 O 1.0927(10) 0.4856(6) 0.6519(3)
O11 O 0.5508(10) 0.8324(6) 0.2920(3)
O12 O 0.5192(11) 0.9628(6) 0.3390(3)
O13 O 0.4371(10) 0.5793(8) 0.6054(4)
O14 O 0.4385(9) 0.6060(7) 0.5222(4)
O15 O 0.6283(10) 0.9316(6) 0.5232(3)
O16 O 0.6162(10) 0.7934(6) 0.5670(3)
N1 N 0.8978(10) 1.3565(7) 0.0231(4)
N2 N 1.0649(12) 1.1164(8) 0.0694(5)
N3 N 0.5007(12) 0.5916(7) 0.5634(4)
N4 N 0.6238(9) 0.8437(7) 0.5259(4)
N5 N 0.3338(11) 1.4053(8) -0.2518(4)
N6 N 0.5208(12) 1.3275(8) -0.2112(4)
N7 N 0.3910(11) 1.1390(7) 0.2567(4)
N8 N 0.3150(11) 1.2924(7) 0.2340(4)
N9 N 0.1362(12) 0.6223(7) 0.7497(4)
N10 N 0.1809(12) 0.7755(7) 0.7284(4)
N11 N 0.2447(10) 0.9265(7) 0.2487(4)
N12 N 0.0607(11) 0.8467(7) 0.2836(4)
C1 C 0.9014(13) 1.2014(8) -0.0240(4)
C2 C 0.9237(11) 1.2999(8) -0.0242(4)
C3 C 0.9620(13) 1.3554(8) -0.0696(4)
H1 H 0.9721 1.4227 -0.0685
C4 C 0.9845(12) 1.3093(8) -0.1156(4)
C5 C 0.9592(14) 1.2105(9) -0.1168(4)
H2 H 0.9727 1.1787 -0.1482
C6 C 0.9142(15) 1.1592(8) -0.0718(5)
H3 H 0.8918 1.0941 -0.0739
C7 C 1.0156(13) 1.3688(10) -0.1659(4)
C8 C 0.8358(14) 1.1435(7) 0.0223(4)
C9 C 0.9085(14) 1.1057(8) 0.0661(5)
C10 C 0.8453(15) 1.0619(8) 0.1091(4)
H4 H 0.8991 1.0403 0.1381
C11 C 0.6962(13) 1.0502(7) 0.1084(4)
C12 C 0.6202(14) 1.0808(9) 0.0642(5)
H5 H 0.5221 1.0712 0.0631
C13 C 0.6884(13) 1.1253(8) 0.0219(4)
H6 H 0.6362 1.1440 -0.0080
C14 C 0.6200(14) 1.0119(8) 0.1582(5)
C15 C 0.7363(13) 0.6303(7) 0.5191(4)
C16 C 0.6614(13) 0.5853(7) 0.5616(4)
C17 C 0.7310(12) 0.5413(7) 0.6043(4)
H7 H 0.6780 0.5150 0.6327
C18 C 0.8811(13) 0.5364(7) 0.6048(4)
C19 C 0.9588(12) 0.5745(8) 0.5622(4)
H8 H 1.0597 0.5689 0.5614
C20 C 0.8844(12) 0.6210(7) 0.5208(4)
H9 H 0.9376 0.6474 0.4925
C21 C 0.9553(15) 0.4965(8) 0.6547(5)
C22 C 0.6685(12) 0.6930(7) 0.4741(4)
C23 C 0.6203(10) 0.7918(7) 0.4767(4)
C24 C 0.5799(11) 0.8501(7) 0.4323(4)
H10 H 0.5498 0.9167 0.4352
C25 C 0.5844(11) 0.8091(8) 0.3842(4)
C26 C 0.6313(13) 0.7099(8) 0.3807(4)
H11 H 0.6345 0.6817 0.3482
C27 C 0.6735(13) 0.6523(7) 0.4248(4)
H12 H 0.7055 0.5861 0.4217
C28 C 0.5502(12) 0.8743(9) 0.3342(5)
C29 C 0.3755(14) 1.3358(9) -0.2146(5)
H13 H 0.3126 1.2986 -0.1941
C30 C 0.4638(18) 1.4375(10) -0.2717(5)
H14 H 0.4717 1.4862 -0.2985
C31 C 0.5771(15) 1.3898(13) -0.2472(5)
H15 H 0.6748 1.3984 -0.2540
C32 C 0.6031(14) 1.2612(10) -0.1712(5)
H16 H 0.5897 1.1925 -0.1766
H17 H 0.7059 1.2702 -0.1751
C33 C 0.5484(13) 1.2865(9) -0.1172(5)
C34 C 0.4433(17) 1.2344(10) -0.0913(5)
H18 H 0.4033 1.1849 -0.1083
C35 C 0.3973(14) 1.2540(10) -0.0418(6)
H19 H 0.3278 1.2163 -0.0252
C36 C 0.4496(12) 1.3278(9) -0.0149(5)
C37 C 0.5560(13) 1.3808(9) -0.0414(5)
H20 H 0.5954 1.4307 -0.0246
C38 C 0.6031(13) 1.3612(9) -0.0911(5)
H21 H 0.6731 1.3984 -0.1078
C39 C 0.4063(13) 1.3472(8) 0.0396(5)
C40 C 0.2654(15) 1.3499(9) 0.0575(5)
H22 H 0.1950 1.3428 0.0333
C41 C 0.2205(14) 1.3624(10) 0.1083(6)
H23 H 0.1226 1.3623 0.1180
C42 C 0.3199(18) 1.3752(9) 0.1450(5)
C43 C 0.4601(18) 1.3764(9) 0.1293(6)
H24 H 0.5283 1.3869 0.1538
C44 C 0.5053(14) 1.3627(10) 0.0783(6)
H25 H 0.6034 1.3636 0.0690
C45 C 0.2715(15) 1.3829(9) 0.2010(5)
H26 H 0.3125 1.4390 0.2149
H27 H 0.1668 1.3950 0.2031
C46 C 0.3621(15) 1.2030(9) 0.2167(4)
H28 H 0.3728 1.1883 0.1815
C47 C 0.3601(17) 1.1887(12) 0.3005(5)
H29 H 0.3696 1.1618 0.3347
C48 C 0.3131(18) 1.2837(11) 0.2873(5)
H30 H 0.2851 1.3332 0.3102
C49 C 0.1570(15) 0.6894(9) 0.7117(5)
H31 H 0.1549 0.6769 0.6763
C50 C 0.1525(17) 0.6728(11) 0.7946(5)
H32 H 0.1459 0.6457 0.8288
C51 C 0.1790(16) 0.7665(10) 0.7811(5)
H33 H 0.1933 0.8156 0.8039
C52 C 0.2074(17) 0.8679(9) 0.6975(5)
H34 H 0.3083 0.8809 0.6998
H35 H 0.1481 0.9226 0.7121
C53 C 0.1722(18) 0.8612(8) 0.6403(5)
C54 C 0.0315(17) 0.8682(10) 0.6247(6)
H36 H -0.0446 0.8808 0.6489
C55 C 0.0035(13) 0.8565(9) 0.5729(6)
H37 H -0.0928 0.8590 0.5634
C56 C 0.1094(13) 0.8414(7) 0.5347(5)
C57 C 0.2477(16) 0.8395(11) 0.5509(6)
H38 H 0.3235 0.8310 0.5262
C58 C 0.2813(16) 0.8496(10) 0.6031(6)
H39 H 0.3775 0.8484 0.6125
C59 C 0.0799(12) 0.8269(8) 0.4797(4)
C60 C 0.1590(14) 0.7556(9) 0.4517(5)
H40 H 0.2357 0.7182 0.4676
C61 C 0.1274(15) 0.7381(8) 0.4005(5)
H41 H 0.1811 0.6888 0.3826
C62 C 0.0143(13) 0.7954(8) 0.3761(5)
C63 C -0.0634(13) 0.8663(9) 0.4028(5)
H42 H -0.1392 0.9040 0.3865
C64 C -0.0326(13) 0.8838(8) 0.4538(5)
H43 H -0.0867 0.9336 0.4712
C65 C -0.0175(13) 0.7802(9) 0.3200(5)
H44 H 0.0108 0.7121 0.3121
H45 H -0.1210 0.7925 0.3151
C66 C 0.2057(15) 0.8566(10) 0.2838(5)
H46 H 0.2696 0.8192 0.3058
C67 C 0.1213(19) 0.9605(9) 0.2260(5)
H47 H 0.1144 1.0092 0.1989
C68 C 0.0108(15) 0.9157(11) 0.2473(5)
H48 H -0.0857 0.9295 0.2386
Cd2_2 Cd 1.10335(10) 0.46334(6) 0.74368(3)
Cd2_3 Cd 0.10335(10) 1.46334(6) -0.25632(3)
Cd2_4 Cd 0.10335(10) 0.46334(6) 0.74368(3)
O9_2 O 0.8814(9) 1.4805(6) -0.3044(3)
O10_2 O 1.0927(10) 1.4856(6) -0.3481(3)
N5_2 N 1.3338(11) 1.4053(8) -0.2518(4)
N9_2 N 1.1362(12) 1.6223(7) -0.2503(4)
loop_
_geom_bond_atom_site_label_1
_geom_bond_atom_site_label_2
_geom_bond_site_symmetry_1
_geom_bond_site_symmetry_2
Cd1 O3 1_555 1_555
Cd2 O1 1_555 1_555
O1 C7 1_555 1_555
O2 Cd2 1_555 1_555
O3 C14 1_555 1_555
O4 Cd1 1_555 1_555
O5 N1 1_555 1_555
O6 N1 1_555 1_555
O7 N2 1_555 1_555
O8 N2 1_555 1_555
O9 C21 1_555 1_555
O10 C21 1_555 1_555
O11 Cd1 1_555 1_555
O12 Cd1 1_555 1_555
O13 N3 1_555 1_555
O14 N3 1_555 1_555
O15 N4 1_555 1_555
O16 N4 1_555 1_555
N1 C2 1_555 1_555
N2 C9 1_555 1_555
N3 C16 1_555 1_555
N4 C23 1_555 1_555
N5 C29 1_555 1_555
N6 C29 1_555 1_555
N7 Cd1 1_555 1_555
N8 C45 1_555 1_555
N9 C49 1_555 1_555
N10 C49 1_555 1_555
N11 Cd1 1_555 1_555
N12 C65 1_555 1_555
C1 C2 1_555 1_555
C2 C3 1_555 1_555
C3 H1 1_555 1_555
C4 C3 1_555 1_555
C5 C4 1_555 1_555
H2 C5 1_555 1_555
C6 C1 1_555 1_555
H3 C6 1_555 1_555
C7 O2 1_555 1_555
C8 C1 1_555 1_555
C9 C8 1_555 1_555
C10 C9 1_555 1_555
H4 C10 1_555 1_555
C11 C10 1_555 1_555
C12 C11 1_555 1_555
H5 C12 1_555 1_555
C13 C8 1_555 1_555
H6 C13 1_555 1_555
C14 O4 1_555 1_555
C15 C16 1_555 1_555
C16 C17 1_555 1_555
C17 H7 1_555 1_555
C18 C17 1_555 1_555
C19 C18 1_555 1_555
H8 C19 1_555 1_555
C20 C15 1_555 1_555
H9 C20 1_555 1_555
C21 C18 1_555 1_555
C22 C15 1_555 1_555
C23 C22 1_555 1_555
C24 C23 1_555 1_555
H10 C24 1_555 1_555
C25 C24 1_555 1_555
C26 C25 1_555 1_555
H11 C26 1_555 1_555
C27 C22 1_555 1_555
H12 C27 1_555 1_555
C28 O11 1_555 1_555
C29 H13 1_555 1_555
C30 N5 1_555 1_555
H14 C30 1_555 1_555
C31 N6 1_555 1_555
H15 C31 1_555 1_555
C32 N6 1_555 1_555
H16 C32 1_555 1_555
H17 C32 1_555 1_555
C33 C32 1_555 1_555
C34 C33 1_555 1_555
H18 C34 1_555 1_555
C35 C34 1_555 1_555
H19 C35 1_555 1_555
C36 C35 1_555 1_555
C37 C36 1_555 1_555
H20 C37 1_555 1_555
C38 C33 1_555 1_555
H21 C38 1_555 1_555
C39 C36 1_555 1_555
C40 C39 1_555 1_555
H22 C40 1_555 1_555
C41 C40 1_555 1_555
H23 C41 1_555 1_555
C42 C41 1_555 1_555
C43 C42 1_555 1_555
H24 C43 1_555 1_555
C44 C39 1_555 1_555
H25 C44 1_555 1_555
C45 C42 1_555 1_555
H26 C45 1_555 1_555
H27 C45 1_555 1_555
C46 N7 1_555 1_555
H28 C46 1_555 1_555
C47 N7 1_555 1_555
H29 C47 1_555 1_555
C48 N8 1_555 1_555
H30 C48 1_555 1_555
C49 H31 1_555 1_555
C50 N9 1_555 1_555
H32 C50 1_555 1_555
C51 N10 1_555 1_555
H33 C51 1_555 1_555
C52 N10 1_555 1_555
H34 C52 1_555 1_555
H35 C52 1_555 1_555
C53 C52 1_555 1_555
C54 C53 1_555 1_555
H36 C54 1_555 1_555
C55 C54 1_555 1_555
H37 C55 1_555 1_555
C56 C55 1_555 1_555
C57 C56 1_555 1_555
H38 C57 1_555 1_555
C58 C53 1_555 1_555
H39 C58 1_555 1_555
C59 C56 1_555 1_555
C60 C59 1_555 1_555
H40 C60 1_555 1_555
C61 C60 1_555 1_555
H41 C61 1_555 1_555
C62 C61 1_555 1_555
C63 C62 1_555 1_555
H42 C63 1_555 1_555
C64 C59 1_555 1_555
H43 C64 1_555 1_555
C65 C62 1_555 1_555
H44 C65 1_555 1_555
H45 C65 1_555 1_555
C66 N11 1_555 1_555
H46 C66 1_555 1_555
C67 N11 1_555 1_555
H47 C67 1_555 1_555
C68 N12 1_555 1_555
H48 C68 1_555 1_555
Cd2_2 O9 1_555 1_555
Cd2_3 N5 1_555 1_555
Cd2_4 N9 1_555 1_555
O9_2 Cd2 1_555 1_555
O10_2 Cd2 1_555 1_555
N5_2 Cd2 1_555 1_555
N9_2 Cd2 1_555 1_555
O10 Cd2_2 1_555 1_555
O12 C28 1_555 1_555
N8 C46 1_555 1_555
N12 C66 1_555 1_555
C4 C7 1_555 1_555
C5 C6 1_555 1_555
C11 C14 1_555 1_555
C12 C13 1_555 1_555
C19 C20 1_555 1_555
C25 C28 1_555 1_555
C26 C27 1_555 1_555
C30 C31 1_555 1_555
C37 C38 1_555 1_555
C43 C44 1_555 1_555
C47 C48 1_555 1_555
C50 C51 1_555 1_555
C57 C58 1_555 1_555
C63 C64 1_555 1_555
C67 C68 1_555 1_555

#END
