
#######################################################################
#
#                 Cambridge Crystallographic Data Centre
#                                CCDC 
#
#######################################################################
#
# If this CIF has been generated from an entry in the Cambridge 
# Structural Database, then it will include bibliographic, chemical, 
# crystal, experimental, refinement or atomic coordinate data resulting 
# from the CCDC's data processing and validation procedures.
#
#######################################################################

data_WAPCAT
_symmetry_cell_setting           monoclinic
_symmetry_space_group_name_H-M   'C 2/c'
_symmetry_Int_Tables_number      15
_space_group_name_Hall           '-C 2yn'
loop_
_symmetry_equiv_pos_site_id
_symmetry_equiv_pos_as_xyz
1 x,y,z
2 -x,y,1/2-z
3 1/2+x,1/2+y,z
4 1/2-x,1/2+y,1/2-z
5 -x,-y,-z
6 x,-y,1/2+z
7 1/2-x,1/2-y,-z
8 1/2+x,1/2-y,1/2+z
_cell_length_a                   12.7244(6)
_cell_length_b                   26.4144(11)
_cell_length_c                   13.2270(5)
_cell_angle_alpha                90
_cell_angle_beta                 102.738(3)
_cell_angle_gamma                90
_cell_volume                     4336.28
loop_
_atom_site_label
_atom_site_type_symbol
_atom_site_fract_x
_atom_site_fract_y
_atom_site_fract_z
Mn1 Mn 0.92292(4) 0.488884(17) 0.11079(4)
O1 O 1.0276(2) 0.55041(9) 0.1380(2)
O2 O 1.1425(2) 0.54471(9) 0.03298(19)
O3 O 1.3512(2) 0.95144(9) 0.2189(2)
O4 O 1.4611(2) 0.92827(9) 0.3674(2)
O5 O 1.1784(7) 0.7433(3) 0.3969(7)
O6 O 1.0919(10) 0.6814(4) 0.4051(9)
O7 O 1.5141(8) 0.7513(3) 0.4472(5)
O8 O 1.4182(6) 0.6935(2) 0.3580(5)
N1 N 1.1415(3) 0.70494(11) 0.3582(3)
N2 N 1.4321(3) 0.73874(11) 0.3761(3)
N3 N 0.7868(2) 0.54143(10) 0.0917(2)
N4 N 0.6687(2) 0.59758(11) 0.0143(2)
C1 C 1.2326(3) 0.71285(13) 0.2110(3)
C2 C 1.1710(3) 0.68429(12) 0.2647(3)
C3 C 1.1319(3) 0.63657(12) 0.2325(2)
H1 H 1.0925 0.6182 0.2714
C4 C 1.1521(3) 0.61654(12) 0.1423(3)
C5 C 1.2129(4) 0.64438(16) 0.0872(3)
H2 H 1.2276 0.6310 0.0269
C6 C 1.2520(4) 0.69177(16) 0.1204(3)
H3 H 1.2918 0.7099 0.0816
C7 C 1.1040(3) 0.56621(12) 0.1013(3)
C8 C 1.2734(3) 0.76565(13) 0.2385(3)
C9 C 1.3664(3) 0.77804(12) 0.3139(3)
C10 C 1.4014(3) 0.82766(12) 0.3322(3)
H4 H 1.4615 0.8349 0.3843
C11 C 1.3466(3) 0.86614(12) 0.2728(3)
C12 C 1.2552(3) 0.85498(13) 0.1962(3)
H5 H 1.2180 0.8809 0.1558
C13 C 1.2199(3) 0.80539(14) 0.1800(3)
H6 H 1.1587 0.7985 0.1288
C14 C 1.3891(3) 0.91986(12) 0.2877(3)
C15 C 0.7645(3) 0.57545(14) 0.0182(3)
H7 H 0.8096 0.5834 -0.0261
C16 C 0.7009(3) 0.54188(15) 0.1385(3)
H8 H 0.6942 0.5218 0.1944
C17 C 0.6276(3) 0.57601(16) 0.0910(3)
H9 H 0.5618 0.5834 0.1073
C18 C 0.6127(4) 0.63007(15) -0.0704(3)
H10 H 0.6647 0.6522 -0.0919
H11 H 0.5613 0.6512 -0.0456
C19 C 0.5000 0.62514(19) -0.2500
H12 H 0.5000 0.6603 -0.2500
C20 C 0.5541(3) 0.59954(14) -0.1629(3)
C21 C 0.5536(3) 0.54675(15) -0.1633(3)
H13 H 0.5894 0.5290 -0.1052
C22 C 0.5000 0.5211(2) -0.2500
H14 H 0.5000 0.4859 -0.2500
Mn1D Mn 1.07708(4) 0.511116(17) -0.11079(4)
Mn1B Mn 1.42292(4) 0.988884(17) 0.11079(4)
Mn1C Mn 1.57708(4) 0.988884(17) 0.38921(4)
Mn1A Mn 0.07708(4) 0.488884(17) -0.61079(4)
Mn1F Mn 0.57708(4) 0.011116(17) -0.11079(4)
Mn1G Mn 0.42292(4) 0.011116(17) -0.38921(4)
O1D O 0.9724(2) 0.44959(9) -0.1380(2)
O2D O 0.8575(2) 0.45529(9) -0.03298(19)
O3D O 0.6488(2) 0.04856(9) -0.2189(2)
O3B O 0.8512(2) 0.45144(9) 0.2189(2)
O3F O 1.1488(2) 0.54856(9) -0.2189(2)
O4D O 0.5389(2) 0.07173(9) -0.3674(2)
O4C O 1.0389(2) 0.42827(9) 0.1326(2)
O4G O 0.9611(2) 0.57173(9) -0.1326(2)
O5D O 0.8216(7) 0.2567(3) -0.3969(7)
O6D O 0.9081(10) 0.3186(4) -0.4051(9)
O7D O 0.4859(8) 0.2487(3) -0.4472(5)
O8D O 0.5818(6) 0.3065(2) -0.3580(5)
N1D N 0.8585(3) 0.29506(11) -0.3582(3)
N2D N 0.5679(3) 0.26126(11) -0.3761(3)
N3A N 0.2132(2) 0.54143(10) -0.5917(2)
N3D N 1.2132(2) 0.45857(10) -0.0917(2)
N4A N 0.3313(2) 0.59758(11) -0.5143(2)
C1D C 0.7674(3) 0.28715(13) -0.2110(3)
C2D C 0.8290(3) 0.31571(12) -0.2647(3)
C3D C 0.8681(3) 0.36343(12) -0.2325(2)
H1D H 0.9075 0.3818 -0.2714
C4D C 0.8479(3) 0.38346(12) -0.1423(3)
C5D C 0.7871(4) 0.35562(16) -0.0872(3)
H2D H 0.7724 0.3690 -0.0269
C6D C 0.7480(4) 0.30823(16) -0.1204(3)
H3D H 0.7082 0.2901 -0.0816
C7D C 0.8960(3) 0.43379(12) -0.1013(3)
C8D C 0.7266(3) 0.23435(13) -0.2385(3)
C9D C 0.6336(3) 0.22196(12) -0.3139(3)
C10D C 0.5986(3) 0.17234(12) -0.3322(3)
H4D H 0.5385 0.1651 -0.3843
C11D C 0.6534(3) 0.13386(12) -0.2728(3)
C12D C 0.7448(3) 0.14502(13) -0.1962(3)
H5D H 0.7820 0.1191 -0.1558
C13D C 0.7801(3) 0.19461(14) -0.1800(3)
H6D H 0.8413 0.2015 -0.1288
C14D C 0.6109(3) 0.08014(12) -0.2877(3)
C15A C 0.2355(3) 0.57545(14) -0.5182(3)
H7A H 0.1904 0.5834 -0.4739
C16A C 0.2991(3) 0.54188(15) -0.6385(3)
H8A H 0.3058 0.5218 -0.6944
C17A C 0.3724(3) 0.57601(16) -0.5910(3)
H9A H 0.4382 0.5834 -0.6073
C18A C 0.3873(4) 0.63007(15) -0.4296(3)
H10A H 0.3353 0.6522 -0.4081
H11A H 0.4387 0.6512 -0.4544
C20A C 0.4459(3) 0.59954(14) -0.3371(3)
C21A C 0.4464(3) 0.54675(15) -0.3367(3)
H13A H 0.4106 0.5290 -0.3948
O9 O 0.6316(7) 0.4381(4) -0.0084(8)
O10? O 1.1069(13) 0.7508(7) 0.3469(14)
O11? O 1.1279(14) 0.7536(7) 0.3621(13)
O12? O 1.1167(17) 0.6704(5) 0.4209(17)
O13? O 1.1392(15) 0.6786(6) 0.4318(15)
O14? O 1.5213(8) 0.7480(3) 0.4104(5)
O15? O 1.3764(6) 0.7012(2) 0.3957(5)
loop_
_geom_bond_atom_site_label_1
_geom_bond_atom_site_label_2
_geom_bond_site_symmetry_1
_geom_bond_site_symmetry_2
Mn1 O1 1_555 1_555
O1 C7 1_555 1_555
O2 C7 1_555 1_555
O3 C14 1_555 1_555
O4 C14 1_555 1_555
O5 N1 1_555 1_555
O6 N1 1_555 1_555
O7 N2 1_555 1_555
O8 N2 1_555 1_555
N1 C2 1_555 1_555
N2 C9 1_555 1_555
N3 Mn1 1_555 1_555
N4 C15 1_555 1_555
C1 C2 1_555 1_555
C2 C3 1_555 1_555
C3 H1 1_555 1_555
C4 C3 1_555 1_555
C5 C4 1_555 1_555
H2 C5 1_555 1_555
C6 C1 1_555 1_555
H3 C6 1_555 1_555
C7 C4 1_555 1_555
C8 C1 1_555 1_555
C9 C8 1_555 1_555
C10 C9 1_555 1_555
H4 C10 1_555 1_555
C11 C10 1_555 1_555
C12 C11 1_555 1_555
H5 C12 1_555 1_555
C13 C8 1_555 1_555
H6 C13 1_555 1_555
C14 C11 1_555 1_555
C15 N3 1_555 1_555
H7 C15 1_555 1_555
C16 N3 1_555 1_555
H8 C16 1_555 1_555
C17 N4 1_555 1_555
H9 C17 1_555 1_555
C18 N4 1_555 1_555
H10 C18 1_555 1_555
H11 C18 1_555 1_555
C19 H12 1_555 1_555
C20 C18 1_555 1_555
C21 C20 1_555 1_555
H13 C21 1_555 1_555
C22 C21 1_555 1_555
H14 C22 1_555 1_555
Mn1D O2 1_555 1_555
Mn1B O3 1_555 1_555
Mn1C O4 1_555 1_555
Mn1A N3A 1_555 1_555
Mn1F O3D 1_555 1_555
Mn1G O4D 1_555 1_555
O1D Mn1D 1_555 1_555
O2D Mn1 1_555 1_555
O3D C14D 1_555 1_555
O3B Mn1 1_555 1_555
O3F Mn1D 1_555 1_555
O4D C14D 1_555 1_555
O4C Mn1 1_555 1_555
O4G Mn1D 1_555 1_555
O5D N1D 1_555 1_555
O6D N1D 1_555 1_555
O7D N2D 1_555 1_555
O8D N2D 1_555 1_555
N1D C2D 1_555 1_555
N2D C9D 1_555 1_555
N3A C15A 1_555 1_555
N3D Mn1D 1_555 1_555
N4A C15A 1_555 1_555
C1D C2D 1_555 1_555
C2D C3D 1_555 1_555
C3D H1D 1_555 1_555
C4D C3D 1_555 1_555
C5D C4D 1_555 1_555
H2D C5D 1_555 1_555
C6D C1D 1_555 1_555
H3D C6D 1_555 1_555
C7D O1D 1_555 1_555
C8D C1D 1_555 1_555
C9D C8D 1_555 1_555
C10D C9D 1_555 1_555
H4D C10D 1_555 1_555
C11D C10D 1_555 1_555
C12D C11D 1_555 1_555
H5D C12D 1_555 1_555
C13D C8D 1_555 1_555
H6D C13D 1_555 1_555
C14D C11D 1_555 1_555
C15A H7A 1_555 1_555
C16A N3A 1_555 1_555
H8A C16A 1_555 1_555
C17A N4A 1_555 1_555
H9A C17A 1_555 1_555
C18A N4A 1_555 1_555
H10A C18A 1_555 1_555
H11A C18A 1_555 1_555
C20A C19 1_555 1_555
C21A C22 1_555 1_555
H13A C21A 1_555 1_555
C5 C6 1_555 1_555
C12 C13 1_555 1_555
C16 C17 1_555 1_555
C19 C20 1_555 1_555
O2D C7D 1_555 1_555
C4D C7D 1_555 1_555
C5D C6D 1_555 1_555
C12D C13D 1_555 1_555
C16A C17A 1_555 1_555
C18A C20A 1_555 1_555
C20A C21A 1_555 1_555

#END
