
#######################################################################
#
#                 Cambridge Crystallographic Data Centre
#                                CCDC 
#
#######################################################################
#
# If this CIF has been generated from an entry in the Cambridge 
# Structural Database, then it will include bibliographic, chemical, 
# crystal, experimental, refinement or atomic coordinate data resulting 
# from the CCDC's data processing and validation procedures.
#
#######################################################################

data_WAPKII
_symmetry_cell_setting           triclinic
_symmetry_space_group_name_H-M   'P -1'
_symmetry_Int_Tables_number      2
_space_group_name_Hall           '-P 1'
loop_
_symmetry_equiv_pos_site_id
_symmetry_equiv_pos_as_xyz
1 x,y,z
2 -x,-y,-z
_cell_length_a                   8.8398(4)
_cell_length_b                   9.1740(4)
_cell_length_c                   11.3638(5)
_cell_angle_alpha                70.3640(10)
_cell_angle_beta                 79.2050(10)
_cell_angle_gamma                62.4630(10)
_cell_volume                     769.077
loop_
_atom_site_label
_atom_site_type_symbol
_atom_site_fract_x
_atom_site_fract_y
_atom_site_fract_z
Hg1 Hg 0.63958(6) -0.06558(7) 0.19807(5)
I1 I 0.76475(10) -0.04116(13) -0.03310(8)
I2 I 0.45405(11) -0.16995(13) 0.38459(8)
S1 S 0.0913(4) 0.5784(5) 0.2010(3)
S2 S 0.2878(4) 0.3390(5) 0.2425(4)
N1 N 0.6157(12) 0.2254(14) 0.1966(10)
N2 N -0.0836(12) 0.7916(14) 0.3349(10)
C1 C 0.4752(15) 0.3721(18) 0.1944(12)
C2 C 0.477(2) 0.5316(18) 0.1621(13)
H1 H 0.377(17) 0.63(2) 0.164(13)
C3 C 0.632(2) 0.538(2) 0.1269(17)
H2 H 0.638(18) 0.64(2) 0.102(15)
C4 C 0.781(2) 0.385(2) 0.1282(15)
H3 H 0.886(17) 0.39(2) 0.105(14)
C5 C 0.7688(18) 0.234(2) 0.1630(14)
H4 H 0.867(18) 0.13(2) 0.164(14)
C6 C 0.0599(14) 0.6478(17) 0.3365(12)
C7 C 0.1737(16) 0.571(2) 0.4281(13)
H5 H 0.275(17) 0.48(2) 0.424(13)
C8 C 0.1361(17) 0.638(2) 0.5266(12)
H6 H 0.206(17) 0.583(19) 0.595(13)
C9 C -0.0099(18) 0.791(2) 0.5231(13)
H7 H -0.033(16) 0.847(19) 0.584(13)
C10 C -0.1151(16) 0.8556(19) 0.4304(13)
H8 H -0.217(16) 0.952(18) 0.433(12)
Hg1_2 Hg -0.36042(6) 0.93442(7) 0.19807(5)
N2_2 N 0.9164(12) -0.2084(14) 0.3349(10)
loop_
_geom_bond_atom_site_label_1
_geom_bond_atom_site_label_2
_geom_bond_site_symmetry_1
_geom_bond_site_symmetry_2
Hg1 I1 1_555 1_555
I2 Hg1 1_555 1_555
S1 S2 1_555 1_555
S2 C1 1_555 1_555
N1 Hg1 1_555 1_555
N2 C6 1_555 1_555
C1 N1 1_555 1_555
C2 C1 1_555 1_555
H1 C2 1_555 1_555
C3 C2 1_555 1_555
H2 C3 1_555 1_555
C4 C3 1_555 1_555
H3 C4 1_555 1_555
C5 N1 1_555 1_555
H4 C5 1_555 1_555
C6 S1 1_555 1_555
C7 C6 1_555 1_555
H5 C7 1_555 1_555
C8 C7 1_555 1_555
H6 C8 1_555 1_555
C9 C8 1_555 1_555
H7 C9 1_555 1_555
C10 N2 1_555 1_555
H8 C10 1_555 1_555
Hg1_2 N2 1_555 1_555
N2_2 Hg1 1_555 1_555
C4 C5 1_555 1_555
C9 C10 1_555 1_555

#END
