
#######################################################################
#
#                 Cambridge Crystallographic Data Centre
#                                CCDC 
#
#######################################################################
#
# If this CIF has been generated from an entry in the Cambridge 
# Structural Database, then it will include bibliographic, chemical, 
# crystal, experimental, refinement or atomic coordinate data resulting 
# from the CCDC's data processing and validation procedures.
#
#######################################################################

data_WAPMOQ
_symmetry_cell_setting           orthorhombic
_symmetry_space_group_name_H-M   'P n a 21'
_symmetry_Int_Tables_number      33
_space_group_name_Hall           'P 2c -2n'
loop_
_symmetry_equiv_pos_site_id
_symmetry_equiv_pos_as_xyz
1 x,y,z
2 -x,-y,1/2+z
3 1/2+x,1/2-y,z
4 1/2-x,1/2+y,1/2+z
_cell_length_a                   7.9996(16)
_cell_length_b                   8.2377(16)
_cell_length_c                   24.153(5)
_cell_angle_alpha                90
_cell_angle_beta                 90
_cell_angle_gamma                90
_cell_volume                     1591.64
loop_
_atom_site_label
_atom_site_type_symbol
_atom_site_fract_x
_atom_site_fract_y
_atom_site_fract_z
Ca1 Ca -0.62686(5) 0.19472(3) 0.22262(4)
O1 O -0.6264(4) 0.2324(3) 0.12306(13)
H1 H -0.558(3) 0.283(4) 0.1028(11)
H2 H -0.703(3) 0.191(4) 0.1042(11)
O2 O -0.6252(4) 0.2287(4) 0.32092(16)
H3 H -0.674(5) 0.303(4) 0.3396(13)
H4 H -0.567(4) 0.171(4) 0.3423(12)
O3 O -0.32503(17) 0.08717(16) 0.22900(8)
O4 O -0.51920(19) -0.05976(19) 0.26957(7)
O5 O -0.3413(2) 0.06893(19) 0.37746(8)
O6 O -0.42858(17) 0.41250(16) 0.21625(8)
O7 O -0.23451(18) 0.55951(19) 0.17552(8)
O8 O -0.4096(2) 0.43408(19) 0.06737(8)
N1 N -0.3026(3) -0.1856(4) 0.34418(11)
N2 N -0.4509(3) 0.6916(3) 0.10178(10)
C1 C -0.3714(3) -0.0238(2) 0.26161(8)
C2 C -0.2363(3) -0.1178(3) 0.29266(9)
H5 H -0.1949 -0.2050 0.2694
H6 H -0.1436 -0.0460 0.3010
C3 C -0.3547(4) -0.0835(4) 0.38502(15)
C4 C -0.4255(5) -0.1541(6) 0.43299(17)
H7 H -0.4614 -0.0873 0.4617
C5 C -0.4421(5) -0.3168(5) 0.43793(17)
H8 H -0.4886 -0.3613 0.4698
C6 C -0.3894(4) -0.4167(5) 0.39532(16)
H9 H -0.4014 -0.5286 0.3986
C7 C -0.3202(4) -0.3528(4) 0.34868(14)
H10 H -0.2851 -0.4204 0.3201
C8 C -0.3824(3) 0.5232(2) 0.18341(8)
C9 C -0.5172(3) 0.6177(3) 0.15260(9)
H11 H -0.6083 0.5451 0.1432
H12 H -0.5611 0.7021 0.1765
C10 C -0.3960(4) 0.5830(4) 0.06088(13)
C11 C -0.3303(5) 0.6601(5) 0.01234(17)
H13 H -0.2959 0.5961 -0.0173
C12 C -0.3167(5) 0.8236(5) 0.00836(19)
H14 H -0.2728 0.8695 -0.0237
C13 C -0.3684(4) 0.9257(5) 0.05232(17)
H15 H -0.3573 1.0380 0.0503
C14 C -0.4350(4) 0.8523(5) 0.09760(16)
H16 H -0.4709 0.9167 0.1269
Ca1B Ca -0.12686(5) 0.30528(3) 0.22262(4)
O3B O -0.82503(17) 0.41283(16) 0.22900(8)
O6B O -0.92858(17) 0.08750(16) 0.21625(8)
O7B O -0.73451(18) -0.05951(19) 0.17552(8)
loop_
_geom_bond_atom_site_label_1
_geom_bond_atom_site_label_2
_geom_bond_site_symmetry_1
_geom_bond_site_symmetry_2
Ca1 O1 1_555 1_555
O1 H1 1_555 1_555
H2 O1 1_555 1_555
O2 Ca1 1_555 1_555
H3 O2 1_555 1_555
H4 O2 1_555 1_555
O3 Ca1 1_555 1_555
O4 Ca1 1_555 1_555
O5 C3 1_555 1_555
O6 Ca1 1_555 1_555
O7 C8 1_555 1_555
O8 C10 1_555 1_555
N1 C2 1_555 1_555
N2 C9 1_555 1_555
C1 O3 1_555 1_555
C2 C1 1_555 1_555
H5 C2 1_555 1_555
H6 C2 1_555 1_555
C3 N1 1_555 1_555
C4 C3 1_555 1_555
H7 C4 1_555 1_555
C5 C4 1_555 1_555
H8 C5 1_555 1_555
C6 C5 1_555 1_555
H9 C6 1_555 1_555
C7 N1 1_555 1_555
H10 C7 1_555 1_555
C8 O6 1_555 1_555
C9 C8 1_555 1_555
H11 C9 1_555 1_555
H12 C9 1_555 1_555
C10 N2 1_555 1_555
C11 C10 1_555 1_555
H13 C11 1_555 1_555
C12 C11 1_555 1_555
H14 C12 1_555 1_555
C13 C12 1_555 1_555
H15 C13 1_555 1_555
C14 N2 1_555 1_555
H16 C14 1_555 1_555
Ca1B O3 1_555 1_555
O3B Ca1 1_555 1_555
O6B Ca1 1_555 1_555
O7B Ca1 1_555 1_555
O4 C1 1_555 1_555
O6 Ca1B 1_555 1_555
O7 Ca1B 1_555 1_555
C6 C7 1_555 1_555
C13 C14 1_555 1_555

#END
