
#######################################################################
#
#                 Cambridge Crystallographic Data Centre
#                                CCDC 
#
#######################################################################
#
# If this CIF has been generated from an entry in the Cambridge 
# Structural Database, then it will include bibliographic, chemical, 
# crystal, experimental, refinement or atomic coordinate data resulting 
# from the CCDC's data processing and validation procedures.
#
#######################################################################

data_WAPMOQ01
_symmetry_cell_setting           orthorhombic
_symmetry_space_group_name_H-M   'P n a 21'
_symmetry_Int_Tables_number      33
_space_group_name_Hall           'P 2c -2n'
loop_
_symmetry_equiv_pos_site_id
_symmetry_equiv_pos_as_xyz
1 x,y,z
2 -x,-y,1/2+z
3 1/2+x,1/2-y,z
4 1/2-x,1/2+y,1/2+z
_cell_length_a                   7.9996(16)
_cell_length_b                   8.2377(16)
_cell_length_c                   24.153(5)
_cell_angle_alpha                90
_cell_angle_beta                 90
_cell_angle_gamma                90
_cell_volume                     1591.64
loop_
_atom_site_label
_atom_site_type_symbol
_atom_site_fract_x
_atom_site_fract_y
_atom_site_fract_z
Ca1 Ca 0.37314(5) 0.19473(3) 0.22263(4)
N1 N 0.6973(3) -0.1857(3) 0.34417(11)
N2 N 0.5491(3) 0.6916(3) 0.10177(10)
O1 O 0.67497(18) 0.08714(17) 0.22900(8)
O2 O 0.48079(19) -0.0598(2) 0.26958(8)
O3 O 0.6586(2) 0.0689(2) 0.37746(8)
O4 O 0.57140(18) 0.41250(17) 0.21624(8)
O5 O 0.76546(18) 0.55950(19) 0.17553(8)
O6 O 0.5904(2) 0.43406(19) 0.06737(8)
O7 O 0.3737(3) 0.2323(3) 0.12310(12)
O8 O 0.3748(4) 0.2286(4) 0.32097(16)
C1 C 0.6285(3) -0.0238(2) 0.26161(8)
C2 C 0.7636(3) -0.1179(3) 0.29266(9)
C3 C 0.6454(4) -0.0836(4) 0.38499(15)
C4 C 0.5744(5) -0.1541(5) 0.43296(17)
C5 C 0.5579(5) -0.3168(5) 0.43790(17)
C6 C 0.6106(4) -0.4166(5) 0.39537(16)
C7 C 0.6798(4) -0.3527(4) 0.34867(13)
C8 C 0.6176(3) 0.5232(2) 0.18339(8)
C9 C 0.4828(3) 0.6177(3) 0.15259(9)
C10 C 0.6041(4) 0.5829(4) 0.06086(13)
C11 C 0.6697(5) 0.6602(5) 0.01228(16)
C12 C 0.6833(5) 0.8236(5) 0.00831(18)
C13 C 0.6316(4) 0.9261(5) 0.05234(17)
C14 C 0.5651(4) 0.8525(5) 0.09762(16)
H1 H 0.442(3) 0.283(4) 0.1028(11)
H2 H 0.296(3) 0.190(4) 0.1044(11)
H3 H 0.327(5) 0.304(4) 0.3397(13)
H4 H 0.431(4) 0.169(4) 0.3423(12)
H5 H 0.8051 -0.2050 0.2694
H6 H 0.8563 -0.0461 0.3010
H7 H 0.5385 -0.0873 0.4616
H8 H 0.5113 -0.3613 0.4698
H9 H 0.5986 -0.5285 0.3986
H10 H 0.7149 -0.4203 0.3201
H11 H 0.3916 0.5452 0.1432
H12 H 0.4390 0.7021 0.1765
H13 H 0.7039 0.5962 -0.0174
H14 H 0.7272 0.8694 -0.0237
H15 H 0.6428 1.0383 0.0503
H16 H 0.5292 0.9168 0.1269
Ca1B Ca 0.87314(5) 0.30527(3) 0.22263(4)
O1B O 0.17497(18) 0.41286(17) 0.22900(8)
O4B O 0.07140(18) 0.08750(17) 0.21624(8)
O5B O 0.26546(18) -0.05950(19) 0.17553(8)
loop_
_geom_bond_atom_site_label_1
_geom_bond_atom_site_label_2
_geom_bond_site_symmetry_1
_geom_bond_site_symmetry_2
Ca1 O1 1_555 1_555
N1 C2 1_555 1_555
N2 C9 1_555 1_555
O1 C1 1_555 1_555
O2 Ca1 1_555 1_555
O3 C3 1_555 1_555
O4 Ca1 1_555 1_555
O5 C8 1_555 1_555
O6 C10 1_555 1_555
O7 Ca1 1_555 1_555
O8 Ca1 1_555 1_555
C1 O2 1_555 1_555
C2 C1 1_555 1_555
C3 N1 1_555 1_555
C4 C3 1_555 1_555
C5 C4 1_555 1_555
C6 C5 1_555 1_555
C7 N1 1_555 1_555
C8 O4 1_555 1_555
C9 C8 1_555 1_555
C10 N2 1_555 1_555
C11 C10 1_555 1_555
C12 C11 1_555 1_555
C13 C12 1_555 1_555
C14 N2 1_555 1_555
H1 O7 1_555 1_555
H2 O7 1_555 1_555
H3 O8 1_555 1_555
H4 O8 1_555 1_555
H5 C2 1_555 1_555
H6 C2 1_555 1_555
H7 C4 1_555 1_555
H8 C5 1_555 1_555
H9 C6 1_555 1_555
H10 C7 1_555 1_555
H11 C9 1_555 1_555
H12 C9 1_555 1_555
H13 C11 1_555 1_555
H14 C12 1_555 1_555
H15 C13 1_555 1_555
H16 C14 1_555 1_555
Ca1B O1 1_555 1_555
O1B Ca1 1_555 1_555
O4B Ca1 1_555 1_555
O5B Ca1 1_555 1_555
O4 Ca1B 1_555 1_555
O5 Ca1B 1_555 1_555
C6 C7 1_555 1_555
C13 C14 1_555 1_555

#END
