
#######################################################################
#
#                 Cambridge Crystallographic Data Centre
#                                CCDC 
#
#######################################################################
#
# If this CIF has been generated from an entry in the Cambridge 
# Structural Database, then it will include bibliographic, chemical, 
# crystal, experimental, refinement or atomic coordinate data resulting 
# from the CCDC's data processing and validation procedures.
#
#######################################################################

data_WAPNOR
_symmetry_cell_setting           monoclinic
_symmetry_space_group_name_H-M   'P 21/n'
_symmetry_Int_Tables_number      14
_space_group_name_Hall           '-P 2yn'
loop_
_symmetry_equiv_pos_site_id
_symmetry_equiv_pos_as_xyz
1 x,y,z
2 1/2-x,1/2+y,1/2-z
3 -x,-y,-z
4 1/2+x,1/2-y,1/2+z
_cell_length_a                   9.279(6)
_cell_length_b                   11.730(2)
_cell_length_c                   14.71(2)
_cell_angle_alpha                90
_cell_angle_beta                 106.96(2)
_cell_angle_gamma                90
_cell_volume                     1531.44
loop_
_atom_site_label
_atom_site_type_symbol
_atom_site_fract_x
_atom_site_fract_y
_atom_site_fract_z
N1 N 1.28120(18) 0.83471(14) 0.54499(11)
S1 S 1.45394(5) 0.70255(4) 0.74154(3)
Cu1 Cu 1.07280(2) 0.884042(19) 0.517069(16)
Cu2 Cu 1.0000 1.5000 0.5000
C1 C 1.3141(2) 0.65300(17) 0.63763(14)
C2 C 1.3201(2) 0.71275(17) 0.54649(14)
H1 H 1.416(3) 0.705(2) 0.5434(18)
H2 H 1.251(3) 0.675(2) 0.4931(18)
C3 C 1.3924(2) 0.90469(17) 0.57031(14)
H3 H 1.485(3) 0.877(2) 0.5846(18)
C4 C 1.3887(2) 1.02753(17) 0.58042(13)
C5 C 1.5293(2) 1.07905(18) 0.62034(14)
H4 H 1.608(3) 1.036(2) 0.636(2)
C6 C 1.5436(2) 1.19563(17) 0.63216(14)
H5 H 1.642(3) 1.224(3) 0.660(2)
C7 C 1.4155(2) 1.26258(17) 0.60270(14)
H6 H 1.420(3) 1.340(3) 0.609(2)
C8 C 1.2725(2) 1.21571(16) 0.56222(13)
C9 C 1.2563(2) 1.09591(16) 0.55107(13)
C10 C 1.1447(2) 1.29729(16) 0.53225(13)
O1 O 0.96341(18) 1.48858(13) 0.62272(11)
O2 O 1.17611(15) 1.40316(12) 0.54423(10)
O3 O 0.99076(15) 0.73255(12) 0.50496(10)
O4 O 1.09661(18) 0.89196(14) 0.68447(11)
H7 H 1.176(3) 0.874(2) 0.714(2)
O5 O 1.12418(14) 1.04560(11) 0.51374(9)
O6 O 1.46040(18) 0.61958(13) 0.81617(11)
O7 O 1.59447(16) 0.70925(13) 0.71583(11)
O8 O 1.40308(16) 0.81475(12) 0.76345(11)
H11 H 1.222(3) 0.661(2) 0.6492(18)
H12 H 1.333(3) 0.571(2) 0.6314(18)
H14 H 1.094(4) 0.962(3) 0.691(2)
N1B N 0.71880(18) 1.16529(14) 0.45501(11)
S1B S 0.54606(5) 1.29745(4) 0.25846(3)
Cu1B Cu 0.92720(2) 1.115958(19) 0.482931(16)
Cu2_2 Cu 1.0000 0.5000 0.5000
C1B C 0.6859(2) 1.34700(17) 0.36237(14)
C2B C 0.6799(2) 1.28725(17) 0.45351(14)
H1B H 0.584(3) 1.295(2) 0.4566(18)
H2B H 0.749(3) 1.325(2) 0.5069(18)
C3B C 0.6076(2) 1.09531(17) 0.42969(14)
H3B H 0.515(3) 1.123(2) 0.4154(18)
C4B C 0.6113(2) 0.97247(17) 0.41958(13)
C5B C 0.4707(2) 0.92095(18) 0.37966(14)
H4B H 0.392(3) 0.964(2) 0.364(2)
C6B C 0.4564(2) 0.80437(17) 0.36784(14)
H5B H 0.358(3) 0.776(3) 0.340(2)
C7B C 0.5845(2) 0.73742(17) 0.39730(14)
H6B H 0.580(3) 0.660(3) 0.391(2)
C8B C 0.7275(2) 0.78429(16) 0.43778(13)
C9B C 0.7437(2) 0.90409(16) 0.44893(13)
C10B C 0.8553(2) 0.70271(16) 0.46775(13)
O1B O 1.03659(18) 1.51142(13) 0.37728(11)
O2B O 0.82389(15) 1.59684(12) 0.45577(10)
O2B_2 O 0.82389(15) 0.59684(12) 0.45577(10)
O3B O 1.00924(15) 1.26745(12) 0.49504(10)
O4B O 0.90339(18) 1.10804(14) 0.31553(11)
H7B H 0.824(3) 1.126(2) 0.286(2)
O5B O 0.87582(14) 0.95440(11) 0.48626(9)
O6B O 0.53960(18) 1.38042(13) 0.18383(11)
O7B O 0.40553(16) 1.29075(13) 0.28417(11)
O8B O 0.59692(16) 1.18525(12) 0.23655(11)
H11B H 0.778(3) 1.339(2) 0.3508(18)
H12B H 0.667(3) 1.429(2) 0.3686(18)
H14B H 0.906(4) 1.038(3) 0.309(2)
O9 O 1.7943(2) 0.87654(16) 0.68752(14)
H8 H 1.761(4) 0.815(3) 0.691(2)
H13 H 1.880(5) 0.860(3) 0.692(3)
O10 O 1.8036(2) 1.00377(19) 0.84825(15)
H9 H 1.824(4) 1.064(3) 0.836(3)
H10 H 1.804(4) 0.967(3) 0.806(3)
loop_
_geom_bond_atom_site_label_1
_geom_bond_atom_site_label_2
_geom_bond_site_symmetry_1
_geom_bond_site_symmetry_2
N1 Cu1 1_555 1_555
S1 C1 1_555 1_555
Cu1 O3 1_555 1_555
Cu2 O1 1_555 1_555
C1 C2 1_555 1_555
C2 N1 1_555 1_555
H1 C2 1_555 1_555
H2 C2 1_555 1_555
C3 N1 1_555 1_555
H3 C3 1_555 1_555
C4 C3 1_555 1_555
C5 C4 1_555 1_555
H4 C5 1_555 1_555
C6 C5 1_555 1_555
H5 C6 1_555 1_555
C7 C6 1_555 1_555
H6 C7 1_555 1_555
C8 C7 1_555 1_555
C9 C4 1_555 1_555
C10 C8 1_555 1_555
O2 Cu2 1_555 1_555
O3 C10B 1_555 1_555
O4 Cu1 1_555 1_555
H7 O4 1_555 1_555
O5 Cu1 1_555 1_555
O6 S1 1_555 1_555
O7 S1 1_555 1_555
O8 S1 1_555 1_555
O9 H8 1_555 1_555
O10 H9 1_555 1_555
H10 O10 1_555 1_555
H11 C1 1_555 1_555
H12 C1 1_555 1_555
H13 O9 1_555 1_555
H14 O4 1_555 1_555
N1B Cu1B 1_555 1_555
S1B C1B 1_555 1_555
Cu1B O5 1_555 1_555
Cu2_2 O2B_2 1_555 1_555
C1B C2B 1_555 1_555
C2B N1B 1_555 1_555
H1B C2B 1_555 1_555
H2B C2B 1_555 1_555
C3B N1B 1_555 1_555
H3B C3B 1_555 1_555
C4B C3B 1_555 1_555
C5B C4B 1_555 1_555
H4B C5B 1_555 1_555
C6B C5B 1_555 1_555
H5B C6B 1_555 1_555
C7B C6B 1_555 1_555
H6B C7B 1_555 1_555
C8B C7B 1_555 1_555
C9B C4B 1_555 1_555
C10B C8B 1_555 1_555
O1B Cu2 1_555 1_555
O2B Cu2 1_555 1_555
O2B_2 C10B 1_555 1_555
O3B C10 1_555 1_555
O4B Cu1B 1_555 1_555
H7B O4B 1_555 1_555
O5B Cu1 1_555 1_555
O6B S1B 1_555 1_555
O7B S1B 1_555 1_555
O8B S1B 1_555 1_555
H11B C1B 1_555 1_555
H12B C1B 1_555 1_555
H14B O4B 1_555 1_555
C8 C9 1_555 1_555
C9 O5 1_555 1_555
C10 O2 1_555 1_555
Cu1B O3B 1_555 1_555
Cu1B O5B 1_555 1_555
C8B C9B 1_555 1_555
C9B O5B 1_555 1_555

#END
