
#######################################################################
#
#                 Cambridge Crystallographic Data Centre
#                                CCDC 
#
#######################################################################
#
# If this CIF has been generated from an entry in the Cambridge 
# Structural Database, then it will include bibliographic, chemical, 
# crystal, experimental, refinement or atomic coordinate data resulting 
# from the CCDC's data processing and validation procedures.
#
#######################################################################

data_WAPTEM
_symmetry_cell_setting           orthorhombic
_symmetry_space_group_name_H-M   'P 21 21 21'
_symmetry_Int_Tables_number      19
_space_group_name_Hall           'P 2ac 2ab'
loop_
_symmetry_equiv_pos_site_id
_symmetry_equiv_pos_as_xyz
1 x,y,z
2 1/2+x,1/2-y,-z
3 -x,1/2+y,1/2-z
4 1/2-x,-y,1/2+z
_cell_length_a                   6.340(4)
_cell_length_b                   12.606(6)
_cell_length_c                   21.326(12)
_cell_angle_alpha                90
_cell_angle_beta                 90
_cell_angle_gamma                90
_cell_volume                     1704.42
loop_
_atom_site_label
_atom_site_type_symbol
_atom_site_fract_x
_atom_site_fract_y
_atom_site_fract_z
K1 K 0.19792(9) -0.33846(5) 0.46392(3)
P1 P -0.08987(12) -0.41443(6) 0.31522(3)
O1 O 0.1033(4) -0.3770(2) 0.34673(10)
N1 N 0.3165(4) -0.1132(2) 0.46655(12)
N2 N 0.1120(4) -0.1273(2) 0.48220(12)
N3 N 0.0023(4) -0.0371(2) 0.47930(12)
C1 C 0.3367(4) -0.0081(2) 0.45271(12)
C2 C 0.1391(4) 0.0397(2) 0.46106(12)
C3 C 0.1111(5) 0.1493(2) 0.45122(14)
C4 C 0.2849(6) 0.2064(2) 0.4330(2)
C5 C 0.4813(5) 0.1582(3) 0.42434(14)
C6 C 0.5132(5) 0.0517(2) 0.43411(14)
N4 N -0.2125(4) -0.5048(2) 0.35714(12)
C7 C -0.0831(6) -0.5900(3) 0.3833(2)
C8 C -0.4361(6) -0.5289(3) 0.3567(2)
N5 N -0.2749(5) -0.3245(2) 0.30392(12)
C9 C -0.3529(7) -0.2665(3) 0.3588(2)
C10 C -0.2865(8) -0.2628(3) 0.2465(2)
N6 N -0.0283(5) -0.4654(2) 0.24652(12)
C11 C 0.1531(7) -0.4298(4) 0.2115(2)
C12 C -0.1784(7) -0.5282(4) 0.2107(2)
H1 H -0.0208(5) 0.1819(2) 0.45690(14)
H2 H 0.2716(6) 0.2798(2) 0.4261(2)
H3 H 0.5958(5) 0.2002(3) 0.41137(14)
H4 H 0.6465(5) 0.0203(2) 0.42863(14)
H5 H 0.0671(7) -0.5686(8) 0.3826(10)
H6 H -0.1018(29) -0.6551(6) 0.3579(7)
H7 H -0.1269(26) -0.6041(13) 0.4270(4)
H8 H -0.5141(7) -0.4698(8) 0.3368(10)
H9 H -0.4863(9) -0.5385(17) 0.4003(2)
H10 H -0.4607(7) -0.5950(10) 0.3326(9)
H11 H -0.3368(41) -0.3111(9) 0.3967(3)
H12 H -0.5038(13) -0.2490(19) 0.3527(6)
H13 H -0.2710(29) -0.2002(11) 0.3640(8)
H14 H -0.2369(40) -0.3066(8) 0.2108(3)
H15 H -0.1961(34) -0.1991(12) 0.2504(5)
H16 H -0.4342(10) -0.2408(18) 0.2390(7)
H17 H 0.2508(21) -0.3917(18) 0.2398(3)
H18 H 0.1068(8) -0.3815(17) 0.1776(8)
H19 H 0.2262(25) -0.4918(4) 0.1930(10)
H20 H -0.2963(24) -0.5500(19) 0.2382(4)
H21 H -0.1071(13) -0.5921(12) 0.1939(11)
H22 H -0.2339(33) -0.4853(8) 0.1755(8)
N1A N -0.1835(4) -0.3868(2) 0.53345(12)
N2A N 0.6120(4) -0.3727(2) 0.51780(12)
K1A K 0.69792(9) -0.16154(5) 0.53608(3)
K1A_2 K -0.30208(9) -0.16154(5) 0.53608(3)
N3A N 0.5023(4) -0.4629(2) 0.52070(12)
loop_
_geom_bond_atom_site_label_1
_geom_bond_atom_site_label_2
_geom_bond_site_symmetry_1
_geom_bond_site_symmetry_2
K1 O1 1_555 1_555
P1 O1 1_555 1_555
N1 K1 1_555 1_555
N2 K1 1_555 1_555
N3 N2 1_555 1_555
C1 N1 1_555 1_555
C2 N3 1_555 1_555
C3 C2 1_555 1_555
C4 C3 1_555 1_555
C5 C4 1_555 1_555
C6 C1 1_555 1_555
N4 P1 1_555 1_555
C7 N4 1_555 1_555
C8 N4 1_555 1_555
N5 P1 1_555 1_555
C9 N5 1_555 1_555
C10 N5 1_555 1_555
N6 P1 1_555 1_555
C11 N6 1_555 1_555
C12 N6 1_555 1_555
H1 C3 1_555 1_555
H2 C4 1_555 1_555
H3 C5 1_555 1_555
H4 C6 1_555 1_555
H5 C7 1_555 1_555
H6 C7 1_555 1_555
H7 C7 1_555 1_555
H8 C8 1_555 1_555
H9 C8 1_555 1_555
H10 C8 1_555 1_555
H11 C9 1_555 1_555
H12 C9 1_555 1_555
H13 C9 1_555 1_555
H14 C10 1_555 1_555
H15 C10 1_555 1_555
H16 C10 1_555 1_555
H17 C11 1_555 1_555
H18 C11 1_555 1_555
H19 C11 1_555 1_555
H20 C12 1_555 1_555
H21 C12 1_555 1_555
H22 C12 1_555 1_555
N1A K1 1_555 1_555
N2A K1 1_555 1_555
K1A N1 1_555 1_555
K1A_2 N2 1_555 1_555
N3A K1 1_555 1_555
N1 N2 1_555 1_555
N3 K1A_2 1_555 1_555
C1 C2 1_555 1_555
C5 C6 1_555 1_555
N1A K1A_2 1_555 1_555
N2A K1A 1_555 1_555
N2A N3A 1_555 1_555

#END
