
#######################################################################
#
#                 Cambridge Crystallographic Data Centre
#                                CCDC 
#
#######################################################################
#
# If this CIF has been generated from an entry in the Cambridge 
# Structural Database, then it will include bibliographic, chemical, 
# crystal, experimental, refinement or atomic coordinate data resulting 
# from the CCDC's data processing and validation procedures.
#
#######################################################################

data_WAPXUI
_symmetry_cell_setting           rhombohedral
_symmetry_space_group_name_H-M   'R -3'
_symmetry_Int_Tables_number      148
_space_group_name_Hall           '-R 3'
loop_
_symmetry_equiv_pos_site_id
_symmetry_equiv_pos_as_xyz
1 x,y,z
2 -y,x-y,z
3 -x+y,-x,z
4 1/3+x,2/3+y,2/3+z
5 1/3-y,2/3+x-y,2/3+z
6 1/3-x+y,2/3-x,2/3+z
7 2/3+x,1/3+y,1/3+z
8 2/3-y,1/3+x-y,1/3+z
9 2/3-x+y,1/3-x,1/3+z
10 -x,-y,-z
11 y,-x+y,-z
12 x-y,x,-z
13 2/3-x,1/3-y,1/3-z
14 2/3+y,1/3-x+y,1/3-z
15 2/3+x-y,1/3+x,1/3-z
16 1/3-x,2/3-y,2/3-z
17 1/3+y,2/3-x+y,2/3-z
18 1/3+x-y,2/3+x,2/3-z
_cell_length_a                   27.067(3)
_cell_length_b                   27.067(3)
_cell_length_c                   63.536(6)
_cell_angle_alpha                90
_cell_angle_beta                 90
_cell_angle_gamma                120
_cell_volume                     40311.7
loop_
_atom_site_label
_atom_site_type_symbol
_atom_site_fract_x
_atom_site_fract_y
_atom_site_fract_z
Mo1 Mo 0.15585(11) -0.53871(10) -0.40770(3)
Si1 Si 0.14774(18) -0.66343(19) -0.42809(7)
Cu1 Cu 0.20649(10) -0.16287(11) -0.63271(3)
C1 C 0.1344(11) -0.2223(13) -0.5698(5)
H1 H 0.1041 -0.2287 -0.5796
H2 H 0.1209 -0.2229 -0.5556
C2 C 0.1493(9) -0.2691(11) -0.5723(4)
H3 H 0.1707 -0.2622 -0.5852
H4 H 0.1140 -0.3051 -0.5739
C3 C 0.1807(13) -0.2749(11) -0.5559(4)
H5 H 0.1831 -0.3089 -0.5587
H6 H 0.2192 -0.2426 -0.5567
C4 C 0.0785(12) -0.4350(10) -0.4135(4)
H7 H 0.1190 -0.4093 -0.4133
H8 H 0.0687 -0.4642 -0.4031
H9 H 0.0591 -0.4144 -0.4105
C5 C 0.0085(9) -0.4996(7) -0.4409(3)
C6 C 0.0656(8) -0.6027(8) -0.5137(3)
C7 C 0.0160(9) -0.7106(8) -0.5194(3)
H10 H 0.0487 -0.7034 -0.5276
H11 H 0.0118 -0.7354 -0.5079
H12 H -0.0175 -0.7285 -0.5280
C8 C 0.0916(7) -0.3265(8) -0.6541(2)
C9 C 0.1714(7) -0.1259(8) -0.5936(3)
C10 C 0.2698(9) -0.2791(8) -0.5090(4)
H13 H 0.2703 -0.2471 -0.5157
H14 H 0.2801 -0.2703 -0.4945
H15 H 0.2966 -0.2872 -0.5158
C11 C 0.0231(8) -0.3724(8) -0.6235(3)
H16 H 0.0202 -0.3589 -0.6099
H17 H 0.0287 -0.4046 -0.6220
H18 H -0.0113 -0.3836 -0.6313
C12 C 0.011(2) -0.381(2) -0.6822(8)
H19 H 0.0229 -0.3686 -0.6965
H20 H -0.0174 -0.4215 -0.6834
C13 C 0.0654(9) -0.5254(9) -0.5775(3)
H21 H 0.1007 -0.5115 -0.5854
H22 H 0.0349 -0.5539 -0.5861
C14 C 0.0696(14) -0.553(2) -0.5583(6)
H23 H 0.0433 -0.5932 -0.5608
H24 H 0.0517 -0.5415 -0.5477
C15 C 0.1064(14) -0.5523(19) -0.5499(5)
H25 H 0.1255 -0.5590 -0.5615
H26 H 0.1298 -0.5119 -0.5469
C16 C -0.026(3) -0.3285(15) -0.6962(4)
H27 H -0.0648 -0.3554 -0.7005
H28 H -0.0023 -0.3344 -0.7061
C17 C 0.1243(13) -0.0897(10) -0.5691(3)
H29 H 0.1360 -0.1060 -0.5581
H30 H 0.1410 -0.0494 -0.5667
H31 H 0.0835 -0.1072 -0.5690
C18 C -0.0205(11) -0.3571(9) -0.6773(4)
H32 H -0.0021 -0.3295 -0.6661
H33 H -0.0580 -0.3860 -0.6725
C19 C 0.4106(8) -0.1079(10) -0.6640(4)
H34 H 0.4317 -0.0788 -0.6538
H35 H 0.4141 -0.1408 -0.6610
H36 H 0.4255 -0.0938 -0.6778
C20 C 0.1655(8) -0.3342(7) -0.5185(3)
N1 N 0.0970(7) -0.4498(6) -0.4507(3)
N2 N 0.0126(6) -0.5121(6) -0.4608(2)
N3 N 0.0613(8) -0.4617(7) -0.4348(3)
N4 N 0.0690(6) -0.4804(6) -0.4660(2)
N5 N 0.0005(6) -0.6047(6) -0.4943(2)
N6 N 0.0522(5) -0.5699(6) -0.5029(2)
N7 N -0.0176(6) -0.6568(6) -0.4992(2)
N8 N 0.0238(6) -0.6563(6) -0.5111(2)
N9 N 0.1241(6) -0.3880(6) -0.5161(2)
C21 C 0.3229(8) -0.1098(7) -0.6490(3)
N10 N 0.1481(5) -0.4144(6) -0.5060(2)
N11 N 0.2004(6) -0.3802(6) -0.5021(2)
N12 N 0.1788(6) -0.1242(6) -0.6142(2)
N13 N 0.2637(6) -0.1726(6) -0.6704(2)
N14 N 0.1445(6) -0.2448(6) -0.6390(2)
N15 N 0.1315(7) -0.0804(6) -0.6072(2)
N16 N 0.0715(6) -0.3270(7) -0.6348(2)
N17 N 0.1374(6) -0.2748(6) -0.6568(2)
N18 N 0.2681(6) -0.1399(6) -0.6535(2)
N19 N 0.1042(7) -0.2775(7) -0.6255(2)
N20 N 0.1535(6) -0.0959(6) -0.6222(2)
N21 N 0.3129(7) -0.1639(6) -0.6764(2)
N22 N 0.2119(6) -0.3295(5) -0.5105(2)
N23 N 0.1431(7) -0.0995(6) -0.5895(2)
N24 N 0.3510(7) -0.1235(7) -0.6632(2)
O1 O 0.0741(7) -0.7229(7) -0.4787(3)
O2 O 0.2905(9) -0.6382(8) -0.4433(2)
O3 O 0.2164(8) -0.6342(9) -0.4272(3)
O4 O 0.1625(9) -0.4801(8) -0.3983(3)
O5 O 0.1324(8) -0.6126(9) -0.4327(3)
O6 O 0.1769(6) -0.5170(9) -0.4360(2)
O7 O 0.1685(10) -0.6211(9) -0.4079(3)
O8 O 0.1356(7) -0.8456(7) -0.4582(3)
O9 O 0.2965(10) -0.5452(8) -0.4287(2)
O10 O 0.0007(10) -0.7805(8) -0.4280(3)
O11 O 0.3379(7) -0.5439(7) -0.4680(3)
O12 O 0.2089(7) -0.7367(9) -0.3989(3)
O13 O -0.0321(7) -0.8060(8) -0.4687(3)
O14 O 0.2406(7) -0.5394(7) -0.4607(3)
O15 O 0.3126(6) -0.7051(8) -0.4165(2)
O16 O 0.1578(6) -0.6857(8) -0.5086(2)
O17 O 0.0075(10) -0.6885(7) -0.4128(3)
O18 O 0.1776(9) -0.6320(10) -0.4493(4)
O19 O -0.0195(7) -0.6244(7) -0.4396(3)
O20 O 0.2191(7) -0.6046(8) -0.3780(4)
O21 O 0.1370(8) -0.6395(9) -0.3479(2)
O22 O 0.2844(10) -0.6279(8) -0.4025(2)
O23 O 0.0555(7) -0.7880(7) -0.3950(3)
O24 O 0.0801(7) -0.5768(9) -0.4157(2)
O25 O 0.2315(7) -0.5255(8) -0.4046(3)
O26 O -0.0442(6) -0.7857(6) -0.3893(2)
O27 O 0.1585(7) -0.7441(8) -0.4732(4)
O28 O 0.0613(7) -0.6949(7) -0.3800(3)
O29 O 0.1200(10) -0.6952(10) -0.4068(3)
O30 O 0.2333(7) -0.6327(7) -0.4757(3)
O31 O 0.2149(7) -0.7481(9) -0.4400(2)
O32 O 0.0847(7) -0.5886(8) -0.4569(2)
O33 O 0.1186(6) -0.8081(9) -0.4198(2)
O34 O 0.0793(10) -0.6931(10) -0.4298(3)
O35 O 0.0623(7) -0.8043(8) -0.4527(3)
O36 O 0.1646(9) -0.7136(10) -0.4233(4)
O37 O 0.1220(8) -0.8244(7) -0.3778(3)
O38 O 0.0118(9) -0.7009(8) -0.4539(3)
O39 O 0.1459(5) -0.7152(6) -0.3735(3)
O40 O 0.1246(8) -0.7064(9) -0.4479(3)
O41 O 0.1491(7) -0.6125(7) -0.4820(3)
O42 O 0.3269(6) -0.5201(7) -0.3866(2)
O43 O 0.3955(4) -0.2873(4) -0.56625(15)
O44 O 0.4841(5) -0.1199(4) -0.61815(16)
O45 O 0.2907(4) -0.2541(4) -0.63985(15)
O46 O 0.3475(4) -0.2712(4) -0.60512(14)
O47 O 0.3687(4) -0.1708(4) -0.61662(15)
O48 O 0.4211(4) -0.2160(4) -0.64090(14)
O49 O 0.1337(7) -0.5859(8) -0.3835(3)
O50 O 0.3684(4) -0.2168(4) -0.54515(16)
O51 O 0.1703(6) -0.5032(6) -0.4783(2)
O52 O 0.2288(4) -0.3038(4) -0.60681(15)
O53 O 0.3098(4) -0.2183(4) -0.58176(16)
O54 O 0.4212(4) -0.1829(4) -0.58367(15)
O55 O 0.3333 -0.3333 -0.6393(2)
O56 O 0.3503(4) -0.2699(4) -0.67179(15)
O57 O 0.2391(4) -0.2950(4) -0.67765(16)
O58 O 0.2571(4) -0.1928(4) -0.61298(16)
S1 S 0.1264(2) -0.5820(2) -0.52855(8)
S2 S -0.0528(3) -0.5318(3) -0.42643(11)
S3 S 0.1560(3) -0.2797(3) -0.52922(11)
S4 S 0.1972(3) -0.1534(3) -0.57508(9)
S5 S 0.0663(3) -0.3820(2) -0.67191(9)
S6 S 0.3530(3) -0.0624(2) -0.62859(9)
Si2 Si 0.3333 -0.3333 -0.61362(11)
Cu2 Cu -0.04416(9) -0.57705(10) -0.47699(4)
Mo2 Mo 0.26953(8) -0.56647(9) -0.40017(3)
Cu3 Cu 0.18967(10) -0.24306(10) -0.68093(3)
Mo3 Mo 0.13973(10) -0.78705(9) -0.44907(4)
Cu4 Cu 0.10122(9) -0.49058(9) -0.49420(4)
Mo4 Mo 0.03503(8) -0.63598(10) -0.43582(4)
Mo5 Mo 0.26078(8) -0.69087(9) -0.42034(3)
Mo6 Mo 0.02549(7) -0.76094(9) -0.45631(3)
Mo7 Mo 0.15479(8) -0.67937(8) -0.48317(3)
Mo8 Mo 0.13915(8) -0.64823(8) -0.37337(3)
Mo9 Mo 0.13157(8) -0.77301(9) -0.39355(3)
Mo10 Mo 0.16468(8) -0.55442(8) -0.46217(3)
Mo11 Mo 0.01808(7) -0.74575(8) -0.40123(3)
Mo12 Mo 0.27848(6) -0.58264(8) -0.45523(2)
Mo13 Mo 0.42809(5) -0.18529(5) -0.61510(2)
Mo14 Mo 0.36298(5) -0.24378(5) -0.569410(19)
Mo15 Mo 0.28864(6) -0.23233(5) -0.60941(2)
Mo16 Mo 0.27901(5) -0.30610(5) -0.659830(19)
Cu1I Cu -0.20649(10) -0.83713(11) -0.36729(3)
Cu1O Cu 0.12684(10) -0.17046(11) -0.70062(3)
Cu1A Cu 0.16287(11) -0.63064(15) -0.63271(3)
Cu1B Cu 0.63064(15) -0.20649(10) -0.63271(3)
C1I C -0.1344(11) -0.7777(13) -0.4302(5)
H1I H -0.1041 -0.7713 -0.4204
H2I H -0.1209 -0.7771 -0.4444
C2I C -0.1493(9) -0.7309(11) -0.4277(4)
H3I H -0.1707 -0.7378 -0.4148
H4I H -0.1140 -0.6949 -0.4261
C3I C -0.1807(13) -0.7251(11) -0.4441(4)
H5I H -0.1831 -0.6911 -0.4413
H6I H -0.2192 -0.7574 -0.4433
C4I C -0.0785(12) -0.5650(10) -0.5865(4)
H7I H -0.1190 -0.5907 -0.5867
H8I H -0.0687 -0.5358 -0.5969
H9I H -0.0591 -0.5856 -0.5895
C5I C -0.0085(9) -0.5004(7) -0.5591(3)
C6I C -0.0656(8) -0.3973(8) -0.4863(3)
C7I C -0.0160(9) -0.2894(8) -0.4806(3)
H10I H -0.0487 -0.2966 -0.4724
H11I H -0.0118 -0.2646 -0.4921
H12I H 0.0175 -0.2715 -0.4720
C8O C 0.2417(7) -0.0068(8) -0.6792(2)
C9I C -0.1714(7) -0.8741(8) -0.4064(3)
C10I C -0.2698(9) -0.7209(8) -0.4910(4)
H13I H -0.2703 -0.7529 -0.4843
H14I H -0.2801 -0.7297 -0.5055
H15I H -0.2966 -0.7128 -0.4842
C11O C 0.3102(8) 0.0391(8) -0.7098(3)
H16O H 0.3131 0.0256 -0.7234
H17O H 0.3046 0.0713 -0.7113
H18O H 0.3446 0.0503 -0.7020
C12O C 0.322(2) 0.048(2) -0.6511(8)
H19O H 0.3104 0.0353 -0.6368
H20O H 0.3507 0.0882 -0.6499
C13I C -0.0654(9) -0.4746(9) -0.4225(3)
H21I H -0.1007 -0.4885 -0.4146
H22I H -0.0349 -0.4461 -0.4139
C14I C -0.0696(14) -0.447(2) -0.4417(6)
H23I H -0.0433 -0.4068 -0.4392
H24I H -0.0517 -0.4585 -0.4523
C15I C -0.1064(14) -0.4477(19) -0.4501(5)
H25I H -0.1255 -0.4410 -0.4385
H26I H -0.1298 -0.4881 -0.4531
C16O C 0.359(3) -0.0048(15) -0.6371(4)
H27O H 0.3981 0.0221 -0.6328
H28O H 0.3356 0.0011 -0.6272
C17I C -0.1243(13) -0.9103(10) -0.4309(3)
H29I H -0.1360 -0.8940 -0.4419
H30I H -0.1410 -0.9506 -0.4333
H31I H -0.0835 -0.8928 -0.4310
C18O C 0.3538(11) 0.0238(9) -0.6560(4)
H32O H 0.3354 -0.0038 -0.6672
H33O H 0.3913 0.0527 -0.6608
C19O C -0.0773(8) -0.2254(10) -0.6693(4)
H34O H -0.0984 -0.2545 -0.6795
H35O H -0.0808 -0.1925 -0.6723
H36O H -0.0922 -0.2395 -0.6555
C20I C -0.1655(8) -0.6658(7) -0.4815(3)
N1I N -0.0970(7) -0.5502(6) -0.5493(3)
N2I N -0.0126(6) -0.4879(6) -0.5392(2)
N3I N -0.0613(8) -0.5383(7) -0.5652(3)
N4I N -0.0690(6) -0.5196(6) -0.5340(2)
N5I N -0.0005(6) -0.3953(6) -0.5057(2)
N6I N -0.0522(5) -0.4301(6) -0.4971(2)
N7I N 0.0176(6) -0.3432(6) -0.5008(2)
N8I N -0.0238(6) -0.3437(6) -0.4889(2)
N9I N -0.1241(6) -0.6120(6) -0.4839(2)
C21O C 0.0104(8) -0.2235(7) -0.6843(3)
N10I N -0.1481(5) -0.5856(6) -0.4940(2)
N11I N -0.2004(6) -0.6198(6) -0.4979(2)
N12I N -0.1788(6) -0.8758(6) -0.3858(2)
N13O N 0.0696(6) -0.1607(6) -0.6629(2)
N14O N 0.1888(6) -0.0885(6) -0.6943(2)
N15I N -0.1315(7) -0.9196(6) -0.3928(2)
N16O N 0.2618(6) -0.0063(7) -0.6985(2)
N17O N 0.1959(6) -0.0585(6) -0.6765(2)
N18O N 0.0652(6) -0.1934(6) -0.6798(2)
N19O N 0.2291(7) -0.0558(7) -0.7078(2)
N20O N 0.1798(6) -0.2374(6) -0.7111(2)
N20I N -0.1535(6) -0.9041(6) -0.3778(2)
N21O N 0.0204(7) -0.1694(6) -0.6569(2)
N22I N -0.2119(6) -0.6705(5) -0.4895(2)
N23I N -0.1431(7) -0.9005(6) -0.4105(2)
N24O N -0.0177(7) -0.2098(7) -0.6701(2)
O43A O 0.2873(4) -0.3172(6) -0.56625(15)
O43B O 0.3172(6) -0.3955(4) -0.56625(15)
O44B O 0.3960(6) -0.4841(5) -0.61815(16)
O44A O 0.1199(4) -0.3960(6) -0.61815(16)
O45A O 0.2541(4) -0.4552(6) -0.63985(15)
O45B O 0.4552(6) -0.2907(4) -0.63985(15)
O46B O 0.3813(6) -0.3475(4) -0.60512(14)
O46A O 0.2712(4) -0.3813(6) -0.60512(14)
O47B O 0.4605(6) -0.3687(4) -0.61662(15)
O47A O 0.1708(4) -0.4605(6) -0.61662(15)
O48A O 0.2160(4) -0.3629(6) -0.64090(14)
O48B O 0.3629(6) -0.4211(4) -0.64090(14)
O50B O 0.4148(6) -0.3684(4) -0.54515(16)
O50A O 0.2168(4) -0.4148(6) -0.54515(16)
O52B O 0.4674(6) -0.2288(4) -0.60681(15)
O52A O 0.3038(4) -0.4674(6) -0.60681(15)
O53B O 0.4719(6) -0.3098(4) -0.58176(16)
O53A O 0.2183(4) -0.4719(6) -0.58176(16)
O54B O 0.3959(6) -0.4212(4) -0.58367(15)
O54A O 0.1829(4) -0.3959(6) -0.58367(15)
O56A O 0.2699(4) -0.3798(6) -0.67179(15)
O56B O 0.3798(6) -0.3503(4) -0.67179(15)
O57A O 0.2950(4) -0.4659(6) -0.67765(16)
O57B O 0.4659(6) -0.2391(4) -0.67765(16)
O58B O 0.5501(6) -0.2571(4) -0.61298(16)
O58A O 0.1928(4) -0.5501(6) -0.61298(16)
S1I S -0.1264(2) -0.4180(2) -0.47145(8)
S2I S 0.0528(3) -0.4682(3) -0.57357(11)
S3I S -0.1560(3) -0.7203(3) -0.47078(11)
S4I S -0.1972(3) -0.8466(3) -0.42492(9)
S5O S 0.2670(3) 0.0487(2) -0.66142(9)
S6O S -0.0197(3) -0.2709(2) -0.70474(9)
Cu2I Cu 0.04416(9) -0.42295(10) -0.52301(4)
Cu3O Cu 0.14366(10) -0.09027(10) -0.65240(3)
Cu3F Cu -0.14366(10) -0.90973(10) -0.34760(3)
Cu3A Cu 0.24306(10) -0.56727(14) -0.68093(3)
Cu3B Cu 0.56727(14) -0.18967(10) -0.68093(3)
Cu4I Cu -0.10122(9) -0.50942(9) -0.50580(4)
Mo13A Mo 0.18529(5) -0.38662(7) -0.61510(2)
Mo13B Mo 0.38662(7) -0.42809(5) -0.61510(2)
Mo14B Mo 0.39324(7) -0.36298(5) -0.569410(19)
Mo14A Mo 0.24378(5) -0.39324(7) -0.569410(19)
Mo15B Mo 0.47903(8) -0.28864(6) -0.60941(2)
Mo15A Mo 0.23233(5) -0.47903(8) -0.60941(2)
Mo16B Mo 0.41489(7) -0.27901(5) -0.659830(19)
Mo16A Mo 0.30610(5) -0.41489(7) -0.659830(19)
loop_
_geom_bond_atom_site_label_1
_geom_bond_atom_site_label_2
_geom_bond_site_symmetry_1
_geom_bond_site_symmetry_2
Mo1 O4 1_555 1_555
Si1 O3 1_555 1_555
Cu1 N12 1_555 1_555
C1 H1 1_555 1_555
H2 C1 1_555 1_555
C2 C1 1_555 1_555
H3 C2 1_555 1_555
H4 C2 1_555 1_555
C3 C2 1_555 1_555
H5 C3 1_555 1_555
H6 C3 1_555 1_555
C4 H7 1_555 1_555
H8 C4 1_555 1_555
H9 C4 1_555 1_555
C5 N2 1_555 1_555
C6 N6 1_555 1_555
C7 H10 1_555 1_555
H11 C7 1_555 1_555
H12 C7 1_555 1_555
C8 N16 1_555 1_555
C9 N12 1_555 1_555
C10 H13 1_555 1_555
H14 C10 1_555 1_555
H15 C10 1_555 1_555
C11 H16 1_555 1_555
H17 C11 1_555 1_555
H18 C11 1_555 1_555
C12 H19 1_555 1_555
H20 C12 1_555 1_555
C13 H21 1_555 1_555
H22 C13 1_555 1_555
C14 C13 1_555 1_555
H23 C14 1_555 1_555
H24 C14 1_555 1_555
C15 C14 1_555 1_555
H25 C15 1_555 1_555
H26 C15 1_555 1_555
C16 H27 1_555 1_555
H28 C16 1_555 1_555
C17 H29 1_555 1_555
H30 C17 1_555 1_555
H31 C17 1_555 1_555
C18 C12 1_555 1_555
H32 C18 1_555 1_555
H33 C18 1_555 1_555
C19 H34 1_555 1_555
H35 C19 1_555 1_555
H36 C19 1_555 1_555
C20 N9 1_555 1_555
N1 N3 1_555 1_555
N2 N4 1_555 1_555
N3 C4 1_555 1_555
N4 N1 1_555 1_555
N5 N6 1_555 1_555
N6 Cu4 1_555 1_555
N7 N5 1_555 1_555
N8 C6 1_555 1_555
N9 N10 1_555 1_555
C21 N18 1_555 1_555
N10 N11 1_555 1_555
N11 N22 1_555 1_555
N12 N20 1_555 1_555
N13 N18 1_555 1_555
N14 Cu1 1_555 1_555
N15 N20 1_555 1_555
N16 C11 1_555 1_555
N17 C8 1_555 1_555
N18 Cu1 1_555 1_555
N19 N14 1_555 1_555
N20 Cu3O 1_555 1_555
N21 N13 1_555 1_555
N22 C10 1_555 1_555
N23 C9 1_555 1_555
N24 C19 1_555 1_555
O1 Mo6 1_555 1_555
O2 Mo5 1_555 1_555
O3 Mo2 1_555 1_555
O5 Mo1 1_555 1_555
O6 Mo1 1_555 1_555
O7 Mo1 1_555 1_555
O8 Mo3 1_555 1_555
O9 Mo2 1_555 1_555
O10 Mo6 1_555 1_555
O11 Mo12 1_555 1_555
O12 Mo5 1_555 1_555
O13 Mo6 1_555 1_555
O14 Mo10 1_555 1_555
O15 Mo5 1_555 1_555
O16 Mo7 1_555 1_555
O17 Mo4 1_555 1_555
O18 Si1 1_555 1_555
O19 Mo4 1_555 1_555
O20 Mo2 1_555 1_555
O21 Mo8 1_555 1_555
O22 Mo2 1_555 1_555
O23 Mo9 1_555 1_555
O24 Mo1 1_555 1_555
O25 Mo1 1_555 1_555
O26 Mo11 1_555 1_555
O27 Mo3 1_555 1_555
O28 Mo8 1_555 1_555
O29 Si1 1_555 1_555
O30 Mo7 1_555 1_555
O31 Mo3 1_555 1_555
O32 Mo4 1_555 1_555
O33 Mo3 1_555 1_555
O34 Si1 1_555 1_555
O35 Mo3 1_555 1_555
O36 Si1 1_555 1_555
O37 Mo9 1_555 1_555
O38 Mo4 1_555 1_555
O39 Mo8 1_555 1_555
O40 Si1 1_555 1_555
O41 Mo7 1_555 1_555
O42 Mo2 1_555 1_555
O43 Mo14 1_555 1_555
O44 Mo13 1_555 1_555
O45 Mo15 1_555 1_555
O46 Si2 1_555 1_555
O47 Mo13 1_555 1_555
O48 Mo13 1_555 1_555
O49 Mo1 1_555 1_555
O50 Mo14 1_555 1_555
O51 Cu4 1_555 1_555
O52 Mo15 1_555 1_555
O53 Mo14 1_555 1_555
O54 Mo13 1_555 1_555
O55 Si2 1_555 1_555
O56 Mo16 1_555 1_555
O57 Cu3 1_555 1_555
O58 Cu1 1_555 1_555
S1 C6 1_555 1_555
S2 C5 1_555 1_555
S3 C3 1_555 1_555
S4 C1 1_555 1_555
S5 C8 1_555 1_555
S6 C21 1_555 1_555
Si2 O46B 1_555 1_555
Cu2 N2 1_555 1_555
Mo2 O7 1_555 1_555
Cu3 N13 1_555 1_555
Mo3 O36 1_555 1_555
Cu4 N4 1_555 1_555
Mo4 O5 1_555 1_555
Mo5 O3 1_555 1_555
Mo6 O34 1_555 1_555
Mo7 O1 1_555 1_555
Mo8 O7 1_555 1_555
Mo9 O12 1_555 1_555
Mo10 O5 1_555 1_555
Mo11 O10 1_555 1_555
Mo12 O2 1_555 1_555
Mo13 O46 1_555 1_555
Mo14 O46 1_555 1_555
Mo15 O46 1_555 1_555
Mo16 O45 1_555 1_555
Cu1I N12I 1_555 1_555
Cu1O N14O 1_555 1_555
Cu1A O58A 1_555 1_555
Cu1B O58B 1_555 1_555
C1I H1I 1_555 1_555
H2I C1I 1_555 1_555
C2I C1I 1_555 1_555
H3I C2I 1_555 1_555
H4I C2I 1_555 1_555
C3I C2I 1_555 1_555
H5I C3I 1_555 1_555
H6I C3I 1_555 1_555
C4I H7I 1_555 1_555
H8I C4I 1_555 1_555
H9I C4I 1_555 1_555
C5I N2I 1_555 1_555
C6I N6I 1_555 1_555
C7I H10I 1_555 1_555
H11I C7I 1_555 1_555
H12I C7I 1_555 1_555
C8O N16O 1_555 1_555
C9I N12I 1_555 1_555
C10I H13I 1_555 1_555
H14I C10I 1_555 1_555
H15I C10I 1_555 1_555
C11O H16O 1_555 1_555
H17O C11O 1_555 1_555
H18O C11O 1_555 1_555
C12O H19O 1_555 1_555
H20O C12O 1_555 1_555
C13I S2 1_555 1_555
H21I C13I 1_555 1_555
H22I C13I 1_555 1_555
C14I C13I 1_555 1_555
H23I C14I 1_555 1_555
H24I C14I 1_555 1_555
C15I C14I 1_555 1_555
H25I C15I 1_555 1_555
H26I C15I 1_555 1_555
C16O S6 1_555 1_555
H27O C16O 1_555 1_555
H28O C16O 1_555 1_555
C17I H29I 1_555 1_555
H30I C17I 1_555 1_555
H31I C17I 1_555 1_555
C18O C12O 1_555 1_555
H32O C18O 1_555 1_555
H33O C18O 1_555 1_555
C19O H34O 1_555 1_555
H35O C19O 1_555 1_555
H36O C19O 1_555 1_555
C20I N9I 1_555 1_555
N1I N3I 1_555 1_555
N2I N4I 1_555 1_555
N3I C4I 1_555 1_555
N4I N1I 1_555 1_555
N5I N6I 1_555 1_555
N6I Cu4I 1_555 1_555
N7I N5I 1_555 1_555
N8I C6I 1_555 1_555
N9I Cu2 1_555 1_555
C21O N18O 1_555 1_555
N10I N9I 1_555 1_555
N11I N10I 1_555 1_555
N12I N20I 1_555 1_555
N13O N18O 1_555 1_555
N14O N17O 1_555 1_555
N15I N20I 1_555 1_555
N16O C11O 1_555 1_555
N17O C8O 1_555 1_555
N18O Cu1O 1_555 1_555
N19O N14O 1_555 1_555
N20O Cu3 1_555 1_555
N20I Cu3F 1_555 1_555
N21O N13O 1_555 1_555
N22I C10I 1_555 1_555
N23I C9I 1_555 1_555
N24O C19O 1_555 1_555
O43A Mo14 1_555 1_555
O43B Mo14B 1_555 1_555
O44B Mo13B 1_555 1_555
O44A Mo13A 1_555 1_555
O45A Mo15A 1_555 1_555
O45B Mo15B 1_555 1_555
O46B Mo13B 1_555 1_555
O46A Si2 1_555 1_555
O47B Mo13B 1_555 1_555
O47A Mo13A 1_555 1_555
O48A Mo16 1_555 1_555
O48B Mo13B 1_555 1_555
O50B Mo14B 1_555 1_555
O50A Mo14A 1_555 1_555
O52B Mo13 1_555 1_555
O52A Mo13B 1_555 1_555
O53B Mo14B 1_555 1_555
O53A Mo14A 1_555 1_555
O54B Mo13B 1_555 1_555
O54A Mo13A 1_555 1_555
O56A Mo16 1_555 1_555
O56B Mo16B 1_555 1_555
O57A Cu3A 1_555 1_555
O57B Cu3B 1_555 1_555
O58B Mo15B 1_555 1_555
O58A Mo15A 1_555 1_555
S1I C6I 1_555 1_555
S2I C13 1_555 1_555
S3I C3I 1_555 1_555
S4I C1I 1_555 1_555
S5O C8O 1_555 1_555
S6O C16 1_555 1_555
Cu2I N9 1_555 1_555
Cu3O N13O 1_555 1_555
Cu4I N4I 1_555 1_555
Mo13A O52 1_555 1_555
Mo14B O43 1_555 1_555
Mo14A O43A 1_555 1_555
Mo15B O46B 1_555 1_555
Mo15A O46A 1_555 1_555
Mo16B O48 1_555 1_555
Mo16A O55 1_555 1_555
Si1 O5 1_555 1_555
Si1 O7 1_555 1_555
C5 N3 1_555 1_555
C7 N8 1_555 1_555
C9 S4 1_555 1_555
C12 S5 1_555 1_555
C15 S1 1_555 1_555
C16 C18 1_555 1_555
C17 N23 1_555 1_555
C20 N22 1_555 1_555
C20 S3 1_555 1_555
N5 Cu2 1_555 1_555
N7 N8 1_555 1_555
C21 N24 1_555 1_555
N10 Cu4 1_555 1_555
N14 N17 1_555 1_555
N15 N23 1_555 1_555
N16 N19 1_555 1_555
N17 Cu3 1_555 1_555
N21 N24 1_555 1_555
O3 Mo12 1_555 1_555
O6 Mo10 1_555 1_555
O9 Mo12 1_555 1_555
O14 Mo12 1_555 1_555
O17 Mo11 1_555 1_555
O18 Mo7 1_555 1_555
O18 Mo10 1_555 1_555
O18 Mo12 1_555 1_555
O20 Mo8 1_555 1_555
O22 Mo5 1_555 1_555
O23 Mo11 1_555 1_555
O24 Mo4 1_555 1_555
O25 Mo2 1_555 1_555
O27 Mo7 1_555 1_555
O28 Mo11 1_555 1_555
O29 Mo8 1_555 1_555
O29 Mo9 1_555 1_555
O29 Mo11 1_555 1_555
O30 Mo12 1_555 1_555
O31 Mo5 1_555 1_555
O32 Mo10 1_555 1_555
O33 Mo9 1_555 1_555
O34 Mo4 1_555 1_555
O34 Mo11 1_555 1_555
O35 Mo6 1_555 1_555
O36 Mo5 1_555 1_555
O36 Mo9 1_555 1_555
O38 Mo6 1_555 1_555
O39 Mo9 1_555 1_555
O40 Mo3 1_555 1_555
O40 Mo6 1_555 1_555
O40 Mo7 1_555 1_555
O41 Mo10 1_555 1_555
O47 Mo15 1_555 1_555
O49 Mo8 1_555 1_555
O51 Mo10 1_555 1_555
O53 Mo15 1_555 1_555
O54 Mo14 1_555 1_555
O55 Mo16 1_555 1_555
O55 Mo16B 1_555 1_555
O56 Mo16B 1_555 1_555
O57 Mo16 1_555 1_555
O58 Mo15 1_555 1_555
C5I N3I 1_555 1_555
C5I S2I 1_555 1_555
C7I N8I 1_555 1_555
C9I S4I 1_555 1_555
C12O S5O 1_555 1_555
C15I S1I 1_555 1_555
C16O C18O 1_555 1_555
C17I N23I 1_555 1_555
C20I N22I 1_555 1_555
C20I S3I 1_555 1_555
N2I Cu2I 1_555 1_555
N5I Cu2I 1_555 1_555
N7I N8I 1_555 1_555
C21O N24O 1_555 1_555
C21O S6O 1_555 1_555
N10I Cu4I 1_555 1_555
N11I N22I 1_555 1_555
N15I N23I 1_555 1_555
N16O N19O 1_555 1_555
N17O Cu3O 1_555 1_555
N21O N24O 1_555 1_555
O43B Mo14A 1_555 1_555
O45A Mo16A 1_555 1_555
O45B Mo16B 1_555 1_555
O46B Mo14B 1_555 1_555
O46A Mo13A 1_555 1_555
O46A Mo14A 1_555 1_555
O47B Mo15B 1_555 1_555
O47A Mo15A 1_555 1_555
O48A Mo13A 1_555 1_555
O48B Mo16A 1_555 1_555
O52B Mo15B 1_555 1_555
O52A Mo15A 1_555 1_555
O53B Mo15B 1_555 1_555
O53A Mo15A 1_555 1_555
O54B Mo14B 1_555 1_555
O54A Mo14A 1_555 1_555
O56A Mo16A 1_555 1_555
O56B Mo16A 1_555 1_555
O57A Mo16A 1_555 1_555
O57B Mo16B 1_555 1_555

#END
