
#######################################################################
#
#                 Cambridge Crystallographic Data Centre
#                                CCDC 
#
#######################################################################
#
# If this CIF has been generated from an entry in the Cambridge 
# Structural Database, then it will include bibliographic, chemical, 
# crystal, experimental, refinement or atomic coordinate data resulting 
# from the CCDC's data processing and validation procedures.
#
#######################################################################

data_WAPYUJ
_symmetry_cell_setting           triclinic
_symmetry_space_group_name_H-M   'P -1'
_symmetry_Int_Tables_number      2
_space_group_name_Hall           '-P 1'
loop_
_symmetry_equiv_pos_site_id
_symmetry_equiv_pos_as_xyz
1 x,y,z
2 -x,-y,-z
_cell_length_a                   5.879(5)
_cell_length_b                   7.778(7)
_cell_length_c                   15.134(13)
_cell_angle_alpha                79.077(12)
_cell_angle_beta                 86.606(11)
_cell_angle_gamma                85.822(12)
_cell_volume                     676.958
loop_
_atom_site_label
_atom_site_type_symbol
_atom_site_fract_x
_atom_site_fract_y
_atom_site_fract_z
K1 K 0.27519(11) 0.20112(9) -0.00260(4)
P1 P -0.25068(13) 0.34105(10) -0.14852(5)
O1 O -0.0626(3) 0.4079(3) -0.09765(14)
H1 H -0.0444 0.5156 -0.1189
C1 C -0.1699(5) 0.3926(4) -0.26637(19)
P2 P 0.19887(13) -0.17136(10) -0.15381(5)
O2 O -0.4873(3) 0.4152(3) -0.13151(14)
C2 C -0.3173(5) 0.4895(4) -0.3281(2)
H2 H -0.4654 0.5275 -0.3081
O3 O -0.2369(3) 0.1384(3) -0.11783(13)
H3 H -0.0996 0.1000 -0.1186
C3 C -0.2512(5) 0.5314(4) -0.4185(2)
H4 H -0.3547 0.5989 -0.4593
O4 O 0.1546(3) -0.0048(3) -0.11468(13)
C4 C -0.0360(5) 0.4770(4) -0.45132(19)
O5 O 0.4017(3) -0.2775(3) -0.10202(14)
H5 H 0.4252 -0.3762 -0.1184
C5 C 0.1101(6) 0.3788(5) -0.3884(2)
H6 H 0.2572 0.3387 -0.4084
O6 O -0.0098(3) -0.2761(3) -0.14783(14)
C6 C 0.0466(6) 0.3386(4) -0.2982(2)
H7 H 0.1512 0.2735 -0.2570
C7 C 0.2983(5) -0.1161(4) -0.26959(19)
C8 C 0.1797(5) -0.1584(4) -0.3385(2)
H8 H 0.0436 -0.2188 -0.3243
C9 C 0.2575(5) -0.1136(4) -0.4278(2)
H9 H 0.1734 -0.1442 -0.4737
C10 C 0.4570(5) -0.0243(4) -0.45202(19)
C11 C 0.5759(6) 0.0180(4) -0.3818(2)
H10 H 0.7121 0.0782 -0.3957
C12 C 0.4975(5) -0.0267(4) -0.2927(2)
H11 H 0.5806 0.0039 -0.2466
K1A K -0.27519(11) 0.79888(9) -0.99740(4)
K1_2 K -0.72481(11) 0.20112(9) -0.00260(4)
K1A_2 K -0.27519(11) -0.20112(9) 0.00260(4)
K1A_3 K 0.72481(11) -0.20112(9) 0.00260(4)
K1A_4 K 0.72481(11) 0.79888(9) -0.99740(4)
K1_3 K 0.27519(11) 1.20112(9) -1.00260(4)
K1A_5 K 0.72481(11) -0.20112(9) -0.99740(4)
K1_4 K 0.27519(11) 0.20112(9) -1.00260(4)
K1_5 K 1.27519(11) 0.20112(9) -1.00260(4)
P1A P 0.25068(13) 0.65895(10) -0.85148(5)
O1A O 0.0626(3) 0.5921(3) -0.90235(14)
H1A H 0.0444 0.4844 -0.8811
C1A C 0.1699(5) 0.6074(4) -0.73363(19)
P2A P 0.80113(13) 0.17136(10) -0.84619(5)
O2A O 0.4873(3) 0.5848(3) -0.86849(14)
O2_2 O 0.5127(3) 0.4152(3) -0.13151(14)
O2A_2 O -0.5127(3) 0.5848(3) -0.86849(14)
C2A C 0.3173(5) 0.5105(4) -0.6719(2)
H2A H 0.4654 0.4725 -0.6919
O3A O 0.2369(3) 0.8616(3) -0.88217(13)
O3A_2 O 0.2369(3) -0.1384(3) 0.11783(13)
O3_2 O -0.2369(3) 1.1384(3) -1.11783(13)
H3A H 0.0996 0.9000 -0.8814
H3A_2 H 0.0996 -0.1000 0.1186
H3_2 H -0.0996 1.1000 -1.1186
C3A C 0.2512(5) 0.4686(4) -0.5815(2)
H4A H 0.3547 0.4011 -0.5407
O4A O 0.8454(3) 0.0048(3) -0.88532(13)
O4A_2 O -0.1546(3) 1.0048(3) -0.88532(13)
C4A C 0.0360(5) 0.5230(4) -0.54868(19)
O5A O 0.5983(3) 0.2775(3) -0.89798(14)
O5A_2 O 0.5983(3) 0.2775(3) 0.10202(14)
O5_2 O -0.5983(3) 0.7225(3) -1.10202(14)
H5A H 0.5748 0.3762 -0.8816
H5A_2 H 0.5748 0.3762 0.1184
H5_2 H -0.5748 0.6238 -1.1184
C5A C -0.1101(6) 0.6212(5) -0.6116(2)
H6A H -0.2572 0.6613 -0.5916
O6A O 1.0098(3) 0.2761(3) -0.85217(14)
O6A_2 O 0.0098(3) 0.2761(3) 0.14783(14)
O6_2 O -0.0098(3) 0.7239(3) -1.14783(14)
C6A C -0.0466(6) 0.6614(4) -0.7018(2)
H7A H -0.1512 0.7265 -0.7430
C7A C 0.7017(5) 0.1161(4) -0.73041(19)
C8A C 0.8203(5) 0.1584(4) -0.6615(2)
H8A H 0.9564 0.2188 -0.6757
C9A C 0.7425(5) 0.1136(4) -0.5722(2)
H9A H 0.8266 0.1442 -0.5263
C10A C 0.5430(5) 0.0243(4) -0.54798(19)
C11A C 0.4241(6) -0.0180(4) -0.6182(2)
H10A H 0.2879 -0.0782 -0.6043
C12A C 0.5025(5) 0.0267(4) -0.7073(2)
H11A H 0.4194 -0.0039 -0.7534
loop_
_geom_bond_atom_site_label_1
_geom_bond_atom_site_label_2
_geom_bond_site_symmetry_1
_geom_bond_site_symmetry_2
K1 O1 1_555 1_555
P1 O1 1_555 1_555
O1 H1 1_555 1_555
C1 P1 1_555 1_555
P2 O4 1_555 1_555
O2 P1 1_555 1_555
C2 C1 1_555 1_555
H2 C2 1_555 1_555
O3 P1 1_555 1_555
H3 O3 1_555 1_555
C3 C2 1_555 1_555
H4 C3 1_555 1_555
O4 K1 1_555 1_555
C4 C3 1_555 1_555
O5 P2 1_555 1_555
H5 O5 1_555 1_555
C5 C4 1_555 1_555
H6 C5 1_555 1_555
O6 P2 1_555 1_555
C6 C1 1_555 1_555
H7 C6 1_555 1_555
C7 P2 1_555 1_555
C8 C7 1_555 1_555
H8 C8 1_555 1_555
C9 C8 1_555 1_555
H9 C9 1_555 1_555
C10 C9 1_555 1_555
C11 C10 1_555 1_555
H10 C11 1_555 1_555
C12 C7 1_555 1_555
H11 C12 1_555 1_555
K1A O1A 1_555 1_555
K1_2 O2 1_555 1_555
K1A_2 O3 1_555 1_555
K1A_3 O5 1_555 1_555
K1A_4 O2A 1_555 1_555
K1_3 O3A 1_555 1_555
K1A_5 O4A 1_555 1_555
K1_4 O5A 1_555 1_555
K1_5 O6A 1_555 1_555
P1A O1A 1_555 1_555
O1A H1A 1_555 1_555
C1A P1A 1_555 1_555
P2A O4A 1_555 1_555
O2A P1A 1_555 1_555
O2_2 K1 1_555 1_555
O2A_2 K1A 1_555 1_555
C2A C1A 1_555 1_555
H2A C2A 1_555 1_555
O3A P1A 1_555 1_555
O3A_2 K1 1_555 1_555
O3_2 K1A 1_555 1_555
H3A O3A 1_555 1_555
H3A_2 O3A_2 1_555 1_555
H3_2 O3_2 1_555 1_555
C3A C2A 1_555 1_555
H4A C3A 1_555 1_555
O4A_2 K1A 1_555 1_555
C4A C4 1_555 1_555
O5A P2A 1_555 1_555
O5A_2 K1 1_555 1_555
O5_2 K1A 1_555 1_555
H5A O5A 1_555 1_555
H5A_2 O5A_2 1_555 1_555
H5_2 O5_2 1_555 1_555
C5A C4A 1_555 1_555
H6A C5A 1_555 1_555
O6A P2A 1_555 1_555
O6A_2 K1 1_555 1_555
O6_2 K1A 1_555 1_555
C6A C1A 1_555 1_555
H7A C6A 1_555 1_555
C7A P2A 1_555 1_555
C8A C7A 1_555 1_555
H8A C8A 1_555 1_555
C9A C8A 1_555 1_555
H9A C9A 1_555 1_555
C10A C10 1_555 1_555
C11A C10A 1_555 1_555
H10A C11A 1_555 1_555
C12A C7A 1_555 1_555
H11A C12A 1_555 1_555
C5 C6 1_555 1_555
O6 K1A_2 1_555 1_555
C11 C12 1_555 1_555
C3A C4A 1_555 1_555
C5A C6A 1_555 1_555
C9A C10A 1_555 1_555
C11A C12A 1_555 1_555

#END
