
#######################################################################
#
#                 Cambridge Crystallographic Data Centre
#                                CCDC 
#
#######################################################################
#
# If this CIF has been generated from an entry in the Cambridge 
# Structural Database, then it will include bibliographic, chemical, 
# crystal, experimental, refinement or atomic coordinate data resulting 
# from the CCDC's data processing and validation procedures.
#
#######################################################################

data_WAPYAP
_symmetry_cell_setting           monoclinic
_symmetry_space_group_name_H-M   'C 2/c'
_symmetry_Int_Tables_number      15
_space_group_name_Hall           '-C 2yn'
loop_
_symmetry_equiv_pos_site_id
_symmetry_equiv_pos_as_xyz
1 x,y,z
2 -x,y,1/2-z
3 1/2+x,1/2+y,z
4 1/2-x,1/2+y,1/2-z
5 -x,-y,-z
6 x,-y,1/2+z
7 1/2-x,1/2-y,-z
8 1/2+x,1/2-y,1/2+z
_cell_length_a                   18.888(3)
_cell_length_b                   22.612(3)
_cell_length_c                   16.303(3)
_cell_angle_alpha                90
_cell_angle_beta                 95.871(3)
_cell_angle_gamma                90
_cell_volume                     6926.41
loop_
_atom_site_label
_atom_site_type_symbol
_atom_site_fract_x
_atom_site_fract_y
_atom_site_fract_z
Cu1 Cu 0.5000 0.23976(10) -0.7500
Cu2 Cu 0.42458(8) 0.14929(7) -0.91057(11)
P1 P 0.5000 0.32815(18) -1.2500
W1 W 0.32445(2) 0.33289(2) -1.18897(3)
W2 W 0.44349(3) 0.43941(2) -1.11605(4)
W3 W 0.45234(3) 0.21723(2) -1.11092(3)
W4 W 0.62153(3) 0.21685(2) -1.17047(3)
W5 W 0.57152(2) 0.32423(2) -1.03920(3)
W6 W 0.37483(3) 0.43961(2) -1.31974(4)
S1 S 0.6312(3) 0.3782(3) -0.7251(6)
S2 S 0.5833(2) 0.08156(16) -1.0014(2)
S3 S 0.6757(5) -0.0461(2) -0.7530(4)
O1 O 0.2427(4) 0.3203(4) -1.1609(6)
O2 O 0.4394(4) 0.3671(3) -1.2278(4)
O3 O 0.3820(4) 0.2782(3) -1.1240(5)
O4 O 0.5253(4) 0.2890(3) -1.1757(5)
O5 O 0.4189(4) 0.1959(4) -1.2214(5)
O6 O 0.3307(4) 0.2777(3) -1.2766(5)
O7 O 0.5029(4) 0.2628(3) -1.0259(5)
O8 O 0.3971(4) 0.4759(3) -1.2142(6)
O9 O 0.3054(4) 0.3938(3) -1.2711(5)
O10 O 0.4161(4) 0.1650(4) -1.0532(6)
O11 O 0.6329(4) 0.2632(3) -1.0709(5)
O12 O 0.4325(4) 0.4932(4) -1.0454(5)
O13 O 0.4949(4) 0.3791(3) -1.0544(5)
O14 O 0.5410(4) 0.1812(3) -1.1281(5)
O15 O 0.6066(5) 0.3363(4) -0.9414(5)
O16 O 0.5320(4) 0.4592(3) -1.1542(5)
O17 O 0.6852(5) 0.1660(4) -1.1469(6)
O18 O 0.3580(4) 0.3937(4) -1.1137(5)
O19 O 0.3228(4) 0.4906(4) -1.3703(6)
O20 O 0.6222(4) 0.3784(3) -1.1002(5)
N1 N 0.6402(5) 0.1716(5) -0.9025(7)
N2 N 0.5315(5) 0.1544(4) -0.8877(6)
N3 N 0.6079(5) 0.2337(5) -0.6048(7)
N4 N 0.6244(6) 0.2081(5) -0.8429(7)
N5 N 0.7055(6) 0.0108(5) -0.6087(8)
N6 N 0.6306(6) 0.0792(5) -0.6107(7)
N7 N 0.5852(6) 0.2689(5) -0.6707(7)
N8 N 0.5574(6) 0.1974(5) -0.8346(7)
N9 N 0.6604(6) 0.2564(5) -0.5609(7)
N10 N 0.6752(6) 0.3072(5) -0.5960(8)
N11 N 0.6151(7) 0.0506(5) -0.6818(9)
N12 N 0.6839(6) 0.0573(5) -0.5658(8)
C1 C 0.6119(19) 0.0216(9) -0.919(2)
H1 H 0.6233 -0.0145 -0.9472
H2 H 0.6549 0.0347 -0.8866
C2 C 0.5537(9) 0.3795(7) -0.7870(10)
C3 C 0.6286(8) 0.3159(6) -0.6631(10)
C4 C 0.5641(12) 0.0099(9) -0.8701(18)
H3 H 0.5199 -0.0028 -0.9006
H4 H 0.5548 0.0441 -0.8368
C5 C 0.7318(8) 0.3444(7) -0.5608(12)
H5 H 0.7352 0.3787 -0.5950
H6 H 0.7759 0.3230 -0.5573
H7 H 0.7222 0.3566 -0.5066
C6 C 0.5196(13) 0.4079(13) -0.716(2)
C7 C 0.7123(6) 0.1726(7) -0.9295(9)
H8 H 0.7151 0.1444 -0.9732
H9 H 0.7464 0.1625 -0.8839
H10 H 0.7224 0.2114 -0.9489
C8 C 0.5857(6) 0.1381(5) -0.9294(8)
C9 C 0.7641(7) -0.0256(6) -0.5804(12)
H11 H 0.7703 -0.0557 -0.6207
H12 H 0.7553 -0.0439 -0.5293
H13 H 0.8064 -0.0020 -0.5722
C10 C 0.6652(10) 0.0087(6) -0.6817(9)
C11 C 0.5958(19) -0.0368(9) -0.8204(14)
H14 H 0.5976 -0.0691 -0.8592
H15 H 0.5588 -0.0476 -0.7861
Cu2A Cu 0.57542(8) 0.14929(7) -0.58943(11)
Cu2A_2 Cu 0.57542(8) 0.14929(7) -1.58943(11)
W1A W 0.67555(2) 0.33289(2) -1.31103(3)
W2A W 0.55651(3) 0.43941(2) -1.38395(4)
W3A W 0.54766(3) 0.21723(2) -1.38908(3)
W4A W 0.37847(3) 0.21685(2) -1.32953(3)
W5A W 0.42848(2) 0.32423(2) -1.46080(3)
W6A W 0.62517(3) 0.43961(2) -1.18026(4)
S1A S 0.3688(3) 0.3782(3) -0.7749(6)
S2A S 0.4167(2) 0.08156(16) -0.4986(2)
S3A S 0.3243(5) -0.0461(2) -0.7470(4)
O1A O 0.7573(4) 0.3203(4) -1.3391(6)
O2A O 0.5606(4) 0.3671(3) -1.2722(4)
O3A O 0.6180(4) 0.2782(3) -1.3760(5)
O4A O 0.4747(4) 0.2890(3) -1.3243(5)
O5A O 0.5811(4) 0.1959(4) -1.2786(5)
O6A O 0.6693(4) 0.2777(3) -1.2234(5)
O7A O 0.4971(4) 0.2628(3) -1.4741(5)
O8A O 0.6029(4) 0.4759(3) -1.2858(6)
O9A O 0.6946(4) 0.3938(3) -1.2289(5)
O10A O 0.5839(4) 0.1650(4) -0.4468(6)
O10A_2 O 0.5839(4) 0.1650(4) -1.4468(6)
O11A O 0.3671(4) 0.2632(3) -1.4291(5)
O12A O 0.5675(4) 0.4932(4) -1.4546(5)
O13A O 0.5051(4) 0.3791(3) -1.4456(5)
O14A O 0.4590(4) 0.1812(3) -1.3719(5)
O15A O 0.3934(5) 0.3363(4) -1.5586(5)
O16A O 0.4680(4) 0.4592(3) -1.3458(5)
O17A O 0.3148(5) 0.1660(4) -1.3531(6)
O18A O 0.6420(4) 0.3937(4) -1.3863(5)
O19A O 0.6772(4) 0.4906(4) -1.1297(6)
O20A O 0.3778(4) 0.3784(3) -1.3998(5)
N1A N 0.3598(5) 0.1716(5) -0.5975(7)
N2A N 0.4685(5) 0.1544(4) -0.6123(6)
N3A N 0.3921(5) 0.2337(5) -0.8952(7)
N4A N 0.3756(6) 0.2081(5) -0.6571(7)
N5A N 0.2945(6) 0.0108(5) -0.8913(8)
N6A N 0.3694(6) 0.0792(5) -0.8893(7)
N7A N 0.4148(6) 0.2689(5) -0.8293(7)
N8A N 0.4426(6) 0.1974(5) -0.6654(7)
N9A N 0.3396(6) 0.2564(5) -0.9391(7)
N10A N 0.3248(6) 0.3072(5) -0.9040(8)
N11A N 0.3849(7) 0.0506(5) -0.8182(9)
N12A N 0.3161(6) 0.0573(5) -0.9342(8)
C1A C 0.3881(19) 0.0216(9) -0.581(2)
H1A H 0.3767 -0.0145 -0.5528
H2A H 0.3451 0.0347 -0.6134
C2A C 0.4463(9) 0.3795(7) -0.7130(10)
C3A C 0.3714(8) 0.3159(6) -0.8369(10)
C4A C 0.4359(12) 0.0099(9) -0.6299(18)
H3A H 0.4801 -0.0028 -0.5994
H4A H 0.4452 0.0441 -0.6632
C5A C 0.2682(8) 0.3444(7) -0.9392(12)
H5A H 0.2648 0.3787 -0.9050
H6A H 0.2241 0.3230 -0.9427
H7A H 0.2778 0.3566 -0.9934
C6A C 0.4804(13) 0.4079(13) -0.784(2)
C7A C 0.2877(6) 0.1726(7) -0.5705(9)
H8A H 0.2849 0.1444 -0.5268
H9A H 0.2536 0.1625 -0.6161
H10A H 0.2776 0.2114 -0.5511
C8A C 0.4143(6) 0.1381(5) -0.5706(8)
C9A C 0.2359(7) -0.0256(6) -0.9196(12)
H11A H 0.2297 -0.0557 -0.8793
H12A H 0.2447 -0.0439 -0.9707
H13A H 0.1936 -0.0020 -0.9278
C10A C 0.3348(10) 0.0087(6) -0.8183(9)
C11A C 0.4042(19) -0.0368(9) -0.6796(14)
H14A H 0.4024 -0.0691 -0.6408
H15A H 0.4412 -0.0476 -0.7139
loop_
_geom_bond_atom_site_label_1
_geom_bond_atom_site_label_2
_geom_bond_site_symmetry_1
_geom_bond_site_symmetry_2
Cu1 N7 1_555 1_555
Cu2 O10 1_555 1_555
P1 O2 1_555 1_555
W1 O1 1_555 1_555
W2 O2 1_555 1_555
W3 O3 1_555 1_555
W4 O4 1_555 1_555
W5 O4 1_555 1_555
W6 O2 1_555 1_555
S1 C2 1_555 1_555
S2 C1 1_555 1_555
S3 C10 1_555 1_555
O2 W1 1_555 1_555
O3 W1 1_555 1_555
O4 P1 1_555 1_555
O5 W3 1_555 1_555
O6 W1 1_555 1_555
O7 W3 1_555 1_555
O8 W2 1_555 1_555
O9 W1 1_555 1_555
O10 W3 1_555 1_555
O11 W4 1_555 1_555
O12 W2 1_555 1_555
O13 W2 1_555 1_555
O14 W3 1_555 1_555
O15 W5 1_555 1_555
O16 W2 1_555 1_555
O17 W4 1_555 1_555
O18 W1 1_555 1_555
O19 W6 1_555 1_555
O20 W5 1_555 1_555
N1 N4 1_555 1_555
N2 Cu2 1_555 1_555
N3 N7 1_555 1_555
N4 N8 1_555 1_555
N5 N12 1_555 1_555
N6 N11 1_555 1_555
N7 C3 1_555 1_555
N8 Cu1 1_555 1_555
N9 N3 1_555 1_555
N10 N9 1_555 1_555
N11 C10 1_555 1_555
N12 N6 1_555 1_555
C1 H1 1_555 1_555
H2 C1 1_555 1_555
C2 C6 1_555 1_555
C3 S1 1_555 1_555
C4 C1 1_555 1_555
H3 C4 1_555 1_555
H4 C4 1_555 1_555
C5 N10 1_555 1_555
H5 C5 1_555 1_555
H6 C5 1_555 1_555
H7 C5 1_555 1_555
C6 C2A 1_555 1_555
C7 N1 1_555 1_555
H8 C7 1_555 1_555
H9 C7 1_555 1_555
H10 C7 1_555 1_555
C8 S2 1_555 1_555
C9 N5 1_555 1_555
H11 C9 1_555 1_555
H12 C9 1_555 1_555
H13 C9 1_555 1_555
C10 N5 1_555 1_555
C11 S3 1_555 1_555
H14 C11 1_555 1_555
H15 C11 1_555 1_555
Cu2A N3 1_555 1_555
Cu2A_2 O10A_2 1_555 1_555
W1A O1A 1_555 1_555
W2A O2A 1_555 1_555
W3A O3A 1_555 1_555
W4A O5 1_555 1_555
W5A O4A 1_555 1_555
W6A O16 1_555 1_555
S1A C2A 1_555 1_555
S2A C1A 1_555 1_555
S3A C10A 1_555 1_555
O2A P1 1_555 1_555
O3A W1A 1_555 1_555
O4A P1 1_555 1_555
O5A W4 1_555 1_555
O6A W4 1_555 1_555
O7A W3A 1_555 1_555
O8A W2A 1_555 1_555
O9A W1A 1_555 1_555
O10A Cu2A 1_555 1_555
O10A_2 W3A 1_555 1_555
O11A W4A 1_555 1_555
O12A W2A 1_555 1_555
O13A W2A 1_555 1_555
O14A W3A 1_555 1_555
O15A W5A 1_555 1_555
O16A W6 1_555 1_555
O17A W4A 1_555 1_555
O18A W1A 1_555 1_555
O19A W6A 1_555 1_555
O20A W6 1_555 1_555
N1A N4A 1_555 1_555
N2A Cu2A 1_555 1_555
N3A Cu2 1_555 1_555
N4A N8A 1_555 1_555
N5A N12A 1_555 1_555
N6A Cu2 1_555 1_555
N7A Cu1 1_555 1_555
N8A Cu1 1_555 1_555
N9A N3A 1_555 1_555
N10A N9A 1_555 1_555
N11A N6A 1_555 1_555
N12A N6A 1_555 1_555
C1A H1A 1_555 1_555
H2A C1A 1_555 1_555
C2A C6A 1_555 1_555
C3A S1A 1_555 1_555
C4A C1A 1_555 1_555
H3A C4A 1_555 1_555
H4A C4A 1_555 1_555
C5A N10A 1_555 1_555
H5A C5A 1_555 1_555
H6A C5A 1_555 1_555
H7A C5A 1_555 1_555
C6A C2 1_555 1_555
C7A N1A 1_555 1_555
H8A C7A 1_555 1_555
H9A C7A 1_555 1_555
H10A C7A 1_555 1_555
C8A S2A 1_555 1_555
C9A N5A 1_555 1_555
H11A C9A 1_555 1_555
H12A C9A 1_555 1_555
H13A C9A 1_555 1_555
C10A N5A 1_555 1_555
C11A S3A 1_555 1_555
H14A C11A 1_555 1_555
H15A C11A 1_555 1_555
W2 O18 1_555 1_555
W3 O4 1_555 1_555
W4 O14 1_555 1_555
W5 O7 1_555 1_555
W5 O11 1_555 1_555
W5 O13 1_555 1_555
W6 O8 1_555 1_555
W6 O9 1_555 1_555
O6 W4A 1_555 1_555
O20 W6A 1_555 1_555
N1 C8 1_555 1_555
N2 N8 1_555 1_555
N2 C8 1_555 1_555
N6 Cu2A 1_555 1_555
N10 C3 1_555 1_555
C4 C11 1_555 1_555
C6 C6A 1_555 1_555
W1A O2A 1_555 1_555
W1A O6A 1_555 1_555
W2A O16A 1_555 1_555
W2A O18A 1_555 1_555
W3A O4A 1_555 1_555
W3A O5A 1_555 1_555
W4A O4A 1_555 1_555
W4A O14A 1_555 1_555
W5A O7A 1_555 1_555
W5A O11A 1_555 1_555
W5A O13A 1_555 1_555
W5A O20A 1_555 1_555
W6A O2A 1_555 1_555
W6A O8A 1_555 1_555
W6A O9A 1_555 1_555
N1A C8A 1_555 1_555
N2A N8A 1_555 1_555
N2A C8A 1_555 1_555
N3A N7A 1_555 1_555
N7A C3A 1_555 1_555
N10A C3A 1_555 1_555
N11A C10A 1_555 1_555
C4A C11A 1_555 1_555

#END
