
#######################################################################
#
#                 Cambridge Crystallographic Data Centre
#                                CCDC 
#
#######################################################################
#
# If this CIF has been generated from an entry in the Cambridge 
# Structural Database, then it will include bibliographic, chemical, 
# crystal, experimental, refinement or atomic coordinate data resulting 
# from the CCDC's data processing and validation procedures.
#
#######################################################################

data_WAPYOD
_symmetry_cell_setting           triclinic
_symmetry_space_group_name_H-M   'P -1'
_symmetry_Int_Tables_number      2
_space_group_name_Hall           '-P 1'
loop_
_symmetry_equiv_pos_site_id
_symmetry_equiv_pos_as_xyz
1 x,y,z
2 -x,-y,-z
_cell_length_a                   5.716(4)
_cell_length_b                   7.905(6)
_cell_length_c                   14.366(10)
_cell_angle_alpha                88.100(8)
_cell_angle_beta                 84.499(8)
_cell_angle_gamma                82.628(7)
_cell_volume                     640.654
loop_
_atom_site_label
_atom_site_type_symbol
_atom_site_fract_x
_atom_site_fract_y
_atom_site_fract_z
Na1 Na 0.3032(4) 0.6875(3) 0.99261(17)
O1 O -0.0453(7) 0.7414(4) 0.9055(3)
C1 C -0.1394(11) 0.9154(7) 0.7445(4)
P1 P -0.1987(3) 0.89305(18) 0.86959(12)
P2 P -0.2448(3) 0.65538(19) 1.13891(12)
O2 O -0.4651(7) 0.8807(4) 0.8921(3)
H1 H -0.5429 0.9761 0.8824
C2 C -0.3092(12) 1.0035(8) 0.6899(5)
H2 H -0.4632 1.0422 0.7180
O3 O -0.1612(7) 1.0635(4) 0.9134(3)
H3 H -0.0248 1.0874 0.8956
C3 C -0.2540(12) 1.0339(8) 0.5963(5)
H4 H -0.3724 1.0936 0.5613
O4 O 0.0282(7) 0.5837(5) 1.1193(3)
H5 H 0.0418 0.4782 1.1108
C4 C -0.0307(11) 0.9808(7) 0.5502(4)
O5 O -0.3968(7) 0.5766(5) 1.0798(3)
C5 C 0.1354(12) 0.8922(8) 0.6066(5)
H6 H 0.2897 0.8529 0.5790
O6 O -0.2431(7) 0.8501(4) 1.1300(3)
C6 C 0.0811(11) 0.8611(8) 0.7000(5)
H7 H 0.1985 0.8005 0.7352
C7 C -0.3284(11) 0.6046(7) 1.2600(4)
C8 C -0.5260(12) 0.5220(8) 1.2849(5)
H8 H -0.6179 0.4932 1.2375
C9 C -0.5931(12) 0.4804(8) 1.3778(5)
H9 H -0.7287 0.4229 1.3923
C10 C -0.4641(11) 0.5216(7) 1.4506(4)
C11 C -0.2637(11) 0.6074(8) 1.4243(5)
H10 H -0.1724 0.6382 1.4714
C12 C -0.1977(11) 0.6475(7) 1.3315(5)
H11 H -0.0622 0.7047 1.3163
Na1A Na -0.3032(4) 1.3125(3) 0.00739(17)
Na1_2 Na -0.6968(4) 0.6875(3) 0.99261(17)
Na1A_2 Na -0.3032(4) 1.3125(3) 1.00739(17)
Na1A_3 Na -0.3032(4) 0.3125(3) 1.00739(17)
Na1A_4 Na 0.6968(4) 1.3125(3) 0.00739(17)
Na1_3 Na 0.3032(4) 0.6875(3) -0.00739(17)
Na1A_5 Na -1.3032(4) 0.3125(3) 2.00739(17)
Na1_4 Na -0.6968(4) 0.6875(3) 1.99261(17)
Na1A_6 Na -0.3032(4) 0.3125(3) 2.00739(17)
O1A O 0.0453(7) 1.2586(4) 0.0945(3)
C1A C 0.1394(11) 1.0846(7) 0.2555(4)
P1A P 0.1987(3) 1.10695(18) 0.13041(12)
P2A P -0.7552(3) 0.34462(19) 1.86109(12)
O2A O 0.4651(7) 1.1193(4) 0.1079(3)
O2_2 O 0.5349(7) 0.8807(4) 0.8921(3)
O2A_2 O -0.5349(7) 1.1193(4) 0.1079(3)
H1A H 0.5429 1.0239 0.1176
H1_2 H 0.4571 0.9761 0.8824
H1A_2 H -0.4571 1.0239 0.1176
C2A C 0.3092(12) 0.9965(8) 0.3101(5)
H2A H 0.4632 0.9578 0.2820
O3A O 0.1612(7) 0.9365(4) 0.0866(3)
O3A_2 O 0.1612(7) 0.9365(4) 1.0866(3)
O3_2 O -0.1612(7) 1.0635(4) -0.0866(3)
H3A H 0.0248 0.9126 0.1044
H3A_2 H 0.0248 0.9126 1.1044
H3_2 H -0.0248 1.0874 -0.1044
C3A C 0.2540(12) 0.9661(8) 0.4037(5)
H4A H 0.3724 0.9064 0.4387
O4A O -1.0282(7) 0.4163(5) 1.8807(3)
O4A_2 O -0.0282(7) 1.4163(5) -0.1193(3)
H5A H -1.0418 0.5218 1.8892
H5A_2 H -0.0418 1.5218 -0.1108
C4A C 0.0307(11) 1.0192(7) 0.4498(4)
O5A O -0.6032(7) 0.4234(5) 1.9202(3)
O5A_2 O 0.3968(7) 0.4234(5) 0.9202(3)
O5_2 O 0.6032(7) 0.5766(5) 1.0798(3)
O5_3 O -0.3968(7) 1.5766(5) 0.0798(3)
O5A_3 O -0.6032(7) 1.4234(5) -0.0798(3)
C5A C -0.1354(12) 1.1078(8) 0.3934(5)
H6A H -0.2897 1.1471 0.4210
O6A O -0.7569(7) 0.1499(4) 1.8700(3)
C6A C -0.0811(11) 1.1389(8) 0.3000(5)
H7A H -0.1985 1.1995 0.2648
C7A C -0.6716(11) 0.3954(7) 1.7400(4)
C8A C -0.4740(12) 0.4780(8) 1.7151(5)
H8A H -0.3821 0.5068 1.7625
C9A C -0.4069(12) 0.5196(8) 1.6222(5)
H9A H -0.2713 0.5771 1.6077
C10A C -0.5359(11) 0.4784(7) 1.5494(4)
C11A C -0.7363(11) 0.3926(8) 1.5757(5)
H10A H -0.8276 0.3618 1.5286
C12A C -0.8023(11) 0.3525(7) 1.6685(5)
H11A H -0.9378 0.2953 1.6837
loop_
_geom_bond_atom_site_label_1
_geom_bond_atom_site_label_2
_geom_bond_site_symmetry_1
_geom_bond_site_symmetry_2
Na1 O1 1_555 1_555
O1 P1 1_555 1_555
C1 P1 1_555 1_555
P1 O2 1_555 1_555
P2 O4 1_555 1_555
O2 H1 1_555 1_555
C2 C1 1_555 1_555
H2 C2 1_555 1_555
O3 P1 1_555 1_555
H3 O3 1_555 1_555
C3 C2 1_555 1_555
H4 C3 1_555 1_555
O4 Na1 1_555 1_555
H5 O4 1_555 1_555
C4 C3 1_555 1_555
O5 P2 1_555 1_555
C5 C4 1_555 1_555
H6 C5 1_555 1_555
O6 P2 1_555 1_555
C6 C1 1_555 1_555
H7 C6 1_555 1_555
C7 P2 1_555 1_555
C8 C7 1_555 1_555
H8 C8 1_555 1_555
C9 C8 1_555 1_555
H9 C9 1_555 1_555
C10 C9 1_555 1_555
C11 C10 1_555 1_555
H10 C11 1_555 1_555
C12 C7 1_555 1_555
H11 C12 1_555 1_555
Na1A O1A 1_555 1_555
Na1_2 O2 1_555 1_555
Na1A_2 O3 1_555 1_555
Na1A_3 O5 1_555 1_555
Na1A_4 O2A 1_555 1_555
Na1_3 O3A 1_555 1_555
Na1A_5 O4A 1_555 1_555
Na1_4 O5A 1_555 1_555
Na1A_6 O5A 1_555 1_555
O1A P1A 1_555 1_555
C1A P1A 1_555 1_555
P1A O2A 1_555 1_555
P2A O4A 1_555 1_555
O2A H1A 1_555 1_555
O2_2 Na1 1_555 1_555
O2A_2 Na1A 1_555 1_555
H1_2 O2_2 1_555 1_555
H1A_2 O2A_2 1_555 1_555
C2A C1A 1_555 1_555
H2A C2A 1_555 1_555
O3A P1A 1_555 1_555
O3A_2 Na1 1_555 1_555
O3_2 Na1A 1_555 1_555
H3A O3A 1_555 1_555
H3A_2 O3A_2 1_555 1_555
H3_2 O3_2 1_555 1_555
C3A C2A 1_555 1_555
H4A C3A 1_555 1_555
O4A H5A 1_555 1_555
O4A_2 Na1A 1_555 1_555
H5A_2 O4A_2 1_555 1_555
C4A C4 1_555 1_555
O5A P2A 1_555 1_555
O5A_2 Na1 1_555 1_555
O5_2 Na1 1_555 1_555
O5_3 Na1A 1_555 1_555
O5A_3 Na1A 1_555 1_555
C5A C4A 1_555 1_555
H6A C5A 1_555 1_555
O6A P2A 1_555 1_555
C6A C1A 1_555 1_555
H7A C6A 1_555 1_555
C7A P2A 1_555 1_555
C8A C7A 1_555 1_555
H8A C8A 1_555 1_555
C9A C8A 1_555 1_555
H9A C9A 1_555 1_555
C10A C10 1_555 1_555
C11A C10A 1_555 1_555
H10A C11A 1_555 1_555
C12A C7A 1_555 1_555
H11A C12A 1_555 1_555
O5 Na1_2 1_555 1_555
C5 C6 1_555 1_555
C11 C12 1_555 1_555
C3A C4A 1_555 1_555
C5A C6A 1_555 1_555
C9A C10A 1_555 1_555
C11A C12A 1_555 1_555

#END
