
#######################################################################
#
#                 Cambridge Crystallographic Data Centre
#                                CCDC 
#
#######################################################################
#
# If this CIF has been generated from an entry in the Cambridge 
# Structural Database, then it will include bibliographic, chemical, 
# crystal, experimental, refinement or atomic coordinate data resulting 
# from the CCDC's data processing and validation procedures.
#
#######################################################################

data_WAPZAQ
_symmetry_cell_setting           triclinic
_symmetry_space_group_name_H-M   'P -1'
_symmetry_Int_Tables_number      2
_space_group_name_Hall           '-P 1'
loop_
_symmetry_equiv_pos_site_id
_symmetry_equiv_pos_as_xyz
1 x,y,z
2 -x,-y,-z
_cell_length_a                   5.872(2)
_cell_length_b                   7.680(3)
_cell_length_c                   15.242(5)
_cell_angle_alpha                101.822(3)
_cell_angle_beta                 91.516(4)
_cell_angle_gamma                93.709(4)
_cell_volume                     670.824
loop_
_atom_site_label
_atom_site_type_symbol
_atom_site_fract_x
_atom_site_fract_y
_atom_site_fract_z
Rb1 Rb -0.22084(4) 0.78392(3) 0.514197(16)
P1 P -0.70541(11) 0.69850(8) 0.34492(4)
O1 O -0.5758(3) 0.5819(2) 0.39669(12)
C1 C -0.6433(4) 0.6337(3) 0.22876(17)
P2 P -0.73749(11) 0.77577(8) 0.66477(4)
O2 O -0.6371(3) 0.8919(2) 0.38011(12)
C2 C -0.4327(5) 0.6878(4) 0.19983(18)
H1 H -0.3253 0.7607 0.2415
O3 O -0.9657(3) 0.6613(2) 0.35183(12)
H2 H -0.9931 0.5561 0.3585
C3 C -0.3782(5) 0.6366(4) 0.11109(18)
H3 H -0.2339 0.6761 0.0927
O4 O -0.4945(3) 0.7229(2) 0.66840(12)
H4 H -0.4906 0.6141 0.6451
C4 C -0.5299(4) 0.5283(3) 0.04784(17)
O5 O -0.9124(3) 0.6335(2) 0.61728(12)
C5 C -0.7394(4) 0.4744(4) 0.07794(18)
H5 H -0.8465 0.4002 0.0366
O6 O -0.7467(3) 0.9350(2) 0.61533(12)
H6 H -0.6194 0.9937 0.6218
C6 C -0.7953(4) 0.5264(3) 0.16664(18)
H7 H -0.9399 0.4878 0.1851
C7 C -0.8191(4) 0.8567(3) 0.77742(17)
C8 C -1.0179(5) 0.9451(4) 0.79309(18)
H8 H -1.1071 0.9664 0.7440
C9 C -1.0869(5) 1.0022(4) 0.87964(18)
H9 H -1.2219 1.0641 0.8892
C10 C -0.9610(4) 0.9703(3) 0.95351(17)
C11 C -0.7640(5) 0.8809(4) 0.93625(18)
H10 H -0.6753 0.8573 0.9850
C12 C -0.6936(4) 0.8250(3) 0.84965(18)
H11 H -0.5576 0.7644 0.8399
Rb1A Rb -0.77916(4) 0.21608(3) -0.514197(16)
Rb1A_2 Rb -0.77916(4) 1.21608(3) 0.485803(16)
Rb1_2 Rb -1.22084(4) 0.78392(3) 0.514197(16)
Rb1_3 Rb -0.22084(4) -0.21608(3) -0.485803(16)
Rb1A_3 Rb 0.22084(4) 0.21608(3) -0.514197(16)
Rb1A_4 Rb -1.77916(4) 1.21608(3) 1.485803(16)
Rb1A_5 Rb -0.77916(4) 1.21608(3) 1.485803(16)
Rb1_4 Rb -1.22084(4) 0.78392(3) 1.514197(16)
P1A P -0.29459(11) 0.30150(8) -0.34492(4)
O1A O -0.4242(3) 0.4181(2) -0.39669(12)
C1A C -0.3567(4) 0.3663(3) -0.22876(17)
P2A P -1.26251(11) 1.22423(8) 1.33523(4)
O2A O -0.3629(3) 0.1081(2) -0.38011(12)
O2A_2 O -0.3629(3) 1.1081(2) 0.61989(12)
O2_2 O -0.6371(3) -0.1081(2) -0.61989(12)
C2A C -0.5673(5) 0.3122(4) -0.19983(18)
H1A H -0.6747 0.2393 -0.2415
O3A O -0.0343(3) 0.3387(2) -0.35183(12)
O3_2 O 0.0343(3) 0.6613(2) 0.35183(12)
O3A_2 O -1.0343(3) 0.3387(2) -0.35183(12)
H2A H -0.0069 0.4439 -0.3585
H2_2 H 0.0069 0.5561 0.3585
H2A_2 H -1.0069 0.4439 -0.3585
C3A C -0.6218(5) 0.3634(4) -0.11109(18)
H3A H -0.7661 0.3239 -0.0927
O4A O -1.5055(3) 1.2771(2) 1.33160(12)
O4A_2 O -0.5055(3) 0.2771(2) -0.66840(12)
H4A H -1.5094 1.3859 1.3549
H4A_2 H -0.5094 0.3859 -0.6451
C4A C -0.4701(4) 0.4717(3) -0.04784(17)
O5A O -1.0876(3) 1.3665(2) 1.38272(12)
O5_2 O 0.0876(3) 0.6335(2) 0.61728(12)
O5A_2 O -1.0876(3) 0.3665(2) -0.61728(12)
C5A C -0.2606(4) 0.5256(4) -0.07794(18)
H5A H -0.1535 0.5998 -0.0366
O6A O -1.2533(3) 1.0650(2) 1.38467(12)
O6_2 O 0.2533(3) 0.9350(2) 0.61533(12)
O6A_2 O -0.2533(3) 1.0650(2) 0.38467(12)
O6A_3 O -1.2533(3) 0.0650(2) -0.61533(12)
O6_3 O -0.7467(3) -0.0650(2) -0.38467(12)
H6A H -1.3806 1.0063 1.3782
H6_2 H 0.3806 0.9937 0.6218
H6A_2 H -0.3806 1.0063 0.3782
H6A_3 H -1.3806 0.0063 -0.6218
H6_3 H -0.6194 -0.0063 -0.3782
C6A C -0.2047(4) 0.4736(3) -0.16664(18)
H7A H -0.0601 0.5122 -0.1851
C7A C -1.1809(4) 1.1433(3) 1.22258(17)
C8A C -0.9821(5) 1.0549(4) 1.20691(18)
H8A H -0.8929 1.0336 1.2560
C9A C -0.9131(5) 0.9978(4) 1.12036(18)
H9A H -0.7781 0.9359 1.1108
C10A C -1.0390(4) 1.0297(3) 1.04649(17)
C11A C -1.2360(5) 1.1191(4) 1.06375(18)
H10A H -1.3247 1.1427 1.0150
C12A C -1.3064(4) 1.1750(3) 1.15035(18)
H11A H -1.4424 1.2356 1.1601
loop_
_geom_bond_atom_site_label_1
_geom_bond_atom_site_label_2
_geom_bond_site_symmetry_1
_geom_bond_site_symmetry_2
Rb1 O1 1_555 1_555
P1 O1 1_555 1_555
C1 P1 1_555 1_555
P2 O4 1_555 1_555
O2 P1 1_555 1_555
C2 C1 1_555 1_555
H1 C2 1_555 1_555
O3 P1 1_555 1_555
H2 O3 1_555 1_555
C3 C2 1_555 1_555
H3 C3 1_555 1_555
O4 Rb1 1_555 1_555
H4 O4 1_555 1_555
C4 C3 1_555 1_555
O5 P2 1_555 1_555
C5 C4 1_555 1_555
H5 C5 1_555 1_555
O6 P2 1_555 1_555
H6 O6 1_555 1_555
C6 C1 1_555 1_555
H7 C6 1_555 1_555
C7 P2 1_555 1_555
C8 C7 1_555 1_555
H8 C8 1_555 1_555
C9 C8 1_555 1_555
H9 C9 1_555 1_555
C10 C9 1_555 1_555
C11 C10 1_555 1_555
H10 C11 1_555 1_555
C12 C7 1_555 1_555
H11 C12 1_555 1_555
Rb1A O1A 1_555 1_555
Rb1A_2 O2 1_555 1_555
Rb1_2 O3 1_555 1_555
Rb1_3 O2A 1_555 1_555
Rb1A_3 O3A 1_555 1_555
Rb1A_4 O4A 1_555 1_555
Rb1A_5 O5A 1_555 1_555
Rb1_4 O6A 1_555 1_555
P1A O1A 1_555 1_555
C1A P1A 1_555 1_555
P2A O4A 1_555 1_555
O2A P1A 1_555 1_555
O2A_2 Rb1 1_555 1_555
O2_2 Rb1A 1_555 1_555
C2A C1A 1_555 1_555
H1A C2A 1_555 1_555
O3A P1A 1_555 1_555
O3_2 Rb1 1_555 1_555
O3A_2 Rb1A 1_555 1_555
H2A O3A 1_555 1_555
H2_2 O3_2 1_555 1_555
H2A_2 O3A_2 1_555 1_555
C3A C2A 1_555 1_555
H3A C3A 1_555 1_555
O4A H4A 1_555 1_555
O4A_2 Rb1A 1_555 1_555
H4A_2 O4A_2 1_555 1_555
C4A C4 1_555 1_555
O5A P2A 1_555 1_555
O5_2 Rb1 1_555 1_555
O5A_2 Rb1A 1_555 1_555
C5A C4A 1_555 1_555
H5A C5A 1_555 1_555
O6A Rb1A_5 1_555 1_555
O6_2 Rb1 1_555 1_555
O6A_2 Rb1 1_555 1_555
O6A_3 Rb1A 1_555 1_555
O6_3 Rb1A 1_555 1_555
H6A O6A 1_555 1_555
H6_2 O6_2 1_555 1_555
H6A_2 O6A_2 1_555 1_555
H6A_3 O6A_3 1_555 1_555
H6_3 O6_3 1_555 1_555
C6A C1A 1_555 1_555
H7A C6A 1_555 1_555
C7A P2A 1_555 1_555
C8A C7A 1_555 1_555
H8A C8A 1_555 1_555
C9A C8A 1_555 1_555
H9A C9A 1_555 1_555
C10A C10 1_555 1_555
C11A C10A 1_555 1_555
H10A C11A 1_555 1_555
C12A C7A 1_555 1_555
H11A C12A 1_555 1_555
O5 Rb1_2 1_555 1_555
C5 C6 1_555 1_555
O6 Rb1A_2 1_555 1_555
O6 Rb1_2 1_555 1_555
C11 C12 1_555 1_555
P2A O6A 1_555 1_555
C3A C4A 1_555 1_555
C5A C6A 1_555 1_555
C9A C10A 1_555 1_555
C11A C12A 1_555 1_555

#END
