
#######################################################################
#
#                 Cambridge Crystallographic Data Centre
#                                CCDC 
#
#######################################################################
#
# If this CIF has been generated from an entry in the Cambridge 
# Structural Database, then it will include bibliographic, chemical, 
# crystal, experimental, refinement or atomic coordinate data resulting 
# from the CCDC's data processing and validation procedures.
#
#######################################################################

data_WAQBEX
_symmetry_cell_setting           triclinic
_symmetry_space_group_name_H-M   'P -1'
_symmetry_Int_Tables_number      2
_space_group_name_Hall           '-P 1'
loop_
_symmetry_equiv_pos_site_id
_symmetry_equiv_pos_as_xyz
1 x,y,z
2 -x,-y,-z
_cell_length_a                   6.2532(13)
_cell_length_b                   11.841(2)
_cell_length_c                   13.328(3)
_cell_angle_alpha                110.76(3)
_cell_angle_beta                 94.47(3)
_cell_angle_gamma                104.37(3)
_cell_volume                     878.794
loop_
_atom_site_label
_atom_site_type_symbol
_atom_site_fract_x
_atom_site_fract_y
_atom_site_fract_z
Bi1 Bi 0.28386(5) 0.06208(3) 0.43423(3)
Bi2 Bi 0.34606(5) -0.24112(3) 0.20686(3)
F1 F 0.2521(9) -0.0754(5) 0.2393(5)
F2 F 0.4959(9) -0.0955(5) 0.4069(5)
O1 O 0.1291(11) 0.1578(6) 0.3238(6)
O2 O 0.5553(12) -0.4023(7) 0.1179(7)
O3 O 0.0288(11) 0.1386(6) 0.5569(6)
O4 O -0.0343(11) 0.3030(6) 0.6867(6)
O5 O 0.6098(10) 0.1529(6) 0.3942(6)
O6 O 0.8998(11) 0.3201(6) 0.4284(6)
O7 O 0.6982(11) -0.1151(6) 0.2119(6)
O8 O 0.9148(11) -0.0091(7) 0.1306(6)
O9 O 0.0008(11) -0.3475(6) 0.0793(6)
O10 O -0.1880(13) -0.3947(8) -0.0870(7)
N1 N 0.4048(12) 0.2834(7) 0.5379(6)
N2 N 0.3715(13) -0.2188(7) 0.0396(7)
C1 C 0.2930(15) 0.3433(9) 0.6120(8)
C2 C 0.3720(16) 0.4698(9) 0.6730(9)
H1 H 0.2884 0.5099 0.7207
C3 C 0.5770(17) 0.5376(10) 0.6631(9)
H2 H 0.6357 0.6236 0.7057
C4 C 0.6934(17) 0.4767(9) 0.5896(9)
H3 H 0.8307 0.5215 0.581
C5 C 0.6052(15) 0.3474(9) 0.5279(8)
C6 C 0.0775(15) 0.2537(9) 0.6201(9)
C7 C 0.7158(16) 0.2708(10) 0.4469(9)
C8 C 0.5656(15) -0.1483(9) 0.0306(8)
C9 C 0.5860(19) -0.1334(10) -0.0664(9)
H4 H 0.7229 -0.0875 -0.0745
C10 C 0.4077(18) -0.1852(10) -0.1506(9)
H5 H 0.4199 -0.1729 -0.2154
C11 C 0.2059(17) -0.2573(10) -0.1374(9)
H6 H 0.0814 -0.2938 -0.1934
C12 C 0.1940(16) -0.2732(9) -0.0427(8)
C13 C 0.7421(16) -0.0879(9) 0.1290(8)
C14 C -0.0178(16) -0.3462(10) -0.0170(9)
Bi1A Bi 0.71614(5) -0.06208(3) 0.56577(3)
Bi1A_2 Bi -0.28386(5) -0.06208(3) 0.56577(3)
Bi2A Bi -0.34606(5) 0.24112(3) 0.79314(3)
F2A F 0.5041(9) 0.0955(5) 0.5931(5)
O3A O -0.0288(11) -0.1386(6) 0.4431(6)
O4A O 0.0343(11) -0.3030(6) 0.3133(6)
loop_
_geom_bond_atom_site_label_1
_geom_bond_atom_site_label_2
_geom_bond_site_symmetry_1
_geom_bond_site_symmetry_2
Bi1 F1 1_555 1_555
Bi2 F1 1_555 1_555
F2 Bi1 1_555 1_555
O1 Bi1 1_555 1_555
O2 Bi2 1_555 1_555
O3 Bi1 1_555 1_555
O4 C6 1_555 1_555
O5 Bi1 1_555 1_555
O6 C7 1_555 1_555
O7 Bi2 1_555 1_555
O8 C13 1_555 1_555
O9 Bi2 1_555 1_555
O10 C14 1_555 1_555
N1 Bi1 1_555 1_555
N2 Bi2 1_555 1_555
C1 N1 1_555 1_555
C2 C1 1_555 1_555
H1 C2 1_555 1_555
C3 C2 1_555 1_555
H2 C3 1_555 1_555
C4 C3 1_555 1_555
H3 C4 1_555 1_555
C5 N1 1_555 1_555
C6 O3 1_555 1_555
C7 O5 1_555 1_555
C8 N2 1_555 1_555
C9 C8 1_555 1_555
H4 C9 1_555 1_555
C10 C9 1_555 1_555
H5 C10 1_555 1_555
C11 C10 1_555 1_555
H6 C11 1_555 1_555
C12 N2 1_555 1_555
C13 O7 1_555 1_555
C14 O9 1_555 1_555
Bi1A F2 1_555 1_555
Bi1A_2 O3 1_555 1_555
Bi2A O4 1_555 1_555
F2A Bi1 1_555 1_555
O3A Bi1 1_555 1_555
O4A Bi2 1_555 1_555
Bi2 F2 1_555 1_555
C1 C6 1_555 1_555
C4 C5 1_555 1_555
C5 C7 1_555 1_555
C8 C13 1_555 1_555
C11 C12 1_555 1_555
C12 C14 1_555 1_555
Bi1A F2A 1_555 1_555
Bi1A_2 O3A 1_555 1_555

#END
