
#######################################################################
#
#                 Cambridge Crystallographic Data Centre
#                                CCDC 
#
#######################################################################
#
# If this CIF has been generated from an entry in the Cambridge 
# Structural Database, then it will include bibliographic, chemical, 
# crystal, experimental, refinement or atomic coordinate data resulting 
# from the CCDC's data processing and validation procedures.
#
#######################################################################

data_WAQBIB
_symmetry_cell_setting           monoclinic
_symmetry_space_group_name_H-M   'P 21/c'
_symmetry_Int_Tables_number      14
_space_group_name_Hall           '-P 2ybc'
loop_
_symmetry_equiv_pos_site_id
_symmetry_equiv_pos_as_xyz
1 x,y,z
2 -x,1/2+y,1/2-z
3 -x,-y,-z
4 x,1/2-y,1/2+z
_cell_length_a                   11.744(2)
_cell_length_b                   13.223(3)
_cell_length_c                   6.2279(12)
_cell_angle_alpha                90
_cell_angle_beta                 103.44(3)
_cell_angle_gamma                90
_cell_volume                     940.65
loop_
_atom_site_label
_atom_site_type_symbol
_atom_site_fract_x
_atom_site_fract_y
_atom_site_fract_z
Bi1 Bi 0.41721(3) 0.56976(2) 0.19824(5)
F1 F 0.4565(4) 0.4223(4) 0.0699(9)
O1 O 0.2577(5) 0.6779(5) 0.2943(11)
O3 O 0.3879(5) 0.4684(5) 0.4990(11)
O4 O 0.2893(6) 0.3405(5) 0.6072(11)
O5 O 0.3021(5) 0.6146(5) -0.1472(10)
O6 O 0.1463(6) 0.5847(5) -0.4210(11)
N1 N 0.2395(6) 0.4774(6) 0.1088(13)
C1 C 0.2141(8) 0.4117(6) 0.2526(13)
C2 C 0.1148(8) 0.3510(7) 0.1950(16)
H1 H 0.098 0.304 0.2943
C3 C 0.0417(8) 0.3619(7) -0.0116(15)
H2 H -0.0265 0.3238 -0.0509
C4 C 0.0698(8) 0.4290(6) -0.1593(15)
H3 H 0.0229 0.4353 -0.3012
C5 C 0.1703(7) 0.4872(7) -0.0914(15)
C6 C 0.3017(8) 0.4047(6) 0.4695(14)
C7 C 0.2076(8) 0.5669(7) -0.2349(16)
Bi1B Bi 0.58279(3) 0.43024(2) -0.19824(5)
Bi1B_2 Bi 0.58279(3) 0.43024(2) 0.80176(5)
F1B F 0.5435(4) 0.5777(4) -0.0699(9)
O3B O 0.6121(5) 0.5316(5) 0.5010(11)
O2 O 0.4972(6) 0.7631(5) 0.1313(12)
loop_
_geom_bond_atom_site_label_1
_geom_bond_atom_site_label_2
_geom_bond_site_symmetry_1
_geom_bond_site_symmetry_2
Bi1 F1 1_555 1_555
F1 Bi1B 1_555 1_555
O1 Bi1 1_555 1_555
O3 Bi1 1_555 1_555
O4 C6 1_555 1_555
O5 Bi1 1_555 1_555
O6 C7 1_555 1_555
N1 Bi1 1_555 1_555
C1 N1 1_555 1_555
C2 C1 1_555 1_555
H1 C2 1_555 1_555
C3 C2 1_555 1_555
H2 C3 1_555 1_555
C4 C3 1_555 1_555
H3 C4 1_555 1_555
C5 N1 1_555 1_555
C6 O3 1_555 1_555
C7 O5 1_555 1_555
Bi1B F1B 1_555 1_555
Bi1B_2 O3 1_555 1_555
F1B Bi1 1_555 1_555
O3B Bi1 1_555 1_555
C1 C6 1_555 1_555
C4 C5 1_555 1_555
C5 C7 1_555 1_555
Bi1B_2 O3B 1_555 1_555

#END
