
#######################################################################
#
#                 Cambridge Crystallographic Data Centre
#                                CCDC 
#
#######################################################################
#
# If this CIF has been generated from an entry in the Cambridge 
# Structural Database, then it will include bibliographic, chemical, 
# crystal, experimental, refinement or atomic coordinate data resulting 
# from the CCDC's data processing and validation procedures.
#
#######################################################################

data_WAQCIC
_symmetry_cell_setting           monoclinic
_symmetry_space_group_name_H-M   'P 21/c'
_symmetry_Int_Tables_number      14
_space_group_name_Hall           '-P 2ybc'
loop_
_symmetry_equiv_pos_site_id
_symmetry_equiv_pos_as_xyz
1 x,y,z
2 -x,1/2+y,1/2-z
3 -x,-y,-z
4 x,1/2-y,1/2+z
_cell_length_a                   10.643(3)
_cell_length_b                   8.676(2)
_cell_length_c                   16.195(4)
_cell_angle_alpha                90
_cell_angle_beta                 100.507(4)
_cell_angle_gamma                90
_cell_volume                     1470.35
loop_
_atom_site_label
_atom_site_type_symbol
_atom_site_fract_x
_atom_site_fract_y
_atom_site_fract_z
C1 C 0.59393(18) 0.4520(2) 0.32620(12)
C2 C 0.19206(19) 0.5114(2) 0.47875(13)
H1 H 0.1946 0.4532 0.5272
C3 C 0.25196(18) 0.6313(2) 0.38111(12)
H2 H 0.3006 0.6764 0.3454
C4 C 0.03413(19) 0.7209(2) 0.30713(12)
H3 H -0.0372 0.6534 0.2862
H4 H 0.0752 0.7475 0.2603
C5 C -0.01527(17) 0.8656(2) 0.34158(11)
C6 C 0.06884(18) 0.9780(2) 0.37937(11)
H5 H 0.1564 0.9633 0.3839
C7 C 0.02408(19) 1.1104(2) 0.41012(13)
H6 H 0.0815 1.1849 0.4352
C8 C -0.10586(19) 1.1340(2) 0.40408(12)
H7 H -0.1356 1.2241 0.4250
C9 C -0.19138(17) 1.0234(2) 0.36695(12)
C10 C -0.14523(17) 0.8898(2) 0.33551(12)
H8 H -0.2025 0.8157 0.3100
C11 C -0.33304(19) 1.0426(2) 0.36507(15)
H9 H -0.3504 1.1476 0.3803
H10 H -0.3794 1.0237 0.3087
C12 C -0.39330(17) 0.8345(2) 0.53797(13)
H11 H -0.3895 0.8181 0.5951
C13 C -0.43032(17) 0.7985(2) 0.40804(12)
H12 H -0.4556 0.7564 0.3548
Co1 Co 0.5000 0.5000 0.5000
N1 N 0.53221(17) 0.44417(19) 0.37797(10)
N2 N 0.29962(15) 0.55076(18) 0.44913(10)
N3 N 0.12568(14) 0.63878(18) 0.37079(10)
N4 N 0.08483(16) 0.5617(2) 0.43396(11)
N5 N -0.37682(14) 0.93546(17) 0.42353(10)
N6 N -0.35104(15) 0.96103(19) 0.50789(11)
N7 N -0.44284(14) 0.72972(17) 0.47904(10)
S1 S 0.68143(6) 0.46725(8) 0.25410(4)
C1B C 0.40607(18) 0.5480(2) 0.67380(12)
C2B C 0.80794(19) 0.4886(2) 0.52125(13)
H1B H 0.8054 0.5468 0.4728
C3B C 0.74804(18) 0.3687(2) 0.61889(12)
H2B H 0.6994 0.3236 0.6546
C4B C 0.96587(19) 0.2791(2) 0.69287(12)
H3B H 1.0372 0.3466 0.7138
H4B H 0.9248 0.2525 0.7397
C5B C 1.01527(17) 0.1344(2) 0.65842(11)
C6B C 0.93116(18) 0.0220(2) 0.62063(11)
H5B H 0.8436 0.0367 0.6161
C7B C 0.97592(19) -0.1104(2) 0.58988(13)
H6B H 0.9185 -0.1849 0.5648
C8B C 1.10586(19) -0.1340(2) 0.59592(12)
H7B H 1.1356 -0.2241 0.5750
C9B C 1.19138(17) -0.0234(2) 0.63305(12)
C10B C 1.14523(17) 0.1102(2) 0.66449(12)
H8B H 1.2025 0.1843 0.6900
C11B C 1.33304(19) -0.0426(2) 0.63493(15)
H9B H 1.3504 -0.1476 0.6197
H10B H 1.3794 -0.0237 0.6913
C12B C 1.39330(17) 0.1655(2) 0.46203(13)
H11B H 1.3895 0.1819 0.4049
C13B C 1.43032(17) 0.2015(2) 0.59196(12)
H12B H 1.4556 0.2436 0.6452
Co1_2 Co -0.5000 0.5000 0.5000
Co1_3 Co 1.5000 0.5000 0.5000
N1B N 0.46779(17) 0.55583(19) 0.62203(10)
N2B N 0.70038(15) 0.44924(18) 0.55087(10)
N3B N 0.87432(14) 0.36122(18) 0.62921(10)
N4B N 0.91517(16) 0.4383(2) 0.56604(11)
N5B N 1.37682(14) 0.06454(17) 0.57647(10)
N6B N 1.35104(15) 0.03897(19) 0.49211(11)
N7B N 1.44284(14) 0.27028(17) 0.52096(10)
N7_2 N 0.55716(14) 0.72972(17) 0.47904(10)
N7B_2 N 0.44284(14) 0.27028(17) 0.52096(10)
S1B S 0.31857(6) 0.53275(8) 0.74590(4)
loop_
_geom_bond_atom_site_label_1
_geom_bond_atom_site_label_2
_geom_bond_site_symmetry_1
_geom_bond_site_symmetry_2
C1 N1 1_555 1_555
C2 H1 1_555 1_555
C3 H2 1_555 1_555
C4 H3 1_555 1_555
H4 C4 1_555 1_555
C5 C4 1_555 1_555
C6 C5 1_555 1_555
H5 C6 1_555 1_555
C7 C6 1_555 1_555
H6 C7 1_555 1_555
C8 C7 1_555 1_555
H7 C8 1_555 1_555
C9 C8 1_555 1_555
C10 C5 1_555 1_555
H8 C10 1_555 1_555
C11 C9 1_555 1_555
H9 C11 1_555 1_555
H10 C11 1_555 1_555
C12 H11 1_555 1_555
C13 H12 1_555 1_555
Co1 N1 1_555 1_555
N2 C2 1_555 1_555
N3 C3 1_555 1_555
N4 C2 1_555 1_555
N5 C11 1_555 1_555
N6 C12 1_555 1_555
N7 C12 1_555 1_555
S1 C1 1_555 1_555
C1B N1B 1_555 1_555
C2B H1B 1_555 1_555
C3B H2B 1_555 1_555
C4B H3B 1_555 1_555
H4B C4B 1_555 1_555
C5B C4B 1_555 1_555
C6B C5B 1_555 1_555
H5B C6B 1_555 1_555
C7B C6B 1_555 1_555
H6B C7B 1_555 1_555
C8B C7B 1_555 1_555
H7B C8B 1_555 1_555
C9B C8B 1_555 1_555
C10B C5B 1_555 1_555
H8B C10B 1_555 1_555
C11B C9B 1_555 1_555
H9B C11B 1_555 1_555
H10B C11B 1_555 1_555
C12B H11B 1_555 1_555
C13B H12B 1_555 1_555
Co1_2 N7 1_555 1_555
Co1_3 N7B 1_555 1_555
N1B Co1 1_555 1_555
N2B Co1 1_555 1_555
N3B C3B 1_555 1_555
N4B C2B 1_555 1_555
N5B C11B 1_555 1_555
N6B C12B 1_555 1_555
N7B C12B 1_555 1_555
N7_2 Co1 1_555 1_555
N7B_2 Co1 1_555 1_555
S1B C1B 1_555 1_555
C3 N2 1_555 1_555
C4 N3 1_555 1_555
C9 C10 1_555 1_555
C13 N5 1_555 1_555
C13 N7 1_555 1_555
Co1 N2 1_555 1_555
N3 N4 1_555 1_555
N5 N6 1_555 1_555
C2B N2B 1_555 1_555
C3B N2B 1_555 1_555
C4B N3B 1_555 1_555
C9B C10B 1_555 1_555
C13B N5B 1_555 1_555
C13B N7B 1_555 1_555
N3B N4B 1_555 1_555
N5B N6B 1_555 1_555

#END
