
#######################################################################
#
#                 Cambridge Crystallographic Data Centre
#                                CCDC 
#
#######################################################################
#
# If this CIF has been generated from an entry in the Cambridge 
# Structural Database, then it will include bibliographic, chemical, 
# crystal, experimental, refinement or atomic coordinate data resulting 
# from the CCDC's data processing and validation procedures.
#
#######################################################################

data_WAQCIC01
_symmetry_cell_setting           monoclinic
_symmetry_space_group_name_H-M   'P 21/c'
_symmetry_Int_Tables_number      14
_space_group_name_Hall           '-P 2ybc'
loop_
_symmetry_equiv_pos_site_id
_symmetry_equiv_pos_as_xyz
1 x,y,z
2 -x,1/2+y,1/2-z
3 -x,-y,-z
4 x,1/2-y,1/2+z
_cell_length_a                   10.6273(18)
_cell_length_b                   8.6343(14)
_cell_length_c                   16.059(3)
_cell_angle_alpha                90
_cell_angle_beta                 100.881(3)
_cell_angle_gamma                90
_cell_volume                     1447.07
loop_
_atom_site_label
_atom_site_type_symbol
_atom_site_fract_x
_atom_site_fract_y
_atom_site_fract_z
Co1 Co 1.0000 0.5000 0.5000
S1 S 0.81463(5) 0.53176(6) 0.74621(3)
N1 N 0.62414(13) 0.63730(16) 0.37017(8)
N2 N 0.58438(14) 0.55898(18) 0.43402(10)
N3 N 0.79942(13) 0.55007(16) 0.44884(9)
N4 N 0.12156(12) 0.93786(15) 0.42302(9)
N5 N 0.14842(13) 0.96311(17) 0.50829(9)
N6 N 0.05618(12) 0.73046(15) 0.47863(8)
N7 N 0.96815(14) 0.55538(17) 0.62314(9)
C1 C 0.48307(14) 0.86574(19) 0.34120(10)
C2 C 0.35246(15) 0.89061(19) 0.33425(10)
H1 H 0.2934 0.8151 0.3074
C3 C 0.30706(15) 1.02526(18) 0.36627(10)
C4 C 0.39362(16) 1.13587(19) 0.40439(10)
H2 H 0.3636 1.2286 0.4258
C5 C 0.52412(16) 1.1112(2) 0.41130(11)
H3 H 0.5832 1.1871 0.4377
C6 C 0.56865(15) 0.9772(2) 0.38013(10)
H4 H 0.6582 0.9611 0.3853
C7 C 0.53217(16) 0.7195(2) 0.30632(10)
H5 H 0.4589 0.6503 0.2849
H6 H 0.5735 0.7466 0.2579
C8 C 0.16537(15) 1.0458(2) 0.36398(12)
H7 H 0.1482 1.1535 0.3797
H8 H 0.1175 1.0266 0.3058
C9 C 0.69257(17) 0.50824(19) 0.47929(12)
H9 H 0.6962 0.4475 0.5290
C10 C 0.75119(15) 0.6314(2) 0.38047(10)
H10 H 0.8004 0.6789 0.3439
C11 C 0.10646(14) 0.83538(19) 0.53884(10)
H11 H 0.1110 0.8182 0.5978
C12 C 0.06775(14) 0.79973(18) 0.40669(10)
H12 H 0.0414 0.7568 0.3517
C13 C 0.90430(15) 0.54734(18) 0.67451(10)
N6_2 N 1.05618(12) 0.73046(15) 0.47863(8)
S1B S 1.18537(5) 0.46824(6) 0.25379(3)
N7B N 1.03185(14) 0.44462(17) 0.37686(9)
C13B C 1.09570(15) 0.45266(18) 0.32549(10)
N3B N 1.20058(13) 0.44993(16) 0.55116(9)
N6B N 0.94382(12) 0.26954(15) 0.52137(8)
Co1_2 Co 0.0000 0.5000 0.5000
C11B C 0.89354(14) 0.16462(19) 0.46116(10)
C12B C 0.93225(14) 0.20027(18) 0.59331(10)
N3B_2 N 0.20058(13) 0.44993(16) 0.55116(9)
N5B N 0.85158(13) 0.03689(17) 0.49171(9)
H11B H 0.8890 0.1818 0.4022
N4B N 0.87844(12) 0.06214(15) 0.57698(9)
H12B H 0.9586 0.2432 0.6483
C9B C 0.30743(17) 0.49176(19) 0.52071(12)
C10B C 0.24881(15) 0.3686(2) 0.61953(10)
C8B C 0.83463(15) -0.0458(2) 0.63602(12)
N2B N 0.41562(14) 0.44102(18) 0.56598(10)
H9B H 0.3038 0.5525 0.4710
N1B N 0.37586(13) 0.36270(16) 0.62983(8)
H10B H 0.1996 0.3211 0.6561
C3B C 0.69294(15) -0.02526(18) 0.63373(10)
H7B H 0.8518 -0.1535 0.6203
H8B H 0.8825 -0.0266 0.6942
C7B C 0.46783(16) 0.2805(2) 0.69368(10)
C2B C 0.64754(15) 0.10939(19) 0.66575(10)
C4B C 0.60638(16) -0.13587(19) 0.59561(10)
C1B C 0.51693(14) 0.13426(19) 0.65880(10)
H5B H 0.5411 0.3497 0.7151
H6B H 0.4265 0.2534 0.7421
H1B H 0.7066 0.1849 0.6926
H2B H 0.6364 -0.2286 0.5742
C5B C 0.47588(16) -0.1112(2) 0.58870(11)
C6B C 0.43135(15) 0.0228(2) 0.61987(10)
H3B H 0.4168 -0.1871 0.5623
H4B H 0.3418 0.0389 0.6147
loop_
_geom_bond_atom_site_label_1
_geom_bond_atom_site_label_2
_geom_bond_site_symmetry_1
_geom_bond_site_symmetry_2
Co1 N3 1_555 1_555
S1 C13 1_555 1_555
N1 N2 1_555 1_555
N2 C9 1_555 1_555
N3 C9 1_555 1_555
N4 N5 1_555 1_555
N5 C11 1_555 1_555
N6 C11 1_555 1_555
N7 Co1 1_555 1_555
C1 C2 1_555 1_555
C2 H1 1_555 1_555
C3 C2 1_555 1_555
C4 C3 1_555 1_555
H2 C4 1_555 1_555
C5 C4 1_555 1_555
H3 C5 1_555 1_555
C6 C1 1_555 1_555
H4 C6 1_555 1_555
C7 N1 1_555 1_555
H5 C7 1_555 1_555
H6 C7 1_555 1_555
C8 N4 1_555 1_555
H7 C8 1_555 1_555
H8 C8 1_555 1_555
C9 H9 1_555 1_555
C10 N1 1_555 1_555
H10 C10 1_555 1_555
C11 H11 1_555 1_555
C12 N4 1_555 1_555
H12 C12 1_555 1_555
C13 N7 1_555 1_555
N6_2 Co1 1_555 1_555
S1B C13B 1_555 1_555
N7B Co1 1_555 1_555
C13B N7B 1_555 1_555
N3B Co1 1_555 1_555
N6B Co1 1_555 1_555
Co1_2 N6 1_555 1_555
C11B N6B 1_555 1_555
C12B N6B 1_555 1_555
N3B_2 Co1_2 1_555 1_555
N5B C11B 1_555 1_555
H11B C11B 1_555 1_555
N4B C12B 1_555 1_555
H12B C12B 1_555 1_555
C9B N3B_2 1_555 1_555
C10B N3B_2 1_555 1_555
C8B N4B 1_555 1_555
N2B C9B 1_555 1_555
H9B C9B 1_555 1_555
N1B C10B 1_555 1_555
H10B C10B 1_555 1_555
C3B C8B 1_555 1_555
H7B C8B 1_555 1_555
H8B C8B 1_555 1_555
C7B N1B 1_555 1_555
C2B C3B 1_555 1_555
C4B C3B 1_555 1_555
C1B C7B 1_555 1_555
H5B C7B 1_555 1_555
H6B C7B 1_555 1_555
H1B C2B 1_555 1_555
H2B C4B 1_555 1_555
C5B C4B 1_555 1_555
C6B C1B 1_555 1_555
H3B C5B 1_555 1_555
H4B C6B 1_555 1_555
N3 C10 1_555 1_555
N6 C12 1_555 1_555
C1 C7 1_555 1_555
C3 C8 1_555 1_555
C5 C6 1_555 1_555
N5B N4B 1_555 1_555
N2B N1B 1_555 1_555
C2B C1B 1_555 1_555
C5B C6B 1_555 1_555

#END
