
#######################################################################
#
#                 Cambridge Crystallographic Data Centre
#                                CCDC 
#
#######################################################################
#
# If this CIF has been generated from an entry in the Cambridge 
# Structural Database, then it will include bibliographic, chemical, 
# crystal, experimental, refinement or atomic coordinate data resulting 
# from the CCDC's data processing and validation procedures.
#
#######################################################################

data_WAQCEY01
_symmetry_cell_setting           triclinic
_symmetry_space_group_name_H-M   'P -1'
_symmetry_Int_Tables_number      2
_space_group_name_Hall           '-P 1'
loop_
_symmetry_equiv_pos_site_id
_symmetry_equiv_pos_as_xyz
1 x,y,z
2 -x,-y,-z
_cell_length_a                   7.5899(18)
_cell_length_b                   8.4067(16)
_cell_length_c                   11.075(3)
_cell_angle_alpha                77.674(13)
_cell_angle_beta                 88.902(16)
_cell_angle_gamma                72.378(12)
_cell_volume                     657.182
loop_
_atom_site_label
_atom_site_type_symbol
_atom_site_fract_x
_atom_site_fract_y
_atom_site_fract_z
Cu1 Cu 0.0000 0.0000 0.0000
Cl1 Cl 0.37065(8) -0.19613(7) 0.05115(6)
N1 N 0.1965(3) 0.3256(3) 0.15494(18)
N2 N 0.0129(3) 0.4100(3) 0.1600(2)
N3 N 0.0519(3) 0.1723(3) 0.08806(18)
N4 N 0.2010(3) 0.2730(2) 0.70319(17)
N5 N 0.0510(3) 0.2651(3) 0.6435(2)
N6 N 0.0755(3) 0.1228(2) -0.15912(17)
C1 C 0.4258(3) 0.3146(3) 0.3158(2)
C2 C 0.3381(3) 0.3758(3) 0.4157(2)
H1 H 0.2252 0.4668 0.4016
C3 C 0.4129(3) 0.3060(3) 0.5353(2)
C4 C 0.5767(4) 0.1717(4) 0.5552(3)
H2 H 0.6277 0.1210 0.6371
C5 C 0.6659(4) 0.1114(4) 0.4569(3)
H3 H 0.7789 0.0205 0.4712
C6 C 0.5913(4) 0.1829(4) 0.3378(3)
H4 H 0.6540 0.1414 0.2704
C7 C 0.3431(4) 0.3933(4) 0.1862(2)
H5 H 0.2912 0.5186 0.1770
H6 H 0.4423 0.3717 0.1269
C8 C 0.3172(4) 0.3745(4) 0.6420(2)
H7 H 0.4113 0.3739 0.7029
H8 H 0.2394 0.4943 0.6116
C9 C -0.0673(4) 0.3126(4) 0.1183(2)
H9 H -0.1978 0.3386 0.1099
C10 C 0.2173(4) 0.1857(3) 0.1127(2)
H10 H 0.3328 0.1067 0.1016
C11 C -0.0198(3) 0.1742(4) -0.2696(2)
H11 H -0.1293 0.1467 -0.2831
C12 C 0.2142(3) 0.1884(3) -0.1806(2)
H12 H 0.3089 0.1763 -0.1213
Cu1_2 Cu 0.0000 0.0000 1.0000
Cu1_3 Cu 0.0000 0.0000 -1.0000
Cl1A Cl -0.37065(8) 0.19613(7) -0.05115(6)
N1_2 N 0.1965(3) 0.3256(3) -0.84506(18)
N2_2 N 0.0129(3) 0.4100(3) -0.8400(2)
N3A N -0.0519(3) -0.1723(3) -0.08806(18)
N3_2 N 0.0519(3) 0.1723(3) -0.91194(18)
N4_2 N 0.2010(3) 0.2730(2) -0.29681(17)
N5_2 N 0.0510(3) 0.2651(3) -0.3565(2)
N6_2 N 0.0755(3) 0.1228(2) 0.84088(17)
N6A N -0.0755(3) -0.1228(2) 0.15912(17)
C1_2 C 0.4258(3) 0.3146(3) -0.6842(2)
C2_2 C 0.3381(3) 0.3758(3) -0.5843(2)
H1_2 H 0.2252 0.4668 -0.5984
C3_2 C 0.4129(3) 0.3060(3) -0.4647(2)
C4_2 C 0.5767(4) 0.1717(4) -0.4448(3)
H2_2 H 0.6277 0.1210 -0.3629
C5_2 C 0.6659(4) 0.1114(4) -0.5431(3)
H3_2 H 0.7789 0.0205 -0.5288
C6_2 C 0.5913(4) 0.1829(4) -0.6622(3)
H4_2 H 0.6540 0.1414 -0.7296
C7_2 C 0.3431(4) 0.3933(4) -0.8138(2)
H5_2 H 0.2912 0.5186 -0.8230
H6_2 H 0.4423 0.3717 -0.8731
C8_2 C 0.3172(4) 0.3745(4) -0.3580(2)
H7_2 H 0.4113 0.3739 -0.2971
H8_2 H 0.2394 0.4943 -0.3884
C9_2 C -0.0673(4) 0.3126(4) -0.8817(2)
H9_2 H -0.1978 0.3386 -0.8901
C10_2 C 0.2173(4) 0.1857(3) -0.8873(2)
H10_2 H 0.3328 0.1067 -0.8984
C11_2 C -0.0198(3) 0.1742(4) 0.7304(2)
H11_2 H -0.1293 0.1467 0.7169
C12_2 C 0.2142(3) 0.1884(3) 0.8194(2)
H12_2 H 0.3089 0.1763 0.8787
loop_
_geom_bond_atom_site_label_1
_geom_bond_atom_site_label_2
_geom_bond_site_symmetry_1
_geom_bond_site_symmetry_2
Cu1 Cl1 1_555 1_555
N1 N2 1_555 1_555
N2 C9 1_555 1_555
N3 Cu1 1_555 1_555
N4 N5 1_555 1_555
N5 C11_2 1_555 1_555
N6 Cu1 1_555 1_555
C1 C2 1_555 1_555
C2 H1 1_555 1_555
C3 C2 1_555 1_555
C4 C3 1_555 1_555
H2 C4 1_555 1_555
C5 C4 1_555 1_555
H3 C5 1_555 1_555
C6 C1 1_555 1_555
H4 C6 1_555 1_555
C7 N1 1_555 1_555
H5 C7 1_555 1_555
H6 C7 1_555 1_555
C8 N4 1_555 1_555
H7 C8 1_555 1_555
H8 C8 1_555 1_555
C9 N3 1_555 1_555
H9 C9 1_555 1_555
C10 N1 1_555 1_555
H10 C10 1_555 1_555
C11 N6 1_555 1_555
H11 C11 1_555 1_555
C12 N6 1_555 1_555
H12 C12 1_555 1_555
Cu1_2 N6_2 1_555 1_555
Cu1_3 N3_2 1_555 1_555
Cl1A Cu1 1_555 1_555
N1_2 N2_2 1_555 1_555
N2_2 C9_2 1_555 1_555
N3A Cu1 1_555 1_555
N3_2 C9_2 1_555 1_555
N4_2 C12 1_555 1_555
N5_2 C11 1_555 1_555
N6_2 C11_2 1_555 1_555
N6A Cu1 1_555 1_555
C1_2 C2_2 1_555 1_555
C2_2 H1_2 1_555 1_555
C3_2 C2_2 1_555 1_555
C4_2 C3_2 1_555 1_555
H2_2 C4_2 1_555 1_555
C5_2 C4_2 1_555 1_555
H3_2 C5_2 1_555 1_555
C6_2 C1_2 1_555 1_555
H4_2 C6_2 1_555 1_555
C7_2 N1_2 1_555 1_555
H5_2 C7_2 1_555 1_555
H6_2 C7_2 1_555 1_555
C8_2 N4_2 1_555 1_555
H7_2 C8_2 1_555 1_555
H8_2 C8_2 1_555 1_555
C9_2 H9_2 1_555 1_555
C10_2 N1_2 1_555 1_555
H10_2 C10_2 1_555 1_555
C11_2 H11_2 1_555 1_555
C12_2 N4 1_555 1_555
H12_2 C12_2 1_555 1_555
N3 C10 1_555 1_555
C1 C7 1_555 1_555
C3 C8 1_555 1_555
C5 C6 1_555 1_555
N3_2 C10_2 1_555 1_555
N4_2 N5_2 1_555 1_555
N6_2 C12_2 1_555 1_555
C1_2 C7_2 1_555 1_555
C3_2 C8_2 1_555 1_555
C5_2 C6_2 1_555 1_555

#END
