
#######################################################################
#
#                 Cambridge Crystallographic Data Centre
#                                CCDC 
#
#######################################################################
#
# If this CIF has been generated from an entry in the Cambridge 
# Structural Database, then it will include bibliographic, chemical, 
# crystal, experimental, refinement or atomic coordinate data resulting 
# from the CCDC's data processing and validation procedures.
#
#######################################################################

data_WAQCEY
_symmetry_cell_setting           triclinic
_symmetry_space_group_name_H-M   'P -1'
_symmetry_Int_Tables_number      2
_space_group_name_Hall           '-P 1'
loop_
_symmetry_equiv_pos_site_id
_symmetry_equiv_pos_as_xyz
1 x,y,z
2 -x,-y,-z
_cell_length_a                   7.6342(15)
_cell_length_b                   8.4570(17)
_cell_length_c                   11.119(2)
_cell_angle_alpha                78.02(3)
_cell_angle_beta                 89.02(3)
_cell_angle_gamma                72.56(3)
_cell_volume                     669.171
loop_
_atom_site_label
_atom_site_type_symbol
_atom_site_fract_x
_atom_site_fract_y
_atom_site_fract_z
C1 C -0.0661(3) 0.3119(3) 0.1178(2)
H1 H -0.1931 0.3370 0.1097
C2 C 0.2163(3) 0.1864(3) 0.11210(18)
H2 H 0.3284 0.1097 0.1010
C3 C 0.3426(4) 0.3934(3) 0.18666(19)
H3 H 0.2924 0.5153 0.1776
H4 H 0.4397 0.3719 0.1293
C4 C 0.4235(3) 0.3161(3) 0.31626(18)
C5 C 0.5884(3) 0.1860(3) 0.3386(2)
H5 H 0.6501 0.1456 0.2730
C6 C 0.6619(3) 0.1156(4) 0.4576(3)
H6 H 0.7718 0.0276 0.4719
C7 C 0.5717(3) 0.1765(3) 0.5549(2)
H7 H 0.6211 0.1286 0.6347
C8 C 0.4084(3) 0.3081(3) 0.53504(18)
C9 C 0.3346(3) 0.3769(2) 0.41548(18)
H8 H 0.2245 0.4646 0.4015
C10 C 0.3111(4) 0.3762(3) 0.64142(19)
H9 H 0.4015 0.3789 0.7006
H10 H 0.2330 0.4916 0.6115
C11 C 0.2118(3) 0.1885(3) 0.81872(17)
H11 H 0.3037 0.1781 0.8763
C12 C -0.0194(3) 0.1702(3) 0.73045(19)
H12 H -0.1247 0.1411 0.7173
Cl1 Cl 0.37099(7) -0.19624(6) 0.05176(5)
Cu1 Cu 0.0000 0.0000 0.0000
N1 N 0.0521(2) 0.1725(2) 0.08751(15)
N2 N 0.1962(2) 0.3255(2) 0.15467(14)
N3 N 0.0142(3) 0.4092(3) 0.15980(19)
N4 N 0.1983(2) 0.2723(2) 0.70301(14)
N5 N 0.0750(2) 0.1213(2) 0.84057(14)
N6 N 0.0495(3) 0.2618(3) 0.64354(16)
C1A C 0.0661(3) -0.3119(3) -0.1178(2)
H1A H 0.1931 -0.3370 -0.1097
C2A C -0.2163(3) -0.1864(3) -0.11210(18)
H2A H -0.3284 -0.1097 -0.1010
C3A C -0.3426(4) -0.3934(3) -0.18666(19)
H3A H -0.2924 -0.5153 -0.1776
H4A H -0.4397 -0.3719 -0.1293
C4A C -0.4235(3) -0.3161(3) -0.31626(18)
C5A C -0.5884(3) -0.1860(3) -0.3386(2)
H5A H -0.6501 -0.1456 -0.2730
C6A C -0.6619(3) -0.1156(4) -0.4576(3)
H6A H -0.7718 -0.0276 -0.4719
C7A C -0.5717(3) -0.1765(3) -0.5549(2)
H7A H -0.6211 -0.1286 -0.6347
C8A C -0.4084(3) -0.3081(3) -0.53504(18)
C9A C -0.3346(3) -0.3769(2) -0.41548(18)
H8A H -0.2245 -0.4646 -0.4015
C10A C -0.3111(4) -0.3762(3) -0.64142(19)
H9A H -0.4015 -0.3789 -0.7006
H10A H -0.2330 -0.4916 -0.6115
C11A C -0.2118(3) -0.1885(3) -0.81872(17)
H11A H -0.3037 -0.1781 -0.8763
C12A C 0.0194(3) -0.1702(3) -0.73045(19)
H12A H 0.1247 -0.1411 -0.7173
Cl1A Cl -0.37099(7) 0.19624(6) -0.05176(5)
Cu1_2 Cu 0.0000 0.0000 1.0000
Cu1_3 Cu 0.0000 0.0000 -1.0000
N1A N -0.0521(2) -0.1725(2) -0.08751(15)
N2A N -0.1962(2) -0.3255(2) -0.15467(14)
N3A N -0.0142(3) -0.4092(3) -0.15980(19)
N4A N -0.1983(2) -0.2723(2) -0.70301(14)
N5A N -0.0750(2) -0.1213(2) -0.84057(14)
N5_2 N 0.0750(2) 0.1213(2) -0.15943(14)
N5A_2 N -0.0750(2) -0.1213(2) 0.15943(14)
N6A N -0.0495(3) -0.2618(3) -0.64354(16)
loop_
_geom_bond_atom_site_label_1
_geom_bond_atom_site_label_2
_geom_bond_site_symmetry_1
_geom_bond_site_symmetry_2
C1 H1 1_555 1_555
C2 H2 1_555 1_555
C3 H3 1_555 1_555
H4 C3 1_555 1_555
C4 C3 1_555 1_555
C5 C4 1_555 1_555
H5 C5 1_555 1_555
C6 C5 1_555 1_555
H6 C6 1_555 1_555
C7 C6 1_555 1_555
H7 C7 1_555 1_555
C8 C7 1_555 1_555
C9 C4 1_555 1_555
H8 C9 1_555 1_555
C10 C8 1_555 1_555
H9 C10 1_555 1_555
H10 C10 1_555 1_555
C11 H11 1_555 1_555
C12 H12 1_555 1_555
Cl1 Cu1 1_555 1_555
Cu1 N1 1_555 1_555
N1 C1 1_555 1_555
N2 C2 1_555 1_555
N3 C1 1_555 1_555
N4 C10 1_555 1_555
N5 C11 1_555 1_555
N6 C12 1_555 1_555
C1A H1A 1_555 1_555
C2A H2A 1_555 1_555
C3A H3A 1_555 1_555
H4A C3A 1_555 1_555
C4A C3A 1_555 1_555
C5A C4A 1_555 1_555
H5A C5A 1_555 1_555
C6A C5A 1_555 1_555
H6A C6A 1_555 1_555
C7A C6A 1_555 1_555
H7A C7A 1_555 1_555
C8A C7A 1_555 1_555
C9A C4A 1_555 1_555
H8A C9A 1_555 1_555
C10A C8A 1_555 1_555
H9A C10A 1_555 1_555
H10A C10A 1_555 1_555
C11A H11A 1_555 1_555
C12A H12A 1_555 1_555
Cl1A Cu1 1_555 1_555
Cu1_2 N5 1_555 1_555
Cu1_3 N5A 1_555 1_555
N1A Cu1 1_555 1_555
N2A C2A 1_555 1_555
N3A C1A 1_555 1_555
N4A C10A 1_555 1_555
N5A C11A 1_555 1_555
N5_2 Cu1 1_555 1_555
N5A_2 Cu1 1_555 1_555
N6A C12A 1_555 1_555
C2 N1 1_555 1_555
C3 N2 1_555 1_555
C8 C9 1_555 1_555
C11 N4 1_555 1_555
C12 N5 1_555 1_555
N2 N3 1_555 1_555
N4 N6 1_555 1_555
C1A N1A 1_555 1_555
C2A N1A 1_555 1_555
C3A N2A 1_555 1_555
C8A C9A 1_555 1_555
C11A N4A 1_555 1_555
C12A N5A 1_555 1_555
N2A N3A 1_555 1_555
N4A N6A 1_555 1_555

#END
