
#######################################################################
#
#                 Cambridge Crystallographic Data Centre
#                                CCDC 
#
#######################################################################
#
# If this CIF has been generated from an entry in the Cambridge 
# Structural Database, then it will include bibliographic, chemical, 
# crystal, experimental, refinement or atomic coordinate data resulting 
# from the CCDC's data processing and validation procedures.
#
#######################################################################

data_WAQDOJ
_symmetry_cell_setting           rhombohedral
_symmetry_space_group_name_H-M   'R -3 c'
_symmetry_Int_Tables_number      167
_space_group_name_Hall           '-R 3 2"c'
loop_
_symmetry_equiv_pos_site_id
_symmetry_equiv_pos_as_xyz
1 x,y,z
2 -y,x-y,z
3 -x+y,-x,z
4 y,x,1/2-z
5 x-y,-y,1/2-z
6 -x,-x+y,1/2-z
7 2/3+x,1/3+y,1/3+z
8 2/3-y,1/3+x-y,1/3+z
9 2/3-x+y,1/3-x,1/3+z
10 2/3+y,1/3+x,5/6-z
11 2/3+x-y,1/3-y,5/6-z
12 2/3-x,1/3-x+y,5/6-z
13 1/3+x,2/3+y,2/3+z
14 1/3-y,2/3+x-y,2/3+z
15 1/3-x+y,2/3-x,2/3+z
16 1/3+y,2/3+x,1/6-z
17 1/3+x-y,2/3-y,1/6-z
18 1/3-x,2/3-x+y,1/6-z
19 -x,-y,-z
20 y,-x+y,-z
21 x-y,x,-z
22 -y,-x,1/2+z
23 -x+y,y,1/2+z
24 x,x-y,1/2+z
25 1/3-x,2/3-y,2/3-z
26 1/3+y,2/3-x+y,2/3-z
27 1/3+x-y,2/3+x,2/3-z
28 1/3-y,2/3-x,1/6+z
29 1/3-x+y,2/3+y,1/6+z
30 1/3+x,2/3+x-y,1/6+z
31 2/3-x,1/3-y,1/3-z
32 2/3+y,1/3-x+y,1/3-z
33 2/3+x-y,1/3+x,1/3-z
34 2/3-y,1/3-x,5/6+z
35 2/3-x+y,1/3+y,5/6+z
36 2/3+x,1/3+x-y,5/6+z
_cell_length_a                   19.4789(3)
_cell_length_b                   19.4789(3)
_cell_length_c                   45.5070(12)
_cell_angle_alpha                90
_cell_angle_beta                 90
_cell_angle_gamma                120
_cell_volume                     14953.3
loop_
_atom_site_label
_atom_site_type_symbol
_atom_site_fract_x
_atom_site_fract_y
_atom_site_fract_z
Mg1 Mg 0.6667 0.23161(6) 0.0833
O1 O 0.74153(11) 0.26099(11) 0.04771(4)
O2 O 0.81716(11) 0.39168(11) 0.05371(4)
N1 N 1.1168 0.45007(15) -0.0833
C1 C 1.06516(18) 0.43123(17) -0.06194(6)
H1 H 1.0790 0.4658 -0.0461
C2 C 0.9897(2) 0.36162(18) -0.06144(6)
C3 C 0.9737 0.3070(2) -0.0833
H2 H 0.9260 0.2593 -0.0833
C4 C 0.79669(17) 0.32861(16) 0.04044(5)
C5 C 0.83936(18) 0.33370(16) 0.01237(6)
C6 C 0.8873(2) 0.40826(19) -0.00072(7)
H3 H 0.8873 0.4529 0.0065
C7 C 0.9346(2) 0.41439(19) -0.02465(7)
H4 H 0.9656 0.4637 -0.0334
C8 C 0.93702(18) 0.34872(15) -0.03594(6)
C9 C 0.8910(2) 0.2784(2) -0.02354(7)
H5 H 0.8911 0.2339 -0.0309
C10 C 0.8420(2) 0.2702(2) 0.00068(7)
H6 H 0.8106 0.2202 0.0089
O3 O 0.6667 0.3333 0.0833
Mg1I Mg 0.89828(6) 0.0000 -0.2500
Mg1G Mg 0.43506(6) -0.23158(6) 0.4166
Mg1B Mg 0.56491(6) 0.3333 0.0833
Mg1J Mg 0.10176(6) 0.10172(6) -0.2500
Mg1A Mg 0.76839(6) 0.43509(6) 0.0833
Mg1S Mg 1.23161(6) 0.56491(6) -0.0833
Mg1J_2 Mg 1.10176(6) 0.10172(6) -0.2500
Mg1AA Mg 0.10172(6) -0.0000 0.2500
Mg1H Mg 0.23158(6) -0.3334 0.4166
Mg1R Mg 0.3333 -0.23161(6) -0.0833
Mg1K Mg -0.0000 -0.10176(6) -0.2500
Mg1K_2 Mg 1.0000 -0.10176(6) -0.2500
O1I O 0.92766(11) 0.07486(11) -0.21438(4)
O1Q O 0.59180(11) 0.18613(16) 0.11896(4)
O1G O 0.40568(11) -0.18613(16) 0.38104(4)
O1B O 0.51946(16) 0.25847(11) 0.04771(4)
O1J O 0.14721(16) 0.07234(11) -0.21438(4)
O1N O 0.85279(16) -0.07486(11) -0.28562(4)
O1D O 0.48054(16) -0.26099(11) 0.45229(4)
O1O O 0.59432(11) 0.40820(11) 0.11896(4)
O1M O 0.07234(11) 0.14721(16) -0.28562(4)
O1A O 0.73901(11) 0.48054(16) 0.04771(4)
O1P O 0.81387(16) 0.40568(11) 0.11896(4)
O2I O 1.05835(11) 0.15049(11) -0.22038(4)
O2Q O 0.51617(11) 0.24119(16) 0.11296(4)
O2G O 0.27499(11) -0.24119(16) 0.38704(4)
O2B O 0.57452(16) 0.18284(11) 0.05371(4)
O2J O 0.09215(16) -0.05835(11) -0.22038(4)
O2P O 0.75881(16) 0.27499(11) 0.11296(4)
O2K O 0.84951(11) -0.09215(16) -0.22038(4)
O2M O 0.94165(11) 0.09215(16) -0.27962(4)
O2F O 0.48383(11) -0.27499(11) 0.38704(4)
O2C O 0.39168(11) -0.18284(11) 0.44629(4)
O2A O 0.60832(11) 0.42548(16) 0.05371(4)
O2I_2 O 0.05835(11) 0.15049(11) -0.22038(4)
O2L O 0.15049(11) 0.05835(11) -0.27962(4)
O2O O 0.72501(11) 0.48383(11) 0.11296(4)
N1Q N 0.2165 -0.00006(15) 0.2500
N1B N 0.33327(15) -0.1168 -0.0833
N1T N 0.66673(15) 0.1168 0.0833
N1IA N 0.7835 0.00006(15) -0.2500
N1DA N 0.5499 -0.11674(15) 0.4166
N1S N 0.45007(15) 0.33327(15) 0.0833
N1GA N 0.21660(15) 0.2165 -0.2500
N1R N 0.8832 0.54993(15) 0.0833
C1I C 1.09790(17) 0.39849(18) -0.10473(6)
C1Q C 0.26817(18) 0.03274(25) 0.22861(6)
C1G C 0.23544(17) -0.03274(25) 0.27139(6)
C1B C 0.36607(25) -0.06516(18) -0.06194(6)
C1J C 0.30060(25) -0.09790(17) -0.10473(6)
H1I H 1.1325 0.4123 -0.1206
H1Q H 0.2543 0.0535 0.2128
H1G H 0.2009 -0.0535 0.2872
H1B H 0.3868 -0.0790 -0.0461
H1J H 0.2799 -0.1325 -0.1206
C2I C 1.02829(18) 0.3230(2) -0.10523(6)
C2Q C 0.3436(2) 0.03859(27) 0.22811(6)
C2G C 0.30505(18) -0.03859(27) 0.27189(6)
C2B C 0.37192(27) 0.0103(2) -0.06144(6)
C2J C 0.29475(27) -0.02829(18) -0.10523(6)
C3Q C 0.3596 -0.0000(2) 0.2500
C3B C 0.3333(2) 0.0263 -0.0833
H2Q H 0.4073 -0.0000 0.2500
H2B H 0.3333 0.0740 -0.0833
C4I C 0.99528(16) 0.13002(17) -0.20711(5)
C4Q C 0.53664(17) 0.19859(23) 0.12623(5)
C4G C 0.33806(16) -0.19859(23) 0.37377(5)
C4B C 0.53192(23) 0.20331(17) 0.04044(5)
C4J C 0.13475(23) 0.00472(16) -0.20711(5)
C5I C 1.00037(16) 0.17269(18) -0.17904(6)
C5Q C 0.49397(18) 0.16101(24) 0.15430(6)
C5G C 0.33297(16) -0.16101(24) 0.34570(6)
C5B C 0.49434(24) 0.16064(18) 0.01237(6)
C5J C 0.17233(24) -0.00037(16) -0.17904(6)
C6I C 1.07493(19) 0.2206(2) -0.16595(7)
C6Q C 0.4460(2) 0.18763(28) 0.16739(7)
C6G C 0.25841(19) -0.18763(28) 0.33261(7)
C6B C 0.52096(28) 0.1127(2) -0.00072(7)
C6J C 0.14571(28) -0.07493(19) -0.16595(7)
H3I H 1.1196 0.2206 -0.1732
H3Q H 0.4460 0.2323 0.1602
H3G H 0.2138 -0.2323 0.3398
H3B H 0.5656 0.1127 0.0065
H3J H 0.1011 -0.1196 -0.1732
C7I C 1.08106(19) 0.2679(2) -0.14202(7)
C7Q C 0.3987(2) 0.14646(28) 0.19132(7)
C7G C 0.25228(19) -0.14646(28) 0.30868(7)
C7B C 0.47979(28) 0.0654(2) -0.02465(7)
C7J C 0.18688(28) -0.08106(19) -0.14202(7)
H4I H 1.1304 0.2989 -0.1333
H4Q H 0.3677 0.1648 0.2001
H4G H 0.2030 -0.1648 0.2999
H4B H 0.4981 0.0344 -0.0334
H4J H 0.1686 -0.1304 -0.1333
C8I C 1.01539(15) 0.27035(18) -0.13073(6)
C8Q C 0.39631(18) 0.07837(23) 0.20261(6)
C8G C 0.31795(15) -0.07837(23) 0.29739(6)
C8B C 0.41170(23) 0.06298(18) -0.03594(6)
C8J C 0.25497(23) -0.01539(15) -0.13073(6)
C9I C 0.9451(2) 0.2243(2) -0.14313(7)
C9Q C 0.4423(2) 0.0541(3) 0.19021(7)
C9G C 0.3883(2) -0.0541(3) 0.30979(7)
C9B C 0.3874(3) 0.1090(2) -0.02354(7)
C9J C 0.2793(3) 0.0549(2) -0.14313(7)
H5I H 0.9006 0.2244 -0.1358
H5Q H 0.4422 0.0095 0.1976
H5G H 0.4328 -0.0095 0.3024
H5B H 0.3428 0.1089 -0.0309
H5J H 0.3239 0.0994 -0.1358
C10I C 0.9369(2) 0.1753(2) -0.16735(7)
C10Q C 0.4913(2) 0.0949(3) 0.16599(7)
C10G C 0.3965(2) -0.0949(3) 0.33401(7)
C10B C 0.4282(3) 0.1580(2) 0.00068(7)
C10J C 0.2385(3) 0.0631(2) -0.16735(7)
H6I H 0.8869 0.1439 -0.1756
H6Q H 0.5227 0.0763 0.1578
H6G H 0.4465 -0.0763 0.3422
H6B H 0.4096 0.1894 0.0089
H6J H 0.2571 0.1131 -0.1756
O3I O 1.0000 0.0000 -0.2500
O3G O 0.3334 -0.3333 0.4166
O3J O 0.0001 0.0000 -0.2500
loop_
_geom_bond_atom_site_label_1
_geom_bond_atom_site_label_2
_geom_bond_site_symmetry_1
_geom_bond_site_symmetry_2
Mg1 O1 1_555 1_555
O1 C4 1_555 1_555
O2 C4 1_555 1_555
N1 C1 1_555 1_555
C1 H1 1_555 1_555
C2 C1 1_555 1_555
C3 C2 1_555 1_555
H2 C3 1_555 1_555
C4 C5 1_555 1_555
C5 C6 1_555 1_555
C6 H3 1_555 1_555
C7 C6 1_555 1_555
H4 C7 1_555 1_555
C8 C2 1_555 1_555
C9 C8 1_555 1_555
H5 C9 1_555 1_555
C10 C5 1_555 1_555
H6 C10 1_555 1_555
O3 Mg1 1_555 1_555
Mg1I O1I 1_555 1_555
Mg1G O1G 1_555 1_555
Mg1B O3 1_555 1_555
Mg1J O1J 1_555 1_555
Mg1A O2 1_555 1_555
Mg1S N1 1_555 1_555
Mg1J_2 O2I 1_555 1_555
Mg1AA N1Q 1_555 1_555
Mg1H O2G 1_555 1_555
Mg1R N1B 1_555 1_555
Mg1K O2J 1_555 1_555
Mg1K_2 O3I 1_555 1_555
O1I C4I 1_555 1_555
O1Q Mg1 1_555 1_555
O1G C4G 1_555 1_555
O1B Mg1B 1_555 1_555
O1J C4J 1_555 1_555
O1N Mg1I 1_555 1_555
O1D Mg1G 1_555 1_555
O1O Mg1B 1_555 1_555
O1M Mg1J 1_555 1_555
O1A Mg1A 1_555 1_555
O1P Mg1A 1_555 1_555
O2I C4I 1_555 1_555
O2Q Mg1B 1_555 1_555
O2G C4G 1_555 1_555
O2B Mg1 1_555 1_555
O2J C4J 1_555 1_555
O2P Mg1 1_555 1_555
O2K Mg1I 1_555 1_555
O2M Mg1I 1_555 1_555
O2F Mg1G 1_555 1_555
O2C Mg1G 1_555 1_555
O2A Mg1B 1_555 1_555
O2I_2 Mg1J 1_555 1_555
O2L Mg1J 1_555 1_555
O2O Mg1A 1_555 1_555
N1Q C1Q 1_555 1_555
N1B C1B 1_555 1_555
N1T Mg1 1_555 1_555
N1IA Mg1I 1_555 1_555
N1DA Mg1G 1_555 1_555
N1S Mg1B 1_555 1_555
N1GA Mg1J 1_555 1_555
N1R Mg1A 1_555 1_555
C1I N1 1_555 1_555
C1Q H1Q 1_555 1_555
C1G N1Q 1_555 1_555
C1B H1B 1_555 1_555
C1J N1B 1_555 1_555
H1I C1I 1_555 1_555
H1G C1G 1_555 1_555
H1J C1J 1_555 1_555
C2I C3 1_555 1_555
C2Q C1Q 1_555 1_555
C2G C1G 1_555 1_555
C2B C1B 1_555 1_555
C2J C1J 1_555 1_555
C3Q C2Q 1_555 1_555
C3B C2B 1_555 1_555
H2Q C3Q 1_555 1_555
H2B C3B 1_555 1_555
C4I C5I 1_555 1_555
C4Q O1Q 1_555 1_555
C4G C5G 1_555 1_555
C4B O1B 1_555 1_555
C4J C5J 1_555 1_555
C5I C6I 1_555 1_555
C5Q C4Q 1_555 1_555
C5G C6G 1_555 1_555
C5B C4B 1_555 1_555
C5J C6J 1_555 1_555
C6I H3I 1_555 1_555
C6Q C5Q 1_555 1_555
C6G H3G 1_555 1_555
C6B C5B 1_555 1_555
C6J H3J 1_555 1_555
H3Q C6Q 1_555 1_555
H3B C6B 1_555 1_555
C7I C6I 1_555 1_555
C7Q C6Q 1_555 1_555
C7G C6G 1_555 1_555
C7B C6B 1_555 1_555
C7J C6J 1_555 1_555
H4I C7I 1_555 1_555
H4Q C7Q 1_555 1_555
H4G C7G 1_555 1_555
H4B C7B 1_555 1_555
H4J C7J 1_555 1_555
C8I C2I 1_555 1_555
C8Q C2Q 1_555 1_555
C8G C2G 1_555 1_555
C8B C2B 1_555 1_555
C8J C2J 1_555 1_555
C9I C8I 1_555 1_555
C9Q C8Q 1_555 1_555
C9G C8G 1_555 1_555
C9B C8B 1_555 1_555
C9J C8J 1_555 1_555
H5I C9I 1_555 1_555
H5Q C9Q 1_555 1_555
H5G C9G 1_555 1_555
H5B C9B 1_555 1_555
H5J C9J 1_555 1_555
C10I C5I 1_555 1_555
C10Q C5Q 1_555 1_555
C10G C5G 1_555 1_555
C10B C5B 1_555 1_555
C10J C5J 1_555 1_555
H6I C10I 1_555 1_555
H6Q C10Q 1_555 1_555
H6G C10G 1_555 1_555
H6B C10B 1_555 1_555
H6J C10J 1_555 1_555
O3I Mg1I 1_555 1_555
O3G Mg1G 1_555 1_555
O3J Mg1J 1_555 1_555
C7 C8 1_555 1_555
C9 C10 1_555 1_555
O3 Mg1A 1_555 1_555
Mg1J_2 O3I 1_555 1_555
Mg1H O3G 1_555 1_555
Mg1K O3J 1_555 1_555
O2Q C4Q 1_555 1_555
O2B C4B 1_555 1_555
C1I C2I 1_555 1_555
C2G C3Q 1_555 1_555
C2J C3B 1_555 1_555
C7I C8I 1_555 1_555
C7Q C8Q 1_555 1_555
C7G C8G 1_555 1_555
C7B C8B 1_555 1_555
C7J C8J 1_555 1_555
C9I C10I 1_555 1_555
C9Q C10Q 1_555 1_555
C9G C10G 1_555 1_555
C9B C10B 1_555 1_555
C9J C10J 1_555 1_555

#END
