
#######################################################################
#
#                 Cambridge Crystallographic Data Centre
#                                CCDC 
#
#######################################################################
#
# If this CIF has been generated from an entry in the Cambridge 
# Structural Database, then it will include bibliographic, chemical, 
# crystal, experimental, refinement or atomic coordinate data resulting 
# from the CCDC's data processing and validation procedures.
#
#######################################################################

data_WAQJAZ
_symmetry_cell_setting           monoclinic
_symmetry_space_group_name_H-M   'P 21/m'
_symmetry_Int_Tables_number      11
_space_group_name_Hall           '-P 2yb'
loop_
_symmetry_equiv_pos_site_id
_symmetry_equiv_pos_as_xyz
1 x,y,z
2 -x,1/2+y,-z
3 -x,-y,-z
4 x,1/2-y,z
_cell_length_a                   15.030(3)
_cell_length_b                   22.002(4)
_cell_length_c                   20.016(4)
_cell_angle_alpha                90
_cell_angle_beta                 99.04(3)
_cell_angle_gamma                90
_cell_volume                     6536.88
loop_
_atom_site_label
_atom_site_type_symbol
_atom_site_fract_x
_atom_site_fract_y
_atom_site_fract_z
N2 N -0.2940(26) 0.4998(17) 0.2710(16)
O4 O -0.2898(19) 0.5214(13) 0.2166(14)
O5 O -0.2495(33) 0.5128(25) 0.3244(21)
O6 O -0.3442(31) 0.4569(20) 0.2674(23)
N3 N -0.8076(20) 0.4968(12) 0.3103(12)
O7 O -0.8194(14) 0.5461(13) 0.2782(11)
O8 O -0.7280(22) 0.4774(14) 0.3241(14)
O9 O -0.8747(27) 0.4751(17) 0.3326(17)
N4 N -0.5221(33) 0.2500 0.1957(23)
O10 O -0.5996(29) 0.2500 0.1629(21)
O11 O -0.4842(19) 0.2987(10) 0.2178(13)
O11C O -0.4842(19) 0.2013(10) 0.2178(13)
N5 N -0.8760(14) 0.4767(10) 0.0849(11)
O12 O -0.8909(14) 0.5225(8) 0.0534(10)
O13 O -0.9114(11) 0.4254(7) 0.0640(8)
O14 O -0.8293(14) 0.4769(8) 0.1419(11)
N6 N -0.0461(26) 0.5742(18) 0.3977(18)
O15 O -0.0159(38) 0.5302(21) 0.4288(28)
O16 O -0.0152(39) 0.5906(28) 0.3489(24)
O17 O -0.1037(35) 0.6038(24) 0.4177(26)
N7 N -0.4930(14) 0.4367(11) 0.6228(11)
O18 O -0.4334(18) 0.4169(13) 0.6640(12)
O19 O -0.5671(17) 0.4150(20) 0.6177(20)
O20 O -0.4766(18) 0.4736(11) 0.5823(12)
N8 N -0.2742(55) 0.2500 0.4278(36)
O21 O -0.2409(45) 0.2500 0.4885(35)
O22 O -0.2748(43) 0.3018(21) 0.4007(25)
O22C O -0.2748(43) 0.1982(21) 0.4007(25)
N9 N -0.1862(27) 0.2500 0.1994(24)
O23 O -0.2676(27) 0.2500 0.1857(35)
O24 O -0.1422(25) 0.2064(16) 0.1890(30)
O24C O -0.1422(25) 0.2936(16) 0.1890(30)
O25 O -0.7778(12) 0.3367(7) 0.0801(8)
O26 O -0.8189(16) 0.2500 0.1769(12)
O27 O -0.8139(20) 0.2500 -0.0210(14)
O28 O -0.4349(13) 0.6321(8) 0.1441(10)
O29 O -0.7859(16) 0.6614(10) 0.3376(9)
O30 O -0.4171(23) 0.7500 0.0934(13)
O31 O 0.0040(21) 0.2500 -0.0170(15)
O32 O -0.0944(33) 0.2500 -0.1497(16)
O33 O -0.6439(25) 0.7500 0.3479(15)
O34 O -0.2419(25) 0.7500 0.1454(17)
O35 O -0.5142(27) 0.7500 0.2627(16)
O36 O -0.9950(21) 0.2500 0.1216(17)
O37 O -0.4013(18) 0.6507(14) 0.2777(11)
O38 O -0.9058(28) 0.7500 0.2873(22)
O39 O -0.0498(40) 0.7500 0.3521(27)
O40 O -0.7993(36) 0.3639(24) 0.7687(25)
Pt1 Pt -0.58648(7) 0.47898(4) 0.16600(4)
Pt2 Pt -0.06907(7) 0.48805(4) 0.15582(5)
Pt3 Pt -0.24995(7) 0.47443(4) 0.49919(5)
Ag1 Ag -0.3631(2) 0.2500 -0.00459(14)
Ag2 Ag 0.0494(2) 0.2500 0.3996(2)
Ag3 Ag -0.5966(2) 0.2500 0.42017(13)
N10 N -0.5825(15) 0.5445(8) 0.0946(9)
H1 H -0.5270(15) 0.5610(8) 0.0995(9)
H2 H -0.5946(15) 0.5279(8) 0.0530(9)
N11 N -0.6590(13) 0.5409(8) 0.2077(10)
H3 H -0.7173(13) 0.5299(8) 0.2013(10)
H4 H -0.6395(13) 0.5431(8) 0.2525(10)
N12 N -0.0973(16) 0.5516(9) 0.0785(10)
H5 H -0.0677(16) 0.5422(9) 0.0441(10)
H6 H -0.1568(16) 0.5523(9) 0.0628(10)
N13 N 0.0022(15) 0.5551(9) 0.2068(11)
H7 H -0.0270(15) 0.5686(9) 0.2399(11)
H8 H 0.0562(15) 0.5407(9) 0.2261(11)
N14 N -0.1550(15) 0.5405(8) 0.5189(14)
N15 N -0.3339(15) 0.5409(10) 0.5205(11)
H9 H -0.3826(15) 0.5420(10) 0.4880(11)
H10 H -0.3527(15) 0.5325(10) 0.5600(11)
C1 C -0.6486(21) 0.5912(11) 0.1021(12)
H11 H -0.7077(21) 0.5787(11) 0.0797(12)
H12 H -0.6327(21) 0.6289(11) 0.0817(12)
C2 C -0.6497(21) 0.6005(11) 0.1766(14)
H13 H -0.5942(21) 0.6198(11) 0.1974(14)
H14 H -0.6997(21) 0.6265(11) 0.1831(14)
C3 C -0.0672(21) 0.6117(11) 0.1075(15)
H15 H -0.1153(21) 0.6296(11) 0.1281(15)
H16 H -0.0557(21) 0.6384(11) 0.0712(15)
C4 C 0.0156(18) 0.6079(11) 0.1591(13)
H17 H 0.0248(18) 0.6457(11) 0.1842(13)
H18 H 0.0679(18) 0.6005(11) 0.1373(13)
C5 C -0.1962(42) 0.6037(26) 0.5446(30)
C6 C -0.2918(24) 0.5977(12) 0.5249(19)
N16 N -0.4391(16) 0.3324(8) 0.0441(10)
C7 C -0.3913(18) 0.3749(10) 0.0809(10)
C8 C -0.4326(21) 0.4161(10) 0.1174(11)
H19 H -0.3972(21) 0.4449(10) 0.1433(11)
N17 N -0.5232(15) 0.4167(8) 0.1171(9)
C9 C -0.5695(17) 0.3746(11) 0.0828(11)
H20 H -0.6311(17) 0.3714(11) 0.0831(11)
C10 C -0.5254(22) 0.3334(10) 0.0445(12)
H21 H -0.5608(22) 0.3052(10) 0.0178(12)
N18 N -0.2629(15) 0.3346(7) 0.0391(9)
C11 C -0.2932(16) 0.3752(10) 0.0775(11)
C12 C -0.2387(18) 0.4206(10) 0.1093(12)
H22 H -0.2628(18) 0.4489(10) 0.1359(12)
N19 N -0.1499(15) 0.4246(8) 0.1021(10)
C13 C -0.1176(19) 0.3833(12) 0.0600(12)
H23 H -0.0584(19) 0.3850(12) 0.0519(12)
C14 C -0.1767(20) 0.3392(10) 0.0303(11)
H24 H -0.1550(20) 0.3108(10) 0.0024(11)
N20 N 0.0282(16) 0.3341(9) 0.3233(9)
C15 C -0.0378(18) 0.3773(11) 0.3332(12)
C16 C -0.0631(17) 0.4215(10) 0.2869(13)
H25 H -0.1039(17) 0.4504(10) 0.2973(13)
N21 N -0.0338(12) 0.4265(7) 0.2273(10)
C17 C 0.0299(20) 0.3838(10) 0.2174(12)
H26 H 0.0558(20) 0.3855(10) 0.1782(12)
C18 C 0.0573(19) 0.3365(12) 0.2660(12)
H27 H 0.0970(19) 0.3067(12) 0.2559(12)
N22 N -0.0301(17) 0.3334(10) 0.4444(10)
C19 C -0.0723(17) 0.3740(11) 0.3996(12)
C20 C -0.1320(16) 0.4146(10) 0.4183(11)
H28 H -0.1568(16) 0.4439(10) 0.3872(11)
N23 N -0.1560(13) 0.4139(8) 0.4790(10)
C21 C -0.1187(20) 0.3724(14) 0.5216(14)
H29 H -0.1358(20) 0.3689(14) 0.5641(14)
C22 C -0.0544(22) 0.3339(15) 0.5036(16)
H30 H -0.0267(22) 0.3066(15) 0.5358(16)
N24 N -0.4898(15) 0.3333(8) 0.4577(11)
C23 C -0.4778(16) 0.3725(10) 0.4098(11)
C24 C -0.4033(17) 0.4111(11) 0.4216(12)
H31 H -0.3922(17) 0.4378(11) 0.3879(12)
N25 N -0.3487(14) 0.4102(9) 0.4796(10)
C25 C -0.3635(18) 0.3709(12) 0.5251(13)
H32 H -0.3239(18) 0.3688(12) 0.5658(13)
C26 C -0.4330(19) 0.3344(12) 0.5148(13)
H33 H -0.4427(19) 0.3081(12) 0.5494(13)
N26 N -0.6088(14) 0.3331(9) 0.3410(9)
C27 C -0.5417(16) 0.3714(10) 0.3444(11)
C28 C -0.5363(16) 0.4150(10) 0.2955(10)
H34 H -0.4903(16) 0.4436(10) 0.3029(10)
N27 N -0.5949(13) 0.4174(7) 0.2381(9)
C29 C -0.6616(18) 0.3782(12) 0.2334(12)
H35 H -0.7037(18) 0.3778(12) 0.1940(12)
C30 C -0.6717(19) 0.3383(12) 0.2834(12)
H36 H -0.7227(19) 0.3137(12) 0.2786(12)
N28 N -0.2940(23) 0.2500 -0.1367(18)
O41 O -0.3765(20) 0.2500 -0.1304(15)
O42 O -0.2336(24) 0.2500 -0.0849(22)
O43 O -0.2705(34) 0.2500 -0.1948(21)
N29 N -0.7639(20) 0.2500 0.4818(17)
O44 O -0.8384(24) 0.2500 0.5064(19)
O45 O -0.7738(17) 0.2500 0.4165(19)
O46 O -0.6825(23) 0.2500 0.5141(20)
N16C N -0.4391(16) 0.1676(8) 0.0441(10)
C7C C -0.3913(18) 0.1251(10) 0.0809(10)
C8C C -0.4326(21) 0.0839(10) 0.1174(11)
H19C H -0.3972(21) 0.0551(10) 0.1433(11)
N17C N -0.5232(15) 0.0833(8) 0.1171(9)
Pt1C Pt -0.58648(7) 0.02102(4) 0.16600(4)
N10C N -0.5825(15) -0.0445(8) 0.0946(9)
H1C H -0.5270(15) -0.0610(8) 0.0995(9)
H2C H -0.5946(15) -0.0279(8) 0.0530(9)
C1C C -0.6486(21) -0.0912(11) 0.1021(12)
H11C H -0.7077(21) -0.0787(11) 0.0797(12)
H12C H -0.6327(21) -0.1289(11) 0.0817(12)
C2C C -0.6497(21) -0.1005(11) 0.1766(14)
N11C N -0.6590(13) -0.0409(8) 0.2077(10)
N27C N -0.5949(13) 0.0826(7) 0.2381(9)
C28C C -0.5363(16) 0.0850(10) 0.2955(10)
C27C C -0.5417(16) 0.1286(10) 0.3444(11)
C23C C -0.4778(16) 0.1275(10) 0.4098(11)
N24C N -0.4898(15) 0.1667(8) 0.4577(11)
N20C N 0.0282(16) 0.1659(9) 0.3233(9)
C15C C -0.0378(18) 0.1227(11) 0.3332(12)
C16C C -0.0631(17) 0.0785(10) 0.2869(13)
H25C H -0.1039(17) 0.0496(10) 0.2973(13)
N21C N -0.0338(12) 0.0735(7) 0.2273(10)
Pt2C Pt -0.06907(7) 0.01195(4) 0.15582(5)
N12C N -0.0973(16) -0.0516(9) 0.0785(10)
H5C H -0.0677(16) -0.0422(9) 0.0441(10)
H6C H -0.1568(16) -0.0523(9) 0.0628(10)
C3C C -0.0672(21) -0.1117(11) 0.1075(15)
H15C H -0.1153(21) -0.1296(11) 0.1281(15)
H16C H -0.0557(21) -0.1384(11) 0.0712(15)
C4C C 0.0156(18) -0.1079(11) 0.1591(13)
N13C N 0.0022(15) -0.0551(9) 0.2068(11)
N19C N -0.1499(15) 0.0754(8) 0.1021(10)
C12C C -0.2387(18) 0.0794(10) 0.1093(12)
C11C C -0.2932(16) 0.1248(10) 0.0775(11)
N18C N -0.2629(15) 0.1654(7) 0.0391(9)
C14C C -0.1767(20) 0.1608(10) 0.0303(11)
C13C C -0.1176(19) 0.1167(12) 0.0600(12)
H23C H -0.0584(19) 0.1150(12) 0.0519(12)
H24C H -0.1550(20) 0.1892(10) 0.0024(11)
H22C H -0.2628(18) 0.0511(10) 0.1359(12)
H7C H -0.0270(15) -0.0686(9) 0.2399(11)
H8C H 0.0562(15) -0.0407(9) 0.2261(11)
H17C H 0.0248(18) -0.1457(11) 0.1842(13)
H18C H 0.0679(18) -0.1005(11) 0.1373(13)
C17C C 0.0299(20) 0.1162(10) 0.2174(12)
H26C H 0.0558(20) 0.1145(10) 0.1782(12)
C18C C 0.0573(19) 0.1635(12) 0.2660(12)
H27C H 0.0970(19) 0.1933(12) 0.2559(12)
C19C C -0.0723(17) 0.1260(11) 0.3996(12)
N22C N -0.0301(17) 0.1666(10) 0.4444(10)
C22C C -0.0544(22) 0.1661(15) 0.5036(16)
C21C C -0.1187(20) 0.1276(14) 0.5216(14)
N23C N -0.1560(13) 0.0861(8) 0.4790(10)
Pt3C Pt -0.24995(7) 0.02557(4) 0.49919(5)
N14C N -0.1550(15) -0.0405(8) 0.5189(14)
C5C C -0.1962(42) -0.1037(26) 0.5446(30)
C6C C -0.2918(24) -0.0977(12) 0.5249(19)
N15C N -0.3339(15) -0.0409(10) 0.5205(11)
N25C N -0.3487(14) 0.0898(9) 0.4796(10)
C24C C -0.4033(17) 0.0889(11) 0.4216(12)
H31C H -0.3922(17) 0.0622(11) 0.3879(12)
C25C C -0.3635(18) 0.1291(12) 0.5251(13)
H32C H -0.3239(18) 0.1312(12) 0.5658(13)
C26C C -0.4330(19) 0.1656(12) 0.5148(13)
H33C H -0.4427(19) 0.1919(12) 0.5494(13)
H9C H -0.3826(15) -0.0420(10) 0.4880(11)
H10C H -0.3527(15) -0.0325(10) 0.5600(11)
C20C C -0.1320(16) 0.0854(10) 0.4183(11)
H28C H -0.1568(16) 0.0561(10) 0.3872(11)
H29C H -0.1358(20) 0.1311(14) 0.5641(14)
H30C H -0.0267(22) 0.1934(15) 0.5358(16)
N26C N -0.6088(14) 0.1669(9) 0.3410(9)
O45_2 O 0.2262(17) 0.2500 0.4165(19)
H34C H -0.4903(16) 0.0564(10) 0.3029(10)
C29C C -0.6616(18) 0.1218(12) 0.2334(12)
H3C H -0.7173(13) -0.0299(8) 0.2013(10)
H4C H -0.6395(13) -0.0431(8) 0.2525(10)
H13C H -0.5942(21) -0.1198(11) 0.1974(14)
H14C H -0.6997(21) -0.1265(11) 0.1831(14)
C9C C -0.5695(17) 0.1254(11) 0.0828(11)
H20C H -0.6311(17) 0.1286(11) 0.0831(11)
C10C C -0.5254(22) 0.1666(10) 0.0445(12)
H21C H -0.5608(22) 0.1948(10) 0.0178(12)
O44_2 O 0.1616(24) 0.2500 0.5064(19)
Ag2_2 Ag -0.9506(2) 0.2500 0.3996(2)
C30C C -0.6717(19) 0.1617(12) 0.2834(12)
H35C H -0.7037(18) 0.1222(12) 0.1940(12)
H36C H -0.7227(19) 0.1863(12) 0.2786(12)
N1 N 0.6685(19) 0.5460(9) 0.0363(10)
O1 O 0.5895(14) 0.5286(8) 0.0330(9)
O2 O 0.7241(13) 0.5198(8) 0.0039(9)
O3 O 0.7009(13) 0.5905(9) 0.0742(9)
Ag4? Ag 0.6542(7) 0.2797(5) 0.2845(5)
C31? C 0.7951(40) 0.6051(24) 0.5010(29)
O47? O 1.1300(47) 0.3947(34) 0.7077(32)
O48? O 0.9747(35) 0.5389(24) 0.3971(26)
O49? O 0.8514(36) 0.2975(16) 0.2174(47)
loop_
_geom_bond_atom_site_label_1
_geom_bond_atom_site_label_2
_geom_bond_site_symmetry_1
_geom_bond_site_symmetry_2
N1 O1 1_555 1_555
O2 N1 1_555 1_555
O3 N1 1_555 1_555
N2 O4 1_555 1_555
O5 N2 1_555 1_555
O6 N2 1_555 1_555
N3 O7 1_555 1_555
O8 N3 1_555 1_555
O9 N3 1_555 1_555
N4 O10 1_555 1_555
O11 N4 1_555 1_555
N5 O12 1_555 1_555
O13 N5 1_555 1_555
O14 N5 1_555 1_555
N6 O15 1_555 1_555
O16 N6 1_555 1_555
O17 N6 1_555 1_555
N7 O18 1_555 1_555
O19 N7 1_555 1_555
O20 N7 1_555 1_555
N8 O21 1_555 1_555
O22 N8 1_555 1_555
N9 O23 1_555 1_555
O24 N9 1_555 1_555
Pt1 N10 1_555 1_555
Pt2 N12 1_555 1_555
Pt3 N14 1_555 1_555
Ag1 N16 1_555 1_555
Ag2 N20 1_555 1_555
Ag3 N24 1_555 1_555
N10 H1 1_555 1_555
H2 N10 1_555 1_555
N11 Pt1 1_555 1_555
H3 N11 1_555 1_555
H4 N11 1_555 1_555
N12 H5 1_555 1_555
H6 N12 1_555 1_555
N13 Pt2 1_555 1_555
H7 N13 1_555 1_555
H8 N13 1_555 1_555
N14 C5 1_555 1_555
N15 Pt3 1_555 1_555
H9 N15 1_555 1_555
H10 N15 1_555 1_555
C1 N10 1_555 1_555
H11 C1 1_555 1_555
H12 C1 1_555 1_555
C2 N11 1_555 1_555
H13 C2 1_555 1_555
H14 C2 1_555 1_555
C3 N12 1_555 1_555
H15 C3 1_555 1_555
H16 C3 1_555 1_555
C4 N13 1_555 1_555
H17 C4 1_555 1_555
H18 C4 1_555 1_555
C5 C6 1_555 1_555
C6 N15 1_555 1_555
N16 C7 1_555 1_555
C7 C8 1_555 1_555
C8 H19 1_555 1_555
N17 Pt1 1_555 1_555
C9 N17 1_555 1_555
H20 C9 1_555 1_555
C10 N16 1_555 1_555
H21 C10 1_555 1_555
N18 Ag1 1_555 1_555
C11 C7 1_555 1_555
C12 C11 1_555 1_555
H22 C12 1_555 1_555
N19 Pt2 1_555 1_555
C13 N19 1_555 1_555
H23 C13 1_555 1_555
C14 N18 1_555 1_555
H24 C14 1_555 1_555
N20 C15 1_555 1_555
C15 C16 1_555 1_555
C16 H25 1_555 1_555
N21 Pt2 1_555 1_555
C17 N21 1_555 1_555
H26 C17 1_555 1_555
C18 N20 1_555 1_555
H27 C18 1_555 1_555
N22 Ag2 1_555 1_555
C19 C15 1_555 1_555
C20 C19 1_555 1_555
H28 C20 1_555 1_555
N23 Pt3 1_555 1_555
C21 N23 1_555 1_555
H29 C21 1_555 1_555
C22 N22 1_555 1_555
H30 C22 1_555 1_555
N24 C23 1_555 1_555
C23 C24 1_555 1_555
C24 H31 1_555 1_555
N25 Pt3 1_555 1_555
C25 N25 1_555 1_555
H32 C25 1_555 1_555
C26 N24 1_555 1_555
H33 C26 1_555 1_555
N26 Ag3 1_555 1_555
C27 C23 1_555 1_555
C28 C27 1_555 1_555
H34 C28 1_555 1_555
N27 Pt1 1_555 1_555
C29 N27 1_555 1_555
H35 C29 1_555 1_555
C30 N26 1_555 1_555
H36 C30 1_555 1_555
N28 O41 1_555 1_555
O41 Ag1 1_555 1_555
O42 N28 1_555 1_555
O43 N28 1_555 1_555
N29 O44 1_555 1_555
O44 Ag2_2 1_555 1_555
O45 Ag3 1_555 1_555
O46 Ag3 1_555 1_555
O11C N4 1_555 1_555
O22C N8 1_555 1_555
O24C N9 1_555 1_555
N16C Ag1 1_555 1_555
C7C N16C 1_555 1_555
C8C C7C 1_555 1_555
H19C C8C 1_555 1_555
N17C C8C 1_555 1_555
Pt1C N17C 1_555 1_555
N10C Pt1C 1_555 1_555
H1C N10C 1_555 1_555
H2C N10C 1_555 1_555
C1C N10C 1_555 1_555
H11C C1C 1_555 1_555
H12C C1C 1_555 1_555
C2C C1C 1_555 1_555
N11C Pt1C 1_555 1_555
N27C Pt1C 1_555 1_555
C28C N27C 1_555 1_555
C27C C28C 1_555 1_555
C23C C27C 1_555 1_555
N24C Ag3 1_555 1_555
N20C Ag2 1_555 1_555
C15C N20C 1_555 1_555
C16C C15C 1_555 1_555
H25C C16C 1_555 1_555
N21C C16C 1_555 1_555
Pt2C N21C 1_555 1_555
N12C Pt2C 1_555 1_555
H5C N12C 1_555 1_555
H6C N12C 1_555 1_555
C3C N12C 1_555 1_555
H15C C3C 1_555 1_555
H16C C3C 1_555 1_555
C4C C3C 1_555 1_555
N13C Pt2C 1_555 1_555
N19C Pt2C 1_555 1_555
C12C N19C 1_555 1_555
C11C C7C 1_555 1_555
N18C Ag1 1_555 1_555
C14C N18C 1_555 1_555
C13C N19C 1_555 1_555
H23C C13C 1_555 1_555
H24C C14C 1_555 1_555
H22C C12C 1_555 1_555
H7C N13C 1_555 1_555
H8C N13C 1_555 1_555
H17C C4C 1_555 1_555
H18C C4C 1_555 1_555
C17C N21C 1_555 1_555
H26C C17C 1_555 1_555
C18C N20C 1_555 1_555
H27C C18C 1_555 1_555
C19C C15C 1_555 1_555
N22C Ag2 1_555 1_555
C22C N22C 1_555 1_555
C21C C22C 1_555 1_555
N23C C21C 1_555 1_555
Pt3C N23C 1_555 1_555
N14C Pt3C 1_555 1_555
C5C N14C 1_555 1_555
C6C C5C 1_555 1_555
N15C Pt3C 1_555 1_555
N25C Pt3C 1_555 1_555
C24C C23C 1_555 1_555
H31C C24C 1_555 1_555
C25C N25C 1_555 1_555
H32C C25C 1_555 1_555
C26C N24C 1_555 1_555
H33C C26C 1_555 1_555
H9C N15C 1_555 1_555
H10C N15C 1_555 1_555
C20C C19C 1_555 1_555
H28C C20C 1_555 1_555
H29C C21C 1_555 1_555
H30C C22C 1_555 1_555
N26C Ag3 1_555 1_555
O45_2 Ag2 1_555 1_555
H34C C28C 1_555 1_555
C29C N27C 1_555 1_555
H3C N11C 1_555 1_555
H4C N11C 1_555 1_555
H13C C2C 1_555 1_555
H14C C2C 1_555 1_555
C9C N17C 1_555 1_555
H20C C9C 1_555 1_555
C10C N16C 1_555 1_555
H21C C10C 1_555 1_555
O44_2 Ag2 1_555 1_555
Ag2_2 O45 1_555 1_555
C30C N26C 1_555 1_555
H35C C29C 1_555 1_555
H36C C30C 1_555 1_555
C1 C2 1_555 1_555
C3 C4 1_555 1_555
C8 N17 1_555 1_555
C9 C10 1_555 1_555
N18 C11 1_555 1_555
C12 N19 1_555 1_555
C13 C14 1_555 1_555
C16 N21 1_555 1_555
C17 C18 1_555 1_555
N22 C19 1_555 1_555
C20 N23 1_555 1_555
C21 C22 1_555 1_555
C24 N25 1_555 1_555
C25 C26 1_555 1_555
N26 C27 1_555 1_555
C28 N27 1_555 1_555
C29 C30 1_555 1_555
N29 O45 1_555 1_555
N29 O46 1_555 1_555
C2C N11C 1_555 1_555
C27C N26C 1_555 1_555
C23C N24C 1_555 1_555
C4C N13C 1_555 1_555
C12C C11C 1_555 1_555
C11C N18C 1_555 1_555
C14C C13C 1_555 1_555
C17C C18C 1_555 1_555
C19C N22C 1_555 1_555
N23C C20C 1_555 1_555
C6C N15C 1_555 1_555
N25C C24C 1_555 1_555
C25C C26C 1_555 1_555
C29C C30C 1_555 1_555
C9C C10C 1_555 1_555

#END
