
#######################################################################
#
#                 Cambridge Crystallographic Data Centre
#                                CCDC 
#
#######################################################################
#
# If this CIF has been generated from an entry in the Cambridge 
# Structural Database, then it will include bibliographic, chemical, 
# crystal, experimental, refinement or atomic coordinate data resulting 
# from the CCDC's data processing and validation procedures.
#
#######################################################################

data_WAQKIK
_symmetry_cell_setting           orthorhombic
_symmetry_space_group_name_H-M   'P b c a'
_symmetry_Int_Tables_number      61
_space_group_name_Hall           '-P 2ac 2ab'
loop_
_symmetry_equiv_pos_site_id
_symmetry_equiv_pos_as_xyz
1 x,y,z
2 1/2-x,-y,1/2+z
3 1/2+x,1/2-y,-z
4 -x,1/2+y,1/2-z
5 -x,-y,-z
6 1/2+x,y,1/2-z
7 1/2-x,1/2+y,z
8 x,1/2-y,1/2+z
_cell_length_a                   14.972(3)
_cell_length_b                   8.592(5)
_cell_length_c                   21.434(4)
_cell_angle_alpha                90
_cell_angle_beta                 90
_cell_angle_gamma                90
_cell_volume                     2757.26
loop_
_atom_site_label
_atom_site_type_symbol
_atom_site_fract_x
_atom_site_fract_y
_atom_site_fract_z
Dy1 Dy 0.84786(2) 0.03588(4) 0.460686(15)
O1 O 0.7456(3) -0.0933(6) 0.4077(2)
O2 O 0.6492(3) -0.2801(6) 0.3846(2)
O3 O 0.5347(3) -0.1555(6) 0.2905(2)
O4 O 0.5560(3) 0.3661(6) 0.4108(2)
O5 O 0.4475(3) 0.3437(6) 0.4801(2)
O6 O 0.3444(3) -0.3534(7) 0.4635(2)
O7 O 0.2649(3) -0.1441(6) 0.4884(3)
C1 C 0.6961(5) -0.1626(9) 0.3703(3)
C2 C 0.6934(5) -0.1031(8) 0.3041(3)
C3 C 0.7721(5) -0.0493(9) 0.2778(4)
H1 H 0.8239 -0.0467 0.3016
C4 C 0.7745(6) 0.0009(9) 0.2162(4)
H2 H 0.8271 0.0401 0.1994
C5 C 0.6987(6) -0.0076(10) 0.1800(4)
H3 H 0.7012 0.0192 0.1380
C6 C 0.6190(5) -0.0557(8) 0.2059(4)
H4 H 0.5673 -0.0561 0.1819
C7 C 0.6160(5) -0.1032(9) 0.2672(3)
C8 C 0.4993(5) -0.0846(9) 0.3424(3)
C9 C 0.5171(5) 0.0693(8) 0.3599(3)
H5 H 0.5580 0.1294 0.3379
C10 C 0.4714(5) 0.1304(8) 0.4116(3)
C11 C 0.4934(5) 0.2919(8) 0.4349(3)
C12 C 0.4082(5) 0.0419(8) 0.4428(4)
H6 H 0.3759 0.0848 0.4756
C13 C 0.3933(5) -0.1106(8) 0.4248(3)
C14 C 0.3298(5) -0.2093(9) 0.4616(3)
C15 C 0.4388(4) -0.1760(9) 0.3762(3)
H7 H 0.4297 -0.2798 0.3656
Dy1F Dy 0.65214(2) -0.46412(4) 0.460686(15)
Dy1F_2 Dy 0.65214(2) 0.53588(4) 0.460686(15)
Dy1B Dy 0.34786(2) 0.46412(4) 0.539314(15)
Dy1B_2 Dy 0.34786(2) -0.53588(4) 0.539314(15)
Dy1D Dy 0.15214(2) -0.03588(4) 0.539314(15)
O2F O 0.8508(3) 0.2199(6) 0.3846(2)
O4F O 0.9440(3) -0.1339(6) 0.4108(2)
O5B O 0.9475(3) 0.1563(6) 0.5199(2)
O6B O 0.8444(3) -0.1466(7) 0.5365(2)
O7D O 0.7351(3) 0.1441(6) 0.5116(3)
loop_
_geom_bond_atom_site_label_1
_geom_bond_atom_site_label_2
_geom_bond_site_symmetry_1
_geom_bond_site_symmetry_2
Dy1 O1 1_555 1_555
O1 C1 1_555 1_555
O2 C1 1_555 1_555
O3 C7 1_555 1_555
O4 C11 1_555 1_555
O5 C11 1_555 1_555
O6 C14 1_555 1_555
O7 C14 1_555 1_555
C1 C2 1_555 1_555
C2 C3 1_555 1_555
C3 H1 1_555 1_555
C4 C3 1_555 1_555
H2 C4 1_555 1_555
C5 C4 1_555 1_555
H3 C5 1_555 1_555
C6 C5 1_555 1_555
H4 C6 1_555 1_555
C7 C2 1_555 1_555
C8 O3 1_555 1_555
C9 C8 1_555 1_555
H5 C9 1_555 1_555
C10 C9 1_555 1_555
C11 C10 1_555 1_555
C12 C10 1_555 1_555
H6 C12 1_555 1_555
C13 C12 1_555 1_555
C14 C13 1_555 1_555
C15 C8 1_555 1_555
H7 C15 1_555 1_555
Dy1F O2 1_555 1_555
Dy1F_2 O4 1_555 1_555
Dy1B O5 1_555 1_555
Dy1B_2 O6 1_555 1_555
Dy1D O7 1_555 1_555
O2F Dy1 1_555 1_555
O4F Dy1 1_555 1_555
O5B Dy1 1_555 1_555
O6B Dy1 1_555 1_555
O7D Dy1 1_555 1_555
C6 C7 1_555 1_555
C13 C15 1_555 1_555

#END
