
#######################################################################
#
#                 Cambridge Crystallographic Data Centre
#                                CCDC 
#
#######################################################################
#
# If this CIF has been generated from an entry in the Cambridge 
# Structural Database, then it will include bibliographic, chemical, 
# crystal, experimental, refinement or atomic coordinate data resulting 
# from the CCDC's data processing and validation procedures.
#
#######################################################################

data_WAQKEG
_symmetry_cell_setting           triclinic
_symmetry_space_group_name_H-M   'P -1'
_symmetry_Int_Tables_number      2
_space_group_name_Hall           '-P 1'
loop_
_symmetry_equiv_pos_site_id
_symmetry_equiv_pos_as_xyz
1 x,y,z
2 -x,-y,-z
_cell_length_a                   10.497(3)
_cell_length_b                   18.382(4)
_cell_length_c                   26.584(3)
_cell_angle_alpha                102.479(5)
_cell_angle_beta                 95.820(2)
_cell_angle_gamma                97.520(4)
_cell_volume                     4920.52
loop_
_atom_site_label
_atom_site_type_symbol
_atom_site_fract_x
_atom_site_fract_y
_atom_site_fract_z
Mn1 Mn -0.02720(12) -0.07167(7) 0.76983(5)
Mn2 Mn -0.84489(12) -0.91360(7) -0.15093(5)
Mn3 Mn -0.65726(13) -0.79929(7) -0.03806(5)
Mn4 Mn -0.70735(13) -0.60260(8) 0.13721(5)
Mn5 Mn -0.51990(14) -0.44243(7) 0.21083(6)
Mn6 Mn 0.0000 -0.5000 0.5000
Mn7 Mn -0.06073(11) -0.32432(6) 0.50313(5)
Mn8 Mn 0.24527(11) -0.25192(6) 0.49407(5)
Mn9 Mn 0.44247(11) -0.82189(6) 0.51022(5)
Mn10 Mn 0.5000 0.0000 0.5000
O1 O -0.0475(6) -0.1128(4) 0.8413(2)
O2 O 0.1355(5) -0.0395(3) 0.8443(2)
O3 O -0.1959(6) -0.1516(3) 1.0039(2)
O4 O -0.0706(5) -0.1034(3) 1.0797(2)
O5 O 0.3685(5) -0.0281(4) 1.0216(2)
O6 O 0.6517(5) -0.1047(3) 1.1074(2)
O7 O 0.4972(6) -0.1395(4) 1.0418(3)
O8 O -0.8504(6) -0.7988(3) -0.1539(2)
O9 O -0.7486(6) -0.7331(3) -0.0767(3)
O10 O -0.7537(7) -0.5878(3) -0.0555(3)
O11 O -0.4352(7) -0.2851(4) -0.0222(3)
O12 O -0.4319(7) -0.3835(4) -0.0852(3)
O13 O -0.6617(7) -0.4844(4) 0.1340(2)
O14 O -0.5048(7) -0.3903(4) 0.1422(3)
O15 O -0.5550(7) -0.6032(4) 0.1949(3)
O16 O -0.3830(7) -0.5154(4) 0.2050(3)
O17 O -0.2174(5) -0.5698(3) 0.2776(2)
O18 O 0.0048(5) -0.4147(3) 0.44932(19)
O19 O 0.1679(5) -0.3442(3) 0.4268(2)
O20 O 0.1979(5) -0.5552(3) 0.2014(2)
O21 O 0.3293(6) -0.4564(3) 0.2537(2)
O22 O 0.8636(5) -0.4340(3) 0.5315(2)
O23 O 0.7454(5) -0.3452(3) 0.5343(2)
O24 O 0.4410(5) -0.7064(3) 0.5510(2)
O25 O 0.5920(5) -0.6936(3) 0.4997(2)
O26 O 0.3562(5) -0.4453(3) 0.6174(2)
O27 O 0.1364(5) -0.3117(3) 0.54672(19)
O28 O 0.1443(5) -0.4278(3) 0.5571(2)
O29 O 0.3159(5) -0.1610(3) 0.5620(2)
O30 O 0.4868(5) -0.0898(3) 0.54481(19)
O31 O 0.1097(5) -0.0508(3) 0.7216(2)
O32 O 0.2194(5) 0.0553(3) 0.7747(2)
O33 O 0.6576(5) 0.0859(3) 0.7134(2)
O34 O 0.7969(5) -0.0184(3) 0.7515(2)
O35 O 0.9554(6) 0.0459(3) 0.8091(2)
O36 O 0.2500(5) 0.1575(3) 0.5456(2)
O37 O 0.3601(5) 0.0642(3) 0.5296(2)
O38 O 0.0802(5) -0.1977(3) 0.4883(2)
O39 O -0.0547(5) -0.2116(3) 0.5464(2)
O40 O -0.1500(5) 0.0445(3) 0.6172(2)
O41 O -0.3592(5) 0.0709(3) 0.5590(2)
O42 O -0.3635(5) 0.1905(3) 0.55546(19)
N1 N -0.0896(7) -0.1886(4) 0.7253(3)
N2 N -0.8995(8) -0.6418(5) 0.0845(3)
N3 N -0.4321(7) -0.3329(4) 0.2591(3)
C1 C 0.0579(9) -0.0767(5) 0.8670(3)
C2 C 0.0922(8) -0.0776(4) 0.9226(3)
C3 C 0.2155(8) -0.0528(4) 0.9473(3)
H1 H 0.2829 -0.0378 0.9286
C4 C 0.2414(8) -0.0495(5) 0.9996(3)
C5 C 0.1424(8) -0.0694(5) 1.0274(3)
H2 H 0.1601 -0.0641 1.0639
C6 C 0.0162(8) -0.0974(4) 1.0017(3)
C7 C -0.0887(9) -0.1192(5) 1.0316(4)
C8 C -0.0050(9) -0.1023(4) 0.9484(3)
H3 H -0.0883 -0.1232 0.9296
C9 C 0.3987(8) 0.0028(5) 1.0753(4)
C10 C 0.4870(7) -0.0261(5) 1.1054(3)
C11 C 0.5477(9) -0.0939(5) 1.0829(4)
C12 C 0.5208(9) 0.0087(5) 1.1569(3)
H4 H 0.5844 -0.0090 1.1772
C13 C 0.4642(9) 0.0694(5) 1.1803(4)
H5 H 0.4845 0.0910 1.2165
C14 C 0.3784(10) 0.0973(6) 1.1499(5)
H6 H 0.3412 0.1396 1.1654
C15 C 0.3448(9) 0.0661(6) 1.0978(5)
H7 H 0.2863 0.0868 1.0773
C16 C -0.8262(9) -0.7403(5) -0.1178(4)
C17 C -0.8962(8) -0.6748(5) -0.1233(3)
C18 C -1.0073(10) -0.6884(6) -0.1578(4)
H8 H -1.0351 -0.7381 -0.1784
C19 C -1.0810(11) -0.6333(6) -0.1641(5)
H9 H -1.1571 -0.6449 -0.1887
C20 C -1.0422(11) -0.5611(6) -0.1340(5)
H10 H -1.0913 -0.5222 -0.1378
C21 C -0.9305(10) -0.5456(5) -0.0981(4)
H11 H -0.9029 -0.4960 -0.0772
C22 C -0.8609(9) -0.6020(5) -0.0930(4)
C23 C -0.6990(9) -0.5156(5) -0.0279(4)
C24 C -0.6313(9) -0.4667(5) -0.0515(4)
H12 H -0.6346 -0.4764 -0.0883
C25 C -0.5566(9) -0.4015(5) -0.0187(3)
C26 C -0.4687(9) -0.3530(6) -0.0439(4)
C27 C -0.5523(9) -0.3903(5) 0.0350(4)
H13 H -0.5001 -0.3464 0.0567
C28 C -0.6208(9) -0.4405(5) 0.0577(4)
C29 C -0.5951(10) -0.4369(5) 0.1154(4)
C30 C -0.6976(9) -0.5013(5) 0.0257(4)
H14 H -0.7514 -0.5348 0.0402
C31 C -0.4330(11) -0.5826(7) 0.2003(4)
C32 C -0.3489(8) -0.6418(5) 0.2019(3)
C33 C -0.3799(9) -0.7101(6) 0.1646(4)
H15 H -0.4514 -0.7168 0.1382
C34 C -0.3097(11) -0.7676(6) 0.1654(4)
H16 H -0.3361 -0.8147 0.1411
C35 C -0.2019(10) -0.7577(6) 0.2008(4)
H17 H -0.1492 -0.7962 0.1995
C36 C -0.1700(9) -0.6917(5) 0.2385(4)
H18 H -0.0991 -0.6860 0.2650
C37 C -0.2405(8) -0.6339(5) 0.2379(3)
C38 C -0.0909(8) -0.5340(4) 0.2939(3)
C39 C -0.0630(8) -0.4927(4) 0.3451(3)
H19 H -0.1268 -0.4940 0.3680
C40 C 0.0586(8) -0.4495(4) 0.3629(3)
C41 C 0.0796(8) -0.3995(4) 0.4168(3)
C42 C 0.1521(8) -0.4529(4) 0.3296(3)
H20 H 0.2362 -0.4247 0.3419
C43 C 0.1266(8) -0.4965(4) 0.2784(3)
C44 C 0.2256(8) -0.5024(5) 0.2423(3)
C45 C 0.0020(8) -0.5361(4) 0.2622(3)
H21 H -0.0187 -0.5658 0.2275
C46 C 0.7562(8) -0.4092(5) 0.5394(3)
C47 C 0.6490(7) -0.4587(4) 0.5528(3)
C48 C 0.6404(7) -0.5369(4) 0.5390(3)
H22 H 0.7050 -0.5591 0.5213
C49 C 0.5373(7) -0.5821(4) 0.5513(3)
C50 C 0.5235(7) -0.6654(4) 0.5332(3)
C51 C 0.4483(7) -0.5496(4) 0.5794(3)
H23 H 0.3809 -0.5806 0.5897
C52 C 0.4559(7) -0.4718(4) 0.5928(3)
C53 C 0.5553(7) -0.4248(4) 0.5787(3)
H24 H 0.5588 -0.3716 0.5865
C54 C 0.3650(7) -0.3682(4) 0.6387(3)
C55 C 0.2801(8) -0.3278(4) 0.6177(3)
C56 C 0.1824(7) -0.3584(4) 0.5705(3)
C57 C 0.2858(8) -0.2524(4) 0.6439(3)
H25 H 0.2284 -0.2227 0.6310
C58 C 0.3730(9) -0.2205(4) 0.6878(3)
H26 H 0.3742 -0.1695 0.7053
C59 C 0.4584(8) -0.2621(5) 0.7066(3)
H27 H 0.5205 -0.2394 0.7362
C60 C 0.4540(8) -0.3361(5) 0.6825(3)
H28 H 0.5116 -0.3653 0.6957
C61 C 0.4007(8) -0.1048(4) 0.5736(3)
C62 C 0.4080(7) -0.0503(4) 0.6256(3)
C63 C 0.3036(7) -0.0512(4) 0.6538(3)
H29 H 0.2251 -0.0848 0.6401
C64 C 0.3154(7) -0.0022(4) 0.7025(3)
C65 C 0.2075(8) 0.0005(4) 0.7353(3)
C66 C 0.4328(8) 0.0441(4) 0.7236(3)
H30 H 0.4418 0.0761 0.7574
C67 C 0.5363(7) 0.0434(4) 0.6952(3)
C68 C 0.5235(7) -0.0028(4) 0.6459(3)
H31 H 0.5938 -0.0019 0.6261
C69 C 0.6802(8) 0.1251(5) 0.7647(3)
C70 C 0.7697(8) 0.1040(4) 0.7989(3)
C71 C 0.8427(9) 0.0403(5) 0.7848(3)
C72 C 0.7947(9) 0.1467(5) 0.8508(3)
H32 H 0.8589 0.1349 0.8743
C73 C 0.7281(9) 0.2049(5) 0.8681(4)
H33 H 0.7416 0.2308 0.9037
C74 C 0.6409(9) 0.2254(5) 0.8328(4)
H34 H 0.5942 0.2654 0.8444
C75 C 0.6213(9) 0.1884(5) 0.7809(4)
H35 H 0.5681 0.2059 0.7565
C76 C 0.2572(7) 0.0896(4) 0.5418(3)
C77 C 0.1463(7) 0.0381(4) 0.5534(3)
C78 C 0.1364(7) -0.0402(4) 0.5349(3)
H36 H 0.1992 -0.0607 0.5151
C79 C 0.0351(7) -0.0866(4) 0.5456(3)
C80 C 0.0202(7) -0.1701(4) 0.5258(3)
C81 C -0.0558(7) -0.0565(4) 0.5751(3)
H37 H -0.1234 -0.0893 0.5839
C82 C -0.0484(7) 0.0205(4) 0.5918(3)
C83 C 0.0511(7) 0.0691(4) 0.5814(3)
H38 H 0.0559 0.1221 0.5928
C84 C -0.1392(7) 0.1205(4) 0.6410(3)
C85 C -0.2196(7) 0.1654(4) 0.6233(3)
C86 C -0.3186(7) 0.1401(4) 0.5761(3)
C87 C -0.2072(8) 0.2406(5) 0.6511(3)
H39 H -0.2616 0.2731 0.6400
C88 C -0.1154(10) 0.2675(5) 0.6948(4)
H40 H -0.1066 0.3187 0.7131
C89 C -0.0380(9) 0.2218(6) 0.7119(4)
H41 H 0.0244 0.2410 0.7419
C90 C -0.0502(8) 0.1473(5) 0.6855(3)
H42 H 0.0022 0.1146 0.6977
C91 C -0.0517(9) -0.2137(5) 0.6778(4)
H43 H -0.0043 -0.1783 0.6626
C92 C -0.0786(10) -0.2873(6) 0.6511(4)
H44 H -0.0480 -0.3033 0.6187
C93 C -0.1508(10) -0.3375(5) 0.6722(4)
H45 H -0.1721 -0.3891 0.6542
C94 C -0.1928(9) -0.3134(5) 0.7197(4)
H46 H -0.2437 -0.3478 0.7344
C95 C -0.1598(9) -0.2382(5) 0.7454(4)
H47 H -0.1878 -0.2216 0.7782
C96 C -0.9108(10) -0.6726(6) 0.0326(4)
H48 H -0.8342 -0.6739 0.0164
C97 C -1.0282(12) -0.7018(7) 0.0025(4)
H49 H -1.0318 -0.7209 -0.0339
C98 C -1.1378(13) -0.7034(8) 0.0245(5)
H50 H -1.2194 -0.7246 0.0043
C99 C -1.1291(11) -0.6740(8) 0.0766(5)
H51 H -1.2051 -0.6731 0.0932
C100 C -1.0089(12) -0.6456(7) 0.1050(4)
H52 H -1.0045 -0.6276 0.1415
C101 C -0.4609(10) -0.3084(6) 0.3077(4)
H53 H -0.5170 -0.3412 0.3219
C102 C -0.4117(11) -0.2380(6) 0.3369(4)
H54 H -0.4358 -0.2218 0.3705
C103 C -0.3291(11) -0.1914(6) 0.3184(4)
H55 H -0.2920 -0.1429 0.3391
C104 C -0.2992(9) -0.2151(6) 0.2688(5)
H56 H -0.2428 -0.1826 0.2545
C105 C -0.3505(9) -0.2847(5) 0.2407(4)
H57 H -0.3287 -0.3007 0.2066
O43 O -0.7338(10) -0.7346(4) 0.1248(4)
H58 H -0.7954 -0.7545 0.1010
O44 O -0.1760(6) -0.3039(4) 0.4363(2)
H59 H -0.2462 -0.2912 0.4450
O45 O 0.3361(6) -0.8031(4) 0.4430(3)
H60 H -0.669(10) -0.755(18) 0.115(8)
H61 H -0.147(7) -0.277(5) 0.417(4)
H62 H 0.344(8) -0.820(4) 0.4113(12)
H63 H 0.290(8) -0.769(4) 0.451(4)
Mn1A Mn 1.02720(12) -0.92833(7) 0.23017(5)
Mn1_2 Mn 0.97280(12) -0.07167(7) 0.76983(5)
Mn1A_2 Mn 0.02720(12) -0.92833(7) 0.23017(5)
Mn1_3 Mn -1.02720(12) -1.07167(7) -0.23017(5)
Mn2A Mn -0.15511(12) -0.08640(7) 0.15093(5)
Mn2_2 Mn 0.15511(12) 0.08640(7) 0.84907(5)
Mn2A_2 Mn -0.15511(12) -0.08640(7) 1.15093(5)
Mn2A_3 Mn 0.84489(12) -0.08640(7) 1.15093(5)
Mn2_3 Mn 1.15511(12) 0.08640(7) 0.84907(5)
Mn2A_4 Mn 0.84489(12) -1.08640(7) 0.15093(5)
Mn2A_5 Mn -0.15511(12) -1.08640(7) 0.15093(5)
Mn2A_6 Mn -1.15511(12) -1.08640(7) 0.15093(5)
Mn3A Mn -0.34274(13) -0.20071(7) 0.03806(5)
Mn3A_2 Mn -0.34274(13) -0.20071(7) 1.03806(5)
Mn3A_3 Mn 0.65726(13) -0.20071(7) 1.03806(5)
Mn3A_4 Mn -1.34274(13) -1.20071(7) 0.03806(5)
Mn3A_5 Mn -0.34274(13) -1.20071(7) 0.03806(5)
Mn4A Mn 0.70735(13) -0.39740(8) 0.86279(5)
Mn4A_2 Mn -0.29265(13) -0.39740(8) -0.13721(5)
Mn4_2 Mn 0.29265(13) -0.60260(8) 0.13721(5)
Mn4A_3 Mn -0.29265(13) -0.39740(8) 0.86279(5)
Mn5A Mn 0.51990(14) -0.55757(7) 0.78917(6)
Mn5_2 Mn 0.48010(14) -0.44243(7) 0.21083(6)
Mn5A_2 Mn -0.48010(14) -0.55757(7) 0.78917(6)
Mn5A_3 Mn -0.48010(14) -0.55757(7) -0.21083(6)
Mn6_2 Mn 1.0000 -0.5000 0.5000
Mn7A Mn 0.06073(11) -0.67568(6) 0.49687(5)
Mn7_2 Mn 0.93927(11) -0.32432(6) 0.50313(5)
Mn7A_2 Mn 1.06073(11) -0.67568(6) 0.49687(5)
Mn7A_3 Mn 0.06073(11) 0.32432(6) 0.49687(5)
Mn8A Mn -0.24527(11) -0.74808(6) 0.50593(5)
Mn8A_2 Mn 0.75473(11) -0.74808(6) 0.50593(5)
Mn8A_3 Mn -0.24527(11) 0.25192(6) 0.50593(5)
Mn9A Mn 0.55753(11) -0.17811(6) 0.48978(5)
Mn9_2 Mn 0.44247(11) 0.17811(6) 0.51022(5)
Mn9_3 Mn -0.55753(11) 0.17811(6) 0.51022(5)
Mn9A_2 Mn -0.44247(11) -0.17811(6) 0.48978(5)
Mn10_2 Mn -0.5000 0.0000 0.5000
Mn10_3 Mn 0.5000 -1.0000 0.5000
O1_2 O -1.0475(6) -1.1128(4) -0.1587(2)
O1A O 1.0475(6) -0.8872(4) 0.1587(2)
O2_2 O -0.8645(5) -1.0395(3) -0.1557(2)
O2A O 0.8645(5) -0.9605(3) 0.1557(2)
O2A_2 O -0.1355(5) 0.0395(3) 0.1557(2)
O3_2 O -1.1959(6) -1.1516(3) 0.0039(2)
O3A O -0.8041(6) -0.8484(3) -0.0039(2)
O3_3 O -0.1959(6) -0.1516(3) 0.0039(2)
O4_2 O -1.0706(5) -1.1034(3) 0.0797(2)
O4A O -0.9294(5) -0.8966(3) -0.0797(2)
O4_3 O -0.0706(5) -0.1034(3) 0.0797(2)
O5_2 O -0.6315(5) -1.0281(4) 0.0216(2)
O6_2 O -0.3483(5) -1.1047(3) 0.1074(2)
O6A O -0.6517(5) -0.8953(3) -0.1074(2)
O6_3 O -0.3483(5) -0.1047(3) 0.1074(2)
O7_2 O -0.5028(6) -1.1395(4) 0.0418(3)
O7A O -0.4972(6) -0.8605(4) -0.0418(3)
O7_3 O -0.5028(6) -0.1395(4) 0.0418(3)
O8A O -0.1496(6) -0.2012(3) 0.1539(2)
O9A O -0.2514(6) -0.2669(3) 0.0767(3)
O10A O -0.2463(7) -0.4122(3) 0.0555(3)
O11A O -0.5648(7) -0.7149(4) 0.0222(3)
O12A O -0.5681(7) -0.6165(4) 0.0852(3)
O12_2 O 0.5681(7) -0.3835(4) 0.9148(3)
O13A O -0.3383(7) -0.5156(4) -0.1340(2)
O13A_2 O 0.6617(7) -0.5156(4) 0.8660(2)
O14A O -0.4952(7) -0.6097(4) -0.1422(3)
O14A_2 O 0.5048(7) -0.6097(4) 0.8578(3)
O15A O 0.5550(7) -0.3968(4) 0.8051(3)
O16A O 0.3830(7) -0.4846(4) 0.7950(3)
O17A O 0.2174(5) -0.4302(3) 0.7224(2)
O18A O -0.0048(5) -0.5853(3) 0.55068(19)
O19A O -0.1679(5) -0.6558(3) 0.5732(2)
O20A O -0.1979(5) -0.4448(3) 0.7986(2)
O20_2 O -0.8021(5) -0.5552(3) 0.2014(2)
O20A_2 O 0.8021(5) -0.4448(3) 0.7986(2)
O21A O -0.3293(6) -0.5436(3) 0.7463(2)
O21_2 O -0.6707(6) -0.4564(3) 0.2537(2)
O21A_2 O 0.6707(6) -0.5436(3) 0.7463(2)
O22A O 0.1364(5) -0.5660(3) 0.4685(2)
O22_2 O -0.1364(5) -0.4340(3) 0.5315(2)
O23A O 0.2546(5) -0.6548(3) 0.4657(2)
O23_2 O -0.2546(5) -0.3452(3) 0.5343(2)
O24A O 0.5590(5) -0.2936(3) 0.4490(2)
O25A O 0.4080(5) -0.3064(3) 0.5003(2)
O25_2 O -0.4080(5) -0.6936(3) 0.4997(2)
O26A O 0.6438(5) -0.5547(3) 0.3826(2)
O27A O 0.8636(5) -0.6883(3) 0.45328(19)
O27A_2 O -0.1364(5) -0.6883(3) 0.45328(19)
O28A O 0.8557(5) -0.5722(3) 0.4429(2)
O28A_2 O -0.1443(5) -0.5722(3) 0.4429(2)
O29A O 0.6841(5) -0.8390(3) 0.4380(2)
O29A_2 O -0.3159(5) -0.8390(3) 0.4380(2)
O30A O 0.5132(5) -0.9102(3) 0.45519(19)
O30A_2 O 0.5132(5) 0.0898(3) 0.45519(19)
O31A O 0.8903(5) -0.9492(3) 0.2784(2)
O32A O 0.7806(5) -1.0553(3) 0.2253(2)
O32_2 O -0.7806(5) -0.9447(3) -0.2253(2)
O32A_2 O -0.2194(5) -0.0553(3) 0.2253(2)
O33A O 0.3424(5) -1.0859(3) 0.2866(2)
O34A O 0.2031(5) -0.9816(3) 0.2485(2)
O34_2 O -0.2031(5) -0.0184(3) 0.7515(2)
O34A_2 O 1.2031(5) -0.9816(3) 0.2485(2)
O35A O 0.0446(6) -1.0459(3) 0.1909(2)
O35_2 O -0.0446(6) 0.0459(3) 0.8091(2)
O35_3 O -1.0446(6) -0.9541(3) -0.1909(2)
O35A_2 O 1.0446(6) -1.0459(3) 0.1909(2)
O35A_3 O 0.0446(6) -0.0459(3) 0.1909(2)
O36A O -0.2500(5) -0.1575(3) 0.4544(2)
O36_2 O 0.2500(5) -0.8425(3) 0.5456(2)
O36A_2 O 0.7500(5) -0.1575(3) 0.4544(2)
O37A O -0.3601(5) -0.0642(3) 0.4704(2)
O37_2 O 0.3601(5) -0.9358(3) 0.5296(2)
O37A_2 O 0.6399(5) -0.0642(3) 0.4704(2)
O38A O -0.0802(5) 0.1977(3) 0.5117(2)
O38A_2 O -0.0802(5) -0.8023(3) 0.5117(2)
O39A O 0.0547(5) 0.2116(3) 0.4536(2)
O39A_2 O 0.0547(5) -0.7884(3) 0.4536(2)
O40A O 0.1500(5) -0.0445(3) 0.3828(2)
O41A O 0.3592(5) -0.0709(3) 0.4410(2)
O41_2 O 0.6408(5) 0.0709(3) 0.5590(2)
O42A O 0.3635(5) -0.1905(3) 0.44454(19)
O42_2 O 0.6365(5) -0.8095(3) 0.55546(19)
O42_3 O -0.3635(5) -0.8095(3) 0.55546(19)
N1A N 1.0896(7) -0.8114(4) 0.2747(3)
N2A N 0.8995(8) -0.3582(5) 0.9155(3)
N3A N 0.4321(7) -0.6671(4) 0.7409(3)
C1_2 C -0.9421(9) -1.0767(5) -0.1330(3)
C2_2 C -0.9078(8) -1.0776(4) -0.0774(3)
C3_2 C -0.7845(8) -1.0528(4) -0.0527(3)
H1_2 H -0.7171 -1.0378 -0.0714
C4_2 C -0.7586(8) -1.0495(5) -0.0004(3)
C5_2 C -0.8576(8) -1.0694(5) 0.0274(3)
H2_2 H -0.8399 -1.0641 0.0639
C6_2 C -0.9838(8) -1.0974(4) 0.0017(3)
C7_2 C -1.0887(9) -1.1192(5) 0.0316(4)
C8_2 C -1.0050(9) -1.1023(4) -0.0516(3)
H3_2 H -1.0883 -1.1232 -0.0704
C9_2 C -0.6013(8) -0.9972(5) 0.0753(4)
C10_2 C -0.5130(7) -1.0261(5) 0.1054(3)
C11_2 C -0.4523(9) -1.0939(5) 0.0829(4)
C12_2 C -0.4792(9) -0.9913(5) 0.1569(3)
H4_2 H -0.4156 -1.0090 0.1772
C13_2 C -0.5358(9) -0.9306(5) 0.1803(4)
H5_2 H -0.5155 -0.9090 0.2165
C14_2 C -0.6216(10) -0.9027(6) 0.1499(5)
H6_2 H -0.6588 -0.8604 0.1654
C15_2 C -0.6552(9) -0.9339(6) 0.0978(5)
H7_2 H -0.7137 -0.9132 0.0773
C16A C -0.1738(9) -0.2597(5) 0.1178(4)
C17A C -0.1038(8) -0.3252(5) 0.1233(3)
C18A C 0.0073(10) -0.3116(6) 0.1578(4)
H8A H 0.0351 -0.2619 0.1784
C19A C 0.0810(11) -0.3667(6) 0.1641(5)
H9A H 0.1571 -0.3551 0.1887
C20A C 0.0422(11) -0.4389(6) 0.1340(5)
H10A H 0.0913 -0.4778 0.1378
C21A C -0.0695(10) -0.4544(5) 0.0981(4)
H11A H -0.0971 -0.5040 0.0772
C22A C -0.1391(9) -0.3980(5) 0.0930(4)
C23A C -0.3010(9) -0.4844(5) 0.0279(4)
C24A C -0.3687(9) -0.5333(5) 0.0515(4)
H12A H -0.3654 -0.5236 0.0883
C25A C -0.4434(9) -0.5985(5) 0.0187(3)
C26A C -0.5313(9) -0.6470(6) 0.0439(4)
C27A C -0.4477(9) -0.6097(5) -0.0350(4)
H13A H -0.4999 -0.6536 -0.0567
C28A C -0.3792(9) -0.5595(5) -0.0577(4)
C29A C -0.4049(10) -0.5631(5) -0.1154(4)
C30A C -0.3024(9) -0.4987(5) -0.0257(4)
H14A H -0.2486 -0.4652 -0.0402
C31A C 0.4330(11) -0.4174(7) 0.7997(4)
C32A C 0.3489(8) -0.3582(5) 0.7981(3)
C33A C 0.3799(9) -0.2899(6) 0.8354(4)
H15A H 0.4514 -0.2832 0.8618
C34A C 0.3097(11) -0.2324(6) 0.8346(4)
H16A H 0.3361 -0.1853 0.8589
C35A C 0.2019(10) -0.2423(6) 0.7992(4)
H17A H 0.1492 -0.2038 0.8005
C36A C 0.1700(9) -0.3083(5) 0.7615(4)
H18A H 0.0991 -0.3140 0.7350
C37A C 0.2405(8) -0.3661(5) 0.7621(3)
C38A C 0.0909(8) -0.4660(4) 0.7061(3)
C39A C 0.0630(8) -0.5073(4) 0.6549(3)
H19A H 0.1268 -0.5060 0.6320
C40A C -0.0586(8) -0.5505(4) 0.6371(3)
C41A C -0.0796(8) -0.6005(4) 0.5832(3)
C42A C -0.1521(8) -0.5471(4) 0.6704(3)
H20A H -0.2362 -0.5753 0.6581
C43A C -0.1266(8) -0.5035(4) 0.7216(3)
C44A C -0.2256(8) -0.4976(5) 0.7577(3)
C45A C -0.0020(8) -0.4639(4) 0.7378(3)
H21A H 0.0187 -0.4342 0.7725
C46A C 0.2438(8) -0.5908(5) 0.4606(3)
C47A C 0.3510(7) -0.5413(4) 0.4472(3)
C48A C 0.3596(7) -0.4631(4) 0.4610(3)
H22A H 0.2950 -0.4409 0.4787
C49A C 0.4627(7) -0.4179(4) 0.4487(3)
C50A C 0.4765(7) -0.3346(4) 0.4668(3)
C51A C 0.5517(7) -0.4504(4) 0.4206(3)
H23A H 0.6191 -0.4194 0.4103
C52A C 0.5441(7) -0.5282(4) 0.4072(3)
C53A C 0.4447(7) -0.5752(4) 0.4213(3)
H24A H 0.4412 -0.6284 0.4135
C54A C 0.6350(7) -0.6318(4) 0.3613(3)
C55A C 0.7199(8) -0.6722(4) 0.3823(3)
C56A C 0.8176(7) -0.6416(4) 0.4295(3)
C57A C 0.7142(8) -0.7476(4) 0.3561(3)
H25A H 0.7716 -0.7773 0.3690
C58A C 0.6270(9) -0.7795(4) 0.3122(3)
H26A H 0.6258 -0.8305 0.2947
C59A C 0.5416(8) -0.7379(5) 0.2934(3)
H27A H 0.4795 -0.7606 0.2638
C60A C 0.5460(8) -0.6639(5) 0.3175(3)
H28A H 0.4884 -0.6347 0.3043
C61A C 0.5993(8) -0.8952(4) 0.4264(3)
C62A C 0.5920(7) -0.9497(4) 0.3744(3)
C63A C 0.6964(7) -0.9488(4) 0.3462(3)
H29A H 0.7749 -0.9152 0.3599
C64A C 0.6846(7) -0.9978(4) 0.2975(3)
C65A C 0.7925(8) -1.0005(4) 0.2647(3)
C66A C 0.5672(8) -1.0441(4) 0.2764(3)
H30A H 0.5582 -1.0761 0.2426
C67A C 0.4637(7) -1.0434(4) 0.3048(3)
C68A C 0.4765(7) -0.9972(4) 0.3541(3)
H31A H 0.4062 -0.9981 0.3739
C69A C 0.3198(8) -1.1251(5) 0.2353(3)
C70A C 0.2303(8) -1.1040(4) 0.2011(3)
C71A C 0.1573(9) -1.0403(5) 0.2152(3)
C72A C 0.2053(9) -1.1467(5) 0.1492(3)
H32A H 0.1411 -1.1349 0.1257
C73A C 0.2719(9) -1.2049(5) 0.1319(4)
H33A H 0.2584 -1.2308 0.0963
C74A C 0.3591(9) -1.2254(5) 0.1672(4)
H34A H 0.4058 -1.2654 0.1556
C75A C 0.3787(9) -1.1884(5) 0.2191(4)
H35A H 0.4319 -1.2059 0.2435
C76A C -0.2572(7) -0.0896(4) 0.4582(3)
C77A C -0.1463(7) -0.0381(4) 0.4466(3)
C78A C -0.1364(7) 0.0402(4) 0.4651(3)
H36A H -0.1992 0.0607 0.4849
C79A C -0.0351(7) 0.0866(4) 0.4544(3)
C80A C -0.0202(7) 0.1701(4) 0.4742(3)
C81A C 0.0558(7) 0.0565(4) 0.4249(3)
H37A H 0.1234 0.0893 0.4161
C82A C 0.0484(7) -0.0205(4) 0.4082(3)
C83A C -0.0511(7) -0.0691(4) 0.4186(3)
H38A H -0.0559 -0.1221 0.4072
C84A C 0.1392(7) -0.1205(4) 0.3590(3)
C85A C 0.2196(7) -0.1654(4) 0.3767(3)
C86A C 0.3186(7) -0.1401(4) 0.4239(3)
C87A C 0.2072(8) -0.2406(5) 0.3489(3)
H39A H 0.2616 -0.2731 0.3600
C88A C 0.1154(10) -0.2675(5) 0.3052(4)
H40A H 0.1066 -0.3187 0.2869
C89A C 0.0380(9) -0.2218(6) 0.2881(4)
H41A H -0.0244 -0.2410 0.2581
C90A C 0.0502(8) -0.1473(5) 0.3145(3)
H42A H -0.0022 -0.1146 0.3023
C91A C 1.0517(9) -0.7863(5) 0.3222(4)
H43A H 1.0043 -0.8217 0.3374
C92A C 1.0786(10) -0.7127(6) 0.3489(4)
H44A H 1.0480 -0.6967 0.3813
C93A C 1.1508(10) -0.6625(5) 0.3278(4)
H45A H 1.1721 -0.6109 0.3458
C94A C 1.1928(9) -0.6866(5) 0.2803(4)
H46A H 1.2437 -0.6522 0.2656
C95A C 1.1598(9) -0.7618(5) 0.2546(4)
H47A H 1.1878 -0.7784 0.2218
C96A C 0.9108(10) -0.3274(6) 0.9674(4)
H48A H 0.8342 -0.3261 0.9836
C97A C 1.0282(12) -0.2982(7) 0.9975(4)
H49A H 1.0318 -0.2791 1.0339
C98A C 1.1378(13) -0.2966(8) 0.9755(5)
H50A H 1.2194 -0.2754 0.9957
C99A C 1.1291(11) -0.3260(8) 0.9234(5)
H51A H 1.2051 -0.3269 0.9068
C100A C 1.0089(12) -0.3544(7) 0.8950(4)
H52A H 1.0045 -0.3724 0.8585
C101A C 0.4609(10) -0.6916(6) 0.6923(4)
H53A H 0.5170 -0.6588 0.6781
C102A C 0.4117(11) -0.7620(6) 0.6631(4)
H54A H 0.4358 -0.7782 0.6295
C103A C 0.3291(11) -0.8086(6) 0.6816(4)
H55A H 0.2920 -0.8571 0.6609
C104A C 0.2992(9) -0.7849(6) 0.7312(5)
H56A H 0.2428 -0.8174 0.7455
C105A C 0.3505(9) -0.7153(5) 0.7593(4)
H57A H 0.3287 -0.6993 0.7934
O43A O 0.7338(10) -0.2654(4) 0.8752(4)
H58A H 0.7954 -0.2455 0.8990
O44A O 0.1760(6) -0.6961(4) 0.5637(2)
H59A H 0.2462 -0.7088 0.5550
O45A O 0.6639(6) -0.1969(4) 0.5570(3)
H60A H 0.669(10) -0.245(18) 0.885(8)
H61A H 0.147(7) -0.723(5) 0.583(4)
H62A H 0.656(8) -0.180(4) 0.5887(12)
H63A H 0.710(8) -0.231(4) 0.549(4)
O46 O 0.6736(9) -0.1349(5) 0.6616(3)
loop_
_geom_bond_atom_site_label_1
_geom_bond_atom_site_label_2
_geom_bond_site_symmetry_1
_geom_bond_site_symmetry_2
Mn1 O1 1_555 1_555
Mn2 O8 1_555 1_555
Mn3 O9 1_555 1_555
Mn4 O13 1_555 1_555
Mn5 O13 1_555 1_555
Mn6 O18 1_555 1_555
Mn7 O18 1_555 1_555
Mn8 O19 1_555 1_555
Mn9 O24 1_555 1_555
Mn10 O30 1_555 1_555
O1 C1 1_555 1_555
O2 Mn1 1_555 1_555
O3 C7 1_555 1_555
O4 C7 1_555 1_555
O5 C4 1_555 1_555
O6 C11 1_555 1_555
O7 C11 1_555 1_555
O8 C16 1_555 1_555
O9 C16 1_555 1_555
O10 C22 1_555 1_555
O11 C26 1_555 1_555
O12 C26 1_555 1_555
O13 C29 1_555 1_555
O14 Mn5 1_555 1_555
O15 Mn4 1_555 1_555
O16 Mn5 1_555 1_555
O17 C37 1_555 1_555
O18 C41 1_555 1_555
O19 C41 1_555 1_555
O20 C44 1_555 1_555
O21 C44 1_555 1_555
O22 C46 1_555 1_555
O23 C46 1_555 1_555
O24 C50 1_555 1_555
O25 C50 1_555 1_555
O26 C52 1_555 1_555
O27 Mn7 1_555 1_555
O28 Mn6 1_555 1_555
O29 Mn8 1_555 1_555
O30 C61 1_555 1_555
O31 Mn1 1_555 1_555
O32 C65 1_555 1_555
O33 C67 1_555 1_555
O34 C71 1_555 1_555
O35 C71 1_555 1_555
O36 C76 1_555 1_555
O37 Mn10 1_555 1_555
O38 Mn8 1_555 1_555
O39 Mn7 1_555 1_555
O40 C82 1_555 1_555
O41 C86 1_555 1_555
O42 C86 1_555 1_555
N1 Mn1 1_555 1_555
N2 Mn4 1_555 1_555
N3 Mn5 1_555 1_555
C1 O2 1_555 1_555
C2 C1 1_555 1_555
C3 C2 1_555 1_555
H1 C3 1_555 1_555
C4 C3 1_555 1_555
C5 C4 1_555 1_555
H2 C5 1_555 1_555
C6 C5 1_555 1_555
C7 C6 1_555 1_555
C8 C2 1_555 1_555
H3 C8 1_555 1_555
C9 O5 1_555 1_555
C10 C9 1_555 1_555
C11 C10 1_555 1_555
C12 C10 1_555 1_555
H4 C12 1_555 1_555
C13 C12 1_555 1_555
H5 C13 1_555 1_555
C14 C13 1_555 1_555
H6 C14 1_555 1_555
C15 C9 1_555 1_555
H7 C15 1_555 1_555
C16 C17 1_555 1_555
C17 C18 1_555 1_555
C18 H8 1_555 1_555
C19 C18 1_555 1_555
H9 C19 1_555 1_555
C20 C19 1_555 1_555
H10 C20 1_555 1_555
C21 C20 1_555 1_555
H11 C21 1_555 1_555
C22 C17 1_555 1_555
C23 O10 1_555 1_555
C24 C23 1_555 1_555
H12 C24 1_555 1_555
C25 C24 1_555 1_555
C26 C25 1_555 1_555
C27 C25 1_555 1_555
H13 C27 1_555 1_555
C28 C27 1_555 1_555
C29 O14 1_555 1_555
C30 C23 1_555 1_555
H14 C30 1_555 1_555
C31 O15 1_555 1_555
C32 C31 1_555 1_555
C33 C32 1_555 1_555
H15 C33 1_555 1_555
C34 C33 1_555 1_555
H16 C34 1_555 1_555
C35 C34 1_555 1_555
H17 C35 1_555 1_555
C36 C35 1_555 1_555
H18 C36 1_555 1_555
C37 C32 1_555 1_555
C38 O17 1_555 1_555
C39 C38 1_555 1_555
H19 C39 1_555 1_555
C40 C39 1_555 1_555
C41 C40 1_555 1_555
C42 C40 1_555 1_555
H20 C42 1_555 1_555
C43 C42 1_555 1_555
C44 C43 1_555 1_555
C45 C38 1_555 1_555
H21 C45 1_555 1_555
C46 C47 1_555 1_555
C47 C48 1_555 1_555
C48 H22 1_555 1_555
C49 C48 1_555 1_555
C50 C49 1_555 1_555
C51 C49 1_555 1_555
H23 C51 1_555 1_555
C52 C51 1_555 1_555
C53 C47 1_555 1_555
H24 C53 1_555 1_555
C54 O26 1_555 1_555
C55 C54 1_555 1_555
C56 O27 1_555 1_555
C57 C55 1_555 1_555
H25 C57 1_555 1_555
C58 C57 1_555 1_555
H26 C58 1_555 1_555
C59 C58 1_555 1_555
H27 C59 1_555 1_555
C60 C54 1_555 1_555
H28 C60 1_555 1_555
C61 O29 1_555 1_555
C62 C61 1_555 1_555
C63 C62 1_555 1_555
H29 C63 1_555 1_555
C64 C63 1_555 1_555
C65 O31 1_555 1_555
C66 C64 1_555 1_555
H30 C66 1_555 1_555
C67 C66 1_555 1_555
C68 C62 1_555 1_555
H31 C68 1_555 1_555
C69 O33 1_555 1_555
C70 C69 1_555 1_555
C71 C70 1_555 1_555
C72 C70 1_555 1_555
H32 C72 1_555 1_555
C73 C72 1_555 1_555
H33 C73 1_555 1_555
C74 C73 1_555 1_555
H34 C74 1_555 1_555
C75 C69 1_555 1_555
H35 C75 1_555 1_555
C76 O37 1_555 1_555
C77 C76 1_555 1_555
C78 C77 1_555 1_555
H36 C78 1_555 1_555
C79 C78 1_555 1_555
C80 O38 1_555 1_555
C81 C79 1_555 1_555
H37 C81 1_555 1_555
C82 C81 1_555 1_555
C83 C77 1_555 1_555
H38 C83 1_555 1_555
C84 O40 1_555 1_555
C85 C84 1_555 1_555
C86 C85 1_555 1_555
C87 C85 1_555 1_555
H39 C87 1_555 1_555
C88 C87 1_555 1_555
H40 C88 1_555 1_555
C89 C88 1_555 1_555
H41 C89 1_555 1_555
C90 C84 1_555 1_555
H42 C90 1_555 1_555
C91 N1 1_555 1_555
H43 C91 1_555 1_555
C92 C91 1_555 1_555
H44 C92 1_555 1_555
C93 C92 1_555 1_555
H45 C93 1_555 1_555
C94 C93 1_555 1_555
H46 C94 1_555 1_555
C95 N1 1_555 1_555
H47 C95 1_555 1_555
C96 N2 1_555 1_555
H48 C96 1_555 1_555
C97 C96 1_555 1_555
H49 C97 1_555 1_555
C98 C97 1_555 1_555
H50 C98 1_555 1_555
C99 C98 1_555 1_555
H51 C99 1_555 1_555
C100 N2 1_555 1_555
H52 C100 1_555 1_555
C101 N3 1_555 1_555
H53 C101 1_555 1_555
C102 C101 1_555 1_555
H54 C102 1_555 1_555
C103 C102 1_555 1_555
H55 C103 1_555 1_555
C104 C103 1_555 1_555
H56 C104 1_555 1_555
C105 N3 1_555 1_555
H57 C105 1_555 1_555
O43 Mn4 1_555 1_555
H58 O43 1_555 1_555
O44 Mn7 1_555 1_555
H59 O44 1_555 1_555
O45 Mn9 1_555 1_555
H60 O43 1_555 1_555
H61 O44 1_555 1_555
H62 O45 1_555 1_555
H63 O45 1_555 1_555
Mn1A O1A 1_555 1_555
Mn1_2 O34 1_555 1_555
Mn1A_2 O34A 1_555 1_555
Mn1_3 O1_2 1_555 1_555
Mn2A O2A_2 1_555 1_555
Mn2_2 O2 1_555 1_555
Mn2A_2 O4 1_555 1_555
Mn2A_3 O6 1_555 1_555
Mn2_3 O35 1_555 1_555
Mn2A_4 O2A 1_555 1_555
Mn2A_5 O6_2 1_555 1_555
Mn2A_6 O4_2 1_555 1_555
Mn3A O11 1_555 1_555
Mn3A_2 O3 1_555 1_555
Mn3A_3 O6 1_555 1_555
Mn3A_4 O3_2 1_555 1_555
Mn3A_5 O6_2 1_555 1_555
Mn4A O12_2 1_555 1_555
Mn4A_2 O12 1_555 1_555
Mn4_2 O20 1_555 1_555
Mn4A_3 O20A 1_555 1_555
Mn5A O13A_2 1_555 1_555
Mn5_2 O21 1_555 1_555
Mn5A_2 O21A 1_555 1_555
Mn5A_3 O13A 1_555 1_555
Mn6_2 O22 1_555 1_555
Mn7A O18A 1_555 1_555
Mn7_2 O22 1_555 1_555
Mn7A_2 O27A 1_555 1_555
Mn7A_3 O39A 1_555 1_555
Mn8A O19A 1_555 1_555
Mn8A_2 O25 1_555 1_555
Mn8A_3 O42 1_555 1_555
Mn9A O30 1_555 1_555
Mn9_2 O36 1_555 1_555
Mn9_3 O42 1_555 1_555
Mn9A_2 O36A 1_555 1_555
Mn10_2 O41 1_555 1_555
Mn10_3 O30A 1_555 1_555
O1_2 C1_2 1_555 1_555
O2_2 Mn2 1_555 1_555
O2A Mn1A 1_555 1_555
O3_2 C7_2 1_555 1_555
O3A Mn3 1_555 1_555
O3_3 Mn3A 1_555 1_555
O4_2 C7_2 1_555 1_555
O4A Mn2 1_555 1_555
O4_3 Mn2A 1_555 1_555
O5_2 C4_2 1_555 1_555
O6_2 C11_2 1_555 1_555
O6A Mn2 1_555 1_555
O6_3 Mn2A 1_555 1_555
O7_2 Mn3A_5 1_555 1_555
O7A Mn3 1_555 1_555
O7_3 Mn3A 1_555 1_555
O8A Mn2A 1_555 1_555
O9A Mn3A 1_555 1_555
O10A C22A 1_555 1_555
O11A Mn3 1_555 1_555
O12A Mn4 1_555 1_555
O13A Mn4A_2 1_555 1_555
O13A_2 Mn4A 1_555 1_555
O14A Mn5A_3 1_555 1_555
O14A_2 Mn5A 1_555 1_555
O15A Mn4A 1_555 1_555
O16A Mn5A 1_555 1_555
O17A C37A 1_555 1_555
O18A Mn6 1_555 1_555
O19A C41A 1_555 1_555
O20A C44A 1_555 1_555
O20_2 Mn4 1_555 1_555
O20A_2 Mn4A 1_555 1_555
O21A C44A 1_555 1_555
O21_2 Mn5 1_555 1_555
O21A_2 Mn5A 1_555 1_555
O22A Mn6 1_555 1_555
O22_2 Mn6 1_555 1_555
O23A Mn7A 1_555 1_555
O23_2 Mn7 1_555 1_555
O24A Mn9A 1_555 1_555
O25A Mn8 1_555 1_555
O25_2 Mn8A 1_555 1_555
O26A C52A 1_555 1_555
O27A Mn8A_2 1_555 1_555
O27A_2 Mn7A 1_555 1_555
O28A Mn6_2 1_555 1_555
O28A_2 Mn6 1_555 1_555
O29A Mn8A_2 1_555 1_555
O29A_2 Mn8A 1_555 1_555
O30A Mn9 1_555 1_555
O30A_2 Mn10 1_555 1_555
O31A Mn1A 1_555 1_555
O32A Mn2A_4 1_555 1_555
O32_2 Mn2 1_555 1_555
O32A_2 Mn2A 1_555 1_555
O33A C67A 1_555 1_555
O34A C71A 1_555 1_555
O34_2 Mn1 1_555 1_555
O34A_2 Mn1A 1_555 1_555
O35A Mn1A_2 1_555 1_555
O35_2 Mn1 1_555 1_555
O35_3 Mn2 1_555 1_555
O35A_2 Mn1A 1_555 1_555
O35A_3 Mn2A 1_555 1_555
O36A C76A 1_555 1_555
O36_2 Mn9 1_555 1_555
O36A_2 Mn9A 1_555 1_555
O37A Mn9A_2 1_555 1_555
O37_2 Mn9 1_555 1_555
O37A_2 Mn10 1_555 1_555
O38A Mn8A_3 1_555 1_555
O38A_2 Mn8A 1_555 1_555
O39A C80A 1_555 1_555
O39A_2 Mn7A 1_555 1_555
O40A C82A 1_555 1_555
O41A Mn10 1_555 1_555
O41_2 Mn10 1_555 1_555
O42A Mn8 1_555 1_555
O42_2 Mn9 1_555 1_555
O42_3 Mn8A 1_555 1_555
N1A Mn1A 1_555 1_555
N2A Mn4A 1_555 1_555
N3A Mn5A 1_555 1_555
C1_2 O2_2 1_555 1_555
C2_2 C1_2 1_555 1_555
C3_2 C2_2 1_555 1_555
H1_2 C3_2 1_555 1_555
C4_2 C3_2 1_555 1_555
C5_2 C4_2 1_555 1_555
H2_2 C5_2 1_555 1_555
C6_2 C5_2 1_555 1_555
C7_2 C6_2 1_555 1_555
C8_2 C2_2 1_555 1_555
H3_2 C8_2 1_555 1_555
C9_2 O5_2 1_555 1_555
C10_2 C9_2 1_555 1_555
C11_2 O7_2 1_555 1_555
C12_2 C10_2 1_555 1_555
H4_2 C12_2 1_555 1_555
C13_2 C12_2 1_555 1_555
H5_2 C13_2 1_555 1_555
C14_2 C13_2 1_555 1_555
H6_2 C14_2 1_555 1_555
C15_2 C9_2 1_555 1_555
H7_2 C15_2 1_555 1_555
C16A O8A 1_555 1_555
C17A C16A 1_555 1_555
C18A C17A 1_555 1_555
H8A C18A 1_555 1_555
C19A C18A 1_555 1_555
H9A C19A 1_555 1_555
C20A C19A 1_555 1_555
H10A C20A 1_555 1_555
C21A C20A 1_555 1_555
H11A C21A 1_555 1_555
C22A C17A 1_555 1_555
C23A O10A 1_555 1_555
C24A C23A 1_555 1_555
H12A C24A 1_555 1_555
C25A C24A 1_555 1_555
C26A O11A 1_555 1_555
C27A C25A 1_555 1_555
H13A C27A 1_555 1_555
C28A C27A 1_555 1_555
C29A O13A 1_555 1_555
C30A C23A 1_555 1_555
H14A C30A 1_555 1_555
C31A O15A 1_555 1_555
C32A C31A 1_555 1_555
C33A C32A 1_555 1_555
H15A C33A 1_555 1_555
C34A C33A 1_555 1_555
H16A C34A 1_555 1_555
C35A C34A 1_555 1_555
H17A C35A 1_555 1_555
C36A C35A 1_555 1_555
H18A C36A 1_555 1_555
C37A C32A 1_555 1_555
C38A O17A 1_555 1_555
C39A C38A 1_555 1_555
H19A C39A 1_555 1_555
C40A C39A 1_555 1_555
C41A O18A 1_555 1_555
C42A C40A 1_555 1_555
H20A C42A 1_555 1_555
C43A C42A 1_555 1_555
C44A C43A 1_555 1_555
C45A C38A 1_555 1_555
H21A C45A 1_555 1_555
C46A O22A 1_555 1_555
C47A C46A 1_555 1_555
C48A C47A 1_555 1_555
H22A C48A 1_555 1_555
C49A C48A 1_555 1_555
C50A O24A 1_555 1_555
C51A C49A 1_555 1_555
H23A C51A 1_555 1_555
C52A C51A 1_555 1_555
C53A C47A 1_555 1_555
H24A C53A 1_555 1_555
C54A O26A 1_555 1_555
C55A C54A 1_555 1_555
C56A O27A 1_555 1_555
C57A C55A 1_555 1_555
H25A C57A 1_555 1_555
C58A C57A 1_555 1_555
H26A C58A 1_555 1_555
C59A C58A 1_555 1_555
H27A C59A 1_555 1_555
C60A C54A 1_555 1_555
H28A C60A 1_555 1_555
C61A O29A 1_555 1_555
C62A C61A 1_555 1_555
C63A C62A 1_555 1_555
H29A C63A 1_555 1_555
C64A C63A 1_555 1_555
C65A O31A 1_555 1_555
C66A C64A 1_555 1_555
H30A C66A 1_555 1_555
C67A C66A 1_555 1_555
C68A C62A 1_555 1_555
H31A C68A 1_555 1_555
C69A O33A 1_555 1_555
C70A C69A 1_555 1_555
C71A O35A 1_555 1_555
C72A C70A 1_555 1_555
H32A C72A 1_555 1_555
C73A C72A 1_555 1_555
H33A C73A 1_555 1_555
C74A C73A 1_555 1_555
H34A C74A 1_555 1_555
C75A C69A 1_555 1_555
H35A C75A 1_555 1_555
C76A O37A 1_555 1_555
C77A C76A 1_555 1_555
C78A C77A 1_555 1_555
H36A C78A 1_555 1_555
C79A C78A 1_555 1_555
C80A O38A 1_555 1_555
C81A C79A 1_555 1_555
H37A C81A 1_555 1_555
C82A C81A 1_555 1_555
C83A C77A 1_555 1_555
H38A C83A 1_555 1_555
C84A O40A 1_555 1_555
C85A C84A 1_555 1_555
C86A O41A 1_555 1_555
C87A C85A 1_555 1_555
H39A C87A 1_555 1_555
C88A C87A 1_555 1_555
H40A C88A 1_555 1_555
C89A C88A 1_555 1_555
H41A C89A 1_555 1_555
C90A C84A 1_555 1_555
H42A C90A 1_555 1_555
C91A N1A 1_555 1_555
H43A C91A 1_555 1_555
C92A C91A 1_555 1_555
H44A C92A 1_555 1_555
C93A C92A 1_555 1_555
H45A C93A 1_555 1_555
C94A C93A 1_555 1_555
H46A C94A 1_555 1_555
C95A N1A 1_555 1_555
H47A C95A 1_555 1_555
C96A N2A 1_555 1_555
H48A C96A 1_555 1_555
C97A C96A 1_555 1_555
H49A C97A 1_555 1_555
C98A C97A 1_555 1_555
H50A C98A 1_555 1_555
C99A C98A 1_555 1_555
H51A C99A 1_555 1_555
C100A N2A 1_555 1_555
H52A C100A 1_555 1_555
C101A N3A 1_555 1_555
H53A C101A 1_555 1_555
C102A C101A 1_555 1_555
H54A C102A 1_555 1_555
C103A C102A 1_555 1_555
H55A C103A 1_555 1_555
C104A C103A 1_555 1_555
H56A C104A 1_555 1_555
C105A N3A 1_555 1_555
H57A C105A 1_555 1_555
O43A Mn4A 1_555 1_555
H58A O43A 1_555 1_555
O44A Mn7A 1_555 1_555
H59A O44A 1_555 1_555
O45A Mn9A 1_555 1_555
H60A O43A 1_555 1_555
H61A O44A 1_555 1_555
H62A O45A 1_555 1_555
H63A O45A 1_555 1_555
Mn3 O6A 1_555 1_555
Mn7 O22_2 1_555 1_555
Mn8 O27 1_555 1_555
O7 Mn3A_3 1_555 1_555
O16 C31 1_555 1_555
O23 Mn7_2 1_555 1_555
O28 C56 1_555 1_555
O32 Mn2_2 1_555 1_555
O35 Mn1_2 1_555 1_555
O37 Mn9_2 1_555 1_555
O39 C80 1_555 1_555
C6 C8 1_555 1_555
C14 C15 1_555 1_555
C21 C22 1_555 1_555
C28 C29 1_555 1_555
C28 C30 1_555 1_555
C36 C37 1_555 1_555
C43 C45 1_555 1_555
C52 C53 1_555 1_555
C55 C56 1_555 1_555
C59 C60 1_555 1_555
C64 C65 1_555 1_555
C67 C68 1_555 1_555
C74 C75 1_555 1_555
C79 C80 1_555 1_555
C82 C83 1_555 1_555
C89 C90 1_555 1_555
C94 C95 1_555 1_555
C99 C100 1_555 1_555
C104 C105 1_555 1_555
Mn1_3 O2_2 1_555 1_555
Mn1_3 O35_3 1_555 1_555
Mn2_2 O35_2 1_555 1_555
Mn2A_4 O35A_2 1_555 1_555
Mn2A_5 O35A 1_555 1_555
Mn3A O6_3 1_555 1_555
Mn7A O22A 1_555 1_555
Mn8A O27A_2 1_555 1_555
Mn8A_2 O42_2 1_555 1_555
Mn9A O37A_2 1_555 1_555
Mn9A O42A 1_555 1_555
Mn9_2 O30A_2 1_555 1_555
Mn10_2 O37A 1_555 1_555
Mn10_3 O37_2 1_555 1_555
O9A C16A 1_555 1_555
O12A C26A 1_555 1_555
O14A C29A 1_555 1_555
O16A C31A 1_555 1_555
O23A C46A 1_555 1_555
O25A C50A 1_555 1_555
O28A C56A 1_555 1_555
O30A C61A 1_555 1_555
O32A C65A 1_555 1_555
O42A C86A 1_555 1_555
C6_2 C8_2 1_555 1_555
C10_2 C11_2 1_555 1_555
C14_2 C15_2 1_555 1_555
C21A C22A 1_555 1_555
C25A C26A 1_555 1_555
C28A C29A 1_555 1_555
C28A C30A 1_555 1_555
C36A C37A 1_555 1_555
C40A C41A 1_555 1_555
C43A C45A 1_555 1_555
C49A C50A 1_555 1_555
C52A C53A 1_555 1_555
C55A C56A 1_555 1_555
C59A C60A 1_555 1_555
C64A C65A 1_555 1_555
C67A C68A 1_555 1_555
C70A C71A 1_555 1_555
C74A C75A 1_555 1_555
C79A C80A 1_555 1_555
C82A C83A 1_555 1_555
C85A C86A 1_555 1_555
C89A C90A 1_555 1_555
C94A C95A 1_555 1_555
C99A C100A 1_555 1_555
C104A C105A 1_555 1_555

#END
