
#######################################################################
#
#                 Cambridge Crystallographic Data Centre
#                                CCDC 
#
#######################################################################
#
# If this CIF has been generated from an entry in the Cambridge 
# Structural Database, then it will include bibliographic, chemical, 
# crystal, experimental, refinement or atomic coordinate data resulting 
# from the CCDC's data processing and validation procedures.
#
#######################################################################

data_WAQNEI
_symmetry_cell_setting           monoclinic
_symmetry_space_group_name_H-M   'P 21/n'
_symmetry_Int_Tables_number      14
_space_group_name_Hall           '-P 2yn'
loop_
_symmetry_equiv_pos_site_id
_symmetry_equiv_pos_as_xyz
1 x,y,z
2 1/2-x,1/2+y,1/2-z
3 -x,-y,-z
4 1/2+x,1/2-y,1/2+z
_cell_length_a                   9.9969(6)
_cell_length_b                   16.5736(10)
_cell_length_c                   14.6322(9)
_cell_angle_alpha                90
_cell_angle_beta                 109.2480(10)
_cell_angle_gamma                90
_cell_volume                     2288.81
loop_
_atom_site_label
_atom_site_type_symbol
_atom_site_fract_x
_atom_site_fract_y
_atom_site_fract_z
Cu1 Cu 0.36504(5) 0.25142(3) 0.37368(3)
N1 N 0.1581(3) 0.21134(17) 0.3140(2)
N2 N 0.4761(3) -0.17416(16) 0.5516(2)
C1 C 0.0651(4) 0.2693(2) 0.2702(3)
H1 H 0.1014 0.3182 0.2579
C2 C -0.0777(4) 0.2617(2) 0.2427(3)
H2 H -0.1366 0.3044 0.2131
C3 C -0.1338(4) 0.1895(2) 0.2595(3)
H3 H -0.2312 0.1822 0.2419
C4 C -0.0414(4) 0.1284(2) 0.3031(2)
H4 H -0.0768 0.0791 0.3151
C5 C 0.1026(4) 0.13966(19) 0.3291(2)
C6 C 0.2040(4) 0.07448(19) 0.3701(2)
H5 H 0.2887 0.0752 0.3568
C7 C 0.1849(4) 0.0148(2) 0.4245(2)
H6 H 0.1012 0.0152 0.4392
C8 C 0.2832(4) -0.05203(19) 0.4638(2)
C9 C 0.2741(4) -0.0952(2) 0.5420(3)
H7 H 0.2016 -0.0842 0.5669
C10 C 0.3711(4) -0.1541(2) 0.5835(3)
H8 H 0.3628 -0.1815 0.6368
C11 C 0.4811(4) -0.1350(2) 0.4733(3)
H9 H 0.5509 -0.1497 0.4472
C12 C 0.3890(4) -0.0742(2) 0.4286(3)
H10 H 0.3984 -0.0483 0.3747
N3 N 0.4063(3) 0.28007(18) 0.2433(2)
N4 N 0.6260(4) 0.66026(17) 0.5260(2)
C13 C 0.3884(5) 0.2196(2) 0.1801(3)
H11 H 0.3334 0.1758 0.1857
C14 C 0.4467(5) 0.2186(3) 0.1075(3)
H12 H 0.4297 0.1758 0.0640
C15 C 0.5300(5) 0.2816(3) 0.1007(3)
H13 H 0.5732 0.2818 0.0532
C16 C 0.5499(4) 0.3451(2) 0.1643(3)
H14 H 0.6061 0.3887 0.1600
C17 C 0.4858(4) 0.3434(2) 0.2346(3)
C18 C 0.4904(4) 0.4130(2) 0.3017(3)
H15 H 0.4095 0.4239 0.3177
C19 C 0.6007(5) 0.4589(2) 0.3388(3)
H16 H 0.6818 0.4469 0.3237
C20 C 0.6072(5) 0.5288(2) 0.4034(3)
C21 C 0.7346(5) 0.5579(2) 0.4598(3)
H17 H 0.8179 0.5341 0.4579
C22 C 0.7401(5) 0.6222(2) 0.5191(3)
H18 H 0.8289 0.6407 0.5571
C23 C 0.5005(4) 0.6334(2) 0.4690(3)
H19 H 0.4193 0.6599 0.4707
C24 C 0.4847(4) 0.5681(2) 0.4076(3)
H20 H 0.3952 0.5506 0.3699
Cu1B Cu 0.63496(5) -0.25142(3) 0.62632(3)
Cu1B_2 Cu 0.63496(5) 0.74858(3) 0.62632(3)
N2B N 0.5239(3) 0.17416(16) 0.4484(2)
N4B N 0.3740(4) 0.33974(17) 0.4740(2)
B1 B 0.5483(6) -0.0098(3) 0.2181(4)
F1 F 0.4152(3) 0.0041(2) 0.2198(2)
F2 F 0.5481(3) -0.05683(16) 0.1409(2)
F3 F 0.6225(3) -0.05003(15) 0.3033(2)
F4 F 0.6183(3) 0.06071(15) 0.2170(2)
loop_
_geom_bond_atom_site_label_1
_geom_bond_atom_site_label_2
_geom_bond_site_symmetry_1
_geom_bond_site_symmetry_2
Cu1 N1 1_555 1_555
N1 C1 1_555 1_555
N2 C10 1_555 1_555
C1 H1 1_555 1_555
C2 C1 1_555 1_555
H2 C2 1_555 1_555
C3 C2 1_555 1_555
H3 C3 1_555 1_555
C4 C3 1_555 1_555
H4 C4 1_555 1_555
C5 N1 1_555 1_555
C6 C5 1_555 1_555
H5 C6 1_555 1_555
C7 C6 1_555 1_555
H6 C7 1_555 1_555
C8 C7 1_555 1_555
C9 C8 1_555 1_555
H7 C9 1_555 1_555
C10 C9 1_555 1_555
H8 C10 1_555 1_555
C11 N2 1_555 1_555
H9 C11 1_555 1_555
C12 C8 1_555 1_555
H10 C12 1_555 1_555
N3 Cu1 1_555 1_555
N4 C22 1_555 1_555
C13 N3 1_555 1_555
H11 C13 1_555 1_555
C14 C13 1_555 1_555
H12 C14 1_555 1_555
C15 C14 1_555 1_555
H13 C15 1_555 1_555
C16 C15 1_555 1_555
H14 C16 1_555 1_555
C17 N3 1_555 1_555
C18 C17 1_555 1_555
H15 C18 1_555 1_555
C19 C18 1_555 1_555
H16 C19 1_555 1_555
C20 C19 1_555 1_555
C21 C20 1_555 1_555
H17 C21 1_555 1_555
C22 C21 1_555 1_555
H18 C22 1_555 1_555
C23 N4 1_555 1_555
H19 C23 1_555 1_555
C24 C20 1_555 1_555
H20 C24 1_555 1_555
B1 F1 1_555 1_555
F2 B1 1_555 1_555
F3 B1 1_555 1_555
F4 B1 1_555 1_555
Cu1B N2 1_555 1_555
Cu1B_2 N4 1_555 1_555
N2B Cu1 1_555 1_555
N4B Cu1 1_555 1_555
C4 C5 1_555 1_555
C11 C12 1_555 1_555
C16 C17 1_555 1_555
C23 C24 1_555 1_555

#END
