
#######################################################################
#
#                 Cambridge Crystallographic Data Centre
#                                CCDC 
#
#######################################################################
#
# If this CIF has been generated from an entry in the Cambridge 
# Structural Database, then it will include bibliographic, chemical, 
# crystal, experimental, refinement or atomic coordinate data resulting 
# from the CCDC's data processing and validation procedures.
#
#######################################################################

data_WAQNOT
_symmetry_cell_setting           triclinic
_symmetry_space_group_name_H-M   'P -1'
_symmetry_Int_Tables_number      2
_space_group_name_Hall           '-P 1'
loop_
_symmetry_equiv_pos_site_id
_symmetry_equiv_pos_as_xyz
1 x,y,z
2 -x,-y,-z
_cell_length_a                   9.4392(7)
_cell_length_b                   10.0591(7)
_cell_length_c                   11.4120(9)
_cell_angle_alpha                100.489(6)
_cell_angle_beta                 106.830(6)
_cell_angle_gamma                103.425(6)
_cell_volume                     971.985
loop_
_atom_site_label
_atom_site_type_symbol
_atom_site_fract_x
_atom_site_fract_y
_atom_site_fract_z
Zn1 Zn 0.65579(6) 0.89239(5) 0.55375(4)
O1 O 0.4168(4) 0.8385(3) 0.4970(3)
O2 O 0.2172(4) 0.8992(3) 0.3870(3)
O3 O 0.3522(4) 0.3249(3) 0.4683(3)
O4 O 0.1193(4) 0.1721(3) 0.3910(3)
N1 N 0.6540(4) 0.8878(4) 0.3649(3)
N2 N 0.6542(4) 0.9056(4) -0.2564(3)
C1 C 0.1767(6) 0.6594(5) 0.3949(5)
C2 C 0.2380(6) 0.5534(5) 0.4262(5)
H1 H 0.3406 0.5762 0.4796
C3 C 0.2778(5) 0.8101(5) 0.4291(4)
C4 C 0.2071(6) 0.2956(5) 0.4197(4)
C5 C 0.5279(5) 0.8234(5) 0.2609(4)
H2 H 0.4379 0.7735 0.2709
C6 C 0.5238(6) 0.8267(5) 0.1405(4)
H3 H 0.4319 0.7814 0.0721
C7 C 0.6563(5) 0.8974(5) 0.1194(4)
C8 C 0.7895(5) 0.9630(6) 0.2288(4)
H4 H 0.8822 1.0109 0.2215
C9 C 0.7829(5) 0.9565(5) 0.3463(4)
H5 H 0.8724 1.0020 0.4170
C10 C 0.6570(5) 0.9035(5) -0.0082(4)
C11 C 0.5354(6) 0.8186(6) -0.1157(5)
H6 H 0.4506 0.7575 -0.1072
C12 C 0.5368(6) 0.8223(6) -0.2360(4)
H7 H 0.4518 0.7638 -0.3059
C13 C 0.7743(6) 0.9922(6) -0.1521(4)
H8 H 0.8568 1.0531 -0.1634
C14 C 0.7788(6) 0.9938(6) -0.0302(4)
H9 H 0.8634 1.0552 0.0384
O5 O -0.2278(8) 0.4424(8) 0.2033(7)
C15 C -0.0721(11) 0.4847(11) 0.2711(9)
C16 C 0.1448(13) 0.4104(11) 0.3771(11)
C17 C -0.0111(12) 0.3796(11) 0.3077(10)
H10 H -0.0761 0.2871 0.2852
C18 C 0.0254(11) 0.6234(10) 0.3066(9)
H11 H -0.0093 0.6919 0.2721
C19 C -0.2998(15) 0.5475(14) 0.1534(13)
H12 H -0.4121 0.5126 0.1259
H13 H -0.2634 0.6375 0.2174
C20 C -0.245(2) 0.563(2) 0.0382(15)
C21 C -0.200(2) 0.571(2) -0.0487(15)
H14 H -0.1649 0.5773 -0.1164
Zn1A Zn 0.34421(6) 1.10761(5) 0.44625(4)
Zn1A_2 Zn 0.34421(6) 0.10761(5) 0.44625(4)
Zn1_2 Zn 0.65579(6) 0.89239(5) -0.44625(4)
O2A O 0.7828(4) 1.1008(3) 0.6130(3)
O3A O 0.6478(4) 0.6751(3) 0.5317(3)
O4A O 0.8807(4) 0.8279(3) 0.6090(3)
N2_2 N 0.6542(4) 0.9056(4) 0.7436(3)
O6 O -0.5445(13) 0.4813(11) 0.2847(8)
C22? C -0.2949(14) 0.5523(14) 0.1123(11)
C23? C -0.290(3) 0.562(3) 0.0168(18)
C24? C 0.1394(13) 0.4185(11) 0.4106(11)
C25? C -0.0215(11) 0.3899(11) 0.3598(9)
C26? C -0.0848(11) 0.4956(10) 0.3335(9)
C27? C 0.0108(11) 0.6346(11) 0.3568(10)
C28? C -0.3192(14) 0.5537(13) 0.2431(11)
H15? H -0.2853 0.5705 -0.0620
H16? H -0.0862 0.2985 0.3438
H17? H -0.0316 0.7085 0.3479
H18? H -0.2727 0.6481 0.3011
H19? H -0.4288 0.5224 0.2314
O7? O -0.2436(8) 0.4577(8) 0.2897(6)
loop_
_geom_bond_atom_site_label_1
_geom_bond_atom_site_label_2
_geom_bond_site_symmetry_1
_geom_bond_site_symmetry_2
Zn1 O1 1_555 1_555
O1 C3 1_555 1_555
O2 C3 1_555 1_555
O3 C4 1_555 1_555
O4 C4 1_555 1_555
N1 Zn1 1_555 1_555
N2 C12 1_555 1_555
C1 C2 1_555 1_555
C2 H1 1_555 1_555
C3 C1 1_555 1_555
C4 C16 1_555 1_555
C5 N1 1_555 1_555
H2 C5 1_555 1_555
C6 C5 1_555 1_555
H3 C6 1_555 1_555
C7 C6 1_555 1_555
C8 C7 1_555 1_555
H4 C8 1_555 1_555
C9 N1 1_555 1_555
H5 C9 1_555 1_555
C10 C7 1_555 1_555
C11 C10 1_555 1_555
H6 C11 1_555 1_555
C12 C11 1_555 1_555
H7 C12 1_555 1_555
C13 N2 1_555 1_555
H8 C13 1_555 1_555
C14 C10 1_555 1_555
H9 C14 1_555 1_555
O5 C15 1_555 1_555
C15 C17 1_555 1_555
C16 C2 1_555 1_555
C17 C16 1_555 1_555
H10 C17 1_555 1_555
C18 C1 1_555 1_555
H11 C18 1_555 1_555
C19 O5 1_555 1_555
H12 C19 1_555 1_555
H13 C19 1_555 1_555
C20 C19 1_555 1_555
C21 C20 1_555 1_555
H14 C21 1_555 1_555
Zn1A O2 1_555 1_555
Zn1A_2 O3 1_555 1_555
Zn1_2 N2 1_555 1_555
O2A Zn1 1_555 1_555
O3A Zn1 1_555 1_555
O4A Zn1 1_555 1_555
N2_2 Zn1 1_555 1_555
O4 Zn1A_2 1_555 1_555
C8 C9 1_555 1_555
C13 C14 1_555 1_555
C15 C18 1_555 1_555

#END
