
#######################################################################
#
#                 Cambridge Crystallographic Data Centre
#                                CCDC 
#
#######################################################################
#
# If this CIF has been generated from an entry in the Cambridge 
# Structural Database, then it will include bibliographic, chemical, 
# crystal, experimental, refinement or atomic coordinate data resulting 
# from the CCDC's data processing and validation procedures.
#
#######################################################################

data_WAQRAI
_symmetry_cell_setting           orthorhombic
_symmetry_space_group_name_H-M   'P b c a'
_symmetry_Int_Tables_number      61
_space_group_name_Hall           '-P 2ac 2ab'
loop_
_symmetry_equiv_pos_site_id
_symmetry_equiv_pos_as_xyz
1 x,y,z
2 1/2-x,-y,1/2+z
3 -x,1/2+y,1/2-z
4 1/2+x,1/2-y,-z
5 -x,-y,-z
6 1/2+x,y,1/2-z
7 x,1/2-y,1/2+z
8 1/2-x,1/2+y,z
_cell_length_a                   9.885(2)
_cell_length_b                   9.536(2)
_cell_length_c                   13.724(3)
_cell_angle_alpha                90
_cell_angle_beta                 90
_cell_angle_gamma                90
_cell_volume                     1293.67
loop_
_atom_site_label
_atom_site_type_symbol
_atom_site_fract_x
_atom_site_fract_y
_atom_site_fract_z
Zn1 Zn 0.95790(3) 0.20879(4) 0.38013(2)
N1 N 0.9594(2) 0.3499(3) 0.27362(16)
N2 N 0.7735(2) 0.2076(2) 0.43466(16)
C1 C 0.7202(3) 0.2736(3) 0.5083(2)
H1 H 0.7668 0.3361 0.5480
C2 C 1.0366(3) 0.4574(3) 0.2526(2)
H2 H 1.1145 0.4814 0.2868
N3 N 0.8593(3) 0.3533(3) 0.2080(2)
N4 N 0.8773(3) 0.4584(3) 0.15073(19)
N5 N 0.9903(2) 0.5264(2) 0.17765(17)
N6 N 0.5925(2) 0.2406(3) 0.51941(16)
N7 N 0.5648(3) 0.1499(3) 0.4474(2)
N8 N 0.6731(3) 0.1293(3) 0.39674(19)
Zn1B Zn 1.04210(3) 0.70879(4) 0.11987(2)
Zn1C Zn 0.45790(3) 0.29121(4) 0.61987(2)
N5B N 1.0097(2) 0.0264(2) 0.32235(17)
N6C N 1.0925(2) 0.2594(3) 0.48059(16)
loop_
_geom_bond_atom_site_label_1
_geom_bond_atom_site_label_2
_geom_bond_site_symmetry_1
_geom_bond_site_symmetry_2
Zn1 N1 1_555 1_555
N1 C2 1_555 1_555
N2 Zn1 1_555 1_555
C1 N2 1_555 1_555
H1 C1 1_555 1_555
C2 H2 1_555 1_555
N3 N1 1_555 1_555
N4 N3 1_555 1_555
N5 C2 1_555 1_555
N6 C1 1_555 1_555
N7 N6 1_555 1_555
N8 N2 1_555 1_555
Zn1B N5 1_555 1_555
Zn1C N6 1_555 1_555
N5B Zn1 1_555 1_555
N6C Zn1 1_555 1_555
N4 N5 1_555 1_555
N7 N8 1_555 1_555

#END
