
#######################################################################
#
#                 Cambridge Crystallographic Data Centre
#                                CCDC 
#
#######################################################################
#
# If this CIF has been generated from an entry in the Cambridge 
# Structural Database, then it will include bibliographic, chemical, 
# crystal, experimental, refinement or atomic coordinate data resulting 
# from the CCDC's data processing and validation procedures.
#
#######################################################################

data_WAQREM
_symmetry_cell_setting           orthorhombic
_symmetry_space_group_name_H-M   'P b c n'
_symmetry_Int_Tables_number      60
_space_group_name_Hall           '-P 2n 2ab'
loop_
_symmetry_equiv_pos_site_id
_symmetry_equiv_pos_as_xyz
1 x,y,z
2 1/2-x,1/2-y,1/2+z
3 -x,y,1/2-z
4 1/2+x,1/2-y,-z
5 -x,-y,-z
6 1/2+x,1/2+y,1/2-z
7 x,-y,1/2+z
8 1/2-x,1/2+y,z
_cell_length_a                   10.1580(11)
_cell_length_b                   13.9511(15)
_cell_length_c                   25.643(3)
_cell_angle_alpha                90
_cell_angle_beta                 90
_cell_angle_gamma                90
_cell_volume                     3634
loop_
_atom_site_label
_atom_site_type_symbol
_atom_site_fract_x
_atom_site_fract_y
_atom_site_fract_z
Zn1 Zn 0.0000 0.02471(7) 0.2500
N1 N -0.1668(4) -0.0428(4) 0.26211(18)
N2 N 0.0311(5) 0.2057(5) 0.3101(2)
N3 N 0.0283(5) 0.1117(5) 0.3106(2)
C1 C -0.2235(5) -0.1232(4) 0.2447(2)
N4 N 0.0649(5) 0.0806(4) 0.3585(3)
N5 N 0.0674(5) 0.2388(4) 0.3569(3)
C2 C 0.0878(6) 0.1601(7) 0.3857(2)
N6 N -0.2580(5) 0.0037(4) 0.29199(18)
C3 C -0.1624(5) -0.1932(5) 0.2103(2)
C4 C -0.1622(5) -0.2891(5) 0.2239(2)
H1 H -0.1961 -0.3082 0.2559
C5 C 0.1317(6) 0.1616(7) 0.4398(3)
C6 C -0.0617(6) -0.3306(6) 0.1417(3)
C7 C -0.1121(6) -0.3563(5) 0.1901(3)
H2 H -0.1118 -0.4205 0.1999
C8 C -0.1093(5) -0.1675(6) 0.1630(2)
H3 H -0.1063 -0.1032 0.1535
C9 C 0.1745(7) 0.2439(7) 0.4630(3)
H4 H 0.1714 0.3009 0.4442
C10 C 0.2219(8) 0.2452(9) 0.5128(3)
H5 H 0.2533 0.3026 0.5264
C11 C 0.2249(8) 0.1663(10) 0.5428(3)
C12 C -0.0608(6) -0.2354(6) 0.1298(3)
H6 H -0.0260 -0.2160 0.0979
C13 C 0.1357(8) 0.0786(7) 0.4687(4)
H7 H 0.1089 0.0209 0.4540
C14 C 0.2760(7) 0.1647(7) 0.5983(3)
H8 H 0.3034 0.2280 0.6082
H9 H 0.3496 0.1217 0.6006
H10 H 0.2075 0.1434 0.6213
C15 C -0.0101(7) -0.4058(5) 0.1045(2)
H11 H 0.0214 -0.3754 0.0734
H12 H -0.0797 -0.4496 0.0958
H13 H 0.0606 -0.4403 0.1208
C16 C 0.1801(9) 0.0810(8) 0.5203(4)
H14 H 0.1800 0.0250 0.5400
N7 N -0.3461(4) -0.1260(3) 0.26312(17)
N8 N -0.3647(5) -0.0468(4) 0.29244(19)
Zn2 Zn 0.0000 0.29085(7) 0.2500
N1B N 0.1668(4) -0.0428(4) 0.23789(18)
N2B N -0.0311(5) 0.2057(5) 0.1899(2)
N3B N -0.0283(5) 0.1117(5) 0.1894(2)
C1B C 0.2235(5) -0.1232(4) 0.2553(2)
N4B N -0.0649(5) 0.0806(4) 0.1415(3)
N5B N -0.0674(5) 0.2388(4) 0.1431(3)
C2B C -0.0878(6) 0.1601(7) 0.1143(2)
N6B N 0.2580(5) 0.0037(4) 0.20801(18)
C3B C 0.1624(5) -0.1932(5) 0.2897(2)
C4B C 0.1622(5) -0.2891(5) 0.2761(2)
H1B H 0.1961 -0.3082 0.2441
C5B C -0.1317(6) 0.1616(7) 0.0602(3)
C6B C 0.0617(6) -0.3306(6) 0.3583(3)
C7B C 0.1121(6) -0.3563(5) 0.3099(3)
H2B H 0.1118 -0.4205 0.3001
C8B C 0.1093(5) -0.1675(6) 0.3370(2)
H3B H 0.1063 -0.1032 0.3465
C9B C -0.1745(7) 0.2439(7) 0.0370(3)
H4B H -0.1714 0.3009 0.0558
C10B C -0.2219(8) 0.2452(9) -0.0128(3)
H5B H -0.2533 0.3026 -0.0264
C11B C -0.2249(8) 0.1663(10) -0.0428(3)
C12B C 0.0608(6) -0.2354(6) 0.3702(3)
H6B H 0.0260 -0.2160 0.4021
C13B C -0.1357(8) 0.0786(7) 0.0313(4)
H7B H -0.1089 0.0209 0.0460
C14B C -0.2760(7) 0.1647(7) -0.0983(3)
H8B H -0.3034 0.2280 -0.1082
H9B H -0.3496 0.1217 -0.1006
H10B H -0.2075 0.1434 -0.1213
C15B C 0.0101(7) -0.4058(5) 0.3955(2)
H11B H -0.0214 -0.3754 0.4266
H12B H 0.0797 -0.4496 0.4042
H13B H -0.0606 -0.4403 0.3792
C16B C -0.1801(9) 0.0810(8) -0.0203(4)
H14B H -0.1800 0.0250 -0.0400
N7B N 0.3461(4) -0.1260(3) 0.23688(17)
N7E N 0.1539(4) 0.3740(3) 0.23688(17)
N7G N -0.1539(4) 0.3740(3) 0.26312(17)
N8B N 0.3647(5) -0.0468(4) 0.20756(19)
Zn2E Zn -0.5000 -0.20915(7) 0.2500
Zn2E_2 Zn 0.5000 -0.20915(7) 0.2500
loop_
_geom_bond_atom_site_label_1
_geom_bond_atom_site_label_2
_geom_bond_site_symmetry_1
_geom_bond_site_symmetry_2
Zn1 N1 1_555 1_555
N1 C1 1_555 1_555
N2 N3 1_555 1_555
N3 Zn1 1_555 1_555
C1 C3 1_555 1_555
N4 N3 1_555 1_555
N5 N2 1_555 1_555
C2 N4 1_555 1_555
N6 N1 1_555 1_555
C3 C4 1_555 1_555
C4 H1 1_555 1_555
C5 C2 1_555 1_555
C6 C7 1_555 1_555
C7 C4 1_555 1_555
H2 C7 1_555 1_555
C8 C3 1_555 1_555
H3 C8 1_555 1_555
C9 C5 1_555 1_555
H4 C9 1_555 1_555
C10 C9 1_555 1_555
H5 C10 1_555 1_555
C11 C10 1_555 1_555
C12 C6 1_555 1_555
H6 C12 1_555 1_555
C13 C5 1_555 1_555
H7 C13 1_555 1_555
C14 C11 1_555 1_555
H8 C14 1_555 1_555
H9 C14 1_555 1_555
H10 C14 1_555 1_555
C15 C6 1_555 1_555
H11 C15 1_555 1_555
H12 C15 1_555 1_555
H13 C15 1_555 1_555
C16 C11 1_555 1_555
H14 C16 1_555 1_555
N7 C1 1_555 1_555
N8 N6 1_555 1_555
Zn2 N2 1_555 1_555
N1B Zn1 1_555 1_555
N2B Zn2 1_555 1_555
N3B Zn1 1_555 1_555
C1B N1B 1_555 1_555
N4B N3B 1_555 1_555
N5B N2B 1_555 1_555
C2B N4B 1_555 1_555
N6B N1B 1_555 1_555
C3B C1B 1_555 1_555
C4B C3B 1_555 1_555
H1B C4B 1_555 1_555
C5B C2B 1_555 1_555
C6B C7B 1_555 1_555
C7B C4B 1_555 1_555
H2B C7B 1_555 1_555
C8B C3B 1_555 1_555
H3B C8B 1_555 1_555
C9B C5B 1_555 1_555
H4B C9B 1_555 1_555
C10B C9B 1_555 1_555
H5B C10B 1_555 1_555
C11B C10B 1_555 1_555
C12B C6B 1_555 1_555
H6B C12B 1_555 1_555
C13B C5B 1_555 1_555
H7B C13B 1_555 1_555
C14B C11B 1_555 1_555
H8B C14B 1_555 1_555
H9B C14B 1_555 1_555
H10B C14B 1_555 1_555
C15B C6B 1_555 1_555
H11B C15B 1_555 1_555
H12B C15B 1_555 1_555
H13B C15B 1_555 1_555
C16B C11B 1_555 1_555
H14B C16B 1_555 1_555
N7B C1B 1_555 1_555
N7E Zn2 1_555 1_555
N7G Zn2 1_555 1_555
N8B N6B 1_555 1_555
Zn2E N7 1_555 1_555
Zn2E_2 N7B 1_555 1_555
N5 C2 1_555 1_555
C8 C12 1_555 1_555
C13 C16 1_555 1_555
N7 N8 1_555 1_555
N2B N3B 1_555 1_555
N5B C2B 1_555 1_555
C8B C12B 1_555 1_555
C13B C16B 1_555 1_555
N7B N8B 1_555 1_555

#END
