
#######################################################################
#
#                 Cambridge Crystallographic Data Centre
#                                CCDC 
#
#######################################################################
#
# If this CIF has been generated from an entry in the Cambridge 
# Structural Database, then it will include bibliographic, chemical, 
# crystal, experimental, refinement or atomic coordinate data resulting 
# from the CCDC's data processing and validation procedures.
#
#######################################################################

data_WAQSOX
_symmetry_cell_setting           monoclinic
_symmetry_space_group_name_H-M   'C 2/c'
_symmetry_Int_Tables_number      15
_space_group_name_Hall           '-C 2yn'
loop_
_symmetry_equiv_pos_site_id
_symmetry_equiv_pos_as_xyz
1 x,y,z
2 1/2+x,1/2+y,z
3 -x,y,1/2-z
4 1/2-x,1/2+y,1/2-z
5 -x,-y,-z
6 1/2-x,1/2-y,-z
7 x,-y,1/2+z
8 1/2+x,1/2-y,1/2+z
_cell_length_a                   26.547(2)
_cell_length_b                   9.1410(6)
_cell_length_c                   21.0208(14)
_cell_angle_alpha                90
_cell_angle_beta                 127.87(1)
_cell_angle_gamma                90
_cell_volume                     4026.79
loop_
_atom_site_label
_atom_site_type_symbol
_atom_site_fract_x
_atom_site_fract_y
_atom_site_fract_z
Cu1 Cu 0.198805(11) 0.86392(3) 0.671169(14)
O1 O 0.23707(7) 0.62402(15) 0.69796(8)
O2 O 0.21575(6) 0.41561(15) 0.73317(8)
C1 C 0.19972(9) 0.5269(2) 0.68730(11)
C2 C 0.12925(9) 0.5342(2) 0.61640(11)
H1 H 0.1054 0.5613 0.6368
H2 H 0.1149 0.4354 0.5924
C3 C 0.11168(9) 0.6417(2) 0.55016(11)
H3 H 0.1418 0.6278 0.5377
H4 H 0.0685 0.6169 0.5010
N1 N 0.11232(7) 0.80039(17) 0.56917(9)
C4 C 0.06408(9) 0.8327(2) 0.58162(12)
H5 H 0.0270 0.7666 0.5478
H6 H 0.0489 0.9347 0.5652
C5 C 0.09295(9) 0.8119(2) 0.66924(12)
N2 N 0.15676(8) 0.82947(18) 0.72229(10)
C6 C 0.18619(10) 0.8106(2) 0.80174(12)
H7 H 0.2312 0.8224 0.8391
C7 C 0.15277(10) 0.7746(2) 0.83018(13)
H8 H 0.1744 0.7618 0.8863
C8 C 0.08694(11) 0.7575(3) 0.77555(14)
H9 H 0.0630 0.7330 0.7939
C9 C 0.05654(10) 0.7767(2) 0.69384(13)
H10 H 0.0116 0.7659 0.6555
C10 C 0.10227(9) 0.8884(2) 0.50264(11)
H11 H 0.0856 0.9863 0.5010
H12 H 0.0706 0.8395 0.4504
C11 C 0.16468(10) 0.9040(2) 0.51627(12)
N3 N 0.21721(8) 0.90282(19) 0.59413(10)
C12 C 0.27466(10) 0.9223(2) 0.61214(13)
H13 H 0.3114 0.9209 0.6671
C13 C 0.28238(11) 0.9443(3) 0.55347(14)
H14 H 0.3236 0.9586 0.5677
C14 C 0.22875(12) 0.9450(3) 0.47368(14)
H15 H 0.2327 0.9591 0.4321
C15 C 0.16914(11) 0.9248(3) 0.45470(13)
H16 H 0.1318 0.9253 0.4001
O6 O 0.15110(8) 1.12133(17) 0.64341(9)
H17 H 0.1826(12) 1.143(3) 0.6872(13)
H18 H 0.1516(14) 1.163(3) 0.6104(15)
Cu1C Cu 0.301195(11) 0.36392(3) 0.828831(14)
O2C O 0.28425(6) 0.91561(15) 0.76683(8)
N4 N 0.11803(9) 0.3226(2) 0.47698(10)
O3 O 0.08593(9) 0.24061(19) 0.48776(11)
O4 O 0.17644(9) 0.3317(3) 0.53079(11)
O5 O 0.09088(8) 0.39701(19) 0.41461(9)
O7 O 0.04019(16) 0.7591(4) 0.11333(19)
H19 H 0.0745 0.7938 0.1260
C16 C 0.0514(2) 0.6910(5) 0.1809(2)
H20 H 0.0836 0.6131 0.2002
H21 H 0.0114 0.6442 0.1646
C17 C 0.0743(3) 0.7957(6) 0.2490(3)
H22 H 0.0812 0.7425 0.2942
H23 H 0.0421 0.8720 0.2307
H24 H 0.1144 0.8407 0.2663
O8? O 0.0443(3) 0.8092(7) 0.1303(3)
H25? H 0.0750 0.8399 0.1322
C18? C 0.0637(4) 0.7947(7) 0.2091(4)
H26? H 0.0411 0.8682 0.2178
H27? H 0.1100 0.8146 0.2482
C19? C 0.0500(4) 0.6435(7) 0.2243(4)
H28? H 0.0641 0.6377 0.2796
H29? H 0.0729 0.5706 0.2167
H30? H 0.0040 0.6242 0.1863
loop_
_geom_bond_atom_site_label_1
_geom_bond_atom_site_label_2
_geom_bond_site_symmetry_1
_geom_bond_site_symmetry_2
Cu1 O1 1_555 1_555
O1 C1 1_555 1_555
O2 C1 1_555 1_555
C1 C2 1_555 1_555
C2 H1 1_555 1_555
H2 C2 1_555 1_555
C3 C2 1_555 1_555
H3 C3 1_555 1_555
H4 C3 1_555 1_555
N1 Cu1 1_555 1_555
C4 N1 1_555 1_555
H5 C4 1_555 1_555
H6 C4 1_555 1_555
C5 C4 1_555 1_555
N2 Cu1 1_555 1_555
C6 N2 1_555 1_555
H7 C6 1_555 1_555
C7 C6 1_555 1_555
H8 C7 1_555 1_555
C8 C7 1_555 1_555
H9 C8 1_555 1_555
C9 C5 1_555 1_555
H10 C9 1_555 1_555
C10 N1 1_555 1_555
H11 C10 1_555 1_555
H12 C10 1_555 1_555
C11 C10 1_555 1_555
N3 Cu1 1_555 1_555
C12 N3 1_555 1_555
H13 C12 1_555 1_555
C13 C12 1_555 1_555
H14 C13 1_555 1_555
C14 C13 1_555 1_555
H15 C14 1_555 1_555
C15 C11 1_555 1_555
H16 C15 1_555 1_555
N4 O3 1_555 1_555
O4 N4 1_555 1_555
O5 N4 1_555 1_555
O6 Cu1 1_555 1_555
H17 O6 1_555 1_555
H18 O6 1_555 1_555
O7 H19 1_555 1_555
C16 O7 1_555 1_555
H20 C16 1_555 1_555
H21 C16 1_555 1_555
C17 C16 1_555 1_555
H22 C17 1_555 1_555
H23 C17 1_555 1_555
H24 C17 1_555 1_555
Cu1C O2 1_555 1_555
O2C Cu1 1_555 1_555
C3 N1 1_555 1_555
C5 N2 1_555 1_555
C8 C9 1_555 1_555
C11 N3 1_555 1_555
C14 C15 1_555 1_555

#END
