
#######################################################################
#
#                 Cambridge Crystallographic Data Centre
#                                CCDC 
#
#######################################################################
#
# If this CIF has been generated from an entry in the Cambridge 
# Structural Database, then it will include bibliographic, chemical, 
# crystal, experimental, refinement or atomic coordinate data resulting 
# from the CCDC's data processing and validation procedures.
#
#######################################################################

data_WAQVIV
_symmetry_cell_setting           orthorhombic
_symmetry_space_group_name_H-M   'P n n a'
_symmetry_Int_Tables_number      52
_space_group_name_Hall           '-P 2a 2bc'
loop_
_symmetry_equiv_pos_site_id
_symmetry_equiv_pos_as_xyz
1 x,y,z
2 1/2-x,-y,z
3 1/2-x,1/2+y,1/2-z
4 x,1/2-y,1/2-z
5 -x,-y,-z
6 1/2+x,y,-z
7 1/2+x,1/2-y,1/2+z
8 -x,1/2+y,1/2+z
_cell_length_a                   9.3105(3)
_cell_length_b                   26.8940(8)
_cell_length_c                   11.2146(3)
_cell_angle_alpha                90
_cell_angle_beta                 90
_cell_angle_gamma                90
_cell_volume                     2808.1
loop_
_atom_site_label
_atom_site_type_symbol
_atom_site_fract_x
_atom_site_fract_y
_atom_site_fract_z
C1 C 0.26101(19) 0.57940(6) 1.05932(17)
C2 C 0.1872(2) 0.62624(6) 1.10240(16)
C3 C 0.2312(2) 0.65004(8) 1.20620(18)
H1 H 0.3113 0.6384 1.2471
C4 C 0.1574(2) 0.69083(7) 1.24934(19)
H2 H 0.1886 0.7063 1.3189
C5 C 0.0376(2) 0.70903(6) 1.1903(2)
C6 C -0.0043(2) 0.68582(8) 1.0858(2)
H3 H -0.0835 0.6977 1.0441
C7 C 0.0701(2) 0.64516(7) 1.04262(19)
H4 H 0.0405 0.6303 0.9719
C8 C -0.0531(3) 0.7500 1.2500
C9 C -0.1488(4) 0.72275(13) 1.3431(5)
C10 C 0.1148(3) 0.58743(9) 0.7021(2)
H5 H 0.0968 0.6026 0.7751
C11 C 0.2125(2) 0.52329(8) 0.59447(17)
C12 C 0.0655(3) 0.61087(11) 0.5989(3)
H6 H 0.0148 0.6406 0.6035
C13 C 0.0931(4) 0.58938(12) 0.4915(2)
H7 H 0.0606 0.6044 0.4218
C14 C 0.1699(3) 0.54496(10) 0.4854(2)
C15 C 0.2116(5) 0.52089(12) 0.3767(2)
H8 H 0.1843 0.5348 0.3042
F1 F -0.2091(3) 0.68266(9) 1.2912(3)
F2 F -0.0737(4) 0.70811(7) 1.4363(3)
F3 F -0.2574(2) 0.75039(10) 1.3821(3)
H9 H 0.004(4) 0.4579(11) 0.928(2)
H10 H -0.028(3) 0.5102(8) 0.871(2)
Mg1 Mg 0.2500 0.5000 0.86196(7)
N1 N 0.18562(17) 0.54482(6) 0.70186(14)
O1 O 0.03175(14) 0.48075(5) 0.86564(11)
O2 O 0.20627(14) 0.55874(5) 0.96956(12)
O3 O 0.36702(15) 0.56443(5) 1.11571(14)
C1C C 0.26101(19) 0.92060(6) 1.44068(17)
C2C C 0.1872(2) 0.87376(6) 1.39760(16)
C3C C 0.2312(2) 0.84996(8) 1.29380(18)
H1C H 0.3113 0.8616 1.2529
C4C C 0.1574(2) 0.80917(7) 1.25066(19)
H2C H 0.1886 0.7937 1.1811
C5C C 0.0376(2) 0.79097(6) 1.3097(2)
C6C C -0.0043(2) 0.81418(8) 1.4142(2)
H3C H -0.0835 0.8023 1.4559
C7C C 0.0701(2) 0.85484(7) 1.45738(19)
H4C H 0.0405 0.8697 1.5281
C9C C -0.1488(4) 0.77725(13) 1.1569(5)
C10A C 0.3852(3) 0.41257(9) 0.7021(2)
H5A H 0.4032 0.3974 0.7751
C11A C 0.2875(2) 0.47671(8) 0.59447(17)
C12A C 0.4345(3) 0.38913(11) 0.5989(3)
H6A H 0.4852 0.3594 0.6035
C13A C 0.4069(4) 0.41062(12) 0.4915(2)
H7A H 0.4394 0.3956 0.4218
C14A C 0.3301(3) 0.45504(10) 0.4854(2)
C15A C 0.2884(5) 0.47911(12) 0.3767(2)
H8A H 0.3157 0.4652 0.3042
F1C F -0.2091(3) 0.81734(9) 1.2088(3)
F2C F -0.0737(4) 0.79189(7) 1.0637(3)
F3C F -0.2574(2) 0.74961(10) 1.1179(3)
H9A H 0.496(4) 0.5421(11) 0.928(2)
H10A H 0.528(3) 0.4898(8) 0.871(2)
Mg1B Mg 0.2500 1.0000 1.63804(7)
N1A N 0.31438(17) 0.45518(6) 0.70186(14)
O1A O 0.46825(14) 0.51925(5) 0.86564(11)
O2C O 0.20627(14) 0.94126(5) 1.53044(12)
O2A O 0.29373(14) 0.44126(5) 0.96956(12)
O3C O 0.36702(15) 0.93557(5) 1.38429(14)
loop_
_geom_bond_atom_site_label_1
_geom_bond_atom_site_label_2
_geom_bond_site_symmetry_1
_geom_bond_site_symmetry_2
C1 C2 1_555 1_555
C2 C3 1_555 1_555
C3 H1 1_555 1_555
C4 C3 1_555 1_555
H2 C4 1_555 1_555
C5 C4 1_555 1_555
C6 C5 1_555 1_555
H3 C6 1_555 1_555
C7 C2 1_555 1_555
H4 C7 1_555 1_555
C8 C5 1_555 1_555
C9 C8 1_555 1_555
C10 H5 1_555 1_555
C11 C14 1_555 1_555
C12 C10 1_555 1_555
H6 C12 1_555 1_555
C13 C12 1_555 1_555
H7 C13 1_555 1_555
C14 C13 1_555 1_555
C15 C14 1_555 1_555
H8 C15 1_555 1_555
F1 C9 1_555 1_555
F2 C9 1_555 1_555
F3 C9 1_555 1_555
H9 O1 1_555 1_555
H10 O1 1_555 1_555
Mg1 N1 1_555 1_555
N1 C10 1_555 1_555
O1 Mg1 1_555 1_555
O2 C1 1_555 1_555
O3 C1 1_555 1_555
C1C C2C 1_555 1_555
C2C C3C 1_555 1_555
C3C H1C 1_555 1_555
C4C C3C 1_555 1_555
H2C C4C 1_555 1_555
C5C C8 1_555 1_555
C6C C5C 1_555 1_555
H3C C6C 1_555 1_555
C7C C2C 1_555 1_555
H4C C7C 1_555 1_555
C9C C8 1_555 1_555
C10A H5A 1_555 1_555
C11A C11 1_555 1_555
C12A C10A 1_555 1_555
H6A C12A 1_555 1_555
C13A C12A 1_555 1_555
H7A C13A 1_555 1_555
C14A C11A 1_555 1_555
C15A C15 1_555 1_555
H8A C15A 1_555 1_555
F1C C9C 1_555 1_555
F2C C9C 1_555 1_555
F3C C9C 1_555 1_555
H9A O1A 1_555 1_555
H10A O1A 1_555 1_555
Mg1B O2C 1_555 1_555
N1A Mg1 1_555 1_555
O1A Mg1 1_555 1_555
O2C C1C 1_555 1_555
O2A Mg1 1_555 1_555
O3C C1C 1_555 1_555
C6 C7 1_555 1_555
C11 N1 1_555 1_555
Mg1 O2 1_555 1_555
C4C C5C 1_555 1_555
C6C C7C 1_555 1_555
C10A N1A 1_555 1_555
C11A N1A 1_555 1_555
C13A C14A 1_555 1_555
C14A C15A 1_555 1_555

#END
