
#######################################################################
#
#                 Cambridge Crystallographic Data Centre
#                                CCDC 
#
#######################################################################
#
# If this CIF has been generated from an entry in the Cambridge 
# Structural Database, then it will include bibliographic, chemical, 
# crystal, experimental, refinement or atomic coordinate data resulting 
# from the CCDC's data processing and validation procedures.
#
#######################################################################

data_WAQWIU
_symmetry_cell_setting           monoclinic
_symmetry_space_group_name_H-M   'C 2/c'
_symmetry_Int_Tables_number      15
_space_group_name_Hall           '-C 2yn'
loop_
_symmetry_equiv_pos_site_id
_symmetry_equiv_pos_as_xyz
1 x,y,z
2 1/2+x,1/2+y,z
3 x,-y,1/2+z
4 1/2+x,1/2-y,1/2+z
5 -x,-y,-z
6 1/2-x,1/2-y,-z
7 -x,y,1/2-z
8 1/2-x,1/2+y,1/2-z
_cell_length_a                   5.3450(10)
_cell_length_b                   23.998(5)
_cell_length_c                   12.474(2)
_cell_angle_alpha                90
_cell_angle_beta                 102.27(3)
_cell_angle_gamma                90
_cell_volume                     1563.48
loop_
_atom_site_label
_atom_site_type_symbol
_atom_site_fract_x
_atom_site_fract_y
_atom_site_fract_z
Pt1 Pt 0.2500 0.2500 0.0000
Ag1 Ag -0.5000 0.09550(5) -0.2500
N1 N 0.1376(17) 0.2401(3) 0.1455(6)
H1 H -0.0293(31) 0.2471(28) 0.1358(14)
H2 H 0.2241(96) 0.2637(20) 0.1948(17)
H3 H 0.169(12) 0.2053(9) 0.1691(29)
O1 O -0.5000 -0.0127(4) -0.2500
N2 N 0.1653(12) 0.1694(3) -0.0385(5)
C1 C -0.0579(15) 0.1572(3) -0.1137(6)
O2 O -0.1938(11) 0.1958(3) -0.1593(4)
N3 N -0.1284(12) 0.1037(3) -0.1380(5)
C2 C 0.0231(18) 0.0635(4) -0.0919(7)
H4 H -0.0248(18) 0.0269(4) -0.1098(7)
C3 C 0.2499(18) 0.0731(4) -0.0180(7)
H5 H 0.3564(18) 0.0440(4) 0.0129(7)
C4 C 0.3102(16) 0.1273(4) 0.0076(6)
H6 H 0.4588(16) 0.1351(4) 0.0593(6)
N1E N 0.3624(17) 0.2599(3) -0.1455(6)
H1E H 0.5293(31) 0.2529(28) -0.1358(14)
H2E H 0.2759(96) 0.2363(20) -0.1948(17)
H3E H 0.331(12) 0.2947(9) -0.1691(29)
N3F N -0.8716(12) 0.1037(3) -0.3620(5)
N2E N 0.3347(12) 0.3306(3) 0.0385(5)
C1E C 0.5579(15) 0.3428(3) 0.1137(6)
C4E C 0.1898(16) 0.3727(4) -0.0076(6)
O2E O 0.6938(11) 0.3042(3) 0.1593(4)
N3E N 0.6284(12) 0.3963(3) 0.1380(5)
C3E C 0.2501(18) 0.4269(4) 0.0180(7)
H6E H 0.0412(16) 0.3649(4) -0.0593(6)
Ag1C Ag 1.0000 0.40450(5) 0.2500
C2E C 0.4769(18) 0.4365(4) 0.0919(7)
H5E H 0.1436(18) 0.4560(4) -0.0129(7)
H4E H 0.5248(18) 0.4731(4) 0.1098(7)
N4 N 0.0000 0.1024(4) 0.2500
O3 O 0.0000 0.0543(6) 0.2500
O4 O 0.2031(14) 0.1298(4) 0.2738(7)
O4F O -0.2031(14) 0.1298(4) 0.2262(7)
loop_
_geom_bond_atom_site_label_1
_geom_bond_atom_site_label_2
_geom_bond_site_symmetry_1
_geom_bond_site_symmetry_2
Pt1 N1 1_555 1_555
Ag1 O1 1_555 1_555
N1 H1 1_555 1_555
H2 N1 1_555 1_555
H3 N1 1_555 1_555
N2 Pt1 1_555 1_555
C1 N2 1_555 1_555
O2 C1 1_555 1_555
N3 Ag1 1_555 1_555
C2 N3 1_555 1_555
H4 C2 1_555 1_555
C3 C2 1_555 1_555
H5 C3 1_555 1_555
C4 N2 1_555 1_555
H6 C4 1_555 1_555
N4 O3 1_555 1_555
O4 N4 1_555 1_555
N1E Pt1 1_555 1_555
H1E N1E 1_555 1_555
H2E N1E 1_555 1_555
H3E N1E 1_555 1_555
N3F Ag1 1_555 1_555
N2E Pt1 1_555 1_555
O4F N4 1_555 1_555
C1E N2E 1_555 1_555
C4E N2E 1_555 1_555
O2E C1E 1_555 1_555
N3E C1E 1_555 1_555
C3E C4E 1_555 1_555
H6E C4E 1_555 1_555
Ag1C N3E 1_555 1_555
C2E N3E 1_555 1_555
H5E C3E 1_555 1_555
H4E C2E 1_555 1_555
C1 N3 1_555 1_555
C3 C4 1_555 1_555
C3E C2E 1_555 1_555

#END
