
#######################################################################
#
#                 Cambridge Crystallographic Data Centre
#                                CCDC 
#
#######################################################################
#
# If this CIF has been generated from an entry in the Cambridge 
# Structural Database, then it will include bibliographic, chemical, 
# crystal, experimental, refinement or atomic coordinate data resulting 
# from the CCDC's data processing and validation procedures.
#
#######################################################################

data_WARCOI
_symmetry_cell_setting           monoclinic
_symmetry_space_group_name_H-M   'P 21/n'
_symmetry_Int_Tables_number      14
_space_group_name_Hall           '-P 2yn'
loop_
_symmetry_equiv_pos_site_id
_symmetry_equiv_pos_as_xyz
1 x,y,z
2 1/2-x,1/2+y,1/2-z
3 -x,-y,-z
4 1/2+x,1/2-y,1/2+z
_cell_length_a                   8.2771(3)
_cell_length_b                   20.8384(8)
_cell_length_c                   14.9980(4)
_cell_angle_alpha                90
_cell_angle_beta                 98.548(2)
_cell_angle_gamma                90
_cell_volume                     2558.14
loop_
_atom_site_label
_atom_site_type_symbol
_atom_site_fract_x
_atom_site_fract_y
_atom_site_fract_z
O8 O -0.0202(6) 0.4237(3) 0.6506(3)
H27 H 0.083(8) 0.431(3) 0.700(4)
H28 H -0.086(8) 0.439(3) 0.683(5)
O9 O -0.1132(5) 0.3964(2) 0.8828(3)
H29 H -0.148(9) 0.420(3) 0.849(4)
H30 H -0.154(8) 0.360(3) 0.866(4)
O10 O 1.209(3) -0.0378(11) 1.0028(16)
C13 C 1.086(3) -0.0133(17) 0.9996(12)
C14 C 1.056(2) 0.0582(7) 1.0123(9)
O10B O 0.791(3) 0.0378(11) 0.9972(16)
C13B C 0.914(3) 0.0133(17) 1.0004(12)
C14B C 0.944(2) -0.0582(7) 0.9877(9)
Cu1 Cu 0.57044(7) 0.22119(3) 0.78307(4)
Cu2 Cu 1.06290(7) 0.05273(3) 0.57158(4)
Cl1 Cl 0.82133(17) 0.25226(7) 0.87254(9)
Cl2 Cl 1.09055(17) 0.15840(7) 0.59461(9)
P1 P 0.85539(17) 0.03404(7) 0.72254(9)
P2 P 0.32859(16) 0.41371(7) 0.86324(8)
O1 O 0.7518(5) -0.02125(17) 0.7423(2)
O2 O 0.8624(4) 0.04408(17) 0.6227(2)
O3 O 1.0325(5) 0.0303(2) 0.7767(3)
O4 O 0.1950(4) 0.38219(19) 0.9097(3)
O5 O 0.4320(4) 0.45730(15) 0.9304(2)
O6 O 0.2643(4) 0.44655(17) 0.7762(2)
N1 N 0.6162(5) 0.1285(2) 0.7447(3)
N2 N 0.5997(6) 0.2473(2) 0.6554(3)
N3 N 0.4095(6) 0.2980(2) 0.7775(3)
N4 N 0.4319(6) 0.1805(2) 0.8697(3)
C1 C 0.5542(8) 0.1303(3) 0.6474(4)
H1 H 0.5818 0.0901 0.6192
H2 H 0.4349 0.1345 0.6382
C2 C 0.6260(9) 0.1844(3) 0.6053(4)
H3 H 0.5756 0.1880 0.5421
H4 H 0.7433 0.1770 0.6067
C3 C 0.4454(8) 0.2768(3) 0.6185(4)
H5 H 0.3600 0.2439 0.6085
H6 H 0.4550 0.2966 0.5602
C4 C 0.4001(8) 0.3254(3) 0.6800(4)
H7 H 0.2887 0.3403 0.6588
H8 H 0.4738 0.3623 0.6807
C5 C 0.2561(7) 0.2668(3) 0.7909(4)
H9 H 0.1726 0.2993 0.7965
H10 H 0.2168 0.2394 0.7390
C6 C 0.2861(7) 0.2282(3) 0.8727(4)
H11 H 0.1873 0.2039 0.8795
H12 H 0.3111 0.2566 0.9251
C7 C 0.3718(8) 0.1221(3) 0.8233(4)
H13 H 0.2915 0.1329 0.7707
H14 H 0.3175 0.0953 0.8638
C8 C 0.5095(8) 0.0858(3) 0.7941(5)
H15 H 0.4657 0.0506 0.7543
H16 H 0.5764 0.0670 0.8470
C9 C 0.7912(6) 0.1093(3) 0.7669(3)
H17 H 0.8183 0.1077 0.8327
H18 H 0.8574 0.1436 0.7459
C10 C 0.4644(6) 0.3489(2) 0.8465(3)
H19 H 0.5646 0.3679 0.8306
H20 H 0.4941 0.3273 0.9046
C11 C 0.7374(7) 0.2906(3) 0.6465(4)
H21 H 0.7333 0.3029 0.5838
H22 H 0.8396 0.2688 0.6669
H23 H 0.7297 0.3287 0.6828
C12 C 0.5175(7) 0.1688(3) 0.9620(4)
H24 H 0.4465 0.1449 0.9960
H25 H 0.5459 0.2095 0.9916
H26 H 0.6161 0.1443 0.9591
O7 O 1.2725(4) 0.0430(2) 0.5206(3)
H31 H 0.112(8) 0.401(3) 0.901(4)
H32 H 1.086(8) 0.004(3) 0.767(5)
H33 H 1.226(7) 0.010(3) 0.492(4)
H34 H 1.295(7) 0.081(3) 0.480(4)
Cu1C Cu 1.07044(7) 0.27881(3) 0.28307(4)
Cu2C Cu 0.56290(7) 0.44727(3) 1.07158(4)
Cu2A Cu 0.43710(7) 0.55273(3) 0.92842(4)
Cu2C_2 Cu 1.56290(7) 0.44727(3) 0.07158(4)
Cu2B Cu 0.93710(7) -0.05273(3) 0.42842(4)
Cl1C Cl 1.32133(17) 0.24774(7) 0.37254(9)
Cl2C Cl 0.59055(17) 0.34160(7) 1.09461(9)
P1C P 1.35539(17) 0.46596(7) 0.22254(9)
P2C P 0.82859(16) 0.08629(7) 0.36324(8)
O1C O 1.2518(5) 0.52125(17) 0.2423(2)
O2C O 1.3624(4) 0.45592(17) 0.1227(2)
O2C_2 O 0.3624(4) 0.45592(17) 1.1227(2)
O3C O 1.5325(5) 0.4697(2) 0.2767(3)
O4C O 0.6950(4) 0.11781(19) 0.4097(3)
O5C O 0.9320(4) 0.04270(15) 0.4304(2)
O5A O 1.0680(4) -0.04270(15) 0.5696(2)
O5B O 0.5680(4) 0.54270(15) 1.0696(2)
O6C O 0.7643(4) 0.05345(17) 0.2762(2)
N1C N 1.1162(5) 0.3715(2) 0.2447(3)
N2C N 1.0997(6) 0.2527(2) 0.1554(3)
N3C N 0.9095(6) 0.2020(2) 0.2775(3)
N4C N 0.9319(6) 0.3195(2) 0.3697(3)
C1C C 1.0542(8) 0.3697(3) 0.1474(4)
H1C H 1.0818 0.4099 0.1192
H2C H 0.9349 0.3655 0.1382
C2C C 1.1260(9) 0.3156(3) 0.1053(4)
H3C H 1.0756 0.3120 0.0421
H4C H 1.2433 0.3230 0.1067
C3C C 0.9454(8) 0.2232(3) 0.1185(4)
H5C H 0.8600 0.2561 0.1085
H6C H 0.9550 0.2034 0.0602
C4C C 0.9001(8) 0.1746(3) 0.1800(4)
H7C H 0.7887 0.1597 0.1588
H8C H 0.9738 0.1377 0.1807
C5C C 0.7561(7) 0.2332(3) 0.2909(4)
H9C H 0.6726 0.2007 0.2965
H10C H 0.7168 0.2606 0.2390
C6C C 0.7861(7) 0.2718(3) 0.3727(4)
H11C H 0.6873 0.2961 0.3795
H12C H 0.8111 0.2434 0.4251
C7C C 0.8718(8) 0.3779(3) 0.3233(4)
H13C H 0.7915 0.3671 0.2707
H14C H 0.8175 0.4047 0.3638
C8C C 1.0095(8) 0.4142(3) 0.2941(5)
H15C H 0.9657 0.4494 0.2543
H16C H 1.0764 0.4330 0.3470
C9C C 1.2912(6) 0.3907(3) 0.2669(3)
H17C H 1.3183 0.3923 0.3327
H18C H 1.3574 0.3564 0.2459
C10C C 0.9644(6) 0.1511(2) 0.3465(3)
H19C H 1.0646 0.1321 0.3306
H20C H 0.9941 0.1727 0.4046
C11C C 1.2374(7) 0.2094(3) 0.1465(4)
H21C H 1.2333 0.1971 0.0838
H22C H 1.3396 0.2312 0.1669
H23C H 1.2297 0.1713 0.1828
C12C C 1.0175(7) 0.3312(3) 0.4620(4)
H24C H 0.9465 0.3551 0.4960
H25C H 1.0459 0.2905 0.4916
H26C H 1.1161 0.3557 0.4591
O7C O 0.7725(4) 0.4570(2) 1.0206(3)
H31C H 0.612(8) 0.099(3) 0.401(4)
H32C H 1.586(8) 0.496(3) 0.267(5)
H33C H 0.726(7) 0.490(3) 0.992(4)
H34C H 0.795(7) 0.419(3) 0.980(4)
O11? O 0.5874(16) 0.0088(7) 1.0069(9)
loop_
_geom_bond_atom_site_label_1
_geom_bond_atom_site_label_2
_geom_bond_site_symmetry_1
_geom_bond_site_symmetry_2
Cu1 Cl1 1_555 1_555
Cu2 Cl2 1_555 1_555
P1 O1 1_555 1_555
P2 O4 1_555 1_555
O2 Cu2 1_555 1_555
O3 P1 1_555 1_555
O4 H31 1_555 1_555
O5 P2 1_555 1_555
O6 P2 1_555 1_555
N1 Cu1 1_555 1_555
N2 Cu1 1_555 1_555
N3 Cu1 1_555 1_555
N4 Cu1 1_555 1_555
C1 N1 1_555 1_555
H1 C1 1_555 1_555
H2 C1 1_555 1_555
C2 N2 1_555 1_555
H3 C2 1_555 1_555
H4 C2 1_555 1_555
C3 N2 1_555 1_555
H5 C3 1_555 1_555
H6 C3 1_555 1_555
C4 N3 1_555 1_555
H7 C4 1_555 1_555
H8 C4 1_555 1_555
C5 N3 1_555 1_555
H9 C5 1_555 1_555
H10 C5 1_555 1_555
C6 N4 1_555 1_555
H11 C6 1_555 1_555
H12 C6 1_555 1_555
C7 N4 1_555 1_555
H13 C7 1_555 1_555
H14 C7 1_555 1_555
C8 N1 1_555 1_555
H15 C8 1_555 1_555
H16 C8 1_555 1_555
C9 P1 1_555 1_555
H17 C9 1_555 1_555
H18 C9 1_555 1_555
C10 P2 1_555 1_555
H19 C10 1_555 1_555
H20 C10 1_555 1_555
C11 N2 1_555 1_555
H21 C11 1_555 1_555
H22 C11 1_555 1_555
H23 C11 1_555 1_555
C12 N4 1_555 1_555
H24 C12 1_555 1_555
H25 C12 1_555 1_555
H26 C12 1_555 1_555
O7 Cu2 1_555 1_555
O8 H27 1_555 1_555
O9 H29 1_555 1_555
O10 C13 1_555 1_555
C13 C14 1_555 1_555
C14 C13B 1_555 1_555
H28 O8 1_555 1_555
H30 O9 1_555 1_555
H32 O3 1_555 1_555
H33 O7 1_555 1_555
H34 O7 1_555 1_555
Cu1C Cl1C 1_555 1_555
Cu2C O5 1_555 1_555
Cu2A O5 1_555 1_555
Cu2C_2 O2C 1_555 1_555
Cu2B O5C 1_555 1_555
Cl2C Cu2C 1_555 1_555
P1C O1C 1_555 1_555
P2C O4C 1_555 1_555
O2C P1C 1_555 1_555
O2C_2 Cu2C 1_555 1_555
O3C P1C 1_555 1_555
O4C H31C 1_555 1_555
O5C Cu2 1_555 1_555
O5A Cu2 1_555 1_555
O5B Cu2C 1_555 1_555
O6C P2C 1_555 1_555
N1C Cu1C 1_555 1_555
N2C Cu1C 1_555 1_555
N3C Cu1C 1_555 1_555
N4C Cu1C 1_555 1_555
C1C N1C 1_555 1_555
H1C C1C 1_555 1_555
H2C C1C 1_555 1_555
C2C N2C 1_555 1_555
H3C C2C 1_555 1_555
H4C C2C 1_555 1_555
C3C N2C 1_555 1_555
H5C C3C 1_555 1_555
H6C C3C 1_555 1_555
C4C N3C 1_555 1_555
H7C C4C 1_555 1_555
H8C C4C 1_555 1_555
C5C N3C 1_555 1_555
H9C C5C 1_555 1_555
H10C C5C 1_555 1_555
C6C N4C 1_555 1_555
H11C C6C 1_555 1_555
H12C C6C 1_555 1_555
C7C N4C 1_555 1_555
H13C C7C 1_555 1_555
H14C C7C 1_555 1_555
C8C N1C 1_555 1_555
H15C C8C 1_555 1_555
H16C C8C 1_555 1_555
C9C P1C 1_555 1_555
H17C C9C 1_555 1_555
H18C C9C 1_555 1_555
C10C P2C 1_555 1_555
H19C C10C 1_555 1_555
H20C C10C 1_555 1_555
C11C N2C 1_555 1_555
H21C C11C 1_555 1_555
H22C C11C 1_555 1_555
H23C C11C 1_555 1_555
C12C N4C 1_555 1_555
H24C C12C 1_555 1_555
H25C C12C 1_555 1_555
H26C C12C 1_555 1_555
O7C Cu2C 1_555 1_555
O10B C13B 1_555 1_555
C13B C13 1_555 1_555
C14B C13 1_555 1_555
H32C O3C 1_555 1_555
H33C O7C 1_555 1_555
H34C O7C 1_555 1_555
P1 O2 1_555 1_555
N1 C9 1_555 1_555
N3 C10 1_555 1_555
C1 C2 1_555 1_555
C3 C4 1_555 1_555
C5 C6 1_555 1_555
C7 C8 1_555 1_555
Cu2A O5B 1_555 1_555
Cu2B O5A 1_555 1_555
P2C O5C 1_555 1_555
N1C C9C 1_555 1_555
N3C C10C 1_555 1_555
C1C C2C 1_555 1_555
C3C C4C 1_555 1_555
C5C C6C 1_555 1_555
C7C C8C 1_555 1_555
C13B C14B 1_555 1_555

#END
