
#######################################################################
#
#                 Cambridge Crystallographic Data Centre
#                                CCDC 
#
#######################################################################
#
# If this CIF has been generated from an entry in the Cambridge 
# Structural Database, then it will include bibliographic, chemical, 
# crystal, experimental, refinement or atomic coordinate data resulting 
# from the CCDC's data processing and validation procedures.
#
#######################################################################

data_WARFIF
_symmetry_cell_setting           orthorhombic
_symmetry_space_group_name_H-M   'P b c a'
_symmetry_Int_Tables_number      61
_space_group_name_Hall           '-P 2ac 2ab'
loop_
_symmetry_equiv_pos_site_id
_symmetry_equiv_pos_as_xyz
1 x,y,z
2 1/2-x,-y,1/2+z
3 1/2+x,1/2-y,-z
4 -x,1/2+y,1/2-z
5 -x,-y,-z
6 1/2+x,y,1/2-z
7 1/2-x,1/2+y,z
8 x,1/2-y,1/2+z
_cell_length_a                   7.8957(5)
_cell_length_b                   18.1502(12)
_cell_length_c                   20.8299(8)
_cell_angle_alpha                90
_cell_angle_beta                 90
_cell_angle_gamma                90
_cell_volume                     2985.1
loop_
_atom_site_label
_atom_site_type_symbol
_atom_site_fract_x
_atom_site_fract_y
_atom_site_fract_z
Pb1 Pb 0.24140(5) 0.48794(2) 0.459246(19)
O1 O 0.0443(10) 0.4156(5) 0.3865(4)
O2 O 0.0320(10) 0.0653(5) 0.0394(4)
O3 O 0.3497(14) 0.3494(6) 0.4747(5)
O4 O 0.4542(11) 0.4275(5) 0.5419(4)
O5 O 0.548(2) 0.3158(7) 0.5409(6)
O6 O 0.4406(12) 0.4620(6) 0.3601(4)
O7 O 0.2909(12) 0.5586(6) 0.3397(5)
O8 O 0.5364(15) 0.5460(7) 0.2948(5)
O9 O 0.2741(12) 0.5798(6) 0.5629(5)
H1 H 0.1863 0.5911 0.5843
H2 H 0.3527 0.5700 0.5894
N1 N 0.0764(12) 0.3677(6) 0.3387(5)
N2 N 0.0576(12) 0.1152(5) 0.0856(5)
N3 N 0.4487(17) 0.3609(7) 0.5199(6)
N4 N 0.4219(15) 0.5233(7) 0.3307(5)
C1 C 0.0772(19) 0.2953(8) 0.3504(7)
H3 H 0.0694 0.2787 0.3925
C2 C 0.0991(17) 0.3915(7) 0.2787(6)
H4 H 0.1056 0.4418 0.2708
C3 C 0.089(2) 0.2447(8) 0.3012(7)
H5 H 0.0893 0.1946 0.3105
C4 C 0.1130(18) 0.3432(7) 0.2287(6)
H6 H 0.1305 0.3615 0.1875
C5 C 0.1018(16) 0.2681(6) 0.2376(6)
C6 C 0.0986(15) 0.2155(7) 0.1841(5)
C7 C 0.1443(18) 0.1430(7) 0.1903(6)
H7 H 0.1904 0.1268 0.2289
C8 C 0.0301(19) 0.2350(7) 0.1238(7)
H8 H -0.0039 0.2834 0.1168
C9 C 0.1242(18) 0.0944(8) 0.1419(6)
H9 H 0.1572 0.0456 0.1477
C10 C 0.0128(18) 0.1843(8) 0.0756(6)
H10 H -0.0304 0.1986 0.0359
Pb1G Pb 0.24140(5) 0.01206(2) -0.040754(19)
Pb1C Pb -0.24140(5) -0.01206(2) 0.040754(19)
O2G O 0.0320(10) 0.4347(5) 0.5394(4)
O2C O -0.0320(10) 0.5653(5) 0.4606(4)
loop_
_geom_bond_atom_site_label_1
_geom_bond_atom_site_label_2
_geom_bond_site_symmetry_1
_geom_bond_site_symmetry_2
Pb1 O1 1_555 1_555
O1 N1 1_555 1_555
O2 N2 1_555 1_555
O3 Pb1 1_555 1_555
O4 Pb1 1_555 1_555
O5 N3 1_555 1_555
O6 Pb1 1_555 1_555
O7 Pb1 1_555 1_555
O8 N4 1_555 1_555
O9 Pb1 1_555 1_555
H1 O9 1_555 1_555
H2 O9 1_555 1_555
N1 C1 1_555 1_555
N2 C9 1_555 1_555
N3 O3 1_555 1_555
N4 O6 1_555 1_555
C1 H3 1_555 1_555
C2 N1 1_555 1_555
H4 C2 1_555 1_555
C3 C1 1_555 1_555
H5 C3 1_555 1_555
C4 C2 1_555 1_555
H6 C4 1_555 1_555
C5 C3 1_555 1_555
C6 C5 1_555 1_555
C7 C6 1_555 1_555
H7 C7 1_555 1_555
C8 C6 1_555 1_555
H8 C8 1_555 1_555
C9 C7 1_555 1_555
H9 C9 1_555 1_555
C10 N2 1_555 1_555
H10 C10 1_555 1_555
Pb1G O2 1_555 1_555
Pb1C O2 1_555 1_555
O2G Pb1 1_555 1_555
O2C Pb1 1_555 1_555
O4 N3 1_555 1_555
O7 N4 1_555 1_555
C4 C5 1_555 1_555
C8 C10 1_555 1_555

#END
