
#######################################################################
#
#                 Cambridge Crystallographic Data Centre
#                                CCDC 
#
#######################################################################
#
# If this CIF has been generated from an entry in the Cambridge 
# Structural Database, then it will include bibliographic, chemical, 
# crystal, experimental, refinement or atomic coordinate data resulting 
# from the CCDC's data processing and validation procedures.
#
#######################################################################

data_WARJUU
_symmetry_cell_setting           monoclinic
_symmetry_space_group_name_H-M   'P 21/a'
_symmetry_Int_Tables_number      14
_space_group_name_Hall           '-P 2yab'
loop_
_symmetry_equiv_pos_site_id
_symmetry_equiv_pos_as_xyz
1 x,y,z
2 1/2-x,1/2+y,-z
3 -x,-y,-z
4 1/2+x,1/2-y,z
_cell_length_a                   15.515(5)
_cell_length_b                   9.338(5)
_cell_length_c                   12.660(2)
_cell_angle_alpha                90
_cell_angle_beta                 95.33(2)
_cell_angle_gamma                90
_cell_volume                     1826.24
loop_
_atom_site_label
_atom_site_type_symbol
_atom_site_fract_x
_atom_site_fract_y
_atom_site_fract_z
Cu1 Cu 0.1114(1) 0.1477(1) 0.0234(1)
O1 O 0.1107(3) 0.1255(6) 0.1745(4)
O2 O 0.1459(4) 0.0928(7) 0.3751(4)
N1 N 0.2943(4) -0.1812(7) -0.0374(5)
N2 N 0.1956(4) -0.0127(7) -0.0052(5)
N3 N 0.0839(4) 0.1372(8) -0.1321(5)
N4 N 0.0001(5) 0.2491(8) 0.0043(5)
C1 C 0.2587(6) -0.0973(8) 0.0365(6)
C2 C 0.2493(5) -0.1457(10) -0.1311(6)
C3 C 0.1895(5) -0.0416(9) -0.1136(6)
C4 C 0.1258(5) 0.0376(10) -0.1779(6)
C5 C 0.0163(6) 0.2272(13) -0.1754(6)
C6 C -0.0130(5) 0.2185(10) -0.2889(6)
C7 C -0.0887(6) 0.3066(13) -0.3185(6)
C8 C -0.1398(6) 0.3433(16) -0.2517(7)
C9 C -0.1098(5) 0.3546(10) -0.1353(6)
C10 C -0.0366(6) 0.2520(13) -0.1096(6)
C11 C -0.0419(5) 0.2922(9) 0.0849(6)
C12 C -0.0144(5) 0.2739(10) 0.1953(6)
C13 C -0.0666(6) 0.3362(12) 0.2657(6)
C14 C -0.0479(6) 0.3214(12) 0.3704(6)
C15 C 0.0236(7) 0.2425(12) 0.4093(6)
C16 C 0.0754(5) 0.1757(10) 0.3438(6)
C17 C 0.0582(5) 0.1901(9) 0.2331(6)
C18 C 0.1632(6) 0.0606(11) 0.4825(8)
C19 C 0.2360(7) -0.0403(12) 0.4960(9)
H1 H 0.282(4) -0.106(6) 0.122(4)
H2 H 0.266(4) -0.198(7) -0.207(4)
H3 H 0.105(4) 0.024(7) -0.255(5)
H4 H -0.038(4) 0.129(7) -0.297(4)
H5 H 0.021(3) 0.239(6) -0.316(4)
H6 H -0.101(3) 0.330(7) -0.373(4)
H7 H -0.182(4) 0.350(8) -0.274(5)
H8 H -0.147(3) 0.332(6) -0.106(4)
H9 H -0.085(4) 0.436(6) -0.135(5)
H10 H -0.093(4) 0.352(7) 0.071(5)
H11 H -0.124(4) 0.400(6) 0.237(5)
H12 H -0.088(4) 0.366(7) 0.413(5)
H13 H 0.051(4) 0.237(8) 0.486(5)
H14 H 0.125(4) 0.009(7) 0.497(5)
H15 H 0.185(4) 0.161(7) 0.525(5)
H16 H 0.257(5) -0.069(8) 0.570(5)
H17 H 0.217(4) -0.139(7) 0.435(5)
H18 H 0.278(4) -0.008(8) 0.467(5)
N1A N 0.2057(4) 0.3188(7) 0.0374(5)
Cu1A Cu 0.3886(1) -0.3523(1) -0.0234(1)
loop_
_geom_bond_atom_site_label_1
_geom_bond_atom_site_label_2
_geom_bond_site_symmetry_1
_geom_bond_site_symmetry_2
Cu1 O1 1_555 1_555
O1 C17 1_555 1_555
O2 C16 1_555 1_555
N1 C1 1_555 1_555
N2 Cu1 1_555 1_555
N3 Cu1 1_555 1_555
N4 Cu1 1_555 1_555
C1 N2 1_555 1_555
C2 N1 1_555 1_555
C3 N2 1_555 1_555
C4 N3 1_555 1_555
C5 N3 1_555 1_555
C6 C5 1_555 1_555
C7 C6 1_555 1_555
C8 C7 1_555 1_555
C9 C8 1_555 1_555
C10 N4 1_555 1_555
C11 N4 1_555 1_555
C12 C11 1_555 1_555
C13 C12 1_555 1_555
C14 C13 1_555 1_555
C15 C14 1_555 1_555
C16 C15 1_555 1_555
C17 C12 1_555 1_555
C18 O2 1_555 1_555
C19 C18 1_555 1_555
H1 C1 1_555 1_555
H2 C2 1_555 1_555
H3 C4 1_555 1_555
H4 C6 1_555 1_555
H5 C6 1_555 1_555
H6 C7 1_555 1_555
H7 C8 1_555 1_555
H8 C9 1_555 1_555
H9 C9 1_555 1_555
H10 C11 1_555 1_555
H11 C13 1_555 1_555
H12 C14 1_555 1_555
H13 C15 1_555 1_555
H14 C18 1_555 1_555
H15 C18 1_555 1_555
H16 C19 1_555 1_555
H17 C19 1_555 1_555
H18 C19 1_555 1_555
N1A Cu1 1_555 1_555
Cu1A N1 1_555 1_555
C2 C3 1_555 1_555
C3 C4 1_555 1_555
C5 C10 1_555 1_555
C9 C10 1_555 1_555
C16 C17 1_555 1_555

#END
