
#######################################################################
#
#                 Cambridge Crystallographic Data Centre
#                                CCDC 
#
#######################################################################
#
# If this CIF has been generated from an entry in the Cambridge 
# Structural Database, then it will include bibliographic, chemical, 
# crystal, experimental, refinement or atomic coordinate data resulting 
# from the CCDC's data processing and validation procedures.
#
#######################################################################

data_WARLIL
_symmetry_cell_setting           orthorhombic
_symmetry_space_group_name_H-M   'P b c a'
_symmetry_Int_Tables_number      61
_space_group_name_Hall           '-P 2ac 2ab'
loop_
_symmetry_equiv_pos_site_id
_symmetry_equiv_pos_as_xyz
1 x,y,z
2 1/2-x,-y,1/2+z
3 1/2+x,1/2-y,-z
4 -x,1/2+y,1/2-z
5 -x,-y,-z
6 1/2+x,y,1/2-z
7 1/2-x,1/2+y,z
8 x,1/2-y,1/2+z
_cell_length_a                   8.521(3)
_cell_length_b                   10.154(3)
_cell_length_c                   28.804(8)
_cell_angle_alpha                90
_cell_angle_beta                 90
_cell_angle_gamma                90
_cell_volume                     2492.19
loop_
_atom_site_label
_atom_site_type_symbol
_atom_site_fract_x
_atom_site_fract_y
_atom_site_fract_z
Cd1 Cd 0.07774(4) 0.04803(4) 0.182877(12)
O1 O -0.1547(4) 0.0758(4) 0.22147(12)
O2 O -0.3637(4) 0.1836(4) 0.24692(12)
O3 O 0.0949(4) 0.2531(3) 0.14921(12)
O4 O -0.0668(4) 0.4209(4) 0.13609(13)
H1 H -0.0987 0.4491 0.1618
O5 O 0.1684(4) -0.1040(3) 0.12105(12)
O6 O 0.0940(5) -0.1360(4) 0.22816(14)
O7 O 0.3438(5) 0.0564(4) 0.18520(15)
N1 N -0.1181(5) 0.0690(4) 0.12277(14)
H2 H -0.1990 0.0091 0.1276
C1 C -0.2687(5) 0.1532(5) 0.21495(17)
C2 C -0.2995(6) 0.2155(5) 0.16835(17)
H3 H -0.3203 0.3102 0.1737
H4 H -0.3975 0.1766 0.1560
C3 C -0.1752(6) 0.2057(5) 0.13013(17)
H5 H -0.2264 0.2342 0.1006
C4 C -0.0382(6) 0.3017(5) 0.13916(17)
C5 C -0.0534(6) 0.0537(5) 0.07545(17)
H6 H 0.0481 0.1008 0.0734
H7 H -0.1262 0.0940 0.0528
C6 C -0.0292(6) -0.0884(5) 0.06339(17)
C7 C -0.1149(6) -0.1490(6) 0.02809(17)
H8 H -0.1887 -0.0983 0.0110
C8 C -0.0958(6) -0.2802(5) 0.01729(18)
H9 H -0.1537 -0.3184 -0.0075
C9 C 0.0090(6) -0.3565(5) 0.04288(18)
H10 H 0.0198 -0.4479 0.0365
C10 C 0.0972(6) -0.2986(5) 0.07771(18)
H11 H 0.1692 -0.3503 0.0951
C11 C 0.0807(6) -0.1654(5) 0.08730(16)
H12 H 0.397(10) 0.032(9) 0.172(3)
H13 H 0.371(8) 0.060(7) 0.217(3)
H14 H 0.158(9) -0.179(8) 0.225(3)
H15 H 0.006(10) -0.199(9) 0.232(3)
Cd1E Cd -0.42226(4) 0.04803(4) 0.317123(12)
O2E O 0.1363(4) 0.1836(4) 0.25308(12)
loop_
_geom_bond_atom_site_label_1
_geom_bond_atom_site_label_2
_geom_bond_site_symmetry_1
_geom_bond_site_symmetry_2
Cd1 O1 1_555 1_555
O1 C1 1_555 1_555
O2 C1 1_555 1_555
O3 Cd1 1_555 1_555
O4 H1 1_555 1_555
O5 Cd1 1_555 1_555
O6 Cd1 1_555 1_555
O7 Cd1 1_555 1_555
N1 Cd1 1_555 1_555
H2 N1 1_555 1_555
C1 C2 1_555 1_555
C2 H3 1_555 1_555
H4 C2 1_555 1_555
C3 N1 1_555 1_555
H5 C3 1_555 1_555
C4 O3 1_555 1_555
C5 N1 1_555 1_555
H6 C5 1_555 1_555
H7 C5 1_555 1_555
C6 C5 1_555 1_555
C7 C6 1_555 1_555
H8 C7 1_555 1_555
C8 C7 1_555 1_555
H9 C8 1_555 1_555
C9 C8 1_555 1_555
H10 C9 1_555 1_555
C10 C9 1_555 1_555
H11 C10 1_555 1_555
C11 O5 1_555 1_555
H12 O7 1_555 1_555
H13 O7 1_555 1_555
H14 O6 1_555 1_555
H15 O6 1_555 1_555
Cd1E O2 1_555 1_555
O2E Cd1 1_555 1_555
O4 C4 1_555 1_555
C2 C3 1_555 1_555
C3 C4 1_555 1_555
C6 C11 1_555 1_555
C10 C11 1_555 1_555

#END
