
#######################################################################
#
#                 Cambridge Crystallographic Data Centre
#                                CCDC 
#
#######################################################################
#
# If this CIF has been generated from an entry in the Cambridge 
# Structural Database, then it will include bibliographic, chemical, 
# crystal, experimental, refinement or atomic coordinate data resulting 
# from the CCDC's data processing and validation procedures.
#
#######################################################################

data_WARNUZ
_symmetry_cell_setting           orthorhombic
_symmetry_space_group_name_H-M   'F d d 2'
_symmetry_Int_Tables_number      43
_space_group_name_Hall           'F 2 -2d'
loop_
_symmetry_equiv_pos_site_id
_symmetry_equiv_pos_as_xyz
1 x,y,z
2 -x,-y,z
3 1/4+x,1/4-y,1/4+z
4 1/4-x,1/4+y,1/4+z
5 x,1/2+y,1/2+z
6 -x,1/2-y,1/2+z
7 1/4+x,3/4-y,3/4+z
8 1/4-x,3/4+y,3/4+z
9 1/2+x,y,1/2+z
10 1/2-x,-y,1/2+z
11 3/4+x,1/4-y,3/4+z
12 3/4-x,1/4+y,3/4+z
13 1/2+x,1/2+y,z
14 1/2-x,1/2-y,z
15 3/4+x,3/4-y,1/4+z
16 3/4-x,3/4+y,1/4+z
_cell_length_a                   17.2481(12)
_cell_length_b                   26.2681(19)
_cell_length_c                   11.0818(8)
_cell_angle_alpha                90
_cell_angle_beta                 90
_cell_angle_gamma                90
_cell_volume                     5020.88
loop_
_atom_site_label
_atom_site_type_symbol
_atom_site_fract_x
_atom_site_fract_y
_atom_site_fract_z
Cu1 Cu 0.5000 0.0000 -0.00539(3)
V1 V 0.27148(2) 0.112710(15) -0.21579(4)
P1 P 0.35919(3) 0.08060(2) 0.02815(6)
O1 O 0.39812(10) 0.03203(7) -0.00836(17)
O2 O 0.29144(11) 0.09354(7) -0.05672(17)
O3 O 0.41481(10) 0.12695(6) 0.02868(19)
O4 O 0.56370(11) 0.08384(7) -0.00012(18)
O5 O 0.29862(13) 0.07034(7) -0.31146(18)
N1 N 0.5000 0.0000 0.1766(3)
N2 N 0.5000 0.0000 0.8133(3)
C1 C 0.55609(14) 0.02430(9) 0.2384(2)
H1 H 0.5964 0.0408 0.1949
C2 C 0.55697(16) 0.02601(10) 0.3630(2)
H2 H 0.5960 0.0447 0.4042
C3 C 0.5000 0.0000 0.4277(3)
C4 C 0.5000 0.0000 0.5613(3)
C5 C 0.49381(17) 0.04530(10) 0.6257(2)
H3 H 0.4900 0.0769 0.5846
C6 C 0.49328(16) 0.04351(10) 0.7510(2)
H4 H 0.4879 0.0745 0.7944
C7 C 0.31801(15) 0.07583(10) 0.1760(2)
C8 C 0.35864(15) 0.09304(10) 0.2773(3)
H5 H 0.4070 0.1099 0.2678
C9 C 0.32803(18) 0.08539(11) 0.3925(2)
H6 H 0.3556 0.0969 0.4615
C10 C 0.25710(18) 0.06086(11) 0.4059(3)
H7 H 0.2362 0.0557 0.4843
C11 C 0.21679(19) 0.04393(12) 0.3060(2)
H8 H 0.1682 0.0274 0.3159
C12 C 0.24711(17) 0.05102(12) 0.1906(3)
H9 H 0.2196 0.0390 0.1221
Cu1_2 Cu 0.5000 0.0000 0.99461(3)
V1A V 0.72852(2) -0.112710(15) -0.21579(4)
V1B V 0.52148(2) 0.137290(15) 0.03421(4)
V1O V 0.47852(2) -0.137290(15) 0.03421(4)
P1A P 0.64081(3) -0.08060(2) 0.02815(6)
O1A O 0.60188(10) -0.03203(7) -0.00836(17)
O2A O 0.70856(11) -0.09354(7) -0.05672(17)
O3A O 0.58519(10) -0.12695(6) 0.02868(19)
O3J O 0.16481(10) 0.12305(6) -0.22132(19)
O3G O 0.83519(10) -0.12305(6) -0.22132(19)
O4A O 0.43630(11) -0.08384(7) -0.00012(18)
O4J O 0.31370(11) 0.16616(7) -0.25012(18)
O4G O 0.68630(11) -0.16616(7) -0.25012(18)
O5A O 0.70138(13) -0.07034(7) -0.31146(18)
N2_2 N 0.5000 0.0000 -0.1867(3)
C1A C 0.44391(14) -0.02430(9) 0.2384(2)
H1A H 0.4036 -0.0408 0.1949
C2A C 0.44303(16) -0.02601(10) 0.3630(2)
H2A H 0.4040 -0.0447 0.4042
C5A C 0.50619(17) -0.04530(10) 0.6257(2)
H3A H 0.5100 -0.0769 0.5846
C6A C 0.50672(16) -0.04351(10) 0.7510(2)
H4A H 0.5121 -0.0745 0.7944
C7A C 0.68199(15) -0.07583(10) 0.1760(2)
C8A C 0.64136(15) -0.09304(10) 0.2773(3)
H5A H 0.5930 -0.1099 0.2678
C9A C 0.67197(18) -0.08539(11) 0.3925(2)
H6A H 0.6444 -0.0969 0.4615
C10A C 0.74290(18) -0.06086(11) 0.4059(3)
H7A H 0.7638 -0.0557 0.4843
C11A C 0.78321(19) -0.04393(12) 0.3060(2)
H8A H 0.8318 -0.0274 0.3159
C12A C 0.75289(17) -0.05102(12) 0.1906(3)
H9A H 0.7804 -0.0390 0.1221
loop_
_geom_bond_atom_site_label_1
_geom_bond_atom_site_label_2
_geom_bond_site_symmetry_1
_geom_bond_site_symmetry_2
Cu1 O1 1_555 1_555
V1 O2 1_555 1_555
P1 O1 1_555 1_555
O2 P1 1_555 1_555
O3 P1 1_555 1_555
O4 Cu1 1_555 1_555
O5 V1 1_555 1_555
N1 Cu1 1_555 1_555
N2 C6 1_555 1_555
C1 N1 1_555 1_555
H1 C1 1_555 1_555
C2 C1 1_555 1_555
H2 C2 1_555 1_555
C3 C2 1_555 1_555
C4 C3 1_555 1_555
C5 C4 1_555 1_555
H3 C5 1_555 1_555
C6 C5 1_555 1_555
H4 C6 1_555 1_555
C7 P1 1_555 1_555
C8 C7 1_555 1_555
H5 C8 1_555 1_555
C9 C8 1_555 1_555
H6 C9 1_555 1_555
C10 C9 1_555 1_555
H7 C10 1_555 1_555
C11 C10 1_555 1_555
H8 C11 1_555 1_555
C12 C7 1_555 1_555
H9 C12 1_555 1_555
Cu1_2 N2 1_555 1_555
V1A O2A 1_555 1_555
V1B O3 1_555 1_555
V1O O3A 1_555 1_555
P1A O1A 1_555 1_555
O1A Cu1 1_555 1_555
O2A P1A 1_555 1_555
O3A P1A 1_555 1_555
O3J V1 1_555 1_555
O3G V1A 1_555 1_555
O4A Cu1 1_555 1_555
O4J V1 1_555 1_555
O4G V1A 1_555 1_555
O5A V1A 1_555 1_555
N2_2 Cu1 1_555 1_555
C1A N1 1_555 1_555
H1A C1A 1_555 1_555
C2A C3 1_555 1_555
H2A C2A 1_555 1_555
C5A C4 1_555 1_555
H3A C5A 1_555 1_555
C6A N2 1_555 1_555
H4A C6A 1_555 1_555
C7A P1A 1_555 1_555
C8A C7A 1_555 1_555
H5A C8A 1_555 1_555
C9A C8A 1_555 1_555
H6A C9A 1_555 1_555
C10A C9A 1_555 1_555
H7A C10A 1_555 1_555
C11A C10A 1_555 1_555
H8A C11A 1_555 1_555
C12A C7A 1_555 1_555
H9A C12A 1_555 1_555
O4 V1B 1_555 1_555
C11 C12 1_555 1_555
V1O O4A 1_555 1_555
C1A C2A 1_555 1_555
C5A C6A 1_555 1_555
C11A C12A 1_555 1_555

#END
