
#######################################################################
#
#                 Cambridge Crystallographic Data Centre
#                                CCDC 
#
#######################################################################
#
# If this CIF has been generated from an entry in the Cambridge 
# Structural Database, then it will include bibliographic, chemical, 
# crystal, experimental, refinement or atomic coordinate data resulting 
# from the CCDC's data processing and validation procedures.
#
#######################################################################

data_WARNOT
_symmetry_cell_setting           monoclinic
_symmetry_space_group_name_H-M   'P 21/c'
_symmetry_Int_Tables_number      14
_space_group_name_Hall           '-P 2ybc'
loop_
_symmetry_equiv_pos_site_id
_symmetry_equiv_pos_as_xyz
1 x,y,z
2 -x,1/2+y,1/2-z
3 -x,-y,-z
4 x,1/2-y,1/2+z
_cell_length_a                   13.4837(13)
_cell_length_b                   13.7172(13)
_cell_length_c                   18.9414(18)
_cell_angle_alpha                90
_cell_angle_beta                 87.155(3)
_cell_angle_gamma                90
_cell_volume                     3499.06
loop_
_atom_site_label
_atom_site_type_symbol
_atom_site_fract_x
_atom_site_fract_y
_atom_site_fract_z
Cu1 Cu -0.038000(8) 0.405740(8) 0.270890(6)
Cu2 Cu -0.036900(8) 0.409941(8) 0.044128(6)
V1 V -0.026880(11) 0.666500(11) 0.462340(8)
P1 P 0.079590(16) 0.470660(16) 0.402720(11)
P2 P -0.106471(17) 0.665047(17) 0.071370(12)
P3 P 0.107051(17) 0.325658(17) 0.147362(12)
O1 O 0.03650(5) 0.39061(5) 0.35699(3)
O2 O 0.01902(5) 0.56311(4) 0.39590(3)
O3 O 0.08560(5) 0.43671(5) 0.47880(3)
O4 O 0.07671(5) 0.70531(5) 0.48750(4)
O5 O -0.11981(5) 0.74549(5) 0.01810(3)
O6 O -0.05300(5) 0.70510(5) 0.13751(3)
O7 O -0.04832(5) 0.57700(5) 0.04360(3)
O8 O 0.08040(5) 0.40752(5) 0.09781(4)
O9 O 0.07559(5) 0.34620(5) 0.22360(3)
O10 O 0.06689(5) 0.22700(5) 0.12400(3)
O11 O -0.01578(7) 0.56759(6) 0.25510(4)
N1 N -0.17221(6) 0.41011(6) 0.32982(4)
N2 N -0.13327(6) 0.39448(6) 0.19550(4)
N3 N -0.13142(6) 0.38659(6) 0.12409(4)
N4 N -0.16301(6) 0.39078(5) -0.00929(4)
N5 N -0.29003(6) 0.36988(6) 0.16353(5)
C1 C -0.18622(8) 0.42388(8) 0.39969(5)
H1 H -0.1307 0.4325 0.4262
C2 C -0.27855(8) 0.42599(10) 0.43430(5)
H2 H -0.2854 0.4368 0.4828
C3 C -0.36071(8) 0.41145(10) 0.39459(6)
H3 H -0.4241 0.4133 0.4162
C4 C -0.34842(8) 0.39414(9) 0.32273(6)
H4 H -0.4027 0.3821 0.2956
C5 C -0.25321(7) 0.39530(7) 0.29240(5)
C6 C -0.22922(7) 0.38330(7) 0.21647(5)
C7 C -0.22530(7) 0.37248(7) 0.10761(5)
C8 C -0.24434(7) 0.36780(7) 0.03249(5)
C9 C -0.33299(7) 0.34285(8) 0.00449(6)
H5 H -0.3878 0.3275 0.0341
C10 C -0.34009(7) 0.34079(8) -0.06772(6)
H6 H -0.3991 0.3227 -0.0875
C11 C -0.25788(7) 0.36609(8) -0.11018(5)
H7 H -0.2614 0.3668 -0.1591
C12 C -0.17085(7) 0.39018(6) -0.07970(5)
H8 H -0.1157 0.4066 -0.1087
C13 C 0.20460(7) 0.49760(7) 0.37390(5)
C14 C 0.23549(8) 0.58869(7) 0.34901(6)
H9 H 0.1885 0.6375 0.3441
C15 C 0.33383(10) 0.60853(10) 0.33150(8)
H10 H 0.3532 0.6705 0.3165
C16 C 0.40252(9) 0.53609(11) 0.33650(9)
H11 H 0.4688 0.5487 0.3240
C17 C 0.37456(9) 0.44370(10) 0.36006(9)
H12 H 0.4218 0.3947 0.3633
C18 C 0.27737(8) 0.42543(9) 0.37830(7)
H13 H 0.2589 0.3635 0.3941
C19 C -0.22859(7) 0.63120(7) 0.10408(5)
C20 C -0.25790(8) 0.64370(8) 0.17578(6)
H14 H -0.2122 0.6647 0.2077
C21 C -0.35423(9) 0.62482(10) 0.19857(7)
H15 H -0.3736 0.6337 0.2460
C22 C -0.42259(10) 0.59290(10) 0.15204(8)
H16 H -0.4875 0.5799 0.1681
C23 C -0.39459(9) 0.58020(9) 0.08151(7)
H17 H -0.4406 0.5580 0.0502
C24 C -0.29702(8) 0.60068(7) 0.05709(6)
H18 H -0.2785 0.5937 0.0094
C25 C 0.24080(6) 0.31399(7) 0.14560(5)
C26 C 0.29650(8) 0.37792(9) 0.18265(7)
H19 H 0.2649 0.4270 0.2092
C27 C 0.39990(9) 0.37069(11) 0.18130(9)
H20 H 0.4366 0.4138 0.2075
C28 C 0.44715(9) 0.29970(13) 0.14120(7)
H21 H 0.5161 0.2956 0.1392
C29 C 0.39294(12) 0.23532(15) 0.10444(7)
H22 H 0.4249 0.1861 0.0783
C30 C 0.28955(9) 0.24277(11) 0.10579(6)
H23 H 0.2532 0.1993 0.0796
Cu2B Cu 0.036900(8) 0.590059(8) -0.044128(6)
V1C V -0.026880(11) 0.833500(11) -0.037660(8)
V1A V 0.026880(11) 0.166500(11) 0.037660(8)
V1B V 0.026880(11) 0.333500(11) 0.537660(8)
O3B O -0.08560(5) 0.56329(5) 0.52120(3)
O5C O -0.11981(5) 0.75451(5) 0.51810(3)
O7B O 0.04832(5) 0.42300(5) -0.04360(3)
O10A O -0.06689(5) 0.72700(5) 0.37600(3)
loop_
_geom_bond_atom_site_label_1
_geom_bond_atom_site_label_2
_geom_bond_site_symmetry_1
_geom_bond_site_symmetry_2
Cu1 O1 1_555 1_555
Cu2 O7 1_555 1_555
V1 O2 1_555 1_555
P1 O1 1_555 1_555
P2 O5 1_555 1_555
P3 O8 1_555 1_555
O2 P1 1_555 1_555
O3 P1 1_555 1_555
O4 V1 1_555 1_555
O5 V1C 1_555 1_555
O6 P2 1_555 1_555
O7 P2 1_555 1_555
O8 Cu2 1_555 1_555
O9 Cu1 1_555 1_555
O10 P3 1_555 1_555
O11 Cu1 1_555 1_555
N1 Cu1 1_555 1_555
N2 Cu1 1_555 1_555
N3 Cu2 1_555 1_555
N4 Cu2 1_555 1_555
N5 C6 1_555 1_555
C1 N1 1_555 1_555
H1 C1 1_555 1_555
C2 C1 1_555 1_555
H2 C2 1_555 1_555
C3 C2 1_555 1_555
H3 C3 1_555 1_555
C4 C3 1_555 1_555
H4 C4 1_555 1_555
C5 N1 1_555 1_555
C6 N2 1_555 1_555
C7 N3 1_555 1_555
C8 N4 1_555 1_555
C9 C8 1_555 1_555
H5 C9 1_555 1_555
C10 C9 1_555 1_555
H6 C10 1_555 1_555
C11 C10 1_555 1_555
H7 C11 1_555 1_555
C12 N4 1_555 1_555
H8 C12 1_555 1_555
C13 P1 1_555 1_555
C14 C13 1_555 1_555
H9 C14 1_555 1_555
C15 C14 1_555 1_555
H10 C15 1_555 1_555
C16 C15 1_555 1_555
H11 C16 1_555 1_555
C17 C16 1_555 1_555
H12 C17 1_555 1_555
C18 C13 1_555 1_555
H13 C18 1_555 1_555
C19 P2 1_555 1_555
C20 C19 1_555 1_555
H14 C20 1_555 1_555
C21 C20 1_555 1_555
H15 C21 1_555 1_555
C22 C21 1_555 1_555
H16 C22 1_555 1_555
C23 C22 1_555 1_555
H17 C23 1_555 1_555
C24 C19 1_555 1_555
H18 C24 1_555 1_555
C25 P3 1_555 1_555
C26 C25 1_555 1_555
H19 C26 1_555 1_555
C27 C26 1_555 1_555
H20 C27 1_555 1_555
C28 C27 1_555 1_555
H21 C28 1_555 1_555
C29 C28 1_555 1_555
H22 C29 1_555 1_555
C30 C25 1_555 1_555
H23 C30 1_555 1_555
Cu2B O7 1_555 1_555
V1A O10 1_555 1_555
V1B O3 1_555 1_555
O3B V1 1_555 1_555
O5C V1 1_555 1_555
O7B Cu2 1_555 1_555
O10A V1 1_555 1_555
P3 O9 1_555 1_555
N2 N3 1_555 1_555
N5 C7 1_555 1_555
C4 C5 1_555 1_555
C5 C6 1_555 1_555
C7 C8 1_555 1_555
C11 C12 1_555 1_555
C17 C18 1_555 1_555
C23 C24 1_555 1_555
C29 C30 1_555 1_555
Cu2B O7B 1_555 1_555

#END
