
#######################################################################
#
#                 Cambridge Crystallographic Data Centre
#                                CCDC 
#
#######################################################################
#
# If this CIF has been generated from an entry in the Cambridge 
# Structural Database, then it will include bibliographic, chemical, 
# crystal, experimental, refinement or atomic coordinate data resulting 
# from the CCDC's data processing and validation procedures.
#
#######################################################################

data_WARWOC
_symmetry_cell_setting           monoclinic
_symmetry_space_group_name_H-M   'C 2/c'
_symmetry_Int_Tables_number      15
_space_group_name_Hall           '-C 2yn'
loop_
_symmetry_equiv_pos_site_id
_symmetry_equiv_pos_as_xyz
1 x,y,z
2 1/2+x,1/2+y,z
3 -x,y,1/2-z
4 1/2-x,1/2+y,1/2-z
5 -x,-y,-z
6 1/2-x,1/2-y,-z
7 x,-y,1/2+z
8 1/2+x,1/2-y,1/2+z
_cell_length_a                   25.639(5)
_cell_length_b                   11.627(2)
_cell_length_c                   7.4296(15)
_cell_angle_alpha                90
_cell_angle_beta                 99.64(3)
_cell_angle_gamma                90
_cell_volume                     2183.52
loop_
_atom_site_label
_atom_site_type_symbol
_atom_site_fract_x
_atom_site_fract_y
_atom_site_fract_z
Sr1 Sr -0.444730(9) -0.286320(17) -0.43847(3)
O1 O -0.40374(10) -0.11460(16) -0.2549(3)
H1 H -0.4025(15) -0.0444(11) -0.283(4)
H2 H -0.3966(15) -0.124(2) -0.1405(16)
O2 O -0.50085(8) -0.11426(18) -0.5618(3)
H3 H -0.5341(5) -0.125(3) -0.575(4)
H4 H -0.4920(11) -0.104(3) -0.665(2)
O3 O -0.5000 -0.3654(2) -0.7500
H5 H -0.5201(10) -0.410(2) -0.704(4)
O4 O -0.37841(8) -0.25532(18) -0.6524(3)
O5 O -0.39677(7) -0.11504(16) -0.8593(3)
O6 O -0.35099(6) -0.35096(15) -0.1749(2)
O7 O -0.45141(6) -0.34151(14) -0.1071(2)
O8 O -0.43726(6) -0.49506(14) 0.0754(2)
C1 C -0.36535(10) -0.1830(2) -0.7605(3)
C2 C -0.30829(10) -0.1735(2) -0.7819(3)
C3 C -0.29103(10) -0.0810(2) -0.8741(4)
H6 H -0.3152 -0.0253 -0.9243
C4 C -0.23844(10) -0.0704(2) -0.8926(4)
H7 H -0.2274 -0.0082 -0.9553
C5 C -0.29768(9) -0.3467(2) -0.1829(3)
C6 C -0.28087(10) -0.2522(2) -0.2705(4)
H8 H -0.3048 -0.1951 -0.3170
C7 C -0.27178(10) -0.2566(2) -0.7116(4)
H9 H -0.2829 -0.3197 -0.6510
C8 C -0.36621(9) -0.4353(2) -0.0546(3)
H10 H -0.3615 -0.5113 -0.1031
H11 H -0.3435 -0.4292 0.0633
C9 C -0.42296(9) -0.42070(19) -0.0304(3)
Sr1B Sr -0.555270(9) -0.286320(17) -1.06153(3)
Sr1B_2 Sr -0.555270(9) -0.286320(17) -0.06153(3)
Sr1F Sr -0.444730(9) -0.713680(17) 0.06153(3)
Sr1E Sr -0.055270(9) -0.213680(17) -0.56153(3)
Sr1G Sr 0.055270(9) -0.213680(17) -0.93847(3)
Sr1C Sr -0.055270(9) 0.213680(17) -1.06153(3)
O1B O -0.59626(10) -0.11460(16) -1.2451(3)
H1B H -0.5975(15) -0.0444(11) -1.217(4)
H2B H -0.6034(15) -0.124(2) -1.3595(16)
O2B O -0.49915(8) -0.11426(18) -0.9382(3)
H3B H -0.4659(5) -0.125(3) -0.925(4)
H4B H -0.5080(11) -0.104(3) -0.835(2)
H5B H -0.4799(10) -0.410(2) -0.796(4)
O4B O -0.62159(8) -0.25532(18) -0.8476(3)
O4E O -0.12159(8) -0.24468(18) -0.3476(3)
O5E O -0.10323(7) -0.38496(16) -0.1407(3)
O6B O -0.64901(6) -0.35096(15) -1.3251(2)
O6E O -0.14901(6) -0.14904(15) -0.8251(2)
O7B O -0.54859(6) -0.34151(14) -1.3929(2)
O7_2 O -0.45141(6) -0.34151(14) -1.1071(2)
O7B_2 O -0.54859(6) -0.34151(14) -0.3929(2)
O7E O -0.04859(6) -0.15849(14) -0.8929(2)
O8D O -0.56274(6) -0.50494(14) -1.0754(2)
O8F O -0.43726(6) -0.50494(14) -0.4246(2)
O8E O -0.06274(6) -0.00494(14) -1.0754(2)
C1E C -0.13465(10) -0.3170(2) -0.2395(3)
C2E C -0.19171(10) -0.3265(2) -0.2181(3)
C3E C -0.20897(10) -0.4190(2) -0.1259(4)
H6E H -0.1848 -0.4747 -0.0757
C4E C -0.26156(10) -0.4296(2) -0.1074(4)
H7E H -0.2726 -0.4918 -0.0447
C5E C -0.20232(9) -0.1533(2) -0.8171(3)
C6E C -0.21913(10) -0.2478(2) -0.7295(4)
H8E H -0.1952 -0.3049 -0.6830
C7E C -0.22822(10) -0.2434(2) -0.2884(4)
H9E H -0.2171 -0.1803 -0.3490
C8E C -0.13379(9) -0.0647(2) -0.9454(3)
H10E H -0.1385 0.0113 -0.8969
H11E H -0.1565 -0.0708 -1.0633
C9E C -0.07704(9) -0.07930(19) -0.9696(3)
loop_
_geom_bond_atom_site_label_1
_geom_bond_atom_site_label_2
_geom_bond_site_symmetry_1
_geom_bond_site_symmetry_2
Sr1 O1 1_555 1_555
O1 H1 1_555 1_555
H2 O1 1_555 1_555
O2 Sr1 1_555 1_555
H3 O2 1_555 1_555
H4 O2 1_555 1_555
O3 Sr1 1_555 1_555
H5 O3 1_555 1_555
O4 Sr1 1_555 1_555
O5 C1 1_555 1_555
O6 Sr1 1_555 1_555
O7 Sr1 1_555 1_555
O8 C9 1_555 1_555
C1 O4 1_555 1_555
C2 C1 1_555 1_555
C3 C2 1_555 1_555
H6 C3 1_555 1_555
C4 C3 1_555 1_555
H7 C4 1_555 1_555
C5 O6 1_555 1_555
C6 C5 1_555 1_555
H8 C6 1_555 1_555
C7 C2 1_555 1_555
H9 C7 1_555 1_555
C8 O6 1_555 1_555
H10 C8 1_555 1_555
H11 C8 1_555 1_555
C9 O7 1_555 1_555
Sr1B O3 1_555 1_555
Sr1B_2 O7 1_555 1_555
Sr1F O8 1_555 1_555
Sr1E O4E 1_555 1_555
Sr1G O7E 1_555 1_555
Sr1C O8E 1_555 1_555
O1B Sr1B 1_555 1_555
H1B O1B 1_555 1_555
H2B O1B 1_555 1_555
O2B Sr1B 1_555 1_555
H3B O2B 1_555 1_555
H4B O2B 1_555 1_555
H5B O3 1_555 1_555
O4B Sr1B 1_555 1_555
O4E C1E 1_555 1_555
O5E C1E 1_555 1_555
O6B Sr1B 1_555 1_555
O6E Sr1E 1_555 1_555
O7B Sr1B 1_555 1_555
O7_2 Sr1B 1_555 1_555
O7B_2 Sr1 1_555 1_555
O7E Sr1E 1_555 1_555
O8D Sr1B 1_555 1_555
O8F Sr1 1_555 1_555
O8E C9E 1_555 1_555
C1E C2E 1_555 1_555
C2E C3E 1_555 1_555
C3E H6E 1_555 1_555
C4E C5 1_555 1_555
H7E C4E 1_555 1_555
C5E C4 1_555 1_555
C6E C7 1_555 1_555
H8E C6E 1_555 1_555
C7E C6 1_555 1_555
H9E C7E 1_555 1_555
C8E O6E 1_555 1_555
H10E C8E 1_555 1_555
H11E C8E 1_555 1_555
C9E O7E 1_555 1_555
C8 C9 1_555 1_555
Sr1B_2 O7B_2 1_555 1_555
O6E C5E 1_555 1_555
C2E C7E 1_555 1_555
C3E C4E 1_555 1_555
C5E C6E 1_555 1_555
C8E C9E 1_555 1_555

#END
