
#######################################################################
#
#                 Cambridge Crystallographic Data Centre
#                                CCDC 
#
#######################################################################
#
# If this CIF has been generated from an entry in the Cambridge 
# Structural Database, then it will include bibliographic, chemical, 
# crystal, experimental, refinement or atomic coordinate data resulting 
# from the CCDC's data processing and validation procedures.
#
#######################################################################

data_WARXAP
_symmetry_cell_setting           orthorhombic
_symmetry_space_group_name_H-M   'F d d d'
_symmetry_Int_Tables_number      70
_space_group_name_Hall           '-F 2uv 2vw'
loop_
_symmetry_equiv_pos_site_id
_symmetry_equiv_pos_as_xyz
1 x,y,z
2 x,1/2+y,1/2+z
3 x,1/4-y,1/4-z
4 1/2+x,y,1/2+z
5 1/4-x,y,1/4-z
6 1/2+x,1/2+y,z
7 1/4-x,1/4-y,z
8 3/4-x,3/4-y,z
9 3/4-x,y,3/4-z
10 x,3/4-y,3/4-z
11 3/4-x,1/4-y,1/2+z
12 3/4-x,1/2+y,1/4-z
13 1/4-x,3/4-y,1/2+z
14 1/2+x,3/4-y,1/4-z
15 1/4-x,1/2+y,3/4-z
16 1/2+x,1/4-y,3/4-z
17 -x,-y,-z
18 -x,1/2-y,1/2-z
19 -x,3/4+y,3/4+z
20 1/2-x,-y,1/2-z
21 3/4+x,-y,3/4+z
22 1/2-x,1/2-y,-z
23 3/4+x,3/4+y,-z
24 1/4+x,1/4+y,-z
25 1/4+x,-y,1/4+z
26 -x,1/4+y,1/4+z
27 1/4+x,3/4+y,1/2-z
28 1/4+x,1/2-y,3/4+z
29 3/4+x,1/4+y,1/2-z
30 1/2-x,1/4+y,3/4+z
31 3/4+x,1/2-y,1/4+z
32 1/2-x,3/4+y,1/4+z
_cell_length_a                   19.5070(11)
_cell_length_b                   22.6097(12)
_cell_length_c                   39.819(2)
_cell_angle_alpha                90
_cell_angle_beta                 90
_cell_angle_gamma                90
_cell_volume                     17562.1
loop_
_atom_site_label
_atom_site_type_symbol
_atom_site_fract_x
_atom_site_fract_y
_atom_site_fract_z
Cu1 Cu 0.1250 0.1250 -0.04880(7)
F1 F 0.2686(8) 0.1658(6) 0.1025(2)
O1 O 0.1855(6) 0.1485(5) -0.0137(3)
O2 O 0.1882(6) 0.1456(5) -0.0830(3)
O3 O 0.2799(8) 0.1840(7) -0.1066(3)
O4 O 0.4481(6) 0.2468(6) 0.0399(3)
N1 N 0.4734(7) 0.2797(6) 0.1526(3)
H1 H 0.4786 0.2507 0.1682
N2 N 0.3958(8) 0.2194(7) 0.1017(3)
N3 N 0.3802(8) 0.2163(8) -0.0194(3)
C1 C 0.5085(12) 0.3329(9) 0.1640(5)
H2 H 0.5561 0.3243 0.1675
H3 H 0.4884 0.3461 0.1847
H4 H 0.5041 0.3633 0.1473
C2 C 0.3973(10) 0.2905(9) 0.1467(4)
H5 H 0.3760 0.3008 0.1680
H6 H 0.3920 0.3240 0.1317
C3 C 0.3610(10) 0.2391(9) 0.1323(4)
H7 H 0.3600 0.2071 0.1485
H8 H 0.3141 0.2500 0.1271
C4 C 0.4664(10) 0.2034(8) 0.1062(5)
H9 H 0.4857 0.1898 0.0851
H10 H 0.4702 0.1717 0.1225
C5 C 0.5057(9) 0.2588(9) 0.1188(4)
H11 H 0.5027 0.2902 0.1023
H12 H 0.5537 0.2492 0.1222
C6 C 0.3597(10) 0.2070(8) 0.0720(4)
C7 C 0.2936(10) 0.1797(8) 0.0724(5)
C8 C 0.2562(10) 0.1686(9) 0.0445(4)
H13 H 0.2117 0.1540 0.0460
C9 C 0.2856(8) 0.1796(6) 0.0140(4)
C10 C 0.2446(10) 0.1681(8) -0.0160(4)
C11 C 0.2784(10) 0.1797(8) -0.0475(4)
H14 H 0.2974 0.1396 -0.0475
C12 C 0.3456(10) 0.2036(10) -0.0471(5)
H15 H 0.3741 0.1765 -0.0598
H16 H 0.3437 0.2400 -0.0600
C13 C 0.4503(14) 0.240(2) -0.0201(5)
H17 H 0.4336 0.2802 -0.0230
C14 C 0.4768(12) 0.2523(13) 0.0088(5)
H18 H 0.4904 0.2935 0.0071
H19 H 0.5191 0.2299 0.0098
C15 C 0.3873(8) 0.2194(7) 0.0409(4)
C16 C 0.3526(9) 0.2051(8) 0.0125(4)
C17 C 0.2476(9) 0.1689(8) -0.0819(4)
C18 C 0.4838(10) 0.2411(9) -0.0518(5)
H20 H 0.4546 0.2238 -0.0685
H21 H 0.5258 0.2191 -0.0505
H22 H 0.4936 0.2814 -0.0578
F1F F -0.0186(8) 0.0842(6) 0.1025(2)
O1F O 0.0645(6) 0.1015(5) -0.0137(3)
O2F O 0.0618(6) 0.1044(5) -0.0830(3)
O3F O -0.0299(8) 0.0660(7) -0.1066(3)
O4F O -0.1981(6) 0.0032(6) 0.0399(3)
N1F N -0.2234(7) -0.0297(6) 0.1526(3)
H1F H -0.2286 -0.0007 0.1682
N2F N -0.1458(8) 0.0306(7) 0.1017(3)
N3F N -0.1302(8) 0.0337(8) -0.0194(3)
C1F C -0.2585(12) -0.0829(9) 0.1640(5)
H2F H -0.3061 -0.0743 0.1675
H3F H -0.2384 -0.0961 0.1847
H4F H -0.2541 -0.1133 0.1473
C2F C -0.1473(10) -0.0405(9) 0.1467(4)
H5F H -0.1260 -0.0508 0.1680
H6F H -0.1420 -0.0740 0.1317
C3F C -0.1110(10) 0.0109(9) 0.1323(4)
H7F H -0.1100 0.0429 0.1485
H8F H -0.0641 0.0000 0.1271
C4F C -0.2164(10) 0.0466(8) 0.1062(5)
H9F H -0.2357 0.0602 0.0851
H10F H -0.2202 0.0783 0.1225
C5F C -0.2557(9) -0.0088(9) 0.1188(4)
H11F H -0.2527 -0.0402 0.1023
H12F H -0.3037 0.0008 0.1222
C6F C -0.1097(10) 0.0430(8) 0.0720(4)
C7F C -0.0436(10) 0.0703(8) 0.0724(5)
C8F C -0.0062(10) 0.0814(9) 0.0445(4)
H13F H 0.0383 0.0960 0.0460
C9F C -0.0356(8) 0.0704(6) 0.0140(4)
C10F C 0.0054(10) 0.0819(8) -0.0160(4)
C11F C -0.0284(10) 0.0703(8) -0.0475(4)
H14F H -0.0474 0.1104 -0.0475
C12F C -0.0956(10) 0.0464(10) -0.0471(5)
H15F H -0.1241 0.0735 -0.0598
H16F H -0.0937 0.0100 -0.0600
C13F C -0.2003(14) 0.010(2) -0.0201(5)
H17F H -0.1836 -0.0302 -0.0230
C14F C -0.2268(12) -0.0023(13) 0.0088(5)
H18F H -0.2404 -0.0435 0.0071
H19F H -0.2691 0.0201 0.0098
C15F C -0.1373(8) 0.0306(7) 0.0409(4)
C16F C -0.1026(9) 0.0449(8) 0.0125(4)
C17F C 0.0024(9) 0.0811(8) -0.0819(4)
C18F C -0.2338(10) 0.0089(9) -0.0518(5)
H20F H -0.2046 0.0262 -0.0685
H21F H -0.2758 0.0309 -0.0505
H22F H -0.2436 -0.0314 -0.0578
Cu2 Cu 0.55739(17) 0.03425(18) 0.01031(8)
Cu3 Cu 0.6250 0.1250 0.04418(16)
Br1 Br 0.6250 0.1250 -0.01909(6)
Br2 Br 0.61926(19) 0.0324(2) 0.06359(9)
Br3 Br 0.81478(12) 0.19578(10) 0.02514(6)
Cu2P Cu 0.44261(17) -0.03425(18) -0.01031(8)
Cu2F Cu 0.69261(17) 0.21575(18) 0.01031(8)
Cu2W Cu 0.80739(17) 0.28425(18) -0.01031(8)
Br2F Br 0.63074(19) 0.2176(2) 0.06359(9)
Br3F Br 0.43522(12) 0.05422(10) 0.02514(6)
Br3V Br 0.56478(12) -0.05422(10) -0.02514(6)
Br3U Br 0.68522(12) 0.30422(10) -0.02514(6)
O5 O 0.3750(10) 0.2723(9) -0.1250(5)
loop_
_geom_bond_atom_site_label_1
_geom_bond_atom_site_label_2
_geom_bond_site_symmetry_1
_geom_bond_site_symmetry_2
Cu1 O1 1_555 1_555
Cu2 Cu3 1_555 1_555
Cu3 Br1 1_555 1_555
Br1 Cu2 1_555 1_555
Br2 Cu2 1_555 1_555
Br3 Cu2F 1_555 1_555
F1 C7 1_555 1_555
O1 C10 1_555 1_555
O2 Cu1 1_555 1_555
O3 C17 1_555 1_555
O4 C14 1_555 1_555
N1 H1 1_555 1_555
N2 C3 1_555 1_555
N3 C12 1_555 1_555
C1 N1 1_555 1_555
H2 C1 1_555 1_555
H3 C1 1_555 1_555
H4 C1 1_555 1_555
C2 N1 1_555 1_555
H5 C2 1_555 1_555
H6 C2 1_555 1_555
C3 C2 1_555 1_555
H7 C3 1_555 1_555
H8 C3 1_555 1_555
C4 N2 1_555 1_555
H9 C4 1_555 1_555
H10 C4 1_555 1_555
C5 N1 1_555 1_555
H11 C5 1_555 1_555
H12 C5 1_555 1_555
C6 N2 1_555 1_555
C7 C6 1_555 1_555
C8 C7 1_555 1_555
H13 C8 1_555 1_555
C9 C8 1_555 1_555
C10 C9 1_555 1_555
C11 C10 1_555 1_555
H14 C11 1_555 1_555
C12 C11 1_555 1_555
H15 C12 1_555 1_555
H16 C12 1_555 1_555
C13 N3 1_555 1_555
H17 C13 1_555 1_555
C14 C13 1_555 1_555
H18 C14 1_555 1_555
H19 C14 1_555 1_555
C15 O4 1_555 1_555
C16 N3 1_555 1_555
C17 O2 1_555 1_555
C18 C13 1_555 1_555
H20 C18 1_555 1_555
H21 C18 1_555 1_555
H22 C18 1_555 1_555
Cu2P Cu2 1_555 1_555
Cu2F Cu3 1_555 1_555
Cu2W Br3 1_555 1_555
Br2F Cu3 1_555 1_555
Br3F Cu2 1_555 1_555
Br3V Cu2 1_555 1_555
Br3U Cu2F 1_555 1_555
F1F C7F 1_555 1_555
O1F Cu1 1_555 1_555
O2F Cu1 1_555 1_555
O3F C17F 1_555 1_555
O4F C14F 1_555 1_555
N1F H1F 1_555 1_555
N2F C3F 1_555 1_555
N3F C12F 1_555 1_555
C1F N1F 1_555 1_555
H2F C1F 1_555 1_555
H3F C1F 1_555 1_555
H4F C1F 1_555 1_555
C2F N1F 1_555 1_555
H5F C2F 1_555 1_555
H6F C2F 1_555 1_555
C3F C2F 1_555 1_555
H7F C3F 1_555 1_555
H8F C3F 1_555 1_555
C4F N2F 1_555 1_555
H9F C4F 1_555 1_555
H10F C4F 1_555 1_555
C5F N1F 1_555 1_555
H11F C5F 1_555 1_555
H12F C5F 1_555 1_555
C6F N2F 1_555 1_555
C7F C6F 1_555 1_555
C8F C7F 1_555 1_555
H13F C8F 1_555 1_555
C9F C8F 1_555 1_555
C10F O1F 1_555 1_555
C11F C10F 1_555 1_555
H14F C11F 1_555 1_555
C12F C11F 1_555 1_555
H15F C12F 1_555 1_555
H16F C12F 1_555 1_555
C13F N3F 1_555 1_555
H17F C13F 1_555 1_555
C14F C13F 1_555 1_555
H18F C14F 1_555 1_555
H19F C14F 1_555 1_555
C15F O4F 1_555 1_555
C16F N3F 1_555 1_555
C17F O2F 1_555 1_555
C18F C13F 1_555 1_555
H20F C18F 1_555 1_555
H21F C18F 1_555 1_555
H22F C18F 1_555 1_555
Cu3 Br2 1_555 1_555
Br1 Cu2F 1_555 1_555
C4 C5 1_555 1_555
C6 C15 1_555 1_555
C9 C16 1_555 1_555
C11 C17 1_555 1_555
C15 C16 1_555 1_555
Cu2P Br3F 1_555 1_555
Cu2P Br3V 1_555 1_555
Cu2F Cu2W 1_555 1_555
Cu2F Br2F 1_555 1_555
Cu2W Br3U 1_555 1_555
C4F C5F 1_555 1_555
C6F C15F 1_555 1_555
C9F C10F 1_555 1_555
C9F C16F 1_555 1_555
C11F C17F 1_555 1_555
C15F C16F 1_555 1_555

#END
