
#######################################################################
#
#                 Cambridge Crystallographic Data Centre
#                                CCDC 
#
#######################################################################
#
# If this CIF has been generated from an entry in the Cambridge 
# Structural Database, then it will include bibliographic, chemical, 
# crystal, experimental, refinement or atomic coordinate data resulting 
# from the CCDC's data processing and validation procedures.
#
#######################################################################

data_WARXET
_symmetry_cell_setting           monoclinic
_symmetry_space_group_name_H-M   'C 2/c'
_symmetry_Int_Tables_number      15
_space_group_name_Hall           '-C 2yn'
loop_
_symmetry_equiv_pos_site_id
_symmetry_equiv_pos_as_xyz
1 x,y,z
2 1/2+x,1/2+y,z
3 -x,y,1/2-z
4 1/2-x,1/2+y,1/2-z
5 -x,-y,-z
6 1/2-x,1/2-y,-z
7 x,-y,1/2+z
8 1/2+x,1/2-y,1/2+z
_cell_length_a                   43.741(2)
_cell_length_b                   10.6319(5)
_cell_length_c                   8.4219(4)
_cell_angle_alpha                90.00
_cell_angle_beta                 93.2700(10)
_cell_angle_gamma                90.00
_cell_volume                     3910.23
loop_
_atom_site_label
_atom_site_type_symbol
_atom_site_fract_x
_atom_site_fract_y
_atom_site_fract_z
Zn1 Zn 0.0000 0.5030(2) 0.7500
S1 S 0.17602(10) 0.2814(4) -0.0741(6)
O1 O 0.0293(3) 0.3775(12) 1.1642(15)
O2 O 0.0331(3) 0.5035(11) 0.9549(19)
O3 O 0.0562(3) 0.1636(13) 1.1783(15)
H1 H 0.0451 0.2199 1.2093
O4 O 0.1618(3) 0.3848(11) -0.1580(17)
O5 O 0.1757(3) 0.1590(12) -0.1503(16)
N1 N 0.1059(3) 0.2904(14) 0.6142(17)
H2 H 0.1039 0.3654 0.5770
N2 N 0.1196(3) 0.2000(13) 0.5429(16)
H3 H 0.1212 0.1256 0.5826
N3 N 0.2115(3) 0.3067(13) -0.0179(18)
H4 H 0.2241 0.2443 -0.0181
N4 N 0.2530(3) 0.4170(13) 0.0760(17)
N5 N 0.0000 0.3139(17) 0.7500
C1 C 0.0761(4) 0.3435(16) 0.829(2)
H5 H 0.0731 0.4218 0.7810
C2 C 0.0624(4) 0.3130(17) 0.971(2)
C3 C 0.0672(3) 0.1967(16) 1.040(2)
C4 C 0.0867(4) 0.1112(18) 0.965(2)
H6 H 0.0913 0.0343 1.0138
C5 C 0.0984(4) 0.1385(18) 0.828(2)
H7 H 0.1096 0.0775 0.7771
C6 C 0.0947(4) 0.2507(15) 0.760(2)
C7 C 0.1317(4) 0.2319(15) 0.3950(19)
C8 C 0.1491(4) 0.1338(17) 0.335(2)
H8 H 0.1517 0.0584 0.3905
C9 C 0.1625(4) 0.1529(15) 0.191(2)
H9 H 0.1750 0.0910 0.1510
C10 C 0.1574(3) 0.2628(16) 0.1072(19)
C11 C 0.1407(4) 0.3597(15) 0.169(2)
H10 H 0.1385 0.4355 0.1148
C12 C 0.1278(4) 0.3432(17) 0.309(2)
H11 H 0.1160 0.4074 0.3491
C13 C 0.2224(4) 0.4174(18) 0.028(3)
C14 C 0.2068(4) 0.5337(16) 0.046(2)
H12 H 0.1860 0.5390 0.0190
C15 C 0.2219(4) 0.6355(16) 0.102(2)
H13 H 0.2114 0.7111 0.1095
C16 C 0.2533(5) 0.6307(17) 0.148(3)
H14 H 0.2636 0.7014 0.1881
C17 C 0.2679(5) 0.520(2) 0.132(3)
H15 H 0.2887 0.5152 0.1610
C18 C 0.0404(4) 0.4050(15) 1.029(2)
C19 C -0.0159(4) 0.2483(17) 0.854(2)
H16 H -0.0272 0.2920 0.9267
C20 C -0.0161(4) 0.1187(16) 0.857(2)
H17 H -0.0271 0.0756 0.9317
C21 C 0.0000 0.055(2) 0.7500
H18 H 0.0000 -0.0322 0.7500
Zn1F Zn 0.0000 0.4970(2) 1.2500
Zn1F_2 Zn 0.0000 0.4970(2) 0.2500
S1F S 0.17602(10) 0.7186(4) -0.5741(6)
O1F O 0.0293(3) 0.6225(12) 0.6642(15)
O1D O -0.0293(3) 0.6225(12) 0.8358(15)
O2F O 0.0331(3) 0.4965(11) 0.4549(19)
O2B O -0.0331(3) 0.5035(11) 0.5451(19)
O3F O 0.0562(3) 0.8364(13) 0.6783(15)
H1F H 0.0451 0.7801 0.7093
O4F O 0.1618(3) 0.6152(11) -0.6580(17)
O5F O 0.1757(3) 0.8410(12) -0.6503(16)
N1F N 0.1059(3) 0.7096(14) 0.1142(17)
H2F H 0.1039 0.6346 0.0770
N2F N 0.1196(3) 0.8000(13) 0.0429(16)
H3F H 0.1212 0.8744 0.0826
N3F N 0.2115(3) 0.6933(13) -0.5179(18)
H4F H 0.2241 0.7557 -0.5181
N4F N 0.2530(3) 0.5830(13) -0.4240(17)
C1F C 0.0761(4) 0.6565(16) 0.329(2)
H5F H 0.0731 0.5782 0.2810
C2F C 0.0624(4) 0.6870(17) 0.471(2)
C3F C 0.0672(3) 0.8033(16) 0.540(2)
C4F C 0.0867(4) 0.8888(18) 0.465(2)
H6F H 0.0913 0.9657 0.5138
C5F C 0.0984(4) 0.8615(18) 0.328(2)
H7F H 0.1096 0.9225 0.2771
C6F C 0.0947(4) 0.7493(15) 0.260(2)
C7F C 0.1317(4) 0.7681(15) -0.1050(19)
C8F C 0.1491(4) 0.8662(17) -0.165(2)
H8F H 0.1517 0.9416 -0.1095
C9F C 0.1625(4) 0.8471(15) -0.309(2)
H9F H 0.1750 0.9090 -0.3490
C10F C 0.1574(3) 0.7372(16) -0.3928(19)
C11F C 0.1407(4) 0.6403(15) -0.331(2)
H10F H 0.1385 0.5645 -0.3852
C12F C 0.1278(4) 0.6568(17) -0.191(2)
H11F H 0.1160 0.5926 -0.1509
C13F C 0.2224(4) 0.5826(18) -0.472(3)
C14F C 0.2068(4) 0.4663(16) -0.454(2)
H12F H 0.1860 0.4610 -0.4810
C15F C 0.2219(4) 0.3645(16) -0.398(2)
H13F H 0.2114 0.2889 -0.3905
C16F C 0.2533(5) 0.3693(17) -0.352(3)
H14F H 0.2636 0.2986 -0.3119
C17F C 0.2679(5) 0.480(2) -0.368(3)
H15F H 0.2887 0.4848 -0.3390
C18F C 0.0404(4) 0.5950(15) 0.529(2)
C19B C 0.0159(4) 0.2483(17) 0.646(2)
H16B H 0.0272 0.2920 0.5733
C20B C 0.0161(4) 0.1187(16) 0.643(2)
H17B H 0.0271 0.0756 0.5683
loop_
_geom_bond_atom_site_label_1
_geom_bond_atom_site_label_2
_geom_bond_site_symmetry_1
_geom_bond_site_symmetry_2
Zn1 O2 1_555 1_555
S1 O4 1_555 1_555
O1 C18 1_555 1_555
O2 C18 1_555 1_555
O3 H1 1_555 1_555
O5 S1 1_555 1_555
N1 H2 1_555 1_555
N2 N1 1_555 1_555
H3 N2 1_555 1_555
N3 S1 1_555 1_555
H4 N3 1_555 1_555
N4 C13 1_555 1_555
N5 Zn1 1_555 1_555
C1 H5 1_555 1_555
C2 C1 1_555 1_555
C3 O3 1_555 1_555
C4 C3 1_555 1_555
H6 C4 1_555 1_555
C5 C4 1_555 1_555
H7 C5 1_555 1_555
C6 N1 1_555 1_555
C7 N2 1_555 1_555
C8 C7 1_555 1_555
H8 C8 1_555 1_555
C9 C8 1_555 1_555
H9 C9 1_555 1_555
C10 S1 1_555 1_555
C11 C10 1_555 1_555
H10 C11 1_555 1_555
C12 C7 1_555 1_555
H11 C12 1_555 1_555
C13 N3 1_555 1_555
C14 C13 1_555 1_555
H12 C14 1_555 1_555
C15 C14 1_555 1_555
H13 C15 1_555 1_555
C16 C15 1_555 1_555
H14 C16 1_555 1_555
C17 N4 1_555 1_555
H15 C17 1_555 1_555
C18 C2 1_555 1_555
C19 N5 1_555 1_555
H16 C19 1_555 1_555
C20 C19 1_555 1_555
H17 C20 1_555 1_555
C21 C20 1_555 1_555
H18 C21 1_555 1_555
Zn1F O1 1_555 1_555
Zn1F_2 O2F 1_555 1_555
S1F O4F 1_555 1_555
O1F Zn1 1_555 1_555
O1D Zn1 1_555 1_555
O2F C18F 1_555 1_555
O2B Zn1 1_555 1_555
O3F H1F 1_555 1_555
O5F S1F 1_555 1_555
N1F H2F 1_555 1_555
N2F N1F 1_555 1_555
H3F N2F 1_555 1_555
N3F S1F 1_555 1_555
H4F N3F 1_555 1_555
N4F C13F 1_555 1_555
C1F H5F 1_555 1_555
C2F C1F 1_555 1_555
C3F O3F 1_555 1_555
C4F C3F 1_555 1_555
H6F C4F 1_555 1_555
C5F C4F 1_555 1_555
H7F C5F 1_555 1_555
C6F N1F 1_555 1_555
C7F N2F 1_555 1_555
C8F C7F 1_555 1_555
H8F C8F 1_555 1_555
C9F C8F 1_555 1_555
H9F C9F 1_555 1_555
C10F S1F 1_555 1_555
C11F C10F 1_555 1_555
H10F C11F 1_555 1_555
C12F C7F 1_555 1_555
H11F C12F 1_555 1_555
C13F N3F 1_555 1_555
C14F C13F 1_555 1_555
H12F C14F 1_555 1_555
C15F C14F 1_555 1_555
H13F C15F 1_555 1_555
C16F C15F 1_555 1_555
H14F C16F 1_555 1_555
C17F N4F 1_555 1_555
H15F C17F 1_555 1_555
C18F O1F 1_555 1_555
C19B N5 1_555 1_555
H16B C19B 1_555 1_555
C20B C21 1_555 1_555
H17B C20B 1_555 1_555
C1 C6 1_555 1_555
C2 C3 1_555 1_555
C5 C6 1_555 1_555
C9 C10 1_555 1_555
C11 C12 1_555 1_555
C16 C17 1_555 1_555
C1F C6F 1_555 1_555
C2F C3F 1_555 1_555
C2F C18F 1_555 1_555
C5F C6F 1_555 1_555
C9F C10F 1_555 1_555
C11F C12F 1_555 1_555
C16F C17F 1_555 1_555
C19B C20B 1_555 1_555

#END
