
#######################################################################
#
#                 Cambridge Crystallographic Data Centre
#                                CCDC 
#
#######################################################################
#
# If this CIF has been generated from an entry in the Cambridge 
# Structural Database, then it will include bibliographic, chemical, 
# crystal, experimental, refinement or atomic coordinate data resulting 
# from the CCDC's data processing and validation procedures.
#
#######################################################################

data_WARXIX
_symmetry_cell_setting           orthorhombic
_symmetry_space_group_name_H-M   'P b c a'
_symmetry_Int_Tables_number      61
_space_group_name_Hall           '-P 2ac 2ab'
loop_
_symmetry_equiv_pos_site_id
_symmetry_equiv_pos_as_xyz
1 x,y,z
2 1/2-x,-y,1/2+z
3 -x,1/2+y,1/2-z
4 1/2+x,1/2-y,-z
5 -x,-y,-z
6 1/2+x,y,1/2-z
7 x,1/2-y,1/2+z
8 1/2-x,1/2+y,z
_cell_length_a                   10.515(4)
_cell_length_b                   20.488(8)
_cell_length_c                   44.260(17)
_cell_angle_alpha                90
_cell_angle_beta                 90
_cell_angle_gamma                90
_cell_volume                     9534.99
loop_
_atom_site_label
_atom_site_type_symbol
_atom_site_fract_x
_atom_site_fract_y
_atom_site_fract_z
Cd1 Cd -0.21478(5) 0.18600(2) -0.780260(11)
N1 N -0.3130(7) 0.4597(3) -0.83958(16)
N2 N -0.4003(5) 0.2074(3) -0.75385(12)
N3 N -0.5199(5) 0.1319(3) -0.72335(12)
N4 N -0.3184(5) 0.1074(3) -0.74598(12)
S1 S -0.48224(16) 0.27105(8) -0.74663(4)
O1 O -0.6179(4) 0.2593(2) -0.75220(10)
O2 O -0.4538(5) 0.2949(2) -0.71672(10)
C1 C -0.3499(7) 0.4151(3) -0.81731(17)
C2 C -0.2901(7) 0.4135(3) -0.78948(17)
H1 H -0.2231 0.4418 -0.7854
C3 C -0.3305(7) 0.3693(3) -0.76744(16)
H2 H -0.2905 0.3682 -0.7487
C4 C -0.4301(7) 0.3269(3) -0.77351(15)
C5 C -0.4896(7) 0.3282(3) -0.80186(16)
H3 H -0.5560 0.2996 -0.8060
C6 C -0.4496(7) 0.3715(4) -0.82331(17)
H4 H -0.4890 0.3721 -0.8421
C7 C -0.4180(6) 0.1482(3) -0.74034(14)
C8 C -0.3213(7) 0.0483(4) -0.73367(17)
H5 H -0.2546 0.0195 -0.7373
C9 C -0.4217(8) 0.0285(4) -0.71543(18)
H6 H -0.4229 -0.0126 -0.7065
C10 C -0.5179(7) 0.0716(4) -0.71125(18)
H7 H -0.5864 0.0589 -0.6993
N5 N -0.9197(7) 0.2061(4) -0.85521(19)
N6 N -0.3058(6) 0.1519(3) -0.82506(13)
N7 N -0.2004(5) 0.2474(3) -0.82526(13)
N8 N -0.3111(6) 0.2153(3) -0.87032(14)
S2 S -0.40203(18) 0.09740(9) -0.83706(4)
O3 O -0.3618(5) 0.0689(3) -0.86541(13)
O4 O -0.4146(5) 0.0523(2) -0.81216(13)
C11 C -0.7971(7) 0.1833(4) -0.85145(19)
C12 C -0.7362(7) 0.1874(4) -0.82317(18)
H8 H -0.7774 0.2071 -0.8070
C13 C -0.6155(8) 0.1622(3) -0.81941(17)
H9 H -0.5767 0.1646 -0.8006
C14 C -0.5515(7) 0.1337(3) -0.84319(15)
C15 C -0.6086(7) 0.1320(4) -0.87126(16)
H10 H -0.5651 0.1143 -0.8876
C16 C -0.7295(8) 0.1565(4) -0.87529(18)
H11 H -0.7664 0.1551 -0.8944
C17 C -0.2734(7) 0.2055(4) -0.84183(16)
C18 C -0.2667(8) 0.2705(4) -0.88289(17)
H12 H -0.2897 0.2794 -0.9028
C19 C -0.1895(8) 0.3149(4) -0.86835(18)
H13 H -0.1590 0.3519 -0.8781
C20 C -0.1598(7) 0.3015(4) -0.83869(17)
H14 H -0.1104 0.3310 -0.8278
Cd1E Cd -0.71478(5) 0.18600(2) -0.719740(11)
N3E N -0.0199(5) 0.1319(3) -0.77665(12)
O1E O -0.1179(4) 0.2593(2) -0.74780(10)
Cd2 Cd 0.33679(7) 0.33046(4) 0.023380(17)
N9 N -0.1982(8) 0.5013(4) 0.07731(18)
N10 N 0.0370(7) 0.2309(3) 0.0225(2)
N11 N 0.1631(8) 0.3062(4) -0.00913(16)
N12 N -0.0092(7) 0.2507(4) -0.02929(16)
S3 S 0.0745(3) 0.25467(13) 0.05238(6)
O5 O 0.2119(6) 0.2682(4) 0.05675(16)
O6 O 0.0294(8) 0.2073(4) 0.07331(16)
C21 C -0.1367(9) 0.4435(5) 0.07145(18)
C22 C -0.0140(10) 0.4334(5) 0.0821(2)
H15 H 0.0254 0.4656 0.0935
C23 C 0.0494(10) 0.3770(6) 0.0760(2)
H16 H 0.1309 0.3709 0.0837
C24 C -0.0057(9) 0.3283(4) 0.0585(2)
C25 C -0.1297(9) 0.3372(4) 0.04735(19)
H17 H -0.1676 0.3051 0.0356
C26 C -0.1941(9) 0.3933(4) 0.05396(18)
H18 H -0.2768 0.3987 0.0469
C27 C 0.0694(9) 0.2640(4) -0.0065(2)
C28 C 0.0071(9) 0.2804(5) -0.0555(2)
H19 H -0.0480 0.2705 -0.0713
C29 C 0.1020(11) 0.3253(4) -0.0603(2)
H20 H 0.1127 0.3466 -0.0787
C30 C 0.1806(9) 0.3361(5) -0.0357(2)
H21 H 0.2480 0.3652 -0.0376
N13 N 0.0939(7) 0.4372(4) 0.19565(16)
N14 N 0.3604(8) 0.4080(4) 0.05917(17)
N15 N 0.2370(9) 0.4473(4) 0.02085(19)
N16 N 0.2853(9) 0.5191(4) 0.06183(18)
S4 S 0.4375(2) 0.40873(13) 0.08993(5)
O7 O 0.5251(6) 0.4635(3) 0.09154(15)
O8 O 0.4914(6) 0.3461(3) 0.09168(14)
C31 C 0.1708(8) 0.4303(4) 0.16996(19)
C32 C 0.2000(8) 0.3681(4) 0.15825(19)
H22 H 0.1660 0.3311 0.1673
C33 C 0.2779(8) 0.3615(4) 0.1336(2)
H23 H 0.2957 0.3203 0.1259
C34 C 0.3308(8) 0.4173(5) 0.12015(18)
C35 C 0.3036(9) 0.4787(4) 0.1312(2)
H24 H 0.3392 0.5155 0.1223
C36 C 0.2236(8) 0.4849(4) 0.1554(2)
H25 H 0.2036 0.5264 0.1625
C37 C 0.2934(10) 0.4619(5) 0.0480(2)
C38 C 0.2137(12) 0.5642(6) 0.0485(2)
H26 H 0.2046 0.6046 0.0578
C39 C 0.1525(13) 0.5539(6) 0.0215(3)
H27 H 0.1025 0.5862 0.0127
C40 C 0.1680(12) 0.4947(6) 0.0081(2)
H28 H 0.1293 0.4868 -0.0104
O9 O 0.4831(13) 0.3959(6) -0.0055(3)
Cd2C Cd -0.16321(7) 0.16954(4) -0.023380(17)
N12C N 0.4908(7) 0.2493(4) 0.02929(16)
O10 O -0.0614(14) 0.0808(9) -0.9375(6)
loop_
_geom_bond_atom_site_label_1
_geom_bond_atom_site_label_2
_geom_bond_site_symmetry_1
_geom_bond_site_symmetry_2
Cd1 N2 1_555 1_555
N1 C1 1_555 1_555
N2 S1 1_555 1_555
N3 C7 1_555 1_555
N4 Cd1 1_555 1_555
S1 O1 1_555 1_555
O1 Cd1E 1_555 1_555
O2 S1 1_555 1_555
C1 C2 1_555 1_555
C2 H1 1_555 1_555
C3 C2 1_555 1_555
H2 C3 1_555 1_555
C4 S1 1_555 1_555
C5 C4 1_555 1_555
H3 C5 1_555 1_555
C6 C1 1_555 1_555
H4 C6 1_555 1_555
C7 N2 1_555 1_555
C8 N4 1_555 1_555
H5 C8 1_555 1_555
C9 C8 1_555 1_555
H6 C9 1_555 1_555
C10 N3 1_555 1_555
H7 C10 1_555 1_555
N5 C11 1_555 1_555
N6 Cd1 1_555 1_555
N7 Cd1 1_555 1_555
N8 C17 1_555 1_555
S2 N6 1_555 1_555
O3 S2 1_555 1_555
O4 S2 1_555 1_555
C11 C12 1_555 1_555
C12 H8 1_555 1_555
C13 C12 1_555 1_555
H9 C13 1_555 1_555
C14 S2 1_555 1_555
C15 C14 1_555 1_555
H10 C15 1_555 1_555
C16 C11 1_555 1_555
H11 C16 1_555 1_555
C17 N6 1_555 1_555
C18 N8 1_555 1_555
H12 C18 1_555 1_555
C19 C18 1_555 1_555
H13 C19 1_555 1_555
C20 N7 1_555 1_555
H14 C20 1_555 1_555
Cd2 N11 1_555 1_555
N9 C21 1_555 1_555
N10 S3 1_555 1_555
N11 C27 1_555 1_555
N12 C27 1_555 1_555
S3 O5 1_555 1_555
O5 Cd2 1_555 1_555
O6 S3 1_555 1_555
C21 C22 1_555 1_555
C22 H15 1_555 1_555
C23 C22 1_555 1_555
H16 C23 1_555 1_555
C24 S3 1_555 1_555
C25 C24 1_555 1_555
H17 C25 1_555 1_555
C26 C21 1_555 1_555
H18 C26 1_555 1_555
C27 N10 1_555 1_555
C28 N12 1_555 1_555
H19 C28 1_555 1_555
C29 C28 1_555 1_555
H20 C29 1_555 1_555
C30 N11 1_555 1_555
H21 C30 1_555 1_555
N13 C31 1_555 1_555
N14 Cd2 1_555 1_555
N15 Cd2 1_555 1_555
N16 C37 1_555 1_555
S4 N14 1_555 1_555
O7 S4 1_555 1_555
O8 S4 1_555 1_555
C31 C32 1_555 1_555
C32 H22 1_555 1_555
C33 C32 1_555 1_555
H23 C33 1_555 1_555
C34 S4 1_555 1_555
C35 C34 1_555 1_555
H24 C35 1_555 1_555
C36 C31 1_555 1_555
H25 C36 1_555 1_555
C37 N14 1_555 1_555
C38 N16 1_555 1_555
H26 C38 1_555 1_555
C39 C38 1_555 1_555
H27 C39 1_555 1_555
C40 N15 1_555 1_555
H28 C40 1_555 1_555
O9 Cd2 1_555 1_555
Cd1E N3 1_555 1_555
N3E Cd1 1_555 1_555
O1E Cd1 1_555 1_555
Cd2C N12 1_555 1_555
N12C Cd2 1_555 1_555
N4 C7 1_555 1_555
C3 C4 1_555 1_555
C5 C6 1_555 1_555
C9 C10 1_555 1_555
N7 C17 1_555 1_555
C13 C14 1_555 1_555
C15 C16 1_555 1_555
C19 C20 1_555 1_555
C23 C24 1_555 1_555
C25 C26 1_555 1_555
C29 C30 1_555 1_555
N15 C37 1_555 1_555
C33 C34 1_555 1_555
C35 C36 1_555 1_555
C39 C40 1_555 1_555

#END
