
#######################################################################
#
#                 Cambridge Crystallographic Data Centre
#                                CCDC 
#
#######################################################################
#
# If this CIF has been generated from an entry in the Cambridge 
# Structural Database, then it will include bibliographic, chemical, 
# crystal, experimental, refinement or atomic coordinate data resulting 
# from the CCDC's data processing and validation procedures.
#
#######################################################################

data_WARYIY
_symmetry_cell_setting           triclinic
_symmetry_space_group_name_H-M   'P -1'
_symmetry_Int_Tables_number      2
_space_group_name_Hall           '-P 1'
loop_
_symmetry_equiv_pos_site_id
_symmetry_equiv_pos_as_xyz
1 x,y,z
2 -x,-y,-z
_cell_length_a                   7.2394(7)
_cell_length_b                   8.1338(14)
_cell_length_c                   9.310(2)
_cell_angle_alpha                74.24(2)
_cell_angle_beta                 79.235(15)
_cell_angle_gamma                65.451(10)
_cell_volume                     478.194
loop_
_atom_site_label
_atom_site_type_symbol
_atom_site_fract_x
_atom_site_fract_y
_atom_site_fract_z
Cu1 Cu 0.21228(5) -0.31552(5) -0.32277(4)
N1 N 0.0959(4) -0.4270(4) -0.4343(3)
O1 O -0.0909(4) -0.0672(5) -0.3104(3)
O2 O -0.0357(4) -0.3309(4) -0.1496(3)
O3 O -0.4320(4) -0.1706(4) -0.3412(3)
O4 O -0.7033(3) -0.2061(3) -0.1990(2)
O5 O 0.3664(4) -0.2192(4) -0.5244(3)
O6 O 0.4576(4) -0.5656(4) -0.2637(4)
C1 C -0.0018(5) -0.3299(5) -0.5569(4)
C2 C 0.0969(5) -0.5967(5) -0.3769(4)
C3 C -0.1437(5) -0.1648(5) -0.1951(4)
C4 C -0.5509(4) -0.1580(4) -0.2277(3)
C5 C -0.3329(4) -0.0777(4) -0.0981(3)
C6 C -0.5230(4) -0.0776(4) -0.1092(3)
C7 C -0.3122(4) -0.0008(4) 0.0113(3)
H1 H 0.0053(57) -0.2065(54) -0.6010(42)
H2 H 0.1703(58) -0.6704(53) -0.2884(43)
H3 H -0.1833(58) 0.0043(52) 0.0162(41)
H4 H 0.4378(73) -0.1949(66) -0.4830(53)
H5 H 0.3044(79) -0.1381(70) -0.5708(58)
H6 H 0.5163(72) -0.6255(69) -0.3256(54)
H7 H 0.5344(73) -0.5725(67) -0.2096(54)
Cu1A Cu -0.21228(5) -0.68448(5) -0.67723(4)
Cu1_2 Cu -0.78772(5) -0.31552(5) -0.32277(4)
Cu1A_2 Cu -0.21228(5) 0.31552(5) 0.32277(4)
Cu1A_3 Cu -1.21228(5) 0.31552(5) 0.32277(4)
N1A N -0.0959(4) -0.5730(4) -0.5657(3)
O1A O 0.0909(4) -0.9328(5) -0.6896(3)
O1A_2 O -0.9091(4) 0.0672(5) 0.3104(3)
O2A O 0.0357(4) -0.6691(4) -0.8504(3)
O2A_2 O -0.9643(4) 0.3309(4) 0.1496(3)
O3A O -0.5680(4) 0.1706(4) 0.3412(3)
O4A O -0.2967(3) -0.7939(3) -0.8010(2)
O4_2 O 0.2967(3) -0.2061(3) -0.1990(2)
O4A_2 O -0.2967(3) 0.2061(3) 0.1990(2)
O5A O -0.3664(4) -0.7808(4) -0.4756(3)
O6A O -0.4576(4) -0.4344(4) -0.7363(4)
C1A C 0.0018(5) -0.6701(5) -0.4431(4)
C2A C -0.0969(5) -0.4033(5) -0.6231(4)
C3A C -0.8563(5) 0.1648(5) 0.1951(4)
C4A C -0.4491(4) 0.1580(4) 0.2277(3)
C5A C -0.6671(4) 0.0777(4) 0.0981(3)
C6A C -0.4770(4) 0.0776(4) 0.1092(3)
C7A C -0.6878(4) 0.0008(4) -0.0113(3)
H1A H -0.0053(57) -0.7935(54) -0.3990(42)
H2A H -0.1703(58) -0.3296(53) -0.7116(43)
H3A H -0.8167(58) -0.0043(52) -0.0162(41)
H4A H -0.4378(73) -0.8051(66) -0.5170(53)
H5A H -0.3044(79) -0.8619(70) -0.4292(58)
H6A H -0.5163(72) -0.3745(69) -0.6744(54)
H7A H -0.5344(73) -0.4275(67) -0.7904(54)
O7 O 0.7533(5) -0.5906(5) -0.1044(4)
H8 H 0.8008(81) -0.5340(74) -0.1092(60)
H9 H 0.7480(72) -0.6399(67) -0.0092(56)
loop_
_geom_bond_atom_site_label_1
_geom_bond_atom_site_label_2
_geom_bond_site_symmetry_1
_geom_bond_site_symmetry_2
Cu1 N1 1_555 1_555
N1 C1 1_555 1_555
O1 Cu1 1_555 1_555
O2 Cu1 1_555 1_555
O3 C4 1_555 1_555
O4 C4 1_555 1_555
O5 Cu1 1_555 1_555
O6 Cu1 1_555 1_555
O7 H8 1_555 1_555
C1 H1 1_555 1_555
C2 N1 1_555 1_555
C3 O1 1_555 1_555
C4 C6 1_555 1_555
C5 C3 1_555 1_555
C6 C5 1_555 1_555
C7 C5 1_555 1_555
H2 C2 1_555 1_555
H3 C7 1_555 1_555
H4 O5 1_555 1_555
H5 O5 1_555 1_555
H6 O6 1_555 1_555
H7 O6 1_555 1_555
H9 O7 1_555 1_555
Cu1A N1A 1_555 1_555
Cu1_2 O4 1_555 1_555
Cu1A_2 O4A_2 1_555 1_555
Cu1A_3 O1A_2 1_555 1_555
N1A C1A 1_555 1_555
O1A Cu1A 1_555 1_555
O1A_2 C3A 1_555 1_555
O2A Cu1A 1_555 1_555
O2A_2 Cu1A_3 1_555 1_555
O3A C4A 1_555 1_555
O4A Cu1A 1_555 1_555
O4_2 Cu1 1_555 1_555
O4A_2 C4A 1_555 1_555
O5A Cu1A 1_555 1_555
O6A Cu1A 1_555 1_555
C1A C2 1_555 1_555
C2A C1 1_555 1_555
C3A O2A_2 1_555 1_555
C4A C6A 1_555 1_555
C5A C3A 1_555 1_555
C6A C7 1_555 1_555
C7A C6 1_555 1_555
H1A C1A 1_555 1_555
H2A C2A 1_555 1_555
H3A C7A 1_555 1_555
H4A O5A 1_555 1_555
H5A O5A 1_555 1_555
H6A O6A 1_555 1_555
H7A O6A 1_555 1_555
O2 C3 1_555 1_555
N1A C2A 1_555 1_555
C5A C6A 1_555 1_555
C5A C7A 1_555 1_555

#END
