
#######################################################################
#
#                 Cambridge Crystallographic Data Centre
#                                CCDC 
#
#######################################################################
#
# If this CIF has been generated from an entry in the Cambridge 
# Structural Database, then it will include bibliographic, chemical, 
# crystal, experimental, refinement or atomic coordinate data resulting 
# from the CCDC's data processing and validation procedures.
#
#######################################################################

data_WARYOE
_symmetry_cell_setting           orthorhombic
_symmetry_space_group_name_H-M   'P b c n'
_symmetry_Int_Tables_number      60
_space_group_name_Hall           '-P 2n 2ab'
loop_
_symmetry_equiv_pos_site_id
_symmetry_equiv_pos_as_xyz
1 x,y,z
2 1/2-x,1/2-y,1/2+z
3 -x,y,1/2-z
4 1/2+x,1/2-y,-z
5 -x,-y,-z
6 1/2+x,1/2+y,1/2-z
7 x,-y,1/2+z
8 1/2-x,1/2+y,z
_cell_length_a                   11.712(2)
_cell_length_b                   15.073(3)
_cell_length_c                   14.617(3)
_cell_angle_alpha                90
_cell_angle_beta                 90
_cell_angle_gamma                90
_cell_volume                     2580.41
loop_
_atom_site_label
_atom_site_type_symbol
_atom_site_fract_x
_atom_site_fract_y
_atom_site_fract_z
Pb1 Pb 0.5000 0.124076(9) 0.2500
N1 N 0.47945(15) 0.07504(15) 0.05200(15)
N2 N 0.66345(18) 0.16698(15) 0.12252(14)
N3 N 0.27391(19) 0.08326(16) 0.14496(16)
C1 C 0.5843(2) 0.05818(17) 0.02055(17)
C2 C 0.3950(2) 0.01889(17) 0.03134(17)
C3 C 0.2806(2) 0.04990(15) 0.06059(18)
C4 C 0.1899(2) 0.05150(19) -0.0005(2)
H1 H 0.1974 0.0269 -0.0585
C5 C 0.0883(2) 0.0902(2) 0.0264(3)
H2 H 0.0265 0.0935 -0.0135
C6 C 0.0811(3) 0.1237(2) 0.1137(3)
H3 H 0.0140 0.1500 0.1342
C7 C 0.1734(3) 0.1180(2) 0.1696(2)
H4 H 0.1663 0.1396 0.2290
C8 C 0.67030(19) 0.12779(15) 0.03983(17)
C9 C 0.7463(2) 0.15578(19) -0.02597(19)
H5 H 0.7480 0.1288 -0.0831
C10 C 0.8195(2) 0.22415(19) -0.00594(19)
H6 H 0.8717 0.2438 -0.0493
C11 C 0.8147(2) 0.26341(18) 0.0793(2)
H7 H 0.8638 0.3094 0.0951
C12 C 0.7351(2) 0.23220(18) 0.13960(19)
H8 H 0.7312 0.2590 0.1968
Cl1 Cl 0.5000 -0.11762(6) 0.2500
O1 O 0.5696(4) -0.1703(4) 0.3026(3)
O2 O 0.5654(4) -0.06458(18) 0.1910(2)
N4 N 0.5000 0.3123(3) 0.2500
O3 O 0.4346(2) 0.27045(16) 0.19620(16)
O4 O 0.5000 0.3978(4) 0.2500
Pb1F Pb 0.5000 -0.124076(9) -0.2500
N1D N 0.52055(15) -0.07504(15) -0.05200(15)
N1B N 0.52055(15) 0.07504(15) 0.44800(15)
N2D N 0.33655(18) -0.16698(15) -0.12252(14)
N2B N 0.33655(18) 0.16698(15) 0.37748(14)
N3D N 0.72609(19) -0.08326(16) -0.14496(16)
N3B N 0.72609(19) 0.08326(16) 0.35504(16)
C1D C 0.4157(2) -0.05818(17) -0.02055(17)
C2D C 0.6050(2) -0.01889(17) -0.03134(17)
C3D C 0.7194(2) -0.04990(15) -0.06059(18)
C4D C 0.8101(2) -0.05150(19) 0.0005(2)
H1D H 0.8026 -0.0269 0.0585
C5D C 0.9117(2) -0.0902(2) -0.0264(3)
H2D H 0.9735 -0.0935 0.0135
C6D C 0.9189(3) -0.1237(2) -0.1137(3)
H3D H 0.9860 -0.1500 -0.1342
C7D C 0.8266(3) -0.1180(2) -0.1696(2)
H4D H 0.8337 -0.1396 -0.2290
C8D C 0.32970(19) -0.12779(15) -0.03983(17)
C9D C 0.2537(2) -0.15578(19) 0.02597(19)
H5D H 0.2520 -0.1288 0.0831
C10D C 0.1805(2) -0.22415(19) 0.00594(19)
H6D H 0.1283 -0.2438 0.0493
C11D C 0.1853(2) -0.26341(18) -0.0793(2)
H7D H 0.1362 -0.3094 -0.0951
C12D C 0.2649(2) -0.23220(18) -0.13960(19)
H8D H 0.2688 -0.2590 -0.1968
O1B O 0.4304(4) -0.1703(4) 0.1974(3)
O2B O 0.4346(4) -0.06458(18) 0.3090(2)
O3B O 0.5654(2) 0.27045(16) 0.30380(16)
loop_
_geom_bond_atom_site_label_1
_geom_bond_atom_site_label_2
_geom_bond_site_symmetry_1
_geom_bond_site_symmetry_2
Pb1 N1 1_555 1_555
N1 C1 1_555 1_555
N2 Pb1 1_555 1_555
N3 Pb1 1_555 1_555
C1 C8 1_555 1_555
C2 N1 1_555 1_555
C3 N3 1_555 1_555
C4 C3 1_555 1_555
H1 C4 1_555 1_555
C5 C4 1_555 1_555
H2 C5 1_555 1_555
C6 C5 1_555 1_555
H3 C6 1_555 1_555
C7 N3 1_555 1_555
H4 C7 1_555 1_555
C8 N2 1_555 1_555
C9 C8 1_555 1_555
H5 C9 1_555 1_555
C10 C9 1_555 1_555
H6 C10 1_555 1_555
C11 C10 1_555 1_555
H7 C11 1_555 1_555
C12 N2 1_555 1_555
H8 C12 1_555 1_555
Cl1 O1 1_555 1_555
O2 Pb1 1_555 1_555
N4 O3 1_555 1_555
O3 Pb1 1_555 1_555
O4 N4 1_555 1_555
Pb1F N1D 1_555 1_555
N1D C1D 1_555 1_555
N1B Pb1 1_555 1_555
N2D Pb1F 1_555 1_555
N2B Pb1 1_555 1_555
N3D Pb1F 1_555 1_555
N3B Pb1 1_555 1_555
C1D C2 1_555 1_555
C2D C1 1_555 1_555
C3D N3D 1_555 1_555
C4D C3D 1_555 1_555
H1D C4D 1_555 1_555
C5D C4D 1_555 1_555
H2D C5D 1_555 1_555
C6D C5D 1_555 1_555
H3D C6D 1_555 1_555
C7D N3D 1_555 1_555
H4D C7D 1_555 1_555
C8D N2D 1_555 1_555
C9D C8D 1_555 1_555
H5D C9D 1_555 1_555
C10D C9D 1_555 1_555
H6D C10D 1_555 1_555
C11D C10D 1_555 1_555
H7D C11D 1_555 1_555
C12D N2D 1_555 1_555
H8D C12D 1_555 1_555
O1B Cl1 1_555 1_555
O2B Pb1 1_555 1_555
O3B Pb1 1_555 1_555
C2 C3 1_555 1_555
C6 C7 1_555 1_555
C11 C12 1_555 1_555
Cl1 O2 1_555 1_555
Cl1 O2B 1_555 1_555
N4 O3B 1_555 1_555
N1D C2D 1_555 1_555
C1D C8D 1_555 1_555
C2D C3D 1_555 1_555
C6D C7D 1_555 1_555
C11D C12D 1_555 1_555

#END
