
#######################################################################
#
#                 Cambridge Crystallographic Data Centre
#                                CCDC 
#
#######################################################################
#
# If this CIF has been generated from an entry in the Cambridge 
# Structural Database, then it will include bibliographic, chemical, 
# crystal, experimental, refinement or atomic coordinate data resulting 
# from the CCDC's data processing and validation procedures.
#
#######################################################################

data_WASDEZ
_symmetry_cell_setting           triclinic
_symmetry_space_group_name_H-M   'P -1'
_symmetry_Int_Tables_number      2
_space_group_name_Hall           '-P 1'
loop_
_symmetry_equiv_pos_site_id
_symmetry_equiv_pos_as_xyz
1 x,y,z
2 -x,-y,-z
_cell_length_a                   15.460(5)
_cell_length_b                   16.781(7)
_cell_length_c                   15.429(6)
_cell_angle_alpha                115.28(3)
_cell_angle_beta                 90.88(3)
_cell_angle_gamma                90.88(3)
_cell_volume                     3617.98
loop_
_atom_site_label
_atom_site_type_symbol
_atom_site_fract_x
_atom_site_fract_y
_atom_site_fract_z
Mn1 Mn 0.0000 0.0000 1.0000
Mn2 Mn 0.5000 0.5000 1.5000
N1 N -0.0386(5) -0.0625(5) 1.0779(5)
N2 N -0.0069(5) -0.1149(5) 0.8824(5)
N3 N 0.6126(5) 0.5152(5) 1.5714(5)
N4 N 0.5580(5) 0.5350(5) 1.4066(5)
N5 N 0.1424(6) -0.0243(6) 1.0356(7)
N6 N 0.2009(8) -0.2091(7) 1.1415(7)
N7 N 0.5978(8) 0.1414(7) 1.4783(8)
N8 N 0.5297(6) 0.3530(6) 1.4084(6)
C1 C -0.0538(7) -0.0247(6) 1.1761(6)
C2 C -0.0803(8) -0.0911(7) 1.2047(8)
C3 C -0.0815(7) -0.1677(7) 1.1284(8)
C4 C -0.0569(6) -0.1499(6) 1.0482(7)
C5 C -0.0540(6) -0.2138(6) 0.9542(6)
C6 C -0.0320(6) -0.1952(6) 0.8773(6)
C7 C -0.0342(7) -0.2579(6) 0.7797(7)
C8 C -0.0071(7) -0.2175(6) 0.7265(7)
C9 C 0.0099(6) -0.1271(6) 0.7903(7)
C10 C -0.0393(7) 0.0640(6) 1.2388(7)
C11 C -0.0699(6) -0.3093(6) 0.9335(6)
C12 C -0.0002(7) -0.3657(7) 0.9173(7)
C13 C -0.0168(6) -0.4521(7) 0.9016(7)
C14 C -0.0986(7) -0.4854(6) 0.8985(7)
C15 C -0.1672(6) -0.4291(6) 0.9140(7)
C16 C -0.1545(6) -0.3425(6) 0.9295(6)
C17 C 0.0926(7) -0.3319(8) 0.9229(9)
C18 C -0.1124(8) -0.5813(7) 0.8794(9)
C19 C -0.2327(7) -0.2834(8) 0.9457(9)
C20 C -0.0575(8) 0.0937(7) 1.3446(7)
C21 C -0.1357(8) 0.1279(8) 1.3808(8)
C22 C -0.1492(9) 0.1559(8) 1.4804(8)
C23 C -0.0854(9) 0.1481(8) 1.5390(8)
C24 C -0.0110(9) 0.1091(6) 1.4990(7)
C25 C 0.0088(8) 0.0803(6) 1.4025(7)
C26 C -0.2071(9) 0.138(1) 1.3189(9)
C27 C -0.102(1) 0.1838(10) 1.6458(9)
C28 C 0.0908(9) 0.0416(9) 1.3635(9)
C29 C 0.6282(6) 0.5044(7) 1.6558(7)
C30 C 0.7176(6) 0.5235(7) 1.6821(7)
C31 C 0.7574(6) 0.5436(7) 1.6176(7)
C32 C 0.6917(6) 0.5381(6) 1.5471(7)
C33 C 0.7090(6) 0.5540(6) 1.4682(7)
C34 C 0.6438(6) 0.5564(6) 1.4053(7)
C35 C 0.6582(7) 0.5819(8) 1.3284(8)
C36 C 0.5820(7) 0.5731(8) 1.2835(8)
C37 C 0.5198(6) 0.5454(7) 1.3295(7)
C38 C 0.5666(6) 0.4756(6) 1.6995(6)
C39 C 0.8014(6) 0.5695(6) 1.4488(7)
C40 C 0.8396(7) 0.6510(7) 1.4829(7)
C41 C 0.9253(7) 0.6590(7) 1.4620(7)
C42 C 0.9730(7) 0.5883(7) 1.4057(8)
C43 C 0.9327(7) 0.5073(8) 1.3724(9)
C44 C 0.8488(7) 0.4949(7) 1.3926(9)
C45 C 0.7913(7) 0.7327(8) 1.5436(9)
C46 C 1.0661(8) 0.5999(9) 1.384(1)
C47 C 0.8074(9) 0.4023(8) 1.351(1)
C48 C 0.5947(6) 0.4669(7) 1.7911(7)
C49 C 0.6336(7) 0.3902(7) 1.7819(7)
C50 C 0.6574(7) 0.3831(8) 1.8667(8)
C51 C 0.6433(7) 0.4481(9) 1.9543(8)
C52 C 0.6038(7) 0.5226(8) 1.9602(8)
C53 C 0.5780(6) 0.5365(7) 1.8804(7)
C54 C 0.6511(10) 0.3148(8) 1.6870(10)
C55 C 0.6734(9) 0.4395(10) 2.0437(9)
C56 C 0.5386(7) 0.6190(7) 1.8882(8)
C57 C 0.1830(6) -0.0368(6) 1.0909(7)
C58 C 0.2334(7) -0.0542(7) 1.1600(8)
C59 C 0.2164(7) -0.1389(7) 1.1521(8)
C60 C 0.2945(6) 0.0105(6) 1.2230(7)
C61 C 0.3024(6) 0.0913(7) 1.2193(7)
C62 C 0.3635(6) 0.1567(6) 1.2716(7)
C63 C 0.4220(7) 0.1376(6) 1.3324(7)
C64 C 0.4106(7) 0.0574(7) 1.3392(7)
C65 C 0.3498(6) -0.0063(6) 1.2907(7)
C66 C 0.3650(9) 0.2415(8) 1.2617(9)
C67 C 0.3403(8) -0.0868(8) 1.3079(9)
C68 C 0.5515(8) 0.1692(7) 1.4405(8)
C69 C 0.4922(7) 0.1962(6) 1.3886(7)
C70 C 0.5101(7) 0.2816(7) 1.3970(7)
H1 H -0.0948 -0.0820 1.2674
H2 H -0.0955 -0.2233 1.1268
H3 H -0.0517 -0.3180 0.7564
H4 H 0.0000 -0.2437 0.6594
H5 H 0.0306 -0.4900 0.8920
H6 H -0.2242 -0.4504 0.9142
H7 H 0.1232 -0.3384 0.9730
H8 H 0.1198 -0.3657 0.8634
H9 H 0.0930 -0.2719 0.9341
H10 H -0.1726 -0.5932 0.8801
H11 H -0.0903 -0.6177 0.8186
H12 H -0.0831 -0.5918 0.9278
H13 H -0.2136 -0.2264 0.9541
H14 H -0.2710 -0.3080 0.8912
H15 H -0.2619 -0.2793 1.0008
H16 H -0.2028 0.1809 1.5071
H17 H 0.0312 0.1002 1.5396
H18 H -0.1874 0.1761 1.2918
H19 H -0.2558 0.1624 1.3570
H20 H -0.2222 0.0819 1.2693
H21 H -0.1129 0.2450 1.6704
H22 H -0.0534 0.1744 1.6778
H23 H -0.1515 0.1539 1.6550
H24 H 0.0900 0.0270 1.2962
H25 H 0.0985 -0.0104 1.3722
H26 H 0.1365 0.0825 1.3940
H27 H 0.7449 0.5221 1.7369
H28 H 0.8170 0.5585 1.6176
H29 H 0.7115 0.6013 1.3132
H30 H 0.5719 0.5839 1.2285
H31 H 0.9518 0.7163 1.4874
H32 H 0.9638 0.4568 1.3322
H33 H 0.8194 0.7615 1.6044
H34 H 0.7892 0.7706 1.5127
H35 H 0.7336 0.7159 1.5517
H36 H 1.0888 0.5436 1.3448
H37 H 1.0691 0.6364 1.3516
H38 H 1.0994 0.6258 1.4423
H39 H 0.7498 0.4053 1.3719
H40 H 0.8078 0.3779 1.2831
H41 H 0.8399 0.3661 1.3725
H42 H 0.6839 0.3309 1.8625
H43 H 0.5930 0.5677 2.0220
H44 H 0.6330 0.3289 1.6362
H45 H 0.6223 0.2630 1.6817
H46 H 0.7125 0.3049 1.6821
H47 H 0.6459 0.3886 2.0454
H48 H 0.6579 0.4902 2.0989
H49 H 0.7340 0.4330 2.0431
H50 H 0.5751 0.6462 1.8591
H51 H 0.5328 0.6580 1.9543
H52 H 0.4836 0.6061 1.8573
H53 H 0.2627 0.1031 1.1787
H54 H 0.4487 0.0465 1.3816
H55 H 0.4098 0.2792 1.3012
H56 H 0.3747 0.2299 1.1965
H57 H 0.3109 0.2694 1.2801
H58 H 0.3285 -0.0704 1.3731
H59 H 0.2946 -0.1231 1.2683
H60 H 0.3929 -0.1184 1.2921
N1A N 0.0386(5) 0.0625(5) 0.9221(5)
C1A C 0.0538(7) 0.0247(6) 0.8239(6)
C2A C 0.0803(8) 0.0911(7) 0.7953(8)
C3A C 0.0815(7) 0.1677(7) 0.8716(8)
C4A C 0.0569(6) 0.1499(6) 0.9518(7)
C5A C 0.0540(6) 0.2138(6) 1.0458(6)
C6A C 0.0320(6) 0.1952(6) 1.1227(6)
N2A N 0.0069(5) 0.1149(5) 1.1176(5)
N3A N 0.3874(5) 0.4848(5) 1.4286(5)
C29A C 0.3718(6) 0.4956(7) 1.3442(7)
C30A C 0.2824(6) 0.4765(7) 1.3179(7)
C31A C 0.2426(6) 0.4564(7) 1.3824(7)
C32A C 0.3083(6) 0.4619(6) 1.4529(7)
C33A C 0.2910(6) 0.4460(6) 1.5318(7)
C34A C 0.3562(6) 0.4436(6) 1.5947(7)
N4A N 0.4420(5) 0.4650(5) 1.5934(5)
N8A N 0.4703(6) 0.6470(6) 1.5916(6)
C70A C 0.4899(7) 0.7184(7) 1.6030(7)
C69A C 0.5078(7) 0.8038(6) 1.6114(7)
C63A C 0.5780(7) 0.8624(6) 1.6676(7)
C62A C 0.6365(6) 0.8433(6) 1.7284(7)
C61A C 0.6976(6) 0.9087(7) 1.7807(7)
C60A C 0.7055(6) 0.9895(6) 1.7770(7)
C58A C 0.7666(7) 1.0542(7) 1.8400(8)
C57A C 0.8170(6) 1.0368(6) 1.9091(7)
N5A N 0.8576(6) 1.0243(6) 1.9644(7)
Mn1A Mn 1.0000 1.0000 2.0000
C59A C 0.7836(7) 1.1389(7) 1.8479(8)
N6A N 0.7991(8) 1.2091(7) 1.8585(7)
C65A C 0.6502(6) 1.0063(6) 1.7093(7)
C64A C 0.5894(7) 0.9426(7) 1.6608(7)
H54A H 0.5513 0.9535 1.6184
C67A C 0.6597(8) 1.0868(8) 1.6921(9)
H58A H 0.6715 1.0704 1.6269
H59A H 0.7054 1.1231 1.7317
H60A H 0.6071 1.1184 1.7079
H53A H 0.7373 0.8969 1.8213
C66A C 0.6350(9) 0.7585(8) 1.7383(9)
H55A H 0.5902 0.7208 1.6988
H56A H 0.6253 0.7701 1.8035
H57A H 0.6891 0.7306 1.7199
C68A C 0.4485(8) 0.8308(7) 1.5595(8)
N7A N 0.4022(8) 0.8586(7) 1.5217(8)
C37A C 0.4802(6) 0.4546(7) 1.6705(7)
C36A C 0.4180(7) 0.4269(8) 1.7165(8)
C35A C 0.3418(7) 0.4181(8) 1.6716(8)
H29A H 0.2885 0.3987 1.6868
H30A H 0.4281 0.4161 1.7715
C39A C 0.1986(6) 0.4305(6) 1.5512(7)
C40A C 0.1604(7) 0.3490(7) 1.5171(7)
C41A C 0.0747(7) 0.3410(7) 1.5380(7)
C42A C 0.0270(7) 0.4117(7) 1.5943(8)
C43A C 0.0673(7) 0.4927(8) 1.6276(9)
C44A C 0.1512(7) 0.5051(7) 1.6074(9)
C47A C 0.1926(9) 0.5977(8) 1.649(1)
H39A H 0.2502 0.5947 1.6281
H40A H 0.1922 0.6221 1.7169
H41A H 0.1601 0.6339 1.6275
H32A H 0.0362 0.5432 1.6678
C46A C -0.0661(8) 0.4001(9) 1.616(1)
H36A H -0.0888 0.4564 1.6552
H37A H -0.0691 0.3636 1.6484
H38A H -0.0994 0.3742 1.5577
H31A H 0.0482 0.2837 1.5126
C45A C 0.2087(7) 0.2673(8) 1.4564(9)
H33A H 0.1806 0.2385 1.3956
H34A H 0.2108 0.2294 1.4873
H35A H 0.2664 0.2841 1.4483
H28A H 0.1830 0.4415 1.3824
H27A H 0.2551 0.4779 1.2631
C38A C 0.4334(6) 0.5244(6) 1.3005(6)
C48A C 0.4053(6) 0.5331(7) 1.2089(7)
C49A C 0.3664(7) 0.6098(7) 1.2181(7)
C50A C 0.3426(7) 0.6169(8) 1.1333(8)
C51A C 0.3567(7) 0.5519(9) 1.0457(8)
C52A C 0.3962(7) 0.4774(8) 1.0398(8)
C53A C 0.4220(6) 0.4635(7) 1.1196(7)
C56A C 0.4614(7) 0.3810(7) 1.1118(8)
H50A H 0.4249 0.3538 1.1409
H51A H 0.4672 0.3420 1.0457
H52A H 0.5164 0.3939 1.1427
H43A H 0.4070 0.4323 0.9780
C55A C 0.3266(9) 0.5605(10) 0.9563(9)
H47A H 0.3541 0.6114 0.9546
H48A H 0.3421 0.5098 0.9011
H49A H 0.2660 0.5670 0.9569
H42A H 0.3161 0.6691 1.1375
C54A C 0.3489(10) 0.6852(8) 1.3130(10)
H44A H 0.3670 0.6711 1.3638
H45A H 0.3777 0.7370 1.3183
H46A H 0.2875 0.6951 1.3179
N5A_2 N -0.1424(6) 0.0243(6) 0.9644(7)
C9A C -0.0099(6) 0.1271(6) 1.2097(7)
C8A C 0.0071(7) 0.2175(6) 1.2735(7)
C7A C 0.0342(7) 0.2579(6) 1.2203(7)
H3A H 0.0517 0.3180 1.2436
H4A H 0.0000 0.2437 1.3406
C11A C 0.0699(6) 0.3093(6) 1.0665(6)
C12A C 0.0002(7) 0.3657(7) 1.0827(7)
C13A C 0.0168(6) 0.4521(7) 1.0984(7)
C14A C 0.0986(7) 0.4854(6) 1.1015(7)
C15A C 0.1672(6) 0.4291(6) 1.0860(7)
C16A C 0.1545(6) 0.3425(6) 1.0705(6)
C19A C 0.2327(7) 0.2834(8) 1.0543(9)
H13A H 0.2136 0.2264 1.0459
H14A H 0.2710 0.3080 1.1088
H15A H 0.2619 0.2793 0.9992
H6A H 0.2242 0.4504 1.0858
C18A C 0.1124(8) 0.5813(7) 1.1206(9)
H10A H 0.1726 0.5932 1.1199
H11A H 0.0903 0.6177 1.1814
H12A H 0.0831 0.5918 1.0722
H5A H -0.0306 0.4900 1.1080
C17A C -0.0926(7) 0.3319(8) 1.0771(9)
H7A H -0.1232 0.3384 1.0270
H8A H -0.1198 0.3657 1.1366
H9A H -0.0930 0.2719 1.0659
H2A H 0.0955 0.2233 0.8732
H1A H 0.0948 0.0820 0.7326
C10A C 0.0393(7) -0.0640(6) 0.7612(7)
C20A C 0.0575(8) -0.0937(7) 0.6554(7)
C21A C 0.1357(8) -0.1279(8) 0.6192(8)
C22A C 0.1492(9) -0.1559(8) 0.5196(8)
C23A C 0.0854(9) -0.1481(8) 0.4610(8)
C24A C 0.0110(9) -0.1091(6) 0.5010(7)
C25A C -0.0088(8) -0.0803(6) 0.5975(7)
C28A C -0.0908(9) -0.0416(9) 0.6365(9)
H24A H -0.0900 -0.0270 0.7038
H25A H -0.0985 0.0104 0.6278
H26A H -0.1365 -0.0825 0.6060
H17A H -0.0312 -0.1002 0.4604
C27A C 0.102(1) -0.1838(10) 0.3542(9)
H21A H 0.1129 -0.2450 0.3296
H22A H 0.0534 -0.1744 0.3222
H23A H 0.1515 -0.1539 0.3450
H16A H 0.2028 -0.1809 0.4929
C26A C 0.2071(9) -0.138(1) 0.6811(9)
H18A H 0.1874 -0.1761 0.7082
H19A H 0.2558 -0.1624 0.6430
H20A H 0.2222 -0.0819 0.7307
C71 C 0.444(1) 0.098(1) 0.948(1)
C72 C 0.507(1) 0.139(1) 0.917(1)
C73 C 0.579(1) 0.175(1) 0.968(1)
C74 C 0.593(1) 0.178(1) 1.058(1)
C75 C 0.528(2) 0.138(1) 1.090(1)
C76 C 0.454(1) 0.099(1) 1.035(1)
C77 C 0.363(1) 0.054(1) 0.884(2)
C78 C 0.675(1) 0.219(1) 1.121(2)
H61 H 0.4981 0.1415 0.8575
H62 H 0.6229 0.1986 0.9423
H63 H 0.5364 0.1385 1.1513
H64 H 0.4112 0.0722 1.0581
H65 H 0.3124 0.0807 0.9157
H66 H 0.3669 0.0605 0.8254
H67 H 0.3612 -0.0071 0.8693
H68 H 0.7044 0.1762 1.1331
H69 H 0.7116 0.2434 1.0888
H70 H 0.6582 0.2656 1.1803
C79 C 0.8001(8) 0.7082(9) 1.2399(10)
C80 C 0.7277(9) 0.7076(9) 1.1885(10)
C81 C 0.6609(10) 0.767(1) 1.228(1)
C82 C 0.667(1) 0.833(1) 1.320(1)
C83 C 0.744(1) 0.834(1) 1.369(1)
C84 C 0.8080(9) 0.776(1) 1.331(1)
C85 C 0.8677(9) 0.6430(10) 1.198(1)
C86 C 0.593(2) 0.896(2) 1.363(2)
H71 H 0.7223 0.6658 1.1232
H72 H 0.6091 0.7596 1.1917
H73 H 0.7521 0.8781 1.4326
H74 H 0.8597 0.7829 1.3676
H75 H 0.8444 0.5853 1.1799
H76 H 0.8898 0.6473 1.1428
H77 H 0.9138 0.6539 1.2436
H78 H 0.6095 0.9371 1.4268
H79 H 0.5808 0.9265 1.3255
H80 H 0.5431 0.8633 1.3658
loop_
_geom_bond_atom_site_label_1
_geom_bond_atom_site_label_2
_geom_bond_site_symmetry_1
_geom_bond_site_symmetry_2
Mn1 N1 1_555 1_555
Mn2 N3 1_555 1_555
N1 C1 1_555 1_555
N2 Mn1 1_555 1_555
N3 C29 1_555 1_555
N4 Mn2 1_555 1_555
N5 Mn1 1_555 1_555
N6 C59 1_555 1_555
N7 C68 1_555 1_555
N8 Mn2 1_555 1_555
C1 C2 1_555 1_555
C2 C3 1_555 1_555
C3 C4 1_555 1_555
C4 N1 1_555 1_555
C5 C4 1_555 1_555
C6 N2 1_555 1_555
C7 C6 1_555 1_555
C8 C7 1_555 1_555
C9 N2 1_555 1_555
C10 C1 1_555 1_555
C11 C5 1_555 1_555
C12 C11 1_555 1_555
C13 C12 1_555 1_555
C14 C13 1_555 1_555
C15 C14 1_555 1_555
C16 C11 1_555 1_555
C17 C12 1_555 1_555
C18 C14 1_555 1_555
C19 C16 1_555 1_555
C20 C10 1_555 1_555
C21 C20 1_555 1_555
C22 C21 1_555 1_555
C23 C22 1_555 1_555
C24 C23 1_555 1_555
C25 C20 1_555 1_555
C26 C21 1_555 1_555
C27 C23 1_555 1_555
C28 C25 1_555 1_555
C29 C30 1_555 1_555
C30 C31 1_555 1_555
C31 C32 1_555 1_555
C32 N3 1_555 1_555
C33 C32 1_555 1_555
C34 N4 1_555 1_555
C35 C34 1_555 1_555
C36 C35 1_555 1_555
C37 N4 1_555 1_555
C38 C29 1_555 1_555
C39 C33 1_555 1_555
C40 C39 1_555 1_555
C41 C40 1_555 1_555
C42 C41 1_555 1_555
C43 C42 1_555 1_555
C44 C39 1_555 1_555
C45 C40 1_555 1_555
C46 C42 1_555 1_555
C47 C44 1_555 1_555
C48 C38 1_555 1_555
C49 C48 1_555 1_555
C50 C49 1_555 1_555
C51 C50 1_555 1_555
C52 C51 1_555 1_555
C53 C48 1_555 1_555
C54 C49 1_555 1_555
C55 C51 1_555 1_555
C56 C53 1_555 1_555
C57 N5 1_555 1_555
C58 C57 1_555 1_555
C59 C58 1_555 1_555
C60 C58 1_555 1_555
C61 C60 1_555 1_555
C62 C61 1_555 1_555
C63 C62 1_555 1_555
C64 C63 1_555 1_555
C65 C60 1_555 1_555
C66 C62 1_555 1_555
C67 C65 1_555 1_555
C68 C69 1_555 1_555
C69 C63 1_555 1_555
C70 N8 1_555 1_555
H1 C2 1_555 1_555
H2 C3 1_555 1_555
H3 C7 1_555 1_555
H4 C8 1_555 1_555
H5 C13 1_555 1_555
H6 C15 1_555 1_555
H7 C17 1_555 1_555
H8 C17 1_555 1_555
H9 C17 1_555 1_555
H10 C18 1_555 1_555
H11 C18 1_555 1_555
H12 C18 1_555 1_555
H13 C19 1_555 1_555
H14 C19 1_555 1_555
H15 C19 1_555 1_555
H16 C22 1_555 1_555
H17 C24 1_555 1_555
H18 C26 1_555 1_555
H19 C26 1_555 1_555
H20 C26 1_555 1_555
H21 C27 1_555 1_555
H22 C27 1_555 1_555
H23 C27 1_555 1_555
H24 C28 1_555 1_555
H25 C28 1_555 1_555
H26 C28 1_555 1_555
H27 C30 1_555 1_555
H28 C31 1_555 1_555
H29 C35 1_555 1_555
H30 C36 1_555 1_555
H31 C41 1_555 1_555
H32 C43 1_555 1_555
H33 C45 1_555 1_555
H34 C45 1_555 1_555
H35 C45 1_555 1_555
H36 C46 1_555 1_555
H37 C46 1_555 1_555
H38 C46 1_555 1_555
H39 C47 1_555 1_555
H40 C47 1_555 1_555
H41 C47 1_555 1_555
H42 C50 1_555 1_555
H43 C52 1_555 1_555
H44 C54 1_555 1_555
H45 C54 1_555 1_555
H46 C54 1_555 1_555
H47 C55 1_555 1_555
H48 C55 1_555 1_555
H49 C55 1_555 1_555
H50 C56 1_555 1_555
H51 C56 1_555 1_555
H52 C56 1_555 1_555
H53 C61 1_555 1_555
H54 C64 1_555 1_555
H55 C66 1_555 1_555
H56 C66 1_555 1_555
H57 C66 1_555 1_555
H58 C67 1_555 1_555
H59 C67 1_555 1_555
H60 C67 1_555 1_555
C71 C72 1_555 1_555
C72 C73 1_555 1_555
C73 C74 1_555 1_555
C74 C75 1_555 1_555
C75 C76 1_555 1_555
C76 C71 1_555 1_555
C77 C71 1_555 1_555
C78 C74 1_555 1_555
H61 C72 1_555 1_555
H62 C73 1_555 1_555
H63 C75 1_555 1_555
H64 C76 1_555 1_555
H65 C77 1_555 1_555
H66 C77 1_555 1_555
H67 C77 1_555 1_555
H68 C78 1_555 1_555
H69 C78 1_555 1_555
H70 C78 1_555 1_555
C79 C80 1_555 1_555
C80 C81 1_555 1_555
C81 C82 1_555 1_555
C82 C83 1_555 1_555
C83 C84 1_555 1_555
C84 C79 1_555 1_555
C85 C79 1_555 1_555
C86 C82 1_555 1_555
H71 C80 1_555 1_555
H72 C81 1_555 1_555
H73 C83 1_555 1_555
H74 C84 1_555 1_555
H75 C85 1_555 1_555
H76 C85 1_555 1_555
H77 C85 1_555 1_555
H78 C86 1_555 1_555
H79 C86 1_555 1_555
H80 C86 1_555 1_555
N1A Mn1 1_555 1_555
C1A N1A 1_555 1_555
C2A C1A 1_555 1_555
C3A C2A 1_555 1_555
C4A N1A 1_555 1_555
C5A C4A 1_555 1_555
C6A C5A 1_555 1_555
N2A Mn1 1_555 1_555
N3A Mn2 1_555 1_555
C29A N3A 1_555 1_555
C30A C29A 1_555 1_555
C31A C30A 1_555 1_555
C32A N3A 1_555 1_555
C33A C32A 1_555 1_555
C34A C33A 1_555 1_555
N4A Mn2 1_555 1_555
N8A Mn2 1_555 1_555
C70A N8A 1_555 1_555
C69A C70A 1_555 1_555
C63A C69A 1_555 1_555
C62A C63A 1_555 1_555
C61A C62A 1_555 1_555
C60A C61A 1_555 1_555
C58A C60A 1_555 1_555
C57A C58A 1_555 1_555
N5A C57A 1_555 1_555
Mn1A N5A 1_555 1_555
C59A C58A 1_555 1_555
N6A C59A 1_555 1_555
C65A C60A 1_555 1_555
C64A C63A 1_555 1_555
H54A C64A 1_555 1_555
C67A C65A 1_555 1_555
H58A C67A 1_555 1_555
H59A C67A 1_555 1_555
H60A C67A 1_555 1_555
H53A C61A 1_555 1_555
C66A C62A 1_555 1_555
H55A C66A 1_555 1_555
H56A C66A 1_555 1_555
H57A C66A 1_555 1_555
C68A C69A 1_555 1_555
N7A C68A 1_555 1_555
C37A C38 1_555 1_555
C36A C37A 1_555 1_555
C35A C34A 1_555 1_555
H29A C35A 1_555 1_555
H30A C36A 1_555 1_555
C39A C33A 1_555 1_555
C40A C39A 1_555 1_555
C41A C40A 1_555 1_555
C42A C41A 1_555 1_555
C43A C42A 1_555 1_555
C44A C39A 1_555 1_555
C47A C44A 1_555 1_555
H39A C47A 1_555 1_555
H40A C47A 1_555 1_555
H41A C47A 1_555 1_555
H32A C43A 1_555 1_555
C46A C42A 1_555 1_555
H36A C46A 1_555 1_555
H37A C46A 1_555 1_555
H38A C46A 1_555 1_555
H31A C41A 1_555 1_555
C45A C40A 1_555 1_555
H33A C45A 1_555 1_555
H34A C45A 1_555 1_555
H35A C45A 1_555 1_555
H28A C31A 1_555 1_555
H27A C30A 1_555 1_555
C38A C37 1_555 1_555
C48A C38A 1_555 1_555
C49A C48A 1_555 1_555
C50A C49A 1_555 1_555
C51A C50A 1_555 1_555
C52A C51A 1_555 1_555
C53A C48A 1_555 1_555
C56A C53A 1_555 1_555
H50A C56A 1_555 1_555
H51A C56A 1_555 1_555
H52A C56A 1_555 1_555
H43A C52A 1_555 1_555
C55A C51A 1_555 1_555
H47A C55A 1_555 1_555
H48A C55A 1_555 1_555
H49A C55A 1_555 1_555
H42A C50A 1_555 1_555
C54A C49A 1_555 1_555
H44A C54A 1_555 1_555
H45A C54A 1_555 1_555
H46A C54A 1_555 1_555
N5A_2 Mn1 1_555 1_555
C9A C10 1_555 1_555
C8A C9A 1_555 1_555
C7A C6A 1_555 1_555
H3A C7A 1_555 1_555
H4A C8A 1_555 1_555
C11A C5A 1_555 1_555
C12A C11A 1_555 1_555
C13A C12A 1_555 1_555
C14A C13A 1_555 1_555
C15A C14A 1_555 1_555
C16A C11A 1_555 1_555
C19A C16A 1_555 1_555
H13A C19A 1_555 1_555
H14A C19A 1_555 1_555
H15A C19A 1_555 1_555
H6A C15A 1_555 1_555
C18A C14A 1_555 1_555
H10A C18A 1_555 1_555
H11A C18A 1_555 1_555
H12A C18A 1_555 1_555
H5A C13A 1_555 1_555
C17A C12A 1_555 1_555
H7A C17A 1_555 1_555
H8A C17A 1_555 1_555
H9A C17A 1_555 1_555
H2A C3A 1_555 1_555
H1A C2A 1_555 1_555
C10A C9 1_555 1_555
C20A C10A 1_555 1_555
C21A C20A 1_555 1_555
C22A C21A 1_555 1_555
C23A C22A 1_555 1_555
C24A C23A 1_555 1_555
C25A C20A 1_555 1_555
C28A C25A 1_555 1_555
H24A C28A 1_555 1_555
H25A C28A 1_555 1_555
H26A C28A 1_555 1_555
H17A C24A 1_555 1_555
C27A C23A 1_555 1_555
H21A C27A 1_555 1_555
H22A C27A 1_555 1_555
H23A C27A 1_555 1_555
H16A C22A 1_555 1_555
C26A C21A 1_555 1_555
H18A C26A 1_555 1_555
H19A C26A 1_555 1_555
H20A C26A 1_555 1_555
C5 C6 1_555 1_555
C8 C9 1_555 1_555
C15 C16 1_555 1_555
C24 C25 1_555 1_555
C33 C34 1_555 1_555
C36 C37 1_555 1_555
C43 C44 1_555 1_555
C52 C53 1_555 1_555
C64 C65 1_555 1_555
C69 C70 1_555 1_555
C1A C10A 1_555 1_555
C3A C4A 1_555 1_555
C6A N2A 1_555 1_555
N2A C9A 1_555 1_555
C29A C38A 1_555 1_555
C31A C32A 1_555 1_555
C34A N4A 1_555 1_555
N4A C37A 1_555 1_555
C65A C64A 1_555 1_555
C36A C35A 1_555 1_555
C43A C44A 1_555 1_555
C52A C53A 1_555 1_555
C8A C7A 1_555 1_555
C15A C16A 1_555 1_555
C24A C25A 1_555 1_555

#END
