
#######################################################################
#
#                 Cambridge Crystallographic Data Centre
#                                CCDC 
#
#######################################################################
#
# If this CIF has been generated from an entry in the Cambridge 
# Structural Database, then it will include bibliographic, chemical, 
# crystal, experimental, refinement or atomic coordinate data resulting 
# from the CCDC's data processing and validation procedures.
#
#######################################################################

data_WASFAY
_symmetry_cell_setting           monoclinic
_symmetry_space_group_name_H-M   'P 21/c'
_symmetry_Int_Tables_number      14
_space_group_name_Hall           '-P 2ybc'
loop_
_symmetry_equiv_pos_site_id
_symmetry_equiv_pos_as_xyz
1 x,y,z
2 -x,1/2+y,1/2-z
3 -x,-y,-z
4 x,1/2-y,1/2+z
_cell_length_a                   8.067(2)
_cell_length_b                   13.459(3)
_cell_length_c                   7.956(2)
_cell_angle_alpha                90
_cell_angle_beta                 115.42(3)
_cell_angle_gamma                90
_cell_volume                     780.183
loop_
_atom_site_label
_atom_site_type_symbol
_atom_site_fract_x
_atom_site_fract_y
_atom_site_fract_z
N1 N 0.2196(4) 0.6617(2) -0.0385(4)
C1 C 0.2409(5) 0.5661(3) -0.0214(5)
C2 C 0.0535(5) 0.6935(3) -0.1996(6)
H1 H 0.0870 0.7344 -0.2804
H2 H -0.0030 0.7359 -0.1699
C3 C -0.0485(6) 0.6009(4) -0.3105(7)
H3 H -0.0683 0.6066 -0.4490
H4 H -0.1635 0.5956 -0.2930
N2 N 0.5090(5) 0.5970(2) 0.2424(4)
H5 H 0.6293 0.5899 0.2430
H6 H 0.5233 0.5954 0.3555
N3 N 0.3867(5) 0.5272(3) 0.1195(5)
H7 H 0.4050 0.4678 0.1357
Cu1 Cu 0.4253(1) 0.7361(1) 0.1507(1)
Cl1 Cl 0.3249(1) 0.8878(1) 0.0348(1)
Cl2 Cl 0.6440(1) 0.7904(1) 0.4305(1)
S1 S 0.0753(1) 0.4912(1) -0.1881(1)
Cu1C Cu 0.4253(1) 0.7639(1) 0.6507(1)
Cl2C Cl 0.6440(1) 0.7096(1) -0.0695(1)
loop_
_geom_bond_atom_site_label_1
_geom_bond_atom_site_label_2
_geom_bond_site_symmetry_1
_geom_bond_site_symmetry_2
N1 C1 1_555 1_555
C1 N3 1_555 1_555
C2 N1 1_555 1_555
H1 C2 1_555 1_555
H2 C2 1_555 1_555
C3 C2 1_555 1_555
H3 C3 1_555 1_555
H4 C3 1_555 1_555
N2 H5 1_555 1_555
H6 N2 1_555 1_555
N3 N2 1_555 1_555
H7 N3 1_555 1_555
Cu1 N1 1_555 1_555
Cl1 Cu1 1_555 1_555
Cl2 Cu1 1_555 1_555
S1 C1 1_555 1_555
Cu1C Cl2 1_555 1_555
Cl2C Cu1 1_555 1_555
C3 S1 1_555 1_555
N2 Cu1 1_555 1_555

#END
