
#######################################################################
#
#                 Cambridge Crystallographic Data Centre
#                                CCDC 
#
#######################################################################
#
# If this CIF has been generated from an entry in the Cambridge 
# Structural Database, then it will include bibliographic, chemical, 
# crystal, experimental, refinement or atomic coordinate data resulting 
# from the CCDC's data processing and validation procedures.
#
#######################################################################

data_WASJOP
_symmetry_cell_setting           triclinic
_symmetry_space_group_name_H-M   'P -1'
_symmetry_Int_Tables_number      2
_space_group_name_Hall           '-P 1'
loop_
_symmetry_equiv_pos_site_id
_symmetry_equiv_pos_as_xyz
1 x,y,z
2 -x,-y,-z
_cell_length_a                   8.377(6)
_cell_length_b                   10.848(9)
_cell_length_c                   11.043(9)
_cell_angle_alpha                104.68(7)
_cell_angle_beta                 102.31(6)
_cell_angle_gamma                97.01(6)
_cell_volume                     931.836
loop_
_atom_site_label
_atom_site_type_symbol
_atom_site_fract_x
_atom_site_fract_y
_atom_site_fract_z
Nd1 Nd 0.25242(10) 0.02399(8) 0.00185(8)
O1 O 0.5239(11) -0.0506(9) 0.1028(9)
O2 O 0.3270(12) -0.0547(9) 0.2078(10)
O3 O -0.0503(11) -0.0767(9) -0.1259(9)
O4 O 0.1285(13) -0.0732(10) -0.2482(9)
O5 O 0.1525(14) 0.1888(10) -0.0805(10)
O6 O 0.2727(15) 0.3805(12) -0.0838(13)
C1 C 0.4703(18) -0.0704(13) 0.1974(14)
C2 C 0.5871(20) -0.1084(18) 0.3007(15)
H1 H 0.6392 -0.1797 0.2573
H2 H 0.6758 -0.0311 0.3519
C3 C 0.5051(21) -0.1526(17) 0.3881(16)
C4 C -0.0144(18) -0.0952(14) -0.2354(14)
C5 C -0.1584(24) -0.1531(22) -0.3534(16)
H3 H -0.2231 -0.2317 -0.3425
H4 H -0.2314 -0.0873 -0.3603
C6 C -0.1061(23) -0.1904(20) -0.4720(17)
C7 C 0.1502(21) 0.2969(17) -0.1005(14)
C8 C -0.0256(19) 0.3187(14) -0.1586(15)
H5 H -0.0964 0.3099 -0.0977
H6 H -0.0742 0.2507 -0.2435
C9 C -0.0250(20) 0.4440(20) -0.1797(16)
N1 N 0.4406(23) -0.1881(17) 0.4587(16)
N2 N -0.0750(24) -0.2212(21) -0.5676(19)
N3 N -0.0270(21) 0.5452(16) -0.1928(16)
N4 N 0.6027(19) 0.3805(13) 0.3188(13)
O7 O 0.4195(14) 0.2143(10) 0.1687(10)
C10 C 0.5518(23) 0.2570(19) 0.2550(17)
H7 H 0.6228 0.1940 0.2772
C11 C 0.5208(28) 0.4823(20) 0.2902(21)
C12 C 0.7681(27) 0.4192(24) 0.4216(21)
O9 O 0.2144(13) -0.2155(9) -0.0666(9)
H10 H 0.1136 -0.2445 -0.1400
H11 H 0.3180 -0.2496 -0.0364
O1A O 0.4761(11) 0.0506(9) -0.1028(9)
O3A O 0.0503(11) 0.0767(9) 0.1259(9)
Nd1A Nd 0.74758(10) -0.02399(8) -0.00185(8)
Nd1A_2 Nd -0.25242(10) -0.02399(8) -0.00185(8)
O8 O 0.3987(15) 0.6402(10) 0.0406(12)
H8 H 0.3266 0.5557 -0.0144
H9 H 0.5204 0.6451 0.0469
loop_
_geom_bond_atom_site_label_1
_geom_bond_atom_site_label_2
_geom_bond_site_symmetry_1
_geom_bond_site_symmetry_2
Nd1 O1 1_555 1_555
O1 C1 1_555 1_555
O2 Nd1 1_555 1_555
O3 Nd1 1_555 1_555
O4 Nd1 1_555 1_555
O5 Nd1 1_555 1_555
O6 C7 1_555 1_555
C1 O2 1_555 1_555
C2 C1 1_555 1_555
H1 C2 1_555 1_555
H2 C2 1_555 1_555
C3 C2 1_555 1_555
C4 O3 1_555 1_555
C5 C4 1_555 1_555
H3 C5 1_555 1_555
H4 C5 1_555 1_555
C6 C5 1_555 1_555
C7 O5 1_555 1_555
C8 C7 1_555 1_555
H5 C8 1_555 1_555
H6 C8 1_555 1_555
C9 C8 1_555 1_555
N1 C3 1_555 1_555
N2 C6 1_555 1_555
N3 C9 1_555 1_555
N4 C10 1_555 1_555
O7 Nd1 1_555 1_555
C10 O7 1_555 1_555
H7 C10 1_555 1_555
C11 N4 1_555 1_555
C12 N4 1_555 1_555
O8 H8 1_555 1_555
O9 Nd1 1_555 1_555
H9 O8 1_555 1_555
H10 O9 1_555 1_555
H11 O9 1_555 1_555
O1A Nd1 1_555 1_555
O3A Nd1 1_555 1_555
Nd1A O1 1_555 1_555
Nd1A_2 O3 1_555 1_555
O4 C4 1_555 1_555
O1A Nd1A 1_555 1_555
O3A Nd1A_2 1_555 1_555

#END
