
#######################################################################
#
#                 Cambridge Crystallographic Data Centre
#                                CCDC 
#
#######################################################################
#
# If this CIF has been generated from an entry in the Cambridge 
# Structural Database, then it will include bibliographic, chemical, 
# crystal, experimental, refinement or atomic coordinate data resulting 
# from the CCDC's data processing and validation procedures.
#
#######################################################################

data_WASNUA
_symmetry_cell_setting           monoclinic
_symmetry_space_group_name_H-M   'P 21/c'
_symmetry_Int_Tables_number      14
_space_group_name_Hall           '-P 2ybc'
loop_
_symmetry_equiv_pos_site_id
_symmetry_equiv_pos_as_xyz
1 x,y,z
2 -x,1/2+y,1/2-z
3 -x,-y,-z
4 x,1/2-y,1/2+z
_cell_length_a                   10.368(2)
_cell_length_b                   18.377(4)
_cell_length_c                   15.845(3)
_cell_angle_alpha                90
_cell_angle_beta                 96.86(3)
_cell_angle_gamma                90
_cell_volume                     2997.38
loop_
_atom_site_label
_atom_site_type_symbol
_atom_site_fract_x
_atom_site_fract_y
_atom_site_fract_z
Fe1 Fe 1.26486(6) 0.34885(4) 0.72963(4)
Cu1 Cu 0.78752(5) 0.24638(3) 0.79447(4)
C1 C 0.8520(5) 0.3534(3) 0.9288(4)
H1 H 0.7842 0.3834 0.9064
C2 C 0.9852(6) 0.2661(3) 0.9481(4)
H2 H 1.0271 0.2223 0.9400
C3 C 1.0191(7) 0.3123(4) 1.0107(4)
H3 H 1.0872 0.3073 1.0541
C4 C 0.9319(7) 0.4291(3) 1.0584(4)
H4 H 0.9369 0.4106 1.1161
H5 H 0.8496 0.4543 1.0460
C5 C 1.0394(9) 0.4812(5) 1.0527(6)
H6 H 1.1222 0.4577 1.0486
H7 H 1.0476 0.5170 1.0980
C6 C 0.6539(5) 0.1528(3) 0.9157(3)
H8 H 0.5818 0.1833 0.9103
C7 C 0.8277(5) 0.1022(3) 0.8957(4)
H9 H 0.9032 0.0906 0.8722
C8 C 0.7886(6) 0.0674(3) 0.9625(4)
H10 H 0.8293 0.0290 0.9934
C9 C 0.5922(6) 0.0874(3) 1.0425(4)
H11 H 0.6474 0.0847 1.0963
H12 H 0.5335 0.1281 1.0457
C10 C 0.5190(7) 0.0234(3) 1.0315(4)
H13 H 0.5613 -0.0080 1.0756
H14 H 0.4376 0.0373 1.0514
C11 C 0.6082(4) 0.1561(2) 0.6784(3)
H15 H 0.5816 0.1295 0.7232
C12 C 0.7032(4) 0.2326(2) 0.6059(3)
H16 H 0.7573 0.2699 0.5919
C13 C 0.6239(4) 0.1949(2) 0.5501(3)
H17 H 0.6117 0.2007 0.4914
C14 C 0.4736(4) 0.0884(2) 0.5623(3)
H18 H 0.4067 0.1102 0.5221
H19 H 0.4317 0.0665 0.6076
C15 C 0.5436(5) 0.0303(2) 0.5180(3)
H20 H 0.5839 0.0526 0.4722
H21 H 0.6122 0.0100 0.5581
C16 C 1.0175(5) 0.2495(3) 0.7288(3)
C17 C 1.1271(4) 0.2770(2) 0.6836(3)
C18 C 1.2546(4) 0.2436(3) 0.6882(3)
H22 H 1.2835 0.2026 0.7191
C19 C 1.3263(5) 0.2869(3) 0.6356(3)
H23 H 1.4119 0.2788 0.6262
C20 C 1.2486(5) 0.3429(3) 0.6006(3)
H24 H 1.2736 0.3783 0.5639
C21 C 1.1247(4) 0.3379(2) 0.6296(3)
H25 H 1.0548 0.3692 0.6156
C22 C 1.5631(5) 0.3644(3) 0.7953(3)
C23 C 1.4245(4) 0.3840(3) 0.8049(3)
C24 C 1.3526(5) 0.4449(3) 0.7674(3)
H26 H 1.3842 0.4800 0.7330
C25 C 1.2267(5) 0.4425(3) 0.7914(3)
H27 H 1.1600 0.4754 0.7755
C26 C 1.2198(5) 0.3797(3) 0.8451(3)
H28 H 1.1472 0.3648 0.8699
C27 C 1.3410(5) 0.3446(3) 0.8539(3)
H29 H 1.3630 0.3031 0.8860
N1 N 0.8824(4) 0.2912(2) 0.8981(2)
N2 N 0.9359(6) 0.3672(3) 0.9990(4)
N3 N 0.7454(4) 0.1560(2) 0.8661(2)
N4 N 0.6741(5) 0.1017(2) 0.9746(3)
N5 N 0.6941(3) 0.20849(18) 0.6883(2)
N6 N 0.5634(3) 0.14518(19) 0.5978(2)
O1 O 0.9201(3) 0.29149(16) 0.72719(18)
O2 O 1.0253(3) 0.18978(17) 0.7644(2)
O3 O 1.6044(3) 0.30386(17) 0.8237(2)
O4 O 1.6260(3) 0.40962(18) 0.7591(2)
Fe1_2 Fe 2.26486(6) 0.34885(4) 0.72963(4)
Fe1_3 Fe 0.26486(6) 0.34885(4) 0.72963(4)
Cu1_2 Cu 1.78752(5) 0.24638(3) 0.79447(4)
Cu1B Cu 1.21248(5) 0.75362(3) 1.20553(4)
Cu1B_2 Cu 0.21248(5) -0.24638(3) 1.20553(4)
Cu1B_3 Cu 0.21248(5) -0.24638(3) 0.20553(4)
C1B C 1.1480(5) 0.6466(3) 1.0712(4)
H1B H 1.2158 0.6166 1.0936
C2B C 1.0148(6) 0.7339(3) 1.0519(4)
H2B H 0.9729 0.7777 1.0600
C3B C 0.9809(7) 0.6877(4) 0.9893(4)
H3B H 0.9128 0.6927 0.9459
C4B C 1.0681(7) 0.5709(3) 0.9416(4)
H4B H 1.0631 0.5894 0.8839
H5B H 1.1504 0.5457 0.9540
C5B C 0.9606(9) 0.5188(5) 0.9473(6)
H6B H 0.8778 0.5423 0.9514
H7B H 0.9524 0.4830 0.9020
C6B C 0.3461(5) -0.1528(3) 1.0843(3)
H8B H 0.4182 -0.1833 1.0897
C7B C 0.1723(5) -0.1022(3) 1.1043(4)
H9B H 0.0968 -0.0906 1.1278
C8B C 0.2114(6) -0.0674(3) 1.0375(4)
H10B H 0.1707 -0.0290 1.0066
C9B C 0.4078(6) -0.0874(3) 0.9575(4)
H11B H 0.3526 -0.0847 0.9037
H12B H 0.4665 -0.1281 0.9543
C10B C 0.4810(7) -0.0234(3) 0.9685(4)
H13B H 0.4387 0.0080 0.9244
H14B H 0.5624 -0.0373 0.9486
C11B C 0.3918(4) -0.1561(2) 0.3216(3)
H15B H 0.4184 -0.1295 0.2768
C12B C 0.2968(4) -0.2326(2) 0.3941(3)
H16B H 0.2427 -0.2699 0.4081
C13B C 0.3761(4) -0.1949(2) 0.4499(3)
H17B H 0.3883 -0.2007 0.5086
C14B C 0.5264(4) -0.0884(2) 0.4377(3)
H18B H 0.5933 -0.1102 0.4779
H19B H 0.5683 -0.0665 0.3924
C15B C 0.4564(5) -0.0303(2) 0.4820(3)
H20B H 0.4161 -0.0526 0.5278
H21B H 0.3878 -0.0100 0.4419
C16_2 C 2.0175(5) 0.2495(3) 0.7288(3)
C17_2 C 2.1271(4) 0.2770(2) 0.6836(3)
C18_2 C 2.2546(4) 0.2436(3) 0.6882(3)
H22_2 H 2.2835 0.2026 0.7191
C19_2 C 2.3263(5) 0.2869(3) 0.6356(3)
H23_2 H 2.4119 0.2788 0.6262
C20_2 C 2.2486(5) 0.3429(3) 0.6006(3)
H24_2 H 2.2736 0.3783 0.5639
C21_2 C 2.1247(4) 0.3379(2) 0.6296(3)
H25_2 H 2.0548 0.3692 0.6156
C22_2 C 0.5631(5) 0.3644(3) 0.7953(3)
C23_2 C 0.4245(4) 0.3840(3) 0.8049(3)
C23_3 C 2.4245(4) 0.3840(3) 0.8049(3)
C24_2 C 0.3526(5) 0.4449(3) 0.7674(3)
C24_3 C 2.3526(5) 0.4449(3) 0.7674(3)
H26_2 H 0.3842 0.4800 0.7330
H26_3 H 2.3842 0.4800 0.7330
C25_2 C 0.2267(5) 0.4425(3) 0.7914(3)
C25_3 C 2.2267(5) 0.4425(3) 0.7914(3)
H27_2 H 0.1600 0.4754 0.7755
H27_3 H 2.1600 0.4754 0.7755
C26_2 C 0.2198(5) 0.3797(3) 0.8451(3)
C26_3 C 2.2198(5) 0.3797(3) 0.8451(3)
H28_2 H 0.1472 0.3648 0.8699
H28_3 H 2.1472 0.3648 0.8699
C27_2 C 0.3410(5) 0.3446(3) 0.8539(3)
C27_3 C 2.3410(5) 0.3446(3) 0.8539(3)
H29_2 H 0.3630 0.3031 0.8860
H29_3 H 2.3630 0.3031 0.8860
N1B N 1.1176(4) 0.7088(2) 1.1019(2)
N1_2 N 1.8824(4) 0.2912(2) 0.8981(2)
N2B N 1.0641(6) 0.6328(3) 1.0010(4)
N3B N 0.2546(4) -0.1560(2) 1.1339(2)
N3_2 N 1.7454(4) 0.1560(2) 0.8661(2)
N4B N 0.3259(5) -0.1017(2) 1.0254(3)
N5B N 0.3059(3) -0.20849(18) 0.3117(2)
N5_2 N 1.6941(3) 0.20849(18) 0.6883(2)
N6B N 0.4366(3) -0.14518(19) 0.4022(2)
O1_2 O 1.9201(3) 0.29149(16) 0.72719(18)
O2_2 O 2.0253(3) 0.18978(17) 0.7644(2)
O3_2 O 0.6044(3) 0.30386(17) 0.8237(2)
O4_2 O 0.6260(3) 0.40962(18) 0.7591(2)
O5 O 1.6037(5) 0.5607(2) 0.7333(4)
H30 H 1.673(5) 0.542(4) 0.758(5)
H31 H 1.566(8) 0.520(3) 0.741(6)
O6 O 1.8730(5) 0.43975(19) 0.7247(4)
H32 H 1.868(8) 0.480(3) 0.753(5)
H33 H 1.866(8) 0.3930(13) 0.733(5)
O7 O 1.1667(6) 0.0748(3) 0.8495(4)
H34 H 1.230(6) 0.113(3) 0.861(6)
H35 H 1.110(7) 0.095(5) 0.811(4)
loop_
_geom_bond_atom_site_label_1
_geom_bond_atom_site_label_2
_geom_bond_site_symmetry_1
_geom_bond_site_symmetry_2
Fe1 C17 1_555 1_555
Cu1 N1 1_555 1_555
C1 H1 1_555 1_555
C2 H2 1_555 1_555
C3 C2 1_555 1_555
H3 C3 1_555 1_555
C4 H4 1_555 1_555
H5 C4 1_555 1_555
C5 C4 1_555 1_555
H6 C5 1_555 1_555
H7 C5 1_555 1_555
C6 H8 1_555 1_555
C7 H9 1_555 1_555
C8 C7 1_555 1_555
H10 C8 1_555 1_555
C9 H11 1_555 1_555
H12 C9 1_555 1_555
C10 C9 1_555 1_555
H13 C10 1_555 1_555
H14 C10 1_555 1_555
C11 H15 1_555 1_555
C12 H16 1_555 1_555
C13 C12 1_555 1_555
H17 C13 1_555 1_555
C14 H18 1_555 1_555
H19 C14 1_555 1_555
C15 C14 1_555 1_555
H20 C15 1_555 1_555
H21 C15 1_555 1_555
C16 C17 1_555 1_555
C17 C18 1_555 1_555
C18 Fe1 1_555 1_555
H22 C18 1_555 1_555
C19 Fe1 1_555 1_555
H23 C19 1_555 1_555
C20 Fe1 1_555 1_555
H24 C20 1_555 1_555
C21 Fe1 1_555 1_555
H25 C21 1_555 1_555
C22 C23 1_555 1_555
C23 Fe1 1_555 1_555
C24 Fe1 1_555 1_555
H26 C24 1_555 1_555
C25 Fe1 1_555 1_555
H27 C25 1_555 1_555
C26 Fe1 1_555 1_555
H28 C26 1_555 1_555
C27 Fe1 1_555 1_555
H29 C27 1_555 1_555
N1 C1 1_555 1_555
N2 C1 1_555 1_555
N3 Cu1 1_555 1_555
N4 C6 1_555 1_555
N5 Cu1 1_555 1_555
N6 C11 1_555 1_555
O1 Cu1 1_555 1_555
O2 C16 1_555 1_555
O3 C22 1_555 1_555
O4 C22 1_555 1_555
O5 H30 1_555 1_555
O6 H32 1_555 1_555
O7 H34 1_555 1_555
H31 O5 1_555 1_555
H33 O6 1_555 1_555
H35 O7 1_555 1_555
Fe1_2 C17_2 1_555 1_555
Fe1_3 C23_2 1_555 1_555
Cu1_2 O3 1_555 1_555
Cu1B N1B 1_555 1_555
Cu1B_2 N3B 1_555 1_555
Cu1B_3 N5B 1_555 1_555
C1B H1B 1_555 1_555
C2B H2B 1_555 1_555
C3B C2B 1_555 1_555
H3B C3B 1_555 1_555
C4B H4B 1_555 1_555
H5B C4B 1_555 1_555
C5B C5 1_555 1_555
H6B C5B 1_555 1_555
H7B C5B 1_555 1_555
C6B H8B 1_555 1_555
C7B H9B 1_555 1_555
C8B C7B 1_555 1_555
H10B C8B 1_555 1_555
C9B H11B 1_555 1_555
H12B C9B 1_555 1_555
C10B C10 1_555 1_555
H13B C10B 1_555 1_555
H14B C10B 1_555 1_555
C11B H15B 1_555 1_555
C12B H16B 1_555 1_555
C13B C12B 1_555 1_555
H17B C13B 1_555 1_555
C14B H18B 1_555 1_555
H19B C14B 1_555 1_555
C15B C15 1_555 1_555
H20B C15B 1_555 1_555
H21B C15B 1_555 1_555
C16_2 C17_2 1_555 1_555
C17_2 C18_2 1_555 1_555
C18_2 Fe1_2 1_555 1_555
H22_2 C18_2 1_555 1_555
C19_2 Fe1_2 1_555 1_555
H23_2 C19_2 1_555 1_555
C20_2 Fe1_2 1_555 1_555
H24_2 C20_2 1_555 1_555
C21_2 Fe1_2 1_555 1_555
H25_2 C21_2 1_555 1_555
C22_2 C23_2 1_555 1_555
C23_2 C24_2 1_555 1_555
C23_3 Fe1_2 1_555 1_555
C24_2 Fe1_3 1_555 1_555
C24_3 Fe1_2 1_555 1_555
H26_2 C24_2 1_555 1_555
H26_3 C24_3 1_555 1_555
C25_2 Fe1_3 1_555 1_555
C25_3 Fe1_2 1_555 1_555
H27_2 C25_2 1_555 1_555
H27_3 C25_3 1_555 1_555
C26_2 Fe1_3 1_555 1_555
C26_3 Fe1_2 1_555 1_555
H28_2 C26_2 1_555 1_555
H28_3 C26_3 1_555 1_555
C27_2 Fe1_3 1_555 1_555
C27_3 Fe1_2 1_555 1_555
H29_2 C27_2 1_555 1_555
H29_3 C27_3 1_555 1_555
N1B C1B 1_555 1_555
N1_2 Cu1_2 1_555 1_555
N2B C1B 1_555 1_555
N3B C6B 1_555 1_555
N3_2 Cu1_2 1_555 1_555
N4B C6B 1_555 1_555
N5B C11B 1_555 1_555
N5_2 Cu1_2 1_555 1_555
N6B C11B 1_555 1_555
O1_2 Cu1_2 1_555 1_555
O2_2 C16_2 1_555 1_555
O3_2 Cu1 1_555 1_555
O4_2 C22_2 1_555 1_555
C2 N1 1_555 1_555
C3 N2 1_555 1_555
C4 N2 1_555 1_555
C6 N3 1_555 1_555
C7 N3 1_555 1_555
C8 N4 1_555 1_555
C9 N4 1_555 1_555
C11 N5 1_555 1_555
C12 N5 1_555 1_555
C13 N6 1_555 1_555
C14 N6 1_555 1_555
C16 O1 1_555 1_555
C17 C21 1_555 1_555
C18 C19 1_555 1_555
C19 C20 1_555 1_555
C20 C21 1_555 1_555
C23 C24 1_555 1_555
C23 C27 1_555 1_555
C24 C25 1_555 1_555
C25 C26 1_555 1_555
C26 C27 1_555 1_555
C2B N1B 1_555 1_555
C3B N2B 1_555 1_555
C4B C5B 1_555 1_555
C4B N2B 1_555 1_555
C7B N3B 1_555 1_555
C8B N4B 1_555 1_555
C9B C10B 1_555 1_555
C9B N4B 1_555 1_555
C12B N5B 1_555 1_555
C13B N6B 1_555 1_555
C14B C15B 1_555 1_555
C14B N6B 1_555 1_555
C16_2 O1_2 1_555 1_555
C17_2 C21_2 1_555 1_555
C18_2 C19_2 1_555 1_555
C19_2 C20_2 1_555 1_555
C20_2 C21_2 1_555 1_555
C22_2 O3_2 1_555 1_555
C23_2 C27_2 1_555 1_555
C23_3 C24_3 1_555 1_555
C23_3 C27_3 1_555 1_555
C24_2 C25_2 1_555 1_555
C24_3 C25_3 1_555 1_555
C25_2 C26_2 1_555 1_555
C25_3 C26_3 1_555 1_555
C26_2 C27_2 1_555 1_555
C26_3 C27_3 1_555 1_555

#END
