
#######################################################################
#
#                 Cambridge Crystallographic Data Centre
#                                CCDC 
#
#######################################################################
#
# If this CIF has been generated from an entry in the Cambridge 
# Structural Database, then it will include bibliographic, chemical, 
# crystal, experimental, refinement or atomic coordinate data resulting 
# from the CCDC's data processing and validation procedures.
#
#######################################################################

data_WASPAI
_symmetry_cell_setting           monoclinic
_symmetry_space_group_name_H-M   'C 2/c'
_symmetry_Int_Tables_number      15
_space_group_name_Hall           '-C 2yn'
loop_
_symmetry_equiv_pos_site_id
_symmetry_equiv_pos_as_xyz
1 x,y,z
2 1/2+x,1/2+y,z
3 -x,y,1/2-z
4 1/2-x,1/2+y,1/2-z
5 -x,-y,-z
6 1/2-x,1/2-y,-z
7 x,-y,1/2+z
8 1/2+x,1/2-y,1/2+z
_cell_length_a                   14.272(3)
_cell_length_b                   11.363(2)
_cell_length_c                   11.432(2)
_cell_angle_alpha                90
_cell_angle_beta                 115.15(3)
_cell_angle_gamma                90
_cell_volume                     1678.2
loop_
_atom_site_label
_atom_site_type_symbol
_atom_site_fract_x
_atom_site_fract_y
_atom_site_fract_z
N1 N 1.08610(15) 0.17721(16) 0.36481(17)
C1 C 1.14124(18) 0.2590(2) 0.3300(2)
H1 H 1.1598 0.2511 0.2616
C2 C 1.16410(19) 0.3525(2) 0.4111(2)
H2 H 1.2006 0.4196 0.4088
C3 C 1.07623(18) 0.22312(19) 0.4654(2)
H3 H 1.0415 0.1869 0.5085
C4 C 1.1229(2) 0.4064(2) 0.6003(3)
H4 H 1.1093 0.3602 0.6628
H5 H 1.1907 0.4419 0.6446
C5 C 1.0446(4) 0.4994(5) 0.5485(4)
H6 H 1.0308 0.5228 0.6213
H7 H 1.0814 0.5649 0.5330
C6 C 0.84506(18) -0.14211(19) 0.1271(2)
C7 C 0.7897(2) -0.2161(2) 0.0085(2)
H8 H 0.8129 -0.2140 -0.0562
N2 N 1.12260(15) 0.32841(17) 0.49729(19)
O1 O 0.91501(13) -0.07431(13) 0.12236(15)
O2 O 0.81995(18) -0.15001(19) 0.21746(18)
O3 O 1.11245(15) 0.04242(15) 0.13671(17)
Cu1 Cu 1.0000 0.04657(3) 0.2500
H9 H 1.141(2) -0.0245(18) 0.165(3)
H10 H 1.097(2) 0.046(2) 0.0527(18)
N1D N 0.91390(15) 0.82279(16) 0.63519(17)
N1B N 0.91390(15) 0.17721(16) 0.13519(17)
C1D C 0.85876(18) 0.7410(2) 0.6700(2)
H1D H 0.8402 0.7489 0.7384
C2D C 0.83590(19) 0.6475(2) 0.5889(2)
H2D H 0.7994 0.5804 0.5912
C3D C 0.92377(18) 0.77688(19) 0.5346(2)
H3D H 0.9585 0.8131 0.4915
C4D C 0.8771(2) 0.5936(2) 0.3997(3)
H4D H 0.8907 0.6398 0.3372
H5D H 0.8093 0.5581 0.3554
C5D C 0.9554(4) 0.5006(5) 0.4515(4)
H6D H 0.9692 0.4772 0.3787
H7D H 0.9186 0.4351 0.4670
C6E C 0.65494(18) -0.35789(19) -0.1271(2)
C7E C 0.7103(2) -0.2839(2) -0.0085(2)
H8E H 0.6871 -0.2860 0.0562
N2D N 0.87740(15) 0.67159(17) 0.50271(19)
O1E O 0.58499(13) -0.42569(13) -0.12236(15)
O1B O 1.08499(13) -0.07431(13) 0.37764(15)
O2E O 0.68005(18) -0.34999(19) -0.21746(18)
O3B O 0.88755(15) 0.04242(15) 0.36329(17)
Cu1F Cu 1.0000 0.95343(3) 0.7500
Cu1G Cu 0.5000 -0.54657(3) -0.2500
H9B H 0.859(2) -0.0245(18) 0.335(3)
H10B H 0.903(2) 0.046(2) 0.4473(18)
loop_
_geom_bond_atom_site_label_1
_geom_bond_atom_site_label_2
_geom_bond_site_symmetry_1
_geom_bond_site_symmetry_2
N1 C1 1_555 1_555
C1 H1 1_555 1_555
C2 C1 1_555 1_555
H2 C2 1_555 1_555
C3 N1 1_555 1_555
H3 C3 1_555 1_555
C4 H4 1_555 1_555
H5 C4 1_555 1_555
C5 C4 1_555 1_555
H6 C5 1_555 1_555
H7 C5 1_555 1_555
C6 C7 1_555 1_555
C7 H8 1_555 1_555
N2 C2 1_555 1_555
O1 C6 1_555 1_555
O2 C6 1_555 1_555
O3 Cu1 1_555 1_555
Cu1 N1 1_555 1_555
H9 O3 1_555 1_555
H10 O3 1_555 1_555
N1D C1D 1_555 1_555
N1B Cu1 1_555 1_555
C1D H1D 1_555 1_555
C2D C1D 1_555 1_555
H2D C2D 1_555 1_555
C3D N1D 1_555 1_555
H3D C3D 1_555 1_555
C4D H4D 1_555 1_555
H5D C4D 1_555 1_555
C5D C5 1_555 1_555
H6D C5D 1_555 1_555
H7D C5D 1_555 1_555
C6E C7E 1_555 1_555
C7E C7 1_555 1_555
H8E C7E 1_555 1_555
N2D C2D 1_555 1_555
O1E C6E 1_555 1_555
O1B Cu1 1_555 1_555
O2E C6E 1_555 1_555
O3B Cu1 1_555 1_555
Cu1F N1D 1_555 1_555
Cu1G O1E 1_555 1_555
H9B O3B 1_555 1_555
H10B O3B 1_555 1_555
C3 N2 1_555 1_555
C4 N2 1_555 1_555
O1 Cu1 1_555 1_555
C3D N2D 1_555 1_555
C4D C5D 1_555 1_555
C4D N2D 1_555 1_555

#END
