
#######################################################################
#
#                 Cambridge Crystallographic Data Centre
#                                CCDC 
#
#######################################################################
#
# If this CIF has been generated from an entry in the Cambridge 
# Structural Database, then it will include bibliographic, chemical, 
# crystal, experimental, refinement or atomic coordinate data resulting 
# from the CCDC's data processing and validation procedures.
#
#######################################################################

data_WASQAI
_symmetry_cell_setting           orthorhombic
_symmetry_space_group_name_H-M   'P b c a'
_symmetry_Int_Tables_number      61
_space_group_name_Hall           '-P 2ac 2ab'
loop_
_symmetry_equiv_pos_site_id
_symmetry_equiv_pos_as_xyz
1 x,y,z
2 1/2+x,y,1/2-z
3 x,1/2-y,1/2+z
4 1/2-x,1/2+y,z
5 -x,-y,-z
6 1/2-x,-y,1/2+z
7 -x,1/2+y,1/2-z
8 1/2+x,1/2-y,-z
_cell_length_a                   7.2698(15)
_cell_length_b                   15.745(3)
_cell_length_c                   19.980(4)
_cell_angle_alpha                90
_cell_angle_beta                 90
_cell_angle_gamma                90
_cell_volume                     2286.97
loop_
_atom_site_label
_atom_site_type_symbol
_atom_site_fract_x
_atom_site_fract_y
_atom_site_fract_z
Ag1 Ag -0.33629(3) 0.36689(2) 0.151250(12)
O1 O 0.2394(4) 0.45025(14) 0.23014(11)
N1 N -0.1195(3) 0.46921(14) 0.11544(11)
N2 N 0.0637(3) 0.29766(15) 0.25501(10)
O2 O -0.3911(4) 0.3027(2) 0.03917(15)
O3 O -0.5808(4) 0.3888(2) 0.0722(2)
C1 C -0.1852(3) 0.5251(2) 0.07075(15)
H1 H -0.3174(31) 0.5141(21) 0.0567(15)
C2 C -0.0852(4) 0.5940(2) 0.0477(2)
H2 H -0.1407(37) 0.6289(18) 0.0187(21)
C3 C 0.0930(4) 0.6053(2) 0.0701(2)
H3 H 0.1833(41) 0.6451(22) 0.0527(20)
C4 C 0.1638(3) 0.5466(2) 0.1146(2)
H4 H 0.2890(44) 0.5506(22) 0.1332(17)
C5 C 0.0542(4) 0.4811(2) 0.13671(13)
C6 C 0.0125(4) 0.2159(2) 0.2602(2)
H5 H 0.0102(36) 0.1955(21) 0.2981(19)
C7 C -0.0373(4) 0.1666(2) 0.2057(2)
H6 H -0.0716(65) 0.1038(25) 0.2189(24)
C8 C -0.0308(4) 0.2010(2) 0.1433(2)
H7 H -0.0669(49) 0.1709(22) 0.1021(18)
C9 C 0.0209(4) 0.2863(2) 0.13662(15)
H8 H 0.0321(35) 0.3105(18) 0.0905(16)
C10 C 0.0653(3) 0.3320(2) 0.19357(13)
C11 C 0.1277(4) 0.4229(2) 0.19016(15)
N3 N -0.5324(4) 0.3417(2) 0.0268(2)
N2A N -0.4363(3) 0.29766(15) 0.24499(10)
Ag1A Ag 0.16371(3) 0.36689(2) 0.348750(12)
loop_
_geom_bond_atom_site_label_1
_geom_bond_atom_site_label_2
_geom_bond_site_symmetry_1
_geom_bond_site_symmetry_2
Ag1 N1 1_555 1_555
O1 C11 1_555 1_555
N1 C1 1_555 1_555
N2 C6 1_555 1_555
O2 Ag1 1_555 1_555
O3 Ag1 1_555 1_555
C1 H1 1_555 1_555
C2 C1 1_555 1_555
H2 C2 1_555 1_555
C3 C2 1_555 1_555
H3 C3 1_555 1_555
C4 C3 1_555 1_555
H4 C4 1_555 1_555
C5 N1 1_555 1_555
C6 H5 1_555 1_555
C7 C6 1_555 1_555
H6 C7 1_555 1_555
C8 C7 1_555 1_555
H7 C8 1_555 1_555
C9 C8 1_555 1_555
H8 C9 1_555 1_555
C10 N2 1_555 1_555
C11 C5 1_555 1_555
N3 O2 1_555 1_555
N2A Ag1 1_555 1_555
Ag1A N2 1_555 1_555
O3 N3 1_555 1_555
C4 C5 1_555 1_555
C9 C10 1_555 1_555
C10 C11 1_555 1_555

#END
