
#######################################################################
#
#                 Cambridge Crystallographic Data Centre
#                                CCDC 
#
#######################################################################
#
# If this CIF has been generated from an entry in the Cambridge 
# Structural Database, then it will include bibliographic, chemical, 
# crystal, experimental, refinement or atomic coordinate data resulting 
# from the CCDC's data processing and validation procedures.
#
#######################################################################

data_WASQEM
_symmetry_cell_setting           orthorhombic
_symmetry_space_group_name_H-M   'P b c a'
_symmetry_Int_Tables_number      61
_space_group_name_Hall           '-P 2ac 2ab'
loop_
_symmetry_equiv_pos_site_id
_symmetry_equiv_pos_as_xyz
1 x,y,z
2 1/2+x,y,1/2-z
3 x,1/2-y,1/2+z
4 1/2-x,1/2+y,z
5 -x,-y,-z
6 1/2-x,-y,1/2+z
7 -x,1/2+y,1/2-z
8 1/2+x,1/2-y,-z
_cell_length_a                   7.2350(10)
_cell_length_b                   15.897(4)
_cell_length_c                   21.450(6)
_cell_angle_alpha                90
_cell_angle_beta                 90
_cell_angle_gamma                90
_cell_volume                     2467.07
loop_
_atom_site_label
_atom_site_type_symbol
_atom_site_fract_x
_atom_site_fract_y
_atom_site_fract_z
Ag1 Ag 0.16781(7) -0.13682(4) 0.33944(2)
N1 N 0.0547(7) -0.2082(3) 0.2574(2)
N2 N -0.1252(8) -0.0437(3) 0.1208(2)
O1 O 0.1399(11) -0.2259(5) 0.4396(4)
O2 O 0.0083(11) -0.1311(6) 0.5060(3)
C1 C 0.0031(10) -0.2890(5) 0.2651(3)
H1 H -0.0029 -0.3113 0.3066
C2 C -0.0420(10) -0.3411(4) 0.2161(3)
H2 H -0.0775 -0.3983 0.2243
C3 C -0.0356(9) -0.3116(4) 0.1563(3)
H3 H -0.0640 -0.3480 0.1219
C4 C 0.0124(9) -0.2271(4) 0.1462(3)
H4 H 0.0134 -0.2031 0.1052
C5 C 0.0566(8) -0.1793(4) 0.1977(3)
C6 C 0.1202(9) -0.0892(4) 0.1918(3)
C7 C 0.0490(9) -0.0346(4) 0.1409(3)
C8 C 0.1664(10) 0.0257(4) 0.1169(3)
H5 H 0.2115 0.0589 0.1510
C9 C 0.0994(11) 0.0801(5) 0.0719(3)
H6 H 0.1731 0.1245 0.0546
C10 C -0.0800(12) 0.0719(5) 0.0515(3)
H7 H -0.1296 0.1084 0.0200
C11 C -0.1882(10) 0.0092(4) 0.0771(3)
H8 H -0.3142 0.0032 0.0639
O3 O 0.2294(8) -0.0597(3) 0.2288(2)
Cl1 Cl -0.0379(3) -0.19172(13) 0.46176(9)
O4 O -0.1050(9) -0.1482(6) 0.4090(3)
N2A N 0.3748(8) -0.0437(3) 0.3792(2)
Ag1A Ag -0.33219(7) -0.13682(4) 0.16056(2)
loop_
_geom_bond_atom_site_label_1
_geom_bond_atom_site_label_2
_geom_bond_site_symmetry_1
_geom_bond_site_symmetry_2
Ag1 N1 1_555 1_555
N1 C1 1_555 1_555
N2 C7 1_555 1_555
O1 Ag1 1_555 1_555
O2 Cl1 1_555 1_555
C1 H1 1_555 1_555
C2 C1 1_555 1_555
H2 C2 1_555 1_555
C3 C2 1_555 1_555
H3 C3 1_555 1_555
C4 C3 1_555 1_555
H4 C4 1_555 1_555
C5 N1 1_555 1_555
C6 C5 1_555 1_555
C7 C6 1_555 1_555
C8 C7 1_555 1_555
H5 C8 1_555 1_555
C9 C8 1_555 1_555
H6 C9 1_555 1_555
C10 C9 1_555 1_555
H7 C10 1_555 1_555
C11 N2 1_555 1_555
H8 C11 1_555 1_555
O3 C6 1_555 1_555
Cl1 O1 1_555 1_555
O4 Ag1 1_555 1_555
N2A Ag1 1_555 1_555
Ag1A N2 1_555 1_555
C4 C5 1_555 1_555
C10 C11 1_555 1_555
Cl1 O4 1_555 1_555

#END
