
#######################################################################
#
#                 Cambridge Crystallographic Data Centre
#                                CCDC 
#
#######################################################################
#
# If this CIF has been generated from an entry in the Cambridge 
# Structural Database, then it will include bibliographic, chemical, 
# crystal, experimental, refinement or atomic coordinate data resulting 
# from the CCDC's data processing and validation procedures.
#
#######################################################################

data_WASQIQ
_symmetry_cell_setting           monoclinic
_symmetry_space_group_name_H-M   'C 2/c'
_symmetry_Int_Tables_number      15
_space_group_name_Hall           '-C 2yn'
loop_
_symmetry_equiv_pos_site_id
_symmetry_equiv_pos_as_xyz
1 x,y,z
2 1/2+x,1/2+y,z
3 x,-y,1/2+z
4 1/2+x,1/2-y,1/2+z
5 -x,-y,-z
6 1/2-x,1/2-y,-z
7 -x,y,1/2-z
8 1/2-x,1/2+y,1/2-z
_cell_length_a                   12.579(8)
_cell_length_b                   11.288(5)
_cell_length_c                   9.963(3)
_cell_angle_alpha                90
_cell_angle_beta                 95.93
_cell_angle_gamma                90
_cell_volume                     1407.09
loop_
_atom_site_label
_atom_site_type_symbol
_atom_site_fract_x
_atom_site_fract_y
_atom_site_fract_z
Ag1 Ag 0.0000 0.0000 0.5000
N1 N -0.0600(3) 0.1784(3) 0.0149(3)
O1 O 0.0000 0.0622(3) 0.2500
C1 C -0.1083(4) 0.2327(4) -0.0928(4)
H1 H -0.1123 0.1925 -0.1782
C2 C -0.1530(5) 0.3431(5) -0.0871(6)
H2 H -0.1854 0.3808 -0.1676
C3 C -0.1504(4) 0.3988(4) 0.0334(5)
H3 H -0.1836 0.4748 0.0407
C4 C -0.0993(4) 0.3439(3) 0.1462(4)
H4 H -0.0962 0.3810 0.2332
C5 C -0.0542(3) 0.2358(3) 0.1330(3)
C6 C 0.0000 0.1693(4) 0.2500
Ag1B Ag 0.0000 0.0000 0.0000
N1B N -0.0600(3) -0.1784(3) 0.5149(3)
O1B O 0.0000 -0.0622(3) 0.7500
N1F N 0.0600(3) 0.1784(3) 0.4851(3)
C1F C 0.1083(4) 0.2327(4) 0.5928(4)
H1F H 0.1123 0.1925 0.6782
C2F C 0.1530(5) 0.3431(5) 0.5871(6)
H2F H 0.1854 0.3808 0.6676
C3F C 0.1504(4) 0.3988(4) 0.4666(5)
H3F H 0.1836 0.4748 0.4593
C4F C 0.0993(4) 0.3439(3) 0.3538(4)
H4F H 0.0962 0.3810 0.2668
C5F C 0.0542(3) 0.2358(3) 0.3670(3)
P1 P -0.2500 -0.2500 0.0000
F1 F -0.1968(2) -0.1746(3) -0.1082(3)
F2 F -0.2755(3) -0.3529(3) -0.1034(3)
F3 F -0.3598(2) -0.1920(3) -0.0509(3)
F1E F -0.3032(2) -0.3254(3) 0.1082(3)
F2E F -0.2245(3) -0.1471(3) 0.1034(3)
F3E F -0.1402(2) -0.3080(3) 0.0509(3)
loop_
_geom_bond_atom_site_label_1
_geom_bond_atom_site_label_2
_geom_bond_site_symmetry_1
_geom_bond_site_symmetry_2
Ag1 O1 1_555 1_555
N1 C1 1_555 1_555
O1 C6 1_555 1_555
C1 H1 1_555 1_555
C2 C1 1_555 1_555
H2 C2 1_555 1_555
C3 C2 1_555 1_555
H3 C3 1_555 1_555
C4 C3 1_555 1_555
H4 C4 1_555 1_555
C5 N1 1_555 1_555
C6 C5 1_555 1_555
P1 F1 1_555 1_555
F2 P1 1_555 1_555
F3 P1 1_555 1_555
Ag1B N1 1_555 1_555
N1B Ag1 1_555 1_555
O1B Ag1 1_555 1_555
N1F Ag1 1_555 1_555
C1F N1F 1_555 1_555
H1F C1F 1_555 1_555
C2F C1F 1_555 1_555
H2F C2F 1_555 1_555
C3F C2F 1_555 1_555
H3F C3F 1_555 1_555
C4F C3F 1_555 1_555
H4F C4F 1_555 1_555
C5F C6 1_555 1_555
F1E P1 1_555 1_555
F2E P1 1_555 1_555
F3E P1 1_555 1_555
O1 Ag1B 1_555 1_555
C4 C5 1_555 1_555
N1F C5F 1_555 1_555
C4F C5F 1_555 1_555

#END
