
#######################################################################
#
#                 Cambridge Crystallographic Data Centre
#                                CCDC 
#
#######################################################################
#
# If this CIF has been generated from an entry in the Cambridge 
# Structural Database, then it will include bibliographic, chemical, 
# crystal, experimental, refinement or atomic coordinate data resulting 
# from the CCDC's data processing and validation procedures.
#
#######################################################################

data_WASQUD
_symmetry_cell_setting           triclinic
_symmetry_space_group_name_H-M   'P -1'
_symmetry_Int_Tables_number      2
_space_group_name_Hall           '-P 1'
loop_
_symmetry_equiv_pos_site_id
_symmetry_equiv_pos_as_xyz
1 x,y,z
2 -x,-y,-z
_cell_length_a                   7.4477(6)
_cell_length_b                   12.2593(9)
_cell_length_c                   12.7970(10)
_cell_angle_alpha                113.093(6)
_cell_angle_beta                 105.791(6)
_cell_angle_gamma                94.343(6)
_cell_volume                     1012.01
loop_
_atom_site_label
_atom_site_type_symbol
_atom_site_fract_x
_atom_site_fract_y
_atom_site_fract_z
C1 C 0.3546(3) 0.2752(2) 0.5682(2)
C2 C 0.3068(3) 0.1433(2) 0.5397(2)
C3 C 0.2530(4) 0.0451(2) 0.4279(2)
H1 H 0.2429 0.0560 0.3587
C4 C 0.2146(4) -0.0701(2) 0.4226(2)
H2 H 0.1763 -0.1372 0.3483
C5 C 0.2323(4) -0.0870(2) 0.5258(2)
H3 H 0.2074 -0.1652 0.5197
C6 C 0.2870(4) 0.0117(2) 0.6384(2)
H4 H 0.2988 0.0015 0.7081
C7 C 0.3227(3) 0.1251(2) 0.6412(2)
C8 C 0.8348(3) 0.7456(2) 0.80616(19)
C9 C 0.8795(3) 0.8765(2) 0.83318(19)
C10 C 1.0494(3) 0.9432(2) 0.8467(2)
H5 H 1.1531 0.9073 0.8373
C11 C 1.0603(3) 1.0661(2) 0.8749(2)
H6 H 1.1727 1.1130 0.8841
C12 C 0.9046(3) 1.1195(2) 0.8893(2)
H7 H 0.9151 1.2015 0.9078
C13 C 0.7344(3) 1.0531(2) 0.8768(2)
H8 H 0.6308 1.0887 0.8873
C14 C 0.7270(3) 0.9316(2) 0.8480(2)
C15 C 0.9383(3) 0.5099(2) 0.94757(19)
H9 H 0.8124 0.5154 0.9545
H10 H 0.9941 0.5860 0.9512
N1 N 0.9205(3) 0.41061(18) 0.83070(17)
H11 H 0.8375 0.3463 0.8191
H12 H 1.0345 0.3893 0.8358
N2 N 0.7560(3) 0.44822(18) 0.50094(17)
H13 H 0.6653 0.3821 0.4478
H14 H 0.7047 0.5135 0.5060
C16 C 0.9145(3) 0.4519(2) 0.4526(2)
H15 H 0.8732 0.4692 0.3831
H16 H 0.9500 0.3734 0.4269
N3 N 0.4021(3) 0.34647(17) 0.68921(17)
N4 N 0.6545(3) 0.71058(17) 0.80270(18)
O1 O 0.3526(3) 0.31369(16) 0.49334(16)
O2 O 0.5786(3) 0.28263(15) 0.84754(15)
O3 O 0.2461(3) 0.29146(16) 0.82046(17)
O4 O 0.9493(2) 0.67861(15) 0.79098(15)
O5 O 0.3805(3) 0.79658(15) 0.72263(16)
O6 O 0.4959(3) 0.85087(16) 0.93767(16)
O7 O 0.2864(3) 0.60069(16) 0.88321(17)
S1 S 0.39176(8) 0.26819(5) 0.76510(5)
S2 S 0.54002(8) 0.82138(5) 0.82835(5)
Ag1 Ag 0.51341(2) 0.535500(14) 0.763310(14)
Ag2 Ag 0.82965(2) 0.444667(15) 0.674153(14)
H17 H 0.357(4) 0.643(3) 0.9618(17)
H18 H 0.215(4) 0.650(2) 0.857(3)
C1A C 1.6454(3) 0.7248(2) 1.4318(2)
C2A C 1.6932(3) 0.8567(2) 1.4603(2)
C3A C 1.7470(4) 0.9549(2) 1.5721(2)
H1A H 1.7571 0.9440 1.6413
C4A C 1.7854(4) 1.0701(2) 1.5774(2)
H2A H 1.8237 1.1372 1.6517
C5A C 1.7677(4) 1.0870(2) 1.4742(2)
H3A H 1.7926 1.1652 1.4803
C6A C 1.7130(4) 0.9883(2) 1.3616(2)
H4A H 1.7012 0.9985 1.2919
C7A C 1.6773(3) 0.8749(2) 1.3588(2)
C8A C 1.1652(3) 0.2544(2) 1.19384(19)
C9A C 1.1205(3) 0.1235(2) 1.16682(19)
C10A C 0.9506(3) 0.0568(2) 1.1533(2)
H5A H 0.8469 0.0927 1.1627
C11A C 0.9397(3) -0.0661(2) 1.1251(2)
H6A H 0.8273 -0.1130 1.1159
C12A C 1.0954(3) -0.1195(2) 1.1107(2)
H7A H 1.0849 -0.2015 1.0922
C13A C 1.2656(3) -0.0531(2) 1.1232(2)
H8A H 1.3692 -0.0887 1.1127
C14A C 1.2730(3) 0.0684(2) 1.1520(2)
C15A C 1.0617(3) 0.4901(2) 1.05243(19)
H9A H 1.1876 0.4846 1.0455
H10A H 1.0059 0.4140 1.0488
N1A N 1.0795(3) 0.58939(18) 1.16930(17)
H11A H 1.1625 0.6537 1.1809
H12A H 0.9655 0.6107 1.1642
N2A N 1.2440(3) 0.55178(18) 0.49906(17)
N2A_2 N 1.2440(3) 0.55178(18) 1.49906(17)
H13A H 1.3347 0.6179 0.5522
H13A_2 H 1.3347 0.6179 1.5522
H14A H 1.2953 0.4865 0.4940
H14A_2 H 1.2953 0.4865 1.4940
C16A C 1.0855(3) 0.5481(2) 0.5474(2)
H15A H 1.1268 0.5308 0.6169
H16A H 1.0500 0.6266 0.5731
N3A N 1.5979(3) 0.65353(17) 1.31079(17)
N4A N 1.3455(3) 0.28942(17) 1.19730(18)
O1A O 1.6474(3) 0.68631(16) 1.50666(16)
O2A O 1.4214(3) 0.71737(15) 1.15246(15)
O3A O 1.7539(3) 0.70854(16) 1.17954(17)
O4A O 1.0507(2) 0.32139(15) 1.20902(15)
O5A O 1.6195(3) 0.20342(15) 1.27737(16)
O6A O 1.5041(3) 0.14913(16) 1.06233(16)
O7A O 1.7136(3) 0.39931(16) 1.11679(17)
S1A S 1.60824(8) 0.73181(5) 1.23490(5)
S2A S 1.45998(8) 0.17862(5) 1.17165(5)
Ag1A Ag 1.48659(2) 0.464500(14) 1.236690(14)
Ag2A Ag 1.17035(2) 0.555333(15) 1.325847(14)
Ag2A_2 Ag 1.17035(2) 0.555333(15) 0.325847(14)
H17A H 1.643(4) 0.357(3) 1.0382(17)
H18A H 1.785(4) 0.350(2) 1.143(3)
loop_
_geom_bond_atom_site_label_1
_geom_bond_atom_site_label_2
_geom_bond_site_symmetry_1
_geom_bond_site_symmetry_2
C1 C2 1_555 1_555
C2 C3 1_555 1_555
C3 H1 1_555 1_555
C4 C3 1_555 1_555
H2 C4 1_555 1_555
C5 C4 1_555 1_555
H3 C5 1_555 1_555
C6 C5 1_555 1_555
H4 C6 1_555 1_555
C7 C2 1_555 1_555
C8 C9 1_555 1_555
C9 C10 1_555 1_555
C10 H5 1_555 1_555
C11 C10 1_555 1_555
H6 C11 1_555 1_555
C12 C11 1_555 1_555
H7 C12 1_555 1_555
C13 C12 1_555 1_555
H8 C13 1_555 1_555
C14 C9 1_555 1_555
C15 H9 1_555 1_555
H10 C15 1_555 1_555
N1 C15 1_555 1_555
H11 N1 1_555 1_555
H12 N1 1_555 1_555
N2 H13 1_555 1_555
H14 N2 1_555 1_555
C16 N2 1_555 1_555
H15 C16 1_555 1_555
H16 C16 1_555 1_555
N3 C1 1_555 1_555
N4 C8 1_555 1_555
O1 C1 1_555 1_555
O2 S1 1_555 1_555
O3 S1 1_555 1_555
O4 C8 1_555 1_555
O5 S2 1_555 1_555
O6 S2 1_555 1_555
O7 Ag1 1_555 1_555
S1 C7 1_555 1_555
S2 C14 1_555 1_555
Ag1 N3 1_555 1_555
Ag2 N1 1_555 1_555
H17 O7 1_555 1_555
H18 O7 1_555 1_555
C1A C2A 1_555 1_555
C2A C3A 1_555 1_555
C3A H1A 1_555 1_555
C4A C3A 1_555 1_555
H2A C4A 1_555 1_555
C5A C4A 1_555 1_555
H3A C5A 1_555 1_555
C6A C5A 1_555 1_555
H4A C6A 1_555 1_555
C7A C2A 1_555 1_555
C8A C9A 1_555 1_555
C9A C10A 1_555 1_555
C10A H5A 1_555 1_555
C11A C10A 1_555 1_555
H6A C11A 1_555 1_555
C12A C11A 1_555 1_555
H7A C12A 1_555 1_555
C13A C12A 1_555 1_555
H8A C13A 1_555 1_555
C14A C9A 1_555 1_555
C15A C15 1_555 1_555
H9A C15A 1_555 1_555
H10A C15A 1_555 1_555
N1A C15A 1_555 1_555
H11A N1A 1_555 1_555
H12A N1A 1_555 1_555
N2A H13A 1_555 1_555
N2A_2 H13A_2 1_555 1_555
H14A N2A 1_555 1_555
H14A_2 N2A_2 1_555 1_555
C16A C16 1_555 1_555
H15A C16A 1_555 1_555
H16A C16A 1_555 1_555
N3A C1A 1_555 1_555
N4A C8A 1_555 1_555
O1A C1A 1_555 1_555
O2A S1A 1_555 1_555
O3A S1A 1_555 1_555
O4A C8A 1_555 1_555
O5A S2A 1_555 1_555
O6A S2A 1_555 1_555
O7A Ag1A 1_555 1_555
S1A C7A 1_555 1_555
S2A C14A 1_555 1_555
Ag1A N3A 1_555 1_555
Ag2A N1A 1_555 1_555
Ag2A_2 N2A 1_555 1_555
H17A O7A 1_555 1_555
H18A O7A 1_555 1_555
C6 C7 1_555 1_555
C13 C14 1_555 1_555
N2 Ag2 1_555 1_555
N3 S1 1_555 1_555
N4 S2 1_555 1_555
N4 Ag1 1_555 1_555
O4 Ag2 1_555 1_555
Ag1 Ag2 1_555 1_555
C6A C7A 1_555 1_555
C13A C14A 1_555 1_555
N2A C16A 1_555 1_555
N2A_2 Ag2A 1_555 1_555
N3A S1A 1_555 1_555
N4A S2A 1_555 1_555
N4A Ag1A 1_555 1_555
O4A Ag2A 1_555 1_555
Ag1A Ag2A 1_555 1_555

#END
