
#######################################################################
#
#                 Cambridge Crystallographic Data Centre
#                                CCDC 
#
#######################################################################
#
# If this CIF has been generated from an entry in the Cambridge 
# Structural Database, then it will include bibliographic, chemical, 
# crystal, experimental, refinement or atomic coordinate data resulting 
# from the CCDC's data processing and validation procedures.
#
#######################################################################

data_WASREO
_symmetry_cell_setting           monoclinic
_symmetry_space_group_name_H-M   'C 2'
_symmetry_Int_Tables_number      5
_space_group_name_Hall           'C 2y'
loop_
_symmetry_equiv_pos_site_id
_symmetry_equiv_pos_as_xyz
1 x,y,z
2 -x,y,-z
3 1/2+x,1/2+y,z
4 1/2-x,1/2+y,-z
_cell_length_a                   19.242(3)
_cell_length_b                   9.311(1)
_cell_length_c                   5.4149(6)
_cell_angle_alpha                90
_cell_angle_beta                 93.181(6)
_cell_angle_gamma                90
_cell_volume                     968.651
loop_
_atom_site_label
_atom_site_type_symbol
_atom_site_fract_x
_atom_site_fract_y
_atom_site_fract_z
Cu1 Cu 0.18981(6) 0.006(4) 0.4324(2)
O1 O 0.2392(4) 0.192(4) 0.481(1)
O2 O 0.2514(4) 0.409(4) 0.313(1)
O3 O 0.1123(4) 0.052(4) -0.264(1)
N1 N 0.1564(5) 0.096(4) 0.134(1)
N2 N 0.1352(5) -0.165(4) 0.296(2)
C1 C 0.2276(6) 0.283(4) 0.311(2)
C2 C 0.1765(6) 0.241(4) 0.091(2)
C3 C 0.1129(6) 0.344(4) 0.057(2)
C4 C 0.1339(8) 0.486(4) -0.049(3)
C5 C 0.1277(5) 0.016(5) -0.043(1)
C6 C 0.1131(6) -0.139(4) 0.032(2)
C7 C 0.0738(8) 0.351(5) 0.291(3)
Cu1C Cu 0.31019(6) -0.494(4) 0.5676(2)
Cu1C_2 Cu 0.31019(6) 0.506(4) 0.5676(2)
Cu1_2 Cu 0.18981(6) 0.006(4) -0.5676(2)
Cu1C_3 Cu 0.31019(6) -0.494(4) 1.5676(2)
O1C O 0.2608(4) -0.308(4) 0.519(1)
O2C O 0.2486(4) -0.091(4) 0.687(1)
O2_2 O 0.2514(4) -0.591(4) 0.313(1)
O3C O 0.3877(4) -0.448(4) 1.264(1)
O3_2 O 0.1123(4) 0.052(4) 0.736(1)
O3C_2 O 0.3877(4) -0.448(4) 0.264(1)
N1C N 0.3436(5) -0.404(4) 0.866(1)
N2C N 0.3648(5) -0.665(4) 0.704(2)
C1C C 0.2724(6) -0.217(4) 0.689(2)
C2C C 0.3235(6) -0.259(4) 0.909(2)
C3C C 0.3871(6) -0.156(4) 0.943(2)
C4C C 0.3661(8) -0.014(4) 1.049(3)
C5C C 0.3723(5) -0.484(5) 1.043(1)
C6C C 0.3869(6) -0.639(4) 0.968(2)
C7C C 0.4262(8) -0.149(5) 0.709(3)
O4 O 0.5000 0.417(4) 0.5000
loop_
_geom_bond_atom_site_label_1
_geom_bond_atom_site_label_2
_geom_bond_site_symmetry_1
_geom_bond_site_symmetry_2
Cu1 O1 1_555 1_555
O1 C1 1_555 1_555
O2 C1 1_555 1_555
O3 C5 1_555 1_555
N1 Cu1 1_555 1_555
N2 Cu1 1_555 1_555
C1 C2 1_555 1_555
C2 N1 1_555 1_555
C3 C2 1_555 1_555
C4 C3 1_555 1_555
C5 N1 1_555 1_555
C6 N2 1_555 1_555
C7 C3 1_555 1_555
Cu1C O1C 1_555 1_555
Cu1C_2 O2 1_555 1_555
Cu1_2 O3 1_555 1_555
Cu1C_3 O3C 1_555 1_555
O1C C1C 1_555 1_555
O2C Cu1 1_555 1_555
O2_2 Cu1C 1_555 1_555
O3C C5C 1_555 1_555
O3_2 Cu1 1_555 1_555
O3C_2 Cu1C 1_555 1_555
N1C Cu1C 1_555 1_555
N2C Cu1C 1_555 1_555
C1C O2C 1_555 1_555
C2C N1C 1_555 1_555
C3C C2C 1_555 1_555
C4C C3C 1_555 1_555
C5C N1C 1_555 1_555
C6C N2C 1_555 1_555
C7C C3C 1_555 1_555
C5 C6 1_555 1_555
C1C C2C 1_555 1_555
C5C C6C 1_555 1_555

#END
