
#######################################################################
#
#                 Cambridge Crystallographic Data Centre
#                                CCDC 
#
#######################################################################
#
# If this CIF has been generated from an entry in the Cambridge 
# Structural Database, then it will include bibliographic, chemical, 
# crystal, experimental, refinement or atomic coordinate data resulting 
# from the CCDC's data processing and validation procedures.
#
#######################################################################

data_WASRAK
_symmetry_cell_setting           orthorhombic
_symmetry_space_group_name_H-M   'P 21 21 21'
_symmetry_Int_Tables_number      19
_space_group_name_Hall           'P 2ac 2ab'
loop_
_symmetry_equiv_pos_site_id
_symmetry_equiv_pos_as_xyz
1 x,y,z
2 1/2-x,-y,1/2+z
3 1/2+x,1/2-y,-z
4 -x,1/2+y,1/2-z
_cell_length_a                   9.694(2)
_cell_length_b                   9.962(3)
_cell_length_c                   9.301(4)
_cell_angle_alpha                90
_cell_angle_beta                 90
_cell_angle_gamma                90
_cell_volume                     898.213
loop_
_atom_site_label
_atom_site_type_symbol
_atom_site_fract_x
_atom_site_fract_y
_atom_site_fract_z
Cu1 Cu 0.1776(1) 0.0965(2) 0.9417(1)
O1 O 0.2340(8) 0.0112(10) 1.1272(8)
O2 O 0.1534(7) -0.0346(9) 1.3476(7)
O3 O -0.2169(7) 0.1934(9) 1.0220(8)
N1 N 0.0050(8) 0.110(1) 1.0350(9)
N2 N 0.0772(9) 0.183(1) 0.7766(9)
C1 C 0.138(1) 0.008(1) 1.219(1)
C2 C -0.009(1) 0.048(1) 1.177(1)
C3 C -0.105(1) -0.075(1) 1.178(1)
C4 C -0.083(2) -0.169(2) 1.059(2)
C5 C -0.097(1) 0.171(1) 0.971(1)
C6 C -0.063(1) 0.222(1) 0.822(1)
Cu1A Cu 0.3224(1) -0.0965(2) 1.4417(1)
Cu1B Cu -0.3224(1) 0.4035(2) 1.0583(1)
O2A O 0.3466(7) 0.0346(9) 0.8476(7)
O3B O 0.2831(7) 0.3066(9) 0.9780(8)
O4 O -0.4313(8) 0.000(1) 1.051(1)
loop_
_geom_bond_atom_site_label_1
_geom_bond_atom_site_label_2
_geom_bond_site_symmetry_1
_geom_bond_site_symmetry_2
Cu1 O1 1_555 1_555
O1 C1 1_555 1_555
O2 C1 1_555 1_555
O3 C5 1_555 1_555
N1 Cu1 1_555 1_555
N2 Cu1 1_555 1_555
C1 C2 1_555 1_555
C2 N1 1_555 1_555
C3 C2 1_555 1_555
C4 C3 1_555 1_555
C5 N1 1_555 1_555
C6 N2 1_555 1_555
Cu1A O2 1_555 1_555
Cu1B O3 1_555 1_555
O2A Cu1 1_555 1_555
O3B Cu1 1_555 1_555
C5 C6 1_555 1_555

#END
