
#######################################################################
#
#                 Cambridge Crystallographic Data Centre
#                                CCDC 
#
#######################################################################
#
# If this CIF has been generated from an entry in the Cambridge 
# Structural Database, then it will include bibliographic, chemical, 
# crystal, experimental, refinement or atomic coordinate data resulting 
# from the CCDC's data processing and validation procedures.
#
#######################################################################

data_WASSOZ
_symmetry_cell_setting           triclinic
_symmetry_space_group_name_H-M   'P -1'
_symmetry_Int_Tables_number      2
_space_group_name_Hall           '-P 1'
loop_
_symmetry_equiv_pos_site_id
_symmetry_equiv_pos_as_xyz
1 x,y,z
2 -x,-y,-z
_cell_length_a                   6.3850(10)
_cell_length_b                   9.4040(10)
_cell_length_c                   10.8410(10)
_cell_angle_alpha                83.010(10)
_cell_angle_beta                 78.460(10)
_cell_angle_gamma                71.740(10)
_cell_volume                     604.449
loop_
_atom_site_label
_atom_site_type_symbol
_atom_site_fract_x
_atom_site_fract_y
_atom_site_fract_z
Na1 Na -0.0727(2) 0.53005(13) 0.84986(10)
P1 P -0.08347(11) 0.02149(8) 0.32358(6)
C1 C -0.3452(4) 0.3901(3) 0.6837(2)
C2 C -0.1841(4) 0.3677(3) 0.4597(2)
C3 C -0.3201(4) 0.2740(3) 0.4521(2)
C4 C -0.4609(4) 0.2485(3) 0.5570(3)
H1 H -0.5520(4) 0.1896(3) 0.5530(3)
C5 C -0.2963(4) 0.2023(3) 0.3313(3)
H2 H -0.4387(4) 0.1895(3) 0.3249(3)
H3 H -0.2575(4) 0.2681(3) 0.2603(3)
N1 N -0.4740(4) 0.3067(3) 0.6694(2)
H4 H -0.5686(4) 0.2889(3) 0.7332(2)
N2 N -0.2055(3) 0.4182(3) 0.5768(2)
H5 H -0.1229(3) 0.4728(3) 0.5833(2)
O1 O -0.3506(3) 0.4412(2) 0.7854(2)
O2 O -0.0564(3) 0.4087(2) 0.3701(2)
O3 O -0.1569(3) -0.0805(2) 0.4327(2)
O4 O 0.1364(3) 0.0509(2) 0.3396(2)
O5 O -0.0555(3) -0.0367(2) 0.1959(2)
O6 O 0.1773(3) 0.2697(2) 0.8575(2)
O7 O 0.2319(3) 0.5553(2) 0.9453(2)
O8 O -0.2810(3) 0.7823(2) 0.8916(2)
Na1A Na 0.0727(2) 0.46995(13) 0.15014(10)
Na1A_2 Na 0.0727(2) 0.46995(13) 1.15014(10)
O2A O 0.0564(3) 0.5913(2) 0.6299(2)
O7A O -0.2319(3) 0.4447(2) 1.0547(2)
O9 O 0.2621(3) 0.8432(2) 0.9832(2)
loop_
_geom_bond_atom_site_label_1
_geom_bond_atom_site_label_2
_geom_bond_site_symmetry_1
_geom_bond_site_symmetry_2
Na1 O1 1_555 1_555
P1 C5 1_555 1_555
C1 N1 1_555 1_555
C2 C3 1_555 1_555
C3 C4 1_555 1_555
C4 H1 1_555 1_555
C5 C3 1_555 1_555
H2 C5 1_555 1_555
H3 C5 1_555 1_555
N1 C4 1_555 1_555
H4 N1 1_555 1_555
N2 C1 1_555 1_555
H5 N2 1_555 1_555
O1 C1 1_555 1_555
O2 C2 1_555 1_555
O3 P1 1_555 1_555
O4 P1 1_555 1_555
O5 P1 1_555 1_555
O6 Na1 1_555 1_555
O7 Na1 1_555 1_555
O8 Na1 1_555 1_555
Na1A O2 1_555 1_555
Na1A_2 O7 1_555 1_555
O2A Na1 1_555 1_555
O7A Na1 1_555 1_555
C2 N2 1_555 1_555
Na1A_2 O7A 1_555 1_555

#END
