
#######################################################################
#
#                 Cambridge Crystallographic Data Centre
#                                CCDC 
#
#######################################################################
#
# If this CIF has been generated from an entry in the Cambridge 
# Structural Database, then it will include bibliographic, chemical, 
# crystal, experimental, refinement or atomic coordinate data resulting 
# from the CCDC's data processing and validation procedures.
#
#######################################################################

data_WASTEQ
_symmetry_cell_setting           triclinic
_symmetry_space_group_name_H-M   'P -1'
_symmetry_Int_Tables_number      2
_space_group_name_Hall           '-P 1'
loop_
_symmetry_equiv_pos_site_id
_symmetry_equiv_pos_as_xyz
1 x,y,z
2 -x,-y,-z
_cell_length_a                   9.469(3)
_cell_length_b                   13.271(4)
_cell_length_c                   13.508(4)
_cell_angle_alpha                80.028(7)
_cell_angle_beta                 78.940(8)
_cell_angle_gamma                86.796(7)
_cell_volume                     1640.31
loop_
_atom_site_label
_atom_site_type_symbol
_atom_site_fract_x
_atom_site_fract_y
_atom_site_fract_z
Cd1 Cd -0.5000 -1.0000 0.5000
Cl1 Cl -0.64811(8) -0.90323(6) 0.36649(6)
N1 N 0.0147(3) -0.6748(2) 0.1475(2)
N2 N 0.2160(3) -0.4757(2) -0.1312(2)
N3 N -0.2723(3) -0.5154(2) 0.6086(2)
N4 N -0.0423(3) -0.3008(2) 0.3606(2)
N5 N -0.2804(3) -0.9544(2) 0.3757(2)
N6 N -0.4767(3) -0.8453(2) 0.5579(2)
N7 N 0.4520(3) -0.2213(2) 0.0333(2)
N8 N 0.1960(4) -0.0382(3) 0.0746(3)
C1 C 0.0709(4) -0.7770(3) 0.1862(3)
H1 H 0.1435 -0.7698 0.2262
H2 H 0.1162 -0.8099 0.1290
C2 C -0.4016(4) -0.5692(3) 0.6646(3)
H3 H -0.4845 -0.5238 0.6590
H4 H -0.3949 -0.5855 0.7364
C3 C 0.3286(4) -0.4003(3) -0.1727(3)
H5 H 0.4130 -0.4352 -0.2051
H6 H 0.2954 -0.3508 -0.2256
C4 C -0.0614(4) -0.1892(3) 0.3540(3)
H7 H -0.0336 -0.1684 0.4128
H8 H -0.1620 -0.1702 0.3549
C5 C 0.1257(4) -0.6139(3) 0.0752(3)
H9 H 0.2095 -0.6138 0.1067
H10 H 0.0900 -0.5439 0.0624
C6 C 0.1725(4) -0.6514(3) -0.0274(3)
H11 H 0.2173 -0.7190 -0.0164
H12 H 0.0887 -0.6566 -0.0576
C7 C 0.2784(4) -0.5781(3) -0.1003(3)
H13 H 0.3592 -0.5707 -0.0678
H14 H 0.3150 -0.6079 -0.1612
C8 C -0.0418(4) -0.6210(3) 0.2333(3)
H15 H 0.0377 -0.6068 0.2642
H16 H -0.1061 -0.6660 0.2845
C9 C 0.1227(4) -0.4792(3) -0.2048(3)
H17 H 0.1807 -0.4980 -0.2665
H18 H 0.0531 -0.5325 -0.1766
C10 C -0.1417(4) -0.5594(3) 0.6441(3)
H19 H -0.1558 -0.5630 0.7176
H20 H -0.0624 -0.5142 0.6134
C11 C -0.2894(4) -0.4058(2) 0.6174(3)
H21 H -0.2857 -0.3985 0.6870
H22 H -0.3838 -0.3818 0.6042
C12 C -0.1763(4) -0.3383(3) 0.5449(3)
H23 H -0.0843 -0.3527 0.5665
H24 H -0.2021 -0.2671 0.5488
C13 C -0.1610(4) -0.3548(3) 0.4340(3)
H25 H -0.1476 -0.4275 0.4325
H26 H -0.2505 -0.3333 0.4110
C14 C -0.1008(4) -0.6660(3) 0.6184(3)
H27 H -0.1020 -0.6655 0.5467
H28 H -0.1714 -0.7143 0.6586
C15 C -0.0480(4) -0.8432(3) 0.2518(3)
C16 C -0.0449(4) -0.8848(3) 0.3540(3)
H29 H 0.0346 -0.8761 0.3826
C17 C -0.1616(4) -0.9392(3) 0.4120(3)
H30 H -0.1579 -0.9668 0.4796
C18 C -0.2805(4) -0.9166(3) 0.2767(3)
H31 H -0.3601 -0.9278 0.2493
C19 C -0.1690(4) -0.8621(3) 0.2139(3)
H32 H -0.1743 -0.8377 0.1459
C20 C -0.4257(3) -0.6668(3) 0.6274(3)
C21 C -0.4796(4) -0.7526(3) 0.6953(3)
H33 H -0.5001 -0.7514 0.7653
C22 C -0.5026(4) -0.8400(3) 0.6581(3)
H34 H -0.5375 -0.8974 0.7045
C23 C -0.4283(4) -0.7612(3) 0.4927(3)
H35 H -0.4120 -0.7633 0.4230
C24 C -0.4017(4) -0.6722(3) 0.5236(3)
H36 H -0.3678 -0.6157 0.4755
C25 C 0.3732(4) -0.3429(3) -0.0974(3)
C26 C 0.4880(4) -0.2772(3) -0.1297(3)
H37 H 0.5413 -0.2726 -0.1957
C27 C 0.5223(4) -0.2187(3) -0.0631(3)
H38 H 0.5990 -0.1746 -0.0865
C28 C 0.3414(4) -0.2829(3) 0.0628(3)
H39 H 0.2895 -0.2849 0.1289
C29 C 0.2972(4) -0.3446(3) 0.0022(3)
H40 H 0.2183 -0.3863 0.0273
C30 C 0.0290(4) -0.1345(3) 0.2570(3)
C31 C -0.0077(4) -0.1369(3) 0.1631(3)
H41 H -0.0894 -0.1708 0.1594
C32 C 0.0774(5) -0.0889(3) 0.0754(3)
H42 H 0.0511 -0.0919 0.0131
C33 C 0.2333(4) -0.0368(3) 0.1643(3)
H43 H 0.3169 -0.0038 0.1655
C34 C 0.1519(4) -0.0830(3) 0.2571(3)
H44 H 0.1804 -0.0791 0.3185
Cd1_2 Cd 0.5000 0.0000 -0.5000
Cd1_3 Cd 0.5000 0.0000 0.5000
Cl1A Cl -0.35189(8) -1.09677(6) 0.63351(6)
N1A N -0.0147(3) -0.3252(2) -0.1475(2)
N2A N -0.2160(3) -0.5243(2) 0.1312(2)
N3A N 0.2723(3) -0.4846(2) 0.3914(2)
N4A N 0.0423(3) -0.6992(2) 0.6394(2)
N5A N 0.2804(3) -0.0456(2) -0.3757(2)
N5A_2 N -0.7196(3) -1.0456(2) 0.6243(2)
N6A N 0.4767(3) -0.1547(2) 0.4421(2)
N6A_2 N -0.5233(3) -1.1547(2) 0.4421(2)
N7A N -0.4520(3) -0.7787(2) -0.0333(2)
N8A N -0.1960(4) -0.9618(3) 0.9254(3)
C1A C -0.0709(4) -0.2230(3) -0.1862(3)
H1A H -0.1435 -0.2302 -0.2262
H2A H -0.1162 -0.1901 -0.1290
C2A C 0.4016(4) -0.4308(3) 0.3354(3)
H3A H 0.4845 -0.4762 0.3410
H4A H 0.3949 -0.4145 0.2636
C3A C -0.3286(4) -0.5997(3) 0.1727(3)
H5A H -0.4130 -0.5648 0.2051
H6A H -0.2954 -0.6492 0.2256
C4A C 0.0614(4) -0.8108(3) 0.6460(3)
H7A H 0.0336 -0.8316 0.5872
H8A H 0.1620 -0.8298 0.6451
C5A C -0.1257(4) -0.3861(3) -0.0752(3)
H9A H -0.2095 -0.3862 -0.1067
H10A H -0.0900 -0.4561 -0.0624
C6A C -0.1725(4) -0.3486(3) 0.0274(3)
H11A H -0.2173 -0.2810 0.0164
H12A H -0.0887 -0.3434 0.0576
C7A C -0.2784(4) -0.4219(3) 0.1003(3)
H13A H -0.3592 -0.4293 0.0678
H14A H -0.3150 -0.3921 0.1612
C8A C 0.0418(4) -0.3790(3) -0.2333(3)
H15A H -0.0377 -0.3932 -0.2642
H16A H 0.1061 -0.3340 -0.2845
C9A C -0.1227(4) -0.5208(3) 0.2048(3)
H17A H -0.1807 -0.5020 0.2665
H18A H -0.0531 -0.4675 0.1766
C10A C 0.1417(4) -0.4406(3) 0.3559(3)
H19A H 0.1558 -0.4370 0.2824
H20A H 0.0624 -0.4858 0.3866
C11A C 0.2894(4) -0.5942(2) 0.3826(3)
H21A H 0.2857 -0.6015 0.3130
H22A H 0.3838 -0.6182 0.3958
C12A C 0.1763(4) -0.6617(3) 0.4551(3)
H23A H 0.0843 -0.6473 0.4335
H24A H 0.2021 -0.7329 0.4512
C13A C 0.1610(4) -0.6452(3) 0.5660(3)
H25A H 0.1476 -0.5725 0.5675
H26A H 0.2505 -0.6667 0.5890
C14A C 0.1008(4) -0.3340(3) 0.3816(3)
H27A H 0.1020 -0.3345 0.4533
H28A H 0.1714 -0.2857 0.3414
C15A C 0.0480(4) -0.1568(3) -0.2518(3)
C16A C 0.0449(4) -0.1152(3) -0.3540(3)
H29A H -0.0346 -0.1239 -0.3826
C17A C 0.1616(4) -0.0608(3) -0.4120(3)
H30A H 0.1579 -0.0332 -0.4796
C18A C 0.2805(4) -0.0834(3) -0.2767(3)
H31A H 0.3601 -0.0722 -0.2493
C19A C 0.1690(4) -0.1379(3) -0.2139(3)
H32A H 0.1743 -0.1623 -0.1459
C20A C 0.4257(3) -0.3332(3) 0.3726(3)
C21A C 0.4796(4) -0.2474(3) 0.3047(3)
H33A H 0.5001 -0.2486 0.2347
C22A C 0.5026(4) -0.1600(3) 0.3419(3)
H34A H 0.5375 -0.1026 0.2955
C23A C 0.4283(4) -0.2388(3) 0.5073(3)
H35A H 0.4120 -0.2367 0.5770
C24A C 0.4017(4) -0.3278(3) 0.4764(3)
H36A H 0.3678 -0.3843 0.5245
C25A C -0.3732(4) -0.6571(3) 0.0974(3)
C26A C -0.4880(4) -0.7228(3) 0.1297(3)
H37A H -0.5413 -0.7274 0.1957
C27A C -0.5223(4) -0.7813(3) 0.0631(3)
H38A H -0.5990 -0.8254 0.0865
C28A C -0.3414(4) -0.7171(3) -0.0628(3)
H39A H -0.2895 -0.7151 -0.1289
C29A C -0.2972(4) -0.6554(3) -0.0022(3)
H40A H -0.2183 -0.6137 -0.0273
C30A C -0.0290(4) -0.8655(3) 0.7430(3)
C31A C 0.0077(4) -0.8631(3) 0.8369(3)
H41A H 0.0894 -0.8292 0.8406
C32A C -0.0774(5) -0.9111(3) 0.9246(3)
H42A H -0.0511 -0.9081 0.9869
C33A C -0.2333(4) -0.9632(3) 0.8357(3)
H43A H -0.3169 -0.9962 0.8345
C34A C -0.1519(4) -0.9170(3) 0.7429(3)
H44A H -0.1804 -0.9209 0.6815
O1 O 0.3834(4) 0.0683(3) -0.1082(2)
H45 H 0.3284 0.0433 -0.0647
H46 H 0.4327 0.1096 -0.0894
O2 O 0.5000 0.0000 0.0000
loop_
_geom_bond_atom_site_label_1
_geom_bond_atom_site_label_2
_geom_bond_site_symmetry_1
_geom_bond_site_symmetry_2
Cd1 Cl1 1_555 1_555
N1 C1 1_555 1_555
N2 C3 1_555 1_555
N3 C2 1_555 1_555
N4 C4 1_555 1_555
N5 Cd1 1_555 1_555
N6 Cd1 1_555 1_555
N7 C27 1_555 1_555
N8 C32 1_555 1_555
C1 H1 1_555 1_555
H2 C1 1_555 1_555
C2 H3 1_555 1_555
H4 C2 1_555 1_555
C3 H5 1_555 1_555
H6 C3 1_555 1_555
C4 H7 1_555 1_555
H8 C4 1_555 1_555
C5 N1 1_555 1_555
H9 C5 1_555 1_555
H10 C5 1_555 1_555
C6 C5 1_555 1_555
H11 C6 1_555 1_555
H12 C6 1_555 1_555
C7 N2 1_555 1_555
H13 C7 1_555 1_555
H14 C7 1_555 1_555
C8 N1 1_555 1_555
H15 C8 1_555 1_555
H16 C8 1_555 1_555
C9 N2 1_555 1_555
H17 C9 1_555 1_555
H18 C9 1_555 1_555
C10 N3 1_555 1_555
H19 C10 1_555 1_555
H20 C10 1_555 1_555
C11 N3 1_555 1_555
H21 C11 1_555 1_555
H22 C11 1_555 1_555
C12 C11 1_555 1_555
H23 C12 1_555 1_555
H24 C12 1_555 1_555
C13 N4 1_555 1_555
H25 C13 1_555 1_555
H26 C13 1_555 1_555
C14 C10 1_555 1_555
H27 C14 1_555 1_555
H28 C14 1_555 1_555
C15 C1 1_555 1_555
C16 C15 1_555 1_555
H29 C16 1_555 1_555
C17 N5 1_555 1_555
H30 C17 1_555 1_555
C18 N5 1_555 1_555
H31 C18 1_555 1_555
C19 C15 1_555 1_555
H32 C19 1_555 1_555
C20 C2 1_555 1_555
C21 C20 1_555 1_555
H33 C21 1_555 1_555
C22 N6 1_555 1_555
H34 C22 1_555 1_555
C23 N6 1_555 1_555
H35 C23 1_555 1_555
C24 C20 1_555 1_555
H36 C24 1_555 1_555
C25 C3 1_555 1_555
C26 C25 1_555 1_555
H37 C26 1_555 1_555
C27 C26 1_555 1_555
H38 C27 1_555 1_555
C28 N7 1_555 1_555
H39 C28 1_555 1_555
C29 C25 1_555 1_555
H40 C29 1_555 1_555
C30 C4 1_555 1_555
C31 C30 1_555 1_555
H41 C31 1_555 1_555
C32 C31 1_555 1_555
H42 C32 1_555 1_555
C33 N8 1_555 1_555
H43 C33 1_555 1_555
C34 C30 1_555 1_555
H44 C34 1_555 1_555
O1 H45 1_555 1_555
H46 O1 1_555 1_555
Cd1_2 N5A 1_555 1_555
Cd1_3 N6A 1_555 1_555
Cl1A Cd1 1_555 1_555
N1A C1A 1_555 1_555
N2A C3A 1_555 1_555
N3A C2A 1_555 1_555
N4A C14 1_555 1_555
N5A C17A 1_555 1_555
N5A_2 Cd1 1_555 1_555
N6A C22A 1_555 1_555
N6A_2 Cd1 1_555 1_555
N7A C27A 1_555 1_555
N8A C32A 1_555 1_555
C1A H1A 1_555 1_555
H2A C1A 1_555 1_555
C2A H3A 1_555 1_555
H4A C2A 1_555 1_555
C3A H5A 1_555 1_555
H6A C3A 1_555 1_555
C4A N4A 1_555 1_555
H7A C4A 1_555 1_555
H8A C4A 1_555 1_555
C5A N1A 1_555 1_555
H9A C5A 1_555 1_555
H10A C5A 1_555 1_555
C6A C5A 1_555 1_555
H11A C6A 1_555 1_555
H12A C6A 1_555 1_555
C7A N2A 1_555 1_555
H13A C7A 1_555 1_555
H14A C7A 1_555 1_555
C8A C9 1_555 1_555
H15A C8A 1_555 1_555
H16A C8A 1_555 1_555
C9A C8 1_555 1_555
H17A C9A 1_555 1_555
H18A C9A 1_555 1_555
C10A N3A 1_555 1_555
H19A C10A 1_555 1_555
H20A C10A 1_555 1_555
C11A N3A 1_555 1_555
H21A C11A 1_555 1_555
H22A C11A 1_555 1_555
C12A C11A 1_555 1_555
H23A C12A 1_555 1_555
H24A C12A 1_555 1_555
C13A N4A 1_555 1_555
H25A C13A 1_555 1_555
H26A C13A 1_555 1_555
C14A N4 1_555 1_555
H27A C14A 1_555 1_555
H28A C14A 1_555 1_555
C15A C1A 1_555 1_555
C16A C15A 1_555 1_555
H29A C16A 1_555 1_555
C17A C16A 1_555 1_555
H30A C17A 1_555 1_555
C18A N5A 1_555 1_555
H31A C18A 1_555 1_555
C19A C15A 1_555 1_555
H32A C19A 1_555 1_555
C20A C2A 1_555 1_555
C21A C20A 1_555 1_555
H33A C21A 1_555 1_555
C22A C21A 1_555 1_555
H34A C22A 1_555 1_555
C23A N6A 1_555 1_555
H35A C23A 1_555 1_555
C24A C20A 1_555 1_555
H36A C24A 1_555 1_555
C25A C3A 1_555 1_555
C26A C25A 1_555 1_555
H37A C26A 1_555 1_555
C27A C26A 1_555 1_555
H38A C27A 1_555 1_555
C28A N7A 1_555 1_555
H39A C28A 1_555 1_555
C29A C25A 1_555 1_555
H40A C29A 1_555 1_555
C30A C4A 1_555 1_555
C31A C30A 1_555 1_555
H41A C31A 1_555 1_555
C32A C31A 1_555 1_555
H42A C32A 1_555 1_555
C33A N8A 1_555 1_555
H43A C33A 1_555 1_555
C34A C30A 1_555 1_555
H44A C34A 1_555 1_555
C6 C7 1_555 1_555
C12 C13 1_555 1_555
C16 C17 1_555 1_555
C18 C19 1_555 1_555
C21 C22 1_555 1_555
C23 C24 1_555 1_555
C28 C29 1_555 1_555
C33 C34 1_555 1_555
N1A C8A 1_555 1_555
N2A C9A 1_555 1_555
C6A C7A 1_555 1_555
C10A C14A 1_555 1_555
C12A C13A 1_555 1_555
C18A C19A 1_555 1_555
C23A C24A 1_555 1_555
C28A C29A 1_555 1_555
C33A C34A 1_555 1_555

#END
