
#######################################################################
#
#                 Cambridge Crystallographic Data Centre
#                                CCDC 
#
#######################################################################
#
# If this CIF has been generated from an entry in the Cambridge 
# Structural Database, then it will include bibliographic, chemical, 
# crystal, experimental, refinement or atomic coordinate data resulting 
# from the CCDC's data processing and validation procedures.
#
#######################################################################

data_WASVAO
_symmetry_cell_setting           monoclinic
_symmetry_space_group_name_H-M   'P 21/m'
_symmetry_Int_Tables_number      11
_space_group_name_Hall           '-P 2yb'
loop_
_symmetry_equiv_pos_site_id
_symmetry_equiv_pos_as_xyz
1 x,y,z
2 -x,1/2+y,-z
3 -x,-y,-z
4 x,1/2-y,z
_cell_length_a                   11.6693(2)
_cell_length_b                   17.7590(4)
_cell_length_c                   17.20280(10)
_cell_angle_alpha                90
_cell_angle_beta                 106.3340(10)
_cell_angle_gamma                90
_cell_volume                     3421.13
loop_
_atom_site_label
_atom_site_type_symbol
_atom_site_fract_x
_atom_site_fract_y
_atom_site_fract_z
C17 C 0.218(2) 0.2500 0.2419(15)
C18 C 0.223(2) 0.3138(14) 0.2858(14)
H13 H 0.2113 0.3601 0.2594
C19 C 0.244(3) 0.3118(15) 0.3665(15)
H14 H 0.2476 0.3569 0.3946
N5 N 0.258(3) 0.2500 0.406(2)
H15 H 0.2769 0.2500 0.4580
C20 C 0.225(2) 0.2500 0.1590(14)
C21 C 0.225(2) 0.1834(14) 0.1161(15)
H16 H 0.2091 0.1384 0.1388
C22 C 0.248(3) 0.1813(14) 0.0392(17)
H17 H 0.2500 0.1372 0.0105
N6 N 0.266(3) 0.2500 0.013(2)
H18 H 0.2941 0.2500 -0.0284
C18C C 0.223(2) 0.1862(14) 0.2858(14)
H13C H 0.2113 0.1399 0.2594
C19C C 0.244(3) 0.1882(15) 0.3665(15)
H14C H 0.2476 0.1431 0.3946
C21C C 0.225(2) 0.3166(14) 0.1161(15)
H16C H 0.2091 0.3616 0.1388
C22C C 0.248(3) 0.3187(14) 0.0392(17)
H17C H 0.2500 0.3628 0.0105
O26 O 0.033(2) 0.9755(13) 0.8060(15)
O27 O 0.990(3) 0.945(2) 0.930(2)
O28 O 0.2536(16) 0.0238(10) 0.8697(11)
Mo1 Mo 0.32001(17) 0.2500 0.78762(12)
Mo2 Mo 0.51982(13) 0.15359(8) 0.93688(9)
Mo3 Mo 0.70610(15) 0.07151(11) 0.89383(11)
Mo4 Mo 0.72692(15) 0.07298(10) 0.70087(12)
Mo5 Mo 0.55399(13) 0.15403(8) 0.57764(9)
Mo6 Mo 0.33383(18) 0.2500 0.64097(12)
Mo7 Mo 0.92941(12) 0.17640(8) 0.84547(10)
Zn1 Zn 0.43898(16) 0.06636(10) 0.73252(11)
Zn2 Zn 0.8366(3) 0.2500 0.6367(2)
Zn3 Zn 0.7912(3) 0.2500 0.9885(2)
P1 P 0.6271(5) 0.2500 0.7794(3)
O1 O 0.1704(13) 0.2500 0.7649(9)
O2 O 0.3579(9) 0.1718(5) 0.7202(6)
O3 O 0.3579(9) 0.1746(7) 0.8760(7)
O4 O 0.5445(13) 0.2500 0.8345(9)
O5 O 0.4998(11) 0.0961(7) 1.0075(7)
O6 O 0.5321(13) 0.2500 0.9910(10)
O7 O 0.5329(9) 0.0860(5) 0.8482(6)
O8 O 0.6956(10) 0.1572(8) 0.9622(7)
O9 O 0.7199(12) -0.0025(10) 0.9570(10)
O10 O 0.7052(10) 0.0241(6) 0.7957(7)
O11 O 0.8716(9) 0.0993(6) 0.9139(7)
O12 O 0.7075(9) 0.1796(5) 0.7985(6)
O13 O 0.7462(13) -0.0005(8) 0.6454(11)
O14 O 0.8837(9) 0.0999(6) 0.7563(7)
O15 O 0.7253(10) 0.1601(7) 0.6294(7)
O16 O 0.5511(9) 0.0863(5) 0.6666(6)
O17 O 0.5430(11) 0.0974(7) 0.5004(7)
O18 O 0.5675(15) 0.2500 0.5313(11)
O19 O 0.3870(10) 0.1743(6) 0.5686(7)
O20 O 0.5541(13) 0.2500 0.6907(9)
O21 O 0.1886(12) 0.2500 0.5930(10)
O22 O 1.0750(9) 0.1577(6) 0.8779(7)
O23 O 0.9049(12) 0.2500 0.7588(10)
O24 O 0.8998(12) 0.2500 0.9246(9)
O25 O 0.9875(16) 0.1665(11) 0.6483(13)
C1 C 0.4659(14) -0.2090(8) 0.7496(10)
C2 C 0.4551(18) -0.1664(9) 0.8137(10)
H1 H 0.4467 -0.1902 0.8599
C3 C 0.4565(16) -0.0894(8) 0.8108(9)
H2 H 0.4508 -0.0625 0.8559
N1 N 0.4657(12) -0.0513(7) 0.7458(8)
C4 C 0.4783(19) -0.0901(10) 0.6852(11)
H3 H 0.4885 -0.0638 0.6409
C5 C 0.4775(18) -0.1686(10) 0.6813(11)
H4 H 0.4844 -0.1936 0.6353
C6 C 0.0557(17) 0.0074(11) 0.5297(12)
C7 C 0.1617(18) 0.0116(11) 0.5090(13)
H5 H 0.1619 0.0043 0.4555
C8 C 0.2685(19) 0.0269(11) 0.5682(13)
H6 H 0.3378 0.0316 0.5520
N2 N 0.2762(14) 0.0347(9) 0.6437(10)
C9 C 0.177(2) 0.0296(13) 0.6666(15)
H7 H 0.1808 0.0347 0.7212
C10 C 0.062(2) 0.0164(13) 0.6091(15)
H8 H -0.0063 0.0140 0.6262
C11 C 0.863(2) 0.2500 0.3601(16)
C12 C 0.841(3) 0.1877(17) 0.3979(19)
H9 H 0.8245 0.1434 0.3680
C13 C 0.842(3) 0.1850(15) 0.4780(19)
H10 H 0.8415 0.1390 0.5037
N3 N 0.842(2) 0.2500 0.5187(14)
C14 C 0.865(2) 0.2500 0.2726(17)
C15 C 0.8634(19) 0.1868(13) 0.2312(14)
H11 H 0.8668 0.1408 0.2577
C16 C 0.857(2) 0.1874(15) 0.1513(16)
H12 H 0.8630 0.1423 0.1254
N4 N 0.843(2) 0.2500 0.1101(16)
Mo2C Mo 0.51982(13) 0.34641(8) 0.93688(9)
Mo3C Mo 0.70610(15) 0.42849(11) 0.89383(11)
Mo4C Mo 0.72692(15) 0.42702(10) 0.70087(12)
Mo5C Mo 0.55399(13) 0.34597(8) 0.57764(9)
Mo7C Mo 0.92941(12) 0.32360(8) 0.84547(10)
Zn1C Zn 0.43898(16) 0.43364(10) 0.73252(11)
Zn1C_2 Zn 0.43898(16) -0.56636(10) 0.73252(11)
Zn1B Zn -0.43898(16) -0.06636(10) 0.26748(11)
Zn3_2 Zn 0.7912(3) 0.2500 -0.0115(2)
O2C O 0.3579(9) 0.3282(5) 0.7202(6)
O3C O 0.3579(9) 0.3254(7) 0.8760(7)
O5C O 0.4998(11) 0.4039(7) 1.0075(7)
O7C O 0.5329(9) 0.4140(5) 0.8482(6)
O8C O 0.6956(10) 0.3428(8) 0.9622(7)
O9C O 0.7199(12) 0.5025(10) 0.9570(10)
O10C O 0.7052(10) 0.4759(6) 0.7957(7)
O11C O 0.8716(9) 0.4007(6) 0.9139(7)
O12C O 0.7075(9) 0.3204(5) 0.7985(6)
O13C O 0.7462(13) 0.5005(8) 0.6454(11)
O14C O 0.8837(9) 0.4001(6) 0.7563(7)
O15C O 0.7253(10) 0.3399(7) 0.6294(7)
O16C O 0.5511(9) 0.4137(5) 0.6666(6)
O17C O 0.5430(11) 0.4026(7) 0.5004(7)
O19C O 0.3870(10) 0.3257(6) 0.5686(7)
O22C O 1.0750(9) 0.3423(6) 0.8779(7)
O25C O 0.9875(16) 0.3335(11) 0.6483(13)
C1C C 0.4659(14) -0.2910(8) 0.7496(10)
C2C C 0.4551(18) -0.3336(9) 0.8137(10)
H1C H 0.4467 -0.3098 0.8599
C3C C 0.4565(16) -0.4106(8) 0.8108(9)
H2C H 0.4508 -0.4375 0.8559
N1C N 0.4657(12) -0.4487(7) 0.7458(8)
N1C_2 N 0.4657(12) 0.5513(7) 0.7458(8)
C4C C 0.4783(19) -0.4099(10) 0.6852(11)
H3C H 0.4885 -0.4362 0.6409
C5C C 0.4775(18) -0.3314(10) 0.6813(11)
H4C H 0.4844 -0.3064 0.6353
C6B C -0.0557(17) -0.0074(11) 0.4703(12)
C7B C -0.1617(18) -0.0116(11) 0.4910(13)
H5B H -0.1619 -0.0043 0.5445
C8B C -0.2685(19) -0.0269(11) 0.4318(13)
H6B H -0.3378 -0.0316 0.4480
N2B N -0.2762(14) -0.0347(9) 0.3563(10)
N2C N 0.2762(14) 0.4653(9) 0.6437(10)
C9B C -0.177(2) -0.0296(13) 0.3334(15)
H7B H -0.1808 -0.0347 0.2788
C10B C -0.062(2) -0.0164(13) 0.3909(15)
H8B H 0.0063 -0.0140 0.3738
C12C C 0.841(3) 0.3123(17) 0.3979(19)
H9C H 0.8245 0.3566 0.3680
C13C C 0.842(3) 0.3150(15) 0.4780(19)
H10C H 0.8415 0.3610 0.5037
C15C C 0.8634(19) 0.3132(13) 0.2312(14)
H11C H 0.8668 0.3592 0.2577
C16C C 0.857(2) 0.3126(15) 0.1513(16)
H12C H 0.8630 0.3577 0.1254
N4_2 N 0.843(2) 0.2500 1.1101(16)
loop_
_geom_bond_atom_site_label_1
_geom_bond_atom_site_label_2
_geom_bond_site_symmetry_1
_geom_bond_site_symmetry_2
Mo1 Mo6 1_555 1_555
Mo2 Mo3 1_555 1_555
Mo3 O7 1_555 1_555
Mo4 Mo5 1_555 1_555
Mo5 O15 1_555 1_555
Mo6 O2 1_555 1_555
Mo7 O11 1_555 1_555
Zn1 O2 1_555 1_555
Zn2 O15 1_555 1_555
Zn3 O8 1_555 1_555
P1 O4 1_555 1_555
O1 Mo1 1_555 1_555
O2 Mo1 1_555 1_555
O3 Mo1 1_555 1_555
O4 Mo1 1_555 1_555
O5 Mo2 1_555 1_555
O6 Mo2 1_555 1_555
O7 Mo2 1_555 1_555
O8 Mo2 1_555 1_555
O9 Mo3 1_555 1_555
O10 Mo3 1_555 1_555
O11 Mo3 1_555 1_555
O12 Mo7 1_555 1_555
O13 Mo4 1_555 1_555
O14 Mo4 1_555 1_555
O15 Mo4 1_555 1_555
O16 Mo4 1_555 1_555
O17 Mo5 1_555 1_555
O18 Mo5 1_555 1_555
O19 Mo5 1_555 1_555
O20 Mo6 1_555 1_555
O21 Mo6 1_555 1_555
O22 Mo7 1_555 1_555
O23 Mo7 1_555 1_555
O24 Mo7 1_555 1_555
O25 Zn2 1_555 1_555
C1 C2 1_555 1_555
C2 H1 1_555 1_555
C3 C2 1_555 1_555
H2 C3 1_555 1_555
N1 Zn1 1_555 1_555
C4 N1 1_555 1_555
H3 C4 1_555 1_555
C5 C1 1_555 1_555
H4 C5 1_555 1_555
C6 C7 1_555 1_555
C7 H5 1_555 1_555
C8 C7 1_555 1_555
H6 C8 1_555 1_555
N2 Zn1 1_555 1_555
C9 N2 1_555 1_555
H7 C9 1_555 1_555
C10 C6 1_555 1_555
H8 C10 1_555 1_555
C11 C12 1_555 1_555
C12 H9 1_555 1_555
C13 C12 1_555 1_555
H10 C13 1_555 1_555
N3 Zn2 1_555 1_555
C14 C11 1_555 1_555
C15 C14 1_555 1_555
H11 C15 1_555 1_555
C16 C15 1_555 1_555
H12 C16 1_555 1_555
N4 C16 1_555 1_555
C17 C18 1_555 1_555
C18 H13 1_555 1_555
C19 C18 1_555 1_555
H14 C19 1_555 1_555
N5 C19 1_555 1_555
H15 N5 1_555 1_555
C20 C17 1_555 1_555
C21 C20 1_555 1_555
H16 C21 1_555 1_555
C22 C21 1_555 1_555
H17 C22 1_555 1_555
N6 C22 1_555 1_555
H18 N6 1_555 1_555
Mo2C O6 1_555 1_555
Mo3C Mo2C 1_555 1_555
Mo4C Mo5C 1_555 1_555
Mo5C O18 1_555 1_555
Mo7C Mo7 1_555 1_555
Zn1C O2C 1_555 1_555
Zn1C_2 N1C 1_555 1_555
Zn1B N2B 1_555 1_555
Zn3_2 N4 1_555 1_555
O2C Mo1 1_555 1_555
O3C Mo1 1_555 1_555
O5C Mo2C 1_555 1_555
O7C Mo2C 1_555 1_555
O8C Zn3 1_555 1_555
O9C Mo3C 1_555 1_555
O10C Mo3C 1_555 1_555
O11C Mo3C 1_555 1_555
O12C P1 1_555 1_555
O13C Mo4C 1_555 1_555
O14C Mo4C 1_555 1_555
O15C Zn2 1_555 1_555
O16C Mo4C 1_555 1_555
O17C Mo5C 1_555 1_555
O19C Mo6 1_555 1_555
O22C Mo7C 1_555 1_555
O25C Zn2 1_555 1_555
C1C C1 1_555 1_555
C2C C1C 1_555 1_555
H1C C2C 1_555 1_555
C3C C2C 1_555 1_555
H2C C3C 1_555 1_555
N1C C3C 1_555 1_555
N1C_2 Zn1C 1_555 1_555
C4C N1C 1_555 1_555
H3C C4C 1_555 1_555
C5C C1C 1_555 1_555
H4C C5C 1_555 1_555
C6B C6 1_555 1_555
C7B C6B 1_555 1_555
H5B C7B 1_555 1_555
C8B C7B 1_555 1_555
H6B C8B 1_555 1_555
N2B C8B 1_555 1_555
N2C Zn1C 1_555 1_555
C9B N2B 1_555 1_555
H7B C9B 1_555 1_555
C10B C6B 1_555 1_555
H8B C10B 1_555 1_555
C12C C11 1_555 1_555
H9C C12C 1_555 1_555
C13C N3 1_555 1_555
H10C C13C 1_555 1_555
C15C C14 1_555 1_555
H11C C15C 1_555 1_555
C16C N4 1_555 1_555
H12C C16C 1_555 1_555
N4_2 Zn3 1_555 1_555
C18C C17 1_555 1_555
H13C C18C 1_555 1_555
C19C N5 1_555 1_555
H14C C19C 1_555 1_555
C21C C20 1_555 1_555
H16C C21C 1_555 1_555
C22C N6 1_555 1_555
H17C C22C 1_555 1_555
Mo2 O3 1_555 1_555
Mo3 O8 1_555 1_555
Mo4 O10 1_555 1_555
Mo5 O16 1_555 1_555
Mo6 O19 1_555 1_555
Mo6 O2C 1_555 1_555
Mo7 O14 1_555 1_555
Zn1 O7 1_555 1_555
Zn1 O16 1_555 1_555
Zn2 O23 1_555 1_555
Zn3 O24 1_555 1_555
P1 O12 1_555 1_555
P1 O20 1_555 1_555
O23 Mo7C 1_555 1_555
O24 Mo7C 1_555 1_555
C3 N1 1_555 1_555
C4 C5 1_555 1_555
C8 N2 1_555 1_555
C9 C10 1_555 1_555
C13 N3 1_555 1_555
Mo2C O3C 1_555 1_555
Mo2C O8C 1_555 1_555
Mo3C O7C 1_555 1_555
Mo3C O8C 1_555 1_555
Mo4C O10C 1_555 1_555
Mo4C O15C 1_555 1_555
Mo5C O15C 1_555 1_555
Mo5C O16C 1_555 1_555
Mo5C O19C 1_555 1_555
Mo7C O11C 1_555 1_555
Mo7C O12C 1_555 1_555
Mo7C O14C 1_555 1_555
Zn1C O7C 1_555 1_555
Zn1C O16C 1_555 1_555
C4C C5C 1_555 1_555
C9B C10B 1_555 1_555
C12C C13C 1_555 1_555
C15C C16C 1_555 1_555
C18C C19C 1_555 1_555
C21C C22C 1_555 1_555

#END
