
#######################################################################
#
#                 Cambridge Crystallographic Data Centre
#                                CCDC 
#
#######################################################################
#
# If this CIF has been generated from an entry in the Cambridge 
# Structural Database, then it will include bibliographic, chemical, 
# crystal, experimental, refinement or atomic coordinate data resulting 
# from the CCDC's data processing and validation procedures.
#
#######################################################################

data_WASXOE
_symmetry_cell_setting           triclinic
_symmetry_space_group_name_H-M   'P -1'
_symmetry_Int_Tables_number      2
_space_group_name_Hall           '-P 1'
loop_
_symmetry_equiv_pos_site_id
_symmetry_equiv_pos_as_xyz
1 x,y,z
2 -x,-y,-z
_cell_length_a                   8.0333(3)
_cell_length_b                   10.2111(2)
_cell_length_c                   20.2010(7)
_cell_angle_alpha                95.68
_cell_angle_beta                 94.43
_cell_angle_gamma                109.62
_cell_volume                     1542.37
loop_
_atom_site_label
_atom_site_type_symbol
_atom_site_fract_x
_atom_site_fract_y
_atom_site_fract_z
Cd1 Cd 0.0000 0.0000 0.5000
Cd2 Cd -0.29066(11) 0.68854(7) 0.81548(4)
S1 S 0.2075(4) 0.2837(3) 0.62902(14)
O1 O 0.1875(10) 0.1495(8) 0.5915(4)
O2 O 0.1738(13) 0.3822(10) 0.5883(4)
O3 O 0.3795(10) 0.3424(7) 0.6692(4)
O4 O -0.1280(10) 0.5684(7) 0.7633(4)
O5 O -0.2984(11) 0.4342(8) 0.8282(4)
O6 O -0.3165(11) -0.0679(7) 0.8181(4)
O7 O -0.1342(11) -0.1335(7) 0.7595(4)
O8 O -0.5363(11) 0.6061(9) 0.7390(4)
N1 N 0.0761(14) 0.1904(10) 0.4399(5)
N2 N 0.2436(12) 0.0004(10) 0.4486(5)
N3 N -0.1142(16) 0.7688(10) 0.9174(5)
N4 N -0.4537(15) 0.6443(10) 0.8934(8)
C1 C 0.0450(14) 0.2520(11) 0.6868(6)
C2 C -0.0073(14) 0.3577(11) 0.7108(5)
H1 H 0.0370 0.4446 0.6958
C3 C -0.1290(13) 0.3367(10) 0.7586(5)
C4 C -0.1912(14) 0.2051(9) 0.7826(5)
H2 H -0.2699 0.1906 0.8149
C5 C -0.1330(14) 0.0964(9) 0.7572(5)
C6 C -0.0114(13) 0.1213(10) 0.7088(5)
H3 H 0.0300 0.0513 0.6921
C7 C -0.1980(15) -0.0432(10) 0.7792(6)
C8 C -0.1888(15) 0.4554(11) 0.7869(6)
C9 C 0.056(2) 0.8287(13) 0.9223(7)
H4 H 0.1093 0.8389 0.8829
C10 C 0.166(2) 0.8790(14) 0.9828(10)
H5 H 0.2895 0.9148 0.9848
C11 C 0.081(4) 0.8724(19) 1.0386(8)
H6 H 0.1473 0.9139 1.0798
C12 C -0.105(3) 0.8039(19) 1.0357(10)
H7 H -0.1617 0.7886 1.0741
C13 C -0.197(2) 0.7618(13) 0.9732(6)
C14 C -0.393(2) 0.6890(13) 0.9612(9)
C15 C -0.487(3) 0.6790(19) 1.0207(8)
H8 H -0.4310 0.7141 1.0640
C16 C -0.671(3) 0.611(2) 1.0059(12)
H9 H -0.7406 0.5981 1.0411
C17 C -0.751(2) 0.5657(17) 0.9441(9)
H10 H -0.8737 0.5217 0.9337
C18 C -0.629(3) 0.5913(15) 0.8950(7)
H11 H -0.6889 0.5627 0.8519
C19 C 0.3002(17) -0.1069(14) 0.4387(7)
H12 H 0.2447 -0.1866 0.4582
C20 C 0.4415(16) -0.1083(15) 0.3997(7)
H13 H 0.4754 -0.1865 0.3920
C21 C 0.5240(17) 0.0155(17) 0.3743(7)
H14 H 0.6218 0.0225 0.3513
C22 C 0.4682(16) 0.1266(14) 0.3816(6)
H15 H 0.5252 0.2069 0.3627
C23 C 0.3254(16) 0.1204(13) 0.4175(6)
C24 C 0.2489(18) 0.2280(13) 0.4232(6)
C25 C 0.339(2) 0.3623(14) 0.4103(8)
H16 H 0.4574 0.3870 0.4027
C26 C 0.256(3) 0.4614(16) 0.4085(9)
H17 H 0.3165 0.5508 0.3985
C27 C 0.077(3) 0.4240(17) 0.4222(8)
H18 H 0.0139 0.4852 0.4201
C28 C 0.003(2) 0.2902(16) 0.4388(7)
H19 H -0.1121 0.2667 0.4508
Cd2A Cd 0.29066(11) -0.68854(7) 0.18452(4)
Cd2_2 Cd -0.29066(11) -0.31146(7) 0.81548(4)
Cd2A_2 Cd 0.29066(11) 0.31146(7) 0.18452(4)
S1A S -0.2075(4) -0.2837(3) 0.37098(14)
O1A O -0.1875(10) -0.1495(8) 0.4085(4)
O2A O -0.1738(13) -0.3822(10) 0.4117(4)
O3A O -0.3795(10) -0.3424(7) 0.3308(4)
O4A O 0.1280(10) -0.5684(7) 0.2367(4)
O5A O 0.2984(11) -0.4342(8) 0.1718(4)
O6A O 0.3165(11) 0.0679(7) 0.1819(4)
O6_2 O -0.3165(11) 0.9321(7) 0.8181(4)
O6A_2 O 0.3165(11) -0.9321(7) 0.1819(4)
O7A O 0.1342(11) 0.1335(7) 0.2405(4)
O7_2 O -0.1342(11) 0.8665(7) 0.7595(4)
O7A_2 O 0.1342(11) -0.8665(7) 0.2405(4)
O8A O 0.5363(11) -0.6061(9) 0.2610(4)
N1A N -0.0761(14) -0.1904(10) 0.5601(5)
N2A N -0.2436(12) -0.0004(10) 0.5514(5)
N3A N 0.1142(16) -0.7688(10) 0.0826(5)
N4A N 0.4537(15) -0.6443(10) 0.1066(8)
C1A C -0.0450(14) -0.2520(11) 0.3132(6)
C2A C 0.0073(14) -0.3577(11) 0.2892(5)
H1A H -0.0370 -0.4446 0.3042
C3A C 0.1290(13) -0.3367(10) 0.2414(5)
C4A C 0.1912(14) -0.2051(9) 0.2174(5)
H2A H 0.2699 -0.1906 0.1851
C5A C 0.1330(14) -0.0964(9) 0.2428(5)
C6A C 0.0114(13) -0.1213(10) 0.2912(5)
H3A H -0.0300 -0.0513 0.3079
C7A C 0.1980(15) 0.0432(10) 0.2208(6)
C8A C 0.1888(15) -0.4554(11) 0.2131(6)
C9A C -0.056(2) -0.8287(13) 0.0777(7)
H4A H -0.1093 -0.8389 0.1171
C10A C -0.166(2) -0.8790(14) 0.0172(10)
H5A H -0.2895 -0.9148 0.0152
C11A C -0.081(4) -0.8724(19) -0.0386(8)
H6A H -0.1473 -0.9139 -0.0798
C12A C 0.105(3) -0.8039(19) -0.0357(10)
H7A H 0.1617 -0.7886 -0.0741
C13A C 0.197(2) -0.7618(13) 0.0268(6)
C14A C 0.393(2) -0.6890(13) 0.0388(9)
C15A C 0.487(3) -0.6790(19) -0.0207(8)
H8A H 0.4310 -0.7141 -0.0640
C16A C 0.671(3) -0.611(2) -0.0059(12)
H9A H 0.7406 -0.5981 -0.0411
C17A C 0.751(2) -0.5657(17) 0.0559(9)
H10A H 0.8737 -0.5217 0.0663
C18A C 0.629(3) -0.5913(15) 0.1050(7)
H11A H 0.6889 -0.5627 0.1481
C19A C -0.3002(17) 0.1069(14) 0.5613(7)
H12A H -0.2447 0.1866 0.5418
C20A C -0.4415(16) 0.1083(15) 0.6003(7)
H13A H -0.4754 0.1865 0.6080
C21A C -0.5240(17) -0.0155(17) 0.6257(7)
H14A H -0.6218 -0.0225 0.6487
C22A C -0.4682(16) -0.1266(14) 0.6184(6)
H15A H -0.5252 -0.2069 0.6373
C23A C -0.3254(16) -0.1204(13) 0.5825(6)
C24A C -0.2489(18) -0.2280(13) 0.5768(6)
C25A C -0.339(2) -0.3623(14) 0.5897(8)
H16A H -0.4574 -0.3870 0.5973
C26A C -0.256(3) -0.4614(16) 0.5915(9)
H17A H -0.3165 -0.5508 0.6015
C27A C -0.077(3) -0.4240(17) 0.5778(8)
H18A H -0.0139 -0.4852 0.5799
C28A C -0.003(2) -0.2902(16) 0.5612(7)
H19A H 0.1121 -0.2667 0.5492
O9 O -0.6295(13) 0.2448(10) 0.8123(5)
O10 O -0.7867(12) 0.7292(10) 0.7317(6)
O11 O -0.6332(15) -0.0287(11) 0.8241(7)
loop_
_geom_bond_atom_site_label_1
_geom_bond_atom_site_label_2
_geom_bond_site_symmetry_1
_geom_bond_site_symmetry_2
Cd1 O1 1_555 1_555
Cd2 O4 1_555 1_555
S1 O1 1_555 1_555
O2 S1 1_555 1_555
O3 S1 1_555 1_555
O4 C8 1_555 1_555
O5 Cd2 1_555 1_555
O6 C7 1_555 1_555
O7 C7 1_555 1_555
O8 Cd2 1_555 1_555
N1 Cd1 1_555 1_555
N2 Cd1 1_555 1_555
N3 Cd2 1_555 1_555
N4 Cd2 1_555 1_555
C1 S1 1_555 1_555
C2 C1 1_555 1_555
H1 C2 1_555 1_555
C3 C2 1_555 1_555
C4 C3 1_555 1_555
H2 C4 1_555 1_555
C5 C4 1_555 1_555
C6 C1 1_555 1_555
H3 C6 1_555 1_555
C7 C5 1_555 1_555
C8 O5 1_555 1_555
C9 N3 1_555 1_555
H4 C9 1_555 1_555
C10 C9 1_555 1_555
H5 C10 1_555 1_555
C11 C10 1_555 1_555
H6 C11 1_555 1_555
C12 C11 1_555 1_555
H7 C12 1_555 1_555
C13 N3 1_555 1_555
C14 N4 1_555 1_555
C15 C14 1_555 1_555
H8 C15 1_555 1_555
C16 C15 1_555 1_555
H9 C16 1_555 1_555
C17 C16 1_555 1_555
H10 C17 1_555 1_555
C18 N4 1_555 1_555
H11 C18 1_555 1_555
C19 N2 1_555 1_555
H12 C19 1_555 1_555
C20 C19 1_555 1_555
H13 C20 1_555 1_555
C21 C20 1_555 1_555
H14 C21 1_555 1_555
C22 C21 1_555 1_555
H15 C22 1_555 1_555
C23 N2 1_555 1_555
C24 N1 1_555 1_555
C25 C24 1_555 1_555
H16 C25 1_555 1_555
C26 C25 1_555 1_555
H17 C26 1_555 1_555
C27 C26 1_555 1_555
H18 C27 1_555 1_555
C28 N1 1_555 1_555
H19 C28 1_555 1_555
Cd2A O4A 1_555 1_555
Cd2_2 O6 1_555 1_555
Cd2A_2 O6A 1_555 1_555
S1A O1A 1_555 1_555
O1A Cd1 1_555 1_555
O2A S1A 1_555 1_555
O3A S1A 1_555 1_555
O4A C8A 1_555 1_555
O5A Cd2A 1_555 1_555
O6A C7A 1_555 1_555
O6_2 Cd2 1_555 1_555
O6A_2 Cd2A 1_555 1_555
O7A Cd2A_2 1_555 1_555
O7_2 Cd2 1_555 1_555
O7A_2 Cd2A 1_555 1_555
O8A Cd2A 1_555 1_555
N1A Cd1 1_555 1_555
N2A Cd1 1_555 1_555
N3A Cd2A 1_555 1_555
N4A Cd2A 1_555 1_555
C1A S1A 1_555 1_555
C2A C1A 1_555 1_555
H1A C2A 1_555 1_555
C3A C2A 1_555 1_555
C4A C3A 1_555 1_555
H2A C4A 1_555 1_555
C5A C4A 1_555 1_555
C6A C1A 1_555 1_555
H3A C6A 1_555 1_555
C7A O7A 1_555 1_555
C8A O5A 1_555 1_555
C9A N3A 1_555 1_555
H4A C9A 1_555 1_555
C10A C9A 1_555 1_555
H5A C10A 1_555 1_555
C11A C10A 1_555 1_555
H6A C11A 1_555 1_555
C12A C11A 1_555 1_555
H7A C12A 1_555 1_555
C13A N3A 1_555 1_555
C14A N4A 1_555 1_555
C15A C14A 1_555 1_555
H8A C15A 1_555 1_555
C16A C15A 1_555 1_555
H9A C16A 1_555 1_555
C17A C16A 1_555 1_555
H10A C17A 1_555 1_555
C18A N4A 1_555 1_555
H11A C18A 1_555 1_555
C19A N2A 1_555 1_555
H12A C19A 1_555 1_555
C20A C19A 1_555 1_555
H13A C20A 1_555 1_555
C21A C20A 1_555 1_555
H14A C21A 1_555 1_555
C22A C21A 1_555 1_555
H15A C22A 1_555 1_555
C23A N2A 1_555 1_555
C24A N1A 1_555 1_555
C25A C24A 1_555 1_555
H16A C25A 1_555 1_555
C26A C25A 1_555 1_555
H17A C26A 1_555 1_555
C27A C26A 1_555 1_555
H18A C27A 1_555 1_555
C28A N1A 1_555 1_555
H19A C28A 1_555 1_555
O7 Cd2_2 1_555 1_555
C3 C8 1_555 1_555
C5 C6 1_555 1_555
C12 C13 1_555 1_555
C13 C14 1_555 1_555
C17 C18 1_555 1_555
C22 C23 1_555 1_555
C23 C24 1_555 1_555
C27 C28 1_555 1_555
C3A C8A 1_555 1_555
C5A C6A 1_555 1_555
C5A C7A 1_555 1_555
C12A C13A 1_555 1_555
C13A C14A 1_555 1_555
C17A C18A 1_555 1_555
C22A C23A 1_555 1_555
C23A C24A 1_555 1_555
C27A C28A 1_555 1_555

#END
