
#######################################################################
#
#                 Cambridge Crystallographic Data Centre
#                                CCDC 
#
#######################################################################
#
# If this CIF has been generated from an entry in the Cambridge 
# Structural Database, then it will include bibliographic, chemical, 
# crystal, experimental, refinement or atomic coordinate data resulting 
# from the CCDC's data processing and validation procedures.
#
#######################################################################

data_WATBUP
_symmetry_cell_setting           triclinic
_symmetry_space_group_name_H-M   'P -1'
_symmetry_Int_Tables_number      2
_space_group_name_Hall           '-P 1'
loop_
_symmetry_equiv_pos_site_id
_symmetry_equiv_pos_as_xyz
1 x,y,z
2 -x,-y,-z
_cell_length_a                   8.916(2)
_cell_length_b                   9.685(2)
_cell_length_c                   12.676(3)
_cell_angle_alpha                70.320(10)
_cell_angle_beta                 75.490(10)
_cell_angle_gamma                77.270(10)
_cell_volume                     986.616
loop_
_atom_site_label
_atom_site_type_symbol
_atom_site_fract_x
_atom_site_fract_y
_atom_site_fract_z
Cu1 Cu 0.14982(6) 0.36247(6) 0.73711(5)
Mn1 Mn 1.0000 0.0000 1.0000
C1 C 0.7253(5) -0.0417(5) 0.9159(4)
C2 C 0.5945(5) 0.0345(4) 0.8490(4)
H1 H 0.6279 0.0266 0.7720
H2 H 0.5028 -0.0146 0.8851
C3 C 0.4311(4) 0.2701(5) 0.8072(4)
C4 C 0.3922(5) 0.4284(5) 0.8143(5)
H3 H 0.3854 0.4291 0.8918
H4 H 0.4722 0.4868 0.7640
C5 C 0.1783(5) 0.6267(5) 0.7646(4)
C6 C 0.0208(6) 0.6591(5) 0.7286(4)
H5 H -0.0617 0.6791 0.7903
H6 H 0.0185 0.7470 0.6629
C7 C -0.1126(6) 0.5428(5) 0.6469(4)
H7 H -0.1750 0.6345 0.6267
C8 C -0.1468(5) 0.4264(5) 0.6143(3)
C9 C -0.2767(6) 0.4562(6) 0.5627(4)
H8 H -0.3354 0.5504 0.5484
C10 C -0.3181(6) 0.3496(6) 0.5333(5)
H9 H -0.4068 0.3705 0.5013
C11 C -0.2299(6) 0.2102(6) 0.5504(4)
H10 H -0.2586 0.1377 0.5298
C12 C -0.0997(6) 0.1797(6) 0.5981(4)
H11 H -0.0407 0.0857 0.6092
C13 C -0.0534(5) 0.2854(5) 0.6302(3)
N1 N 0.5548(4) 0.1884(4) 0.8447(3)
H12 H 0.6140 0.2272 0.8673
N2 N 0.2425(4) 0.4879(4) 0.7793(3)
N3 N -0.0082(4) 0.5339(4) 0.6995(3)
O1 O 0.8879(4) 0.0252(4) 1.1646(3)
H13 H 0.8720 -0.0464 1.2254
H14 H 0.8626 0.1133 1.1602
O2 O 1.0082(3) 0.2414(3) 0.9360(2)
H15 H 0.9150 0.2871 0.9370
H16 H 1.0489 0.2655 0.9799
O3 O 0.7815(4) 0.0393(3) 0.9485(3)
O4 O 0.7700(4) -0.1778(3) 0.9292(3)
O5 O 0.3437(3) 0.2229(3) 0.7694(3)
O6 O 0.2333(4) 0.7259(4) 0.7751(3)
O7 O 0.0776(3) 0.2469(3) 0.6719(3)
Cu1A Cu 1.85018(6) -0.36247(6) 1.26289(5)
Cu1_2 Cu 1.14982(6) 0.36247(6) 0.73711(5)
Cu1A_2 Cu 0.85018(6) -0.36247(6) 1.26289(5)
C1A C 1.2747(5) 0.0417(5) 1.0841(4)
C2A C 1.4055(5) -0.0345(4) 1.1510(4)
H1A H 1.3721 -0.0266 1.2280
H2A H 1.4972 0.0146 1.1149
C3A C 1.5689(4) -0.2701(5) 1.1928(4)
C4A C 1.6078(5) -0.4284(5) 1.1857(5)
H3A H 1.6146 -0.4291 1.1082
H4A H 1.5278 -0.4868 1.2360
C5A C 1.8217(5) -0.6267(5) 1.2354(4)
C6A C 1.9792(6) -0.6591(5) 1.2714(4)
H5A H 2.0617 -0.6791 1.2097
H6A H 1.9815 -0.7470 1.3371
C7A C 2.1126(6) -0.5428(5) 1.3531(4)
H7A H 2.1750 -0.6345 1.3733
C8A C 2.1468(5) -0.4264(5) 1.3857(3)
C9A C 2.2767(6) -0.4562(6) 1.4373(4)
H8A H 2.3354 -0.5504 1.4516
C10A C 2.3181(6) -0.3496(6) 1.4667(5)
H9A H 2.4068 -0.3705 1.4987
C11A C 2.2299(6) -0.2102(6) 1.4496(4)
H10A H 2.2586 -0.1377 1.4702
C12A C 2.0997(6) -0.1797(6) 1.4019(4)
H11A H 2.0407 -0.0857 1.3908
C13A C 2.0534(5) -0.2854(5) 1.3698(3)
N1A N 1.4452(4) -0.1884(4) 1.1553(3)
H12A H 1.3860 -0.2272 1.1327
N2A N 1.7575(4) -0.4879(4) 1.2207(3)
N3A N 2.0082(4) -0.5339(4) 1.3005(3)
O1A O 1.1121(4) -0.0252(4) 0.8354(3)
H13A H 1.1280 0.0464 0.7746
H14A H 1.1374 -0.1133 0.8398
O2A O 0.9918(3) -0.2414(3) 1.0640(2)
O2_2 O 0.0082(3) 0.2414(3) 0.9360(2)
O2A_2 O 1.9918(3) -0.2414(3) 1.0640(2)
H15A H 1.0850 -0.2871 1.0630
H15_2 H -0.0850 0.2871 0.9370
H15A_2 H 2.0850 -0.2871 1.0630
H16A H 0.9511 -0.2655 1.0201
H16_2 H 0.0489 0.2655 0.9799
H16A_2 H 1.9511 -0.2655 1.0201
O3A O 1.2185(4) -0.0393(3) 1.0515(3)
O4A O 1.2300(4) 0.1778(3) 1.0708(3)
O5A O 1.6563(3) -0.2229(3) 1.2306(3)
O6A O 1.7667(4) -0.7259(4) 1.2249(3)
O7A O 1.9224(3) -0.2469(3) 1.3281(3)
O8 O 0.5087(5) 0.8311(5) 0.6719(4)
H17 H 0.5880 0.8285 0.6185
H18 H 0.4349 0.7997 0.6595
O9 O 0.5955(4) 0.6678(4) 0.8773(3)
H19 H 0.6254 0.7140 0.9128
H20 H 0.6316 0.7002 0.8062
O10 O 0.7012(4) 0.3693(4) 0.9490(3)
H21 H 0.6936 0.4632 0.9277
H22 H 0.6514 0.3398 1.0171
O11 O 0.3546(6) 0.1235(6) 0.5504(4)
H23 H 0.3402 0.1961 0.5771
H24 H 0.3387 0.0449 0.6050
loop_
_geom_bond_atom_site_label_1
_geom_bond_atom_site_label_2
_geom_bond_site_symmetry_1
_geom_bond_site_symmetry_2
Cu1 N2 1_555 1_555
Mn1 O1 1_555 1_555
C1 C2 1_555 1_555
C2 H1 1_555 1_555
H2 C2 1_555 1_555
C3 C4 1_555 1_555
C4 H3 1_555 1_555
H4 C4 1_555 1_555
C5 C6 1_555 1_555
C6 H5 1_555 1_555
H6 C6 1_555 1_555
C7 H7 1_555 1_555
C8 C7 1_555 1_555
C9 C8 1_555 1_555
H8 C9 1_555 1_555
C10 C9 1_555 1_555
H9 C10 1_555 1_555
C11 C10 1_555 1_555
H10 C11 1_555 1_555
C12 C11 1_555 1_555
H11 C12 1_555 1_555
C13 C8 1_555 1_555
N1 C2 1_555 1_555
H12 N1 1_555 1_555
N2 C4 1_555 1_555
N3 Cu1 1_555 1_555
O1 H13 1_555 1_555
H14 O1 1_555 1_555
O2 Mn1 1_555 1_555
H15 O2 1_555 1_555
H16 O2 1_555 1_555
O3 Mn1 1_555 1_555
O4 C1 1_555 1_555
O5 Cu1 1_555 1_555
O6 C5 1_555 1_555
O7 Cu1 1_555 1_555
O8 H17 1_555 1_555
H18 O8 1_555 1_555
O9 H19 1_555 1_555
H20 O9 1_555 1_555
O10 H21 1_555 1_555
H22 O10 1_555 1_555
O11 H23 1_555 1_555
H24 O11 1_555 1_555
Cu1A N2A 1_555 1_555
Cu1_2 O2 1_555 1_555
Cu1A_2 O2A 1_555 1_555
C1A C2A 1_555 1_555
C2A H1A 1_555 1_555
H2A C2A 1_555 1_555
C3A C4A 1_555 1_555
C4A H3A 1_555 1_555
H4A C4A 1_555 1_555
C5A C6A 1_555 1_555
C6A H5A 1_555 1_555
H6A C6A 1_555 1_555
C7A H7A 1_555 1_555
C8A C7A 1_555 1_555
C9A C8A 1_555 1_555
H8A C9A 1_555 1_555
C10A C9A 1_555 1_555
H9A C10A 1_555 1_555
C11A C10A 1_555 1_555
H10A C11A 1_555 1_555
C12A C11A 1_555 1_555
H11A C12A 1_555 1_555
C13A C8A 1_555 1_555
N1A C2A 1_555 1_555
H12A N1A 1_555 1_555
N2A C4A 1_555 1_555
N3A Cu1A 1_555 1_555
O1A Mn1 1_555 1_555
H13A O1A 1_555 1_555
H14A O1A 1_555 1_555
O2A Mn1 1_555 1_555
O2_2 Cu1 1_555 1_555
O2A_2 Cu1A 1_555 1_555
H15A O2A 1_555 1_555
H15_2 O2_2 1_555 1_555
H15A_2 O2A_2 1_555 1_555
H16A O2A 1_555 1_555
H16_2 O2_2 1_555 1_555
H16A_2 O2A_2 1_555 1_555
O3A Mn1 1_555 1_555
O4A C1A 1_555 1_555
O5A Cu1A 1_555 1_555
O6A C5A 1_555 1_555
O7A Cu1A 1_555 1_555
C1 O3 1_555 1_555
C3 N1 1_555 1_555
C3 O5 1_555 1_555
C5 N2 1_555 1_555
C6 N3 1_555 1_555
C7 N3 1_555 1_555
C12 C13 1_555 1_555
C13 O7 1_555 1_555
C1A O3A 1_555 1_555
C3A N1A 1_555 1_555
C3A O5A 1_555 1_555
C5A N2A 1_555 1_555
C6A N3A 1_555 1_555
C7A N3A 1_555 1_555
C12A C13A 1_555 1_555
C13A O7A 1_555 1_555

#END
