
#######################################################################
#
#                 Cambridge Crystallographic Data Centre
#                                CCDC 
#
#######################################################################
#
# If this CIF has been generated from an entry in the Cambridge 
# Structural Database, then it will include bibliographic, chemical, 
# crystal, experimental, refinement or atomic coordinate data resulting 
# from the CCDC's data processing and validation procedures.
#
#######################################################################

data_WATCAW
_symmetry_cell_setting           triclinic
_symmetry_space_group_name_H-M   'P -1'
_symmetry_Int_Tables_number      2
_space_group_name_Hall           '-P 1'
loop_
_symmetry_equiv_pos_site_id
_symmetry_equiv_pos_as_xyz
1 x,y,z
2 -x,-y,-z
_cell_length_a                   8.911(2)
_cell_length_b                   9.609(2)
_cell_length_c                   12.552(2)
_cell_angle_alpha                70.240(10)
_cell_angle_beta                 76.250(10)
_cell_angle_gamma                78.170(10)
_cell_volume                     973.325
loop_
_atom_site_label
_atom_site_type_symbol
_atom_site_fract_x
_atom_site_fract_y
_atom_site_fract_z
Cu1 Cu 0.84577(7) 0.63920(6) 0.26215(5)
Ni1 Ni 0.0000 1.0000 0.0000
C1 C 0.2655(6) 1.0402(5) 0.0856(4)
C2 C 0.3992(6) 0.9671(5) 0.1487(4)
H1 H 0.4883 1.0203 0.1109
H2 H 0.3696 0.9725 0.2269
C3 C 0.5653(6) 0.7280(5) 0.1898(4)
C4 C 0.6023(5) 0.5707(5) 0.1841(4)
H3 H 0.5235 0.5111 0.2359
H4 H 0.6068 0.5693 0.1065
C5 C 0.8198(6) 0.3748(6) 0.2320(4)
C6 C 0.9751(6) 0.3446(6) 0.2674(4)
H5 H 0.9793 0.2546 0.3325
H6 H 1.0565 0.3283 0.2044
C7 C 1.1097(6) 0.4591(6) 0.3513(4)
H7 H 1.1736 0.3680 0.3700
C8 C 1.1411(6) 0.5769(6) 0.3844(4)
C9 C 1.2722(6) 0.5491(7) 0.4345(4)
H8 H 1.3318 0.4555 0.4459
C10 C 1.3171(7) 0.6545(7) 0.4679(5)
H9 H 1.4058 0.6326 0.5006
C11 C 1.2284(7) 0.7930(7) 0.4522(5)
H10 H 1.2572 0.8660 0.4737
C12 C 1.0950(6) 0.8229(6) 0.4038(4)
H11 H 1.0360 0.9167 0.3936
C13 C 1.0476(6) 0.7185(6) 0.3707(4)
N1 N 0.4420(4) 0.8113(4) 0.1512(3)
H12 H 0.3838 0.7726 0.1263
N2 N 0.7531(5) 0.5128(4) 0.2184(3)
N3 N 1.0023(5) 0.4689(4) 0.2987(3)
O1 O 0.1102(4) 0.9753(4) -0.1568(3)
H13 H 0.1200 0.8843 -0.1540
H14 H 0.1998 1.0031 -0.1738
O2 O 0.0095(4) 1.2290(3) -0.0618(3)
H15 H -0.0396 1.2666 -0.1176
H16 H 0.1041 1.2445 -0.0852
O3 O 0.2045(4) 0.9566(3) 0.0552(3)
O4 O 0.2231(4) 1.1772(4) 0.0698(3)
O5 O 0.6506(4) 0.7767(3) 0.2303(3)
O6 O 0.7665(4) 0.2737(4) 0.2156(3)
O7 O 0.9187(4) 0.7560(3) 0.3282(3)
Cu1A Cu -0.84577(7) 1.36080(6) -0.26215(5)
Cu1A_2 Cu 0.15423(7) 1.36080(6) -0.26215(5)
Cu1_2 Cu -0.15423(7) 0.63920(6) 0.26215(5)
C1A C -0.2655(6) 0.9598(5) -0.0856(4)
C2A C -0.3992(6) 1.0329(5) -0.1487(4)
H1A H -0.4883 0.9797 -0.1109
H2A H -0.3696 1.0275 -0.2269
C3A C -0.5653(6) 1.2720(5) -0.1898(4)
C4A C -0.6023(5) 1.4293(5) -0.1841(4)
H3A H -0.5235 1.4889 -0.2359
H4A H -0.6068 1.4307 -0.1065
C5A C -0.8198(6) 1.6252(6) -0.2320(4)
C6A C -0.9751(6) 1.6554(6) -0.2674(4)
H5A H -0.9793 1.7454 -0.3325
H6A H -1.0565 1.6717 -0.2044
C7A C -1.1097(6) 1.5409(6) -0.3513(4)
H7A H -1.1736 1.6320 -0.3700
C8A C -1.1411(6) 1.4231(6) -0.3844(4)
C9A C -1.2722(6) 1.4509(7) -0.4345(4)
H8A H -1.3318 1.5445 -0.4459
C10A C -1.3171(7) 1.3455(7) -0.4679(5)
H9A H -1.4058 1.3674 -0.5006
C11A C -1.2284(7) 1.2070(7) -0.4522(5)
H10A H -1.2572 1.1340 -0.4737
C12A C -1.0950(6) 1.1771(6) -0.4038(4)
H11A H -1.0360 1.0833 -0.3936
C13A C -1.0476(6) 1.2815(6) -0.3707(4)
N1A N -0.4420(4) 1.1887(4) -0.1512(3)
H12A H -0.3838 1.2274 -0.1263
N2A N -0.7531(5) 1.4872(4) -0.2184(3)
N3A N -1.0023(5) 1.5311(4) -0.2987(3)
O1A O -0.1102(4) 1.0247(4) 0.1568(3)
H13A H -0.1200 1.1157 0.1540
H14A H -0.1998 0.9969 0.1738
O2A O -0.0095(4) 0.7710(3) 0.0618(3)
O2A_2 O 0.9905(4) 0.7710(3) 0.0618(3)
O2_2 O -0.9905(4) 1.2290(3) -0.0618(3)
H15A H 0.0396 0.7334 0.1176
H15A_2 H 1.0396 0.7334 0.1176
H15_2 H -1.0396 1.2666 -0.1176
H16A H -0.1041 0.7555 0.0852
H16A_2 H 0.8959 0.7555 0.0852
H16_2 H -0.8959 1.2445 -0.0852
O3A O -0.2045(4) 1.0434(3) -0.0552(3)
O4A O -0.2231(4) 0.8228(4) -0.0698(3)
O5A O -0.6506(4) 1.2233(3) -0.2303(3)
O6A O -0.7665(4) 1.7263(4) -0.2156(3)
O7A O -0.9187(4) 1.2440(3) -0.3282(3)
O8 O 0.3947(5) 0.3343(4) 0.1239(3)
H17 H 0.3403 0.2651 0.1375
H18 H 0.3552 0.3853 0.1699
O9 O 0.6488(6) 0.8793(6) 0.4490(4)
H19 H 0.6498 0.8527 0.3907
H20 H 0.6440 0.8038 0.5089
O10 O 0.7119(4) 0.3675(4) 0.9503(3)
H21 H 0.6505 0.3103 1.0003
H22 H 0.7170 0.4392 0.9739
O11 O 0.4884(5) 0.1689(6) 0.3282(4)
H23 H 0.5763 0.1971 0.2934
H24 H 0.4869 0.1366 0.4003
loop_
_geom_bond_atom_site_label_1
_geom_bond_atom_site_label_2
_geom_bond_site_symmetry_1
_geom_bond_site_symmetry_2
Cu1 N2 1_555 1_555
Ni1 O1 1_555 1_555
C1 C2 1_555 1_555
C2 H1 1_555 1_555
H2 C2 1_555 1_555
C3 C4 1_555 1_555
C4 H3 1_555 1_555
H4 C4 1_555 1_555
C5 C6 1_555 1_555
C6 H5 1_555 1_555
H6 C6 1_555 1_555
C7 H7 1_555 1_555
C8 C7 1_555 1_555
C9 C8 1_555 1_555
H8 C9 1_555 1_555
C10 C9 1_555 1_555
H9 C10 1_555 1_555
C11 C10 1_555 1_555
H10 C11 1_555 1_555
C12 C11 1_555 1_555
H11 C12 1_555 1_555
C13 C8 1_555 1_555
N1 C2 1_555 1_555
H12 N1 1_555 1_555
N2 C4 1_555 1_555
N3 Cu1 1_555 1_555
O1 H13 1_555 1_555
H14 O1 1_555 1_555
O2 Ni1 1_555 1_555
H15 O2 1_555 1_555
H16 O2 1_555 1_555
O3 Ni1 1_555 1_555
O4 C1 1_555 1_555
O5 Cu1 1_555 1_555
O6 C5 1_555 1_555
O7 Cu1 1_555 1_555
O8 H17 1_555 1_555
H18 O8 1_555 1_555
O9 H19 1_555 1_555
H20 O9 1_555 1_555
O10 H21 1_555 1_555
H22 O10 1_555 1_555
O11 H23 1_555 1_555
H24 O11 1_555 1_555
Cu1A N2A 1_555 1_555
Cu1A_2 O2 1_555 1_555
Cu1_2 O2A 1_555 1_555
C1A C2A 1_555 1_555
C2A H1A 1_555 1_555
H2A C2A 1_555 1_555
C3A C4A 1_555 1_555
C4A H3A 1_555 1_555
H4A C4A 1_555 1_555
C5A C6A 1_555 1_555
C6A H5A 1_555 1_555
H6A C6A 1_555 1_555
C7A H7A 1_555 1_555
C8A C7A 1_555 1_555
C9A C8A 1_555 1_555
H8A C9A 1_555 1_555
C10A C9A 1_555 1_555
H9A C10A 1_555 1_555
C11A C10A 1_555 1_555
H10A C11A 1_555 1_555
C12A C11A 1_555 1_555
H11A C12A 1_555 1_555
C13A C8A 1_555 1_555
N1A C2A 1_555 1_555
H12A N1A 1_555 1_555
N2A C4A 1_555 1_555
N3A Cu1A 1_555 1_555
O1A Ni1 1_555 1_555
H13A O1A 1_555 1_555
H14A O1A 1_555 1_555
O2A Ni1 1_555 1_555
O2A_2 Cu1 1_555 1_555
O2_2 Cu1A 1_555 1_555
H15A O2A 1_555 1_555
H15A_2 O2A_2 1_555 1_555
H15_2 O2_2 1_555 1_555
H16A O2A 1_555 1_555
H16A_2 O2A_2 1_555 1_555
H16_2 O2_2 1_555 1_555
O3A Ni1 1_555 1_555
O4A C1A 1_555 1_555
O5A Cu1A 1_555 1_555
O6A C5A 1_555 1_555
O7A Cu1A 1_555 1_555
C1 O3 1_555 1_555
C3 N1 1_555 1_555
C3 O5 1_555 1_555
C5 N2 1_555 1_555
C6 N3 1_555 1_555
C7 N3 1_555 1_555
C12 C13 1_555 1_555
C13 O7 1_555 1_555
C1A O3A 1_555 1_555
C3A N1A 1_555 1_555
C3A O5A 1_555 1_555
C5A N2A 1_555 1_555
C6A N3A 1_555 1_555
C7A N3A 1_555 1_555
C12A C13A 1_555 1_555
C13A O7A 1_555 1_555

#END
