
#######################################################################
#
#                 Cambridge Crystallographic Data Centre
#                                CCDC 
#
#######################################################################
#
# If this CIF has been generated from an entry in the Cambridge 
# Structural Database, then it will include bibliographic, chemical, 
# crystal, experimental, refinement or atomic coordinate data resulting 
# from the CCDC's data processing and validation procedures.
#
#######################################################################

data_WATDEB
_symmetry_cell_setting           monoclinic
_symmetry_space_group_name_H-M   'P 2/n'
_symmetry_Int_Tables_number      13
_space_group_name_Hall           '-P 2yac'
loop_
_symmetry_equiv_pos_site_id
_symmetry_equiv_pos_as_xyz
1 x,y,z
2 1/2-x,y,1/2-z
3 -x,-y,-z
4 1/2+x,-y,1/2+z
_cell_length_a                   11.6300(3)
_cell_length_b                   12.8000(4)
_cell_length_c                   19.2960(6)
_cell_angle_alpha                90
_cell_angle_beta                 98.6200(19)
_cell_angle_gamma                90
_cell_volume                     2840.03
loop_
_atom_site_label
_atom_site_type_symbol
_atom_site_fract_x
_atom_site_fract_y
_atom_site_fract_z
P1 P 0.5000 0.5000 0.5000
F1 F 0.5737(3) 0.4548(4) 0.5680(2)
F2 F 0.5969(3) 0.5849(3) 0.4953(2)
F3 F 0.4326(4) 0.5732(3) 0.5460(3)
F1B F 0.4263(3) 0.5452(4) 0.4320(2)
F2B F 0.4031(3) 0.4151(3) 0.5047(2)
F3B F 0.5674(4) 0.4268(3) 0.4540(3)
Cu1 Cu 0.5000 0.0000 0.5000
Cu2 Cu 0.0000 0.5000 0.5000
O1 O 0.4035(2) 0.1427(2) 0.43946(16)
H1 H 0.348(3) 0.182(3) 0.444(3)
H2 H 0.416(4) 0.166(4) 0.4006(12)
O2 O 0.1112(3) 0.3929(2) 0.4324(2)
O3 O 0.2138(2) 0.2613(2) 0.48077(18)
O4 O 0.2140(4) 0.3000(3) 0.3711(2)
N1 N 0.5301(2) 0.0886(2) 0.58734(15)
N2 N 0.5994(3) 0.1382(3) 0.69817(17)
N3 N 0.5378(3) 0.2172(3) 0.66108(16)
N4 N 0.4220(3) 0.3607(3) 0.66105(18)
N5 N 0.2939(3) 0.4972(2) 0.6501(2)
N6 N 0.2584(3) 0.5963(3) 0.6616(2)
N7 N 0.1335(3) 0.5167(2) 0.5782(2)
N8 N -0.0599(3) 0.3740(2) 0.5453(2)
N9 N -0.1773(2) 0.2624(2) 0.59101(17)
N10 N -0.0731(2) 0.2164(2) 0.58280(17)
N11 N 0.0461(2) 0.0749(2) 0.57461(15)
N12 N 0.1797(2) -0.0542(2) 0.56513(15)
N13 N 0.2152(3) -0.1559(2) 0.5672(2)
N14 N 0.3486(2) -0.0504(2) 0.53023(15)
N15 N 0.1799(3) 0.3181(3) 0.4275(3)
C1 C 0.4988(3) 0.1865(3) 0.5967(2)
H3 H 0.4544 0.2285 0.5619
C2 C 0.5906(3) 0.0634(3) 0.6510(2)
H4 H 0.6241 -0.0037 0.6608
C3 C 0.5175(3) 0.3150(3) 0.6924(2)
C4 C 0.5905(4) 0.3542(4) 0.7484(3)
H5 H 0.6571 0.3168 0.7697
C5 C 0.5622(5) 0.4515(5) 0.7724(3)
H6 H 0.6104 0.4827 0.8110
C6 C 0.4650(5) 0.5028(4) 0.7408(3)
H7 H 0.4442 0.5698 0.7563
C7 C 0.4003(4) 0.4537(4) 0.6867(2)
C8 C 0.2205(3) 0.4509(3) 0.5999(2)
H8 H 0.2286 0.3823 0.5824
C9 C 0.1628(4) 0.6037(3) 0.6178(3)
H9 H 0.1166 0.6652 0.6135
C10 C -0.0050(3) 0.2834(3) 0.5552(3)
H10 H 0.0704 0.2686 0.5444
C11 C -0.1649(3) 0.3568(3) 0.5675(2)
H11 H -0.2234 0.4088 0.5660
C12 C -0.0482(3) 0.1090(2) 0.5984(2)
C13 C -0.1188(3) 0.0496(3) 0.6337(2)
H12 H -0.1848 0.0788 0.6502
C14 C -0.0897(3) -0.0538(3) 0.6441(2)
H13 H -0.1370 -0.0984 0.6673
C15 C 0.0082(3) -0.0928(3) 0.6208(2)
H14 H 0.0295 -0.1643 0.6270
C16 C 0.0737(3) -0.0243(2) 0.58820(19)
C17 C 0.2606(3) 0.0069(3) 0.5435(2)
H15 H 0.2553 0.0806 0.5386
C18 C 0.3161(3) -0.1492(3) 0.5452(2)
H16 H 0.3631 -0.2086 0.5401
Cu2_2 Cu 1.0000 -0.5000 0.5000
O1B O 0.5965(2) -0.1427(2) 0.56054(16)
H1B H 0.652(3) -0.182(3) 0.556(3)
H2B H 0.584(4) -0.166(4) 0.5994(12)
O2B O -0.1112(3) 0.6071(2) 0.5676(2)
O3B O -0.2138(2) 0.7387(2) 0.51923(18)
O4B O -0.2140(4) 0.7000(3) 0.6289(2)
N1B N 0.4699(2) -0.0886(2) 0.41266(15)
N2B N 0.4006(3) -0.1382(3) 0.30183(17)
N3B N 0.4622(3) -0.2172(3) 0.33892(16)
N4B N 0.5780(3) -0.3607(3) 0.33895(18)
N5B N 0.7061(3) -0.4972(2) 0.3499(2)
N6B N 0.7416(3) -0.5963(3) 0.3384(2)
N7B N 0.8665(3) -0.5167(2) 0.4218(2)
N7B_2 N -0.1335(3) 0.4833(2) 0.4218(2)
N8B N 1.0599(3) -0.3740(2) 0.4547(2)
N8B_2 N 0.0599(3) 0.6260(2) 0.4547(2)
N9B N 1.1773(2) -0.2624(2) 0.40899(17)
N10B N 1.0731(2) -0.2164(2) 0.41720(17)
N11B N 0.9539(2) -0.0749(2) 0.42539(15)
N12B N 0.8203(2) 0.0542(2) 0.43487(15)
N13B N 0.7848(3) 0.1559(2) 0.4328(2)
N14B N 0.6514(2) 0.0504(2) 0.46977(15)
N15B N -0.1799(3) 0.6819(3) 0.5725(3)
C1B C 0.5012(3) -0.1865(3) 0.4033(2)
H3B H 0.5456 -0.2285 0.4381
C2B C 0.4094(3) -0.0634(3) 0.3490(2)
H4B H 0.3759 0.0037 0.3392
C3B C 0.4825(3) -0.3150(3) 0.3076(2)
C4B C 0.4095(4) -0.3542(4) 0.2516(3)
H5B H 0.3429 -0.3168 0.2303
C5B C 0.4378(5) -0.4515(5) 0.2276(3)
H6B H 0.3896 -0.4827 0.1890
C6B C 0.5350(5) -0.5028(4) 0.2592(3)
H7B H 0.5558 -0.5698 0.2437
C7B C 0.5997(4) -0.4537(4) 0.3133(2)
C8B C 0.7795(3) -0.4509(3) 0.4001(2)
H8B H 0.7714 -0.3823 0.4176
C9B C 0.8372(4) -0.6037(3) 0.3822(3)
H9B H 0.8834 -0.6652 0.3865
C10B C 1.0050(3) -0.2834(3) 0.4448(3)
H10B H 0.9296 -0.2686 0.4556
C11B C 1.1649(3) -0.3568(3) 0.4325(2)
H11B H 1.2234 -0.4088 0.4340
C12B C 1.0482(3) -0.1090(2) 0.4016(2)
C13B C 1.1188(3) -0.0496(3) 0.3663(2)
H12B H 1.1848 -0.0788 0.3498
C14B C 1.0897(3) 0.0538(3) 0.3559(2)
H13B H 1.1370 0.0984 0.3327
C15B C 0.9918(3) 0.0928(3) 0.3792(2)
H14B H 0.9705 0.1643 0.3730
C16B C 0.9263(3) 0.0243(2) 0.41180(19)
C17B C 0.7394(3) -0.0069(3) 0.4565(2)
H15B H 0.7447 -0.0806 0.4614
C18B C 0.6839(3) 0.1492(3) 0.4548(2)
H16B H 0.6369 0.2086 0.4599
loop_
_geom_bond_atom_site_label_1
_geom_bond_atom_site_label_2
_geom_bond_site_symmetry_1
_geom_bond_site_symmetry_2
Cu1 O1 1_555 1_555
Cu2 O2 1_555 1_555
O1 H1 1_555 1_555
H2 O1 1_555 1_555
O2 N15 1_555 1_555
O3 N15 1_555 1_555
O4 N15 1_555 1_555
N1 Cu1 1_555 1_555
N2 N3 1_555 1_555
N3 C1 1_555 1_555
N4 C3 1_555 1_555
N5 N6 1_555 1_555
N6 C9 1_555 1_555
N7 Cu2 1_555 1_555
N8 Cu2 1_555 1_555
N9 N10 1_555 1_555
N10 C10 1_555 1_555
N11 C12 1_555 1_555
N12 N13 1_555 1_555
N13 C18 1_555 1_555
N14 Cu1 1_555 1_555
C1 N1 1_555 1_555
H3 C1 1_555 1_555
C2 N1 1_555 1_555
H4 C2 1_555 1_555
C3 N3 1_555 1_555
C4 C3 1_555 1_555
H5 C4 1_555 1_555
C5 C4 1_555 1_555
H6 C5 1_555 1_555
C6 C5 1_555 1_555
H7 C6 1_555 1_555
C7 N4 1_555 1_555
C8 N5 1_555 1_555
H8 C8 1_555 1_555
C9 N7 1_555 1_555
H9 C9 1_555 1_555
C10 N8 1_555 1_555
H10 C10 1_555 1_555
C11 N8 1_555 1_555
H11 C11 1_555 1_555
C12 N10 1_555 1_555
C13 C12 1_555 1_555
H12 C13 1_555 1_555
C14 C13 1_555 1_555
H13 C14 1_555 1_555
C15 C14 1_555 1_555
H14 C15 1_555 1_555
C16 N11 1_555 1_555
C17 N12 1_555 1_555
H15 C17 1_555 1_555
C18 N14 1_555 1_555
H16 C18 1_555 1_555
P1 F1 1_555 1_555
F2 P1 1_555 1_555
F3 P1 1_555 1_555
Cu2_2 N7B 1_555 1_555
O1B Cu1 1_555 1_555
H1B O1B 1_555 1_555
H2B O1B 1_555 1_555
O2B Cu2 1_555 1_555
O3B N15B 1_555 1_555
O4B N15B 1_555 1_555
N1B Cu1 1_555 1_555
N2B N3B 1_555 1_555
N3B C1B 1_555 1_555
N4B C3B 1_555 1_555
N5B N6B 1_555 1_555
N6B C9B 1_555 1_555
N7B C8B 1_555 1_555
N7B_2 Cu2 1_555 1_555
N8B Cu2_2 1_555 1_555
N8B_2 Cu2 1_555 1_555
N9B N10B 1_555 1_555
N10B C10B 1_555 1_555
N11B C12B 1_555 1_555
N12B N13B 1_555 1_555
N13B C18B 1_555 1_555
N14B Cu1 1_555 1_555
N15B O2B 1_555 1_555
C1B N1B 1_555 1_555
H3B C1B 1_555 1_555
C2B N1B 1_555 1_555
H4B C2B 1_555 1_555
C3B N3B 1_555 1_555
C4B C3B 1_555 1_555
H5B C4B 1_555 1_555
C5B C4B 1_555 1_555
H6B C5B 1_555 1_555
C6B C5B 1_555 1_555
H7B C6B 1_555 1_555
C7B N4B 1_555 1_555
C8B N5B 1_555 1_555
H8B C8B 1_555 1_555
C9B N7B 1_555 1_555
H9B C9B 1_555 1_555
C10B N8B 1_555 1_555
H10B C10B 1_555 1_555
C11B N8B 1_555 1_555
H11B C11B 1_555 1_555
C12B N10B 1_555 1_555
C13B C12B 1_555 1_555
H12B C13B 1_555 1_555
C14B C13B 1_555 1_555
H13B C14B 1_555 1_555
C15B C14B 1_555 1_555
H14B C15B 1_555 1_555
C16B N11B 1_555 1_555
C17B N12B 1_555 1_555
H15B C17B 1_555 1_555
C18B N14B 1_555 1_555
H16B C18B 1_555 1_555
F1B P1 1_555 1_555
F2B P1 1_555 1_555
F3B P1 1_555 1_555
N2 C2 1_555 1_555
N5 C7 1_555 1_555
N7 C8 1_555 1_555
N9 C11 1_555 1_555
N12 C16 1_555 1_555
N14 C17 1_555 1_555
C6 C7 1_555 1_555
C15 C16 1_555 1_555
N2B C2B 1_555 1_555
N5B C7B 1_555 1_555
N9B C11B 1_555 1_555
N12B C16B 1_555 1_555
N14B C17B 1_555 1_555
C6B C7B 1_555 1_555
C15B C16B 1_555 1_555

#END
