
#######################################################################
#
#                 Cambridge Crystallographic Data Centre
#                                CCDC 
#
#######################################################################
#
# If this CIF has been generated from an entry in the Cambridge 
# Structural Database, then it will include bibliographic, chemical, 
# crystal, experimental, refinement or atomic coordinate data resulting 
# from the CCDC's data processing and validation procedures.
#
#######################################################################

data_WATGUU
_symmetry_cell_setting           monoclinic
_symmetry_space_group_name_H-M   'C 2/c'
_symmetry_Int_Tables_number      15
_space_group_name_Hall           '-C 2yn'
loop_
_symmetry_equiv_pos_site_id
_symmetry_equiv_pos_as_xyz
1 x,y,z
2 1/2+x,1/2+y,z
3 -x,y,1/2-z
4 1/2-x,1/2+y,1/2-z
5 -x,-y,-z
6 1/2-x,1/2-y,-z
7 x,-y,1/2+z
8 1/2+x,1/2-y,1/2+z
_cell_length_a                   22.045(4)
_cell_length_b                   9.4640(19)
_cell_length_c                   21.088(4)
_cell_angle_alpha                90
_cell_angle_beta                 98.56(3)
_cell_angle_gamma                90
_cell_volume                     4350.66
loop_
_atom_site_label
_atom_site_type_symbol
_atom_site_fract_x
_atom_site_fract_y
_atom_site_fract_z
Cr1 Cr 0.0000 1.0000 0.0000
Mo1 Mo -0.09381(2) 0.82878(5) 0.08287(2)
Mo2 Mo -0.14759(2) 1.08585(6) -0.01934(2)
Mo3 Mo 0.05246(2) 0.74126(5) 0.10194(3)
Na1 Na 0.0000 0.8908(4) 0.2500
O1 O -0.20921(19) 0.9824(5) -0.0482(2)
O2 O -0.1766(2) 1.2434(5) 0.0023(2)
O3 O 0.0843(2) 0.5839(5) 0.0855(3)
O4 O 0.0507(2) 0.7426(5) 0.1831(2)
O5 O -0.1568(2) 0.7300(5) 0.0541(3)
O6 O -0.00347(17) 0.9462(4) 0.08935(19)
O7 O -0.12254(18) 1.1306(5) -0.1023(2)
O8 O -0.08010(17) 0.9020(4) -0.01941(19)
O9 O -0.03290(19) 0.6911(4) 0.0713(2)
O10 O -0.12745(19) 1.0183(5) 0.0676(2)
O11 O -0.05032(17) 1.1743(4) -0.0006(2)
O12 O -0.0898(2) 0.8314(5) 0.1647(2)
O13 O -0.0378(2) 1.0885(5) 0.3103(3)
O14 O -0.0866(3) 1.2394(5) 0.3687(2)
N1 N -0.1308(5) 1.4827(10) 0.1983(5)
H1 H -0.1374 1.5723 0.1969
C1 C -0.1098(4) 1.4149(8) 0.2568(4)
H3 H -0.1055 1.4650 0.2951
C2 C -0.0954(3) 1.2727(7) 0.2564(3)
C3 C -0.1047(3) 1.2019(8) 0.1985(4)
H4 H -0.0947 1.1066 0.1972
C4 C -0.1276(4) 1.2677(9) 0.1451(3)
H5 H -0.1345 1.2159 0.1073
C5 C -0.1408(5) 1.4011(14) 0.1430(5)
H6 H -0.1571 1.4426 0.1042
C6 C -0.0712(3) 1.1936(7) 0.3174(3)
Mo1D Mo 0.09381(2) 1.17122(5) -0.08287(2)
Mo2D Mo 0.14759(2) 0.91415(6) 0.01934(2)
Mo3D Mo -0.05246(2) 1.25874(5) -0.10194(3)
Na1F Na 0.0000 1.1092(4) -0.2500
O1D O 0.20921(19) 1.0176(5) 0.0482(2)
O2D O 0.1766(2) 0.7566(5) -0.0023(2)
O3D O -0.0843(2) 1.4161(5) -0.0855(3)
O4D O -0.0507(2) 1.2574(5) -0.1831(2)
O4B O -0.0507(2) 0.7426(5) 0.3169(2)
O5D O 0.1568(2) 1.2700(5) -0.0541(3)
O6D O 0.00347(17) 1.0538(4) -0.08935(19)
O7D O 0.12254(18) 0.8694(5) 0.1023(2)
O8D O 0.08010(17) 1.0980(4) 0.01941(19)
O9D O 0.03290(19) 1.3089(4) -0.0713(2)
O10D O 0.12745(19) 0.9817(5) -0.0676(2)
O11D O 0.05032(17) 0.8257(4) 0.0006(2)
O12D O 0.0898(2) 1.1686(5) -0.1647(2)
O12B O 0.0898(2) 0.8314(5) 0.3353(2)
O13B O 0.0378(2) 1.0885(5) 0.1897(3)
O14B O 0.0866(3) 1.2394(5) 0.1313(2)
N1B N 0.1308(5) 1.4827(10) 0.3017(5)
H1B H 0.1374 1.5723 0.3031
C1B C 0.1098(4) 1.4149(8) 0.2432(4)
H3B H 0.1055 1.4650 0.2049
C2B C 0.0954(3) 1.2727(7) 0.2436(3)
C3B C 0.1047(3) 1.2019(8) 0.3015(4)
H4B H 0.0947 1.1066 0.3028
C4B C 0.1276(4) 1.2677(9) 0.3549(3)
H5B H 0.1345 1.2159 0.3927
C5B C 0.1408(5) 1.4011(14) 0.3570(5)
H6B H 0.1571 1.4426 0.3958
C6B C 0.0712(3) 1.1936(7) 0.1826(3)
Na2 Na -0.0227(2) 1.3886(5) 0.0790(3)
O15 O 0.3070(3) 1.2195(7) 0.2687(3)
O16 O 0.3194(3) 1.4503(6) 0.2883(3)
N2 N 0.2165(3) 1.3112(8) 0.0862(3)
H2 H 0.2023 1.2447 0.0604
C7 C 0.2446(3) 1.2752(9) 0.1458(4)
H7 H 0.2480 1.1810 0.1584
C8 C 0.2679(3) 1.3811(7) 0.1871(3)
C9 C 0.2609(3) 1.5207(8) 0.1674(4)
H8 H 0.2755 1.5938 0.1950
C10 C 0.2319(4) 1.5496(9) 0.1060(4)
H9 H 0.2275 1.6429 0.0923
C11 C 0.2097(3) 1.4445(10) 0.0658(4)
H10 H 0.1902 1.4647 0.0246
C12 C 0.2999(3) 1.3407(8) 0.2527(4)
loop_
_geom_bond_atom_site_label_1
_geom_bond_atom_site_label_2
_geom_bond_site_symmetry_1
_geom_bond_site_symmetry_2
Cr1 O6 1_555 1_555
Mo1 O5 1_555 1_555
Mo2 O1 1_555 1_555
Mo3 O3 1_555 1_555
Na1 O4 1_555 1_555
O2 Mo2 1_555 1_555
O4 Mo3 1_555 1_555
O6 Mo1 1_555 1_555
O7 Mo2 1_555 1_555
O8 Cr1 1_555 1_555
O9 Mo1 1_555 1_555
O10 Mo1 1_555 1_555
O11 Cr1 1_555 1_555
O12 Mo1 1_555 1_555
O13 Na1 1_555 1_555
O14 C6 1_555 1_555
O15 C12 1_555 1_555
O16 C12 1_555 1_555
N1 H1 1_555 1_555
N2 H2 1_555 1_555
C1 N1 1_555 1_555
H3 C1 1_555 1_555
C2 C1 1_555 1_555
C3 C2 1_555 1_555
H4 C3 1_555 1_555
C4 C3 1_555 1_555
H5 C4 1_555 1_555
C5 N1 1_555 1_555
H6 C5 1_555 1_555
C6 O13 1_555 1_555
C7 N2 1_555 1_555
H7 C7 1_555 1_555
C8 C7 1_555 1_555
C9 C8 1_555 1_555
H8 C9 1_555 1_555
C10 C9 1_555 1_555
H9 C10 1_555 1_555
C11 N2 1_555 1_555
H10 C11 1_555 1_555
C12 C8 1_555 1_555
Mo1D O5D 1_555 1_555
Mo2D O1D 1_555 1_555
Mo3D O7 1_555 1_555
Na1F O4D 1_555 1_555
O2D Mo2D 1_555 1_555
O3D Mo3D 1_555 1_555
O4D Mo3D 1_555 1_555
O4B Na1 1_555 1_555
O6D Cr1 1_555 1_555
O7D Mo3 1_555 1_555
O8D Cr1 1_555 1_555
O9D Mo1D 1_555 1_555
O10D Mo1D 1_555 1_555
O11D Cr1 1_555 1_555
O12D Mo1D 1_555 1_555
O12B Na1 1_555 1_555
O13B Na1 1_555 1_555
O14B C6B 1_555 1_555
N1B H1B 1_555 1_555
C1B N1B 1_555 1_555
H3B C1B 1_555 1_555
C2B C1B 1_555 1_555
C3B C2B 1_555 1_555
H4B C3B 1_555 1_555
C4B C3B 1_555 1_555
H5B C4B 1_555 1_555
C5B N1B 1_555 1_555
H6B C5B 1_555 1_555
C6B O13B 1_555 1_555
Mo1 O8 1_555 1_555
Mo2 O8 1_555 1_555
Mo2 O10 1_555 1_555
Mo2 O11 1_555 1_555
Mo3 O6 1_555 1_555
Mo3 O9 1_555 1_555
Mo3 O11D 1_555 1_555
Na1 O12 1_555 1_555
O11 Mo3D 1_555 1_555
C2 C6 1_555 1_555
C4 C5 1_555 1_555
C10 C11 1_555 1_555
Mo1D O6D 1_555 1_555
Mo1D O8D 1_555 1_555
Mo2D O7D 1_555 1_555
Mo2D O8D 1_555 1_555
Mo2D O10D 1_555 1_555
Mo2D O11D 1_555 1_555
Mo3D O6D 1_555 1_555
Mo3D O9D 1_555 1_555
Na1F O12D 1_555 1_555
C2B C6B 1_555 1_555
C4B C5B 1_555 1_555

#END
