
#######################################################################
#
#                 Cambridge Crystallographic Data Centre
#                                CCDC 
#
#######################################################################
#
# If this CIF has been generated from an entry in the Cambridge 
# Structural Database, then it will include bibliographic, chemical, 
# crystal, experimental, refinement or atomic coordinate data resulting 
# from the CCDC's data processing and validation procedures.
#
#######################################################################

data_WATGEE
_symmetry_cell_setting           triclinic
_symmetry_space_group_name_H-M   'P -1'
_symmetry_Int_Tables_number      2
_space_group_name_Hall           '-P 1'
loop_
_symmetry_equiv_pos_site_id
_symmetry_equiv_pos_as_xyz
1 x,y,z
2 -x,-y,-z
_cell_length_a                   9.804(4)
_cell_length_b                   11.071(4)
_cell_length_c                   11.700(5)
_cell_angle_alpha                80.901(8)
_cell_angle_beta                 79.941(10)
_cell_angle_gamma                79.138(11)
_cell_volume                     1217.66
loop_
_atom_site_label
_atom_site_type_symbol
_atom_site_fract_x
_atom_site_fract_y
_atom_site_fract_z
Cu1 Cu 0.0000 1.5000 0.5000
S1 S 0.23330(7) 1.09505(6) 0.57388(6)
O1 O 0.4461(2) 1.6482(2) 0.03307(17)
N1 N 0.1906(2) 1.5038(2) 0.39654(19)
C1 C 0.1958(3) 1.5509(2) 0.2831(2)
H1 H 0.1097 1.5781 0.2528
Cu2 Cu 0.0000 2.0000 0.5000
S2 S 0.12167(7) 1.59105(6) 0.68109(6)
O2 O 0.5373(2) 1.8478(2) 0.09139(17)
N2 N 0.1116(2) 1.9720(2) 0.33876(19)
C2 C 0.3203(3) 1.5618(2) 0.2077(2)
N3 N 0.0722(2) 1.3327(2) 0.56957(19)
C3 C 0.3129(3) 1.4634(2) 0.4379(2)
H2 H 0.3110 1.4283 0.5176
N4 N 0.0803(2) 1.8342(2) 0.56580(19)
C4 C 0.4418(3) 1.4711(3) 0.3688(2)
H3 H 0.5264 1.4420 0.4009
C5 C 0.4455(3) 1.5215(2) 0.2528(2)
H4 H 0.5328 1.5285 0.2042
C6 C 0.3140(3) 1.6135(3) 0.0813(2)
H5 H 0.2943 1.5501 0.0383
H6 H 0.2385 1.6865 0.0755
C7 C 0.4597(3) 1.7116(3) -0.0779(2)
C8 C 0.3549(3) 1.7363(3) -0.1484(2)
H7 H 0.2656 1.7129 -0.1193
C9 C 0.3819(3) 1.7956(3) -0.2620(2)
H8 H 0.3097 1.8149 -0.3097
C10 C 0.5128(3) 1.8268(3) -0.3063(2)
H9 H 0.5316 1.8644 -0.3849
C11 C 0.6165(3) 1.8026(2) -0.2347(2)
H10 H 0.7067 1.8231 -0.2656
C12 C 0.5911(3) 1.7488(2) -0.1184(2)
C13 C 0.7004(3) 1.7338(2) -0.0413(2)
C14 C 0.8372(3) 1.6775(2) -0.0765(2)
H11 H 0.8596 1.6436 -0.1485
C15 C 0.9425(3) 1.6699(3) -0.0079(3)
H12 H 1.0355 1.6306 -0.0327
C16 C 0.9102(3) 1.7199(3) 0.0967(3)
H13 H 0.9814 1.7149 0.1436
C17 C 0.7748(3) 1.7772(3) 0.1332(3)
H14 H 0.7532 1.8115 0.2050
C18 C 0.6715(3) 1.7844(3) 0.0651(2)
C19 C 0.4858(3) 1.8621(3) 0.2098(2)
H15 H 0.5338 1.9214 0.2363
H16 H 0.5022 1.7815 0.2600
C20 C 0.3302(3) 1.9108(2) 0.2170(2)
C21 C 0.2481(3) 1.9224(2) 0.3256(2)
H17 H 0.2910 1.8937 0.3939
C22 C 0.2663(3) 1.9503(2) 0.1180(2)
H18 H 0.3190 1.9436 0.0423
C23 C 0.1243(3) 1.9996(3) 0.1307(2)
H19 H 0.0782 2.0259 0.0639
C24 C 0.0507(3) 2.0102(2) 0.2417(2)
H20 H -0.0460 2.0456 0.2499
C25 C 0.1389(3) 1.2337(2) 0.5709(2)
C26 C 0.0966(3) 1.7332(2) 0.6136(2)
S1A S -0.23330(7) 1.90495(6) 0.42612(6)
O1A O -0.4461(2) 1.3518(2) 0.96693(17)
N1A N -0.1906(2) 1.4962(2) 0.60346(19)
C1A C -0.1958(3) 1.4491(2) 0.7169(2)
H1A H -0.1097 1.4219 0.7472
Cu2_2 Cu 0.0000 1.0000 0.5000
S2A S -0.12167(7) 2.40895(6) 0.31891(6)
O2A O -0.5373(2) 1.1522(2) 0.90861(17)
N2A N -0.1116(2) 1.0280(2) 0.66124(19)
N2A_2 N -0.1116(2) 2.0280(2) 0.66124(19)
C2A C -0.3203(3) 1.4382(2) 0.7923(2)
N3A N -0.0722(2) 1.6673(2) 0.43043(19)
C3A C -0.3129(3) 1.5366(2) 0.5621(2)
H2A H -0.3110 1.5717 0.4824
N4A N -0.0803(2) 2.1658(2) 0.43420(19)
C4A C -0.4418(3) 1.5289(3) 0.6312(2)
H3A H -0.5264 1.5580 0.5991
C5A C -0.4455(3) 1.4785(2) 0.7472(2)
H4A H -0.5328 1.4715 0.7958
C6A C -0.3140(3) 1.3865(3) 0.9187(2)
H5A H -0.2943 1.4499 0.9617
H6A H -0.2385 1.3135 0.9245
C7A C -0.4597(3) 1.2884(3) 1.0779(2)
C8A C -0.3549(3) 1.2637(3) 1.1484(2)
H7A H -0.2656 1.2871 1.1193
C9A C -0.3819(3) 1.2044(3) 1.2620(2)
H8A H -0.3097 1.1851 1.3097
C10A C -0.5128(3) 1.1732(3) 1.3063(2)
H9A H -0.5316 1.1356 1.3849
C11A C -0.6165(3) 1.1974(2) 1.2347(2)
H10A H -0.7067 1.1769 1.2656
C12A C -0.5911(3) 1.2512(2) 1.1184(2)
C13A C -0.7004(3) 1.2662(2) 1.0413(2)
C14A C -0.8372(3) 1.3225(2) 1.0765(2)
H11A H -0.8596 1.3564 1.1485
C15A C -0.9425(3) 1.3301(3) 1.0079(3)
H12A H -1.0355 1.3694 1.0327
C16A C -0.9102(3) 1.2801(3) 0.9033(3)
H13A H -0.9814 1.2851 0.8564
C17A C -0.7748(3) 1.2228(3) 0.8668(3)
H14A H -0.7532 1.1885 0.7950
C18A C -0.6715(3) 1.2156(3) 0.9349(2)
C19A C -0.4858(3) 1.1379(3) 0.7902(2)
H15A H -0.5338 1.0786 0.7637
H16A H -0.5022 1.2185 0.7400
C20A C -0.3302(3) 1.0892(2) 0.7830(2)
C21A C -0.2481(3) 1.0776(2) 0.6744(2)
H17A H -0.2910 1.1063 0.6061
C22A C -0.2663(3) 1.0497(2) 0.8820(2)
H18A H -0.3190 1.0564 0.9577
C23A C -0.1243(3) 1.0004(3) 0.8693(2)
H19A H -0.0782 0.9741 0.9361
C24A C -0.0507(3) 0.9898(2) 0.7583(2)
H20A H 0.0460 0.9544 0.7501
C25A C -0.1389(3) 1.7663(2) 0.4291(2)
C26A C -0.0966(3) 2.2668(2) 0.3864(2)
loop_
_geom_bond_atom_site_label_1
_geom_bond_atom_site_label_2
_geom_bond_site_symmetry_1
_geom_bond_site_symmetry_2
Cu1 N1 1_555 1_555
S1 C25 1_555 1_555
O1 C6 1_555 1_555
N1 C1 1_555 1_555
C1 H1 1_555 1_555
Cu2 N2 1_555 1_555
S2 C26 1_555 1_555
O2 C18 1_555 1_555
N2 C21 1_555 1_555
C2 C1 1_555 1_555
N3 Cu1 1_555 1_555
C3 N1 1_555 1_555
H2 C3 1_555 1_555
N4 Cu2 1_555 1_555
C4 C3 1_555 1_555
H3 C4 1_555 1_555
C5 C2 1_555 1_555
H4 C5 1_555 1_555
C6 C2 1_555 1_555
H5 C6 1_555 1_555
H6 C6 1_555 1_555
C7 O1 1_555 1_555
C8 C7 1_555 1_555
H7 C8 1_555 1_555
C9 C8 1_555 1_555
H8 C9 1_555 1_555
C10 C9 1_555 1_555
H9 C10 1_555 1_555
C11 C10 1_555 1_555
H10 C11 1_555 1_555
C12 C7 1_555 1_555
C13 C12 1_555 1_555
C14 C13 1_555 1_555
H11 C14 1_555 1_555
C15 C14 1_555 1_555
H12 C15 1_555 1_555
C16 C15 1_555 1_555
H13 C16 1_555 1_555
C17 C16 1_555 1_555
H14 C17 1_555 1_555
C18 C13 1_555 1_555
C19 O2 1_555 1_555
H15 C19 1_555 1_555
H16 C19 1_555 1_555
C20 C19 1_555 1_555
C21 C20 1_555 1_555
H17 C21 1_555 1_555
C22 C20 1_555 1_555
H18 C22 1_555 1_555
C23 C22 1_555 1_555
H19 C23 1_555 1_555
C24 N2 1_555 1_555
H20 C24 1_555 1_555
C25 N3 1_555 1_555
C26 N4 1_555 1_555
S1A C25A 1_555 1_555
O1A C6A 1_555 1_555
N1A Cu1 1_555 1_555
C1A N1A 1_555 1_555
H1A C1A 1_555 1_555
Cu2_2 N2A 1_555 1_555
S2A C26A 1_555 1_555
O2A C18A 1_555 1_555
N2A C21A 1_555 1_555
N2A_2 Cu2 1_555 1_555
C2A C1A 1_555 1_555
N3A Cu1 1_555 1_555
C3A N1A 1_555 1_555
H2A C3A 1_555 1_555
N4A Cu2 1_555 1_555
C4A C3A 1_555 1_555
H3A C4A 1_555 1_555
C5A C2A 1_555 1_555
H4A C5A 1_555 1_555
C6A C2A 1_555 1_555
H5A C6A 1_555 1_555
H6A C6A 1_555 1_555
C7A O1A 1_555 1_555
C8A C7A 1_555 1_555
H7A C8A 1_555 1_555
C9A C8A 1_555 1_555
H8A C9A 1_555 1_555
C10A C9A 1_555 1_555
H9A C10A 1_555 1_555
C11A C10A 1_555 1_555
H10A C11A 1_555 1_555
C12A C7A 1_555 1_555
C13A C12A 1_555 1_555
C14A C13A 1_555 1_555
H11A C14A 1_555 1_555
C15A C14A 1_555 1_555
H12A C15A 1_555 1_555
C16A C15A 1_555 1_555
H13A C16A 1_555 1_555
C17A C16A 1_555 1_555
H14A C17A 1_555 1_555
C18A C13A 1_555 1_555
C19A O2A 1_555 1_555
H15A C19A 1_555 1_555
H16A C19A 1_555 1_555
C20A C19A 1_555 1_555
C21A C20A 1_555 1_555
H17A C21A 1_555 1_555
C22A C20A 1_555 1_555
H18A C22A 1_555 1_555
C23A C22A 1_555 1_555
H19A C23A 1_555 1_555
C24A N2A 1_555 1_555
H20A C24A 1_555 1_555
C25A N3A 1_555 1_555
C26A N4A 1_555 1_555
C4 C5 1_555 1_555
C11 C12 1_555 1_555
C17 C18 1_555 1_555
C23 C24 1_555 1_555
C4A C5A 1_555 1_555
C11A C12A 1_555 1_555
C17A C18A 1_555 1_555
C23A C24A 1_555 1_555

#END
