
#######################################################################
#
#                 Cambridge Crystallographic Data Centre
#                                CCDC 
#
#######################################################################
#
# If this CIF has been generated from an entry in the Cambridge 
# Structural Database, then it will include bibliographic, chemical, 
# crystal, experimental, refinement or atomic coordinate data resulting 
# from the CCDC's data processing and validation procedures.
#
#######################################################################

data_WATGII
_symmetry_cell_setting           triclinic
_symmetry_space_group_name_H-M   'P -1'
_symmetry_Int_Tables_number      2
_space_group_name_Hall           '-P 1'
loop_
_symmetry_equiv_pos_site_id
_symmetry_equiv_pos_as_xyz
1 x,y,z
2 -x,-y,-z
_cell_length_a                   13.174
_cell_length_b                   13.815
_cell_length_c                   15.146
_cell_angle_alpha                87.82
_cell_angle_beta                 84.57
_cell_angle_gamma                62.96
_cell_volume                     2444.18
loop_
_atom_site_label
_atom_site_type_symbol
_atom_site_fract_x
_atom_site_fract_y
_atom_site_fract_z
Zn1 Zn 0.27629(4) -0.05552(3) 0.74101(3)
O1 O -0.3091(2) 0.4358(2) 0.57038(15)
N1 N 0.1214(3) -0.0651(3) 0.7924(2)
C1 C 0.0363(4) -0.0676(4) 0.7974(3)
O2 O -0.0842(2) 0.41865(19) 0.51438(15)
N2 N -0.0632(4) -0.0654(4) 0.8080(4)
C2 C -0.0898(5) -0.1340(5) 0.7662(4)
O3 O 0.1634(2) 0.4109(2) 0.99014(16)
N3 N -0.1222(6) -0.1889(6) 0.7406(5)
C3 C 0.4929(4) -0.0173(4) 0.6619(3)
O4 O 0.3818(2) 0.4176(2) 0.94202(16)
N4 N 0.4273(3) -0.0444(3) 0.6889(2)
C4 C 0.5830(7) 0.0898(9) 0.6558(6)
N5 N 0.5644(6) 0.0150(7) 0.6221(5)
C5 C 0.2381(3) 0.2355(3) 0.8830(2)
H1 H 0.2591 0.2902 0.8679
N6 N 0.5998(8) 0.1584(8) 0.6834(7)
C6 C 0.2626(4) 0.1529(3) 0.8237(2)
H2 H 0.3002 0.1539 0.7688
N7 N 0.2354(3) 0.0722(2) 0.84033(18)
C7 C 0.1839(4) 0.0714(3) 0.9205(2)
H3 H 0.1657 0.0147 0.9344
N8 N 0.1794(3) 0.0704(2) 0.64591(19)
C8 C 0.1566(4) 0.1506(3) 0.9831(2)
H4 H 0.1207 0.1467 1.0380
N9 N -0.3040(2) 0.1768(2) 0.35721(19)
C9 C 0.1822(3) 0.2361(3) 0.9650(2)
N10 N 0.6259(2) 0.1700(2) 1.1588(2)
C10 C 0.1479(4) 0.3249(3) 1.0317(2)
H5 H 0.0685 0.3500 1.0537
H6 H 0.1946 0.2982 1.0814
C11 C 0.1396(3) 0.5009(3) 1.0400(2)
C12 C 0.0901(3) 0.5171(3) 1.1260(2)
H7 H 0.0711 0.4656 1.1538
C13 C 0.0692(4) 0.6104(4) 1.1704(3)
H8 H 0.0365 0.6213 1.2286
C14 C 0.0958(4) 0.6871(4) 1.1299(3)
H9 H 0.0828 0.7492 1.1607
C15 C 0.1422(4) 0.6712(3) 1.0431(3)
H10 H 0.1583 0.7244 1.0152
C16 C 0.1655(3) 0.5780(3) 0.9961(2)
C17 C 0.2138(3) 0.5637(3) 0.9020(2)
C18 C 0.1529(4) 0.6361(3) 0.8378(3)
H11 H 0.0810 0.6924 0.8543
C19 C 0.1957(4) 0.6269(4) 0.7506(3)
H12 H 0.1534 0.6769 0.7092
C20 C 0.3011(4) 0.5437(4) 0.7245(3)
H13 H 0.3294 0.5361 0.6652
C21 C 0.3655(4) 0.4705(3) 0.7874(2)
H14 H 0.4374 0.4145 0.7704
C22 C 0.3218(3) 0.4819(3) 0.8754(2)
C23 C 0.4948(3) 0.3371(4) 0.9197(3)
H15 H 0.5420 0.3701 0.8942
H16 H 0.4956 0.2861 0.8770
C24 C 0.5387(3) 0.2801(3) 1.0051(2)
C25 C 0.6056(3) 0.3066(3) 1.0528(3)
H17 H 0.6225 0.3629 1.0340
C26 C 0.6479(3) 0.2504(3) 1.1282(3)
H18 H 0.6939 0.2694 1.1592
C27 C 0.5565(3) 0.1474(3) 1.1150(3)
H19 H 0.5369 0.0939 1.1372
C28 C 0.5124(4) 0.1995(3) 1.0382(3)
H20 H 0.4652 0.1803 1.0089
C29 C 0.0153(3) 0.2354(3) 0.6149(2)
H21 H -0.0567 0.2894 0.6346
C30 C 0.0758(3) 0.1510(3) 0.6699(2)
H22 H 0.0429 0.1499 0.7268
C31 C 0.2231(3) 0.0731(3) 0.5626(2)
H23 H 0.2943 0.0173 0.5437
C32 C 0.1678(3) 0.1535(3) 0.5046(2)
H24 H 0.2011 0.1511 0.4472
C33 C 0.0623(3) 0.2391(3) 0.5303(2)
C34 C 0.0056(3) 0.3309(3) 0.4672(2)
H25 H 0.0610 0.3535 0.4397
H26 H -0.0241 0.3072 0.4208
C35 C -0.1471(3) 0.5102(3) 0.4674(2)
C36 C -0.1176(3) 0.5251(3) 0.3794(2)
H27 H -0.0528 0.4713 0.3492
C37 C -0.1847(4) 0.6199(4) 0.3369(3)
H28 H -0.1658 0.6295 0.2776
C38 C -0.2794(4) 0.7001(4) 0.3818(3)
H29 H -0.3249 0.7636 0.3527
C39 C -0.3069(4) 0.6869(3) 0.4693(3)
H30 H -0.3698 0.7427 0.4995
C40 C -0.2422(3) 0.5913(3) 0.5140(2)
C41 C -0.2754(3) 0.5802(3) 0.6086(2)
C42 C -0.2822(3) 0.6539(3) 0.6723(3)
H31 H -0.2616 0.7084 0.6550
C43 C -0.3178(4) 0.6487(4) 0.7581(3)
H32 H -0.3211 0.6989 0.7989
C44 C -0.3493(4) 0.5693(4) 0.7854(3)
H33 H -0.3733 0.5654 0.8446
C45 C -0.3451(4) 0.4952(3) 0.7246(3)
H34 H -0.3660 0.4412 0.7428
C46 C -0.3099(3) 0.5015(3) 0.6371(2)
C47 C -0.3579(4) 0.3646(3) 0.5905(3)
H35 H -0.4389 0.4053 0.6086
H36 H -0.3208 0.3161 0.6382
C48 C -0.3397(3) 0.3018(3) 0.5075(2)
C49 C -0.2316(3) 0.2250(3) 0.4769(3)
H37 H -0.1687 0.2141 0.5067
C50 C -0.2171(3) 0.1654(3) 0.4034(3)
H38 H -0.1434 0.1143 0.3841
C51 C -0.4071(3) 0.2531(3) 0.3853(3)
H39 H -0.4685 0.2644 0.3534
C52 C -0.4278(3) 0.3160(3) 0.4588(3)
H40 H -0.5017 0.3685 0.4757
Zn1A Zn -0.27629(4) 0.05552(3) 0.25899(3)
Zn1A_2 Zn 0.72371(4) 0.05552(3) 1.25899(3)
N9A N 0.3040(2) -0.1768(2) 0.64279(19)
N10A N 0.3741(2) -0.1700(2) 0.8412(2)
O5 O 0.7430(10) 0.1722(9) 0.8014(11)
loop_
_geom_bond_atom_site_label_1
_geom_bond_atom_site_label_2
_geom_bond_site_symmetry_1
_geom_bond_site_symmetry_2
Zn1 N1 1_555 1_555
O1 C46 1_555 1_555
N1 C1 1_555 1_555
C1 N2 1_555 1_555
O2 C34 1_555 1_555
N2 C2 1_555 1_555
C2 N3 1_555 1_555
O3 C10 1_555 1_555
C3 N4 1_555 1_555
O4 C22 1_555 1_555
N4 Zn1 1_555 1_555
C4 N5 1_555 1_555
N5 C3 1_555 1_555
C5 H1 1_555 1_555
N6 C4 1_555 1_555
C6 C5 1_555 1_555
H2 C6 1_555 1_555
N7 Zn1 1_555 1_555
C7 N7 1_555 1_555
H3 C7 1_555 1_555
N8 Zn1 1_555 1_555
C8 C7 1_555 1_555
H4 C8 1_555 1_555
N9 C50 1_555 1_555
C9 C5 1_555 1_555
N10 C26 1_555 1_555
C10 C9 1_555 1_555
H5 C10 1_555 1_555
H6 C10 1_555 1_555
C11 O3 1_555 1_555
C12 C11 1_555 1_555
H7 C12 1_555 1_555
C13 C12 1_555 1_555
H8 C13 1_555 1_555
C14 C13 1_555 1_555
H9 C14 1_555 1_555
C15 C14 1_555 1_555
H10 C15 1_555 1_555
C16 C11 1_555 1_555
C17 C16 1_555 1_555
C18 C17 1_555 1_555
H11 C18 1_555 1_555
C19 C18 1_555 1_555
H12 C19 1_555 1_555
C20 C19 1_555 1_555
H13 C20 1_555 1_555
C21 C20 1_555 1_555
H14 C21 1_555 1_555
C22 C17 1_555 1_555
C23 O4 1_555 1_555
H15 C23 1_555 1_555
H16 C23 1_555 1_555
C24 C23 1_555 1_555
C25 C24 1_555 1_555
H17 C25 1_555 1_555
C26 C25 1_555 1_555
H18 C26 1_555 1_555
C27 N10 1_555 1_555
H19 C27 1_555 1_555
C28 C24 1_555 1_555
H20 C28 1_555 1_555
C29 H21 1_555 1_555
C30 N8 1_555 1_555
H22 C30 1_555 1_555
C31 N8 1_555 1_555
H23 C31 1_555 1_555
C32 C31 1_555 1_555
H24 C32 1_555 1_555
C33 C29 1_555 1_555
C34 C33 1_555 1_555
H25 C34 1_555 1_555
H26 C34 1_555 1_555
C35 O2 1_555 1_555
C36 C35 1_555 1_555
H27 C36 1_555 1_555
C37 C36 1_555 1_555
H28 C37 1_555 1_555
C38 C37 1_555 1_555
H29 C38 1_555 1_555
C39 C38 1_555 1_555
H30 C39 1_555 1_555
C40 C35 1_555 1_555
C41 C40 1_555 1_555
C42 C41 1_555 1_555
H31 C42 1_555 1_555
C43 C42 1_555 1_555
H32 C43 1_555 1_555
C44 C43 1_555 1_555
H33 C44 1_555 1_555
C45 C44 1_555 1_555
H34 C45 1_555 1_555
C46 C41 1_555 1_555
C47 O1 1_555 1_555
H35 C47 1_555 1_555
H36 C47 1_555 1_555
C48 C47 1_555 1_555
C49 C48 1_555 1_555
H37 C49 1_555 1_555
C50 C49 1_555 1_555
H38 C50 1_555 1_555
C51 N9 1_555 1_555
H39 C51 1_555 1_555
C52 C48 1_555 1_555
H40 C52 1_555 1_555
Zn1A N9 1_555 1_555
Zn1A_2 N10 1_555 1_555
N9A Zn1 1_555 1_555
N10A Zn1 1_555 1_555
C6 N7 1_555 1_555
C8 C9 1_555 1_555
C15 C16 1_555 1_555
C21 C22 1_555 1_555
C27 C28 1_555 1_555
C29 C30 1_555 1_555
C32 C33 1_555 1_555
C39 C40 1_555 1_555
C45 C46 1_555 1_555
C51 C52 1_555 1_555

#END
