
#######################################################################
#
#                 Cambridge Crystallographic Data Centre
#                                CCDC 
#
#######################################################################
#
# If this CIF has been generated from an entry in the Cambridge 
# Structural Database, then it will include bibliographic, chemical, 
# crystal, experimental, refinement or atomic coordinate data resulting 
# from the CCDC's data processing and validation procedures.
#
#######################################################################

data_WATVES
_symmetry_cell_setting           monoclinic
_symmetry_space_group_name_H-M   'P 21/c'
_symmetry_Int_Tables_number      14
_space_group_name_Hall           '-P 2ybc'
loop_
_symmetry_equiv_pos_site_id
_symmetry_equiv_pos_as_xyz
1 x,y,z
2 -x,1/2+y,1/2-z
3 -x,-y,-z
4 x,1/2-y,1/2+z
_cell_length_a                   10.782(2)
_cell_length_b                   18.100(6)
_cell_length_c                   12.886(4)
_cell_angle_alpha                90
_cell_angle_beta                 105.22(2)
_cell_angle_gamma                90
_cell_volume                     2426.55
loop_
_atom_site_label
_atom_site_type_symbol
_atom_site_fract_x
_atom_site_fract_y
_atom_site_fract_z
Mn1 Mn 0.1041(1) 0.1913(1) 0.3699(1)
O1 O 0.2243(5) 0.2603(3) 0.3427(4)
C1 C 0.3191(8) 0.2930(4) 0.4130(7)
C2 C 0.4136(9) 0.3295(5) 0.3750(8)
C3 C 0.5156(10) 0.3642(6) 0.4447(9)
C4 C 0.5257(11) 0.3657(6) 0.5548(9)
C5 C 0.4319(9) 0.3342(5) 0.5933(8)
C6 C 0.3293(8) 0.2964(4) 0.5245(7)
C7 C 0.2311(9) 0.2667(5) 0.5712(7)
N1 N 0.1356(7) 0.2277(4) 0.5206(5)
C8 C 0.0388(9) 0.2013(5) 0.5734(6)
C9 C 0.0087(9) 0.1231(5) 0.5383(6)
N2 N -0.0099(7) 0.1205(4) 0.4202(5)
C10 C -0.0851(8) 0.0727(5) 0.3625(7)
C11 C -0.1049(8) 0.0620(4) 0.2495(7)
C12 C -0.1969(9) 0.0096(5) 0.1981(7)
C13 C -0.2222(9) -0.0043(5) 0.0892(7)
C14 C -0.1524(9) 0.0353(5) 0.0303(7)
C15 C -0.0628(8) 0.0870(5) 0.0770(7)
C16 C -0.0351(8) 0.1017(5) 0.1881(6)
O2 O 0.0550(6) 0.1511(3) 0.2290(4)
O3 O 0.2599(6) 0.1097(3) 0.4204(5)
C17 C 0.2650(8) 0.0413(5) 0.4008(7)
O4 O 0.2326(7) -0.0086(4) 0.4550(6)
C18 C 0.3071(9) 0.0211(5) 0.3013(7)
N3 N 0.3324(8) -0.0570(4) 0.2897(6)
C19 C 0.2398(9) -0.1086(5) 0.2561(7)
C20 C 0.1095(8) -0.0935(5) 0.2188(6)
C21 C 0.0238(9) -0.1496(5) 0.1825(7)
N4 N 0.0564(7) -0.2212(4) 0.1796(6)
C22 C 0.1831(9) -0.2352(5) 0.2190(7)
C23 C 0.2745(9) -0.1839(5) 0.2556(7)
H1 H 0.4069 0.3299 0.2992
H2 H 0.5798 0.3877 0.4167
H3 H 0.5974 0.3900 0.6026
H4 H 0.4374 0.3371 0.6688
H5 H 0.2385 0.2778 0.6455
H6 H 0.0718 0.2036 0.6501
H7 H -0.0374 0.2309 0.5516
H8 H 0.0785 0.0915 0.5737
H9 H -0.0684 0.1075 0.5559
H10 H -0.1312 0.0406 0.3985
H11 H -0.2435 -0.0175 0.2398
H12 H -0.2851 -0.0402 0.0548
H13 H -0.1682 0.0260 -0.0454
H14 H -0.0192 0.1143 0.0333
H15 H 0.3838 0.0483 0.3021
H16 H 0.2396 0.0356 0.2399
H17 H 0.4203 -0.0730 0.3086
H18 H 0.0794 -0.0436 0.2186
H19 H -0.0659 -0.1376 0.1587
H20 H 0.2105 -0.2859 0.2223
H21 H 0.3630 -0.1981 0.2816
N4A N -0.0564(7) 0.2788(4) 0.3204(6)
Mn1A Mn -0.1041(1) -0.3087(1) 0.1301(1)
O5 O 0.3708(10) -0.0982(6) 0.6048(8)
C24 C 0.4110(12) -0.1633(7) 0.5763(11)
H22 H 0.4585 -0.1880 0.6404
H23 H 0.4656 -0.1557 0.5292
H24 H 0.3387 -0.1931 0.5407
O6 O 0.6075(8) -0.0875(5) 0.3643(6)
loop_
_geom_bond_atom_site_label_1
_geom_bond_atom_site_label_2
_geom_bond_site_symmetry_1
_geom_bond_site_symmetry_2
Mn1 O1 1_555 1_555
O1 C1 1_555 1_555
C1 C2 1_555 1_555
C2 C3 1_555 1_555
C3 C4 1_555 1_555
C4 C5 1_555 1_555
C5 C6 1_555 1_555
C6 C1 1_555 1_555
C7 C6 1_555 1_555
N1 Mn1 1_555 1_555
C8 N1 1_555 1_555
C9 C8 1_555 1_555
N2 Mn1 1_555 1_555
C10 N2 1_555 1_555
C11 C10 1_555 1_555
C12 C11 1_555 1_555
C13 C12 1_555 1_555
C14 C13 1_555 1_555
C15 C14 1_555 1_555
C16 C11 1_555 1_555
O2 Mn1 1_555 1_555
O3 Mn1 1_555 1_555
C17 O3 1_555 1_555
O4 C17 1_555 1_555
C18 C17 1_555 1_555
N3 C18 1_555 1_555
C19 N3 1_555 1_555
C20 C19 1_555 1_555
C21 C20 1_555 1_555
N4 C21 1_555 1_555
C22 N4 1_555 1_555
C23 C19 1_555 1_555
O5 C24 1_555 1_555
C24 H22 1_555 1_555
H1 C2 1_555 1_555
H2 C3 1_555 1_555
H3 C4 1_555 1_555
H4 C5 1_555 1_555
H5 C7 1_555 1_555
H6 C8 1_555 1_555
H7 C8 1_555 1_555
H8 C9 1_555 1_555
H9 C9 1_555 1_555
H10 C10 1_555 1_555
H11 C12 1_555 1_555
H12 C13 1_555 1_555
H13 C14 1_555 1_555
H14 C15 1_555 1_555
H15 C18 1_555 1_555
H16 C18 1_555 1_555
H17 N3 1_555 1_555
H18 C20 1_555 1_555
H19 C21 1_555 1_555
H20 C22 1_555 1_555
H21 C23 1_555 1_555
H23 C24 1_555 1_555
H24 C24 1_555 1_555
N4A Mn1 1_555 1_555
Mn1A N4 1_555 1_555
C7 N1 1_555 1_555
C9 N2 1_555 1_555
C15 C16 1_555 1_555
C16 O2 1_555 1_555
C22 C23 1_555 1_555

#END
