
#######################################################################
#
#                 Cambridge Crystallographic Data Centre
#                                CCDC 
#
#######################################################################
#
# If this CIF has been generated from an entry in the Cambridge 
# Structural Database, then it will include bibliographic, chemical, 
# crystal, experimental, refinement or atomic coordinate data resulting 
# from the CCDC's data processing and validation procedures.
#
#######################################################################

data_WATVIW
_symmetry_cell_setting           monoclinic
_symmetry_space_group_name_H-M   'P 21/c'
_symmetry_Int_Tables_number      14
_space_group_name_Hall           '-P 2ybc'
loop_
_symmetry_equiv_pos_site_id
_symmetry_equiv_pos_as_xyz
1 x,y,z
2 -x,1/2+y,1/2-z
3 -x,-y,-z
4 x,1/2-y,1/2+z
_cell_length_a                   10.670(1)
_cell_length_b                   17.754(3)
_cell_length_c                   12.714(2)
_cell_angle_alpha                90
_cell_angle_beta                 108.78(1)
_cell_angle_gamma                90
_cell_volume                     2280.26
loop_
_atom_site_label
_atom_site_type_symbol
_atom_site_fract_x
_atom_site_fract_y
_atom_site_fract_z
O5 O 0.3719(8) -0.1546(4) 0.5877(6)
H21 H 0.3434(91) -0.1164(50) 0.5415(76)
H22 H 0.401(10) -0.1746(58) 0.5475(84)
Mn1 Mn 0.0951(1) 0.1843(1) 0.3764(1)
O1 O 0.2150(3) 0.2530(2) 0.3467(3)
C1 C 0.3182(5) 0.2840(3) 0.4225(4)
C2 C 0.4219(5) 0.3103(3) 0.3889(5)
C3 C 0.5287(6) 0.3450(4) 0.4638(6)
C4 C 0.5383(6) 0.3558(3) 0.5726(6)
C5 C 0.4364(6) 0.3311(3) 0.6072(5)
C6 C 0.3248(5) 0.2941(3) 0.5353(4)
C7 C 0.2222(6) 0.2709(3) 0.5774(4)
N1 N 0.1225(4) 0.2308(2) 0.5245(3)
C8 C 0.0192(6) 0.2094(3) 0.5722(4)
C9 C -0.0137(6) 0.1278(3) 0.5427(4)
N2 N -0.0278(4) 0.1191(2) 0.4233(3)
C10 C -0.1061(5) 0.0692(3) 0.3648(4)
C11 C -0.1240(5) 0.0536(3) 0.2492(4)
C12 C -0.2210(6) 0.0001(3) 0.1950(5)
C13 C -0.2468(6) -0.0155(3) 0.0842(5)
C14 C -0.1757(6) 0.0208(3) 0.0255(5)
C15 C -0.0812(6) 0.0727(3) 0.0755(4)
C16 C -0.0510(5) 0.0905(3) 0.1891(4)
O2 O 0.0436(3) 0.1395(2) 0.2336(3)
O3 O 0.2456(4) 0.1049(2) 0.4559(3)
C17 C 0.2872(5) 0.0417(3) 0.4402(5)
O4 O 0.2879(5) -0.0141(2) 0.4966(4)
C18 C 0.3423(6) 0.0365(3) 0.3435(5)
S1 S 0.4126(2) -0.0514(1) 0.3233(1)
C19 C 0.2781(5) -0.1119(3) 0.2721(4)
C20 C 0.1448(5) -0.0937(3) 0.2350(4)
C21 C 0.0517(5) -0.1484(3) 0.1948(4)
N3 N -0.0795(4) 0.2782(2) 0.3122(3)
C22 C -0.2079(6) 0.2613(3) 0.2766(5)
C23 C 0.3073(6) -0.1883(3) 0.2645(5)
H1 H 0.4188 0.3043 0.3131
H2 H 0.5996 0.3623 0.4388
H3 H 0.6143 0.3801 0.6234
H4 H 0.4412 0.3393 0.6830
H5 H 0.2286 0.2867 0.6512
H6 H 0.0513 0.2155 0.6514
H7 H -0.0579 0.2401 0.5413
H8 H -0.0952 0.1147 0.5551
H9 H 0.0561 0.0961 0.5872
H10 H -0.1568 0.0400 0.4002
H11 H -0.2695 -0.0256 0.2360
H12 H -0.3138 -0.0515 0.0477
H13 H -0.1932 0.0093 -0.0517
H14 H -0.0342 0.0976 0.0325
H15 H 0.2712 0.0476 0.2766
H16 H 0.4100 0.0742 0.3550
H17 H 0.1178 -0.0424 0.2376
H18 H -0.0396 -0.1335 0.1698
H19 H -0.2320 0.2095 0.2803
H20 H 0.3977 -0.2049 0.2885
N3A N 0.0795(4) -0.2218(2) 0.1878(3)
C21A C -0.0517(5) 0.3516(3) 0.3052(4)
C23A C -0.3073(6) 0.3117(3) 0.2355(5)
C22A C 0.2079(6) -0.2387(3) 0.2234(5)
Mn1A Mn -0.0951(1) -0.3157(1) 0.1236(1)
C20A C -0.1448(5) 0.4063(3) 0.2650(4)
H18A H 0.0396 0.3665 0.3302
C19A C -0.2781(5) 0.3881(3) 0.2279(4)
H20A H -0.3977 0.2951 0.2115
H19A H 0.2320 -0.2905 0.2197
O1A O -0.2150(3) -0.2470(2) 0.1533(3)
N1A N -0.1225(4) -0.2692(2) -0.0245(3)
N2A N 0.0278(4) -0.3809(2) 0.0767(3)
O2A O -0.0436(3) -0.3605(2) 0.2664(3)
O3A O -0.2456(4) -0.3951(2) 0.0441(3)
H17A H -0.1178 0.4576 0.2624
S1A S -0.4126(2) 0.4486(1) 0.1767(1)
C1A C -0.3182(5) -0.2160(3) 0.0775(4)
C7A C -0.2222(6) -0.2291(3) -0.0774(4)
C8A C -0.0192(6) -0.2906(3) -0.0722(4)
C9A C 0.0137(6) -0.3722(3) -0.0427(4)
C10A C 0.1061(5) -0.4308(3) 0.1352(4)
C16A C 0.0510(5) -0.4095(3) 0.3109(4)
C17A C -0.2872(5) -0.4583(3) 0.0598(5)
C18A C -0.3423(6) 0.5365(3) 0.1565(5)
C2A C -0.4219(5) -0.1897(3) 0.1111(5)
C6A C -0.3248(5) -0.2059(3) -0.0353(4)
H5A H -0.2286 -0.2133 -0.1512
H6A H -0.0513 -0.2845 -0.1514
H7A H 0.0579 -0.2599 -0.0413
H8A H 0.0952 -0.3853 -0.0551
H9A H -0.0561 -0.4039 -0.0872
C11A C 0.1240(5) -0.4464(3) 0.2508(4)
H10A H 0.1568 -0.4600 0.0998
C15A C 0.0812(6) -0.4273(3) 0.4245(4)
O4A O -0.2879(5) -0.5141(2) 0.0034(4)
C18A_2 C -0.3423(6) -0.4635(3) 0.1565(5)
C17A_2 C -0.2872(5) 0.5417(3) 0.0598(5)
H15A H -0.2712 0.5476 0.2234
H16A H -0.4100 0.5742 0.1450
C3A C -0.5287(6) -0.1550(4) 0.0362(6)
H1A H -0.4188 -0.1957 0.1869
C5A C -0.4364(6) -0.1689(3) -0.1072(5)
C12A C 0.2210(6) -0.4999(3) 0.3050(5)
C14A C 0.1757(6) -0.4792(3) 0.4745(5)
H14A H 0.0342 -0.4024 0.4675
C4A C -0.5383(6) -0.1442(3) -0.0726(6)
H2A H -0.5996 -0.1377 0.0612
H4A H -0.4412 -0.1607 -0.1830
C13A C 0.2468(6) -0.5155(3) 0.4158(5)
H11A H 0.2695 -0.5256 0.2640
H13A H 0.1932 -0.4907 0.5517
H3A H -0.6143 -0.1199 -0.1234
H12A H 0.3138 -0.5515 0.4523
loop_
_geom_bond_atom_site_label_1
_geom_bond_atom_site_label_2
_geom_bond_site_symmetry_1
_geom_bond_site_symmetry_2
Mn1 O1 1_555 1_555
O1 C1 1_555 1_555
C1 C2 1_555 1_555
C2 C3 1_555 1_555
C3 C4 1_555 1_555
C4 C5 1_555 1_555
C5 C6 1_555 1_555
C6 C1 1_555 1_555
C7 C6 1_555 1_555
N1 Mn1 1_555 1_555
C8 N1 1_555 1_555
C9 C8 1_555 1_555
N2 Mn1 1_555 1_555
C10 N2 1_555 1_555
C11 C10 1_555 1_555
C12 C11 1_555 1_555
C13 C12 1_555 1_555
C14 C13 1_555 1_555
C15 C14 1_555 1_555
C16 C11 1_555 1_555
O2 Mn1 1_555 1_555
O3 Mn1 1_555 1_555
C17 O3 1_555 1_555
O4 C17 1_555 1_555
C18 C17 1_555 1_555
S1 C18 1_555 1_555
C19 S1 1_555 1_555
C20 C19 1_555 1_555
C21 C20 1_555 1_555
N3 Mn1 1_555 1_555
C22 N3 1_555 1_555
C23 C19 1_555 1_555
O5 H21 1_555 1_555
H1 C2 1_555 1_555
H2 C3 1_555 1_555
H3 C4 1_555 1_555
H4 C5 1_555 1_555
H5 C7 1_555 1_555
H6 C8 1_555 1_555
H7 C8 1_555 1_555
H8 C9 1_555 1_555
H9 C9 1_555 1_555
H10 C10 1_555 1_555
H11 C12 1_555 1_555
H12 C13 1_555 1_555
H13 C14 1_555 1_555
H14 C15 1_555 1_555
H15 C18 1_555 1_555
H16 C18 1_555 1_555
H17 C20 1_555 1_555
H18 C21 1_555 1_555
H19 C22 1_555 1_555
H20 C23 1_555 1_555
H22 O5 1_555 1_555
N3A C21 1_555 1_555
C21A N3 1_555 1_555
C23A C22 1_555 1_555
C22A C23 1_555 1_555
Mn1A N3A 1_555 1_555
C20A C21A 1_555 1_555
H18A C21A 1_555 1_555
C19A C23A 1_555 1_555
H20A C23A 1_555 1_555
H19A C22A 1_555 1_555
O1A Mn1A 1_555 1_555
N1A Mn1A 1_555 1_555
N2A Mn1A 1_555 1_555
O2A Mn1A 1_555 1_555
O3A Mn1A 1_555 1_555
H17A C20A 1_555 1_555
S1A C19A 1_555 1_555
C1A O1A 1_555 1_555
C7A N1A 1_555 1_555
C8A N1A 1_555 1_555
C9A N2A 1_555 1_555
C10A N2A 1_555 1_555
C16A O2A 1_555 1_555
C17A O3A 1_555 1_555
C18A S1A 1_555 1_555
C2A C1A 1_555 1_555
C6A C1A 1_555 1_555
H5A C7A 1_555 1_555
H6A C8A 1_555 1_555
H7A C8A 1_555 1_555
H8A C9A 1_555 1_555
H9A C9A 1_555 1_555
C11A C10A 1_555 1_555
H10A C10A 1_555 1_555
C15A C16A 1_555 1_555
O4A C17A 1_555 1_555
C18A_2 C17A 1_555 1_555
C17A_2 C18A 1_555 1_555
H15A C18A 1_555 1_555
H16A C18A 1_555 1_555
C3A C2A 1_555 1_555
H1A C2A 1_555 1_555
C5A C6A 1_555 1_555
C12A C11A 1_555 1_555
C14A C15A 1_555 1_555
H14A C15A 1_555 1_555
C4A C3A 1_555 1_555
H2A C3A 1_555 1_555
H4A C5A 1_555 1_555
C13A C12A 1_555 1_555
H11A C12A 1_555 1_555
H13A C14A 1_555 1_555
H3A C4A 1_555 1_555
H12A C13A 1_555 1_555
C7 N1 1_555 1_555
C9 N2 1_555 1_555
C15 C16 1_555 1_555
C16 O2 1_555 1_555
N3A C22A 1_555 1_555
C20A C19A 1_555 1_555
C7A C6A 1_555 1_555
C8A C9A 1_555 1_555
C16A C11A 1_555 1_555
C5A C4A 1_555 1_555
C14A C13A 1_555 1_555

#END
