
#######################################################################
#
#                 Cambridge Crystallographic Data Centre
#                                CCDC 
#
#######################################################################
#
# If this CIF has been generated from an entry in the Cambridge 
# Structural Database, then it will include bibliographic, chemical, 
# crystal, experimental, refinement or atomic coordinate data resulting 
# from the CCDC's data processing and validation procedures.
#
#######################################################################

data_WATVOC
_symmetry_cell_setting           monoclinic
_symmetry_space_group_name_H-M   'P 21/n'
_symmetry_Int_Tables_number      14
_space_group_name_Hall           '-P 2yn'
loop_
_symmetry_equiv_pos_site_id
_symmetry_equiv_pos_as_xyz
1 x,y,z
2 1/2-x,1/2+y,1/2-z
3 -x,-y,-z
4 1/2+x,1/2-y,1/2+z
_cell_length_a                   14.295(4)
_cell_length_b                   11.614(4)
_cell_length_c                   27.220(7)
_cell_angle_alpha                90
_cell_angle_beta                 90.20(2)
_cell_angle_gamma                90
_cell_volume                     4519.09
loop_
_atom_site_label
_atom_site_type_symbol
_atom_site_fract_x
_atom_site_fract_y
_atom_site_fract_z
Mn2 Mn 0.1626(1) 0.1702(1) 0.2143(1)
O5 O 0.0775(3) 0.0749(4) 0.1797(2)
C26 C 0.0856(5) 0.0453(6) 0.1334(3)
C27 C 0.0382(6) -0.0538(6) 0.1168(3)
C28 C 0.0440(6) -0.0897(7) 0.0683(3)
C29 C 0.0950(6) -0.0293(7) 0.0348(3)
C30 C 0.1391(6) 0.0704(7) 0.0493(3)
C31 C 0.1359(5) 0.1086(6) 0.0980(3)
C32 C 0.1845(5) 0.2155(6) 0.1094(3)
N5 N 0.1955(4) 0.2534(4) 0.1531(2)
C33 C 0.2480(6) 0.3624(6) 0.1616(3)
C34 C 0.3099(6) 0.3397(6) 0.2055(3)
N6 N 0.2542(4) 0.2787(5) 0.2431(2)
C35 C 0.2682(5) 0.2955(6) 0.2881(3)
C36 C 0.2205(6) 0.2411(6) 0.3280(3)
C37 C 0.2388(7) 0.2758(8) 0.3763(3)
C38 C 0.1956(7) 0.2295(10) 0.4154(3)
C39 C 0.1314(7) 0.1403(9) 0.4086(3)
C40 C 0.1105(6) 0.1038(7) 0.3615(3)
C41 C 0.1533(5) 0.1519(6) 0.3200(3)
O6 O 0.1306(3) 0.1107(4) 0.2762(2)
O7 O 0.2768(4) 0.0576(4) 0.1920(2)
C42 C 0.3527(6) 0.0277(6) 0.2134(3)
O8 O 0.3660(4) 0.0290(4) 0.2580(2)
C43 C 0.4321(5) -0.0097(6) 0.1801(3)
N7 N 0.4876(5) 0.0887(6) 0.1641(2)
C44 C 0.4719(5) 0.1518(6) 0.1226(3)
C45 C 0.3990(6) 0.1292(7) 0.0906(3)
C46 C 0.3845(6) 0.1950(7) 0.0497(3)
C47 C 0.4421(6) 0.2887(7) 0.0398(3)
C48 C 0.5147(6) 0.3136(7) 0.0724(3)
C49 C 0.5295(6) 0.2467(7) 0.1126(3)
C50 C 0.4250(6) 0.3599(8) -0.0030(3)
N8 N 0.4088(6) 0.4139(7) -0.0367(3)
O9 O 0.0516(4) 0.3179(4) 0.2245(2)
H22 H 0.0012 -0.0974 0.1395
H23 H 0.0116 -0.1582 0.0582
H24 H 0.1001 -0.0560 0.0015
H25 H 0.1728 0.1147 0.0255
H26 H 0.2095 0.2598 0.0827
H27 H 0.2851 0.3811 0.1333
H28 H 0.2056 0.4245 0.1683
H29 H 0.3324 0.4113 0.2186
H30 H 0.3621 0.2928 0.1959
H31 H 0.3158 0.3504 0.2965
H32 H 0.2843 0.3353 0.3819
H33 H 0.2088 0.2577 0.4478
H34 H 0.1020 0.1047 0.4363
H35 H 0.0653 0.0436 0.3571
H36 H 0.4064 -0.0476 0.1517
H37 H 0.4718 -0.0622 0.1977
H38 H 0.5392(28) 0.0914(67) 0.1831(21)
H39 H 0.3576 0.0660 0.0972
H40 H 0.3342 0.1765 0.0277
H41 H 0.5546 0.3786 0.0663
H42 H 0.5802 0.2646 0.1345
H43 H -0.0076(6) 0.3227(67) 0.2226(28)
H44 H 0.0757(46) 0.3789(35) 0.2363(24)
Mn1 Mn 0.2238(1) 0.5796(1) 0.7630(1)
O1 O 0.1677(4) 0.6377(4) 0.7056(2)
C1 C 0.1736(5) 0.5961(6) 0.6606(3)
C2 C 0.1095(6) 0.6368(6) 0.6251(3)
C3 C 0.1093(7) 0.5943(7) 0.5785(3)
C4 C 0.1739(8) 0.5093(9) 0.5646(3)
C5 C 0.2366(7) 0.4703(7) 0.5981(3)
C6 C 0.2385(6) 0.5120(6) 0.6462(3)
C7 C 0.3103(6) 0.4689(6) 0.6792(3)
N1 N 0.3202(4) 0.4948(5) 0.7238(2)
C8 C 0.3958(6) 0.4435(6) 0.7540(3)
C9 C 0.3555(5) 0.4135(6) 0.8034(3)
N2 N 0.2922(4) 0.5075(5) 0.8183(2)
C10 C 0.2825(5) 0.5318(6) 0.8639(3)
C11 C 0.2148(5) 0.6114(6) 0.8839(3)
C12 C 0.2168(6) 0.6294(6) 0.9345(3)
C13 C 0.1500(6) 0.6948(7) 0.9579(3)
C14 C 0.0772(6) 0.7392(6) 0.9299(3)
C15 C 0.0733(6) 0.7236(6) 0.8801(3)
C16 C 0.1420(5) 0.6593(6) 0.8550(3)
O2 O 0.1346(3) 0.6448(4) 0.8067(2)
O3 O 0.1378(3) 0.4166(4) 0.7531(2)
C17 C 0.1350(5) 0.3080(6) 0.7500(3)
O4 O 0.3057(4) 0.7459(4) 0.7711(2)
C18 C 0.0480(5) 0.2507(6) 0.7712(3)
N3 N -0.0019(5) 0.3129(5) 0.8084(3)
C19 C 0.0393(6) 0.3351(6) 0.8528(3)
C20 C 0.1243(6) 0.2871(6) 0.8677(3)
C21 C 0.1595(6) 0.3051(7) 0.9139(3)
C22 C 0.1105(7) 0.3761(7) 0.9473(3)
C23 C 0.0273(6) 0.4233(7) 0.9326(3)
C24 C -0.0091(6) 0.4053(7) 0.8869(3)
C25 C 0.1504(8) 0.3990(7) 0.9947(3)
N4 N 0.1832(7) 0.4202(7) 1.0319(3)
H1 H 0.0652 0.6953 0.6340
H2 H 0.0647 0.6226 0.5549
H3 H 0.1736 0.4791 0.5318
H4 H 0.2810 0.4125 0.5885
H5 H 0.3545 0.4155 0.6657
H6 H 0.4191 0.3752 0.7383
H7 H 0.4458 0.4978 0.7579
H8 H 0.4050 0.4054 0.8270
H9 H 0.3212 0.3426 0.8011
H10 H 0.3236 0.4939 0.8867
H11 H 0.2660 0.5952 0.9536
H12 H 0.1538 0.7092 0.9925
H13 H 0.0285 0.7818 0.9459
H14 H 0.0227 0.7572 0.8619
H15 H 0.0669 0.1784 0.7852
H16 H 0.0053 0.2371 0.7445
H17 H -0.0450(37) 0.3577(50) 0.7937(23)
H18 H 0.1589 0.2404 0.8450
H19 H 0.2174 0.2697 0.9236
H20 H -0.0066 0.4708 0.9552
H21 H -0.0675 0.4402 0.8778
O4A O 0.1943(4) 0.2459(4) 0.7289(2)
C17A C 0.3650(5) 0.8080(6) 0.7500(3)
Mn1A Mn 0.2762(1) 0.0796(1) 0.7370(1)
O3A O 0.3622(3) 0.9166(4) 0.7469(2)
C18A C 0.4520(5) 0.7507(6) 0.7288(3)
O1A O 0.3323(4) 0.1377(4) 0.7944(2)
N1A N 0.1798(4) -0.0052(5) 0.7762(2)
N2A N 0.2078(4) 0.0075(5) 0.6817(2)
O2A O 0.3654(3) 0.1448(4) 0.6933(2)
O3A_2 O 0.3622(3) -0.0834(4) 0.7469(2)
Mn1A_2 Mn 0.2762(1) 1.0796(1) 0.7370(1)
N3A N 0.5019(5) 0.8129(5) 0.6916(3)
H15A H 0.4331 0.6784 0.7148
H16A H 0.4947 0.7371 0.7555
C1A C 0.3264(5) 0.0961(6) 0.8394(3)
C7A C 0.1897(6) -0.0311(6) 0.8208(3)
C8A C 0.1042(6) -0.0565(6) 0.7460(3)
C9A C 0.1445(5) -0.0865(6) 0.6966(3)
C10A C 0.2175(5) 0.0318(6) 0.6361(3)
C16A C 0.3580(5) 0.1593(6) 0.6450(3)
C19A C 0.4607(6) 0.8351(6) 0.6472(3)
H17A H 0.5450(37) 0.8577(50) 0.7063(23)
C2A C 0.3905(6) 0.1368(6) 0.8749(3)
C6A C 0.2615(6) 0.0120(6) 0.8538(3)
H5A H 0.1455 -0.0845 0.8343
H6A H 0.0809 -0.1248 0.7617
H7A H 0.0542 -0.0022 0.7421
H8A H 0.0950 -0.0946 0.6730
H9A H 0.1788 -0.1574 0.6989
C11A C 0.2852(5) 0.1114(6) 0.6161(3)
H10A H 0.1764 -0.0061 0.6133
C15A C 0.4267(6) 0.2236(6) 0.6199(3)
C20A C 0.3757(6) 0.7871(6) 0.6323(3)
C24A C 0.5091(6) 0.9053(7) 0.6131(3)
C3A C 0.3907(7) 0.0943(7) 0.9215(3)
H1A H 0.4348 0.1953 0.8660
C5A C 0.2634(7) -0.0297(7) 0.9019(3)
C12A C 0.2832(6) 0.1294(6) 0.5655(3)
C14A C 0.4228(6) 0.2392(6) 0.5701(3)
H14A H 0.4773 0.2572 0.6381
C21A C 0.3405(6) 0.8051(7) 0.5861(3)
H18A H 0.3411 0.7404 0.6550
C23A C 0.4727(6) 0.9233(7) 0.5674(3)
H21A H 0.5675 0.9402 0.6222
C4A C 0.3261(8) 0.0093(9) 0.9354(3)
H2A H 0.4353 0.1226 0.9451
H4A H 0.2190 -0.0875 0.9115
C13A C 0.3500(6) 0.1948(7) 0.5421(3)
H11A H 0.2340 0.0952 0.5464
H13A H 0.4715 0.2818 0.5541
C22A C 0.3895(7) 0.8761(7) 0.5527(3)
H19A H 0.2826 0.7697 0.5764
H20A H 0.5066 0.9708 0.5448
H3A H 0.3264 -0.0209 0.9682
H12A H 0.3462 0.2092 0.5075
C25A C 0.3496(8) 0.8990(7) 0.5053(3)
N4A N 0.3168(7) 0.9202(7) 0.4681(3)
loop_
_geom_bond_atom_site_label_1
_geom_bond_atom_site_label_2
_geom_bond_site_symmetry_1
_geom_bond_site_symmetry_2
Mn1 O1 1_555 1_555
O1 C1 1_555 1_555
C1 C2 1_555 1_555
C2 C3 1_555 1_555
C3 C4 1_555 1_555
C4 C5 1_555 1_555
C5 C6 1_555 1_555
C6 C1 1_555 1_555
C7 C6 1_555 1_555
N1 Mn1 1_555 1_555
C8 N1 1_555 1_555
C9 C8 1_555 1_555
N2 Mn1 1_555 1_555
C10 N2 1_555 1_555
C11 C10 1_555 1_555
C12 C11 1_555 1_555
C13 C12 1_555 1_555
C14 C13 1_555 1_555
C15 C14 1_555 1_555
C16 C11 1_555 1_555
O2 Mn1 1_555 1_555
O3 Mn1 1_555 1_555
C17 O3 1_555 1_555
O4 Mn1 1_555 1_555
C18 C17 1_555 1_555
N3 C18 1_555 1_555
C19 N3 1_555 1_555
C20 C19 1_555 1_555
C21 C20 1_555 1_555
C22 C21 1_555 1_555
C23 C22 1_555 1_555
C24 C19 1_555 1_555
C25 C22 1_555 1_555
N4 C25 1_555 1_555
Mn2 O5 1_555 1_555
O5 C26 1_555 1_555
C26 C27 1_555 1_555
C27 C28 1_555 1_555
C28 C29 1_555 1_555
C29 C30 1_555 1_555
C30 C31 1_555 1_555
C31 C26 1_555 1_555
C32 C31 1_555 1_555
N5 Mn2 1_555 1_555
C33 N5 1_555 1_555
C34 C33 1_555 1_555
N6 Mn2 1_555 1_555
C35 N6 1_555 1_555
C36 C35 1_555 1_555
C37 C36 1_555 1_555
C38 C37 1_555 1_555
C39 C38 1_555 1_555
C40 C39 1_555 1_555
C41 C36 1_555 1_555
O6 Mn2 1_555 1_555
O7 Mn2 1_555 1_555
C42 O7 1_555 1_555
O8 C42 1_555 1_555
C43 C42 1_555 1_555
N7 C43 1_555 1_555
C44 N7 1_555 1_555
C45 C44 1_555 1_555
C46 C45 1_555 1_555
C47 C46 1_555 1_555
C48 C47 1_555 1_555
C49 C44 1_555 1_555
C50 C47 1_555 1_555
N8 C50 1_555 1_555
O9 Mn2 1_555 1_555
H1 C2 1_555 1_555
H2 C3 1_555 1_555
H3 C4 1_555 1_555
H4 C5 1_555 1_555
H5 C7 1_555 1_555
H6 C8 1_555 1_555
H7 C8 1_555 1_555
H8 C9 1_555 1_555
H9 C9 1_555 1_555
H10 C10 1_555 1_555
H11 C12 1_555 1_555
H12 C13 1_555 1_555
H13 C14 1_555 1_555
H14 C15 1_555 1_555
H15 C18 1_555 1_555
H16 C18 1_555 1_555
H17 N3 1_555 1_555
H18 C20 1_555 1_555
H19 C21 1_555 1_555
H20 C23 1_555 1_555
H21 C24 1_555 1_555
H22 C27 1_555 1_555
H23 C28 1_555 1_555
H24 C29 1_555 1_555
H25 C30 1_555 1_555
H26 C32 1_555 1_555
H27 C33 1_555 1_555
H28 C33 1_555 1_555
H29 C34 1_555 1_555
H30 C34 1_555 1_555
H31 C35 1_555 1_555
H32 C37 1_555 1_555
H33 C38 1_555 1_555
H34 C39 1_555 1_555
H35 C40 1_555 1_555
H36 C43 1_555 1_555
H37 C43 1_555 1_555
H38 N7 1_555 1_555
H39 C45 1_555 1_555
H40 C46 1_555 1_555
H41 C48 1_555 1_555
H42 C49 1_555 1_555
H43 O9 1_555 1_555
H44 O9 1_555 1_555
O4A C17 1_555 1_555
C17A O4 1_555 1_555
Mn1A O4A 1_555 1_555
O3A C17A 1_555 1_555
C18A C17A 1_555 1_555
O1A Mn1A 1_555 1_555
N1A Mn1A 1_555 1_555
N2A Mn1A 1_555 1_555
O2A Mn1A 1_555 1_555
O3A_2 Mn1A 1_555 1_555
Mn1A_2 O3A 1_555 1_555
N3A C18A 1_555 1_555
H15A C18A 1_555 1_555
H16A C18A 1_555 1_555
C1A O1A 1_555 1_555
C7A N1A 1_555 1_555
C8A N1A 1_555 1_555
C9A N2A 1_555 1_555
C10A N2A 1_555 1_555
C16A O2A 1_555 1_555
C19A N3A 1_555 1_555
H17A N3A 1_555 1_555
C2A C1A 1_555 1_555
C6A C1A 1_555 1_555
H5A C7A 1_555 1_555
H6A C8A 1_555 1_555
H7A C8A 1_555 1_555
H8A C9A 1_555 1_555
H9A C9A 1_555 1_555
C11A C10A 1_555 1_555
H10A C10A 1_555 1_555
C15A C16A 1_555 1_555
C20A C19A 1_555 1_555
C24A C19A 1_555 1_555
C3A C2A 1_555 1_555
H1A C2A 1_555 1_555
C5A C6A 1_555 1_555
C12A C11A 1_555 1_555
C14A C15A 1_555 1_555
H14A C15A 1_555 1_555
C21A C20A 1_555 1_555
H18A C20A 1_555 1_555
C23A C24A 1_555 1_555
H21A C24A 1_555 1_555
C4A C3A 1_555 1_555
H2A C3A 1_555 1_555
H4A C5A 1_555 1_555
C13A C12A 1_555 1_555
H11A C12A 1_555 1_555
H13A C14A 1_555 1_555
C22A C21A 1_555 1_555
H19A C21A 1_555 1_555
H20A C23A 1_555 1_555
H3A C4A 1_555 1_555
H12A C13A 1_555 1_555
C25A C22A 1_555 1_555
N4A C25A 1_555 1_555
C7 N1 1_555 1_555
C9 N2 1_555 1_555
C15 C16 1_555 1_555
C16 O2 1_555 1_555
C23 C24 1_555 1_555
C32 N5 1_555 1_555
C34 N6 1_555 1_555
C40 C41 1_555 1_555
C41 O6 1_555 1_555
C48 C49 1_555 1_555
C7A C6A 1_555 1_555
C8A C9A 1_555 1_555
C16A C11A 1_555 1_555
C5A C4A 1_555 1_555
C14A C13A 1_555 1_555
C23A C22A 1_555 1_555

#END
