
#######################################################################
#
#                 Cambridge Crystallographic Data Centre
#                                CCDC 
#
#######################################################################
#
# If this CIF has been generated from an entry in the Cambridge 
# Structural Database, then it will include bibliographic, chemical, 
# crystal, experimental, refinement or atomic coordinate data resulting 
# from the CCDC's data processing and validation procedures.
#
#######################################################################

data_WATYUN
_symmetry_cell_setting           orthorhombic
_symmetry_space_group_name_H-M   'C 2 2 21'
_symmetry_Int_Tables_number      20
_space_group_name_Hall           'C 2n 2'
loop_
_symmetry_equiv_pos_site_id
_symmetry_equiv_pos_as_xyz
1 x,y,z
2 -x,-y,1/2+z
3 -x,y,1/2-z
4 x,-y,-z
5 1/2+x,1/2+y,z
6 1/2-x,1/2-y,1/2+z
7 1/2-x,1/2+y,1/2-z
8 1/2+x,1/2-y,-z
_cell_length_a                   7.6698(4)
_cell_length_b                   21.0303(11)
_cell_length_c                   28.3731(11)
_cell_angle_alpha                90
_cell_angle_beta                 90
_cell_angle_gamma                90
_cell_volume                     4576.53
loop_
_atom_site_label
_atom_site_type_symbol
_atom_site_fract_x
_atom_site_fract_y
_atom_site_fract_z
N1 N 0.9911(8) 0.0302(3) 0.8033(2)
C1 C 0.8375(7) 0.0207(3) 0.8283(2)
H1 H 0.7360 0.0444 0.8205
C2 C 0.8324(8) -0.0235(4) 0.8648(2)
H2 H 0.7275 -0.0300 0.8819
C3 C 0.9809(10) -0.0581(5) 0.8761(3)
C4 C 1.1345(8) -0.0486(5) 0.8511(4)
H3 H 1.2360 -0.0722 0.8589
C5 C 1.1396(7) -0.0044(4) 0.8147(4)
H4 H 1.2445 0.0021 0.7976
Zn1 Zn 1.0000 0.10310(4) 0.7500
Si1 Si 1.5000 0.10578(9) 0.7500
F1 F 1.2730(5) 0.10542(15) 0.75117(15)
F2 F 1.4970(6) 0.10561(18) 0.80851(14)
F3 F 1.5000 0.1854(2) 0.7500
F4 F 1.5000 0.0268(2) 0.7500
C6 C 0.9889(17) -0.1161(6) 0.9068(5)
O1 O 1.036(3) -0.1665(6) 0.9070(7)
O2 O 0.860(2) -0.0911(4) 0.9442(3)
C7 C 0.802(3) -0.1312(7) 0.9870(4)
H5 H 0.8790 -0.1693 0.9900
C8 C 0.827(4) -0.0869(10) 1.0297(5)
H6 H 0.9494 -0.0729 1.0322
H7 H 0.7508 -0.0490 1.0270
C9 C 0.775(5) -0.1275(10) 1.0723(5)
H8 H 0.8528 -0.1649 1.0737
H9 H 0.7942 -0.1022 1.1013
C10 C 0.587(5) -0.1509(9) 1.0724(5)
H10 H 0.5088 -0.1136 1.0753
H11 H 0.5690 -0.1775 1.1008
C11 C 0.529(5) -0.1900(8) 1.0286(4)
H12 H 0.4005 -0.1921 1.0264
H13 H 0.5762 -0.2338 1.0299
C12 C 0.609(3) -0.1519(7) 0.9850(4)
H14 H 0.5336 -0.1147 0.9771
C13 C 0.5193(17) -0.1792(5) 0.9089(3)
O3 O 0.6160(11) -0.1963(4) 0.9451(2)
O4 O 0.4508(12) -0.1252(5) 0.9038(3)
C14 C 0.5106(16) -0.2299(5) 0.8716(3)
C15 C 0.6550(13) -0.2697(6) 0.8652(3)
H15 H 0.7572 -0.2638 0.8836
C16 C 0.6482(13) -0.3171(6) 0.8322(3)
H16 H 0.7437 -0.3456 0.8294
N2 N 0.5054(10) -0.3245(3) 0.80267(18)
C17 C 0.3722(9) -0.2849(4) 0.8089(3)
H17 H 0.2725 -0.2892 0.7893
C18 C 0.3730(13) -0.2372(6) 0.8432(3)
H18 H 0.2753 -0.2097 0.8462
N1B N 1.0089(8) 0.0302(3) 0.6967(2)
C1B C 1.1625(7) 0.0207(3) 0.6717(2)
H1B H 1.2640 0.0444 0.6795
C2B C 1.1676(8) -0.0235(4) 0.6352(2)
H2B H 1.2725 -0.0300 0.6181
C3B C 1.0191(10) -0.0581(5) 0.6239(3)
C4B C 0.8655(8) -0.0486(5) 0.6489(4)
H3B H 0.7640 -0.0722 0.6411
C5B C 0.8604(7) -0.0044(4) 0.6853(4)
H4B H 0.7555 0.0021 0.7024
Zn1_2 Zn 2.0000 0.10310(4) 0.7500
Zn1D Zn 0.5000 -0.39690(4) 0.7500
Zn1D_2 Zn 1.5000 -0.39690(4) 0.7500
F1B F 1.7270(5) 0.10542(15) 0.74883(15)
F1B_2 F 0.7270(5) 0.10542(15) 0.74883(15)
F2B F 1.5030(6) 0.10561(18) 0.69149(14)
C6B C 1.0111(17) -0.1161(6) 0.5932(5)
O1B O 0.964(3) -0.1665(6) 0.5930(7)
O2B O 1.140(2) -0.0911(4) 0.5558(3)
C7B C 1.198(3) -0.1312(7) 0.5130(4)
H5B H 1.1210 -0.1693 0.5100
C8B C 1.173(4) -0.0869(10) 0.4703(5)
H6B H 1.0506 -0.0729 0.4678
H7B H 1.2492 -0.0490 0.4730
C9B C 1.225(5) -0.1275(10) 0.4277(5)
H8B H 1.1472 -0.1649 0.4263
H9B H 1.2058 -0.1022 0.3987
C10B C 1.413(5) -0.1509(9) 0.4276(5)
H10B H 1.4912 -0.1136 0.4247
H11B H 1.4310 -0.1775 0.3992
C11B C 1.471(5) -0.1900(8) 0.4714(4)
H12B H 1.5995 -0.1921 0.4736
H13B H 1.4238 -0.2338 0.4701
C12B C 1.391(3) -0.1519(7) 0.5150(4)
H14B H 1.4664 -0.1147 0.5229
C13B C 1.4807(17) -0.1792(5) 0.5911(3)
O3B O 1.3840(11) -0.1963(4) 0.5549(2)
O4B O 1.5492(12) -0.1252(5) 0.5962(3)
C14B C 1.4894(16) -0.2299(5) 0.6284(3)
C15B C 1.3450(13) -0.2697(6) 0.6348(3)
H15B H 1.2428 -0.2638 0.6164
C16B C 1.3518(13) -0.3171(6) 0.6678(3)
H16B H 1.2563 -0.3456 0.6706
N2B N 1.4946(10) -0.3245(3) 0.69733(18)
N2D N 1.0054(10) 0.1755(3) 0.80267(18)
N2F N 0.9946(10) 0.1755(3) 0.69733(18)
C17B C 1.6278(9) -0.2849(4) 0.6911(3)
H17B H 1.7275 -0.2892 0.7107
C18B C 1.6270(13) -0.2372(6) 0.6568(3)
H18B H 1.7247 -0.2097 0.6538
loop_
_geom_bond_atom_site_label_1
_geom_bond_atom_site_label_2
_geom_bond_site_symmetry_1
_geom_bond_site_symmetry_2
N1 C1 1_555 1_555
C1 H1 1_555 1_555
C2 C1 1_555 1_555
H2 C2 1_555 1_555
C3 C2 1_555 1_555
C4 C3 1_555 1_555
H3 C4 1_555 1_555
C5 N1 1_555 1_555
H4 C5 1_555 1_555
Zn1 N1 1_555 1_555
Si1 F1 1_555 1_555
F1 Zn1 1_555 1_555
F2 Si1 1_555 1_555
F3 Si1 1_555 1_555
F4 Si1 1_555 1_555
C6 C3 1_555 1_555
O1 C6 1_555 1_555
O2 C6 1_555 1_555
C7 O2 1_555 1_555
H5 C7 1_555 1_555
C8 C7 1_555 1_555
H6 C8 1_555 1_555
H7 C8 1_555 1_555
C9 C8 1_555 1_555
H8 C9 1_555 1_555
H9 C9 1_555 1_555
C10 C9 1_555 1_555
H10 C10 1_555 1_555
H11 C10 1_555 1_555
C11 C10 1_555 1_555
H12 C11 1_555 1_555
H13 C11 1_555 1_555
C12 C7 1_555 1_555
H14 C12 1_555 1_555
C13 O3 1_555 1_555
O3 C12 1_555 1_555
O4 C13 1_555 1_555
C14 C13 1_555 1_555
C15 C14 1_555 1_555
H15 C15 1_555 1_555
C16 C15 1_555 1_555
H16 C16 1_555 1_555
N2 C16 1_555 1_555
C17 N2 1_555 1_555
H17 C17 1_555 1_555
C18 C14 1_555 1_555
H18 C18 1_555 1_555
N1B Zn1 1_555 1_555
C1B N1B 1_555 1_555
H1B C1B 1_555 1_555
C2B C1B 1_555 1_555
H2B C2B 1_555 1_555
C3B C2B 1_555 1_555
C4B C3B 1_555 1_555
H3B C4B 1_555 1_555
C5B N1B 1_555 1_555
H4B C5B 1_555 1_555
Zn1_2 F1B 1_555 1_555
Zn1D N2 1_555 1_555
Zn1D_2 N2B 1_555 1_555
F1B Si1 1_555 1_555
F1B_2 Zn1 1_555 1_555
F2B Si1 1_555 1_555
C6B C3B 1_555 1_555
O1B C6B 1_555 1_555
O2B C6B 1_555 1_555
C7B O2B 1_555 1_555
H5B C7B 1_555 1_555
C8B C7B 1_555 1_555
H6B C8B 1_555 1_555
H7B C8B 1_555 1_555
C9B C8B 1_555 1_555
H8B C9B 1_555 1_555
H9B C9B 1_555 1_555
C10B C9B 1_555 1_555
H10B C10B 1_555 1_555
H11B C10B 1_555 1_555
C11B C10B 1_555 1_555
H12B C11B 1_555 1_555
H13B C11B 1_555 1_555
C12B C7B 1_555 1_555
H14B C12B 1_555 1_555
C13B O3B 1_555 1_555
O3B C12B 1_555 1_555
O4B C13B 1_555 1_555
C14B C13B 1_555 1_555
C15B C14B 1_555 1_555
H15B C15B 1_555 1_555
C16B C15B 1_555 1_555
H16B C16B 1_555 1_555
N2B C16B 1_555 1_555
N2D Zn1 1_555 1_555
N2F Zn1 1_555 1_555
C17B N2B 1_555 1_555
H17B C17B 1_555 1_555
C18B C14B 1_555 1_555
H18B C18B 1_555 1_555
C4 C5 1_555 1_555
C11 C12 1_555 1_555
C17 C18 1_555 1_555
C4B C5B 1_555 1_555
C11B C12B 1_555 1_555
C17B C18B 1_555 1_555

#END
