
#######################################################################
#
#                 Cambridge Crystallographic Data Centre
#                                CCDC 
#
#######################################################################
#
# If this CIF has been generated from an entry in the Cambridge 
# Structural Database, then it will include bibliographic, chemical, 
# crystal, experimental, refinement or atomic coordinate data resulting 
# from the CCDC's data processing and validation procedures.
#
#######################################################################

data_WATYIB
_symmetry_cell_setting           monoclinic
_symmetry_space_group_name_H-M   'C 2'
_symmetry_Int_Tables_number      5
_space_group_name_Hall           'C 2y'
loop_
_symmetry_equiv_pos_site_id
_symmetry_equiv_pos_as_xyz
1 x,y,z
2 -x,y,-z
3 1/2+x,1/2+y,z
4 1/2-x,1/2+y,-z
_cell_length_a                   23.2747(19)
_cell_length_b                   7.5775(5)
_cell_length_c                   16.5826(12)
_cell_angle_alpha                90
_cell_angle_beta                 100.139(2)
_cell_angle_gamma                90
_cell_volume                     2878.9
loop_
_atom_site_label
_atom_site_type_symbol
_atom_site_fract_x
_atom_site_fract_y
_atom_site_fract_z
Zn1 Zn 1.0000 0.78252(8) 0.5000
Si1 Si 1.0000 0.2880(3) 0.5000
F1 F 1.0000 0.5122(5) 0.5000
F2 F 0.98787(14) 0.2902(5) 0.39897(15)
F3 F 0.92846(11) 0.2878(6) 0.5002(2)
F4 F 1.0000 0.0605(6) 0.5000
N1 N 0.91868(14) 0.7849(7) 0.41732(19)
C1 C 0.8759(2) 0.8961(7) 0.4285(3)
H1 H 0.8826 0.9736 0.4743
C2 C 0.8227(2) 0.9031(7) 0.3766(3)
H2 H 0.7928 0.9806 0.3872
C3 C 0.81382(18) 0.7932(9) 0.3079(2)
C4 C 0.8572(2) 0.6796(7) 0.2956(3)
H3 H 0.8520 0.6039 0.2492
C5 C 0.9089(2) 0.6768(7) 0.3518(3)
H4 H 0.9385 0.5957 0.3438
C6 C 0.7552(2) 0.8006(8) 0.2535(3)
O1 O 0.71249(16) 0.8604(6) 0.2730(2)
O2 O 0.75711(14) 0.7255(5) 0.17916(19)
C7 C 0.7019(2) 0.7135(7) 0.1249(3)
H5 H 0.6729 0.7927 0.1445
C8 C 0.6786(2) 0.5290(8) 0.1159(3)
H6 H 0.7115 0.4424 0.1217
C9 C 0.6441(2) 0.5259(8) 0.0279(3)
N2 N 0.66757(17) 0.6587(6) -0.0136(2)
C10 C 0.70778(19) 0.7632(8) 0.0376(3)
O3 O 0.64212(15) 0.4924(5) 0.1740(2)
C11 C 0.6408(2) 0.3238(7) 0.2000(3)
O4 O 0.6661(2) 0.2042(6) 0.1749(3)
C12 C 0.6044(2) 0.3091(7) 0.2666(3)
C13 C 0.5702(2) 0.4471(7) 0.2842(3)
H7 H 0.5668 0.5515 0.2520
C14 C 0.5409(2) 0.4317(7) 0.3489(3)
H8 H 0.5177 0.5276 0.3614
N3 N 0.54425(14) 0.2827(7) 0.39569(19)
C15 C 0.5767(2) 0.1491(7) 0.3766(3)
H9 H 0.5793 0.0446 0.4087
C16 C 0.6068(2) 0.1573(7) 0.3117(3)
H10 H 0.6289 0.0590 0.2987
O5 O 0.60551(18) 0.4275(7) 0.0010(2)
C17 C 0.6530(2) 0.6851(7) -0.1011(3)
C18 C 0.5949(2) 0.7100(8) -0.1355(3)
H11 H 0.5652 0.7097 -0.1028
C19 C 0.5815(2) 0.7358(8) -0.2203(3)
H12 H 0.5421 0.7530 -0.2458
C20 C 0.6245(3) 0.7364(7) -0.2672(3)
H13 H 0.6148 0.7531 -0.3247
C21 C 0.6816(3) 0.7130(7) -0.2309(3)
H14 H 0.7112 0.7170 -0.2636
C22 C 0.6970(2) 0.6836(7) -0.1473(3)
H15 H 0.7364 0.6631 -0.1226
O6 O 0.73816(17) 0.8754(6) 0.0165(2)
Zn1_2 Zn 1.0000 -0.21748(8) 0.5000
Zn1B Zn 0.5000 0.28252(8) 0.5000
Zn1B_2 Zn 1.5000 0.28252(8) 0.5000
F2A F 1.01213(14) 0.2902(5) 0.60103(15)
F3A F 1.07154(11) 0.2878(6) 0.4998(2)
F4_2 F 1.0000 1.0605(6) 0.5000
N1A N 1.08132(14) 0.7849(7) 0.58268(19)
C1A C 1.1241(2) 0.8961(7) 0.5715(3)
H1A H 1.1174 0.9736 0.5257
C2A C 1.1773(2) 0.9031(7) 0.6234(3)
H2A H 1.2072 0.9806 0.6128
C3A C 1.18618(18) 0.7932(9) 0.6921(2)
C4A C 1.1428(2) 0.6796(7) 0.7044(3)
H3A H 1.1480 0.6039 0.7508
C5A C 1.0911(2) 0.6768(7) 0.6482(3)
H4A H 1.0615 0.5957 0.6562
C6A C 1.2448(2) 0.8006(8) 0.7465(3)
O1A O 1.28751(16) 0.8604(6) 0.7270(2)
O2A O 1.24289(14) 0.7255(5) 0.82084(19)
C7A C 1.2981(2) 0.7135(7) 0.8751(3)
H5A H 1.3271 0.7927 0.8555
C8A C 1.3214(2) 0.5290(8) 0.8841(3)
H6A H 1.2885 0.4424 0.8783
C9A C 1.3559(2) 0.5259(8) 0.9721(3)
N2A N 1.33243(17) 0.6587(6) 1.0136(2)
C10A C 1.29222(19) 0.7632(8) 0.9624(3)
O3A O 1.35788(15) 0.4924(5) 0.8260(2)
C11A C 1.3592(2) 0.3238(7) 0.8000(3)
O4A O 1.3339(2) 0.2042(6) 0.8251(3)
C12A C 1.3956(2) 0.3091(7) 0.7334(3)
C13A C 1.4298(2) 0.4471(7) 0.7158(3)
H7A H 1.4332 0.5515 0.7480
C14A C 1.4591(2) 0.4317(7) 0.6511(3)
H8A H 1.4823 0.5276 0.6386
N3A N 1.45575(14) 0.2827(7) 0.60431(19)
N3B N 1.04425(14) 0.7827(7) 0.39569(19)
N3C N 0.95575(14) 0.7827(7) 0.60431(19)
C15A C 1.4233(2) 0.1491(7) 0.6234(3)
H9A H 1.4207 0.0446 0.5913
C16A C 1.3932(2) 0.1573(7) 0.6883(3)
H10A H 1.3711 0.0590 0.7013
O5A O 1.39449(18) 0.4275(7) 0.9990(2)
C17A C 1.3470(2) 0.6851(7) 1.1011(3)
C18A C 1.4051(2) 0.7100(8) 1.1355(3)
H11A H 1.4348 0.7097 1.1028
C19A C 1.4185(2) 0.7358(8) 1.2203(3)
H12A H 1.4579 0.7530 1.2458
C20A C 1.3755(3) 0.7364(7) 1.2672(3)
H13A H 1.3852 0.7531 1.3247
C21A C 1.3184(3) 0.7130(7) 1.2309(3)
H14A H 1.2888 0.7170 1.2636
C22A C 1.3030(2) 0.6836(7) 1.1473(3)
H15A H 1.2636 0.6631 1.1226
O6A O 1.26184(17) 0.8754(6) 0.9835(2)
C23 C 0.7284(3) 0.4655(11) 0.4169(5)
H16 H 0.7063 0.3575 0.4223
H17 H 0.7324 0.4817 0.3594
H18 H 0.7078 0.5669 0.4349
C24 C 0.7869(3) 0.4513(8) 0.4679(4)
H19 H 0.8106 0.5567 0.4608
H20 H 0.7838 0.4408 0.5265
O7 O 0.8123(2) 0.2986(9) 0.4412(4)
H21 H 0.8463 0.2866 0.4679
Cl1 Cl 0.54911(12) -0.1099(6) 0.0841(2)
C25 C 0.5167(5) 0.0842(16) 0.0399(4)
H22 H 0.4913 0.1299 0.0771
H23 H 0.5484 0.1715 0.0403
Cl1A Cl 0.45089(12) -0.1099(6) -0.0841(2)
C25A C 0.4833(5) 0.0842(16) -0.0399(4)
H22A H 0.5087 0.1299 -0.0771
H23A H 0.4516 0.1715 -0.0403
loop_
_geom_bond_atom_site_label_1
_geom_bond_atom_site_label_2
_geom_bond_site_symmetry_1
_geom_bond_site_symmetry_2
Zn1 F1 1_555 1_555
Si1 F1 1_555 1_555
F2 Si1 1_555 1_555
F3 Si1 1_555 1_555
F4 Si1 1_555 1_555
N1 Zn1 1_555 1_555
C1 N1 1_555 1_555
H1 C1 1_555 1_555
C2 C1 1_555 1_555
H2 C2 1_555 1_555
C3 C2 1_555 1_555
C4 C3 1_555 1_555
H3 C4 1_555 1_555
C5 N1 1_555 1_555
H4 C5 1_555 1_555
C6 C3 1_555 1_555
O1 C6 1_555 1_555
O2 C6 1_555 1_555
C7 O2 1_555 1_555
H5 C7 1_555 1_555
C8 C7 1_555 1_555
H6 C8 1_555 1_555
C9 C8 1_555 1_555
N2 C9 1_555 1_555
C10 C7 1_555 1_555
O3 C8 1_555 1_555
C11 O3 1_555 1_555
O4 C11 1_555 1_555
C12 C11 1_555 1_555
C13 C12 1_555 1_555
H7 C13 1_555 1_555
C14 C13 1_555 1_555
H8 C14 1_555 1_555
N3 C14 1_555 1_555
C15 N3 1_555 1_555
H9 C15 1_555 1_555
C16 C12 1_555 1_555
H10 C16 1_555 1_555
O5 C9 1_555 1_555
C17 N2 1_555 1_555
C18 C17 1_555 1_555
H11 C18 1_555 1_555
C19 C18 1_555 1_555
H12 C19 1_555 1_555
C20 C19 1_555 1_555
H13 C20 1_555 1_555
C21 C20 1_555 1_555
H14 C21 1_555 1_555
C22 C17 1_555 1_555
H15 C22 1_555 1_555
O6 C10 1_555 1_555
C23 H16 1_555 1_555
H17 C23 1_555 1_555
H18 C23 1_555 1_555
C24 C23 1_555 1_555
H19 C24 1_555 1_555
H20 C24 1_555 1_555
O7 C24 1_555 1_555
H21 O7 1_555 1_555
Cl1 C25 1_555 1_555
C25 H22 1_555 1_555
H23 C25 1_555 1_555
Zn1_2 F4 1_555 1_555
Zn1B N3 1_555 1_555
Zn1B_2 N3A 1_555 1_555
F2A Si1 1_555 1_555
F3A Si1 1_555 1_555
F4_2 Zn1 1_555 1_555
N1A Zn1 1_555 1_555
C1A N1A 1_555 1_555
H1A C1A 1_555 1_555
C2A C1A 1_555 1_555
H2A C2A 1_555 1_555
C3A C2A 1_555 1_555
C4A C3A 1_555 1_555
H3A C4A 1_555 1_555
C5A N1A 1_555 1_555
H4A C5A 1_555 1_555
C6A C3A 1_555 1_555
O1A C6A 1_555 1_555
O2A C6A 1_555 1_555
C7A O2A 1_555 1_555
H5A C7A 1_555 1_555
C8A C7A 1_555 1_555
H6A C8A 1_555 1_555
C9A C8A 1_555 1_555
N2A C9A 1_555 1_555
C10A C7A 1_555 1_555
O3A C8A 1_555 1_555
C11A O3A 1_555 1_555
O4A C11A 1_555 1_555
C12A C11A 1_555 1_555
C13A C12A 1_555 1_555
H7A C13A 1_555 1_555
C14A C13A 1_555 1_555
H8A C14A 1_555 1_555
N3A C14A 1_555 1_555
N3B Zn1 1_555 1_555
N3C Zn1 1_555 1_555
C15A N3A 1_555 1_555
H9A C15A 1_555 1_555
C16A C12A 1_555 1_555
H10A C16A 1_555 1_555
O5A C9A 1_555 1_555
C17A N2A 1_555 1_555
C18A C17A 1_555 1_555
H11A C18A 1_555 1_555
C19A C18A 1_555 1_555
H12A C19A 1_555 1_555
C20A C19A 1_555 1_555
H13A C20A 1_555 1_555
C21A C20A 1_555 1_555
H14A C21A 1_555 1_555
C22A C17A 1_555 1_555
H15A C22A 1_555 1_555
O6A C10A 1_555 1_555
Cl1A C25A 1_555 1_555
C25A C25 1_555 1_555
H22A C25A 1_555 1_555
H23A C25A 1_555 1_555
C4 C5 1_555 1_555
N2 C10 1_555 1_555
C15 C16 1_555 1_555
C21 C22 1_555 1_555
C4A C5A 1_555 1_555
N2A C10A 1_555 1_555
C15A C16A 1_555 1_555
C21A C22A 1_555 1_555

#END
