
#######################################################################
#
#                 Cambridge Crystallographic Data Centre
#                                CCDC 
#
#######################################################################
#
# If this CIF has been generated from an entry in the Cambridge 
# Structural Database, then it will include bibliographic, chemical, 
# crystal, experimental, refinement or atomic coordinate data resulting 
# from the CCDC's data processing and validation procedures.
#
#######################################################################

data_WATZIC01
_symmetry_cell_setting           monoclinic
_symmetry_space_group_name_H-M   'C 2'
_symmetry_Int_Tables_number      5
_space_group_name_Hall           'C 2y'
loop_
_symmetry_equiv_pos_site_id
_symmetry_equiv_pos_as_xyz
1 x,y,z
2 -x,y,-z
3 1/2+x,1/2+y,z
4 1/2-x,1/2+y,-z
_cell_length_a                   23.3869(7)
_cell_length_b                   7.6246(3)
_cell_length_c                   16.5705(6)
_cell_angle_alpha                90
_cell_angle_beta                 100.067(2)
_cell_angle_gamma                90
_cell_volume                     2909.29
loop_
_atom_site_label
_atom_site_type_symbol
_atom_site_fract_x
_atom_site_fract_y
_atom_site_fract_z
Zn1 Zn 1.0000 0.25087(9) 0.5000
Si1 Si 1.0000 0.7481(4) 0.5000
F1 F 1.0000 0.5199(7) 0.5000
F2 F 0.98218(15) 0.7427(6) 0.39854(19)
F3 F 1.06942(13) 0.7457(6) 0.4922(2)
F4 F 1.0000 0.9734(6) 0.5000
N1 N 0.6703(2) 0.3707(7) -0.0110(3)
C1 C 0.7109(3) 0.2710(9) 0.0396(4)
O1 O 0.7428(2) 0.1658(7) 0.0176(3)
C2 C 0.7029(3) 0.3175(8) 0.1266(4)
H1 H 0.6743 0.2365 0.1454
C3 C 0.6791(3) 0.5006(9) 0.1175(3)
H2 H 0.7115 0.5877 0.1225
C4 C 0.6460(3) 0.4966(12) 0.0302(4)
O2 O 0.6034(3) 0.5939(10) 0.0020(4)
O3 O 0.75806(18) 0.3090(5) 0.1815(2)
C5 C 0.7562(2) 0.2321(9) 0.2549(3)
O4 O 0.71274(19) 0.1654(6) 0.2723(3)
C6 C 0.8130(2) 0.2410(9) 0.3090(3)
C7 C 0.8582(3) 0.3544(7) 0.2991(4)
H3 H 0.8539 0.4295 0.2528
C8 C 0.9085(3) 0.3586(8) 0.3552(4)
H4 H 0.9374 0.4426 0.3487
N2 N 0.91850(16) 0.2478(8) 0.4192(3)
C9 C 0.8777(3) 0.1325(8) 0.4281(4)
H5 H 0.8856 0.0493 0.4713
C10 C 0.8244(2) 0.1281(7) 0.3777(4)
H6 H 0.7953 0.0495 0.3890
O5 O 0.64394(17) 0.5337(5) 0.1771(2)
C11 C 0.6389(3) 0.7031(9) 0.1995(4)
O6 O 0.6606(3) 0.8279(7) 0.1707(3)
C12 C 0.6034(3) 0.7172(7) 0.2664(4)
C13 C 0.5692(2) 0.5806(8) 0.2856(4)
H7 H 0.5661 0.4745 0.2551
C14 C 0.5403(3) 0.6014(9) 0.3487(4)
H8 H 0.5163 0.5083 0.3612
N3 N 0.54388(17) 0.7484(8) 0.3949(2)
C15 C 0.5754(2) 0.8816(8) 0.3753(4)
H9 H 0.5775 0.9864 0.4067
C16 C 0.6050(3) 0.8717(7) 0.3107(4)
H10 H 0.6263 0.9698 0.2967
C17 C 0.6548(3) 0.3519(8) -0.1004(4)
C18 C 0.7000(3) 0.3485(8) -0.1450(4)
H11 H 0.7390 0.3659 -0.1183
C19 C 0.6880(4) 0.3205(9) -0.2251(4)
H12 H 0.7185 0.3130 -0.2560
C20 C 0.6299(4) 0.3020(9) -0.2643(4)
H13 H 0.6208 0.2896 -0.3222
C21 C 0.5868(4) 0.3018(11) -0.2190(5)
H14 H 0.5475 0.2857 -0.2443
C22 C 0.6018(4) 0.3263(11) -0.1335(4)
H15 H 0.5724 0.3238 -0.1004
Zn1_2 Zn 1.0000 1.25087(9) 0.5000
Zn1B Zn 0.5000 0.75087(9) 0.5000
Zn1B_2 Zn 1.5000 -0.24913(9) 0.5000
F2A F 1.01782(15) 0.7427(6) 0.60146(19)
F3A F 0.93058(13) 0.7457(6) 0.5078(2)
F4_2 F 1.0000 -0.0266(6) 0.5000
N1B N 1.1703(2) -0.1293(7) -0.0110(3)
C1B C 1.2109(3) -0.2290(9) 0.0396(4)
O1B O 1.2428(2) -0.3342(7) 0.0176(3)
C2B C 1.2029(3) -0.1825(8) 0.1266(4)
H1B H 1.1743 -0.2635 0.1454
C3B C 1.1791(3) 0.0006(9) 0.1175(3)
H2B H 1.2115 0.0877 0.1225
C4B C 1.1460(3) -0.0034(12) 0.0302(4)
O2B O 1.1034(3) 0.0939(10) 0.0020(4)
O3B O 1.25806(18) -0.1910(5) 0.1815(2)
C5B C 1.2562(2) -0.2679(9) 0.2549(3)
O4B O 1.21274(19) -0.3346(6) 0.2723(3)
C6B C 1.3130(2) -0.2590(9) 0.3090(3)
C7B C 1.3582(3) -0.1456(7) 0.2991(4)
H3B H 1.3539 -0.0705 0.2528
C8B C 1.4085(3) -0.1414(8) 0.3552(4)
H4B H 1.4374 -0.0574 0.3487
N2B N 1.41850(16) -0.2522(8) 0.4192(3)
N2A N 1.08150(16) 0.2478(8) 0.5808(3)
C9B C 1.3777(3) -0.3675(8) 0.4281(4)
H5B H 1.3856 -0.4507 0.4713
C10B C 1.3244(2) -0.3719(7) 0.3777(4)
H6B H 1.2953 -0.4505 0.3890
O5B O 1.14394(17) 0.0337(5) 0.1771(2)
C11B C 1.1389(3) 0.2031(9) 0.1995(4)
O6B O 1.1606(3) 0.3279(7) 0.1707(3)
C12B C 1.1034(3) 0.2172(7) 0.2664(4)
C13B C 1.0692(2) 0.0806(8) 0.2856(4)
H7B H 1.0661 -0.0255 0.2551
C14B C 1.0403(3) 0.1014(9) 0.3487(4)
H8B H 1.0163 0.0083 0.3612
N3B N 1.04388(17) 0.2484(8) 0.3949(2)
N3C N 0.95612(17) 0.2484(8) 0.6051(2)
C15B C 1.0754(2) 0.3816(8) 0.3753(4)
H9B H 1.0775 0.4864 0.4067
C16B C 1.1050(3) 0.3717(7) 0.3107(4)
H10B H 1.1263 0.4698 0.2967
C17B C 1.1548(3) -0.1481(8) -0.1004(4)
C18B C 1.2000(3) -0.1515(8) -0.1450(4)
H11B H 1.2390 -0.1341 -0.1183
C19B C 1.1880(4) -0.1795(9) -0.2251(4)
H12B H 1.2185 -0.1870 -0.2560
C20B C 1.1299(4) -0.1980(9) -0.2643(4)
H13B H 1.1208 -0.2104 -0.3222
C21B C 1.0868(4) -0.1982(11) -0.2190(5)
H14B H 1.0475 -0.2143 -0.2443
C22B C 1.1018(4) -0.1737(11) -0.1335(4)
H15B H 1.0724 -0.1762 -0.1004
loop_
_geom_bond_atom_site_label_1
_geom_bond_atom_site_label_2
_geom_bond_site_symmetry_1
_geom_bond_site_symmetry_2
Zn1 F1 1_555 1_555
Si1 F1 1_555 1_555
F2 Si1 1_555 1_555
F3 Si1 1_555 1_555
F4 Si1 1_555 1_555
N1 C1 1_555 1_555
C1 O1 1_555 1_555
C2 C1 1_555 1_555
H1 C2 1_555 1_555
C3 C2 1_555 1_555
H2 C3 1_555 1_555
C4 N1 1_555 1_555
O2 C4 1_555 1_555
O3 C2 1_555 1_555
C5 O3 1_555 1_555
O4 C5 1_555 1_555
C6 C5 1_555 1_555
C7 C6 1_555 1_555
H3 C7 1_555 1_555
C8 C7 1_555 1_555
H4 C8 1_555 1_555
N2 Zn1 1_555 1_555
C9 N2 1_555 1_555
H5 C9 1_555 1_555
C10 C6 1_555 1_555
H6 C10 1_555 1_555
O5 C3 1_555 1_555
C11 O5 1_555 1_555
O6 C11 1_555 1_555
C12 C11 1_555 1_555
C13 C12 1_555 1_555
H7 C13 1_555 1_555
C14 C13 1_555 1_555
H8 C14 1_555 1_555
N3 C14 1_555 1_555
C15 N3 1_555 1_555
H9 C15 1_555 1_555
C16 C12 1_555 1_555
H10 C16 1_555 1_555
C17 N1 1_555 1_555
C18 C17 1_555 1_555
H11 C18 1_555 1_555
C19 C18 1_555 1_555
H12 C19 1_555 1_555
C20 C19 1_555 1_555
H13 C20 1_555 1_555
C21 C20 1_555 1_555
H14 C21 1_555 1_555
C22 C17 1_555 1_555
H15 C22 1_555 1_555
Zn1_2 F4 1_555 1_555
Zn1B N3 1_555 1_555
Zn1B_2 N2B 1_555 1_555
F2A Si1 1_555 1_555
F3A Si1 1_555 1_555
F4_2 Zn1 1_555 1_555
N1B C1B 1_555 1_555
C1B O1B 1_555 1_555
C2B C1B 1_555 1_555
H1B C2B 1_555 1_555
C3B C2B 1_555 1_555
H2B C3B 1_555 1_555
C4B N1B 1_555 1_555
O2B C4B 1_555 1_555
O3B C2B 1_555 1_555
C5B O3B 1_555 1_555
O4B C5B 1_555 1_555
C6B C5B 1_555 1_555
C7B C6B 1_555 1_555
H3B C7B 1_555 1_555
C8B C7B 1_555 1_555
H4B C8B 1_555 1_555
N2B C8B 1_555 1_555
N2A Zn1 1_555 1_555
C9B N2B 1_555 1_555
H5B C9B 1_555 1_555
C10B C6B 1_555 1_555
H6B C10B 1_555 1_555
O5B C3B 1_555 1_555
C11B O5B 1_555 1_555
O6B C11B 1_555 1_555
C12B C11B 1_555 1_555
C13B C12B 1_555 1_555
H7B C13B 1_555 1_555
C14B C13B 1_555 1_555
H8B C14B 1_555 1_555
N3B Zn1 1_555 1_555
N3C Zn1 1_555 1_555
C15B N3B 1_555 1_555
H9B C15B 1_555 1_555
C16B C12B 1_555 1_555
H10B C16B 1_555 1_555
C17B N1B 1_555 1_555
C18B C17B 1_555 1_555
H11B C18B 1_555 1_555
C19B C18B 1_555 1_555
H12B C19B 1_555 1_555
C20B C19B 1_555 1_555
H13B C20B 1_555 1_555
C21B C20B 1_555 1_555
H14B C21B 1_555 1_555
C22B C17B 1_555 1_555
H15B C22B 1_555 1_555
C3 C4 1_555 1_555
C8 N2 1_555 1_555
C9 C10 1_555 1_555
C15 C16 1_555 1_555
C21 C22 1_555 1_555
C3B C4B 1_555 1_555
C9B C10B 1_555 1_555
C14B N3B 1_555 1_555
C15B C16B 1_555 1_555
C21B C22B 1_555 1_555

#END
