
#######################################################################
#
#                 Cambridge Crystallographic Data Centre
#                                CCDC 
#
#######################################################################
#
# If this CIF has been generated from an entry in the Cambridge 
# Structural Database, then it will include bibliographic, chemical, 
# crystal, experimental, refinement or atomic coordinate data resulting 
# from the CCDC's data processing and validation procedures.
#
#######################################################################

data_WATZIB
_symmetry_cell_setting           monoclinic
_symmetry_space_group_name_H-M   'C 2/c'
_symmetry_Int_Tables_number      15
_space_group_name_Hall           '-C 2yn'
loop_
_symmetry_equiv_pos_site_id
_symmetry_equiv_pos_as_xyz
1 x,y,z
2 1/2+x,1/2+y,z
3 -x,y,1/2-z
4 1/2-x,1/2+y,1/2-z
5 -x,-y,-z
6 1/2-x,1/2-y,-z
7 x,-y,1/2+z
8 1/2+x,1/2-y,1/2+z
_cell_length_a                   36.790(7)
_cell_length_b                   10.477(2)
_cell_length_c                   8.2697(17)
_cell_angle_alpha                90
_cell_angle_beta                 92.09(3)
_cell_angle_gamma                90
_cell_volume                     3185.43
loop_
_atom_site_label
_atom_site_type_symbol
_atom_site_fract_x
_atom_site_fract_y
_atom_site_fract_z
Pb1 Pb 0.5000 -1.03582(6) -0.2500
Fe1 Fe 0.68343(6) -0.7556(2) -0.6984(3)
N1 N 0.4700(3) -1.2475(10) -0.1545(14)
C1 C 0.6626(10) -0.835(4) -0.905(5)
H1 H 0.6405 -0.8098 -0.9662
C2 C 0.6972(11) -0.794(3) -0.929(4)
H2 H 0.7041 -0.7303 -1.0095
C3 C 0.7211(6) -0.855(2) -0.822(4)
H3 H 0.7475 -0.8445 -0.8134
C4 C 0.7005(13) -0.936(2) -0.732(3)
H4 H 0.7098 -0.9936 -0.6471
C5 C 0.6657(10) -0.927(4) -0.786(6)
H5 H 0.6454 -0.9757 -0.7443
C6 C 0.6483(5) -0.6162(17) -0.632(2)
H6 H 0.6257 -0.5928 -0.6902
C7 C 0.6834(6) -0.5633(17) -0.659(3)
H7 H 0.6887 -0.4981 -0.7398
C8 C 0.7091(5) -0.6206(19) -0.554(3)
H8 H 0.7353 -0.6026 -0.5448
C9 C 0.6897(5) -0.7103(16) -0.4652(19)
H9 H 0.7007 -0.7668 -0.3828
C10 C 0.6518(5) -0.7074(14) -0.507(2)
C11 C 0.6237(5) -0.7897(14) -0.435(2)
H10 H 0.6300 -0.8278 -0.3363
C12 C 0.5919(4) -0.8136(14) -0.494(2)
H11 H 0.5858 -0.7776 -0.5940
C13 C 0.5639(4) -0.8931(13) -0.418(2)
C14 C 0.4420(5) -1.2465(18) -0.057(2)
H12 H 0.4340 -1.1688 -0.0175
C15 C 0.4238(5) -1.3609(16) -0.013(2)
H13 H 0.4031 -1.3581 0.0485
C16 C 0.4380(5) -1.4766(17) -0.064(2)
H14 H 0.4273 -1.5526 -0.0318
C17 C 0.4684(5) -1.4802(13) -0.163(2)
C18 C 0.4839(4) -1.3619(12) -0.2013(15)
C19 C 0.4843(6) -1.5963(16) -0.2024(18)
H15 H 0.4745 -1.6727 -0.1670
O1 O 0.5334(3) -0.9019(13) -0.4863(14)
O2 O 0.5708(4) -0.9480(12) -0.286(2)
Pb1F Pb 0.5000 -0.96418(6) -0.7500
Pb1F_2 Pb 0.5000 -0.96418(6) 0.2500
Fe1F Fe 0.68343(6) -1.2444(2) -0.1984(3)
N1B N 0.5300(3) -1.2475(10) -0.3455(14)
C1F C 0.6626(10) -1.165(4) -0.405(5)
H1F H 0.6405 -1.1902 -0.4662
C2F C 0.6972(11) -1.206(3) -0.429(4)
H2F H 0.7041 -1.2697 -0.5095
C3F C 0.7211(6) -1.145(2) -0.322(4)
H3F H 0.7475 -1.1555 -0.3134
C4F C 0.7005(13) -1.064(2) -0.232(3)
H4F H 0.7098 -1.0064 -0.1471
C5F C 0.6657(10) -1.073(4) -0.286(6)
H5F H 0.6454 -1.0243 -0.2443
C6F C 0.6483(5) -1.3838(17) -0.132(2)
H6F H 0.6257 -1.4072 -0.1902
C7F C 0.6834(6) -1.4367(17) -0.159(3)
H7F H 0.6887 -1.5019 -0.2398
C8F C 0.7091(5) -1.3794(19) -0.054(3)
H8F H 0.7353 -1.3974 -0.0448
C9F C 0.6897(5) -1.2897(16) 0.0348(19)
H9F H 0.7007 -1.2332 0.1172
C10F C 0.6518(5) -1.2926(14) -0.007(2)
C11F C 0.6237(5) -1.2103(14) 0.065(2)
H10F H 0.6300 -1.1722 0.1637
C12F C 0.5919(4) -1.1864(14) 0.006(2)
H11F H 0.5858 -1.2224 -0.0940
C13F C 0.5639(4) -1.1069(13) 0.082(2)
C14B C 0.5580(5) -1.2465(18) -0.443(2)
H12B H 0.5660 -1.1688 -0.4825
C15B C 0.5762(5) -1.3609(16) -0.487(2)
H13B H 0.5969 -1.3581 -0.5485
C16B C 0.5620(5) -1.4766(17) -0.436(2)
H14B H 0.5727 -1.5526 -0.4682
C17B C 0.5316(5) -1.4802(13) -0.337(2)
C18B C 0.5161(4) -1.3619(12) -0.2987(15)
C19B C 0.5157(6) -1.5963(16) -0.2976(18)
H15B H 0.5255 -1.6727 -0.3330
O1F O 0.5334(3) -1.0981(13) 0.0137(14)
O1D O 0.4666(3) -1.0981(13) -0.5137(14)
O1B O 0.4666(3) -0.9019(13) -0.0137(14)
O2F O 0.5708(4) -1.0520(12) 0.214(2)
loop_
_geom_bond_atom_site_label_1
_geom_bond_atom_site_label_2
_geom_bond_site_symmetry_1
_geom_bond_site_symmetry_2
Pb1 N1 1_555 1_555
Fe1 C1 1_555 1_555
N1 C14 1_555 1_555
C1 H1 1_555 1_555
C2 Fe1 1_555 1_555
H2 C2 1_555 1_555
C3 Fe1 1_555 1_555
H3 C3 1_555 1_555
C4 Fe1 1_555 1_555
H4 C4 1_555 1_555
C5 Fe1 1_555 1_555
H5 C5 1_555 1_555
C6 Fe1 1_555 1_555
H6 C6 1_555 1_555
C7 Fe1 1_555 1_555
H7 C7 1_555 1_555
C8 Fe1 1_555 1_555
H8 C8 1_555 1_555
C9 Fe1 1_555 1_555
H9 C9 1_555 1_555
C10 Fe1 1_555 1_555
C11 C10 1_555 1_555
H10 C11 1_555 1_555
C12 C11 1_555 1_555
H11 C12 1_555 1_555
C13 C12 1_555 1_555
C14 H12 1_555 1_555
C15 C14 1_555 1_555
H13 C15 1_555 1_555
C16 C15 1_555 1_555
H14 C16 1_555 1_555
C17 C16 1_555 1_555
C18 N1 1_555 1_555
C19 C17 1_555 1_555
H15 C19 1_555 1_555
O1 Pb1 1_555 1_555
O2 C13 1_555 1_555
Pb1F O1 1_555 1_555
Pb1F_2 O1F 1_555 1_555
Fe1F C1F 1_555 1_555
N1B Pb1 1_555 1_555
C1F H1F 1_555 1_555
C2F Fe1F 1_555 1_555
H2F C2F 1_555 1_555
C3F Fe1F 1_555 1_555
H3F C3F 1_555 1_555
C4F Fe1F 1_555 1_555
H4F C4F 1_555 1_555
C5F Fe1F 1_555 1_555
H5F C5F 1_555 1_555
C6F Fe1F 1_555 1_555
H6F C6F 1_555 1_555
C7F Fe1F 1_555 1_555
H7F C7F 1_555 1_555
C8F Fe1F 1_555 1_555
H8F C8F 1_555 1_555
C9F Fe1F 1_555 1_555
H9F C9F 1_555 1_555
C10F Fe1F 1_555 1_555
C11F C10F 1_555 1_555
H10F C11F 1_555 1_555
C12F C11F 1_555 1_555
H11F C12F 1_555 1_555
C13F C12F 1_555 1_555
C14B N1B 1_555 1_555
H12B C14B 1_555 1_555
C15B C14B 1_555 1_555
H13B C15B 1_555 1_555
C16B C15B 1_555 1_555
H14B C16B 1_555 1_555
C17B C16B 1_555 1_555
C18B C18 1_555 1_555
C19B C19 1_555 1_555
H15B C19B 1_555 1_555
O1F Pb1 1_555 1_555
O1D Pb1 1_555 1_555
O1B Pb1 1_555 1_555
O2F C13F 1_555 1_555
C1 C2 1_555 1_555
C1 C5 1_555 1_555
C2 C3 1_555 1_555
C3 C4 1_555 1_555
C4 C5 1_555 1_555
C6 C7 1_555 1_555
C6 C10 1_555 1_555
C7 C8 1_555 1_555
C8 C9 1_555 1_555
C9 C10 1_555 1_555
C13 O1 1_555 1_555
C17 C18 1_555 1_555
Pb1F O1D 1_555 1_555
Pb1F_2 O1B 1_555 1_555
N1B C18B 1_555 1_555
C1F C2F 1_555 1_555
C1F C5F 1_555 1_555
C2F C3F 1_555 1_555
C3F C4F 1_555 1_555
C4F C5F 1_555 1_555
C6F C7F 1_555 1_555
C6F C10F 1_555 1_555
C7F C8F 1_555 1_555
C8F C9F 1_555 1_555
C9F C10F 1_555 1_555
C13F O1F 1_555 1_555
C17B C18B 1_555 1_555
C17B C19B 1_555 1_555

#END
