
#######################################################################
#
#                 Cambridge Crystallographic Data Centre
#                                CCDC 
#
#######################################################################
#
# If this CIF has been generated from an entry in the Cambridge 
# Structural Database, then it will include bibliographic, chemical, 
# crystal, experimental, refinement or atomic coordinate data resulting 
# from the CCDC's data processing and validation procedures.
#
#######################################################################

data_WATZEX
_symmetry_cell_setting           triclinic
_symmetry_space_group_name_H-M   'P -1'
_symmetry_Int_Tables_number      2
_space_group_name_Hall           '-P 1'
loop_
_symmetry_equiv_pos_site_id
_symmetry_equiv_pos_as_xyz
1 x,y,z
2 -x,-y,-z
_cell_length_a                   9.7369(19)
_cell_length_b                   10.200(2)
_cell_length_c                   19.829(4)
_cell_angle_alpha                102.76(3)
_cell_angle_beta                 96.48(3)
_cell_angle_gamma                95.22(3)
_cell_volume                     1894.74
loop_
_atom_site_label
_atom_site_type_symbol
_atom_site_fract_x
_atom_site_fract_y
_atom_site_fract_z
Cd1 Cd 0.65936(11) -1.37560(12) 0.73467(6)
Fe1 Fe 0.1236(2) -0.8682(2) 0.67173(11)
Cl1 Cl 0.8787(4) -1.4396(5) 0.6879(2)
N1 N 0.7882(12) -1.2895(14) 0.8564(7)
N2 N 0.9623(13) -1.2978(13) 0.9360(6)
N3 N 0.5772(13) -1.5414(13) 0.7870(7)
N4 N 0.4788(11) -1.6203(13) 0.8676(6)
N5 N 0.4974(11) -1.4742(13) 0.6354(6)
N6 N 0.3195(12) -1.4871(13) 0.5493(7)
O1 O 0.6481(13) -1.1651(11) 0.7153(6)
O2 O 0.4757(14) -1.2304(13) 0.7674(6)
C1 C -0.072(5) -0.984(6) 0.6339(19)
H1 H -0.1479 -0.9994 0.6606
C2 C -0.045(4) -0.876(5) 0.604(2)
H2 H -0.1030 -0.8024 0.6038
C3 C 0.057(5) -0.892(3) 0.5720(13)
H3 H 0.0899 -0.8346 0.5423
C4 C 0.115(2) -1.006(4) 0.5832(15)
H4 H 0.1950 -1.0407 0.5628
C5 C 0.042(5) -1.062(3) 0.6222(18)
H5 H 0.0580 -1.1445 0.6378
C6 C 0.3222(15) -0.7746(16) 0.7016(9)
H6 H 0.3961 -0.7788 0.6718
C7 C 0.2277(15) -0.6787(17) 0.7082(9)
H7 H 0.2249 -0.6043 0.6844
C8 C 0.1389(15) -0.7068(17) 0.7549(9)
H8 H 0.0630 -0.6555 0.7699
C9 C 0.1775(14) -0.8255(15) 0.7762(7)
H9 H 0.1333 -0.8692 0.8089
C10 C 0.2932(14) -0.8653(15) 0.7435(8)
C11 C 0.3592(18) -0.9872(18) 0.7506(8)
H10 H 0.3151 -1.0451 0.7739
C12 C 0.4691(18) -1.0191(18) 0.7280(10)
H11 H 0.5145 -0.9633 0.7041
C13 C 0.5333(18) -1.150(2) 0.7387(9)
C14 C 0.7701(15) -1.2032(14) 0.9173(8)
C15 C 0.6698(16) -1.1211(16) 0.9352(9)
H12 H 0.5910 -1.1225 0.9037
C16 C 0.6887(18) -1.0362(19) 1.0012(10)
H13 H 0.6237 -0.9767 1.0132
C17 C 0.8033(19) -1.0376(19) 1.0503(9)
H14 H 0.8133 -0.9780 1.0939
C18 C 0.9008(16) -1.1240(17) 1.0361(9)
H15 H 0.9745 -1.1289 1.0693
C19 C 0.8822(14) -1.2056(16) 0.9673(8)
C20 C 0.8983(16) -1.3452(17) 0.8688(8)
H16 H 0.9308 -1.4105 0.8358
C21 C 1.0859(15) -1.3461(17) 0.9673(9)
H17 H 1.1513 -1.2692 0.9931
H18 H 1.1310 -1.3974 0.9306
C22 C 1.0455(18) -1.4383(18) 1.0180(10)
H19 H 1.1298 -1.4628 1.0406
H20 H 0.9990 -1.3869 1.0540
C23 C 0.6513(13) -1.6482(15) 0.8024(8)
C24 C 0.7617(17) -1.7097(17) 0.7765(8)
H21 H 0.8050 -1.6791 0.7424
C25 C 0.8062(15) -1.8137(16) 0.8007(8)
H22 H 0.8802 -1.8555 0.7835
C26 C 0.7376(18) -1.8610(19) 0.8544(9)
H23 H 0.7696 -1.9324 0.8712
C27 C 0.6297(17) -1.8041(16) 0.8800(8)
H24 H 0.5856 -1.8353 0.9136
C28 C 0.5867(15) -1.6971(15) 0.8542(8)
C29 C 0.4831(17) -1.5269(19) 0.8265(9)
H25 H 0.4234 -1.4605 0.8278
C30 C 0.3863(16) -1.6240(16) 0.9212(8)
H26 H 0.3457 -1.7165 0.9168
H27 H 0.3113 -1.5699 0.9143
C31 C 0.4696(19) -1.5679(19) 0.9955(9)
H28 H 0.510(12) -1.648(13) 0.997(7)
H29 H 0.408(9) -1.584(10) 1.028(4)
C32 C 0.4902(13) -1.5931(16) 0.5834(8)
C33 C 0.5777(13) -1.6969(15) 0.5822(8)
H30 H 0.6514 -1.6922 0.6172
C34 C 0.5460(17) -1.8039(18) 0.5261(10)
H31 H 0.6011 -1.8742 0.5232
C35 C 0.4344(19) -1.8156(16) 0.4716(9)
H32 H 0.4183 -1.8914 0.4344
C36 C 0.3503(17) -1.7134(17) 0.4742(8)
H33 H 0.2776 -1.7183 0.4387
C37 C 0.3760(14) -1.6050(16) 0.5300(8)
C38 C 0.3896(16) -1.4157(15) 0.6110(8)
H34 H 0.3657 -1.3333 0.6346
C39 C 0.1985(14) -1.4471(16) 0.5114(9)
H35 H 0.2076 -1.4656 0.4621
H36 H 0.1969 -1.3503 0.5276
C40 C 0.0639(15) -1.5195(19) 0.5208(10)
H37 H 0.060(15) -1.545(16) 0.575(9)
H38 H 0.059(11) -1.610(5) 0.495(5)
Cd1A Cd 1.34064(11) -1.62440(12) 1.26533(6)
Cd1A_2 Cd 0.34064(11) -1.62440(12) 1.26533(6)
Cd1A_3 Cd -0.65936(11) -1.62440(12) 0.26533(6)
Fe1A Fe 1.8764(2) -2.1318(2) 1.32827(11)
Cl1A Cl 1.1213(4) -1.5604(5) 1.3121(2)
N1A N 1.2118(12) -1.7105(14) 1.1436(7)
N2A N 1.0377(13) -1.7022(13) 1.0640(6)
N3A N 0.4228(13) -1.4586(13) 1.2130(7)
N3A_2 N 1.4228(13) -1.4586(13) 1.2130(7)
N4A N 0.5212(11) -1.3797(13) 1.1324(6)
N5A N -0.4974(11) -1.5258(13) 0.3646(6)
N5A_2 N 1.5026(11) -1.5258(13) 1.3646(6)
N6A N -0.3195(12) -1.5129(13) 0.4507(7)
O1A O 1.3519(13) -1.8349(11) 1.2847(6)
O2A O 1.5243(14) -1.7696(13) 1.2326(6)
C1A C 2.072(5) -2.016(6) 1.3661(19)
H1A H 2.1479 -2.0006 1.3394
C2A C 2.045(4) -2.124(5) 1.396(2)
H2A H 2.1030 -2.1976 1.3962
C3A C 1.943(5) -2.108(3) 1.4280(13)
H3A H 1.9101 -2.1654 1.4577
C4A C 1.885(2) -1.994(4) 1.4168(15)
H4A H 1.8050 -1.9593 1.4372
C5A C 1.958(5) -1.938(3) 1.3778(18)
H5A H 1.9420 -1.8555 1.3622
C6A C 1.6778(15) -2.2254(16) 1.2984(9)
H6A H 1.6039 -2.2212 1.3282
C7A C 1.7723(15) -2.3213(17) 1.2918(9)
H7A H 1.7751 -2.3957 1.3156
C8A C 1.8611(15) -2.2932(17) 1.2451(9)
H8A H 1.9370 -2.3445 1.2301
C9A C 1.8225(14) -2.1745(15) 1.2238(7)
H9A H 1.8667 -2.1308 1.1911
C10A C 1.7068(14) -2.1347(15) 1.2565(8)
C11A C 1.6408(18) -2.0128(18) 1.2494(8)
H10A H 1.6849 -1.9549 1.2261
C12A C 1.5309(18) -1.9809(18) 1.2720(10)
H11A H 1.4855 -2.0367 1.2959
C13A C 1.4667(18) -1.850(2) 1.2613(9)
C14A C 1.2299(15) -1.7968(14) 1.0827(8)
C15A C 1.3302(16) -1.8789(16) 1.0648(9)
H12A H 1.4090 -1.8775 1.0963
C16A C 1.3113(18) -1.9638(19) 0.9988(10)
H13A H 1.3763 -2.0233 0.9868
C17A C 1.1967(19) -1.9624(19) 0.9497(9)
H14A H 1.1867 -2.0220 0.9061
C18A C 1.0992(16) -1.8760(17) 0.9639(9)
H15A H 1.0255 -1.8711 0.9307
C19A C 1.1178(14) -1.7944(16) 1.0327(8)
C20A C 1.1017(16) -1.6548(17) 1.1312(8)
H16A H 1.0692 -1.5895 1.1642
C21A C 0.9141(15) -1.6539(17) 1.0327(9)
H17A H 0.8487 -1.7308 1.0069
H18A H 0.8690 -1.6026 1.0694
C22A C 0.9545(18) -1.5617(18) 0.9820(10)
H19A H 0.8702 -1.5372 0.9594
H20A H 1.0010 -1.6131 0.9460
C23A C 0.3487(13) -1.3518(15) 1.1976(8)
C24A C 0.2383(17) -1.2903(17) 1.2235(8)
H21A H 0.1950 -1.3209 1.2576
C25A C 0.1938(15) -1.1863(16) 1.1993(8)
H22A H 0.1198 -1.1445 1.2165
C26A C 0.2624(18) -1.1390(19) 1.1456(9)
H23A H 0.2304 -1.0676 1.1288
C27A C 0.3703(17) -1.1959(16) 1.1200(8)
H24A H 0.4144 -1.1647 1.0864
C28A C 0.4133(15) -1.3029(15) 1.1458(8)
C29A C 0.5169(17) -1.4731(19) 1.1735(9)
H25A H 0.5766 -1.5395 1.1722
C30A C 0.6137(16) -1.3760(16) 1.0788(8)
H26A H 0.6543 -1.2835 1.0832
H27A H 0.6887 -1.4301 1.0857
C31A C 0.5304(19) -1.4321(19) 1.0045(9)
H28A H 0.490(12) -1.352(13) 1.003(7)
H29A H 0.592(9) -1.416(10) 0.972(4)
C32A C -0.4902(13) -1.4069(16) 0.4166(8)
C33A C -0.5777(13) -1.3031(15) 0.4178(8)
H30A H -0.6514 -1.3078 0.3828
C34A C -0.5460(17) -1.1961(18) 0.4739(10)
H31A H -0.6011 -1.1258 0.4768
C35A C -0.4344(19) -1.1844(16) 0.5284(9)
H32A H -0.4183 -1.1086 0.5656
C36A C -0.3503(17) -1.2866(17) 0.5258(8)
H33A H -0.2776 -1.2817 0.5613
C37A C -0.3760(14) -1.3950(16) 0.4700(8)
C38A C -0.3896(16) -1.5843(15) 0.3890(8)
H34A H -0.3657 -1.6667 0.3654
C39A C -0.1985(14) -1.5529(16) 0.4886(9)
H35A H -0.2076 -1.5344 0.5379
H36A H -0.1969 -1.6497 0.4724
C40A C -0.0639(15) -1.4805(19) 0.4792(10)
H37A H -0.060(15) -1.455(16) 0.425(9)
H38A H -0.059(11) -1.390(5) 0.505(5)
O3 O 0.004(6) -1.118(6) 0.790(2)
O4 O 0.230(2) -0.2995(19) 0.8153(12)
loop_
_geom_bond_atom_site_label_1
_geom_bond_atom_site_label_2
_geom_bond_site_symmetry_1
_geom_bond_site_symmetry_2
Cd1 Cl1 1_555 1_555
Fe1 C1 1_555 1_555
N1 Cd1 1_555 1_555
N2 C19 1_555 1_555
N3 Cd1 1_555 1_555
N4 C28 1_555 1_555
N5 Cd1 1_555 1_555
N6 C37 1_555 1_555
O1 Cd1 1_555 1_555
O2 Cd1 1_555 1_555
C1 H1 1_555 1_555
C2 Fe1 1_555 1_555
H2 C2 1_555 1_555
C3 Fe1 1_555 1_555
H3 C3 1_555 1_555
C4 Fe1 1_555 1_555
H4 C4 1_555 1_555
C5 Fe1 1_555 1_555
H5 C5 1_555 1_555
C6 Fe1 1_555 1_555
H6 C6 1_555 1_555
C7 Fe1 1_555 1_555
H7 C7 1_555 1_555
C8 Fe1 1_555 1_555
H8 C8 1_555 1_555
C9 Fe1 1_555 1_555
H9 C9 1_555 1_555
C10 Fe1 1_555 1_555
C11 C10 1_555 1_555
H10 C11 1_555 1_555
C12 C11 1_555 1_555
H11 C12 1_555 1_555
C13 O1 1_555 1_555
C14 N1 1_555 1_555
C15 C14 1_555 1_555
H12 C15 1_555 1_555
C16 C15 1_555 1_555
H13 C16 1_555 1_555
C17 C16 1_555 1_555
H14 C17 1_555 1_555
C18 C17 1_555 1_555
H15 C18 1_555 1_555
C19 C14 1_555 1_555
C20 N1 1_555 1_555
H16 C20 1_555 1_555
C21 N2 1_555 1_555
H17 C21 1_555 1_555
H18 C21 1_555 1_555
C22 C21 1_555 1_555
H19 C22 1_555 1_555
H20 C22 1_555 1_555
C23 N3 1_555 1_555
C24 C23 1_555 1_555
H21 C24 1_555 1_555
C25 C24 1_555 1_555
H22 C25 1_555 1_555
C26 C25 1_555 1_555
H23 C26 1_555 1_555
C27 C26 1_555 1_555
H24 C27 1_555 1_555
C28 C23 1_555 1_555
C29 N3 1_555 1_555
H25 C29 1_555 1_555
C30 N4 1_555 1_555
H26 C30 1_555 1_555
H27 C30 1_555 1_555
C31 C30 1_555 1_555
H28 C31 1_555 1_555
H29 C31 1_555 1_555
C32 N5 1_555 1_555
C33 C32 1_555 1_555
H30 C33 1_555 1_555
C34 C33 1_555 1_555
H31 C34 1_555 1_555
C35 C34 1_555 1_555
H32 C35 1_555 1_555
C36 C35 1_555 1_555
H33 C36 1_555 1_555
C37 C32 1_555 1_555
C38 N5 1_555 1_555
H34 C38 1_555 1_555
C39 N6 1_555 1_555
H35 C39 1_555 1_555
H36 C39 1_555 1_555
C40 C39 1_555 1_555
H37 C40 1_555 1_555
H38 C40 1_555 1_555
Cd1A Cl1A 1_555 1_555
Cd1A_2 N3A 1_555 1_555
Cd1A_3 N5A 1_555 1_555
Fe1A C1A 1_555 1_555
N1A Cd1A 1_555 1_555
N2A C19A 1_555 1_555
N3A C23A 1_555 1_555
N3A_2 Cd1A 1_555 1_555
N4A C28A 1_555 1_555
N5A C32A 1_555 1_555
N5A_2 Cd1A 1_555 1_555
N6A C37A 1_555 1_555
O1A Cd1A 1_555 1_555
O2A Cd1A 1_555 1_555
C1A H1A 1_555 1_555
C2A Fe1A 1_555 1_555
H2A C2A 1_555 1_555
C3A Fe1A 1_555 1_555
H3A C3A 1_555 1_555
C4A Fe1A 1_555 1_555
H4A C4A 1_555 1_555
C5A Fe1A 1_555 1_555
H5A C5A 1_555 1_555
C6A Fe1A 1_555 1_555
H6A C6A 1_555 1_555
C7A Fe1A 1_555 1_555
H7A C7A 1_555 1_555
C8A Fe1A 1_555 1_555
H8A C8A 1_555 1_555
C9A Fe1A 1_555 1_555
H9A C9A 1_555 1_555
C10A Fe1A 1_555 1_555
C11A C10A 1_555 1_555
H10A C11A 1_555 1_555
C12A C11A 1_555 1_555
H11A C12A 1_555 1_555
C13A O1A 1_555 1_555
C14A N1A 1_555 1_555
C15A C14A 1_555 1_555
H12A C15A 1_555 1_555
C16A C15A 1_555 1_555
H13A C16A 1_555 1_555
C17A C16A 1_555 1_555
H14A C17A 1_555 1_555
C18A C17A 1_555 1_555
H15A C18A 1_555 1_555
C19A C14A 1_555 1_555
C20A N1A 1_555 1_555
H16A C20A 1_555 1_555
C21A N2A 1_555 1_555
H17A C21A 1_555 1_555
H18A C21A 1_555 1_555
C22A C22 1_555 1_555
H19A C22A 1_555 1_555
H20A C22A 1_555 1_555
C23A C24A 1_555 1_555
C24A H21A 1_555 1_555
C25A C24A 1_555 1_555
H22A C25A 1_555 1_555
C26A C25A 1_555 1_555
H23A C26A 1_555 1_555
C27A C26A 1_555 1_555
H24A C27A 1_555 1_555
C28A C23A 1_555 1_555
C29A N3A 1_555 1_555
H25A C29A 1_555 1_555
C30A N4A 1_555 1_555
H26A C30A 1_555 1_555
H27A C30A 1_555 1_555
C31A C31 1_555 1_555
H28A C31A 1_555 1_555
H29A C31A 1_555 1_555
C32A C33A 1_555 1_555
C33A H30A 1_555 1_555
C34A C33A 1_555 1_555
H31A C34A 1_555 1_555
C35A C34A 1_555 1_555
H32A C35A 1_555 1_555
C36A C35A 1_555 1_555
H33A C36A 1_555 1_555
C37A C32A 1_555 1_555
C38A N5A 1_555 1_555
H34A C38A 1_555 1_555
C39A N6A 1_555 1_555
H35A C39A 1_555 1_555
H36A C39A 1_555 1_555
C40A C40 1_555 1_555
H37A C40A 1_555 1_555
H38A C40A 1_555 1_555
N2 C20 1_555 1_555
N4 C29 1_555 1_555
N6 C38 1_555 1_555
O2 C13 1_555 1_555
C1 C2 1_555 1_555
C1 C5 1_555 1_555
C2 C3 1_555 1_555
C3 C4 1_555 1_555
C4 C5 1_555 1_555
C6 C7 1_555 1_555
C6 C10 1_555 1_555
C7 C8 1_555 1_555
C8 C9 1_555 1_555
C9 C10 1_555 1_555
C12 C13 1_555 1_555
C18 C19 1_555 1_555
C27 C28 1_555 1_555
C36 C37 1_555 1_555
N2A C20A 1_555 1_555
N4A C29A 1_555 1_555
N6A C38A 1_555 1_555
O2A C13A 1_555 1_555
C1A C2A 1_555 1_555
C1A C5A 1_555 1_555
C2A C3A 1_555 1_555
C3A C4A 1_555 1_555
C4A C5A 1_555 1_555
C6A C7A 1_555 1_555
C6A C10A 1_555 1_555
C7A C8A 1_555 1_555
C8A C9A 1_555 1_555
C9A C10A 1_555 1_555
C12A C13A 1_555 1_555
C18A C19A 1_555 1_555
C21A C22A 1_555 1_555
C27A C28A 1_555 1_555
C30A C31A 1_555 1_555
C36A C37A 1_555 1_555
C39A C40A 1_555 1_555

#END
