
#######################################################################
#
#                 Cambridge Crystallographic Data Centre
#                                CCDC 
#
#######################################################################
#
# If this CIF has been generated from an entry in the Cambridge 
# Structural Database, then it will include bibliographic, chemical, 
# crystal, experimental, refinement or atomic coordinate data resulting 
# from the CCDC's data processing and validation procedures.
#
#######################################################################

data_WATZAU
_symmetry_cell_setting           monoclinic
_symmetry_space_group_name_H-M   'C 2'
_symmetry_Int_Tables_number      5
_space_group_name_Hall           'C 2y'
loop_
_symmetry_equiv_pos_site_id
_symmetry_equiv_pos_as_xyz
1 x,y,z
2 -x,y,-z
3 1/2+x,1/2+y,z
4 1/2-x,1/2+y,-z
_cell_length_a                   20.8352(8)
_cell_length_b                   7.6558(3)
_cell_length_c                   14.9174(5)
_cell_angle_alpha                90
_cell_angle_beta                 107.298(2)
_cell_angle_gamma                90
_cell_volume                     2271.86
loop_
_atom_site_label
_atom_site_type_symbol
_atom_site_fract_x
_atom_site_fract_y
_atom_site_fract_z
Zn1 Zn 0.5000 0.1899 0.5000
Si1 Si 0.5000 -0.3105(6) 0.5000
F1 F 0.5000 -0.0865(10) 0.5000
F2 F 0.5281(2) -0.3100(9) 0.6167(2)
F3 F 0.57850(17) -0.3078(9) 0.4950(3)
F4 F 0.5000 -0.5366(10) 0.5000
N1 N 0.4504(2) 0.1864(13) 0.6090(4)
C1 C 0.4504(5) 0.0353(13) 0.6584(6)
H1 H 0.4696 -0.0666 0.6406
C2 C 0.4242(5) 0.0237(14) 0.7318(6)
H2 H 0.4276 -0.0821 0.7661
C3 C 0.3931(6) 0.1656(18) 0.7554(10)
C4 C 0.3927(6) 0.3260(19) 0.7041(10)
H3 H 0.3729 0.4287 0.7200
C5 C 0.4209(5) 0.3285(16) 0.6332(9)
H4 H 0.4199 0.4339 0.5993
C6 C 0.3584(7) 0.162(2) 0.8303(11)
O1 O 0.3159(8) 0.258(3) 0.8367(13)
O2 O 0.3858(4) 0.044(2) 0.8913(5)
C7 C 0.3609(7) 0.022(3) 0.9688(6)
H5 H 0.3210 0.0993 0.9619
C8 C 0.4172(7) 0.070(2) 1.0585(7)
H6 H 0.3993 0.1530 1.0960
H7 H 0.4539 0.1296 1.0408
C9 C 0.4463(3) -0.092(3) 1.1195(4)
H8 H 0.4837 -0.0585 1.1753
H9 H 0.4625 -0.1801 1.0829
C10 C 0.3848(6) -0.163(4) 1.1488(6)
H10 H 0.3950 -0.2815 1.1757
H11 H 0.3763 -0.0859 1.1974
C11 C 0.3229(6) -0.169(3) 1.0638(7)
H12 H 0.2968 -0.2758 1.0668
H13 H 0.2940 -0.0667 1.0650
C12 C 0.3412(5) -0.168(2) 0.9730(5)
H14 H 0.3783 -0.2516 0.9734
O3 O 0.2797(3) -0.1961(11) 0.8930(4)
C13 C 0.2870(5) -0.2764(15) 0.8161(5)
O4 O 0.3392(3) -0.3365(17) 0.8066(5)
C14 C 0.2199(4) -0.2946(18) 0.7414(5)
C15 C 0.2008(5) -0.4367(12) 0.6854(6)
H15 H 0.2300 -0.5344 0.6928
C16 C 0.1390(4) -0.4395(10) 0.6179(6)
H16 H 0.1265 -0.5395 0.5790
N2 N 0.0956(2) -0.3039(12) 0.6055(3)
C17 C 0.1130(4) -0.1643(11) 0.6608(5)
H17 H 0.0818 -0.0710 0.6535
C18 C 0.1752(4) -0.1496(13) 0.7290(6)
H18 H 0.1873 -0.0468 0.7658
Zn1_2 Zn 0.5000 -0.8101 0.5000
Zn1B Zn 0.0000 -0.3101 0.5000
Zn1B_2 Zn 1.0000 -0.3101 0.5000
F2A F 0.4719(2) -0.3100(9) 0.3833(2)
F3A F 0.42150(17) -0.3078(9) 0.5050(3)
F4_2 F 0.5000 0.4634(10) 0.5000
N1A N 0.5496(2) 0.1864(13) 0.3910(4)
C1A C 0.5496(5) 0.0353(13) 0.3416(6)
H1A H 0.5304 -0.0666 0.3594
C2A C 0.5758(5) 0.0237(14) 0.2682(6)
H2A H 0.5724 -0.0821 0.2339
C3A C 0.6069(6) 0.1656(18) 0.2446(10)
C4A C 0.6073(6) 0.3260(19) 0.2959(10)
H3A H 0.6271 0.4287 0.2800
C5A C 0.5791(5) 0.3285(16) 0.3668(9)
H4A H 0.5801 0.4339 0.4007
C6A C 0.6416(7) 0.162(2) 0.1697(11)
O1A O 0.6841(8) 0.258(3) 0.1633(13)
O2A O 0.6142(4) 0.044(2) 0.1087(5)
C7A C 0.6391(7) 0.022(3) 0.0312(6)
H5A H 0.6790 0.0993 0.0381
C8A C 0.5828(7) 0.070(2) -0.0585(7)
H6A H 0.6007 0.1530 -0.0960
H7A H 0.5461 0.1296 -0.0408
C9A C 0.5537(3) -0.092(3) -0.1195(4)
H8A H 0.5163 -0.0585 -0.1753
H9A H 0.5375 -0.1801 -0.0829
C10A C 0.6152(6) -0.163(4) -0.1488(6)
H10A H 0.6050 -0.2815 -0.1757
H11A H 0.6237 -0.0859 -0.1974
C11A C 0.6771(6) -0.169(3) -0.0638(7)
H12A H 0.7032 -0.2758 -0.0668
H13A H 0.7060 -0.0667 -0.0650
C12A C 0.6588(5) -0.168(2) 0.0270(5)
H14A H 0.6217 -0.2516 0.0266
O3A O 0.7203(3) -0.1961(11) 0.1070(4)
C13A C 0.7130(5) -0.2764(15) 0.1839(5)
O4A O 0.6608(3) -0.3365(17) 0.1934(5)
C14A C 0.7801(4) -0.2946(18) 0.2586(5)
C15A C 0.7992(5) -0.4367(12) 0.3146(6)
H15A H 0.7700 -0.5344 0.3072
C16A C 0.8610(4) -0.4395(10) 0.3821(6)
H16A H 0.8735 -0.5395 0.4210
N2A N 0.9044(2) -0.3039(12) 0.3945(3)
N2B N 0.5956(2) 0.1961(12) 0.6055(3)
N2C N 0.4044(2) 0.1961(12) 0.3945(3)
C17A C 0.8870(4) -0.1643(11) 0.3392(5)
H17A H 0.9182 -0.0710 0.3465
C18A C 0.8248(4) -0.1496(13) 0.2710(6)
H18A H 0.8127 -0.0468 0.2342
loop_
_geom_bond_atom_site_label_1
_geom_bond_atom_site_label_2
_geom_bond_site_symmetry_1
_geom_bond_site_symmetry_2
Zn1 F1 1_555 1_555
Si1 F1 1_555 1_555
F2 Si1 1_555 1_555
F3 Si1 1_555 1_555
F4 Si1 1_555 1_555
N1 Zn1 1_555 1_555
C1 N1 1_555 1_555
H1 C1 1_555 1_555
C2 C1 1_555 1_555
H2 C2 1_555 1_555
C3 C2 1_555 1_555
C4 C3 1_555 1_555
H3 C4 1_555 1_555
C5 N1 1_555 1_555
H4 C5 1_555 1_555
C6 C3 1_555 1_555
O1 C6 1_555 1_555
O2 C6 1_555 1_555
C7 O2 1_555 1_555
H5 C7 1_555 1_555
C8 C7 1_555 1_555
H6 C8 1_555 1_555
H7 C8 1_555 1_555
C9 C8 1_555 1_555
H8 C9 1_555 1_555
H9 C9 1_555 1_555
C10 C9 1_555 1_555
H10 C10 1_555 1_555
H11 C10 1_555 1_555
C11 C10 1_555 1_555
H12 C11 1_555 1_555
H13 C11 1_555 1_555
C12 C7 1_555 1_555
H14 C12 1_555 1_555
O3 C12 1_555 1_555
C13 O3 1_555 1_555
O4 C13 1_555 1_555
C14 C13 1_555 1_555
C15 C14 1_555 1_555
H15 C15 1_555 1_555
C16 C15 1_555 1_555
H16 C16 1_555 1_555
N2 C16 1_555 1_555
C17 N2 1_555 1_555
H17 C17 1_555 1_555
C18 C14 1_555 1_555
H18 C18 1_555 1_555
Zn1_2 F4 1_555 1_555
Zn1B N2 1_555 1_555
Zn1B_2 N2A 1_555 1_555
F2A Si1 1_555 1_555
F3A Si1 1_555 1_555
F4_2 Zn1 1_555 1_555
N1A Zn1 1_555 1_555
C1A N1A 1_555 1_555
H1A C1A 1_555 1_555
C2A C1A 1_555 1_555
H2A C2A 1_555 1_555
C3A C2A 1_555 1_555
C4A C3A 1_555 1_555
H3A C4A 1_555 1_555
C5A N1A 1_555 1_555
H4A C5A 1_555 1_555
C6A C3A 1_555 1_555
O1A C6A 1_555 1_555
O2A C6A 1_555 1_555
C7A O2A 1_555 1_555
H5A C7A 1_555 1_555
C8A C7A 1_555 1_555
H6A C8A 1_555 1_555
H7A C8A 1_555 1_555
C9A C8A 1_555 1_555
H8A C9A 1_555 1_555
H9A C9A 1_555 1_555
C10A C9A 1_555 1_555
H10A C10A 1_555 1_555
H11A C10A 1_555 1_555
C11A C10A 1_555 1_555
H12A C11A 1_555 1_555
H13A C11A 1_555 1_555
C12A C7A 1_555 1_555
H14A C12A 1_555 1_555
O3A C12A 1_555 1_555
C13A O3A 1_555 1_555
O4A C13A 1_555 1_555
C14A C13A 1_555 1_555
C15A C14A 1_555 1_555
H15A C15A 1_555 1_555
C16A C15A 1_555 1_555
H16A C16A 1_555 1_555
N2A C16A 1_555 1_555
N2B Zn1 1_555 1_555
N2C Zn1 1_555 1_555
C17A N2A 1_555 1_555
H17A C17A 1_555 1_555
C18A C14A 1_555 1_555
H18A C18A 1_555 1_555
C4 C5 1_555 1_555
C11 C12 1_555 1_555
C17 C18 1_555 1_555
C4A C5A 1_555 1_555
C11A C12A 1_555 1_555
C17A C18A 1_555 1_555

#END
