
#######################################################################
#
#                 Cambridge Crystallographic Data Centre
#                                CCDC 
#
#######################################################################
#
# If this CIF has been generated from an entry in the Cambridge 
# Structural Database, then it will include bibliographic, chemical, 
# crystal, experimental, refinement or atomic coordinate data resulting 
# from the CCDC's data processing and validation procedures.
#
#######################################################################

data_WAVBEB
_symmetry_cell_setting           orthorhombic
_symmetry_space_group_name_H-M   'P 21 21 21'
_symmetry_Int_Tables_number      19
_space_group_name_Hall           'P 2ac 2ab'
loop_
_symmetry_equiv_pos_site_id
_symmetry_equiv_pos_as_xyz
1 x,y,z
2 1/2-x,-y,1/2+z
3 -x,1/2+y,1/2-z
4 1/2+x,1/2-y,-z
_cell_length_a                   4.7270(8)
_cell_length_b                   9.8985(19)
_cell_length_c                   22.111(4)
_cell_angle_alpha                90
_cell_angle_beta                 90
_cell_angle_gamma                90
_cell_volume                     1034.58
loop_
_atom_site_label
_atom_site_type_symbol
_atom_site_fract_x
_atom_site_fract_y
_atom_site_fract_z
Ag1 Ag 0.69697(5) 0.77282(2) 0.221437(9)
F1 F 1.2677(9) 0.4768(2) 0.41285(11)
F2 F 1.4555(4) 0.6608(2) 0.38324(8)
F3 F 1.0662(5) 0.6657(3) 0.43093(8)
O1 O 1.0224(5) 0.6981(2) 0.30389(9)
O2 O 0.9541(5) 0.4748(2) 0.31513(9)
N1 N 0.7588(5) 0.6501(2) 0.14020(9)
N2 N 0.5536(5) 0.4038(2) 0.21965(10)
H1 H 0.6569 0.4609 0.2439
H2 H 0.6807 0.3502 0.1992
C1 C 0.4043(6) 0.4874(3) 0.17452(11)
H3 H 0.3114 0.5641 0.1953
H4 H 0.2550 0.4325 0.1550
C2 C 0.6018(6) 0.5411(3) 0.12669(11)
C3 C 0.6284(6) 0.4758(3) 0.07118(12)
H5 H 0.5134 0.3998 0.0621
C4 C 0.8226(7) 0.5222(3) 0.02949(11)
H6 H 0.8426 0.4788 -0.0086
C5 C 0.9879(6) 0.6330(3) 0.04406(12)
H7 H 1.1245 0.6664 0.0163
C6 C 0.9507(6) 0.6943(3) 0.09967(12)
H8 H 1.0643 0.7702 0.1097
C7 C 1.0439(6) 0.5880(3) 0.32908(12)
C8 C 1.2121(9) 0.5962(3) 0.38907(13)
Ag1B Ag 0.30303(5) 0.27282(2) 0.278563(9)
N2B N 0.4464(5) 0.9038(2) 0.28035(10)
H1B H 0.3431 0.9609 0.2561
H2B H 0.3193 0.8502 0.3008
loop_
_geom_bond_atom_site_label_1
_geom_bond_atom_site_label_2
_geom_bond_site_symmetry_1
_geom_bond_site_symmetry_2
Ag1 O1 1_555 1_555
F1 C8 1_555 1_555
F2 C8 1_555 1_555
F3 C8 1_555 1_555
O1 C7 1_555 1_555
O2 C7 1_555 1_555
N1 Ag1 1_555 1_555
N2 H1 1_555 1_555
H2 N2 1_555 1_555
C1 N2 1_555 1_555
H3 C1 1_555 1_555
H4 C1 1_555 1_555
C2 N1 1_555 1_555
C3 C2 1_555 1_555
H5 C3 1_555 1_555
C4 C3 1_555 1_555
H6 C4 1_555 1_555
C5 C4 1_555 1_555
H7 C5 1_555 1_555
C6 N1 1_555 1_555
H8 C6 1_555 1_555
C7 C8 1_555 1_555
Ag1B N2 1_555 1_555
N2B Ag1 1_555 1_555
H1B N2B 1_555 1_555
H2B N2B 1_555 1_555
C1 C2 1_555 1_555
C5 C6 1_555 1_555

#END
