
#######################################################################
#
#                 Cambridge Crystallographic Data Centre
#                                CCDC 
#
#######################################################################
#
# If this CIF has been generated from an entry in the Cambridge 
# Structural Database, then it will include bibliographic, chemical, 
# crystal, experimental, refinement or atomic coordinate data resulting 
# from the CCDC's data processing and validation procedures.
#
#######################################################################

data_WAVCAX
_symmetry_cell_setting           monoclinic
_symmetry_space_group_name_H-M   'C 2/c'
_symmetry_Int_Tables_number      15
_space_group_name_Hall           '-C 2yn'
loop_
_symmetry_equiv_pos_site_id
_symmetry_equiv_pos_as_xyz
1 x,y,z
2 1/2+x,1/2+y,z
3 -x,y,1/2-z
4 1/2-x,1/2+y,1/2-z
5 -x,-y,-z
6 1/2-x,1/2-y,-z
7 x,-y,1/2+z
8 1/2+x,1/2-y,1/2+z
_cell_length_a                   21.671(2)
_cell_length_b                   7.6023(7)
_cell_length_c                   9.1452(9)
_cell_angle_alpha                90
_cell_angle_beta                 108.849(7)
_cell_angle_gamma                90
_cell_volume                     1425.87
loop_
_atom_site_label
_atom_site_type_symbol
_atom_site_fract_x
_atom_site_fract_y
_atom_site_fract_z
Mn1 Mn 0.521960(14) 0.29604(4) -0.04047(4)
O1 O 0.56976(9) -0.1992(2) 0.0256(2)
O2 O 0.5000 0.0961(3) -0.2500
O3 O 0.57264(8) 0.0795(2) 0.1031(2)
O4 O 0.90411(8) 0.1129(2) 0.1288(2)
O5 O 0.04396(7) -0.0192(2) -0.8514(2)
C1 C 0.59488(10) -0.0495(3) 0.0456(2)
C2 C 0.34318(11) -0.0206(3) -0.5058(3)
H1 H 0.34232(11) -0.1008(3) -0.4240(3)
H2 H 0.34265(11) 0.0986(3) -0.4683(3)
C3 C 0.28278(11) -0.0506(3) -0.6471(3)
H3 H 0.28233(11) -0.1718(3) -0.6806(3)
H4 H 0.28529(11) 0.0245(3) -0.7307(3)
C4 C 0.21967(11) -0.0123(3) -0.6139(3)
H5 H 0.21795(11) -0.0843(3) -0.5278(3)
H6 H 0.21948(11) 0.1100(3) -0.5838(3)
C5 C 0.15935(11) -0.0482(3) -0.7525(3)
H7 H 0.15567(11) -0.1743(3) -0.7694(3)
H8 H 0.16583(11) 0.0045(3) -0.8430(3)
C6 C 0.09575(10) 0.0184(3) -0.7400(3)
H9 H 0.4715(17) 0.0221(47) -0.2232(48)
Mn1D Mn 0.478040(14) -0.29604(4) 0.04047(4)
O1D O 0.43024(9) 0.1992(2) -0.0256(2)
Mn1B Mn 0.478040(14) 0.29604(4) -0.45953(4)
O1F O 0.56976(9) 0.1992(2) -0.4744(2)
Mn1F Mn 0.521960(14) -0.29604(4) -0.54047(4)
O1B O 0.43024(9) -0.1992(2) -0.5256(2)
C1B C 0.40512(10) -0.0495(3) -0.5456(2)
O3B O 0.42736(8) 0.0795(2) -0.6031(2)
O4G O 0.40411(8) 0.3871(2) -0.3712(2)
O5E O 0.45604(7) 0.5192(2) -0.1486(2)
Mn1D_2 Mn 0.478040(14) 0.70396(4) 0.04047(4)
O5G O 0.54396(7) 0.5192(2) -0.3514(2)
Mn1F_2 Mn 0.521960(14) 0.70396(4) -0.54047(4)
O5C O 0.45604(7) 0.4808(2) -0.6486(2)
H9B H 0.5285(17) 0.0221(47) -0.2768(48)
C2B C 0.65682(11) -0.0206(3) 0.0058(3)
Mn1E Mn -0.021960(14) 0.20396(4) -0.95953(4)
Mn1E_2 Mn 0.978040(14) 0.20396(4) 0.04047(4)
Mn1G Mn 1.021960(14) 0.20396(4) 0.45953(4)
Mn1G_2 Mn 0.021960(14) 0.20396(4) -0.54047(4)
H1B H 0.65768(11) -0.1008(3) -0.0760(3)
H2B H 0.65735(11) 0.0986(3) -0.0317(3)
C3B C 0.71722(11) -0.0506(3) 0.1471(3)
O5A O 0.54396(7) 0.4808(2) 0.1486(2)
O4E O 0.59589(8) 0.3871(2) -0.1288(2)
O5B O 0.95604(7) -0.0192(2) 0.3514(2)
O4B O 0.09589(8) 0.1129(2) -0.6288(2)
H3B H 0.71767(11) -0.1718(3) 0.1806(3)
H4B H 0.71471(11) 0.0245(3) 0.2307(3)
C4B C 0.78033(11) -0.0123(3) 0.1139(3)
Mn1A Mn 0.021960(14) -0.20396(4) -1.04047(4)
C6B C 0.90425(10) 0.0184(3) 0.2400(3)
Mn1C Mn 0.978040(14) -0.20396(4) 0.54047(4)
H5B H 0.78205(11) -0.0843(3) 0.0278(3)
H6B H 0.78052(11) 0.1100(3) 0.0838(3)
C5B C 0.84065(11) -0.0482(3) 0.2525(3)
H7B H 0.84433(11) -0.1743(3) 0.2694(3)
H8B H 0.83417(11) 0.0045(3) 0.3430(3)
loop_
_geom_bond_atom_site_label_1
_geom_bond_atom_site_label_2
_geom_bond_site_symmetry_1
_geom_bond_site_symmetry_2
Mn1 O2 1_555 1_555
O1 C1 1_555 1_555
O2 H9 1_555 1_555
O3 Mn1 1_555 1_555
O4 Mn1E_2 1_555 1_555
O5 C6 1_555 1_555
C1 O3 1_555 1_555
C2 H1 1_555 1_555
H2 C2 1_555 1_555
C3 C2 1_555 1_555
H3 C3 1_555 1_555
H4 C3 1_555 1_555
C4 C3 1_555 1_555
H5 C4 1_555 1_555
H6 C4 1_555 1_555
C5 C4 1_555 1_555
H7 C5 1_555 1_555
H8 C5 1_555 1_555
C6 C5 1_555 1_555
Mn1D O1 1_555 1_555
O1D Mn1 1_555 1_555
Mn1B O2 1_555 1_555
O1F Mn1B 1_555 1_555
Mn1F O1B 1_555 1_555
O1B C1B 1_555 1_555
C1B C2 1_555 1_555
O3B Mn1B 1_555 1_555
O4G Mn1B 1_555 1_555
O5E Mn1 1_555 1_555
Mn1D_2 O5E 1_555 1_555
O5G Mn1B 1_555 1_555
Mn1F_2 O5G 1_555 1_555
O5C Mn1B 1_555 1_555
H9B O2 1_555 1_555
C2B C1 1_555 1_555
Mn1E O5 1_555 1_555
Mn1G O5B 1_555 1_555
Mn1G_2 O4B 1_555 1_555
H1B C2B 1_555 1_555
H2B C2B 1_555 1_555
C3B C2B 1_555 1_555
O5A Mn1 1_555 1_555
O4E Mn1 1_555 1_555
O5B C6B 1_555 1_555
O4B C6 1_555 1_555
H3B C3B 1_555 1_555
H4B C3B 1_555 1_555
C4B C3B 1_555 1_555
Mn1A O5 1_555 1_555
C6B O4 1_555 1_555
Mn1C O5B 1_555 1_555
H5B C4B 1_555 1_555
H6B C4B 1_555 1_555
C5B C4B 1_555 1_555
H7B C5B 1_555 1_555
H8B C5B 1_555 1_555
C1B O3B 1_555 1_555
Mn1D_2 O5A 1_555 1_555
Mn1F_2 O5C 1_555 1_555
C6B C5B 1_555 1_555

#END
