
#######################################################################
#
#                 Cambridge Crystallographic Data Centre
#                                CCDC 
#
#######################################################################
#
# If this CIF has been generated from an entry in the Cambridge 
# Structural Database, then it will include bibliographic, chemical, 
# crystal, experimental, refinement or atomic coordinate data resulting 
# from the CCDC's data processing and validation procedures.
#
#######################################################################

data_WAVDUT
_symmetry_cell_setting           orthorhombic
_symmetry_space_group_name_H-M   'P n a 21'
_symmetry_Int_Tables_number      33
_space_group_name_Hall           'P 2c -2n'
loop_
_symmetry_equiv_pos_site_id
_symmetry_equiv_pos_as_xyz
1 x,y,z
2 -x,-y,1/2+z
3 1/2+x,1/2-y,z
4 1/2-x,1/2+y,1/2+z
_cell_length_a                   10.245(2)
_cell_length_b                   12.447(3)
_cell_length_c                   5.1538(11)
_cell_angle_alpha                90
_cell_angle_beta                 90
_cell_angle_gamma                90
_cell_volume                     657.21
loop_
_atom_site_label
_atom_site_type_symbol
_atom_site_fract_x
_atom_site_fract_y
_atom_site_fract_z
Zn1 Zn 0.10318(9) 0.11325(6) 0.1517(4)
P1 P 0.1777(2) -0.01417(14) -0.3479(9)
O1 O 0.1869(8) 0.0017(6) -0.0562(16)
C1 C 0.3382(10) -0.0557(7) -0.463(2)
H1 H 0.3401 -0.0576 -0.6534
O2 O 0.1477(8) 0.0907(6) -0.4877(15)
C2 C 0.3778(8) -0.1661(6) -0.350(5)
O3 O 0.0858(7) -0.1059(5) -0.4141(16)
O4 O 0.4276(7) 0.0235(5) -0.367(4)
H2 H 0.4549 0.0599 -0.4879
O5 O 0.3377(9) -0.2479(6) -0.4701(17)
O6 O 0.4422(13) -0.1725(8) -0.151(3)
Zn1_2 Zn 0.10318(9) 0.11325(6) -0.8483(4)
Zn1A Zn -0.10318(9) -0.11325(6) -0.3483(4)
Zn1C Zn 0.39682(9) -0.38675(6) -0.3483(4)
O2_2 O 0.1477(8) 0.0907(6) 0.5123(15)
O3A O -0.0858(7) 0.1059(5) 0.0859(16)
O5C O 0.1623(9) 0.2521(6) 0.0299(17)
N1 N 0.3554(9) 0.2638(7) -0.372(4)
H3 H 0.431(6) 0.226(6) -0.454(18)
H4 H 0.296(6) 0.209(4) -0.292(13)
H5 H 0.306(8) 0.305(7) -0.508(15)
H6 H 0.387(7) 0.314(5) -0.236(11)
loop_
_geom_bond_atom_site_label_1
_geom_bond_atom_site_label_2
_geom_bond_site_symmetry_1
_geom_bond_site_symmetry_2
Zn1 O1 1_555 1_555
P1 O1 1_555 1_555
C1 P1 1_555 1_555
H1 C1 1_555 1_555
O2 P1 1_555 1_555
C2 C1 1_555 1_555
O3 P1 1_555 1_555
O4 C1 1_555 1_555
H2 O4 1_555 1_555
O5 C2 1_555 1_555
O6 C2 1_555 1_555
N1 H3 1_555 1_555
H4 N1 1_555 1_555
H5 N1 1_555 1_555
H6 N1 1_555 1_555
Zn1_2 O2 1_555 1_555
Zn1A O3 1_555 1_555
Zn1C O5 1_555 1_555
O2_2 Zn1 1_555 1_555
O3A Zn1 1_555 1_555
O5C Zn1 1_555 1_555

#END
