
#######################################################################
#
#                 Cambridge Crystallographic Data Centre
#                                CCDC 
#
#######################################################################
#
# If this CIF has been generated from an entry in the Cambridge 
# Structural Database, then it will include bibliographic, chemical, 
# crystal, experimental, refinement or atomic coordinate data resulting 
# from the CCDC's data processing and validation procedures.
#
#######################################################################

data_WAVFIJ
_symmetry_cell_setting           triclinic
_symmetry_space_group_name_H-M   'P -1'
_symmetry_Int_Tables_number      2
_space_group_name_Hall           '-P 1'
loop_
_symmetry_equiv_pos_site_id
_symmetry_equiv_pos_as_xyz
1 x,y,z
2 -x,-y,-z
_cell_length_a                   5.236(5)
_cell_length_b                   6.419(6)
_cell_length_c                   8.760(8)
_cell_angle_alpha                102.752(12)
_cell_angle_beta                 90.290(10)
_cell_angle_gamma                94.551(13)
_cell_volume                     286.178
loop_
_atom_site_label
_atom_site_type_symbol
_atom_site_fract_x
_atom_site_fract_y
_atom_site_fract_z
Mn1 Mn 0.0000 0.0000 0.0000
N1 N -0.1439(2) -0.36476(19) 0.35709(14)
N2 N -0.3323(3) -0.2321(2) 0.40645(15)
N3 N -0.1211(2) -0.13776(19) 0.20543(13)
N4 N -0.2852(2) 0.2409(2) 0.05175(16)
N5 N -0.4948(2) 0.24017(17) 0.09783(13)
N6 N -0.7046(2) 0.2431(2) 0.14529(15)
C1 C -0.3116(3) -0.0994(2) 0.31114(17)
H1 H -0.4178 0.0112 0.3156
C2 C -0.0214(3) -0.3071(2) 0.23860(16)
H2 H 0.1139 -0.3751 0.1866
C3 C -0.0952(3) -0.5397(2) 0.43215(16)
H3 H -0.0272 -0.6551 0.3565
H4 H -0.2544 -0.5953 0.4702
Mn1_2 Mn -1.0000 0.0000 0.0000
Mn1_3 Mn 0.0000 -1.0000 1.0000
Mn1_4 Mn 1.0000 0.0000 0.0000
N1A N 0.1439(2) -0.63524(19) 0.64291(14)
N2A N 0.3323(3) -0.7679(2) 0.59355(15)
N3A N 0.1211(2) -0.86224(19) 0.79457(13)
N3A_2 N 0.1211(2) 0.13776(19) -0.20543(13)
N4A N 0.2852(2) -0.2409(2) -0.05175(16)
N5A N 0.4948(2) -0.24017(17) -0.09783(13)
N6A N 0.7046(2) -0.2431(2) -0.14529(15)
N6_2 N 0.2954(2) 0.2431(2) 0.14529(15)
N6A_2 N -0.2954(2) -0.2431(2) -0.14529(15)
C1A C 0.3116(3) -0.9006(2) 0.68886(17)
H1A H 0.4178 -1.0112 0.6844
C2A C 0.0214(3) -0.6929(2) 0.76140(16)
H2A H -0.1139 -0.6249 0.8134
C3A C 0.0952(3) -0.4603(2) 0.56785(16)
H3A H 0.0272 -0.3449 0.6435
H4A H 0.2544 -0.4047 0.5298
loop_
_geom_bond_atom_site_label_1
_geom_bond_atom_site_label_2
_geom_bond_site_symmetry_1
_geom_bond_site_symmetry_2
Mn1 N3 1_555 1_555
N1 N2 1_555 1_555
N2 C1 1_555 1_555
N3 C1 1_555 1_555
N4 Mn1 1_555 1_555
N5 N4 1_555 1_555
N6 N5 1_555 1_555
C1 H1 1_555 1_555
C2 N1 1_555 1_555
H2 C2 1_555 1_555
C3 N1 1_555 1_555
H3 C3 1_555 1_555
H4 C3 1_555 1_555
Mn1_2 N6 1_555 1_555
Mn1_3 N3A 1_555 1_555
Mn1_4 N6A 1_555 1_555
N1A N2A 1_555 1_555
N2A C1A 1_555 1_555
N3A C1A 1_555 1_555
N3A_2 Mn1 1_555 1_555
N4A Mn1 1_555 1_555
N5A N4A 1_555 1_555
N6A N5A 1_555 1_555
N6_2 Mn1 1_555 1_555
N6A_2 Mn1 1_555 1_555
C1A H1A 1_555 1_555
C2A N1A 1_555 1_555
H2A C2A 1_555 1_555
C3A C3 1_555 1_555
H3A C3A 1_555 1_555
H4A C3A 1_555 1_555
N3 C2 1_555 1_555
N1A C3A 1_555 1_555
N3A C2A 1_555 1_555

#END
