
#######################################################################
#
#                 Cambridge Crystallographic Data Centre
#                                CCDC 
#
#######################################################################
#
# If this CIF has been generated from an entry in the Cambridge 
# Structural Database, then it will include bibliographic, chemical, 
# crystal, experimental, refinement or atomic coordinate data resulting 
# from the CCDC's data processing and validation procedures.
#
#######################################################################

data_WAVFAB
_symmetry_cell_setting           triclinic
_symmetry_space_group_name_H-M   'P -1'
_symmetry_Int_Tables_number      2
_space_group_name_Hall           '-P 1'
loop_
_symmetry_equiv_pos_site_id
_symmetry_equiv_pos_as_xyz
1 x,y,z
2 -x,-y,-z
_cell_length_a                   5.691(3)
_cell_length_b                   6.432(4)
_cell_length_c                   8.840(5)
_cell_angle_alpha                102.608(12)
_cell_angle_beta                 100.220(9)
_cell_angle_gamma                94.753(10)
_cell_volume                     308.27
loop_
_atom_site_label
_atom_site_type_symbol
_atom_site_fract_x
_atom_site_fract_y
_atom_site_fract_z
Co1 Co 0.0000 0.0000 1.0000
S1 S 0.31990(10) 0.34193(9) 1.13717(7)
N1 N -0.0220(3) 0.2807(3) 0.6046(2)
N2 N -0.2496(4) 0.1757(3) 0.5602(2)
N3 N -0.0662(3) 0.1218(3) 0.7926(2)
N4 N 0.7452(3) 0.1720(3) 1.0890(2)
C1 C -0.2674(4) 0.0842(4) 0.6777(3)
H1 H -0.4066 0.0006 0.6816
C2 C 0.0838(4) 0.2472(4) 0.7419(3)
H2 H 0.2399 0.3034 0.7949
C3 C 0.0710(5) 0.4072(4) 0.5047(3)
H3 H 0.0592 0.3174 0.3994
H4 H 0.2392 0.4606 0.5484
C4 C 0.5692(4) 0.2420(3) 1.1087(2)
Co1_2 Co 1.0000 0.0000 1.0000
Co1_3 Co 0.0000 1.0000 0.0000
Co1_4 Co -1.0000 0.0000 1.0000
S1A S -0.31990(10) -0.34193(9) 0.86283(7)
N1A N 0.0220(3) 0.7193(3) 0.3954(2)
N2A N 0.2496(4) 0.8243(3) 0.4398(2)
N3A N 0.0662(3) 0.8782(3) 0.2074(2)
N3A_2 N 0.0662(3) -0.1218(3) 1.2074(2)
N4A N -0.7452(3) -0.1720(3) 0.9110(2)
N4_2 N -0.2548(3) 0.1720(3) 1.0890(2)
N4A_2 N 0.2548(3) -0.1720(3) 0.9110(2)
C1A C 0.2674(4) 0.9158(4) 0.3223(3)
H1A H 0.4066 0.9994 0.3184
C2A C -0.0838(4) 0.7528(4) 0.2581(3)
H2A H -0.2399 0.6966 0.2051
C3A C -0.0710(5) 0.5928(4) 0.4953(3)
H3A H -0.0592 0.6826 0.6006
H4A H -0.2392 0.5394 0.4516
C4A C -0.5692(4) -0.2420(3) 0.8913(2)
loop_
_geom_bond_atom_site_label_1
_geom_bond_atom_site_label_2
_geom_bond_site_symmetry_1
_geom_bond_site_symmetry_2
Co1 S1 1_555 1_555
S1 C4 1_555 1_555
N1 N2 1_555 1_555
N2 C1 1_555 1_555
N3 Co1 1_555 1_555
N4 C4 1_555 1_555
C1 N3 1_555 1_555
H1 C1 1_555 1_555
C2 N1 1_555 1_555
H2 C2 1_555 1_555
C3 N1 1_555 1_555
H3 C3 1_555 1_555
H4 C3 1_555 1_555
Co1_2 N4 1_555 1_555
Co1_3 N3A 1_555 1_555
Co1_4 N4A 1_555 1_555
S1A Co1 1_555 1_555
N1A N2A 1_555 1_555
N2A C1A 1_555 1_555
N3A C1A 1_555 1_555
N3A_2 Co1 1_555 1_555
N4A C4A 1_555 1_555
N4_2 Co1 1_555 1_555
N4A_2 Co1 1_555 1_555
C1A H1A 1_555 1_555
C2A N1A 1_555 1_555
H2A C2A 1_555 1_555
C3A C3 1_555 1_555
H3A C3A 1_555 1_555
H4A C3A 1_555 1_555
C4A S1A 1_555 1_555
N3 C2 1_555 1_555
N1A C3A 1_555 1_555
N3A C2A 1_555 1_555

#END
