
#######################################################################
#
#                 Cambridge Crystallographic Data Centre
#                                CCDC 
#
#######################################################################
#
# If this CIF has been generated from an entry in the Cambridge 
# Structural Database, then it will include bibliographic, chemical, 
# crystal, experimental, refinement or atomic coordinate data resulting 
# from the CCDC's data processing and validation procedures.
#
#######################################################################

data_WAVFOP
_symmetry_cell_setting           monoclinic
_symmetry_space_group_name_H-M   'P 21/c'
_symmetry_Int_Tables_number      14
_space_group_name_Hall           '-P 2ybc'
loop_
_symmetry_equiv_pos_site_id
_symmetry_equiv_pos_as_xyz
1 x,y,z
2 -x,1/2+y,1/2-z
3 -x,-y,-z
4 x,1/2-y,1/2+z
_cell_length_a                   6.2135(15)
_cell_length_b                   18.984(5)
_cell_length_c                   10.382(3)
_cell_angle_alpha                90
_cell_angle_beta                 89.624(5)
_cell_angle_gamma                90
_cell_volume                     1224.6
loop_
_atom_site_label
_atom_site_type_symbol
_atom_site_fract_x
_atom_site_fract_y
_atom_site_fract_z
Mn1 Mn 0.25449(8) 0.03570(3) 0.44569(5)
N1 N 0.6332(5) 0.10995(16) 0.1208(3)
N2 N 0.4085(5) 0.05813(15) 0.2562(3)
N3 N 0.9306(5) 0.25959(16) -0.0311(3)
N4 N 1.1420(5) 0.35137(16) -0.0627(3)
N5 N 0.0455(5) 0.01679(16) 0.6245(3)
N6 N 0.0791(5) 0.03787(16) 0.7313(3)
N7 N 0.1124(6) 0.0562(2) 0.8349(4)
N8 N 0.5460(5) 0.06629(16) 0.5558(3)
N9 N 0.5479(5) 0.10753(17) 0.6439(3)
N10 N 0.5540(7) 0.1482(2) 0.7266(4)
C1 C 0.5950(6) 0.09111(19) 0.2435(3)
H1 H 0.6882 0.1001 0.3113
C2 C 0.3254(6) 0.0561(2) 0.1331(4)
H2 H 0.1948 0.0356 0.1110
C3 C 0.4611(6) 0.0880(2) 0.0495(4)
H3 H 0.4417 0.0939 -0.0386
C4 C 0.9777(6) 0.32599(19) 0.0024(4)
H4 H 0.9023 0.3513 0.0648
C5 C 1.2035(7) 0.2968(2) -0.1433(4)
H5 H 1.3170 0.2988 -0.2021
C6 C 1.0760(8) 0.2403(2) -0.1248(4)
H6 H 1.0847 0.1971 -0.1668
C7 C 0.8202(6) 0.1486(2) 0.0721(4)
H7 H 0.8921 0.1213 0.0057
H8 H 0.9212 0.1566 0.1414
C8 C 0.7477(6) 0.2184(2) 0.0172(4)
H9 H 0.6476 0.2100 -0.0524
H10 H 0.6730 0.2450 0.0836
Mn1C Mn 1.25449(8) 0.46430(3) -0.05431(5)
Mn1B Mn -0.25449(8) -0.03570(3) 0.55431(5)
Mn1B_2 Mn 0.74551(8) -0.03570(3) 0.55431(5)
N4C N 0.1420(5) 0.14863(16) 0.4373(3)
N5B N -0.0455(5) -0.01679(16) 0.3755(3)
N8B N 0.4540(5) -0.06629(16) 0.4442(3)
loop_
_geom_bond_atom_site_label_1
_geom_bond_atom_site_label_2
_geom_bond_site_symmetry_1
_geom_bond_site_symmetry_2
Mn1 N2 1_555 1_555
N1 C1 1_555 1_555
N2 C1 1_555 1_555
N3 C4 1_555 1_555
N4 C4 1_555 1_555
N5 Mn1 1_555 1_555
N6 N5 1_555 1_555
N7 N6 1_555 1_555
N8 Mn1 1_555 1_555
N9 N8 1_555 1_555
N10 N9 1_555 1_555
C1 H1 1_555 1_555
C2 N2 1_555 1_555
H2 C2 1_555 1_555
C3 N1 1_555 1_555
H3 C3 1_555 1_555
C4 H4 1_555 1_555
C5 N4 1_555 1_555
H5 C5 1_555 1_555
C6 N3 1_555 1_555
H6 C6 1_555 1_555
C7 N1 1_555 1_555
H7 C7 1_555 1_555
H8 C7 1_555 1_555
C8 N3 1_555 1_555
H9 C8 1_555 1_555
H10 C8 1_555 1_555
Mn1C N4 1_555 1_555
Mn1B N5 1_555 1_555
Mn1B_2 N8 1_555 1_555
N4C Mn1 1_555 1_555
N5B Mn1 1_555 1_555
N8B Mn1 1_555 1_555
C2 C3 1_555 1_555
C5 C6 1_555 1_555
C7 C8 1_555 1_555
Mn1B N5B 1_555 1_555
Mn1B_2 N8B 1_555 1_555

#END
