
#######################################################################
#
#                 Cambridge Crystallographic Data Centre
#                                CCDC 
#
#######################################################################
#
# If this CIF has been generated from an entry in the Cambridge 
# Structural Database, then it will include bibliographic, chemical, 
# crystal, experimental, refinement or atomic coordinate data resulting 
# from the CCDC's data processing and validation procedures.
#
#######################################################################

data_WAVHUY
_symmetry_cell_setting           monoclinic
_symmetry_space_group_name_H-M   'P 21/m'
_symmetry_Int_Tables_number      11
_space_group_name_Hall           '-P 2yb'
loop_
_symmetry_equiv_pos_site_id
_symmetry_equiv_pos_as_xyz
1 x,y,z
2 -x,1/2+y,-z
3 -x,-y,-z
4 x,1/2-y,z
_cell_length_a                   20.046(3)
_cell_length_b                   36.868(6)
_cell_length_c                   26.981(4)
_cell_angle_alpha                90
_cell_angle_beta                 97.142(4)
_cell_angle_gamma                90
_cell_volume                     19785.8
loop_
_atom_site_label
_atom_site_type_symbol
_atom_site_fract_x
_atom_site_fract_y
_atom_site_fract_z
Cl2 Cl 0.4282(2) 0.37065(10) 0.13438(15)
O4 O 0.4277(8) 0.3413(3) 0.1024(7)
O5 O 0.4928(9) 0.3683(4) 0.1633(7)
O6 O 0.4185(9) 0.4037(3) 0.1108(5)
O7 O 0.3812(11) 0.3661(5) 0.1667(8)
Cl3 Cl 0.6979(3) 0.49219(13) 0.08729(17)
O8 O 0.6507(11) 0.4753(6) 0.0520(6)
O9 O 0.6598(9) 0.5182(4) 0.1130(7)
O10 O 0.7449(9) 0.5088(4) 0.0604(5)
O11 O 0.7277(7) 0.4696(4) 0.1241(5)
Cl4 Cl 0.2851(5) 0.2500 0.3787(3)
O12 O 0.2390(12) 0.2500 0.4062(9)
O13 O 0.3149(16) 0.2826(6) 0.3893(12)
O14 O 0.278(2) 0.2500 0.3375(14)
O13C O 0.3149(16) 0.2174(6) 0.3893(12)
Cl5 Cl -0.0713(4) 0.2500 0.1305(4)
O15 O -0.1361(19) 0.2500 0.1236(13)
O16 O -0.0211(16) 0.2500 0.1110(14)
O17 O -0.0635(15) 0.2855(7) 0.1579(10)
O17C O -0.0635(15) 0.2145(7) 0.1579(10)
Cl6 Cl 0.4347(4) 0.45484(17) 0.5277(2)
O18 O 0.476(2) 0.4474(10) 0.5687(15)
O19 O 0.4577(9) 0.4449(4) 0.4832(5)
O20 O 0.4093(17) 0.4899(7) 0.5178(12)
O21 O 0.3802(16) 0.4347(10) 0.5340(10)
Cl7 Cl 0.2634(3) 0.64335(18) 0.0130(3)
O22 O 0.2585(12) 0.6273(6) -0.0383(9)
O23 O 0.3215(12) 0.6698(6) 0.0252(8)
O24 O 0.2618(12) 0.6171(6) 0.0497(8)
O25 O 0.1948(16) 0.6678(8) 0.0168(11)
Cl8 Cl 0.1075(4) 0.4338(2) -0.5463(3)
O26 O 0.1537(6) 0.4561(4) -0.5723(6)
O27 O 0.0693(8) 0.4128(4) -0.5826(5)
O28 O 0.0655(7) 0.4604(4) -0.5246(6)
O29 O 0.1449(8) 0.4128(4) -0.5088(5)
Cl9 Cl 0.9531(4) 0.4807(3) 0.7658(3)
O30 O 0.9114(6) 0.4857(4) 0.8031(4)
O31 O 0.9560(12) 0.5134(3) 0.7363(6)
O32 O 0.9330(11) 0.4508(4) 0.7333(6)
O33 O 1.0217(6) 0.4734(7) 0.7892(8)
Cl10 Cl 1.1186(5) 0.3712(2) 0.7548(4)
O34 O 1.112(2) 0.3327(4) 0.7386(12)
O35 O 1.1737(15) 0.3689(10) 0.8045(10)
O36 O 1.0577(9) 0.3946(6) 0.7528(9)
O37 O 1.1638(14) 0.3872(7) 0.7087(10)
Cl11 Cl 0.5141(5) 0.4074(3) -0.0927(4)
O38 O 0.5740(16) 0.4262(8) -0.0653(11)
O39 O 0.4647(11) 0.4401(7) -0.1094(8)
O40 O 0.4838(12) 0.3806(5) -0.0612(7)
O41 O 0.5399(16) 0.3842(7) -0.1308(10)
Cl12 Cl 0.0269(5) 0.6392(3) -0.2816(4)
O42 O -0.0152(13) 0.6432(6) -0.3361(9)
O43 O 0.0720(12) 0.6126(6) -0.2860(8)
O44 O -0.0237(14) 0.6157(7) -0.2410(10)
O45 O -0.001(2) 0.6527(12) -0.2321(17)
Dy1 Dy 0.36290(5) 0.2500 0.20322(4)
Dy2 Dy 0.48208(4) 0.300767(16) 0.29579(3)
Dy3 Dy 0.27857(5) 0.2500 0.07764(4)
Dy4 Dy 0.19262(4) 0.302012(17) 0.17160(3)
Dy5 Dy 0.58687(4) 0.380055(17) 0.31508(3)
Dy6 Dy 0.52790(4) 0.339916(17) 0.43017(3)
Dy7 Dy 0.21279(4) 0.381549(17) 0.27567(3)
Dy8 Dy 0.51980(5) 0.2500 0.51407(4)
Dy9 Dy 0.40578(4) 0.392360(17) 0.33550(3)
Dy10 Dy 0.17021(4) 0.409474(17) 0.14833(3)
Dy11 Dy 0.08039(4) 0.472098(18) 0.04472(3)
Dy12 Dy 0.39055(5) 0.2500 -0.02549(4)
Dy13 Dy 0.29499(4) 0.462028(17) 0.24321(3)
Dy14 Dy 0.67149(4) 0.302846(18) 0.53456(3)
Dy15 Dy 0.83746(6) 0.2500 0.55547(4)
Dy16 Dy 0.24879(4) 0.315209(18) -0.02471(3)
Dy17 Dy 0.26085(4) 0.495167(17) 0.10723(3)
Dy18 Dy 0.75912(4) 0.40065(2) 0.37020(3)
Dy19 Dy 0.60440(4) 0.466361(18) 0.25096(3)
Dy20 Dy 0.72301(4) 0.391002(19) 0.23139(3)
Dy21 Dy 0.24585(6) 0.2500 -0.13663(4)
Dy22 Dy 0.81786(4) 0.342494(19) 0.62273(3)
Dy23 Dy 0.29564(4) 0.564240(18) 0.21334(3)
Dy24 Dy 0.79289(4) 0.48258(2) 0.29009(3)
Co1 Co 0.53417(14) 0.2500 0.20043(10)
Co2 Co 0.21241(10) 0.42044(5) 0.03069(7)
Co3 Co 0.68224(11) 0.29584(5) 0.15008(8)
Co4 Co 0.41337(11) 0.50651(5) 0.18772(8)
Co5 Co 0.81715(11) 0.33579(5) 0.49837(8)
Co6 Co 0.57411(15) 0.2500 0.06362(11)
C1 C 0.6173(7) 0.3183(3) 0.2216(5)
C2 C 0.4693(8) 0.4495(4) 0.2653(5)
C3 C 0.4588(10) 0.2500 0.0962(7)
C4 C 0.2154(7) 0.3414(3) 0.0668(5)
C5 C 0.3168(7) 0.3299(3) 0.2620(5)
C6 C 0.6853(7) 0.3574(4) 0.4317(5)
C7 C 0.9351(18) 0.2662(8) 0.4044(12)
C8 C 0.9003(16) 0.2800(8) 0.4455(11)
C9 C 0.0565(10) 0.3043(6) -0.1182(7)
H1 H 0.0462 0.2801 -0.1321
H2 H 0.0595 0.3216 -0.1454
H3 H 0.0207 0.3119 -0.0988
C10 C 0.1185(9) 0.3034(4) -0.0868(6)
C11 C 0.0656(11) 0.4058(6) -0.1068(8)
H4 H 0.0256 0.4194 -0.1206
H5 H 0.0523 0.3817 -0.0965
H6 H 0.0962 0.4035 -0.1323
C12 C 0.1010(9) 0.4260(5) -0.0617(6)
C13 C 0.5233(10) 0.6031(5) 0.2474(8)
H7 H 0.5062 0.6253 0.2615
H8 H 0.5501 0.6095 0.2207
H9 H 0.5515 0.5899 0.2737
C14 C 0.4637(9) 0.5789(4) 0.2260(6)
C15 C 0.6591(9) 0.5599(4) 0.3486(6)
H10 H 0.6891 0.5546 0.3793
H11 H 0.6165 0.5696 0.3572
H12 H 0.6803 0.5777 0.3287
C16 C 0.6461(10) 0.5260(4) 0.3193(6)
C17 C 0.1089(9) 0.5953(4) 0.0989(7)
H13 H 0.0931 0.5864 0.0653
H14 H 0.1256 0.6202 0.0968
H15 H 0.0716 0.5950 0.1192
C18 C 0.1649(9) 0.5712(4) 0.1228(6)
C19 C 0.2004(12) 0.5324(5) 0.3629(7)
H16 H 0.1959 0.5087 0.3786
H17 H 0.1560 0.5438 0.3560
H18 H 0.2300 0.5479 0.3855
C20 C 0.2310(8) 0.5273(5) 0.3133(7)
C21 C 0.3559(11) 0.4491(5) 0.0259(8)
C22 C 0.4203(18) 0.4834(9) 0.0782(12)
C23 C 0.4208(18) 0.4464(8) 0.0050(12)
C24 C 0.465(3) 0.4628(13) 0.0416(19)
C25 C 0.6058(11) 0.3925(5) 0.6394(7)
H19 H 0.5608 0.3874 0.6222
H20 H 0.6214 0.4159 0.6280
H21 H 0.6041 0.3935 0.6755
C26 C 0.6557(9) 0.3618(4) 0.6275(6)
C27 C 0.9117(13) 0.4402(5) 0.5391(9)
H22 H 0.9192 0.4532 0.5710
H23 H 0.8796 0.4537 0.5157
H24 H 0.9543 0.4378 0.5251
C28 C 0.8830(9) 0.4020(4) 0.5476(6)
C29 C 0.7747(11) 0.5057(4) 0.4452(8)
H25 H 0.7482 0.5251 0.4275
H26 H 0.8222 0.5127 0.4501
H27 H 0.7590 0.5016 0.4777
C30 C 0.7668(9) 0.4729(5) 0.4161(8)
C31 C 0.3144(9) 0.3596(5) 0.4846(7)
H28 H 0.3338 0.3465 0.5146
H29 H 0.2784 0.3450 0.4665
H30 H 0.2961 0.3828 0.4944
C32 C 0.3686(8) 0.3665(4) 0.4513(6)
C33 C -0.1345(11) 0.4387(6) 0.0379(8)
H31 H -0.1345 0.4184 0.0613
H32 H -0.1610 0.4587 0.0492
H33 H -0.1543 0.4308 0.0046
C34 C -0.0643(9) 0.4510(4) 0.0359(6)
C35 C 0.0473(12) 0.2500 0.2802(8)
C36 C 0.0950(11) 0.2500 0.2370(7)
C37 C 0.858(2) 0.5235(12) 0.1612(17)
H34 H 0.8220 0.5267 0.1331
H35 H 0.8926 0.5076 0.1511
H36 H 0.8771 0.5472 0.1711
C38 C 0.831(3) 0.5086(13) 0.1999(18)
C39 C 0.8443(13) 0.2500 0.2609(10)
C40 C 0.7829(12) 0.2500 0.2219(8)
C41 C 0.5655(9) 0.3701(4) 0.0449(6)
H37 H 0.5916 0.3894 0.0632
H38 H 0.5175 0.3739 0.0469
H39 H 0.5736 0.3705 0.0098
C42 C 0.5864(11) 0.3342(4) 0.0673(7)
C43 C 0.4987(10) 0.2500 0.4057(8)
O46 O 0.4133(7) 0.2500 0.2849(5)
H40 H 0.3791 0.2500 0.3089
O47 O 0.2451(6) 0.2500 0.2150(5)
H41 H 0.2387 0.2500 0.2512
O48 O 0.4360(5) 0.3307(2) 0.3622(3)
H42 H 0.3973 0.3172 0.3733
O49 O 0.2534(5) 0.4295(2) 0.1019(3)
H43 H 0.2976 0.4170 0.1109
O50 O 0.5144(5) 0.3899(2) 0.3772(3)
H44 H 0.5262 0.4129 0.3960
O51 O 0.2713(5) 0.4021(2) 0.2082(3)
H45 H 0.3093 0.3872 0.1985
O52 O 0.7621(5) 0.2884(2) 0.5995(4)
H46 H 0.7459 0.2756 0.6284
O53 O 0.8725(5) 0.3124(2) 0.5637(3)
H47 H 0.9222 0.3163 0.5670
O54 O 0.3448(5) 0.4665(2) 0.1708(3)
H48 H 0.3641 0.4432 0.1599
O55 O 0.3003(4) 0.2902(2) 0.1462(3)
H49 H 0.3255 0.3126 0.1387
O56 O 0.3372(5) 0.2881(3) 0.0267(4)
H50 H 0.3681 0.3058 0.0459
O57 O 0.6296(6) 0.2500 0.4871(5)
H51 H 0.6323 0.2500 0.4503
O58 O 0.7662(5) 0.2873(2) 0.4975(3)
H52 H 0.7558 0.2764 0.4634
O59 O 0.7485(5) 0.3520(2) 0.5477(3)
H53 H 0.7290 0.3768 0.5424
O60 O 0.6695(7) 0.2500 0.1061(5)
H54 H 0.7044 0.2500 0.0827
O61 O 0.1909(5) 0.4770(2) 0.0315(3)
H55 H 0.1990 0.4905 0.0006
O62 O 0.7109(5) 0.4555(2) 0.2278(4)
H56 H 0.7150 0.4651 0.1937
O63 O 0.6091(4) 0.4036(2) 0.2373(3)
H57 H 0.5775 0.3949 0.2082
O64 O 0.2299(7) 0.2500 -0.0078(5)
H58 H 0.1809 0.2500 -0.0041
O65 O 0.1816(6) 0.2500 0.1203(4)
H59 H 0.1389 0.2500 0.0968
O66 O 0.5559(5) 0.3111(2) 0.5138(4)
H60 H 0.5367 0.3254 0.5401
O67 O 0.6225(7) 0.2500 0.5752(5)
H61 H 0.6194 0.2500 0.6119
O68 O 0.1489(5) 0.3603(2) 0.1992(3)
H62 H 0.0999 0.3586 0.2028
O69 O 0.5690(4) 0.3240(2) 0.3548(3)
H63 H 0.6098 0.3082 0.3596
O70 O 0.7994(5) 0.4182(2) 0.2970(3)
H64 H 0.8464 0.4095 0.2961
O71 O 0.3147(5) 0.2869(2) -0.0786(3)
H65 H 0.3398 0.3053 -0.0965
O72 O 0.4633(5) 0.2858(2) 0.2078(3)
H66 H 0.4614 0.3069 0.1844
O73 O 0.4760(4) 0.3644(2) 0.2821(3)
H67 H 0.4645 0.3712 0.2461
O74 O 0.1466(5) 0.4703(2) 0.1216(3)
H68 H 0.1262 0.4846 0.1473
O75 O 0.6612(5) 0.4335(2) 0.3230(4)
H69 H 0.6433 0.4467 0.3510
O76 O 0.1803(5) 0.4377(2) 0.2293(3)
H70 H 0.1422 0.4525 0.2389
O77 O 0.5492(7) 0.2500 0.2732(5)
H71 H 0.5973 0.2500 0.2884
O78 O 0.1211(4) 0.4135(2) 0.0633(3)
H72 H 0.0914 0.3930 0.0502
O79 O 0.3411(5) 0.5389(2) 0.1472(3)
H73 H 0.3589 0.5566 0.1240
O80 O 0.2437(5) 0.5079(2) 0.1914(4)
H74 H 0.1945 0.5091 0.1944
O81 O 0.2961(5) 0.4236(2) 0.3119(3)
H75 H 0.2808 0.4365 0.3411
O82 O 0.7007(4) 0.3648(2) 0.3075(3)
H76 H 0.7110 0.3383 0.3105
O83 O 0.3607(5) 0.5160(2) 0.2490(3)
H77 H 0.3883 0.5208 0.2817
O84 O 0.4282(5) 0.3521(3) 0.4662(4)
O85 O 0.2052(5) 0.3512(2) 0.1129(4)
O86 O 0.3641(5) 0.3093(2) 0.2515(3)
O87 O 0.1145(4) 0.2802(2) 0.2225(3)
O88 O 0.4778(5) 0.5489(2) 0.2074(4)
O89 O 0.5220(5) 0.4376(2) 0.2954(4)
O90 O 0.1635(5) 0.4134(2) -0.0417(3)
O91 O 0.6663(5) 0.3366(3) 0.2077(4)
O92 O 0.6901(6) 0.5092(3) 0.2987(4)
O93 O 0.6305(5) 0.3364(3) 0.5988(4)
O94 O 0.0677(5) 0.4463(3) -0.0371(3)
O95 O 0.7414(6) 0.4450(3) 0.4373(4)
O96 O 0.7506(6) 0.3575(3) 0.4369(4)
O97 O 0.3243(5) 0.3554(2) 0.2935(3)
O98 O 0.1754(6) 0.2901(3) -0.1000(4)
O99 O 0.3572(5) 0.3848(2) 0.4120(4)
O100 O 0.8712(6) 0.3833(3) 0.5041(4)
O101 O 0.8898(9) 0.2500 0.6454(6)
O102 O 0.7156(6) 0.3636(3) 0.6476(4)
O103 O 0.5840(6) 0.5141(3) 0.3126(4)
O104 O 0.3101(5) 0.4270(3) 0.0068(4)
O105 O 0.2467(6) 0.4952(3) 0.3032(4)
O106 O 0.2392(6) 0.5565(2) 0.2857(4)
O107 O -0.0136(6) 0.4357(3) 0.0620(4)
O108 O 0.1865(5) 0.5463(2) 0.0994(3)
O109 O 0.0522(5) 0.5233(2) -0.0062(3)
O110 O 0.3523(6) 0.4753(3) 0.0632(4)
O111 O 0.7849(5) 0.4691(3) 0.3729(4)
O112 O 0.8811(5) 0.3150(3) 0.4471(4)
O113 O 0.1899(6) 0.5831(3) 0.1662(4)
O114 O 0.9667(10) 0.2500 0.5712(7)
O115 O 0.8164(6) 0.4086(3) 0.1861(5)
O116 O 0.7600(5) 0.2795(3) 0.2058(4)
O117 O 0.5597(6) 0.3062(3) 0.0504(4)
O118 O 0.8538(6) 0.4746(5) 0.2194(5)
O119 O 0.8923(8) 0.2500 0.4790(6)
O120 O 0.4076(6) 0.5886(3) 0.2330(4)
O121 O 0.6328(5) 0.3346(2) 0.1042(3)
O122 O 0.4616(6) 0.4940(3) 0.1212(4)
O123 O 0.8708(6) 0.3918(3) 0.5888(4)
O124 O 0.2131(5) 0.3075(2) 0.0563(3)
O125 O 0.4831(5) 0.4717(2) 0.2312(4)
O126 O 0.5016(5) 0.2792(2) 0.4316(4)
O127 O 0.4036(7) 0.2500 0.1178(5)
O128 O 0.2529(5) 0.3265(2) 0.2406(3)
O129 O 0.5817(5) 0.3272(2) 0.2555(3)
O130 O 0.1239(6) 0.3195(3) -0.0456(4)
O131 O 0.6526(5) 0.3364(2) 0.4558(3)
O132 O 0.4102(5) 0.4379(2) 0.2705(3)
O133 O 0.5017(7) 0.2500 0.3607(5)
O134 O 0.6555(5) 0.3801(2) 0.3990(3)
O135 O 0.2269(5) 0.3636(3) 0.0342(4)
O136 O 0.6021(4) 0.2864(2) 0.1959(4)
O137 O 0.5158(7) 0.2500 0.1279(5)
O138 O 0.4642(7) 0.2500 0.0516(5)
O139 O 0.7687(6) 0.3142(3) 0.1156(4)
O140 O 0.9359(8) 0.3299(4) 0.6632(5)
O141 O 0.8150(10) 0.3098(3) 0.7019(5)
O142 O 0.8448(6) 0.3864(3) 0.6906(4)
O143 O 0.4171(5) 0.4497(2) 0.3786(4)
O144 O 0.5582(6) 0.3888(3) 0.4886(4)
O145 O 0.4936(11) 0.2500 0.6019(7)
O146 O 0.0488(6) 0.4113(3) 0.1531(4)
O147 O 0.3454(5) 0.3563(2) -0.0189(4)
O148 O 0.2873(6) 0.5393(3) 0.0411(4)
O149 O 0.2267(5) 0.3621(2) -0.0854(4)
O150 O 0.8706(6) 0.4102(3) 0.4139(4)
O151 O 0.0808(6) 0.3100(3) 0.1225(4)
O152 O 0.6023(6) 0.5234(3) 0.2046(4)
O153 O 0.6796(6) 0.3970(3) 0.1442(4)
O154 O 0.8296(6) 0.3471(3) 0.3560(4)
O155 O 0.4419(9) 0.2500 -0.1026(6)
O156 O 0.5757(5) 0.4554(3) 0.1606(4)
O157 O 0.8038(5) 0.3427(3) 0.2398(5)
O158 O 0.1554(9) 0.2500 -0.2041(6)
O159 O 0.2493(7) 0.3070(3) -0.1838(5)
O160 O 0.7923(7) 0.5262(3) 0.2237(5)
O161 O 0.2825(7) 0.6233(3) 0.2532(5)
O162 O 0.3498(10) 0.2500 -0.1739(7)
O163 O 0.2238(6) 0.3711(4) 0.3663(4)
O164 O 0.4212(6) 0.2880(3) 0.5192(5)
O165 O 0.8286(7) 0.5401(3) 0.3258(5)
O166 O 0.1264(7) 0.4139(4) 0.3143(6)
O167 O 0.9094(7) 0.4739(3) 0.3228(6)
O168 O 0.3165(7) 0.6181(3) 0.1555(5)
O169 O 0.4581(6) 0.3040(3) -0.0252(4)
O170 O 0.1382(7) 0.3318(3) 0.2992(5)
O171 O 0.0239(6) 0.5139(3) 0.0959(4)
O172 O 0.6119(10) 0.2500 -0.0039(7)
Dy2C Dy 0.48208(4) 0.199233(16) 0.29579(3)
Dy4C Dy 0.19262(4) 0.197988(17) 0.17160(3)
Dy14C Dy 0.67149(4) 0.197154(18) 0.53456(3)
Dy16C Dy 0.24879(4) 0.184791(18) -0.02471(3)
Co3C Co 0.68224(11) 0.20416(5) 0.15008(8)
C7C C 0.9351(18) 0.2338(8) 0.4044(12)
C8C C 0.9003(16) 0.2200(8) 0.4455(11)
C34B C 0.0643(9) 0.5490(4) -0.0359(6)
O52C O 0.7621(5) 0.2116(2) 0.5995(4)
O53C O 0.8725(5) 0.1876(2) 0.5637(3)
O55C O 0.3003(4) 0.2098(2) 0.1462(3)
O56C O 0.3372(5) 0.2119(3) 0.0267(4)
O58C O 0.7662(5) 0.2127(2) 0.4975(3)
O66C O 0.5559(5) 0.1889(2) 0.5138(4)
O71C O 0.3147(5) 0.2131(2) -0.0786(3)
O72C O 0.4633(5) 0.2142(2) 0.2078(3)
O86C O 0.3641(5) 0.1907(2) 0.2515(3)
O87C O 0.1145(4) 0.2198(2) 0.2225(3)
O98C O 0.1754(6) 0.2099(3) -0.1000(4)
O109B O -0.0522(5) 0.4767(2) 0.0062(3)
O116C O 0.7600(5) 0.2205(3) 0.2058(4)
O117C O 0.5597(6) 0.1938(3) 0.0504(4)
O124C O 0.2131(5) 0.1925(2) 0.0563(3)
O126C O 0.5016(5) 0.2208(2) 0.4316(4)
O136C O 0.6021(4) 0.2136(2) 0.1959(4)
O159C O 0.2493(7) 0.1930(3) -0.1838(5)
O164C O 0.4212(6) 0.2120(3) 0.5192(5)
O169C O 0.4581(6) 0.1960(3) -0.0252(4)
Cl1 Cl 0.7132(3) 0.2500 0.3567(2)
O1 O 0.7072(8) 0.2817(4) 0.3248(6)
O2 O 0.7743(12) 0.2500 0.3884(8)
O3 O 0.6632(12) 0.2500 0.3856(10)
O1C O 0.7072(8) 0.2183(4) 0.3248(6)
Cl13? Cl 0.0529(6) 0.3462(3) 0.0320(5)
Cl14? Cl 0.4553(6) 0.5169(3) 0.3395(4)
Cl15? Cl 0.6840(6) 0.4210(3) 0.5182(4)
Cl16? Cl 0.5878(6) 0.4567(3) 0.4043(5)
loop_
_geom_bond_atom_site_label_1
_geom_bond_atom_site_label_2
_geom_bond_site_symmetry_1
_geom_bond_site_symmetry_2
Cl1 O1 1_555 1_555
O2 Cl1 1_555 1_555
O3 Cl1 1_555 1_555
Cl2 O4 1_555 1_555
O5 Cl2 1_555 1_555
O6 Cl2 1_555 1_555
O7 Cl2 1_555 1_555
Cl3 O8 1_555 1_555
O9 Cl3 1_555 1_555
O10 Cl3 1_555 1_555
O11 Cl3 1_555 1_555
Cl4 O12 1_555 1_555
O13 Cl4 1_555 1_555
O14 Cl4 1_555 1_555
Cl5 O15 1_555 1_555
O16 Cl5 1_555 1_555
O17 Cl5 1_555 1_555
Cl6 O18 1_555 1_555
O19 Cl6 1_555 1_555
O20 Cl6 1_555 1_555
O21 Cl6 1_555 1_555
Cl7 O22 1_555 1_555
O23 Cl7 1_555 1_555
O24 Cl7 1_555 1_555
O25 Cl7 1_555 1_555
Cl8 O26 1_555 1_555
O27 Cl8 1_555 1_555
O28 Cl8 1_555 1_555
O29 Cl8 1_555 1_555
Cl9 O30 1_555 1_555
O31 Cl9 1_555 1_555
O32 Cl9 1_555 1_555
O33 Cl9 1_555 1_555
Cl10 O34 1_555 1_555
O35 Cl10 1_555 1_555
O36 Cl10 1_555 1_555
O37 Cl10 1_555 1_555
Cl11 O38 1_555 1_555
O39 Cl11 1_555 1_555
O40 Cl11 1_555 1_555
O41 Cl11 1_555 1_555
Cl12 O42 1_555 1_555
O43 Cl12 1_555 1_555
O44 Cl12 1_555 1_555
O45 Cl12 1_555 1_555
Dy1 O46 1_555 1_555
Dy2 O46 1_555 1_555
Dy3 O55 1_555 1_555
Dy4 O47 1_555 1_555
Dy5 O50 1_555 1_555
Dy6 O48 1_555 1_555
Dy7 O51 1_555 1_555
Dy8 O57 1_555 1_555
Dy9 O48 1_555 1_555
Dy10 O49 1_555 1_555
Dy11 O61 1_555 1_555
Dy12 O56 1_555 1_555
Dy13 O51 1_555 1_555
Dy14 O52 1_555 1_555
Dy15 O52 1_555 1_555
Dy16 O56 1_555 1_555
Dy17 O49 1_555 1_555
Dy18 O70 1_555 1_555
Dy19 O62 1_555 1_555
Dy20 O62 1_555 1_555
Dy21 O71 1_555 1_555
Dy22 O52 1_555 1_555
Dy23 O79 1_555 1_555
Dy24 O62 1_555 1_555
Co1 O72 1_555 1_555
Co2 O49 1_555 1_555
Co3 O60 1_555 1_555
Co4 O54 1_555 1_555
Co5 O53 1_555 1_555
Co6 O60 1_555 1_555
C1 O91 1_555 1_555
C2 O89 1_555 1_555
C3 O127 1_555 1_555
C4 O85 1_555 1_555
C5 O86 1_555 1_555
C6 O96 1_555 1_555
C7 C8 1_555 1_555
C8 O112 1_555 1_555
C9 H1 1_555 1_555
H2 C9 1_555 1_555
H3 C9 1_555 1_555
C10 C9 1_555 1_555
C11 H4 1_555 1_555
H5 C11 1_555 1_555
H6 C11 1_555 1_555
C12 C11 1_555 1_555
C13 H7 1_555 1_555
H8 C13 1_555 1_555
H9 C13 1_555 1_555
C14 C13 1_555 1_555
C15 H10 1_555 1_555
H11 C15 1_555 1_555
H12 C15 1_555 1_555
C16 C15 1_555 1_555
C17 H13 1_555 1_555
H14 C17 1_555 1_555
H15 C17 1_555 1_555
C18 C17 1_555 1_555
C19 H16 1_555 1_555
H17 C19 1_555 1_555
H18 C19 1_555 1_555
C20 C19 1_555 1_555
C21 C23 1_555 1_555
C22 C24 1_555 1_555
C23 C24 1_555 1_555
C25 H19 1_555 1_555
H20 C25 1_555 1_555
H21 C25 1_555 1_555
C26 C25 1_555 1_555
C27 H22 1_555 1_555
H23 C27 1_555 1_555
H24 C27 1_555 1_555
C28 C27 1_555 1_555
C29 H25 1_555 1_555
H26 C29 1_555 1_555
H27 C29 1_555 1_555
C30 C29 1_555 1_555
C31 H28 1_555 1_555
H29 C31 1_555 1_555
H30 C31 1_555 1_555
C32 C31 1_555 1_555
C33 H31 1_555 1_555
H32 C33 1_555 1_555
H33 C33 1_555 1_555
C34 C33 1_555 1_555
C35 C36 1_555 1_555
C36 O87 1_555 1_555
C37 H34 1_555 1_555
H35 C37 1_555 1_555
H36 C37 1_555 1_555
C38 C37 1_555 1_555
C39 C40 1_555 1_555
C40 O116 1_555 1_555
C41 H37 1_555 1_555
H38 C41 1_555 1_555
H39 C41 1_555 1_555
C42 C41 1_555 1_555
C43 O126 1_555 1_555
O46 H40 1_555 1_555
O47 Dy1 1_555 1_555
H41 O47 1_555 1_555
O48 Dy2 1_555 1_555
H42 O48 1_555 1_555
O49 H43 1_555 1_555
O50 Dy6 1_555 1_555
H44 O50 1_555 1_555
O51 Dy10 1_555 1_555
H45 O51 1_555 1_555
O52 H46 1_555 1_555
O53 Dy15 1_555 1_555
H47 O53 1_555 1_555
O54 Dy13 1_555 1_555
H48 O54 1_555 1_555
O55 Dy1 1_555 1_555
H49 O55 1_555 1_555
O56 Dy3 1_555 1_555
H50 O56 1_555 1_555
O57 Dy14 1_555 1_555
H51 O57 1_555 1_555
O58 Dy14 1_555 1_555
H52 O58 1_555 1_555
O59 Dy14 1_555 1_555
H53 O59 1_555 1_555
O60 H54 1_555 1_555
O61 Dy17 1_555 1_555
H55 O61 1_555 1_555
O62 H56 1_555 1_555
O63 Dy5 1_555 1_555
H57 O63 1_555 1_555
O64 Dy3 1_555 1_555
H58 O64 1_555 1_555
O65 Dy3 1_555 1_555
H59 O65 1_555 1_555
O66 Dy6 1_555 1_555
H60 O66 1_555 1_555
O67 Dy8 1_555 1_555
H61 O67 1_555 1_555
O68 Dy4 1_555 1_555
H62 O68 1_555 1_555
O69 Dy2 1_555 1_555
H63 O69 1_555 1_555
O70 Dy20 1_555 1_555
H64 O70 1_555 1_555
O71 Dy12 1_555 1_555
H65 O71 1_555 1_555
O72 Dy1 1_555 1_555
H66 O72 1_555 1_555
O73 Dy2 1_555 1_555
H67 O73 1_555 1_555
O74 Dy10 1_555 1_555
H68 O74 1_555 1_555
O75 Dy5 1_555 1_555
H69 O75 1_555 1_555
O76 Dy7 1_555 1_555
H70 O76 1_555 1_555
O77 Dy2 1_555 1_555
H71 O77 1_555 1_555
O78 Dy10 1_555 1_555
H72 O78 1_555 1_555
O79 Dy17 1_555 1_555
H73 O79 1_555 1_555
O80 Dy13 1_555 1_555
H74 O80 1_555 1_555
O81 Dy7 1_555 1_555
H75 O81 1_555 1_555
O82 Dy5 1_555 1_555
H76 O82 1_555 1_555
O83 Dy13 1_555 1_555
H77 O83 1_555 1_555
O84 Dy6 1_555 1_555
O85 Dy4 1_555 1_555
O86 Dy1 1_555 1_555
O87 Dy4 1_555 1_555
O88 Co4 1_555 1_555
O89 Dy5 1_555 1_555
O90 Co2 1_555 1_555
O91 Dy20 1_555 1_555
O92 Dy19 1_555 1_555
O93 Dy14 1_555 1_555
O94 Dy11 1_555 1_555
O95 Dy18 1_555 1_555
O96 Dy18 1_555 1_555
O97 Dy7 1_555 1_555
O98 Dy16 1_555 1_555
O99 Dy9 1_555 1_555
O100 Co5 1_555 1_555
O101 Dy15 1_555 1_555
O102 Dy22 1_555 1_555
O103 Dy19 1_555 1_555
O104 Co2 1_555 1_555
O105 Dy13 1_555 1_555
O106 Dy23 1_555 1_555
O107 Dy11 1_555 1_555
O108 Dy17 1_555 1_555
O109 Dy11 1_555 1_555
O110 Dy17 1_555 1_555
O111 Dy18 1_555 1_555
O112 Co5 1_555 1_555
O113 Dy23 1_555 1_555
O114 Dy15 1_555 1_555
O115 Dy20 1_555 1_555
O116 Co3 1_555 1_555
O117 Co6 1_555 1_555
O118 Dy24 1_555 1_555
O119 Dy15 1_555 1_555
O120 Dy23 1_555 1_555
O121 Co3 1_555 1_555
O122 Co4 1_555 1_555
O123 Dy22 1_555 1_555
O124 Dy3 1_555 1_555
O125 Dy19 1_555 1_555
O126 Dy6 1_555 1_555
O127 Dy1 1_555 1_555
O128 Dy4 1_555 1_555
O129 Dy2 1_555 1_555
O130 Dy16 1_555 1_555
O131 Dy6 1_555 1_555
O132 Dy9 1_555 1_555
O133 Dy2 1_555 1_555
O134 Dy5 1_555 1_555
O135 Dy16 1_555 1_555
O136 Co1 1_555 1_555
O137 Co1 1_555 1_555
O138 Dy12 1_555 1_555
O139 Co3 1_555 1_555
O140 Dy22 1_555 1_555
O141 Dy22 1_555 1_555
O142 Dy22 1_555 1_555
O143 Dy9 1_555 1_555
O144 Dy6 1_555 1_555
O145 Dy8 1_555 1_555
O146 Dy10 1_555 1_555
O147 Dy16 1_555 1_555
O148 Dy17 1_555 1_555
O149 Dy16 1_555 1_555
O150 Dy18 1_555 1_555
O151 Dy4 1_555 1_555
O152 Dy19 1_555 1_555
O153 Dy20 1_555 1_555
O154 Dy18 1_555 1_555
O155 Dy12 1_555 1_555
O156 Dy19 1_555 1_555
O157 Dy20 1_555 1_555
O158 Dy21 1_555 1_555
O159 Dy21 1_555 1_555
O160 Dy24 1_555 1_555
O161 Dy23 1_555 1_555
O162 Dy21 1_555 1_555
O163 Dy7 1_555 1_555
O164 Dy8 1_555 1_555
O165 Dy24 1_555 1_555
O166 Dy7 1_555 1_555
O167 Dy24 1_555 1_555
O168 Dy23 1_555 1_555
O169 Dy12 1_555 1_555
O170 Dy7 1_555 1_555
O171 Dy11 1_555 1_555
O172 Co6 1_555 1_555
O1C Cl1 1_555 1_555
O13C Cl4 1_555 1_555
O17C Cl5 1_555 1_555
Dy2C O46 1_555 1_555
Dy4C O47 1_555 1_555
Dy14C O57 1_555 1_555
Dy16C O64 1_555 1_555
Co3C O60 1_555 1_555
C7C C7 1_555 1_555
C8C O119 1_555 1_555
C34B O109 1_555 1_555
O52C Dy15 1_555 1_555
O53C Dy15 1_555 1_555
O55C Dy1 1_555 1_555
O56C Dy3 1_555 1_555
O58C Dy15 1_555 1_555
O66C Dy8 1_555 1_555
O71C Dy12 1_555 1_555
O72C Dy1 1_555 1_555
O86C Dy1 1_555 1_555
O87C C36 1_555 1_555
O98C Dy21 1_555 1_555
O109B C34 1_555 1_555
O116C C40 1_555 1_555
O117C Co6 1_555 1_555
O124C Dy3 1_555 1_555
O126C Dy8 1_555 1_555
O136C Co1 1_555 1_555
O159C Dy21 1_555 1_555
O164C Dy8 1_555 1_555
O169C Dy12 1_555 1_555
O44 O45 1_555 1_555
Dy2 O72 1_555 1_555
Dy2 O86 1_555 1_555
Dy3 O127 1_555 1_555
Dy3 O55C 1_555 1_555
Dy4 O55 1_555 1_555
Dy4 O65 1_555 1_555
Dy5 O69 1_555 1_555
Dy5 O73 1_555 1_555
Dy5 O129 1_555 1_555
Dy6 O69 1_555 1_555
Dy7 O68 1_555 1_555
Dy7 O128 1_555 1_555
Dy8 O66 1_555 1_555
Dy8 O126 1_555 1_555
Dy9 O50 1_555 1_555
Dy9 O73 1_555 1_555
Dy9 O81 1_555 1_555
Dy9 O97 1_555 1_555
Dy10 O68 1_555 1_555
Dy10 O76 1_555 1_555
Dy10 O85 1_555 1_555
Dy11 O74 1_555 1_555
Dy11 O78 1_555 1_555
Dy12 O56C 1_555 1_555
Dy13 O76 1_555 1_555
Dy13 O81 1_555 1_555
Dy13 O132 1_555 1_555
Dy14 O66 1_555 1_555
Dy14 O67 1_555 1_555
Dy14 O131 1_555 1_555
Dy15 O58 1_555 1_555
Dy16 O64 1_555 1_555
Dy16 O71 1_555 1_555
Dy16 O124 1_555 1_555
Dy17 O54 1_555 1_555
Dy17 O74 1_555 1_555
Dy17 O80 1_555 1_555
Dy18 O75 1_555 1_555
Dy18 O82 1_555 1_555
Dy18 O134 1_555 1_555
Dy19 O63 1_555 1_555
Dy19 O75 1_555 1_555
Dy19 O89 1_555 1_555
Dy20 O63 1_555 1_555
Dy20 O82 1_555 1_555
Dy21 O98 1_555 1_555
Dy21 O71C 1_555 1_555
Dy22 O53 1_555 1_555
Dy22 O59 1_555 1_555
Dy23 O80 1_555 1_555
Dy23 O83 1_555 1_555
Dy24 O70 1_555 1_555
Dy24 O92 1_555 1_555
Dy24 O111 1_555 1_555
Co1 O77 1_555 1_555
Co1 O72C 1_555 1_555
Co2 O61 1_555 1_555
Co2 O78 1_555 1_555
Co2 O135 1_555 1_555
Co3 O91 1_555 1_555
Co3 O136 1_555 1_555
Co4 O79 1_555 1_555
Co4 O83 1_555 1_555
Co4 O125 1_555 1_555
Co5 O58 1_555 1_555
Co5 O59 1_555 1_555
Co5 O96 1_555 1_555
Co6 O137 1_555 1_555
Co6 O138 1_555 1_555
C1 O129 1_555 1_555
C1 O136 1_555 1_555
C2 O125 1_555 1_555
C2 O132 1_555 1_555
C3 O137 1_555 1_555
C3 O138 1_555 1_555
C4 O124 1_555 1_555
C4 O135 1_555 1_555
C5 O97 1_555 1_555
C5 O128 1_555 1_555
C6 O131 1_555 1_555
C6 O134 1_555 1_555
C8 O119 1_555 1_555
C10 O98 1_555 1_555
C10 O130 1_555 1_555
C12 O90 1_555 1_555
C12 O94 1_555 1_555
C14 O88 1_555 1_555
C14 O120 1_555 1_555
C16 O92 1_555 1_555
C16 O103 1_555 1_555
C18 O108 1_555 1_555
C18 O113 1_555 1_555
C20 O105 1_555 1_555
C20 O106 1_555 1_555
C21 O104 1_555 1_555
C21 O110 1_555 1_555
C22 O110 1_555 1_555
C22 O122 1_555 1_555
C26 O93 1_555 1_555
C26 O102 1_555 1_555
C28 O100 1_555 1_555
C28 O123 1_555 1_555
C30 O95 1_555 1_555
C30 O111 1_555 1_555
C32 O84 1_555 1_555
C32 O99 1_555 1_555
C34 O107 1_555 1_555
C38 O118 1_555 1_555
C38 O160 1_555 1_555
C42 O117 1_555 1_555
C42 O121 1_555 1_555
C43 O133 1_555 1_555
C43 O126C 1_555 1_555
O65 Dy4C 1_555 1_555
O67 Dy14C 1_555 1_555
O77 Dy2C 1_555 1_555
O133 Dy2C 1_555 1_555
Dy2C O72C 1_555 1_555
Dy2C O86C 1_555 1_555
Dy4C O55C 1_555 1_555
Dy4C O87C 1_555 1_555
Dy14C O52C 1_555 1_555
Dy14C O58C 1_555 1_555
Dy14C O66C 1_555 1_555
Dy16C O56C 1_555 1_555
Dy16C O71C 1_555 1_555
Dy16C O98C 1_555 1_555
Dy16C O124C 1_555 1_555
Co3C O116C 1_555 1_555
Co3C O136C 1_555 1_555
C7C C8C 1_555 1_555

#END
