
#######################################################################
#
#                 Cambridge Crystallographic Data Centre
#                                CCDC 
#
#######################################################################
#
# If this CIF has been generated from an entry in the Cambridge 
# Structural Database, then it will include bibliographic, chemical, 
# crystal, experimental, refinement or atomic coordinate data resulting 
# from the CCDC's data processing and validation procedures.
#
#######################################################################

data_WAVHOS
_symmetry_cell_setting           monoclinic
_symmetry_space_group_name_H-M   'P 21/m'
_symmetry_Int_Tables_number      11
_space_group_name_Hall           '-P 2yb'
loop_
_symmetry_equiv_pos_site_id
_symmetry_equiv_pos_as_xyz
1 x,y,z
2 -x,1/2+y,-z
3 -x,-y,-z
4 x,1/2-y,z
_cell_length_a                   19.874(4)
_cell_length_b                   36.991(7)
_cell_length_c                   26.996(5)
_cell_angle_alpha                90
_cell_angle_beta                 96.499(4)
_cell_angle_gamma                90
_cell_volume                     19718.8
loop_
_atom_site_label
_atom_site_type_symbol
_atom_site_fract_x
_atom_site_fract_y
_atom_site_fract_z
Cl2 Cl 0.5757(2) 0.62923(9) -0.13606(13)
O4 O 0.5912(6) 0.5961(3) -0.1117(4)
O5 O 0.5792(7) 0.6584(3) -0.1027(6)
O6 O 0.5131(8) 0.6307(4) -0.1629(6)
O7 O 0.6223(8) 0.6342(4) -0.1702(6)
Cl3 Cl 0.7219(5) 0.7500 -0.3770(3)
O8 O 0.6834(11) 0.7184(5) -0.3921(10)
O9 O 0.7708(15) 0.7500 -0.4073(14)
O10 O 0.772(3) 0.7500 -0.325(2)
O8C O 0.6834(11) 0.7816(5) -0.3921(10)
Cl4 Cl 0.4339(3) 0.45434(14) -0.47086(19)
O11 O 0.3692(8) 0.4384(8) -0.4673(12)
O12 O 0.4848(16) 0.4459(9) -0.4300(12)
O13 O 0.4126(13) 0.4914(4) -0.4770(10)
O14 O 0.4644(7) 0.4459(4) -0.5153(4)
Cl5 Cl 0.3017(3) 0.50669(12) -0.08850(16)
O15 O 0.3429(10) 0.4809(4) -0.1110(5)
O16 O 0.3503(9) 0.5258(5) -0.0541(6)
O17 O 0.2600(8) 0.4905(4) -0.0594(5)
O18 O 0.2685(8) 0.5274(4) -0.1248(5)
Cl6 Cl 0.7362(4) 0.3581(2) -0.0127(3)
O19 O 0.8053(9) 0.3479(15) -0.017(2)
O20 O 0.7399(13) 0.3853(5) -0.0501(7)
O21 O 0.7410(16) 0.3759(7) 0.0334(6)
O22 O 0.6787(10) 0.3359(7) -0.0282(11)
Cl7 Cl 0.5191(6) 0.4080(2) -0.0922(3)
O23 O 0.5796(16) 0.4348(9) -0.0473(12)
O24 O 0.5261(19) 0.3822(7) -0.1338(9)
O25 O 0.4646(13) 0.4410(5) -0.1097(8)
O26 O 0.4816(10) 0.3816(5) -0.0631(8)
Cl8 Cl 0.8796(5) 0.6267(2) 0.2487(3)
O27 O 0.8371(12) 0.6271(8) 0.2008(6)
O28 O 0.8364(13) 0.6063(9) 0.2805(11)
O29 O 0.9074(13) 0.6634(4) 0.2535(11)
O30 O 0.9344(10) 0.6000(6) 0.2482(12)
Cl9 Cl 1.0481(5) 0.5193(2) 0.2354(2)
O31 O 0.9736(6) 0.5151(6) 0.2156(7)
O32 O 1.0550(11) 0.4850(3) 0.2676(6)
O33 O 1.0551(11) 0.5478(4) 0.2687(6)
O34 O 1.0882(6) 0.5151(4) 0.1993(5)
Cl10 Cl 0.7260(6) 0.7500 0.3455(3)
Cl11 Cl 0.1059(4) 0.4348(2) -0.5447(3)
O35 O 0.0645(8) 0.4130(4) -0.5787(6)
O36 O 0.1483(8) 0.4146(4) -0.5093(6)
O37 O 0.0657(7) 0.4603(4) -0.5207(7)
O38 O 0.1492(8) 0.4567(5) -0.5737(7)
Cl12 Cl 0.9751(5) 0.3638(3) 0.2841(4)
O39 O 0.9350(14) 0.3325(6) 0.2913(15)
O40 O 1.0016(15) 0.3523(10) 0.2386(8)
O41 O 1.0047(18) 0.3540(10) 0.3335(7)
O42 O 0.9235(9) 0.3882(5) 0.2909(10)
Cl13 Cl 0.5894(7) 0.4564(3) -0.5949(4)
Cl14 Cl 0.9501(6) 0.6525(3) -0.0295(4)
Cl15 Cl 0.9250(4) 0.2500 0.1350(4)
O43 O 0.9803(10) 0.2500 0.1060(9)
O44 O 0.9373(15) 0.2819(5) 0.1650(8)
O45 O 0.8564(10) 0.2500 0.1107(18)
O44C O 0.9373(15) 0.2181(5) 0.1650(8)
Cl16 Cl 0.3163(6) 0.5792(2) -0.5185(4)
Cl17 Cl 0.5464(6) 0.4830(2) -0.3403(3)
Cl18 Cl 0.9076(9) 0.7500 -0.0226(6)
Gd1 Gd 0.63853(5) 0.7500 -0.20415(3)
Gd2 Gd 0.51928(4) 0.699607(15) -0.29617(2)
Gd3 Gd 0.72202(5) 0.7500 -0.07789(3)
Gd4 Gd 0.81073(4) 0.697941(16) -0.17249(2)
Gd5 Gd 0.41280(4) 0.620446(16) -0.31476(2)
Gd6 Gd 0.47359(4) 0.660211(16) -0.43122(2)
Gd7 Gd 0.79201(4) 0.618288(16) -0.27724(2)
Gd8 Gd 0.48268(6) 0.7500 -0.51620(3)
Gd9 Gd 0.59641(4) 0.607714(16) -0.33631(2)
Gd10 Gd 0.83236(4) 0.590661(16) -0.14887(2)
Gd11 Gd 0.92147(4) 0.527953(16) -0.04449(2)
Gd12 Gd 0.60807(6) 0.7500 0.02672(3)
Gd13 Gd 0.70708(4) 0.537774(16) -0.24438(2)
Gd14 Gd 0.32872(4) 0.697291(17) -0.53556(2)
Gd15 Gd 0.16020(6) 0.7500 -0.55491(4)
Gd16 Gd 0.75206(4) 0.684544(16) 0.02512(2)
Gd17 Gd 0.73940(4) 0.505271(16) -0.10721(2)
Gd18 Gd 0.23857(4) 0.599748(19) -0.37003(3)
Gd19 Gd 0.39516(4) 0.533530(17) -0.25075(2)
Gd20 Gd 0.27399(4) 0.609020(19) -0.23013(3)
Gd21 Gd 0.75680(6) 0.7500 0.13753(3)
Gd22 Gd 0.17947(5) 0.657354(18) -0.62256(3)
Gd23 Gd 0.70594(5) 0.435439(17) -0.21353(2)
Gd24 Gd 0.20483(5) 0.51732(2) -0.28999(3)
Co1 Co 0.46602(14) 0.7500 -0.20033(8)
Co2 Co 0.78850(10) 0.57997(4) -0.03111(6)
Co3 Co 0.31467(12) 0.70338(5) -0.14908(7)
Co4 Co 0.58674(11) 0.49374(5) -0.18808(7)
Co5 Co 0.18196(12) 0.66442(5) -0.49793(7)
Co6 Co 0.42340(15) 0.7500 -0.05822(10)
C1 C 0.3839(7) 0.6818(4) -0.2208(4)
C2 C 0.5307(6) 0.5509(3) -0.2660(4)
C3 C 0.5438(9) 0.7500 -0.0981(6)
C4 C 0.7853(6) 0.6588(3) -0.0699(4)
C5 C 0.6865(7) 0.6708(3) -0.2648(4)
C6 C 0.3134(7) 0.6426(3) -0.4318(4)
C7 C 0.0994(18) 0.7188(9) -0.4422(12)
C8 C 0.0644(16) 0.7330(8) -0.4029(11)
C9 C 0.9471(9) 0.6979(5) 0.1183(6)
H1 H 0.9621 0.7231 0.1218
H2 H 0.9825 0.6833 0.1055
H3 H 0.9382 0.6885 0.1509
C10 C 0.8847(10) 0.6960(4) 0.0834(5)
C11 C 0.9282(10) 0.5978(5) 0.1029(7)
H4 H 0.8920 0.6091 0.1193
H5 H 0.9573 0.6166 0.0912
H6 H 0.9552 0.5820 0.1266
C12 C 0.8965(9) 0.5750(5) 0.0578(6)
C13 C 0.4741(10) 0.3978(6) -0.2443(7)
H7 H 0.4322 0.4095 -0.2369
H8 H 0.4800 0.3749 -0.2260
H9 H 0.4716 0.3930 -0.2802
C14 C 0.5347(8) 0.4228(4) -0.2285(6)
C15 C 0.3400(10) 0.4386(5) -0.3489(7)
H10 H 0.3095 0.4436 -0.3793
H11 H 0.3187 0.4211 -0.3284
H12 H 0.3826 0.4286 -0.3580
C16 C 0.3546(10) 0.4745(4) -0.3189(6)
C17 C 0.8893(10) 0.4037(4) -0.1002(7)
H13 H 0.9054 0.4121 -0.0665
H14 H 0.9271 0.4036 -0.1206
H15 H 0.8709 0.3792 -0.0985
C18 C 0.8371(8) 0.4277(4) -0.1222(6)
C19 C 0.8017(10) 0.4661(5) -0.3615(7)
H16 H 0.8055 0.4895 -0.3781
H17 H 0.7734 0.4498 -0.3836
H18 H 0.8469 0.4556 -0.3537
C20 C 0.7710(9) 0.4714(4) -0.3156(5)
C21 C 0.5749(5) 0.5551(8) -0.0069(7)
C22 C 0.5465(11) 0.5388(6) -0.0393(7)
C23 C 0.6425(6) 0.5527(6) -0.0271(7)
C24 C 0.5722(14) 0.5169(6) -0.0805(8)
C25 C 0.3960(6) 0.6072(3) -0.6391(6)
H19 H 0.3704 0.5897 -0.6611
H20 H 0.4128 0.5953 -0.6076
H21 H 0.4344 0.6163 -0.6552
C26 C 0.3504(7) 0.6384(3) -0.6287(6)
C27 C 0.0821(12) 0.5611(6) -0.5307(9)
H22 H 0.0719 0.5465 -0.5609
H23 H 0.0400 0.5665 -0.5164
H24 H 0.1128 0.5477 -0.5063
C28 C 0.1171(9) 0.5982(4) -0.5444(6)
C29 C 0.2272(10) 0.4928(4) -0.4478(7)
H25 H 0.2542 0.4742 -0.4290
H26 H 0.2424 0.4953 -0.4809
H27 H 0.1793 0.4858 -0.4513
C30 C 0.2364(9) 0.5302(4) -0.4190(6)
C31 C 0.6885(9) 0.6422(5) -0.4845(6)
H28 H 0.6704 0.6551 -0.5148
H29 H 0.7093 0.6195 -0.4935
H30 H 0.7226 0.6573 -0.4652
C32 C 0.6318(9) 0.6343(4) -0.4535(6)
C33 C 1.1336(9) 0.5576(5) -0.0389(7)
H31 H 1.1366 0.5780 -0.0617
H32 H 1.1584 0.5369 -0.0503
H33 H 1.1535 0.5646 -0.0053
C34 C 1.0643(9) 0.5480(4) -0.0376(6)
C35 C 0.9519(11) 0.7500 -0.2830(7)
C36 C 0.9087(10) 0.7500 -0.2420(7)
C37 C 0.1386(10) 0.4752(5) -0.1574(6)
H34 H 0.1179 0.4918 -0.1354
H35 H 0.1771 0.4629 -0.1386
H36 H 0.1051 0.4572 -0.1707
C38 C 0.1631(14) 0.4962(7) -0.2001(7)
C39 C 0.1587(6) 0.7500 -0.2592(5)
C40 C 0.2193(7) 0.7500 -0.2198(6)
C41 C 0.4402(10) 0.6286(4) -0.0452(6)
H37 H 0.4156 0.6085 -0.0624
H38 H 0.4325 0.6285 -0.0099
H39 H 0.4888 0.6260 -0.0478
C42 C 0.4146(10) 0.6648(4) -0.0695(5)
C43 C 0.5047(13) 0.7500 -0.4068(8)
O46 O 0.5893(6) 0.7500 -0.2869(4)
O47 O 0.7559(6) 0.7500 -0.2173(4)
H40 H 0.7624 0.7500 -0.2534
O48 O 0.5644(4) 0.6689(2) -0.3635(3)
H41 H 0.6035 0.6823 -0.3750
O49 O 0.7469(5) 0.5713(2) -0.1029(3)
H42 H 0.7027 0.5838 -0.1117
O50 O 0.4869(5) 0.6095(2) -0.3786(3)
H43 H 0.4751 0.5866 -0.3972
O51 O 0.7334(5) 0.5981(2) -0.2094(3)
H44 H 0.6952 0.6132 -0.1999
O52 O 0.2376(5) 0.7122(2) -0.5986(3)
H45 H 0.2538 0.7250 -0.6277
O53 O 0.1284(5) 0.6881(2) -0.5629(3)
H46 H 0.0784 0.6842 -0.5654
O54 O 0.6590(5) 0.5343(2) -0.1703(3)
H47 H 0.6399 0.5576 -0.1595
O55 O 0.7016(4) 0.7103(2) -0.1468(3)
H48 H 0.6761 0.6880 -0.1393
O56 O 0.6631(4) 0.7121(2) -0.0265(3)
H49 H 0.6320 0.6944 -0.0456
O57 O 0.3694(6) 0.7500 -0.4886(4)
H50 H 0.3663 0.7500 -0.4519
O58 O 0.2323(4) 0.7132(2) -0.4966(3)
H51 H 0.2427 0.7240 -0.4626
O59 O 0.2497(5) 0.6481(2) -0.5478(3)
H52 H 0.2692 0.6233 -0.5426
O60 O 0.3326(7) 0.7500 -0.1057(4)
H53 H 0.2962 0.7500 -0.0830
O61 O 0.8111(4) 0.5240(2) -0.0312(3)
H54 H 0.8026 0.5107 -0.0002
O62 O 0.2852(5) 0.5448(2) -0.2269(3)
H55 H 0.2804 0.5351 -0.1929
O63 O 0.3888(4) 0.5965(2) -0.2373(3)
H56 H 0.4204 0.6053 -0.2083
O64 O 0.7710(7) 0.7500 0.0094(4)
H57 H 0.8204 0.7500 0.0055
O65 O 0.8242(6) 0.7500 -0.1223(4)
H58 H 0.8673 0.7500 -0.0992
O66 O 0.4471(5) 0.6882(2) -0.5149(3)
H59 H 0.4666 0.6737 -0.5411
O67 O 0.3767(6) 0.7500 -0.5738(4)
H60 H 0.3794 0.7500 -0.6105
O68 O 0.8560(5) 0.63988(19) -0.2011(3)
H61 H 0.9054 0.6416 -0.2046
O69 O 0.4304(4) 0.6753(2) -0.3556(3)
H62 H 0.3892 0.6910 -0.3604
O70 O 0.1970(6) 0.5815(2) -0.2951(3)
H63 H 0.1494 0.5900 -0.2938
O71 O 0.6848(4) 0.7137(2) 0.0792(3)
H64 H 0.6596 0.6955 0.0973
O72 O 0.5394(4) 0.7135(2) -0.2094(3)
H65 H 0.5416 0.6922 -0.1864
O73 O 0.5256(5) 0.63574(19) -0.2822(3)
H66 H 0.5371 0.6290 -0.2463
O74 O 0.8549(4) 0.5295(2) -0.1225(3)
H67 H 0.8756 0.5151 -0.1483
O75 O 0.3382(5) 0.5669(2) -0.3238(3)
H68 H 0.3567 0.5540 -0.3518
O76 O 0.8232(4) 0.5621(2) -0.2309(3)
H69 H 0.8616 0.5472 -0.2404
O77 O 0.4503(6) 0.7500 -0.2774(4)
H70 H 0.4022 0.7500 -0.2930
O78 O 0.8785(4) 0.5867(2) -0.0630(3)
H71 H 0.9080 0.6072 -0.0499
O79 O 0.6613(4) 0.4612(2) -0.1465(3)
H72 H 0.6432 0.4437 -0.1232
O80 O 0.7607(4) 0.4920(2) -0.1934(3)
H73 H 0.8103 0.4908 -0.1966
O81 O 0.7082(4) 0.5774(2) -0.3151(3)
O82 O 0.2969(4) 0.6346(2) -0.3073(3)
H74 H 0.2864 0.6610 -0.3103
O83 O 0.6393(4) 0.4842(2) -0.2499(3)
H75 H 0.6115 0.4794 -0.2824
O84 O 0.5759(5) 0.6479(2) -0.4666(3)
O85 O 0.7993(4) 0.6485(2) -0.1136(3)
O86 O 0.6408(5) 0.6911(2) -0.2558(3)
O87 O 0.8922(5) 0.7192(2) -0.2253(3)
O88 O 0.5184(5) 0.4521(2) -0.2082(4)
O89 O 0.4811(5) 0.5625(2) -0.2951(3)
O90 O 0.8360(5) 0.5866(2) 0.0411(3)
O91 O 0.3315(5) 0.6633(2) -0.2075(3)
O92 O 0.3095(6) 0.4920(2) -0.2988(4)
O93 O 0.3703(6) 0.6629(3) -0.6004(3)
O94 O 0.9321(5) 0.5538(2) 0.0372(3)
O95 O 0.2592(5) 0.5554(3) -0.4371(3)
O96 O 0.2516(5) 0.6425(2) -0.4365(3)
O97 O 0.6808(4) 0.6439(2) -0.2956(3)
O98 O 0.8276(6) 0.7109(3) 0.0995(3)
O99 O 0.6452(5) 0.6152(2) -0.4121(3)
O100 O 0.1291(6) 0.6164(2) -0.5034(4)
O101 O 0.1099(8) 0.7500 -0.6444(6)
O102 O 0.2834(6) 0.6383(3) -0.6473(4)
O103 O 0.4165(6) 0.4863(2) -0.3135(4)
O104 O 0.6908(5) 0.5729(2) -0.0068(3)
O105 O 0.7558(7) 0.5032(2) -0.3045(3)
O106 O 0.7610(6) 0.4436(2) -0.2873(3)
O107 O 1.0187(5) 0.5640(3) -0.0646(4)
O108 O 0.8148(5) 0.4542(2) -0.0990(3)
O109 O 1.0533(5) 0.5229(2) -0.0087(3)
O110 O 0.6451(6) 0.5255(3) -0.0632(3)
O111 O 0.2154(6) 0.5308(3) -0.3739(4)
O112 O 0.1174(6) 0.6854(3) -0.4460(4)
O113 O 0.8093(7) 0.4173(3) -0.1681(4)
O114 O 0.0327(9) 0.7500 -0.5716(8)
O115 O 0.2033(7) 0.4736(3) -0.2258(5)
O116 O 0.2409(5) 0.7204(3) -0.2041(4)
O117 O 0.4391(5) 0.6933(3) -0.0502(4)
O118 O 0.1391(8) 0.5255(4) -0.2199(5)
O119 O 0.1076(7) 0.7500 -0.4743(5)
O120 O 0.5942(6) 0.4112(2) -0.2328(4)
O121 O 0.3649(6) 0.6657(2) -0.1044(3)
O122 O 0.5390(6) 0.5059(3) -0.1213(3)
O123 O 0.1257(6) 0.6076(3) -0.5867(3)
O124 O 0.7891(5) 0.69225(19) -0.0574(3)
O125 O 0.5170(5) 0.5282(2) -0.2311(3)
O126 O 0.5008(4) 0.7204(2) -0.4347(3)
O127 O 0.5987(6) 0.7500 -0.1161(4)
O128 O 0.7485(5) 0.6726(2) -0.2434(3)
O129 O 0.4162(5) 0.6721(2) -0.2555(3)
O130 O 0.8764(5) 0.6802(3) 0.0439(3)
O131 O 0.3476(5) 0.6639(2) -0.4562(3)
O132 O 0.5905(5) 0.5613(2) -0.2722(3)
O133 O 0.5006(6) 0.7500 -0.3626(4)
O134 O 0.3434(5) 0.6209(2) -0.3996(3)
O135 O 0.7741(5) 0.6365(2) -0.0337(3)
O136 O 0.3942(5) 0.7125(2) -0.1953(3)
O137 O 0.4843(7) 0.7500 -0.1253(4)
O138 O 0.5359(7) 0.7500 -0.0505(4)
O139 O 0.2323(7) 0.6870(3) -0.1139(5)
O140 O 0.0603(7) 0.6669(4) -0.6595(5)
O141 O 0.1848(8) 0.6896(3) -0.7025(4)
O142 O 0.1548(6) 0.6129(2) -0.6900(4)
O143 O 0.5824(5) 0.5489(3) -0.3804(3)
O144 O 0.4444(6) 0.6102(2) -0.4903(3)
O145 O 0.5106(10) 0.7500 -0.6051(6)
O146 O 0.9518(6) 0.5875(3) -0.1532(4)
O147 O 0.6538(5) 0.6428(2) 0.0202(4)
O148 O 0.7125(6) 0.4616(2) -0.0401(3)
O149 O 0.7719(5) 0.6369(2) 0.0869(3)
O150 O 0.1274(6) 0.5911(3) -0.4121(4)
O151 O 0.9231(5) 0.6893(2) -0.1232(4)
O152 O 0.3980(6) 0.4762(2) -0.2044(3)
O153 O 0.3185(6) 0.6024(3) -0.1434(4)
O154 O 0.1672(6) 0.6526(3) -0.3570(4)
O155 O 0.5527(8) 0.7500 0.1043(5)
O156 O 0.4235(5) 0.5447(2) -0.1607(3)
O157 O 0.1928(6) 0.6571(3) -0.2364(5)
O158 O 0.8489(9) 0.7500 0.2054(6)
O159 O 0.7548(8) 0.6922(3) 0.1814(4)
O160 O 0.1798(6) 0.5900(3) -0.1844(4)
O161 O 0.7221(5) 0.3770(3) -0.2526(4)
O162 O 0.6593(11) 0.7500 0.1814(7)
O163 O 0.7825(7) 0.6282(3) -0.3688(4)
O164 O 0.5847(7) 0.7122(3) -0.5191(4)
O165 O 0.1643(8) 0.4603(3) -0.3268(5)
O166 O 0.8781(8) 0.5848(4) -0.3165(5)
O167 O 0.0874(7) 0.5265(4) -0.3224(6)
O168 O 0.6869(8) 0.3843(3) -0.1541(4)
O169 O 0.5406(6) 0.6936(3) 0.0250(4)
O170 O 0.8625(7) 0.6675(3) -0.3023(4)
O171 O 0.9761(6) 0.4864(3) -0.0948(3)
O172 O 0.3956(9) 0.7500 0.0131(3)
Gd1A Gd 1.36147(5) 0.2500 0.20415(3)
Gd2B Gd 1.48072(4) 0.300393(15) 0.29617(2)
Gd2C Gd 0.51928(4) 0.800393(15) -0.29617(2)
Gd3A Gd 1.27798(5) 0.2500 0.07789(3)
Gd4B Gd 1.18927(4) 0.302059(16) 0.17249(2)
Gd4C Gd 0.81073(4) 0.802059(16) -0.17249(2)
Gd5B Gd 1.58720(4) 0.379554(16) 0.31476(2)
Gd6B Gd 1.52641(4) 0.339789(16) 0.43122(2)
Gd6C Gd 0.47359(4) 0.839789(16) -0.43122(2)
Gd7B Gd 1.20799(4) 0.381712(16) 0.27724(2)
Gd8A Gd 1.51732(6) 0.2500 0.51620(3)
Gd9B Gd 1.40359(4) 0.392286(16) 0.33631(2)
Gd10B Gd 1.16764(4) 0.409339(16) 0.14887(2)
Gd11B Gd 1.07853(4) 0.472047(16) 0.04449(2)
Gd12A Gd 1.39193(6) 0.2500 -0.02672(3)
Gd13B Gd 1.29292(4) 0.462226(16) 0.24438(2)
Gd14B Gd 1.67128(4) 0.302709(17) 0.53556(2)
Gd14C Gd 0.32872(4) 0.802709(17) -0.53556(2)
Gd15A Gd 1.83980(6) 0.2500 0.55491(4)
Gd16B Gd 1.24794(4) 0.315456(16) -0.02512(2)
Gd16C Gd 0.75206(4) 0.815456(16) 0.02512(2)
Gd17B Gd 1.26060(4) 0.494729(16) 0.10721(2)
Gd18B Gd 1.76143(4) 0.400252(19) 0.37003(3)
Gd19B Gd 1.60484(4) 0.466470(17) 0.25075(2)
Gd20B Gd 1.72601(4) 0.390980(19) 0.23013(3)
Gd21A Gd 1.24320(6) 0.2500 -0.13753(3)
Gd22B Gd 1.82053(5) 0.342646(18) 0.62256(3)
Gd23B Gd 1.29406(5) 0.564561(17) 0.21353(2)
Gd24B Gd 1.79517(5) 0.48268(2) 0.28999(3)
Co1A Co 1.53398(14) 0.2500 0.20033(8)
Co2B Co 1.21150(10) 0.42003(4) 0.03111(6)
Co3B Co 1.68533(12) 0.29662(5) 0.14908(7)
Co3C Co 0.31467(12) 0.79662(5) -0.14908(7)
Co4B Co 1.41326(11) 0.50626(5) 0.18808(7)
Co5B Co 1.81804(12) 0.33558(5) 0.49793(7)
Co5C Co 0.18196(12) 0.83558(5) -0.49793(7)
Co6A Co 1.57660(15) 0.2500 0.05822(10)
C1B C 1.6161(7) 0.3182(4) 0.2208(4)
C2B C 1.4693(6) 0.4491(3) 0.2660(4)
C4B C 1.2147(6) 0.3412(3) 0.0699(4)
C5B C 1.3135(7) 0.3292(3) 0.2648(4)
C6B C 1.6866(7) 0.3574(3) 0.4318(4)
C7C C 0.0994(18) 0.7812(9) -0.4422(12)
C8C C 0.0644(16) 0.7670(8) -0.4029(11)
C9B C 1.0529(9) 0.3021(5) -0.1183(6)
H1B H 1.0379 0.2769 -0.1218
H2B H 1.0175 0.3167 -0.1055
H3B H 1.0618 0.3115 -0.1509
C10B C 1.1153(10) 0.3040(4) -0.0834(5)
C11B C 1.0718(10) 0.4022(5) -0.1029(7)
H4B H 1.1080 0.3909 -0.1193
H5B H 1.0427 0.3834 -0.0912
H6B H 1.0448 0.4180 -0.1266
C12B C 1.1035(9) 0.4250(5) -0.0578(6)
C13B C 1.5259(10) 0.6022(6) 0.2443(7)
H7B H 1.5678 0.5905 0.2369
H8B H 1.5200 0.6251 0.2260
H9B H 1.5284 0.6070 0.2802
C14B C 1.4653(8) 0.5772(4) 0.2285(6)
C15B C 1.6600(10) 0.5614(5) 0.3489(7)
H10B H 1.6905 0.5564 0.3793
H11B H 1.6813 0.5789 0.3284
H12B H 1.6174 0.5714 0.3580
C16B C 1.6454(10) 0.5255(4) 0.3189(6)
C17B C 1.1107(10) 0.5963(4) 0.1002(7)
H13B H 1.0946 0.5879 0.0665
H14B H 1.0729 0.5964 0.1206
H15B H 1.1291 0.6208 0.0985
C18B C 1.1629(8) 0.5723(4) 0.1222(6)
C19B C 1.1983(10) 0.5339(5) 0.3615(7)
H16B H 1.1945 0.5105 0.3781
H17B H 1.2266 0.5502 0.3836
H18B H 1.1531 0.5444 0.3537
C20B C 1.2290(9) 0.5286(4) 0.3156(5)
C21B C 1.4251(5) 0.4449(8) 0.0069(7)
C22B C 1.4535(11) 0.4612(6) 0.0393(7)
C23B C 1.3575(6) 0.4473(6) 0.0271(7)
C24B C 1.4278(14) 0.4831(6) 0.0805(8)
C25B C 1.6040(6) 0.3928(3) 0.6391(6)
H19B H 1.6296 0.4103 0.6611
H20B H 1.5872 0.4047 0.6076
H21B H 1.5656 0.3837 0.6552
C26B C 1.6496(7) 0.3616(3) 0.6287(6)
C27B C 1.9179(12) 0.4389(6) 0.5307(9)
H22B H 1.9281 0.4535 0.5609
H23B H 1.9600 0.4335 0.5164
H24B H 1.8872 0.4523 0.5063
C28B C 1.8829(9) 0.4018(4) 0.5444(6)
C29B C 1.7728(10) 0.5072(4) 0.4478(7)
H25B H 1.7458 0.5258 0.4290
H26B H 1.7576 0.5047 0.4809
H27B H 1.8207 0.5142 0.4513
C30B C 1.7636(9) 0.4698(4) 0.4190(6)
C31B C 1.3115(9) 0.3578(5) 0.4845(6)
H28B H 1.3296 0.3449 0.5148
H29B H 1.2907 0.3805 0.4935
H30B H 1.2774 0.3427 0.4652
C32B C 1.3682(9) 0.3657(4) 0.4535(6)
C33B C 0.8664(9) 0.4424(5) 0.0389(7)
H31B H 0.8634 0.4220 0.0617
H32B H 0.8416 0.4631 0.0503
H33B H 0.8465 0.4354 0.0053
C34B C 0.9357(9) 0.4520(4) 0.0376(6)
C37B C 1.8614(10) 0.5248(5) 0.1574(6)
H34B H 1.8821 0.5082 0.1354
H35B H 1.8229 0.5371 0.1386
H36B H 1.8949 0.5428 0.1707
C38B C 1.8369(14) 0.5038(7) 0.2001(7)
C41B C 1.5598(10) 0.3714(4) 0.0452(6)
H37B H 1.5844 0.3915 0.0624
H38B H 1.5675 0.3715 0.0099
H39B H 1.5112 0.3740 0.0478
C42B C 1.5854(10) 0.3352(4) 0.0695(5)
O46A O 1.4107(6) 0.2500 0.2869(4)
O47A O 1.2441(6) 0.2500 0.2173(4)
O48B O 1.4356(4) 0.3311(2) 0.3635(3)
H41B H 1.3965 0.3177 0.3750
O49B O 1.2531(5) 0.4287(2) 0.1029(3)
H42B H 1.2973 0.4162 0.1117
O50B O 1.5131(5) 0.3905(2) 0.3786(3)
H43B H 1.5249 0.4134 0.3972
O51B O 1.2666(5) 0.4019(2) 0.2094(3)
H44B H 1.3048 0.3868 0.1999
O52B O 1.7624(5) 0.2878(2) 0.5986(3)
O52C O 0.2376(5) 0.7878(2) -0.5986(3)
H45B H 1.7462 0.2750 0.6277
O53B O 1.8716(5) 0.3119(2) 0.5629(3)
O53C O 0.1284(5) 0.8119(2) -0.5629(3)
H46B H 1.9216 0.3158 0.5654
O54B O 1.3410(5) 0.4657(2) 0.1703(3)
H47B H 1.3601 0.4424 0.1595
O55B O 1.2984(4) 0.2897(2) 0.1468(3)
O55C O 0.7016(4) 0.7897(2) -0.1468(3)
H48B H 1.3239 0.3120 0.1393
O56B O 1.3369(4) 0.2879(2) 0.0265(3)
O56C O 0.6631(4) 0.7879(2) -0.0265(3)
H49B H 1.3680 0.3056 0.0456
O57A O 1.6306(6) 0.2500 0.4886(4)
O58B O 1.7677(4) 0.2868(2) 0.4966(3)
O58C O 0.2323(4) 0.7868(2) -0.4966(3)
H51B H 1.7573 0.2760 0.4626
O59B O 1.7503(5) 0.3519(2) 0.5478(3)
H52B H 1.7308 0.3767 0.5426
O60A O 1.6674(7) 0.2500 0.1057(4)
O61B O 1.1889(4) 0.4760(2) 0.0312(3)
H54B H 1.1974 0.4893 0.0002
O62B O 1.7148(5) 0.4552(2) 0.2269(3)
H55B H 1.7196 0.4649 0.1929
O63B O 1.6112(4) 0.4035(2) 0.2373(3)
H56B H 1.5796 0.3947 0.2083
O64A O 1.2290(7) 0.2500 -0.0094(4)
O65A O 1.1758(6) 0.2500 0.1223(4)
O66B O 1.5529(5) 0.3118(2) 0.5149(3)
O66C O 0.4471(5) 0.8118(2) -0.5149(3)
H59B H 1.5334 0.3263 0.5411
O67A O 1.6233(6) 0.2500 0.5738(4)
O68B O 1.1440(5) 0.36012(19) 0.2011(3)
H61B H 1.0946 0.3584 0.2046
O69B O 1.5696(4) 0.3247(2) 0.3556(3)
H62B H 1.6108 0.3090 0.3604
O70B O 1.8030(6) 0.4185(2) 0.2951(3)
H63B H 1.8506 0.4100 0.2938
O71B O 1.3152(4) 0.2863(2) -0.0792(3)
O71C O 0.6848(4) 0.7863(2) 0.0792(3)
H64B H 1.3404 0.3045 -0.0973
O72B O 1.4606(4) 0.2865(2) 0.2094(3)
O72C O 0.5394(4) 0.7865(2) -0.2094(3)
H65B H 1.4584 0.3078 0.1864
O73B O 1.4744(5) 0.36426(19) 0.2822(3)
H66B H 1.4629 0.3710 0.2463
O74B O 1.1451(4) 0.4705(2) 0.1225(3)
H67B H 1.1244 0.4849 0.1483
O75B O 1.6618(5) 0.4331(2) 0.3238(3)
H68B H 1.6433 0.4460 0.3518
O76B O 1.1768(4) 0.4379(2) 0.2309(3)
H69B H 1.1384 0.4528 0.2404
O77A O 1.5497(6) 0.2500 0.2774(4)
O78B O 1.1215(4) 0.4133(2) 0.0630(3)
H71B H 1.0920 0.3928 0.0499
O79B O 1.3387(4) 0.5388(2) 0.1465(3)
H72B H 1.3568 0.5563 0.1232
O80B O 1.2393(4) 0.5080(2) 0.1934(3)
H73B H 1.1897 0.5092 0.1966
O81B O 1.2918(4) 0.4226(2) 0.3151(3)
O82B O 1.7031(4) 0.3654(2) 0.3073(3)
H74B H 1.7136 0.3390 0.3103
O83B O 1.3607(4) 0.5158(2) 0.2499(3)
H75B H 1.3885 0.5206 0.2824
O84B O 1.4241(5) 0.3521(2) 0.4666(3)
O85B O 1.2007(4) 0.3515(2) 0.1136(3)
O86B O 1.3592(5) 0.3089(2) 0.2558(3)
O86C O 0.6408(5) 0.8089(2) -0.2558(3)
O87C O 0.8922(5) 0.7808(2) -0.2253(3)
O87B O 1.1078(5) 0.2808(2) 0.2253(3)
O88B O 1.4816(5) 0.5479(2) 0.2082(4)
O89B O 1.5189(5) 0.4375(2) 0.2951(3)
O90B O 1.1640(5) 0.4134(2) -0.0411(3)
O91B O 1.6685(5) 0.3367(2) 0.2075(3)
O92B O 1.6905(6) 0.5080(2) 0.2988(4)
O93B O 1.6297(6) 0.3371(3) 0.6004(3)
O94B O 1.0679(5) 0.4462(2) -0.0372(3)
O95B O 1.7408(5) 0.4446(3) 0.4371(3)
O96B O 1.7484(5) 0.3575(2) 0.4365(3)
O97B O 1.3192(4) 0.3561(2) 0.2956(3)
O98B O 1.1724(6) 0.2891(3) -0.0995(3)
O98C O 0.8276(6) 0.7891(3) 0.0995(3)
O99B O 1.3548(5) 0.3848(2) 0.4121(3)
O100B O 1.8709(6) 0.3836(2) 0.5034(4)
O102B O 1.7166(6) 0.3617(3) 0.6473(4)
O103B O 1.5835(6) 0.5137(2) 0.3135(4)
O104B O 1.3092(5) 0.4271(2) 0.0068(3)
O105B O 1.2442(7) 0.4968(2) 0.3045(3)
O106B O 1.2390(6) 0.5564(2) 0.2873(3)
O107B O 0.9813(5) 0.4360(3) 0.0646(4)
O108B O 1.1852(5) 0.5458(2) 0.0990(3)
O109B O 0.9467(5) 0.4771(2) 0.0087(3)
O110B O 1.3549(6) 0.4745(3) 0.0632(3)
O111B O 1.7846(6) 0.4692(3) 0.3739(4)
O112C O 0.1174(6) 0.8146(3) -0.4460(4)
O112B O 1.8826(6) 0.3146(3) 0.4460(4)
O113B O 1.1907(7) 0.5827(3) 0.1681(4)
O115B O 1.7967(7) 0.5264(3) 0.2258(5)
O116C O 0.2409(5) 0.7796(3) -0.2041(4)
O116B O 1.7591(5) 0.2796(3) 0.2041(4)
O117B O 1.5609(5) 0.3067(3) 0.0502(4)
O117C O 0.4391(5) 0.8067(3) -0.0502(4)
O118B O 1.8609(8) 0.4745(4) 0.2199(5)
O120B O 1.4058(6) 0.5888(2) 0.2328(4)
O121B O 1.6351(6) 0.3343(2) 0.1044(3)
O122B O 1.4610(6) 0.4941(3) 0.1213(3)
O123B O 1.8743(6) 0.3924(3) 0.5867(3)
O124B O 1.2109(5) 0.30775(19) 0.0574(3)
O124C O 0.7891(5) 0.80775(19) -0.0574(3)
O125B O 1.4830(5) 0.4718(2) 0.2311(3)
O126C O 0.5008(4) 0.7796(2) -0.4347(3)
O126B O 1.4992(4) 0.2796(2) 0.4347(3)
O128B O 1.2515(5) 0.3274(2) 0.2434(3)
O129B O 1.5838(5) 0.3279(2) 0.2555(3)
O130B O 1.1236(5) 0.3198(3) -0.0439(3)
O131B O 1.6524(5) 0.3361(2) 0.4562(3)
O132B O 1.4095(5) 0.4387(2) 0.2722(3)
O133A O 1.4994(6) 0.2500 0.3626(4)
O134B O 1.6566(5) 0.3791(2) 0.3996(3)
O135B O 1.2259(5) 0.3635(2) 0.0337(3)
O136B O 1.6058(5) 0.2875(2) 0.1953(3)
O136C O 0.3942(5) 0.7875(2) -0.1953(3)
O139B O 1.7677(7) 0.3130(3) 0.1139(5)
O140B O 1.9397(7) 0.3331(4) 0.6595(5)
O141B O 1.8152(8) 0.3104(3) 0.7025(4)
O142B O 1.8452(6) 0.3871(2) 0.6900(4)
O143B O 1.4176(5) 0.4511(3) 0.3804(3)
O144B O 1.5556(6) 0.3898(2) 0.4903(3)
O146B O 1.0482(6) 0.4125(3) 0.1532(4)
O147B O 1.3462(5) 0.3572(2) -0.0202(4)
O148B O 1.2875(6) 0.5384(2) 0.0401(3)
O149B O 1.2281(5) 0.3631(2) -0.0869(3)
O150B O 1.8726(6) 0.4089(3) 0.4121(4)
O151B O 1.0769(5) 0.3107(2) 0.1232(4)
O152B O 1.6020(6) 0.5238(2) 0.2044(3)
O153B O 1.6815(6) 0.3976(3) 0.1434(4)
O154B O 1.8328(6) 0.3474(3) 0.3570(4)
O156B O 1.5765(5) 0.4553(2) 0.1607(3)
O157B O 1.8072(6) 0.3429(3) 0.2364(5)
O159C O 0.7548(8) 0.8078(3) 0.1814(4)
O160B O 1.8202(6) 0.4100(3) 0.1844(4)
O161B O 1.2779(5) 0.6230(3) 0.2526(4)
O163B O 1.2175(7) 0.3718(3) 0.3688(4)
O164C O 0.5847(7) 0.7878(3) -0.5191(4)
O165B O 1.8357(8) 0.5397(3) 0.3268(5)
O166B O 1.1219(8) 0.4152(4) 0.3165(5)
O167B O 1.9126(7) 0.4735(4) 0.3224(6)
O168B O 1.3131(8) 0.6157(3) 0.1541(4)
O169C O 0.5406(6) 0.8064(3) 0.0250(4)
O170B O 1.1375(7) 0.3325(3) 0.3023(4)
O171B O 1.0239(6) 0.5136(3) 0.0948(3)
Cl1 Cl 0.2855(3) 0.7500 -0.35842(16)
O1 O 0.2284(9) 0.7500 -0.3922(7)
O2 O 0.2913(8) 0.7196(4) -0.3284(6)
O3 O 0.3436(15) 0.7500 -0.3844(10)
O2C O 0.2913(8) 0.7804(4) -0.3284(6)
loop_
_geom_bond_atom_site_label_1
_geom_bond_atom_site_label_2
_geom_bond_site_symmetry_1
_geom_bond_site_symmetry_2
Cl1 O1 1_555 1_555
O2 Cl1 1_555 1_555
O3 Cl1 1_555 1_555
Cl2 O4 1_555 1_555
O5 Cl2 1_555 1_555
O6 Cl2 1_555 1_555
O7 Cl2 1_555 1_555
Cl3 O8 1_555 1_555
O9 Cl3 1_555 1_555
O10 Cl3 1_555 1_555
Cl4 O11 1_555 1_555
O12 Cl4 1_555 1_555
O13 Cl4 1_555 1_555
O14 Cl4 1_555 1_555
Cl5 O15 1_555 1_555
O16 Cl5 1_555 1_555
O17 Cl5 1_555 1_555
O18 Cl5 1_555 1_555
Cl6 O19 1_555 1_555
O20 Cl6 1_555 1_555
O21 Cl6 1_555 1_555
O22 Cl6 1_555 1_555
Cl7 O23 1_555 1_555
O24 Cl7 1_555 1_555
O25 Cl7 1_555 1_555
O26 Cl7 1_555 1_555
Cl8 O27 1_555 1_555
O28 Cl8 1_555 1_555
O29 Cl8 1_555 1_555
O30 Cl8 1_555 1_555
Cl9 O31 1_555 1_555
O32 Cl9 1_555 1_555
O33 Cl9 1_555 1_555
O34 Cl9 1_555 1_555
Cl11 O35 1_555 1_555
O36 Cl11 1_555 1_555
O37 Cl11 1_555 1_555
O38 Cl11 1_555 1_555
Cl12 O39 1_555 1_555
O40 Cl12 1_555 1_555
O41 Cl12 1_555 1_555
O42 Cl12 1_555 1_555
Cl15 O43 1_555 1_555
O44 Cl15 1_555 1_555
O45 Cl15 1_555 1_555
Gd1 O46 1_555 1_555
Gd2 O46 1_555 1_555
Gd3 O55 1_555 1_555
Gd4 O47 1_555 1_555
Gd5 O50 1_555 1_555
Gd6 O48 1_555 1_555
Gd7 O51 1_555 1_555
Gd8 O57 1_555 1_555
Gd9 O48 1_555 1_555
Gd10 O49 1_555 1_555
Gd11 O61 1_555 1_555
Gd12 O56 1_555 1_555
Gd13 O51 1_555 1_555
Gd14 O52 1_555 1_555
Gd15 O52 1_555 1_555
Gd16 O56 1_555 1_555
Gd17 O49 1_555 1_555
Gd18 O70 1_555 1_555
Gd19 O62 1_555 1_555
Gd20 O62 1_555 1_555
Gd21 O71 1_555 1_555
Gd22 O52 1_555 1_555
Gd23 O79 1_555 1_555
Gd24 O62 1_555 1_555
Co1 O72 1_555 1_555
Co2 O49 1_555 1_555
Co3 O60 1_555 1_555
Co4 O54 1_555 1_555
Co5 O53 1_555 1_555
Co6 O60 1_555 1_555
C1 O91 1_555 1_555
C2 O89 1_555 1_555
C3 O127 1_555 1_555
C4 O85 1_555 1_555
C5 O86 1_555 1_555
C6 O96 1_555 1_555
C7 C8 1_555 1_555
C8 C8C 1_555 1_555
C9 H1 1_555 1_555
H2 C9 1_555 1_555
H3 C9 1_555 1_555
C10 C9 1_555 1_555
C11 H4 1_555 1_555
H5 C11 1_555 1_555
H6 C11 1_555 1_555
C12 C11 1_555 1_555
C13 H7 1_555 1_555
H8 C13 1_555 1_555
H9 C13 1_555 1_555
C14 C13 1_555 1_555
C15 H10 1_555 1_555
H11 C15 1_555 1_555
H12 C15 1_555 1_555
C16 C15 1_555 1_555
C17 H13 1_555 1_555
H14 C17 1_555 1_555
H15 C17 1_555 1_555
C18 C17 1_555 1_555
C19 H16 1_555 1_555
H17 C19 1_555 1_555
H18 C19 1_555 1_555
C20 C19 1_555 1_555
C21 C22 1_555 1_555
C22 C24 1_555 1_555
C23 C21 1_555 1_555
C24 O110 1_555 1_555
C25 H19 1_555 1_555
H20 C25 1_555 1_555
H21 C25 1_555 1_555
C26 C25 1_555 1_555
C27 H22 1_555 1_555
H23 C27 1_555 1_555
H24 C27 1_555 1_555
C28 C27 1_555 1_555
C29 H25 1_555 1_555
H26 C29 1_555 1_555
H27 C29 1_555 1_555
C30 C29 1_555 1_555
C31 H28 1_555 1_555
H29 C31 1_555 1_555
H30 C31 1_555 1_555
C32 C31 1_555 1_555
C33 H31 1_555 1_555
H32 C33 1_555 1_555
H33 C33 1_555 1_555
C34 C33 1_555 1_555
C35 C36 1_555 1_555
C36 O87 1_555 1_555
C37 H34 1_555 1_555
H35 C37 1_555 1_555
H36 C37 1_555 1_555
C38 C37 1_555 1_555
C39 C40 1_555 1_555
C40 O116 1_555 1_555
C41 H37 1_555 1_555
H38 C41 1_555 1_555
H39 C41 1_555 1_555
C42 C41 1_555 1_555
C43 O126 1_555 1_555
O46 Gd2C 1_555 1_555
O47 Gd1 1_555 1_555
H40 O47 1_555 1_555
O48 Gd2 1_555 1_555
H41 O48 1_555 1_555
O49 H42 1_555 1_555
O50 Gd6 1_555 1_555
H43 O50 1_555 1_555
O51 Gd10 1_555 1_555
H44 O51 1_555 1_555
O52 H45 1_555 1_555
O53 Gd15 1_555 1_555
H46 O53 1_555 1_555
O54 Gd13 1_555 1_555
H47 O54 1_555 1_555
O55 Gd1 1_555 1_555
H48 O55 1_555 1_555
O56 Gd3 1_555 1_555
H49 O56 1_555 1_555
O57 Gd14 1_555 1_555
H50 O57 1_555 1_555
O58 Gd14 1_555 1_555
H51 O58 1_555 1_555
O59 Gd14 1_555 1_555
H52 O59 1_555 1_555
O60 H53 1_555 1_555
O61 Gd17 1_555 1_555
H54 O61 1_555 1_555
O62 H55 1_555 1_555
O63 Gd5 1_555 1_555
H56 O63 1_555 1_555
O64 Gd3 1_555 1_555
H57 O64 1_555 1_555
O65 Gd3 1_555 1_555
H58 O65 1_555 1_555
O66 Gd6 1_555 1_555
H59 O66 1_555 1_555
O67 Gd8 1_555 1_555
H60 O67 1_555 1_555
O68 Gd4 1_555 1_555
H61 O68 1_555 1_555
O69 Gd2 1_555 1_555
H62 O69 1_555 1_555
O70 Gd20 1_555 1_555
H63 O70 1_555 1_555
O71 Gd12 1_555 1_555
H64 O71 1_555 1_555
O72 Gd1 1_555 1_555
H65 O72 1_555 1_555
O73 Gd2 1_555 1_555
H66 O73 1_555 1_555
O74 Gd10 1_555 1_555
H67 O74 1_555 1_555
O75 Gd5 1_555 1_555
H68 O75 1_555 1_555
O76 Gd7 1_555 1_555
H69 O76 1_555 1_555
O77 Gd2 1_555 1_555
H70 O77 1_555 1_555
O78 Gd10 1_555 1_555
H71 O78 1_555 1_555
O79 Gd17 1_555 1_555
H72 O79 1_555 1_555
O80 Gd13 1_555 1_555
H73 O80 1_555 1_555
O81 Gd7 1_555 1_555
O82 Gd5 1_555 1_555
H74 O82 1_555 1_555
O83 Gd13 1_555 1_555
H75 O83 1_555 1_555
O84 Gd6 1_555 1_555
O85 Gd4 1_555 1_555
O86 Gd1 1_555 1_555
O87 Gd4 1_555 1_555
O88 Co4 1_555 1_555
O89 Gd5 1_555 1_555
O90 Co2 1_555 1_555
O91 Gd20 1_555 1_555
O92 Gd19 1_555 1_555
O93 Gd14 1_555 1_555
O94 Gd11 1_555 1_555
O95 Gd18 1_555 1_555
O96 Gd18 1_555 1_555
O97 Gd7 1_555 1_555
O98 Gd16 1_555 1_555
O99 Gd9 1_555 1_555
O100 Co5 1_555 1_555
O101 Gd15 1_555 1_555
O102 Gd22 1_555 1_555
O103 Gd19 1_555 1_555
O104 Co2 1_555 1_555
O105 Gd13 1_555 1_555
O106 Gd23 1_555 1_555
O107 Gd11 1_555 1_555
O108 Gd17 1_555 1_555
O109 Gd11 1_555 1_555
O110 Gd17 1_555 1_555
O111 Gd18 1_555 1_555
O112 Co5 1_555 1_555
O113 Gd23 1_555 1_555
O114 Gd15 1_555 1_555
O115 Gd24 1_555 1_555
O116 Co3 1_555 1_555
O117 Co6 1_555 1_555
O118 Gd24 1_555 1_555
O119 Gd15 1_555 1_555
O120 Gd23 1_555 1_555
O121 Co3 1_555 1_555
O122 Co4 1_555 1_555
O123 Gd22 1_555 1_555
O124 Gd3 1_555 1_555
O125 Gd19 1_555 1_555
O126 Gd6 1_555 1_555
O127 Gd1 1_555 1_555
O128 Gd4 1_555 1_555
O129 Gd2 1_555 1_555
O130 Gd16 1_555 1_555
O131 Gd6 1_555 1_555
O132 Gd9 1_555 1_555
O133 Gd2 1_555 1_555
O134 Gd5 1_555 1_555
O135 Gd16 1_555 1_555
O136 Co1 1_555 1_555
O137 Co1 1_555 1_555
O138 Gd12 1_555 1_555
O139 Co3 1_555 1_555
O140 Gd22 1_555 1_555
O141 Gd22 1_555 1_555
O142 Gd22 1_555 1_555
O143 Gd9 1_555 1_555
O144 Gd6 1_555 1_555
O145 Gd8 1_555 1_555
O146 Gd10 1_555 1_555
O147 Gd16 1_555 1_555
O148 Gd17 1_555 1_555
O149 Gd16 1_555 1_555
O150 Gd18 1_555 1_555
O151 Gd4 1_555 1_555
O152 Gd19 1_555 1_555
O153 Gd20 1_555 1_555
O154 Gd18 1_555 1_555
O155 Gd12 1_555 1_555
O156 Gd19 1_555 1_555
O157 Gd20 1_555 1_555
O158 Gd21 1_555 1_555
O159 Gd21 1_555 1_555
O160 Gd20 1_555 1_555
O161 Gd23 1_555 1_555
O162 Gd21 1_555 1_555
O163 Gd7 1_555 1_555
O164 Gd8 1_555 1_555
O165 Gd24 1_555 1_555
O166 Gd7 1_555 1_555
O167 Gd24 1_555 1_555
O168 Gd23 1_555 1_555
O169 Gd12 1_555 1_555
O170 Gd7 1_555 1_555
O171 Gd11 1_555 1_555
O172 Co6 1_555 1_555
O2C Cl1 1_555 1_555
O8C Cl3 1_555 1_555
O44C Cl15 1_555 1_555
Gd1A O46A 1_555 1_555
Gd2B O46A 1_555 1_555
Gd2C O77 1_555 1_555
Gd3A O55B 1_555 1_555
Gd4B O47A 1_555 1_555
Gd4C O47 1_555 1_555
Gd5B O50B 1_555 1_555
Gd6B O48B 1_555 1_555
Gd6C O66C 1_555 1_555
Gd7B O51B 1_555 1_555
Gd8A O57A 1_555 1_555
Gd9B O48B 1_555 1_555
Gd10B O49B 1_555 1_555
Gd11B O109 1_555 1_555
Gd12A O56B 1_555 1_555
Gd13B O51B 1_555 1_555
Gd14B O52B 1_555 1_555
Gd14C O57 1_555 1_555
Gd15A O52B 1_555 1_555
Gd16B O56B 1_555 1_555
Gd16C O64 1_555 1_555
Gd17B O49B 1_555 1_555
Gd18B O70B 1_555 1_555
Gd19B O62B 1_555 1_555
Gd20B O62B 1_555 1_555
Gd21A O71B 1_555 1_555
Gd22B O52B 1_555 1_555
Gd23B O79B 1_555 1_555
Gd24B O62B 1_555 1_555
Co1A O72B 1_555 1_555
Co2B O49B 1_555 1_555
Co3B O60A 1_555 1_555
Co3C O60 1_555 1_555
Co4B O54B 1_555 1_555
Co5B O53B 1_555 1_555
Co5C O53C 1_555 1_555
Co6A O60A 1_555 1_555
C1B O91B 1_555 1_555
C2B O89B 1_555 1_555
C4B O85B 1_555 1_555
C5B O86B 1_555 1_555
C6B O96B 1_555 1_555
C7C O119 1_555 1_555
C8C C7C 1_555 1_555
C9B H1B 1_555 1_555
H2B C9B 1_555 1_555
H3B C9B 1_555 1_555
C10B C9B 1_555 1_555
C11B H4B 1_555 1_555
H5B C11B 1_555 1_555
H6B C11B 1_555 1_555
C12B C11B 1_555 1_555
C13B H7B 1_555 1_555
H8B C13B 1_555 1_555
H9B C13B 1_555 1_555
C14B C13B 1_555 1_555
C15B H10B 1_555 1_555
H11B C15B 1_555 1_555
H12B C15B 1_555 1_555
C16B C15B 1_555 1_555
C17B H13B 1_555 1_555
H14B C17B 1_555 1_555
H15B C17B 1_555 1_555
C18B C17B 1_555 1_555
C19B H16B 1_555 1_555
H17B C19B 1_555 1_555
H18B C19B 1_555 1_555
C20B C19B 1_555 1_555
C21B C22B 1_555 1_555
C22B C24B 1_555 1_555
C23B C21B 1_555 1_555
C24B O110B 1_555 1_555
C25B H19B 1_555 1_555
H20B C25B 1_555 1_555
H21B C25B 1_555 1_555
C26B C25B 1_555 1_555
C27B H22B 1_555 1_555
H23B C27B 1_555 1_555
H24B C27B 1_555 1_555
C28B C27B 1_555 1_555
C29B H25B 1_555 1_555
H26B C29B 1_555 1_555
H27B C29B 1_555 1_555
C30B C29B 1_555 1_555
C31B H28B 1_555 1_555
H29B C31B 1_555 1_555
H30B C31B 1_555 1_555
C32B C31B 1_555 1_555
C33B H31B 1_555 1_555
H32B C33B 1_555 1_555
H33B C33B 1_555 1_555
C34B C33B 1_555 1_555
C37B H34B 1_555 1_555
H35B C37B 1_555 1_555
H36B C37B 1_555 1_555
C38B C37B 1_555 1_555
C41B H37B 1_555 1_555
H38B C41B 1_555 1_555
H39B C41B 1_555 1_555
C42B C41B 1_555 1_555
O47A Gd1A 1_555 1_555
O48B Gd2B 1_555 1_555
H41B O48B 1_555 1_555
O49B H42B 1_555 1_555
O50B Gd6B 1_555 1_555
H43B O50B 1_555 1_555
O51B Gd10B 1_555 1_555
H44B O51B 1_555 1_555
O52B H45B 1_555 1_555
O52C Gd15 1_555 1_555
O53B Gd15A 1_555 1_555
O53C Gd15 1_555 1_555
H46B O53B 1_555 1_555
O54B Gd13B 1_555 1_555
H47B O54B 1_555 1_555
O55B Gd1A 1_555 1_555
O55C Gd1 1_555 1_555
H48B O55B 1_555 1_555
O56B Gd3A 1_555 1_555
O56C Gd3 1_555 1_555
H49B O56B 1_555 1_555
O57A Gd14B 1_555 1_555
O58B Gd14B 1_555 1_555
O58C Gd15 1_555 1_555
H51B O58B 1_555 1_555
O59B Gd14B 1_555 1_555
H52B O59B 1_555 1_555
O61B Gd11B 1_555 1_555
H54B O61B 1_555 1_555
O62B H55B 1_555 1_555
O63B Gd5B 1_555 1_555
H56B O63B 1_555 1_555
O64A Gd3A 1_555 1_555
O65A Gd3A 1_555 1_555
O66B Gd6B 1_555 1_555
O66C Gd8 1_555 1_555
H59B O66B 1_555 1_555
O67A Gd8A 1_555 1_555
O68B Gd4B 1_555 1_555
H61B O68B 1_555 1_555
O69B Gd2B 1_555 1_555
H62B O69B 1_555 1_555
O70B Gd20B 1_555 1_555
H63B O70B 1_555 1_555
O71B Gd12A 1_555 1_555
O71C Gd12 1_555 1_555
H64B O71B 1_555 1_555
O72B Gd1A 1_555 1_555
O72C Gd1 1_555 1_555
H65B O72B 1_555 1_555
O73B Gd2B 1_555 1_555
H66B O73B 1_555 1_555
O74B Gd10B 1_555 1_555
H67B O74B 1_555 1_555
O75B Gd5B 1_555 1_555
H68B O75B 1_555 1_555
O76B Gd7B 1_555 1_555
H69B O76B 1_555 1_555
O77A Gd2B 1_555 1_555
O78B Gd10B 1_555 1_555
H71B O78B 1_555 1_555
O79B Gd17B 1_555 1_555
H72B O79B 1_555 1_555
O80B Gd13B 1_555 1_555
H73B O80B 1_555 1_555
O81B Gd7B 1_555 1_555
O82B Gd5B 1_555 1_555
H74B O82B 1_555 1_555
O83B Gd13B 1_555 1_555
H75B O83B 1_555 1_555
O84B Gd6B 1_555 1_555
O85B Gd4B 1_555 1_555
O86B Gd1A 1_555 1_555
O86C Gd1 1_555 1_555
O87C C36 1_555 1_555
O87B Gd4B 1_555 1_555
O88B Co4B 1_555 1_555
O89B Gd5B 1_555 1_555
O90B Co2B 1_555 1_555
O91B Gd20B 1_555 1_555
O92B Gd19B 1_555 1_555
O93B Gd14B 1_555 1_555
O94B Gd11B 1_555 1_555
O95B Gd18B 1_555 1_555
O96B Gd18B 1_555 1_555
O97B Gd7B 1_555 1_555
O98B Gd16B 1_555 1_555
O98C Gd21 1_555 1_555
O99B Gd9B 1_555 1_555
O100B Co5B 1_555 1_555
O102B Gd22B 1_555 1_555
O103B Gd19B 1_555 1_555
O104B Co2B 1_555 1_555
O105B Gd13B 1_555 1_555
O106B Gd23B 1_555 1_555
O107B Gd11B 1_555 1_555
O108B Gd17B 1_555 1_555
O109B Gd11 1_555 1_555
O110B Gd17B 1_555 1_555
O111B Gd18B 1_555 1_555
O112C Co5C 1_555 1_555
O112B Co5B 1_555 1_555
O113B Gd23B 1_555 1_555
O115B Gd24B 1_555 1_555
O116C C40 1_555 1_555
O116B Co3B 1_555 1_555
O117B Co6A 1_555 1_555
O117C Co6 1_555 1_555
O118B Gd24B 1_555 1_555
O120B Gd23B 1_555 1_555
O121B Co3B 1_555 1_555
O122B Co4B 1_555 1_555
O123B Gd22B 1_555 1_555
O124B Gd3A 1_555 1_555
O124C Gd3 1_555 1_555
O125B Gd19B 1_555 1_555
O126C Gd8 1_555 1_555
O126B Gd6B 1_555 1_555
O128B Gd4B 1_555 1_555
O129B Gd2B 1_555 1_555
O130B Gd16B 1_555 1_555
O131B Gd6B 1_555 1_555
O132B Gd9B 1_555 1_555
O133A Gd2B 1_555 1_555
O134B Gd5B 1_555 1_555
O135B Gd16B 1_555 1_555
O136B Co1A 1_555 1_555
O136C Co1 1_555 1_555
O139B Co3B 1_555 1_555
O140B Gd22B 1_555 1_555
O141B Gd22B 1_555 1_555
O142B Gd22B 1_555 1_555
O143B Gd9B 1_555 1_555
O144B Gd6B 1_555 1_555
O146B Gd10B 1_555 1_555
O147B Gd16B 1_555 1_555
O148B Gd17B 1_555 1_555
O149B Gd16B 1_555 1_555
O150B Gd18B 1_555 1_555
O151B Gd4B 1_555 1_555
O152B Gd19B 1_555 1_555
O153B Gd20B 1_555 1_555
O154B Gd18B 1_555 1_555
O156B Gd19B 1_555 1_555
O157B Gd20B 1_555 1_555
O159C Gd21 1_555 1_555
O160B Gd20B 1_555 1_555
O161B Gd23B 1_555 1_555
O163B Gd7B 1_555 1_555
O164C Gd8 1_555 1_555
O165B Gd24B 1_555 1_555
O166B Gd7B 1_555 1_555
O167B Gd24B 1_555 1_555
O168B Gd23B 1_555 1_555
O169C Gd12 1_555 1_555
O170B Gd7B 1_555 1_555
O171B Gd11B 1_555 1_555
Gd2 O72 1_555 1_555
Gd2 O86 1_555 1_555
Gd3 O127 1_555 1_555
Gd3 O55C 1_555 1_555
Gd4 O55 1_555 1_555
Gd4 O65 1_555 1_555
Gd5 O69 1_555 1_555
Gd5 O73 1_555 1_555
Gd5 O129 1_555 1_555
Gd6 O69 1_555 1_555
Gd7 O68 1_555 1_555
Gd7 O128 1_555 1_555
Gd8 O66 1_555 1_555
Gd8 O126 1_555 1_555
Gd9 O50 1_555 1_555
Gd9 O73 1_555 1_555
Gd9 O81 1_555 1_555
Gd9 O97 1_555 1_555
Gd10 O68 1_555 1_555
Gd10 O76 1_555 1_555
Gd10 O85 1_555 1_555
Gd11 O74 1_555 1_555
Gd11 O78 1_555 1_555
Gd12 O56C 1_555 1_555
Gd13 O76 1_555 1_555
Gd13 O81 1_555 1_555
Gd13 O132 1_555 1_555
Gd14 O66 1_555 1_555
Gd14 O67 1_555 1_555
Gd14 O131 1_555 1_555
Gd15 O58 1_555 1_555
Gd16 O64 1_555 1_555
Gd16 O71 1_555 1_555
Gd16 O124 1_555 1_555
Gd17 O54 1_555 1_555
Gd17 O74 1_555 1_555
Gd17 O80 1_555 1_555
Gd18 O75 1_555 1_555
Gd18 O82 1_555 1_555
Gd18 O134 1_555 1_555
Gd19 O63 1_555 1_555
Gd19 O75 1_555 1_555
Gd19 O89 1_555 1_555
Gd20 O63 1_555 1_555
Gd20 O82 1_555 1_555
Gd21 O98 1_555 1_555
Gd21 O71C 1_555 1_555
Gd22 O53 1_555 1_555
Gd22 O59 1_555 1_555
Gd23 O80 1_555 1_555
Gd23 O83 1_555 1_555
Gd24 O70 1_555 1_555
Gd24 O92 1_555 1_555
Gd24 O111 1_555 1_555
Co1 O77 1_555 1_555
Co1 O72C 1_555 1_555
Co2 O61 1_555 1_555
Co2 O78 1_555 1_555
Co2 O135 1_555 1_555
Co3 O91 1_555 1_555
Co3 O136 1_555 1_555
Co4 O79 1_555 1_555
Co4 O83 1_555 1_555
Co4 O125 1_555 1_555
Co5 O58 1_555 1_555
Co5 O59 1_555 1_555
Co5 O96 1_555 1_555
Co6 O137 1_555 1_555
Co6 O138 1_555 1_555
C1 O129 1_555 1_555
C1 O136 1_555 1_555
C2 O125 1_555 1_555
C2 O132 1_555 1_555
C3 O137 1_555 1_555
C3 O138 1_555 1_555
C4 O124 1_555 1_555
C4 O135 1_555 1_555
C5 O97 1_555 1_555
C5 O128 1_555 1_555
C6 O131 1_555 1_555
C6 O134 1_555 1_555
C7 O112 1_555 1_555
C7 O119 1_555 1_555
C10 O98 1_555 1_555
C10 O130 1_555 1_555
C12 O90 1_555 1_555
C12 O94 1_555 1_555
C14 O88 1_555 1_555
C14 O120 1_555 1_555
C16 O92 1_555 1_555
C16 O103 1_555 1_555
C18 O108 1_555 1_555
C18 O113 1_555 1_555
C20 O105 1_555 1_555
C20 O106 1_555 1_555
C23 O104 1_555 1_555
C23 O110 1_555 1_555
C24 O122 1_555 1_555
C26 O93 1_555 1_555
C26 O102 1_555 1_555
C28 O100 1_555 1_555
C28 O123 1_555 1_555
C30 O95 1_555 1_555
C30 O111 1_555 1_555
C32 O84 1_555 1_555
C32 O99 1_555 1_555
C34 O107 1_555 1_555
C34 O109 1_555 1_555
C38 O115 1_555 1_555
C38 O118 1_555 1_555
C42 O117 1_555 1_555
C42 O121 1_555 1_555
C43 O133 1_555 1_555
C43 O126C 1_555 1_555
O65 Gd4C 1_555 1_555
O67 Gd14C 1_555 1_555
O133 Gd2C 1_555 1_555
Gd2B O72B 1_555 1_555
Gd2B O86B 1_555 1_555
Gd2C O72C 1_555 1_555
Gd2C O86C 1_555 1_555
Gd4B O55B 1_555 1_555
Gd4B O65A 1_555 1_555
Gd4C O55C 1_555 1_555
Gd4C O87C 1_555 1_555
Gd5B O69B 1_555 1_555
Gd5B O73B 1_555 1_555
Gd5B O129B 1_555 1_555
Gd6B O69B 1_555 1_555
Gd6C O126C 1_555 1_555
Gd7B O68B 1_555 1_555
Gd7B O128B 1_555 1_555
Gd8A O66B 1_555 1_555
Gd8A O126B 1_555 1_555
Gd9B O50B 1_555 1_555
Gd9B O73B 1_555 1_555
Gd9B O81B 1_555 1_555
Gd9B O97B 1_555 1_555
Gd10B O68B 1_555 1_555
Gd10B O76B 1_555 1_555
Gd10B O85B 1_555 1_555
Gd11B O74B 1_555 1_555
Gd11B O78B 1_555 1_555
Gd11B O109B 1_555 1_555
Gd13B O76B 1_555 1_555
Gd13B O81B 1_555 1_555
Gd13B O132B 1_555 1_555
Gd14B O66B 1_555 1_555
Gd14B O67A 1_555 1_555
Gd14B O131B 1_555 1_555
Gd14C O52C 1_555 1_555
Gd14C O58C 1_555 1_555
Gd14C O66C 1_555 1_555
Gd15A O58B 1_555 1_555
Gd16B O64A 1_555 1_555
Gd16B O71B 1_555 1_555
Gd16B O124B 1_555 1_555
Gd16C O56C 1_555 1_555
Gd16C O71C 1_555 1_555
Gd16C O98C 1_555 1_555
Gd16C O124C 1_555 1_555
Gd17B O54B 1_555 1_555
Gd17B O61B 1_555 1_555
Gd17B O74B 1_555 1_555
Gd17B O80B 1_555 1_555
Gd18B O75B 1_555 1_555
Gd18B O82B 1_555 1_555
Gd18B O134B 1_555 1_555
Gd19B O63B 1_555 1_555
Gd19B O75B 1_555 1_555
Gd19B O89B 1_555 1_555
Gd20B O63B 1_555 1_555
Gd20B O82B 1_555 1_555
Gd21A O98B 1_555 1_555
Gd22B O53B 1_555 1_555
Gd22B O59B 1_555 1_555
Gd23B O80B 1_555 1_555
Gd23B O83B 1_555 1_555
Gd24B O70B 1_555 1_555
Gd24B O92B 1_555 1_555
Gd24B O111B 1_555 1_555
Co1A O77A 1_555 1_555
Co2B O61B 1_555 1_555
Co2B O78B 1_555 1_555
Co2B O135B 1_555 1_555
Co3B O91B 1_555 1_555
Co3B O136B 1_555 1_555
Co3C O116C 1_555 1_555
Co3C O136C 1_555 1_555
Co4B O79B 1_555 1_555
Co4B O83B 1_555 1_555
Co4B O125B 1_555 1_555
Co5B O58B 1_555 1_555
Co5B O59B 1_555 1_555
Co5B O96B 1_555 1_555
Co5C O58C 1_555 1_555
C1B O129B 1_555 1_555
C1B O136B 1_555 1_555
C2B O125B 1_555 1_555
C2B O132B 1_555 1_555
C4B O124B 1_555 1_555
C4B O135B 1_555 1_555
C5B O97B 1_555 1_555
C5B O128B 1_555 1_555
C6B O131B 1_555 1_555
C6B O134B 1_555 1_555
C7C O112C 1_555 1_555
C10B O98B 1_555 1_555
C10B O130B 1_555 1_555
C12B O90B 1_555 1_555
C12B O94B 1_555 1_555
C14B O88B 1_555 1_555
C14B O120B 1_555 1_555
C16B O92B 1_555 1_555
C16B O103B 1_555 1_555
C18B O108B 1_555 1_555
C18B O113B 1_555 1_555
C20B O105B 1_555 1_555
C20B O106B 1_555 1_555
C23B O104B 1_555 1_555
C23B O110B 1_555 1_555
C24B O122B 1_555 1_555
C26B O93B 1_555 1_555
C26B O102B 1_555 1_555
C28B O100B 1_555 1_555
C28B O123B 1_555 1_555
C30B O95B 1_555 1_555
C30B O111B 1_555 1_555
C32B O84B 1_555 1_555
C32B O99B 1_555 1_555
C34B O107B 1_555 1_555
C34B O109B 1_555 1_555
C38B O115B 1_555 1_555
C38B O118B 1_555 1_555
C42B O117B 1_555 1_555
C42B O121B 1_555 1_555

#END
