
#######################################################################
#
#                 Cambridge Crystallographic Data Centre
#                                CCDC 
#
#######################################################################
#
# If this CIF has been generated from an entry in the Cambridge 
# Structural Database, then it will include bibliographic, chemical, 
# crystal, experimental, refinement or atomic coordinate data resulting 
# from the CCDC's data processing and validation procedures.
#
#######################################################################

data_WAVJEK
_symmetry_cell_setting           monoclinic
_symmetry_space_group_name_H-M   'P 21/m'
_symmetry_Int_Tables_number      11
_space_group_name_Hall           '-P 2yb'
loop_
_symmetry_equiv_pos_site_id
_symmetry_equiv_pos_as_xyz
1 x,y,z
2 -x,1/2+y,-z
3 -x,-y,-z
4 x,1/2-y,z
_cell_length_a                   20.0757(11)
_cell_length_b                   36.4581(12)
_cell_length_c                   27.2538(9)
_cell_angle_alpha                90
_cell_angle_beta                 98.715(4)
_cell_angle_gamma                90
_cell_volume                     19717.3
loop_
_atom_site_label
_atom_site_type_symbol
_atom_site_fract_x
_atom_site_fract_y
_atom_site_fract_z
Cl2 Cl 0.4272(2) 0.37285(8) 0.13503(12)
O4 O 0.3803(8) 0.3646(3) 0.1658(6)
O5 O 0.4934(8) 0.3726(3) 0.1619(5)
O6 O 0.4243(7) 0.3428(3) 0.1026(5)
O7 O 0.4095(6) 0.4060(2) 0.1127(4)
Cl3 Cl 0.2846(4) 0.2500 0.3703(2)
O8 O 0.2362(15) 0.2500 0.3969(8)
O9 O 0.245(2) 0.2500 0.3208(11)
O10 O 0.3208(12) 0.2802(5) 0.3750(10)
O10C O 0.3208(12) 0.2198(5) 0.3750(10)
Cl4 Cl 0.4340(4) 0.45518(15) 0.5253(2)
O11 O 0.4854(13) 0.4467(6) 0.5660(8)
O12 O 0.4024(17) 0.4901(8) 0.5127(11)
O13 O 0.4595(8) 0.4467(4) 0.4801(4)
O14 O 0.369(2) 0.4380(10) 0.5231(13)
Cl5 Cl 0.2887(3) 0.50692(14) -0.09395(18)
O15 O 0.2371(4) 0.4960(3) -0.0664(4)
O16 O 0.2635(7) 0.5281(3) -0.1361(3)
O17 O 0.3408(5) 0.5253(4) -0.0600(5)
O18 O 0.3211(7) 0.4756(3) -0.1130(6)
Cl6 Cl 0.7339(3) 0.35520(17) -0.0101(2)
O19 O 0.7913(4) 0.3311(3) -0.0038(7)
O20 O 0.6734(4) 0.3335(3) -0.0194(8)
O21 O 0.7371(10) 0.3801(3) -0.0503(4)
O22 O 0.7345(11) 0.3755(4) 0.0354(4)
Cl7 Cl 0.4831(3) 0.58472(16) 0.0803(3)
O23 O 0.4409(10) 0.5651(6) 0.0418(7)
O24 O 0.4392(7) 0.6081(5) 0.1028(8)
O25 O 0.5206(7) 0.6127(4) 0.0591(6)
O26 O 0.5343(6) 0.5586(4) 0.0998(7)
Cl8 Cl -0.1071(8) 0.63334(19) 0.2466(3)
O27 O -0.1076(13) 0.6723(3) 0.2576(9)
O28 O -0.1622(15) 0.6340(5) 0.1983(7)
O29 O -0.0557(16) 0.5992(7) 0.2495(10)
O30 O -0.1553(17) 0.6122(8) 0.2869(11)
Cl9 Cl 0.1153(4) 0.43289(19) 0.4459(2)
O31 O 0.0677(5) 0.4513(4) 0.4719(5)
O32 O 0.1680(6) 0.4174(4) 0.4813(5)
O33 O 0.1439(7) 0.4599(3) 0.4163(5)
O34 O 0.0825(8) 0.4054(3) 0.4133(6)
Cl10 Cl -0.0561(3) 0.33887(19) 0.1667(3)
O35 O -0.0446(8) 0.3153(3) 0.1262(4)
O36 O 0.0070(4) 0.3482(4) 0.1968(5)
O37 O -0.0907(7) 0.3715(3) 0.1472(6)
O38 O -0.0962(6) 0.3189(4) 0.1973(5)
Dy1 Dy 0.36763(4) 0.2500 0.20031(3)
Dy2 Dy 0.48447(3) 0.300571(13) 0.294146(19)
Dy3 Dy 0.28442(5) 0.2500 0.07471(3)
Dy4 Dy 0.19724(3) 0.301857(13) 0.16516(2)
Dy5 Dy 0.58686(4) 0.380584(14) 0.31645(2)
Dy6 Dy 0.52659(4) 0.340120(14) 0.42831(2)
Dy7 Dy 0.21353(3) 0.381240(14) 0.26893(2)
Dy8 Dy 0.51703(5) 0.2500 0.51180(3)
Dy9 Dy 0.40613(3) 0.392301(13) 0.331972(19)
Dy10 Dy 0.17423(4) 0.409329(14) 0.14279(2)
Dy11 Dy 0.08167(4) 0.471676(14) 0.04185(2)
Dy12 Dy 0.39528(5) 0.2500 -0.02497(3)
Dy13 Dy 0.29644(4) 0.462659(14) 0.23995(2)
Dy14 Dy 0.66766(4) 0.303031(14) 0.53619(2)
Dy15 Dy 0.83200(6) 0.2500 0.56026(3)
Dy16 Dy 0.25290(4) 0.315821(14) -0.02672(2)
Dy17 Dy 0.26214(4) 0.495777(14) 0.10544(2)
Dy18 Dy 0.75667(4) 0.402394(16) 0.37675(2)
Dy19 Dy 0.60460(4) 0.467876(15) 0.25473(2)
Dy20 Dy 0.72510(4) 0.392467(17) 0.23898(2)
Dy21 Dy 0.24792(6) 0.2500 -0.13639(3)
Dy22 Dy 0.81427(4) 0.343018(16) 0.62598(2)
Dy23 Dy 0.29573(4) 0.565537(15) 0.21118(2)
Dy24 Dy 0.79342(4) 0.484640(19) 0.29739(3)
Ni1 Ni 0.53766(12) 0.2500 0.20225(7)
Ni2 Ni 0.21372(9) 0.42122(4) 0.02856(5)
Ni3 Ni 0.69005(10) 0.29789(4) 0.15642(6)
Ni4 Ni 0.41223(10) 0.50758(4) 0.18798(6)
Ni5 Ni 0.81132(10) 0.33606(4) 0.50454(6)
Ni6 Ni 0.58134(11) 0.2500 0.06010(7)
C1 C 0.6219(7) 0.3189(3) 0.2261(4)
C2 C 0.4683(6) 0.4503(3) 0.2657(4)
C3 C 0.4625(10) 0.2500 0.0989(6)
C4 C 0.2179(6) 0.3424(3) 0.0647(4)
C5 C 0.3166(7) 0.3294(3) 0.2603(4)
C6 C 0.6834(7) 0.3588(3) 0.4347(5)
C7 C 0.9311(19) 0.2709(8) 0.4133(12)
C8 C 0.8930(16) 0.2800(7) 0.4572(10)
C9 C 0.0568(8) 0.3022(4) -0.1208(6)
H1 H 0.0473 0.2776 -0.1346
H2 H 0.0559 0.3199 -0.1480
H3 H 0.0226 0.3089 -0.1003
C10 C 0.1246(8) 0.3026(3) -0.0898(4)
C11 C 0.0852(13) 0.4200(6) -0.1146(7)
H4 H 0.0408 0.4308 -0.1258
H5 H 0.0827 0.3933 -0.1187
H6 H 0.1180 0.4300 -0.1343
C12 C 0.1069(10) 0.4290(4) -0.0609(6)
C13 C 0.5234(12) 0.6051(6) 0.2465(8)
H7 H 0.5089 0.6278 0.2609
H8 H 0.5476 0.6110 0.2188
H9 H 0.5533 0.5914 0.2719
C14 C 0.4584(9) 0.5803(4) 0.2265(6)
C15 C 0.6594(9) 0.5618(3) 0.3536(5)
H10 H 0.6182 0.5730 0.3620
H11 H 0.6819 0.5791 0.3340
H12 H 0.6897 0.5558 0.3842
C16 C 0.6418(9) 0.5276(3) 0.3242(6)
C17 C 0.1043(11) 0.5928(4) 0.0971(8)
H13 H 0.0902 0.5827 0.0638
H14 H 0.1173 0.6185 0.0945
H15 H 0.0669 0.5911 0.1163
C18 C 0.1616(11) 0.5719(5) 0.1220(8)
C19 C 0.2107(16) 0.5343(4) 0.3577(7)
H16 H 0.2053 0.5109 0.3743
H17 H 0.1667 0.5463 0.3495
H18 H 0.2411 0.5502 0.3799
C20 C 0.2395(11) 0.5277(3) 0.3118(5)
C21 C 0.4214(14) 0.4485(6) 0.0084(9)
H19 H 0.4232 0.4292 -0.0165
H20 H 0.4292 0.4724 -0.0060
C22 C 0.3555(13) 0.4483(6) 0.0242(8)
C23 C 0.6045(11) 0.3922(5) 0.6434(6)
H21 H 0.5581 0.3883 0.6269
H22 H 0.6216 0.4154 0.6318
H23 H 0.6052 0.3933 0.6794
C24 C 0.6498(9) 0.3600(4) 0.6306(5)
C25 C 0.8966(10) 0.4419(4) 0.5432(6)
H24 H 0.9020 0.4458 0.5085
H25 H 0.9397 0.4461 0.5646
H26 H 0.8627 0.4589 0.5523
C26 C 0.8745(9) 0.4038(4) 0.5496(5)
C27 C 0.7704(10) 0.5108(4) 0.4523(6)
H27 H 0.7429 0.5296 0.4332
H28 H 0.8179 0.5183 0.4570
H29 H 0.7557 0.5078 0.4847
C28 C 0.7622(9) 0.4724(4) 0.4227(5)
C29 C 0.3121(9) 0.3593(4) 0.4744(6)
H30 H 0.3289 0.3462 0.5053
H31 H 0.2781 0.3442 0.4540
H32 H 0.2918 0.3825 0.4824
C30 C 0.3719(7) 0.3670(3) 0.4453(4)
C31 C -0.1310(10) 0.4350(5) 0.0319(7)
H33 H -0.1306 0.4146 0.0555
H34 H -0.1593 0.4549 0.0414
H35 H -0.1492 0.4264 -0.0016
C32 C -0.0642(9) 0.4480(3) 0.0324(5)
C33 C 0.0489(15) 0.2500 0.2681(9)
C34 C 0.0944(12) 0.2500 0.2286(7)
C35 C 1.0159(6) 0.2500 0.6790(7)
C36 C 0.9535(10) 0.2500 0.6399(9)
C37 C 0.8496(14) 0.2500 0.2705(8)
C38 C 0.7831(12) 0.2500 0.2315(8)
C39 C 0.5636(10) 0.3747(4) 0.0542(7)
H36 H 0.5904 0.3939 0.0731
H37 H 0.5158 0.3783 0.0566
H38 H 0.5701 0.3760 0.0193
C40 C 0.5867(8) 0.3361(3) 0.0759(5)
C41 C 0.4992(9) 0.2500 0.4062(5)
O39 O 0.4155(6) 0.2500 0.2830(3)
H39 H 0.3808 0.2500 0.3057
O40 O 0.2512(6) 0.2500 0.2099(4)
H40 H 0.2449 0.2500 0.2456
O41 O 0.4380(4) 0.33090(18) 0.3590(3)
H41 H 0.3992 0.3170 0.3689
O42 O 0.2567(4) 0.42967(19) 0.1001(3)
H42 H 0.3011 0.4172 0.1095
O43 O 0.5149(4) 0.39154(18) 0.3769(3)
H43 H 0.5262 0.4148 0.3956
O44 O 0.2735(4) 0.40261(18) 0.2034(2)
H44 H 0.3118 0.3877 0.1948
O45 O 0.7573(5) 0.28879(19) 0.6005(3)
H45 H 0.7409 0.2759 0.6288
O46 O 0.8664(5) 0.3116(2) 0.5662(3)
H46 H 0.9162 0.3153 0.5693
O47 O 0.3447(5) 0.46771(19) 0.1691(3)
H47 H 0.3645 0.4444 0.1585
O48 O 0.3049(4) 0.29034(17) 0.1429(3)
H48 H 0.3300 0.3130 0.1361
O49 O 0.3414(4) 0.28922(18) 0.0258(3)
H49 H 0.3722 0.3072 0.0454
O50 O 0.6271(7) 0.2500 0.4892(4)
H50 H 0.6305 0.2500 0.4530
O51 O 0.7612(5) 0.28786(18) 0.5015(3)
H51 H 0.7509 0.2771 0.4675
O52 O 0.7453(5) 0.35264(19) 0.5503(3)
H52 H 0.7260 0.3778 0.5444
O53 O 0.6706(7) 0.2500 0.1170(4)
H53 H 0.7076 0.2500 0.0962
O54 O 0.1917(4) 0.47773(18) 0.0289(3)
H54 H 0.1988 0.4917 -0.0015
O55 O 0.7127(5) 0.4572(2) 0.2343(3)
H55 H 0.7170 0.4667 0.2005
O56 O 0.6101(5) 0.40563(18) 0.2408(3)
H56 H 0.5791 0.3969 0.2108
O57 O 0.2317(7) 0.2500 -0.0127(4)
H57 H 0.1827 0.2500 -0.0097
O58 O 0.1857(6) 0.2500 0.1163(3)
H58 H 0.1427 0.2500 0.0923
O59 O 0.5512(5) 0.31118(19) 0.5127(3)
H59 H 0.5312 0.3257 0.5380
O60 O 0.6183(7) 0.2500 0.5737(4)
H60 H 0.6146 0.2500 0.6099
O61 O 0.1506(5) 0.36027(17) 0.1927(3)
H61 H 0.1014 0.3583 0.1947
O62 O 0.5713(5) 0.32430(19) 0.3559(3)
H62 H 0.6126 0.3086 0.3621
O63 O 0.7995(5) 0.4200(2) 0.3053(3)
H63 H 0.8468 0.4111 0.3061
O64 O 0.3175(5) 0.28761(19) -0.0793(3)
H64 H 0.3420 0.3061 -0.0969
O65 O 0.4647(4) 0.28738(17) 0.2079(3)
H65 H 0.4627 0.3089 0.1850
O66 O 0.4768(4) 0.36478(17) 0.2811(3)
H66 H 0.4655 0.3718 0.2453
O67 O 0.1519(5) 0.4712(2) 0.1188(3)
H67 H 0.1322 0.4854 0.1446
O68 O 0.6594(5) 0.4340(2) 0.3294(3)
H68 H 0.6403 0.4470 0.3564
O69 O 0.1833(5) 0.4387(2) 0.2238(3)
H69 H 0.1450 0.4538 0.2321
O70 O 0.5535(6) 0.2500 0.2780(4)
H70 H 0.6013 0.2500 0.2950
O71 O 0.1262(4) 0.41348(18) 0.0580(3)
H71 H 0.0972 0.3925 0.0443
O72 O 0.3407(5) 0.5399(2) 0.1467(3)
H72 H 0.3587 0.5578 0.1243
O73 O 0.2441(5) 0.50900(19) 0.1892(3)
H73 H 0.1948 0.5101 0.1913
O74 O 0.2956(5) 0.42356(18) 0.3077(3)
H74 H 0.2802 0.4364 0.3364
O75 O 0.6997(4) 0.3673(2) 0.3131(3)
H75 H 0.7104 0.3405 0.3166
O76 O 0.3622(5) 0.51671(18) 0.2477(3)
H76 H 0.3904 0.5214 0.2806
O77 O 0.4291(4) 0.35242(19) 0.4603(3)
O78 O 0.2090(4) 0.35212(18) 0.1077(3)
O79 O 0.3630(4) 0.30916(18) 0.2514(3)
O80 O 0.1163(5) 0.2809(2) 0.2136(3)
O81 O 0.4786(5) 0.5498(2) 0.2080(3)
O82 O 0.5200(5) 0.4386(2) 0.2952(3)
O83 O 0.1653(5) 0.41541(19) -0.0432(3)
O84 O 0.6706(5) 0.3380(2) 0.2147(3)
O85 O 0.6836(6) 0.5122(2) 0.3038(4)
O86 O 0.6286(5) 0.3364(2) 0.5993(3)
O87 O 0.0723(5) 0.4485(2) -0.0394(3)
O88 O 0.7400(5) 0.4459(2) 0.4421(3)
O89 O 0.7489(5) 0.3591(2) 0.4431(3)
O90 O 0.3240(5) 0.35549(19) 0.2911(3)
O91 O 0.1769(5) 0.2902(2) -0.1026(3)
O92 O 0.3556(5) 0.38401(18) 0.4040(3)
O93 O 0.8641(5) 0.3845(2) 0.5123(3)
O94 O 0.8824(8) 0.2500 0.6492(5)
O95 O 0.7126(5) 0.3623(2) 0.6496(3)
O96 O 0.5824(6) 0.5148(2) 0.3150(3)
O97 O 0.3068(5) 0.4289(2) 0.0056(3)
O98 O 0.2510(6) 0.4964(2) 0.3004(3)
O99 O 0.2476(5) 0.5560(2) 0.2829(3)
O100 O -0.0102(5) 0.4317(2) 0.0543(3)
O101 O 0.1865(6) 0.5464(2) 0.0964(3)
O102 O -0.0490(5) 0.4756(2) 0.0042(3)
O103 O 0.3549(5) 0.4778(2) 0.0626(3)
O104 O 0.7784(5) 0.4708(2) 0.3791(3)
O105 O 0.8738(5) 0.3159(3) 0.4580(3)
O106 O 0.1877(6) 0.5833(2) 0.1712(4)
O107 O 0.9554(9) 0.2500 0.5870(7)
O108 O 0.8174(7) 0.4109(3) 0.1985(5)
O109 O 0.7624(6) 0.2798(2) 0.2145(4)
O110 O 0.5577(6) 0.3088(3) 0.0546(4)
O111 O 0.8570(7) 0.4680(4) 0.2317(6)
O112 O 0.8867(7) 0.2500 0.4868(5)
O113 O 0.4041(6) 0.5909(2) 0.2304(4)
O114 O 0.6316(6) 0.3354(2) 0.1112(3)
O115 O 0.4575(5) 0.4944(2) 0.1259(3)
O116 O 0.8634(6) 0.3934(2) 0.5915(3)
O117 O 0.2180(5) 0.30814(18) 0.0533(3)
O118 O 0.4820(5) 0.47381(19) 0.2320(3)
O119 O 0.4995(5) 0.27975(18) 0.4315(3)
O120 O 0.4073(6) 0.2500 0.1141(4)
O121 O 0.2546(5) 0.3268(2) 0.2365(3)
O122 O 0.5864(5) 0.32864(19) 0.2582(3)
O123 O 0.1321(5) 0.3196(2) -0.0463(3)
O124 O 0.6480(5) 0.33660(19) 0.4580(3)
O125 O 0.4102(4) 0.43869(18) 0.2682(3)
O126 O 0.4994(7) 0.2500 0.3613(4)
O127 O 0.6555(5) 0.38061(19) 0.4028(3)
O128 O 0.2295(5) 0.36517(18) 0.0302(3)
O129 O 0.6113(5) 0.2883(2) 0.1992(3)
O130 O 0.5187(6) 0.2500 0.1251(4)
O131 O 0.4674(6) 0.2500 0.0518(4)
O132 O 0.7696(4) 0.3144(3) 0.1244(4)
O133 O 0.9328(6) 0.3352(3) 0.6629(4)
O134 O 0.8177(7) 0.3074(3) 0.7030(3)
O135 O 0.8387(6) 0.3880(2) 0.6941(3)
O136 O 0.4173(5) 0.45074(19) 0.3759(3)
O137 O 0.5545(5) 0.3905(2) 0.4860(3)
O138 O 0.4911(10) 0.2500 0.5949(6)
O139 O 0.0539(5) 0.4113(2) 0.1458(4)
O140 O 0.3469(5) 0.3582(2) -0.0180(3)
O141 O 0.2866(5) 0.5402(2) 0.0394(3)
O142 O 0.2302(5) 0.3640(2) -0.0880(3)
O143 O 0.8675(5) 0.4122(2) 0.4243(3)
O144 O 0.0872(5) 0.3091(2) 0.1142(3)
O145 O 0.6015(5) 0.5242(2) 0.2093(3)
O146 O 0.6802(6) 0.4000(2) 0.1513(3)
O147 O 0.8288(6) 0.3495(2) 0.3651(3)
O148 O 0.4490(10) 0.2500 -0.1000(5)
O149 O 0.5770(6) 0.4569(2) 0.1643(3)
O150 O 0.8070(6) 0.3438(3) 0.2554(4)
O151 O 0.1583(9) 0.2500 -0.2025(5)
O152 O 0.2524(6) 0.3072(3) -0.1813(4)
O153 O 0.7895(6) 0.5301(3) 0.2333(4)
O154 O 0.2797(6) 0.6242(2) 0.2512(3)
O155 O 0.3424(11) 0.2500 -0.1747(6)
O156 O 0.2217(6) 0.3694(3) 0.3599(3)
O157 O 0.4154(7) 0.2882(3) 0.5131(4)
O158 O 0.8276(7) 0.5436(3) 0.3351(5)
O159 O 0.1299(10) 0.4138(4) 0.3044(6)
O160 O 0.9104(7) 0.4750(3) 0.3359(6)
O161 O 0.3073(9) 0.6173(3) 0.1518(4)
O162 O 0.4590(6) 0.3077(3) -0.0215(3)
O163 O 0.1322(7) 0.3342(3) 0.2863(4)
O164 O 0.0233(5) 0.5095(2) 0.0937(3)
O165 O 0.6388(5) 0.2500 0.0048(4)
Dy2C Dy 0.48447(3) 0.199429(13) 0.294146(19)
Dy4C Dy 0.19724(3) 0.198143(13) 0.16516(2)
Dy5C Dy 0.58686(4) 0.119416(14) 0.31645(2)
Dy6C Dy 0.52659(4) 0.159880(14) 0.42831(2)
Dy7C Dy 0.21353(3) 0.118760(14) 0.26893(2)
Dy9C Dy 0.40613(3) 0.107699(13) 0.331972(19)
Dy10C Dy 0.17423(4) 0.090671(14) 0.14279(2)
Dy11C Dy 0.08167(4) 0.028324(14) 0.04185(2)
Dy11B Dy -0.08167(4) 0.528324(14) -0.04185(2)
Dy13C Dy 0.29644(4) 0.037341(14) 0.23995(2)
Dy14C Dy 0.66766(4) 0.196969(14) 0.53619(2)
Dy16C Dy 0.25290(4) 0.184179(14) -0.02672(2)
Dy17C Dy 0.26214(4) 0.004223(14) 0.10544(2)
Dy18C Dy 0.75667(4) 0.097606(16) 0.37675(2)
Dy19C Dy 0.60460(4) 0.032124(15) 0.25473(2)
Dy20C Dy 0.72510(4) 0.107533(17) 0.23898(2)
Dy22C Dy 0.81427(4) 0.156982(16) 0.62598(2)
Dy23C Dy 0.29573(4) -0.065537(15) 0.21118(2)
Dy24C Dy 0.79342(4) 0.015360(19) 0.29739(3)
Ni2C Ni 0.21372(9) 0.07878(4) 0.02856(5)
Ni3C Ni 0.69005(10) 0.20211(4) 0.15642(6)
Ni4C Ni 0.41223(10) -0.00758(4) 0.18798(6)
Ni5C Ni 0.81132(10) 0.16394(4) 0.50454(6)
C1C C 0.6219(7) 0.1811(3) 0.2261(4)
C2C C 0.4683(6) 0.0497(3) 0.2657(4)
C4C C 0.2179(6) 0.1576(3) 0.0647(4)
C5C C 0.3166(7) 0.1706(3) 0.2603(4)
C6C C 0.6834(7) 0.1412(3) 0.4347(5)
C7C C 0.9311(19) 0.2291(8) 0.4133(12)
C8C C 0.8930(16) 0.2200(7) 0.4572(10)
C9C C 0.0568(8) 0.1978(4) -0.1208(6)
H1C H 0.0473 0.2224 -0.1346
H2C H 0.0559 0.1801 -0.1480
H3C H 0.0226 0.1911 -0.1003
C10C C 0.1246(8) 0.1974(3) -0.0898(4)
C11C C 0.0852(13) 0.0800(6) -0.1146(7)
H4C H 0.0408 0.0692 -0.1258
H5C H 0.0827 0.1067 -0.1187
H6C H 0.1180 0.0700 -0.1343
C12C C 0.1069(10) 0.0710(4) -0.0609(6)
C13C C 0.5234(12) -0.1051(6) 0.2465(8)
H7C H 0.5089 -0.1278 0.2609
H8C H 0.5476 -0.1110 0.2188
H9C H 0.5533 -0.0914 0.2719
C14C C 0.4584(9) -0.0803(4) 0.2265(6)
C15C C 0.6594(9) -0.0618(3) 0.3536(5)
H10C H 0.6182 -0.0730 0.3620
H11C H 0.6819 -0.0791 0.3340
H12C H 0.6897 -0.0558 0.3842
C16C C 0.6418(9) -0.0276(3) 0.3242(6)
C17C C 0.1043(11) -0.0928(4) 0.0971(8)
H13C H 0.0902 -0.0827 0.0638
H14C H 0.1173 -0.1185 0.0945
H15C H 0.0669 -0.0911 0.1163
C18C C 0.1616(11) -0.0719(5) 0.1220(8)
C19C C 0.2107(16) -0.0343(4) 0.3577(7)
H16C H 0.2053 -0.0109 0.3743
H17C H 0.1667 -0.0463 0.3495
H18C H 0.2411 -0.0502 0.3799
C20C C 0.2395(11) -0.0277(3) 0.3118(5)
C21C C 0.4214(14) 0.0515(6) 0.0084(9)
H19C H 0.4232 0.0708 -0.0165
H20C H 0.4292 0.0276 -0.0060
C22C C 0.3555(13) 0.0517(6) 0.0242(8)
C23C C 0.6045(11) 0.1078(5) 0.6434(6)
H21C H 0.5581 0.1117 0.6269
H22C H 0.6216 0.0846 0.6318
H23C H 0.6052 0.1067 0.6794
C24C C 0.6498(9) 0.1400(4) 0.6306(5)
C25C C 0.8966(10) 0.0581(4) 0.5432(6)
H24C H 0.9020 0.0542 0.5085
H25C H 0.9397 0.0539 0.5646
H26C H 0.8627 0.0411 0.5523
C26C C 0.8745(9) 0.0962(4) 0.5496(5)
C27C C 0.7704(10) -0.0108(4) 0.4523(6)
H27C H 0.7429 -0.0296 0.4332
H28C H 0.8179 -0.0183 0.4570
H29C H 0.7557 -0.0078 0.4847
C28C C 0.7622(9) 0.0276(4) 0.4227(5)
C29C C 0.3121(9) 0.1407(4) 0.4744(6)
H30C H 0.3289 0.1538 0.5053
H31C H 0.2781 0.1558 0.4540
H32C H 0.2918 0.1175 0.4824
C30C C 0.3719(7) 0.1330(3) 0.4453(4)
C31B C 0.1310(10) 0.5650(5) -0.0319(7)
H33B H 0.1306 0.5854 -0.0555
H34B H 0.1593 0.5451 -0.0414
H35B H 0.1492 0.5736 0.0016
C32B C 0.0642(9) 0.5520(3) -0.0324(5)
C39C C 0.5636(10) 0.1253(4) 0.0542(7)
H36C H 0.5904 0.1061 0.0731
H37C H 0.5158 0.1217 0.0566
H38C H 0.5701 0.1240 0.0193
C40C C 0.5867(8) 0.1639(3) 0.0759(5)
O41C O 0.4380(4) 0.16910(18) 0.3590(3)
H41C H 0.3992 0.1830 0.3689
O42C O 0.2567(4) 0.07033(19) 0.1001(3)
H42C H 0.3011 0.0828 0.1095
O43C O 0.5149(4) 0.10846(18) 0.3769(3)
H43C H 0.5262 0.0852 0.3956
O44C O 0.2735(4) 0.09739(18) 0.2034(2)
H44C H 0.3118 0.1123 0.1948
O45C O 0.7573(5) 0.21121(19) 0.6005(3)
H45C H 0.7409 0.2241 0.6288
O46C O 0.8664(5) 0.1884(2) 0.5662(3)
H46C H 0.9162 0.1847 0.5693
O47C O 0.3447(5) 0.03229(19) 0.1691(3)
H47C H 0.3645 0.0556 0.1585
O48C O 0.3049(4) 0.20966(17) 0.1429(3)
H48C H 0.3300 0.1870 0.1361
O49C O 0.3414(4) 0.21078(18) 0.0258(3)
H49C H 0.3722 0.1928 0.0454
O51C O 0.7612(5) 0.21214(18) 0.5015(3)
H51C H 0.7509 0.2229 0.4675
O52C O 0.7453(5) 0.14736(19) 0.5503(3)
H52C H 0.7260 0.1222 0.5444
O54C O 0.1917(4) 0.02227(18) 0.0289(3)
H54C H 0.1988 0.0083 -0.0015
O55C O 0.7127(5) 0.0428(2) 0.2343(3)
H55C H 0.7170 0.0333 0.2005
O56C O 0.6101(5) 0.09437(18) 0.2408(3)
H56C H 0.5791 0.1031 0.2108
O59C O 0.5512(5) 0.18882(19) 0.5127(3)
H59C H 0.5312 0.1743 0.5380
O61C O 0.1506(5) 0.13973(17) 0.1927(3)
H61C H 0.1014 0.1417 0.1947
O62C O 0.5713(5) 0.17570(19) 0.3559(3)
H62C H 0.6126 0.1914 0.3621
O63C O 0.7995(5) 0.0800(2) 0.3053(3)
H63C H 0.8468 0.0889 0.3061
O64C O 0.3175(5) 0.21239(19) -0.0793(3)
H64C H 0.3420 0.1939 -0.0969
O65C O 0.4647(4) 0.21262(17) 0.2079(3)
H65C H 0.4627 0.1911 0.1850
O66C O 0.4768(4) 0.13522(17) 0.2811(3)
H66C H 0.4655 0.1282 0.2453
O67C O 0.1519(5) 0.0288(2) 0.1188(3)
H67C H 0.1322 0.0146 0.1446
O68C O 0.6594(5) 0.0660(2) 0.3294(3)
H68C H 0.6403 0.0530 0.3564
O69C O 0.1833(5) 0.0613(2) 0.2238(3)
H69C H 0.1450 0.0462 0.2321
O71C O 0.1262(4) 0.08652(18) 0.0580(3)
H71C H 0.0972 0.1075 0.0443
O72C O 0.3407(5) -0.0399(2) 0.1467(3)
H72C H 0.3587 -0.0578 0.1243
O73C O 0.2441(5) -0.00900(19) 0.1892(3)
H73C H 0.1948 -0.0101 0.1913
O74C O 0.2956(5) 0.07644(18) 0.3077(3)
H74C H 0.2802 0.0636 0.3364
O75C O 0.6997(4) 0.1327(2) 0.3131(3)
H75C H 0.7104 0.1595 0.3166
O76C O 0.3622(5) -0.01671(18) 0.2477(3)
H76C H 0.3904 -0.0214 0.2806
O77C O 0.4291(4) 0.14758(19) 0.4603(3)
O78C O 0.2090(4) 0.14788(18) 0.1077(3)
O79C O 0.3630(4) 0.19084(18) 0.2514(3)
O80C O 0.1163(5) 0.2191(2) 0.2136(3)
O81C O 0.4786(5) -0.0498(2) 0.2080(3)
O82C O 0.5200(5) 0.0614(2) 0.2952(3)
O83C O 0.1653(5) 0.08459(19) -0.0432(3)
O84C O 0.6706(5) 0.1620(2) 0.2147(3)
O85C O 0.6836(6) -0.0122(2) 0.3038(4)
O86C O 0.6286(5) 0.1636(2) 0.5993(3)
O87C O 0.0723(5) 0.0515(2) -0.0394(3)
O88C O 0.7400(5) 0.0541(2) 0.4421(3)
O89C O 0.7489(5) 0.1409(2) 0.4431(3)
O90C O 0.3240(5) 0.14451(19) 0.2911(3)
O91C O 0.1769(5) 0.2098(2) -0.1026(3)
O92C O 0.3556(5) 0.11599(18) 0.4040(3)
O93C O 0.8641(5) 0.1155(2) 0.5123(3)
O95C O 0.7126(5) 0.1377(2) 0.6496(3)
O96C O 0.5824(6) -0.0148(2) 0.3150(3)
O97C O 0.3068(5) 0.0711(2) 0.0056(3)
O98C O 0.2510(6) 0.0036(2) 0.3004(3)
O99C O 0.2476(5) -0.0560(2) 0.2829(3)
O100B O 0.0102(5) 0.5683(2) -0.0543(3)
O100C O -0.0102(5) 0.0683(2) 0.0543(3)
O101C O 0.1865(6) -0.0464(2) 0.0964(3)
O102B O 0.0490(5) 0.5244(2) -0.0042(3)
O102A O 0.0490(5) -0.0244(2) -0.0042(3)
O103C O 0.3549(5) 0.0222(2) 0.0626(3)
O104C O 0.7784(5) 0.0292(2) 0.3791(3)
O105C O 0.8738(5) 0.1841(3) 0.4580(3)
O106C O 0.1877(6) -0.0833(2) 0.1712(4)
O108C O 0.8174(7) 0.0891(3) 0.1985(5)
O109C O 0.7624(6) 0.2202(2) 0.2145(4)
O110C O 0.5577(6) 0.1912(3) 0.0546(4)
O111C O 0.8570(7) 0.0320(4) 0.2317(6)
O113C O 0.4041(6) -0.0909(2) 0.2304(4)
O114C O 0.6316(6) 0.1646(2) 0.1112(3)
O115C O 0.4575(5) 0.0056(2) 0.1259(3)
O116C O 0.8634(6) 0.1066(2) 0.5915(3)
O117C O 0.2180(5) 0.19186(18) 0.0533(3)
O118C O 0.4820(5) 0.02619(19) 0.2320(3)
O119C O 0.4995(5) 0.22025(18) 0.4315(3)
O121C O 0.2546(5) 0.1732(2) 0.2365(3)
O122C O 0.5864(5) 0.17136(19) 0.2582(3)
O123C O 0.1321(5) 0.1804(2) -0.0463(3)
O124C O 0.6480(5) 0.16340(19) 0.4580(3)
O125C O 0.4102(4) 0.06131(18) 0.2682(3)
O127C O 0.6555(5) 0.11939(19) 0.4028(3)
O128C O 0.2295(5) 0.13483(18) 0.0302(3)
O129C O 0.6113(5) 0.2117(2) 0.1992(3)
O132C O 0.7696(4) 0.1856(3) 0.1244(4)
O133C O 0.9328(6) 0.1648(3) 0.6629(4)
O134C O 0.8177(7) 0.1926(3) 0.7030(3)
O135C O 0.8387(6) 0.1120(2) 0.6941(3)
O136C O 0.4173(5) 0.04926(19) 0.3759(3)
O137C O 0.5545(5) 0.1095(2) 0.4860(3)
O139C O 0.0539(5) 0.0887(2) 0.1458(4)
O140C O 0.3469(5) 0.1418(2) -0.0180(3)
O141C O 0.2866(5) -0.0402(2) 0.0394(3)
O142C O 0.2302(5) 0.1360(2) -0.0880(3)
O143C O 0.8675(5) 0.0878(2) 0.4243(3)
O144C O 0.0872(5) 0.1909(2) 0.1142(3)
O145C O 0.6015(5) -0.0242(2) 0.2093(3)
O146C O 0.6802(6) 0.1000(2) 0.1513(3)
O147C O 0.8288(6) 0.1505(2) 0.3651(3)
O149C O 0.5770(6) 0.0431(2) 0.1643(3)
O150C O 0.8070(6) 0.1562(3) 0.2554(4)
O152C O 0.2524(6) 0.1928(3) -0.1813(4)
O153C O 0.7895(6) -0.0301(3) 0.2333(4)
O154C O 0.2797(6) -0.1242(2) 0.2512(3)
O156C O 0.2217(6) 0.1306(3) 0.3599(3)
O157C O 0.4154(7) 0.2118(3) 0.5131(4)
O158C O 0.8276(7) -0.0436(3) 0.3351(5)
O159C O 0.1299(10) 0.0862(4) 0.3044(6)
O160C O 0.9104(7) 0.0250(3) 0.3359(6)
O161C O 0.3073(9) -0.1173(3) 0.1518(4)
O162C O 0.4590(6) 0.1923(3) -0.0215(3)
O163C O 0.1322(7) 0.1658(3) 0.2863(4)
O164C O 0.0233(5) -0.0095(2) 0.0937(3)
Cl1 Cl 0.7154(3) 0.2500 0.36236(17)
O1 O 0.6552(11) 0.2500 0.3876(8)
O2 O 0.7135(9) 0.2812(3) 0.3304(4)
O3 O 0.7714(11) 0.2500 0.3986(7)
O2C O 0.7135(9) 0.2188(3) 0.3304(4)
Cl11? Cl 0.0924(11) 0.2500 0.0166(6)
Cl12? Cl 0.0563(10) 0.5165(4) 0.2218(6)
Cl13? Cl 0.5851(7) 0.4585(2) 0.4065(4)
Cl14? Cl 0.0593(6) 0.3481(2) 0.0228(3)
Cl15? Cl 0.6789(7) 0.4216(2) 0.5183(4)
Cl16? Cl 0.4585(6) 0.5184(2) 0.3383(3)
H77? H 0.4561 0.4439 0.0371
C42? C 0.470(2) 0.4690(9) 0.0470(13)
C43? C 0.4266(19) 0.4794(8) 0.0820(12)
loop_
_geom_bond_atom_site_label_1
_geom_bond_atom_site_label_2
_geom_bond_site_symmetry_1
_geom_bond_site_symmetry_2
Cl1 O1 1_555 1_555
O2 Cl1 1_555 1_555
O3 Cl1 1_555 1_555
Cl2 O4 1_555 1_555
O5 Cl2 1_555 1_555
O6 Cl2 1_555 1_555
O7 Cl2 1_555 1_555
Cl3 O8 1_555 1_555
O9 Cl3 1_555 1_555
O10 Cl3 1_555 1_555
Cl4 O11 1_555 1_555
O12 Cl4 1_555 1_555
O13 Cl4 1_555 1_555
O14 Cl4 1_555 1_555
Cl5 O15 1_555 1_555
O16 Cl5 1_555 1_555
O17 Cl5 1_555 1_555
O18 Cl5 1_555 1_555
Cl6 O19 1_555 1_555
O20 Cl6 1_555 1_555
O21 Cl6 1_555 1_555
O22 Cl6 1_555 1_555
Cl7 O23 1_555 1_555
O24 Cl7 1_555 1_555
O25 Cl7 1_555 1_555
O26 Cl7 1_555 1_555
Cl8 O27 1_555 1_555
O28 Cl8 1_555 1_555
O29 Cl8 1_555 1_555
O30 Cl8 1_555 1_555
Cl9 O31 1_555 1_555
O32 Cl9 1_555 1_555
O33 Cl9 1_555 1_555
O34 Cl9 1_555 1_555
Cl10 O35 1_555 1_555
O36 Cl10 1_555 1_555
O37 Cl10 1_555 1_555
O38 Cl10 1_555 1_555
Dy1 O39 1_555 1_555
Dy2 O39 1_555 1_555
Dy3 O48 1_555 1_555
Dy4 O40 1_555 1_555
Dy5 O43 1_555 1_555
Dy6 O41 1_555 1_555
Dy7 O44 1_555 1_555
Dy8 O50 1_555 1_555
Dy9 O41 1_555 1_555
Dy10 O42 1_555 1_555
Dy11 O54 1_555 1_555
Dy12 O49 1_555 1_555
Dy13 O44 1_555 1_555
Dy14 O45 1_555 1_555
Dy15 O45 1_555 1_555
Dy16 O49 1_555 1_555
Dy17 O42 1_555 1_555
Dy18 O63 1_555 1_555
Dy19 O55 1_555 1_555
Dy20 O55 1_555 1_555
Dy21 O64 1_555 1_555
Dy22 O45 1_555 1_555
Dy23 O72 1_555 1_555
Dy24 O55 1_555 1_555
Ni1 O65 1_555 1_555
Ni2 O42 1_555 1_555
Ni3 O53 1_555 1_555
Ni4 O47 1_555 1_555
Ni5 O46 1_555 1_555
Ni6 O53 1_555 1_555
C1 O84 1_555 1_555
C2 O82 1_555 1_555
C3 O120 1_555 1_555
C4 O78 1_555 1_555
C5 O79 1_555 1_555
C6 O89 1_555 1_555
C7 C8 1_555 1_555
C8 O105 1_555 1_555
C9 H1 1_555 1_555
H2 C9 1_555 1_555
H3 C9 1_555 1_555
C10 C9 1_555 1_555
C11 H4 1_555 1_555
H5 C11 1_555 1_555
H6 C11 1_555 1_555
C12 C11 1_555 1_555
C13 H7 1_555 1_555
H8 C13 1_555 1_555
H9 C13 1_555 1_555
C14 C13 1_555 1_555
C15 H10 1_555 1_555
H11 C15 1_555 1_555
H12 C15 1_555 1_555
C16 C15 1_555 1_555
C17 H13 1_555 1_555
H14 C17 1_555 1_555
H15 C17 1_555 1_555
C18 C17 1_555 1_555
C19 H16 1_555 1_555
H17 C19 1_555 1_555
H18 C19 1_555 1_555
C20 C19 1_555 1_555
C21 H19 1_555 1_555
H20 C21 1_555 1_555
C22 C21 1_555 1_555
C23 H21 1_555 1_555
H22 C23 1_555 1_555
H23 C23 1_555 1_555
C24 C23 1_555 1_555
C25 H24 1_555 1_555
H25 C25 1_555 1_555
H26 C25 1_555 1_555
C26 C25 1_555 1_555
C27 H27 1_555 1_555
H28 C27 1_555 1_555
H29 C27 1_555 1_555
C28 C27 1_555 1_555
C29 H30 1_555 1_555
H31 C29 1_555 1_555
H32 C29 1_555 1_555
C30 C29 1_555 1_555
C31 H33 1_555 1_555
H34 C31 1_555 1_555
H35 C31 1_555 1_555
C32 C31 1_555 1_555
C33 C34 1_555 1_555
C34 O80 1_555 1_555
C35 C36 1_555 1_555
C36 O94 1_555 1_555
C37 C38 1_555 1_555
C38 O109 1_555 1_555
C39 H36 1_555 1_555
H37 C39 1_555 1_555
H38 C39 1_555 1_555
C40 C39 1_555 1_555
C41 O119 1_555 1_555
O39 H39 1_555 1_555
O40 Dy1 1_555 1_555
H40 O40 1_555 1_555
O41 Dy2 1_555 1_555
H41 O41 1_555 1_555
O42 H42 1_555 1_555
O43 Dy6 1_555 1_555
H43 O43 1_555 1_555
O44 Dy10 1_555 1_555
H44 O44 1_555 1_555
O45 H45 1_555 1_555
O46 Dy15 1_555 1_555
H46 O46 1_555 1_555
O47 Dy13 1_555 1_555
H47 O47 1_555 1_555
O48 Dy1 1_555 1_555
H48 O48 1_555 1_555
O49 Dy3 1_555 1_555
H49 O49 1_555 1_555
O50 Dy14 1_555 1_555
H50 O50 1_555 1_555
O51 Dy14 1_555 1_555
H51 O51 1_555 1_555
O52 Dy14 1_555 1_555
H52 O52 1_555 1_555
O53 H53 1_555 1_555
O54 Dy17 1_555 1_555
H54 O54 1_555 1_555
O55 H55 1_555 1_555
O56 Dy5 1_555 1_555
H56 O56 1_555 1_555
O57 Dy3 1_555 1_555
H57 O57 1_555 1_555
O58 Dy3 1_555 1_555
H58 O58 1_555 1_555
O59 Dy6 1_555 1_555
H59 O59 1_555 1_555
O60 Dy8 1_555 1_555
H60 O60 1_555 1_555
O61 Dy4 1_555 1_555
H61 O61 1_555 1_555
O62 Dy2 1_555 1_555
H62 O62 1_555 1_555
O63 Dy20 1_555 1_555
H63 O63 1_555 1_555
O64 Dy12 1_555 1_555
H64 O64 1_555 1_555
O65 Dy1 1_555 1_555
H65 O65 1_555 1_555
O66 Dy2 1_555 1_555
H66 O66 1_555 1_555
O67 Dy10 1_555 1_555
H67 O67 1_555 1_555
O68 Dy5 1_555 1_555
H68 O68 1_555 1_555
O69 Dy7 1_555 1_555
H69 O69 1_555 1_555
O70 Dy2 1_555 1_555
H70 O70 1_555 1_555
O71 Dy10 1_555 1_555
H71 O71 1_555 1_555
O72 Dy17 1_555 1_555
H72 O72 1_555 1_555
O73 Dy13 1_555 1_555
H73 O73 1_555 1_555
O74 Dy7 1_555 1_555
H74 O74 1_555 1_555
O75 Dy5 1_555 1_555
H75 O75 1_555 1_555
O76 Dy13 1_555 1_555
H76 O76 1_555 1_555
O77 Dy6 1_555 1_555
O78 Dy4 1_555 1_555
O79 Dy1 1_555 1_555
O80 Dy4 1_555 1_555
O81 Ni4 1_555 1_555
O82 Dy5 1_555 1_555
O83 Ni2 1_555 1_555
O84 Dy20 1_555 1_555
O85 Dy19 1_555 1_555
O86 Dy14 1_555 1_555
O87 Dy11 1_555 1_555
O88 Dy18 1_555 1_555
O89 Dy18 1_555 1_555
O90 Dy7 1_555 1_555
O91 Dy16 1_555 1_555
O92 Dy9 1_555 1_555
O93 Ni5 1_555 1_555
O94 Dy15 1_555 1_555
O95 Dy22 1_555 1_555
O96 Dy19 1_555 1_555
O97 Ni2 1_555 1_555
O98 Dy13 1_555 1_555
O99 Dy23 1_555 1_555
O100 Dy11 1_555 1_555
O101 Dy17 1_555 1_555
O102 C32 1_555 1_555
O103 Dy17 1_555 1_555
O104 Dy18 1_555 1_555
O105 Ni5 1_555 1_555
O106 Dy23 1_555 1_555
O107 Dy15 1_555 1_555
O108 Dy20 1_555 1_555
O109 Ni3 1_555 1_555
O110 Ni6 1_555 1_555
O111 Dy24 1_555 1_555
O112 Dy15 1_555 1_555
O113 Dy23 1_555 1_555
O114 Ni3 1_555 1_555
O115 Ni4 1_555 1_555
O116 Dy22 1_555 1_555
O117 Dy3 1_555 1_555
O118 Dy19 1_555 1_555
O119 Dy6 1_555 1_555
O120 Dy1 1_555 1_555
O121 Dy4 1_555 1_555
O122 Dy2 1_555 1_555
O123 Dy16 1_555 1_555
O124 Dy6 1_555 1_555
O125 Dy9 1_555 1_555
O126 Dy2 1_555 1_555
O127 Dy5 1_555 1_555
O128 Dy16 1_555 1_555
O129 Ni1 1_555 1_555
O130 Ni1 1_555 1_555
O131 Dy12 1_555 1_555
O132 Ni3 1_555 1_555
O133 Dy22 1_555 1_555
O134 Dy22 1_555 1_555
O135 Dy22 1_555 1_555
O136 Dy9 1_555 1_555
O137 Dy6 1_555 1_555
O138 Dy8 1_555 1_555
O139 Dy10 1_555 1_555
O140 Dy16 1_555 1_555
O141 Dy17 1_555 1_555
O142 Dy16 1_555 1_555
O143 Dy18 1_555 1_555
O144 Dy4 1_555 1_555
O145 Dy19 1_555 1_555
O146 Dy20 1_555 1_555
O147 Dy18 1_555 1_555
O148 Dy12 1_555 1_555
O149 Dy19 1_555 1_555
O150 Dy20 1_555 1_555
O151 Dy21 1_555 1_555
O152 Dy21 1_555 1_555
O153 Dy24 1_555 1_555
O154 Dy23 1_555 1_555
O155 Dy21 1_555 1_555
O156 Dy7 1_555 1_555
O157 Dy8 1_555 1_555
O158 Dy24 1_555 1_555
O159 Dy7 1_555 1_555
O160 Dy24 1_555 1_555
O161 Dy23 1_555 1_555
O162 Dy12 1_555 1_555
O163 Dy7 1_555 1_555
O164 Dy11 1_555 1_555
O165 Ni6 1_555 1_555
O2C Cl1 1_555 1_555
O10C Cl3 1_555 1_555
Dy2C O39 1_555 1_555
Dy4C O40 1_555 1_555
Dy5C O43C 1_555 1_555
Dy6C O41C 1_555 1_555
Dy7C O44C 1_555 1_555
Dy9C O41C 1_555 1_555
Dy10C O42C 1_555 1_555
Dy11C O54C 1_555 1_555
Dy11B O102 1_555 1_555
Dy13C O44C 1_555 1_555
Dy14C O50 1_555 1_555
Dy16C O57 1_555 1_555
Dy17C O42C 1_555 1_555
Dy18C O63C 1_555 1_555
Dy19C O55C 1_555 1_555
Dy20C O55C 1_555 1_555
Dy22C O45C 1_555 1_555
Dy23C O72C 1_555 1_555
Dy24C O55C 1_555 1_555
Ni2C O42C 1_555 1_555
Ni3C O53 1_555 1_555
Ni4C O47C 1_555 1_555
Ni5C O46C 1_555 1_555
C1C O84C 1_555 1_555
C2C O82C 1_555 1_555
C4C O78C 1_555 1_555
C5C O79C 1_555 1_555
C6C O89C 1_555 1_555
C7C C7 1_555 1_555
C8C O112 1_555 1_555
C9C H1C 1_555 1_555
H2C C9C 1_555 1_555
H3C C9C 1_555 1_555
C10C C9C 1_555 1_555
C11C H4C 1_555 1_555
H5C C11C 1_555 1_555
H6C C11C 1_555 1_555
C12C C11C 1_555 1_555
C13C H7C 1_555 1_555
H8C C13C 1_555 1_555
H9C C13C 1_555 1_555
C14C C13C 1_555 1_555
C15C H10C 1_555 1_555
H11C C15C 1_555 1_555
H12C C15C 1_555 1_555
C16C C15C 1_555 1_555
C17C H13C 1_555 1_555
H14C C17C 1_555 1_555
H15C C17C 1_555 1_555
C18C C17C 1_555 1_555
C19C H16C 1_555 1_555
H17C C19C 1_555 1_555
H18C C19C 1_555 1_555
C20C C19C 1_555 1_555
C21C H19C 1_555 1_555
H20C C21C 1_555 1_555
C22C C21C 1_555 1_555
C23C H21C 1_555 1_555
H22C C23C 1_555 1_555
H23C C23C 1_555 1_555
C24C C23C 1_555 1_555
C25C H24C 1_555 1_555
H25C C25C 1_555 1_555
H26C C25C 1_555 1_555
C26C C25C 1_555 1_555
C27C H27C 1_555 1_555
H28C C27C 1_555 1_555
H29C C27C 1_555 1_555
C28C C27C 1_555 1_555
C29C H30C 1_555 1_555
H31C C29C 1_555 1_555
H32C C29C 1_555 1_555
C30C C29C 1_555 1_555
C31B H33B 1_555 1_555
H34B C31B 1_555 1_555
H35B C31B 1_555 1_555
C32B C31B 1_555 1_555
C39C H36C 1_555 1_555
H37C C39C 1_555 1_555
H38C C39C 1_555 1_555
C40C C39C 1_555 1_555
O41C Dy2C 1_555 1_555
H41C O41C 1_555 1_555
O42C H42C 1_555 1_555
O43C Dy6C 1_555 1_555
H43C O43C 1_555 1_555
O44C Dy10C 1_555 1_555
H44C O44C 1_555 1_555
O45C Dy15 1_555 1_555
H45C O45C 1_555 1_555
O46C Dy15 1_555 1_555
H46C O46C 1_555 1_555
O47C Dy13C 1_555 1_555
H47C O47C 1_555 1_555
O48C Dy1 1_555 1_555
H48C O48C 1_555 1_555
O49C Dy3 1_555 1_555
H49C O49C 1_555 1_555
O51C Dy15 1_555 1_555
H51C O51C 1_555 1_555
O52C Dy14C 1_555 1_555
H52C O52C 1_555 1_555
O54C Dy17C 1_555 1_555
H54C O54C 1_555 1_555
O55C H55C 1_555 1_555
O56C Dy5C 1_555 1_555
H56C O56C 1_555 1_555
O59C Dy8 1_555 1_555
H59C O59C 1_555 1_555
O61C Dy4C 1_555 1_555
H61C O61C 1_555 1_555
O62C Dy2C 1_555 1_555
H62C O62C 1_555 1_555
O63C Dy20C 1_555 1_555
H63C O63C 1_555 1_555
O64C Dy12 1_555 1_555
H64C O64C 1_555 1_555
O65C Dy1 1_555 1_555
H65C O65C 1_555 1_555
O66C Dy2C 1_555 1_555
H66C O66C 1_555 1_555
O67C Dy10C 1_555 1_555
H67C O67C 1_555 1_555
O68C Dy5C 1_555 1_555
H68C O68C 1_555 1_555
O69C Dy7C 1_555 1_555
H69C O69C 1_555 1_555
O71C Dy10C 1_555 1_555
H71C O71C 1_555 1_555
O72C Dy17C 1_555 1_555
H72C O72C 1_555 1_555
O73C Dy13C 1_555 1_555
H73C O73C 1_555 1_555
O74C Dy7C 1_555 1_555
H74C O74C 1_555 1_555
O75C Dy5C 1_555 1_555
H75C O75C 1_555 1_555
O76C Dy13C 1_555 1_555
H76C O76C 1_555 1_555
O77C Dy6C 1_555 1_555
O78C Dy4C 1_555 1_555
O79C Dy1 1_555 1_555
O80C C34 1_555 1_555
O81C Ni4C 1_555 1_555
O82C Dy5C 1_555 1_555
O83C Ni2C 1_555 1_555
O84C Dy20C 1_555 1_555
O85C Dy19C 1_555 1_555
O86C Dy14C 1_555 1_555
O87C Dy11C 1_555 1_555
O88C Dy18C 1_555 1_555
O89C Dy18C 1_555 1_555
O90C Dy7C 1_555 1_555
O91C Dy21 1_555 1_555
O92C Dy9C 1_555 1_555
O93C Ni5C 1_555 1_555
O95C Dy22C 1_555 1_555
O96C Dy19C 1_555 1_555
O97C Ni2C 1_555 1_555
O98C Dy13C 1_555 1_555
O99C Dy23C 1_555 1_555
O100B Dy11B 1_555 1_555
O100C Dy11C 1_555 1_555
O101C Dy17C 1_555 1_555
O102B Dy11 1_555 1_555
O102A Dy11C 1_555 1_555
O103C Dy17C 1_555 1_555
O104C Dy18C 1_555 1_555
O105C Ni5C 1_555 1_555
O106C Dy23C 1_555 1_555
O108C Dy20C 1_555 1_555
O109C C38 1_555 1_555
O110C Ni6 1_555 1_555
O111C Dy24C 1_555 1_555
O113C Dy23C 1_555 1_555
O114C Ni3C 1_555 1_555
O115C Ni4C 1_555 1_555
O116C Dy22C 1_555 1_555
O117C Dy3 1_555 1_555
O118C Dy19C 1_555 1_555
O119C Dy8 1_555 1_555
O121C Dy4C 1_555 1_555
O122C Dy2C 1_555 1_555
O123C Dy16C 1_555 1_555
O124C Dy6C 1_555 1_555
O125C Dy9C 1_555 1_555
O127C Dy5C 1_555 1_555
O128C Dy16C 1_555 1_555
O129C Ni1 1_555 1_555
O132C Ni3C 1_555 1_555
O133C Dy22C 1_555 1_555
O134C Dy22C 1_555 1_555
O135C Dy22C 1_555 1_555
O136C Dy9C 1_555 1_555
O137C Dy6C 1_555 1_555
O139C Dy10C 1_555 1_555
O140C Dy16C 1_555 1_555
O141C Dy17C 1_555 1_555
O142C Dy16C 1_555 1_555
O143C Dy18C 1_555 1_555
O144C Dy4C 1_555 1_555
O145C Dy19C 1_555 1_555
O146C Dy20C 1_555 1_555
O147C Dy18C 1_555 1_555
O149C Dy19C 1_555 1_555
O150C Dy20C 1_555 1_555
O152C Dy21 1_555 1_555
O153C Dy24C 1_555 1_555
O154C Dy23C 1_555 1_555
O156C Dy7C 1_555 1_555
O157C Dy8 1_555 1_555
O158C Dy24C 1_555 1_555
O159C Dy7C 1_555 1_555
O160C Dy24C 1_555 1_555
O161C Dy23C 1_555 1_555
O162C Dy12 1_555 1_555
O163C Dy7C 1_555 1_555
O164C Dy11C 1_555 1_555
Dy2 O65 1_555 1_555
Dy2 O79 1_555 1_555
Dy3 O120 1_555 1_555
Dy3 O48C 1_555 1_555
Dy4 O48 1_555 1_555
Dy4 O58 1_555 1_555
Dy5 O62 1_555 1_555
Dy5 O66 1_555 1_555
Dy5 O122 1_555 1_555
Dy6 O62 1_555 1_555
Dy7 O61 1_555 1_555
Dy7 O121 1_555 1_555
Dy8 O59 1_555 1_555
Dy8 O119 1_555 1_555
Dy9 O43 1_555 1_555
Dy9 O66 1_555 1_555
Dy9 O74 1_555 1_555
Dy9 O90 1_555 1_555
Dy10 O61 1_555 1_555
Dy10 O69 1_555 1_555
Dy10 O78 1_555 1_555
Dy11 O67 1_555 1_555
Dy11 O71 1_555 1_555
Dy12 O49C 1_555 1_555
Dy13 O69 1_555 1_555
Dy13 O74 1_555 1_555
Dy13 O125 1_555 1_555
Dy14 O59 1_555 1_555
Dy14 O60 1_555 1_555
Dy14 O124 1_555 1_555
Dy15 O51 1_555 1_555
Dy16 O57 1_555 1_555
Dy16 O64 1_555 1_555
Dy16 O117 1_555 1_555
Dy17 O47 1_555 1_555
Dy17 O67 1_555 1_555
Dy17 O73 1_555 1_555
Dy18 O68 1_555 1_555
Dy18 O75 1_555 1_555
Dy18 O127 1_555 1_555
Dy19 O56 1_555 1_555
Dy19 O68 1_555 1_555
Dy19 O82 1_555 1_555
Dy20 O56 1_555 1_555
Dy20 O75 1_555 1_555
Dy21 O91 1_555 1_555
Dy21 O64C 1_555 1_555
Dy22 O46 1_555 1_555
Dy22 O52 1_555 1_555
Dy23 O73 1_555 1_555
Dy23 O76 1_555 1_555
Dy24 O63 1_555 1_555
Dy24 O85 1_555 1_555
Dy24 O104 1_555 1_555
Ni1 O70 1_555 1_555
Ni1 O65C 1_555 1_555
Ni2 O54 1_555 1_555
Ni2 O71 1_555 1_555
Ni2 O128 1_555 1_555
Ni3 O84 1_555 1_555
Ni3 O129 1_555 1_555
Ni4 O72 1_555 1_555
Ni4 O76 1_555 1_555
Ni4 O118 1_555 1_555
Ni5 O51 1_555 1_555
Ni5 O52 1_555 1_555
Ni5 O89 1_555 1_555
Ni6 O130 1_555 1_555
Ni6 O131 1_555 1_555
C1 O122 1_555 1_555
C1 O129 1_555 1_555
C2 O118 1_555 1_555
C2 O125 1_555 1_555
C3 O130 1_555 1_555
C3 O131 1_555 1_555
C4 O117 1_555 1_555
C4 O128 1_555 1_555
C5 O90 1_555 1_555
C5 O121 1_555 1_555
C6 O124 1_555 1_555
C6 O127 1_555 1_555
C8 O112 1_555 1_555
C10 O91 1_555 1_555
C10 O123 1_555 1_555
C12 O83 1_555 1_555
C12 O87 1_555 1_555
C14 O81 1_555 1_555
C14 O113 1_555 1_555
C16 O85 1_555 1_555
C16 O96 1_555 1_555
C18 O101 1_555 1_555
C18 O106 1_555 1_555
C20 O98 1_555 1_555
C20 O99 1_555 1_555
C22 O97 1_555 1_555
C22 O103 1_555 1_555
C24 O86 1_555 1_555
C24 O95 1_555 1_555
C26 O93 1_555 1_555
C26 O116 1_555 1_555
C28 O88 1_555 1_555
C28 O104 1_555 1_555
C30 O77 1_555 1_555
C30 O92 1_555 1_555
C32 O100 1_555 1_555
C36 O107 1_555 1_555
C40 O110 1_555 1_555
C40 O114 1_555 1_555
C41 O126 1_555 1_555
C41 O119C 1_555 1_555
O58 Dy4C 1_555 1_555
O60 Dy14C 1_555 1_555
O70 Dy2C 1_555 1_555
O126 Dy2C 1_555 1_555
Dy2C O65C 1_555 1_555
Dy2C O79C 1_555 1_555
Dy4C O48C 1_555 1_555
Dy4C O80C 1_555 1_555
Dy5C O62C 1_555 1_555
Dy5C O66C 1_555 1_555
Dy5C O122C 1_555 1_555
Dy6C O59C 1_555 1_555
Dy6C O62C 1_555 1_555
Dy6C O119C 1_555 1_555
Dy7C O61C 1_555 1_555
Dy7C O121C 1_555 1_555
Dy9C O43C 1_555 1_555
Dy9C O66C 1_555 1_555
Dy9C O74C 1_555 1_555
Dy9C O90C 1_555 1_555
Dy10C O61C 1_555 1_555
Dy10C O69C 1_555 1_555
Dy10C O78C 1_555 1_555
Dy11C O67C 1_555 1_555
Dy11C O71C 1_555 1_555
Dy13C O69C 1_555 1_555
Dy13C O74C 1_555 1_555
Dy13C O125C 1_555 1_555
Dy14C O45C 1_555 1_555
Dy14C O51C 1_555 1_555
Dy14C O59C 1_555 1_555
Dy14C O124C 1_555 1_555
Dy16C O49C 1_555 1_555
Dy16C O64C 1_555 1_555
Dy16C O91C 1_555 1_555
Dy16C O117C 1_555 1_555
Dy17C O47C 1_555 1_555
Dy17C O67C 1_555 1_555
Dy17C O73C 1_555 1_555
Dy18C O68C 1_555 1_555
Dy18C O75C 1_555 1_555
Dy18C O127C 1_555 1_555
Dy19C O56C 1_555 1_555
Dy19C O68C 1_555 1_555
Dy19C O82C 1_555 1_555
Dy20C O56C 1_555 1_555
Dy20C O75C 1_555 1_555
Dy22C O46C 1_555 1_555
Dy22C O52C 1_555 1_555
Dy23C O73C 1_555 1_555
Dy23C O76C 1_555 1_555
Dy24C O63C 1_555 1_555
Dy24C O85C 1_555 1_555
Dy24C O104C 1_555 1_555
Ni2C O54C 1_555 1_555
Ni2C O71C 1_555 1_555
Ni2C O128C 1_555 1_555
Ni3C O84C 1_555 1_555
Ni3C O109C 1_555 1_555
Ni3C O129C 1_555 1_555
Ni4C O72C 1_555 1_555
Ni4C O76C 1_555 1_555
Ni4C O118C 1_555 1_555
Ni5C O51C 1_555 1_555
Ni5C O52C 1_555 1_555
Ni5C O89C 1_555 1_555
C1C O122C 1_555 1_555
C1C O129C 1_555 1_555
C2C O118C 1_555 1_555
C2C O125C 1_555 1_555
C4C O117C 1_555 1_555
C4C O128C 1_555 1_555
C5C O90C 1_555 1_555
C5C O121C 1_555 1_555
C6C O124C 1_555 1_555
C6C O127C 1_555 1_555
C7C C8C 1_555 1_555
C8C O105C 1_555 1_555
C10C O91C 1_555 1_555
C10C O123C 1_555 1_555
C12C O83C 1_555 1_555
C12C O87C 1_555 1_555
C14C O81C 1_555 1_555
C14C O113C 1_555 1_555
C16C O85C 1_555 1_555
C16C O96C 1_555 1_555
C18C O101C 1_555 1_555
C18C O106C 1_555 1_555
C20C O98C 1_555 1_555
C20C O99C 1_555 1_555
C22C O97C 1_555 1_555
C22C O103C 1_555 1_555
C24C O86C 1_555 1_555
C24C O95C 1_555 1_555
C26C O93C 1_555 1_555
C26C O116C 1_555 1_555
C28C O88C 1_555 1_555
C28C O104C 1_555 1_555
C30C O77C 1_555 1_555
C30C O92C 1_555 1_555
C32B O100B 1_555 1_555
C32B O102B 1_555 1_555
C40C O110C 1_555 1_555
C40C O114C 1_555 1_555

#END
