
#######################################################################
#
#                 Cambridge Crystallographic Data Centre
#                                CCDC 
#
#######################################################################
#
# If this CIF has been generated from an entry in the Cambridge 
# Structural Database, then it will include bibliographic, chemical, 
# crystal, experimental, refinement or atomic coordinate data resulting 
# from the CCDC's data processing and validation procedures.
#
#######################################################################

data_WAVJAG
_symmetry_cell_setting           monoclinic
_symmetry_space_group_name_H-M   'P 21/m'
_symmetry_Int_Tables_number      11
_space_group_name_Hall           '-P 2yb'
loop_
_symmetry_equiv_pos_site_id
_symmetry_equiv_pos_as_xyz
1 x,y,z
2 -x,1/2+y,-z
3 -x,-y,-z
4 x,1/2-y,z
_cell_length_a                   19.5958(9)
_cell_length_b                   36.8464(10)
_cell_length_c                   27.0024(8)
_cell_angle_alpha                90
_cell_angle_beta                 96.293(4)
_cell_angle_gamma                90
_cell_volume                     19379.2
loop_
_atom_site_label
_atom_site_type_symbol
_atom_site_fract_x
_atom_site_fract_y
_atom_site_fract_z
Cl2 Cl 0.4241(3) 0.37146(10) 0.13699(17)
O4 O 0.3737(10) 0.3674(5) 0.1678(7)
O5 O 0.4865(8) 0.3709(4) 0.1627(6)
O6 O 0.4192(7) 0.3428(4) 0.1073(5)
O7 O 0.4097(7) 0.4049(3) 0.1139(5)
Cl3 Cl 0.2735(6) 0.2500 0.3772(4)
O8 O 0.217(3) 0.2500 0.4093(18)
O9 O 0.244(3) 0.2500 0.333(2)
O10 O 0.3126(13) 0.2787(6) 0.3894(9)
O10C O 0.3126(13) 0.2213(6) 0.3894(9)
Cl4 Cl 0.4339(5) 0.4561(2) 0.5286(3)
O11 O 0.4916(16) 0.4517(11) 0.5618(9)
O12 O 0.4004(15) 0.4877(7) 0.5242(11)
O13 O 0.4619(9) 0.4486(4) 0.4846(7)
O14 O 0.3755(15) 0.4370(7) 0.5231(10)
Cl5 Cl 0.7023(5) 0.49547(18) 0.0896(3)
O15 O 0.7334(10) 0.4730(5) 0.1238(7)
O16 O 0.7451(10) 0.5083(5) 0.0632(7)
O17 O 0.6617(17) 0.4720(9) 0.0583(9)
O18 O 0.6692(18) 0.5235(9) 0.1155(13)
Cl6 Cl 0.2644(3) 0.64181(18) 0.0133(3)
O19 O 0.3235(5) 0.6649(3) 0.0219(7)
O20 O 0.2704(10) 0.6125(3) 0.0487(4)
O21 O 0.2032(5) 0.6619(4) 0.0190(8)
O22 O 0.2604(12) 0.6276(5) -0.0365(3)
Cl7 Cl 0.4829(4) 0.58768(18) 0.0835(3)
O23 O 0.5200(8) 0.6152(4) 0.0599(7)
O24 O 0.4287(8) 0.5725(7) 0.0504(8)
O25 O 0.5333(7) 0.5618(4) 0.1032(10)
O26 O 0.4530(11) 0.6110(5) 0.1173(7)
Cl8 Cl 1.1099(3) 0.36882(18) -0.2460(3)
O27 O 1.0515(5) 0.3913(4) -0.2411(7)
O28 O 1.1518(6) 0.3853(4) -0.2801(5)
O29 O 1.0873(9) 0.3339(2) -0.2639(7)
O30 O 1.1499(7) 0.3649(5) -0.1984(4)
Cl9 Cl 0.0439(3) 0.51833(16) 0.2355(2)
O31 O 0.0801(7) 0.5455(3) 0.2668(5)
O32 O -0.0261(4) 0.5295(4) 0.2226(7)
O33 O 0.0815(6) 0.5137(4) 0.1931(3)
O34 O 0.0434(10) 0.4846(2) 0.2630(5)
Cl10 Cl 0.9005(3) 0.56356(18) -0.4563(2)
O35 O 0.9348(6) 0.5346(3) -0.4790(5)
O36 O 0.8591(7) 0.5838(4) -0.4938(5)
O37 O 0.9498(6) 0.5867(4) -0.4281(6)
O38 O 0.8577(6) 0.5482(5) -0.4211(5)
Cl11 Cl 1.0237(3) 0.63197(19) -0.2869(3)
O39 O 1.0198(10) 0.6481(4) -0.2385(3)
O40 O 1.0505(8) 0.6585(3) -0.3185(5)
O41 O 0.9569(4) 0.6201(5) -0.3074(7)
O42 O 1.0696(6) 0.6014(3) -0.2817(8)
Cl12 Cl 1.0784(6) 0.7500 -0.1347(5)
O43 O 1.0178(15) 0.7500 -0.1072(11)
O44 O 1.144(3) 0.7500 -0.1039(19)
O45 O 1.0720(15) 0.7148(7) -0.1609(11)
O45C O 1.0720(15) 0.7852(7) -0.1609(11)
Gd1 Gd 0.36196(6) 0.2500 0.20339(4)
Gd2 Gd 0.48116(5) 0.300323(19) 0.29559(3)
Gd3 Gd 0.27898(7) 0.2500 0.07780(4)
Gd4 Gd 0.18710(5) 0.301853(19) 0.17164(3)
Gd5 Gd 0.58770(5) 0.37979(2) 0.31502(3)
Gd6 Gd 0.52407(5) 0.33996(2) 0.43049(3)
Gd7 Gd 0.20330(5) 0.38105(2) 0.27665(3)
Gd8 Gd 0.51313(7) 0.2500 0.51470(4)
Gd9 Gd 0.40104(5) 0.392003(19) 0.33584(3)
Gd10 Gd 0.16471(5) 0.40879(2) 0.14773(3)
Gd11 Gd 0.07807(5) 0.47171(2) 0.04435(3)
Gd12 Gd 0.39655(7) 0.2500 -0.02556(4)
Gd13 Gd 0.29063(5) 0.46233(2) 0.24534(3)
Gd14 Gd 0.66978(5) 0.30338(2) 0.53432(3)
Gd15 Gd 0.83894(8) 0.2500 0.55301(5)
Gd16 Gd 0.25009(5) 0.31573(2) -0.02458(3)
Gd17 Gd 0.26018(5) 0.49401(2) 0.10836(3)
Gd18 Gd 0.76319(5) 0.40080(2) 0.37064(4)
Gd19 Gd 0.60560(5) 0.46671(2) 0.25137(3)
Gd20 Gd 0.72975(6) 0.39119(2) 0.23141(4)
Gd21 Gd 0.24730(8) 0.2500 -0.13607(5)
Gd22 Gd 0.82039(6) 0.34240(2) 0.62103(3)
Gd23 Gd 0.29140(6) 0.56441(2) 0.21425(3)
Gd24 Gd 0.79841(6) 0.48337(3) 0.29016(4)
Ni1 Ni 0.53591(16) 0.2500 0.20125(11)
Ni2 Ni 0.21213(12) 0.41983(5) 0.03270(8)
Ni3 Ni 0.68900(13) 0.29706(6) 0.15207(9)
Ni4 Ni 0.41144(12) 0.50576(5) 0.18944(8)
Ni5 Ni 0.81761(14) 0.33524(6) 0.49760(9)
Ni6 Ni 0.58298(15) 0.2500 0.05912(11)
C1 C 0.6206(8) 0.3174(4) 0.2230(5)
C2 C 0.4655(8) 0.4492(4) 0.2648(5)
C3 C 0.4575(12) 0.2500 0.0987(8)
C4 C 0.2135(8) 0.3420(4) 0.0697(5)
C5 C 0.3085(9) 0.3299(4) 0.2622(6)
C6 C 0.6887(8) 0.3579(4) 0.4323(5)
C7 C 0.9331(8) 0.2730(8) 0.4033(5)
C8 C 0.8947(10) 0.27994(17) 0.4476(5)
C9 C 0.0503(11) 0.3041(6) -0.1183(9)
H1 H 0.0321 0.2795 -0.1232
H2 H 0.0566 0.3149 -0.1507
H3 H 0.0178 0.3189 -0.1018
C10 C 0.1220(9) 0.3028(4) -0.0846(7)
C11 C 0.0914(13) 0.4099(6) -0.1104(8)
H4 H 0.1286 0.3946 -0.1200
H5 H 0.0830 0.4299 -0.1343
H6 H 0.0495 0.3954 -0.1102
C12 C 0.1121(12) 0.4258(6) -0.0569(8)
C13 C 0.5286(10) 0.6016(5) 0.2408(7)
H7 H 0.5703 0.5892 0.2329
H8 H 0.5321 0.6066 0.2766
H9 H 0.5233 0.6245 0.2223
C14 C 0.4659(9) 0.5772(4) 0.2261(6)
C15 C 0.6600(12) 0.5611(5) 0.3505(9)
H10 H 0.6904 0.5567 0.3811
H11 H 0.6174 0.5724 0.3587
H12 H 0.6828 0.5773 0.3286
C16 C 0.6432(10) 0.5249(4) 0.3237(7)
C17 C 0.1080(12) 0.6000(6) 0.0960(8)
H13 H 0.0957 0.5893 0.0629
H14 H 0.1286 0.6239 0.0924
H15 H 0.0666 0.6025 0.1130
C18 C 0.1611(14) 0.5745(7) 0.1275(10)
C19 C 0.1984(14) 0.5326(7) 0.3669(10)
H16 H 0.1957 0.5085 0.3820
H17 H 0.1524 0.5432 0.3616
H18 H 0.2284 0.5482 0.3893
C20 C 0.2284(10) 0.5291(5) 0.3160(7)
C21 C 0.3584(17) 0.4442(8) 0.0267(11)
C22 C 0.4240(17) 0.4430(8) 0.0075(12)
C23 C 0.6073(11) 0.3952(5) 0.6404(8)
H19 H 0.6354 0.4118 0.6624
H20 H 0.5674 0.3874 0.6567
H21 H 0.5917 0.4075 0.6091
C24 C 0.6499(10) 0.3621(5) 0.6298(7)
C25 C 0.8858(9) 0.4024(4) 0.5402(7)
C26 C 0.9083(11) 0.4398(5) 0.5326(8)
H22 H 0.9162 0.4431 0.4977
H23 H 0.9509 0.4445 0.5541
H24 H 0.8727 0.4567 0.5409
C27 C 0.7728(10) 0.5078(4) 0.4440(7)
H25 H 0.7458 0.5266 0.4253
H26 H 0.8217 0.5139 0.4460
H27 H 0.7589 0.5061 0.4777
C28 C 0.7607(10) 0.4724(5) 0.4184(7)
C29 C 0.3079(10) 0.3599(5) 0.4834(7)
H28 H 0.3254 0.3469 0.5138
H29 H 0.2722 0.3452 0.4645
H30 H 0.2883 0.3832 0.4921
C30 C 0.3662(9) 0.3665(4) 0.4518(6)
C31 C 0.1391(15) 0.5649(8) -0.0320(11)
H31 H 0.1370 0.5850 -0.0559
H32 H 0.1703 0.5461 -0.0420
H33 H 0.1559 0.5739 0.0013
C32 C 0.0699(12) 0.5493(5) -0.0311(8)
C33 C 0.0472(14) 0.2500 0.2836(10)
C34 C 0.0839(10) 0.2500 0.2388(7)
C35 C 0.8359(5) 0.5012(2) 0.2153(4)
C36 C 0.8637(13) 0.5107(11) 0.1669(6)
H34 H 0.8519 0.4914 0.1424
H35 H 0.9137 0.5132 0.1726
H36 H 0.8435 0.5336 0.1541
C37 C 0.8400(15) 0.2500 0.2672(11)
C38 C 0.7838(14) 0.2500 0.2255(9)
C39 C 0.5645(11) 0.3721(5) 0.0503(8)
H37 H 0.5906 0.3912 0.0690
H38 H 0.5153 0.3756 0.0526
H39 H 0.5732 0.3730 0.0153
C40 C 0.5858(9) 0.3364(4) 0.0714(6)
C41 C 0.4960(11) 0.2500 0.4069(7)
O46 O 0.6101(5) 0.4036(2) 0.2379(4)
H40 H 0.5782 0.3948 0.2090
O47 O 0.2417(7) 0.2500 0.2169(5)
H41 H 0.2347 0.2500 0.2530
O48 O 0.4339(5) 0.3308(2) 0.3629(3)
H42 H 0.3943 0.3171 0.3741
O49 O 0.2547(5) 0.4275(2) 0.1036(4)
H43 H 0.2994 0.4148 0.1127
O50 O 0.5123(5) 0.3903(2) 0.3776(3)
H44 H 0.5239 0.4134 0.3961
O51 O 0.2620(6) 0.4029(2) 0.2085(4)
H45 H 0.3011 0.3879 0.1991
O52 O 0.7620(6) 0.2879(3) 0.5967(4)
H46 H 0.7453 0.2750 0.6257
O53 O 0.8728(6) 0.3129(3) 0.5587(4)
H47 H 0.9235 0.3170 0.5603
O54 O 0.3417(5) 0.4648(2) 0.1724(3)
H48 H 0.3618 0.4414 0.1620
O55 O 0.2979(5) 0.2102(2) 0.1472(3)
H49 H 0.3236 0.1877 0.1400
O56 O 0.3379(5) 0.2888(2) 0.0272(3)
H50 H 0.3687 0.3066 0.0465
O57 O 0.6302(7) 0.2500 0.4891(5)
H51 H 0.6339 0.2500 0.4525
O58 O 0.7677(5) 0.2875(2) 0.4970(4)
H52 H 0.7573 0.2768 0.4630
O59 O 0.7502(5) 0.3524(3) 0.5449(4)
H53 H 0.7311 0.3774 0.5393
O60 O 0.6701(9) 0.2500 0.1139(6)
H54 H 0.7084 0.2500 0.0923
O61 O 0.1899(5) 0.4761(2) 0.0330(4)
H55 H 0.1994 0.4894 0.0023
O62 O 0.7166(6) 0.4562(3) 0.2278(4)
H56 H 0.7214 0.4659 0.1937
O63 O 0.4237(6) 0.3518(3) 0.4654(4)
O64 O 0.2314(8) 0.2500 -0.0097(5)
H57 H 0.1811 0.2500 -0.0060
O65 O 0.1754(7) 0.2500 0.1209(5)
H58 H 0.1322 0.2500 0.0976
O66 O 0.5479(5) 0.3117(2) 0.5154(4)
H59 H 0.5277 0.3261 0.5416
O67 O 0.6204(8) 0.2500 0.5757(6)
H60 H 0.6174 0.2500 0.6124
O68 O 0.1391(6) 0.3594(3) 0.2009(4)
H61 H 0.0889 0.3574 0.2041
O69 O 0.5686(5) 0.3234(2) 0.3549(4)
H62 H 0.6103 0.3076 0.3599
O70 O 0.8068(6) 0.4178(3) 0.2976(4)
H63 H 0.8551 0.4091 0.2968
O71 O 0.3202(5) 0.2873(2) -0.0788(3)
H64 H 0.3460 0.3055 -0.0969
O72 O 0.4611(5) 0.2870(2) 0.2077(3)
H65 H 0.4593 0.3083 0.1845
O73 O 0.4755(5) 0.3641(2) 0.2828(4)
H66 H 0.4645 0.3709 0.2470
O74 O 0.1440(6) 0.4698(3) 0.1228(4)
H67 H 0.1225 0.4841 0.1485
O75 O 0.6638(5) 0.4334(3) 0.3232(4)
H68 H 0.6447 0.4463 0.3511
O76 O 0.1759(6) 0.4382(3) 0.2315(4)
H69 H 0.1370 0.4533 0.2410
O77 O 0.5526(8) 0.2500 0.2763(5)
H70 H 0.6014 0.2500 0.2917
O78 O 0.1201(6) 0.4140(2) 0.0618(3)
H71 H 0.0903 0.3935 0.0480
O79 O 0.3383(6) 0.5377(3) 0.1483(4)
H72 H 0.3574 0.5551 0.1251
O80 O 0.2365(5) 0.5081(2) 0.1930(4)
H73 H 0.1861 0.5093 0.1957
O81 O 0.2893(7) 0.4226(3) 0.3164(4)
O82 O 0.7037(5) 0.3653(3) 0.3081(4)
H74 H 0.7141 0.3388 0.3113
O83 O 0.3569(5) 0.5158(2) 0.2497(4)
H75 H 0.3848 0.5208 0.2822
O84 O 0.4089(6) 0.2500 0.2878(4)
O85 O 0.2004(5) 0.3518(2) 0.1133(4)
O86 O 0.3558(5) 0.3089(2) 0.2547(4)
O87 O 0.1020(6) 0.2807(2) 0.2223(4)
O88 O 0.4821(6) 0.5478(3) 0.2074(4)
O89 O 0.5199(6) 0.4389(3) 0.2932(4)
O90 O 0.1678(6) 0.4141(3) -0.0398(4)
O91 O 0.6712(5) 0.3361(2) 0.2084(4)
O92 O 0.6879(6) 0.5106(3) 0.3000(4)
O93 O 0.6277(6) 0.3359(3) 0.6007(4)
O94 O 0.0721(6) 0.4475(3) -0.0375(4)
O95 O 0.7440(6) 0.4446(3) 0.4359(4)
O96 O 0.7540(6) 0.3579(3) 0.4393(4)
O97 O 0.3149(5) 0.3557(3) 0.2955(4)
O98 O 0.1749(6) 0.2905(3) -0.0980(4)
O99 O 0.3535(6) 0.3841(3) 0.4103(4)
O100 O 0.8740(6) 0.3833(3) 0.5012(4)
O101 O 0.8925(9) 0.2500 0.6432(6)
O102 O 0.7190(8) 0.3626(3) 0.6474(4)
O103 O 0.5822(6) 0.5133(3) 0.3130(4)
O104 O 0.3063(7) 0.4259(3) 0.0098(4)
O105 O 0.2407(8) 0.4964(3) 0.3061(4)
O106 O 0.2382(7) 0.5561(3) 0.2886(4)
O107 O 0.0176(7) 0.5653(3) -0.0592(5)
O108 O 0.1809(6) 0.5455(3) 0.0985(4)
O109 O 0.0538(6) 0.5230(3) -0.0079(4)
O110 O 0.3575(7) 0.4732(3) 0.0641(5)
O111 O 0.7847(6) 0.4699(3) 0.3748(4)
O112 O 0.8847(7) 0.31483(19) 0.4468(4)
O113 O 0.1868(7) 0.5799(3) 0.1731(5)
O114 O 0.9702(13) 0.2500 0.5707(9)
O115 O 0.7983(5) 0.5270(3) 0.2244(5)
O116 O 0.7628(7) 0.2800(3) 0.2077(4)
O117 O 0.5606(8) 0.3081(3) 0.0533(4)
O118 O 0.8647(8) 0.4715(3) 0.2212(7)
O119 O 0.8913(9) 0.2500 0.4728(5)
O120 O 0.4061(6) 0.5891(3) 0.2320(4)
O121 O 0.6351(7) 0.3343(3) 0.1079(5)
O122 O 0.4614(6) 0.4933(3) 0.1270(4)
O123 O 0.8699(7) 0.3918(3) 0.5850(5)
O124 O 0.2127(5) 0.3068(2) 0.0559(4)
O125 O 0.4811(6) 0.4734(3) 0.2316(4)
O126 O 0.4970(5) 0.2786(2) 0.4329(3)
O127 O 0.4019(8) 0.2500 0.1159(5)
O128 O 0.2505(6) 0.3255(3) 0.2399(3)
O129 O 0.5856(5) 0.3267(2) 0.2566(3)
O130 O 0.1251(6) 0.3192(3) -0.0430(4)
O131 O 0.6496(6) 0.3374(3) 0.4556(4)
O132 O 0.4055(5) 0.4390(2) 0.2713(4)
O133 O 0.4956(7) 0.2500 0.3619(5)
O134 O 0.6573(5) 0.3798(2) 0.4005(4)
O135 O 0.2269(5) 0.3645(2) 0.0341(4)
O136 O 0.6123(6) 0.2888(2) 0.1942(4)
O137 O 0.5195(7) 0.2500 0.1227(5)
O138 O 0.4697(7) 0.2500 0.0520(5)
O139 O 0.7669(7) 0.3154(3) 0.1187(5)
O140 O 0.9421(8) 0.3343(4) 0.6558(5)
O141 O 0.8217(9) 0.3075(3) 0.6985(5)
O142 O 0.8450(6) 0.3882(3) 0.6867(4)
O143 O 0.4148(5) 0.4515(3) 0.3800(4)
O144 O 0.5524(5) 0.3900(3) 0.4897(4)
O145 O 0.4861(12) 0.2500 0.6043(8)
O146 O 0.0424(7) 0.4126(4) 0.1529(6)
O147 O 0.3511(7) 0.3580(3) -0.0173(4)
O148 O 0.2894(7) 0.5384(3) 0.0403(4)
O149 O 0.2313(6) 0.3640(2) -0.0856(4)
O150 O 0.8762(7) 0.4104(3) 0.4148(5)
O151 O 0.0720(6) 0.3095(3) 0.1213(4)
O152 O 0.6006(6) 0.5246(3) 0.2081(5)
O153 O 0.6836(6) 0.3971(3) 0.1434(4)
O154 O 0.8379(6) 0.3475(3) 0.3595(5)
O155 O 0.4506(11) 0.2500 -0.1056(7)
O156 O 0.5768(6) 0.4545(3) 0.1609(4)
O157 O 0.8150(6) 0.3431(3) 0.2389(5)
O158 O 0.1586(9) 0.2500 -0.2056(6)
O159 O 0.2508(9) 0.3074(4) -0.1810(5)
O160 O 0.8268(7) 0.4102(4) 0.1859(5)
O161 O 0.2755(6) 0.6233(3) 0.2537(4)
O162 O 0.3520(16) 0.2500 -0.1784(10)
O163 O 0.2062(8) 0.3713(4) 0.3686(5)
O164 O 0.4085(7) 0.2889(3) 0.5191(5)
O165 O 0.8365(8) 0.5421(4) 0.3245(7)
O166 O 0.1226(8) 0.4167(4) 0.3193(6)
O167 O 0.9195(8) 0.4764(4) 0.3227(6)
O168 O 0.3043(10) 0.6153(3) 0.1535(5)
O169 O 0.4649(7) 0.3071(3) -0.0250(5)
O170 O 0.1249(8) 0.3326(4) 0.3011(6)
O171 O 0.0205(7) 0.5128(3) 0.0955(4)
O172 O 0.6298(8) 0.2500 -0.0051(4)
Gd2C Gd 0.48116(5) 0.199677(19) 0.29559(3)
Gd4C Gd 0.18710(5) 0.198147(19) 0.17164(3)
Gd5C Gd 0.58770(5) 0.12021(2) 0.31502(3)
Gd6C Gd 0.52407(5) 0.16004(2) 0.43049(3)
Gd7C Gd 0.20330(5) 0.11895(2) 0.27665(3)
Gd9C Gd 0.40104(5) 0.107997(19) 0.33584(3)
Gd10C Gd 0.16471(5) 0.09121(2) 0.14773(3)
Gd11C Gd 0.07807(5) 0.02829(2) 0.04435(3)
Gd11B Gd -0.07807(5) 0.52829(2) -0.04435(3)
Gd13C Gd 0.29063(5) 0.03767(2) 0.24534(3)
Gd14C Gd 0.66978(5) 0.19662(2) 0.53432(3)
Gd16C Gd 0.25009(5) 0.18427(2) -0.02458(3)
Gd17C Gd 0.26018(5) 0.00599(2) 0.10836(3)
Gd18C Gd 0.76319(5) 0.09920(2) 0.37064(4)
Gd19C Gd 0.60560(5) 0.03329(2) 0.25137(3)
Gd20C Gd 0.72975(6) 0.10881(2) 0.23141(4)
Gd22C Gd 0.82039(6) 0.15760(2) 0.62103(3)
Gd23C Gd 0.29140(6) -0.06441(2) 0.21425(3)
Gd24C Gd 0.79841(6) 0.01663(3) 0.29016(4)
Ni2C Ni 0.21213(12) 0.08017(5) 0.03270(8)
Ni3C Ni 0.68900(13) 0.20294(6) 0.15207(9)
Ni4C Ni 0.41144(12) -0.00576(5) 0.18944(8)
Ni5C Ni 0.81761(14) 0.16476(6) 0.49760(9)
C1C C 0.6206(8) 0.1826(4) 0.2230(5)
C2C C 0.4655(8) 0.0508(4) 0.2648(5)
C4C C 0.2135(8) 0.1580(4) 0.0697(5)
C5C C 0.3085(9) 0.1701(4) 0.2622(6)
C6C C 0.6887(8) 0.1421(4) 0.4323(5)
C7C C 0.9331(8) 0.2270(8) 0.4033(5)
C8C C 0.8947(10) 0.22006(17) 0.4476(5)
C9C C 0.0503(11) 0.1959(6) -0.1183(9)
H1C H 0.0321 0.2205 -0.1232
H2C H 0.0566 0.1851 -0.1507
H3C H 0.0178 0.1811 -0.1018
C10C C 0.1220(9) 0.1972(4) -0.0846(7)
C11C C 0.0914(13) 0.0901(6) -0.1104(8)
H4C H 0.1286 0.1054 -0.1200
H5C H 0.0830 0.0701 -0.1343
H6C H 0.0495 0.1046 -0.1102
C12C C 0.1121(12) 0.0742(6) -0.0569(8)
C13C C 0.5286(10) -0.1016(5) 0.2408(7)
H7C H 0.5703 -0.0892 0.2329
H8C H 0.5321 -0.1066 0.2766
H9C H 0.5233 -0.1245 0.2223
C14C C 0.4659(9) -0.0772(4) 0.2261(6)
C15C C 0.6600(12) -0.0611(5) 0.3505(9)
H10C H 0.6904 -0.0567 0.3811
H11C H 0.6174 -0.0724 0.3587
H12C H 0.6828 -0.0773 0.3286
C16C C 0.6432(10) -0.0249(4) 0.3237(7)
C17C C 0.1080(12) -0.1000(6) 0.0960(8)
H13C H 0.0957 -0.0893 0.0629
H14C H 0.1286 -0.1239 0.0924
H15C H 0.0666 -0.1025 0.1130
C18C C 0.1611(14) -0.0745(7) 0.1275(10)
C19C C 0.1984(14) -0.0326(7) 0.3669(10)
H16C H 0.1957 -0.0085 0.3820
H17C H 0.1524 -0.0432 0.3616
H18C H 0.2284 -0.0482 0.3893
C20C C 0.2284(10) -0.0291(5) 0.3160(7)
C21C C 0.3584(17) 0.0558(8) 0.0267(11)
C22C C 0.4240(17) 0.0570(8) 0.0075(12)
C23C C 0.6073(11) 0.1048(5) 0.6404(8)
H19C H 0.6354 0.0882 0.6624
H20C H 0.5674 0.1126 0.6567
H21C H 0.5917 0.0925 0.6091
C24C C 0.6499(10) 0.1379(5) 0.6298(7)
C25C C 0.8858(9) 0.0976(4) 0.5402(7)
C26C C 0.9083(11) 0.0602(5) 0.5326(8)
H22C H 0.9162 0.0569 0.4977
H23C H 0.9509 0.0555 0.5541
H24C H 0.8727 0.0433 0.5409
C27C C 0.7728(10) -0.0078(4) 0.4440(7)
H25C H 0.7458 -0.0266 0.4253
H26C H 0.8217 -0.0139 0.4460
H27C H 0.7589 -0.0061 0.4777
C28C C 0.7607(10) 0.0276(5) 0.4184(7)
C29C C 0.3079(10) 0.1401(5) 0.4834(7)
H28C H 0.3254 0.1531 0.5138
H29C H 0.2722 0.1548 0.4645
H30C H 0.2883 0.1168 0.4921
C30C C 0.3662(9) 0.1335(4) 0.4518(6)
C31B C -0.1391(15) 0.4351(8) 0.0320(11)
H31B H -0.1370 0.4150 0.0559
H32B H -0.1703 0.4539 0.0420
H33B H -0.1559 0.4261 -0.0013
C32B C -0.0699(12) 0.4507(5) 0.0311(8)
C35C C 0.8359(5) -0.0012(2) 0.2153(4)
C36C C 0.8637(13) -0.0107(11) 0.1669(6)
H34C H 0.8519 0.0086 0.1424
H35C H 0.9137 -0.0132 0.1726
H36C H 0.8435 -0.0336 0.1541
C39C C 0.5645(11) 0.1279(5) 0.0503(8)
H37C H 0.5906 0.1088 0.0690
H38C H 0.5153 0.1244 0.0526
H39C H 0.5732 0.1270 0.0153
C40C C 0.5858(9) 0.1636(4) 0.0714(6)
O46C O 0.6101(5) 0.0964(2) 0.2379(4)
H40C H 0.5782 0.1052 0.2090
O48C O 0.4339(5) 0.1692(2) 0.3629(3)
H42C H 0.3943 0.1829 0.3741
O49C O 0.2547(5) 0.0725(2) 0.1036(4)
H43C H 0.2994 0.0852 0.1127
O50C O 0.5123(5) 0.1097(2) 0.3776(3)
H44C H 0.5239 0.0866 0.3961
O51C O 0.2620(6) 0.0971(2) 0.2085(4)
H45C H 0.3011 0.1121 0.1991
O52C O 0.7620(6) 0.2121(3) 0.5967(4)
H46C H 0.7453 0.2250 0.6257
O53C O 0.8728(6) 0.1871(3) 0.5587(4)
H47C H 0.9235 0.1830 0.5603
O54C O 0.3417(5) 0.0352(2) 0.1724(3)
H48C H 0.3618 0.0586 0.1620
O55C O 0.2979(5) 0.2898(2) 0.1472(3)
H49C H 0.3236 0.3123 0.1400
O56C O 0.3379(5) 0.2112(2) 0.0272(3)
H50C H 0.3687 0.1934 0.0465
O58C O 0.7677(5) 0.2125(2) 0.4970(4)
H52C H 0.7573 0.2232 0.4630
O59C O 0.7502(5) 0.1476(3) 0.5449(4)
H53C H 0.7311 0.1226 0.5393
O61C O 0.1899(5) 0.0239(2) 0.0330(4)
H55C H 0.1994 0.0106 0.0023
O62C O 0.7166(6) 0.0438(3) 0.2278(4)
H56C H 0.7214 0.0341 0.1937
O63C O 0.4237(6) 0.1482(3) 0.4654(4)
O66C O 0.5479(5) 0.1883(2) 0.5154(4)
H59C H 0.5277 0.1739 0.5416
O68C O 0.1391(6) 0.1406(3) 0.2009(4)
H61C H 0.0889 0.1426 0.2041
O69C O 0.5686(5) 0.1766(2) 0.3549(4)
H62C H 0.6103 0.1924 0.3599
O70C O 0.8068(6) 0.0822(3) 0.2976(4)
H63C H 0.8551 0.0909 0.2968
O71C O 0.3202(5) 0.2127(2) -0.0788(3)
H64C H 0.3460 0.1945 -0.0969
O72C O 0.4611(5) 0.2130(2) 0.2077(3)
H65C H 0.4593 0.1917 0.1845
O73C O 0.4755(5) 0.1359(2) 0.2828(4)
H66C H 0.4645 0.1291 0.2470
O74C O 0.1440(6) 0.0302(3) 0.1228(4)
H67C H 0.1225 0.0159 0.1485
O75C O 0.6638(5) 0.0666(3) 0.3232(4)
H68C H 0.6447 0.0537 0.3511
O76C O 0.1759(6) 0.0618(3) 0.2315(4)
H69C H 0.1370 0.0467 0.2410
O78C O 0.1201(6) 0.0860(2) 0.0618(3)
H71C H 0.0903 0.1065 0.0480
O79C O 0.3383(6) -0.0377(3) 0.1483(4)
H72C H 0.3574 -0.0551 0.1251
O80C O 0.2365(5) -0.0081(2) 0.1930(4)
H73C H 0.1861 -0.0093 0.1957
O81C O 0.2893(7) 0.0774(3) 0.3164(4)
O82C O 0.7037(5) 0.1347(3) 0.3081(4)
H74C H 0.7141 0.1612 0.3113
O83C O 0.3569(5) -0.0158(2) 0.2497(4)
H75C H 0.3848 -0.0208 0.2822
O85C O 0.2004(5) 0.1482(2) 0.1133(4)
O86C O 0.3558(5) 0.1911(2) 0.2547(4)
O87C O 0.1020(6) 0.2193(2) 0.2223(4)
O88C O 0.4821(6) -0.0478(3) 0.2074(4)
O89C O 0.5199(6) 0.0611(3) 0.2932(4)
O90C O 0.1678(6) 0.0859(3) -0.0398(4)
O91C O 0.6712(5) 0.1639(2) 0.2084(4)
O92C O 0.6879(6) -0.0106(3) 0.3000(4)
O93C O 0.6277(6) 0.1641(3) 0.6007(4)
O94C O 0.0721(6) 0.0525(3) -0.0375(4)
O95C O 0.7440(6) 0.0554(3) 0.4359(4)
O96C O 0.7540(6) 0.1421(3) 0.4393(4)
O97C O 0.3149(5) 0.1443(3) 0.2955(4)
O98C O 0.1749(6) 0.2095(3) -0.0980(4)
O99C O 0.3535(6) 0.1159(3) 0.4103(4)
O100C O 0.8740(6) 0.1167(3) 0.5012(4)
O102C O 0.7190(8) 0.1374(3) 0.6474(4)
O103C O 0.5822(6) -0.0133(3) 0.3130(4)
O104C O 0.3063(7) 0.0741(3) 0.0098(4)
O105C O 0.2407(8) 0.0036(3) 0.3061(4)
O106C O 0.2382(7) -0.0561(3) 0.2886(4)
O107B O -0.0176(7) 0.4347(3) 0.0592(5)
O107A O -0.0176(7) 0.0653(3) 0.0592(5)
O108C O 0.1809(6) -0.0455(3) 0.0985(4)
O109B O -0.0538(6) 0.4770(3) 0.0079(4)
O109C O 0.0538(6) -0.0230(3) -0.0079(4)
O110C O 0.3575(7) 0.0268(3) 0.0641(5)
O111C O 0.7847(6) 0.0301(3) 0.3748(4)
O112C O 0.8847(7) 0.18517(19) 0.4468(4)
O113C O 0.1868(7) -0.0799(3) 0.1731(5)
O115C O 0.7983(5) -0.0270(3) 0.2244(5)
O116C O 0.7628(7) 0.2200(3) 0.2077(4)
O117C O 0.5606(8) 0.1919(3) 0.0533(4)
O118C O 0.8647(8) 0.0285(3) 0.2212(7)
O120C O 0.4061(6) -0.0891(3) 0.2320(4)
O121C O 0.6351(7) 0.1657(3) 0.1079(5)
O122C O 0.4614(6) 0.0067(3) 0.1270(4)
O123C O 0.8699(7) 0.1082(3) 0.5850(5)
O124C O 0.2127(5) 0.1932(2) 0.0559(4)
O125C O 0.4811(6) 0.0266(3) 0.2316(4)
O126C O 0.4970(5) 0.2214(2) 0.4329(3)
O128C O 0.2505(6) 0.1745(3) 0.2399(3)
O129C O 0.5856(5) 0.1733(2) 0.2566(3)
O130C O 0.1251(6) 0.1808(3) -0.0430(4)
O131C O 0.6496(6) 0.1626(3) 0.4556(4)
O132C O 0.4055(5) 0.0610(2) 0.2713(4)
O134C O 0.6573(5) 0.1202(2) 0.4005(4)
O135C O 0.2269(5) 0.1355(2) 0.0341(4)
O136C O 0.6123(6) 0.2112(2) 0.1942(4)
O139C O 0.7669(7) 0.1846(3) 0.1187(5)
O140C O 0.9421(8) 0.1657(4) 0.6558(5)
O141C O 0.8217(9) 0.1925(3) 0.6985(5)
O142C O 0.8450(6) 0.1118(3) 0.6867(4)
O143C O 0.4148(5) 0.0485(3) 0.3800(4)
O144C O 0.5524(5) 0.1100(3) 0.4897(4)
O146C O 0.0424(7) 0.0874(4) 0.1529(6)
O147C O 0.3511(7) 0.1420(3) -0.0173(4)
O148C O 0.2894(7) -0.0384(3) 0.0403(4)
O149C O 0.2313(6) 0.1360(2) -0.0856(4)
O150C O 0.8762(7) 0.0896(3) 0.4148(5)
O151C O 0.0720(6) 0.1905(3) 0.1213(4)
O152C O 0.6006(6) -0.0246(3) 0.2081(5)
O153C O 0.6836(6) 0.1029(3) 0.1434(4)
O154C O 0.8379(6) 0.1525(3) 0.3595(5)
O156C O 0.5768(6) 0.0455(3) 0.1609(4)
O157C O 0.8150(6) 0.1569(3) 0.2389(5)
O159C O 0.2508(9) 0.1926(4) -0.1810(5)
O160C O 0.8268(7) 0.0898(4) 0.1859(5)
O161C O 0.2755(6) -0.1233(3) 0.2537(4)
O163C O 0.2062(8) 0.1287(4) 0.3686(5)
O164C O 0.4085(7) 0.2111(3) 0.5191(5)
O165C O 0.8365(8) -0.0421(4) 0.3245(7)
O166C O 0.1226(8) 0.0833(4) 0.3193(6)
O167C O 0.9195(8) 0.0236(4) 0.3227(6)
O168C O 0.3043(10) -0.1153(3) 0.1535(5)
O169C O 0.4649(7) 0.1929(3) -0.0250(5)
O170C O 0.1249(8) 0.1674(4) 0.3011(6)
O171C O 0.0205(7) -0.0128(3) 0.0955(4)
Cl1 Cl 0.7162(4) 0.2500 0.3595(3)
O1 O 0.6566(17) 0.2500 0.3885(12)
O2 O 0.7118(8) 0.2794(4) 0.3288(5)
O3 O 0.7772(12) 0.2500 0.3936(6)
O2C O 0.7118(8) 0.2206(4) 0.3288(5)
Cl13? Cl 0.6822(6) 0.4210(3) 0.5177(4)
Cl14? Cl 0.4081(7) 0.5423(3) 0.5966(6)
Cl15? Cl 0.0456(6) 0.3468(3) 0.0294(5)
Cl16? Cl 0.4518(6) 0.5182(3) 0.3405(4)
C42? C 0.421(2) 0.4806(11) 0.0890(16)
C43? C 0.475(2) 0.4678(10) 0.0438(15)
loop_
_geom_bond_atom_site_label_1
_geom_bond_atom_site_label_2
_geom_bond_site_symmetry_1
_geom_bond_site_symmetry_2
Cl1 O1 1_555 1_555
O2 Cl1 1_555 1_555
O3 Cl1 1_555 1_555
Cl2 O4 1_555 1_555
O5 Cl2 1_555 1_555
O6 Cl2 1_555 1_555
O7 Cl2 1_555 1_555
Cl3 O8 1_555 1_555
O9 Cl3 1_555 1_555
O10 Cl3 1_555 1_555
Cl4 O11 1_555 1_555
O12 Cl4 1_555 1_555
O13 Cl4 1_555 1_555
O14 Cl4 1_555 1_555
Cl5 O15 1_555 1_555
O16 Cl5 1_555 1_555
O17 Cl5 1_555 1_555
O18 Cl5 1_555 1_555
Cl6 O19 1_555 1_555
O20 Cl6 1_555 1_555
O21 Cl6 1_555 1_555
O22 Cl6 1_555 1_555
Cl7 O23 1_555 1_555
O24 Cl7 1_555 1_555
O25 Cl7 1_555 1_555
O26 Cl7 1_555 1_555
Cl8 O27 1_555 1_555
O28 Cl8 1_555 1_555
O29 Cl8 1_555 1_555
O30 Cl8 1_555 1_555
Cl9 O31 1_555 1_555
O32 Cl9 1_555 1_555
O33 Cl9 1_555 1_555
O34 Cl9 1_555 1_555
Cl10 O35 1_555 1_555
O36 Cl10 1_555 1_555
O37 Cl10 1_555 1_555
O38 Cl10 1_555 1_555
Cl11 O39 1_555 1_555
O40 Cl11 1_555 1_555
O41 Cl11 1_555 1_555
O42 Cl11 1_555 1_555
Cl12 O43 1_555 1_555
O44 Cl12 1_555 1_555
O45 Cl12 1_555 1_555
Gd1 O47 1_555 1_555
Gd2 O48 1_555 1_555
Gd3 O55 1_555 1_555
Gd4 O47 1_555 1_555
Gd5 O46 1_555 1_555
Gd6 O48 1_555 1_555
Gd7 O51 1_555 1_555
Gd8 O57 1_555 1_555
Gd9 O48 1_555 1_555
Gd10 O49 1_555 1_555
Gd11 O61 1_555 1_555
Gd12 O56 1_555 1_555
Gd13 O51 1_555 1_555
Gd14 O52 1_555 1_555
Gd15 O52 1_555 1_555
Gd16 O56 1_555 1_555
Gd17 O49 1_555 1_555
Gd18 O70 1_555 1_555
Gd19 O46 1_555 1_555
Gd20 O46 1_555 1_555
Gd21 O71 1_555 1_555
Gd22 O52 1_555 1_555
Gd23 O79 1_555 1_555
Gd24 O62 1_555 1_555
Ni1 O72 1_555 1_555
Ni2 O49 1_555 1_555
Ni3 O60 1_555 1_555
Ni4 O54 1_555 1_555
Ni5 O53 1_555 1_555
Ni6 O60 1_555 1_555
C1 O91 1_555 1_555
C2 O89 1_555 1_555
C3 O127 1_555 1_555
C4 O85 1_555 1_555
C5 O86 1_555 1_555
C6 O96 1_555 1_555
C7 C8 1_555 1_555
C8 O112 1_555 1_555
C9 H1 1_555 1_555
H2 C9 1_555 1_555
H3 C9 1_555 1_555
C10 C9 1_555 1_555
C11 H4 1_555 1_555
H5 C11 1_555 1_555
H6 C11 1_555 1_555
C12 C11 1_555 1_555
C13 H7 1_555 1_555
H8 C13 1_555 1_555
H9 C13 1_555 1_555
C14 C13 1_555 1_555
C15 H10 1_555 1_555
H11 C15 1_555 1_555
H12 C15 1_555 1_555
C16 C15 1_555 1_555
C17 H13 1_555 1_555
H14 C17 1_555 1_555
H15 C17 1_555 1_555
C18 C17 1_555 1_555
C19 H16 1_555 1_555
H17 C19 1_555 1_555
H18 C19 1_555 1_555
C20 C19 1_555 1_555
C21 C22 1_555 1_555
C23 H19 1_555 1_555
H20 C23 1_555 1_555
H21 C23 1_555 1_555
C24 C23 1_555 1_555
C25 C26 1_555 1_555
C26 H22 1_555 1_555
H23 C26 1_555 1_555
H24 C26 1_555 1_555
C27 H25 1_555 1_555
H26 C27 1_555 1_555
H27 C27 1_555 1_555
C28 C27 1_555 1_555
C29 H28 1_555 1_555
H29 C29 1_555 1_555
H30 C29 1_555 1_555
C30 C29 1_555 1_555
C31 H31 1_555 1_555
H32 C31 1_555 1_555
H33 C31 1_555 1_555
C32 C31 1_555 1_555
C33 C34 1_555 1_555
C34 O87 1_555 1_555
C35 C36 1_555 1_555
C36 H34 1_555 1_555
H35 C36 1_555 1_555
H36 C36 1_555 1_555
C37 C38 1_555 1_555
C38 O116 1_555 1_555
C39 H37 1_555 1_555
H38 C39 1_555 1_555
H39 C39 1_555 1_555
C40 C39 1_555 1_555
C41 O126 1_555 1_555
O46 H40 1_555 1_555
O47 H41 1_555 1_555
O48 H42 1_555 1_555
O49 H43 1_555 1_555
O50 Gd5 1_555 1_555
H44 O50 1_555 1_555
O51 Gd10 1_555 1_555
H45 O51 1_555 1_555
O52 H46 1_555 1_555
O53 Gd15 1_555 1_555
H47 O53 1_555 1_555
O54 Gd13 1_555 1_555
H48 O54 1_555 1_555
O55 Gd1 1_555 1_555
H49 O55 1_555 1_555
O56 Gd3 1_555 1_555
H50 O56 1_555 1_555
O57 Gd14 1_555 1_555
H51 O57 1_555 1_555
O58 Gd14 1_555 1_555
H52 O58 1_555 1_555
O59 Gd14 1_555 1_555
H53 O59 1_555 1_555
O60 H54 1_555 1_555
O61 Gd17 1_555 1_555
H55 O61 1_555 1_555
O62 Gd19 1_555 1_555
H56 O62 1_555 1_555
O63 Gd6 1_555 1_555
O64 Gd3 1_555 1_555
H57 O64 1_555 1_555
O65 Gd3 1_555 1_555
H58 O65 1_555 1_555
O66 Gd6 1_555 1_555
H59 O66 1_555 1_555
O67 Gd8 1_555 1_555
H60 O67 1_555 1_555
O68 Gd4 1_555 1_555
H61 O68 1_555 1_555
O69 Gd2 1_555 1_555
H62 O69 1_555 1_555
O70 Gd20 1_555 1_555
H63 O70 1_555 1_555
O71 Gd12 1_555 1_555
H64 O71 1_555 1_555
O72 Gd1 1_555 1_555
H65 O72 1_555 1_555
O73 Gd2 1_555 1_555
H66 O73 1_555 1_555
O74 Gd10 1_555 1_555
H67 O74 1_555 1_555
O75 Gd5 1_555 1_555
H68 O75 1_555 1_555
O76 Gd7 1_555 1_555
H69 O76 1_555 1_555
O77 Gd2 1_555 1_555
H70 O77 1_555 1_555
O78 Gd10 1_555 1_555
H71 O78 1_555 1_555
O79 Gd17 1_555 1_555
H72 O79 1_555 1_555
O80 Gd13 1_555 1_555
H73 O80 1_555 1_555
O81 Gd7 1_555 1_555
O82 Gd5 1_555 1_555
H74 O82 1_555 1_555
O83 Gd13 1_555 1_555
H75 O83 1_555 1_555
O84 Gd1 1_555 1_555
O85 Gd4 1_555 1_555
O86 Gd1 1_555 1_555
O87 Gd4 1_555 1_555
O88 Ni4 1_555 1_555
O89 Gd5 1_555 1_555
O90 Ni2 1_555 1_555
O91 Gd20 1_555 1_555
O92 Gd19 1_555 1_555
O93 Gd14 1_555 1_555
O94 Gd11 1_555 1_555
O95 Gd18 1_555 1_555
O96 Gd18 1_555 1_555
O97 Gd7 1_555 1_555
O98 Gd16 1_555 1_555
O99 Gd9 1_555 1_555
O100 Ni5 1_555 1_555
O101 Gd15 1_555 1_555
O102 Gd22 1_555 1_555
O103 Gd19 1_555 1_555
O104 Ni2 1_555 1_555
O105 Gd13 1_555 1_555
O106 Gd23 1_555 1_555
O107 C32 1_555 1_555
O108 Gd17 1_555 1_555
O109 Gd11 1_555 1_555
O110 Gd17 1_555 1_555
O111 Gd18 1_555 1_555
O112 Ni5 1_555 1_555
O113 Gd23 1_555 1_555
O114 Gd15 1_555 1_555
O115 Gd24 1_555 1_555
O116 Ni3 1_555 1_555
O117 Ni6 1_555 1_555
O118 Gd24 1_555 1_555
O119 Gd15 1_555 1_555
O120 Gd23 1_555 1_555
O121 Ni3 1_555 1_555
O122 Ni4 1_555 1_555
O123 Gd22 1_555 1_555
O124 Gd3 1_555 1_555
O125 Gd19 1_555 1_555
O126 Gd6 1_555 1_555
O127 Gd1 1_555 1_555
O128 Gd4 1_555 1_555
O129 Gd2 1_555 1_555
O130 Gd16 1_555 1_555
O131 Gd6 1_555 1_555
O132 Gd9 1_555 1_555
O133 Gd2 1_555 1_555
O134 Gd5 1_555 1_555
O135 Gd16 1_555 1_555
O136 Ni1 1_555 1_555
O137 Ni1 1_555 1_555
O138 Gd12 1_555 1_555
O139 Ni3 1_555 1_555
O140 Gd22 1_555 1_555
O141 Gd22 1_555 1_555
O142 Gd22 1_555 1_555
O143 Gd9 1_555 1_555
O144 Gd6 1_555 1_555
O145 Gd8 1_555 1_555
O146 Gd10 1_555 1_555
O147 Gd16 1_555 1_555
O148 Gd17 1_555 1_555
O149 Gd16 1_555 1_555
O150 Gd18 1_555 1_555
O151 Gd4 1_555 1_555
O152 Gd19 1_555 1_555
O153 Gd20 1_555 1_555
O154 Gd18 1_555 1_555
O155 Gd12 1_555 1_555
O156 Gd19 1_555 1_555
O157 Gd20 1_555 1_555
O158 Gd21 1_555 1_555
O159 Gd21 1_555 1_555
O160 Gd20 1_555 1_555
O161 Gd23 1_555 1_555
O162 Gd21 1_555 1_555
O163 Gd7 1_555 1_555
O164 Gd8 1_555 1_555
O165 Gd24 1_555 1_555
O166 Gd7 1_555 1_555
O167 Gd24 1_555 1_555
O168 Gd23 1_555 1_555
O169 Gd12 1_555 1_555
O170 Gd7 1_555 1_555
O171 Gd11 1_555 1_555
O172 Ni6 1_555 1_555
O2C Cl1 1_555 1_555
O10C Cl3 1_555 1_555
O45C Cl12 1_555 1_555
Gd2C O77 1_555 1_555
Gd4C O47 1_555 1_555
Gd5C O46C 1_555 1_555
Gd6C O48C 1_555 1_555
Gd7C O51C 1_555 1_555
Gd9C O48C 1_555 1_555
Gd10C O49C 1_555 1_555
Gd11C O61C 1_555 1_555
Gd11B O107 1_555 1_555
Gd13C O51C 1_555 1_555
Gd14C O57 1_555 1_555
Gd16C O64 1_555 1_555
Gd17C O49C 1_555 1_555
Gd18C O70C 1_555 1_555
Gd19C O46C 1_555 1_555
Gd20C O46C 1_555 1_555
Gd22C O52C 1_555 1_555
Gd23C O79C 1_555 1_555
Gd24C O62C 1_555 1_555
Ni2C O49C 1_555 1_555
Ni3C O60 1_555 1_555
Ni4C O54C 1_555 1_555
Ni5C O53C 1_555 1_555
C1C O91C 1_555 1_555
C2C O89C 1_555 1_555
C4C O85C 1_555 1_555
C5C O86C 1_555 1_555
C6C O96C 1_555 1_555
C7C C7 1_555 1_555
C8C O119 1_555 1_555
C9C H1C 1_555 1_555
H2C C9C 1_555 1_555
H3C C9C 1_555 1_555
C10C C9C 1_555 1_555
C11C H4C 1_555 1_555
H5C C11C 1_555 1_555
H6C C11C 1_555 1_555
C12C C11C 1_555 1_555
C13C H7C 1_555 1_555
H8C C13C 1_555 1_555
H9C C13C 1_555 1_555
C14C C13C 1_555 1_555
C15C H10C 1_555 1_555
H11C C15C 1_555 1_555
H12C C15C 1_555 1_555
C16C C15C 1_555 1_555
C17C H13C 1_555 1_555
H14C C17C 1_555 1_555
H15C C17C 1_555 1_555
C18C C17C 1_555 1_555
C19C H16C 1_555 1_555
H17C C19C 1_555 1_555
H18C C19C 1_555 1_555
C20C C19C 1_555 1_555
C21C C22C 1_555 1_555
C23C H19C 1_555 1_555
H20C C23C 1_555 1_555
H21C C23C 1_555 1_555
C24C C23C 1_555 1_555
C25C C26C 1_555 1_555
C26C H22C 1_555 1_555
H23C C26C 1_555 1_555
H24C C26C 1_555 1_555
C27C H25C 1_555 1_555
H26C C27C 1_555 1_555
H27C C27C 1_555 1_555
C28C C27C 1_555 1_555
C29C H28C 1_555 1_555
H29C C29C 1_555 1_555
H30C C29C 1_555 1_555
C30C C29C 1_555 1_555
C31B H31B 1_555 1_555
H32B C31B 1_555 1_555
H33B C31B 1_555 1_555
C32B C31B 1_555 1_555
C35C C36C 1_555 1_555
C36C H34C 1_555 1_555
H35C C36C 1_555 1_555
H36C C36C 1_555 1_555
C39C H37C 1_555 1_555
H38C C39C 1_555 1_555
H39C C39C 1_555 1_555
C40C C39C 1_555 1_555
O46C H40C 1_555 1_555
O48C Gd2C 1_555 1_555
H42C O48C 1_555 1_555
O49C H43C 1_555 1_555
O50C Gd5C 1_555 1_555
H44C O50C 1_555 1_555
O51C Gd10C 1_555 1_555
H45C O51C 1_555 1_555
O52C Gd15 1_555 1_555
H46C O52C 1_555 1_555
O53C Gd15 1_555 1_555
H47C O53C 1_555 1_555
O54C Gd13C 1_555 1_555
H48C O54C 1_555 1_555
O55C Gd1 1_555 1_555
H49C O55C 1_555 1_555
O56C Gd3 1_555 1_555
H50C O56C 1_555 1_555
O58C Gd15 1_555 1_555
H52C O58C 1_555 1_555
O59C Gd14C 1_555 1_555
H53C O59C 1_555 1_555
O61C Gd17C 1_555 1_555
H55C O61C 1_555 1_555
O62C Gd19C 1_555 1_555
H56C O62C 1_555 1_555
O63C Gd6C 1_555 1_555
O66C Gd8 1_555 1_555
H59C O66C 1_555 1_555
O68C Gd4C 1_555 1_555
H61C O68C 1_555 1_555
O69C Gd2C 1_555 1_555
H62C O69C 1_555 1_555
O70C Gd20C 1_555 1_555
H63C O70C 1_555 1_555
O71C Gd12 1_555 1_555
H64C O71C 1_555 1_555
O72C Gd1 1_555 1_555
H65C O72C 1_555 1_555
O73C Gd2C 1_555 1_555
H66C O73C 1_555 1_555
O74C Gd10C 1_555 1_555
H67C O74C 1_555 1_555
O75C Gd5C 1_555 1_555
H68C O75C 1_555 1_555
O76C Gd7C 1_555 1_555
H69C O76C 1_555 1_555
O78C Gd10C 1_555 1_555
H71C O78C 1_555 1_555
O79C Gd17C 1_555 1_555
H72C O79C 1_555 1_555
O80C Gd13C 1_555 1_555
H73C O80C 1_555 1_555
O81C Gd7C 1_555 1_555
O82C Gd5C 1_555 1_555
H74C O82C 1_555 1_555
O83C Gd13C 1_555 1_555
H75C O83C 1_555 1_555
O85C Gd4C 1_555 1_555
O86C Gd1 1_555 1_555
O87C C34 1_555 1_555
O88C Ni4C 1_555 1_555
O89C Gd5C 1_555 1_555
O90C Ni2C 1_555 1_555
O91C Gd20C 1_555 1_555
O92C Gd19C 1_555 1_555
O93C Gd14C 1_555 1_555
O94C Gd11C 1_555 1_555
O95C Gd18C 1_555 1_555
O96C Gd18C 1_555 1_555
O97C Gd7C 1_555 1_555
O98C Gd21 1_555 1_555
O99C Gd9C 1_555 1_555
O100C Ni5C 1_555 1_555
O102C Gd22C 1_555 1_555
O103C Gd19C 1_555 1_555
O104C Ni2C 1_555 1_555
O105C Gd13C 1_555 1_555
O106C Gd23C 1_555 1_555
O107B Gd11 1_555 1_555
O107A Gd11C 1_555 1_555
O108C Gd17C 1_555 1_555
O109B Gd11B 1_555 1_555
O109C Gd11C 1_555 1_555
O110C Gd17C 1_555 1_555
O111C Gd18C 1_555 1_555
O112C Ni5C 1_555 1_555
O113C Gd23C 1_555 1_555
O115C Gd24C 1_555 1_555
O116C C38 1_555 1_555
O117C Ni6 1_555 1_555
O118C Gd24C 1_555 1_555
O120C Gd23C 1_555 1_555
O121C Ni3C 1_555 1_555
O122C Ni4C 1_555 1_555
O123C Gd22C 1_555 1_555
O124C Gd3 1_555 1_555
O125C Gd19C 1_555 1_555
O126C Gd8 1_555 1_555
O128C Gd4C 1_555 1_555
O129C Gd2C 1_555 1_555
O130C Gd16C 1_555 1_555
O131C Gd6C 1_555 1_555
O132C Gd9C 1_555 1_555
O134C Gd5C 1_555 1_555
O135C Gd16C 1_555 1_555
O136C Ni1 1_555 1_555
O139C Ni3C 1_555 1_555
O140C Gd22C 1_555 1_555
O141C Gd22C 1_555 1_555
O142C Gd22C 1_555 1_555
O143C Gd9C 1_555 1_555
O144C Gd6C 1_555 1_555
O146C Gd10C 1_555 1_555
O147C Gd16C 1_555 1_555
O148C Gd17C 1_555 1_555
O149C Gd16C 1_555 1_555
O150C Gd18C 1_555 1_555
O151C Gd4C 1_555 1_555
O152C Gd19C 1_555 1_555
O153C Gd20C 1_555 1_555
O154C Gd18C 1_555 1_555
O156C Gd19C 1_555 1_555
O157C Gd20C 1_555 1_555
O159C Gd21 1_555 1_555
O160C Gd20C 1_555 1_555
O161C Gd23C 1_555 1_555
O163C Gd7C 1_555 1_555
O164C Gd8 1_555 1_555
O165C Gd24C 1_555 1_555
O166C Gd7C 1_555 1_555
O167C Gd24C 1_555 1_555
O168C Gd23C 1_555 1_555
O169C Gd12 1_555 1_555
O170C Gd7C 1_555 1_555
O171C Gd11C 1_555 1_555
Gd2 O72 1_555 1_555
Gd2 O84 1_555 1_555
Gd2 O86 1_555 1_555
Gd3 O127 1_555 1_555
Gd3 O55C 1_555 1_555
Gd4 O65 1_555 1_555
Gd4 O55C 1_555 1_555
Gd5 O69 1_555 1_555
Gd5 O73 1_555 1_555
Gd5 O129 1_555 1_555
Gd6 O50 1_555 1_555
Gd6 O69 1_555 1_555
Gd7 O68 1_555 1_555
Gd7 O128 1_555 1_555
Gd8 O66 1_555 1_555
Gd8 O126 1_555 1_555
Gd9 O50 1_555 1_555
Gd9 O73 1_555 1_555
Gd9 O81 1_555 1_555
Gd9 O97 1_555 1_555
Gd10 O68 1_555 1_555
Gd10 O76 1_555 1_555
Gd10 O85 1_555 1_555
Gd11 O74 1_555 1_555
Gd11 O78 1_555 1_555
Gd12 O56C 1_555 1_555
Gd13 O76 1_555 1_555
Gd13 O81 1_555 1_555
Gd13 O132 1_555 1_555
Gd14 O66 1_555 1_555
Gd14 O67 1_555 1_555
Gd14 O131 1_555 1_555
Gd15 O58 1_555 1_555
Gd16 O64 1_555 1_555
Gd16 O71 1_555 1_555
Gd16 O124 1_555 1_555
Gd17 O54 1_555 1_555
Gd17 O74 1_555 1_555
Gd17 O80 1_555 1_555
Gd18 O75 1_555 1_555
Gd18 O82 1_555 1_555
Gd18 O134 1_555 1_555
Gd19 O75 1_555 1_555
Gd19 O89 1_555 1_555
Gd20 O62 1_555 1_555
Gd20 O82 1_555 1_555
Gd21 O98 1_555 1_555
Gd21 O71C 1_555 1_555
Gd22 O53 1_555 1_555
Gd22 O59 1_555 1_555
Gd23 O80 1_555 1_555
Gd23 O83 1_555 1_555
Gd24 O70 1_555 1_555
Gd24 O92 1_555 1_555
Gd24 O111 1_555 1_555
Ni1 O77 1_555 1_555
Ni1 O72C 1_555 1_555
Ni2 O61 1_555 1_555
Ni2 O78 1_555 1_555
Ni2 O135 1_555 1_555
Ni3 O91 1_555 1_555
Ni3 O136 1_555 1_555
Ni4 O79 1_555 1_555
Ni4 O83 1_555 1_555
Ni4 O125 1_555 1_555
Ni5 O58 1_555 1_555
Ni5 O59 1_555 1_555
Ni5 O96 1_555 1_555
Ni6 O137 1_555 1_555
Ni6 O138 1_555 1_555
C1 O129 1_555 1_555
C1 O136 1_555 1_555
C2 O125 1_555 1_555
C2 O132 1_555 1_555
C3 O137 1_555 1_555
C3 O138 1_555 1_555
C4 O124 1_555 1_555
C4 O135 1_555 1_555
C5 O97 1_555 1_555
C5 O128 1_555 1_555
C6 O131 1_555 1_555
C6 O134 1_555 1_555
C8 O119 1_555 1_555
C10 O98 1_555 1_555
C10 O130 1_555 1_555
C12 O90 1_555 1_555
C12 O94 1_555 1_555
C14 O88 1_555 1_555
C14 O120 1_555 1_555
C16 O92 1_555 1_555
C16 O103 1_555 1_555
C18 O108 1_555 1_555
C18 O113 1_555 1_555
C20 O105 1_555 1_555
C20 O106 1_555 1_555
C21 O104 1_555 1_555
C21 O110 1_555 1_555
C24 O93 1_555 1_555
C24 O102 1_555 1_555
C25 O100 1_555 1_555
C25 O123 1_555 1_555
C28 O95 1_555 1_555
C28 O111 1_555 1_555
C30 O63 1_555 1_555
C30 O99 1_555 1_555
C32 O109 1_555 1_555
C35 O115 1_555 1_555
C35 O118 1_555 1_555
C40 O117 1_555 1_555
C40 O121 1_555 1_555
C41 O133 1_555 1_555
C41 O126C 1_555 1_555
O55 Gd4C 1_555 1_555
O65 Gd4C 1_555 1_555
O67 Gd14C 1_555 1_555
O84 Gd2C 1_555 1_555
O133 Gd2C 1_555 1_555
Gd2C O72C 1_555 1_555
Gd2C O86C 1_555 1_555
Gd4C O87C 1_555 1_555
Gd5C O69C 1_555 1_555
Gd5C O73C 1_555 1_555
Gd5C O129C 1_555 1_555
Gd6C O50C 1_555 1_555
Gd6C O66C 1_555 1_555
Gd6C O69C 1_555 1_555
Gd6C O126C 1_555 1_555
Gd7C O68C 1_555 1_555
Gd7C O128C 1_555 1_555
Gd9C O50C 1_555 1_555
Gd9C O73C 1_555 1_555
Gd9C O81C 1_555 1_555
Gd9C O97C 1_555 1_555
Gd10C O68C 1_555 1_555
Gd10C O76C 1_555 1_555
Gd10C O85C 1_555 1_555
Gd11C O74C 1_555 1_555
Gd11C O78C 1_555 1_555
Gd13C O76C 1_555 1_555
Gd13C O81C 1_555 1_555
Gd13C O132C 1_555 1_555
Gd14C O52C 1_555 1_555
Gd14C O58C 1_555 1_555
Gd14C O66C 1_555 1_555
Gd14C O131C 1_555 1_555
Gd16C O56C 1_555 1_555
Gd16C O71C 1_555 1_555
Gd16C O98C 1_555 1_555
Gd16C O124C 1_555 1_555
Gd17C O54C 1_555 1_555
Gd17C O74C 1_555 1_555
Gd17C O80C 1_555 1_555
Gd18C O75C 1_555 1_555
Gd18C O82C 1_555 1_555
Gd18C O134C 1_555 1_555
Gd19C O75C 1_555 1_555
Gd19C O89C 1_555 1_555
Gd20C O62C 1_555 1_555
Gd20C O82C 1_555 1_555
Gd22C O53C 1_555 1_555
Gd22C O59C 1_555 1_555
Gd23C O80C 1_555 1_555
Gd23C O83C 1_555 1_555
Gd24C O70C 1_555 1_555
Gd24C O92C 1_555 1_555
Gd24C O111C 1_555 1_555
Ni2C O61C 1_555 1_555
Ni2C O78C 1_555 1_555
Ni2C O135C 1_555 1_555
Ni3C O91C 1_555 1_555
Ni3C O116C 1_555 1_555
Ni3C O136C 1_555 1_555
Ni4C O79C 1_555 1_555
Ni4C O83C 1_555 1_555
Ni4C O125C 1_555 1_555
Ni5C O58C 1_555 1_555
Ni5C O59C 1_555 1_555
Ni5C O96C 1_555 1_555
C1C O129C 1_555 1_555
C1C O136C 1_555 1_555
C2C O125C 1_555 1_555
C2C O132C 1_555 1_555
C4C O124C 1_555 1_555
C4C O135C 1_555 1_555
C5C O97C 1_555 1_555
C5C O128C 1_555 1_555
C6C O131C 1_555 1_555
C6C O134C 1_555 1_555
C7C C8C 1_555 1_555
C8C O112C 1_555 1_555
C10C O98C 1_555 1_555
C10C O130C 1_555 1_555
C12C O90C 1_555 1_555
C12C O94C 1_555 1_555
C14C O88C 1_555 1_555
C14C O120C 1_555 1_555
C16C O92C 1_555 1_555
C16C O103C 1_555 1_555
C18C O108C 1_555 1_555
C18C O113C 1_555 1_555
C20C O105C 1_555 1_555
C20C O106C 1_555 1_555
C21C O104C 1_555 1_555
C21C O110C 1_555 1_555
C24C O93C 1_555 1_555
C24C O102C 1_555 1_555
C25C O100C 1_555 1_555
C25C O123C 1_555 1_555
C28C O95C 1_555 1_555
C28C O111C 1_555 1_555
C30C O63C 1_555 1_555
C30C O99C 1_555 1_555
C32B O107B 1_555 1_555
C32B O109B 1_555 1_555
C35C O115C 1_555 1_555
C35C O118C 1_555 1_555
C40C O117C 1_555 1_555
C40C O121C 1_555 1_555

#END
