
#######################################################################
#
#                 Cambridge Crystallographic Data Centre
#                                CCDC 
#
#######################################################################
#
# If this CIF has been generated from an entry in the Cambridge 
# Structural Database, then it will include bibliographic, chemical, 
# crystal, experimental, refinement or atomic coordinate data resulting 
# from the CCDC's data processing and validation procedures.
#
#######################################################################

data_WAVRAO
_symmetry_cell_setting           rhombohedral
_symmetry_space_group_name_H-M   'R -3'
_symmetry_Int_Tables_number      148
_space_group_name_Hall           '-R 3'
loop_
_symmetry_equiv_pos_site_id
_symmetry_equiv_pos_as_xyz
1 x,y,z
2 -y,x-y,z
3 -x+y,-x,z
4 2/3+x,1/3+y,1/3+z
5 2/3-y,1/3+x-y,1/3+z
6 2/3-x+y,1/3-x,1/3+z
7 1/3+x,2/3+y,2/3+z
8 1/3-y,2/3+x-y,2/3+z
9 1/3-x+y,2/3-x,2/3+z
10 -x,-y,-z
11 y,-x+y,-z
12 x-y,x,-z
13 1/3-x,2/3-y,2/3-z
14 1/3+y,2/3-x+y,2/3-z
15 1/3+x-y,2/3+x,2/3-z
16 2/3-x,1/3-y,1/3-z
17 2/3+y,1/3-x+y,1/3-z
18 2/3+x-y,1/3+x,1/3-z
_cell_length_a                   36.4998(4)
_cell_length_b                   36.4998(4)
_cell_length_c                   24.1865(7)
_cell_angle_alpha                90
_cell_angle_beta                 90
_cell_angle_gamma                120
_cell_volume                     27905.2
loop_
_atom_site_label
_atom_site_type_symbol
_atom_site_fract_x
_atom_site_fract_y
_atom_site_fract_z
O11 O 0.5129(4) 0.2417(4) 1.0118(4)
N2 N 0.4753(4) 0.2461(5) 0.9472(5)
C40 C 0.4980(6) 0.2596(6) 0.9852(8)
C41 C 0.4625(5) 0.1955(5) 0.9321(6)
C42 C 0.4587(7) 0.2624(7) 0.9160(9)
C44 C 0.5098(6) 0.3097(6) 0.9974(7)
In1 In 0.359655(10) 0.131465(10) 0.770570(13)
Mn1 Mn 0.365420(19) 0.216950(18) 0.68434(2)
O1 O 0.42336(10) 0.21800(16) 0.70008(16)
O2 O 0.3727(3) 0.24799(14) 0.7618(2)
O3 O 0.20472(13) 0.26658(10) 1.30071(14)
O4 O 0.32917(13) 0.14629(11) 0.84192(14)
O5 O 0.36712(11) 0.11654(11) 0.86115(12)
O6 O 0.24003(10) 0.30778(10) 1.22862(15)
O7 O 0.42018(9) 0.18676(10) 0.78042(13)
O8 O 0.32711(8) 0.15568(8) 0.72309(11)
O9 O 0.21903(14) -0.0865(2) 1.3270(3)
O10 O 0.22743(19) -0.04569(16) 1.3953(3)
N1 N 0.3595(3) 0.2798(2) 0.8302(2)
C1 C 0.55306(13) 0.30080(15) 0.7226(2)
H1 H 0.5678 0.3256 0.7022
C2 C 0.2910(2) 0.14020(18) 1.0053(2)
H2 H 0.2717 0.1488 1.0145
C3 C 0.30536(18) 0.12411(17) 1.0458(2)
C4 C 0.28624(16) 0.08892(15) 1.1398(2)
H3 H 0.2912 0.0679 1.1263
C5 C 0.21800(16) 0.20227(15) 1.26012(19)
H4 H 0.1980 0.1950 1.2879
C6 C 0.28242(17) 0.15165(16) 1.1247(2)
H5 H 0.2855 0.1732 1.1013
C7 C 0.29159(17) 0.12177(16) 1.1049(2)
C8 C 0.27441(16) 0.05915(18) 1.2883(2)
H6 H 0.2875 0.0867 1.3018
C9 C 0.26656(14) 0.05215(14) 1.2325(2)
C10 C 0.27375(15) 0.08743(15) 1.1939(2)
C11 C 0.55247(13) 0.25145(14) 0.7884(2)
H7 H 0.5668 0.2427 0.8119
C12 C 0.27714(15) 0.22354(15) 1.1764(2)
H8 H 0.2973 0.2310 1.1487
C13 C 0.34385(15) 0.13053(16) 0.8757(2)
C14 C 0.26510(15) 0.11854(15) 1.2130(2)
H9 H 0.2567 0.1177 1.2495
C15 C 0.25771(15) 0.18266(15) 1.19862(19)
C16 C 0.26884(15) 0.15073(16) 1.1783(2)
C17 C 0.22844(16) 0.17251(16) 1.2411(2)
H10 H 0.2157 0.1457 1.2570
C18 C 0.43937(13) 0.21307(16) 0.74302(19)
C19 C 0.26662(16) 0.25294(14) 1.1952(2)
H11 H 0.2791 0.2797 1.1792
C20 C 0.23738(14) 0.24258(14) 1.23786(19)
C21 C 0.22612(15) 0.27479(14) 1.25750(18)
C22 C 0.50946(15) 0.27737(16) 0.7188(2)
H12 H 0.4952 0.2862 0.6954
C23 C 0.62240(12) 0.31146(13) 0.75764(18)
C24 C 0.50836(14) 0.22789(15) 0.78576(19)
H13 H 0.4935 0.2040 0.8077
C25 C 0.64445(13) 0.28937(13) 0.75775(19)
C26 C 0.57524(12) 0.28754(13) 0.75678(19)
C27 C 0.48669(13) 0.24051(15) 0.74993(18)
C28 C 0.24455(16) -0.01494(16) 1.3048(3)
C29 C 0.33145(17) 0.12834(17) 0.9359(2)
C30 C 0.34538(17) 0.11147(17) 0.9754(2)
H14 H 0.3631 0.1011 0.9656
C31 C 0.26306(18) 0.02572(18) 1.3246(2)
H15 H 0.2679 0.0308 1.3623
C32 C 0.24988(17) 0.01117(18) 1.2133(3)
H16 H 0.2460 0.0057 1.1756
C33 C 0.33299(18) 0.10963(17) 1.0306(2)
H17 H 0.3432 0.0987 1.0574
C34 C 0.3046(2) 0.14390(18) 0.9510(2)
H18 H 0.2960 0.1566 0.9247
C35 C 0.23881(17) -0.02215(19) 1.2507(3)
H19 H 0.2273 -0.0497 1.2375
C36 C 0.22899(19) -0.0512(2) 1.3471(4)
C37 C 0.3542(4) 0.3159(4) 0.8519(5)
C38 C 0.3776(3) 0.2777(3) 0.7814(4)
C39 C 0.3396(3) 0.2421(3) 0.8623(4)
C43 C 0.3886(4) 0.3193(4) 0.7430(6)
In1J In 0.131465(10) -0.228190(14) 1.229430(13)
In1E In 0.438477(14) -0.026322(10) 0.103903(13)
In1K In 0.228190(14) 0.359655(10) 1.229430(13)
In1G In 0.201868(10) -0.105143(14) 1.437237(13)
In1B In 0.771810(14) 0.640345(10) 0.770570(13)
In1A In 0.868535(10) 0.228190(14) 0.770570(13)
In1Q In -0.105143(14) -0.307012(10) 0.562763(13)
In1P In 0.798132(10) 0.105143(14) 0.562763(13)
In1O In 0.307012(10) 0.201868(10) 0.562763(13)
Mn1B Mn 0.851530(26) 0.634580(19) 0.68434(2)
Mn1A Mn 0.783050(18) 0.148470(26) 0.68434(2)
Mn1O Mn 0.301247(19) 0.116383(18) 0.64899(2)
Mn1H Mn 0.184863(26) 0.301247(19) 1.35101(2)
Mn1J Mn 0.216950(18) -0.148470(26) 1.31566(2)
Mn1B_2 Mn -0.148470(26) -0.365420(19) 0.68434(2)
Mn1Q Mn 0.815137(26) 0.698753(19) 0.64899(2)
Mn1P Mn 0.883617(18) 0.184863(26) 0.64899(2)
Mn1G Mn 0.116383(18) -0.184863(26) 1.35101(2)
O1B O 0.79464(19) 0.57664(10) 0.70008(16)
O1A O 0.78200(16) 0.20536(19) 0.70008(16)
O2B O 0.87529(33) 0.6273(3) 0.7618(2)
O2A O 0.75201(14) 0.12471(33) 0.7618(2)
O3J O 0.26658(10) 0.06186(16) 0.69929(14)
O3E O 0.72853(16) 0.12861(13) 0.63404(14)
O3D O 0.40009(10) 0.27147(16) 0.63404(14)
O3C O 0.87139(13) 0.59991(10) 0.63404(14)
O4J O 0.14629(11) -0.18288(17) 1.15808(14)
O4E O 0.48379(17) 0.00416(13) 0.17525(14)
O5J O 0.11654(11) -0.25058(16) 1.13885(12)
O5E O 0.41609(16) -0.03379(11) 0.19448(12)
O6J O 0.30778(10) 0.06775(14) 0.77138(15)
O6E O 0.73442(14) 0.09330(10) 0.56195(15)
O6B O 0.06775(14) -0.24003(10) 1.22862(15)
O6O O 0.42664(10) 0.02555(10) 0.10471(15)
O7B O 0.76658(13) 0.57982(9) 0.78042(13)
O7A O 0.81324(10) 0.23342(13) 0.78042(13)
O7J O 0.18676(10) -0.23342(13) 1.21958(13)
O7E O 0.43325(13) -0.08685(9) 0.11375(13)
O8O O 0.33956(8) 0.17765(8) 0.61024(11)
O8J O 0.15568(8) -0.17143(11) 1.27691(11)
O8E O 0.49524(11) 0.00622(8) 0.05642(11)
O8B O 0.82857(11) 0.67289(8) 0.72309(11)
O8Q O 0.83810(11) 0.66044(8) 0.61024(11)
O8A O 0.84432(8) 0.17143(11) 0.72309(11)
O8P O 0.82235(8) 0.16190(11) 0.61024(11)
O9J O -0.0865(2) -0.30553(24) 0.6730(3)
O9E O 0.36114(24) 0.11430(14) 0.6603(3)
O9K O 0.30553(24) 0.21903(14) 0.6730(3)
O9J_2 O 0.9135(2) 0.69447(24) 0.6730(3)
O9I O 0.78097(14) 0.0865(2) 0.6730(3)
O10J O -0.04569(16) -0.27312(25) 0.6047(3)
O10E O 0.39355(25) 0.10590(19) 0.7286(3)
O10L O 0.10590(19) -0.28764(16) 1.2714(3)
O10G O 0.37902(16) -0.06021(25) 0.0620(3)
N1B N 0.9203(4) 0.6405(3) 0.8302(2)
N1A N 0.7202(2) 0.0797(4) 0.8302(2)
C1B C 0.74774(20) 0.44694(13) 0.7226(2)
C1A C 0.69920(15) 0.25226(20) 0.7226(2)
H1B H 0.7578 0.4322 0.7022
H1A H 0.6744 0.2422 0.7022
C2J C 0.14020(18) -0.15080(27) 0.9947(2)
C2E C 0.51587(27) 0.0423(2) 0.3386(2)
H2J H 0.1488 -0.1229 0.9855
H2E H 0.5438 0.0616 0.3478
C3J C 0.12411(17) -0.18125(25) 0.9542(2)
C3E C 0.48542(25) 0.02797(18) 0.3791(2)
C4J C 0.08892(15) -0.19732(22) 0.8602(2)
C4E C 0.46935(22) 0.04709(16) 0.4731(2)
H3J H 0.0679 -0.2233 0.8737
H3E H 0.4434 0.0421 0.4596
C5J C 0.20227(15) -0.01573(22) 0.73988(19)
C5E C 0.65094(22) 0.11533(16) 0.59345(19)
H4J H 0.1950 -0.0030 0.7121
H4E H 0.6637 0.1353 0.6212
C6J C 0.15165(16) -0.13077(23) 0.8753(2)
C6E C 0.53590(23) 0.05091(17) 0.4580(2)
H5J H 0.1732 -0.1123 0.8987
H5E H 0.5544 0.0478 0.4346
C7J C 0.12177(16) -0.16982(23) 0.8951(2)
C7E C 0.49685(23) 0.04174(17) 0.4382(2)
C8J C 0.05915(18) -0.21526(24) 0.7117(2)
C8E C 0.45141(24) 0.05892(16) 0.6216(2)
H6J H 0.0867 -0.2008 0.6982
H6E H 0.4659 0.0458 0.6351
C9J C 0.05215(14) -0.21441(20) 0.7675(2)
C9E C 0.45226(20) 0.06677(14) 0.5658(2)
C10J C 0.08743(15) -0.18632(21) 0.8061(2)
C10E C 0.48035(21) 0.05958(15) 0.5272(2)
C11B C 0.69898(19) 0.44753(13) 0.7884(2)
C11A C 0.74855(14) 0.30102(19) 0.7884(2)
H7B H 0.6759 0.4332 0.8119
H7A H 0.7573 0.3241 0.8119
C12J C 0.22354(15) -0.05360(21) 0.8236(2)
C12E C 0.61307(21) 0.05619(15) 0.5097(2)
H8J H 0.2310 -0.0663 0.8513
H8E H 0.6004 0.0360 0.4820
C13J C 0.13053(16) -0.21332(22) 1.1243(2)
C13E C 0.45335(22) -0.01052(15) 0.2090(2)
C14J C 0.11854(15) -0.14656(21) 0.7870(2)
C14E C 0.52011(21) 0.06823(15) 0.5463(2)
H9J H 0.1177 -0.1390 0.7505
H9E H 0.5277 0.0766 0.5828
C15J C 0.18266(15) -0.07505(21) 0.80138(19)
C15E C 0.59162(21) 0.07562(15) 0.53195(19)
C16J C 0.15073(16) -0.11811(22) 0.8217(2)
C16E C 0.54856(22) 0.06449(15) 0.5116(2)
C17J C 0.17251(16) -0.05593(23) 0.7589(2)
C17E C 0.61074(23) 0.10489(16) 0.5744(2)
H10J H 0.1457 -0.0700 0.7430
H10E H 0.5967 0.1176 0.5903
C18B C 0.77370(21) 0.56063(13) 0.74302(19)
C18A C 0.78693(16) 0.22630(21) 0.74302(19)
C19J C 0.25294(14) -0.01368(21) 0.8048(2)
C19E C 0.65299(21) 0.06671(16) 0.5285(2)
H11J H 0.2797 0.0006 0.8208
H11E H 0.6673 0.0542 0.5125
C20J C 0.24258(14) 0.00520(20) 0.76214(19)
C20E C 0.67187(20) 0.09595(14) 0.57119(19)
C21J C 0.27479(14) 0.04867(21) 0.74250(18)
C21E C 0.71534(21) 0.10721(15) 0.59083(18)
C22B C 0.76791(22) 0.49054(15) 0.7188(2)
C22A C 0.72263(16) 0.23209(22) 0.7188(2)
H12B H 0.7910 0.5048 0.6954
H12A H 0.7138 0.2090 0.6954
C23A C 0.68854(13) 0.31094(18) 0.75764(18)
C23B C 0.68906(18) 0.37760(12) 0.75764(18)
C24B C 0.71953(21) 0.49164(14) 0.78576(19)
C24A C 0.77211(15) 0.28047(21) 0.78576(19)
H13B H 0.7105 0.5065 0.8077
H13A H 0.7960 0.2895 0.8077
C25A C 0.71063(13) 0.35508(18) 0.75775(19)
C25B C 0.64492(18) 0.35555(13) 0.75775(19)
C26B C 0.71230(18) 0.42476(12) 0.75678(19)
C26A C 0.71246(13) 0.28770(18) 0.75678(19)
C27B C 0.75382(20) 0.51331(13) 0.74993(18)
C27A C 0.75949(15) 0.24618(20) 0.74993(18)
C28J C -0.01494(16) -0.25949(23) 0.6952(3)
C28E C 0.40718(23) 0.08878(16) 0.6381(3)
C29J C 0.12834(17) -0.20311(24) 1.0641(2)
C29E C 0.46356(24) 0.00188(17) 0.2692(2)
C30J C 0.11147(17) -0.23391(24) 1.0246(2)
C30E C 0.43276(24) -0.01205(17) 0.3087(2)
H14J H 0.1011 -0.2620 1.0344
H14E H 0.4047 -0.0298 0.2989
C31J C 0.02572(18) -0.23734(25) 0.6754(2)
C31E C 0.42933(25) 0.07027(18) 0.6579(2)
H15J H 0.0308 -0.2371 0.6377
H15E H 0.4296 0.0654 0.6956
C32J C 0.01117(18) -0.23871(25) 0.7867(3)
C32E C 0.42796(25) 0.08345(17) 0.5466(3)
H16J H 0.0057 -0.2403 0.8244
H16E H 0.4264 0.0873 0.5089
C33J C 0.10963(17) -0.22336(25) 0.9694(2)
C33E C 0.44331(25) 0.00034(18) 0.3639(2)
H17J H 0.0987 -0.2445 0.9426
H17E H 0.4222 -0.0099 0.3907
C34J C 0.14390(18) -0.16070(27) 1.0490(2)
C34E C 0.50597(27) 0.0287(2) 0.2843(2)
H18J H 0.1566 -0.1394 1.0753
H18E H 0.5273 0.0373 0.2580
C35J C -0.02215(19) -0.26096(25) 0.7493(3)
C35E C 0.40571(25) 0.09452(17) 0.5840(3)
H19J H -0.0497 -0.2770 0.7625
H19E H 0.3897 0.1060 0.5708
C36J C -0.0512(2) -0.28019(28) 0.6529(4)
C36E C 0.38648(28) 0.10434(19) 0.6804(4)
C37B C 0.9617(6) 0.6458(4) 0.8519(5)
C37A C 0.6841(4) 0.0383(6) 0.8519(5)
C38B C 0.9001(4) 0.6224(3) 0.7814(4)
C38A C 0.7223(3) 0.0999(4) 0.7814(4)
C39B C 0.9025(4) 0.6604(3) 0.8623(4)
C39A C 0.7579(3) 0.0975(4) 0.8623(4)
C43B C 0.9307(6) 0.6114(4) 0.7430(6)
C43A C 0.6807(4) 0.0693(6) 0.7430(6)
loop_
_geom_bond_atom_site_label_1
_geom_bond_atom_site_label_2
_geom_bond_site_symmetry_1
_geom_bond_site_symmetry_2
In1 O4 1_555 1_555
Mn1 O1 1_555 1_555
O1 C18 1_555 1_555
O2 Mn1 1_555 1_555
O3 C21 1_555 1_555
O4 C13 1_555 1_555
O5 In1 1_555 1_555
O6 C21 1_555 1_555
O7 In1 1_555 1_555
O8 In1 1_555 1_555
O9 C36 1_555 1_555
O10 C36 1_555 1_555
O11 C40 1_555 1_555
N1 C37 1_555 1_555
N2 C40 1_555 1_555
C1 H1 1_555 1_555
C2 H2 1_555 1_555
C3 C2 1_555 1_555
C4 H3 1_555 1_555
C5 H4 1_555 1_555
C6 H5 1_555 1_555
C7 C3 1_555 1_555
C8 H6 1_555 1_555
C9 C8 1_555 1_555
C10 C4 1_555 1_555
C11 H7 1_555 1_555
C12 H8 1_555 1_555
C13 O5 1_555 1_555
C14 C10 1_555 1_555
H9 C14 1_555 1_555
C15 C12 1_555 1_555
C16 C6 1_555 1_555
C17 C5 1_555 1_555
H10 C17 1_555 1_555
C18 O7 1_555 1_555
C19 C12 1_555 1_555
H11 C19 1_555 1_555
C20 C5 1_555 1_555
C21 C20 1_555 1_555
C22 C1 1_555 1_555
H12 C22 1_555 1_555
C23 C25 1_555 1_555
C24 C11 1_555 1_555
H13 C24 1_555 1_555
C25 C23A 1_555 1_555
C26 C1 1_555 1_555
C27 C18 1_555 1_555
C28 C31 1_555 1_555
C29 C13 1_555 1_555
C30 C29 1_555 1_555
H14 C30 1_555 1_555
C31 C8 1_555 1_555
H15 C31 1_555 1_555
C32 C9 1_555 1_555
H16 C32 1_555 1_555
C33 C3 1_555 1_555
H17 C33 1_555 1_555
C34 C2 1_555 1_555
H18 C34 1_555 1_555
C35 C28 1_555 1_555
H19 C35 1_555 1_555
C36 C28 1_555 1_555
C38 O2 1_555 1_555
C39 N1 1_555 1_555
C40 C44 1_555 1_555
C41 N2 1_555 1_555
C42 N2 1_555 1_555
C43 C38 1_555 1_555
In1J O4J 1_555 1_555
In1E O4E 1_555 1_555
In1K O6 1_555 1_555
In1G O10 1_555 1_555
In1B O7B 1_555 1_555
In1A O7A 1_555 1_555
In1Q O10J 1_555 1_555
In1P O6E 1_555 1_555
In1O O8O 1_555 1_555
Mn1B Mn1Q 1_555 1_555
Mn1A Mn1P 1_555 1_555
Mn1O Mn1 1_555 1_555
Mn1H O3 1_555 1_555
Mn1J O9 1_555 1_555
Mn1B_2 O9J 1_555 1_555
Mn1Q O8B 1_555 1_555
Mn1P O8A 1_555 1_555
Mn1G Mn1J 1_555 1_555
O1B Mn1B 1_555 1_555
O1A Mn1A 1_555 1_555
O2B Mn1B 1_555 1_555
O2A Mn1A 1_555 1_555
O3J Mn1O 1_555 1_555
O3E Mn1A 1_555 1_555
O3D Mn1 1_555 1_555
O3C Mn1B 1_555 1_555
O4J C13J 1_555 1_555
O4E C13E 1_555 1_555
O5J In1J 1_555 1_555
O5E In1E 1_555 1_555
O6J In1 1_555 1_555
O6E C21E 1_555 1_555
O6B In1J 1_555 1_555
O6O In1E 1_555 1_555
O7B C18B 1_555 1_555
O7A C18A 1_555 1_555
O7J In1J 1_555 1_555
O7E In1E 1_555 1_555
O8O Mn1 1_555 1_555
O8J In1J 1_555 1_555
O8E In1E 1_555 1_555
O8B In1B 1_555 1_555
O8Q Mn1B 1_555 1_555
O8A In1A 1_555 1_555
O8P In1P 1_555 1_555
O9J C36J 1_555 1_555
O9E Mn1O 1_555 1_555
O9K Mn1 1_555 1_555
O9J_2 Mn1B 1_555 1_555
O9I Mn1A 1_555 1_555
O10J C36J 1_555 1_555
O10E In1 1_555 1_555
O10L In1J 1_555 1_555
O10G In1E 1_555 1_555
N1B C37B 1_555 1_555
N1A C37A 1_555 1_555
C1B H1B 1_555 1_555
C1A H1A 1_555 1_555
C2J H2J 1_555 1_555
C2E H2E 1_555 1_555
C3J C2J 1_555 1_555
C3E C2E 1_555 1_555
C4J H3J 1_555 1_555
C4E H3E 1_555 1_555
C5J H4J 1_555 1_555
C5E H4E 1_555 1_555
C6J H5J 1_555 1_555
C6E H5E 1_555 1_555
C7J C3J 1_555 1_555
C7E C3E 1_555 1_555
C8J H6J 1_555 1_555
C8E H6E 1_555 1_555
C9J C8J 1_555 1_555
C9E C8E 1_555 1_555
C10J C4J 1_555 1_555
C10E C4E 1_555 1_555
C11B H7B 1_555 1_555
C11A H7A 1_555 1_555
C12J H8J 1_555 1_555
C12E H8E 1_555 1_555
C13J O5J 1_555 1_555
C13E O5E 1_555 1_555
C14J C10J 1_555 1_555
C14E C10E 1_555 1_555
H9J C14J 1_555 1_555
H9E C14E 1_555 1_555
C15J C12J 1_555 1_555
C15E C12E 1_555 1_555
C16J C6J 1_555 1_555
C16E C6E 1_555 1_555
C17J C5J 1_555 1_555
C17E C5E 1_555 1_555
H10J C17J 1_555 1_555
H10E C17E 1_555 1_555
C18B O1B 1_555 1_555
C18A O1A 1_555 1_555
C19J C12J 1_555 1_555
C19E C12E 1_555 1_555
H11J C19J 1_555 1_555
H11E C19E 1_555 1_555
C20J C5J 1_555 1_555
C20E C5E 1_555 1_555
C21J O3J 1_555 1_555
C21E O3E 1_555 1_555
C22B C1B 1_555 1_555
C22A C1A 1_555 1_555
H12B C22B 1_555 1_555
H12A C22A 1_555 1_555
C23A C25A 1_555 1_555
C23B C25A 1_555 1_555
C24B C11B 1_555 1_555
C24A C11A 1_555 1_555
H13B C24B 1_555 1_555
H13A C24A 1_555 1_555
C25B C23 1_555 1_555
C26B C1B 1_555 1_555
C26A C1A 1_555 1_555
C27B C18B 1_555 1_555
C27A C18A 1_555 1_555
C28J C31J 1_555 1_555
C28E C31E 1_555 1_555
C29J C13J 1_555 1_555
C29E C13E 1_555 1_555
C30J C29J 1_555 1_555
C30E C29E 1_555 1_555
H14J C30J 1_555 1_555
H14E C30E 1_555 1_555
C31J C8J 1_555 1_555
C31E C8E 1_555 1_555
H15J C31J 1_555 1_555
H15E C31E 1_555 1_555
C32J C9J 1_555 1_555
C32E C9E 1_555 1_555
H16J C32J 1_555 1_555
H16E C32E 1_555 1_555
C33J C3J 1_555 1_555
C33E C3E 1_555 1_555
H17J C33J 1_555 1_555
H17E C33E 1_555 1_555
C34J C2J 1_555 1_555
C34E C2E 1_555 1_555
H18J C34J 1_555 1_555
H18E C34E 1_555 1_555
C35J C28J 1_555 1_555
C35E C28E 1_555 1_555
H19J C35J 1_555 1_555
H19E C35E 1_555 1_555
C36J C28J 1_555 1_555
C36E O9E 1_555 1_555
C38B O2B 1_555 1_555
C38A O2A 1_555 1_555
C39B N1B 1_555 1_555
C39A N1A 1_555 1_555
C43B C38B 1_555 1_555
C43A C38A 1_555 1_555
Mn1 O8 1_555 1_555
O8 Mn1O 1_555 1_555
N1 C38 1_555 1_555
C4 C7 1_555 1_555
C6 C7 1_555 1_555
C9 C10 1_555 1_555
C11 C26 1_555 1_555
C14 C16 1_555 1_555
C15 C16 1_555 1_555
C15 C17 1_555 1_555
C19 C20 1_555 1_555
C22 C27 1_555 1_555
C23 C26 1_555 1_555
C24 C27 1_555 1_555
C29 C34 1_555 1_555
C30 C33 1_555 1_555
C32 C35 1_555 1_555
Mn1B O8B 1_555 1_555
Mn1A O8A 1_555 1_555
Mn1A O8P 1_555 1_555
Mn1O O8O 1_555 1_555
Mn1J O8J 1_555 1_555
Mn1Q O8Q 1_555 1_555
Mn1P O8P 1_555 1_555
Mn1G O8J 1_555 1_555
O6J C21J 1_555 1_555
O10E C36E 1_555 1_555
N1B C38B 1_555 1_555
N1A C38A 1_555 1_555
C4J C7J 1_555 1_555
C4E C7E 1_555 1_555
C6J C7J 1_555 1_555
C6E C7E 1_555 1_555
C9J C10J 1_555 1_555
C9E C10E 1_555 1_555
C11B C26B 1_555 1_555
C11A C26A 1_555 1_555
C14J C16J 1_555 1_555
C14E C16E 1_555 1_555
C15J C16J 1_555 1_555
C15J C17J 1_555 1_555
C15E C16E 1_555 1_555
C15E C17E 1_555 1_555
C19J C20J 1_555 1_555
C19E C20E 1_555 1_555
C20J C21J 1_555 1_555
C20E C21E 1_555 1_555
C22B C27B 1_555 1_555
C22A C27A 1_555 1_555
C23A C26A 1_555 1_555
C23B C25B 1_555 1_555
C23B C26B 1_555 1_555
C24B C27B 1_555 1_555
C24A C27A 1_555 1_555
C28E C36E 1_555 1_555
C29J C34J 1_555 1_555
C29E C34E 1_555 1_555
C30J C33J 1_555 1_555
C30E C33E 1_555 1_555
C32J C35J 1_555 1_555
C32E C35E 1_555 1_555

#END
