
#######################################################################
#
#                 Cambridge Crystallographic Data Centre
#                                CCDC 
#
#######################################################################
#
# If this CIF has been generated from an entry in the Cambridge 
# Structural Database, then it will include bibliographic, chemical, 
# crystal, experimental, refinement or atomic coordinate data resulting 
# from the CCDC's data processing and validation procedures.
#
#######################################################################

data_WAVTEU
_symmetry_cell_setting           monoclinic
_symmetry_space_group_name_H-M   'C 2/c'
_symmetry_Int_Tables_number      15
_space_group_name_Hall           '-C 2yn'
loop_
_symmetry_equiv_pos_site_id
_symmetry_equiv_pos_as_xyz
1 x,y,z
2 -x,y,1/2-z
3 1/2+x,1/2+y,z
4 1/2-x,1/2+y,1/2-z
5 -x,-y,-z
6 x,-y,1/2+z
7 1/2-x,1/2-y,-z
8 1/2+x,1/2-y,1/2+z
_cell_length_a                   27.854(6)
_cell_length_b                   17.042(4)
_cell_length_c                   20.656(4)
_cell_angle_alpha                90
_cell_angle_beta                 116.017(4)
_cell_angle_gamma                90
_cell_volume                     8811.54
loop_
_atom_site_label
_atom_site_type_symbol
_atom_site_fract_x
_atom_site_fract_y
_atom_site_fract_z
N1 N 0.0917(4) 0.0585(5) -0.0653(5)
Zn1 Zn 0.13893(5) 0.06800(7) 0.04076(6)
Zn2 Zn 0.20059(5) 0.06933(7) 0.22453(7)
O1 O 0.1556(4) -0.0270(4) 0.1861(5)
O2 O 0.1113(3) -0.0217(4) 0.0691(5)
O3 O -0.2535(3) -0.4297(5) 0.1718(5)
O4 O -0.2899(4) -0.4448(5) 0.0547(5)
O5 O 0.1539(4) -0.8389(5) 0.1829(6)
O6 O 0.1199(3) -0.8338(4) 0.0649(5)
O7 O 0.2225(13) 0.0593(10) 0.3280(9)
C1 C 0.1266(5) -0.0556(7) 0.1282(7)
C2 C 0.1046(4) -0.1353(6) 0.1291(7)
C3 C 0.1181(4) -0.1742(6) 0.1907(6)
H1 H 0.1427 -0.1528 0.2340
C4 C 0.0953(4) -0.2467(6) 0.1895(6)
H2 H 0.1046 -0.2732 0.2327
C5 C 0.0597(4) -0.2805(5) 0.1270(6)
C6 C 0.0472(4) -0.2423(6) 0.0638(6)
H3 H 0.0245 -0.2647 0.0200
C7 C 0.0693(5) -0.1693(7) 0.0668(7)
H4 H 0.0596 -0.1418 0.0240
C8 C 0.0336(4) -0.3617(6) 0.1263(5)
C9 C 0.0587(4) -0.4317(6) 0.1213(5)
C10 C 0.1119(4) -0.4277(5) 0.1159(6)
H5 H 0.1216 -0.3738 0.1150
H6 H 0.1081 -0.4533 0.0726
H7 H 0.1392 -0.4534 0.1569
C11 C 0.0357(4) -0.5013(6) 0.1235(5)
C12 C -0.0125(5) -0.5048(5) 0.1257(5)
C13 C -0.0397(4) -0.4352(6) 0.1270(5)
C14 C -0.0149(4) -0.3636(6) 0.1307(5)
C15 C -0.0413(4) -0.2851(5) 0.1373(5)
H8 H -0.0185 -0.2419 0.1393
H9 H -0.0462 -0.2859 0.1804
H10 H -0.0753 -0.2791 0.0962
C16 C 0.0633(4) -0.5753(6) 0.1236(6)
C17 C 0.0614(4) -0.6083(7) 0.0642(6)
H11 H 0.0435 -0.5812 0.0210
C18 C 0.0839(4) -0.6792(7) 0.0617(6)
H12 H 0.0833 -0.6976 0.0189
C19 C 0.1077(4) -0.7229(6) 0.1247(7)
C20 C 0.1125(5) -0.6916(7) 0.1903(6)
H13 H 0.1306 -0.7184 0.2335
C21 C 0.0890(5) -0.6193(8) 0.1878(6)
H14 H 0.0903 -0.5987 0.2303
C22 C -0.0933(4) -0.4373(5) 0.1254(5)
C23 C -0.0995(4) -0.4342(5) 0.1876(6)
H15 H -0.0697 -0.4320 0.2321
C24 C -0.1508(5) -0.4344(6) 0.1841(6)
H16 H -0.1546 -0.4311 0.2265
C25 C -0.1960(5) -0.4395(5) 0.1189(6)
C26 C -0.1894(4) -0.4434(6) 0.0567(6)
H17 H -0.2192 -0.4469 0.0123
C27 C -0.1383(5) -0.4419(6) 0.0599(6)
H18 H -0.1343 -0.4441 0.0175
C28 C -0.2516(5) -0.4379(6) 0.1138(8)
C29 C -0.0430(5) -0.5803(5) 0.1216(7)
H19 H -0.0757 -0.5680 0.1244
H20 H -0.0216 -0.6140 0.1609
H21 H -0.0511 -0.6064 0.0768
C30 C 0.1277(5) -0.8058(8) 0.1240(8)
C31 C 0.1064(5) 0.0614(9) -0.1151(7)
H22 H 0.1429 0.0654 -0.1012
C32 C 0.0734(6) 0.0590(9) -0.1880(7)
H23 H 0.0876 0.0598 -0.2212
C33 C 0.0197(5) 0.0554(6) -0.2105(5)
C34 C 0.0023(6) 0.0536(8) -0.1592(7)
H24 H -0.0342 0.0509 -0.1721
C35 C 0.0380(6) 0.0558(8) -0.0881(7)
H25 H 0.0250 0.0554 -0.0537
N1A N -0.0917(4) 0.0585(5) -0.4347(5)
Zn1A Zn -0.13893(5) 0.06800(7) -0.54076(6)
Zn1_2 Zn 0.13893(5) -0.93200(7) 0.04076(6)
Zn1A_2 Zn -0.13893(5) -0.93200(7) -0.54076(6)
Zn1B Zn -0.36107(5) -0.43200(7) 0.04076(6)
Zn1C Zn 0.36107(5) -0.43200(7) -0.54076(6)
Zn2A Zn -0.20059(5) 0.06933(7) -0.72453(7)
Zn2_2 Zn 0.20059(5) -0.93067(7) 0.22453(7)
Zn2A_2 Zn -0.20059(5) -0.93067(7) -0.72453(7)
Zn2B Zn -0.29941(5) -0.43067(7) 0.22453(7)
Zn2C Zn 0.29941(5) -0.43067(7) -0.72453(7)
O1A O -0.1556(4) -0.0270(4) -0.6861(5)
O2A O -0.1113(3) -0.0217(4) -0.5691(5)
O3A O 0.2535(3) -0.4297(5) -0.6718(5)
O3B O 0.2465(3) 0.0703(5) 0.1718(5)
O3C O -0.2465(3) 0.0703(5) -0.6718(5)
O4A O 0.2899(4) -0.4448(5) -0.5547(5)
O4B O 0.2101(4) 0.0552(5) 0.0547(5)
O4C O -0.2101(4) 0.0552(5) -0.5547(5)
O5A O -0.1539(4) -0.8389(5) -0.6829(6)
O5_2 O 0.1539(4) 0.1611(5) 0.1829(6)
O5A_2 O -0.1539(4) 0.1611(5) -0.6829(6)
O6A O -0.1199(3) -0.8338(4) -0.5649(5)
O6_2 O 0.1199(3) 0.1662(4) 0.0649(5)
O6A_2 O -0.1199(3) 0.1662(4) -0.5649(5)
O7A O -0.2225(13) 0.0593(10) -0.8280(9)
C1A C -0.1266(5) -0.0556(7) -0.6282(7)
C2A C -0.1046(4) -0.1353(6) -0.6291(7)
C3A C -0.1181(4) -0.1742(6) -0.6907(6)
H1A H -0.1427 -0.1528 -0.7340
C4A C -0.0953(4) -0.2467(6) -0.6895(6)
H2A H -0.1046 -0.2732 -0.7327
C5A C -0.0597(4) -0.2805(5) -0.6270(6)
C6A C -0.0472(4) -0.2423(6) -0.5638(6)
H3A H -0.0245 -0.2647 -0.5200
C7A C -0.0693(5) -0.1693(7) -0.5668(7)
H4A H -0.0596 -0.1418 -0.5240
C8A C -0.0336(4) -0.3617(6) -0.6263(5)
C9A C -0.0587(4) -0.4317(6) -0.6213(5)
C10A C -0.1119(4) -0.4277(5) -0.6159(6)
H5A H -0.1216 -0.3738 -0.6150
H6A H -0.1081 -0.4533 -0.5726
H7A H -0.1392 -0.4534 -0.6569
C11A C -0.0357(4) -0.5013(6) -0.6235(5)
C12A C 0.0125(5) -0.5048(5) -0.6257(5)
C13A C 0.0397(4) -0.4352(6) -0.6270(5)
C14A C 0.0149(4) -0.3636(6) -0.6307(5)
C15A C 0.0413(4) -0.2851(5) -0.6373(5)
H8A H 0.0185 -0.2419 -0.6393
H9A H 0.0462 -0.2859 -0.6804
H10A H 0.0753 -0.2791 -0.5962
C16A C -0.0633(4) -0.5753(6) -0.6236(6)
C17A C -0.0614(4) -0.6083(7) -0.5642(6)
H11A H -0.0435 -0.5812 -0.5210
C18A C -0.0839(4) -0.6792(7) -0.5617(6)
H12A H -0.0833 -0.6976 -0.5189
C19A C -0.1077(4) -0.7229(6) -0.6247(7)
C20A C -0.1125(5) -0.6916(7) -0.6903(6)
H13A H -0.1306 -0.7184 -0.7335
C21A C -0.0890(5) -0.6193(8) -0.6878(6)
H14A H -0.0903 -0.5987 -0.7303
C22A C 0.0933(4) -0.4373(5) -0.6254(5)
C23A C 0.0995(4) -0.4342(5) -0.6876(6)
H15A H 0.0697 -0.4320 -0.7321
C24A C 0.1508(5) -0.4344(6) -0.6841(6)
H16A H 0.1546 -0.4311 -0.7265
C25A C 0.1960(5) -0.4395(5) -0.6189(6)
C26A C 0.1894(4) -0.4434(6) -0.5567(6)
H17A H 0.2192 -0.4469 -0.5123
C27A C 0.1383(5) -0.4419(6) -0.5599(6)
H18A H 0.1343 -0.4441 -0.5175
C28A C 0.2516(5) -0.4379(6) -0.6138(8)
C29A C 0.0430(5) -0.5803(5) -0.6216(7)
H19A H 0.0757 -0.5680 -0.6244
H20A H 0.0216 -0.6140 -0.6609
H21A H 0.0511 -0.6064 -0.5768
C30A C -0.1277(5) -0.8058(8) -0.6240(8)
C31A C -0.1064(5) 0.0614(9) -0.3849(7)
H22A H -0.1429 0.0654 -0.3988
C32A C -0.0734(6) 0.0590(9) -0.3120(7)
H23A H -0.0876 0.0598 -0.2788
C33A C -0.0197(5) 0.0554(6) -0.2895(5)
C34A C -0.0023(6) 0.0536(8) -0.3408(7)
H24A H 0.0342 0.0509 -0.3279
C35A C -0.0380(6) 0.0558(8) -0.4119(7)
H25A H -0.0250 0.0554 -0.4463
loop_
_geom_bond_atom_site_label_1
_geom_bond_atom_site_label_2
_geom_bond_site_symmetry_1
_geom_bond_site_symmetry_2
N1 Zn1 1_555 1_555
Zn1 O2 1_555 1_555
Zn2 O1 1_555 1_555
O1 C1 1_555 1_555
O2 C1 1_555 1_555
O3 C28 1_555 1_555
O4 C28 1_555 1_555
O5 C30 1_555 1_555
O6 C30 1_555 1_555
O7 Zn2 1_555 1_555
C1 C2 1_555 1_555
C2 C3 1_555 1_555
C3 H1 1_555 1_555
C4 C3 1_555 1_555
H2 C4 1_555 1_555
C5 C4 1_555 1_555
C6 C5 1_555 1_555
H3 C6 1_555 1_555
C7 C2 1_555 1_555
H4 C7 1_555 1_555
C8 C5 1_555 1_555
C9 C8 1_555 1_555
C10 C9 1_555 1_555
H5 C10 1_555 1_555
H6 C10 1_555 1_555
H7 C10 1_555 1_555
C11 C9 1_555 1_555
C12 C11 1_555 1_555
C13 C12 1_555 1_555
C14 C8 1_555 1_555
C15 C14 1_555 1_555
H8 C15 1_555 1_555
H9 C15 1_555 1_555
H10 C15 1_555 1_555
C16 C11 1_555 1_555
C17 C16 1_555 1_555
H11 C17 1_555 1_555
C18 C17 1_555 1_555
H12 C18 1_555 1_555
C19 C18 1_555 1_555
C20 C19 1_555 1_555
H13 C20 1_555 1_555
C21 C16 1_555 1_555
H14 C21 1_555 1_555
C22 C13 1_555 1_555
C23 C22 1_555 1_555
H15 C23 1_555 1_555
C24 C23 1_555 1_555
H16 C24 1_555 1_555
C25 C24 1_555 1_555
C26 C25 1_555 1_555
H17 C26 1_555 1_555
C27 C22 1_555 1_555
H18 C27 1_555 1_555
C28 C25 1_555 1_555
C29 C12 1_555 1_555
H19 C29 1_555 1_555
H20 C29 1_555 1_555
H21 C29 1_555 1_555
C30 C19 1_555 1_555
C31 N1 1_555 1_555
H22 C31 1_555 1_555
C32 C31 1_555 1_555
H23 C32 1_555 1_555
C33 C32 1_555 1_555
C34 C33 1_555 1_555
H24 C34 1_555 1_555
C35 N1 1_555 1_555
H25 C35 1_555 1_555
N1A Zn1A 1_555 1_555
Zn1A O2A 1_555 1_555
Zn1_2 O6 1_555 1_555
Zn1A_2 O6A 1_555 1_555
Zn1B O4 1_555 1_555
Zn1C O4A 1_555 1_555
Zn2A O1A 1_555 1_555
Zn2_2 O5 1_555 1_555
Zn2A_2 O5A 1_555 1_555
Zn2B O3 1_555 1_555
Zn2C O3A 1_555 1_555
O1A C1A 1_555 1_555
O2A C1A 1_555 1_555
O3A C28A 1_555 1_555
O3B Zn2 1_555 1_555
O3C Zn2A 1_555 1_555
O4A C28A 1_555 1_555
O4B Zn1 1_555 1_555
O4C Zn1A 1_555 1_555
O5A C30A 1_555 1_555
O5_2 Zn2 1_555 1_555
O5A_2 Zn2A 1_555 1_555
O6A C30A 1_555 1_555
O6_2 Zn1 1_555 1_555
O6A_2 Zn1A 1_555 1_555
O7A Zn2A 1_555 1_555
C1A C2A 1_555 1_555
C2A C3A 1_555 1_555
C3A H1A 1_555 1_555
C4A C3A 1_555 1_555
H2A C4A 1_555 1_555
C5A C4A 1_555 1_555
C6A C5A 1_555 1_555
H3A C6A 1_555 1_555
C7A C2A 1_555 1_555
H4A C7A 1_555 1_555
C8A C5A 1_555 1_555
C9A C8A 1_555 1_555
C10A C9A 1_555 1_555
H5A C10A 1_555 1_555
H6A C10A 1_555 1_555
H7A C10A 1_555 1_555
C11A C9A 1_555 1_555
C12A C11A 1_555 1_555
C13A C12A 1_555 1_555
C14A C8A 1_555 1_555
C15A C14A 1_555 1_555
H8A C15A 1_555 1_555
H9A C15A 1_555 1_555
H10A C15A 1_555 1_555
C16A C11A 1_555 1_555
C17A C16A 1_555 1_555
H11A C17A 1_555 1_555
C18A C17A 1_555 1_555
H12A C18A 1_555 1_555
C19A C18A 1_555 1_555
C20A C19A 1_555 1_555
H13A C20A 1_555 1_555
C21A C16A 1_555 1_555
H14A C21A 1_555 1_555
C22A C13A 1_555 1_555
C23A C22A 1_555 1_555
H15A C23A 1_555 1_555
C24A C23A 1_555 1_555
H16A C24A 1_555 1_555
C25A C24A 1_555 1_555
C26A C25A 1_555 1_555
H17A C26A 1_555 1_555
C27A C22A 1_555 1_555
H18A C27A 1_555 1_555
C28A C25A 1_555 1_555
C29A C12A 1_555 1_555
H19A C29A 1_555 1_555
H20A C29A 1_555 1_555
H21A C29A 1_555 1_555
C30A C19A 1_555 1_555
C31A N1A 1_555 1_555
H22A C31A 1_555 1_555
C32A C31A 1_555 1_555
H23A C32A 1_555 1_555
C33A C33 1_555 1_555
C34A C33A 1_555 1_555
H24A C34A 1_555 1_555
C35A N1A 1_555 1_555
H25A C35A 1_555 1_555
C6 C7 1_555 1_555
C13 C14 1_555 1_555
C20 C21 1_555 1_555
C26 C27 1_555 1_555
C34 C35 1_555 1_555
C6A C7A 1_555 1_555
C13A C14A 1_555 1_555
C20A C21A 1_555 1_555
C26A C27A 1_555 1_555
C32A C33A 1_555 1_555
C34A C35A 1_555 1_555

#END
