
#######################################################################
#
#                 Cambridge Crystallographic Data Centre
#                                CCDC 
#
#######################################################################
#
# If this CIF has been generated from an entry in the Cambridge 
# Structural Database, then it will include bibliographic, chemical, 
# crystal, experimental, refinement or atomic coordinate data resulting 
# from the CCDC's data processing and validation procedures.
#
#######################################################################

data_WAVVUM01
_symmetry_cell_setting           monoclinic
_symmetry_space_group_name_H-M   'C 2/c'
_symmetry_Int_Tables_number      15
_space_group_name_Hall           '-C 2yn'
loop_
_symmetry_equiv_pos_site_id
_symmetry_equiv_pos_as_xyz
1 x,y,z
2 -x,y,1/2-z
3 1/2+x,1/2+y,z
4 1/2-x,1/2+y,1/2-z
5 -x,-y,-z
6 x,-y,1/2+z
7 1/2-x,1/2-y,-z
8 1/2+x,1/2-y,1/2+z
_cell_length_a                   24.306(4)
_cell_length_b                   11.8955(17)
_cell_length_c                   8.6563(14)
_cell_angle_alpha                90
_cell_angle_beta                 97.781(5)
_cell_angle_gamma                90
_cell_volume                     2479.77
loop_
_atom_site_label
_atom_site_type_symbol
_atom_site_fract_x
_atom_site_fract_y
_atom_site_fract_z
Co1 Co 0.0000 0.5000 0.0000
O1 O 0.03335(12) 0.6557(2) 0.0601(3)
O2 O 0.0000 0.4522(4) 0.2500
N1 N 0.08029(14) 0.4319(3) 0.0143(4)
O3 O 0.07728(14) 0.6980(3) -0.1435(4)
O4 O 0.0000 1.0481(3) 0.2500
C1 C 0.12922(19) 0.8838(4) 0.0713(5)
C2 C 0.03449(19) 0.8857(4) 0.1225(5)
H1 H 0.0000 0.8508 0.1167
C3 C 0.07779(18) 0.8308(3) 0.0635(5)
C4 C 0.06303(18) 0.7174(4) -0.0137(5)
O5 O 0.18566(17) 0.7212(3) 0.0590(5)
C5 C 0.08988(19) 0.3416(4) -0.0709(5)
H2 H 0.0606 0.3107 -0.1377
O6 O 0.21810(17) 0.8839(3) -0.0142(6)
C6 C 0.1803(2) 0.8276(4) 0.0302(6)
C7 C 0.04182(19) 0.9907(3) 0.1893(5)
C8 C 0.0914(2) 1.0467(4) 0.1896(5)
H3 H 0.0956 1.1197 0.2278
C9 C 0.2421(2) 0.2922(5) 0.0410(7)
H4 H 0.2694 0.3265 0.1110
C10 C 0.18562(19) 0.3376(4) 0.0325(6)
C11 C 0.1761(2) 0.4296(4) 0.1209(6)
H5 H 0.2049 0.4620 0.1877
C12 C 0.12272(19) 0.4735(4) 0.1093(6)
H6 H 0.1165 0.5349 0.1711
C13 C 0.1416(2) 0.2930(4) -0.0631(6)
H7 H 0.1466 0.2298 -0.1229
C14 C 0.1349(2) 0.9931(4) 0.1323(6)
H8 H 0.1687 1.0302 0.1343
H9 H -0.0286(14) 0.408(3) 0.231(6)
Co1B Co 0.5000 0.0000 0.0000
Co1A Co 0.0000 0.5000 0.5000
O1A O -0.03335(12) 0.6557(2) 0.4399(3)
O1D O -0.03335(12) 0.3443(2) -0.0601(3)
O2D O 0.0000 0.5478(4) -0.2500
N1F N 0.41971(14) 0.0681(3) -0.0143(4)
N1D N -0.08029(14) 0.5681(3) -0.0143(4)
O3A O -0.07728(14) 0.6980(3) 0.6435(4)
C1A C -0.12922(19) 0.8838(4) 0.4287(5)
C2A C -0.03449(19) 0.8857(4) 0.3775(5)
H1A H 0.0000 0.8508 0.3833
C3A C -0.07779(18) 0.8308(3) 0.4365(5)
C4A C -0.06303(18) 0.7174(4) 0.5137(5)
O5A O -0.18566(17) 0.7212(3) 0.4410(5)
C5F C 0.41012(19) 0.1584(4) 0.0709(5)
H2F H 0.4394 0.1893 0.1377
O6A O -0.21810(17) 0.8839(3) 0.5142(6)
C6A C -0.1803(2) 0.8276(4) 0.4698(6)
C7A C -0.04182(19) 0.9907(3) 0.3107(5)
C8A C -0.0914(2) 1.0467(4) 0.3104(5)
H3A H -0.0956 1.1197 0.2722
C9F C 0.2579(2) 0.2078(5) -0.0410(7)
H4F H 0.2306 0.1735 -0.1110
C10F C 0.31438(19) 0.1624(4) -0.0325(6)
C11F C 0.3239(2) 0.0704(4) -0.1209(6)
H5F H 0.2951 0.0380 -0.1877
C12F C 0.37728(19) 0.0265(4) -0.1093(6)
H6F H 0.3835 -0.0349 -0.1711
C13F C 0.3584(2) 0.2070(4) 0.0631(6)
H7F H 0.3534 0.2702 0.1229
C14A C -0.1349(2) 0.9931(4) 0.3677(6)
H8A H -0.1687 1.0302 0.3657
H9A H 0.0286(14) 0.408(3) 0.269(6)
loop_
_geom_bond_atom_site_label_1
_geom_bond_atom_site_label_2
_geom_bond_site_symmetry_1
_geom_bond_site_symmetry_2
Co1 O1 1_555 1_555
O1 C4 1_555 1_555
O2 Co1 1_555 1_555
N1 Co1 1_555 1_555
O3 C4 1_555 1_555
O4 C7 1_555 1_555
C1 C3 1_555 1_555
C2 H1 1_555 1_555
C3 C2 1_555 1_555
C4 C3 1_555 1_555
O5 C6 1_555 1_555
C5 N1 1_555 1_555
H2 C5 1_555 1_555
O6 C6 1_555 1_555
C6 C1 1_555 1_555
C7 C2 1_555 1_555
C8 C7 1_555 1_555
H3 C8 1_555 1_555
C9 H4 1_555 1_555
C10 C9 1_555 1_555
C11 C10 1_555 1_555
H5 C11 1_555 1_555
C12 N1 1_555 1_555
H6 C12 1_555 1_555
C13 C5 1_555 1_555
H7 C13 1_555 1_555
C14 C1 1_555 1_555
H8 C14 1_555 1_555
H9 O2 1_555 1_555
Co1B N1F 1_555 1_555
Co1A O2 1_555 1_555
O1A Co1A 1_555 1_555
O1D Co1 1_555 1_555
O2D Co1 1_555 1_555
N1F C5F 1_555 1_555
N1D Co1 1_555 1_555
O3A C4A 1_555 1_555
C1A C3A 1_555 1_555
C2A H1A 1_555 1_555
C3A C2A 1_555 1_555
C4A O1A 1_555 1_555
O5A C6A 1_555 1_555
C5F H2F 1_555 1_555
O6A C6A 1_555 1_555
C6A C1A 1_555 1_555
C7A O4 1_555 1_555
C8A C7A 1_555 1_555
H3A C8A 1_555 1_555
C9F C9 1_555 1_555
H4F C9F 1_555 1_555
C10F C9F 1_555 1_555
C11F C10F 1_555 1_555
H5F C11F 1_555 1_555
C12F N1F 1_555 1_555
H6F C12F 1_555 1_555
C13F C5F 1_555 1_555
H7F C13F 1_555 1_555
C14A C1A 1_555 1_555
H8A C14A 1_555 1_555
H9A O2 1_555 1_555
C8 C14 1_555 1_555
C10 C13 1_555 1_555
C11 C12 1_555 1_555
C2A C7A 1_555 1_555
C3A C4A 1_555 1_555
C8A C14A 1_555 1_555
C10F C13F 1_555 1_555
C11F C12F 1_555 1_555

#END
