
#######################################################################
#
#                 Cambridge Crystallographic Data Centre
#                                CCDC 
#
#######################################################################
#
# If this CIF has been generated from an entry in the Cambridge 
# Structural Database, then it will include bibliographic, chemical, 
# crystal, experimental, refinement or atomic coordinate data resulting 
# from the CCDC's data processing and validation procedures.
#
#######################################################################

data_WAVVIA
_symmetry_cell_setting           monoclinic
_symmetry_space_group_name_H-M   'P 21/n'
_symmetry_Int_Tables_number      14
_space_group_name_Hall           '-P 2yn'
loop_
_symmetry_equiv_pos_site_id
_symmetry_equiv_pos_as_xyz
1 x,y,z
2 1/2-x,1/2+y,1/2-z
3 -x,-y,-z
4 1/2+x,1/2-y,1/2+z
_cell_length_a                   13.287(4)
_cell_length_b                   18.455(5)
_cell_length_c                   16.997(5)
_cell_angle_alpha                90
_cell_angle_beta                 103.840(4)
_cell_angle_gamma                90
_cell_volume                     4046.86
loop_
_atom_site_label
_atom_site_type_symbol
_atom_site_fract_x
_atom_site_fract_y
_atom_site_fract_z
Cu1 Cu 0.12997(3) 0.75466(2) 0.23873(3)
Cu2 Cu 0.0000 0.0000 0.5000
O1 O 0.17377(19) 0.69693(12) 0.33877(15)
N1 N 0.2793(2) 0.76401(15) 0.23364(19)
O2 O 0.1674(2) 0.61666(14) 0.24098(16)
N2 N 0.0792(2) -0.19880(16) 1.12843(18)
O3 O 0.2181(3) 0.42087(15) 0.55961(18)
O4 O 0.1937(2) 0.45246(15) 0.23132(17)
O5 O 0.0615(3) 0.09568(14) 0.51635(18)
C1 C 0.1871(3) 0.57320(17) 0.3761(2)
C2 C 0.0707(3) -0.0981(2) 1.0395(2)
H1 H 0.0915 -0.0511 1.0314
O6 O 0.0333(2) 0.48538(19) 0.23565(18)
C3 C 0.1814(3) 0.22357(19) 0.5485(2)
C4 C 0.6010(3) 0.7654(2) 0.2404(3)
H2 H 0.6389 0.8034 0.2689
C5 C 0.1760(2) 0.63185(18) 0.3137(2)
C6 C 0.1645(3) 0.50090(17) 0.3539(2)
C7 C 0.1703(3) 0.44892(19) 0.4145(2)
H3 H 0.1537 0.4009 0.4008
C8 C 0.0759(3) 0.21987(19) 0.5459(2)
C9 C 0.0120(3) -0.2333(2) 1.0689(2)
H4 H -0.0085 -0.2799 1.0788
C10 C 0.2231(3) 0.54064(19) 0.5171(2)
H5 H 0.2430 0.5537 0.5715
C11 C 0.3487(3) 0.7922(2) 0.2960(2)
H6 H 0.3257 0.8108 0.3394
C12 C 0.0032(3) -0.1346(2) 0.9770(2)
C13 C 0.0168(3) 0.1498(2) 0.5376(2)
C14 C 0.4165(3) 0.7355(2) 0.1717(2)
H7 H 0.4375 0.7148 0.1283
C15 C 0.1279(3) 0.4780(2) 0.2660(2)
C16 C 0.4888(3) 0.7646(2) 0.2357(3)
C17 C 0.3131(3) 0.7371(2) 0.1722(2)
H8 H 0.2650 0.7186 0.1277
O7 O 0.2786(3) 0.12142(19) 0.6102(2)
C18 C 0.2153(3) 0.59173(19) 0.4577(2)
H9 H 0.2292 0.6400 0.4722
O8 O -0.0707(3) 0.14833(19) 0.5521(3)
C19 C 0.4525(3) 0.7949(2) 0.2987(3)
H10 H 0.4983 0.8168 0.3422
O9 O 0.1368(2) 0.86558(15) 0.30591(19)
C20 C 0.0645(4) 0.3507(2) 0.5474(3)
H11 H 0.0259 0.3928 0.5470
O10 O 0.2794(3) 0.1494(2) 0.4835(2)
C21 C 0.2269(3) 0.2923(2) 0.5512(2)
H12 H 0.2973 0.2967 0.5537
C22 C 0.2516(3) 0.1585(2) 0.5481(3)
C23 C 0.1671(3) 0.35328(19) 0.5501(2)
C24 C 0.2010(3) 0.4691(2) 0.4951(2)
C25 C 0.1068(3) -0.1313(2) 1.1132(2)
H13 H 0.1520 -0.1060 1.1542
C26 C -0.0280(3) -0.2034(2) 0.9943(2)
H14 H -0.0758 -0.2290 0.9553
C27 C 0.0191(3) 0.2830(2) 0.5454(3)
H15 H -0.0512 0.2798 0.5438
C28 C -0.0281(3) -0.1068(2) 0.8937(2)
H16 H -0.0888 -0.1244 0.8599
C29 C 0.6525(3) 0.7181(3) 0.2086(3)
H17 H 0.6171 0.6794 0.1794
N3 N 0.9791(2) 0.73761(16) 0.23756(19)
C30 C 0.8273(3) 0.6639(2) 0.2189(3)
H18 H 0.7980 0.6178 0.2125
C31 C 0.7653(3) 0.7241(2) 0.2177(3)
C32 C 0.9187(3) 0.7957(2) 0.2367(3)
H19 H 0.9494 0.8413 0.2428
C33 C 0.8137(3) 0.7910(2) 0.2273(3)
H20 H 0.7748 0.8329 0.2273
C34 C 0.9336(3) 0.6723(2) 0.2299(3)
H21 H 0.9747 0.6312 0.2320
N4 N -0.0013(3) -0.00944(17) 0.6164(2)
C35 C -0.0806(3) -0.0518(2) 0.7200(2)
H22 H -0.1387 -0.0703 0.7345
C36 C -0.0825(3) -0.0382(2) 0.6400(2)
H23 H -0.1422 -0.0493 0.6007
C37 C 0.0256(3) -0.0582(2) 0.8647(2)
H24 H 0.0784 -0.0347 0.9019
C38 C 0.0832(4) 0.0081(2) 0.6735(3)
H25 H 0.1382 0.0303 0.6580
C39 C 0.0103(3) -0.0373(2) 0.7789(2)
C40 C 0.0918(3) -0.0054(2) 0.7542(3)
H26 H 0.1522 0.0068 0.7921
Cu1B Cu -0.12997(3) -0.75466(2) 0.76127(3)
Cu1_2 Cu 0.12997(3) -0.24534(2) 1.23873(3)
Cu1_3 Cu 1.12997(3) 0.75466(2) 0.23873(3)
Cu1B_2 Cu -0.12997(3) 0.24534(2) -0.23873(3)
Cu1_4 Cu -0.87003(3) 0.75466(2) 0.23873(3)
O1B O -0.17377(19) -0.69693(12) 0.66123(15)
N1_2 N -0.7207(2) 0.76401(15) 0.23364(19)
N1B N -0.2793(2) -0.76401(15) 0.76636(19)
O2B O -0.1674(2) -0.61666(14) 0.75902(16)
N2B N -0.0792(2) 0.19880(16) -0.12843(18)
N2_2 N 0.0792(2) 0.80120(16) 0.12843(18)
N2B_2 N -0.0792(2) -0.80120(16) 0.87157(18)
O3B O -0.2181(3) -0.42087(15) 0.44039(18)
O4B O -0.1937(2) -0.45246(15) 0.76868(17)
O5B O -0.0615(3) -0.09568(14) 0.48365(18)
C1B C -0.1871(3) -0.57320(17) 0.6239(2)
C2B C -0.0707(3) 0.0981(2) -0.0395(2)
H1B H -0.0915 0.0511 -0.0314
O6B O -0.0333(2) -0.48538(19) 0.76435(18)
C3B C -0.1814(3) -0.22357(19) 0.4515(2)
C4_2 C -0.3990(3) 0.7654(2) 0.2404(3)
H2_2 H -0.3611 0.8034 0.2689
C5B C -0.1760(2) -0.63185(18) 0.6863(2)
C6B C -0.1645(3) -0.50090(17) 0.6461(2)
C7B C -0.1703(3) -0.44892(19) 0.5855(2)
H3B H -0.1537 -0.4009 0.5992
C8B C -0.0759(3) -0.21987(19) 0.4541(2)
C9B C -0.0120(3) 0.2333(2) -0.0689(2)
H4B H 0.0085 0.2799 -0.0788
C10B C -0.2231(3) -0.54064(19) 0.4829(2)
H5B H -0.2430 -0.5537 0.4285
C11_2 C -0.6513(3) 0.7922(2) 0.2960(2)
H6_2 H -0.6743 0.8108 0.3394
C12B C -0.0032(3) 0.1346(2) 0.0230(2)
C13B C -0.0168(3) -0.1498(2) 0.4624(2)
C14_2 C -0.5835(3) 0.7355(2) 0.1717(2)
H7_2 H -0.5625 0.7148 0.1283
C15B C -0.1279(3) -0.4780(2) 0.7340(2)
C16_2 C -0.5112(3) 0.7646(2) 0.2357(3)
C17_2 C -0.6869(3) 0.7371(2) 0.1722(2)
H8_2 H -0.7350 0.7186 0.1277
O7B O -0.2786(3) -0.12142(19) 0.3898(2)
C18B C -0.2153(3) -0.59173(19) 0.5423(2)
H9B H -0.2292 -0.6400 0.5278
O8B O 0.0707(3) -0.14833(19) 0.4479(3)
C19_2 C -0.5475(3) 0.7949(2) 0.2987(3)
H10_2 H -0.5017 0.8168 0.3422
O9B O -0.1368(2) -0.86558(15) 0.69409(19)
C20B C -0.0645(4) -0.3507(2) 0.4526(3)
H11B H -0.0259 -0.3928 0.4530
O10B O -0.2794(3) -0.1494(2) 0.5165(2)
C21B C -0.2269(3) -0.2923(2) 0.4488(2)
H12B H -0.2973 -0.2967 0.4463
C22B C -0.2516(3) -0.1585(2) 0.4519(3)
C23B C -0.1671(3) -0.35328(19) 0.4499(2)
C24B C -0.2010(3) -0.4691(2) 0.5049(2)
C25B C -0.1068(3) 0.1313(2) -0.1132(2)
H13B H -0.1520 0.1060 -0.1542
C26B C 0.0280(3) 0.2034(2) 0.0057(2)
H14B H 0.0758 0.2290 0.0447
C27B C -0.0191(3) -0.2830(2) 0.4546(3)
H15B H 0.0512 -0.2798 0.4562
C28B C 0.0281(3) 0.1068(2) 0.1063(2)
H16B H 0.0888 0.1244 0.1401
C29_2 C -0.3475(3) 0.7181(3) 0.2086(3)
H17_2 H -0.3829 0.6794 0.1794
N3_2 N -0.0209(2) 0.73761(16) 0.23756(19)
N3B N 0.0209(2) -0.73761(16) 0.76244(19)
C30_2 C -0.1727(3) 0.6639(2) 0.2189(3)
H18_2 H -0.2020 0.6178 0.2125
C31_2 C -0.2347(3) 0.7241(2) 0.2177(3)
C32_2 C -0.0813(3) 0.7957(2) 0.2367(3)
H19_2 H -0.0506 0.8413 0.2428
C33_2 C -0.1863(3) 0.7910(2) 0.2273(3)
H20_2 H -0.2252 0.8329 0.2273
C34_2 C -0.0664(3) 0.6723(2) 0.2299(3)
H21_2 H -0.0253 0.6312 0.2320
N4B N 0.0013(3) 0.00944(17) 0.3836(2)
C35B C 0.0806(3) 0.0518(2) 0.2800(2)
H22B H 0.1387 0.0703 0.2655
C36B C 0.0825(3) 0.0382(2) 0.3600(2)
H23B H 0.1422 0.0493 0.3993
C37B C -0.0256(3) 0.0582(2) 0.1353(2)
H24B H -0.0784 0.0347 0.0981
C38B C -0.0832(4) -0.0081(2) 0.3265(3)
H25B H -0.1382 -0.0303 0.3420
C39B C -0.0103(3) 0.0373(2) 0.2211(2)
C40B C -0.0918(3) 0.0054(2) 0.2458(3)
H26B H -0.1522 -0.0068 0.2079
Cu3 Cu 0.5000 1.0000 0.5000
O11 O 0.5840(3) 0.98253(18) 0.41292(18)
O12 O 0.5755(2) 0.91390(17) 0.57279(18)
O13 O 0.3818(3) 0.9292(2) 0.4333(2)
O11B O 0.4160(3) 1.01747(18) 0.58708(18)
O12B O 0.4245(2) 1.08610(17) 0.42721(18)
O13B O 0.6182(3) 1.0708(2) 0.5667(2)
O14 O 0.8345(4) 0.4580(3) 0.2695(4)
O15 O 0.2039(5) -0.0465(4) 0.5313(5)
O16 O 0.7256(6) 0.1956(6) 0.5134(6)
loop_
_geom_bond_atom_site_label_1
_geom_bond_atom_site_label_2
_geom_bond_site_symmetry_1
_geom_bond_site_symmetry_2
Cu1 O1 1_555 1_555
Cu2 O5 1_555 1_555
O1 C5 1_555 1_555
N1 Cu1 1_555 1_555
O2 C5 1_555 1_555
N2 C9 1_555 1_555
O3 C23 1_555 1_555
O4 C15 1_555 1_555
O5 C13 1_555 1_555
C1 C5 1_555 1_555
C2 H1 1_555 1_555
O6 C15 1_555 1_555
C3 C8 1_555 1_555
C4 H2 1_555 1_555
C6 C1 1_555 1_555
C7 C6 1_555 1_555
H3 C7 1_555 1_555
C8 C13 1_555 1_555
C9 H4 1_555 1_555
C10 H5 1_555 1_555
C11 N1 1_555 1_555
H6 C11 1_555 1_555
C12 C2 1_555 1_555
C13 O8 1_555 1_555
C14 H7 1_555 1_555
C15 C6 1_555 1_555
C16 C4 1_555 1_555
C17 N1 1_555 1_555
H8 C17 1_555 1_555
O7 C22 1_555 1_555
C18 C1 1_555 1_555
H9 C18 1_555 1_555
C19 C11 1_555 1_555
H10 C19 1_555 1_555
O9 Cu1 1_555 1_555
C20 H11 1_555 1_555
O10 C22 1_555 1_555
C21 C3 1_555 1_555
H12 C21 1_555 1_555
C22 C3 1_555 1_555
C23 C20 1_555 1_555
C24 O3 1_555 1_555
C25 N2 1_555 1_555
H13 C25 1_555 1_555
C26 C9 1_555 1_555
H14 C26 1_555 1_555
C27 C8 1_555 1_555
H15 C27 1_555 1_555
C28 C12 1_555 1_555
H16 C28 1_555 1_555
Cu3 O11 1_555 1_555
O12 Cu3 1_555 1_555
O13 Cu3 1_555 1_555
C29 C4 1_555 1_555
H17 C29 1_555 1_555
N3 C32 1_555 1_555
C30 H18 1_555 1_555
C31 C29 1_555 1_555
C32 H19 1_555 1_555
C33 C31 1_555 1_555
H20 C33 1_555 1_555
C34 N3 1_555 1_555
H21 C34 1_555 1_555
N4 Cu2 1_555 1_555
C35 H22 1_555 1_555
C36 N4 1_555 1_555
H23 C36 1_555 1_555
C37 C28 1_555 1_555
H24 C37 1_555 1_555
C38 N4 1_555 1_555
H25 C38 1_555 1_555
C39 C35 1_555 1_555
C40 C38 1_555 1_555
H26 C40 1_555 1_555
Cu1B O1B 1_555 1_555
Cu1_2 N2 1_555 1_555
Cu1_3 N3 1_555 1_555
Cu1B_2 N2B 1_555 1_555
Cu1_4 N1_2 1_555 1_555
O1B C5B 1_555 1_555
N1_2 C11_2 1_555 1_555
N1B Cu1B 1_555 1_555
O2B C5B 1_555 1_555
N2B C9B 1_555 1_555
N2_2 Cu1 1_555 1_555
N2B_2 Cu1B 1_555 1_555
O3B C23B 1_555 1_555
O4B C15B 1_555 1_555
O5B Cu2 1_555 1_555
C1B C5B 1_555 1_555
C2B H1B 1_555 1_555
O6B C15B 1_555 1_555
C3B C8B 1_555 1_555
C4_2 H2_2 1_555 1_555
C6B C1B 1_555 1_555
C7B C6B 1_555 1_555
H3B C7B 1_555 1_555
C8B C13B 1_555 1_555
C9B H4B 1_555 1_555
C10B H5B 1_555 1_555
C11_2 H6_2 1_555 1_555
C12B C2B 1_555 1_555
C13B O5B 1_555 1_555
C14_2 H7_2 1_555 1_555
C15B C6B 1_555 1_555
C16_2 C4_2 1_555 1_555
C17_2 N1_2 1_555 1_555
H8_2 C17_2 1_555 1_555
O7B C22B 1_555 1_555
C18B C1B 1_555 1_555
H9B C18B 1_555 1_555
O8B C13B 1_555 1_555
C19_2 C11_2 1_555 1_555
H10_2 C19_2 1_555 1_555
O9B Cu1B 1_555 1_555
C20B H11B 1_555 1_555
O10B C22B 1_555 1_555
C21B C3B 1_555 1_555
H12B C21B 1_555 1_555
C22B C3B 1_555 1_555
C23B C20B 1_555 1_555
C24B O3B 1_555 1_555
C25B N2B 1_555 1_555
H13B C25B 1_555 1_555
C26B C9B 1_555 1_555
H14B C26B 1_555 1_555
C27B C8B 1_555 1_555
H15B C27B 1_555 1_555
C28B C12B 1_555 1_555
H16B C28B 1_555 1_555
O11B Cu3 1_555 1_555
O12B Cu3 1_555 1_555
O13B Cu3 1_555 1_555
C29_2 C4_2 1_555 1_555
H17_2 C29_2 1_555 1_555
N3_2 Cu1 1_555 1_555
N3B Cu1B 1_555 1_555
C30_2 H18_2 1_555 1_555
C31_2 C29_2 1_555 1_555
C32_2 N3_2 1_555 1_555
H19_2 C32_2 1_555 1_555
C33_2 C31_2 1_555 1_555
H20_2 C33_2 1_555 1_555
C34_2 N3_2 1_555 1_555
H21_2 C34_2 1_555 1_555
N4B Cu2 1_555 1_555
C35B H22B 1_555 1_555
C36B N4B 1_555 1_555
H23B C36B 1_555 1_555
C37B C28B 1_555 1_555
H24B C37B 1_555 1_555
C38B N4B 1_555 1_555
H25B C38B 1_555 1_555
C39B C35B 1_555 1_555
C40B C38B 1_555 1_555
H26B C40B 1_555 1_555
C2 C25 1_555 1_555
C7 C24 1_555 1_555
C10 C18 1_555 1_555
C10 C24 1_555 1_555
C12 C26 1_555 1_555
C14 C16 1_555 1_555
C14 C17 1_555 1_555
C16 C19 1_555 1_555
C20 C27 1_555 1_555
C21 C23 1_555 1_555
C30 C31 1_555 1_555
C30 C34 1_555 1_555
C32 C33 1_555 1_555
C35 C36 1_555 1_555
C37 C39 1_555 1_555
C39 C40 1_555 1_555
C2B C25B 1_555 1_555
C7B C24B 1_555 1_555
C10B C18B 1_555 1_555
C10B C24B 1_555 1_555
C12B C26B 1_555 1_555
C14_2 C16_2 1_555 1_555
C14_2 C17_2 1_555 1_555
C16_2 C19_2 1_555 1_555
C20B C27B 1_555 1_555
C21B C23B 1_555 1_555
C30_2 C31_2 1_555 1_555
C30_2 C34_2 1_555 1_555
C32_2 C33_2 1_555 1_555
C35B C36B 1_555 1_555
C37B C39B 1_555 1_555
C39B C40B 1_555 1_555

#END
