
#######################################################################
#
#                 Cambridge Crystallographic Data Centre
#                                CCDC 
#
#######################################################################
#
# If this CIF has been generated from an entry in the Cambridge 
# Structural Database, then it will include bibliographic, chemical, 
# crystal, experimental, refinement or atomic coordinate data resulting 
# from the CCDC's data processing and validation procedures.
#
#######################################################################

data_WAVVUM
_symmetry_cell_setting           monoclinic
_symmetry_space_group_name_H-M   'C 2/c'
_symmetry_Int_Tables_number      15
_space_group_name_Hall           '-C 2yn'
loop_
_symmetry_equiv_pos_site_id
_symmetry_equiv_pos_as_xyz
1 x,y,z
2 -x,y,1/2-z
3 1/2+x,1/2+y,z
4 1/2-x,1/2+y,1/2-z
5 -x,-y,-z
6 x,-y,1/2+z
7 1/2-x,1/2-y,-z
8 1/2+x,1/2-y,1/2+z
_cell_length_a                   24.319(7)
_cell_length_b                   11.905(3)
_cell_length_c                   8.666(3)
_cell_angle_alpha                90
_cell_angle_beta                 97.750(6)
_cell_angle_gamma                90
_cell_volume                     2486.04
loop_
_atom_site_label
_atom_site_type_symbol
_atom_site_fract_x
_atom_site_fract_y
_atom_site_fract_z
Co1 Co 0.0000 0.5000 0.0000
O1 O 0.03358(6) 0.65532(12) 0.06032(17)
O2 O 0.0000 0.45102(17) 0.2500
O3 O 0.0000 1.04831(17) 0.2500
O4 O 0.07754(7) 0.69809(14) -0.1430(2)
N1 N -0.08043(7) 0.56829(14) -0.0140(2)
C1 C 0.06300(8) 0.71836(16) -0.0139(2)
C2 C 0.03445(9) 0.88514(17) 0.1214(3)
H1 H 0.0000 0.8504 0.1146
C3 C 0.12959(9) 0.88431(18) 0.0715(3)
C4 C 0.07780(8) 0.83051(16) 0.0636(2)
O5 O 0.21812(9) 0.88423(19) -0.0134(4)
O6 O 0.18573(8) 0.72167(17) 0.0594(3)
C5 C 0.18029(9) 0.8270(2) 0.0303(3)
C6 C 0.09176(9) 1.04730(18) 0.1900(3)
H2 H 0.0962 1.1200 0.2289
C7 C -0.17612(10) 0.5702(2) -0.1210(3)
H3 H -0.2048 0.5380 -0.1882
C8 C -0.08982(9) 0.65824(19) 0.0708(3)
H4 H -0.0603 0.6888 0.1368
C9 C -0.14124(10) 0.7077(2) 0.0650(3)
H5 H -0.1460 0.7707 0.1253
C10 C 0.04164(9) 0.99103(16) 0.1894(3)
C11 C -0.24266(10) 0.7077(3) -0.0408(3)
H6 H -0.2702 0.6734 -0.1098
C12 C -0.18621(9) 0.6625(2) -0.0322(3)
C13 C -0.12324(9) 0.5259(2) -0.1094(3)
H7 H -0.1171 0.4641 -0.1705
C14 C 0.13503(10) 0.99336(18) 0.1317(3)
H8 H 0.1687 1.0307 0.1327
Co1B Co -0.5000 1.0000 0.0000
Co1A Co 0.0000 0.5000 0.5000
O1A O -0.03358(6) 0.65532(12) 0.43968(17)
O1D O -0.03358(6) 0.34468(12) -0.06032(17)
O2D O 0.0000 0.54898(17) -0.2500
O4A O -0.07754(7) 0.69809(14) 0.6430(2)
N1F N -0.41957(7) 0.93171(14) 0.0140(2)
N1D N 0.08043(7) 0.43171(14) 0.0140(2)
C1A C -0.06300(8) 0.71836(16) 0.5139(2)
C2A C -0.03445(9) 0.88514(17) 0.3786(3)
H1A H 0.0000 0.8504 0.3854
C3A C -0.12959(9) 0.88431(18) 0.4285(3)
C4A C -0.07780(8) 0.83051(16) 0.4364(2)
O5A O -0.21812(9) 0.88423(19) 0.5134(4)
O6A O -0.18573(8) 0.72167(17) 0.4406(3)
C5A C -0.18029(9) 0.8270(2) 0.4697(3)
C6A C -0.09176(9) 1.04730(18) 0.3100(3)
H2A H -0.0962 1.1200 0.2711
C7F C -0.32388(10) 0.9298(2) 0.1210(3)
H3F H -0.2952 0.9620 0.1882
C8F C -0.41018(9) 0.84176(19) -0.0708(3)
H4F H -0.4397 0.8112 -0.1368
C9F C -0.35876(10) 0.7923(2) -0.0650(3)
H5F H -0.3540 0.7293 -0.1253
C10A C -0.04164(9) 0.99103(16) 0.3106(3)
C11F C -0.25734(10) 0.7923(3) 0.0408(3)
H6F H -0.2298 0.8266 0.1098
C12F C -0.31379(9) 0.8375(2) 0.0322(3)
C13F C -0.37676(9) 0.9741(2) 0.1094(3)
H7F H -0.3829 1.0359 0.1705
C14A C -0.13503(10) 0.99336(18) 0.3683(3)
H8A H -0.1687 1.0307 0.3673
loop_
_geom_bond_atom_site_label_1
_geom_bond_atom_site_label_2
_geom_bond_site_symmetry_1
_geom_bond_site_symmetry_2
Co1 O1 1_555 1_555
O1 C1 1_555 1_555
O2 Co1 1_555 1_555
O3 C10 1_555 1_555
O4 C1 1_555 1_555
N1 Co1 1_555 1_555
C1 C4 1_555 1_555
C2 H1 1_555 1_555
C3 C4 1_555 1_555
C4 C2 1_555 1_555
O5 C5 1_555 1_555
O6 C5 1_555 1_555
C5 C3 1_555 1_555
C6 H2 1_555 1_555
C7 H3 1_555 1_555
C8 N1 1_555 1_555
H4 C8 1_555 1_555
C9 C8 1_555 1_555
H5 C9 1_555 1_555
C10 C2 1_555 1_555
C11 H6 1_555 1_555
C12 C7 1_555 1_555
C13 N1 1_555 1_555
H7 C13 1_555 1_555
C14 C3 1_555 1_555
H8 C14 1_555 1_555
Co1B N1F 1_555 1_555
Co1A O2 1_555 1_555
O1A Co1A 1_555 1_555
O1D Co1 1_555 1_555
O2D Co1 1_555 1_555
O4A C1A 1_555 1_555
N1F C8F 1_555 1_555
N1D Co1 1_555 1_555
C1A O1A 1_555 1_555
C2A H1A 1_555 1_555
C3A C4A 1_555 1_555
C4A C1A 1_555 1_555
O5A C5A 1_555 1_555
O6A C5A 1_555 1_555
C5A C3A 1_555 1_555
C6A H2A 1_555 1_555
C7F H3F 1_555 1_555
C8F H4F 1_555 1_555
C9F C8F 1_555 1_555
H5F C9F 1_555 1_555
C10A O3 1_555 1_555
C11F C11 1_555 1_555
H6F C11F 1_555 1_555
C12F C7F 1_555 1_555
C13F N1F 1_555 1_555
H7F C13F 1_555 1_555
C14A C3A 1_555 1_555
H8A C14A 1_555 1_555
C6 C10 1_555 1_555
C6 C14 1_555 1_555
C7 C13 1_555 1_555
C9 C12 1_555 1_555
C11 C12 1_555 1_555
C2A C4A 1_555 1_555
C2A C10A 1_555 1_555
C6A C10A 1_555 1_555
C6A C14A 1_555 1_555
C7F C13F 1_555 1_555
C9F C12F 1_555 1_555
C11F C12F 1_555 1_555

#END
