
#######################################################################
#
#                 Cambridge Crystallographic Data Centre
#                                CCDC 
#
#######################################################################
#
# If this CIF has been generated from an entry in the Cambridge 
# Structural Database, then it will include bibliographic, chemical, 
# crystal, experimental, refinement or atomic coordinate data resulting 
# from the CCDC's data processing and validation procedures.
#
#######################################################################

data_WAVWEX
_symmetry_cell_setting           triclinic
_symmetry_space_group_name_H-M   'P -1'
_symmetry_Int_Tables_number      2
_space_group_name_Hall           '-P 1'
loop_
_symmetry_equiv_pos_site_id
_symmetry_equiv_pos_as_xyz
1 x,y,z
2 -x,-y,-z
_cell_length_a                   9.7725(9)
_cell_length_b                   11.5217(10)
_cell_length_c                   12.8609(13)
_cell_angle_alpha                99.200(4)
_cell_angle_beta                 99.788(5)
_cell_angle_gamma                91.110(5)
_cell_volume                     1407.03
loop_
_atom_site_label
_atom_site_type_symbol
_atom_site_fract_x
_atom_site_fract_y
_atom_site_fract_z
Zn1 Zn 0.79996(5) 0.07830(4) 0.49905(3)
O1 O 0.9020(3) 0.2128(2) 0.4700(2)
O2 O 1.0610(3) 0.3062(3) 0.4062(2)
O3 O 1.0522(4) -0.1334(3) 0.2774(3)
O4 O 0.3269(3) -0.0284(3) -0.3598(2)
O5 O 0.3539(3) 0.1409(3) -0.4171(2)
O6 O 1.0804(3) 0.0160(3) 0.4129(2)
O7 O 0.6509(3) 0.1198(3) -0.4174(2)
O8 O 0.7354(3) 0.2522(3) 0.0416(2)
O9 O 0.6947(3) 0.3116(3) -0.3493(2)
C1 C 0.8415(4) 0.0662(4) 0.0662(3)
H1 H 0.8173 0.0349 -0.0060
C2 C 0.9151(4) 0.0024(4) 0.1375(3)
H2 H 0.9388 -0.0734 0.1122
C3 C 0.9553(4) 0.0476(4) 0.2459(3)
C4 C 0.9211(4) 0.1622(3) 0.2836(3)
C5 C 0.8453(4) 0.2260(4) 0.2125(3)
H3 H 0.8215 0.3019 0.2371
C6 C 0.8047(4) 0.1781(4) 0.1056(3)
C7 C 0.9682(4) 0.2296(4) 0.3961(3)
C8 C 1.0344(4) -0.0303(4) 0.3166(3)
C9 C 0.6528(4) 0.2018(4) -0.0547(3)
C10 C 0.6856(4) 0.2307(4) -0.1479(3)
H4 H 0.7640 0.2787 -0.1453
C11 C 0.6012(4) 0.1879(3) -0.2459(3)
C12 C 0.4833(4) 0.1160(3) -0.2491(3)
C13 C 0.4519(4) 0.0879(4) -0.1539(3)
H5 H 0.3736 0.0399 -0.1557
C14 C 0.5362(4) 0.1309(4) -0.0563(3)
H6 H 0.5147 0.1123 0.0069
C15 C 0.3824(4) 0.0750(4) -0.3505(3)
C16 C 0.6524(4) 0.2118(4) -0.3459(3)
Zn1A Zn 0.20004(5) -0.07830(4) -0.49905(3)
Zn1_2 Zn -0.20004(5) 0.07830(4) -0.50095(3)
Zn1_3 Zn 0.79996(5) 0.07830(4) -0.50095(3)
Zn1A_2 Zn 0.20004(5) -0.07830(4) 0.50095(3)
Zn1A_3 Zn 1.20004(5) -0.07830(4) 0.50095(3)
O1A O 0.0980(3) -0.2128(2) -0.4700(2)
O2A O -0.0610(3) -0.3062(3) -0.4062(2)
O3A O -0.0522(4) 0.1334(3) -0.2774(3)
O4A O 0.6731(3) 0.0284(3) 0.3598(2)
O5A O 0.6461(3) -0.1409(3) 0.4171(2)
O6A O -0.0804(3) -0.0160(3) -0.4129(2)
O6_2 O 0.0804(3) 0.0160(3) -0.5871(2)
O6A_2 O 0.9196(3) -0.0160(3) 0.5871(2)
O7A O 0.3491(3) -0.1198(3) 0.4174(2)
O7_2 O 0.6509(3) 0.1198(3) 0.5826(2)
O7A_2 O 0.3491(3) -0.1198(3) -0.5826(2)
O8A O 0.2646(3) -0.2522(3) -0.0416(2)
O9A O 0.3053(3) -0.3116(3) 0.3493(2)
C1A C 0.1585(4) -0.0662(4) -0.0662(3)
H1A H 0.1827 -0.0349 0.0060
C2A C 0.0849(4) -0.0024(4) -0.1375(3)
H2A H 0.0612 0.0734 -0.1122
C3A C 0.0447(4) -0.0476(4) -0.2459(3)
C4A C 0.0789(4) -0.1622(3) -0.2836(3)
C5A C 0.1547(4) -0.2260(4) -0.2125(3)
H3A H 0.1785 -0.3019 -0.2371
C6A C 0.1953(4) -0.1781(4) -0.1056(3)
C7A C 0.0318(4) -0.2296(4) -0.3961(3)
C8A C -0.0344(4) 0.0303(4) -0.3166(3)
C9A C 0.3472(4) -0.2018(4) 0.0547(3)
C10A C 0.3144(4) -0.2307(4) 0.1479(3)
H4A H 0.2360 -0.2787 0.1453
C11A C 0.3988(4) -0.1879(3) 0.2459(3)
C12A C 0.5167(4) -0.1160(3) 0.2491(3)
C13A C 0.5481(4) -0.0879(4) 0.1539(3)
H5A H 0.6264 -0.0399 0.1557
C14A C 0.4638(4) -0.1309(4) 0.0563(3)
H6A H 0.4853 -0.1123 -0.0069
C15A C 0.6176(4) -0.0750(4) 0.3505(3)
C16A C 0.3476(4) -0.2118(4) 0.3459(3)
N1 N 0.0085(4) 0.3521(3) -0.3273(3)
H7 H -0.0388 0.3570 -0.3928
H8 H -0.0239 0.2869 -0.3074
N2 N 0.4311(4) 0.1791(4) 0.3952(3)
H9 H 0.5122 0.1511 0.3805
H10 H 0.4105 0.1475 0.4507
C17 C 0.2406(5) 0.3359(5) -0.2236(4)
H11 H 0.2120 0.2655 -0.1988
H12 H 0.3385 0.3317 -0.2280
C18 C 0.3122(5) 0.4511(5) -0.0363(4)
H13 H 0.4061 0.4371 -0.0487
H14 H 0.3126 0.5315 0.0005
C19 C 0.4467(7) 0.3092(5) 0.4257(4)
H15 H 0.5240 0.3299 0.4845
H16 H 0.3631 0.3387 0.4498
C20 C 0.3897(5) 0.3910(5) 0.1414(4)
H17 H 0.4772 0.3640 0.1228
H18 H 0.4022 0.4751 0.1667
C21 C 0.2795(5) 0.3709(4) 0.0391(4)
H19 H 0.2779 0.2895 0.0045
H20 H 0.1884 0.3865 0.0571
C22 C 0.3605(5) 0.3319(4) 0.2338(3)
H21 H 0.2722 0.3597 0.2524
C23 C 0.3467(5) 0.1982(4) 0.2066(4)
H22 H 0.2708 0.1753 0.1471
H23 H 0.4314 0.1688 0.1845
C24 C 0.4720(6) 0.3666(5) 0.3317(4)
H24 H 0.4758 0.4515 0.3527
H25 H 0.5614 0.3444 0.3137
C25 C -0.0182(5) 0.4542(4) -0.2527(4)
H26 H -0.1164 0.4538 -0.2486
H27 H 0.0054 0.5253 -0.2786
C26 C 0.0652(5) 0.4546(5) -0.1430(4)
H28 H 0.0312 0.3900 -0.1129
H29 H 0.0517 0.5274 -0.0971
C27 C 0.2193(5) 0.4431(4) -0.1445(3)
H30 H 0.2481 0.5108 -0.1744
C28 C 0.3201(5) 0.1428(4) 0.3006(4)
H31 H 0.2311 0.1662 0.3187
H32 H 0.3158 0.0578 0.2810
C29 C 0.1575(5) 0.3405(5) -0.3334(4)
H33 H 0.1914 0.4070 -0.3611
H34 H 0.1693 0.2693 -0.3820
O10 O 0.7968(8) 0.4694(5) 0.5069(4)
loop_
_geom_bond_atom_site_label_1
_geom_bond_atom_site_label_2
_geom_bond_site_symmetry_1
_geom_bond_site_symmetry_2
Zn1 O1 1_555 1_555
O1 C7 1_555 1_555
O2 C7 1_555 1_555
O3 C8 1_555 1_555
O4 C15 1_555 1_555
O5 C15 1_555 1_555
O6 C8 1_555 1_555
O7 C16 1_555 1_555
O8 C6 1_555 1_555
O9 C16 1_555 1_555
C1 H1 1_555 1_555
C2 C1 1_555 1_555
H2 C2 1_555 1_555
C3 C2 1_555 1_555
C4 C3 1_555 1_555
C5 C4 1_555 1_555
H3 C5 1_555 1_555
C6 C1 1_555 1_555
C7 C4 1_555 1_555
C8 C3 1_555 1_555
C9 O8 1_555 1_555
C10 C9 1_555 1_555
H4 C10 1_555 1_555
C11 C10 1_555 1_555
C12 C11 1_555 1_555
C13 C12 1_555 1_555
H5 C13 1_555 1_555
C14 C9 1_555 1_555
H6 C14 1_555 1_555
C15 C12 1_555 1_555
C16 C11 1_555 1_555
N1 H7 1_555 1_555
H8 N1 1_555 1_555
N2 H9 1_555 1_555
H10 N2 1_555 1_555
C17 H11 1_555 1_555
H12 C17 1_555 1_555
C18 H13 1_555 1_555
H14 C18 1_555 1_555
C19 N2 1_555 1_555
H15 C19 1_555 1_555
H16 C19 1_555 1_555
C20 H17 1_555 1_555
H18 C20 1_555 1_555
C21 C18 1_555 1_555
H19 C21 1_555 1_555
H20 C21 1_555 1_555
C22 C20 1_555 1_555
H21 C22 1_555 1_555
C23 C22 1_555 1_555
H22 C23 1_555 1_555
H23 C23 1_555 1_555
C24 C19 1_555 1_555
H24 C24 1_555 1_555
H25 C24 1_555 1_555
C25 N1 1_555 1_555
H26 C25 1_555 1_555
H27 C25 1_555 1_555
C26 C25 1_555 1_555
H28 C26 1_555 1_555
H29 C26 1_555 1_555
C27 C17 1_555 1_555
H30 C27 1_555 1_555
C28 N2 1_555 1_555
H31 C28 1_555 1_555
H32 C28 1_555 1_555
C29 N1 1_555 1_555
H33 C29 1_555 1_555
H34 C29 1_555 1_555
Zn1A O4 1_555 1_555
Zn1_2 O6A 1_555 1_555
Zn1_3 O7 1_555 1_555
Zn1A_2 O7A 1_555 1_555
Zn1A_3 O6 1_555 1_555
O1A Zn1A 1_555 1_555
O2A C7A 1_555 1_555
O3A C8A 1_555 1_555
O4A Zn1 1_555 1_555
O5A C15A 1_555 1_555
O6A C8A 1_555 1_555
O6_2 Zn1A 1_555 1_555
O6A_2 Zn1 1_555 1_555
O7A C16A 1_555 1_555
O7_2 Zn1 1_555 1_555
O7A_2 Zn1A 1_555 1_555
O8A C6A 1_555 1_555
O9A C16A 1_555 1_555
C1A H1A 1_555 1_555
C2A C1A 1_555 1_555
H2A C2A 1_555 1_555
C3A C2A 1_555 1_555
C4A C3A 1_555 1_555
C5A C4A 1_555 1_555
H3A C5A 1_555 1_555
C6A C1A 1_555 1_555
C7A O1A 1_555 1_555
C8A C3A 1_555 1_555
C9A O8A 1_555 1_555
C10A C9A 1_555 1_555
H4A C10A 1_555 1_555
C11A C10A 1_555 1_555
C12A C11A 1_555 1_555
C13A C12A 1_555 1_555
H5A C13A 1_555 1_555
C14A C9A 1_555 1_555
H6A C14A 1_555 1_555
C15A O4A 1_555 1_555
C16A C11A 1_555 1_555
C5 C6 1_555 1_555
C13 C14 1_555 1_555
C17 C29 1_555 1_555
C18 C27 1_555 1_555
C20 C21 1_555 1_555
C22 C24 1_555 1_555
C23 C28 1_555 1_555
C26 C27 1_555 1_555
C4A C7A 1_555 1_555
C5A C6A 1_555 1_555
C12A C15A 1_555 1_555
C13A C14A 1_555 1_555

#END
