
#######################################################################
#
#                 Cambridge Crystallographic Data Centre
#                                CCDC 
#
#######################################################################
#
# If this CIF has been generated from an entry in the Cambridge 
# Structural Database, then it will include bibliographic, chemical, 
# crystal, experimental, refinement or atomic coordinate data resulting 
# from the CCDC's data processing and validation procedures.
#
#######################################################################

data_WAVXUO
_symmetry_cell_setting           orthorhombic
_symmetry_space_group_name_H-M   'A b a 2'
_symmetry_Int_Tables_number      41
_space_group_name_Hall           'A 2 -2ab'
loop_
_symmetry_equiv_pos_site_id
_symmetry_equiv_pos_as_xyz
1 x,y,z
2 -x,-y,z
3 1/2+x,1/2-y,z
4 1/2-x,1/2+y,z
5 x,1/2+y,1/2+z
6 -x,1/2-y,1/2+z
7 1/2+x,-y,1/2+z
8 1/2-x,y,1/2+z
_cell_length_a                   11.5115(5)
_cell_length_b                   21.5421(10)
_cell_length_c                   26.6893(10)
_cell_angle_alpha                90
_cell_angle_beta                 90
_cell_angle_gamma                90
_cell_volume                     6618.46
loop_
_atom_site_label
_atom_site_type_symbol
_atom_site_fract_x
_atom_site_fract_y
_atom_site_fract_z
O13 O 0.3287(8) 0.0887(3) -0.0342(3)
H29 H 0.345(12) 0.077(5) -0.0657(18)
H30 H 0.307(11) 0.1268(18) -0.039(4)
N7 N 0.3414(8) 0.0930(4) -0.2329(4)
N8 N 0.3628(15) 0.0823(8) -0.1859(5)
N9 N 0.3881(9) 0.0703(5) -0.1386(3)
Mn1 Mn 1.38183(7) -0.18389(3) 0.05276(3)
Mn2 Mn 1.12015(7) -0.06264(4) 0.05189(4)
C1 C 1.3197(7) -0.0846(3) -0.0604(2)
H1 H 1.3708 -0.0604 -0.0417
C2 C 1.3198(7) -0.0801(3) -0.1112(2)
H2 H 1.3713 -0.0532 -0.1271
C3 C 1.2421(5) -0.1160(2) -0.1398(2)
C4 C 1.1707(6) -0.1550(4) -0.1133(2)
H3 H 1.1181 -0.1797 -0.1307
C5 C 1.1744(6) -0.1587(3) -0.0620(2)
H4 H 1.1259 -0.1862 -0.0452
C6 C 1.2416(6) -0.1141(2) -0.1954(2)
C7 C 1.3283(6) -0.0844(3) -0.2226(2)
H5 H 1.3872 -0.0635 -0.2057
C8 C 1.3284(6) -0.0853(3) -0.2740(2)
H6 H 1.3871 -0.0649 -0.2914
C9 C 1.2424(5) -0.1160(2) -0.3005(2)
C10 C 1.1556(7) -0.1434(4) -0.2736(2)
H7 H 1.0952 -0.1631 -0.2905
C11 C 1.1557(6) -0.1426(3) -0.2219(2)
H8 H 1.0955 -0.1621 -0.2047
C12 C 1.2416(6) -0.1201(2) -0.3570(2)
C13 C 1.6145(6) -0.2068(3) 0.1585(2)
H9 H 1.6551 -0.1794 0.1381
C14 C 1.6339(5) -0.2070(3) 0.2097(2)
H10 H 1.6880 -0.1797 0.2232
C15 C 1.5745(5) -0.2470(2) 0.24124(19)
C16 C 1.4977(7) -0.2876(3) 0.2178(2)
H11 H 1.4566 -0.3161 0.2371
C17 C 1.4816(6) -0.2865(3) 0.1674(2)
H12 H 1.4304 -0.3146 0.1528
C18 C 1.5888(5) -0.2454(3) 0.29670(19)
C19 C 1.6651(6) -0.2036(3) 0.3186(2)
H13 H 1.7105 -0.1778 0.2987
C20 C 1.6734(6) -0.2005(3) 0.3700(2)
H14 H 1.7253 -0.1725 0.3842
C21 C 1.6075(5) -0.2374(3) 0.4012(2)
C22 C 1.5332(5) -0.2799(3) 0.3789(2)
H15 H 1.4897 -0.3063 0.3991
C23 C 1.5224(5) -0.2840(3) 0.3280(2)
H16 H 1.4709 -0.3124 0.3140
C24 C 1.6173(6) -0.2326(3) 0.4574(2)
C25 C 1.0000 0.0000 -0.0397(3)
C26 C 1.0000 0.0000 -0.0959(3)
C27 C 1.0832(9) 0.0307(5) -0.1226(3)
H17 H 1.1391 0.0539 -0.1057
C28 C 1.0854(7) 0.0279(5) -0.1738(3)
H18 H 1.1475 0.0457 -0.1909
C29 C 1.0000 0.0000 -0.2003(2)
C30 C 1.0000 0.0000 -0.2566(3)
C31 C 1.0907(6) 0.0258(3) -0.2837(2)
H19 H 1.1528 0.0436 -0.2666
C32 C 1.0911(6) 0.0256(3) -0.3349(2)
H20 H 1.1531 0.0429 -0.3524
O1 O 1.2474(4) -0.12638(18) 0.01505(18)
O2 O 1.3258(5) -0.0988(3) -0.37908(16)
O3 O 1.1569(5) -0.1453(3) -0.37746(16)
O4 O 1.5212(4) -0.2452(2) 0.08896(14)
O5 O 1.6734(5) -0.1886(2) 0.47537(17)
O6 O 1.5687(4) -0.2743(2) 0.48302(14)
O7 O 1.0687(8) -0.0314(4) -0.01906(18)
O8 O 1.0000 0.0000 -0.4108(2)
O9 O 1.5119(5) -0.1138(2) 0.0415(2)
H21 H 1.504(8) -0.084(3) 0.062(3)
H22 H 1.572(6) -0.112(4) 0.023(3)
O10 O 1.2551(4) -0.2599(2) 0.06104(19)
H23 H 1.257(6) -0.289(2) 0.039(2)
H24 H 1.188(2) -0.242(2) 0.060(3)
O11 O 1.2583(6) 0.0093(3) 0.0488(3)
H25 H 1.225(6) 0.029(5) 0.026(3)
H26 H 1.3327(19) 0.009(5) 0.048(2)
O12 O 0.9890(5) -0.1364(2) 0.0483(3)
H27 H 0.999(8) -0.163(4) 0.073(3)
H28 H 0.916(3) -0.139(4) 0.041(4)
N1 N 1.2468(5) -0.1234(2) -0.03666(19)
N2 N 1.5376(4) -0.2459(2) 0.13832(16)
N3 N 1.0000 0.0000 -0.3605(2)
N4 N 1.0000 0.0000 0.0951(3)
N5 N 1.0664(11) 0.0336(6) 0.1266(4)
N6 N 1.1245(11) 0.0672(6) 0.1569(4)
Mn1G Mn 1.11817(7) -0.18389(3) 0.55276(3)
Mn1G_2 Mn 1.11817(7) -0.18389(3) -0.44724(3)
Mn1E Mn 1.61817(7) -0.31611(3) 0.55276(3)
Mn1E_2 Mn 1.61817(7) -0.31611(3) -0.44724(3)
Mn2G Mn 1.37985(7) -0.06264(4) 0.55189(4)
Mn2G_2 Mn 1.37985(7) -0.06264(4) -0.44811(4)
Mn2A Mn 0.87985(7) 0.06264(4) 0.05189(4)
C1G C 1.1803(7) -0.0846(3) 0.4396(2)
H1G H 1.1292 -0.0604 0.4583
C2G C 1.1802(7) -0.0801(3) 0.3888(2)
H2G H 1.1287 -0.0532 0.3729
C3G C 1.2579(5) -0.1160(2) 0.3602(2)
C4G C 1.3293(6) -0.1550(4) 0.3867(2)
H3G H 1.3819 -0.1797 0.3693
C5G C 1.3256(6) -0.1587(3) 0.4380(2)
H4G H 1.3741 -0.1862 0.4548
C6G C 1.2584(6) -0.1141(2) 0.3046(2)
C7G C 1.1717(6) -0.0844(3) 0.2774(2)
H5G H 1.1128 -0.0635 0.2943
C8G C 1.1716(6) -0.0853(3) 0.2260(2)
H6G H 1.1129 -0.0649 0.2086
C9G C 1.2576(5) -0.1160(2) 0.1995(2)
C10G C 1.3444(7) -0.1434(4) 0.2264(2)
H7G H 1.4048 -0.1631 0.2095
C11G C 1.3443(6) -0.1426(3) 0.2781(2)
H8G H 1.4045 -0.1621 0.2953
C12G C 1.2584(6) -0.1201(2) 0.1430(2)
C13E C 1.3855(6) -0.2932(3) -0.3415(2)
H9E H 1.3449 -0.3206 -0.3619
C14E C 1.3661(5) -0.2930(3) -0.2903(2)
H10E H 1.3120 -0.3203 -0.2768
C15E C 1.4255(5) -0.2530(2) -0.25876(19)
C16E C 1.5023(7) -0.2124(3) -0.2822(2)
H11E H 1.5434 -0.1839 -0.2629
C17E C 1.5184(6) -0.2135(3) -0.3326(2)
H12E H 1.5696 -0.1854 -0.3472
C18E C 1.4112(5) -0.2546(3) -0.20330(19)
C19E C 1.3349(6) -0.2964(3) -0.1814(2)
H13E H 1.2895 -0.3222 -0.2013
C20E C 1.3266(6) -0.2995(3) -0.1300(2)
H14E H 1.2747 -0.3275 -0.1158
C21E C 1.3925(5) -0.2626(3) -0.0988(2)
C22E C 1.4668(5) -0.2201(3) -0.1211(2)
H15E H 1.5103 -0.1937 -0.1009
C23E C 1.4776(5) -0.2160(3) -0.1720(2)
H16E H 1.5291 -0.1876 -0.1860
C24E C 1.3827(6) -0.2674(3) -0.0426(2)
C27A C 0.9168(9) -0.0307(5) -0.1226(3)
H17A H 0.8609 -0.0539 -0.1057
C28A C 0.9146(7) -0.0279(5) -0.1738(3)
H18A H 0.8525 -0.0457 -0.1909
C31A C 0.9093(6) -0.0258(3) -0.2837(2)
H19A H 0.8472 -0.0436 -0.2666
C32A C 0.9089(6) -0.0256(3) -0.3349(2)
H20A H 0.8469 -0.0429 -0.3524
O1G O 1.2526(4) -0.12638(18) 0.51505(18)
O2G O 1.1742(5) -0.0988(3) 0.12092(16)
O2_2 O 1.3258(5) -0.0988(3) 0.62092(16)
O3G O 1.3431(5) -0.1453(3) 0.12254(16)
O3_2 O 1.1569(5) -0.1453(3) 0.62254(16)
O4E O 1.4788(4) -0.2548(2) -0.41104(14)
O4G O 0.9788(4) -0.2452(2) 0.58896(14)
O5E O 1.3266(5) -0.3114(2) -0.02463(17)
O6E O 1.4313(4) -0.2257(2) -0.01698(14)
O6B O 1.0687(4) -0.2257(2) 0.48302(14)
O7A O 0.9313(8) 0.0314(4) -0.01906(18)
O7G O 1.4313(8) -0.0314(4) 0.48094(18)
O9G O 0.9881(5) -0.1138(2) 0.5415(2)
H21G H 0.996(8) -0.084(3) 0.562(3)
H22G H 0.928(6) -0.112(4) 0.523(3)
O10G O 1.2449(4) -0.2599(2) 0.56104(19)
H23G H 1.243(6) -0.289(2) 0.539(2)
H24G H 1.312(2) -0.242(2) 0.560(3)
O11G O 1.2417(6) 0.0093(3) 0.5488(3)
H25G H 1.275(6) 0.029(5) 0.526(3)
H26G H 1.1673(19) 0.009(5) 0.548(2)
O12G O 1.5110(5) -0.1364(2) 0.5483(3)
H27G H 1.501(8) -0.163(4) 0.573(3)
H28G H 1.584(3) -0.139(4) 0.541(4)
N1G N 1.2532(5) -0.1234(2) 0.46334(19)
N2E N 1.4624(4) -0.2541(2) -0.36168(16)
N4F N 1.5000 0.0000 0.5951(3)
N5A N 0.9336(11) -0.0336(6) 0.1266(4)
N6A N 0.8755(11) -0.0672(6) 0.1569(4)
N10? N 0.364(3) 0.0805(14) -0.2162(13)
N11? N 0.384(5) 0.065(3) -0.1720(14)
N12? N 0.418(3) 0.0563(18) -0.1307(11)
loop_
_geom_bond_atom_site_label_1
_geom_bond_atom_site_label_2
_geom_bond_site_symmetry_1
_geom_bond_site_symmetry_2
Mn1 O1 1_555 1_555
Mn2 O1 1_555 1_555
C1 H1 1_555 1_555
C2 C1 1_555 1_555
H2 C2 1_555 1_555
C3 C2 1_555 1_555
C4 C3 1_555 1_555
H3 C4 1_555 1_555
C5 C4 1_555 1_555
H4 C5 1_555 1_555
C6 C3 1_555 1_555
C7 C6 1_555 1_555
H5 C7 1_555 1_555
C8 C7 1_555 1_555
H6 C8 1_555 1_555
C9 C8 1_555 1_555
C10 C9 1_555 1_555
H7 C10 1_555 1_555
C11 C6 1_555 1_555
H8 C11 1_555 1_555
C12 C9 1_555 1_555
C13 H9 1_555 1_555
C14 C13 1_555 1_555
H10 C14 1_555 1_555
C15 C14 1_555 1_555
C16 C15 1_555 1_555
H11 C16 1_555 1_555
C17 C16 1_555 1_555
H12 C17 1_555 1_555
C18 C15 1_555 1_555
C19 C18 1_555 1_555
H13 C19 1_555 1_555
C20 C19 1_555 1_555
H14 C20 1_555 1_555
C21 C20 1_555 1_555
C22 C21 1_555 1_555
H15 C22 1_555 1_555
C23 C18 1_555 1_555
H16 C23 1_555 1_555
C24 C21 1_555 1_555
C25 C26 1_555 1_555
C26 C27 1_555 1_555
C27 H17 1_555 1_555
C28 C27 1_555 1_555
H18 C28 1_555 1_555
C29 C28 1_555 1_555
C30 C29 1_555 1_555
C31 C30 1_555 1_555
H19 C31 1_555 1_555
C32 C31 1_555 1_555
H20 C32 1_555 1_555
O1 N1 1_555 1_555
O2 C12 1_555 1_555
O3 C12 1_555 1_555
O4 Mn1 1_555 1_555
O5 C24 1_555 1_555
O6 C24 1_555 1_555
O7 Mn2 1_555 1_555
O8 N3 1_555 1_555
O9 Mn1 1_555 1_555
H21 O9 1_555 1_555
H22 O9 1_555 1_555
O10 Mn1 1_555 1_555
H23 O10 1_555 1_555
H24 O10 1_555 1_555
O11 Mn2 1_555 1_555
H25 O11 1_555 1_555
H26 O11 1_555 1_555
O12 Mn2 1_555 1_555
H27 O12 1_555 1_555
H28 O12 1_555 1_555
O13 H29 1_555 1_555
H30 O13 1_555 1_555
N1 C1 1_555 1_555
N2 C13 1_555 1_555
N3 C32 1_555 1_555
N4 Mn2 1_555 1_555
N5 N4 1_555 1_555
N6 N5 1_555 1_555
N7 N8 1_555 1_555
N8 N9 1_555 1_555
Mn1G O1G 1_555 1_555
Mn1G_2 O3 1_555 1_555
Mn1E O6 1_555 1_555
Mn1E_2 O4E 1_555 1_555
Mn2G O1G 1_555 1_555
Mn2G_2 O2 1_555 1_555
Mn2A N4 1_555 1_555
C1G H1G 1_555 1_555
C2G C1G 1_555 1_555
H2G C2G 1_555 1_555
C3G C2G 1_555 1_555
C4G C3G 1_555 1_555
H3G C4G 1_555 1_555
C5G C4G 1_555 1_555
H4G C5G 1_555 1_555
C6G C3G 1_555 1_555
C7G C6G 1_555 1_555
H5G C7G 1_555 1_555
C8G C7G 1_555 1_555
H6G C8G 1_555 1_555
C9G C8G 1_555 1_555
C10G C9G 1_555 1_555
H7G C10G 1_555 1_555
C11G C6G 1_555 1_555
H8G C11G 1_555 1_555
C12G C9G 1_555 1_555
C13E H9E 1_555 1_555
C14E C13E 1_555 1_555
H10E C14E 1_555 1_555
C15E C14E 1_555 1_555
C16E C15E 1_555 1_555
H11E C16E 1_555 1_555
C17E C16E 1_555 1_555
H12E C17E 1_555 1_555
C18E C15E 1_555 1_555
C19E C18E 1_555 1_555
H13E C19E 1_555 1_555
C20E C19E 1_555 1_555
H14E C20E 1_555 1_555
C21E C20E 1_555 1_555
C22E C21E 1_555 1_555
H15E C22E 1_555 1_555
C23E C18E 1_555 1_555
H16E C23E 1_555 1_555
C24E C21E 1_555 1_555
C27A C26 1_555 1_555
H17A C27A 1_555 1_555
C28A C29 1_555 1_555
H18A C28A 1_555 1_555
C31A C30 1_555 1_555
H19A C31A 1_555 1_555
C32A N3 1_555 1_555
H20A C32A 1_555 1_555
O1G N1G 1_555 1_555
O2G Mn2 1_555 1_555
O2_2 Mn2G 1_555 1_555
O3G Mn1 1_555 1_555
O3_2 Mn1G 1_555 1_555
O4E N2E 1_555 1_555
O4G Mn1G 1_555 1_555
O5E C24E 1_555 1_555
O6E Mn1 1_555 1_555
O6B Mn1G 1_555 1_555
O7A C25 1_555 1_555
O7G Mn2G 1_555 1_555
O9G Mn1G 1_555 1_555
H21G O9G 1_555 1_555
H22G O9G 1_555 1_555
O10G Mn1G 1_555 1_555
H23G O10G 1_555 1_555
H24G O10G 1_555 1_555
O11G Mn2G 1_555 1_555
H25G O11G 1_555 1_555
H26G O11G 1_555 1_555
O12G Mn2G 1_555 1_555
H27G O12G 1_555 1_555
H28G O12G 1_555 1_555
N1G C1G 1_555 1_555
N2E C13E 1_555 1_555
N4F Mn2G 1_555 1_555
N5A N4 1_555 1_555
N6A N5A 1_555 1_555
C5 N1 1_555 1_555
C10 C11 1_555 1_555
C17 N2 1_555 1_555
C22 C23 1_555 1_555
C25 O7 1_555 1_555
O4 N2 1_555 1_555
Mn2A O7A 1_555 1_555
C5G N1G 1_555 1_555
C10G C11G 1_555 1_555
C12G O2G 1_555 1_555
C12G O3G 1_555 1_555
C17E N2E 1_555 1_555
C22E C23E 1_555 1_555
C24E O6E 1_555 1_555
C27A C28A 1_555 1_555
C31A C32A 1_555 1_555

#END
