
#######################################################################
#
#                 Cambridge Crystallographic Data Centre
#                                CCDC 
#
#######################################################################
#
# If this CIF has been generated from an entry in the Cambridge 
# Structural Database, then it will include bibliographic, chemical, 
# crystal, experimental, refinement or atomic coordinate data resulting 
# from the CCDC's data processing and validation procedures.
#
#######################################################################

data_WAVZOK
_symmetry_cell_setting           triclinic
_symmetry_space_group_name_H-M   'P -1'
_symmetry_Int_Tables_number      2
_space_group_name_Hall           '-P 1'
loop_
_symmetry_equiv_pos_site_id
_symmetry_equiv_pos_as_xyz
1 x,y,z
2 -x,-y,-z
_cell_length_a                   8.1110(9)
_cell_length_b                   12.4063(14)
_cell_length_c                   16.3568(18)
_cell_angle_alpha                90.1150(10)
_cell_angle_beta                 95.4550(10)
_cell_angle_gamma                106.6550(10)
_cell_volume                     1569.01
loop_
_atom_site_label
_atom_site_type_symbol
_atom_site_fract_x
_atom_site_fract_y
_atom_site_fract_z
Cu1 Cu 0.38306(5) 0.50842(3) 1.04886(2)
Cu2 Cu 0.0000 0.0000 0.5000
Cu3 Cu 0.5000 1.0000 0.5000
O1 O 0.2172(3) 0.3864(2) 0.97967(15)
O2 O 0.4158(3) 0.3761(2) 0.89618(16)
O3 O 0.2532(4) 0.1584(3) 0.63881(19)
O4 O -0.0061(4) 0.0311(2) 0.61763(15)
O5 O -0.3308(5) 0.0999(4) 0.8410(3)
O6 O 0.3460(3) 0.6217(2) 0.96835(15)
O7 O 0.5446(3) 0.6077(2) 0.88620(16)
O8 O 0.5984(5) 0.8204(3) 0.62881(19)
O9 O 0.4582(4) 0.9507(3) 0.61001(17)
O10 O 0.0717(7) 0.9020(4) 0.8276(3)
O11 O 0.6722(4) 0.9211(3) 0.49474(17)
H1 H 0.6650 0.8764 0.5321
H2 H 0.6565 0.8887 0.4488
N1 N 0.2068(4) 0.5319(3) 0.13106(19)
N2 N 0.0765(5) 0.5577(3) 0.2358(2)
N3 N -0.0505(6) 0.5022(4) 0.1811(3)
N4 N -0.0455(10) 0.2997(4) 0.4150(3)
N5 N -0.1296(10) 0.2972(4) 0.4822(3)
N6 N -0.0324(5) 0.1482(3) 0.4741(2)
C1 C 0.1319(5) 0.2588(3) 0.8638(2)
C2 C 0.1798(5) 0.2208(3) 0.7923(2)
H7 H 0.2937 0.2464 0.7798
C3 C 0.0566(5) 0.1442(3) 0.7396(2)
C4 C -0.1118(5) 0.1050(3) 0.7582(2)
H8 H -0.1933 0.0529 0.7231
C5 C -0.1601(5) 0.1434(4) 0.8298(3)
C6 C -0.0395(5) 0.2207(3) 0.8825(2)
H9 H -0.0722 0.2470 0.9299
C7 C 0.2648(4) 0.3473(3) 0.9178(2)
C8 C 0.1065(6) 0.1083(3) 0.6597(2)
C9 C -0.3988(8) 0.1344(6) 0.9077(4)
H10 H -0.3497 0.1101 0.9575
H11 H -0.5221 0.1019 0.9023
H12 H -0.3718 0.2150 0.9093
C10 C 0.3835(5) 0.7352(3) 0.8516(2)
C11 C 0.4664(5) 0.7668(3) 0.7817(2)
H13 H 0.5532 0.7360 0.7691
C12 C 0.4197(5) 0.8452(3) 0.7298(2)
C13 C 0.2923(6) 0.8911(4) 0.7490(3)
H14 H 0.2657 0.9462 0.7163
C14 C 0.2025(7) 0.8555(4) 0.8175(3)
C15 C 0.2510(6) 0.7799(4) 0.8694(2)
H15 H 0.1951 0.7587 0.9164
C16 C 0.4280(4) 0.6481(3) 0.9064(2)
C17 C 0.5008(5) 0.8738(3) 0.6505(2)
C18 C -0.0373(10) 0.8622(8) 0.8899(5)
H16 H -0.0718 0.7814 0.8885
H17 H -0.1380 0.8883 0.8813
H18 H 0.0237 0.8898 0.9425
C19 C 0.2358(7) 0.5753(4) 0.2055(3)
H19 H 0.3432 0.6113 0.2332
C20 C 0.0305(6) 0.4891(4) 0.1203(3)
H20 H -0.0270 0.4527 0.0716
C21 C 0.0424(11) 0.5840(5) 0.3176(4)
H21 H -0.0691 0.5988 0.3150
H22 H 0.1300 0.6515 0.3392
C22 C 0.0428(14) 0.4827(6) 0.3777(4)
H23 H 0.1594 0.4761 0.3865
H24 H 0.0098 0.5004 0.4304
C23 C -0.0628(15) 0.3847(7) 0.3495(5)
H25 H -0.0301 0.3635 0.2977
H26 H -0.1810 0.3884 0.3413
C24 C -0.1209(8) 0.2041(4) 0.5157(3)
H27 H -0.1706 0.1782 0.5635
C25 C 0.0146(8) 0.2107(4) 0.4116(3)
H28 H 0.0793 0.1956 0.3713
Cu1A Cu -0.38306(5) -0.50842(3) -0.04886(2)
Cu1A_2 Cu 0.61694(5) 0.49158(3) 0.95114(2)
Cu1_2 Cu 0.38306(5) 0.50842(3) 0.04886(2)
Cu1_3 Cu -0.61694(5) -0.49158(3) 0.04886(2)
Cu1A_3 Cu -0.38306(5) -0.50842(3) 0.95114(2)
Cu3_2 Cu 0.5000 0.0000 1.5000
O1A O -0.2172(3) -0.3864(2) 0.02033(15)
O2A O -0.4158(3) -0.3761(2) 0.10382(16)
O2A_2 O 0.5842(3) 0.6239(2) 1.10382(16)
O2_2 O -0.5842(3) -0.6239(2) -0.10382(16)
O3A O -0.2532(4) -0.1584(3) 0.36119(19)
O4A O 0.0061(4) -0.0311(2) 0.38237(15)
O5A O 0.3308(5) -0.0999(4) 0.1590(3)
O6A O 0.6540(3) 0.3783(2) 1.03165(15)
O6A_2 O -0.3460(3) -0.6217(2) 0.03165(15)
O7A O 0.4554(3) 0.3923(2) 1.11380(16)
O7_2 O -0.4554(3) -0.3923(2) -0.11380(16)
O8A O 0.4016(5) 0.1796(3) 1.37119(19)
O9A O 0.5418(4) 0.0493(3) 1.38999(17)
O9A_2 O 0.5418(4) 1.0493(3) 0.38999(17)
O10A O 0.9283(7) 0.0980(4) 1.1724(3)
O11A O 0.3278(4) 1.0789(3) 0.50526(17)
H1A H 0.3350 1.1236 0.4679
H2A H 0.3435 1.1113 0.5512
N1A N -0.2068(4) -0.5319(3) 0.86894(19)
N1_2 N 0.2068(4) 0.5319(3) 1.13106(19)
N1A_2 N -0.2068(4) -0.5319(3) -0.13106(19)
N2A N -0.0765(5) -0.5577(3) 0.7642(2)
N3A N 0.0505(6) -0.5022(4) 0.8189(3)
N4A N 0.0455(10) -0.2997(4) 0.5850(3)
N5A N 0.1296(10) -0.2972(4) 0.5178(3)
N6A N 0.0324(5) -0.1482(3) 0.5259(2)
C1A C -0.1319(5) -0.2588(3) 0.1362(2)
C2A C -0.1798(5) -0.2208(3) 0.2077(2)
H7A H -0.2937 -0.2464 0.2202
C3A C -0.0566(5) -0.1442(3) 0.2604(2)
C4A C 0.1118(5) -0.1050(3) 0.2418(2)
H8A H 0.1933 -0.0529 0.2769
C5A C 0.1601(5) -0.1434(4) 0.1702(3)
C6A C 0.0395(5) -0.2207(3) 0.1175(2)
H9A H 0.0722 -0.2470 0.0701
C7A C -0.2648(4) -0.3473(3) 0.0822(2)
C8A C -0.1065(6) -0.1083(3) 0.3403(2)
C9A C 0.3988(8) -0.1344(6) 0.0923(4)
H10A H 0.3497 -0.1101 0.0425
H11A H 0.5221 -0.1019 0.0977
H12A H 0.3718 -0.2150 0.0907
C10A C 0.6165(5) 0.2648(3) 1.1484(2)
C11A C 0.5336(5) 0.2332(3) 1.2183(2)
H13A H 0.4468 0.2640 1.2309
C12A C 0.5803(5) 0.1548(3) 1.2702(2)
C13A C 0.7077(6) 0.1089(4) 1.2510(3)
H14A H 0.7343 0.0538 1.2837
C14A C 0.7975(7) 0.1445(4) 1.1825(3)
C15A C 0.7490(6) 0.2201(4) 1.1306(2)
H15A H 0.8049 0.2413 1.0836
C16A C 0.5720(4) 0.3519(3) 1.0936(2)
C17A C 0.4992(5) 0.1262(3) 1.3495(2)
C18A C 1.0373(10) 0.1378(8) 1.1101(5)
H16A H 1.0718 0.2186 1.1115
H17A H 1.1380 0.1117 1.1187
H18A H 0.9763 0.1102 1.0575
C19A C -0.2358(7) -0.5753(4) 0.7945(3)
H19A H -0.3432 -0.6113 0.7668
C20A C -0.0305(6) -0.4891(4) 0.8797(3)
H20A H 0.0270 -0.4527 0.9284
C21A C -0.0424(11) -0.5840(5) 0.6824(4)
H21A H 0.0691 -0.5988 0.6850
H22A H -0.1300 -0.6515 0.6608
C22A C -0.0428(14) -0.4827(6) 0.6223(4)
H23A H -0.1594 -0.4761 0.6135
H24A H -0.0098 -0.5004 0.5696
C23A C 0.0628(15) -0.3847(7) 0.6505(5)
H25A H 0.0301 -0.3635 0.7023
H26A H 0.1810 -0.3884 0.6587
C24A C 0.1209(8) -0.2041(4) 0.4843(3)
H27A H 0.1706 -0.1782 0.4365
C25A C -0.0146(8) -0.2107(4) 0.5884(3)
H28A H -0.0793 -0.1956 0.6287
O12 O 0.529(3) 0.5953(9) 0.5716(13)
H3 H 0.5620 0.6567 0.5981
H4 H 0.4870 0.5244 0.5750
O13 O 0.407(4) 0.3804(11) 0.5963(16)
H5 H 0.4232 0.3915 0.5461
H6 H 0.3591 0.3149 0.6128
loop_
_geom_bond_atom_site_label_1
_geom_bond_atom_site_label_2
_geom_bond_site_symmetry_1
_geom_bond_site_symmetry_2
Cu1 O1 1_555 1_555
Cu2 O4 1_555 1_555
Cu3 O9 1_555 1_555
O1 C7 1_555 1_555
O2 C7 1_555 1_555
O3 C8 1_555 1_555
O4 C8 1_555 1_555
O5 C5 1_555 1_555
O6 Cu1 1_555 1_555
O7 C16 1_555 1_555
O8 C17 1_555 1_555
O9 C17 1_555 1_555
O10 C14 1_555 1_555
O11 Cu3 1_555 1_555
H1 O11 1_555 1_555
H2 O11 1_555 1_555
O12 H3 1_555 1_555
H4 O12 1_555 1_555
O13 H5 1_555 1_555
H6 O13 1_555 1_555
N1 C19 1_555 1_555
N2 N3 1_555 1_555
N3 C20 1_555 1_555
N4 N5 1_555 1_555
N5 C24 1_555 1_555
N6 Cu2 1_555 1_555
C1 C2 1_555 1_555
C2 H7 1_555 1_555
C3 C2 1_555 1_555
C4 C3 1_555 1_555
H8 C4 1_555 1_555
C5 C4 1_555 1_555
C6 C1 1_555 1_555
H9 C6 1_555 1_555
C7 C1 1_555 1_555
C8 C3 1_555 1_555
C9 O5 1_555 1_555
H10 C9 1_555 1_555
H11 C9 1_555 1_555
H12 C9 1_555 1_555
C10 C11 1_555 1_555
C11 H13 1_555 1_555
C12 C11 1_555 1_555
C13 C12 1_555 1_555
H14 C13 1_555 1_555
C14 C13 1_555 1_555
C15 C10 1_555 1_555
H15 C15 1_555 1_555
C16 O6 1_555 1_555
C17 C12 1_555 1_555
C18 O10 1_555 1_555
H16 C18 1_555 1_555
H17 C18 1_555 1_555
H18 C18 1_555 1_555
C19 N2 1_555 1_555
H19 C19 1_555 1_555
C20 N1 1_555 1_555
H20 C20 1_555 1_555
C21 N2 1_555 1_555
H21 C21 1_555 1_555
H22 C21 1_555 1_555
C22 C21 1_555 1_555
H23 C22 1_555 1_555
H24 C22 1_555 1_555
C23 N4 1_555 1_555
H25 C23 1_555 1_555
H26 C23 1_555 1_555
C24 N6 1_555 1_555
H27 C24 1_555 1_555
C25 N4 1_555 1_555
H28 C25 1_555 1_555
Cu1A O1A 1_555 1_555
Cu1A_2 O2 1_555 1_555
Cu1_2 N1 1_555 1_555
Cu1_3 O2A 1_555 1_555
Cu1A_3 N1A 1_555 1_555
Cu3_2 O9A 1_555 1_555
O1A C7A 1_555 1_555
O2A C7A 1_555 1_555
O2A_2 Cu1 1_555 1_555
O2_2 Cu1A 1_555 1_555
O3A C8A 1_555 1_555
O4A Cu2 1_555 1_555
O5A C5A 1_555 1_555
O6A Cu1A_2 1_555 1_555
O6A_2 Cu1A 1_555 1_555
O7A Cu1 1_555 1_555
O7_2 Cu1A 1_555 1_555
O8A C17A 1_555 1_555
O9A C17A 1_555 1_555
O9A_2 Cu3 1_555 1_555
O10A C14A 1_555 1_555
O11A Cu3 1_555 1_555
H1A O11A 1_555 1_555
H2A O11A 1_555 1_555
N1A C19A 1_555 1_555
N1_2 Cu1 1_555 1_555
N1A_2 Cu1A 1_555 1_555
N2A N3A 1_555 1_555
N3A C20A 1_555 1_555
N4A N5A 1_555 1_555
N5A C24A 1_555 1_555
N6A Cu2 1_555 1_555
C1A C2A 1_555 1_555
C2A H7A 1_555 1_555
C3A C2A 1_555 1_555
C4A C3A 1_555 1_555
H8A C4A 1_555 1_555
C5A C4A 1_555 1_555
C6A C1A 1_555 1_555
H9A C6A 1_555 1_555
C7A C1A 1_555 1_555
C8A O4A 1_555 1_555
C9A O5A 1_555 1_555
H10A C9A 1_555 1_555
H11A C9A 1_555 1_555
H12A C9A 1_555 1_555
C10A C11A 1_555 1_555
C11A H13A 1_555 1_555
C12A C11A 1_555 1_555
C13A C12A 1_555 1_555
H14A C13A 1_555 1_555
C14A C13A 1_555 1_555
C15A C10A 1_555 1_555
H15A C15A 1_555 1_555
C16A O6A 1_555 1_555
C17A C12A 1_555 1_555
C18A O10A 1_555 1_555
H16A C18A 1_555 1_555
H17A C18A 1_555 1_555
H18A C18A 1_555 1_555
C19A N2A 1_555 1_555
H19A C19A 1_555 1_555
C20A N1A 1_555 1_555
H20A C20A 1_555 1_555
C21A N2A 1_555 1_555
H21A C21A 1_555 1_555
H22A C21A 1_555 1_555
C22A C21A 1_555 1_555
H23A C22A 1_555 1_555
H24A C22A 1_555 1_555
C23A N4A 1_555 1_555
H25A C23A 1_555 1_555
H26A C23A 1_555 1_555
C24A N6A 1_555 1_555
H27A C24A 1_555 1_555
C25A N4A 1_555 1_555
H28A C25A 1_555 1_555
O7 Cu1A_2 1_555 1_555
N6 C25 1_555 1_555
C5 C6 1_555 1_555
C10 C16 1_555 1_555
C14 C15 1_555 1_555
C22 C23 1_555 1_555
O7A C16A 1_555 1_555
N6A C25A 1_555 1_555
C3A C8A 1_555 1_555
C5A C6A 1_555 1_555
C10A C16A 1_555 1_555
C14A C15A 1_555 1_555
C22A C23A 1_555 1_555

#END
