
#######################################################################
#
#                 Cambridge Crystallographic Data Centre
#                                CCDC 
#
#######################################################################
#
# If this CIF has been generated from an entry in the Cambridge 
# Structural Database, then it will include bibliographic, chemical, 
# crystal, experimental, refinement or atomic coordinate data resulting 
# from the CCDC's data processing and validation procedures.
#
#######################################################################

data_WAWFOP
_symmetry_cell_setting           monoclinic
_symmetry_space_group_name_H-M   'P 21'
_symmetry_Int_Tables_number      4
_space_group_name_Hall           'P 2yb'
loop_
_symmetry_equiv_pos_site_id
_symmetry_equiv_pos_as_xyz
1 x,y,z
2 -x,1/2+y,-z
_cell_length_a                   9.8540(3)
_cell_length_b                   32.3380(6)
_cell_length_c                   11.3580(15)
_cell_angle_alpha                90
_cell_angle_beta                 110.521(3)
_cell_angle_gamma                90
_cell_volume                     3389.66
loop_
_atom_site_label
_atom_site_type_symbol
_atom_site_fract_x
_atom_site_fract_y
_atom_site_fract_z
N1 N -0.3909(4) 0.27355(15) 0.0848(4)
N2 N -0.3454(4) 0.33397(16) -0.0960(4)
H1 H -0.4172 0.3308 -0.0621
N3 N -0.5752(4) 0.38306(15) -0.0671(4)
N4 N -0.6185(4) 0.32270(15) 0.1130(3)
H2 H -0.5480 0.3217 0.0817
C1 C -0.6114(5) 0.29253(19) 0.2017(4)
C2 C -0.5205(6) 0.25819(18) 0.2304(5)
C3 C -0.4162(5) 0.24888(19) 0.1738(5)
C4 C -0.3239(6) 0.21316(19) 0.2014(5)
H3 H -0.3206 0.1926 0.2595
C5 C -0.2437(6) 0.2150(2) 0.1281(5)
H4 H -0.1753 0.1958 0.1237
C6 C -0.2853(5) 0.25339(18) 0.0560(5)
C7 C -0.2195(6) 0.26691(19) -0.0303(5)
C8 C -0.2508(6) 0.30329(19) -0.0994(5)
C9 C -0.1908(6) 0.31553(18) -0.1918(4)
H5 H -0.1211 0.3010 -0.2129
C10 C -0.2521(5) 0.35166(19) -0.2434(4)
H6 H -0.2326 0.3662 -0.3062
C11 C -0.3522(5) 0.36340(19) -0.1842(5)
C12 C -0.4443(6) 0.39802(19) -0.2118(5)
C13 C -0.5473(6) 0.40682(18) -0.1554(4)
C14 C -0.6377(6) 0.44352(18) -0.1817(5)
H7 H -0.6378 0.4646 -0.2375
C15 C -0.7217(6) 0.44141(19) -0.1100(5)
H8 H -0.7917 0.4604 -0.1076
C16 C -0.6802(6) 0.40342(19) -0.0371(4)
C17 C -0.7456(5) 0.38997(19) 0.0467(5)
C18 C -0.7167(5) 0.35292(18) 0.1162(4)
C19 C -0.7735(5) 0.34128(19) 0.2113(5)
H9 H -0.8408 0.3560 0.2351
C20 C -0.7116(5) 0.30489(18) 0.2604(5)
H10 H -0.7313 0.2902 0.3229
C21 C -0.6603(6) 0.21027(19) 0.3182(5)
H11 H -0.7418 0.2152 0.2473
C22 C -0.5315(5) 0.22924(18) 0.3305(5)
C23 C -0.6694(6) 0.18343(19) 0.4122(5)
H12 H -0.7569 0.1708 0.4043
C24 C -0.5463(6) 0.17582(19) 0.5176(5)
C25 C -0.4170(5) 0.19552(19) 0.5286(5)
H13 H -0.3349 0.1908 0.5991
C26 C -0.4095(5) 0.22186(18) 0.4364(5)
H14 H -0.3224 0.2348 0.4447
C27 C -0.5601(6) 0.1468(2) 0.6165(5)
O1 O -0.6702(4) 0.12978(16) 0.6081(4)
O2 O -0.4370(4) 0.14280(17) 0.7135(3)
H15 H -0.435(10) 0.117(3) 0.762(9)
C28 C -0.1061(6) 0.23886(18) -0.0504(5)
C29 C -0.1504(6) 0.2010(2) -0.1113(5)
H16 H -0.2471 0.1930 -0.1364
C30 C -0.0482(7) 0.17535(19) -0.1341(5)
H17 H -0.0768 0.1504 -0.1762
C31 C 0.0961(6) 0.18723(19) -0.0937(5)
C32 C 0.1372(6) 0.22488(19) -0.0321(5)
H18 H 0.2342 0.2326 -0.0045
C33 C 0.0381(6) 0.25070(19) -0.0111(5)
H19 H 0.0672 0.2759 0.0291
C34 C 0.2031(7) 0.1596(2) -0.1187(6)
O3 O 0.1680(5) 0.12650(15) -0.1742(4)
O4 O 0.3375(5) 0.17347(16) -0.0783(4)
H20 H 0.400(6) 0.148(2) -0.090(5)
C35 C -0.4332(6) 0.42624(19) -0.3125(5)
C36 C -0.3036(6) 0.4455(2) -0.3043(5)
H21 H -0.2204 0.4406 -0.2349
C37 C -0.2974(6) 0.4719(2) -0.3987(5)
H22 H -0.2106 0.4848 -0.3919
C38 C -0.4213(6) 0.47913(19) -0.5038(5)
C39 C -0.5490(6) 0.46072(19) -0.5138(5)
H23 H -0.6317 0.4660 -0.5833
C40 C -0.5560(6) 0.43373(19) -0.4193(5)
H24 H -0.6430 0.4207 -0.4276
C41 C -0.4082(6) 0.5080(2) -0.6039(5)
O5 O -0.2927(4) 0.52263(15) -0.6010(4)
O6 O -0.5329(4) 0.51540(17) -0.6937(4)
H25 H -0.514(5) 0.5269(16) -0.759(5)
C42 C -0.8545(6) 0.41713(19) 0.0687(5)
C43 C -1.0004(6) 0.4070(2) 0.0287(5)
H26 H -1.0316 0.3825 -0.0151
C44 C -1.1020(6) 0.4328(2) 0.0523(5)
H27 H -1.1993 0.4253 0.0247
C45 C -1.0567(6) 0.4694(2) 0.1171(5)
C46 C -0.9113(6) 0.4799(2) 0.1570(5)
H28 H -0.8805 0.5045 0.2004
C47 C -0.8123(6) 0.45469(19) 0.1338(5)
H29 H -0.7153 0.4625 0.1616
C48 C -1.1607(7) 0.4983(2) 0.1448(5)
O7 O -1.1246(5) 0.53118(15) 0.1982(4)
O8 O -1.2964(5) 0.48453(16) 0.1053(4)
H30 H -1.38(2) 0.509(7) 0.072(18)
Na1 Na -0.7792(2) 0.0790 0.69513(15)
C67 C -0.9147(7) 0.0865(3) 0.2697(7)
H51 H -0.8384 0.0958 0.3395
C68 C -0.9012(9) 0.0861(5) 0.1526(8)
H52 H -0.8138 0.0945 0.1461
C69 C -1.0068(8) 0.0744(3) 0.0498(6)
H53 H -0.9996 0.0781 -0.0291
C70 C -1.1278(8) 0.0566(3) 0.0625(7)
H54 H -1.1999 0.0460 -0.0079
C71 C -1.1436(8) 0.0544(3) 0.1799(7)
H55 H -1.2217 0.0406 0.1898
C72 C -1.0381(6) 0.0736(3) 0.2826(5)
C73 C -1.0509(7) 0.0725(3) 0.4093(6)
O13 O -0.9556(5) 0.0815(2) 0.5036(4)
O14 O -1.1709(5) 0.05533(18) 0.4128(4)
C74 C -1.1902(9) 0.0515(3) 0.5373(7)
H56 H -1.2750 0.0348 0.5281
H57 H -1.1065 0.0378 0.5965
C75 C -1.2076(9) 0.0932(3) 0.5869(8)
H58 H -1.2213 0.0901 0.6661
H59 H -1.2903 0.1068 0.5282
H60 H -1.1223 0.1094 0.5983
C76 C -0.4880(7) 0.1133(2) 1.1475(6)
H61 H -0.4665 0.1377 1.1142
C77 C -0.4946(9) 0.1135(2) 1.2671(6)
H62 H -0.4791 0.1380 1.3129
C78 C -0.5239(7) 0.0780(3) 1.3180(4)
H63 H -0.5323 0.0782 1.3971
C79 C -0.5410(9) 0.0416(2) 1.2506(6)
H64 H -0.5571 0.0171 1.2861
C80 C -0.5344(8) 0.0413(2) 1.1319(6)
H65 H -0.5448 0.0165 1.0881
C81 C -0.5124(5) 0.0778(2) 1.0772(4)
C82 C -0.5062(5) 0.0782(2) 0.9471(4)
O15 O -0.4849(5) 0.11271(15) 0.9046(4)
O16 O -0.5232(5) 0.04525(16) 0.8862(4)
Na1_2 Na 0.2208(2) 0.0790 -0.30487(15)
Na1A Na -0.2208(2) 0.5790 -0.69513(15)
Na1A_2 Na -1.2208(2) 0.5790 0.30487(15)
O3_2 O -0.8320(5) 0.12650(15) 0.8258(4)
O5A O -0.7073(4) 0.02263(15) 0.6010(4)
O7A O -0.8754(5) 0.03118(15) 0.8018(4)
C49 C -1.2159(6) 0.3575(2) 0.2575(5)
H31 H -1.1625 0.3562 0.2044
C50 C -1.3190(6) 0.3871(2) 0.2397(5)
H32 H -1.3363 0.4058 0.1738
C51 C -1.3979(6) 0.3898(2) 0.3178(6)
H33 H -1.4661 0.4108 0.3056
C52 C -1.3773(6) 0.3620(2) 0.4136(5)
H34 H -1.4326 0.3634 0.4652
C53 C -1.2718(6) 0.3313(2) 0.4323(5)
H35 H -1.2563 0.3123 0.4970
C54 C -1.1903(6) 0.32922(19) 0.3550(5)
C55 C -1.0791(6) 0.2962(2) 0.3684(5)
O9 O -1.0016(5) 0.29493(17) 0.3059(4)
O10 O -1.0754(4) 0.26834(14) 0.4562(4)
C56 C -0.9692(7) 0.2355(2) 0.4724(6)
H36 H -0.8719 0.2468 0.5031
H37 H -0.9844 0.2218 0.3929
C57 C -0.9887(7) 0.2056(3) 0.5656(8)
H38 H -0.9191 0.1836 0.5796
H39 H -1.0848 0.1942 0.5336
H40 H -0.9747 0.2196 0.6435
C58 C -0.7443(6) 0.2969(2) 0.7629(5)
H41 H -0.7973 0.2983 0.8163
C59 C -0.6427(7) 0.2664(2) 0.7791(6)
H42 H -0.6272 0.2471 0.8430
C60 C -0.5627(6) 0.2645(2) 0.6993(5)
H43 H -0.4929 0.2441 0.7105
C61 C -0.5877(6) 0.2931(2) 0.6038(6)
H44 H -0.5342 0.2917 0.5508
C62 C -0.6912(6) 0.3236(2) 0.5857(5)
H45 H -0.7088 0.3423 0.5199
C63 C -0.7684(6) 0.3260(2) 0.6665(5)
C64 C -0.8820(6) 0.3580(2) 0.6529(5)
O11 O -0.9598(4) 0.35918(16) 0.7140(4)
O12 O -0.8879(4) 0.38683(14) 0.5651(3)
C65 C -0.9962(6) 0.4189(2) 0.5473(6)
H46 H -0.9808 0.4332 0.6260
H47 H -1.0923 0.4068 0.5192
C66 C -0.9836(7) 0.4482(3) 0.4523(8)
H48 H -1.0549 0.4696 0.4393
H49 H -0.9993 0.4339 0.3747
H50 H -0.8886 0.4603 0.4812
loop_
_geom_bond_atom_site_label_1
_geom_bond_atom_site_label_2
_geom_bond_site_symmetry_1
_geom_bond_site_symmetry_2
N1 C3 1_555 1_555
N2 H1 1_555 1_555
N3 C13 1_555 1_555
N4 H2 1_555 1_555
C1 N4 1_555 1_555
C2 C1 1_555 1_555
C3 C2 1_555 1_555
C4 C3 1_555 1_555
H3 C4 1_555 1_555
C5 C4 1_555 1_555
H4 C5 1_555 1_555
C6 N1 1_555 1_555
C7 C6 1_555 1_555
C8 N2 1_555 1_555
C9 C8 1_555 1_555
H5 C9 1_555 1_555
C10 C9 1_555 1_555
H6 C10 1_555 1_555
C11 N2 1_555 1_555
C12 C11 1_555 1_555
C13 C12 1_555 1_555
C14 C13 1_555 1_555
H7 C14 1_555 1_555
C15 C14 1_555 1_555
H8 C15 1_555 1_555
C16 N3 1_555 1_555
C17 C16 1_555 1_555
C18 N4 1_555 1_555
C19 C18 1_555 1_555
H9 C19 1_555 1_555
C20 C1 1_555 1_555
H10 C20 1_555 1_555
C21 H11 1_555 1_555
C22 C2 1_555 1_555
C23 C21 1_555 1_555
H12 C23 1_555 1_555
C24 C23 1_555 1_555
C25 C24 1_555 1_555
H13 C25 1_555 1_555
C26 C22 1_555 1_555
H14 C26 1_555 1_555
C27 C24 1_555 1_555
O1 C27 1_555 1_555
O2 C27 1_555 1_555
H15 O2 1_555 1_555
C28 C7 1_555 1_555
C29 C28 1_555 1_555
H16 C29 1_555 1_555
C30 C29 1_555 1_555
H17 C30 1_555 1_555
C31 C30 1_555 1_555
C32 C31 1_555 1_555
H18 C32 1_555 1_555
C33 C28 1_555 1_555
H19 C33 1_555 1_555
C34 C31 1_555 1_555
O3 C34 1_555 1_555
O4 C34 1_555 1_555
H20 O4 1_555 1_555
C35 C12 1_555 1_555
C36 C35 1_555 1_555
H21 C36 1_555 1_555
C37 C36 1_555 1_555
H22 C37 1_555 1_555
C38 C37 1_555 1_555
C39 C38 1_555 1_555
H23 C39 1_555 1_555
C40 C35 1_555 1_555
H24 C40 1_555 1_555
C41 C38 1_555 1_555
O5 C41 1_555 1_555
O6 C41 1_555 1_555
H25 O6 1_555 1_555
C42 C17 1_555 1_555
C43 C42 1_555 1_555
H26 C43 1_555 1_555
C44 C43 1_555 1_555
H27 C44 1_555 1_555
C45 C44 1_555 1_555
C46 C45 1_555 1_555
H28 C46 1_555 1_555
C47 C42 1_555 1_555
H29 C47 1_555 1_555
C48 C45 1_555 1_555
O7 C48 1_555 1_555
O8 C48 1_555 1_555
H30 O8 1_555 1_555
Na1 O1 1_555 1_555
C49 H31 1_555 1_555
C50 C49 1_555 1_555
H32 C50 1_555 1_555
C51 C50 1_555 1_555
H33 C51 1_555 1_555
C52 C51 1_555 1_555
H34 C52 1_555 1_555
C53 C52 1_555 1_555
H35 C53 1_555 1_555
C54 C49 1_555 1_555
C55 C54 1_555 1_555
O9 C55 1_555 1_555
O10 C55 1_555 1_555
C56 O10 1_555 1_555
H36 C56 1_555 1_555
H37 C56 1_555 1_555
C57 C56 1_555 1_555
H38 C57 1_555 1_555
H39 C57 1_555 1_555
H40 C57 1_555 1_555
C58 H41 1_555 1_555
C59 C58 1_555 1_555
H42 C59 1_555 1_555
C60 C59 1_555 1_555
H43 C60 1_555 1_555
C61 C60 1_555 1_555
H44 C61 1_555 1_555
C62 C61 1_555 1_555
H45 C62 1_555 1_555
C63 C58 1_555 1_555
C64 C63 1_555 1_555
O11 C64 1_555 1_555
O12 C64 1_555 1_555
C65 O12 1_555 1_555
H46 C65 1_555 1_555
H47 C65 1_555 1_555
C66 C65 1_555 1_555
H48 C66 1_555 1_555
H49 C66 1_555 1_555
H50 C66 1_555 1_555
C67 H51 1_555 1_555
C68 C67 1_555 1_555
H52 C68 1_555 1_555
C69 C68 1_555 1_555
H53 C69 1_555 1_555
C70 C69 1_555 1_555
H54 C70 1_555 1_555
C71 C70 1_555 1_555
H55 C71 1_555 1_555
C72 C67 1_555 1_555
C73 C72 1_555 1_555
O13 Na1 1_555 1_555
O14 C73 1_555 1_555
C74 O14 1_555 1_555
H56 C74 1_555 1_555
H57 C74 1_555 1_555
C75 C74 1_555 1_555
H58 C75 1_555 1_555
H59 C75 1_555 1_555
H60 C75 1_555 1_555
C76 H61 1_555 1_555
C77 C76 1_555 1_555
H62 C77 1_555 1_555
C78 C77 1_555 1_555
H63 C78 1_555 1_555
C79 C78 1_555 1_555
H64 C79 1_555 1_555
C80 C79 1_555 1_555
H65 C80 1_555 1_555
C81 C76 1_555 1_555
C82 C81 1_555 1_555
O15 C82 1_555 1_555
O16 Na1 1_555 1_555
Na1_2 O3 1_555 1_555
Na1A O5 1_555 1_555
Na1A_2 O7 1_555 1_555
O3_2 Na1 1_555 1_555
O5A Na1 1_555 1_555
O7A Na1 1_555 1_555
C5 C6 1_555 1_555
C7 C8 1_555 1_555
C10 C11 1_555 1_555
C15 C16 1_555 1_555
C17 C18 1_555 1_555
C19 C20 1_555 1_555
C21 C22 1_555 1_555
C25 C26 1_555 1_555
C32 C33 1_555 1_555
C39 C40 1_555 1_555
C46 C47 1_555 1_555
C53 C54 1_555 1_555
C62 C63 1_555 1_555
C71 C72 1_555 1_555
C73 O13 1_555 1_555
C80 C81 1_555 1_555
C82 O16 1_555 1_555

#END
