
#######################################################################
#
#                 Cambridge Crystallographic Data Centre
#                                CCDC 
#
#######################################################################
#
# If this CIF has been generated from an entry in the Cambridge 
# Structural Database, then it will include bibliographic, chemical, 
# crystal, experimental, refinement or atomic coordinate data resulting 
# from the CCDC's data processing and validation procedures.
#
#######################################################################

data_WAWGIL
_symmetry_cell_setting           monoclinic
_symmetry_space_group_name_H-M   'P 21/n'
_symmetry_Int_Tables_number      14
_space_group_name_Hall           '-P 2yn'
loop_
_symmetry_equiv_pos_site_id
_symmetry_equiv_pos_as_xyz
1 x,y,z
2 1/2-x,1/2+y,1/2-z
3 -x,-y,-z
4 1/2+x,1/2-y,1/2+z
_cell_length_a                   10.3222(9)
_cell_length_b                   11.5993(10)
_cell_length_c                   16.0222(14)
_cell_angle_alpha                90
_cell_angle_beta                 101.197(2)
_cell_angle_gamma                90
_cell_volume                     1881.83
loop_
_atom_site_label
_atom_site_type_symbol
_atom_site_fract_x
_atom_site_fract_y
_atom_site_fract_z
Cu1 Cu 0.90250(4) 0.88478(4) 0.08551(3)
O1 O 0.7992(2) 0.9026(2) 0.17569(16)
O2 O 0.7631(3) 0.7143(2) 0.18098(18)
O3 O 0.6426(3) 1.0720(2) 0.42589(17)
H1 H 0.6764 1.1186 0.3981
O4 O 0.5331(3) 0.5673(2) 0.40923(17)
O5 O 0.4911(3) 0.6934(2) 0.50539(16)
N1 N 1.0558(3) 0.8425(3) 0.1798(2)
N2 N 0.7363(3) 0.9075(3) -0.0030(2)
N3 N 0.5948(5) 1.0976(5) -0.1753(4)
H2 H 0.5209 1.1098 -0.2096
H3 H 0.6614 1.1416 -0.1767
N4 N 1.2195(5) 0.9641(4) 0.3810(3)
H4 H 1.2811 0.9475 0.4237
H5 H 1.1814 1.0303 0.3783
C1 C 0.7601(4) 0.8133(3) 0.2094(2)
C2 C 0.7030(4) 0.8329(3) 0.2877(2)
C3 C 0.6497(3) 0.7420(3) 0.3265(2)
H6 H 0.6507 0.6676 0.3049
C4 C 0.5946(3) 0.7631(3) 0.3981(2)
C5 C 0.5929(4) 0.8734(3) 0.4300(2)
H7 H 0.5556 0.8872 0.4775
C6 C 0.6467(4) 0.9640(3) 0.3913(2)
C7 C 0.7015(4) 0.9432(3) 0.3201(2)
H8 H 0.7372 1.0039 0.2940
C8 C 0.5354(4) 0.6649(3) 0.4397(2)
C9 C 1.1141(4) 0.7392(4) 0.1826(3)
H9 H 1.0912 0.6892 0.1367
C10 C 1.2060(5) 0.7055(5) 0.2512(3)
H10 H 1.2455 0.6334 0.2516
C11 C 1.2408(5) 0.7788(5) 0.3203(3)
H11 H 1.3029 0.7559 0.3675
C12 C 1.1824(5) 0.8861(4) 0.3185(3)
C13 C 1.0895(4) 0.9130(4) 0.2457(3)
H12 H 1.0487 0.9847 0.2431
C14 C 0.6302(4) 0.8386(5) -0.0024(3)
H13 H 0.6381 0.7799 0.0378
C15 C 0.5128(5) 0.8509(5) -0.0576(3)
H14 H 0.4429 0.8011 -0.0556
C16 C 0.5000(5) 0.9380(5) -0.1158(3)
H15 H 0.4202 0.9495 -0.1533
C17 C 0.6061(5) 1.0088(5) -0.1187(3)
C18 C 0.7235(4) 0.9902(4) -0.0613(3)
H16 H 0.7957 1.0372 -0.0638
Cu1A Cu 0.59750(4) 0.38478(4) 0.41449(3)
Cu1C Cu 0.40250(4) 0.61522(4) 0.58551(3)
O4A O 0.9669(3) 1.0673(2) 0.09077(17)
O5C O 0.9911(3) 0.8066(2) 0.00539(16)
O6 O 1.0218(6) 1.1469(7) 0.3830(4)
H17 H 0.943(2) 1.166(6) 0.3571(18)
H18 H 1.023(5) 1.154(5) 0.4363(8)
O7? O 1.001(3) 1.054(2) 0.4668(17)
H19? H 1.01(3) 0.981(3) 0.468(13)
H20? H 1.01(3) 1.079(17) 0.517(6)
loop_
_geom_bond_atom_site_label_1
_geom_bond_atom_site_label_2
_geom_bond_site_symmetry_1
_geom_bond_site_symmetry_2
Cu1 O1 1_555 1_555
O1 C1 1_555 1_555
O2 C1 1_555 1_555
O3 H1 1_555 1_555
O4 C8 1_555 1_555
O5 C8 1_555 1_555
N1 Cu1 1_555 1_555
N2 Cu1 1_555 1_555
N3 H2 1_555 1_555
H3 N3 1_555 1_555
N4 H4 1_555 1_555
H5 N4 1_555 1_555
C1 C2 1_555 1_555
C2 C3 1_555 1_555
C3 H6 1_555 1_555
C4 C3 1_555 1_555
C5 C4 1_555 1_555
H7 C5 1_555 1_555
C6 O3 1_555 1_555
C7 C2 1_555 1_555
H8 C7 1_555 1_555
C8 C4 1_555 1_555
C9 N1 1_555 1_555
H9 C9 1_555 1_555
C10 C9 1_555 1_555
H10 C10 1_555 1_555
C11 C10 1_555 1_555
H11 C11 1_555 1_555
C12 N4 1_555 1_555
C13 N1 1_555 1_555
H12 C13 1_555 1_555
C14 N2 1_555 1_555
H13 C14 1_555 1_555
C15 C14 1_555 1_555
H14 C15 1_555 1_555
C16 C15 1_555 1_555
H15 C16 1_555 1_555
C17 N3 1_555 1_555
C18 N2 1_555 1_555
H16 C18 1_555 1_555
O6 H17 1_555 1_555
H18 O6 1_555 1_555
Cu1A O4 1_555 1_555
Cu1C O5 1_555 1_555
O4A Cu1 1_555 1_555
O5C Cu1 1_555 1_555
C5 C6 1_555 1_555
C6 C7 1_555 1_555
C11 C12 1_555 1_555
C12 C13 1_555 1_555
C16 C17 1_555 1_555
C17 C18 1_555 1_555

#END
