
#######################################################################
#
#                 Cambridge Crystallographic Data Centre
#                                CCDC 
#
#######################################################################
#
# If this CIF has been generated from an entry in the Cambridge 
# Structural Database, then it will include bibliographic, chemical, 
# crystal, experimental, refinement or atomic coordinate data resulting 
# from the CCDC's data processing and validation procedures.
#
#######################################################################

data_WAWJUB
_symmetry_cell_setting           tetragonal
_symmetry_space_group_name_H-M   'I 4/m'
_symmetry_Int_Tables_number      87
_space_group_name_Hall           '-I 4'
loop_
_symmetry_equiv_pos_site_id
_symmetry_equiv_pos_as_xyz
1 x,y,z
2 -y,x,z
3 -x,-y,z
4 y,-x,z
5 1/2+x,1/2+y,1/2+z
6 1/2-y,1/2+x,1/2+z
7 1/2-x,1/2-y,1/2+z
8 1/2+y,1/2-x,1/2+z
9 -x,-y,-z
10 y,-x,-z
11 x,y,-z
12 -y,x,-z
13 1/2-x,1/2-y,1/2-z
14 1/2+y,1/2-x,1/2-z
15 1/2+x,1/2+y,1/2-z
16 1/2-y,1/2+x,1/2-z
_cell_length_a                   25.8121(18)
_cell_length_b                   25.8121(18)
_cell_length_c                   43.522(3)
_cell_angle_alpha                90
_cell_angle_beta                 90
_cell_angle_gamma                90
_cell_volume                     28997.2
loop_
_atom_site_label
_atom_site_type_symbol
_atom_site_fract_x
_atom_site_fract_y
_atom_site_fract_z
Co1 Co 0.19872(12) 0.24233(12) 0.0000
Co2 Co 0.24765(9) 0.16638(9) 0.05275(5)
Co3 Co -0.09223(13) 0.29542(13) 0.0000
Co4 Co 0.07338(10) 0.04970(10) 0.17706(5)
Cl1 Cl 0.2059(2) 0.1411(2) 0.0000
Cl2 Cl 0.0000 0.0000 0.14742(15)
S1 S 0.2346(2) 0.3358(3) 0.0000
S2 S 0.31367(18) 0.20777(18) -0.08904(10)
S3 S 0.3919(2) 0.0802(2) 0.0000
S4 S 0.1257(2) 0.0828(2) 0.22284(11)
O1 O 0.2509(4) 0.2397(4) -0.0338(2)
O2 O 0.3140(4) 0.1440(4) -0.0336(3)
O3 O 0.0149(5) 0.0766(5) 0.2028(3)
O4 O 0.1439(4) 0.2386(4) 0.0350(3)
O5 O 0.1786(4) 0.1862(4) 0.0697(2)
O6 O 0.0676(5) 0.1112(4) 0.1486(3)
O7 O -0.0181(4) 0.1288(4) 0.1475(2)
O8 O -0.0924(4) 0.2370(4) 0.0699(2)
O9 O -0.0415(4) 0.2718(4) 0.0330(3)
C1 C 0.2800(4) 0.2753(4) -0.0454(3)
C2 C 0.2765(4) 0.3240(5) -0.0320(2)
C3 C 0.3059(5) 0.3648(3) -0.0434(3)
H1 H 0.3035 0.3981 -0.0343
C4 C 0.3389(4) 0.3569(4) -0.0682(3)
C5 C 0.3424(4) 0.3081(5) -0.0816(2)
H2 H 0.3649 0.3027 -0.0986
C6 C 0.3130(5) 0.2673(3) -0.0702(3)
C7 C 0.3604(3) 0.1488(4) -0.0449(2)
C8 C 0.3681(4) 0.1779(4) -0.0714(3)
C9 C 0.4169(5) 0.1801(4) -0.0848(2)
H3 H 0.4222 0.2000 -0.1029
C10 C 0.4580(3) 0.1531(5) -0.0717(3)
C11 C 0.4503(4) 0.1240(4) -0.0453(3)
H4 H 0.4784 0.1056 -0.0363
C12 C 0.4015(5) 0.1219(4) -0.0318(2)
C13 C 0.3757(10) 0.4015(10) -0.0781(6)
C14 C 0.4094(9) 0.3862(9) -0.1055(5)
H5 H 0.4319 0.4153 -0.1111
H6 H 0.3872 0.3773 -0.1230
H7 H 0.4308 0.3562 -0.1000
C15 C 0.3405(11) 0.4510(11) -0.0866(6)
H8 H 0.3628 0.4796 -0.0933
H9 H 0.3207 0.4618 -0.0685
H10 H 0.3165 0.4419 -0.1032
C16 C 0.4110(10) 0.4208(11) -0.0546(6)
H11 H 0.4323 0.4486 -0.0632
H12 H 0.4334 0.3925 -0.0476
H13 H 0.3910 0.4341 -0.0372
C17 C 0.5141(11) 0.1568(7) -0.0869(5)
C18 C 0.5089(12) 0.1966(10) -0.1132(5)
H14 H 0.4831 0.1843 -0.1281
H15 H 0.5425 0.2006 -0.1235
H16 H 0.4979 0.2300 -0.1048
C19 C 0.5530(8) 0.1758(10) -0.0625(6)
H17 H 0.5552 0.1502 -0.0459
H18 H 0.5412 0.2090 -0.0541
H19 H 0.5871 0.1801 -0.0720
C20 C 0.5265(10) 0.1019(9) -0.0983(6)
H20 H 0.5265 0.0779 -0.0809
H21 H 0.5606 0.1017 -0.1082
H22 H 0.5001 0.0910 -0.1132
C21 C 0.0212(5) 0.1050(4) 0.2275(2)
C22 C 0.0705(4) 0.1120(5) 0.2398(3)
C23 C 0.0772(4) 0.1429(5) 0.2656(3)
H23 H 0.1108 0.1476 0.2740
C24 C 0.0347(6) 0.1669(5) 0.2792(2)
C25 C -0.0145(5) 0.1599(5) 0.2669(3)
H24 H -0.0435 0.1763 0.2761
C26 C 0.1290(4) 0.0212(5) 0.2410(3)
C27 C 0.0370(12) 0.2026(12) 0.3114(7)
C28 C 0.0064(12) 0.1782(12) 0.3354(7)
H25 H -0.0302 0.1784 0.3295
H26 H 0.0108 0.1973 0.3546
H27 H 0.0180 0.1423 0.3382
C29 C 0.0962(11) 0.2005(12) 0.3205(7)
H28 H 0.1168 0.2177 0.3046
H29 H 0.1072 0.1643 0.3224
H30 H 0.1013 0.2182 0.3402
C30 C 0.0177(13) 0.2592(13) 0.3024(8)
H31 H 0.0406 0.2736 0.2866
H32 H 0.0185 0.2815 0.3207
H33 H -0.0178 0.2573 0.2945
C31 C 0.1386(6) 0.2092(6) 0.0577(4)
C32 C 0.0239(7) 0.1358(6) 0.1390(3)
C33 C -0.0488(6) 0.2471(6) 0.0566(4)
C34 C 0.0884(3) 0.2079(4) 0.0731(2)
C35 C 0.0824(3) 0.1757(4) 0.0985(2)
H34 H 0.1118 0.1594 0.1073
C36 C 0.0335(4) 0.1674(4) 0.11082(18)
C37 C -0.0095(3) 0.1913(4) 0.0978(2)
H35 H -0.0430 0.1856 0.1063
C38 C -0.0036(3) 0.2235(4) 0.0725(2)
C39 C 0.0454(4) 0.2318(3) 0.06011(18)
H36 H 0.0494 0.2538 0.0428
Co1A Co -0.24233(12) 0.19872(12) 0.0000
Co1C Co 0.24233(12) -0.19872(12) 0.0000
Co2J Co 0.24765(9) 0.16638(9) -0.05275(5)
Co2A Co -0.16638(9) 0.24765(9) 0.05275(5)
Co2K Co -0.16638(9) 0.24765(9) -0.05275(5)
Co2C Co 0.16638(9) -0.24765(9) 0.05275(5)
Co2I Co 0.16638(9) -0.24765(9) -0.05275(5)
Co3C Co 0.29542(13) 0.09223(13) 0.0000
Co4J Co 0.07338(10) 0.04970(10) -0.17706(5)
Co4A Co -0.04970(10) 0.07338(10) 0.17706(5)
Co4K Co -0.04970(10) 0.07338(10) -0.17706(5)
Co4B Co -0.07338(10) -0.04970(10) 0.17706(5)
Co4C Co 0.04970(10) -0.07338(10) 0.17706(5)
Co4I Co 0.04970(10) -0.07338(10) -0.17706(5)
Cl1A Cl -0.1411(2) 0.2059(2) 0.0000
Cl2H Cl 0.0000 0.0000 -0.14742(15)
S1A S -0.3358(3) 0.2346(2) 0.0000
S2J S 0.31367(18) 0.20777(18) 0.08904(10)
S2A S -0.20777(18) 0.31367(18) -0.08904(10)
S2K S -0.20777(18) 0.31367(18) 0.08904(10)
S3A S -0.0802(2) 0.3919(2) 0.0000
S4A S -0.0828(2) 0.1257(2) 0.22284(11)
S4B S -0.1257(2) -0.0828(2) 0.22284(11)
S4C S 0.0828(2) -0.1257(2) 0.22284(11)
S4J S 0.1257(2) 0.0828(2) -0.22284(11)
S4K S -0.0828(2) 0.1257(2) -0.22284(11)
O1J O 0.2509(4) 0.2397(4) 0.0338(2)
O1A O -0.2397(4) 0.2509(4) -0.0338(2)
O1K O -0.2397(4) 0.2509(4) 0.0338(2)
O2J O 0.3140(4) 0.1440(4) 0.0336(3)
O2A O -0.1440(4) 0.3140(4) -0.0336(3)
O2K O -0.1440(4) 0.3140(4) 0.0336(3)
O3A O -0.0766(5) 0.0149(5) 0.2028(3)
O3B O -0.0149(5) -0.0766(5) 0.2028(3)
O3C O 0.0766(5) -0.0149(5) 0.2028(3)
O3J O 0.0149(5) 0.0766(5) -0.2028(3)
O3I O 0.0766(5) -0.0149(5) -0.2028(3)
O3K O -0.0766(5) 0.0149(5) -0.2028(3)
O4J O 0.1439(4) 0.2386(4) -0.0350(3)
O4C O 0.2386(4) -0.1439(4) 0.0350(3)
O4I O 0.2386(4) -0.1439(4) -0.0350(3)
O4A O -0.2386(4) 0.1439(4) 0.0350(3)
O4K O -0.2386(4) 0.1439(4) -0.0350(3)
O5J O 0.1786(4) 0.1862(4) -0.0697(2)
O5C O 0.1862(4) -0.1786(4) 0.0697(2)
O5I O 0.1862(4) -0.1786(4) -0.0697(2)
O5A O -0.1862(4) 0.1786(4) 0.0697(2)
O5K O -0.1862(4) 0.1786(4) -0.0697(2)
O6J O 0.0676(5) 0.1112(4) -0.1486(3)
O6C O 0.1112(4) -0.0676(5) 0.1486(3)
O6I O 0.1112(4) -0.0676(5) -0.1486(3)
O6A O -0.1112(4) 0.0676(5) 0.1486(3)
O6K O -0.1112(4) 0.0676(5) -0.1486(3)
O7J O -0.0181(4) 0.1288(4) -0.1475(2)
O7C O 0.1288(4) 0.0181(4) 0.1475(2)
O7I O 0.1288(4) 0.0181(4) -0.1475(2)
O8J O -0.0924(4) 0.2370(4) -0.0699(2)
O8C O 0.2370(4) 0.0924(4) 0.0699(2)
O8I O 0.2370(4) 0.0924(4) -0.0699(2)
O9J O -0.0415(4) 0.2718(4) -0.0330(3)
O9C O 0.2718(4) 0.0415(4) 0.0330(3)
O9I O 0.2718(4) 0.0415(4) -0.0330(3)
C1J C 0.2800(4) 0.2753(4) 0.0454(3)
C1A C -0.2753(4) 0.2800(4) -0.0454(3)
C1K C -0.2753(4) 0.2800(4) 0.0454(3)
C2J C 0.2765(4) 0.3240(5) 0.0320(2)
C2A C -0.3240(5) 0.2765(4) -0.0320(2)
C2K C -0.3240(5) 0.2765(4) 0.0320(2)
C3J C 0.3059(5) 0.3648(3) 0.0434(3)
C3A C -0.3648(3) 0.3059(5) -0.0434(3)
C3K C -0.3648(3) 0.3059(5) 0.0434(3)
H1J H 0.3035 0.3981 0.0343
H1A H -0.3981 0.3035 -0.0343
H1K H -0.3981 0.3035 0.0343
C4J C 0.3389(4) 0.3569(4) 0.0682(3)
C4A C -0.3569(4) 0.3389(4) -0.0682(3)
C4K C -0.3569(4) 0.3389(4) 0.0682(3)
C5J C 0.3424(4) 0.3081(5) 0.0816(2)
C5A C -0.3081(5) 0.3424(4) -0.0816(2)
C5K C -0.3081(5) 0.3424(4) 0.0816(2)
H2J H 0.3649 0.3027 0.0986
H2A H -0.3027 0.3649 -0.0986
H2K H -0.3027 0.3649 0.0986
C6J C 0.3130(5) 0.2673(3) 0.0702(3)
C6A C -0.2673(3) 0.3130(5) -0.0702(3)
C6K C -0.2673(3) 0.3130(5) 0.0702(3)
C7J C 0.3604(3) 0.1488(4) 0.0449(2)
C7A C -0.1488(4) 0.3604(3) -0.0449(2)
C7K C -0.1488(4) 0.3604(3) 0.0449(2)
C8J C 0.3681(4) 0.1779(4) 0.0714(3)
C8A C -0.1779(4) 0.3681(4) -0.0714(3)
C8K C -0.1779(4) 0.3681(4) 0.0714(3)
C9J C 0.4169(5) 0.1801(4) 0.0848(2)
C9A C -0.1801(4) 0.4169(5) -0.0848(2)
C9K C -0.1801(4) 0.4169(5) 0.0848(2)
H3J H 0.4222 0.2000 0.1029
H3A H -0.2000 0.4222 -0.1029
H3K H -0.2000 0.4222 0.1029
C10J C 0.4580(3) 0.1531(5) 0.0717(3)
C10A C -0.1531(5) 0.4580(3) -0.0717(3)
C10K C -0.1531(5) 0.4580(3) 0.0717(3)
C11J C 0.4503(4) 0.1240(4) 0.0453(3)
C11A C -0.1240(4) 0.4503(4) -0.0453(3)
C11K C -0.1240(4) 0.4503(4) 0.0453(3)
H4J H 0.4784 0.1056 0.0363
H4A H -0.1056 0.4784 -0.0363
H4K H -0.1056 0.4784 0.0363
C12J C 0.4015(5) 0.1219(4) 0.0318(2)
C12A C -0.1219(4) 0.4015(5) -0.0318(2)
C12K C -0.1219(4) 0.4015(5) 0.0318(2)
C13J C 0.3757(10) 0.4015(10) 0.0781(6)
C13A C -0.4015(10) 0.3757(10) -0.0781(6)
C13K C -0.4015(10) 0.3757(10) 0.0781(6)
C14J C 0.4094(9) 0.3862(9) 0.1055(5)
C14A C -0.3862(9) 0.4094(9) -0.1055(5)
C14K C -0.3862(9) 0.4094(9) 0.1055(5)
H5J H 0.4319 0.4153 0.1111
H5A H -0.4153 0.4319 -0.1111
H5K H -0.4153 0.4319 0.1111
H6J H 0.3872 0.3773 0.1230
H6A H -0.3773 0.3872 -0.1230
H6K H -0.3773 0.3872 0.1230
H7J H 0.4308 0.3562 0.1000
H7A H -0.3562 0.4308 -0.1000
H7K H -0.3562 0.4308 0.1000
C15J C 0.3405(11) 0.4510(11) 0.0866(6)
C15A C -0.4510(11) 0.3405(11) -0.0866(6)
C15K C -0.4510(11) 0.3405(11) 0.0866(6)
H8J H 0.3628 0.4796 0.0933
H8A H -0.4796 0.3628 -0.0933
H8K H -0.4796 0.3628 0.0933
H9J H 0.3207 0.4618 0.0685
H9A H -0.4618 0.3207 -0.0685
H9K H -0.4618 0.3207 0.0685
H10J H 0.3165 0.4419 0.1032
H10A H -0.4419 0.3165 -0.1032
H10K H -0.4419 0.3165 0.1032
C16J C 0.4110(10) 0.4208(11) 0.0546(6)
C16A C -0.4208(11) 0.4110(10) -0.0546(6)
C16K C -0.4208(11) 0.4110(10) 0.0546(6)
H11J H 0.4323 0.4486 0.0632
H11A H -0.4486 0.4323 -0.0632
H11K H -0.4486 0.4323 0.0632
H12J H 0.4334 0.3925 0.0476
H12A H -0.3925 0.4334 -0.0476
H12K H -0.3925 0.4334 0.0476
H13J H 0.3910 0.4341 0.0372
H13A H -0.4341 0.3910 -0.0372
H13K H -0.4341 0.3910 0.0372
C17J C 0.5141(11) 0.1568(7) 0.0869(5)
C17A C -0.1568(7) 0.5141(11) -0.0869(5)
C17K C -0.1568(7) 0.5141(11) 0.0869(5)
C18J C 0.5089(12) 0.1966(10) 0.1132(5)
C18A C -0.1966(10) 0.5089(12) -0.1132(5)
C18K C -0.1966(10) 0.5089(12) 0.1132(5)
H14J H 0.4831 0.1843 0.1281
H14A H -0.1843 0.4831 -0.1281
H14K H -0.1843 0.4831 0.1281
H15J H 0.5425 0.2006 0.1235
H15A H -0.2006 0.5425 -0.1235
H15K H -0.2006 0.5425 0.1235
H16J H 0.4979 0.2300 0.1048
H16A H -0.2300 0.4979 -0.1048
H16K H -0.2300 0.4979 0.1048
C19J C 0.5530(8) 0.1758(10) 0.0625(6)
C19A C -0.1758(10) 0.5530(8) -0.0625(6)
C19K C -0.1758(10) 0.5530(8) 0.0625(6)
H17J H 0.5552 0.1502 0.0459
H17A H -0.1502 0.5552 -0.0459
H17K H -0.1502 0.5552 0.0459
H18J H 0.5412 0.2090 0.0541
H18A H -0.2090 0.5412 -0.0541
H18K H -0.2090 0.5412 0.0541
H19J H 0.5871 0.1801 0.0720
H19A H -0.1801 0.5871 -0.0720
H19K H -0.1801 0.5871 0.0720
C20J C 0.5265(10) 0.1019(9) 0.0983(6)
C20A C -0.1019(9) 0.5265(10) -0.0983(6)
C20K C -0.1019(9) 0.5265(10) 0.0983(6)
H20J H 0.5265 0.0779 0.0809
H20A H -0.0779 0.5265 -0.0809
H20K H -0.0779 0.5265 0.0809
H21J H 0.5606 0.1017 0.1082
H21A H -0.1017 0.5606 -0.1082
H21K H -0.1017 0.5606 0.1082
H22J H 0.5001 0.0910 0.1132
H22A H -0.0910 0.5001 -0.1132
H22K H -0.0910 0.5001 0.1132
C21A C -0.1050(4) 0.0212(5) 0.2275(2)
C21B C -0.0212(5) -0.1050(4) 0.2275(2)
C21C C 0.1050(4) -0.0212(5) 0.2275(2)
C22A C -0.1120(5) 0.0705(4) 0.2398(3)
C22B C -0.0705(4) -0.1120(5) 0.2398(3)
C22C C 0.1120(5) -0.0705(4) 0.2398(3)
C23C C 0.1429(5) -0.0772(4) 0.2656(3)
C23B C -0.0772(4) -0.1429(5) 0.2656(3)
C23A C -0.1429(5) 0.0772(4) 0.2656(3)
H23C H 0.1476 -0.1108 0.2740
H23B H -0.1108 -0.1476 0.2740
H23A H -0.1476 0.1108 0.2740
C24C C 0.1669(5) -0.0347(6) 0.2792(2)
C24B C -0.0347(6) -0.1669(5) 0.2792(2)
C24A C -0.1669(5) 0.0347(6) 0.2792(2)
C25C C 0.1599(5) 0.0145(5) 0.2669(3)
C25B C 0.0145(5) -0.1599(5) 0.2669(3)
C25A C -0.1599(5) -0.0145(5) 0.2669(3)
H24C H 0.1763 0.0435 0.2761
H24B H 0.0435 -0.1763 0.2761
H24A H -0.1763 -0.0435 0.2761
C26A C -0.0212(5) 0.1290(4) 0.2410(3)
C26B C -0.1290(4) -0.0212(5) 0.2410(3)
C26C C 0.0212(5) -0.1290(4) 0.2410(3)
C27C C 0.2026(12) -0.0370(12) 0.3114(7)
C27B C -0.0370(12) -0.2026(12) 0.3114(7)
C27A C -0.2026(12) 0.0370(12) 0.3114(7)
C28C C 0.1782(12) -0.0064(12) 0.3354(7)
C28B C -0.0064(12) -0.1782(12) 0.3354(7)
C28A C -0.1782(12) 0.0064(12) 0.3354(7)
H25C H 0.1784 0.0302 0.3295
H25B H 0.0302 -0.1784 0.3295
H25A H -0.1784 -0.0302 0.3295
H26C H 0.1973 -0.0108 0.3546
H26B H -0.0108 -0.1973 0.3546
H26A H -0.1973 0.0108 0.3546
H27C H 0.1423 -0.0180 0.3382
H27B H -0.0180 -0.1423 0.3382
H27A H -0.1423 0.0180 0.3382
C29C C 0.2005(12) -0.0962(11) 0.3205(7)
C29B C -0.0962(11) -0.2005(12) 0.3205(7)
C29A C -0.2005(12) 0.0962(11) 0.3205(7)
H28C H 0.2177 -0.1168 0.3046
H28B H -0.1168 -0.2177 0.3046
H28A H -0.2177 0.1168 0.3046
H29C H 0.1643 -0.1072 0.3224
H29B H -0.1072 -0.1643 0.3224
H29A H -0.1643 0.1072 0.3224
H30C H 0.2182 -0.1013 0.3402
H30B H -0.1013 -0.2182 0.3402
H30A H -0.2182 0.1013 0.3402
C30C C 0.2592(13) -0.0177(13) 0.3024(8)
C30B C -0.0177(13) -0.2592(13) 0.3024(8)
C30A C -0.2592(13) 0.0177(13) 0.3024(8)
H31C H 0.2736 -0.0406 0.2866
H31B H -0.0406 -0.2736 0.2866
H31A H -0.2736 0.0406 0.2866
H32C H 0.2815 -0.0185 0.3207
H32B H -0.0185 -0.2815 0.3207
H32A H -0.2815 0.0185 0.3207
H33C H 0.2573 0.0178 0.2945
H33B H 0.0178 -0.2573 0.2945
H33A H -0.2573 -0.0178 0.2945
C31J C 0.1386(6) 0.2092(6) -0.0577(4)
C31C C 0.2092(6) -0.1386(6) 0.0577(4)
C31I C 0.2092(6) -0.1386(6) -0.0577(4)
C32J C 0.0239(7) 0.1358(6) -0.1390(3)
C32C C 0.1358(6) -0.0239(7) 0.1390(3)
C32I C 0.1358(6) -0.0239(7) -0.1390(3)
C33J C -0.0488(6) 0.2471(6) -0.0566(4)
C33C C 0.2471(6) 0.0488(6) 0.0566(4)
C33I C 0.2471(6) 0.0488(6) -0.0566(4)
C34J C 0.0884(3) 0.2079(4) -0.0731(2)
C34C C 0.2079(4) -0.0884(3) 0.0731(2)
C34I C 0.2079(4) -0.0884(3) -0.0731(2)
C35J C 0.0824(3) 0.1757(4) -0.0985(2)
C35C C 0.1757(4) -0.0824(3) 0.0985(2)
C35I C 0.1757(4) -0.0824(3) -0.0985(2)
H34J H 0.1118 0.1594 -0.1073
H34C H 0.1594 -0.1118 0.1073
H34I H 0.1594 -0.1118 -0.1073
C36J C 0.0335(4) 0.1674(4) -0.11082(18)
C36C C 0.1674(4) -0.0335(4) 0.11082(18)
C36I C 0.1674(4) -0.0335(4) -0.11082(18)
C37J C -0.0095(3) 0.1913(4) -0.0978(2)
C37C C 0.1913(4) 0.0095(3) 0.0978(2)
C37I C 0.1913(4) 0.0095(3) -0.0978(2)
H35J H -0.0430 0.1856 -0.1063
H35C H 0.1856 0.0430 0.1063
H35I H 0.1856 0.0430 -0.1063
C38J C -0.0036(3) 0.2235(4) -0.0725(2)
C38C C 0.2235(4) 0.0036(3) 0.0725(2)
C38I C 0.2235(4) 0.0036(3) -0.0725(2)
C39J C 0.0454(4) 0.2318(3) -0.06011(18)
C39C C 0.2318(3) -0.0454(4) 0.06011(18)
C39I C 0.2318(3) -0.0454(4) -0.06011(18)
H36J H 0.0494 0.2538 -0.0428
H36C H 0.2538 -0.0494 0.0428
H36I H 0.2538 -0.0494 -0.0428
loop_
_geom_bond_atom_site_label_1
_geom_bond_atom_site_label_2
_geom_bond_site_symmetry_1
_geom_bond_site_symmetry_2
Co1 Cl1 1_555 1_555
Co2 Cl1 1_555 1_555
Co3 O9 1_555 1_555
Co4 Cl2 1_555 1_555
Cl1 Co2J 1_555 1_555
Cl2 Co4A 1_555 1_555
S1 Co1 1_555 1_555
S2 C6 1_555 1_555
S3 C12 1_555 1_555
S4 Co4 1_555 1_555
O1 Co1 1_555 1_555
O2 C7 1_555 1_555
O3 Co4 1_555 1_555
O4 Co1 1_555 1_555
O5 Co2 1_555 1_555
O6 Co4 1_555 1_555
O7 C32 1_555 1_555
O8 C33 1_555 1_555
O9 C33 1_555 1_555
C1 O1 1_555 1_555
C2 S1 1_555 1_555
C3 C2 1_555 1_555
H1 C3 1_555 1_555
C4 C3 1_555 1_555
C5 C4 1_555 1_555
H2 C5 1_555 1_555
C6 C1 1_555 1_555
C7 C8 1_555 1_555
C8 S2 1_555 1_555
C9 C8 1_555 1_555
H3 C9 1_555 1_555
C10 C9 1_555 1_555
C11 C10 1_555 1_555
H4 C11 1_555 1_555
C12 C7 1_555 1_555
C13 C4 1_555 1_555
C14 C13 1_555 1_555
H5 C14 1_555 1_555
H6 C14 1_555 1_555
H7 C14 1_555 1_555
C15 C13 1_555 1_555
H8 C15 1_555 1_555
H9 C15 1_555 1_555
H10 C15 1_555 1_555
C16 C13 1_555 1_555
H11 C16 1_555 1_555
H12 C16 1_555 1_555
H13 C16 1_555 1_555
C17 C10 1_555 1_555
C18 C17 1_555 1_555
H14 C18 1_555 1_555
H15 C18 1_555 1_555
H16 C18 1_555 1_555
C19 C17 1_555 1_555
H17 C19 1_555 1_555
H18 C19 1_555 1_555
H19 C19 1_555 1_555
C20 C17 1_555 1_555
H20 C20 1_555 1_555
H21 C20 1_555 1_555
H22 C20 1_555 1_555
C21 O3 1_555 1_555
C22 S4 1_555 1_555
C23 C22 1_555 1_555
H23 C23 1_555 1_555
C24 C23 1_555 1_555
C25 C24 1_555 1_555
H24 C25 1_555 1_555
C26 S4 1_555 1_555
C27 C24 1_555 1_555
C28 C27 1_555 1_555
H25 C28 1_555 1_555
H26 C28 1_555 1_555
H27 C28 1_555 1_555
C29 C27 1_555 1_555
H28 C29 1_555 1_555
H29 C29 1_555 1_555
H30 C29 1_555 1_555
C30 C27 1_555 1_555
H31 C30 1_555 1_555
H32 C30 1_555 1_555
H33 C30 1_555 1_555
C31 O4 1_555 1_555
C32 O6 1_555 1_555
C33 C38 1_555 1_555
C34 C31 1_555 1_555
C35 C34 1_555 1_555
H34 C35 1_555 1_555
C36 C32 1_555 1_555
C37 C36 1_555 1_555
H35 C37 1_555 1_555
C38 C37 1_555 1_555
C39 C34 1_555 1_555
H36 C39 1_555 1_555
Co1A Cl1A 1_555 1_555
Co1C O4C 1_555 1_555
Co2J S2 1_555 1_555
Co2A O8 1_555 1_555
Co2K Cl1A 1_555 1_555
Co2C O5C 1_555 1_555
Co2I O5I 1_555 1_555
Co3C Cl1 1_555 1_555
Co4J Cl2H 1_555 1_555
Co4A O3 1_555 1_555
Co4K Cl2H 1_555 1_555
Co4B Cl2 1_555 1_555
Co4C Cl2 1_555 1_555
Co4I Cl2H 1_555 1_555
Cl1A Co3 1_555 1_555
S1A Co1A 1_555 1_555
S2J Co2 1_555 1_555
S2A Co2K 1_555 1_555
S2K Co2A 1_555 1_555
S3A Co3 1_555 1_555
S4A Co4A 1_555 1_555
S4B Co4B 1_555 1_555
S4C Co4C 1_555 1_555
S4J Co4J 1_555 1_555
S4K Co4K 1_555 1_555
O1J Co1 1_555 1_555
O1A Co1A 1_555 1_555
O1K Co1A 1_555 1_555
O2J Co2 1_555 1_555
O2A Co3 1_555 1_555
O2K Co3 1_555 1_555
O3A Co4A 1_555 1_555
O3B Co4B 1_555 1_555
O3C Co4 1_555 1_555
O3J Co4J 1_555 1_555
O3I Co4J 1_555 1_555
O3K Co4K 1_555 1_555
O4J Co1 1_555 1_555
O4C C31C 1_555 1_555
O4I Co1C 1_555 1_555
O4A Co1A 1_555 1_555
O4K Co1A 1_555 1_555
O5J Co2J 1_555 1_555
O5C C31C 1_555 1_555
O5I C31I 1_555 1_555
O5A Co2A 1_555 1_555
O5K Co2K 1_555 1_555
O6J Co4J 1_555 1_555
O6C Co4C 1_555 1_555
O6I Co4I 1_555 1_555
O6A Co4A 1_555 1_555
O6K Co4K 1_555 1_555
O7J Co4K 1_555 1_555
O7C Co4 1_555 1_555
O7I Co4J 1_555 1_555
O8J Co2K 1_555 1_555
O8C Co2 1_555 1_555
O8I Co2J 1_555 1_555
O9J Co3 1_555 1_555
O9C Co3C 1_555 1_555
O9I Co3C 1_555 1_555
C1J O1J 1_555 1_555
C1A O1A 1_555 1_555
C1K O1K 1_555 1_555
C2J S1 1_555 1_555
C2A S1A 1_555 1_555
C2K S1A 1_555 1_555
C3J C2J 1_555 1_555
C3A C2A 1_555 1_555
C3K C2K 1_555 1_555
H1J C3J 1_555 1_555
H1A C3A 1_555 1_555
H1K C3K 1_555 1_555
C4J C3J 1_555 1_555
C4A C3A 1_555 1_555
C4K C3K 1_555 1_555
C5J C4J 1_555 1_555
C5A C4A 1_555 1_555
C5K C4K 1_555 1_555
H2J C5J 1_555 1_555
H2A C5A 1_555 1_555
H2K C5K 1_555 1_555
C6J S2J 1_555 1_555
C6A S2A 1_555 1_555
C6K S2K 1_555 1_555
C7J O2J 1_555 1_555
C7A O2A 1_555 1_555
C7K O2K 1_555 1_555
C8J S2J 1_555 1_555
C8A S2A 1_555 1_555
C8K S2K 1_555 1_555
C9J C8J 1_555 1_555
C9A C8A 1_555 1_555
C9K C8K 1_555 1_555
H3J C9J 1_555 1_555
H3A C9A 1_555 1_555
H3K C9K 1_555 1_555
C10J C9J 1_555 1_555
C10A C9A 1_555 1_555
C10K C9K 1_555 1_555
C11J C10J 1_555 1_555
C11A C10A 1_555 1_555
C11K C10K 1_555 1_555
H4J C11J 1_555 1_555
H4A C11A 1_555 1_555
H4K C11K 1_555 1_555
C12J S3 1_555 1_555
C12A S3A 1_555 1_555
C12K S3A 1_555 1_555
C13J C4J 1_555 1_555
C13A C4A 1_555 1_555
C13K C4K 1_555 1_555
C14J C13J 1_555 1_555
C14A C13A 1_555 1_555
C14K C13K 1_555 1_555
H5J C14J 1_555 1_555
H5A C14A 1_555 1_555
H5K C14K 1_555 1_555
H6J C14J 1_555 1_555
H6A C14A 1_555 1_555
H6K C14K 1_555 1_555
H7J C14J 1_555 1_555
H7A C14A 1_555 1_555
H7K C14K 1_555 1_555
C15J C13J 1_555 1_555
C15A C13A 1_555 1_555
C15K C13K 1_555 1_555
H8J C15J 1_555 1_555
H8A C15A 1_555 1_555
H8K C15K 1_555 1_555
H9J C15J 1_555 1_555
H9A C15A 1_555 1_555
H9K C15K 1_555 1_555
H10J C15J 1_555 1_555
H10A C15A 1_555 1_555
H10K C15K 1_555 1_555
C16J C13J 1_555 1_555
C16A C13A 1_555 1_555
C16K C13K 1_555 1_555
H11J C16J 1_555 1_555
H11A C16A 1_555 1_555
H11K C16K 1_555 1_555
H12J C16J 1_555 1_555
H12A C16A 1_555 1_555
H12K C16K 1_555 1_555
H13J C16J 1_555 1_555
H13A C16A 1_555 1_555
H13K C16K 1_555 1_555
C17J C10J 1_555 1_555
C17A C10A 1_555 1_555
C17K C10K 1_555 1_555
C18J C17J 1_555 1_555
C18A C17A 1_555 1_555
C18K C17K 1_555 1_555
H14J C18J 1_555 1_555
H14A C18A 1_555 1_555
H14K C18K 1_555 1_555
H15J C18J 1_555 1_555
H15A C18A 1_555 1_555
H15K C18K 1_555 1_555
H16J C18J 1_555 1_555
H16A C18A 1_555 1_555
H16K C18K 1_555 1_555
C19J C17J 1_555 1_555
C19A C17A 1_555 1_555
C19K C17K 1_555 1_555
H17J C19J 1_555 1_555
H17A C19A 1_555 1_555
H17K C19K 1_555 1_555
H18J C19J 1_555 1_555
H18A C19A 1_555 1_555
H18K C19K 1_555 1_555
H19J C19J 1_555 1_555
H19A C19A 1_555 1_555
H19K C19K 1_555 1_555
C20J C17J 1_555 1_555
C20A C17A 1_555 1_555
C20K C17K 1_555 1_555
H20J C20J 1_555 1_555
H20A C20A 1_555 1_555
H20K C20K 1_555 1_555
H21J C20J 1_555 1_555
H21A C20A 1_555 1_555
H21K C20K 1_555 1_555
H22J C20J 1_555 1_555
H22A C20A 1_555 1_555
H22K C20K 1_555 1_555
C21A O3A 1_555 1_555
C21B O3B 1_555 1_555
C21C C26 1_555 1_555
C22A S4A 1_555 1_555
C22B S4B 1_555 1_555
C22C S4C 1_555 1_555
C23C C22C 1_555 1_555
C23B C22B 1_555 1_555
C23A C22A 1_555 1_555
H23C C23C 1_555 1_555
H23B C23B 1_555 1_555
H23A C23A 1_555 1_555
C24C C23C 1_555 1_555
C24B C23B 1_555 1_555
C24A C23A 1_555 1_555
C25C C26 1_555 1_555
C25B C24B 1_555 1_555
C25A C24A 1_555 1_555
H24C C25C 1_555 1_555
H24B C25B 1_555 1_555
H24A C25A 1_555 1_555
C26A C21 1_555 1_555
C26B S4B 1_555 1_555
C26C S4C 1_555 1_555
C27C C24C 1_555 1_555
C27B C24B 1_555 1_555
C27A C24A 1_555 1_555
C28C C27C 1_555 1_555
C28B C27B 1_555 1_555
C28A C27A 1_555 1_555
H25C C28C 1_555 1_555
H25B C28B 1_555 1_555
H25A C28A 1_555 1_555
H26C C28C 1_555 1_555
H26B C28B 1_555 1_555
H26A C28A 1_555 1_555
H27C C28C 1_555 1_555
H27B C28B 1_555 1_555
H27A C28A 1_555 1_555
C29C C27C 1_555 1_555
C29B C27B 1_555 1_555
C29A C27A 1_555 1_555
H28C C29C 1_555 1_555
H28B C29B 1_555 1_555
H28A C29A 1_555 1_555
H29C C29C 1_555 1_555
H29B C29B 1_555 1_555
H29A C29A 1_555 1_555
H30C C29C 1_555 1_555
H30B C29B 1_555 1_555
H30A C29A 1_555 1_555
C30C C27C 1_555 1_555
C30B C27B 1_555 1_555
C30A C27A 1_555 1_555
H31C C30C 1_555 1_555
H31B C30B 1_555 1_555
H31A C30A 1_555 1_555
H32C C30C 1_555 1_555
H32B C30B 1_555 1_555
H32A C30A 1_555 1_555
H33C C30C 1_555 1_555
H33B C30B 1_555 1_555
H33A C30A 1_555 1_555
C31J O4J 1_555 1_555
C31C C34C 1_555 1_555
C31I O4I 1_555 1_555
C32J O6J 1_555 1_555
C32C O6C 1_555 1_555
C32I O6I 1_555 1_555
C33J O8J 1_555 1_555
C33C O8C 1_555 1_555
C33I O8I 1_555 1_555
C34J C31J 1_555 1_555
C34C C35C 1_555 1_555
C34I C31I 1_555 1_555
C35J C34J 1_555 1_555
C35C H34C 1_555 1_555
C35I C34I 1_555 1_555
H34J C35J 1_555 1_555
H34I C35I 1_555 1_555
C36J C32J 1_555 1_555
C36C C32C 1_555 1_555
C36I C32I 1_555 1_555
C37J C36J 1_555 1_555
C37C C36C 1_555 1_555
C37I C36I 1_555 1_555
H35J C37J 1_555 1_555
H35C C37C 1_555 1_555
H35I C37I 1_555 1_555
C38J C33J 1_555 1_555
C38C C33C 1_555 1_555
C38I C33I 1_555 1_555
C39J C34J 1_555 1_555
C39C C34C 1_555 1_555
C39I C34I 1_555 1_555
H36J C39J 1_555 1_555
H36C C39C 1_555 1_555
H36I C39I 1_555 1_555
Co2 O1J 1_555 1_555
S3 Co3C 1_555 1_555
O1 Co2J 1_555 1_555
O2 Co2J 1_555 1_555
O2 Co3C 1_555 1_555
O5 C31 1_555 1_555
O7 Co4A 1_555 1_555
C1 C2 1_555 1_555
C5 C6 1_555 1_555
C11 C12 1_555 1_555
C21 C22 1_555 1_555
C25 C26A 1_555 1_555
C35 C36 1_555 1_555
C38 C39 1_555 1_555
Co2A Cl1A 1_555 1_555
Co2A O1K 1_555 1_555
Co2A O2K 1_555 1_555
Co2K O1A 1_555 1_555
Co2K O2A 1_555 1_555
Co3C O2J 1_555 1_555
Co4K O3J 1_555 1_555
Co4B O3A 1_555 1_555
Co4C O3B 1_555 1_555
Co4C O3C 1_555 1_555
Co4I O3I 1_555 1_555
S4A C26A 1_555 1_555
O3C C21C 1_555 1_555
O5J C31J 1_555 1_555
O7J C32J 1_555 1_555
O7C C32C 1_555 1_555
O7I C32I 1_555 1_555
O9J C33J 1_555 1_555
O9C C33C 1_555 1_555
O9I C33I 1_555 1_555
C1J C2J 1_555 1_555
C1J C6J 1_555 1_555
C1A C2A 1_555 1_555
C1A C6A 1_555 1_555
C1K C2K 1_555 1_555
C1K C6K 1_555 1_555
C5J C6J 1_555 1_555
C5A C6A 1_555 1_555
C5K C6K 1_555 1_555
C7J C8J 1_555 1_555
C7J C12J 1_555 1_555
C7A C8A 1_555 1_555
C7A C12A 1_555 1_555
C7K C8K 1_555 1_555
C7K C12K 1_555 1_555
C11J C12J 1_555 1_555
C11A C12A 1_555 1_555
C11K C12K 1_555 1_555
C21A C22A 1_555 1_555
C21A C26B 1_555 1_555
C21B C22B 1_555 1_555
C21B C26C 1_555 1_555
C21C C22C 1_555 1_555
C24C C25C 1_555 1_555
C25B C26C 1_555 1_555
C25A C26B 1_555 1_555
C35J C36J 1_555 1_555
C35C C36C 1_555 1_555
C35I C36I 1_555 1_555
C37J C38J 1_555 1_555
C37C C38C 1_555 1_555
C37I C38I 1_555 1_555
C38J C39J 1_555 1_555
C38C C39C 1_555 1_555
C38I C39I 1_555 1_555

#END
