
#######################################################################
#
#                 Cambridge Crystallographic Data Centre
#                                CCDC 
#
#######################################################################
#
# If this CIF has been generated from an entry in the Cambridge 
# Structural Database, then it will include bibliographic, chemical, 
# crystal, experimental, refinement or atomic coordinate data resulting 
# from the CCDC's data processing and validation procedures.
#
#######################################################################

data_WAWJIO
_symmetry_cell_setting           monoclinic
_symmetry_space_group_name_H-M   'P 21/c'
_symmetry_Int_Tables_number      14
_space_group_name_Hall           '-P 2ybc'
loop_
_symmetry_equiv_pos_site_id
_symmetry_equiv_pos_as_xyz
1 x,y,z
2 -x,1/2+y,1/2-z
3 -x,-y,-z
4 x,1/2-y,1/2+z
_cell_length_a                   12.101(5)
_cell_length_b                   24.379(5)
_cell_length_c                   10.679(5)
_cell_angle_alpha                90
_cell_angle_beta                 105.413(5)
_cell_angle_gamma                90
_cell_volume                     3037.11
loop_
_atom_site_label
_atom_site_type_symbol
_atom_site_fract_x
_atom_site_fract_y
_atom_site_fract_z
Cd1 Cd -0.09010(4) -0.451130(16) -0.39113(4)
C1 C 0.0949(5) -0.3240(2) 0.4369(5)
C2 C 0.0549(5) -0.2732(2) 0.3886(5)
H1 H 0.0795 -0.2422 0.4392
C3 C -0.0213(5) -0.2669(2) 0.2663(5)
H2 H -0.0461 -0.2320 0.2366
C4 C -0.0608(5) -0.3122(2) 0.1881(5)
C5 C -0.0244(5) -0.3633(2) 0.2385(5)
H3 H -0.0518 -0.3941 0.1884
C6 C 0.0511(4) -0.3709(2) 0.3603(5)
C7 C -0.1415(5) -0.3076(2) 0.0572(5)
C8 C -0.2247(5) -0.2659(2) 0.0308(5)
H4 H -0.2266 -0.2395 0.0932
C9 C -0.3039(5) -0.2647(2) -0.0901(5)
H5 H -0.3602 -0.2377 -0.1069
C10 C -0.3019(4) -0.30268(19) -0.1871(4)
C11 C -0.2173(4) -0.34265(19) -0.1612(4)
C12 C -0.1393(4) -0.3443(2) -0.0408(5)
H6 H -0.0829 -0.3713 -0.0248
C13 C 0.1896(5) -0.3267(2) 0.5605(6)
C14 C 0.0722(4) -0.4283(2) 0.4110(5)
C15 C -0.1961(5) -0.3831(2) -0.2561(5)
C16 C -0.3944(5) -0.2992(2) -0.3125(5)
C17 C -0.2471(5) -0.3849(2) -0.6320(5)
H7 H -0.2237 -0.3565 -0.5726
C18 C -0.3156(5) -0.3725(2) -0.7524(5)
H8 H -0.3385 -0.3364 -0.7724
C19 C -0.3511(4) -0.4127(2) -0.8441(5)
C20 C -0.3120(5) -0.4655(2) -0.8076(5)
H9 H -0.3318 -0.4942 -0.8668
C21 C -0.2447(5) -0.4755(2) -0.6855(5)
H10 H -0.2203 -0.5112 -0.6636
C22 C -0.5710(5) -0.3486(2) -1.1220(6)
H11 H -0.6200 -0.3185 -1.1356
C23 C -0.4994(5) -0.3565(2) -0.9995(5)
H12 H -0.5006 -0.3320 -0.9332
C24 C -0.4258(4) -0.4009(2) -0.9751(5)
C25 C -0.4263(5) -0.4339(2) -1.0790(5)
H13 H -0.3764 -0.4635 -1.0686
C26 C -0.5010(6) -0.4233(3) -1.2002(5)
H14 H -0.4996 -0.4464 -1.2690
C27 C 0.1061(5) -0.3877(2) -0.1757(5)
H15 H 0.0912 -0.3633 -0.2450
C28 C 0.1770(5) -0.3712(2) -0.0575(5)
H16 H 0.2088 -0.3362 -0.0492
C29 C 0.2016(5) -0.4067(2) 0.0503(5)
C30 C 0.1529(5) -0.4583(2) 0.0296(5)
H17 H 0.1682 -0.4838 0.0967
C31 C 0.0820(5) -0.4719(2) -0.0894(5)
H18 H 0.0482 -0.5065 -0.0996
C32 C 0.3739(6) -0.3202(3) 0.3239(6)
H19 H 0.3801 -0.2833 0.3471
C33 C 0.2930(5) -0.3350(2) 0.2125(6)
H20 H 0.2460 -0.3085 0.1625
C34 C 0.2818(5) -0.3894(2) 0.1748(5)
C35 C 0.3503(5) -0.4266(3) 0.2578(6)
H21 H 0.3427 -0.4640 0.2407
C36 C 0.4301(6) -0.4076(3) 0.3663(6)
H22 H 0.4776 -0.4332 0.4191
N1 N -0.5740(4) -0.3816(2) -1.2217(4)
N2 N -0.2120(4) -0.43602(17) -0.5951(4)
N3 N 0.0585(4) -0.43725(19) -0.1937(4)
N4 N 0.4438(4) -0.3557(2) 0.4004(5)
O1 O 0.2580(4) -0.36938(17) 0.5593(3)
H23 H 0.2774 -0.3831 0.6320
O2 O 0.2042(4) -0.29369(16) 0.6440(4)
O3 O 0.0579(3) -0.44038(14) 0.5182(3)
O4 O 0.0988(3) -0.46255(14) 0.3326(3)
O5 O -0.2161(3) -0.43262(14) -0.2485(3)
O6 O -0.1414(3) -0.36442(13) -0.3340(3)
O7 O -0.3938(3) -0.34124(16) -0.3886(4)
H24 H -0.4506 -0.3401 -0.4508
O8 O -0.4632(3) -0.26221(15) -0.3372(3)
Cd1B Cd 0.09010(4) -0.548870(16) 0.39113(4)
Cd1_2 Cd -0.09010(4) -0.451130(16) 0.60887(4)
O3_2 O 0.0579(3) -0.44038(14) -0.4818(3)
O4B O -0.0988(3) -0.53745(14) -0.3326(3)
O9 O -0.6211(16) -0.5099(9) 0.4412(19)
loop_
_geom_bond_atom_site_label_1
_geom_bond_atom_site_label_2
_geom_bond_site_symmetry_1
_geom_bond_site_symmetry_2
Cd1 N2 1_555 1_555
C1 C2 1_555 1_555
C2 H1 1_555 1_555
C3 C2 1_555 1_555
H2 C3 1_555 1_555
C4 C3 1_555 1_555
C5 C4 1_555 1_555
H3 C5 1_555 1_555
C6 C1 1_555 1_555
C7 C4 1_555 1_555
C8 C7 1_555 1_555
H4 C8 1_555 1_555
C9 C8 1_555 1_555
H5 C9 1_555 1_555
C10 C9 1_555 1_555
C11 C10 1_555 1_555
C12 C7 1_555 1_555
H6 C12 1_555 1_555
C13 C1 1_555 1_555
C14 C6 1_555 1_555
C15 C11 1_555 1_555
C16 C10 1_555 1_555
C17 H7 1_555 1_555
C18 C17 1_555 1_555
H8 C18 1_555 1_555
C19 C18 1_555 1_555
C20 C19 1_555 1_555
H9 C20 1_555 1_555
C21 C20 1_555 1_555
H10 C21 1_555 1_555
C22 H11 1_555 1_555
C23 C22 1_555 1_555
H12 C23 1_555 1_555
C24 C19 1_555 1_555
C25 C24 1_555 1_555
H13 C25 1_555 1_555
C26 C25 1_555 1_555
H14 C26 1_555 1_555
C27 H15 1_555 1_555
C28 C27 1_555 1_555
H16 C28 1_555 1_555
C29 C28 1_555 1_555
C30 C29 1_555 1_555
H17 C30 1_555 1_555
C31 C30 1_555 1_555
H18 C31 1_555 1_555
C32 H19 1_555 1_555
C33 C32 1_555 1_555
H20 C33 1_555 1_555
C34 C29 1_555 1_555
C35 C34 1_555 1_555
H21 C35 1_555 1_555
C36 C35 1_555 1_555
H22 C36 1_555 1_555
N1 C22 1_555 1_555
N2 C17 1_555 1_555
N3 Cd1 1_555 1_555
N4 C32 1_555 1_555
O1 C13 1_555 1_555
H23 O1 1_555 1_555
O2 C13 1_555 1_555
O3 C14 1_555 1_555
O4 C14 1_555 1_555
O5 Cd1 1_555 1_555
O6 Cd1 1_555 1_555
O7 C16 1_555 1_555
H24 O7 1_555 1_555
O8 C16 1_555 1_555
Cd1B O4 1_555 1_555
Cd1_2 O3 1_555 1_555
O3_2 Cd1 1_555 1_555
O4B Cd1 1_555 1_555
C5 C6 1_555 1_555
C11 C12 1_555 1_555
C15 O5 1_555 1_555
C15 O6 1_555 1_555
C21 N2 1_555 1_555
C23 C24 1_555 1_555
C26 N1 1_555 1_555
C27 N3 1_555 1_555
C31 N3 1_555 1_555
C33 C34 1_555 1_555
C36 N4 1_555 1_555

#END
