
#######################################################################
#
#                 Cambridge Crystallographic Data Centre
#                                CCDC 
#
#######################################################################
#
# If this CIF has been generated from an entry in the Cambridge 
# Structural Database, then it will include bibliographic, chemical, 
# crystal, experimental, refinement or atomic coordinate data resulting 
# from the CCDC's data processing and validation procedures.
#
#######################################################################

data_WAWKIQ
_symmetry_cell_setting           triclinic
_symmetry_space_group_name_H-M   'P -1'
_symmetry_Int_Tables_number      2
_space_group_name_Hall           '-P 1'
loop_
_symmetry_equiv_pos_site_id
_symmetry_equiv_pos_as_xyz
1 x,y,z
2 -x,-y,-z
_cell_length_a                   32.9952(16)
_cell_length_b                   33.4644(16)
_cell_length_c                   35.2518(17)
_cell_angle_alpha                79.0930(10)
_cell_angle_beta                 78.9310(10)
_cell_angle_gamma                64.2070(10)
_cell_volume                     34147.1
loop_
_atom_site_label
_atom_site_type_symbol
_atom_site_fract_x
_atom_site_fract_y
_atom_site_fract_z
Co1 Co -0.07284(5) 0.65506(5) 0.33465(4)
Co2 Co -0.05346(5) 0.55243(5) 0.36932(4)
Co3 Co -0.15808(5) 0.57154(5) 0.36493(4)
Co4 Co -0.17740(5) 0.67404(5) 0.32990(5)
Co5 Co 0.33027(5) 0.17472(5) 0.17495(4)
Co6 Co -0.30699(5) 0.88654(5) -0.12876(4)
Co7 Co -0.36997(5) 0.86513(4) -0.05208(4)
Co8 Co 0.39415(5) 0.19577(4) 0.09809(5)
Co9 Co 0.17524(6) 0.79268(5) -0.10382(5)
Co10 Co 0.21700(5) 0.75244(5) -0.02207(5)
Co11 Co 0.30033(5) 0.67201(5) -0.06411(5)
Co12 Co -0.25871(5) 0.28689(5) 0.14636(5)
Cl1 Cl -0.10460(9) 0.60226(9) 0.31533(8)
Cl2 Cl 0.31553(9) 0.18909(8) 0.10221(8)
Cl3 Cl 0.21494(9) 0.70838(9) -0.07562(9)
S1 S -0.06178(12) 0.70156(10) 0.37898(10)
S2 S -0.02846(10) 0.52776(10) 0.43888(8)
S3 S -0.20509(11) 0.56089(11) 0.43034(9)
S4 S -0.23877(11) 0.73453(11) 0.37022(10)
S5 S 0.36987(11) 0.13538(11) 0.23588(9)
S6 S 0.33227(10) 0.03058(9) 0.15756(9)
S7 S 0.43845(9) 0.06564(8) 0.02709(8)
S8 S 0.47793(9) 0.16844(10) 0.10620(10)
S9 S 0.16516(11) 0.87185(10) -0.13025(11)
S10 S 0.23822(12) 0.80452(11) 0.00733(11)
S11 S 0.37987(10) 0.66852(11) -0.06306(11)
S12 S 0.30935(11) 0.73864(11) -0.20194(10)
O1 O -0.0600(2) 0.6106(2) 0.38281(19)
O2 O -0.2028(3) 0.2784(2) 0.1702(2)
O3 O -0.1129(2) 0.5597(2) 0.4016(2)
O4 O -0.1906(3) 0.6352(3) 0.3772(2)
O5 O -0.1388(3) 0.6865(3) 0.3592(2)
O6 O 0.3423(3) 0.1113(3) 0.1711(2)
O7 O 0.4204(2) 0.13795(19) 0.07496(18)
O8 O -0.1208(3) 0.5082(3) 0.3497(2)
O9 O 0.3664(2) 0.0860(2) 0.09378(18)
O10 O 0.2639(3) 0.1877(3) 0.1935(2)
O11 O 0.2477(2) 0.1449(3) 0.1623(2)
O12 O 0.3098(2) 0.7033(2) -0.1170(2)
O13 O -0.0075(2) 0.6184(3) 0.30929(19)
O14 O 0.0043(3) 0.5483(3) 0.3325(2)
O15 O 0.3194(2) 0.2382(2) 0.1753(2)
O16 O 0.3614(2) 0.2546(2) 0.1225(2)
O17 O 0.2846(3) 0.6427(2) -0.0102(2)
O18 O 0.2282(2) 0.6978(3) 0.0176(2)
O19 O -0.0502(2) 0.4973(3) 0.3523(2)
O20 O 0.3944(3) 0.1618(2) 0.1530(2)
O21 O 0.2073(2) 0.8037(2) -0.0656(2)
O22 O 0.2841(2) 0.7276(2) -0.0404(2)
O23 O -0.1453(2) 0.2229(3) 0.1413(2)
O24 O 0.2326(2) 0.7791(2) -0.1413(2)
O25 O -0.0891(3) 0.6970(2) 0.2843(2)
O26 O -0.1612(3) 0.7112(3) 0.2815(2)
O27 O 0.1490(3) 0.7752(2) -0.0068(2)
O28 O 0.1213(2) 0.8012(3) -0.0632(3)
O29 O -0.2720(2) 0.8800(2) -0.0842(2)
O30 O -0.3171(3) 0.8654(2) -0.0310(2)
O31 O -0.3704(2) 0.8125(2) -0.0118(2)
O32 O -0.3878(3) 0.7708(2) -0.0423(2)
O33 O -0.3111(2) 0.3829(2) 0.0888(3)
O34 O -0.2820(3) 0.3535(2) 0.1462(2)
O35 O -0.2014(2) 0.5868(3) 0.3230(2)
O36 O -0.2121(2) 0.6564(2) 0.30006(19)
C1 C -0.0447(3) 0.6141(4) 0.4145(2)
C2 C -0.0459(3) 0.6553(3) 0.4179(2)
C3 C -0.0331(3) 0.6614(2) 0.4510(3)
H1 H -0.0338 0.6889 0.4533
C4 C -0.0192(2) 0.6263(3) 0.48065(19)
C5 C -0.0181(2) 0.5851(3) 0.4772(2)
H2 H -0.0088 0.5616 0.4971
C6 C -0.0308(3) 0.5790(2) 0.4442(3)
C7 C -0.0067(3) 0.6326(4) 0.5170(2)
C8 C -0.0174(3) 0.6751(3) 0.5258(2)
H3 H -0.0335 0.7001 0.5094
C9 C -0.0040(3) 0.6802(2) 0.5590(3)
H4 H -0.0112 0.7086 0.5648
C10 C 0.0200(3) 0.6427(3) 0.5834(2)
H5 H 0.0290 0.6461 0.6056
C11 C 0.0307(3) 0.6002(3) 0.5747(2)
H6 H 0.0468 0.5751 0.5910
C12 C 0.0173(3) 0.5951(3) 0.5415(3)
H7 H 0.0245 0.5667 0.5356
C13 C -0.1188(4) 0.5438(3) 0.43936(16)
C14 C -0.1602(3) 0.5447(3) 0.4584(3)
C15 C -0.1652(2) 0.5322(3) 0.4983(3)
H8 H -0.1929 0.5329 0.5110
C16 C -0.1288(4) 0.5188(2) 0.51923(16)
C17 C -0.0874(3) 0.5178(2) 0.5002(3)
H9 H -0.0631 0.5088 0.5142
C18 C -0.0825(3) 0.5303(3) 0.4603(3)
C19 C -0.1347(4) 0.5043(3) 0.56267(16)
C20 C -0.1771(3) 0.5125(3) 0.5839(3)
H10 H -0.2029 0.5256 0.5712
C21 C -0.1809(3) 0.5011(3) 0.6240(3)
H11 H -0.2093 0.5066 0.6382
C22 C -0.1423(4) 0.4816(3) 0.64295(16)
H12 H -0.1449 0.4739 0.6698
C23 C -0.0999(3) 0.4734(3) 0.6218(3)
H13 H -0.0741 0.4603 0.6345
C24 C -0.0961(3) 0.4848(3) 0.5816(3)
H14 H -0.0678 0.4793 0.5675
C25 C -0.2244(3) 0.6503(5) 0.4041(3)
C26 C -0.2496(4) 0.6956(4) 0.4072(3)
C27 C -0.2844(3) 0.7093(2) 0.4376(4)
H15 H -0.3013 0.7396 0.4396
C28 C -0.2940(3) 0.6778(4) 0.4649(2)
C29 C -0.2688(4) 0.6325(4) 0.4618(3)
H16 H -0.2752 0.6113 0.4800
C30 C -0.2340(3) 0.6187(3) 0.4314(4)
C31 C -0.3361(3) 0.6975(5) 0.4932(2)
C32 C -0.3398(4) 0.7338(4) 0.5096(4)
H17 H -0.3199 0.7473 0.5000
C33 C -0.3733(5) 0.7499(3) 0.5404(4)
H18 H -0.3758 0.7742 0.5514
C34 C -0.4031(3) 0.7298(4) 0.5548(2)
H19 H -0.4255 0.7405 0.5753
C35 C -0.3993(4) 0.6935(4) 0.5383(4)
H20 H -0.4192 0.6800 0.5480
C36 C -0.3658(5) 0.6774(3) 0.5076(4)
H21 H -0.3633 0.6531 0.4966
C37 C -0.1514(4) 0.7220(2) 0.3764(2)
C38 C -0.1213(2) 0.7332(3) 0.3901(3)
C39 C -0.1376(3) 0.7659(3) 0.4151(3)
H22 H -0.1175 0.7734 0.4242
C40 C -0.1840(3) 0.7875(2) 0.42631(19)
C41 C -0.2140(2) 0.7763(3) 0.4126(3)
H23 H -0.2451 0.7907 0.4201
C42 C -0.1977(4) 0.7436(3) 0.3877(3)
C43 C -0.2025(4) 0.8237(3) 0.4518(2)
C44 C -0.1738(3) 0.8412(3) 0.4588(3)
H24 H -0.1448 0.8329 0.4452
C45 C -0.1884(4) 0.8712(3) 0.4862(3)
H25 H -0.1692 0.8829 0.4909
C46 C -0.2317(4) 0.8836(3) 0.5065(2)
H26 H -0.2415 0.9036 0.5248
C47 C -0.2604(3) 0.8660(3) 0.4994(3)
H27 H -0.2894 0.8743 0.5130
C48 C -0.2458(3) 0.8361(3) 0.4721(3)
H28 H -0.2650 0.8244 0.4674
C49 C 0.3557(3) 0.0774(3) 0.1986(3)
C50 C 0.3534(3) 0.0374(4) 0.1969(2)
C51 C 0.3673(3) 0.0024(3) 0.2266(4)
H29 H 0.3657 -0.0244 0.2254
C52 C 0.3835(3) 0.0075(3) 0.2581(3)
C53 C 0.3858(3) 0.0476(4) 0.2599(2)
H30 H 0.3967 0.0510 0.2810
C54 C 0.3719(3) 0.0826(3) 0.2302(4)
C55 C 0.4000(5) -0.0307(3) 0.2904(3)
C56 C 0.3796(3) -0.0605(5) 0.2982(3)
H31 H 0.3554 -0.0553 0.2853
C57 C 0.3954(4) -0.0980(4) 0.3254(4)
H32 H 0.3817 -0.1180 0.3306
C58 C 0.4315(5) -0.1057(3) 0.3447(3)
H33 H 0.4420 -0.1308 0.3629
C59 C 0.4519(3) -0.0759(5) 0.3369(3)
H34 H 0.4760 -0.0811 0.3499
C60 C 0.4361(5) -0.0384(4) 0.3098(4)
H35 H 0.4497 -0.0184 0.3046
C61 C 0.3917(2) 0.04178(16) 0.0936(3)
C62 C 0.4282(3) 0.0266(2) 0.06483(19)
C63 C 0.45539(19) -0.0189(3) 0.06515(18)
H36 H 0.4798 -0.0291 0.0459
C64 C 0.4460(2) -0.04923(16) 0.0942(2)
C65 C 0.4095(3) -0.0340(2) 0.12300(18)
H37 H 0.4032 -0.0543 0.1425
C66 C 0.38232(19) 0.0115(3) 0.12267(19)
C67 C 0.4753(2) -0.09860(17) 0.0957(3)
C68 C 0.5091(3) -0.1128(2) 0.0647(2)
H38 H 0.5117 -0.0923 0.0436
C69 C 0.5390(2) -0.1576(3) 0.0653(2)
H39 H 0.5617 -0.1671 0.0445
C70 C 0.5352(2) -0.18823(17) 0.0968(3)
H40 H 0.5552 -0.2182 0.0972
C71 C 0.5014(3) -0.1740(2) 0.12785(19)
H41 H 0.4988 -0.1945 0.1490
C72 C 0.4714(2) -0.1292(3) 0.1273(2)
H42 H 0.4488 -0.1197 0.1480
C73 C 0.46429(18) 0.1123(2) 0.0670(2)
C74 C 0.4779(2) 0.0767(3) 0.0456(2)
C75 C 0.5237(3) 0.0488(2) 0.0383(2)
H43 H 0.5329 0.0250 0.0240
C76 C 0.55585(17) 0.0566(2) 0.0525(2)
C77 C 0.5422(3) 0.0922(3) 0.0739(2)
H44 H 0.5637 0.0974 0.0834
C78 C 0.4964(3) 0.1200(2) 0.0811(2)
C79 C 0.60598(19) 0.0255(3) 0.0462(3)
C80 C 0.6193(2) -0.0083(3) 0.0228(2)
H45 H 0.5980 -0.0108 0.0106
C81 C 0.6646(3) -0.0385(2) 0.0176(2)
H46 H 0.6735 -0.0611 0.0020
C82 C 0.69641(18) -0.0348(2) 0.0358(2)
H47 H 0.7267 -0.0550 0.0324
C83 C 0.6830(3) -0.0010(3) 0.0592(2)
H48 H 0.7044 0.0014 0.0714
C84 C 0.6378(3) 0.0291(2) 0.0644(2)
H49 H 0.6289 0.0517 0.0800
C85 C 0.4278(3) 0.1493(3) 0.1738(4)
C86 C 0.4695(5) 0.1479(3) 0.15514(19)
C87 C 0.5065(3) 0.1310(3) 0.1759(3)
H50 H 0.5344 0.1301 0.1634
C88 C 0.5019(3) 0.1155(2) 0.2152(3)
C89 C 0.4602(5) 0.1169(3) 0.23383(19)
H51 H 0.4571 0.1065 0.2602
C90 C 0.4232(3) 0.1338(3) 0.2131(4)
C91 C 0.5391(3) 0.0961(4) 0.2414(3)
C92 C 0.5695(5) 0.1159(3) 0.2348(3)
H52 H 0.5648 0.1412 0.2167
C93 C 0.6069(4) 0.0980(4) 0.2551(4)
H53 H 0.6273 0.1112 0.2506
C94 C 0.6139(3) 0.0602(4) 0.2821(3)
H54 H 0.6390 0.0481 0.2957
C95 C 0.5835(4) 0.0403(3) 0.2887(3)
H55 H 0.5882 0.0151 0.3068
C96 C 0.5461(3) 0.0583(4) 0.2684(4)
H56 H 0.5257 0.0450 0.2728
C97 C 0.2045(3) 0.8440(3) -0.0638(4)
C98 C 0.1874(3) 0.8800(4) -0.0921(2)
C99 C 0.1838(3) 0.9218(3) -0.0876(3)
H57 H 0.1723 0.9459 -0.1065
C100 C 0.1972(3) 0.9277(2) -0.0547(3)
C101 C 0.2143(3) 0.8917(4) -0.0265(2)
H58 H 0.2232 0.8956 -0.0045
C102 C 0.2179(3) 0.8498(3) -0.0310(3)
C103 C 0.1959(3) 0.9733(2) -0.0555(4)
C104 C 0.2004(3) 1.0010(4) -0.0892(3)
H59 H 0.2055 0.9914 -0.1134
C105 C 0.1974(3) 1.0432(3) -0.0867(3)
H60 H 0.2004 1.0618 -0.1092
C106 C 0.1898(3) 1.0577(2) -0.0505(4)
H61 H 0.1878 1.0859 -0.0488
C107 C 0.1852(3) 1.0299(4) -0.0167(2)
H62 H 0.1802 1.0396 0.0075
C108 C 0.1883(3) 0.9878(3) -0.0193(3)
H63 H 0.1852 0.9692 0.0033
C109 C 0.3134(4) 0.7405(4) -0.0277(3)
C110 C 0.2981(2) 0.7773(4) -0.0075(3)
C111 C 0.3290(4) 0.7895(3) 0.0035(2)
H64 H 0.3188 0.8141 0.0170
C112 C 0.3753(4) 0.7648(4) -0.0057(3)
C113 C 0.3906(2) 0.7280(3) -0.0258(3)
H65 H 0.4216 0.7114 -0.0320
C114 C 0.3596(5) 0.7158(3) -0.0368(3)
C115 C 0.4113(4) 0.7768(3) 0.0036(4)
C116 C 0.3989(3) 0.8020(3) 0.0344(3)
H66 H 0.3706 0.8089 0.0490
C117 C 0.4289(4) 0.8167(3) 0.0435(2)
H67 H 0.4206 0.8336 0.0641
C118 C 0.4713(4) 0.8063(3) 0.0217(3)
H68 H 0.4914 0.8162 0.0277
C119 C 0.4837(3) 0.7812(3) -0.0091(3)
H69 H 0.5121 0.7742 -0.0237
C120 C 0.4537(4) 0.7664(3) -0.0182(2)
H70 H 0.4620 0.7495 -0.0388
C121 C 0.3486(3) 0.7068(3) -0.1342(4)
C122 C 0.3836(5) 0.6945(3) -0.1120(2)
C123 C 0.4226(3) 0.7007(3) -0.1283(3)
H71 H 0.4461 0.6925 -0.1134
C124 C 0.4266(3) 0.7191(3) -0.1669(4)
C125 C 0.3916(4) 0.7313(3) -0.1892(2)
H72 H 0.3943 0.7436 -0.2150
C126 C 0.3526(3) 0.7252(3) -0.1728(4)
C127 C 0.4678(3) 0.7299(3) -0.1796(4)
C128 C 0.4955(4) 0.7316(3) -0.1554(2)
H73 H 0.4889 0.7268 -0.1285
C129 C 0.5331(3) 0.7404(3) -0.1713(3)
H74 H 0.5516 0.7416 -0.1551
C130 C 0.5431(3) 0.7476(3) -0.2115(4)
H75 H 0.5682 0.7535 -0.2221
C131 C 0.5154(4) 0.7458(3) -0.2357(2)
H76 H 0.5221 0.7506 -0.2626
C132 C 0.4778(4) 0.7370(3) -0.2198(4)
H77 H 0.4593 0.7359 -0.2361
C133 C 0.2422(4) 0.8077(3) -0.1689(2)
C134 C 0.2771(3) 0.7949(2) -0.1994(3)
C135 C 0.2844(2) 0.8270(4) -0.2275(2)
H78 H 0.3078 0.8184 -0.2479
C136 C 0.2569(3) 0.8721(3) -0.2252(2)
C137 C 0.2220(3) 0.8850(2) -0.1947(3)
H79 H 0.2036 0.9151 -0.1931
C138 C 0.2147(3) 0.8528(4) -0.1666(2)
C139 C 0.2633(3) 0.9080(3) -0.2560(3)
C140 C 0.2810(3) 0.8969(2) -0.2936(4)
H80 H 0.2885 0.8682 -0.2991
C141 C 0.2872(3) 0.9287(4) -0.3228(2)
H81 H 0.2990 0.9213 -0.3480
C142 C 0.2759(3) 0.9715(3) -0.3145(3)
H82 H 0.2801 0.9928 -0.3341
C143 C 0.2583(3) 0.9826(2) -0.2770(3)
H83 H 0.2507 1.0113 -0.2714
C144 C 0.2520(3) 0.9509(4) -0.2477(2)
H84 H 0.2402 0.9583 -0.2226
C145 C 0.17208(19) 0.5152(3) 0.19633(17)
C146 C 0.1975(3) 0.4696(2) 0.19523(18)
H85 H 0.1905 0.4492 0.2140
C147 C 0.2336(2) 0.45436(15) 0.1661(2)
C148 C 0.24416(19) 0.4848(3) 0.13800(17)
H86 H 0.2683 0.4746 0.1185
C149 C 0.2187(3) 0.5304(2) 0.13910(18)
C150 C 0.1827(2) 0.54561(15) 0.1683(2)
H87 H 0.1656 0.5761 0.1690
C151 C 0.1328(2) 0.5304(3) 0.22864(19)
C152 C 0.1137(3) 0.5747(3) 0.2361(2)
H88 H 0.1264 0.5942 0.2227
C153 C 0.0757(3) 0.58993(19) 0.2635(2)
H89 H 0.0629 0.6196 0.2685
C154 C 0.0568(2) 0.5609(3) 0.28352(19)
C155 C 0.0759(3) 0.5166(3) 0.2761(2)
H90 H 0.0632 0.4971 0.2895
C156 C 0.1139(3) 0.50138(19) 0.2486(2)
H91 H 0.1267 0.4718 0.2437
C157 C 0.0129(3) 0.5772(4) 0.3104(3)
C158 C 0.2608(3) 0.40488(18) 0.1637(3)
C159 C 0.2484(2) 0.3733(3) 0.1885(2)
H92 H 0.2239 0.3825 0.2078
C160 C 0.2726(3) 0.3282(3) 0.1843(2)
H93 H 0.2643 0.3071 0.2009
C161 C 0.3093(3) 0.31457(18) 0.1554(3)
C162 C 0.3217(2) 0.3461(3) 0.1306(2)
H94 H 0.3462 0.3370 0.1113
C163 C 0.2974(3) 0.3913(3) 0.1348(2)
H95 H 0.3057 0.4124 0.1183
C164 C 0.3312(4) 0.2653(3) 0.1530(4)
C165 C 0.2289(3) 0.5638(3) 0.1078(2)
C166 C 0.2647(3) 0.54896(19) 0.0783(3)
H96 H 0.2832 0.5186 0.0784
C167 C 0.2727(2) 0.5795(3) 0.0487(2)
H97 H 0.2966 0.5696 0.0290
C168 C 0.2450(3) 0.6249(3) 0.0485(2)
C169 C 0.2093(3) 0.63972(19) 0.0780(3)
H98 H 0.1908 0.6701 0.0779
C170 C 0.2013(2) 0.6092(3) 0.1076(2)
H99 H 0.1773 0.6191 0.1274
C171 C 0.2534(5) 0.6567(4) 0.0162(3)
C172 C -0.0157(3) 0.33011(19) 0.26409(18)
C173 C -0.04712(16) 0.3205(2) 0.2508(2)
H100 H -0.0780 0.3373 0.2569
C174 C -0.0323(2) 0.2856(2) 0.2283(2)
C175 C 0.0138(3) 0.26036(19) 0.21920(18)
H101 H 0.0237 0.2370 0.2042
C176 C 0.04521(16) 0.2700(2) 0.2325(2)
C177 C 0.0304(2) 0.3049(2) 0.2550(2)
H102 H 0.0514 0.3113 0.2639
C178 C -0.0323(3) 0.3690(2) 0.2871(2)
C179 C -0.0770(3) 0.3874(3) 0.3044(2)
H103 H -0.0967 0.3748 0.3029
C180 C -0.0923(2) 0.4248(3) 0.3238(2)
H104 H -0.1222 0.4372 0.3354
C181 C -0.0629(3) 0.4438(2) 0.3260(2)
C182 C -0.0181(3) 0.4253(3) 0.3088(2)
H105 H 0.0015 0.4380 0.3102
C183 C -0.0029(2) 0.3879(3) 0.2893(2)
H106 H 0.0271 0.3756 0.2777
C184 C -0.0781(5) 0.4862(3) 0.3435(4)
C185 C 0.09512(18) 0.2439(3) 0.2208(2)
C186 C 0.1256(3) 0.2581(2) 0.2297(2)
H107 H 0.1151 0.2827 0.2433
C187 C 0.1718(3) 0.2356(3) 0.2182(2)
H108 H 0.1922 0.2451 0.2241
C188 C 0.18747(18) 0.1989(3) 0.1978(2)
C189 C 0.1570(3) 0.1847(2) 0.1889(2)
H109 H 0.1675 0.1601 0.1753
C190 C 0.1108(3) 0.2072(3) 0.2004(2)
H110 H 0.0904 0.1976 0.1944
C191 C 0.2369(3) 0.1759(5) 0.1833(4)
C192 C -0.0654(3) 0.2737(3) 0.2135(3)
C193 C -0.0504(2) 0.2413(3) 0.1883(3)
H111 H -0.0194 0.2249 0.1820
C194 C -0.0815(4) 0.2336(3) 0.1727(2)
H112 H -0.0714 0.2119 0.1558
C195 C -0.1277(3) 0.2582(3) 0.1822(3)
C196 C -0.1428(2) 0.2905(3) 0.2074(3)
H113 H -0.1737 0.3070 0.2137
C197 C -0.1117(3) 0.2983(2) 0.2230(2)
H114 H -0.1217 0.3199 0.2399
C198 C -0.1615(4) 0.2519(4) 0.1639(4)
C199 C -0.1061(3) 0.7888(2) 0.10721(13)
C200 C -0.0648(2) 0.7893(2) 0.0896(2)
H115 H -0.0408 0.7794 0.1041
C201 C -0.05943(18) 0.8044(2) 0.0502(2)
C202 C -0.0953(3) 0.8190(2) 0.02845(13)
H116 H -0.0917 0.8291 0.0021
C203 C -0.1366(2) 0.8186(2) 0.0461(2)
C204 C -0.14204(18) 0.8035(2) 0.0855(2)
H117 H -0.1697 0.8033 0.0973
C205 C -0.1122(4) 0.7727(3) 0.15004(16)
C206 C -0.1520(3) 0.7681(3) 0.1666(3)
H118 H -0.1760 0.7780 0.1520
C207 C -0.1559(3) 0.7489(3) 0.2049(3)
H119 H -0.1825 0.7458 0.2160
C208 C -0.1200(4) 0.7341(3) 0.22666(16)
C209 C -0.0802(3) 0.7387(3) 0.2101(3)
H120 H -0.0562 0.7288 0.2247
C210 C -0.0763(2) 0.7579(3) 0.1718(3)
H121 H -0.0497 0.7610 0.1607
C211 C -0.1248(5) 0.7115(4) 0.2672(3)
C212 C -0.0142(2) 0.8019(3) 0.0305(3)
C213 C 0.0222(4) 0.7860(3) 0.05188(18)
H122 H 0.0183 0.7772 0.0785
C214 C 0.0644(3) 0.7833(3) 0.0335(3)
H123 H 0.0887 0.7727 0.0478
C215 C 0.0702(2) 0.7964(3) -0.0063(3)
C216 C 0.0338(4) 0.8123(3) -0.02764(18)
H124 H 0.0377 0.8211 -0.0542
C217 C -0.0084(3) 0.8150(3) -0.0093(3)
H125 H -0.0327 0.8256 -0.0236
C218 C 0.1153(4) 0.7927(5) -0.0276(4)
C219 C -0.1741(2) 0.8318(2) 0.0217(2)
C220 C -0.2118(3) 0.8226(2) 0.03633(16)
H126 H -0.2136 0.8077 0.0613
C221 C -0.2467(2) 0.8357(2) 0.0138(2)
H127 H -0.2718 0.8295 0.0236
C222 C -0.2439(2) 0.8580(2) -0.0235(2)
C223 C -0.2063(3) 0.8672(2) -0.03817(16)
H128 H -0.2045 0.8822 -0.0631
C224 C -0.1714(2) 0.8542(2) -0.0156(2)
H129 H -0.1462 0.8603 -0.0254
C225 C -0.2816(3) 0.8686(3) -0.0479(4)
C226 C -0.3267(2) 0.6358(2) 0.11322(18)
C227 C -0.3283(2) 0.5955(3) 0.11078(17)
H130 H -0.3397 0.5925 0.0899
C228 C -0.3127(2) 0.55974(18) 0.1396(2)
C229 C -0.2955(2) 0.5643(2) 0.17081(18)
H131 H -0.2851 0.5403 0.1901
C230 C -0.2940(2) 0.6045(3) 0.17326(17)
C231 C -0.3096(2) 0.64028(18) 0.1445(2)
H132 H -0.3085 0.6672 0.1461
C232 C -0.3426(3) 0.6744(2) 0.08131(18)
C233 C -0.3695(3) 0.6752(2) 0.0550(2)
H133 H -0.3793 0.6525 0.0576
C234 C -0.3817(2) 0.7099(3) 0.0248(2)
H134 H -0.3996 0.7104 0.0072
C235 C -0.3670(3) 0.7437(2) 0.02095(18)
C236 C -0.3401(3) 0.7429(2) 0.0473(2)
H135 H -0.3303 0.7656 0.0447
C237 C -0.3279(2) 0.7082(3) 0.0774(2)
H136 H -0.3099 0.7077 0.0950
C238 C -0.3742(4) 0.7786(3) -0.0140(3)
C239 C -0.3113(3) 0.5150(2) 0.1348(3)
C240 C -0.3280(3) 0.5100(2) 0.1035(2)
H137 H -0.3417 0.5346 0.0858
C241 C -0.3240(3) 0.4681(3) 0.0987(2)
H138 H -0.3352 0.4647 0.0778
C242 C -0.3035(3) 0.4313(2) 0.1253(3)
C243 C -0.2868(3) 0.4364(2) 0.1566(2)
H139 H -0.2731 0.4117 0.1743
C244 C -0.2908(3) 0.4783(3) 0.1613(2)
H140 H -0.2796 0.4817 0.1823
C245 C -0.2965(4) 0.3855(3) 0.1190(4)
C246 C -0.2751(3) 0.6093(3) 0.2073(2)
C247 C -0.2607(3) 0.5737(2) 0.2364(3)
H141 H -0.2639 0.5476 0.2354
C248 C -0.2416(3) 0.5770(3) 0.2669(2)
H142 H -0.2320 0.5531 0.2864
C249 C -0.2370(3) 0.6160(3) 0.2683(2)
C250 C -0.2513(3) 0.6516(2) 0.2393(3)
H143 H -0.2482 0.6777 0.2402
C251 C -0.2704(3) 0.6483(3) 0.2087(2)
H144 H -0.2800 0.6722 0.1893
C252 C -0.2160(5) 0.6221(6) 0.2992(4)
Co6A Co 0.30699(5) 0.11346(5) 0.12876(4)
Co7A Co 0.36997(5) 0.13487(4) 0.05208(4)
Co8A Co -0.39415(5) 0.80423(4) -0.09809(5)
Co9A Co -0.17524(6) 0.20732(5) 0.10382(5)
Co11A Co -0.30033(5) 0.32799(5) 0.06411(5)
Co12A Co 0.25871(5) 0.71311(5) -0.14636(5)
Cl2A Cl -0.31553(9) 0.81091(8) -0.10221(8)
Cl3A Cl -0.21494(9) 0.29162(9) 0.07562(9)
S6A S -0.33227(10) 0.96942(9) -0.15756(9)
S7A S -0.43845(9) 0.93436(8) -0.02709(8)
S12A S -0.30935(11) 0.26136(11) 0.20194(10)
O6A O -0.3423(3) 0.8887(3) -0.1711(2)
O7A O -0.4204(2) 0.86205(19) -0.07496(18)
O9A O -0.3664(2) 0.9140(2) -0.09378(18)
O11A O -0.2477(2) 0.8551(3) -0.1623(2)
O12A O -0.3098(2) 0.2967(2) 0.1170(2)
O23A O 0.1453(2) 0.7771(3) -0.1413(2)
O24A O -0.2326(2) 0.2209(2) 0.1413(2)
O32A O 0.3878(3) 0.2292(2) 0.0423(2)
O33A O 0.3111(2) 0.6171(2) -0.0888(3)
loop_
_geom_bond_atom_site_label_1
_geom_bond_atom_site_label_2
_geom_bond_site_symmetry_1
_geom_bond_site_symmetry_2
Co1 Cl1 1_555 1_555
Co2 Cl1 1_555 1_555
Co3 Cl1 1_555 1_555
Co4 Cl1 1_555 1_555
Co5 Cl2 1_555 1_555
Co6 O29 1_555 1_555
Co7 O30 1_555 1_555
Co8 Cl2 1_555 1_555
Co9 Cl3 1_555 1_555
Co10 Cl3 1_555 1_555
Co11 Cl3 1_555 1_555
Co12 O2 1_555 1_555
Cl2 Co6A 1_555 1_555
Cl3 Co12A 1_555 1_555
S1 Co1 1_555 1_555
S2 Co2 1_555 1_555
S3 Co3 1_555 1_555
S4 Co4 1_555 1_555
S5 Co5 1_555 1_555
S6 C50 1_555 1_555
S7 C62 1_555 1_555
S8 Co8 1_555 1_555
S9 Co9 1_555 1_555
S10 Co10 1_555 1_555
S11 Co11 1_555 1_555
S12 C126 1_555 1_555
O1 Co1 1_555 1_555
O2 C198 1_555 1_555
O3 Co2 1_555 1_555
O4 Co3 1_555 1_555
O5 Co1 1_555 1_555
O6 Co5 1_555 1_555
O7 Co8 1_555 1_555
O8 Co3 1_555 1_555
O9 C61 1_555 1_555
O10 Co5 1_555 1_555
O11 C191 1_555 1_555
O12 Co11 1_555 1_555
O13 Co1 1_555 1_555
O14 Co2 1_555 1_555
O15 Co5 1_555 1_555
O16 Co8 1_555 1_555
O17 Co11 1_555 1_555
O18 Co10 1_555 1_555
O19 Co2 1_555 1_555
O20 Co5 1_555 1_555
O21 Co9 1_555 1_555
O22 Co10 1_555 1_555
O23 C198 1_555 1_555
O24 Co9 1_555 1_555
O25 Co1 1_555 1_555
O26 Co4 1_555 1_555
O27 Co10 1_555 1_555
O28 Co9 1_555 1_555
O29 C225 1_555 1_555
O30 C225 1_555 1_555
O31 Co7 1_555 1_555
O32 C238 1_555 1_555
O33 C245 1_555 1_555
O34 Co12 1_555 1_555
O35 Co3 1_555 1_555
O36 Co4 1_555 1_555
C1 O1 1_555 1_555
C2 S1 1_555 1_555
C3 C2 1_555 1_555
H1 C3 1_555 1_555
C4 C3 1_555 1_555
C5 C4 1_555 1_555
H2 C5 1_555 1_555
C6 S2 1_555 1_555
C7 C4 1_555 1_555
C8 C7 1_555 1_555
H3 C8 1_555 1_555
C9 C8 1_555 1_555
H4 C9 1_555 1_555
C10 C9 1_555 1_555
H5 C10 1_555 1_555
C11 C10 1_555 1_555
H6 C11 1_555 1_555
C12 C7 1_555 1_555
H7 C12 1_555 1_555
C13 O3 1_555 1_555
C14 S3 1_555 1_555
C15 C14 1_555 1_555
H8 C15 1_555 1_555
C16 C15 1_555 1_555
C17 C16 1_555 1_555
H9 C17 1_555 1_555
C18 S2 1_555 1_555
C19 C16 1_555 1_555
C20 C19 1_555 1_555
H10 C20 1_555 1_555
C21 C20 1_555 1_555
H11 C21 1_555 1_555
C22 C21 1_555 1_555
H12 C22 1_555 1_555
C23 C22 1_555 1_555
H13 C23 1_555 1_555
C24 C19 1_555 1_555
H14 C24 1_555 1_555
C25 O4 1_555 1_555
C26 S4 1_555 1_555
C27 C26 1_555 1_555
H15 C27 1_555 1_555
C28 C27 1_555 1_555
C29 C28 1_555 1_555
H16 C29 1_555 1_555
C30 S3 1_555 1_555
C31 C28 1_555 1_555
C32 C31 1_555 1_555
H17 C32 1_555 1_555
C33 C32 1_555 1_555
H18 C33 1_555 1_555
C34 C33 1_555 1_555
H19 C34 1_555 1_555
C35 C34 1_555 1_555
H20 C35 1_555 1_555
C36 C31 1_555 1_555
H21 C36 1_555 1_555
C37 O5 1_555 1_555
C38 S1 1_555 1_555
C39 C38 1_555 1_555
H22 C39 1_555 1_555
C40 C39 1_555 1_555
C41 C40 1_555 1_555
H23 C41 1_555 1_555
C42 S4 1_555 1_555
C43 C40 1_555 1_555
C44 C43 1_555 1_555
H24 C44 1_555 1_555
C45 C44 1_555 1_555
H25 C45 1_555 1_555
C46 C45 1_555 1_555
H26 C46 1_555 1_555
C47 C46 1_555 1_555
H27 C47 1_555 1_555
C48 C43 1_555 1_555
H28 C48 1_555 1_555
C49 O6 1_555 1_555
C50 C49 1_555 1_555
C51 C50 1_555 1_555
H29 C51 1_555 1_555
C52 C51 1_555 1_555
C53 C52 1_555 1_555
H30 C53 1_555 1_555
C54 S5 1_555 1_555
C55 C52 1_555 1_555
C56 C55 1_555 1_555
H31 C56 1_555 1_555
C57 C56 1_555 1_555
H32 C57 1_555 1_555
C58 C57 1_555 1_555
H33 C58 1_555 1_555
C59 C58 1_555 1_555
H34 C59 1_555 1_555
C60 C55 1_555 1_555
H35 C60 1_555 1_555
C61 C62 1_555 1_555
C62 C63 1_555 1_555
C63 H36 1_555 1_555
C64 C63 1_555 1_555
C65 C64 1_555 1_555
H37 C65 1_555 1_555
C66 S6 1_555 1_555
C67 C64 1_555 1_555
C68 C67 1_555 1_555
H38 C68 1_555 1_555
C69 C68 1_555 1_555
H39 C69 1_555 1_555
C70 C69 1_555 1_555
H40 C70 1_555 1_555
C71 C70 1_555 1_555
H41 C71 1_555 1_555
C72 C67 1_555 1_555
H42 C72 1_555 1_555
C73 O7 1_555 1_555
C74 S7 1_555 1_555
C75 C74 1_555 1_555
H43 C75 1_555 1_555
C76 C75 1_555 1_555
C77 C76 1_555 1_555
H44 C77 1_555 1_555
C78 S8 1_555 1_555
C79 C76 1_555 1_555
C80 C79 1_555 1_555
H45 C80 1_555 1_555
C81 C80 1_555 1_555
H46 C81 1_555 1_555
C82 C81 1_555 1_555
H47 C82 1_555 1_555
C83 C82 1_555 1_555
H48 C83 1_555 1_555
C84 C79 1_555 1_555
H49 C84 1_555 1_555
C85 O20 1_555 1_555
C86 S8 1_555 1_555
C87 C86 1_555 1_555
H50 C87 1_555 1_555
C88 C87 1_555 1_555
C89 C88 1_555 1_555
H51 C89 1_555 1_555
C90 S5 1_555 1_555
C91 C88 1_555 1_555
C92 C91 1_555 1_555
H52 C92 1_555 1_555
C93 C92 1_555 1_555
H53 C93 1_555 1_555
C94 C93 1_555 1_555
H54 C94 1_555 1_555
C95 C94 1_555 1_555
H55 C95 1_555 1_555
C96 C91 1_555 1_555
H56 C96 1_555 1_555
C97 O21 1_555 1_555
C98 S9 1_555 1_555
C99 C98 1_555 1_555
H57 C99 1_555 1_555
C100 C99 1_555 1_555
C101 C100 1_555 1_555
H58 C101 1_555 1_555
C102 S10 1_555 1_555
C103 C100 1_555 1_555
C104 C103 1_555 1_555
H59 C104 1_555 1_555
C105 C104 1_555 1_555
H60 C105 1_555 1_555
C106 C105 1_555 1_555
H61 C106 1_555 1_555
C107 C106 1_555 1_555
H62 C107 1_555 1_555
C108 C103 1_555 1_555
H63 C108 1_555 1_555
C109 O22 1_555 1_555
C110 S10 1_555 1_555
C111 C110 1_555 1_555
H64 C111 1_555 1_555
C112 C111 1_555 1_555
C113 C112 1_555 1_555
H65 C113 1_555 1_555
C114 S11 1_555 1_555
C115 C112 1_555 1_555
C116 C115 1_555 1_555
H66 C116 1_555 1_555
C117 C116 1_555 1_555
H67 C117 1_555 1_555
C118 C117 1_555 1_555
H68 C118 1_555 1_555
C119 C118 1_555 1_555
H69 C119 1_555 1_555
C120 C115 1_555 1_555
H70 C120 1_555 1_555
C121 O12 1_555 1_555
C122 S11 1_555 1_555
C123 C122 1_555 1_555
H71 C123 1_555 1_555
C124 C123 1_555 1_555
C125 C124 1_555 1_555
H72 C125 1_555 1_555
C126 C121 1_555 1_555
C127 C124 1_555 1_555
C128 C127 1_555 1_555
H73 C128 1_555 1_555
C129 C128 1_555 1_555
H74 C129 1_555 1_555
C130 C129 1_555 1_555
H75 C130 1_555 1_555
C131 C130 1_555 1_555
H76 C131 1_555 1_555
C132 C127 1_555 1_555
H77 C132 1_555 1_555
C133 O24 1_555 1_555
C134 S12 1_555 1_555
C135 C134 1_555 1_555
H78 C135 1_555 1_555
C136 C135 1_555 1_555
C137 C136 1_555 1_555
H79 C137 1_555 1_555
C138 S9 1_555 1_555
C139 C136 1_555 1_555
C140 C139 1_555 1_555
H80 C140 1_555 1_555
C141 C140 1_555 1_555
H81 C141 1_555 1_555
C142 C141 1_555 1_555
H82 C142 1_555 1_555
C143 C142 1_555 1_555
H83 C143 1_555 1_555
C144 C139 1_555 1_555
H84 C144 1_555 1_555
C145 C146 1_555 1_555
C146 H85 1_555 1_555
C147 C146 1_555 1_555
C148 C147 1_555 1_555
H86 C148 1_555 1_555
C149 C148 1_555 1_555
C150 C145 1_555 1_555
H87 C150 1_555 1_555
C151 C145 1_555 1_555
C152 C151 1_555 1_555
H88 C152 1_555 1_555
C153 C152 1_555 1_555
H89 C153 1_555 1_555
C154 C153 1_555 1_555
C155 C154 1_555 1_555
H90 C155 1_555 1_555
C156 C151 1_555 1_555
H91 C156 1_555 1_555
C157 O13 1_555 1_555
C158 C147 1_555 1_555
C159 C158 1_555 1_555
H92 C159 1_555 1_555
C160 C159 1_555 1_555
H93 C160 1_555 1_555
C161 C160 1_555 1_555
C162 C161 1_555 1_555
H94 C162 1_555 1_555
C163 C158 1_555 1_555
H95 C163 1_555 1_555
C164 O15 1_555 1_555
C165 C149 1_555 1_555
C166 C165 1_555 1_555
H96 C166 1_555 1_555
C167 C166 1_555 1_555
H97 C167 1_555 1_555
C168 C167 1_555 1_555
C169 C168 1_555 1_555
H98 C169 1_555 1_555
C170 C165 1_555 1_555
H99 C170 1_555 1_555
C171 O17 1_555 1_555
C172 C173 1_555 1_555
C173 H100 1_555 1_555
C174 C173 1_555 1_555
C175 C174 1_555 1_555
H101 C175 1_555 1_555
C176 C175 1_555 1_555
C177 C172 1_555 1_555
H102 C177 1_555 1_555
C178 C172 1_555 1_555
C179 C178 1_555 1_555
H103 C179 1_555 1_555
C180 C179 1_555 1_555
H104 C180 1_555 1_555
C181 C180 1_555 1_555
C182 C181 1_555 1_555
H105 C182 1_555 1_555
C183 C178 1_555 1_555
H106 C183 1_555 1_555
C184 O8 1_555 1_555
C185 C176 1_555 1_555
C186 C185 1_555 1_555
H107 C186 1_555 1_555
C187 C186 1_555 1_555
H108 C187 1_555 1_555
C188 C187 1_555 1_555
C189 C188 1_555 1_555
H109 C189 1_555 1_555
C190 C185 1_555 1_555
H110 C190 1_555 1_555
C191 O10 1_555 1_555
C192 C174 1_555 1_555
C193 C192 1_555 1_555
H111 C193 1_555 1_555
C194 C193 1_555 1_555
H112 C194 1_555 1_555
C195 C194 1_555 1_555
C196 C195 1_555 1_555
H113 C196 1_555 1_555
C197 C192 1_555 1_555
H114 C197 1_555 1_555
C198 C195 1_555 1_555
C199 C200 1_555 1_555
C200 H115 1_555 1_555
C201 C200 1_555 1_555
C202 C201 1_555 1_555
H116 C202 1_555 1_555
C203 C202 1_555 1_555
C204 C199 1_555 1_555
H117 C204 1_555 1_555
C205 C199 1_555 1_555
C206 C205 1_555 1_555
H118 C206 1_555 1_555
C207 C206 1_555 1_555
H119 C207 1_555 1_555
C208 C207 1_555 1_555
C209 C208 1_555 1_555
H120 C209 1_555 1_555
C210 C205 1_555 1_555
H121 C210 1_555 1_555
C211 O25 1_555 1_555
C212 C201 1_555 1_555
C213 C212 1_555 1_555
H122 C213 1_555 1_555
C214 C213 1_555 1_555
H123 C214 1_555 1_555
C215 C214 1_555 1_555
C216 C215 1_555 1_555
H124 C216 1_555 1_555
C217 C212 1_555 1_555
H125 C217 1_555 1_555
C218 O27 1_555 1_555
C219 C203 1_555 1_555
C220 C219 1_555 1_555
H126 C220 1_555 1_555
C221 C220 1_555 1_555
H127 C221 1_555 1_555
C222 C221 1_555 1_555
C223 C222 1_555 1_555
H128 C223 1_555 1_555
C224 C219 1_555 1_555
H129 C224 1_555 1_555
C225 C222 1_555 1_555
C226 C227 1_555 1_555
C227 H130 1_555 1_555
C228 C227 1_555 1_555
C229 C228 1_555 1_555
H131 C229 1_555 1_555
C230 C229 1_555 1_555
C231 C226 1_555 1_555
H132 C231 1_555 1_555
C232 C226 1_555 1_555
C233 C232 1_555 1_555
H133 C233 1_555 1_555
C234 C233 1_555 1_555
H134 C234 1_555 1_555
C235 C234 1_555 1_555
C236 C235 1_555 1_555
H135 C236 1_555 1_555
C237 C232 1_555 1_555
H136 C237 1_555 1_555
C238 O31 1_555 1_555
C239 C228 1_555 1_555
C240 C239 1_555 1_555
H137 C240 1_555 1_555
C241 C240 1_555 1_555
H138 C241 1_555 1_555
C242 C241 1_555 1_555
C243 C242 1_555 1_555
H139 C243 1_555 1_555
C244 C239 1_555 1_555
H140 C244 1_555 1_555
C245 O34 1_555 1_555
C246 C230 1_555 1_555
C247 C246 1_555 1_555
H141 C247 1_555 1_555
C248 C247 1_555 1_555
H142 C248 1_555 1_555
C249 C248 1_555 1_555
C250 C249 1_555 1_555
H143 C250 1_555 1_555
C251 C246 1_555 1_555
H144 C251 1_555 1_555
C252 O35 1_555 1_555
Co6A S6 1_555 1_555
Co7A Cl2 1_555 1_555
Co8A O32 1_555 1_555
Co9A O23 1_555 1_555
Co11A O33 1_555 1_555
Co12A S12 1_555 1_555
Cl2A Co6 1_555 1_555
Cl3A Co12 1_555 1_555
S6A Co6 1_555 1_555
S7A Co7 1_555 1_555
S12A Co12 1_555 1_555
O6A Co6 1_555 1_555
O7A Co7 1_555 1_555
O9A Co6 1_555 1_555
O11A Co6 1_555 1_555
O12A Co12 1_555 1_555
O23A Co9 1_555 1_555
O24A Co12 1_555 1_555
O32A Co8 1_555 1_555
O33A Co11 1_555 1_555
Co2 O1 1_555 1_555
Co3 O3 1_555 1_555
Co4 O4 1_555 1_555
Co4 O5 1_555 1_555
Co7 Cl2A 1_555 1_555
Co7 O9A 1_555 1_555
Co8 O20 1_555 1_555
Co10 O21 1_555 1_555
Co11 O22 1_555 1_555
S7 Co7A 1_555 1_555
O6 Co6A 1_555 1_555
O7 Co7A 1_555 1_555
O9 Co6A 1_555 1_555
O9 Co7A 1_555 1_555
O11 Co6A 1_555 1_555
O12 Co12A 1_555 1_555
O14 C157 1_555 1_555
O16 C164 1_555 1_555
O18 C171 1_555 1_555
O19 C184 1_555 1_555
O24 Co12A 1_555 1_555
O26 C211 1_555 1_555
O28 C218 1_555 1_555
O36 C252 1_555 1_555
C1 C2 1_555 1_555
C1 C6 1_555 1_555
C5 C6 1_555 1_555
C11 C12 1_555 1_555
C13 C14 1_555 1_555
C13 C18 1_555 1_555
C17 C18 1_555 1_555
C23 C24 1_555 1_555
C25 C26 1_555 1_555
C25 C30 1_555 1_555
C29 C30 1_555 1_555
C35 C36 1_555 1_555
C37 C38 1_555 1_555
C37 C42 1_555 1_555
C41 C42 1_555 1_555
C47 C48 1_555 1_555
C49 C54 1_555 1_555
C53 C54 1_555 1_555
C59 C60 1_555 1_555
C61 C66 1_555 1_555
C65 C66 1_555 1_555
C71 C72 1_555 1_555
C73 C74 1_555 1_555
C73 C78 1_555 1_555
C77 C78 1_555 1_555
C83 C84 1_555 1_555
C85 C86 1_555 1_555
C85 C90 1_555 1_555
C89 C90 1_555 1_555
C95 C96 1_555 1_555
C97 C98 1_555 1_555
C97 C102 1_555 1_555
C101 C102 1_555 1_555
C107 C108 1_555 1_555
C109 C110 1_555 1_555
C109 C114 1_555 1_555
C113 C114 1_555 1_555
C119 C120 1_555 1_555
C121 C122 1_555 1_555
C125 C126 1_555 1_555
C131 C132 1_555 1_555
C133 C134 1_555 1_555
C133 C138 1_555 1_555
C137 C138 1_555 1_555
C143 C144 1_555 1_555
C149 C150 1_555 1_555
C154 C157 1_555 1_555
C155 C156 1_555 1_555
C161 C164 1_555 1_555
C162 C163 1_555 1_555
C168 C171 1_555 1_555
C169 C170 1_555 1_555
C176 C177 1_555 1_555
C181 C184 1_555 1_555
C182 C183 1_555 1_555
C188 C191 1_555 1_555
C189 C190 1_555 1_555
C196 C197 1_555 1_555
C203 C204 1_555 1_555
C208 C211 1_555 1_555
C209 C210 1_555 1_555
C215 C218 1_555 1_555
C216 C217 1_555 1_555
C223 C224 1_555 1_555
C230 C231 1_555 1_555
C235 C238 1_555 1_555
C236 C237 1_555 1_555
C242 C245 1_555 1_555
C243 C244 1_555 1_555
C249 C252 1_555 1_555
C250 C251 1_555 1_555
Co8A Cl2A 1_555 1_555
Co8A O7A 1_555 1_555
Co9A Cl3A 1_555 1_555
Co9A O24A 1_555 1_555
Co11A Cl3A 1_555 1_555
Co11A O12A 1_555 1_555

#END
