
#######################################################################
#
#                 Cambridge Crystallographic Data Centre
#                                CCDC 
#
#######################################################################
#
# If this CIF has been generated from an entry in the Cambridge 
# Structural Database, then it will include bibliographic, chemical, 
# crystal, experimental, refinement or atomic coordinate data resulting 
# from the CCDC's data processing and validation procedures.
#
#######################################################################

data_WAWKEM
_symmetry_cell_setting           triclinic
_symmetry_space_group_name_H-M   'P -1'
_symmetry_Int_Tables_number      2
_space_group_name_Hall           '-P 1'
loop_
_symmetry_equiv_pos_site_id
_symmetry_equiv_pos_as_xyz
1 x,y,z
2 -x,-y,-z
_cell_length_a                   29.824(14)
_cell_length_b                   30.844(14)
_cell_length_c                   31.527(15)
_cell_angle_alpha                82.778(6)
_cell_angle_beta                 73.302(5)
_cell_angle_gamma                62.189(6)
_cell_volume                     24568.7
loop_
_atom_site_label
_atom_site_type_symbol
_atom_site_fract_x
_atom_site_fract_y
_atom_site_fract_z
Co1 Co -0.23083(9) 0.05288(9) 0.18121(8)
Co2 Co -0.17262(9) -0.06660(9) 0.17897(8)
Co3 Co -0.26934(9) -0.06574(9) 0.26106(8)
Co4 Co -0.32794(9) 0.05266(9) 0.26348(8)
Co5 Co 0.18363(9) 0.27896(9) 0.22506(8)
Co6 Co 0.06163(9) 0.33613(9) 0.21834(8)
Co7 Co 0.02631(10) 0.39753(9) 0.30910(9)
Co8 Co 0.14781(9) 0.34048(9) 0.31603(8)
Co9 Co 0.39502(9) -0.34108(9) 0.21270(8)
Co10 Co 0.45814(9) -0.28019(9) 0.21916(7)
Co11 Co -0.48095(9) 0.33867(9) 0.69013(8)
Co12 Co -0.41807(10) 0.39848(9) 0.69714(8)
Cl1 Cl -0.22603(16) -0.00571(15) 0.25095(14)
Cl2 Cl 0.09564(16) 0.30257(15) 0.28933(14)
Cl3 Cl 0.39459(17) -0.30429(15) 0.28427(14)
S1 S -0.2556(2) 0.09509(18) 0.10934(17)
S2 S -0.1574(2) -0.10847(18) 0.10493(17)
S3 S -0.32069(19) -0.10826(18) 0.24640(16)
S4 S -0.42120(18) 0.09526(17) 0.24873(15)
S5 S 0.25266(17) 0.29278(18) 0.15928(14)
S6 S 0.0457(2) 0.38635(19) 0.14803(18)
S7 S -0.0143(2) 0.4929(2) 0.30111(19)
S8 S 0.19176(19) 0.39663(17) 0.31421(16)
S9 S 0.4299(2) -0.39514(18) 0.14155(17)
S10 S 0.54080(18) -0.29493(19) 0.15259(15)
S11 S 0.57982(19) -0.39237(17) 0.30829(15)
S12 S 0.4717(2) -0.49351(19) 0.29498(18)
O1 O -0.2083(4) -0.0068(4) 0.1511(4)
O2 O -0.2376(4) -0.0777(3) 0.1963(3)
O3 O -0.3254(4) -0.0094(3) 0.2497(3)
O4 O -0.3087(4) 0.0640(3) 0.2007(3)
O5 O 0.1349(4) 0.3287(4) 0.1918(4)
O6 O 0.0375(4) 0.3998(4) 0.2445(4)
O7 O 0.0908(4) 0.4026(4) 0.3069(3)
O8 O 0.1825(4) 0.3338(3) 0.2541(3)
O9 O 0.4614(4) -0.3363(4) 0.1882(3)
O10 O 0.5116(4) -0.3285(4) 0.2486(3)
O11 O 0.4890(4) -0.4058(4) 0.2969(3)
O12 O 0.4333(4) -0.4065(4) 0.2353(4)
O13 O -0.1536(4) 0.0351(4) 0.1718(3)
O14 O -0.1115(4) -0.0497(4) 0.1697(4)
O15 O 0.1745(4) 0.2248(4) 0.2008(3)
O16 O 0.0870(4) 0.2664(4) 0.1973(4)
O17 O 0.3530(4) -0.2766(4) 0.1916(3)
O18 O 0.3985(4) -0.2300(3) 0.1955(3)
O19 O -0.2532(5) 0.1131(4) 0.2212(4)
O20 O -0.3149(5) 0.1092(4) 0.2782(4)
O21 O -0.0127(5) 0.3383(4) 0.2500(4)
O22 O -0.0336(4) 0.3863(4) 0.3133(4)
O23 O -0.4022(4) 0.3847(4) 0.6338(4)
O24 O -0.4413(5) 0.3424(4) 0.6252(4)
O25 O -0.2306(4) -0.2271(3) 0.7402(4)
O26 O -0.2003(5) -0.2731(5) 0.6709(4)
O27 O -0.4504(4) 0.2304(4) 0.7399(4)
O28 O -0.4675(4) 0.2675(4) 0.6787(4)
O29 O -0.2982(4) -0.0438(4) 0.3292(4)
O30 O -0.3396(4) 0.0353(4) 0.3295(4)
O31 O -0.1369(4) -0.1253(4) 0.2159(4)
O32 O -0.2053(5) -0.1237(4) 0.2746(4)
O33 O 0.3250(5) -0.3412(4) 0.2451(4)
O34 O 0.3398(5) -0.3800(4) 0.3091(4)
O35 O -0.1066(4) -0.3428(4) 0.6198(4)
O36 O -0.0189(5) -0.3834(4) 0.6261(4)
C1 C -0.2109(5) -0.0060(5) 0.1043(3)
C2 C -0.2357(4) 0.0382(4) 0.0839(4)
C3 C -0.2409(4) 0.0384(3) 0.0414(4)
H1 H -0.2579 0.0686 0.0275
C4 C -0.2213(5) -0.0056(5) 0.0193(3)
C5 C -0.1964(4) -0.0498(3) 0.0397(4)
H2 H -0.1830 -0.0799 0.0246
C6 C -0.1912(4) -0.0500(4) 0.0822(4)
C7 C -0.2324(8) -0.0052(8) -0.0246(5)
C8 C -0.2430(10) 0.0407(7) -0.0536(9)
H3 H -0.2532 0.0368 -0.0792
H4 H -0.2111 0.0451 -0.0638
H5 H -0.2714 0.0695 -0.0362
C9 C -0.1935(9) -0.0476(8) -0.0571(9)
H6 H -0.2067 -0.0441 -0.0831
H7 H -0.1894 -0.0788 -0.0426
H8 H -0.1594 -0.0472 -0.0664
C10 C -0.2841(8) -0.0084(9) -0.0180(9)
H9 H -0.2910 -0.0070 -0.0469
H10 H -0.3131 0.0191 0.0006
H11 H -0.2810 -0.0394 -0.0036
C11 C -0.2373(5) -0.1147(4) 0.1711(4)
C12 C -0.2036(4) -0.1313(4) 0.1294(4)
C13 C -0.2063(4) -0.1655(4) 0.1068(3)
H12 H -0.1832 -0.1769 0.0782
C14 C -0.2428(5) -0.1832(3) 0.1258(4)
C15 C -0.2765(4) -0.1665(4) 0.1675(4)
H13 H -0.3014 -0.1786 0.1806
C16 C -0.2738(4) -0.1323(4) 0.1902(3)
C17 C -0.2412(10) -0.2247(7) 0.1034(8)
C18 C -0.2852(11) -0.2390(10) 0.1270(9)
H14 H -0.2814 -0.2663 0.1110
H15 H -0.3194 -0.2108 0.1277
H16 H -0.2829 -0.2490 0.1574
C19 C -0.1962(11) -0.2748(9) 0.1083(10)
H17 H -0.1974 -0.2997 0.0927
H18 H -0.1998 -0.2831 0.1397
H19 H -0.1626 -0.2739 0.0955
C20 C -0.2533(12) -0.2141(10) 0.0578(9)
H20 H -0.2513 -0.2435 0.0469
H21 H -0.2276 -0.2051 0.0369
H22 H -0.2887 -0.1871 0.0606
C21 C -0.3762(4) -0.0079(4) 0.2451(4)
C22 C -0.3731(3) -0.0526(3) 0.2373(3)
C23 C -0.4127(4) -0.0540(3) 0.2234(3)
H23 H -0.4106 -0.0846 0.2180
C24 C -0.4552(3) -0.0105(4) 0.2173(3)
C25 C -0.4583(3) 0.0342(3) 0.2251(3)
H24 H -0.4874 0.0639 0.2209
C26 C -0.4188(4) 0.0356(3) 0.2391(3)
C27 C -0.4992(6) -0.0141(6) 0.2064(7)
C28 C -0.5517(10) 0.0167(8) 0.2391(7)
H25 H -0.5799 0.0137 0.2318
H26 H -0.5586 0.0512 0.2372
H27 H -0.5501 0.0051 0.2693
C29 C -0.5013(11) -0.0629(6) 0.2053(8)
H28 H -0.5339 -0.0565 0.1986
H29 H -0.5001 -0.0787 0.2342
H30 H -0.4712 -0.0845 0.1825
C30 C -0.5060(11) 0.0085(9) 0.1613(7)
H31 H -0.5355 0.0067 0.1551
H32 H -0.4738 -0.0095 0.1383
H33 H -0.5131 0.0429 0.1616
C31 C -0.3429(4) 0.0993(3) 0.1748(4)
C32 C -0.3964(5) 0.1163(4) 0.1943(3)
C33 C -0.4326(3) 0.1504(4) 0.1725(4)
H34 H -0.4692 0.1620 0.1858
C34 C -0.4154(4) 0.1676(3) 0.1313(4)
C35 C -0.3620(4) 0.1507(4) 0.1118(3)
H35 H -0.3502 0.1624 0.0836
C36 C -0.3257(3) 0.1165(4) 0.1336(4)
C37 C -0.4530(9) 0.2045(8) 0.1061(8)
C38 C -0.5115(10) 0.2198(11) 0.1268(9)
H36 H -0.5321 0.2448 0.1084
H37 H -0.5218 0.2332 0.1566
H38 H -0.5179 0.1911 0.1286
C39 C -0.4521(12) 0.2537(10) 0.1070(10)
H39 H -0.4757 0.2779 0.0901
H40 H -0.4163 0.2495 0.0938
H41 H -0.4638 0.2651 0.1377
C40 C -0.4351(12) 0.1878(10) 0.0576(9)
H42 H -0.4586 0.2127 0.0410
H43 H -0.4362 0.1567 0.0563
H44 H -0.3992 0.1832 0.0445
C41 C 0.1528(6) 0.3428(4) 0.1493(3)
C42 C 0.2054(5) 0.3308(4) 0.1299(4)
C43 C 0.2202(4) 0.3474(4) 0.0877(4)
H45 H 0.2561 0.3392 0.0744
C44 C 0.1826(5) 0.3761(4) 0.0650(3)
C45 C 0.1300(5) 0.3882(4) 0.0845(4)
H46 H 0.1043 0.4078 0.0689
C46 C 0.1152(4) 0.3715(4) 0.1266(4)
C47 C 0.1993(8) 0.3944(7) 0.0152(6)
C48 C 0.2105(10) 0.3588(8) -0.0206(9)
H47 H 0.2329 0.3253 -0.0129
H48 H 0.2284 0.3674 -0.0491
H49 H 0.1773 0.3610 -0.0226
C49 C 0.2507(9) 0.3982(9) 0.0060(9)
H50 H 0.2485 0.4176 0.0295
H51 H 0.2565 0.4141 -0.0226
H52 H 0.2800 0.3652 0.0051
C50 C 0.1618(9) 0.4442(7) -0.0002(9)
H53 H 0.1497 0.4694 0.0222
H54 H 0.1315 0.4420 -0.0042
H55 H 0.1803 0.4529 -0.0283
C51 C 0.0151(4) 0.4449(4) 0.2196(4)
C52 C 0.0159(4) 0.4425(3) 0.1756(4)
C53 C -0.0124(5) 0.4847(4) 0.1545(3)
H56 H -0.0119 0.4831 0.1244
C54 C -0.0417(4) 0.5292(3) 0.1772(4)
C55 C -0.0425(4) 0.5316(4) 0.2212(4)
H57 H -0.0625 0.5620 0.2368
C56 C -0.0141(5) 0.4894(5) 0.2424(3)
C57 C -0.0746(6) 0.5742(5) 0.1544(6)
C58 C -0.1307(8) 0.5963(10) 0.1860(7)
H58 H -0.1547 0.6234 0.1713
H59 H -0.1302 0.6085 0.2130
H60 H -0.1428 0.5710 0.1937
C59 C -0.0602(10) 0.6163(9) 0.1500(9)
H61 H -0.0824 0.6432 0.1338
H62 H -0.0233 0.6049 0.1337
H63 H -0.0658 0.6279 0.1795
C60 C -0.0885(10) 0.5740(9) 0.1106(7)
H64 H -0.1144 0.6070 0.1052
H65 H -0.1032 0.5510 0.1130
H66 H -0.0567 0.5640 0.0860
C61 C 0.0878(6) 0.4511(4) 0.3059(4)
C62 C 0.0420(5) 0.4940(6) 0.3058(4)
C63 C 0.0416(4) 0.5393(4) 0.3053(4)
H67 H 0.0103 0.5685 0.3052
C64 C 0.0871(5) 0.5417(4) 0.3049(4)
C65 C 0.1329(4) 0.4989(5) 0.3051(4)
H68 H 0.1640 0.5005 0.3048
C66 C 0.1333(5) 0.4536(4) 0.3056(4)
C67 C 0.0818(7) 0.5924(5) 0.3044(6)
C68 C 0.1302(8) 0.5976(10) 0.3031(9)
H69 H 0.1239 0.6315 0.2962
H70 H 0.1600 0.5755 0.2804
H71 H 0.1380 0.5890 0.3321
C69 C 0.0358(8) 0.6327(9) 0.3353(7)
H72 H 0.0418 0.6617 0.3328
H73 H 0.0326 0.6210 0.3659
H74 H 0.0033 0.6413 0.3271
C70 C 0.0713(10) 0.6100(10) 0.2587(6)
H75 H 0.0743 0.6405 0.2513
H76 H 0.0358 0.6158 0.2595
H77 H 0.0970 0.5849 0.2363
C71 C 0.2253(4) 0.3492(4) 0.2354(5)
C72 C 0.2322(4) 0.3787(4) 0.2603(3)
C73 C 0.2735(5) 0.3907(3) 0.2440(4)
H78 H 0.2782 0.4108 0.2610
C74 C 0.3079(4) 0.3731(4) 0.2027(4)
C75 C 0.3010(4) 0.3436(4) 0.1778(3)
H79 H 0.3246 0.3317 0.1495
C76 C 0.2597(5) 0.3317(4) 0.1941(4)
C77 C 0.3527(6) 0.3865(7) 0.1870(7)
C78 C 0.3969(10) 0.3568(8) 0.1470(7)
H80 H 0.4273 0.3626 0.1436
H81 H 0.3844 0.3671 0.1201
H82 H 0.4070 0.3218 0.1518
C79 C 0.3832(11) 0.3738(9) 0.2229(7)
H83 H 0.4157 0.3767 0.2103
H84 H 0.3916 0.3402 0.2329
H85 H 0.3615 0.3965 0.2480
C80 C 0.3428(11) 0.4397(6) 0.1749(8)
H86 H 0.3761 0.4416 0.1676
H87 H 0.3181 0.4614 0.2001
H88 H 0.3280 0.4498 0.1493
C81 C 0.4913(4) -0.3491(4) 0.1427(3)
C82 C 0.4807(4) -0.3765(4) 0.1187(4)
C83 C 0.5052(4) -0.3854(3) 0.0738(4)
H89 H 0.4979 -0.4041 0.0575
C84 C 0.5404(4) -0.3669(4) 0.0528(3)
C85 C 0.5511(4) -0.3395(4) 0.0767(4)
H90 H 0.5752 -0.3268 0.0624
C86 C 0.5265(4) -0.3306(3) 0.1216(4)
C87 C 0.5661(7) -0.3738(7) 0.0035(4)
C88 C 0.6257(8) -0.3955(9) -0.0089(9)
H91 H 0.6396 -0.4024 -0.0408
H92 H 0.6402 -0.4259 0.0074
H93 H 0.6358 -0.3720 -0.0013
C89 C 0.5489(10) -0.3249(7) -0.0225(9)
H94 H 0.5715 -0.3305 -0.0528
H95 H 0.5519 -0.3006 -0.0077
H96 H 0.5123 -0.3126 -0.0233
C90 C 0.5568(10) -0.4047(8) -0.0248(9)
H97 H 0.5794 -0.4081 -0.0550
H98 H 0.5200 -0.3884 -0.0257
H99 H 0.5652 -0.4372 -0.0117
C91 C 0.5667(3) -0.3455(4) 0.2284(4)
C92 C 0.5849(4) -0.3372(3) 0.1838(4)
C93 C 0.6375(5) -0.3643(4) 0.1620(3)
H100 H 0.6500 -0.3586 0.1316
C94 C 0.6718(3) -0.3996(4) 0.1848(4)
C95 C 0.6536(4) -0.4079(3) 0.2293(4)
H101 H 0.6770 -0.4320 0.2448
C96 C 0.6010(5) -0.3808(4) 0.2511(3)
C97 C 0.7285(5) -0.4267(7) 0.1590(6)
C98 C 0.7520(11) -0.3911(8) 0.1398(9)
H102 H 0.7882 -0.4096 0.1221
H103 H 0.7518 -0.3740 0.1641
H104 H 0.7311 -0.3672 0.1210
C99 C 0.7400(11) -0.4578(9) 0.1192(8)
H105 H 0.7768 -0.4693 0.1024
H106 H 0.7171 -0.4379 0.1000
H107 H 0.7334 -0.4861 0.1297
C100 C 0.7669(11) -0.4620(9) 0.1858(8)
H108 H 0.8027 -0.4762 0.1664
H109 H 0.7573 -0.4883 0.1978
H110 H 0.7652 -0.4440 0.2102
C101 C 0.5324(4) -0.4499(4) 0.3008(4)
C102 C 0.5767(6) -0.4500(4) 0.3069(4)
C103 C 0.6170(4) -0.4935(5) 0.3165(4)
H111 H 0.6473 -0.4935 0.3206
C104 C 0.6128(4) -0.5369(4) 0.3199(3)
C105 C 0.5685(6) -0.5368(4) 0.3137(4)
H112 H 0.5656 -0.5665 0.3160
C106 C 0.5282(4) -0.4934(6) 0.3042(4)
C107 C 0.6508(7) -0.5872(5) 0.3312(6)
C108 C 0.6727(10) -0.6289(9) 0.2984(7)
H113 H 0.6962 -0.6594 0.3102
H114 H 0.6922 -0.6214 0.2702
H115 H 0.6437 -0.6328 0.2936
C109 C 0.6983(10) -0.5853(10) 0.3390(9)
H116 H 0.7141 -0.6120 0.3586
H117 H 0.6869 -0.5538 0.3528
H118 H 0.7243 -0.5888 0.3106
C110 C 0.6319(10) -0.6090(10) 0.3751(6)
H119 H 0.6618 -0.6380 0.3820
H120 H 0.6056 -0.6183 0.3725
H121 H 0.6163 -0.5845 0.3988
C111 C 0.4568(4) -0.4513(4) 0.2142(4)
C112 C 0.4776(5) -0.4949(5) 0.2367(3)
C113 C 0.5045(4) -0.5394(4) 0.2139(4)
H122 H 0.5187 -0.5692 0.2293
C114 C 0.5105(4) -0.5403(3) 0.1686(4)
C115 C 0.4897(5) -0.4967(4) 0.1461(3)
H123 H 0.4939 -0.4973 0.1151
C116 C 0.4629(4) -0.4522(3) 0.1689(4)
C117 C 0.5425(8) -0.5869(5) 0.1414(6)
C118 C 0.5726(10) -0.6334(8) 0.1649(8)
H124 H 0.5897 -0.6614 0.1445
H125 H 0.5481 -0.6388 0.1908
H126 H 0.5993 -0.6300 0.1745
C119 C 0.5810(9) -0.5906(10) 0.0958(7)
H127 H 0.5944 -0.6228 0.0825
H128 H 0.6104 -0.5864 0.0993
H129 H 0.5628 -0.5649 0.0765
C120 C 0.5009(8) -0.5952(10) 0.1292(9)
H130 H 0.5180 -0.6260 0.1124
H131 H 0.4826 -0.5680 0.1111
H132 H 0.4756 -0.5971 0.1563
C121 C -0.1131(5) -0.0057(7) 0.1717(5)
C122 C -0.0611(4) -0.0077(6) 0.1706(4)
C123 C -0.0615(4) 0.0363(4) 0.1767(4)
H133 H -0.0927 0.0662 0.1786
C124 C -0.0161(6) 0.0366(4) 0.1799(4)
H134 H -0.0164 0.0667 0.1841
C125 C 0.0296(4) -0.0071(6) 0.1771(4)
C126 C 0.0300(4) -0.0511(4) 0.1710(4)
H135 H 0.0613 -0.0810 0.1691
C127 C -0.0154(6) -0.0514(4) 0.1678(4)
H136 H -0.0151 -0.0815 0.1636
C128 C 0.0811(4) -0.0068(5) 0.1726(4)
C129 C 0.0854(6) 0.0361(5) 0.1765(4)
H137 H 0.0547 0.0658 0.1760
C130 C 0.1284(6) 0.0418(4) 0.1812(4)
C131 C 0.1712(6) -0.0048(5) 0.1808(5)
H138 H 0.2022 -0.0049 0.1835
C132 C 0.1747(5) -0.0515(4) 0.1769(5)
C133 C 0.1268(5) -0.0489(5) 0.1750(5)
H139 H 0.1256 -0.0792 0.1754
C134 C 0.1289(6) 0.0898(4) 0.1844(4)
C135 C 0.0832(4) 0.1337(5) 0.1883(4)
H140 H 0.0511 0.1336 0.1895
C136 C 0.0846(4) 0.1778(4) 0.1903(4)
H141 H 0.0534 0.2079 0.1930
C137 C 0.1316(6) 0.1780(4) 0.1885(4)
C138 C 0.1773(4) 0.1340(5) 0.1846(4)
H142 H 0.2095 0.1341 0.1833
C139 C 0.1760(4) 0.0899(4) 0.1825(4)
H143 H 0.2072 0.0599 0.1799
C140 C 0.1284(7) 0.2262(4) 0.1966(5)
C141 C 0.2217(4) -0.0989(4) 0.1790(4)
C142 C 0.2691(6) -0.0977(4) 0.1731(4)
H144 H 0.2707 -0.0674 0.1679
C143 C 0.3141(4) -0.1409(5) 0.1747(4)
H145 H 0.3465 -0.1400 0.1707
C144 C 0.3117(4) -0.1852(4) 0.1823(4)
C145 C 0.2643(6) -0.1864(4) 0.1882(4)
H146 H 0.2627 -0.2167 0.1933
C146 C 0.2193(4) -0.1433(5) 0.1865(4)
H147 H 0.1869 -0.1441 0.1905
C147 C 0.3548(6) -0.2331(5) 0.1930(6)
C148 C -0.2766(8) 0.1190(6) 0.2632(7)
C149 C -0.2742(6) 0.1556(4) 0.2883(5)
C150 C -0.3074(5) 0.1745(5) 0.3296(5)
H148 H -0.3364 0.1676 0.3420
C151 C -0.2982(5) 0.2036(5) 0.3529(3)
H149 H -0.3209 0.2166 0.3812
C152 C -0.2558(6) 0.2137(4) 0.3349(5)
C153 C -0.2226(5) 0.1948(5) 0.2935(5)
H150 H -0.1936 0.2017 0.2812
C154 C -0.2318(5) 0.1657(5) 0.2702(3)
H151 H -0.2091 0.1528 0.2419
C155 C -0.2501(6) 0.2471(4) 0.3610(5)
C156 C -0.2119(5) 0.2642(5) 0.3446(5)
H152 H -0.1909 0.2552 0.3151
C157 C -0.2023(5) 0.2933(5) 0.3684(5)
C158 C -0.2337(6) 0.3061(5) 0.4119(5)
H153 H -0.2271 0.3247 0.4290
C159 C -0.2747(6) 0.2930(6) 0.4321(4)
C160 C -0.2779(6) 0.2616(5) 0.4052(5)
H154 H -0.3019 0.2486 0.4188
C161 C -0.1602(5) 0.3088(5) 0.3473(5)
C162 C -0.1220(6) 0.2862(4) 0.3088(5)
H155 H -0.1223 0.2605 0.2953
C163 C -0.0833(5) 0.3012(5) 0.2900(3)
H156 H -0.0572 0.2858 0.2637
C164 C -0.0828(5) 0.3388(5) 0.3097(5)
C165 C -0.1210(6) 0.3614(4) 0.3482(5)
H157 H -0.1206 0.3870 0.3617
C166 C -0.1597(5) 0.3464(5) 0.3670(3)
H158 H -0.1858 0.3618 0.3933
C167 C -0.0395(5) 0.3532(5) 0.2902(6)
C168 C -0.3080(5) 0.3106(5) 0.4780(3)
C169 C -0.3430(6) 0.2918(4) 0.4989(5)
H159 H -0.3454 0.2683 0.4840
C170 C -0.3746(5) 0.3075(5) 0.5414(5)
H160 H -0.3985 0.2947 0.5556
C171 C -0.3712(5) 0.3419(5) 0.5631(3)
C172 C -0.3362(6) 0.3607(4) 0.5423(5)
H161 H -0.3338 0.3843 0.5571
C173 C -0.3046(5) 0.3451(5) 0.4997(5)
H162 H -0.2806 0.3579 0.4855
C174 C -0.4047(7) 0.3593(7) 0.6089(4)
C175 C -0.1576(6) -0.1339(4) 0.2578(6)
C176 C -0.1162(5) -0.1643(4) 0.2809(5)
C177 C -0.0629(6) -0.1889(5) 0.2601(3)
H163 H -0.0508 -0.1869 0.2289
C178 C -0.0274(4) -0.2165(4) 0.2850(5)
H164 H 0.0090 -0.2333 0.2708
C179 C -0.0451(5) -0.2194(4) 0.3307(5)
C180 C -0.0984(6) -0.1948(5) 0.3514(3)
H165 H -0.1105 -0.1967 0.3826
C181 C -0.1340(4) -0.1672(4) 0.3265(5)
H166 H -0.1704 -0.1504 0.3407
C182 C -0.0061(5) -0.2485(5) 0.3560(5)
C183 C 0.0479(6) -0.2623(5) 0.3393(5)
H167 H 0.0595 -0.2517 0.3104
C184 C 0.0858(4) -0.2906(5) 0.3624(5)
C185 C 0.0660(6) -0.3041(6) 0.4052(5)
H168 H 0.0907 -0.3220 0.4220
C186 C 0.0138(6) -0.2941(6) 0.4258(4)
C187 C -0.0193(6) -0.2663(5) 0.3985(5)
H169 H -0.0553 -0.2584 0.4104
C188 C 0.1433(3) -0.3054(5) 0.3436(4)
C189 C 0.1613(5) -0.2847(4) 0.3050(4)
H170 H 0.1370 -0.2593 0.2909
C190 C 0.2149(6) -0.3010(5) 0.2869(3)
H171 H 0.2272 -0.2868 0.2605
C191 C 0.2505(3) -0.3381(5) 0.3075(4)
C192 C 0.2325(5) -0.3589(4) 0.3461(4)
H172 H 0.2568 -0.3842 0.3602
C193 C 0.1789(6) -0.3425(5) 0.3642(3)
H173 H 0.1665 -0.3567 0.3906
C194 C 0.3080(5) -0.3534(6) 0.2892(7)
C195 C -0.0024(7) -0.3101(5) 0.4718(3)
C196 C 0.0338(4) -0.3383(5) 0.4960(5)
H174 H 0.0700 -0.3473 0.4836
C197 C 0.0169(6) -0.3532(4) 0.5385(5)
H175 H 0.0415 -0.3725 0.5551
C198 C -0.0362(7) -0.3400(5) 0.5567(4)
C199 C -0.0723(4) -0.3119(5) 0.5325(5)
H176 H -0.1085 -0.3028 0.5449
C200 C -0.0554(6) -0.2969(4) 0.4900(5)
H177 H -0.0801 -0.2777 0.4735
C201 C -0.0513(8) -0.3559(7) 0.6024(4)
C202 C -0.2247(6) -0.2322(5) 0.6932(6)
C203 C -0.2576(5) -0.1851(4) 0.6734(5)
C204 C -0.2944(5) -0.1429(5) 0.6980(3)
H178 H -0.3039 -0.1441 0.7294
C205 C -0.3171(4) -0.0988(4) 0.6766(5)
H179 H -0.3422 -0.0700 0.6934
C206 C -0.3032(5) -0.0971(4) 0.6306(5)
C207 C -0.2665(5) -0.1393(5) 0.6060(3)
H180 H -0.2570 -0.1381 0.5746
C208 C -0.2437(4) -0.1833(4) 0.6274(5)
H181 H -0.2186 -0.2122 0.6106
C209 C -0.3245(5) -0.0498(4) 0.6077(5)
C210 C -0.3482(5) -0.0035(5) 0.6270(5)
H182 H -0.3493 -0.0028 0.6574
C211 C -0.3705(5) 0.0418(6) 0.6073(5)
C212 C -0.3694(6) 0.0403(6) 0.5627(5)
H183 H -0.3852 0.0704 0.5482
C213 C -0.3460(6) -0.0038(5) 0.5386(5)
C214 C -0.3246(6) -0.0462(6) 0.5629(5)
H184 H -0.3080 -0.0763 0.5472
C215 C -0.3929(6) 0.0882(6) 0.6317(6)
C216 C -0.4136(6) 0.0945(7) 0.6773(6)
H185 H -0.4153 0.0678 0.6951
C217 C -0.4321(6) 0.1400(6) 0.6972(7)
H186 H -0.4458 0.1422 0.7284
C218 C -0.4324(7) 0.1825(6) 0.6755(6)
C219 C -0.4106(7) 0.1749(7) 0.6295(6)
H187 H -0.4081 0.2014 0.6119
C220 C -0.3922(7) 0.1298(6) 0.6083(6)
H188 H -0.3789 0.1275 0.5770
C221 C -0.4484(6) 0.2300(6) 0.6961(6)
C222 C -0.3428(7) -0.0045(7) 0.4909(5)
C223 C -0.3089(6) -0.0474(7) 0.4656(6)
H189 H -0.2894 -0.0765 0.4797
C224 C -0.3029(7) -0.0487(7) 0.4200(6)
H190 H -0.2796 -0.0783 0.4036
C225 C -0.3313(7) -0.0063(7) 0.3986(6)
C226 C -0.3657(7) 0.0368(7) 0.4243(6)
H191 H -0.3854 0.0658 0.4102
C227 C -0.3716(7) 0.0380(7) 0.4700(6)
H192 H -0.3951 0.0674 0.4865
C228 C -0.3224(7) -0.0072(7) 0.3490(6)
Co5A Co -0.18363(9) -0.27896(9) 0.77494(8)
Co7A Co -0.02631(10) -0.39753(9) 0.69090(9)
Co8A Co -0.14781(9) -0.34048(9) 0.68397(8)
Co10A Co -0.45814(9) 0.28019(9) 0.78084(7)
Co11A Co 0.48095(9) -0.33867(9) 0.30987(8)
Co12A Co 0.41807(10) -0.39848(9) 0.30286(8)
Cl3A Cl -0.39459(17) 0.30429(15) 0.71573(14)
S11A S -0.57982(19) 0.39237(17) 0.69171(15)
S12A S -0.4717(2) 0.49351(19) 0.70502(18)
O10A O -0.5116(4) 0.3285(4) 0.7514(3)
O11A O -0.4890(4) 0.4058(4) 0.7031(3)
O12A O -0.4333(4) 0.4065(4) 0.7647(4)
O25A O 0.2306(4) 0.2271(3) 0.2598(4)
O26A O 0.2003(5) 0.2731(5) 0.3291(4)
O27A O 0.4504(4) -0.2304(4) 0.2601(4)
O34A O -0.3398(5) 0.3800(4) 0.6909(4)
O35A O 0.1066(4) 0.3428(4) 0.3802(4)
O36A O 0.0189(5) 0.3834(4) 0.3739(4)
loop_
_geom_bond_atom_site_label_1
_geom_bond_atom_site_label_2
_geom_bond_site_symmetry_1
_geom_bond_site_symmetry_2
Co1 Cl1 1_555 1_555
Co2 Cl1 1_555 1_555
Co3 Cl1 1_555 1_555
Co4 Cl1 1_555 1_555
Co5 Cl2 1_555 1_555
Co6 Cl2 1_555 1_555
Co7 Cl2 1_555 1_555
Co8 Cl2 1_555 1_555
Co9 Cl3 1_555 1_555
Co10 Cl3 1_555 1_555
Co11 O24 1_555 1_555
Co12 O23 1_555 1_555
Cl3 Co11A 1_555 1_555
S1 Co1 1_555 1_555
S2 Co2 1_555 1_555
S3 Co3 1_555 1_555
S4 Co4 1_555 1_555
S5 Co5 1_555 1_555
S6 Co6 1_555 1_555
S7 Co7 1_555 1_555
S8 Co8 1_555 1_555
S9 Co9 1_555 1_555
S10 Co10 1_555 1_555
S11 C96 1_555 1_555
S12 C106 1_555 1_555
O1 Co1 1_555 1_555
O2 Co2 1_555 1_555
O3 Co3 1_555 1_555
O4 Co1 1_555 1_555
O5 Co5 1_555 1_555
O6 Co6 1_555 1_555
O7 Co7 1_555 1_555
O8 Co5 1_555 1_555
O9 Co9 1_555 1_555
O10 Co10 1_555 1_555
O11 C101 1_555 1_555
O12 Co9 1_555 1_555
O13 Co1 1_555 1_555
O14 Co2 1_555 1_555
O15 Co5 1_555 1_555
O16 Co6 1_555 1_555
O17 Co9 1_555 1_555
O18 Co10 1_555 1_555
O19 Co1 1_555 1_555
O20 Co4 1_555 1_555
O21 Co6 1_555 1_555
O22 Co7 1_555 1_555
O23 C174 1_555 1_555
O24 C174 1_555 1_555
O25 C202 1_555 1_555
O26 C202 1_555 1_555
O27 C221 1_555 1_555
O28 Co11 1_555 1_555
O29 Co3 1_555 1_555
O30 Co4 1_555 1_555
O31 Co2 1_555 1_555
O32 Co3 1_555 1_555
O33 Co9 1_555 1_555
O34 C194 1_555 1_555
O35 C201 1_555 1_555
O36 C201 1_555 1_555
C1 O1 1_555 1_555
C2 S1 1_555 1_555
C3 C2 1_555 1_555
H1 C3 1_555 1_555
C4 C3 1_555 1_555
C5 C4 1_555 1_555
H2 C5 1_555 1_555
C6 S2 1_555 1_555
C7 C4 1_555 1_555
C8 C7 1_555 1_555
H3 C8 1_555 1_555
H4 C8 1_555 1_555
H5 C8 1_555 1_555
C9 C7 1_555 1_555
H6 C9 1_555 1_555
H7 C9 1_555 1_555
H8 C9 1_555 1_555
C10 C7 1_555 1_555
H9 C10 1_555 1_555
H10 C10 1_555 1_555
H11 C10 1_555 1_555
C11 O2 1_555 1_555
C12 S2 1_555 1_555
C13 C12 1_555 1_555
H12 C13 1_555 1_555
C14 C13 1_555 1_555
C15 C14 1_555 1_555
H13 C15 1_555 1_555
C16 S3 1_555 1_555
C17 C14 1_555 1_555
C18 C17 1_555 1_555
H14 C18 1_555 1_555
H15 C18 1_555 1_555
H16 C18 1_555 1_555
C19 C17 1_555 1_555
H17 C19 1_555 1_555
H18 C19 1_555 1_555
H19 C19 1_555 1_555
C20 C17 1_555 1_555
H20 C20 1_555 1_555
H21 C20 1_555 1_555
H22 C20 1_555 1_555
C21 O3 1_555 1_555
C22 S3 1_555 1_555
C23 C22 1_555 1_555
H23 C23 1_555 1_555
C24 C23 1_555 1_555
C25 C24 1_555 1_555
H24 C25 1_555 1_555
C26 S4 1_555 1_555
C27 C24 1_555 1_555
C28 C27 1_555 1_555
H25 C28 1_555 1_555
H26 C28 1_555 1_555
H27 C28 1_555 1_555
C29 C27 1_555 1_555
H28 C29 1_555 1_555
H29 C29 1_555 1_555
H30 C29 1_555 1_555
C30 C27 1_555 1_555
H31 C30 1_555 1_555
H32 C30 1_555 1_555
H33 C30 1_555 1_555
C31 O4 1_555 1_555
C32 S4 1_555 1_555
C33 C32 1_555 1_555
H34 C33 1_555 1_555
C34 C33 1_555 1_555
C35 C34 1_555 1_555
H35 C35 1_555 1_555
C36 S1 1_555 1_555
C37 C34 1_555 1_555
C38 C37 1_555 1_555
H36 C38 1_555 1_555
H37 C38 1_555 1_555
H38 C38 1_555 1_555
C39 C37 1_555 1_555
H39 C39 1_555 1_555
H40 C39 1_555 1_555
H41 C39 1_555 1_555
C40 C37 1_555 1_555
H42 C40 1_555 1_555
H43 C40 1_555 1_555
H44 C40 1_555 1_555
C41 O5 1_555 1_555
C42 S5 1_555 1_555
C43 C42 1_555 1_555
H45 C43 1_555 1_555
C44 C43 1_555 1_555
C45 C44 1_555 1_555
H46 C45 1_555 1_555
C46 S6 1_555 1_555
C47 C44 1_555 1_555
C48 C47 1_555 1_555
H47 C48 1_555 1_555
H48 C48 1_555 1_555
H49 C48 1_555 1_555
C49 C47 1_555 1_555
H50 C49 1_555 1_555
H51 C49 1_555 1_555
H52 C49 1_555 1_555
C50 C47 1_555 1_555
H53 C50 1_555 1_555
H54 C50 1_555 1_555
H55 C50 1_555 1_555
C51 O6 1_555 1_555
C52 S6 1_555 1_555
C53 C52 1_555 1_555
H56 C53 1_555 1_555
C54 C53 1_555 1_555
C55 C54 1_555 1_555
H57 C55 1_555 1_555
C56 S7 1_555 1_555
C57 C54 1_555 1_555
C58 C57 1_555 1_555
H58 C58 1_555 1_555
H59 C58 1_555 1_555
H60 C58 1_555 1_555
C59 C57 1_555 1_555
H61 C59 1_555 1_555
H62 C59 1_555 1_555
H63 C59 1_555 1_555
C60 C57 1_555 1_555
H64 C60 1_555 1_555
H65 C60 1_555 1_555
H66 C60 1_555 1_555
C61 O7 1_555 1_555
C62 S7 1_555 1_555
C63 C62 1_555 1_555
H67 C63 1_555 1_555
C64 C63 1_555 1_555
C65 C64 1_555 1_555
H68 C65 1_555 1_555
C66 S8 1_555 1_555
C67 C64 1_555 1_555
C68 C67 1_555 1_555
H69 C68 1_555 1_555
H70 C68 1_555 1_555
H71 C68 1_555 1_555
C69 C67 1_555 1_555
H72 C69 1_555 1_555
H73 C69 1_555 1_555
H74 C69 1_555 1_555
C70 C67 1_555 1_555
H75 C70 1_555 1_555
H76 C70 1_555 1_555
H77 C70 1_555 1_555
C71 O8 1_555 1_555
C72 S8 1_555 1_555
C73 C72 1_555 1_555
H78 C73 1_555 1_555
C74 C73 1_555 1_555
C75 C74 1_555 1_555
H79 C75 1_555 1_555
C76 S5 1_555 1_555
C77 C74 1_555 1_555
C78 C77 1_555 1_555
H80 C78 1_555 1_555
H81 C78 1_555 1_555
H82 C78 1_555 1_555
C79 C77 1_555 1_555
H83 C79 1_555 1_555
H84 C79 1_555 1_555
H85 C79 1_555 1_555
C80 C77 1_555 1_555
H86 C80 1_555 1_555
H87 C80 1_555 1_555
H88 C80 1_555 1_555
C81 O9 1_555 1_555
C82 S9 1_555 1_555
C83 C82 1_555 1_555
H89 C83 1_555 1_555
C84 C83 1_555 1_555
C85 C84 1_555 1_555
H90 C85 1_555 1_555
C86 S10 1_555 1_555
C87 C84 1_555 1_555
C88 C87 1_555 1_555
H91 C88 1_555 1_555
H92 C88 1_555 1_555
H93 C88 1_555 1_555
C89 C87 1_555 1_555
H94 C89 1_555 1_555
H95 C89 1_555 1_555
H96 C89 1_555 1_555
C90 C87 1_555 1_555
H97 C90 1_555 1_555
H98 C90 1_555 1_555
H99 C90 1_555 1_555
C91 O10 1_555 1_555
C92 S10 1_555 1_555
C93 C92 1_555 1_555
H100 C93 1_555 1_555
C94 C93 1_555 1_555
C95 C94 1_555 1_555
H101 C95 1_555 1_555
C96 C91 1_555 1_555
C97 C94 1_555 1_555
C98 C97 1_555 1_555
H102 C98 1_555 1_555
H103 C98 1_555 1_555
H104 C98 1_555 1_555
C99 C97 1_555 1_555
H105 C99 1_555 1_555
H106 C99 1_555 1_555
H107 C99 1_555 1_555
C100 C97 1_555 1_555
H108 C100 1_555 1_555
H109 C100 1_555 1_555
H110 C100 1_555 1_555
C101 C102 1_555 1_555
C102 S11 1_555 1_555
C103 C102 1_555 1_555
H111 C103 1_555 1_555
C104 C103 1_555 1_555
C105 C104 1_555 1_555
H112 C105 1_555 1_555
C106 C101 1_555 1_555
C107 C104 1_555 1_555
C108 C107 1_555 1_555
H113 C108 1_555 1_555
H114 C108 1_555 1_555
H115 C108 1_555 1_555
C109 C107 1_555 1_555
H116 C109 1_555 1_555
H117 C109 1_555 1_555
H118 C109 1_555 1_555
C110 C107 1_555 1_555
H119 C110 1_555 1_555
H120 C110 1_555 1_555
H121 C110 1_555 1_555
C111 O12 1_555 1_555
C112 S12 1_555 1_555
C113 C112 1_555 1_555
H122 C113 1_555 1_555
C114 C113 1_555 1_555
C115 C114 1_555 1_555
H123 C115 1_555 1_555
C116 S9 1_555 1_555
C117 C114 1_555 1_555
C118 C117 1_555 1_555
H124 C118 1_555 1_555
H125 C118 1_555 1_555
H126 C118 1_555 1_555
C119 C117 1_555 1_555
H127 C119 1_555 1_555
H128 C119 1_555 1_555
H129 C119 1_555 1_555
C120 C117 1_555 1_555
H130 C120 1_555 1_555
H131 C120 1_555 1_555
H132 C120 1_555 1_555
C121 O13 1_555 1_555
C122 C121 1_555 1_555
C123 C122 1_555 1_555
H133 C123 1_555 1_555
C124 C123 1_555 1_555
H134 C124 1_555 1_555
C125 C124 1_555 1_555
C126 C125 1_555 1_555
H135 C126 1_555 1_555
C127 C122 1_555 1_555
H136 C127 1_555 1_555
C128 C125 1_555 1_555
C129 C128 1_555 1_555
H137 C129 1_555 1_555
C130 C129 1_555 1_555
C131 C130 1_555 1_555
H138 C131 1_555 1_555
C132 C131 1_555 1_555
C133 C128 1_555 1_555
H139 C133 1_555 1_555
C134 C130 1_555 1_555
C135 C134 1_555 1_555
H140 C135 1_555 1_555
C136 C135 1_555 1_555
H141 C136 1_555 1_555
C137 C136 1_555 1_555
C138 C137 1_555 1_555
H142 C138 1_555 1_555
C139 C134 1_555 1_555
H143 C139 1_555 1_555
C140 O15 1_555 1_555
C141 C132 1_555 1_555
C142 C141 1_555 1_555
H144 C142 1_555 1_555
C143 C142 1_555 1_555
H145 C143 1_555 1_555
C144 C143 1_555 1_555
C145 C144 1_555 1_555
H146 C145 1_555 1_555
C146 C141 1_555 1_555
H147 C146 1_555 1_555
C147 O17 1_555 1_555
C148 O19 1_555 1_555
C149 C148 1_555 1_555
C150 C149 1_555 1_555
H148 C150 1_555 1_555
C151 C150 1_555 1_555
H149 C151 1_555 1_555
C152 C151 1_555 1_555
C153 C152 1_555 1_555
H150 C153 1_555 1_555
C154 C149 1_555 1_555
H151 C154 1_555 1_555
C155 C152 1_555 1_555
C156 C155 1_555 1_555
H152 C156 1_555 1_555
C157 C156 1_555 1_555
C158 C157 1_555 1_555
H153 C158 1_555 1_555
C159 C158 1_555 1_555
C160 C155 1_555 1_555
H154 C160 1_555 1_555
C161 C157 1_555 1_555
C162 C161 1_555 1_555
H155 C162 1_555 1_555
C163 C162 1_555 1_555
H156 C163 1_555 1_555
C164 C163 1_555 1_555
C165 C164 1_555 1_555
H157 C165 1_555 1_555
C166 C161 1_555 1_555
H158 C166 1_555 1_555
C167 O21 1_555 1_555
C168 C159 1_555 1_555
C169 C168 1_555 1_555
H159 C169 1_555 1_555
C170 C169 1_555 1_555
H160 C170 1_555 1_555
C171 C170 1_555 1_555
C172 C171 1_555 1_555
H161 C172 1_555 1_555
C173 C168 1_555 1_555
H162 C173 1_555 1_555
C174 C171 1_555 1_555
C175 O31 1_555 1_555
C176 C175 1_555 1_555
C177 C176 1_555 1_555
H163 C177 1_555 1_555
C178 C177 1_555 1_555
H164 C178 1_555 1_555
C179 C178 1_555 1_555
C180 C179 1_555 1_555
H165 C180 1_555 1_555
C181 C176 1_555 1_555
H166 C181 1_555 1_555
C182 C179 1_555 1_555
C183 C182 1_555 1_555
H167 C183 1_555 1_555
C184 C183 1_555 1_555
C185 C184 1_555 1_555
H168 C185 1_555 1_555
C186 C185 1_555 1_555
C187 C182 1_555 1_555
H169 C187 1_555 1_555
C188 C184 1_555 1_555
C189 C188 1_555 1_555
H170 C189 1_555 1_555
C190 C189 1_555 1_555
H171 C190 1_555 1_555
C191 C190 1_555 1_555
C192 C191 1_555 1_555
H172 C192 1_555 1_555
C193 C188 1_555 1_555
H173 C193 1_555 1_555
C194 O33 1_555 1_555
C195 C186 1_555 1_555
C196 C195 1_555 1_555
H174 C196 1_555 1_555
C197 C196 1_555 1_555
H175 C197 1_555 1_555
C198 C197 1_555 1_555
C199 C198 1_555 1_555
H176 C199 1_555 1_555
C200 C195 1_555 1_555
H177 C200 1_555 1_555
C201 C198 1_555 1_555
C202 C203 1_555 1_555
C203 C204 1_555 1_555
C204 H178 1_555 1_555
C205 C204 1_555 1_555
H179 C205 1_555 1_555
C206 C205 1_555 1_555
C207 C206 1_555 1_555
H180 C207 1_555 1_555
C208 C203 1_555 1_555
H181 C208 1_555 1_555
C209 C206 1_555 1_555
C210 C209 1_555 1_555
H182 C210 1_555 1_555
C211 C210 1_555 1_555
C212 C211 1_555 1_555
H183 C212 1_555 1_555
C213 C212 1_555 1_555
C214 C209 1_555 1_555
H184 C214 1_555 1_555
C215 C211 1_555 1_555
C216 C215 1_555 1_555
H185 C216 1_555 1_555
C217 C216 1_555 1_555
H186 C217 1_555 1_555
C218 C217 1_555 1_555
C219 C218 1_555 1_555
H187 C219 1_555 1_555
C220 C215 1_555 1_555
H188 C220 1_555 1_555
C221 O28 1_555 1_555
C222 C213 1_555 1_555
C223 C222 1_555 1_555
H189 C223 1_555 1_555
C224 C223 1_555 1_555
H190 C224 1_555 1_555
C225 C224 1_555 1_555
C226 C225 1_555 1_555
H191 C226 1_555 1_555
C227 C222 1_555 1_555
H192 C227 1_555 1_555
C228 O29 1_555 1_555
Co5A O25 1_555 1_555
Co7A O36 1_555 1_555
Co8A O26 1_555 1_555
Co10A O27 1_555 1_555
Co11A S11 1_555 1_555
Co12A Cl3 1_555 1_555
Cl3A Co11 1_555 1_555
S11A Co11 1_555 1_555
S12A Co12 1_555 1_555
O10A Co11 1_555 1_555
O11A Co11 1_555 1_555
O12A Co12 1_555 1_555
O25A Co5 1_555 1_555
O26A Co8 1_555 1_555
O27A Co10 1_555 1_555
O34A Co12 1_555 1_555
O35A Co8 1_555 1_555
O36A Co7 1_555 1_555
Co2 O1 1_555 1_555
Co3 O2 1_555 1_555
Co4 O3 1_555 1_555
Co4 O4 1_555 1_555
Co6 O5 1_555 1_555
Co7 O6 1_555 1_555
Co8 O7 1_555 1_555
Co8 O8 1_555 1_555
Co10 O9 1_555 1_555
Co12 Cl3A 1_555 1_555
Co12 O11A 1_555 1_555
S12 Co12A 1_555 1_555
O10 Co11A 1_555 1_555
O11 Co11A 1_555 1_555
O11 Co12A 1_555 1_555
O12 Co12A 1_555 1_555
O14 C121 1_555 1_555
O16 C140 1_555 1_555
O18 C147 1_555 1_555
O20 C148 1_555 1_555
O22 C167 1_555 1_555
O30 C228 1_555 1_555
O32 C175 1_555 1_555
O34 Co12A 1_555 1_555
O35 Co8A 1_555 1_555
C1 C2 1_555 1_555
C1 C6 1_555 1_555
C5 C6 1_555 1_555
C11 C12 1_555 1_555
C11 C16 1_555 1_555
C15 C16 1_555 1_555
C21 C22 1_555 1_555
C21 C26 1_555 1_555
C25 C26 1_555 1_555
C31 C32 1_555 1_555
C31 C36 1_555 1_555
C35 C36 1_555 1_555
C41 C42 1_555 1_555
C41 C46 1_555 1_555
C45 C46 1_555 1_555
C51 C52 1_555 1_555
C51 C56 1_555 1_555
C55 C56 1_555 1_555
C61 C62 1_555 1_555
C61 C66 1_555 1_555
C65 C66 1_555 1_555
C71 C72 1_555 1_555
C71 C76 1_555 1_555
C75 C76 1_555 1_555
C81 C82 1_555 1_555
C81 C86 1_555 1_555
C85 C86 1_555 1_555
C91 C92 1_555 1_555
C95 C96 1_555 1_555
C105 C106 1_555 1_555
C111 C112 1_555 1_555
C111 C116 1_555 1_555
C115 C116 1_555 1_555
C126 C127 1_555 1_555
C132 C133 1_555 1_555
C137 C140 1_555 1_555
C138 C139 1_555 1_555
C144 C147 1_555 1_555
C145 C146 1_555 1_555
C153 C154 1_555 1_555
C159 C160 1_555 1_555
C164 C167 1_555 1_555
C165 C166 1_555 1_555
C172 C173 1_555 1_555
C180 C181 1_555 1_555
C186 C187 1_555 1_555
C191 C194 1_555 1_555
C192 C193 1_555 1_555
C199 C200 1_555 1_555
C207 C208 1_555 1_555
C213 C214 1_555 1_555
C218 C221 1_555 1_555
C219 C220 1_555 1_555
C225 C228 1_555 1_555
C226 C227 1_555 1_555
Co10A Cl3A 1_555 1_555
Co10A O10A 1_555 1_555

#END
