
#######################################################################
#
#                 Cambridge Crystallographic Data Centre
#                                CCDC 
#
#######################################################################
#
# If this CIF has been generated from an entry in the Cambridge 
# Structural Database, then it will include bibliographic, chemical, 
# crystal, experimental, refinement or atomic coordinate data resulting 
# from the CCDC's data processing and validation procedures.
#
#######################################################################

data_WAWLAI
_symmetry_cell_setting           monoclinic
_symmetry_space_group_name_H-M   'P 21/c'
_symmetry_Int_Tables_number      14
_space_group_name_Hall           '-P 2ybc'
loop_
_symmetry_equiv_pos_site_id
_symmetry_equiv_pos_as_xyz
1 x,y,z
2 -x,1/2+y,1/2-z
3 -x,-y,-z
4 x,1/2-y,1/2+z
_cell_length_a                   11.086(2)
_cell_length_b                   21.846(5)
_cell_length_c                   7.2000(15)
_cell_angle_alpha                90
_cell_angle_beta                 105.615(4)
_cell_angle_gamma                90
_cell_volume                     1679.37
loop_
_atom_site_label
_atom_site_type_symbol
_atom_site_fract_x
_atom_site_fract_y
_atom_site_fract_z
Cd1 Cd 0.21821(3) 0.177844(17) 0.26774(6)
S1 S 0.18986(12) 0.28725(6) 0.40571(19)
S2 S 0.31287(12) 0.34086(6) 0.30477(19)
O1 O 0.3514(4) 0.38946(17) 0.4426(5)
O2 O 0.4185(3) 0.30215(16) 0.2916(5)
O3 O 0.2431(4) 0.36164(17) 0.1142(5)
O4 O 0.4331(3) 0.18414(17) 0.4073(6)
H1 H 0.448(6) 0.2190(13) 0.364(7)
H2 H 0.434(6) 0.185(2) 0.526(3)
N1 N 0.2092(4) 0.07311(19) 0.2503(5)
N2 N 0.0114(4) 0.1475(2) 0.2379(6)
C1 C 0.3067(5) 0.0371(2) 0.2626(7)
H3 H 0.3831 0.0553 0.2663
C2 C 0.3020(5) -0.0266(3) 0.2702(7)
C3 C 0.1899(5) -0.0546(2) 0.2658(7)
C4 C 0.0840(5) -0.0165(2) 0.2553(7)
C5 C -0.0355(6) -0.0407(3) 0.2514(8)
H4 H -0.0456 -0.0829 0.2562
C6 C -0.1349(5) -0.0037(3) 0.2408(7)
H5 H -0.2122 -0.0211 0.2363
C7 C -0.1243(5) 0.0613(2) 0.2365(7)
C8 C -0.2262(5) 0.1014(3) 0.2244(7)
C9 C -0.2052(5) 0.1637(3) 0.2193(8)
C10 C -0.0853(5) 0.1838(3) 0.2276(7)
H6 H -0.0720 0.2258 0.2257
C11 C -0.0073(4) 0.0864(2) 0.2415(6)
C12 C 0.0987(5) 0.0467(2) 0.2495(7)
C13 C 0.4222(6) -0.0624(3) 0.2882(9)
H7 H 0.4087 -0.0926 0.1877
H8 H 0.4465 -0.0824 0.4115
H9 H 0.4875 -0.0350 0.2768
C14 C 0.1794(6) -0.1227(2) 0.2718(8)
H10 H 0.2543 -0.1409 0.2541
H11 H 0.1086 -0.1359 0.1707
H12 H 0.1685 -0.1349 0.3943
C15 C -0.3525(5) 0.0760(3) 0.2205(9)
H13 H -0.4138 0.1081 0.1901
H14 H -0.3502 0.0591 0.3445
H15 H -0.3745 0.0445 0.1244
C16 C -0.3085(6) 0.2100(3) 0.2069(10)
H16 H -0.2755 0.2506 0.2062
H17 H -0.3418 0.2053 0.3161
H18 H -0.3739 0.2034 0.0904
Cd1C Cd 0.21821(3) 0.322156(17) 0.76774(6)
Cd1C_2 Cd 0.21821(3) 0.322156(17) -0.23226(6)
S1C S 0.18986(12) 0.21275(6) -0.09429(19)
O3C O 0.2431(4) 0.13836(17) 0.6142(5)
loop_
_geom_bond_atom_site_label_1
_geom_bond_atom_site_label_2
_geom_bond_site_symmetry_1
_geom_bond_site_symmetry_2
Cd1 S1 1_555 1_555
S1 S2 1_555 1_555
S2 O1 1_555 1_555
O2 S2 1_555 1_555
O3 S2 1_555 1_555
O4 Cd1 1_555 1_555
H1 O4 1_555 1_555
H2 O4 1_555 1_555
N1 Cd1 1_555 1_555
N2 Cd1 1_555 1_555
C1 N1 1_555 1_555
H3 C1 1_555 1_555
C2 C1 1_555 1_555
C3 C2 1_555 1_555
C4 C3 1_555 1_555
C5 C4 1_555 1_555
H4 C5 1_555 1_555
C6 C5 1_555 1_555
H5 C6 1_555 1_555
C7 C6 1_555 1_555
C8 C7 1_555 1_555
C9 C8 1_555 1_555
C10 N2 1_555 1_555
H6 C10 1_555 1_555
C11 N2 1_555 1_555
C12 N1 1_555 1_555
C13 C2 1_555 1_555
H7 C13 1_555 1_555
H8 C13 1_555 1_555
H9 C13 1_555 1_555
C14 C3 1_555 1_555
H10 C14 1_555 1_555
H11 C14 1_555 1_555
H12 C14 1_555 1_555
C15 C8 1_555 1_555
H13 C15 1_555 1_555
H14 C15 1_555 1_555
H15 C15 1_555 1_555
C16 C9 1_555 1_555
H16 C16 1_555 1_555
H17 C16 1_555 1_555
H18 C16 1_555 1_555
Cd1C S1 1_555 1_555
Cd1C_2 O3 1_555 1_555
S1C Cd1 1_555 1_555
O3C Cd1 1_555 1_555
C4 C12 1_555 1_555
C7 C11 1_555 1_555
C9 C10 1_555 1_555
C11 C12 1_555 1_555
Cd1C_2 S1C 1_555 1_555

#END
