
#######################################################################
#
#                 Cambridge Crystallographic Data Centre
#                                CCDC 
#
#######################################################################
#
# If this CIF has been generated from an entry in the Cambridge 
# Structural Database, then it will include bibliographic, chemical, 
# crystal, experimental, refinement or atomic coordinate data resulting 
# from the CCDC's data processing and validation procedures.
#
#######################################################################

data_WAWQOB
_symmetry_cell_setting           monoclinic
_symmetry_space_group_name_H-M   'C 2/c'
_symmetry_Int_Tables_number      15
_space_group_name_Hall           '-C 2yn'
loop_
_symmetry_equiv_pos_site_id
_symmetry_equiv_pos_as_xyz
1 x,y,z
2 1/2+x,1/2+y,z
3 -x,y,1/2-z
4 1/2-x,1/2+y,1/2-z
5 -x,-y,-z
6 1/2-x,1/2-y,-z
7 x,-y,1/2+z
8 1/2+x,1/2-y,1/2+z
_cell_length_a                   17.549(4)
_cell_length_b                   9.591(2)
_cell_length_c                   19.568(4)
_cell_angle_alpha                90
_cell_angle_beta                 98.420(4)
_cell_angle_gamma                90
_cell_volume                     3258.04
loop_
_atom_site_label
_atom_site_type_symbol
_atom_site_fract_x
_atom_site_fract_y
_atom_site_fract_z
C1 C -0.4410(5) -0.2699(8) 0.3808(4)
C2 C -0.4020(5) -0.2743(9) 0.4532(4)
C3 C -0.3970(6) -0.3978(9) 0.4905(5)
H1 H -0.4210 -0.4797 0.4702
C4 C -0.3577(6) -0.4024(11) 0.5565(5)
H2 H -0.3557 -0.4870 0.5819
C5 C -0.3212(6) -0.2859(12) 0.5861(5)
H3 H -0.2921 -0.2905 0.6310
C6 C -0.3271(7) -0.1623(12) 0.5499(6)
H4 H -0.3033 -0.0806 0.5705
C7 C -0.3676(7) -0.1565(10) 0.4839(5)
H5 H -0.3719 -0.0705 0.4596
C8 C -0.3626(4) -0.2679(7) 0.2150(4)
C9 C -0.2858(4) -0.2688(8) 0.1897(4)
C10 C -0.2467(5) -0.3912(8) 0.1829(5)
H6 H -0.2665 -0.4767 0.1974
C11 C -0.1781(5) -0.3904(9) 0.1547(5)
H7 H -0.1511 -0.4750 0.1504
C12 C -0.1500(5) -0.2670(10) 0.1334(4)
H8 H -0.1045 -0.2665 0.1123
C13 C -0.1878(6) -0.1426(9) 0.1426(5)
H9 H -0.1670 -0.0571 0.1293
C14 C -0.2548(5) -0.1421(8) 0.1706(5)
H10 H -0.2802 -0.0567 0.1770
C15 C -0.4610(5) -0.6953(7) 0.2089(4)
H11 H -0.4323 -0.6457 0.1793
C16 C -0.4612(5) -0.8405(8) 0.2080(4)
H12 H -0.4334 -0.8887 0.1772
N1 N -0.5000 -0.6264(9) 0.2500
N2 N -0.5000 -0.9126(9) 0.2500
O1 O -0.4573(4) -0.3876(5) 0.3519(3)
O2 O -0.4538(3) -0.1519(5) 0.3517(3)
O3 O -0.3919(3) -0.3867(5) 0.2246(3)
O4 O -0.3928(3) -0.1499(5) 0.2233(3)
Rh1 Rh -0.5000 -0.39354(8) 0.2500
Rh2 Rh -0.5000 -1.14423(8) 0.2500
C1B C -0.5590(5) -0.2699(8) 0.1192(4)
C2B C -0.5980(5) -0.2743(9) 0.0468(4)
C3B C -0.6030(6) -0.3978(9) 0.0095(5)
H1B H -0.5790 -0.4797 0.0298
C4B C -0.6423(6) -0.4024(11) -0.0565(5)
H2B H -0.6443 -0.4870 -0.0819
C5B C -0.6788(6) -0.2859(12) -0.0861(5)
H3B H -0.7079 -0.2905 -0.1310
C6B C -0.6729(7) -0.1623(12) -0.0499(6)
H4B H -0.6967 -0.0806 -0.0705
C7B C -0.6324(7) -0.1565(10) 0.0161(5)
H5B H -0.6281 -0.0705 0.0404
C8B C -0.6374(4) -0.2679(7) 0.2850(4)
C9B C -0.7142(4) -0.2688(8) 0.3103(4)
C10B C -0.7533(5) -0.3912(8) 0.3171(5)
H6B H -0.7335 -0.4767 0.3026
C11B C -0.8219(5) -0.3904(9) 0.3453(5)
H7B H -0.8489 -0.4750 0.3496
C12B C -0.8500(5) -0.2670(10) 0.3666(4)
H8B H -0.8955 -0.2665 0.3877
C13B C -0.8122(6) -0.1426(9) 0.3574(5)
H9B H -0.8330 -0.0571 0.3707
C14B C -0.7452(5) -0.1421(8) 0.3294(5)
H10B H -0.7198 -0.0567 0.3230
C15B C -0.5390(5) -0.6953(7) 0.2911(4)
H11B H -0.5677 -0.6457 0.3207
C16B C -0.5388(5) -0.8405(8) 0.2920(4)
H12B H -0.5666 -0.8887 0.3228
O1B O -0.5427(4) -0.3876(5) 0.1481(3)
O2_2 O -0.4538(3) -1.1519(5) 0.3517(3)
O2B O -0.5462(3) -1.1519(5) 0.1483(3)
O2B_2 O -0.5462(3) -0.1519(5) 0.1483(3)
O3B O -0.6081(3) -0.3867(5) 0.2754(3)
O4B O -0.6072(3) -1.1499(5) 0.2767(3)
O4_2 O -0.3928(3) -1.1499(5) 0.2233(3)
O4B_2 O -0.6072(3) -0.1499(5) 0.2767(3)
Rh1_2 Rh -0.5000 -1.39354(8) 0.2500
Rh2_2 Rh -0.5000 -0.14423(8) 0.2500
H13 H -0.5242 -0.1325 0.4773
H14 H -0.5232 -0.0667 0.4510
loop_
_geom_bond_atom_site_label_1
_geom_bond_atom_site_label_2
_geom_bond_site_symmetry_1
_geom_bond_site_symmetry_2
C1 C2 1_555 1_555
C2 C3 1_555 1_555
C3 H1 1_555 1_555
C4 C3 1_555 1_555
H2 C4 1_555 1_555
C5 C4 1_555 1_555
H3 C5 1_555 1_555
C6 C5 1_555 1_555
H4 C6 1_555 1_555
C7 C2 1_555 1_555
H5 C7 1_555 1_555
C8 C9 1_555 1_555
C9 C10 1_555 1_555
C10 H6 1_555 1_555
C11 C10 1_555 1_555
H7 C11 1_555 1_555
C12 C11 1_555 1_555
H8 C12 1_555 1_555
C13 C12 1_555 1_555
H9 C13 1_555 1_555
C14 C9 1_555 1_555
H10 C14 1_555 1_555
C15 H11 1_555 1_555
C16 C15 1_555 1_555
H12 C16 1_555 1_555
H13 H14 1_555 1_555
N1 C15 1_555 1_555
N2 C16 1_555 1_555
O1 C1 1_555 1_555
O2 C1 1_555 1_555
O3 C8 1_555 1_555
O4 C8 1_555 1_555
Rh1 N1 1_555 1_555
Rh2 N2 1_555 1_555
C1B C2B 1_555 1_555
C2B C3B 1_555 1_555
C3B H1B 1_555 1_555
C4B C3B 1_555 1_555
H2B C4B 1_555 1_555
C5B C4B 1_555 1_555
H3B C5B 1_555 1_555
C6B C5B 1_555 1_555
H4B C6B 1_555 1_555
C7B C2B 1_555 1_555
H5B C7B 1_555 1_555
C8B C9B 1_555 1_555
C9B C10B 1_555 1_555
C10B H6B 1_555 1_555
C11B C10B 1_555 1_555
H7B C11B 1_555 1_555
C12B C11B 1_555 1_555
H8B C12B 1_555 1_555
C13B C12B 1_555 1_555
H9B C13B 1_555 1_555
C14B C9B 1_555 1_555
H10B C14B 1_555 1_555
C15B N1 1_555 1_555
H11B C15B 1_555 1_555
C16B N2 1_555 1_555
H12B C16B 1_555 1_555
O1B Rh1 1_555 1_555
O2_2 Rh2 1_555 1_555
O2B Rh2 1_555 1_555
O2B_2 C1B 1_555 1_555
O3B Rh1 1_555 1_555
O4B Rh2 1_555 1_555
O4_2 Rh2 1_555 1_555
O4B_2 C8B 1_555 1_555
Rh1_2 Rh2 1_555 1_555
Rh2_2 O2 1_555 1_555
C6 C7 1_555 1_555
C13 C14 1_555 1_555
O1 Rh1 1_555 1_555
O3 Rh1 1_555 1_555
O4 Rh2_2 1_555 1_555
Rh1 Rh2_2 1_555 1_555
C1B O1B 1_555 1_555
C6B C7B 1_555 1_555
C8B O3B 1_555 1_555
C13B C14B 1_555 1_555
C15B C16B 1_555 1_555
O2B_2 Rh2_2 1_555 1_555
O4B_2 Rh2_2 1_555 1_555

#END
