
#######################################################################
#
#                 Cambridge Crystallographic Data Centre
#                                CCDC 
#
#######################################################################
#
# If this CIF has been generated from an entry in the Cambridge 
# Structural Database, then it will include bibliographic, chemical, 
# crystal, experimental, refinement or atomic coordinate data resulting 
# from the CCDC's data processing and validation procedures.
#
#######################################################################

data_WAWSUK
_symmetry_cell_setting           monoclinic
_symmetry_space_group_name_H-M   'P 21/n'
_symmetry_Int_Tables_number      14
_space_group_name_Hall           '-P 2yn'
loop_
_symmetry_equiv_pos_site_id
_symmetry_equiv_pos_as_xyz
1 x,y,z
2 1/2-x,1/2+y,1/2-z
3 -x,-y,-z
4 1/2+x,1/2-y,1/2+z
_cell_length_a                   15.574(3)
_cell_length_b                   16.197(3)
_cell_length_c                   16.928(3)
_cell_angle_alpha                90
_cell_angle_beta                 109.21(3)
_cell_angle_gamma                90
_cell_volume                     4032.36
loop_
_atom_site_label
_atom_site_type_symbol
_atom_site_fract_x
_atom_site_fract_y
_atom_site_fract_z
Cd1 Cd 0.70024(2) 0.676520(18) 0.505581(19)
Cd2 Cd 0.814615(18) 0.893103(16) 0.274573(16)
Cd3 Cd 0.725505(19) 1.128017(16) 0.256542(18)
Cd4 Cd 0.45311(2) 0.246180(17) 0.26867(2)
N1 N 0.6734(2) 1.0167(2) 0.3063(2)
N2 N 0.7095(2) 0.9416(2) 0.3294(2)
N3 N 0.5766(3) 0.6104(2) 0.0628(2)
H1 H 0.5679 0.5580 0.0630
N4 N 0.6396(2) 0.6513(2) 0.1233(2)
N5 N 0.5948(2) 0.4069(2) 0.3087(2)
N6 N 0.5357(2) 0.3572(2) 0.3277(2)
N7 N 0.8107(3) 0.7382(3) 0.6186(3)
N8 N 0.8290(3) 0.5933(3) 0.5474(2)
N9 N 0.3310(3) 0.1725(3) 0.1798(3)
N10 N 0.3649(3) 0.3339(3) 0.1620(3)
O1 O 0.4898(3) 1.1192(2) 0.3466(3)
O2 O 0.5762(2) 1.15871(19) 0.2730(2)
O3 O 0.7583(2) 0.7894(2) 0.4154(2)
O4 O 0.6296(3) 0.7898(2) 0.4440(2)
O5 O 0.6815(2) 0.86687(19) 0.1388(2)
O6 O 0.7517(2) 0.76534(18) 0.22098(19)
O7 O 0.4317(2) 0.5599(2) -0.0824(2)
O8 O 0.4318(2) 0.68431(19) -0.1353(2)
O9 O 0.6926(2) 0.53199(18) 0.2804(2)
O10 O 0.6607(2) 0.61416(19) 0.3723(2)
O11 O 0.3961(2) 0.2896(2) 0.3730(2)
O12 O 0.4013(3) 0.3952(2) 0.4581(2)
O13 O 0.6411(2) 1.16531(19) 0.12419(19)
H2 H 0.6180 1.2100 0.1344
H3 H 0.6762 1.1849 0.0995
C1 C 0.6030(3) 1.0268(2) 0.3354(2)
C2 C 0.5914(3) 0.9565(2) 0.3776(3)
H4 H 0.5480 0.9466 0.4033
C3 C 0.6603(3) 0.9042(2) 0.3723(2)
C4 C 0.5531(3) 1.1058(2) 0.3179(3)
C5 C 0.6859(3) 0.8219(2) 0.4123(3)
C6 C 0.6297(3) 0.7310(2) 0.1001(3)
C7 C 0.5609(3) 0.7398(3) 0.0236(3)
H5 H 0.5410 0.7884 -0.0061
C8 C 0.5285(3) 0.6616(3) 0.0014(3)
C9 C 0.6906(3) 0.7929(3) 0.1557(2)
C10 C 0.4586(3) 0.6318(3) -0.0769(3)
C11 C 0.5942(3) 0.4807(2) 0.3465(2)
C12 C 0.5329(3) 0.4788(3) 0.3909(3)
H6 H 0.5193 0.5207 0.4224
C13 C 0.4971(3) 0.3997(3) 0.3767(3)
C14 C 0.6528(3) 0.5474(2) 0.3337(2)
C15 C 0.4263(3) 0.3583(3) 0.4041(3)
C16 C 0.8900(4) 0.6989(4) 0.6507(3)
C17 C 0.9599(5) 0.7324(5) 0.7163(5)
H7 H 1.0153 0.7052 0.7375
C18 C 0.9458(6) 0.8076(5) 0.7500(5)
H8 H 0.9906 0.8300 0.7959
C19 C 0.8657(6) 0.8476(5) 0.7150(5)
H9 H 0.8560 0.8992 0.7348
C20 C 0.7987(5) 0.8108(4) 0.6495(4)
H10 H 0.7434 0.8378 0.6265
C21 C 0.8992(4) 0.6177(3) 0.6129(3)
C22 C 0.9771(4) 0.5694(4) 0.6432(4)
H11 H 1.0258 0.5874 0.6885
C23 C 0.9816(4) 0.4953(4) 0.6060(4)
H12 H 1.0328 0.4619 0.6265
C24 C 0.9106(5) 0.4709(4) 0.5388(4)
H13 H 0.9127 0.4211 0.5120
C25 C 0.8355(4) 0.5214(3) 0.5110(3)
H14 H 0.7870 0.5046 0.4649
C26 C 0.2722(4) 0.2132(5) 0.1159(4)
C27 C 0.1930(5) 0.1744(6) 0.0663(5)
H15 H 0.1512 0.2027 0.0226
C28 C 0.1773(6) 0.0925(6) 0.0831(5)
H16 H 0.1251 0.0657 0.0498
C29 C 0.2369(5) 0.0523(5) 0.1469(5)
H17 H 0.2269 -0.0023 0.1586
C30 C 0.3140(5) 0.0941(5) 0.1950(5)
H18 H 0.3555 0.0667 0.2396
C31 C 0.2942(4) 0.2994(4) 0.1022(4)
C32 C 0.2460(5) 0.3443(5) 0.0324(4)
H19 H 0.1978 0.3200 -0.0091
C33 C 0.2696(5) 0.4254(5) 0.0242(4)
H20 H 0.2382 0.4558 -0.0231
C34 C 0.3405(5) 0.4606(5) 0.0874(4)
H21 H 0.3564 0.5155 0.0843
C35 C 0.3869(4) 0.4128(4) 0.1545(4)
H22 H 0.4355 0.4359 0.1965
Cd1B Cd 0.29976(2) 0.323480(18) 0.494419(19)
Cd2A Cd 0.685385(18) 0.393103(16) 0.225427(16)
Cd2C Cd 0.314615(18) 0.606897(16) -0.225427(16)
Cd3A Cd 0.774495(19) 0.628017(16) 0.243458(18)
Cd4_2 Cd 0.45311(2) 1.246180(17) 0.26867(2)
N4A N 0.8604(2) 1.1513(2) 0.3767(2)
N5A N 0.9052(2) 0.9069(2) 0.1913(2)
O1_2 O 0.4898(3) 0.1192(2) 0.3466(3)
O2_2 O 0.5762(2) 0.15871(19) 0.2730(2)
O6A O 0.7483(2) 1.26534(18) 0.27902(19)
O7C O 0.9317(2) 0.9401(2) 0.4176(2)
O8C O 0.9318(2) 0.81569(19) 0.3647(2)
O9A O 0.8074(2) 1.03199(18) 0.2196(2)
O12B O 0.5987(3) 0.6048(2) 0.5419(2)
O14 O 0.4685(4) 0.8415(5) 0.4745(4)
H23 H 0.5156 0.8208 0.4675
H24 H 0.4802 0.8542 0.5256
O15 O 0.3652(7) 0.9955(8) 0.3855(7)
H25 H 0.3998 1.0299 0.3729
H26 H 0.3934 0.9522 0.4087
loop_
_geom_bond_atom_site_label_1
_geom_bond_atom_site_label_2
_geom_bond_site_symmetry_1
_geom_bond_site_symmetry_2
Cd1 N7 1_555 1_555
Cd2 N2 1_555 1_555
Cd3 N1 1_555 1_555
Cd4 N6 1_555 1_555
N1 N2 1_555 1_555
N2 C3 1_555 1_555
N3 H1 1_555 1_555
N4 N3 1_555 1_555
N5 N6 1_555 1_555
N6 C13 1_555 1_555
N7 C16 1_555 1_555
N8 Cd1 1_555 1_555
N9 Cd4 1_555 1_555
N10 Cd4 1_555 1_555
O1 C4 1_555 1_555
O2 Cd3 1_555 1_555
O3 Cd1 1_555 1_555
O4 Cd1 1_555 1_555
O5 Cd2 1_555 1_555
O6 Cd2 1_555 1_555
O7 C10 1_555 1_555
O8 C10 1_555 1_555
O9 C14 1_555 1_555
O10 Cd1 1_555 1_555
O11 Cd4 1_555 1_555
O12 C15 1_555 1_555
O13 Cd3 1_555 1_555
H2 O13 1_555 1_555
H3 O13 1_555 1_555
C1 N1 1_555 1_555
C2 C1 1_555 1_555
H4 C2 1_555 1_555
C3 C2 1_555 1_555
C4 O2 1_555 1_555
C5 O3 1_555 1_555
C6 N4 1_555 1_555
C7 C6 1_555 1_555
H5 C7 1_555 1_555
C8 N3 1_555 1_555
C9 O5 1_555 1_555
C10 C8 1_555 1_555
C11 N5 1_555 1_555
C12 C11 1_555 1_555
H6 C12 1_555 1_555
C13 C12 1_555 1_555
C14 O10 1_555 1_555
C15 O11 1_555 1_555
C16 C17 1_555 1_555
C17 H7 1_555 1_555
C18 C17 1_555 1_555
H8 C18 1_555 1_555
C19 C18 1_555 1_555
H9 C19 1_555 1_555
C20 N7 1_555 1_555
H10 C20 1_555 1_555
C21 N8 1_555 1_555
C22 C21 1_555 1_555
H11 C22 1_555 1_555
C23 C22 1_555 1_555
H12 C23 1_555 1_555
C24 C23 1_555 1_555
H13 C24 1_555 1_555
C25 N8 1_555 1_555
H14 C25 1_555 1_555
C26 N9 1_555 1_555
C27 C26 1_555 1_555
H15 C27 1_555 1_555
C28 C27 1_555 1_555
H16 C28 1_555 1_555
C29 C28 1_555 1_555
H17 C29 1_555 1_555
C30 N9 1_555 1_555
H18 C30 1_555 1_555
C31 N10 1_555 1_555
C32 C31 1_555 1_555
H19 C32 1_555 1_555
C33 C32 1_555 1_555
H20 C33 1_555 1_555
C34 C33 1_555 1_555
H21 C34 1_555 1_555
C35 N10 1_555 1_555
H22 C35 1_555 1_555
O14 H23 1_555 1_555
H24 O14 1_555 1_555
O15 H25 1_555 1_555
H26 O15 1_555 1_555
Cd1B O12 1_555 1_555
Cd2A N5 1_555 1_555
Cd2C O7 1_555 1_555
Cd3A N4 1_555 1_555
Cd4_2 O1 1_555 1_555
N4A Cd3 1_555 1_555
N5A Cd2 1_555 1_555
O1_2 Cd4 1_555 1_555
O2_2 Cd4 1_555 1_555
O6A Cd3 1_555 1_555
O7C Cd2 1_555 1_555
O8C Cd2 1_555 1_555
O9A Cd2 1_555 1_555
O12B Cd1 1_555 1_555
Cd3 O9A 1_555 1_555
O2 Cd4_2 1_555 1_555
O4 C5 1_555 1_555
O6 C9 1_555 1_555
O6 Cd3A 1_555 1_555
O8 Cd2C 1_555 1_555
O9 Cd2A 1_555 1_555
O9 Cd3A 1_555 1_555
C1 C4 1_555 1_555
C3 C5 1_555 1_555
C6 C9 1_555 1_555
C7 C8 1_555 1_555
C11 C14 1_555 1_555
C13 C15 1_555 1_555
C16 C21 1_555 1_555
C19 C20 1_555 1_555
C24 C25 1_555 1_555
C26 C31 1_555 1_555
C29 C30 1_555 1_555
C34 C35 1_555 1_555

#END
