
#######################################################################
#
#                 Cambridge Crystallographic Data Centre
#                                CCDC 
#
#######################################################################
#
# If this CIF has been generated from an entry in the Cambridge 
# Structural Database, then it will include bibliographic, chemical, 
# crystal, experimental, refinement or atomic coordinate data resulting 
# from the CCDC's data processing and validation procedures.
#
#######################################################################

data_WAXJAI
_symmetry_cell_setting           orthorhombic
_symmetry_space_group_name_H-M   'P n m a'
_symmetry_Int_Tables_number      62
_space_group_name_Hall           '-P 2ac 2n'
loop_
_symmetry_equiv_pos_site_id
_symmetry_equiv_pos_as_xyz
1 x,y,z
2 1/2-x,-y,1/2+z
3 1/2+x,1/2-y,1/2-z
4 -x,1/2+y,-z
5 -x,-y,-z
6 1/2+x,y,1/2-z
7 1/2-x,1/2+y,1/2+z
8 x,1/2-y,z
_cell_length_a                   7.451(5)
_cell_length_b                   14.268(5)
_cell_length_c                   17.001(5)
_cell_angle_alpha                90
_cell_angle_beta                 90
_cell_angle_gamma                90
_cell_volume                     1807.39
loop_
_atom_site_label
_atom_site_type_symbol
_atom_site_fract_x
_atom_site_fract_y
_atom_site_fract_z
Hg1 Hg 0.58464(7) 0.2500 0.50233(3)
Hg2 Hg 1.06015(8) 0.2500 0.30675(3)
Cl1 Cl 0.9038(5) 0.2500 0.4756(2)
Cl2 Cl 1.0435(4) 0.0888(2) 0.30484(15)
Cl3 Cl 0.4299(5) 0.2500 0.3628(2)
N1 N 0.4267(11) 0.3780(7) 0.5399(5)
N2 N 0.4674(11) 0.4350(6) 0.5999(5)
N3 N 0.6227(17) 0.2500 0.6563(7)
C1 C 0.3493(16) 0.5056(8) 0.6080(5)
H1 H 0.3516 0.5522 0.6462
C2 C 0.2259(14) 0.4956(7) 0.5497(6)
H2 H 0.1275 0.5337 0.5391
C3 C 0.6303(16) 0.4185(8) 0.6464(7)
H3 H 0.6521 0.4723 0.6799
H4 H 0.7320 0.4120 0.6112
C4 C 0.6011(15) 0.3342(9) 0.7776(7)
H5 H 0.5974 0.3907 0.8049
C5 C 0.6156(15) 0.3314(8) 0.6970(6)
C6 C 0.2796(14) 0.4158(8) 0.5093(5)
H6 H 0.2196 0.3916 0.4658
C7 C 0.5923(19) 0.2500 0.8159(8)
H7 H 0.5799 0.2500 0.8703
Hg2_2 Hg 0.06015(8) 0.2500 0.30675(3)
Hg2B Hg 0.56015(8) 0.2500 0.19325(3)
Cl2G Cl 1.0435(4) 0.4112(2) 0.30484(15)
Cl3_2 Cl 1.4299(5) 0.2500 0.3628(2)
Cl3B Cl 0.9299(5) 0.2500 0.1372(2)
N1G N 0.4267(11) 0.1220(7) 0.5399(5)
N2G N 0.4674(11) 0.0650(6) 0.5999(5)
C1G C 0.3493(16) -0.0056(8) 0.6080(5)
H1G H 0.3516 -0.0522 0.6462
C2G C 0.2259(14) 0.0044(7) 0.5497(6)
H2G H 0.1275 -0.0337 0.5391
C3G C 0.6303(16) 0.0815(8) 0.6464(7)
H3G H 0.6521 0.0277 0.6799
H4G H 0.7320 0.0880 0.6112
C4G C 0.6011(15) 0.1658(9) 0.7776(7)
H5G H 0.5974 0.1093 0.8049
C5G C 0.6156(15) 0.1686(8) 0.6970(6)
C6G C 0.2796(14) 0.0842(8) 0.5093(5)
H6G H 0.2196 0.1084 0.4658
loop_
_geom_bond_atom_site_label_1
_geom_bond_atom_site_label_2
_geom_bond_site_symmetry_1
_geom_bond_site_symmetry_2
Hg1 Cl1 1_555 1_555
Hg2 Cl1 1_555 1_555
Cl2 Hg2 1_555 1_555
Cl3 Hg1 1_555 1_555
N1 Hg1 1_555 1_555
N2 N1 1_555 1_555
N3 Hg1 1_555 1_555
C1 N2 1_555 1_555
H1 C1 1_555 1_555
C2 C1 1_555 1_555
H2 C2 1_555 1_555
C3 N2 1_555 1_555
H3 C3 1_555 1_555
H4 C3 1_555 1_555
C4 H5 1_555 1_555
C5 N3 1_555 1_555
C6 N1 1_555 1_555
H6 C6 1_555 1_555
C7 C4 1_555 1_555
H7 C7 1_555 1_555
Hg2_2 Cl3 1_555 1_555
Hg2B Cl3 1_555 1_555
Cl2G Hg2 1_555 1_555
Cl3_2 Hg2 1_555 1_555
Cl3B Hg2 1_555 1_555
N1G Hg1 1_555 1_555
N2G N1G 1_555 1_555
C1G N2G 1_555 1_555
H1G C1G 1_555 1_555
C2G C1G 1_555 1_555
H2G C2G 1_555 1_555
C3G N2G 1_555 1_555
H3G C3G 1_555 1_555
H4G C3G 1_555 1_555
C4G C7 1_555 1_555
H5G C4G 1_555 1_555
C5G N3 1_555 1_555
C6G N1G 1_555 1_555
H6G C6G 1_555 1_555
C2 C6 1_555 1_555
C3 C5 1_555 1_555
C4 C5 1_555 1_555
Hg2B Cl3B 1_555 1_555
C2G C6G 1_555 1_555
C3G C5G 1_555 1_555
C4G C5G 1_555 1_555

#END
