
#######################################################################
#
#                 Cambridge Crystallographic Data Centre
#                                CCDC 
#
#######################################################################
#
# If this CIF has been generated from an entry in the Cambridge 
# Structural Database, then it will include bibliographic, chemical, 
# crystal, experimental, refinement or atomic coordinate data resulting 
# from the CCDC's data processing and validation procedures.
#
#######################################################################

data_WAXRAO
_symmetry_cell_setting           monoclinic
_symmetry_space_group_name_H-M   'P 21/c'
_symmetry_Int_Tables_number      14
_space_group_name_Hall           '-P 2ybc'
loop_
_symmetry_equiv_pos_site_id
_symmetry_equiv_pos_as_xyz
1 x,y,z
2 -x,1/2+y,1/2-z
3 -x,-y,-z
4 x,1/2-y,1/2+z
_cell_length_a                   17.467(2)
_cell_length_b                   25.187(3)
_cell_length_c                   15.000(2)
_cell_angle_alpha                90
_cell_angle_beta                 102.59(1)
_cell_angle_gamma                90
_cell_volume                     6440.44
loop_
_atom_site_label
_atom_site_type_symbol
_atom_site_fract_x
_atom_site_fract_y
_atom_site_fract_z
Cd1 Cd 0.36227(5) 0.15974(3) 0.16230(5)
O1 O 0.4105(4) 0.1927(3) 0.3148(5)
O2 O 0.4707(4) 0.1271(3) 0.2657(5)
C1 C 0.4653(6) 0.1609(5) 0.3284(7)
C2 C 0.5232(6) 0.1574(5) 0.4166(7)
C3 C 0.6034(6) 0.1390(5) 0.4060(7)
C4 C 0.6640(8) 0.1754(5) 0.4261(8)
C5 C 0.7406(8) 0.1623(6) 0.4325(9)
C6 C 0.7580(8) 0.1084(6) 0.4243(9)
C7 C 0.6996(8) 0.0710(5) 0.4126(9)
C8 C 0.6229(6) 0.0856(5) 0.4039(7)
N1 N 0.5606(6) 0.0482(4) 0.3894(7)
C9 C 0.5722(7) -0.0072(5) 0.3962(9)
C10 C 0.5454(6) -0.0403(5) 0.3191(9)
C11 C 0.5567(8) -0.0921(5) 0.3270(10)
C12 C 0.5959(8) -0.1163(5) 0.4020(10)
C13 C 0.6251(8) -0.0851(6) 0.4770(10)
C14 C 0.6101(7) -0.0312(5) 0.4726(9)
Cl1 Cl 0.6370(3) 0.0058(2) 0.5741(3)
Cl2 Cl 0.4944(3) -0.0126(2) 0.2193(3)
O3 O 0.4876(5) 0.2108(4) -0.0481(6)
O4 O 0.4294(4) 0.1977(3) 0.0671(6)
C15 C 0.4838(7) 0.1897(5) 0.0300(8)
C16 C 0.5485(7) 0.1509(5) 0.0701(8)
C17 C 0.6331(6) 0.1688(5) 0.0732(8)
C18 C 0.6814(7) 0.1793(5) 0.1570(8)
C19 C 0.7580(8) 0.1936(6) 0.1683(9)
C20 C 0.7865(7) 0.1978(5) 0.0886(10)
C21 C 0.7418(7) 0.1866(5) 0.0052(8)
C22 C 0.6635(6) 0.1728(4) -0.0053(7)
N2 N 0.6153(5) 0.1614(4) -0.0915(6)
C23 C 0.6434(6) 0.1533(5) -0.1725(7)
C24 C 0.6929(7) 0.1121(5) -0.1799(8)
C25 C 0.7184(8) 0.1037(6) -0.2607(9)
C26 C 0.6899(8) 0.1335(6) -0.3342(9)
C27 C 0.6368(8) 0.1727(6) -0.3325(8)
C28 C 0.6127(7) 0.1824(5) -0.2496(8)
Cl3 Cl 0.7269(2) 0.0701(1) -0.0886(2)
Cl4 Cl 0.5426(2) 0.2302(1) -0.2492(2)
O5 O 0.2902(4) 0.2326(3) 0.1339(5)
O6 O 0.2734(6) 0.1207(4) 0.2317(6)
C29 C 0.2260(20) 0.0750(10) 0.2170(20)
C30 C 0.1690(20) 0.0630(10) 0.2400(20)
O7 O 0.3278(6) 0.1040(3) 0.0428(5)
C31 C 0.3390(10) 0.0485(5) 0.0390(10)
C32 C 0.4070(10) 0.0315(8) -0.0050(20)
Cd2 Cd 0.36813(4) 0.25716(3) 0.39907(5)
O8 O 0.2908(5) 0.3416(3) 0.3881(6)
O9 O 0.3187(5) 0.3040(4) 0.2691(5)
C33 C 0.2888(7) 0.3403(5) 0.3032(8)
C34 C 0.2440(7) 0.3822(5) 0.2415(7)
C35 C 0.2278(8) 0.4344(5) 0.2830(8)
C36 C 0.2718(8) 0.4799(5) 0.2693(9)
C37 C 0.2577(9) 0.5293(6) 0.3030(10)
C38 C 0.1982(9) 0.5325(6) 0.3528(9)
C39 C 0.1552(7) 0.4891(5) 0.3679(9)
C40 C 0.1698(7) 0.4394(5) 0.3334(8)
N3 N 0.1264(6) 0.3938(4) 0.3486(7)
C41 C 0.0623(7) 0.3948(5) 0.3909(9)
C42 C 0.0642(8) 0.3650(6) 0.4690(10)
C43 C 0.0000(10) 0.3662(7) 0.5090(10)
C44 C -0.0640(90) 0.3966(8) 0.4760(20)
C45 C -0.0670(10) 0.4255(7) 0.3980(10)
C46 C -0.0047(9) 0.4232(6) 0.3530(10)
Cl5 Cl -0.0160(3) 0.4562(2) 0.2525(3)
Cl6 Cl 0.1452(2) 0.3268(2) 0.5124(3)
O10 O 0.2989(5) 0.2166(3) 0.4824(5)
O11 O 0.2302(5) 0.1929(4) 0.3485(6)
C47 C 0.2398(7) 0.1960(5) 0.4346(9)
C48 C 0.1778(8) 0.1773(5) 0.4837(8)
C49 C 0.1088(8) 0.1455(6) 0.4302(9)
C50 C 0.0980(10) 0.0919(7) 0.4550(10)
C51 C 0.0330(10) 0.0639(7) 0.4120(10)
C52 C -0.0230(10) 0.0872(7) 0.3450(10)
C53 C -0.0123(9) 0.1395(6) 0.3210(10)
C54 C 0.0545(7) 0.1668(6) 0.3620(10)
N4 N 0.0654(6) 0.2202(5) 0.3378(7)
C55 C 0.0083(8) 0.2528(6) 0.2887(9)
C56 C 0.0169(9) 0.2789(6) 0.2080(10)
C57 C -0.0380(9) 0.3137(6) 0.1620(10)
C58 C -0.1030(9) 0.3241(7) 0.1900(10)
C59 C -0.1169(8) 0.3023(6) 0.2700(10)
C60 C -0.0618(8) 0.2675(6) 0.3160(10)
Cl7 Cl 0.1016(3) 0.2653(2) 0.1706(3)
Cl8 Cl -0.0757(2) 0.2420(2) 0.4198(3)
H1 H 0.502 0.133 0.455
H2 H 0.528 0.192 0.443
H3 H 0.651 0.212 0.429
H4 H 0.781 0.189 0.442
H5 H 0.811 0.097 0.427
H6 H 0.713 0.035 0.410
H7 H 0.508 0.061 0.374
H8 H 0.535 -0.114 0.275
H9 H 0.603 -0.154 0.404
H10 H 0.655 -0.101 0.532
H11 H 0.544 0.143 0.132
H12 H 0.539 0.119 0.034
H13 H 0.661 0.177 0.211
H14 H 0.791 0.201 0.223
H15 H 0.840 0.209 0.094
H16 H 0.765 0.188 -0.047
H17 H 0.560 0.159 -0.096
H18 H 0.756 0.077 -0.263
H19 H 0.707 0.127 -0.390
H20 H 0.616 0.193 -0.386
H21 H 0.262 0.047 0.241
H22 H 0.212 0.072 0.151
H23 H 0.153 0.028 0.217
H24 H 0.128 0.088 0.216
H25 H 0.178 0.063 0.305
H26 H 0.349 0.035 0.100
H27 H 0.292 0.033 0.004
H28 H 0.411 -0.007 -0.005
H29 H 0.456 0.046 0.030
H30 H 0.398 0.044 -0.067
H31 H 0.273 0.390 0.196
H32 H 0.194 0.367 0.213
H33 H 0.312 0.476 0.236
H34 H 0.287 0.560 0.293
H35 H 0.187 0.566 0.377
H36 H 0.115 0.493 0.402
H37 H 0.142 0.360 0.329
H38 H 0.001 0.345 0.563
H39 H -0.107 0.397 0.506
H40 H -0.112 0.447 0.375
H41 H 0.204 0.156 0.534
H42 H 0.157 0.208 0.507
H43 H 0.136 0.075 0.503
H44 H 0.028 0.027 0.428
H45 H -0.070 0.068 0.317
H46 H -0.051 0.157 0.275
H47 H 0.117 0.235 0.357
H48 H -0.029 0.331 0.108
H49 H -0.141 0.347 0.155
H50 H -0.163 0.311 0.291
Cd2C Cd 0.36813(4) 0.24284(3) -0.10093(5)
O3C O 0.4876(5) 0.2892(4) 0.4519(6)
loop_
_geom_bond_atom_site_label_1
_geom_bond_atom_site_label_2
_geom_bond_site_symmetry_1
_geom_bond_site_symmetry_2
Cd1 O1 1_555 1_555
O1 C1 1_555 1_555
O2 Cd1 1_555 1_555
C1 O2 1_555 1_555
C2 C1 1_555 1_555
C3 C2 1_555 1_555
C4 C3 1_555 1_555
C5 C4 1_555 1_555
C6 C5 1_555 1_555
C7 C6 1_555 1_555
C8 C3 1_555 1_555
N1 C8 1_555 1_555
C9 N1 1_555 1_555
C10 C9 1_555 1_555
C11 C10 1_555 1_555
C12 C11 1_555 1_555
C13 C12 1_555 1_555
C14 C9 1_555 1_555
Cl1 C14 1_555 1_555
Cl2 C10 1_555 1_555
O3 C15 1_555 1_555
O4 Cd1 1_555 1_555
C15 O4 1_555 1_555
C16 C15 1_555 1_555
C17 C16 1_555 1_555
C18 C17 1_555 1_555
C19 C18 1_555 1_555
C20 C19 1_555 1_555
C21 C20 1_555 1_555
C22 C17 1_555 1_555
N2 C22 1_555 1_555
C23 N2 1_555 1_555
C24 C23 1_555 1_555
C25 C24 1_555 1_555
C26 C25 1_555 1_555
C27 C26 1_555 1_555
C28 C23 1_555 1_555
Cl3 C24 1_555 1_555
Cl4 C28 1_555 1_555
O5 Cd1 1_555 1_555
O6 Cd1 1_555 1_555
C29 O6 1_555 1_555
C30 C29 1_555 1_555
O7 Cd1 1_555 1_555
C31 O7 1_555 1_555
C32 C31 1_555 1_555
Cd2 O1 1_555 1_555
O8 Cd2 1_555 1_555
O9 Cd2 1_555 1_555
C33 O8 1_555 1_555
C34 C33 1_555 1_555
C35 C34 1_555 1_555
C36 C35 1_555 1_555
C37 C36 1_555 1_555
C38 C37 1_555 1_555
C39 C38 1_555 1_555
C40 C35 1_555 1_555
N3 C40 1_555 1_555
C41 N3 1_555 1_555
C42 C41 1_555 1_555
C43 C42 1_555 1_555
C44 C43 1_555 1_555
C45 C44 1_555 1_555
C46 C41 1_555 1_555
Cl5 C46 1_555 1_555
Cl6 C42 1_555 1_555
O10 Cd2 1_555 1_555
O11 C47 1_555 1_555
C47 O10 1_555 1_555
C48 C47 1_555 1_555
C49 C48 1_555 1_555
C50 C49 1_555 1_555
C51 C50 1_555 1_555
C52 C51 1_555 1_555
C53 C52 1_555 1_555
C54 C49 1_555 1_555
N4 C54 1_555 1_555
C55 N4 1_555 1_555
C56 C55 1_555 1_555
C57 C56 1_555 1_555
C58 C57 1_555 1_555
C59 C58 1_555 1_555
C60 C55 1_555 1_555
Cl7 C56 1_555 1_555
Cl8 C60 1_555 1_555
H1 C2 1_555 1_555
H2 C2 1_555 1_555
H3 C4 1_555 1_555
H4 C5 1_555 1_555
H5 C6 1_555 1_555
H6 C7 1_555 1_555
H7 N1 1_555 1_555
H8 C11 1_555 1_555
H9 C12 1_555 1_555
H10 C13 1_555 1_555
H11 C16 1_555 1_555
H12 C16 1_555 1_555
H13 C18 1_555 1_555
H14 C19 1_555 1_555
H15 C20 1_555 1_555
H16 C21 1_555 1_555
H17 N2 1_555 1_555
H18 C25 1_555 1_555
H19 C26 1_555 1_555
H20 C27 1_555 1_555
H21 C29 1_555 1_555
H22 C29 1_555 1_555
H23 C30 1_555 1_555
H24 C30 1_555 1_555
H25 C30 1_555 1_555
H26 C31 1_555 1_555
H27 C31 1_555 1_555
H28 C32 1_555 1_555
H29 C32 1_555 1_555
H30 C32 1_555 1_555
H31 C34 1_555 1_555
H32 C34 1_555 1_555
H33 C36 1_555 1_555
H34 C37 1_555 1_555
H35 C38 1_555 1_555
H36 C39 1_555 1_555
H37 N3 1_555 1_555
H38 C43 1_555 1_555
H39 C44 1_555 1_555
H40 C45 1_555 1_555
H41 C48 1_555 1_555
H42 C48 1_555 1_555
H43 C50 1_555 1_555
H44 C51 1_555 1_555
H45 C52 1_555 1_555
H46 C53 1_555 1_555
H47 N4 1_555 1_555
H48 C57 1_555 1_555
H49 C58 1_555 1_555
H50 C59 1_555 1_555
Cd2C O3 1_555 1_555
O3C Cd2 1_555 1_555
C7 C8 1_555 1_555
C13 C14 1_555 1_555
C21 C22 1_555 1_555
C27 C28 1_555 1_555
O9 C33 1_555 1_555
C39 C40 1_555 1_555
C45 C46 1_555 1_555
C53 C54 1_555 1_555
C59 C60 1_555 1_555

#END
