
#######################################################################
#
#                 Cambridge Crystallographic Data Centre
#                                CCDC 
#
#######################################################################
#
# If this CIF has been generated from an entry in the Cambridge 
# Structural Database, then it will include bibliographic, chemical, 
# crystal, experimental, refinement or atomic coordinate data resulting 
# from the CCDC's data processing and validation procedures.
#
#######################################################################

data_WAXRAQ
_symmetry_cell_setting           monoclinic
_symmetry_space_group_name_H-M   'C 2/c'
_symmetry_Int_Tables_number      15
_space_group_name_Hall           '-C 2yn'
loop_
_symmetry_equiv_pos_site_id
_symmetry_equiv_pos_as_xyz
1 x,y,z
2 -x,y,1/2-z
3 1/2+x,1/2+y,z
4 1/2-x,1/2+y,1/2-z
5 -x,-y,-z
6 x,-y,1/2+z
7 1/2-x,1/2-y,-z
8 1/2+x,1/2-y,1/2+z
_cell_length_a                   29.111(6)
_cell_length_b                   26.407(5)
_cell_length_c                   25.128(8)
_cell_angle_alpha                90
_cell_angle_beta                 123.076(2)
_cell_angle_gamma                90
_cell_volume                     16186.4
loop_
_atom_site_label
_atom_site_type_symbol
_atom_site_fract_x
_atom_site_fract_y
_atom_site_fract_z
P1 P 0.27592(15) 0.47692(14) -0.07699(18)
W1 W 0.16399(3) 0.39527(3) -0.18244(3)
W2 W 0.28142(3) 0.38917(3) -0.18129(4)
W3 W 0.27080(3) 0.43084(3) 0.05291(3)
W4 W 0.26503(3) 0.56001(3) 0.02842(4)
W5 W 0.15552(3) 0.48516(3) -0.07379(4)
W6 W 0.15866(3) 0.53533(3) -0.20803(4)
W7 W 0.26864(3) 0.61115(3) -0.10666(4)
W8 W 0.27605(3) 0.52965(3) -0.20804(3)
W9 W 0.39388(3) 0.55326(3) 0.03042(3)
W10 W 0.39600(3) 0.42341(3) 0.05260(3)
W11 W 0.40059(3) 0.47261(3) -0.07192(3)
Ni1 Ni 0.27855(8) 0.35029(8) -0.05852(10)
Ni2 Ni 0.32921(9) 0.39030(8) 0.22011(11)
C1 C 0.3367(9) 0.2531(8) -0.0229(11)
H1 H 0.3595 0.2665 -0.0347
C2 C 0.3419(9) 0.2054(9) 0.0017(12)
H2 H 0.3672 0.1807 0.0081
C3 C 0.2731(7) 0.2467(8) -0.0044(9)
C4 C 0.2377(8) 0.3201(8) 0.2252(8)
H3 H 0.2233 0.3424 0.2412
C5 C 0.2227(8) 0.2708(8) 0.2099(9)
H4 H 0.1958 0.2535 0.2119
C6 C 0.2874(8) 0.2896(7) 0.1935(9)
C7 C 0.3310(8) 0.2897(7) 0.1809(9)
C8 C 0.3872(9) 0.2736(9) 0.1516(10)
H5 H 0.4057 0.2581 0.1354
C9 C 0.3943(8) 0.3207(7) 0.1737(9)
H6 H 0.4198 0.3432 0.1759
C10 C 0.4012(8) 0.4817(8) 0.2141(10)
H7 H 0.3809 0.4900 0.1711
C11 C 0.4466(9) 0.5049(7) 0.2575(10)
H8 H 0.4632 0.5320 0.2507
C12 C 0.4283(7) 0.4449(6) 0.3001(9)
C13 C 0.4242(7) 0.4108(7) 0.3423(8)
C14 C 0.4322(8) 0.3669(8) 0.4224(11)
H9 H 0.4442 0.3549 0.4628
C15 C 0.3874(8) 0.3519(7) 0.3666(10)
H10 H 0.3633 0.3267 0.3624
N1 N 0.2921(6) 0.2790(5) -0.0279(7)
N2 N 0.3018(7) 0.2020(7) 0.0150(8)
H29 H 0.2959 0.1768 0.0322
N3 N 0.2770(6) 0.3321(6) 0.2135(7)
N4 N 0.3591(6) 0.3320(5) 0.1932(7)
N5 N 0.3468(7) 0.2521(6) 0.1575(7)
H30 H 0.3344 0.2217 0.1483
N6 N 0.2552(7) 0.2519(6) 0.1912(9)
H31 H 0.2552 0.2212 0.1799
N7 N 0.3881(6) 0.4441(6) 0.2406(7)
N8 N 0.3823(6) 0.3787(6) 0.3172(7)
N9 N 0.4565(6) 0.4045(6) 0.4061(8)
H32 H 0.4863 0.4206 0.4319
N10 N 0.4649(7) 0.4815(6) 0.3146(8)
H33 H 0.4934 0.4888 0.3513
O1 O 0.1012(6) 0.3710(5) -0.2359(6)
O2 O 0.2911(5) 0.3586(5) -0.2350(6)
O3 O 0.2784(5) 0.4048(5) 0.1199(6)
O4 O 0.2678(5) 0.6087(5) 0.0745(6)
O5 O 0.0909(5) 0.4883(5) -0.0882(6)
O6 O 0.0950(5) 0.5549(5) -0.2682(6)
O7 O 0.2717(6) 0.6760(5) -0.1054(6)
O8 O 0.2856(5) 0.4521(5) 0.2330(5)
O9 O 0.4396(5) 0.5985(5) 0.0768(6)
O10 O 0.4500(5) 0.3929(5) 0.1183(6)
O11 O 0.4514(5) 0.4682(5) -0.0856(6)
O12 O 0.1515(5) 0.4297(5) -0.1226(6)
O13 O 0.1551(5) 0.4663(4) -0.2154(6)
O14 O 0.2038(5) 0.3832(5) -0.2226(6)
O15 O 0.1973(5) 0.3431(5) -0.1280(5)
O16 O 0.2660(5) 0.4598(4) -0.2166(5)
O17 O 0.3529(5) 0.4187(4) -0.1225(6)
O18 O 0.2936(5) 0.3378(4) -0.1275(5)
O19 O 0.1936(5) 0.4467(4) 0.0027(6)
O20 O 0.2618(5) 0.3782(4) 0.0033(6)
O21 O 0.3452(4) 0.4384(4) 0.0755(5)
O22 O 0.2773(5) 0.5035(4) 0.0782(5)
O23 O 0.1889(5) 0.5444(4) -0.0188(6)
O24 O 0.1486(5) 0.5280(4) -0.1388(6)
O25 O 0.3384(5) 0.5566(5) 0.0509(6)
O26 O 0.2514(5) 0.5960(4) -0.0445(5)
O27 O 0.1925(5) 0.5997(4) -0.1692(5)
O28 O 0.1990(5) 0.5394(5) -0.2490(5)
O29 O 0.3402(5) 0.5913(5) -0.0442(6)
O30 O 0.2829(4) 0.5940(4) -0.1702(5)
O31 O 0.3483(5) 0.5166(4) -0.1393(5)
O32 O 0.4239(4) 0.4954(4) 0.0807(5)
O33 O 0.4231(5) 0.5299(4) -0.0172(5)
O34 O 0.3565(5) 0.3732(4) 0.0013(6)
O35 O 0.4301(4) 0.4329(4) 0.0038(5)
O36 O 0.2583(4) 0.4251(4) -0.1097(5)
O37 O 0.2523(5) 0.4849(4) -0.0365(5)
O38 O 0.2552(5) 0.5189(5) -0.1267(5)
O39 O 0.3391(4) 0.4800(4) -0.0349(5)
P1E P 0.27592(15) 0.52308(14) 0.42301(18)
W1E W 0.16399(3) 0.60473(3) 0.31756(3)
W2E W 0.28142(3) 0.61083(3) 0.31871(4)
W3E W 0.27080(3) 0.56916(3) 0.55291(3)
W4E W 0.26503(3) 0.43999(3) 0.52842(4)
W5E W 0.15552(3) 0.51484(3) 0.42621(4)
W6E W 0.15866(3) 0.46467(3) 0.29197(4)
W7E W 0.26864(3) 0.38885(3) 0.39334(4)
W8E W 0.27605(3) 0.47035(3) 0.29196(3)
W9E W 0.39388(3) 0.44674(3) 0.53042(3)
W10E W 0.39600(3) 0.57659(3) 0.55260(3)
W11E W 0.40059(3) 0.52739(3) 0.42808(3)
Ni1F Ni 0.22145(8) 0.14971(8) 0.05852(10)
Ni1E Ni 0.27855(8) 0.64971(8) 0.44148(10)
Ni2E Ni 0.32921(9) 0.60970(8) -0.27989(11)
Ni2E_2 Ni 0.32921(9) 0.60970(8) 0.72011(11)
C1F C 0.1633(9) 0.2469(8) 0.0229(11)
H1F H 0.1405 0.2335 0.0347
C2F C 0.1581(9) 0.2946(9) -0.0017(12)
H2F H 0.1328 0.3193 -0.0081
C3F C 0.2269(7) 0.2533(8) 0.0044(9)
C4E C 0.2377(8) 0.6799(8) -0.2748(8)
H3E H 0.2233 0.6576 -0.2588
C5E C 0.2227(8) 0.7292(8) -0.2901(9)
H4E H 0.1958 0.7465 -0.2881
C6E C 0.2874(8) 0.7104(7) -0.3065(9)
C7E C 0.3310(8) 0.7103(7) -0.3191(9)
C8E C 0.3872(9) 0.7264(9) -0.3484(10)
H5E H 0.4057 0.7419 -0.3646
C9E C 0.3943(8) 0.6793(7) -0.3263(9)
H6E H 0.4198 0.6568 -0.3241
C10E C 0.4012(8) 0.5183(8) -0.2859(10)
H7E H 0.3809 0.5100 -0.3289
C11E C 0.4466(9) 0.4951(7) -0.2425(10)
H8E H 0.4632 0.4680 -0.2493
C12E C 0.4283(7) 0.5551(6) -0.1999(9)
C13E C 0.4242(7) 0.5892(7) -0.1577(8)
C14E C 0.4322(8) 0.6331(8) -0.0776(11)
H9E H 0.4442 0.6451 -0.0372
C15E C 0.3874(8) 0.6481(7) -0.1334(10)
H10E H 0.3633 0.6733 -0.1376
N1F N 0.2079(6) 0.2210(5) 0.0279(7)
N2F N 0.1982(7) 0.2980(7) -0.0150(8)
H29F H 0.2041 0.3232 -0.0322
N3E N 0.2770(6) 0.6679(6) -0.2865(7)
N4E N 0.3591(6) 0.6680(5) -0.3068(7)
N5E N 0.3468(7) 0.7479(6) -0.3425(7)
H30E H 0.3344 0.7783 -0.3517
N6E N 0.2552(7) 0.7481(6) -0.3088(9)
H31E H 0.2552 0.7788 -0.3201
N7E N 0.3881(6) 0.5559(6) -0.2594(7)
N8E N 0.3823(6) 0.6213(6) -0.1828(7)
N9E N 0.4565(6) 0.5955(6) -0.0939(8)
H32E H 0.4863 0.5794 -0.0681
N10E N 0.4649(7) 0.5185(6) -0.1854(8)
H33E H 0.4934 0.5112 -0.1487
O1E O 0.1012(6) 0.6290(5) 0.2641(6)
O2E O 0.2911(5) 0.6414(5) 0.2650(6)
O3E O 0.2784(5) 0.5952(5) -0.3801(6)
O3E_2 O 0.2784(5) 0.5952(5) 0.6199(6)
O4E O 0.2678(5) 0.3913(5) 0.5745(6)
O5E O 0.0909(5) 0.5117(5) 0.4118(6)
O6E O 0.0950(5) 0.4451(5) 0.2318(6)
O7E O 0.2717(6) 0.3240(5) 0.3946(6)
O8E O 0.2856(5) 0.5479(5) -0.2670(5)
O9E O 0.4396(5) 0.4015(5) 0.5768(6)
O10E O 0.4500(5) 0.6071(5) 0.6183(6)
O11E O 0.4514(5) 0.5318(5) 0.4144(6)
O12E O 0.1515(5) 0.5703(5) 0.3774(6)
O13E O 0.1551(5) 0.5337(4) 0.2846(6)
O14E O 0.2038(5) 0.6168(5) 0.2774(6)
O15E O 0.1973(5) 0.6569(5) 0.3720(5)
O15F O 0.3027(5) 0.1569(5) 0.1280(5)
O16E O 0.2660(5) 0.5402(4) 0.2834(5)
O17E O 0.3529(5) 0.5813(4) 0.3775(6)
O18E O 0.2936(5) 0.6622(4) 0.3725(5)
O18F O 0.2064(5) 0.1622(4) 0.1275(5)
O19E O 0.1936(5) 0.5533(4) 0.5027(6)
O20E O 0.2618(5) 0.6218(4) 0.5033(6)
O20F O 0.2382(5) 0.1218(4) -0.0033(6)
O21E O 0.3452(4) 0.5616(4) 0.5755(5)
O22E O 0.2773(5) 0.4965(4) 0.5782(5)
O23E O 0.1889(5) 0.4556(4) 0.4812(6)
O24E O 0.1486(5) 0.4720(4) 0.3612(6)
O25E O 0.3384(5) 0.4434(5) 0.5509(6)
O26E O 0.2514(5) 0.4040(4) 0.4555(5)
O27E O 0.1925(5) 0.4003(4) 0.3308(5)
O28E O 0.1990(5) 0.4606(5) 0.2510(5)
O29E O 0.3402(5) 0.4087(5) 0.4558(6)
O30E O 0.2829(4) 0.4060(4) 0.3298(5)
O31E O 0.3483(5) 0.4834(4) 0.3607(5)
O32E O 0.4239(4) 0.5046(4) 0.5807(5)
O33E O 0.4231(5) 0.4701(4) 0.4828(5)
O34E O 0.3565(5) 0.6268(4) 0.5013(6)
O34F O 0.1435(5) 0.1268(4) -0.0013(6)
O35E O 0.4301(4) 0.5671(4) 0.5038(5)
O36E O 0.2583(4) 0.5749(4) 0.3903(5)
O36F O 0.2417(4) 0.0749(4) 0.1097(5)
O37E O 0.2523(5) 0.5151(4) 0.4635(5)
O38E O 0.2552(5) 0.4811(5) 0.3733(5)
O39E O 0.3391(4) 0.5200(4) 0.4651(5)
Ni3 Ni 0.01542(11) 0.31952(10) 0.52205(12)
C25 C 0.0275(9) 0.2785(9) 0.6533(10)
H17 H 0.0450 0.3060 0.6802
C26 C 0.0172(9) 0.2367(9) 0.6710(11)
H18 H 0.0256 0.2288 0.7115
C27 C -0.0114(8) 0.2347(8) 0.5708(10)
C28 C -0.0321(8) 0.2191(7) 0.5065(9)
C29 C -0.0450(9) 0.2291(9) 0.4134(11)
H19 H -0.0426 0.2417 0.3804
C30 C -0.0737(9) 0.1856(10) 0.4105(11)
H20 H -0.0954 0.1645 0.3760
C31 C 0.0086(11) 0.3787(9) 0.4039(11)
H21 H -0.0287 0.3853 0.3778
C32 C 0.0468(12) 0.3969(11) 0.3937(13)
H22 H 0.0410 0.4159 0.3594
C33 C 0.0850(11) 0.3518(9) 0.4799(13)
C34 C 0.1220(10) 0.3267(10) 0.5417(13)
C35 C 0.1902(13) 0.3032(13) 0.6308(16)
H23 H 0.2254 0.2966 0.6653
C36 C 0.1443(10) 0.2891(10) 0.6266(11)
H24 H 0.1424 0.2712 0.6572
C37 C -0.1146(11) 0.3479(11) 0.4153(12)
H25 H -0.1283 0.3181 0.3921
C38 C -0.1419(11) 0.3928(14) 0.4006(13)
H26 H -0.1766 0.3998 0.3651
C39 C -0.0587(9) 0.3997(11) 0.4901(13)
C40 C -0.0100(9) 0.4197(9) 0.5467(12)
C41 C 0.0549(11) 0.4587(10) 0.6287(15)
H27 H 0.0746 0.4831 0.6598
C42 C 0.0723(10) 0.4152(9) 0.6225(11)
H28 H 0.1079 0.4034 0.6500
N17 N 0.0098(7) 0.2781(6) 0.5904(8)
N18 N -0.0204(7) 0.2504(6) 0.4742(8)
N19 N -0.0623(7) 0.1817(6) 0.4707(8)
H37 H -0.0738 0.1575 0.4834
N20 N -0.0089(7) 0.2059(6) 0.6181(8)
H38 H -0.0208 0.1756 0.6153
N21 N 0.0322(8) 0.3491(7) 0.4577(8)
N22 N 0.1002(8) 0.3055(6) 0.5692(8)
N23 N 0.1780(9) 0.3290(11) 0.5768(12)
H39 H 0.1996 0.3427 0.5678
N24 N 0.0954(11) 0.3810(11) 0.4450(11)
H40 H 0.1274 0.3887 0.4534
N25 N -0.0628(7) 0.3536(7) 0.4707(8)
N26 N 0.0335(7) 0.3894(7) 0.5723(8)
N27 N 0.0002(9) 0.4607(9) 0.5785(11)
H41 H -0.0225 0.4849 0.5704
N28 N -0.1069(8) 0.4263(8) 0.4503(10)
H42 H -0.1139 0.4570 0.4549
Ni4 Ni 0.0000 0.20427(14) 0.2500
C16 C 0.0587(8) 0.1270(8) 0.2053(10)
H11 H 0.0323 0.1234 0.1622
C17 C 0.1111(8) 0.1068(9) 0.2380(10)
H12 H 0.1263 0.0868 0.2208
C18 C 0.0992(8) 0.1474(7) 0.3034(10)
C19 C 0.1056(8) 0.1748(8) 0.3582(11)
C20 C 0.1297(11) 0.2082(8) 0.4467(13)
H13 H 0.1510 0.2187 0.4888
C21 C 0.0776(10) 0.2227(8) 0.4050(12)
H14 H 0.0563 0.2431 0.4134
C22 C -0.0890(12) 0.2740(11) 0.2538(12)
H15 H -0.1112 0.2500 0.2563
C23 C -0.0978(16) 0.3264(14) 0.2465(17)
H16 H -0.1273 0.3435 0.2428
C24 C -0.0235(11) 0.3081(10) 0.2515(13)
N11 N 0.0532(6) 0.1534(6) 0.2490(8)
N12 N 0.0619(7) 0.2015(7) 0.3474(9)
N13 N 0.1464(7) 0.1770(7) 0.4196(8)
H34 H 0.1772 0.1612 0.4377
N14 N 0.1356(7) 0.1211(6) 0.2978(8)
H35 H 0.1689 0.1147 0.3277
N15 N -0.0418(9) 0.2651(7) 0.2565(9)
N16 N -0.0563(13) 0.3479(11) 0.2456(13)
H36 H -0.0514 0.3795 0.2422
C16A C -0.0587(8) 0.1270(8) 0.2947(10)
H11A H -0.0323 0.1234 0.3378
C17A C -0.1111(8) 0.1068(9) 0.2620(10)
H12A H -0.1263 0.0868 0.2792
C18A C -0.0992(8) 0.1474(7) 0.1966(10)
C19A C -0.1056(8) 0.1748(8) 0.1418(11)
C20A C -0.1297(11) 0.2082(8) 0.0533(13)
H13A H -0.1510 0.2187 0.0112
C21A C -0.0776(10) 0.2227(8) 0.0950(12)
H14A H -0.0563 0.2431 0.0866
C22A C 0.0890(12) 0.2740(11) 0.2462(12)
H15A H 0.1112 0.2500 0.2437
C23A C 0.0978(16) 0.3264(14) 0.2535(17)
H16A H 0.1273 0.3435 0.2572
C24A C 0.0235(11) 0.3081(10) 0.2485(13)
N11A N -0.0532(6) 0.1534(6) 0.2510(8)
N12A N -0.0619(7) 0.2015(7) 0.1526(9)
N13A N -0.1464(7) 0.1770(7) 0.0804(8)
H34A H -0.1772 0.1612 0.0623
N14A N -0.1356(7) 0.1211(6) 0.2022(8)
H35A H -0.1689 0.1147 0.1723
N15A N 0.0418(9) 0.2651(7) 0.2435(9)
N16A N 0.0563(13) 0.3479(11) 0.2544(13)
H36A H 0.0514 0.3795 0.2578
O40 O 0.0000 0.4500(9) 0.2500
loop_
_geom_bond_atom_site_label_1
_geom_bond_atom_site_label_2
_geom_bond_site_symmetry_1
_geom_bond_site_symmetry_2
P1 O36 1_555 1_555
W1 O1 1_555 1_555
W2 O2 1_555 1_555
W3 O3 1_555 1_555
W4 O4 1_555 1_555
W5 O5 1_555 1_555
W6 O6 1_555 1_555
W7 O7 1_555 1_555
W8 O16 1_555 1_555
W9 O9 1_555 1_555
W10 O10 1_555 1_555
W11 O11 1_555 1_555
Ni1 N1 1_555 1_555
Ni2 N3 1_555 1_555
Ni3 N17 1_555 1_555
Ni4 N11 1_555 1_555
C1 H1 1_555 1_555
C2 C1 1_555 1_555
H2 C2 1_555 1_555
C3 N1 1_555 1_555
C4 H3 1_555 1_555
C5 C4 1_555 1_555
H4 C5 1_555 1_555
C6 C7 1_555 1_555
C7 N4 1_555 1_555
C8 H5 1_555 1_555
C9 C8 1_555 1_555
H6 C9 1_555 1_555
C10 H7 1_555 1_555
C11 C10 1_555 1_555
H8 C11 1_555 1_555
C12 C13 1_555 1_555
C13 N8 1_555 1_555
C14 H9 1_555 1_555
C15 C14 1_555 1_555
H10 C15 1_555 1_555
C16 H11 1_555 1_555
C17 C16 1_555 1_555
H12 C17 1_555 1_555
C18 C19 1_555 1_555
C19 N12 1_555 1_555
C20 H13 1_555 1_555
C21 C20 1_555 1_555
H14 C21 1_555 1_555
C22 H15 1_555 1_555
C23 C22 1_555 1_555
H16 C23 1_555 1_555
C24 N15 1_555 1_555
C25 H17 1_555 1_555
C26 C25 1_555 1_555
H18 C26 1_555 1_555
C27 C28 1_555 1_555
C28 N18 1_555 1_555
C29 H19 1_555 1_555
C30 C29 1_555 1_555
H20 C30 1_555 1_555
C31 H21 1_555 1_555
C32 C31 1_555 1_555
H22 C32 1_555 1_555
C33 C34 1_555 1_555
C34 N22 1_555 1_555
C35 H23 1_555 1_555
C36 C35 1_555 1_555
H24 C36 1_555 1_555
C37 H25 1_555 1_555
C38 C37 1_555 1_555
H26 C38 1_555 1_555
C39 C40 1_555 1_555
C40 N26 1_555 1_555
C41 H27 1_555 1_555
C42 C41 1_555 1_555
H28 C42 1_555 1_555
N1 C1 1_555 1_555
N2 C2 1_555 1_555
H29 N2 1_555 1_555
N3 C4 1_555 1_555
N4 Ni2 1_555 1_555
N5 C7 1_555 1_555
H30 N5 1_555 1_555
N6 C5 1_555 1_555
H31 N6 1_555 1_555
N7 Ni2 1_555 1_555
N8 Ni2 1_555 1_555
N9 C13 1_555 1_555
H32 N9 1_555 1_555
N10 C11 1_555 1_555
H33 N10 1_555 1_555
N11 C16 1_555 1_555
N12 Ni4 1_555 1_555
N13 C19 1_555 1_555
H34 N13 1_555 1_555
N14 C17 1_555 1_555
H35 N14 1_555 1_555
N15 Ni4 1_555 1_555
N16 C23 1_555 1_555
H36 N16 1_555 1_555
N17 C25 1_555 1_555
N18 Ni3 1_555 1_555
N19 C28 1_555 1_555
H37 N19 1_555 1_555
N20 C26 1_555 1_555
H38 N20 1_555 1_555
N21 Ni3 1_555 1_555
N22 Ni3 1_555 1_555
N23 C34 1_555 1_555
H39 N23 1_555 1_555
N24 C32 1_555 1_555
H40 N24 1_555 1_555
N25 Ni3 1_555 1_555
N26 Ni3 1_555 1_555
N27 C40 1_555 1_555
H41 N27 1_555 1_555
N28 C38 1_555 1_555
H42 N28 1_555 1_555
O3 Ni2 1_555 1_555
O8 Ni2 1_555 1_555
O12 W1 1_555 1_555
O13 W1 1_555 1_555
O14 W1 1_555 1_555
O15 W1 1_555 1_555
O16 W2 1_555 1_555
O17 W2 1_555 1_555
O18 W2 1_555 1_555
O19 W3 1_555 1_555
O20 W3 1_555 1_555
O21 W3 1_555 1_555
O22 W3 1_555 1_555
O23 W4 1_555 1_555
O24 W5 1_555 1_555
O25 W4 1_555 1_555
O26 W4 1_555 1_555
O27 W6 1_555 1_555
O28 W6 1_555 1_555
O29 W7 1_555 1_555
O30 W7 1_555 1_555
O31 W8 1_555 1_555
O32 W9 1_555 1_555
O33 W9 1_555 1_555
O34 W10 1_555 1_555
O35 W10 1_555 1_555
O36 W1 1_555 1_555
O37 P1 1_555 1_555
O38 P1 1_555 1_555
O39 P1 1_555 1_555
P1E O36E 1_555 1_555
W1E O1E 1_555 1_555
W2E O2E 1_555 1_555
W3E O3E_2 1_555 1_555
W4E O4E 1_555 1_555
W5E O5E 1_555 1_555
W6E O6E 1_555 1_555
W7E O7E 1_555 1_555
W8E O8 1_555 1_555
W9E O9E 1_555 1_555
W10E O10E 1_555 1_555
W11E O11E 1_555 1_555
Ni1F N1F 1_555 1_555
Ni1E O15E 1_555 1_555
Ni2E N3E 1_555 1_555
Ni2E_2 O3E_2 1_555 1_555
C1F H1F 1_555 1_555
C2F C1F 1_555 1_555
H2F C2F 1_555 1_555
C3F C3 1_555 1_555
C4E H3E 1_555 1_555
C5E C4E 1_555 1_555
H4E C5E 1_555 1_555
C6E C7E 1_555 1_555
C7E N4E 1_555 1_555
C8E H5E 1_555 1_555
C9E C8E 1_555 1_555
H6E C9E 1_555 1_555
C10E H7E 1_555 1_555
C11E C10E 1_555 1_555
H8E C11E 1_555 1_555
C12E C13E 1_555 1_555
C13E N8E 1_555 1_555
C14E H9E 1_555 1_555
C15E C14E 1_555 1_555
H10E C15E 1_555 1_555
C16A H11A 1_555 1_555
C17A C16A 1_555 1_555
H12A C17A 1_555 1_555
C18A C19A 1_555 1_555
C19A N12A 1_555 1_555
C20A H13A 1_555 1_555
C21A C20A 1_555 1_555
H14A C21A 1_555 1_555
C22A H15A 1_555 1_555
C23A C22A 1_555 1_555
H16A C23A 1_555 1_555
C24A C24 1_555 1_555
N1F C1F 1_555 1_555
N2F C2F 1_555 1_555
H29F N2F 1_555 1_555
N3E C4E 1_555 1_555
N4E Ni2E 1_555 1_555
N5E C7E 1_555 1_555
H30E N5E 1_555 1_555
N6E C5E 1_555 1_555
H31E N6E 1_555 1_555
N7E Ni2E 1_555 1_555
N8E Ni2E 1_555 1_555
N9E C13E 1_555 1_555
H32E N9E 1_555 1_555
N10E C11E 1_555 1_555
H33E N10E 1_555 1_555
N11A Ni4 1_555 1_555
N12A Ni4 1_555 1_555
N13A C19A 1_555 1_555
H34A N13A 1_555 1_555
N14A C17A 1_555 1_555
H35A N14A 1_555 1_555
N15A Ni4 1_555 1_555
N16A C23A 1_555 1_555
H36A N16A 1_555 1_555
O3E Ni2E 1_555 1_555
O8E W8 1_555 1_555
O12E W1E 1_555 1_555
O13E W1E 1_555 1_555
O14E W1E 1_555 1_555
O15E W1E 1_555 1_555
O15F Ni1F 1_555 1_555
O16E W2E 1_555 1_555
O17E W2E 1_555 1_555
O18E W2E 1_555 1_555
O18F Ni1F 1_555 1_555
O19E W3E 1_555 1_555
O20E W3E 1_555 1_555
O20F Ni1F 1_555 1_555
O21E W3E 1_555 1_555
O22E W3E 1_555 1_555
O23E W4E 1_555 1_555
O24E W5E 1_555 1_555
O25E W4E 1_555 1_555
O26E W4E 1_555 1_555
O27E W6E 1_555 1_555
O28E W6E 1_555 1_555
O29E W7E 1_555 1_555
O30E W7E 1_555 1_555
O31E W8E 1_555 1_555
O32E W9E 1_555 1_555
O33E W9E 1_555 1_555
O34E W10E 1_555 1_555
O34F Ni1F 1_555 1_555
O35E W10E 1_555 1_555
O36E W1E 1_555 1_555
O36F Ni1F 1_555 1_555
O37E P1E 1_555 1_555
O38E P1E 1_555 1_555
O39E P1E 1_555 1_555
W2 O14 1_555 1_555
W2 O36 1_555 1_555
W3 O37 1_555 1_555
W4 O22 1_555 1_555
W4 O37 1_555 1_555
W5 O12 1_555 1_555
W5 O19 1_555 1_555
W5 O23 1_555 1_555
W5 O37 1_555 1_555
W6 O13 1_555 1_555
W6 O24 1_555 1_555
W6 O38 1_555 1_555
W7 O26 1_555 1_555
W7 O27 1_555 1_555
W7 O38 1_555 1_555
W8 O28 1_555 1_555
W8 O30 1_555 1_555
W8 O38 1_555 1_555
W9 O25 1_555 1_555
W9 O29 1_555 1_555
W9 O39 1_555 1_555
W10 O21 1_555 1_555
W10 O32 1_555 1_555
W10 O39 1_555 1_555
W11 O17 1_555 1_555
W11 O31 1_555 1_555
W11 O33 1_555 1_555
W11 O35 1_555 1_555
W11 O39 1_555 1_555
Ni1 O15 1_555 1_555
Ni1 O18 1_555 1_555
Ni1 O20 1_555 1_555
Ni1 O34 1_555 1_555
Ni1 O36 1_555 1_555
C3 N2 1_555 1_555
C6 N3 1_555 1_555
C6 N6 1_555 1_555
C8 N5 1_555 1_555
C9 N4 1_555 1_555
C10 N7 1_555 1_555
C12 N7 1_555 1_555
C12 N10 1_555 1_555
C14 N9 1_555 1_555
C15 N8 1_555 1_555
C18 N11 1_555 1_555
C18 N14 1_555 1_555
C20 N13 1_555 1_555
C21 N12 1_555 1_555
C22 N15 1_555 1_555
C24 N16 1_555 1_555
C27 N17 1_555 1_555
C27 N20 1_555 1_555
C29 N18 1_555 1_555
C30 N19 1_555 1_555
C31 N21 1_555 1_555
C33 N21 1_555 1_555
C33 N24 1_555 1_555
C35 N23 1_555 1_555
C36 N22 1_555 1_555
C37 N25 1_555 1_555
C39 N25 1_555 1_555
C39 N28 1_555 1_555
C41 N27 1_555 1_555
C42 N26 1_555 1_555
W2E O14E 1_555 1_555
W2E O36E 1_555 1_555
W3E O37E 1_555 1_555
W4E O22E 1_555 1_555
W4E O37E 1_555 1_555
W5E O12E 1_555 1_555
W5E O19E 1_555 1_555
W5E O23E 1_555 1_555
W5E O37E 1_555 1_555
W6E O13E 1_555 1_555
W6E O24E 1_555 1_555
W6E O38E 1_555 1_555
W7E O26E 1_555 1_555
W7E O27E 1_555 1_555
W7E O38E 1_555 1_555
W8E O16E 1_555 1_555
W8E O28E 1_555 1_555
W8E O30E 1_555 1_555
W8E O38E 1_555 1_555
W9E O25E 1_555 1_555
W9E O29E 1_555 1_555
W9E O39E 1_555 1_555
W10E O21E 1_555 1_555
W10E O32E 1_555 1_555
W10E O39E 1_555 1_555
W11E O17E 1_555 1_555
W11E O31E 1_555 1_555
W11E O33E 1_555 1_555
W11E O35E 1_555 1_555
W11E O39E 1_555 1_555
Ni1E O18E 1_555 1_555
Ni1E O20E 1_555 1_555
Ni1E O34E 1_555 1_555
Ni1E O36E 1_555 1_555
Ni2E O8E 1_555 1_555
C3F N1F 1_555 1_555
C3F N2F 1_555 1_555
C6E N3E 1_555 1_555
C6E N6E 1_555 1_555
C8E N5E 1_555 1_555
C9E N4E 1_555 1_555
C10E N7E 1_555 1_555
C12E N7E 1_555 1_555
C12E N10E 1_555 1_555
C14E N9E 1_555 1_555
C15E N8E 1_555 1_555
C16A N11A 1_555 1_555
C18A N11A 1_555 1_555
C18A N14A 1_555 1_555
C20A N13A 1_555 1_555
C21A N12A 1_555 1_555
C22A N15A 1_555 1_555
C24A N15A 1_555 1_555
C24A N16A 1_555 1_555

#END
