
#######################################################################
#
#                 Cambridge Crystallographic Data Centre
#                                CCDC 
#
#######################################################################
#
# If this CIF has been generated from an entry in the Cambridge 
# Structural Database, then it will include bibliographic, chemical, 
# crystal, experimental, refinement or atomic coordinate data resulting 
# from the CCDC's data processing and validation procedures.
#
#######################################################################

data_WAYMEQ
_symmetry_cell_setting           orthorhombic
_symmetry_space_group_name_H-M   'I m m 2'
_symmetry_Int_Tables_number      44
_space_group_name_Hall           'I 2 -2'
loop_
_symmetry_equiv_pos_site_id
_symmetry_equiv_pos_as_xyz
1 x,y,z
2 -x,-y,z
3 x,-y,z
4 -x,y,z
5 1/2+x,1/2+y,1/2+z
6 1/2-x,1/2-y,1/2+z
7 1/2+x,1/2-y,1/2+z
8 1/2-x,1/2+y,1/2+z
_cell_length_a                   6.6125(20)
_cell_length_b                   16.7808(30)
_cell_length_c                   12.7143(20)
_cell_angle_alpha                90
_cell_angle_beta                 90
_cell_angle_gamma                90
_cell_volume                     1410.82
loop_
_atom_site_label
_atom_site_type_symbol
_atom_site_fract_x
_atom_site_fract_y
_atom_site_fract_z
Al1 Al 0.2500 0.0000 0.2500
O1 O 0.0000 0.0000 0.3079(3)
O2 O 0.5000 0.0000 0.1927(3)
O3 O 0.3486(8) 0.0762(6) 0.3478(7)
O4 O 0.3377(8) 0.4118(6) 0.6652(7)
C1 C 0.6980(8) 0.2047(7) 0.4865(10)
C2 C 0.6982(8) 0.2819(9) 0.5476(9)
C3 C 0.5000 0.3054(9) 0.5662(9)
C4 C 0.5000 0.1814(6) 0.4680(11)
C5 C 0.5000 0.3789(8) 0.6312(11)
C6 C 0.5000 0.1140(7) 0.3918(10)
Al1A Al -0.2500 0.0000 0.2500
Al1A_2 Al 0.7500 0.0000 0.2500
Al1D Al 0.7500 -0.5000 0.7500
Al1D_2 Al 0.7500 0.5000 0.7500
Al1E Al 0.2500 -0.5000 0.7500
Al1E_2 Al 0.2500 0.5000 0.7500
O2_2 O -0.5000 0.0000 0.1927(3)
O3C O 0.6514(8) 0.0762(6) 0.3478(7)
O3B O 0.3486(8) -0.0762(6) 0.3478(7)
O3A O 0.6514(8) -0.0762(6) 0.3478(7)
O3C_2 O -0.3486(8) 0.0762(6) 0.3478(7)
O3A_2 O -0.3486(8) -0.0762(6) 0.3478(7)
O4C O 0.6623(8) 0.4118(6) 0.6652(7)
O4B O 0.3377(8) -0.4118(6) 0.6652(7)
O4A O 0.6623(8) -0.4118(6) 0.6652(7)
O4D O -0.1623(8) -0.0882(6) 0.1652(7)
O4E O 0.1623(8) 0.0882(6) 0.1652(7)
O4F O -0.1623(8) 0.0882(6) 0.1652(7)
O4G O 0.1623(8) -0.0882(6) 0.1652(7)
C1C C 0.3020(8) 0.2047(7) 0.4865(10)
C1B C 0.6980(8) -0.2047(7) 0.4865(10)
C1A C 0.3020(8) -0.2047(7) 0.4865(10)
C2C C 0.3018(8) 0.2819(9) 0.5476(9)
C2B C 0.6982(8) -0.2819(9) 0.5476(9)
C2A C 0.3018(8) -0.2819(9) 0.5476(9)
C3A C 0.5000 -0.3054(9) 0.5662(9)
C4A C 0.5000 -0.1814(6) 0.4680(11)
C5A C 0.5000 -0.3789(8) 0.6312(11)
C6A C 0.5000 -0.1140(7) 0.3918(10)
Fe1 Fe 0.0000 0.0000 0.7500
C7 C 0.2540(14) 0.0000 0.6659(11)
C8 C 0.2450(15) -0.0695(4) 0.7328(12)
C9 C 0.229(2) -0.0424(3) 0.8401(14)
C10 C 0.269(3) 0.0000 0.5516(13)
C7A C -0.2540(14) 0.0000 0.6659(11)
C8B C 0.2450(15) 0.0695(4) 0.7328(12)
C8A C -0.2450(15) 0.0695(4) 0.7328(12)
C8C C -0.2450(15) -0.0695(4) 0.7328(12)
C9B C 0.229(2) 0.0424(3) 0.8401(14)
C9A C -0.229(2) 0.0424(3) 0.8401(14)
C9C C -0.229(2) -0.0424(3) 0.8401(14)
C10A C -0.269(3) 0.0000 0.5516(13)
loop_
_geom_bond_atom_site_label_1
_geom_bond_atom_site_label_2
_geom_bond_site_symmetry_1
_geom_bond_site_symmetry_2
Al1 O1 1_555 1_555
O1 Al1A 1_555 1_555
O2 Al1 1_555 1_555
O3 Al1 1_555 1_555
O4 C5 1_555 1_555
C1 C2 1_555 1_555
C2 C3 1_555 1_555
C3 C5 1_555 1_555
C4 C1 1_555 1_555
C5 O4C 1_555 1_555
C6 O3 1_555 1_555
Fe1 C7 1_555 1_555
C7 C8 1_555 1_555
C8 Fe1 1_555 1_555
C9 Fe1 1_555 1_555
C10 C7 1_555 1_555
Al1A O2_2 1_555 1_555
Al1A_2 O2 1_555 1_555
Al1D O4A 1_555 1_555
Al1D_2 O4C 1_555 1_555
Al1E O4B 1_555 1_555
Al1E_2 O4 1_555 1_555
O3C C6 1_555 1_555
O3B Al1 1_555 1_555
O3A Al1A_2 1_555 1_555
O3C_2 Al1A 1_555 1_555
O3A_2 Al1A 1_555 1_555
O4B C5A 1_555 1_555
O4A C5A 1_555 1_555
O4D Al1A 1_555 1_555
O4E Al1 1_555 1_555
O4F Al1A 1_555 1_555
O4G Al1 1_555 1_555
C1C C4 1_555 1_555
C1B C2B 1_555 1_555
C1A C2A 1_555 1_555
C2C C3 1_555 1_555
C2B C3A 1_555 1_555
C2A C3A 1_555 1_555
C3A C5A 1_555 1_555
C4A C1B 1_555 1_555
C6A O3B 1_555 1_555
C7A Fe1 1_555 1_555
C8B Fe1 1_555 1_555
C8A Fe1 1_555 1_555
C8C Fe1 1_555 1_555
C9B Fe1 1_555 1_555
C9A Fe1 1_555 1_555
C9C Fe1 1_555 1_555
C10A C7A 1_555 1_555
C4 C6 1_555 1_555
C7 C8B 1_555 1_555
C8 C9 1_555 1_555
C9 C9B 1_555 1_555
Al1A_2 O3C 1_555 1_555
O3A C6A 1_555 1_555
C1C C2C 1_555 1_555
C1A C4A 1_555 1_555
C4A C6A 1_555 1_555
C7A C8A 1_555 1_555
C7A C8C 1_555 1_555
C8B C9B 1_555 1_555
C8A C9A 1_555 1_555
C8C C9C 1_555 1_555
C9A C9C 1_555 1_555

#END
