
#######################################################################
#
#                 Cambridge Crystallographic Data Centre
#                                CCDC 
#
#######################################################################
#
# If this CIF has been generated from an entry in the Cambridge 
# Structural Database, then it will include bibliographic, chemical, 
# crystal, experimental, refinement or atomic coordinate data resulting 
# from the CCDC's data processing and validation procedures.
#
#######################################################################

data_WAYMAM
_symmetry_cell_setting           orthorhombic
_symmetry_space_group_name_H-M   'I m m a'
_symmetry_Int_Tables_number      74
_space_group_name_Hall           '-I 2b 2'
loop_
_symmetry_equiv_pos_site_id
_symmetry_equiv_pos_as_xyz
1 x,y,z
2 1/2+x,1/2+y,1/2+z
3 -x,1/2-y,z
4 -x,1/2+y,-z
5 x,-y,-z
6 1/2-x,-y,1/2+z
7 1/2-x,y,1/2-z
8 1/2+x,1/2-y,1/2-z
9 -x,-y,-z
10 1/2-x,1/2-y,1/2-z
11 x,1/2+y,-z
12 x,1/2-y,z
13 -x,y,z
14 1/2+x,y,1/2-z
15 1/2+x,-y,1/2+z
16 1/2-x,1/2+y,1/2+z
_cell_length_a                   6.799(2)
_cell_length_b                   16.946(3)
_cell_length_c                   12.749(2)
_cell_angle_alpha                90
_cell_angle_beta                 90
_cell_angle_gamma                90
_cell_volume                     1468.89
loop_
_atom_site_label
_atom_site_type_symbol
_atom_site_fract_x
_atom_site_fract_y
_atom_site_fract_z
V1 V 0.250 0.7500 0.250
O1 O 0.000 0.7500 0.307(2)
O2 O 0.156(2) 0.833(2) 0.158(2)
C1 C -0.196(2) 0.964(2) 0.026(2)
C2 C 0.000 0.940(2) 0.043(2)
C3 C 0.000 0.871(2) 0.117(2)
V1L V -0.250 0.7500 0.250
V1J V 0.250 1.2500 -0.250
V1A V -0.250 1.2500 -0.250
O1M O 0.500 0.7500 0.193(2)
O2L O -0.156(2) 0.833(2) 0.158(2)
O2D O 0.156(2) 1.167(2) -0.158(2)
O2H O -0.156(2) 1.167(2) -0.158(2)
O2K O 0.156(2) 0.667(2) 0.158(2)
O2I O 0.344(2) 0.667(2) 0.342(2)
O2F O 0.344(2) 0.833(2) 0.342(2)
C1D C -0.196(2) 1.036(2) -0.026(2)
C1H C 0.196(2) 1.036(2) -0.026(2)
C1L C 0.196(2) 0.964(2) 0.026(2)
C2H C 0.000 1.060(2) -0.043(2)
C3H C 0.000 1.129(2) -0.117(2)
Fe1 Fe 0.250 0.2500 0.250
C4 C 0.500 0.2088(2) 0.176(2)
C5 C 0.500 0.1840(2) 0.278(2)
C6 C 0.500 0.2500 0.342(2)
Fe1L Fe 0.750 0.2500 0.250
C4K C 0.500 0.2912(2) 0.176(2)
C4M C 0.000 0.2088(2) 0.324(2)
C4I C 0.000 0.2912(2) 0.324(2)
C5K C 0.500 0.3160(2) 0.278(2)
C5M C 0.000 0.1840(2) 0.222(2)
C5I C 0.000 0.3160(2) 0.222(2)
C6M C 0.000 0.2500 0.158(2)
loop_
_geom_bond_atom_site_label_1
_geom_bond_atom_site_label_2
_geom_bond_site_symmetry_1
_geom_bond_site_symmetry_2
V1 O1 1_555 1_555
O1 V1L 1_555 1_555
O2 V1 1_555 1_555
C1 C2 1_555 1_555
C2 C3 1_555 1_555
C3 O2 1_555 1_555
Fe1 C4 1_555 1_555
C4 C5 1_555 1_555
C5 Fe1 1_555 1_555
C6 Fe1 1_555 1_555
V1L O2L 1_555 1_555
V1J O2D 1_555 1_555
V1A O2H 1_555 1_555
O1M V1 1_555 1_555
O2L C3 1_555 1_555
O2D C3H 1_555 1_555
O2H C3H 1_555 1_555
O2K V1 1_555 1_555
O2I V1 1_555 1_555
O2F V1 1_555 1_555
C1D C1 1_555 1_555
C1H C1L 1_555 1_555
C1L C2 1_555 1_555
C2H C1D 1_555 1_555
C3H C2H 1_555 1_555
Fe1L C4 1_555 1_555
C4K Fe1 1_555 1_555
C4M Fe1 1_555 1_555
C4I Fe1 1_555 1_555
C5K Fe1 1_555 1_555
C5M Fe1 1_555 1_555
C5I Fe1 1_555 1_555
C6M Fe1 1_555 1_555
C4 C4K 1_555 1_555
C5 C6 1_555 1_555
C5 Fe1L 1_555 1_555
C6 Fe1L 1_555 1_555
C6 C5K 1_555 1_555
C1H C2H 1_555 1_555
Fe1L C4K 1_555 1_555
Fe1L C5K 1_555 1_555
C4K C5K 1_555 1_555
C4M C4I 1_555 1_555
C4M C5M 1_555 1_555
C4I C5I 1_555 1_555
C5M C6M 1_555 1_555
C5I C6M 1_555 1_555

#END
