
#######################################################################
#
#                 Cambridge Crystallographic Data Centre
#                                CCDC 
#
#######################################################################
#
# If this CIF has been generated from an entry in the Cambridge 
# Structural Database, then it will include bibliographic, chemical, 
# crystal, experimental, refinement or atomic coordinate data resulting 
# from the CCDC's data processing and validation procedures.
#
#######################################################################

data_WAYMOA
_symmetry_cell_setting           orthorhombic
_symmetry_space_group_name_H-M   'I m m a'
_symmetry_Int_Tables_number      74
_space_group_name_Hall           '-I 2b 2'
loop_
_symmetry_equiv_pos_site_id
_symmetry_equiv_pos_as_xyz
1 x,y,z
2 -x,1/2-y,z
3 -x,1/2+y,-z
4 x,-y,-z
5 1/2+x,1/2+y,1/2+z
6 1/2-x,-y,1/2+z
7 1/2-x,y,1/2-z
8 1/2+x,1/2-y,1/2-z
9 -x,-y,-z
10 x,1/2+y,-z
11 x,1/2-y,z
12 -x,y,z
13 1/2-x,1/2-y,1/2-z
14 1/2+x,y,1/2-z
15 1/2+x,-y,1/2+z
16 1/2-x,1/2+y,1/2+z
_cell_length_a                   6.672(2)
_cell_length_b                   16.936(3)
_cell_length_c                   12.807(2)
_cell_angle_alpha                90
_cell_angle_beta                 90
_cell_angle_gamma                90
_cell_volume                     1447.15
loop_
_atom_site_label
_atom_site_type_symbol
_atom_site_fract_x
_atom_site_fract_y
_atom_site_fract_z
Al1 Al 0.250 0.7500 0.2500
O1 O 0.000 0.7500 0.307(2)
O2 O 0.156(2) 0.833(2) 0.158(2)
C1 C -0.196(2) 0.964(2) 0.026(2)
C2 C 0.000 0.940(2) 0.043(2)
C3 C 0.000 0.871(2) 0.117(2)
Al1A Al -0.250 0.7500 0.2500
Al1A_2 Al 0.750 0.7500 0.2500
Al1B Al -0.250 1.2500 -0.2500
Al1C Al 0.250 1.2500 -0.2500
O1F O 0.500 0.7500 0.193(2)
O1F_2 O -0.500 0.7500 0.193(2)
O1B O 0.000 1.2500 -0.307(2)
O1D O -0.500 1.2500 -0.193(2)
O1D_2 O 0.500 1.2500 -0.193(2)
O2K O -0.156(2) 0.833(2) 0.158(2)
O2F O 0.344(2) 0.833(2) 0.342(2)
O2J O 0.156(2) 0.667(2) 0.158(2)
O2L O 0.344(2) 0.667(2) 0.342(2)
O2A O -0.156(2) 0.667(2) 0.158(2)
O2G O -0.344(2) 0.667(2) 0.342(2)
O2M O -0.344(2) 0.833(2) 0.342(2)
O2C O 0.156(2) 1.167(2) -0.158(2)
O2H O -0.156(2) 1.167(2) -0.158(2)
O2B O -0.156(2) 1.333(2) -0.158(2)
O2D O -0.344(2) 1.333(2) -0.342(2)
O2N O -0.344(2) 1.167(2) -0.342(2)
O2E O 0.344(2) 1.167(2) -0.342(2)
O2I O 0.156(2) 1.333(2) -0.158(2)
O2O O 0.344(2) 1.333(2) -0.342(2)
C1C C -0.196(2) 1.036(2) -0.026(2)
C1K C 0.196(2) 0.964(2) 0.026(2)
C1H C 0.196(2) 1.036(2) -0.026(2)
C2C C 0.000 1.060(2) -0.043(2)
C3F C 0.500 0.871(2) 0.383(2)
C3A C 0.000 0.629(2) 0.117(2)
C3G C 0.500 0.629(2) 0.383(2)
C3C C 0.000 1.129(2) -0.117(2)
Co1 Co 0.250 0.2500 0.2500
C4 C 0.376(6) 0.2500 0.393(2)
C5 C 0.256(6) 0.3160(6) 0.3792(15)
C6 C 0.060(5) 0.2905(5) 0.358(3)
Co1A Co 0.750 0.2500 0.2500
Co1A_2 Co -0.250 0.2500 0.2500
C4A C 0.624(6) 0.2500 0.393(2)
C4F C 0.124(6) 0.2500 0.107(2)
C4G C -0.124(6) 0.2500 0.107(2)
C4G_2 C 0.876(6) 0.2500 0.107(2)
C4A_2 C -0.376(6) 0.2500 0.393(2)
C5J C 0.256(6) 0.1840(6) 0.3792(15)
C5F C 0.244(6) 0.3160(6) 0.1208(15)
C5L C 0.244(6) 0.1840(6) 0.1208(15)
C5A C 0.744(6) 0.1840(6) 0.3792(15)
C5K C 0.744(6) 0.3160(6) 0.3792(15)
C5A_2 C -0.256(6) 0.1840(6) 0.3792(15)
C5K_2 C -0.256(6) 0.3160(6) 0.3792(15)
C5G C -0.244(6) 0.1840(6) 0.1208(15)
C5M C -0.244(6) 0.3160(6) 0.1208(15)
C5G_2 C 0.756(6) 0.1840(6) 0.1208(15)
C5M_2 C 0.756(6) 0.3160(6) 0.1208(15)
C6A C -0.060(5) 0.2095(5) 0.358(3)
C6K C -0.060(5) 0.2905(5) 0.358(3)
C6J C 0.060(5) 0.2095(5) 0.358(3)
C6F C 0.440(5) 0.2905(5) 0.142(3)
C6G C 0.560(5) 0.2095(5) 0.142(3)
C6M C 0.560(5) 0.2905(5) 0.142(3)
C6L C 0.440(5) 0.2095(5) 0.142(3)
C6A_2 C 0.940(5) 0.2095(5) 0.358(3)
C6K_2 C 0.940(5) 0.2905(5) 0.358(3)
C6G_2 C -0.440(5) 0.2095(5) 0.142(3)
C6M_2 C -0.440(5) 0.2905(5) 0.142(3)
loop_
_geom_bond_atom_site_label_1
_geom_bond_atom_site_label_2
_geom_bond_site_symmetry_1
_geom_bond_site_symmetry_2
Al1 O1 1_555 1_555
O1 Al1A 1_555 1_555
O2 Al1 1_555 1_555
C1 C2 1_555 1_555
C2 C3 1_555 1_555
C3 O2 1_555 1_555
Co1 C4 1_555 1_555
C4 C5 1_555 1_555
C5 Co1 1_555 1_555
C6 Co1 1_555 1_555
Al1A O1F_2 1_555 1_555
Al1A_2 O1F 1_555 1_555
Al1B O1B 1_555 1_555
Al1C O1B 1_555 1_555
O1F Al1 1_555 1_555
O1D Al1B 1_555 1_555
O1D_2 Al1C 1_555 1_555
O2K C3 1_555 1_555
O2F Al1 1_555 1_555
O2J Al1 1_555 1_555
O2L Al1 1_555 1_555
O2A Al1A 1_555 1_555
O2G Al1A 1_555 1_555
O2M Al1A 1_555 1_555
O2C Al1C 1_555 1_555
O2H Al1B 1_555 1_555
O2B Al1B 1_555 1_555
O2D Al1B 1_555 1_555
O2N Al1B 1_555 1_555
O2E Al1C 1_555 1_555
O2I Al1C 1_555 1_555
O2O Al1C 1_555 1_555
C1C C1 1_555 1_555
C1K C2 1_555 1_555
C1H C1K 1_555 1_555
C2C C1C 1_555 1_555
C3F O2F 1_555 1_555
C3A O2J 1_555 1_555
C3G O2L 1_555 1_555
C3C O2C 1_555 1_555
Co1A C4A 1_555 1_555
Co1A_2 C4G 1_555 1_555
C4A C4 1_555 1_555
C4F Co1 1_555 1_555
C4G C4F 1_555 1_555
C4G_2 Co1A 1_555 1_555
C4A_2 Co1A_2 1_555 1_555
C5J Co1 1_555 1_555
C5F Co1 1_555 1_555
C5L Co1 1_555 1_555
C5A Co1A 1_555 1_555
C5K Co1A 1_555 1_555
C5A_2 Co1A_2 1_555 1_555
C5K_2 Co1A_2 1_555 1_555
C5G Co1A_2 1_555 1_555
C5M Co1A_2 1_555 1_555
C5G_2 Co1A 1_555 1_555
C5M_2 Co1A 1_555 1_555
C6A C6 1_555 1_555
C6K C6 1_555 1_555
C6J Co1 1_555 1_555
C6F Co1 1_555 1_555
C6G Co1A 1_555 1_555
C6M Co1A 1_555 1_555
C6L Co1 1_555 1_555
C6A_2 Co1A 1_555 1_555
C6K_2 Co1A 1_555 1_555
C6G_2 Co1A_2 1_555 1_555
C6M_2 Co1A_2 1_555 1_555
C4 C5J 1_555 1_555
C5 C6 1_555 1_555
C6 C6J 1_555 1_555
Al1A O2K 1_555 1_555
O2A C3A 1_555 1_555
O2H C3C 1_555 1_555
C1H C2C 1_555 1_555
C2C C3C 1_555 1_555
Co1A_2 C6A 1_555 1_555
Co1A_2 C6K 1_555 1_555
C4A C5A 1_555 1_555
C4A C5K 1_555 1_555
C4F C5F 1_555 1_555
C4F C5L 1_555 1_555
C4G C5G 1_555 1_555
C4G C5M 1_555 1_555
C4G_2 C5G_2 1_555 1_555
C4G_2 C5M_2 1_555 1_555
C4A_2 C5A_2 1_555 1_555
C4A_2 C5K_2 1_555 1_555
C5J C6J 1_555 1_555
C5F C6F 1_555 1_555
C5L C6L 1_555 1_555
C5A C6A_2 1_555 1_555
C5K C6K_2 1_555 1_555
C5A_2 C6A 1_555 1_555
C5K_2 C6K 1_555 1_555
C5G C6G_2 1_555 1_555
C5M C6M_2 1_555 1_555
C5G_2 C6G 1_555 1_555
C5M_2 C6M 1_555 1_555
C6A C6K 1_555 1_555
C6A C6J 1_555 1_555
C6K C6J 1_555 1_555
C6F C6G 1_555 1_555
C6F C6M 1_555 1_555
C6F C6L 1_555 1_555
C6G C6M 1_555 1_555
C6G C6L 1_555 1_555
C6M C6L 1_555 1_555
C6A_2 C6K_2 1_555 1_555
C6G_2 C6M_2 1_555 1_555

#END
