
#######################################################################
#
#                 Cambridge Crystallographic Data Centre
#                                CCDC 
#
#######################################################################
#
# If this CIF has been generated from an entry in the Cambridge 
# Structural Database, then it will include bibliographic, chemical, 
# crystal, experimental, refinement or atomic coordinate data resulting 
# from the CCDC's data processing and validation procedures.
#
#######################################################################

data_WAYMIU
_symmetry_cell_setting           orthorhombic
_symmetry_space_group_name_H-M   'I m m 2'
_symmetry_Int_Tables_number      44
_space_group_name_Hall           'I 2 -2'
loop_
_symmetry_equiv_pos_site_id
_symmetry_equiv_pos_as_xyz
1 x,y,z
2 -x,-y,z
3 x,-y,z
4 -x,y,z
5 1/2+x,1/2+y,1/2+z
6 1/2-x,1/2-y,1/2+z
7 1/2+x,1/2-y,1/2+z
8 1/2-x,1/2+y,1/2+z
_cell_length_a                   6.5603(20)
_cell_length_b                   15.9846(30)
_cell_length_c                   13.4441(20)
_cell_angle_alpha                90
_cell_angle_beta                 90
_cell_angle_gamma                90
_cell_volume                     1409.8
loop_
_atom_site_label
_atom_site_type_symbol
_atom_site_fract_x
_atom_site_fract_y
_atom_site_fract_z
Al1 Al 0.7500 0.0000 0.2500
O1 O 1.0000 0.0000 0.3043(3)
O2 O 0.5000 0.0000 0.1956(3)
O3 O 0.6568(7) -0.0906(4) 0.3337(4)
O4 O 0.3543(7) -0.4247(4) 0.6544(5)
C1 C 0.3054(9) -0.2213(7) 0.4663(12)
C2 C 0.3044(9) -0.2970(9) 0.5128(12)
C3 C 0.5000 -0.3221(9) 0.5281(12)
C4 C 0.5000 -0.1972(7) 0.4516(13)
C5 C 0.5000 -0.3820(8) 0.6122(11)
C6 C 0.5000 -0.1324(7) 0.3725(9)
Al1A Al 0.2500 0.0000 0.2500
Al1A_2 Al 1.2500 0.0000 0.2500
Al1D Al 0.2500 -0.5000 0.7500
Al1D_2 Al 0.2500 0.5000 0.7500
Al1E Al 0.7500 -0.5000 0.7500
Al1E_2 Al 0.7500 0.5000 0.7500
O1_2 O 0.0000 0.0000 0.3043(3)
O3C O 0.3432(7) -0.0906(4) 0.3337(4)
O3A O 0.3432(7) 0.0906(4) 0.3337(4)
O3B O 0.6568(7) 0.0906(4) 0.3337(4)
O4C O 0.6457(7) -0.4247(4) 0.6544(5)
O4A O 0.6457(7) 0.4247(4) 0.6544(5)
O4B O 0.3543(7) 0.4247(4) 0.6544(5)
O4D O 0.8543(7) 0.0753(4) 0.1544(5)
O4E O 0.1457(7) -0.0753(4) 0.1544(5)
O4F O 0.8543(7) -0.0753(4) 0.1544(5)
O4G O 0.1457(7) 0.0753(4) 0.1544(5)
C1C C 0.6946(9) -0.2213(7) 0.4663(12)
C1A C 0.6946(9) 0.2213(7) 0.4663(12)
C1B C 0.3054(9) 0.2213(7) 0.4663(12)
C2C C 0.6956(9) -0.2970(9) 0.5128(12)
C2A C 0.6956(9) 0.2970(9) 0.5128(12)
C2B C 0.3044(9) 0.2970(9) 0.5128(12)
C3A C 0.5000 0.3221(9) 0.5281(12)
C4A C 0.5000 0.1972(7) 0.4516(13)
C5A C 0.5000 0.3820(8) 0.6122(11)
C6A C 0.5000 0.1324(7) 0.3725(9)
Fe1 Fe 0.0000 0.5000 0.2500
C7 C 0.2260(15) 0.5000 0.3465(10)
C8 C 0.2295(12) 0.5757(5) 0.2984(10)
C9 C 0.2567(18) 0.5528(10) 0.1987(12)
C10 C 0.197(2) 0.5000 0.4489(11)
O5 O 0.174(3) 0.4130(11) 0.4872(14)
C7A C -0.2260(15) 0.5000 0.3465(10)
C8B C 0.2295(12) 0.4243(5) 0.2984(10)
C8A C -0.2295(12) 0.4243(5) 0.2984(10)
C8C C -0.2295(12) 0.5757(5) 0.2984(10)
C9B C 0.2567(18) 0.4472(10) 0.1987(12)
C9A C -0.2567(18) 0.4472(10) 0.1987(12)
C9C C -0.2567(18) 0.5528(10) 0.1987(12)
C10A C -0.197(2) 0.5000 0.4489(11)
O5B O 0.174(3) 0.5870(11) 0.4872(14)
O5A O -0.174(3) 0.5870(11) 0.4872(14)
O5C O -0.174(3) 0.4130(11) 0.4872(14)
loop_
_geom_bond_atom_site_label_1
_geom_bond_atom_site_label_2
_geom_bond_site_symmetry_1
_geom_bond_site_symmetry_2
Al1 O1 1_555 1_555
O1 Al1A_2 1_555 1_555
O2 Al1 1_555 1_555
O3 Al1 1_555 1_555
O4 C5 1_555 1_555
C1 C2 1_555 1_555
C2 C3 1_555 1_555
C3 C5 1_555 1_555
C4 C1 1_555 1_555
C5 O4C 1_555 1_555
C6 O3 1_555 1_555
Fe1 C7 1_555 1_555
C7 C8 1_555 1_555
C8 Fe1 1_555 1_555
C9 Fe1 1_555 1_555
C10 C7 1_555 1_555
O5 C10 1_555 1_555
Al1A O2 1_555 1_555
Al1D O4 1_555 1_555
Al1D_2 O4B 1_555 1_555
Al1E O4C 1_555 1_555
Al1E_2 O4A 1_555 1_555
O1_2 Al1A 1_555 1_555
O3C C6 1_555 1_555
O3A Al1A 1_555 1_555
O3B Al1 1_555 1_555
O4A C5A 1_555 1_555
O4B C5A 1_555 1_555
O4D Al1 1_555 1_555
O4E Al1A 1_555 1_555
O4F Al1 1_555 1_555
O4G Al1A 1_555 1_555
C1C C4 1_555 1_555
C1A C2A 1_555 1_555
C1B C2B 1_555 1_555
C2C C3 1_555 1_555
C2A C3A 1_555 1_555
C2B C3A 1_555 1_555
C3A C5A 1_555 1_555
C4A C1A 1_555 1_555
C6A O3A 1_555 1_555
C7A Fe1 1_555 1_555
C8B Fe1 1_555 1_555
C8A Fe1 1_555 1_555
C8C Fe1 1_555 1_555
C9B Fe1 1_555 1_555
C9A Fe1 1_555 1_555
C9C Fe1 1_555 1_555
C10A C7A 1_555 1_555
O5B C10 1_555 1_555
O5A C10A 1_555 1_555
O5C C10A 1_555 1_555
C4 C6 1_555 1_555
C7 C8B 1_555 1_555
C8 C9 1_555 1_555
C9 C9B 1_555 1_555
Al1A O3C 1_555 1_555
O3B C6A 1_555 1_555
C1C C2C 1_555 1_555
C1B C4A 1_555 1_555
C4A C6A 1_555 1_555
C7A C8A 1_555 1_555
C7A C8C 1_555 1_555
C8B C9B 1_555 1_555
C8A C9A 1_555 1_555
C8C C9C 1_555 1_555
C9A C9C 1_555 1_555

#END
