
#######################################################################
#
#                 Cambridge Crystallographic Data Centre
#                                CCDC 
#
#######################################################################
#
# If this CIF has been generated from an entry in the Cambridge 
# Structural Database, then it will include bibliographic, chemical, 
# crystal, experimental, refinement or atomic coordinate data resulting 
# from the CCDC's data processing and validation procedures.
#
#######################################################################

data_WAYWOK
_symmetry_cell_setting           orthorhombic
_symmetry_space_group_name_H-M   'F d d 2'
_symmetry_Int_Tables_number      43
_space_group_name_Hall           'F 2 -2d'
loop_
_symmetry_equiv_pos_site_id
_symmetry_equiv_pos_as_xyz
1 x,y,z
2 -x,-y,z
3 1/4+x,1/4-y,1/4+z
4 1/4-x,1/4+y,1/4+z
5 x,1/2+y,1/2+z
6 -x,1/2-y,1/2+z
7 1/4+x,3/4-y,3/4+z
8 1/4-x,3/4+y,3/4+z
9 1/2+x,y,1/2+z
10 1/2-x,-y,1/2+z
11 3/4+x,1/4-y,3/4+z
12 3/4-x,1/4+y,3/4+z
13 1/2+x,1/2+y,z
14 1/2-x,1/2-y,z
15 3/4+x,3/4-y,1/4+z
16 3/4-x,3/4+y,1/4+z
_cell_length_a                   23.729(8)
_cell_length_b                   59.83(2)
_cell_length_c                   3.9132(13)
_cell_angle_alpha                90
_cell_angle_beta                 90
_cell_angle_gamma                90
_cell_volume                     5555.59
loop_
_atom_site_label
_atom_site_type_symbol
_atom_site_fract_x
_atom_site_fract_y
_atom_site_fract_z
Hg1 Hg 0.36427(2) 0.032107(9) 0.7941(3)
Cl1 Cl 0.44219(15) 0.02972(6) 0.1785(8)
Cl2 Cl 0.28820(15) 0.03544(6) 0.4041(9)
N1 N 0.3862(5) 0.0753(2) 0.730(4)
N2 N 0.3725(4) -0.0100(2) 0.656(3)
C1 C 0.4370(6) 0.0832(2) 0.823(5)
H1 H 0.4607 0.0736 0.9518
C2 C 0.3691(6) 0.1111(3) 0.469(4)
H2 H 0.3446 0.1206 0.3431
C3 C 0.3529(6) 0.0899(2) 0.561(5)
H3 H 0.3160 0.0851 0.5016
C4 C 0.4226(6) 0.1182(2) 0.568(5)
C5 C 0.4572(6) 0.1041(2) 0.747(4)
H4 H 0.4939 0.1087 0.8158
C6 C 0.4440(7) 0.1399(3) 0.472(4)
N3 N 0.4630(6) 0.1567(2) 0.397(4)
C7 C 0.4355(6) -0.0411(2) 0.606(4)
H5 H 0.4717 -0.0472 0.6488
C8 C 0.3422(6) -0.0439(2) 0.374(4)
H6 H 0.3132 -0.0518 0.2586
C9 C 0.3337(5) -0.0223(2) 0.491(4)
H7 H 0.2978 -0.0157 0.4524
C10 C 0.3950(6) -0.0536(2) 0.431(4)
C11 C 0.4228(6) -0.0199(3) 0.714(4)
H8 H 0.4507 -0.0117 0.8363
C12 C 0.4086(6) -0.0760(2) 0.314(4)
N4 N 0.4220(5) -0.0930(2) 0.210(3)
Hg1_2 Hg 0.36427(2) 0.032107(9) -0.2059(3)
Cl1_2 Cl 0.44219(15) 0.02972(6) 1.1785(8)
Cl2_2 Cl 0.28820(15) 0.03544(6) 1.4041(9)
loop_
_geom_bond_atom_site_label_1
_geom_bond_atom_site_label_2
_geom_bond_site_symmetry_1
_geom_bond_site_symmetry_2
Hg1 Cl1 1_555 1_555
Cl1 Hg1_2 1_555 1_555
Cl2 Hg1 1_555 1_555
N1 Hg1 1_555 1_555
N2 Hg1 1_555 1_555
C1 N1 1_555 1_555
H1 C1 1_555 1_555
C2 H2 1_555 1_555
C3 N1 1_555 1_555
H3 C3 1_555 1_555
C4 C2 1_555 1_555
C5 C1 1_555 1_555
H4 C5 1_555 1_555
C6 C4 1_555 1_555
N3 C6 1_555 1_555
C7 H5 1_555 1_555
C8 H6 1_555 1_555
C9 N2 1_555 1_555
H7 C9 1_555 1_555
C10 C7 1_555 1_555
C11 N2 1_555 1_555
H8 C11 1_555 1_555
C12 C10 1_555 1_555
N4 C12 1_555 1_555
Hg1_2 Cl2 1_555 1_555
Cl1_2 Hg1 1_555 1_555
Cl2_2 Hg1 1_555 1_555
C2 C3 1_555 1_555
C4 C5 1_555 1_555
C7 C11 1_555 1_555
C8 C9 1_555 1_555
C8 C10 1_555 1_555

#END
