
#######################################################################
#
#                 Cambridge Crystallographic Data Centre
#                                CCDC 
#
#######################################################################
#
# If this CIF has been generated from an entry in the Cambridge 
# Structural Database, then it will include bibliographic, chemical, 
# crystal, experimental, refinement or atomic coordinate data resulting 
# from the CCDC's data processing and validation procedures.
#
#######################################################################

data_WAZCEH
_symmetry_cell_setting           monoclinic
_symmetry_space_group_name_H-M   'C 2/c'
_symmetry_Int_Tables_number      15
_space_group_name_Hall           '-C 2yn'
loop_
_symmetry_equiv_pos_site_id
_symmetry_equiv_pos_as_xyz
1 x,y,z
2 -x,y,1/2-z
3 1/2+x,1/2+y,z
4 1/2-x,1/2+y,1/2-z
5 -x,-y,-z
6 x,-y,1/2+z
7 1/2-x,1/2-y,-z
8 1/2+x,1/2-y,1/2+z
_cell_length_a                   25.531(5)
_cell_length_b                   7.059(5)
_cell_length_c                   19.749(5)
_cell_angle_alpha                90
_cell_angle_beta                 101.158(5)
_cell_angle_gamma                90
_cell_volume                     3491.95
loop_
_atom_site_label
_atom_site_type_symbol
_atom_site_fract_x
_atom_site_fract_y
_atom_site_fract_z
Mn1 Mn 0.172621(8) 0.25138(3) 1.016876(10)
S1 S 0.268080(13) 0.30040(5) 1.253400(16)
N1 N -0.09176(5) 0.24316(19) 1.03938(7)
O1 O 0.24043(4) 0.24908(15) 1.10120(5)
C1 C 0.07099(5) 0.34320(19) 1.07731(7)
O2 O 0.20209(4) 0.53190(16) 0.99039(6)
H1 H 0.2218 0.5530 0.9620
H2 H 0.2125 0.6043 1.0244
O3 O 0.34107(4) 0.47016(15) 1.43712(5)
N2 N 0.12419(5) 0.38210(17) 1.09061(6)
O4 O 0.26771(5) 0.29300(18) 1.40355(6)
C2 C 0.04820(6) 0.27399(19) 1.00843(7)
N3 N 0.08229(5) 0.24777(17) 0.96460(6)
C3 C -0.03829(6) 0.2670(2) 1.04089(8)
C4 C 0.06203(6) 0.1932(2) 0.90044(8)
C5 C -0.01698(6) 0.3297(2) 1.10673(7)
O5 O 0.31667(4) 0.36597(17) 1.07826(5)
C6 C 0.30356(5) 0.3752(2) 1.19251(6)
C7 C 0.11664(6) 0.4810(2) 1.20450(8)
C8 C -0.00714(6) 0.23841(19) 0.98916(8)
C9 C 0.03885(5) 0.3708(2) 1.12680(7)
C10 C -0.09978(6) 0.2907(3) 1.10295(9)
C11 C 0.14565(6) 0.4513(2) 1.15241(7)
C12 C 0.35336(6) 0.4934(2) 1.29435(7)
C13 C 0.31300(5) 0.40490(19) 1.31881(6)
C14 C 0.06318(6) 0.4392(2) 1.19228(7)
C15 C 0.34811(6) 0.4764(2) 1.22216(7)
N4 N -0.05627(5) 0.3441(2) 1.14564(7)
C16 C 0.28522(5) 0.3269(2) 1.11804(7)
C17 C -0.02704(6) 0.1782(2) 0.92114(8)
C18 C 0.30605(6) 0.3882(2) 1.39172(7)
C19 C 0.00771(7) 0.1574(2) 0.87689(8)
H3 H 0.3745(7) 0.533(3) 1.1963(9)
H4 H 0.3828(7) 0.563(3) 1.3237(9)
H5 H 0.0433(8) 0.453(3) 1.2264(11)
H6 H 0.0857(7) 0.176(3) 0.8731(10)
H7 H 0.1346(8) 0.532(3) 1.2476(11)
H8 H 0.1841(7) 0.478(3) 1.1599(9)
H9 H -0.0043(8) 0.114(3) 0.8270(11)
H10 H -0.1355(9) 0.282(3) 1.1167(11)
H11 H -0.0634(8) 0.153(3) 0.9075(10)
H12 H -0.1151(9) 0.192(3) 1.0065(12)
Mn1C Mn 0.327379(8) 0.75138(3) 1.483124(10)
Mn1F Mn 0.327379(8) 0.24862(3) 0.983124(10)
O3C O 0.15893(4) -0.02984(15) 1.06288(5)
O5F O 0.18333(4) 0.13403(17) 0.92174(5)
loop_
_geom_bond_atom_site_label_1
_geom_bond_atom_site_label_2
_geom_bond_site_symmetry_1
_geom_bond_site_symmetry_2
Mn1 O1 1_555 1_555
S1 C6 1_555 1_555
N1 C3 1_555 1_555
O1 C16 1_555 1_555
C1 N2 1_555 1_555
O2 Mn1 1_555 1_555
H1 O2 1_555 1_555
H2 O2 1_555 1_555
O3 C18 1_555 1_555
N2 Mn1 1_555 1_555
O4 C18 1_555 1_555
C2 C1 1_555 1_555
N3 Mn1 1_555 1_555
C3 C5 1_555 1_555
C4 N3 1_555 1_555
C5 C9 1_555 1_555
O5 C16 1_555 1_555
C6 C15 1_555 1_555
C7 C11 1_555 1_555
C8 C2 1_555 1_555
C9 C1 1_555 1_555
C10 N1 1_555 1_555
C11 N2 1_555 1_555
C12 C13 1_555 1_555
C13 S1 1_555 1_555
C14 C7 1_555 1_555
C15 C12 1_555 1_555
N4 C5 1_555 1_555
C16 C6 1_555 1_555
C17 C8 1_555 1_555
C18 C13 1_555 1_555
C19 C4 1_555 1_555
H3 C15 1_555 1_555
H4 C12 1_555 1_555
H5 C14 1_555 1_555
H6 C4 1_555 1_555
H7 C7 1_555 1_555
H8 C11 1_555 1_555
H9 C19 1_555 1_555
H10 C10 1_555 1_555
H11 C17 1_555 1_555
H12 N1 1_555 1_555
Mn1C O3 1_555 1_555
Mn1F O5 1_555 1_555
O3C Mn1 1_555 1_555
O5F Mn1 1_555 1_555
C2 N3 1_555 1_555
C3 C8 1_555 1_555
C9 C14 1_555 1_555
C10 N4 1_555 1_555
C17 C19 1_555 1_555

#END
