
#######################################################################
#
#                 Cambridge Crystallographic Data Centre
#                                CCDC 
#
#######################################################################
#
# If this CIF has been generated from an entry in the Cambridge 
# Structural Database, then it will include bibliographic, chemical, 
# crystal, experimental, refinement or atomic coordinate data resulting 
# from the CCDC's data processing and validation procedures.
#
#######################################################################

data_WAZCOR
_symmetry_cell_setting           monoclinic
_symmetry_space_group_name_H-M   'P 21/n'
_symmetry_Int_Tables_number      14
_space_group_name_Hall           '-P 2yn'
loop_
_symmetry_equiv_pos_site_id
_symmetry_equiv_pos_as_xyz
1 x,y,z
2 1/2-x,1/2+y,1/2-z
3 -x,-y,-z
4 1/2+x,1/2-y,1/2+z
_cell_length_a                   18.140(4)
_cell_length_b                   16.170(3)
_cell_length_c                   20.660(4)
_cell_angle_alpha                90
_cell_angle_beta                 114.05(3)
_cell_angle_gamma                90
_cell_volume                     5534
loop_
_atom_site_label
_atom_site_type_symbol
_atom_site_fract_x
_atom_site_fract_y
_atom_site_fract_z
C1 C 0.2199(3) 0.8013(3) 0.1115(3)
C5 C -0.4021(3) 0.7752(4) 0.0971(3)
C9 C 0.2513(4) 0.7505(4) 0.0758(3)
H4 H 0.2240 0.7432 0.0271
C11 C 0.1990(4) 1.0295(4) 0.1954(3)
H6 H 0.2492 1.0047 0.2185
C12 C 0.1630(4) 1.0320(4) 0.1218(3)
C18 C -0.4397(4) 0.6553(4) 0.1439(3)
H14 H -0.4398 0.5980 0.1476
C22 C 0.2631(4) 0.8107(4) 0.1812(3)
H17 H 0.2437 0.8453 0.2067
C23 C 0.1511(4) 0.9223(5) 0.0313(3)
H18 H 0.1770 0.9042 0.0009
H19 H 0.0978 0.9425 0.0008
C25 C -0.4030(4) 0.6904(4) 0.1059(3)
H22 H -0.3774 0.6567 0.0848
C29 C 0.3214(4) 0.7114(3) 0.1115(3)
H28 H 0.3409 0.6781 0.0854
C31 C -0.4388(4) 0.8207(4) 0.1326(4)
H30 H -0.4385 0.8781 0.1304
C33 C -0.4747(4) 0.7833(4) 0.1702(3)
H33 H -0.4995 0.8162 0.1924
C34 C 0.1605(4) 1.0637(3) 0.2340(3)
H34 H 0.1857 1.0594 0.2831
C35 C 0.3359(4) 0.7702(4) 0.2164(3)
H35 H 0.3653 0.7795 0.2645
C37 C -0.1403(4) 1.1126(4) 0.1775(3)
H37 H -0.1471 1.1687 0.1832
C38 C 0.1412(3) 0.8470(4) 0.0724(4)
H38 H 0.1201 0.8653 0.1062
H39 H 0.1022 0.8094 0.0395
C39 C 0.0560(4) 1.1071(4) 0.1342(4)
H40 H 0.0070 1.1347 0.1125
C40 C -0.3650(4) 0.8155(4) 0.0498(4)
H41 H -0.4053 0.8484 0.0131
H42 H -0.3455 0.7733 0.0274
C42 C 0.1996(4) 0.9941(4) 0.0764(3)
H44 H 0.2532 0.9745 0.1065
H45 H 0.2053 1.0363 0.0454
C43 C -0.1986(5) 0.9838(5) 0.1296(4)
C44 C -0.2062(4) 1.0669(4) 0.1361(4)
H46 H -0.2559 1.0925 0.1124
C45 C 0.0901(4) 1.0732(4) 0.0922(3)
H47 H 0.0639 1.0781 0.0432
C47 C -0.0607(4) 0.9988(4) 0.2022(3)
H49 H -0.0099 0.9745 0.2227
C48 C -0.1245(5) 0.9502(4) 0.1659(4)
H50 H -0.1178 0.8932 0.1656
C51 C -0.2914(4) 0.8734(8) 0.0994(5)
H53 H -0.2630 0.8554 0.1457
C53 C 0.0770(3) 0.9813(4) 0.3821(3)
C54 C -0.2698(8) 0.9346(6) 0.0843(9)
H54 H -0.3000 0.9551 0.0391
Cu2 Cu 0.03430(4) 1.14677(4) 0.26752(3)
N5 N 0.0904(3) 1.1022(3) 0.2063(2)
N6 N -0.0666(3) 1.0799(3) 0.2102(2)
N7 N -0.4766(3) 0.7013(3) 0.1771(2)
N8 N 0.3654(3) 0.7160(3) 0.1807(2)
N10 N 0.0864(3) 1.0379(3) 0.3500(3)
N12 N -0.0748(4) 1.2952(4) 0.1318(5)
O4 O -0.0125(4) 1.2714(3) 0.1768(3)
O5 O -0.1189(4) 1.3418(5) 0.1433(6)
O6 O -0.0902(7) 1.2642(8) 0.0693(5)
S2 S 0.06557(12) 0.90343(12) 0.42231(10)
Cu2A Cu -0.53430(4) 0.64677(4) 0.23248(3)
Cu2A_2 Cu 0.46570(4) 0.64677(4) 0.23248(3)
N7A N -0.0234(3) 1.2013(3) 0.3229(2)
N8A N 0.1346(3) 1.2160(3) 0.3193(2)
C2 C 0.4339(3) 0.1206(4) 0.3592(3)
H1 H 0.4285 0.1775 0.3526
C3 C 0.7450(3) 0.0351(3) 0.4123(3)
H2 H 0.7750 0.0425 0.4607
C4 C 0.8523(4) -0.2379(3) 0.3753(3)
C6 C 0.2182(3) -0.1985(4) 0.3422(3)
C7 C 0.4100(3) -0.0012(3) 0.4164(3)
C8 C 0.4799(3) -0.0054(3) 0.3381(3)
H3 H 0.5058 -0.0372 0.3161
C10 C 0.6696(3) 0.0689(3) 0.3800(3)
H5 H 0.6481 0.0964 0.4079
C13 C 0.8178(3) -0.2377(3) 0.3035(4)
H7 H 0.7680 -0.2123 0.2801
C14 C 0.2937(4) -0.0824(4) 0.4237(3)
H8 H 0.2770 -0.1073 0.4583
H9 H 0.2540 -0.0408 0.3981
C15 C 0.4507(3) -0.0436(3) 0.3833(3)
H10 H 0.4591 -0.1001 0.3915
C16 C 0.7311(3) -0.0149(3) 0.3017(3)
H11 H 0.7506 -0.0427 0.2725
C17 C 0.8156(4) -0.1966(3) 0.4210(3)
H12 H 0.7601 -0.1813 0.3919
H13 H 0.8154 -0.2350 0.4569
C19 C 0.8546(4) -0.2741(3) 0.2647(3)
H15 H 0.8283 -0.2729 0.2155
C20 C 0.7769(3) -0.0107(3) 0.3721(3)
C21 C 0.9256(4) -0.2769(4) 0.4052(3)
H16 H 0.9520 -0.2796 0.4543
C24 C 0.2945(3) -0.1471(4) 0.3730(3)
H20 H 0.3399 -0.1837 0.3970
H21 H 0.3030 -0.1207 0.3344
C26 C 0.6563(4) 0.0212(3) 0.2727(3)
H23 H 0.6258 0.0152 0.2242
C27 C 0.8593(3) -0.0500(4) 0.4083(3)
H24 H 0.8975 -0.0077 0.4350
H25 H 0.8760 -0.0703 0.3721
C28 C 0.8638(4) -0.1191(4) 0.4567(3)
H26 H 0.9199 -0.1346 0.4821
H27 H 0.8445 -0.0995 0.4914
C30 C 0.4033(3) 0.0838(4) 0.4034(3)
H29 H 0.3776 0.1164 0.4250
C32 C 0.3758(3) -0.0401(3) 0.4629(3)
H31 H 0.3700 0.0020 0.4939
H32 H 0.4139 -0.0808 0.4925
C36 C 0.9610(4) -0.3122(4) 0.3645(3)
H36 H 1.0110 -0.3378 0.3873
C41 C 0.2176(4) -0.2804(4) 0.3594(3)
H43 H 0.2642 -0.3041 0.3929
C46 C 0.1455(4) -0.1669(4) 0.2964(3)
H48 H 0.1415 -0.1112 0.2845
C49 C 0.0782(3) -0.2170(4) 0.2678(3)
H51 H 0.0301 -0.1937 0.2362
C50 C 0.1488(4) -0.3283(4) 0.3280(4)
H52 H 0.1522 -0.3844 0.3387
C52 C 0.4337(5) -0.0147(5) 0.1257(4)
Cu1 Cu 0.52038(4) 0.12987(4) 0.26325(4)
N1 N 0.4713(2) 0.0775(3) 0.3253(2)
N2 N 0.6252(2) 0.0640(3) 0.3098(2)
N3 N 0.9272(3) -0.3115(3) 0.2943(2)
N4 N 0.0789(3) -0.2984(3) 0.2835(2)
N9 N 0.4676(3) 0.0200(3) 0.1771(3)
N11 N 0.5849(4) 0.2685(5) 0.4159(5)
O1 O 0.5851(3) 0.2431(3) 0.3621(3)
O2 O 0.6521(9) 0.2462(8) 0.4707(5)
O3 O 0.5436(8) 0.3246(7) 0.4303(9)
S1 S 0.3847(2) -0.0692(3) 0.0566(2)
Cu1A Cu 0.97962(4) -0.37013(4) 0.23675(4)
Cu1A_2 Cu -0.02038(4) -0.37013(4) 0.23675(4)
N3A N 0.5728(3) 0.1885(3) 0.2057(2)
N4A N 0.4211(3) 0.2016(3) 0.2165(2)
loop_
_geom_bond_atom_site_label_1
_geom_bond_atom_site_label_2
_geom_bond_site_symmetry_1
_geom_bond_site_symmetry_2
C1 C9 1_555 1_555
C2 H1 1_555 1_555
C3 H2 1_555 1_555
C4 C13 1_555 1_555
C5 C25 1_555 1_555
C6 C24 1_555 1_555
C7 C15 1_555 1_555
C8 H3 1_555 1_555
C9 H4 1_555 1_555
C10 C3 1_555 1_555
H5 C10 1_555 1_555
C11 H6 1_555 1_555
C12 C11 1_555 1_555
C13 H7 1_555 1_555
C14 H8 1_555 1_555
H9 C14 1_555 1_555
C15 C8 1_555 1_555
H10 C15 1_555 1_555
C16 H11 1_555 1_555
C17 C4 1_555 1_555
H12 C17 1_555 1_555
H13 C17 1_555 1_555
C18 H14 1_555 1_555
C19 C13 1_555 1_555
H15 C19 1_555 1_555
C20 C3 1_555 1_555
C21 C4 1_555 1_555
H16 C21 1_555 1_555
C22 C1 1_555 1_555
H17 C22 1_555 1_555
C23 H18 1_555 1_555
H19 C23 1_555 1_555
C24 C14 1_555 1_555
H20 C24 1_555 1_555
H21 C24 1_555 1_555
C25 C18 1_555 1_555
H22 C25 1_555 1_555
C26 C16 1_555 1_555
H23 C26 1_555 1_555
C27 C20 1_555 1_555
H24 C27 1_555 1_555
H25 C27 1_555 1_555
C28 C17 1_555 1_555
H26 C28 1_555 1_555
H27 C28 1_555 1_555
C29 C9 1_555 1_555
H28 C29 1_555 1_555
C30 C2 1_555 1_555
H29 C30 1_555 1_555
C31 C5 1_555 1_555
H30 C31 1_555 1_555
C32 C7 1_555 1_555
H31 C32 1_555 1_555
H32 C32 1_555 1_555
C33 C31 1_555 1_555
H33 C33 1_555 1_555
C34 C11 1_555 1_555
H34 C34 1_555 1_555
C35 C22 1_555 1_555
H35 C35 1_555 1_555
C36 C21 1_555 1_555
H36 C36 1_555 1_555
C37 H37 1_555 1_555
C38 C1 1_555 1_555
H38 C38 1_555 1_555
H39 C38 1_555 1_555
C39 H40 1_555 1_555
C40 C5 1_555 1_555
H41 C40 1_555 1_555
H42 C40 1_555 1_555
C41 C6 1_555 1_555
H43 C41 1_555 1_555
C42 C12 1_555 1_555
H44 C42 1_555 1_555
H45 C42 1_555 1_555
C43 C44 1_555 1_555
C44 C37 1_555 1_555
H46 C44 1_555 1_555
C45 C12 1_555 1_555
H47 C45 1_555 1_555
C46 C6 1_555 1_555
H48 C46 1_555 1_555
C47 H49 1_555 1_555
C48 C43 1_555 1_555
H50 C48 1_555 1_555
C49 C46 1_555 1_555
H51 C49 1_555 1_555
C50 C41 1_555 1_555
H52 C50 1_555 1_555
C51 C40 1_555 1_555
H53 C51 1_555 1_555
C52 N9 1_555 1_555
C53 N10 1_555 1_555
C54 C43 1_555 1_555
H54 C54 1_555 1_555
Cu1 N1 1_555 1_555
Cu2 N5 1_555 1_555
N1 C2 1_555 1_555
N2 C10 1_555 1_555
N3 C19 1_555 1_555
N4 C49 1_555 1_555
N5 C34 1_555 1_555
N6 C37 1_555 1_555
N7 C18 1_555 1_555
N8 C29 1_555 1_555
N9 Cu1 1_555 1_555
N10 Cu2 1_555 1_555
N11 O1 1_555 1_555
N12 O4 1_555 1_555
O1 Cu1 1_555 1_555
O2 N11 1_555 1_555
O3 N11 1_555 1_555
O4 Cu2 1_555 1_555
O5 N12 1_555 1_555
O6 N12 1_555 1_555
S1 C52 1_555 1_555
S2 C53 1_555 1_555
Cu1A N3 1_555 1_555
Cu1A_2 N4 1_555 1_555
Cu2A N7 1_555 1_555
Cu2A_2 N8 1_555 1_555
N3A Cu1 1_555 1_555
N4A Cu1 1_555 1_555
N7A Cu2 1_555 1_555
N8A Cu2 1_555 1_555
C7 C30 1_555 1_555
C8 N1 1_555 1_555
C14 C32 1_555 1_555
C16 C20 1_555 1_555
C23 C38 1_555 1_555
C23 C42 1_555 1_555
C26 N2 1_555 1_555
C27 C28 1_555 1_555
C33 N7 1_555 1_555
C35 N8 1_555 1_555
C36 N3 1_555 1_555
C39 C45 1_555 1_555
C39 N5 1_555 1_555
C47 C48 1_555 1_555
C47 N6 1_555 1_555
C50 N4 1_555 1_555
C51 C54 1_555 1_555
Cu1 N2 1_555 1_555
Cu2 N6 1_555 1_555

#END
