
#######################################################################
#
#                 Cambridge Crystallographic Data Centre
#                                CCDC 
#
#######################################################################
#
# If this CIF has been generated from an entry in the Cambridge 
# Structural Database, then it will include bibliographic, chemical, 
# crystal, experimental, refinement or atomic coordinate data resulting 
# from the CCDC's data processing and validation procedures.
#
#######################################################################

data_WAZCAD
_symmetry_cell_setting           monoclinic
_symmetry_space_group_name_H-M   'P 21/c'
_symmetry_Int_Tables_number      14
_space_group_name_Hall           '-P 2ybc'
loop_
_symmetry_equiv_pos_site_id
_symmetry_equiv_pos_as_xyz
1 x,y,z
2 -x,1/2+y,1/2-z
3 -x,-y,-z
4 x,1/2-y,1/2+z
_cell_length_a                   8.522(5)
_cell_length_b                   28.661(5)
_cell_length_c                   7.451(5)
_cell_angle_alpha                90
_cell_angle_beta                 95.875(5)
_cell_angle_gamma                90
_cell_volume                     1810.34
loop_
_atom_site_label
_atom_site_type_symbol
_atom_site_fract_x
_atom_site_fract_y
_atom_site_fract_z
Co1 Co 0.43111(3) 0.148451(7) 0.37062(3)
S1 S 0.90850(5) 0.156800(15) 0.61036(6)
O1 O 0.56998(14) 0.13282(4) 0.62392(17)
O2 O 1.29036(15) 0.23366(4) 0.62436(19)
O3 O 0.51332(15) 0.21803(4) 0.4118(2)
H1 H 0.4510 0.2268 0.4880
H2 H 0.4954 0.2369 0.3243
O4 O 1.23311(14) 0.16392(4) 0.49883(18)
C1 C 0.8383(2) 0.22268(7) 0.8200(3)
O5 O 0.31865(16) 0.17014(4) 0.11405(18)
H3 H 0.3789 0.1689 0.0305
H4 H 0.2895 0.1985 0.1172
N1 N 0.36219(16) 0.07778(5) 0.33850(19)
C2 C 0.73948(19) 0.04723(6) 0.1647(2)
N2 N 0.61652(18) -0.07111(5) 0.2006(2)
N3 N 0.83240(18) -0.03554(5) 0.1201(2)
C3 C 0.45833(19) 0.00101(6) 0.2692(2)
O6 O 0.53538(16) 0.17786(5) 0.86142(19)
N4 N 0.61978(16) 0.12023(5) 0.24089(18)
C4 C 0.5899(2) -0.02402(5) 0.2139(2)
C5 C 1.04810(19) 0.19904(6) 0.6680(2)
C6 C 0.72379(19) -0.00264(6) 0.1635(2)
C7 C 0.61437(19) 0.16373(6) 0.7428(2)
C8 C 0.8707(2) 0.11948(7) 0.1222(3)
C9 C 0.2286(2) 0.05837(6) 0.3784(2)
C10 C 0.47533(18) 0.04994(5) 0.2800(2)
C11 C 1.20311(19) 0.19877(6) 0.5931(2)
C12 C 0.9926(2) 0.23206(7) 0.7778(3)
C13 C 0.77640(19) 0.18334(6) 0.7366(2)
C14 C 0.8691(2) 0.07182(6) 0.1097(2)
C15 C 0.2002(2) 0.01041(7) 0.3642(3)
C16 C 0.3153(2) -0.01849(6) 0.3127(2)
C17 C 0.7441(2) 0.14257(6) 0.1890(2)
C18 C 0.61560(19) 0.07292(5) 0.2280(2)
C19 C 0.7630(2) -0.07546(7) 0.1463(3)
H5 H 0.155(2) 0.0778(7) 0.419(3)
H6 H 0.958(3) 0.1369(8) 0.092(3)
H7 H 0.954(3) 0.0559(8) 0.066(3)
H8 H 0.743(2) 0.1762(7) 0.197(2)
H9 H 0.299(3) -0.0506(8) 0.301(3)
H10 H 0.102(3) -0.0015(8) 0.391(3)
H11 H 0.803(3) -0.1046(8) 0.129(3)
H12 H 0.558(3) -0.0939(9) 0.242(3)
H13 H 0.784(3) 0.2409(8) 0.896(3)
H14 H 1.055(3) 0.2573(8) 0.819(3)
Co1_2 Co 1.43111(3) 0.148451(7) 0.37062(3)
O4_2 O 0.23311(14) 0.16392(4) 0.49883(18)
loop_
_geom_bond_atom_site_label_1
_geom_bond_atom_site_label_2
_geom_bond_site_symmetry_1
_geom_bond_site_symmetry_2
Co1 O1 1_555 1_555
S1 C5 1_555 1_555
O1 C7 1_555 1_555
O2 C11 1_555 1_555
O3 Co1 1_555 1_555
H1 O3 1_555 1_555
H2 O3 1_555 1_555
O4 C11 1_555 1_555
C1 C12 1_555 1_555
O5 Co1 1_555 1_555
H3 O5 1_555 1_555
H4 O5 1_555 1_555
N1 Co1 1_555 1_555
C2 C6 1_555 1_555
N2 C4 1_555 1_555
N3 C6 1_555 1_555
C3 C4 1_555 1_555
O6 C7 1_555 1_555
N4 Co1 1_555 1_555
C4 C6 1_555 1_555
C5 C11 1_555 1_555
C7 C13 1_555 1_555
C8 C14 1_555 1_555
C9 N1 1_555 1_555
C10 N1 1_555 1_555
C12 C5 1_555 1_555
C13 S1 1_555 1_555
C14 C2 1_555 1_555
C15 C9 1_555 1_555
C16 C3 1_555 1_555
C17 N4 1_555 1_555
C18 C2 1_555 1_555
C19 N2 1_555 1_555
H5 C9 1_555 1_555
H6 C8 1_555 1_555
H7 C14 1_555 1_555
H8 C17 1_555 1_555
H9 C16 1_555 1_555
H10 C15 1_555 1_555
H11 C19 1_555 1_555
H12 N2 1_555 1_555
H13 C1 1_555 1_555
H14 C12 1_555 1_555
Co1_2 O4 1_555 1_555
O4_2 Co1 1_555 1_555
C1 C13 1_555 1_555
N3 C19 1_555 1_555
C3 C10 1_555 1_555
N4 C18 1_555 1_555
C8 C17 1_555 1_555
C10 C18 1_555 1_555
C15 C16 1_555 1_555

#END
