
#######################################################################
#
#                 Cambridge Crystallographic Data Centre
#                                CCDC 
#
#######################################################################
#
# If this CIF has been generated from an entry in the Cambridge 
# Structural Database, then it will include bibliographic, chemical, 
# crystal, experimental, refinement or atomic coordinate data resulting 
# from the CCDC's data processing and validation procedures.
#
#######################################################################

data_WAZCIL
_symmetry_cell_setting           orthorhombic
_symmetry_space_group_name_H-M   'P n n a'
_symmetry_Int_Tables_number      52
_space_group_name_Hall           '-P 2a 2bc'
loop_
_symmetry_equiv_pos_site_id
_symmetry_equiv_pos_as_xyz
1 x,y,z
2 1/2-x,-y,z
3 1/2-x,1/2+y,1/2-z
4 x,1/2-y,1/2-z
5 -x,-y,-z
6 1/2+x,y,-z
7 1/2+x,1/2-y,1/2+z
8 -x,1/2+y,1/2+z
_cell_length_a                   23.900(5)
_cell_length_b                   17.290(4)
_cell_length_c                   9.3100(19)
_cell_angle_alpha                90
_cell_angle_beta                 90
_cell_angle_gamma                90
_cell_volume                     3847.18
loop_
_atom_site_label
_atom_site_type_symbol
_atom_site_fract_x
_atom_site_fract_y
_atom_site_fract_z
C1 C 0.1393(3) -0.2201(3) 0.9794(6)
H1 H 0.1748 -0.2315 0.9357
H2 H 0.1098 -0.2408 0.9211
H3 H 0.1379 -0.2431 1.0732
C2 C 0.13227(18) -0.13229(19) 0.9925(3)
C3 C 0.08455(16) -0.0954(2) 0.9454(3)
H4 H 0.0564 -0.1243 0.9022
C4 C 0.07745(13) -0.01506(19) 0.9611(3)
H5 H 0.0451 0.0088 0.9276
C5 C 0.16795(12) -0.00756(18) 1.0718(3)
H6 H 0.1965 0.0213 1.1137
C6 C 0.17460(15) -0.0873(2) 1.0540(4)
H7 H 0.2077 -0.1108 1.0836
C7 C -0.29783(12) 0.15262(18) 0.2614(2)
H8 H -0.3032 0.1565 0.1628
C8 C -0.24903(10) 0.11739(15) 0.3110(3)
H9 H -0.2232 0.0976 0.2458
C9 C -0.23879(9) 0.11173(14) 0.4584(2)
C10 C -0.18554(10) 0.07664(15) 0.5187(3)
H10 H -0.1672 0.1151 0.5783
H11 H -0.1957 0.0336 0.5803
C11 C -0.28063(10) 0.14091(15) 0.5497(3)
H12 H -0.2764 0.1375 0.6488
C12 C -0.32830(10) 0.17478(14) 0.4921(3)
H13 H -0.3551 0.1939 0.5552
C13 C -0.00641(11) 0.14091(17) 0.7322(2)
H14 H -0.0041 0.1483 0.8310
C14 C -0.04471(9) 0.08705(14) 0.6806(3)
H15 H -0.0669 0.0593 0.7444
C15 C -0.04972(8) 0.07463(13) 0.5327(3)
C16 C -0.01604(9) 0.12066(15) 0.4440(2)
H16 H -0.0187 0.1160 0.3447
C17 C 0.02134(10) 0.17327(14) 0.5034(2)
H17 H 0.0430 0.2031 0.4416
C18 C -0.08923(9) 0.01355(16) 0.4715(3)
H18 H -0.0992 -0.0224 0.5473
H19 H -0.0697 -0.0153 0.3976
C19 C -0.14339(9) 0.04774(14) 0.4069(3)
H20 H -0.1335 0.0904 0.3443
H21 H -0.1613 0.0085 0.3483
C20 C 0.11951(11) 0.02886(15) 1.0278(3)
N1 N 0.02777(7) 0.18327(11) 0.6463(2)
N2 N -0.33790(7) 0.18160(11) 0.3501(2)
O1 O 0.16275(14) 0.15694(14) 1.1192(3)
O2 O 0.09546(7) 0.16670(12) 0.92836(19)
O3 O 0.06388(18) 0.13273(17) 1.1643(4)
S1 S 0.10855(4) 0.12955(4) 1.06529(7)
Zn1 Zn 0.094453(14) 0.2500 0.7500
C1C C 0.1393(3) 0.7201(3) 0.5206(6)
H1C H 0.1748 0.7315 0.5643
H2C H 0.1098 0.7408 0.5789
H3C H 0.1379 0.7431 0.4268
C2C C 0.13227(18) 0.63229(19) 0.5075(3)
C3C C 0.08455(16) 0.5954(2) 0.5546(3)
H4C H 0.0564 0.6243 0.5978
C4C C 0.07745(13) 0.51506(19) 0.5389(3)
H5C H 0.0451 0.4912 0.5724
C5C C 0.16795(12) 0.50756(18) 0.4282(3)
H6C H 0.1965 0.4787 0.3863
C6C C 0.17460(15) 0.5873(2) 0.4460(4)
H7C H 0.2077 0.6108 0.4164
C7C C -0.29783(12) 0.34738(18) 1.2386(2)
H8C H -0.3032 0.3435 1.3372
C8C C -0.24903(10) 0.38261(15) 1.1890(3)
H9C H -0.2232 0.4024 1.2542
C9C C -0.23879(9) 0.38827(14) 1.0416(2)
C10C C -0.18554(10) 0.42336(15) 0.9813(3)
H10C H -0.1672 0.3849 0.9217
H11C H -0.1957 0.4664 0.9197
C11C C -0.28063(10) 0.35909(15) 0.9503(3)
H12C H -0.2764 0.3625 0.8512
C12C C -0.32830(10) 0.32522(14) 1.0079(3)
H13C H -0.3551 0.3061 0.9448
C13C C -0.00641(11) 0.35909(17) 0.7678(2)
H14C H -0.0041 0.3517 0.6690
C14C C -0.04471(9) 0.41295(14) 0.8194(3)
H15C H -0.0669 0.4407 0.7556
C15C C -0.04972(8) 0.42537(13) 0.9673(3)
C16C C -0.01604(9) 0.37934(15) 1.0560(2)
H16C H -0.0187 0.3840 1.1553
C17C C 0.02134(10) 0.32673(14) 0.9966(2)
H17C H 0.0430 0.2969 1.0584
C18C C -0.08923(9) 0.48645(16) 1.0285(3)
H18C H -0.0992 0.5224 0.9527
H19C H -0.0697 0.5153 1.1024
C19C C -0.14339(9) 0.45226(14) 1.0931(3)
H20C H -0.1335 0.4096 1.1557
H21C H -0.1613 0.4915 1.1517
C20C C 0.11951(11) 0.47114(15) 0.4722(3)
N1C N 0.02777(7) 0.31673(11) 0.8537(2)
N2C N -0.33790(7) 0.31840(11) 1.1499(2)
N2E N 0.16210(7) 0.18160(11) 0.6499(2)
N2F N 0.16210(7) 0.31840(11) 0.8501(2)
O1C O 0.16275(14) 0.34306(14) 0.3808(3)
O2C O 0.09546(7) 0.33330(12) 0.57164(19)
O3C O 0.06388(18) 0.36727(17) 0.3357(4)
S1C S 0.10855(4) 0.37045(4) 0.43471(7)
Zn1E Zn -0.405547(14) 0.2500 0.2500
Zn1E_2 Zn -0.405547(14) 0.2500 1.2500
loop_
_geom_bond_atom_site_label_1
_geom_bond_atom_site_label_2
_geom_bond_site_symmetry_1
_geom_bond_site_symmetry_2
C1 H1 1_555 1_555
H2 C1 1_555 1_555
H3 C1 1_555 1_555
C2 C1 1_555 1_555
C3 C2 1_555 1_555
H4 C3 1_555 1_555
C4 C3 1_555 1_555
H5 C4 1_555 1_555
C5 H6 1_555 1_555
C6 C2 1_555 1_555
H7 C6 1_555 1_555
C7 H8 1_555 1_555
C8 C7 1_555 1_555
H9 C8 1_555 1_555
C9 C8 1_555 1_555
C10 C9 1_555 1_555
H10 C10 1_555 1_555
H11 C10 1_555 1_555
C11 C9 1_555 1_555
H12 C11 1_555 1_555
C12 C11 1_555 1_555
H13 C12 1_555 1_555
C13 H14 1_555 1_555
C14 C13 1_555 1_555
H15 C14 1_555 1_555
C15 C14 1_555 1_555
C16 C15 1_555 1_555
H16 C16 1_555 1_555
C17 C16 1_555 1_555
H17 C17 1_555 1_555
C18 C15 1_555 1_555
H18 C18 1_555 1_555
H19 C18 1_555 1_555
C19 C10 1_555 1_555
H20 C19 1_555 1_555
H21 C19 1_555 1_555
C20 C4 1_555 1_555
N1 C13 1_555 1_555
N2 C7 1_555 1_555
O1 S1 1_555 1_555
O2 S1 1_555 1_555
O3 S1 1_555 1_555
S1 C20 1_555 1_555
Zn1 N1 1_555 1_555
C1C H1C 1_555 1_555
H2C C1C 1_555 1_555
H3C C1C 1_555 1_555
C2C C1C 1_555 1_555
C3C C2C 1_555 1_555
H4C C3C 1_555 1_555
C4C C3C 1_555 1_555
H5C C4C 1_555 1_555
C5C H6C 1_555 1_555
C6C C2C 1_555 1_555
H7C C6C 1_555 1_555
C7C H8C 1_555 1_555
C8C C7C 1_555 1_555
H9C C8C 1_555 1_555
C9C C8C 1_555 1_555
C10C C9C 1_555 1_555
H10C C10C 1_555 1_555
H11C C10C 1_555 1_555
C11C C9C 1_555 1_555
H12C C11C 1_555 1_555
C12C C11C 1_555 1_555
H13C C12C 1_555 1_555
C13C H14C 1_555 1_555
C14C C13C 1_555 1_555
H15C C14C 1_555 1_555
C15C C14C 1_555 1_555
C16C C15C 1_555 1_555
H16C C16C 1_555 1_555
C17C C16C 1_555 1_555
H17C C17C 1_555 1_555
C18C C15C 1_555 1_555
H18C C18C 1_555 1_555
H19C C18C 1_555 1_555
C19C C10C 1_555 1_555
H20C C19C 1_555 1_555
H21C C19C 1_555 1_555
C20C C4C 1_555 1_555
N1C Zn1 1_555 1_555
N2C C7C 1_555 1_555
N2E Zn1 1_555 1_555
N2F Zn1 1_555 1_555
O1C S1C 1_555 1_555
O2C Zn1 1_555 1_555
O3C S1C 1_555 1_555
S1C C20C 1_555 1_555
Zn1E N2 1_555 1_555
Zn1E_2 N2C 1_555 1_555
C5 C6 1_555 1_555
C5 C20 1_555 1_555
C12 N2 1_555 1_555
C17 N1 1_555 1_555
C18 C19 1_555 1_555
O2 Zn1 1_555 1_555
C5C C6C 1_555 1_555
C5C C20C 1_555 1_555
C12C N2C 1_555 1_555
C13C N1C 1_555 1_555
C17C N1C 1_555 1_555
C18C C19C 1_555 1_555
O2C S1C 1_555 1_555

#END
