
#######################################################################
#
#                 Cambridge Crystallographic Data Centre
#                                CCDC 
#
#######################################################################
#
# If this CIF has been generated from an entry in the Cambridge 
# Structural Database, then it will include bibliographic, chemical, 
# crystal, experimental, refinement or atomic coordinate data resulting 
# from the CCDC's data processing and validation procedures.
#
#######################################################################

data_WAZCAB
_symmetry_cell_setting           orthorhombic
_symmetry_space_group_name_H-M   'C c c m'
_symmetry_Int_Tables_number      66
_space_group_name_Hall           '-C 2 2n'
loop_
_symmetry_equiv_pos_site_id
_symmetry_equiv_pos_as_xyz
1 x,y,z
2 1/2+x,1/2+y,z
3 -x,y,1/2+z
4 1/2-x,1/2+y,1/2+z
5 x,-y,1/2+z
6 1/2+x,1/2-y,1/2+z
7 -x,-y,z
8 1/2-x,1/2-y,z
9 -x,-y,-z
10 1/2-x,1/2-y,-z
11 x,-y,1/2-z
12 1/2+x,1/2-y,1/2-z
13 -x,y,1/2-z
14 1/2-x,1/2+y,1/2-z
15 x,y,-z
16 1/2+x,1/2+y,-z
_cell_length_a                   9.386(2)
_cell_length_b                   14.358(2)
_cell_length_c                   14.439(2)
_cell_angle_alpha                90
_cell_angle_beta                 90
_cell_angle_gamma                90
_cell_volume                     1945.86
loop_
_atom_site_label
_atom_site_type_symbol
_atom_site_fract_x
_atom_site_fract_y
_atom_site_fract_z
Cd1 Cd 0.2500 0.2500 0.0000
Cd2 Cd 0.0000 0.5000 0.2500
N1 N 0.1799(8) 0.3544(4) 0.1141(5)
C1 C 0.1257(8) 0.4057(6) 0.1611(6)
N2 N 0.4769(11) 0.3177(7) 0.0000
C2 C 0.5431(13) 0.3348(11) 0.0772(10)
C3 C 0.6796(23) 0.3774(17) 0.0797(17)
C4 C 0.7419(28) 0.3972(20) 0.0000
H1 H 0.495(17) 0.318(8) 0.151(10)
H2 H 0.685(22) 0.418(12) 0.114(16)
H3 H 0.845(17) 0.420(11) 0.0000
C1F C -0.1257(8) 0.5943(6) 0.1611(6)
N1F N -0.1799(8) 0.6456(4) 0.1141(5)
Cd1F Cd -0.2500 0.7500 0.0000
C1J C 0.1257(8) 0.5943(6) 0.3389(6)
C1L C -0.1257(8) 0.4057(6) 0.3389(6)
N1G N 0.3201(8) 0.1456(4) 0.1141(5)
N1I N 0.3201(8) 0.1456(4) -0.1141(5)
N1N N 0.1799(8) 0.3544(4) -0.1141(5)
N2G N 0.0231(11) 0.1823(7) 0.0000
C2N C 0.5431(13) 0.3348(11) -0.0772(10)
C3N C 0.6796(23) 0.3774(17) -0.0797(17)
H2N H 0.685(22) 0.418(12) -0.114(16)
H1N H 0.495(17) 0.318(8) -0.151(10)
N1J N 0.1799(8) 0.6456(4) 0.3859(5)
N1L N -0.1799(8) 0.3544(4) 0.3859(5)
C2G C -0.0431(13) 0.1652(11) 0.0772(10)
C2I C -0.0431(13) 0.1652(11) -0.0772(10)
Cd1C Cd 0.2500 0.7500 0.5000
Cd1B Cd -0.2500 0.2500 0.5000
C3G C -0.1796(23) 0.1226(17) 0.0797(17)
H1G H 0.005(17) 0.182(8) 0.151(10)
C3I C -0.1796(23) 0.1226(17) -0.0797(17)
H1I H 0.005(17) 0.182(8) -0.151(10)
C4G C -0.2419(28) 0.1028(20) 0.0000
H2G H -0.185(22) 0.082(12) 0.114(16)
H2I H -0.185(22) 0.082(12) -0.114(16)
H3G H -0.345(17) 0.080(11) 0.0000
loop_
_geom_bond_atom_site_label_1
_geom_bond_atom_site_label_2
_geom_bond_site_symmetry_1
_geom_bond_site_symmetry_2
Cd1 N1 1_555 1_555
Cd2 C1 1_555 1_555
N1 C1 1_555 1_555
N2 Cd1 1_555 1_555
C2 N2 1_555 1_555
C3 C2 1_555 1_555
C4 C3 1_555 1_555
H1 C2 1_555 1_555
H2 C3 1_555 1_555
H3 C4 1_555 1_555
C1F Cd2 1_555 1_555
N1F C1F 1_555 1_555
Cd1F N1F 1_555 1_555
C1J Cd2 1_555 1_555
C1L Cd2 1_555 1_555
N1G Cd1 1_555 1_555
N1I Cd1 1_555 1_555
N1N Cd1 1_555 1_555
N2G Cd1 1_555 1_555
C2N N2 1_555 1_555
C3N C4 1_555 1_555
H2N C3N 1_555 1_555
H1N C2N 1_555 1_555
N1J C1J 1_555 1_555
N1L C1L 1_555 1_555
C2G N2G 1_555 1_555
C2I N2G 1_555 1_555
Cd1C N1J 1_555 1_555
Cd1B N1L 1_555 1_555
C3G C2G 1_555 1_555
H1G C2G 1_555 1_555
C3I C2I 1_555 1_555
H1I C2I 1_555 1_555
C4G C3G 1_555 1_555
H2G C3G 1_555 1_555
H2I C3I 1_555 1_555
H3G C4G 1_555 1_555
C2N C3N 1_555 1_555
C3I C4G 1_555 1_555

#END
