
#######################################################################
#
#                 Cambridge Crystallographic Data Centre
#                                CCDC 
#
#######################################################################
#
# If this CIF has been generated from an entry in the Cambridge 
# Structural Database, then it will include bibliographic, chemical, 
# crystal, experimental, refinement or atomic coordinate data resulting 
# from the CCDC's data processing and validation procedures.
#
#######################################################################

data_WAZCIJ
_symmetry_cell_setting           monoclinic
_symmetry_space_group_name_H-M   'P 21/c'
_symmetry_Int_Tables_number      14
_space_group_name_Hall           '-P 2ybc'
loop_
_symmetry_equiv_pos_site_id
_symmetry_equiv_pos_as_xyz
1 x,y,z
2 -x,1/2+y,1/2-z
3 -x,-y,-z
4 x,1/2-y,1/2+z
_cell_length_a                   8.178(2)
_cell_length_b                   20.557(2)
_cell_length_c                   16.244(3)
_cell_angle_alpha                90
_cell_angle_beta                 97.20(2)
_cell_angle_gamma                90
_cell_volume                     2709.33
loop_
_atom_site_label
_atom_site_type_symbol
_atom_site_fract_x
_atom_site_fract_y
_atom_site_fract_z
Cd1 Cd 0.00000 0.00000 0.00000
Cd2 Cd 0.49455(11) 0.17488(4) -0.01952(5)
N1 N 0.1920(13) 0.0818(5) 0.0404(5)
N2 N 0.8032(13) 0.0780(5) -0.0578(5)
N3 N 0.4910(18) 0.3350(5) -0.0146(6)
C1 C 0.2943(14) 0.1168(5) 0.0288(6)
C2 C 0.6989(15) 0.1126(6) -0.0542(6)
C3 C 0.4926(16) 0.2819(5) -0.0204(6)
C4 C -0.2022(18) 0.0182(6) 0.2842(8)
C5 C -0.2631(14) 0.0088(6) 0.1355(7)
N4 N -0.1051(11) 0.0083(5) 0.1272(6)
C6 C 0.0034(16) 0.0126(6) 0.1971(8)
C7 C -0.0386(18) 0.0175(6) 0.2764(9)
C8 C -0.2530(21) 0.0259(7) 0.3671(9)
C9 C -0.4118(24) 0.0262(9) 0.3720(12)
C10 C -0.5314(24) 0.0227(8) 0.3003(12)
C11 C -0.4826(19) 0.0140(8) 0.2193(10)
C12 C -0.3191(15) 0.0146(6) 0.2157(9)
C13 C 0.8284(15) 0.1891(5) 0.2815(6)
C14 C 0.8168(13) 0.1760(5) 0.1339(6)
N5 N 0.6563(11) 0.1798(5) 0.1205(5)
C15 C 0.5768(16) 0.1876(6) 0.1876(7)
C16 C 0.6533(14) 0.1930(6) 0.2667(7)
C17 C 0.9183(16) 0.1931(6) 0.3612(7)
C18 C 1.0835(19) 0.1890(7) 0.3694(8)
C19 C 1.1660(15) 0.1805(6) 0.3020(8)
C20 C 1.0869(15) 0.1757(6) 0.2233(7)
C21 C 0.9108(13) 0.1809(5) 0.2132(6)
C22 C 0.1609(14) 0.1501(6) -0.3194(7)
C23 C 0.1725(14) 0.1552(5) -0.1703(6)
N6 N 0.3342(11) 0.1595(4) -0.1580(5)
C24 C 0.4108(14) 0.1592(5) -0.2277(7)
C25 C 0.3330(15) 0.1557(6) -0.3056(7)
C26 C 0.0671(17) 0.1446(7) -0.3988(7)
C27 C -0.0998(17) 0.1415(8) -0.4066(8)
C28 C -0.1811(16) 0.1412(6) -0.3374(8)
C29 C -0.0962(15) 0.1457(6) -0.2600(7)
C30 C 0.0775(13) 0.1507(5) -0.2492(6)
H1 H -0.35265 0.00482 0.08091
H2 H 0.13303 0.01213 0.19019
H3 H 0.05406 0.02057 0.32984
H4 H -0.16359 0.03103 0.42154
H5 H -0.45345 0.02913 0.43247
H6 H -0.66069 0.02665 0.30711
H7 H -0.57117 0.00737 0.16483
H8 H 0.88249 0.16853 0.08100
H9 H 0.44381 0.18974 0.17799
H10 H 0.58213 0.20011 0.31769
H11 H 0.85508 0.19948 0.41513
H12 H 1.15255 0.19247 0.43045
H13 H 1.29884 0.17754 0.31154
H14 H 1.15399 0.16840 0.17080
H15 H 0.10755 0.15509 -0.11634
H16 H 0.54377 0.16187 -0.21989
H17 H 0.40328 0.15722 -0.35758
H18 H 0.12941 0.14287 -0.45356
H19 H -0.16945 0.13913 -0.46760
H20 H -0.31386 0.13743 -0.34455
H21 H -0.16205 0.14551 -0.20634
N2_2 N -0.1968(13) 0.0780(5) -0.0578(5)
Cd1_2 Cd 1.00000 0.00000 0.00000
N1B N 0.8080(13) -0.0818(5) -0.0404(5)
C1B C 0.7057(14) -0.1168(5) -0.0288(6)
Cd2B Cd 0.50545(11) -0.17488(4) 0.01952(5)
C2B C 0.3011(15) -0.1126(6) 0.0542(6)
N2B N 0.1968(13) -0.0780(5) 0.0578(5)
N1B_2 N -0.1920(13) -0.0818(5) -0.0404(5)
N4B N 0.1051(11) -0.0083(5) -0.1272(6)
C5B C 0.2631(14) -0.0088(6) -0.1355(7)
C12B C 0.3191(15) -0.0146(6) -0.2157(9)
C4B C 0.2022(18) -0.0182(6) -0.2842(8)
C7B C 0.0386(18) -0.0175(6) -0.2764(9)
C6B C -0.0034(16) -0.0126(6) -0.1971(8)
H2B H -0.13303 -0.01213 -0.19019
H3B H -0.05406 -0.02057 -0.32984
C8B C 0.2530(21) -0.0259(7) -0.3671(9)
C9B C 0.4118(24) -0.0262(9) -0.3720(12)
C10B C 0.5314(24) -0.0227(8) -0.3003(12)
C11B C 0.4826(19) -0.0140(8) -0.2193(10)
H7B H 0.57117 -0.00737 -0.16483
H6B H 0.66069 -0.02665 -0.30711
H5B H 0.45345 -0.02913 -0.43247
H4B H 0.16359 -0.03103 -0.42154
H1B H 0.35265 -0.00482 -0.08091
C3B C 0.5074(16) -0.2819(5) 0.0204(6)
N3B N 0.5090(18) -0.3350(5) 0.0146(6)
N5B N 0.3437(11) -0.1798(5) -0.1205(5)
C14B C 0.1832(13) -0.1760(5) -0.1339(6)
C21B C 0.0892(13) -0.1809(5) -0.2132(6)
C13B C 0.1716(15) -0.1891(5) -0.2815(6)
C16B C 0.3467(14) -0.1930(6) -0.2667(7)
C15B C 0.4232(16) -0.1876(6) -0.1876(7)
H9B H 0.55619 -0.18974 -0.17799
H10B H 0.41787 -0.20011 -0.31769
C17B C 0.0817(16) -0.1931(6) -0.3612(7)
C18B C -0.0835(19) -0.1890(7) -0.3694(8)
C19B C -0.1660(15) -0.1805(6) -0.3020(8)
C20B C -0.0869(15) -0.1757(6) -0.2233(7)
H14B H -0.15399 -0.16840 -0.17080
H13B H -0.29884 -0.17754 -0.31154
H12B H -0.15255 -0.19247 -0.43045
H11B H 0.14492 -0.19948 -0.41513
H8B H 0.11751 -0.16853 -0.08100
N6B N 0.6658(11) -0.1595(4) 0.1580(5)
C23B C 0.8275(14) -0.1552(5) 0.1703(6)
C30B C 0.9225(13) -0.1507(5) 0.2492(6)
C22B C 0.8391(14) -0.1501(6) 0.3194(7)
C25B C 0.6670(15) -0.1557(6) 0.3056(7)
C24B C 0.5892(14) -0.1592(5) 0.2277(7)
H16B H 0.45623 -0.16187 0.21989
H17B H 0.59672 -0.15722 0.35758
C26B C 0.9329(17) -0.1446(7) 0.3988(7)
C27B C 1.0998(17) -0.1415(8) 0.4066(8)
C28B C 1.1811(16) -0.1412(6) 0.3374(8)
C29B C 1.0962(15) -0.1457(6) 0.2600(7)
H21B H 1.16205 -0.14551 0.20634
H20B H 1.31386 -0.13743 0.34455
H19B H 1.16945 -0.13913 0.46760
H18B H 0.87059 -0.14287 0.45356
H15B H 0.89245 -0.15509 0.11634
loop_
_geom_bond_atom_site_label_1
_geom_bond_atom_site_label_2
_geom_bond_site_symmetry_1
_geom_bond_site_symmetry_2
Cd1 N1 1_555 1_555
Cd2 C1 1_555 1_555
N1 C1 1_555 1_555
N2 C2 1_555 1_555
N3 C3 1_555 1_555
C2 Cd2 1_555 1_555
C3 Cd2 1_555 1_555
C4 C7 1_555 1_555
C5 N4 1_555 1_555
N4 Cd1 1_555 1_555
C6 N4 1_555 1_555
C7 C6 1_555 1_555
C8 C4 1_555 1_555
C9 C8 1_555 1_555
C10 C9 1_555 1_555
C11 C10 1_555 1_555
C12 C4 1_555 1_555
C13 C16 1_555 1_555
C14 N5 1_555 1_555
N5 Cd2 1_555 1_555
C15 N5 1_555 1_555
C16 C15 1_555 1_555
C17 C13 1_555 1_555
C18 C17 1_555 1_555
C19 C18 1_555 1_555
C20 C19 1_555 1_555
C21 C13 1_555 1_555
C22 C25 1_555 1_555
C23 N6 1_555 1_555
N6 Cd2 1_555 1_555
C24 N6 1_555 1_555
C25 C24 1_555 1_555
C26 C22 1_555 1_555
C27 C26 1_555 1_555
C28 C27 1_555 1_555
C29 C28 1_555 1_555
C30 C22 1_555 1_555
H1 C5 1_555 1_555
H2 C6 1_555 1_555
H3 C7 1_555 1_555
H4 C8 1_555 1_555
H5 C9 1_555 1_555
H6 C10 1_555 1_555
H7 C11 1_555 1_555
H8 C14 1_555 1_555
H9 C15 1_555 1_555
H10 C16 1_555 1_555
H11 C17 1_555 1_555
H12 C18 1_555 1_555
H13 C19 1_555 1_555
H14 C20 1_555 1_555
H15 C23 1_555 1_555
H16 C24 1_555 1_555
H17 C25 1_555 1_555
H18 C26 1_555 1_555
H19 C27 1_555 1_555
H20 C28 1_555 1_555
H21 C29 1_555 1_555
N2_2 Cd1 1_555 1_555
Cd1_2 N2 1_555 1_555
N1B Cd1_2 1_555 1_555
C1B N1B 1_555 1_555
Cd2B C1B 1_555 1_555
C2B Cd2B 1_555 1_555
N2B Cd1 1_555 1_555
N1B_2 Cd1 1_555 1_555
N4B Cd1 1_555 1_555
C5B N4B 1_555 1_555
C12B C5B 1_555 1_555
C4B C12B 1_555 1_555
C7B C4B 1_555 1_555
C6B N4B 1_555 1_555
H2B C6B 1_555 1_555
H3B C7B 1_555 1_555
C8B C4B 1_555 1_555
C9B C8B 1_555 1_555
C10B C9B 1_555 1_555
C11B C12B 1_555 1_555
H7B C11B 1_555 1_555
H6B C10B 1_555 1_555
H5B C9B 1_555 1_555
H4B C8B 1_555 1_555
H1B C5B 1_555 1_555
C3B Cd2B 1_555 1_555
N3B C3B 1_555 1_555
N5B Cd2B 1_555 1_555
C14B N5B 1_555 1_555
C21B C14B 1_555 1_555
C13B C21B 1_555 1_555
C16B C13B 1_555 1_555
C15B N5B 1_555 1_555
H9B C15B 1_555 1_555
H10B C16B 1_555 1_555
C17B C13B 1_555 1_555
C18B C17B 1_555 1_555
C19B C18B 1_555 1_555
C20B C21B 1_555 1_555
H14B C20B 1_555 1_555
H13B C19B 1_555 1_555
H12B C18B 1_555 1_555
H11B C17B 1_555 1_555
H8B C14B 1_555 1_555
N6B Cd2B 1_555 1_555
C23B N6B 1_555 1_555
C30B C23B 1_555 1_555
C22B C30B 1_555 1_555
C25B C22B 1_555 1_555
C24B N6B 1_555 1_555
H16B C24B 1_555 1_555
H17B C25B 1_555 1_555
C26B C22B 1_555 1_555
C27B C26B 1_555 1_555
C28B C27B 1_555 1_555
C29B C30B 1_555 1_555
H21B C29B 1_555 1_555
H20B C28B 1_555 1_555
H19B C27B 1_555 1_555
H18B C26B 1_555 1_555
H15B C23B 1_555 1_555
C5 C12 1_555 1_555
C11 C12 1_555 1_555
C14 C21 1_555 1_555
C20 C21 1_555 1_555
C23 C30 1_555 1_555
C29 C30 1_555 1_555
C2B N2B 1_555 1_555
C7B C6B 1_555 1_555
C10B C11B 1_555 1_555
C16B C15B 1_555 1_555
C19B C20B 1_555 1_555
C25B C24B 1_555 1_555
C28B C29B 1_555 1_555

#END
