
#######################################################################
#
#                 Cambridge Crystallographic Data Centre
#                                CCDC 
#
#######################################################################
#
# If this CIF has been generated from an entry in the Cambridge 
# Structural Database, then it will include bibliographic, chemical, 
# crystal, experimental, refinement or atomic coordinate data resulting 
# from the CCDC's data processing and validation procedures.
#
#######################################################################

data_WAZFUA
_symmetry_cell_setting           monoclinic
_symmetry_space_group_name_H-M   'C 2/c'
_symmetry_Int_Tables_number      15
_space_group_name_Hall           '-C 2yn'
loop_
_symmetry_equiv_pos_site_id
_symmetry_equiv_pos_as_xyz
1 x,y,z
2 -x,y,1/2-z
3 1/2+x,1/2+y,z
4 1/2-x,1/2+y,1/2-z
5 -x,-y,-z
6 x,-y,1/2+z
7 1/2-x,1/2-y,-z
8 1/2+x,1/2-y,1/2+z
_cell_length_a                   25.848(5)
_cell_length_b                   9.2368(18)
_cell_length_c                   17.416(4)
_cell_angle_alpha                90
_cell_angle_beta                 94.41(3)
_cell_angle_gamma                90
_cell_volume                     4145.81
loop_
_atom_site_label
_atom_site_type_symbol
_atom_site_fract_x
_atom_site_fract_y
_atom_site_fract_z
Cd1 Cd 0.31005(4) 1.13337(9) 0.00760(7)
Cl1 Cl 0.29111(12) 1.3958(3) 0.0268(3)
I1 I 0.35153(5) 1.07242(18) -0.12776(9)
N1 N 0.3229(3) 0.7191(9) 0.1389(5)
H1 H 0.3143 0.6341 0.1536
N2 N 0.3197(3) 0.9297(8) 0.0796(5)
O1 O 0.3890(3) 1.1574(8) 0.0905(6)
O2 O 0.4397(3) 1.0439(9) 0.1773(6)
H3 H 0.4471 0.9589 0.1862
O3 O 0.3997(3) 0.6035(11) 0.2437(5)
H4 H 0.3690 0.5705 0.2376
O4 O 0.4443(3) 0.8075(11) 0.2456(5)
C1 C 0.3989(4) 1.0502(12) 0.1335(8)
C2 C 0.3641(4) 0.9275(11) 0.1272(6)
C3 C 0.3670(4) 0.7926(13) 0.1640(5)
C4 C 0.4049(4) 0.7306(14) 0.2221(6)
C5 C 0.2954(4) 0.8022(11) 0.0873(6)
C6 C 0.2461(4) 0.7610(11) 0.0426(6)
H7 H 0.2204 0.8362 0.0478
H8 H 0.2329 0.6722 0.0635
Cd1F Cd 0.18995(4) 0.36663(9) -0.00760(7)
Cd1_2 Cd 0.31005(4) 0.13337(9) 0.00760(7)
Cd1F_2 Cd 0.18995(4) 1.36663(9) -0.00760(7)
Cl1F Cl 0.20889(12) 0.1042(3) -0.0268(3)
Cl1_2 Cl 0.29111(12) 0.3958(3) 0.0268(3)
Cl1F_2 Cl 0.20889(12) 1.1042(3) -0.0268(3)
I1F I 0.14847(5) 0.42758(18) 0.12776(9)
N1F N 0.1771(3) 0.7809(9) -0.1389(5)
H1F H 0.1857 0.8659 -0.1536
N2F N 0.1803(3) 0.5703(8) -0.0796(5)
O1F O 0.1110(3) 0.3426(8) -0.0905(6)
O2F O 0.0603(3) 0.4561(9) -0.1773(6)
H3F H 0.0529 0.5411 -0.1862
O3F O 0.1003(3) 0.8965(11) -0.2437(5)
H4F H 0.1310 0.9295 -0.2376
O4F O 0.0557(3) 0.6925(11) -0.2456(5)
C1F C 0.1011(4) 0.4498(12) -0.1335(8)
C2F C 0.1359(4) 0.5725(11) -0.1272(6)
C3F C 0.1330(4) 0.7074(13) -0.1640(5)
C4F C 0.0951(4) 0.7694(14) -0.2221(6)
C5F C 0.2046(4) 0.6978(11) -0.0873(6)
C6F C 0.2539(4) 0.7390(11) -0.0426(6)
H7F H 0.2796 0.6638 -0.0478
H8F H 0.2671 0.8278 -0.0635
N3 N 0.4552(3) 0.4021(9) 0.1054(5)
H2 H 0.4365 0.3254 0.0986
N4 N 0.5168(3) 0.5445(8) 0.1501(5)
C7 C 0.4883(4) 0.6201(11) 0.0942(6)
C8 C 0.4931(4) 0.7593(13) 0.0659(6)
H9 H 0.5192 0.8211 0.0860
C9 C 0.4584(5) 0.8021(14) 0.0079(6)
H10 H 0.4610 0.8951 -0.0119
C10 C 0.4184(5) 0.7096(13) -0.0235(7)
H11 H 0.3954 0.7426 -0.0634
C11 C 0.4133(4) 0.5737(13) 0.0041(7)
H12 H 0.3872 0.5125 -0.0165
C12 C 0.4481(4) 0.5283(11) 0.0642(6)
C13 C 0.4954(4) 0.4165(10) 0.1577(6)
C14 C 0.5142(4) 0.3002(12) 0.2124(7)
H13 H 0.5511 0.3129 0.2253
H14 H 0.5092 0.2070 0.1873
N3A N 0.5448(3) 0.4021(9) 0.3946(5)
H2A H 0.5635 0.3254 0.4014
N4A N 0.4832(3) 0.5445(8) 0.3499(5)
C7A C 0.5117(4) 0.6201(11) 0.4058(6)
C8A C 0.5069(4) 0.7593(13) 0.4341(6)
H9A H 0.4808 0.8211 0.4140
C9A C 0.5416(5) 0.8021(14) 0.4921(6)
H10A H 0.5390 0.8951 0.5119
C10A C 0.5816(5) 0.7096(13) 0.5235(7)
H11A H 0.6046 0.7426 0.5634
C11A C 0.5867(4) 0.5737(13) 0.4959(7)
H12A H 0.6128 0.5125 0.5165
C12A C 0.5519(4) 0.5283(11) 0.4358(6)
C13A C 0.5046(4) 0.4165(10) 0.3423(6)
C14A C 0.4858(4) 0.3002(12) 0.2876(7)
H13A H 0.4489 0.3129 0.2747
H14A H 0.4908 0.2070 0.3127
O5 O 0.2840(9) 0.480(3) 0.2217(16)
H5 H 0.2841 0.4635 0.2697
H6 H 0.2530 0.4790 0.2016
loop_
_geom_bond_atom_site_label_1
_geom_bond_atom_site_label_2
_geom_bond_site_symmetry_1
_geom_bond_site_symmetry_2
Cd1 Cl1 1_555 1_555
Cl1 Cd1F_2 1_555 1_555
I1 Cd1 1_555 1_555
N1 H1 1_555 1_555
N2 Cd1 1_555 1_555
N3 H2 1_555 1_555
N4 C7 1_555 1_555
O1 Cd1 1_555 1_555
O2 H3 1_555 1_555
O3 H4 1_555 1_555
O4 C4 1_555 1_555
O5 H5 1_555 1_555
H6 O5 1_555 1_555
C1 O1 1_555 1_555
C2 N2 1_555 1_555
C3 N1 1_555 1_555
C4 O3 1_555 1_555
C5 N1 1_555 1_555
C6 C5 1_555 1_555
H7 C6 1_555 1_555
H8 C6 1_555 1_555
C7 C8 1_555 1_555
C8 H9 1_555 1_555
C9 C8 1_555 1_555
H10 C9 1_555 1_555
C10 C9 1_555 1_555
H11 C10 1_555 1_555
C11 C10 1_555 1_555
H12 C11 1_555 1_555
C12 N3 1_555 1_555
C13 N3 1_555 1_555
C14 C13 1_555 1_555
H13 C14 1_555 1_555
H14 C14 1_555 1_555
Cd1F Cl1F 1_555 1_555
Cd1_2 Cl1F 1_555 1_555
Cd1F_2 Cl1F_2 1_555 1_555
Cl1_2 Cd1F 1_555 1_555
Cl1F_2 Cd1 1_555 1_555
I1F Cd1F 1_555 1_555
N1F H1F 1_555 1_555
N2F Cd1F 1_555 1_555
N3A H2A 1_555 1_555
N4A C7A 1_555 1_555
O1F Cd1F 1_555 1_555
O2F H3F 1_555 1_555
O3F H4F 1_555 1_555
O4F C4F 1_555 1_555
C1F O1F 1_555 1_555
C2F N2F 1_555 1_555
C3F N1F 1_555 1_555
C4F O3F 1_555 1_555
C5F N1F 1_555 1_555
C6F C6 1_555 1_555
H7F C6F 1_555 1_555
H8F C6F 1_555 1_555
C7A C8A 1_555 1_555
C8A H9A 1_555 1_555
C9A C8A 1_555 1_555
H10A C9A 1_555 1_555
C10A C9A 1_555 1_555
H11A C10A 1_555 1_555
C11A C10A 1_555 1_555
H12A C11A 1_555 1_555
C12A N3A 1_555 1_555
C13A N3A 1_555 1_555
C14A C14 1_555 1_555
H13A C14A 1_555 1_555
H14A C14A 1_555 1_555
N2 C5 1_555 1_555
N4 C13 1_555 1_555
O2 C1 1_555 1_555
C1 C2 1_555 1_555
C2 C3 1_555 1_555
C3 C4 1_555 1_555
C7 C12 1_555 1_555
C11 C12 1_555 1_555
Cd1_2 Cl1_2 1_555 1_555
N2F C5F 1_555 1_555
N4A C13A 1_555 1_555
O2F C1F 1_555 1_555
C1F C2F 1_555 1_555
C2F C3F 1_555 1_555
C3F C4F 1_555 1_555
C5F C6F 1_555 1_555
C7A C12A 1_555 1_555
C11A C12A 1_555 1_555
C13A C14A 1_555 1_555

#END
