
#######################################################################
#
#                 Cambridge Crystallographic Data Centre
#                                CCDC 
#
#######################################################################
#
# If this CIF has been generated from an entry in the Cambridge 
# Structural Database, then it will include bibliographic, chemical, 
# crystal, experimental, refinement or atomic coordinate data resulting 
# from the CCDC's data processing and validation procedures.
#
#######################################################################

data_WAZGEL
_symmetry_cell_setting           monoclinic
_symmetry_space_group_name_H-M   'P 21/c'
_symmetry_Int_Tables_number      14
_space_group_name_Hall           '-P 2ybc'
loop_
_symmetry_equiv_pos_site_id
_symmetry_equiv_pos_as_xyz
1 x,y,z
2 -x,1/2+y,1/2-z
3 -x,-y,-z
4 x,1/2-y,1/2+z
_cell_length_a                   16.591(2)
_cell_length_b                   5.8816(8)
_cell_length_c                   14.9320(19)
_cell_angle_alpha                90
_cell_angle_beta                 97.809(2)
_cell_angle_gamma                90
_cell_volume                     1443.58
loop_
_atom_site_label
_atom_site_type_symbol
_atom_site_fract_x
_atom_site_fract_y
_atom_site_fract_z
Cd1 Cd 0.5000 0.5000 0.5000
S1 S 0.51143(3) -0.25709(9) 0.34691(4)
O1 O 0.08905(9) 0.1723(3) 0.31552(12)
O2 O -0.03246(8) 0.2154(3) 0.46895(9)
O3 O -0.13397(11) -0.1398(3) 0.43862(13)
N1 N 0.35671(9) 0.4588(3) 0.45667(12)
N2 N 0.04933(9) 0.4974(3) 0.37454(13)
N3 N -0.03143(9) 0.4408(3) 0.34825(13)
N4 N 0.52398(11) 0.1778(3) 0.42222(12)
C1 C 0.30266(11) 0.6203(4) 0.46485(15)
H1 H 0.3209 0.7563 0.4922
C2 C 0.22039(12) 0.5976(4) 0.43481(15)
H2 H 0.1846 0.7164 0.4411
C3 C 0.32900(12) 0.2648(4) 0.41926(17)
H3 H 0.3660 0.1490 0.4132
C4 C 0.24810(12) 0.2264(4) 0.38902(16)
H4 H 0.2312 0.0864 0.3643
C5 C 0.19250(10) 0.3962(4) 0.39552(12)
C6 C 0.10604(11) 0.3444(4) 0.35852(13)
C7 C -0.06777(10) 0.2922(3) 0.39739(13)
C8 C -0.15181(10) 0.2241(4) 0.36286(12)
C9 C -0.20479(12) 0.3690(4) 0.31014(15)
H5 H -0.1869 0.5120 0.2951
C10 C -0.28342(12) 0.3037(5) 0.27992(16)
H6 H -0.3185 0.4025 0.2451
C11 C -0.30989(12) 0.0920(5) 0.30147(15)
H7 H -0.3627 0.0467 0.2798
C12 C -0.25940(13) -0.0537(4) 0.35454(16)
H8 H -0.2782 -0.1961 0.3691
C13 C -0.18006(12) 0.0115(3) 0.38670(15)
C14 C 0.51834(11) -0.0022(3) 0.39181(13)
H9 H -0.0497(15) 0.491(3) 0.3022(17)
H10 H 0.0561(14) 0.600(5) 0.4187(17)
H11 H -0.0962(18) -0.087(6) 0.460(2)
Cd1_2 Cd 0.5000 -0.5000 0.5000
S1B S 0.48857(3) 0.25709(9) 0.65309(4)
S1_2 S 0.51143(3) 0.74291(9) 0.34691(4)
O1B O 0.91095(9) 0.8277(3) 0.68448(12)
O2B O 1.03246(8) 0.7846(3) 0.53105(9)
O3B O 1.13397(11) 1.1398(3) 0.56138(13)
N1B N 0.64329(9) 0.5412(3) 0.54333(12)
N2B N 0.95067(9) 0.5026(3) 0.62546(13)
N3B N 1.03143(9) 0.5592(3) 0.65175(13)
N4B N 0.47602(11) -0.1778(3) 0.57778(12)
N4B_2 N 0.47602(11) 0.8222(3) 0.57778(12)
C1B C 0.69734(11) 0.3797(4) 0.53515(15)
H1B H 0.6791 0.2437 0.5078
C2B C 0.77961(12) 0.4024(4) 0.56519(15)
H2B H 0.8154 0.2836 0.5589
C3B C 0.67100(12) 0.7352(4) 0.58074(17)
H3B H 0.6340 0.8510 0.5868
C4B C 0.75190(12) 0.7736(4) 0.61098(16)
H4B H 0.7688 0.9136 0.6357
C5B C 0.80750(10) 0.6038(4) 0.60448(12)
C6B C 0.89396(11) 0.6556(4) 0.64148(13)
C7B C 1.06777(10) 0.7078(3) 0.60261(13)
C8B C 1.15181(10) 0.7759(4) 0.63714(12)
C9B C 1.20479(12) 0.6310(4) 0.68986(15)
H5B H 1.1869 0.4880 0.7049
C10B C 1.28342(12) 0.6963(5) 0.72008(16)
H6B H 1.3185 0.5975 0.7549
C11B C 1.30989(12) 0.9080(5) 0.69853(15)
H7B H 1.3627 0.9533 0.7202
C12B C 1.25940(13) 1.0537(4) 0.64546(16)
H8B H 1.2782 1.1961 0.6309
C13B C 1.18006(12) 0.9885(3) 0.61330(15)
C14B C 0.48166(11) 0.0022(3) 0.60819(13)
H9B H 1.0497(15) 0.509(3) 0.6978(17)
H10B H 0.9439(14) 0.400(5) 0.5813(17)
H11B H 1.0962(18) 1.087(6) 0.540(2)
loop_
_geom_bond_atom_site_label_1
_geom_bond_atom_site_label_2
_geom_bond_site_symmetry_1
_geom_bond_site_symmetry_2
Cd1 N1 1_555 1_555
S1 C14 1_555 1_555
O1 C6 1_555 1_555
O2 C7 1_555 1_555
O3 C13 1_555 1_555
N1 C1 1_555 1_555
N2 N3 1_555 1_555
N3 C7 1_555 1_555
N4 Cd1 1_555 1_555
C1 H1 1_555 1_555
C2 C1 1_555 1_555
H2 C2 1_555 1_555
C3 N1 1_555 1_555
H3 C3 1_555 1_555
C4 C3 1_555 1_555
H4 C4 1_555 1_555
C5 C2 1_555 1_555
C6 N2 1_555 1_555
C7 C8 1_555 1_555
C8 C9 1_555 1_555
C9 H5 1_555 1_555
C10 C9 1_555 1_555
H6 C10 1_555 1_555
C11 C10 1_555 1_555
H7 C11 1_555 1_555
C12 C11 1_555 1_555
H8 C12 1_555 1_555
C13 C8 1_555 1_555
C14 N4 1_555 1_555
H9 N3 1_555 1_555
H10 N2 1_555 1_555
H11 O3 1_555 1_555
Cd1_2 S1 1_555 1_555
S1B Cd1 1_555 1_555
S1_2 Cd1 1_555 1_555
O1B C6B 1_555 1_555
O2B C7B 1_555 1_555
O3B C13B 1_555 1_555
N1B Cd1 1_555 1_555
N2B N3B 1_555 1_555
N3B C7B 1_555 1_555
N4B Cd1_2 1_555 1_555
N4B_2 Cd1 1_555 1_555
C1B N1B 1_555 1_555
H1B C1B 1_555 1_555
C2B C1B 1_555 1_555
H2B C2B 1_555 1_555
C3B N1B 1_555 1_555
H3B C3B 1_555 1_555
C4B C3B 1_555 1_555
H4B C4B 1_555 1_555
C5B C2B 1_555 1_555
C6B N2B 1_555 1_555
C7B C8B 1_555 1_555
C8B C9B 1_555 1_555
C9B H5B 1_555 1_555
C10B C9B 1_555 1_555
H6B C10B 1_555 1_555
C11B C10B 1_555 1_555
H7B C11B 1_555 1_555
C12B C11B 1_555 1_555
H8B C12B 1_555 1_555
C13B C8B 1_555 1_555
C14B S1B 1_555 1_555
H9B N3B 1_555 1_555
H10B N2B 1_555 1_555
H11B O3B 1_555 1_555
C4 C5 1_555 1_555
C5 C6 1_555 1_555
C12 C13 1_555 1_555
N4B C14B 1_555 1_555
C4B C5B 1_555 1_555
C5B C6B 1_555 1_555
C12B C13B 1_555 1_555

#END
