
#######################################################################
#
#                 Cambridge Crystallographic Data Centre
#                                CCDC 
#
#######################################################################
#
# If this CIF has been generated from an entry in the Cambridge 
# Structural Database, then it will include bibliographic, chemical, 
# crystal, experimental, refinement or atomic coordinate data resulting 
# from the CCDC's data processing and validation procedures.
#
#######################################################################

data_WAZGUB
_symmetry_cell_setting           monoclinic
_symmetry_space_group_name_H-M   'P 21/c'
_symmetry_Int_Tables_number      14
_space_group_name_Hall           '-P 2ybc'
loop_
_symmetry_equiv_pos_site_id
_symmetry_equiv_pos_as_xyz
1 x,y,z
2 -x,1/2+y,1/2-z
3 -x,-y,-z
4 x,1/2-y,1/2+z
_cell_length_a                   8.2678(17)
_cell_length_b                   11.577(2)
_cell_length_c                   17.036(3)
_cell_angle_alpha                90
_cell_angle_beta                 119.033(7)
_cell_angle_gamma                90
_cell_volume                     1425.72
loop_
_atom_site_label
_atom_site_type_symbol
_atom_site_fract_x
_atom_site_fract_y
_atom_site_fract_z
Mn1 Mn -0.11279(4) 0.84674(3) 0.49274(2)
O1 O 0.1256(2) 0.74161(14) 0.58191(10)
O2 O -0.0773(2) 0.78466(15) 0.62348(10)
O3 O -0.0330(2) 0.61843(13) 0.89660(10)
O4 O 0.20191(19) 0.50492(12) 0.98608(9)
N1 N 0.4953(2) 0.37111(15) 0.72032(11)
N2 N 0.3326(2) 0.26131(15) 0.59950(12)
C1 C 0.3920(3) 0.50804(18) 0.79721(14)
C2 C 0.3065(3) 0.58399(18) 0.72554(14)
H1 H 0.3463 0.5875 0.6831
C3 C 0.1632(3) 0.65453(18) 0.71604(13)
C4 C 0.1044(3) 0.64928(17) 0.77926(13)
H2 H 0.0081 0.6965 0.7734
C5 C 0.1877(3) 0.57432(17) 0.85123(13)
C6 C 0.3322(3) 0.50384(18) 0.86015(13)
H3 H 0.3888 0.4537 0.9087
C7 C 0.5454(3) 0.42956(19) 0.80545(14)
H4 H 0.6569 0.4746 0.8235
H5 H 0.5713 0.3723 0.8516
C8 C 0.3526(3) 0.29835(19) 0.67673(15)
H6 H 0.2748 0.2761 0.6991
C9 C 0.4754(3) 0.31570(18) 0.59179(14)
C10 C 0.5770(3) 0.38458(18) 0.66643(15)
C11 C 0.7295(3) 0.4477(2) 0.67796(17)
H7 H 0.7968 0.4936 0.7283
C12 C 0.7754(4) 0.4384(2) 0.61113(19)
H8 H 0.8774 0.4789 0.6164
C13 C 0.6739(4) 0.3700(2) 0.53518(18)
H9 H 0.7099 0.3659 0.4913
C14 C 0.5224(3) 0.3089(2) 0.52402(16)
H10 H 0.4535 0.2646 0.4729
C15 C 0.0653(3) 0.73185(19) 0.63653(14)
C16 C 0.1149(3) 0.56551(18) 0.91615(14)
Mn1B Mn 0.11279(4) 0.15326(3) 0.50726(2)
Mn1A Mn 0.11279(4) 0.34674(3) 0.00726(2)
Mn1A_2 Mn 0.11279(4) 0.34674(3) 1.00726(2)
Mn1C Mn -0.11279(4) 0.65326(3) -0.00726(2)
Mn1C_2 Mn -0.11279(4) 0.65326(3) 0.99274(2)
O1B O -0.1256(2) 0.25839(14) 0.41809(10)
O2B O 0.0773(2) 0.21534(15) 0.37652(10)
O3B O 0.0330(2) 0.38157(13) 0.10340(10)
O3A O 0.0330(2) 0.11843(13) 0.60340(10)
O3C O -0.0330(2) 0.88157(13) 0.39660(10)
O4B O -0.20191(19) 0.49508(12) 0.01392(9)
O4A O -0.20191(19) 1.00492(12) 0.51392(9)
O4C O 0.20191(19) -0.00492(12) 0.48608(9)
N1B N -0.4953(2) 0.62889(15) 0.27968(11)
N2B N -0.3326(2) 0.73869(15) 0.40050(12)
C1B C -0.3920(3) 0.49196(18) 0.20279(14)
C2B C -0.3065(3) 0.41601(18) 0.27446(14)
H1B H -0.3463 0.4125 0.3169
C3B C -0.1632(3) 0.34547(18) 0.28396(13)
C4B C -0.1044(3) 0.35072(17) 0.22074(13)
H2B H -0.0081 0.3035 0.2266
C5B C -0.1877(3) 0.42568(17) 0.14877(13)
C6B C -0.3322(3) 0.49616(18) 0.13985(13)
H3B H -0.3888 0.5463 0.0913
C7B C -0.5454(3) 0.57044(19) 0.19455(14)
H4B H -0.6569 0.5254 0.1765
H5B H -0.5713 0.6277 0.1484
C8B C -0.3526(3) 0.70165(19) 0.32327(15)
H6B H -0.2748 0.7239 0.3009
C9B C -0.4754(3) 0.68430(18) 0.40821(14)
C10B C -0.5770(3) 0.61542(18) 0.33357(15)
C11B C -0.7295(3) 0.5523(2) 0.32204(17)
H7B H -0.7968 0.5064 0.2717
C12B C -0.7754(4) 0.5616(2) 0.38887(19)
H8B H -0.8774 0.5211 0.3836
C13B C -0.6739(4) 0.6300(2) 0.46482(18)
H9B H -0.7099 0.6341 0.5087
C14B C -0.5224(3) 0.6911(2) 0.47598(16)
H10B H -0.4535 0.7354 0.5271
C15B C -0.0653(3) 0.26815(19) 0.36347(14)
C16B C -0.1149(3) 0.43449(18) 0.08385(14)
loop_
_geom_bond_atom_site_label_1
_geom_bond_atom_site_label_2
_geom_bond_site_symmetry_1
_geom_bond_site_symmetry_2
Mn1 O1 1_555 1_555
O1 C15 1_555 1_555
O2 Mn1 1_555 1_555
O3 C16 1_555 1_555
O4 C16 1_555 1_555
N1 C7 1_555 1_555
N2 C8 1_555 1_555
C1 C2 1_555 1_555
C2 H1 1_555 1_555
C3 C2 1_555 1_555
C4 C3 1_555 1_555
H2 C4 1_555 1_555
C5 C4 1_555 1_555
C6 C1 1_555 1_555
H3 C6 1_555 1_555
C7 C1 1_555 1_555
H4 C7 1_555 1_555
H5 C7 1_555 1_555
C8 N1 1_555 1_555
H6 C8 1_555 1_555
C9 N2 1_555 1_555
C10 N1 1_555 1_555
C11 C10 1_555 1_555
H7 C11 1_555 1_555
C12 C11 1_555 1_555
H8 C12 1_555 1_555
C13 C12 1_555 1_555
H9 C13 1_555 1_555
C14 C9 1_555 1_555
H10 C14 1_555 1_555
C15 O2 1_555 1_555
C16 C5 1_555 1_555
Mn1B N2 1_555 1_555
Mn1A O3B 1_555 1_555
Mn1A_2 O4 1_555 1_555
Mn1C O4B 1_555 1_555
Mn1C_2 O3 1_555 1_555
O1B Mn1B 1_555 1_555
O2B Mn1B 1_555 1_555
O3B C16B 1_555 1_555
O3A Mn1B 1_555 1_555
O3C Mn1 1_555 1_555
O4B C16B 1_555 1_555
O4A Mn1 1_555 1_555
O4C Mn1B 1_555 1_555
N1B C7B 1_555 1_555
N2B Mn1 1_555 1_555
C1B C2B 1_555 1_555
C2B H1B 1_555 1_555
C3B C2B 1_555 1_555
C4B C3B 1_555 1_555
H2B C4B 1_555 1_555
C5B C4B 1_555 1_555
C6B C1B 1_555 1_555
H3B C6B 1_555 1_555
C7B C1B 1_555 1_555
H4B C7B 1_555 1_555
H5B C7B 1_555 1_555
C8B N1B 1_555 1_555
H6B C8B 1_555 1_555
C9B N2B 1_555 1_555
C10B N1B 1_555 1_555
C11B C10B 1_555 1_555
H7B C11B 1_555 1_555
C12B C11B 1_555 1_555
H8B C12B 1_555 1_555
C13B C12B 1_555 1_555
H9B C13B 1_555 1_555
C14B C9B 1_555 1_555
H10B C14B 1_555 1_555
C15B O1B 1_555 1_555
C16B C5B 1_555 1_555
C3 C15 1_555 1_555
C5 C6 1_555 1_555
C9 C10 1_555 1_555
C13 C14 1_555 1_555
O2B C15B 1_555 1_555
N2B C8B 1_555 1_555
C3B C15B 1_555 1_555
C5B C6B 1_555 1_555
C9B C10B 1_555 1_555
C13B C14B 1_555 1_555

#END
