
#######################################################################
#
#                 Cambridge Crystallographic Data Centre
#                                CCDC 
#
#######################################################################
#
# If this CIF has been generated from an entry in the Cambridge 
# Structural Database, then it will include bibliographic, chemical, 
# crystal, experimental, refinement or atomic coordinate data resulting 
# from the CCDC's data processing and validation procedures.
#
#######################################################################

data_WAZHIQ
_symmetry_cell_setting           monoclinic
_symmetry_space_group_name_H-M   'P 21/c'
_symmetry_Int_Tables_number      14
_space_group_name_Hall           '-P 2ybc'
loop_
_symmetry_equiv_pos_site_id
_symmetry_equiv_pos_as_xyz
1 x,y,z
2 -x,1/2+y,1/2-z
3 -x,-y,-z
4 x,1/2-y,1/2+z
_cell_length_a                   7.078(5)
_cell_length_b                   27.526(5)
_cell_length_c                   11.604(5)
_cell_angle_alpha                90
_cell_angle_beta                 102.393(5)
_cell_angle_gamma                90
_cell_volume                     2208.12
loop_
_atom_site_label
_atom_site_type_symbol
_atom_site_fract_x
_atom_site_fract_y
_atom_site_fract_z
Cu1 Cu -0.14249(9) 0.09584(3) 0.69352(7)
Cu2 Cu 0.13055(9) 0.17061(3) 0.16981(5)
N1 N -0.3824(5) 0.06510(16) 0.6472(4)
N2 N 0.3356(6) 0.18491(16) 0.2951(3)
N3 N 0.4939(5) 0.21861(14) 0.4618(3)
O1 O 0.0840(5) 0.13028(15) 0.7184(3)
O2 O 0.2403(6) 0.10001(15) 0.8895(4)
O3 O 0.9134(5) 0.16033(15) 1.0490(3)
O4 O 1.0384(6) 0.21556(16) 0.9502(3)
C1 C 0.5434(6) 0.21556(16) 0.6783(4)
C2 C 0.3876(6) 0.18692(17) 0.6920(4)
H3 H 0.2741 0.1872 0.6341
C3 C 0.4002(6) 0.15792(17) 0.7914(4)
C4 C 0.5697(6) 0.15773(17) 0.8773(4)
H4 H 0.5781 0.1384 0.9439
C5 C 0.7264(6) 0.18580(17) 0.8655(4)
C6 C 0.7137(6) 0.21450(17) 0.7647(4)
H5 H 0.8195 0.2330 0.7553
C7 C 0.5260(7) 0.24754(17) 0.5707(4)
H6 H 0.4190 0.2699 0.5671
H7 H 0.6433 0.2665 0.5774
C8 C 0.3270(7) 0.21524(18) 0.3808(4)
H8 H 0.2163 0.2327 0.3853
C9 C 0.5248(7) 0.16636(18) 0.3209(4)
C10 C 0.6241(7) 0.18709(17) 0.4259(4)
C11 C 0.8139(7) 0.17578(19) 0.4763(5)
H9 H 0.8789 0.1900 0.5463
C12 C 0.9016(8) 0.1422(2) 0.4166(6)
H10 H 1.0279 0.1327 0.4488
C13 C 0.8067(10) 0.1223(2) 0.3098(6)
H11 H 0.8729 0.1009 0.2707
C14 C 0.6148(8) 0.1337(2) 0.2600(5)
H12 H 0.5503 0.1199 0.1893
C15 C 0.2315(7) 0.12643(19) 0.8028(4)
C16 C 0.9077(6) 0.18794(19) 0.9606(4)
C17 C -0.4854(7) 0.06965(19) 0.5366(5)
H13 H -0.4326 0.0864 0.4815
C18 C -0.6699(7) 0.0499(2) 0.5024(5)
H14 H -0.7400 0.0543 0.4256
C19 C -0.7494(7) 0.02369(19) 0.5812(5)
C20 C -0.6404(8) 0.0187(2) 0.6936(5)
H15 H -0.6881 0.0016 0.7503
C21 C -0.4618(8) 0.0392(2) 0.7206(5)
H16 H -0.3894 0.0347 0.7968
C22 C -0.9462(8) 0.0014(2) 0.5535(5)
H17 H -0.9953 -0.0111 0.6155
Cu1B Cu -1.85751(9) -0.09584(3) 0.30648(7)
Cu1_2 Cu -1.14249(9) 0.09584(3) -0.30648(7)
Cu2_2 Cu 1.13055(9) 0.17061(3) 1.16981(5)
Cu2_3 Cu -0.86945(9) 0.17061(3) -0.83019(5)
N1B N -1.6176(5) -0.06510(16) 0.3528(4)
N2_2 N -0.6644(6) 0.18491(16) -0.7049(3)
N2_3 N 1.3356(6) 0.18491(16) 1.2951(3)
N3_2 N -0.5061(5) 0.21861(14) -0.5382(3)
O1_2 O -0.9160(5) 0.13028(15) -0.2816(3)
O1B O -2.0840(5) -0.13028(15) 0.2816(3)
O2_2 O -0.7597(6) 0.10001(15) -0.1105(4)
O3_2 O -0.0866(5) 0.16033(15) 0.0490(3)
O4_2 O 0.0384(6) 0.21556(16) -0.0498(3)
C1_2 C -0.4566(6) 0.21556(16) -0.3217(4)
C2_2 C -0.6124(6) 0.18692(17) -0.3080(4)
H3_2 H -0.7259 0.1872 -0.3659
C3_2 C -0.5998(6) 0.15792(17) -0.2086(4)
C4_2 C -0.4303(6) 0.15773(17) -0.1227(4)
H4_2 H -0.4219 0.1384 -0.0561
C5_2 C -0.2736(6) 0.18580(17) -0.1345(4)
C6_2 C -0.2863(6) 0.21450(17) -0.2353(4)
H5_2 H -0.1805 0.2330 -0.2447
C7_2 C -0.4740(7) 0.24754(17) -0.4293(4)
H6_2 H -0.5810 0.2699 -0.4329
H7_2 H -0.3567 0.2665 -0.4226
C8_2 C -0.6730(7) 0.21524(18) -0.6192(4)
H8_2 H -0.7837 0.2327 -0.6147
C9_2 C -0.4752(7) 0.16636(18) -0.6791(4)
C10_2 C -0.3759(7) 0.18709(17) -0.5741(4)
C11_2 C -0.1861(7) 0.17578(19) -0.5237(5)
H9_2 H -0.1211 0.1900 -0.4537
C12_2 C -0.0984(8) 0.1422(2) -0.5834(6)
H10_2 H 0.0279 0.1327 -0.5512
C13_2 C -0.1933(10) 0.1223(2) -0.6902(6)
H11_2 H -0.1271 0.1009 -0.7293
C14_2 C -0.3852(8) 0.1337(2) -0.7400(5)
H12_2 H -0.4497 0.1199 -0.8107
C15_2 C -0.7685(7) 0.12643(19) -0.1972(4)
C16_2 C -0.0923(6) 0.18794(19) -0.0394(4)
C17B C -1.5146(7) -0.06965(19) 0.4634(5)
H13B H -1.5674 -0.0864 0.5185
C18B C -1.3301(7) -0.0499(2) 0.4976(5)
H14B H -1.2600 -0.0543 0.5744
C19B C -1.2506(7) -0.02369(19) 0.4188(5)
C20B C -1.3596(8) -0.0187(2) 0.3064(5)
H15B H -1.3119 -0.0016 0.2497
C21B C -1.5382(8) -0.0392(2) 0.2794(5)
H16B H -1.6106 -0.0347 0.2032
C22B C -1.0538(8) -0.0014(2) 0.4465(5)
H17B H -1.0047 0.0111 0.3845
O5 O 0.4997(13) 0.0461(2) 0.0464(5)
H1 H 0.4249 0.0525 -0.0358
H2 H 0.6396 0.0465 0.0586
O6 O 0.9214(15) 0.0553(4) 0.9627(11)
O7 O 0.166(2) 0.0575(6) 0.2002(12)
loop_
_geom_bond_atom_site_label_1
_geom_bond_atom_site_label_2
_geom_bond_site_symmetry_1
_geom_bond_site_symmetry_2
Cu1 N1 1_555 1_555
Cu2 N2 1_555 1_555
N1 C17 1_555 1_555
N2 C8 1_555 1_555
N3 C7 1_555 1_555
O1 Cu1 1_555 1_555
O2 C15 1_555 1_555
O3 C16 1_555 1_555
O4 C16 1_555 1_555
O5 H1 1_555 1_555
H2 O5 1_555 1_555
C1 C2 1_555 1_555
C2 H3 1_555 1_555
C3 C2 1_555 1_555
C4 C3 1_555 1_555
H4 C4 1_555 1_555
C5 C4 1_555 1_555
C6 C1 1_555 1_555
H5 C6 1_555 1_555
C7 C1 1_555 1_555
H6 C7 1_555 1_555
H7 C7 1_555 1_555
C8 N3 1_555 1_555
H8 C8 1_555 1_555
C9 N2 1_555 1_555
C10 N3 1_555 1_555
C11 C10 1_555 1_555
H9 C11 1_555 1_555
C12 C11 1_555 1_555
H10 C12 1_555 1_555
C13 C12 1_555 1_555
H11 C13 1_555 1_555
C14 C9 1_555 1_555
H12 C14 1_555 1_555
C15 O1 1_555 1_555
C16 C5 1_555 1_555
C17 H13 1_555 1_555
C18 C17 1_555 1_555
H14 C18 1_555 1_555
C19 C18 1_555 1_555
C20 C19 1_555 1_555
H15 C20 1_555 1_555
C21 N1 1_555 1_555
H16 C21 1_555 1_555
C22 C19 1_555 1_555
H17 C22 1_555 1_555
Cu1B N1B 1_555 1_555
Cu1_2 O1_2 1_555 1_555
Cu2_2 O3 1_555 1_555
Cu2_3 N2_2 1_555 1_555
N1B C17B 1_555 1_555
N2_2 C8_2 1_555 1_555
N2_3 Cu2_2 1_555 1_555
N3_2 C7_2 1_555 1_555
O1_2 C15_2 1_555 1_555
O1B Cu1B 1_555 1_555
O2_2 C15_2 1_555 1_555
O3_2 Cu2 1_555 1_555
O4_2 C16_2 1_555 1_555
C1_2 C2_2 1_555 1_555
C2_2 H3_2 1_555 1_555
C3_2 C2_2 1_555 1_555
C4_2 C3_2 1_555 1_555
H4_2 C4_2 1_555 1_555
C5_2 C4_2 1_555 1_555
C6_2 C1_2 1_555 1_555
H5_2 C6_2 1_555 1_555
C7_2 C1_2 1_555 1_555
H6_2 C7_2 1_555 1_555
H7_2 C7_2 1_555 1_555
C8_2 N3_2 1_555 1_555
H8_2 C8_2 1_555 1_555
C9_2 N2_2 1_555 1_555
C10_2 N3_2 1_555 1_555
C11_2 C10_2 1_555 1_555
H9_2 C11_2 1_555 1_555
C12_2 C11_2 1_555 1_555
H10_2 C12_2 1_555 1_555
C13_2 C12_2 1_555 1_555
H11_2 C13_2 1_555 1_555
C14_2 C9_2 1_555 1_555
H12_2 C14_2 1_555 1_555
C15_2 C3_2 1_555 1_555
C16_2 O3_2 1_555 1_555
C17B H13B 1_555 1_555
C18B C17B 1_555 1_555
H14B C18B 1_555 1_555
C19B C18B 1_555 1_555
C20B C19B 1_555 1_555
H15B C20B 1_555 1_555
C21B N1B 1_555 1_555
H16B C21B 1_555 1_555
C22B C22 1_555 1_555
H17B C22B 1_555 1_555
C3 C15 1_555 1_555
C5 C6 1_555 1_555
C9 C10 1_555 1_555
C13 C14 1_555 1_555
C20 C21 1_555 1_555
C5_2 C6_2 1_555 1_555
C5_2 C16_2 1_555 1_555
C9_2 C10_2 1_555 1_555
C13_2 C14_2 1_555 1_555
C19B C22B 1_555 1_555
C20B C21B 1_555 1_555

#END
