
#######################################################################
#
#                 Cambridge Crystallographic Data Centre
#                                CCDC 
#
#######################################################################
#
# If this CIF has been generated from an entry in the Cambridge 
# Structural Database, then it will include bibliographic, chemical, 
# crystal, experimental, refinement or atomic coordinate data resulting 
# from the CCDC's data processing and validation procedures.
#
#######################################################################

data_WAZHEM
_symmetry_cell_setting           monoclinic
_symmetry_space_group_name_H-M   'P c'
_symmetry_Int_Tables_number      7
_space_group_name_Hall           'P -2yc'
loop_
_symmetry_equiv_pos_site_id
_symmetry_equiv_pos_as_xyz
1 x,y,z
2 x,-y,1/2+z
_cell_length_a                   6.697(6)
_cell_length_b                   8.639(8)
_cell_length_c                   11.398(11)
_cell_angle_alpha                90
_cell_angle_beta                 90.93(4)
_cell_angle_gamma                90
_cell_volume                     659.349
loop_
_atom_site_label
_atom_site_type_symbol
_atom_site_fract_x
_atom_site_fract_y
_atom_site_fract_z
Cu1 Cu 0.04706(9) 0.93685(11) 0.94665(8)
O1 O 0.2190(11) 0.9310(7) 1.0801(6)
O2 O 0.0174(10) 0.7389(8) 1.1242(6)
O3 O 0.8270(10) 1.0153(9) 1.3345(6)
O4 O 0.8389(9) 0.9178(7) 1.5089(6)
N1 N 0.2174(11) 0.6678(10) 1.6745(7)
N2 N 0.1843(10) 0.8022(10) 1.8391(6)
C1 C 0.2750(13) 0.7052(10) 1.4620(8)
C2 C 0.1855(14) 0.7214(12) 1.3528(9)
H1 H 0.0609 0.6719 1.3381
C3 C 0.2701(13) 0.8069(11) 1.2637(8)
C4 C 0.4555(13) 0.8749(10) 1.2818(8)
H2 H 0.5166 0.9317 1.2206
C5 C 0.5515(13) 0.8591(9) 1.3905(8)
C6 C 0.4630(13) 0.7773(11) 1.4788(8)
H3 H 0.5294 0.7689 1.5529
C7 C 0.1737(13) 0.6173(11) 1.5551(8)
H4 H 0.0277 0.6244 1.5411
H5 H 0.2116 0.5070 1.5482
C8 C 0.1095(15) 0.7675(11) 1.7377(9)
H6 H -0.0133 0.8095 1.7096
C9 C 0.3645(12) 0.7176(11) 1.8449(8)
C10 C 0.3854(12) 0.6329(11) 1.7437(8)
C11 C 0.5505(17) 0.5390(12) 1.7223(9)
H7 H 0.5621 0.4806 1.6521
C12 C 0.6947(16) 0.5362(13) 1.8089(10)
H8 H 0.8092 0.4731 1.7985
C13 C 0.6797(14) 0.6226(12) 1.9119(9)
H9 H 0.7853 0.6189 1.9685
C14 C 0.5156(13) 0.7127(11) 1.9330(9)
H10 H 0.5039 0.7696 2.0038
C15 C 0.1586(13) 0.8224(11) 1.1478(8)
C16 C 0.7491(14) 0.9342(9) 1.4123(9)
Cu1A Cu 1.04706(9) 1.06315(11) 1.44665(8)
Cu1_2 Cu 0.04706(9) 0.93685(11) 1.94665(8)
O3A O -0.1730(10) 0.9847(9) 0.8345(6)
O4A O -0.1611(9) 1.0822(7) 1.0089(6)
N2_2 N 0.1843(10) 0.8022(10) 0.8391(6)
loop_
_geom_bond_atom_site_label_1
_geom_bond_atom_site_label_2
_geom_bond_site_symmetry_1
_geom_bond_site_symmetry_2
Cu1 O1 1_555 1_555
O1 C15 1_555 1_555
O2 C15 1_555 1_555
O3 C16 1_555 1_555
O4 C16 1_555 1_555
N1 C7 1_555 1_555
N2 C8 1_555 1_555
C1 C2 1_555 1_555
C2 H1 1_555 1_555
C3 C2 1_555 1_555
C4 C3 1_555 1_555
H2 C4 1_555 1_555
C5 C4 1_555 1_555
C6 C1 1_555 1_555
H3 C6 1_555 1_555
C7 C1 1_555 1_555
H4 C7 1_555 1_555
H5 C7 1_555 1_555
C8 N1 1_555 1_555
H6 C8 1_555 1_555
C9 N2 1_555 1_555
C10 N1 1_555 1_555
C11 C10 1_555 1_555
H7 C11 1_555 1_555
C12 C11 1_555 1_555
H8 C12 1_555 1_555
C13 C12 1_555 1_555
H9 C13 1_555 1_555
C14 C9 1_555 1_555
H10 C14 1_555 1_555
C15 C3 1_555 1_555
C16 C5 1_555 1_555
Cu1A O3 1_555 1_555
Cu1_2 N2 1_555 1_555
O3A Cu1 1_555 1_555
O4A Cu1 1_555 1_555
N2_2 Cu1 1_555 1_555
O4 Cu1A 1_555 1_555
C5 C6 1_555 1_555
C9 C10 1_555 1_555
C13 C14 1_555 1_555

#END
