
#######################################################################
#
#                 Cambridge Crystallographic Data Centre
#                                CCDC 
#
#######################################################################
#
# If this CIF has been generated from an entry in the Cambridge 
# Structural Database, then it will include bibliographic, chemical, 
# crystal, experimental, refinement or atomic coordinate data resulting 
# from the CCDC's data processing and validation procedures.
#
#######################################################################

data_WAZHAI
_symmetry_cell_setting           monoclinic
_symmetry_space_group_name_H-M   'P 21/c'
_symmetry_Int_Tables_number      14
_space_group_name_Hall           '-P 2ybc'
loop_
_symmetry_equiv_pos_site_id
_symmetry_equiv_pos_as_xyz
1 x,y,z
2 -x,1/2+y,1/2-z
3 -x,-y,-z
4 x,1/2-y,1/2+z
_cell_length_a                   15.1916(19)
_cell_length_b                   10.7173(14)
_cell_length_c                   15.777(2)
_cell_angle_alpha                90
_cell_angle_beta                 114.051(2)
_cell_angle_gamma                90
_cell_volume                     2345.69
loop_
_atom_site_label
_atom_site_type_symbol
_atom_site_fract_x
_atom_site_fract_y
_atom_site_fract_z
C1 C 0.56542(19) 0.6090(3) 0.5934(2)
C2 C 0.5753(2) 0.5214(3) 0.6608(2)
H1 H 0.5418 0.5317 0.6982
C3 C 0.6350(2) 0.4174(3) 0.6736(2)
C4 C 0.6851(2) 0.4042(3) 0.6174(2)
H2 H 0.7298 0.3401 0.6290
C5 C 0.66922(18) 0.4855(3) 0.5443(2)
C6 C 0.60946(19) 0.5879(3) 0.5325(2)
H3 H 0.5987 0.6428 0.4837
C7 C 0.5050(2) 0.7250(3) 0.5820(2)
H4 H 0.4586 0.7316 0.5180
H5 H 0.4695 0.7184 0.6209
C8 C 0.6048(2) 0.8875(3) 0.6932(2)
H6 H 0.5911 0.8600 0.7424
C9 C 0.6634(2) 0.9919(3) 0.6118(2)
C10 C 0.6004(2) 0.9030(3) 0.5528(2)
C11 C 0.5817(2) 0.8968(3) 0.4591(2)
H7 H 0.5392 0.8386 0.4197
C12 C 0.6300(3) 0.9818(4) 0.4277(3)
H8 H 0.6188 0.9808 0.3652
C13 C 0.6943(3) 1.0687(3) 0.4853(3)
H9 H 0.7257 1.1234 0.4612
C14 C 0.7119(2) 1.0745(3) 0.5783(3)
H10 H 0.7552 1.1322 0.6174
C15 C 0.6393(2) 0.3140(3) 0.7409(2)
C16 C 0.7077(2) 0.4580(3) 0.4727(2)
C17 C 0.8012(3) -0.2385(4) 0.8894(3)
H11 H 0.7367 -0.2418 0.8800
C18 C 0.8529(3) -0.3466(4) 0.9116(3)
H12 H 0.8240 -0.4215 0.9157
C19 C 0.9503(3) -0.3420(4) 0.9280(3)
H13 H 0.9888 -0.4131 0.9446
C20 C 0.9878(3) -0.2262(4) 0.9187(3)
H14 H 1.0521 -0.2187 0.9283
C21 C 0.9292(2) -0.1248(3) 0.8953(2)
C22 C 0.9628(2) -0.0024(3) 0.8810(2)
C23 C 0.9599(2) 0.1915(3) 0.8415(2)
C24 C 1.0574(2) 0.1497(3) 0.8694(2)
C25 C 1.1282(3) 0.2245(4) 0.8668(3)
H15 H 1.1907 0.1951 0.8838
C26 C 1.1042(3) 0.3441(4) 0.8383(3)
H16 H 1.1510 0.3977 0.8355
C27 C 1.0111(3) 0.3875(4) 0.8133(3)
H17 H 0.9984 0.4706 0.7957
C28 C 0.9369(2) 0.3153(3) 0.8131(3)
H18 H 0.8748 0.3466 0.7951
Mn1 Mn 0.75250(3) 0.07615(4) 0.82925(3)
N1 N 0.8376(2) -0.1275(3) 0.8804(2)
N2 N 0.90353(18) 0.0955(3) 0.84880(19)
N3 N 1.05427(18) 0.0264(3) 0.8934(2)
H19 H 1.1000 -0.0315 0.9140
N4 N 0.56537(16) 0.8375(2) 0.60752(18)
N5 N 0.66501(17) 0.9795(3) 0.70007(18)
O1 O 0.71892(16) 0.2542(2) 0.77535(17)
O2 O 0.56732(18) 0.2925(3) 0.7546(2)
O3 O 0.66338(15) 0.5005(2) 0.39301(16)
O4 O 0.78272(15) 0.3922(2) 0.49373(16)
Mn1_2 Mn 0.75250(3) 1.07615(4) 0.82925(3)
Mn1C Mn 0.75250(3) 0.42385(4) 0.32925(3)
N5_2 N 0.66501(17) -0.0205(3) 0.70007(18)
O3C O 0.66338(15) -0.0005(2) 0.89301(16)
O4C O 0.78272(15) 0.1078(2) 0.99373(16)
loop_
_geom_bond_atom_site_label_1
_geom_bond_atom_site_label_2
_geom_bond_site_symmetry_1
_geom_bond_site_symmetry_2
C1 C2 1_555 1_555
C2 H1 1_555 1_555
C3 C2 1_555 1_555
C4 C3 1_555 1_555
H2 C4 1_555 1_555
C5 C4 1_555 1_555
C6 C1 1_555 1_555
H3 C6 1_555 1_555
C7 C1 1_555 1_555
H4 C7 1_555 1_555
H5 C7 1_555 1_555
C8 H6 1_555 1_555
C9 C10 1_555 1_555
C10 C11 1_555 1_555
C11 H7 1_555 1_555
C12 C11 1_555 1_555
H8 C12 1_555 1_555
C13 C12 1_555 1_555
H9 C13 1_555 1_555
C14 C9 1_555 1_555
H10 C14 1_555 1_555
C15 C3 1_555 1_555
C16 C5 1_555 1_555
C17 H11 1_555 1_555
C18 C17 1_555 1_555
H12 C18 1_555 1_555
C19 C18 1_555 1_555
H13 C19 1_555 1_555
C20 C19 1_555 1_555
H14 C20 1_555 1_555
C21 C20 1_555 1_555
C22 C21 1_555 1_555
C23 C24 1_555 1_555
C24 C25 1_555 1_555
C25 H15 1_555 1_555
C26 C25 1_555 1_555
H16 C26 1_555 1_555
C27 C26 1_555 1_555
H17 C27 1_555 1_555
C28 C23 1_555 1_555
H18 C28 1_555 1_555
Mn1 N2 1_555 1_555
N1 C17 1_555 1_555
N2 C22 1_555 1_555
N3 C22 1_555 1_555
H19 N3 1_555 1_555
N4 C7 1_555 1_555
N5 C8 1_555 1_555
O1 C15 1_555 1_555
O2 C15 1_555 1_555
O3 C16 1_555 1_555
O4 C16 1_555 1_555
Mn1_2 N5 1_555 1_555
Mn1C O3 1_555 1_555
N5_2 Mn1 1_555 1_555
O3C Mn1 1_555 1_555
O4C Mn1 1_555 1_555
C5 C6 1_555 1_555
C8 N4 1_555 1_555
C9 N5 1_555 1_555
C10 N4 1_555 1_555
C13 C14 1_555 1_555
C21 N1 1_555 1_555
C23 N2 1_555 1_555
C24 N3 1_555 1_555
C27 C28 1_555 1_555
Mn1 O1 1_555 1_555
O4 Mn1C 1_555 1_555

#END
