
#######################################################################
#
#                 Cambridge Crystallographic Data Centre
#                                CCDC 
#
#######################################################################
#
# If this CIF has been generated from an entry in the Cambridge 
# Structural Database, then it will include bibliographic, chemical, 
# crystal, experimental, refinement or atomic coordinate data resulting 
# from the CCDC's data processing and validation procedures.
#
#######################################################################

data_WAZKOZ
_symmetry_cell_setting           monoclinic
_symmetry_space_group_name_H-M   'P 21/n'
_symmetry_Int_Tables_number      14
_space_group_name_Hall           '-P 2yn'
loop_
_symmetry_equiv_pos_site_id
_symmetry_equiv_pos_as_xyz
1 x,y,z
2 1/2-x,1/2+y,1/2-z
3 -x,-y,-z
4 1/2+x,1/2-y,1/2+z
_cell_length_a                   12.1863(7)
_cell_length_b                   12.3114(7)
_cell_length_c                   13.6740(9)
_cell_angle_alpha                90
_cell_angle_beta                 103.059(7)
_cell_angle_gamma                90
_cell_volume                     1998.46
loop_
_atom_site_label
_atom_site_type_symbol
_atom_site_fract_x
_atom_site_fract_y
_atom_site_fract_z
Ag1 Ag 0.91792(4) 0.03528(4) 0.15417(3)
C1 C 0.8554(4) 0.0361(4) 0.4673(4)
N1 N 0.9008(3) 0.1359(4) 0.4559(3)
N2 N 0.9277(4) 0.1418(4) 0.3652(3)
N3 N 0.8998(4) 0.0504(4) 0.3177(4)
N4 N 0.8713(4) 0.3264(4) 0.4716(3)
C2 C 0.8166(6) -0.0108(6) 0.5455(5)
H1 H 0.8186 0.0253 0.6056
C3 C 0.8551(4) -0.0173(4) 0.3781(4)
C4 C 0.8109(5) -0.1226(5) 0.3607(5)
H2 H 0.8096 -0.1593 0.3010
C5 C 0.9227(4) 0.2293(5) 0.5227(4)
H3 H 0.8925 0.2159 0.5814
H4 H 1.0034 0.2400 0.5450
C6 C 0.7748(6) -0.1154(6) 0.5275(6)
H5 H 0.7491 -0.1517 0.5776
C7 C 1.0282(5) 0.3930(6) 0.3909(5)
H6 H 1.0797 0.3376 0.4134
C8 C 0.7704(5) -0.1676(6) 0.4357(6)
H7 H 0.7381 -0.2363 0.4259
C9 C 0.9227(4) 0.3953(5) 0.4150(4)
Cl1 Cl 1.12133(14) -0.18016(14) 0.18694(11)
O1 O 1.1320(11) -0.1727(8) 0.0904(5)
O2 O 1.1712(6) -0.2711(5) 0.2401(5)
C10 C 1.0521(6) 0.4767(7) 0.3322(6)
H8 H 1.1217 0.4781 0.3151
O3 O 1.1885(9) -0.0861(7) 0.2334(6)
O4 O 1.0148(7) -0.1619(9) 0.2025(9)
C11 C 0.8449(5) 0.4776(4) 0.3819(4)
C12 C 0.7676(4) 0.3695(4) 0.4704(4)
C13 C 0.8694(6) 0.5621(5) 0.3215(5)
H9 H 0.8178 0.6173 0.2985
C14 C 0.9745(6) 0.5596(6) 0.2975(6)
H10 H 0.9937 0.6143 0.2575
N5 N 0.7482(4) 0.4597(3) 0.4177(3)
N6 N 0.6811(4) 0.2156(4) 0.5324(4)
C15 C 0.6869(4) 0.3225(4) 0.5241(4)
C16 C 0.6187(5) 0.3909(5) 0.5647(4)
H11 H 0.6255 0.4656 0.5575
N7 N 0.5446(4) 0.3538(4) 0.6131(3)
C17 C 0.5392(5) 0.2452(5) 0.6211(5)
H12 H 0.4879 0.2147 0.6542
C18 C 0.6077(5) 0.1787(5) 0.5813(5)
H13 H 0.6020 0.1041 0.5891
Ag1A Ag 0.58208(4) 0.53528(4) 0.34583(3)
Ag1C Ag 0.41792(4) 0.46472(4) 0.65417(3)
N5A N 0.7518(4) -0.0403(3) 0.0823(3)
N7C N 1.0446(4) 0.1462(4) 0.1131(3)
loop_
_geom_bond_atom_site_label_1
_geom_bond_atom_site_label_2
_geom_bond_site_symmetry_1
_geom_bond_site_symmetry_2
Ag1 N3 1_555 1_555
C1 N1 1_555 1_555
N1 N2 1_555 1_555
N2 N3 1_555 1_555
N3 C3 1_555 1_555
N4 C5 1_555 1_555
C2 C1 1_555 1_555
H1 C2 1_555 1_555
C3 C1 1_555 1_555
C4 C3 1_555 1_555
H2 C4 1_555 1_555
C5 N1 1_555 1_555
H3 C5 1_555 1_555
H4 C5 1_555 1_555
C6 C2 1_555 1_555
H5 C6 1_555 1_555
C7 H6 1_555 1_555
C8 C4 1_555 1_555
H7 C8 1_555 1_555
C9 N4 1_555 1_555
Cl1 O1 1_555 1_555
O2 Cl1 1_555 1_555
C10 C7 1_555 1_555
H8 C10 1_555 1_555
O3 Cl1 1_555 1_555
O4 Ag1 1_555 1_555
C11 C9 1_555 1_555
C12 N4 1_555 1_555
C13 C11 1_555 1_555
H9 C13 1_555 1_555
C14 C10 1_555 1_555
H10 C14 1_555 1_555
N5 C11 1_555 1_555
N6 C15 1_555 1_555
C15 C12 1_555 1_555
C16 C15 1_555 1_555
H11 C16 1_555 1_555
N7 C16 1_555 1_555
C17 N7 1_555 1_555
H12 C17 1_555 1_555
C18 N6 1_555 1_555
H13 C18 1_555 1_555
Ag1A N5 1_555 1_555
Ag1C N7 1_555 1_555
N5A Ag1 1_555 1_555
N7C Ag1 1_555 1_555
C6 C8 1_555 1_555
C7 C9 1_555 1_555
Cl1 O4 1_555 1_555
C12 N5 1_555 1_555
C13 C14 1_555 1_555
C17 C18 1_555 1_555

#END
