
#######################################################################
#
#                 Cambridge Crystallographic Data Centre
#                                CCDC 
#
#######################################################################
#
# If this CIF has been generated from an entry in the Cambridge 
# Structural Database, then it will include bibliographic, chemical, 
# crystal, experimental, refinement or atomic coordinate data resulting 
# from the CCDC's data processing and validation procedures.
#
#######################################################################

data_WAZKUF
_symmetry_cell_setting           monoclinic
_symmetry_space_group_name_H-M   'P 21/c'
_symmetry_Int_Tables_number      14
_space_group_name_Hall           '-P 2ybc'
loop_
_symmetry_equiv_pos_site_id
_symmetry_equiv_pos_as_xyz
1 x,y,z
2 -x,1/2+y,1/2-z
3 -x,-y,-z
4 x,1/2-y,1/2+z
_cell_length_a                   12.1197(4)
_cell_length_b                   12.6564(4)
_cell_length_c                   16.2351(8)
_cell_angle_alpha                90
_cell_angle_beta                 120.112(3)
_cell_angle_gamma                90
_cell_volume                     2154.25
loop_
_atom_site_label
_atom_site_type_symbol
_atom_site_fract_x
_atom_site_fract_y
_atom_site_fract_z
Ag1 Ag 0.28613(3) -0.06037(3) 0.84867(3)
S1 S 0.40916(12) 0.14048(11) 0.77052(9)
F1 F 0.6275(3) 0.1933(4) 0.9164(3)
F2 F 0.4933(4) 0.3208(3) 0.8577(3)
F3 F 0.5913(4) 0.2647(4) 0.7872(3)
O1 O 0.4683(5) 0.0563(4) 0.7490(4)
O2 O 0.3207(4) 0.1996(4) 0.6896(3)
O3 O 0.3710(5) 0.1178(4) 0.8380(4)
N1 N 0.1259(3) -0.0873(3) 0.6948(3)
N2 N 0.1027(3) -0.1789(3) 0.6533(3)
N3 N -0.0119(3) -0.1733(3) 0.5725(3)
N4 N -0.0746(3) -0.3569(3) 0.5553(3)
N5 N -0.1656(3) -0.4867(3) 0.5933(3)
N6 N -0.3045(4) -0.2355(3) 0.5118(3)
N7 N -0.5320(3) -0.3469(3) 0.4177(3)
C1 C -0.0622(4) -0.0752(4) 0.5617(3)
C2 C -0.1761(4) -0.0278(4) 0.4908(3)
H1 H -0.2370 -0.0620 0.4359
C3 C -0.1930(5) 0.0742(5) 0.5082(4)
H2 H -0.2660 0.1112 0.4656
C4 C -0.1051(5) 0.1305(4) 0.5890(4)
H3 H -0.1195 0.2003 0.5991
C5 C 0.0064(5) 0.0851(4) 0.6565(4)
H4 H 0.0676 0.1206 0.7103
C6 C 0.0269(4) -0.0204(4) 0.6418(3)
C7 C -0.0598(4) -0.2647(4) 0.5092(3)
H5 H -0.0014 -0.2807 0.4865
H6 H -0.1416 -0.2474 0.4541
C8 C 0.0200(4) -0.4310(4) 0.6060(3)
C9 C 0.1487(5) -0.4342(5) 0.6328(4)
H7 H 0.1875 -0.3813 0.6164
C10 C 0.2165(5) -0.5199(5) 0.6850(5)
H8 H 0.3030 -0.5258 0.7054
C11 C 0.1605(6) -0.6002(5) 0.7111(5)
H9 H 0.2092 -0.6575 0.7465
C12 C 0.0339(5) -0.5971(4) 0.6840(4)
H10 H -0.0039 -0.6497 0.7015
C13 C -0.0378(4) -0.5117(4) 0.6298(3)
C14 C -0.1836(4) -0.3955(4) 0.5508(3)
C15 C -0.3066(4) -0.3400(4) 0.5040(3)
C16 C -0.4169(5) -0.1877(4) 0.4728(4)
H11 H -0.4202 -0.1146 0.4766
C17 C -0.5298(5) -0.2428(4) 0.4276(4)
H12 H -0.6064 -0.2064 0.4040
C18 C -0.4202(4) -0.3953(4) 0.4560(3)
H13 H -0.4165 -0.4683 0.4510
C19 C 0.5346(5) 0.2350(5) 0.8343(4)
Ag1A Ag -0.28613(3) -0.56037(3) 0.65133(3)
Ag1C Ag -0.71387(3) -0.43963(3) 0.34867(3)
N5A N 0.1656(3) 0.0133(3) 0.9067(3)
N7C N 0.4680(3) -0.1531(3) 0.9177(3)
loop_
_geom_bond_atom_site_label_1
_geom_bond_atom_site_label_2
_geom_bond_site_symmetry_1
_geom_bond_site_symmetry_2
Ag1 O3 1_555 1_555
S1 O1 1_555 1_555
F1 C19 1_555 1_555
F2 C19 1_555 1_555
F3 C19 1_555 1_555
O2 S1 1_555 1_555
O3 S1 1_555 1_555
N1 Ag1 1_555 1_555
N2 N1 1_555 1_555
N3 N2 1_555 1_555
N4 C7 1_555 1_555
N5 C13 1_555 1_555
N6 C15 1_555 1_555
N7 C17 1_555 1_555
C1 N3 1_555 1_555
C2 C1 1_555 1_555
H1 C2 1_555 1_555
C3 C2 1_555 1_555
H2 C3 1_555 1_555
C4 C3 1_555 1_555
H3 C4 1_555 1_555
C5 C4 1_555 1_555
H4 C5 1_555 1_555
C6 N1 1_555 1_555
C7 N3 1_555 1_555
H5 C7 1_555 1_555
H6 C7 1_555 1_555
C8 N4 1_555 1_555
C9 C8 1_555 1_555
H7 C9 1_555 1_555
C10 C9 1_555 1_555
H8 C10 1_555 1_555
C11 C10 1_555 1_555
H9 C11 1_555 1_555
C12 C11 1_555 1_555
H10 C12 1_555 1_555
C13 C8 1_555 1_555
C14 N4 1_555 1_555
C15 C14 1_555 1_555
C16 N6 1_555 1_555
H11 C16 1_555 1_555
C17 C16 1_555 1_555
H12 C17 1_555 1_555
C18 N7 1_555 1_555
H13 C18 1_555 1_555
C19 S1 1_555 1_555
Ag1A N5 1_555 1_555
Ag1C N7 1_555 1_555
N5A Ag1 1_555 1_555
N7C Ag1 1_555 1_555
N5 C14 1_555 1_555
C1 C6 1_555 1_555
C5 C6 1_555 1_555
C12 C13 1_555 1_555
C15 C18 1_555 1_555

#END
