
#######################################################################
#
#                 Cambridge Crystallographic Data Centre
#                                CCDC 
#
#######################################################################
#
# If this CIF has been generated from an entry in the Cambridge 
# Structural Database, then it will include bibliographic, chemical, 
# crystal, experimental, refinement or atomic coordinate data resulting 
# from the CCDC's data processing and validation procedures.
#
#######################################################################

data_WAZKEP
_symmetry_cell_setting           triclinic
_symmetry_space_group_name_H-M   'P -1'
_symmetry_Int_Tables_number      2
_space_group_name_Hall           '-P 1'
loop_
_symmetry_equiv_pos_site_id
_symmetry_equiv_pos_as_xyz
1 x,y,z
2 -x,-y,-z
_cell_length_a                   10.312(12)
_cell_length_b                   11.003(13)
_cell_length_c                   11.297(12)
_cell_angle_alpha                62.07(2)
_cell_angle_beta                 78.65(3)
_cell_angle_gamma                70.72(3)
_cell_volume                     1067.61
loop_
_atom_site_label
_atom_site_type_symbol
_atom_site_fract_x
_atom_site_fract_y
_atom_site_fract_z
C1 C 1.0069(8) 0.8445(9) -0.3355(8)
H1 H 0.9594 0.9411 -0.3731
C2 C 1.1465(9) 0.8069(10) -0.3480(9)
H2 H 1.1934 0.8766 -0.3938
C3 C 1.2166(10) 0.6659(12) -0.2926(12)
H3 H 1.3121 0.6383 -0.3018
C4 C 1.1467(9) 0.5658(10) -0.2238(11)
H4 H 1.1937 0.4693 -0.1824
C5 C 1.0044(8) 0.6094(8) -0.2161(8)
C6 C 0.9190(8) 0.5078(8) -0.1450(9)
C7 C 0.9720(10) 0.3637(10) -0.0776(11)
H5 H 1.0667 0.3240 -0.0719
C8 C 0.8849(12) 0.2770(10) -0.0179(13)
H6 H 0.9193 0.1786 0.0302
C9 C 0.7462(11) 0.3395(10) -0.0312(12)
H7 H 0.6848 0.2836 0.0047
C10 C 0.6998(9) 0.4844(9) -0.0976(9)
H8 H 0.6053 0.5260 -0.1031
C11 C 0.7011(7) 0.9042(8) -0.0545(7)
C12 C 0.6311(7) 0.8030(7) 0.5002(7)
C13 C 0.6851(6) 0.8747(7) 0.0904(7)
C14 C 0.7391(7) 0.9449(7) 0.1353(7)
H9 H 0.7829 1.0138 0.0748
C15 C 0.7278(7) 0.9124(7) 0.2682(7)
H10 H 0.7671 0.9575 0.2979
C16 C 0.6593(7) 0.8143(7) 0.3600(7)
C17 C 0.6082(7) 0.7379(7) 0.3184(7)
C18 C 0.6220(7) 0.7712(7) 0.1831(7)
H11 H 0.5878 0.7224 0.1534
C19 C 0.5495(7) 0.6182(7) 0.4134(7)
C20 C 0.6175(7) 0.5113(7) 0.5281(7)
H12 H 0.6976 0.5184 0.5473
C21 C 0.5687(7) 0.3961(7) 0.6129(7)
H13 H 0.6157 0.3265 0.6892
N1 N 0.7825(6) 0.5695(6) -0.1551(6)
N2 N 0.9349(6) 0.7476(6) -0.2711(6)
Ni1 Ni 0.72417(9) 0.78837(10) -0.25503(9)
O1 O 0.7127(6) 1.0238(6) -0.1403(5)
O2 O 0.7019(5) 0.8024(5) -0.0777(5)
O3 O 0.5063(5) 0.8250(5) 0.5419(5)
O4 O 0.7301(5) 0.7787(5) 0.5638(5)
O5 O 0.5154(5) 0.7980(6) -0.2221(5)
O6 O 0.6928(5) 1.0060(5) -0.3600(5)
H14 H 0.501(8) 0.814(6) -0.297(3)
H15 H 0.470(8) 0.860(6) -0.198(6)
H16 H 0.627(5) 1.059(7) -0.406(6)
H17 H 0.703(8) 1.028(8) -0.303(7)
C1A C -0.0069(8) 0.1555(9) 0.3355(8)
H1A H 0.0406 0.0589 0.3731
C2A C -0.1465(9) 0.1931(10) 0.3480(9)
H2A H -0.1934 0.1234 0.3938
C3A C -0.2166(10) 0.3341(12) 0.2926(12)
H3A H -0.3121 0.3617 0.3018
C4A C -0.1467(9) 0.4342(10) 0.2238(11)
H4A H -0.1937 0.5307 0.1824
C5A C -0.0044(8) 0.3906(8) 0.2161(8)
C6A C 0.0810(8) 0.4922(8) 0.1450(9)
C7A C 0.0280(10) 0.6363(10) 0.0776(11)
H5A H -0.0667 0.6760 0.0719
C8A C 0.1151(12) 0.7230(10) 0.0179(13)
H6A H 0.0807 0.8214 -0.0302
C9A C 0.2538(11) 0.6605(10) 0.0312(12)
H7A H 0.3152 0.7164 -0.0047
C10A C 0.3002(9) 0.5156(9) 0.0976(9)
H8A H 0.3947 0.4740 0.1031
C11A C 0.2989(7) 0.0958(8) 1.0545(7)
C12A C 0.3689(7) 0.1970(7) 0.4998(7)
C13A C 0.3149(6) 0.1253(7) 0.9096(7)
C14A C 0.2609(7) 0.0551(7) 0.8647(7)
H9A H 0.2171 -0.0138 0.9252
C15A C 0.2722(7) 0.0876(7) 0.7318(7)
H10A H 0.2329 0.0425 0.7021
C16A C 0.3407(7) 0.1857(7) 0.6400(7)
C17A C 0.3918(7) 0.2621(7) 0.6816(7)
C18A C 0.3780(7) 0.2288(7) 0.8169(7)
H11A H 0.4122 0.2776 0.8466
C19A C 0.4505(7) 0.3818(7) 0.5866(7)
C20A C 0.3825(7) 0.4887(7) 0.4719(7)
H12A H 0.3024 0.4816 0.4527
C21A C 0.4313(7) 0.6039(7) 0.3871(7)
H13A H 0.3843 0.6735 0.3108
N1A N 0.2175(6) 0.4305(6) 0.1551(6)
N2A N 0.0651(6) 0.2524(6) 0.2711(6)
Ni1A Ni 0.27583(9) 0.21163(10) 0.25503(9)
Ni1_2 Ni 0.72417(9) 0.78837(10) 0.74497(9)
Ni1A_2 Ni 0.27583(9) 0.21163(10) 1.25503(9)
O1A O 0.2873(6) -0.0238(6) 1.1403(5)
O2A O 0.2981(5) 0.1976(5) 1.0777(5)
O2A_2 O 0.2981(5) 0.1976(5) 0.0777(5)
O3A O 0.4937(5) 0.1750(5) 0.4581(5)
O4A O 0.2699(5) 0.2213(5) 0.4362(5)
O4_2 O 0.7301(5) 0.7787(5) -0.4362(5)
O5A O 0.4846(5) 0.2020(6) 0.2221(5)
O6A O 0.3072(5) -0.0060(5) 0.3600(5)
H14A H 0.499(8) 0.186(6) 0.297(3)
H15A H 0.530(8) 0.140(6) 0.198(6)
H16A H 0.373(5) -0.059(7) 0.406(6)
H17A H 0.297(8) -0.028(8) 0.303(7)
O7 O 0.9560(16) 0.1015(18) 0.777(2)
H18 H 0.912(9) 0.055(6) 0.845(5)
H19 H 0.936(10) 0.187(3) 0.760(8)
O8 O 0.9968(10) 0.6402(11) 0.4693(15)
H20 H 0.914(2) 0.657(8) 0.488(9)
H21 H 1.024(7) 0.711(5) 0.426(13)
loop_
_geom_bond_atom_site_label_1
_geom_bond_atom_site_label_2
_geom_bond_site_symmetry_1
_geom_bond_site_symmetry_2
C1 H1 1_555 1_555
C2 C1 1_555 1_555
H2 C2 1_555 1_555
C3 C2 1_555 1_555
H3 C3 1_555 1_555
C4 C3 1_555 1_555
H4 C4 1_555 1_555
C5 C4 1_555 1_555
C6 C5 1_555 1_555
C7 C6 1_555 1_555
H5 C7 1_555 1_555
C8 C7 1_555 1_555
H6 C8 1_555 1_555
C9 C8 1_555 1_555
H7 C9 1_555 1_555
C10 C9 1_555 1_555
H8 C10 1_555 1_555
C11 C13 1_555 1_555
C12 C16 1_555 1_555
C13 C14 1_555 1_555
C14 H9 1_555 1_555
C15 C14 1_555 1_555
H10 C15 1_555 1_555
C16 C15 1_555 1_555
C17 C16 1_555 1_555
C18 C13 1_555 1_555
H11 C18 1_555 1_555
C19 C17 1_555 1_555
C20 C19 1_555 1_555
H12 C20 1_555 1_555
C21 C20 1_555 1_555
H13 C21 1_555 1_555
N1 C6 1_555 1_555
N2 C1 1_555 1_555
Ni1 N1 1_555 1_555
O1 C11 1_555 1_555
O2 C11 1_555 1_555
O3 C12 1_555 1_555
O4 C12 1_555 1_555
O5 Ni1 1_555 1_555
O6 Ni1 1_555 1_555
O7 H18 1_555 1_555
O8 H20 1_555 1_555
H14 O5 1_555 1_555
H15 O5 1_555 1_555
H16 O6 1_555 1_555
H17 O6 1_555 1_555
H19 O7 1_555 1_555
H21 O8 1_555 1_555
C1A H1A 1_555 1_555
C2A C1A 1_555 1_555
H2A C2A 1_555 1_555
C3A C2A 1_555 1_555
H3A C3A 1_555 1_555
C4A C3A 1_555 1_555
H4A C4A 1_555 1_555
C5A C4A 1_555 1_555
C6A C5A 1_555 1_555
C7A C6A 1_555 1_555
H5A C7A 1_555 1_555
C8A C7A 1_555 1_555
H6A C8A 1_555 1_555
C9A C8A 1_555 1_555
H7A C9A 1_555 1_555
C10A C9A 1_555 1_555
H8A C10A 1_555 1_555
C11A C13A 1_555 1_555
C12A C16A 1_555 1_555
C13A C14A 1_555 1_555
C14A H9A 1_555 1_555
C15A C14A 1_555 1_555
H10A C15A 1_555 1_555
C16A C15A 1_555 1_555
C17A C16A 1_555 1_555
C18A C13A 1_555 1_555
H11A C18A 1_555 1_555
C19A C21 1_555 1_555
C20A C19A 1_555 1_555
H12A C20A 1_555 1_555
C21A C19 1_555 1_555
H13A C21A 1_555 1_555
N1A C6A 1_555 1_555
N2A C1A 1_555 1_555
Ni1A N1A 1_555 1_555
Ni1_2 O4 1_555 1_555
Ni1A_2 O2A 1_555 1_555
O1A C11A 1_555 1_555
O2A C11A 1_555 1_555
O2A_2 Ni1A 1_555 1_555
O3A C12A 1_555 1_555
O4A C12A 1_555 1_555
O4_2 Ni1 1_555 1_555
O5A Ni1A 1_555 1_555
O6A Ni1A 1_555 1_555
H14A O5A 1_555 1_555
H15A O5A 1_555 1_555
H16A O6A 1_555 1_555
H17A O6A 1_555 1_555
C5 N2 1_555 1_555
C10 N1 1_555 1_555
C17 C18 1_555 1_555
N2 Ni1 1_555 1_555
Ni1 O2 1_555 1_555
C5A N2A 1_555 1_555
C10A N1A 1_555 1_555
C17A C18A 1_555 1_555
C17A C19A 1_555 1_555
C20A C21A 1_555 1_555
N2A Ni1A 1_555 1_555
Ni1A O4A 1_555 1_555

#END
