
#######################################################################
#
#                 Cambridge Crystallographic Data Centre
#                                CCDC 
#
#######################################################################
#
# If this CIF has been generated from an entry in the Cambridge 
# Structural Database, then it will include bibliographic, chemical, 
# crystal, experimental, refinement or atomic coordinate data resulting 
# from the CCDC's data processing and validation procedures.
#
#######################################################################

data_WAZKAL
_symmetry_cell_setting           monoclinic
_symmetry_space_group_name_H-M   'C 2/c'
_symmetry_Int_Tables_number      15
_space_group_name_Hall           '-C 2yn'
loop_
_symmetry_equiv_pos_site_id
_symmetry_equiv_pos_as_xyz
1 x,y,z
2 -x,y,1/2-z
3 1/2+x,1/2+y,z
4 1/2-x,1/2+y,1/2-z
5 -x,-y,-z
6 x,-y,1/2+z
7 1/2-x,1/2-y,-z
8 1/2+x,1/2-y,1/2+z
_cell_length_a                   10.640(6)
_cell_length_b                   16.041(8)
_cell_length_c                   16.498(12)
_cell_angle_alpha                90
_cell_angle_beta                 104.648(12)
_cell_angle_gamma                90
_cell_volume                     2724.3
loop_
_atom_site_label
_atom_site_type_symbol
_atom_site_fract_x
_atom_site_fract_y
_atom_site_fract_z
Cu1 Cu 0.5000 0.21658(8) 0.2500
O1 O 0.4112(5) 0.2995(3) 0.3009(3)
O2 O 0.5911(5) 0.3356(3) 0.3976(4)
O3 O 0.1180(6) 0.6293(4) 0.4754(4)
O4 O 0.2240(6) 0.6994(3) 0.3986(4)
H1 H 0.1689 0.7352 0.3982
N1 N 0.4103(6) 0.1229(4) 0.2893(4)
C1 C 0.3183(8) 0.1287(5) 0.3300(5)
H2 H 0.2931 0.1818 0.3423
C2 C 0.2579(9) 0.0625(7) 0.3551(5)
H3 H 0.1929 0.0699 0.3830
C3 C 0.2969(9) -0.0167(7) 0.3375(6)
H4 H 0.2581 -0.0636 0.3538
C4 C 0.3936(9) -0.0255(6) 0.2957(6)
H5 H 0.4207 -0.0780 0.2832
C5 C 0.4494(7) 0.0467(5) 0.2729(5)
C6 C 0.4768(8) 0.3452(4) 0.3614(5)
C7 C 0.4025(6) 0.4161(4) 0.3860(4)
C8 C 0.3054(7) 0.4078(4) 0.4296(4)
C9 C 0.2763(7) 0.3260(4) 0.4645(4)
C10 C 0.3752(7) 0.2736(5) 0.5057(4)
H6 H 0.4609 0.2886 0.5095
C11 C 0.1499(7) 0.3006(4) 0.4587(5)
H7 H 0.0811 0.3339 0.4305
C12 C 0.2391(7) 0.4784(5) 0.4429(4)
H8 H 0.1729 0.4732 0.4701
C13 C 0.2676(7) 0.5564(5) 0.4172(4)
C14 C 0.1942(8) 0.6309(5) 0.4348(5)
C15 C 0.3647(7) 0.5643(5) 0.3754(5)
H9 H 0.3861 0.6166 0.3584
C16 C 0.4292(7) 0.4946(5) 0.3593(5)
H10 H 0.4924 0.5001 0.3298
Cu1F Cu 0.0000 0.28342(8) 0.7500
O1F O 0.0888(5) 0.2005(3) 0.6991(3)
O1A O 0.5888(5) 0.2995(3) 0.1991(3)
O2F O -0.0911(5) 0.1644(3) 0.6024(4)
O3F O 0.3820(6) -0.1293(4) 0.5246(4)
O4F O 0.2760(6) -0.1994(3) 0.6014(4)
H1F H 0.3311 -0.2352 0.6018
N1A N 0.5897(6) 0.1229(4) 0.2107(4)
C1A C 0.6817(8) 0.1287(5) 0.1700(5)
H2A H 0.7069 0.1818 0.1577
C2A C 0.7421(9) 0.0625(7) 0.1449(5)
H3A H 0.8071 0.0699 0.1170
C3A C 0.7031(9) -0.0167(7) 0.1625(6)
H4A H 0.7419 -0.0636 0.1462
C4A C 0.6064(9) -0.0255(6) 0.2043(6)
H5A H 0.5793 -0.0780 0.2168
C5A C 0.5506(7) 0.0467(5) 0.2271(5)
C6F C 0.0232(8) 0.1548(4) 0.6386(5)
C7F C 0.0975(6) 0.0839(4) 0.6140(4)
C8F C 0.1946(7) 0.0922(4) 0.5704(4)
C9F C 0.2237(7) 0.1740(4) 0.5355(4)
C10F C 0.1248(7) 0.2264(5) 0.4943(4)
H6F H 0.0391 0.2114 0.4905
C11F C 0.3501(7) 0.1994(4) 0.5413(5)
H7F H 0.4189 0.1661 0.5695
C12F C 0.2609(7) 0.0216(5) 0.5571(4)
H8F H 0.3271 0.0268 0.5299
C13F C 0.2324(7) -0.0564(5) 0.5828(4)
C14F C 0.3058(8) -0.1309(5) 0.5652(5)
C15F C 0.1353(7) -0.0643(5) 0.6246(5)
H9F H 0.1139 -0.1166 0.6416
C16F C 0.0708(7) 0.0054(5) 0.6407(5)
H10F H 0.0076 -0.0001 0.6702
loop_
_geom_bond_atom_site_label_1
_geom_bond_atom_site_label_2
_geom_bond_site_symmetry_1
_geom_bond_site_symmetry_2
Cu1 O1 1_555 1_555
O1 C6 1_555 1_555
O2 C6 1_555 1_555
O3 C14 1_555 1_555
O4 H1 1_555 1_555
N1 Cu1 1_555 1_555
C1 N1 1_555 1_555
H2 C1 1_555 1_555
C2 C1 1_555 1_555
H3 C2 1_555 1_555
C3 C2 1_555 1_555
H4 C3 1_555 1_555
C4 C3 1_555 1_555
H5 C4 1_555 1_555
C5 N1 1_555 1_555
C6 C7 1_555 1_555
C7 C8 1_555 1_555
C8 C9 1_555 1_555
C9 C10 1_555 1_555
C10 H6 1_555 1_555
C11 C9 1_555 1_555
H7 C11 1_555 1_555
C12 C8 1_555 1_555
H8 C12 1_555 1_555
C13 C12 1_555 1_555
C14 O4 1_555 1_555
C15 C13 1_555 1_555
H9 C15 1_555 1_555
C16 C7 1_555 1_555
H10 C16 1_555 1_555
Cu1F O1F 1_555 1_555
O1F C6F 1_555 1_555
O1A Cu1 1_555 1_555
O2F C6F 1_555 1_555
O3F C14F 1_555 1_555
O4F H1F 1_555 1_555
N1A Cu1 1_555 1_555
C1A N1A 1_555 1_555
H2A C1A 1_555 1_555
C2A C1A 1_555 1_555
H3A C2A 1_555 1_555
C3A C2A 1_555 1_555
H4A C3A 1_555 1_555
C4A C3A 1_555 1_555
H5A C4A 1_555 1_555
C5A C5 1_555 1_555
C6F C7F 1_555 1_555
C7F C8F 1_555 1_555
C8F C9F 1_555 1_555
C9F C10F 1_555 1_555
C10F C11 1_555 1_555
H6F C10F 1_555 1_555
C11F C10 1_555 1_555
H7F C11F 1_555 1_555
C12F C8F 1_555 1_555
H8F C12F 1_555 1_555
C13F C12F 1_555 1_555
C14F O4F 1_555 1_555
C15F C13F 1_555 1_555
H9F C15F 1_555 1_555
C16F C7F 1_555 1_555
H10F C16F 1_555 1_555
C4 C5 1_555 1_555
C13 C14 1_555 1_555
C15 C16 1_555 1_555
N1A C5A 1_555 1_555
C4A C5A 1_555 1_555
C9F C11F 1_555 1_555
C13F C14F 1_555 1_555
C15F C16F 1_555 1_555

#END
