
#######################################################################
#
#                 Cambridge Crystallographic Data Centre
#                                CCDC 
#
#######################################################################
#
# If this CIF has been generated from an entry in the Cambridge 
# Structural Database, then it will include bibliographic, chemical, 
# crystal, experimental, refinement or atomic coordinate data resulting 
# from the CCDC's data processing and validation procedures.
#
#######################################################################

data_WAZMUH
_symmetry_cell_setting           orthorhombic
_symmetry_space_group_name_H-M   'P n m a'
_symmetry_Int_Tables_number      62
_space_group_name_Hall           '-P 2ac 2n'
loop_
_symmetry_equiv_pos_site_id
_symmetry_equiv_pos_as_xyz
1 x,y,z
2 1/2-x,-y,1/2+z
3 -x,1/2+y,-z
4 1/2+x,1/2-y,1/2-z
5 -x,-y,-z
6 1/2+x,y,1/2-z
7 x,1/2-y,z
8 1/2-x,1/2+y,1/2+z
_cell_length_a                   13.086(3)
_cell_length_b                   6.8381(15)
_cell_length_c                   7.7977(17)
_cell_angle_alpha                90
_cell_angle_beta                 90
_cell_angle_gamma                90
_cell_volume                     697.765
loop_
_atom_site_label
_atom_site_type_symbol
_atom_site_fract_x
_atom_site_fract_y
_atom_site_fract_z
Ho1 Ho 0.665038(14) 0.7500 0.62577(3)
P1 P 0.36070(9) 0.7500 0.19791(15)
O1 O 0.59325(18) 0.9098(3) 0.3727(3)
O2 O 0.3075(2) 0.7500 0.0231(4)
O3 O 0.33765(16) 0.9331(3) 0.3014(3)
C1 C 0.5651(3) 0.7500 0.3048(6)
C2 C 0.4974(4) 0.7500 0.1492(5)
H1 H 0.5076 0.8636 0.0851
O4 O 0.4963(2) 0.7500 0.7125(4)
H2 H 0.4572 0.8452 0.7025
O5 O 0.7406(3) 0.7500 0.8974(5)
H3 H 0.7434 0.8372 0.9708
Ho1C Ho 0.165038(14) 0.7500 -0.12577(3)
Ho1B Ho 0.334962(14) 1.2500 0.37423(3)
Ho1B_2 Ho 0.334962(14) 0.2500 0.37423(3)
O1F O 0.59325(18) 0.5902(3) 0.3727(3)
O2C O 0.8075(2) 0.7500 0.4769(4)
O3F O 0.33765(16) 0.5669(3) 0.3014(3)
O3B O 0.66235(16) 0.4331(3) 0.6986(3)
O3D O 0.66235(16) 1.0669(3) 0.6986(3)
H1F H 0.5076 0.6364 0.0851
H2F H 0.4572 0.6548 0.7025
H3F H 0.7434 0.6628 0.9708
loop_
_geom_bond_atom_site_label_1
_geom_bond_atom_site_label_2
_geom_bond_site_symmetry_1
_geom_bond_site_symmetry_2
Ho1 O1 1_555 1_555
P1 O2 1_555 1_555
O1 C1 1_555 1_555
O2 Ho1C 1_555 1_555
O3 P1 1_555 1_555
C1 C2 1_555 1_555
C2 P1 1_555 1_555
H1 C2 1_555 1_555
O4 Ho1 1_555 1_555
H2 O4 1_555 1_555
O5 Ho1 1_555 1_555
H3 O5 1_555 1_555
Ho1B O3 1_555 1_555
Ho1B_2 O3F 1_555 1_555
O1F Ho1 1_555 1_555
O2C Ho1 1_555 1_555
O3F P1 1_555 1_555
O3B Ho1 1_555 1_555
O3D Ho1 1_555 1_555
H1F C2 1_555 1_555
H2F O4 1_555 1_555
H3F O5 1_555 1_555
C1 O1F 1_555 1_555

#END
