
#######################################################################
#
#                 Cambridge Crystallographic Data Centre
#                                CCDC 
#
#######################################################################
#
# If this CIF has been generated from an entry in the Cambridge 
# Structural Database, then it will include bibliographic, chemical, 
# crystal, experimental, refinement or atomic coordinate data resulting 
# from the CCDC's data processing and validation procedures.
#
#######################################################################

data_WAZMER
_symmetry_cell_setting           triclinic
_symmetry_space_group_name_H-M   'P -1'
_symmetry_Int_Tables_number      2
_space_group_name_Hall           '-P 1'
loop_
_symmetry_equiv_pos_site_id
_symmetry_equiv_pos_as_xyz
1 x,y,z
2 -x,-y,-z
_cell_length_a                   10.5916(9)
_cell_length_b                   11.9709(10)
_cell_length_c                   12.0069(10)
_cell_angle_alpha                80.7570(10)
_cell_angle_beta                 84.6880(10)
_cell_angle_gamma                79.0570(10)
_cell_volume                     1472.25
loop_
_atom_site_label
_atom_site_type_symbol
_atom_site_fract_x
_atom_site_fract_y
_atom_site_fract_z
Mo1 Mo 0.36840(7) 0.92347(6) 0.79548(5)
Mo2 Mo 0.32768(7) 1.20154(6) 0.81908(6)
Mo3 Mo 0.34959(6) 0.98902(6) 1.09104(5)
Mo4 Mo 0.54163(7) 0.71003(6) 0.97167(6)
Ni1 Ni 0.5000 1.0000 0.5000
Ni2 Ni 1.0000 1.0000 0.5000
O1 O 0.9888(5) 1.1667(5) 0.4998(5)
O2 O 0.2598(5) 1.0623(5) 0.8255(5)
O3 O 0.4161(6) 0.9591(5) 0.6581(4)
O4 O 0.8057(5) 1.0205(5) 0.5163(5)
O5 O 1.0069(6) 0.9762(6) 0.6803(5)
O6 O 0.3632(6) 1.2345(5) 0.6775(5)
O7 O 0.3569(6) 0.8926(5) 0.9911(5)
O8 O 0.5021(5) 1.0445(5) 0.8377(5)
O9 O 0.1913(6) 1.2950(5) 0.8473(5)
O10 O 0.2521(6) 0.8417(5) 0.7953(5)
O11 O 0.3285(6) 1.1339(5) 1.0166(5)
O12 O 0.3499(5) 1.1398(5) 0.4752(5)
F1 F 1.2026(5) 1.4646(4) 0.5956(6)
O13 O 0.6049(5) 1.1077(5) 0.5541(5)
O14 O 0.4541(6) 1.2693(5) 0.8768(5)
O15 O 0.5151(6) 0.8106(5) 0.8320(5)
N1 N 0.7093(6) 1.3767(6) 0.6659(6)
O16 O 0.6812(6) 0.6198(5) 0.9427(6)
O17 O 0.4239(6) 0.6292(6) 0.9815(5)
C1 C 0.6831(8) 1.2845(6) 0.6287(7)
H1 H 0.5987 1.2716 0.6403
O18 O 0.2219(6) 0.9745(6) 1.1882(5)
N2 N 1.0826(7) 1.7064(7) 0.9150(6)
C2 C 0.7696(8) 1.2085(6) 0.5755(7)
C3 C 0.8365(8) 1.3968(7) 0.6539(7)
C4 C 0.8689(8) 1.4840(7) 0.7026(7)
H2 H 0.8059 1.5285 0.7441
C5 C 0.8985(8) 1.2267(6) 0.5532(6)
C6 C 0.9926(9) 1.5059(7) 0.6906(9)
C7 C 0.9280(7) 1.3260(7) 0.5927(7)
C8 C 0.5711(9) 1.5696(7) 0.6613(9)
H3 H 0.5489 1.6321 0.7060
H4 H 0.6152 1.5893 0.5883
C9 C 1.0817(8) 1.4397(7) 0.6208(9)
C10 C 1.0535(8) 1.3514(7) 0.5761(8)
H5 H 1.1168 1.3076 0.5344
C11 C 0.9435(9) 1.6966(7) 0.7625(8)
H6 H 0.8560 1.6939 0.7468
H7 H 0.9716 1.7601 0.7117
N3 N 1.0288(8) 1.5876(9) 0.7433(12)
C12 C 0.7235(8) 1.1042(7) 0.5458(7)
C13 C 0.6104(8) 1.4529(8) 0.7220(8)
H8 H 0.6088 1.4443 0.8047
C14 C 0.9471(9) 1.7149(10) 0.8821(9)
H9 H 0.9065 1.6578 0.9318
H10 H 0.8983 1.7902 0.8920
C15 C 0.4817(9) 1.4918(9) 0.6681(11)
H11 H 0.4709 1.4618 0.5999
H12 H 0.4045 1.5046 0.7178
C16 C 1.1601(12) 1.5985(10) 0.8915(14)
H13 H 1.2482 1.5964 0.9092
H14 H 1.1282 1.5359 0.9406
C17 C 1.1597(11) 1.5809(10) 0.7771(13)
H15 H 1.2099 1.5059 0.7677
H16 H 1.2001 1.6385 0.7281
C18 C 1.0889(12) 1.7295(17) 1.0337(11)
H17 H 1.0414 1.6788 1.0851
H18 H 1.1780 1.7113 1.0533
C19 C 1.0375(16) 1.847(2) 1.0494(15)
H19 H 1.0445 1.8556 1.1265
H20 H 0.9485 1.8649 1.0322
H21 H 1.0852 1.8974 1.0000
Mo1A Mo 0.63160(7) 1.07653(6) 0.20452(5)
Mo2A Mo 0.67232(7) 0.79846(6) 0.18092(6)
Mo2A_2 Mo 0.67232(7) 0.79846(6) 1.18092(6)
Mo3A Mo 0.65041(6) 1.01098(6) -0.09104(5)
Mo3A_2 Mo 0.65041(6) 1.01098(6) 0.90896(5)
Mo3_2 Mo 0.34959(6) 0.98902(6) 0.09104(5)
Mo4A Mo 0.45837(7) 1.28997(6) 0.02833(6)
Mo4A_2 Mo 0.45837(7) 1.28997(6) 1.02833(6)
Ni2_2 Ni 0.0000 1.0000 0.5000
O1A O 0.0112(5) 0.8333(5) 0.5002(5)
O1A_2 O 1.0112(5) 0.8333(5) 0.5002(5)
O2A O 0.7402(5) 0.9377(5) 0.1745(5)
O3A O 0.5839(6) 1.0409(5) 0.3419(4)
O4A O 0.1943(5) 0.9795(5) 0.4837(5)
O4A_2 O 1.1943(5) 0.9795(5) 0.4837(5)
O5A O 0.9931(6) 1.0238(6) 0.3197(5)
O6A O 0.6368(6) 0.7655(5) 0.3225(5)
O7A O 0.6431(6) 1.1074(5) 0.0089(5)
O8A O 0.4979(5) 0.9555(5) 0.1623(5)
O8A_2 O 0.4979(5) 0.9555(5) 1.1623(5)
O8_2 O 0.5021(5) 1.0445(5) -0.1623(5)
O9A O 0.8087(6) 0.7050(5) 0.1527(5)
O10A O 0.7479(6) 1.1583(5) 0.2047(5)
O11A O 0.6715(6) 0.8661(5) -0.0166(5)
O12A O 0.6501(5) 0.8602(5) 0.5248(5)
F1A F -0.2026(5) 0.5354(4) 0.4044(6)
O13A O 0.3951(5) 0.8923(5) 0.4459(5)
O14A O 0.5459(6) 0.7307(5) 1.1232(5)
O14A_2 O 0.5459(6) 0.7307(5) 0.1232(5)
O14_2 O 0.4541(6) 1.2693(5) -0.1232(5)
O15A O 0.4849(6) 1.1894(5) 0.1680(5)
N1A N 0.2907(6) 0.6233(6) 0.3341(6)
O16A O 0.3188(6) 1.3802(5) 0.0573(6)
O17A O 0.5761(6) 1.3708(6) 0.0185(5)
C1A C 0.3169(8) 0.7155(6) 0.3713(7)
H1A H 0.4013 0.7284 0.3597
O18A O 0.7781(6) 1.0255(6) -0.1882(5)
N2A N -0.0826(7) 0.2936(7) 0.0850(6)
C2A C 0.2304(8) 0.7915(6) 0.4245(7)
C3A C 0.1635(8) 0.6032(7) 0.3461(7)
C4A C 0.1311(8) 0.5160(7) 0.2974(7)
H2A H 0.1941 0.4715 0.2559
C5A C 0.1015(8) 0.7733(6) 0.4468(6)
C6A C 0.0074(9) 0.4941(7) 0.3094(9)
C7A C 0.0720(7) 0.6740(7) 0.4073(7)
C8A C 0.4289(9) 0.4304(7) 0.3387(9)
H3A H 0.4511 0.3679 0.2940
H4A H 0.3848 0.4107 0.4117
C9A C -0.0817(8) 0.5603(7) 0.3792(9)
C10A C -0.0535(8) 0.6486(7) 0.4239(8)
H5A H -0.1168 0.6924 0.4656
C11A C 0.0565(9) 0.3034(7) 0.2375(8)
H6A H 0.1440 0.3061 0.2532
H7A H 0.0284 0.2399 0.2883
N3A N -0.0288(8) 0.4124(9) 0.2567(12)
C12A C 0.2765(8) 0.8958(7) 0.4542(7)
C13A C 0.3896(8) 0.5471(8) 0.2780(8)
H8A H 0.3912 0.5557 0.1953
C14A C 0.0529(9) 0.2851(10) 0.1179(9)
H9A H 0.0935 0.3422 0.0682
H10A H 0.1017 0.2098 0.1080
C15A C 0.5183(9) 0.5082(9) 0.3319(11)
H11A H 0.5291 0.5382 0.4001
H12A H 0.5955 0.4954 0.2822
C16A C -0.1601(12) 0.4015(10) 0.1085(14)
H13A H -0.2482 0.4036 0.0908
H14A H -0.1282 0.4641 0.0594
C17A C -0.1597(11) 0.4191(10) 0.2229(13)
H15A H -0.2099 0.4941 0.2323
H16A H -0.2001 0.3615 0.2719
C18A C -0.0889(12) 0.2705(17) -0.0337(11)
H17A H -0.0414 0.3212 -0.0851
H18A H -0.1780 0.2887 -0.0533
C19A C -0.0375(16) 0.153(2) -0.0494(15)
H19A H -0.0445 0.1444 -0.1265
H20A H 0.0515 0.1351 -0.0322
H21A H -0.0852 0.1026 0.0000
loop_
_geom_bond_atom_site_label_1
_geom_bond_atom_site_label_2
_geom_bond_site_symmetry_1
_geom_bond_site_symmetry_2
Mo1 O2 1_555 1_555
Mo2 O2 1_555 1_555
Mo3 O7 1_555 1_555
Mo4 O15 1_555 1_555
Ni1 O3 1_555 1_555
Ni2 O1 1_555 1_555
O1 C5 1_555 1_555
O3 Mo1 1_555 1_555
O4 Ni2 1_555 1_555
O5 Ni2 1_555 1_555
O6 Mo2 1_555 1_555
O7 Mo1 1_555 1_555
O8 Mo1 1_555 1_555
O9 Mo2 1_555 1_555
O10 Mo1 1_555 1_555
O11 Mo2 1_555 1_555
O12 Ni1 1_555 1_555
F1 C9 1_555 1_555
O13 Ni1 1_555 1_555
O14 Mo2 1_555 1_555
O15 Mo1 1_555 1_555
N1 C1 1_555 1_555
O16 Mo4 1_555 1_555
O17 Mo4 1_555 1_555
C1 H1 1_555 1_555
O18 Mo3 1_555 1_555
N2 C14 1_555 1_555
C2 C1 1_555 1_555
C3 N1 1_555 1_555
C4 C3 1_555 1_555
H2 C4 1_555 1_555
C5 C2 1_555 1_555
C6 C4 1_555 1_555
C7 C3 1_555 1_555
C8 H3 1_555 1_555
H4 C8 1_555 1_555
C9 C6 1_555 1_555
C10 C7 1_555 1_555
H5 C10 1_555 1_555
C11 H6 1_555 1_555
H7 C11 1_555 1_555
N3 C6 1_555 1_555
C12 O4 1_555 1_555
C13 N1 1_555 1_555
H8 C13 1_555 1_555
C14 C11 1_555 1_555
H9 C14 1_555 1_555
H10 C14 1_555 1_555
C15 C8 1_555 1_555
H11 C15 1_555 1_555
H12 C15 1_555 1_555
C16 N2 1_555 1_555
H13 C16 1_555 1_555
H14 C16 1_555 1_555
C17 N3 1_555 1_555
H15 C17 1_555 1_555
H16 C17 1_555 1_555
C18 N2 1_555 1_555
H17 C18 1_555 1_555
H18 C18 1_555 1_555
C19 C18 1_555 1_555
H19 C19 1_555 1_555
H20 C19 1_555 1_555
H21 C19 1_555 1_555
Mo1A O2A 1_555 1_555
Mo2A O2A 1_555 1_555
Mo2A_2 O8A_2 1_555 1_555
Mo3A O7A 1_555 1_555
Mo3A_2 O8 1_555 1_555
Mo3_2 O8A 1_555 1_555
Mo4A O14_2 1_555 1_555
Mo4A_2 O14 1_555 1_555
Ni2_2 O1A 1_555 1_555
O1A C5A 1_555 1_555
O1A_2 Ni2 1_555 1_555
O3A Ni1 1_555 1_555
O4A Ni2_2 1_555 1_555
O4A_2 Ni2 1_555 1_555
O5A Ni2 1_555 1_555
O6A Mo2A 1_555 1_555
O7A Mo1A 1_555 1_555
O8A Mo1A 1_555 1_555
O8A_2 Mo3 1_555 1_555
O8_2 Mo3A 1_555 1_555
O9A Mo2A 1_555 1_555
O10A Mo1A 1_555 1_555
O11A Mo2A 1_555 1_555
O12A Ni1 1_555 1_555
F1A C9A 1_555 1_555
O13A Ni1 1_555 1_555
O14A Mo4 1_555 1_555
O14A_2 Mo2A 1_555 1_555
O15A Mo1A 1_555 1_555
N1A C1A 1_555 1_555
O16A Mo4A 1_555 1_555
O17A Mo4A 1_555 1_555
C1A H1A 1_555 1_555
O18A Mo3A 1_555 1_555
N2A C14A 1_555 1_555
C2A C1A 1_555 1_555
C3A N1A 1_555 1_555
C4A C3A 1_555 1_555
H2A C4A 1_555 1_555
C5A C2A 1_555 1_555
C6A C4A 1_555 1_555
C7A C3A 1_555 1_555
C8A H3A 1_555 1_555
H4A C8A 1_555 1_555
C9A C6A 1_555 1_555
C10A C7A 1_555 1_555
H5A C10A 1_555 1_555
C11A H6A 1_555 1_555
H7A C11A 1_555 1_555
N3A C6A 1_555 1_555
C12A O4A 1_555 1_555
C13A N1A 1_555 1_555
H8A C13A 1_555 1_555
C14A C11A 1_555 1_555
H9A C14A 1_555 1_555
H10A C14A 1_555 1_555
C15A C8A 1_555 1_555
H11A C15A 1_555 1_555
H12A C15A 1_555 1_555
C16A N2A 1_555 1_555
H13A C16A 1_555 1_555
H14A C16A 1_555 1_555
C17A N3A 1_555 1_555
H15A C17A 1_555 1_555
H16A C17A 1_555 1_555
C18A N2A 1_555 1_555
H17A C18A 1_555 1_555
H18A C18A 1_555 1_555
C19A C18A 1_555 1_555
H19A C19A 1_555 1_555
H20A C19A 1_555 1_555
H21A C19A 1_555 1_555
Mo2 O8 1_555 1_555
Mo3 O11 1_555 1_555
O13 C12 1_555 1_555
C2 C12 1_555 1_555
C5 C7 1_555 1_555
C8 C13 1_555 1_555
C9 C10 1_555 1_555
C11 N3 1_555 1_555
C13 C15 1_555 1_555
C16 C17 1_555 1_555
Mo1A O3A 1_555 1_555
Mo2A O8A 1_555 1_555
Mo2A_2 O14A 1_555 1_555
Mo3A O11A 1_555 1_555
Mo4A O15A 1_555 1_555
O13A C12A 1_555 1_555
C2A C12A 1_555 1_555
C5A C7A 1_555 1_555
C8A C13A 1_555 1_555
C9A C10A 1_555 1_555
C11A N3A 1_555 1_555
C13A C15A 1_555 1_555
C16A C17A 1_555 1_555

#END
