
#######################################################################
#
#                 Cambridge Crystallographic Data Centre
#                                CCDC 
#
#######################################################################
#
# If this CIF has been generated from an entry in the Cambridge 
# Structural Database, then it will include bibliographic, chemical, 
# crystal, experimental, refinement or atomic coordinate data resulting 
# from the CCDC's data processing and validation procedures.
#
#######################################################################

data_WAZNES
_symmetry_cell_setting           triclinic
_symmetry_space_group_name_H-M   'P -1'
_symmetry_Int_Tables_number      2
_space_group_name_Hall           '-P 1'
loop_
_symmetry_equiv_pos_site_id
_symmetry_equiv_pos_as_xyz
1 x,y,z
2 -x,-y,-z
_cell_length_a                   8.8900(11)
_cell_length_b                   14.9601(19)
_cell_length_c                   18.655(2)
_cell_angle_alpha                87.538(2)
_cell_angle_beta                 86.282(2)
_cell_angle_gamma                86.973(2)
_cell_volume                     2470.4
loop_
_atom_site_label
_atom_site_type_symbol
_atom_site_fract_x
_atom_site_fract_y
_atom_site_fract_z
Ag1 Ag 1.09791(5) 0.45223(2) 0.05645(2)
C1 C 1.0613(5) 0.2488(3) 0.0325(2)
H1 H 1.1353 0.2574 -0.0043
C2 C 1.0072(5) 0.1650(3) 0.0440(2)
H2 H 1.0429 0.1184 0.0150
C3 C 0.8987(4) 0.1505(3) 0.0994(2)
C4 C 0.8464(5) 0.2229(3) 0.1395(2)
H3 H 0.7721 0.2161 0.1766
C5 C 0.9058(5) 0.3046(3) 0.1238(2)
H4 H 0.8698 0.3529 0.1509
C6 C 0.8430(4) 0.0613(3) 0.1142(2)
C7 C 0.7188(4) -0.0408(2) 0.1693(2)
C8 C 0.6189(4) -0.0857(2) 0.2229(2)
C9 C 0.6038(5) -0.1774(3) 0.2173(3)
H5 H 0.6546 -0.2074 0.1795
C10 C 0.5138(6) -0.2241(3) 0.2674(3)
H6 H 0.5047 -0.2853 0.2633
C11 C 0.4378(6) -0.1805(3) 0.3230(3)
H7 H 0.3776 -0.2124 0.3566
C12 C 0.4499(5) -0.0897(3) 0.3295(2)
H8 H 0.3980 -0.0603 0.3672
C13 C 0.5396(4) -0.0430(2) 0.2796(2)
C14 C 0.3614(4) 0.1316(2) 0.17069(19)
C15 C 0.4205(5) 0.2087(3) 0.1402(2)
H9 H 0.4389 0.2558 0.1688
C16 C 0.4523(5) 0.2153(3) 0.0669(2)
H10 H 0.4913 0.2674 0.0461
C17 C 0.4267(5) 0.1453(3) 0.0242(2)
H11 H 0.4506 0.1497 -0.0251
C18 C 0.3658(5) 0.0693(3) 0.0548(2)
H12 H 0.3490 0.0222 0.0258
C19 C 0.3288(4) 0.0614(2) 0.12855(19)
C20 C 0.2509(4) -0.0168(3) 0.1581(2)
C21 C 0.1748(5) -0.1489(3) 0.1582(2)
C22 C 0.1619(5) -0.2395(3) 0.1333(2)
C23 C 0.0537(5) -0.2938(3) 0.1657(2)
H13 H -0.0111 -0.2733 0.2033
C24 C 0.0438(6) -0.3782(3) 0.1413(2)
H14 H -0.0291 -0.4143 0.1633
C25 C 0.2353(5) -0.3586(3) 0.0563(3)
H15 H 0.2974 -0.3801 0.0181
C26 C 0.2530(5) -0.2731(3) 0.0779(3)
H16 H 0.3266 -0.2383 0.0548
C27 C 0.2450(4) 0.0746(2) 0.54222(18)
C28 C 0.2818(5) -0.0157(3) 0.5431(2)
H17 H 0.3742 -0.0376 0.5230
C29 C 0.1780(6) -0.0734(3) 0.5745(3)
H18 H 0.1999 -0.1349 0.5748
C30 C 0.0440(5) -0.0410(3) 0.6051(3)
H19 H -0.0239 -0.0804 0.6270
C31 C 0.0083(5) 0.0492(3) 0.6037(2)
H20 H -0.0838 0.0703 0.6248
C32 C 0.1081(4) 0.1102(2) 0.57122(19)
C33 C 0.0635(4) 0.2063(2) 0.56480(19)
C34 C -0.0185(4) 0.2502(3) 0.6207(2)
H21 H -0.0370 0.2197 0.6646
C35 C -0.0720(4) 0.3373(3) 0.6119(2)
H22 H -0.1272 0.3649 0.6497
C36 C -0.0448(4) 0.3845(3) 0.5476(2)
H23 H -0.0823 0.4434 0.5419
C37 C 0.0381(4) 0.3438(2) 0.4918(2)
H24 H 0.0579 0.3751 0.4484
C38 C 0.0913(4) 0.2562(2) 0.50143(19)
C39 C 0.5288(4) 0.4526(2) 0.36089(19)
C40 C 0.4090(4) 0.5000(3) 0.3930(2)
H25 H 0.3120 0.4796 0.3929
C41 C 0.4341(5) 0.5787(3) 0.4256(3)
H26 H 0.3540 0.6107 0.4488
C42 C 0.5762(5) 0.6095(3) 0.4237(3)
H27 H 0.5922 0.6635 0.4442
C43 C 0.6957(5) 0.5608(3) 0.3916(2)
H28 H 0.7920 0.5824 0.3910
C44 C 0.6758(4) 0.4796(2) 0.35998(19)
C45 C 0.8071(4) 0.4257(2) 0.32967(19)
C46 C 0.9299(5) 0.4666(3) 0.2939(2)
H29 H 0.9256 0.5285 0.2862
C47 C 1.0568(5) 0.4175(3) 0.2699(2)
H30 H 1.1378 0.4464 0.2471
C48 C 1.0643(5) 0.3263(3) 0.2795(2)
H31 H 1.1502 0.2932 0.2631
C49 C 0.9440(4) 0.2833(3) 0.3137(2)
H32 H 0.9477 0.2212 0.3196
C50 C 0.8187(4) 0.3333(2) 0.33870(18)
N1 N 0.4457(4) 0.2583(2) 0.43027(16)
N2 N 0.3477(3) 0.10867(19) 0.37668(16)
N3 N 0.5375(3) 0.21323(19) 0.29521(15)
N4 N 0.7931(5) -0.0777(2) 0.1156(2)
N5 N 0.8752(5) -0.0099(2) 0.07993(19)
N6 N 1.0132(4) 0.3185(2) 0.07140(18)
N7 N 0.1100(5) -0.1133(3) 0.2138(2)
N8 N 0.1601(5) -0.0257(3) 0.2142(2)
N9 N 0.1334(4) -0.4115(2) 0.0875(2)
O4 O 0.7082(3) 0.28946(16) 0.38186(13)
O5 O 0.4995(3) 0.37548(15) 0.32434(13)
O6 O 0.3541(3) 0.13390(16) 0.51366(13)
O7 O 0.1623(3) 0.21480(16) 0.44143(12)
O8 O 0.5620(3) 0.04732(16) 0.28601(14)
O9 O 0.3243(3) 0.12453(17) 0.24402(13)
O10 O 0.2664(3) -0.09237(17) 0.11938(14)
O11 O 0.7450(3) 0.04758(16) 0.17163(14)
P1 P 0.54208(10) 0.27948(6) 0.35829(5)
P2 P 0.33415(10) 0.17981(6) 0.43715(5)
P3 P 0.44304(10) 0.12662(6) 0.30411(5)
Ag1_2 Ag 0.09791(5) -0.54777(2) 0.05645(2)
N9_2 N 1.1334(4) 0.5885(2) 0.0875(2)
C51 C 1.4732(7) 0.5084(4) -0.1395(3)
F1 F 1.5843(4) 0.4726(3) -0.1798(2)
F2 F 1.5386(5) 0.5391(3) -0.0819(3)
F3 F 1.4151(5) 0.5785(3) -0.1727(3)
O1 O 1.2926(5) 0.4015(4) -0.1789(3)
O2 O 1.4082(5) 0.3640(3) -0.0678(3)
O3 O 1.2216(4) 0.4835(2) -0.0715(2)
S1 S 1.33542(15) 0.42919(9) -0.10938(8)
loop_
_geom_bond_atom_site_label_1
_geom_bond_atom_site_label_2
_geom_bond_site_symmetry_1
_geom_bond_site_symmetry_2
Ag1 N6 1_555 1_555
C1 H1 1_555 1_555
C2 C1 1_555 1_555
H2 C2 1_555 1_555
C3 C2 1_555 1_555
C4 C3 1_555 1_555
H3 C4 1_555 1_555
C5 C4 1_555 1_555
H4 C5 1_555 1_555
C6 C3 1_555 1_555
C7 C8 1_555 1_555
C8 C9 1_555 1_555
C9 H5 1_555 1_555
C10 C9 1_555 1_555
H6 C10 1_555 1_555
C11 C10 1_555 1_555
H7 C11 1_555 1_555
C12 C11 1_555 1_555
H8 C12 1_555 1_555
C13 C8 1_555 1_555
C14 C15 1_555 1_555
C15 H9 1_555 1_555
C16 C15 1_555 1_555
H10 C16 1_555 1_555
C17 C16 1_555 1_555
H11 C17 1_555 1_555
C18 C17 1_555 1_555
H12 C18 1_555 1_555
C19 C14 1_555 1_555
C20 C19 1_555 1_555
C21 C22 1_555 1_555
C22 C23 1_555 1_555
C23 H13 1_555 1_555
C24 C23 1_555 1_555
H14 C24 1_555 1_555
C25 H15 1_555 1_555
C26 C22 1_555 1_555
H16 C26 1_555 1_555
C27 C28 1_555 1_555
C28 H17 1_555 1_555
C29 C28 1_555 1_555
H18 C29 1_555 1_555
C30 C29 1_555 1_555
H19 C30 1_555 1_555
C31 C30 1_555 1_555
H20 C31 1_555 1_555
C32 C27 1_555 1_555
C33 C32 1_555 1_555
C34 C33 1_555 1_555
H21 C34 1_555 1_555
C35 C34 1_555 1_555
H22 C35 1_555 1_555
C36 C35 1_555 1_555
H23 C36 1_555 1_555
C37 C36 1_555 1_555
H24 C37 1_555 1_555
C38 C33 1_555 1_555
C39 C40 1_555 1_555
C40 H25 1_555 1_555
C41 C40 1_555 1_555
H26 C41 1_555 1_555
C42 C41 1_555 1_555
H27 C42 1_555 1_555
C43 C42 1_555 1_555
H28 C43 1_555 1_555
C44 C39 1_555 1_555
C45 C44 1_555 1_555
C46 C45 1_555 1_555
H29 C46 1_555 1_555
C47 C46 1_555 1_555
H30 C47 1_555 1_555
C48 C47 1_555 1_555
H31 C48 1_555 1_555
C49 C48 1_555 1_555
H32 C49 1_555 1_555
C50 C45 1_555 1_555
C51 F1 1_555 1_555
F2 C51 1_555 1_555
F3 C51 1_555 1_555
N1 P1 1_555 1_555
N2 P2 1_555 1_555
N3 P1 1_555 1_555
N4 C7 1_555 1_555
N5 C6 1_555 1_555
N6 C1 1_555 1_555
N7 C21 1_555 1_555
N8 C20 1_555 1_555
N9 C24 1_555 1_555
O1 S1 1_555 1_555
O2 S1 1_555 1_555
O3 S1 1_555 1_555
O4 C50 1_555 1_555
O5 C39 1_555 1_555
O6 C27 1_555 1_555
O7 C38 1_555 1_555
O8 C13 1_555 1_555
O9 C14 1_555 1_555
O10 C20 1_555 1_555
O11 C6 1_555 1_555
P1 O4 1_555 1_555
P2 N1 1_555 1_555
P3 N2 1_555 1_555
S1 C51 1_555 1_555
Ag1_2 N9 1_555 1_555
N9_2 Ag1 1_555 1_555
C5 N6 1_555 1_555
C7 O11 1_555 1_555
C12 C13 1_555 1_555
C18 C19 1_555 1_555
C21 O10 1_555 1_555
C25 C26 1_555 1_555
C25 N9 1_555 1_555
C31 C32 1_555 1_555
C37 C38 1_555 1_555
C43 C44 1_555 1_555
C49 C50 1_555 1_555
N3 P3 1_555 1_555
N4 N5 1_555 1_555
N7 N8 1_555 1_555
O5 P1 1_555 1_555
O6 P2 1_555 1_555
O7 P2 1_555 1_555
O8 P3 1_555 1_555
O9 P3 1_555 1_555

#END
