
#######################################################################
#
#                 Cambridge Crystallographic Data Centre
#                                CCDC 
#
#######################################################################
#
# If this CIF has been generated from an entry in the Cambridge 
# Structural Database, then it will include bibliographic, chemical, 
# crystal, experimental, refinement or atomic coordinate data resulting 
# from the CCDC's data processing and validation procedures.
#
#######################################################################

data_WAZSUL
_symmetry_cell_setting           monoclinic
_symmetry_space_group_name_H-M   'P 21/n'
_symmetry_Int_Tables_number      14
_space_group_name_Hall           '-P 2yn'
loop_
_symmetry_equiv_pos_site_id
_symmetry_equiv_pos_as_xyz
1 x,y,z
2 1/2-x,1/2+y,1/2-z
3 -x,-y,-z
4 1/2+x,1/2-y,1/2+z
_cell_length_a                   17.060(2)
_cell_length_b                   7.088(2)
_cell_length_c                   15.332(2)
_cell_angle_alpha                90
_cell_angle_beta                 91.76(1)
_cell_angle_gamma                90
_cell_volume                     1853.09
loop_
_atom_site_label
_atom_site_type_symbol
_atom_site_fract_x
_atom_site_fract_y
_atom_site_fract_z
K1 K -0.26077(7) 0.1295(2) 0.27651(8)
K2 K -0.08005(7) 0.3300(3) 0.10593(8)
K3 K 0.14302(7) 0.6356(3) 0.15910(8)
O1 O 0.0340(3) 0.4260(7) 0.2566(3)
O2 O -0.1207(3) 0.3875(7) 0.2823(3)
O3 O 0.2987(3) 0.2586(7) 0.4944(3)
O4 O 0.2408(3) 0.1914(6) 0.6194(3)
O5 O -0.3297(2) 0.2069(7) 0.5826(3)
O6 O -0.3417(2) 0.2014(6) 0.4377(3)
O7 O 0.0268(3) 0.0846(8) 0.6673(3)
O8 O -0.0886(3) 0.0998(7) 0.7261(3)
N1 N 0.0940(3) 0.2340(7) 0.5360(3)
N2 N -0.1822(3) 0.2693(7) 0.4301(3)
C1 C 0.1632(3) 0.2718(8) 0.4949(4)
C2 C 0.1447(3) 0.3298(9) 0.4117(4)
C3 C 0.0135(3) 0.3713(9) 0.3289(4)
C4 C -0.0754(3) 0.3499(9) 0.3419(4)
C5 C -0.2134(3) 0.2193(8) 0.5042(4)
C6 C -0.1671(3) 0.1723(8) 0.5771(4)
C7 C -0.0856(3) 0.1798(8) 0.5765(4)
C8 C 0.0317(3) 0.2656(8) 0.4801(4)
C9 C 0.0620(3) 0.3279(8) 0.4024(4)
C10 C -0.1041(3) 0.2835(8) 0.4270(4)
C11 C -0.0511(3) 0.2402(8) 0.4998(4)
C12 C 0.2408(3) 0.2384(9) 0.5408(4)
C13 C -0.3028(3) 0.2094(8) 0.5083(4)
C14 C -0.0442(3) 0.1191(8) 0.6636(4)
O9 O 0.2705(3) 0.5835(8) 0.2709(3)
O10 O 0.0408(3) 0.0637(7) 0.1189(3)
O11 O -0.1360(3) -0.0329(7) 0.1975(3)
O12 O 0.0056(3) 0.7074(7) 0.0550(3)
H1 H 0.090(4) 0.19(2) 0.603(5)
H2 H 0.186(4) 0.37(2) 0.363(5)
H3 H -0.196(4) 0.13(2) 0.637(5)
H4 H 0.236(4) 0.47(2) 0.297(5)
H5 H 0.323(4) 0.52(2) 0.253(5)
H6 H 0.069(4) 0.18(2) 0.091(5)
H7 H 0.050(4) 0.11(2) 0.187(5)
H8 H -0.088(4) -0.04(2) 0.244(5)
H9 H -0.133(4) -0.12(2) 0.140(5)
H10 H 0.017(4) 0.85(2) 0.080(5)
H11 H -0.052(4) 0.73(2) 0.032(5)
K1A K -0.23923(7) -0.3705(2) 0.22349(8)
K1A_2 K -0.23923(7) 0.6295(2) 0.22349(8)
K2A K -0.41995(7) -0.1700(3) 0.39407(8)
O2A O -0.3793(3) -0.1125(7) 0.2177(3)
O4B O -0.2408(3) -0.1914(6) 0.3806(3)
O4C O -0.2592(3) 0.3086(6) 0.1194(3)
O11A O -0.3640(3) 0.4671(7) 0.3025(3)
K3B K -0.14302(7) 0.3644(3) -0.15910(8)
O3C O -0.2013(3) 0.2414(7) -0.0056(3)
O6A O -0.1583(2) 0.7014(6) 0.0623(3)
O12B O -0.0056(3) 0.2926(7) -0.0550(3)
K2B K 0.08005(7) 0.6700(3) -0.10593(8)
O3A O 0.2013(3) 0.7586(7) 0.0056(3)
O5C O 0.1703(2) 0.2931(7) 0.0826(3)
O8B O 0.0886(3) 0.9002(7) 0.2739(3)
K2C K 0.41995(7) 0.1700(3) 0.60593(8)
K3A K 0.35698(7) 0.1356(3) 0.34090(8)
K1B K 0.26077(7) -0.1295(2) 0.72349(8)
K1C K 0.23923(7) 0.3705(2) 0.77651(8)
K3C K -0.35698(7) -0.1356(3) 0.65910(8)
K3B_2 K -0.14302(7) 0.3644(3) 0.84090(8)
H8A H -0.412(4) 0.46(2) 0.256(5)
H9A H -0.367(4) 0.38(2) 0.360(5)
H10B H -0.017(4) 0.15(2) -0.080(5)
H11B H 0.052(4) 0.27(2) -0.032(5)
loop_
_geom_bond_atom_site_label_1
_geom_bond_atom_site_label_2
_geom_bond_site_symmetry_1
_geom_bond_site_symmetry_2
K1 O2 1_555 1_555
K2 O1 1_555 1_555
K3 O1 1_555 1_555
O1 C3 1_555 1_555
O2 K2 1_555 1_555
O3 C12 1_555 1_555
O4 C12 1_555 1_555
O5 C13 1_555 1_555
O6 K1 1_555 1_555
O7 C14 1_555 1_555
O8 C14 1_555 1_555
N1 C1 1_555 1_555
N2 K1 1_555 1_555
C1 C2 1_555 1_555
C2 C9 1_555 1_555
C3 C4 1_555 1_555
C4 O2 1_555 1_555
C5 N2 1_555 1_555
C6 C5 1_555 1_555
C7 C6 1_555 1_555
C8 N1 1_555 1_555
C9 C3 1_555 1_555
C10 N2 1_555 1_555
C11 C7 1_555 1_555
C12 C1 1_555 1_555
C13 O6 1_555 1_555
C14 C7 1_555 1_555
O9 K3 1_555 1_555
O10 K2 1_555 1_555
O11 K1 1_555 1_555
O12 K2 1_555 1_555
H1 N1 1_555 1_555
H2 C2 1_555 1_555
H3 C6 1_555 1_555
H4 O9 1_555 1_555
H5 O9 1_555 1_555
H6 O10 1_555 1_555
H7 O10 1_555 1_555
H8 O11 1_555 1_555
H9 O11 1_555 1_555
H10 O12 1_555 1_555
H11 O12 1_555 1_555
K1A O11 1_555 1_555
K1A_2 O2 1_555 1_555
K2A O2A 1_555 1_555
O2A K1 1_555 1_555
O4B K1 1_555 1_555
O4C K1 1_555 1_555
O11A K1 1_555 1_555
K3B O3C 1_555 1_555
O3C K2 1_555 1_555
O6A K1A_2 1_555 1_555
O12B K2 1_555 1_555
K2B O12 1_555 1_555
O3A K3 1_555 1_555
O5C K3 1_555 1_555
O8B K3 1_555 1_555
K2C O3 1_555 1_555
K3A O3 1_555 1_555
K1B O4 1_555 1_555
K1C O4 1_555 1_555
K3C O5 1_555 1_555
K3B_2 O8 1_555 1_555
H8A O11A 1_555 1_555
H9A O11A 1_555 1_555
H10B O12B 1_555 1_555
H11B O12B 1_555 1_555
K2 O4C 1_555 1_555
K2 O11 1_555 1_555
K3 O12 1_555 1_555
O4 K2C 1_555 1_555
C4 C10 1_555 1_555
C5 C13 1_555 1_555
C8 C11 1_555 1_555
C8 C9 1_555 1_555
C10 C11 1_555 1_555
K1A O2A 1_555 1_555
K1A O4B 1_555 1_555
K1A_2 O11A 1_555 1_555
K1A_2 O4C 1_555 1_555
K2A O4B 1_555 1_555
K3B O12B 1_555 1_555
O12B K2B 1_555 1_555
K2B O3A 1_555 1_555

#END
