
#######################################################################
#
#                 Cambridge Crystallographic Data Centre
#                                CCDC 
#
#######################################################################
#
# If this CIF has been generated from an entry in the Cambridge 
# Structural Database, then it will include bibliographic, chemical, 
# crystal, experimental, refinement or atomic coordinate data resulting 
# from the CCDC's data processing and validation procedures.
#
#######################################################################

data_WAZSEV
_symmetry_cell_setting           triclinic
_symmetry_space_group_name_H-M   'P 1'
_symmetry_Int_Tables_number      1
_space_group_name_Hall           'P 1'
loop_
_symmetry_equiv_pos_site_id
_symmetry_equiv_pos_as_xyz
1 x,y,z
_cell_length_a                   13.003(3)
_cell_length_b                   13.639(4)
_cell_length_c                   9.861(2)
_cell_angle_alpha                110.26(2)
_cell_angle_beta                 100.94(2)
_cell_angle_gamma                109.35(2)
_cell_volume                     1453.46
loop_
_atom_site_label
_atom_site_type_symbol
_atom_site_fract_x
_atom_site_fract_y
_atom_site_fract_z
Er1 Er 0.00000 0.00000 0.00000
Er2 Er 0.04310(3) -0.00607(3) 0.50939(3)
O1 O -0.1569(4) -0.1223(4) 0.0342(5)
O2 O -0.0940(4) -0.1003(4) 0.2728(5)
N1 N -0.3807(6) -0.2391(6) -0.0166(7)
C1 C -0.1715(5) -0.1328(5) 0.1517(7)
C2 C -0.2954(6) -0.1846(6) 0.1466(7)
C3 C -0.3262(9) -0.2805(8) 0.199(1)
C4 C -0.4548(8) -0.3456(7) 0.117(1)
C5 C -0.4801(9) -0.346(1) -0.039(1)
O3 O 0.1280(4) 0.0851(4) 0.2385(5)
O4 O 0.2044(4) 0.1241(4) 0.4838(5)
N2 N 0.3890(6) 0.3217(6) 0.5503(7)
C6 C 0.2053(6) 0.1466(5) 0.3735(7)
C7 C 0.3068(7) 0.2482(6) 0.3874(8)
C8 C 0.382(1) 0.218(1) 0.293(1)
C9 C 0.504(1) 0.300(1) 0.393(1)
C10 C 0.5013(8) 0.341(1) 0.546(1)
O5 O -0.1468(6) 0.0095(6) -0.1631(7)
O6 O -0.0793(4) -0.0041(4) -0.3561(5)
N3 N -0.3470(5) 0.0031(5) -0.3118(7)
C11 C -0.1514(5) 0.0082(5) -0.2931(7)
C12 C -0.2454(6) 0.0347(6) -0.3730(8)
C13 C -0.2110(8) 0.1548(9) -0.342(1)
C14 C -0.315(1) 0.176(1) -0.334(2)
C15 C -0.3759(9) 0.1034(8) -0.271(1)
O7 O 0.1746(7) -0.0256(6) -0.3241(7)
O8 O 0.1393(4) -0.0006(4) -0.1078(5)
N4 N 0.2720(6) -0.1097(5) -0.0474(6)
C16 C 0.1972(6) -0.0215(6) -0.1940(7)
C17 C 0.3046(6) -0.0331(6) -0.1312(7)
C18 C 0.3407(7) -0.1027(8) -0.2513(9)
C19 C 0.266(1) -0.2238(8) -0.299(1)
C20 C 0.223(1) -0.2355(7) -0.170(1)
O9 O 0.0878(4) 0.1910(4) 0.0164(5)
O10 O -0.0106(5) 0.2900(5) 0.0979(7)
N5 N 0.0970(8) 0.4652(6) 0.0403(9)
C21 C 0.0677(7) 0.2785(6) 0.0509(8)
C22 C 0.1493(8) 0.3815(6) 0.037(1)
C23 C 0.2629(9) 0.452(1) 0.166(2)
C24 C 0.246(1) 0.547(1) 0.276(1)
C25 C 0.161(1) 0.5669(9) 0.186(2)
O11 O -0.0577(4) -0.2006(4) 0.4906(5)
O12 O -0.0183(5) -0.3183(4) 0.3053(7)
N6 N -0.2095(7) -0.5043(6) 0.2303(8)
C26 C -0.0753(7) -0.2999(6) 0.3934(8)
C27 C -0.1700(7) -0.4051(6) 0.3858(8)
C28 C -0.123(1) -0.4487(7) 0.496(1)
C29 C -0.169(1) -0.5752(9) 0.407(1)
C30 C -0.202(1) -0.6032(7) 0.250(1)
O13 O -0.0762(4) 0.1132(4) 0.1630(5)
O14 O 0.0661(4) -0.1389(4) 0.0485(5)
O15 O -0.0896(4) -0.1828(4) -0.2282(5)
O16 O 0.1189(4) -0.1187(4) 0.3455(5)
O17 O -0.0191(5) 0.1264(4) 0.4616(5)
O18 O 0.1385(4) 0.1712(4) 0.7392(5)
H1 H 0.136 -0.275 -0.210
H2 H 0.247 -0.286 -0.134
H3 H 0.016 0.427 0.027
H4 H 0.102 0.486 -0.042
H5 H 0.169 0.356 -0.055
H6 H 0.327 0.485 0.150
H7 H 0.274 0.406 0.225
H8 H 0.220 0.519 0.351
H9 H 0.320 0.609 0.329
H10 H 0.197 0.633 0.175
H11 H 0.106 0.577 0.242
H12 H -0.168 -0.482 0.170
H13 H -0.294 -0.529 0.177
H14 H -0.234 -0.384 0.406
H15 H -0.147 -0.427 0.589
H16 H -0.039 -0.412 0.536
H17 H -0.239 -0.614 0.431
H18 H -0.114 -0.603 0.442
H19 H -0.136 -0.613 0.215
H20 H -0.269 -0.673 0.188
H21 H -0.047 0.187 0.157
H22 H -0.153 0.079 0.119
H23 H 0.083 -0.126 0.160
H24 H 0.022 -0.222 -0.032
H25 H -0.085 -0.175 -0.317
H26 H -0.160 -0.237 -0.243
H27 H 0.078 -0.198 0.324
H28 H 0.204 -0.090 0.395
H29 H -0.036 0.121 0.357
H30 H 0.027 0.206 0.527
H31 H 0.135 0.175 0.833
H32 H 0.208 0.222 0.760
H33 H -0.343 -0.260 -0.090
H34 H -0.409 -0.186 -0.032
H35 H -0.304 -0.122 0.220
H36 H -0.290 -0.330 0.162
H37 H -0.306 -0.250 0.306
H38 H -0.486 -0.424 0.107
H39 H -0.497 -0.307 0.175
H40 H -0.553 -0.343 -0.076
H41 H -0.482 -0.415 -0.116
H42 H 0.371 0.277 0.608
H43 H 0.383 0.391 0.594
H44 H 0.272 0.292 0.352
H45 H 0.366 0.138 0.260
H46 H 0.360 0.228 0.198
H47 H 0.529 0.365 0.373
H48 H 0.551 0.263 0.389
H49 H 0.549 0.425 0.602
H50 H 0.533 0.305 0.600
H51 H -0.325 -0.012 -0.225
H52 H -0.413 -0.066 -0.393
H53 H -0.270 -0.022 -0.478
H54 H -0.188 0.169 -0.423
H55 H -0.149 0.208 -0.245
H56 H -0.294 0.256 -0.273
H57 H -0.363 0.153 -0.438
H58 H -0.459 0.076 -0.311
H59 H -0.351 0.144 -0.159
H60 H 0.339 -0.092 0.036
H61 H 0.215 -0.096 -0.001
H62 H 0.367 0.040 -0.069
H63 H 0.425 -0.084 -0.209
H64 H 0.333 -0.082 -0.337
H65 H 0.205 -0.252 -0.391
H66 H 0.312 -0.268 -0.319
O6_2 O -0.0793(4) -0.0041(4) 0.6439(5)
O7_2 O 0.1746(7) -0.0256(6) 0.6759(7)
Er2_2 Er 0.04310(3) -0.00607(3) -0.49061(3)
Cl1 Cl 0.4646(2) 0.3123(2) 0.9355(2)
O19 O 0.394(1) 0.3506(8) 0.862(1)
O20 O 0.384(1) 0.221(1) 0.954(2)
O21 O 0.534(1) 0.399(1) 1.090(1)
O22 O 0.541(2) 0.292(2) 0.864(2)
Cl2 Cl -0.4252(2) -0.3290(2) -0.4117(3)
O26 O -0.3338(8) -0.3306(8) -0.3051(9)
O27 O -0.512(1) -0.434(1) -0.520(2)
O28 O -0.458(1) -0.244(1) -0.317(1)
O29 O -0.362(2) -0.255(2) -0.483(3)
Cl3 Cl 0.1568(2) 0.4442(2) 0.6657(3)
O33 O 0.2242(8) 0.5253(6) 0.8225(8)
O34 O 0.0510(7) 0.3653(6) 0.667(1)
O35 O 0.206(1) 0.3731(9) 0.602(1)
O36 O 0.1269(9) 0.5024(7) 0.586(1)
Cl4 Cl -0.1446(2) -0.4641(2) -0.1068(2)
O37 O -0.1308(6) -0.5348(5) -0.0314(7)
O38 O -0.2174(7) -0.5325(7) -0.2571(8)
O39 O -0.198(1) -0.3973(9) -0.030(1)
O40 O -0.0340(7) -0.3911(6) -0.0940(9)
Cl5 Cl -0.3812(2) 0.0488(2) 0.1177(2)
O41 O -0.3039(7) 0.0831(8) 0.2657(7)
O42 O -0.4740(6) -0.0616(6) 0.0695(8)
O43 O -0.4282(7) 0.1238(7) 0.101(1)
O44 O -0.3175(6) 0.0322(7) 0.0182(8)
Cl6 Cl 0.3928(2) -0.1193(3) 0.3171(3)
O45 O 0.5026(7) -0.1115(8) 0.3715(8)
O46 O 0.3357(7) -0.2055(7) 0.1642(7)
O47 O 0.395(1) -0.017(1) 0.317(1)
O48 O 0.3275(9) -0.155(1) 0.406(1)
O23? O 0.433(2) 0.314(3) 1.061(2)
O24? O 0.584(1) 0.383(2) 0.950(2)
O25? O 0.441(2) 0.203(1) 0.809(2)
O30? O -0.527(1) -0.430(1) -0.426(2)
O31? O -0.448(2) -0.234(1) -0.376(2)
O32? O -0.434(2) -0.383(2) -0.571(2)
loop_
_geom_bond_atom_site_label_1
_geom_bond_atom_site_label_2
_geom_bond_site_symmetry_1
_geom_bond_site_symmetry_2
Er1 O1 1_555 1_555
Er2 O2 1_555 1_555
O1 C1 1_555 1_555
O2 C1 1_555 1_555
N1 C2 1_555 1_555
C1 C2 1_555 1_555
C2 C3 1_555 1_555
C3 C4 1_555 1_555
C4 C5 1_555 1_555
C5 N1 1_555 1_555
O3 Er1 1_555 1_555
O4 Er2 1_555 1_555
N2 C7 1_555 1_555
C6 O3 1_555 1_555
C7 C6 1_555 1_555
C8 C7 1_555 1_555
C9 C8 1_555 1_555
C10 N2 1_555 1_555
O5 Er1 1_555 1_555
O6 C11 1_555 1_555
N3 C12 1_555 1_555
C11 O5 1_555 1_555
C12 C11 1_555 1_555
C13 C12 1_555 1_555
C14 C13 1_555 1_555
C15 N3 1_555 1_555
O7 C16 1_555 1_555
O8 Er1 1_555 1_555
N4 C17 1_555 1_555
C16 O8 1_555 1_555
C17 C16 1_555 1_555
C18 C17 1_555 1_555
C19 C18 1_555 1_555
C20 N4 1_555 1_555
O9 Er1 1_555 1_555
O10 C21 1_555 1_555
N5 C22 1_555 1_555
C21 O9 1_555 1_555
C22 C21 1_555 1_555
C23 C22 1_555 1_555
C24 C23 1_555 1_555
C25 N5 1_555 1_555
O11 Er2 1_555 1_555
O12 C26 1_555 1_555
N6 C27 1_555 1_555
C26 O11 1_555 1_555
C27 C26 1_555 1_555
C28 C27 1_555 1_555
C29 C28 1_555 1_555
C30 N6 1_555 1_555
O13 Er1 1_555 1_555
O14 Er1 1_555 1_555
O15 Er1 1_555 1_555
O16 Er2 1_555 1_555
O17 Er2 1_555 1_555
O18 Er2 1_555 1_555
Cl1 O19 1_555 1_555
O20 Cl1 1_555 1_555
O21 Cl1 1_555 1_555
O22 Cl1 1_555 1_555
Cl2 O26 1_555 1_555
O27 Cl2 1_555 1_555
O28 Cl2 1_555 1_555
O29 Cl2 1_555 1_555
Cl3 O33 1_555 1_555
O34 Cl3 1_555 1_555
O35 Cl3 1_555 1_555
O36 Cl3 1_555 1_555
Cl4 O37 1_555 1_555
O38 Cl4 1_555 1_555
O39 Cl4 1_555 1_555
O40 Cl4 1_555 1_555
Cl5 O41 1_555 1_555
O42 Cl5 1_555 1_555
O43 Cl5 1_555 1_555
O44 Cl5 1_555 1_555
Cl6 O45 1_555 1_555
O46 Cl6 1_555 1_555
O47 Cl6 1_555 1_555
O48 Cl6 1_555 1_555
H1 C20 1_555 1_555
H2 C20 1_555 1_555
H3 N5 1_555 1_555
H4 N5 1_555 1_555
H5 C22 1_555 1_555
H6 C23 1_555 1_555
H7 C23 1_555 1_555
H8 C24 1_555 1_555
H9 C24 1_555 1_555
H10 C25 1_555 1_555
H11 C25 1_555 1_555
H12 N6 1_555 1_555
H13 N6 1_555 1_555
H14 C27 1_555 1_555
H15 C28 1_555 1_555
H16 C28 1_555 1_555
H17 C29 1_555 1_555
H18 C29 1_555 1_555
H19 C30 1_555 1_555
H20 C30 1_555 1_555
H21 O13 1_555 1_555
H22 O13 1_555 1_555
H23 O14 1_555 1_555
H24 O14 1_555 1_555
H25 O15 1_555 1_555
H26 O15 1_555 1_555
H27 O16 1_555 1_555
H28 O16 1_555 1_555
H29 O17 1_555 1_555
H30 O17 1_555 1_555
H31 O18 1_555 1_555
H32 O18 1_555 1_555
H33 N1 1_555 1_555
H34 N1 1_555 1_555
H35 C2 1_555 1_555
H36 C3 1_555 1_555
H37 C3 1_555 1_555
H38 C4 1_555 1_555
H39 C4 1_555 1_555
H40 C5 1_555 1_555
H41 C5 1_555 1_555
H42 N2 1_555 1_555
H43 N2 1_555 1_555
H44 C7 1_555 1_555
H45 C8 1_555 1_555
H46 C8 1_555 1_555
H47 C9 1_555 1_555
H48 C9 1_555 1_555
H49 C10 1_555 1_555
H50 C10 1_555 1_555
H51 N3 1_555 1_555
H52 N3 1_555 1_555
H53 C12 1_555 1_555
H54 C13 1_555 1_555
H55 C13 1_555 1_555
H56 C14 1_555 1_555
H57 C14 1_555 1_555
H58 C15 1_555 1_555
H59 C15 1_555 1_555
H60 N4 1_555 1_555
H61 N4 1_555 1_555
H62 C17 1_555 1_555
H63 C18 1_555 1_555
H64 C18 1_555 1_555
H65 C19 1_555 1_555
H66 C19 1_555 1_555
O6_2 Er2 1_555 1_555
O7_2 Er2 1_555 1_555
Er2_2 O6 1_555 1_555
O4 C6 1_555 1_555
C9 C10 1_555 1_555
C14 C15 1_555 1_555
O7 Er2_2 1_555 1_555
C19 C20 1_555 1_555
C24 C25 1_555 1_555
C29 C30 1_555 1_555

#END
