
#######################################################################
#
#                 Cambridge Crystallographic Data Centre
#                                CCDC 
#
#######################################################################
#
# If this CIF has been generated from an entry in the Cambridge 
# Structural Database, then it will include bibliographic, chemical, 
# crystal, experimental, refinement or atomic coordinate data resulting 
# from the CCDC's data processing and validation procedures.
#
#######################################################################

data_WAZYAZ
_symmetry_cell_setting           triclinic
_symmetry_space_group_name_H-M   'P -1'
_symmetry_Int_Tables_number      2
_space_group_name_Hall           '-P 1'
loop_
_symmetry_equiv_pos_site_id
_symmetry_equiv_pos_as_xyz
1 x,y,z
2 -x,-y,-z
_cell_length_a                   12.610(3)
_cell_length_b                   13.622(3)
_cell_length_c                   15.282(3)
_cell_angle_alpha                71.928(8)
_cell_angle_beta                 79.279(9)
_cell_angle_gamma                81.346(9)
_cell_volume                     2439.86
loop_
_atom_site_label
_atom_site_type_symbol
_atom_site_fract_x
_atom_site_fract_y
_atom_site_fract_z
Eu1 Eu 0.718396(11) 0.267298(10) 0.735352(9)
P1 P 0.56733(6) 0.22570(5) 0.97451(5)
P2 P 0.97546(6) 0.25648(5) 0.56960(5)
F1 F 0.5362(2) 0.4015(2) 0.39266(17)
F2 F 0.31761(19) 0.4053(2) 0.76559(18)
F3 F 0.3196(2) 0.2420(2) 0.7912(2)
F4 F 0.8921(2) -0.15678(18) 0.89693(18)
F5 F 0.27302(19) 0.3463(2) 0.66400(18)
F6 F 0.6926(2) 0.66039(18) 0.63087(19)
F7 F 0.5868(2) 0.61556(18) 0.7577(2)
F8 F 0.6989(3) 0.4088(3) 0.39667(18)
F9 F 0.6433(4) 0.2638(2) 0.4256(2)
F10 F 0.7326(2) 0.67910(19) 0.7551(2)
F11 F 0.9940(4) 0.2877(5) 0.9263(4)
F12 F 1.0743(2) 0.3587(6) 0.8108(3)
F13 F 0.9977(4) 0.4350(5) 0.8979(5)
F14 F 0.5372(2) -0.0067(3) 0.6683(2)
F15 F 0.6684(3) 0.0276(2) 0.5663(2)
F16 F 0.6691(4) -0.1159(2) 0.6695(3)
F17 F 0.8075(2) -0.0749(2) 0.99121(16)
F18 F 0.9564(2) -0.0264(2) 0.9079(2)
O1 O 0.64508(17) 0.26059(16) 0.88685(14)
O2 O 0.52481(17) 0.30341(17) 0.73989(15)
O3 O 0.67696(18) 0.33576(17) 0.57889(14)
O4 O 0.66042(18) 0.12630(16) 0.69933(16)
O5 O 0.79215(19) 0.10362(17) 0.83249(15)
O6 O 0.87557(17) 0.23343(16) 0.63969(15)
O7 O 0.70779(18) 0.44827(16) 0.71070(15)
O8 O 0.86852(18) 0.30652(17) 0.79704(16)
C1 C 0.6905(2) 0.0321(2) 0.7142(2)
C2 C 0.6294(2) 0.2215(2) 1.07238(19)
C3 C 0.9687(2) 0.2175(2) 0.4689(2)
C4 C 0.7416(2) 0.2205(2) 1.0609(2)
C5 C 0.5942(2) 0.3446(2) 0.5430(2)
C6 C 0.5671(2) 0.2222(2) 1.1582(2)
C7 C 0.8903(2) 0.3845(2) 0.8129(2)
C8 C 0.9922(2) 0.3931(2) 0.53060(19)
C9 C 0.7479(2) 0.5065(2) 0.7423(2)
C10 C 0.4460(2) 0.3136(2) 0.9740(2)
C11 C 0.4615(2) 0.3248(2) 0.6812(2)
C12 C 0.9029(2) 0.4624(2) 0.5024(2)
C13 C 1.0835(2) 0.1421(2) 0.7148(2)
C14 C 0.5286(2) 0.0978(2) 0.9913(2)
C15 C 0.5372(2) 0.0176(2) 1.0735(2)
C16 C 0.9667(3) 0.1402(3) 0.3220(2)
C17 C 1.0889(2) 0.4316(2) 0.5280(2)
C18 C 0.8012(2) 0.0113(2) 0.8327(2)
C19 C 1.2775(2) 0.1088(2) 0.6040(2)
C20 C 0.3444(2) 0.2821(2) 1.0117(2)
C21 C 1.0187(3) 0.2672(3) 0.3809(2)
C22 C 0.4916(2) 0.0794(2) 0.9179(2)
C23 C 0.6181(3) 0.2225(2) 1.2311(2)
C24 C 1.0926(2) 0.1848(2) 0.6185(2)
C25 C 1.1904(2) 0.1678(2) 0.5631(2)
C26 C 0.4870(2) 0.3424(2) 0.5858(2)
C27 C 0.9912(3) 0.3692(3) 0.8604(3)
C28 C 0.2666(3) 0.4600(2) 0.9707(2)
C29 C 0.7290(3) 0.2239(3) 1.2186(2)
C30 C 0.9163(3) 0.1301(2) 0.4831(2)
C31 C 0.4577(2) 0.4185(2) 0.9342(2)
C32 C 0.3674(3) 0.4914(2) 0.9334(3)
C33 C 0.2547(3) 0.3553(3) 1.0097(3)
C34 C 0.7575(2) -0.0306(2) 0.7765(2)
C35 C 0.8655(3) -0.0622(2) 0.9080(2)
C36 C 0.6170(3) 0.3557(3) 0.4383(2)
C37 C 0.6436(3) -0.0179(2) 0.6537(2)
C38 C 0.3416(2) 0.3302(3) 0.7250(2)
C39 C 1.1703(3) 0.0821(3) 0.7552(2)
C40 C 1.0180(3) 0.2271(3) 0.3070(2)
C41 C 0.8346(2) 0.4840(2) 0.7911(2)
C42 C 0.9147(3) 0.0929(3) 0.4082(2)
C43 C 0.7909(3) 0.2223(3) 1.1342(2)
C44 C 1.2670(3) 0.0658(2) 0.6995(3)
C45 C 0.6904(3) 0.6167(2) 0.7215(2)
H1 H 0.7842 0.2187 1.0031
H2 H 0.4905 0.2226 1.1664
H3 H 1.0173 0.1544 0.7530
H4 H 0.9674 0.1126 0.2719
H5 H 1.3445 0.0978 0.5663
H6 H 0.3357 0.2104 1.0390
H7 H 1.0532 0.3281 0.3706
H8 H 0.5764 0.2217 1.2899
H9 H 1.1974 0.1967 0.4974
H10 H 0.2051 0.5097 0.9699
H11 H 0.7631 0.2260 1.2683
H12 H 0.8818 0.0958 0.5434
H13 H 0.5274 0.4407 0.9074
H14 H 0.3760 0.5632 0.9067
H15 H 0.1846 0.3334 1.0353
H16 H 1.1634 0.0522 0.8208
H17 H 1.0530 0.2601 0.2465
H18 H 0.8772 0.0342 0.4172
H19 H 0.8674 0.2224 1.1264
H20 H 1.3267 0.0248 0.7270
H21 H 0.4306 0.3531 0.5494
H22 H 0.7735 -0.1022 0.7808
H23 H 0.8568 0.5368 0.8102
H24 H 0.8363 0.4368 0.5040
H25 H 0.5628 0.0297 1.1236
H26 H 1.1499 0.3851 0.5472
H27 H 0.4860 0.1338 0.8618
Eu1A Eu 0.281604(11) -0.267298(10) 1.264648(9)
Eu1A_2 Eu 1.281604(11) 0.732702(10) 0.264648(9)
P1A P 0.43267(6) -0.22570(5) 1.02549(5)
P2A P 1.02454(6) 0.74352(5) 0.43040(5)
F1A F 0.4638(2) -0.4015(2) 1.60734(17)
F2A F 0.68239(19) -0.4053(2) 1.23441(18)
F3A F 0.6804(2) -0.2420(2) 1.2088(2)
F4A F 0.1079(2) 0.15678(18) 1.10307(18)
F5A F 0.72698(19) -0.3463(2) 1.33600(18)
F6A F 0.3074(2) -0.66039(18) 1.36913(19)
F7A F 0.4132(2) -0.61556(18) 1.2423(2)
F8A F 0.3011(3) -0.4088(3) 1.60333(18)
F9A F 0.3567(4) -0.2638(2) 1.5744(2)
F10A F 0.2674(2) -0.67910(19) 1.2449(2)
F11A F 0.0060(4) -0.2877(5) 1.0737(4)
F12A F -0.0743(2) -0.3587(6) 1.1892(3)
F13A F 0.0023(4) -0.4350(5) 1.1021(5)
F14A F 0.4628(2) 0.0067(3) 1.3317(2)
F15A F 0.3316(3) -0.0276(2) 1.4337(2)
F16A F 0.3309(4) 0.1159(2) 1.3305(3)
F17A F 0.1925(2) 0.0749(2) 1.00879(16)
F18A F 0.0436(2) 0.0264(2) 1.0921(2)
O1A O 0.35492(17) -0.26059(16) 1.11315(14)
O2A O 0.47519(17) -0.30341(17) 1.26011(15)
O3A O 0.32304(18) -0.33576(17) 1.42111(14)
O4A O 0.33958(18) -0.12630(16) 1.30067(16)
O5A O 0.20785(19) -0.10362(17) 1.16751(15)
O6A O 1.12443(17) 0.76657(16) 0.36031(15)
O6A_2 O 0.12443(17) -0.23343(16) 1.36031(15)
O7A O 0.29221(18) -0.44827(16) 1.28930(15)
O8A O 0.13148(18) -0.30652(17) 1.20296(16)
C1A C 0.3095(2) -0.0321(2) 1.2858(2)
C2A C 0.3706(2) -0.2215(2) 0.92762(19)
C3A C 1.0313(2) 0.7825(2) 0.5311(2)
C4A C 0.2584(2) -0.2205(2) 0.9391(2)
C5A C 0.4058(2) -0.3446(2) 1.4570(2)
C6A C 0.4329(2) -0.2222(2) 0.8418(2)
C7A C 0.1097(2) -0.3845(2) 1.1871(2)
C8A C 1.0078(2) 0.6069(2) 0.46940(19)
C9A C 0.2521(2) -0.5065(2) 1.2577(2)
C10A C 0.5540(2) -0.3136(2) 1.0260(2)
C11A C 0.5385(2) -0.3248(2) 1.3188(2)
C12A C 1.0971(2) 0.5376(2) 0.4976(2)
C13A C 0.9165(2) 0.8579(2) 0.2852(2)
C14A C 0.4714(2) -0.0978(2) 1.0087(2)
C15A C 0.4628(2) -0.0176(2) 0.9265(2)
C16A C 1.0333(3) 0.8598(3) 0.6780(2)
C17A C 0.9111(2) 0.5684(2) 0.4720(2)
C18A C 0.1988(2) -0.0113(2) 1.1673(2)
C19A C 0.7225(2) 0.8912(2) 0.3960(2)
C20A C 0.6556(2) -0.2821(2) 0.9883(2)
C21A C 0.9813(3) 0.7328(3) 0.6191(2)
C22A C 0.5084(2) -0.0794(2) 1.0821(2)
C23A C 0.3819(3) -0.2225(2) 0.7689(2)
C24A C 0.9074(2) 0.8152(2) 0.3815(2)
C25A C 0.8096(2) 0.8322(2) 0.4369(2)
C26A C 0.5130(2) -0.3424(2) 1.4142(2)
C27A C 0.0088(3) -0.3692(3) 1.1396(3)
C28A C 0.7334(3) -0.4600(2) 1.0293(2)
C29A C 0.2710(3) -0.2239(3) 0.7814(2)
C30A C 1.0837(3) 0.8699(2) 0.5169(2)
C31A C 0.5423(2) -0.4185(2) 1.0658(2)
C32A C 0.6326(3) -0.4914(2) 1.0666(3)
C33A C 0.7453(3) -0.3553(3) 0.9903(3)
C34A C 0.2425(2) 0.0306(2) 1.2235(2)
C35A C 0.1345(3) 0.0622(2) 1.0920(2)
C36A C 0.3830(3) -0.3557(3) 1.5617(2)
C37A C 0.3564(3) 0.0179(2) 1.3463(2)
C38A C 0.6584(2) -0.3302(3) 1.2750(2)
C39A C 0.8297(3) 0.9179(3) 0.2448(2)
C40A C 0.9820(3) 0.7729(3) 0.6930(2)
C41A C 0.1654(2) -0.4840(2) 1.2089(2)
C42A C 1.0853(3) 0.9071(3) 0.5918(2)
C43A C 0.2091(3) -0.2223(3) 0.8658(2)
C44A C 0.7330(3) 0.9342(2) 0.3005(3)
C45A C 0.3096(3) -0.6167(2) 1.2785(2)
H1A H 0.2158 -0.2187 0.9969
H2A H 0.5095 -0.2226 0.8336
H3A H 0.9827 0.8456 0.2470
H4A H 1.0326 0.8874 0.7281
H5A H 0.6555 0.9022 0.4337
H6A H 0.6643 -0.2104 0.9610
H7A H 0.9468 0.6719 0.6294
H8A H 0.4236 -0.2217 0.7101
H9A H 0.8026 0.8033 0.5026
H10A H 0.7949 -0.5097 1.0301
H11A H 0.2369 -0.2260 0.7317
H12A H 1.1182 0.9042 0.4566
H13A H 0.4726 -0.4407 1.0926
H14A H 0.6240 -0.5632 1.0933
H15A H 0.8154 -0.3334 0.9647
H16A H 0.8366 0.9478 0.1792
H17A H 0.9470 0.7399 0.7535
H18A H 1.1228 0.9658 0.5828
H19A H 0.1326 -0.2224 0.8736
H20A H 0.6733 0.9752 0.2730
H21A H 0.5694 -0.3531 1.4506
H22A H 0.2265 0.1022 1.2192
H23A H 0.1432 -0.5368 1.1898
H24A H 1.1637 0.5632 0.4960
H25A H 0.4372 -0.0297 0.8764
H26A H 0.8501 0.6149 0.4528
H27A H 0.5140 -0.1338 1.1382
loop_
_geom_bond_atom_site_label_1
_geom_bond_atom_site_label_2
_geom_bond_site_symmetry_1
_geom_bond_site_symmetry_2
Eu1 O1 1_555 1_555
P1 O1 1_555 1_555
P2 O6 1_555 1_555
F1 C36 1_555 1_555
F2 C38 1_555 1_555
F3 C38 1_555 1_555
F4 C35 1_555 1_555
F5 C38 1_555 1_555
F6 C45 1_555 1_555
F7 C45 1_555 1_555
F8 C36 1_555 1_555
F9 C36 1_555 1_555
F10 C45 1_555 1_555
F11 C27 1_555 1_555
F12 C27 1_555 1_555
F13 C27 1_555 1_555
F14 C37 1_555 1_555
F15 C37 1_555 1_555
F16 C37 1_555 1_555
F17 C35 1_555 1_555
F18 C35 1_555 1_555
O2 Eu1 1_555 1_555
O3 Eu1 1_555 1_555
O4 Eu1 1_555 1_555
O5 Eu1 1_555 1_555
O6 Eu1 1_555 1_555
O7 Eu1 1_555 1_555
O8 Eu1 1_555 1_555
C1 O4 1_555 1_555
C2 P1 1_555 1_555
C3 P2 1_555 1_555
C4 C2 1_555 1_555
C5 O3 1_555 1_555
C6 C2 1_555 1_555
C7 O8 1_555 1_555
C8 P2 1_555 1_555
C9 O7 1_555 1_555
C10 P1 1_555 1_555
C11 O2 1_555 1_555
C12 C8 1_555 1_555
C13 C24 1_555 1_555
C14 P1 1_555 1_555
C15 C14 1_555 1_555
C16 C40 1_555 1_555
C17 C8 1_555 1_555
C18 O5 1_555 1_555
C19 C25 1_555 1_555
C20 C10 1_555 1_555
C21 C3 1_555 1_555
C22 C14 1_555 1_555
C23 C6 1_555 1_555
C24 P2 1_555 1_555
C25 C24 1_555 1_555
C26 C5 1_555 1_555
C27 C7 1_555 1_555
C28 C32 1_555 1_555
C29 C23 1_555 1_555
C30 C3 1_555 1_555
C31 C10 1_555 1_555
C32 C31 1_555 1_555
C33 C20 1_555 1_555
C34 C1 1_555 1_555
C35 C18 1_555 1_555
C36 C5 1_555 1_555
C37 C1 1_555 1_555
C38 C11 1_555 1_555
C39 C13 1_555 1_555
C40 C21 1_555 1_555
C41 C7 1_555 1_555
C42 C16 1_555 1_555
C43 C4 1_555 1_555
C44 C19 1_555 1_555
C45 C9 1_555 1_555
H1 C4 1_555 1_555
H2 C6 1_555 1_555
H3 C13 1_555 1_555
H4 C16 1_555 1_555
H5 C19 1_555 1_555
H6 C20 1_555 1_555
H7 C21 1_555 1_555
H8 C23 1_555 1_555
H9 C25 1_555 1_555
H10 C28 1_555 1_555
H11 C29 1_555 1_555
H12 C30 1_555 1_555
H13 C31 1_555 1_555
H14 C32 1_555 1_555
H15 C33 1_555 1_555
H16 C39 1_555 1_555
H17 C40 1_555 1_555
H18 C42 1_555 1_555
H19 C43 1_555 1_555
H20 C44 1_555 1_555
H21 C26 1_555 1_555
H22 C34 1_555 1_555
H23 C41 1_555 1_555
H24 C12 1_555 1_555
H25 C15 1_555 1_555
H26 C17 1_555 1_555
H27 C22 1_555 1_555
Eu1A O1A 1_555 1_555
Eu1A_2 O6A 1_555 1_555
P1A O1A 1_555 1_555
P2A O6A 1_555 1_555
F1A C36A 1_555 1_555
F2A C38A 1_555 1_555
F3A C38A 1_555 1_555
F4A C35A 1_555 1_555
F5A C38A 1_555 1_555
F6A C45A 1_555 1_555
F7A C45A 1_555 1_555
F8A C36A 1_555 1_555
F9A C36A 1_555 1_555
F10A C45A 1_555 1_555
F11A C27A 1_555 1_555
F12A C27A 1_555 1_555
F13A C27A 1_555 1_555
F14A C37A 1_555 1_555
F15A C37A 1_555 1_555
F16A C37A 1_555 1_555
F17A C35A 1_555 1_555
F18A C35A 1_555 1_555
O2A Eu1A 1_555 1_555
O3A Eu1A 1_555 1_555
O4A Eu1A 1_555 1_555
O5A Eu1A 1_555 1_555
O6A_2 Eu1A 1_555 1_555
O7A Eu1A 1_555 1_555
O8A Eu1A 1_555 1_555
C1A O4A 1_555 1_555
C2A P1A 1_555 1_555
C3A P2A 1_555 1_555
C4A C2A 1_555 1_555
C5A O3A 1_555 1_555
C6A C2A 1_555 1_555
C7A O8A 1_555 1_555
C8A P2A 1_555 1_555
C9A O7A 1_555 1_555
C10A P1A 1_555 1_555
C11A O2A 1_555 1_555
C12A C17 1_555 1_555
C13A C24A 1_555 1_555
C14A P1A 1_555 1_555
C15A C22 1_555 1_555
C16A C40A 1_555 1_555
C17A C12 1_555 1_555
C18A O5A 1_555 1_555
C19A C25A 1_555 1_555
C20A C10A 1_555 1_555
C21A C3A 1_555 1_555
C22A C15 1_555 1_555
C23A C6A 1_555 1_555
C24A P2A 1_555 1_555
C25A C24A 1_555 1_555
C26A C5A 1_555 1_555
C27A C7A 1_555 1_555
C28A C32A 1_555 1_555
C29A C23A 1_555 1_555
C30A C3A 1_555 1_555
C31A C10A 1_555 1_555
C32A C31A 1_555 1_555
C33A C20A 1_555 1_555
C34A C1A 1_555 1_555
C35A C18A 1_555 1_555
C36A C5A 1_555 1_555
C37A C1A 1_555 1_555
C38A C11A 1_555 1_555
C39A C13A 1_555 1_555
C40A C21A 1_555 1_555
C41A C7A 1_555 1_555
C42A C16A 1_555 1_555
C43A C4A 1_555 1_555
C44A C19A 1_555 1_555
C45A C9A 1_555 1_555
H1A C4A 1_555 1_555
H2A C6A 1_555 1_555
H3A C13A 1_555 1_555
H4A C16A 1_555 1_555
H5A C19A 1_555 1_555
H6A C20A 1_555 1_555
H7A C21A 1_555 1_555
H8A C23A 1_555 1_555
H9A C25A 1_555 1_555
H10A C28A 1_555 1_555
H11A C29A 1_555 1_555
H12A C30A 1_555 1_555
H13A C31A 1_555 1_555
H14A C32A 1_555 1_555
H15A C33A 1_555 1_555
H16A C39A 1_555 1_555
H17A C40A 1_555 1_555
H18A C42A 1_555 1_555
H19A C43A 1_555 1_555
H20A C44A 1_555 1_555
H21A C26A 1_555 1_555
H22A C34A 1_555 1_555
H23A C41A 1_555 1_555
H24A C12A 1_555 1_555
H25A C15A 1_555 1_555
H26A C17A 1_555 1_555
H27A C22A 1_555 1_555
C9 C41 1_555 1_555
C11 C26 1_555 1_555
C18 C34 1_555 1_555
C28 C33 1_555 1_555
C29 C43 1_555 1_555
C30 C42 1_555 1_555
C39 C44 1_555 1_555
C8A C12A 1_555 1_555
C8A C17A 1_555 1_555
C9A C41A 1_555 1_555
C11A C26A 1_555 1_555
C14A C15A 1_555 1_555
C14A C22A 1_555 1_555
C18A C34A 1_555 1_555
C28A C33A 1_555 1_555
C29A C43A 1_555 1_555
C30A C42A 1_555 1_555
C39A C44A 1_555 1_555

#END
