
#######################################################################
#
#                 Cambridge Crystallographic Data Centre
#                                CCDC 
#
#######################################################################
#
# If this CIF has been generated from an entry in the Cambridge 
# Structural Database, then it will include bibliographic, chemical, 
# crystal, experimental, refinement or atomic coordinate data resulting 
# from the CCDC's data processing and validation procedures.
#
#######################################################################

data_WAZYON
_symmetry_cell_setting           monoclinic
_symmetry_space_group_name_H-M   'P 21/n'
_symmetry_Int_Tables_number      14
_space_group_name_Hall           '-P 2yn'
loop_
_symmetry_equiv_pos_site_id
_symmetry_equiv_pos_as_xyz
1 x,y,z
2 1/2-x,1/2+y,1/2-z
3 -x,-y,-z
4 1/2+x,1/2-y,1/2+z
_cell_length_a                   12.3580(14)
_cell_length_b                   21.170(2)
_cell_length_c                   22.482(3)
_cell_angle_alpha                90
_cell_angle_beta                 99.6974(5)
_cell_angle_gamma                90
_cell_volume                     5797.67
loop_
_atom_site_label
_atom_site_type_symbol
_atom_site_fract_x
_atom_site_fract_y
_atom_site_fract_z
Eu1 Eu 0.663190(9) 0.721515(5) 0.384668(5)
P1 P 0.96978(5) 0.72400(3) 0.40479(3)
P2 P 1.62642(5) 0.86936(3) 0.46640(3)
F1 F 0.8277(3) 0.6383(2) 0.61134(14)
F2 F 0.8803(2) 0.59241(15) 0.54149(12)
F3 F 0.7553(2) 0.55485(15) 0.58265(17)
F4 F 0.39370(19) 0.64241(12) 0.55693(13)
F5 F 0.3340(2) 0.63807(17) 0.46308(16)
F6 F 0.27864(13) 0.73513(9) 0.28132(9)
F7 F 0.7360(2) 0.92818(11) 0.28171(11)
F8 F 0.28079(13) 0.82432(9) 0.23627(8)
F9 F 0.35924(16) 0.72645(10) 0.50725(11)
F10 F 0.76244(18) 0.85918(12) 0.21981(11)
F11 F 0.62122(18) 0.91568(11) 0.19895(11)
F12 F 0.7502(2) 0.48384(14) 0.41994(17)
F13 F 0.58245(19) 0.49700(9) 0.42233(10)
F14 F 0.7789(2) 0.66890(10) 0.19299(11)
F15 F 0.6311(3) 0.45207(10) 0.34792(12)
F16 F 0.33505(14) 0.74052(10) 0.19600(8)
F17 F 0.7814(2) 0.56801(10) 0.19597(11)
F18 F 0.6311(2) 0.61725(14) 0.16651(10)
O1 O 0.52322(14) 0.70401(9) 0.44450(9)
O2 O 0.74761(14) 0.67510(8) 0.48093(8)
O3 O 0.68107(15) 0.67558(8) 0.28824(8)
O4 O 0.48900(14) 0.74383(9) 0.32250(8)
O5 O 0.84788(13) 0.73285(8) 0.38788(8)
O6 O 1.67625(14) 0.81043(8) 0.44585(8)
O7 O 0.68325(14) 0.81144(8) 0.31910(8)
O8 O 0.63895(16) 0.60891(8) 0.38700(8)
N1 N 1.20432(16) 0.93760(10) 0.31351(10)
C1 C 0.4547(2) 0.78059(12) 0.28012(12)
C2 C 0.6230(2) 0.83836(12) 0.27685(12)
C3 C 1.15172(19) 0.79740(12) 0.39368(11)
C4 C 0.97801(19) 0.82852(12) 0.33243(12)
C5 C 1.20181(18) 0.84855(11) 0.37027(11)
C6 C 1.50322(19) 0.89338(11) 0.41749(11)
C7 C 1.72343(18) 0.93300(11) 0.46977(11)
C8 C 1.40955(19) 0.85577(11) 0.41652(11)
C9 C 1.5078(2) 0.89242(14) 0.55942(14)
C10 C 1.0128(2) 0.72520(12) 0.48516(12)
C11 C 1.4027(2) 0.96594(12) 0.34418(12)
C12 C 0.7090(2) 0.64336(12) 0.51896(12)
C13 C 1.03952(19) 0.78771(11) 0.37455(11)
C14 C 1.5875(2) 0.85630(13) 0.53894(12)
C15 C 1.0260(2) 0.87990(12) 0.30906(12)
C16 C 1.0973(2) 0.68779(15) 0.51446(13)
C17 C 1.13776(19) 0.88939(11) 0.32866(11)
C18 C 0.6629(2) 0.56279(12) 0.35670(13)
C19 C 1.7996(2) 0.93024(13) 0.43108(13)
C20 C 1.0114(2) 0.65076(12) 0.37571(12)
C21 C 1.16920(19) 0.98928(12) 0.27369(13)
C22 C 0.5171(2) 0.67148(13) 0.49003(13)
C23 C 0.3360(2) 0.77020(14) 0.24888(13)
C24 C 0.6995(2) 0.62156(13) 0.27097(12)
C25 C 1.31250(19) 0.87367(11) 0.38025(11)
C26 C 1.4988(2) 0.94738(11) 0.38097(12)
C27 C 1.1732(2) 0.98377(14) 0.21328(14)
C28 C 0.9737(2) 0.59434(14) 0.39751(14)
C29 C 1.7216(2) 0.98545(13) 0.50721(14)
C30 C 0.6948(2) 0.56437(13) 0.30048(13)
C31 C 1.30990(19) 0.92875(11) 0.34438(11)
C32 C 1.5973(2) 0.7894(2) 0.62631(16)
C33 C 0.5993(2) 0.63903(14) 0.52718(13)
C34 C 1.0926(2) 0.59094(15) 0.30384(15)
C35 C 1.4750(3) 0.87790(16) 0.61362(16)
C36 C 0.9601(2) 0.76816(15) 0.51773(14)
C37 C 1.0710(2) 0.64850(14) 0.32855(13)
C38 C 1.8723(2) 0.98024(15) 0.42890(14)
C39 C 1.0989(3) 1.09391(15) 0.2568(2)
C40 C 0.5122(2) 0.82760(13) 0.25556(13)
C41 C 1.7954(2) 1.03433(15) 0.50489(16)
C42 C 1.8693(2) 1.03196(15) 0.46557(15)
C43 C 0.6822(2) 0.88795(16) 0.24476(15)
C44 C 0.7246(3) 0.61848(16) 0.20642(16)
C45 C 0.3996(2) 0.66869(17) 0.50480(18)
C46 C 1.0789(3) 0.73624(19) 0.60848(15)
C47 C 1.5195(2) 0.82676(19) 0.64712(15)
C48 C 1.6328(2) 0.80456(17) 0.57259(14)
C49 C 0.7938(2) 0.60625(17) 0.56282(14)
C50 C 1.0554(2) 0.53566(15) 0.32588(16)
C51 C 0.9933(3) 0.77320(17) 0.57964(16)
C52 C 0.9966(2) 0.53732(14) 0.37274(16)
C53 C 1.1411(2) 1.03445(17) 0.17502(17)
C54 C 1.1313(2) 1.04382(15) 0.29613(17)
C55 C 1.1298(2) 0.69344(19) 0.57637(14)
C56 C 1.1056(2) 1.08905(15) 0.19690(18)
C57 C 0.6570(2) 0.49835(14) 0.38745(15)
H1 H 1.1931 0.7697 0.4221
H2 H 0.9019 0.8207 0.3197
H3 H 1.4126 0.8186 0.4404
H4 H 1.4757 0.9272 0.5362
H5 H 0.9843 0.9076 0.2808
H6 H 1.1328 0.6584 0.4923
H7 H 1.8022 0.8943 0.4061
H8 H 1.5634 0.9718 0.3815
H9 H 1.1977 0.9456 0.1977
H10 H 0.9322 0.5954 0.4294
H11 H 1.6702 0.9876 0.5341
H12 H 1.6264 0.7534 0.6487
H13 H 1.1332 0.5895 0.2716
H14 H 1.4214 0.9033 0.6279
H15 H 0.9020 0.7937 0.4977
H16 H 1.0969 0.6865 0.3133
H17 H 1.9239 0.9786 0.4021
H18 H 1.0720 1.1317 0.2717
H19 H 1.7949 1.0698 0.5307
H20 H 1.9185 1.0661 0.4638
H21 H 1.1026 0.7405 0.6507
H22 H 1.4969 0.8172 0.6844
H23 H 1.6877 0.7797 0.5588
H24 H 1.0705 0.4963 0.3087
H25 H 0.9574 0.8020 0.6022
H26 H 0.9718 0.4991 0.3880
H27 H 1.1442 1.0309 0.1332
H28 H 1.1271 1.0474 0.3378
H29 H 1.1874 0.6677 0.5966
H30 H 1.0854 1.1238 0.1706
H31 H 1.4003 1.0027 0.3197
H32 H 0.7135 0.5263 0.2822
H33 H 0.5811 0.6134 0.5588
H34 H 0.4751 0.8529 0.2236
Eu1_2 Eu 1.663190(9) 0.721515(5) 0.384668(5)
O6_2 O 0.67625(14) 0.81043(8) 0.44585(8)
loop_
_geom_bond_atom_site_label_1
_geom_bond_atom_site_label_2
_geom_bond_site_symmetry_1
_geom_bond_site_symmetry_2
Eu1 O1 1_555 1_555
P1 O5 1_555 1_555
P2 O6 1_555 1_555
F1 C49 1_555 1_555
F2 C49 1_555 1_555
F3 C49 1_555 1_555
F4 C45 1_555 1_555
F5 C45 1_555 1_555
F6 C23 1_555 1_555
F7 C43 1_555 1_555
F8 C23 1_555 1_555
F9 C45 1_555 1_555
F10 C43 1_555 1_555
F11 C43 1_555 1_555
F12 C57 1_555 1_555
F13 C57 1_555 1_555
F14 C44 1_555 1_555
F15 C57 1_555 1_555
F16 C23 1_555 1_555
F17 C44 1_555 1_555
F18 C44 1_555 1_555
O1 C22 1_555 1_555
O2 Eu1 1_555 1_555
O3 Eu1 1_555 1_555
O4 Eu1 1_555 1_555
O5 Eu1 1_555 1_555
O6 Eu1_2 1_555 1_555
O7 Eu1 1_555 1_555
O8 Eu1 1_555 1_555
N1 C17 1_555 1_555
C1 O4 1_555 1_555
C2 O7 1_555 1_555
C3 C5 1_555 1_555
C4 C13 1_555 1_555
C5 C17 1_555 1_555
C6 P2 1_555 1_555
C7 P2 1_555 1_555
C8 C6 1_555 1_555
C9 C14 1_555 1_555
C10 P1 1_555 1_555
C11 C26 1_555 1_555
C12 O2 1_555 1_555
C13 P1 1_555 1_555
C14 P2 1_555 1_555
C15 C4 1_555 1_555
C16 C10 1_555 1_555
C17 C15 1_555 1_555
C18 O8 1_555 1_555
C19 C7 1_555 1_555
C20 P1 1_555 1_555
C21 N1 1_555 1_555
C22 C33 1_555 1_555
C23 C1 1_555 1_555
C24 O3 1_555 1_555
C25 C5 1_555 1_555
C26 C6 1_555 1_555
C27 C21 1_555 1_555
C28 C20 1_555 1_555
C29 C7 1_555 1_555
C30 C18 1_555 1_555
C31 N1 1_555 1_555
C32 C47 1_555 1_555
C33 C12 1_555 1_555
C34 C37 1_555 1_555
C35 C9 1_555 1_555
C36 C10 1_555 1_555
C37 C20 1_555 1_555
C38 C19 1_555 1_555
C39 C54 1_555 1_555
C40 C1 1_555 1_555
C41 C29 1_555 1_555
C42 C38 1_555 1_555
C43 C2 1_555 1_555
C44 C24 1_555 1_555
C45 C22 1_555 1_555
C46 C51 1_555 1_555
C47 C35 1_555 1_555
C48 C14 1_555 1_555
C49 C12 1_555 1_555
C50 C34 1_555 1_555
C51 C36 1_555 1_555
C52 C28 1_555 1_555
C53 C27 1_555 1_555
C54 C21 1_555 1_555
C55 C16 1_555 1_555
C56 C39 1_555 1_555
C57 C18 1_555 1_555
H1 C3 1_555 1_555
H2 C4 1_555 1_555
H3 C8 1_555 1_555
H4 C9 1_555 1_555
H5 C15 1_555 1_555
H6 C16 1_555 1_555
H7 C19 1_555 1_555
H8 C26 1_555 1_555
H9 C27 1_555 1_555
H10 C28 1_555 1_555
H11 C29 1_555 1_555
H12 C32 1_555 1_555
H13 C34 1_555 1_555
H14 C35 1_555 1_555
H15 C36 1_555 1_555
H16 C37 1_555 1_555
H17 C38 1_555 1_555
H18 C39 1_555 1_555
H19 C41 1_555 1_555
H20 C42 1_555 1_555
H21 C46 1_555 1_555
H22 C47 1_555 1_555
H23 C48 1_555 1_555
H24 C50 1_555 1_555
H25 C51 1_555 1_555
H26 C52 1_555 1_555
H27 C53 1_555 1_555
H28 C54 1_555 1_555
H29 C55 1_555 1_555
H30 C56 1_555 1_555
H31 C11 1_555 1_555
H32 C30 1_555 1_555
H33 C33 1_555 1_555
H34 C40 1_555 1_555
O6_2 Eu1 1_555 1_555
C2 C40 1_555 1_555
C3 C13 1_555 1_555
C8 C25 1_555 1_555
C11 C31 1_555 1_555
C24 C30 1_555 1_555
C25 C31 1_555 1_555
C32 C48 1_555 1_555
C41 C42 1_555 1_555
C46 C55 1_555 1_555
C50 C52 1_555 1_555
C53 C56 1_555 1_555

#END
