
#######################################################################
#
#                 Cambridge Crystallographic Data Centre
#                                CCDC 
#
#######################################################################
#
# If this CIF has been generated from an entry in the Cambridge 
# Structural Database, then it will include bibliographic, chemical, 
# crystal, experimental, refinement or atomic coordinate data resulting 
# from the CCDC's data processing and validation procedures.
#
#######################################################################

data_WAZYIH
_symmetry_cell_setting           monoclinic
_symmetry_space_group_name_H-M   'C 2/c'
_symmetry_Int_Tables_number      15
_space_group_name_Hall           '-C 2yn'
loop_
_symmetry_equiv_pos_site_id
_symmetry_equiv_pos_as_xyz
1 x,y,z
2 -x,y,1/2-z
3 1/2+x,1/2+y,z
4 1/2-x,1/2+y,1/2-z
5 -x,-y,-z
6 x,-y,1/2+z
7 1/2-x,1/2-y,-z
8 1/2+x,1/2-y,1/2+z
_cell_length_a                   22.786(2)
_cell_length_b                   13.6381(8)
_cell_length_c                   17.0846(11)
_cell_angle_alpha                90
_cell_angle_beta                 103.0178(15)
_cell_angle_gamma                90
_cell_volume                     5172.73
loop_
_atom_site_label
_atom_site_type_symbol
_atom_site_fract_x
_atom_site_fract_y
_atom_site_fract_z
Eu1 Eu 0.5000 0.269777(9) 0.2500
S1 S 0.68218(2) 0.27000(4) 0.38826(3)
P1 P 0.65071(2) 0.18514(4) 0.21931(3)
F1 F 0.56533(7) -0.02118(11) 0.50152(10)
F2 F 0.53620(9) -0.05881(12) 0.37730(11)
F3 F 0.48008(8) 0.39384(14) 0.51660(11)
F4 F 0.62524(7) -0.00269(13) 0.42250(12)
F5 F 0.57491(9) 0.40141(19) 0.53887(15)
F6 F 0.53254(17) 0.29033(18) 0.59492(12)
F7 F 0.64524(10) 0.5457(2) 0.23072(17)
F8 F 0.60458(9) 0.65741(14) 0.2851(2)
F9 F 0.64756(8) 0.53781(16) 0.35252(13)
O1 O 0.53693(7) 0.13017(11) 0.33337(9)
O2 O 0.58802(7) 0.22048(10) 0.21555(10)
O3 O 0.51884(7) 0.31731(11) 0.38914(9)
O4 O 0.56316(6) 0.41231(11) 0.26551(10)
C1 C 0.68752(10) 0.26179(17) 0.15960(14)
C2 C 0.52876(11) 0.27326(16) 0.45425(15)
C3 C 0.69487(9) 0.18480(15) 0.31959(12)
C4 C 0.56794(11) 0.00576(18) 0.42761(15)
C5 C 0.74953(11) 0.2665(2) 0.17042(17)
C6 C 0.54611(9) 0.11087(16) 0.40594(14)
C7 C 0.74222(9) 0.22697(13) 0.46070(12)
C8 C 0.74243(9) 0.12488(16) 0.35216(13)
C9 C 0.61338(12) -0.00454(18) 0.21094(15)
C10 C 0.55452(10) 0.50200(16) 0.26499(14)
C11 C 0.65255(9) 0.06083(17) 0.18698(13)
C12 C 0.76957(9) 0.14946(16) 0.43231(13)
C13 C 0.52878(13) 0.3396(2) 0.52718(16)
C14 C 0.65585(16) -0.1342(2) 0.1462(2)
C15 C 0.65155(12) 0.3181(2) 0.10032(18)
C16 C 0.5000 0.5521(2) 0.2500
C17 C 0.54140(11) 0.17383(18) 0.46878(14)
C18 C 0.77510(12) 0.3244(2) 0.11993(18)
C19 C 0.69236(11) 0.0292(2) 0.14142(18)
C20 C 0.73921(13) 0.3770(2) 0.05991(18)
C21 C 0.69330(14) -0.0688(2) 0.1209(2)
C22 C 0.61280(12) 0.5625(2) 0.2832(2)
C23 C 0.61505(15) -0.1029(2) 0.19039(18)
C24 C 0.67792(14) 0.3758(2) 0.0501(2)
H1 H 0.7746 0.2300 0.2124
H2 H 0.7557 0.0725 0.3238
H3 H 0.5857 0.0177 0.2411
H4 H 0.8034 0.1157 0.4634
H5 H 0.6578 -0.2017 0.1335
H6 H 0.6090 0.3175 0.0938
H7 H 0.5000 0.6218 0.2500
H8 H 0.5468 0.1488 0.5218
H9 H 0.8176 0.3273 0.1273
H10 H 0.7187 0.0745 0.1246
H11 H 0.7569 0.4148 0.0246
H12 H 0.7200 -0.0908 0.0891
H13 H 0.5885 -0.1484 0.2064
H14 H 0.6533 0.4143 0.0091
Eu1F Eu 1.0000 0.230223(9) 0.7500
S1F S 0.81782(2) 0.23000(4) 0.61174(3)
P1F P 0.84929(2) 0.31486(4) 0.78069(3)
F1A F 0.43467(7) -0.02118(11) -0.00152(10)
F2A F 0.46380(9) -0.05881(12) 0.12270(11)
F3A F 0.51992(8) 0.39384(14) -0.01660(11)
F4A F 0.37476(7) -0.00269(13) 0.07750(12)
F5A F 0.42509(9) 0.40141(19) -0.03887(15)
F6A F 0.46746(17) 0.29033(18) -0.09492(12)
F7A F 0.35476(10) 0.5457(2) 0.26928(17)
F8A F 0.39542(9) 0.65741(14) 0.2149(2)
F9A F 0.35244(8) 0.53781(16) 0.14748(13)
O1A O 0.46307(7) 0.13017(11) 0.16663(9)
O2F O 0.91198(7) 0.27952(10) 0.78445(10)
O2A O 0.41198(7) 0.22048(10) 0.28445(10)
O3A O 0.48116(7) 0.31731(11) 0.11086(9)
O4A O 0.43684(6) 0.41231(11) 0.23449(10)
C1F C 0.81248(10) 0.23821(17) 0.84040(14)
C2A C 0.47124(11) 0.27326(16) 0.04575(15)
C3F C 0.80513(9) 0.31520(15) 0.68041(12)
C4A C 0.43206(11) 0.00576(18) 0.07239(15)
C5F C 0.75047(11) 0.2335(2) 0.82958(17)
C6A C 0.45389(9) 0.11087(16) 0.09406(14)
C7F C 0.75778(9) 0.27303(13) 0.53930(12)
C8F C 0.75757(9) 0.37512(16) 0.64784(13)
C9F C 0.88662(12) 0.50454(18) 0.78906(15)
C10A C 0.44548(10) 0.50200(16) 0.23501(14)
C11F C 0.84745(9) 0.43917(17) 0.81302(13)
C12F C 0.73043(9) 0.35054(16) 0.56769(13)
C13A C 0.47122(13) 0.3396(2) -0.02718(16)
C14F C 0.84415(16) 0.6342(2) 0.8538(2)
C15F C 0.84845(12) 0.1819(2) 0.89968(18)
C17A C 0.45860(11) 0.17383(18) 0.03122(14)
C18F C 0.72490(12) 0.1756(2) 0.88007(18)
C19F C 0.80764(11) 0.4708(2) 0.85858(18)
C20F C 0.76079(13) 0.1230(2) 0.94009(18)
C21F C 0.80670(14) 0.5688(2) 0.8791(2)
C22A C 0.38720(12) 0.5625(2) 0.2168(2)
C23F C 0.88495(15) 0.6029(2) 0.80961(18)
C24F C 0.82208(14) 0.1242(2) 0.9499(2)
H1F H 0.7254 0.2700 0.7876
H2F H 0.7443 0.4275 0.6762
H3F H 0.9143 0.4823 0.7589
H4F H 0.6966 0.3843 0.5366
H5F H 0.8422 0.7017 0.8665
H6F H 0.8910 0.1825 0.9062
H8A H 0.4532 0.1488 -0.0218
H9F H 0.6824 0.1727 0.8727
H10F H 0.7813 0.4255 0.8754
H11F H 0.7431 0.0852 0.9754
H12F H 0.7800 0.5908 0.9109
H13F H 0.9115 0.6484 0.7936
H14F H 0.8467 0.0857 0.9909
loop_
_geom_bond_atom_site_label_1
_geom_bond_atom_site_label_2
_geom_bond_site_symmetry_1
_geom_bond_site_symmetry_2
Eu1 O1 1_555 1_555
S1 C3 1_555 1_555
P1 O2 1_555 1_555
F1 C4 1_555 1_555
F2 C4 1_555 1_555
F3 C13 1_555 1_555
F4 C4 1_555 1_555
F5 C13 1_555 1_555
F6 C13 1_555 1_555
F7 C22 1_555 1_555
F8 C22 1_555 1_555
F9 C22 1_555 1_555
O1 C6 1_555 1_555
O2 Eu1 1_555 1_555
O3 Eu1 1_555 1_555
O4 Eu1 1_555 1_555
C1 P1 1_555 1_555
C2 O3 1_555 1_555
C3 P1 1_555 1_555
C4 C6 1_555 1_555
C5 C1 1_555 1_555
C6 C17 1_555 1_555
C7 S1 1_555 1_555
C8 C3 1_555 1_555
C9 C11 1_555 1_555
C10 O4 1_555 1_555
C11 P1 1_555 1_555
C12 C7 1_555 1_555
C13 C2 1_555 1_555
C14 C21 1_555 1_555
C15 C1 1_555 1_555
C16 C10 1_555 1_555
C17 C2 1_555 1_555
C18 C5 1_555 1_555
C19 C11 1_555 1_555
C20 C18 1_555 1_555
C21 C19 1_555 1_555
C22 C10 1_555 1_555
C23 C9 1_555 1_555
C24 C15 1_555 1_555
H1 C5 1_555 1_555
H2 C8 1_555 1_555
H3 C9 1_555 1_555
H4 C12 1_555 1_555
H5 C14 1_555 1_555
H6 C15 1_555 1_555
H7 C16 1_555 1_555
H8 C17 1_555 1_555
H9 C18 1_555 1_555
H10 C19 1_555 1_555
H11 C20 1_555 1_555
H12 C21 1_555 1_555
H13 C23 1_555 1_555
H14 C24 1_555 1_555
Eu1F O2F 1_555 1_555
S1F C3F 1_555 1_555
P1F O2F 1_555 1_555
F1A C4A 1_555 1_555
F2A C4A 1_555 1_555
F3A C13A 1_555 1_555
F4A C4A 1_555 1_555
F5A C13A 1_555 1_555
F6A C13A 1_555 1_555
F7A C22A 1_555 1_555
F8A C22A 1_555 1_555
F9A C22A 1_555 1_555
O1A Eu1 1_555 1_555
O2A Eu1 1_555 1_555
O3A Eu1 1_555 1_555
O4A Eu1 1_555 1_555
C1F P1F 1_555 1_555
C2A O3A 1_555 1_555
C3F P1F 1_555 1_555
C4A C6A 1_555 1_555
C5F C1F 1_555 1_555
C6A O1A 1_555 1_555
C7F C7 1_555 1_555
C8F C3F 1_555 1_555
C9F C11F 1_555 1_555
C10A C16 1_555 1_555
C11F P1F 1_555 1_555
C12F C7F 1_555 1_555
C13A C2A 1_555 1_555
C14F C21F 1_555 1_555
C15F C1F 1_555 1_555
C17A C2A 1_555 1_555
C18F C5F 1_555 1_555
C19F C11F 1_555 1_555
C20F C18F 1_555 1_555
C21F C19F 1_555 1_555
C22A C10A 1_555 1_555
C23F C9F 1_555 1_555
C24F C15F 1_555 1_555
H1F C5F 1_555 1_555
H2F C8F 1_555 1_555
H3F C9F 1_555 1_555
H4F C12F 1_555 1_555
H5F C14F 1_555 1_555
H6F C15F 1_555 1_555
H8A C17A 1_555 1_555
H9F C18F 1_555 1_555
H10F C19F 1_555 1_555
H11F C20F 1_555 1_555
H12F C21F 1_555 1_555
H13F C23F 1_555 1_555
H14F C24F 1_555 1_555
C8 C12 1_555 1_555
C14 C23 1_555 1_555
C20 C24 1_555 1_555
S1F C7F 1_555 1_555
O4A C10A 1_555 1_555
C6A C17A 1_555 1_555
C8F C12F 1_555 1_555
C14F C23F 1_555 1_555
C20F C24F 1_555 1_555

#END
