
#######################################################################
#
#                 Cambridge Crystallographic Data Centre
#                                CCDC 
#
#######################################################################
#
# If this CIF has been generated from an entry in the Cambridge 
# Structural Database, then it will include bibliographic, chemical, 
# crystal, experimental, refinement or atomic coordinate data resulting 
# from the CCDC's data processing and validation procedures.
#
#######################################################################

data_WEBGIT
_symmetry_cell_setting           monoclinic
_symmetry_space_group_name_H-M   'P 21/n'
_symmetry_Int_Tables_number      14
_space_group_name_Hall           '-P 2yn'
loop_
_symmetry_equiv_pos_site_id
_symmetry_equiv_pos_as_xyz
1 x,y,z
2 1/2+x,1/2-y,1/2+z
3 -x,-y,-z
4 1/2-x,1/2+y,1/2-z
_cell_length_a                   13.33(2)
_cell_length_b                   5.72(2)
_cell_length_c                   14.90(3)
_cell_angle_alpha                90
_cell_angle_beta                 108.83(4)
_cell_angle_gamma                90
_cell_volume                     1075.29
loop_
_atom_site_label
_atom_site_type_symbol
_atom_site_fract_x
_atom_site_fract_y
_atom_site_fract_z
I1 I 0.73889(3) -0.10470(5) 0.84414(2)
I2 I 0.76649(3) -0.51186(6) 1.03682(3)
I3 I 0.36074(3) -0.96804(6) 0.82069(3)
O1 O 0.5241(3) -0.0398(6) 0.6691(2)
O2 O 0.5151(3) -0.3696(6) 0.5887(2)
C1 C 0.5405(4) -0.3988(7) 0.7522(3)
C2 C 0.6251(3) -0.3665(8) 0.8365(3)
C3 C 0.6343(4) -0.5125(7) 0.9123(3)
C4 C 0.5575(4) -0.6798(9) 0.9090(3)
C5 C 0.4718(3) -0.7051(8) 0.8259(3)
C6 C 0.4640(4) -0.5713(8) 0.7475(3)
C7 C 0.5260(3) -0.2549(8) 0.6631(3)
H1 H 0.554(6) -0.77(1) 0.955(6)
H2 H 0.402(5) -0.58(1) 0.688(5)
Ag1 Ag 0.96129(4) -0.29522(7) 0.94249(3)
Ag1C Ag 0.53871(4) 0.20478(7) 0.55751(3)
Ag1C_2 Ag 0.53871(4) -0.79522(7) 0.55751(3)
Ag1A Ag 0.46129(4) -0.20478(7) 0.44249(3)
O1C O 0.9759(3) -0.5398(6) 0.8309(2)
O2C O 0.9849(3) 0.1304(6) 0.9113(2)
O2A O 1.0151(3) -0.1304(6) 1.0887(2)
loop_
_geom_bond_atom_site_label_1
_geom_bond_atom_site_label_2
_geom_bond_site_symmetry_1
_geom_bond_site_symmetry_2
I1 C2 1_555 1_555
I2 C3 1_555 1_555
I3 C5 1_555 1_555
O1 C7 1_555 1_555
O2 C7 1_555 1_555
C1 C2 1_555 1_555
C2 C3 1_555 1_555
C3 C4 1_555 1_555
C4 C5 1_555 1_555
C5 C6 1_555 1_555
C6 C1 1_555 1_555
C7 C1 1_555 1_555
H1 C4 1_555 1_555
H2 C6 1_555 1_555
Ag1 I1 1_555 1_555
Ag1C O1 1_555 1_555
Ag1C_2 O2 1_555 1_555
Ag1A O2 1_555 1_555
O1C Ag1 1_555 1_555
O2C Ag1 1_555 1_555
O2A Ag1 1_555 1_555

#END
