
#######################################################################
#
#                 Cambridge Crystallographic Data Centre
#                                CCDC 
#
#######################################################################
#
# If this CIF has been generated from an entry in the Cambridge 
# Structural Database, then it will include bibliographic, chemical, 
# crystal, experimental, refinement or atomic coordinate data resulting 
# from the CCDC's data processing and validation procedures.
#
#######################################################################

data_WEBGEP
_symmetry_cell_setting           monoclinic
_symmetry_space_group_name_H-M   'C 2/c'
_symmetry_Int_Tables_number      15
_space_group_name_Hall           '-C 2yn'
loop_
_symmetry_equiv_pos_site_id
_symmetry_equiv_pos_as_xyz
1 x,y,z
2 1/2+x,1/2+y,z
3 -x,y,1/2-z
4 1/2-x,1/2+y,1/2-z
5 -x,-y,-z
6 1/2-x,1/2-y,-z
7 x,-y,1/2+z
8 1/2+x,1/2-y,1/2+z
_cell_length_a                   9.0985(5)
_cell_length_b                   5.4154(3)
_cell_length_c                   30.235(2)
_cell_angle_alpha                90
_cell_angle_beta                 101.333(1)
_cell_angle_gamma                90
_cell_volume                     1460.69
loop_
_atom_site_label
_atom_site_type_symbol
_atom_site_fract_x
_atom_site_fract_y
_atom_site_fract_z
Zr1 Zr -0.2500 0.250 0.5000
P1 P 0.0620(8) 0.271(2) 0.4433(2)
O1 O -0.065(1) 0.280(3) 0.4702(4)
O2 O 0.162(2) 0.491(2) 0.4529(5)
O3 O 0.153(2) 0.031(3) 0.4564(5)
C1 C -0.029(2) 0.266(4) 0.3841(3)
C2 C 0.035(5) 0.406(8) 0.3533(7)
C3 C -0.053(4) 0.433(4) 0.3097(8)
C4 C -0.148(2) 0.243(4) 0.2919(3)
C5 C -0.193(2) 0.079(3) 0.3218(6)
C6 C -0.111(2) 0.063(2) 0.3660(5)
O1E O -0.435(1) 0.220(3) 0.5298(4)
O2A O -0.338(2) -0.009(2) 0.4529(5)
O3A O -0.347(2) 0.531(3) 0.4564(5)
O2D O -0.162(2) 0.509(2) 0.5471(5)
O3D O -0.153(2) -0.031(3) 0.5436(5)
P1E P -0.5620(8) 0.229(2) 0.5567(2)
Zr1A Zr 0.2500 0.750 0.5000
Zr1A_2 Zr 0.2500 -0.250 0.5000
O2E O -0.662(2) 0.009(2) 0.5471(5)
O3E O -0.653(2) 0.469(3) 0.5436(5)
C1E C -0.471(2) 0.234(4) 0.6159(3)
Zr1A_3 Zr -0.7500 -0.250 0.5000
Zr1A_4 Zr -0.7500 0.750 0.5000
C2E C -0.535(5) 0.094(8) 0.6467(7)
C6E C -0.389(2) 0.437(2) 0.6340(5)
C3E C -0.447(4) 0.067(4) 0.6903(8)
C5E C -0.307(2) 0.421(3) 0.6782(6)
C4E C -0.352(2) 0.257(4) 0.7081(3)
loop_
_geom_bond_atom_site_label_1
_geom_bond_atom_site_label_2
_geom_bond_site_symmetry_1
_geom_bond_site_symmetry_2
Zr1 O1 1_555 1_555
P1 O1 1_555 1_555
O2 P1 1_555 1_555
O3 P1 1_555 1_555
C1 P1 1_555 1_555
C2 C1 1_555 1_555
C3 C2 1_555 1_555
C4 C3 1_555 1_555
C5 C4 1_555 1_555
C6 C1 1_555 1_555
O1E Zr1 1_555 1_555
O2A Zr1 1_555 1_555
O3A Zr1 1_555 1_555
O2D Zr1 1_555 1_555
O3D Zr1 1_555 1_555
P1E O1E 1_555 1_555
Zr1A O2 1_555 1_555
Zr1A_2 O3 1_555 1_555
O2E P1E 1_555 1_555
O3E P1E 1_555 1_555
C1E P1E 1_555 1_555
Zr1A_3 O2E 1_555 1_555
Zr1A_4 O3E 1_555 1_555
C2E C1E 1_555 1_555
C6E C1E 1_555 1_555
C3E C2E 1_555 1_555
C5E C6E 1_555 1_555
C4E C3E 1_555 1_555
C5 C6 1_555 1_555
C5E C4E 1_555 1_555

#END
