
#######################################################################
#
#                 Cambridge Crystallographic Data Centre
#                                CCDC 
#
#######################################################################
#
# If this CIF has been generated from an entry in the Cambridge 
# Structural Database, then it will include bibliographic, chemical, 
# crystal, experimental, refinement or atomic coordinate data resulting 
# from the CCDC's data processing and validation procedures.
#
#######################################################################

data_WEBKIX
_symmetry_cell_setting           monoclinic
_symmetry_space_group_name_H-M   'P 21/n'
_symmetry_Int_Tables_number      14
_space_group_name_Hall           '-P 2yn'
loop_
_symmetry_equiv_pos_site_id
_symmetry_equiv_pos_as_xyz
1 x,y,z
2 1/2+x,1/2-y,1/2+z
3 -x,-y,-z
4 1/2-x,1/2+y,1/2-z
_cell_length_a                   19.0412(3)
_cell_length_b                   23.6540(4)
_cell_length_c                   21.5681(3)
_cell_angle_alpha                90.00
_cell_angle_beta                 95.44
_cell_angle_gamma                90.00
_cell_volume                     9670.53
loop_
_atom_site_label
_atom_site_type_symbol
_atom_site_fract_x
_atom_site_fract_y
_atom_site_fract_z
Cl1 Cl 0.4516(4) 0.2732(4) 0.4760(6)
O23 O 0.5122(13) 0.2623(11) 0.4355(12)
O24 O 0.462(3) 0.331(3) 0.512(4)
O25 O 0.3795(18) 0.276(4) 0.4340(19)
O26 O 0.447(4) 0.225(3) 0.525(4)
O27 O 0.0000 0.5000 0.5000
Cl2 Cl 0.5666(6) 0.4374(4) 0.1659(16)
O28 O 0.570(4) 0.439(3) 0.260(2)
O29 O 0.493(13) 0.380(10) 0.132(5)
O30 O 0.540(17) 0.515(5) 0.130(3)
O31 O 0.662(6) 0.415(14) 0.140(3)
O35 O 0.5878(15) 0.3422(12) 0.3816(13)
Cd1 Cd 0.26793(4) 0.12119(3) 0.16850(3)
Cd2 Cd 0.20724(4) -0.00726(3) 0.24675(3)
Cd3 Cd 0.16372(4) 0.11949(3) 0.34303(3)
Cd4 Cd 0.66357(4) 0.11807(3) 0.34117(3)
Cd5 Cd 0.70850(4) 0.25218(3) 0.25872(3)
Cd6 Cd 0.76774(4) 0.13287(3) 0.16688(3)
O1 O 0.2814(4) 0.0471(4) 0.1067(4)
O2 O 0.2036(4) -0.0137(3) 0.1422(3)
O3 O 0.2269(5) -0.0169(3) 0.3495(3)
O4 O 0.1565(4) 0.0389(3) 0.3993(3)
O5 O 0.2622(4) 0.1945(3) 0.2340(4)
O6 O 0.1724(4) 0.2034(3) 0.2943(4)
O7 O 0.1479(4) 0.1176(3) 0.1589(3)
O8 O 0.1352(4) 0.0710(3) 0.2470(3)
O9 O 0.2976(3) 0.0587(3) 0.2561(3)
O10 O 0.2827(4) 0.1042(3) 0.3450(3)
O11 O 0.6379(4) 0.1725(3) 0.2499(3)
O12 O 0.6485(4) 0.1351(3) 0.1556(3)
O13 O 0.1544(4) 0.3071(3) -0.0945(3)
O14 O 0.2260(5) 0.2461(3) -0.1379(3)
O15 O 0.1919(5) 0.2340(4) 0.6563(3)
O16 O 0.2788(4) 0.2837(3) 0.6185(4)
O17 O 0.7574(4) 0.0500(3) 0.2172(4)
O18 O 0.6723(4) 0.0401(3) 0.2809(4)
O19 O -0.2179(4) 0.1330(3) 0.3442(3)
O20 O -0.2007(4) 0.1871(3) 0.2613(3)
O21 O 0.6001(5) 0.3010(4) 0.2630(5)
O22 O 0.0996(6) -0.0561(4) 0.2441(6)
N1 N 0.2420(5) -0.0887(4) -0.0688(4)
N2 N 0.2993(5) -0.0661(4) 0.5695(4)
N3 N 0.2442(6) 0.4023(4) 0.2524(5)
N4 N -0.1123(4) 0.1166(4) 0.1697(4)
N5 N 0.5443(4) 0.0982(4) 0.3419(4)
N6 N 0.3891(4) 0.1377(4) 0.1690(4)
N7 N 0.2461(5) 0.1796(4) 0.0802(4)
N8 N 0.1898(5) 0.1638(4) 0.4388(4)
N9 N 0.7407(6) -0.1580(4) 0.2358(4)
N10 N 0.0442(5) 0.1393(4) 0.3444(4)
C1 C 0.2857(6) -0.0447(5) -0.0573(5)
H1 H 0.3164 -0.0342 -0.0875
C2 C 0.2873(7) -0.0137(5) -0.0018(5)
H2 H 0.3186 0.0174 0.0054
C3 C 0.2425(6) -0.0291(5) 0.0425(5)
C4 C 0.1984(6) -0.0747(5) 0.0311(5)
H3 H 0.1670 -0.0859 0.0605
C5 C 0.2008(7) -0.1039(5) -0.0243(5)
H4 H 0.1718 -0.1364 -0.0313
C6 C 0.2423(6) 0.0048(4) 0.1026(4)
C7 C 0.2446(7) -0.0293(5) 0.5697(5)
H5 H 0.2280 -0.0190 0.6083
C8 C 0.2124(6) -0.0064(5) 0.5151(5)
H6 H 0.1735 0.0185 0.5163
C9 C 0.2372(6) -0.0200(4) 0.4590(4)
C10 C 0.2949(8) -0.0570(5) 0.4593(5)
H7 H 0.3135 -0.0671 0.4215
C11 C 0.3240(7) -0.0784(6) 0.5151(6)
H8 H 0.3634 -0.1030 0.5150
C12 C 0.2037(6) 0.0026(4) 0.3972(5)
C13 C 0.2124(7) 0.3782(5) 0.2978(6)
H9 H 0.1967 0.4019 0.3292
C14 C 0.2007(7) 0.3206(5) 0.3021(6)
H10 H 0.1756 0.3058 0.3346
C15 C 0.2256(6) 0.2855(4) 0.2595(5)
C16 C 0.2583(8) 0.3091(5) 0.2108(5)
H11 H 0.2744 0.2856 0.1793
C17 C 0.2674(9) 0.3682(5) 0.2085(6)
H12 H 0.2904 0.3844 0.1755
C18 C 0.2191(5) 0.2229(4) 0.2625(4)
C19 C -0.0825(5) 0.0720(4) 0.2024(5)
H13 H -0.1123 0.0448 0.2189
C20 C -0.0113(6) 0.0653(5) 0.2122(5)
H14 H 0.0076 0.0346 0.2369
C21 C 0.0336(5) 0.1024(4) 0.1868(5)
C22 C 0.0039(6) 0.1471(5) 0.1506(5)
H15 H 0.0327 0.1726 0.1303
C23 C -0.0688(6) 0.1530(5) 0.1451(5)
H16 H -0.0889 0.1846 0.1227
C24 C 0.1112(5) 0.0973(4) 0.1975(4)
C25 C 0.5006(6) 0.1331(5) 0.3689(5)
H17 H 0.5205 0.1626 0.3948
C26 C 0.4275(6) 0.1281(5) 0.3603(5)
H18 H 0.3985 0.1531 0.3811
C27 C 0.3979(5) 0.0868(4) 0.3217(4)
C28 C 0.4419(5) 0.0507(5) 0.2945(5)
H19 H 0.4226 0.0216 0.2677
C29 C 0.5151(6) 0.0563(5) 0.3058(5)
H20 H 0.5449 0.0300 0.2876
C30 C 0.3196(5) 0.0836(4) 0.3075(4)
C31 C 0.4199(5) 0.1786(4) 0.2067(5)
H21 H 0.3907 0.2042 0.2264
C32 C 0.4912(6) 0.1841(4) 0.2169(5)
H22 H 0.5113 0.2122 0.2447
C33 C 0.5339(5) 0.1483(5) 0.1866(5)
C34 C 0.5029(6) 0.1085(5) 0.1455(5)
H23 H 0.5309 0.0851 0.1219
C35 C 0.4298(6) 0.1037(5) 0.1397(5)
H24 H 0.4083 0.0750 0.1136
C36 C 0.6130(5) 0.1522(4) 0.1977(4)
C37 C 0.1936(7) 0.2159(5) 0.0724(5)
H25 H 0.1660 0.2217 0.1063
C38 C 0.1758(6) 0.2462(5) 0.0188(5)
H26 H 0.1385 0.2729 0.0166
C39 C 0.2133(6) 0.2367(5) -0.0314(5)
C40 C 0.2692(7) 0.1986(6) -0.0246(6)
H27 H 0.2970 0.1918 -0.0582
C41 C 0.2836(7) 0.1709(6) 0.0314(6)
H28 H 0.3214 0.1446 0.0356
C42 C 0.1965(6) 0.2666(4) -0.0934(5)
C43 C 0.2415(7) 0.2029(5) 0.4473(5)
H29 H 0.2684 0.2120 0.4138
C44 C 0.2559(7) 0.2300(5) 0.5043(5)
H30 H 0.2924 0.2574 0.5097
C45 C 0.2169(6) 0.2169(5) 0.5528(5)
C46 C 0.1648(7) 0.1759(5) 0.5442(5)
H31 H 0.1380 0.1654 0.5773
C47 C 0.1531(7) 0.1509(5) 0.4869(5)
H32 H 0.1171 0.1231 0.4809
C48 C 0.2301(6) 0.2475(5) 0.6141(5)
C49 C 0.7619(8) -0.1243(5) 0.1921(6)
H33 H 0.7829 -0.1408 0.1582
C50 C 0.7546(7) -0.0658(4) 0.1939(5)
H34 H 0.7718 -0.0428 0.1626
C51 C 0.7217(6) -0.0413(4) 0.2424(5)
C52 C 0.6970(7) -0.0772(5) 0.2847(6)
H35 H 0.6719 -0.0624 0.3171
C53 C 0.7077(8) -0.1342(5) 0.2812(6)
H36 H 0.6910 -0.1578 0.3122
C54 C 0.7171(5) 0.0220(4) 0.2473(4)
C55 C 0.0168(6) 0.1844(5) 0.3130(5)
H37 H 0.0477 0.2114 0.2975
C56 C -0.0555(6) 0.1925(4) 0.3025(5)
H38 H -0.0735 0.2250 0.2804
C57 C -0.1014(5) 0.1537(4) 0.3241(4)
C58 C -0.0727(5) 0.1073(5) 0.3593(5)
H39 H -0.1022 0.0803 0.3766
C59 C 0.0008(6) 0.1026(5) 0.3676(5)
H40 H 0.0207 0.0717 0.3912
C60 C -0.1802(6) 0.1578(4) 0.3103(4)
Cd2C Cd 0.29276(4) 0.49274(3) 0.25325(3)
Cd4A Cd 0.16357(4) 0.38193(3) -0.15883(3)
Cd5A Cd 0.20850(4) 0.24782(3) -0.24128(3)
Cd6B Cd 0.23226(4) -0.13287(3) -0.16688(3)
O5C O 0.2378(4) -0.3055(3) 0.2660(4)
O6C O 0.3276(4) -0.2966(3) 0.2057(4)
N3C N 0.2558(6) -0.0977(4) 0.2476(5)
C13C C 0.2876(7) -0.1218(5) 0.2022(6)
H9C H 0.3033 -0.0981 0.1708
C14C C 0.2993(7) -0.1794(5) 0.1979(6)
H10C H 0.3244 -0.1942 0.1654
C15C C 0.2744(6) -0.2145(4) 0.2405(5)
C16C C 0.2417(8) -0.1909(5) 0.2892(5)
H11C H 0.2256 -0.2144 0.3207
C17C C 0.2326(9) -0.1318(5) 0.2915(6)
H12C H 0.2096 -0.1156 0.3245
C18C C 0.2809(5) -0.2771(4) 0.2375(4)
O13A O 0.6544(4) 0.1929(3) 0.4055(3)
O14A O 0.7260(5) 0.2539(3) 0.3621(3)
N7A N 0.7461(5) 0.3204(4) 0.5802(4)
C37A C 0.6936(7) 0.2841(5) 0.5724(5)
H25A H 0.6660 0.2783 0.6063
C38A C 0.6758(6) 0.2538(5) 0.5188(5)
H26A H 0.6385 0.2271 0.5166
C39A C 0.7133(6) 0.2633(5) 0.4686(5)
C40A C 0.7692(7) 0.3014(6) 0.4754(6)
H27A H 0.7970 0.3082 0.4418
C41A C 0.7836(7) 0.3291(6) 0.5314(6)
H28A H 0.8214 0.3554 0.5356
C42A C 0.6965(6) 0.2334(4) 0.4066(5)
O19_2 O 0.7821(4) 0.1330(3) 0.3442(3)
O20_2 O 0.7993(4) 0.1871(3) 0.2613(3)
N10_2 N 1.0442(5) 0.1393(4) 0.3444(4)
C55_2 C 1.0168(6) 0.1844(5) 0.3130(5)
H37_2 H 1.0477 0.2114 0.2975
C56_2 C 0.9445(6) 0.1925(4) 0.3025(5)
H38_2 H 0.9265 0.2250 0.2804
C57_2 C 0.8986(5) 0.1537(4) 0.3241(4)
C58_2 C 0.9273(5) 0.1073(5) 0.3593(5)
H39_2 H 0.8978 0.0803 0.3766
C59_2 C 1.0008(6) 0.1026(5) 0.3676(5)
H40_2 H 1.0207 0.0717 0.3912
C60_2 C 0.8198(6) 0.1578(4) 0.3103(4)
O3B O 0.7731(5) 0.0169(3) 0.6505(3)
O4B O 0.8435(4) -0.0389(3) 0.6007(3)
N2B N 0.7007(5) 0.0661(4) 0.4305(4)
C7B C 0.7554(7) 0.0293(5) 0.4303(5)
H5B H 0.7720 0.0190 0.3917
C8B C 0.7876(6) 0.0064(5) 0.4849(5)
H6B H 0.8265 -0.0185 0.4837
C9B C 0.7628(6) 0.0200(4) 0.5410(4)
C10B C 0.7051(8) 0.0570(5) 0.5407(5)
H7B H 0.6865 0.0671 0.5785
C11B C 0.6760(7) 0.0784(6) 0.4849(6)
H8B H 0.6366 0.1030 0.4850
C12B C 0.7963(6) -0.0026(4) 0.6028(5)
O15A O 0.6919(5) 0.2660(4) 0.1563(3)
O16A O 0.7788(4) 0.2163(3) 0.1185(4)
N8A N 0.6898(5) 0.3362(4) -0.0612(4)
C43A C 0.7415(7) 0.2971(5) -0.0527(5)
H29A H 0.7684 0.2880 -0.0862
C44A C 0.7559(7) 0.2700(5) 0.0043(5)
H30A H 0.7924 0.2426 0.0097
C45A C 0.7169(6) 0.2831(5) 0.0528(5)
C46A C 0.6648(7) 0.3241(5) 0.0442(5)
H31A H 0.6380 0.3346 0.0773
C47A C 0.6531(7) 0.3491(5) -0.0131(5)
H32A H 0.6171 0.3769 -0.0191
C48A C 0.7301(6) 0.2525(5) 0.1141(5)
O17C O 0.7426(4) 0.5500(3) 0.2828(4)
O18C O 0.8277(4) 0.5401(3) 0.2191(4)
N9C N 0.7593(6) 0.3420(4) 0.2642(4)
C49C C 0.7381(8) 0.3757(5) 0.3079(6)
H33C H 0.7171 0.3592 0.3418
C50C C 0.7454(7) 0.4342(4) 0.3061(5)
H34C H 0.7282 0.4572 0.3374
C51C C 0.7783(6) 0.4587(4) 0.2576(5)
C52C C 0.8030(7) 0.4228(5) 0.2153(6)
H35C H 0.8281 0.4376 0.1829
C53C C 0.7923(8) 0.3658(5) 0.2188(6)
H36C H 0.8090 0.3422 0.1878
C54C C 0.7829(5) 0.5220(4) 0.2527(4)
O1B O 0.7186(4) -0.0471(4) -0.1067(4)
O2B O 0.7964(4) 0.0137(3) -0.1422(3)
N1B N 0.7580(5) 0.0887(4) 0.0688(4)
C1B C 0.7143(6) 0.0447(5) 0.0573(5)
H1B H 0.6836 0.0342 0.0875
C2B C 0.7127(7) 0.0137(5) 0.0018(5)
H2B H 0.6814 -0.0174 -0.0054
C3B C 0.7575(6) 0.0291(5) -0.0425(5)
C4B C 0.8016(6) 0.0747(5) -0.0311(5)
H3B H 0.8330 0.0859 -0.0605
C5B C 0.7992(7) 0.1039(5) 0.0243(5)
H4B H 0.8282 0.1364 0.0313
C6B C 0.7577(6) -0.0048(4) -0.1026(4)
O7_2 O 1.1479(4) 0.1176(3) 0.1589(3)
O8_2 O 1.1352(4) 0.0710(3) 0.2470(3)
N4_2 N 0.8877(4) 0.1166(4) 0.1697(4)
C19_2 C 0.9175(5) 0.0720(4) 0.2024(5)
H13_2 H 0.8877 0.0448 0.2189
C20_2 C 0.9887(6) 0.0653(5) 0.2122(5)
H14_2 H 1.0076 0.0346 0.2369
C21_2 C 1.0336(5) 0.1024(4) 0.1868(5)
C22_2 C 1.0039(6) 0.1471(5) 0.1506(5)
H15_2 H 1.0327 0.1726 0.1303
C23_2 C 0.9312(6) 0.1530(5) 0.1451(5)
H16_2 H 0.9111 0.1846 0.1227
C24_2 C 1.1112(5) 0.0973(4) 0.1975(4)
O9C O 0.2024(3) 0.5587(3) 0.2439(3)
O10C O 0.2173(4) 0.6042(3) 0.1550(3)
N5C N -0.0443(4) 0.5982(4) 0.1581(4)
C25C C -0.0006(6) 0.6331(5) 0.1311(5)
H17C H -0.0205 0.6626 0.1052
C26C C 0.0725(6) 0.6281(5) 0.1397(5)
H18C H 0.1015 0.6531 0.1189
C27C C 0.1021(5) 0.5868(4) 0.1783(4)
C28C C 0.0581(5) 0.5507(5) 0.2055(5)
H19C H 0.0774 0.5216 0.2323
C29C C -0.0151(6) 0.5563(5) 0.1942(5)
H20C H -0.0449 0.5300 0.2124
C30C C 0.1804(5) 0.5836(4) 0.1925(4)
O22C O 0.4004(6) 0.4439(4) 0.2559(6)
O11A O 0.1379(4) 0.3275(3) -0.2501(3)
O12A O 0.1485(4) 0.3649(3) -0.3444(3)
N6A N -0.1109(4) 0.3623(4) -0.3310(4)
C31A C -0.0801(5) 0.3214(4) -0.2933(5)
H21A H -0.1093 0.2958 -0.2736
C32A C -0.0088(6) 0.3159(4) -0.2831(5)
H22A H 0.0113 0.2878 -0.2553
C33A C 0.0339(5) 0.3517(5) -0.3134(5)
C34A C 0.0029(6) 0.3915(5) -0.3545(5)
H23A H 0.0309 0.4149 -0.3781
C35A C -0.0702(6) 0.3963(5) -0.3603(5)
H24A H -0.0917 0.4250 -0.3864
C36A C 0.1130(5) 0.3478(4) -0.3023(4)
O21A O 0.1001(5) 0.1990(4) -0.2370(5)
Cd1B Cd 0.73207(4) -0.12119(3) -0.16850(3)
Cd3B Cd 0.83628(4) -0.11949(3) 0.65697(3)
Cd5A_2 Cd 0.20850(4) 0.24782(3) 0.75872(3)
Cd6A Cd 0.26774(4) 0.36713(3) 0.66688(3)
Cd4_2 Cd -0.33643(4) 0.11807(3) 0.34117(3)
Cd5_2 Cd -0.29150(4) 0.25218(3) 0.25872(3)
Cd6_2 Cd -0.23226(4) 0.13287(3) 0.16688(3)
Cd4B Cd 0.33643(4) -0.11807(3) 0.65883(3)
Cd5C Cd 0.79150(4) -0.24782(3) 0.24128(3)
O2C O 0.2964(4) 0.4863(3) 0.3578(3)
O3C O 0.2731(5) 0.4831(3) 0.1505(3)
O8C O 0.3648(4) 0.5710(3) 0.2530(3)
O18A O 0.1723(4) 0.4599(3) -0.2191(4)
O19A O 0.2821(4) 0.3670(3) -0.1558(3)
N2C N 0.2007(5) 0.4339(4) -0.0695(4)
N5A N 0.0443(4) 0.4018(4) -0.1581(4)
O15_2 O 0.1919(5) 0.2340(4) -0.3437(3)
O20A O 0.2993(4) 0.3129(3) -0.2387(3)
N9B N 0.2593(6) 0.1580(4) -0.2358(4)
O12B O 0.3515(4) -0.1351(3) -0.1556(3)
O16C O 0.2212(4) -0.2163(3) -0.1185(4)
O17B O 0.2426(4) -0.0500(3) -0.2172(4)
O20B O 0.2007(4) -0.1871(3) -0.2613(3)
N4B N 0.1123(4) -0.1166(4) -0.1697(4)
Cd1C Cd 0.23207(4) -0.37881(3) 0.33150(3)
Cd3C Cd 0.33628(4) -0.38051(3) 0.15697(3)
Cd1A Cd 0.76793(4) 0.37881(3) 0.66850(3)
Cd3_2 Cd 1.16372(4) 0.11949(3) 0.34303(3)
Cd2B Cd 0.79276(4) 0.00726(3) 0.75325(3)
Cd3A Cd 0.66372(4) 0.38051(3) -0.15697(3)
Cd6C Cd 0.73226(4) 0.63287(3) 0.33312(3)
Cd4C Cd 0.83643(4) 0.61807(3) 0.15883(3)
Cd2B_2 Cd 0.79276(4) 0.00726(3) -0.24675(3)
Cd1_2 Cd 1.26793(4) 0.12119(3) 0.16850(3)
Cd2_2 Cd 1.20724(4) -0.00726(3) 0.24675(3)
Cd1C_2 Cd 0.23207(4) 0.62119(3) 0.33150(3)
Cd3C_2 Cd 0.33628(4) 0.61949(3) 0.15697(3)
Cd4C_2 Cd -0.16357(4) 0.61807(3) 0.15883(3)
Cd6A_2 Cd 0.26774(4) 0.36713(3) -0.33312(3)
Cd1A_2 Cd -0.23207(4) 0.37881(3) -0.33150(3)
O5B O 0.7378(4) -0.1945(3) -0.2340(4)
O7B O 0.8521(4) -0.1176(3) -0.1589(3)
O9B O 0.7024(3) -0.0587(3) -0.2561(3)
N6B N 0.6109(4) -0.1377(4) -0.1690(4)
N7B N 0.7539(5) -0.1796(4) -0.0802(4)
O6B O 0.8276(4) -0.2034(3) 0.7057(4)
O8B O 0.8648(4) -0.0710(3) 0.7530(3)
O10B O 0.7173(4) -0.1042(3) 0.6550(3)
N8B N 0.8102(5) -0.1638(4) 0.5612(4)
N10B N 0.9558(5) -0.1393(4) 0.6556(4)
O32? O 0.4947(12) 0.4585(10) 0.1601(12)
O33? O 0.5767(14) 0.3763(10) 0.1666(15)
O34? O 0.6257(16) 0.4750(13) 0.166(4)
loop_
_geom_bond_atom_site_label_1
_geom_bond_atom_site_label_2
_geom_bond_site_symmetry_1
_geom_bond_site_symmetry_2
Cd1 O1 1_555 1_555
Cd2 O2 1_555 1_555
Cd3 O4 1_555 1_555
Cd4 O11 1_555 1_555
Cd5 O11 1_555 1_555
Cd6 O12 1_555 1_555
O1 C6 1_555 1_555
O2 C6 1_555 1_555
O3 Cd2 1_555 1_555
O4 C12 1_555 1_555
O5 Cd1 1_555 1_555
O6 Cd3 1_555 1_555
O7 Cd1 1_555 1_555
O8 Cd2 1_555 1_555
O9 Cd1 1_555 1_555
O10 Cd3 1_555 1_555
O11 C36 1_555 1_555
O12 C36 1_555 1_555
O13 C42 1_555 1_555
O14 C42 1_555 1_555
O15 C48 1_555 1_555
O16 C48 1_555 1_555
O17 Cd6 1_555 1_555
O18 Cd4 1_555 1_555
O19 C60 1_555 1_555
O20 C60 1_555 1_555
O21 Cd5 1_555 1_555
O22 Cd2 1_555 1_555
N1 C1 1_555 1_555
N2 C7 1_555 1_555
N3 C13 1_555 1_555
N4 C19 1_555 1_555
N5 Cd4 1_555 1_555
N6 Cd1 1_555 1_555
N7 Cd1 1_555 1_555
N8 Cd3 1_555 1_555
N9 C49 1_555 1_555
N10 Cd3 1_555 1_555
C1 H1 1_555 1_555
C2 C1 1_555 1_555
H2 C2 1_555 1_555
C3 C2 1_555 1_555
C4 C3 1_555 1_555
H3 C4 1_555 1_555
C5 N1 1_555 1_555
H4 C5 1_555 1_555
C6 C3 1_555 1_555
C7 H5 1_555 1_555
C8 C7 1_555 1_555
H6 C8 1_555 1_555
C9 C8 1_555 1_555
C10 C9 1_555 1_555
H7 C10 1_555 1_555
C11 N2 1_555 1_555
H8 C11 1_555 1_555
C12 O3 1_555 1_555
C13 H9 1_555 1_555
C14 C13 1_555 1_555
H10 C14 1_555 1_555
C15 C14 1_555 1_555
C16 C15 1_555 1_555
H11 C16 1_555 1_555
C17 N3 1_555 1_555
H12 C17 1_555 1_555
C18 O5 1_555 1_555
C19 H13 1_555 1_555
C20 C19 1_555 1_555
H14 C20 1_555 1_555
C21 C20 1_555 1_555
C22 C21 1_555 1_555
H15 C22 1_555 1_555
C23 N4 1_555 1_555
H16 C23 1_555 1_555
C24 O7 1_555 1_555
C25 N5 1_555 1_555
H17 C25 1_555 1_555
C26 C25 1_555 1_555
H18 C26 1_555 1_555
C27 C26 1_555 1_555
C28 C27 1_555 1_555
H19 C28 1_555 1_555
C29 N5 1_555 1_555
H20 C29 1_555 1_555
C30 O9 1_555 1_555
C31 N6 1_555 1_555
H21 C31 1_555 1_555
C32 C31 1_555 1_555
H22 C32 1_555 1_555
C33 C32 1_555 1_555
C34 C33 1_555 1_555
H23 C34 1_555 1_555
C35 N6 1_555 1_555
H24 C35 1_555 1_555
C36 C33 1_555 1_555
C37 N7 1_555 1_555
H25 C37 1_555 1_555
C38 C37 1_555 1_555
H26 C38 1_555 1_555
C39 C38 1_555 1_555
C40 C39 1_555 1_555
H27 C40 1_555 1_555
C41 N7 1_555 1_555
H28 C41 1_555 1_555
C42 C39 1_555 1_555
C43 N8 1_555 1_555
H29 C43 1_555 1_555
C44 C43 1_555 1_555
H30 C44 1_555 1_555
C45 C44 1_555 1_555
C46 C45 1_555 1_555
H31 C46 1_555 1_555
C47 N8 1_555 1_555
H32 C47 1_555 1_555
C48 C45 1_555 1_555
C49 H33 1_555 1_555
C50 C49 1_555 1_555
H34 C50 1_555 1_555
C51 C50 1_555 1_555
C52 C51 1_555 1_555
H35 C52 1_555 1_555
C53 N9 1_555 1_555
H36 C53 1_555 1_555
C54 O17 1_555 1_555
C55 N10 1_555 1_555
H37 C55 1_555 1_555
C56 C55 1_555 1_555
H38 C56 1_555 1_555
C57 C56 1_555 1_555
C58 C57 1_555 1_555
H39 C58 1_555 1_555
C59 N10 1_555 1_555
H40 C59 1_555 1_555
C60 C57 1_555 1_555
Cl1 O23 1_555 1_555
O24 Cl1 1_555 1_555
O25 Cl1 1_555 1_555
O26 Cl1 1_555 1_555
Cl2 O28 1_555 1_555
O29 Cl2 1_555 1_555
O30 Cl2 1_555 1_555
O31 Cl2 1_555 1_555
Cd2C N3 1_555 1_555
Cd4A O13 1_555 1_555
Cd5A O14 1_555 1_555
Cd6B N1 1_555 1_555
O5C C18C 1_555 1_555
O6C C18C 1_555 1_555
N3C Cd2 1_555 1_555
C13C N3C 1_555 1_555
H9C C13C 1_555 1_555
C14C C13C 1_555 1_555
H10C C14C 1_555 1_555
C15C C14C 1_555 1_555
C16C C15C 1_555 1_555
H11C C16C 1_555 1_555
C17C N3C 1_555 1_555
H12C C17C 1_555 1_555
C18C C15C 1_555 1_555
O13A Cd4 1_555 1_555
O14A Cd5 1_555 1_555
N7A C37A 1_555 1_555
C37A H25A 1_555 1_555
C38A C37A 1_555 1_555
H26A C38A 1_555 1_555
C39A C38A 1_555 1_555
C40A C39A 1_555 1_555
H27A C40A 1_555 1_555
C41A N7A 1_555 1_555
H28A C41A 1_555 1_555
C42A O13A 1_555 1_555
O19_2 Cd4 1_555 1_555
O20_2 Cd5 1_555 1_555
N10_2 C55_2 1_555 1_555
C55_2 H37_2 1_555 1_555
C56_2 C55_2 1_555 1_555
H38_2 C56_2 1_555 1_555
C57_2 C56_2 1_555 1_555
C58_2 C57_2 1_555 1_555
H39_2 C58_2 1_555 1_555
C59_2 N10_2 1_555 1_555
H40_2 C59_2 1_555 1_555
C60_2 O19_2 1_555 1_555
O3B C12B 1_555 1_555
O4B C12B 1_555 1_555
N2B Cd4 1_555 1_555
C7B N2B 1_555 1_555
H5B C7B 1_555 1_555
C8B C7B 1_555 1_555
H6B C8B 1_555 1_555
C9B C8B 1_555 1_555
C10B C9B 1_555 1_555
H7B C10B 1_555 1_555
C11B N2B 1_555 1_555
H8B C11B 1_555 1_555
C12B C9B 1_555 1_555
O15A Cd5 1_555 1_555
O16A Cd6 1_555 1_555
N8A C43A 1_555 1_555
C43A H29A 1_555 1_555
C44A C43A 1_555 1_555
H30A C44A 1_555 1_555
C45A C44A 1_555 1_555
C46A C45A 1_555 1_555
H31A C46A 1_555 1_555
C47A N8A 1_555 1_555
H32A C47A 1_555 1_555
C48A O15A 1_555 1_555
O17C C54C 1_555 1_555
O18C C54C 1_555 1_555
N9C Cd5 1_555 1_555
C49C N9C 1_555 1_555
H33C C49C 1_555 1_555
C50C C49C 1_555 1_555
H34C C50C 1_555 1_555
C51C C50C 1_555 1_555
C52C C51C 1_555 1_555
H35C C52C 1_555 1_555
C53C N9C 1_555 1_555
H36C C53C 1_555 1_555
C54C C51C 1_555 1_555
O1B C6B 1_555 1_555
O2B C6B 1_555 1_555
N1B Cd6 1_555 1_555
C1B N1B 1_555 1_555
H1B C1B 1_555 1_555
C2B C1B 1_555 1_555
H2B C2B 1_555 1_555
C3B C2B 1_555 1_555
C4B C3B 1_555 1_555
H3B C4B 1_555 1_555
C5B N1B 1_555 1_555
H4B C5B 1_555 1_555
C6B C3B 1_555 1_555
O7_2 C24_2 1_555 1_555
O8_2 C24_2 1_555 1_555
N4_2 Cd6 1_555 1_555
C19_2 N4_2 1_555 1_555
H13_2 C19_2 1_555 1_555
C20_2 C19_2 1_555 1_555
H14_2 C20_2 1_555 1_555
C21_2 C20_2 1_555 1_555
C22_2 C21_2 1_555 1_555
H15_2 C22_2 1_555 1_555
C23_2 N4_2 1_555 1_555
H16_2 C23_2 1_555 1_555
C24_2 C21_2 1_555 1_555
O9C Cd2C 1_555 1_555
O10C C30C 1_555 1_555
N5C C25C 1_555 1_555
C25C H17C 1_555 1_555
C26C C25C 1_555 1_555
H18C C26C 1_555 1_555
C27C C26C 1_555 1_555
C28C C27C 1_555 1_555
H19C C28C 1_555 1_555
C29C N5C 1_555 1_555
H20C C29C 1_555 1_555
C30C O9C 1_555 1_555
O22C Cd2C 1_555 1_555
O11A Cd4A 1_555 1_555
O12A C36A 1_555 1_555
N6A C31A 1_555 1_555
C31A H21A 1_555 1_555
C32A C31A 1_555 1_555
H22A C32A 1_555 1_555
C33A C32A 1_555 1_555
C34A C33A 1_555 1_555
H23A C34A 1_555 1_555
C35A N6A 1_555 1_555
H24A C35A 1_555 1_555
C36A O11A 1_555 1_555
O21A Cd5A 1_555 1_555
Cd1B O1B 1_555 1_555
Cd3B O4B 1_555 1_555
Cd5A_2 O15 1_555 1_555
Cd6A O16 1_555 1_555
Cd4_2 O19 1_555 1_555
Cd5_2 O20 1_555 1_555
Cd6_2 O20 1_555 1_555
Cd4B N2 1_555 1_555
Cd5C N9 1_555 1_555
O2C Cd2C 1_555 1_555
O3C Cd2C 1_555 1_555
O8C Cd2C 1_555 1_555
O18A Cd4A 1_555 1_555
O19A Cd4A 1_555 1_555
N2C Cd4A 1_555 1_555
N5A Cd4A 1_555 1_555
O15_2 Cd5A 1_555 1_555
O20A Cd5A 1_555 1_555
N9B Cd5A 1_555 1_555
O12B Cd6B 1_555 1_555
O16C Cd6B 1_555 1_555
O17B Cd6B 1_555 1_555
O20B Cd6B 1_555 1_555
N4B Cd6B 1_555 1_555
Cd1C O5C 1_555 1_555
Cd3C O6C 1_555 1_555
Cd1A N7A 1_555 1_555
Cd3_2 N10_2 1_555 1_555
Cd2B O3B 1_555 1_555
Cd3A N8A 1_555 1_555
Cd6C O17C 1_555 1_555
Cd4C O18C 1_555 1_555
Cd2B_2 O2B 1_555 1_555
Cd1_2 O7_2 1_555 1_555
Cd2_2 O8_2 1_555 1_555
Cd1C_2 O9C 1_555 1_555
Cd3C_2 O10C 1_555 1_555
Cd4C_2 N5C 1_555 1_555
Cd6A_2 O12A 1_555 1_555
Cd1A_2 N6A 1_555 1_555
O5B Cd1B 1_555 1_555
O7B Cd1B 1_555 1_555
O9B Cd1B 1_555 1_555
N6B Cd1B 1_555 1_555
N7B Cd1B 1_555 1_555
O6B Cd3B 1_555 1_555
O8B Cd3B 1_555 1_555
O10B Cd3B 1_555 1_555
N8B Cd3B 1_555 1_555
N10B Cd3B 1_555 1_555
Cd2 O9 1_555 1_555
Cd3 O8 1_555 1_555
Cd6 O20_2 1_555 1_555
O6 C18 1_555 1_555
O8 C24 1_555 1_555
O10 C30 1_555 1_555
O18 C54 1_555 1_555
N4 Cd6_2 1_555 1_555
C4 C5 1_555 1_555
C9 C12 1_555 1_555
C10 C11 1_555 1_555
C15 C18 1_555 1_555
C16 C17 1_555 1_555
C21 C24 1_555 1_555
C22 C23 1_555 1_555
C27 C30 1_555 1_555
C28 C29 1_555 1_555
C34 C35 1_555 1_555
C40 C41 1_555 1_555
C46 C47 1_555 1_555
C51 C54 1_555 1_555
C52 C53 1_555 1_555
C58 C59 1_555 1_555
Cd5A O11A 1_555 1_555
C16C C17C 1_555 1_555
O14A C42A 1_555 1_555
C39A C42A 1_555 1_555
C40A C41A 1_555 1_555
O20_2 C60_2 1_555 1_555
C57_2 C60_2 1_555 1_555
C58_2 C59_2 1_555 1_555
C10B C11B 1_555 1_555
O16A C48A 1_555 1_555
C45A C48A 1_555 1_555
C46A C47A 1_555 1_555
C52C C53C 1_555 1_555
C4B C5B 1_555 1_555
O8_2 Cd3_2 1_555 1_555
C22_2 C23_2 1_555 1_555
C27C C30C 1_555 1_555
C28C C29C 1_555 1_555
C33A C36A 1_555 1_555
C34A C35A 1_555 1_555
O8C Cd3C_2 1_555 1_555
O20A Cd6A_2 1_555 1_555
Cd2B O8B 1_555 1_555
Cd2B_2 O9B 1_555 1_555

#END
