
#######################################################################
#
#                 Cambridge Crystallographic Data Centre
#                                CCDC 
#
#######################################################################
#
# If this CIF has been generated from an entry in the Cambridge 
# Structural Database, then it will include bibliographic, chemical, 
# crystal, experimental, refinement or atomic coordinate data resulting 
# from the CCDC's data processing and validation procedures.
#
#######################################################################

data_WEBKEV
_symmetry_cell_setting           cubic
_symmetry_space_group_name_H-M   'I a 3 d'
_symmetry_Int_Tables_number      230
_space_group_name_Hall           '-I 4bd 2c 3'
loop_
_symmetry_equiv_pos_site_id
_symmetry_equiv_pos_as_xyz
1 x,y,z
2 1/2-x,-y,1/2+z
3 -x,1/2+y,1/2-z
4 1/2+x,1/2-y,-z
5 z,x,y
6 1/2+z,1/2-x,-y
7 1/2-z,-x,1/2+y
8 -z,1/2+x,1/2-y
9 y,z,x
10 -y,1/2+z,1/2-x
11 1/2+y,1/2-z,-x
12 1/2-y,-z,1/2+x
13 3/4+y,1/4+x,1/4-z
14 3/4-y,3/4-x,3/4-z
15 1/4+y,1/4-x,3/4+z
16 1/4-y,3/4+x,1/4+z
17 3/4+x,1/4+z,1/4-y
18 1/4-x,3/4+z,1/4+y
19 3/4-x,3/4-z,3/4-y
20 1/4+x,1/4-z,3/4+y
21 3/4+z,1/4+y,1/4-x
22 1/4+z,1/4-y,3/4+x
23 1/4-z,3/4+y,1/4+x
24 3/4-z,3/4-y,3/4-x
25 1/2+x,1/2+y,1/2+z
26 -x,1/2-y,z
27 1/2-x,y,-z
28 x,-y,1/2-z
29 1/2+z,1/2+x,1/2+y
30 z,-x,1/2-y
31 -z,1/2-x,y
32 1/2-z,x,-y
33 1/2+y,1/2+z,1/2+x
34 1/2-y,z,-x
35 y,-z,1/2-x
36 -y,1/2-z,x
37 1/4+y,3/4+x,3/4-z
38 1/4-y,1/4-x,1/4-z
39 3/4+y,3/4-x,1/4+z
40 3/4-y,1/4+x,3/4+z
41 1/4+x,3/4+z,3/4-y
42 3/4-x,1/4+z,3/4+y
43 1/4-x,1/4-z,1/4-y
44 3/4+x,3/4-z,1/4+y
45 1/4+z,3/4+y,3/4-x
46 3/4+z,3/4-y,1/4+x
47 3/4-z,1/4+y,3/4+x
48 1/4-z,1/4-y,1/4-x
49 -x,-y,-z
50 1/2+x,y,1/2-z
51 x,1/2-y,1/2+z
52 1/2-x,1/2+y,z
53 -z,-x,-y
54 1/2-z,1/2+x,y
55 1/2+z,x,1/2-y
56 z,1/2-x,1/2+y
57 -y,-z,-x
58 y,1/2-z,1/2+x
59 1/2-y,1/2+z,x
60 1/2+y,z,1/2-x
61 1/4-y,3/4-x,3/4+z
62 1/4+y,1/4+x,1/4+z
63 3/4-y,3/4+x,1/4-z
64 3/4+y,1/4-x,3/4-z
65 1/4-x,3/4-z,3/4+y
66 3/4+x,1/4-z,3/4-y
67 1/4+x,1/4+z,1/4+y
68 3/4-x,3/4+z,1/4-y
69 1/4-z,3/4-y,3/4+x
70 3/4-z,3/4+y,1/4-x
71 3/4+z,1/4-y,3/4-x
72 1/4+z,1/4+y,1/4+x
73 1/2-x,1/2-y,1/2-z
74 x,1/2+y,-z
75 1/2+x,-y,z
76 -x,y,1/2+z
77 1/2-z,1/2-x,1/2-y
78 -z,x,1/2+y
79 z,1/2+x,-y
80 1/2+z,-x,y
81 1/2-y,1/2-z,1/2-x
82 1/2+y,-z,x
83 -y,z,1/2+x
84 y,1/2+z,-x
85 3/4-y,1/4-x,1/4+z
86 3/4+y,3/4+x,3/4+z
87 1/4-y,1/4+x,3/4-z
88 1/4+y,3/4-x,1/4-z
89 3/4-x,1/4-z,1/4+y
90 1/4+x,3/4-z,1/4-y
91 3/4+x,3/4+z,3/4+y
92 1/4-x,1/4+z,3/4-y
93 3/4-z,1/4-y,1/4+x
94 1/4-z,1/4+y,3/4-x
95 1/4+z,3/4-y,1/4-x
96 3/4+z,3/4+y,3/4+x
_cell_length_a                   30.7159(6)
_cell_length_b                   30.7159(6)
_cell_length_c                   30.7159(6)
_cell_angle_alpha                90
_cell_angle_beta                 90
_cell_angle_gamma                90
_cell_volume                     28979.4
loop_
_atom_site_label
_atom_site_type_symbol
_atom_site_fract_x
_atom_site_fract_y
_atom_site_fract_z
In1 In 0.7500 0.1250 0.0000
Zn1 Zn 0.65169(10) -0.15169(10) 0.15169(10)
O1 O 0.7731(3) 0.0935(3) 0.0603(3)
O2 O 0.7148(3) 0.0646(3) 0.0321(3)
O3 O 0.6841(3) -0.0996(3) 0.1523(3)
C1 C 0.7133(4) -0.0021(4) 0.0939(4)
C2 C 0.7444(4) 0.0300(3) 0.0937(3)
C3 C 0.7184(8) -0.0399(8) 0.1243(13)
C4 C 0.6807(4) -0.0693(4) 0.1250
C5 C 0.7792(4) 0.0292(4) 0.1250
C6 C 0.7443(4) 0.0651(3) 0.0606(4)
Zn2 Zn 0.67058(16) -0.17058(16) 0.17058(16)
In1L In 0.8750 0.0000 0.2500
In1M In 0.6250 0.0000 -0.2500
In1S In 1.0000 0.2500 -0.1250
In1P In 0.5000 0.2500 0.1250
In1E In 0.5000 -0.2500 -0.1250
In1W In 0.7500 -0.3750 0.0000
In1K In 0.3750 0.0000 0.2500
In1Q In 0.5000 -0.2500 0.3750
Zn1L Zn 0.59831(10) -0.09831(10) 0.09831(10)
Zn1Z Zn 0.84831(10) -0.15169(10) -0.15169(10)
Zn1MA Zn 0.90169(10) -0.09831(10) -0.09831(10)
Zn1JB Zn 0.90169(10) 0.40169(10) 0.09831(10)
Zn1YA Zn 0.84831(10) 0.34831(10) 0.15169(10)
Zn1GC Zn 0.59831(10) 0.40169(10) -0.09831(10)
Zn1UB Zn 0.65169(10) 0.34831(10) -0.15169(10)
O1L O 0.8435(3) 0.0231(3) 0.1897(3)
O1Z O 0.7269(3) 0.0935(3) -0.0603(3)
O1MA O 0.6565(3) 0.0231(3) -0.1897(3)
O1RB O 0.8103(3) 0.1565(3) -0.0231(3)
O1ZA O 0.9397(3) 0.2269(3) -0.0935(3)
O1NC O 0.6897(3) 0.1565(3) 0.0231(3)
O1AC O 0.5603(3) 0.2269(3) 0.0935(3)
O1E O 0.5603(3) -0.2731(3) -0.0935(3)
O1W O 0.6897(3) -0.3435(3) -0.0231(3)
O1K O 0.4065(3) -0.0603(3) 0.2731(3)
O1Q O 0.4769(3) -0.1897(3) 0.3435(3)
O1LA O 0.8435(3) -0.0231(3) 0.3103(3)
O1DC O 0.9065(3) 0.0603(3) 0.2731(3)
O1DB O 0.9065(3) -0.0603(3) 0.2269(3)
O1M O 0.6565(3) -0.0231(3) -0.3103(3)
O1GB O 0.5935(3) 0.0603(3) -0.2731(3)
O1CC O 0.5935(3) -0.0603(3) -0.2269(3)
O2L O 0.8146(3) -0.0352(3) 0.2179(3)
O2Z O 0.7852(3) 0.0646(3) -0.0321(3)
O2MA O 0.6854(3) -0.0352(3) -0.2179(3)
O2RB O 0.7821(3) 0.1854(3) 0.0352(3)
O2ZA O 0.9679(3) 0.2852(3) -0.0646(3)
O2NC O 0.7179(3) 0.1854(3) -0.0352(3)
O2AC O 0.5321(3) 0.2852(3) 0.0646(3)
O2E O 0.5321(3) -0.2148(3) -0.0646(3)
O2W O 0.7179(3) -0.3146(3) 0.0352(3)
O2K O 0.4354(3) -0.0321(3) 0.2148(3)
O2Q O 0.5352(3) -0.2179(3) 0.3146(3)
O2LA O 0.8146(3) 0.0352(3) 0.2821(3)
O2DC O 0.9354(3) 0.0321(3) 0.2148(3)
O2DB O 0.9354(3) -0.0321(3) 0.2852(3)
O2M O 0.6854(3) 0.0352(3) -0.2821(3)
O2GB O 0.5646(3) 0.0321(3) -0.2148(3)
O2CC O 0.5646(3) -0.0321(3) -0.2852(3)
O3L O 0.6504(3) -0.0659(3) 0.0977(3)
O3Z O 0.8159(3) -0.0996(3) -0.1523(3)
O3MA O 0.8496(3) -0.0659(3) -0.0977(3)
O3RB O 0.9023(3) 0.3496(3) 0.0659(3)
O3ZA O 0.8477(3) 0.3159(3) 0.0996(3)
O3NC O 0.5977(3) 0.3496(3) -0.0659(3)
O3AC O 0.6523(3) 0.3159(3) -0.0996(3)
O3E O 0.6523(3) -0.1841(3) 0.0996(3)
O3W O 0.5977(3) -0.1504(3) 0.0659(3)
O3K O 0.5996(3) -0.1523(3) 0.1841(3)
O3Q O 0.5659(3) -0.0977(3) 0.1504(3)
O3DA O 0.8477(3) -0.1841(3) -0.0996(3)
O3HA O 0.9004(3) -0.1523(3) -0.1841(3)
O3NA O 0.9341(3) -0.0977(3) -0.1504(3)
O3SA O 0.9023(3) -0.1504(3) -0.0659(3)
C1L C 0.7479(4) -0.0367(4) 0.1561(4)
C1Z C 0.7867(4) -0.0021(4) -0.0939(4)
C1MA C 0.7521(4) -0.0367(4) -0.1561(4)
C1RB C 0.8439(4) 0.2521(4) 0.0367(4)
C1ZA C 0.9061(4) 0.2867(4) 0.0021(4)
C1NC C 0.6561(4) 0.2521(4) -0.0367(4)
C1AC C 0.5939(4) 0.2867(4) -0.0021(4)
C1E C 0.5939(4) -0.2133(4) 0.0021(4)
C1W C 0.6561(4) -0.2479(4) 0.0367(4)
C1K C 0.5021(4) -0.0939(4) 0.2133(4)
C1Q C 0.5367(4) -0.1561(4) 0.2479(4)
C2L C 0.7800(3) -0.0056(4) 0.1563(3)
C2Z C 0.7556(4) 0.0300(3) -0.0937(3)
C2MA C 0.7200(3) -0.0056(4) -0.1563(3)
C2RB C 0.8437(3) 0.2200(3) 0.0056(4)
C2ZA C 0.9063(3) 0.2556(4) -0.0300(3)
C2NC C 0.6563(3) 0.2200(3) -0.0056(4)
C2AC C 0.5937(3) 0.2556(4) 0.0300(3)
C2E C 0.5937(3) -0.2444(4) -0.0300(3)
C2W C 0.6563(3) -0.2800(3) 0.0056(4)
C2K C 0.4700(3) -0.0937(3) 0.2444(4)
C2Q C 0.5056(4) -0.1563(3) 0.2800(3)
C3L C 0.7101(8) -0.0316(8) 0.1257(13)
C3Z C 0.7816(8) -0.0399(8) -0.1243(13)
C3MA C 0.7899(8) -0.0316(8) -0.1257(13)
C3RB C 0.8743(13) 0.2899(8) 0.0316(8)
C3ZA C 0.8757(13) 0.2816(8) 0.0399(8)
C3NC C 0.6257(13) 0.2899(8) -0.0316(8)
C3AC C 0.6243(13) 0.2816(8) -0.0399(8)
C3E C 0.6243(13) -0.2184(8) 0.0399(8)
C3W C 0.6257(13) -0.2101(8) 0.0316(8)
C3K C 0.5399(8) -0.1243(13) 0.2184(8)
C3Q C 0.5316(8) -0.1257(13) 0.2101(8)
C4Z C 0.8193(4) -0.0693(4) -0.1250
C4ZA C 0.8750 0.3193(4) 0.0693(4)
C4AC C 0.6250 0.3193(4) -0.0693(4)
C4E C 0.6250 -0.1807(4) 0.0693(4)
C4K C 0.5693(4) -0.1250 0.1807(4)
C5Z C 0.7208(4) 0.0292(4) -0.1250
C5ZA C 0.8750 0.2208(4) -0.0292(4)
C5AC C 0.6250 0.2208(4) 0.0292(4)
C5E C 0.6250 -0.2792(4) -0.0292(4)
C5K C 0.4708(4) -0.1250 0.2792(4)
C6L C 0.8151(3) -0.0057(4) 0.1894(4)
C6Z C 0.7557(4) 0.0651(3) -0.0606(4)
C6MA C 0.6849(3) -0.0057(4) -0.1894(4)
C6RB C 0.8106(4) 0.1849(3) 0.0057(4)
C6ZA C 0.9394(4) 0.2557(4) -0.0651(3)
C6NC C 0.6894(4) 0.1849(3) -0.0057(4)
C6AC C 0.5606(4) 0.2557(4) 0.0651(3)
C6E C 0.5606(4) -0.2443(4) -0.0651(3)
C6W C 0.6894(4) -0.3151(3) 0.0057(4)
C6K C 0.4349(3) -0.0606(4) 0.2443(4)
C6Q C 0.5057(4) -0.1894(4) 0.3151(3)
Zn2L Zn 0.57942(16) -0.07942(16) 0.07942(16)
Zn2Z Zn 0.82942(16) -0.17058(16) -0.17058(16)
Zn2MA Zn 0.92058(16) -0.07942(16) -0.07942(16)
Zn2JB Zn 0.92058(16) 0.42058(16) 0.07942(16)
Zn2YA Zn 0.82942(16) 0.32942(16) 0.17058(16)
Zn2GC Zn 0.57942(16) 0.42058(16) -0.07942(16)
Zn2UB Zn 0.67058(16) 0.32942(16) -0.17058(16)
O4 O 0.6809(6) 0.1591(6) 0.2551(7)
N1 N 0.6792(17) 0.110(2) 0.2043(18)
N2 N 0.6551(10) 0.1801(11) 0.1900(11)
C7 C 0.6571(17) 0.096(2) 0.153(2)
C8 C 0.6515(16) 0.1778(18) 0.1426(18)
C9 C 0.643(2) 0.135(3) 0.1360(19)
C10 C 0.7123(17) 0.0806(15) 0.2335(17)
C11 C 0.6759(13) 0.1477(19) 0.2111(16)
C12 C 0.6431(16) 0.2258(16) 0.2074(15)
O4PA O 0.5691(6) -0.0051(7) 0.0909(6)
N1PA N 0.5708(17) 0.0457(18) 0.140(2)
N2PA N 0.5949(10) 0.0600(11) 0.0699(11)
C7PA C 0.5929(17) 0.097(2) 0.154(2)
C8PA C 0.5985(16) 0.1074(18) 0.0722(18)
C9PA C 0.607(2) 0.1140(19) 0.115(3)
C10PA C 0.5377(17) 0.0165(17) 0.1694(15)
C11PA C 0.5741(13) 0.0389(16) 0.1023(19)
C12PA C 0.6069(16) 0.0426(15) 0.0242(16)
loop_
_geom_bond_atom_site_label_1
_geom_bond_atom_site_label_2
_geom_bond_site_symmetry_1
_geom_bond_site_symmetry_2
In1 O1 1_555 1_555
Zn1 O3 1_555 1_555
O1 C6 1_555 1_555
O2 In1 1_555 1_555
O3 C4 1_555 1_555
C1 C2 1_555 1_555
C2 C5 1_555 1_555
C3 C1 1_555 1_555
C4 C3 1_555 1_555
C5 C2L 1_555 1_555
C6 O2 1_555 1_555
O4 C11 1_555 1_555
N1 C10 1_555 1_555
N2 C8 1_555 1_555
C7 C9 1_555 1_555
C8 C9 1_555 1_555
C9 C9PA 1_555 1_555
C11 N1 1_555 1_555
C12 N2 1_555 1_555
Zn2 Zn1 1_555 1_555
In1L O1L 1_555 1_555
In1M O1MA 1_555 1_555
In1S O1ZA 1_555 1_555
In1P O1AC 1_555 1_555
In1E O1E 1_555 1_555
In1W O1W 1_555 1_555
In1K O1K 1_555 1_555
In1Q O1Q 1_555 1_555
Zn1L Zn1 1_555 1_555
Zn1Z Zn1MA 1_555 1_555
Zn1MA O3MA 1_555 1_555
Zn1JB Zn1YA 1_555 1_555
Zn1YA O3ZA 1_555 1_555
Zn1GC Zn1UB 1_555 1_555
Zn1UB O3AC 1_555 1_555
O1L C6L 1_555 1_555
O1Z In1 1_555 1_555
O1MA C6MA 1_555 1_555
O1RB In1 1_555 1_555
O1ZA C6ZA 1_555 1_555
O1NC In1 1_555 1_555
O1AC C6AC 1_555 1_555
O1E C6E 1_555 1_555
O1W C6W 1_555 1_555
O1K C6K 1_555 1_555
O1Q C6Q 1_555 1_555
O1LA In1L 1_555 1_555
O1DC In1L 1_555 1_555
O1DB In1L 1_555 1_555
O1M In1M 1_555 1_555
O1GB In1M 1_555 1_555
O1CC In1M 1_555 1_555
O2L In1L 1_555 1_555
O2Z In1 1_555 1_555
O2MA In1M 1_555 1_555
O2RB In1 1_555 1_555
O2ZA In1S 1_555 1_555
O2NC In1 1_555 1_555
O2AC In1P 1_555 1_555
O2E In1E 1_555 1_555
O2W In1W 1_555 1_555
O2K In1K 1_555 1_555
O2Q In1Q 1_555 1_555
O2LA In1L 1_555 1_555
O2DC In1L 1_555 1_555
O2DB In1L 1_555 1_555
O2M In1M 1_555 1_555
O2GB In1M 1_555 1_555
O2CC In1M 1_555 1_555
O3L C4 1_555 1_555
O3Z Zn1Z 1_555 1_555
O3MA C4Z 1_555 1_555
O3RB Zn1JB 1_555 1_555
O3ZA C4ZA 1_555 1_555
O3NC Zn1GC 1_555 1_555
O3AC C4AC 1_555 1_555
O3E Zn1 1_555 1_555
O3W Zn1L 1_555 1_555
O3K Zn1 1_555 1_555
O3Q Zn1L 1_555 1_555
O3DA Zn1Z 1_555 1_555
O3HA Zn1Z 1_555 1_555
O3NA Zn1MA 1_555 1_555
O3SA Zn1MA 1_555 1_555
C1L C3 1_555 1_555
C1Z C2Z 1_555 1_555
C1MA C2MA 1_555 1_555
C1RB C2RB 1_555 1_555
C1ZA C2ZA 1_555 1_555
C1NC C2NC 1_555 1_555
C1AC C2AC 1_555 1_555
C1E C2E 1_555 1_555
C1W C2W 1_555 1_555
C1K C2K 1_555 1_555
C1Q C2Q 1_555 1_555
C2L C1L 1_555 1_555
C2Z C5Z 1_555 1_555
C2MA C5Z 1_555 1_555
C2RB C5ZA 1_555 1_555
C2ZA C5ZA 1_555 1_555
C2NC C5AC 1_555 1_555
C2AC C5AC 1_555 1_555
C2E C5E 1_555 1_555
C2W C5E 1_555 1_555
C2K C5K 1_555 1_555
C2Q C5K 1_555 1_555
C3L C1 1_555 1_555
C3Z C1Z 1_555 1_555
C3MA C1Z 1_555 1_555
C3RB C1RB 1_555 1_555
C3ZA C1RB 1_555 1_555
C3NC C1NC 1_555 1_555
C3AC C1NC 1_555 1_555
C3E C1E 1_555 1_555
C3W C1E 1_555 1_555
C3K C1K 1_555 1_555
C3Q C1K 1_555 1_555
C4Z O3Z 1_555 1_555
C4ZA O3RB 1_555 1_555
C4AC O3NC 1_555 1_555
C4E O3E 1_555 1_555
C4K O3K 1_555 1_555
C6L O2L 1_555 1_555
C6Z O1Z 1_555 1_555
C6MA O2MA 1_555 1_555
C6RB O1RB 1_555 1_555
C6ZA O2ZA 1_555 1_555
C6NC O1NC 1_555 1_555
C6AC O2AC 1_555 1_555
C6E O2E 1_555 1_555
C6W O2W 1_555 1_555
C6K O2K 1_555 1_555
C6Q O2Q 1_555 1_555
O4PA C11PA 1_555 1_555
N1PA C10PA 1_555 1_555
N2PA C8PA 1_555 1_555
C7PA C9PA 1_555 1_555
C8PA C9PA 1_555 1_555
C11PA N1PA 1_555 1_555
C12PA N2PA 1_555 1_555
Zn2L Zn1L 1_555 1_555
Zn2Z Zn1Z 1_555 1_555
Zn2MA Zn1MA 1_555 1_555
Zn2JB Zn1JB 1_555 1_555
Zn2YA Zn1YA 1_555 1_555
Zn2GC Zn1GC 1_555 1_555
Zn2UB Zn1UB 1_555 1_555
O3 Zn2 1_555 1_555
C2 C6 1_555 1_555
C3 C3L 1_555 1_555
C4 C3L 1_555 1_555
N2 C11 1_555 1_555
Zn2 O3E 1_555 1_555
Zn2 O3K 1_555 1_555
Zn1L O3L 1_555 1_555
O2Z C6Z 1_555 1_555
O2RB C6RB 1_555 1_555
O2NC C6NC 1_555 1_555
O3L Zn2L 1_555 1_555
O3Z Zn2Z 1_555 1_555
O3MA Zn2MA 1_555 1_555
O3RB Zn2JB 1_555 1_555
O3ZA Zn2YA 1_555 1_555
O3NC Zn2GC 1_555 1_555
O3AC Zn2UB 1_555 1_555
O3W C4E 1_555 1_555
O3W Zn2L 1_555 1_555
O3Q C4K 1_555 1_555
O3Q Zn2L 1_555 1_555
O3DA Zn2Z 1_555 1_555
O3HA Zn2Z 1_555 1_555
O3NA Zn2MA 1_555 1_555
O3SA Zn2MA 1_555 1_555
C1L C3L 1_555 1_555
C1MA C3Z 1_555 1_555
C1MA C3MA 1_555 1_555
C1ZA C3RB 1_555 1_555
C1ZA C3ZA 1_555 1_555
C1AC C3NC 1_555 1_555
C1AC C3AC 1_555 1_555
C1W C3E 1_555 1_555
C1W C3W 1_555 1_555
C1Q C3K 1_555 1_555
C1Q C3Q 1_555 1_555
C2L C6L 1_555 1_555
C2Z C6Z 1_555 1_555
C2MA C6MA 1_555 1_555
C2RB C6RB 1_555 1_555
C2ZA C6ZA 1_555 1_555
C2NC C6NC 1_555 1_555
C2AC C6AC 1_555 1_555
C2E C6E 1_555 1_555
C2W C6W 1_555 1_555
C2K C6K 1_555 1_555
C2Q C6Q 1_555 1_555
C3Z C3MA 1_555 1_555
C3Z C4Z 1_555 1_555
C3MA C4Z 1_555 1_555
C3RB C3ZA 1_555 1_555
C3RB C4ZA 1_555 1_555
C3ZA C4ZA 1_555 1_555
C3NC C3AC 1_555 1_555
C3NC C4AC 1_555 1_555
C3AC C4AC 1_555 1_555
C3E C3W 1_555 1_555
C3E C4E 1_555 1_555
C3W C4E 1_555 1_555
C3K C3Q 1_555 1_555
C3K C4K 1_555 1_555
C3Q C4K 1_555 1_555
N2PA C11PA 1_555 1_555

#END
