
#######################################################################
#
#                 Cambridge Crystallographic Data Centre
#                                CCDC 
#
#######################################################################
#
# If this CIF has been generated from an entry in the Cambridge 
# Structural Database, then it will include bibliographic, chemical, 
# crystal, experimental, refinement or atomic coordinate data resulting 
# from the CCDC's data processing and validation procedures.
#
#######################################################################

data_WEBTUU
_symmetry_cell_setting           monoclinic
_symmetry_space_group_name_H-M   'C 2/c'
_symmetry_Int_Tables_number      15
_space_group_name_Hall           '-C 2yn'
loop_
_symmetry_equiv_pos_site_id
_symmetry_equiv_pos_as_xyz
1 x,y,z
2 -x,y,1/2-z
3 1/2+x,1/2+y,z
4 1/2-x,1/2+y,1/2-z
5 -x,-y,-z
6 x,-y,1/2+z
7 1/2-x,1/2-y,-z
8 1/2+x,1/2-y,1/2+z
_cell_length_a                   23.5921(6)
_cell_length_b                   7.2774(2)
_cell_length_c                   19.7125(5)
_cell_angle_alpha                90
_cell_angle_beta                 106.1760(10)
_cell_angle_gamma                90
_cell_volume                     3250.43
loop_
_atom_site_label
_atom_site_type_symbol
_atom_site_fract_x
_atom_site_fract_y
_atom_site_fract_z
O11 O 0.4814(2) 0.7999(8) 0.2735(3)
O11A O 0.5186(2) 0.7999(8) 0.2265(3)
La1 La 0.294737(6) 0.140422(19) 0.278249(7)
O1 O 0.3670(2) 0.2926(7) 0.2198(3)
H1 H 0.3630(10) 0.4198(12) 0.2082(13)
H2 H 0.3645(10) 0.225(3) 0.1778(10)
P1 P 0.17175(3) 0.28137(10) 0.34449(3)
P2 P 0.17356(3) 0.86235(9) 0.65151(3)
P3 P -0.05645(3) 0.62863(10) 0.41151(4)
O2 O 0.22330(8) 0.1561(3) 0.34864(10)
O3 O 0.11315(9) 0.1689(3) 0.30989(12)
H3 H 0.0891 0.2363 0.2811
O4 O 0.17142(10) 0.4565(3) 0.30486(11)
O5 O 0.20937(7) 0.6901(2) 0.67846(9)
O6 O 0.20055(7) 1.0208(2) 0.70022(9)
O7 O 0.10748(8) 0.8396(3) 0.64930(11)
H4 H 0.0938 0.7449 0.6261
O8 O -0.04557(8) 0.7113(3) 0.48737(10)
H5 H -0.0165 0.6588 0.5151
O9 O -0.11967(8) 0.6676(3) 0.37212(11)
O10 O -0.04101(8) 0.4244(3) 0.41376(11)
C1 C 0.16831(12) 0.3289(4) 0.43315(13)
H6 H 0.1458 0.2290 0.4479
H7 H 0.2089 0.3260 0.4651
C2 C 0.14045(11) 0.5101(4) 0.44306(13)
C3 C 0.08396(11) 0.5553(4) 0.40165(13)
H8 H 0.0638 0.4737 0.3653
C4 C 0.05665(11) 0.7177(4) 0.41259(13)
C5 C 0.08729(12) 0.8391(4) 0.46495(13)
H9 H 0.0693 0.9511 0.4726
C6 C 0.14422(11) 0.7966(4) 0.50610(13)
C7 C 0.17016(11) 0.6317(4) 0.49514(13)
H10 H 0.2087 0.6019 0.5236
C8 C 0.17639(12) 0.9247(4) 0.56445(13)
H11 H 0.1595 1.0494 0.5537
H12 H 0.2183 0.9309 0.5644
C9 C -0.00724(12) 0.7520(4) 0.37209(14)
H13 H -0.0140 0.7119 0.3225
H14 H -0.0158 0.8852 0.3720
La1C La 0.205263(6) -0.359578(19) 0.221751(7)
La1C_2 La 0.205263(6) 0.640422(19) 0.221751(7)
La1E La 0.294737(6) 0.859578(19) 0.778249(7)
La1F La 0.205263(6) 0.359578(19) 0.721751(7)
La1F_2 La 0.205263(6) 1.359578(19) 0.721751(7)
La1B La -0.205263(6) 0.640422(19) 0.278249(7)
La1F_3 La 0.205263(6) 0.359578(19) -0.278249(7)
La1E_2 La 0.294737(6) -0.140422(19) -0.221751(7)
La1E_3 La 0.294737(6) 0.859578(19) -0.221751(7)
La1A La 0.705263(6) 0.140422(19) 0.221751(7)
O1C O 0.1330(2) -0.2074(7) 0.2802(3)
H1C H 0.1370(10) -0.0802(12) 0.2918(13)
H2C H 0.1355(10) -0.275(3) 0.3222(10)
P1C P 0.32825(3) -0.21863(10) 0.15551(3)
P2C P 0.32644(3) 0.36235(9) -0.15151(3)
P3C P 0.55645(3) 0.12863(10) 0.08849(4)
O2C O 0.27670(8) -0.3439(3) 0.15136(10)
O3C O 0.38685(9) -0.3311(3) 0.19011(12)
H3C H 0.4109 -0.2637 0.2189
O4C O 0.32858(10) -0.0435(3) 0.19514(11)
O4_2 O 0.17142(10) -0.5435(3) 0.30486(11)
O5C O 0.29063(7) 0.1901(2) -0.17846(9)
O5E O 0.20937(7) 0.3099(2) 0.17846(9)
O5F O 0.29063(7) -0.1901(2) 0.32154(9)
O5E_2 O 0.20937(7) -0.6901(2) 0.17846(9)
O6C O 0.29945(7) 0.5208(2) -0.20022(9)
O6E O 0.20055(7) -0.0208(2) 0.20022(9)
O6F O 0.29945(7) 0.4792(2) 0.29978(9)
O6F_2 O 0.29945(7) -0.5208(2) 0.29978(9)
O7C O 0.39252(8) 0.3396(3) -0.14930(11)
H4C H 0.4062 0.2449 -0.1261
O8C O 0.54557(8) 0.2113(3) 0.01263(10)
H5C H 0.5165 0.1588 -0.0151
O9C O 0.61967(8) 0.1676(3) 0.12788(11)
O9B O 0.38033(8) 0.1676(3) 0.37212(11)
O9A O 0.11967(8) -0.3324(3) 0.12788(11)
O10C O 0.54101(8) -0.0756(3) 0.08624(11)
C1C C 0.33169(12) -0.1711(4) 0.06685(13)
H6C H 0.3542 -0.2710 0.0521
H7C H 0.2911 -0.1740 0.0349
C2C C 0.35955(11) 0.0101(4) 0.05694(13)
C3C C 0.41604(11) 0.0553(4) 0.09835(13)
H8C H 0.4362 -0.0263 0.1347
C4C C 0.44335(11) 0.2177(4) 0.08741(13)
C5C C 0.41271(12) 0.3391(4) 0.03505(13)
H9C H 0.4307 0.4511 0.0274
C6C C 0.35578(11) 0.2966(4) -0.00610(13)
C7C C 0.32984(11) 0.1317(4) 0.00486(13)
H10C H 0.2913 0.1019 -0.0236
C8C C 0.32361(12) 0.4247(4) -0.06445(13)
H11C H 0.3405 0.5494 -0.0537
H12C H 0.2817 0.4309 -0.0644
C9C C 0.50724(12) 0.2520(4) 0.12791(14)
H13C H 0.5140 0.2119 0.1775
H14C H 0.5158 0.3852 0.1280
O12? O 0.1600(3) 0.8152(9) 0.3104(4)
loop_
_geom_bond_atom_site_label_1
_geom_bond_atom_site_label_2
_geom_bond_site_symmetry_1
_geom_bond_site_symmetry_2
La1 O1 1_555 1_555
O1 H1 1_555 1_555
H2 O1 1_555 1_555
P1 O2 1_555 1_555
P2 O5 1_555 1_555
P3 O8 1_555 1_555
O2 La1 1_555 1_555
O3 P1 1_555 1_555
H3 O3 1_555 1_555
O4 P1 1_555 1_555
O5 La1E 1_555 1_555
O6 P2 1_555 1_555
O7 P2 1_555 1_555
H4 O7 1_555 1_555
O8 H5 1_555 1_555
O9 P3 1_555 1_555
O10 P3 1_555 1_555
C1 P1 1_555 1_555
H6 C1 1_555 1_555
H7 C1 1_555 1_555
C2 C1 1_555 1_555
C3 C2 1_555 1_555
H8 C3 1_555 1_555
C4 C3 1_555 1_555
C5 C4 1_555 1_555
H9 C5 1_555 1_555
C6 C5 1_555 1_555
C7 C2 1_555 1_555
H10 C7 1_555 1_555
C8 P2 1_555 1_555
H11 C8 1_555 1_555
H12 C8 1_555 1_555
C9 P3 1_555 1_555
H13 C9 1_555 1_555
H14 C9 1_555 1_555
O11 O11A 1_555 1_555
La1C O1C 1_555 1_555
La1C_2 O4 1_555 1_555
La1E O6 1_555 1_555
La1F O5 1_555 1_555
La1F_2 O6 1_555 1_555
La1B O9 1_555 1_555
La1F_3 O5C 1_555 1_555
La1E_2 O5C 1_555 1_555
La1E_3 O6C 1_555 1_555
La1A O9C 1_555 1_555
O1C H1C 1_555 1_555
H2C O1C 1_555 1_555
P1C O2C 1_555 1_555
P2C O5C 1_555 1_555
P3C O8C 1_555 1_555
O2C La1C 1_555 1_555
O3C P1C 1_555 1_555
H3C O3C 1_555 1_555
O4C La1 1_555 1_555
O4_2 La1C 1_555 1_555
O5E La1 1_555 1_555
O5F La1 1_555 1_555
O5E_2 La1C 1_555 1_555
O6C La1F_3 1_555 1_555
O6E La1 1_555 1_555
O6F La1 1_555 1_555
O6F_2 La1C 1_555 1_555
O7C P2C 1_555 1_555
H4C O7C 1_555 1_555
O8C H5C 1_555 1_555
O9C P3C 1_555 1_555
O9B La1 1_555 1_555
O9A La1C 1_555 1_555
O10C P3C 1_555 1_555
C1C P1C 1_555 1_555
H6C C1C 1_555 1_555
H7C C1C 1_555 1_555
C2C C1C 1_555 1_555
C3C C2C 1_555 1_555
H8C C3C 1_555 1_555
C4C C3C 1_555 1_555
C5C C4C 1_555 1_555
H9C C5C 1_555 1_555
C6C C5C 1_555 1_555
C7C C2C 1_555 1_555
H10C C7C 1_555 1_555
C8C P2C 1_555 1_555
H11C C8C 1_555 1_555
H12C C8C 1_555 1_555
C9C P3C 1_555 1_555
H13C C9C 1_555 1_555
H14C C9C 1_555 1_555
C4 C9 1_555 1_555
C6 C7 1_555 1_555
C6 C8 1_555 1_555
La1C O5F 1_555 1_555
La1C O6E 1_555 1_555
La1C_2 O5E 1_555 1_555
La1C_2 O6F 1_555 1_555
P1C O4C 1_555 1_555
P2C O6C 1_555 1_555
C4C C9C 1_555 1_555
C6C C7C 1_555 1_555
C6C C8C 1_555 1_555

#END
