
#######################################################################
#
#                 Cambridge Crystallographic Data Centre
#                                CCDC 
#
#######################################################################
#
# If this CIF has been generated from an entry in the Cambridge 
# Structural Database, then it will include bibliographic, chemical, 
# crystal, experimental, refinement or atomic coordinate data resulting 
# from the CCDC's data processing and validation procedures.
#
#######################################################################

data_WEBTOO
_symmetry_cell_setting           monoclinic
_symmetry_space_group_name_H-M   'C 2/c'
_symmetry_Int_Tables_number      15
_space_group_name_Hall           '-C 2yn'
loop_
_symmetry_equiv_pos_site_id
_symmetry_equiv_pos_as_xyz
1 x,y,z
2 -x,y,1/2-z
3 1/2+x,1/2+y,z
4 1/2-x,1/2+y,1/2-z
5 -x,-y,-z
6 x,-y,1/2+z
7 1/2-x,1/2-y,-z
8 1/2+x,1/2-y,1/2+z
_cell_length_a                   24.757(4)
_cell_length_b                   7.1588(13)
_cell_length_c                   19.353(4)
_cell_angle_alpha                90
_cell_angle_beta                 108.455(7)
_cell_angle_gamma                90
_cell_volume                     3253.55
loop_
_atom_site_label
_atom_site_type_symbol
_atom_site_fract_x
_atom_site_fract_y
_atom_site_fract_z
La1 La 0.210514(4) 0.626136(12) 0.216738(5)
P1 P 0.321794(19) 0.80762(7) 0.15174(2)
P2 P 0.331385(17) 1.37555(6) -0.15449(2)
P3 P 0.556105(18) 1.11611(6) 0.09490(3)
O1 O 0.27149(6) 0.6796(2) 0.14434(8)
O2 O 0.38007(6) 0.7076(2) 0.19376(8)
H1 H 0.3823 0.6931 0.2377
O3 O 0.31716(6) 0.9920(2) 0.18754(8)
O4 O 0.29183(5) 1.20637(16) -0.17880(7)
O5 O 0.30470(5) 1.53467(17) -0.20684(6)
O6 O 0.39228(5) 1.33426(18) -0.15744(7)
H2 H 0.4076 1.2514 -0.1268
O7 O 0.54508(6) 1.2133(2) 0.01959(8)
H3 H 0.5184 1.1585 -0.0118
O8 O 0.61731(6) 1.1499(2) 0.13876(8)
O9 O 0.54109(6) 0.90797(19) 0.08579(8)
C1 C 0.32934(8) 0.8418(3) 0.06329(9)
H4 H 0.3491 0.7318 0.0516
H5 H 0.2909 0.8471 0.0269
C2 C 0.36159(7) 1.0154(3) 0.05560(9)
C3 C 0.41782(7) 1.0449(3) 0.09983(9)
H6 H 0.4360 0.9547 0.1356
C4 C 0.44740(7) 1.2051(3) 0.09195(9)
C5 C 0.42050(7) 1.3366(3) 0.03916(9)
H7 H 0.4404 1.4459 0.0335
C6 C 0.36442(7) 1.3088(2) -0.00553(9)
C7 C 0.33529(7) 1.1480(2) 0.00314(9)
H8 H 0.2971 1.1289 -0.0271
C8 C 0.33596(7) 1.4481(2) -0.06432(9)
H9 H 0.3573 1.5672 -0.0536
H10 H 0.2970 1.4725 -0.0627
C9 C 0.50956(7) 1.2292(3) 0.13721(10)
H11 H 0.5159 1.1754 0.1863
H12 H 0.5188 1.3640 0.1431
La1C La 0.289486(4) 1.126136(12) 0.283262(5)
La1E La 0.210514(4) 1.373864(12) -0.283262(5)
La1F La 0.289486(4) 0.873864(12) -0.216738(5)
La1F_2 La 0.289486(4) 1.873864(12) -0.216738(5)
La1B La 0.710514(4) 1.126136(12) 0.216738(5)
O3C O 0.18284(6) 0.4920(2) 0.31246(8)
O4E O 0.29183(5) 0.79363(16) 0.32120(7)
O4F O 0.20817(5) 0.29363(16) 0.17880(7)
O5E O 0.30470(5) 0.46533(17) 0.29316(6)
O5F O 0.19530(5) 0.96533(17) 0.20684(6)
O8B O 0.11731(6) 0.6499(2) 0.13876(8)
loop_
_geom_bond_atom_site_label_1
_geom_bond_atom_site_label_2
_geom_bond_site_symmetry_1
_geom_bond_site_symmetry_2
La1 O1 1_555 1_555
P1 O1 1_555 1_555
P2 O4 1_555 1_555
P3 O7 1_555 1_555
O2 P1 1_555 1_555
H1 O2 1_555 1_555
O3 P1 1_555 1_555
O4 La1E 1_555 1_555
O5 P2 1_555 1_555
O6 P2 1_555 1_555
H2 O6 1_555 1_555
O7 H3 1_555 1_555
O8 P3 1_555 1_555
O9 P3 1_555 1_555
C1 P1 1_555 1_555
H4 C1 1_555 1_555
H5 C1 1_555 1_555
C2 C1 1_555 1_555
C3 C2 1_555 1_555
H6 C3 1_555 1_555
C4 C3 1_555 1_555
C5 C4 1_555 1_555
H7 C5 1_555 1_555
C6 C5 1_555 1_555
C7 C2 1_555 1_555
H8 C7 1_555 1_555
C8 P2 1_555 1_555
H9 C8 1_555 1_555
H10 C8 1_555 1_555
C9 P3 1_555 1_555
H11 C9 1_555 1_555
H12 C9 1_555 1_555
La1C O3 1_555 1_555
La1E O5 1_555 1_555
La1F O4 1_555 1_555
La1F_2 O5 1_555 1_555
La1B O8 1_555 1_555
O3C La1 1_555 1_555
O4E La1 1_555 1_555
O4F La1 1_555 1_555
O5E La1 1_555 1_555
O5F La1 1_555 1_555
O8B La1 1_555 1_555
C4 C9 1_555 1_555
C6 C7 1_555 1_555
C6 C8 1_555 1_555
La1C O4E 1_555 1_555
La1C O5F 1_555 1_555

#END
