
#######################################################################
#
#                 Cambridge Crystallographic Data Centre
#                                CCDC 
#
#######################################################################
#
# If this CIF has been generated from an entry in the Cambridge 
# Structural Database, then it will include bibliographic, chemical, 
# crystal, experimental, refinement or atomic coordinate data resulting 
# from the CCDC's data processing and validation procedures.
#
#######################################################################

data_WEBVIK
_symmetry_cell_setting           monoclinic
_symmetry_space_group_name_H-M   'C 2/c'
_symmetry_Int_Tables_number      15
_space_group_name_Hall           '-C 2yn'
loop_
_symmetry_equiv_pos_site_id
_symmetry_equiv_pos_as_xyz
1 x,y,z
2 -x,y,1/2-z
3 1/2+x,1/2+y,z
4 1/2-x,1/2+y,1/2-z
5 -x,-y,-z
6 x,-y,1/2+z
7 1/2-x,1/2-y,-z
8 1/2+x,1/2-y,1/2+z
_cell_length_a                   23.419(5)
_cell_length_b                   7.1793(16)
_cell_length_c                   19.697(4)
_cell_angle_alpha                90
_cell_angle_beta                 106.650(14)
_cell_angle_gamma                90
_cell_volume                     3172.85
loop_
_atom_site_label
_atom_site_type_symbol
_atom_site_fract_x
_atom_site_fract_y
_atom_site_fract_z
O11 O 0.4837(5) 0.7988(16) 0.2730(6)
O11A O 0.5163(5) 0.7988(16) 0.2270(6)
Nd1 Nd 0.293865(14) 0.13709(4) 0.277422(17)
O1 O 0.3664(6) 0.2916(19) 0.2230(7)
H1 H 0.3656(18) 0.416(2) 0.206(2)
H2 H 0.3626(19) 0.208(4) 0.1844(19)
P1 P 0.17183(7) 0.2785(2) 0.34241(8)
P2 P 0.17426(6) 0.8663(2) 0.65173(7)
P3 P -0.05752(6) 0.6262(2) 0.41006(8)
O2 O 0.22397(16) 0.1510(6) 0.3462(2)
O3 O 0.11178(18) 0.1675(6) 0.3086(2)
H3 H 0.1019 0.1787 0.2644
O4 O 0.1707(2) 0.4557(6) 0.3022(2)
O5 O 0.21023(17) 0.6920(5) 0.6792(2)
O6 O 0.20207(16) 1.0273(5) 0.70041(18)
O7 O 0.10721(16) 0.8449(6) 0.6485(2)
H4 H 0.0955 0.7372 0.6344
O8 O -0.04742(17) 0.7124(5) 0.4857(2)
H5 H -0.0197 0.6554 0.5148
O9 O -0.12144(16) 0.6627(6) 0.3696(2)
O10 O -0.04066(17) 0.4195(5) 0.4140(2)
C1 C 0.1688(3) 0.3258(8) 0.4311(3)
H6 H 0.1462 0.2243 0.4456
H7 H 0.2100 0.3221 0.4632
C2 C 0.1412(3) 0.5080(8) 0.4416(3)
C3 C 0.0837(3) 0.5547(8) 0.4003(3)
H8 H 0.0633 0.4726 0.3635
C4 C 0.0555(3) 0.7174(9) 0.4114(3)
C5 C 0.0868(2) 0.8410(8) 0.4644(3)
H9 H 0.0687 0.9544 0.4721
C6 C 0.1436(3) 0.7984(8) 0.5051(3)
C7 C 0.1706(2) 0.6315(9) 0.4940(3)
H10 H 0.2097 0.6027 0.5228
C8 C 0.1769(2) 0.9282(8) 0.5648(3)
H11 H 0.1603 1.0552 0.5541
H12 H 0.2192 0.9332 0.5650
C9 C -0.0089(2) 0.7498(9) 0.3706(3)
H13 H -0.0158 0.7077 0.3210
H14 H -0.0179 0.8847 0.3699
Nd1C Nd 0.206135(14) -0.36291(4) 0.222578(17)
Nd1C_2 Nd 0.206135(14) 0.63709(4) 0.222578(17)
Nd1E Nd 0.293865(14) 0.86291(4) 0.777422(17)
Nd1F Nd 0.206135(14) 0.36291(4) 0.722578(17)
Nd1F_2 Nd 0.206135(14) 1.36291(4) 0.722578(17)
Nd1B Nd -0.206135(14) 0.63709(4) 0.277422(17)
Nd1F_3 Nd 0.206135(14) 0.36291(4) -0.277422(17)
Nd1E_2 Nd 0.293865(14) -0.13709(4) -0.222578(17)
Nd1E_3 Nd 0.293865(14) 0.86291(4) -0.222578(17)
Nd1A Nd 0.706135(14) 0.13709(4) 0.222578(17)
O1C O 0.1336(6) -0.2084(19) 0.2770(7)
H1C H 0.1344(18) -0.084(2) 0.294(2)
H2C H 0.1374(19) -0.292(4) 0.3156(19)
P1C P 0.32817(7) -0.2215(2) 0.15759(8)
P2C P 0.32574(6) 0.3663(2) -0.15173(7)
P3C P 0.55752(6) 0.1262(2) 0.08994(8)
O2C O 0.27603(16) -0.3490(6) 0.1538(2)
O3C O 0.38822(18) -0.3325(6) 0.1914(2)
H3C H 0.3981 -0.3213 0.2356
O4C O 0.3293(2) -0.0443(6) 0.1978(2)
O4_2 O 0.1707(2) -0.5443(6) 0.3022(2)
O5C O 0.28977(17) 0.1920(5) -0.1792(2)
O5E O 0.21023(17) 0.3080(5) 0.1792(2)
O5F O 0.28977(17) -0.1920(5) 0.3208(2)
O5E_2 O 0.21023(17) -0.6920(5) 0.1792(2)
O6C O 0.29793(16) 0.5273(5) -0.20041(18)
O6E O 0.20207(16) -0.0273(5) 0.20041(18)
O6F O 0.29793(16) 0.4727(5) 0.29959(18)
O6F_2 O 0.29793(16) -0.5273(5) 0.29959(18)
O7C O 0.39279(16) 0.3449(6) -0.1485(2)
H4C H 0.4045 0.2372 -0.1344
O8C O 0.54742(17) 0.2124(5) 0.0143(2)
H5C H 0.5197 0.1554 -0.0148
O9C O 0.62144(16) 0.1627(6) 0.1304(2)
O9B O 0.37856(16) 0.1627(6) 0.3696(2)
O9A O 0.12144(16) -0.3373(6) 0.1304(2)
O10C O 0.54066(17) -0.0805(5) 0.0860(2)
C1C C 0.3312(3) -0.1742(8) 0.0689(3)
H6C H 0.3538 -0.2757 0.0544
H7C H 0.2900 -0.1779 0.0368
C2C C 0.3588(3) 0.0080(8) 0.0584(3)
C3C C 0.4163(3) 0.0547(8) 0.0997(3)
H8C H 0.4367 -0.0274 0.1365
C4C C 0.4445(3) 0.2174(9) 0.0886(3)
C5C C 0.4132(2) 0.3410(8) 0.0356(3)
H9C H 0.4313 0.4544 0.0279
C6C C 0.3564(3) 0.2984(8) -0.0051(3)
C7C C 0.3294(2) 0.1315(9) 0.0060(3)
H10C H 0.2903 0.1027 -0.0228
C8C C 0.3231(2) 0.4282(8) -0.0648(3)
H11C H 0.3397 0.5552 -0.0541
H12C H 0.2808 0.4332 -0.0650
C9C C 0.5089(2) 0.2498(9) 0.1294(3)
H13C H 0.5158 0.2077 0.1790
H14C H 0.5179 0.3847 0.1301
O12? O 0.1599(5) 0.811(2) 0.3079(8)
loop_
_geom_bond_atom_site_label_1
_geom_bond_atom_site_label_2
_geom_bond_site_symmetry_1
_geom_bond_site_symmetry_2
Nd1 O1 1_555 1_555
O1 H1 1_555 1_555
H2 O1 1_555 1_555
P1 O2 1_555 1_555
P2 O5 1_555 1_555
P3 O8 1_555 1_555
O2 Nd1 1_555 1_555
O3 P1 1_555 1_555
H3 O3 1_555 1_555
O4 P1 1_555 1_555
O5 Nd1E 1_555 1_555
O6 P2 1_555 1_555
O7 P2 1_555 1_555
H4 O7 1_555 1_555
O8 H5 1_555 1_555
O9 P3 1_555 1_555
O10 P3 1_555 1_555
C1 P1 1_555 1_555
H6 C1 1_555 1_555
H7 C1 1_555 1_555
C2 C1 1_555 1_555
C3 C2 1_555 1_555
H8 C3 1_555 1_555
C4 C3 1_555 1_555
C5 C4 1_555 1_555
H9 C5 1_555 1_555
C6 C5 1_555 1_555
C7 C2 1_555 1_555
H10 C7 1_555 1_555
C8 P2 1_555 1_555
H11 C8 1_555 1_555
H12 C8 1_555 1_555
C9 P3 1_555 1_555
H13 C9 1_555 1_555
H14 C9 1_555 1_555
O11 O11A 1_555 1_555
Nd1C O1C 1_555 1_555
Nd1C_2 O4 1_555 1_555
Nd1E O6 1_555 1_555
Nd1F O5 1_555 1_555
Nd1F_2 O6 1_555 1_555
Nd1B O9 1_555 1_555
Nd1F_3 O5C 1_555 1_555
Nd1E_2 O5C 1_555 1_555
Nd1E_3 O6C 1_555 1_555
Nd1A O9C 1_555 1_555
O1C H1C 1_555 1_555
H2C O1C 1_555 1_555
P1C O2C 1_555 1_555
P2C O5C 1_555 1_555
P3C O8C 1_555 1_555
O2C Nd1C 1_555 1_555
O3C P1C 1_555 1_555
H3C O3C 1_555 1_555
O4C Nd1 1_555 1_555
O4_2 Nd1C 1_555 1_555
O5E Nd1 1_555 1_555
O5F Nd1 1_555 1_555
O5E_2 Nd1C 1_555 1_555
O6C Nd1F_3 1_555 1_555
O6E Nd1 1_555 1_555
O6F Nd1 1_555 1_555
O6F_2 Nd1C 1_555 1_555
O7C P2C 1_555 1_555
H4C O7C 1_555 1_555
O8C H5C 1_555 1_555
O9C P3C 1_555 1_555
O9B Nd1 1_555 1_555
O9A Nd1C 1_555 1_555
O10C P3C 1_555 1_555
C1C P1C 1_555 1_555
H6C C1C 1_555 1_555
H7C C1C 1_555 1_555
C2C C1C 1_555 1_555
C3C C2C 1_555 1_555
H8C C3C 1_555 1_555
C4C C3C 1_555 1_555
C5C C4C 1_555 1_555
H9C C5C 1_555 1_555
C6C C5C 1_555 1_555
C7C C2C 1_555 1_555
H10C C7C 1_555 1_555
C8C P2C 1_555 1_555
H11C C8C 1_555 1_555
H12C C8C 1_555 1_555
C9C P3C 1_555 1_555
H13C C9C 1_555 1_555
H14C C9C 1_555 1_555
C4 C9 1_555 1_555
C6 C7 1_555 1_555
C6 C8 1_555 1_555
Nd1C O5F 1_555 1_555
Nd1C O6E 1_555 1_555
Nd1C_2 O5E 1_555 1_555
Nd1C_2 O6F 1_555 1_555
P1C O4C 1_555 1_555
P2C O6C 1_555 1_555
C4C C9C 1_555 1_555
C6C C7C 1_555 1_555
C6C C8C 1_555 1_555

#END
