
#######################################################################
#
#                 Cambridge Crystallographic Data Centre
#                                CCDC 
#
#######################################################################
#
# If this CIF has been generated from an entry in the Cambridge 
# Structural Database, then it will include bibliographic, chemical, 
# crystal, experimental, refinement or atomic coordinate data resulting 
# from the CCDC's data processing and validation procedures.
#
#######################################################################

data_WEBVOO
_symmetry_cell_setting           monoclinic
_symmetry_space_group_name_H-M   'P 21/n'
_symmetry_Int_Tables_number      14
_space_group_name_Hall           '-P 2yn'
loop_
_symmetry_equiv_pos_site_id
_symmetry_equiv_pos_as_xyz
1 x,y,z
2 1/2+x,1/2-y,1/2+z
3 -x,-y,-z
4 1/2-x,1/2+y,1/2-z
_cell_length_a                   5.822(1)
_cell_length_b                   12.448(3)
_cell_length_c                   13.298(3)
_cell_angle_alpha                90
_cell_angle_beta                 93.36(3)
_cell_angle_gamma                90
_cell_volume                     962.079
loop_
_atom_site_label
_atom_site_type_symbol
_atom_site_fract_x
_atom_site_fract_y
_atom_site_fract_z
Cu1 Cu 0.11049(4) 0.10201(2) 0.00478(2)
S1 S 0.16574(8) -0.05464(4) 0.12432(4)
N1 N 0.5930(3) -0.11490(13) 0.05424(15)
N2 N -0.0185(3) 0.21781(12) 0.09091(12)
O1 O -0.0272(3) 0.58961(12) 0.17261(17)
O2 O 0.2731(2) 0.51670(11) 0.10056(12)
C1 C 0.4165(3) -0.09100(14) 0.08267(15)
C2 C -0.2099(3) 0.20134(16) 0.14148(15)
H1 H -0.269(4) 0.132(2) 0.1386(18)
C3 C -0.3174(4) 0.28190(17) 0.19186(16)
H2 H -0.450(5) 0.265(2) 0.231(2)
C4 C -0.2275(4) 0.38363(17) 0.19088(16)
H3 H -0.284(4) 0.436(2) 0.2218(19)
C5 C -0.0294(3) 0.40259(14) 0.14061(14)
C6 C 0.0696(3) 0.31734(15) 0.09181(15)
H4 H 0.201(4) 0.3276(17) 0.0578(17)
C7 C 0.0693(3) 0.51308(15) 0.14065(15)
C8 C 0.3860(5) 0.6206(2) 0.1020(3)
H5 H 0.403(6) 0.647(3) 0.174(3)
H6 H 0.509(9) 0.614(4) 0.068(4)
H7 H 0.310(6) 0.676(3) 0.068(3)
Cu1B Cu -0.11049(4) -0.10201(2) -0.00478(2)
S1B S -0.16574(8) 0.05464(4) -0.12432(4)
Cu1B_2 Cu 0.88951(4) -0.10201(2) -0.00478(2)
N1B N 0.4070(3) 0.11490(13) -0.05424(15)
loop_
_geom_bond_atom_site_label_1
_geom_bond_atom_site_label_2
_geom_bond_site_symmetry_1
_geom_bond_site_symmetry_2
Cu1 S1 1_555 1_555
S1 C1 1_555 1_555
N1 C1 1_555 1_555
N2 Cu1 1_555 1_555
O1 C7 1_555 1_555
O2 C7 1_555 1_555
C2 N2 1_555 1_555
H1 C2 1_555 1_555
C3 C2 1_555 1_555
H2 C3 1_555 1_555
C4 C3 1_555 1_555
H3 C4 1_555 1_555
C5 C4 1_555 1_555
C6 N2 1_555 1_555
H4 C6 1_555 1_555
C7 C5 1_555 1_555
C8 O2 1_555 1_555
H5 C8 1_555 1_555
H6 C8 1_555 1_555
H7 C8 1_555 1_555
Cu1B S1 1_555 1_555
S1B Cu1 1_555 1_555
Cu1B_2 N1 1_555 1_555
N1B Cu1 1_555 1_555
C5 C6 1_555 1_555
Cu1B S1B 1_555 1_555

#END
