
#######################################################################
#
#                 Cambridge Crystallographic Data Centre
#                                CCDC 
#
#######################################################################
#
# If this CIF has been generated from an entry in the Cambridge 
# Structural Database, then it will include bibliographic, chemical, 
# crystal, experimental, refinement or atomic coordinate data resulting 
# from the CCDC's data processing and validation procedures.
#
#######################################################################

data_WEBVEG
_symmetry_cell_setting           monoclinic
_symmetry_space_group_name_H-M   'C 2/c'
_symmetry_Int_Tables_number      15
_space_group_name_Hall           '-C 2yn'
loop_
_symmetry_equiv_pos_site_id
_symmetry_equiv_pos_as_xyz
1 x,y,z
2 -x,y,1/2-z
3 1/2+x,1/2+y,z
4 1/2-x,1/2+y,1/2-z
5 -x,-y,-z
6 x,-y,1/2+z
7 1/2-x,1/2-y,-z
8 1/2+x,1/2-y,1/2+z
_cell_length_a                   23.368(4)
_cell_length_b                   7.2040(11)
_cell_length_c                   19.745(3)
_cell_angle_alpha                90
_cell_angle_beta                 106.262(7)
_cell_angle_gamma                90
_cell_volume                     3190.95
loop_
_atom_site_label
_atom_site_type_symbol
_atom_site_fract_x
_atom_site_fract_y
_atom_site_fract_z
O11 O 0.4849(7) 0.8028(19) 0.2746(8)
O11A O 0.5151(7) 0.8028(19) 0.2254(8)
Pr1 Pr 0.29428(2) 0.13681(7) 0.27775(3)
O1 O 0.3546(5) 0.3021(12) 0.2073(6)
P1 P 0.17125(12) 0.2790(4) 0.34330(14)
P2 P 0.17413(10) 0.8676(4) 0.65170(13)
P3 P -0.05688(11) 0.6269(4) 0.41097(14)
O2 O 0.2238(3) 0.1534(9) 0.3467(3)
O3 O 0.1116(3) 0.1660(10) 0.3104(4)
H1 H 0.0996 0.1860 0.2668
O4 O 0.1700(3) 0.4564(9) 0.3021(4)
O5 O 0.2095(3) 0.6924(8) 0.6786(3)
O6 O 0.2010(3) 1.0270(9) 0.6997(3)
O7 O 0.1067(3) 0.8455(10) 0.6478(4)
H2 H 0.0935 0.7474 0.6260
O8 O -0.0478(3) 0.7095(9) 0.4856(3)
H3 H -0.0158 0.6692 0.5127
O9 O -0.1213(3) 0.6620(9) 0.3702(4)
O10 O -0.0403(3) 0.4221(9) 0.4135(4)
C1 C 0.1697(4) 0.3290(13) 0.4317(5)
H4 H 0.1482 0.2273 0.4478
H5 H 0.2113 0.3282 0.4625
C2 C 0.1414(4) 0.5101(13) 0.4423(5)
C3 C 0.0851(5) 0.5568(15) 0.4019(5)
H6 H 0.0649 0.4752 0.3651
C4 C 0.0568(5) 0.7178(15) 0.4126(5)
C5 C 0.0870(4) 0.8417(14) 0.4654(5)
H7 H 0.0684 0.9534 0.4736
C6 C 0.1442(5) 0.7992(14) 0.5053(5)
C7 C 0.1711(4) 0.6331(15) 0.4946(5)
H8 H 0.2100 0.6039 0.5233
C8 C 0.1781(4) 0.9279(14) 0.5651(5)
H9 H 0.1624 1.0554 0.5544
H10 H 0.2206 0.9297 0.5656
C9 C -0.0077(4) 0.7517(15) 0.3721(5)
H11 H -0.0143 0.7114 0.3225
H12 H -0.0164 0.8862 0.3720
Pr1C Pr 0.20572(2) -0.36319(7) 0.22225(3)
Pr1C_2 Pr 0.20572(2) 0.63681(7) 0.22225(3)
Pr1E Pr 0.29428(2) 0.86319(7) 0.77775(3)
Pr1F Pr 0.20572(2) 0.36319(7) 0.72225(3)
Pr1F_2 Pr 0.20572(2) 1.36319(7) 0.72225(3)
Pr1B Pr -0.20572(2) 0.63681(7) 0.27775(3)
Pr1F_3 Pr 0.20572(2) 0.36319(7) -0.27775(3)
Pr1E_2 Pr 0.29428(2) -0.13681(7) -0.22225(3)
Pr1E_3 Pr 0.29428(2) 0.86319(7) -0.22225(3)
Pr1A Pr 0.70572(2) 0.13681(7) 0.22225(3)
O1C O 0.1454(5) -0.1979(12) 0.2927(6)
P1C P 0.32875(12) -0.2210(4) 0.15670(14)
P2C P 0.32587(10) 0.3676(4) -0.15170(13)
P3C P 0.55688(11) 0.1269(4) 0.08903(14)
O2C O 0.2762(3) -0.3466(9) 0.1533(3)
O3C O 0.3884(3) -0.3340(10) 0.1896(4)
H1C H 0.4004 -0.3140 0.2332
O4C O 0.3300(3) -0.0436(9) 0.1979(4)
O4_2 O 0.1700(3) -0.5436(9) 0.3021(4)
O5C O 0.2905(3) 0.1924(8) -0.1786(3)
O5E O 0.2095(3) 0.3076(8) 0.1786(3)
O5F O 0.2905(3) -0.1924(8) 0.3214(3)
O5E_2 O 0.2095(3) -0.6924(8) 0.1786(3)
O6C O 0.2990(3) 0.5270(9) -0.1997(3)
O6E O 0.2010(3) -0.0270(9) 0.1997(3)
O6F O 0.2990(3) 0.4730(9) 0.3003(3)
O6F_2 O 0.2990(3) -0.5270(9) 0.3003(3)
O7C O 0.3933(3) 0.3455(10) -0.1478(4)
H2C H 0.4065 0.2474 -0.1260
O8C O 0.5478(3) 0.2095(9) 0.0144(3)
H3C H 0.5158 0.1692 -0.0127
O9C O 0.6213(3) 0.1620(9) 0.1298(4)
O9B O 0.3787(3) 0.1620(9) 0.3702(4)
O9A O 0.1213(3) -0.3380(9) 0.1298(4)
O10C O 0.5403(3) -0.0779(9) 0.0865(4)
C1C C 0.3303(4) -0.1710(13) 0.0683(5)
H4C H 0.3518 -0.2727 0.0522
H5C H 0.2887 -0.1718 0.0375
C2C C 0.3586(4) 0.0101(13) 0.0577(5)
C3C C 0.4149(5) 0.0568(15) 0.0981(5)
H6C H 0.4351 -0.0248 0.1349
C4C C 0.4432(5) 0.2178(15) 0.0874(5)
C5C C 0.4130(4) 0.3417(14) 0.0346(5)
H7C H 0.4316 0.4534 0.0264
C6C C 0.3558(5) 0.2992(14) -0.0053(5)
C7C C 0.3289(4) 0.1331(15) 0.0054(5)
H8C H 0.2900 0.1039 -0.0233
C8C C 0.3219(4) 0.4279(14) -0.0651(5)
H9C H 0.3376 0.5554 -0.0544
H10C H 0.2794 0.4297 -0.0656
C9C C 0.5077(4) 0.2517(15) 0.1279(5)
H11C H 0.5143 0.2114 0.1775
H12C H 0.5164 0.3862 0.1280
loop_
_geom_bond_atom_site_label_1
_geom_bond_atom_site_label_2
_geom_bond_site_symmetry_1
_geom_bond_site_symmetry_2
Pr1 O1 1_555 1_555
P1 O2 1_555 1_555
P2 O5 1_555 1_555
P3 O8 1_555 1_555
O2 Pr1 1_555 1_555
O3 P1 1_555 1_555
H1 O3 1_555 1_555
O4 P1 1_555 1_555
O5 Pr1E 1_555 1_555
O6 P2 1_555 1_555
O7 P2 1_555 1_555
H2 O7 1_555 1_555
O8 H3 1_555 1_555
O9 P3 1_555 1_555
O10 P3 1_555 1_555
C1 P1 1_555 1_555
H4 C1 1_555 1_555
H5 C1 1_555 1_555
C2 C1 1_555 1_555
C3 C2 1_555 1_555
H6 C3 1_555 1_555
C4 C3 1_555 1_555
C5 C4 1_555 1_555
H7 C5 1_555 1_555
C6 C5 1_555 1_555
C7 C2 1_555 1_555
H8 C7 1_555 1_555
C8 P2 1_555 1_555
H9 C8 1_555 1_555
H10 C8 1_555 1_555
C9 P3 1_555 1_555
H11 C9 1_555 1_555
H12 C9 1_555 1_555
O11 O11A 1_555 1_555
Pr1C O1C 1_555 1_555
Pr1C_2 O4 1_555 1_555
Pr1E O6 1_555 1_555
Pr1F O5 1_555 1_555
Pr1F_2 O6 1_555 1_555
Pr1B O9 1_555 1_555
Pr1F_3 O5C 1_555 1_555
Pr1E_2 O5C 1_555 1_555
Pr1E_3 O6C 1_555 1_555
Pr1A O9C 1_555 1_555
P1C O2C 1_555 1_555
P2C O5C 1_555 1_555
P3C O8C 1_555 1_555
O2C Pr1C 1_555 1_555
O3C P1C 1_555 1_555
H1C O3C 1_555 1_555
O4C Pr1 1_555 1_555
O4_2 Pr1C 1_555 1_555
O5E Pr1 1_555 1_555
O5F Pr1 1_555 1_555
O5E_2 Pr1C 1_555 1_555
O6C Pr1F_3 1_555 1_555
O6E Pr1 1_555 1_555
O6F Pr1 1_555 1_555
O6F_2 Pr1C 1_555 1_555
O7C P2C 1_555 1_555
H2C O7C 1_555 1_555
O8C H3C 1_555 1_555
O9C P3C 1_555 1_555
O9B Pr1 1_555 1_555
O9A Pr1C 1_555 1_555
O10C P3C 1_555 1_555
C1C P1C 1_555 1_555
H4C C1C 1_555 1_555
H5C C1C 1_555 1_555
C2C C1C 1_555 1_555
C3C C2C 1_555 1_555
H6C C3C 1_555 1_555
C4C C3C 1_555 1_555
C5C C4C 1_555 1_555
H7C C5C 1_555 1_555
C6C C5C 1_555 1_555
C7C C2C 1_555 1_555
H8C C7C 1_555 1_555
C8C P2C 1_555 1_555
H9C C8C 1_555 1_555
H10C C8C 1_555 1_555
C9C P3C 1_555 1_555
H11C C9C 1_555 1_555
H12C C9C 1_555 1_555
C4 C9 1_555 1_555
C6 C7 1_555 1_555
C6 C8 1_555 1_555
Pr1C O5F 1_555 1_555
Pr1C O6E 1_555 1_555
Pr1C_2 O5E 1_555 1_555
Pr1C_2 O6F 1_555 1_555
P1C O4C 1_555 1_555
P2C O6C 1_555 1_555
C4C C9C 1_555 1_555
C6C C7C 1_555 1_555
C6C C8C 1_555 1_555

#END
