
#######################################################################
#
#                 Cambridge Crystallographic Data Centre
#                                CCDC 
#
#######################################################################
#
# If this CIF has been generated from an entry in the Cambridge 
# Structural Database, then it will include bibliographic, chemical, 
# crystal, experimental, refinement or atomic coordinate data resulting 
# from the CCDC's data processing and validation procedures.
#
#######################################################################

data_WEBWEH
_symmetry_cell_setting           monoclinic
_symmetry_space_group_name_H-M   'C 2/c'
_symmetry_Int_Tables_number      15
_space_group_name_Hall           '-C 2yn'
loop_
_symmetry_equiv_pos_site_id
_symmetry_equiv_pos_as_xyz
1 x,y,z
2 -x,y,1/2-z
3 1/2+x,1/2+y,z
4 1/2-x,1/2+y,1/2-z
5 -x,-y,-z
6 x,-y,1/2+z
7 1/2-x,1/2-y,-z
8 1/2+x,1/2-y,1/2+z
_cell_length_a                   21.131(2)
_cell_length_b                   15.2094(10)
_cell_length_c                   11.9706(12)
_cell_angle_alpha                90
_cell_angle_beta                 97.344(8)
_cell_angle_gamma                90
_cell_volume                     3815.67
loop_
_atom_site_label
_atom_site_type_symbol
_atom_site_fract_x
_atom_site_fract_y
_atom_site_fract_z
I1 I 0.33247(3) -0.32656(3) -0.02222(4)
Cu1 Cu 0.30919(5) -0.15993(6) -0.04505(8)
Fe1 Fe 0.50000 0.30599(11) 0.25000
O1 O 0.2539(3) 0.0699(4) -0.1908(5)
O2 O 0.3391(3) 0.0999(3) 0.0058(5)
O3 O 0.4135(3) 0.0959(3) 0.2095(4)
O4 O 0.4774(3) 0.0918(4) 0.0689(5)
N1 N 0.2650(3) -0.1615(4) -0.2042(5)
N2 N 0.3047(3) -0.0340(4) -0.0694(5)
N3 N 0.3582(3) -0.1197(4) 0.1042(5)
C1 C 0.2476(4) -0.2303(5) -0.2718(7)
C2 C 0.2140(4) -0.2220(6) -0.3785(7)
C3 C 0.1980(5) -0.1381(6) -0.4163(7)
C4 C 0.2147(4) -0.0659(5) -0.3489(7)
C5 C 0.2483(4) -0.0796(5) -0.2431(7)
C6 C 0.2695(4) -0.0042(5) -0.1660(7)
C7 C 0.3358(4) 0.0206(5) 0.0096(6)
C8 C 0.3676(4) -0.0318(5) 0.1079(7)
C9 C 0.4026(4) 0.0060(5) 0.2001(6)
C10 C 0.4254(4) -0.0464(6) 0.2938(6)
C11 C 0.4129(4) -0.1335(6) 0.2893(7)
C12 C 0.3803(4) -0.1693(5) 0.1913(7)
C13 C 0.4484(4) 0.1344(6) 0.1304(7)
C14 C 0.4457(4) 0.2299(5) 0.1361(7)
C15 C 0.4060(4) 0.2830(6) 0.1957(8)
C16 C 0.4204(5) 0.3719(7) 0.1785(9)
C17 C 0.4680(6) 0.3745(7) 0.1064(9)
C18 C 0.4842(5) 0.2864(6) 0.0802(7)
H1 H 0.25890 -0.28770 -0.24500
H2 H 0.20240 -0.27210 -0.42390
H3 H 0.17530 -0.13000 -0.48930
H4 H 0.20340 -0.00820 -0.37450
H5 H 0.44910 -0.02110 0.35870
H6 H 0.42630 -0.17010 0.35230
H7 H 0.37360 -0.23100 0.18690
H8 H 0.37490 0.26200 0.23990
H9 H 0.40150 0.42120 0.20990
H10 H 0.48620 0.42630 0.07960
H11 H 0.51530 0.26900 0.03370
I1F I 0.16753(3) -0.17344(3) 0.02222(4)
I1A I 0.66753(3) -0.32656(3) 0.52222(4)
I1G I 0.83247(3) -0.17344(3) 0.47778(4)
Cu1A Cu 0.69081(5) -0.15993(6) 0.54505(8)
Cu1F Cu 0.19081(5) -0.34007(6) 0.04505(8)
O1A O 0.7461(3) 0.0699(4) 0.6908(5)
O2A O 0.6609(3) 0.0999(3) 0.4942(5)
O3A O 0.5865(3) 0.0959(3) 0.2905(4)
O4A O 0.5226(3) 0.0918(4) 0.4311(5)
N1A N 0.7350(3) -0.1615(4) 0.7042(5)
N2A N 0.6953(3) -0.0340(4) 0.5694(5)
N3A N 0.6418(3) -0.1197(4) 0.3958(5)
C1A C 0.7524(4) -0.2303(5) 0.7718(7)
C2A C 0.7860(4) -0.2220(6) 0.8785(7)
C3A C 0.8020(5) -0.1381(6) 0.9163(7)
C4A C 0.7853(4) -0.0659(5) 0.8489(7)
C5A C 0.7517(4) -0.0796(5) 0.7431(7)
C6A C 0.7305(4) -0.0042(5) 0.6660(7)
C7A C 0.6642(4) 0.0206(5) 0.4904(6)
C8A C 0.6324(4) -0.0318(5) 0.3921(7)
C9A C 0.5974(4) 0.0060(5) 0.2999(6)
C10A C 0.5746(4) -0.0464(6) 0.2062(6)
C11A C 0.5871(4) -0.1335(6) 0.2107(7)
C12A C 0.6197(4) -0.1693(5) 0.3087(7)
C13A C 0.5516(4) 0.1344(6) 0.3696(7)
C14A C 0.5543(4) 0.2299(5) 0.3639(7)
C15A C 0.5940(4) 0.2830(6) 0.3043(8)
C16A C 0.5796(5) 0.3719(7) 0.3215(9)
C17A C 0.5320(6) 0.3745(7) 0.3936(9)
C18A C 0.5158(5) 0.2864(6) 0.4198(7)
H1A H 0.74110 -0.28770 0.74500
H2A H 0.79760 -0.27210 0.92390
H3A H 0.82470 -0.13000 0.98930
H4A H 0.79660 -0.00820 0.87450
H5A H 0.55090 -0.02110 0.14130
H6A H 0.57370 -0.17010 0.14770
H7A H 0.62640 -0.23100 0.31310
H8A H 0.62510 0.26200 0.26010
H9A H 0.59850 0.42120 0.29010
H10A H 0.51380 0.42630 0.42040
H11A H 0.48470 0.26900 0.46630
loop_
_geom_bond_atom_site_label_1
_geom_bond_atom_site_label_2
_geom_bond_site_symmetry_1
_geom_bond_site_symmetry_2
I1 Cu1 1_555 1_555
Cu1 N1 1_555 1_555
Fe1 C14 1_555 1_555
O1 C6 1_555 1_555
O2 C7 1_555 1_555
O3 C9 1_555 1_555
O4 C13 1_555 1_555
N1 C1 1_555 1_555
N2 Cu1 1_555 1_555
N3 Cu1 1_555 1_555
C1 C2 1_555 1_555
C2 C3 1_555 1_555
C3 C4 1_555 1_555
C4 C5 1_555 1_555
C5 N1 1_555 1_555
C6 N2 1_555 1_555
C7 N2 1_555 1_555
C8 N3 1_555 1_555
C9 C8 1_555 1_555
C10 C9 1_555 1_555
C11 C10 1_555 1_555
C12 N3 1_555 1_555
C13 O3 1_555 1_555
C14 C13 1_555 1_555
C15 Fe1 1_555 1_555
C16 Fe1 1_555 1_555
C17 Fe1 1_555 1_555
C18 Fe1 1_555 1_555
H1 C1 1_555 1_555
H2 C2 1_555 1_555
H3 C3 1_555 1_555
H4 C4 1_555 1_555
H5 C10 1_555 1_555
H6 C11 1_555 1_555
H7 C12 1_555 1_555
H8 C15 1_555 1_555
H9 C16 1_555 1_555
H10 C17 1_555 1_555
H11 C18 1_555 1_555
I1F Cu1 1_555 1_555
I1A Cu1A 1_555 1_555
I1G Cu1A 1_555 1_555
Cu1A N1A 1_555 1_555
Cu1F I1 1_555 1_555
O1A C6A 1_555 1_555
O2A C7A 1_555 1_555
O3A C9A 1_555 1_555
O4A C13A 1_555 1_555
N1A C1A 1_555 1_555
N2A Cu1A 1_555 1_555
N3A Cu1A 1_555 1_555
C1A C2A 1_555 1_555
C2A C3A 1_555 1_555
C3A C4A 1_555 1_555
C4A C5A 1_555 1_555
C5A N1A 1_555 1_555
C6A N2A 1_555 1_555
C7A N2A 1_555 1_555
C8A N3A 1_555 1_555
C9A C8A 1_555 1_555
C10A C9A 1_555 1_555
C11A C10A 1_555 1_555
C12A N3A 1_555 1_555
C13A O3A 1_555 1_555
C14A Fe1 1_555 1_555
C15A Fe1 1_555 1_555
C16A Fe1 1_555 1_555
C17A Fe1 1_555 1_555
C18A Fe1 1_555 1_555
H1A C1A 1_555 1_555
H2A C2A 1_555 1_555
H3A C3A 1_555 1_555
H4A C4A 1_555 1_555
H5A C10A 1_555 1_555
H6A C11A 1_555 1_555
H7A C12A 1_555 1_555
H8A C15A 1_555 1_555
H9A C16A 1_555 1_555
H10A C17A 1_555 1_555
H11A C18A 1_555 1_555
C5 C6 1_555 1_555
C7 C8 1_555 1_555
C11 C12 1_555 1_555
C14 C15 1_555 1_555
C14 C18 1_555 1_555
C15 C16 1_555 1_555
C16 C17 1_555 1_555
C17 C18 1_555 1_555
I1F Cu1F 1_555 1_555
C5A C6A 1_555 1_555
C7A C8A 1_555 1_555
C11A C12A 1_555 1_555
C13A C14A 1_555 1_555
C14A C15A 1_555 1_555
C14A C18A 1_555 1_555
C15A C16A 1_555 1_555
C16A C17A 1_555 1_555
C17A C18A 1_555 1_555

#END
