
#######################################################################
#
#                 Cambridge Crystallographic Data Centre
#                                CCDC 
#
#######################################################################
#
# If this CIF has been generated from an entry in the Cambridge 
# Structural Database, then it will include bibliographic, chemical, 
# crystal, experimental, refinement or atomic coordinate data resulting 
# from the CCDC's data processing and validation procedures.
#
#######################################################################

data_WEBXUY
_symmetry_cell_setting           monoclinic
_symmetry_space_group_name_H-M   'P 21/c'
_symmetry_Int_Tables_number      14
_space_group_name_Hall           '-P 2ybc'
loop_
_symmetry_equiv_pos_site_id
_symmetry_equiv_pos_as_xyz
1 x,y,z
2 -x,1/2+y,1/2-z
3 -x,-y,-z
4 x,1/2-y,1/2+z
_cell_length_a                   12.4772(2)
_cell_length_b                   12.22600(10)
_cell_length_c                   18.0714(3)
_cell_angle_alpha                90
_cell_angle_beta                 120.4680(10)
_cell_angle_gamma                90
_cell_volume                     2376.06
loop_
_atom_site_label
_atom_site_type_symbol
_atom_site_fract_x
_atom_site_fract_y
_atom_site_fract_z
C1 C 0.6947(3) 1.0706(2) -0.31938(17)
H1 H 0.6560 1.1087 -0.3710
N1 N 0.63656(18) 1.06289(16) -0.27403(12)
C2 C 0.6934(2) 1.0060(2) -0.20079(15)
H2 H 0.6541 0.9999 -0.1689
C3 C 0.8083(3) 1.0244(3) -0.29231(18)
H3 H 0.8458 1.0321 -0.3253
Zn1 Zn 0.52164(2) 0.84337(2) 0.312880(16)
O1 O 0.64302(16) 0.66496(15) 0.40379(12)
O2 O 0.67707(15) 0.92047(15) 0.36070(10)
O3 O 0.46032(16) 0.73489(15) 0.36320(12)
O4 O 0.71365(16) 0.91069(16) 0.49429(11)
N2 N 0.52590(18) 0.77644(17) 0.20922(12)
C4 C 0.5444(2) 0.66390(19) 0.40350(14)
N3 N 0.85616(19) 0.8970(2) -0.09291(14)
H4 H 0.803(2) 0.878(2) -0.0793(18)
C5 C 0.7480(2) 0.92889(19) 0.44211(15)
C6 C 0.6359(2) 0.7358(2) 0.13626(14)
C7 C 0.4119(2) 0.5799(2) 0.45621(16)
H5 H 0.3525 0.6337 0.4266
C8 C 0.9150(2) 0.8178(2) 0.07315(16)
H6 H 0.8371 0.8492 0.0392
C9 C 0.4353(3) 0.6595(2) 0.08713(18)
H7 H 0.3685 0.6166 0.0488
C10 C 0.8782(2) 0.96557(19) 0.47197(14)
C11 C 0.8085(2) 0.9555(2) -0.16974(15)
N4 N 0.73908(19) 0.74461(19) 0.12502(13)
H8 H 0.731(3) 0.712(2) 0.0820(14)
O5 O 1.06137(17) 0.8918(2) -0.04934(13)
C12 C 0.5375(2) 0.6715(2) 0.07808(16)
H9 H 0.5406 0.6368 0.0334
C13 C 0.5204(2) 0.5779(2) 0.45251(15)
C14 C 0.4333(2) 0.7117(2) 0.15364(16)
H10 H 0.3649 0.7018 0.1604
C15 C 0.9457(2) 0.7726(2) 0.15171(15)
C16 C 0.9996(2) 0.8166(2) 0.04457(16)
C17 C 0.8555(2) 0.7783(2) 0.18357(16)
C18 C 0.9763(2) 0.8710(2) -0.03690(17)
C19 C 1.0608(3) 0.7258(3) 0.20234(18)
H11 H 1.0824 0.6971 0.2558
C20 C 1.1134(2) 0.7668(3) 0.09526(18)
H12 H 1.1702 0.7637 0.0764
O6 O 0.88668(19) 0.8078(2) 0.25586(13)
C21 C 0.9276(3) 0.9588(3) 0.41888(17)
H13 H 0.8797 0.9307 0.3637
C22 C 0.6263(2) 0.7888(2) 0.20066(15)
H14 H 0.6908 0.8339 0.2388
C23 C 1.1441(3) 0.7215(3) 0.1734(2)
H15 H 1.2211 0.6881 0.2068
C24 C 0.9525(3) 1.0065(3) 0.55284(17)
H16 H 0.9213 1.0111 0.5898
C25 C 0.6083(2) 0.4972(2) 0.49658(16)
H17 H 0.6810 0.4952 0.4942
C26 C 0.8679(3) 0.9665(2) -0.21652(17)
H18 H 0.9458 0.9357 -0.1973
C1B C 0.3053(3) -0.0706(2) 1.31938(17)
H1B H 0.3440 -0.1087 1.3710
N1B N 0.36344(18) -0.06289(16) 1.27403(12)
N1_2 N 0.63656(18) 0.06289(16) 0.72597(12)
N1B_2 N 0.36344(18) 0.93711(16) 0.27403(12)
C2B C 0.3066(2) -0.0060(2) 1.20079(15)
H2B H 0.3459 0.0001 1.1689
C3B C 0.1917(3) -0.0244(3) 1.29231(18)
H3B H 0.1542 -0.0321 1.3253
Zn1B Zn 0.47836(2) 0.15663(2) 0.687120(16)
Zn1_2 Zn 0.52164(2) -0.15663(2) 1.312880(16)
Zn1B_2 Zn 0.47836(2) 1.15663(2) -0.312880(16)
Zn1B_3 Zn 1.47836(2) 1.15663(2) 0.687120(16)
O1B O 0.35698(16) 0.33504(15) 0.59621(12)
O2B O 1.32293(15) 1.07953(15) 0.63930(10)
O2B_2 O 0.32293(15) 0.07953(15) 0.63930(10)
O3B O 0.53968(16) 0.26511(15) 0.63680(12)
O4B O 1.28635(16) 1.08931(16) 0.50571(11)
N2B N 0.47410(18) 0.22356(17) 0.79078(12)
C4B C 0.4556(2) 0.33610(19) 0.59650(14)
N3B N 0.14384(19) 0.1030(2) 1.09291(14)
H4B H 0.197(2) 0.122(2) 1.0793(18)
C5B C 1.2520(2) 1.07111(19) 0.55789(15)
C6B C 0.3641(2) 0.2642(2) 0.86374(14)
C7B C 0.5881(2) 0.4201(2) 0.54379(16)
H5B H 0.6475 0.3663 0.5734
C8B C 0.0850(2) 0.1822(2) 0.92685(16)
H6B H 0.1629 0.1508 0.9608
C9B C 0.5647(3) 0.3405(2) 0.91287(18)
H7B H 0.6315 0.3834 0.9512
C10B C 1.1218(2) 1.03443(19) 0.52803(14)
C11B C 0.1915(2) 0.0445(2) 1.16974(15)
N4B N 0.26092(19) 0.25539(19) 0.87498(13)
H8B H 0.269(3) 0.288(2) 0.9180(14)
O5B O -0.06137(17) 0.1082(2) 1.04934(13)
C12B C 0.4625(2) 0.3285(2) 0.92192(16)
H9B H 0.4594 0.3632 0.9666
C13B C 0.4796(2) 0.4221(2) 0.54749(15)
C14B C 0.5667(2) 0.2883(2) 0.84636(16)
H10B H 0.6351 0.2982 0.8396
C15B C 0.0543(2) 0.2274(2) 0.84829(15)
C16B C 0.0004(2) 0.1834(2) 0.95543(16)
C17B C 0.1445(2) 0.2217(2) 0.81643(16)
C18B C 0.0237(2) 0.1290(2) 1.03690(17)
C19B C -0.0608(3) 0.2742(3) 0.79766(18)
H11B H -0.0824 0.3029 0.7442
C20B C -0.1134(2) 0.2332(3) 0.90474(18)
H12B H -0.1702 0.2363 0.9236
O6B O 0.11332(19) 0.1922(2) 0.74414(13)
C21B C 1.0724(3) 1.0412(3) 0.58112(17)
H13B H 1.1203 1.0693 0.6363
C22B C 0.3737(2) 0.2112(2) 0.79934(15)
H14B H 0.3092 0.1661 0.7612
C23B C -0.1441(3) 0.2785(3) 0.8266(2)
H15B H -0.2211 0.3119 0.7932
C24B C 1.0475(3) 0.9935(3) 0.44716(17)
H16B H 1.0787 0.9889 0.4102
C25B C 0.3917(2) 0.5028(2) 0.50342(16)
H17B H 0.3190 0.5048 0.5058
C26B C 0.1321(3) 0.0335(2) 1.21652(17)
H18B H 0.0542 0.0643 1.1973
O7 O 0.1647(7) 0.7277(8) 0.9071(6)
H19 H 0.141(10) 0.773(8) 0.935(6)
H20 H 0.087(4) 0.722(10) 0.865(5)
loop_
_geom_bond_atom_site_label_1
_geom_bond_atom_site_label_2
_geom_bond_site_symmetry_1
_geom_bond_site_symmetry_2
C1 H1 1_555 1_555
N1 C1 1_555 1_555
C2 N1 1_555 1_555
H2 C2 1_555 1_555
C3 C1 1_555 1_555
H3 C3 1_555 1_555
Zn1 O2 1_555 1_555
O1 C4 1_555 1_555
O2 C5 1_555 1_555
O3 Zn1 1_555 1_555
O4 C5 1_555 1_555
N2 Zn1 1_555 1_555
C4 O3 1_555 1_555
N3 H4 1_555 1_555
C5 C10 1_555 1_555
C6 N4 1_555 1_555
C7 H5 1_555 1_555
C8 H6 1_555 1_555
C9 H7 1_555 1_555
C10 C21 1_555 1_555
C11 C2 1_555 1_555
N4 H8 1_555 1_555
O5 C18 1_555 1_555
C12 C6 1_555 1_555
H9 C12 1_555 1_555
C13 C4 1_555 1_555
C14 N2 1_555 1_555
H10 C14 1_555 1_555
C15 C8 1_555 1_555
C16 C8 1_555 1_555
C17 N4 1_555 1_555
C18 N3 1_555 1_555
C19 C15 1_555 1_555
H11 C19 1_555 1_555
C20 C16 1_555 1_555
H12 C20 1_555 1_555
O6 C17 1_555 1_555
C21 H13 1_555 1_555
C22 N2 1_555 1_555
H14 C22 1_555 1_555
C23 C19 1_555 1_555
H15 C23 1_555 1_555
C24 C10 1_555 1_555
H16 C24 1_555 1_555
C25 C13 1_555 1_555
H17 C25 1_555 1_555
C26 C3 1_555 1_555
H18 C26 1_555 1_555
O7 H19 1_555 1_555
H20 O7 1_555 1_555
C1B H1B 1_555 1_555
N1B C1B 1_555 1_555
N1_2 Zn1B 1_555 1_555
N1B_2 Zn1 1_555 1_555
C2B N1B 1_555 1_555
H2B C2B 1_555 1_555
C3B C1B 1_555 1_555
H3B C3B 1_555 1_555
Zn1B O2B_2 1_555 1_555
Zn1_2 N1B 1_555 1_555
Zn1B_2 N1 1_555 1_555
Zn1B_3 O2B 1_555 1_555
O1B C4B 1_555 1_555
O2B C5B 1_555 1_555
O3B Zn1B 1_555 1_555
O4B C5B 1_555 1_555
N2B Zn1B 1_555 1_555
C4B O3B 1_555 1_555
N3B H4B 1_555 1_555
C5B C10B 1_555 1_555
C6B N4B 1_555 1_555
C7B C25 1_555 1_555
H5B C7B 1_555 1_555
C8B H6B 1_555 1_555
C9B H7B 1_555 1_555
C10B C21B 1_555 1_555
C11B C2B 1_555 1_555
N4B H8B 1_555 1_555
O5B C18B 1_555 1_555
C12B C6B 1_555 1_555
H9B C12B 1_555 1_555
C13B C4B 1_555 1_555
C14B N2B 1_555 1_555
H10B C14B 1_555 1_555
C15B C8B 1_555 1_555
C16B C8B 1_555 1_555
C17B N4B 1_555 1_555
C18B N3B 1_555 1_555
C19B C15B 1_555 1_555
H11B C19B 1_555 1_555
C20B C16B 1_555 1_555
H12B C20B 1_555 1_555
O6B C17B 1_555 1_555
C21B C24 1_555 1_555
H13B C21B 1_555 1_555
C22B N2B 1_555 1_555
H14B C22B 1_555 1_555
C23B C19B 1_555 1_555
H15B C23B 1_555 1_555
C24B C21 1_555 1_555
H16B C24B 1_555 1_555
C25B C7 1_555 1_555
H17B C25B 1_555 1_555
C26B C3B 1_555 1_555
H18B C26B 1_555 1_555
N3 C11 1_555 1_555
C6 C22 1_555 1_555
C7 C13 1_555 1_555
C9 C12 1_555 1_555
C9 C14 1_555 1_555
C11 C26 1_555 1_555
C15 C17 1_555 1_555
C16 C18 1_555 1_555
C20 C23 1_555 1_555
N3B C11B 1_555 1_555
C6B C22B 1_555 1_555
C7B C13B 1_555 1_555
C9B C12B 1_555 1_555
C9B C14B 1_555 1_555
C10B C24B 1_555 1_555
C11B C26B 1_555 1_555
C13B C25B 1_555 1_555
C15B C17B 1_555 1_555
C16B C18B 1_555 1_555
C20B C23B 1_555 1_555

#END
