
#######################################################################
#
#                 Cambridge Crystallographic Data Centre
#                                CCDC 
#
#######################################################################
#
# If this CIF has been generated from an entry in the Cambridge 
# Structural Database, then it will include bibliographic, chemical, 
# crystal, experimental, refinement or atomic coordinate data resulting 
# from the CCDC's data processing and validation procedures.
#
#######################################################################

data_WEBZUA
_symmetry_cell_setting           triclinic
_symmetry_space_group_name_H-M   'P -1'
_symmetry_Int_Tables_number      2
_space_group_name_Hall           '-P 1'
loop_
_symmetry_equiv_pos_site_id
_symmetry_equiv_pos_as_xyz
1 x,y,z
2 -x,-y,-z
_cell_length_a                   11.6208(8)
_cell_length_b                   17.0306(11)
_cell_length_c                   19.8020(13)
_cell_angle_alpha                97.9850(10)
_cell_angle_beta                 99.9590(10)
_cell_angle_gamma                101.2320(10)
_cell_volume                     3725.1
loop_
_atom_site_label
_atom_site_type_symbol
_atom_site_fract_x
_atom_site_fract_y
_atom_site_fract_z
Co1 Co 0.88221(5) 0.93931(4) 0.38107(3)
Co2 Co 0.64462(5) 0.80856(4) 0.29005(3)
Co3 Co 0.78076(5) 0.64934(4) 0.28908(3)
Co4 Co 1.01829(5) 0.78197(4) 0.38111(3)
S1 S 0.96984(10) 1.05154(7) 0.32554(6)
S2 S 0.56529(10) 0.83639(7) 0.17104(6)
S3 S 0.79986(10) 0.58353(7) 0.17160(6)
S4 S 1.20020(10) 0.79863(7) 0.32936(6)
Cl1 Cl 0.79760(10) 0.78133(7) 0.39347(6)
Cl2 Cl 1.0000 1.0000 0.5000
Cl3 Cl 0.59321(15) 0.56293(11) 0.29213(9)
O1 O 0.7834(2) 0.89580(17) 0.28407(14)
O2 O 0.6952(2) 0.71918(17) 0.23359(14)
O3 O 0.9409(3) 0.71812(18) 0.28599(14)
O4 O 1.0177(2) 0.89305(17) 0.35942(14)
O5 O 0.7471(3) 0.9795(2) 0.41372(16)
O6 O 0.5829(2) 0.88683(19) 0.35360(15)
O7 O 0.8616(3) 0.58763(19) 0.35655(17)
O8 O 1.0261(3) 0.67934(19) 0.41868(16)
O9 O 0.4968(3) 0.7174(2) 0.30278(16)
O10 O 1.0930(3) 0.8384(2) 0.48576(16)
C1 C 0.7749(4) 0.9458(3) 0.2380(2)
C2 C 0.8572(4) 1.0201(3) 0.2474(2)
C3 C 0.8453(4) 1.0711(3) 0.1996(2)
H1 H 0.9019 1.1216 0.2076
C4 C 0.7547(4) 1.0522(3) 0.1402(2)
C5 C 0.6720(4) 0.9784(3) 0.1312(2)
H2 H 0.6082 0.9634 0.0915
C6 C 0.6807(4) 0.9262(3) 0.1791(2)
C7 C 0.6784(4) 0.7082(3) 0.1648(2)
C8 C 0.6179(4) 0.7563(2) 0.1264(2)
C9 C 0.5893(4) 0.7394(3) 0.0529(2)
H3 H 0.5469 0.7727 0.0284
C10 C 0.6221(4) 0.6749(3) 0.0157(2)
C11 C 0.6884(4) 0.6290(3) 0.0539(2)
H4 H 0.7147 0.5858 0.0299
C12 C 0.7164(4) 0.6461(3) 0.1271(2)
C13 C 1.0039(4) 0.6953(3) 0.2406(2)
C14 C 0.9536(4) 0.6357(3) 0.1810(2)
C15 C 1.0219(4) 0.6141(3) 0.1328(2)
H5 H 0.9845 0.5734 0.0930
C16 C 1.1427(4) 0.6502(3) 0.1412(2)
C17 C 1.1937(4) 0.7076(3) 0.2022(2)
H6 H 1.2765 0.7327 0.2104
C18 C 1.1286(4) 0.7290(3) 0.2505(2)
C19 C 1.0946(4) 0.9306(3) 0.3244(2)
C20 C 1.1880(4) 0.8942(3) 0.3064(2)
C21 C 1.2711(4) 0.9355(3) 0.2740(2)
H7 H 1.3334 0.9106 0.2628
C22 C 1.2678(4) 1.0123(3) 0.2568(2)
C23 C 1.1722(4) 1.0449(3) 0.2725(2)
H8 H 1.1649 1.0960 0.2605
C24 C 1.0876(4) 1.0052(3) 0.3052(2)
C25 C 0.7485(4) 1.1126(3) 0.0899(2)
C26 C 0.5839(5) 0.6504(3) -0.0642(2)
C27 C 1.2194(4) 0.6311(3) 0.0884(3)
C28 C 1.3635(5) 1.0547(4) 0.2224(3)
C29 C 0.8583(5) 1.1202(4) 0.0574(3)
H9 H 0.9308 1.1382 0.0942
H10 H 0.8564 1.1599 0.0262
H11 H 0.8586 1.0672 0.0309
C30 C 0.7446(6) 1.1943(3) 0.1292(3)
H12 H 0.6729 1.1888 0.1495
H13 H 0.7421 1.2332 0.0971
H14 H 0.8163 1.2140 0.1664
C31 C 0.6356(5) 1.0852(4) 0.0314(3)
H15 H 0.5641 1.0808 0.0518
H16 H 0.6356 1.0322 0.0048
H17 H 0.6353 1.1253 0.0004
C32 C 0.5295(6) 0.7133(4) -0.0966(3)
H18 H 0.5878 0.7656 -0.0850
H19 H 0.4576 0.7191 -0.0785
H20 H 0.5076 0.6960 -0.1473
C33 C 0.6943(6) 0.6422(4) -0.0956(3)
H21 H 0.7514 0.6950 -0.0855
H22 H 0.6692 0.6242 -0.1462
H23 H 0.7326 0.6022 -0.0751
C34 C 0.4946(6) 0.5671(4) -0.0814(3)
H24 H 0.4241 0.5715 -0.0615
H25 H 0.5331 0.5268 -0.0616
H26 H 0.4700 0.5502 -0.1321
C35 C 1.1550(5) 0.5622(3) 0.0286(3)
H27 H 1.2085 0.5537 -0.0036
H28 H 1.0832 0.5761 0.0037
H29 H 1.1316 0.5122 0.0469
C36 C 1.3347(4) 0.6090(3) 0.1249(3)
H30 H 1.3839 0.5980 0.0907
H31 H 1.3129 0.5605 0.1455
H32 H 1.3803 0.6545 0.1616
C37 C 1.2578(5) 0.7090(3) 0.0576(3)
H33 H 1.3077 0.6982 0.0238
H34 H 1.3037 0.7534 0.0953
H35 H 1.1863 0.7246 0.0344
C38 C 1.3596(7) 1.0067(5) 0.1514(4)
H36 H 1.2809 1.0012 0.1214
H37 H 1.3731 0.9526 0.1564
H38 H 1.4221 1.0353 0.1305
C39 C 1.3578(7) 1.1385(5) 0.2185(5)
H39 H 1.3647 1.1687 0.2654
H40 H 1.2810 1.1395 0.1893
H41 H 1.4237 1.1636 0.1981
C40 C 1.4899(5) 1.0577(5) 0.2642(4)
H42 H 1.5013 1.0901 0.3108
H43 H 1.5504 1.0826 0.2400
H44 H 1.4982 1.0023 0.2684
C41 C 0.5675(4) 0.9747(3) 0.4525(2)
C42 C 0.4477(5) 0.9387(3) 0.4445(3)
H45 H 0.4106 0.8961 0.4061
C43 C 0.6195(5) 1.0368(4) 0.5087(3)
H46 H 0.7018 1.0628 0.5152
C44 C 0.6376(4) 0.9440(3) 0.4028(2)
C45 C 0.9763(4) 0.5523(3) 0.4545(2)
C46 C 0.8955(5) 0.4816(3) 0.4516(3)
H47 H 0.8227 0.4683 0.4178
C47 C 1.0828(5) 0.5707(3) 0.5035(3)
H48 H 1.1405 0.6195 0.5061
C48 C 0.9542(4) 0.6109(3) 0.4063(2)
Co1A Co 0.11779(5) 1.06069(4) 0.61893(3)
Co1A_2 Co 1.11779(5) 1.06069(4) 0.61893(3)
Co2A Co 0.35538(5) 1.19144(4) 0.70995(3)
Co3A Co 0.21924(5) 1.35066(4) 0.71092(3)
Co3A_2 Co 1.21924(5) 0.35066(4) 0.71092(3)
Co4A Co -0.01829(5) 1.21803(4) 0.61889(3)
Co4A_2 Co 0.98171(5) 0.21803(4) 0.61889(3)
S1A S 0.03016(10) 0.94846(7) 0.67446(6)
S2A S 0.43471(10) 1.16361(7) 0.82896(6)
S3A S 0.20014(10) 1.41647(7) 0.82840(6)
S4A S -0.20020(10) 1.20137(7) 0.67064(6)
Cl1A Cl 0.20240(10) 1.21867(7) 0.60653(6)
Cl2_2 Cl 0.0000 1.0000 0.5000
Cl3A Cl 0.40679(15) 1.43707(11) 0.70787(9)
O1A O 0.2166(2) 1.10420(17) 0.71593(14)
O2A O 0.3048(2) 1.28082(17) 0.76641(14)
O3A O 0.0591(3) 1.28188(18) 0.71401(14)
O4A O -0.0177(2) 1.10695(17) 0.64058(14)
O5A O 0.2529(3) 1.0205(2) 0.58628(16)
O6A O 0.4171(2) 1.11317(19) 0.64640(15)
O7A O 1.1384(3) 0.41237(19) 0.64345(17)
O7A_2 O 0.1384(3) 1.41237(19) 0.64345(17)
O8A O 0.9739(3) 0.32066(19) 0.58132(16)
O8A_2 O -0.0261(3) 1.32066(19) 0.58132(16)
O9A O 0.5032(3) 1.2826(2) 0.69722(16)
O10A O -0.0930(3) 1.1616(2) 0.51424(16)
C1A C 0.2251(4) 1.0542(3) 0.7620(2)
C2A C 0.1428(4) 0.9799(3) 0.7526(2)
C3A C 0.1547(4) 0.9289(3) 0.8004(2)
H1A H 0.0981 0.8784 0.7924
C4A C 0.2453(4) 0.9478(3) 0.8598(2)
C5A C 0.3280(4) 1.0216(3) 0.8688(2)
H2A H 0.3918 1.0366 0.9085
C6A C 0.3193(4) 1.0738(3) 0.8209(2)
C7A C 0.3216(4) 1.2918(3) 0.8352(2)
C8A C 0.3821(4) 1.2437(2) 0.8736(2)
C9A C 0.4107(4) 1.2606(3) 0.9471(2)
H3A H 0.4531 1.2273 0.9716
C10A C 0.3779(4) 1.3251(3) 0.9843(2)
C11A C 0.3116(4) 1.3710(3) 0.9461(2)
H4A H 0.2853 1.4142 0.9701
C12A C 0.2836(4) 1.3539(3) 0.8729(2)
C13A C -0.0039(4) 1.3047(3) 0.7594(2)
C14A C 0.0464(4) 1.3643(3) 0.8190(2)
C15A C -0.0219(4) 1.3859(3) 0.8672(2)
H5A H 0.0155 1.4266 0.9070
C16A C -0.1427(4) 1.3498(3) 0.8588(2)
C17A C -0.1937(4) 1.2924(3) 0.7978(2)
H6A H -0.2765 1.2673 0.7896
C18A C -0.1286(4) 1.2710(3) 0.7495(2)
C19A C -0.0946(4) 1.0694(3) 0.6756(2)
C20A C -0.1880(4) 1.1058(3) 0.6936(2)
C21A C -0.2711(4) 1.0645(3) 0.7260(2)
H7A H -0.3334 1.0894 0.7372
C22A C -0.2678(4) 0.9877(3) 0.7432(2)
C23A C -0.1722(4) 0.9551(3) 0.7275(2)
H8A H -0.1649 0.9040 0.7395
C24A C -0.0876(4) 0.9948(3) 0.6948(2)
C25A C 0.2515(4) 0.8874(3) 0.9101(2)
C26A C 0.4161(5) 1.3496(3) 1.0642(2)
C27A C -0.2194(4) 1.3689(3) 0.9116(3)
C28A C -0.3635(5) 0.9453(4) 0.7776(3)
C29A C 0.1417(5) 0.8798(4) 0.9426(3)
H9A H 0.0692 0.8618 0.9058
H10A H 0.1436 0.8401 0.9738
H11A H 0.1414 0.9328 0.9691
C30A C 0.2554(6) 0.8057(3) 0.8708(3)
H12A H 0.3271 0.8112 0.8505
H13A H 0.2579 0.7668 0.9029
H14A H 0.1837 0.7860 0.8336
C31A C 0.3644(5) 0.9148(4) 0.9686(3)
H15A H 0.4359 0.9192 0.9482
H16A H 0.3644 0.9678 0.9952
H17A H 0.3647 0.8747 0.9996
C32A C 0.4705(6) 1.2867(4) 1.0966(3)
H18A H 0.4122 1.2344 1.0850
H19A H 0.5424 1.2809 1.0785
H20A H 0.4924 1.3040 1.1473
C33A C 0.3057(6) 1.3578(4) 1.0956(3)
H21A H 0.2486 1.3050 1.0855
H22A H 0.3308 1.3758 1.1462
H23A H 0.2674 1.3978 1.0751
C34A C 0.5054(6) 1.4329(4) 1.0814(3)
H24A H 0.5759 1.4285 1.0615
H25A H 0.4669 1.4732 1.0616
H26A H 0.5300 1.4498 1.1321
C35A C -0.1550(5) 1.4378(3) 0.9714(3)
H27A H -0.2085 1.4463 1.0036
H28A H -0.0832 1.4239 0.9963
H29A H -0.1316 1.4878 0.9531
C36A C -0.3347(4) 1.3910(3) 0.8751(3)
H30A H -0.3839 1.4020 0.9093
H31A H -0.3129 1.4395 0.8545
H32A H -0.3803 1.3455 0.8384
C37A C -0.2578(5) 1.2910(3) 0.9424(3)
H33A H -0.3077 1.3018 0.9762
H34A H -0.3037 1.2466 0.9047
H35A H -0.1863 1.2754 0.9656
C38A C -0.3596(7) 0.9933(5) 0.8486(4)
H36A H -0.2809 0.9988 0.8786
H37A H -0.3731 1.0474 0.8436
H38A H -0.4221 0.9647 0.8695
C39A C -0.3578(7) 0.8615(5) 0.7815(5)
H39A H -0.3647 0.8313 0.7346
H40A H -0.2810 0.8605 0.8107
H41A H -0.4237 0.8364 0.8019
C40A C -0.4899(5) 0.9423(5) 0.7358(4)
H42A H -0.5013 0.9099 0.6892
H43A H -0.5504 0.9174 0.7600
H44A H -0.4982 0.9977 0.7316
C41A C 0.4325(4) 1.0253(3) 0.5475(2)
C42A C 0.5523(5) 1.0613(3) 0.5555(3)
H45A H 0.5894 1.1039 0.5939
C43A C 0.3805(5) 0.9632(4) 0.4913(3)
H46A H 0.2982 0.9372 0.4848
C44A C 0.3624(4) 1.0560(3) 0.5972(2)
C45A C 1.0237(4) 0.4477(3) 0.5455(2)
C46A C 1.1045(5) 0.5184(3) 0.5484(3)
H47A H 1.1773 0.5317 0.5822
C47A C 0.9172(5) 0.4293(3) 0.4965(3)
H48A H 0.8595 0.3805 0.4939
C48A C 1.0458(4) 0.3891(3) 0.5937(2)
loop_
_geom_bond_atom_site_label_1
_geom_bond_atom_site_label_2
_geom_bond_site_symmetry_1
_geom_bond_site_symmetry_2
Co1 S1 1_555 1_555
Co2 S2 1_555 1_555
Co3 S3 1_555 1_555
Co4 S4 1_555 1_555
S1 C2 1_555 1_555
S2 C6 1_555 1_555
S3 C12 1_555 1_555
S4 C18 1_555 1_555
Cl1 Co1 1_555 1_555
Cl2 Co1 1_555 1_555
Cl3 Co3 1_555 1_555
O1 Co1 1_555 1_555
O2 Co2 1_555 1_555
O3 Co3 1_555 1_555
O4 Co1 1_555 1_555
O5 Co1 1_555 1_555
O6 Co2 1_555 1_555
O7 Co3 1_555 1_555
O8 Co4 1_555 1_555
O9 Co2 1_555 1_555
O10 Co4 1_555 1_555
C1 O1 1_555 1_555
C2 C1 1_555 1_555
C3 C2 1_555 1_555
H1 C3 1_555 1_555
C4 C3 1_555 1_555
C5 C4 1_555 1_555
H2 C5 1_555 1_555
C6 C1 1_555 1_555
C7 O2 1_555 1_555
C8 S2 1_555 1_555
C9 C8 1_555 1_555
H3 C9 1_555 1_555
C10 C9 1_555 1_555
C11 C10 1_555 1_555
H4 C11 1_555 1_555
C12 C7 1_555 1_555
C13 O3 1_555 1_555
C14 S3 1_555 1_555
C15 C14 1_555 1_555
H5 C15 1_555 1_555
C16 C15 1_555 1_555
C17 C16 1_555 1_555
H6 C17 1_555 1_555
C18 C13 1_555 1_555
C19 O4 1_555 1_555
C20 S4 1_555 1_555
C21 C20 1_555 1_555
H7 C21 1_555 1_555
C22 C21 1_555 1_555
C23 C22 1_555 1_555
H8 C23 1_555 1_555
C24 S1 1_555 1_555
C25 C4 1_555 1_555
C26 C10 1_555 1_555
C27 C16 1_555 1_555
C28 C22 1_555 1_555
C29 C25 1_555 1_555
H9 C29 1_555 1_555
H10 C29 1_555 1_555
H11 C29 1_555 1_555
C30 C25 1_555 1_555
H12 C30 1_555 1_555
H13 C30 1_555 1_555
H14 C30 1_555 1_555
C31 C25 1_555 1_555
H15 C31 1_555 1_555
H16 C31 1_555 1_555
H17 C31 1_555 1_555
C32 C26 1_555 1_555
H18 C32 1_555 1_555
H19 C32 1_555 1_555
H20 C32 1_555 1_555
C33 C26 1_555 1_555
H21 C33 1_555 1_555
H22 C33 1_555 1_555
H23 C33 1_555 1_555
C34 C26 1_555 1_555
H24 C34 1_555 1_555
H25 C34 1_555 1_555
H26 C34 1_555 1_555
C35 C27 1_555 1_555
H27 C35 1_555 1_555
H28 C35 1_555 1_555
H29 C35 1_555 1_555
C36 C27 1_555 1_555
H30 C36 1_555 1_555
H31 C36 1_555 1_555
H32 C36 1_555 1_555
C37 C27 1_555 1_555
H33 C37 1_555 1_555
H34 C37 1_555 1_555
H35 C37 1_555 1_555
C38 C28 1_555 1_555
H36 C38 1_555 1_555
H37 C38 1_555 1_555
H38 C38 1_555 1_555
C39 C28 1_555 1_555
H39 C39 1_555 1_555
H40 C39 1_555 1_555
H41 C39 1_555 1_555
C40 C28 1_555 1_555
H42 C40 1_555 1_555
H43 C40 1_555 1_555
H44 C40 1_555 1_555
C41 C42 1_555 1_555
C42 H45 1_555 1_555
C43 C41 1_555 1_555
H46 C43 1_555 1_555
C44 O5 1_555 1_555
C45 C46 1_555 1_555
C46 H47 1_555 1_555
C47 C45 1_555 1_555
H48 C47 1_555 1_555
C48 O7 1_555 1_555
Co1A S1A 1_555 1_555
Co1A_2 Cl2 1_555 1_555
Co2A S2A 1_555 1_555
Co3A S3A 1_555 1_555
Co3A_2 O7A 1_555 1_555
Co4A S4A 1_555 1_555
Co4A_2 O8A 1_555 1_555
S1A C2A 1_555 1_555
S2A C6A 1_555 1_555
S3A C12A 1_555 1_555
S4A C18A 1_555 1_555
Cl1A Co1A 1_555 1_555
Cl2_2 Co1A 1_555 1_555
Cl3A Co3A 1_555 1_555
O1A Co1A 1_555 1_555
O2A Co2A 1_555 1_555
O3A Co3A 1_555 1_555
O4A Co1A 1_555 1_555
O5A Co1A 1_555 1_555
O6A Co2A 1_555 1_555
O7A C48A 1_555 1_555
O7A_2 Co3A 1_555 1_555
O8A C48A 1_555 1_555
O8A_2 Co4A 1_555 1_555
O9A Co2A 1_555 1_555
O10A Co4A 1_555 1_555
C1A O1A 1_555 1_555
C2A C1A 1_555 1_555
C3A C2A 1_555 1_555
H1A C3A 1_555 1_555
C4A C3A 1_555 1_555
C5A C4A 1_555 1_555
H2A C5A 1_555 1_555
C6A C1A 1_555 1_555
C7A O2A 1_555 1_555
C8A S2A 1_555 1_555
C9A C8A 1_555 1_555
H3A C9A 1_555 1_555
C10A C9A 1_555 1_555
C11A C10A 1_555 1_555
H4A C11A 1_555 1_555
C12A C7A 1_555 1_555
C13A O3A 1_555 1_555
C14A S3A 1_555 1_555
C15A C14A 1_555 1_555
H5A C15A 1_555 1_555
C16A C15A 1_555 1_555
C17A C16A 1_555 1_555
H6A C17A 1_555 1_555
C18A C13A 1_555 1_555
C19A O4A 1_555 1_555
C20A S4A 1_555 1_555
C21A C20A 1_555 1_555
H7A C21A 1_555 1_555
C22A C21A 1_555 1_555
C23A C22A 1_555 1_555
H8A C23A 1_555 1_555
C24A S1A 1_555 1_555
C25A C4A 1_555 1_555
C26A C10A 1_555 1_555
C27A C16A 1_555 1_555
C28A C22A 1_555 1_555
C29A C25A 1_555 1_555
H9A C29A 1_555 1_555
H10A C29A 1_555 1_555
H11A C29A 1_555 1_555
C30A C25A 1_555 1_555
H12A C30A 1_555 1_555
H13A C30A 1_555 1_555
H14A C30A 1_555 1_555
C31A C25A 1_555 1_555
H15A C31A 1_555 1_555
H16A C31A 1_555 1_555
H17A C31A 1_555 1_555
C32A C26A 1_555 1_555
H18A C32A 1_555 1_555
H19A C32A 1_555 1_555
H20A C32A 1_555 1_555
C33A C26A 1_555 1_555
H21A C33A 1_555 1_555
H22A C33A 1_555 1_555
H23A C33A 1_555 1_555
C34A C26A 1_555 1_555
H24A C34A 1_555 1_555
H25A C34A 1_555 1_555
H26A C34A 1_555 1_555
C35A C27A 1_555 1_555
H27A C35A 1_555 1_555
H28A C35A 1_555 1_555
H29A C35A 1_555 1_555
C36A C27A 1_555 1_555
H30A C36A 1_555 1_555
H31A C36A 1_555 1_555
H32A C36A 1_555 1_555
C37A C27A 1_555 1_555
H33A C37A 1_555 1_555
H34A C37A 1_555 1_555
H35A C37A 1_555 1_555
C38A C28A 1_555 1_555
H36A C38A 1_555 1_555
H37A C38A 1_555 1_555
H38A C38A 1_555 1_555
C39A C28A 1_555 1_555
H39A C39A 1_555 1_555
H40A C39A 1_555 1_555
H41A C39A 1_555 1_555
C40A C28A 1_555 1_555
H42A C40A 1_555 1_555
H43A C40A 1_555 1_555
H44A C40A 1_555 1_555
C41A C42A 1_555 1_555
C42A C43 1_555 1_555
H45A C42A 1_555 1_555
C43A C42 1_555 1_555
H46A C43A 1_555 1_555
C44A O5A 1_555 1_555
C45A C46A 1_555 1_555
C46A C47 1_555 1_555
H47A C46A 1_555 1_555
C47A C46 1_555 1_555
H48A C47A 1_555 1_555
C48A C45A 1_555 1_555
Co2 Cl1 1_555 1_555
Co2 O1 1_555 1_555
Co3 O2 1_555 1_555
Co4 Cl1 1_555 1_555
Co4 O3 1_555 1_555
Co4 O4 1_555 1_555
O6 C44 1_555 1_555
O8 C48 1_555 1_555
C5 C6 1_555 1_555
C7 C8 1_555 1_555
C11 C12 1_555 1_555
C13 C14 1_555 1_555
C17 C18 1_555 1_555
C19 C20 1_555 1_555
C19 C24 1_555 1_555
C23 C24 1_555 1_555
C41 C44 1_555 1_555
C45 C48 1_555 1_555
Co2A Cl1A 1_555 1_555
Co2A O1A 1_555 1_555
Co3A O2A 1_555 1_555
Co4A Cl1A 1_555 1_555
Co4A O3A 1_555 1_555
Co4A O4A 1_555 1_555
O6A C44A 1_555 1_555
C5A C6A 1_555 1_555
C7A C8A 1_555 1_555
C11A C12A 1_555 1_555
C13A C14A 1_555 1_555
C17A C18A 1_555 1_555
C19A C20A 1_555 1_555
C19A C24A 1_555 1_555
C23A C24A 1_555 1_555
C41A C43A 1_555 1_555
C41A C44A 1_555 1_555
C45A C47A 1_555 1_555

#END
