
#######################################################################
#
#                 Cambridge Crystallographic Data Centre
#                                CCDC 
#
#######################################################################
#
# If this CIF has been generated from an entry in the Cambridge 
# Structural Database, then it will include bibliographic, chemical, 
# crystal, experimental, refinement or atomic coordinate data resulting 
# from the CCDC's data processing and validation procedures.
#
#######################################################################

data_WEBZEK
_symmetry_cell_setting           tetragonal
_symmetry_space_group_name_H-M   'I -4 2 d'
_symmetry_Int_Tables_number      122
_space_group_name_Hall           'I -4 2bw'
loop_
_symmetry_equiv_pos_site_id
_symmetry_equiv_pos_as_xyz
1 x,y,z
2 -x,-y,z
3 y,-x,-z
4 -y,x,-z
5 1/2-x,y,3/4-z
6 1/2+x,-y,3/4-z
7 1/2-y,-x,3/4+z
8 1/2+y,x,3/4+z
9 1/2+x,1/2+y,1/2+z
10 1/2-x,1/2-y,1/2+z
11 1/2+y,1/2-x,1/2-z
12 1/2-y,1/2+x,1/2-z
13 -x,1/2+y,1/4-z
14 x,1/2-y,1/4-z
15 -y,1/2-x,1/4+z
16 y,1/2+x,1/4+z
_cell_length_a                   22.180(3)
_cell_length_b                   22.180(3)
_cell_length_c                   43.666(9)
_cell_angle_alpha                90
_cell_angle_beta                 90
_cell_angle_gamma                90
_cell_volume                     21481.6
loop_
_atom_site_label
_atom_site_type_symbol
_atom_site_fract_x
_atom_site_fract_y
_atom_site_fract_z
C9 C 0.4231(2) 0.2219(2) 0.39602(12)
H7 H 0.4540 0.2059 0.4091
H8 H 0.3846 0.2179 0.4059
H9 H 0.4310 0.2637 0.3920
C10 C 0.3839(3) 0.2249(3) 0.34551(14)
H10 H 0.3512 0.2006 0.3381
H11 H 0.4077 0.2386 0.3285
H12 H 0.3680 0.2590 0.3564
N1 N 0.4225(2) 0.1881(2) 0.36666(11)
H13 H 0.4068 0.1510 0.3693
H14 H 0.4601 0.1844 0.3591
C11 C 0.4597(5) 0.3709(6) 0.4106(3)
H15 H 0.4222 0.3504 0.4141
H16 H 0.4692 0.3956 0.4280
H17 H 0.4912 0.3417 0.4077
C12 C 0.3984(5) 0.3919(5) 0.3636(3)
H18 H 0.3923 0.4196 0.3470
H19 H 0.3637 0.3923 0.3767
H20 H 0.4041 0.3520 0.3555
N2 N 0.4544(4) 0.4107(4) 0.3819(2)
H21 H 0.4512 0.4497 0.3874
H22 H 0.4876 0.4065 0.3703
O4 O 0.7024(5) 0.2977(5) 0.1757(3)
H23 H 0.7331 0.2837 0.1664
H24 H 0.6717 0.2949 0.1642
O5 O 0.6282(4) 0.7565(5) 0.4920(2)
H25 H 0.6596 0.7348 0.4903
H26 H 0.6025 0.7385 0.5032
O6 O 0.0100(4) 0.7354(4) 0.30016(19)
H27 H 0.0203 0.7559 0.2846
H28 H -0.0246 0.7201 0.2971
O7 O 0.7345(4) 0.2343(4) 0.2420(2)
H29 H 0.7155 0.2021 0.2379
H30 H 0.7455 0.2511 0.2254
O8 O 0.5226(4) 0.9128(4) 0.3674(2)
H31 H 0.5381 0.9402 0.3563
H32 H 0.5163 0.9266 0.3853
C13 C 0.6313(3) 0.0563(3) 0.37335(12)
C14 C 0.6292(3) 0.0202(3) 0.34468(12)
C15 C 0.5781(3) 0.0149(3) 0.32648(13)
H33 H 0.5437 0.0372 0.3311
C16 C 0.5783(3) -0.0237(2) 0.30141(13)
H34 H 0.5441 -0.0273 0.2892
C17 C 0.6297(2) -0.0570(2) 0.29453(14)
C18 C 0.6808(3) -0.0516(3) 0.31273(12)
C19 C 0.6806(3) -0.0130(2) 0.33780(13)
H35 H 0.7148 -0.0095 0.3500
C20 C 0.6279(3) -0.1025(2) 0.26901(13)
C21 C 0.6023(3) -0.1585(3) 0.27381(14)
H36 H 0.5853 -0.1683 0.2926
C22 C 0.6024(3) -0.2004(3) 0.24959(13)
H37 H 0.5861 -0.2385 0.2527
C23 C 0.6262(3) -0.1860(2) 0.22134(12)
C24 C 0.6519(3) -0.1309(3) 0.21736(15)
H38 H 0.6686 -0.1214 0.1984
C25 C 0.6542(3) -0.0881(3) 0.24079(14)
C26 C 0.6308(3) -0.2313(3) 0.19642(12)
C27 C 0.7943(3) -0.0528(3) 0.31011(13)
H39 H 0.8220 -0.0549 0.2932
H40 H 0.8099 -0.0755 0.3270
H41 H 0.7893 -0.0114 0.3161
C28 C 0.7256(3) -0.0356(3) 0.20890(17)
H42 H 0.7032 -0.0394 0.1902
H43 H 0.7534 -0.0686 0.2107
H44 H 0.7475 0.0018 0.2087
C29 C 0.8687(3) 0.2280(3) 0.36430(13)
C30 C 0.8732(3) 0.2746(2) 0.38921(12)
C31 C 0.8187(2) 0.2836(2) 0.40709(11)
H45 H 0.7829 0.2632 0.4030
C32 C 0.8240(3) 0.3249(3) 0.43058(11)
C33 C 0.8698(3) 0.3610(2) 0.43595(10)
C34 C 0.9204(3) 0.3545(3) 0.41633(12)
H46 H 0.9528 0.3808 0.4182
C35 C 0.9220(3) 0.3075(2) 0.39336(14)
H47 H 0.9566 0.3007 0.3818
C36 C 0.8703(3) 0.4096(3) 0.45976(12)
C37 C 0.8271(3) 0.4547(2) 0.45976(12)
H48 H 0.7985 0.4546 0.4442
C38 C 0.8238(3) 0.5004(3) 0.48190(13)
H49 H 0.7928 0.5286 0.4819
C39 C 0.8694(3) 0.5016(2) 0.50399(14)
C40 C 0.9147(2) 0.4568(3) 0.50424(13)
H50 H 0.9446 0.4562 0.5192
C41 C 0.9127(3) 0.4145(3) 0.48179(14)
C42 C 0.8690(3) 0.5460(2) 0.52893(11)
C43 C 0.7205(2) 0.3023(3) 0.44528(13)
H51 H 0.6993 0.3159 0.4274
H52 H 0.6948 0.3057 0.4629
H53 H 0.7323 0.2610 0.4426
C44 C 1.0204(3) 0.3725(3) 0.49741(14)
H54 H 1.0494 0.3909 0.4840
H55 H 1.0339 0.3327 0.5028
H56 H 1.0163 0.3963 0.5156
Cd2 Cd 0.629445(18) 0.131555(18) 0.425087(9)
Cd3 Cd 0.7500 0.13215(2) 0.3750
O9 O 0.57899(19) 0.08377(19) 0.38055(9)
O10 O 0.67580(18) 0.06395(16) 0.38879(9)
O11 O 0.61665(17) -0.28674(17) 0.20357(8)
O12 O 0.63680(15) -0.21459(16) 0.17119(7)
O13 O 0.73676(17) -0.07734(17) 0.30094(9)
O14 O 0.68552(19) -0.03627(18) 0.23404(9)
O15 O 0.82273(18) 0.20043(17) 0.35943(9)
O16 O 0.91786(18) 0.21449(18) 0.35109(9)
O17 O 0.82770(18) 0.58781(19) 0.52906(9)
O18 O 0.90930(19) 0.55080(17) 0.54818(8)
O19 O 0.77115(18) 0.33727(19) 0.44955(10)
O20 O 0.95846(15) 0.36827(18) 0.48086(8)
C13D C 0.8687(3) 0.0563(3) 0.37665(12)
C13K C 0.4437(3) 0.1313(3) 0.12665(12)
C13O C 1.0563(3) 0.1313(3) 0.62335(12)
C14D C 0.8708(3) 0.0202(3) 0.40532(12)
C14K C 0.4798(3) 0.1292(3) 0.15532(12)
C14O C 1.0202(3) 0.1292(3) 0.59468(12)
C15D C 0.9219(3) 0.0149(3) 0.42352(13)
C15K C 0.4851(3) 0.0781(3) 0.17352(13)
C15O C 1.0149(3) 0.0781(3) 0.57648(13)
H33D H 0.9563 0.0372 0.4189
H33K H 0.4628 0.0437 0.1689
H33O H 1.0372 0.0437 0.5811
C16D C 0.9217(3) -0.0237(2) 0.44859(13)
C16K C 0.5237(2) 0.0783(3) 0.19859(13)
C16O C 0.9763(2) 0.0783(3) 0.55141(13)
H34D H 0.9559 -0.0273 0.4608
H34K H 0.5273 0.0441 0.2108
H34O H 0.9727 0.0441 0.5392
C17D C 0.8703(2) -0.0570(2) 0.45547(14)
C17K C 0.5570(2) 0.1297(2) 0.20547(14)
C17O C 0.9430(2) 0.1297(2) 0.54453(14)
C18D C 0.8192(3) -0.0516(3) 0.43727(12)
C18K C 0.5516(3) 0.1808(3) 0.18727(12)
C18O C 0.9484(3) 0.1808(3) 0.56273(12)
C19D C 0.8194(3) -0.0130(2) 0.41220(13)
C19K C 0.5130(2) 0.1806(3) 0.16220(13)
C19O C 0.9870(2) 0.1806(3) 0.58780(13)
H35D H 0.7852 -0.0095 0.4000
H35K H 0.5095 0.2148 0.1500
H35O H 0.9905 0.2148 0.6000
C20D C 0.8721(3) -0.1025(2) 0.48099(13)
C20K C 0.6025(2) 0.1279(3) 0.23099(13)
C20O C 0.8975(2) 0.1279(3) 0.51901(13)
C21D C 0.8977(3) -0.1585(3) 0.47619(14)
C21K C 0.6585(3) 0.1023(3) 0.22619(14)
C21O C 0.8415(3) 0.1023(3) 0.52381(14)
H36D H 0.9147 -0.1683 0.4574
H36K H 0.6683 0.0853 0.2074
H36O H 0.8317 0.0853 0.5426
C22D C 0.8976(3) -0.2004(3) 0.50041(13)
C22K C 0.7004(3) 0.1024(3) 0.25041(13)
C22O C 0.7996(3) 0.1024(3) 0.49959(13)
H37D H 0.9139 -0.2385 0.4973
H37K H 0.7385 0.0861 0.2473
H37O H 0.7615 0.0861 0.5027
C23D C 0.8738(3) -0.1860(2) 0.52866(12)
C23K C 0.6860(2) 0.1262(3) 0.27866(12)
C23O C 0.8140(2) 0.1262(3) 0.47134(12)
C24D C 0.8481(3) -0.1309(3) 0.53264(15)
C24K C 0.6309(3) 0.1519(3) 0.28264(15)
C24O C 0.8691(3) 0.1519(3) 0.46736(15)
H38D H 0.8314 -0.1214 0.5516
H38K H 0.6214 0.1686 0.3016
H38O H 0.8786 0.1686 0.4484
C25D C 0.8458(3) -0.0881(3) 0.50921(14)
C25K C 0.5881(3) 0.1542(3) 0.25921(14)
C25O C 0.9119(3) 0.1542(3) 0.49079(14)
C26D C 0.8692(3) -0.2313(3) 0.55358(12)
C26K C 0.7313(3) 0.1308(3) 0.30358(12)
C26O C 0.7687(3) 0.1308(3) 0.44642(12)
C27D C 0.7057(3) -0.0528(3) 0.43989(13)
C27K C 0.5528(3) 0.2943(3) 0.18989(13)
C27O C 0.9472(3) 0.2943(3) 0.56011(13)
H39D H 0.6780 -0.0549 0.4568
H39K H 0.5549 0.3220 0.2068
H39O H 0.9451 0.3220 0.5432
H40D H 0.6901 -0.0755 0.4230
H40K H 0.5755 0.3099 0.1730
H40O H 0.9245 0.3099 0.5770
H41D H 0.7107 -0.0114 0.4339
H41K H 0.5114 0.2893 0.1839
H41O H 0.9886 0.2893 0.5661
C28D C 0.7744(3) -0.0356(3) 0.54110(17)
C28K C 0.5356(3) 0.2256(3) 0.29110(17)
C28O C 0.9644(3) 0.2256(3) 0.45890(17)
H42D H 0.7968 -0.0394 0.5598
H42K H 0.5394 0.2032 0.3098
H42O H 0.9606 0.2032 0.4402
H43D H 0.7466 -0.0686 0.5393
H43K H 0.5686 0.2534 0.2893
H43O H 0.9314 0.2534 0.4607
H44D H 0.7525 0.0018 0.5413
H44K H 0.4982 0.2475 0.2913
H44O H 1.0018 0.2475 0.4587
C29D C 0.6313(3) 0.2280(3) 0.38570(13)
C29B C 0.2280(3) 0.1313(3) 0.63570(13)
C29K C 0.2720(3) 0.3687(3) 0.13570(13)
C30D C 0.6268(3) 0.2746(2) 0.36079(12)
C30B C 0.2746(2) 0.1268(3) 0.61079(12)
C30K C 0.2254(2) 0.3732(3) 0.11079(12)
C31D C 0.6813(2) 0.2836(2) 0.34291(11)
C31B C 0.2836(2) 0.1813(2) 0.59291(11)
C31K C 0.2164(2) 0.3187(2) 0.09291(11)
H45D H 0.7171 0.2632 0.3470
H45B H 0.2632 0.2171 0.5970
H45K H 0.2368 0.2829 0.0970
C32D C 0.6760(3) 0.3249(3) 0.31942(11)
C32B C 0.3249(3) 0.1760(3) 0.56942(11)
C32K C 0.1751(3) 0.3240(3) 0.06942(11)
C33D C 0.6302(3) 0.3610(2) 0.31405(10)
C33B C 0.3610(2) 0.1302(3) 0.56405(10)
C33K C 0.1390(2) 0.3698(3) 0.06405(10)
C34D C 0.5796(3) 0.3545(3) 0.33367(12)
C34B C 0.3545(3) 0.0796(3) 0.58367(12)
C34K C 0.1455(3) 0.4204(3) 0.08367(12)
H46D H 0.5472 0.3808 0.3318
H46B H 0.3808 0.0472 0.5818
H46K H 0.1192 0.4528 0.0818
C35D C 0.5780(3) 0.3075(2) 0.35664(14)
C35B C 0.3075(2) 0.0780(3) 0.60664(14)
C35K C 0.1925(2) 0.4220(3) 0.10664(14)
H47D H 0.5434 0.3007 0.3682
H47B H 0.3007 0.0434 0.6182
H47K H 0.1993 0.4566 0.1182
C36D C 0.6297(3) 0.4096(3) 0.29024(12)
C36B C 0.4096(3) 0.1297(3) 0.54024(12)
C36K C 0.0904(3) 0.3703(3) 0.04024(12)
C37D C 0.6729(3) 0.4547(2) 0.29024(12)
C37B C 0.4547(2) 0.1729(3) 0.54024(12)
C37K C 0.0453(2) 0.3271(3) 0.04024(12)
H48D H 0.7015 0.4546 0.3058
H48B H 0.4546 0.2015 0.5558
H48K H 0.0454 0.2985 0.0558
C38D C 0.6762(3) 0.5004(3) 0.26810(13)
C38B C 0.5004(3) 0.1762(3) 0.51810(13)
C38K C -0.0004(3) 0.3238(3) 0.01810(13)
H49D H 0.7072 0.5286 0.2681
H49B H 0.5286 0.2072 0.5181
H49K H -0.0286 0.2928 0.0181
C39D C 0.6306(3) 0.5016(2) 0.24601(14)
C39B C 0.5016(2) 0.1306(3) 0.49601(14)
C39K C -0.0016(2) 0.3694(3) -0.00399(14)
C40D C 0.5853(2) 0.4568(3) 0.24576(13)
C40B C 0.4568(3) 0.0853(2) 0.49576(13)
C40K C 0.0432(3) 0.4147(2) -0.00424(13)
H50D H 0.5554 0.4562 0.2308
H50B H 0.4562 0.0554 0.4808
H50K H 0.0438 0.4446 -0.0192
C41D C 0.5873(3) 0.4145(3) 0.26821(14)
C41B C 0.4145(3) 0.0873(3) 0.51821(14)
C41K C 0.0855(3) 0.4127(3) 0.01821(14)
C42D C 0.6310(3) 0.5460(2) 0.22107(11)
C42B C 0.5460(2) 0.1310(3) 0.47107(11)
C42K C -0.0460(2) 0.3690(3) -0.02893(11)
C43D C 0.7795(2) 0.3023(3) 0.30472(13)
C43B C 0.3023(3) 0.2795(2) 0.55472(13)
C43K C 0.1977(3) 0.2205(2) 0.05472(13)
H51D H 0.8007 0.3159 0.3226
H51B H 0.3159 0.3007 0.5726
H51K H 0.1841 0.1993 0.0726
H52D H 0.8052 0.3057 0.2871
H52B H 0.3057 0.3052 0.5371
H52K H 0.1943 0.1948 0.0371
H53D H 0.7677 0.2610 0.3074
H53B H 0.2610 0.2677 0.5574
H53K H 0.2390 0.2323 0.0574
C44D C 0.4796(3) 0.3725(3) 0.25259(14)
C44B C 0.3725(3) -0.0204(3) 0.50259(14)
C44K C 0.1275(3) 0.5204(3) 0.00259(14)
H54D H 0.4506 0.3909 0.2660
H54B H 0.3909 -0.0494 0.5160
H54K H 0.1091 0.5494 0.0160
H55D H 0.4661 0.3327 0.2472
H55B H 0.3327 -0.0339 0.4972
H55K H 0.1673 0.5339 -0.0028
H56D H 0.4837 0.3963 0.2344
H56B H 0.3963 -0.0163 0.4844
H56K H 0.1037 0.5163 -0.0156
Cd2D Cd 0.870555(18) 0.131555(18) 0.324913(9)
Cd2K Cd 0.368445(18) 0.129445(18) 0.074913(9)
Cd2O Cd 1.131555(18) 0.129445(18) 0.675087(9)
Cd2G Cd 0.631555(18) -0.370555(18) 0.175087(9)
Cd2C Cd 0.868445(18) 0.629445(18) 0.574913(9)
Cd2C_2 Cd 0.868445(18) -0.370555(18) 0.574913(9)
Cd2G_2 Cd 0.631555(18) 0.629445(18) 0.175087(9)
Cd2O_2 Cd 0.131555(18) 0.129445(18) 0.675087(9)
Cd2F Cd 0.368445(18) 0.370555(18) 0.175087(9)
Cd2I Cd -0.129445(18) 0.368445(18) -0.074913(9)
Cd3F Cd 0.36785(2) 0.2500 0.1250
Cd3G Cd 0.63215(2) -0.2500 0.1250
Cd3C Cd 0.86785(2) -0.2500 0.6250
Cd3B Cd 1.13215(2) 0.2500 0.6250
Cd3B_2 Cd 0.13215(2) 0.2500 0.6250
O9D O 0.92101(19) 0.08377(19) 0.36945(9)
O9K O 0.41623(19) 0.07899(19) 0.11945(9)
O9O O 1.08377(19) 0.07899(19) 0.63055(9)
O10D O 0.82420(18) 0.06395(16) 0.36121(9)
O10K O 0.43605(16) 0.17580(18) 0.11121(9)
O10O O 1.06395(16) 0.17580(18) 0.63879(9)
O10F O 0.43605(16) 0.32420(18) 0.13879(9)
O11D O 0.88335(17) -0.28674(17) 0.54643(8)
O11K O 0.78674(17) 0.11665(17) 0.29643(8)
O11O O 0.71326(17) 0.11665(17) 0.45357(8)
O11L O 0.38335(17) 0.21326(17) 0.04643(8)
O11H O 1.11665(17) 0.21326(17) 0.70357(8)
O12D O 0.86320(15) -0.21459(16) 0.57881(7)
O12K O 0.71459(16) 0.13680(15) 0.32881(7)
O12O O 0.78541(16) 0.13680(15) 0.42119(7)
O12A O 0.36320(15) 0.21459(16) 0.17119(7)
O12L O 0.36320(15) 0.28541(16) 0.07881(7)
O13D O 0.76324(17) -0.07734(17) 0.44906(9)
O13K O 0.57734(17) 0.23676(17) 0.19906(9)
O13O O 0.92266(17) 0.23676(17) 0.55094(9)
O14D O 0.81448(19) -0.03627(18) 0.51596(9)
O14K O 0.53627(18) 0.18552(19) 0.26596(9)
O14O O 0.96373(18) 0.18552(19) 0.48404(9)
O15D O 0.67727(18) 0.20043(17) 0.39057(9)
O15B O 0.20043(17) 0.17727(18) 0.64057(9)
O15K O 0.29957(17) 0.32273(18) 0.14057(9)
O15F O 0.29957(17) 0.17727(18) 0.10943(9)
O15B_2 O 1.20043(17) 0.17727(18) 0.64057(9)
O16D O 0.58214(18) 0.21449(18) 0.39891(9)
O16B O 0.21449(18) 0.08214(18) 0.64891(9)
O16K O 0.28551(18) 0.41786(18) 0.14891(9)
O16F O 0.28551(18) 0.08214(18) 0.10109(9)
O16B_2 O 1.21449(18) 0.08214(18) 0.64891(9)
O17D O 0.67230(18) 0.58781(19) 0.22094(9)
O17B O 0.58781(19) 0.17230(18) 0.47094(9)
O17K O -0.08781(19) 0.32770(18) -0.02906(9)
O17F O 0.91219(19) 0.17230(18) 0.27906(9)
O17H O 0.32770(18) 0.08781(19) 0.02906(9)
O17L O 1.17230(18) 0.08781(19) 0.72094(9)
O18D O 0.59070(19) 0.55080(17) 0.20182(8)
O18B O 0.55080(17) 0.09070(19) 0.45182(8)
O18K O -0.05080(17) 0.40930(19) -0.04818(8)
O18F O 0.94920(17) 0.09070(19) 0.29818(8)
O18H O 0.40930(19) 0.05080(17) 0.04818(8)
O18L O 1.09070(19) 0.05080(17) 0.70182(8)
O19D O 0.72885(18) 0.33727(19) 0.30045(10)
O19B O 0.33727(19) 0.22885(18) 0.55045(10)
O19K O 0.16273(19) 0.27115(18) 0.05045(10)
O20D O 0.54154(15) 0.36827(18) 0.26914(8)
O20B O 0.36827(18) 0.04154(15) 0.51914(8)
O20K O 0.13173(18) 0.45846(15) 0.01914(8)
C1 C 0.5891(3) 0.4854(3) 0.45645(14)
C2 C 0.6395(3) 0.4851(3) 0.43282(14)
C3 C 0.6439(3) 0.4381(3) 0.41193(13)
H1 H 0.6161 0.4061 0.4133
C4 C 0.6882(3) 0.4393(3) 0.38932(14)
H2 H 0.6911 0.4078 0.3753
C5 C 0.7279(3) 0.4875(2) 0.38771(13)
C6 C 0.7235(3) 0.5348(3) 0.40853(12)
C7 C 0.6792(3) 0.5335(2) 0.43112(13)
H3 H 0.6761 0.5650 0.4451
C8 C 0.7575(3) 0.6354(2) 0.42019(12)
H4 H 0.7284 0.6575 0.4085
H5 H 0.7951 0.6568 0.4203
H6 H 0.7433 0.6308 0.4408
Cd1 Cd 0.5000 0.5000 0.5000
O1 O 0.5480(2) 0.44701(19) 0.45495(10)
O2 O 0.58901(17) 0.52452(18) 0.47554(8)
O3 O 0.76554(18) 0.57797(18) 0.40697(9)
C1D C 0.9109(3) 0.4854(3) 0.29355(14)
C1A C 0.4109(3) 0.5146(3) 0.45645(14)
C1E C 0.0891(3) 0.5146(3) 0.29355(14)
C2D C 0.8605(3) 0.4851(3) 0.31718(14)
C2A C 0.3605(3) 0.5149(3) 0.43282(14)
C2E C 0.1395(3) 0.5149(3) 0.31718(14)
C3D C 0.8561(3) 0.4381(3) 0.33807(13)
C3A C 0.3561(3) 0.5619(3) 0.41193(13)
C3E C 0.1439(3) 0.5619(3) 0.33807(13)
H1D H 0.8839 0.4061 0.3367
H1A H 0.3839 0.5939 0.4133
H1E H 0.1161 0.5939 0.3367
C4D C 0.8118(3) 0.4393(3) 0.36068(14)
C4A C 0.3118(3) 0.5607(3) 0.38932(14)
C4E C 0.1882(3) 0.5607(3) 0.36068(14)
H2D H 0.8089 0.4078 0.3747
H2A H 0.3089 0.5922 0.3753
H2E H 0.1911 0.5922 0.3747
C5D C 0.7721(3) 0.4875(2) 0.36229(13)
C5A C 0.2721(3) 0.5125(2) 0.38771(13)
C5E C 0.2279(3) 0.5125(2) 0.36229(13)
C6D C 0.7765(3) 0.5348(3) 0.34147(12)
C6A C 0.2765(3) 0.4652(3) 0.40853(12)
C6E C 0.2235(3) 0.4652(3) 0.34147(12)
C7D C 0.8208(3) 0.5335(2) 0.31888(13)
C7A C 0.3208(3) 0.4665(2) 0.43112(13)
C7E C 0.1792(3) 0.4665(2) 0.31888(13)
H3D H 0.8239 0.5650 0.3049
H3A H 0.3239 0.4350 0.4451
H3E H 0.1761 0.4350 0.3049
C8D C 0.7425(3) 0.6354(2) 0.32981(12)
C8A C 0.2425(3) 0.3646(2) 0.42019(12)
C8E C 0.2575(3) 0.3646(2) 0.32981(12)
H4D H 0.7716 0.6575 0.3415
H4A H 0.2716 0.3425 0.4085
H4E H 0.2284 0.3425 0.3415
H5D H 0.7049 0.6568 0.3297
H5A H 0.2049 0.3432 0.4203
H5E H 0.2951 0.3432 0.3297
H6D H 0.7567 0.6308 0.3092
H6A H 0.2567 0.3692 0.4408
H6E H 0.2433 0.3692 0.3092
Cd1D Cd 1.0000 0.5000 0.2500
Cd1D_2 Cd 0.0000 0.5000 0.2500
O1D O 0.9520(2) 0.44701(19) 0.29505(10)
O1A O 0.4520(2) 0.55299(19) 0.45495(10)
O1E O 0.0480(2) 0.55299(19) 0.29505(10)
O1B O 0.44701(19) 0.4520(2) 0.54505(10)
O1C O 0.55299(19) 0.5480(2) 0.54505(10)
O2D O 0.91099(17) 0.52452(18) 0.27446(8)
O2A O 0.41099(17) 0.47548(18) 0.47554(8)
O2E O 0.08901(17) 0.47548(18) 0.27446(8)
O2B O 0.52452(18) 0.41099(17) 0.52446(8)
O2C O 0.47548(18) 0.58901(17) 0.52446(8)
O3D O 0.73446(18) 0.57797(18) 0.34303(9)
O3A O 0.23446(18) 0.42203(18) 0.40697(9)
O3E O 0.26554(18) 0.42203(18) 0.34303(9)
O21? O 0.5226(5) 0.0235(4) 0.4189(2)
H57? H 0.4888 0.0302 0.4104
H58? H 0.5250 -0.0136 0.4237
O22? O 0.4851(3) 0.4992(7) 0.35208(19)
H59? H 0.4957 0.4869 0.3344
H60? H 0.4541 0.5213 0.3497
loop_
_geom_bond_atom_site_label_1
_geom_bond_atom_site_label_2
_geom_bond_site_symmetry_1
_geom_bond_site_symmetry_2
C1 C2 1_555 1_555
C2 C3 1_555 1_555
C3 H1 1_555 1_555
C4 C3 1_555 1_555
H2 C4 1_555 1_555
C5 C4 1_555 1_555
C6 C5 1_555 1_555
C7 C2 1_555 1_555
H3 C7 1_555 1_555
C8 H4 1_555 1_555
H5 C8 1_555 1_555
H6 C8 1_555 1_555
Cd1 O1 1_555 1_555
O1 C1 1_555 1_555
O2 C1 1_555 1_555
O3 C6 1_555 1_555
C9 H7 1_555 1_555
H8 C9 1_555 1_555
H9 C9 1_555 1_555
C10 H10 1_555 1_555
H11 C10 1_555 1_555
H12 C10 1_555 1_555
N1 C9 1_555 1_555
H13 N1 1_555 1_555
H14 N1 1_555 1_555
C11 H15 1_555 1_555
H16 C11 1_555 1_555
H17 C11 1_555 1_555
C12 H18 1_555 1_555
H19 C12 1_555 1_555
H20 C12 1_555 1_555
N2 C11 1_555 1_555
H21 N2 1_555 1_555
H22 N2 1_555 1_555
O4 H23 1_555 1_555
H24 O4 1_555 1_555
O5 H25 1_555 1_555
H26 O5 1_555 1_555
O6 H27 1_555 1_555
H28 O6 1_555 1_555
O7 H29 1_555 1_555
H30 O7 1_555 1_555
O8 H31 1_555 1_555
H32 O8 1_555 1_555
C13 C14 1_555 1_555
C14 C15 1_555 1_555
C15 H33 1_555 1_555
C16 C15 1_555 1_555
H34 C16 1_555 1_555
C17 C16 1_555 1_555
C18 C17 1_555 1_555
C19 C14 1_555 1_555
H35 C19 1_555 1_555
C20 C17 1_555 1_555
C21 C20 1_555 1_555
H36 C21 1_555 1_555
C22 C21 1_555 1_555
H37 C22 1_555 1_555
C23 C22 1_555 1_555
C24 C23 1_555 1_555
H38 C24 1_555 1_555
C25 C20 1_555 1_555
C26 C23 1_555 1_555
C27 H39 1_555 1_555
H40 C27 1_555 1_555
H41 C27 1_555 1_555
C28 H42 1_555 1_555
H43 C28 1_555 1_555
H44 C28 1_555 1_555
C29 C30 1_555 1_555
C30 C31 1_555 1_555
C31 H45 1_555 1_555
C32 C31 1_555 1_555
C33 C32 1_555 1_555
C34 C33 1_555 1_555
H46 C34 1_555 1_555
C35 C30 1_555 1_555
H47 C35 1_555 1_555
C36 C33 1_555 1_555
C37 C36 1_555 1_555
H48 C37 1_555 1_555
C38 C37 1_555 1_555
H49 C38 1_555 1_555
C39 C38 1_555 1_555
C40 C39 1_555 1_555
H50 C40 1_555 1_555
C41 C36 1_555 1_555
C42 C39 1_555 1_555
C43 H51 1_555 1_555
H52 C43 1_555 1_555
H53 C43 1_555 1_555
C44 H54 1_555 1_555
H55 C44 1_555 1_555
H56 C44 1_555 1_555
Cd2 O9 1_555 1_555
Cd3 O10 1_555 1_555
O9 C13 1_555 1_555
O10 C13 1_555 1_555
O11 C26 1_555 1_555
O12 C26 1_555 1_555
O13 C18 1_555 1_555
O14 C25 1_555 1_555
O15 C29 1_555 1_555
O16 C29 1_555 1_555
O17 C42 1_555 1_555
O18 C42 1_555 1_555
O19 C32 1_555 1_555
O20 C41 1_555 1_555
C1D C2D 1_555 1_555
C1A C2A 1_555 1_555
C1E C2E 1_555 1_555
C2D C3D 1_555 1_555
C2A C3A 1_555 1_555
C2E C3E 1_555 1_555
C3D H1D 1_555 1_555
C3A H1A 1_555 1_555
C3E H1E 1_555 1_555
C4D C3D 1_555 1_555
C4A C3A 1_555 1_555
C4E C3E 1_555 1_555
H2D C4D 1_555 1_555
H2A C4A 1_555 1_555
H2E C4E 1_555 1_555
C5D C5 1_555 1_555
C5A C4A 1_555 1_555
C5E C4E 1_555 1_555
C6D C5D 1_555 1_555
C6A C5A 1_555 1_555
C6E C5E 1_555 1_555
C7D C2D 1_555 1_555
C7A C2A 1_555 1_555
C7E C2E 1_555 1_555
H3D C7D 1_555 1_555
H3A C7A 1_555 1_555
H3E C7E 1_555 1_555
C8D H4D 1_555 1_555
C8A H4A 1_555 1_555
C8E H4E 1_555 1_555
H5D C8D 1_555 1_555
H5A C8A 1_555 1_555
H5E C8E 1_555 1_555
H6D C8D 1_555 1_555
H6A C8A 1_555 1_555
H6E C8E 1_555 1_555
Cd1D O1D 1_555 1_555
Cd1D_2 O1E 1_555 1_555
O1D C1D 1_555 1_555
O1A Cd1 1_555 1_555
O1E C1E 1_555 1_555
O1B Cd1 1_555 1_555
O1C Cd1 1_555 1_555
O2D C1D 1_555 1_555
O2A Cd1 1_555 1_555
O2E C1E 1_555 1_555
O2B Cd1 1_555 1_555
O2C Cd1 1_555 1_555
O3D C6D 1_555 1_555
O3A C6A 1_555 1_555
O3E C6E 1_555 1_555
C13D C14D 1_555 1_555
C13K C14K 1_555 1_555
C13O C14O 1_555 1_555
C14D C15D 1_555 1_555
C14K C15K 1_555 1_555
C14O C15O 1_555 1_555
C15D H33D 1_555 1_555
C15K H33K 1_555 1_555
C15O H33O 1_555 1_555
C16D C15D 1_555 1_555
C16K C15K 1_555 1_555
C16O C15O 1_555 1_555
H34D C16D 1_555 1_555
H34K C16K 1_555 1_555
H34O C16O 1_555 1_555
C17D C16D 1_555 1_555
C17K C16K 1_555 1_555
C17O C16O 1_555 1_555
C18D C17D 1_555 1_555
C18K C17K 1_555 1_555
C18O C17O 1_555 1_555
C19D C14D 1_555 1_555
C19K C14K 1_555 1_555
C19O C14O 1_555 1_555
H35D C19D 1_555 1_555
H35K C19K 1_555 1_555
H35O C19O 1_555 1_555
C20D C17D 1_555 1_555
C20K C17K 1_555 1_555
C20O C17O 1_555 1_555
C21D C20D 1_555 1_555
C21K C20K 1_555 1_555
C21O C20O 1_555 1_555
H36D C21D 1_555 1_555
H36K C21K 1_555 1_555
H36O C21O 1_555 1_555
C22D C21D 1_555 1_555
C22K C21K 1_555 1_555
C22O C21O 1_555 1_555
H37D C22D 1_555 1_555
H37K C22K 1_555 1_555
H37O C22O 1_555 1_555
C23D C22D 1_555 1_555
C23K C22K 1_555 1_555
C23O C22O 1_555 1_555
C24D C23D 1_555 1_555
C24K C23K 1_555 1_555
C24O C23O 1_555 1_555
H38D C24D 1_555 1_555
H38K C24K 1_555 1_555
H38O C24O 1_555 1_555
C25D C20D 1_555 1_555
C25K C20K 1_555 1_555
C25O C20O 1_555 1_555
C26D C23D 1_555 1_555
C26K C23K 1_555 1_555
C26O C23O 1_555 1_555
C27D H39D 1_555 1_555
C27K H39K 1_555 1_555
C27O H39O 1_555 1_555
H40D C27D 1_555 1_555
H40K C27K 1_555 1_555
H40O C27O 1_555 1_555
H41D C27D 1_555 1_555
H41K C27K 1_555 1_555
H41O C27O 1_555 1_555
C28D H42D 1_555 1_555
C28K H42K 1_555 1_555
C28O H42O 1_555 1_555
H43D C28D 1_555 1_555
H43K C28K 1_555 1_555
H43O C28O 1_555 1_555
H44D C28D 1_555 1_555
H44K C28K 1_555 1_555
H44O C28O 1_555 1_555
C29D C30D 1_555 1_555
C29B C30B 1_555 1_555
C29K C30K 1_555 1_555
C30D C31D 1_555 1_555
C30B C31B 1_555 1_555
C30K C31K 1_555 1_555
C31D H45D 1_555 1_555
C31B H45B 1_555 1_555
C31K H45K 1_555 1_555
C32D C31D 1_555 1_555
C32B C31B 1_555 1_555
C32K C31K 1_555 1_555
C33D C32D 1_555 1_555
C33B C32B 1_555 1_555
C33K C32K 1_555 1_555
C34D C33D 1_555 1_555
C34B C33B 1_555 1_555
C34K C33K 1_555 1_555
H46D C34D 1_555 1_555
H46B C34B 1_555 1_555
H46K C34K 1_555 1_555
C35D C30D 1_555 1_555
C35B C30B 1_555 1_555
C35K C30K 1_555 1_555
H47D C35D 1_555 1_555
H47B C35B 1_555 1_555
H47K C35K 1_555 1_555
C36D C33D 1_555 1_555
C36B C33B 1_555 1_555
C36K C33K 1_555 1_555
C37D C36D 1_555 1_555
C37B C36B 1_555 1_555
C37K C36K 1_555 1_555
H48D C37D 1_555 1_555
H48B C37B 1_555 1_555
H48K C37K 1_555 1_555
C38D C37D 1_555 1_555
C38B C37B 1_555 1_555
C38K C37K 1_555 1_555
H49D C38D 1_555 1_555
H49B C38B 1_555 1_555
H49K C38K 1_555 1_555
C39D C38D 1_555 1_555
C39B C38B 1_555 1_555
C39K C38K 1_555 1_555
C40D C39D 1_555 1_555
C40B C39B 1_555 1_555
C40K C39K 1_555 1_555
H50D C40D 1_555 1_555
H50B C40B 1_555 1_555
H50K C40K 1_555 1_555
C41D C36D 1_555 1_555
C41B C36B 1_555 1_555
C41K C36K 1_555 1_555
C42D C39D 1_555 1_555
C42B C39B 1_555 1_555
C42K C39K 1_555 1_555
C43D H51D 1_555 1_555
C43B H51B 1_555 1_555
C43K H51K 1_555 1_555
H52D C43D 1_555 1_555
H52B C43B 1_555 1_555
H52K C43K 1_555 1_555
H53D C43D 1_555 1_555
H53B C43B 1_555 1_555
H53K C43K 1_555 1_555
C44D H54D 1_555 1_555
C44B H54B 1_555 1_555
C44K H54K 1_555 1_555
H55D C44D 1_555 1_555
H55B C44B 1_555 1_555
H55K C44K 1_555 1_555
H56D C44D 1_555 1_555
H56B C44B 1_555 1_555
H56K C44K 1_555 1_555
Cd2D O15 1_555 1_555
Cd2K O9K 1_555 1_555
Cd2O O9O 1_555 1_555
Cd2G O11 1_555 1_555
Cd2C O17 1_555 1_555
Cd2C_2 O11D 1_555 1_555
Cd2G_2 O17D 1_555 1_555
Cd2O_2 O15B 1_555 1_555
Cd2F O10F 1_555 1_555
Cd2I O17K 1_555 1_555
Cd3F O10K 1_555 1_555
Cd3G O12 1_555 1_555
Cd3C O12D 1_555 1_555
Cd3B O10O 1_555 1_555
Cd3B_2 O15B 1_555 1_555
O9D C13D 1_555 1_555
O9K C13K 1_555 1_555
O9O C13O 1_555 1_555
O10D Cd3 1_555 1_555
O10K C13K 1_555 1_555
O10O C13O 1_555 1_555
O10F Cd3F 1_555 1_555
O11D C26D 1_555 1_555
O11K C26K 1_555 1_555
O11O Cd2 1_555 1_555
O11L Cd2K 1_555 1_555
O11H Cd2O 1_555 1_555
O12D C26D 1_555 1_555
O12K Cd3 1_555 1_555
O12O Cd3 1_555 1_555
O12A Cd3F 1_555 1_555
O12L Cd3F 1_555 1_555
O13D C18D 1_555 1_555
O13K C18K 1_555 1_555
O13O C18O 1_555 1_555
O14D C25D 1_555 1_555
O14K C25K 1_555 1_555
O14O C25O 1_555 1_555
O15D Cd2 1_555 1_555
O15B C29B 1_555 1_555
O15K C29K 1_555 1_555
O15F Cd2K 1_555 1_555
O15B_2 Cd2O 1_555 1_555
O16D Cd2 1_555 1_555
O16B C29B 1_555 1_555
O16K C29K 1_555 1_555
O16F Cd2K 1_555 1_555
O16B_2 Cd2O 1_555 1_555
O17D C42D 1_555 1_555
O17B Cd2 1_555 1_555
O17K C42K 1_555 1_555
O17F Cd2D 1_555 1_555
O17H Cd2K 1_555 1_555
O17L Cd2O 1_555 1_555
O18D C42D 1_555 1_555
O18B Cd2 1_555 1_555
O18K C42K 1_555 1_555
O18F Cd2D 1_555 1_555
O18H Cd2K 1_555 1_555
O18L Cd2O 1_555 1_555
O19D C32D 1_555 1_555
O19B C32B 1_555 1_555
O19K C32K 1_555 1_555
O20D C41D 1_555 1_555
O20B C41B 1_555 1_555
O20K C41K 1_555 1_555
C6 C7 1_555 1_555
C8 O3 1_555 1_555
Cd1 O2 1_555 1_555
C10 N1 1_555 1_555
C12 N2 1_555 1_555
C18 C19 1_555 1_555
C24 C25 1_555 1_555
C27 O13 1_555 1_555
C28 O14 1_555 1_555
C34 C35 1_555 1_555
C40 C41 1_555 1_555
C43 O19 1_555 1_555
C44 O20 1_555 1_555
Cd2 O10 1_555 1_555
Cd3 O15 1_555 1_555
Cd3 O15D 1_555 1_555
O16 Cd2D 1_555 1_555
O18 Cd2C 1_555 1_555
C1A O1A 1_555 1_555
C1A O2A 1_555 1_555
C4D C5D 1_555 1_555
C5A C5E 1_555 1_555
C6D C7D 1_555 1_555
C6A C7A 1_555 1_555
C6E C7E 1_555 1_555
C8D O3D 1_555 1_555
C8A O3A 1_555 1_555
C8E O3E 1_555 1_555
Cd1D O2D 1_555 1_555
Cd1D_2 O2E 1_555 1_555
C13D O10D 1_555 1_555
C18D C19D 1_555 1_555
C18K C19K 1_555 1_555
C18O C19O 1_555 1_555
C24D C25D 1_555 1_555
C24K C25K 1_555 1_555
C24O C25O 1_555 1_555
C26K O12K 1_555 1_555
C26O O11O 1_555 1_555
C26O O12O 1_555 1_555
C27D O13D 1_555 1_555
C27K O13K 1_555 1_555
C27O O13O 1_555 1_555
C28D O14D 1_555 1_555
C28K O14K 1_555 1_555
C28O O14O 1_555 1_555
C29D O15D 1_555 1_555
C29D O16D 1_555 1_555
C34D C35D 1_555 1_555
C34B C35B 1_555 1_555
C34K C35K 1_555 1_555
C40D C41D 1_555 1_555
C40B C41B 1_555 1_555
C40K C41K 1_555 1_555
C42B O17B 1_555 1_555
C42B O18B 1_555 1_555
C43D O19D 1_555 1_555
C43B O19B 1_555 1_555
C43K O19K 1_555 1_555
C44D O20D 1_555 1_555
C44B O20B 1_555 1_555
C44K O20K 1_555 1_555
Cd2D O9D 1_555 1_555
Cd2D O10D 1_555 1_555
Cd2D O11K 1_555 1_555
Cd2K O10K 1_555 1_555
Cd2O O10O 1_555 1_555
Cd2G_2 O18D 1_555 1_555
Cd2O_2 O16B 1_555 1_555
Cd2F O15K 1_555 1_555
Cd2F O16K 1_555 1_555
Cd2I O18K 1_555 1_555
Cd3F O15K 1_555 1_555
Cd3F O15F 1_555 1_555
Cd3B O15B_2 1_555 1_555

#END
