
#######################################################################
#
#                 Cambridge Crystallographic Data Centre
#                                CCDC 
#
#######################################################################
#
# If this CIF has been generated from an entry in the Cambridge 
# Structural Database, then it will include bibliographic, chemical, 
# crystal, experimental, refinement or atomic coordinate data resulting 
# from the CCDC's data processing and validation procedures.
#
#######################################################################

data_WECBAJ
_symmetry_cell_setting           triclinic
_symmetry_space_group_name_H-M   'P -1'
_symmetry_Int_Tables_number      2
_space_group_name_Hall           '-P 1'
loop_
_symmetry_equiv_pos_site_id
_symmetry_equiv_pos_as_xyz
1 x,y,z
2 -x,-y,-z
_cell_length_a                   10.0239(3)
_cell_length_b                   10.0797(3)
_cell_length_c                   23.5726(7)
_cell_angle_alpha                77.713(2)
_cell_angle_beta                 79.766(2)
_cell_angle_gamma                88.768(2)
_cell_volume                     2289.82
loop_
_atom_site_label
_atom_site_type_symbol
_atom_site_fract_x
_atom_site_fract_y
_atom_site_fract_z
C1 C 0.648(15) 0.538(16) 0.371(6)
H1 H 0.7334 0.5342 0.3485
C2 C 0.635(16) 0.509(16) 0.432(7)
H2 H 0.7104 0.4841 0.4492
C3 C 0.420(15) 0.577(15) 0.376(6)
H3 H 0.3454 0.5999 0.3579
C4 C 0.416(15) 0.258(15) 0.318(6)
H4 H 0.3510 0.2757 0.2941
C5 C 0.375(15) 0.243(15) 0.378(6)
H5 H 0.2837 0.2511 0.3934
C6 C 0.470(15) 0.216(14) 0.415(6)
C7 C 0.427(16) 0.193(14) 0.480(6)
C8 C 0.943(15) -0.144(16) 0.131(6)
H6 H 0.9316 -0.2303 0.1557
C9 C 0.970(15) -0.135(15) 0.071(6)
H7 H 0.9761 -0.2131 0.0562
C10 C 0.987(14) -0.008(14) 0.033(6)
C11 C 0.274(15) 0.093(15) 0.172(6)
H8 H 0.2661 0.1640 0.1924
C12 C 0.275(15) -0.135(15) 0.174(6)
H9 H 0.2639 -0.2240 0.1956
C13 C 0.521(17) 0.150(16) 0.517(7)
H10 H 0.6112 0.1389 0.5016
C14 C 0.295(17) 0.210(17) 0.506(7)
H11 H 0.2305 0.2403 0.4829
C15 C 0.952(15) 0.087(15) 0.120(6)
H12 H 0.9458 0.1644 0.1358
C16 C 0.979(16) 0.103(16) 0.059(7)
H13 H 0.9918 0.1900 0.0354
C17 C 0.304(13) 0.020(15) 0.081(6)
C18 C 0.400(16) 0.551(16) 0.438(6)
H14 H 0.3139 0.5567 0.4590
C19 C 0.605(16) 0.207(16) 0.389(6)
H15 H 0.6719 0.1890 0.4120
C20 C 0.329(14) 0.051(16) 0.016(6)
C21 C 0.636(15) 0.224(16) 0.329(6)
H16 H 0.7267 0.2169 0.3121
C22 C 0.293(16) 0.124(16) 0.112(6)
H17 H 0.2982 0.2141 0.0919
C23 C 0.48(2) 0.124(17) 0.577(7)
H18 H 0.5415 0.0956 0.6024
C24 C 0.259(19) 0.184(17) 0.567(7)
H19 H 0.1697 0.1954 0.5838
C25 C 0.380(17) 0.207(19) -0.078(7)
H20 H 0.3987 0.2952 -0.0990
C26 C 0.356(17) 0.182(17) -0.017(7)
H21 H 0.3570 0.2531 0.0021
C27 C 0.356(16) -0.021(19) -0.077(7)
H22 H 0.3566 -0.0903 -0.0973
C28 C 0.331(16) -0.052(18) -0.015(7)
H23 H 0.3153 -0.1414 0.0049
C29 C 0.509(15) 0.516(14) 0.467(6)
C30 C 0.299(13) -0.111(12) 0.113(3)
H24 H 0.3120 -0.1834 0.0935
H25 H 0.3931 0.1348 -0.1458
H26 H 0.3310 0.1215 0.6389
H28 H -0.0472 0.0311 0.4008
H29 H 0.0167 -0.3768 0.4033
H30 H 0.8460 0.5477 0.0999
H31 H 0.2887 0.5340 0.1002
N1 N 0.378(13) 0.106(15) -0.106(5)
N2 N 0.933(11) -0.036(12) 0.157(5)
N3 N 0.543(12) 0.572(12) 0.343(5)
N4 N 0.547(12) 0.249(11) 0.293(5)
N5 N 0.266(11) -0.035(12) 0.204(5)
N6 N 0.350(16) 0.141(14) 0.600(5)
O1 O 0.784(10) 0.324(10) 0.183(5)
O2 O 0.977(10) 0.475(11) 0.184(4)
O3 O 0.794(11) 0.570(11) 0.129(4)
O4 O 0.744(10) 0.518(11) 0.237(4)
O5 O 0.492(10) 0.366(10) 0.158(4)
O6 O 0.443(11) 0.559(11) 0.212(5)
O7 O 0.359(12) 0.567(11) 0.120(5)
O8 O 0.260(10) 0.394(10) 0.209(5)
O9 O 0.703(9) -0.067(10) 0.283(4)
O10 O 0.586(10) -0.189(9) 0.221(4)
O11 O 0.587(10) 0.061(9) 0.202(4)
O12 O 0.453(9) -0.074(10) 0.298(4)
O13 O 0.167(12) -0.237(11) 0.330(5)
O14 O 0.111(15) -0.419(13) 0.284(6)
O15 O -0.039(15) -0.221(14) 0.284(9)
O16 O -0.032(13) -0.386(15) 0.377(6)
O17 O 0.164(10) 0.071(10) 0.325(4)
O18 O -0.012(10) 0.098(10) 0.259(4)
O19 O 0.025(11) 0.282(10) 0.312(4)
O20 O -0.084(10) 0.062(11) 0.368(4)
P2 P 0.825(4) 0.467(4) 0.1851(15)
P3 P 0.053(4) -0.313(4) 0.3156(16)
P4 P 0.026(4) 0.130(4) 0.3138(15)
P5 P 0.580(3) -0.066(3) 0.2513(14)
P6 P 0.389(4) 0.469(4) 0.1772(16)
Zn1 Zn 0.6033(16) 0.2489(16) 0.2062(7)
Zn2 Zn 0.2621(16) -0.0710(16) 0.2914(7)
Zn3 Zn 0.5782(16) 0.6133(15) 0.2511(7)
Zn4 Zn 0.8949(16) -0.0551(17) 0.2463(7)
Zn5 Zn 1.0815(16) 0.4366(16) 0.2469(7)
C1A C 0.352(15) 0.462(16) 0.629(6)
H1A H 0.2666 0.4658 0.6515
C2A C 0.365(16) 0.491(16) 0.568(7)
H2A H 0.2896 0.5159 0.5508
C3A C 0.580(15) 0.423(15) 0.624(6)
H3A H 0.6546 0.4001 0.6421
C4_2 C 0.416(15) -0.742(15) 0.318(6)
H4_2 H 0.3510 -0.7243 0.2941
C5_2 C 0.375(15) -0.757(15) 0.378(6)
H5_2 H 0.2837 -0.7489 0.3934
C6_2 C 0.470(15) -0.784(14) 0.415(6)
C7_2 C 0.427(16) -0.807(14) 0.480(6)
C8A C 1.057(15) 0.144(16) -0.131(6)
H6A H 1.0684 0.2303 -0.1557
C9A C 1.030(15) 0.135(15) -0.071(6)
H7A H 1.0239 0.2131 -0.0562
C10A C 1.013(14) 0.008(14) -0.033(6)
C11_2 C 0.274(15) 1.093(15) 0.172(6)
H8_2 H 0.2661 1.1640 0.1924
C12_2 C 0.275(15) 0.865(15) 0.174(6)
H9_2 H 0.2639 0.7760 0.1956
C13_2 C 0.521(17) -0.850(16) 0.517(7)
H10_2 H 0.6112 -0.8611 0.5016
C14_2 C 0.295(17) -0.790(17) 0.506(7)
H11_2 H 0.2305 -0.7597 0.4829
C15A C 1.048(15) -0.087(15) -0.120(6)
H12A H 1.0542 -0.1644 -0.1358
C16A C 1.021(16) -0.103(16) -0.059(7)
H13A H 1.0082 -0.1900 -0.0354
C17_2 C 0.304(13) 1.020(15) 0.081(6)
C18A C 0.600(16) 0.449(16) 0.562(6)
H14A H 0.6861 0.4433 0.5410
C19_2 C 0.605(16) -0.793(16) 0.389(6)
H15_2 H 0.6719 -0.8110 0.4120
C20_2 C 0.329(14) 1.051(16) 0.016(6)
C21_2 C 0.636(15) -0.776(16) 0.329(6)
H16_2 H 0.7267 -0.7831 0.3121
C22_2 C 0.293(16) 1.124(16) 0.112(6)
H17_2 H 0.2982 1.2141 0.0919
C23_2 C 0.48(2) -0.876(17) 0.577(7)
H18_2 H 0.5415 -0.9044 0.6024
C24_2 C 0.259(19) -0.816(17) 0.567(7)
H19_2 H 0.1697 -0.8046 0.5838
C25_2 C 0.380(17) 1.207(19) -0.078(7)
H20_2 H 0.3987 1.2952 -0.0990
C26_2 C 0.356(17) 1.182(17) -0.017(7)
H21_2 H 0.3570 1.2531 0.0021
C27_2 C 0.356(16) 0.979(19) -0.077(7)
H22_2 H 0.3566 0.9097 -0.0973
C28_2 C 0.331(16) 0.948(18) -0.015(7)
H23_2 H 0.3153 0.8586 0.0049
C29A C 0.491(15) 0.484(14) 0.533(6)
C30_2 C 0.299(13) 0.889(12) 0.113(3)
H24_2 H 0.3120 0.8166 0.0935
H25_2 H 0.3931 1.1348 -0.1458
H26_2 H 0.3310 -0.8785 0.6389
H28_2 H 0.9528 0.0311 0.4008
H29_2 H 1.0167 -0.3768 0.4033
H30_2 H 0.8460 -0.4523 0.0999
H31_2 H 1.2887 0.5340 0.1002
N1_2 N 0.378(13) 1.106(15) -0.106(5)
N2A N 1.067(11) 0.036(12) -0.157(5)
N3A N 0.457(12) 0.428(12) 0.657(5)
N3_2 N 0.543(12) -0.428(12) 0.343(5)
N4_2 N 0.547(12) -0.751(11) 0.293(5)
N5_2 N 0.266(11) 0.965(12) 0.204(5)
N6_2 N 0.350(16) -0.859(14) 0.600(5)
O1_2 O 0.784(10) -0.676(10) 0.183(5)
O2_2 O 0.977(10) -0.525(11) 0.184(4)
O2_3 O -0.023(10) 0.475(11) 0.184(4)
O3_2 O 0.794(11) -0.430(11) 0.129(4)
O4_2 O 0.744(10) -0.482(11) 0.237(4)
O5_2 O 1.492(10) 0.366(10) 0.158(4)
O5_3 O 0.492(10) -0.634(10) 0.158(4)
O6_2 O 1.443(11) 0.559(11) 0.212(5)
O6_3 O 0.443(11) -0.441(11) 0.212(5)
O7_2 O 1.359(12) 0.567(11) 0.120(5)
O8_2 O 1.260(10) 0.394(10) 0.209(5)
O9_2 O 0.703(9) 0.933(10) 0.283(4)
O9A O 1.297(9) 0.067(10) -0.283(4)
O10_2 O 0.586(10) 0.811(9) 0.221(4)
O11_2 O 0.587(10) 1.061(9) 0.202(4)
O11_3 O 0.587(10) -0.939(9) 0.202(4)
O12_2 O 0.453(9) 0.926(10) 0.298(4)
O13_2 O 1.167(12) -0.237(11) 0.330(5)
O13_3 O 0.167(12) 0.763(11) 0.330(5)
O14_2 O 1.111(15) -0.419(13) 0.284(6)
O14_3 O 1.111(15) 0.581(13) 0.284(6)
O14_4 O 0.111(15) 0.581(13) 0.284(6)
O15_2 O 0.961(15) -0.221(14) 0.284(9)
O15A O 1.039(15) 0.221(14) -0.284(9)
O16_2 O 0.968(13) -0.386(15) 0.377(6)
O17_2 O 1.164(10) 0.071(10) 0.325(4)
O17_3 O 0.164(10) 1.071(10) 0.325(4)
O18_2 O 0.988(10) 0.098(10) 0.259(4)
O18A O 1.012(10) -0.098(10) -0.259(4)
O19_2 O 1.025(11) 0.282(10) 0.312(4)
O20_2 O 0.916(10) 0.062(11) 0.368(4)
P2_2 P 0.825(4) -0.533(4) 0.1851(15)
P3_2 P 1.053(4) -0.313(4) 0.3156(16)
P4_2 P 1.026(4) 0.130(4) 0.3138(15)
P5_2 P 0.580(3) 0.934(3) 0.2513(14)
P6_2 P 1.389(4) 0.469(4) 0.1772(16)
Zn1_2 Zn 0.6033(16) -0.7511(16) 0.2062(7)
Zn1_3 Zn 0.6033(16) 1.2489(16) 0.2062(7)
Zn1_4 Zn 1.6033(16) 0.2489(16) 0.2062(7)
Zn2_2 Zn 0.2621(16) 0.9290(16) 0.2914(7)
Zn2_3 Zn 1.2621(16) -0.0710(16) 0.2914(7)
Zn3_2 Zn 0.5782(16) -0.3867(15) 0.2511(7)
Zn3A Zn 0.4218(16) 0.3867(15) 0.7489(7)
Zn3_3 Zn 1.5782(16) 0.6133(15) 0.2511(7)
Zn4A Zn 1.1051(16) 0.0551(17) -0.2463(7)
Zn4_2 Zn -0.1051(16) -0.0551(17) 0.2463(7)
Zn4_3 Zn 0.8949(16) 0.9449(17) 0.2463(7)
Zn5_2 Zn 0.0815(16) 0.4366(16) 0.2469(7)
Zn5_3 Zn 0.0815(16) -0.5634(16) 0.2469(7)
Zn5_4 Zn 1.0815(16) -0.5634(16) 0.2469(7)
H32 H 0.9041 0.3176 0.5049
O22 O 0.790(17) 0.029(15) 0.563(7)
O23 O 0.86(2) 0.15(3) 0.467(9)
O24 O 1.02(3) 0.05(3) 0.534(10)
O27 O 0.89(2) 0.269(17) 0.539(8)
P1 P 0.888(8) 0.115(8) 0.527(3)
O21 O 0.047(17) 0.366(15) 0.414(6)
H27? H 0.2281 0.6357 -0.0286
O25? O 0.141(16) 0.44(2) 0.082(7)
O26? O 0.19(3) 0.63(3) 0.006(10)
O28? O -0.09(3) 0.57(2) 0.025(8)
P7? P 0.097(10) 0.502(9) 0.023(4)
loop_
_geom_bond_atom_site_label_1
_geom_bond_atom_site_label_2
_geom_bond_site_symmetry_1
_geom_bond_site_symmetry_2
C1 H1 1_555 1_555
C2 C1 1_555 1_555
H2 C2 1_555 1_555
C3 H3 1_555 1_555
C4 H4 1_555 1_555
C5 C4 1_555 1_555
H5 C5 1_555 1_555
C6 C5 1_555 1_555
C7 C6 1_555 1_555
C8 H6 1_555 1_555
C9 C8 1_555 1_555
H7 C9 1_555 1_555
C10 C9 1_555 1_555
C11 H8 1_555 1_555
C12 H9 1_555 1_555
C13 C7 1_555 1_555
H10 C13 1_555 1_555
C14 C7 1_555 1_555
H11 C14 1_555 1_555
C15 H12 1_555 1_555
C16 C10 1_555 1_555
H13 C16 1_555 1_555
C17 C20 1_555 1_555
C18 C3 1_555 1_555
H14 C18 1_555 1_555
C19 C6 1_555 1_555
H15 C19 1_555 1_555
C20 C26 1_555 1_555
C21 C19 1_555 1_555
H16 C21 1_555 1_555
C22 C11 1_555 1_555
H17 C22 1_555 1_555
C23 C13 1_555 1_555
H18 C23 1_555 1_555
C24 C14 1_555 1_555
H19 C24 1_555 1_555
C25 H20 1_555 1_555
C26 C25 1_555 1_555
H21 C26 1_555 1_555
C27 H22 1_555 1_555
C28 C20 1_555 1_555
H23 C28 1_555 1_555
C29 C2 1_555 1_555
C30 C12 1_555 1_555
H24 C30 1_555 1_555
H25 N1 1_555 1_555
H26 N6 1_555 1_555
H28 O20 1_555 1_555
H29 O16 1_555 1_555
H30 O3 1_555 1_555
H31 O7 1_555 1_555
H32 O27 1_555 1_555
N1 C25 1_555 1_555
N2 C8 1_555 1_555
N3 C1 1_555 1_555
N4 C4 1_555 1_555
N5 C11 1_555 1_555
N6 C23 1_555 1_555
O1 P2 1_555 1_555
O2 P2 1_555 1_555
O3 P2 1_555 1_555
O4 P2 1_555 1_555
O5 P6 1_555 1_555
O6 P6 1_555 1_555
O7 P6 1_555 1_555
O8 P6 1_555 1_555
O9 P5 1_555 1_555
O10 P5 1_555 1_555
O11 P5 1_555 1_555
O12 P5 1_555 1_555
O13 P3 1_555 1_555
O14 P3 1_555 1_555
O15 P3 1_555 1_555
O16 P3 1_555 1_555
O17 P4 1_555 1_555
O18 P4 1_555 1_555
O19 P4 1_555 1_555
O20 P4 1_555 1_555
O22 P1 1_555 1_555
O23 P1 1_555 1_555
O24 P1 1_555 1_555
O27 P1 1_555 1_555
Zn1 N4 1_555 1_555
Zn2 N5 1_555 1_555
Zn3 N3 1_555 1_555
Zn4 N2 1_555 1_555
Zn5 O2 1_555 1_555
C1A H1A 1_555 1_555
C2A C1A 1_555 1_555
H2A C2A 1_555 1_555
C3A H3A 1_555 1_555
C4_2 H4_2 1_555 1_555
C5_2 C4_2 1_555 1_555
H5_2 C5_2 1_555 1_555
C6_2 C5_2 1_555 1_555
C7_2 C6_2 1_555 1_555
C8A H6A 1_555 1_555
C9A C8A 1_555 1_555
H7A C9A 1_555 1_555
C10A C10 1_555 1_555
C11_2 H8_2 1_555 1_555
C12_2 H9_2 1_555 1_555
C13_2 C7_2 1_555 1_555
H10_2 C13_2 1_555 1_555
C14_2 C7_2 1_555 1_555
H11_2 C14_2 1_555 1_555
C15A H12A 1_555 1_555
C16A C10A 1_555 1_555
H13A C16A 1_555 1_555
C17_2 C20_2 1_555 1_555
C18A C3A 1_555 1_555
H14A C18A 1_555 1_555
C19_2 C6_2 1_555 1_555
H15_2 C19_2 1_555 1_555
C20_2 C26_2 1_555 1_555
C21_2 C19_2 1_555 1_555
H16_2 C21_2 1_555 1_555
C22_2 C11_2 1_555 1_555
H17_2 C22_2 1_555 1_555
C23_2 C13_2 1_555 1_555
H18_2 C23_2 1_555 1_555
C24_2 C14_2 1_555 1_555
H19_2 C24_2 1_555 1_555
C25_2 H20_2 1_555 1_555
C26_2 C25_2 1_555 1_555
H21_2 C26_2 1_555 1_555
C27_2 H22_2 1_555 1_555
C28_2 C20_2 1_555 1_555
H23_2 C28_2 1_555 1_555
C29A C29 1_555 1_555
C30_2 C12_2 1_555 1_555
H24_2 C30_2 1_555 1_555
H25_2 N1_2 1_555 1_555
H26_2 N6_2 1_555 1_555
H28_2 O20_2 1_555 1_555
H29_2 O16_2 1_555 1_555
H30_2 O3_2 1_555 1_555
H31_2 O7_2 1_555 1_555
N1_2 C25_2 1_555 1_555
N2A C8A 1_555 1_555
N3A C1A 1_555 1_555
N3_2 Zn3_2 1_555 1_555
N4_2 C4_2 1_555 1_555
N5_2 C11_2 1_555 1_555
N6_2 C23_2 1_555 1_555
O1_2 P2_2 1_555 1_555
O2_2 P2_2 1_555 1_555
O2_3 Zn5_2 1_555 1_555
O3_2 P2_2 1_555 1_555
O4_2 P2_2 1_555 1_555
O5_2 P6_2 1_555 1_555
O5_3 Zn1_2 1_555 1_555
O6_2 P6_2 1_555 1_555
O6_3 Zn3_2 1_555 1_555
O7_2 P6_2 1_555 1_555
O8_2 Zn5 1_555 1_555
O9_2 P5_2 1_555 1_555
O9A Zn4A 1_555 1_555
O10_2 Zn3 1_555 1_555
O11_2 P5_2 1_555 1_555
O11_3 Zn1_2 1_555 1_555
O12_2 P5_2 1_555 1_555
O13_2 P3_2 1_555 1_555
O13_3 Zn2_2 1_555 1_555
O14_2 P3_2 1_555 1_555
O14_3 Zn5 1_555 1_555
O14_4 Zn5_2 1_555 1_555
O15_2 Zn4 1_555 1_555
O15A Zn4A 1_555 1_555
O16_2 P3_2 1_555 1_555
O17_2 P4_2 1_555 1_555
O17_3 Zn2_2 1_555 1_555
O18_2 Zn4 1_555 1_555
O18A Zn4A 1_555 1_555
O19_2 Zn5 1_555 1_555
O20_2 P4_2 1_555 1_555
P3_2 O15_2 1_555 1_555
P4_2 O18_2 1_555 1_555
P5_2 O10_2 1_555 1_555
P6_2 O8_2 1_555 1_555
Zn1_2 N4_2 1_555 1_555
Zn1_3 O11_2 1_555 1_555
Zn1_4 O5_2 1_555 1_555
Zn2_2 N5_2 1_555 1_555
Zn2_3 O13_2 1_555 1_555
Zn3_2 O10 1_555 1_555
Zn3A N3A 1_555 1_555
Zn3_3 O6_2 1_555 1_555
Zn4A N2A 1_555 1_555
Zn4_2 O15 1_555 1_555
Zn4_3 O9_2 1_555 1_555
Zn5_2 O8 1_555 1_555
Zn5_3 O14 1_555 1_555
Zn5_4 O2_2 1_555 1_555
C3 N3 1_555 1_555
C12 N5 1_555 1_555
C15 C16 1_555 1_555
C15 N2 1_555 1_555
C17 C22 1_555 1_555
C17 C30 1_555 1_555
C18 C29 1_555 1_555
C21 N4 1_555 1_555
C24 N6 1_555 1_555
C27 C28 1_555 1_555
C27 N1 1_555 1_555
O1 Zn1 1_555 1_555
O4 Zn3 1_555 1_555
O5 Zn1 1_555 1_555
O6 Zn3 1_555 1_555
O9 Zn4 1_555 1_555
O11 Zn1 1_555 1_555
O12 Zn2 1_555 1_555
O13 Zn2 1_555 1_555
O17 Zn2 1_555 1_555
O18 Zn4_2 1_555 1_555
O19 Zn5_2 1_555 1_555
C2A C29A 1_555 1_555
C3A N3A 1_555 1_555
C9A C10A 1_555 1_555
C12_2 N5_2 1_555 1_555
C15A C16A 1_555 1_555
C15A N2A 1_555 1_555
C17_2 C22_2 1_555 1_555
C17_2 C30_2 1_555 1_555
C18A C29A 1_555 1_555
C21_2 N4_2 1_555 1_555
C24_2 N6_2 1_555 1_555
C27_2 C28_2 1_555 1_555
C27_2 N1_2 1_555 1_555
O1_2 Zn1_2 1_555 1_555
O4_2 Zn3_2 1_555 1_555
O12_2 Zn2_2 1_555 1_555
O14_2 Zn5_4 1_555 1_555
O17_2 Zn2_3 1_555 1_555
O19_2 P4_2 1_555 1_555

#END
