
#######################################################################
#
#                 Cambridge Crystallographic Data Centre
#                                CCDC 
#
#######################################################################
#
# If this CIF has been generated from an entry in the Cambridge 
# Structural Database, then it will include bibliographic, chemical, 
# crystal, experimental, refinement or atomic coordinate data resulting 
# from the CCDC's data processing and validation procedures.
#
#######################################################################

data_WECBEN
_symmetry_cell_setting           triclinic
_symmetry_space_group_name_H-M   'P -1'
_symmetry_Int_Tables_number      2
_space_group_name_Hall           '-P 1'
loop_
_symmetry_equiv_pos_site_id
_symmetry_equiv_pos_as_xyz
1 x,y,z
2 -x,-y,-z
_cell_length_a                   9.4178(3)
_cell_length_b                   15.4572(6)
_cell_length_c                   18.2451(9)
_cell_angle_alpha                95.399(4)
_cell_angle_beta                 91.352(4)
_cell_angle_gamma                90.312(3)
_cell_volume                     2643.39
loop_
_atom_site_label
_atom_site_type_symbol
_atom_site_fract_x
_atom_site_fract_y
_atom_site_fract_z
Zn1 Zn 0.25341(6) 0.08870(4) 0.02975(3)
Zn2 Zn 0.12112(6) 0.41788(4) 0.11214(3)
Zn3 Zn 0.11070(7) 0.58318(4) 0.38737(4)
Zn4 Zn 0.25004(6) 0.91445(4) 0.46921(3)
O1 O 0.3124(4) 0.2117(2) 0.0059(2)
O2 O 0.1666(4) 0.1604(2) 0.1192(2)
O3 O 0.2669(4) 0.3497(2) 0.0449(2)
O4 O 0.0973(4) 0.2960(2) 0.1480(2)
O5 O -0.0218(3) 0.4709(2) 0.1895(2)
O6 O 0.2610(3) 0.4696(2) 0.1965(2)
O7 O -0.0278(3) 0.5306(2) 0.3046(2)
O8 O 0.2567(3) 0.5368(3) 0.3090(2)
O9 O 0.0869(4) 0.7047(2) 0.3519(2)
O10 O 0.2532(4) 0.6543(2) 0.4606(2)
O11 O 0.1588(4) 0.8413(2) 0.3804(2)
O12 O 0.3038(4) 0.7910(2) 0.4969(2)
O13 O 0.3622(3) 0.0238(2) -0.05982(19)
O14 O 0.0542(3) 0.0975(2) -0.0319(2)
O15 O 0.5561(3) -0.0542(2) -0.08214(19)
O16 O -0.1500(3) 0.0261(2) -0.0508(2)
O17 O -0.0398(4) 0.3984(2) 0.0283(2)
O18 O -0.1385(4) 0.4677(2) -0.0609(2)
O19 O -0.0467(4) 0.5989(2) 0.4684(2)
O20 O -0.1349(4) 0.5315(2) 0.5598(2)
O21 O 0.4340(4) 0.9485(3) 0.4175(2)
O22 O 0.1469(3) 1.0286(2) 0.4512(2)
O23 O -0.0548(3) 1.0994(2) 0.4719(2)
O24 O 0.6312(3) 1.0266(2) 0.44016(19)
C1 C 0.2558(5) 0.2694(3) 0.0481(3)
C2 C 0.1650(5) 0.2390(3) 0.1107(3)
C3 C 0.0339(5) 0.5012(3) 0.2477(3)
C4 C 0.1990(5) 0.5027(3) 0.2522(3)
C5 C 0.1565(5) 0.7634(4) 0.3905(3)
C6 C 0.2451(5) 0.7330(3) 0.4550(3)
C7 C 0.4774(5) -0.0088(3) -0.0404(3)
C8 C -0.0281(5) 0.0350(3) -0.0238(3)
C9 C -0.0515(5) 0.4613(3) -0.0093(3)
C10 C -0.0528(5) 0.5371(3) 0.5076(3)
C11 C 0.0272(5) 1.0363(3) 0.4779(3)
C12 C 0.5174(5) 0.9925(3) 0.4593(3)
Zn1A Zn 0.74659(6) -0.08870(4) -0.02975(3)
Zn1A_2 Zn -0.25341(6) -0.08870(4) -0.02975(3)
Zn2A Zn 0.87888(6) -0.41788(4) -0.11214(3)
Zn2A_2 Zn -0.12112(6) 0.58212(4) -0.11214(3)
Zn3A Zn 0.88930(7) -0.58318(4) -0.38737(4)
Zn3A_2 Zn -0.11070(7) 0.41682(4) 0.61263(4)
Zn4A Zn 0.74996(6) -0.91445(4) -0.46921(3)
Zn4A_2 Zn -0.25004(6) 1.08555(4) 0.53079(3)
Zn4A_3 Zn 0.74996(6) 1.08555(4) 0.53079(3)
O1A O 0.6876(4) -0.2117(2) -0.0059(2)
O2A O 0.8334(4) -0.1604(2) -0.1192(2)
O3A O 0.7331(4) -0.3497(2) -0.0449(2)
O4A O 0.9027(4) -0.2960(2) -0.1480(2)
O5A O 1.0218(3) -0.4709(2) -0.1895(2)
O6A O 0.7390(3) -0.4696(2) -0.1965(2)
O7A O 1.0278(3) -0.5306(2) -0.3046(2)
O8A O 0.7433(3) -0.5368(3) -0.3090(2)
O9A O 0.9131(4) -0.7047(2) -0.3519(2)
O10A O 0.7468(4) -0.6543(2) -0.4606(2)
O11A O 0.8412(4) -0.8413(2) -0.3804(2)
O12A O 0.6962(4) -0.7910(2) -0.4969(2)
O13A O 0.6378(3) -0.0238(2) 0.05982(19)
O14A O -0.0542(3) -0.0975(2) 0.0319(2)
O14A_2 O 0.9458(3) -0.0975(2) 0.0319(2)
O15A O 0.4439(3) 0.0542(2) 0.08214(19)
O16A O 0.1500(3) -0.0261(2) 0.0508(2)
O16_2 O 0.8500(3) 0.0261(2) -0.0508(2)
O17A O 0.0398(4) 0.6016(2) -0.0283(2)
O17A_2 O 1.0398(4) -0.3984(2) -0.0283(2)
O18A O 0.1385(4) 0.5323(2) 0.0609(2)
O18_2 O 0.8615(4) -0.5323(2) -0.0609(2)
O19A O 0.0467(4) 0.4011(2) 0.5316(2)
O19A_2 O 1.0467(4) -0.5989(2) -0.4684(2)
O20A O 0.1349(4) 0.4685(2) 0.4402(2)
O20_2 O 0.8651(4) -0.4685(2) -0.4402(2)
O21A O 0.5660(4) 1.0515(3) 0.5825(2)
O21A_2 O 0.5660(4) -0.9485(3) -0.4175(2)
O22A O -0.1469(3) 0.9714(2) 0.5488(2)
O22A_2 O 0.8531(3) -1.0286(2) -0.4512(2)
O23A O 0.0548(3) 0.9006(2) 0.5281(2)
O23_2 O 0.9452(3) -0.9006(2) -0.5281(2)
O24A O 0.3688(3) 0.9734(2) 0.55984(19)
O24_2 O 0.6312(3) -0.9734(2) -0.55984(19)
C1A C 0.7442(5) -0.2694(3) -0.0481(3)
C2A C 0.8350(5) -0.2390(3) -0.1107(3)
C3A C 0.9661(5) -0.5012(3) -0.2477(3)
C4A C 0.8010(5) -0.5027(3) -0.2522(3)
C5A C 0.8435(5) -0.7634(4) -0.3905(3)
C6A C 0.7549(5) -0.7330(3) -0.4550(3)
C7A C 0.5226(5) 0.0088(3) 0.0404(3)
C8A C 0.0281(5) -0.0350(3) 0.0238(3)
C9A C 0.0515(5) 0.5387(3) 0.0093(3)
C10A C 0.0528(5) 0.4629(3) 0.4924(3)
C11A C -0.0272(5) 0.9637(3) 0.5221(3)
C12A C 0.4826(5) 1.0075(3) 0.5407(3)
N1 N 0.3345(5) -0.0101(3) -0.2219(3)
H1 H 0.3651 -0.0153 -0.1754
H2 H 0.3464 -0.0621 -0.2476
C13 C 0.1078(7) -0.0683(5) -0.1883(4)
H7 H 0.1490 -0.0749 -0.1405
H8 H 0.1224 -0.1203 -0.2202
H9 H 0.0078 -0.0579 -0.1839
C14 C 0.1772(6) 0.0077(4) -0.2201(3)
H10 H 0.1622 0.0600 -0.1864
C15 C 0.1186(7) 0.0243(5) -0.2960(4)
H11 H 0.1683 0.0725 -0.3133
H12 H 0.0192 0.0374 -0.2929
H13 H 0.1312 -0.0266 -0.3296
C16 C 0.5796(7) 0.0200(5) -0.2480(4)
H14 H 0.5845 -0.0368 -0.2740
H15 H 0.6055 0.0167 -0.1971
H16 H 0.6438 0.0586 -0.2691
C17 C 0.4301(7) 0.0539(4) -0.2536(3)
H17 H 0.4045 0.0553 -0.3059
C18 C 0.4133(9) 0.1417(5) -0.2165(5)
H18 H 0.3162 0.1594 -0.2216
H19 H 0.4741 0.1815 -0.2385
H20 H 0.4384 0.1415 -0.1653
N2 N -0.1445(4) 0.7571(3) 0.5458(3)
H3 H -0.0862 0.8025 0.5411
H4 H -0.1040 0.7099 0.5226
C19 C -0.3774(7) 0.6974(5) 0.5084(6)
H21 H -0.4653 0.7072 0.4829
H22 H -0.3957 0.6893 0.5589
H23 H -0.3329 0.6464 0.4854
C20 C -0.2824(6) 0.7731(4) 0.5054(4)
H24 H -0.3278 0.8246 0.5297
C21 C -0.2440(8) 0.7911(5) 0.4276(4)
H25 H -0.3289 0.8025 0.4001
H26 H -0.1970 0.7415 0.4039
H27 H -0.1819 0.8408 0.4298
C22 C -0.0014(8) 0.7259(5) 0.6521(4)
H28 H 0.0341 0.6758 0.6233
H29 H -0.0012 0.7152 0.7031
H30 H 0.0580 0.7753 0.6461
C23 C -0.1496(7) 0.7437(4) 0.6268(3)
H31 H -0.2084 0.6923 0.6323
C24 C -0.2166(8) 0.8211(5) 0.6690(4)
H32 H -0.2199 0.8117 0.7202
H33 H -0.3113 0.8286 0.6501
H34 H -0.1612 0.8723 0.6636
N3 N -0.1220(4) 0.2459(3) -0.0655(2)
H5 H -0.0669 0.2022 -0.0524
H6 H -0.0966 0.2937 -0.0359
C25 C -0.1276(11) 0.1845(5) -0.1944(4)
H35 H -0.1050 0.1950 -0.2439
H36 H -0.2278 0.1741 -0.1916
H37 H -0.0767 0.1345 -0.1808
C26 C -0.0859(7) 0.2621(4) -0.1429(3)
H38 H -0.1416 0.3118 -0.1566
C27 C 0.0648(8) 0.2849(5) -0.1456(4)
H39 H 0.0850 0.3350 -0.1117
H40 H 0.0871 0.2975 -0.1946
H41 H 0.1213 0.2370 -0.1322
C28 C -0.3713(7) 0.2932(5) -0.0705(5)
H42 H -0.3665 0.2977 -0.1225
H43 H -0.3453 0.3479 -0.0442
H44 H -0.4663 0.2779 -0.0585
C29 C -0.2707(6) 0.2242(4) -0.0491(4)
H45 H -0.2971 0.1687 -0.0765
C30 C -0.2763(8) 0.2147(4) 0.0322(4)
H46 H -0.2110 0.1706 0.0447
H47 H -0.3708 0.1985 0.0444
H48 H -0.2506 0.2690 0.0594
N4 N 0.5528(5) 0.4482(4) 0.2220(4)
C31 C 0.4640(7) 0.3000(5) 0.2323(5)
H49 H 0.3703 0.3186 0.2195
H50 H 0.4783 0.3083 0.2848
H51 H 0.4744 0.2396 0.2158
C32 C 0.5714(7) 0.3522(4) 0.1962(5)
H52 H 0.5542 0.3441 0.1428
C33 C 0.7222(8) 0.3238(5) 0.2127(5)
H53 H 0.7325 0.2634 0.1961
H54 H 0.7413 0.3323 0.2649
H55 H 0.7880 0.3577 0.1878
C34 C 0.552(2) 0.4895(13) 0.0796(11)
C35 C 0.6255(15) 0.5112(10) 0.1548(12)
C36 C 0.6068(18) 0.6001(12) 0.1922(11)
O25 O 0.3635(5) -0.1486(3) -0.3354(3)
O26 O -0.3106(11) 0.4858(9) 0.3482(8)
C37? C 0.610(2) 0.5096(15) 0.1135(16)
C38? C 0.6355(15) 0.5153(10) 0.2013(11)
C39? C 0.605(2) 0.6011(13) 0.2499(12)
loop_
_geom_bond_atom_site_label_1
_geom_bond_atom_site_label_2
_geom_bond_site_symmetry_1
_geom_bond_site_symmetry_2
Zn1 O1 1_555 1_555
Zn2 O3 1_555 1_555
Zn3 O7 1_555 1_555
Zn4 O11 1_555 1_555
O1 C1 1_555 1_555
O2 Zn1 1_555 1_555
O3 C1 1_555 1_555
O4 Zn2 1_555 1_555
O5 Zn2 1_555 1_555
O6 Zn2 1_555 1_555
O7 C3 1_555 1_555
O8 Zn3 1_555 1_555
O9 Zn3 1_555 1_555
O10 Zn3 1_555 1_555
O11 C5 1_555 1_555
O12 Zn4 1_555 1_555
O13 Zn1 1_555 1_555
O14 Zn1 1_555 1_555
O15 C7 1_555 1_555
O16 C8 1_555 1_555
O17 Zn2 1_555 1_555
O18 C9 1_555 1_555
O19 Zn3 1_555 1_555
O20 C10 1_555 1_555
O21 Zn4 1_555 1_555
O22 Zn4 1_555 1_555
O23 C11 1_555 1_555
O24 C12 1_555 1_555
N1 H1 1_555 1_555
H2 N1 1_555 1_555
N2 H3 1_555 1_555
H4 N2 1_555 1_555
N3 H5 1_555 1_555
H6 N3 1_555 1_555
N4 C32 1_555 1_555
C1 C2 1_555 1_555
C2 O2 1_555 1_555
C3 O5 1_555 1_555
C4 O6 1_555 1_555
C5 O9 1_555 1_555
C6 O10 1_555 1_555
C7 O13 1_555 1_555
C8 O14 1_555 1_555
C9 O17 1_555 1_555
C10 O19 1_555 1_555
C11 O22 1_555 1_555
C12 O21 1_555 1_555
C13 H7 1_555 1_555
H8 C13 1_555 1_555
H9 C13 1_555 1_555
C14 N1 1_555 1_555
H10 C14 1_555 1_555
C15 C14 1_555 1_555
H11 C15 1_555 1_555
H12 C15 1_555 1_555
H13 C15 1_555 1_555
C16 H14 1_555 1_555
H15 C16 1_555 1_555
H16 C16 1_555 1_555
C17 N1 1_555 1_555
H17 C17 1_555 1_555
C18 C17 1_555 1_555
H18 C18 1_555 1_555
H19 C18 1_555 1_555
H20 C18 1_555 1_555
C19 H21 1_555 1_555
H22 C19 1_555 1_555
H23 C19 1_555 1_555
C20 N2 1_555 1_555
H24 C20 1_555 1_555
C21 C20 1_555 1_555
H25 C21 1_555 1_555
H26 C21 1_555 1_555
H27 C21 1_555 1_555
C22 H28 1_555 1_555
H29 C22 1_555 1_555
H30 C22 1_555 1_555
C23 N2 1_555 1_555
H31 C23 1_555 1_555
C24 C23 1_555 1_555
H32 C24 1_555 1_555
H33 C24 1_555 1_555
H34 C24 1_555 1_555
C25 H35 1_555 1_555
H36 C25 1_555 1_555
H37 C25 1_555 1_555
C26 N3 1_555 1_555
H38 C26 1_555 1_555
C27 C26 1_555 1_555
H39 C27 1_555 1_555
H40 C27 1_555 1_555
H41 C27 1_555 1_555
C28 H42 1_555 1_555
H43 C28 1_555 1_555
H44 C28 1_555 1_555
C29 N3 1_555 1_555
H45 C29 1_555 1_555
C30 C29 1_555 1_555
H46 C30 1_555 1_555
H47 C30 1_555 1_555
H48 C30 1_555 1_555
C31 H49 1_555 1_555
H50 C31 1_555 1_555
H51 C31 1_555 1_555
C32 C31 1_555 1_555
H52 C32 1_555 1_555
C33 C32 1_555 1_555
H53 C33 1_555 1_555
H54 C33 1_555 1_555
H55 C33 1_555 1_555
C34 C35 1_555 1_555
C35 N4 1_555 1_555
C36 C35 1_555 1_555
Zn1A O15 1_555 1_555
Zn1A_2 O16 1_555 1_555
Zn2A O3A 1_555 1_555
Zn2A_2 O18 1_555 1_555
Zn3A O7A 1_555 1_555
Zn3A_2 O20 1_555 1_555
Zn4A O11A 1_555 1_555
Zn4A_2 O23 1_555 1_555
Zn4A_3 O24 1_555 1_555
O1A Zn1A 1_555 1_555
O2A Zn1A 1_555 1_555
O3A C1A 1_555 1_555
O4A Zn2A 1_555 1_555
O5A Zn2A 1_555 1_555
O6A Zn2A 1_555 1_555
O7A C3A 1_555 1_555
O8A Zn3A 1_555 1_555
O9A Zn3A 1_555 1_555
O10A Zn3A 1_555 1_555
O11A C5A 1_555 1_555
O12A Zn4A 1_555 1_555
O13A Zn1A 1_555 1_555
O14A Zn1A_2 1_555 1_555
O14A_2 Zn1A 1_555 1_555
O15A Zn1 1_555 1_555
O16A Zn1 1_555 1_555
O16_2 Zn1A 1_555 1_555
O17A Zn2A_2 1_555 1_555
O17A_2 Zn2A 1_555 1_555
O18A Zn2 1_555 1_555
O18_2 Zn2A 1_555 1_555
O19A Zn3A_2 1_555 1_555
O19A_2 Zn3A 1_555 1_555
O20A Zn3 1_555 1_555
O20_2 Zn3A 1_555 1_555
O21A Zn4A_3 1_555 1_555
O21A_2 Zn4A 1_555 1_555
O22A Zn4A_2 1_555 1_555
O22A_2 Zn4A 1_555 1_555
O23A Zn4 1_555 1_555
O23_2 Zn4A 1_555 1_555
O24A Zn4 1_555 1_555
O24_2 Zn4A 1_555 1_555
C1A O1A 1_555 1_555
C2A O2A 1_555 1_555
C3A O5A 1_555 1_555
C4A O6A 1_555 1_555
C5A O9A 1_555 1_555
C6A O10A 1_555 1_555
C7A C7 1_555 1_555
C8A C8 1_555 1_555
C9A C9 1_555 1_555
C10A C10 1_555 1_555
C11A C11 1_555 1_555
C12A C12 1_555 1_555
O4 C2 1_555 1_555
O8 C4 1_555 1_555
O12 C6 1_555 1_555
C3 C4 1_555 1_555
C5 C6 1_555 1_555
C13 C14 1_555 1_555
C16 C17 1_555 1_555
C19 C20 1_555 1_555
C22 C23 1_555 1_555
C25 C26 1_555 1_555
C28 C29 1_555 1_555
O4A C2A 1_555 1_555
O8A C4A 1_555 1_555
O12A C6A 1_555 1_555
O13A C7A 1_555 1_555
O14A C8A 1_555 1_555
O15A C7A 1_555 1_555
O16A C8A 1_555 1_555
O17A C9A 1_555 1_555
O18A C9A 1_555 1_555
O19A C10A 1_555 1_555
O20A C10A 1_555 1_555
O21A C12A 1_555 1_555
O22A C11A 1_555 1_555
O23A C11A 1_555 1_555
O24A C12A 1_555 1_555
C1A C2A 1_555 1_555
C3A C4A 1_555 1_555
C5A C6A 1_555 1_555

#END
