
#######################################################################
#
#                 Cambridge Crystallographic Data Centre
#                                CCDC 
#
#######################################################################
#
# If this CIF has been generated from an entry in the Cambridge 
# Structural Database, then it will include bibliographic, chemical, 
# crystal, experimental, refinement or atomic coordinate data resulting 
# from the CCDC's data processing and validation procedures.
#
#######################################################################

data_WECBOX
_symmetry_cell_setting           orthorhombic
_symmetry_space_group_name_H-M   'P b c a'
_symmetry_Int_Tables_number      61
_space_group_name_Hall           '-P 2ac 2ab'
loop_
_symmetry_equiv_pos_site_id
_symmetry_equiv_pos_as_xyz
1 x,y,z
2 1/2-x,-y,1/2+z
3 -x,1/2+y,1/2-z
4 1/2+x,1/2-y,-z
5 -x,-y,-z
6 1/2+x,y,1/2-z
7 x,1/2-y,1/2+z
8 1/2-x,1/2+y,z
_cell_length_a                   9.6900(6)
_cell_length_b                   14.4331(8)
_cell_length_c                   29.8442(8)
_cell_angle_alpha                90
_cell_angle_beta                 90
_cell_angle_gamma                90
_cell_volume                     4173.91
loop_
_atom_site_label
_atom_site_type_symbol
_atom_site_fract_x
_atom_site_fract_y
_atom_site_fract_z
Mn1 Mn 0.13053(4) 0.23551(4) 0.700512(15)
Mn2 Mn 0.24975(4) 0.45728(4) 0.546064(15)
P1 P 0.06314(8) 0.29612(7) 0.59580(3)
P2 P 0.28638(8) 0.53050(7) 0.65278(3)
O1 O 0.3254(3) 0.5029(3) 0.60690(8)
O2 O 0.3939(2) 0.49025(19) 0.68610(8)
H1 H 0.3713 0.4375 0.6932
O3 O 0.1427(2) 0.49169(18) 0.66564(8)
H2 H 0.1363 0.4379 0.6570
O4 O 0.2817(3) 0.6326(2) 0.65879(10)
O5 O 0.1881(2) 0.3217(2) 0.56932(8)
O6 O 0.0759(2) 0.32026(17) 0.64442(7)
O7 O -0.0689(2) 0.34434(19) 0.57759(8)
H3 H -0.0496 0.3968 0.5691
O8 O 0.0284(2) 0.19072(19) 0.58922(8)
H4 H 0.0741 0.1597 0.6068
O9 O 0.4461(2) 0.39624(19) 0.52473(8)
O10 O 0.6449(2) 0.4318(2) 0.49199(8)
O11 O 0.1305(2) 0.42305(18) 0.48493(7)
O12 O -0.0680(2) 0.45352(18) 0.45081(7)
O13 O -0.0729(2) 0.17063(17) 0.70349(7)
O14 O 0.0157(2) 0.31810(18) 0.75027(8)
O15 O -0.2684(2) 0.1722(2) 0.74166(8)
O16 O -0.1780(2) 0.31753(17) 0.78965(7)
C1 C 0.5260(3) 0.4502(3) 0.50465(10)
C2 C 0.0187(3) 0.4642(2) 0.48163(9)
C3 C -0.1511(3) 0.2020(2) 0.73337(10)
C4 C -0.0986(3) 0.2865(2) 0.76006(10)
Mn1D Mn -0.13053(4) 0.76449(4) 0.299488(15)
Mn1A Mn 0.36947(4) 0.76449(4) 0.200512(15)
Mn1C Mn -0.36947(4) 0.26449(4) 0.299488(15)
Mn1E Mn -0.36947(4) 0.23551(4) 0.799488(15)
Mn1G Mn 0.36947(4) 0.73551(4) 0.700512(15)
Mn2D Mn -0.24975(4) 0.54272(4) 0.453936(15)
Mn2D_2 Mn 0.75025(4) 0.54272(4) 0.453936(15)
P1D P -0.06314(8) 0.70388(7) 0.40420(3)
P2D P -0.28638(8) 0.46950(7) 0.34722(3)
O1D O -0.3254(3) 0.4971(3) 0.39310(8)
O2D O -0.3939(2) 0.50975(19) 0.31390(8)
H1D H -0.3713 0.5625 0.3068
O3D O -0.1427(2) 0.50831(18) 0.33436(8)
H2D H -0.1363 0.5621 0.3430
O4D O -0.2817(3) 0.3674(2) 0.34121(10)
O4C O -0.2183(3) 0.8674(2) 0.34121(10)
O4G O 0.2183(3) 0.1326(2) 0.65879(10)
O5D O -0.1881(2) 0.6783(2) 0.43068(8)
O6D O -0.0759(2) 0.67974(17) 0.35558(7)
O7D O 0.0689(2) 0.65566(19) 0.42241(8)
H3D H 0.0496 0.6032 0.4309
O8D O -0.0284(2) 0.80928(19) 0.41078(8)
H4D H -0.0741 0.8403 0.3932
O9D O 0.5539(2) 0.60376(19) 0.47527(8)
O9D_2 O -0.4461(2) 0.60376(19) 0.47527(8)
O10D O 0.3551(2) 0.5682(2) 0.50801(8)
O10_2 O -0.3551(2) 0.4318(2) 0.49199(8)
O11D O -0.1305(2) 0.57695(18) 0.51507(7)
O12D O 0.0680(2) 0.54648(18) 0.54919(7)
O13D O 0.0729(2) 0.82937(17) 0.29651(7)
O14D O -0.0157(2) 0.68190(18) 0.24973(8)
O15D O 0.2684(2) 0.8278(2) 0.25834(8)
O15A O -0.2316(2) 0.8278(2) 0.24166(8)
O15E O 0.2316(2) 0.1722(2) 0.75834(8)
O16D O 0.1780(2) 0.68247(17) 0.21035(7)
O16A O -0.3220(2) 0.68247(17) 0.28965(7)
O16E O 0.3220(2) 0.31753(17) 0.71035(7)
C1D C 0.4740(3) 0.5498(3) 0.49535(10)
C2D C -0.0187(3) 0.5358(2) 0.51837(9)
C3D C 0.1511(3) 0.7980(2) 0.26663(10)
C4D C 0.0986(3) 0.7135(2) 0.23994(10)
N1 N -0.5559(4) 0.2255(3) 0.58343(17)
H5 H -0.6285 0.2630 0.5818
H6 H -0.5845 0.1676 0.5879
H7 H -0.5084 0.2284 0.5579
N2 N -0.2439(3) 0.0468(2) 0.65545(9)
H8 H -0.1819 0.0851 0.6689
C5 C -0.4702(5) 0.2531(3) 0.61948(14)
H9 H -0.5234 0.2508 0.6470
H10 H -0.4420 0.3168 0.6148
C6 C -0.3431(4) 0.1939(3) 0.62498(15)
H11 H -0.3023 0.1834 0.5957
H12 H -0.2763 0.2273 0.6430
C7 C -0.3719(3) 0.1018(3) 0.64670(12)
H13 H -0.4196 0.1121 0.6748
H14 H -0.4326 0.0661 0.6274
C8 C -0.2720(5) -0.0306(3) 0.68683(15)
H15 H -0.3133 -0.0067 0.7137
H16 H -0.1871 -0.0613 0.6941
H17 H -0.3340 -0.0739 0.6730
C9 C -0.1801(4) 0.0122(3) 0.61348(13)
H18 H -0.0977 -0.0218 0.6205
H19 H -0.1573 0.0637 0.5945
H20 H -0.2439 -0.0277 0.5982
O17 O -0.2346(4) 0.2758(2) 0.52024(12)
H21 H -0.3029 0.2201 0.5096
H22 H -0.2805 0.3247 0.5075
loop_
_geom_bond_atom_site_label_1
_geom_bond_atom_site_label_2
_geom_bond_site_symmetry_1
_geom_bond_site_symmetry_2
Mn1 O6 1_555 1_555
Mn2 O1 1_555 1_555
P1 O5 1_555 1_555
P2 O1 1_555 1_555
O2 P2 1_555 1_555
H1 O2 1_555 1_555
O3 P2 1_555 1_555
H2 O3 1_555 1_555
O4 P2 1_555 1_555
O5 Mn2 1_555 1_555
O6 P1 1_555 1_555
O7 P1 1_555 1_555
H3 O7 1_555 1_555
O8 P1 1_555 1_555
H4 O8 1_555 1_555
O9 Mn2 1_555 1_555
O10 C1 1_555 1_555
O11 Mn2 1_555 1_555
O12 C2 1_555 1_555
O13 Mn1 1_555 1_555
O14 Mn1 1_555 1_555
O15 C3 1_555 1_555
O16 C4 1_555 1_555
N1 H5 1_555 1_555
H6 N1 1_555 1_555
H7 N1 1_555 1_555
N2 H8 1_555 1_555
C1 O9 1_555 1_555
C2 O11 1_555 1_555
C3 O13 1_555 1_555
C4 O14 1_555 1_555
C5 N1 1_555 1_555
H9 C5 1_555 1_555
H10 C5 1_555 1_555
C6 C5 1_555 1_555
H11 C6 1_555 1_555
H12 C6 1_555 1_555
C7 N2 1_555 1_555
H13 C7 1_555 1_555
H14 C7 1_555 1_555
C8 N2 1_555 1_555
H15 C8 1_555 1_555
H16 C8 1_555 1_555
H17 C8 1_555 1_555
C9 N2 1_555 1_555
H18 C9 1_555 1_555
H19 C9 1_555 1_555
H20 C9 1_555 1_555
O17 H21 1_555 1_555
H22 O17 1_555 1_555
Mn1D O4C 1_555 1_555
Mn1A O15D 1_555 1_555
Mn1C O4D 1_555 1_555
Mn1E O15 1_555 1_555
Mn1G O4 1_555 1_555
Mn2D O12 1_555 1_555
Mn2D_2 O10 1_555 1_555
P1D O5D 1_555 1_555
P2D O1D 1_555 1_555
O1D Mn2D 1_555 1_555
O2D P2D 1_555 1_555
H1D O2D 1_555 1_555
O3D P2D 1_555 1_555
H2D O3D 1_555 1_555
O4D P2D 1_555 1_555
O4G Mn1 1_555 1_555
O5D Mn2D 1_555 1_555
O6D Mn1D 1_555 1_555
O7D P1D 1_555 1_555
H3D O7D 1_555 1_555
O8D P1D 1_555 1_555
H4D O8D 1_555 1_555
O9D Mn2D_2 1_555 1_555
O9D_2 Mn2D 1_555 1_555
O10D Mn2 1_555 1_555
O10_2 Mn2D 1_555 1_555
O11D Mn2D 1_555 1_555
O12D Mn2 1_555 1_555
O13D Mn1D 1_555 1_555
O14D Mn1D 1_555 1_555
O15D C3D 1_555 1_555
O15A Mn1D 1_555 1_555
O15E Mn1 1_555 1_555
O16D Mn1A 1_555 1_555
O16A Mn1D 1_555 1_555
O16E Mn1 1_555 1_555
C1D C1 1_555 1_555
C2D C2 1_555 1_555
C3D O13D 1_555 1_555
C4D O14D 1_555 1_555
O16 Mn1E 1_555 1_555
C3 C4 1_555 1_555
C6 C7 1_555 1_555
P1D O6D 1_555 1_555
O9D C1D 1_555 1_555
O10D C1D 1_555 1_555
O11D C2D 1_555 1_555
O12D C2D 1_555 1_555
O16D C4D 1_555 1_555
C3D C4D 1_555 1_555

#END
