
#######################################################################
#
#                 Cambridge Crystallographic Data Centre
#                                CCDC 
#
#######################################################################
#
# If this CIF has been generated from an entry in the Cambridge 
# Structural Database, then it will include bibliographic, chemical, 
# crystal, experimental, refinement or atomic coordinate data resulting 
# from the CCDC's data processing and validation procedures.
#
#######################################################################

data_WECBUD
_symmetry_cell_setting           monoclinic
_symmetry_space_group_name_H-M   'C 2/c'
_symmetry_Int_Tables_number      15
_space_group_name_Hall           '-C 2yn'
loop_
_symmetry_equiv_pos_site_id
_symmetry_equiv_pos_as_xyz
1 x,y,z
2 -x,y,1/2-z
3 1/2+x,1/2+y,z
4 1/2-x,1/2+y,1/2-z
5 -x,-y,-z
6 x,-y,1/2+z
7 1/2-x,1/2-y,-z
8 1/2+x,1/2-y,1/2+z
_cell_length_a                   13.884(3)
_cell_length_b                   12.146(2)
_cell_length_c                   16.327(3)
_cell_angle_alpha                90
_cell_angle_beta                 114.50(3)
_cell_angle_gamma                90
_cell_volume                     2505.4
loop_
_atom_site_label
_atom_site_type_symbol
_atom_site_fract_x
_atom_site_fract_y
_atom_site_fract_z
Zn1 Zn 0.42955(3) 0.20855(3) 0.47951(3)
O1 O 0.46661(18) 0.08792(17) 0.40780(15)
O2 O 0.5127(2) -0.08829(18) 0.42142(15)
O3 O 0.3775(2) 0.29959(18) 0.56128(17)
O4 O 0.22838(19) 0.3385(2) 0.57417(17)
O5 O 0.56533(18) 0.30080(19) 0.51829(17)
O6 O 0.3887(2) 0.3257(2) 0.36883(17)
O7 O 0.6266(2) 0.4591(2) 0.4910(2)
N1 N 0.4466(3) 0.4917(3) 0.3445(2)
H1 H 0.4977 0.5384 0.3639
N2 N 0.2309(2) 0.5722(3) 0.3352(2)
H2 H 0.2829 0.5589 0.3908
C1 C 0.4939(2) -0.0003(3) 0.4510(2)
C2 C 0.2804(3) 0.2898(2) 0.5392(2)
C3 C 0.5593(3) 0.3858(3) 0.4733(3)
C4 C 0.4563(3) 0.3995(3) 0.3896(3)
C5 C 0.3531(4) 0.5181(4) 0.2631(3)
H3 H 0.3119 0.4515 0.2411
H4 H 0.3757 0.5429 0.2174
C6 C 0.2832(3) 0.6046(4) 0.2756(3)
H5 H 0.3254 0.6700 0.3003
H6 H 0.2289 0.6239 0.2169
C7 C 0.1680(4) 0.6677(5) 0.3436(4)
H7 H 0.1340 0.6481 0.3821
H8 H 0.1154 0.6872 0.2852
H9 H 0.2142 0.7293 0.3690
C8 C 0.1655(3) 0.4704(4) 0.3059(4)
H10 H 0.1352 0.4539 0.3477
H11 H 0.2093 0.4101 0.3041
H12 H 0.1100 0.4816 0.2471
Zn1D Zn 0.57045(3) -0.20855(3) 0.52049(3)
Zn1F Zn 0.07045(3) 0.29145(3) 0.52049(3)
O1D O 0.53339(18) -0.08792(17) 0.59220(15)
O2D O 0.4873(2) 0.08829(18) 0.57858(15)
O3F O 0.1225(2) 0.20041(18) 0.43872(17)
O3D O 0.6225(2) -0.29959(18) 0.43872(17)
O4F O 0.27162(19) 0.1615(2) 0.42583(17)
O4B O 0.72838(19) -0.1615(2) 0.57417(17)
O5D O 0.43467(18) -0.30080(19) 0.48171(17)
O6D O 0.6113(2) -0.3257(2) 0.63117(17)
O7D O 0.3734(2) -0.4591(2) 0.5090(2)
N1D N 0.5534(3) -0.4917(3) 0.6555(2)
H1D H 0.5023 -0.5384 0.6361
N2D N 0.7691(2) -0.5722(3) 0.6648(2)
H2D H 0.7171 -0.5589 0.6092
C1D C 0.5061(2) 0.0003(3) 0.5490(2)
C2F C 0.2196(3) 0.2102(2) 0.4608(2)
C3D C 0.4407(3) -0.3858(3) 0.5267(3)
C4D C 0.5437(3) -0.3995(3) 0.6104(3)
C5D C 0.6469(4) -0.5181(4) 0.7369(3)
H3D H 0.6881 -0.4515 0.7589
H4D H 0.6243 -0.5429 0.7826
C6D C 0.7168(3) -0.6046(4) 0.7244(3)
H5D H 0.6746 -0.6700 0.6997
H6D H 0.7711 -0.6239 0.7831
C7D C 0.8320(4) -0.6677(5) 0.6564(4)
H7D H 0.8660 -0.6481 0.6179
H8D H 0.8846 -0.6872 0.7148
H9D H 0.7858 -0.7293 0.6310
C8D C 0.8345(3) -0.4704(4) 0.6941(4)
H10D H 0.8648 -0.4539 0.6523
H11D H 0.7907 -0.4101 0.6959
H12D H 0.8900 -0.4816 0.7529
O8 O 0.5000 0.2960(10) 0.7500
O9 O 0.2817(16) 0.8984(17) 0.4190(15)
loop_
_geom_bond_atom_site_label_1
_geom_bond_atom_site_label_2
_geom_bond_site_symmetry_1
_geom_bond_site_symmetry_2
Zn1 O1 1_555 1_555
O1 C1 1_555 1_555
O2 C1 1_555 1_555
O3 Zn1 1_555 1_555
O4 C2 1_555 1_555
O5 Zn1 1_555 1_555
O6 Zn1 1_555 1_555
O7 C3 1_555 1_555
N1 H1 1_555 1_555
N2 H2 1_555 1_555
C1 C1D 1_555 1_555
C2 O3 1_555 1_555
C3 O5 1_555 1_555
C4 O6 1_555 1_555
C5 N1 1_555 1_555
H3 C5 1_555 1_555
H4 C5 1_555 1_555
C6 N2 1_555 1_555
H5 C6 1_555 1_555
H6 C6 1_555 1_555
C7 N2 1_555 1_555
H7 C7 1_555 1_555
H8 C7 1_555 1_555
H9 C7 1_555 1_555
C8 N2 1_555 1_555
H10 C8 1_555 1_555
H11 C8 1_555 1_555
H12 C8 1_555 1_555
Zn1D O2 1_555 1_555
Zn1F O4 1_555 1_555
O1D Zn1D 1_555 1_555
O2D Zn1 1_555 1_555
O3F Zn1F 1_555 1_555
O3D Zn1D 1_555 1_555
O4F Zn1 1_555 1_555
O4B Zn1D 1_555 1_555
O5D Zn1D 1_555 1_555
O6D Zn1D 1_555 1_555
O7D C3D 1_555 1_555
N1D H1D 1_555 1_555
N2D H2D 1_555 1_555
C1D O1D 1_555 1_555
C2F C2 1_555 1_555
C3D O5D 1_555 1_555
C4D O6D 1_555 1_555
C5D N1D 1_555 1_555
H3D C5D 1_555 1_555
H4D C5D 1_555 1_555
C6D N2D 1_555 1_555
H5D C6D 1_555 1_555
H6D C6D 1_555 1_555
C7D N2D 1_555 1_555
H7D C7D 1_555 1_555
H8D C7D 1_555 1_555
H9D C7D 1_555 1_555
C8D N2D 1_555 1_555
H10D C8D 1_555 1_555
H11D C8D 1_555 1_555
H12D C8D 1_555 1_555
N1 C4 1_555 1_555
C3 C4 1_555 1_555
C5 C6 1_555 1_555
O2D C1D 1_555 1_555
O3F C2F 1_555 1_555
O4F C2F 1_555 1_555
N1D C4D 1_555 1_555
C3D C4D 1_555 1_555
C5D C6D 1_555 1_555

#END
