
#######################################################################
#
#                 Cambridge Crystallographic Data Centre
#                                CCDC 
#
#######################################################################
#
# If this CIF has been generated from an entry in the Cambridge 
# Structural Database, then it will include bibliographic, chemical, 
# crystal, experimental, refinement or atomic coordinate data resulting 
# from the CCDC's data processing and validation procedures.
#
#######################################################################

data_WECBIR
_symmetry_cell_setting           orthorhombic
_symmetry_space_group_name_H-M   'C m c a'
_symmetry_Int_Tables_number      64
_space_group_name_Hall           '-C 2ac 2'
loop_
_symmetry_equiv_pos_site_id
_symmetry_equiv_pos_as_xyz
1 x,y,z
2 -x,1/2-y,1/2+z
3 -x,1/2+y,1/2-z
4 x,-y,-z
5 1/2+x,1/2+y,z
6 1/2-x,-y,1/2+z
7 1/2-x,y,1/2-z
8 1/2+x,1/2-y,-z
9 -x,-y,-z
10 x,1/2+y,1/2-z
11 x,1/2-y,1/2+z
12 -x,y,z
13 1/2-x,1/2-y,-z
14 1/2+x,y,1/2-z
15 1/2+x,-y,1/2+z
16 1/2-x,1/2+y,z
_cell_length_a                   15.5337(4)
_cell_length_b                   9.8251(3)
_cell_length_c                   16.7644(5)
_cell_angle_alpha                90
_cell_angle_beta                 90
_cell_angle_gamma                90
_cell_volume                     2558.59
loop_
_atom_site_label
_atom_site_type_symbol
_atom_site_fract_x
_atom_site_fract_y
_atom_site_fract_z
N1 N 0.0221(3) 0.2163(5) 0.3017(3)
C3 C 0.1391(5) 0.0484(8) 0.2706(5)
C4 C 0.1241(2) 0.1722(4) 0.3088(2)
C5 C 0.1677(4) 0.3007(8) 0.2746(5)
C6 C -0.0412(4) 0.1100(7) 0.3284(4)
C7 C -0.0314(5) 0.0801(7) 0.4177(4)
N1K N -0.0221(3) 0.2163(5) 0.3017(3)
C4K C -0.1241(2) 0.1722(4) 0.3088(2)
C6K C 0.0412(4) 0.1100(7) 0.3284(4)
C7K C 0.0314(5) 0.0801(7) 0.4177(4)
O4 O 0.5000 0.2508(4) 0.3638(2)
Co1 Co 0.67452(4) 0.0000 0.5000
O1 O 0.57129(14) -0.0712(2) 0.43093(12)
O2 O 0.67042(13) 0.1852(2) 0.43690(14)
O3 O 0.76897(14) 0.1091(2) 0.56074(13)
C1 C 0.5000 -0.0404(4) 0.4601(2)
C2 C 0.72161(19) 0.2732(3) 0.46417(18)
O1C O 0.57129(14) 0.0712(2) 0.56907(12)
O1K O 0.42871(14) -0.0712(2) 0.43093(12)
O2C O 0.67042(13) -0.1852(2) 0.56310(14)
O3C O 0.76897(14) -0.1091(2) 0.43926(13)
O3L O 0.73103(14) 0.3909(2) 0.43926(13)
C1C C 0.5000 0.0404(4) 0.5399(2)
C2L C 0.77839(19) 0.2268(3) 0.53583(18)
loop_
_geom_bond_atom_site_label_1
_geom_bond_atom_site_label_2
_geom_bond_site_symmetry_1
_geom_bond_site_symmetry_2
Co1 O1 1_555 1_555
O1 C1 1_555 1_555
O2 Co1 1_555 1_555
O3 Co1 1_555 1_555
C1 O1K 1_555 1_555
C2 O2 1_555 1_555
N1 C4 1_555 1_555
C3 C4 1_555 1_555
C4 C5 1_555 1_555
C6 N1 1_555 1_555
C7 C6 1_555 1_555
O1C Co1 1_555 1_555
O2C Co1 1_555 1_555
O3C Co1 1_555 1_555
O3L C2 1_555 1_555
C1C C1 1_555 1_555
C2L O3 1_555 1_555
N1K N1 1_555 1_555
C4K C6 1_555 1_555
C6K N1 1_555 1_555
C7K C7 1_555 1_555
C2 C2L 1_555 1_555
C4 C6K 1_555 1_555
C6 N1K 1_555 1_555
C6 C6K 1_555 1_555
O1C C1C 1_555 1_555
N1K C4K 1_555 1_555
N1K C6K 1_555 1_555
C6K C7K 1_555 1_555

#END
