
#######################################################################
#
#                 Cambridge Crystallographic Data Centre
#                                CCDC 
#
#######################################################################
#
# If this CIF has been generated from an entry in the Cambridge 
# Structural Database, then it will include bibliographic, chemical, 
# crystal, experimental, refinement or atomic coordinate data resulting 
# from the CCDC's data processing and validation procedures.
#
#######################################################################

data_WECHUH
_symmetry_cell_setting           monoclinic
_symmetry_space_group_name_H-M   'P 21/c'
_symmetry_Int_Tables_number      14
_space_group_name_Hall           '-P 2ybc'
loop_
_symmetry_equiv_pos_site_id
_symmetry_equiv_pos_as_xyz
1 x,y,z
2 -x,1/2+y,1/2-z
3 -x,-y,-z
4 x,1/2-y,1/2+z
_cell_length_a                   10.273(3)
_cell_length_b                   6.524(4)
_cell_length_c                   10.080(4)
_cell_angle_alpha                90
_cell_angle_beta                 116.83(2)
_cell_angle_gamma                90
_cell_volume                     602.847
loop_
_atom_site_label
_atom_site_type_symbol
_atom_site_fract_x
_atom_site_fract_y
_atom_site_fract_z
Mn1 Mn -0.11618(7) -0.85343(9) 0.02692(6)
Mn2 Mn -0.23426(7) -1.02570(9) 0.26741(6)
P1 P -0.1012(1) -1.3487(1) 0.1054(1)
O1 O -0.3282(3) -0.9090(4) 0.0365(3)
O2 O -0.0781(3) -1.1738(4) 0.0139(3)
O3 O -0.1566(3) -1.5337(4) -0.0025(3)
O4 O -0.2119(3) -1.2970(4) 0.1625(3)
O5 O 0.0460(3) -1.4015(4) 0.2393(3)
O6 O -0.2779(3) -0.8571(4) -0.2167(3)
O7 O -0.5309(3) -0.9312(5) -0.1804(3)
C1 C -0.4598(4) -0.9532(6) -0.0425(4)
H1 H -0.368(6) -0.883(8) -0.222(6)
H2 H -0.277(7) -0.935(10) -0.282(7)
C1B C -0.5402(4) -1.0468(6) 0.0425(4)
O1B O -0.6718(3) -1.0910(4) -0.0365(3)
O7B O -0.4691(3) -1.0688(5) 0.1804(3)
P1B P 0.1012(1) -0.6513(1) -0.1054(1)
O2B O 0.0781(3) -0.8262(4) -0.0139(3)
O3B O 0.1566(3) -0.4663(4) 0.0025(3)
O4B O 0.2119(3) -0.7030(4) -0.1625(3)
O5B O -0.0460(3) -0.5985(4) -0.2393(3)
Mn1B Mn -0.88382(7) -1.14657(9) -0.02692(6)
Mn2B Mn -0.76574(7) -0.97430(9) -0.26741(6)
O6B O -0.7221(3) -1.1429(4) 0.2167(3)
H1B H -0.632(6) -1.117(8) 0.222(6)
H2B H -0.723(7) -1.065(10) 0.282(7)
O3_2 O -0.1566(3) -0.5337(4) -0.0025(3)
O5A O -0.0460(3) -0.9015(4) 0.2607(3)
O3C O -0.1566(3) -0.9663(4) 0.4975(3)
Mn1B_2 Mn 0.11618(7) -1.14657(9) -0.02692(6)
Mn1_2 Mn -0.11618(7) -1.85343(9) 0.02692(6)
Mn2C Mn -0.23426(7) -1.47430(9) -0.23259(6)
Mn1A Mn 0.11618(7) -1.35343(9) 0.47308(6)
Mn2A Mn 0.23426(7) -1.52570(9) 0.23259(6)
Mn1B_3 Mn 0.11618(7) -0.14657(9) -0.02692(6)
Mn2A_2 Mn 0.23426(7) -0.52570(9) 0.23259(6)
Mn2B_2 Mn 0.23426(7) -0.97430(9) -0.26741(6)
Mn1C Mn -0.11618(7) -0.64657(9) -0.47308(6)
Mn2C_2 Mn -0.23426(7) -0.47430(9) -0.23259(6)
O2_2 O -1.0781(3) -1.1738(4) 0.0139(3)
O2B_2 O -0.9219(3) -0.8262(4) -0.0139(3)
O3B_2 O -0.8434(3) -1.4663(4) 0.0025(3)
O5C O -0.9540(3) -1.0985(4) -0.2607(3)
O3A O -0.8434(3) -1.0337(4) -0.4975(3)
O4B_2 O -0.7881(3) -0.7030(4) -0.1625(3)
loop_
_geom_bond_atom_site_label_1
_geom_bond_atom_site_label_2
_geom_bond_site_symmetry_1
_geom_bond_site_symmetry_2
Mn1 O1 1_555 1_555
Mn2 O1 1_555 1_555
P1 O2 1_555 1_555
O1 C1 1_555 1_555
O2 Mn1 1_555 1_555
O3 P1 1_555 1_555
O4 Mn2 1_555 1_555
O5 P1 1_555 1_555
O6 Mn1 1_555 1_555
O7 C1 1_555 1_555
C1 C1B 1_555 1_555
H1 O6 1_555 1_555
H2 O6 1_555 1_555
C1B O1B 1_555 1_555
O1B Mn1B 1_555 1_555
O7B Mn2 1_555 1_555
P1B O2B 1_555 1_555
O2B Mn1 1_555 1_555
O3B P1B 1_555 1_555
O4B P1B 1_555 1_555
O5B P1B 1_555 1_555
Mn1B O6B 1_555 1_555
Mn2B O7 1_555 1_555
O6B H1B 1_555 1_555
H2B O6B 1_555 1_555
O3_2 Mn1 1_555 1_555
O5A Mn1 1_555 1_555
O3C Mn2 1_555 1_555
Mn1B_2 O2 1_555 1_555
Mn1_2 O3 1_555 1_555
Mn2C O3 1_555 1_555
Mn1A O5 1_555 1_555
Mn2A O5 1_555 1_555
Mn1B_3 O3B 1_555 1_555
Mn2A_2 O3B 1_555 1_555
Mn2B_2 O4B 1_555 1_555
Mn1C O5B 1_555 1_555
Mn2C_2 O5B 1_555 1_555
O2_2 Mn1B 1_555 1_555
O2B_2 Mn1B 1_555 1_555
O3B_2 Mn1B 1_555 1_555
O5C Mn1B 1_555 1_555
O3A Mn2B 1_555 1_555
O4B_2 Mn2B 1_555 1_555
Mn2 O5A 1_555 1_555
P1 O4 1_555 1_555
C1B O7B 1_555 1_555
O1B Mn2B 1_555 1_555
O2B Mn1B_2 1_555 1_555
Mn2B O5C 1_555 1_555
O3_2 Mn2C_2 1_555 1_555

#END
