
#######################################################################
#
#                 Cambridge Crystallographic Data Centre
#                                CCDC 
#
#######################################################################
#
# If this CIF has been generated from an entry in the Cambridge 
# Structural Database, then it will include bibliographic, chemical, 
# crystal, experimental, refinement or atomic coordinate data resulting 
# from the CCDC's data processing and validation procedures.
#
#######################################################################

data_WECMOG
_symmetry_cell_setting           monoclinic
_symmetry_space_group_name_H-M   'P 21/a'
_symmetry_Int_Tables_number      14
_space_group_name_Hall           '-P 2yab'
loop_
_symmetry_equiv_pos_site_id
_symmetry_equiv_pos_as_xyz
1 x,y,z
2 1/2-x,1/2+y,-z
3 -x,-y,-z
4 1/2+x,1/2-y,z
_cell_length_a                   12.632(6)
_cell_length_b                   14.783(6)
_cell_length_c                   14.480(5)
_cell_angle_alpha                90
_cell_angle_beta                 98.42(3)
_cell_angle_gamma                90
_cell_volume                     2674.83
loop_
_atom_site_label
_atom_site_type_symbol
_atom_site_fract_x
_atom_site_fract_y
_atom_site_fract_z
Cu1 Cu 0.3679(1) 0.4043(1) -0.2449(1)
S1 S 0.0482(2) 0.0708(2) -0.3732(2)
S2 S 0.2664(2) 0.3620(2) -0.4676(2)
O9 O 0.4501(5) 0.3116(5) -0.1643(4)
N1 N 0.2911(6) 0.4934(5) -0.3362(5)
N2 N 0.2615(6) 0.3080(5) -0.2901(5)
N3 N 0.1649(6) 0.1793(5) -0.2499(6)
N4 N -0.0069(6) 0.0100(5) -0.2118(5)
N5 N 0.2787(7) 0.4502(6) -0.1287(6)
C1 C 0.2749(8) 0.5772(7) -0.3077(7)
C2 C 0.2174(9) 0.6422(7) -0.3606(8)
C3 C 0.171(1) 0.6183(8) -0.448(1)
C4 C 0.1844(9) 0.5321(8) -0.4814(8)
C5 C 0.2447(8) 0.4715(7) -0.4223(7)
C6 C 0.2242(7) 0.2926(6) -0.3803(6)
C7 C 0.2281(7) 0.2502(7) -0.2295(6)
C8 C 0.1315(8) 0.1643(7) -0.3397(7)
C9 C 0.1569(8) 0.2227(7) -0.4092(7)
C10 C 0.0689(8) 0.0060(6) -0.2678(7)
C11 C 0.1591(8) -0.0471(8) -0.2485(9)
C12 C 0.1694(9) -0.0987(8) -0.1679(9)
C13 C 0.0941(8) -0.0958(8) -0.1109(8)
C14 C 0.0065(8) -0.0404(7) -0.1354(7)
C15 C 0.2172(8) 0.4743(7) -0.0857(7)
C16 C 0.137(1) 0.5042(8) -0.0283(9)
H1 H 0.3058 0.5933 -0.2461
H2 H 0.2097 0.7015 -0.3371
H3 H 0.1304 0.6612 -0.4869
H4 H 0.1532 0.5148 -0.5425
H5 H 0.2525 0.2610 -0.1653
H6 H 0.1287 0.2142 -0.4731
H7 H 0.2121 -0.0482 -0.2889
H8 H 0.2302 -0.1364 -0.1527
H9 H 0.1011 -0.1309 -0.0554
H10 H -0.0469 -0.0385 -0.0956
H11 H 0.1496 0.5659 -0.0111
H12 H 0.0675 0.4982 -0.0627
H13 H 0.1423 0.4682 0.0267
H18 H 0.5206 0.3031 -0.1653
H19 H 0.4233 0.3266 -0.1269
N4C N 0.4931(6) 0.4900(5) -0.2118(5)
Cu1C Cu -0.1321(1) 0.0957(1) -0.2449(1)
Cl1 Cl 0.3306(3) 0.7133(2) -0.0296(2)
O1 O 0.3114(8) 0.6941(6) -0.1236(5)
O2 O 0.234(1) 0.7323(9) 0.0004(7)
O3 O 0.3805(6) 0.6389(5) 0.0223(5)
O4 O 0.395(1) 0.7868(7) -0.0127(8)
Cl2 Cl 0.4653(2) 0.0930(3) -0.2763(2)
O5 O 0.489(1) 0.1295(7) -0.1900(7)
O6 O 0.433(1) 0.1654(8) -0.3338(8)
O7 O 0.3831(9) 0.0347(9) -0.284(1)
O8 O 0.5473(8) 0.0490(8) -0.3050(9)
O10 O 0.5178(7) 0.2805(9) -0.6484(8)
H17 H 0.4555 0.2877 -0.6059
O11 O 0.508(1) 0.192(1) -0.751(1)
H15 H 0.5732 0.2090 -0.7855
H16 H 0.4460 0.1830 -0.7943
H14? H 0.4753 0.2344 -0.6947
loop_
_geom_bond_atom_site_label_1
_geom_bond_atom_site_label_2
_geom_bond_site_symmetry_1
_geom_bond_site_symmetry_2
Cu1 O9 1_555 1_555
Cl1 O1 1_555 1_555
Cl2 O5 1_555 1_555
S1 C8 1_555 1_555
S2 C5 1_555 1_555
O2 Cl1 1_555 1_555
O3 Cl1 1_555 1_555
O4 Cl1 1_555 1_555
O6 Cl2 1_555 1_555
O7 Cl2 1_555 1_555
O8 Cl2 1_555 1_555
O9 H18 1_555 1_555
O10 H17 1_555 1_555
O11 H15 1_555 1_555
N1 Cu1 1_555 1_555
N2 Cu1 1_555 1_555
N3 C7 1_555 1_555
N4 C10 1_555 1_555
N5 Cu1 1_555 1_555
C1 N1 1_555 1_555
C2 C1 1_555 1_555
C3 C2 1_555 1_555
C4 C3 1_555 1_555
C5 N1 1_555 1_555
C6 S2 1_555 1_555
C7 N2 1_555 1_555
C8 N3 1_555 1_555
C9 C6 1_555 1_555
C10 S1 1_555 1_555
C11 C10 1_555 1_555
C12 C11 1_555 1_555
C13 C12 1_555 1_555
C14 N4 1_555 1_555
C15 N5 1_555 1_555
C16 C15 1_555 1_555
H1 C1 1_555 1_555
H2 C2 1_555 1_555
H3 C3 1_555 1_555
H4 C4 1_555 1_555
H5 C7 1_555 1_555
H6 C9 1_555 1_555
H7 C11 1_555 1_555
H8 C12 1_555 1_555
H9 C13 1_555 1_555
H10 C14 1_555 1_555
H11 C16 1_555 1_555
H12 C16 1_555 1_555
H13 C16 1_555 1_555
H16 O11 1_555 1_555
H19 O9 1_555 1_555
N4C Cu1 1_555 1_555
Cu1C N4 1_555 1_555
N2 C6 1_555 1_555
C4 C5 1_555 1_555
C8 C9 1_555 1_555
C13 C14 1_555 1_555

#END
