
#######################################################################
#
#                 Cambridge Crystallographic Data Centre
#                                CCDC 
#
#######################################################################
#
# If this CIF has been generated from an entry in the Cambridge 
# Structural Database, then it will include bibliographic, chemical, 
# crystal, experimental, refinement or atomic coordinate data resulting 
# from the CCDC's data processing and validation procedures.
#
#######################################################################

data_WECNEY
_symmetry_cell_setting           triclinic
_symmetry_space_group_name_H-M   'P -1'
_symmetry_Int_Tables_number      2
_space_group_name_Hall           '-P 1'
loop_
_symmetry_equiv_pos_site_id
_symmetry_equiv_pos_as_xyz
1 x,y,z
2 -x,-y,-z
_cell_length_a                   8.1437(19)
_cell_length_b                   10.318(2)
_cell_length_c                   10.491(2)
_cell_angle_alpha                112.096(4)
_cell_angle_beta                 112.377(3)
_cell_angle_gamma                94.629(4)
_cell_volume                     729.029
loop_
_atom_site_label
_atom_site_type_symbol
_atom_site_fract_x
_atom_site_fract_y
_atom_site_fract_z
Fe1 Fe 0.0000 0.5000 0.5000
Fe2 Fe 0.20264(4) 0.35927(4) 0.94208(4)
P1 P 0.00092(8) 0.56340(7) 0.82811(7)
P2 P 0.35919(8) 0.54106(7) 0.81194(7)
Cl1 Cl 0.12049(10) 0.11470(8) 0.79131(9)
O1 O 0.3024(2) 0.60693(18) 1.05817(19)
H1 H 0.4145 0.6224 1.1018
O2 O -0.0879(2) 0.64299(19) 0.9271(2)
O3 O -0.0776(2) 0.5711(2) 0.6765(2)
O4 O -0.0082(2) 0.40792(19) 0.8103(2)
O5 O 0.3408(2) 0.39661(18) 0.8242(2)
O6 O 0.5627(2) 0.62411(19) 0.8920(2)
O7 O 0.2709(2) 0.5273(2) 0.6516(2)
O8 O -0.0667(4) 0.2711(3) 0.4671(3)
H2 H -0.126(6) 0.242(5) 0.501(5)
H3 H 0.034(5) 0.239(5) 0.477(5)
C1 C 0.2516(3) 0.6453(3) 0.9290(3)
C2 C 0.3170(4) 0.8074(3) 0.9829(3)
H4 H 0.4504 0.8352 1.0340
H5 H 0.2788 0.8257 0.8931
C3 C 0.2492(4) 0.9048(3) 1.0909(3)
H6 H 0.1202 0.8969 1.0333
H7 H 0.2597 0.8721 1.1685
C4 C 0.3570(4) 1.0624(3) 1.1694(3)
H8 H 0.4826 1.0731 1.2385
H9 H 0.3603 1.0921 1.0927
C5 C 0.2706(4) 1.1579(3) 1.2583(3)
H10 H 0.1496 1.1544 1.1873
H11 H 0.2551 1.1213 1.3268
N1 N 0.3834(3) 1.3109(2) 1.3498(3)
H12 H 0.3281 1.3638 1.4009
H13 H 0.3959 1.3456 1.2872
H14 H 0.4939 1.3148 1.4162
Fe2A Fe -0.20264(4) 0.64073(4) 0.05792(4)
Fe2A_2 Fe -0.20264(4) 0.64073(4) 1.05792(4)
Fe2A_3 Fe 0.79736(4) 0.64073(4) 1.05792(4)
Fe2_2 Fe 0.20264(4) 0.35927(4) -0.05792(4)
Fe2_3 Fe -0.79736(4) 0.35927(4) -0.05792(4)
P1A P -0.00092(8) 0.43660(7) 0.17189(7)
P2A P -0.35919(8) 0.45894(7) 0.18806(7)
Cl1A Cl -0.12049(10) 0.88530(8) 0.20869(9)
O1A O -0.3024(2) 0.39307(18) -0.05817(19)
H1A H -0.4145 0.3776 -0.1018
O2A O 0.0879(2) 0.35701(19) 0.0729(2)
O2A_2 O 0.0879(2) 0.35701(19) 1.0729(2)
O2_2 O -0.0879(2) 0.64299(19) -0.0729(2)
O3A O 0.0776(2) 0.4289(2) 0.3235(2)
O4A O 0.0082(2) 0.59208(19) 0.1897(2)
O5A O -0.3408(2) 0.60339(18) 0.1758(2)
O6A O -0.5627(2) 0.37589(19) 0.1080(2)
O6A_2 O 0.4373(2) 0.37589(19) 1.1080(2)
O6_2 O -0.4373(2) 0.62411(19) -0.1080(2)
O7A O -0.2709(2) 0.4727(2) 0.3484(2)
O8A O 0.0667(4) 0.7289(3) 0.5329(3)
H2A H 0.126(6) 0.758(5) 0.499(5)
H3A H -0.034(5) 0.761(5) 0.523(5)
C1A C -0.2516(3) 0.3547(3) 0.0710(3)
C2A C -0.3170(4) 0.1926(3) 0.0171(3)
H4A H -0.4504 0.1648 -0.0340
H5A H -0.2788 0.1743 0.1069
C3A C -0.2492(4) 0.0952(3) -0.0909(3)
H6A H -0.1202 0.1031 -0.0333
H7A H -0.2597 0.1279 -0.1685
C4A C -0.3570(4) -0.0624(3) -0.1694(3)
H8A H -0.4826 -0.0731 -0.2385
H9A H -0.3603 -0.0921 -0.0927
C5A C -0.2706(4) -0.1579(3) -0.2583(3)
H10A H -0.1496 -0.1544 -0.1873
H11A H -0.2551 -0.1213 -0.3268
N1A N -0.3834(3) -0.3109(2) -0.3498(3)
H12A H -0.3281 -0.3638 -0.4009
H13A H -0.3959 -0.3456 -0.2872
H14A H -0.4939 -0.3148 -0.4162
O9 O -0.6677(7) 0.0871(6) 0.5741(5)
H15 H -0.724(12) 0.001(9) 0.524(10)
H16 H -0.764(10) 0.125(10) 0.550(11)
O10 O -0.3662(5) 0.2345(4) 0.5790(3)
H17 H -0.444(8) 0.206(7) 0.597(7)
H18 H -0.286(8) 0.268(7) 0.653(7)
loop_
_geom_bond_atom_site_label_1
_geom_bond_atom_site_label_2
_geom_bond_site_symmetry_1
_geom_bond_site_symmetry_2
Fe1 O3 1_555 1_555
Fe2 Cl1 1_555 1_555
P1 O2 1_555 1_555
P2 O5 1_555 1_555
O1 Fe2 1_555 1_555
H1 O1 1_555 1_555
O2 Fe2A_2 1_555 1_555
O3 P1 1_555 1_555
O4 Fe2 1_555 1_555
O5 Fe2 1_555 1_555
O6 P2 1_555 1_555
O7 Fe1 1_555 1_555
O8 Fe1 1_555 1_555
H2 O8 1_555 1_555
H3 O8 1_555 1_555
C1 P1 1_555 1_555
C2 C1 1_555 1_555
H4 C2 1_555 1_555
H5 C2 1_555 1_555
C3 C2 1_555 1_555
H6 C3 1_555 1_555
H7 C3 1_555 1_555
C4 C3 1_555 1_555
H8 C4 1_555 1_555
H9 C4 1_555 1_555
C5 C4 1_555 1_555
H10 C5 1_555 1_555
H11 C5 1_555 1_555
N1 C5 1_555 1_555
H12 N1 1_555 1_555
H13 N1 1_555 1_555
H14 N1 1_555 1_555
O9 H15 1_555 1_555
H16 O9 1_555 1_555
O10 H17 1_555 1_555
H18 O10 1_555 1_555
Fe2A Cl1A 1_555 1_555
Fe2A_3 O6 1_555 1_555
Fe2_2 O2A 1_555 1_555
Fe2_3 O6A 1_555 1_555
P1A O2A 1_555 1_555
P2A O5A 1_555 1_555
O1A Fe2A 1_555 1_555
H1A O1A 1_555 1_555
O2A_2 Fe2 1_555 1_555
O2_2 Fe2A 1_555 1_555
O3A Fe1 1_555 1_555
O4A Fe2A 1_555 1_555
O5A Fe2A 1_555 1_555
O6A P2A 1_555 1_555
O6A_2 Fe2 1_555 1_555
O6_2 Fe2A 1_555 1_555
O7A Fe1 1_555 1_555
O8A Fe1 1_555 1_555
H2A O8A 1_555 1_555
H3A O8A 1_555 1_555
C1A P1A 1_555 1_555
C2A C1A 1_555 1_555
H4A C2A 1_555 1_555
H5A C2A 1_555 1_555
C3A C2A 1_555 1_555
H6A C3A 1_555 1_555
H7A C3A 1_555 1_555
C4A C3A 1_555 1_555
H8A C4A 1_555 1_555
H9A C4A 1_555 1_555
C5A C4A 1_555 1_555
H10A C5A 1_555 1_555
H11A C5A 1_555 1_555
N1A C5A 1_555 1_555
H12A N1A 1_555 1_555
H13A N1A 1_555 1_555
H14A N1A 1_555 1_555
P1 O4 1_555 1_555
P2 O7 1_555 1_555
P2 C1 1_555 1_555
O1 C1 1_555 1_555
P1A O3A 1_555 1_555
P1A O4A 1_555 1_555
P2A O7A 1_555 1_555
P2A C1A 1_555 1_555
O1A C1A 1_555 1_555

#END
