
#######################################################################
#
#                 Cambridge Crystallographic Data Centre
#                                CCDC 
#
#######################################################################
#
# If this CIF has been generated from an entry in the Cambridge 
# Structural Database, then it will include bibliographic, chemical, 
# crystal, experimental, refinement or atomic coordinate data resulting 
# from the CCDC's data processing and validation procedures.
#
#######################################################################

data_WECRUS
_symmetry_cell_setting           monoclinic
_symmetry_space_group_name_H-M   'P 21/c'
_symmetry_Int_Tables_number      14
_space_group_name_Hall           '-P 2ybc'
loop_
_symmetry_equiv_pos_site_id
_symmetry_equiv_pos_as_xyz
1 x,y,z
2 -x,1/2+y,1/2-z
3 -x,-y,-z
4 x,1/2-y,1/2+z
_cell_length_a                   19.396(5)
_cell_length_b                   12.644(3)
_cell_length_c                   9.881(3)
_cell_angle_alpha                90
_cell_angle_beta                 95.08(2)
_cell_angle_gamma                90
_cell_volume                     2413.73
loop_
_atom_site_label
_atom_site_type_symbol
_atom_site_fract_x
_atom_site_fract_y
_atom_site_fract_z
La1 La 0.50140(4) -0.52466(6) 0.77238(7)
O1 O 0.4363(4) -0.6629(6) 0.8987(8)
O2 O 0.4195(4) -0.6198(6) 1.1113(7)
O3 O 0.0852(5) -0.6707(8) 0.7120(9)
O4 O 0.4014(4) -0.5462(7) 0.6022(8)
O5 O 0.4195(4) -0.4710(7) 0.4048(8)
O6 O 0.0708(4) -0.5105(8) 0.1988(9)
O7 O 0.6000(4) -0.6275(7) 0.8859(8)
O8 O 0.5750(4) -0.5682(7) 1.0875(8)
O9 O 0.9171(4) -0.6848(8) 1.3306(9)
O10 O 0.5151(5) -0.7084(6) 0.6589(8)
O11 O 0.4850(4) -0.3537(7) 0.6279(8)
N1 N 0.0598(6) -0.5959(11) 0.9100(12)
N2 N 0.0466(6) -0.5748(11) 0.4035(11)
N3 N 0.9427(6) -0.7441(10) 1.1240(11)
C1 C 0.3210(7) -0.6559(9) 0.9586(11)
C2 C 0.2939(7) -0.7040(9) 0.8408(11)
H1 H 0.3241 -0.7378 0.7838
C3 C 0.2240(7) -0.7041(11) 0.8040(13)
H2 H 0.2061 -0.7407 0.7246
C4 C 0.1798(7) -0.6513(11) 0.8821(12)
C5 C 0.2047(7) -0.6049(10) 1.0050(12)
H3 H 0.1739 -0.5716 1.0613
C6 C 0.2752(7) -0.6083(10) 1.0436(11)
H4 H 0.2927 -0.5784 1.1279
C7 C 0.3985(7) -0.6464(9) 0.9923(12)
C8 C 0.1036(7) -0.6399(11) 0.8312(13)
C9 C 0.3034(5) -0.5125(9) 0.4497(11)
C10 C 0.2613(6) -0.5741(10) 0.5225(11)
H5 H 0.2799 -0.6128 0.5997
C11 C 0.1910(7) -0.5788(11) 0.4809(13)
H6 H 0.1616 -0.6218 0.5297
C12 C 0.1632(7) -0.5218(11) 0.3697(12)
C13 C 0.2052(7) -0.4558(10) 0.3014(13)
H7 H 0.1855 -0.4129 0.2291
C14 C 0.2768(6) -0.4519(10) 0.3384(11)
H8 H 0.3064 -0.4093 0.2894
C15 C 0.3813(6) -0.5106(9) 0.4865(10)
C16 C 0.0879(7) -0.5364(11) 0.3181(13)
C17 C 0.6888(6) -0.6406(9) 1.0637(11)
C18 C 0.7300(6) -0.7003(9) 0.9853(12)
H9 H 0.7112 -0.7267 0.8999
C19 C 0.7986(6) -0.7221(10) 1.0304(12)
H10 H 0.8266 -0.7651 0.9784
C20 C 0.8250(6) -0.6790(10) 1.1537(11)
C21 C 0.7846(7) -0.6193(10) 1.2313(13)
H11 H 0.8037 -0.5912 1.3157
C22 C 0.7167(6) -0.6003(9) 1.1872(11)
H12 H 0.6887 -0.5593 1.2414
C23 C 0.6157(6) -0.6116(10) 1.0099(12)
C24 C 0.8996(6) -0.7042(10) 1.2083(13)
La1B La 0.49860(4) -0.47534(6) 1.22762(7)
La1B_2 La 0.49860(4) -0.47534(6) 0.22762(7)
O2B O 0.5805(4) -0.3802(6) 0.8887(7)
O5B O 0.5805(4) -0.5290(7) 0.5952(8)
O8B O 0.4250(4) -0.4318(7) 0.9125(8)
loop_
_geom_bond_atom_site_label_1
_geom_bond_atom_site_label_2
_geom_bond_site_symmetry_1
_geom_bond_site_symmetry_2
La1 O1 1_555 1_555
O1 C7 1_555 1_555
O2 C7 1_555 1_555
O3 C8 1_555 1_555
O4 La1 1_555 1_555
O5 C15 1_555 1_555
O6 C16 1_555 1_555
O7 La1 1_555 1_555
O8 C23 1_555 1_555
O9 C24 1_555 1_555
O10 La1 1_555 1_555
O11 La1 1_555 1_555
N1 C8 1_555 1_555
N2 C16 1_555 1_555
N3 C24 1_555 1_555
C1 C2 1_555 1_555
C2 H1 1_555 1_555
C3 C2 1_555 1_555
H2 C3 1_555 1_555
C4 C3 1_555 1_555
C5 C4 1_555 1_555
H3 C5 1_555 1_555
C6 C1 1_555 1_555
H4 C6 1_555 1_555
C7 C1 1_555 1_555
C8 C4 1_555 1_555
C9 C10 1_555 1_555
C10 H5 1_555 1_555
C11 C10 1_555 1_555
H6 C11 1_555 1_555
C12 C11 1_555 1_555
C13 C12 1_555 1_555
H7 C13 1_555 1_555
C14 C9 1_555 1_555
H8 C14 1_555 1_555
C15 O4 1_555 1_555
C16 C12 1_555 1_555
C17 C18 1_555 1_555
C18 H9 1_555 1_555
C19 C18 1_555 1_555
H10 C19 1_555 1_555
C20 C19 1_555 1_555
C21 C20 1_555 1_555
H11 C21 1_555 1_555
C22 C17 1_555 1_555
H12 C22 1_555 1_555
C23 O7 1_555 1_555
C24 C20 1_555 1_555
La1B O2 1_555 1_555
La1B_2 O5 1_555 1_555
O2B La1 1_555 1_555
O5B La1 1_555 1_555
O8B La1 1_555 1_555
O8 La1B 1_555 1_555
C5 C6 1_555 1_555
C9 C15 1_555 1_555
C13 C14 1_555 1_555
C17 C23 1_555 1_555
C21 C22 1_555 1_555

#END
