
#######################################################################
#
#                 Cambridge Crystallographic Data Centre
#                                CCDC 
#
#######################################################################
#
# If this CIF has been generated from an entry in the Cambridge 
# Structural Database, then it will include bibliographic, chemical, 
# crystal, experimental, refinement or atomic coordinate data resulting 
# from the CCDC's data processing and validation procedures.
#
#######################################################################

data_WECROM
_symmetry_cell_setting           orthorhombic
_symmetry_space_group_name_H-M   'P 21 21 21'
_symmetry_Int_Tables_number      19
_space_group_name_Hall           'P 2ac 2ab'
loop_
_symmetry_equiv_pos_site_id
_symmetry_equiv_pos_as_xyz
1 x,y,z
2 1/2-x,-y,1/2+z
3 -x,1/2+y,1/2-z
4 1/2+x,1/2-y,-z
_cell_length_a                   5.2647(3)
_cell_length_b                   17.0569(9)
_cell_length_c                   23.5630(13)
_cell_angle_alpha                90
_cell_angle_beta                 90
_cell_angle_gamma                90
_cell_volume                     2115.94
loop_
_atom_site_label
_atom_site_type_symbol
_atom_site_fract_x
_atom_site_fract_y
_atom_site_fract_z
Mn1 Mn 0.27397(5) 0.882682(16) 0.860028(11)
S1 S 0.40561(9) 1.04333(3) 1.02977(2)
O1 O 0.6057(3) 0.94052(8) 0.89473(5)
O2 O 1.0122(3) 0.92876(8) 0.92015(6)
O3 O 0.8833(4) 0.71230(10) 1.08220(8)
O4 O 0.6199(3) 0.74199(9) 1.14823(6)
O5 O 0.5780(3) 1.05607(9) 1.07564(6)
O6 O 0.1390(3) 1.05138(10) 1.03960(7)
N1 N 0.5027(3) 0.86388(10) 0.78079(7)
N2 N 0.1471(3) 0.97254(9) 0.79333(7)
N3 N 0.4495(3) 0.95541(9) 1.00596(6)
H1 H 0.3226 0.9246 1.0003
C1 C 0.4891(4) 1.10953(12) 0.97468(10)
C2 C 0.3436(5) 1.11097(14) 0.92596(11)
H2 H 0.2064 1.0771 0.9220
C3 C 0.4036(6) 1.16332(16) 0.88290(13)
H3 H 0.3076 1.1641 0.8498
C4 C 0.6030(6) 1.21350(16) 0.88915(15)
H4 H 0.6398 1.2494 0.8606
C5 C 0.7503(6) 1.21141(15) 0.93728(14)
H5 H 0.8878 1.2453 0.9408
C6 C 0.6951(4) 1.15906(13) 0.98064(12)
H6 H 0.7951 1.1573 1.0132
C7 C 0.7404(4) 0.76068(11) 1.10498(8)
C8 C 0.7137(6) 0.84182(13) 1.08050(9)
H7 H 0.8346 0.8762 1.0991
H8 H 0.5447 0.8613 1.0889
C9 C 0.7562(4) 0.84596(10) 1.01705(7)
H9 H 0.6424 0.8096 0.9982
H10 H 0.9291 0.8303 1.0085
C10 C 0.7098(4) 0.92905(10) 0.99418(7)
H11 H 0.8257 0.9645 1.0142
C11 C 0.7757(4) 0.93278(9) 0.93100(7)
C12 C 0.6825(4) 0.80884(12) 0.77795(9)
H12 H 0.7009 0.7745 0.8083
C13 C 0.8421(5) 0.80064(14) 0.73194(9)
H13 H 0.9674 0.7622 0.7316
C14 C 0.8122(5) 0.85039(14) 0.68671(10)
H14 H 0.9159 0.8457 0.6549
C15 C 0.6269(5) 0.90736(13) 0.68882(9)
H15 H 0.6032 0.9411 0.6583
C16 C 0.4764(4) 0.91394(12) 0.73677(8)
C17 C 0.2811(4) 0.97554(11) 0.74461(7)
C18 C 0.2368(5) 1.03472(13) 0.70475(8)
H16 H 0.3306 1.0362 0.6713
C19 C 0.0545(5) 1.09069(14) 0.71502(10)
H17 H 0.0271 1.1312 0.6893
C20 C -0.0858(5) 1.08566(13) 0.76377(10)
H18 H -0.2136 1.1219 0.7712
C21 C -0.0356(4) 1.02629(12) 0.80178(9)
H19 H -0.1324 1.0233 0.8347
Mn1_2 Mn 1.27397(5) 0.882682(16) 0.860028(11)
Mn1C Mn 0.77397(5) 0.617318(16) 1.139972(11)
O2_2 O 0.0122(3) 0.92876(8) 0.92015(6)
O3C O 0.3833(4) 0.78770(10) 0.91780(8)
O4C O 0.1199(3) 0.75801(9) 0.85177(6)
loop_
_geom_bond_atom_site_label_1
_geom_bond_atom_site_label_2
_geom_bond_site_symmetry_1
_geom_bond_site_symmetry_2
Mn1 O1 1_555 1_555
S1 O5 1_555 1_555
O1 C11 1_555 1_555
O2 C11 1_555 1_555
O3 C7 1_555 1_555
O4 C7 1_555 1_555
O6 S1 1_555 1_555
N1 Mn1 1_555 1_555
N2 Mn1 1_555 1_555
N3 S1 1_555 1_555
H1 N3 1_555 1_555
C1 S1 1_555 1_555
C2 C1 1_555 1_555
H2 C2 1_555 1_555
C3 C2 1_555 1_555
H3 C3 1_555 1_555
C4 C3 1_555 1_555
H4 C4 1_555 1_555
C5 C4 1_555 1_555
H5 C5 1_555 1_555
C6 C1 1_555 1_555
H6 C6 1_555 1_555
C7 C8 1_555 1_555
C8 H7 1_555 1_555
H8 C8 1_555 1_555
C9 C8 1_555 1_555
H9 C9 1_555 1_555
H10 C9 1_555 1_555
C10 N3 1_555 1_555
H11 C10 1_555 1_555
C11 C10 1_555 1_555
C12 N1 1_555 1_555
H12 C12 1_555 1_555
C13 C12 1_555 1_555
H13 C13 1_555 1_555
C14 C13 1_555 1_555
H14 C14 1_555 1_555
C15 C14 1_555 1_555
H15 C15 1_555 1_555
C16 N1 1_555 1_555
C17 N2 1_555 1_555
C18 C17 1_555 1_555
H16 C18 1_555 1_555
C19 C18 1_555 1_555
H17 C19 1_555 1_555
C20 C19 1_555 1_555
H18 C20 1_555 1_555
C21 N2 1_555 1_555
H19 C21 1_555 1_555
Mn1_2 O2 1_555 1_555
Mn1C O3 1_555 1_555
O2_2 Mn1 1_555 1_555
O3C Mn1 1_555 1_555
O4C Mn1 1_555 1_555
O4 Mn1C 1_555 1_555
C5 C6 1_555 1_555
C9 C10 1_555 1_555
C15 C16 1_555 1_555
C16 C17 1_555 1_555
C20 C21 1_555 1_555

#END
