
#######################################################################
#
#                 Cambridge Crystallographic Data Centre
#                                CCDC 
#
#######################################################################
#
# If this CIF has been generated from an entry in the Cambridge 
# Structural Database, then it will include bibliographic, chemical, 
# crystal, experimental, refinement or atomic coordinate data resulting 
# from the CCDC's data processing and validation procedures.
#
#######################################################################

data_WECRIG
_symmetry_cell_setting           monoclinic
_symmetry_space_group_name_H-M   'P 21/n'
_symmetry_Int_Tables_number      14
_space_group_name_Hall           '-P 2yn'
loop_
_symmetry_equiv_pos_site_id
_symmetry_equiv_pos_as_xyz
1 x,y,z
2 1/2-x,1/2+y,1/2-z
3 -x,-y,-z
4 1/2+x,1/2-y,1/2+z
_cell_length_a                   9.834(1)
_cell_length_b                   16.432(2)
_cell_length_c                   17.454(2)
_cell_angle_alpha                90.00
_cell_angle_beta                 103.891(2)
_cell_angle_gamma                90.00
_cell_volume                     2737.95
loop_
_atom_site_label
_atom_site_type_symbol
_atom_site_fract_x
_atom_site_fract_y
_atom_site_fract_z
Cu1 Cu 0.61574(6) 0.64222(3) 0.95998(3)
Cu2 Cu 0.59511(6) 0.82287(3) 0.99335(3)
Br1 Br 0.43854(6) 0.78720(4) 0.55237(3)
Br2 Br 0.39132(6) 0.67301(4) 1.34294(3)
S1 S 0.6998(2) 1.05773(9) 0.86946(9)
S2 S 0.34661(15) 0.58893(8) 0.88164(8)
O1 O 0.5705(3) 0.74283(16) 0.90427(16)
O2 O 0.5775(3) 0.71868(17) 1.04177(16)
O3 O 0.3655(4) 0.8511(2) 0.9820(2)
N1 N 0.7150(4) 0.6044(2) 0.8794(2)
N2 N 0.6615(4) 0.8750(2) 1.0976(2)
N3 N 0.6353(5) 0.9122(2) 0.9323(2)
N4 N 0.3402(4) 0.4498(2) 0.9706(2)
C1 C 0.5913(5) 0.6977(2) 0.7785(2)
C2 C 0.5361(5) 0.7509(3) 0.8261(3)
C3 C 0.4470(5) 0.8126(2) 0.7897(3)
H1 H 0.4079 0.8476 0.8204
C4 C 0.4154(5) 0.8230(3) 0.7092(3)
H2 H 0.3545 0.8641 0.6858
C5 C 0.4742(5) 0.7723(3) 0.6634(2)
C6 C 0.5603(5) 0.7104(3) 0.6969(3)
H3 H 0.5988 0.6763 0.6651
C7 C 0.6860(5) 0.6324(3) 0.8093(3)
H4 H 0.7311 0.6079 0.7742
C8 C 0.8235(6) 0.5439(3) 0.9019(3)
H5 H 0.8124 0.5093 0.9457
C9 C 0.9679(6) 0.5640(5) 0.9046(4)
H6 H 0.9868 0.6166 0.8842
H7 H 1.0390 0.5450 0.9496
C10 C 0.8971(8) 0.5039(5) 0.8486(4)
H8 H 0.9236 0.4473 0.8587
H9 H 0.8714 0.5190 0.7932
C11 C 0.5688(5) 0.7685(3) 1.1679(2)
C12 C 0.5380(5) 0.7094(3) 1.1090(2)
C13 C 0.4629(5) 0.6408(3) 1.1214(3)
H10 H 0.4399 0.6015 1.0820
C14 C 0.4220(5) 0.6301(3) 1.1910(3)
H11 H 0.3724 0.5837 1.1983
C15 C 0.4541(5) 0.6874(3) 1.2491(3)
C16 C 0.5267(5) 0.7567(3) 1.2387(3)
H12 H 0.5479 0.7956 1.2784
C17 C 0.6387(5) 0.8449(3) 1.1605(3)
H13 H 0.6700 0.8750 1.2065
C18 C 0.7220(6) 0.9569(3) 1.1016(3)
H14 H 0.6562 1.0000 1.0784
C19 C 0.8636(7) 0.9664(4) 1.0905(4)
H15 H 0.8819 1.0128 1.0601
H16 H 0.9150 0.9175 1.0843
C20 C 0.8369(7) 0.9825(4) 1.1693(3)
H17 H 0.8380 1.0386 1.1867
H18 H 0.8712 0.9432 1.2109
C21 C 0.6621(5) 0.9721(3) 0.9058(3)
C22 C 0.3423(5) 0.5073(3) 0.9333(2)
C23 C 0.2576(7) 0.7924(4) 0.9613(4)
H19 H 0.2773 0.7564 0.9220
H20 H 0.1697 0.8192 0.9407
H21 H 0.2525 0.7616 1.0073
H22 H 0.337(6) 0.871(3) 1.023(2)
Cu1B Cu 0.38426(6) 0.35778(3) 1.04002(3)
N4B N 0.6598(4) 0.5502(2) 1.0294(2)
loop_
_geom_bond_atom_site_label_1
_geom_bond_atom_site_label_2
_geom_bond_site_symmetry_1
_geom_bond_site_symmetry_2
Cu1 S2 1_555 1_555
Cu2 O1 1_555 1_555
Br1 C5 1_555 1_555
Br2 C15 1_555 1_555
S1 C21 1_555 1_555
S2 C22 1_555 1_555
O1 Cu1 1_555 1_555
O2 Cu1 1_555 1_555
O3 Cu2 1_555 1_555
N1 Cu1 1_555 1_555
N2 Cu2 1_555 1_555
N3 Cu2 1_555 1_555
N4 C22 1_555 1_555
C1 C2 1_555 1_555
C2 O1 1_555 1_555
C3 C2 1_555 1_555
H1 C3 1_555 1_555
C4 C3 1_555 1_555
H2 C4 1_555 1_555
C5 C4 1_555 1_555
C6 C1 1_555 1_555
H3 C6 1_555 1_555
C7 N1 1_555 1_555
H4 C7 1_555 1_555
C8 N1 1_555 1_555
H5 C8 1_555 1_555
C9 C8 1_555 1_555
H6 C9 1_555 1_555
H7 C9 1_555 1_555
C10 C8 1_555 1_555
H8 C10 1_555 1_555
H9 C10 1_555 1_555
C11 C12 1_555 1_555
C12 O2 1_555 1_555
C13 C12 1_555 1_555
H10 C13 1_555 1_555
C14 C13 1_555 1_555
H11 C14 1_555 1_555
C15 C14 1_555 1_555
C16 C11 1_555 1_555
H12 C16 1_555 1_555
C17 N2 1_555 1_555
H13 C17 1_555 1_555
C18 N2 1_555 1_555
H14 C18 1_555 1_555
C19 C18 1_555 1_555
H15 C19 1_555 1_555
H16 C19 1_555 1_555
C20 C18 1_555 1_555
H17 C20 1_555 1_555
H18 C20 1_555 1_555
C21 N3 1_555 1_555
C23 O3 1_555 1_555
H19 C23 1_555 1_555
H20 C23 1_555 1_555
H21 C23 1_555 1_555
H22 O3 1_555 1_555
Cu1B N4 1_555 1_555
N4B Cu1 1_555 1_555
Cu2 O2 1_555 1_555
C1 C7 1_555 1_555
C5 C6 1_555 1_555
C9 C10 1_555 1_555
C11 C17 1_555 1_555
C15 C16 1_555 1_555
C19 C20 1_555 1_555

#END
