
#######################################################################
#
#                 Cambridge Crystallographic Data Centre
#                                CCDC 
#
#######################################################################
#
# If this CIF has been generated from an entry in the Cambridge 
# Structural Database, then it will include bibliographic, chemical, 
# crystal, experimental, refinement or atomic coordinate data resulting 
# from the CCDC's data processing and validation procedures.
#
#######################################################################

data_WECSAZ01
_symmetry_cell_setting           triclinic
_symmetry_space_group_name_H-M   'P -1'
_symmetry_Int_Tables_number      2
_space_group_name_Hall           '-P 1'
loop_
_symmetry_equiv_pos_site_id
_symmetry_equiv_pos_as_xyz
1 x,y,z
2 -x,-y,-z
_cell_length_a                   8.613(2)
_cell_length_b                   10.122(3)
_cell_length_c                   11.095(3)
_cell_angle_alpha                65.205(4)
_cell_angle_beta                 71.609(5)
_cell_angle_gamma                78.617(5)
_cell_volume                     830.874
loop_
_atom_site_label
_atom_site_type_symbol
_atom_site_fract_x
_atom_site_fract_y
_atom_site_fract_z
Eu1 Eu 0.63218(4) 0.93939(4) 0.65326(4)
C1 C 0.4286(9) 1.2647(9) 0.4504(10)
C2 C 0.4689(10) 1.3865(10) 0.4760(10)
C3 C 0.4564(11) 1.3695(10) 0.6085(10)
H1 H 0.4241 1.2831 0.6824
C4 C 0.5069(11) 1.5150(10) 0.3712(11)
H2 H 0.5085 1.5268 0.2830
C5 C 0.3210(10) 0.9589(10) 0.8321(9)
C6 C 0.1546(9) 0.9822(9) 0.9180(9)
C7 C 0.0251(11) 0.9109(10) 0.9286(10)
H3 H 0.0423 0.8516 0.8796
C8 C 0.1293(11) 1.0718(11) 0.9882(10)
H4 H 0.2153 1.1206 0.9800
C9 C 0.8258(10) 0.7336(9) 0.8174(10)
C10 C 0.9180(10) 0.6116(10) 0.9122(10)
C11 C 0.8392(10) 0.5392(10) 1.0506(11)
H5 H 0.7295 0.5655 1.0843
C12 C 1.0800(10) 0.5687(11) 0.8634(11)
H6 H 1.1337 0.6141 0.7710
C13 C 0.7376(14) 1.1718(11) 0.7555(13)
H7 H 0.6460 1.1513 0.8306
C14 C 0.783(2) 1.349(2) 0.828(2)
H8 H 0.6820 1.3147 0.8944
H9 H 0.7678 1.4520 0.7767
H10 H 0.8670 1.3306 0.8739
C15 C 0.980(2) 1.298(2) 0.624(2)
H11 H 0.9909 1.2358 0.5762
H12 H 1.0728 1.2779 0.6616
H13 H 0.9766 1.3984 0.5613
N1 N 0.8316(14) 1.2728(13) 0.7339(12)
O1 O 0.4632(7) 1.1318(6) 0.5220(6)
O2 O 0.3662(8) 1.2964(7) 0.3536(8)
O3 O 0.3443(6) 0.8794(6) 0.7653(6)
O4 O 0.4368(7) 1.0248(7) 0.8238(7)
O5 O 0.8988(7) 0.7988(7) 0.6959(6)
O6 O 0.6780(7) 0.7646(7) 0.8691(7)
O7 O 0.7672(8) 1.1035(8) 0.6794(8)
O8 O 0.8168(7) 1.0432(8) 0.4306(7)
H14 H 0.7763 1.0521 0.3667
H15 H 0.8985 1.0952 0.3942
Eu1A Eu 0.36782(4) 2.06061(4) 0.34674(4)
Eu1A_2 Eu 0.36782(4) 1.06061(4) 0.34674(4)
Eu1_2 Eu 0.63218(4) 1.93939(4) 0.65326(4)
Eu1A_3 Eu -0.63218(4) 1.06061(4) 1.34674(4)
Eu1A_4 Eu 1.36782(4) 0.06061(4) 1.34674(4)
C1A C 0.5714(9) 1.7353(9) 0.5496(10)
C2A C 0.5311(10) 1.6135(10) 0.5240(10)
C3A C 0.5436(11) 1.6305(10) 0.3915(10)
H1A H 0.5759 1.7169 0.3176
C4A C 0.4931(11) 1.4850(10) 0.6288(11)
H2A H 0.4915 1.4732 0.7170
C5A C -0.3210(10) 1.0411(10) 1.1679(9)
C6A C -0.1546(9) 1.0178(9) 1.0820(9)
C7A C -0.0251(11) 1.0891(10) 1.0714(10)
H3A H -0.0423 1.1484 1.1204
C8A C -0.1293(11) 0.9282(11) 1.0118(10)
H4A H -0.2153 0.8794 1.0200
C9A C 1.1742(10) 0.2664(9) 1.1826(10)
C10A C 1.0820(10) 0.3884(10) 1.0878(10)
C11A C 1.1608(10) 0.4608(10) 0.9494(11)
H5A H 1.2705 0.4345 0.9157
C12A C 0.9200(10) 0.4313(11) 1.1366(11)
H6A H 0.8663 0.3859 1.2290
C13A C 0.2624(14) 1.8282(11) 0.2445(13)
H7A H 0.3540 1.8487 0.1694
C14A C 0.217(2) 1.651(2) 0.172(2)
H8A H 0.3180 1.6853 0.1056
H9A H 0.2322 1.5480 0.2233
H10A H 0.1330 1.6694 0.1261
C15A C 0.020(2) 1.702(2) 0.376(2)
H11A H 0.0091 1.7642 0.4238
H12A H -0.0728 1.7221 0.3384
H13A H 0.0234 1.6016 0.4387
N1A N 0.1684(14) 1.7272(13) 0.2661(12)
O1A O 0.5368(7) 1.8682(6) 0.4780(6)
O2A O 0.6338(8) 1.7036(7) 0.6464(8)
O2A_2 O 0.6338(8) 0.7036(7) 0.6464(8)
O2_2 O 0.3662(8) 2.2964(7) 0.3536(8)
O3A O -0.3443(6) 1.1206(6) 1.2347(6)
O3A_2 O 0.6557(6) 2.1206(6) 0.2347(6)
O4A O -0.4368(7) 0.9752(7) 1.1762(7)
O4A_2 O 0.5632(7) 1.9752(7) 0.1762(7)
O5A O 1.1012(7) 0.2012(7) 1.3041(6)
O5A_2 O 0.1012(7) 2.2012(7) 0.3041(6)
O6A O 1.3220(7) 0.2354(7) 1.1309(7)
O6A_2 O 0.3220(7) 2.2354(7) 0.1309(7)
O7A O 0.2328(8) 1.8965(8) 0.3206(8)
O8A O 0.1832(7) 1.9568(8) 0.5694(7)
H14A H 0.2237 1.9479 0.6333
H15A H 0.1015 1.9048 0.6058
loop_
_geom_bond_atom_site_label_1
_geom_bond_atom_site_label_2
_geom_bond_site_symmetry_1
_geom_bond_site_symmetry_2
Eu1 O1 1_555 1_555
C1 C2 1_555 1_555
C2 C3 1_555 1_555
C3 H1 1_555 1_555
C4 C2 1_555 1_555
H2 C4 1_555 1_555
C5 C6 1_555 1_555
C6 C7 1_555 1_555
C7 H3 1_555 1_555
C8 C6 1_555 1_555
H4 C8 1_555 1_555
C9 C10 1_555 1_555
C10 C11 1_555 1_555
C11 H5 1_555 1_555
C12 C10 1_555 1_555
H6 C12 1_555 1_555
C13 H7 1_555 1_555
C14 H8 1_555 1_555
H9 C14 1_555 1_555
H10 C14 1_555 1_555
C15 H11 1_555 1_555
H12 C15 1_555 1_555
H13 C15 1_555 1_555
N1 C13 1_555 1_555
O1 C1 1_555 1_555
O2 C1 1_555 1_555
O3 Eu1 1_555 1_555
O4 Eu1 1_555 1_555
O5 Eu1 1_555 1_555
O6 Eu1 1_555 1_555
O7 Eu1 1_555 1_555
O8 Eu1 1_555 1_555
H14 O8 1_555 1_555
H15 O8 1_555 1_555
Eu1A O1A 1_555 1_555
Eu1A_2 O2 1_555 1_555
Eu1_2 O2A 1_555 1_555
Eu1A_3 O3A 1_555 1_555
Eu1A_4 O5A 1_555 1_555
C1A C2A 1_555 1_555
C2A C3A 1_555 1_555
C3A C4 1_555 1_555
H1A C3A 1_555 1_555
C4A C3 1_555 1_555
H2A C4A 1_555 1_555
C5A C6A 1_555 1_555
C6A C7A 1_555 1_555
C7A C8 1_555 1_555
H3A C7A 1_555 1_555
C8A C7 1_555 1_555
H4A C8A 1_555 1_555
C9A C10A 1_555 1_555
C10A C11A 1_555 1_555
C11A C12 1_555 1_555
H5A C11A 1_555 1_555
C12A C11 1_555 1_555
H6A C12A 1_555 1_555
C13A H7A 1_555 1_555
C14A H8A 1_555 1_555
H9A C14A 1_555 1_555
H10A C14A 1_555 1_555
C15A H11A 1_555 1_555
H12A C15A 1_555 1_555
H13A C15A 1_555 1_555
N1A C13A 1_555 1_555
O1A C1A 1_555 1_555
O2A C1A 1_555 1_555
O2A_2 Eu1 1_555 1_555
O2_2 Eu1A 1_555 1_555
O3A C5A 1_555 1_555
O3A_2 Eu1A 1_555 1_555
O4A Eu1A_3 1_555 1_555
O4A_2 Eu1A 1_555 1_555
O5A C9A 1_555 1_555
O5A_2 Eu1A 1_555 1_555
O6A Eu1A_4 1_555 1_555
O6A_2 Eu1A 1_555 1_555
O7A Eu1A 1_555 1_555
O8A Eu1A 1_555 1_555
H14A O8A 1_555 1_555
H15A O8A 1_555 1_555
C5 O3 1_555 1_555
C5 O4 1_555 1_555
C9 O5 1_555 1_555
C9 O6 1_555 1_555
C13 O7 1_555 1_555
C14 N1 1_555 1_555
C15 N1 1_555 1_555
C2A C4A 1_555 1_555
C5A O4A 1_555 1_555
C6A C8A 1_555 1_555
C9A O6A 1_555 1_555
C10A C12A 1_555 1_555
C13A O7A 1_555 1_555
C14A N1A 1_555 1_555
C15A N1A 1_555 1_555

#END
