
#######################################################################
#
#                 Cambridge Crystallographic Data Centre
#                                CCDC 
#
#######################################################################
#
# If this CIF has been generated from an entry in the Cambridge 
# Structural Database, then it will include bibliographic, chemical, 
# crystal, experimental, refinement or atomic coordinate data resulting 
# from the CCDC's data processing and validation procedures.
#
#######################################################################

data_WECSAZ
_symmetry_cell_setting           triclinic
_symmetry_space_group_name_H-M   'P -1'
_symmetry_Int_Tables_number      2
_space_group_name_Hall           '-P 1'
loop_
_symmetry_equiv_pos_site_id
_symmetry_equiv_pos_as_xyz
1 x,y,z
2 -x,-y,-z
_cell_length_a                   8.620(5)
_cell_length_b                   10.238(5)
_cell_length_c                   11.075(7)
_cell_angle_alpha                64.03(5)
_cell_angle_beta                 71.59(5)
_cell_angle_gamma                80.34(5)
_cell_volume                     833.223
loop_
_atom_site_label
_atom_site_type_symbol
_atom_site_fract_x
_atom_site_fract_y
_atom_site_fract_z
Eu1 Eu 0.13116(3) 0.43740(3) 0.15505(3)
O1 O 0.0307(5) 0.3665(3) -0.0178(4)
O2 O 0.1234(5) 0.2016(4) 0.1542(4)
O3 O -0.1588(4) 0.3758(4) 0.2713(4)
O4 O -0.0569(5) 0.5160(4) 0.3310(4)
O5 O 0.1784(5) 0.2585(4) 0.3743(4)
O6 O 0.3938(5) 0.3021(4) 0.1939(4)
O7 O 0.3184(5) 0.5447(4) -0.0743(4)
O8 O 0.2764(5) 0.6005(4) 0.1755(4)
N1 N 0.3553(7) 0.7704(5) 0.2216(6)
C1 C 0.0300(7) 0.1133(5) 0.0250(6)
C2 C 0.0310(7) 0.1381(5) -0.1086(6)
H1 H 0.0521 0.2320 -0.1826
C3 C -0.0004(7) -0.0236(5) 0.1336(6)
H2 H -0.0005 -0.0394 0.2248
C4 C 0.0635(6) 0.2348(5) 0.0542(6)
C5 C 0.2521(8) 0.6729(6) 0.2462(7)
H3 H 0.1553 0.6577 0.3211
C6 C 0.5072(11) 0.7905(8) 0.1122(10)
H4 H 0.5779 0.8519 0.1180
H5 H 0.4841 0.8373 0.0210
H6 H 0.5626 0.6957 0.1234
C7 C 0.3202(12) 0.8580(7) 0.3001(9)
H7 H 0.2200 0.8253 0.3765
H8 H 0.3051 0.9601 0.2385
H9 H 0.4115 0.8481 0.3387
C8 C -0.3438(7) 0.4798(5) 0.4208(6)
C9 C -0.4770(7) 0.4092(6) 0.4323(6)
H10 H -0.4605 0.3467 0.3860
C10 C -0.3678(7) 0.5705(6) 0.4899(6)
H11 H -0.2780 0.6181 0.4835
C11 C -0.1782(7) 0.4558(5) 0.3375(6)
C12 C 0.4159(7) 0.1099(5) 0.4128(6)
C13 C 0.3379(7) 0.0328(6) 0.5518(6)
H12 H 0.2258 0.0546 0.5875
C14 C 0.5792(7) 0.0767(5) 0.3591(6)
H13 H 0.6335 0.1279 0.2632
C15 C 0.3233(7) 0.2300(5) 0.3206(6)
Eu1A Eu -0.13116(3) -0.43740(3) -0.15505(3)
Eu1A_2 Eu -0.13116(3) 0.56260(3) -0.15505(3)
Eu1_2 Eu 0.13116(3) -0.56260(3) 0.15505(3)
Eu1A_3 Eu -1.13116(3) 0.56260(3) 0.84495(3)
Eu1A_4 Eu 0.86884(3) -0.43740(3) 0.84495(3)
O1A O -0.0307(5) -0.3665(3) 0.0178(4)
O1A_2 O -0.0307(5) 0.6335(3) 0.0178(4)
O1_2 O 0.0307(5) -0.6335(3) -0.0178(4)
O2A O -0.1234(5) -0.2016(4) -0.1542(4)
O3A O -0.8412(4) 0.6242(4) 0.7287(4)
O3A_2 O 0.1588(4) -0.3758(4) -0.2713(4)
O4A O -0.9431(5) 0.4840(4) 0.6690(4)
O4A_2 O 0.0569(5) -0.5160(4) -0.3310(4)
O5A O 0.8216(5) -0.2585(4) 0.6257(4)
O5A_2 O -0.1784(5) -0.2585(4) -0.3743(4)
O6A O 0.6062(5) -0.3021(4) 0.8061(4)
O6A_2 O -0.3938(5) -0.3021(4) -0.1939(4)
O7A O -0.3184(5) -0.5447(4) 0.0743(4)
O8A O -0.2764(5) -0.6005(4) -0.1755(4)
N1A N -0.3553(7) -0.7704(5) -0.2216(6)
C1A C -0.0300(7) -0.1133(5) -0.0250(6)
C2A C -0.0310(7) -0.1381(5) 0.1086(6)
H1A H -0.0521 -0.2320 0.1826
C3A C 0.0004(7) 0.0236(5) -0.1336(6)
H2A H 0.0005 0.0394 -0.2248
C4A C -0.0635(6) -0.2348(5) -0.0542(6)
C5A C -0.2521(8) -0.6729(6) -0.2462(7)
H3A H -0.1553 -0.6577 -0.3211
C6A C -0.5072(11) -0.7905(8) -0.1122(10)
H4A H -0.5779 -0.8519 -0.1180
H5A H -0.4841 -0.8373 -0.0210
H6A H -0.5626 -0.6957 -0.1234
C7A C -0.3202(12) -0.8580(7) -0.3001(9)
H7A H -0.2200 -0.8253 -0.3765
H8A H -0.3051 -0.9601 -0.2385
H9A H -0.4115 -0.8481 -0.3387
C8A C -0.6562(7) 0.5202(5) 0.5792(6)
C9A C -0.5230(7) 0.5908(6) 0.5677(6)
H10A H -0.5395 0.6533 0.6140
C10A C -0.6322(7) 0.4295(6) 0.5101(6)
H11A H -0.7220 0.3819 0.5165
C11A C -0.8218(7) 0.5442(5) 0.6625(6)
C12A C 0.5841(7) -0.1099(5) 0.5872(6)
C13A C 0.6621(7) -0.0328(6) 0.4482(6)
H12A H 0.7742 -0.0546 0.4125
C14A C 0.4208(7) -0.0767(5) 0.6409(6)
H13A H 0.3665 -0.1279 0.7368
C15A C 0.6767(7) -0.2300(5) 0.6794(6)
loop_
_geom_bond_atom_site_label_1
_geom_bond_atom_site_label_2
_geom_bond_site_symmetry_1
_geom_bond_site_symmetry_2
Eu1 O1 1_555 1_555
O1 C4 1_555 1_555
O2 Eu1 1_555 1_555
O3 Eu1 1_555 1_555
O4 Eu1 1_555 1_555
O5 Eu1 1_555 1_555
O6 Eu1 1_555 1_555
O7 Eu1 1_555 1_555
O8 Eu1 1_555 1_555
N1 C5 1_555 1_555
C1 C2 1_555 1_555
C2 H1 1_555 1_555
C3 C1 1_555 1_555
H2 C3 1_555 1_555
C4 O2 1_555 1_555
C5 O8 1_555 1_555
H3 C5 1_555 1_555
C6 N1 1_555 1_555
H4 C6 1_555 1_555
H5 C6 1_555 1_555
H6 C6 1_555 1_555
C7 N1 1_555 1_555
H7 C7 1_555 1_555
H8 C7 1_555 1_555
H9 C7 1_555 1_555
C8 C9 1_555 1_555
C9 H10 1_555 1_555
C10 C8 1_555 1_555
H11 C10 1_555 1_555
C11 O3 1_555 1_555
C12 C13 1_555 1_555
C13 H12 1_555 1_555
C14 C12 1_555 1_555
H13 C14 1_555 1_555
C15 O5 1_555 1_555
Eu1A O1A 1_555 1_555
Eu1A_2 O1 1_555 1_555
Eu1_2 O1A 1_555 1_555
Eu1A_3 O3A 1_555 1_555
Eu1A_4 O5A 1_555 1_555
O1A C4A 1_555 1_555
O1A_2 Eu1 1_555 1_555
O1_2 Eu1A 1_555 1_555
O2A Eu1A 1_555 1_555
O3A C11A 1_555 1_555
O3A_2 Eu1A 1_555 1_555
O4A Eu1A_3 1_555 1_555
O4A_2 Eu1A 1_555 1_555
O5A C15A 1_555 1_555
O5A_2 Eu1A 1_555 1_555
O6A Eu1A_4 1_555 1_555
O6A_2 Eu1A 1_555 1_555
O7A Eu1A 1_555 1_555
O8A Eu1A 1_555 1_555
N1A C5A 1_555 1_555
C1A C2A 1_555 1_555
C2A C3 1_555 1_555
H1A C2A 1_555 1_555
C3A C2 1_555 1_555
H2A C3A 1_555 1_555
C4A O2A 1_555 1_555
C5A O8A 1_555 1_555
H3A C5A 1_555 1_555
C6A N1A 1_555 1_555
H4A C6A 1_555 1_555
H5A C6A 1_555 1_555
H6A C6A 1_555 1_555
C7A N1A 1_555 1_555
H7A C7A 1_555 1_555
H8A C7A 1_555 1_555
H9A C7A 1_555 1_555
C8A C9A 1_555 1_555
C9A C10 1_555 1_555
H10A C9A 1_555 1_555
C10A C9 1_555 1_555
H11A C10A 1_555 1_555
C11A O4A 1_555 1_555
C12A C13A 1_555 1_555
C13A C14 1_555 1_555
H12A C13A 1_555 1_555
C14A C13 1_555 1_555
H13A C14A 1_555 1_555
C15A O6A 1_555 1_555
O4 C11 1_555 1_555
O6 C15 1_555 1_555
C1 C4 1_555 1_555
C8 C11 1_555 1_555
C12 C15 1_555 1_555
Eu1A_2 O1A_2 1_555 1_555
Eu1_2 O1_2 1_555 1_555
C1A C3A 1_555 1_555
C1A C4A 1_555 1_555
C8A C10A 1_555 1_555
C8A C11A 1_555 1_555
C12A C14A 1_555 1_555
C12A C15A 1_555 1_555

#END
