
#######################################################################
#
#                 Cambridge Crystallographic Data Centre
#                                CCDC 
#
#######################################################################
#
# If this CIF has been generated from an entry in the Cambridge 
# Structural Database, then it will include bibliographic, chemical, 
# crystal, experimental, refinement or atomic coordinate data resulting 
# from the CCDC's data processing and validation procedures.
#
#######################################################################

data_WEDFUH
_symmetry_cell_setting           triclinic
_symmetry_space_group_name_H-M   'P -1'
_symmetry_Int_Tables_number      2
_space_group_name_Hall           '-P 1'
loop_
_symmetry_equiv_pos_site_id
_symmetry_equiv_pos_as_xyz
1 x,y,z
2 -x,-y,-z
_cell_length_a                   11.3333(9)
_cell_length_b                   11.6011(9)
_cell_length_c                   18.2472(10)
_cell_angle_alpha                80.490(6)
_cell_angle_beta                 89.466(5)
_cell_angle_gamma                64.006(5)
_cell_volume                     2121.39
loop_
_atom_site_label
_atom_site_type_symbol
_atom_site_fract_x
_atom_site_fract_y
_atom_site_fract_z
Fe1 Fe 0.16384(4) 0.24078(4) 0.33194(2)
Fe2 Fe 0.22078(4) 0.14363(4) 0.15752(2)
Na1 Na 0.43897(11) 0.19786(11) 0.25099(7)
Na2 Na -0.29451(13) 0.93242(15) 0.25702(8)
O1 O 0.21920(18) 0.18685(19) 0.24674(10)
O2 O 0.6580(3) 0.0749(3) 0.34688(17)
H1 H 0.705(3) 0.030(3) 0.3978(17)
H2 H 0.695(5) 0.130(6) 0.349(3)
O3 O 0.6183(3) 0.1736(3) 0.17979(17)
H3 H 0.695(8) 0.206(8) 0.174(4)
H4 H 0.570(2) 0.284(3) 0.1578(12)
O4 O 0.11752(18) 0.42977(18) 0.30483(11)
O5 O 0.3023(2) 0.4156(2) 0.25205(12)
C1 C 0.1921(3) 0.4766(3) 0.27184(15)
C2 C 0.1306(3) 0.6231(3) 0.25907(14)
C3 C -0.0043(3) 0.6949(3) 0.25641(15)
H5 H -0.0570 0.6505 0.2622
N1 N -0.0631(2) 0.8254(2) 0.24582(13)
C4 C 0.0164(3) 0.8817(3) 0.23817(18)
H6 H -0.0198 0.9731 0.2309
C5 C 0.1512(3) 0.8100(3) 0.2406(2)
H7 H 0.2038 0.8546 0.2350
N2 N 0.2099(3) 0.6809(3) 0.25059(17)
O6 O -0.02833(18) 0.27818(18) 0.32608(11)
O7 O -0.1772(2) 0.2013(2) 0.34128(15)
C6 C -0.0645(3) 0.1889(3) 0.34738(16)
C7 C 0.0441(3) 0.0594(3) 0.38315(15)
C8 C 0.0237(3) -0.0468(3) 0.41365(19)
H8 H -0.0619 -0.0400 0.4111
N3 N 0.1222(3) -0.1592(3) 0.44680(19)
C9 C 0.2405(4) -0.1628(3) 0.4478(2)
H9 H 0.3121 -0.2401 0.4709
C10 C 0.2639(3) -0.0586(3) 0.41666(18)
H10 H 0.3502 -0.0669 0.4178
N4 N 0.1648(2) 0.0532(2) 0.38513(12)
O8 O 0.35280(18) 0.17378(19) 0.37498(10)
O9 O 0.49051(19) 0.1487(2) 0.46892(11)
C11 C 0.3800(3) 0.1807(3) 0.44127(15)
C12 C 0.2621(3) 0.2335(3) 0.48665(15)
C13 C 0.2688(3) 0.2418(4) 0.56084(17)
H11 H 0.3518 0.2116 0.5858
N5 N 0.1621(3) 0.2908(4) 0.59831(16)
C14 C 0.0470(4) 0.3343(4) 0.56011(19)
H12 H -0.0308 0.3721 0.5844
C15 C 0.0379(3) 0.3260(3) 0.48625(16)
H13 H -0.0455 0.3570 0.4614
N6 N 0.1452(2) 0.2746(2) 0.44965(12)
O10 O 0.34398(18) -0.04730(18) 0.18196(10)
O11 O 0.4929(2) -0.0230(2) 0.24982(12)
C16 C 0.4514(3) -0.0893(3) 0.22171(15)
C17 C 0.5348(3) -0.2347(3) 0.23217(15)
C18 C 0.4952(3) -0.3136(3) 0.20048(18)
H14 H 0.4140 -0.2751 0.1724
N7 N 0.5679(3) -0.4424(3) 0.20826(17)
C19 C 0.6819(3) -0.4901(3) 0.25009(19)
H15 H 0.7360 -0.5804 0.2585
C20 C 0.7220(3) -0.4130(3) 0.28072(18)
H16 H 0.8027 -0.4519 0.3094
N8 N 0.6502(2) -0.2831(3) 0.27134(15)
O12 O 0.05904(18) 0.11455(18) 0.15309(10)
O13 O -0.1596(2) 0.2037(3) 0.14116(15)
C21 C -0.0551(3) 0.2106(3) 0.13823(15)
C22 C -0.0553(3) 0.3416(3) 0.11532(15)
C23 C -0.1689(3) 0.4580(3) 0.09801(19)
H17 H -0.2509 0.4559 0.0976
N9 N -0.1652(3) 0.5720(3) 0.08207(18)
C24 C -0.0476(4) 0.5693(3) 0.08452(19)
H18 H -0.0418 0.6487 0.0750
C25 C 0.0678(3) 0.4542(3) 0.10053(16)
H19 H 0.1495 0.4568 0.1009
N10 N 0.0628(2) 0.3399(2) 0.11540(12)
O14 O 0.35217(18) 0.20953(19) 0.11827(10)
O15 O 0.4814(2) 0.2259(2) 0.02872(12)
C26 C 0.3946(3) 0.1975(3) 0.05326(15)
C27 C 0.3311(3) 0.1413(3) 0.00647(15)
C28 C 0.3587(3) 0.1265(3) -0.06624(16)
H20 H 0.4212 0.1515 -0.0882
N11 N 0.2999(3) 0.0781(3) -0.10629(14)
C29 C 0.2162(3) 0.0400(3) -0.07104(18)
H21 H 0.1754 0.0017 -0.0967
C30 C 0.1864(3) 0.0540(3) 0.00169(16)
H22 H 0.1260 0.0263 0.0241
N12 N 0.2434(2) 0.1069(2) 0.04013(12)
Na1_2 Na -0.56103(11) 1.19786(11) 0.25099(7)
Na2_2 Na 0.70549(13) -0.06758(15) 0.25702(8)
Na2A Na 0.29451(13) 0.06758(15) -0.25702(8)
O2_2 O -0.3420(3) 1.0749(3) 0.34688(17)
H1_2 H -0.295(3) 1.030(3) 0.3978(17)
H2_2 H -0.305(5) 1.130(6) 0.349(3)
O3_2 O -0.3817(3) 1.1736(3) 0.17979(17)
H3_2 H -0.305(8) 1.206(8) 0.174(4)
H4_2 H -0.430(2) 1.284(3) 0.1578(12)
O11_2 O -0.5071(2) 0.9770(2) 0.24982(12)
N8_2 N -0.3498(2) 0.7169(3) 0.27134(15)
N11A N -0.2999(3) 0.9219(3) 0.10629(14)
N13 N 0.1316(5) 0.7443(5) 0.0528(3)
C31 C 0.2333(5) 0.6688(5) 0.0584(2)
C32 C 0.3681(5) 0.5643(6) 0.0705(3)
H23 H 0.3924 0.5359 0.1235
H24 H 0.4279 0.5964 0.0471
H25 H 0.3734 0.4915 0.0487
N14 N 0.3064(5) 0.5014(5) 0.4764(3)
C33 C 0.3844(5) 0.4812(4) 0.4350(3)
C34 C 0.4839(5) 0.4558(5) 0.3821(3)
H26 H 0.4433 0.5036 0.3330
H27 H 0.5274 0.3632 0.3809
H28 H 0.5480 0.4837 0.3967
loop_
_geom_bond_atom_site_label_1
_geom_bond_atom_site_label_2
_geom_bond_site_symmetry_1
_geom_bond_site_symmetry_2
Fe1 O1 1_555 1_555
Fe2 O1 1_555 1_555
Na1 O1 1_555 1_555
Na2 N1 1_555 1_555
O2 Na1 1_555 1_555
H1 O2 1_555 1_555
H2 O2 1_555 1_555
O3 Na1 1_555 1_555
H3 O3 1_555 1_555
H4 O3 1_555 1_555
O4 Fe1 1_555 1_555
O5 Na1 1_555 1_555
C1 O4 1_555 1_555
C2 C1 1_555 1_555
C3 C2 1_555 1_555
H5 C3 1_555 1_555
N1 C3 1_555 1_555
C4 N1 1_555 1_555
H6 C4 1_555 1_555
C5 C4 1_555 1_555
H7 C5 1_555 1_555
N2 C2 1_555 1_555
O6 Fe1 1_555 1_555
O7 C6 1_555 1_555
C6 O6 1_555 1_555
C7 C6 1_555 1_555
C8 C7 1_555 1_555
H8 C8 1_555 1_555
N3 C8 1_555 1_555
C9 N3 1_555 1_555
H9 C9 1_555 1_555
C10 C9 1_555 1_555
H10 C10 1_555 1_555
N4 Fe1 1_555 1_555
O8 Fe1 1_555 1_555
O9 C11 1_555 1_555
C11 O8 1_555 1_555
C12 C11 1_555 1_555
C13 C12 1_555 1_555
H11 C13 1_555 1_555
N5 C13 1_555 1_555
C14 N5 1_555 1_555
H12 C14 1_555 1_555
C15 C14 1_555 1_555
H13 C15 1_555 1_555
N6 Fe1 1_555 1_555
O10 Fe2 1_555 1_555
O11 Na1 1_555 1_555
C16 O10 1_555 1_555
C17 C16 1_555 1_555
C18 C17 1_555 1_555
H14 C18 1_555 1_555
N7 C18 1_555 1_555
C19 N7 1_555 1_555
H15 C19 1_555 1_555
C20 C19 1_555 1_555
H16 C20 1_555 1_555
N8 C17 1_555 1_555
O12 Fe2 1_555 1_555
O13 C21 1_555 1_555
C21 O12 1_555 1_555
C22 C21 1_555 1_555
C23 C22 1_555 1_555
H17 C23 1_555 1_555
N9 C23 1_555 1_555
C24 N9 1_555 1_555
H18 C24 1_555 1_555
C25 C24 1_555 1_555
H19 C25 1_555 1_555
N10 Fe2 1_555 1_555
O14 Fe2 1_555 1_555
O15 C26 1_555 1_555
C26 O14 1_555 1_555
C27 C26 1_555 1_555
C28 C27 1_555 1_555
H20 C28 1_555 1_555
N11 C28 1_555 1_555
C29 N11 1_555 1_555
H21 C29 1_555 1_555
C30 C29 1_555 1_555
H22 C30 1_555 1_555
N12 Fe2 1_555 1_555
N13 C31 1_555 1_555
C31 C32 1_555 1_555
C32 H23 1_555 1_555
H24 C32 1_555 1_555
H25 C32 1_555 1_555
N14 C33 1_555 1_555
C33 C34 1_555 1_555
C34 H26 1_555 1_555
H27 C34 1_555 1_555
H28 C34 1_555 1_555
Na1_2 O2_2 1_555 1_555
Na2_2 O2 1_555 1_555
Na2A N11 1_555 1_555
O2_2 Na2 1_555 1_555
H1_2 O2_2 1_555 1_555
H2_2 O2_2 1_555 1_555
O3_2 Na2 1_555 1_555
H3_2 O3_2 1_555 1_555
H4_2 O3_2 1_555 1_555
O11_2 Na2 1_555 1_555
N8_2 Na2 1_555 1_555
N11A Na2 1_555 1_555
Na1 O8 1_555 1_555
Na1 O14 1_555 1_555
O3 Na2_2 1_555 1_555
O5 C1 1_555 1_555
C5 N2 1_555 1_555
C7 N4 1_555 1_555
C10 N4 1_555 1_555
C12 N6 1_555 1_555
C15 N6 1_555 1_555
O11 C16 1_555 1_555
O11 Na2_2 1_555 1_555
C20 N8 1_555 1_555
N8 Na2_2 1_555 1_555
C22 N10 1_555 1_555
C25 N10 1_555 1_555
C27 N12 1_555 1_555
C30 N12 1_555 1_555
Na1_2 O3_2 1_555 1_555
Na1_2 O11_2 1_555 1_555

#END
