
#######################################################################
#
#                 Cambridge Crystallographic Data Centre
#                                CCDC 
#
#######################################################################
#
# If this CIF has been generated from an entry in the Cambridge 
# Structural Database, then it will include bibliographic, chemical, 
# crystal, experimental, refinement or atomic coordinate data resulting 
# from the CCDC's data processing and validation procedures.
#
#######################################################################

data_WEDJIY
_symmetry_cell_setting           monoclinic
_symmetry_space_group_name_H-M   'P 21'
_symmetry_Int_Tables_number      4
_space_group_name_Hall           'P 2yb'
loop_
_symmetry_equiv_pos_site_id
_symmetry_equiv_pos_as_xyz
1 x,y,z
2 -x,1/2+y,-z
_cell_length_a                   8.563(3)
_cell_length_b                   23.160(8)
_cell_length_c                   9.227(4)
_cell_angle_alpha                90
_cell_angle_beta                 95.96
_cell_angle_gamma                90
_cell_volume                     1820
loop_
_atom_site_label
_atom_site_type_symbol
_atom_site_fract_x
_atom_site_fract_y
_atom_site_fract_z
I1 I 0.7892(1) 0.3201 0.0962(1)
I2 I 0.7165(2) 0.6249(1) -0.5754(1)
K1 K -0.0639(5) 0.4230(2) -0.1208(3)
K2 K 0.5589(5) 0.5128(2) -0.3825(4)
Co1 Co 0.1946(3) 0.3583(1) -0.4942(2)
C1 C 0.2580(22) 0.2805(7) -0.5715(17)
C2 C 0.3865(21) 0.3078(7) -0.5004(16)
C3 C 0.3582(19) 0.3160(7) -0.3563(15)
C4 C 0.2076(20) 0.2938(6) -0.3416(15)
C5 C 0.1468(22) 0.2732(6) -0.4808(15)
C6 C 0.2357(23) 0.2601(8) -0.7288(18)
C7 C 0.5315(23) 0.3236(8) -0.5634(18)
C8 C 0.4645(23) 0.3447(8) -0.2389(18)
C9 C 0.1304(25) 0.2903(8) -0.2056(18)
C10 C -0.0197(23) 0.2475(7) -0.5148(19)
O1 O 0.0198(13) 0.3937(4) -0.4082(9)
C11 C -0.0820(18) 0.4316(6) -0.4617(14)
O2 O -0.2005(14) 0.4443(6) -0.3998(11)
C12 C -0.0598(19) 0.4614(6) -0.5999(15)
N1 N 0.1086(15) 0.3874(5) -0.6846(12)
C13 C 0.0904(17) 0.4500(5) -0.6664(14)
C14 C 0.2398(18) 0.4704(6) -0.5695(15)
O3 O 0.2799(14) 0.5202(4) -0.5815(10)
O4 O 0.3012(13) 0.4329(4) -0.4843(10)
Co2 Co 0.3236(3) 0.5782(1) -0.0122(2)
C15 C 0.3502(22) 0.6649(7) -0.0277(16)
C16 C 0.2461(21) 0.6527(6) 0.0827(16)
C17 C 0.1173(22) 0.6202(7) 0.0142(17)
C18 C 0.1455(21) 0.6139(7) -0.1417(16)
C19 C 0.2792(21) 0.6428(6) -0.1684(15)
C20 C 0.5029(28) 0.6943(9) 0.0005(22)
C21 C 0.2591(22) 0.6690(7) 0.2445(17)
C22 C -0.0238(26) 0.5976(9) 0.08818(22)
C23 C 0.0340(25) 0.5838(9) -0.2512(21)
C24 C 0.3468(26) 0.6486(8) -0.3112(19)
O5 O 0.5005(14) 0.5533(5) -0.1120(9)
C25 C 0.5970(21) 0.5193(6) -0.0350(16)
O6 O 0.7050(14) 0.4942(6) -0.0795(12)
C26 C 0.5522(18) 0.5071(6) 0.1202(14)
N2 N 0.4588(14) 0.5557(5) 0.1675(11)
C27 C 0.4582(17) 0.4518(5) 0.1195(15)
C28 C 0.2936(18) 0.4513(6) 0.0352(15)
O7 O 0.2248(14) 0.4065(4) 0.0308(10)
O8 O 0.2365(14) 0.4977(4) -0.0212(11)
K1_2 K 0.9361(5) 0.4230(2) -0.1208(3)
O2_2 O 0.7995(14) 0.4443(6) -0.3998(11)
O6_2 O -0.2950(14) 0.4942(6) -0.0795(12)
K2_2 K -0.4411(5) 0.5128(2) -0.3825(4)
loop_
_geom_bond_atom_site_label_1
_geom_bond_atom_site_label_2
_geom_bond_site_symmetry_1
_geom_bond_site_symmetry_2
K1 O1 1_555 1_555
K2 O3 1_555 1_555
Co1 C1 1_555 1_555
C1 C2 1_555 1_555
C2 Co1 1_555 1_555
C3 Co1 1_555 1_555
C4 Co1 1_555 1_555
C5 Co1 1_555 1_555
C6 C1 1_555 1_555
C7 C2 1_555 1_555
C8 C3 1_555 1_555
C9 C4 1_555 1_555
C10 C5 1_555 1_555
O1 Co1 1_555 1_555
C11 O1 1_555 1_555
O2 K1 1_555 1_555
C12 C11 1_555 1_555
N1 Co1 1_555 1_555
C13 C12 1_555 1_555
C14 C13 1_555 1_555
O3 C14 1_555 1_555
O4 K2 1_555 1_555
Co2 C15 1_555 1_555
C15 C16 1_555 1_555
C16 Co2 1_555 1_555
C17 Co2 1_555 1_555
C18 Co2 1_555 1_555
C19 Co2 1_555 1_555
C20 C15 1_555 1_555
C21 C16 1_555 1_555
C22 C17 1_555 1_555
C23 C18 1_555 1_555
C24 C19 1_555 1_555
O5 K2 1_555 1_555
C25 O5 1_555 1_555
O6 K2 1_555 1_555
C26 C25 1_555 1_555
N2 Co2 1_555 1_555
C27 C26 1_555 1_555
C28 C27 1_555 1_555
O7 K1 1_555 1_555
O8 K1 1_555 1_555
K1_2 O6 1_555 1_555
O2_2 K2 1_555 1_555
O6_2 K1 1_555 1_555
K2_2 O2 1_555 1_555
Co1 O4 1_555 1_555
C1 C5 1_555 1_555
C2 C3 1_555 1_555
C3 C4 1_555 1_555
C4 C5 1_555 1_555
C11 O2 1_555 1_555
N1 C13 1_555 1_555
C14 O4 1_555 1_555
Co2 O5 1_555 1_555
Co2 O8 1_555 1_555
C15 C19 1_555 1_555
C16 C17 1_555 1_555
C17 C18 1_555 1_555
C18 C19 1_555 1_555
C25 O6 1_555 1_555
C26 N2 1_555 1_555
C28 O7 1_555 1_555
C28 O8 1_555 1_555
K1_2 O2_2 1_555 1_555
O6_2 K2_2 1_555 1_555

#END
