
#######################################################################
#
#                 Cambridge Crystallographic Data Centre
#                                CCDC 
#
#######################################################################
#
# If this CIF has been generated from an entry in the Cambridge 
# Structural Database, then it will include bibliographic, chemical, 
# crystal, experimental, refinement or atomic coordinate data resulting 
# from the CCDC's data processing and validation procedures.
#
#######################################################################

data_WEDJAS
_symmetry_cell_setting           triclinic
_symmetry_space_group_name_H-M   'P -1'
_symmetry_Int_Tables_number      2
_space_group_name_Hall           '-P 1'
loop_
_symmetry_equiv_pos_site_id
_symmetry_equiv_pos_as_xyz
1 x,y,z
2 -x,-y,-z
_cell_length_a                   12.03(2)
_cell_length_b                   12.18(2)
_cell_length_c                   15.34(3)
_cell_angle_alpha                97.25(3)
_cell_angle_beta                 102.28(3)
_cell_angle_gamma                110.37(3)
_cell_volume                     2009.14
loop_
_atom_site_label
_atom_site_type_symbol
_atom_site_fract_x
_atom_site_fract_y
_atom_site_fract_z
Si1 Si 0.5000 1.0000 1.0000
Mo1 Mo 0.72877(9) 1.06360(9) 1.21081(7)
Mo2 Mo 0.40974(14) 0.89026(12) 1.18737(8)
Mo3 Mo 0.34788(14) 0.68360(9) 0.97757(7)
Mo4 Mo 0.68055(9) 0.82178(9) 1.02805(7)
Mo5 Mo 0.51138(11) 1.20537(9) 1.19348(7)
Mo6 Mo 0.17963(10) 0.87435(10) 0.98990(7)
O1 O 0.5368(11) 1.0351(12) 1.1133(8)
O2 O 0.6243(12) 0.9948(12) 1.0453(9)
O3 O 0.3785(12) 0.8906(11) 1.0276(8)
O4 O 0.4859(12) 1.1268(11) 1.0333(8)
O5 O 0.593(2) 0.9495(16) 1.2592(14)
O7 O 0.3432(14) 0.7181(13) 1.1165(9)
O9 O 0.5431(16) 0.6901(14) 1.0227(11)
O11 O 0.7268(8) 0.9053(8) 1.1476(6)
O12 O 0.3877(16) 0.6604(13) 0.8587(10)
O14 O 0.2521(14) 0.7512(13) 0.9547(10)
O16 O 0.7988(9) 0.9704(7) 1.0025(6)
O17 O 0.6363(15) 0.7679(15) 0.8855(10)
O19 O 0.4276(11) 1.0626(10) 1.2202(11)
O20 O 0.2815(13) 0.9111(12) 1.1034(9)
O22 O 0.8263(9) 1.1377(7) 1.1441(6)
O23 O 0.8311(12) 1.0843(8) 1.3106(6)
O24 O 0.3531(8) 0.8438(8) 1.2751(5)
O25 O 0.2823(7) 0.5360(7) 0.9740(6)
O26 O 0.7677(12) 0.7389(10) 1.0349(7)
O27 O 0.5348(9) 1.3112(9) 1.2853(6)
O28 O 0.0284(9) 0.8033(9) 0.9775(7)
O32 O 0.6683(10) 1.1768(10) 1.2379(10)
Mo1A Mo 0.27123(9) 0.93640(9) 0.78919(7)
Mo2A Mo 0.59026(14) 1.10974(12) 0.81263(8)
Mo3A Mo 0.65212(14) 1.31640(9) 1.02243(7)
Mo4A Mo 0.31945(9) 1.17822(9) 0.97195(7)
Mo5A Mo 0.48862(11) 0.79463(9) 0.80652(7)
Mo6A Mo 0.82037(10) 1.12565(10) 1.01010(7)
O1A O 0.4632(11) 0.9649(12) 0.8867(8)
O2A O 0.3757(12) 1.0052(12) 0.9547(9)
O3A O 0.6215(12) 1.1094(11) 0.9724(8)
O4A O 0.5141(12) 0.8732(11) 0.9667(8)
O5A O 0.407(2) 1.0505(16) 0.7408(14)
O7A O 0.6568(14) 1.2819(13) 0.8835(9)
O9A O 0.4569(16) 1.3099(14) 0.9773(11)
O11A O 0.2732(8) 1.0947(8) 0.8524(6)
O12A O 0.6123(16) 1.3396(13) 1.1413(10)
O14A O 0.7479(14) 1.2488(13) 1.0453(10)
O16A O 0.2012(9) 1.0296(7) 0.9975(6)
O17A O 0.3637(15) 1.2321(15) 1.1145(10)
O19A O 0.5724(11) 0.9374(10) 0.7798(11)
O20A O 0.7185(13) 1.0889(12) 0.8966(9)
O22A O 0.1737(9) 0.8623(7) 0.8559(6)
O23A O 0.1689(12) 0.9157(8) 0.6894(6)
O24A O 0.6469(8) 1.1562(8) 0.7249(5)
O25A O 0.7177(7) 1.4640(7) 1.0260(6)
O26A O 0.2323(12) 1.2611(10) 0.9651(7)
O27A O 0.4652(9) 0.6888(9) 0.7147(6)
O28A O 0.9716(9) 1.1967(9) 1.0225(7)
O32A O 0.3317(10) 0.8232(10) 0.7621(10)
O34 O 0.3472(8) 0.5242(8) 1.4867(6)
O35 O 0.1003(12) 0.4622(12) 1.1473(8)
O36 O 1.0073(19) 0.342(2) 1.8626(17)
Cu1 Cu 0.22341(13) 0.47476(13) 1.30627(11)
O29 O -0.1915(8) 0.2396(9) 1.5271(7)
O30 O 0.2491(9) 0.2906(10) 1.5645(6)
O31 O 0.4756(8) 0.2367(8) 1.4779(6)
N1 N 0.0609(9) 0.4333(9) 1.3426(7)
N2 N 0.6222(9) 0.4787(9) 1.7369(7)
N3 N -0.0069(9) 0.2258(10) 1.5396(7)
H1 H 0.0598 0.2459 1.5227
N4 N 0.2011(9) 0.1988(10) 1.6805(8)
H2 H 0.2208 0.2035 1.7386
N5 N 0.2114(9) 0.3050(9) 1.2952(7)
N6 N 0.3659(9) 0.0366(9) 1.4424(7)
H3 H 0.3013 -0.0219 1.4075
C1 C 0.2980(9) 0.2788(11) 1.3565(8)
H4 H 0.3610 0.3411 1.4010
C2 C 0.1225(11) 0.2092(12) 1.2281(9)
H5 H 0.0614 0.2234 1.1885
C3 C 0.1199(11) 0.0946(12) 1.2169(9)
H6 H 0.0634 0.0352 1.1672
C4 C 0.2026(11) 0.0679(10) 1.2808(7)
H7 H 0.1990 -0.0102 1.2766
C5 C 0.2925(9) 0.1631(10) 1.3526(7)
C6 C 0.3869(10) 0.1479(10) 1.4266(7)
C7 C 0.4481(12) 0.0082(13) 1.5169(9)
H8 H 0.4009 -0.0646 1.5335
H9 H 0.4816 0.0732 1.5707
C8 C 0.0415(10) 0.3690(11) 1.4069(8)
H10 H 0.1016 0.3422 1.4332
C9 C -0.0216(12) 0.4783(13) 1.3066(10)
H11 H -0.0045 0.5281 1.2658
C10 C -0.1364(12) 0.4499(13) 1.3308(12)
H12 H -0.1961 0.4755 1.3020
C11 C -0.1565(11) 0.3840(11) 1.3975(10)
H13 H -0.2278 0.3688 1.4164
C12 C -0.0677(10) 0.3405(10) 1.4360(8)
C13 C -0.0909(10) 0.2659(11) 1.5053(8)
C14 C -0.0219(14) 0.1486(16) 1.6054(11)
H14 H -0.0998 0.0800 1.5814
H15 H -0.0236 0.1928 1.6620
C15 C 0.0837(14) 0.1048(14) 1.6246(12)
H16 H 0.0615 0.0391 1.6557
H17 H 0.0945 0.0740 1.5669
C16 C 0.2821(13) 0.2804(12) 1.6450(9)
C17 C 0.4020(11) 0.3650(11) 1.7128(8)
C18 C 0.4123(12) 0.4148(12) 1.8034(8)
H18 H 0.3429 0.3954 1.8252
C19 C 0.5246(13) 0.4917(13) 1.8592(9)
H19 H 0.5327 0.5217 1.9201
C20 C 0.6306(12) 0.5266(12) 1.8241(9)
H20 H 0.7058 0.5826 1.8616
C21 C 0.5090(10) 0.4008(10) 1.6809(8)
H21 H 0.5023 0.3706 1.6204
O33 O 0.2483(9) 0.6480(8) 1.3378(6)
Cu1A Cu 0.77659(13) 0.52524(13) 1.69373(11)
Cu1A_2 Cu 0.77659(13) -0.47476(13) 1.69373(11)
O29A O 1.1915(8) 0.7604(9) 1.4729(7)
O30A O 0.7509(9) 0.7094(10) 1.4355(6)
O31A O 0.5244(8) -0.2367(8) 1.5221(6)
N1A N 0.9391(9) 0.5667(9) 1.6574(7)
N2A N 0.3778(9) 0.5213(9) 1.2631(7)
N3A N 1.0069(9) 0.7742(10) 1.4604(7)
H1A H 0.9402 0.7541 1.4773
N4A N 0.7989(9) 0.8012(10) 1.3195(8)
H2A H 0.7792 0.7965 1.2614
N5A N 0.7886(9) -0.3050(9) 1.7048(7)
N5A_2 N 0.7886(9) 0.6950(9) 1.7048(7)
N6A N 0.6341(9) -0.0366(9) 1.5576(7)
H3A H 0.6987 0.0219 1.5925
C1A C 0.7020(9) -0.2788(11) 1.6435(8)
H4A H 0.6390 -0.3411 1.5990
C2A C 0.8775(11) -0.2092(12) 1.7719(9)
H5A H 0.9386 -0.2234 1.8115
C3A C 0.8801(11) -0.0946(12) 1.7831(9)
H6A H 0.9366 -0.0352 1.8328
C4A C 0.7974(11) -0.0679(10) 1.7192(7)
H7A H 0.8010 0.0102 1.7234
C5A C 0.7075(9) -0.1631(10) 1.6474(7)
C6A C 0.6131(10) -0.1479(10) 1.5734(7)
C7A C 0.5519(12) -0.0082(13) 1.4831(9)
H8A H 0.5991 0.0646 1.4665
H9A H 0.5184 -0.0732 1.4293
C8A C 0.9585(10) 0.6310(11) 1.5931(8)
H10A H 0.8984 0.6578 1.5668
C9A C 1.0216(12) 0.5217(13) 1.6934(10)
H11A H 1.0045 0.4719 1.7342
C10A C 1.1364(12) 0.5501(13) 1.6692(12)
H12A H 1.1961 0.5245 1.6980
C11A C 1.1565(11) 0.6160(11) 1.6025(10)
H13A H 1.2278 0.6312 1.5836
C12A C 1.0677(10) 0.6595(10) 1.5640(8)
C13A C 1.0909(10) 0.7341(11) 1.4947(8)
C14A C 1.0219(14) 0.8514(16) 1.3946(11)
H14A H 1.0998 0.9200 1.4186
H15A H 1.0236 0.8072 1.3380
C15A C 0.9163(14) 0.8952(14) 1.3754(12)
H16A H 0.9385 0.9609 1.3443
H17A H 0.9055 0.9260 1.4331
C16A C 0.7179(13) 0.7196(12) 1.3550(9)
C17A C 0.5980(11) 0.6350(11) 1.2872(8)
C18A C 0.5877(12) 0.5852(12) 1.1966(8)
H18A H 0.6571 0.6046 1.1748
C19A C 0.4754(13) 0.5083(13) 1.1408(9)
H19A H 0.4673 0.4783 1.0799
C20A C 0.3694(12) 0.4734(12) 1.1759(9)
H20A H 0.2942 0.4174 1.1384
C21A C 0.4910(10) 0.5992(10) 1.3191(8)
H21A H 0.4977 0.6294 1.3796
O33A O 0.7517(9) 0.3520(8) 1.6622(6)
O6? O 0.559(2) 0.9288(16) 1.2053(15)
O8? O 0.4203(16) 0.7803(15) 1.1109(11)
O10? O 0.5163(17) 0.7352(15) 1.0294(12)
O13? O 0.3629(17) 0.7116(14) 0.8720(11)
O15? O 0.1775(15) 0.6962(14) 0.9634(10)
O18? O 0.6035(15) 0.8139(15) 0.8958(10)
O21? O 0.7916(15) 1.1467(14) 0.8849(10)
loop_
_geom_bond_atom_site_label_1
_geom_bond_atom_site_label_2
_geom_bond_site_symmetry_1
_geom_bond_site_symmetry_2
Cu1 N1 1_555 1_555
Si1 O1 1_555 1_555
Mo1 O1 1_555 1_555
Mo2 O3 1_555 1_555
Mo3 O3 1_555 1_555
Mo4 O2 1_555 1_555
Mo5 O1 1_555 1_555
Mo6 O3 1_555 1_555
O2 Si1 1_555 1_555
O3 Si1 1_555 1_555
O4 Si1 1_555 1_555
O5 Mo1 1_555 1_555
O7 Mo2 1_555 1_555
O9 Mo3 1_555 1_555
O11 Mo1 1_555 1_555
O12 Mo3 1_555 1_555
O14 Mo3 1_555 1_555
O16 Mo4 1_555 1_555
O17 Mo4 1_555 1_555
O19 Mo2 1_555 1_555
O20 Mo2 1_555 1_555
O22 Mo1 1_555 1_555
O23 Mo1 1_555 1_555
O24 Mo2 1_555 1_555
O25 Mo3 1_555 1_555
O26 Mo4 1_555 1_555
O27 Mo5 1_555 1_555
O28 Mo6 1_555 1_555
O29 C13 1_555 1_555
O30 C16 1_555 1_555
O31 C6 1_555 1_555
O32 Mo1 1_555 1_555
N1 C8 1_555 1_555
N2 C20 1_555 1_555
N3 H1 1_555 1_555
N4 H2 1_555 1_555
N5 Cu1 1_555 1_555
N6 H3 1_555 1_555
C1 N5 1_555 1_555
H4 C1 1_555 1_555
C2 N5 1_555 1_555
H5 C2 1_555 1_555
C3 C2 1_555 1_555
H6 C3 1_555 1_555
C4 C3 1_555 1_555
H7 C4 1_555 1_555
C5 C1 1_555 1_555
C6 N6 1_555 1_555
C7 N6 1_555 1_555
H8 C7 1_555 1_555
H9 C7 1_555 1_555
C8 H10 1_555 1_555
C9 N1 1_555 1_555
H11 C9 1_555 1_555
C10 C9 1_555 1_555
H12 C10 1_555 1_555
C11 C10 1_555 1_555
H13 C11 1_555 1_555
C12 C8 1_555 1_555
C13 N3 1_555 1_555
C14 N3 1_555 1_555
H14 C14 1_555 1_555
H15 C14 1_555 1_555
C15 N4 1_555 1_555
H16 C15 1_555 1_555
H17 C15 1_555 1_555
C16 N4 1_555 1_555
C17 C16 1_555 1_555
C18 C17 1_555 1_555
H18 C18 1_555 1_555
C19 C18 1_555 1_555
H19 C19 1_555 1_555
C20 C19 1_555 1_555
H20 C20 1_555 1_555
C21 N2 1_555 1_555
H21 C21 1_555 1_555
O33 Cu1 1_555 1_555
Cu1A N2 1_555 1_555
Cu1A_2 N5A 1_555 1_555
Mo1A O1A 1_555 1_555
Mo2A O3A 1_555 1_555
Mo3A O3A 1_555 1_555
Mo4A O4 1_555 1_555
Mo5A O12 1_555 1_555
Mo6A O16 1_555 1_555
O1A Si1 1_555 1_555
O2A Si1 1_555 1_555
O3A Si1 1_555 1_555
O4A Si1 1_555 1_555
O5A Mo1A 1_555 1_555
O7A Mo2A 1_555 1_555
O9A Mo3A 1_555 1_555
O11A Mo1A 1_555 1_555
O12A Mo5 1_555 1_555
O14A Mo3A 1_555 1_555
O16A Mo6 1_555 1_555
O17A Mo5 1_555 1_555
O19A Mo2A 1_555 1_555
O20A Mo2A 1_555 1_555
O22A Mo6 1_555 1_555
O23A Mo1A 1_555 1_555
O24A Mo2A 1_555 1_555
O25A Mo3A 1_555 1_555
O26A Mo4A 1_555 1_555
O27A Mo5A 1_555 1_555
O28A Mo6A 1_555 1_555
O29A C13A 1_555 1_555
O30A C16A 1_555 1_555
O31A C6A 1_555 1_555
O32A Mo1A 1_555 1_555
N1A Cu1A 1_555 1_555
N2A Cu1 1_555 1_555
N3A H1A 1_555 1_555
N4A H2A 1_555 1_555
N5A C1A 1_555 1_555
N5A_2 Cu1A 1_555 1_555
N6A H3A 1_555 1_555
C1A H4A 1_555 1_555
C2A N5A 1_555 1_555
H5A C2A 1_555 1_555
C3A C2A 1_555 1_555
H6A C3A 1_555 1_555
C4A C3A 1_555 1_555
H7A C4A 1_555 1_555
C5A C1A 1_555 1_555
C6A N6A 1_555 1_555
C7A C7 1_555 1_555
H8A C7A 1_555 1_555
H9A C7A 1_555 1_555
C8A N1A 1_555 1_555
H10A C8A 1_555 1_555
C9A N1A 1_555 1_555
H11A C9A 1_555 1_555
C10A C9A 1_555 1_555
H12A C10A 1_555 1_555
C11A C10A 1_555 1_555
H13A C11A 1_555 1_555
C12A C8A 1_555 1_555
C13A N3A 1_555 1_555
C14A N3A 1_555 1_555
H14A C14A 1_555 1_555
H15A C14A 1_555 1_555
C15A N4A 1_555 1_555
H16A C15A 1_555 1_555
H17A C15A 1_555 1_555
C16A N4A 1_555 1_555
C17A C16A 1_555 1_555
C18A C17A 1_555 1_555
H18A C18A 1_555 1_555
C19A C18A 1_555 1_555
H19A C19A 1_555 1_555
C20A N2A 1_555 1_555
H20A C20A 1_555 1_555
C21A N2A 1_555 1_555
H21A C21A 1_555 1_555
O33A Cu1A 1_555 1_555
Mo2 O5 1_555 1_555
Mo3 O7 1_555 1_555
Mo4 O9 1_555 1_555
Mo4 O11 1_555 1_555
Mo4 O4A 1_555 1_555
Mo5 O4 1_555 1_555
Mo5 O19 1_555 1_555
Mo5 O32 1_555 1_555
Mo6 O14 1_555 1_555
Mo6 O20 1_555 1_555
O2 O4A 1_555 1_555
O4 O2A 1_555 1_555
O17 Mo5A 1_555 1_555
O22 Mo6A 1_555 1_555
C4 C5 1_555 1_555
C5 C6 1_555 1_555
C11 C12 1_555 1_555
C12 C13 1_555 1_555
C14 C15 1_555 1_555
C17 C21 1_555 1_555
Mo1A O22A 1_555 1_555
Mo2A O5A 1_555 1_555
Mo3A O7A 1_555 1_555
Mo3A O12A 1_555 1_555
Mo4A O2A 1_555 1_555
Mo4A O9A 1_555 1_555
Mo4A O11A 1_555 1_555
Mo4A O16A 1_555 1_555
Mo4A O17A 1_555 1_555
Mo5A O1A 1_555 1_555
Mo5A O4A 1_555 1_555
Mo5A O19A 1_555 1_555
Mo5A O32A 1_555 1_555
Mo6A O3A 1_555 1_555
Mo6A O14A 1_555 1_555
Mo6A O20A 1_555 1_555
N6A C7A 1_555 1_555
C4A C5A 1_555 1_555
C5A C6A 1_555 1_555
C11A C12A 1_555 1_555
C12A C13A 1_555 1_555
C14A C15A 1_555 1_555
C17A C21A 1_555 1_555
C19A C20A 1_555 1_555

#END
