
#######################################################################
#
#                 Cambridge Crystallographic Data Centre
#                                CCDC 
#
#######################################################################
#
# If this CIF has been generated from an entry in the Cambridge 
# Structural Database, then it will include bibliographic, chemical, 
# crystal, experimental, refinement or atomic coordinate data resulting 
# from the CCDC's data processing and validation procedures.
#
#######################################################################

data_WEDJEW
_symmetry_cell_setting           monoclinic
_symmetry_space_group_name_H-M   'C 2/c'
_symmetry_Int_Tables_number      15
_space_group_name_Hall           '-C 2yn'
loop_
_symmetry_equiv_pos_site_id
_symmetry_equiv_pos_as_xyz
1 x,y,z
2 -x,y,1/2-z
3 1/2+x,1/2+y,z
4 1/2-x,1/2+y,1/2-z
5 -x,-y,-z
6 x,-y,1/2+z
7 1/2-x,1/2-y,-z
8 1/2+x,1/2-y,1/2+z
_cell_length_a                   27.702(3)
_cell_length_b                   21.936(3)
_cell_length_c                   14.7045(15)
_cell_angle_alpha                90
_cell_angle_beta                 91.589(2)
_cell_angle_gamma                90
_cell_volume                     8932.06
loop_
_atom_site_label
_atom_site_type_symbol
_atom_site_fract_x
_atom_site_fract_y
_atom_site_fract_z
Si1 Si 0.0000 0.30419(16) 0.7500
Mo1 Mo 0.0000 0.46469(6) 0.7500
Mo2 Mo 0.10865(4) 0.38479(5) 0.72118(8)
Mo3 Mo 0.01947(4) 0.38429(5) 0.54678(6)
Mo4 Mo 0.08915(4) 0.30496(5) 0.92509(7)
Mo5 Mo 0.01960(5) 0.22384(6) 0.54652(7)
Mo6 Mo 0.10827(5) 0.22392(5) 0.72218(8)
Mo7 Mo 0.0000 0.14384(6) 0.7500
O1 O 0.0212(4) 0.3631(5) 0.7058(7)
O2 O 0.0677(3) 0.4497(4) 0.7517(6)
O3 O 0.0823(3) 0.3890(4) 0.6012(6)
O4 O -0.0002(3) 0.4479(4) 0.6238(6)
O5 O -0.0054(4) 0.3042(5) 0.6415(7)
O6 O 0.1153(6) 0.3647(4) 0.8459(6)
O7 O -0.0467(3) 0.3631(3) 0.5317(7)
O8 O 0.0968(5) 0.2429(6) 0.8375(9)
O10 O 0.0478(3) 0.2437(3) 0.9704(7)
O11 O 0.0342(3) 0.3038(4) 0.5106(8)
O12 O 0.0190(4) 0.2441(5) 0.7048(8)
O13 O 0.0617(4) 0.3054(5) 0.7727(8)
O14 O 0.1126(5) 0.3012(6) 0.6877(9)
O16 O 0.0815(3) 0.2192(5) 0.6015(6)
O17 O 0.0662(3) 0.1584(5) 0.7548(6)
O18 O -0.0001(3) 0.1599(5) 0.6234(6)
O19 O 0.0000 0.0683(5) 0.7500
O20 O 0.1585(3) 0.1853(4) 0.7078(6)
O21 O 0.0285(5) 0.1867(4) 0.4509(7)
O22 O 0.1314(3) 0.3047(4) 1.0067(6)
O23 O 0.0268(3) 0.4215(5) 0.4523(6)
O24 O 0.1600(3) 0.4219(4) 0.7063(6)
O25 O 0.0000 0.5402(4) 0.7500
Mo2A Mo -0.10865(4) 0.38479(5) 0.77882(8)
Mo3A Mo -0.01947(4) 0.38429(5) 0.95322(6)
Mo4A Mo -0.08915(4) 0.30496(5) 0.57491(7)
Mo5A Mo -0.01960(5) 0.22384(6) 0.95348(7)
Mo6A Mo -0.10827(5) 0.22392(5) 0.77782(8)
O1A O -0.0212(4) 0.3631(5) 0.7942(7)
O2A O -0.0677(3) 0.4497(4) 0.7483(6)
O3A O -0.0823(3) 0.3890(4) 0.8988(6)
O4A O 0.0002(3) 0.4479(4) 0.8762(6)
O5A O 0.0054(4) 0.3042(5) 0.8585(7)
O6A O -0.1153(6) 0.3647(4) 0.6541(6)
O7A O 0.0467(3) 0.3631(3) 0.9683(7)
O8A O -0.0968(5) 0.2429(6) 0.6625(9)
O10A O -0.0478(3) 0.2437(3) 0.5296(7)
O11A O -0.0342(3) 0.3038(4) 0.9894(8)
O12A O -0.0190(4) 0.2441(5) 0.7952(8)
O13A O -0.0617(4) 0.3054(5) 0.7273(8)
O14A O -0.1126(5) 0.3012(6) 0.8123(9)
O16A O -0.0815(3) 0.2192(5) 0.8985(6)
O17A O -0.0662(3) 0.1584(5) 0.7452(6)
O18A O 0.0001(3) 0.1599(5) 0.8766(6)
O20A O -0.1585(3) 0.1853(4) 0.7922(6)
O21A O -0.0285(5) 0.1867(4) 1.0491(7)
O22A O -0.1314(3) 0.3047(4) 0.4933(6)
O23A O -0.0268(3) 0.4215(5) 1.0477(6)
O24A O -0.1600(3) 0.4219(4) 0.7937(6)
O29 O 0.2410(4) 0.0262(4) 0.6892(6)
O30 O 0.2243(4) 0.0837(5) 0.3571(7)
O32 O 0.1114(8) 0.1129(14) 0.4034(12)
O33 O 0.1059(12) 0.0395(11) 0.657(3)
O34 O 0.003(2) -0.013(3) 0.565(4)
O35 O 0.0000 -0.050(3) 0.7500
O36 O 0.2308(4) 0.4019(6) 0.8545(8)
Cu1 Cu 0.23135(5) 0.05410(6) 0.52473(9)
O26 O 0.3109(3) -0.0999(3) 0.2831(5)
O27 O 0.2589(5) 0.3108(4) 0.7298(7)
O28 O 0.3700(6) -0.3963(7) 0.2842(8)
C1 C 0.3023(4) -0.0218(4) 0.4282(7)
H1 H 0.2763 -0.0288 0.3882
C2 C 0.3466(4) -0.0457(4) 0.4074(7)
C3 C 0.3488(4) -0.0825(5) 0.3213(8)
C4 C 0.3993(6) -0.1341(7) 0.2112(13)
H2 H 0.3678 -0.1463 0.1872
H3 H 0.4144 -0.1099 0.1647
C5 C 0.3846(4) -0.0357(5) 0.4662(9)
H4 H 0.4151 -0.0505 0.4531
C6 C 0.3776(5) -0.0039(6) 0.5441(9)
H5 H 0.4031 0.0019 0.5856
C7 C 0.3324(5) 0.0198(5) 0.5618(8)
H6 H 0.3279 0.0419 0.6149
C8 C 0.2573(3) 0.1660(4) 0.6246(6)
H7 H 0.2360 0.1495 0.6657
C9 C 0.2776(4) 0.2220(5) 0.6437(7)
C10 C 0.2650(5) 0.2542(5) 0.7325(8)
C11 C 0.2464(6) 0.2463(6) 0.8946(10)
C12 C 0.2485(9) 0.1946(11) 0.9636(15)
C13 C 0.2731(11) 0.2820(14) 0.9410(19)
C14 C 0.3087(4) 0.2470(5) 0.5826(7)
H8 H 0.3221 0.2854 0.5927
C15 C 0.3195(4) 0.2144(5) 0.5070(8)
H9 H 0.3413 0.2298 0.4658
C16 C 0.2980(4) 0.1582(5) 0.4919(7)
H10 H 0.3057 0.1365 0.4399
C17 C 0.3283(4) -0.4480(5) 0.4318(8)
H11 H 0.3183 -0.4591 0.3732
C18 C 0.3610(4) -0.4013(5) 0.4410(9)
C19 C 0.3802(6) -0.3722(7) 0.3582(11)
C20 C 0.4296(8) -0.2918(9) 0.2931(14)
H12 H 0.4643 -0.2891 0.3029
H13 H 0.4231 -0.3139 0.2369
C21 C 0.3757(5) -0.3843(6) 0.5285(9)
H14 H 0.3981 -0.3532 0.5385
C22 C 0.3558(6) -0.4155(7) 0.6000(10)
H15 H 0.3642 -0.4050 0.6596
C23 C 0.3237(5) -0.4619(6) 0.5835(10)
H16 H 0.3111 -0.4825 0.6328
C24 C 0.4278(7) -0.1885(8) 0.2247(13)
H17 H 0.4309 -0.2089 0.1666
H18 H 0.4599 -0.1770 0.2461
C25 C 0.4083(8) -0.2297(10) 0.2869(15)
H19 H 0.4109 -0.2113 0.3469
H20 H 0.3741 -0.2341 0.2720
N1 N 0.2948(3) 0.0110(4) 0.5030(6)
N2 N 0.3920(4) -0.0948(4) 0.2899(8)
H21 H 0.4169 -0.0790 0.3170
N3 N 0.2670(3) 0.1342(4) 0.5486(5)
N4 N 0.2625(4) 0.2217(4) 0.8064(6)
H22 H 0.2706 0.1839 0.8040
N5 N 0.3099(3) -0.4785(4) 0.5011(7)
N6 N 0.4082(5) -0.3236(5) 0.3684(8)
H23 H 0.4140 -0.3102 0.4225
O31 O 0.1688(3) 0.0982(4) 0.5466(6)
Cu1F Cu 0.26865(5) -0.55410(6) 0.47527(9)
Cu1F_2 Cu 0.26865(5) 0.44590(6) 1.47527(9)
O26F O 0.1891(3) -0.4001(3) 0.7169(5)
O27F O 0.2411(5) 0.1892(4) 1.2702(7)
O28F O 0.1300(6) -0.1037(7) 0.7158(8)
C1F C 0.1977(4) -0.4782(4) 0.5718(7)
H1F H 0.2237 -0.4712 0.6118
C2F C 0.1534(4) -0.4543(4) 0.5926(7)
C3F C 0.1512(4) -0.4175(5) 0.6787(8)
C4F C 0.1007(6) -0.3659(7) 0.7888(13)
H2F H 0.1322 -0.3537 0.8128
H3F H 0.0856 -0.3901 0.8353
C5F C 0.1154(4) -0.4643(5) 0.5338(9)
H4F H 0.0849 -0.4495 0.5469
C6F C 0.1224(5) -0.4961(6) 0.4559(9)
H5F H 0.0969 -0.5019 0.4144
C7F C 0.1676(5) -0.5198(5) 0.4382(8)
H6F H 0.1721 -0.5419 0.3851
C8F C 0.2427(3) 0.3340(4) 1.3754(6)
H7F H 0.2640 0.3505 1.3343
C9F C 0.2224(4) 0.2780(5) 1.3563(7)
C10F C 0.2350(5) 0.2458(5) 1.2675(8)
C11F C 0.2536(6) 0.2537(6) 1.1054(10)
C12F C 0.2515(9) 0.3054(11) 1.0364(15)
C13F C 0.2269(11) 0.2180(14) 1.0590(19)
C14F C 0.1913(4) 0.2530(5) 1.4174(7)
H8F H 0.1779 0.2146 1.4073
C15F C 0.1805(4) 0.2856(5) 1.4930(8)
H9F H 0.1587 0.2702 1.5342
C16F C 0.2020(4) 0.3418(5) 1.5081(7)
H10F H 0.1943 0.3635 1.5601
C17F C 0.1717(4) -0.0520(5) 0.5682(8)
H11F H 0.1817 -0.0409 0.6268
C18F C 0.1390(4) -0.0987(5) 0.5590(9)
C19F C 0.1198(6) -0.1278(7) 0.6418(11)
C20F C 0.0704(8) -0.2082(9) 0.7069(14)
H12F H 0.0357 -0.2109 0.6971
H13F H 0.0769 -0.1861 0.7631
C21F C 0.1243(5) -0.1157(6) 0.4715(9)
H14F H 0.1019 -0.1468 0.4615
C22F C 0.1442(6) -0.0845(7) 0.4000(10)
H15F H 0.1358 -0.0950 0.3404
C23F C 0.1763(5) -0.0381(6) 0.4165(10)
H16F H 0.1889 -0.0175 0.3672
C24F C 0.0722(7) -0.3115(8) 0.7753(13)
H17F H 0.0691 -0.2911 0.8334
H18F H 0.0401 -0.3230 0.7539
C25F C 0.0917(8) -0.2703(10) 0.7131(15)
H19F H 0.0891 -0.2887 0.6531
H20F H 0.1259 -0.2659 0.7280
N1F N 0.2052(3) -0.5110(4) 0.4970(6)
N2F N 0.1080(4) -0.4052(4) 0.7101(8)
H21F H 0.0831 -0.4210 0.6830
N3F N 0.2330(3) 0.3658(4) 1.4514(5)
N3F_2 N 0.2330(3) -0.6342(4) 0.4514(5)
N4F N 0.2375(4) 0.2783(4) 1.1936(6)
H22F H 0.2294 0.3161 1.1960
N5F N 0.1901(3) -0.0215(4) 0.4989(7)
N6F N 0.0918(5) -0.1764(5) 0.6316(8)
H23F H 0.0860 -0.1898 0.5775
O31F O 0.3312(3) -0.5982(4) 0.4534(6)
O9? O -0.1312(5) 0.2467(6) 0.6453(9)
O15? O 0.1452(6) 0.3062(7) 0.6984(10)
loop_
_geom_bond_atom_site_label_1
_geom_bond_atom_site_label_2
_geom_bond_site_symmetry_1
_geom_bond_site_symmetry_2
Cu1 N1 1_555 1_555
Si1 O1 1_555 1_555
Mo1 O1 1_555 1_555
Mo2 O2 1_555 1_555
Mo3 O1 1_555 1_555
Mo4 O6 1_555 1_555
Mo5 O5 1_555 1_555
Mo6 O8 1_555 1_555
Mo7 O12 1_555 1_555
O1 O5 1_555 1_555
O2 Mo1 1_555 1_555
O3 Mo2 1_555 1_555
O4 Mo1 1_555 1_555
O5 Si1 1_555 1_555
O6 Mo2 1_555 1_555
O7 Mo3 1_555 1_555
O8 Mo4 1_555 1_555
O10 Mo4 1_555 1_555
O11 Mo3 1_555 1_555
O12 Si1 1_555 1_555
O13 Si1 1_555 1_555
O14 Mo2 1_555 1_555
O16 Mo5 1_555 1_555
O17 Mo6 1_555 1_555
O18 Mo5 1_555 1_555
O19 Mo7 1_555 1_555
O20 Mo6 1_555 1_555
O21 Mo5 1_555 1_555
O22 Mo4 1_555 1_555
O23 Mo3 1_555 1_555
O24 Mo2 1_555 1_555
O25 Mo1 1_555 1_555
O26 C3 1_555 1_555
O27 C10 1_555 1_555
O28 C19 1_555 1_555
C1 H1 1_555 1_555
C2 C1 1_555 1_555
C3 C2 1_555 1_555
C4 H2 1_555 1_555
H3 C4 1_555 1_555
C5 C2 1_555 1_555
H4 C5 1_555 1_555
C6 C5 1_555 1_555
H5 C6 1_555 1_555
C7 C6 1_555 1_555
H6 C7 1_555 1_555
C8 H7 1_555 1_555
C9 C8 1_555 1_555
C10 C9 1_555 1_555
C11 C12 1_555 1_555
C12 C13F 1_555 1_555
C13 C11 1_555 1_555
C14 C9 1_555 1_555
H8 C14 1_555 1_555
C15 C14 1_555 1_555
H9 C15 1_555 1_555
C16 C15 1_555 1_555
H10 C16 1_555 1_555
C17 H11 1_555 1_555
C18 C17 1_555 1_555
C19 C18 1_555 1_555
C20 H12 1_555 1_555
H13 C20 1_555 1_555
C21 C18 1_555 1_555
H14 C21 1_555 1_555
C22 C21 1_555 1_555
H15 C22 1_555 1_555
C23 C22 1_555 1_555
H16 C23 1_555 1_555
C24 C4 1_555 1_555
H17 C24 1_555 1_555
H18 C24 1_555 1_555
C25 C20 1_555 1_555
H19 C25 1_555 1_555
H20 C25 1_555 1_555
N1 C1 1_555 1_555
N2 C3 1_555 1_555
H21 N2 1_555 1_555
N3 Cu1 1_555 1_555
N4 C10 1_555 1_555
H22 N4 1_555 1_555
N5 C17 1_555 1_555
N6 C19 1_555 1_555
H23 N6 1_555 1_555
O31 Cu1 1_555 1_555
Cu1F N5 1_555 1_555
Cu1F_2 N3F 1_555 1_555
Mo2A O2A 1_555 1_555
Mo3A O1A 1_555 1_555
Mo4A O7 1_555 1_555
Mo5A O10 1_555 1_555
Mo6A O8A 1_555 1_555
O1A Si1 1_555 1_555
O2A Mo1 1_555 1_555
O3A Mo2A 1_555 1_555
O4A Mo1 1_555 1_555
O5A Si1 1_555 1_555
O6A Mo2A 1_555 1_555
O7A Mo4 1_555 1_555
O8A Mo4A 1_555 1_555
O10A Mo5 1_555 1_555
O11A Mo3A 1_555 1_555
O12A Si1 1_555 1_555
O13A Si1 1_555 1_555
O14A Mo2A 1_555 1_555
O16A Mo5A 1_555 1_555
O17A Mo7 1_555 1_555
O18A Mo7 1_555 1_555
O20A Mo6A 1_555 1_555
O21A Mo5A 1_555 1_555
O22A Mo4A 1_555 1_555
O23A Mo3A 1_555 1_555
O24A Mo2A 1_555 1_555
O26F C3F 1_555 1_555
O27F C10F 1_555 1_555
O28F C19F 1_555 1_555
C1F H1F 1_555 1_555
C2F C1F 1_555 1_555
C3F C2F 1_555 1_555
C4F H2F 1_555 1_555
H3F C4F 1_555 1_555
C5F C2F 1_555 1_555
H4F C5F 1_555 1_555
C6F C5F 1_555 1_555
H5F C6F 1_555 1_555
C7F C6F 1_555 1_555
H6F C7F 1_555 1_555
C8F H7F 1_555 1_555
C9F C8F 1_555 1_555
C10F C9F 1_555 1_555
C11F C12F 1_555 1_555
C12F C13 1_555 1_555
C13F C11F 1_555 1_555
C14F C9F 1_555 1_555
H8F C14F 1_555 1_555
C15F C14F 1_555 1_555
H9F C15F 1_555 1_555
C16F C15F 1_555 1_555
H10F C16F 1_555 1_555
C17F H11F 1_555 1_555
C18F C17F 1_555 1_555
C19F C18F 1_555 1_555
C20F H12F 1_555 1_555
H13F C20F 1_555 1_555
C21F C18F 1_555 1_555
H14F C21F 1_555 1_555
C22F C21F 1_555 1_555
H15F C22F 1_555 1_555
C23F C22F 1_555 1_555
H16F C23F 1_555 1_555
C24F C4F 1_555 1_555
H17F C24F 1_555 1_555
H18F C24F 1_555 1_555
C25F C20F 1_555 1_555
H19F C25F 1_555 1_555
H20F C25F 1_555 1_555
N1F Cu1F 1_555 1_555
N2F C3F 1_555 1_555
H21F N2F 1_555 1_555
N3F C8F 1_555 1_555
N3F_2 Cu1F 1_555 1_555
N4F C10F 1_555 1_555
H22F N4F 1_555 1_555
N5F Cu1 1_555 1_555
N6F C19F 1_555 1_555
H23F N6F 1_555 1_555
O31F Cu1F 1_555 1_555
Mo1 O1A 1_555 1_555
Mo2 O13 1_555 1_555
Mo3 O3 1_555 1_555
Mo3 O4 1_555 1_555
Mo3 O5 1_555 1_555
Mo4 O13 1_555 1_555
Mo5 O11 1_555 1_555
Mo5 O12 1_555 1_555
Mo6 O13 1_555 1_555
Mo6 O14 1_555 1_555
Mo6 O16 1_555 1_555
Mo7 O17 1_555 1_555
Mo7 O18 1_555 1_555
Mo7 O12A 1_555 1_555
O5 O12 1_555 1_555
O12 O12A 1_555 1_555
C4 N2 1_555 1_555
C7 N1 1_555 1_555
C8 N3 1_555 1_555
C11 N4 1_555 1_555
C16 N3 1_555 1_555
C20 N6 1_555 1_555
C23 N5 1_555 1_555
C24 C25 1_555 1_555
Mo2A O13A 1_555 1_555
Mo3A O3A 1_555 1_555
Mo3A O4A 1_555 1_555
Mo3A O5A 1_555 1_555
Mo3A O7A 1_555 1_555
Mo4A O6A 1_555 1_555
Mo4A O10A 1_555 1_555
Mo4A O13A 1_555 1_555
Mo5A O5A 1_555 1_555
Mo5A O11A 1_555 1_555
Mo5A O12A 1_555 1_555
Mo5A O18A 1_555 1_555
Mo6A O13A 1_555 1_555
Mo6A O14A 1_555 1_555
Mo6A O16A 1_555 1_555
Mo6A O17A 1_555 1_555
O1A O5A 1_555 1_555
O5A O12A 1_555 1_555
C1F N1F 1_555 1_555
C4F N2F 1_555 1_555
C7F N1F 1_555 1_555
C11F N4F 1_555 1_555
C16F N3F 1_555 1_555
C17F N5F 1_555 1_555
C20F N6F 1_555 1_555
C23F N5F 1_555 1_555
C24F C25F 1_555 1_555

#END
