
#######################################################################
#
#                 Cambridge Crystallographic Data Centre
#                                CCDC 
#
#######################################################################
#
# If this CIF has been generated from an entry in the Cambridge 
# Structural Database, then it will include bibliographic, chemical, 
# crystal, experimental, refinement or atomic coordinate data resulting 
# from the CCDC's data processing and validation procedures.
#
#######################################################################

data_WEDJIA
_symmetry_cell_setting           monoclinic
_symmetry_space_group_name_H-M   'C 2/c'
_symmetry_Int_Tables_number      15
_space_group_name_Hall           '-C 2yn'
loop_
_symmetry_equiv_pos_site_id
_symmetry_equiv_pos_as_xyz
1 x,y,z
2 -x,y,1/2-z
3 1/2+x,1/2+y,z
4 1/2-x,1/2+y,1/2-z
5 -x,-y,-z
6 x,-y,1/2+z
7 1/2-x,1/2-y,-z
8 1/2+x,1/2-y,1/2+z
_cell_length_a                   27.885(3)
_cell_length_b                   21.858(3)
_cell_length_c                   14.8631(17)
_cell_angle_alpha                90
_cell_angle_beta                 90.450(2)
_cell_angle_gamma                90
_cell_volume                     9058.93
loop_
_atom_site_label
_atom_site_type_symbol
_atom_site_fract_x
_atom_site_fract_y
_atom_site_fract_z
Si1 Si 0.0000 0.1963(2) 0.2500
W1 W 0.0000 0.35740(4) 0.2500
W2 W -0.02028(2) 0.27726(3) 0.45208(4)
W3 W 0.02037(2) 0.11543(3) 0.04799(4)
W4 W 0.08812(3) 0.19573(3) 0.42139(4)
W5 W -0.10282(11) 0.28344(14) 0.28407(19)
W7 W 0.10821(2) 0.11535(3) 0.21939(4)
W8 W 0.0000 0.03489(4) 0.2500
O1 O -0.0196(6) 0.2574(8) 0.2972(11)
O2 O 0.0608(5) 0.1966(7) 0.2720(10)
O3 O 0.0206(6) 0.1355(7) 0.2081(11)
O4 O 0.0048(6) 0.1959(7) 0.3554(10)
O5 O 0.0461(4) 0.2572(5) 0.4675(9)
O6 O -0.0366(7) 0.1981(9) 0.5059(13)
O7 O -0.0464(7) 0.1368(9) 0.0549(13)
O8 O -0.0029(8) 0.3294(10) 0.3630(13)
O9 O 0.0647(8) 0.3536(10) 0.2423(12)
O10 O 0.1278(8) 0.2561(8) 0.3489(11)
O11 O -0.1124(8) 0.1971(9) 0.3126(11)
O12 O 0.1282(8) 0.1333(9) 0.3520(11)
O13 O -0.0014(8) 0.0642(9) 0.1357(13)
O22 O 0.0668(4) 0.0508(6) 0.2534(7)
O23 O -0.0806(4) 0.2818(7) 0.3971(8)
O24 O 0.0000 -0.0423(7) 0.2500
O25 O 0.1602(3) 0.0782(6) 0.2051(7)
O26 O -0.1589(4) 0.3164(5) 0.2950(7)
O27 O 0.1301(4) 0.1964(5) 0.5032(7)
O28 O 0.0824(4) 0.1103(6) 0.1004(7)
O29 O 0.0287(4) 0.0774(6) -0.0473(7)
O30 O -0.0303(5) 0.3156(6) 0.5469(7)
O31 O 0.0000 0.4350(8) 0.2500
W2A W 0.02028(2) 0.27726(3) 0.04792(4)
W3A W -0.02037(2) 0.11543(3) 0.45201(4)
W4A W -0.08812(3) 0.19573(3) 0.07861(4)
W5A W 0.10282(11) 0.28344(14) 0.21593(19)
W7A W -0.10821(2) 0.11535(3) 0.28061(4)
O1A O 0.0196(6) 0.2574(8) 0.2028(11)
O2A O -0.0608(5) 0.1966(7) 0.2280(10)
O3A O -0.0206(6) 0.1355(7) 0.2919(11)
O4A O -0.0048(6) 0.1959(7) 0.1446(10)
O5A O -0.0461(4) 0.2572(5) 0.0325(9)
O6A O 0.0366(7) 0.1981(9) -0.0059(13)
O7A O 0.0464(7) 0.1368(9) 0.4451(13)
O8A O 0.0029(8) 0.3294(10) 0.1370(13)
O9A O -0.0647(8) 0.3536(10) 0.2577(12)
O10A O -0.1278(8) 0.2561(8) 0.1511(11)
O11A O 0.1124(8) 0.1971(9) 0.1874(11)
O12A O -0.1282(8) 0.1333(9) 0.1480(11)
O13A O 0.0014(8) 0.0642(9) 0.3643(13)
O22A O -0.0668(4) 0.0508(6) 0.2466(7)
O23A O 0.0806(4) 0.2818(7) 0.1029(8)
O25A O -0.1602(3) 0.0782(6) 0.2949(7)
O26A O 0.1589(4) 0.3164(5) 0.2050(7)
O27A O -0.1301(4) 0.1964(5) -0.0032(7)
O28A O -0.0824(4) 0.1103(6) 0.3996(7)
O29A O -0.0287(4) 0.0774(6) 0.5473(7)
O30A O 0.0303(5) 0.3156(6) -0.0469(7)
O35 O 0.2583(6) -0.0245(7) 0.3127(7)
O36 O 0.2746(6) -0.0861(6) 0.6321(10)
O38 O 0.3829(8) 0.1170(10) 0.1087(14)
O39 O 0.2309(5) 0.0971(7) 0.3536(10)
O40 O 0.1074(13) 0.4628(17) 0.164(2)
O41 O 0.006(3) 0.555(3) 0.340(5)
Cu1 Cu 0.26739(7) -0.05488(8) 0.47561(12)
O32 O 0.1898(4) 0.0999(5) 0.7180(7)
O33 O 0.1294(7) 0.3954(8) 0.7110(11)
O34 O 0.2420(6) -0.3114(5) 0.2678(8)
N1 N 0.2043(4) -0.0117(5) 0.4988(7)
N2 N 0.1091(5) 0.0970(6) 0.7132(10)
H1 H 0.0842 0.0826 0.6861
N3 N 0.0924(6) 0.3243(6) 0.6250(11)
H2 H 0.0873 0.3129 0.5704
N4 N 0.1918(5) 0.4791(6) 0.4956(9)
N5 N 0.2318(4) -0.1345(5) 0.4483(7)
N6 N 0.2386(5) -0.2214(6) 0.1928(8)
H3 H 0.2303 -0.1835 0.1945
C1 C 0.1655(8) -0.0180(7) 0.4421(11)
H4 H 0.1691 -0.0408 0.3897
C2 C 0.1226(8) 0.0074(9) 0.4589(14)
H5 H 0.0976 0.0036 0.4176
C3 C 0.1161(6) 0.0386(7) 0.5368(14)
H6 H 0.0861 0.0543 0.5504
C4 C 0.1535(5) 0.0472(6) 0.5955(11)
C5 C 0.1978(6) 0.0203(7) 0.5736(10)
H7 H 0.2236 0.0251 0.6131
C6 C 0.1521(6) 0.0828(7) 0.6802(12)
C7 C 0.1017(7) 0.1343(9) 0.7904(15)
H8 H 0.1329 0.1449 0.8153
H9 H 0.0854 0.1098 0.8351
C8 C 0.0737(8) 0.1928(11) 0.7783(13)
H10 H 0.0417 0.1836 0.7561
H11 H 0.0707 0.2135 0.8358
C9 C 0.0977(9) 0.2317(11) 0.7160(13)
H12 H 0.1035 0.2090 0.6610
H13 H 0.1286 0.2432 0.7412
C10 C 0.0691(9) 0.2903(10) 0.6929(16)
H14 H 0.0371 0.2793 0.6725
H15 H 0.0661 0.3154 0.7465
C11 C 0.1201(7) 0.3700(9) 0.6364(13)
C12 C 0.1403(6) 0.4009(9) 0.5547(13)
C13 C 0.1268(7) 0.3831(9) 0.4682(16)
H16 H 0.1052 0.3514 0.4579
C14 C 0.1476(8) 0.4159(11) 0.3978(16)
H17 H 0.1402 0.4051 0.3387
C15 C 0.1786(7) 0.4635(8) 0.4132(14)
H18 H 0.1907 0.4852 0.3646
C16 C 0.1731(6) 0.4482(7) 0.5677(12)
H19 H 0.1825 0.4589 0.6257
C17 C 0.2010(5) -0.1588(7) 0.5037(9)
H20 H 0.1928 -0.1372 0.5553
C18 C 0.1798(6) -0.2156(7) 0.4887(10)
H21 H 0.1580 -0.2313 0.5298
C19 C 0.1911(6) -0.2480(7) 0.4138(10)
H22 H 0.1787 -0.2870 0.4045
C20 C 0.2219(6) -0.2217(7) 0.3509(9)
C21 C 0.2423(5) -0.1662(6) 0.3735(9)
H23 H 0.2647 -0.1496 0.3344
C22 C 0.2348(6) -0.2547(7) 0.2654(12)
C23 C 0.2570(8) -0.2474(9) 0.1070(13)
C24 C 0.2245(12) -0.274(2) 0.0625(19)
C25 C 0.2551(11) -0.1977(14) 0.0341(18)
O37 O 0.3304(4) -0.0969(6) 0.4484(9)
Cu1F Cu 0.23261(7) 0.55488(8) 0.52439(12)
Cu1F_2 Cu 0.23261(7) -0.44512(8) -0.47561(12)
O32F O 0.3102(4) 0.4001(5) 0.2820(7)
O33F O 0.3706(7) 0.1046(8) 0.2890(11)
O34F O 0.2580(6) -0.1886(5) -0.2678(8)
N1F N 0.2957(4) 0.5117(5) 0.5012(7)
N2F N 0.3909(5) 0.4030(6) 0.2868(10)
H1F H 0.4158 0.4174 0.3139
N3F N 0.4076(6) 0.1757(6) 0.3750(11)
H2F H 0.4127 0.1871 0.4296
N4F N 0.3082(5) 0.0209(6) 0.5044(9)
N5F N 0.2682(4) -0.3655(5) -0.4483(7)
N5F_2 N 0.2682(4) 0.6345(5) 0.5517(7)
N6F N 0.2614(5) -0.2786(6) -0.1928(8)
H3F H 0.2697 -0.3165 -0.1945
C1F C 0.3345(8) 0.5180(7) 0.5579(11)
H4F H 0.3309 0.5408 0.6103
C2F C 0.3774(8) 0.4926(9) 0.5411(14)
H5F H 0.4024 0.4964 0.5824
C3F C 0.3839(6) 0.4614(7) 0.4632(14)
H6F H 0.4139 0.4457 0.4496
C4F C 0.3465(5) 0.4528(6) 0.4045(11)
C5F C 0.3022(6) 0.4797(7) 0.4264(10)
H7F H 0.2764 0.4749 0.3869
C6F C 0.3479(6) 0.4172(7) 0.3198(12)
C7F C 0.3983(7) 0.3657(9) 0.2096(15)
H8F H 0.3671 0.3551 0.1847
H9F H 0.4146 0.3902 0.1649
C8F C 0.4263(8) 0.3072(11) 0.2217(13)
H10F H 0.4583 0.3164 0.2439
H11F H 0.4293 0.2865 0.1642
C9F C 0.4023(9) 0.2683(11) 0.2840(13)
H12F H 0.3965 0.2910 0.3390
H13F H 0.3714 0.2568 0.2588
C10F C 0.4309(9) 0.2097(10) 0.3071(16)
H14F H 0.4629 0.2207 0.3275
H15F H 0.4339 0.1846 0.2535
C11F C 0.3799(7) 0.1300(9) 0.3636(13)
C12F C 0.3597(6) 0.0991(9) 0.4453(13)
C13F C 0.3732(7) 0.1169(9) 0.5318(16)
H16F H 0.3948 0.1486 0.5421
C14F C 0.3524(8) 0.0841(11) 0.6022(16)
H17F H 0.3598 0.0949 0.6613
C15F C 0.3214(7) 0.0365(8) 0.5868(14)
H18F H 0.3093 0.0148 0.6354
C16F C 0.3269(6) 0.0518(7) 0.4323(12)
H19F H 0.3175 0.0411 0.3743
C17F C 0.2990(5) -0.3412(7) -0.5037(9)
H20F H 0.3072 -0.3628 -0.5553
C18F C 0.3202(6) -0.2844(7) -0.4887(10)
H21F H 0.3420 -0.2687 -0.5298
C19F C 0.3089(6) -0.2520(7) -0.4138(10)
H22F H 0.3213 -0.2130 -0.4045
C20F C 0.2781(6) -0.2783(7) -0.3509(9)
C21F C 0.2577(5) -0.3338(6) -0.3735(9)
H23F H 0.2353 -0.3504 -0.3344
C22F C 0.2652(6) -0.2453(7) -0.2654(12)
C23F C 0.2430(8) -0.2526(9) -0.1070(13)
C24F C 0.2755(12) -0.226(2) -0.0625(19)
C25F C 0.2449(11) -0.3023(14) -0.0341(18)
O37F O 0.1696(4) 0.5969(6) 0.5516(9)
W6? W 0.11592(15) 0.26701(19) 0.2275(3)
O14? O -0.0337(7) 0.1970(10) 0.4615(14)
O15? O 0.0445(7) 0.1372(10) 0.4886(14)
O16? O 0.0012(8) 0.3544(10) 0.3862(13)
O17? O 0.0659(8) 0.3250(10) 0.2652(13)
O18? O 0.0944(8) 0.2584(9) 0.3364(12)
O19? O 0.1430(8) 0.1950(10) 0.2012(12)
O20? O 0.0975(8) 0.1376(9) 0.3357(12)
O21? O -0.0047(8) 0.0408(10) 0.3857(14)
loop_
_geom_bond_atom_site_label_1
_geom_bond_atom_site_label_2
_geom_bond_site_symmetry_1
_geom_bond_site_symmetry_2
Cu1 N1 1_555 1_555
Si1 O1 1_555 1_555
W1 O1 1_555 1_555
W2 O1 1_555 1_555
W3 O3 1_555 1_555
W4 O2 1_555 1_555
W5 O1 1_555 1_555
W7 O2 1_555 1_555
W8 O3 1_555 1_555
O1 O4 1_555 1_555
O2 Si1 1_555 1_555
O3 Si1 1_555 1_555
O4 Si1 1_555 1_555
O5 W2 1_555 1_555
O6 W2 1_555 1_555
O7 W3 1_555 1_555
O8 W1 1_555 1_555
O9 W1 1_555 1_555
O10 W4 1_555 1_555
O11 W5 1_555 1_555
O12 W4 1_555 1_555
O13 W3 1_555 1_555
O22 W7 1_555 1_555
O23 W2 1_555 1_555
O24 W8 1_555 1_555
O25 W7 1_555 1_555
O26 W5 1_555 1_555
O27 W4 1_555 1_555
O28 W3 1_555 1_555
O29 W3 1_555 1_555
O30 W2 1_555 1_555
O31 W1 1_555 1_555
O32 C6 1_555 1_555
O33 C11 1_555 1_555
O34 C22 1_555 1_555
N1 C1 1_555 1_555
N2 H1 1_555 1_555
N3 H2 1_555 1_555
N4 C15 1_555 1_555
N5 Cu1 1_555 1_555
N6 H3 1_555 1_555
C1 H4 1_555 1_555
C2 C1 1_555 1_555
H5 C2 1_555 1_555
C3 C2 1_555 1_555
H6 C3 1_555 1_555
C4 C3 1_555 1_555
C5 N1 1_555 1_555
H7 C5 1_555 1_555
C6 N2 1_555 1_555
C7 N2 1_555 1_555
H8 C7 1_555 1_555
H9 C7 1_555 1_555
C8 C7 1_555 1_555
H10 C8 1_555 1_555
H11 C8 1_555 1_555
C9 C8 1_555 1_555
H12 C9 1_555 1_555
H13 C9 1_555 1_555
C10 N3 1_555 1_555
H14 C10 1_555 1_555
H15 C10 1_555 1_555
C11 N3 1_555 1_555
C12 C11 1_555 1_555
C13 C12 1_555 1_555
H16 C13 1_555 1_555
C14 C13 1_555 1_555
H17 C14 1_555 1_555
C15 C14 1_555 1_555
H18 C15 1_555 1_555
C16 N4 1_555 1_555
H19 C16 1_555 1_555
C17 N5 1_555 1_555
H20 C17 1_555 1_555
C18 C17 1_555 1_555
H21 C18 1_555 1_555
C19 C18 1_555 1_555
H22 C19 1_555 1_555
C20 C19 1_555 1_555
C21 N5 1_555 1_555
H23 C21 1_555 1_555
C22 N6 1_555 1_555
C23 N6 1_555 1_555
C24 C23 1_555 1_555
C25 C23 1_555 1_555
O37 Cu1 1_555 1_555
Cu1F N4 1_555 1_555
Cu1F_2 N5F 1_555 1_555
W2A O1A 1_555 1_555
W3A O4 1_555 1_555
W4A O7 1_555 1_555
W5A O2 1_555 1_555
W7A O11 1_555 1_555
O1A Si1 1_555 1_555
O2A Si1 1_555 1_555
O3A Si1 1_555 1_555
O4A Si1 1_555 1_555
O5A W2A 1_555 1_555
O6A W3 1_555 1_555
O7A W4 1_555 1_555
O8A W1 1_555 1_555
O9A W1 1_555 1_555
O10A W5 1_555 1_555
O11A W7 1_555 1_555
O12A W4A 1_555 1_555
O13A W8 1_555 1_555
O22A W8 1_555 1_555
O23A W2A 1_555 1_555
O25A W7A 1_555 1_555
O26A W5A 1_555 1_555
O27A W4A 1_555 1_555
O28A W3A 1_555 1_555
O29A W3A 1_555 1_555
O30A W2A 1_555 1_555
O32F C6F 1_555 1_555
O33F C11F 1_555 1_555
O34F C22F 1_555 1_555
N1F Cu1F 1_555 1_555
N2F H1F 1_555 1_555
N3F H2F 1_555 1_555
N4F Cu1 1_555 1_555
N5F C17F 1_555 1_555
N5F_2 Cu1F 1_555 1_555
N6F H3F 1_555 1_555
C1F N1F 1_555 1_555
H4F C1F 1_555 1_555
C2F C1F 1_555 1_555
H5F C2F 1_555 1_555
C3F C2F 1_555 1_555
H6F C3F 1_555 1_555
C4F C3F 1_555 1_555
C5F N1F 1_555 1_555
H7F C5F 1_555 1_555
C6F N2F 1_555 1_555
C7F N2F 1_555 1_555
H8F C7F 1_555 1_555
H9F C7F 1_555 1_555
C8F C7F 1_555 1_555
H10F C8F 1_555 1_555
H11F C8F 1_555 1_555
C9F C8F 1_555 1_555
H12F C9F 1_555 1_555
H13F C9F 1_555 1_555
C10F N3F 1_555 1_555
H14F C10F 1_555 1_555
H15F C10F 1_555 1_555
C11F N3F 1_555 1_555
C12F C11F 1_555 1_555
C13F C12F 1_555 1_555
H16F C13F 1_555 1_555
C14F C13F 1_555 1_555
H17F C14F 1_555 1_555
C15F N4F 1_555 1_555
H18F C15F 1_555 1_555
C16F N4F 1_555 1_555
H19F C16F 1_555 1_555
C17F H20F 1_555 1_555
C18F C17F 1_555 1_555
H21F C18F 1_555 1_555
C19F C18F 1_555 1_555
H22F C19F 1_555 1_555
C20F C19F 1_555 1_555
C21F N5F 1_555 1_555
H23F C21F 1_555 1_555
C22F N6F 1_555 1_555
C23F N6F 1_555 1_555
C24F C25 1_555 1_555
C25F C24 1_555 1_555
O37F Cu1F 1_555 1_555
W1 O1A 1_555 1_555
W2 O4 1_555 1_555
W2 O8 1_555 1_555
W3 O4A 1_555 1_555
W4 O5 1_555 1_555
W5 O23 1_555 1_555
W5 O2A 1_555 1_555
W5 O9A 1_555 1_555
W7 O12 1_555 1_555
W7 O28 1_555 1_555
W8 O13 1_555 1_555
W8 O22 1_555 1_555
W8 O3A 1_555 1_555
O3 O3A 1_555 1_555
O6 W3A 1_555 1_555
O9 W5A 1_555 1_555
O10 W5A 1_555 1_555
C4 C5 1_555 1_555
C4 C6 1_555 1_555
C9 C10 1_555 1_555
C12 C16 1_555 1_555
C20 C21 1_555 1_555
C20 C22 1_555 1_555
W2A O4A 1_555 1_555
W2A O6A 1_555 1_555
W2A O8A 1_555 1_555
W3A O3A 1_555 1_555
W3A O7A 1_555 1_555
W3A O13A 1_555 1_555
W4A O2A 1_555 1_555
W4A O5A 1_555 1_555
W4A O10A 1_555 1_555
W5A O1A 1_555 1_555
W5A O11A 1_555 1_555
W5A O23A 1_555 1_555
W7A O2A 1_555 1_555
W7A O12A 1_555 1_555
W7A O22A 1_555 1_555
W7A O28A 1_555 1_555
O1A O4A 1_555 1_555
C4F C5F 1_555 1_555
C4F C6F 1_555 1_555
C9F C10F 1_555 1_555
C12F C16F 1_555 1_555
C14F C15F 1_555 1_555
C20F C21F 1_555 1_555
C20F C22F 1_555 1_555
C23F C24F 1_555 1_555
C23F C25F 1_555 1_555

#END
