
#######################################################################
#
#                 Cambridge Crystallographic Data Centre
#                                CCDC 
#
#######################################################################
#
# If this CIF has been generated from an entry in the Cambridge 
# Structural Database, then it will include bibliographic, chemical, 
# crystal, experimental, refinement or atomic coordinate data resulting 
# from the CCDC's data processing and validation procedures.
#
#######################################################################

data_WEDJOG
_symmetry_cell_setting           triclinic
_symmetry_space_group_name_H-M   'P -1'
_symmetry_Int_Tables_number      2
_space_group_name_Hall           '-P 1'
loop_
_symmetry_equiv_pos_site_id
_symmetry_equiv_pos_as_xyz
1 x,y,z
2 -x,-y,-z
_cell_length_a                   11.3637(9)
_cell_length_b                   12.9558(11)
_cell_length_c                   16.8671(14)
_cell_angle_alpha                100.6390(10)
_cell_angle_beta                 108.6950(10)
_cell_angle_gamma                91.2210(10)
_cell_volume                     2303.16
loop_
_atom_site_label
_atom_site_type_symbol
_atom_site_fract_x
_atom_site_fract_y
_atom_site_fract_z
Si1 Si 0.0000 0.0000 0.0000
Mo1 Mo 0.02367(4) 0.08306(3) 0.21559(2)
Mo2 Mo 0.00109(4) -0.18980(3) 0.12528(2)
Mo3 Mo 0.03117(4) -0.26724(3) -0.07888(3)
Mo4 Mo 0.27971(4) -0.11457(4) 0.09114(3)
Mo5 Mo -0.26021(4) -0.04001(3) 0.06457(3)
Mo6 Mo 0.26200(4) 0.16144(3) 0.14131(3)
O1 O -0.0439(5) -0.0242(4) 0.0746(3)
O2 O 0.0486(5) 0.0922(4) 0.0855(3)
O3 O 0.1524(5) 0.0214(4) 0.0298(3)
O4 O 0.0579(5) -0.1119(4) 0.0283(3)
O5 O 0.0357(10) -0.0570(8) 0.2286(6)
O7 O 0.1903(6) 0.1409(5) 0.2434(4)
O9 O 0.3519(7) 0.0245(6) 0.1599(4)
O11 O 0.1937(6) -0.1883(6) 0.1541(4)
O13 O -0.0249(6) 0.2283(5) 0.1901(5)
O15 O -0.1655(6) -0.2799(5) -0.1398(5)
O17 O -0.2695(6) -0.1353(5) -0.0428(4)
O19 O 0.2817(19) -0.0653(6) -0.0063(5)
O21 O -0.1604(4) -0.1610(3) 0.1003(3)
O22 O -0.1598(4) 0.0435(3) 0.1604(4)
O23 O -0.0125(4) -0.2778(6) 0.0259(3)
O24 O 0.1879(5) -0.2270(6) -0.0118(3)
O25 O 0.4085(3) -0.1732(3) 0.1259(3)
O26 O -0.3816(4) -0.0711(3) 0.0912(4)
O27 O 0.3896(4) 0.2285(3) 0.2132(3)
O28 O 0.0365(4) -0.3940(3) -0.1144(3)
O29 O 0.0220(5) 0.1290(4) 0.3150(2)
O30 O 0.0112(4) -0.2728(3) 0.1904(3)
Mo1A Mo -0.02367(4) -0.08306(3) -0.21559(2)
Mo2A Mo -0.00109(4) 0.18980(3) -0.12528(2)
Mo3A Mo -0.03117(4) 0.26724(3) 0.07888(3)
Mo4A Mo -0.27971(4) 0.11457(4) -0.09114(3)
Mo5A Mo 0.26021(4) 0.04001(3) -0.06457(3)
Mo6A Mo -0.26200(4) -0.16144(3) -0.14131(3)
O1A O 0.0439(5) 0.0242(4) -0.0746(3)
O2A O -0.0486(5) -0.0922(4) -0.0855(3)
O3A O -0.1524(5) -0.0214(4) -0.0298(3)
O4A O -0.0579(5) 0.1119(4) -0.0283(3)
O5A O -0.0357(10) 0.0570(8) -0.2286(6)
O7A O -0.1903(6) -0.1409(5) -0.2434(4)
O9A O -0.3519(7) -0.0245(6) -0.1599(4)
O11A O -0.1937(6) 0.1883(6) -0.1541(4)
O13A O 0.0249(6) -0.2283(5) -0.1901(5)
O15A O 0.1655(6) 0.2799(5) 0.1398(5)
O17A O 0.2695(6) 0.1353(5) 0.0428(4)
O19A O -0.2817(19) 0.0653(6) 0.0063(5)
O21A O 0.1604(4) 0.1610(3) -0.1003(3)
O22A O 0.1598(4) -0.0435(3) -0.1604(4)
O23A O 0.0125(4) 0.2778(6) -0.0259(3)
O24A O -0.1879(5) 0.2270(6) 0.0118(3)
O25A O -0.4085(3) 0.1732(3) -0.1259(3)
O26A O 0.3816(4) 0.0711(3) -0.0912(4)
O27A O -0.3896(4) -0.2285(3) -0.2132(3)
O28A O -0.0365(4) 0.3940(3) 0.1144(3)
O29A O -0.0220(5) -0.1290(4) -0.3150(2)
O30A O -0.0112(4) 0.2728(3) -0.1904(3)
O34 O -1.3456(7) 0.6904(5) 0.1157(6)
O36 O 0.0419(5) -0.1052(4) 0.3848(3)
O37 O -1.0828(6) 0.3147(4) -0.3714(3)
O38 O -0.2323(6) -0.2816(5) 0.3836(5)
Cu1 Cu 0.0000 0.0000 0.5000
Cu2 Cu -1.4882(3) 0.52247(14) 0.0046(2)
O31 O -1.5167(6) 0.2976(7) -0.3074(5)
O32 O -1.1334(5) 0.5349(4) 0.3157(5)
O33 O -0.2291(4) 0.3473(3) 0.4699(3)
N1 N -1.3273(6) 0.2691(5) -0.3173(4)
H1 H -1.2482 0.2843 -0.2936
N2 N -1.3828(5) 0.4715(5) -0.0667(4)
N3 N -1.4050(5) 0.4107(6) 0.0837(4)
N4 N -1.0547(5) 0.3778(4) 0.3248(4)
H2 H -1.0579 0.3142 0.2976
N5 N -0.3998(4) 0.3298(4) 0.3540(3)
H3 H -0.4481 0.2882 0.3088
N6 N -0.1521(4) 0.0410(3) 0.4163(3)
C1 C -1.4340(11) 0.0007(15) -0.4739(8)
H4 H -1.3828 0.0126 -0.5082
H5 H -1.4195 -0.0684 -0.4601
C2 C -1.3895(12) 0.0849(10) -0.3890(7)
H6 H -1.4496 0.0815 -0.3595
H7 H -1.3107 0.0667 -0.3529
C3 C -1.3731(12) 0.1950(9) -0.3993(6)
H8 H -1.3146 0.1989 -0.4300
H9 H -1.4523 0.2151 -0.4332
C4 C -1.4028(7) 0.3140(6) -0.2779(5)
C5 C -1.4217(5) 0.4126(5) -0.1444(5)
H10 H -1.5054 0.3877 -0.1679
C6 C -1.3457(5) 0.3860(4) -0.1927(4)
C7 C -1.2226(5) 0.4275(5) -0.1592(4)
H11 H -1.1688 0.4139 -0.1907
C8 C -1.1813(5) 0.4890(5) -0.0786(4)
H12 H -1.0987 0.5170 -0.0547
C9 C -1.2623(6) 0.5092(6) -0.0329(5)
H13 H -1.2331 0.5496 0.0222
C10 C -1.4432(7) 0.3091(8) 0.0697(5)
H14 H -1.5122 0.2816 0.0221
C11 C -1.3854(6) 0.2437(6) 0.1221(5)
H15 H -1.4152 0.1732 0.1101
C12 C -1.2840(6) 0.2820(5) 0.1920(5)
H16 H -1.2429 0.2379 0.2277
C13 C -1.3066(6) 0.4502(6) 0.1532(5)
H17 H -1.2802 0.5214 0.1642
C14 C -1.2430(5) 0.3882(5) 0.2090(4)
C15 C -1.1387(6) 0.4400(5) 0.2874(5)
C16 C -0.9565(7) 0.4103(6) 0.4096(5)
H18 H -0.9849 0.3850 0.4516
H19 H -0.9475 0.4867 0.4247
C17 C -0.8313(8) 0.3730(7) 0.4166(6)
H20 H -0.7788 0.3888 0.4761
H21 H -0.8400 0.2970 0.3971
C18 C -0.7709(9) 0.4214(8) 0.3667(6)
H22 H -0.7703 0.4975 0.3807
H23 H -0.8158 0.3976 0.3061
C19 C -0.6311(8) 0.3878(7) 0.3890(6)
H24 H -0.5902 0.4021 0.4504
H25 H -0.6316 0.3130 0.3672
C20 C -0.5628(7) 0.4503(6) 0.3483(6)
H26 H -0.5999 0.4289 0.2867
H27 H -0.5756 0.5241 0.3636
C21 C -0.4273(6) 0.4404(5) 0.3713(5)
H28 H -0.3933 0.4800 0.3389
H29 H -0.3872 0.4705 0.4315
C22 C -0.3041(5) 0.2913(4) 0.4048(3)
C23 C -0.1795(5) 0.1410(4) 0.4293(3)
H30 H -0.1230 0.1894 0.4735
C24 C -0.2878(4) 0.1766(4) 0.3805(3)
C25 C -0.3708(5) 0.1033(4) 0.3145(3)
H31 H -0.4451 0.1236 0.2805
C26 C -0.3424(5) 0.0004(4) 0.2998(3)
H32 H -0.3968 -0.0492 0.2554
C27 C -0.2320(5) -0.0285(4) 0.3517(3)
H33 H -0.2129 -0.0981 0.3414
O35 O -0.1022(4) -0.1257(3) 0.5097(3)
Cu2A Cu 1.4882(3) -0.52247(14) 0.9954(2)
Cu2A_2 Cu -1.5118(3) 0.47753(14) -0.0046(2)
Cu2A_3 Cu -1.5118(3) -0.52247(14) -1.0046(2)
Cu2_2 Cu -1.4882(3) -0.47753(14) -0.9954(2)
Cu2_3 Cu 1.5118(3) -0.47753(14) 1.0046(2)
O31A O -1.4833(6) -0.2976(7) -0.6926(5)
O32A O 1.1334(5) -0.5349(4) 0.6843(5)
O33A O 0.2291(4) -0.3473(3) 0.5301(3)
N1A N -1.6727(6) -0.2691(5) -0.6827(4)
H1A H -1.7518 -0.2843 -0.7064
N2A N -1.6172(5) -0.4715(5) -0.9333(4)
N2A_2 N -1.6172(5) 0.5285(5) 0.0667(4)
N2A_3 N 1.3828(5) -0.4715(5) 1.0667(4)
N2_2 N 1.6172(5) -0.5285(5) 0.9333(4)
N3A N 1.4050(5) -0.4107(6) 0.9163(4)
N3A_2 N -1.5950(5) 0.5893(6) -0.0837(4)
N3_2 N 1.5950(5) -0.5893(6) 1.0837(4)
N4A N 1.0547(5) -0.3778(4) 0.6752(4)
H2A H 1.0579 -0.3142 0.7024
N5A N 0.3998(4) -0.3298(4) 0.6460(3)
H3A H 0.4481 -0.2882 0.6912
N6A N 0.1521(4) -0.0410(3) 0.5837(3)
C1A C -1.5660(11) -0.0007(15) -0.5261(8)
H4A H -1.6172 -0.0126 -0.4918
H5A H -1.5805 0.0684 -0.5399
C2A C -1.6105(12) -0.0849(10) -0.6110(7)
H6A H -1.5504 -0.0815 -0.6405
H7A H -1.6893 -0.0667 -0.6471
C3A C -1.6269(12) -0.1950(9) -0.6007(6)
H8A H -1.6854 -0.1989 -0.5700
H9A H -1.5477 -0.2151 -0.5668
C4A C -1.5972(7) -0.3140(6) -0.7221(5)
C5A C -1.5783(5) -0.4126(5) -0.8556(5)
H10A H -1.4946 -0.3877 -0.8321
C6A C -1.6543(5) -0.3860(4) -0.8073(4)
C7A C -1.7774(5) -0.4275(5) -0.8408(4)
H11A H -1.8312 -0.4139 -0.8093
C8A C -1.8187(5) -0.4890(5) -0.9214(4)
H12A H -1.9013 -0.5170 -0.9453
C9A C -1.7377(6) -0.5092(6) -0.9671(5)
H13A H -1.7669 -0.5496 -1.0222
C10A C 1.4432(7) -0.3091(8) 0.9303(5)
H14A H 1.5122 -0.2816 0.9779
C11A C 1.3854(6) -0.2437(6) 0.8779(5)
H15A H 1.4152 -0.1732 0.8899
C12A C 1.2840(6) -0.2820(5) 0.8080(5)
H16A H 1.2429 -0.2379 0.7723
C13A C 1.3066(6) -0.4502(6) 0.8468(5)
H17A H 1.2802 -0.5214 0.8358
C14A C 1.2430(5) -0.3882(5) 0.7910(4)
C15A C 1.1387(6) -0.4400(5) 0.7126(5)
C16A C 0.9565(7) -0.4103(6) 0.5904(5)
H18A H 0.9849 -0.3850 0.5484
H19A H 0.9475 -0.4867 0.5753
C17A C 0.8313(8) -0.3730(7) 0.5834(6)
H20A H 0.7788 -0.3888 0.5239
H21A H 0.8400 -0.2970 0.6029
C18A C 0.7709(9) -0.4214(8) 0.6333(6)
H22A H 0.7703 -0.4975 0.6193
H23A H 0.8158 -0.3976 0.6939
C19A C 0.6311(8) -0.3878(7) 0.6110(6)
H24A H 0.5902 -0.4021 0.5496
H25A H 0.6316 -0.3130 0.6328
C20A C 0.5628(7) -0.4503(6) 0.6517(6)
H26A H 0.5999 -0.4289 0.7133
H27A H 0.5756 -0.5241 0.6364
C21A C 0.4273(6) -0.4404(5) 0.6287(5)
H28A H 0.3933 -0.4800 0.6611
H29A H 0.3872 -0.4705 0.5685
C22A C 0.3041(5) -0.2913(4) 0.5952(3)
C23A C 0.1795(5) -0.1410(4) 0.5707(3)
H30A H 0.1230 -0.1894 0.5265
C24A C 0.2878(4) -0.1766(4) 0.6195(3)
C25A C 0.3708(5) -0.1033(4) 0.6855(3)
H31A H 0.4451 -0.1236 0.7195
C26A C 0.3424(5) -0.0004(4) 0.7002(3)
H32A H 0.3968 0.0492 0.7446
C27A C 0.2320(5) 0.0285(4) 0.6483(3)
H33A H 0.2129 0.0981 0.6586
O35A O 0.1022(4) 0.1257(3) 0.4903(3)
O6? O 0.0509(11) -0.0518(9) 0.2014(7)
O8? O 0.1662(7) 0.1072(6) 0.2010(5)
O10? O 0.2858(7) 0.0094(5) 0.1494(4)
O12? O 0.1702(6) -0.1369(6) 0.1357(4)
O14? O -0.0436(6) 0.1940(5) 0.1481(5)
O16? O 0.1462(6) 0.2422(6) 0.1009(5)
O18? O 0.3371(6) 0.1534(5) 0.0496(4)
O20? O 0.3476(18) -0.0536(6) 0.0000(5)
loop_
_geom_bond_atom_site_label_1
_geom_bond_atom_site_label_2
_geom_bond_site_symmetry_1
_geom_bond_site_symmetry_2
Cu1 N6 1_555 1_555
Cu2 N2 1_555 1_555
Si1 O1 1_555 1_555
Mo1 O1 1_555 1_555
Mo2 O4 1_555 1_555
Mo3 O4 1_555 1_555
Mo4 O4 1_555 1_555
Mo5 O1 1_555 1_555
Mo6 O2 1_555 1_555
O2 Si1 1_555 1_555
O3 Si1 1_555 1_555
O4 Si1 1_555 1_555
O5 Mo1 1_555 1_555
O7 Mo1 1_555 1_555
O9 Mo4 1_555 1_555
O11 Mo2 1_555 1_555
O13 Mo1 1_555 1_555
O15 Mo3 1_555 1_555
O17 Mo5 1_555 1_555
O19 Mo4 1_555 1_555
O21 Mo2 1_555 1_555
O22 Mo1 1_555 1_555
O23 Mo2 1_555 1_555
O24 Mo3 1_555 1_555
O25 Mo4 1_555 1_555
O26 Mo5 1_555 1_555
O27 Mo6 1_555 1_555
O28 Mo3 1_555 1_555
O29 Mo1 1_555 1_555
O30 Mo2 1_555 1_555
O31 C4 1_555 1_555
O32 C15 1_555 1_555
O33 C22 1_555 1_555
N1 H1 1_555 1_555
N2 C5 1_555 1_555
N3 Cu2 1_555 1_555
N4 H2 1_555 1_555
N5 H3 1_555 1_555
N6 C23 1_555 1_555
C1 H4 1_555 1_555
H5 C1 1_555 1_555
C2 C1 1_555 1_555
H6 C2 1_555 1_555
H7 C2 1_555 1_555
C3 N1 1_555 1_555
H8 C3 1_555 1_555
H9 C3 1_555 1_555
C4 N1 1_555 1_555
C5 H10 1_555 1_555
C6 C4 1_555 1_555
C7 C6 1_555 1_555
H11 C7 1_555 1_555
C8 C7 1_555 1_555
H12 C8 1_555 1_555
C9 N2 1_555 1_555
H13 C9 1_555 1_555
C10 N3 1_555 1_555
H14 C10 1_555 1_555
C11 C10 1_555 1_555
H15 C11 1_555 1_555
C12 C11 1_555 1_555
H16 C12 1_555 1_555
C13 N3 1_555 1_555
H17 C13 1_555 1_555
C14 C12 1_555 1_555
C15 N4 1_555 1_555
C16 N4 1_555 1_555
H18 C16 1_555 1_555
H19 C16 1_555 1_555
C17 C16 1_555 1_555
H20 C17 1_555 1_555
H21 C17 1_555 1_555
C18 C17 1_555 1_555
H22 C18 1_555 1_555
H23 C18 1_555 1_555
C19 C18 1_555 1_555
H24 C19 1_555 1_555
H25 C19 1_555 1_555
C20 C19 1_555 1_555
H26 C20 1_555 1_555
H27 C20 1_555 1_555
C21 N5 1_555 1_555
H28 C21 1_555 1_555
H29 C21 1_555 1_555
C22 N5 1_555 1_555
C23 H30 1_555 1_555
C24 C22 1_555 1_555
C25 C24 1_555 1_555
H31 C25 1_555 1_555
C26 C25 1_555 1_555
H32 C26 1_555 1_555
C27 N6 1_555 1_555
H33 C27 1_555 1_555
O35 Cu1 1_555 1_555
Cu2A Cu2_3 1_555 1_555
Cu2A_2 Cu2 1_555 1_555
Cu2A_3 Cu2_2 1_555 1_555
Cu2_2 N2A 1_555 1_555
Cu2_3 N2A_3 1_555 1_555
Mo1A O1A 1_555 1_555
Mo2A O4A 1_555 1_555
Mo3A O13 1_555 1_555
Mo4A O4A 1_555 1_555
Mo5A O3 1_555 1_555
Mo6A O15 1_555 1_555
O1A Si1 1_555 1_555
O2A Si1 1_555 1_555
O3A Si1 1_555 1_555
O4A Si1 1_555 1_555
O5A Mo1A 1_555 1_555
O7A Mo1A 1_555 1_555
O9A Mo4A 1_555 1_555
O11A Mo2A 1_555 1_555
O13A Mo3 1_555 1_555
O15A Mo6 1_555 1_555
O17A Mo6 1_555 1_555
O19A Mo5 1_555 1_555
O21A Mo2A 1_555 1_555
O22A Mo1A 1_555 1_555
O23A Mo2A 1_555 1_555
O24A Mo3A 1_555 1_555
O25A Mo4A 1_555 1_555
O26A Mo5A 1_555 1_555
O27A Mo6A 1_555 1_555
O28A Mo3A 1_555 1_555
O29A Mo1A 1_555 1_555
O30A Mo2A 1_555 1_555
O31A C4A 1_555 1_555
O32A C15A 1_555 1_555
O33A C22A 1_555 1_555
N1A H1A 1_555 1_555
N2A Cu2A_3 1_555 1_555
N2A_2 Cu2 1_555 1_555
N2A_3 Cu2A 1_555 1_555
N2_2 Cu2A 1_555 1_555
N3A Cu2A 1_555 1_555
N3A_2 Cu2 1_555 1_555
N3_2 Cu2A 1_555 1_555
N4A H2A 1_555 1_555
N5A H3A 1_555 1_555
N6A Cu1 1_555 1_555
C1A C1 1_555 1_555
H4A C1A 1_555 1_555
H5A C1A 1_555 1_555
C2A C1A 1_555 1_555
H6A C2A 1_555 1_555
H7A C2A 1_555 1_555
C3A N1A 1_555 1_555
H8A C3A 1_555 1_555
H9A C3A 1_555 1_555
C4A N1A 1_555 1_555
C5A N2A 1_555 1_555
H10A C5A 1_555 1_555
C6A C4A 1_555 1_555
C7A C6A 1_555 1_555
H11A C7A 1_555 1_555
C8A C7A 1_555 1_555
H12A C8A 1_555 1_555
C9A N2A 1_555 1_555
H13A C9A 1_555 1_555
C10A N3A 1_555 1_555
H14A C10A 1_555 1_555
C11A C10A 1_555 1_555
H15A C11A 1_555 1_555
C12A C11A 1_555 1_555
H16A C12A 1_555 1_555
C13A N3A 1_555 1_555
H17A C13A 1_555 1_555
C14A C12A 1_555 1_555
C15A N4A 1_555 1_555
C16A N4A 1_555 1_555
H18A C16A 1_555 1_555
H19A C16A 1_555 1_555
C17A C16A 1_555 1_555
H20A C17A 1_555 1_555
H21A C17A 1_555 1_555
C18A C17A 1_555 1_555
H22A C18A 1_555 1_555
H23A C18A 1_555 1_555
C19A C18A 1_555 1_555
H24A C19A 1_555 1_555
H25A C19A 1_555 1_555
C20A C19A 1_555 1_555
H26A C20A 1_555 1_555
H27A C20A 1_555 1_555
C21A N5A 1_555 1_555
H28A C21A 1_555 1_555
H29A C21A 1_555 1_555
C22A N5A 1_555 1_555
C23A N6A 1_555 1_555
H30A C23A 1_555 1_555
C24A C22A 1_555 1_555
C25A C24A 1_555 1_555
H31A C25A 1_555 1_555
C26A C25A 1_555 1_555
H32A C26A 1_555 1_555
C27A N6A 1_555 1_555
H33A C27A 1_555 1_555
O35A Cu1 1_555 1_555
Mo1 O2 1_555 1_555
Mo2 O5 1_555 1_555
Mo3 O23 1_555 1_555
Mo4 O11 1_555 1_555
Mo4 O24 1_555 1_555
Mo5 O21 1_555 1_555
Mo5 O22 1_555 1_555
Mo5 O3A 1_555 1_555
Mo6 O3 1_555 1_555
Mo6 O7 1_555 1_555
Mo6 O9 1_555 1_555
O17 Mo6A 1_555 1_555
O19 Mo5A 1_555 1_555
N2 Cu2A_2 1_555 1_555
N3 Cu2A_2 1_555 1_555
C2 C3 1_555 1_555
C5 C6 1_555 1_555
C8 C9 1_555 1_555
C13 C14 1_555 1_555
C14 C15 1_555 1_555
C20 C21 1_555 1_555
C23 C24 1_555 1_555
C26 C27 1_555 1_555
Cu2A_2 N2A_2 1_555 1_555
Cu2A_2 N3A_2 1_555 1_555
Cu2_3 N2_2 1_555 1_555
Cu2_3 N3A 1_555 1_555
Cu2_3 N3_2 1_555 1_555
Mo1A O2A 1_555 1_555
Mo1A O13A 1_555 1_555
Mo2A O5A 1_555 1_555
Mo3A O4A 1_555 1_555
Mo3A O15A 1_555 1_555
Mo3A O23A 1_555 1_555
Mo4A O11A 1_555 1_555
Mo4A O19A 1_555 1_555
Mo4A O24A 1_555 1_555
Mo5A O1A 1_555 1_555
Mo5A O17A 1_555 1_555
Mo5A O21A 1_555 1_555
Mo5A O22A 1_555 1_555
Mo6A O2A 1_555 1_555
Mo6A O3A 1_555 1_555
Mo6A O7A 1_555 1_555
Mo6A O9A 1_555 1_555
C2A C3A 1_555 1_555
C5A C6A 1_555 1_555
C8A C9A 1_555 1_555
C13A C14A 1_555 1_555
C14A C15A 1_555 1_555
C20A C21A 1_555 1_555
C23A C24A 1_555 1_555
C26A C27A 1_555 1_555

#END
