
#######################################################################
#
#                 Cambridge Crystallographic Data Centre
#                                CCDC 
#
#######################################################################
#
# If this CIF has been generated from an entry in the Cambridge 
# Structural Database, then it will include bibliographic, chemical, 
# crystal, experimental, refinement or atomic coordinate data resulting 
# from the CCDC's data processing and validation procedures.
#
#######################################################################

data_WEDKEW
_symmetry_cell_setting           orthorhombic
_symmetry_space_group_name_H-M   'P c a b'
_symmetry_Int_Tables_number      61
_space_group_name_Hall           '-P 2bc 2ac'
loop_
_symmetry_equiv_pos_site_id
_symmetry_equiv_pos_as_xyz
1 x,y,z
2 -x,1/2-y,1/2+z
3 1/2+x,-y,1/2-z
4 1/2-x,1/2+y,-z
5 -x,-y,-z
6 x,1/2+y,1/2-z
7 1/2-x,y,1/2+z
8 1/2+x,1/2-y,z
_cell_length_a                   17.217(5)
_cell_length_b                   6.420(5)
_cell_length_c                   17.644(5)
_cell_angle_alpha                90
_cell_angle_beta                 90
_cell_angle_gamma                90
_cell_volume                     1950.25
loop_
_atom_site_label
_atom_site_type_symbol
_atom_site_fract_x
_atom_site_fract_y
_atom_site_fract_z
Cu1 Cu 0.047960(16) 0.22438(4) -0.510590(16)
O1 O 0.13048(10) 0.0773(3) -0.64601(10)
O2 O 0.03778(9) -0.0344(2) -0.56893(9)
N1 N 0.14045(11) 0.1116(3) -0.45186(10)
N2 N 0.02801(11) 0.6394(3) -0.42214(11)
N3 N 0.06619(11) 0.4623(3) -0.44088(11)
C1 C 0.05651(14) 0.7094(3) -0.35427(14)
H1 H 0.0395 0.8285 -0.3293
C2 C 0.11778(12) 0.4257(3) -0.38521(13)
C3 C 0.22680(14) 0.1911(4) -0.34864(14)
H2 H 0.2429 0.2809 -0.3104
C4 C 0.08113(13) -0.0501(3) -0.62989(13)
C5 C 0.11370(14) 0.5791(4) -0.32834(13)
H3 H 0.1427 0.5894 -0.2840
C6 C 0.16408(13) 0.2384(3) -0.39408(14)
C7 C 0.06479(15) -0.2355(4) -0.68054(16)
H4 H 0.0242 -0.3184 -0.6586
H5 H 0.1110 -0.3182 -0.6854
H6 H 0.0489 -0.1875 -0.7297
C8 C 0.24010(14) -0.1256(4) -0.42053(14)
H7 H 0.2653 -0.2512 -0.4296
C9 C 0.26487(14) 0.0051(4) -0.36208(15)
H8 H 0.3070 -0.0331 -0.3322
C10 C 0.17808(13) -0.0667(4) -0.46457(14)
H9 H 0.1620 -0.1527 -0.5040
Cu1D Cu -0.047960(16) -0.22438(4) -0.489410(16)
Cu1D_2 Cu -0.047960(16) 0.77562(4) -0.489410(16)
O2D O -0.03778(9) 0.0344(2) -0.43107(9)
N2D N -0.02801(11) 0.3606(3) -0.57786(11)
loop_
_geom_bond_atom_site_label_1
_geom_bond_atom_site_label_2
_geom_bond_site_symmetry_1
_geom_bond_site_symmetry_2
Cu1 O2 1_555 1_555
O1 C4 1_555 1_555
O2 C4 1_555 1_555
N1 Cu1 1_555 1_555
N2 N3 1_555 1_555
N3 Cu1 1_555 1_555
C1 N2 1_555 1_555
H1 C1 1_555 1_555
C2 N3 1_555 1_555
C3 H2 1_555 1_555
C4 C7 1_555 1_555
C5 C1 1_555 1_555
H3 C5 1_555 1_555
C6 N1 1_555 1_555
C7 H4 1_555 1_555
H5 C7 1_555 1_555
H6 C7 1_555 1_555
C8 H7 1_555 1_555
C9 C3 1_555 1_555
H8 C9 1_555 1_555
C10 N1 1_555 1_555
H9 C10 1_555 1_555
Cu1D O2 1_555 1_555
Cu1D_2 N2 1_555 1_555
O2D Cu1 1_555 1_555
N2D Cu1 1_555 1_555
C2 C5 1_555 1_555
C2 C6 1_555 1_555
C3 C6 1_555 1_555
C8 C9 1_555 1_555
C8 C10 1_555 1_555
Cu1D O2D 1_555 1_555

#END
