
#######################################################################
#
#                 Cambridge Crystallographic Data Centre
#                                CCDC 
#
#######################################################################
#
# If this CIF has been generated from an entry in the Cambridge 
# Structural Database, then it will include bibliographic, chemical, 
# crystal, experimental, refinement or atomic coordinate data resulting 
# from the CCDC's data processing and validation procedures.
#
#######################################################################

data_WEDNUQ
_symmetry_cell_setting           monoclinic
_symmetry_space_group_name_H-M   'P 21/c'
_symmetry_Int_Tables_number      14
_space_group_name_Hall           '-P 2ybc'
loop_
_symmetry_equiv_pos_site_id
_symmetry_equiv_pos_as_xyz
1 x,y,z
2 -x,1/2+y,1/2-z
3 -x,-y,-z
4 x,1/2-y,1/2+z
_cell_length_a                   12.028(3)
_cell_length_b                   6.7017(19)
_cell_length_c                   8.628(3)
_cell_angle_alpha                90
_cell_angle_beta                 97.218(4)
_cell_angle_gamma                90
_cell_volume                     689.975
loop_
_atom_site_label
_atom_site_type_symbol
_atom_site_fract_x
_atom_site_fract_y
_atom_site_fract_z
Co1 Co 1.0000 0.0000 1.0000
O1 O 1.0224(2) 0.1718(5) 0.8142(4)
O2 O 1.1122(2) 0.3206(5) 0.6376(4)
O3 O 1.1505(2) -0.1473(4) 0.9428(4)
C1 C 1.1097(4) 0.2146(6) 0.7580(5)
C2 C 1.2234(4) 0.1393(7) 0.8297(5)
C3 C 1.3171(4) 0.2482(8) 0.8050(6)
H1 H 1.3074 0.3610 0.7419
C4 C 1.4241(4) 0.1982(8) 0.8690(7)
H2 H 1.4842 0.2780 0.8498
C5 C 1.4431(4) 0.0279(7) 0.9628(6)
C6 C 1.3497(4) -0.0865(7) 0.9837(5)
H3 H 1.3598 -0.2033 1.0420
C7 C 1.2424(4) -0.0334(6) 0.9209(5)
C8 C 1.1678(4) -0.3499(7) 0.9910(7)
H4 H 1.2390 -0.3949 0.9653
H5 H 1.1093 -0.4316 0.9383
H6 H 1.1668 -0.3593 1.1018
Co1_2 Co 2.0000 0.0000 1.0000
Co1A Co 1.0000 0.5000 0.5000
Co1A_2 Co 2.0000 -0.5000 1.5000
O1B O 1.9776(2) -0.1718(5) 1.1858(4)
O1B_2 O 0.9776(2) -0.1718(5) 1.1858(4)
O2B O 1.8878(2) -0.3206(5) 1.3624(4)
O2A O 0.8878(2) -0.1794(5) 0.8624(4)
O2C O 1.1122(2) 0.1794(5) 1.1376(4)
O3B O 1.8495(2) 0.1473(4) 1.0572(4)
O3B_2 O 0.8495(2) 0.1473(4) 1.0572(4)
C1B C 1.8903(4) -0.2146(6) 1.2420(5)
C2B C 1.7766(4) -0.1393(7) 1.1703(5)
C3B C 1.6829(4) -0.2482(8) 1.1950(6)
H1B H 1.6926 -0.3610 1.2581
C4B C 1.5759(4) -0.1982(8) 1.1310(7)
H2B H 1.5158 -0.2780 1.1502
C5B C 1.5569(4) -0.0279(7) 1.0372(6)
C6B C 1.6503(4) 0.0865(7) 1.0163(5)
H3B H 1.6402 0.2033 0.9580
C7B C 1.7576(4) 0.0334(6) 1.0791(5)
C8B C 1.8322(4) 0.3499(7) 1.0090(7)
H4B H 1.7610 0.3949 1.0347
H5B H 1.8907 0.4316 1.0617
H6B H 1.8332 0.3593 0.8982
loop_
_geom_bond_atom_site_label_1
_geom_bond_atom_site_label_2
_geom_bond_site_symmetry_1
_geom_bond_site_symmetry_2
Co1 O1 1_555 1_555
O1 C1 1_555 1_555
O2 C1 1_555 1_555
O3 Co1 1_555 1_555
C1 C2 1_555 1_555
C2 C3 1_555 1_555
C3 H1 1_555 1_555
C4 C3 1_555 1_555
H2 C4 1_555 1_555
C5 C4 1_555 1_555
C6 C5 1_555 1_555
H3 C6 1_555 1_555
C7 O3 1_555 1_555
C8 O3 1_555 1_555
H4 C8 1_555 1_555
H5 C8 1_555 1_555
H6 C8 1_555 1_555
Co1_2 O1B 1_555 1_555
Co1A O2 1_555 1_555
Co1A_2 O2B 1_555 1_555
O1B C1B 1_555 1_555
O1B_2 Co1 1_555 1_555
O2B C1B 1_555 1_555
O2A Co1 1_555 1_555
O2C Co1 1_555 1_555
O3B Co1_2 1_555 1_555
O3B_2 Co1 1_555 1_555
C1B C2B 1_555 1_555
C2B C3B 1_555 1_555
C3B H1B 1_555 1_555
C4B C3B 1_555 1_555
H2B C4B 1_555 1_555
C5B C5 1_555 1_555
C6B C5B 1_555 1_555
H3B C6B 1_555 1_555
C7B O3B 1_555 1_555
C8B O3B 1_555 1_555
H4B C8B 1_555 1_555
H5B C8B 1_555 1_555
H6B C8B 1_555 1_555
C2 C7 1_555 1_555
C6 C7 1_555 1_555
C2B C7B 1_555 1_555
C4B C5B 1_555 1_555
C6B C7B 1_555 1_555

#END
