
#######################################################################
#
#                 Cambridge Crystallographic Data Centre
#                                CCDC 
#
#######################################################################
#
# If this CIF has been generated from an entry in the Cambridge 
# Structural Database, then it will include bibliographic, chemical, 
# crystal, experimental, refinement or atomic coordinate data resulting 
# from the CCDC's data processing and validation procedures.
#
#######################################################################

data_WEDPIG
_symmetry_cell_setting           orthorhombic
_symmetry_space_group_name_H-M   'P b c a'
_symmetry_Int_Tables_number      61
_space_group_name_Hall           '-P 2ac 2ab'
loop_
_symmetry_equiv_pos_site_id
_symmetry_equiv_pos_as_xyz
1 x,y,z
2 1/2-x,-y,1/2+z
3 -x,1/2+y,1/2-z
4 1/2+x,1/2-y,-z
5 -x,-y,-z
6 1/2+x,y,1/2-z
7 x,1/2-y,1/2+z
8 1/2-x,1/2+y,z
_cell_length_a                   17.6007(12)
_cell_length_b                   17.3588(12)
_cell_length_c                   21.8601(15)
_cell_angle_alpha                90
_cell_angle_beta                 90
_cell_angle_gamma                90
_cell_volume                     6678.85
loop_
_atom_site_label
_atom_site_type_symbol
_atom_site_fract_x
_atom_site_fract_y
_atom_site_fract_z
Ni1 Ni 0.24738(3) 0.24545(2) 0.37281(2)
O1 O 0.16609(18) 0.16976(18) 0.40629(16)
H1 H 0.145(3) 0.150(3) 0.3741(15)
H2 H 0.186(3) 0.136(2) 0.430(2)
O2 O 0.31111(16) 0.23260(15) 0.45097(13)
O3 O 0.26346(18) 0.12639(17) 0.49375(13)
C1 C 0.3055(2) 0.1847(2) 0.49439(19)
C2 C 0.3521(2) 0.2006(2) 0.5497(2)
C3 C 0.4032(3) 0.2606(3) 0.5516(2)
H3 H 0.4089 0.2918 0.5174
C4 C 0.4463(3) 0.2757(3) 0.6033(3)
H4 H 0.4812 0.3159 0.6032
C5 C 0.4374(3) 0.2314(4) 0.6540(3)
H5 H 0.4656 0.2417 0.6891
C6 C 0.3858(3) 0.1704(4) 0.6535(3)
H6 H 0.3799 0.1399 0.6881
C7 C 0.3434(3) 0.1551(3) 0.6015(2)
H7 H 0.3091 0.1143 0.6013
O4 O 0.18673(15) 0.25987(15) 0.29293(12)
O5 O 0.1136(2) 0.1559(2) 0.29487(16)
C8 C 0.1411(2) 0.2119(3) 0.2686(2)
C9 C 0.1219(2) 0.2257(3) 0.2025(2)
C10 C 0.0687(3) 0.1805(3) 0.1733(2)
H8 H 0.0426 0.1435 0.1958
C11 C 0.0529(3) 0.1885(3) 0.1114(3)
H9 H 0.0168 0.1572 0.0929
C12 C 0.0908(3) 0.2426(3) 0.0781(3)
H10 H 0.0819 0.2470 0.0363
C13 C 0.1431(3) 0.2916(3) 0.1069(2)
H11 H 0.1674 0.3300 0.0847
C14 C 0.1580(3) 0.2823(3) 0.1682(2)
H12 H 0.1931 0.3146 0.1871
N1 N 0.18245(18) 0.33288(17) 0.41591(15)
C15 C 0.1071(2) 0.3318(2) 0.4080(2)
H13 H 0.0867 0.2940 0.3827
C16 C 0.0581(2) 0.3829(2) 0.4350(2)
H14 H 0.0061 0.3788 0.4281
C17 C 0.0862(2) 0.4406(2) 0.47254(19)
C18 C 0.1646(2) 0.4428(2) 0.48011(19)
H15 H 0.1866 0.4812 0.5040
C19 C 0.2101(2) 0.3880(2) 0.45225(19)
H16 H 0.2623 0.3896 0.4591
C20 C 0.0375(2) 0.4984(2) 0.5023(2)
H17 H 0.0612 0.5356 0.5263
N2 N 0.32616(19) 0.32803(17) 0.34281(15)
N3 N 0.69103(18) 0.65490(18) 0.17174(15)
C21 C 0.3044(2) 0.3940(2) 0.31783(19)
H18 H 0.2528 0.4022 0.3116
C22 C 0.3545(3) 0.4510(2) 0.3006(2)
H19 H 0.3363 0.4977 0.2857
C23 C 0.4320(2) 0.4384(2) 0.30547(19)
C24 C 0.4546(2) 0.3682(2) 0.3300(2)
H20 H 0.5060 0.3563 0.3333
C25 C 0.4012(2) 0.3167(2) 0.3492(2)
H21 H 0.4177 0.2713 0.3676
C26 C 0.4870(3) 0.4964(2) 0.2825(2)
H22 H 0.4750 0.5481 0.2884
C27 C 0.5509(3) 0.4809(2) 0.2544(2)
H23 H 0.5655 0.4296 0.2510
C28 C 0.6015(2) 0.5407(2) 0.2278(2)
C29 C 0.6146(3) 0.6108(2) 0.2549(2)
H24 H 0.5925 0.6221 0.2926
C30 C 0.6601(3) 0.6644(2) 0.2267(2)
H25 H 0.6699 0.7101 0.2473
C31 C 0.6778(3) 0.5871(2) 0.1451(2)
H26 H 0.6985 0.5783 0.1066
C32 C 0.6353(2) 0.5294(2) 0.1715(2)
H27 H 0.6293 0.4826 0.1513
Ni1D Ni -0.24738(3) 0.75455(2) 0.62719(2)
Ni1B Ni 0.75262(3) 0.74545(2) 0.12719(2)
Ni1F Ni -0.75262(3) 0.25455(2) 0.87281(2)
O1D O -0.16609(18) 0.83024(18) 0.59371(16)
H1D H -0.145(3) 0.850(3) 0.6259(15)
H2D H -0.186(3) 0.864(2) 0.570(2)
O2D O -0.31111(16) 0.76740(15) 0.54903(13)
O3D O -0.26346(18) 0.87361(17) 0.50625(13)
C1D C -0.3055(2) 0.8153(2) 0.50561(19)
C2D C -0.3521(2) 0.7994(2) 0.4503(2)
C3D C -0.4032(3) 0.7394(3) 0.4484(2)
H3D H -0.4089 0.7082 0.4826
C4D C -0.4463(3) 0.7243(3) 0.3967(3)
H4D H -0.4812 0.6841 0.3968
C5D C -0.4374(3) 0.7686(4) 0.3460(3)
H5D H -0.4656 0.7583 0.3109
C6D C -0.3858(3) 0.8296(4) 0.3465(3)
H6D H -0.3799 0.8601 0.3119
C7D C -0.3434(3) 0.8449(3) 0.3985(2)
H7D H -0.3091 0.8857 0.3987
O4D O -0.18673(15) 0.74013(15) 0.70707(12)
O5D O -0.1136(2) 0.8441(2) 0.70513(16)
C8D C -0.1411(2) 0.7881(3) 0.7314(2)
C9D C -0.1219(2) 0.7743(3) 0.7975(2)
C10D C -0.0687(3) 0.8195(3) 0.8267(2)
H8D H -0.0426 0.8565 0.8042
C11D C -0.0529(3) 0.8115(3) 0.8886(3)
H9D H -0.0168 0.8428 0.9071
C12D C -0.0908(3) 0.7574(3) 0.9219(3)
H10D H -0.0819 0.7530 0.9637
C13D C -0.1431(3) 0.7084(3) 0.8931(2)
H11D H -0.1674 0.6700 0.9153
C14D C -0.1580(3) 0.7177(3) 0.8318(2)
H12D H -0.1931 0.6854 0.8129
N1D N -0.18245(18) 0.66712(17) 0.58409(15)
C15D C -0.1071(2) 0.6682(2) 0.5920(2)
H13D H -0.0867 0.7060 0.6173
C16D C -0.0581(2) 0.6171(2) 0.5650(2)
H14D H -0.0061 0.6212 0.5719
C17D C -0.0862(2) 0.5594(2) 0.52746(19)
C18D C -0.1646(2) 0.5572(2) 0.51989(19)
H15D H -0.1866 0.5188 0.4960
C19D C -0.2101(2) 0.6120(2) 0.54775(19)
H16D H -0.2623 0.6104 0.5409
C20D C -0.0375(2) 0.5016(2) 0.4977(2)
H17D H -0.0612 0.4644 0.4737
N2D N -0.32616(19) 0.67197(17) 0.65719(15)
N3D N -0.69103(18) 0.34510(18) 0.82826(15)
N3B N 0.30897(18) 0.15490(18) 0.32826(15)
N3F N -0.30897(18) 0.84510(18) 0.67174(15)
C21D C -0.3044(2) 0.6060(2) 0.68217(19)
H18D H -0.2528 0.5978 0.6884
C22D C -0.3545(3) 0.5490(2) 0.6994(2)
H19D H -0.3363 0.5023 0.7143
C23D C -0.4320(2) 0.5616(2) 0.69453(19)
C24D C -0.4546(2) 0.6318(2) 0.6700(2)
H20D H -0.5060 0.6437 0.6667
C25D C -0.4012(2) 0.6833(2) 0.6508(2)
H21D H -0.4177 0.7287 0.6324
C26D C -0.4870(3) 0.5036(2) 0.7175(2)
H22D H -0.4750 0.4519 0.7116
C27D C -0.5509(3) 0.5191(2) 0.7456(2)
H23D H -0.5655 0.5704 0.7490
C28D C -0.6015(2) 0.4593(2) 0.7722(2)
C29D C -0.6146(3) 0.3892(2) 0.7451(2)
H24D H -0.5925 0.3779 0.7074
C30D C -0.6601(3) 0.3356(2) 0.7733(2)
H25D H -0.6699 0.2899 0.7527
C31D C -0.6778(3) 0.4129(2) 0.8549(2)
H26D H -0.6985 0.4217 0.8934
C32D C -0.6353(2) 0.4706(2) 0.8285(2)
H27D H -0.6293 0.5174 0.8487
O6 O 0.2784(6) 0.5297(6) 0.6798(6)
C33 C 0.2726(7) 0.4784(8) 0.6400(6)
C34 C 0.3393(6) 0.4893(6) 0.5976(5)
H28 H 0.3765 0.5216 0.6170
H29 H 0.3225 0.5132 0.5604
H30 H 0.3615 0.4401 0.5885
C35 C 0.2476(8) 0.4007(10) 0.6306(6)
H31 H 0.2395 0.3763 0.6695
H32 H 0.2857 0.3728 0.6082
H33 H 0.2010 0.4008 0.6078
loop_
_geom_bond_atom_site_label_1
_geom_bond_atom_site_label_2
_geom_bond_site_symmetry_1
_geom_bond_site_symmetry_2
Ni1 O1 1_555 1_555
O1 H1 1_555 1_555
H2 O1 1_555 1_555
O2 Ni1 1_555 1_555
O3 C1 1_555 1_555
C1 O2 1_555 1_555
C2 C1 1_555 1_555
C3 C2 1_555 1_555
H3 C3 1_555 1_555
C4 C3 1_555 1_555
H4 C4 1_555 1_555
C5 C4 1_555 1_555
H5 C5 1_555 1_555
C6 C5 1_555 1_555
H6 C6 1_555 1_555
C7 C2 1_555 1_555
H7 C7 1_555 1_555
O4 Ni1 1_555 1_555
O5 C8 1_555 1_555
C8 O4 1_555 1_555
C9 C8 1_555 1_555
C10 C9 1_555 1_555
H8 C10 1_555 1_555
C11 C10 1_555 1_555
H9 C11 1_555 1_555
C12 C11 1_555 1_555
H10 C12 1_555 1_555
C13 C12 1_555 1_555
H11 C13 1_555 1_555
C14 C9 1_555 1_555
H12 C14 1_555 1_555
N1 Ni1 1_555 1_555
C15 N1 1_555 1_555
H13 C15 1_555 1_555
C16 C15 1_555 1_555
H14 C16 1_555 1_555
C17 C16 1_555 1_555
C18 C17 1_555 1_555
H15 C18 1_555 1_555
C19 N1 1_555 1_555
H16 C19 1_555 1_555
C20 C17 1_555 1_555
H17 C20 1_555 1_555
N2 Ni1 1_555 1_555
N3 C30 1_555 1_555
C21 N2 1_555 1_555
H18 C21 1_555 1_555
C22 C21 1_555 1_555
H19 C22 1_555 1_555
C23 C22 1_555 1_555
C24 C23 1_555 1_555
H20 C24 1_555 1_555
C25 N2 1_555 1_555
H21 C25 1_555 1_555
C26 C23 1_555 1_555
H22 C26 1_555 1_555
C27 C26 1_555 1_555
H23 C27 1_555 1_555
C28 C27 1_555 1_555
C29 C28 1_555 1_555
H24 C29 1_555 1_555
C30 C29 1_555 1_555
H25 C30 1_555 1_555
C31 N3 1_555 1_555
H26 C31 1_555 1_555
C32 C28 1_555 1_555
H27 C32 1_555 1_555
O6 C33 1_555 1_555
C33 C34 1_555 1_555
C34 H28 1_555 1_555
H29 C34 1_555 1_555
H30 C34 1_555 1_555
C35 C33 1_555 1_555
H31 C35 1_555 1_555
H32 C35 1_555 1_555
H33 C35 1_555 1_555
Ni1D O1D 1_555 1_555
Ni1B N3 1_555 1_555
Ni1F N3D 1_555 1_555
O1D H1D 1_555 1_555
H2D O1D 1_555 1_555
O2D Ni1D 1_555 1_555
O3D C1D 1_555 1_555
C1D O2D 1_555 1_555
C2D C1D 1_555 1_555
C3D C2D 1_555 1_555
H3D C3D 1_555 1_555
C4D C3D 1_555 1_555
H4D C4D 1_555 1_555
C5D C4D 1_555 1_555
H5D C5D 1_555 1_555
C6D C5D 1_555 1_555
H6D C6D 1_555 1_555
C7D C2D 1_555 1_555
H7D C7D 1_555 1_555
O4D Ni1D 1_555 1_555
O5D C8D 1_555 1_555
C8D O4D 1_555 1_555
C9D C8D 1_555 1_555
C10D C9D 1_555 1_555
H8D C10D 1_555 1_555
C11D C10D 1_555 1_555
H9D C11D 1_555 1_555
C12D C11D 1_555 1_555
H10D C12D 1_555 1_555
C13D C12D 1_555 1_555
H11D C13D 1_555 1_555
C14D C9D 1_555 1_555
H12D C14D 1_555 1_555
N1D Ni1D 1_555 1_555
C15D N1D 1_555 1_555
H13D C15D 1_555 1_555
C16D C15D 1_555 1_555
H14D C16D 1_555 1_555
C17D C16D 1_555 1_555
C18D C17D 1_555 1_555
H15D C18D 1_555 1_555
C19D N1D 1_555 1_555
H16D C19D 1_555 1_555
C20D C20 1_555 1_555
H17D C20D 1_555 1_555
N2D Ni1D 1_555 1_555
N3D C30D 1_555 1_555
N3B Ni1 1_555 1_555
N3F Ni1D 1_555 1_555
C21D N2D 1_555 1_555
H18D C21D 1_555 1_555
C22D C21D 1_555 1_555
H19D C22D 1_555 1_555
C23D C22D 1_555 1_555
C24D C23D 1_555 1_555
H20D C24D 1_555 1_555
C25D N2D 1_555 1_555
H21D C25D 1_555 1_555
C26D C23D 1_555 1_555
H22D C26D 1_555 1_555
C27D C26D 1_555 1_555
H23D C27D 1_555 1_555
C28D C27D 1_555 1_555
C29D C28D 1_555 1_555
H24D C29D 1_555 1_555
C30D C29D 1_555 1_555
H25D C30D 1_555 1_555
C31D N3D 1_555 1_555
H26D C31D 1_555 1_555
C32D C28D 1_555 1_555
H27D C32D 1_555 1_555
C6 C7 1_555 1_555
C13 C14 1_555 1_555
C18 C19 1_555 1_555
C24 C25 1_555 1_555
C31 C32 1_555 1_555
C6D C7D 1_555 1_555
C13D C14D 1_555 1_555
C17D C20D 1_555 1_555
C18D C19D 1_555 1_555
C24D C25D 1_555 1_555
C31D C32D 1_555 1_555

#END
