
#######################################################################
#
#                 Cambridge Crystallographic Data Centre
#                                CCDC 
#
#######################################################################
#
# If this CIF has been generated from an entry in the Cambridge 
# Structural Database, then it will include bibliographic, chemical, 
# crystal, experimental, refinement or atomic coordinate data resulting 
# from the CCDC's data processing and validation procedures.
#
#######################################################################

data_WEDQAZ
_symmetry_cell_setting           orthorhombic
_symmetry_space_group_name_H-M   'P n n a'
_symmetry_Int_Tables_number      52
_space_group_name_Hall           '-P 2a 2bc'
loop_
_symmetry_equiv_pos_site_id
_symmetry_equiv_pos_as_xyz
1 x,y,z
2 1/2-x,-y,z
3 1/2-x,1/2+y,1/2-z
4 x,1/2-y,1/2-z
5 -x,-y,-z
6 1/2+x,y,-z
7 1/2+x,1/2-y,1/2+z
8 -x,1/2+y,1/2+z
_cell_length_a                   18.5001(14)
_cell_length_b                   13.7655(11)
_cell_length_c                   16.2075(12)
_cell_angle_alpha                90
_cell_angle_beta                 90
_cell_angle_gamma                90
_cell_volume                     4127.45
loop_
_atom_site_label
_atom_site_type_symbol
_atom_site_fract_x
_atom_site_fract_y
_atom_site_fract_z
Co1 Co 0.69691(4) 0.2500 -0.2500
Co2 Co 0.59785(4) 0.7500 0.2500
O1 O 0.68240(18) 0.3759(3) -0.18520(17)
O2 O 0.61416(15) 0.2545(3) -0.14685(17)
O3 O 0.52648(19) 0.5308(2) 0.20801(18)
O4 O 0.59618(18) 0.6483(2) 0.15788(18)
O5 O 0.52142(17) 0.8319(3) 0.1791(2)
H1 H 0.4811(10) 0.803(2) 0.174(2)
H2 H 0.5165(19) 0.881(2) 0.210(2)
N1 N 0.7801(2) 0.1927(3) -0.1760(2)
N2 N 1.3142(2) 0.1709(3) -0.1905(3)
C1 C 0.8092(3) 0.1075(4) -0.1957(3)
H3 H 0.7845 0.0686 -0.2332
C2 C 0.8730(3) 0.0731(5) -0.1645(4)
H4 H 0.8904 0.0126 -0.1808
C3 C 0.9108(3) 0.1274(5) -0.1099(3)
C4 C 0.8828(3) 0.2162(4) -0.0906(3)
H5 H 0.9076 0.2570 -0.0546
C5 C 0.8187(2) 0.2456(5) -0.1240(3)
H6 H 0.8011 0.3064 -0.1092
C6 C 0.9802(3) 0.0920(4) -0.0729(3)
H7 H 0.9790 0.0216 -0.0709
H8 H 0.9834 0.1155 -0.0166
C7 C 1.0473(3) 0.1234(4) -0.1191(3)
H9 H 1.0509 0.1937 -0.1184
H10 H 1.0440 0.1025 -0.1761
C8 C 1.1145(3) 0.0791(5) -0.0792(3)
H11 H 1.1154 0.0971 -0.0213
H12 H 1.1110 0.0089 -0.0821
C9 C 1.1846(3) 0.1106(4) -0.1188(4)
C10 C 1.2402(3) 0.1471(5) -0.0725(3)
H13 H 1.2354 0.1524 -0.0156
C11 C 1.3038(3) 0.1762(4) -0.1107(3)
H14 H 1.3408 0.2006 -0.0779
C12 C 1.2606(3) 0.1335(4) -0.2357(3)
H15 H 1.2673 0.1270 -0.2923
C13 C 1.1957(3) 0.1041(4) -0.2021(3)
H16 H 1.1594 0.0798 -0.2361
C14 C 0.6163(2) 0.3977(4) -0.0604(2)
C15 C 0.5676(2) 0.3639(4) -0.0040(3)
H17 H 0.5450 0.3044 -0.0126
C16 C 0.5516(3) 0.4172(3) 0.0657(3)
H18 H 0.5179 0.3936 0.1032
C17 C 0.5850(2) 0.5047(3) 0.0801(2)
C18 C 0.6336(3) 0.5390(4) 0.0225(3)
H19 H 0.6560 0.5987 0.0309
C19 C 0.6494(2) 0.4857(4) -0.0474(3)
H20 H 0.6825 0.5094 -0.0856
C20 C 0.6374(3) 0.3396(4) -0.1352(3)
C21 C 0.5670(3) 0.5657(4) 0.1554(3)
Co2_2 Co 0.59785(4) -0.2500 -0.7500
Co2D Co 1.40215(4) 0.2500 -0.2500
O1C O 0.68240(18) 0.1241(3) -0.31480(17)
O2C O 0.61416(15) 0.2455(3) -0.35315(17)
O3C O 0.52648(19) -0.0308(2) -0.70801(18)
O4C O 0.59618(18) -0.1483(2) -0.65788(18)
O4C_2 O 0.59618(18) 0.8517(2) 0.34212(18)
O5C O 0.52142(17) 0.6681(3) 0.3209(2)
H1C H 0.4811(10) 0.697(2) 0.326(2)
H2C H 0.5165(19) 0.619(2) 0.290(2)
N1C N 0.7801(2) 0.3073(3) -0.3240(2)
N2C N 1.3142(2) 0.3291(3) -0.3095(3)
N2D N 0.6858(2) 0.8291(3) 0.1905(3)
N2G N 0.6858(2) 0.6709(3) 0.3095(3)
C1C C 0.8092(3) 0.3925(4) -0.3043(3)
H3C H 0.7845 0.4314 -0.2668
C2C C 0.8730(3) 0.4269(5) -0.3355(4)
H4C H 0.8904 0.4874 -0.3192
C3C C 0.9108(3) 0.3726(5) -0.3901(3)
C4C C 0.8828(3) 0.2838(4) -0.4094(3)
H5C H 0.9076 0.2430 -0.4454
C5C C 0.8187(2) 0.2544(5) -0.3760(3)
H6C H 0.8011 0.1936 -0.3908
C6C C 0.9802(3) 0.4080(4) -0.4271(3)
H7C H 0.9790 0.4784 -0.4291
H8C H 0.9834 0.3845 -0.4834
C7C C 1.0473(3) 0.3766(4) -0.3809(3)
H9C H 1.0509 0.3063 -0.3816
H10C H 1.0440 0.3975 -0.3239
C8C C 1.1145(3) 0.4209(5) -0.4208(3)
H11C H 1.1154 0.4029 -0.4787
H12C H 1.1110 0.4911 -0.4179
C9C C 1.1846(3) 0.3894(4) -0.3812(4)
C10C C 1.2402(3) 0.3529(5) -0.4275(3)
H13C H 1.2354 0.3476 -0.4844
C11C C 1.3038(3) 0.3238(4) -0.3893(3)
H14C H 1.3408 0.2994 -0.4221
C12C C 1.2606(3) 0.3665(4) -0.2643(3)
H15C H 1.2673 0.3730 -0.2077
C13C C 1.1957(3) 0.3959(4) -0.2979(3)
H16C H 1.1594 0.4202 -0.2639
C14C C 0.6163(2) 0.1023(4) -0.4396(2)
C15C C 0.5676(2) 0.1361(4) -0.4960(3)
H17C H 0.5450 0.1956 -0.4874
C16C C 0.5516(3) 0.0828(3) -0.5657(3)
H18C H 0.5179 0.1064 -0.6032
C17C C 0.5850(2) -0.0047(3) -0.5801(2)
C18C C 0.6336(3) -0.0390(4) -0.5225(3)
H19C H 0.6560 -0.0987 -0.5309
C19C C 0.6494(2) 0.0143(4) -0.4526(3)
H20C H 0.6825 -0.0094 -0.4144
C20C C 0.6374(3) 0.1604(4) -0.3648(3)
C21C C 0.5670(3) -0.0657(4) -0.6554(3)
loop_
_geom_bond_atom_site_label_1
_geom_bond_atom_site_label_2
_geom_bond_site_symmetry_1
_geom_bond_site_symmetry_2
Co1 O1 1_555 1_555
Co2 O4 1_555 1_555
O1 C20 1_555 1_555
O2 Co1 1_555 1_555
O3 C21 1_555 1_555
O4 C21 1_555 1_555
O5 Co2 1_555 1_555
H1 O5 1_555 1_555
H2 O5 1_555 1_555
N1 Co1 1_555 1_555
N2 C11 1_555 1_555
C1 N1 1_555 1_555
H3 C1 1_555 1_555
C2 C1 1_555 1_555
H4 C2 1_555 1_555
C3 C2 1_555 1_555
C4 C3 1_555 1_555
H5 C4 1_555 1_555
C5 N1 1_555 1_555
H6 C5 1_555 1_555
C6 C3 1_555 1_555
H7 C6 1_555 1_555
H8 C6 1_555 1_555
C7 C6 1_555 1_555
H9 C7 1_555 1_555
H10 C7 1_555 1_555
C8 C7 1_555 1_555
H11 C8 1_555 1_555
H12 C8 1_555 1_555
C9 C8 1_555 1_555
C10 C9 1_555 1_555
H13 C10 1_555 1_555
C11 C10 1_555 1_555
H14 C11 1_555 1_555
C12 N2 1_555 1_555
H15 C12 1_555 1_555
C13 C9 1_555 1_555
H16 C13 1_555 1_555
C14 C15 1_555 1_555
C15 H17 1_555 1_555
C16 C15 1_555 1_555
H18 C16 1_555 1_555
C17 C16 1_555 1_555
C18 C17 1_555 1_555
H19 C18 1_555 1_555
C19 C14 1_555 1_555
H20 C19 1_555 1_555
C20 O2 1_555 1_555
C21 C17 1_555 1_555
Co2_2 O4C 1_555 1_555
Co2D N2 1_555 1_555
O1C Co1 1_555 1_555
O2C Co1 1_555 1_555
O3C C21C 1_555 1_555
O4C C21C 1_555 1_555
O4C_2 Co2 1_555 1_555
O5C Co2 1_555 1_555
H1C O5C 1_555 1_555
H2C O5C 1_555 1_555
N1C Co1 1_555 1_555
N2C Co2D 1_555 1_555
N2D Co2 1_555 1_555
N2G Co2 1_555 1_555
C1C N1C 1_555 1_555
H3C C1C 1_555 1_555
C2C C1C 1_555 1_555
H4C C2C 1_555 1_555
C3C C2C 1_555 1_555
C4C C3C 1_555 1_555
H5C C4C 1_555 1_555
C5C N1C 1_555 1_555
H6C C5C 1_555 1_555
C6C C3C 1_555 1_555
H7C C6C 1_555 1_555
H8C C6C 1_555 1_555
C7C C6C 1_555 1_555
H9C C7C 1_555 1_555
H10C C7C 1_555 1_555
C8C C7C 1_555 1_555
H11C C8C 1_555 1_555
H12C C8C 1_555 1_555
C9C C8C 1_555 1_555
C10C C9C 1_555 1_555
H13C C10C 1_555 1_555
C11C N2C 1_555 1_555
H14C C11C 1_555 1_555
C12C N2C 1_555 1_555
H15C C12C 1_555 1_555
C13C C9C 1_555 1_555
H16C C13C 1_555 1_555
C14C C15C 1_555 1_555
C15C H17C 1_555 1_555
C16C C15C 1_555 1_555
H18C C16C 1_555 1_555
C17C C16C 1_555 1_555
C18C C17C 1_555 1_555
H19C C18C 1_555 1_555
C19C C14C 1_555 1_555
H20C C19C 1_555 1_555
C20C O1C 1_555 1_555
C21C C17C 1_555 1_555
C4 C5 1_555 1_555
C12 C13 1_555 1_555
C14 C20 1_555 1_555
C18 C19 1_555 1_555
O2C C20C 1_555 1_555
C4C C5C 1_555 1_555
C10C C11C 1_555 1_555
C12C C13C 1_555 1_555
C14C C20C 1_555 1_555
C18C C19C 1_555 1_555

#END
