
#######################################################################
#
#                 Cambridge Crystallographic Data Centre
#                                CCDC 
#
#######################################################################
#
# If this CIF has been generated from an entry in the Cambridge 
# Structural Database, then it will include bibliographic, chemical, 
# crystal, experimental, refinement or atomic coordinate data resulting 
# from the CCDC's data processing and validation procedures.
#
#######################################################################

data_WEDWIN
_symmetry_cell_setting           rhombohedral
_symmetry_space_group_name_H-M   'R 3'
_symmetry_Int_Tables_number      146
_space_group_name_Hall           'R 3'
loop_
_symmetry_equiv_pos_site_id
_symmetry_equiv_pos_as_xyz
1 x,y,z
2 -y,x-y,z
3 -x+y,-x,z
4 2/3+x,1/3+y,1/3+z
5 2/3-y,1/3+x-y,1/3+z
6 2/3-x+y,1/3-x,1/3+z
7 1/3+x,2/3+y,2/3+z
8 1/3-y,2/3+x-y,2/3+z
9 1/3-x+y,2/3-x,2/3+z
_cell_length_a                   14.3797(15)
_cell_length_b                   14.3797(15)
_cell_length_c                   23.083(3)
_cell_angle_alpha                90
_cell_angle_beta                 90
_cell_angle_gamma                120
_cell_volume                     4133.54
loop_
_atom_site_label
_atom_site_type_symbol
_atom_site_fract_x
_atom_site_fract_y
_atom_site_fract_z
Cu1 Cu 0.00000 0.00000 0.29539(5)
Cu2 Cu 0.38958(5) 0.20108(5) 0.14569(3)
N1 N 0.2913(4) 0.0901(4) 0.2066(2)
N2 N 0.1330(3) -0.0037(3) 0.26529(19)
N3 N 0.4852(3) 0.1353(4) 0.17034(19)
N4 N 0.6418(4) 0.1200(4) 0.1743(2)
C1 C 0.1915(4) 0.0672(4) 0.2242(2)
H1 H 0.161 0.1047 0.2057
C2 C 0.1740(4) -0.0604(4) 0.2903(2)
C3 C 0.2728(5) -0.0465(4) 0.2725(2)
H2 H 0.3002 -0.0888 0.2886
C4 C 0.3303(4) 0.0304(4) 0.2306(2)
C5 C 0.1128(4) -0.1366(4) 0.3388(3)
H3 H 0.0357 -0.1725 0.3304
H4 H 0.1276 -0.0966 0.3752
H5 H 0.1353 -0.1905 0.3423
C6 C 0.5831(4) 0.1616(4) 0.1546(2)
H6 H 0.6157 0.2163 0.126
C7 C 0.5941(4) 0.0374(4) 0.2119(2)
C8 C 0.4874(4) 0.0012(4) 0.2293(3)
H7 H 0.451 -0.0593 0.2541
C9 C 0.4376(5) 0.0545(4) 0.2102(2)
C10 C 0.6555(5) -0.0105(5) 0.2364(3)
H8 H 0.6959 -0.0212 0.2055
H9 H 0.6058 -0.0799 0.2542
H10 H 0.7054 0.0377 0.2658
O1 O 0.3099(5) 0.1777(5) 0.0258(2)
C11 C 0.3403(8) 0.1867(7) 0.0717(3)
N6 N 0.00000 0.00000 0.3797(4)
C12 C 0.00000 0.00000 0.4292(5)
C13 C 0.00000 0.00000 0.4913(5)
H11 H 0.0302 -0.0436 0.5054
Cu2A Cu -0.20108(5) 0.18850(7) 0.14569(3)
Cu2B Cu -0.18850(7) -0.38958(5) 0.14569(3)
Cu2_2 Cu -0.61042(5) -0.79892(5) 0.14569(3)
Cu2A_2 Cu 0.79892(5) 0.18850(7) 0.14569(3)
Cu2B_2 Cu -0.18850(7) 0.61042(5) 0.14569(3)
N1A N -0.0901(4) 0.2012(6) 0.2066(2)
N1B N -0.2012(6) -0.2913(4) 0.2066(2)
N2A N 0.0037(3) 0.1367(4) 0.26529(19)
N2B N -0.1367(4) -0.1330(3) 0.26529(19)
N3A N -0.1353(4) 0.3499(5) 0.17034(19)
N3B N -0.3499(5) -0.4852(3) 0.17034(19)
N4A N -0.1200(4) 0.5218(6) 0.1743(2)
N4B N -0.5218(6) -0.6418(4) 0.1743(2)
N4_2 N -0.3582(4) 0.1200(4) 0.1743(2)
N4A_2 N -0.1200(4) -0.4782(6) 0.1743(2)
N4B_2 N 0.4782(6) 0.3582(4) 0.1743(2)
C1A C -0.0672(4) 0.1243(6) 0.2242(2)
C1B C -0.1243(6) -0.1915(4) 0.2242(2)
H1A H -0.1047 0.0563 0.2057
H1B H -0.0563 -0.161 0.2057
C2A C 0.0604(4) 0.2344(6) 0.2903(2)
C2B C -0.2344(6) -0.1740(4) 0.2903(2)
C3A C 0.0465(4) 0.3193(6) 0.2725(2)
C3B C -0.3193(6) -0.2728(5) 0.2725(2)
H2A H 0.0888 0.3890 0.2886
H2B H -0.3890 -0.3002 0.2886
C4A C -0.0304(4) 0.2999(6) 0.2306(2)
C4B C -0.2999(6) -0.3303(4) 0.2306(2)
C5A C 0.1366(4) 0.2494(6) 0.3388(3)
C5B C -0.2494(6) -0.1128(4) 0.3388(3)
H3A H 0.1725 0.2082 0.3304
H3B H -0.2082 -0.0357 0.3304
H4A H 0.0966 0.2242 0.3752
H4B H -0.2242 -0.1276 0.3752
H5A H 0.1905 0.3258 0.3423
H5B H -0.3258 -0.1353 0.3423
C6A C -0.1616(4) 0.4215(6) 0.1546(2)
C6B C -0.4215(6) -0.5831(4) 0.1546(2)
H6A H -0.2163 0.3994 0.126
H6B H -0.3994 -0.6157 0.126
C7A C -0.0374(4) 0.5567(6) 0.2119(2)
C7B C -0.5567(6) -0.5941(4) 0.2119(2)
C8A C -0.0012(4) 0.4862(6) 0.2293(3)
C8B C -0.4862(6) -0.4874(4) 0.2293(3)
H7A H 0.0593 0.5103 0.2541
H7B H -0.5103 -0.451 0.2541
C9A C -0.0545(4) 0.3831(6) 0.2102(2)
C9B C -0.3831(6) -0.4376(5) 0.2102(2)
C10A C 0.0105(5) 0.6660(7) 0.2364(3)
C10B C -0.6660(7) -0.6555(5) 0.2364(3)
H8A H 0.0212 0.7171 0.2055
H8B H -0.7171 -0.6959 0.2055
H9A H 0.0799 0.6857 0.2542
H9B H -0.6857 -0.6058 0.2542
H10A H -0.0377 0.6677 0.2658
H10B H -0.6677 -0.7054 0.2658
O1A O -0.1777(5) 0.1322(7) 0.0258(2)
O1B O -0.1322(7) -0.3099(5) 0.0258(2)
C11A C -0.1867(7) 0.1536(11) 0.0717(3)
C11B C -0.1536(11) -0.3403(8) 0.0717(3)
H11A H 0.0436 0.0738 0.5054
H11B H -0.0738 -0.0302 0.5054
P1 P 0.15836(14) 0.32551(15) 0.09180(9)
F1 F 0.1966(8) 0.4328(9) 0.0555(5)
F2 F 0.1193(9) 0.2413(10) 0.1427(5)
F3 F 0.0389(7) 0.3109(9) 0.0895(4)
F4 F 0.1434(8) 0.2614(8) 0.0353(4)
F5 F 0.2795(10) 0.3514(9) 0.0976(6)
F6 F 0.1745(7) 0.3925(8) 0.1525(5)
P2 P 0.3333 0.6667 0.32383(11)
F7 F 0.2688(5) 0.7023(5) 0.2846(2)
F8 F 0.3690(6) 0.7688(4) 0.3644(2)
F7A F 0.2977(5) 0.5665(7) 0.2846(2)
F7B F 0.4335(7) 0.7312(5) 0.2846(2)
F8A F 0.2312(4) 0.6002(7) 0.3644(2)
F8B F 0.3998(7) 0.6310(6) 0.3644(2)
N5 N 0.6667 0.3333 0.2558(7)
C14 C 0.6667 0.3333 0.3035(8)
C15 C 0.6667 0.3333 0.3665(8)
H12 H 0.7081 0.3008 0.3806
H12A H 0.6992 0.4073 0.3806
H12B H 0.5927 0.2919 0.3806
F9? F 0.1856(12) 0.4015(12) 0.0349(7)
F10? F 0.1331(13) 0.2181(13) 0.1296(7)
F11? F 0.0339(11) 0.2521(12) 0.0747(6)
F12? F 0.1760(12) 0.2445(11) 0.0490(6)
F13? F 0.2806(15) 0.3795(13) 0.1055(9)
F14? F 0.1467(11) 0.4063(11) 0.1289(7)
loop_
_geom_bond_atom_site_label_1
_geom_bond_atom_site_label_2
_geom_bond_site_symmetry_1
_geom_bond_site_symmetry_2
Cu1 N2 1_555 1_555
Cu2 N1 1_555 1_555
P1 F1 1_555 1_555
P2 F7 1_555 1_555
F2 P1 1_555 1_555
F3 P1 1_555 1_555
F4 P1 1_555 1_555
F5 P1 1_555 1_555
F6 P1 1_555 1_555
F8 P2 1_555 1_555
N1 C1 1_555 1_555
N2 C1 1_555 1_555
N3 Cu2 1_555 1_555
N4 C6 1_555 1_555
N5 C14 1_555 1_555
C1 H1 1_555 1_555
C2 N2 1_555 1_555
C3 C2 1_555 1_555
H2 C3 1_555 1_555
C4 N1 1_555 1_555
C5 C2 1_555 1_555
H3 C5 1_555 1_555
H4 C5 1_555 1_555
H5 C5 1_555 1_555
C6 N3 1_555 1_555
H6 C6 1_555 1_555
C7 N4 1_555 1_555
C8 C7 1_555 1_555
H7 C8 1_555 1_555
C9 N3 1_555 1_555
C10 C7 1_555 1_555
H8 C10 1_555 1_555
H9 C10 1_555 1_555
H10 C10 1_555 1_555
O1 C11 1_555 1_555
C11 Cu2 1_555 1_555
N6 Cu1 1_555 1_555
C12 N6 1_555 1_555
C13 C12 1_555 1_555
H11 C13 1_555 1_555
C14 C15 1_555 1_555
C15 H12 1_555 1_555
Cu2A N1A 1_555 1_555
Cu2B N1B 1_555 1_555
Cu2_2 N4B 1_555 1_555
Cu2A_2 N4 1_555 1_555
Cu2B_2 N4A 1_555 1_555
F7A P2 1_555 1_555
F7B P2 1_555 1_555
F8A P2 1_555 1_555
F8B P2 1_555 1_555
N1A C1A 1_555 1_555
N1B C1B 1_555 1_555
N2A Cu1 1_555 1_555
N2B Cu1 1_555 1_555
N3A Cu2A 1_555 1_555
N3B Cu2B 1_555 1_555
N4A C6A 1_555 1_555
N4B C6B 1_555 1_555
N4_2 Cu2A 1_555 1_555
N4A_2 Cu2B 1_555 1_555
N4B_2 Cu2 1_555 1_555
C1A N2A 1_555 1_555
C1B N2B 1_555 1_555
H1A C1A 1_555 1_555
H1B C1B 1_555 1_555
C2A N2A 1_555 1_555
C2B N2B 1_555 1_555
C3A C2A 1_555 1_555
C3B C2B 1_555 1_555
H2A C3A 1_555 1_555
H2B C3B 1_555 1_555
C4A N1A 1_555 1_555
C4B N1B 1_555 1_555
C5A C2A 1_555 1_555
C5B C2B 1_555 1_555
H3A C5A 1_555 1_555
H3B C5B 1_555 1_555
H4A C5A 1_555 1_555
H4B C5B 1_555 1_555
H5A C5A 1_555 1_555
H5B C5B 1_555 1_555
C6A N3A 1_555 1_555
C6B N3B 1_555 1_555
H6A C6A 1_555 1_555
H6B C6B 1_555 1_555
C7A N4A 1_555 1_555
C7B N4B 1_555 1_555
C8A C7A 1_555 1_555
C8B C7B 1_555 1_555
H7A C8A 1_555 1_555
H7B C8B 1_555 1_555
C9A N3A 1_555 1_555
C9B N3B 1_555 1_555
C10A C7A 1_555 1_555
C10B C7B 1_555 1_555
H8A C10A 1_555 1_555
H8B C10B 1_555 1_555
H9A C10A 1_555 1_555
H9B C10B 1_555 1_555
H10A C10A 1_555 1_555
H10B C10B 1_555 1_555
O1A C11A 1_555 1_555
O1B C11B 1_555 1_555
C11A Cu2A 1_555 1_555
C11B Cu2B 1_555 1_555
H11A C13 1_555 1_555
H11B C13 1_555 1_555
H12A C15 1_555 1_555
H12B C15 1_555 1_555
C3 C4 1_555 1_555
C4 C9 1_555 1_555
C8 C9 1_555 1_555
C3A C4A 1_555 1_555
C3B C4B 1_555 1_555
C4A C9A 1_555 1_555
C4B C9B 1_555 1_555
C8A C9A 1_555 1_555
C8B C9B 1_555 1_555

#END
