
#######################################################################
#
#                 Cambridge Crystallographic Data Centre
#                                CCDC 
#
#######################################################################
#
# If this CIF has been generated from an entry in the Cambridge 
# Structural Database, then it will include bibliographic, chemical, 
# crystal, experimental, refinement or atomic coordinate data resulting 
# from the CCDC's data processing and validation procedures.
#
#######################################################################

data_WEDXUA
_symmetry_cell_setting           monoclinic
_symmetry_space_group_name_H-M   'P 21/c'
_symmetry_Int_Tables_number      14
_space_group_name_Hall           '-P 2ybc'
loop_
_symmetry_equiv_pos_site_id
_symmetry_equiv_pos_as_xyz
1 x,y,z
2 -x,1/2+y,1/2-z
3 -x,-y,-z
4 x,1/2-y,1/2+z
_cell_length_a                   18.034(2)
_cell_length_b                   15.374(2)
_cell_length_c                   7.5997(10)
_cell_angle_alpha                90
_cell_angle_beta                 94.1810(10)
_cell_angle_gamma                90
_cell_volume                     2101.45
loop_
_atom_site_label
_atom_site_type_symbol
_atom_site_fract_x
_atom_site_fract_y
_atom_site_fract_z
Br1 Br 0.51826(11) 0.91105(13) 0.1762(3)
Br2 Br 0.50207(10) 0.84532(12) 0.6607(3)
Br3 Br 0.67888(10) 1.02760(12) 0.5892(3)
C1 C 0.6421(8) 0.7251(11) 0.452(2)
H1 H 0.5939 0.7206 0.4876
C2 C 0.6810(9) 0.6505(10) 0.425(2)
H2 H 0.6596 0.5965 0.4426
C3 C 0.7525(8) 0.6563(9) 0.371(2)
H3 H 0.7800 0.6063 0.3527
C4 C 0.7825(7) 0.7386(9) 0.3446(18)
C5 C 0.7388(8) 0.8109(9) 0.3761(19)
H4 H 0.7580 0.8661 0.3589
C6 C 0.8598(7) 0.7489(8) 0.2848(18)
C7 C 0.6547(9) 1.1865(12) 0.043(3)
H5 H 0.6076 1.2115 0.0378
C8 C 0.7139(10) 1.2332(12) -0.012(3)
H6 H 0.7059 1.2888 -0.0577
C9 C 0.7855(9) 1.1990(11) 0.001(3)
H7 H 0.8263 1.2308 -0.0310
C10 C 0.7926(8) 1.1142(9) 0.064(2)
C11 C 0.7319(8) 1.0701(10) 0.115(2)
H8 H 0.7381 1.0141 0.1601
C12 C 0.8685(8) 1.0721(9) 0.075(2)
C13 C 0.9470(8) 1.0355(10) -0.314(2)
C14 C 0.8853(10) 1.0026(14) -0.447(2)
H9 H 0.8822 1.0394 -0.5490
H10 H 0.8963 0.9442 -0.4809
H11 H 0.8387 1.0036 -0.3932
Cu1 Cu 0.60377(13) 0.90861(15) 0.4754(4)
Cu2 Cu 0.44694(14) 0.93451(18) 0.4273(4)
Cu3 Cu 0.57602(14) 1.04541(19) 0.1923(5)
N1 N 0.6705(7) 0.8038(8) 0.4299(18)
N2 N 0.6648(8) 1.1047(9) 0.104(2)
O1 O 0.8757(6) 0.8181(6) 0.2131(15)
O2 O 0.9016(5) 0.6837(6) 0.3114(14)
O3 O 0.9735(7) 1.1091(7) -0.3310(15)
O4 O 0.9661(5) 0.9904(7) -0.1789(13)
O5 O 0.9224(5) 1.1214(7) 0.0513(16)
O6 O 0.8725(6) 0.9907(6) 0.0949(15)
O7 O 1.0050(7) 0.7405(7) 0.0819(15)
Tb1 Tb 0.96122(3) 0.88652(4) 0.04659(8)
Br2B Br 0.49793(10) 1.15468(12) 0.3393(3)
Br3B Br 0.32112(10) 0.97240(12) 0.4108(3)
Cu2B Cu 0.55306(14) 1.06549(18) 0.5727(4)
Cu3B Cu 0.42398(14) 0.95459(19) 0.8077(5)
O2C O 0.9016(5) 0.8163(6) -0.1886(14)
O3B O 1.0265(7) 0.8909(7) 0.3310(15)
O4B O 1.0339(5) 1.0096(7) 0.1789(13)
O5B O 1.0776(5) 0.8786(7) -0.0513(16)
Tb1C Tb 0.96122(3) 0.61348(4) 0.54659(8)
Tb1B Tb 1.03878(3) 1.11348(4) -0.04659(8)
loop_
_geom_bond_atom_site_label_1
_geom_bond_atom_site_label_2
_geom_bond_site_symmetry_1
_geom_bond_site_symmetry_2
Br1 Cu1 1_555 1_555
Br2 Cu1 1_555 1_555
Br3 Cu1 1_555 1_555
C1 H1 1_555 1_555
C2 C1 1_555 1_555
H2 C2 1_555 1_555
C3 C2 1_555 1_555
H3 C3 1_555 1_555
C4 C3 1_555 1_555
C5 C4 1_555 1_555
H4 C5 1_555 1_555
C6 C4 1_555 1_555
C7 H5 1_555 1_555
C8 C7 1_555 1_555
H6 C8 1_555 1_555
C9 C8 1_555 1_555
H7 C9 1_555 1_555
C10 C9 1_555 1_555
C11 C10 1_555 1_555
H8 C11 1_555 1_555
C12 C10 1_555 1_555
C13 C14 1_555 1_555
C14 H9 1_555 1_555
H10 C14 1_555 1_555
H11 C14 1_555 1_555
Cu1 N1 1_555 1_555
Cu2 Br1 1_555 1_555
Cu3 Br1 1_555 1_555
N1 C1 1_555 1_555
N2 C7 1_555 1_555
O1 C6 1_555 1_555
O2 C6 1_555 1_555
O3 C13 1_555 1_555
O4 C13 1_555 1_555
O5 C12 1_555 1_555
O6 C12 1_555 1_555
O7 Tb1 1_555 1_555
Tb1 O1 1_555 1_555
Br2B Cu3 1_555 1_555
Br3B Cu2 1_555 1_555
Cu2B Br3 1_555 1_555
Cu3B Br2 1_555 1_555
O2C Tb1 1_555 1_555
O3B Tb1 1_555 1_555
O4B Tb1 1_555 1_555
O5B Tb1 1_555 1_555
Tb1C O2 1_555 1_555
Tb1B O3 1_555 1_555
Br2 Cu2 1_555 1_555
C5 N1 1_555 1_555
C11 N2 1_555 1_555
Cu3 N2 1_555 1_555
O4 Tb1 1_555 1_555
O4 Tb1B 1_555 1_555
O5 Tb1B 1_555 1_555
O6 Tb1 1_555 1_555
Br2B Cu2B 1_555 1_555
O4B Tb1B 1_555 1_555

#END
