
#######################################################################
#
#                 Cambridge Crystallographic Data Centre
#                                CCDC 
#
#######################################################################
#
# If this CIF has been generated from an entry in the Cambridge 
# Structural Database, then it will include bibliographic, chemical, 
# crystal, experimental, refinement or atomic coordinate data resulting 
# from the CCDC's data processing and validation procedures.
#
#######################################################################

data_WEDXAG
_symmetry_cell_setting           triclinic
_symmetry_space_group_name_H-M   'P -1'
_symmetry_Int_Tables_number      2
_space_group_name_Hall           '-P 1'
loop_
_symmetry_equiv_pos_site_id
_symmetry_equiv_pos_as_xyz
1 x,y,z
2 -x,-y,-z
_cell_length_a                   9.8257(14)
_cell_length_b                   14.790(2)
_cell_length_c                   20.182(3)
_cell_angle_alpha                73.386(2)
_cell_angle_beta                 82.825(2)
_cell_angle_gamma                77.750(2)
_cell_volume                     2739.99
loop_
_atom_site_label
_atom_site_type_symbol
_atom_site_fract_x
_atom_site_fract_y
_atom_site_fract_z
Br1 Br 0.17226(10) 0.87338(7) 0.49172(6)
Br2 Br 0.51858(11) 0.68529(8) 0.43593(7)
Br3 Br 0.28284(11) 0.82552(8) 0.27198(6)
Br4 Br 0.46308(9) 1.00365(6) 0.33769(5)
Br5 Br 0.99812(11) -0.07818(9) 0.86411(7)
Br6 Br 0.87582(10) -0.11661(7) 1.05532(5)
C1 C 0.5834(9) 0.6817(6) 0.6914(5)
C2 C 0.6164(7) 0.7542(5) 0.6257(4)
C3 C 0.7473(8) 0.7789(6) 0.6116(5)
H1 H 0.8169 0.7495 0.6423
C4 C 0.7729(8) 0.8479(6) 0.5513(5)
H2 H 0.8592 0.8668 0.5412
C5 C 0.6704(9) 0.8872(7) 0.5075(5)
H3 H 0.6886 0.9334 0.4669
C6 C 0.5176(9) 0.7968(6) 0.5793(5)
H4 H 0.4300 0.7797 0.5893
C7 C 0.0984(9) 0.5227(6) 0.3125(5)
C8 C 0.0638(9) 0.5732(7) 0.3683(5)
C9 C 0.1606(9) 0.6239(7) 0.3796(5)
H5 H 0.2455 0.6222 0.3533
C10 C 0.0177(11) 0.6739(8) 0.4638(6)
H6 H 0.0010 0.7076 0.4974
C11 C -0.0843(11) 0.6258(9) 0.4559(6)
H7 H -0.1684 0.6289 0.4828
C12 C -0.0585(10) 0.5746(8) 0.4087(6)
H8 H -0.1240 0.5404 0.4036
C13 C -0.0519(8) 1.2901(6) 0.2289(5)
C14 C -0.0583(8) 1.1906(5) 0.2722(4)
C15 C -0.1845(8) 1.1593(6) 0.2930(5)
H9 H -0.2689 1.2003 0.2812
C16 C -0.1809(9) 1.0676(7) 0.3308(5)
H10 H -0.2638 1.0446 0.3445
C17 C -0.0565(10) 1.0078(7) 0.3493(5)
H11 H -0.0579 0.9463 0.3779
C18 C 0.0625(8) 1.1266(5) 0.2910(4)
H12 H 0.1468 1.1480 0.2775
C19 C 0.8372(8) 0.6098(5) 0.1881(4)
C20 C 0.8217(8) 0.6915(6) 0.2181(4)
C21 C 0.6915(8) 0.7284(6) 0.2450(5)
H13 H 0.6159 0.7009 0.2430
C22 C 0.7787(10) 0.8428(7) 0.2756(5)
H14 H 0.7647 0.8943 0.2950
C23 C 0.9102(9) 0.8104(6) 0.2496(5)
H15 H 0.9836 0.8403 0.2512
C24 C 0.9334(8) 0.7343(6) 0.2212(4)
H16 H 1.0226 0.7114 0.2042
C25 C 0.6545(9) 0.3870(6) 0.8841(5)
C26 C 0.6364(8) 0.2845(6) 0.9103(5)
C27 C 0.5038(9) 0.2626(6) 0.9258(6)
H17 H 0.4246 0.3107 0.9198
C28 C 0.4933(10) 0.1668(7) 0.9503(6)
H18 H 0.4065 0.1487 0.9616
C29 C 0.6144(9) 0.0987(7) 0.9575(5)
H19 H 0.6060 0.0345 0.9744
C30 C 0.7504(8) 0.2119(6) 0.9189(5)
H20 H 0.8384 0.2281 0.9080
C31 C 0.5455(8) 0.6853(6) 0.8612(5)
C32 C 0.5270(8) 0.7900(6) 0.8599(5)
C33 C 0.3923(8) 0.8432(6) 0.8626(5)
H21 H 0.3170 0.8132 0.8652
C34 C 0.4783(9) 0.9769(6) 0.8569(5)
H22 H 0.4624 1.0413 0.8565
C35 C 0.6105(9) 0.9317(7) 0.8526(5)
H23 H 0.6836 0.9646 0.8478
C36 C 0.6373(8) 0.8350(6) 0.8552(5)
H24 H 0.7285 0.8013 0.8539
Cu1 Cu 0.40210(14) 0.89984(10) 0.44654(7)
Cu2 Cu 0.27428(14) 0.75730(10) 0.42757(8)
Cu3 Cu 0.24132(13) 0.93985(9) 0.34139(9)
Cu4 Cu 0.48543(13) 0.83311(11) 0.32588(8)
Cu5 Cu 0.90859(14) 0.01357(9) 0.94655(8)
Cu6 Cu 0.17289(13) 0.99619(9) 0.88516(8)
Eu1 Eu 0.83576(4) 0.54676(3) 0.81086(2)
Eu2 Eu 0.36909(4) 0.55188(3) 0.79651(2)
N1 N 0.5411(7) 0.8628(5) 0.5193(4)
N2 N 0.1358(8) 0.6738(6) 0.4258(4)
N3 N 0.0662(7) 1.0348(5) 0.3278(4)
N4 N 0.6699(7) 0.8020(5) 0.2738(4)
N5 N 0.7424(7) 0.1185(5) 0.9420(4)
N6 N 0.3674(8) 0.9362(5) 0.8617(4)
O1 O 0.6748(6) 0.6423(5) 0.7325(4)
O2 O 0.4598(6) 0.6664(4) 0.7013(3)
O3 O 0.0314(6) 0.4618(5) 0.3090(4)
O4 O 0.1973(6) 0.5477(4) 0.2664(3)
O5 O -0.1604(6) 1.3400(4) 0.2017(3)
O6 O 0.0613(6) 1.3178(4) 0.2224(4)
O7 O 0.7309(5) 0.5849(4) 0.1788(3)
O8 O 0.9578(6) 0.5684(4) 0.1733(4)
O9 O 0.5587(6) 0.4508(4) 0.8541(4)
O10 O 0.7713(6) 0.4055(4) 0.8902(4)
O11 O 0.4432(6) 0.6588(4) 0.8470(4)
O12 O 0.6641(6) 0.6350(4) 0.8740(3)
O13 O 0.9334(7) 0.5411(5) 0.9199(4)
O14 O 0.5215(6) 0.4604(4) 0.7201(3)
O15 O 0.2398(6) 0.5691(5) 0.6914(4)
O16 O 0.2731(7) 0.5225(5) 0.9206(3)
Br1A Br 0.82774(10) 0.12662(7) 0.50828(6)
Br2A Br 0.48142(11) 0.31471(8) 0.56407(7)
Br2A_2 Br 1.48142(11) 0.31471(8) 0.56407(7)
Br3A Br 0.71716(11) 1.17448(8) 0.72802(6)
Br3A_2 Br 1.71716(11) 0.17448(8) 0.72802(6)
Br4A Br 0.53692(9) 0.99635(6) 0.66231(5)
Br4A_2 Br 1.53692(9) -0.00365(6) 0.66231(5)
Br4A_3 Br 0.53692(9) -0.00365(6) 0.66231(5)
Br5_2 Br -0.00188(11) 0.92182(9) 0.86411(7)
Br6A Br 0.12418(10) 1.11661(7) 0.94468(5)
Br6_2 Br -0.12418(10) 0.88339(7) 1.05532(5)
Br6A_2 Br 1.12418(10) 0.11661(7) 0.94468(5)
C1A C 0.4166(9) 0.3183(6) 0.3086(5)
C2A C 0.3836(7) 0.2458(5) 0.3743(4)
C3A C 0.2527(8) 0.2211(6) 0.3884(5)
H1A H 0.1831 0.2505 0.3577
C4A C 0.2271(8) 0.1521(6) 0.4487(5)
H2A H 0.1408 0.1332 0.4588
C5A C 0.3296(9) 0.1128(7) 0.4925(5)
H3A H 0.3114 0.0666 0.5331
C6A C 0.4824(9) 0.2032(6) 0.4207(5)
H4A H 0.5700 0.2203 0.4107
C7A C 0.9016(9) 0.4773(6) 0.6875(5)
C8A C 0.9362(9) 0.4268(7) 0.6317(5)
C9A C 0.8394(9) 0.3761(7) 0.6204(5)
H5A H 0.7545 0.3778 0.6467
C10A C 0.9823(11) 0.3261(8) 0.5362(6)
H6A H 0.9990 0.2924 0.5026
C11A C 1.0843(11) 0.3742(9) 0.5441(6)
H7A H 1.1684 0.3711 0.5172
C12A C 1.0585(10) 0.4254(8) 0.5913(6)
H8A H 1.1240 0.4596 0.5964
C13A C 1.0519(8) 0.7099(6) 0.7711(5)
C14A C 1.0583(8) 0.8094(5) 0.7278(4)
C15A C 1.1845(8) 0.8407(6) 0.7070(5)
H9A H 1.2689 0.7997 0.7188
C16A C 1.1809(9) 0.9324(7) 0.6692(5)
H10A H 1.2638 0.9554 0.6555
C17A C 1.0565(10) 0.9922(7) 0.6507(5)
H11A H 1.0579 1.0537 0.6221
C18A C 0.9375(8) 0.8734(5) 0.7090(4)
H12A H 0.8532 0.8520 0.7225
C19A C 1.1628(8) 0.3902(5) 0.8119(4)
C20A C 1.1783(8) 0.3085(6) 0.7819(4)
C21A C 1.3085(8) 0.2716(6) 0.7550(5)
H13A H 1.3841 0.2991 0.7570
C22A C 1.2213(10) 0.1572(7) 0.7244(5)
H14A H 1.2353 0.1057 0.7050
C23A C 1.0898(9) 0.1896(6) 0.7504(5)
H15A H 1.0164 0.1597 0.7488
C24A C 1.0666(8) 0.2657(6) 0.7788(4)
H16A H 0.9774 0.2886 0.7958
C25A C 0.3455(9) 0.6130(6) 0.1159(5)
C26A C 0.3636(8) 0.7155(6) 0.0897(5)
C27A C 0.4962(9) 0.7374(6) 0.0742(6)
H17A H 0.5754 0.6893 0.0802
C28A C 0.5067(10) 0.8332(7) 0.0497(6)
H18A H 0.5935 0.8513 0.0384
C29A C 0.3856(9) 0.9013(7) 0.0425(5)
H19A H 0.3940 0.9655 0.0256
C30A C 0.2496(8) 0.7881(6) 0.0811(5)
H20A H 0.1616 0.7719 0.0920
C31A C 0.4545(8) 0.3147(6) 0.1388(5)
C32A C 0.4730(8) 0.2100(6) 0.1401(5)
C33A C 0.6077(8) 0.1568(6) 0.1374(5)
H21A H 0.6830 0.1868 0.1348
C34A C 0.5217(9) 0.0231(6) 0.1431(5)
H22A H 0.5376 -0.0413 0.1435
C35A C 0.3895(9) 0.0683(7) 0.1474(5)
H23A H 0.3164 0.0354 0.1522
C36A C 0.3627(8) 0.1650(6) 0.1448(5)
H24A H 0.2715 0.1987 0.1461
Cu1A Cu 0.59790(14) 0.10016(10) 0.55346(7)
Cu1A_2 Cu 0.59790(14) 1.10016(10) 0.55346(7)
Cu2A Cu 0.72572(14) 0.24270(10) 0.57243(8)
Cu3A Cu 0.75868(13) 1.06015(9) 0.65861(9)
Cu4A Cu 1.51457(13) 0.16689(11) 0.67412(8)
Cu4A_2 Cu 0.51457(13) 0.16689(11) 0.67412(8)
Cu4A_3 Cu 0.51457(13) 1.16689(11) 0.67412(8)
Cu5_2 Cu -0.09141(14) 1.01357(9) 0.94655(8)
Cu5A Cu 0.09141(14) 0.98643(9) 1.05345(8)
Cu5A_2 Cu 0.09141(14) 0.98643(9) 0.05345(8)
Cu6_2 Cu 1.17289(13) -0.00381(9) 0.88516(8)
Cu6A Cu 0.82711(13) 0.00381(9) 1.11484(8)
Cu6A_2 Cu 0.82711(13) 0.00381(9) 0.11484(8)
Eu1A Eu 0.16424(4) 0.45324(3) 0.18914(2)
Eu1A_2 Eu 0.16424(4) 1.45324(3) 0.18914(2)
Eu1A_3 Eu 1.16424(4) 0.45324(3) 0.18914(2)
Eu2A Eu -0.36909(4) 1.44812(3) 0.20349(2)
Eu2A_2 Eu 0.63091(4) 0.44812(3) 0.20349(2)
Eu2_2 Eu 1.36909(4) 0.55188(3) 0.79651(2)
N1A N 0.4589(7) 0.1372(5) 0.4807(4)
N2A N 0.8642(8) 0.3262(6) 0.5742(4)
N3A N 0.9338(7) 0.9652(5) 0.6722(4)
N4A N 1.3301(7) 0.1980(5) 0.7262(4)
N5A N 0.2576(7) 0.8815(5) 0.0580(4)
N5_2 N -0.2576(7) 1.1185(5) 0.9420(4)
N6A N 0.6326(8) 0.0638(5) 0.1383(4)
N6_2 N 1.3674(8) -0.0638(5) 0.8617(4)
O1A O 0.3252(6) 0.3577(5) 0.2675(4)
O2A O 0.5402(6) 0.3336(4) 0.2987(3)
O2A_2 O -0.4598(6) 1.3336(4) 0.2987(3)
O3A O 0.9686(6) 0.5382(5) 0.6910(4)
O4A O 0.8027(6) 0.4523(4) 0.7336(3)
O5A O 1.1604(6) 0.6600(4) 0.7983(3)
O5A_2 O 0.1604(6) 0.6600(4) 0.7983(3)
O6A O 0.9387(6) 0.6822(4) 0.7776(4)
O6_2 O 0.0613(6) 0.3178(4) 0.2224(4)
O7A O 1.2691(5) 0.4151(4) 0.8212(3)
O7A_2 O 0.2691(5) 0.4151(4) 0.8212(3)
O7_2 O -0.2691(5) 1.5849(4) 0.1788(3)
O8A O 1.0422(6) 0.4316(4) 0.8267(4)
O8_2 O -0.0422(6) 0.5684(4) 0.1733(4)
O9A O 0.4413(6) 0.5492(4) 0.1459(4)
O9A_2 O -0.5587(6) 1.5492(4) 0.1459(4)
O10A O 0.2287(6) 0.5945(4) 0.1098(4)
O11A O 0.5568(6) 0.3412(4) 0.1530(4)
O11A_2 O -0.4432(6) 1.3412(4) 0.1530(4)
O12A O 0.3359(6) 0.3650(4) 0.1260(3)
O13A O 0.0666(7) 0.4589(5) 0.0801(4)
O14A O -0.5215(6) 1.5396(4) 0.2799(3)
O15A O -0.2398(6) 1.4309(5) 0.3086(4)
O16A O -0.2731(7) 1.4775(5) 0.0794(3)
O17 O 0.4271(11) 0.5326(6) 0.5848(5)
O18 O 0.5000 0.5000 0.0000
O19 O 0.8972(13) 0.3255(7) 0.0263(5)
O20 O 0.1766(17) 0.3437(9) 0.9955(7)
loop_
_geom_bond_atom_site_label_1
_geom_bond_atom_site_label_2
_geom_bond_site_symmetry_1
_geom_bond_site_symmetry_2
Br1 Cu1 1_555 1_555
Br2 Cu2 1_555 1_555
Br3 Cu3 1_555 1_555
Br4 Cu1 1_555 1_555
Br5 Cu5 1_555 1_555
Br6 Cu5 1_555 1_555
C1 C2 1_555 1_555
C2 C3 1_555 1_555
C3 H1 1_555 1_555
C4 C3 1_555 1_555
H2 C4 1_555 1_555
C5 C4 1_555 1_555
H3 C5 1_555 1_555
C6 C2 1_555 1_555
H4 C6 1_555 1_555
C7 C8 1_555 1_555
C8 C9 1_555 1_555
C9 H5 1_555 1_555
C10 H6 1_555 1_555
C11 C10 1_555 1_555
H7 C11 1_555 1_555
C12 C8 1_555 1_555
H8 C12 1_555 1_555
C13 C14 1_555 1_555
C14 C15 1_555 1_555
C15 H9 1_555 1_555
C16 C15 1_555 1_555
H10 C16 1_555 1_555
C17 C16 1_555 1_555
H11 C17 1_555 1_555
C18 C14 1_555 1_555
H12 C18 1_555 1_555
C19 C20 1_555 1_555
C20 C21 1_555 1_555
C21 H13 1_555 1_555
C22 H14 1_555 1_555
C23 C22 1_555 1_555
H15 C23 1_555 1_555
C24 C20 1_555 1_555
H16 C24 1_555 1_555
C25 C26 1_555 1_555
C26 C27 1_555 1_555
C27 H17 1_555 1_555
C28 C27 1_555 1_555
H18 C28 1_555 1_555
C29 C28 1_555 1_555
H19 C29 1_555 1_555
C30 C26 1_555 1_555
H20 C30 1_555 1_555
C31 C32 1_555 1_555
C32 C33 1_555 1_555
C33 H21 1_555 1_555
C34 H22 1_555 1_555
C35 C34 1_555 1_555
H23 C35 1_555 1_555
C36 C32 1_555 1_555
H24 C36 1_555 1_555
Cu1 N1 1_555 1_555
Cu2 Br1 1_555 1_555
Cu3 Br4 1_555 1_555
Cu4 Br2 1_555 1_555
Cu5 N5 1_555 1_555
Cu6 N6 1_555 1_555
Eu1 O1 1_555 1_555
Eu2 O2 1_555 1_555
N1 C5 1_555 1_555
N2 C9 1_555 1_555
N3 C17 1_555 1_555
N4 C21 1_555 1_555
N5 C29 1_555 1_555
N6 C33 1_555 1_555
O1 C1 1_555 1_555
O2 C1 1_555 1_555
O3 C7 1_555 1_555
O4 C7 1_555 1_555
O5 C13 1_555 1_555
O6 C13 1_555 1_555
O7 C19 1_555 1_555
O8 C19 1_555 1_555
O9 C25 1_555 1_555
O10 C25 1_555 1_555
O11 C31 1_555 1_555
O12 C31 1_555 1_555
O13 Eu1 1_555 1_555
O14 Eu2 1_555 1_555
O15 Eu2 1_555 1_555
O16 Eu2 1_555 1_555
Br1A Cu1A 1_555 1_555
Br2A Cu2A 1_555 1_555
Br2A_2 Cu4A 1_555 1_555
Br3A Cu3A 1_555 1_555
Br3A_2 Cu4A 1_555 1_555
Br4A Cu1A_2 1_555 1_555
Br4A_2 Cu4A 1_555 1_555
Br4A_3 Cu1A 1_555 1_555
Br5_2 Cu6 1_555 1_555
Br6A Cu6 1_555 1_555
Br6_2 Cu5_2 1_555 1_555
Br6A_2 Cu6_2 1_555 1_555
C1A C2A 1_555 1_555
C2A C3A 1_555 1_555
C3A H1A 1_555 1_555
C4A C3A 1_555 1_555
H2A C4A 1_555 1_555
C5A C4A 1_555 1_555
H3A C5A 1_555 1_555
C6A C2A 1_555 1_555
H4A C6A 1_555 1_555
C7A C8A 1_555 1_555
C8A C9A 1_555 1_555
C9A H5A 1_555 1_555
C10A H6A 1_555 1_555
C11A C10A 1_555 1_555
H7A C11A 1_555 1_555
C12A C8A 1_555 1_555
H8A C12A 1_555 1_555
C13A C14A 1_555 1_555
C14A C15A 1_555 1_555
C15A H9A 1_555 1_555
C16A C15A 1_555 1_555
H10A C16A 1_555 1_555
C17A C16A 1_555 1_555
H11A C17A 1_555 1_555
C18A C14A 1_555 1_555
H12A C18A 1_555 1_555
C19A C20A 1_555 1_555
C20A C21A 1_555 1_555
C21A H13A 1_555 1_555
C22A H14A 1_555 1_555
C23A C22A 1_555 1_555
H15A C23A 1_555 1_555
C24A C20A 1_555 1_555
H16A C24A 1_555 1_555
C25A C26A 1_555 1_555
C26A C27A 1_555 1_555
C27A H17A 1_555 1_555
C28A C27A 1_555 1_555
H18A C28A 1_555 1_555
C29A C28A 1_555 1_555
H19A C29A 1_555 1_555
C30A C26A 1_555 1_555
H20A C30A 1_555 1_555
C31A C32A 1_555 1_555
C32A C33A 1_555 1_555
C33A H21A 1_555 1_555
C34A H22A 1_555 1_555
C35A C34A 1_555 1_555
H23A C35A 1_555 1_555
C36A C32A 1_555 1_555
H24A C36A 1_555 1_555
Cu1A N1A 1_555 1_555
Cu2A Br1A 1_555 1_555
Cu3A Br4A 1_555 1_555
Cu4A N4A 1_555 1_555
Cu4A_2 Br2A 1_555 1_555
Cu4A_3 Br3A 1_555 1_555
Cu5_2 Br5_2 1_555 1_555
Cu5A Br6A 1_555 1_555
Cu5A_2 N5A 1_555 1_555
Cu6_2 Br5 1_555 1_555
Cu6A Br6 1_555 1_555
Cu6A_2 N6A 1_555 1_555
Eu1A O3 1_555 1_555
Eu1A_2 O6 1_555 1_555
Eu1A_3 O8 1_555 1_555
Eu2A O5 1_555 1_555
Eu2A_2 O7 1_555 1_555
Eu2_2 O5A 1_555 1_555
N1A C5A 1_555 1_555
N2A C9A 1_555 1_555
N3A C17A 1_555 1_555
N4A C21A 1_555 1_555
N5A C29A 1_555 1_555
N5_2 Cu5_2 1_555 1_555
N6A C33A 1_555 1_555
N6_2 Cu6_2 1_555 1_555
O1A C1A 1_555 1_555
O2A C1A 1_555 1_555
O2A_2 Eu2A 1_555 1_555
O3A Eu1 1_555 1_555
O4A Eu1 1_555 1_555
O5A C13A 1_555 1_555
O5A_2 Eu2 1_555 1_555
O6A Eu1 1_555 1_555
O6_2 Eu1A 1_555 1_555
O7A C19A 1_555 1_555
O7A_2 Eu2 1_555 1_555
O7_2 Eu2A 1_555 1_555
O8A Eu1 1_555 1_555
O8_2 Eu1A 1_555 1_555
O9A C25A 1_555 1_555
O9A_2 Eu2A 1_555 1_555
O10A C25A 1_555 1_555
O11A C31A 1_555 1_555
O11A_2 Eu2A 1_555 1_555
O12A C31A 1_555 1_555
O13A Eu1A 1_555 1_555
O14A Eu2A 1_555 1_555
O15A Eu2A 1_555 1_555
O16A Eu2A 1_555 1_555
Br3 Cu4 1_555 1_555
Br4 Cu4 1_555 1_555
C6 N1 1_555 1_555
C10 N2 1_555 1_555
C11 C12 1_555 1_555
C18 N3 1_555 1_555
C22 N4 1_555 1_555
C23 C24 1_555 1_555
C30 N5 1_555 1_555
C34 N6 1_555 1_555
C35 C36 1_555 1_555
Cu2 N2 1_555 1_555
Cu3 N3 1_555 1_555
Cu4 N4 1_555 1_555
Eu1 O10 1_555 1_555
Eu1 O12 1_555 1_555
Eu2 O9 1_555 1_555
Eu2 O11 1_555 1_555
O4 Eu1A 1_555 1_555
Br4A Cu4A_3 1_555 1_555
Br4A_3 Cu4A_2 1_555 1_555
C6A N1A 1_555 1_555
C7A O3A 1_555 1_555
C7A O4A 1_555 1_555
C10A N2A 1_555 1_555
C11A C12A 1_555 1_555
C13A O6A 1_555 1_555
C18A N3A 1_555 1_555
C19A O8A 1_555 1_555
C22A N4A 1_555 1_555
C23A C24A 1_555 1_555
C30A N5A 1_555 1_555
C34A N6A 1_555 1_555
C35A C36A 1_555 1_555
Cu2A N2A 1_555 1_555
Cu3A N3A 1_555 1_555
Eu1A O1A 1_555 1_555
Eu1A O10A 1_555 1_555
Eu1A O12A 1_555 1_555
Eu2A_2 O2A 1_555 1_555
Eu2A_2 O9A 1_555 1_555
Eu2A_2 O11A 1_555 1_555
Eu2_2 O7A 1_555 1_555

#END
