
#######################################################################
#
#                 Cambridge Crystallographic Data Centre
#                                CCDC 
#
#######################################################################
#
# If this CIF has been generated from an entry in the Cambridge 
# Structural Database, then it will include bibliographic, chemical, 
# crystal, experimental, refinement or atomic coordinate data resulting 
# from the CCDC's data processing and validation procedures.
#
#######################################################################

data_WEDXEK
_symmetry_cell_setting           triclinic
_symmetry_space_group_name_H-M   'P -1'
_symmetry_Int_Tables_number      2
_space_group_name_Hall           '-P 1'
loop_
_symmetry_equiv_pos_site_id
_symmetry_equiv_pos_as_xyz
1 x,y,z
2 -x,-y,-z
_cell_length_a                   9.8116(7)
_cell_length_b                   14.7661(10)
_cell_length_c                   20.1753(14)
_cell_angle_alpha                73.2130(10)
_cell_angle_beta                 82.5410(10)
_cell_angle_gamma                77.7480(10)
_cell_volume                     2727.33
loop_
_atom_site_label
_atom_site_type_symbol
_atom_site_fract_x
_atom_site_fract_y
_atom_site_fract_z
Br1 Br 0.66995(7) 0.37214(5) 0.49209(4)
Br2 Br 0.96196(7) 0.50323(4) 0.33781(3)
Br3 Br 1.01693(9) 0.18489(6) 0.43591(5)
Br4 Br 0.78267(8) 0.32493(6) 0.27178(5)
Br5 Br 1.50124(9) 0.57825(7) 0.13585(5)
Br6 Br 1.37655(7) 0.38384(5) 0.05534(4)
C1 C 0.4473(6) 0.7921(4) 0.2284(3)
C2 C 0.4404(6) 0.6910(4) 0.2716(3)
C3 C 0.5626(6) 0.6267(4) 0.2907(3)
H1 H 0.6473 0.6479 0.2772
C4 C 0.4387(7) 0.5074(5) 0.3474(4)
H2 H 0.4373 0.4441 0.3730
C5 C 0.3153(6) 0.5673(4) 0.3316(4)
H3 H 0.2314 0.5456 0.3474
C6 C 0.3150(6) 0.6598(4) 0.2924(3)
H4 H 0.2312 0.7011 0.2798
C7 C 0.9547(6) 0.8159(4) 0.1400(3)
C8 C 0.9735(6) 0.7118(4) 0.1404(3)
C9 C 1.1066(6) 0.6587(4) 0.1374(3)
H5 H 1.1822 0.6887 0.1350
C10 C 1.0213(7) 0.5230(4) 0.1448(4)
H6 H 1.0375 0.4579 0.1470
C11 C 0.8852(7) 0.5703(5) 0.1488(4)
H7 H 0.8113 0.5380 0.1537
C12 C 0.8607(6) 0.6673(4) 0.1454(3)
H8 H 0.7698 0.7020 0.1465
C13 C 0.8484(6) 1.1115(4) 0.1176(3)
C14 C 0.8663(6) 1.2147(4) 0.0896(3)
C15 C 0.9976(7) 1.2381(5) 0.0756(4)
H9 H 1.0778 1.1910 0.0829
C16 C 1.0052(7) 1.3342(5) 0.0501(4)
H10 H 1.0919 1.3527 0.0379
C17 C 0.8865(7) 1.4019(4) 0.0428(4)
H11 H 0.8946 1.4663 0.0262
C18 C 0.7515(6) 1.2874(4) 0.0807(3)
H12 H 0.6635 1.2705 0.0911
C19 C 0.5984(6) 1.0209(4) 0.3126(4)
C20 C 0.5642(6) 1.0708(4) 0.3686(3)
C21 C 0.6577(7) 1.1226(5) 0.3798(4)
H13 H 0.7420 1.1224 0.3527
C22 C 0.5122(8) 1.1724(5) 0.4639(4)
H14 H 0.4938 1.2070 0.4970
C23 C 0.4118(8) 1.1254(6) 0.4570(4)
H15 H 0.3275 1.1286 0.4840
C24 C 0.4389(7) 1.0728(5) 0.4087(4)
H16 H 0.3732 1.0389 0.4032
C25 C 1.3387(6) 0.1077(4) 0.1887(3)
C26 C 1.3230(5) 0.1917(4) 0.2182(3)
C27 C 1.4343(6) 0.2335(4) 0.2214(3)
H17 H 1.5236 0.2098 0.2048
C28 C 1.4121(6) 0.3103(4) 0.2492(4)
H18 H 1.4855 0.3400 0.2512
C29 C 1.2783(7) 0.3424(5) 0.2742(4)
H19 H 1.2633 0.3954 0.2920
C30 C 1.1925(6) 0.2287(4) 0.2449(3)
H20 H 1.1170 0.2013 0.2424
C31 C 1.0841(6) 0.1819(4) 0.6922(3)
C32 C 1.1176(6) 0.2540(4) 0.6260(3)
C33 C 1.0172(6) 0.2969(4) 0.5785(3)
H21 H 0.9297 0.2792 0.5890
C34 C 1.1651(7) 0.3881(5) 0.5057(3)
H22 H 1.1814 0.4347 0.4648
C35 C 1.2721(7) 0.3494(4) 0.5496(4)
H23 H 1.3576 0.3698 0.5387
C36 C 1.2485(6) 0.2793(4) 0.6100(3)
H24 H 1.3197 0.2495 0.6396
Cu1 Cu 0.73999(10) 0.43968(6) 0.34138(6)
Cu2 Cu 0.77255(10) 0.25605(7) 0.42780(6)
Cu3 Cu 0.89987(10) 0.39892(7) 0.44703(5)
Cu4 Cu 0.98478(9) 0.33271(8) 0.32572(6)
Cu5 Cu 1.32627(9) 0.50407(6) 0.11508(6)
Cu6 Cu 0.59103(10) 1.48578(6) 0.05367(6)
N1 N 0.5643(5) 0.5353(3) 0.3277(3)
N2 N 1.1320(5) 0.5657(4) 0.1378(3)
N3 N 0.7580(5) 1.3803(3) 0.0583(3)
N4 N 0.6345(6) 1.1726(4) 0.4268(3)
N5 N 1.1690(5) 0.3017(4) 0.2741(3)
N6 N 1.0388(5) 0.3624(4) 0.5186(3)
O1 O 0.5624(4) 0.8184(3) 0.2219(3)
O2 O 0.3391(4) 0.8419(3) 0.2009(2)
O3 O 1.0576(4) 0.8429(3) 0.1531(3)
O4 O 0.8351(4) 0.8671(3) 0.1277(2)
O5 O 0.7320(4) 1.0924(3) 0.1126(2)
O6 O 0.9464(4) 1.0497(3) 0.1450(2)
O7 O 0.5318(4) 0.9589(3) 0.3096(2)
O8 O 0.6965(4) 1.0457(3) 0.2665(2)
O9 O 1.2305(4) 0.0833(3) 0.1796(2)
O10 O 1.4597(4) 0.0660(3) 0.1749(2)
O11 O 0.9615(4) 0.1645(3) 0.7030(2)
O12 O 1.1784(4) 0.1434(3) 0.7322(2)
O13 O 0.5708(5) 0.9600(4) 0.0811(3)
O14 O 0.2575(5) 0.9298(3) 0.3086(2)
O15 O -0.0209(4) 1.0398(3) 0.2787(2)
O16 O 0.2283(5) 0.9777(3) 0.0807(2)
Tb1 Tb 0.66412(3) 0.952812(18) 0.189853(15)
Tb2 Tb 0.13180(3) 0.948123(18) 0.203583(15)
Br1_2 Br 0.66995(7) 1.37214(5) 0.49209(4)
Br1A Br 1.33005(7) 0.62786(5) 0.50791(4)
Br2A Br 1.03804(7) 0.49677(4) 0.66219(3)
Br2_2 Br -0.03804(7) 1.50323(4) 0.33781(3)
Br3_2 Br 1.01693(9) 1.18489(6) 0.43591(5)
Br3_3 Br 0.01693(9) 1.18489(6) 0.43591(5)
Br4_2 Br -0.21733(8) 1.32493(6) 0.27178(5)
Br4A Br 1.21733(8) 0.67507(6) 0.72822(5)
Br5_2 Br 0.50124(9) 1.57825(7) 0.13585(5)
Br5_3 Br 0.50124(9) 0.57825(7) 0.13585(5)
Br5_4 Br -0.49876(9) 1.57825(7) 0.13585(5)
Br6A Br 0.62345(7) 1.61616(5) -0.05534(4)
Br6_2 Br 0.37655(7) 0.38384(5) 0.05534(4)
Br6A_2 Br -0.37655(7) 1.61616(5) -0.05534(4)
C1_2 C -0.5527(6) 0.7921(4) 0.2284(3)
C2_2 C -0.5596(6) 0.6910(4) 0.2716(3)
C3_2 C -0.4374(6) 0.6267(4) 0.2907(3)
H1_2 H -0.3527 0.6479 0.2772
C4_2 C -0.5613(7) 0.5074(5) 0.3474(4)
H2_2 H -0.5627 0.4441 0.3730
C5_2 C -0.6847(6) 0.5673(4) 0.3316(4)
H3_2 H -0.7686 0.5456 0.3474
C6_2 C -0.6850(6) 0.6598(4) 0.2924(3)
H4_2 H -0.7688 0.7011 0.2798
C7_2 C -0.0453(6) 0.8159(4) 0.1400(3)
C8_2 C -0.0265(6) 0.7118(4) 0.1404(3)
C9_2 C 0.1066(6) 0.6587(4) 0.1374(3)
H5_2 H 0.1822 0.6887 0.1350
C10_2 C 0.0213(7) 0.5230(4) 0.1448(4)
H6_2 H 0.0375 0.4579 0.1470
C11_2 C -0.1148(7) 0.5703(5) 0.1488(4)
H7_2 H -0.1887 0.5380 0.1537
C12_2 C -0.1393(6) 0.6673(4) 0.1454(3)
H8_2 H -0.2302 0.7020 0.1465
C13_2 C -0.1516(6) 1.1115(4) 0.1176(3)
C14_2 C -0.1337(6) 1.2147(4) 0.0896(3)
C15_2 C -0.0024(7) 1.2381(5) 0.0756(4)
H9_2 H 0.0778 1.1910 0.0829
C16_2 C 0.0052(7) 1.3342(5) 0.0501(4)
H10_2 H 0.0919 1.3527 0.0379
C17_2 C -0.1135(7) 1.4019(4) 0.0428(4)
H11_2 H -0.1054 1.4663 0.0262
C18_2 C -0.2485(6) 1.2874(4) 0.0807(3)
H12_2 H -0.3365 1.2705 0.0911
C19_2 C 0.5984(6) 0.0209(4) 0.3126(4)
C20_2 C 0.5642(6) 0.0708(4) 0.3686(3)
C21_2 C 0.6577(7) 0.1226(5) 0.3798(4)
H13_2 H 0.7420 0.1224 0.3527
C22_2 C 0.5122(8) 0.1724(5) 0.4639(4)
H14_2 H 0.4938 0.2070 0.4970
C23_2 C 0.4118(8) 0.1254(6) 0.4570(4)
H15_2 H 0.3275 0.1286 0.4840
C24_2 C 0.4389(7) 0.0728(5) 0.4087(4)
H16_2 H 0.3732 0.0389 0.4032
C25_2 C 0.3387(6) 1.1077(4) 0.1887(3)
C26_2 C 0.3230(5) 1.1917(4) 0.2182(3)
C27_2 C 0.4343(6) 1.2335(4) 0.2214(3)
H17_2 H 0.5236 1.2098 0.2048
C28_2 C 0.4121(6) 1.3103(4) 0.2492(4)
H18_2 H 0.4855 1.3400 0.2512
C29_2 C 0.2783(7) 1.3424(5) 0.2742(4)
H19_2 H 0.2633 1.3954 0.2920
C30_2 C 0.1925(6) 1.2287(4) 0.2449(3)
H20_2 H 0.1170 1.2013 0.2424
C31A C 0.9159(6) 0.8181(4) 0.3078(3)
C32A C 0.8824(6) 0.7460(4) 0.3740(3)
C33A C 0.9828(6) 0.7031(4) 0.4215(3)
H21A H 1.0703 0.7208 0.4110
C34A C 0.8349(7) 0.6119(5) 0.4943(3)
H22A H 0.8186 0.5653 0.5352
C35A C 0.7279(7) 0.6506(4) 0.4504(4)
H23A H 0.6424 0.6302 0.4613
C36A C 0.7515(6) 0.7207(4) 0.3900(3)
H24A H 0.6803 0.7505 0.3604
Cu1A Cu 1.26001(10) 0.56032(6) 0.65862(6)
Cu1_2 Cu -0.26001(10) 1.43968(6) 0.34138(6)
Cu1_3 Cu -0.26001(10) 0.43968(6) 0.34138(6)
Cu2_2 Cu 0.77255(10) 1.25605(7) 0.42780(6)
Cu3A Cu 1.10013(10) 0.60108(7) 0.55297(5)
Cu3_2 Cu 0.89987(10) 1.39892(7) 0.44703(5)
Cu4_2 Cu -0.01522(9) 1.33271(8) 0.32572(6)
Cu4_3 Cu 0.98478(9) 1.33271(8) 0.32572(6)
Cu4A Cu 1.01522(9) 0.66729(8) 0.67428(6)
Cu5_2 Cu 0.32627(9) 0.50407(6) 0.11508(6)
Cu5_3 Cu 0.32627(9) 1.50407(6) 0.11508(6)
Cu5A Cu 0.67373(9) 1.49593(6) -0.11508(6)
Cu6_2 Cu -0.40897(10) 1.48578(6) 0.05367(6)
Cu6_3 Cu 1.59103(10) 0.48578(6) 0.05367(6)
Cu6A Cu 1.40897(10) 0.51422(6) -0.05367(6)
N1_2 N -0.4357(5) 0.5353(3) 0.3277(3)
N1A N 1.4357(5) 0.4647(3) 0.6723(3)
N2_2 N 0.1320(5) 0.5657(4) 0.1378(3)
N3_2 N -0.2420(5) 1.3803(3) 0.0583(3)
N4_2 N 0.6345(6) 0.1726(4) 0.4268(3)
N5_2 N 0.1690(5) 1.3017(4) 0.2741(3)
N6A N 0.9612(5) 0.6376(4) 0.4814(3)
O1_2 O -0.4376(4) 0.8184(3) 0.2219(3)
O2_2 O -0.6609(4) 0.8419(3) 0.2009(2)
O2_3 O 1.3391(4) 0.8419(3) 0.2009(2)
O3_2 O 0.0576(4) 0.8429(3) 0.1531(3)
O4_2 O -0.1649(4) 0.8671(3) 0.1277(2)
O5_2 O -0.2680(4) 1.0924(3) 0.1126(2)
O6_2 O -0.0536(4) 1.0497(3) 0.1450(2)
O7_2 O 0.5318(4) -0.0411(3) 0.3096(2)
O7_3 O -0.4682(4) 0.9589(3) 0.3096(2)
O8_2 O 0.6965(4) 0.0457(3) 0.2665(2)
O8_3 O -0.3035(4) 1.0457(3) 0.2665(2)
O9_2 O 0.2305(4) 1.0833(3) 0.1796(2)
O9_3 O 1.2305(4) 1.0833(3) 0.1796(2)
O10_2 O 0.4597(4) 1.0660(3) 0.1749(2)
O10_3 O -0.5403(4) 1.0660(3) 0.1749(2)
O11A O 1.0385(4) 0.8355(3) 0.2970(2)
O11A_2 O 0.0385(4) 0.8355(3) 0.2970(2)
O12A O 0.8216(4) 0.8566(3) 0.2678(2)
O12A_2 O -0.1784(4) 0.8566(3) 0.2678(2)
O13_2 O -0.4292(5) 0.9600(4) 0.0811(3)
O14_2 O 1.2575(5) 0.9298(3) 0.3086(2)
O15_2 O 0.9791(4) 1.0398(3) 0.2787(2)
O16_2 O 1.2283(5) 0.9777(3) 0.0807(2)
Tb1_2 Tb -0.33588(3) 0.952812(18) 0.189853(15)
Tb1_3 Tb 1.66412(3) -0.047188(18) 0.189853(15)
Tb1A Tb 1.33588(3) 0.047188(18) 0.810147(15)
Tb1_4 Tb 0.66412(3) -0.047188(18) 0.189853(15)
Tb2_2 Tb 1.13180(3) 0.948123(18) 0.203583(15)
Tb2_3 Tb 1.13180(3) -0.051877(18) 0.203583(15)
Tb2A Tb 0.86820(3) 0.051877(18) 0.796417(15)
Tb2_4 Tb -0.86820(3) 0.948123(18) 0.203583(15)
O17 O 0.0692(8) 0.9677(5) 0.4151(3)
O18 O 0.0000 0.0000 0.0000
O19 O 0.3960(10) 0.8255(6) 0.0249(4)
O20 O 0.6690(11) 0.8430(6) 0.9947(5)
loop_
_geom_bond_atom_site_label_1
_geom_bond_atom_site_label_2
_geom_bond_site_symmetry_1
_geom_bond_site_symmetry_2
Br1 Cu2 1_555 1_555
Br2 Cu1 1_555 1_555
Br3 Cu2 1_555 1_555
Br4 Cu1 1_555 1_555
Br5 Cu5 1_555 1_555
Br6 Cu5 1_555 1_555
C1 C2 1_555 1_555
C2 C3 1_555 1_555
C3 H1 1_555 1_555
C4 H2 1_555 1_555
C5 C4 1_555 1_555
H3 C5 1_555 1_555
C6 C2 1_555 1_555
H4 C6 1_555 1_555
C7 C8 1_555 1_555
C8 C9 1_555 1_555
C9 H5 1_555 1_555
C10 H6 1_555 1_555
C11 C10 1_555 1_555
H7 C11 1_555 1_555
C12 C8 1_555 1_555
H8 C12 1_555 1_555
C13 C14 1_555 1_555
C14 C15 1_555 1_555
C15 H9 1_555 1_555
C16 C15 1_555 1_555
H10 C16 1_555 1_555
C17 C16 1_555 1_555
H11 C17 1_555 1_555
C18 C14 1_555 1_555
H12 C18 1_555 1_555
C19 C20 1_555 1_555
C20 C21 1_555 1_555
C21 H13 1_555 1_555
C22 H14 1_555 1_555
C23 C22 1_555 1_555
H15 C23 1_555 1_555
C24 C20 1_555 1_555
H16 C24 1_555 1_555
C25 C26 1_555 1_555
C26 C27 1_555 1_555
C27 H17 1_555 1_555
C28 C27 1_555 1_555
H18 C28 1_555 1_555
C29 C28 1_555 1_555
H19 C29 1_555 1_555
C30 C26 1_555 1_555
H20 C30 1_555 1_555
C31 C32 1_555 1_555
C32 C33 1_555 1_555
C33 H21 1_555 1_555
C34 H22 1_555 1_555
C35 C34 1_555 1_555
H23 C35 1_555 1_555
C36 C32 1_555 1_555
H24 C36 1_555 1_555
Cu1 N1 1_555 1_555
Cu2 N4_2 1_555 1_555
Cu3 Br1 1_555 1_555
Cu4 Br2 1_555 1_555
Cu5 N2 1_555 1_555
Cu6 N3 1_555 1_555
N1 C3 1_555 1_555
N2 C9 1_555 1_555
N3 C17 1_555 1_555
N4 C21 1_555 1_555
N5 C29 1_555 1_555
N6 C33 1_555 1_555
O1 C1 1_555 1_555
O2 C1 1_555 1_555
O3 C7 1_555 1_555
O4 C7 1_555 1_555
O5 C13 1_555 1_555
O6 C13 1_555 1_555
O7 C19 1_555 1_555
O8 C19 1_555 1_555
O9 C25 1_555 1_555
O10 C25 1_555 1_555
O11 C31 1_555 1_555
O12 C31 1_555 1_555
O13 Tb1 1_555 1_555
O14 Tb2 1_555 1_555
O15 Tb2 1_555 1_555
O16 Tb2 1_555 1_555
Tb1 O1 1_555 1_555
Tb2 O2 1_555 1_555
Br1_2 Cu2_2 1_555 1_555
Br1A Cu3A 1_555 1_555
Br2A Cu1A 1_555 1_555
Br2_2 Cu1_2 1_555 1_555
Br3_2 Cu2_2 1_555 1_555
Br3_3 Cu4_2 1_555 1_555
Br4_2 Cu1_2 1_555 1_555
Br4A Cu1A 1_555 1_555
Br5_2 Cu6 1_555 1_555
Br5_3 Cu5_2 1_555 1_555
Br5_4 Cu6_2 1_555 1_555
Br6A Cu6 1_555 1_555
Br6_2 Cu5_2 1_555 1_555
Br6A_2 Cu6_2 1_555 1_555
C1_2 C2_2 1_555 1_555
C2_2 C3_2 1_555 1_555
C3_2 H1_2 1_555 1_555
C4_2 H2_2 1_555 1_555
C5_2 C4_2 1_555 1_555
H3_2 C5_2 1_555 1_555
C6_2 C2_2 1_555 1_555
H4_2 C6_2 1_555 1_555
C7_2 C8_2 1_555 1_555
C8_2 C9_2 1_555 1_555
C9_2 H5_2 1_555 1_555
C10_2 H6_2 1_555 1_555
C11_2 C10_2 1_555 1_555
H7_2 C11_2 1_555 1_555
C12_2 C8_2 1_555 1_555
H8_2 C12_2 1_555 1_555
C13_2 C14_2 1_555 1_555
C14_2 C15_2 1_555 1_555
C15_2 H9_2 1_555 1_555
C16_2 C15_2 1_555 1_555
H10_2 C16_2 1_555 1_555
C17_2 C16_2 1_555 1_555
H11_2 C17_2 1_555 1_555
C18_2 C14_2 1_555 1_555
H12_2 C18_2 1_555 1_555
C19_2 C20_2 1_555 1_555
C20_2 C21_2 1_555 1_555
C21_2 H13_2 1_555 1_555
C22_2 H14_2 1_555 1_555
C23_2 C22_2 1_555 1_555
H15_2 C23_2 1_555 1_555
C24_2 C20_2 1_555 1_555
H16_2 C24_2 1_555 1_555
C25_2 C26_2 1_555 1_555
C26_2 C27_2 1_555 1_555
C27_2 H17_2 1_555 1_555
C28_2 C27_2 1_555 1_555
H18_2 C28_2 1_555 1_555
C29_2 C28_2 1_555 1_555
H19_2 C29_2 1_555 1_555
C30_2 C26_2 1_555 1_555
H20_2 C30_2 1_555 1_555
C31A C32A 1_555 1_555
C32A C33A 1_555 1_555
C33A H21A 1_555 1_555
C34A H22A 1_555 1_555
C35A C34A 1_555 1_555
H23A C35A 1_555 1_555
C36A C32A 1_555 1_555
H24A C36A 1_555 1_555
Cu1A N1A 1_555 1_555
Cu1_3 N1_2 1_555 1_555
Cu2_2 N4 1_555 1_555
Cu3A Br2A 1_555 1_555
Cu3_2 Br1_2 1_555 1_555
Cu4_2 Br2_2 1_555 1_555
Cu4_3 Br3_2 1_555 1_555
Cu4A Br2A 1_555 1_555
Cu5_2 N2_2 1_555 1_555
Cu5_3 Br5_2 1_555 1_555
Cu5A Br6A 1_555 1_555
Cu6_2 N3_2 1_555 1_555
Cu6_3 Br5 1_555 1_555
Cu6A Br6 1_555 1_555
N1_2 C3_2 1_555 1_555
N2_2 C9_2 1_555 1_555
N3_2 C17_2 1_555 1_555
N4_2 C21_2 1_555 1_555
N5_2 C29_2 1_555 1_555
N6A C33A 1_555 1_555
O1_2 C1_2 1_555 1_555
O2_2 C1_2 1_555 1_555
O2_3 Tb2_2 1_555 1_555
O3_2 Tb2 1_555 1_555
O4_2 C7_2 1_555 1_555
O5_2 C13_2 1_555 1_555
O6_2 Tb2 1_555 1_555
O7_2 C19_2 1_555 1_555
O7_3 Tb1_2 1_555 1_555
O8_2 C19_2 1_555 1_555
O8_3 Tb1_2 1_555 1_555
O9_2 Tb2 1_555 1_555
O9_3 Tb2_2 1_555 1_555
O10_2 Tb1 1_555 1_555
O10_3 Tb1_2 1_555 1_555
O11A C31A 1_555 1_555
O11A_2 Tb2 1_555 1_555
O12A Tb1 1_555 1_555
O12A_2 Tb1_2 1_555 1_555
O13_2 Tb1_2 1_555 1_555
O14_2 Tb2_2 1_555 1_555
O15_2 Tb2_2 1_555 1_555
O16_2 Tb2_2 1_555 1_555
Tb1_2 O1_2 1_555 1_555
Tb1_3 O10 1_555 1_555
Tb1A O12 1_555 1_555
Tb1_4 O7_2 1_555 1_555
Tb2_2 O3 1_555 1_555
Tb2_3 O9 1_555 1_555
Tb2A O11 1_555 1_555
Tb2_4 O2_2 1_555 1_555
Br2 Cu3 1_555 1_555
Br3 Cu4 1_555 1_555
Br4 Cu4 1_555 1_555
C4 N1 1_555 1_555
C5 C6 1_555 1_555
C10 N2 1_555 1_555
C11 C12 1_555 1_555
C18 N3 1_555 1_555
C22 N4 1_555 1_555
C23 C24 1_555 1_555
C30 N5 1_555 1_555
C34 N6 1_555 1_555
C35 C36 1_555 1_555
Cu3 N6 1_555 1_555
Cu4 N5 1_555 1_555
O4 Tb1 1_555 1_555
O5 Tb1 1_555 1_555
O6 Tb2_2 1_555 1_555
O7 Tb1 1_555 1_555
O8 Tb1 1_555 1_555
Br4_2 Cu4_2 1_555 1_555
Br4A Cu4A 1_555 1_555
C4_2 N1_2 1_555 1_555
C5_2 C6_2 1_555 1_555
C7_2 O3_2 1_555 1_555
C10_2 N2_2 1_555 1_555
C11_2 C12_2 1_555 1_555
C13_2 O6_2 1_555 1_555
C18_2 N3_2 1_555 1_555
C22_2 N4_2 1_555 1_555
C23_2 C24_2 1_555 1_555
C25_2 O9_2 1_555 1_555
C25_2 O10_2 1_555 1_555
C30_2 N5_2 1_555 1_555
C31A O12A 1_555 1_555
C34A N6A 1_555 1_555
C35A C36A 1_555 1_555
Cu3A N6A 1_555 1_555
Cu4_2 N5_2 1_555 1_555
O4_2 Tb1_2 1_555 1_555
O5_2 Tb1_2 1_555 1_555
O8_2 Tb1_4 1_555 1_555
O11A Tb2_2 1_555 1_555

#END
