
#######################################################################
#
#                 Cambridge Crystallographic Data Centre
#                                CCDC 
#
#######################################################################
#
# If this CIF has been generated from an entry in the Cambridge 
# Structural Database, then it will include bibliographic, chemical, 
# crystal, experimental, refinement or atomic coordinate data resulting 
# from the CCDC's data processing and validation procedures.
#
#######################################################################

data_WEDXOU
_symmetry_cell_setting           orthorhombic
_symmetry_space_group_name_H-M   'P b c n'
_symmetry_Int_Tables_number      60
_space_group_name_Hall           '-P 2n 2ab'
loop_
_symmetry_equiv_pos_site_id
_symmetry_equiv_pos_as_xyz
1 x,y,z
2 1/2-x,1/2-y,1/2+z
3 -x,y,1/2-z
4 1/2+x,1/2-y,-z
5 -x,-y,-z
6 1/2+x,1/2+y,1/2-z
7 x,-y,1/2+z
8 1/2-x,1/2+y,z
_cell_length_a                   9.8237(17)
_cell_length_b                   32.797(6)
_cell_length_c                   12.751(2)
_cell_angle_alpha                90
_cell_angle_beta                 90
_cell_angle_gamma                90
_cell_volume                     4108.22
loop_
_atom_site_label
_atom_site_type_symbol
_atom_site_fract_x
_atom_site_fract_y
_atom_site_fract_z
Br1 Br -0.1184(3) 0.27905(7) 0.11200(19)
Br2 Br 0.1700(3) 0.19688(8) 0.1325(2)
C1 C -0.343(2) 0.1779(6) 0.0996(18)
H1 H -0.3603 0.2051 0.0838
C2 C -0.450(2) 0.1510(7) 0.103(2)
H2 H -0.5382 0.1600 0.0878
C3 C -0.4277(18) 0.1110(6) 0.1273(17)
H3 H -0.4993 0.0925 0.1301
C4 C -0.2962(17) 0.0988(5) 0.1479(13)
C5 C -0.1935(18) 0.1273(5) 0.1428(15)
H4 H -0.1051 0.1188 0.1569
C6 C -0.2624(17) 0.0564(6) 0.1810(12)
C7 C 0.0608(15) -0.0151(5) 0.5010(11)
C8 C -0.117(2) -0.1982(6) 0.3773(15)
H5 H -0.0897 -0.2251 0.3868
C9 C -0.0238(19) -0.1666(6) 0.3895(16)
H6 H 0.0648 -0.1723 0.4107
C10 C -0.0620(19) -0.1271(6) 0.3704(14)
H7 H 0.0017 -0.1062 0.3753
C11 C -0.1941(17) -0.1184(5) 0.3443(12)
C12 C -0.2853(18) -0.1513(6) 0.3351(14)
H8 H -0.3754 -0.1461 0.3168
C13 C -0.2425(17) -0.0768(6) 0.3150(12)
Cu1 Cu -0.0695(4) 0.20736(10) 0.1494(3)
Cu2 Cu -0.3820(4) -0.23384(10) 0.3142(3)
Er1 Er -0.5000 -0.01776(3) 0.2500
Er2 Er 0.0000 -0.00308(3) 0.2500
N1 N -0.2135(17) 0.1662(5) 0.1190(13)
N2 N -0.2454(18) -0.1900(5) 0.3521(15)
O1 O -0.1404(12) 0.0486(4) 0.2015(11)
O2 O -0.3574(13) 0.0310(4) 0.1887(12)
O3 O 0.1054(11) -0.0265(4) 0.4143(9)
O4 O 0.1074(11) -0.0238(4) 0.5903(9)
O5 O -0.1544(12) -0.0505(4) 0.2974(10)
O6 O -0.3685(12) -0.0703(4) 0.3110(10)
O7 O -0.6124(13) 0.0101(5) 0.0996(12)
O8 O -0.3819(12) -0.0460(4) 0.1001(10)
Br1E Br -0.6184(3) -0.22095(7) 0.38800(19)
Br1G Br -0.3816(3) -0.22095(7) 0.11200(19)
Br1B Br -0.8816(3) 0.27905(7) 0.38800(19)
Br2E Br -0.3300(3) -0.30312(8) 0.3675(2)
Br2B Br -1.1700(3) 0.19688(8) 0.3675(2)
Br2G Br -0.6700(3) -0.30312(8) 0.1325(2)
C1B C -0.657(2) 0.1779(6) 0.4004(18)
H1B H -0.6397 0.2051 0.4162
C2B C -0.550(2) 0.1510(7) 0.397(2)
H2B H -0.4618 0.1600 0.4122
C3B C -0.5723(18) 0.1110(6) 0.3727(17)
H3B H -0.5007 0.0925 0.3699
C4B C -0.7038(17) 0.0988(5) 0.3521(13)
C5B C -0.8065(18) 0.1273(5) 0.3572(15)
H4B H -0.8949 0.1188 0.3431
C6B C -0.7376(17) 0.0564(6) 0.3190(12)
C7D C -0.0608(15) 0.0151(5) 0.4990(11)
C8B C -0.883(2) -0.1982(6) 0.1227(15)
H5B H -0.9103 -0.2251 0.1132
C9B C -0.9762(19) -0.1666(6) 0.1105(16)
H6B H -1.0648 -0.1723 0.0893
C10B C -0.9380(19) -0.1271(6) 0.1296(14)
H7B H -1.0017 -0.1062 0.1247
C11B C -0.8059(17) -0.1184(5) 0.1557(12)
C12B C -0.7147(18) -0.1513(6) 0.1649(14)
H8B H -0.6246 -0.1461 0.1832
C13B C -0.7575(17) -0.0768(6) 0.1850(12)
Cu1B Cu -0.9305(4) 0.20736(10) 0.3506(3)
Cu1E Cu -0.5695(4) -0.29264(10) 0.3506(3)
Cu2B Cu -0.6180(4) -0.23384(10) 0.1858(3)
Cu2E Cu 0.1180(4) 0.26616(10) 0.1858(3)
Cu2G Cu -0.1180(4) 0.26616(10) 0.3142(3)
Er2D Er 0.0000 0.00308(3) 0.7500
Er2_2 Er -1.0000 -0.00308(3) 0.2500
N1B N -0.7865(17) 0.1662(5) 0.3810(13)
N2B N -0.7546(18) -0.1900(5) 0.1479(15)
O1B O -0.8596(12) 0.0486(4) 0.2985(11)
O1B_2 O 0.1404(12) 0.0486(4) 0.2985(11)
O2B O -0.6426(13) 0.0310(4) 0.3113(12)
O3D O -0.1054(11) 0.0265(4) 0.5857(9)
O3B O -0.1054(11) -0.0265(4) 0.0857(9)
O4D O -0.1074(11) 0.0238(4) 0.4097(9)
O4F O 0.1074(11) 0.0238(4) 0.0903(9)
O5B O -0.8456(12) -0.0505(4) 0.2026(10)
O5B_2 O 0.1544(12) -0.0505(4) 0.2026(10)
O6B O -0.6315(12) -0.0703(4) 0.1890(10)
O7B O -0.3876(13) 0.0101(5) 0.4004(12)
O8B O -0.6181(12) -0.0460(4) 0.3999(10)
O9 O 0.694(3) 0.8775(6) 0.077(2)
O10 O 0.794(5) 0.8951(9) 0.918(3)
loop_
_geom_bond_atom_site_label_1
_geom_bond_atom_site_label_2
_geom_bond_site_symmetry_1
_geom_bond_site_symmetry_2
Br1 Cu1 1_555 1_555
Br2 Cu1 1_555 1_555
C1 H1 1_555 1_555
C2 C1 1_555 1_555
H2 C2 1_555 1_555
C3 C2 1_555 1_555
H3 C3 1_555 1_555
C4 C3 1_555 1_555
C5 C4 1_555 1_555
H4 C5 1_555 1_555
C6 C4 1_555 1_555
C7 O3 1_555 1_555
C8 H5 1_555 1_555
C9 C8 1_555 1_555
H6 C9 1_555 1_555
C10 C9 1_555 1_555
H7 C10 1_555 1_555
C11 C10 1_555 1_555
C12 C11 1_555 1_555
H8 C12 1_555 1_555
C13 C11 1_555 1_555
Cu1 N1 1_555 1_555
Cu2 N2 1_555 1_555
Er1 O2 1_555 1_555
Er2 O1 1_555 1_555
N1 C1 1_555 1_555
N2 C8 1_555 1_555
O1 C6 1_555 1_555
O2 C6 1_555 1_555
O3 Er2 1_555 1_555
O4 C7 1_555 1_555
O5 C13 1_555 1_555
O6 C13 1_555 1_555
O7 Er1 1_555 1_555
O8 Er1 1_555 1_555
Br1E Cu2 1_555 1_555
Br1G Cu2 1_555 1_555
Br1B Cu1B 1_555 1_555
Br2E Cu2 1_555 1_555
Br2B Cu1B 1_555 1_555
Br2G Cu2B 1_555 1_555
C1B H1B 1_555 1_555
C2B C1B 1_555 1_555
H2B C2B 1_555 1_555
C3B C2B 1_555 1_555
H3B C3B 1_555 1_555
C4B C3B 1_555 1_555
C5B C4B 1_555 1_555
H4B C5B 1_555 1_555
C6B C4B 1_555 1_555
C7D C7 1_555 1_555
C8B H5B 1_555 1_555
C9B C8B 1_555 1_555
H6B C9B 1_555 1_555
C10B C9B 1_555 1_555
H7B C10B 1_555 1_555
C11B C10B 1_555 1_555
C12B C11B 1_555 1_555
H8B C12B 1_555 1_555
C13B C11B 1_555 1_555
Cu1B N1B 1_555 1_555
Cu1E Br1E 1_555 1_555
Cu2B Br1E 1_555 1_555
Cu2E Br1 1_555 1_555
Cu2G Br1 1_555 1_555
Er2D O4 1_555 1_555
Er2_2 O1B 1_555 1_555
N1B C1B 1_555 1_555
N2B C8B 1_555 1_555
O1B C6B 1_555 1_555
O1B_2 Er2 1_555 1_555
O2B Er1 1_555 1_555
O3D C7D 1_555 1_555
O3B Er2 1_555 1_555
O4D Er2 1_555 1_555
O4F Er2 1_555 1_555
O5B C13B 1_555 1_555
O5B_2 Er2 1_555 1_555
O6B Er1 1_555 1_555
O7B Er1 1_555 1_555
O8B Er1 1_555 1_555
Br2 Cu2E 1_555 1_555
C5 N1 1_555 1_555
C12 N2 1_555 1_555
Er1 O6 1_555 1_555
Er2 O5 1_555 1_555
Br1G Cu2B 1_555 1_555
Br2E Cu1E 1_555 1_555
C5B N1B 1_555 1_555
C6B O2B 1_555 1_555
C7D O4D 1_555 1_555
C12B N2B 1_555 1_555
C13B O6B 1_555 1_555
Cu2B N2B 1_555 1_555
Er2D O3D 1_555 1_555
Er2_2 O5B 1_555 1_555

#END
