
#######################################################################
#
#                 Cambridge Crystallographic Data Centre
#                                CCDC 
#
#######################################################################
#
# If this CIF has been generated from an entry in the Cambridge 
# Structural Database, then it will include bibliographic, chemical, 
# crystal, experimental, refinement or atomic coordinate data resulting 
# from the CCDC's data processing and validation procedures.
#
#######################################################################

data_WEDYAH
_symmetry_cell_setting           monoclinic
_symmetry_space_group_name_H-M   'P 2/n'
_symmetry_Int_Tables_number      13
_space_group_name_Hall           '-P 2yac'
loop_
_symmetry_equiv_pos_site_id
_symmetry_equiv_pos_as_xyz
1 x,y,z
2 1/2-x,y,1/2-z
3 -x,-y,-z
4 1/2+x,-y,1/2+z
_cell_length_a                   16.4842(17)
_cell_length_b                   9.8497(10)
_cell_length_c                   17.4990(18)
_cell_angle_alpha                90
_cell_angle_beta                 100.952(2)
_cell_angle_gamma                90
_cell_volume                     2789.47
loop_
_atom_site_label
_atom_site_type_symbol
_atom_site_fract_x
_atom_site_fract_y
_atom_site_fract_z
Cu1 Cu 0.60180(11) 0.34304(16) 1.15691(12)
Cu2 Cu 0.39341(14) 0.88995(19) 0.92071(12)
Cu3 Cu 0.78356(13) 0.2547(3) 1.10608(18)
Br1 Br 0.53716(8) 0.13312(13) 1.18745(8)
Br2 Br 0.64483(8) 0.31739(13) 1.02366(8)
Br3 Br 0.7500 0.3318(2) 1.2500
Br4 Br 0.7820(2) 0.0132(3) 1.13945(19)
Cu4 Cu 0.6894(5) 0.1052(6) 1.2453(5)
Cu5 Cu 0.6695(8) 0.0872(13) 1.2935(7)
Br5 Br 0.7599(14) -0.0699(17) 1.2772(10)
Br6 Br 0.8541(5) 0.0611(7) 1.0801(4)
C1 C 0.4297(9) 1.1709(14) 0.9572(8)
H1 H 0.4664 1.1612 0.9217
C2 C 0.3513(7) 1.0764(10) 1.0346(6)
H2 H 0.3287 0.9979 1.0541
C3 C 0.4140(9) 1.2985(13) 0.9814(8)
H3 H 0.4363 1.3758 0.9603
C4 C 0.3665(7) 1.3134(9) 1.0354(6)
H4 H 0.3549 1.4012 1.0530
C5 C 0.3352(6) 1.2010(9) 1.0646(6)
C6 C 0.2876(6) 1.2099(10) 1.1289(6)
C7 C 0.3693(6) 0.7093(10) 1.2043(6)
C8 C 0.4584(6) 0.6770(9) 1.2082(6)
C9 C 0.5186(8) 0.7716(11) 1.2391(8)
H5 H 0.5034 0.8580 1.2560
C10 C 0.6004(9) 0.7374(15) 1.2448(9)
H6 H 0.6430 0.7998 1.2653
C11 C 0.6190(8) 0.6122(14) 1.2202(9)
H7 H 0.6756 0.5886 1.2253
C12 C 0.4855(6) 0.5549(9) 1.1857(6)
H8 H 0.4449 0.4892 1.1656
C13 C 0.4070(7) 1.4648(11) 1.3424(6)
C14 C 0.4950(7) 1.4818(12) 1.3813(7)
C15 C 0.5224(8) 1.5958(15) 1.4231(8)
H9 H 0.4840 1.6655 1.4284
C16 C 0.6050(9) 1.6123(17) 1.4579(9)
H10 H 0.6258 1.6911 1.4863
C17 C 0.6540(10) 1.5020(19) 1.4470(10)
H11 H 0.7105 1.5085 1.4712
C18 C 0.5526(7) 1.3834(12) 1.3743(7)
H12 H 0.5355 1.3047 1.3441
Er1 Er 0.2500 0.95830(6) 1.2500
Er2 Er 0.2500 1.45990(5) 1.2500
N1 N 0.3959(6) 1.0597(9) 0.9809(6)
N2 N 0.5632(5) 0.5210(8) 1.1896(5)
N3 N 0.6337(7) 1.3961(13) 1.4097(7)
O1 O 0.2739(5) 1.3216(7) 1.1545(5)
O2 O 0.2635(6) 1.0979(9) 1.1531(5)
O3 O 0.3517(5) 0.8323(7) 1.2141(5)
O4 O 0.3186(4) 0.6161(7) 1.1915(4)
O5 O 0.3876(4) 1.3653(7) 1.2974(4)
O6 O 0.3551(5) 1.5540(7) 1.3529(4)
O7 O 0.3170(6) 0.8392(8) 1.3669(5)
O8 O 0.3831(5) 1.0803(7) 1.2924(5)
Cu1A Cu -0.10180(11) 0.34304(16) 1.34309(12)
Cu1A_2 Cu 0.89820(11) 0.34304(16) 1.34309(12)
Cu1B Cu 0.39820(11) 0.65696(16) 0.84309(12)
Cu2A Cu 0.10659(14) 0.88995(19) 1.57929(12)
Cu2B Cu 0.60659(14) 0.11005(19) 1.07929(12)
Cu3B Cu 0.21644(13) 0.7453(3) 0.89392(18)
Cu3A Cu 0.71644(13) 0.2547(3) 1.39392(18)
Cu3A_2 Cu 0.71644(13) 1.2547(3) 1.39392(18)
Cu3_2 Cu -0.21644(13) 1.2547(3) 1.10608(18)
Cu3C Cu 0.28356(13) 0.7453(3) 0.60608(18)
Br1B Br 0.46284(8) 0.86688(13) 0.81255(8)
Br1A Br -0.03716(8) 0.13312(13) 1.31255(8)
Br1C Br 0.03716(8) 0.86688(13) 1.68745(8)
Br2B Br 0.35517(8) 0.68261(13) 0.97634(8)
Br2A Br -0.14483(8) 0.31739(13) 1.47634(8)
Br2C Br 0.14483(8) 0.68261(13) 1.52366(8)
Br3_2 Br -0.2500 0.3318(2) 1.2500
Br3B Br 0.2500 0.6682(2) 0.7500
Br4A Br 0.7180(2) 0.0132(3) 1.36055(19)
Br4B Br 0.2180(2) 0.9868(3) 0.86055(19)
Br4C Br 0.2820(2) 0.9868(3) 0.63945(19)
Cu4B Cu 0.3106(5) 0.8948(6) 0.7547(5)
Cu4A Cu 0.8106(5) 0.1052(6) 1.2547(5)
Cu4C Cu 0.1894(5) 0.8948(6) 0.7453(5)
Cu5B Cu 0.3305(8) 0.9128(13) 0.7065(7)
Cu5A Cu 0.8305(8) 0.0872(13) 1.2065(7)
Cu5C Cu 0.1695(8) 0.9128(13) 0.7935(7)
Br5A Br 0.7401(14) -0.0699(17) 1.2228(10)
Br5C Br 0.2599(14) 1.0699(17) 0.7772(10)
Br5B Br 0.2401(14) 1.0699(17) 0.7228(10)
Br6A Br 0.6459(5) 0.0611(7) 1.4199(4)
Br6B Br 0.1459(5) 0.9389(7) 0.9199(4)
Br6C Br 0.3541(5) 0.9389(7) 0.5801(4)
C1A C 0.0703(9) 1.1709(14) 1.5428(8)
H1A H 0.0336 1.1612 1.5783
C2A C 0.1487(7) 1.0764(10) 1.4654(6)
H2A H 0.1713 0.9979 1.4459
C3A C 0.0860(9) 1.2985(13) 1.5186(8)
H3A H 0.0637 1.3758 1.5397
C4A C 0.1335(7) 1.3134(9) 1.4646(6)
H4A H 0.1451 1.4012 1.4470
C5A C 0.1648(6) 1.2010(9) 1.4354(6)
C6A C 0.2124(6) 1.2099(10) 1.3711(6)
C7A C 0.1307(6) 0.7093(10) 1.2957(6)
C8A C 0.0416(6) 0.6770(9) 1.2918(6)
C9A C -0.0186(8) 0.7716(11) 1.2609(8)
H5A H -0.0034 0.8580 1.2440
C10A C -0.1004(9) 0.7374(15) 1.2552(9)
H6A H -0.1430 0.7998 1.2347
C11A C -0.1190(8) 0.6122(14) 1.2798(9)
H7A H -0.1756 0.5886 1.2747
C12A C 0.0145(6) 0.5549(9) 1.3143(6)
H8A H 0.0551 0.4892 1.3344
C13A C 0.0930(7) 1.4648(11) 1.1576(6)
C14A C 0.0050(7) 1.4818(12) 1.1187(7)
C15A C -0.0224(8) 1.5958(15) 1.0769(8)
H9A H 0.0160 1.6655 1.0716
C16A C -0.1050(9) 1.6123(17) 1.0421(9)
H10A H -0.1258 1.6911 1.0137
C17A C -0.1540(10) 1.5020(19) 1.0530(10)
H11A H -0.2105 1.5085 1.0288
C18A C -0.0526(7) 1.3834(12) 1.1257(7)
H12A H -0.0355 1.3047 1.1559
Er2_2 Er 0.2500 0.45990(5) 1.2500
N1A N 0.1041(6) 1.0597(9) 1.5191(6)
N2A N -0.0632(5) 0.5210(8) 1.3104(5)
N3A N -0.1337(7) 1.3961(13) 1.0903(7)
N3A_2 N 0.8663(7) 0.3961(13) 1.0903(7)
N3C N 0.1337(7) 0.6039(13) 0.9097(7)
O1A O 0.2261(5) 1.3216(7) 1.3455(5)
O2A O 0.2365(6) 1.0979(9) 1.3469(5)
O3A O 0.1483(5) 0.8323(7) 1.2859(5)
O4A O 0.1814(4) 0.6161(7) 1.3085(4)
O4_2 O 0.3186(4) 1.6161(7) 1.1915(4)
O4A_2 O 0.1814(4) 1.6161(7) 1.3085(4)
O5A O 0.1124(4) 1.3653(7) 1.2026(4)
O6A O 0.1449(5) 1.5540(7) 1.1471(4)
O7A O 0.1830(6) 0.8392(8) 1.1331(5)
O8A O 0.1169(5) 1.0803(7) 1.2076(5)
loop_
_geom_bond_atom_site_label_1
_geom_bond_atom_site_label_2
_geom_bond_site_symmetry_1
_geom_bond_site_symmetry_2
Cu1 Br1 1_555 1_555
Cu2 N1 1_555 1_555
Cu3 Br2 1_555 1_555
Br1 Cu4 1_555 1_555
Br2 Cu1 1_555 1_555
Br3 Cu1 1_555 1_555
Br4 Cu3 1_555 1_555
Cu4 Br3 1_555 1_555
Cu5 Br1 1_555 1_555
Br5 Br4 1_555 1_555
Br6 Cu3 1_555 1_555
C1 H1 1_555 1_555
C2 H2 1_555 1_555
C3 C1 1_555 1_555
H3 C3 1_555 1_555
C4 C3 1_555 1_555
H4 C4 1_555 1_555
C5 C2 1_555 1_555
C6 C5 1_555 1_555
C7 C8 1_555 1_555
C8 C9 1_555 1_555
C9 H5 1_555 1_555
C10 C9 1_555 1_555
H6 C10 1_555 1_555
C11 C10 1_555 1_555
H7 C11 1_555 1_555
C12 C8 1_555 1_555
H8 C12 1_555 1_555
C13 C14 1_555 1_555
C14 C15 1_555 1_555
C15 H9 1_555 1_555
C16 C15 1_555 1_555
H10 C16 1_555 1_555
C17 C16 1_555 1_555
H11 C17 1_555 1_555
C18 C14 1_555 1_555
H12 C18 1_555 1_555
Er1 O2 1_555 1_555
Er2 O1 1_555 1_555
N1 C1 1_555 1_555
N2 Cu1 1_555 1_555
N3 C17 1_555 1_555
O1 C6 1_555 1_555
O2 C6 1_555 1_555
O3 C7 1_555 1_555
O4 C7 1_555 1_555
O5 C13 1_555 1_555
O6 C13 1_555 1_555
O7 Er1 1_555 1_555
O8 Er1 1_555 1_555
Cu1A Br1A 1_555 1_555
Cu1A_2 Br3 1_555 1_555
Cu1B Br1B 1_555 1_555
Cu2A Br1C 1_555 1_555
Cu2B Br1 1_555 1_555
Cu3B Br2B 1_555 1_555
Cu3A Cu5 1_555 1_555
Cu3A_2 N3 1_555 1_555
Cu3_2 N3A 1_555 1_555
Cu3C Br4C 1_555 1_555
Br1B Cu2 1_555 1_555
Br2B Cu2 1_555 1_555
Br2A Cu1A 1_555 1_555
Br2C Cu2A 1_555 1_555
Br3_2 Cu1A 1_555 1_555
Br3B Cu1B 1_555 1_555
Br4A Cu4 1_555 1_555
Br4B Cu3B 1_555 1_555
Br4C Cu4B 1_555 1_555
Cu4B Br1B 1_555 1_555
Cu4A Br3 1_555 1_555
Cu4C Br3B 1_555 1_555
Cu5B Cu3C 1_555 1_555
Cu5A Cu3 1_555 1_555
Cu5C Cu3B 1_555 1_555
Br5A Br4 1_555 1_555
Br5C Br4B 1_555 1_555
Br5B Br4B 1_555 1_555
Br6A Cu5 1_555 1_555
Br6B Cu3B 1_555 1_555
Br6C Cu3C 1_555 1_555
C1A H1A 1_555 1_555
C2A H2A 1_555 1_555
C3A C1A 1_555 1_555
H3A C3A 1_555 1_555
C4A C3A 1_555 1_555
H4A C4A 1_555 1_555
C5A C2A 1_555 1_555
C6A C5A 1_555 1_555
C7A C8A 1_555 1_555
C8A C9A 1_555 1_555
C9A H5A 1_555 1_555
C10A C9A 1_555 1_555
H6A C10A 1_555 1_555
C11A C10A 1_555 1_555
H7A C11A 1_555 1_555
C12A C8A 1_555 1_555
H8A C12A 1_555 1_555
C13A C14A 1_555 1_555
C14A C15A 1_555 1_555
C15A H9A 1_555 1_555
C16A C15A 1_555 1_555
H10A C16A 1_555 1_555
C17A C16A 1_555 1_555
H11A C17A 1_555 1_555
C18A C14A 1_555 1_555
H12A C18A 1_555 1_555
Er2_2 O4 1_555 1_555
N1A Cu2A 1_555 1_555
N2A Cu1A 1_555 1_555
N3A C17A 1_555 1_555
N3A_2 Cu3 1_555 1_555
N3C Cu3B 1_555 1_555
O1A Er2 1_555 1_555
O2A Er1 1_555 1_555
O3A Er1 1_555 1_555
O4A C7A 1_555 1_555
O4_2 Er2 1_555 1_555
O4A_2 Er2 1_555 1_555
O5A Er2 1_555 1_555
O6A Er2 1_555 1_555
O7A Er1 1_555 1_555
O8A Er1 1_555 1_555
Br2 Cu2B 1_555 1_555
Br4 Br6 1_555 1_555
Br4 Cu4A 1_555 1_555
Br4 Cu5A 1_555 1_555
Cu4 Cu5 1_555 1_555
Cu4 Br5 1_555 1_555
Cu4 Cu4A 1_555 1_555
Cu4 Cu5A 1_555 1_555
Cu4 Br5A 1_555 1_555
Cu5 Br5 1_555 1_555
Cu5 Br4A 1_555 1_555
Cu5 Cu4A 1_555 1_555
Cu5 Br5A 1_555 1_555
Br5 Br4A 1_555 1_555
Br5 Cu4A 1_555 1_555
Br5 Cu5A 1_555 1_555
Br5 Br5A 1_555 1_555
Br6 Cu5A 1_555 1_555
C2 N1 1_555 1_555
C4 C5 1_555 1_555
C11 N2 1_555 1_555
C12 N2 1_555 1_555
C18 N3 1_555 1_555
Er1 O3 1_555 1_555
Er2 O5 1_555 1_555
Er2 O6 1_555 1_555
Cu1B Br2B 1_555 1_555
Cu3A Br4A 1_555 1_555
Cu3A Br6A 1_555 1_555
Br1B Cu5B 1_555 1_555
Br3B Cu4B 1_555 1_555
Br4A Br5A 1_555 1_555
Br4A Br6A 1_555 1_555
Br4B Cu4C 1_555 1_555
Br4B Cu5C 1_555 1_555
Br4B Br6B 1_555 1_555
Br4C Cu5B 1_555 1_555
Br4C Br5C 1_555 1_555
Br4C Br5B 1_555 1_555
Br4C Br6C 1_555 1_555
Cu4B Cu4C 1_555 1_555
Cu4B Cu5B 1_555 1_555
Cu4B Cu5C 1_555 1_555
Cu4B Br5C 1_555 1_555
Cu4B Br5B 1_555 1_555
Cu4A Cu5A 1_555 1_555
Cu4A Br5A 1_555 1_555
Cu4C Cu5B 1_555 1_555
Cu4C Cu5C 1_555 1_555
Cu4C Br5C 1_555 1_555
Cu4C Br5B 1_555 1_555
Cu5B Br5C 1_555 1_555
Cu5B Br5B 1_555 1_555
Cu5B Br6C 1_555 1_555
Cu5A Br5A 1_555 1_555
Cu5C Br5C 1_555 1_555
Cu5C Br5B 1_555 1_555
Cu5C Br6B 1_555 1_555
Br5C Br5B 1_555 1_555
C1A N1A 1_555 1_555
C2A N1A 1_555 1_555
C4A C5A 1_555 1_555
C6A O1A 1_555 1_555
C6A O2A 1_555 1_555
C7A O3A 1_555 1_555
C11A N2A 1_555 1_555
C12A N2A 1_555 1_555
C13A O5A 1_555 1_555
C13A O6A 1_555 1_555
C18A N3A 1_555 1_555
Er2_2 O4A 1_555 1_555

#END
