
#######################################################################
#
#                 Cambridge Crystallographic Data Centre
#                                CCDC 
#
#######################################################################
#
# If this CIF has been generated from an entry in the Cambridge 
# Structural Database, then it will include bibliographic, chemical, 
# crystal, experimental, refinement or atomic coordinate data resulting 
# from the CCDC's data processing and validation procedures.
#
#######################################################################

data_WEDYEL
_symmetry_cell_setting           monoclinic
_symmetry_space_group_name_H-M   'P 21/c'
_symmetry_Int_Tables_number      14
_space_group_name_Hall           '-P 2ybc'
loop_
_symmetry_equiv_pos_site_id
_symmetry_equiv_pos_as_xyz
1 x,y,z
2 -x,1/2+y,1/2-z
3 -x,-y,-z
4 x,1/2-y,1/2+z
_cell_length_a                   9.5388(11)
_cell_length_b                   12.6589(14)
_cell_length_c                   21.400(2)
_cell_angle_alpha                90
_cell_angle_beta                 98.5390(10)
_cell_angle_gamma                90
_cell_volume                     2555.42
loop_
_atom_site_label
_atom_site_type_symbol
_atom_site_fract_x
_atom_site_fract_y
_atom_site_fract_z
C1 C 0.5068(7) 0.3191(5) 0.4799(3)
C2 C 0.5558(7) 0.2110(5) 0.4614(3)
C3 C 0.6985(8) 0.1884(6) 0.4672(4)
H1 H 0.7660 0.2393 0.4815
C4 C 0.7387(8) 0.0883(7) 0.4514(4)
H2 H 0.8340 0.0699 0.4565
C5 C 0.6367(8) 0.0165(6) 0.4282(4)
H3 H 0.6646 -0.0511 0.4181
C6 C 0.4600(8) 0.1363(6) 0.4369(4)
H4 H 0.3641 0.1530 0.4323
C7 C -0.0186(8) -0.3301(6) 0.4317(3)
C8 C 0.0037(7) -0.2348(5) 0.3933(3)
C9 C 0.1397(7) -0.2018(6) 0.3888(3)
H5 H 0.2150 -0.2443 0.4063
C10 C 0.0580(9) -0.0560(6) 0.3317(4)
H6 H 0.0756 0.0058 0.3108
C11 C -0.0802(9) -0.0857(7) 0.3315(5)
H7 H -0.1539 -0.0464 0.3096
C12 C -0.1075(8) -0.1751(6) 0.3643(4)
H8 H -0.2004 -0.1948 0.3668
C13 C 0.0577(8) 0.6212(6) 0.6007(3)
C14 C 0.1003(8) 0.6972(5) 0.6553(3)
C15 C 0.2410(8) 0.7263(6) 0.6720(3)
H9 H 0.3080 0.6971 0.6496
C16 C 0.1876(10) 0.8326(6) 0.7515(4)
H10 H 0.2173 0.8777 0.7852
C17 C 0.0477(10) 0.8087(7) 0.7378(4)
H11 H -0.0167 0.8383 0.7613
C18 C 0.0011(8) 0.7407(6) 0.6891(4)
H12 H -0.0946 0.7243 0.6790
Cl1 Cl 0.5020(2) -0.21581(16) 0.35559(10)
Cl2 Cl 0.3584(3) 0.03705(17) 0.24936(11)
Cl3 Cl 0.6236(3) -0.1805(2) 0.19970(12)
Cu1 Cu 0.36048(11) -0.05740(8) 0.37542(5)
Cu2 Cu 0.49387(14) -0.10681(11) 0.26760(6)
Cu3 Cu 0.51099(13) 0.16992(11) 0.26344(6)
Gd1 Gd 0.23187(3) 0.47896(3) 0.495681(16)
N1 N 0.4975(7) 0.0403(5) 0.4193(3)
N2 N 0.1690(7) -0.1110(5) 0.3603(3)
N3 N 0.2849(7) 0.7936(5) 0.7182(3)
O1 O 0.3759(5) 0.3302(4) 0.4794(2)
O2 O 0.5974(5) 0.3885(4) 0.4944(3)
O3 O 0.0850(6) -0.3871(4) 0.4496(3)
O4 O -0.1422(5) -0.3437(4) 0.4437(3)
O5 O 0.1562(5) 0.5735(4) 0.5809(2)
O6 O -0.0710(5) 0.6145(4) 0.5802(3)
O7 O 0.3979(5) 0.4434(4) 0.5988(2)
O8 O 0.3110(6) 0.5044(4) 0.3910(2)
Cl3A Cl 0.3764(3) 0.3195(2) 0.30030(12)
Cu3A Cu 0.48901(13) -0.33008(11) 0.23656(6)
Cu3B Cu 0.48901(13) 0.83008(11) 0.73656(6)
Gd1B Gd 0.76813(3) 0.52104(3) 0.504319(16)
Gd1_2 Gd 0.23187(3) -0.52104(3) 0.495681(16)
Gd1B_2 Gd -0.23187(3) -0.47896(3) 0.504319(16)
Gd1B_3 Gd -0.23187(3) 0.52104(3) 0.504319(16)
N3B N 0.7151(7) 0.2064(5) 0.2818(3)
O2B O 0.4026(5) 0.6115(4) 0.5056(3)
O3_2 O 0.0850(6) 0.6129(4) 0.4496(3)
O4B O 0.1422(5) 0.3437(4) 0.5563(3)
O6B O 0.0710(5) 0.3855(4) 0.4198(3)
O9 O 0.1078(13) 0.1473(10) 0.4655(7)
loop_
_geom_bond_atom_site_label_1
_geom_bond_atom_site_label_2
_geom_bond_site_symmetry_1
_geom_bond_site_symmetry_2
C1 C2 1_555 1_555
C2 C3 1_555 1_555
C3 H1 1_555 1_555
C4 C3 1_555 1_555
H2 C4 1_555 1_555
C5 C4 1_555 1_555
H3 C5 1_555 1_555
C6 C2 1_555 1_555
H4 C6 1_555 1_555
C7 C8 1_555 1_555
C8 C9 1_555 1_555
C9 H5 1_555 1_555
C10 H6 1_555 1_555
C11 C10 1_555 1_555
H7 C11 1_555 1_555
C12 C8 1_555 1_555
H8 C12 1_555 1_555
C13 C14 1_555 1_555
C14 C15 1_555 1_555
C15 H9 1_555 1_555
C16 H10 1_555 1_555
C17 C16 1_555 1_555
H11 C17 1_555 1_555
C18 C14 1_555 1_555
H12 C18 1_555 1_555
Cl1 Cu1 1_555 1_555
Cl2 Cu2 1_555 1_555
Cl3 Cu2 1_555 1_555
Cu1 N1 1_555 1_555
Cu2 Cl1 1_555 1_555
Cu3 Cl2 1_555 1_555
Gd1 O1 1_555 1_555
N1 C5 1_555 1_555
N2 C9 1_555 1_555
N3 C15 1_555 1_555
O1 C1 1_555 1_555
O2 C1 1_555 1_555
O3 C7 1_555 1_555
O4 C7 1_555 1_555
O5 C13 1_555 1_555
O6 C13 1_555 1_555
O7 Gd1 1_555 1_555
O8 Gd1 1_555 1_555
Cl3A Cu3 1_555 1_555
Cu3A Cl3 1_555 1_555
Cu3B N3 1_555 1_555
Gd1B O2 1_555 1_555
Gd1_2 O3 1_555 1_555
Gd1B_2 O4 1_555 1_555
Gd1B_3 O6 1_555 1_555
N3B Cu3 1_555 1_555
O2B Gd1 1_555 1_555
O3_2 Gd1 1_555 1_555
O4B Gd1 1_555 1_555
O6B Gd1 1_555 1_555
C6 N1 1_555 1_555
C10 N2 1_555 1_555
C11 C12 1_555 1_555
C16 N3 1_555 1_555
C17 C18 1_555 1_555
Cu1 N2 1_555 1_555
Gd1 O5 1_555 1_555

#END
