
#######################################################################
#
#                 Cambridge Crystallographic Data Centre
#                                CCDC 
#
#######################################################################
#
# If this CIF has been generated from an entry in the Cambridge 
# Structural Database, then it will include bibliographic, chemical, 
# crystal, experimental, refinement or atomic coordinate data resulting 
# from the CCDC's data processing and validation procedures.
#
#######################################################################

data_WEDZOW
_symmetry_cell_setting           monoclinic
_symmetry_space_group_name_H-M   'P 21/n'
_symmetry_Int_Tables_number      14
_space_group_name_Hall           '-P 2yn'
loop_
_symmetry_equiv_pos_site_id
_symmetry_equiv_pos_as_xyz
1 x,y,z
2 1/2-x,1/2+y,1/2-z
3 -x,-y,-z
4 1/2+x,1/2-y,1/2+z
_cell_length_a                   4.8640(3)
_cell_length_b                   9.6450(6)
_cell_length_c                   27.5870(17)
_cell_angle_alpha                90
_cell_angle_beta                 92.265(6)
_cell_angle_gamma                90
_cell_volume                     1293.19
loop_
_atom_site_label
_atom_site_type_symbol
_atom_site_fract_x
_atom_site_fract_y
_atom_site_fract_z
Pb1 Pb 0.71985(6) 1.16282(3) 0.074268(12)
C1 C 1.1918(18) 1.1481(9) 0.1488(3)
C2 C 1.3344(15) 1.1494(9) 0.1979(3)
C3 C 1.2545(17) 1.0585(9) 0.2338(3)
H1 H 1.1168 0.9935 0.2272
C4 C 1.3804(17) 1.0658(9) 0.2787(3)
H2 H 1.3267 1.0037 0.3023
C5 C 1.5855(15) 1.1615(8) 0.2909(3)
C6 C 1.6645(18) 1.2497(9) 0.2542(3)
H3 H 1.8044 1.3136 0.2606
C7 C 1.5389(17) 1.2444(9) 0.2080(3)
H4 H 1.5934 1.3052 0.1841
C8 C 1.7249(17) 1.1719(10) 0.3393(3)
H5 H 1.8029 1.2641 0.3431
H6 H 1.8756 1.1060 0.3412
C9 C 1.5462(16) 1.0137(8) 0.4020(3)
C10 C 1.3667(17) 0.9980(9) 0.4407(3)
H7 H 1.3603 0.9138 0.4571
C11 C 1.2051(18) 1.1033(9) 0.4543(3)
H8 H 1.0940 1.0903 0.4806
C12 C 1.1975(16) 1.2323(9) 0.4303(3)
C13 C 1.3726(16) 1.2495(9) 0.3928(3)
H9 H 1.3748 1.3334 0.3762
C14 C 1.0114(16) 1.3439(9) 0.4446(3)
N1 N 1.5422(14) 1.1454(7) 0.3798(2)
O1 O 0.9609(12) 1.0855(8) 0.1448(2)
O2 O 1.2935(13) 1.2109(7) 0.1135(2)
O3 O 1.7001(13) 0.9224(7) 0.3866(2)
O4 O 0.9733(13) 1.4424(7) 0.4142(2)
O5 O 0.8950(13) 1.3347(7) 0.4840(3)
O6 O 1.007(4) 1.015(2) 0.0205(6)
Pb1_2 Pb 1.71985(6) 1.16282(3) 0.074268(12)
Pb1A Pb 1.78015(6) 0.66282(3) 0.425732(12)
Pb1A_2 Pb 0.78015(6) 1.66282(3) 0.425732(12)
Pb1C Pb 1.21985(6) 1.33718(3) 0.574268(12)
O2_2 O 0.2935(13) 1.2109(7) 0.1135(2)
O3A O 0.7999(13) 1.4224(7) 0.1134(2)
O4A O 0.5267(13) 0.9424(7) 0.0858(2)
O5C O 0.3950(13) 1.1653(7) -0.0160(3)
loop_
_geom_bond_atom_site_label_1
_geom_bond_atom_site_label_2
_geom_bond_site_symmetry_1
_geom_bond_site_symmetry_2
Pb1 O1 1_555 1_555
C1 C2 1_555 1_555
C2 C3 1_555 1_555
C3 H1 1_555 1_555
C4 C3 1_555 1_555
H2 C4 1_555 1_555
C5 C4 1_555 1_555
C6 C5 1_555 1_555
H3 C6 1_555 1_555
C7 C2 1_555 1_555
H4 C7 1_555 1_555
C8 C5 1_555 1_555
H5 C8 1_555 1_555
H6 C8 1_555 1_555
C9 C10 1_555 1_555
C10 H7 1_555 1_555
C11 C10 1_555 1_555
H8 C11 1_555 1_555
C12 C11 1_555 1_555
C13 C12 1_555 1_555
H9 C13 1_555 1_555
C14 C12 1_555 1_555
N1 C8 1_555 1_555
O1 C1 1_555 1_555
O2 C1 1_555 1_555
O3 C9 1_555 1_555
O4 C14 1_555 1_555
O5 C14 1_555 1_555
O6 Pb1 1_555 1_555
Pb1_2 O2 1_555 1_555
Pb1A O3 1_555 1_555
Pb1A_2 O4 1_555 1_555
Pb1C O5 1_555 1_555
O2_2 Pb1 1_555 1_555
O3A Pb1 1_555 1_555
O4A Pb1 1_555 1_555
O5C Pb1 1_555 1_555
C6 C7 1_555 1_555
C9 N1 1_555 1_555
C13 N1 1_555 1_555

#END
