
#######################################################################
#
#                 Cambridge Crystallographic Data Centre
#                                CCDC 
#
#######################################################################
#
# If this CIF has been generated from an entry in the Cambridge 
# Structural Database, then it will include bibliographic, chemical, 
# crystal, experimental, refinement or atomic coordinate data resulting 
# from the CCDC's data processing and validation procedures.
#
#######################################################################

data_WEDZIQ
_symmetry_cell_setting           monoclinic
_symmetry_space_group_name_H-M   'P 2/n'
_symmetry_Int_Tables_number      13
_space_group_name_Hall           '-P 2yac'
loop_
_symmetry_equiv_pos_site_id
_symmetry_equiv_pos_as_xyz
1 x,y,z
2 1/2-x,y,1/2-z
3 -x,-y,-z
4 1/2+x,-y,1/2+z
_cell_length_a                   11.6400(8)
_cell_length_b                   7.1420(3)
_cell_length_c                   22.7780(10)
_cell_angle_alpha                90
_cell_angle_beta                 91.812(5)
_cell_angle_gamma                90
_cell_volume                     1892.65
loop_
_atom_site_label
_atom_site_type_symbol
_atom_site_fract_x
_atom_site_fract_y
_atom_site_fract_z
Cd1 Cd 0.0000 0.0000 0.5000
Cd2 Cd 0.11732(5) 0.44843(7) 0.54369(2)
C1 C -0.0257(7) 0.1866(11) 0.6296(3)
C2 C -0.0583(7) 0.1651(10) 0.6916(3)
C3 C -0.0815(8) -0.0104(10) 0.7142(3)
H1 H -0.0756 -0.1149 0.6901
C4 C -0.1128(8) -0.0335(11) 0.7708(3)
H2 H -0.1272 -0.1530 0.7850
C5 C -0.1233(7) 0.1216(12) 0.8078(3)
C6 C -0.0995(9) 0.2963(12) 0.7863(3)
H3 H -0.1058 0.4008 0.8103
C7 C -0.0661(9) 0.3170(11) 0.7288(3)
H4 H -0.0486 0.4357 0.7149
C8 C -0.1581(8) 0.0989(13) 0.8701(3)
H5 H -0.2321 0.0369 0.8711
H6 H -0.1652 0.2209 0.8883
C9 C -0.0916(8) -0.2045(12) 0.9138(3)
C10 C -0.0006(8) -0.2975(11) 0.9444(3)
H7 H -0.0104 -0.4231 0.9537
C11 C 0.1001(7) -0.2140(10) 0.9610(3)
H8 H 0.1564 -0.2821 0.9815
C12 C 0.1196(7) -0.0227(10) 0.9470(3)
C13 C 0.0307(7) 0.0679(10) 0.9187(3)
H9 H 0.0399 0.1938 0.9095
C14 C 0.2309(7) 0.0750(11) 0.9611(3)
C15 C 0.1918(8) 0.7663(11) 0.6439(3)
H10 H 0.1349 0.8484 0.6303
C16 C 0.3375(8) 0.6558(11) 0.6961(3)
H11 H 0.3990 0.6445 0.7229
C17 C 0.2848(8) 0.9736(10) 0.7222(3)
H12 H 0.2625 1.0809 0.6984
H13 H 0.3656 0.9867 0.7330
N1 N -0.0696(6) -0.0151(8) 0.9035(3)
N2 N 0.2086(6) 0.5978(9) 0.6235(3)
N3 N 0.2685(6) 0.8026(9) 0.6871(3)
N4 N 0.2981(7) 0.5302(9) 0.6581(3)
O1 O -0.0049(5) 0.0421(7) 0.6006(2)
O2 O -0.0230(5) 0.3537(7) 0.6089(2)
O3 O -0.1819(6) -0.2764(9) 0.8949(3)
O4 O 0.2425(5) 0.2358(8) 0.9393(2)
O5 O 0.3005(5) -0.0108(8) 0.9936(2)
O6 O 0.0042(5) 0.3027(6) 0.4733(2)
O7 O 0.2180(6) 0.5431(8) 0.4592(2)
H14 H 0.164(9) 0.582(12) 0.437(4)
H15 H 0.256(7) 0.468(10) 0.435(3)
Cd1A Cd 0.5000 0.0000 1.0000
Cd1A_2 Cd -0.5000 0.0000 0.0000
Cd2B Cd -0.11732(5) -0.44843(7) 0.45631(2)
Cd2A Cd 0.38268(5) 0.44843(7) 0.95631(2)
Cd2B_2 Cd -0.11732(5) 0.55157(7) 0.45631(2)
Cd2C Cd -0.38268(5) -0.44843(7) 0.04369(2)
Cd2_2 Cd 0.11732(5) -0.55157(7) 0.54369(2)
C1B C 0.0257(7) -0.1866(11) 0.3704(3)
C2B C 0.0583(7) -0.1651(10) 0.3084(3)
C3B C 0.0815(8) 0.0104(10) 0.2858(3)
H1B H 0.0756 0.1149 0.3099
C4B C 0.1128(8) 0.0335(11) 0.2292(3)
H2B H 0.1272 0.1530 0.2150
C5B C 0.1233(7) -0.1216(12) 0.1922(3)
C6B C 0.0995(9) -0.2963(12) 0.2137(3)
H3B H 0.1058 -0.4008 0.1897
C7B C 0.0661(9) -0.3170(11) 0.2712(3)
H4B H 0.0486 -0.4357 0.2851
C8B C 0.1581(8) -0.0989(13) 0.1299(3)
H5B H 0.2321 -0.0369 0.1289
H6B H 0.1652 -0.2209 0.1117
C9B C 0.0916(8) 0.2045(12) 0.0862(3)
C10B C 0.0006(8) 0.2975(11) 0.0556(3)
H7B H 0.0104 0.4231 0.0463
C11B C -0.1001(7) 0.2140(10) 0.0390(3)
H8B H -0.1564 0.2821 0.0185
C12B C -0.1196(7) 0.0227(10) 0.0530(3)
C13B C -0.0307(7) -0.0679(10) 0.0813(3)
H9B H -0.0399 -0.1938 0.0905
C14B C -0.2309(7) -0.0750(11) 0.0389(3)
C15A C 0.3082(8) 0.7663(11) 0.8561(3)
H10A H 0.3651 0.8484 0.8697
C16A C 0.1625(8) 0.6558(11) 0.8039(3)
H11A H 0.1010 0.6445 0.7771
C17A C 0.2152(8) 0.9736(10) 0.7778(3)
H12A H 0.2375 1.0809 0.8016
H13A H 0.1344 0.9867 0.7670
N1B N 0.0696(6) 0.0151(8) 0.0965(3)
N2A N 0.2914(6) 0.5978(9) 0.8765(3)
N2B N -0.2086(6) -0.5978(9) 0.3765(3)
N3A N 0.2315(6) 0.8026(9) 0.8129(3)
N4A N 0.2019(7) 0.5302(9) 0.8419(3)
O1B O 0.0049(5) -0.0421(7) 0.3994(2)
O2B O 0.0230(5) -0.3537(7) 0.3911(2)
O3B O 0.1819(6) 0.2764(9) 0.1051(3)
O4B O -0.2425(5) -0.2358(8) 0.0607(2)
O4A O 0.2575(5) 0.2358(8) 0.5607(2)
O4C O -0.2575(5) -0.2358(8) 0.4393(2)
O5B O -0.3005(5) 0.0108(8) 0.0064(2)
O5A O 0.1995(5) -0.0108(8) 0.5064(2)
O5C O -0.1995(5) 0.0108(8) 0.4936(2)
O6B O -0.0042(5) -0.3027(6) 0.5267(2)
O6B_2 O -0.0042(5) 0.6973(6) 0.5267(2)
O6_2 O 0.0042(5) -0.6973(6) 0.4733(2)
O7B O -0.2180(6) -0.5431(8) 0.5408(2)
H14B H -0.164(9) -0.582(12) 0.563(4)
H15B H -0.256(7) -0.468(10) 0.565(3)
loop_
_geom_bond_atom_site_label_1
_geom_bond_atom_site_label_2
_geom_bond_site_symmetry_1
_geom_bond_site_symmetry_2
Cd1 O1 1_555 1_555
Cd2 N2 1_555 1_555
C1 C2 1_555 1_555
C2 C3 1_555 1_555
C3 H1 1_555 1_555
C4 C3 1_555 1_555
H2 C4 1_555 1_555
C5 C4 1_555 1_555
C6 C5 1_555 1_555
H3 C6 1_555 1_555
C7 C2 1_555 1_555
H4 C7 1_555 1_555
C8 C5 1_555 1_555
H5 C8 1_555 1_555
H6 C8 1_555 1_555
C9 C10 1_555 1_555
C10 H7 1_555 1_555
C11 C10 1_555 1_555
H8 C11 1_555 1_555
C12 C11 1_555 1_555
C13 C12 1_555 1_555
H9 C13 1_555 1_555
C14 C12 1_555 1_555
C15 H10 1_555 1_555
C16 H11 1_555 1_555
C17 H12 1_555 1_555
H13 C17 1_555 1_555
N1 C8 1_555 1_555
N2 C15 1_555 1_555
N3 C15 1_555 1_555
N4 C16 1_555 1_555
O1 C1 1_555 1_555
O2 Cd2 1_555 1_555
O3 C9 1_555 1_555
O4 C14 1_555 1_555
O5 C14 1_555 1_555
O6 Cd1 1_555 1_555
O7 Cd2 1_555 1_555
H14 O7 1_555 1_555
H15 O7 1_555 1_555
Cd1A O5 1_555 1_555
Cd1A_2 O5B 1_555 1_555
Cd2B N2B 1_555 1_555
Cd2A O4 1_555 1_555
Cd2B_2 O6 1_555 1_555
Cd2C O4B 1_555 1_555
Cd2_2 O6B 1_555 1_555
C1B C2B 1_555 1_555
C2B C3B 1_555 1_555
C3B H1B 1_555 1_555
C4B C3B 1_555 1_555
H2B C4B 1_555 1_555
C5B C4B 1_555 1_555
C6B C5B 1_555 1_555
H3B C6B 1_555 1_555
C7B C2B 1_555 1_555
H4B C7B 1_555 1_555
C8B C5B 1_555 1_555
H5B C8B 1_555 1_555
H6B C8B 1_555 1_555
C9B C10B 1_555 1_555
C10B H7B 1_555 1_555
C11B C10B 1_555 1_555
H8B C11B 1_555 1_555
C12B C11B 1_555 1_555
C13B C12B 1_555 1_555
H9B C13B 1_555 1_555
C14B C12B 1_555 1_555
C15A H10A 1_555 1_555
C16A H11A 1_555 1_555
C17A C17 1_555 1_555
H12A C17A 1_555 1_555
H13A C17A 1_555 1_555
N1B C8B 1_555 1_555
N2A Cd2A 1_555 1_555
N3A C15A 1_555 1_555
N4A C16A 1_555 1_555
O1B Cd1 1_555 1_555
O2B Cd2B 1_555 1_555
O3B C9B 1_555 1_555
O4B C14B 1_555 1_555
O4A Cd2 1_555 1_555
O4C Cd2B 1_555 1_555
O5B C14B 1_555 1_555
O5A Cd1 1_555 1_555
O5C Cd1 1_555 1_555
O6B Cd1 1_555 1_555
O6B_2 Cd2 1_555 1_555
O6_2 Cd2B 1_555 1_555
O7B Cd2B 1_555 1_555
H14B O7B 1_555 1_555
H15B O7B 1_555 1_555
Cd2 O6 1_555 1_555
C1 O2 1_555 1_555
C6 C7 1_555 1_555
C9 N1 1_555 1_555
C13 N1 1_555 1_555
C16 N3 1_555 1_555
C17 N3 1_555 1_555
N2 N4 1_555 1_555
Cd2B O6B 1_555 1_555
Cd2B_2 O6B_2 1_555 1_555
Cd2_2 O6_2 1_555 1_555
C1B O1B 1_555 1_555
C1B O2B 1_555 1_555
C6B C7B 1_555 1_555
C9B N1B 1_555 1_555
C13B N1B 1_555 1_555
C15A N2A 1_555 1_555
C16A N3A 1_555 1_555
C17A N3A 1_555 1_555
N2A N4A 1_555 1_555

#END
