
#######################################################################
#
#                 Cambridge Crystallographic Data Centre
#                                CCDC 
#
#######################################################################
#
# If this CIF has been generated from an entry in the Cambridge 
# Structural Database, then it will include bibliographic, chemical, 
# crystal, experimental, refinement or atomic coordinate data resulting 
# from the CCDC's data processing and validation procedures.
#
#######################################################################

data_WEFBUG
_symmetry_cell_setting           triclinic
_symmetry_space_group_name_H-M   'P -1'
_symmetry_Int_Tables_number      2
_space_group_name_Hall           '-P 1'
loop_
_symmetry_equiv_pos_site_id
_symmetry_equiv_pos_as_xyz
1 x,y,z
2 -x,-y,-z
_cell_length_a                   11.0013(6)
_cell_length_b                   14.5518(5)
_cell_length_c                   18.9944(10)
_cell_angle_alpha                72.260(4)
_cell_angle_beta                 82.475(4)
_cell_angle_gamma                70.880(4)
_cell_volume                     2734.79
loop_
_atom_site_label
_atom_site_type_symbol
_atom_site_fract_x
_atom_site_fract_y
_atom_site_fract_z
Er1 Er 0.36808(3) 0.61314(2) 0.517005(17)
Er2 Er 0.71426(3) 0.55778(2) 0.575180(16)
Er3 Er 1.02055(3) 0.62705(2) 0.502200(17)
Er4 Er 0.11317(3) 0.87993(2) 0.476852(17)
O1 O 0.5385(5) 0.6864(3) 0.5103(3)
O2 O 0.3492(5) 0.7963(4) 0.5202(3)
O3 O 0.8000(4) 0.6819(3) 0.4871(2)
O4 O 0.7067(5) 0.8189(4) 0.3981(3)
O5 O 0.9230(4) 0.8251(3) 0.4898(3)
O6 O 0.8813(5) 0.9644(4) 0.5229(3)
O7 O 0.3524(5) 0.5967(4) 0.6414(3)
O8 O 0.5499(5) 0.5874(4) 0.6663(3)
O9 O 0.3624(5) 0.7158(4) 0.3988(3)
O10 O 0.2501(5) 0.8792(4) 0.3769(3)
O11 O 0.7663(5) 0.4037(4) 0.6543(3)
O12 O 0.9192(5) 0.2852(4) 0.6138(3)
O13 O 0.7793(5) 0.6254(4) 0.6494(3)
O14 O 0.9719(5) 0.6486(4) 0.6204(3)
O15 O -0.0140(5) 0.9852(4) 0.3795(3)
O16 O -0.1174(5) 1.1356(4) 0.4003(3)
O17 O 0.2319(4) 0.5110(3) 0.5266(2)
H1 H 0.2367 0.4593 0.5743
O18 O 0.1586(4) 0.7085(3) 0.5265(2)
H2 H 0.1447 0.7009 0.5797
O19 O 0.4475(4) 0.5159(3) 0.4363(2)
H3 H 0.4673 0.5580 0.3879
O20 O 0.9458(4) 0.4907(3) 0.5662(2)
H4 H 0.9828 0.4578 0.6152
C1 C 0.4668(6) 0.7713(5) 0.5221(4)
C2 C 0.7266(7) 0.7749(5) 0.4625(4)
C3 C 0.8478(7) 0.8907(5) 0.5170(4)
C4 C 0.5331(6) 0.8328(5) 0.5434(4)
C5 C 0.6585(6) 0.8304(5) 0.5198(4)
C6 C 0.7137(7) 0.8883(5) 0.5428(4)
C7 C 0.6478(7) 0.9430(6) 0.5907(4)
H6 H 0.6877 0.9797 0.6071
C8 C 0.5240(8) 0.9450(6) 0.6150(4)
H7 H 0.4802 0.9817 0.6479
C9 C 0.4666(7) 0.8912(6) 0.5892(4)
H8 H 0.3814 0.8944 0.6030
C10 C 0.4402(7) 0.5768(6) 0.6847(4)
C11 C 0.4140(8) 0.5336(6) 0.7662(4)
C12 C 0.5070(9) 0.5117(7) 0.8158(5)
H9 H 0.5844 0.5254 0.7994
C13 C 0.4850(11) 0.4697(8) 0.8898(5)
H10 H 0.5474 0.4551 0.9235
C14 C 0.3701(12) 0.4493(8) 0.9138(5)
C15 C 0.2769(11) 0.4712(8) 0.8645(5)
H11 H 0.1988 0.4586 0.8808
C16 C 0.3011(9) 0.5122(7) 0.7904(5)
H12 H 0.2396 0.5256 0.7564
C17 C 0.3374(7) 0.8070(5) 0.3599(4)
C18 C 0.4106(7) 0.8300(6) 0.2880(4)
C19 C 0.3851(9) 0.9270(7) 0.2423(5)
H13 H 0.3247 0.9800 0.2572
C20 C 0.4493(11) 0.9463(8) 0.1737(5)
H14 H 0.4336 1.0120 0.1429
C21 C 0.5364(9) 0.8663(9) 0.1525(5)
C22 C 0.5643(10) 0.7710(8) 0.1970(5)
H15 H 0.6245 0.7184 0.1815
C23 C 0.5027(8) 0.7512(6) 0.2664(5)
H16 H 0.5232 0.6857 0.2980
C24 C 0.8430(7) 0.3155(5) 0.6646(4)
C25 C 0.8392(7) 0.2434(6) 0.7385(4)
C26 C 0.9069(7) 0.1433(6) 0.7534(4)
H17 H 0.9569 0.1182 0.7160
C27 C 0.9023(9) 0.0772(6) 0.8247(5)
H18 H 0.9491 0.0088 0.8347
C28 C 0.8282(9) 0.1150(7) 0.8784(4)
C29 C 0.7565(9) 0.2149(7) 0.8639(5)
H19 H 0.7037 0.2389 0.9010
C30 C 0.7628(8) 0.2793(6) 0.7951(4)
H20 H 0.7158 0.3475 0.7858
C31 C 0.8674(7) 0.6544(5) 0.6603(4)
C32 C 0.8536(7) 0.6969(6) 0.7237(4)
C33 C 0.7379(8) 0.7149(7) 0.7616(5)
H21 H 0.6698 0.7001 0.7480
C34 C 0.7231(9) 0.7557(7) 0.8206(5)
H22 H 0.6440 0.7698 0.8459
C35 C 0.8225(10) 0.7748(8) 0.8414(5)
C36 C 0.9400(10) 0.7558(9) 0.8037(5)
H23 H 1.0089 0.7683 0.8185
C37 C 0.9539(9) 0.7179(8) 0.7439(5)
H24 H 1.0319 0.7067 0.7172
C38 C -0.0963(7) 1.0703(6) 0.3648(4)
C39 C -0.1769(7) 1.0986(5) 0.2987(4)
C40 C -0.2338(7) 1.1985(6) 0.2607(4)
H25 H -0.2279 1.2503 0.2778
C41 C -0.3001(8) 1.2216(7) 0.1970(5)
H26 H -0.3349 1.2886 0.1698
C42 C -0.3134(8) 1.1441(8) 0.1746(5)
C43 C -0.2671(9) 1.0451(8) 0.2142(5)
H27 H -0.2817 0.9941 0.1999
C44 C -0.1979(8) 1.0226(6) 0.2763(5)
H28 H -0.1647 0.9554 0.3036
Cl1 Cl 0.3443(4) 0.3945(3) 1.00717(16)
Cl2 Cl 0.6114(4) 0.8918(3) 0.06561(16)
Cl3 Cl 0.8224(3) 0.0346(2) 0.96594(13)
Cl4 Cl 0.8051(3) 0.8239(3) 0.91626(16)
Cl5 Cl -0.3932(3) 1.1732(3) 0.09306(15)
Er1A Er 0.63192(3) 0.38686(2) 0.482995(17)
Er2A Er 0.28574(3) 0.44222(2) 0.424820(16)
Er3A Er 0.97945(3) 0.37295(2) 0.497800(17)
Er3_2 Er 0.02055(3) 0.62705(2) 0.502200(17)
Er4_2 Er 1.11317(3) 0.87993(2) 0.476852(17)
Er4A Er 0.88683(3) 1.12007(2) 0.523148(17)
Er4A_2 Er -0.11317(3) 1.12007(2) 0.523148(17)
O5_2 O -0.0770(4) 0.8251(3) 0.4898(3)
O6_2 O -0.1187(5) 0.9644(4) 0.5229(3)
O6A O 0.1187(5) 1.0356(4) 0.4771(3)
O12A O 1.0808(5) 0.7148(4) 0.3862(3)
O16A O 0.1174(5) 0.8644(4) 0.5997(3)
O17A O 0.7681(4) 0.4890(3) 0.4734(2)
O17_2 O 1.2319(4) 0.5110(3) 0.5266(2)
H1A H 0.7633 0.5407 0.4257
H1_2 H 1.2367 0.4593 0.5743
O18_2 O 1.1586(4) 0.7085(3) 0.5265(2)
H2_2 H 1.1447 0.7009 0.5797
O19A O 0.5525(4) 0.4841(3) 0.5637(2)
H3A H 0.5327 0.4420 0.6121
O20A O 1.0542(4) 0.5093(3) 0.4338(2)
H4A H 1.0172 0.5422 0.3848
O21 O 1.1857(6) 0.2246(5) 0.7248(3)
H5 H 1.2144 0.2248 0.6827
O22 O 1.1366(7) 0.3928(5) 0.6775(3)
C45 C 1.1320(9) 0.3200(7) 0.7282(5)
C46 C 1.0667(9) 0.3256(7) 0.8017(5)
C47 C 1.0739(9) 0.2401(8) 0.8594(5)
H29 H 1.1237 0.1773 0.8536
C48 C 1.0095(11) 0.2455(9) 0.9250(6)
H30 H 1.0128 0.1875 0.9638
C49 C 0.9398(11) 0.3395(10) 0.9315(6)
C50 C 0.9314(12) 0.4267(9) 0.8743(6)
H31 H 0.8822 0.4895 0.8802
C51 C 0.9961(10) 0.4193(8) 0.8091(5)
H32 H 0.9925 0.4771 0.7701
Cl6 Cl 0.8557(5) 0.3480(3) 1.0155(2)
loop_
_geom_bond_atom_site_label_1
_geom_bond_atom_site_label_2
_geom_bond_site_symmetry_1
_geom_bond_site_symmetry_2
Er1 O1 1_555 1_555
Er2 O1 1_555 1_555
Er3 O3 1_555 1_555
Er4 O2 1_555 1_555
O1 C1 1_555 1_555
O2 Er1 1_555 1_555
O3 Er2 1_555 1_555
O4 C2 1_555 1_555
O5 Er3 1_555 1_555
O6 C3 1_555 1_555
O7 Er1 1_555 1_555
O8 Er2 1_555 1_555
O9 Er1 1_555 1_555
O10 Er4 1_555 1_555
O11 Er2 1_555 1_555
O12 C24 1_555 1_555
O13 Er2 1_555 1_555
O14 Er3 1_555 1_555
O15 Er4 1_555 1_555
O16 C38 1_555 1_555
O17 Er1 1_555 1_555
H1 O17 1_555 1_555
O18 Er1 1_555 1_555
H2 O18 1_555 1_555
O19 Er1 1_555 1_555
H3 O19 1_555 1_555
O20 Er2 1_555 1_555
H4 O20 1_555 1_555
O21 H5 1_555 1_555
O22 C45 1_555 1_555
C1 O2 1_555 1_555
C2 O3 1_555 1_555
C3 O5 1_555 1_555
C4 C1 1_555 1_555
C5 C2 1_555 1_555
C6 C3 1_555 1_555
C7 C6 1_555 1_555
H6 C7 1_555 1_555
C8 C7 1_555 1_555
H7 C8 1_555 1_555
C9 C4 1_555 1_555
H8 C9 1_555 1_555
C10 O7 1_555 1_555
C11 C10 1_555 1_555
C12 C11 1_555 1_555
H9 C12 1_555 1_555
C13 C12 1_555 1_555
H10 C13 1_555 1_555
C14 C13 1_555 1_555
C15 C14 1_555 1_555
H11 C15 1_555 1_555
C16 C11 1_555 1_555
H12 C16 1_555 1_555
C17 O9 1_555 1_555
C18 C17 1_555 1_555
C19 C18 1_555 1_555
H13 C19 1_555 1_555
C20 C19 1_555 1_555
H14 C20 1_555 1_555
C21 C20 1_555 1_555
C22 C21 1_555 1_555
H15 C22 1_555 1_555
C23 C18 1_555 1_555
H16 C23 1_555 1_555
C24 O11 1_555 1_555
C25 C24 1_555 1_555
C26 C25 1_555 1_555
H17 C26 1_555 1_555
C27 C26 1_555 1_555
H18 C27 1_555 1_555
C28 C27 1_555 1_555
C29 C28 1_555 1_555
H19 C29 1_555 1_555
C30 C25 1_555 1_555
H20 C30 1_555 1_555
C31 O13 1_555 1_555
C32 C31 1_555 1_555
C33 C32 1_555 1_555
H21 C33 1_555 1_555
C34 C33 1_555 1_555
H22 C34 1_555 1_555
C35 C34 1_555 1_555
C36 C35 1_555 1_555
H23 C36 1_555 1_555
C37 C32 1_555 1_555
H24 C37 1_555 1_555
C38 O15 1_555 1_555
C39 C38 1_555 1_555
C40 C39 1_555 1_555
H25 C40 1_555 1_555
C41 C40 1_555 1_555
H26 C41 1_555 1_555
C42 C41 1_555 1_555
C43 C42 1_555 1_555
H27 C43 1_555 1_555
C44 C39 1_555 1_555
H28 C44 1_555 1_555
C45 O21 1_555 1_555
C46 C45 1_555 1_555
C47 C46 1_555 1_555
H29 C47 1_555 1_555
C48 C47 1_555 1_555
H30 C48 1_555 1_555
C49 C48 1_555 1_555
C50 C49 1_555 1_555
H31 C50 1_555 1_555
C51 C46 1_555 1_555
H32 C51 1_555 1_555
Cl1 C14 1_555 1_555
Cl2 C21 1_555 1_555
Cl3 C28 1_555 1_555
Cl4 C35 1_555 1_555
Cl5 C42 1_555 1_555
Cl6 C49 1_555 1_555
Er1A O19 1_555 1_555
Er2A O17 1_555 1_555
Er3A O12 1_555 1_555
Er3_2 O17 1_555 1_555
Er4_2 O5 1_555 1_555
Er4A O6 1_555 1_555
Er4A_2 O16 1_555 1_555
O5_2 Er4 1_555 1_555
O6_2 Er4 1_555 1_555
O6A Er4 1_555 1_555
O12A Er3 1_555 1_555
O16A Er4 1_555 1_555
O17A Er2 1_555 1_555
O17_2 Er3 1_555 1_555
H1A O17A 1_555 1_555
H1_2 O17_2 1_555 1_555
O18_2 Er3 1_555 1_555
H2_2 O18_2 1_555 1_555
O19A Er1 1_555 1_555
H3A O19A 1_555 1_555
O20A Er3 1_555 1_555
H4A O20A 1_555 1_555
Er2 O19A 1_555 1_555
Er3 O20 1_555 1_555
Er4 O18 1_555 1_555
O6 Er4_2 1_555 1_555
O8 C10 1_555 1_555
O10 C17 1_555 1_555
O14 C31 1_555 1_555
O18 Er3_2 1_555 1_555
O19 Er2A 1_555 1_555
O20 Er3A 1_555 1_555
C4 C5 1_555 1_555
C5 C6 1_555 1_555
C8 C9 1_555 1_555
C15 C16 1_555 1_555
C22 C23 1_555 1_555
C29 C30 1_555 1_555
C36 C37 1_555 1_555
C43 C44 1_555 1_555
C50 C51 1_555 1_555
Er1A O17A 1_555 1_555
Er1A O19A 1_555 1_555
Er3A O17A 1_555 1_555
Er3A O20A 1_555 1_555
Er3_2 O5_2 1_555 1_555
Er4_2 O18_2 1_555 1_555
Er4A_2 O6_2 1_555 1_555
Er4A_2 O6A 1_555 1_555

#END
