
#######################################################################
#
#                 Cambridge Crystallographic Data Centre
#                                CCDC 
#
#######################################################################
#
# If this CIF has been generated from an entry in the Cambridge 
# Structural Database, then it will include bibliographic, chemical, 
# crystal, experimental, refinement or atomic coordinate data resulting 
# from the CCDC's data processing and validation procedures.
#
#######################################################################

data_WEFCUH
_symmetry_cell_setting           triclinic
_symmetry_space_group_name_H-M   'P -1'
_symmetry_Int_Tables_number      2
_space_group_name_Hall           '-P 1'
loop_
_symmetry_equiv_pos_site_id
_symmetry_equiv_pos_as_xyz
1 x,y,z
2 -x,-y,-z
_cell_length_a                   9.630(3)
_cell_length_b                   10.182(3)
_cell_length_c                   10.687(3)
_cell_angle_alpha                106.573(3)
_cell_angle_beta                 107.20
_cell_angle_gamma                110.615(2)
_cell_volume                     843.428
loop_
_atom_site_label
_atom_site_type_symbol
_atom_site_fract_x
_atom_site_fract_y
_atom_site_fract_z
Sm1 Sm 0.33424(3) 0.06038(3) 0.38556(2)
O1 O 0.3437(5) -0.0727(6) 0.1824(4)
N1 N 0.2429(6) -0.3735(5) -0.4325(5)
C1 C 0.3637(7) -0.1541(7) 0.0847(6)
O2 O 0.4443(6) -0.2220(6) 0.1048(5)
C2 C 0.2784(7) -0.1744(6) -0.0678(6)
O3 O -0.0663(5) -0.0058(4) -0.1874(4)
C3 C 0.1692(7) -0.1091(6) -0.0992(6)
H1 H 0.1548 -0.0471 -0.0240
O4 O -0.1280(5) -0.1305(5) -0.4171(4)
C4 C 0.0861(7) -0.1398(6) -0.2424(6)
O5 O 0.3757(4) -0.1113(4) -0.4916(4)
C5 C 0.1113(6) -0.2228(6) -0.3522(5)
H2 H 0.0557 -0.2374 -0.4487
O6 O 0.1338(5) -0.2072(5) -0.6723(4)
C6 C 0.2200(6) -0.2870(6) -0.3225(5)
O7 O 0.5772(5) -0.2826(5) -0.3538(5)
C7 C 0.3016(7) -0.2591(7) -0.1782(6)
H3 H 0.3755 -0.2999 -0.1555
O8 O 0.5650(6) -0.4558(5) -0.2691(5)
C8 C -0.0402(6) -0.0884(6) -0.2838(6)
O9 O 0.4511(5) 0.2318(4) 0.6414(4)
C9 C 0.1760(7) -0.3828(6) -0.5767(5)
H4 H 0.2106 -0.4445 -0.6383
H5 H 0.0538 -0.4391 -0.6195
C10 C 0.2305(7) -0.2232(6) -0.5806(5)
C11 C 0.3124(7) -0.4772(6) -0.4108(6)
H6 H 0.2700 -0.5240 -0.3516
H7 H 0.2716 -0.5632 -0.5068
C12 C 0.5002(7) -0.3992(6) -0.3369(6)
Sm1A Sm -0.33424(3) -0.06038(3) -0.38556(2)
Sm1A_2 Sm 0.66576(3) -0.06038(3) -0.38556(2)
Sm1_2 Sm 0.33424(3) 0.06038(3) -0.61444(2)
O3A O 0.0663(5) 0.0058(4) 0.1874(4)
O4A O 0.1280(5) 0.1305(5) 0.4171(4)
O5A O 0.6243(4) 0.1113(4) 0.4916(4)
O5_2 O 0.3757(4) -0.1113(4) 0.5084(4)
O6_2 O 0.1338(5) -0.2072(5) 0.3277(4)
O7A O 0.4228(5) 0.2826(5) 0.3538(5)
N2 N 0.8213(7) 0.7065(6) 0.0013(6)
C13 C 0.8965(9) 0.5993(9) -0.0189(8)
H8 H 0.9787 0.6233 0.0759
H9 H 0.9502 0.6142 -0.0824
H10 H 0.8096 0.4909 -0.0634
C14 C 0.7344(10) 0.6831(11) 0.0939(10)
H11 H 0.6167 0.6477 0.0380
H12 H 0.7824 0.7817 0.1797
H13 H 0.7469 0.6045 0.1249
loop_
_geom_bond_atom_site_label_1
_geom_bond_atom_site_label_2
_geom_bond_site_symmetry_1
_geom_bond_site_symmetry_2
Sm1 O1 1_555 1_555
O1 C1 1_555 1_555
N1 C6 1_555 1_555
C1 O2 1_555 1_555
N2 C13 1_555 1_555
C2 C1 1_555 1_555
O3 C8 1_555 1_555
C3 C2 1_555 1_555
H1 C3 1_555 1_555
O4 C8 1_555 1_555
C4 C3 1_555 1_555
O5 C10 1_555 1_555
C5 C4 1_555 1_555
H2 C5 1_555 1_555
O6 C10 1_555 1_555
C6 C5 1_555 1_555
O7 C12 1_555 1_555
C7 C2 1_555 1_555
H3 C7 1_555 1_555
O8 C12 1_555 1_555
C8 C4 1_555 1_555
O9 Sm1 1_555 1_555
C9 N1 1_555 1_555
H4 C9 1_555 1_555
H5 C9 1_555 1_555
C10 C9 1_555 1_555
C11 N1 1_555 1_555
H6 C11 1_555 1_555
H7 C11 1_555 1_555
C12 C11 1_555 1_555
C13 H8 1_555 1_555
H9 C13 1_555 1_555
H10 C13 1_555 1_555
C14 N2 1_555 1_555
H11 C14 1_555 1_555
H12 C14 1_555 1_555
H13 C14 1_555 1_555
Sm1A O3 1_555 1_555
Sm1A_2 O5 1_555 1_555
Sm1_2 O5 1_555 1_555
O3A Sm1 1_555 1_555
O4A Sm1 1_555 1_555
O5A Sm1 1_555 1_555
O5_2 Sm1 1_555 1_555
O6_2 Sm1 1_555 1_555
O7A Sm1 1_555 1_555
O4 Sm1A 1_555 1_555
O6 Sm1_2 1_555 1_555
C6 C7 1_555 1_555
O7 Sm1A_2 1_555 1_555

#END
