
#######################################################################
#
#                 Cambridge Crystallographic Data Centre
#                                CCDC 
#
#######################################################################
#
# If this CIF has been generated from an entry in the Cambridge 
# Structural Database, then it will include bibliographic, chemical, 
# crystal, experimental, refinement or atomic coordinate data resulting 
# from the CCDC's data processing and validation procedures.
#
#######################################################################

data_WEFCOB
_symmetry_cell_setting           triclinic
_symmetry_space_group_name_H-M   'P -1'
_symmetry_Int_Tables_number      2
_space_group_name_Hall           '-P 1'
loop_
_symmetry_equiv_pos_site_id
_symmetry_equiv_pos_as_xyz
1 x,y,z
2 -x,-y,-z
_cell_length_a                   9.642(6)
_cell_length_b                   10.142(7)
_cell_length_c                   10.654(7)
_cell_angle_alpha                106.388(6)
_cell_angle_beta                 107.720(5)
_cell_angle_gamma                110.452(2)
_cell_volume                     837.147
loop_
_atom_site_label
_atom_site_type_symbol
_atom_site_fract_x
_atom_site_fract_y
_atom_site_fract_z
Tb1 Tb 1.16364(3) 0.43928(2) 0.11371(2)
O1 O 1.0541(6) 0.7208(6) 0.3923(4)
N1 N 1.2597(5) 0.8728(5) 0.9334(4)
C1 C 1.2812(6) 0.7843(5) 0.8210(5)
O2 O 1.1582(5) 0.5717(5) 0.3159(4)
C2 C 1.1995(6) 0.7582(6) 0.6769(5)
H1 H 1.1261 0.7999 0.6537
O3 O 1.5703(4) 0.5085(4) 0.6880(4)
C3 C 1.2235(6) 0.6723(6) 0.5665(5)
O4 O 1.6337(5) 0.6326(5) 0.9186(4)
C4 C 1.3323(6) 0.6119(6) 0.5990(5)
H2 H 1.3486 0.5526 0.5236
O5 O 0.9249(5) 0.7793(5) 0.8544(5)
C5 C 1.4161(6) 0.6392(6) 0.7421(5)
O6 O 0.9320(5) 0.9550(5) 0.7726(5)
C6 C 1.3917(6) 0.7249(6) 0.8536(5)
H3 H 1.4502 0.7430 0.9515
O7 O 1.1213(4) 0.6086(4) 0.9886(4)
C7 C 1.1365(6) 0.6524(6) 0.4135(5)
O8 O 1.3647(5) 0.7005(5) 1.1705(4)
C8 C 1.5459(6) 0.5895(6) 0.7857(5)
O9 O 1.0443(5) 0.2687(4) -0.1378(4)
C9 C 1.1889(6) 0.9739(6) 0.9111(6)
H4 H 1.2308 1.0608 1.0073
H5 H 1.2288 1.0199 0.8504
C10 C 1.0009(6) 0.8951(5) 0.8383(5)
C11 C 1.3254(6) 0.8795(5) 1.0768(5)
H6 H 1.4478 0.9343 1.1204
H7 H 1.2922 0.9421 1.1392
C12 C 1.2685(6) 0.7199(6) 1.0787(5)
Tb1A Tb 1.83636(3) 0.56072(2) 0.88629(2)
Tb1A_2 Tb 0.83636(3) 0.56072(2) 0.88629(2)
Tb1_2 Tb 1.16364(3) 0.43928(2) 1.11371(2)
O3A O 1.4297(4) 0.4915(4) 0.3120(4)
O4A O 1.3663(5) 0.3674(5) 0.0814(4)
O5A O 1.0751(5) 0.2207(5) 0.1456(5)
O7A O 0.8787(4) 0.3914(4) 0.0114(4)
O7_2 O 1.1213(4) 0.6086(4) -0.0114(4)
O8_2 O 1.3647(5) 0.7005(5) 0.1705(4)
N2 N 0.3228(7) 0.2054(6) 0.5019(6)
C13 C 0.2383(10) 0.1832(11) 0.5951(11)
H8 H 0.3154 0.1949 0.6873
H9 H 0.1425 0.0784 0.5440
H10 H 0.2010 0.2617 0.6156
C14 C 0.3973(9) 0.1011(8) 0.4823(8)
H11 H 0.4762 0.1218 0.5782
H12 H 0.4552 0.1203 0.4228
H13 H 0.3101 -0.0080 0.4329
loop_
_geom_bond_atom_site_label_1
_geom_bond_atom_site_label_2
_geom_bond_site_symmetry_1
_geom_bond_site_symmetry_2
Tb1 O2 1_555 1_555
O1 C7 1_555 1_555
N1 C1 1_555 1_555
C1 C2 1_555 1_555
O2 C7 1_555 1_555
N2 C13 1_555 1_555
C2 H1 1_555 1_555
O3 C8 1_555 1_555
C3 C2 1_555 1_555
O4 C8 1_555 1_555
C4 C3 1_555 1_555
H2 C4 1_555 1_555
O5 C10 1_555 1_555
C5 C4 1_555 1_555
O6 C10 1_555 1_555
C6 C1 1_555 1_555
H3 C6 1_555 1_555
O7 C12 1_555 1_555
C7 C3 1_555 1_555
O8 C12 1_555 1_555
C8 C5 1_555 1_555
O9 Tb1 1_555 1_555
C9 N1 1_555 1_555
H4 C9 1_555 1_555
H5 C9 1_555 1_555
C10 C9 1_555 1_555
C11 N1 1_555 1_555
H6 C11 1_555 1_555
H7 C11 1_555 1_555
C12 C11 1_555 1_555
C13 H8 1_555 1_555
H9 C13 1_555 1_555
H10 C13 1_555 1_555
C14 N2 1_555 1_555
H11 C14 1_555 1_555
H12 C14 1_555 1_555
H13 C14 1_555 1_555
Tb1A O3 1_555 1_555
Tb1A_2 O5 1_555 1_555
Tb1_2 O7 1_555 1_555
O3A Tb1 1_555 1_555
O4A Tb1 1_555 1_555
O5A Tb1 1_555 1_555
O7A Tb1 1_555 1_555
O7_2 Tb1 1_555 1_555
O8_2 Tb1 1_555 1_555
O4 Tb1A 1_555 1_555
C5 C6 1_555 1_555
O7 Tb1A_2 1_555 1_555
O8 Tb1_2 1_555 1_555

#END
