
#######################################################################
#
#                 Cambridge Crystallographic Data Centre
#                                CCDC 
#
#######################################################################
#
# If this CIF has been generated from an entry in the Cambridge 
# Structural Database, then it will include bibliographic, chemical, 
# crystal, experimental, refinement or atomic coordinate data resulting 
# from the CCDC's data processing and validation procedures.
#
#######################################################################

data_WEFCIV
_symmetry_cell_setting           triclinic
_symmetry_space_group_name_H-M   'P -1'
_symmetry_Int_Tables_number      2
_space_group_name_Hall           '-P 1'
loop_
_symmetry_equiv_pos_site_id
_symmetry_equiv_pos_as_xyz
1 x,y,z
2 -x,-y,-z
_cell_length_a                   9.6579(16)
_cell_length_b                   10.1549(18)
_cell_length_c                   10.6914(16)
_cell_angle_alpha                106.576(2)
_cell_angle_beta                 107.444(3)
_cell_angle_gamma                110.660(4)
_cell_volume                     841.41
loop_
_atom_site_label
_atom_site_type_symbol
_atom_site_fract_x
_atom_site_fract_y
_atom_site_fract_z
Eu1 Eu -0.164999(19) 0.060598(19) 0.885460(16)
O1 O -0.1571(4) -0.0710(4) 0.6827(3)
N1 N -0.2578(4) -0.3722(4) 0.0679(4)
C1 C -0.1354(5) -0.1510(5) 0.5864(4)
O2 O -0.0547(5) -0.2206(5) 0.6060(4)
C2 C -0.5436(5) -0.0900(5) 0.2146(4)
O3 O -0.5682(3) -0.0079(3) 0.3121(3)
C3 C -0.2220(5) -0.1720(5) 0.4330(4)
O4 O -0.6307(4) -0.1325(4) 0.0830(3)
C4 C -0.3310(5) -0.1116(5) 0.4020(4)
H1 H -0.3472 -0.0525 0.4775
O5 O 0.0659(4) -0.4568(4) 0.2297(4)
C5 C -0.4160(5) -0.1400(5) 0.2571(4)
O6 O 0.0770(4) -0.2821(4) 0.1462(4)
C6 C -0.3898(5) -0.2241(4) 0.1481(4)
H2 H -0.4470 -0.2406 0.0510
O7 O -0.1236(3) -0.1127(3) 0.0080(3)
C7 C -0.2811(5) -0.2855(4) 0.1772(4)
O8 O -0.3659(3) -0.2040(3) -0.1707(3)
C8 C -0.1976(5) -0.2567(5) 0.3233(4)
H3 H -0.1229 -0.2966 0.3466
O9 O -0.0480(4) 0.2294(4) 1.1388(3)
C9 C -0.1895(5) -0.4758(5) 0.0888(4)
H4 H -0.2312 -0.5223 0.1483
H5 H -0.2318 -0.5625 -0.0076
C10 C 0.0000(5) -0.3982(5) 0.1626(4)
C11 C -0.3264(5) -0.3804(5) -0.0765(4)
H6 H -0.2959 -0.4448 -0.1401
H7 H -0.4485 -0.4339 -0.1177
C12 C -0.2691(5) -0.2230(5) -0.0792(4)
H14 H -0.0170 0.3297 1.1741
H15 H -0.0276 0.2109 1.2138
Eu1A Eu -0.835001(19) -0.060598(19) 0.114540(16)
Eu1A_2 Eu 0.164999(19) -0.060598(19) 0.114540(16)
Eu1_2 Eu -0.164999(19) 0.060598(19) -0.114540(16)
O3A O -0.4318(3) 0.0079(3) 0.6879(3)
O4A O -0.3693(4) 0.1325(4) 0.9170(3)
O6A O -0.0770(4) 0.2821(4) 0.8538(4)
O7A O 0.1236(3) 0.1127(3) 0.9920(3)
O7_2 O -0.1236(3) -0.1127(3) 1.0080(3)
O8_2 O -0.3659(3) -0.2040(3) 0.8293(3)
N2 N 0.6791(5) 0.2979(5) 0.4972(5)
C13 C 0.6037(7) 0.3998(7) 0.5198(6)
H8 H 0.6893 0.5096 0.5657
H9 H 0.5512 0.3819 0.5832
H10 H 0.5202 0.3761 0.4255
C14 C 0.7648(8) 0.3186(8) 0.4064(8)
H11 H 0.6842 0.2844 0.3069
H12 H 0.8222 0.2559 0.4047
H13 H 0.8454 0.4293 0.4469
H16 H 0.6042 0.1987 0.4520
H17 H 0.7370 0.3137 0.5858
loop_
_geom_bond_atom_site_label_1
_geom_bond_atom_site_label_2
_geom_bond_site_symmetry_1
_geom_bond_site_symmetry_2
Eu1 O1 1_555 1_555
O1 C1 1_555 1_555
N1 C7 1_555 1_555
C1 O2 1_555 1_555
N2 C13 1_555 1_555
C2 O3 1_555 1_555
O3 Eu1A 1_555 1_555
C3 C1 1_555 1_555
O4 C2 1_555 1_555
C4 C3 1_555 1_555
H1 C4 1_555 1_555
O5 C10 1_555 1_555
C5 C2 1_555 1_555
O6 C10 1_555 1_555
C6 C5 1_555 1_555
H2 C6 1_555 1_555
O7 C12 1_555 1_555
C7 C6 1_555 1_555
O8 C12 1_555 1_555
C8 C3 1_555 1_555
H3 C8 1_555 1_555
O9 Eu1 1_555 1_555
C9 N1 1_555 1_555
H4 C9 1_555 1_555
H5 C9 1_555 1_555
C10 C9 1_555 1_555
C11 N1 1_555 1_555
H6 C11 1_555 1_555
H7 C11 1_555 1_555
C12 C11 1_555 1_555
C13 H8 1_555 1_555
H9 C13 1_555 1_555
H10 C13 1_555 1_555
C14 N2 1_555 1_555
H11 C14 1_555 1_555
H12 C14 1_555 1_555
H13 C14 1_555 1_555
H14 O9 1_555 1_555
H15 O9 1_555 1_555
H16 N2 1_555 1_555
H17 N2 1_555 1_555
Eu1A O4 1_555 1_555
Eu1A_2 O6 1_555 1_555
Eu1_2 O7 1_555 1_555
O3A Eu1 1_555 1_555
O4A Eu1 1_555 1_555
O6A Eu1 1_555 1_555
O7A Eu1 1_555 1_555
O7_2 Eu1 1_555 1_555
O8_2 Eu1 1_555 1_555
C4 C5 1_555 1_555
O7 Eu1A_2 1_555 1_555
C7 C8 1_555 1_555
O8 Eu1_2 1_555 1_555

#END
