
#######################################################################
#
#                 Cambridge Crystallographic Data Centre
#                                CCDC 
#
#######################################################################
#
# If this CIF has been generated from an entry in the Cambridge 
# Structural Database, then it will include bibliographic, chemical, 
# crystal, experimental, refinement or atomic coordinate data resulting 
# from the CCDC's data processing and validation procedures.
#
#######################################################################

data_WEFCAN
_symmetry_cell_setting           orthorhombic
_symmetry_space_group_name_H-M   'C c c m'
_symmetry_Int_Tables_number      66
_space_group_name_Hall           '-C 2 2n'
loop_
_symmetry_equiv_pos_site_id
_symmetry_equiv_pos_as_xyz
1 x,y,z
2 -x,-y,z
3 -x,y,1/2-z
4 x,-y,1/2-z
5 1/2+x,1/2+y,z
6 1/2-x,1/2-y,z
7 1/2-x,1/2+y,1/2-z
8 1/2+x,1/2-y,1/2-z
9 -x,-y,-z
10 x,y,-z
11 x,-y,1/2+z
12 -x,y,1/2+z
13 1/2-x,1/2-y,-z
14 1/2+x,1/2+y,-z
15 1/2+x,1/2-y,1/2+z
16 1/2-x,1/2+y,1/2+z
_cell_length_a                   8.9846(5)
_cell_length_b                   22.9562(11)
_cell_length_c                   24.0229(12)
_cell_angle_alpha                90
_cell_angle_beta                 90
_cell_angle_gamma                90
_cell_volume                     4954.78
loop_
_atom_site_label
_atom_site_type_symbol
_atom_site_fract_x
_atom_site_fract_y
_atom_site_fract_z
Fe1 Fe 0.2500 0.2500 0.5000
S1 S -0.17998(13) 0.37845(6) 0.5000
N1 N 0.1667(2) 0.19186(8) 0.43323(8)
N2 N 0.0443(3) 0.29504(12) 0.5000
C1 C 0.0228(3) 0.18072(11) 0.42660(10)
H1 H -0.0444 0.2009 0.4488
C2 C -0.0331(3) 0.14138(13) 0.38916(10)
H2 H -0.1351 0.1348 0.3866
C3 C 0.0652(3) 0.11158(11) 0.35515(8)
C4 C 0.2151(3) 0.12291(12) 0.36025(10)
H3 H 0.2845 0.1038 0.3380
C5 C 0.2588(3) 0.16321(12) 0.39914(11)
H4 H 0.3600 0.1712 0.4020
C6 C 0.1012(2) 0.03800(10) 0.28605(8)
H5 H 0.1645 0.0140 0.3093
H6 H 0.1636 0.0625 0.2629
C7 C 0.0000 0.0000 0.2500
C8 C -0.0487(4) 0.32923(15) 0.5000
O1 O 0.00390(19) 0.07281(8) 0.31961(6)
Fe1A Fe -0.2500 -0.2500 0.5000
Fe1C Fe 0.2500 -0.2500 0.0000
Fe1B Fe -0.2500 0.2500 0.0000
S1E S 0.67998(13) 0.12155(6) 0.5000
N1A N -0.1667(2) -0.19186(8) 0.43323(8)
N1B N -0.1667(2) 0.19186(8) 0.06677(8)
N1C N 0.1667(2) -0.19186(8) 0.06677(8)
N1E N 0.3333(2) 0.30814(8) 0.43323(8)
N1I N 0.1667(2) 0.19186(8) 0.56677(8)
N1L N 0.3333(2) 0.30814(8) 0.56677(8)
N2E N 0.4557(3) 0.20496(12) 0.5000
C1A C -0.0228(3) -0.18072(11) 0.42660(10)
C1B C -0.0228(3) 0.18072(11) 0.07340(10)
C1C C 0.0228(3) -0.18072(11) 0.07340(10)
H1A H 0.0444 -0.2009 0.4488
H1B H 0.0444 0.2009 0.0512
H1C H -0.0444 -0.2009 0.0512
C2A C 0.0331(3) -0.14138(13) 0.38916(10)
C2B C 0.0331(3) 0.14138(13) 0.11084(10)
C2C C -0.0331(3) -0.14138(13) 0.11084(10)
H2A H 0.1351 -0.1348 0.3866
H2B H 0.1351 0.1348 0.1134
H2C H -0.1351 -0.1348 0.1134
C3A C -0.0652(3) -0.11158(11) 0.35515(8)
C3B C -0.0652(3) 0.11158(11) 0.14485(8)
C3C C 0.0652(3) -0.11158(11) 0.14485(8)
C4A C -0.2151(3) -0.12291(12) 0.36025(10)
C4B C -0.2151(3) 0.12291(12) 0.13975(10)
C4C C 0.2151(3) -0.12291(12) 0.13975(10)
H3A H -0.2845 -0.1038 0.3380
H3B H -0.2845 0.1038 0.1620
H3C H 0.2845 -0.1038 0.1620
C5A C -0.2588(3) -0.16321(12) 0.39914(11)
C5B C -0.2588(3) 0.16321(12) 0.10086(11)
C5C C 0.2588(3) -0.16321(12) 0.10086(11)
H4A H -0.3600 -0.1712 0.4020
H4B H -0.3600 0.1712 0.0980
H4C H 0.3600 -0.1712 0.0980
C6A C -0.1012(2) -0.03800(10) 0.28605(8)
C6B C -0.1012(2) 0.03800(10) 0.21395(8)
C6C C 0.1012(2) -0.03800(10) 0.21395(8)
H5A H -0.1645 -0.0140 0.3093
H5B H -0.1645 0.0140 0.1907
H5C H 0.1645 -0.0140 0.1907
H6A H -0.1636 -0.0625 0.2629
H6B H -0.1636 0.0625 0.2371
H6C H 0.1636 -0.0625 0.2371
C8E C 0.5487(4) 0.17077(15) 0.5000
O1A O -0.00390(19) -0.07281(8) 0.31961(6)
O1B O -0.00390(19) 0.07281(8) 0.18039(6)
O1C O 0.00390(19) -0.07281(8) 0.18039(6)
O2 O 0.3929(4) -0.04370(19) 0.38803(13)
C9 C 0.1464(5) 0.0096(2) 0.43822(19)
N3 N 0.1939(9) 0.0400(3) 0.5000
C9I C 0.1464(5) 0.0096(2) 0.56178(19)
loop_
_geom_bond_atom_site_label_1
_geom_bond_atom_site_label_2
_geom_bond_site_symmetry_1
_geom_bond_site_symmetry_2
Fe1 N1 1_555 1_555
S1 C8 1_555 1_555
N1 C1 1_555 1_555
N2 Fe1 1_555 1_555
C1 H1 1_555 1_555
C2 C1 1_555 1_555
H2 C2 1_555 1_555
C3 C2 1_555 1_555
C4 C3 1_555 1_555
H3 C4 1_555 1_555
C5 N1 1_555 1_555
H4 C5 1_555 1_555
C6 H5 1_555 1_555
H6 C6 1_555 1_555
C7 C6 1_555 1_555
C8 N2 1_555 1_555
O1 C3 1_555 1_555
C9 N3 1_555 1_555
N3 C9I 1_555 1_555
Fe1A N1A 1_555 1_555
Fe1C N1C 1_555 1_555
Fe1B N1B 1_555 1_555
S1E C8E 1_555 1_555
N1A C1A 1_555 1_555
N1B C1B 1_555 1_555
N1C C1C 1_555 1_555
N1E Fe1 1_555 1_555
N1I Fe1 1_555 1_555
N1L Fe1 1_555 1_555
N2E Fe1 1_555 1_555
C1A H1A 1_555 1_555
C1B H1B 1_555 1_555
C1C H1C 1_555 1_555
C2A C1A 1_555 1_555
C2B C1B 1_555 1_555
C2C C1C 1_555 1_555
H2A C2A 1_555 1_555
H2B C2B 1_555 1_555
H2C C2C 1_555 1_555
C3A C2A 1_555 1_555
C3B C2B 1_555 1_555
C3C C2C 1_555 1_555
C4A C3A 1_555 1_555
C4B C3B 1_555 1_555
C4C C3C 1_555 1_555
H3A C4A 1_555 1_555
H3B C4B 1_555 1_555
H3C C4C 1_555 1_555
C5A N1A 1_555 1_555
C5B N1B 1_555 1_555
C5C N1C 1_555 1_555
H4A C5A 1_555 1_555
H4B C5B 1_555 1_555
H4C C5C 1_555 1_555
C6A C7 1_555 1_555
C6B C7 1_555 1_555
C6C C7 1_555 1_555
H5A C6A 1_555 1_555
H5B C6B 1_555 1_555
H5C C6C 1_555 1_555
H6A C6A 1_555 1_555
H6B C6B 1_555 1_555
H6C C6C 1_555 1_555
C8E N2E 1_555 1_555
O1A C3A 1_555 1_555
O1B C3B 1_555 1_555
O1C C3C 1_555 1_555
C4 C5 1_555 1_555
C6 O1 1_555 1_555
C4A C5A 1_555 1_555
C4B C5B 1_555 1_555
C4C C5C 1_555 1_555
C6A O1A 1_555 1_555
C6B O1B 1_555 1_555
C6C O1C 1_555 1_555

#END
