
#######################################################################
#
#                 Cambridge Crystallographic Data Centre
#                                CCDC 
#
#######################################################################
#
# If this CIF has been generated from an entry in the Cambridge 
# Structural Database, then it will include bibliographic, chemical, 
# crystal, experimental, refinement or atomic coordinate data resulting 
# from the CCDC's data processing and validation procedures.
#
#######################################################################

data_WEFDIU
_symmetry_cell_setting           triclinic
_symmetry_space_group_name_H-M   'P -1'
_symmetry_Int_Tables_number      2
_space_group_name_Hall           '-P 1'
loop_
_symmetry_equiv_pos_site_id
_symmetry_equiv_pos_as_xyz
1 x,y,z
2 -x,-y,-z
_cell_length_a                   6.630(1)
_cell_length_b                   7.443(1)
_cell_length_c                   9.702(1)
_cell_angle_alpha                95.38(1)
_cell_angle_beta                 102.72(1)
_cell_angle_gamma                101.12(1)
_cell_volume                     453.582
loop_
_atom_site_label
_atom_site_type_symbol
_atom_site_fract_x
_atom_site_fract_y
_atom_site_fract_z
Cu1 Cu 0.14099(7) 0.19786(6) 0.47647(5)
Cl1 Cl 0.2726(2) 0.0314(1) 0.6452(1)
O1 O 0.0275(4) 0.3329(3) 0.6158(3)
N1 N -0.2322(6) 0.9474(5) 0.6697(4)
N2 N -0.0983(5) 0.6006(4) 0.6333(3)
C1 C -0.0200(5) 0.4787(4) 0.5710(4)
C2 C -0.1913(7) 0.8989(5) 0.8164(4)
C3 C -0.2713(6) 0.6942(5) 0.8244(4)
C4 C -0.4993(7) 0.6230(7) 0.7358(6)
C5 C -0.2584(9) 0.6767(7) 0.9819(5)
C6 C -0.1266(7) 0.5782(6) 0.7765(4)
H1 H -0.166(8) 1.045(7) 0.679(5)
H2 H -0.365(8) 0.948(6) 0.637(5)
H3 H -0.256(7) 0.972(6) 0.872(5)
H4 H -0.039(8) 0.944(6) 0.856(5)
H5 H -0.577(8) 0.692(7) 0.774(5)
H6 H -0.544(8) 0.505(7) 0.747(5)
H7 H -0.506(7) 0.636(6) 0.635(5)
H8 H -0.345(8) 0.743(7) 1.020(5)
H9 H -0.307(8) 0.567(7) 0.993(5)
H10 H -0.110(8) 0.729(6) 1.046(5)
H11 H 0.022(7) 0.630(6) 0.850(5)
H12 H -0.174(7) 0.464(6) 0.783(5)
C1A C 0.0200(5) 0.5213(4) 0.4290(4)
O1A O -0.0275(4) 0.6671(3) 0.3842(3)
N2A N 0.0983(5) 0.3994(4) 0.3667(3)
C6A C 0.1266(7) 0.4218(6) 0.2235(4)
C3A C 0.2713(6) 0.3058(5) 0.1756(4)
C2A C 0.1913(7) 0.1011(5) 0.1836(4)
N1A N 0.2322(6) 0.0526(5) 0.3303(4)
H1A H 0.166(8) -0.045(7) 0.321(5)
H2A H 0.365(8) 0.052(6) 0.363(5)
H3A H 0.256(7) 0.028(6) 0.128(5)
H4A H 0.039(8) 0.056(6) 0.144(5)
C4A C 0.4993(7) 0.3770(7) 0.2642(6)
H5A H 0.577(8) 0.308(7) 0.226(5)
H6A H 0.544(8) 0.495(7) 0.253(5)
H7A H 0.506(7) 0.364(6) 0.365(5)
C5A C 0.2584(9) 0.3233(7) 0.0181(5)
H8A H 0.345(8) 0.257(7) -0.020(5)
H9A H 0.307(8) 0.433(7) 0.007(5)
H10A H 0.110(8) 0.271(6) -0.046(5)
H11A H -0.022(7) 0.370(6) 0.150(5)
H12A H 0.174(7) 0.536(6) 0.217(5)
Cl1A Cl -0.2726(2) -0.0314(1) 0.3548(1)
Cu1A Cu -0.14099(7) -0.19786(6) 0.52353(5)
Cu1A_2 Cu -0.14099(7) 0.80214(6) 0.52353(5)
Cl1_2 Cl 0.2726(2) 1.0314(1) 0.6452(1)
Cl1A_2 Cl -0.2726(2) 0.9686(1) 0.3548(1)
loop_
_geom_bond_atom_site_label_1
_geom_bond_atom_site_label_2
_geom_bond_site_symmetry_1
_geom_bond_site_symmetry_2
Cu1 Cl1 1_555 1_555
Cl1 Cu1A 1_555 1_555
O1 Cu1 1_555 1_555
N1 C2 1_555 1_555
N2 C1 1_555 1_555
C1 O1 1_555 1_555
C2 C3 1_555 1_555
C3 C4 1_555 1_555
C4 H5 1_555 1_555
C5 C3 1_555 1_555
C6 N2 1_555 1_555
H1 N1 1_555 1_555
H2 N1 1_555 1_555
H3 C2 1_555 1_555
H4 C2 1_555 1_555
H6 C4 1_555 1_555
H7 C4 1_555 1_555
H8 C5 1_555 1_555
H9 C5 1_555 1_555
H10 C5 1_555 1_555
H11 C6 1_555 1_555
H12 C6 1_555 1_555
C1A C1 1_555 1_555
O1A C1A 1_555 1_555
N2A Cu1 1_555 1_555
C6A N2A 1_555 1_555
C3A C6A 1_555 1_555
C2A C3A 1_555 1_555
N1A Cu1 1_555 1_555
H1A N1A 1_555 1_555
H2A N1A 1_555 1_555
H3A C2A 1_555 1_555
H4A C2A 1_555 1_555
C4A C3A 1_555 1_555
H5A C4A 1_555 1_555
H6A C4A 1_555 1_555
H7A C4A 1_555 1_555
C5A C3A 1_555 1_555
H8A C5A 1_555 1_555
H9A C5A 1_555 1_555
H10A C5A 1_555 1_555
H11A C6A 1_555 1_555
H12A C6A 1_555 1_555
Cl1A Cu1 1_555 1_555
Cu1A Cl1A 1_555 1_555
Cu1A_2 N1 1_555 1_555
Cl1_2 Cu1A_2 1_555 1_555
Cl1A_2 Cu1A_2 1_555 1_555
N2 Cu1A_2 1_555 1_555
C3 C6 1_555 1_555
C1A N2A 1_555 1_555
O1A Cu1A_2 1_555 1_555
C2A N1A 1_555 1_555

#END
