
#######################################################################
#
#                 Cambridge Crystallographic Data Centre
#                                CCDC 
#
#######################################################################
#
# If this CIF has been generated from an entry in the Cambridge 
# Structural Database, then it will include bibliographic, chemical, 
# crystal, experimental, refinement or atomic coordinate data resulting 
# from the CCDC's data processing and validation procedures.
#
#######################################################################

data_WEFDAO
_symmetry_cell_setting           tetragonal
_symmetry_space_group_name_H-M   'I 41/a'
_symmetry_Int_Tables_number      88
_space_group_name_Hall           '-I 4ad'
loop_
_symmetry_equiv_pos_site_id
_symmetry_equiv_pos_as_xyz
1 x,y,z
2 3/4-y,1/4+x,1/4+z
3 -x,1/2-y,z
4 1/4+y,1/4-x,1/4+z
5 1/2+x,1/2+y,1/2+z
6 1/4-y,3/4+x,3/4+z
7 1/2-x,-y,1/2+z
8 3/4+y,3/4-x,3/4+z
9 -x,-y,-z
10 1/4+y,3/4-x,3/4-z
11 x,1/2+y,-z
12 3/4-y,3/4+x,3/4-z
13 1/2-x,1/2-y,1/2-z
14 3/4+y,1/4-x,1/4-z
15 1/2+x,y,1/2-z
16 1/4-y,1/4+x,1/4-z
_cell_length_a                   21.6024(8)
_cell_length_b                   21.6024(8)
_cell_length_c                   11.3824(8)
_cell_angle_alpha                90
_cell_angle_beta                 90
_cell_angle_gamma                90
_cell_volume                     5311.75
loop_
_atom_site_label
_atom_site_type_symbol
_atom_site_fract_x
_atom_site_fract_y
_atom_site_fract_z
Eu1 Eu 0.427992(8) 0.563793(7) 0.531093(15)
O1 O 0.38052(12) 0.46331(13) 0.5395(2)
O2 O 0.32190(12) 0.41881(13) 0.3983(2)
N1 N 0.31167(13) 0.31232(13) 0.5214(3)
O3 O 0.14213(13) 0.23551(12) 0.3955(3)
O4 O 0.37479(13) 0.24124(13) 0.3619(3)
O5 O 0.24216(11) 0.24466(11) 0.3659(2)
C1 C 0.19734(17) 0.29821(17) 0.5335(3)
C2 C 0.24638(17) 0.37627(17) 0.6540(3)
H1 H 0.2816 0.4002 0.6751
O6 O 0.39116(14) 0.16500(17) 0.4898(3)
C3 C 0.25205(16) 0.32890(17) 0.5704(3)
C4 C 0.36854(18) 0.21613(18) 0.4615(4)
C5 C 0.36260(16) 0.35498(16) 0.5511(3)
H2 H 0.4024 0.3366 0.5256
H3 H 0.3643 0.3605 0.6374
O7 O 0.13906(15) 0.44141(15) 0.8626(3)
C6 C 0.18179(18) 0.44016(19) 0.7934(3)
C7 C 0.18903(18) 0.38852(19) 0.7066(4)
C8 C 0.19337(16) 0.25657(16) 0.4266(3)
C9 C 0.14136(19) 0.30983(18) 0.5909(4)
H4 H 0.1055 0.2870 0.5693
C10 C 0.1372(2) 0.35400(19) 0.6787(4)
H5 H 0.0993 0.3604 0.7192
C11 C 0.32997(17) 0.24819(19) 0.5552(3)
H6 H 0.2922 0.2235 0.5700
H7 H 0.3540 0.2498 0.6292
O8 O 0.22305(15) 0.48413(15) 0.7886(3)
C12 C 0.35450(16) 0.41788(16) 0.4928(3)
H8 H 0.2100 0.5192 0.8130
Eu1A Eu 0.186207(7) 0.677992(8) 0.781093(15)
Eu1G Eu 0.313793(7) 0.322008(8) 0.281093(15)
Eu1K Eu 0.186207(7) 0.177992(8) 0.218907(15)
Eu1J Eu 0.427992(8) 0.063793(7) 0.468907(15)
Eu1F Eu 0.072008(8) 0.436207(7) 1.031093(15)
Eu1H Eu 0.572008(8) 0.436207(7) 0.468907(15)
Eu1O Eu 0.686207(7) 0.677992(8) 0.718907(15)
Eu1G_2 Eu 0.313793(7) 0.322008(8) 1.281093(15)
O1A O 0.28669(13) 0.63052(12) 0.7895(2)
O2A O 0.33119(13) 0.57190(12) 0.6483(2)
O2F O 0.17810(12) 0.58119(13) 0.8983(2)
N1A N 0.43768(13) 0.56167(13) 0.7714(3)
N1F N 0.18833(13) 0.68768(13) 1.0214(3)
O3A O 0.51449(12) 0.39213(13) 0.6455(3)
O3I O 0.48551(12) 0.60787(13) 0.3545(3)
O3J O 0.14213(13) 0.73551(12) 0.6045(3)
O4A O 0.50876(13) 0.62479(13) 0.6119(3)
O4F O 0.12521(13) 0.75876(13) 0.8619(3)
O5A O 0.50534(11) 0.49216(11) 0.6159(2)
O5I O 0.49466(11) 0.50784(11) 0.3841(2)
O5F O 0.25784(11) 0.75534(11) 0.8659(2)
O5J O 0.24216(11) 0.74466(11) 0.6341(2)
C1A C 0.45179(17) 0.44734(17) 0.7835(3)
C2A C 0.37373(17) 0.49638(17) 0.9040(3)
H1A H 0.3498 0.5316 0.9251
O6A O 0.58500(17) 0.64116(14) 0.7398(3)
O6J O 0.39116(14) 0.66500(17) 0.5102(3)
O6O O 0.08500(17) 0.64116(14) 0.7602(3)
C3A C 0.42110(17) 0.50205(16) 0.8204(3)
C4A C 0.53387(18) 0.61854(18) 0.7115(4)
C5A C 0.39502(16) 0.61260(16) 0.8011(3)
H2A H 0.4134 0.6524 0.7756
H3A H 0.3895 0.6143 0.8874
O7A O 0.30859(15) 0.38906(15) 1.1126(3)
O7F O 0.36094(15) 0.55859(15) 0.3626(3)
O7G O 0.19141(15) 0.61094(15) 0.6126(3)
C6A C 0.30984(19) 0.43179(18) 1.0434(3)
C7A C 0.36148(19) 0.43903(18) 0.9566(4)
C8A C 0.49343(16) 0.44337(16) 0.6766(3)
C9A C 0.44017(18) 0.39136(19) 0.8409(4)
H4A H 0.4630 0.3555 0.8193
C10A C 0.39600(19) 0.3872(2) 0.9287(4)
H5A H 0.3896 0.3493 0.9692
C11A C 0.50181(19) 0.57997(17) 0.8052(3)
H6A H 0.5265 0.5422 0.8200
H7A H 0.5002 0.6040 0.8792
O8A O 0.26587(15) 0.47305(15) 1.0386(3)
C12A C 0.33212(16) 0.60450(16) 0.7428(3)
H8A H 0.2308 0.4600 1.0630
O9 O 0.50001(16) 0.75000(16) 0.9285(3)
O10? O 0.50001(16) 0.75000(16) 0.7706(3)
loop_
_geom_bond_atom_site_label_1
_geom_bond_atom_site_label_2
_geom_bond_site_symmetry_1
_geom_bond_site_symmetry_2
Eu1 O1 1_555 1_555
O1 C12 1_555 1_555
O2 C12 1_555 1_555
N1 C3 1_555 1_555
O3 C8 1_555 1_555
O4 C4 1_555 1_555
O5 C8 1_555 1_555
C1 C3 1_555 1_555
C2 H1 1_555 1_555
O6 C4 1_555 1_555
C3 C2 1_555 1_555
C4 C11 1_555 1_555
C5 N1 1_555 1_555
H2 C5 1_555 1_555
H3 C5 1_555 1_555
O7 C6 1_555 1_555
C6 C7 1_555 1_555
C7 C2 1_555 1_555
C8 C1 1_555 1_555
C9 C1 1_555 1_555
H4 C9 1_555 1_555
C10 C7 1_555 1_555
H5 C10 1_555 1_555
C11 N1 1_555 1_555
H6 C11 1_555 1_555
H7 C11 1_555 1_555
O8 C6 1_555 1_555
C12 C5 1_555 1_555
H8 O8 1_555 1_555
Eu1A O1A 1_555 1_555
Eu1G O2 1_555 1_555
Eu1K O3 1_555 1_555
Eu1J O6 1_555 1_555
Eu1F O7 1_555 1_555
Eu1H O3A 1_555 1_555
Eu1O O6A 1_555 1_555
Eu1G_2 O7A 1_555 1_555
O1A C12A 1_555 1_555
O2A Eu1 1_555 1_555
O2F Eu1A 1_555 1_555
N1A Eu1 1_555 1_555
N1F Eu1A 1_555 1_555
O3A C8A 1_555 1_555
O3I Eu1 1_555 1_555
O3J Eu1A 1_555 1_555
O4A Eu1 1_555 1_555
O4F Eu1A 1_555 1_555
O5A Eu1 1_555 1_555
O5I Eu1 1_555 1_555
O5F Eu1A 1_555 1_555
O5J Eu1A 1_555 1_555
C1A C3A 1_555 1_555
C2A H1A 1_555 1_555
O6A C4A 1_555 1_555
O6J Eu1 1_555 1_555
O6O Eu1A 1_555 1_555
C3A N1A 1_555 1_555
C4A O4A 1_555 1_555
C5A N1A 1_555 1_555
H2A C5A 1_555 1_555
H3A C5A 1_555 1_555
O7A C6A 1_555 1_555
O7F Eu1 1_555 1_555
O7G Eu1A 1_555 1_555
C6A C7A 1_555 1_555
C7A C2A 1_555 1_555
C8A O5A 1_555 1_555
C9A C1A 1_555 1_555
H4A C9A 1_555 1_555
C10A C7A 1_555 1_555
H5A C10A 1_555 1_555
C11A N1A 1_555 1_555
H6A C11A 1_555 1_555
H7A C11A 1_555 1_555
O8A C6A 1_555 1_555
C12A O2A 1_555 1_555
H8A O8A 1_555 1_555
N1 Eu1G 1_555 1_555
O4 Eu1G 1_555 1_555
O5 Eu1G 1_555 1_555
O5 Eu1K 1_555 1_555
C9 C10 1_555 1_555
Eu1H O5A 1_555 1_555
Eu1H O5I 1_555 1_555
C1A C8A 1_555 1_555
C2A C3A 1_555 1_555
C4A C11A 1_555 1_555
C5A C12A 1_555 1_555
C9A C10A 1_555 1_555

#END
