
#######################################################################
#
#                 Cambridge Crystallographic Data Centre
#                                CCDC 
#
#######################################################################
#
# If this CIF has been generated from an entry in the Cambridge 
# Structural Database, then it will include bibliographic, chemical, 
# crystal, experimental, refinement or atomic coordinate data resulting 
# from the CCDC's data processing and validation procedures.
#
#######################################################################

data_WEFDIW
_symmetry_cell_setting           tetragonal
_symmetry_space_group_name_H-M   'I 41/a'
_symmetry_Int_Tables_number      88
_space_group_name_Hall           '-I 4ad'
loop_
_symmetry_equiv_pos_site_id
_symmetry_equiv_pos_as_xyz
1 x,y,z
2 3/4-y,1/4+x,1/4+z
3 -x,1/2-y,z
4 1/4+y,1/4-x,1/4+z
5 1/2+x,1/2+y,1/2+z
6 1/4-y,3/4+x,3/4+z
7 1/2-x,-y,1/2+z
8 3/4+y,3/4-x,3/4+z
9 -x,-y,-z
10 1/4+y,3/4-x,3/4-z
11 x,1/2+y,-z
12 3/4-y,3/4+x,3/4-z
13 1/2-x,1/2-y,1/2-z
14 3/4+y,1/4-x,1/4-z
15 1/2+x,y,1/2-z
16 1/4-y,1/4+x,1/4-z
_cell_length_a                   21.5765(4)
_cell_length_b                   21.5765(4)
_cell_length_c                   11.3469(4)
_cell_angle_alpha                90
_cell_angle_beta                 90
_cell_angle_gamma                90
_cell_volume                     5282.5
loop_
_atom_site_label
_atom_site_type_symbol
_atom_site_fract_x
_atom_site_fract_y
_atom_site_fract_z
Sm1 Sm 0.427757(6) 0.936179(6) 0.030582(10)
O1 O 0.50522(8) 1.00742(8) 0.11647(15)
N1 N 0.43745(10) 0.93805(10) 0.2717(2)
C1 C 0.49328(12) 1.05599(12) 0.1777(2)
O2 O 0.26566(11) 1.02663(11) 0.53818(19)
O3 O 0.51452(9) 1.10749(9) 0.14636(18)
C2 C 0.45175(12) 1.05224(13) 0.2834(2)
O4 O 0.30853(10) 1.11052(11) 0.61188(19)
C3 C 0.43926(14) 1.10811(13) 0.3404(3)
H1 H 0.4617 1.1441 0.3180
C4 C 0.39543(14) 1.11261(14) 0.4281(3)
H2 H 0.3889 1.1506 0.4686
O5 O 0.33105(8) 0.92806(9) 0.14817(17)
C5 C 0.36112(13) 1.06061(14) 0.4559(2)
O6 O 0.28724(9) 0.86938(9) 0.28924(16)
C6 C 0.37363(13) 1.00338(13) 0.4031(2)
H3 H 0.3496 0.9681 0.4237
O7 O 0.50873(10) 0.87496(10) 0.11268(18)
C7 C 0.42078(12) 0.99775(12) 0.3211(2)
O8 O 0.58463(10) 0.85915(12) 0.2412(2)
C8 C 0.30951(13) 1.06793(14) 0.5425(2)
C9 C 0.39461(12) 0.88755(12) 0.3009(2)
H4 H 0.3889 0.8860 0.3874
H5 H 0.4130 0.8477 0.2756
C10 C 0.33218(12) 0.89552(12) 0.2424(2)
C11 C 0.50162(12) 0.92003(14) 0.3055(2)
H6 H 0.5001 0.8961 0.3799
H7 H 0.5262 0.9580 0.3202
C12 C 0.53396(13) 0.88140(14) 0.2118(3)
H8 H 0.2378 1.0395 0.5856
Sm1H Sm 0.572243(6) 1.063821(6) -0.030582(10)
Sm1E Sm 0.313821(6) 1.177757(6) 0.780582(10)
Sm1C Sm 0.186179(6) 0.822243(6) 0.280582(10)
Sm1M Sm 0.686179(6) 0.822243(6) 0.219418(10)
Sm1E_2 Sm 0.313821(6) 1.177757(6) -0.219418(10)
Sm1I Sm 0.186179(6) 1.322243(6) -0.280582(10)
Sm1F Sm 0.072243(6) 1.063821(6) 0.530582(10)
Sm1J Sm 0.427757(6) 1.436179(6) -0.030582(10)
O1H O 0.49478(8) 0.99258(8) -0.11647(15)
O1C O 0.25742(8) 0.74478(8) 0.36647(15)
O1O O 0.24258(8) 0.75522(8) 0.13353(15)
O1E O 0.24258(8) 1.25522(8) -0.13353(15)
N1C N 0.18805(10) 0.81255(10) 0.5217(2)
N1E N 0.31195(10) 1.18745(10) 0.0217(2)
C1E C 0.19401(12) 1.24328(12) -0.0723(2)
O2E O 0.22337(11) 1.01566(11) 0.28818(19)
O3H O 0.48548(9) 0.89251(9) -0.14636(18)
O3O O 0.14251(9) 0.76452(9) 0.10364(18)
O3E O 0.14251(9) 1.26452(9) -0.10364(18)
C2E C 0.19776(13) 1.20175(12) 0.0334(2)
O4C O 0.36052(11) 0.94147(10) -0.13812(19)
O4F O 0.19147(10) 0.88948(11) 0.11188(19)
O4E O 0.13948(11) 1.05853(10) 0.36188(19)
C3E C 0.14189(13) 1.18926(14) 0.0904(3)
H1E H 0.1059 1.2117 0.0680
C4E C 0.13739(14) 1.14543(14) 0.1781(3)
H2E H 0.0994 1.1389 0.2186
O5C O 0.17806(9) 0.91895(8) 0.39817(17)
O5E O 0.32194(9) 1.08105(8) -0.10183(17)
C5E C 0.18939(14) 1.11112(13) 0.2059(2)
O6E O 0.38062(9) 1.03724(9) 0.03924(16)
C6E C 0.24662(13) 1.12363(13) 0.1531(2)
H3E H 0.2819 1.0996 0.1737
O7C O 0.12496(10) 0.74127(10) 0.36268(18)
O7E O 0.37504(10) 1.25873(10) -0.13732(18)
C7E C 0.25225(12) 1.17078(12) 0.0711(2)
O8O O 0.39085(12) 0.83463(10) 0.0088(2)
O8N O 0.08463(10) 0.85915(12) 0.2588(2)
O8E O 0.39085(12) 1.33463(10) -0.0088(2)
C8E C 0.18207(14) 1.05951(13) 0.2925(2)
C9E C 0.36245(12) 1.14461(12) 0.0509(2)
H4E H 0.3640 1.1389 0.1374
H5E H 0.4023 1.1630 0.0256
C10E C 0.35448(12) 1.08218(12) -0.0076(2)
C11E C 0.32997(14) 1.25162(12) 0.0555(2)
H6E H 0.3539 1.2501 0.1299
H7E H 0.2920 1.2762 0.0702
C12E C 0.36860(14) 1.28396(13) -0.0382(3)
H8E H 0.2105 0.9878 0.3356
O9 O 0.5000 0.7500 0.4405(13)
O10? O 0.5000 0.7500 0.2773(10)
loop_
_geom_bond_atom_site_label_1
_geom_bond_atom_site_label_2
_geom_bond_site_symmetry_1
_geom_bond_site_symmetry_2
Sm1 O1 1_555 1_555
O1 C1 1_555 1_555
N1 Sm1 1_555 1_555
C1 O3 1_555 1_555
O2 C8 1_555 1_555
O3 Sm1H 1_555 1_555
C2 C1 1_555 1_555
O4 C8 1_555 1_555
C3 C2 1_555 1_555
H1 C3 1_555 1_555
C4 C3 1_555 1_555
H2 C4 1_555 1_555
O5 Sm1 1_555 1_555
C5 C4 1_555 1_555
O6 C10 1_555 1_555
C6 C5 1_555 1_555
H3 C6 1_555 1_555
O7 Sm1 1_555 1_555
C7 N1 1_555 1_555
O8 C12 1_555 1_555
C8 C5 1_555 1_555
C9 N1 1_555 1_555
H4 C9 1_555 1_555
H5 C9 1_555 1_555
C10 O5 1_555 1_555
C11 N1 1_555 1_555
H6 C11 1_555 1_555
H7 C11 1_555 1_555
C12 O7 1_555 1_555
H8 O2 1_555 1_555
Sm1H O1 1_555 1_555
Sm1E O4 1_555 1_555
Sm1C O6 1_555 1_555
Sm1M O8 1_555 1_555
Sm1E_2 O1E 1_555 1_555
Sm1I O1E 1_555 1_555
Sm1F O4E 1_555 1_555
Sm1J O8E 1_555 1_555
O1H Sm1 1_555 1_555
O1C Sm1C 1_555 1_555
O1O Sm1C 1_555 1_555
O1E C1E 1_555 1_555
N1C Sm1C 1_555 1_555
N1E Sm1E_2 1_555 1_555
C1E O3E 1_555 1_555
O2E C8E 1_555 1_555
O3H Sm1 1_555 1_555
O3O Sm1C 1_555 1_555
O3E Sm1I 1_555 1_555
C2E C1E 1_555 1_555
O4C Sm1 1_555 1_555
O4F Sm1C 1_555 1_555
O4E C8E 1_555 1_555
C3E C2E 1_555 1_555
H1E C3E 1_555 1_555
C4E C3E 1_555 1_555
H2E C4E 1_555 1_555
O5C Sm1C 1_555 1_555
O5E Sm1E_2 1_555 1_555
C5E C4E 1_555 1_555
O6E Sm1 1_555 1_555
C6E C5E 1_555 1_555
H3E C6E 1_555 1_555
O7C Sm1C 1_555 1_555
O7E Sm1E_2 1_555 1_555
C7E N1E 1_555 1_555
O8O Sm1 1_555 1_555
O8N Sm1C 1_555 1_555
O8E C12E 1_555 1_555
C8E C5E 1_555 1_555
C9E N1E 1_555 1_555
H4E C9E 1_555 1_555
H5E C9E 1_555 1_555
C10E O5E 1_555 1_555
C11E N1E 1_555 1_555
H6E C11E 1_555 1_555
H7E C11E 1_555 1_555
C12E O7E 1_555 1_555
H8E O2E 1_555 1_555
C2 C7 1_555 1_555
C6 C7 1_555 1_555
C9 C10 1_555 1_555
C11 C12 1_555 1_555
Sm1H O1H 1_555 1_555
C2E C7E 1_555 1_555
O6E C10E 1_555 1_555
C6E C7E 1_555 1_555
C9E C10E 1_555 1_555
C11E C12E 1_555 1_555

#END
