
#######################################################################
#
#                 Cambridge Crystallographic Data Centre
#                                CCDC 
#
#######################################################################
#
# If this CIF has been generated from an entry in the Cambridge 
# Structural Database, then it will include bibliographic, chemical, 
# crystal, experimental, refinement or atomic coordinate data resulting 
# from the CCDC's data processing and validation procedures.
#
#######################################################################

data_WEFKEX
_symmetry_cell_setting           monoclinic
_symmetry_space_group_name_H-M   'C 2/c'
_symmetry_Int_Tables_number      15
_space_group_name_Hall           '-C 2yn'
loop_
_symmetry_equiv_pos_site_id
_symmetry_equiv_pos_as_xyz
1 x,y,z
2 1/2+x,1/2+y,z
3 -x,y,1/2-z
4 1/2-x,1/2+y,1/2-z
5 -x,-y,-z
6 1/2-x,1/2-y,-z
7 x,-y,1/2+z
8 1/2+x,1/2-y,1/2+z
_cell_length_a                   20.727(2)
_cell_length_b                   9.382(1)
_cell_length_c                   13.003(1)
_cell_angle_alpha                90
_cell_angle_beta                 120.74(1)
_cell_angle_gamma                90
_cell_volume                     2173.3
loop_
_atom_site_label
_atom_site_type_symbol
_atom_site_fract_x
_atom_site_fract_y
_atom_site_fract_z
Cd1 Cd 0.00000 0.00000 0.00000
Cd2 Cd 0.00000 0.10835(3) 0.25000
N1 N -0.0870(2) 0.0933(3) 0.0445(2)
C1 C -0.1511(2) 0.0707(4) -0.0071(3)
O1 O -0.2169(2) 0.0488(5) -0.0615(3)
N2 N 0.0631(2) -0.0605(3) 0.1995(2)
C2 C 0.0879(3) -0.1708(5) 0.2317(3)
O2 O 0.1163(4) -0.2827(5) 0.2667(4)
O3 O 0.0677(2) 0.2811(3) 0.2241(2)
O4 O 0.0607(2) 0.2205(3) 0.0518(2)
C3 C 0.0833(2) 0.2937(3) 0.1434(3)
C4 C 0.1373(2) 0.4168(4) 0.1696(3)
N3 N 0.1572(2) 0.4564(3) 0.0771(2)
C5 C 0.0902(3) 0.5041(5) -0.0366(4)
C6 C 0.2119(3) 0.5771(5) 0.1275(5)
C7 C 0.1955(3) 0.3355(5) 0.0555(5)
H1 H 0.1828 0.3980 0.2439
H2 H 0.1146 0.4994 0.1815
H3 H 0.0680 0.5810 -0.0166
H4 H 0.1032 0.5367 -0.0936
H5 H 0.0549 0.4271 -0.0705
H6 H 0.1890 0.6570 0.1427
H7 H 0.2555 0.5476 0.2009
H8 H 0.2265 0.6042 0.0710
H9 H 0.1621 0.2556 0.0231
H10 H 0.2103 0.3653 -0.0002
H11 H 0.2392 0.3086 0.1296
N1D N 0.0870(2) -0.0933(3) -0.0445(2)
N2D N -0.0631(2) 0.0605(3) -0.1995(2)
O4D O -0.0607(2) -0.2205(3) -0.0518(2)
N1B N 0.0870(2) 0.0933(3) 0.4555(2)
N2B N -0.0631(2) -0.0605(3) 0.3005(2)
O3B O -0.0677(2) 0.2811(3) 0.2759(2)
Cd2D Cd 0.00000 -0.10835(3) -0.25000
C1D C 0.1511(2) -0.0707(4) 0.0071(3)
C3D C -0.0833(2) -0.2937(3) -0.1434(3)
Cd1B Cd 0.00000 0.00000 0.50000
C1B C 0.1511(2) 0.0707(4) 0.5071(3)
O3D O -0.0677(2) -0.2811(3) -0.2241(2)
O1D O 0.2169(2) -0.0488(5) 0.0615(3)
C4D C -0.1373(2) -0.4168(4) -0.1696(3)
O1B O 0.2169(2) 0.0488(5) 0.5615(3)
N3D N -0.1572(2) -0.4564(3) -0.0771(2)
H1D H -0.1828 -0.3980 -0.2439
H2D H -0.1146 -0.4994 -0.1815
C5D C -0.0902(3) -0.5041(5) 0.0366(4)
C6D C -0.2119(3) -0.5771(5) -0.1275(5)
C7D C -0.1955(3) -0.3355(5) -0.0555(5)
H3D H -0.0680 -0.5810 0.0166
H4D H -0.1032 -0.5367 0.0936
H5D H -0.0549 -0.4271 0.0705
H6D H -0.1890 -0.6570 -0.1427
H7D H -0.2555 -0.5476 -0.2009
H8D H -0.2265 -0.6042 -0.0710
H9D H -0.1621 -0.2556 -0.0231
H10D H -0.2103 -0.3653 0.0002
H11D H -0.2392 -0.3086 -0.1296
loop_
_geom_bond_atom_site_label_1
_geom_bond_atom_site_label_2
_geom_bond_site_symmetry_1
_geom_bond_site_symmetry_2
Cd1 N1 1_555 1_555
Cd2 N1 1_555 1_555
N1 C1 1_555 1_555
C1 O1 1_555 1_555
N2 Cd1 1_555 1_555
C2 N2 1_555 1_555
O2 C2 1_555 1_555
O3 Cd2 1_555 1_555
O4 Cd1 1_555 1_555
C3 O3 1_555 1_555
C4 C3 1_555 1_555
N3 C4 1_555 1_555
C5 N3 1_555 1_555
C6 N3 1_555 1_555
C7 N3 1_555 1_555
H1 C4 1_555 1_555
H2 C4 1_555 1_555
H3 C5 1_555 1_555
H4 C5 1_555 1_555
H5 C5 1_555 1_555
H6 C6 1_555 1_555
H7 C6 1_555 1_555
H8 C6 1_555 1_555
H9 C7 1_555 1_555
H10 C7 1_555 1_555
H11 C7 1_555 1_555
N1D Cd1 1_555 1_555
N2D Cd1 1_555 1_555
O4D Cd1 1_555 1_555
N1B Cd2 1_555 1_555
N2B Cd2 1_555 1_555
O3B Cd2 1_555 1_555
Cd2D N1D 1_555 1_555
C1D N1D 1_555 1_555
C3D O4D 1_555 1_555
Cd1B N1B 1_555 1_555
C1B N1B 1_555 1_555
O3D Cd2D 1_555 1_555
O1D C1D 1_555 1_555
C4D C3D 1_555 1_555
O1B C1B 1_555 1_555
N3D C4D 1_555 1_555
H1D C4D 1_555 1_555
H2D C4D 1_555 1_555
C5D N3D 1_555 1_555
C6D N3D 1_555 1_555
C7D N3D 1_555 1_555
H3D C5D 1_555 1_555
H4D C5D 1_555 1_555
H5D C5D 1_555 1_555
H6D C6D 1_555 1_555
H7D C6D 1_555 1_555
H8D C6D 1_555 1_555
H9D C7D 1_555 1_555
H10D C7D 1_555 1_555
H11D C7D 1_555 1_555
Cd2 N2 1_555 1_555
O4 C3 1_555 1_555
N2D Cd2D 1_555 1_555
N2B Cd1B 1_555 1_555
C3D O3D 1_555 1_555

#END
