
#######################################################################
#
#                 Cambridge Crystallographic Data Centre
#                                CCDC 
#
#######################################################################
#
# If this CIF has been generated from an entry in the Cambridge 
# Structural Database, then it will include bibliographic, chemical, 
# crystal, experimental, refinement or atomic coordinate data resulting 
# from the CCDC's data processing and validation procedures.
#
#######################################################################

data_WEFRAB01
_symmetry_cell_setting           triclinic
_symmetry_space_group_name_H-M   'P -1'
_symmetry_Int_Tables_number      2
_space_group_name_Hall           '-P 1'
loop_
_symmetry_equiv_pos_site_id
_symmetry_equiv_pos_as_xyz
1 x,y,z
2 -x,-y,-z
_cell_length_a                   10.196(5)
_cell_length_b                   10.710(6)
_cell_length_c                   13.590(7)
_cell_angle_alpha                82.447(12)
_cell_angle_beta                 84.181(12)
_cell_angle_gamma                84.620(13)
_cell_volume                     1458.68
loop_
_atom_site_label
_atom_site_type_symbol
_atom_site_fract_x
_atom_site_fract_y
_atom_site_fract_z
Cu1 Cu 0.52519(8) 0.84937(9) 0.85846(6)
P1 P 0.34264(17) 0.86788(18) 0.78490(13)
N1 N 0.5938(5) 0.7028(5) 0.9581(4)
N2 N 0.5223(5) 0.9395(5) 0.9885(4)
N3 N 0.6849(6) 0.8860(6) 0.7613(4)
C1 C 0.6446(8) 0.5893(7) 0.9415(6)
H1 H 0.6398 0.5653 0.8788
C2 C 0.7044(8) 0.5036(8) 1.0113(6)
H2 H 0.7399 0.4246 0.9960
C3 C 0.7097(9) 0.5392(8) 1.1038(7)
H3 H 0.7502 0.4844 1.1527
C4 C 0.6559(8) 0.6536(8) 1.1234(5)
H4 H 0.6556 0.6772 1.1869
C5 C 0.6017(6) 0.7353(6) 1.0496(5)
C6 C 0.5527(7) 0.8623(7) 1.0631(5)
H5 H 0.5433 0.8879 1.1264
C7 C 0.7304(8) 0.8026(10) 0.6986(6)
H6 H 0.6953 0.7244 0.7074
C8 C 0.8246(9) 0.8260(13) 0.6230(7)
H7 H 0.8532 0.7635 0.5824
C9 C 0.8780(8) 0.9375(13) 0.6051(6)
C10 C 0.8373(8) 1.0201(10) 0.6709(8)
H8 H 0.8749 1.0969 0.6647
C11 C 0.7398(8) 0.9921(9) 0.7479(6)
H9 H 0.7130 1.0517 0.7914
C12 C 0.9754(9) 0.9592(14) 0.5192(9)
H10 H 1.0018 0.8859 0.4901
C13 C 0.3002(7) 1.0248(7) 0.7241(5)
C14 C 0.3915(9) 1.0801(9) 0.6550(7)
H11 H 0.4723 1.0356 0.6399
C15 C 0.3657(12) 1.2007(10) 0.6073(8)
H12 H 0.4299 1.2382 0.5625
C16 C 0.2458(13) 1.2645(10) 0.6261(9)
H13 H 0.2263 1.3442 0.5922
C17 C 0.1561(11) 1.2118(9) 0.6936(9)
H14 H 0.0749 1.2561 0.7076
C18 C 0.1826(8) 1.0935(8) 0.7425(6)
H15 H 0.1188 1.0589 0.7894
C19 C 0.1964(7) 0.8291(7) 0.8641(6)
C20 C 0.1880(8) 0.8522(9) 0.9622(6)
H16 H 0.2581 0.8858 0.9855
C21 C 0.0787(11) 0.8267(12) 1.0253(8)
H17 H 0.0760 0.8416 1.0914
C22 C -0.0225(12) 0.7816(13) 0.9945(12)
H18 H -0.0985 0.7704 1.0376
C23 C -0.0178(10) 0.7498(13) 0.8966(12)
H19 H -0.0865 0.7108 0.8763
C24 C 0.0904(9) 0.7776(10) 0.8323(8)
H20 H 0.0930 0.7619 0.7664
C25 C 0.3464(7) 0.7690(7) 0.6862(5)
C26 C 0.4149(7) 0.6545(7) 0.6944(6)
H21 H 0.4638 0.6312 0.7490
C27 C 0.4155(9) 0.5698(8) 0.6250(7)
H22 H 0.4622 0.4909 0.6338
C28 C 0.3456(10) 0.6055(10) 0.5433(7)
H23 H 0.3441 0.5507 0.4958
C29 C 0.2790(10) 0.7213(10) 0.5325(6)
H24 H 0.2327 0.7457 0.4767
C30 C 0.2784(9) 0.8024(9) 0.6015(7)
H25 H 0.2319 0.8814 0.5920
Cu1A Cu 0.47481(8) 1.15063(9) 1.14154(6)
Cu1A_2 Cu 1.47481(8) 1.15063(9) 0.14154(6)
P1A P 0.65736(17) 1.13212(18) 1.21510(13)
N1A N 0.4062(5) 1.2972(5) 1.0419(4)
N2A N 0.4777(5) 1.0605(5) 1.0115(4)
N3A N 1.3151(6) 1.1140(6) 0.2387(4)
N3A_2 N 0.3151(6) 1.1140(6) 1.2387(4)
C1A C 0.3554(8) 1.4107(7) 1.0585(6)
H1A H 0.3602 1.4347 1.1212
C2A C 0.2956(8) 1.4964(8) 0.9887(6)
H2A H 0.2601 1.5754 1.0040
C3A C 0.2903(9) 1.4608(8) 0.8962(7)
H3A H 0.2498 1.5156 0.8473
C4A C 0.3441(8) 1.3464(8) 0.8766(5)
H4A H 0.3444 1.3228 0.8131
C5A C 0.3983(6) 1.2647(6) 0.9504(5)
C6A C 0.4473(7) 1.1377(7) 0.9369(5)
H5A H 0.4567 1.1121 0.8736
C7A C 1.2696(8) 1.1974(10) 0.3014(6)
H6A H 1.3047 1.2756 0.2926
C8A C 1.1754(9) 1.1740(13) 0.3770(7)
H7A H 1.1468 1.2365 0.4176
C9A C 1.1220(8) 1.0625(13) 0.3949(6)
C10A C 1.1627(8) 0.9799(10) 0.3291(8)
H8A H 1.1251 0.9031 0.3353
C11A C 1.2602(8) 1.0079(9) 0.2521(6)
H9A H 1.2870 0.9483 0.2086
C12A C 1.0246(9) 1.0408(14) 0.4808(9)
H10A H 0.9982 1.1141 0.5099
C13A C 0.6998(7) 0.9752(7) 1.2759(5)
C14A C 0.6085(9) 0.9199(9) 1.3450(7)
H11A H 0.5277 0.9644 1.3601
C15A C 0.6343(12) 0.7993(10) 1.3927(8)
H12A H 0.5701 0.7618 1.4375
C16A C 0.7542(13) 0.7355(10) 1.3739(9)
H13A H 0.7737 0.6558 1.4078
C17A C 0.8439(11) 0.7882(9) 1.3064(9)
H14A H 0.9251 0.7439 1.2924
C18A C 0.8174(8) 0.9065(8) 1.2575(6)
H15A H 0.8812 0.9411 1.2106
C19A C 0.8036(7) 1.1709(7) 1.1359(6)
C20A C 0.8120(8) 1.1478(9) 1.0378(6)
H16A H 0.7419 1.1142 1.0145
C21A C 0.9213(11) 1.1733(12) 0.9747(8)
H17A H 0.9240 1.1584 0.9086
C22A C 1.0225(12) 1.2184(13) 1.0055(12)
H18A H 1.0985 1.2296 0.9624
C23A C 1.0178(10) 1.2502(13) 1.1034(12)
H19A H 1.0865 1.2892 1.1237
C24A C 0.9096(9) 1.2224(10) 1.1677(8)
H20A H 0.9070 1.2381 1.2336
C25A C 0.6536(7) 1.2310(7) 1.3138(5)
C26A C 0.5851(7) 1.3455(7) 1.3056(6)
H21A H 0.5362 1.3688 1.2510
C27A C 0.5845(9) 1.4302(8) 1.3750(7)
H22A H 0.5378 1.5091 1.3662
C28A C 0.6544(10) 1.3945(10) 1.4567(7)
H23A H 0.6559 1.4493 1.5042
C29A C 0.7210(10) 1.2787(10) 1.4675(6)
H24A H 0.7673 1.2543 1.5233
C30A C 0.7216(9) 1.1976(9) 1.3985(7)
H25A H 0.7681 1.1186 1.4080
B1 B 0.7049(12) 0.3420(12) 0.7463(10)
F1 F 0.8254(10) 0.3000(11) 0.7041(11)
F2 F 0.6102(11) 0.2875(12) 0.7066(10)
F3 F 0.6970(15) 0.3059(14) 0.8471(9)
F4 F 0.6818(12) 0.4687(10) 0.7288(11)
B2? B 0.7851(17) 0.3972(17) 0.7316(14)
F5? F 0.704(2) 0.496(2) 0.6937(19)
F6? F 0.8590(18) 0.4389(18) 0.7966(13)
F7? F 0.8651(17) 0.3538(17) 0.6549(13)
F8? F 0.716(3) 0.301(2) 0.780(2)
loop_
_geom_bond_atom_site_label_1
_geom_bond_atom_site_label_2
_geom_bond_site_symmetry_1
_geom_bond_site_symmetry_2
Cu1 P1 1_555 1_555
P1 C13 1_555 1_555
N1 Cu1 1_555 1_555
N2 Cu1 1_555 1_555
N3 Cu1 1_555 1_555
C1 N1 1_555 1_555
H1 C1 1_555 1_555
C2 C1 1_555 1_555
H2 C2 1_555 1_555
C3 C2 1_555 1_555
H3 C3 1_555 1_555
C4 C3 1_555 1_555
H4 C4 1_555 1_555
C5 N1 1_555 1_555
C6 N2 1_555 1_555
H5 C6 1_555 1_555
C7 N3 1_555 1_555
H6 C7 1_555 1_555
C8 C7 1_555 1_555
H7 C8 1_555 1_555
C9 C8 1_555 1_555
C10 C9 1_555 1_555
H8 C10 1_555 1_555
C11 N3 1_555 1_555
H9 C11 1_555 1_555
C12 C9 1_555 1_555
H10 C12 1_555 1_555
C13 C14 1_555 1_555
C14 H11 1_555 1_555
C15 C14 1_555 1_555
H12 C15 1_555 1_555
C16 C15 1_555 1_555
H13 C16 1_555 1_555
C17 C16 1_555 1_555
H14 C17 1_555 1_555
C18 C13 1_555 1_555
H15 C18 1_555 1_555
C19 P1 1_555 1_555
C20 C19 1_555 1_555
H16 C20 1_555 1_555
C21 C20 1_555 1_555
H17 C21 1_555 1_555
C22 C21 1_555 1_555
H18 C22 1_555 1_555
C23 C22 1_555 1_555
H19 C23 1_555 1_555
C24 C19 1_555 1_555
H20 C24 1_555 1_555
C25 P1 1_555 1_555
C26 C25 1_555 1_555
H21 C26 1_555 1_555
C27 C26 1_555 1_555
H22 C27 1_555 1_555
C28 C27 1_555 1_555
H23 C28 1_555 1_555
C29 C28 1_555 1_555
H24 C29 1_555 1_555
C30 C25 1_555 1_555
H25 C30 1_555 1_555
B1 F1 1_555 1_555
F2 B1 1_555 1_555
F3 B1 1_555 1_555
F4 B1 1_555 1_555
Cu1A P1A 1_555 1_555
Cu1A_2 N3A 1_555 1_555
P1A C13A 1_555 1_555
N1A Cu1A 1_555 1_555
N2A N2 1_555 1_555
N3A C7A 1_555 1_555
N3A_2 Cu1A 1_555 1_555
C1A N1A 1_555 1_555
H1A C1A 1_555 1_555
C2A C1A 1_555 1_555
H2A C2A 1_555 1_555
C3A C2A 1_555 1_555
H3A C3A 1_555 1_555
C4A C3A 1_555 1_555
H4A C4A 1_555 1_555
C5A N1A 1_555 1_555
C6A N2A 1_555 1_555
H5A C6A 1_555 1_555
C7A H6A 1_555 1_555
C8A C7A 1_555 1_555
H7A C8A 1_555 1_555
C9A C8A 1_555 1_555
C10A C9A 1_555 1_555
H8A C10A 1_555 1_555
C11A N3A 1_555 1_555
H9A C11A 1_555 1_555
C12A C12 1_555 1_555
H10A C12A 1_555 1_555
C13A C14A 1_555 1_555
C14A H11A 1_555 1_555
C15A C14A 1_555 1_555
H12A C15A 1_555 1_555
C16A C15A 1_555 1_555
H13A C16A 1_555 1_555
C17A C16A 1_555 1_555
H14A C17A 1_555 1_555
C18A C13A 1_555 1_555
H15A C18A 1_555 1_555
C19A P1A 1_555 1_555
C20A C19A 1_555 1_555
H16A C20A 1_555 1_555
C21A C20A 1_555 1_555
H17A C21A 1_555 1_555
C22A C21A 1_555 1_555
H18A C22A 1_555 1_555
C23A C22A 1_555 1_555
H19A C23A 1_555 1_555
C24A C19A 1_555 1_555
H20A C24A 1_555 1_555
C25A P1A 1_555 1_555
C26A C25A 1_555 1_555
H21A C26A 1_555 1_555
C27A C26A 1_555 1_555
H22A C27A 1_555 1_555
C28A C27A 1_555 1_555
H23A C28A 1_555 1_555
C29A C28A 1_555 1_555
H24A C29A 1_555 1_555
C30A C25A 1_555 1_555
H25A C30A 1_555 1_555
C4 C5 1_555 1_555
C5 C6 1_555 1_555
C10 C11 1_555 1_555
C17 C18 1_555 1_555
C23 C24 1_555 1_555
C29 C30 1_555 1_555
Cu1A N2A 1_555 1_555
C4A C5A 1_555 1_555
C5A C6A 1_555 1_555
C9A C12A 1_555 1_555
C10A C11A 1_555 1_555
C17A C18A 1_555 1_555
C23A C24A 1_555 1_555
C29A C30A 1_555 1_555

#END
