
#######################################################################
#
#                 Cambridge Crystallographic Data Centre
#                                CCDC 
#
#######################################################################
#
# If this CIF has been generated from an entry in the Cambridge 
# Structural Database, then it will include bibliographic, chemical, 
# crystal, experimental, refinement or atomic coordinate data resulting 
# from the CCDC's data processing and validation procedures.
#
#######################################################################

data_WEFSEF
_symmetry_cell_setting           cubic
_symmetry_space_group_name_H-M   'P 21 3'
_symmetry_Int_Tables_number      198
_space_group_name_Hall           'P 2ac 2ab 3'
loop_
_symmetry_equiv_pos_site_id
_symmetry_equiv_pos_as_xyz
1 x,y,z
2 z,x,y
3 y,z,x
4 1/2+x,1/2-y,-z
5 1/2+z,1/2-x,-y
6 1/2+y,1/2-z,-x
7 -x,1/2+y,1/2-z
8 -z,1/2+x,1/2-y
9 -y,1/2+z,1/2-x
10 1/2-x,-y,1/2+z
11 1/2-z,-x,1/2+y
12 1/2-y,-z,1/2+x
_cell_length_a                   15.254(2)
_cell_length_b                   15.254(2)
_cell_length_c                   15.254(2)
_cell_angle_alpha                90
_cell_angle_beta                 90
_cell_angle_gamma                90
_cell_volume                     3549.37
loop_
_atom_site_label
_atom_site_type_symbol
_atom_site_fract_x
_atom_site_fract_y
_atom_site_fract_z
Pt1 Pt 0.42246(4) 0.42246(4) 0.42246(4)
Pt2 Pt 0.29500(4) 0.29500(4) 0.29500(4)
C1 C 0.5605(10) 0.4139(11) 0.4371(13)
C2 C 0.1901(11) 0.2177(12) 0.3333(11)
S1 S 0.4069(3) 0.2615(2) 0.4078(3)
C3 C 0.3741(10) 0.2164(11) 0.5138(10)
C4 C 0.4581(10) 0.2025(11) 0.5687(10)
C5 C 0.4393(11) 0.1633(11) 0.6551(10)
C6 C 0.3079(11) 0.0939(11) 0.6007(10)
C7 C 0.3237(10) 0.1329(10) 0.5092(10)
C8 C 0.3799(13) 0.0393(14) 0.7332(11)
N1 N 0.3934(8) 0.0792(9) 0.6466(8)
Na1 Na 0.4620(8) -0.0380(8) 0.5380(8)
H1 H 0.3373(10) 0.2605(11) 0.5440(10)
H2 H 0.4983(10) 0.1642(11) 0.5364(10)
H3 H 0.4873(10) 0.2591(11) 0.5771(10)
H4 H 0.4945(11) 0.1543(11) 0.6868(10)
H5 H 0.4032(11) 0.2039(11) 0.6895(10)
H6 H 0.2715(11) 0.1341(11) 0.6352(10)
H7 H 0.2765(11) 0.0382(11) 0.5952(10)
H8 H 0.3562(10) 0.0905(10) 0.4734(10)
H9 H 0.2672(10) 0.1437(10) 0.4806(10)
H10 H 0.3539(76) -0.0183(37) 0.7262(11)
H11 H 0.3411(67) 0.0760(45) 0.7677(31)
H12 H 0.4359(17) 0.0338(75) 0.7629(35)
C1A C 0.4371(13) 0.5605(10) 0.4139(11)
C1B C 0.4139(11) 0.4371(13) 0.5605(10)
S1A S 0.4078(3) 0.4069(3) 0.2615(2)
C3A C 0.5138(10) 0.3741(10) 0.2164(11)
C4A C 0.5687(10) 0.4581(10) 0.2025(11)
C5A C 0.6551(10) 0.4393(11) 0.1633(11)
C6A C 0.6007(10) 0.3079(11) 0.0939(11)
C7A C 0.5092(10) 0.3237(10) 0.1329(10)
C8A C 0.7332(11) 0.3799(13) 0.0393(14)
N1A N 0.6466(8) 0.3934(8) 0.0792(9)
H1A H 0.5440(10) 0.3373(10) 0.2605(11)
H2A H 0.5364(10) 0.4983(10) 0.1642(11)
H3A H 0.5771(10) 0.4873(10) 0.2591(11)
H4A H 0.6868(10) 0.4945(11) 0.1543(11)
H5A H 0.6895(10) 0.4032(11) 0.2039(11)
H6A H 0.6352(10) 0.2715(11) 0.1341(11)
H7A H 0.5952(10) 0.2765(11) 0.0382(11)
H8A H 0.4734(10) 0.3562(10) 0.0905(10)
H9A H 0.4806(10) 0.2672(10) 0.1437(10)
H10A H 0.7262(11) 0.3539(76) -0.0183(37)
H11A H 0.7677(31) 0.3411(67) 0.0760(45)
H12A H 0.7629(35) 0.4359(17) 0.0338(75)
S1B S 0.2615(2) 0.4078(3) 0.4069(3)
C3B C 0.2164(11) 0.5138(10) 0.3741(10)
C4B C 0.2025(11) 0.5687(10) 0.4581(10)
C5B C 0.1633(11) 0.6551(10) 0.4393(11)
C6B C 0.0939(11) 0.6007(10) 0.3079(11)
C7B C 0.1329(10) 0.5092(10) 0.3237(10)
C8B C 0.0393(14) 0.7332(11) 0.3799(13)
N1B N 0.0792(9) 0.6466(8) 0.3934(8)
H1B H 0.2605(11) 0.5440(10) 0.3373(10)
H2B H 0.1642(11) 0.5364(10) 0.4983(10)
H3B H 0.2591(11) 0.5771(10) 0.4873(10)
H4B H 0.1543(11) 0.6868(10) 0.4945(11)
H5B H 0.2039(11) 0.6895(10) 0.4032(11)
H6B H 0.1341(11) 0.6352(10) 0.2715(11)
H7B H 0.0382(11) 0.5952(10) 0.2765(11)
H8B H 0.0905(10) 0.4734(10) 0.3562(10)
H9B H 0.1437(10) 0.4806(10) 0.2672(10)
H10B H -0.0183(37) 0.7262(11) 0.3539(76)
H11B H 0.0760(45) 0.7677(31) 0.3411(67)
H12B H 0.0338(75) 0.7629(35) 0.4359(17)
C2A C 0.3333(11) 0.1901(11) 0.2177(12)
C2B C 0.2177(12) 0.3333(11) 0.1901(11)
N1E N 0.5792(9) -0.1466(8) 0.6066(8)
N1G N 0.3534(8) -0.1066(8) 0.4208(9)
Na1A Na 0.5380(8) 0.4620(8) -0.0380(8)
Na1B Na -0.0380(8) 0.5380(8) 0.4620(8)
N2 N 0.7765(13) 0.7765(13) 0.7765(13)
C9 C 0.8196(12) 0.8196(12) 0.8196(12)
C10 C 0.8734(13) 0.8734(13) 0.8734(13)
H13 H 0.8376(29) 0.901(10) 0.918(13)
H13A H 0.918(13) 0.8376(29) 0.901(10)
H13B H 0.901(10) 0.918(13) 0.8376(29)
loop_
_geom_bond_atom_site_label_1
_geom_bond_atom_site_label_2
_geom_bond_site_symmetry_1
_geom_bond_site_symmetry_2
Pt1 C1 1_555 1_555
Pt2 C2 1_555 1_555
S1 Pt1 1_555 1_555
C3 S1 1_555 1_555
C4 C3 1_555 1_555
C5 C4 1_555 1_555
C6 C7 1_555 1_555
C7 C3 1_555 1_555
C8 N1 1_555 1_555
N1 C5 1_555 1_555
Na1 N1 1_555 1_555
N2 C9 1_555 1_555
C9 C10 1_555 1_555
C10 H13 1_555 1_555
H1 C3 1_555 1_555
H2 C4 1_555 1_555
H3 C4 1_555 1_555
H4 C5 1_555 1_555
H5 C5 1_555 1_555
H6 C6 1_555 1_555
H7 C6 1_555 1_555
H8 C7 1_555 1_555
H9 C7 1_555 1_555
H10 C8 1_555 1_555
H11 C8 1_555 1_555
H12 C8 1_555 1_555
H13A C10 1_555 1_555
H13B C10 1_555 1_555
C1A Pt1 1_555 1_555
C1B Pt1 1_555 1_555
S1A Pt1 1_555 1_555
C3A S1A 1_555 1_555
C4A C3A 1_555 1_555
C5A C4A 1_555 1_555
C6A C7A 1_555 1_555
C7A C3A 1_555 1_555
C8A N1A 1_555 1_555
N1A C5A 1_555 1_555
H1A C3A 1_555 1_555
H2A C4A 1_555 1_555
H3A C4A 1_555 1_555
H4A C5A 1_555 1_555
H5A C5A 1_555 1_555
H6A C6A 1_555 1_555
H7A C6A 1_555 1_555
H8A C7A 1_555 1_555
H9A C7A 1_555 1_555
H10A C8A 1_555 1_555
H11A C8A 1_555 1_555
H12A C8A 1_555 1_555
S1B Pt1 1_555 1_555
C3B S1B 1_555 1_555
C4B C3B 1_555 1_555
C5B C4B 1_555 1_555
C6B C7B 1_555 1_555
C7B C3B 1_555 1_555
C8B N1B 1_555 1_555
N1B C5B 1_555 1_555
H1B C3B 1_555 1_555
H2B C4B 1_555 1_555
H3B C4B 1_555 1_555
H4B C5B 1_555 1_555
H5B C5B 1_555 1_555
H6B C6B 1_555 1_555
H7B C6B 1_555 1_555
H8B C7B 1_555 1_555
H9B C7B 1_555 1_555
H10B C8B 1_555 1_555
H11B C8B 1_555 1_555
H12B C8B 1_555 1_555
C2A Pt2 1_555 1_555
C2B Pt2 1_555 1_555
N1E Na1 1_555 1_555
N1G Na1 1_555 1_555
Na1A N1A 1_555 1_555
Na1B N1B 1_555 1_555
Pt2 S1 1_555 1_555
Pt2 S1A 1_555 1_555
Pt2 S1B 1_555 1_555
C6 N1 1_555 1_555
C6A N1A 1_555 1_555
C6B N1B 1_555 1_555

#END
