
#######################################################################
#
#                 Cambridge Crystallographic Data Centre
#                                CCDC 
#
#######################################################################
#
# If this CIF has been generated from an entry in the Cambridge 
# Structural Database, then it will include bibliographic, chemical, 
# crystal, experimental, refinement or atomic coordinate data resulting 
# from the CCDC's data processing and validation procedures.
#
#######################################################################

data_WEFSAC
_symmetry_cell_setting           monoclinic
_symmetry_space_group_name_H-M   'P 21/c'
_symmetry_Int_Tables_number      14
_space_group_name_Hall           '-P 2ybc'
loop_
_symmetry_equiv_pos_site_id
_symmetry_equiv_pos_as_xyz
1 x,y,z
2 -x,1/2+y,1/2-z
3 -x,-y,-z
4 x,1/2-y,1/2+z
_cell_length_a                   9.7497(5)
_cell_length_b                   10.1560(5)
_cell_length_c                   10.2458(5)
_cell_angle_alpha                90
_cell_angle_beta                 96.5210(10)
_cell_angle_gamma                90
_cell_volume                     1007.95
loop_
_atom_site_label
_atom_site_type_symbol
_atom_site_fract_x
_atom_site_fract_y
_atom_site_fract_z
Zn1 Zn 0.5000 1.0000 1.0000
O1 O 0.5903(2) 1.1989(2) 1.2690(2)
O2 O 0.6741(2) 1.0445(2) 1.1477(2)
N1 N 0.5630(3) 0.7977(2) 1.0072(2)
H1 H 0.529(3) 0.759(3) 1.0700(17)
H2 H 0.525(3) 0.767(3) 0.9343(14)
N2 N 0.6322(3) 1.0193(3) 0.8473(3)
H3 H 0.589(3) 0.973(2) 0.787(2)
H4 H 0.638(3) 1.0986(13) 0.823(3)
C1 C 0.7104(3) 0.7689(3) 1.0132(3)
H5 H 0.7242 0.6745 1.0205
H6 H 0.7582 0.8095 1.0911
C2 C 0.7716(4) 0.8184(4) 0.8940(4)
H7 H 0.8661 0.7872 0.8986
H8 H 0.7209 0.7792 0.8167
C3 C 0.7720(4) 0.9656(4) 0.8757(4)
H9 H 0.8169 1.0065 0.9548
H10 H 0.8249 0.9873 0.8040
C4 C 0.6770(3) 1.1137(3) 1.2487(3)
C5 C 0.7930(3) 1.0885(3) 1.3560(3)
C6 C 0.7969(3) 1.1534(3) 1.4782(3)
H11 H 0.7300 1.2159 1.4909
C7 C 0.8942(3) 0.9998(3) 1.3374(3)
H12 H 0.8935 0.9591 1.2560
C8 C 0.9995(3) 0.9683(3) 1.4382(3)
C9 C 0.8969(3) 1.1258(3) 1.5773(3)
H13 H 0.8974 1.1697 1.6570
Zn1_2 Zn 1.5000 1.0000 2.0000
O1B O 1.4097(2) 0.8011(2) 1.7310(2)
O2B O 1.3259(2) 0.9555(2) 1.8523(2)
O2B_2 O 0.3259(2) 0.9555(2) 0.8523(2)
N1B N 0.4370(3) 1.2023(2) 0.9928(2)
H1B H 0.471(3) 1.241(3) 0.9300(17)
H2B H 0.475(3) 1.233(3) 1.0657(14)
N2B N 0.3678(3) 0.9807(3) 1.1527(3)
H3B H 0.411(3) 1.027(2) 1.213(2)
H4B H 0.362(3) 0.9014(13) 1.177(3)
C1B C 0.2896(3) 1.2311(3) 0.9868(3)
H5B H 0.2758 1.3255 0.9795
H6B H 0.2418 1.1905 0.9089
C2B C 0.2284(4) 1.1816(4) 1.1060(4)
H7B H 0.1339 1.2128 1.1014
H8B H 0.2791 1.2208 1.1833
C3B C 0.2280(4) 1.0344(4) 1.1243(4)
H9B H 0.1831 0.9935 1.0452
H10B H 0.1751 1.0127 1.1960
C4B C 1.3230(3) 0.8863(3) 1.7513(3)
C5B C 1.2070(3) 0.9115(3) 1.6440(3)
C6B C 1.2031(3) 0.8466(3) 1.5218(3)
H11B H 1.2700 0.7841 1.5091
C7B C 1.1058(3) 1.0002(3) 1.6626(3)
H12B H 1.1065 1.0409 1.7440
C8B C 1.0005(3) 1.0317(3) 1.5618(3)
C9B C 1.1031(3) 0.8742(3) 1.4227(3)
H13B H 1.1026 0.8303 1.3430
loop_
_geom_bond_atom_site_label_1
_geom_bond_atom_site_label_2
_geom_bond_site_symmetry_1
_geom_bond_site_symmetry_2
Zn1 O2 1_555 1_555
O1 C4 1_555 1_555
O2 C4 1_555 1_555
N1 Zn1 1_555 1_555
H1 N1 1_555 1_555
H2 N1 1_555 1_555
N2 Zn1 1_555 1_555
H3 N2 1_555 1_555
H4 N2 1_555 1_555
C1 N1 1_555 1_555
H5 C1 1_555 1_555
H6 C1 1_555 1_555
C2 C1 1_555 1_555
H7 C2 1_555 1_555
H8 C2 1_555 1_555
C3 N2 1_555 1_555
H9 C3 1_555 1_555
H10 C3 1_555 1_555
C4 C5 1_555 1_555
C5 C6 1_555 1_555
C6 H11 1_555 1_555
C7 C5 1_555 1_555
H12 C7 1_555 1_555
C8 C7 1_555 1_555
C9 C6 1_555 1_555
H13 C9 1_555 1_555
Zn1_2 O2B 1_555 1_555
O1B C4B 1_555 1_555
O2B C4B 1_555 1_555
O2B_2 Zn1 1_555 1_555
N1B Zn1 1_555 1_555
H1B N1B 1_555 1_555
H2B N1B 1_555 1_555
N2B Zn1 1_555 1_555
H3B N2B 1_555 1_555
H4B N2B 1_555 1_555
C1B N1B 1_555 1_555
H5B C1B 1_555 1_555
H6B C1B 1_555 1_555
C2B C1B 1_555 1_555
H7B C2B 1_555 1_555
H8B C2B 1_555 1_555
C3B N2B 1_555 1_555
H9B C3B 1_555 1_555
H10B C3B 1_555 1_555
C4B C5B 1_555 1_555
C5B C6B 1_555 1_555
C6B H11B 1_555 1_555
C7B C5B 1_555 1_555
H12B C7B 1_555 1_555
C8B C8 1_555 1_555
C9B C8 1_555 1_555
H13B C9B 1_555 1_555
C2 C3 1_555 1_555
C9 C8B 1_555 1_555
C2B C3B 1_555 1_555
C6B C9B 1_555 1_555
C7B C8B 1_555 1_555

#END
