
#######################################################################
#
#                 Cambridge Crystallographic Data Centre
#                                CCDC 
#
#######################################################################
#
# If this CIF has been generated from an entry in the Cambridge 
# Structural Database, then it will include bibliographic, chemical, 
# crystal, experimental, refinement or atomic coordinate data resulting 
# from the CCDC's data processing and validation procedures.
#
#######################################################################

data_WEFXAI
_symmetry_cell_setting           monoclinic
_symmetry_space_group_name_H-M   'P 21/c'
_symmetry_Int_Tables_number      14
_space_group_name_Hall           '-P 2ybc'
loop_
_symmetry_equiv_pos_site_id
_symmetry_equiv_pos_as_xyz
1 x,y,z
2 -x,1/2+y,1/2-z
3 -x,-y,-z
4 x,1/2-y,1/2+z
_cell_length_a                   7.5258(13)
_cell_length_b                   16.3434(45)
_cell_length_c                   17.6314(49)
_cell_angle_alpha                90
_cell_angle_beta                 94.065(15)
_cell_angle_gamma                90
_cell_volume                     2163.16
loop_
_atom_site_label
_atom_site_type_symbol
_atom_site_fract_x
_atom_site_fract_y
_atom_site_fract_z
Ni1 Ni 0.00000 0.00000 0.00000
C1 C 0.452210 0.203320 -0.143470
C2 C 0.307550 0.168190 -0.184740
S1 S 0.222430 0.072950 -0.156170
O1 O 0.076020 0.044870 -0.214160
O2 O 0.146960 0.082250 -0.078920
O3 O 0.371430 0.009980 -0.150810
C3 C 0.229720 0.207870 -0.248460
H1 H 0.130850 0.183860 -0.276670
C4 C 0.296570 0.282670 -0.270890
C5 C 0.441230 0.317790 -0.229620
H2 H 0.486920 0.368910 -0.244950
C6 C 0.519060 0.278110 -0.165900
H3 H 0.617930 0.302110 -0.137690
C7 C 0.533390 0.161930 -0.077000
C8 C 0.458270 0.151000 -0.00982
H4 H 0.343390 0.169150 0.001810
N1 N 0.576480 0.109540 0.037800
H5 H 0.558670 0.093640 0.088530
N2 N 0.724660 0.094840 0.000050
C9 C 0.698030 0.127220 -0.070900
H6 H 0.780030 0.125830 -0.109440
C10 C 0.215390 0.324050 -0.337360
C11 C 0.246090 0.402670 -0.358060
H7 H 0.324500 0.440120 -0.331520
N3 N 0.144850 0.418280 -0.423440
N4 N 0.051580 0.349300 -0.443130
H8 H -0.029750 0.342920 -0.48645
C12 C 0.095170 0.291070 -0.389930
H9 H 0.049640 0.236870 -0.389560
Ni1_2 Ni 1.00000 0.00000 0.00000
Ni1A Ni 0.00000 0.50000 -0.50000
Ni1_3 Ni -1.00000 0.00000 0.00000
Ni1A_2 Ni 0.00000 -0.50000 0.50000
C1B C -0.452210 -0.203320 0.143470
C2B C -0.307550 -0.168190 0.184740
S1B S -0.222430 -0.072950 0.156170
O1B O -0.076020 -0.044870 0.214160
O2B O -0.146960 -0.082250 0.078920
O3B O -0.371430 -0.009980 0.150810
C3B C -0.229720 -0.207870 0.248460
H1B H -0.130850 -0.183860 0.276670
C4B C -0.296570 -0.282670 0.270890
C5B C -0.441230 -0.317790 0.229620
H2B H -0.486920 -0.368910 0.244950
C6B C -0.519060 -0.278110 0.165900
H3B H -0.617930 -0.302110 0.137690
C7B C -0.533390 -0.161930 0.077000
C8B C -0.458270 -0.151000 0.00982
H4B H -0.343390 -0.169150 -0.001810
N1B N -0.576480 -0.109540 -0.037800
H5B H -0.558670 -0.093640 -0.088530
N2B N -0.724660 -0.094840 -0.000050
N2_2 N -0.275340 0.094840 0.000050
N2B_2 N 0.275340 -0.094840 -0.000050
C9B C -0.698030 -0.127220 0.070900
H6B H -0.780030 -0.125830 0.109440
C10B C -0.215390 -0.324050 0.337360
C11B C -0.246090 -0.402670 0.358060
H7B H -0.324500 -0.440120 0.331520
N3B N -0.144850 -0.418280 0.423440
N3A N -0.144850 -0.081720 -0.076560
N3C N 0.144850 0.081720 0.076560
N4B N -0.051580 -0.349300 0.443130
H8B H 0.029750 -0.342920 0.48645
C12B C -0.095170 -0.291070 0.389930
H9B H -0.049640 -0.236870 0.389560
O4 O 0.29482 0.638320 0.842490
H10 H 0.338962 0.523690 0.854113
N5 N 0.531736 0.587597 0.92201
C13 C 0.377366 0.577098 0.868874
C14 C 0.592373 0.671926 0.945318
H11 H 0.516007 0.711332 0.920386
H12 H 0.588756 0.677711 0.998800
H13 H 0.710815 0.680218 0.931550
C15 C 0.630791 0.514130 0.953671
H14 H 0.575789 0.465788 0.933384
H15 H 0.750734 0.516257 0.940229
H16 H 0.628675 0.513750 1.007479
loop_
_geom_bond_atom_site_label_1
_geom_bond_atom_site_label_2
_geom_bond_site_symmetry_1
_geom_bond_site_symmetry_2
Ni1 O2 1_555 1_555
C1 C2 1_555 1_555
C2 S1 1_555 1_555
S1 O1 1_555 1_555
O2 S1 1_555 1_555
O3 S1 1_555 1_555
C3 C2 1_555 1_555
H1 C3 1_555 1_555
C4 C3 1_555 1_555
C5 C4 1_555 1_555
H2 C5 1_555 1_555
C6 C1 1_555 1_555
H3 C6 1_555 1_555
C7 C1 1_555 1_555
C8 C7 1_555 1_555
H4 C8 1_555 1_555
N1 C8 1_555 1_555
H5 N1 1_555 1_555
N2 N1 1_555 1_555
C9 C7 1_555 1_555
H6 C9 1_555 1_555
C10 C4 1_555 1_555
C11 C10 1_555 1_555
H7 C11 1_555 1_555
N3 C11 1_555 1_555
N4 N3 1_555 1_555
H8 N4 1_555 1_555
C12 C10 1_555 1_555
H9 C12 1_555 1_555
O4 C13 1_555 1_555
H10 C13 1_555 1_555
N5 C13 1_555 1_555
C14 N5 1_555 1_555
H11 C14 1_555 1_555
H12 C14 1_555 1_555
H13 C14 1_555 1_555
C15 N5 1_555 1_555
H14 C15 1_555 1_555
H15 C15 1_555 1_555
H16 C15 1_555 1_555
Ni1_2 N2 1_555 1_555
Ni1A N3 1_555 1_555
Ni1_3 N2B 1_555 1_555
Ni1A_2 N3B 1_555 1_555
C1B C2B 1_555 1_555
C2B S1B 1_555 1_555
S1B O1B 1_555 1_555
O2B Ni1 1_555 1_555
O3B S1B 1_555 1_555
C3B C2B 1_555 1_555
H1B C3B 1_555 1_555
C4B C3B 1_555 1_555
C5B C4B 1_555 1_555
H2B C5B 1_555 1_555
C6B C1B 1_555 1_555
H3B C6B 1_555 1_555
C7B C1B 1_555 1_555
C8B C7B 1_555 1_555
H4B C8B 1_555 1_555
N1B C8B 1_555 1_555
H5B N1B 1_555 1_555
N2B N1B 1_555 1_555
N2_2 Ni1 1_555 1_555
N2B_2 Ni1 1_555 1_555
C9B C7B 1_555 1_555
H6B C9B 1_555 1_555
C10B C4B 1_555 1_555
C11B C10B 1_555 1_555
H7B C11B 1_555 1_555
N3B C11B 1_555 1_555
N3A Ni1 1_555 1_555
N3C Ni1 1_555 1_555
N4B N3B 1_555 1_555
H8B N4B 1_555 1_555
C12B C10B 1_555 1_555
H9B C12B 1_555 1_555
C5 C6 1_555 1_555
N2 C9 1_555 1_555
N4 C12 1_555 1_555
S1B O2B 1_555 1_555
C5B C6B 1_555 1_555
N2B C9B 1_555 1_555
N4B C12B 1_555 1_555

#END
