
#######################################################################
#
#                 Cambridge Crystallographic Data Centre
#                                CCDC 
#
#######################################################################
#
# If this CIF has been generated from an entry in the Cambridge 
# Structural Database, then it will include bibliographic, chemical, 
# crystal, experimental, refinement or atomic coordinate data resulting 
# from the CCDC's data processing and validation procedures.
#
#######################################################################

data_WEFXOU
_symmetry_cell_setting           orthorhombic
_symmetry_space_group_name_H-M   'F 2 d d'
_symmetry_Int_Tables_number      43
_space_group_name_Hall           'F -2d 2'
loop_
_symmetry_equiv_pos_site_id
_symmetry_equiv_pos_as_xyz
1 x,y,z
2 x,1/2+y,1/2+z
3 1/2+x,y,1/2+z
4 1/2+x,1/2+y,z
5 1/4+x,1/4-y,1/4+z
6 1/4+x,3/4-y,3/4+z
7 3/4+x,1/4-y,3/4+z
8 3/4+x,3/4-y,1/4+z
9 1/4+x,1/4+y,1/4-z
10 1/4+x,3/4+y,3/4-z
11 3/4+x,1/4+y,3/4-z
12 3/4+x,3/4+y,1/4-z
13 1/2+x,1/2-y,-z
14 1/2+x,-y,1/2-z
15 x,1/2-y,1/2-z
16 x,-y,-z
_cell_length_a                   11.096(4)
_cell_length_b                   31.507(10)
_cell_length_c                   39.71(3)
_cell_angle_alpha                90
_cell_angle_beta                 90
_cell_angle_gamma                90
_cell_volume                     13882.7
loop_
_atom_site_label
_atom_site_type_symbol
_atom_site_fract_x
_atom_site_fract_y
_atom_site_fract_z
Au1 Au 0.47818 0.10471(3) 0.35198(2)
Fe1 Fe 0.5737(3) -0.0189(1) 0.3749(1)
P1 P 0.3727(5) 0.0458(2) 0.3348(1)
P2 P 0.7571(5) -0.1001(2) 0.3530(2)
Cl1 Cl 0.6425(9) 0.1282(3) 0.3083(2)
C1 C 0.4070(19) -0.0009(7) 0.3604(5)
C2 C 0.4184(20) 0.0022(7) 0.3956(6)
C3 C 0.4414(18) -0.0413(7) 0.4059(7)
C4 C 0.4494(21) -0.0653(7) 0.3787(6)
C5 C 0.4255(17) -0.0418(6) 0.3512(5)
C6 C 0.7405(27) -0.0307(6) 0.3954(7)
C7 C 0.7364(21) -0.0460(5) 0.3631(5)
C8 C 0.7074(16) -0.0113(6) 0.3415(7)
C9 C 0.7001(20) 0.0254(8) 0.3596(8)
C10 C 0.7168(25) 0.0143(9) 0.3925(9)
C11 C 0.4733(12) 0.0409(4) 0.2709(4)
C12 C 0.4840 0.0246 0.2384
C13 C 0.4041 -0.0066 0.2272
C14 C 0.3135 -0.0214 0.2485
C15 C 0.3028 -0.0051 0.2810
C16 C 0.3827 0.0260 0.2922
C17 C 0.1404(14) 0.0309(4) 0.3608(4)
C18 C 0.0191 0.0413 0.3649
C19 C -0.0287 0.0767 0.3484
C20 C 0.0448 0.1016 0.3279
C21 C 0.1661 0.0912 0.3238
C22 C 0.2139 0.0559 0.3403
C23 C 0.6718(14) -0.0880(4) 0.2873(4)
C24 C 0.5874 -0.0928 0.2615
C25 C 0.4906 -0.1206 0.2656
C26 C 0.4783 -0.1436 0.2954
C27 C 0.5627 -0.1388 0.3212
C28 C 0.6595 -0.1110 0.3171
C29 C 0.9381(14) -0.1245(5) 0.3079(4)
C30 C 1.0585 -0.1283 0.2982
C31 C 1.1490 -0.1100 0.3178
C32 C 1.1192 -0.0878 0.3470
C33 C 0.9988 -0.0840 0.3567
C34 C 0.9083 -0.1024 0.3372
H1 H 0.4091 0.0270 0.4094
H2 H 0.4531 -0.0496 0.4289
H3 H 0.4659 -0.0952 0.3792
H4 H 0.4241 -0.0520 0.3284
H5 H 0.7561 -0.0470 0.4153
H6 H 0.6989 -0.0128 0.3174
H7 H 0.6834 0.0534 0.3514
H8 H 0.7149 0.0332 0.4114
H9 H 0.5282 0.0623 0.2786
H10 H 0.5464 0.0348 0.2237
H11 H 0.4115 -0.0178 0.2048
H12 H 0.2586 -0.0428 0.2408
H13 H 0.2405 -0.0153 0.2957
H14 H 0.1733 0.0066 0.3721
H15 H -0.0315 0.0242 0.3790
H16 H -0.1122 0.0838 0.3513
H17 H 0.0119 0.1259 0.3166
H18 H 0.2167 0.1083 0.3097
H19 H 0.7384 -0.0689 0.2844
H20 H 0.5958 -0.0770 0.2410
H21 H 0.4324 -0.1239 0.2479
H22 H 0.4117 -0.1627 0.2982
H23 H 0.5543 -0.1546 0.3417
H24 H 0.8759 -0.1372 0.2945
H25 H 1.0790 -0.1436 0.2781
H26 H 1.2318 -0.1126 0.3111
H27 H 1.1814 -0.0751 0.3605
H28 H 0.9783 -0.0688 0.3769
P2J P 0.5071(5) 0.1499(2) 0.3970(2)
Au1I Au 0.72818 -0.14529(3) 0.39802(2)
Cl2 Cl -0.2894(19) 0.2694(6) 0.2938(5)
C36 C -0.2163(34) 0.2222(9) 0.2896(18)
Cl4 Cl -0.0764(20) 0.2186(7) 0.3069(7)
Cl3 Cl -0.0010(42) 0.0380(12) -0.0092(10)
C35 C 0.1026(56) 0.00000 0.00000
Cl3O Cl -0.0010(42) -0.0380(12) 0.0092(10)
loop_
_geom_bond_atom_site_label_1
_geom_bond_atom_site_label_2
_geom_bond_site_symmetry_1
_geom_bond_site_symmetry_2
Au1 P1 1_555 1_555
Fe1 C1 1_555 1_555
P1 C1 1_555 1_555
P2 C7 1_555 1_555
Cl1 Au1 1_555 1_555
C1 C2 1_555 1_555
C2 Fe1 1_555 1_555
C3 Fe1 1_555 1_555
C4 Fe1 1_555 1_555
C5 Fe1 1_555 1_555
C6 Fe1 1_555 1_555
C7 Fe1 1_555 1_555
C8 Fe1 1_555 1_555
C9 Fe1 1_555 1_555
C10 Fe1 1_555 1_555
C11 C12 1_555 1_555
C12 C13 1_555 1_555
C13 C14 1_555 1_555
C14 C15 1_555 1_555
C15 C16 1_555 1_555
C16 P1 1_555 1_555
C17 C18 1_555 1_555
C18 C19 1_555 1_555
C19 C20 1_555 1_555
C20 C21 1_555 1_555
C21 C22 1_555 1_555
C22 P1 1_555 1_555
C23 C24 1_555 1_555
C24 C25 1_555 1_555
C25 C26 1_555 1_555
C26 C27 1_555 1_555
C27 C28 1_555 1_555
C28 P2 1_555 1_555
C29 C30 1_555 1_555
C30 C31 1_555 1_555
C31 C32 1_555 1_555
C32 C33 1_555 1_555
C33 C34 1_555 1_555
C34 P2 1_555 1_555
Cl2 C36 1_555 1_555
Cl3 C35 1_555 1_555
C35 Cl3O 1_555 1_555
C36 Cl4 1_555 1_555
H1 C2 1_555 1_555
H2 C3 1_555 1_555
H3 C4 1_555 1_555
H4 C5 1_555 1_555
H5 C6 1_555 1_555
H6 C8 1_555 1_555
H7 C9 1_555 1_555
H8 C10 1_555 1_555
H9 C11 1_555 1_555
H10 C12 1_555 1_555
H11 C13 1_555 1_555
H12 C14 1_555 1_555
H13 C15 1_555 1_555
H14 C17 1_555 1_555
H15 C18 1_555 1_555
H16 C19 1_555 1_555
H17 C20 1_555 1_555
H18 C21 1_555 1_555
H19 C23 1_555 1_555
H20 C24 1_555 1_555
H21 C25 1_555 1_555
H22 C26 1_555 1_555
H23 C27 1_555 1_555
H24 C29 1_555 1_555
H25 C30 1_555 1_555
H26 C31 1_555 1_555
H27 C32 1_555 1_555
H28 C33 1_555 1_555
P2J Au1 1_555 1_555
Au1I P2 1_555 1_555
C1 C5 1_555 1_555
C2 C3 1_555 1_555
C3 C4 1_555 1_555
C4 C5 1_555 1_555
C6 C7 1_555 1_555
C6 C10 1_555 1_555
C7 C8 1_555 1_555
C8 C9 1_555 1_555
C9 C10 1_555 1_555
C11 C16 1_555 1_555
C17 C22 1_555 1_555
C23 C28 1_555 1_555
C29 C34 1_555 1_555

#END
