
#######################################################################
#
#                 Cambridge Crystallographic Data Centre
#                                CCDC 
#
#######################################################################
#
# If this CIF has been generated from an entry in the Cambridge 
# Structural Database, then it will include bibliographic, chemical, 
# crystal, experimental, refinement or atomic coordinate data resulting 
# from the CCDC's data processing and validation procedures.
#
#######################################################################

data_WEFYAJ
_symmetry_cell_setting           orthorhombic
_symmetry_space_group_name_H-M   'P b c n'
_symmetry_Int_Tables_number      60
_space_group_name_Hall           '-P 2n 2ab'
loop_
_symmetry_equiv_pos_site_id
_symmetry_equiv_pos_as_xyz
1 x,y,z
2 1/2-x,1/2-y,1/2+z
3 -x,y,1/2-z
4 1/2+x,1/2-y,-z
5 -x,-y,-z
6 1/2+x,1/2+y,1/2-z
7 x,-y,1/2+z
8 1/2-x,1/2+y,z
_cell_length_a                   23.0203(9)
_cell_length_b                   12.5208(8)
_cell_length_c                   9.6251(4)
_cell_angle_alpha                90
_cell_angle_beta                 90
_cell_angle_gamma                90
_cell_volume                     2774.27
loop_
_atom_site_label
_atom_site_type_symbol
_atom_site_fract_x
_atom_site_fract_y
_atom_site_fract_z
Cu1 Cu 0.73209(3) 0.11083(8) 0.10595(9)
O1 O 0.71687(19) 0.1583(5) -0.0839(5)
O2 O 0.7636(2) 0.1986(4) -0.2810(5)
O3 O 0.7651(2) 0.0721(4) 0.2871(5)
O4 O 0.8471(2) 0.0834(5) 0.4091(5)
O5 O 0.7127(2) -0.0639(5) 0.0399(5)
N1 N 0.8154(3) 0.1211(7) 0.0543(6)
H1 H 0.8256 0.0531 0.0314
N2 N 0.6492(2) 0.1176(6) 0.1664(6)
C1 C 0.7627(3) 0.1789(6) -0.1542(7)
C2 C 0.8199(3) 0.1808(7) -0.0770(7)
H2 H 0.8499 0.1493 -0.1345
H3 H 0.8307 0.2542 -0.0576
C3 C 0.8490(3) 0.1446(9) 0.1741(8)
H4 H 0.8419 0.2211 0.1877
C4 C 0.8197(3) 0.0944(6) 0.3017(7)
C5 C 0.9138(3) 0.1377(8) 0.1753(8)
H5 H 0.9272 0.1550 0.2692
C6 C 0.9455(5) 0.2046(12) 0.0775(13)
H6 H 0.9360 0.2782 0.0937
H7 H 0.9350 0.1855 -0.0157
H8 H 0.9865 0.1942 0.0901
C7 C 0.9308(5) 0.0220(14) 0.1442(15)
H9 H 0.9724 0.0156 0.1445
H10 H 0.9161 0.0018 0.0546
H11 H 0.9147 -0.0242 0.2139
C8 C 0.6251(3) 0.0363(6) 0.2393(8)
H12 H 0.6483 -0.0205 0.2672
C9 C 0.5672(3) 0.0362(7) 0.2727(9)
H13 H 0.5516 -0.0209 0.3219
C10 C 0.5321(3) 0.1197(7) 0.2339(8)
C11 C 0.5568(3) 0.2047(7) 0.1615(8)
H14 H 0.5346 0.2634 0.1353
C12 C 0.6157(3) 0.1990(6) 0.1296(7)
H15 H 0.6323 0.2549 0.0800
Cu1A Cu 0.76791(3) 0.38917(8) 0.60595(9)
Cu1A_2 Cu 0.76791(3) 0.38917(8) -0.39405(9)
Cu1B Cu 0.26791(3) 0.11083(8) 0.39405(9)
O1A O 0.78313(19) 0.3417(5) 0.4161(5)
O2A O 0.7364(2) 0.3014(4) 0.2190(5)
O2_2 O 0.7636(2) 0.1986(4) 0.7190(5)
O3A O 0.7349(2) 0.4279(4) 0.7871(5)
O4A O 0.6529(2) 0.4166(5) 0.9091(5)
O5A O 0.7873(2) 0.5639(5) 0.5399(5)
N1A N 0.6846(3) 0.3789(7) 0.5543(6)
H1A H 0.6744 0.4469 0.5314
N2B N 0.3508(2) 0.1176(6) 0.3336(6)
N2A N 0.8508(2) 0.3824(6) 0.6664(6)
C1A C 0.7373(3) 0.3211(6) 0.3458(7)
C2A C 0.6801(3) 0.3192(7) 0.4230(7)
H2A H 0.6501 0.3507 0.3655
H3A H 0.6693 0.2458 0.4424
C3A C 0.6510(3) 0.3554(9) 0.6741(8)
H4A H 0.6581 0.2789 0.6877
C4A C 0.6803(3) 0.4056(6) 0.8017(7)
C5A C 0.5862(3) 0.3623(8) 0.6753(8)
H5A H 0.5728 0.3450 0.7692
C6A C 0.5545(5) 0.2954(12) 0.5775(13)
H6A H 0.5640 0.2218 0.5937
H7A H 0.5650 0.3145 0.4843
H8A H 0.5135 0.3058 0.5901
C7A C 0.5692(5) 0.4780(14) 0.6442(15)
H9A H 0.5276 0.4844 0.6445
H10A H 0.5839 0.4982 0.5546
H11A H 0.5853 0.5242 0.7139
C8B C 0.3749(3) 0.0363(6) 0.2607(8)
H12B H 0.3517 -0.0205 0.2328
C9B C 0.4328(3) 0.0362(7) 0.2273(9)
H13B H 0.4484 -0.0209 0.1781
C10B C 0.4679(3) 0.1197(7) 0.2661(8)
C11B C 0.4432(3) 0.2047(7) 0.3385(8)
H14B H 0.4654 0.2634 0.3647
C12B C 0.3843(3) 0.1990(6) 0.3704(7)
H15B H 0.3677 0.2549 0.4200
loop_
_geom_bond_atom_site_label_1
_geom_bond_atom_site_label_2
_geom_bond_site_symmetry_1
_geom_bond_site_symmetry_2
Cu1 O1 1_555 1_555
O1 C1 1_555 1_555
O2 C1 1_555 1_555
O3 Cu1 1_555 1_555
O4 C4 1_555 1_555
O5 Cu1 1_555 1_555
N1 Cu1 1_555 1_555
H1 N1 1_555 1_555
N2 Cu1 1_555 1_555
C1 C2 1_555 1_555
C2 N1 1_555 1_555
H2 C2 1_555 1_555
H3 C2 1_555 1_555
C3 N1 1_555 1_555
H4 C3 1_555 1_555
C4 O3 1_555 1_555
C5 C3 1_555 1_555
H5 C5 1_555 1_555
C6 C5 1_555 1_555
H6 C6 1_555 1_555
H7 C6 1_555 1_555
H8 C6 1_555 1_555
C7 C5 1_555 1_555
H9 C7 1_555 1_555
H10 C7 1_555 1_555
H11 C7 1_555 1_555
C8 N2 1_555 1_555
H12 C8 1_555 1_555
C9 C8 1_555 1_555
H13 C9 1_555 1_555
C10 C9 1_555 1_555
C11 C10 1_555 1_555
H14 C11 1_555 1_555
C12 N2 1_555 1_555
H15 C12 1_555 1_555
Cu1A O1A 1_555 1_555
Cu1A_2 O2 1_555 1_555
Cu1B N2B 1_555 1_555
O1A C1A 1_555 1_555
O2A Cu1 1_555 1_555
O2_2 Cu1A 1_555 1_555
O3A Cu1A 1_555 1_555
O4A C4A 1_555 1_555
O5A Cu1A 1_555 1_555
N1A Cu1A 1_555 1_555
H1A N1A 1_555 1_555
N2B C8B 1_555 1_555
N2A Cu1A 1_555 1_555
C1A O2A 1_555 1_555
C2A N1A 1_555 1_555
H2A C2A 1_555 1_555
H3A C2A 1_555 1_555
C3A N1A 1_555 1_555
H4A C3A 1_555 1_555
C4A O3A 1_555 1_555
C5A C3A 1_555 1_555
H5A C5A 1_555 1_555
C6A C5A 1_555 1_555
H6A C6A 1_555 1_555
H7A C6A 1_555 1_555
H8A C6A 1_555 1_555
C7A C5A 1_555 1_555
H9A C7A 1_555 1_555
H10A C7A 1_555 1_555
H11A C7A 1_555 1_555
C8B H12B 1_555 1_555
C9B C8B 1_555 1_555
H13B C9B 1_555 1_555
C10B C10 1_555 1_555
C11B C10B 1_555 1_555
H14B C11B 1_555 1_555
C12B N2B 1_555 1_555
H15B C12B 1_555 1_555
C3 C4 1_555 1_555
C11 C12 1_555 1_555
C1A C2A 1_555 1_555
C3A C4A 1_555 1_555
C9B C10B 1_555 1_555
C11B C12B 1_555 1_555

#END
