
#######################################################################
#
#                 Cambridge Crystallographic Data Centre
#                                CCDC 
#
#######################################################################
#
# If this CIF has been generated from an entry in the Cambridge 
# Structural Database, then it will include bibliographic, chemical, 
# crystal, experimental, refinement or atomic coordinate data resulting 
# from the CCDC's data processing and validation procedures.
#
#######################################################################

data_WEFZIS
_symmetry_cell_setting           orthorhombic
_symmetry_space_group_name_H-M   'F d d d'
_symmetry_Int_Tables_number      70
_space_group_name_Hall           '-F 2uv 2vw'
loop_
_symmetry_equiv_pos_site_id
_symmetry_equiv_pos_as_xyz
1 x,y,z
2 x,1/4-y,1/4-z
3 1/4-x,y,1/4-z
4 1/4-x,1/4-y,z
5 x,1/2+y,1/2+z
6 x,3/4-y,3/4-z
7 1/4-x,1/2+y,3/4-z
8 1/4-x,3/4-y,1/2+z
9 1/2+x,y,1/2+z
10 1/2+x,1/4-y,3/4-z
11 3/4-x,y,3/4-z
12 3/4-x,1/4-y,1/2+z
13 1/2+x,1/2+y,z
14 1/2+x,3/4-y,1/4-z
15 3/4-x,1/2+y,1/4-z
16 3/4-x,3/4-y,z
17 -x,-y,-z
18 -x,3/4+y,3/4+z
19 3/4+x,-y,3/4+z
20 3/4+x,3/4+y,-z
21 -x,1/2-y,1/2-z
22 -x,1/4+y,1/4+z
23 3/4+x,1/2-y,1/4+z
24 3/4+x,1/4+y,1/2-z
25 1/2-x,-y,1/2-z
26 1/2-x,3/4+y,1/4+z
27 1/4+x,-y,1/4+z
28 1/4+x,3/4+y,1/2-z
29 1/2-x,1/2-y,-z
30 1/2-x,1/4+y,3/4+z
31 1/4+x,1/2-y,3/4+z
32 1/4+x,1/4+y,-z
_cell_length_a                   9.6873(5)
_cell_length_b                   15.4526(6)
_cell_length_c                   27.3216(11)
_cell_angle_alpha                90
_cell_angle_beta                 90
_cell_angle_gamma                90
_cell_volume                     4089.88
loop_
_atom_site_label
_atom_site_type_symbol
_atom_site_fract_x
_atom_site_fract_y
_atom_site_fract_z
Gd1 Gd 0.625 0.625 0.740491(5)
O1 O 0.3864(2) 0.59401(13) 0.71205(8)
O2 O 0.3705(2) 0.73005(13) 0.73354(7)
C1 C 0.3156(3) 0.65981(17) 0.72086(9)
C2 C 0.1615(3) 0.66022(19) 0.71796(12)
H1 H 0.129 0.695 0.7452
H2 H 0.1375 0.6915 0.6884
C3 C 0.625 0.6752(2) 0.625
O3 O 0.6148(2) 0.71140(12) 0.66570(6)
O4 O 0.7749(2) 0.62649(13) 0.81352(7)
H3 H 0.799 0.5793 0.8244
H4 H 0.7492 0.6524 0.8381
Gd1A Gd 0.625 0.625 0.509509(5)
Gd1_2 Gd -0.375 0.625 0.740491(5)
Gd1A_2 Gd -0.375 0.625 0.509509(5)
Gd1Q Gd 0.375 0.375 0.490491(5)
Gd1T Gd 0.375 0.875 0.759509(5)
Gd1X Gd -0.125 0.375 0.759509(5)
Gd1CA Gd -0.125 0.875 0.490491(5)
O1C O -0.1364(2) 0.65599(13) 0.71205(8)
O1A O 0.3864(2) 0.65599(13) 0.53795(8)
O1B O -0.1364(2) 0.59401(13) 0.53795(8)
O1B_2 O 0.8636(2) 0.59401(13) 0.53795(8)
O1C_2 O 0.8636(2) 0.65599(13) 0.71205(8)
O2C O -0.1205(2) 0.51995(13) 0.73354(7)
O2A O 0.3705(2) 0.51995(13) 0.51646(7)
O2B O -0.1205(2) 0.73005(13) 0.51646(7)
O2Q O 0.6295(2) 0.48005(13) 0.48354(7)
O2T O 0.6295(2) 0.76995(13) 0.76646(7)
O2AA O 0.6205(2) 0.48005(13) 0.76646(7)
O2DA O 0.6205(2) 0.76995(13) 0.48354(7)
C1C C -0.0656(3) 0.59019(17) 0.72086(9)
C1A C 0.3156(3) 0.59019(17) 0.52914(9)
C1B C -0.0656(3) 0.65981(17) 0.52914(9)
C2C C 0.0885(3) 0.58978(19) 0.71796(12)
C2A C 0.1615(3) 0.58978(19) 0.53204(12)
C2B C 0.0885(3) 0.66022(19) 0.53204(12)
H1C H 0.121 0.555 0.7452
H1A H 0.129 0.555 0.5048
H1B H 0.121 0.695 0.5048
H2C H 0.1125 0.5585 0.6884
H2A H 0.1375 0.5585 0.5616
H2B H 0.1125 0.6915 0.5616
C3A C 0.625 0.5748(2) 0.625
O3A O 0.6148(2) 0.53860(12) 0.58430(6)
O3B O 0.6352(2) 0.71140(12) 0.58430(6)
O3C O 0.6352(2) 0.53860(12) 0.66570(6)
O4A O 0.7749(2) 0.62351(13) 0.43648(7)
O4C O 0.4751(2) 0.62351(13) 0.81352(7)
O4B O 0.4751(2) 0.62649(13) 0.43648(7)
H3A H 0.799 0.6707 0.4256
H3C H 0.451 0.6707 0.8244
H3B H 0.451 0.5793 0.4256
H4A H 0.7492 0.5976 0.4119
H4C H 0.5008 0.5976 0.8381
H4B H 0.5008 0.6524 0.4119
O5 O 0.6982(5) 0.7024(3) 0.90167(19)
H5 H 0.6264 0.6763 0.9076
H6 H 0.6885 0.7479 0.9168
loop_
_geom_bond_atom_site_label_1
_geom_bond_atom_site_label_2
_geom_bond_site_symmetry_1
_geom_bond_site_symmetry_2
Gd1 O1 1_555 1_555
O1 C1 1_555 1_555
O2 C1 1_555 1_555
C1 C2 1_555 1_555
C2 H1 1_555 1_555
H2 C2 1_555 1_555
C3 O3 1_555 1_555
O3 Gd1 1_555 1_555
O4 Gd1 1_555 1_555
H3 O4 1_555 1_555
H4 O4 1_555 1_555
O5 H5 1_555 1_555
H6 O5 1_555 1_555
Gd1A O1A 1_555 1_555
Gd1_2 O1C 1_555 1_555
Gd1A_2 O1B 1_555 1_555
Gd1Q O2A 1_555 1_555
Gd1T O2 1_555 1_555
Gd1X O2C 1_555 1_555
Gd1CA O2B 1_555 1_555
O1C C1C 1_555 1_555
O1A C1A 1_555 1_555
O1B C1B 1_555 1_555
O1B_2 Gd1A 1_555 1_555
O1C_2 Gd1 1_555 1_555
O2C C1C 1_555 1_555
O2A C1A 1_555 1_555
O2B C1B 1_555 1_555
O2Q Gd1A 1_555 1_555
O2T Gd1 1_555 1_555
O2AA Gd1 1_555 1_555
O2DA Gd1A 1_555 1_555
C1C C2C 1_555 1_555
C1A C2A 1_555 1_555
C1B C2B 1_555 1_555
C2C C2 1_555 1_555
C2A C2B 1_555 1_555
C2B H1B 1_555 1_555
H1C C2C 1_555 1_555
H1A C2A 1_555 1_555
H2C C2C 1_555 1_555
H2A C2A 1_555 1_555
H2B C2B 1_555 1_555
C3A C3 1_555 1_555
O3A Gd1A 1_555 1_555
O3B C3 1_555 1_555
O3C Gd1 1_555 1_555
O4A Gd1A 1_555 1_555
O4C Gd1 1_555 1_555
O4B Gd1A 1_555 1_555
H3A O4A 1_555 1_555
H3C O4C 1_555 1_555
H3B O4B 1_555 1_555
H4A O4A 1_555 1_555
H4C O4C 1_555 1_555
H4B O4B 1_555 1_555
Gd1A O3B 1_555 1_555
C3A O3A 1_555 1_555
C3A O3C 1_555 1_555

#END
