
#######################################################################
#
#                 Cambridge Crystallographic Data Centre
#                                CCDC 
#
#######################################################################
#
# If this CIF has been generated from an entry in the Cambridge 
# Structural Database, then it will include bibliographic, chemical, 
# crystal, experimental, refinement or atomic coordinate data resulting 
# from the CCDC's data processing and validation procedures.
#
#######################################################################

data_WEGBOB
_symmetry_cell_setting           triclinic
_symmetry_space_group_name_H-M   'P -1'
_symmetry_Int_Tables_number      2
_space_group_name_Hall           '-P 1'
loop_
_symmetry_equiv_pos_site_id
_symmetry_equiv_pos_as_xyz
1 x,y,z
2 -x,-y,-z
_cell_length_a                   7.3805(15)
_cell_length_b                   9.5868(19)
_cell_length_c                   11.881(2)
_cell_angle_alpha                83.09(3)
_cell_angle_beta                 87.50(3)
_cell_angle_gamma                79.65(3)
_cell_volume                     820.751
loop_
_atom_site_label
_atom_site_type_symbol
_atom_site_fract_x
_atom_site_fract_y
_atom_site_fract_z
Cu1 Cu 0.5000 0.5000 0.0000
Cu2 Cu 0.59484(5) 0.13553(4) 0.50902(3)
Cl1 Cl 0.38917(11) 0.30801(8) 0.60804(7)
N1 N 0.7122(4) 0.0147(3) 0.6354(2)
N2 N 0.5731(4) 0.2119(3) 0.3518(2)
N3 N 0.9016(3) -0.1720(3) 0.5445(2)
N4 N 0.7406(4) 0.0152(3) 0.2593(2)
O1 O 0.6160(4) 0.3029(3) -0.02392(19)
O2 O 0.2592(3) 0.4519(3) -0.0288(2)
H1 H 0.2149 0.4187 0.0308
O3 O 0.9916(3) -0.3459(3) 0.8757(2)
N5 N 0.5087(4) 0.3681(3) 0.1944(2)
N6 N 0.6065(4) 0.2401(3) 0.1671(2)
C1 C 0.8614(4) -0.1677(3) 0.7432(2)
N7 N 0.7668(4) -0.0795(3) 0.8178(2)
C2 C 0.6454(4) 0.1466(3) 0.2624(2)
C3 C 1.0555(4) -0.3601(3) 0.6781(3)
H2 H 1.1368 -0.4465 0.6889
N8 N 0.8287(4) -0.1100(3) 0.6341(2)
C4 C 0.6559(4) 0.2085(4) 0.0583(3)
C5 C 0.6816(5) 0.0275(4) 0.7484(3)
C6 C 1.0207(4) -0.2972(3) 0.5684(3)
C7 C 0.9741(4) -0.2999(3) 0.7732(3)
C8 C 0.7495(5) 0.0685(4) 0.0558(3)
H3 H 0.7860 0.0360 -0.0138
C9 C 0.7893(4) -0.0231(3) 0.1544(3)
C10 C 0.8909(6) -0.1724(4) 0.1497(3)
H4 H 0.9998 -0.1874 0.1941
H5 H 0.9249 -0.1866 0.0725
H6 H 0.8130 -0.2388 0.1797
C11 C 0.4933(4) 0.3450(3) 0.3052(3)
C12 C 1.1126(5) -0.3612(4) 0.4683(3)
H7 H 1.0215 -0.3847 0.4219
H8 H 1.1977 -0.4463 0.4933
H9 H 1.1779 -0.2941 0.4249
Cu3 Cu 0.78649(6) -0.10654(4) 0.40049(3)
Cu2A Cu 0.40516(5) 0.86447(4) -0.50902(3)
Cu2A_2 Cu 0.40516(5) -0.13553(4) 0.49098(3)
Cl1A Cl 0.61083(11) -0.30801(8) 0.39196(7)
Cl1A_2 Cl 0.61083(11) 0.69199(8) -0.60804(7)
Cl1_2 Cl 0.38917(11) 1.30801(8) -0.39196(7)
N1A N 0.2878(4) 0.9853(3) -0.6354(2)
N2A N 0.4269(4) 0.7881(3) -0.3518(2)
N3A N 0.0984(3) 1.1720(3) -0.5445(2)
N4A N 0.2594(4) 0.9848(3) -0.2593(2)
O1A O 0.3840(4) 0.6971(3) 0.02392(19)
O2A O 0.7408(3) 0.5481(3) 0.0288(2)
H1A H 0.7851 0.5813 -0.0308
O3A O 0.0084(3) 1.3459(3) -0.8757(2)
N5A N 0.4913(4) 0.6319(3) -0.1944(2)
N6A N 0.3935(4) 0.7599(3) -0.1671(2)
C1A C 0.1386(4) 1.1677(3) -0.7432(2)
N7A N 0.2332(4) 1.0795(3) -0.8178(2)
C2A C 0.3546(4) 0.8534(3) -0.2624(2)
C3A C -0.0555(4) 1.3601(3) -0.6781(3)
H2A H -0.1368 1.4465 -0.6889
N8A N 0.1713(4) 1.1100(3) -0.6341(2)
C4A C 0.3441(4) 0.7915(4) -0.0583(3)
C5A C 0.3184(5) 0.9725(4) -0.7484(3)
C6A C -0.0207(4) 1.2972(3) -0.5684(3)
C7A C 0.0259(4) 1.2999(3) -0.7732(3)
C8A C 0.2505(5) 0.9315(4) -0.0558(3)
H3A H 0.2140 0.9640 0.0138
C9A C 0.2107(4) 1.0231(3) -0.1544(3)
C10A C 0.1091(6) 1.1724(4) -0.1497(3)
H4A H 0.0002 1.1874 -0.1941
H5A H 0.0751 1.1866 -0.0725
H6A H 0.1870 1.2388 -0.1797
C11A C 0.5067(4) 0.6550(3) -0.3052(3)
C12A C -0.1126(5) 1.3612(4) -0.4683(3)
H7A H -0.0215 1.3847 -0.4219
H8A H -0.1977 1.4463 -0.4933
H9A H -0.1779 1.2941 -0.4249
Cu3A Cu 0.21351(6) 1.10654(4) -0.40049(3)
Cu3A_2 Cu 0.21351(6) 0.10654(4) 0.59951(3)
loop_
_geom_bond_atom_site_label_1
_geom_bond_atom_site_label_2
_geom_bond_site_symmetry_1
_geom_bond_site_symmetry_2
Cu1 O1 1_555 1_555
Cu2 Cl1 1_555 1_555
Cl1 Cu3A_2 1_555 1_555
N1 Cu2 1_555 1_555
N2 Cu2 1_555 1_555
N3 N8 1_555 1_555
N4 C2 1_555 1_555
O1 C4 1_555 1_555
O2 Cu1 1_555 1_555
H1 O2 1_555 1_555
O3 C7 1_555 1_555
N5 Cu1 1_555 1_555
N6 N5 1_555 1_555
C1 N7 1_555 1_555
N7 C5 1_555 1_555
C2 N2 1_555 1_555
C3 H2 1_555 1_555
N8 N1 1_555 1_555
C4 N6 1_555 1_555
C5 N1 1_555 1_555
C6 N3 1_555 1_555
C7 C1 1_555 1_555
C8 C4 1_555 1_555
H3 C8 1_555 1_555
C9 N4 1_555 1_555
C10 C9 1_555 1_555
H4 C10 1_555 1_555
H5 C10 1_555 1_555
H6 C10 1_555 1_555
C11 N2 1_555 1_555
C12 C6 1_555 1_555
H7 C12 1_555 1_555
H8 C12 1_555 1_555
H9 C12 1_555 1_555
Cu3 N3 1_555 1_555
Cu2A Cl1A_2 1_555 1_555
Cu2A_2 Cl1A 1_555 1_555
Cl1A Cu3 1_555 1_555
Cl1_2 Cu3A 1_555 1_555
N1A Cu2A 1_555 1_555
N2A Cu2A 1_555 1_555
N3A N8A 1_555 1_555
N4A C2A 1_555 1_555
O1A Cu1 1_555 1_555
O2A Cu1 1_555 1_555
H1A O2A 1_555 1_555
O3A C7A 1_555 1_555
N5A Cu1 1_555 1_555
N6A N5A 1_555 1_555
C1A N7A 1_555 1_555
N7A C5A 1_555 1_555
C2A N2A 1_555 1_555
C3A H2A 1_555 1_555
N8A N1A 1_555 1_555
C4A O1A 1_555 1_555
C5A N1A 1_555 1_555
C6A N3A 1_555 1_555
C7A C1A 1_555 1_555
C8A C4A 1_555 1_555
H3A C8A 1_555 1_555
C9A N4A 1_555 1_555
C10A C9A 1_555 1_555
H4A C10A 1_555 1_555
H5A C10A 1_555 1_555
H6A C10A 1_555 1_555
C11A N2A 1_555 1_555
C12A C6A 1_555 1_555
H7A C12A 1_555 1_555
H8A C12A 1_555 1_555
H9A C12A 1_555 1_555
Cu3A N3A 1_555 1_555
N4 Cu3 1_555 1_555
N5 C11 1_555 1_555
N6 C2 1_555 1_555
C1 N8 1_555 1_555
C3 C6 1_555 1_555
C3 C7 1_555 1_555
C8 C9 1_555 1_555
N4A Cu3A 1_555 1_555
N5A C11A 1_555 1_555
N6A C2A 1_555 1_555
N6A C4A 1_555 1_555
C1A N8A 1_555 1_555
C3A C6A 1_555 1_555
C3A C7A 1_555 1_555
C8A C9A 1_555 1_555

#END
