
#######################################################################
#
#                 Cambridge Crystallographic Data Centre
#                                CCDC 
#
#######################################################################
#
# If this CIF has been generated from an entry in the Cambridge 
# Structural Database, then it will include bibliographic, chemical, 
# crystal, experimental, refinement or atomic coordinate data resulting 
# from the CCDC's data processing and validation procedures.
#
#######################################################################

data_WEGDAP
_symmetry_cell_setting           monoclinic
_symmetry_space_group_name_H-M   'P 2/c'
_symmetry_Int_Tables_number      13
_space_group_name_Hall           '-P 2yc'
loop_
_symmetry_equiv_pos_site_id
_symmetry_equiv_pos_as_xyz
1 x,y,z
2 -x,y,1/2-z
3 -x,-y,-z
4 x,-y,1/2+z
_cell_length_a                   7.0385(18)
_cell_length_b                   10.025(3)
_cell_length_c                   12.919(3)
_cell_angle_alpha                90
_cell_angle_beta                 117.780(11)
_cell_angle_gamma                90
_cell_volume                     806.512
loop_
_atom_site_label
_atom_site_type_symbol
_atom_site_fract_x
_atom_site_fract_y
_atom_site_fract_z
Mn1 Mn 0.5000 0.22714(5) 0.7500
O1 O 0.2586(3) 0.37916(16) 0.69590(16)
O2 O 0.6159(4) 0.22404(18) 0.94526(16)
H1 H 0.6653 0.1666 0.9981
H2 H 0.6698 0.2955 0.9765
O3 O 0.2666(4) 0.47706(18) 0.85271(17)
O4 O 0.2560(3) 1.08995(16) 0.73176(15)
O5 O 0.2734(3) 0.97129(17) 0.88039(15)
N1 N 0.1514(4) 0.76151(19) 0.41356(18)
H3 H 0.2144 0.8351 0.4059
H4 H 0.2063 0.6906 0.3955
H5 H 0.0109 0.7657 0.3657
C1 C 0.2532(4) 0.4809(2) 0.7536(2)
C2 C 0.2312(4) 0.6143(2) 0.6963(2)
C3 C 0.2433(4) 0.7305(2) 0.7585(2)
H6 H 0.2585 0.7238 0.8337
C4 C 0.2333(4) 0.8552(2) 0.7106(2)
C5 C 0.2041(4) 0.8655(2) 0.5964(2)
H7 H 0.1953 0.9486 0.5624
C6 C 0.1887(4) 0.7500(2) 0.5350(2)
C7 C 0.2035(4) 0.6252(2) 0.5824(2)
H8 H 0.1952 0.5492 0.5393
C8 C 0.2567(4) 0.9797(2) 0.7801(2)
Mn1_2 Mn 0.5000 1.22714(5) 0.7500
O1A O 0.7414(3) 0.37916(16) 0.80410(16)
O2A O 0.3841(4) 0.22404(18) 0.55474(16)
H1A H 0.3347 0.1666 0.5019
H2A H 0.3302 0.2955 0.5235
O3A O 0.7334(4) 0.47706(18) 0.64729(17)
O4A O 0.7440(3) 1.08995(16) 0.76824(15)
O4_2 O 0.2560(3) 0.08995(16) 0.73176(15)
O4A_2 O 0.7440(3) 0.08995(16) 0.76824(15)
O5A O 0.7266(3) 0.97129(17) 0.61961(15)
N1A N 0.8486(4) 0.76151(19) 1.08644(18)
H3A H 0.7856 0.8351 1.0941
H4A H 0.7937 0.6906 1.1045
H5A H 0.9891 0.7657 1.1343
C1A C 0.7468(4) 0.4809(2) 0.7464(2)
C2A C 0.7688(4) 0.6143(2) 0.8037(2)
C3A C 0.7567(4) 0.7305(2) 0.7415(2)
H6A H 0.7415 0.7238 0.6663
C4A C 0.7667(4) 0.8552(2) 0.7894(2)
C5A C 0.7959(4) 0.8655(2) 0.9036(2)
H7A H 0.8047 0.9486 0.9376
C6A C 0.8113(4) 0.7500(2) 0.9650(2)
C7A C 0.7965(4) 0.6252(2) 0.9176(2)
H8A H 0.8048 0.5492 0.9607
C8A C 0.7433(4) 0.9797(2) 0.7199(2)
loop_
_geom_bond_atom_site_label_1
_geom_bond_atom_site_label_2
_geom_bond_site_symmetry_1
_geom_bond_site_symmetry_2
Mn1 O1 1_555 1_555
O1 C1 1_555 1_555
O2 Mn1 1_555 1_555
H1 O2 1_555 1_555
H2 O2 1_555 1_555
O3 C1 1_555 1_555
O4 C8 1_555 1_555
O5 C8 1_555 1_555
N1 H3 1_555 1_555
H4 N1 1_555 1_555
H5 N1 1_555 1_555
C1 C2 1_555 1_555
C2 C3 1_555 1_555
C3 H6 1_555 1_555
C4 C3 1_555 1_555
C5 C4 1_555 1_555
H7 C5 1_555 1_555
C6 N1 1_555 1_555
C7 C2 1_555 1_555
H8 C7 1_555 1_555
C8 C4 1_555 1_555
Mn1_2 O4 1_555 1_555
O1A Mn1 1_555 1_555
O2A Mn1 1_555 1_555
H1A O2A 1_555 1_555
H2A O2A 1_555 1_555
O3A C1A 1_555 1_555
O4A Mn1_2 1_555 1_555
O4_2 Mn1 1_555 1_555
O4A_2 Mn1 1_555 1_555
O5A C8A 1_555 1_555
N1A H3A 1_555 1_555
H4A N1A 1_555 1_555
H5A N1A 1_555 1_555
C1A O1A 1_555 1_555
C2A C1A 1_555 1_555
C3A C2A 1_555 1_555
H6A C3A 1_555 1_555
C4A C3A 1_555 1_555
C5A C4A 1_555 1_555
H7A C5A 1_555 1_555
C6A N1A 1_555 1_555
C7A C2A 1_555 1_555
H8A C7A 1_555 1_555
C8A O4A 1_555 1_555
C5 C6 1_555 1_555
C6 C7 1_555 1_555
C4A C8A 1_555 1_555
C5A C6A 1_555 1_555
C6A C7A 1_555 1_555

#END
