
#######################################################################
#
#                 Cambridge Crystallographic Data Centre
#                                CCDC 
#
#######################################################################
#
# If this CIF has been generated from an entry in the Cambridge 
# Structural Database, then it will include bibliographic, chemical, 
# crystal, experimental, refinement or atomic coordinate data resulting 
# from the CCDC's data processing and validation procedures.
#
#######################################################################

data_WEGDIX
_symmetry_cell_setting           triclinic
_symmetry_space_group_name_H-M   'P -1'
_symmetry_Int_Tables_number      2
_space_group_name_Hall           '-P 1'
loop_
_symmetry_equiv_pos_site_id
_symmetry_equiv_pos_as_xyz
1 x,y,z
2 -x,-y,-z
_cell_length_a                   7.8398(3)
_cell_length_b                   14.4250(10)
_cell_length_c                   14.4884(10)
_cell_angle_alpha                90.760(6)
_cell_angle_beta                 97.907(5)
_cell_angle_gamma                105.506(5)
_cell_volume                     1561.68
loop_
_atom_site_label
_atom_site_type_symbol
_atom_site_fract_x
_atom_site_fract_y
_atom_site_fract_z
Cd1 Cd 1.27558(4) 1.03618(2) 1.006591(19)
Cd2 Cd 1.44139(4) 1.52703(2) 1.353570(19)
C1 C 1.2719(6) 1.2431(3) 1.1123(3)
H1 H 1.3808 1.2408 1.1456
C2 C 1.2036(5) 1.3169(3) 1.1340(3)
C3 C 1.0402(6) 1.3197(3) 1.0832(3)
H2 H 0.9888 1.3688 1.0956
C4 C 0.9563(6) 1.2494(3) 1.0148(3)
H3 H 0.8478 1.2509 0.9804
C5 C 1.0329(5) 1.1759(3) 0.9967(3)
C6 C 1.2989(6) 1.3922(3) 1.2108(3)
C7 C 1.3955(5) 1.1731(3) 0.8308(3)
H4 H 1.3567 1.2203 0.8595
C8 C 1.4675(5) 1.1943(3) 0.7498(3)
C9 C 1.5191(5) 1.1223(3) 0.7070(3)
H5 H 1.5670 1.1334 0.6517
C10 C 1.5001(5) 1.0340(3) 0.7459(3)
H6 H 1.5330 0.9851 0.7166
C11 C 1.4305(5) 1.0191(3) 0.8301(3)
C12 C 1.4934(6) 1.2932(3) 0.7127(3)
N1 N 1.1910(4) 1.1736(2) 1.0457(2)
N2 N 1.3781(4) 1.0889(2) 0.8708(2)
O1 O 1.2267(5) 1.4553(2) 1.2297(2)
O2 O 1.4457(5) 1.3880(2) 1.2527(2)
O3 O 1.4186(5) 1.3488(2) 0.7452(2)
O4 O 1.5890(4) 1.3155(2) 0.6500(2)
O5 O 1.3692(4) 1.4035(2) 1.4691(2)
O6 O 1.1868(4) 1.5103(2) 1.4384(2)
O7 O 1.2693(4) 1.4712(2) 1.59641(18)
O8 O 1.0582(4) 1.3521(2) 1.4917(2)
S1 S 0.93636(14) 1.08569(8) 0.90914(7)
S2 S 1.40639(14) 0.91283(7) 0.88891(7)
S3 S 1.21752(13) 1.43342(7) 1.49727(7)
Cd1A Cd 0.72442(4) 0.96382(2) 0.993409(19)
Cd1A_2 Cd 1.72442(4) 0.96382(2) 0.993409(19)
Cd2A Cd 1.55861(4) 1.47297(2) 0.646430(19)
Cd2A_2 Cd 1.55861(4) 1.47297(2) 1.646430(19)
O3A O 1.5814(5) 1.6512(2) 1.2548(2)
O4A O 1.4110(4) 1.6845(2) 1.3500(2)
O7A O 1.7307(4) 1.5288(2) 1.40359(18)
S1A S 1.06364(14) 0.91431(8) 1.09086(7)
S2A S 1.59361(14) 1.08717(7) 1.11109(7)
C13 C 0.9786(8) 0.2457(4) 0.6831(5)
H7 H 1.1028 0.2469 0.6919
H8 H 0.9199 0.2105 0.6256
H9 H 0.9235 0.2150 0.7341
C14 C 1.0152(9) 0.3960(6) 0.7655(5)
H10 H 0.9353 0.3679 0.8084
H11 H 1.0116 0.4613 0.7565
H12 H 1.1348 0.3952 0.7903
N3 N 0.9628(6) 0.3429(3) 0.6798(3)
H26 H 1.0300 0.3739 0.6382
H27 H 0.8482 0.3408 0.6591
C15 C 0.1978(8) 0.6865(5) 0.7124(4)
H13 H 0.2968 0.6954 0.7618
H14 H 0.1010 0.6340 0.7255
H15 H 0.1592 0.7443 0.7079
C16 C 0.3779(8) 0.7436(5) 0.5873(5)
H16 H 0.3210 0.7938 0.5719
H17 H 0.4143 0.7215 0.5323
H18 H 0.4810 0.7681 0.6337
N4 N 0.2539(6) 0.6645(3) 0.6233(3)
H28 H 0.3044 0.6155 0.6311
H29 H 0.1556 0.6443 0.5803
C17 C 0.7553(17) 0.9723(10) 0.5357(9)
H19 H 0.6919 0.9393 0.4806
C18 C 0.8574(14) 0.8391(7) 0.5633(10)
H20 H 0.9766 0.8409 0.5530
H21 H 0.7781 0.8240 0.5052
H22 H 0.8187 0.7907 0.6065
C19 C 0.9516(15) 0.9646(10) 0.6782(8)
H23 H 0.9983 0.9176 0.7118
H24 H 0.8771 0.9879 0.7148
H25 H 1.0489 1.0173 0.6660
N5 N 0.8559(10) 0.9243(5) 0.5982(6)
O9 O 0.7483(11) 1.0554(5) 0.5513(5)
loop_
_geom_bond_atom_site_label_1
_geom_bond_atom_site_label_2
_geom_bond_site_symmetry_1
_geom_bond_site_symmetry_2
Cd1 N1 1_555 1_555
Cd2 O1 1_555 1_555
C1 H1 1_555 1_555
C2 C1 1_555 1_555
C3 C2 1_555 1_555
H2 C3 1_555 1_555
C4 C3 1_555 1_555
H3 C4 1_555 1_555
C5 C4 1_555 1_555
C6 C2 1_555 1_555
C7 H4 1_555 1_555
C8 C7 1_555 1_555
C9 C8 1_555 1_555
H5 C9 1_555 1_555
C10 C9 1_555 1_555
H6 C10 1_555 1_555
C11 C10 1_555 1_555
C12 C8 1_555 1_555
C13 H7 1_555 1_555
H8 C13 1_555 1_555
H9 C13 1_555 1_555
C14 H10 1_555 1_555
H11 C14 1_555 1_555
H12 C14 1_555 1_555
C15 H13 1_555 1_555
H14 C15 1_555 1_555
H15 C15 1_555 1_555
C16 H16 1_555 1_555
H17 C16 1_555 1_555
H18 C16 1_555 1_555
C17 H19 1_555 1_555
C18 H20 1_555 1_555
H21 C18 1_555 1_555
H22 C18 1_555 1_555
C19 H23 1_555 1_555
H24 C19 1_555 1_555
H25 C19 1_555 1_555
N1 C1 1_555 1_555
N2 Cd1 1_555 1_555
N3 C13 1_555 1_555
H26 N3 1_555 1_555
H27 N3 1_555 1_555
N4 C15 1_555 1_555
H28 N4 1_555 1_555
H29 N4 1_555 1_555
N5 C17 1_555 1_555
O1 C6 1_555 1_555
O2 Cd2 1_555 1_555
O3 C12 1_555 1_555
O4 C12 1_555 1_555
O5 Cd2 1_555 1_555
O6 Cd2 1_555 1_555
O7 S3 1_555 1_555
O8 S3 1_555 1_555
O9 C17 1_555 1_555
S1 C5 1_555 1_555
S2 Cd1 1_555 1_555
S3 O5 1_555 1_555
Cd1A S1 1_555 1_555
Cd1A_2 S2 1_555 1_555
Cd2A O3 1_555 1_555
Cd2A_2 O7 1_555 1_555
O3A Cd2 1_555 1_555
O4A Cd2 1_555 1_555
O7A Cd2 1_555 1_555
S1A Cd1 1_555 1_555
S2A Cd1 1_555 1_555
C5 N1 1_555 1_555
C6 O2 1_555 1_555
C7 N2 1_555 1_555
C11 N2 1_555 1_555
C11 S2 1_555 1_555
C14 N3 1_555 1_555
C16 N4 1_555 1_555
C18 N5 1_555 1_555
C19 N5 1_555 1_555
O4 Cd2A 1_555 1_555
O6 S3 1_555 1_555
Cd1A_2 S2A 1_555 1_555

#END
