
#######################################################################
#
#                 Cambridge Crystallographic Data Centre
#                                CCDC 
#
#######################################################################
#
# If this CIF has been generated from an entry in the Cambridge 
# Structural Database, then it will include bibliographic, chemical, 
# crystal, experimental, refinement or atomic coordinate data resulting 
# from the CCDC's data processing and validation procedures.
#
#######################################################################

data_WEGDAP01
_symmetry_cell_setting           monoclinic
_symmetry_space_group_name_H-M   'P 2/c'
_symmetry_Int_Tables_number      13
_space_group_name_Hall           '-P 2yc'
loop_
_symmetry_equiv_pos_site_id
_symmetry_equiv_pos_as_xyz
1 x,y,z
2 -x,y,1/2-z
3 -x,-y,-z
4 x,-y,1/2+z
_cell_length_a                   6.9972(2)
_cell_length_b                   10.0161(3)
_cell_length_c                   13.8929(5)
_cell_angle_alpha                90
_cell_angle_beta                 124.842(2)
_cell_angle_gamma                90
_cell_volume                     799.128
loop_
_atom_site_label
_atom_site_type_symbol
_atom_site_fract_x
_atom_site_fract_y
_atom_site_fract_z
Mn1 Mn 0.5000 0.22549(4) 0.2500
O1 O 0.2269(3) 0.22249(16) 0.05493(13)
O2 O 0.3708(2) 0.37805(13) 0.30685(12)
O3 O 0.0625(2) 0.47448(14) 0.14927(12)
O4 O 0.2904(2) 1.08922(12) 0.26807(12)
O5 O 0.0109(2) 0.96995(13) 0.11860(12)
N1 N 0.8269(3) 0.76339(17) 0.58624(14)
C1 C 0.3403(3) 0.61354(18) 0.30481(16)
C2 C 0.2278(3) 0.72849(17) 0.24200(17)
H1 H 0.0902 0.7209 0.1648
C3 C 0.3120(3) 0.85450(18) 0.28947(16)
C4 C 0.5111(3) 0.86560(18) 0.40340(16)
H2 H 0.5703 0.9510 0.4374
C5 C 0.6217(3) 0.75081(18) 0.46648(16)
C6 C 0.5406(3) 0.62474(18) 0.41854(16)
H3 H 0.6206 0.5471 0.4627
C7 C 0.2492(3) 0.47958(18) 0.24849(17)
C8 C 0.1947(3) 0.97851(18) 0.21903(16)
H4 H 0.156(5) 0.167(3) 0.003(2)
H5 H 0.230(5) 0.2882(16) 0.023(2)
H6 H 0.898(4) 0.846(3) 0.596(2)
H7 H 0.785(4) 0.767(2) 0.633(2)
H8 H 0.909(4) 0.6888(17) 0.609(3)
O1A O 0.7731(3) 0.22249(16) 0.44507(13)
O2A O 0.6292(2) 0.37805(13) 0.19315(12)
O3A O 0.9375(2) 0.47448(14) 0.35073(12)
O4A O 0.7096(2) 1.08922(12) 0.23193(12)
O5A O 0.9891(2) 0.96995(13) 0.38140(12)
N1A N 0.1731(3) 0.76339(17) -0.08624(14)
C1A C 0.6597(3) 0.61354(18) 0.19519(16)
C2A C 0.7722(3) 0.72849(17) 0.25800(17)
H1A H 0.9098 0.7209 0.3352
C3A C 0.6880(3) 0.85450(18) 0.21053(16)
C4A C 0.4889(3) 0.86560(18) 0.09660(16)
H2A H 0.4297 0.9510 0.0626
C5A C 0.3783(3) 0.75081(18) 0.03352(16)
C6A C 0.4594(3) 0.62474(18) 0.08146(16)
H3A H 0.3794 0.5471 0.0373
C7A C 0.7508(3) 0.47958(18) 0.25151(17)
C8A C 0.8053(3) 0.97851(18) 0.28097(16)
H4A H 0.844(5) 0.167(3) 0.497(2)
H5A H 0.770(5) 0.2882(16) 0.477(2)
H6A H 0.102(4) 0.846(3) -0.096(2)
H7A H 0.215(4) 0.767(2) -0.133(2)
H8A H 0.091(4) 0.6888(17) -0.109(3)
Mn1_2 Mn 0.5000 1.22549(4) 0.2500
O4_2 O 0.2904(2) 0.08922(12) 0.26807(12)
O4A_2 O 0.7096(2) 0.08922(12) 0.23193(12)
loop_
_geom_bond_atom_site_label_1
_geom_bond_atom_site_label_2
_geom_bond_site_symmetry_1
_geom_bond_site_symmetry_2
Mn1 O1 1_555 1_555
O1 H4 1_555 1_555
O2 Mn1 1_555 1_555
O3 C7 1_555 1_555
O4 C8 1_555 1_555
O5 C8 1_555 1_555
N1 C5 1_555 1_555
C1 C2 1_555 1_555
C2 H1 1_555 1_555
C3 C2 1_555 1_555
C4 C3 1_555 1_555
H2 C4 1_555 1_555
C5 C4 1_555 1_555
C6 C1 1_555 1_555
H3 C6 1_555 1_555
C7 O2 1_555 1_555
C8 C3 1_555 1_555
H5 O1 1_555 1_555
H6 N1 1_555 1_555
H7 N1 1_555 1_555
H8 N1 1_555 1_555
O1A Mn1 1_555 1_555
O2A Mn1 1_555 1_555
O3A C7A 1_555 1_555
O4A C8A 1_555 1_555
O5A C8A 1_555 1_555
N1A C5A 1_555 1_555
C1A C2A 1_555 1_555
C2A H1A 1_555 1_555
C3A C2A 1_555 1_555
C4A C3A 1_555 1_555
H2A C4A 1_555 1_555
C5A C4A 1_555 1_555
C6A C1A 1_555 1_555
H3A C6A 1_555 1_555
C7A O2A 1_555 1_555
C8A C3A 1_555 1_555
H4A O1A 1_555 1_555
H5A O1A 1_555 1_555
H6A N1A 1_555 1_555
H7A N1A 1_555 1_555
H8A N1A 1_555 1_555
Mn1_2 O4 1_555 1_555
O4_2 Mn1 1_555 1_555
O4A_2 Mn1 1_555 1_555
C1 C7 1_555 1_555
C5 C6 1_555 1_555
O4A Mn1_2 1_555 1_555
C1A C7A 1_555 1_555
C5A C6A 1_555 1_555

#END
