
#######################################################################
#
#                 Cambridge Crystallographic Data Centre
#                                CCDC 
#
#######################################################################
#
# If this CIF has been generated from an entry in the Cambridge 
# Structural Database, then it will include bibliographic, chemical, 
# crystal, experimental, refinement or atomic coordinate data resulting 
# from the CCDC's data processing and validation procedures.
#
#######################################################################

data_WEGJUN
_symmetry_cell_setting           monoclinic
_symmetry_space_group_name_H-M   'P 21/n'
_symmetry_Int_Tables_number      14
_space_group_name_Hall           '-P 2yn'
loop_
_symmetry_equiv_pos_site_id
_symmetry_equiv_pos_as_xyz
1 x,y,z
2 1/2-x,1/2+y,1/2-z
3 -x,-y,-z
4 1/2+x,1/2-y,1/2+z
_cell_length_a                   9.890(3)
_cell_length_b                   17.645(3)
_cell_length_c                   15.414(5)
_cell_angle_alpha                90
_cell_angle_beta                 90.96(3)
_cell_angle_gamma                90
_cell_volume                     2689.5
loop_
_atom_site_label
_atom_site_type_symbol
_atom_site_fract_x
_atom_site_fract_y
_atom_site_fract_z
Cu1 Cu 0.2778(2) 0.21680(9) 0.3798(1)
Cu2 Cu 0.2478(2) 0.52885(9) 0.3880(1)
O1 O 0.299(1) 0.1416(4) 0.4711(5)
O2 O 0.236(1) 0.2274(5) 0.5553(6)
C1 C 0.273(1) 0.1647(6) 0.5454(7)
C2 C 0.288(1) 0.1103(7) 0.6190(8)
C3 C 0.288(1) 0.1438(7) 0.7080(8)
C4 C 0.295(1) 0.0916(7) 0.7801(8)
C5 C 0.278(1) 0.1252(7) 0.8645(8)
C6 C 0.278(1) 0.0695(7) 0.9437(7)
O3 O 0.253(1) 0.0992(4) 1.0150(5)
O4 O 0.285(1) 0.0011(5) 0.9293(5)
C7 C 0.399(1) 0.3089(6) 0.3950(8)
C8 C 0.341(1) 0.3082(6) 0.3116(6)
C9 C 0.239(1) 0.3739(5) 0.3122(5)
C10 C 0.326(1) 0.4444(6) 0.3130(7)
C11 C 0.387(1) 0.4448(6) 0.3979(8)
C12 C 0.336(1) 0.3740(6) 0.4439(8)
C13 C 0.191(1) 0.3709(6) 0.4090(7)
N1 N 0.1316(9) 0.1692(4) 0.3090(5)
C14 C 0.046(1) 0.1195(7) 0.3441(7)
C15 C -0.058(1) 0.0866(8) 0.2999(9)
C16 C -0.071(1) 0.1002(7) 0.216(1)
C17 C 0.015(1) 0.1508(7) 0.1711(8)
C18 C 0.113(1) 0.1808(7) 0.2225(7)
N2 N 0.0974(9) 0.5754(5) 0.3167(5)
C19 C 0.010(1) 0.6228(6) 0.3549(8)
C20 C -0.090(1) 0.6590(7) 0.3076(8)
C21 C -0.104(1) 0.6507(6) 0.2200(8)
C22 C -0.010(1) 0.6019(7) 0.1828(9)
C23 C 0.089(1) 0.5670(7) 0.2293(8)
H1 H 0.216 0.075 0.615
H2 H 0.372 0.084 0.613
H3 H 0.363 0.177 0.713
H4 H 0.206 0.172 0.713
H5 H 0.226 0.055 0.772
H6 H 0.381 0.068 0.779
H7 H 0.350 0.160 0.874
H8 H 0.195 0.152 0.864
H9 H 0.466 0.275 0.417
H10 H 0.361 0.275 0.265
H11 H 0.172 0.372 0.268
H12 H 0.338 0.480 0.268
H13 H 0.447 0.482 0.421
H14 H 0.350 0.373 0.505
H15 H 0.138 0.413 0.425
H16 H 0.145 0.325 0.423
H17 H 0.060 0.106 0.403
H18 H -0.121 0.055 0.329
H19 H -0.140 0.075 0.184
H20 H 0.005 0.162 0.111
H21 H 0.176 0.214 0.195
H22 H 0.017 0.631 0.416
H23 H -0.152 0.691 0.337
H24 H -0.172 0.676 0.187
H25 H -0.016 0.593 0.122
H26 H 0.154 0.536 0.200
Cu2A Cu 0.2522(2) 0.02885(9) 1.1120(1)
O3A O 0.247(1) 0.5992(4) 0.4850(5)
N3 N 0.266(1) 0.2928(7) 0.0425(7)
C24 C 0.386(1) 0.3313(9) 0.0507(9)
C25 C 0.396(1) 0.4083(8) 0.061(1)
C26 C 0.279(1) 0.4458(7) 0.0517(8)
C27 C 0.159(1) 0.4137(8) 0.042(1)
C28 C 0.157(1) 0.3399(9) 0.039(1)
H27 H 0.467 0.303 0.049
H28 H 0.479 0.433 0.073
H29 H 0.282 0.500 0.052
H30 H 0.078 0.443 0.038
H31 H 0.070 0.317 0.033
loop_
_geom_bond_atom_site_label_1
_geom_bond_atom_site_label_2
_geom_bond_site_symmetry_1
_geom_bond_site_symmetry_2
Cu1 O1 1_555 1_555
Cu2 C10 1_555 1_555
O1 C1 1_555 1_555
O2 C1 1_555 1_555
C1 C2 1_555 1_555
C2 C3 1_555 1_555
C3 C4 1_555 1_555
C4 C5 1_555 1_555
C5 C6 1_555 1_555
C6 O3 1_555 1_555
O3 Cu2A 1_555 1_555
O4 C6 1_555 1_555
C7 Cu1 1_555 1_555
C8 Cu1 1_555 1_555
C9 C8 1_555 1_555
C10 C9 1_555 1_555
C11 Cu2 1_555 1_555
C12 C7 1_555 1_555
C13 C9 1_555 1_555
N1 Cu1 1_555 1_555
C14 N1 1_555 1_555
C15 C14 1_555 1_555
C16 C15 1_555 1_555
C17 C16 1_555 1_555
C18 N1 1_555 1_555
N2 Cu2 1_555 1_555
C19 N2 1_555 1_555
C20 C19 1_555 1_555
C21 C20 1_555 1_555
C22 C21 1_555 1_555
C23 N2 1_555 1_555
N3 C24 1_555 1_555
C24 C25 1_555 1_555
C25 C26 1_555 1_555
C26 C27 1_555 1_555
C27 C28 1_555 1_555
C28 N3 1_555 1_555
H1 C2 1_555 1_555
H2 C2 1_555 1_555
H3 C3 1_555 1_555
H4 C3 1_555 1_555
H5 C4 1_555 1_555
H6 C4 1_555 1_555
H7 C5 1_555 1_555
H8 C5 1_555 1_555
H9 C7 1_555 1_555
H10 C8 1_555 1_555
H11 C9 1_555 1_555
H12 C10 1_555 1_555
H13 C11 1_555 1_555
H14 C12 1_555 1_555
H15 C13 1_555 1_555
H16 C13 1_555 1_555
H17 C14 1_555 1_555
H18 C15 1_555 1_555
H19 C16 1_555 1_555
H20 C17 1_555 1_555
H21 C18 1_555 1_555
H22 C19 1_555 1_555
H23 C20 1_555 1_555
H24 C21 1_555 1_555
H25 C22 1_555 1_555
H26 C23 1_555 1_555
H27 C24 1_555 1_555
H28 C25 1_555 1_555
H29 C26 1_555 1_555
H30 C27 1_555 1_555
H31 C28 1_555 1_555
O3A Cu2 1_555 1_555
C7 C8 1_555 1_555
C10 C11 1_555 1_555
C11 C12 1_555 1_555
C12 C13 1_555 1_555
C17 C18 1_555 1_555
C22 C23 1_555 1_555

#END
