
#######################################################################
#
#                 Cambridge Crystallographic Data Centre
#                                CCDC 
#
#######################################################################
#
# If this CIF has been generated from an entry in the Cambridge 
# Structural Database, then it will include bibliographic, chemical, 
# crystal, experimental, refinement or atomic coordinate data resulting 
# from the CCDC's data processing and validation procedures.
#
#######################################################################

data_WEGKOK
_symmetry_cell_setting           monoclinic
_symmetry_space_group_name_H-M   'P 21/c'
_symmetry_Int_Tables_number      14
_space_group_name_Hall           '-P 2ybc'
loop_
_symmetry_equiv_pos_site_id
_symmetry_equiv_pos_as_xyz
1 x,y,z
2 -x,1/2+y,1/2-z
3 -x,-y,-z
4 x,1/2-y,1/2+z
_cell_length_a                   17.705(3)
_cell_length_b                   24.990(4)
_cell_length_c                   19.742(3)
_cell_angle_alpha                90
_cell_angle_beta                 98.044(3)
_cell_angle_gamma                90
_cell_volume                     8648.86
loop_
_atom_site_label
_atom_site_type_symbol
_atom_site_fract_x
_atom_site_fract_y
_atom_site_fract_z
Ag1 Ag 0.29653(2) 0.383521(14) 0.13964(2)
Ag2 Ag 0.40399(2) 0.289801(15) 0.19320(2)
Ag3 Ag 0.19320(3) 0.877058(18) 0.29859(4)
C1 C 0.0750(3) 0.0207(2) 0.2224(3)
H1 H 0.0605 0.0340 0.1774
C2 C 0.1698(4) 0.2804(2) 0.2652(3)
H2 H 0.1609 0.2816 0.3115
C3 C 0.0770(3) 0.2043(2) 0.2451(4)
H3 H 0.0295 0.2058 0.2120
H4 H 0.0643 0.2165 0.2899
C4 C 0.3691(3) 0.7545(2) 0.3057(4)
H5 H 0.4021 0.7374 0.3413
C5 C 0.4360(3) 0.7067(2) 0.2198(4)
H6 H 0.4775 0.7033 0.2587
H7 H 0.4580 0.7215 0.1804
C6 C 0.4834(3) -0.1250(2) 0.3356(3)
H8 H 0.5046 -0.1326 0.3814
C7 C 0.3016(3) 0.1326(2) 0.1490(3)
H9 H 0.2853 0.1131 0.1082
C8 C 0.1505(3) 0.2424(2) 0.1551(3)
H10 H 0.1284 0.2162 0.1235
C9 C 0.2712(3) 0.8038(2) 0.2096(4)
H11 H 0.2365 0.8206 0.1750
C10 C 0.1026(3) 0.2786(2) -0.0382(3)
H12 H 0.0599 0.2554 -0.0398
C11 C 0.4831(3) -0.1366(2) 0.2216(3)
H13 H 0.5047 -0.1524 0.1850
C12 C 0.3762(3) 0.7444(2) 0.2389(3)
C13 C 0.4263(3) 0.4061(2) -0.0316(3)
H14 H 0.4781 0.3965 -0.0180
C14 C 0.4221(3) -0.1029(2) 0.2061(3)
H15 H 0.4022 -0.0960 0.1597
C15 C 0.3275(3) 0.1845(2) 0.1463(3)
H16 H 0.3280 0.2003 0.1027
C16 C 0.2771(3) 0.0523(2) 0.2188(3)
H17 H 0.2442 0.0411 0.1764
H18 H 0.2470 0.0490 0.2572
C17 C 0.3346(3) 0.4675(2) -0.0861(3)
H19 H 0.3223 0.5007 -0.1083
C18 C 0.0862(3) 0.0293(2) 0.3413(3)
H20 H 0.0791 0.0487 0.3814
C19 C 0.4229(3) -0.0900(2) 0.3242(3)
H21 H 0.4038 -0.0734 0.3617
C20 C 0.3659(3) 0.4906(2) 0.1014(3)
H22 H 0.3427 0.4797 0.0572
C21 C 0.1033(3) 0.1464(2) 0.2521(3)
H23 H 0.1195 0.1345 0.2085
H24 H 0.1480 0.1438 0.2882
C22 C 0.1705(3) 0.2602(2) -0.0562(3)
H25 H 0.1752 0.2238 -0.0691
C23 C 0.4024(3) 0.6515(2) 0.2011(3)
H26 H 0.3613 0.6548 0.1619
H27 H 0.3798 0.6368 0.2403
C24 C 0.2776(3) 0.4321(2) -0.0748(2)
H28 H 0.2261 0.4411 -0.0912
C25 C 0.3143(3) 0.7893(2) 0.3211(4)
H29 H 0.3108 0.7962 0.3679
C26 C 0.3254(3) 0.7695(2) 0.1904(4)
H30 H 0.3276 0.7632 0.1433
C27 C 0.1989(3) 0.2802(2) 0.1353(3)
H31 H 0.2092 0.2798 0.0893
C28 C 0.4098(3) 0.4539(2) -0.0645(3)
H32 H 0.4498 0.4774 -0.0724
C29 C 0.0401(3) 0.1093(2) 0.2701(3)
H33 H 0.0230 0.1218 0.3131
H34 H -0.0041 0.1112 0.2334
C30 C 0.1167(3) -0.0210(2) 0.3477(3)
H35 H 0.1306 -0.0356 0.3922
C31 C 0.1049(3) -0.0296(3) 0.2316(3)
H36 H 0.1097 -0.0506 0.1923
C32 C 0.4636(3) 0.6131(2) 0.1826(3)
H37 H 0.4825 0.6258 0.1406
H38 H 0.5071 0.6126 0.2200
C33 C 0.3979(3) 0.5405(2) 0.1081(3)
H39 H 0.3966 0.5632 0.0694
C34 C 0.0657(3) 0.0526(2) 0.2787(3)
C35 C 0.0971(3) 0.3314(2) -0.0177(3)
H40 H 0.0499 0.3443 -0.0066
C36 C 0.1339(3) 0.2428(2) 0.2221(3)
C37 C 0.2183(4) 0.3165(2) 0.2421(3)
H41 H 0.2433 0.3417 0.2735
C38 C 0.2998(3) 0.10956(19) 0.2120(3)
C39 C 0.3232(3) 0.1399(2) 0.2688(3)
H42 H 0.3215 0.1256 0.3131
C40 C 0.3491(3) 0.1911(2) 0.2616(3)
H43 H 0.3660 0.2113 0.3016
C41 C 0.4321(3) 0.5577(2) 0.1713(3)
C42 C 0.3692(3) 0.37141(18) -0.0178(2)
C43 C 0.3463(3) 0.01537(19) 0.2314(3)
H44 H 0.3742 0.0166 0.1913
H45 H 0.3812 0.0283 0.2716
C44 C 0.2318(3) 0.2946(2) -0.0555(2)
H46 H 0.2775 0.2817 -0.0699
C45 C 0.1596(3) 0.36572(19) -0.0133(2)
C46 C 0.2927(3) 0.38405(18) -0.0405(2)
C47 C 0.4318(3) 0.5223(2) 0.2252(3)
H47 H 0.4548 0.5322 0.2698
C48 C 0.3237(3) -0.04171(19) 0.2436(3)
H48 H 0.2944 -0.0425 0.2828
H49 H 0.2896 -0.0546 0.2028
C49 C 0.3924(3) 0.32255(18) 0.0250(2)
C50 C 0.2282(3) 0.34742(19) -0.0343(2)
C51 C 0.3899(3) -0.07895(18) 0.2579(2)
C52 C 0.1521(3) 0.42023(19) 0.0185(2)
C53 C 0.3983(3) 0.4729(2) 0.2144(3)
H50 H 0.3987 0.4494 0.2523
N1 N 0.3653(2) 0.45652(16) 0.1532(2)
N2 N 0.2660(3) 0.81391(19) 0.2741(3)
N3 N 0.2323(2) 0.31779(16) 0.1774(2)
N4 N 0.1276(3) -0.05054(18) 0.2929(3)
N5 N 0.3516(2) 0.21336(16) 0.2012(2)
N6 N 0.5134(2) -0.14842(16) 0.2854(2)
O1 O 0.20894(18) 0.43882(13) 0.05514(16)
O2 O 0.08831(19) 0.44233(15) 0.0072(2)
O3 O 0.3535(2) 0.30992(13) 0.07007(17)
O4 O 0.45237(19) 0.29887(14) 0.01405(19)
Ag2A Ag 0.59601(2) -0.210199(15) 0.30680(2)
Ag3_2 Ag 0.19320(3) -0.122942(18) 0.29859(4)
N4_2 N 0.1276(3) 0.94946(18) 0.2929(3)
N6A N 0.4866(2) 0.35158(16) 0.2146(2)
Ag4 Ag 0.94799(2) 0.315211(15) 0.29178(2)
C54 C 0.8181(3) 0.2197(2) 0.5398(3)
H51 H 0.7723 0.1999 0.5281
C55 C 0.8968(4) 0.4499(3) 0.6025(3)
H52 H 0.8933 0.4699 0.6429
C56 C 0.9113(4) 0.4748(2) 0.5469(3)
H53 H 0.9177 0.5126 0.5469
C57 C 0.7387(3) 0.3012(2) 0.5150(3)
C58 C 0.8842(3) 0.1924(2) 0.5614(3)
H54 H 0.8841 0.1545 0.5656
C59 C 0.9172(4) 0.4454(2) 0.4888(3)
H55 H 0.9276 0.4631 0.4486
C60 C 0.8863(4) 0.3945(3) 0.6031(3)
H56 H 0.8758 0.3779 0.6439
C61 C 0.9498(3) 0.2752(2) 0.5701(3)
H57 H 0.9964 0.2943 0.5803
C62 C 0.8417(3) 0.04469(19) 0.2894(3)
H58 H 0.8864 0.0455 0.3257
H59 H 0.8596 0.0539 0.2456
C63 C 0.8578(3) 0.1654(2) 0.3604(3)
H60 H 0.8625 0.1480 0.4036
C64 C 0.8918(3) 0.2136(2) 0.3546(3)
H61 H 0.9184 0.2295 0.3948
C65 C 0.9506(3) 0.2210(3) 0.5768(3)
H62 H 0.9970 0.2029 0.5922
C66 C 0.9180(3) -0.0742(2) 0.3170(3)
H63 H 0.9192 -0.0640 0.3635
C67 C 0.8112(3) 0.16969(19) 0.2433(3)
H64 H 0.7813 0.1561 0.2033
C68 C 0.7835(3) 0.0862(2) 0.3054(3)
H65 H 0.7370 0.0836 0.2713
H66 H 0.7689 0.0791 0.3512
C69 C 0.9177(3) 0.3613(2) 0.4226(3)
C70 C 0.8153(3) 0.2748(2) 0.5342(3)
C71 C 0.9690(3) -0.1102(2) 0.2995(3)
H67 H 1.0051 -0.1247 0.3349
C72 C 0.8906(3) 0.3631(2) 0.5459(2)
C73 C 0.8660(3) -0.0692(2) 0.2006(3)
H68 H 0.8301 -0.0557 0.1644
C74 C 0.9196(3) -0.1052(2) 0.1873(3)
H69 H 0.9202 -0.1157 0.1411
C75 C 0.8164(3) 0.14151(19) 0.3039(3)
C76 C 0.8830(3) 0.3038(2) 0.5489(2)
C77 C 0.8638(3) -0.05224(18) 0.2670(2)
C78 C 0.8078(3) -0.01201(19) 0.2846(3)
H70 H 0.7914 -0.0217 0.3289
H71 H 0.7623 -0.0126 0.2492
C79 C 0.9081(3) 0.3901(2) 0.4882(3)
C80 C 0.8494(3) 0.2175(2) 0.2408(3)
H72 H 0.8468 0.2354 0.1980
N7 N 0.8898(2) 0.23977(16) 0.2955(2)
N8 N 0.9717(2) -0.12664(16) 0.2356(2)
O5 O 0.6861(3) 0.27256(19) 0.4880(3)
O6 O 0.7317(2) 0.34993(17) 0.5237(2)
O7 O 0.8692(2) 0.37161(16) 0.37220(18)
O8 O 0.9753(3) 0.33154(17) 0.4239(2)
Ag4A Ag 1.05201(2) -0.184789(15) 0.20822(2)
N8A N 1.0283(2) 0.37336(16) 0.2644(2)
O9 O 0.3638(3) 0.4080(3) 0.3551(3)
O10 O 0.3389(3) 0.3300(2) 0.4529(3)
O11 O 0.0851(3) 0.3608(2) 0.5254(3)
O12 O 0.0641(3) 0.5506(2) 0.0367(3)
H73 H 0.0750 0.5183 0.0289
H74 H 0.0168 0.5552 0.0236
O13 O 0.5058(3) 0.5663(2) 0.5590(3)
O14 O 0.2130(2) 0.54972(16) 0.0163(2)
H75 H 0.1668 0.5566 0.0204
H76 H 0.2212 0.5170 0.0264
O15 O 0.4369(3) 0.46714(18) 0.5578(2)
O16 O 0.2625(3) 0.58076(18) 0.5831(2)
O17 O 0.4432(2) 0.6700(2) 0.5460(2)
O18 O 0.4867(3) 0.61135(19) 0.3582(2)
O19 O 0.2802(3) 0.48157(18) 0.5294(3)
O20 O 0.4372(3) 0.2614(2) 0.3912(2)
O21 O 0.3892(2) 0.67456(19) 0.9943(3)
H77 H 0.4357 0.6818 0.9918
H78 H 0.3660 0.7037 0.9999
O22 O 0.3298(3) 0.6008(2) 0.3690(2)
O23 O 0.2895(3) 0.4972(2) 0.3865(3)
O24 O 0.4667(3) 0.3056(2) 0.5557(3)
O25 O 0.2123(3) 0.3888(2) 0.4703(3)
O26 O 0.2818(3) 0.89805(16) 0.4203(2)
H79 H 0.2598 0.9146 0.4496
H80 H 0.3137 0.8763 0.4414
loop_
_geom_bond_atom_site_label_1
_geom_bond_atom_site_label_2
_geom_bond_site_symmetry_1
_geom_bond_site_symmetry_2
Ag1 N1 1_555 1_555
Ag2 N5 1_555 1_555
Ag3 N2 1_555 1_555
C1 H1 1_555 1_555
C2 H2 1_555 1_555
C3 H3 1_555 1_555
H4 C3 1_555 1_555
C4 H5 1_555 1_555
C5 H6 1_555 1_555
H7 C5 1_555 1_555
C6 H8 1_555 1_555
C7 H9 1_555 1_555
C8 H10 1_555 1_555
C9 H11 1_555 1_555
C10 H12 1_555 1_555
C11 H13 1_555 1_555
C12 C4 1_555 1_555
C13 H14 1_555 1_555
C14 C11 1_555 1_555
H15 C14 1_555 1_555
C15 C7 1_555 1_555
H16 C15 1_555 1_555
C16 H17 1_555 1_555
H18 C16 1_555 1_555
C17 H19 1_555 1_555
C18 H20 1_555 1_555
C19 C6 1_555 1_555
H21 C19 1_555 1_555
C20 H22 1_555 1_555
C21 C3 1_555 1_555
H23 C21 1_555 1_555
H24 C21 1_555 1_555
C22 C10 1_555 1_555
H25 C22 1_555 1_555
C23 C5 1_555 1_555
H26 C23 1_555 1_555
H27 C23 1_555 1_555
C24 C17 1_555 1_555
H28 C24 1_555 1_555
C25 C4 1_555 1_555
H29 C25 1_555 1_555
C26 C9 1_555 1_555
H30 C26 1_555 1_555
C27 C8 1_555 1_555
H31 C27 1_555 1_555
C28 C13 1_555 1_555
H32 C28 1_555 1_555
C29 C21 1_555 1_555
H33 C29 1_555 1_555
H34 C29 1_555 1_555
C30 C18 1_555 1_555
H35 C30 1_555 1_555
C31 C1 1_555 1_555
H36 C31 1_555 1_555
C32 C23 1_555 1_555
H37 C32 1_555 1_555
H38 C32 1_555 1_555
C33 C20 1_555 1_555
H39 C33 1_555 1_555
C34 C1 1_555 1_555
C35 C10 1_555 1_555
H40 C35 1_555 1_555
C36 C2 1_555 1_555
C37 C2 1_555 1_555
H41 C37 1_555 1_555
C38 C7 1_555 1_555
C39 C38 1_555 1_555
H42 C39 1_555 1_555
C40 C39 1_555 1_555
H43 C40 1_555 1_555
C41 C32 1_555 1_555
C42 C13 1_555 1_555
C43 C16 1_555 1_555
H44 C43 1_555 1_555
H45 C43 1_555 1_555
C44 C22 1_555 1_555
H46 C44 1_555 1_555
C45 C35 1_555 1_555
C46 C24 1_555 1_555
C47 C41 1_555 1_555
H47 C47 1_555 1_555
C48 C43 1_555 1_555
H48 C48 1_555 1_555
H49 C48 1_555 1_555
C49 C42 1_555 1_555
C50 C44 1_555 1_555
C51 C14 1_555 1_555
C52 C45 1_555 1_555
C53 C47 1_555 1_555
H50 C53 1_555 1_555
N1 C20 1_555 1_555
N2 C9 1_555 1_555
N3 Ag1 1_555 1_555
N4 C30 1_555 1_555
N5 C15 1_555 1_555
N6 C6 1_555 1_555
O1 Ag1 1_555 1_555
O2 C52 1_555 1_555
O3 Ag1 1_555 1_555
O4 C49 1_555 1_555
Ag4 N7 1_555 1_555
C54 H51 1_555 1_555
C55 H52 1_555 1_555
C56 C55 1_555 1_555
H53 C56 1_555 1_555
C57 C70 1_555 1_555
C58 C54 1_555 1_555
H54 C58 1_555 1_555
C59 C56 1_555 1_555
H55 C59 1_555 1_555
C60 C55 1_555 1_555
H56 C60 1_555 1_555
C61 H57 1_555 1_555
C62 H58 1_555 1_555
H59 C62 1_555 1_555
C63 H60 1_555 1_555
C64 C63 1_555 1_555
H61 C64 1_555 1_555
C65 C58 1_555 1_555
H62 C65 1_555 1_555
C66 H63 1_555 1_555
C67 H64 1_555 1_555
C68 C62 1_555 1_555
H65 C68 1_555 1_555
H66 C68 1_555 1_555
C69 C79 1_555 1_555
C70 C54 1_555 1_555
C71 C66 1_555 1_555
H67 C71 1_555 1_555
C72 C60 1_555 1_555
C73 H68 1_555 1_555
C74 C73 1_555 1_555
H69 C74 1_555 1_555
C75 C63 1_555 1_555
C76 C61 1_555 1_555
C77 C66 1_555 1_555
C78 C62 1_555 1_555
H70 C78 1_555 1_555
H71 C78 1_555 1_555
C79 C59 1_555 1_555
C80 C67 1_555 1_555
H72 C80 1_555 1_555
N7 C64 1_555 1_555
N8 C71 1_555 1_555
O5 C57 1_555 1_555
O6 C57 1_555 1_555
O7 C69 1_555 1_555
O8 Ag4 1_555 1_555
O12 H73 1_555 1_555
H74 O12 1_555 1_555
O14 H75 1_555 1_555
H76 O14 1_555 1_555
O21 H77 1_555 1_555
H78 O21 1_555 1_555
O26 H79 1_555 1_555
H80 O26 1_555 1_555
Ag2A N6 1_555 1_555
Ag3_2 N4 1_555 1_555
N4_2 Ag3 1_555 1_555
N6A Ag2 1_555 1_555
Ag4A N8 1_555 1_555
N8A Ag4 1_555 1_555
Ag2 O3 1_555 1_555
C3 C36 1_555 1_555
C5 C12 1_555 1_555
C8 C36 1_555 1_555
C11 N6 1_555 1_555
C12 C26 1_555 1_555
C16 C38 1_555 1_555
C17 C28 1_555 1_555
C18 C34 1_555 1_555
C19 C51 1_555 1_555
C25 N2 1_555 1_555
C27 N3 1_555 1_555
C29 C34 1_555 1_555
C31 N4 1_555 1_555
C33 C41 1_555 1_555
C37 N3 1_555 1_555
C40 N5 1_555 1_555
C42 C46 1_555 1_555
C45 C50 1_555 1_555
C46 C50 1_555 1_555
C48 C51 1_555 1_555
C49 O3 1_555 1_555
C52 O1 1_555 1_555
C53 N1 1_555 1_555
C61 C65 1_555 1_555
C67 C75 1_555 1_555
C68 C75 1_555 1_555
C69 O8 1_555 1_555
C70 C76 1_555 1_555
C72 C76 1_555 1_555
C72 C79 1_555 1_555
C73 C77 1_555 1_555
C74 N8 1_555 1_555
C77 C78 1_555 1_555
C80 N7 1_555 1_555

#END
