
#######################################################################
#
#                 Cambridge Crystallographic Data Centre
#                                CCDC 
#
#######################################################################
#
# If this CIF has been generated from an entry in the Cambridge 
# Structural Database, then it will include bibliographic, chemical, 
# crystal, experimental, refinement or atomic coordinate data resulting 
# from the CCDC's data processing and validation procedures.
#
#######################################################################

data_WEGKUQ
_symmetry_cell_setting           triclinic
_symmetry_space_group_name_H-M   'P -1'
_symmetry_Int_Tables_number      2
_space_group_name_Hall           '-P 1'
loop_
_symmetry_equiv_pos_site_id
_symmetry_equiv_pos_as_xyz
1 x,y,z
2 -x,-y,-z
_cell_length_a                   6.1131(4)
_cell_length_b                   12.0527(10)
_cell_length_c                   12.1099(10)
_cell_angle_alpha                106.976(3)
_cell_angle_beta                 95.672(2)
_cell_angle_gamma                93.390(3)
_cell_volume                     845.557
loop_
_atom_site_label
_atom_site_type_symbol
_atom_site_fract_x
_atom_site_fract_y
_atom_site_fract_z
C1 C 0.0179(8) 0.1999(4) 0.8636(4)
C2 C -0.1608(9) 0.2430(4) 0.9236(4)
C3 C -0.2324(8) 0.3495(4) 0.9265(4)
H1 H -0.3560 0.3757 0.9651
C4 C -0.1216(8) 0.4176(4) 0.8722(4)
C5 C 0.0575(8) 0.3834(4) 0.8144(4)
H2 H 0.1319 0.4325 0.7786
C6 C 0.1244(8) 0.2762(4) 0.8103(4)
C7 C 0.6876(8) 0.3178(4) 0.5898(4)
C8 C 0.5672(8) 0.2387(4) 0.6383(4)
C9 C 0.6293(8) 0.1246(4) 0.6211(4)
C10 C 0.9303(8) 0.1664(4) 0.5188(4)
N1 N 0.2964(7) 0.2238(3) 0.7499(4)
N2 N 0.4028(6) 0.2846(4) 0.6982(4)
N3 N -0.2065(7) 0.5284(4) 0.8732(4)
N4 N 0.8084(7) 0.0945(4) 0.5624(4)
H3 H 0.8473 0.0234 0.5523
N5 N 0.8644(7) 0.2747(3) 0.5335(4)
H4 H 0.9408 0.3215 0.5046
O1 O 0.0880(6) 0.0996(3) 0.8573(3)
O2 O -0.0980(6) 0.5974(3) 0.8392(3)
O3 O -0.3887(7) 0.5460(4) 0.9063(4)
O4 O 0.5374(6) 0.0443(3) 0.6526(3)
O5 O 1.0913(6) 0.1323(3) 0.4692(3)
O6 O 0.6451(6) 0.4166(3) 0.5977(3)
O7 O 0.2784(5) -0.1038(3) 0.7281(3)
O8 O -0.1349(5) 0.1211(3) 1.0686(3)
O9 O -0.4065(6) 0.0537(3) 0.9021(3)
O10 O -0.4582(6) 0.2243(3) 1.0573(3)
O11 O 0.3100(6) 0.1878(3) 1.2865(3)
S1 S -0.3005(2) 0.15543(10) 0.99348(11)
Cu1 Cu 0.32019(10) 0.06670(5) 0.75849(5)
Na1 Na 0.2319(3) 0.11160(18) 1.07895(19)
H5 H 0.3899 -0.1447 0.7255
H6 H 0.2103 -0.1279 0.7897
O9_2 O 0.5935(6) 0.0537(3) 0.9021(3)
O9A O 0.4065(6) -0.0537(3) 1.0979(3)
O10_2 O 0.5418(6) 0.2243(3) 1.0573(3)
Cu1_2 Cu -0.67981(10) 0.06670(5) 0.75849(5)
Na1A Na -0.2319(3) -0.11160(18) 0.92105(19)
Na1_2 Na -0.7681(3) 0.11160(18) 1.07895(19)
O12 O -0.3431(7) 0.4109(4) 1.2987(4)
H7 H -0.404(9) 0.383(5) 1.225(2)
H8 H -0.411(9) 0.474(3) 1.327(5)
O13 O 0.0745(6) 0.3855(3) 1.4007(3)
H9 H -0.037(7) 0.401(5) 1.357(5)
H10 H 0.140(9) 0.457(3) 1.423(5)
loop_
_geom_bond_atom_site_label_1
_geom_bond_atom_site_label_2
_geom_bond_site_symmetry_1
_geom_bond_site_symmetry_2
C1 C2 1_555 1_555
C2 C3 1_555 1_555
C3 H1 1_555 1_555
C4 C3 1_555 1_555
C5 C4 1_555 1_555
H2 C5 1_555 1_555
C6 C1 1_555 1_555
C7 C8 1_555 1_555
C8 C9 1_555 1_555
C9 N4 1_555 1_555
C10 N4 1_555 1_555
N1 C6 1_555 1_555
N2 C8 1_555 1_555
N3 C4 1_555 1_555
N4 H3 1_555 1_555
N5 C7 1_555 1_555
H4 N5 1_555 1_555
O1 C1 1_555 1_555
O2 N3 1_555 1_555
O3 N3 1_555 1_555
O4 C9 1_555 1_555
O5 C10 1_555 1_555
O6 C7 1_555 1_555
O7 Cu1 1_555 1_555
O8 S1 1_555 1_555
O9 S1 1_555 1_555
O10 S1 1_555 1_555
O11 Na1 1_555 1_555
O12 H7 1_555 1_555
O13 H9 1_555 1_555
S1 C2 1_555 1_555
Cu1 N1 1_555 1_555
Na1 O1 1_555 1_555
H5 O7 1_555 1_555
H6 O7 1_555 1_555
H8 O12 1_555 1_555
H10 O13 1_555 1_555
O9_2 Cu1 1_555 1_555
O9A Na1 1_555 1_555
O10_2 Na1 1_555 1_555
Cu1_2 O9 1_555 1_555
Na1A O9 1_555 1_555
Na1_2 O10 1_555 1_555
C5 C6 1_555 1_555
C10 N5 1_555 1_555
N1 N2 1_555 1_555
O1 Cu1 1_555 1_555
O4 Cu1 1_555 1_555
O8 Na1 1_555 1_555

#END
