
#######################################################################
#
#                 Cambridge Crystallographic Data Centre
#                                CCDC 
#
#######################################################################
#
# If this CIF has been generated from an entry in the Cambridge 
# Structural Database, then it will include bibliographic, chemical, 
# crystal, experimental, refinement or atomic coordinate data resulting 
# from the CCDC's data processing and validation procedures.
#
#######################################################################

data_WEGKIE
_symmetry_cell_setting           cubic
_symmetry_space_group_name_H-M   'F m -3 m'
_symmetry_Int_Tables_number      225
_space_group_name_Hall           '-F 4 2 3'
loop_
_symmetry_equiv_pos_site_id
_symmetry_equiv_pos_as_xyz
1 x,y,z
2 -y,x,z
3 -x,-y,z
4 y,-x,z
5 x,-y,-z
6 y,x,-z
7 -x,y,-z
8 -y,-x,-z
9 z,x,y
10 -x,z,y
11 -z,-x,y
12 x,-z,y
13 z,-x,-y
14 x,z,-y
15 -z,x,-y
16 -x,-z,-y
17 y,z,x
18 -z,-y,-x
19 -z,y,x
20 z,y,-x
21 z,-y,x
22 y,-z,-x
23 -y,-z,x
24 -y,z,-x
25 x,1/2+y,1/2+z
26 -y,1/2+x,1/2+z
27 -x,1/2-y,1/2+z
28 y,1/2-x,1/2+z
29 x,1/2-y,1/2-z
30 y,1/2+x,1/2-z
31 -x,1/2+y,1/2-z
32 -y,1/2-x,1/2-z
33 z,1/2+x,1/2+y
34 -x,1/2+z,1/2+y
35 -z,1/2-x,1/2+y
36 x,1/2-z,1/2+y
37 z,1/2-x,1/2-y
38 x,1/2+z,1/2-y
39 -z,1/2+x,1/2-y
40 -x,1/2-z,1/2-y
41 y,1/2+z,1/2+x
42 -z,1/2-y,1/2-x
43 -z,1/2+y,1/2+x
44 z,1/2+y,1/2-x
45 z,1/2-y,1/2+x
46 y,1/2-z,1/2-x
47 -y,1/2-z,1/2+x
48 -y,1/2+z,1/2-x
49 1/2+x,y,1/2+z
50 1/2-y,x,1/2+z
51 1/2-x,-y,1/2+z
52 1/2+y,-x,1/2+z
53 1/2+x,-y,1/2-z
54 1/2+y,x,1/2-z
55 1/2-x,y,1/2-z
56 1/2-y,-x,1/2-z
57 1/2+z,x,1/2+y
58 1/2-x,z,1/2+y
59 1/2-z,-x,1/2+y
60 1/2+x,-z,1/2+y
61 1/2+z,-x,1/2-y
62 1/2+x,z,1/2-y
63 1/2-z,x,1/2-y
64 1/2-x,-z,1/2-y
65 1/2+y,z,1/2+x
66 1/2-z,-y,1/2-x
67 1/2-z,y,1/2+x
68 1/2+z,y,1/2-x
69 1/2+z,-y,1/2+x
70 1/2+y,-z,1/2-x
71 1/2-y,-z,1/2+x
72 1/2-y,z,1/2-x
73 1/2+x,1/2+y,z
74 1/2-y,1/2+x,z
75 1/2-x,1/2-y,z
76 1/2+y,1/2-x,z
77 1/2+x,1/2-y,-z
78 1/2+y,1/2+x,-z
79 1/2-x,1/2+y,-z
80 1/2-y,1/2-x,-z
81 1/2+z,1/2+x,y
82 1/2-x,1/2+z,y
83 1/2-z,1/2-x,y
84 1/2+x,1/2-z,y
85 1/2+z,1/2-x,-y
86 1/2+x,1/2+z,-y
87 1/2-z,1/2+x,-y
88 1/2-x,1/2-z,-y
89 1/2+y,1/2+z,x
90 1/2-z,1/2-y,-x
91 1/2-z,1/2+y,x
92 1/2+z,1/2+y,-x
93 1/2+z,1/2-y,x
94 1/2+y,1/2-z,-x
95 1/2-y,1/2-z,x
96 1/2-y,1/2+z,-x
97 -x,-y,-z
98 y,-x,-z
99 x,y,-z
100 -y,x,-z
101 -x,y,z
102 -y,-x,z
103 x,-y,z
104 y,x,z
105 -z,-x,-y
106 x,-z,-y
107 z,x,-y
108 -x,z,-y
109 -z,x,y
110 -x,-z,y
111 z,-x,y
112 x,z,y
113 -y,-z,-x
114 z,y,x
115 z,-y,-x
116 -z,-y,x
117 -z,y,-x
118 -y,z,x
119 y,z,-x
120 y,-z,x
121 -x,1/2-y,1/2-z
122 y,1/2-x,1/2-z
123 x,1/2+y,1/2-z
124 -y,1/2+x,1/2-z
125 -x,1/2+y,1/2+z
126 -y,1/2-x,1/2+z
127 x,1/2-y,1/2+z
128 y,1/2+x,1/2+z
129 -z,1/2-x,1/2-y
130 x,1/2-z,1/2-y
131 z,1/2+x,1/2-y
132 -x,1/2+z,1/2-y
133 -z,1/2+x,1/2+y
134 -x,1/2-z,1/2+y
135 z,1/2-x,1/2+y
136 x,1/2+z,1/2+y
137 -y,1/2-z,1/2-x
138 z,1/2+y,1/2+x
139 z,1/2-y,1/2-x
140 -z,1/2-y,1/2+x
141 -z,1/2+y,1/2-x
142 -y,1/2+z,1/2+x
143 y,1/2+z,1/2-x
144 y,1/2-z,1/2+x
145 1/2-x,-y,1/2-z
146 1/2+y,-x,1/2-z
147 1/2+x,y,1/2-z
148 1/2-y,x,1/2-z
149 1/2-x,y,1/2+z
150 1/2-y,-x,1/2+z
151 1/2+x,-y,1/2+z
152 1/2+y,x,1/2+z
153 1/2-z,-x,1/2-y
154 1/2+x,-z,1/2-y
155 1/2+z,x,1/2-y
156 1/2-x,z,1/2-y
157 1/2-z,x,1/2+y
158 1/2-x,-z,1/2+y
159 1/2+z,-x,1/2+y
160 1/2+x,z,1/2+y
161 1/2-y,-z,1/2-x
162 1/2+z,y,1/2+x
163 1/2+z,-y,1/2-x
164 1/2-z,-y,1/2+x
165 1/2-z,y,1/2-x
166 1/2-y,z,1/2+x
167 1/2+y,z,1/2-x
168 1/2+y,-z,1/2+x
169 1/2-x,1/2-y,-z
170 1/2+y,1/2-x,-z
171 1/2+x,1/2+y,-z
172 1/2-y,1/2+x,-z
173 1/2-x,1/2+y,z
174 1/2-y,1/2-x,z
175 1/2+x,1/2-y,z
176 1/2+y,1/2+x,z
177 1/2-z,1/2-x,-y
178 1/2+x,1/2-z,-y
179 1/2+z,1/2+x,-y
180 1/2-x,1/2+z,-y
181 1/2-z,1/2+x,y
182 1/2-x,1/2-z,y
183 1/2+z,1/2-x,y
184 1/2+x,1/2+z,y
185 1/2-y,1/2-z,-x
186 1/2+z,1/2+y,x
187 1/2+z,1/2-y,-x
188 1/2-z,1/2-y,x
189 1/2-z,1/2+y,-x
190 1/2-y,1/2+z,x
191 1/2+y,1/2+z,-x
192 1/2+y,1/2-z,x
_cell_length_a                   30.7911(18)
_cell_length_b                   30.7911(18)
_cell_length_c                   30.7911(18)
_cell_angle_alpha                90
_cell_angle_beta                 90
_cell_angle_gamma                90
_cell_volume                     29192.8
loop_
_atom_site_label
_atom_site_type_symbol
_atom_site_fract_x
_atom_site_fract_y
_atom_site_fract_z
Cl1 Cl 0.2500 1.0000 0.2500
Cu1 Cu 0.16761(2) 1.0000 0.24967(2)
O1 O 0.15586(12) 1.04462(11) 0.29273(11)
O2 O 0.15605(11) 0.95497(11) 0.20750(10)
C1 C 0.17338(14) 1.05822(18) 0.32662(14)
C2 C 0.15235(14) 1.09690(19) 0.34765(14)
C3 C 0.11513(15) 1.11513(15) 0.32949(19)
H1 H 0.1027 1.1027 0.3050
C4 C 0.17321(14) 0.94126(19) 0.17321(14)
C5 C 0.15185(14) 0.90340(18) 0.15185(14)
C6 C 0.11503(14) 0.88497(14) 0.1704(2)
H2 H 0.1029 0.8971 0.1950
Cl1A Cl 0.0000 1.2500 0.2500
Cl1IA Cl 0.2500 1.2500 0.5000
Cl1C Cl 0.0000 0.7500 0.2500
Cl1FA Cl 0.2500 0.7500 0.5000
Cl1K Cl 0.2500 0.7500 0.0000
Cl1H Cl 0.2500 1.2500 0.0000
Cu1T Cu 0.24967(2) 1.0000 0.16761(2)
Cu1BB Cu 0.33239(2) 1.0000 0.25033(2)
Cu1MB Cu 0.25033(2) 1.0000 0.33239(2)
Cu1SA Cu 0.0000 1.25033(2) 0.33239(2)
Cu1A Cu 0.0000 1.16761(2) 0.24967(2)
Cu1JB Cu 0.25033(2) 1.16761(2) 0.5000
Cu1IA Cu 0.16761(2) 1.25033(2) 0.5000
Cu1UA Cu 0.0000 0.74967(2) 0.33239(2)
Cu1C Cu 0.0000 0.83239(2) 0.24967(2)
Cu1FB Cu 0.25033(2) 0.83239(2) 0.5000
Cu1KA Cu 0.16761(2) 0.74967(2) 0.5000
Cu1V Cu 0.0000 0.75033(2) 0.16761(2)
Cu1L Cu 0.24967(2) 0.83239(2) 0.0000
Cu1K Cu 0.16761(2) 0.75033(2) 0.0000
Cu1P Cu 0.0000 1.24967(2) 0.16761(2)
Cu1H Cu 0.24967(2) 1.16761(2) 0.0000
Cu1M Cu 0.16761(2) 1.24967(2) 0.0000
Cu1EA Cu 0.0000 1.33239(2) 0.25033(2)
Cu1EB Cu 0.33239(2) 1.24967(2) 0.5000
Cu1CA Cu 0.0000 0.66761(2) 0.25033(2)
Cu1KB Cu 0.33239(2) 0.75033(2) 0.5000
Cu1JA Cu 0.24967(2) 1.33239(2) 0.5000
Cu1FA Cu 0.24967(2) 0.66761(2) 0.5000
Cu1CC Cu 0.33239(2) 0.74967(2) 0.0000
Cu1CB Cu 0.5000 0.83239(2) 0.25033(2)
Cu1JC Cu 0.5000 0.74967(2) 0.16761(2)
Cu1IC Cu 0.33239(2) 1.25033(2) 0.0000
Cu1AB Cu 0.5000 1.16761(2) 0.25033(2)
Cu1PC Cu 0.5000 1.25033(2) 0.16761(2)
Cu1QB Cu 0.5000 0.75033(2) 0.33239(2)
Cu1SB Cu 0.5000 1.24967(2) 0.33239(2)
Cu1DB Cu -0.25033(2) 1.16761(2) 0.5000
Cu1MA Cu -0.16761(2) 1.25033(2) 0.5000
Cu1B Cu -0.16761(2) 1.0000 0.24967(2)
Cu1OB Cu -0.25033(2) 1.0000 0.33239(2)
Cu1HA Cu -0.24967(2) 1.33239(2) 0.5000
Cu1DA Cu -0.16761(2) 1.5000 0.25033(2)
Cu1OA Cu -0.24967(2) 1.5000 0.33239(2)
Cu1BA Cu 0.16761(2) 1.5000 0.25033(2)
Cu1QA Cu 0.24967(2) 1.5000 0.33239(2)
Cu1R Cu -0.24967(2) 1.0000 0.16761(2)
Cu1I Cu -0.16761(2) 1.24967(2) 0.0000
Cu1N Cu -0.24967(2) 1.16761(2) 0.0000
Cu1D Cu 0.16761(2) 1.0000 0.75033(2)
Cu1NB Cu 0.25033(2) 1.0000 0.66761(2)
Cu1TA Cu 0.0000 1.25033(2) 0.66761(2)
Cu1E Cu 0.0000 1.16761(2) 0.75033(2)
Cu1XA Cu 0.33239(2) 1.0000 0.74967(2)
Cu1LB Cu 0.5000 1.24967(2) 0.66761(2)
Cu1WA Cu 0.5000 1.16761(2) 0.74967(2)
Cu1HB Cu -0.25033(2) 0.83239(2) 0.5000
Cu1GA Cu -0.16761(2) 0.74967(2) 0.5000
Cu1NA Cu 0.0000 0.74967(2) 0.66761(2)
Cu1G Cu 0.0000 0.83239(2) 0.75033(2)
Cu1HC Cu 0.25033(2) 0.66761(2) 0.0000
O1HF O 0.20727(11) 1.04462(11) 0.34414(12)
O1SA O 0.04462(11) 1.20727(11) 0.34414(12)
O1YC O 0.04462(11) 1.15586(12) 0.29273(11)
O1JB O 0.20727(11) 1.15586(12) 0.45538(11)
O1YD O 0.15586(12) 1.20727(11) 0.45538(11)
O1XC O 0.15586(12) 0.95538(11) 0.29273(11)
O1MB O 0.20727(11) 0.95538(11) 0.34414(12)
O1LE O 0.04462(11) 0.79273(11) 0.34414(12)
O1C O 0.04462(11) 0.84414(12) 0.29273(11)
O1VE O 0.20727(11) 0.84414(12) 0.45538(11)
O1KA O 0.15586(12) 0.79273(11) 0.45538(11)
O1T O 0.29273(11) 0.95538(11) 0.15586(12)
O1NE O 0.34414(12) 0.95538(11) 0.20727(11)
O1CC O 0.34414(12) 0.79273(11) 0.04462(11)
O1FD O 0.29273(11) 0.84414(12) 0.04462(11)
O1CB O 0.45538(11) 0.84414(12) 0.20727(11)
O1GG O 0.45538(11) 0.79273(11) 0.15586(12)
O1ID O 0.29273(11) 1.04462(11) 0.15586(12)
O1BB O 0.34414(12) 1.04462(11) 0.20727(11)
O1YF O 0.34414(12) 1.20727(11) 0.04462(11)
O1H O 0.29273(11) 1.15586(12) 0.04462(11)
O1QE O 0.45538(11) 1.15586(12) 0.20727(11)
O1PC O 0.45538(11) 1.20727(11) 0.15586(12)
O1FE O -0.04462(11) 1.20727(11) 0.34414(12)
O1A O -0.04462(11) 1.15586(12) 0.29273(11)
O1XE O -0.20727(11) 1.15586(12) 0.45538(11)
O1MA O -0.15586(12) 1.20727(11) 0.45538(11)
O1VC O -0.15586(12) 1.04462(11) 0.29273(11)
O1OB O -0.20727(11) 1.04462(11) 0.34414(12)
O1ZE O 0.20727(11) 1.15586(12) 0.54462(11)
O1IA O 0.15586(12) 1.20727(11) 0.54462(11)
O1TC O 0.15586(12) 1.04462(11) 0.70727(11)
O1NB O 0.20727(11) 1.04462(11) 0.65586(12)
O1ME O 0.04462(11) 1.20727(11) 0.65586(12)
O1E O 0.04462(11) 1.15586(12) 0.70727(11)
O1UA O -0.04462(11) 0.79273(11) 0.34414(12)
O1WC O -0.04462(11) 0.84414(12) 0.29273(11)
O1HB O -0.20727(11) 0.84414(12) 0.45538(11)
O1AE O -0.15586(12) 0.79273(11) 0.45538(11)
O1B O -0.15586(12) 0.95538(11) 0.29273(11)
O1FF O -0.20727(11) 0.95538(11) 0.34414(12)
O1FB O 0.20727(11) 0.84414(12) 0.54462(11)
O1EE O 0.15586(12) 0.79273(11) 0.54462(11)
O1D O 0.15586(12) 0.95538(11) 0.70727(11)
O1GF O 0.20727(11) 0.95538(11) 0.65586(12)
O1NA O 0.04462(11) 0.79273(11) 0.65586(12)
O1SC O 0.04462(11) 0.84414(12) 0.70727(11)
O1V O -0.04462(11) 0.70727(11) 0.15586(12)
O1OD O 0.04462(11) 0.70727(11) 0.15586(12)
O1L O 0.29273(11) 0.84414(12) -0.04462(11)
O1AD O 0.15586(12) 0.70727(11) -0.04462(11)
O1K O 0.15586(12) 0.70727(11) 0.04462(11)
O1MD O -0.04462(11) 1.29273(11) 0.15586(12)
O1P O 0.04462(11) 1.29273(11) 0.15586(12)
O1BD O 0.29273(11) 1.15586(12) -0.04462(11)
O1M O 0.15586(12) 1.29273(11) -0.04462(11)
O1GD O 0.15586(12) 1.29273(11) 0.04462(11)
O1EA O -0.04462(11) 1.34414(12) 0.20727(11)
O1QD O 0.04462(11) 1.34414(12) 0.20727(11)
O1EB O 0.34414(12) 1.29273(11) 0.54462(11)
O1YE O 0.34414(12) 1.29273(11) 0.45538(11)
O1SD O -0.04462(11) 0.65586(12) 0.20727(11)
O1CA O 0.04462(11) 0.65586(12) 0.20727(11)
O1AF O 0.34414(12) 0.70727(11) 0.54462(11)
O1KB O 0.34414(12) 0.70727(11) 0.45538(11)
O1JA O 0.29273(11) 1.34414(12) 0.45538(11)
O1DE O 0.29273(11) 1.34414(12) 0.54462(11)
O1ZD O 0.29273(11) 0.65586(12) 0.45538(11)
O1FA O 0.29273(11) 0.65586(12) 0.54462(11)
O2ID O 0.20750(10) 0.95497(11) 0.15605(11)
O2V O 0.04503(11) 0.79250(10) 0.15605(11)
O2WC O 0.04503(11) 0.84395(11) 0.20750(10)
O2L O 0.20750(10) 0.84395(11) 0.04503(11)
O2AD O 0.15605(11) 0.79250(10) 0.04503(11)
O2XC O 0.15605(11) 1.04503(11) 0.20750(10)
O2T O 0.20750(10) 1.04503(11) 0.15605(11)
O2MD O 0.04503(11) 1.20750(10) 0.15605(11)
O2A O 0.04503(11) 1.15605(11) 0.20750(10)
O2BD O 0.20750(10) 1.15605(11) 0.04503(11)
O2M O 0.15605(11) 1.20750(10) 0.04503(11)
O2BB O 0.34395(11) 0.95497(11) 0.29250(10)
O2HF O 0.29250(10) 0.95497(11) 0.34395(11)
O2QB O 0.45497(11) 0.79250(10) 0.34395(11)
O2OE O 0.45497(11) 0.84395(11) 0.29250(10)
O2FB O 0.29250(10) 0.84395(11) 0.45497(11)
O2AF O 0.34395(11) 0.79250(10) 0.45497(11)
O2NE O 0.34395(11) 1.04503(11) 0.29250(10)
O2MB O 0.29250(10) 1.04503(11) 0.34395(11)
O2JF O 0.45497(11) 1.20750(10) 0.34395(11)
O2AB O 0.45497(11) 1.15605(11) 0.29250(10)
O2ZE O 0.29250(10) 1.15605(11) 0.45497(11)
O2EB O 0.34395(11) 1.20750(10) 0.45497(11)
O2SA O -0.04503(11) 1.29250(10) 0.34395(11)
O2QD O -0.04503(11) 1.34395(11) 0.29250(10)
O2HA O -0.20750(10) 1.34395(11) 0.45497(11)
O2CE O -0.15605(11) 1.29250(10) 0.45497(11)
O2DA O -0.15605(11) 1.45497(11) 0.29250(10)
O2JE O -0.20750(10) 1.45497(11) 0.34395(11)
O2FE O 0.04503(11) 1.29250(10) 0.34395(11)
O2EA O 0.04503(11) 1.34395(11) 0.29250(10)
O2DE O 0.20750(10) 1.34395(11) 0.45497(11)
O2IA O 0.15605(11) 1.29250(10) 0.45497(11)
O2RD O 0.15605(11) 1.45497(11) 0.29250(10)
O2QA O 0.20750(10) 1.45497(11) 0.34395(11)
O2YC O -0.04503(11) 1.15605(11) 0.20750(10)
O2P O -0.04503(11) 1.20750(10) 0.15605(11)
O2KD O -0.20750(10) 1.04503(11) 0.15605(11)
O2B O -0.15605(11) 1.04503(11) 0.20750(10)
O2CD O -0.15605(11) 1.20750(10) 0.04503(11)
O2N O -0.20750(10) 1.15605(11) 0.04503(11)
O2JB O 0.29250(10) 1.15605(11) 0.54503(11)
O2YE O 0.34395(11) 1.20750(10) 0.54503(11)
O2XA O 0.34395(11) 1.04503(11) 0.70750(10)
O2GF O 0.29250(10) 1.04503(11) 0.65605(11)
O2LB O 0.45497(11) 1.20750(10) 0.65605(11)
O2UE O 0.45497(11) 1.15605(11) 0.70750(10)
O2YD O 0.15605(11) 1.29250(10) 0.54503(11)
O2LE O -0.04503(11) 0.70750(10) 0.34395(11)
O2UA O 0.04503(11) 0.70750(10) 0.34395(11)
O2C O -0.04503(11) 0.84395(11) 0.20750(10)
O2VE O 0.29250(10) 0.84395(11) 0.54503(11)
O2KA O 0.15605(11) 0.70750(10) 0.54503(11)
O2EE O 0.15605(11) 0.70750(10) 0.45497(11)
O2OD O -0.04503(11) 0.79250(10) 0.15605(11)
O2FD O 0.20750(10) 0.84395(11) -0.04503(11)
O2K O 0.15605(11) 0.79250(10) -0.04503(11)
O2H O 0.20750(10) 1.15605(11) -0.04503(11)
O2GD O 0.15605(11) 1.20750(10) -0.04503(11)
O2SD O 0.04503(11) 0.65605(11) 0.29250(10)
O2CA O -0.04503(11) 0.65605(11) 0.29250(10)
O2KB O 0.34395(11) 0.79250(10) 0.54503(11)
O2JA O 0.20750(10) 1.34395(11) 0.54503(11)
O2ZD O 0.20750(10) 0.65605(11) 0.54503(11)
O2FA O 0.20750(10) 0.65605(11) 0.45497(11)
C1SA C 0.05822(18) 1.17338(14) 0.32662(14)
C1JB C 0.17338(14) 1.17338(14) 0.44178(18)
C1MB C 0.17338(14) 0.94178(18) 0.32662(14)
C1C C 0.05822(18) 0.82662(14) 0.32662(14)
C1KA C 0.17338(14) 0.82662(14) 0.44178(18)
C1T C 0.32662(14) 0.94178(18) 0.17338(14)
C1CC C 0.32662(14) 0.82662(14) 0.05822(18)
C1CB C 0.44178(18) 0.82662(14) 0.17338(14)
C1BB C 0.32662(14) 1.05822(18) 0.17338(14)
C1H C 0.32662(14) 1.17338(14) 0.05822(18)
C1PC C 0.44178(18) 1.17338(14) 0.17338(14)
C1A C -0.05822(18) 1.17338(14) 0.32662(14)
C1MA C -0.17338(14) 1.17338(14) 0.44178(18)
C1OB C -0.17338(14) 1.05822(18) 0.32662(14)
C1IA C 0.17338(14) 1.17338(14) 0.55822(18)
C1NB C 0.17338(14) 1.05822(18) 0.67338(14)
C1E C 0.05822(18) 1.17338(14) 0.67338(14)
C1UA C -0.05822(18) 0.82662(14) 0.32662(14)
C1HB C -0.17338(14) 0.82662(14) 0.44178(18)
C1B C -0.17338(14) 0.94178(18) 0.32662(14)
C1FB C 0.17338(14) 0.82662(14) 0.55822(18)
C1D C 0.17338(14) 0.94178(18) 0.67338(14)
C1NA C 0.05822(18) 0.82662(14) 0.67338(14)
C2SA C 0.09690(19) 1.15235(14) 0.34765(14)
C2JB C 0.15235(14) 1.15235(14) 0.40310(19)
C2MB C 0.15235(14) 0.90310(19) 0.34765(14)
C2C C 0.09690(19) 0.84765(14) 0.34765(14)
C2KA C 0.15235(14) 0.84765(14) 0.40310(19)
C2T C 0.34765(14) 0.90310(19) 0.15235(14)
C2CC C 0.34765(14) 0.84765(14) 0.09690(19)
C2CB C 0.40310(19) 0.84765(14) 0.15235(14)
C2BB C 0.34765(14) 1.09690(19) 0.15235(14)
C2H C 0.34765(14) 1.15235(14) 0.09690(19)
C2PC C 0.40310(19) 1.15235(14) 0.15235(14)
C2A C -0.09690(19) 1.15235(14) 0.34765(14)
C2MA C -0.15235(14) 1.15235(14) 0.40310(19)
C2OB C -0.15235(14) 1.09690(19) 0.34765(14)
C2IA C 0.15235(14) 1.15235(14) 0.59690(19)
C2NB C 0.15235(14) 1.09690(19) 0.65235(14)
C2E C 0.09690(19) 1.15235(14) 0.65235(14)
C2UA C -0.09690(19) 0.84765(14) 0.34765(14)
C2HB C -0.15235(14) 0.84765(14) 0.40310(19)
C2B C -0.15235(14) 0.90310(19) 0.34765(14)
C2FB C 0.15235(14) 0.84765(14) 0.59690(19)
C2D C 0.15235(14) 0.90310(19) 0.65235(14)
C2NA C 0.09690(19) 0.84765(14) 0.65235(14)
C3SA C 0.11513(15) 1.17051(19) 0.38487(15)
C3JB C 0.17051(19) 1.11513(15) 0.38487(15)
C3C C 0.11513(15) 0.88487(15) 0.32949(19)
C3KA C 0.11513(15) 0.82949(19) 0.38487(15)
C3MB C 0.17051(19) 0.88487(15) 0.38487(15)
C3T C 0.32949(19) 0.88487(15) 0.11513(15)
C3CC C 0.38487(15) 0.82949(19) 0.11513(15)
C3CB C 0.38487(15) 0.88487(15) 0.17051(19)
C3H C 0.32949(19) 1.11513(15) 0.11513(15)
C3PC C 0.38487(15) 1.17051(19) 0.11513(15)
C3BB C 0.38487(15) 1.11513(15) 0.17051(19)
C3MA C -0.11513(15) 1.17051(19) 0.38487(15)
C3OB C -0.17051(19) 1.11513(15) 0.38487(15)
C3A C -0.11513(15) 1.11513(15) 0.32949(19)
C3NB C 0.17051(19) 1.11513(15) 0.61513(15)
C3E C 0.11513(15) 1.11513(15) 0.67051(19)
C3IA C 0.11513(15) 1.17051(19) 0.61513(15)
C3UA C -0.11513(15) 0.82949(19) 0.38487(15)
C3HB C -0.17051(19) 0.88487(15) 0.38487(15)
C3B C -0.11513(15) 0.88487(15) 0.32949(19)
C3FB C 0.17051(19) 0.88487(15) 0.61513(15)
C3D C 0.11513(15) 0.88487(15) 0.67051(19)
C3NA C 0.11513(15) 0.82949(19) 0.61513(15)
H1SA H 0.1027 1.1950 0.3973
H1JB H 0.1950 1.1027 0.3973
H1C H 0.1027 0.8973 0.3050
H1KA H 0.1027 0.8050 0.3973
H1MB H 0.1950 0.8973 0.3973
H1T H 0.3050 0.8973 0.1027
H1CC H 0.3973 0.8050 0.1027
H1CB H 0.3973 0.8973 0.1950
H1H H 0.3050 1.1027 0.1027
H1PC H 0.3973 1.1950 0.1027
H1BB H 0.3973 1.1027 0.1950
H1MA H -0.1027 1.1950 0.3973
H1OB H -0.1950 1.1027 0.3973
H1A H -0.1027 1.1027 0.3050
H1NB H 0.1950 1.1027 0.6027
H1E H 0.1027 1.1027 0.6950
H1IA H 0.1027 1.1950 0.6027
H1UA H -0.1027 0.8050 0.3973
H1HB H -0.1950 0.8973 0.3973
H1B H -0.1027 0.8973 0.3050
H1FB H 0.1950 0.8973 0.6027
H1D H 0.1027 0.8973 0.6950
H1NA H 0.1027 0.8050 0.6027
C4V C 0.05874(19) 0.82679(14) 0.17321(14)
C4L C 0.17321(14) 0.82679(14) 0.05874(19)
C4T C 0.17321(14) 1.05874(19) 0.17321(14)
C4A C 0.05874(19) 1.17321(14) 0.17321(14)
C4M C 0.17321(14) 1.17321(14) 0.05874(19)
C4BB C 0.32679(14) 0.94126(19) 0.32679(14)
C4QB C 0.44126(19) 0.82679(14) 0.32679(14)
C4FB C 0.32679(14) 0.82679(14) 0.44126(19)
C4MB C 0.32679(14) 1.05874(19) 0.32679(14)
C4AB C 0.44126(19) 1.17321(14) 0.32679(14)
C4EB C 0.32679(14) 1.17321(14) 0.44126(19)
C4SA C -0.05874(19) 1.32679(14) 0.32679(14)
C4HA C -0.17321(14) 1.32679(14) 0.44126(19)
C4DA C -0.17321(14) 1.44126(19) 0.32679(14)
C4EA C 0.05874(19) 1.32679(14) 0.32679(14)
C4IA C 0.17321(14) 1.32679(14) 0.44126(19)
C4QA C 0.17321(14) 1.44126(19) 0.32679(14)
C4P C -0.05874(19) 1.17321(14) 0.17321(14)
C4B C -0.17321(14) 1.05874(19) 0.17321(14)
C4N C -0.17321(14) 1.17321(14) 0.05874(19)
C4JB C 0.32679(14) 1.17321(14) 0.55874(19)
C4XA C 0.32679(14) 1.05874(19) 0.67321(14)
C4LB C 0.44126(19) 1.17321(14) 0.67321(14)
C5V C 0.09660(18) 0.84815(14) 0.15185(14)
C5L C 0.15185(14) 0.84815(14) 0.09660(18)
C5T C 0.15185(14) 1.09660(18) 0.15185(14)
C5A C 0.09660(18) 1.15185(14) 0.15185(14)
C5M C 0.15185(14) 1.15185(14) 0.09660(18)
C5BB C 0.34815(14) 0.90340(18) 0.34815(14)
C5QB C 0.40340(18) 0.84815(14) 0.34815(14)
C5FB C 0.34815(14) 0.84815(14) 0.40340(18)
C5MB C 0.34815(14) 1.09660(18) 0.34815(14)
C5AB C 0.40340(18) 1.15185(14) 0.34815(14)
C5EB C 0.34815(14) 1.15185(14) 0.40340(18)
C5SA C -0.09660(18) 1.34815(14) 0.34815(14)
C5HA C -0.15185(14) 1.34815(14) 0.40340(18)
C5DA C -0.15185(14) 1.40340(18) 0.34815(14)
C5EA C 0.09660(18) 1.34815(14) 0.34815(14)
C5IA C 0.15185(14) 1.34815(14) 0.40340(18)
C5QA C 0.15185(14) 1.40340(18) 0.34815(14)
C5P C -0.09660(18) 1.15185(14) 0.15185(14)
C5B C -0.15185(14) 1.09660(18) 0.15185(14)
C5N C -0.15185(14) 1.15185(14) 0.09660(18)
C5JB C 0.34815(14) 1.15185(14) 0.59660(18)
C5XA C 0.34815(14) 1.09660(18) 0.65185(14)
C5LB C 0.40340(18) 1.15185(14) 0.65185(14)
C6V C 0.11503(14) 0.8296(2) 0.11503(14)
C6L C 0.1704(2) 0.88497(14) 0.11503(14)
C6A C 0.11503(14) 1.11503(14) 0.1704(2)
C6M C 0.11503(14) 1.1704(2) 0.11503(14)
C6T C 0.1704(2) 1.11503(14) 0.11503(14)
C6BB C 0.38497(14) 0.88497(14) 0.3296(2)
C6QB C 0.38497(14) 0.8296(2) 0.38497(14)
C6FB C 0.3296(2) 0.88497(14) 0.38497(14)
C6AB C 0.38497(14) 1.11503(14) 0.3296(2)
C6EB C 0.38497(14) 1.1704(2) 0.38497(14)
C6MB C 0.3296(2) 1.11503(14) 0.38497(14)
C6SA C -0.11503(14) 1.3296(2) 0.38497(14)
C6HA C -0.1704(2) 1.38497(14) 0.38497(14)
C6DA C -0.11503(14) 1.38497(14) 0.3296(2)
C6IA C 0.11503(14) 1.3296(2) 0.38497(14)
C6QA C 0.1704(2) 1.38497(14) 0.38497(14)
C6EA C 0.11503(14) 1.38497(14) 0.3296(2)
C6B C -0.11503(14) 1.11503(14) 0.1704(2)
C6N C -0.1704(2) 1.11503(14) 0.11503(14)
C6P C -0.11503(14) 1.1704(2) 0.11503(14)
C6JB C 0.3296(2) 1.11503(14) 0.61503(14)
C6XA C 0.38497(14) 1.11503(14) 0.6704(2)
C6LB C 0.38497(14) 1.1704(2) 0.61503(14)
H2L H 0.1950 0.8971 0.1029
H2V H 0.1029 0.8050 0.1029
H2A H 0.1029 1.1029 0.1950
H2T H 0.1950 1.1029 0.1029
H2M H 0.1029 1.1950 0.1029
H2BB H 0.3971 0.8971 0.3050
H2FB H 0.3050 0.8971 0.3971
H2QB H 0.3971 0.8050 0.3971
H2AB H 0.3971 1.1029 0.3050
H2MB H 0.3050 1.1029 0.3971
H2EB H 0.3971 1.1950 0.3971
H2SA H -0.1029 1.3050 0.3971
H2DA H -0.1029 1.3971 0.3050
H2HA H -0.1950 1.3971 0.3971
H2IA H 0.1029 1.3050 0.3971
H2EA H 0.1029 1.3971 0.3050
H2QA H 0.1950 1.3971 0.3971
H2B H -0.1029 1.1029 0.1950
H2P H -0.1029 1.1950 0.1029
H2N H -0.1950 1.1029 0.1029
H2JB H 0.3050 1.1029 0.6029
H2LB H 0.3971 1.1950 0.6029
H2XA H 0.3971 1.1029 0.6950
N1 N 0.2265(12) 1.0000 1.0000
O6 O 1.0000 1.0000 0.3107(11)
Si1 Si 0.0000 0.0000 0.0000
W1 W 0.080883(10) 0.0000 0.080883(10)
O3 O 0.0305(3) -0.0305(3) 0.0305(3)
O4 O 0.1035(3) 0.0415(3) 0.0415(3)
O5 O 0.1192(2) 0.0000 0.1192(2)
W1A W 0.0000 0.080883(10) 0.080883(10)
W1B W -0.080883(10) 0.0000 0.080883(10)
W1C W 0.0000 -0.080883(10) 0.080883(10)
W1D W 0.080883(10) 0.0000 -0.080883(10)
W1E W 0.0000 0.080883(10) -0.080883(10)
W1F W -0.080883(10) 0.0000 -0.080883(10)
W1G W 0.0000 -0.080883(10) -0.080883(10)
W1K W 0.080883(10) -0.080883(10) 0.0000
W1H W 0.080883(10) 0.080883(10) 0.0000
W1I W -0.080883(10) 0.080883(10) 0.0000
W1J W -0.080883(10) -0.080883(10) 0.0000
O3A O 0.0305(3) 0.0305(3) 0.0305(3)
O3B O -0.0305(3) 0.0305(3) 0.0305(3)
O3C O -0.0305(3) -0.0305(3) 0.0305(3)
O3D O 0.0305(3) 0.0305(3) -0.0305(3)
O3E O -0.0305(3) 0.0305(3) -0.0305(3)
O3F O -0.0305(3) -0.0305(3) -0.0305(3)
O3G O 0.0305(3) -0.0305(3) -0.0305(3)
O4K O 0.1035(3) -0.0415(3) 0.0415(3)
O4P O 0.0415(3) 0.0415(3) 0.1035(3)
O4T O 0.0415(3) -0.0415(3) 0.1035(3)
O4A O -0.0415(3) 0.1035(3) 0.0415(3)
O4H O 0.0415(3) 0.1035(3) 0.0415(3)
O4R O -0.0415(3) 0.0415(3) 0.1035(3)
O4B O -0.1035(3) -0.0415(3) 0.0415(3)
O4I O -0.1035(3) 0.0415(3) 0.0415(3)
O4V O -0.0415(3) -0.0415(3) 0.1035(3)
O4C O 0.0415(3) -0.1035(3) 0.0415(3)
O4J O -0.0415(3) -0.1035(3) 0.0415(3)
O4D O 0.1035(3) -0.0415(3) -0.0415(3)
O4M O 0.1035(3) 0.0415(3) -0.0415(3)
O4U O 0.0415(3) -0.0415(3) -0.1035(3)
O4S O 0.0415(3) 0.0415(3) -0.1035(3)
O4E O 0.0415(3) 0.1035(3) -0.0415(3)
O4N O -0.0415(3) 0.1035(3) -0.0415(3)
O4W O -0.0415(3) 0.0415(3) -0.1035(3)
O4F O -0.1035(3) 0.0415(3) -0.0415(3)
O4O O -0.1035(3) -0.0415(3) -0.0415(3)
O4Q O -0.0415(3) -0.0415(3) -0.1035(3)
O4G O -0.0415(3) -0.1035(3) -0.0415(3)
O4L O 0.0415(3) -0.1035(3) -0.0415(3)
O5A O 0.0000 0.1192(2) 0.1192(2)
O5B O -0.1192(2) 0.0000 0.1192(2)
O5C O 0.0000 -0.1192(2) 0.1192(2)
O5D O 0.1192(2) 0.0000 -0.1192(2)
O5E O 0.0000 0.1192(2) -0.1192(2)
O5F O -0.1192(2) 0.0000 -0.1192(2)
O5G O 0.0000 -0.1192(2) -0.1192(2)
O5K O 0.1192(2) -0.1192(2) 0.0000
O5H O 0.1192(2) 0.1192(2) 0.0000
O5I O -0.1192(2) 0.1192(2) 0.0000
O5J O -0.1192(2) -0.1192(2) 0.0000
loop_
_geom_bond_atom_site_label_1
_geom_bond_atom_site_label_2
_geom_bond_site_symmetry_1
_geom_bond_site_symmetry_2
Si1 O3 1_555 1_555
W1 O3 1_555 1_555
Cl1 Cu1 1_555 1_555
Cu1 O1 1_555 1_555
O1 C1 1_555 1_555
O2 Cu1 1_555 1_555
O3 W1C 1_555 1_555
O4 W1 1_555 1_555
O5 W1 1_555 1_555
C1 C2 1_555 1_555
C2 C3 1_555 1_555
C3 H1 1_555 1_555
C4 O2 1_555 1_555
C5 C4 1_555 1_555
C6 C5 1_555 1_555
H2 C6 1_555 1_555
W1A O3A 1_555 1_555
W1B O3B 1_555 1_555
W1C O3C 1_555 1_555
W1D O3D 1_555 1_555
W1E O3D 1_555 1_555
W1F O3E 1_555 1_555
W1G O3F 1_555 1_555
W1K O3 1_555 1_555
W1H O4 1_555 1_555
W1I O3B 1_555 1_555
W1J O3C 1_555 1_555
Cl1A Cu1SA 1_555 1_555
Cl1IA Cu1JB 1_555 1_555
Cl1C Cu1UA 1_555 1_555
Cl1FA Cu1FB 1_555 1_555
Cl1K Cu1L 1_555 1_555
Cl1H Cu1H 1_555 1_555
Cu1T Cl1 1_555 1_555
Cu1BB Cl1 1_555 1_555
Cu1MB Cl1 1_555 1_555
Cu1SA O1SA 1_555 1_555
Cu1A Cl1A 1_555 1_555
Cu1JB O1JB 1_555 1_555
Cu1IA Cl1IA 1_555 1_555
Cu1UA O1LE 1_555 1_555
Cu1C Cl1C 1_555 1_555
Cu1FB O1VE 1_555 1_555
Cu1KA Cl1FA 1_555 1_555
Cu1V Cl1C 1_555 1_555
Cu1L O1FD 1_555 1_555
Cu1K Cl1K 1_555 1_555
Cu1P Cl1A 1_555 1_555
Cu1H O1H 1_555 1_555
Cu1M Cl1H 1_555 1_555
Cu1EA Cl1A 1_555 1_555
Cu1EB Cl1IA 1_555 1_555
Cu1CA Cl1C 1_555 1_555
Cu1KB Cl1FA 1_555 1_555
Cu1JA Cl1IA 1_555 1_555
Cu1FA Cl1FA 1_555 1_555
Cu1CC Cl1K 1_555 1_555
Cu1CB O1CB 1_555 1_555
Cu1JC O1GG 1_555 1_555
Cu1IC Cl1H 1_555 1_555
Cu1AB O1QE 1_555 1_555
Cu1PC O1PC 1_555 1_555
Cu1QB O2QB 1_555 1_555
Cu1SB O2JF 1_555 1_555
Cu1DB O1XE 1_555 1_555
Cu1MA O1MA 1_555 1_555
Cu1B O1VC 1_555 1_555
Cu1OB O1OB 1_555 1_555
Cu1HA O2HA 1_555 1_555
Cu1DA O2DA 1_555 1_555
Cu1OA O2JE 1_555 1_555
Cu1BA O2RD 1_555 1_555
Cu1QA O2QA 1_555 1_555
Cu1R O2KD 1_555 1_555
Cu1I O2CD 1_555 1_555
Cu1N O2N 1_555 1_555
Cu1D O1TC 1_555 1_555
Cu1NB O1NB 1_555 1_555
Cu1TA O1ME 1_555 1_555
Cu1E O1E 1_555 1_555
Cu1XA O2XA 1_555 1_555
Cu1LB O2LB 1_555 1_555
Cu1WA O2UE 1_555 1_555
Cu1HB O1HB 1_555 1_555
Cu1GA O1AE 1_555 1_555
Cu1NA O1NA 1_555 1_555
Cu1G O1SC 1_555 1_555
Cu1HC Cl1K 1_555 1_555
O1HF C1 1_555 1_555
O1SA C1SA 1_555 1_555
O1YC Cu1A 1_555 1_555
O1JB C1JB 1_555 1_555
O1YD Cu1IA 1_555 1_555
O1XC Cu1 1_555 1_555
O1MB Cu1MB 1_555 1_555
O1LE C1C 1_555 1_555
O1C Cu1C 1_555 1_555
O1VE C1KA 1_555 1_555
O1KA Cu1KA 1_555 1_555
O1T Cu1T 1_555 1_555
O1NE Cu1BB 1_555 1_555
O1CC Cu1CC 1_555 1_555
O1FD C1CC 1_555 1_555
O1CB C1CB 1_555 1_555
O1GG C1CB 1_555 1_555
O1ID Cu1T 1_555 1_555
O1BB Cu1BB 1_555 1_555
O1YF Cu1IC 1_555 1_555
O1H C1H 1_555 1_555
O1QE C1PC 1_555 1_555
O1PC C1PC 1_555 1_555
O1FE Cu1SA 1_555 1_555
O1A Cu1A 1_555 1_555
O1XE C1MA 1_555 1_555
O1MA C1MA 1_555 1_555
O1VC C1OB 1_555 1_555
O1OB C1OB 1_555 1_555
O1ZE Cu1JB 1_555 1_555
O1IA Cu1IA 1_555 1_555
O1TC C1NB 1_555 1_555
O1NB C1NB 1_555 1_555
O1ME C1E 1_555 1_555
O1E C1E 1_555 1_555
O1UA Cu1UA 1_555 1_555
O1WC Cu1C 1_555 1_555
O1HB C1HB 1_555 1_555
O1AE C1HB 1_555 1_555
O1B Cu1B 1_555 1_555
O1FF Cu1OB 1_555 1_555
O1FB Cu1FB 1_555 1_555
O1EE Cu1KA 1_555 1_555
O1D Cu1D 1_555 1_555
O1GF Cu1NB 1_555 1_555
O1NA C1NA 1_555 1_555
O1SC C1NA 1_555 1_555
O1V Cu1V 1_555 1_555
O1OD Cu1V 1_555 1_555
O1L Cu1L 1_555 1_555
O1AD Cu1K 1_555 1_555
O1K Cu1K 1_555 1_555
O1MD Cu1P 1_555 1_555
O1P Cu1P 1_555 1_555
O1BD Cu1H 1_555 1_555
O1M Cu1M 1_555 1_555
O1GD Cu1M 1_555 1_555
O1EA Cu1EA 1_555 1_555
O1QD Cu1EA 1_555 1_555
O1EB Cu1EB 1_555 1_555
O1YE Cu1EB 1_555 1_555
O1SD Cu1CA 1_555 1_555
O1CA Cu1CA 1_555 1_555
O1AF Cu1KB 1_555 1_555
O1KB Cu1KB 1_555 1_555
O1JA Cu1JA 1_555 1_555
O1DE Cu1JA 1_555 1_555
O1ZD Cu1FA 1_555 1_555
O1FA Cu1FA 1_555 1_555
O2ID C4 1_555 1_555
O2V Cu1V 1_555 1_555
O2WC Cu1C 1_555 1_555
O2L Cu1L 1_555 1_555
O2AD Cu1K 1_555 1_555
O2XC Cu1 1_555 1_555
O2T Cu1T 1_555 1_555
O2MD Cu1P 1_555 1_555
O2A Cu1A 1_555 1_555
O2BD Cu1H 1_555 1_555
O2M Cu1M 1_555 1_555
O2BB Cu1BB 1_555 1_555
O2HF Cu1MB 1_555 1_555
O2QB C4QB 1_555 1_555
O2OE Cu1CB 1_555 1_555
O2FB Cu1FB 1_555 1_555
O2AF Cu1KB 1_555 1_555
O2NE Cu1BB 1_555 1_555
O2MB Cu1MB 1_555 1_555
O2JF C4AB 1_555 1_555
O2AB Cu1AB 1_555 1_555
O2ZE Cu1JB 1_555 1_555
O2EB Cu1EB 1_555 1_555
O2SA Cu1SA 1_555 1_555
O2QD Cu1EA 1_555 1_555
O2HA C4HA 1_555 1_555
O2CE Cu1MA 1_555 1_555
O2DA C4DA 1_555 1_555
O2JE C4DA 1_555 1_555
O2FE Cu1SA 1_555 1_555
O2EA Cu1EA 1_555 1_555
O2DE Cu1JA 1_555 1_555
O2IA Cu1IA 1_555 1_555
O2RD C4QA 1_555 1_555
O2QA C4QA 1_555 1_555
O2YC Cu1A 1_555 1_555
O2P Cu1P 1_555 1_555
O2KD C4B 1_555 1_555
O2B Cu1B 1_555 1_555
O2CD C4N 1_555 1_555
O2N C4N 1_555 1_555
O2JB Cu1JB 1_555 1_555
O2YE Cu1EB 1_555 1_555
O2XA C4XA 1_555 1_555
O2GF Cu1NB 1_555 1_555
O2LB C4LB 1_555 1_555
O2UE C4LB 1_555 1_555
O2YD Cu1IA 1_555 1_555
O2LE Cu1UA 1_555 1_555
O2UA Cu1UA 1_555 1_555
O2C Cu1C 1_555 1_555
O2VE Cu1FB 1_555 1_555
O2KA Cu1KA 1_555 1_555
O2EE Cu1KA 1_555 1_555
O2OD Cu1V 1_555 1_555
O2FD Cu1L 1_555 1_555
O2K Cu1K 1_555 1_555
O2H Cu1H 1_555 1_555
O2GD Cu1M 1_555 1_555
O2SD Cu1CA 1_555 1_555
O2CA Cu1CA 1_555 1_555
O2KB Cu1KB 1_555 1_555
O2JA Cu1JA 1_555 1_555
O2ZD Cu1FA 1_555 1_555
O2FA Cu1FA 1_555 1_555
O3A Si1 1_555 1_555
O3B Si1 1_555 1_555
O3C Si1 1_555 1_555
O3D Si1 1_555 1_555
O3E Si1 1_555 1_555
O3F Si1 1_555 1_555
O3G Si1 1_555 1_555
O4K W1 1_555 1_555
O4P W1 1_555 1_555
O4T W1 1_555 1_555
O4A W1A 1_555 1_555
O4H W1A 1_555 1_555
O4R W1A 1_555 1_555
O4B W1B 1_555 1_555
O4I W1B 1_555 1_555
O4V W1B 1_555 1_555
O4C W1C 1_555 1_555
O4J W1C 1_555 1_555
O4D W1D 1_555 1_555
O4M W1D 1_555 1_555
O4U W1D 1_555 1_555
O4S W1D 1_555 1_555
O4E W1E 1_555 1_555
O4N W1E 1_555 1_555
O4W W1E 1_555 1_555
O4F W1F 1_555 1_555
O4O W1F 1_555 1_555
O4Q W1F 1_555 1_555
O4G W1G 1_555 1_555
O4L W1G 1_555 1_555
O5A W1A 1_555 1_555
O5B W1B 1_555 1_555
O5C W1C 1_555 1_555
O5D W1D 1_555 1_555
O5E W1E 1_555 1_555
O5F W1F 1_555 1_555
O5G W1G 1_555 1_555
O5K W1K 1_555 1_555
O5H W1H 1_555 1_555
O5I W1I 1_555 1_555
O5J W1J 1_555 1_555
C1SA O1YC 1_555 1_555
C1JB O1YD 1_555 1_555
C1MB O1XC 1_555 1_555
C1C O1C 1_555 1_555
C1KA O1KA 1_555 1_555
C1T O1T 1_555 1_555
C1CC O1CC 1_555 1_555
C1CB C2CB 1_555 1_555
C1BB O1ID 1_555 1_555
C1H O1YF 1_555 1_555
C1PC C2PC 1_555 1_555
C1A O1FE 1_555 1_555
C1MA C2MA 1_555 1_555
C1OB C2OB 1_555 1_555
C1IA O1ZE 1_555 1_555
C1NB C2NB 1_555 1_555
C1E C2E 1_555 1_555
C1UA O1UA 1_555 1_555
C1HB C2HB 1_555 1_555
C1B O1B 1_555 1_555
C1FB O1FB 1_555 1_555
C1D O1D 1_555 1_555
C1NA C2NA 1_555 1_555
C2SA C3 1_555 1_555
C2JB C1JB 1_555 1_555
C2MB C1MB 1_555 1_555
C2C C1C 1_555 1_555
C2KA C1KA 1_555 1_555
C2T C1T 1_555 1_555
C2CC C1CC 1_555 1_555
C2CB C3CC 1_555 1_555
C2BB C1BB 1_555 1_555
C2H C1H 1_555 1_555
C2PC C3PC 1_555 1_555
C2A C1A 1_555 1_555
C2MA C3MA 1_555 1_555
C2OB C3OB 1_555 1_555
C2IA C1IA 1_555 1_555
C2NB C3NB 1_555 1_555
C2E C3E 1_555 1_555
C2UA C1UA 1_555 1_555
C2HB C3UA 1_555 1_555
C2B C1B 1_555 1_555
C2FB C1FB 1_555 1_555
C2D C1D 1_555 1_555
C2NA C3D 1_555 1_555
C3SA C2SA 1_555 1_555
C3JB C2 1_555 1_555
C3C C2MB 1_555 1_555
C3KA C2C 1_555 1_555
C3MB C2MB 1_555 1_555
C3T C2T 1_555 1_555
C3CC C2CC 1_555 1_555
C3CB C2T 1_555 1_555
C3H C2BB 1_555 1_555
C3PC C2H 1_555 1_555
C3BB C2BB 1_555 1_555
C3MA C2A 1_555 1_555
C3OB C2MA 1_555 1_555
C3A C2A 1_555 1_555
C3NB C2IA 1_555 1_555
C3E C2NB 1_555 1_555
C3IA C2IA 1_555 1_555
C3UA C2UA 1_555 1_555
C3HB C2HB 1_555 1_555
C3B C2UA 1_555 1_555
C3FB C2FB 1_555 1_555
C3D C2D 1_555 1_555
C3NA C2FB 1_555 1_555
H1SA C3SA 1_555 1_555
H1JB C3JB 1_555 1_555
H1C C3C 1_555 1_555
H1KA C3KA 1_555 1_555
H1MB C3MB 1_555 1_555
H1T C3T 1_555 1_555
H1CC C3CC 1_555 1_555
H1CB C3CB 1_555 1_555
H1H C3H 1_555 1_555
H1PC C3PC 1_555 1_555
H1BB C3BB 1_555 1_555
H1MA C3MA 1_555 1_555
H1OB C3OB 1_555 1_555
H1A C3A 1_555 1_555
H1NB C3NB 1_555 1_555
H1E C3E 1_555 1_555
H1IA C3IA 1_555 1_555
H1UA C3UA 1_555 1_555
H1HB C3HB 1_555 1_555
H1B C3B 1_555 1_555
H1FB C3FB 1_555 1_555
H1D C3D 1_555 1_555
H1NA C3NA 1_555 1_555
C4V O2V 1_555 1_555
C4L O2L 1_555 1_555
C4T O2XC 1_555 1_555
C4A O2MD 1_555 1_555
C4M O2BD 1_555 1_555
C4BB O2BB 1_555 1_555
C4QB O2OE 1_555 1_555
C4FB O2FB 1_555 1_555
C4MB O2NE 1_555 1_555
C4AB O2AB 1_555 1_555
C4EB O2ZE 1_555 1_555
C4SA O2SA 1_555 1_555
C4HA O2CE 1_555 1_555
C4DA C5DA 1_555 1_555
C4EA O2FE 1_555 1_555
C4IA O2DE 1_555 1_555
C4QA C5QA 1_555 1_555
C4P O2YC 1_555 1_555
C4B O2B 1_555 1_555
C4N C5N 1_555 1_555
C4JB O2JB 1_555 1_555
C4XA O2GF 1_555 1_555
C4LB C5LB 1_555 1_555
C5V C6 1_555 1_555
C5L C4L 1_555 1_555
C5T C4T 1_555 1_555
C5A C4A 1_555 1_555
C5M C4M 1_555 1_555
C5BB C4BB 1_555 1_555
C5QB C4QB 1_555 1_555
C5FB C4FB 1_555 1_555
C5MB C4MB 1_555 1_555
C5AB C4AB 1_555 1_555
C5EB C4EB 1_555 1_555
C5SA C4SA 1_555 1_555
C5HA C4HA 1_555 1_555
C5DA C6HA 1_555 1_555
C5EA C4EA 1_555 1_555
C5IA C4IA 1_555 1_555
C5QA C6QA 1_555 1_555
C5P C4P 1_555 1_555
C5B C4B 1_555 1_555
C5N C6N 1_555 1_555
C5JB C4JB 1_555 1_555
C5XA C4XA 1_555 1_555
C5LB C6XA 1_555 1_555
C6V C5V 1_555 1_555
C6L C5 1_555 1_555
C6A C5T 1_555 1_555
C6M C5A 1_555 1_555
C6T C5T 1_555 1_555
C6BB C5BB 1_555 1_555
C6QB C5QB 1_555 1_555
C6FB C5BB 1_555 1_555
C6AB C5MB 1_555 1_555
C6EB C5AB 1_555 1_555
C6MB C5MB 1_555 1_555
C6SA C5SA 1_555 1_555
C6HA C5HA 1_555 1_555
C6DA C5SA 1_555 1_555
C6IA C5EA 1_555 1_555
C6QA C5IA 1_555 1_555
C6EA C5EA 1_555 1_555
C6B C5P 1_555 1_555
C6N C5B 1_555 1_555
C6P C5P 1_555 1_555
C6JB C5JB 1_555 1_555
C6XA C5XA 1_555 1_555
C6LB C5JB 1_555 1_555
H2L C6L 1_555 1_555
H2V C6V 1_555 1_555
H2A C6A 1_555 1_555
H2T C6T 1_555 1_555
H2M C6M 1_555 1_555
H2BB C6BB 1_555 1_555
H2FB C6FB 1_555 1_555
H2QB C6QB 1_555 1_555
H2AB C6AB 1_555 1_555
H2MB C6MB 1_555 1_555
H2EB C6EB 1_555 1_555
H2SA C6SA 1_555 1_555
H2DA C6DA 1_555 1_555
H2HA C6HA 1_555 1_555
H2IA C6IA 1_555 1_555
H2EA C6EA 1_555 1_555
H2QA C6QA 1_555 1_555
H2B C6B 1_555 1_555
H2P C6P 1_555 1_555
H2N C6N 1_555 1_555
H2JB C6JB 1_555 1_555
H2LB C6LB 1_555 1_555
H2XA C6XA 1_555 1_555
W1 O3A 1_555 1_555
W1A O3B 1_555 1_555
W1A O4P 1_555 1_555
W1B O3C 1_555 1_555
W1B O4R 1_555 1_555
W1C O4T 1_555 1_555
W1C O4V 1_555 1_555
W1D O3G 1_555 1_555
W1E O3E 1_555 1_555
W1E O4S 1_555 1_555
W1F O3F 1_555 1_555
W1F O4W 1_555 1_555
W1G O3G 1_555 1_555
W1G O4U 1_555 1_555
W1G O4Q 1_555 1_555
W1K O3G 1_555 1_555
W1K O4K 1_555 1_555
W1K O4C 1_555 1_555
W1K O4D 1_555 1_555
W1K O4L 1_555 1_555
W1H O3A 1_555 1_555
W1H O3D 1_555 1_555
W1H O4H 1_555 1_555
W1H O4M 1_555 1_555
W1H O4E 1_555 1_555
W1I O3E 1_555 1_555
W1I O4A 1_555 1_555
W1I O4I 1_555 1_555
W1I O4N 1_555 1_555
W1I O4F 1_555 1_555
W1J O3F 1_555 1_555
W1J O4B 1_555 1_555
W1J O4J 1_555 1_555
W1J O4O 1_555 1_555
W1J O4G 1_555 1_555
Cu1T O2ID 1_555 1_555
Cu1MB O1HF 1_555 1_555
O1MB C1MB 1_555 1_555
O1NE C1T 1_555 1_555
O1BB C1BB 1_555 1_555
O1A C1A 1_555 1_555
O1IA C1IA 1_555 1_555
O1WC C1UA 1_555 1_555
O1FF C1B 1_555 1_555
O1EE C1FB 1_555 1_555
O1GF C1D 1_555 1_555
O2WC C4V 1_555 1_555
O2AD C4L 1_555 1_555
O2T C4T 1_555 1_555
O2A C4A 1_555 1_555
O2M C4M 1_555 1_555
O2HF C4BB 1_555 1_555
O2AF C4FB 1_555 1_555
O2MB C4MB 1_555 1_555
O2EB C4EB 1_555 1_555
O2QD C4SA 1_555 1_555
O2EA C4EA 1_555 1_555
O2IA C4IA 1_555 1_555
O2P C4P 1_555 1_555
O2YE C4JB 1_555 1_555
C1SA C2SA 1_555 1_555
C2JB C3SA 1_555 1_555
C2JB C3JB 1_555 1_555
C2C C3C 1_555 1_555
C2KA C3KA 1_555 1_555
C2KA C3MB 1_555 1_555
C2CC C3T 1_555 1_555
C2CB C3CB 1_555 1_555
C2H C3H 1_555 1_555
C2PC C3BB 1_555 1_555
C2OB C3A 1_555 1_555
C2E C3IA 1_555 1_555
C2B C3HB 1_555 1_555
C2B C3B 1_555 1_555
C2D C3FB 1_555 1_555
C2NA C3NA 1_555 1_555
C4V C5V 1_555 1_555
C5L C6V 1_555 1_555
C5L C6L 1_555 1_555
C5A C6A 1_555 1_555
C5M C6M 1_555 1_555
C5M C6T 1_555 1_555
C5QB C6BB 1_555 1_555
C5FB C6QB 1_555 1_555
C5FB C6FB 1_555 1_555
C5AB C6AB 1_555 1_555
C5EB C6EB 1_555 1_555
C5EB C6MB 1_555 1_555
C5HA C6SA 1_555 1_555
C5DA C6DA 1_555 1_555
C5IA C6IA 1_555 1_555
C5QA C6EA 1_555 1_555
C5B C6B 1_555 1_555
C5N C6P 1_555 1_555
C5XA C6JB 1_555 1_555
C5LB C6LB 1_555 1_555

#END
