
#######################################################################
#
#                 Cambridge Crystallographic Data Centre
#                                CCDC 
#
#######################################################################
#
# If this CIF has been generated from an entry in the Cambridge 
# Structural Database, then it will include bibliographic, chemical, 
# crystal, experimental, refinement or atomic coordinate data resulting 
# from the CCDC's data processing and validation procedures.
#
#######################################################################

data_WEGLUR
_symmetry_cell_setting           monoclinic
_symmetry_space_group_name_H-M   'P 21/c'
_symmetry_Int_Tables_number      14
_space_group_name_Hall           '-P 2ybc'
loop_
_symmetry_equiv_pos_site_id
_symmetry_equiv_pos_as_xyz
1 x,y,z
2 -x,1/2+y,1/2-z
3 -x,-y,-z
4 x,1/2-y,1/2+z
_cell_length_a                   9.6647(19)
_cell_length_b                   14.032(3)
_cell_length_c                   16.543(3)
_cell_angle_alpha                90
_cell_angle_beta                 98.79(3)
_cell_angle_gamma                90
_cell_volume                     2217.13
loop_
_atom_site_label
_atom_site_type_symbol
_atom_site_fract_x
_atom_site_fract_y
_atom_site_fract_z
C1 C 0.1072(5) 0.6325(3) 0.4588(2)
H1 H 0.0832 0.6247 0.5108
C2 C 0.0159(5) 0.6333(4) 0.3882(3)
H2 H -0.0809 0.6265 0.3826
C3 C 0.2282(4) 0.6524(3) 0.3621(2)
H3 H 0.3032 0.6609 0.3337
C4 C 0.0483(4) 0.6488(3) 0.2396(2)
C5 C -0.0874(4) 0.6336(3) 0.2067(2)
H4 H -0.1542 0.6235 0.2407
C6 C -0.1265(4) 0.6332(3) 0.1224(2)
H5 H -0.2200 0.6231 0.1008
C7 C -0.0321(4) 0.6469(3) 0.0704(2)
C8 C 0.1015(5) 0.6708(5) 0.1048(3)
H6 H 0.1666 0.6858 0.0709
C9 C 0.1422(5) 0.6732(5) 0.1887(3)
H7 H 0.2329 0.6912 0.2105
C10 C -0.0724(4) 0.6426(3) -0.0203(2)
C11 C -0.2067(4) 0.6679(4) -0.0572(3)
H8 H -0.2720 0.6875 -0.0248
C12 C -0.2444(4) 0.6644(4) -0.1410(2)
H9 H -0.3343 0.6820 -0.1646
C13 C -0.1484(4) 0.6346(3) -0.1899(2)
C14 C -0.0131(5) 0.6145(4) -0.1551(2)
H10 H 0.0534 0.5982 -0.1879
C15 C 0.0234(4) 0.6186(4) -0.0712(3)
H11 H 0.1151 0.6048 -0.0481
C16 C -0.1119(4) 0.5995(4) -0.3355(3)
H12 H -0.0177 0.5827 -0.3269
C17 C -0.1982(4) 0.6007(3) -0.4079(2)
H13 H -0.1726 0.5848 -0.4581
C18 C -0.3190(4) 0.6438(3) -0.3171(2)
H14 H -0.3938 0.6633 -0.2918
C19 C 0.4184(4) 0.4413(2) 0.62088(19)
C20 C 0.5358(4) 0.3224(2) 0.90904(19)
C21 C 0.4235(3) 0.4577(2) 0.71153(18)
C22 C 0.4738(3) 0.3862(2) 0.76615(19)
H15 H 0.4978 0.3272 0.7466
C23 C 0.4886(3) 0.4024(2) 0.85010(18)
C24 C 0.4538(4) 0.4906(2) 0.87875(19)
H16 H 0.4639 0.5017 0.9348
C25 C 0.4040(4) 0.5620(2) 0.8247(2)
C26 C 0.3859(4) 0.5459(2) 0.7409(2)
H17 H 0.3490 0.5934 0.7046
N1 N 0.2408(3) 0.6451(2) 0.44202(18)
N2 N 0.0942(3) 0.6461(2) 0.32634(18)
N3 N -0.3282(3) 0.6289(2) -0.39612(18)
N4 N -0.1900(3) 0.6278(2) -0.27711(18)
O1 O 0.4560(3) 0.36113(18) 0.59930(15)
O2 O 0.3787(3) 0.50767(18) 0.57269(14)
O3 O 0.5803(3) 0.24717(16) 0.87955(14)
O4 O 0.5232(3) 0.3309(2) 0.98240(14)
O5 O 0.3712(3) 0.65056(18) 0.85035(17)
H18 H 0.4016 0.6565 0.8991
Cd1 Cd 0.45956(3) 0.642579(17) 0.519665(13)
N3_2 N 0.6718(3) 0.6289(2) 0.60388(18)
O1B O 0.5440(3) 0.63887(18) 0.40070(15)
O3A O 0.4197(3) 0.74717(16) 0.62045(14)
O4A O 0.4768(3) 0.8309(2) 0.51760(14)
Cd1_2 Cd -0.54044(3) 0.642579(17) -0.480335(13)
Cd1B Cd 0.54044(3) 0.357421(17) 0.480335(13)
Cd1A Cd 0.54044(3) 0.142579(17) 0.980335(13)
loop_
_geom_bond_atom_site_label_1
_geom_bond_atom_site_label_2
_geom_bond_site_symmetry_1
_geom_bond_site_symmetry_2
C1 H1 1_555 1_555
C2 C1 1_555 1_555
H2 C2 1_555 1_555
C3 H3 1_555 1_555
C4 C5 1_555 1_555
C5 H4 1_555 1_555
C6 C5 1_555 1_555
H5 C6 1_555 1_555
C7 C6 1_555 1_555
C8 C7 1_555 1_555
H6 C8 1_555 1_555
C9 C4 1_555 1_555
H7 C9 1_555 1_555
C10 C7 1_555 1_555
C11 C10 1_555 1_555
H8 C11 1_555 1_555
C12 C11 1_555 1_555
H9 C12 1_555 1_555
C13 C12 1_555 1_555
C14 C13 1_555 1_555
H10 C14 1_555 1_555
C15 C10 1_555 1_555
H11 C15 1_555 1_555
C16 H12 1_555 1_555
C17 C16 1_555 1_555
H13 C17 1_555 1_555
C18 H14 1_555 1_555
C19 C21 1_555 1_555
C20 C23 1_555 1_555
C21 C22 1_555 1_555
C22 H15 1_555 1_555
C23 C22 1_555 1_555
C24 C23 1_555 1_555
H16 C24 1_555 1_555
C25 C24 1_555 1_555
C26 C21 1_555 1_555
H17 C26 1_555 1_555
N1 C1 1_555 1_555
N2 C2 1_555 1_555
N3 C17 1_555 1_555
N4 C13 1_555 1_555
O1 C19 1_555 1_555
O2 C19 1_555 1_555
O3 C20 1_555 1_555
O4 C20 1_555 1_555
O5 C25 1_555 1_555
H18 O5 1_555 1_555
Cd1 N1 1_555 1_555
N3_2 Cd1 1_555 1_555
O1B Cd1 1_555 1_555
O3A Cd1 1_555 1_555
O4A Cd1 1_555 1_555
Cd1_2 N3 1_555 1_555
Cd1B O1 1_555 1_555
Cd1A O3 1_555 1_555
C3 N1 1_555 1_555
C3 N2 1_555 1_555
C4 N2 1_555 1_555
C8 C9 1_555 1_555
C14 C15 1_555 1_555
C16 N4 1_555 1_555
C18 N3 1_555 1_555
C18 N4 1_555 1_555
C25 C26 1_555 1_555
O2 Cd1 1_555 1_555
O4 Cd1A 1_555 1_555

#END
