
#######################################################################
#
#                 Cambridge Crystallographic Data Centre
#                                CCDC 
#
#######################################################################
#
# If this CIF has been generated from an entry in the Cambridge 
# Structural Database, then it will include bibliographic, chemical, 
# crystal, experimental, refinement or atomic coordinate data resulting 
# from the CCDC's data processing and validation procedures.
#
#######################################################################

data_WEGLEB
_symmetry_cell_setting           monoclinic
_symmetry_space_group_name_H-M   'P 21/c'
_symmetry_Int_Tables_number      14
_space_group_name_Hall           '-P 2ybc'
loop_
_symmetry_equiv_pos_site_id
_symmetry_equiv_pos_as_xyz
1 x,y,z
2 -x,1/2+y,1/2-z
3 -x,-y,-z
4 x,1/2-y,1/2+z
_cell_length_a                   9.762(2)
_cell_length_b                   13.486(3)
_cell_length_c                   16.804(3)
_cell_angle_alpha                90
_cell_angle_beta                 100.04(3)
_cell_angle_gamma                90
_cell_volume                     2178.37
loop_
_atom_site_label
_atom_site_type_symbol
_atom_site_fract_x
_atom_site_fract_y
_atom_site_fract_z
C1 C 0.1099(6) 0.3590(4) 0.9510(3)
H1 H 0.0860 0.3655 1.0020
C2 C 0.0189(6) 0.3610(4) 0.8807(3)
H2 H -0.0771 0.3688 0.8743
C3 C 0.2303(5) 0.3418(4) 0.8574(3)
H3 H 0.3053 0.3346 0.8305
C4 C 0.0508(5) 0.3475(4) 0.7342(3)
C5 C -0.0876(5) 0.3608(4) 0.7013(3)
H4 H -0.1536 0.3684 0.7346
C6 C -0.1273(5) 0.3625(4) 0.6177(3)
H5 H -0.2209 0.3700 0.5957
C7 C -0.0316(5) 0.3533(4) 0.5666(3)
C8 C 0.1051(6) 0.3368(5) 0.6012(3)
H6 H 0.1711 0.3282 0.5680
C9 C 0.1464(6) 0.3329(5) 0.6844(3)
H7 H 0.2389 0.3203 0.7064
C10 C -0.0734(5) 0.3595(4) 0.4772(3)
C11 C -0.2081(6) 0.3342(5) 0.4390(3)
H8 H -0.2730 0.3135 0.4700
C12 C -0.2458(6) 0.3396(5) 0.3559(3)
H9 H -0.3356 0.3222 0.3317
C13 C -0.1526(5) 0.3704(4) 0.3088(3)
C14 C -0.0186(5) 0.3952(4) 0.3449(3)
H10 H 0.0458 0.4157 0.3135
C15 C 0.0188(5) 0.3894(4) 0.4282(3)
H11 H 0.1091 0.4063 0.4519
C16 C -0.1138(6) 0.4007(5) 0.1656(3)
H12 H -0.0190 0.4147 0.1748
C17 C -0.1994(6) 0.3991(5) 0.0936(3)
H13 H -0.1729 0.4129 0.0442
C18 C -0.3234(5) 0.3625(4) 0.1817(3)
H14 H -0.3990 0.3458 0.2058
C19 C 0.4784(5) 0.1716(4) 1.0967(3)
C20 C 0.5867(5) 0.0542(4) 1.3824(3)
C21 C 0.5267(5) 0.0895(4) 1.1546(3)
C22 C 0.5358(5) 0.1063(4) 1.2369(3)
H15 H 0.5052 0.1666 1.2541
C23 C 0.5887(5) 0.0367(4) 1.2937(3)
C24 C 0.6355(6) -0.0536(4) 1.2677(3)
H16 H 0.6735 -0.1010 1.3054
C25 C 0.6255(6) -0.0723(4) 1.1863(3)
H17 H 0.6549 -0.1330 1.1691
C26 C 0.5718(6) -0.0010(4) 1.1297(3)
H18 H 0.5660 -0.0140 1.0749
N1 N 0.2415(5) 0.3462(3) 0.9366(2)
N2 N 0.0967(4) 0.3489(3) 0.8202(2)
N3 N -0.3309(5) 0.3743(3) 0.1036(2)
N4 N -0.1936(4) 0.3776(3) 0.2230(2)
O1 O 0.4203(3) 0.2460(3) 1.12263(19)
O2 O 0.5035(4) 0.1674(3) 1.0261(2)
O3 O 0.5411(4) 0.1375(3) 1.4002(2)
O4 O 0.6290(4) -0.0123(3) 1.4324(2)
Cd1 Cd 0.45987(4) 0.34864(3) 1.01673(2)
N3_2 N 0.6691(5) 0.3743(3) 1.1036(2)
O3C O 0.5411(4) 0.3625(3) 0.9002(2)
O4A O 0.3710(4) 0.4877(3) 1.0676(2)
Cd1_2 Cd -0.54013(4) 0.34864(3) 0.01673(2)
Cd1A Cd 0.54013(4) -0.15136(3) 1.48327(2)
Cd1C Cd 0.45987(4) 0.15136(3) 1.51673(2)
loop_
_geom_bond_atom_site_label_1
_geom_bond_atom_site_label_2
_geom_bond_site_symmetry_1
_geom_bond_site_symmetry_2
C1 H1 1_555 1_555
C2 C1 1_555 1_555
H2 C2 1_555 1_555
C3 H3 1_555 1_555
C4 C5 1_555 1_555
C5 H4 1_555 1_555
C6 C5 1_555 1_555
H5 C6 1_555 1_555
C7 C6 1_555 1_555
C8 C7 1_555 1_555
H6 C8 1_555 1_555
C9 C4 1_555 1_555
H7 C9 1_555 1_555
C10 C7 1_555 1_555
C11 C10 1_555 1_555
H8 C11 1_555 1_555
C12 C11 1_555 1_555
H9 C12 1_555 1_555
C13 C12 1_555 1_555
C14 C13 1_555 1_555
H10 C14 1_555 1_555
C15 C10 1_555 1_555
H11 C15 1_555 1_555
C16 H12 1_555 1_555
C17 C16 1_555 1_555
H13 C17 1_555 1_555
C18 H14 1_555 1_555
C19 C21 1_555 1_555
C20 C23 1_555 1_555
C21 C22 1_555 1_555
C22 H15 1_555 1_555
C23 C22 1_555 1_555
C24 C23 1_555 1_555
H16 C24 1_555 1_555
C25 C24 1_555 1_555
H17 C25 1_555 1_555
C26 C21 1_555 1_555
H18 C26 1_555 1_555
N1 C1 1_555 1_555
N2 C2 1_555 1_555
N3 C17 1_555 1_555
N4 C13 1_555 1_555
O1 C19 1_555 1_555
O2 C19 1_555 1_555
O3 C20 1_555 1_555
O4 C20 1_555 1_555
Cd1 N1 1_555 1_555
N3_2 Cd1 1_555 1_555
O3C Cd1 1_555 1_555
O4A Cd1 1_555 1_555
Cd1_2 N3 1_555 1_555
Cd1A O4 1_555 1_555
Cd1C O3 1_555 1_555
C3 N1 1_555 1_555
C3 N2 1_555 1_555
C4 N2 1_555 1_555
C8 C9 1_555 1_555
C14 C15 1_555 1_555
C16 N4 1_555 1_555
C18 N3 1_555 1_555
C18 N4 1_555 1_555
C25 C26 1_555 1_555
O1 Cd1 1_555 1_555
O2 Cd1 1_555 1_555

#END
