
#######################################################################
#
#                 Cambridge Crystallographic Data Centre
#                                CCDC 
#
#######################################################################
#
# If this CIF has been generated from an entry in the Cambridge 
# Structural Database, then it will include bibliographic, chemical, 
# crystal, experimental, refinement or atomic coordinate data resulting 
# from the CCDC's data processing and validation procedures.
#
#######################################################################

data_WEGLIF
_symmetry_cell_setting           monoclinic
_symmetry_space_group_name_H-M   'P 21/c'
_symmetry_Int_Tables_number      14
_space_group_name_Hall           '-P 2ybc'
loop_
_symmetry_equiv_pos_site_id
_symmetry_equiv_pos_as_xyz
1 x,y,z
2 -x,1/2+y,1/2-z
3 -x,-y,-z
4 x,1/2-y,1/2+z
_cell_length_a                   9.857(2)
_cell_length_b                   14.011(3)
_cell_length_c                   16.884(3)
_cell_angle_alpha                90
_cell_angle_beta                 100.93(3)
_cell_angle_gamma                90
_cell_volume                     2289.49
loop_
_atom_site_label
_atom_site_type_symbol
_atom_site_fract_x
_atom_site_fract_y
_atom_site_fract_z
C1 C 0.3972(7) 0.1402(5) 0.0446(3)
H1 H 0.4208 0.1384 -0.0062
C2 C 0.4890(7) 0.1425(6) 0.1152(3)
H2 H 0.5848 0.1428 0.1220
C3 C 0.2780(6) 0.1420(4) 0.1373(3)
H3 H 0.2040 0.1412 0.1642
C4 C 0.4593(5) 0.1472(4) 0.2602(3)
C5 C 0.5974(5) 0.1373(4) 0.2937(3)
H4 H 0.6623 0.1293 0.2608
C6 C 0.6389(6) 0.1394(4) 0.3774(3)
H5 H 0.7323 0.1348 0.4001
C7 C 0.5433(5) 0.1482(4) 0.4272(3)
C8 C 0.4060(6) 0.1613(5) 0.3920(3)
H6 H 0.3409 0.1698 0.4247
C9 C 0.3639(6) 0.1622(5) 0.3094(3)
H7 H 0.2715 0.1728 0.2867
C10 C 0.5863(6) 0.1429(4) 0.5166(3)
C11 C 0.7137(6) 0.1773(4) 0.5560(3)
H8 H 0.7743 0.2041 0.5262
C12 C 0.7508(6) 0.1719(4) 0.6389(3)
H9 H 0.8357 0.1960 0.6647
C13 C 0.6630(5) 0.1312(4) 0.6837(3)
C14 C 0.5360(6) 0.0960(4) 0.6454(3)
H10 H 0.4764 0.0680 0.6752
C15 C 0.4993(6) 0.1033(4) 0.5626(3)
H11 H 0.4133 0.0808 0.5371
C16 C 0.6216(6) 0.1037(4) 0.8246(3)
H12 H 0.5266 0.0938 0.8144
C17 C 0.7078(6) 0.1017(4) 0.8973(3)
H13 H 0.6805 0.0897 0.9461
C18 C 0.8341(6) 0.1321(4) 0.8110(3)
H14 H 0.9102 0.1451 0.7877
C19 C 0.0352(6) 0.3099(4) -0.1050(3)
C20 C -0.0135(5) 0.3908(3) -0.1618(3)
C21 C -0.0563(5) 0.4762(3) -0.1347(3)
H15 H -0.0469 0.4860 -0.0795
C22 C -0.1133(6) 0.5485(4) -0.1874(3)
C23 C -0.1249(5) 0.5324(4) -0.2696(3)
H16 H -0.1640 0.5792 -0.3058
C24 C -0.0794(5) 0.4482(3) -0.2988(3)
C25 C -0.0227(5) 0.3772(3) -0.2444(3)
H17 H 0.0089 0.3207 -0.2634
C26 C -0.0802(5) 0.4347(4) -0.3871(3)
C27 C -0.1600(6) 0.6413(4) -0.1576(3)
H18 H -0.1957 0.6816 -0.2028
H19 H -0.0832 0.6723 -0.1239
H20 H -0.2311 0.6295 -0.1270
N1 N 0.2650(5) 0.1411(3) 0.0582(2)
N2 N 0.4118(4) 0.1442(3) 0.1746(2)
N3 N 0.8406(5) 0.1200(3) 0.8889(2)
N4 N 0.7036(4) 0.1234(3) 0.7690(2)
O1 O 0.0047(4) 0.3125(3) -0.0362(2)
O2 O 0.0952(4) 0.2400(2) -0.1303(2)
O3 O -0.0323(4) 0.3564(3) -0.40764(19)
O4 O -0.1240(4) 0.5006(3) -0.4347(2)
Cd1 Cd 0.04865(4) 0.14284(3) -0.02292(2)
N3_2 N -0.1594(5) 0.1200(3) -0.1111(2)
O3C O -0.0323(4) 0.1436(3) 0.09236(19)
O4A O 0.1240(4) 0.0006(3) -0.0653(2)
Cd1_2 Cd 1.04865(4) 0.14284(3) 0.97708(2)
Cd1A Cd -0.04865(4) 0.64284(3) -0.47708(2)
Cd1C Cd 0.04865(4) 0.35716(3) -0.52292(2)
loop_
_geom_bond_atom_site_label_1
_geom_bond_atom_site_label_2
_geom_bond_site_symmetry_1
_geom_bond_site_symmetry_2
C1 H1 1_555 1_555
C2 C1 1_555 1_555
H2 C2 1_555 1_555
C3 H3 1_555 1_555
C4 C5 1_555 1_555
C5 H4 1_555 1_555
C6 C5 1_555 1_555
H5 C6 1_555 1_555
C7 C6 1_555 1_555
C8 C7 1_555 1_555
H6 C8 1_555 1_555
C9 C4 1_555 1_555
H7 C9 1_555 1_555
C10 C7 1_555 1_555
C11 C10 1_555 1_555
H8 C11 1_555 1_555
C12 C11 1_555 1_555
H9 C12 1_555 1_555
C13 C12 1_555 1_555
C14 C13 1_555 1_555
H10 C14 1_555 1_555
C15 C10 1_555 1_555
H11 C15 1_555 1_555
C16 H12 1_555 1_555
C17 C16 1_555 1_555
H13 C17 1_555 1_555
C18 H14 1_555 1_555
C19 C20 1_555 1_555
C20 C21 1_555 1_555
C21 H15 1_555 1_555
C22 C21 1_555 1_555
C23 C22 1_555 1_555
H16 C23 1_555 1_555
C24 C23 1_555 1_555
C25 C20 1_555 1_555
H17 C25 1_555 1_555
C26 C24 1_555 1_555
C27 C22 1_555 1_555
H18 C27 1_555 1_555
H19 C27 1_555 1_555
H20 C27 1_555 1_555
N1 C1 1_555 1_555
N2 C2 1_555 1_555
N3 C17 1_555 1_555
N4 C13 1_555 1_555
O1 C19 1_555 1_555
O2 C19 1_555 1_555
O3 C26 1_555 1_555
O4 C26 1_555 1_555
Cd1 N1 1_555 1_555
N3_2 Cd1 1_555 1_555
O3C Cd1 1_555 1_555
O4A Cd1 1_555 1_555
Cd1_2 N3 1_555 1_555
Cd1A O4 1_555 1_555
Cd1C O3 1_555 1_555
C3 N1 1_555 1_555
C3 N2 1_555 1_555
C4 N2 1_555 1_555
C8 C9 1_555 1_555
C14 C15 1_555 1_555
C16 N4 1_555 1_555
C18 N3 1_555 1_555
C18 N4 1_555 1_555
C24 C25 1_555 1_555
O1 Cd1 1_555 1_555
O2 Cd1 1_555 1_555

#END
