
#######################################################################
#
#                 Cambridge Crystallographic Data Centre
#                                CCDC 
#
#######################################################################
#
# If this CIF has been generated from an entry in the Cambridge 
# Structural Database, then it will include bibliographic, chemical, 
# crystal, experimental, refinement or atomic coordinate data resulting 
# from the CCDC's data processing and validation procedures.
#
#######################################################################

data_WEGWOW
_symmetry_cell_setting           monoclinic
_symmetry_space_group_name_H-M   'P c'
_symmetry_Int_Tables_number      7
_space_group_name_Hall           'P -2yc'
loop_
_symmetry_equiv_pos_site_id
_symmetry_equiv_pos_as_xyz
1 x,y,z
2 x,-y,1/2+z
_cell_length_a                   20.057(3)
_cell_length_b                   22.223(3)
_cell_length_c                   18.474(3)
_cell_angle_alpha                90
_cell_angle_beta                 109.497(2)
_cell_angle_gamma                90
_cell_volume                     7762.19
loop_
_atom_site_label
_atom_site_type_symbol
_atom_site_fract_x
_atom_site_fract_y
_atom_site_fract_z
O3 O -0.9645(11) 0.4752(18) 1.2525(10)
O4 O -0.8724(4) 0.4611(3) 1.1498(4)
O5 O -1.1730(7) 0.3524(6) 1.0357(7)
O6 O -1.2976(4) 0.2748(4) 1.0490(5)
O7 O -1.2625(8) 0.1678(7) 1.1214(10)
O8 O -1.1677(5) 0.0816(4) 1.0858(7)
O9 O -0.9565(4) -0.0687(3) 1.2792(4)
O10 O -0.8480(3) 0.0225(2) 1.1641(3)
O11 O -1.1183(4) 0.0570(3) 0.9737(5)
O12 O -1.1622(4) 0.1135(5) 0.8312(4)
O13 O -1.1007(6) 0.2310(7) 0.8319(6)
O14 O -1.0947(5) 0.3254(4) 0.9571(5)
C45 C -1.0623(5) 0.3521(3) 1.0268(4)
C46 C -0.9897(4) 0.3623(3) 1.0551(4)
H45 H -0.9617 0.3519 1.0258
C47 C -0.9591(3) 0.3878(3) 1.1273(4)
C48 C -1.0009(5) 0.4033(4) 1.1712(4)
C49 C -1.0734(5) 0.3931(4) 1.1428(6)
H46 H -1.1014 0.4034 1.1722
C50 C -1.1041(3) 0.3676(4) 1.0706(6)
C51 C -0.8773(6) 0.3990(5) 1.1521(6)
H47 H -0.8532 0.3838 1.2035
H48 H -0.8573 0.3801 1.1167
C52 C -0.8006(4) 0.4815(4) 1.1716(4)
C53 C -0.7918(6) 0.5436(4) 1.1714(4)
H49 H -0.8311 0.5687 1.1577
C54 C -0.7243(8) 0.5680(4) 1.1918(5)
H50 H -0.7184 0.6095 1.1916
C55 C -0.6655(6) 0.5305(6) 1.2123(5)
H51 H -0.6203 0.5468 1.2259
C56 C -0.6743(4) 0.4684(5) 1.2125(4)
H52 H -0.6350 0.4433 1.2262
C57 C -0.7418(5) 0.4440(3) 1.1921(3)
H53 H -0.7477 0.4025 1.1922
C58 C -0.9751(13) 0.4208(13) 1.267(2)
H54 H -1.0124 0.4160 1.2890
H55 H -0.9325 0.4001 1.2976
C59 C -0.9521(9) 0.5380(8) 1.2984(10)
C60 C -0.9250(9) 0.5158(6) 1.3729(13)
H56 H -0.9287 0.4751 1.3822
C61 C -0.8922(8) 0.5546(10) 1.4334(8)
H57 H -0.8740 0.5397 1.4832
C62 C -0.8866(7) 0.6155(9) 1.4195(10)
H58 H -0.8647 0.6414 1.4600
C63 C -0.9138(8) 0.6377(6) 1.3450(13)
H59 H -0.9101 0.6785 1.3357
C64 C -0.9465(8) 0.5990(9) 1.2845(8)
H60 H -0.9647 0.6138 1.2347
C65 C -1.2255(9) 0.3671(8) 1.0737(12)
H61 H -1.2057 0.3558 1.1274
H62 H -1.2324 0.4104 1.0717
C66 C -1.2953(9) 0.3382(8) 1.0412(13)
H63 H -1.3268 0.3560 1.0651
H64 H -1.3138 0.3478 0.9869
C67 C -1.3293(8) 0.2568(6) 1.1033(6)
H65 H -1.3775 0.2715 1.0878
H66 H -1.3034 0.2740 1.1530
C68 C -1.3291(8) 0.1909(6) 1.1092(8)
H67 H -1.3451 0.1793 1.1512
H68 H -1.3617 0.1742 1.0622
C69 C -1.2648(8) 0.1023(7) 1.1337(10)
H69 H -1.2998 0.0839 1.0897
H70 H -1.2782 0.0946 1.1786
C70 C -1.1935(9) 0.0758(7) 1.1447(11)
H71 H -1.1600 0.0941 1.1899
H72 H -1.1956 0.0332 1.1555
C71 C -1.1011(3) 0.0553(3) 1.1026(5)
C72 C -1.0613(4) 0.0406(3) 1.1778(4)
H73 H -1.0792 0.0481 1.2173
C73 C -0.9949(3) 0.0147(3) 1.1938(3)
C74 C -0.9681(3) 0.0035(3) 1.1347(3)
C75 C -1.0079(3) 0.0182(3) 1.0596(3)
H74 H -0.9900 0.0107 1.0200
C76 C -1.0743(3) 0.0441(3) 1.0435(3)
C77 C -0.9563(6) -0.0030(4) 1.2774(5)
H75 H -0.9082 0.0121 1.2943
H76 H -0.9805 0.0132 1.3105
C78 C -0.9233(4) -0.0931(3) 1.3510(3)
C79 C -0.8959(3) -0.0608(3) 1.4189(4)
H77 H -0.8954 -0.0189 1.4177
C80 C -0.8694(4) -0.0909(4) 1.4886(3)
H78 H -0.8512 -0.0693 1.5340
C81 C -0.8703(4) -0.1535(4) 1.4903(4)
H79 H -0.8526 -0.1737 1.5369
C82 C -0.8976(4) -0.1858(3) 1.4224(5)
H80 H -0.8982 -0.2276 1.4236
C83 C -0.9241(4) -0.1556(3) 1.3527(4)
H81 H -0.9424 -0.1773 1.3073
C84 C -0.8970(4) -0.0237(4) 1.1452(4)
H82 H -0.8854 -0.0535 1.1858
H83 H -0.8970 -0.0431 1.0981
C85 C -0.7785(2) 0.0071(3) 1.1808(3)
C86 C -0.7548(3) -0.0520(2) 1.1867(3)
H84 H -0.7869 -0.0836 1.1790
C87 C -0.6831(4) -0.0641(3) 1.2040(3)
H85 H -0.6673 -0.1037 1.2080
C88 C -0.6352(2) -0.0169(4) 1.2155(3)
H86 H -0.5872 -0.0250 1.2271
C89 C -0.6588(3) 0.0422(3) 1.2096(3)
H87 H -0.6268 0.0738 1.2173
C90 C -0.7305(3) 0.0543(2) 1.1922(3)
H88 H -0.7464 0.0939 1.1883
C91 C -1.0996(8) 0.0380(7) 0.9119(8)
H89 H -1.0886 -0.0046 0.9156
H90 H -1.0589 0.0602 0.9090
C92 C -1.1624(7) 0.0507(7) 0.8449(7)
H91 H -1.1604 0.0283 0.8005
H92 H -1.2050 0.0392 0.8552
C93 C -1.1206(11) 0.1329(8) 0.7890(13)
H93 H -1.1290 0.1075 0.7443
H94 H -1.0711 0.1295 0.8201
C94 C -1.1368(8) 0.1970(7) 0.7639(7)
H95 H -1.1190 0.2068 0.7225
H96 H -1.1874 0.2045 0.7469
C95 C -1.1018(13) 0.2943(8) 0.8251(9)
H97 H -1.1500 0.3091 0.8113
H98 H -1.0826 0.3065 0.7856
C96 C -1.0569(9) 0.3197(9) 0.9028(9)
H99 H -1.0163 0.2937 0.9248
H100 H -1.0394 0.3590 0.8951
B1 B -0.7640(6) 0.2644(4) 1.1455(5)
F1 F -0.7189(5) 0.2940(2) 1.1168(3)
F2 F -0.7447(3) 0.2058(2) 1.1545(3)
F3 F -0.7612(5) 0.2887(3) 1.2148(4)
F4 F -0.8322(5) 0.2680(4) 1.0939(6)
B2 B -0.9535(7) 0.1265(5) 1.4074(7)
F5 F -0.9413(4) 0.1781(4) 1.4468(4)
F6 F -0.8921(6) 0.1080(4) 1.3986(6)
F7 F -0.9806(8) 0.0844(5) 1.4404(8)
F8 F -0.9998(6) 0.1380(6) 1.3364(6)
B3 B -0.5185(9) -0.2333(8) 1.4637(10)
F9 F -0.4894(10) -0.1749(8) 1.4741(12)
F10 F -0.4666(9) -0.2779(8) 1.4689(12)
F11 F -0.5700(10) -0.2372(9) 1.3901(10)
F12 F -0.5511(11) -0.2446(11) 1.5190(12)
B4 B -0.7957(8) 0.2546(6) 1.6958(8)
F13 F -0.7937(9) 0.2830(5) 1.6351(7)
F14 F -0.8640(7) 0.2440(7) 1.6861(8)
F15 F -0.7663(8) 0.2846(5) 1.7581(7)
F16 F -0.7633(9) 0.2023(5) 1.6985(8)
B5 B -1.4898(15) 0.1385(12) 0.3784(16)
F17 F -1.504(2) 0.1976(12) 0.384(2)
F18 F -1.4306(18) 0.1237(17) 0.437(2)
F19 F -1.479(2) 0.1296(18) 0.311(2)
F20 F -1.5454(18) 0.1052(15) 0.381(3)
B6 B -1.3277(11) 0.0815(10) 0.5881(11)
F21 F -1.3277(15) 0.0359(11) 0.5355(12)
F22 F -1.3946(11) 0.1073(13) 0.5645(15)
F23 F -1.2775(13) 0.1246(12) 0.5888(14)
F24 F -1.3139(15) 0.0564(12) 0.6602(11)
Cd1 Cd -1.72548(3) 0.208906(18) 0.43953(3)
O1 O -1.6623(4) 0.2140(3) 0.3555(4)
H1 H -1.6280 0.1821 0.3663
H2 H -1.6945 0.2098 0.3040
O2 O -1.7984(4) 0.20221(19) 0.5176(4)
H3 H -1.7901 0.2366 0.5509
H4 H -1.8471 0.2013 0.4855
N1 N -1.7312(4) -0.68488(14) 0.4366(4)
C1 C -1.7057(4) -0.6530(3) 0.3867(4)
H5 H -1.6884 -0.6734 0.3528
C2 C -1.7062(5) -0.5904(3) 0.3873(4)
H6 H -1.6891 -0.5691 0.3538
C3 C -1.7322(5) -0.55980(14) 0.4379(5)
C4 C -1.7576(4) -0.5917(3) 0.4878(4)
H7 H -1.7750 -0.5712 0.5217
C5 C -1.7572(4) -0.6543(3) 0.4872(4)
H8 H -1.7742 -0.6756 0.5206
C6 C -1.7315(5) -0.49555(15) 0.4385(4)
C7 C -1.7326(6) -0.4661(3) 0.5045(4)
H9 H -1.7270 -0.4878 0.5491
C8 C -1.7421(5) -0.4041(3) 0.5037(3)
H10 H -1.7428 -0.3844 0.5478
N2 N -1.7505(4) -0.37158(15) 0.4369(4)
C9 C -1.7494(5) -0.4011(3) 0.3710(3)
H11 H -1.7551 -0.3793 0.3263
C10 C -1.7400(5) -0.4631(3) 0.3717(3)
H12 H -1.7392 -0.4828 0.3276
C11 C -1.7552(8) -0.3055(5) 0.4378(7)
H13 H -1.7882 -0.2917 0.3892
H14 H -1.7732 -0.2932 0.4781
C12 C -1.6892(11) -0.2787(5) 0.4500(9)
H15 H -1.6713 -0.2891 0.4089
H16 H -1.6554 -0.2922 0.4983
N3 N -1.7004(4) -0.21279(17) 0.4516(4)
C13 C -1.7227(5) -0.1829(3) 0.3815(3)
H17 H -1.7351 -0.2047 0.3360
C14 C -1.7266(4) -0.1205(3) 0.3794(3)
H18 H -1.7416 -0.1005 0.3325
C15 C -1.7082(3) -0.08788(17) 0.4475(4)
C16 C -1.6858(4) -0.1177(2) 0.5176(3)
H19 H -1.6735 -0.0959 0.5631
C17 C -1.6819(4) -0.1802(2) 0.5197(3)
H20 H -1.6670 -0.2002 0.5666
C18 C -1.7080(3) -0.02012(13) 0.4462(3)
C19 C -1.6881(3) 0.0108(2) 0.3912(3)
H21 H -1.6715 -0.0102 0.3572
C20 C -1.6932(3) 0.0732(2) 0.3871(3)
H22 H -1.6799 0.0939 0.3503
N4 N -1.7181(3) 0.10462(13) 0.4379(4)
C21 C -1.7379(3) 0.0737(2) 0.4929(3)
H23 H -1.7546 0.0947 0.5268
C22 C -1.7329(3) 0.0113(2) 0.4970(3)
H24 H -1.7462 -0.0094 0.5338
N5 N -2.6238(3) 0.2097(2) -0.4515(2)
C23 C -2.6270(3) 0.2204(4) -0.3786(3)
H25 H -2.6702 0.2290 -0.3725
C24 C -2.5657(4) 0.2185(4) -0.3149(2)
H26 H -2.5679 0.2257 -0.2662
C25 C -2.5012(3) 0.2057(3) -0.3241(4)
C26 C -2.4979(3) 0.1950(5) -0.3970(5)
H27 H -2.4547 0.1864 -0.4031
C27 C -2.5592(4) 0.1969(4) -0.4607(3)
H28 H -2.5570 0.1897 -0.5094
C28 C -2.4356(4) 0.1981(4) -0.2547(4)
C29 C -2.3835(5) 0.1590(4) -0.2604(4)
H29 H -2.3875 0.1414 -0.3073
C30 C -2.3253(4) 0.1463(4) -0.1959(6)
H30 H -2.2904 0.1201 -0.1997
N6 N -2.3193(4) 0.1726(5) -0.1258(4)
C31 C -2.3714(5) 0.2117(5) -0.1201(4)
H31 H -2.3673 0.2293 -0.0731
C32 C -2.4295(4) 0.2245(4) -0.1845(5)
H32 H -2.4644 0.2506 -0.1807
C33 C -2.2025(5) 0.2086(6) -0.0551(5)
H33 H -2.2243 0.2475 -0.0544
H34 H -2.1901 0.2065 -0.1015
C34 C -2.2506(6) 0.1641(6) -0.0570(7)
H35 H -2.2616 0.1649 -0.0097
H36 H -2.2302 0.1252 -0.0609
N7 N -2.13909(18) 0.2041(3) 0.0106(2)
C35 C -2.14199(18) 0.2173(3) 0.0830(2)
H37 H -2.1853 0.2252 0.0893
C36 C -2.0802(2) 0.2187(3) 0.14615(19)
H38 H -2.0821 0.2275 0.1946
C37 C -2.01549(19) 0.2068(2) 0.1368(2)
C38 C -2.01259(18) 0.1936(3) 0.0644(3)
H39 H -1.9693 0.1857 0.0582
C39 C -2.0744(2) 0.1923(3) 0.00129(19)
H40 H -2.0724 0.1834 -0.0472
C40 C -1.95038(18) 0.20627(19) 0.20491(19)
C41 C -1.94139(18) 0.24942(17) 0.2618(2)
H41 H -1.9765 0.2779 0.2574
C42 C -1.8800(2) 0.24997(16) 0.3254(2)
H42 H -1.8739 0.2788 0.3635
N8 N -1.82749(16) 0.20738(17) 0.3321(2)
C43 C -1.83647(19) 0.16423(18) 0.2751(2)
H43 H -1.8014 0.1357 0.2795
C44 C -1.8979(2) 0.16367(19) 0.2115(2)
H44 H -1.9039 0.1348 0.1734
Cd1_2 Cd -2.72548(3) 0.208906(18) -0.56047(3)
Cd1_3 Cd -1.72548(3) -0.791094(18) 0.43953(3)
N1_2 N -1.7312(4) 0.31512(14) 0.4366(4)
N5_2 N -1.6238(3) 0.2097(2) 0.5485(2)
loop_
_geom_bond_atom_site_label_1
_geom_bond_atom_site_label_2
_geom_bond_site_symmetry_1
_geom_bond_site_symmetry_2
Cd1 O1 1_555 1_555
O1 H1 1_555 1_555
H2 O1 1_555 1_555
O2 Cd1 1_555 1_555
H3 O2 1_555 1_555
H4 O2 1_555 1_555
N1 C1 1_555 1_555
C1 H5 1_555 1_555
C2 C1 1_555 1_555
H6 C2 1_555 1_555
C3 C2 1_555 1_555
C4 C3 1_555 1_555
H7 C4 1_555 1_555
C5 N1 1_555 1_555
H8 C5 1_555 1_555
C6 C3 1_555 1_555
C7 C6 1_555 1_555
H9 C7 1_555 1_555
C8 C7 1_555 1_555
H10 C8 1_555 1_555
N2 C8 1_555 1_555
C9 N2 1_555 1_555
H11 C9 1_555 1_555
C10 C6 1_555 1_555
H12 C10 1_555 1_555
C11 N2 1_555 1_555
H13 C11 1_555 1_555
H14 C11 1_555 1_555
C12 C11 1_555 1_555
H15 C12 1_555 1_555
H16 C12 1_555 1_555
N3 C12 1_555 1_555
C13 N3 1_555 1_555
H17 C13 1_555 1_555
C14 C13 1_555 1_555
H18 C14 1_555 1_555
C15 C14 1_555 1_555
C16 C15 1_555 1_555
H19 C16 1_555 1_555
C17 N3 1_555 1_555
H20 C17 1_555 1_555
C18 C15 1_555 1_555
C19 C18 1_555 1_555
H21 C19 1_555 1_555
C20 C19 1_555 1_555
H22 C20 1_555 1_555
N4 Cd1 1_555 1_555
C21 N4 1_555 1_555
H23 C21 1_555 1_555
C22 C18 1_555 1_555
H24 C22 1_555 1_555
N5 C23 1_555 1_555
C23 H25 1_555 1_555
C24 C23 1_555 1_555
H26 C24 1_555 1_555
C25 C24 1_555 1_555
C26 C25 1_555 1_555
H27 C26 1_555 1_555
C27 N5 1_555 1_555
H28 C27 1_555 1_555
C28 C25 1_555 1_555
C29 C28 1_555 1_555
H29 C29 1_555 1_555
C30 C29 1_555 1_555
H30 C30 1_555 1_555
N6 C30 1_555 1_555
C31 N6 1_555 1_555
H31 C31 1_555 1_555
C32 C28 1_555 1_555
H32 C32 1_555 1_555
C33 H33 1_555 1_555
H34 C33 1_555 1_555
C34 N6 1_555 1_555
H35 C34 1_555 1_555
H36 C34 1_555 1_555
N7 C33 1_555 1_555
C35 N7 1_555 1_555
H37 C35 1_555 1_555
C36 C35 1_555 1_555
H38 C36 1_555 1_555
C37 C36 1_555 1_555
C38 C37 1_555 1_555
H39 C38 1_555 1_555
C39 N7 1_555 1_555
H40 C39 1_555 1_555
C40 C37 1_555 1_555
C41 C40 1_555 1_555
H41 C41 1_555 1_555
C42 C41 1_555 1_555
H42 C42 1_555 1_555
N8 Cd1 1_555 1_555
C43 N8 1_555 1_555
H43 C43 1_555 1_555
C44 C40 1_555 1_555
H44 C44 1_555 1_555
O3 C58 1_555 1_555
O4 C51 1_555 1_555
O5 C50 1_555 1_555
O6 C66 1_555 1_555
O7 C68 1_555 1_555
O8 C70 1_555 1_555
O9 C77 1_555 1_555
O10 C84 1_555 1_555
O11 C76 1_555 1_555
O12 C92 1_555 1_555
O13 C94 1_555 1_555
O14 C45 1_555 1_555
C45 C46 1_555 1_555
C46 H45 1_555 1_555
C47 C46 1_555 1_555
C48 C47 1_555 1_555
C49 C48 1_555 1_555
H46 C49 1_555 1_555
C50 C45 1_555 1_555
C51 C47 1_555 1_555
H47 C51 1_555 1_555
H48 C51 1_555 1_555
C52 O4 1_555 1_555
C53 C52 1_555 1_555
H49 C53 1_555 1_555
C54 C53 1_555 1_555
H50 C54 1_555 1_555
C55 C54 1_555 1_555
H51 C55 1_555 1_555
C56 C55 1_555 1_555
H52 C56 1_555 1_555
C57 C52 1_555 1_555
H53 C57 1_555 1_555
C58 C48 1_555 1_555
H54 C58 1_555 1_555
H55 C58 1_555 1_555
C59 O3 1_555 1_555
C60 C59 1_555 1_555
H56 C60 1_555 1_555
C61 C60 1_555 1_555
H57 C61 1_555 1_555
C62 C61 1_555 1_555
H58 C62 1_555 1_555
C63 C62 1_555 1_555
H59 C63 1_555 1_555
C64 C59 1_555 1_555
H60 C64 1_555 1_555
C65 O5 1_555 1_555
H61 C65 1_555 1_555
H62 C65 1_555 1_555
C66 C65 1_555 1_555
H63 C66 1_555 1_555
H64 C66 1_555 1_555
C67 O6 1_555 1_555
H65 C67 1_555 1_555
H66 C67 1_555 1_555
C68 C67 1_555 1_555
H67 C68 1_555 1_555
H68 C68 1_555 1_555
C69 O7 1_555 1_555
H69 C69 1_555 1_555
H70 C69 1_555 1_555
C70 C69 1_555 1_555
H71 C70 1_555 1_555
H72 C70 1_555 1_555
C71 O8 1_555 1_555
C72 C71 1_555 1_555
H73 C72 1_555 1_555
C73 C72 1_555 1_555
C74 C73 1_555 1_555
C75 C74 1_555 1_555
H74 C75 1_555 1_555
C76 C71 1_555 1_555
C77 C73 1_555 1_555
H75 C77 1_555 1_555
H76 C77 1_555 1_555
C78 O9 1_555 1_555
C79 C78 1_555 1_555
H77 C79 1_555 1_555
C80 C79 1_555 1_555
H78 C80 1_555 1_555
C81 C80 1_555 1_555
H79 C81 1_555 1_555
C82 C81 1_555 1_555
H80 C82 1_555 1_555
C83 C78 1_555 1_555
H81 C83 1_555 1_555
C84 C74 1_555 1_555
H82 C84 1_555 1_555
H83 C84 1_555 1_555
C85 O10 1_555 1_555
C86 C85 1_555 1_555
H84 C86 1_555 1_555
C87 C86 1_555 1_555
H85 C87 1_555 1_555
C88 C87 1_555 1_555
H86 C88 1_555 1_555
C89 C88 1_555 1_555
H87 C89 1_555 1_555
C90 C85 1_555 1_555
H88 C90 1_555 1_555
C91 O11 1_555 1_555
H89 C91 1_555 1_555
H90 C91 1_555 1_555
C92 C91 1_555 1_555
H91 C92 1_555 1_555
H92 C92 1_555 1_555
C93 O12 1_555 1_555
H93 C93 1_555 1_555
H94 C93 1_555 1_555
C94 C93 1_555 1_555
H95 C94 1_555 1_555
H96 C94 1_555 1_555
C95 O13 1_555 1_555
H97 C95 1_555 1_555
H98 C95 1_555 1_555
C96 O14 1_555 1_555
H99 C96 1_555 1_555
H100 C96 1_555 1_555
B1 F1 1_555 1_555
F2 B1 1_555 1_555
F3 B1 1_555 1_555
F4 B1 1_555 1_555
B2 F5 1_555 1_555
F6 B2 1_555 1_555
F7 B2 1_555 1_555
F8 B2 1_555 1_555
B3 F9 1_555 1_555
F10 B3 1_555 1_555
F11 B3 1_555 1_555
F12 B3 1_555 1_555
B4 F13 1_555 1_555
F14 B4 1_555 1_555
F15 B4 1_555 1_555
F16 B4 1_555 1_555
B5 F17 1_555 1_555
F18 B5 1_555 1_555
F19 B5 1_555 1_555
F20 B5 1_555 1_555
B6 F21 1_555 1_555
F22 B6 1_555 1_555
F23 B6 1_555 1_555
F24 B6 1_555 1_555
Cd1_2 N5 1_555 1_555
Cd1_3 N1 1_555 1_555
N1_2 Cd1 1_555 1_555
N5_2 Cd1 1_555 1_555
C4 C5 1_555 1_555
C9 C10 1_555 1_555
C16 C17 1_555 1_555
C20 N4 1_555 1_555
C21 C22 1_555 1_555
C26 C27 1_555 1_555
C31 C32 1_555 1_555
C33 C34 1_555 1_555
C38 C39 1_555 1_555
C42 N8 1_555 1_555
C43 C44 1_555 1_555
C49 C50 1_555 1_555
C56 C57 1_555 1_555
C63 C64 1_555 1_555
C75 C76 1_555 1_555
C82 C83 1_555 1_555
C89 C90 1_555 1_555
C95 C96 1_555 1_555

#END
