
#######################################################################
#
#                 Cambridge Crystallographic Data Centre
#                                CCDC 
#
#######################################################################
#
# If this CIF has been generated from an entry in the Cambridge 
# Structural Database, then it will include bibliographic, chemical, 
# crystal, experimental, refinement or atomic coordinate data resulting 
# from the CCDC's data processing and validation procedures.
#
#######################################################################

data_WEGXEM
_symmetry_cell_setting           monoclinic
_symmetry_space_group_name_H-M   'P 21/c'
_symmetry_Int_Tables_number      14
_space_group_name_Hall           '-P 2ybc'
loop_
_symmetry_equiv_pos_site_id
_symmetry_equiv_pos_as_xyz
1 x,y,z
2 -x,1/2+y,1/2-z
3 -x,-y,-z
4 x,1/2-y,1/2+z
_cell_length_a                   11.8629(11)
_cell_length_b                   13.3850(18)
_cell_length_c                   7.3569(7)
_cell_angle_alpha                90
_cell_angle_beta                 104.869(7)
_cell_angle_gamma                90
_cell_volume                     1129.05
loop_
_atom_site_label
_atom_site_type_symbol
_atom_site_fract_x
_atom_site_fract_y
_atom_site_fract_z
Cu1 Cu 0.82971(6) 0.60897(5) 0.20807(10)
C1 C 0.6099(4) 0.5813(4) 0.3100(7)
C2 C 0.6061(5) 0.6826(4) 0.3469(8)
C3 C 0.4982(5) 0.7258(4) 0.3323(8)
H1 H 0.4939 0.7934 0.3589
C4 C 0.3980(5) 0.6714(4) 0.2796(9)
H2 H 0.3264 0.7017 0.2721
C5 C 0.4029(5) 0.5737(4) 0.2384(8)
H3 H 0.3342 0.5375 0.1971
C6 C 0.5087(5) 0.5269(4) 0.2566(8)
H4 H 0.5116 0.4588 0.2330
C7 C 0.7223(4) 0.4247(3) 0.3066(8)
H5 H 0.6745 0.4075 0.1826
H6 H 0.6895 0.3923 0.3994
C8 C 0.8470(4) 0.3882(4) 0.3279(7)
H7 H 0.8523 0.3176 0.3589
H8 H 0.8998 0.4242 0.4293
C9 C 0.8821(4) 0.4052(4) 0.1444(8)
C10 C 0.7095(4) 0.7515(4) 0.3909(7)
N1 N 0.7223(4) 0.5342(3) 0.3327(6)
H9 H 0.751(4) 0.542(4) 0.442(4)
O1 O 0.8695(3) 0.4935(2) 0.0767(5)
O2 O 0.9182(3) 0.3338(3) 0.0687(5)
O3 O 0.8037(3) 0.7258(3) 0.3503(5)
O4 O 0.6994(3) 0.8343(3) 0.4614(5)
O5 O 0.9871(4) 0.6629(3) 0.2248(6)
H10 H 1.007(4) 0.727(2) 0.280(6)
H11 H 1.021(4) 0.652(4) 0.128(5)
Cu1C Cu 0.82971(6) 0.89103(5) 0.70807(10)
O4C O 0.6994(3) 0.6657(3) -0.0386(5)
O6 O 0.8540(4) 0.5713(3) 0.7029(6)
H12 H 0.895(4) 0.525(3) 0.775(7)
H13 H 0.905(4) 0.625(3) 0.761(7)
loop_
_geom_bond_atom_site_label_1
_geom_bond_atom_site_label_2
_geom_bond_site_symmetry_1
_geom_bond_site_symmetry_2
Cu1 N1 1_555 1_555
C1 C2 1_555 1_555
C2 C3 1_555 1_555
C3 H1 1_555 1_555
C4 C3 1_555 1_555
H2 C4 1_555 1_555
C5 C4 1_555 1_555
H3 C5 1_555 1_555
C6 C1 1_555 1_555
H4 C6 1_555 1_555
C7 H5 1_555 1_555
H6 C7 1_555 1_555
C8 C7 1_555 1_555
H7 C8 1_555 1_555
H8 C8 1_555 1_555
C9 C8 1_555 1_555
C10 C2 1_555 1_555
N1 C1 1_555 1_555
H9 N1 1_555 1_555
O1 Cu1 1_555 1_555
O2 C9 1_555 1_555
O3 Cu1 1_555 1_555
O4 C10 1_555 1_555
O5 Cu1 1_555 1_555
H10 O5 1_555 1_555
H11 O5 1_555 1_555
O6 H12 1_555 1_555
H13 O6 1_555 1_555
Cu1C O4 1_555 1_555
O4C Cu1 1_555 1_555
C5 C6 1_555 1_555
C7 N1 1_555 1_555
C9 O1 1_555 1_555
C10 O3 1_555 1_555

#END
