
#######################################################################
#
#                 Cambridge Crystallographic Data Centre
#                                CCDC 
#
#######################################################################
#
# If this CIF has been generated from an entry in the Cambridge 
# Structural Database, then it will include bibliographic, chemical, 
# crystal, experimental, refinement or atomic coordinate data resulting 
# from the CCDC's data processing and validation procedures.
#
#######################################################################

data_WEHDUK
_symmetry_cell_setting           rhombohedral
_symmetry_space_group_name_H-M   'R 3 2'
_symmetry_Int_Tables_number      155
_space_group_name_Hall           'R 3 2"'
loop_
_symmetry_equiv_pos_site_id
_symmetry_equiv_pos_as_xyz
1 x,y,z
2 -y,x-y,z
3 -x+y,-x,z
4 y,x,-z
5 x-y,-y,-z
6 -x,-x+y,-z
7 2/3+x,1/3+y,1/3+z
8 2/3-y,1/3+x-y,1/3+z
9 2/3-x+y,1/3-x,1/3+z
10 2/3+y,1/3+x,1/3-z
11 2/3+x-y,1/3-y,1/3-z
12 2/3-x,1/3-x+y,1/3-z
13 1/3+x,2/3+y,2/3+z
14 1/3-y,2/3+x-y,2/3+z
15 1/3-x+y,2/3-x,2/3+z
16 1/3+y,2/3+x,2/3-z
17 1/3+x-y,2/3-y,2/3-z
18 1/3-x,2/3-x+y,2/3-z
_cell_length_a                   28.2738(4)
_cell_length_b                   28.2738(4)
_cell_length_c                   79.4732(15)
_cell_angle_alpha                90
_cell_angle_beta                 90
_cell_angle_gamma                120
_cell_volume                     55019.9
loop_
_atom_site_label
_atom_site_type_symbol
_atom_site_fract_x
_atom_site_fract_y
_atom_site_fract_z
Yb3 Yb 1.229397(17) 0.3333 0.8333
Yb4 Yb 1.311920(15) 0.259960(15) 0.843080(5)
Mn4 Mn 1.16895(5) 0.33791(5) 0.798050(13)
Mn5 Mn 1.45293(5) 0.40052(6) 0.790719(18)
Mn6 Mn 1.24501(5) 0.13738(5) 0.825586(17)
O20 O 1.1658(3) 0.3938(2) 0.78624(6)
O21 O 1.1734(2) 0.2850(2) 0.81186(6)
O22 O 1.2375(2) 0.2569(2) 0.82697(6)
O23 O 1.1936(2) 0.1710(2) 0.81657(7)
O24 O 1.5178(3) 0.3986(3) 0.78895(10)
O25 O 1.3901(2) 0.4079(2) 0.79505(7)
O26 O 1.2980(2) 0.3671(2) 0.81123(6)
O27 O 1.2514(2) 0.3648(2) 0.78761(6)
O28 O 1.1831(2) 0.0710(2) 0.83185(7)
O29 O 1.3076(2) 0.2061(2) 0.82169(7)
O30 O 1.3582(2) 0.3109(2) 0.81906(7)
O31 O 1.4040(3) 0.3114(2) 0.79570(8)
O32 O 0.8856(5) 0.2535(4) 0.81351(15)
O33 O 0.8973(3) 0.1961(3) 0.83126(8)
O34 O 1.2019(2) 0.3819(2) 0.81793(6)
O35 O 1.3806(2) 0.2502(3) 0.85279(8)
O36 O 1.4976(3) 0.4898(3) 0.78241(8)
O37 O 1.2518(2) 0.1706(2) 0.84708(7)
N5 N 1.1449(3) 0.2914(3) 0.77749(8)
N6 N 1.4343(3) 0.3781(3) 0.76647(10)
N7 N 1.2381(3) 0.1123(3) 0.80099(10)
C45 C 1.1771(4) 0.4064(4) 0.77046(11)
C46 C 1.1945(5) 0.4590(5) 0.76498(13)
H50 H 1.1975 0.4857 0.7729
C47 C 1.2077(5) 0.4739(5) 0.74816(12)
H51 H 1.2188 0.5102 0.7448
C48 C 1.2052(5) 0.4374(6) 0.73633(14)
H52 H 1.2161 0.4484 0.7250
C49 C 1.1861(4) 0.3841(5) 0.74137(11)
H53 H 1.1817 0.3580 0.7331
C50 C 1.1731(4) 0.3668(4) 0.75790(11)
C51 C 1.1528(4) 0.3118(4) 0.76233(10)
H54 H 1.1439 0.2868 0.7533
C52 C 1.1254(4) 0.2328(4) 0.77940(11)
H55 H 1.1199 0.2161 0.7681
H56 H 1.0896 0.2153 0.7852
C53 C 1.1644(4) 0.2213(3) 0.78928(9)
H57 H 1.1547 0.1827 0.7876
H58 H 1.2021 0.2448 0.7851
C54 C 1.1619(3) 0.2319(3) 0.80770(9)
H59 H 1.1239 0.2060 0.8116
C55 C 1.2015(3) 0.2183(3) 0.81762(10)
C56 C 1.5363(5) 0.3809(4) 0.77711(17)
C57 C 1.5830(5) 0.3774(5) 0.77966(19)
H60 H 1.6007 0.3882 0.7903
C58 C 1.6054(6) 0.3591(6) 0.7676(2)
H61 H 1.6387 0.3596 0.7695
C59 C 1.5771(8) 0.3400(7) 0.7526(2)
H62 H 1.5908 0.3251 0.7445
C60 C 1.5300(6) 0.3414(5) 0.74858(19)
H63 H 1.5128 0.3295 0.7379
C61 C 1.5092(5) 0.3608(4) 0.76082(17)
C62 C 1.4599(4) 0.3622(4) 0.75643(14)
H64 H 1.4454 0.3507 0.7454
C63 C 1.3863(4) 0.3799(5) 0.75855(13)
H65 H 1.3972 0.4182 0.7558
H66 H 1.3758 0.3587 0.7479
C64 C 1.3379(4) 0.3567(4) 0.77031(10)
H67 H 1.3046 0.3486 0.7639
H68 H 1.3323 0.3220 0.7751
C65 C 1.3462(3) 0.3956(4) 0.78422(10)
H69 H 1.3531 0.4307 0.7790
C66 C 1.2927(4) 0.3733(3) 0.79510(11)
C67 C 1.1427(4) 0.0366(4) 0.82272(13)
C68 C 1.0942(4) -0.0030(4) 0.83059(15)
H70 H 1.0920 -0.0024 0.8425
C69 C 1.0510(4) -0.0416(4) 0.82206(18)
H71 H 1.0201 -0.0688 0.8279
C70 C 1.0520(4) -0.0414(4) 0.80486(19)
H72 H 1.0205 -0.0678 0.7990
C71 C 1.0974(4) -0.0039(4) 0.79562(15)
H73 H 1.0979 -0.0045 0.7837
C72 C 1.1443(4) 0.0364(4) 0.80534(13)
C73 C 1.1906(4) 0.0714(4) 0.79559(13)
H74 H 1.1875 0.0650 0.7838
C74 C 1.2815(4) 0.1427(4) 0.78900(11)
H75 H 1.2668 0.1319 0.7775
H76 H 1.3104 0.1331 0.7905
C75 C 1.3058(4) 0.2029(4) 0.79091(13)
H77 H 1.2760 0.2117 0.7908
H78 H 1.3297 0.2213 0.7811
C76 C 1.3386(4) 0.2257(4) 0.80679(11)
H79 H 1.3662 0.2135 0.8070
C77 C 1.3702(4) 0.2879(4) 0.80725(11)
N8 N 1.0812(3) 0.3068(2) 0.80653(7)
C78 C 1.0593(2) 0.2656(3) 0.81857(8)
H80 H 1.0810 0.2517 0.8231
C79 C 1.0057(3) 0.2449(3) 0.82393(9)
H81 H 0.9908 0.2168 0.8322
C80 C 0.9741(3) 0.2653(2) 0.81726(10)
C81 C 0.9960(2) 0.3065(3) 0.80522(10)
H82 H 0.9743 0.3204 0.8007
C82 C 1.0495(3) 0.3271(3) 0.79986(8)
H83 H 1.0645 0.3553 0.7916
C83 C 0.9130(5) 0.2342(5) 0.82110(17)
C84 C 1.2281(4) 0.4406(4) 0.81643(11)
H84 H 1.2506 0.4525 0.8062
H85 H 1.2512 0.4577 0.8263
H86 H 1.2002 0.4514 0.8157
C85 C 1.4188(8) 0.2410(8) 0.84400(18)
H87 H 1.4445 0.2397 0.8521
H88 H 1.4390 0.2707 0.8360
H89 H 1.3995 0.2062 0.8380
C86 C 1.5452(6) 0.5090(6) 0.77166(18)
H90 H 1.5597 0.5477 0.7690
H91 H 1.5349 0.4878 0.7612
H92 H 1.5733 0.5044 0.7775
C87 C 1.2127(4) 0.1504(4) 0.86060(13)
H93 H 1.2266 0.1760 0.8701
H94 H 1.2067 0.1147 0.8643
H95 H 1.1781 0.1466 0.8567
Yb4P Yb 1.385293(21) 0.406707(15) 0.823587(5)
Mn5P Mn 1.38574(8) 0.26615(6) 0.875948(18)
Mn6A Mn 0.86262(5) 0.10763(7) 0.825586(17)
O21P O 1.2217(3) 0.3817(2) 0.85481(6)
O22P O 1.3139(3) 0.4098(2) 0.83970(6)
O25P O 1.3155(3) 0.2588(2) 0.87162(7)
O26P O 1.2642(3) 0.2996(2) 0.85544(6)
O30P O 1.3806(3) 0.3558(2) 0.84761(7)
O33B O 1.2988(4) 0.1027(3) 0.83126(8)
O34P O 1.1533(3) 0.2848(2) 0.84874(6)
O35P O 1.4637(4) 0.4165(3) 0.81388(8)
Yb1 Yb 0.774873(17) -0.3333 0.6667
Yb2 Yb 0.620650(16) -0.401850(17) 0.679580(5)
Mn1 Mn 0.88513(5) -0.23824(5) 0.685775(15)
Mn2 Mn 0.66107(6) -0.18044(6) 0.674680(18)
Mn3 Mn 0.61675(6) -0.42378(6) 0.720796(16)
O1 O 0.9454(3) -0.1738(3) 0.67729(8)
O2 O 0.8212(2) -0.3052(2) 0.69148(6)
O3 O 0.7145(2) -0.3588(2) 0.68986(6)
O4 O 0.7068(2) -0.3753(3) 0.71771(7)
O5 O 0.5948(3) -0.1780(3) 0.67673(9)
O6 O 0.7231(2) -0.1890(2) 0.67022(7)
O7 O 0.7615(2) -0.2553(2) 0.67078(6)
O8 O 0.8334(2) -0.1987(3) 0.68662(7)
O9 O 0.6233(3) -0.4746(3) 0.73383(7)
O10 O 0.6076(2) -0.3770(2) 0.70562(7)
O11 O 0.6467(3) -0.3076(3) 0.68062(7)
O12 O 0.6329(3) -0.2453(3) 0.69389(8)
O13 O 0.7879(5) 0.0352(4) 0.61178(12)
O14 O 0.7271(6) 0.0548(4) 0.62100(10)
O15 O 0.8613(2) -0.2643(2) 0.66326(6)
O16 O 0.9387(3) -0.2779(3) 0.68851(10)
O17 O 0.5312(3) -0.4334(3) 0.67667(8)
O18 O 0.6118(2) -0.4618(2) 0.69980(7)
O19 O 0.5270(3) -0.4662(3) 0.72657(10)
N1 N 0.9057(3) -0.2135(3) 0.70971(9)
N2 N 0.6962(3) -0.1280(3) 0.69446(10)
N3 N 0.6307(4) -0.3763(3) 0.74090(10)
N4 N 0.6931(3) -0.1066(3) 0.65630(10)
C1 C 0.9827(4) -0.1279(4) 0.68521(15)
C2 C 1.0188(4) -0.0845(5) 0.67574(16)
H1 H 1.0173 -0.0873 0.6638
C3 C 1.0569(5) -0.0375(4) 0.68314(18)
H2 H 1.0803 -0.0074 0.6762
C4 C 1.0626(7) -0.0322(7) 0.6999(2)
H3 H 1.0905 0.0001 0.7051
C5 C 1.0260(6) -0.0758(6) 0.70915(18)
H4 H 1.0297 -0.0720 0.7210
C6 C 0.9836(5) -0.1256(5) 0.70323(15)
C7 C 0.9468(4) -0.1671(4) 0.71369(13)
H5 H 0.9530 -0.1602 0.7254
C8 C 0.8736(4) -0.2506(4) 0.72332(10)
H6 H 0.8816 -0.2297 0.7339
H7 H 0.8847 -0.2785 0.7248
C9 C 0.8135(4) -0.2785(4) 0.71992(11)
H8 H 0.8040 -0.2513 0.7157
H9 H 0.7934 -0.2938 0.7306
C10 C 0.7958(4) -0.3235(4) 0.70720(9)
H10 H 0.8066 -0.3499 0.7116
C11 C 0.7347(4) -0.3545(4) 0.70472(10)
C12 C 0.5819(5) -0.1550(5) 0.69004(16)
C13 C 0.5257(6) -0.1672(6) 0.68933(18)
H11 H 0.5018 -0.1889 0.6806
C14 C 0.5088(6) -0.1459(6) 0.70179(17)
H12 H 0.4725 -0.1523 0.7012
C15 C 0.5389(6) -0.1175(6) 0.71444(17)
H13 H 0.5250 -0.1045 0.7230
C16 C 0.5912(6) -0.1073(5) 0.71474(15)
H14 H 0.6137 -0.0856 0.7237
C17 C 0.6148(5) -0.1258(5) 0.70307(14)
C18 C 0.6704(5) -0.1118(5) 0.70403(13)
H15 H 0.6912 -0.0874 0.7128
C19 C 0.7537(6) -0.1088(6) 0.69802(13)
H16 H 0.7632 -0.0910 0.7092
H17 H 0.7767 -0.0814 0.6895
C20 C 0.7654(4) -0.1568(5) 0.69780(11)
H18 H 0.7995 -0.1464 0.7041
H19 H 0.7351 -0.1891 0.7033
C21 C 0.7711(4) -0.1705(4) 0.67979(10)
H20 H 0.7997 -0.1359 0.6744
C22 C 0.7918(4) -0.2101(4) 0.67915(10)
C23 C 0.6534(4) -0.4658(4) 0.74717(12)
C24 C 0.6674(5) -0.5045(5) 0.75223(12)
H21 H 0.6568 -0.5364 0.7457
C25 C 0.6969(5) -0.4956(5) 0.76689(15)
H22 H 0.7062 -0.5223 0.7701
C26 C 0.7135(5) -0.4513(6) 0.77695(15)
H23 H 0.7332 -0.4479 0.7870
C27 C 0.7017(5) -0.4122(6) 0.77264(13)
H24 H 0.7135 -0.3809 0.7796
C28 C 0.6723(4) -0.4174(5) 0.75805(12)
C29 C 0.6558(5) -0.3779(4) 0.75429(14)
H25 H 0.6642 -0.3503 0.7625
C30 C 0.6196(5) -0.3302(5) 0.73953(13)
H26 H 0.5796 -0.3450 0.7397
H27 H 0.6352 -0.3062 0.7495
C31 C 0.6427(4) -0.2971(4) 0.72403(10)
H28 H 0.6807 -0.2894 0.7225
H29 H 0.6437 -0.2618 0.7253
C32 C 0.6093(4) -0.3266(4) 0.70878(12)
H30 H 0.5710 -0.3348 0.7108
C33 C 0.6304(4) -0.2907(4) 0.69317(12)
C34 C 0.6633(5) -0.0851(4) 0.65223(12)
H31 H 0.6277 -0.1003 0.6568
C35 C 0.6818(5) -0.0408(4) 0.64141(13)
H32 H 0.6591 -0.0256 0.6391
C36 C 0.7330(6) -0.0184(4) 0.63389(13)
C37 C 0.7638(5) -0.0416(4) 0.63818(13)
H33 H 0.7992 -0.0284 0.6335
C38 C 0.7424(5) -0.0842(4) 0.64926(12)
H34 H 0.7647 -0.0992 0.6522
C39 C 0.7522(7) 0.0281(5) 0.62097(13)
C40 C 0.8902(4) -0.2454(6) 0.64914(11)
H35 H 0.9264 -0.2145 0.6518
H36 H 0.8712 -0.2333 0.6414
H37 H 0.8941 -0.2745 0.6438
C41 C 0.9841(8) -0.2602(8) 0.6806(3)
H38 H 1.0000 -0.2831 0.6834
H39 H 1.0094 -0.2224 0.6840
H40 H 0.9776 -0.2615 0.6685
C42 C 0.4952(5) -0.4212(7) 0.68404(17)
H41 H 0.4592 -0.4430 0.6788
H42 H 0.5078 -0.3823 0.6825
H43 H 0.4926 -0.4297 0.6961
C43 C 0.6332(4) -0.4965(4) 0.69902(11)
H44 H 0.6239 -0.5183 0.7094
H45 H 0.6730 -0.4748 0.6979
H46 H 0.6178 -0.5208 0.6893
C44 C 0.4943(5) -0.5211(5) 0.72505(17)
H47 H 0.4567 -0.5312 0.7279
H48 H 0.5069 -0.5396 0.7327
H49 H 0.4958 -0.5321 0.7135
Yb2J Yb 0.689167(23) -0.264817(17) 0.653753(5)
Mn2J Mn 0.50818(8) -0.48623(6) 0.658653(18)
O2J O 0.7931(3) -0.3615(2) 0.64185(6)
O3J O 0.7400(3) -0.3079(2) 0.64347(6)
O6J O 0.5788(3) -0.4777(2) 0.66311(7)
O7J O 0.6835(3) -0.4114(2) 0.66255(6)
O11J O 0.6210(4) -0.3591(3) 0.65271(7)
O15J O 0.7923(3) -0.4024(2) 0.67007(6)
O17J O 0.6313(4) -0.2333(3) 0.65666(8)
loop_
_geom_bond_atom_site_label_1
_geom_bond_atom_site_label_2
_geom_bond_site_symmetry_1
_geom_bond_site_symmetry_2
Yb1 O2 1_555 1_555
Yb2 O3 1_555 1_555
Mn1 O1 1_555 1_555
Mn2 O5 1_555 1_555
Mn3 O4 1_555 1_555
O1 C1 1_555 1_555
O2 Mn1 1_555 1_555
O3 Yb1 1_555 1_555
O4 C11 1_555 1_555
O5 C12 1_555 1_555
O6 Mn2 1_555 1_555
O7 Yb1 1_555 1_555
O8 Mn1 1_555 1_555
O9 Mn3 1_555 1_555
O10 Yb2 1_555 1_555
O11 Yb2 1_555 1_555
O12 Mn2 1_555 1_555
O13 C39 1_555 1_555
O14 C39 1_555 1_555
O15 Yb1 1_555 1_555
O16 Mn1 1_555 1_555
O17 Yb2 1_555 1_555
O18 Yb2 1_555 1_555
O19 Mn3 1_555 1_555
N1 Mn1 1_555 1_555
N2 Mn2 1_555 1_555
N3 Mn3 1_555 1_555
N4 Mn2 1_555 1_555
C1 C2 1_555 1_555
C2 H1 1_555 1_555
C3 C2 1_555 1_555
H2 C3 1_555 1_555
C4 C3 1_555 1_555
H3 C4 1_555 1_555
C5 C4 1_555 1_555
H4 C5 1_555 1_555
C6 C1 1_555 1_555
C7 N1 1_555 1_555
H5 C7 1_555 1_555
C8 N1 1_555 1_555
H6 C8 1_555 1_555
H7 C8 1_555 1_555
C9 C8 1_555 1_555
H8 C9 1_555 1_555
H9 C9 1_555 1_555
C10 O2 1_555 1_555
H10 C10 1_555 1_555
C11 O3 1_555 1_555
C12 C13 1_555 1_555
C13 H11 1_555 1_555
C14 C13 1_555 1_555
H12 C14 1_555 1_555
C15 C14 1_555 1_555
H13 C15 1_555 1_555
C16 C15 1_555 1_555
H14 C16 1_555 1_555
C17 C12 1_555 1_555
C18 N2 1_555 1_555
H15 C18 1_555 1_555
C19 N2 1_555 1_555
H16 C19 1_555 1_555
H17 C19 1_555 1_555
C20 C19 1_555 1_555
H18 C20 1_555 1_555
H19 C20 1_555 1_555
C21 O6 1_555 1_555
H20 C21 1_555 1_555
C22 O7 1_555 1_555
C23 O9 1_555 1_555
C24 C23 1_555 1_555
H21 C24 1_555 1_555
C25 C24 1_555 1_555
H22 C25 1_555 1_555
C26 C25 1_555 1_555
H23 C26 1_555 1_555
C27 C26 1_555 1_555
H24 C27 1_555 1_555
C28 C23 1_555 1_555
C29 N3 1_555 1_555
H25 C29 1_555 1_555
C30 N3 1_555 1_555
H26 C30 1_555 1_555
H27 C30 1_555 1_555
C31 C30 1_555 1_555
H28 C31 1_555 1_555
H29 C31 1_555 1_555
C32 O10 1_555 1_555
H30 C32 1_555 1_555
C33 O11 1_555 1_555
C34 N4 1_555 1_555
H31 C34 1_555 1_555
C35 C34 1_555 1_555
H32 C35 1_555 1_555
C36 C35 1_555 1_555
C37 C36 1_555 1_555
H33 C37 1_555 1_555
C38 N4 1_555 1_555
H34 C38 1_555 1_555
C39 C36 1_555 1_555
C40 O15 1_555 1_555
H35 C40 1_555 1_555
H36 C40 1_555 1_555
H37 C40 1_555 1_555
C41 O16 1_555 1_555
H38 C41 1_555 1_555
H39 C41 1_555 1_555
H40 C41 1_555 1_555
C42 O17 1_555 1_555
H41 C42 1_555 1_555
H42 C42 1_555 1_555
H43 C42 1_555 1_555
C43 O18 1_555 1_555
H44 C43 1_555 1_555
H45 C43 1_555 1_555
H46 C43 1_555 1_555
C44 O19 1_555 1_555
H47 C44 1_555 1_555
H48 C44 1_555 1_555
H49 C44 1_555 1_555
Yb3 O21 1_555 1_555
Yb4 O22 1_555 1_555
Mn4 O20 1_555 1_555
Mn5 O24 1_555 1_555
Mn6 O23 1_555 1_555
O20 C45 1_555 1_555
O21 Mn4 1_555 1_555
O22 Yb3 1_555 1_555
O23 C55 1_555 1_555
O24 C56 1_555 1_555
O25 Mn5 1_555 1_555
O26 Yb3 1_555 1_555
O27 Mn4 1_555 1_555
O28 Mn6 1_555 1_555
O29 Yb4 1_555 1_555
O30 Yb4 1_555 1_555
O31 Mn5 1_555 1_555
O32 C83 1_555 1_555
O33 C83 1_555 1_555
O34 Yb3 1_555 1_555
O35 Yb4 1_555 1_555
O36 Mn5 1_555 1_555
O37 Yb4 1_555 1_555
N5 Mn4 1_555 1_555
N6 Mn5 1_555 1_555
N7 Mn6 1_555 1_555
C45 C46 1_555 1_555
C46 H50 1_555 1_555
C47 C46 1_555 1_555
H51 C47 1_555 1_555
C48 C47 1_555 1_555
H52 C48 1_555 1_555
C49 C48 1_555 1_555
H53 C49 1_555 1_555
C50 C45 1_555 1_555
C51 N5 1_555 1_555
H54 C51 1_555 1_555
C52 N5 1_555 1_555
H55 C52 1_555 1_555
H56 C52 1_555 1_555
C53 C52 1_555 1_555
H57 C53 1_555 1_555
H58 C53 1_555 1_555
C54 O21 1_555 1_555
H59 C54 1_555 1_555
C55 O22 1_555 1_555
C56 C57 1_555 1_555
C57 H60 1_555 1_555
C58 C57 1_555 1_555
H61 C58 1_555 1_555
C59 C58 1_555 1_555
H62 C59 1_555 1_555
C60 C59 1_555 1_555
H63 C60 1_555 1_555
C61 C56 1_555 1_555
C62 N6 1_555 1_555
H64 C62 1_555 1_555
C63 N6 1_555 1_555
H65 C63 1_555 1_555
H66 C63 1_555 1_555
C64 C63 1_555 1_555
H67 C64 1_555 1_555
H68 C64 1_555 1_555
C65 O25 1_555 1_555
H69 C65 1_555 1_555
C66 O26 1_555 1_555
C67 O28 1_555 1_555
C68 C67 1_555 1_555
H70 C68 1_555 1_555
C69 C68 1_555 1_555
H71 C69 1_555 1_555
C70 C69 1_555 1_555
H72 C70 1_555 1_555
C71 C70 1_555 1_555
H73 C71 1_555 1_555
C72 C67 1_555 1_555
C73 N7 1_555 1_555
H74 C73 1_555 1_555
C74 N7 1_555 1_555
H75 C74 1_555 1_555
H76 C74 1_555 1_555
C75 C74 1_555 1_555
H77 C75 1_555 1_555
H78 C75 1_555 1_555
C76 O29 1_555 1_555
H79 C76 1_555 1_555
C77 O30 1_555 1_555
N8 Mn4 1_555 1_555
C78 N8 1_555 1_555
H80 C78 1_555 1_555
C79 C78 1_555 1_555
H81 C79 1_555 1_555
C80 C79 1_555 1_555
C81 C80 1_555 1_555
H82 C81 1_555 1_555
C82 N8 1_555 1_555
H83 C82 1_555 1_555
C83 C80 1_555 1_555
C84 O34 1_555 1_555
H84 C84 1_555 1_555
H85 C84 1_555 1_555
H86 C84 1_555 1_555
C85 O35 1_555 1_555
H87 C85 1_555 1_555
H88 C85 1_555 1_555
H89 C85 1_555 1_555
C86 O36 1_555 1_555
H90 C86 1_555 1_555
H91 C86 1_555 1_555
H92 C86 1_555 1_555
C87 O37 1_555 1_555
H93 C87 1_555 1_555
H94 C87 1_555 1_555
H95 C87 1_555 1_555
Yb2J O6 1_555 1_555
Mn2J O17 1_555 1_555
O2J Yb1 1_555 1_555
O3J Yb1 1_555 1_555
O6J Yb2 1_555 1_555
O7J Yb1 1_555 1_555
O11J Yb2 1_555 1_555
O15J Yb1 1_555 1_555
O17J Mn2 1_555 1_555
Yb4P O25 1_555 1_555
Mn5P O35 1_555 1_555
Mn6A O33 1_555 1_555
O21P Yb3 1_555 1_555
O22P Yb3 1_555 1_555
O25P Yb4 1_555 1_555
O26P Yb3 1_555 1_555
O30P Yb4 1_555 1_555
O33B Mn6 1_555 1_555
O34P Yb3 1_555 1_555
O35P Mn5 1_555 1_555
Yb2 O7J 1_555 1_555
Mn1 O15 1_555 1_555
Mn3 O10 1_555 1_555
Mn3 O18 1_555 1_555
O7 Yb2J 1_555 1_555
O8 C22 1_555 1_555
O11 Yb2J 1_555 1_555
O12 C33 1_555 1_555
C5 C6 1_555 1_555
C6 C7 1_555 1_555
C9 C10 1_555 1_555
C10 C11 1_555 1_555
C16 C17 1_555 1_555
C17 C18 1_555 1_555
C20 C21 1_555 1_555
C21 C22 1_555 1_555
C27 C28 1_555 1_555
C28 C29 1_555 1_555
C31 C32 1_555 1_555
C32 C33 1_555 1_555
C37 C38 1_555 1_555
Yb4 O26P 1_555 1_555
Mn4 O34 1_555 1_555
Mn6 O29 1_555 1_555
Mn6 O37 1_555 1_555
O26 Yb4P 1_555 1_555
O27 C66 1_555 1_555
O30 Yb4P 1_555 1_555
O31 C77 1_555 1_555
C49 C50 1_555 1_555
C50 C51 1_555 1_555
C53 C54 1_555 1_555
C54 C55 1_555 1_555
C60 C61 1_555 1_555
C61 C62 1_555 1_555
C64 C65 1_555 1_555
C65 C66 1_555 1_555
C71 C72 1_555 1_555
C72 C73 1_555 1_555
C75 C76 1_555 1_555
C76 C77 1_555 1_555
C81 C82 1_555 1_555
Yb2J O3J 1_555 1_555
Yb2J O11J 1_555 1_555
Yb2J O17J 1_555 1_555
Mn2J O6J 1_555 1_555
Yb4P O22P 1_555 1_555
Yb4P O30P 1_555 1_555
Yb4P O35P 1_555 1_555
Mn5P O25P 1_555 1_555

#END
