
#######################################################################
#
#                 Cambridge Crystallographic Data Centre
#                                CCDC 
#
#######################################################################
#
# If this CIF has been generated from an entry in the Cambridge 
# Structural Database, then it will include bibliographic, chemical, 
# crystal, experimental, refinement or atomic coordinate data resulting 
# from the CCDC's data processing and validation procedures.
#
#######################################################################

data_WEHJIE
_symmetry_cell_setting           orthorhombic
_symmetry_space_group_name_H-M   'P n a 21'
_symmetry_Int_Tables_number      33
_space_group_name_Hall           'P 2c -2n'
loop_
_symmetry_equiv_pos_site_id
_symmetry_equiv_pos_as_xyz
1 x,y,z
2 -x,-y,1/2+z
3 1/2-x,1/2+y,1/2+z
4 1/2+x,1/2-y,z
_cell_length_a                   30.4640(13)
_cell_length_b                   31.0040(13)
_cell_length_c                   18.9020(8)
_cell_angle_alpha                90
_cell_angle_beta                 90
_cell_angle_gamma                90
_cell_volume                     17853
loop_
_atom_site_label
_atom_site_type_symbol
_atom_site_fract_x
_atom_site_fract_y
_atom_site_fract_z
Zn1 Zn 0.96885(3) 0.47720(3) 0.22828(4)
Zn2 Zn 1.05412(2) 0.49339(2) 0.15056(4)
Zn3 Zn 0.99984(3) 0.03979(3) 0.75521(5)
Zn4 Zn 1.20067(3) 0.26288(3) 0.65261(5)
Zn5 Zn 0.99612(3) -0.04468(2) 0.67488(4)
Zn6 Zn 1.20577(3) 0.35706(3) 0.74682(5)
Zn7 Zn 1.29144(4) 0.71500(3) 0.69932(6)
Zn8 Zn 1.25594(3) 0.81955(3) 0.67130(5)
Zn9 Zn 1.29430(3) 0.32153(4) 0.66641(6)
C1 C 1.0078(2) 0.0382(3) 0.5976(4)
C2 C 1.4172(3) 0.4886(3) 0.2351(4)
C3 C 1.0126(3) 0.0439(3) 0.3300(4)
C4 C 1.0070(2) 0.0633(2) 0.5302(4)
C5 C 1.0027(2) 0.1073(2) 0.5329(4)
H1 H 1.0005 0.1214 0.5762
C6 C 1.0015(2) 0.1302(2) 0.4701(4)
C7 C 1.0029(2) 0.1104(3) 0.4029(4)
H2 H 0.9987 0.1263 0.3617
C8 C 1.0108(2) 0.0663(2) 0.4005(4)
C9 C 1.0106(2) 0.0416(3) 0.4645(4)
H3 H 1.0127 0.0117 0.4630
C10 C 0.9923(3) 0.2012(2) 0.4127(4)
H4 H 0.9723 0.1898 0.3775
H5 H 1.0216 0.2018 0.3927
C11 C 0.9780(2) 0.2474(2) 0.4356(4)
C12 C 0.9801(3) 0.2752(3) 0.3712(4)
H6 H 0.9575 0.2672 0.3376
H7 H 0.9765 0.3053 0.3836
C13 C 1.0108(3) 0.2639(2) 0.4939(4)
H8 H 1.0113 0.2443 0.5339
H9 H 1.0403 0.2662 0.4749
C14 C 1.0194(3) 0.3273(3) 0.5650(4)
C15 C 1.0024(3) 0.3677(3) 0.5857(4)
H10 H 0.9754 0.3769 0.5683
C16 C 1.0261(3) 0.3943(2) 0.6326(4)
C17 C 1.0652(2) 0.3793(2) 0.6591(4)
H11 H 1.0806 0.3961 0.6914
C18 C 1.0822(2) 0.3393(2) 0.6386(4)
C19 C 1.0605(3) 0.3133(3) 0.5925(4)
H12 H 1.0723 0.2868 0.5791
C20 C 1.1248(2) 0.3247(2) 0.6659(4)
C21 C 1.0438(3) 0.2968(3) 0.2929(5)
C22 C 1.0814(3) 0.2807(3) 0.2657(5)
H13 H 1.0904 0.2527 0.2758
C23 C 1.1050(2) 0.3063(2) 0.2240(4)
C24 C 1.0904(3) 0.3467(3) 0.2078(4)
H14 H 1.1072 0.3643 0.1786
C25 C 1.0512(2) 0.3618(2) 0.2338(4)
C26 C 1.0263(3) 0.3355(3) 0.2751(4)
H15 H 0.9986 0.3437 0.2905
C27 C 1.1497(3) 0.2915(3) 0.1982(5)
C28 C 1.0348(3) 0.4071(3) 0.2148(4)
C29 C 1.0271(3) 0.5316(3) 0.5714(5)
C30 C 1.0056(3) 0.4362(2) 0.6552(4)
C31 C 1.0443(3) 0.5086(2) 0.3091(4)
C32 C 1.0637(2) 0.5214(2) 0.3795(4)
C33 C 1.0367(3) 0.5220(2) 0.4388(4)
H16 H 1.0072 0.5149 0.4351
C34 C 1.0552(3) 0.5339(2) 0.5057(4)
C35 C 1.0994(3) 0.5463(3) 0.5096(4)
H17 H 1.1112 0.5555 0.5524
C36 C 1.1254(2) 0.5448(2) 0.4500(4)
C37 C 1.1089(2) 0.5327(2) 0.3863(4)
H18 H 1.1271 0.5319 0.3469
C38 C 1.2021(2) 0.5476(2) 0.4098(4)
H19 H 1.1990 0.5660 0.3686
H20 H 1.1992 0.5178 0.3948
C39 C 1.2462(2) 0.5546(2) 0.4442(4)
C40 C 1.2839(2) 0.5445(2) 0.3874(4)
H21 H 1.2839 0.5661 0.3502
H22 H 1.3125 0.5444 0.4100
C41 C 1.2511(2) 0.5243(2) 0.5064(4)
H23 H 1.2284 0.5301 0.5410
H24 H 1.2481 0.4947 0.4905
C42 C 1.3066(3) 0.5045(2) 0.5957(4)
C43 C 1.3481(3) 0.5097(3) 0.6205(4)
H25 H 1.3651 0.5316 0.6010
C44 C 1.3668(2) 0.4845(2) 0.6730(4)
C45 C 1.3415(2) 0.4523(2) 0.7021(4)
H26 H 1.3535 0.4339 0.7359
C46 C 1.2964(2) 0.4472(2) 0.6801(4)
C47 C 1.2790(3) 0.4743(2) 0.6281(4)
H27 H 1.2496 0.4723 0.6152
C48 C 1.4126(3) 0.4900(3) 0.6971(4)
C49 C 1.2687(3) 0.4108(3) 0.7085(4)
C50 C 0.7721(3) 0.2476(3) 0.5626(5)
C51 C 0.8383(3) 0.2408(3) 0.4874(5)
H28 H 0.8543 0.2394 0.5291
C52 C 0.7940(3) 0.2469(2) 0.4902(4)
C53 C 0.7680(3) 0.2494(3) 0.4286(4)
H29 H 0.7383 0.2561 0.4312
C54 C 0.7887(3) 0.2416(3) 0.3623(5)
C55 C 0.7629(3) 0.2399(3) 0.2949(4)
C56 C 0.8357(3) 0.2344(3) 0.3586(5)
H30 H 0.8493 0.2284 0.3156
C57 C 0.8602(3) 0.2365(3) 0.4210(5)
C58 C 0.9332(2) 0.2486(2) 0.4664(4)
H31 H 0.9245 0.2781 0.4763
H32 H 0.9320 0.2322 0.5100
C59 C 1.3022(3) 0.4864(2) 0.3100(4)
C60 C 1.3446(2) 0.4998(2) 0.2987(4)
H33 H 1.3564 0.5231 0.3231
C61 C 1.3702(2) 0.4760(2) 0.2469(4)
C62 C 1.3539(3) 0.4396(3) 0.2147(5)
H34 H 1.3718 0.4236 0.1845
C63 C 1.3093(2) 0.4259(2) 0.2274(4)
C64 C 1.2860(3) 0.4493(3) 0.2774(4)
H35 H 1.2581 0.4398 0.2899
C65 C 1.2923(3) 0.3878(3) 0.1938(5)
C66 C 1.2546(3) 0.7567(3) 0.5682(5)
C67 C 1.2613(2) 0.7621(2) 0.4358(4)
H36 H 1.2650 0.7917 0.4403
C68 C 1.2613(3) 0.7433(3) 0.3702(4)
C69 C 1.2712(3) 0.7693(3) 0.3065(5)
C70 C 1.2588(2) 0.6993(2) 0.3638(4)
H37 H 1.2609 0.6863 0.3195
C71 C 1.2529(2) 0.6737(2) 0.4254(4)
C72 C 1.2505(2) 0.6919(2) 0.4912(4)
H38 H 1.2456 0.6752 0.5313
C73 C 1.2505(2) 0.6003(2) 0.4709(4)
H39 H 1.2268 0.6067 0.5035
H40 H 1.2782 0.6037 0.4958
C74 C 1.1328(8) 0.4340(8) 0.8096(14)
C75 C 1.1447(7) 0.4034(9) 0.8651(10)
C76 C 1.1479(9) 0.4208(11) 1.0432(11)
C77 C 1.1546(13) 0.3848(9) 0.9896(15)
C78 C 1.0559(7) 0.4027(10) 0.8810(13)
C79 C 1.3888(4) 0.3612(4) 0.5905(6)
H41 H 1.4123 0.3729 0.5628
H42 H 1.3930 0.3307 0.5960
H43 H 1.3886 0.3747 0.6363
C80 C 1.3449(4) 0.3698(4) 0.5532(6)
C81 C 1.0842(5) 0.4142(8) 0.9438(11)
C82 C 1.2954(4) 0.4050(4) 0.4677(6)
H44 H 1.2736 0.4031 0.5050
H45 H 1.2954 0.4343 0.4497
C83 C 1.2845(5) 0.3755(5) 0.4118(9)
H46 H 1.2561 0.3825 0.3931
H47 H 1.2841 0.3466 0.4300
H48 H 1.3061 0.3776 0.3749
C84 C 1.2327(7) 0.5062(6) 0.0920(11)
H49 H 1.2429 0.4771 0.1015
H50 H 1.2455 0.5159 0.0478
C85 C 1.1512(4) 0.4940(4) 0.1281(7)
C86 C 1.1610(4) 0.4649(4) 0.1884(7)
H51 H 1.1922 0.4632 0.1949
H52 H 1.1497 0.4366 0.1785
H53 H 1.1476 0.4760 0.2306
C87 C 1.2556(2) 0.7366(3) 0.4955(4)
C88 C 0.9571(10) -0.1183(9) 0.6184(16)
C89 C 0.9285(6) -0.1334(5) 0.6795(10)
H54 H 0.9432 -0.1275 0.7235
H55 H 0.9010 -0.1183 0.6784
H56 H 0.9233 -0.1638 0.6754
C90 C 0.9517(5) -0.1044(6) 0.4863(11)
H57 H 0.9516 -0.1259 0.4491
H58 H 0.9815 -0.0942 0.4936
C91 C 0.9213(7) -0.0682(6) 0.4696(14)
H59 H 0.9313 -0.0535 0.4278
H60 H 0.8923 -0.0793 0.4617
H61 H 0.9207 -0.0483 0.5085
C92 C 0.8994(7) -0.1558(6) 0.5289(15)
H62 H 0.8926 -0.1503 0.4796
H63 H 0.8724 -0.1553 0.5560
C93 C 0.9225(11) -0.1986(5) 0.537(2)
H64 H 0.9035 -0.2214 0.5212
H65 H 0.9489 -0.1986 0.5095
H66 H 0.9297 -0.2031 0.5861
C94 C 1.1760(5) 0.5330(5) 0.0215(7)
H67 H 1.1516 0.5211 -0.0049
H68 H 1.2019 0.5321 -0.0082
C95 C 1.3827(4) 0.4087(4) 0.4437(7)
H69 H 1.4095 0.3924 0.4513
H70 H 1.3746 0.4081 0.3941
C96 C 1.3845(6) 0.4472(6) 0.4694(10)
H71 H 1.4081 0.4627 0.4476
H72 H 1.3893 0.4457 0.5195
H73 H 1.3573 0.4618 0.4602
C97 C 1.2454(5) 0.5357(6) 0.1511(11)
H74 H 1.2763 0.5328 0.1604
H75 H 1.2292 0.5283 0.1928
H76 H 1.2391 0.5650 0.1380
C98 C 1.1660(9) 0.5796(6) 0.0431(15)
H77 H 1.1779 0.5989 0.0085
H78 H 1.1790 0.5854 0.0884
H79 H 1.1348 0.5835 0.0461
N1 N 0.9313(4) -0.1225(5) 0.5566(8)
N2 N 1.1299(5) 0.3992(8) 0.9242(8)
N3 N 1.3415(3) 0.3939(3) 0.4982(5)
N4 N 1.1836(5) 0.5072(4) 0.0879(7)
O1 O 1.00567(18) -0.00264(18) 0.5907(3)
O2 O 1.00871(16) 0.05899(16) 0.6535(3)
O3 O 0.9891(3) -0.0984(3) 0.6192(4)
O4 O 1.01092(17) 0.06711(17) 0.2770(3)
O5 O 1.0026(2) 0.0965(2) 0.8051(4)
O6 O 1.01273(17) 0.00175(17) 0.3330(3)
O7 O 1.3016(2) 0.6456(2) 0.6797(4)
O8 O 1.4385(2) 0.46181(19) 0.1954(3)
O9 O 1.11227(18) 0.50136(17) 0.1074(3)
O10 O 1.43333(18) 0.52117(17) 0.2638(3)
O11 O 0.91112(19) 0.46472(19) 0.2743(3)
O12 O 1.14078(16) 0.28905(16) 0.6450(3)
O13 O 1.3115(2) 0.3554(2) 0.5813(4)
O14 O 1.14374(18) 0.34806(18) 0.7125(3)
O15 O 1.3405(2) 0.3040(2) 0.7317(4)
O16 O 1.28783(19) 0.38017(19) 0.7370(3)
O17 O 1.1687(2) 0.1992(2) 0.6549(4)
O18 O 1.2288(2) 0.41485(18) 0.7077(3)
O19 O 1.1797(3) 0.3881(2) 0.8411(4)
O20 O 0.7949(2) 0.23989(19) 0.6150(3)
O21 O 0.7316(2) 0.25284(18) 0.5641(3)
O22 O 1.43270(18) 0.46132(17) 0.7288(3)
O23 O 1.43165(18) 0.52560(18) 0.6735(3)
O24 O 1.25405(18) 0.73152(19) 0.6196(3)
O25 O 1.25232(17) 0.79768(17) 0.5724(3)
O26 O 1.27752(18) 0.74838(18) 0.2484(3)
O27 O 1.27521(18) 0.81020(18) 0.3115(3)
O28 O 1.3156(2) 0.3619(2) 0.1587(4)
O29 O 1.25080(19) 0.38011(18) 0.1990(3)
O30 O 1.1553(2) 0.2479(2) 0.1947(4)
O31 O 1.18004(19) 0.31773(19) 0.1859(3)
O32 O 0.99884(16) 0.41861(15) 0.2418(3)
O33 O 1.05996(16) 0.42901(16) 0.1758(3)
O34 O 1.00395(18) 0.49959(17) 0.3106(3)
O35 O 1.06921(16) 0.50807(15) 0.2561(3)
O36 O 1.04763(18) 0.54009(17) 0.6290(3)
O37 O 0.98683(17) 0.52206(16) 0.5648(3)
O38 O 1.03392(19) 0.46060(19) 0.6897(3)
O39 O 0.96841(17) 0.44532(16) 0.6371(3)
O40 O 0.90400(18) 0.22935(18) 0.4125(3)
O41 O 1.29397(18) 0.53049(18) 0.5383(3)
O42 O 1.27408(18) 0.50377(17) 0.3598(3)
O43 O 1.16842(17) 0.55796(16) 0.4619(3)
O44 O 1.24883(17) 0.62909(17) 0.4118(3)
O45 O 1.0242(2) 0.2674(2) 0.3416(4)
O46 O 0.99469(18) 0.30608(18) 0.5153(3)
O47 O 0.99132(16) 0.17421(16) 0.4787(3)
O48 O 0.77292(17) 0.21183(17) 0.2496(3)
O49 O 0.7346(2) 0.2677(2) 0.2865(4)
O50 O 1.22979(16) 0.32517(15) 0.6563(3)
Zn1A Zn 1.03115(3) 0.52280(3) 0.72828(4)
Zn2A Zn 0.94588(2) 0.50661(2) 0.65056(4)
Zn3A Zn 1.00016(3) -0.03979(3) 0.25521(5)
Zn3B Zn 1.50016(3) 0.53979(3) 0.25521(5)
Zn3C Zn 1.49984(3) 0.46021(3) 0.75521(5)
Zn4C Zn 0.70067(3) 0.23712(3) 0.65261(5)
Zn4B Zn 1.29933(3) 0.76288(3) 0.15261(5)
Zn5A Zn 1.00388(3) 0.04468(2) 0.17488(4)
Zn5B Zn 1.50388(3) 0.45532(2) 0.17488(4)
Zn5C Zn 1.49612(3) 0.54468(2) 0.67488(4)
Zn6B Zn 1.29423(3) 0.85706(3) 0.24682(5)
Zn7B Zn 1.20856(4) 0.21500(3) 0.19932(6)
Zn7A Zn 0.70856(4) 0.28500(3) 0.19932(6)
Zn8B Zn 1.24406(3) 0.31955(3) 0.17130(5)
Zn8A Zn 0.74406(3) 0.18045(3) 0.17130(5)
Zn9C Zn 0.79430(3) 0.17847(4) 0.66641(6)
O4A O 0.98908(17) -0.06711(17) 0.7770(3)
O6A O 0.98727(17) -0.00175(17) 0.8330(3)
O8B O 1.0615(2) -0.03819(19) 0.6954(3)
O10B O 1.06667(18) 0.02117(17) 0.7638(3)
O20C O 1.2949(2) 0.26011(19) 0.6150(3)
O21C O 1.2316(2) 0.24716(18) 0.5641(3)
O22C O 0.93270(18) 0.03868(17) 0.7288(3)
O23C O 0.93165(18) -0.02560(18) 0.6735(3)
O26B O 1.22248(18) 0.24838(18) 0.7484(3)
O27B O 1.22479(18) 0.31020(18) 0.8115(3)
O29B O 1.24920(19) 0.88011(18) 0.6990(3)
O30B O 1.3447(2) 0.7479(2) 0.6947(4)
O31B O 1.31996(19) 0.81773(19) 0.6859(3)
O36A O 0.95237(18) 0.45991(17) 0.1290(3)
O37A O 1.01317(17) 0.47794(16) 0.0648(3)
O38A O 0.96608(19) 0.53940(19) 0.1897(3)
O39A O 1.03159(17) 0.55468(16) 0.1371(3)
O48A O 1.22708(17) 0.78817(17) 0.7496(3)
O49A O 1.2654(2) 0.7323(2) 0.7865(4)
loop_
_geom_bond_atom_site_label_1
_geom_bond_atom_site_label_2
_geom_bond_site_symmetry_1
_geom_bond_site_symmetry_2
Zn1 O11 1_555 1_555
Zn2 O9 1_555 1_555
Zn3 O2 1_555 1_555
Zn4 O12 1_555 1_555
Zn5 O1 1_555 1_555
Zn6 O14 1_555 1_555
Zn7 O7 1_555 1_555
Zn8 O25 1_555 1_555
Zn9 O13 1_555 1_555
C1 C4 1_555 1_555
C2 C61 1_555 1_555
C3 C8 1_555 1_555
C4 C5 1_555 1_555
C5 H1 1_555 1_555
C6 C5 1_555 1_555
C7 C6 1_555 1_555
H2 C7 1_555 1_555
C8 C7 1_555 1_555
C9 C4 1_555 1_555
H3 C9 1_555 1_555
C10 H4 1_555 1_555
H5 C10 1_555 1_555
C11 C10 1_555 1_555
C12 C11 1_555 1_555
H6 C12 1_555 1_555
H7 C12 1_555 1_555
C13 C11 1_555 1_555
H8 C13 1_555 1_555
H9 C13 1_555 1_555
C14 C15 1_555 1_555
C15 H10 1_555 1_555
C16 C15 1_555 1_555
C17 C16 1_555 1_555
H11 C17 1_555 1_555
C18 C17 1_555 1_555
C19 C14 1_555 1_555
H12 C19 1_555 1_555
C20 C18 1_555 1_555
C21 C22 1_555 1_555
C22 H13 1_555 1_555
C23 C22 1_555 1_555
C24 C23 1_555 1_555
H14 C24 1_555 1_555
C25 C24 1_555 1_555
C26 C21 1_555 1_555
H15 C26 1_555 1_555
C27 C23 1_555 1_555
C28 C25 1_555 1_555
C29 C34 1_555 1_555
C30 C16 1_555 1_555
C31 C32 1_555 1_555
C32 C33 1_555 1_555
C33 H16 1_555 1_555
C34 C33 1_555 1_555
C35 C34 1_555 1_555
H17 C35 1_555 1_555
C36 C35 1_555 1_555
C37 C32 1_555 1_555
H18 C37 1_555 1_555
C38 H19 1_555 1_555
H20 C38 1_555 1_555
C39 C38 1_555 1_555
C40 C39 1_555 1_555
H21 C40 1_555 1_555
H22 C40 1_555 1_555
C41 C39 1_555 1_555
H23 C41 1_555 1_555
H24 C41 1_555 1_555
C42 C43 1_555 1_555
C43 H25 1_555 1_555
C44 C43 1_555 1_555
C45 C44 1_555 1_555
H26 C45 1_555 1_555
C46 C45 1_555 1_555
C47 C42 1_555 1_555
H27 C47 1_555 1_555
C48 C44 1_555 1_555
C49 C46 1_555 1_555
C50 C52 1_555 1_555
C51 H28 1_555 1_555
C52 C51 1_555 1_555
C53 C52 1_555 1_555
H29 C53 1_555 1_555
C54 C53 1_555 1_555
C55 C54 1_555 1_555
C56 C54 1_555 1_555
H30 C56 1_555 1_555
C57 C51 1_555 1_555
C58 C11 1_555 1_555
H31 C58 1_555 1_555
H32 C58 1_555 1_555
C59 C60 1_555 1_555
C60 H33 1_555 1_555
C61 C60 1_555 1_555
C62 C61 1_555 1_555
H34 C62 1_555 1_555
C63 C62 1_555 1_555
C64 C59 1_555 1_555
H35 C64 1_555 1_555
C65 C63 1_555 1_555
C66 C87 1_555 1_555
C67 H36 1_555 1_555
C68 C67 1_555 1_555
C69 C68 1_555 1_555
C70 C68 1_555 1_555
H37 C70 1_555 1_555
C71 C70 1_555 1_555
C72 C71 1_555 1_555
H38 C72 1_555 1_555
C73 C39 1_555 1_555
H39 C73 1_555 1_555
H40 C73 1_555 1_555
C74 C75 1_555 1_555
C75 N2 1_555 1_555
C76 C77 1_555 1_555
C77 N2 1_555 1_555
C78 C81 1_555 1_555
C79 H41 1_555 1_555
H42 C79 1_555 1_555
H43 C79 1_555 1_555
C80 C79 1_555 1_555
C81 N2 1_555 1_555
C82 H44 1_555 1_555
H45 C82 1_555 1_555
C83 C82 1_555 1_555
H46 C83 1_555 1_555
H47 C83 1_555 1_555
H48 C83 1_555 1_555
C84 H49 1_555 1_555
H50 C84 1_555 1_555
C85 C86 1_555 1_555
C86 H51 1_555 1_555
H52 C86 1_555 1_555
H53 C86 1_555 1_555
C87 C67 1_555 1_555
C88 C89 1_555 1_555
C89 H54 1_555 1_555
H55 C89 1_555 1_555
H56 C89 1_555 1_555
C90 H57 1_555 1_555
H58 C90 1_555 1_555
C91 C90 1_555 1_555
H59 C91 1_555 1_555
H60 C91 1_555 1_555
H61 C91 1_555 1_555
C92 H62 1_555 1_555
H63 C92 1_555 1_555
C93 C92 1_555 1_555
H64 C93 1_555 1_555
H65 C93 1_555 1_555
H66 C93 1_555 1_555
C94 H67 1_555 1_555
H68 C94 1_555 1_555
C95 H69 1_555 1_555
H70 C95 1_555 1_555
C96 C95 1_555 1_555
H71 C96 1_555 1_555
H72 C96 1_555 1_555
H73 C96 1_555 1_555
C97 C84 1_555 1_555
H74 C97 1_555 1_555
H75 C97 1_555 1_555
H76 C97 1_555 1_555
C98 C94 1_555 1_555
H77 C98 1_555 1_555
H78 C98 1_555 1_555
H79 C98 1_555 1_555
N1 C88 1_555 1_555
N3 C80 1_555 1_555
N4 C84 1_555 1_555
O1 C1 1_555 1_555
O2 C1 1_555 1_555
O3 Zn5 1_555 1_555
O4 C3 1_555 1_555
O5 Zn3 1_555 1_555
O6 C3 1_555 1_555
O8 C2 1_555 1_555
O9 C85 1_555 1_555
O10 C2 1_555 1_555
O12 C20 1_555 1_555
O13 C80 1_555 1_555
O14 C20 1_555 1_555
O15 Zn9 1_555 1_555
O16 Zn9 1_555 1_555
O17 Zn4 1_555 1_555
O18 Zn6 1_555 1_555
O19 Zn6 1_555 1_555
O20 C50 1_555 1_555
O21 C50 1_555 1_555
O22 C48 1_555 1_555
O23 C48 1_555 1_555
O24 Zn7 1_555 1_555
O25 C66 1_555 1_555
O26 C69 1_555 1_555
O27 C69 1_555 1_555
O28 C65 1_555 1_555
O29 C65 1_555 1_555
O30 C27 1_555 1_555
O31 C27 1_555 1_555
O32 Zn1 1_555 1_555
O33 Zn2 1_555 1_555
O34 Zn1 1_555 1_555
O35 Zn2 1_555 1_555
O36 C29 1_555 1_555
O37 C29 1_555 1_555
O38 C30 1_555 1_555
O39 C30 1_555 1_555
O40 C57 1_555 1_555
O41 C41 1_555 1_555
O42 C40 1_555 1_555
O43 C36 1_555 1_555
O44 C71 1_555 1_555
O45 C12 1_555 1_555
O46 C13 1_555 1_555
O47 C6 1_555 1_555
O48 C55 1_555 1_555
O49 C55 1_555 1_555
O50 Zn4 1_555 1_555
Zn1A O36 1_555 1_555
Zn2A O37 1_555 1_555
Zn3A O6 1_555 1_555
Zn3B O10 1_555 1_555
Zn3C O22 1_555 1_555
Zn4C O21 1_555 1_555
Zn4B O26 1_555 1_555
Zn5A O4 1_555 1_555
Zn5B O8 1_555 1_555
Zn5C O23 1_555 1_555
Zn6B O27 1_555 1_555
Zn7B O30 1_555 1_555
Zn7A O49 1_555 1_555
Zn8B O29 1_555 1_555
Zn8A O48 1_555 1_555
Zn9C O20 1_555 1_555
O4A Zn5 1_555 1_555
O6A Zn3 1_555 1_555
O8B Zn5 1_555 1_555
O10B Zn3 1_555 1_555
O20C Zn9 1_555 1_555
O21C Zn4 1_555 1_555
O22C Zn3 1_555 1_555
O23C Zn5 1_555 1_555
O26B Zn4 1_555 1_555
O27B Zn6 1_555 1_555
O29B Zn8 1_555 1_555
O30B Zn7 1_555 1_555
O31B Zn8 1_555 1_555
O36A Zn1 1_555 1_555
O37A Zn2 1_555 1_555
O38A Zn1 1_555 1_555
O39A Zn2 1_555 1_555
O48A Zn8 1_555 1_555
O49A Zn7 1_555 1_555
Zn6 O50 1_555 1_555
Zn9 O50 1_555 1_555
C8 C9 1_555 1_555
C10 O47 1_555 1_555
C14 O46 1_555 1_555
C18 C19 1_555 1_555
C21 O45 1_555 1_555
C25 C26 1_555 1_555
C28 O32 1_555 1_555
C28 O33 1_555 1_555
C31 O34 1_555 1_555
C31 O35 1_555 1_555
C36 C37 1_555 1_555
C38 O43 1_555 1_555
C42 O41 1_555 1_555
C46 C47 1_555 1_555
C49 O16 1_555 1_555
C49 O18 1_555 1_555
C56 C57 1_555 1_555
C58 O40 1_555 1_555
C59 O42 1_555 1_555
C63 C64 1_555 1_555
C66 O24 1_555 1_555
C72 C87 1_555 1_555
C73 O44 1_555 1_555
C75 O19 1_555 1_555
C82 N3 1_555 1_555
C85 N4 1_555 1_555
C88 O3 1_555 1_555
C90 N1 1_555 1_555
C92 N1 1_555 1_555
C94 N4 1_555 1_555
C95 N3 1_555 1_555
O31 Zn8B 1_555 1_555
O38 Zn1A 1_555 1_555
O39 Zn2A 1_555 1_555

#END
