
#######################################################################
#
#                 Cambridge Crystallographic Data Centre
#                                CCDC 
#
#######################################################################
#
# If this CIF has been generated from an entry in the Cambridge 
# Structural Database, then it will include bibliographic, chemical, 
# crystal, experimental, refinement or atomic coordinate data resulting 
# from the CCDC's data processing and validation procedures.
#
#######################################################################

data_WEHJAV05
_symmetry_cell_setting           orthorhombic
_symmetry_space_group_name_H-M   'P n m a'
_symmetry_Int_Tables_number      62
_space_group_name_Hall           '-P 2ac 2n'
loop_
_symmetry_equiv_pos_site_id
_symmetry_equiv_pos_as_xyz
1 x,y,z
2 1/2-x,-y,1/2+z
3 1/2+x,1/2-y,1/2-z
4 -x,1/2+y,-z
5 -x,-y,-z
6 1/2+x,y,1/2-z
7 1/2-x,1/2+y,1/2+z
8 x,1/2-y,z
_cell_length_a                   12.9262(8)
_cell_length_b                   29.8480(18)
_cell_length_c                   8.4661(5)
_cell_angle_alpha                90
_cell_angle_beta                 90
_cell_angle_gamma                90
_cell_volume                     3266.4
loop_
_atom_site_label
_atom_site_type_symbol
_atom_site_fract_x
_atom_site_fract_y
_atom_site_fract_z
C13 C 0.8515(4) 0.2500 0.6016(7)
C14 C 0.9793(4) 0.2500 0.7899(7)
N1 N 0.7710(4) 0.2500 0.5436(6)
N2 N 0.9467(4) 0.2500 0.6456(7)
N3 N 1.0236(4) 0.2500 0.9082(6)
Cu1 Cu 0.63482(5) 0.2500 0.43627(9)
Cl1 Cl 0.64583(10) 0.2500 0.17268(13)
N3B N 0.5236(4) 0.2500 0.5918(6)
Cu1B Cu 1.13482(5) 0.2500 1.06373(9)
C1 C 0.6394(3) -0.01842(11) 0.3595(4)
C2 C 0.5786(3) 0.01871(11) 0.3579(4)
C3 C 0.7783(3) -0.07843(11) 0.4104(4)
C4 C 0.7189(3) -0.09553(11) 0.2947(4)
C5 C 0.5048(3) 0.09825(11) 0.3882(4)
C6 C 0.4465(3) 0.07865(11) 0.2755(4)
C7 C 0.9095(3) -0.15050(16) 0.3792(5)
H1 H 0.9462 -0.1403 0.2817
H2 H 0.9571 -0.1712 0.4370
C8 C 0.8155(4) -0.17630(13) 0.3307(5)
H3 H 0.7754 -0.1844 0.4276
H4 H 0.8381 -0.2049 0.2795
C9 C 0.4207(5) 0.17923(17) 0.2994(10)
H5 H 0.4002 0.2099 0.3348
H6 H 0.4643 0.1827 0.2025
C10 C 0.3243(6) 0.1537(2) 0.2560(8)
H7 H 0.2811 0.1728 0.1848
H8 H 0.2834 0.1480 0.3542
S1 S 0.74531(7) -0.02553(3) 0.48342(11)
S2 S 0.61497(7) -0.06287(3) 0.23195(11)
S3 S 0.59966(7) 0.06517(3) 0.47735(11)
S4 S 0.47270(7) 0.02266(3) 0.23193(11)
S5 S 0.88561(8) -0.10247(4) 0.50191(14)
S6 S 0.73153(8) -0.14682(3) 0.19706(12)
S7 S 0.50016(10) 0.15339(3) 0.45538(13)
S8 S 0.34835(9) 0.10184(4) 0.16098(13)
C11? C 0.392(2) 0.1735(8) 0.387(4)
H9? H 0.3335 0.1602 0.4480
H10? H 0.3912 0.2066 0.4057
C12? C 0.375(3) 0.1649(9) 0.216(3)
H11? H 0.4379 0.1752 0.1568
H12? H 0.3155 0.1834 0.1797
loop_
_geom_bond_atom_site_label_1
_geom_bond_atom_site_label_2
_geom_bond_site_symmetry_1
_geom_bond_site_symmetry_2
C1 C2 1_555 1_555
C2 S3 1_555 1_555
C3 C4 1_555 1_555
C4 S2 1_555 1_555
C5 C6 1_555 1_555
C6 S4 1_555 1_555
C7 H1 1_555 1_555
H2 C7 1_555 1_555
C8 C7 1_555 1_555
H3 C8 1_555 1_555
H4 C8 1_555 1_555
C9 H5 1_555 1_555
H6 C9 1_555 1_555
C10 C9 1_555 1_555
H7 C10 1_555 1_555
H8 C10 1_555 1_555
S1 C1 1_555 1_555
S2 C1 1_555 1_555
S3 C5 1_555 1_555
S4 C2 1_555 1_555
S5 C3 1_555 1_555
S6 C4 1_555 1_555
S7 C5 1_555 1_555
S8 C6 1_555 1_555
C13 N1 1_555 1_555
C14 N2 1_555 1_555
N1 Cu1 1_555 1_555
N2 C13 1_555 1_555
N3 C14 1_555 1_555
Cu1 Cl1 1_555 1_555
N3B Cu1 1_555 1_555
Cu1B N3 1_555 1_555
C3 S1 1_555 1_555
C7 S5 1_555 1_555
C8 S6 1_555 1_555
C9 S7 1_555 1_555
C10 S8 1_555 1_555

#END
