
#######################################################################
#
#                 Cambridge Crystallographic Data Centre
#                                CCDC 
#
#######################################################################
#
# If this CIF has been generated from an entry in the Cambridge 
# Structural Database, then it will include bibliographic, chemical, 
# crystal, experimental, refinement or atomic coordinate data resulting 
# from the CCDC's data processing and validation procedures.
#
#######################################################################

data_WEHJAV02
_symmetry_cell_setting           orthorhombic
_symmetry_space_group_name_H-M   'P n m a'
_symmetry_Int_Tables_number      62
_space_group_name_Hall           '-P 2ac 2n'
loop_
_symmetry_equiv_pos_site_id
_symmetry_equiv_pos_as_xyz
1 x,y,z
2 1/2-x,-y,1/2+z
3 1/2+x,1/2-y,1/2-z
4 -x,1/2+y,-z
5 -x,-y,-z
6 1/2+x,y,1/2-z
7 1/2-x,1/2+y,1/2+z
8 x,1/2-y,z
_cell_length_a                   12.8852(7)
_cell_length_b                   29.5759(17)
_cell_length_c                   8.4161(5)
_cell_angle_alpha                90
_cell_angle_beta                 90
_cell_angle_gamma                90
_cell_volume                     3207.3
loop_
_atom_site_label
_atom_site_type_symbol
_atom_site_fract_x
_atom_site_fract_y
_atom_site_fract_z
C11 C 0.8460(4) 0.2500 0.5966(6)
C12 C 0.9736(4) 0.2500 0.7877(6)
N1 N 0.7644(3) 0.2500 0.5390(5)
N2 N 0.9421(3) 0.2500 0.6414(5)
N3 N 1.0165(3) 0.2500 0.9088(5)
Cu1 Cu 0.62724(5) 0.2500 0.43438(7)
Cl1 Cl 0.64037(7) 0.2500 0.16833(10)
N3B N 0.5165(3) 0.2500 0.5912(5)
Cu1B Cu 1.12724(5) 0.2500 1.06562(7)
C1 C 0.6400(2) -0.01844(11) 0.3603(4)
C2 C 0.5777(2) 0.01875(10) 0.3590(4)
C3 C 0.7821(2) -0.07814(11) 0.4092(4)
C4 C 0.7222(2) -0.09579(11) 0.2933(4)
C5 C 0.5004(2) 0.09849(10) 0.3883(4)
C6 C 0.4428(3) 0.07826(11) 0.2746(4)
C7 C 0.9148(3) -0.15117(12) 0.3798(4)
H1 H 0.9519 -0.1416 0.2810
H2 H 0.9620 -0.1719 0.4395
C8 C 0.8186(3) -0.17724(11) 0.3326(4)
H3 H 0.7776 -0.1842 0.4304
H4 H 0.8402 -0.2066 0.2839
C9 C 0.4145(3) 0.17993(12) 0.3005(5)
H5 H 0.3931 0.2108 0.3358
H6 H 0.4581 0.1835 0.2029
C10 C 0.3183(3) 0.15319(12) 0.2581(5)
H7 H 0.2730 0.1723 0.1888
H8 H 0.2788 0.1466 0.3578
S1 S 0.74700(6) -0.02506(3) 0.48455(10)
S2 S 0.61551(6) -0.06355(3) 0.23299(10)
S3 S 0.59685(6) 0.06589(3) 0.47889(10)
S4 S 0.47103(6) 0.02166(3) 0.23203(10)
S5 S 0.89120(7) -0.10167(3) 0.50030(10)
S6 S 0.73622(7) -0.14731(3) 0.19371(10)
S7 S 0.49327(8) 0.15418(3) 0.45630(11)
S8 S 0.34401(7) 0.10082(3) 0.15780(10)
loop_
_geom_bond_atom_site_label_1
_geom_bond_atom_site_label_2
_geom_bond_site_symmetry_1
_geom_bond_site_symmetry_2
C1 C2 1_555 1_555
C2 S3 1_555 1_555
C3 C4 1_555 1_555
C4 S2 1_555 1_555
C5 C6 1_555 1_555
C6 S4 1_555 1_555
C7 H1 1_555 1_555
H2 C7 1_555 1_555
C8 C7 1_555 1_555
H3 C8 1_555 1_555
H4 C8 1_555 1_555
C9 H5 1_555 1_555
H6 C9 1_555 1_555
C10 C9 1_555 1_555
H7 C10 1_555 1_555
H8 C10 1_555 1_555
S1 C1 1_555 1_555
S2 C1 1_555 1_555
S3 C5 1_555 1_555
S4 C2 1_555 1_555
S5 C3 1_555 1_555
S6 C4 1_555 1_555
S7 C5 1_555 1_555
S8 C6 1_555 1_555
C11 N1 1_555 1_555
C12 N2 1_555 1_555
N1 Cu1 1_555 1_555
N2 C11 1_555 1_555
N3 C12 1_555 1_555
Cu1 Cl1 1_555 1_555
N3B Cu1 1_555 1_555
Cu1B N3 1_555 1_555
C3 S1 1_555 1_555
C7 S5 1_555 1_555
C8 S6 1_555 1_555
C9 S7 1_555 1_555
C10 S8 1_555 1_555

#END
