
#######################################################################
#
#                 Cambridge Crystallographic Data Centre
#                                CCDC 
#
#######################################################################
#
# If this CIF has been generated from an entry in the Cambridge 
# Structural Database, then it will include bibliographic, chemical, 
# crystal, experimental, refinement or atomic coordinate data resulting 
# from the CCDC's data processing and validation procedures.
#
#######################################################################

data_WEHJAV04
_symmetry_cell_setting           orthorhombic
_symmetry_space_group_name_H-M   'P n m a'
_symmetry_Int_Tables_number      62
_space_group_name_Hall           '-P 2ac 2n'
loop_
_symmetry_equiv_pos_site_id
_symmetry_equiv_pos_as_xyz
1 x,y,z
2 1/2-x,-y,1/2+z
3 1/2+x,1/2-y,1/2-z
4 -x,1/2+y,-z
5 -x,-y,-z
6 1/2+x,y,1/2-z
7 1/2-x,1/2+y,1/2+z
8 x,1/2-y,z
_cell_length_a                   12.9062(7)
_cell_length_b                   29.7595(16)
_cell_length_c                   8.4509(5)
_cell_angle_alpha                90
_cell_angle_beta                 90
_cell_angle_gamma                90
_cell_volume                     3245.84
loop_
_atom_site_label
_atom_site_type_symbol
_atom_site_fract_x
_atom_site_fract_y
_atom_site_fract_z
C13 C 0.8495(4) 0.2500 0.5999(6)
C14 C 0.9774(4) 0.2500 0.7891(7)
N1 N 0.7686(4) 0.2500 0.5420(6)
N2 N 0.9454(4) 0.2500 0.6440(6)
N3 N 1.0209(3) 0.2500 0.9086(6)
Cu1 Cu 0.63209(5) 0.2500 0.43551(8)
Cl1 Cl 0.64390(9) 0.2500 0.17111(12)
N3B N 0.5209(3) 0.2500 0.5914(6)
Cu1B Cu 1.13209(5) 0.2500 1.06449(8)
C1 C 0.6397(2) -0.01843(11) 0.3601(4)
C2 C 0.5783(2) 0.01871(10) 0.3583(4)
C3 C 0.7796(2) -0.07845(11) 0.4103(4)
C4 C 0.7199(2) -0.09567(11) 0.2943(4)
C5 C 0.5034(3) 0.09831(10) 0.3884(4)
C6 C 0.4455(3) 0.07853(11) 0.2754(4)
C7 C 0.9112(3) -0.15080(14) 0.3792(5)
H1 H 0.9480 -0.1407 0.2813
H2 H 0.9587 -0.1716 0.4374
C8 C 0.8164(3) -0.17664(12) 0.3310(4)
H3 H 0.7760 -0.1844 0.4282
H4 H 0.8387 -0.2054 0.2804
C9 C 0.4187(4) 0.17944(15) 0.2997(8)
H5 H 0.3977 0.2102 0.3350
H6 H 0.4623 0.1829 0.2027
C10 C 0.3225(5) 0.15353(18) 0.2565(7)
H7 H 0.2787 0.1726 0.1858
H8 H 0.2820 0.1476 0.3551
S1 S 0.74598(6) -0.02543(3) 0.48398(10)
S2 S 0.61527(7) -0.06304(3) 0.23207(10)
S3 S 0.59882(6) 0.06540(3) 0.47809(10)
S4 S 0.47224(7) 0.02240(3) 0.23202(10)
S5 S 0.88740(8) -0.10235(3) 0.50173(12)
S6 S 0.73298(7) -0.14702(3) 0.19602(11)
S7 S 0.49789(9) 0.15364(3) 0.45598(12)
S8 S 0.34691(8) 0.10154(3) 0.16007(12)
C11? C 0.389(2) 0.1740(9) 0.388(4)
H9? H 0.3303 0.1602 0.4482
H10? H 0.3877 0.2071 0.4081
C12? C 0.374(3) 0.1656(9) 0.217(3)
H11? H 0.4376 0.1759 0.1594
H12? H 0.3148 0.1843 0.1793
loop_
_geom_bond_atom_site_label_1
_geom_bond_atom_site_label_2
_geom_bond_site_symmetry_1
_geom_bond_site_symmetry_2
C1 C2 1_555 1_555
C2 S3 1_555 1_555
C3 C4 1_555 1_555
C4 S2 1_555 1_555
C5 C6 1_555 1_555
C6 S4 1_555 1_555
C7 H1 1_555 1_555
H2 C7 1_555 1_555
C8 C7 1_555 1_555
H3 C8 1_555 1_555
H4 C8 1_555 1_555
C9 H5 1_555 1_555
H6 C9 1_555 1_555
C10 C9 1_555 1_555
H7 C10 1_555 1_555
H8 C10 1_555 1_555
S1 C1 1_555 1_555
S2 C1 1_555 1_555
S3 C5 1_555 1_555
S4 C2 1_555 1_555
S5 C3 1_555 1_555
S6 C4 1_555 1_555
S7 C5 1_555 1_555
S8 C6 1_555 1_555
C13 N1 1_555 1_555
C14 N2 1_555 1_555
N1 Cu1 1_555 1_555
N2 C13 1_555 1_555
N3 C14 1_555 1_555
Cu1 Cl1 1_555 1_555
N3B Cu1 1_555 1_555
Cu1B N3 1_555 1_555
C3 S1 1_555 1_555
C7 S5 1_555 1_555
C8 S6 1_555 1_555
C9 S7 1_555 1_555
C10 S8 1_555 1_555

#END
