
#######################################################################
#
#                 Cambridge Crystallographic Data Centre
#                                CCDC 
#
#######################################################################
#
# If this CIF has been generated from an entry in the Cambridge 
# Structural Database, then it will include bibliographic, chemical, 
# crystal, experimental, refinement or atomic coordinate data resulting 
# from the CCDC's data processing and validation procedures.
#
#######################################################################

data_WEHJAV
_symmetry_cell_setting           orthorhombic
_symmetry_space_group_name_H-M   'P n m a'
_symmetry_Int_Tables_number      62
_space_group_name_Hall           '-P 2ac 2n'
loop_
_symmetry_equiv_pos_site_id
_symmetry_equiv_pos_as_xyz
1 x,y,z
2 1/2-x,-y,1/2+z
3 -x,1/2+y,-z
4 1/2+x,1/2-y,1/2-z
5 -x,-y,-z
6 1/2+x,y,1/2-z
7 x,1/2-y,z
8 1/2-x,1/2+y,1/2+z
_cell_length_a                   12.9290(10)
_cell_length_b                   29.879(2)
_cell_length_c                   8.4570(10)
_cell_angle_alpha                90
_cell_angle_beta                 90
_cell_angle_gamma                90
_cell_volume                     3266.99
loop_
_atom_site_label
_atom_site_type_symbol
_atom_site_fract_x
_atom_site_fract_y
_atom_site_fract_z
Cu1 Cu 0.86150(7) 0.2500 -0.43509(9)
Cl1 Cl 0.85089(17) 0.2500 -0.1760(2)
C11 C 0.6450(5) 0.2500 -0.6022(7)
N1 N 0.7256(4) 0.2500 -0.5425(6)
C12 C 0.5168(5) 0.2500 -0.7937(9)
N2 N 0.4740(4) 0.2500 -0.9089(6)
N3 N 0.5509(4) 0.2500 -0.6455(7)
Cu1C Cu 0.36150(7) 0.2500 -1.06491(9)
N2C N 0.9740(4) 0.2500 -0.5911(6)
S1 S 0.02694(8) 0.47707(3) -0.23127(12)
S2 S -0.10068(8) 0.43498(3) -0.47637(12)
S3 S -0.11435(8) 0.56284(3) -0.23181(12)
S4 S -0.24487(8) 0.52575(3) -0.48272(12)
S5 S 0.15020(9) 0.39785(4) -0.16179(13)
S6 S -0.00292(11) 0.34680(3) -0.45429(14)
S7 S -0.22947(9) 0.64691(3) -0.19813(13)
S8 S -0.38377(9) 0.60279(4) -0.50222(15)
C1 C -0.0791(3) 0.48114(12) -0.3572(4)
C2 C -0.1392(3) 0.51866(12) -0.3593(4)
C3 C 0.0521(3) 0.42121(11) -0.2750(4)
C4 C -0.0065(3) 0.40181(12) -0.3868(4)
C5 C -0.2178(3) 0.59564(12) -0.2952(4)
C6 C -0.2771(3) 0.57861(12) -0.4103(5)
C7 C 0.1726(5) 0.34523(15) -0.2565(8)
H1 H 0.2142 0.3502 -0.3504
H2 H 0.2120 0.3262 -0.1856
C8 C 0.0755(4) 0.32136(16) -0.3027(7)
H3 H 0.0332 0.3180 -0.2087
H4 H 0.0942 0.2915 -0.3379
C9 C -0.3134(3) 0.67639(13) -0.3311(5)
H5 H -0.3352 0.7041 -0.2811
H6 H -0.2747 0.6842 -0.4254
C10 C -0.4074(3) 0.65048(14) -0.3787(5)
H7 H -0.4541 0.6705 -0.4339
H8 H -0.4424 0.6404 -0.2836
C13? C 0.125(3) 0.3408(4) -0.215(3)
H9? H 0.1771 0.3224 -0.1651
H10? H 0.0589 0.3326 -0.1681
C14? C 0.1201(12) 0.3271(10) -0.386(3)
H11? H 0.1249 0.2948 -0.3960
H12? H 0.1759 0.3407 -0.4451
loop_
_geom_bond_atom_site_label_1
_geom_bond_atom_site_label_2
_geom_bond_site_symmetry_1
_geom_bond_site_symmetry_2
S1 C1 1_555 1_555
S2 C1 1_555 1_555
S3 C2 1_555 1_555
S4 C2 1_555 1_555
S5 C3 1_555 1_555
S6 C4 1_555 1_555
S7 C5 1_555 1_555
S8 C6 1_555 1_555
C1 C2 1_555 1_555
C3 S1 1_555 1_555
C4 S2 1_555 1_555
C5 S3 1_555 1_555
C6 S4 1_555 1_555
C7 S5 1_555 1_555
H1 C7 1_555 1_555
H2 C7 1_555 1_555
C8 S6 1_555 1_555
H3 C8 1_555 1_555
H4 C8 1_555 1_555
C9 S7 1_555 1_555
H5 C9 1_555 1_555
H6 C9 1_555 1_555
C10 S8 1_555 1_555
H7 C10 1_555 1_555
H8 C10 1_555 1_555
Cu1 Cl1 1_555 1_555
C11 N1 1_555 1_555
N1 Cu1 1_555 1_555
C12 N2 1_555 1_555
N2 Cu1C 1_555 1_555
N3 C11 1_555 1_555
N2C Cu1 1_555 1_555
C3 C4 1_555 1_555
C5 C6 1_555 1_555
C7 C8 1_555 1_555
C9 C10 1_555 1_555
C12 N3 1_555 1_555

#END
