
#######################################################################
#
#                 Cambridge Crystallographic Data Centre
#                                CCDC 
#
#######################################################################
#
# If this CIF has been generated from an entry in the Cambridge 
# Structural Database, then it will include bibliographic, chemical, 
# crystal, experimental, refinement or atomic coordinate data resulting 
# from the CCDC's data processing and validation procedures.
#
#######################################################################

data_WEHJAV06
_symmetry_cell_setting           orthorhombic
_symmetry_space_group_name_H-M   'P n m a'
_symmetry_Int_Tables_number      62
_space_group_name_Hall           '-P 2ac 2n'
loop_
_symmetry_equiv_pos_site_id
_symmetry_equiv_pos_as_xyz
1 x,y,z
2 1/2-x,-y,1/2+z
3 1/2+x,1/2-y,1/2-z
4 -x,1/2+y,-z
5 -x,-y,-z
6 1/2+x,y,1/2-z
7 1/2-x,1/2+y,1/2+z
8 x,1/2-y,z
_cell_length_a                   12.9550(8)
_cell_length_b                   29.9368(18)
_cell_length_c                   8.4811(5)
_cell_angle_alpha                90
_cell_angle_beta                 90
_cell_angle_gamma                90
_cell_volume                     3289.24
loop_
_atom_site_label
_atom_site_type_symbol
_atom_site_fract_x
_atom_site_fract_y
_atom_site_fract_z
C13 C 0.8531(4) 0.2500 0.6033(7)
C14 C 0.9814(4) 0.2500 0.7908(8)
N1 N 0.7736(4) 0.2500 0.5458(6)
N2 N 0.9481(5) 0.2500 0.6469(7)
N3 N 1.0266(4) 0.2500 0.9080(6)
Cu1 Cu 0.63788(6) 0.2500 0.43724(9)
Cl1 Cl 0.64796(12) 0.2500 0.17425(14)
N3B N 0.5266(4) 0.2500 0.5920(6)
Cu1B Cu 1.13788(6) 0.2500 1.06276(9)
C1 C 0.6391(3) -0.01841(11) 0.3589(4)
C2 C 0.5788(3) 0.01873(11) 0.3574(4)
C3 C 0.7772(3) -0.07834(12) 0.4103(4)
C4 C 0.7180(3) -0.09538(11) 0.2950(4)
C5 C 0.5061(3) 0.09813(11) 0.3874(4)
C6 C 0.4478(3) 0.07872(11) 0.2754(4)
C7 C 0.9076(4) -0.15027(17) 0.3795(6)
H1 H 0.9446 -0.1401 0.2824
H2 H 0.9549 -0.1709 0.4374
C8 C 0.8145(4) -0.17589(13) 0.3305(5)
H3 H 0.7745 -0.1842 0.4271
H4 H 0.8373 -0.2042 0.2787
C9 C 0.4226(5) 0.17889(18) 0.2993(8)
H5 H 0.4021 0.2094 0.3352
H6 H 0.4661 0.1825 0.2028
C10 C 0.3270(5) 0.1538(2) 0.2550(8)
H7 H 0.2847 0.1729 0.1829
H8 H 0.2853 0.1484 0.3524
S1 S 0.74458(7) -0.02560(3) 0.48276(11)
S2 S 0.61454(8) -0.06272(3) 0.23189(11)
S3 S 0.60042(7) 0.06496(3) 0.47638(11)
S4 S 0.47303(8) 0.02290(3) 0.23177(11)
S5 S 0.88393(9) -0.10245(4) 0.50167(15)
S6 S 0.73010(9) -0.14660(3) 0.19810(13)
S7 S 0.50232(11) 0.15313(3) 0.45448(14)
S8 S 0.34985(10) 0.10208(4) 0.16165(14)
C11? C 0.3945(16) 0.1737(7) 0.387(3)
H9? H 0.3356 0.1603 0.4471
H10? H 0.3936 0.2067 0.4065
C12? C 0.379(2) 0.1652(8) 0.216(3)
H11? H 0.4428 0.1749 0.1581
H12? H 0.3207 0.1841 0.1777
loop_
_geom_bond_atom_site_label_1
_geom_bond_atom_site_label_2
_geom_bond_site_symmetry_1
_geom_bond_site_symmetry_2
C1 C2 1_555 1_555
C2 S3 1_555 1_555
C3 C4 1_555 1_555
C4 S2 1_555 1_555
C5 C6 1_555 1_555
C6 S4 1_555 1_555
C7 H1 1_555 1_555
H2 C7 1_555 1_555
C8 C7 1_555 1_555
H3 C8 1_555 1_555
H4 C8 1_555 1_555
C9 H5 1_555 1_555
H6 C9 1_555 1_555
C10 C9 1_555 1_555
H7 C10 1_555 1_555
H8 C10 1_555 1_555
S1 C1 1_555 1_555
S2 C1 1_555 1_555
S3 C5 1_555 1_555
S4 C2 1_555 1_555
S5 C3 1_555 1_555
S6 C4 1_555 1_555
S7 C5 1_555 1_555
S8 C6 1_555 1_555
C13 N1 1_555 1_555
C14 N2 1_555 1_555
N1 Cu1 1_555 1_555
N2 C13 1_555 1_555
N3 C14 1_555 1_555
Cu1 Cl1 1_555 1_555
N3B Cu1 1_555 1_555
Cu1B N3 1_555 1_555
C3 S1 1_555 1_555
C7 S5 1_555 1_555
C8 S6 1_555 1_555
C9 S7 1_555 1_555
C10 S8 1_555 1_555

#END
