
#######################################################################
#
#                 Cambridge Crystallographic Data Centre
#                                CCDC 
#
#######################################################################
#
# If this CIF has been generated from an entry in the Cambridge 
# Structural Database, then it will include bibliographic, chemical, 
# crystal, experimental, refinement or atomic coordinate data resulting 
# from the CCDC's data processing and validation procedures.
#
#######################################################################

data_WEHJAV03
_symmetry_cell_setting           orthorhombic
_symmetry_space_group_name_H-M   'P n m a'
_symmetry_Int_Tables_number      62
_space_group_name_Hall           '-P 2ac 2n'
loop_
_symmetry_equiv_pos_site_id
_symmetry_equiv_pos_as_xyz
1 x,y,z
2 1/2-x,-y,1/2+z
3 1/2+x,1/2-y,1/2-z
4 -x,1/2+y,-z
5 -x,-y,-z
6 1/2+x,y,1/2-z
7 1/2-x,1/2+y,1/2+z
8 x,1/2-y,z
_cell_length_a                   12.8917(7)
_cell_length_b                   29.6686(17)
_cell_length_c                   8.4335(5)
_cell_angle_alpha                90
_cell_angle_beta                 90
_cell_angle_gamma                90
_cell_volume                     3225.63
loop_
_atom_site_label
_atom_site_type_symbol
_atom_site_fract_x
_atom_site_fract_y
_atom_site_fract_z
C11 C 0.8478(4) 0.2500 0.5983(6)
C12 C 0.9755(4) 0.2500 0.7884(6)
N1 N 0.7666(4) 0.2500 0.5404(6)
N2 N 0.9436(4) 0.2500 0.6428(6)
N3 N 1.0188(3) 0.2500 0.9086(6)
Cu1 Cu 0.62967(5) 0.2500 0.43487(8)
Cl1 Cl 0.64210(8) 0.2500 0.16966(11)
N3B N 0.5188(3) 0.2500 0.5914(6)
Cu1B Cu 1.12967(5) 0.2500 1.06513(8)
C1 C 0.6398(2) -0.01843(11) 0.3600(4)
C2 C 0.5780(2) 0.01874(11) 0.3586(4)
C3 C 0.7809(3) -0.07826(11) 0.4098(4)
C4 C 0.7210(3) -0.09579(11) 0.2940(4)
C5 C 0.5018(3) 0.09842(11) 0.3886(4)
C6 C 0.4442(3) 0.07840(11) 0.2752(4)
C7 C 0.9130(3) -0.15098(14) 0.3800(5)
H1 H 0.9501 -0.1412 0.2817
H2 H 0.9603 -0.1717 0.4391
C8 C 0.8176(3) -0.17692(12) 0.3320(4)
H3 H 0.7768 -0.1844 0.4294
H4 H 0.8396 -0.2060 0.2823
C9 C 0.4165(4) 0.17958(14) 0.3004(5)
H5 H 0.3953 0.2104 0.3358
H6 H 0.4603 0.1832 0.2033
C10 C 0.3207(3) 0.15354(14) 0.2569(6)
H7 H 0.2767 0.1727 0.1862
H8 H 0.2801 0.1474 0.3556
S1 S 0.74652(6) -0.02526(3) 0.48434(10)
S2 S 0.61543(7) -0.06326(3) 0.23250(10)
S3 S 0.59788(6) 0.06563(3) 0.47864(10)
S4 S 0.47166(7) 0.02207(3) 0.23201(10)
S5 S 0.88923(7) -0.10207(3) 0.50111(12)
S6 S 0.73452(7) -0.14717(3) 0.19488(11)
S7 S 0.49561(9) 0.15391(3) 0.45623(12)
S8 S 0.34543(8) 0.10119(3) 0.15908(11)
loop_
_geom_bond_atom_site_label_1
_geom_bond_atom_site_label_2
_geom_bond_site_symmetry_1
_geom_bond_site_symmetry_2
C1 C2 1_555 1_555
C2 S3 1_555 1_555
C3 C4 1_555 1_555
C4 S2 1_555 1_555
C5 C6 1_555 1_555
C6 S4 1_555 1_555
C7 H1 1_555 1_555
H2 C7 1_555 1_555
C8 C7 1_555 1_555
H3 C8 1_555 1_555
H4 C8 1_555 1_555
C9 H5 1_555 1_555
H6 C9 1_555 1_555
C10 C9 1_555 1_555
H7 C10 1_555 1_555
H8 C10 1_555 1_555
S1 C1 1_555 1_555
S2 C1 1_555 1_555
S3 C5 1_555 1_555
S4 C2 1_555 1_555
S5 C3 1_555 1_555
S6 C4 1_555 1_555
S7 C5 1_555 1_555
S8 C6 1_555 1_555
C11 N1 1_555 1_555
C12 N2 1_555 1_555
N1 Cu1 1_555 1_555
N2 C11 1_555 1_555
N3 C12 1_555 1_555
Cu1 Cl1 1_555 1_555
N3B Cu1 1_555 1_555
Cu1B N3 1_555 1_555
C3 S1 1_555 1_555
C7 S5 1_555 1_555
C8 S6 1_555 1_555
C9 S7 1_555 1_555
C10 S8 1_555 1_555

#END
