
#######################################################################
#
#                 Cambridge Crystallographic Data Centre
#                                CCDC 
#
#######################################################################
#
# If this CIF has been generated from an entry in the Cambridge 
# Structural Database, then it will include bibliographic, chemical, 
# crystal, experimental, refinement or atomic coordinate data resulting 
# from the CCDC's data processing and validation procedures.
#
#######################################################################

data_WEHNAA
_symmetry_cell_setting           monoclinic
_symmetry_space_group_name_H-M   'C 2/c'
_symmetry_Int_Tables_number      15
_space_group_name_Hall           '-C 2yn'
loop_
_symmetry_equiv_pos_site_id
_symmetry_equiv_pos_as_xyz
1 x,y,z
2 -x,y,1/2-z
3 1/2+x,1/2+y,z
4 1/2-x,1/2+y,1/2-z
5 -x,-y,-z
6 x,-y,1/2+z
7 1/2-x,1/2-y,-z
8 1/2+x,1/2-y,1/2+z
_cell_length_a                   29.5522(9)
_cell_length_b                   8.61740(17)
_cell_length_c                   9.70301(20)
_cell_angle_alpha                90
_cell_angle_beta                 95.4401(18)
_cell_angle_gamma                90
_cell_volume                     2459.87
loop_
_atom_site_label
_atom_site_type_symbol
_atom_site_fract_x
_atom_site_fract_y
_atom_site_fract_z
O7 O 0.45308(19) 0.0696(10) 0.2305(11)
Mg1 Mg 0.25000 0.7500 0.0000
P1 P 0.14952(20) 0.5741(6) 0.0611(6)
P2 P 0.21326(20) -0.0140(5) 0.2401(6)
O1 O 0.18038(28) 0.6791(10) -0.0169(9)
O2 O 0.09984(25) 0.5675(11) -0.0049(10)
O3 O 0.1480(4) 0.6150(10) 0.2109(7)
O4 O 0.2316(4) 0.0712(10) 0.3676(8)
O5 O 0.24884(31) -0.1212(10) 0.1864(9)
O6 O 0.17077(27) -0.0935(10) 0.2805(11)
C1 C 0.1739(4) 0.3836(8) 0.0403(12)
C2 C 0.1968(4) 0.1280(11) 0.1077(10)
N1 N 0.17425(33) 0.2705(10) 0.1563(10)
C3 C 0.12574(34) 0.2394(14) 0.1767(12)
C4 C 0.10200(34) 0.1403(17) 0.0652(13)
C5 C 0.05481(32) 0.1020(18) 0.0903(14)
C6 C 0.02491(16) 0.0085(19) -0.0096(14)
Mg1C Mg 0.25000 0.2500 0.5000
Mg1_2 Mg 0.25000 -0.2500 0.0000
Mg1B Mg -0.25000 -0.7500 0.0000
Mg1A Mg -0.25000 -0.2500 -0.5000
Mg1B_2 Mg -0.25000 0.2500 0.0000
P1D P -0.14952(20) -0.5741(6) -0.0611(6)
P2D P -0.21326(20) 0.0140(5) -0.2401(6)
O1D O -0.18038(28) -0.6791(10) 0.0169(9)
O1F O 0.31962(28) 0.8209(10) 0.0169(9)
O2D O -0.09984(25) -0.5675(11) 0.0049(10)
O3D O -0.1480(4) -0.6150(10) -0.2109(7)
O4D O -0.2316(4) -0.0712(10) -0.3676(8)
O4E O 0.2316(4) 0.9288(10) -0.1324(8)
O4C O 0.2684(4) 0.5712(10) 0.1324(8)
O5D O -0.24884(31) 0.1212(10) -0.1864(9)
O5_2 O 0.24884(31) 0.8788(10) 0.1864(9)
O5F O 0.25116(31) 0.6212(10) -0.1864(9)
O6D O -0.17077(27) 0.0935(10) -0.2805(11)
C1D C -0.1739(4) -0.3836(8) -0.0403(12)
C2D C -0.1968(4) -0.1280(11) -0.1077(10)
N1D N -0.17425(33) -0.2705(10) -0.1563(10)
C3D C -0.12574(34) -0.2394(14) -0.1767(12)
C4D C -0.10200(34) -0.1403(17) -0.0652(13)
C5D C -0.05481(32) -0.1020(18) -0.0903(14)
C6D C -0.02491(16) -0.0085(19) 0.0096(14)
loop_
_geom_bond_atom_site_label_1
_geom_bond_atom_site_label_2
_geom_bond_site_symmetry_1
_geom_bond_site_symmetry_2
Mg1 O1 1_555 1_555
P1 O1 1_555 1_555
P2 O4 1_555 1_555
O2 P1 1_555 1_555
O3 P1 1_555 1_555
O4 Mg1C 1_555 1_555
O5 P2 1_555 1_555
O6 P2 1_555 1_555
C1 P1 1_555 1_555
C2 P2 1_555 1_555
N1 C1 1_555 1_555
C3 N1 1_555 1_555
C4 C3 1_555 1_555
C5 C4 1_555 1_555
C6 C5 1_555 1_555
Mg1_2 O5 1_555 1_555
Mg1B O1D 1_555 1_555
Mg1A O4D 1_555 1_555
Mg1B_2 O5D 1_555 1_555
P1D O1D 1_555 1_555
P2D O4D 1_555 1_555
O1F Mg1 1_555 1_555
O2D P1D 1_555 1_555
O3D P1D 1_555 1_555
O4E Mg1 1_555 1_555
O4C Mg1 1_555 1_555
O5D P2D 1_555 1_555
O5_2 Mg1 1_555 1_555
O5F Mg1 1_555 1_555
O6D P2D 1_555 1_555
C1D P1D 1_555 1_555
C2D P2D 1_555 1_555
N1D C1D 1_555 1_555
C3D N1D 1_555 1_555
C4D C3D 1_555 1_555
C5D C4D 1_555 1_555
C6D C6 1_555 1_555
C2 N1 1_555 1_555
C2D N1D 1_555 1_555
C5D C6D 1_555 1_555

#END
