
#######################################################################
#
#                 Cambridge Crystallographic Data Centre
#                                CCDC 
#
#######################################################################
#
# If this CIF has been generated from an entry in the Cambridge 
# Structural Database, then it will include bibliographic, chemical, 
# crystal, experimental, refinement or atomic coordinate data resulting 
# from the CCDC's data processing and validation procedures.
#
#######################################################################

data_WEHPOP
_symmetry_cell_setting           monoclinic
_symmetry_space_group_name_H-M   'C 2/c'
_symmetry_Int_Tables_number      15
_space_group_name_Hall           '-C 2yn'
loop_
_symmetry_equiv_pos_site_id
_symmetry_equiv_pos_as_xyz
1 x,y,z
2 1/2+x,1/2+y,z
3 -x,y,1/2-z
4 1/2-x,1/2+y,1/2-z
5 -x,-y,-z
6 1/2-x,1/2-y,-z
7 x,-y,1/2+z
8 1/2+x,1/2-y,1/2+z
_cell_length_a                   20.828(5)
_cell_length_b                   13.499(4)
_cell_length_c                   20.020(5)
_cell_angle_alpha                90
_cell_angle_beta                 106.179(19)
_cell_angle_gamma                90
_cell_volume                     5405.84
loop_
_atom_site_label
_atom_site_type_symbol
_atom_site_fract_x
_atom_site_fract_y
_atom_site_fract_z
O4 O 0.2071(17) -0.137(3) 0.5047(19)
O5 O 0.3135(15) -0.210(2) 0.6073(15)
O6 O 0.1885(14) -0.291(2) 0.5603(15)
S1 S 0.2422(6) -0.2229(9) 0.5513(6)
O4E O 0.2929(17) -0.363(3) 0.4953(19)
O5E O 0.1865(15) -0.290(2) 0.3927(15)
O6E O 0.3115(14) -0.209(2) 0.4397(15)
S1E S 0.2578(6) -0.2771(9) 0.4487(6)
C1 C 0.3073(9) 0.4961(15) 0.5974(11)
H1 H 0.2973 0.5242 0.5533
C2 C 0.3085(10) 0.5459(18) 0.6520(12)
H2 H 0.3001 0.6135 0.6463
C3 C 0.3208(9) 0.5095(14) 0.7177(10)
C4 C 0.3334(8) 0.4100(13) 0.7316(10)
H3 H 0.3422 0.3818 0.7756
C5 C 0.3308(8) 0.3517(13) 0.6641(9)
H4 H 0.3357 0.2832 0.6646
C6 C 0.3089(9) 0.743(2) 0.8166(10)
H5 H 0.3128 0.8110 0.8119
C7 C 0.3084(12) 0.679(2) 0.7620(15)
H6 H 0.3036 0.7017 0.7170
C8 C 0.3166(8) 0.5651(12) 0.7811(9)
C9 C 0.3111(8) 0.5304(15) 0.8432(9)
H7 H 0.3075 0.4632 0.8516
C10 C 0.3115(8) 0.6104(13) 0.8991(9)
H8 H 0.3173 0.5935 0.9454
C11 C 0.3561(13) 0.008(2) 0.5078(13)
H9 H 0.3152 -0.0244 0.4925
C12 C 0.4169(11) -0.0365(17) 0.5028(11)
H10 H 0.4188 -0.1038 0.4935
C13 C 0.4691(7) 0.0192(12) 0.5116(8)
C14 C 0.4628(10) 0.1135(15) 0.5300(10)
H11 H 0.4996 0.1547 0.5348
C15 C 0.4062(9) 0.1554(16) 0.5427(10)
H12 H 0.4027 0.2209 0.5557
N1 N 0.3218(6) 0.4000(10) 0.6092(7)
N2 N 0.3032(6) 0.7025(11) 0.8780(8)
N3 N 0.3610(7) 0.0926(11) 0.5340(7)
O1 O 0.3286(7) 0.3447(10) 0.5517(7)
O2 O 0.2986(5) 0.7723(8) 0.9259(6)
O3 O 0.2996(6) 0.1292(10) 0.5457(7)
Ni1 Ni 0.2500 0.2500 0.5000
C1E C 0.1927(9) 0.0039(15) 0.4026(11)
H1E H 0.2027 -0.0242 0.4467
C2E C 0.1915(10) -0.0459(18) 0.3480(12)
H2E H 0.1999 -0.1135 0.3537
C3E C 0.1792(9) -0.0095(14) 0.2823(10)
C4E C 0.1666(8) 0.0900(13) 0.2684(10)
H3E H 0.1578 0.1182 0.2244
C5E C 0.1692(8) 0.1483(13) 0.3359(9)
H4E H 0.1643 0.2168 0.3354
C6E C 0.1911(9) -0.243(2) 0.1834(10)
H5E H 0.1872 -0.3110 0.1881
C7E C 0.1916(12) -0.179(2) 0.2380(15)
H6E H 0.1964 -0.2017 0.2830
C8E C 0.1834(8) -0.0651(12) 0.2189(9)
C9E C 0.1889(8) -0.0304(15) 0.1568(9)
H7E H 0.1925 0.0368 0.1484
C10E C 0.1885(8) -0.1104(13) 0.1009(9)
H8E H 0.1827 -0.0935 0.0546
C11D C 0.6439(13) -0.008(2) 0.4922(13)
H9D H 0.6848 0.0244 0.5075
C12D C 0.5831(11) 0.0365(17) 0.4972(11)
H10D H 0.5812 0.1038 0.5065
C13D C 0.5309(7) -0.0192(12) 0.4884(8)
C14D C 0.5372(10) -0.1135(15) 0.4700(10)
H11D H 0.5004 -0.1547 0.4652
C15D C 0.5938(9) -0.1554(16) 0.4573(10)
H12D H 0.5973 -0.2209 0.4443
N1E N 0.1782(6) 0.1000(10) 0.3908(7)
N2E N 0.1968(6) -0.2025(11) 0.1220(8)
N3D N 0.6390(7) -0.0926(11) 0.4660(7)
O1E O 0.1714(7) 0.1553(10) 0.4483(7)
O2E O 0.2014(5) -0.2723(8) 0.0741(6)
O2F O 0.2986(5) 0.2277(8) 0.4259(6)
O2C O 0.2014(5) 0.2723(8) 0.5741(6)
O3D O 0.7004(6) -0.1292(10) 0.4543(7)
O3E O 0.2004(6) 0.3708(10) 0.4543(7)
Ni1F Ni 0.2500 0.7500 1.0000
Ni1A Ni 0.7500 -0.2500 0.5000
Ni1F_2 Ni 0.2500 -0.2500 0.0000
loop_
_geom_bond_atom_site_label_1
_geom_bond_atom_site_label_2
_geom_bond_site_symmetry_1
_geom_bond_site_symmetry_2
C1 H1 1_555 1_555
C2 C1 1_555 1_555
H2 C2 1_555 1_555
C3 C2 1_555 1_555
C4 C3 1_555 1_555
H3 C4 1_555 1_555
C5 C4 1_555 1_555
H4 C5 1_555 1_555
C6 H5 1_555 1_555
C7 C6 1_555 1_555
H6 C7 1_555 1_555
C8 C3 1_555 1_555
C9 C8 1_555 1_555
H7 C9 1_555 1_555
C10 C9 1_555 1_555
H8 C10 1_555 1_555
C11 H9 1_555 1_555
C12 C11 1_555 1_555
H10 C12 1_555 1_555
C13 C12 1_555 1_555
C14 C13 1_555 1_555
H11 C14 1_555 1_555
C15 C14 1_555 1_555
H12 C15 1_555 1_555
N1 C1 1_555 1_555
N2 C6 1_555 1_555
N3 C11 1_555 1_555
O1 N1 1_555 1_555
O2 N2 1_555 1_555
O3 N3 1_555 1_555
O4 S1 1_555 1_555
O5 S1 1_555 1_555
O6 S1 1_555 1_555
S1 S1E 1_555 1_555
Ni1 O1 1_555 1_555
C1E H1E 1_555 1_555
C2E C1E 1_555 1_555
H2E C2E 1_555 1_555
C3E C2E 1_555 1_555
C4E C3E 1_555 1_555
H3E C4E 1_555 1_555
C5E C4E 1_555 1_555
H4E C5E 1_555 1_555
C6E H5E 1_555 1_555
C7E C6E 1_555 1_555
H6E C7E 1_555 1_555
C8E C3E 1_555 1_555
C9E C8E 1_555 1_555
H7E C9E 1_555 1_555
C10E C9E 1_555 1_555
H8E C10E 1_555 1_555
C11D H9D 1_555 1_555
C12D C11D 1_555 1_555
H10D C12D 1_555 1_555
C13D C13 1_555 1_555
C14D C13D 1_555 1_555
H11D C14D 1_555 1_555
C15D C14D 1_555 1_555
H12D C15D 1_555 1_555
N1E C1E 1_555 1_555
N2E C6E 1_555 1_555
N3D C11D 1_555 1_555
O1E Ni1 1_555 1_555
O2E N2E 1_555 1_555
O2F Ni1 1_555 1_555
O2C Ni1 1_555 1_555
O3D N3D 1_555 1_555
O3E Ni1 1_555 1_555
O4E S1E 1_555 1_555
O5E S1E 1_555 1_555
O6E S1E 1_555 1_555
Ni1F O2 1_555 1_555
Ni1A O3D 1_555 1_555
Ni1F_2 O2E 1_555 1_555
C5 N1 1_555 1_555
C7 C8 1_555 1_555
C10 N2 1_555 1_555
C15 N3 1_555 1_555
O3 Ni1 1_555 1_555
C5E N1E 1_555 1_555
C7E C8E 1_555 1_555
C10E N2E 1_555 1_555
C12D C13D 1_555 1_555
C15D N3D 1_555 1_555
N1E O1E 1_555 1_555

#END
