
#######################################################################
#
#                 Cambridge Crystallographic Data Centre
#                                CCDC 
#
#######################################################################
#
# If this CIF has been generated from an entry in the Cambridge 
# Structural Database, then it will include bibliographic, chemical, 
# crystal, experimental, refinement or atomic coordinate data resulting 
# from the CCDC's data processing and validation procedures.
#
#######################################################################

data_WEHPIJ
_symmetry_cell_setting           monoclinic
_symmetry_space_group_name_H-M   'C 2/c'
_symmetry_Int_Tables_number      15
_space_group_name_Hall           '-C 2yn'
loop_
_symmetry_equiv_pos_site_id
_symmetry_equiv_pos_as_xyz
1 x,y,z
2 1/2+x,1/2+y,z
3 -x,y,1/2-z
4 1/2-x,1/2+y,1/2-z
5 -x,-y,-z
6 1/2-x,1/2-y,-z
7 x,-y,1/2+z
8 1/2+x,1/2-y,1/2+z
_cell_length_a                   20.681(4)
_cell_length_b                   14.1352(17)
_cell_length_c                   19.564(4)
_cell_angle_alpha                90
_cell_angle_beta                 107.482(15)
_cell_angle_gamma                90
_cell_volume                     5454.99
loop_
_atom_site_label
_atom_site_type_symbol
_atom_site_fract_x
_atom_site_fract_y
_atom_site_fract_z
O4 O 0.2164(3) -0.1281(2) 0.5275(2)
O5 O 0.3131(3) -0.2193(3) 0.5987(2)
O6 O 0.1995(3) -0.2855(2) 0.5676(2)
S1 S 0.24303(11) -0.22028(9) 0.54637(9)
O4E O 0.2836(3) -0.3719(2) 0.4725(2)
O5E O 0.1869(3) -0.2807(3) 0.4013(2)
O6E O 0.3005(3) -0.2145(2) 0.4324(2)
S1E S 0.25697(11) -0.27972(9) 0.45363(9)
C1 C 0.3170(3) 0.4779(3) 0.5926(2)
H1 H 0.3121 0.5000 0.5465
C2 C 0.3118(3) 0.5397(2) 0.6447(2)
H2 H 0.3025 0.6031 0.6332
C3 C 0.3199(2) 0.5101(2) 0.71291(19)
C4 C 0.3346(3) 0.4155(3) 0.7272(2)
H3 H 0.3420 0.3924 0.7735
C5 C 0.3382(3) 0.3558(3) 0.6737(2)
H4 H 0.3474 0.2920 0.6838
C6 C 0.3043(3) 0.7359(2) 0.8080(2)
H5 H 0.3012 0.8004 0.7984
C7 C 0.3104(3) 0.6747(3) 0.7563(2)
H6 H 0.3116 0.6977 0.7121
C8 C 0.3149(2) 0.5784(2) 0.76989(19)
C9 C 0.3157(2) 0.5495(2) 0.8370(2)
H7 H 0.3202 0.4854 0.8482
C10 C 0.3102(2) 0.6131(2) 0.8879(2)
H8 H 0.3117 0.5922 0.9334
C11 C 0.3565(2) 0.0001(2) 0.5140(3)
H9 H 0.3196 -0.0392 0.5104
C12 C 0.4130(3) -0.0353(3) 0.5023(3)
H10 H 0.4139 -0.0991 0.4910
C13 C 0.4686(2) 0.0184(2) 0.5063(2)
C14 C 0.4645(2) 0.1121(3) 0.5251(3)
H11 H 0.5014 0.1519 0.5300
C15 C 0.4072(2) 0.1467(3) 0.5364(3)
H12 H 0.4055 0.2101 0.5484
N1 N 0.32887(17) 0.38716(19) 0.60743(16)
N2 N 0.30279(18) 0.70520(18) 0.87192(15)
N3 N 0.35358(17) 0.09204(19) 0.53080(17)
O1 O 0.33354(13) 0.32854(16) 0.55525(13)
O2 O 0.29572(15) 0.76951(14) 0.91933(13)
O3 O 0.29739(13) 0.12446(15) 0.54178(14)
Co1 Co 0.2500 0.2500 0.5000
C1E C 0.1830(3) 0.0221(3) 0.4074(2)
H1E H 0.1879 0.0000 0.4535
C2E C 0.1882(3) -0.0397(2) 0.3553(2)
H2E H 0.1975 -0.1031 0.3668
C3E C 0.1801(2) -0.0101(2) 0.28709(19)
C4E C 0.1654(3) 0.0845(3) 0.2728(2)
H3E H 0.1580 0.1076 0.2265
C5E C 0.1618(3) 0.1442(3) 0.3263(2)
H4E H 0.1526 0.2080 0.3162
C6E C 0.1957(3) -0.2359(2) 0.1920(2)
H5E H 0.1988 -0.3004 0.2016
C7E C 0.1896(3) -0.1747(3) 0.2437(2)
H6E H 0.1884 -0.1977 0.2879
C8E C 0.1851(2) -0.0784(2) 0.23011(19)
C9E C 0.1843(2) -0.0495(2) 0.1630(2)
H7E H 0.1798 0.0146 0.1518
C10E C 0.1898(2) -0.1131(2) 0.1121(2)
H8E H 0.1883 -0.0922 0.0666
C11D C 0.6435(2) -0.0001(2) 0.4860(3)
H9D H 0.6804 0.0392 0.4896
C12D C 0.5870(3) 0.0353(3) 0.4977(3)
H10D H 0.5861 0.0991 0.5090
C13D C 0.5314(2) -0.0184(2) 0.4937(2)
C14D C 0.5355(2) -0.1121(3) 0.4749(3)
H11D H 0.4986 -0.1519 0.4700
C15D C 0.5928(2) -0.1467(3) 0.4636(3)
H12D H 0.5945 -0.2101 0.4516
N1E N 0.17113(17) 0.11284(19) 0.39257(16)
N2E N 0.19721(18) -0.20520(18) 0.12808(15)
N3D N 0.64642(17) -0.09204(19) 0.46920(17)
O1E O 0.16646(13) 0.17146(16) 0.44475(13)
O2E O 0.20428(15) -0.26951(14) 0.08067(13)
O2F O 0.29572(15) 0.23049(14) 0.41933(13)
O2C O 0.20428(15) 0.26951(14) 0.58067(13)
O3D O 0.70261(13) -0.12446(15) 0.45822(14)
O3E O 0.20261(13) 0.37554(15) 0.45822(14)
Co1F Co 0.2500 0.7500 1.0000
Co1A Co 0.7500 -0.2500 0.5000
Co1F_2 Co 0.2500 -0.2500 0.0000
loop_
_geom_bond_atom_site_label_1
_geom_bond_atom_site_label_2
_geom_bond_site_symmetry_1
_geom_bond_site_symmetry_2
C1 H1 1_555 1_555
C2 C1 1_555 1_555
H2 C2 1_555 1_555
C3 C2 1_555 1_555
C4 C3 1_555 1_555
H3 C4 1_555 1_555
C5 C4 1_555 1_555
H4 C5 1_555 1_555
C6 H5 1_555 1_555
C7 C6 1_555 1_555
H6 C7 1_555 1_555
C8 C3 1_555 1_555
C9 C8 1_555 1_555
H7 C9 1_555 1_555
C10 C9 1_555 1_555
H8 C10 1_555 1_555
C11 H9 1_555 1_555
C12 C11 1_555 1_555
H10 C12 1_555 1_555
C13 C12 1_555 1_555
C14 C13 1_555 1_555
H11 C14 1_555 1_555
C15 C14 1_555 1_555
H12 C15 1_555 1_555
N1 C1 1_555 1_555
N2 C6 1_555 1_555
N3 C11 1_555 1_555
O1 N1 1_555 1_555
O2 N2 1_555 1_555
O3 N3 1_555 1_555
O4 S1 1_555 1_555
O5 S1 1_555 1_555
O6 S1 1_555 1_555
S1 S1E 1_555 1_555
Co1 O1 1_555 1_555
C1E H1E 1_555 1_555
C2E C1E 1_555 1_555
H2E C2E 1_555 1_555
C3E C2E 1_555 1_555
C4E C3E 1_555 1_555
H3E C4E 1_555 1_555
C5E C4E 1_555 1_555
H4E C5E 1_555 1_555
C6E H5E 1_555 1_555
C7E C6E 1_555 1_555
H6E C7E 1_555 1_555
C8E C3E 1_555 1_555
C9E C8E 1_555 1_555
H7E C9E 1_555 1_555
C10E C9E 1_555 1_555
H8E C10E 1_555 1_555
C11D H9D 1_555 1_555
C12D C11D 1_555 1_555
H10D C12D 1_555 1_555
C13D C13 1_555 1_555
C14D C13D 1_555 1_555
H11D C14D 1_555 1_555
C15D C14D 1_555 1_555
H12D C15D 1_555 1_555
N1E C1E 1_555 1_555
N2E C6E 1_555 1_555
N3D C11D 1_555 1_555
O1E Co1 1_555 1_555
O2E N2E 1_555 1_555
O2F Co1 1_555 1_555
O2C Co1 1_555 1_555
O3D N3D 1_555 1_555
O3E Co1 1_555 1_555
O4E S1E 1_555 1_555
O5E S1E 1_555 1_555
O6E S1E 1_555 1_555
Co1F O2 1_555 1_555
Co1A O3D 1_555 1_555
Co1F_2 O2E 1_555 1_555
C5 N1 1_555 1_555
C7 C8 1_555 1_555
C10 N2 1_555 1_555
C15 N3 1_555 1_555
O3 Co1 1_555 1_555
C5E N1E 1_555 1_555
C7E C8E 1_555 1_555
C10E N2E 1_555 1_555
C12D C13D 1_555 1_555
C15D N3D 1_555 1_555
N1E O1E 1_555 1_555

#END
