
#######################################################################
#
#                 Cambridge Crystallographic Data Centre
#                                CCDC 
#
#######################################################################
#
# If this CIF has been generated from an entry in the Cambridge 
# Structural Database, then it will include bibliographic, chemical, 
# crystal, experimental, refinement or atomic coordinate data resulting 
# from the CCDC's data processing and validation procedures.
#
#######################################################################

data_WEHQIJ01
_symmetry_cell_setting           monoclinic
_symmetry_space_group_name_H-M   'P 21/n'
_symmetry_Int_Tables_number      14
_space_group_name_Hall           '-P 2yn'
loop_
_symmetry_equiv_pos_site_id
_symmetry_equiv_pos_as_xyz
1 x,y,z
2 1/2+x,1/2-y,1/2+z
3 -x,-y,-z
4 1/2-x,1/2+y,1/2-z
_cell_length_a                   7.5617(9)
_cell_length_b                   8.1640(10)
_cell_length_c                   18.340(2)
_cell_angle_alpha                90
_cell_angle_beta                 91.40(2)
_cell_angle_gamma                90
_cell_volume                     1131.86
loop_
_atom_site_label
_atom_site_type_symbol
_atom_site_fract_x
_atom_site_fract_y
_atom_site_fract_z
Zn1 Zn 0.17966(3) 0.14578(3) 0.389847(13)
S1 S -0.02654(8) 0.34601(6) 0.41652(3)
S2 S 0.25246(8) 0.01358(7) 0.49850(3)
O1 O 0.3798(2) 0.20789(19) 0.32829(8)
O2 O 0.4385(2) 0.4281(2) 0.39441(8)
O3 O 0.4245(2) 0.47627(18) 0.17656(8)
O4 O 0.4906(3) 0.66889(19) 0.25807(9)
C1 C 0.0395(3) 0.5125(3) 0.36508(12)
C2 C 0.3428(3) 0.1583(3) 0.55576(13)
C3 C 0.4603(3) 0.3418(3) 0.34109(12)
C4 C 0.4949(3) 0.5264(3) 0.23617(12)
C5 C 0.5869(3) 0.3974(3) 0.28286(12)
H1 H 0.6933 0.4427 0.3055
H2 H 0.6201 0.3050 0.2529
N1 N 0.0426(3) 0.6581(2) 0.39486(12)
H3 H 0.063(3) 0.743(3) 0.3689(12)
H4 H 0.014(4) 0.662(3) 0.4409(10)
N2 N 0.0757(3) 0.4926(2) 0.29608(10)
H5 H 0.109(3) 0.576(2) 0.2693(13)
H6 H 0.066(3) 0.3925(19) 0.2783(12)
N3 N 0.3781(3) 0.3083(3) 0.53670(12)
H7 H 0.427(3) 0.373(3) 0.5693(12)
H8 H 0.355(4) 0.344(3) 0.4913(10)
N4 N 0.3749(4) 0.1151(3) 0.62449(12)
H9 H 0.419(4) 0.185(3) 0.6569(15)
H10 H 0.339(4) 0.019(2) 0.6331(17)
O3C O 0.0755(2) -0.02373(18) 0.32344(8)
Zn1C Zn 0.32034(3) 0.64578(3) 0.110153(13)
loop_
_geom_bond_atom_site_label_1
_geom_bond_atom_site_label_2
_geom_bond_site_symmetry_1
_geom_bond_site_symmetry_2
Zn1 S1 1_555 1_555
S1 C1 1_555 1_555
S2 Zn1 1_555 1_555
O1 Zn1 1_555 1_555
O2 C3 1_555 1_555
O3 C4 1_555 1_555
O4 C4 1_555 1_555
C1 N1 1_555 1_555
C2 S2 1_555 1_555
C3 O1 1_555 1_555
C4 C5 1_555 1_555
C5 C3 1_555 1_555
H1 C5 1_555 1_555
H2 C5 1_555 1_555
N1 H3 1_555 1_555
H4 N1 1_555 1_555
N2 C1 1_555 1_555
H5 N2 1_555 1_555
H6 N2 1_555 1_555
N3 C2 1_555 1_555
H7 N3 1_555 1_555
H8 N3 1_555 1_555
N4 C2 1_555 1_555
H9 N4 1_555 1_555
H10 N4 1_555 1_555
O3C Zn1 1_555 1_555
Zn1C O3 1_555 1_555

#END
