
#######################################################################
#
#                 Cambridge Crystallographic Data Centre
#                                CCDC 
#
#######################################################################
#
# If this CIF has been generated from an entry in the Cambridge 
# Structural Database, then it will include bibliographic, chemical, 
# crystal, experimental, refinement or atomic coordinate data resulting 
# from the CCDC's data processing and validation procedures.
#
#######################################################################

data_WEHQAC
_symmetry_cell_setting           orthorhombic
_symmetry_space_group_name_H-M   'F d d d'
_symmetry_Int_Tables_number      70
_space_group_name_Hall           '-F 2uv 2vw'
loop_
_symmetry_equiv_pos_site_id
_symmetry_equiv_pos_as_xyz
1 x,y,z
2 x,1/2+y,1/2+z
3 x,1/4-y,1/4-z
4 1/2+x,y,1/2+z
5 1/4-x,y,1/4-z
6 1/2+x,1/2+y,z
7 1/4-x,1/4-y,z
8 3/4-x,3/4-y,z
9 3/4-x,y,3/4-z
10 x,3/4-y,3/4-z
11 3/4-x,1/4-y,1/2+z
12 3/4-x,1/2+y,1/4-z
13 1/4-x,3/4-y,1/2+z
14 1/2+x,3/4-y,1/4-z
15 1/4-x,1/2+y,3/4-z
16 1/2+x,1/4-y,3/4-z
17 -x,-y,-z
18 -x,1/2-y,1/2-z
19 -x,3/4+y,3/4+z
20 1/2-x,-y,1/2-z
21 3/4+x,-y,3/4+z
22 1/2-x,1/2-y,-z
23 3/4+x,3/4+y,-z
24 1/4+x,1/4+y,-z
25 1/4+x,-y,1/4+z
26 -x,1/4+y,1/4+z
27 1/4+x,3/4+y,1/2-z
28 1/4+x,1/2-y,3/4+z
29 3/4+x,1/4+y,1/2-z
30 1/2-x,1/4+y,3/4+z
31 3/4+x,1/2-y,1/4+z
32 1/2-x,3/4+y,1/4+z
_cell_length_a                   19.008(3)
_cell_length_b                   24.794(4)
_cell_length_c                   34.955(6)
_cell_angle_alpha                90
_cell_angle_beta                 90
_cell_angle_gamma                90
_cell_volume                     16473.7
loop_
_atom_site_label
_atom_site_type_symbol
_atom_site_fract_x
_atom_site_fract_y
_atom_site_fract_z
Ag1 Ag 0.6250 0.6250 0.573515(15)
N1 N 0.51974(17) 0.62142(15) 0.60512(10)
N2 N -0.0968(3) 0.8080(2) 0.47246(17)
C1 C 0.4549(2) 0.61895(17) 0.59477(13)
C2 C 0.4250(2) 0.61138(18) 0.55667(15)
C3 C 0.4611(2) 0.5827(2) 0.52920(15)
H1 H 0.5043 0.5671 0.5349
C4 C 0.4327(3) 0.5773(2) 0.49339(17)
H2 H 0.4570 0.5580 0.4748
C5 C 0.3683(3) 0.6002(2) 0.48449(18)
H3 H 0.3496 0.5958 0.4601
C6 C 0.3319(3) 0.6292(2) 0.51136(16)
C7 C 0.3603(2) 0.63472(19) 0.54792(15)
H4 H 0.3360 0.6540 0.5665
C8 C 0.2663(3) 0.6553(2) 0.50243(17)
C9 C 0.2128(3) 0.6780(3) 0.49648(18)
C10 C 0.1463(3) 0.7050(2) 0.4910(2)
C11 C 0.1098(3) 0.7009(3) 0.4565(2)
H5 H 0.1286 0.6809 0.4365
C12 C 0.0461(3) 0.7265(3) 0.4522(2)
H6 H 0.0215 0.7233 0.4293
C13 C 0.0189(3) 0.7566(3) 0.4816(2)
C14 C -0.0463(3) 0.7851(3) 0.47648(19)
C15 C 0.0557(3) 0.7613(3) 0.5155(2)
H7 H 0.0377 0.7818 0.5355
C16 C 0.1191(3) 0.7354(3) 0.5195(2)
H8 H 0.1438 0.7389 0.5423
O1 O 0.4104(2) 0.6250 0.6250
Ag1B Ag 0.6250 0.6250 0.676485(15)
Ag1W Ag -0.1250 0.8750 0.426485(15)
Ag1X Ag -0.1250 0.3750 0.823515(15)
Ag1P Ag 1.3750 0.3750 0.426485(15)
Ag1Y Ag 1.3750 0.8750 0.823515(15)
N1B N 0.51974(17) 0.62858(15) 0.64488(10)
N1F N 0.73026(17) 0.62858(15) 0.60512(10)
N1D N 0.73026(17) 0.62142(15) 0.64488(10)
N2B N -0.0968(3) 0.4420(2) 0.77754(17)
N2F N 1.3468(3) 0.4420(2) 0.47246(17)
N2D N 1.3468(3) 0.8080(2) 0.77754(17)
N2U N 0.5968(3) 0.6920(2) 0.52754(17)
N2V N 0.6532(3) 0.5580(2) 0.52754(17)
N2DA N 0.6532(3) 0.6920(2) 0.72246(17)
N2EA N 0.5968(3) 0.5580(2) 0.72246(17)
C1B C 0.4549(2) 0.63105(17) 0.65523(13)
C1F C 0.7951(2) 0.63105(17) 0.59477(13)
C1D C 0.7951(2) 0.61895(17) 0.65523(13)
C2B C 0.4250(2) 0.63862(18) 0.69333(15)
C2F C 0.8250(2) 0.63862(18) 0.55667(15)
C2D C 0.8250(2) 0.61138(18) 0.69333(15)
C3B C 0.4611(2) 0.6673(2) 0.72080(15)
C3F C 0.7889(2) 0.6673(2) 0.52920(15)
C3D C 0.7889(2) 0.5827(2) 0.72080(15)
H1B H 0.5043 0.6829 0.7151
H1F H 0.7457 0.6829 0.5349
H1D H 0.7457 0.5671 0.7151
C4B C 0.4327(3) 0.6727(2) 0.75661(17)
C4F C 0.8173(3) 0.6727(2) 0.49339(17)
C4D C 0.8173(3) 0.5773(2) 0.75661(17)
H2B H 0.4570 0.6920 0.7752
H2F H 0.7930 0.6920 0.4748
H2D H 0.7930 0.5580 0.7752
C5B C 0.3683(3) 0.6498(2) 0.76551(18)
C5F C 0.8817(3) 0.6498(2) 0.48449(18)
C5D C 0.8817(3) 0.6002(2) 0.76551(18)
H3B H 0.3496 0.6542 0.7899
H3F H 0.9004 0.6542 0.4601
H3D H 0.9004 0.5958 0.7899
C6B C 0.3319(3) 0.6208(2) 0.73864(16)
C6F C 0.9181(3) 0.6208(2) 0.51136(16)
C6D C 0.9181(3) 0.6292(2) 0.73864(16)
C7B C 0.3603(2) 0.61528(19) 0.70208(15)
C7F C 0.8897(2) 0.61528(19) 0.54792(15)
C7D C 0.8897(2) 0.63472(19) 0.70208(15)
H4B H 0.3360 0.5960 0.6835
H4F H 0.9140 0.5960 0.5665
H4D H 0.9140 0.6540 0.6835
C8B C 0.2663(3) 0.5947(2) 0.74757(17)
C8F C 0.9837(3) 0.5947(2) 0.50243(17)
C8D C 0.9837(3) 0.6553(2) 0.74757(17)
C9B C 0.2128(3) 0.5720(3) 0.75352(18)
C9F C 1.0372(3) 0.5720(3) 0.49648(18)
C9D C 1.0372(3) 0.6780(3) 0.75352(18)
C10B C 0.1463(3) 0.5450(2) 0.7590(2)
C10F C 1.1037(3) 0.5450(2) 0.4910(2)
C10D C 1.1037(3) 0.7050(2) 0.7590(2)
C11B C 0.1098(3) 0.5491(3) 0.7935(2)
C11F C 1.1402(3) 0.5491(3) 0.4565(2)
C11D C 1.1402(3) 0.7009(3) 0.7935(2)
H5B H 0.1286 0.5691 0.8135
H5F H 1.1214 0.5691 0.4365
H5D H 1.1214 0.6809 0.8135
C12B C 0.0461(3) 0.5235(3) 0.7978(2)
C12F C 1.2039(3) 0.5235(3) 0.4522(2)
C12D C 1.2039(3) 0.7265(3) 0.7978(2)
H6B H 0.0215 0.5267 0.8207
H6F H 1.2285 0.5267 0.4293
H6D H 1.2285 0.7233 0.8207
C13B C 0.0189(3) 0.4934(3) 0.7684(2)
C13F C 1.2311(3) 0.4934(3) 0.4816(2)
C13D C 1.2311(3) 0.7566(3) 0.7684(2)
C14B C -0.0463(3) 0.4649(3) 0.77352(19)
C14F C 1.2963(3) 0.4649(3) 0.47648(19)
C14D C 1.2963(3) 0.7851(3) 0.77352(19)
C15B C 0.0557(3) 0.4887(3) 0.7345(2)
C15F C 1.1943(3) 0.4887(3) 0.5155(2)
C15D C 1.1943(3) 0.7613(3) 0.7345(2)
H7B H 0.0377 0.4682 0.7145
H7F H 1.2123 0.4682 0.5355
H7D H 1.2123 0.7818 0.7145
C16B C 0.1191(3) 0.5146(3) 0.7305(2)
C16F C 1.1309(3) 0.5146(3) 0.5195(2)
C16D C 1.1309(3) 0.7354(3) 0.7305(2)
H8B H 0.1438 0.5111 0.7077
H8F H 1.1062 0.5111 0.5423
H8D H 1.1062 0.7389 0.7077
O1D O 0.8396(2) 0.6250 0.6250
C17 C 0.3750 0.8750 0.4151(5)
H9 H 0.3750 0.8750 0.4417
C18 C 0.3213(8) 0.8721(11) 0.3913(3)
H10 H 0.2779 0.8643 0.4023
C17H C 0.3750 0.8750 0.3349(5)
H9H H 0.3750 0.8750 0.3083
C18I C 0.3213(8) 0.8779(11) 0.3587(3)
C18H C 0.4287(8) 0.8721(11) 0.3587(3)
C18G C 0.4287(8) 0.8779(11) 0.3913(3)
H10G H 0.4721 0.8857 0.4023
H10H H 0.4721 0.8643 0.3477
H10I H 0.2779 0.8857 0.3477
C19 C 0.2505(14) 0.7363(9) 0.3834(5)
H11 H 0.2718 0.7616 0.3992
C20 C 0.2774(10) 0.6855(13) 0.3809(5)
H12 H 0.3172 0.6756 0.3947
C21 C 0.2439(14) 0.6501(6) 0.3578(8)
H13 H 0.2550 0.6136 0.3593
C22 C 0.1946(14) 0.6669(10) 0.3323(6)
H14 H 0.1835 0.6463 0.3109
C23 C 0.1620(7) 0.7147(12) 0.3391(6)
H15 H 0.1193 0.7227 0.3274
C24 C 0.1926(15) 0.7501(7) 0.3629(6)
H16 H 0.1738 0.7845 0.3655
B1 B 0.6250 0.7686(9) 0.6250
F2 F 0.5514(7) 0.7587(5) 0.6439(5)
F3 F 0.6477(4) 0.7985(3) 0.65180(18)
F2D F 0.6986(7) 0.7587(5) 0.6061(5)
F3D F 0.6023(4) 0.7985(3) 0.59820(18)
F1? F 0.6250 0.7218(4) 0.6250
loop_
_geom_bond_atom_site_label_1
_geom_bond_atom_site_label_2
_geom_bond_site_symmetry_1
_geom_bond_site_symmetry_2
Ag1 N1 1_555 1_555
N1 C1 1_555 1_555
N2 C14 1_555 1_555
C1 C2 1_555 1_555
C2 C3 1_555 1_555
C3 H1 1_555 1_555
C4 C3 1_555 1_555
H2 C4 1_555 1_555
C5 C4 1_555 1_555
H3 C5 1_555 1_555
C6 C5 1_555 1_555
C7 C2 1_555 1_555
H4 C7 1_555 1_555
C8 C6 1_555 1_555
C9 C8 1_555 1_555
C10 C9 1_555 1_555
C11 C10 1_555 1_555
H5 C11 1_555 1_555
C12 C11 1_555 1_555
H6 C12 1_555 1_555
C13 C12 1_555 1_555
C14 C13 1_555 1_555
C15 C13 1_555 1_555
H7 C15 1_555 1_555
C16 C10 1_555 1_555
H8 C16 1_555 1_555
C17 H9 1_555 1_555
C18 C17 1_555 1_555
H10 C18 1_555 1_555
C19 H11 1_555 1_555
C20 C19 1_555 1_555
H12 C20 1_555 1_555
C21 C20 1_555 1_555
H13 C21 1_555 1_555
C22 C21 1_555 1_555
H14 C22 1_555 1_555
C23 C22 1_555 1_555
H15 C23 1_555 1_555
C24 C19 1_555 1_555
H16 C24 1_555 1_555
B1 F2 1_555 1_555
F3 B1 1_555 1_555
O1 C1 1_555 1_555
Ag1B N1B 1_555 1_555
Ag1W N2 1_555 1_555
Ag1X N2B 1_555 1_555
Ag1P N2F 1_555 1_555
Ag1Y N2D 1_555 1_555
N1B N1 1_555 1_555
N1F Ag1 1_555 1_555
N1D Ag1B 1_555 1_555
N2B C14B 1_555 1_555
N2F C14F 1_555 1_555
N2D C14D 1_555 1_555
N2U Ag1 1_555 1_555
N2V Ag1 1_555 1_555
N2DA Ag1B 1_555 1_555
N2EA Ag1B 1_555 1_555
C1B O1 1_555 1_555
C1F N1F 1_555 1_555
C1D N1D 1_555 1_555
C2B C1B 1_555 1_555
C2F C1F 1_555 1_555
C2D C1D 1_555 1_555
C3B C2B 1_555 1_555
C3F C2F 1_555 1_555
C3D C2D 1_555 1_555
H1B C3B 1_555 1_555
H1F C3F 1_555 1_555
H1D C3D 1_555 1_555
C4B C3B 1_555 1_555
C4F C3F 1_555 1_555
C4D C3D 1_555 1_555
H2B C4B 1_555 1_555
H2F C4F 1_555 1_555
H2D C4D 1_555 1_555
C5B C4B 1_555 1_555
C5F C4F 1_555 1_555
C5D C4D 1_555 1_555
H3B C5B 1_555 1_555
H3F C5F 1_555 1_555
H3D C5D 1_555 1_555
C6B C5B 1_555 1_555
C6F C5F 1_555 1_555
C6D C5D 1_555 1_555
C7B C2B 1_555 1_555
C7F C2F 1_555 1_555
C7D C2D 1_555 1_555
H4B C7B 1_555 1_555
H4F C7F 1_555 1_555
H4D C7D 1_555 1_555
C8B C6B 1_555 1_555
C8F C6F 1_555 1_555
C8D C6D 1_555 1_555
C9B C8B 1_555 1_555
C9F C8F 1_555 1_555
C9D C8D 1_555 1_555
C10B C9B 1_555 1_555
C10F C9F 1_555 1_555
C10D C9D 1_555 1_555
C11B C10B 1_555 1_555
C11F C10F 1_555 1_555
C11D C10D 1_555 1_555
H5B C11B 1_555 1_555
H5F C11F 1_555 1_555
H5D C11D 1_555 1_555
C12B C11B 1_555 1_555
C12F C11F 1_555 1_555
C12D C11D 1_555 1_555
H6B C12B 1_555 1_555
H6F C12F 1_555 1_555
H6D C12D 1_555 1_555
C13B C12B 1_555 1_555
C13F C12F 1_555 1_555
C13D C12D 1_555 1_555
C14B C13B 1_555 1_555
C14F C13F 1_555 1_555
C14D C13D 1_555 1_555
C15B C13B 1_555 1_555
C15F C13F 1_555 1_555
C15D C13D 1_555 1_555
H7B C15B 1_555 1_555
H7F C15F 1_555 1_555
H7D C15D 1_555 1_555
C16B C10B 1_555 1_555
C16F C10F 1_555 1_555
C16D C10D 1_555 1_555
H8B C16B 1_555 1_555
H8F C16F 1_555 1_555
H8D C16D 1_555 1_555
C17H H9H 1_555 1_555
C18I C18 1_555 1_555
C18H C17H 1_555 1_555
C18G C17 1_555 1_555
H10G C18G 1_555 1_555
H10H C18H 1_555 1_555
H10I C18I 1_555 1_555
F2D B1 1_555 1_555
F3D B1 1_555 1_555
O1D C1F 1_555 1_555
C6 C7 1_555 1_555
C15 C16 1_555 1_555
C23 C24 1_555 1_555
N1B C1B 1_555 1_555
N1F N1D 1_555 1_555
C1D O1D 1_555 1_555
C6B C7B 1_555 1_555
C6F C7F 1_555 1_555
C6D C7D 1_555 1_555
C15B C16B 1_555 1_555
C15F C16F 1_555 1_555
C15D C16D 1_555 1_555
C17H C18I 1_555 1_555
C18H C18G 1_555 1_555

#END
