
#######################################################################
#
#                 Cambridge Crystallographic Data Centre
#                                CCDC 
#
#######################################################################
#
# If this CIF has been generated from an entry in the Cambridge 
# Structural Database, then it will include bibliographic, chemical, 
# crystal, experimental, refinement or atomic coordinate data resulting 
# from the CCDC's data processing and validation procedures.
#
#######################################################################

data_WEHQEF
_symmetry_cell_setting           orthorhombic
_symmetry_space_group_name_H-M   'P 21 21 21'
_symmetry_Int_Tables_number      19
_space_group_name_Hall           'P 2ac 2ab'
loop_
_symmetry_equiv_pos_site_id
_symmetry_equiv_pos_as_xyz
1 x,y,z
2 1/2-x,-y,1/2+z
3 1/2+x,1/2-y,-z
4 -x,1/2+y,1/2-z
_cell_length_a                   8.14050(10)
_cell_length_b                   9.6384(2)
_cell_length_c                   14.8755(4)
_cell_angle_alpha                90
_cell_angle_beta                 90
_cell_angle_gamma                90
_cell_volume                     1167.15
loop_
_atom_site_label
_atom_site_type_symbol
_atom_site_fract_x
_atom_site_fract_y
_atom_site_fract_z
Cd1 Cd 0.2813(1) 0.4565(1) 0.1264(1)
S1 S 0.4575(1) 0.6724(1) 0.1316(1)
S2 S 0.0881(1) 0.4321(1) 0.2570(1)
O1 O 0.2588(2) 0.4046(2) -0.0219(1)
O2 O 0.0465(2) 0.5302(3) 0.0169(1)
O3 O -0.2220(2) 0.3689(2) -0.1368(1)
O4 O -0.0234(2) 0.2093(2) -0.1354(2)
N1 N 0.7692(3) 0.6784(3) 0.0861(2)
N2 N 0.6074(3) 0.5490(3) -0.0067(2)
N3 N -0.2244(3) 0.3945(3) 0.2202(2)
N4 N -0.0474(3) 0.2603(2) 0.1387(2)
C1 C 0.6243(3) 0.6289(3) 0.0657(2)
C2 C -0.0748(3) 0.3557(3) 0.1998(2)
C3 C 0.1230(3) 0.4628(3) -0.0402(2)
C4 C 0.0561(3) 0.4462(3) -0.1347(2)
C5 C -0.0752(3) 0.3338(3) -0.1364(2)
H1 H 0.8526(3) 0.6594(3) 0.0528(2)
H2 H 0.7811(3) 0.7301(3) 0.1328(2)
H3 H 0.6913(3) 0.5304(3) -0.0397(2)
H4 H 0.5125(3) 0.5160(3) -0.0206(2)
H5 H -0.3069(3) 0.3574(3) 0.1934(2)
H6 H -0.2400(3) 0.4572(3) 0.2605(2)
H7 H -0.1286(3) 0.2220(2) 0.1112(2)
H8 H 0.0516(3) 0.2360(2) 0.1262(2)
H9 H 0.1446(3) 0.4215(3) -0.1753(2)
H10 H 0.0093(3) 0.5334(3) -0.1549(2)
Cd1B Cd -0.2187(1) 0.0435(1) -0.1264(1)
O4B O 0.4766(2) 0.2907(2) 0.1354(2)
loop_
_geom_bond_atom_site_label_1
_geom_bond_atom_site_label_2
_geom_bond_site_symmetry_1
_geom_bond_site_symmetry_2
Cd1 S1 1_555 1_555
S1 C1 1_555 1_555
S2 Cd1 1_555 1_555
O1 Cd1 1_555 1_555
O2 Cd1 1_555 1_555
O3 C5 1_555 1_555
O4 C5 1_555 1_555
N1 C1 1_555 1_555
N2 C1 1_555 1_555
N3 C2 1_555 1_555
N4 C2 1_555 1_555
C2 S2 1_555 1_555
C3 O1 1_555 1_555
C4 C3 1_555 1_555
C5 C4 1_555 1_555
H1 N1 1_555 1_555
H2 N1 1_555 1_555
H3 N2 1_555 1_555
H4 N2 1_555 1_555
H5 N3 1_555 1_555
H6 N3 1_555 1_555
H7 N4 1_555 1_555
H8 N4 1_555 1_555
H9 C4 1_555 1_555
H10 C4 1_555 1_555
Cd1B O4 1_555 1_555
O4B Cd1 1_555 1_555
O2 C3 1_555 1_555

#END
