
#######################################################################
#
#                 Cambridge Crystallographic Data Centre
#                                CCDC 
#
#######################################################################
#
# If this CIF has been generated from an entry in the Cambridge 
# Structural Database, then it will include bibliographic, chemical, 
# crystal, experimental, refinement or atomic coordinate data resulting 
# from the CCDC's data processing and validation procedures.
#
#######################################################################

data_WEHQIJ
_symmetry_cell_setting           monoclinic
_symmetry_space_group_name_H-M   'P 21/n'
_symmetry_Int_Tables_number      14
_space_group_name_Hall           '-P 2yn'
loop_
_symmetry_equiv_pos_site_id
_symmetry_equiv_pos_as_xyz
1 x,y,z
2 1/2+x,1/2-y,1/2+z
3 -x,-y,-z
4 1/2-x,1/2+y,1/2-z
_cell_length_a                   7.503(2)
_cell_length_b                   8.199(7)
_cell_length_c                   18.36(1)
_cell_angle_alpha                90
_cell_angle_beta                 90.05(1)
_cell_angle_gamma                90
_cell_volume                     1129.45
loop_
_atom_site_label
_atom_site_type_symbol
_atom_site_fract_x
_atom_site_fract_y
_atom_site_fract_z
S1 S -0.2477(1) 0.4870(1) 0.50038(5)
S2 S -0.5305(1) 0.1559(1) 0.41715(5)
O1 O -0.1170(4) 0.2955(3) 0.3293(1)
O2 O -0.0637(4) 0.0714(3) 0.3938(1)
O3 O -0.0122(5) -0.1676(3) 0.2574(2)
O4 O -0.0764(4) 0.0262(3) 0.1752(1)
Zn1 Zn -0.32120(6) 0.35697(5) 0.39136(2)
N1 N -0.1243(5) 0.1885(5) 0.5370(2)
N2 N -0.1179(5) 0.3829(4) 0.6252(2)
N3 N -0.4592(5) -0.1560(4) 0.3953(2)
N4 N -0.4225(5) 0.0110(4) 0.2963(2)
C1 C -0.0378(5) 0.1589(5) 0.3408(2)
C2 C 0.0894(5) 0.1031(5) 0.2815(2)
C3 C -0.0055(5) -0.0243(5) 0.2350(2)
C4 C -0.1558(6) 0.3399(5) 0.5568(2)
C5 C -0.4611(5) -0.0106(5) 0.3655(2)
H1 H -0.0757 0.11313 0.5712
H2 H -0.1503 0.1546 0.4885
H3 H -0.0692 0.3050 0.6583
H4 H -0.1393 0.4914 0.6409
H5 H -0.4874 -0.1686 0.4452
H6 H -0.4292 -0.2487 0.3669
H7 H -0.4248 0.1175 0.2759
H8 H -0.3922 -0.0799 0.2669
H9 H 0.1216 0.1935 0.2521
H10 H 0.1936 0.0572 0.3033
O4C O -0.4236(4) 0.5262(3) 0.3248(1)
Zn1C Zn -0.17880(6) -0.14303(5) 0.10864(2)
loop_
_geom_bond_atom_site_label_1
_geom_bond_atom_site_label_2
_geom_bond_site_symmetry_1
_geom_bond_site_symmetry_2
S1 Zn1 1_555 1_555
S2 Zn1 1_555 1_555
O1 Zn1 1_555 1_555
O2 C1 1_555 1_555
O3 C3 1_555 1_555
O4 C3 1_555 1_555
Zn1 O4C 1_555 1_555
N1 C4 1_555 1_555
N2 C4 1_555 1_555
N3 C5 1_555 1_555
N4 C5 1_555 1_555
C1 O1 1_555 1_555
C2 C1 1_555 1_555
C3 C2 1_555 1_555
C4 S1 1_555 1_555
C5 S2 1_555 1_555
H1 N1 1_555 1_555
H2 N1 1_555 1_555
H3 N2 1_555 1_555
H4 N2 1_555 1_555
H5 N3 1_555 1_555
H6 N3 1_555 1_555
H7 N4 1_555 1_555
H8 N4 1_555 1_555
H9 C2 1_555 1_555
H10 C2 1_555 1_555
Zn1C O4 1_555 1_555

#END
