
#######################################################################
#
#                 Cambridge Crystallographic Data Centre
#                                CCDC 
#
#######################################################################
#
# If this CIF has been generated from an entry in the Cambridge 
# Structural Database, then it will include bibliographic, chemical, 
# crystal, experimental, refinement or atomic coordinate data resulting 
# from the CCDC's data processing and validation procedures.
#
#######################################################################

data_WEHQIJ02
_symmetry_cell_setting           orthorhombic
_symmetry_space_group_name_H-M   'P 21 21 21'
_symmetry_Int_Tables_number      19
_space_group_name_Hall           'P 2ac 2ab'
loop_
_symmetry_equiv_pos_site_id
_symmetry_equiv_pos_as_xyz
1 x,y,z
2 1/2-x,-y,1/2+z
3 1/2+x,1/2-y,-z
4 -x,1/2+y,1/2-z
_cell_length_a                   9.481(2)
_cell_length_b                   14.710(8)
_cell_length_c                   8.076(1)
_cell_angle_alpha                90
_cell_angle_beta                 90
_cell_angle_gamma                90
_cell_volume                     1126.32
loop_
_atom_site_label
_atom_site_type_symbol
_atom_site_fract_x
_atom_site_fract_y
_atom_site_fract_z
Zn1 Zn -0.4551(1) 0.37397(8) 0.2123(2)
S1 S -0.6694(4) 0.3649(2) 0.0548(5)
S2 S -0.4356(4) 0.2524(3) 0.4053(5)
O1 O -0.0924(9) 0.4859(6) -0.253(1)
O2 O 0.0430(10) 0.5166(7) -0.035(1)
O3 O -0.1279(9) 0.3613(6) 0.225(1)
O4 O -0.2952(9) 0.3669(7) 0.029(1)
N1 N -0.261(1) 0.3720(8) 0.543(2)
N2 N -0.401(1) 0.2887(8) 0.724(2)
N3 N -0.560(1) 0.5083(8) -0.107(2)
N4 N -0.693(1) 0.4116(7) -0.259(1)
C1 C -0.161(1) 0.3624(10) 0.078(2)
C2 C -0.059(2) 0.3642(8) -0.063(2)
C3 C -0.356(1) 0.3085(9) 0.574(2)
C4 C -0.031(1) 0.4633(9) -0.109(2)
C5 C -0.633(1) 0.4320(9) -0.114(2)
H1 H -0.2153 0.4062 0.6267
H2 H -0.2343 0.3846 0.4281
H3 H -0.3587 0.3193 0.8201
H4 H -0.4676 0.2433 0.7429
H5 H -0.5162 0.5234 0.0025
H6 H -0.5494 0.5507 -0.1913
H7 H -0.7480 0.3569 -0.2754
H8 H -0.6869 0.4518 -0.3559
H9 H 0.0317 0.3332 -0.0443
H10 H -0.0967 0.3325 -0.1633
O1A O -0.4076(9) 0.5141(6) 0.247(1)
Zn1A Zn -0.0449(1) 0.62603(8) -0.2877(2)
loop_
_geom_bond_atom_site_label_1
_geom_bond_atom_site_label_2
_geom_bond_site_symmetry_1
_geom_bond_site_symmetry_2
Zn1 S1 1_555 1_555
S1 C5 1_555 1_555
S2 Zn1 1_555 1_555
O1 C4 1_555 1_555
O2 C4 1_555 1_555
O3 C1 1_555 1_555
O4 Zn1 1_555 1_555
N1 C3 1_555 1_555
N2 C3 1_555 1_555
N3 C5 1_555 1_555
N4 C5 1_555 1_555
C1 O4 1_555 1_555
C2 C1 1_555 1_555
C3 S2 1_555 1_555
C4 C2 1_555 1_555
H1 N1 1_555 1_555
H2 N1 1_555 1_555
H3 N2 1_555 1_555
H4 N2 1_555 1_555
H5 N3 1_555 1_555
H6 N3 1_555 1_555
H7 N4 1_555 1_555
H8 N4 1_555 1_555
H9 C2 1_555 1_555
H10 C2 1_555 1_555
O1A Zn1 1_555 1_555
Zn1A O1 1_555 1_555

#END
