
#######################################################################
#
#                 Cambridge Crystallographic Data Centre
#                                CCDC 
#
#######################################################################
#
# If this CIF has been generated from an entry in the Cambridge 
# Structural Database, then it will include bibliographic, chemical, 
# crystal, experimental, refinement or atomic coordinate data resulting 
# from the CCDC's data processing and validation procedures.
#
#######################################################################

data_WEHQOP
_symmetry_cell_setting           orthorhombic
_symmetry_space_group_name_H-M   'P 21 21 21'
_symmetry_Int_Tables_number      19
_space_group_name_Hall           'P 2ac 2ab'
loop_
_symmetry_equiv_pos_site_id
_symmetry_equiv_pos_as_xyz
1 x,y,z
2 1/2-x,-y,1/2+z
3 1/2+x,1/2-y,-z
4 -x,1/2+y,1/2-z
_cell_length_a                   9.629(4)
_cell_length_b                   14.851(3)
_cell_length_c                   8.123(4)
_cell_angle_alpha                90
_cell_angle_beta                 90
_cell_angle_gamma                90
_cell_volume                     1161.59
loop_
_atom_site_label
_atom_site_type_symbol
_atom_site_fract_x
_atom_site_fract_y
_atom_site_fract_z
Cd1 Cd 0.45541(7) -0.12605(4) -0.28278(8)
S1 S 0.4321(3) -0.2550(2) -0.0910(3)
S2 S 0.6714(3) -0.1321(2) -0.4545(3)
O1 O 0.4070(7) 0.0195(4) -0.2543(10)
O2 O 0.5294(8) -0.0152(5) -0.0432(10)
O3 O 0.3707(8) 0.1364(4) 0.2229(7)
O4 O 0.2101(7) 0.1359(6) 0.0247(9)
N1 N 0.2594(9) -0.1323(7) 0.0480(10)
N2 N 0.3926(10) -0.2195(7) 0.2239(10)
N3 N 0.557(1) 0.0068(7) -0.607(1)
N4 N 0.6798(9) -0.0865(7) -0.765(1)
C1 C 0.4674(9) 0.0412(5) -0.124(1)
C2 C 0.4463(10) 0.1367(5) -0.057(1)
C3 C 0.3344(10) 0.1371(5) 0.072(1)
C4 C 0.362(1) -0.1945(6) 0.072(1)
C5 C 0.6296(10) -0.0661(6) -0.622(1)
H1 H 0.2083 -0.1100 0.1474
H2 H 0.2321 -0.1115 -0.0532
H3 H 0.3409 -0.1963 0.3188
H4 H 0.4632 -0.2619 0.2437
H5 H 0.5204 0.0215 -0.5018
H6 H 0.5425 0.0482 -0.6967
H7 H 0.7415 -0.1369 -0.7843
H8 H 0.6714 -0.0446 -0.8595
H9 H 0.5290 0.1583 -0.0121
H10 H 0.4180 0.1733 -0.1467
Cd1A Cd 0.04459(7) 0.12605(4) 0.21722(8)
O4A O 0.2899(7) -0.1359(6) -0.4753(9)
loop_
_geom_bond_atom_site_label_1
_geom_bond_atom_site_label_2
_geom_bond_site_symmetry_1
_geom_bond_site_symmetry_2
Cd1 S1 1_555 1_555
S1 C4 1_555 1_555
S2 Cd1 1_555 1_555
O1 Cd1 1_555 1_555
O2 Cd1 1_555 1_555
O3 C3 1_555 1_555
O4 C3 1_555 1_555
N1 C4 1_555 1_555
N2 C4 1_555 1_555
N3 C5 1_555 1_555
N4 C5 1_555 1_555
C1 O1 1_555 1_555
C2 C1 1_555 1_555
C3 C2 1_555 1_555
C5 S2 1_555 1_555
H1 N1 1_555 1_555
H2 N1 1_555 1_555
H3 N2 1_555 1_555
H4 N2 1_555 1_555
H5 N3 1_555 1_555
H6 N3 1_555 1_555
H7 N4 1_555 1_555
H8 N4 1_555 1_555
H9 C2 1_555 1_555
H10 C2 1_555 1_555
Cd1A O4 1_555 1_555
O4A Cd1 1_555 1_555
O2 C1 1_555 1_555

#END
