
#######################################################################
#
#                 Cambridge Crystallographic Data Centre
#                                CCDC 
#
#######################################################################
#
# If this CIF has been generated from an entry in the Cambridge 
# Structural Database, then it will include bibliographic, chemical, 
# crystal, experimental, refinement or atomic coordinate data resulting 
# from the CCDC's data processing and validation procedures.
#
#######################################################################

data_WEHQEG
_symmetry_cell_setting           orthorhombic
_symmetry_space_group_name_H-M   'F d d 2'
_symmetry_Int_Tables_number      43
_space_group_name_Hall           'F 2 -2d'
loop_
_symmetry_equiv_pos_site_id
_symmetry_equiv_pos_as_xyz
1 x,y,z
2 -x,-y,z
3 1/4+x,1/4-y,1/4+z
4 1/4-x,1/4+y,1/4+z
5 x,1/2+y,1/2+z
6 -x,1/2-y,1/2+z
7 1/4+x,3/4-y,3/4+z
8 1/4-x,3/4+y,3/4+z
9 1/2+x,y,1/2+z
10 1/2-x,-y,1/2+z
11 3/4+x,1/4-y,3/4+z
12 3/4-x,1/4+y,3/4+z
13 1/2+x,1/2+y,z
14 1/2-x,1/2-y,z
15 3/4+x,3/4-y,1/4+z
16 3/4-x,3/4+y,1/4+z
_cell_length_a                   23.124(2)
_cell_length_b                   37.368(5)
_cell_length_c                   19.180(2)
_cell_angle_alpha                90
_cell_angle_beta                 90
_cell_angle_gamma                90
_cell_volume                     16573.4
loop_
_atom_site_label
_atom_site_type_symbol
_atom_site_fract_x
_atom_site_fract_y
_atom_site_fract_z
F1 F 0.0381(7) 0.7790(3) 0.0146(8)
F2 F 0.0808(10) 0.7183(3) 0.0366(7)
F3 F 0.0524(7) 0.7240(3) 0.1597(7)
F4 F 0.0187(8) 0.7857(3) 0.1419(9)
F5 F -0.0201(7) 0.7340(7) 0.0709(10)
F6 F 0.1192(6) 0.7674(6) 0.0924(9)
Sb1 Sb 0.05046(8) 0.75290(3) 0.08945(11)
Ag1 Ag 0.22851(3) 0.701147(15) 0.12497(4)
N1 N 0.2401(3) 0.73208(16) 0.0240(3)
N2 N 0.2487(3) 0.73110(17) 0.2275(3)
N3 N 0.4030(4) 0.5854(2) -0.5893(4)
N4 N 0.0369(4) 0.6009(3) 0.8440(5)
C1 C 0.2489(4) 0.7215(2) 0.2893(5)
C2 C 0.2462(3) 0.6861(2) 0.3209(4)
C3 C 0.2679(4) 0.6563(2) 0.2865(4)
H1 H 0.2851 0.6593 0.2430
C4 C 0.2651(4) 0.6235(3) 0.3133(5)
H2 H 0.2801 0.6042 0.2884
C5 C 0.2400(4) 0.6178(2) 0.3777(5)
H3 H 0.2393 0.5949 0.3968
C6 C 0.2156(4) 0.6465(3) 0.4144(4)
C7 C 0.2202(3) 0.6807(2) 0.3855(5)
H4 H 0.2056 0.7002 0.4099
C8 C 0.1885(4) 0.6410(2) 0.4796(4)
C9 C 0.1667(4) 0.6359(3) 0.5349(5)
C10 C 0.1381(4) 0.6300(3) 0.6013(4)
C11 C 0.1468(4) 0.5973(2) 0.6335(4)
H5 H 0.1687 0.5794 0.6123
C12 C 0.1221(4) 0.5920(3) 0.6977(4)
H6 H 0.1301 0.5709 0.7217
C13 C 0.0869(4) 0.6159(2) 0.7270(4)
C14 C 0.0585(4) 0.6086(2) 0.7924(4)
C15 C 0.0760(4) 0.6480(3) 0.6935(5)
H7 H 0.0509 0.6647 0.7129
C16 C 0.1030(4) 0.6548(2) 0.6311(5)
H8 H 0.0972 0.6767 0.6090
C17 C 0.2346(3) 0.7229(2) -0.0413(4)
C18 C 0.2169(4) 0.6887(2) -0.0695(4)
C19 C 0.1798(4) 0.6663(2) -0.0369(4)
H9 H 0.1632 0.6729 0.0053
C20 C 0.1664(4) 0.6331(2) -0.0665(4)
H10 H 0.1425 0.6170 -0.0433
C21 C 0.1893(4) 0.6246(2) -0.1308(5)
H11 H 0.1789 0.6032 -0.1520
C22 C 0.2270(3) 0.6470(2) -0.1642(5)
C23 C 0.2394(3) 0.6794(2) -0.1362(4)
H12 H 0.2626 0.6955 -0.1604
C24 C 0.2502(4) 0.6376(3) -0.2314(5)
C25 C 0.2731(4) 0.6294(3) -0.2838(4)
C26 C 0.2992(4) 0.6196(3) -0.3498(5)
C27 C 0.3219(5) 0.6457(3) -0.3886(6)
H13 H 0.3207 0.6693 -0.3728
C28 C 0.3480(5) 0.6377(3) -0.4546(5)
H14 H 0.3633 0.6559 -0.4822
C29 C 0.3501(4) 0.6026(3) -0.4763(4)
C30 C 0.3786(4) 0.5928(3) -0.5390(5)
C31 C 0.3255(5) 0.5759(3) -0.4350(6)
H15 H 0.3261 0.5522 -0.4497
C32 C 0.2996(4) 0.5852(2) -0.3705(6)
H16 H 0.2830 0.5676 -0.3426
O1 O 0.2500 0.7500 -0.0834(3)
O2 O 0.2500 0.7500 0.3350(4)
Ag1M Ag 0.27149(3) 0.798853(15) 0.12497(4)
Ag1B Ag 0.47851(3) 0.548853(15) -0.62503(4)
Ag1J Ag -0.02149(3) 0.548853(15) 0.87497(4)
Ag1C Ag 0.02149(3) 0.951147(15) -0.62503(4)
Ag1K Ag 0.52149(3) 0.951147(15) 0.87497(4)
N1M N 0.2599(3) 0.76792(16) 0.0240(3)
N2M N 0.2513(3) 0.76890(17) 0.2275(3)
N3M N 0.0970(4) 0.9146(2) -0.5893(4)
N3J N 0.1530(4) 0.6646(2) 0.1607(4)
N3K N 0.3470(4) 0.8354(2) 0.1607(4)
N4M N 0.4631(4) 0.8991(3) 0.8440(5)
N4B N 0.2869(4) 0.6491(3) 0.0940(5)
N4C N 0.2131(4) 0.8509(3) 0.0940(5)
C1M C 0.2511(4) 0.7785(2) 0.2893(5)
C2M C 0.2538(3) 0.8139(2) 0.3209(4)
C3M C 0.2321(4) 0.8437(2) 0.2865(4)
H1M H 0.2149 0.8407 0.2430
C4M C 0.2349(4) 0.8765(3) 0.3133(5)
H2M H 0.2199 0.8958 0.2884
C5M C 0.2600(4) 0.8822(2) 0.3777(5)
H3M H 0.2607 0.9051 0.3968
C6M C 0.2844(4) 0.8535(3) 0.4144(4)
C7M C 0.2798(3) 0.8193(2) 0.3855(5)
H4M H 0.2944 0.7998 0.4099
C8M C 0.3115(4) 0.8590(2) 0.4796(4)
C9M C 0.3333(4) 0.8641(3) 0.5349(5)
C10M C 0.3619(4) 0.8700(3) 0.6013(4)
C11M C 0.3532(4) 0.9027(2) 0.6335(4)
H5M H 0.3313 0.9206 0.6123
C12M C 0.3779(4) 0.9080(3) 0.6977(4)
H6M H 0.3699 0.9291 0.7217
C13M C 0.4131(4) 0.8841(2) 0.7270(4)
C14M C 0.4415(4) 0.8914(2) 0.7924(4)
C15M C 0.4240(4) 0.8520(3) 0.6935(5)
H7M H 0.4491 0.8353 0.7129
C16M C 0.3970(4) 0.8452(2) 0.6311(5)
H8M H 0.4028 0.8233 0.6090
C17M C 0.2654(3) 0.7771(2) -0.0413(4)
C18M C 0.2831(4) 0.8113(2) -0.0695(4)
C19M C 0.3202(4) 0.8337(2) -0.0369(4)
H9M H 0.3368 0.8271 0.0053
C20M C 0.3336(4) 0.8669(2) -0.0665(4)
H10M H 0.3575 0.8830 -0.0433
C21M C 0.3107(4) 0.8754(2) -0.1308(5)
H11M H 0.3211 0.8968 -0.1520
C22M C 0.2730(3) 0.8530(2) -0.1642(5)
C23M C 0.2606(3) 0.8206(2) -0.1362(4)
H12M H 0.2374 0.8045 -0.1604
C24M C 0.2498(4) 0.8624(3) -0.2314(5)
C25M C 0.2269(4) 0.8706(3) -0.2838(4)
C26M C 0.2008(4) 0.8804(3) -0.3498(5)
C27M C 0.1781(5) 0.8543(3) -0.3886(6)
H13M H 0.1793 0.8307 -0.3728
C28M C 0.1520(5) 0.8623(3) -0.4546(5)
H14M H 0.1367 0.8441 -0.4822
C29M C 0.1499(4) 0.8974(3) -0.4763(4)
C30M C 0.1214(4) 0.9072(3) -0.5390(5)
C31M C 0.1745(5) 0.9241(3) -0.4350(6)
H15M H 0.1739 0.9478 -0.4497
C32M C 0.2004(4) 0.9148(2) -0.3705(6)
H16M H 0.2170 0.9324 -0.3426
loop_
_geom_bond_atom_site_label_1
_geom_bond_atom_site_label_2
_geom_bond_site_symmetry_1
_geom_bond_site_symmetry_2
Ag1 N1 1_555 1_555
N1 C17 1_555 1_555
N2 Ag1 1_555 1_555
N3 C30 1_555 1_555
N4 C14 1_555 1_555
C1 N2 1_555 1_555
C2 C1 1_555 1_555
C3 C2 1_555 1_555
H1 C3 1_555 1_555
C4 C3 1_555 1_555
H2 C4 1_555 1_555
C5 C4 1_555 1_555
H3 C5 1_555 1_555
C6 C5 1_555 1_555
C7 C2 1_555 1_555
H4 C7 1_555 1_555
C8 C6 1_555 1_555
C9 C8 1_555 1_555
C10 C9 1_555 1_555
C11 C10 1_555 1_555
H5 C11 1_555 1_555
C12 C11 1_555 1_555
H6 C12 1_555 1_555
C13 C12 1_555 1_555
C14 C13 1_555 1_555
C15 C13 1_555 1_555
H7 C15 1_555 1_555
C16 C10 1_555 1_555
H8 C16 1_555 1_555
C17 C18 1_555 1_555
C18 C19 1_555 1_555
C19 H9 1_555 1_555
C20 C19 1_555 1_555
H10 C20 1_555 1_555
C21 C20 1_555 1_555
H11 C21 1_555 1_555
C22 C21 1_555 1_555
C23 C18 1_555 1_555
H12 C23 1_555 1_555
C24 C22 1_555 1_555
C25 C24 1_555 1_555
C26 C25 1_555 1_555
C27 C26 1_555 1_555
H13 C27 1_555 1_555
C28 C27 1_555 1_555
H14 C28 1_555 1_555
C29 C28 1_555 1_555
C30 C29 1_555 1_555
C31 C29 1_555 1_555
H15 C31 1_555 1_555
C32 C26 1_555 1_555
H16 C32 1_555 1_555
O1 C17 1_555 1_555
O2 C1 1_555 1_555
F1 Sb1 1_555 1_555
F2 Sb1 1_555 1_555
F3 Sb1 1_555 1_555
F4 Sb1 1_555 1_555
F5 Sb1 1_555 1_555
F6 Sb1 1_555 1_555
Ag1M N1M 1_555 1_555
Ag1B N3 1_555 1_555
Ag1J N4 1_555 1_555
Ag1C N3M 1_555 1_555
Ag1K N4M 1_555 1_555
N1M N1 1_555 1_555
N2M N2 1_555 1_555
N3M C30M 1_555 1_555
N3J Ag1 1_555 1_555
N3K Ag1M 1_555 1_555
N4M C14M 1_555 1_555
N4B Ag1 1_555 1_555
N4C Ag1M 1_555 1_555
C1M O2 1_555 1_555
C2M C1M 1_555 1_555
C3M C2M 1_555 1_555
H1M C3M 1_555 1_555
C4M C3M 1_555 1_555
H2M C4M 1_555 1_555
C5M C4M 1_555 1_555
H3M C5M 1_555 1_555
C6M C5M 1_555 1_555
C7M C2M 1_555 1_555
H4M C7M 1_555 1_555
C8M C6M 1_555 1_555
C9M C8M 1_555 1_555
C10M C9M 1_555 1_555
C11M C10M 1_555 1_555
H5M C11M 1_555 1_555
C12M C11M 1_555 1_555
H6M C12M 1_555 1_555
C13M C12M 1_555 1_555
C14M C13M 1_555 1_555
C15M C13M 1_555 1_555
H7M C15M 1_555 1_555
C16M C10M 1_555 1_555
H8M C16M 1_555 1_555
C17M O1 1_555 1_555
C18M C17M 1_555 1_555
C19M C18M 1_555 1_555
H9M C19M 1_555 1_555
C20M C19M 1_555 1_555
H10M C20M 1_555 1_555
C21M C20M 1_555 1_555
H11M C21M 1_555 1_555
C22M C21M 1_555 1_555
C23M C18M 1_555 1_555
H12M C23M 1_555 1_555
C24M C22M 1_555 1_555
C25M C24M 1_555 1_555
C26M C25M 1_555 1_555
C27M C26M 1_555 1_555
H13M C27M 1_555 1_555
C28M C27M 1_555 1_555
H14M C28M 1_555 1_555
C29M C28M 1_555 1_555
C30M C29M 1_555 1_555
C31M C29M 1_555 1_555
H15M C31M 1_555 1_555
C32M C26M 1_555 1_555
H16M C32M 1_555 1_555
C6 C7 1_555 1_555
C15 C16 1_555 1_555
C22 C23 1_555 1_555
C31 C32 1_555 1_555
Ag1M N2M 1_555 1_555
N1M C17M 1_555 1_555
N2M C1M 1_555 1_555
C6M C7M 1_555 1_555
C15M C16M 1_555 1_555
C22M C23M 1_555 1_555
C31M C32M 1_555 1_555

#END
