
#######################################################################
#
#                 Cambridge Crystallographic Data Centre
#                                CCDC 
#
#######################################################################
#
# If this CIF has been generated from an entry in the Cambridge 
# Structural Database, then it will include bibliographic, chemical, 
# crystal, experimental, refinement or atomic coordinate data resulting 
# from the CCDC's data processing and validation procedures.
#
#######################################################################

data_WEHRAD
_symmetry_cell_setting           triclinic
_symmetry_space_group_name_H-M   'P 1'
_symmetry_Int_Tables_number      1
_space_group_name_Hall           'P 1'
loop_
_symmetry_equiv_pos_site_id
_symmetry_equiv_pos_as_xyz
1 x,y,z
_cell_length_a                   10.7908(7)
_cell_length_b                   12.5144(8)
_cell_length_c                   16.8103(11)
_cell_angle_alpha                111.4810(10)
_cell_angle_beta                 105.9500(10)
_cell_angle_gamma                93.8490(10)
_cell_volume                     1995.04
loop_
_atom_site_label
_atom_site_type_symbol
_atom_site_fract_x
_atom_site_fract_y
_atom_site_fract_z
Ag1 Ag 0.65960(6) 0.46685(7) 0.50742(5)
Ag2 Ag 0.65874(6) 0.59038(7) 0.74432(5)
N1 N 0.8528(7) 0.5593(6) 0.7118(4)
N2 N 0.8576(7) 0.5118(6) 0.6231(4)
N3 N 0.6850(10) -0.2257(8) -0.1488(7)
N4 N 0.6782(11) 0.5426(9) 1.4074(7)
N5 N 0.4664(7) 0.5056(6) 0.6281(4)
N6 N 0.4685(7) 0.4580(6) 0.5397(4)
N7 N 0.6466(10) 0.5113(9) -0.1425(7)
N8 N 0.6569(9) 1.2727(8) 1.3900(7)
C1 C 0.3584(8) 0.3863(7) 0.4913(5)
C2 C 0.3162(8) 0.3113(8) 0.3954(6)
C3 C 0.2510(9) 0.1988(8) 0.3637(6)
H1 H 0.2284 0.1701 0.4026
C4 C 0.2194(9) 0.1288(8) 0.2729(6)
H2 H 0.1720 0.0532 0.2502
C5 C 0.2578(10) 0.1698(8) 0.2144(6)
H3 H 0.2373 0.1218 0.1535
C6 C 0.3257(9) 0.2815(8) 0.2484(6)
C7 C 0.3543(8) 0.3538(8) 0.3371(5)
H4 H 0.3984 0.4303 0.3589
C8 C 0.3677(10) 0.3220(9) 0.1885(6)
C9 C 0.4089(11) 0.3494(9) 0.1380(7)
C10 C 0.4602(10) 0.3859(9) 0.0791(6)
C11 C 0.4843(10) 0.5017(10) 0.0944(7)
H5 H 0.4674 0.5577 0.1427
C12 C 0.5349(10) 0.5355(9) 0.0366(7)
H6 H 0.5531 0.6140 0.0467
C13 C 0.5576(10) 0.4484(9) -0.0367(7)
C14 C 0.6075(9) 0.4842(10) -0.0958(7)
C15 C 0.5400(12) 0.3353(9) -0.0475(7)
H7 H 0.5644 0.2800 -0.0922
C16 C 0.4866(12) 0.3008(9) 0.0069(7)
H8 H 0.4682 0.2221 -0.0041
C17 C 0.3544(8) 0.4583(7) 0.6264(5)
C18 C 0.3050(8) 0.4754(8) 0.7014(6)
C19 C 0.2173(10) 0.3891(8) 0.7003(7)
H9 H 0.1836 0.3198 0.6491
C20 C 0.1792(13) 0.4060(11) 0.7764(9)
H10 H 0.1176 0.3492 0.7751
C21 C 0.2330(11) 0.5069(9) 0.8532(7)
H11 H 0.2121 0.5154 0.9051
C22 C 0.3169(9) 0.5951(9) 0.8544(6)
C23 C 0.3519(8) 0.5785(7) 0.7775(5)
H12 H 0.4081 0.6381 0.7774
C24 C 0.3715(10) 0.7036(9) 0.9338(7)
C25 C 0.4141(10) 0.7905(9) 1.0003(7)
C26 C 0.4681(10) 0.8914(8) 1.0820(7)
C27 C 0.4977(10) 1.0002(9) 1.0820(6)
H13 H 0.4829 1.0064 1.0268
C28 C 0.5481(10) 1.0998(9) 1.1596(7)
H14 H 0.5683 1.1721 1.1578
C29 C 0.5678(9) 1.0884(8) 1.2410(6)
C30 C 0.6187(10) 1.1932(10) 1.3250(8)
C31 C 0.5402(11) 0.9813(9) 1.2442(7)
H15 H 0.5567 0.9755 1.2996
C32 C 0.4898(12) 0.8859(10) 1.1675(7)
H16 H 0.4684 0.8143 1.1702
C33 C 0.9634(8) 0.6308(8) 0.7611(5)
C34 C 1.0091(8) 0.7039(8) 0.8571(5)
C35 C 1.0895(8) 0.8131(9) 0.8895(6)
H17 H 1.1164 0.8375 0.8498
C36 C 1.1287(10) 0.8845(9) 0.9798(7)
H18 H 1.1838 0.9565 1.0018
C37 C 1.0856(10) 0.8486(10) 1.0377(7)
H19 H 1.1119 0.8971 1.0988
C38 C 1.0025(9) 0.7399(9) 1.0058(6)
C39 C 0.9641(8) 0.6695(8) 0.9153(6)
H20 H 0.9075 0.5983 0.8929
C40 C 0.9532(10) 0.7084(9) 1.0664(6)
C41 C 0.9093(10) 0.6829(9) 1.1162(7)
C42 C 0.8554(10) 0.6525(10) 1.1757(7)
C43 C 0.8484(11) 0.5429(10) 1.1758(8)
H21 H 0.8795 0.4867 1.1360
C44 C 0.7986(11) 0.5141(11) 1.2309(8)
H22 H 0.7923 0.4382 1.2280
C45 C 0.7562(10) 0.5979(10) 1.2925(7)
C46 C 0.7087(12) 0.5694(10) 1.3592(8)
C47 C 0.7662(15) 0.7103(12) 1.2985(10)
H23 H 0.7429 0.7679 1.3425
C48 C 0.8124(13) 0.7361(11) 1.2362(8)
H24 H 0.8140 0.8103 1.2359
C49 C 0.9698(8) 0.5590(7) 0.6256(5)
C50 C 1.0224(8) 0.5457(7) 0.5520(6)
C51 C 1.1188(10) 0.6335(9) 0.5612(7)
H25 H 1.1534 0.6992 0.6152
C52 C 1.1615(11) 0.6214(9) 0.4894(7)
H26 H 1.2251 0.6801 0.4950
C53 C 1.1132(10) 0.5252(9) 0.4098(7)
H27 H 1.1438 0.5194 0.3621
C54 C 1.0186(8) 0.4361(8) 0.3996(6)
C55 C 0.9746(8) 0.4473(7) 0.4725(6)
H28 H 0.9125 0.3879 0.4673
C56 C 0.9703(9) 0.3349(8) 0.3173(6)
C57 C 0.9287(10) 0.2519(9) 0.2467(7)
C58 C 0.8762(9) 0.1517(8) 0.1629(6)
C59 C 0.8503(10) 0.0388(9) 0.1594(7)
H29 H 0.8693 0.0277 0.2129
C60 C 0.7979(10) -0.0552(8) 0.0790(7)
H30 H 0.7783 -0.1292 0.0780
C61 C 0.7746(11) -0.0410(9) 0.0013(7)
C62 C 0.7982(13) 0.0690(10) 0.0010(7)
H31 H 0.7810 0.0781 -0.0533
C63 C 0.8478(14) 0.1654(10) 0.0825(7)
H32 H 0.8621 0.2398 0.0830
C64 C 0.7224(11) -0.1412(10) -0.0837(8)
O1 O 0.2810(5) 0.3818(5) 0.5421(3)
O2 O 1.0428(5) 0.6355(5) 0.7111(3)
Ag1_2 Ag 0.65960(6) 0.46685(7) 1.50742(5)
Ag1_3 Ag 0.65960(6) 1.46685(7) 1.50742(5)
Ag2_2 Ag 0.65874(6) -0.40962(7) -0.25568(5)
Ag2_3 Ag 0.65874(6) 0.59038(7) -0.25568(5)
N3_2 N 0.6850(10) 0.7743(8) 0.8512(7)
N4_2 N 0.6782(11) 0.5426(9) 0.4074(7)
N7_2 N 0.6466(10) 0.5113(9) 0.8575(7)
N8_2 N 0.6569(9) 0.2727(8) 0.3900(7)
C65 C 0.982(4) 0.388(2) 0.968(2)
H33 H 0.9701 0.4624 0.9996
C66 C 1.083(3) 0.343(3) 0.996(2)
H34 H 1.1435 0.3865 1.0528
C67 C 1.1032(19) 0.237(2) 0.946(2)
H35 H 1.1807 0.2124 0.9664
C68 C 1.010(3) 0.1656(19) 0.8656(17)
H36 H 1.0238 0.0924 0.8318
C69 C 0.909(2) 0.1999(19) 0.8384(13)
H37 H 0.8423 0.1501 0.7862
C70 C 0.893(2) 0.308(3) 0.884(2)
H38 H 0.8190 0.3330 0.8582
C71 C 0.971(2) 0.091(2) 0.5636(16)
H39 H 0.9519 0.1202 0.6174
C72 C 0.933(2) 0.1335(19) 0.5039(18)
H40 H 0.8856 0.1940 0.5146
C73 C 0.9591(18) 0.093(2) 0.4295(16)
H41 H 0.9315 0.1238 0.3866
C74 C 1.024(2) 0.0089(19) 0.4148(18)
H42 H 1.0425 -0.0206 0.3608
C75 C 1.063(2) -0.035(2) 0.474(2)
H43 H 1.1109 -0.0948 0.4626
C76 C 1.036(2) 0.006(3) 0.5484(18)
H44 H 1.0639 -0.0247 0.5913
C77 C 0.8009(16) 0.7914(14) 0.6470(16)
H45 H 0.8486 0.7560 0.6059
H46 H 0.8586 0.8150 0.7085
C78 C 0.755(2) 0.891(2) 0.633(3)
H47 H 0.7781 0.9577 0.6906
H48 H 0.7952 0.9110 0.5944
C79 C 0.615(3) 0.861(2) 0.592(2)
H49 H 0.5909 0.8494 0.5293
H50 H 0.5737 0.9217 0.6232
C80 C 0.5760(16) 0.7536(15) 0.5997(14)
H51 H 0.5271 0.7674 0.6419
H52 H 0.5204 0.6960 0.5414
O3 O 0.6899(11) 0.7131(10) 0.6303(7)
C81 C 0.481(5) 0.183(3) 0.650(3)
H53 H 0.5075 0.1210 0.6686
H54 H 0.4166 0.2165 0.6766
C82 C 0.594(5) 0.272(3) 0.6684(18)
H55 H 0.5679 0.3467 0.6771
H56 H 0.6632 0.2800 0.7224
C83 C 0.639(3) 0.230(3) 0.590(3)
H57 H 0.6502 0.2927 0.5702
H58 H 0.7219 0.2057 0.6057
C84 C 0.546(3) 0.139(3) 0.5237(15)
H59 H 0.5759 0.0653 0.5144
H60 H 0.5212 0.1489 0.4672
O4 O 0.439(2) 0.146(5) 0.561(2)
F1 F 0.3259(14) 0.8013(15) 0.4266(9)
F2 F 0.1478(11) 0.6720(17) 0.2844(11)
F3 F 0.2604(15) 0.8595(13) 0.2811(12)
F4 F 0.4823(12) 0.7888(18) 0.3249(13)
F5 F 0.3632(16) 0.6213(14) 0.3403(15)
F6 F 0.2914(18) 0.6703(15) 0.1867(10)
Sb2 Sb 0.31138(8) 0.73755(7) 0.30743(6)
F7 F 0.3367(9) 0.9216(8) 0.6623(5)
F8 F 0.2973(10) 1.1184(7) 0.7751(6)
F9 F 0.1524(8) 0.9143(7) 0.7337(5)
F10 F 0.3154(9) 1.0288(7) 0.8953(5)
F11 F 0.3549(12) 0.8343(8) 0.7820(7)
F12 F 0.5080(8) 1.0355(9) 0.8259(8)
Sb1 Sb 0.33016(7) 0.97594(6) 0.77899(5)
loop_
_geom_bond_atom_site_label_1
_geom_bond_atom_site_label_2
_geom_bond_site_symmetry_1
_geom_bond_site_symmetry_2
Ag1 N2 1_555 1_555
Ag2 N1 1_555 1_555
N1 N2 1_555 1_555
N2 C49 1_555 1_555
N3 C64 1_555 1_555
N4 C46 1_555 1_555
N5 Ag2 1_555 1_555
N6 Ag1 1_555 1_555
N7 C14 1_555 1_555
N8 C30 1_555 1_555
C1 N6 1_555 1_555
C2 C1 1_555 1_555
C3 C2 1_555 1_555
H1 C3 1_555 1_555
C4 C3 1_555 1_555
H2 C4 1_555 1_555
C5 C4 1_555 1_555
H3 C5 1_555 1_555
C6 C5 1_555 1_555
C7 C2 1_555 1_555
H4 C7 1_555 1_555
C8 C6 1_555 1_555
C9 C8 1_555 1_555
C10 C9 1_555 1_555
C11 C10 1_555 1_555
H5 C11 1_555 1_555
C12 C11 1_555 1_555
H6 C12 1_555 1_555
C13 C12 1_555 1_555
C14 C13 1_555 1_555
C15 C13 1_555 1_555
H7 C15 1_555 1_555
C16 C10 1_555 1_555
H8 C16 1_555 1_555
C17 N5 1_555 1_555
C18 C17 1_555 1_555
C19 C18 1_555 1_555
H9 C19 1_555 1_555
C20 C19 1_555 1_555
H10 C20 1_555 1_555
C21 C20 1_555 1_555
H11 C21 1_555 1_555
C22 C21 1_555 1_555
C23 C18 1_555 1_555
H12 C23 1_555 1_555
C24 C22 1_555 1_555
C25 C24 1_555 1_555
C26 C25 1_555 1_555
C27 C26 1_555 1_555
H13 C27 1_555 1_555
C28 C27 1_555 1_555
H14 C28 1_555 1_555
C29 C28 1_555 1_555
C30 C29 1_555 1_555
C31 C29 1_555 1_555
H15 C31 1_555 1_555
C32 C26 1_555 1_555
H16 C32 1_555 1_555
C33 N1 1_555 1_555
C34 C33 1_555 1_555
C35 C34 1_555 1_555
H17 C35 1_555 1_555
C36 C35 1_555 1_555
H18 C36 1_555 1_555
C37 C36 1_555 1_555
H19 C37 1_555 1_555
C38 C37 1_555 1_555
C39 C34 1_555 1_555
H20 C39 1_555 1_555
C40 C38 1_555 1_555
C41 C40 1_555 1_555
C42 C41 1_555 1_555
C43 C42 1_555 1_555
H21 C43 1_555 1_555
C44 C43 1_555 1_555
H22 C44 1_555 1_555
C45 C44 1_555 1_555
C46 C45 1_555 1_555
C47 C45 1_555 1_555
H23 C47 1_555 1_555
C48 C42 1_555 1_555
H24 C48 1_555 1_555
C49 C50 1_555 1_555
C50 C51 1_555 1_555
C51 H25 1_555 1_555
C52 C51 1_555 1_555
H26 C52 1_555 1_555
C53 C52 1_555 1_555
H27 C53 1_555 1_555
C54 C53 1_555 1_555
C55 C50 1_555 1_555
H28 C55 1_555 1_555
C56 C54 1_555 1_555
C57 C56 1_555 1_555
C58 C57 1_555 1_555
C59 C58 1_555 1_555
H29 C59 1_555 1_555
C60 C59 1_555 1_555
H30 C60 1_555 1_555
C61 C60 1_555 1_555
C62 C61 1_555 1_555
H31 C62 1_555 1_555
C63 C58 1_555 1_555
H32 C63 1_555 1_555
C64 C61 1_555 1_555
C65 H33 1_555 1_555
C66 C65 1_555 1_555
H34 C66 1_555 1_555
C67 C66 1_555 1_555
H35 C67 1_555 1_555
C68 C67 1_555 1_555
H36 C68 1_555 1_555
C69 C68 1_555 1_555
H37 C69 1_555 1_555
C70 C65 1_555 1_555
H38 C70 1_555 1_555
C71 H39 1_555 1_555
C72 C71 1_555 1_555
H40 C72 1_555 1_555
C73 C72 1_555 1_555
H41 C73 1_555 1_555
C74 C73 1_555 1_555
H42 C74 1_555 1_555
C75 C74 1_555 1_555
H43 C75 1_555 1_555
C76 C71 1_555 1_555
H44 C76 1_555 1_555
C77 H45 1_555 1_555
H46 C77 1_555 1_555
C78 C77 1_555 1_555
H47 C78 1_555 1_555
H48 C78 1_555 1_555
C79 C78 1_555 1_555
H49 C79 1_555 1_555
H50 C79 1_555 1_555
C80 C79 1_555 1_555
H51 C80 1_555 1_555
H52 C80 1_555 1_555
C81 H53 1_555 1_555
H54 C81 1_555 1_555
C82 C81 1_555 1_555
H55 C82 1_555 1_555
H56 C82 1_555 1_555
C83 C82 1_555 1_555
H57 C83 1_555 1_555
H58 C83 1_555 1_555
C84 C83 1_555 1_555
H59 C84 1_555 1_555
H60 C84 1_555 1_555
O1 C1 1_555 1_555
O2 C33 1_555 1_555
O3 C77 1_555 1_555
O4 C81 1_555 1_555
F1 Sb2 1_555 1_555
F2 Sb2 1_555 1_555
F3 Sb2 1_555 1_555
F4 Sb2 1_555 1_555
F5 Sb2 1_555 1_555
F6 Sb2 1_555 1_555
F7 Sb1 1_555 1_555
F8 Sb1 1_555 1_555
F9 Sb1 1_555 1_555
F10 Sb1 1_555 1_555
F11 Sb1 1_555 1_555
F12 Sb1 1_555 1_555
Ag1_2 N4 1_555 1_555
Ag1_3 N8 1_555 1_555
Ag2_2 N3 1_555 1_555
Ag2_3 N7 1_555 1_555
N3_2 Ag2 1_555 1_555
N4_2 Ag1 1_555 1_555
N7_2 Ag2 1_555 1_555
N8_2 Ag1 1_555 1_555
N5 N6 1_555 1_555
C6 C7 1_555 1_555
C15 C16 1_555 1_555
C17 O1 1_555 1_555
C22 C23 1_555 1_555
C31 C32 1_555 1_555
C38 C39 1_555 1_555
C47 C48 1_555 1_555
C49 O2 1_555 1_555
C54 C55 1_555 1_555
C62 C63 1_555 1_555
C69 C70 1_555 1_555
C75 C76 1_555 1_555
C80 O3 1_555 1_555
C84 O4 1_555 1_555

#END
