
#######################################################################
#
#                 Cambridge Crystallographic Data Centre
#                                CCDC 
#
#######################################################################
#
# If this CIF has been generated from an entry in the Cambridge 
# Structural Database, then it will include bibliographic, chemical, 
# crystal, experimental, refinement or atomic coordinate data resulting 
# from the CCDC's data processing and validation procedures.
#
#######################################################################

data_WEHREH
_symmetry_cell_setting           triclinic
_symmetry_space_group_name_H-M   'P -1'
_symmetry_Int_Tables_number      2
_space_group_name_Hall           '-P 1'
loop_
_symmetry_equiv_pos_site_id
_symmetry_equiv_pos_as_xyz
1 x,y,z
2 -x,-y,-z
_cell_length_a                   10.2064(19)
_cell_length_b                   12.622(2)
_cell_length_c                   17.865(3)
_cell_angle_alpha                72.553(3)
_cell_angle_beta                 82.615(3)
_cell_angle_gamma                71.626(3)
_cell_volume                     2082.18
loop_
_atom_site_label
_atom_site_type_symbol
_atom_site_fract_x
_atom_site_fract_y
_atom_site_fract_z
Ag1 Ag 0.39964(4) 0.00812(3) 0.41830(2)
N1 N 0.4390(3) 0.1705(3) 0.42869(19)
N2 N 0.5091(4) 0.1668(3) 0.49206(18)
N3 N 0.5191(5) 0.9881(4) -0.2867(2)
N4 N 1.1759(5) 1.0069(4) 0.4057(3)
C1 C 0.5317(4) 0.2673(3) 0.4757(2)
C2 C 0.5959(5) 0.3116(4) 0.5231(2)
C3 C 0.5983(6) 0.2670(4) 0.6032(3)
H1 H 0.5593 0.2072 0.6275
C4 C 0.6582(7) 0.3102(4) 0.6479(3)
H2 H 0.6605 0.2793 0.7022
C5 C 0.7143(6) 0.3992(4) 0.6115(3)
H3 H 0.7557 0.4274 0.6417
C6 C 0.7108(5) 0.4477(4) 0.5317(3)
C7 C 0.6520(4) 0.4032(3) 0.4865(3)
H4 H 0.6500 0.4341 0.4323
C8 C 0.7671(5) 0.5439(4) 0.4970(3)
C9 C 0.8119(5) 0.6234(4) 0.4767(3)
C10 C 0.8767(5) 0.7148(4) 0.4590(3)
C11 C 0.9588(5) 0.7152(4) 0.5142(3)
H5 H 0.9675 0.6589 0.5623
C12 C 1.0282(5) 0.7968(4) 0.4999(3)
H6 H 1.0830 0.7963 0.5378
C13 C 1.0151(5) 0.8799(4) 0.4281(3)
C14 C 1.1009(5) 0.9552(4) 0.4137(3)
C15 C 0.9299(6) 0.8839(5) 0.3732(3)
H7 H 0.9194 0.9416 0.3258
C16 C 0.8595(6) 0.8016(5) 0.3887(3)
H8 H 0.8006 0.8047 0.3520
C17 C 0.4260(4) 0.2714(4) 0.3791(2)
C18 C 0.3580(4) 0.3224(3) 0.3042(2)
C19 C 0.2489(5) 0.2886(4) 0.2904(3)
H9 H 0.2177 0.2336 0.3297
C20 C 0.1859(5) 0.3355(4) 0.2193(3)
H10 H 0.1132 0.3119 0.2102
C21 C 0.2323(5) 0.4184(4) 0.1613(3)
H11 H 0.1902 0.4504 0.1132
C22 C 0.3405(5) 0.4539(4) 0.1744(3)
C23 C 0.4048(4) 0.4053(3) 0.2459(2)
H12 H 0.4784 0.4280 0.2548
C24 C 0.3863(5) 0.5395(4) 0.1119(3)
C25 C 0.4163(5) 0.6070(4) 0.0573(3)
C26 C 0.4417(5) 0.6910(4) -0.0140(3)
C27 C 0.5498(6) 0.7376(5) -0.0222(3)
H13 H 0.6087 0.7154 0.0190
C28 C 0.5707(6) 0.8169(5) -0.0913(3)
H14 H 0.6434 0.8486 -0.0968
C29 C 0.4830(6) 0.8493(4) -0.1528(3)
C30 C 0.5054(6) 0.9277(4) -0.2271(3)
C31 C 0.3772(6) 0.8024(5) -0.1448(3)
H15 H 0.3189 0.8237 -0.1861
C32 C 0.3561(6) 0.7235(5) -0.0757(3)
H16 H 0.2835 0.6919 -0.0706
O1 O 0.4826(3) 0.3363(2) 0.40536(15)
Ag1A Ag 0.60036(4) -0.00812(3) 0.58170(2)
Ag1A_2 Ag 0.60036(4) 0.99188(3) -0.41830(2)
Ag1_2 Ag 1.39964(4) 1.00812(3) 0.41830(2)
Ag1_3 Ag 0.39964(4) -0.99188(3) 1.41830(2)
Ag1A_3 Ag -0.39964(4) -1.00812(3) 0.58170(2)
N1A N 0.5610(3) -0.1705(3) 0.57131(19)
N2A N 0.4909(4) -0.1668(3) 0.50794(18)
N3A N 0.4809(5) -0.9881(4) 1.2867(2)
N3A_2 N 0.4809(5) 0.0119(4) 0.2867(2)
N3_2 N 0.5191(5) -0.0119(4) 0.7133(2)
N4A N -0.1759(5) -1.0069(4) 0.5943(3)
N4_2 N 0.1759(5) 0.0069(4) 0.4057(3)
N4A_2 N 0.8241(5) -0.0069(4) 0.5943(3)
C1A C 0.4683(4) -0.2673(3) 0.5243(2)
C2A C 0.4041(5) -0.3116(4) 0.4769(2)
C3A C 0.4017(6) -0.2670(4) 0.3968(3)
H1A H 0.4407 -0.2072 0.3725
C4A C 0.3418(7) -0.3102(4) 0.3521(3)
H2A H 0.3395 -0.2793 0.2978
C5A C 0.2857(6) -0.3992(4) 0.3885(3)
H3A H 0.2443 -0.4274 0.3583
C6A C 0.2892(5) -0.4477(4) 0.4683(3)
C7A C 0.3480(4) -0.4032(3) 0.5135(3)
H4A H 0.3500 -0.4341 0.5677
C8A C 0.2329(5) -0.5439(4) 0.5030(3)
C9A C 0.1881(5) -0.6234(4) 0.5233(3)
C10A C 0.1233(5) -0.7148(4) 0.5410(3)
C11A C 0.0412(5) -0.7152(4) 0.4858(3)
H5A H 0.0325 -0.6589 0.4377
C12A C -0.0282(5) -0.7968(4) 0.5001(3)
H6A H -0.0830 -0.7963 0.4622
C13A C -0.0151(5) -0.8799(4) 0.5719(3)
C14A C -0.1009(5) -0.9552(4) 0.5863(3)
C15A C 0.0701(6) -0.8839(5) 0.6268(3)
H7A H 0.0806 -0.9416 0.6742
C16A C 0.1405(6) -0.8016(5) 0.6113(3)
H8A H 0.1994 -0.8047 0.6480
C17A C 0.5740(4) -0.2714(4) 0.6209(2)
C18A C 0.6420(4) -0.3224(3) 0.6958(2)
C19A C 0.7511(5) -0.2886(4) 0.7096(3)
H9A H 0.7823 -0.2336 0.6703
C20A C 0.8141(5) -0.3355(4) 0.7807(3)
H10A H 0.8868 -0.3119 0.7898
C21A C 0.7677(5) -0.4184(4) 0.8387(3)
H11A H 0.8098 -0.4504 0.8868
C22A C 0.6595(5) -0.4539(4) 0.8256(3)
C23A C 0.5952(4) -0.4053(3) 0.7541(2)
H12A H 0.5216 -0.4280 0.7452
C24A C 0.6137(5) -0.5395(4) 0.8881(3)
C25A C 0.5837(5) -0.6070(4) 0.9427(3)
C26A C 0.5583(5) -0.6910(4) 1.0140(3)
C27A C 0.4502(6) -0.7376(5) 1.0222(3)
H13A H 0.3913 -0.7154 0.9810
C28A C 0.4293(6) -0.8169(5) 1.0913(3)
H14A H 0.3566 -0.8486 1.0968
C29A C 0.5170(6) -0.8493(4) 1.1528(3)
C30A C 0.4946(6) -0.9277(4) 1.2271(3)
C31A C 0.6228(6) -0.8024(5) 1.1448(3)
H15A H 0.6811 -0.8237 1.1861
C32A C 0.6439(6) -0.7235(5) 1.0757(3)
H16A H 0.7165 -0.6919 1.0706
O1A O 0.5174(3) -0.3363(2) 0.59464(15)
C33 C 0.7197(16) 0.0647(10) 0.8294(9)
H17 H 0.6546 0.1025 0.7908
C34 C 0.8358(18) -0.0135(13) 0.8154(6)
H18 H 0.8537 -0.0278 0.7664
C35 C 0.9272(11) -0.0718(9) 0.8724(10)
H19 H 1.0098 -0.1250 0.8629
C36 C 0.8966(16) -0.0516(11) 0.9445(9)
H20 H 0.9547 -0.0942 0.9861
C37 C 0.779(2) 0.0327(14) 0.9537(8)
H21 H 0.7565 0.0506 1.0015
C38 C 0.6973(16) 0.0878(12) 0.8955(12)
H22 H 0.6189 0.1471 0.9022
C39 C 0.2841(10) 0.2234(9) 0.8066(4)
H23 H 0.3755 0.1825 0.8187
C40 C 0.2507(10) 0.3377(8) 0.7663(4)
H24 H 0.3179 0.3761 0.7501
C41 C 0.1179(10) 0.3929(7) 0.7506(4)
H25 H 0.0939 0.4711 0.7228
C42 C 0.0171(9) 0.3404(8) 0.7734(4)
H26 H -0.0742 0.3826 0.7616
C43 C 0.0494(10) 0.2241(8) 0.8141(5)
H27 H -0.0178 0.1856 0.8302
C44 C 0.1850(10) 0.1692(7) 0.8292(4)
H28 H 0.2106 0.0907 0.8564
C45 C 0.0909(9) 0.5019(16) 0.9386(5)
H29 H 0.1542 0.5029 0.8962
C46 C 0.0273(13) 0.6005(10) 0.9589(9)
H30 H 0.0453 0.6698 0.9309
C47 C 0.0647(11) 0.4037(10) 0.9780(9)
H31 H 0.1093 0.3365 0.9628
C45A C -0.0909(9) 0.4981(16) 1.0614(5)
H29A H -0.1542 0.4971 1.1038
C46A C -0.0273(13) 0.3995(10) 1.0411(9)
H30A H -0.0453 0.3302 1.0691
C47A C -0.0647(11) 0.5963(10) 1.0220(9)
H31A H -0.1093 0.6635 1.0372
O2 O 0.2785(12) 0.8042(10) 0.6802(7)
O3 O 0.226(2) 0.6417(10) 0.6738(9)
O4 O 0.0480(8) 0.8061(13) 0.6909(9)
O5 O 0.1916(17) 0.6963(12) 0.7896(3)
Cl1 Cl 0.18401(17) 0.73534(17) 0.70623(9)
O6? O 0.2375(13) 0.8056(10) 0.6387(6)
O7? O 0.0922(13) 0.6908(10) 0.6750(6)
O8? O 0.0967(14) 0.8023(12) 0.7542(9)
O9? O 0.2774(12) 0.6390(11) 0.7472(10)
Cl2? Cl 0.18401(17) 0.73534(17) 0.70623(9)
loop_
_geom_bond_atom_site_label_1
_geom_bond_atom_site_label_2
_geom_bond_site_symmetry_1
_geom_bond_site_symmetry_2
Ag1 N1 1_555 1_555
N1 N2 1_555 1_555
N2 C1 1_555 1_555
N3 C30 1_555 1_555
N4 C14 1_555 1_555
C1 C2 1_555 1_555
C2 C3 1_555 1_555
C3 H1 1_555 1_555
C4 C3 1_555 1_555
H2 C4 1_555 1_555
C5 C4 1_555 1_555
H3 C5 1_555 1_555
C6 C5 1_555 1_555
C7 C2 1_555 1_555
H4 C7 1_555 1_555
C8 C6 1_555 1_555
C9 C8 1_555 1_555
C10 C9 1_555 1_555
C11 C10 1_555 1_555
H5 C11 1_555 1_555
C12 C11 1_555 1_555
H6 C12 1_555 1_555
C13 C12 1_555 1_555
C14 C13 1_555 1_555
C15 C13 1_555 1_555
H7 C15 1_555 1_555
C16 C10 1_555 1_555
H8 C16 1_555 1_555
C17 N1 1_555 1_555
C18 C17 1_555 1_555
C19 C18 1_555 1_555
H9 C19 1_555 1_555
C20 C19 1_555 1_555
H10 C20 1_555 1_555
C21 C20 1_555 1_555
H11 C21 1_555 1_555
C22 C21 1_555 1_555
C23 C18 1_555 1_555
H12 C23 1_555 1_555
C24 C22 1_555 1_555
C25 C24 1_555 1_555
C26 C25 1_555 1_555
C27 C26 1_555 1_555
H13 C27 1_555 1_555
C28 C27 1_555 1_555
H14 C28 1_555 1_555
C29 C28 1_555 1_555
C30 C29 1_555 1_555
C31 C29 1_555 1_555
H15 C31 1_555 1_555
C32 C26 1_555 1_555
H16 C32 1_555 1_555
C33 H17 1_555 1_555
C34 C33 1_555 1_555
H18 C34 1_555 1_555
C35 C34 1_555 1_555
H19 C35 1_555 1_555
C36 C35 1_555 1_555
H20 C36 1_555 1_555
C37 C36 1_555 1_555
H21 C37 1_555 1_555
C38 C33 1_555 1_555
H22 C38 1_555 1_555
C39 H23 1_555 1_555
C40 C39 1_555 1_555
H24 C40 1_555 1_555
C41 C40 1_555 1_555
H25 C41 1_555 1_555
C42 C41 1_555 1_555
H26 C42 1_555 1_555
C43 C42 1_555 1_555
H27 C43 1_555 1_555
C44 C39 1_555 1_555
H28 C44 1_555 1_555
C45 H29 1_555 1_555
C46 C45 1_555 1_555
H30 C46 1_555 1_555
C47 C45 1_555 1_555
H31 C47 1_555 1_555
O1 C1 1_555 1_555
O2 Cl1 1_555 1_555
O3 Cl1 1_555 1_555
O4 Cl1 1_555 1_555
O5 Cl1 1_555 1_555
Ag1A N2 1_555 1_555
Ag1A_2 N3 1_555 1_555
Ag1_2 N4 1_555 1_555
Ag1_3 N3A 1_555 1_555
Ag1A_3 N4A 1_555 1_555
N1A Ag1A 1_555 1_555
N2A Ag1 1_555 1_555
N3A C30A 1_555 1_555
N3A_2 Ag1 1_555 1_555
N3_2 Ag1A 1_555 1_555
N4A C14A 1_555 1_555
N4_2 Ag1 1_555 1_555
N4A_2 Ag1A 1_555 1_555
C1A N2A 1_555 1_555
C2A C1A 1_555 1_555
C3A C2A 1_555 1_555
H1A C3A 1_555 1_555
C4A C3A 1_555 1_555
H2A C4A 1_555 1_555
C5A C4A 1_555 1_555
H3A C5A 1_555 1_555
C6A C5A 1_555 1_555
C7A C2A 1_555 1_555
H4A C7A 1_555 1_555
C8A C6A 1_555 1_555
C9A C8A 1_555 1_555
C10A C9A 1_555 1_555
C11A C10A 1_555 1_555
H5A C11A 1_555 1_555
C12A C11A 1_555 1_555
H6A C12A 1_555 1_555
C13A C12A 1_555 1_555
C14A C13A 1_555 1_555
C15A C13A 1_555 1_555
H7A C15A 1_555 1_555
C16A C10A 1_555 1_555
H8A C16A 1_555 1_555
C17A N1A 1_555 1_555
C18A C17A 1_555 1_555
C19A C18A 1_555 1_555
H9A C19A 1_555 1_555
C20A C19A 1_555 1_555
H10A C20A 1_555 1_555
C21A C20A 1_555 1_555
H11A C21A 1_555 1_555
C22A C21A 1_555 1_555
C23A C18A 1_555 1_555
H12A C23A 1_555 1_555
C24A C22A 1_555 1_555
C25A C24A 1_555 1_555
C26A C25A 1_555 1_555
C27A C26A 1_555 1_555
H13A C27A 1_555 1_555
C28A C27A 1_555 1_555
H14A C28A 1_555 1_555
C29A C28A 1_555 1_555
C30A C29A 1_555 1_555
C31A C29A 1_555 1_555
H15A C31A 1_555 1_555
C32A C26A 1_555 1_555
H16A C32A 1_555 1_555
C45A H29A 1_555 1_555
C46A C47 1_555 1_555
H30A C46A 1_555 1_555
C47A C46 1_555 1_555
H31A C47A 1_555 1_555
O1A C1A 1_555 1_555
C6 C7 1_555 1_555
C15 C16 1_555 1_555
C17 O1 1_555 1_555
C22 C23 1_555 1_555
C31 C32 1_555 1_555
C37 C38 1_555 1_555
C43 C44 1_555 1_555
N1A N2A 1_555 1_555
C6A C7A 1_555 1_555
C15A C16A 1_555 1_555
C17A O1A 1_555 1_555
C22A C23A 1_555 1_555
C31A C32A 1_555 1_555
C45A C46A 1_555 1_555
C45A C47A 1_555 1_555

#END
