
#######################################################################
#
#                 Cambridge Crystallographic Data Centre
#                                CCDC 
#
#######################################################################
#
# If this CIF has been generated from an entry in the Cambridge 
# Structural Database, then it will include bibliographic, chemical, 
# crystal, experimental, refinement or atomic coordinate data resulting 
# from the CCDC's data processing and validation procedures.
#
#######################################################################

data_WEHRIL
_symmetry_cell_setting           monoclinic
_symmetry_space_group_name_H-M   'C 2/c'
_symmetry_Int_Tables_number      15
_space_group_name_Hall           '-C 2yn'
loop_
_symmetry_equiv_pos_site_id
_symmetry_equiv_pos_as_xyz
1 x,y,z
2 1/2+x,1/2+y,z
3 -x,y,1/2-z
4 1/2-x,1/2+y,1/2-z
5 -x,-y,-z
6 1/2-x,1/2-y,-z
7 x,-y,1/2+z
8 1/2+x,1/2-y,1/2+z
_cell_length_a                   19.328(4)
_cell_length_b                   23.253(5)
_cell_length_c                   19.734(4)
_cell_angle_alpha                90
_cell_angle_beta                 118.073(4)
_cell_angle_gamma                90
_cell_volume                     7825.67
loop_
_atom_site_label
_atom_site_type_symbol
_atom_site_fract_x
_atom_site_fract_y
_atom_site_fract_z
Ag1 Ag 0.55305(4) 0.12011(4) 0.35257(4)
N1 N 0.4184(4) 0.1183(3) 0.2949(4)
N2 N 0.3760(5) 0.1257(3) 0.2138(5)
N3 N -0.3687(6) -0.0592(4) -0.0396(6)
N4 N -0.0707(6) 0.3036(4) 0.5562(5)
C1 C 0.3051(5) 0.1308(4) 0.1977(6)
C2 C 0.2347(5) 0.1361(4) 0.1200(6)
C3 C 0.2419(6) 0.1619(4) 0.0615(6)
H1 H 0.2903 0.1760 0.0698
C4 C 0.1772(7) 0.1669(5) -0.0101(6)
H2 H 0.1814 0.1853 -0.0498
C5 C 0.1050(6) 0.1440(5) -0.0221(6)
H3 H 0.0610 0.1475 -0.0699
C6 C 0.0993(6) 0.1161(4) 0.0369(6)
C7 C 0.1644(6) 0.1133(4) 0.1092(6)
H4 H 0.1606 0.0961 0.1499
C8 C 0.0269(6) 0.0931(5) 0.0246(6)
C9 C -0.0315(7) 0.0716(5) 0.0167(6)
C10 C -0.1051(6) 0.0444(5) 0.0051(7)
C11 C -0.1705(6) 0.0455(4) -0.0661(6)
H5 H -0.1679 0.0636 -0.1068
C12 C -0.2390(6) 0.0202(5) -0.0776(7)
H6 H -0.2828 0.0204 -0.1259
C13 C -0.2421(6) -0.0058(4) -0.0160(7)
C14 C -0.3130(7) -0.0358(5) -0.0294(6)
C15 C -0.1777(7) -0.0077(6) 0.0549(7)
H7 H -0.1801 -0.0255 0.0959
C16 C -0.1096(7) 0.0171(5) 0.0644(7)
H8 H -0.0653 0.0154 0.1122
C17 C 0.3669(5) 0.1189(4) 0.3177(6)
C18 C 0.3753(5) 0.1134(4) 0.3945(6)
C19 C 0.4411(6) 0.0856(5) 0.4514(6)
H9 H 0.4790 0.0701 0.4403
C20 C 0.4486(6) 0.0816(5) 0.5239(6)
H10 H 0.4926 0.0632 0.5617
C21 C 0.3942(6) 0.1035(5) 0.5432(6)
H11 H 0.4013 0.1008 0.5931
C22 C 0.3277(6) 0.1302(4) 0.4854(6)
C23 C 0.3198(5) 0.1345(4) 0.4119(6)
H12 H 0.2754 0.1521 0.3735
C24 C 0.2691(6) 0.1557(4) 0.5011(6)
C25 C 0.2206(6) 0.1758(5) 0.5112(6)
C26 C 0.1577(7) 0.2016(4) 0.5224(6)
C27 C 0.0934(7) 0.2280(5) 0.4593(6)
H13 H 0.0922 0.2293 0.4116
C28 C 0.0331(6) 0.2515(5) 0.4682(6)
H14 H -0.0099 0.2672 0.4261
C29 C 0.0361(6) 0.2520(4) 0.5392(6)
C30 C -0.0239(6) 0.2810(4) 0.5492(7)
C31 C 0.0969(7) 0.2266(5) 0.6016(7)
H15 H 0.0973 0.2261 0.6490
C32 C 0.1585(7) 0.2014(4) 0.5931(6)
H16 H 0.2002 0.1844 0.6352
O1 O 0.2928(4) 0.1264(3) 0.2592(4)
Ag1B Ag 0.44695(4) 0.12011(4) 0.14743(4)
Ag1F Ag -0.44695(4) -0.12011(4) -0.14743(4)
Ag1E Ag -0.05305(4) 0.37989(4) 0.64743(4)
Ag1D Ag 1.44695(4) -0.12011(4) 0.64743(4)
Ag1G Ag 1.05305(4) 0.37989(4) -0.14743(4)
N1B N 0.5816(4) 0.1183(3) 0.2051(4)
N2B N 0.6240(5) 0.1257(3) 0.2862(5)
N3B N 1.3687(6) -0.0592(4) 0.5396(6)
N3F N 0.6313(6) 0.0592(4) 0.4604(6)
N3D N 0.3687(6) 0.0592(4) 0.0396(6)
N4B N 1.0707(6) 0.3036(4) -0.0562(5)
N4E N 0.5707(6) 0.1964(4) 0.4438(5)
N4G N 0.4293(6) 0.1964(4) 0.0562(5)
C1B C 0.6949(5) 0.1308(4) 0.3023(6)
C2B C 0.7653(5) 0.1361(4) 0.3800(6)
C3B C 0.7581(6) 0.1619(4) 0.4385(6)
H1B H 0.7097 0.1760 0.4302
C4B C 0.8228(7) 0.1669(5) 0.5101(6)
H2B H 0.8186 0.1853 0.5498
C5B C 0.8950(6) 0.1440(5) 0.5221(6)
H3B H 0.9390 0.1475 0.5699
C6B C 0.9007(6) 0.1161(4) 0.4631(6)
C7B C 0.8356(6) 0.1133(4) 0.3908(6)
H4B H 0.8394 0.0961 0.3501
C8B C 0.9731(6) 0.0931(5) 0.4754(6)
C9B C 1.0315(7) 0.0716(5) 0.4833(6)
C10B C 1.1051(6) 0.0444(5) 0.4949(7)
C11B C 1.1705(6) 0.0455(4) 0.5661(6)
H5B H 1.1679 0.0636 0.6068
C12B C 1.2390(6) 0.0202(5) 0.5776(7)
H6B H 1.2828 0.0204 0.6259
C13B C 1.2421(6) -0.0058(4) 0.5160(7)
C14B C 1.3130(7) -0.0358(5) 0.5294(6)
C15B C 1.1777(7) -0.0077(6) 0.4451(7)
H7B H 1.1801 -0.0255 0.4041
C16B C 1.1096(7) 0.0171(5) 0.4356(7)
H8B H 1.0653 0.0154 0.3878
C17B C 0.6331(5) 0.1189(4) 0.1823(6)
C18B C 0.6247(5) 0.1134(4) 0.1055(6)
C19B C 0.5589(6) 0.0856(5) 0.0486(6)
H9B H 0.5210 0.0701 0.0597
C20B C 0.5514(6) 0.0816(5) -0.0239(6)
H10B H 0.5074 0.0632 -0.0617
C21B C 0.6058(6) 0.1035(5) -0.0432(6)
H11B H 0.5987 0.1008 -0.0931
C22B C 0.6723(6) 0.1302(4) 0.0146(6)
C23B C 0.6802(5) 0.1345(4) 0.0881(6)
H12B H 0.7246 0.1521 0.1265
C24B C 0.7309(6) 0.1557(4) -0.0011(6)
C25B C 0.7794(6) 0.1758(5) -0.0112(6)
C26B C 0.8423(7) 0.2016(4) -0.0224(6)
C27B C 0.9066(7) 0.2280(5) 0.0407(6)
H13B H 0.9078 0.2293 0.0884
C28B C 0.9669(6) 0.2515(5) 0.0318(6)
H14B H 1.0099 0.2672 0.0739
C29B C 0.9639(6) 0.2520(4) -0.0392(6)
C30B C 1.0239(6) 0.2810(4) -0.0492(7)
C31B C 0.9031(7) 0.2266(5) -0.1016(7)
H15B H 0.9027 0.2261 -0.1490
C32B C 0.8415(7) 0.2014(4) -0.0931(6)
H16B H 0.7998 0.1844 -0.1352
O1B O 0.7072(4) 0.1264(3) 0.2408(4)
C33 C 0.1677(15) 0.9365(10) 0.2574(13)
C34 C 0.2364(13) 0.9718(10) 0.2784(12)
H17 H 0.2300 1.0110 0.2678
C35 C 0.3147(15) 0.9482(11) 0.3155(18)
H18 H 0.3584 0.9710 0.3270
C36 C 0.3223(15) 0.8880(10) 0.334(2)
H19 H 0.3723 0.8722 0.3550
C37 C 0.2590(12) 0.8503(11) 0.3217(12)
H20 H 0.2657 0.8119 0.3368
C38 C 0.1828(13) 0.8787(10) 0.2834(12)
H21 H 0.1395 0.8565 0.2752
C39 C 0.0938(13) 0.9603(11) 0.2224(13)
H22 H 0.0759 0.9634 0.1681
H23 H 0.0954 0.9979 0.2432
H24 H 0.0585 0.9363 0.2313
O2 O 0.4515(11) 0.0696(6) 0.7410(13)
O3 O 0.4756(14) -0.0029(6) 0.6855(7)
Cl1 Cl 0.5000 0.0258(2) 0.7500
O2B O 0.5485(11) 0.0696(6) 0.7590(13)
O3B O 0.5244(14) -0.0029(6) 0.8145(7)
O4 O 0.4845(7) 0.3084(5) 0.1882(5)
O5 O 0.5615(12) 0.2430(7) 0.2586(11)
Cl2 Cl 0.5000 0.2758(2) 0.2500
O4B O 0.5155(7) 0.3084(5) 0.3118(5)
O5B O 0.4385(12) 0.2430(7) 0.2414(11)
loop_
_geom_bond_atom_site_label_1
_geom_bond_atom_site_label_2
_geom_bond_site_symmetry_1
_geom_bond_site_symmetry_2
Ag1 N1 1_555 1_555
N1 N2 1_555 1_555
N2 C1 1_555 1_555
N3 C14 1_555 1_555
N4 C30 1_555 1_555
C1 C2 1_555 1_555
C2 C3 1_555 1_555
C3 H1 1_555 1_555
C4 C3 1_555 1_555
H2 C4 1_555 1_555
C5 C4 1_555 1_555
H3 C5 1_555 1_555
C6 C5 1_555 1_555
C7 C2 1_555 1_555
H4 C7 1_555 1_555
C8 C6 1_555 1_555
C9 C8 1_555 1_555
C10 C9 1_555 1_555
C11 C10 1_555 1_555
H5 C11 1_555 1_555
C12 C11 1_555 1_555
H6 C12 1_555 1_555
C13 C12 1_555 1_555
C14 C13 1_555 1_555
C15 C13 1_555 1_555
H7 C15 1_555 1_555
C16 C10 1_555 1_555
H8 C16 1_555 1_555
C17 N1 1_555 1_555
C18 C17 1_555 1_555
C19 C18 1_555 1_555
H9 C19 1_555 1_555
C20 C19 1_555 1_555
H10 C20 1_555 1_555
C21 C20 1_555 1_555
H11 C21 1_555 1_555
C22 C21 1_555 1_555
C23 C18 1_555 1_555
H12 C23 1_555 1_555
C24 C22 1_555 1_555
C25 C24 1_555 1_555
C26 C25 1_555 1_555
C27 C26 1_555 1_555
H13 C27 1_555 1_555
C28 C27 1_555 1_555
H14 C28 1_555 1_555
C29 C28 1_555 1_555
C30 C29 1_555 1_555
C31 C29 1_555 1_555
H15 C31 1_555 1_555
C32 C26 1_555 1_555
H16 C32 1_555 1_555
C33 C34 1_555 1_555
C34 H17 1_555 1_555
C35 C34 1_555 1_555
H18 C35 1_555 1_555
C36 C35 1_555 1_555
H19 C36 1_555 1_555
C37 C36 1_555 1_555
H20 C37 1_555 1_555
C38 C33 1_555 1_555
H21 C38 1_555 1_555
C39 C33 1_555 1_555
H22 C39 1_555 1_555
H23 C39 1_555 1_555
H24 C39 1_555 1_555
O1 C1 1_555 1_555
O2 Cl1 1_555 1_555
O3 Cl1 1_555 1_555
O4 Cl2 1_555 1_555
O5 Cl2 1_555 1_555
Cl1 O2B 1_555 1_555
Cl2 O4B 1_555 1_555
Ag1B N2 1_555 1_555
Ag1F N3 1_555 1_555
Ag1E N4 1_555 1_555
Ag1D N3B 1_555 1_555
Ag1G N4B 1_555 1_555
N1B Ag1B 1_555 1_555
N2B Ag1 1_555 1_555
N3B C14B 1_555 1_555
N3F Ag1 1_555 1_555
N3D Ag1B 1_555 1_555
N4B C30B 1_555 1_555
N4E Ag1 1_555 1_555
N4G Ag1B 1_555 1_555
C1B N2B 1_555 1_555
C2B C1B 1_555 1_555
C3B C2B 1_555 1_555
H1B C3B 1_555 1_555
C4B C3B 1_555 1_555
H2B C4B 1_555 1_555
C5B C4B 1_555 1_555
H3B C5B 1_555 1_555
C6B C5B 1_555 1_555
C7B C2B 1_555 1_555
H4B C7B 1_555 1_555
C8B C6B 1_555 1_555
C9B C8B 1_555 1_555
C10B C9B 1_555 1_555
C11B C10B 1_555 1_555
H5B C11B 1_555 1_555
C12B C11B 1_555 1_555
H6B C12B 1_555 1_555
C13B C12B 1_555 1_555
C14B C13B 1_555 1_555
C15B C13B 1_555 1_555
H7B C15B 1_555 1_555
C16B C10B 1_555 1_555
H8B C16B 1_555 1_555
C17B N1B 1_555 1_555
C18B C17B 1_555 1_555
C19B C18B 1_555 1_555
H9B C19B 1_555 1_555
C20B C19B 1_555 1_555
H10B C20B 1_555 1_555
C21B C20B 1_555 1_555
H11B C21B 1_555 1_555
C22B C21B 1_555 1_555
C23B C18B 1_555 1_555
H12B C23B 1_555 1_555
C24B C22B 1_555 1_555
C25B C24B 1_555 1_555
C26B C25B 1_555 1_555
C27B C26B 1_555 1_555
H13B C27B 1_555 1_555
C28B C27B 1_555 1_555
H14B C28B 1_555 1_555
C29B C28B 1_555 1_555
C30B C29B 1_555 1_555
C31B C29B 1_555 1_555
H15B C31B 1_555 1_555
C32B C26B 1_555 1_555
H16B C32B 1_555 1_555
O1B C1B 1_555 1_555
O3B Cl1 1_555 1_555
O5B Cl2 1_555 1_555
C6 C7 1_555 1_555
C15 C16 1_555 1_555
C17 O1 1_555 1_555
C22 C23 1_555 1_555
C31 C32 1_555 1_555
C37 C38 1_555 1_555
N1B N2B 1_555 1_555
C6B C7B 1_555 1_555
C15B C16B 1_555 1_555
C17B O1B 1_555 1_555
C22B C23B 1_555 1_555
C31B C32B 1_555 1_555

#END
