
#######################################################################
#
#                 Cambridge Crystallographic Data Centre
#                                CCDC 
#
#######################################################################
#
# If this CIF has been generated from an entry in the Cambridge 
# Structural Database, then it will include bibliographic, chemical, 
# crystal, experimental, refinement or atomic coordinate data resulting 
# from the CCDC's data processing and validation procedures.
#
#######################################################################

data_WEHSAF
_symmetry_cell_setting           monoclinic
_symmetry_space_group_name_H-M   'P 21/c'
_symmetry_Int_Tables_number      14
_space_group_name_Hall           '-P 2ybc'
loop_
_symmetry_equiv_pos_site_id
_symmetry_equiv_pos_as_xyz
1 x,y,z
2 -x,1/2+y,1/2-z
3 -x,-y,-z
4 x,1/2-y,1/2+z
_cell_length_a                   22.641(1)
_cell_length_b                   11.933(1)
_cell_length_c                   14.522(1)
_cell_angle_alpha                90
_cell_angle_beta                 91.371(3)
_cell_angle_gamma                90
_cell_volume                     3922.36
loop_
_atom_site_label
_atom_site_type_symbol
_atom_site_fract_x
_atom_site_fract_y
_atom_site_fract_z
Sm1 Sm 0.588196(17) -0.04061(4) 0.74969(3)
Sm2 Sm 0.913804(16) -0.03928(3) 0.74326(3)
N1 N 0.4982(4) 0.0872(6) 0.8059(5)
C1 C 0.4840(4) 0.1889(7) 0.7751(7)
H1 H 0.5056 0.2174 0.7267
N2 N 0.4414(3) 0.2528(6) 0.8081(5)
C2 C 0.4100(4) 0.2124(7) 0.8784(6)
C3 C 0.4197(4) 0.1057(8) 0.9125(6)
H2 H 0.3970 0.0762 0.9593
C4 C 0.4653(4) 0.0440(7) 0.8733(6)
C5 C 0.4824(4) -0.0726(7) 0.9056(6)
O1 O 0.5230(3) -0.1189(5) 0.8605(4)
O2 O 0.4577(3) -0.1135(5) 0.9738(4)
C6 C 0.3667(4) 0.2932(8) 0.9217(7)
O3 O 0.3659(3) 0.3908(5) 0.8887(4)
O4 O 0.3375(4) 0.2589(7) 0.9871(6)
N3 N 0.6980(3) 0.0456(5) 0.7263(6)
C7 C 0.7513(4) -0.0042(5) 0.7367(6)
H3 H 0.7516 -0.0789 0.7551
N4 N 0.8035(3) 0.0443(5) 0.7229(5)
C8 C 0.8020(4) 0.1538(7) 0.6983(5)
C9 C 0.7498(5) 0.2124(6) 0.6890(6)
H4 H 0.7494 0.2883 0.6747
C10 C 0.6983(4) 0.1540(7) 0.7017(6)
C11 C 0.6375(4) 0.2067(7) 0.6878(6)
O5 O 0.5949(3) 0.1371(6) 0.6838(5)
O6 O 0.6351(3) 0.3098(6) 0.6797(5)
C12 C 0.8613(4) 0.2080(6) 0.6826(5)
O7 O 0.9049(3) 0.1418(5) 0.6776(4)
O8 O 0.8637(3) 0.3107(5) 0.6749(5)
N5 N 0.9450(3) -0.2387(6) 0.6822(4)
C13 C 0.9857(3) -0.3071(6) 0.7208(5)
H5 H 1.0067 -0.2803 0.7720
N6 N 0.9987(3) -0.4104(5) 0.6920(4)
C14 C 0.9664(3) -0.4519(6) 0.6217(5)
C15 C 0.9238(4) -0.3888(7) 0.5760(5)
H6 H 0.9015 -0.4172 0.5267
C16 C 0.9164(4) -0.2791(7) 0.6086(5)
C17 C 0.8744(4) -0.1965(7) 0.5598(6)
O9 O 0.8703(3) -0.1020(5) 0.5990(4)
O10 O 0.8502(3) -0.2242(5) 0.4861(4)
C18 C 0.9813(4) -0.5718(7) 0.5933(5)
O11 O 1.0209(3) -0.6184(4) 0.6422(4)
O12 O 0.9556(3) -0.6117(5) 0.5252(3)
O13 O 0.6551(3) -0.1699(5) 0.8283(5)
O14 O 0.6204(3) 0.0563(6) 0.8902(5)
O15 O 0.5047(3) -0.0282(6) 0.6369(5)
O16 O 0.8794(3) 0.0532(5) 0.8835(4)
O17 O 0.9989(3) -0.0230(5) 0.6367(4)
O18 O 0.8491(3) -0.1756(5) 0.8123(4)
H7 H 0.6697 -0.2319 0.8097
H8 H 0.6573 -0.1765 0.8896
H9 H 0.6562 0.0753 0.9043
H10 H 0.6007 0.0753 0.9373
H11 H 0.5078 0.0280 0.6017
H12 H 0.4684 -0.0273 0.6524
H13 H 0.9012 0.0726 0.9284
H14 H 0.8441 0.0699 0.8993
H15 H 0.9892 0.0344 0.6046
H16 H 1.0341 -0.0077 0.6572
H17 H 0.8405 -0.2326 0.7798
H18 H 0.8505 -0.1991 0.8679
Sm1A Sm 0.411804(17) 0.45939(4) 0.75031(3)
Sm2A Sm 1.086196(16) -0.53928(3) 0.75674(3)
N2A N 0.5586(3) -0.2472(6) 0.6919(5)
O3A O 0.6341(3) -0.1092(5) 0.6113(4)
N6A N 1.0013(3) 0.0896(5) 0.8080(4)
O11A O 0.9791(3) -0.1184(4) 0.8578(4)
O19 O 0.6990(3) -0.3701(6) 0.7816(6)
O20 O 0.7439(8) 0.0965(11) 0.9222(10)
O21 O 0.4769(3) -0.1603(6) 0.4922(5)
O22 O 0.3900(3) -0.0279(6) 0.6956(5)
O23 O 0.3587(3) -0.0732(7) 0.5161(5)
O24 O 1.1435(3) -0.0773(6) 0.5279(4)
O25 O 0.7488(4) -0.4015(5) 0.9470(5)
O26 O 0.8113(3) -0.3538(6) 0.7127(6)
O27 O 0.9739(3) -0.8385(5) 0.5029(4)
O28 O 0.8848(3) 0.4842(6) 0.7960(5)
O29 O 0.7484(5) 0.3142(6) 0.9336(6)
O30? O 0.7037(11) 0.112(2) 1.0095(16)
loop_
_geom_bond_atom_site_label_1
_geom_bond_atom_site_label_2
_geom_bond_site_symmetry_1
_geom_bond_site_symmetry_2
Sm1 N1 1_555 1_555
Sm2 N4 1_555 1_555
N1 C1 1_555 1_555
C1 H1 1_555 1_555
N2 C1 1_555 1_555
C2 N2 1_555 1_555
C3 C2 1_555 1_555
H2 C3 1_555 1_555
C4 N1 1_555 1_555
C5 C4 1_555 1_555
O1 Sm1 1_555 1_555
O2 C5 1_555 1_555
C6 C2 1_555 1_555
O3 C6 1_555 1_555
O4 C6 1_555 1_555
N3 Sm1 1_555 1_555
C7 N3 1_555 1_555
H3 C7 1_555 1_555
N4 C7 1_555 1_555
C8 N4 1_555 1_555
C9 C8 1_555 1_555
H4 C9 1_555 1_555
C10 N3 1_555 1_555
C11 C10 1_555 1_555
O5 Sm1 1_555 1_555
O6 C11 1_555 1_555
C12 C8 1_555 1_555
O7 Sm2 1_555 1_555
O8 C12 1_555 1_555
N5 Sm2 1_555 1_555
C13 N5 1_555 1_555
H5 C13 1_555 1_555
N6 C13 1_555 1_555
C14 N6 1_555 1_555
C15 C14 1_555 1_555
H6 C15 1_555 1_555
C16 N5 1_555 1_555
C17 C16 1_555 1_555
O9 Sm2 1_555 1_555
O10 C17 1_555 1_555
C18 C14 1_555 1_555
O11 C18 1_555 1_555
O12 C18 1_555 1_555
O13 Sm1 1_555 1_555
O14 Sm1 1_555 1_555
O15 Sm1 1_555 1_555
O16 Sm2 1_555 1_555
O17 Sm2 1_555 1_555
O18 Sm2 1_555 1_555
H7 O13 1_555 1_555
H8 O13 1_555 1_555
H9 O14 1_555 1_555
H10 O14 1_555 1_555
H11 O15 1_555 1_555
H12 O15 1_555 1_555
H13 O16 1_555 1_555
H14 O16 1_555 1_555
H15 O17 1_555 1_555
H16 O17 1_555 1_555
H17 O18 1_555 1_555
H18 O18 1_555 1_555
Sm1A N2 1_555 1_555
Sm2A N6 1_555 1_555
N2A Sm1 1_555 1_555
O3A Sm1 1_555 1_555
N6A Sm2 1_555 1_555
O11A Sm2 1_555 1_555
C3 C4 1_555 1_555
C5 O1 1_555 1_555
O3 Sm1A 1_555 1_555
C9 C10 1_555 1_555
C11 O5 1_555 1_555
C12 O7 1_555 1_555
C15 C16 1_555 1_555
C17 O9 1_555 1_555
O11 Sm2A 1_555 1_555

#END
