
#######################################################################
#
#                 Cambridge Crystallographic Data Centre
#                                CCDC 
#
#######################################################################
#
# If this CIF has been generated from an entry in the Cambridge 
# Structural Database, then it will include bibliographic, chemical, 
# crystal, experimental, refinement or atomic coordinate data resulting 
# from the CCDC's data processing and validation procedures.
#
#######################################################################

data_WEHSEJ
_symmetry_cell_setting           monoclinic
_symmetry_space_group_name_H-M   'P 21/c'
_symmetry_Int_Tables_number      14
_space_group_name_Hall           '-P 2ybc'
loop_
_symmetry_equiv_pos_site_id
_symmetry_equiv_pos_as_xyz
1 x,y,z
2 -x,1/2+y,1/2-z
3 -x,-y,-z
4 x,1/2-y,1/2+z
_cell_length_a                   22.601(2)
_cell_length_b                   11.881(1)
_cell_length_c                   14.441(1)
_cell_angle_alpha                90
_cell_angle_beta                 91.293(6)
_cell_angle_gamma                90
_cell_volume                     3876.75
loop_
_atom_site_label
_atom_site_type_symbol
_atom_site_fract_x
_atom_site_fract_y
_atom_site_fract_z
Eu1 Eu 0.588085(19) -0.03986(4) 0.74954(3)
Eu2 Eu 0.913772(19) -0.03864(4) 0.74296(3)
N1 N 0.4979(4) 0.0881(7) 0.8054(5)
C1 C 0.4836(4) 0.1887(7) 0.7751(7)
H1 H 0.5051 0.2167 0.7260
N2 N 0.4414(3) 0.2545(7) 0.8076(5)
C2 C 0.4100(4) 0.2113(8) 0.8768(6)
C3 C 0.4208(4) 0.1047(8) 0.9118(6)
H2 H 0.3987 0.0753 0.9597
C4 C 0.4654(4) 0.0445(7) 0.8729(6)
C5 C 0.4825(5) -0.0719(8) 0.9049(6)
O1 O 0.5242(3) -0.1185(5) 0.8606(4)
O2 O 0.4582(3) -0.1134(6) 0.9734(4)
C6 C 0.3667(5) 0.2936(8) 0.9216(7)
O3 O 0.3663(3) 0.3914(6) 0.8877(5)
O4 O 0.3371(4) 0.2589(7) 0.9866(6)
N3 N 0.6979(3) 0.0460(6) 0.7276(6)
C7 C 0.7514(5) -0.0038(7) 0.7398(7)
H3 H 0.7519 -0.0779 0.7607
N4 N 0.8029(3) 0.0446(6) 0.7244(5)
C8 C 0.8019(4) 0.1548(8) 0.6986(6)
C9 C 0.7506(5) 0.2115(6) 0.6888(6)
H4 H 0.7503 0.2876 0.6736
C10 C 0.6980(4) 0.1537(8) 0.7018(6)
C11 C 0.6376(4) 0.2069(9) 0.6874(7)
O5 O 0.5948(3) 0.1377(6) 0.6831(5)
O6 O 0.6352(3) 0.3107(6) 0.6795(5)
C12 C 0.8612(4) 0.2083(8) 0.6820(6)
O7 O 0.9041(3) 0.1411(5) 0.6775(4)
O8 O 0.8637(3) 0.3102(6) 0.6725(5)
N5 N 0.9447(3) -0.2397(7) 0.6821(5)
C13 C 0.9855(4) -0.3063(7) 0.7209(6)
H5 H 1.0066 -0.2784 0.7720
N6 N 0.9987(3) -0.4100(6) 0.6921(5)
C14 C 0.9668(4) -0.4509(8) 0.6212(5)
C15 C 0.9231(4) -0.3873(8) 0.5766(7)
H6 H 0.8999 -0.4162 0.5281
C16 C 0.9160(4) -0.2778(8) 0.6088(6)
C17 C 0.8738(4) -0.1951(8) 0.5593(6)
O9 O 0.8699(3) -0.1017(5) 0.5990(4)
O10 O 0.8495(3) -0.2229(6) 0.4871(5)
C18 C 0.9818(4) -0.5711(7) 0.5946(6)
O11 O 1.0214(3) -0.6181(5) 0.6420(4)
O12 O 0.9558(3) -0.6129(5) 0.5258(4)
O13 O 0.6545(3) -0.1691(6) 0.8281(5)
O14 O 0.6189(3) 0.0577(6) 0.8900(5)
O15 O 0.5054(3) -0.0298(6) 0.6381(5)
O16 O 0.8808(3) 0.0540(6) 0.8828(5)
O17 O 0.9980(3) -0.0236(6) 0.6376(4)
O18 O 0.8494(3) -0.1754(6) 0.8118(4)
H7 H 0.6691 -0.2304 0.8082
H8 H 0.6593 -0.1756 0.8894
H9 H 0.6562 0.0753 0.9043
H10 H 0.6007 0.0753 0.9373
H11 H 0.5075 0.0272 0.6030
H12 H 0.4696 -0.0324 0.6542
H13 H 0.9012 0.0726 0.9284
H14 H 0.8441 0.0699 0.8993
H15 H 0.9900 0.0298 0.6005
H16 H 1.0347 -0.0159 0.6506
H17 H 0.8415 -0.2322 0.7781
H18 H 0.8481 -0.1997 0.8670
Eu1A Eu 0.411915(19) 0.46014(4) 0.75046(3)
Eu2A Eu 1.086228(19) -0.53864(4) 0.75704(3)
N2A N 0.5586(3) -0.2455(7) 0.6924(5)
O3A O 0.6337(3) -0.1086(6) 0.6123(5)
N6A N 1.0013(3) 0.0900(6) 0.8079(5)
O11A O 0.9786(3) -0.1181(5) 0.8580(4)
O19 O 0.6976(4) -0.3693(7) 0.7796(6)
O20 O 0.7049(8) 0.111(2) 1.0072(18)
O21 O 0.4793(4) -0.1606(6) 0.4919(5)
O22 O 0.3903(3) -0.0291(6) 0.6946(5)
O23 O 0.3577(4) -0.0764(8) 0.5161(6)
O24 O 1.1461(4) -0.0789(7) 0.5281(5)
O25 O 0.7490(4) -0.4009(6) 0.9466(5)
O26 O 0.8111(3) -0.3535(7) 0.7138(6)
O27 O 0.9752(4) -0.8394(6) 0.5039(5)
O28 O 0.8839(3) 0.4823(7) 0.7970(5)
O29 O 0.7478(7) 0.3127(9) 0.9329(8)
O30? O 0.7441(11) 0.0961(15) 0.9218(14)
loop_
_geom_bond_atom_site_label_1
_geom_bond_atom_site_label_2
_geom_bond_site_symmetry_1
_geom_bond_site_symmetry_2
Eu1 N1 1_555 1_555
Eu2 N4 1_555 1_555
N1 C1 1_555 1_555
C1 H1 1_555 1_555
N2 C1 1_555 1_555
C2 N2 1_555 1_555
C3 C2 1_555 1_555
H2 C3 1_555 1_555
C4 N1 1_555 1_555
C5 C4 1_555 1_555
O1 Eu1 1_555 1_555
O2 C5 1_555 1_555
C6 C2 1_555 1_555
O3 C6 1_555 1_555
O4 C6 1_555 1_555
N3 Eu1 1_555 1_555
C7 N3 1_555 1_555
H3 C7 1_555 1_555
N4 C7 1_555 1_555
C8 N4 1_555 1_555
C9 C8 1_555 1_555
H4 C9 1_555 1_555
C10 N3 1_555 1_555
C11 C10 1_555 1_555
O5 Eu1 1_555 1_555
O6 C11 1_555 1_555
C12 C8 1_555 1_555
O7 Eu2 1_555 1_555
O8 C12 1_555 1_555
N5 Eu2 1_555 1_555
C13 N5 1_555 1_555
H5 C13 1_555 1_555
N6 C13 1_555 1_555
C14 N6 1_555 1_555
C15 C14 1_555 1_555
H6 C15 1_555 1_555
C16 N5 1_555 1_555
C17 C16 1_555 1_555
O9 Eu2 1_555 1_555
O10 C17 1_555 1_555
C18 C14 1_555 1_555
O11 C18 1_555 1_555
O12 C18 1_555 1_555
O13 Eu1 1_555 1_555
O14 Eu1 1_555 1_555
O15 Eu1 1_555 1_555
O16 Eu2 1_555 1_555
O17 Eu2 1_555 1_555
O18 Eu2 1_555 1_555
H7 O13 1_555 1_555
H8 O13 1_555 1_555
H9 O14 1_555 1_555
H10 O14 1_555 1_555
H11 O15 1_555 1_555
H12 O15 1_555 1_555
H13 O16 1_555 1_555
H14 O16 1_555 1_555
H15 O17 1_555 1_555
H16 O17 1_555 1_555
H17 O18 1_555 1_555
H18 O18 1_555 1_555
Eu1A N2 1_555 1_555
Eu2A N6 1_555 1_555
N2A Eu1 1_555 1_555
O3A Eu1 1_555 1_555
N6A Eu2 1_555 1_555
O11A Eu2 1_555 1_555
C3 C4 1_555 1_555
C5 O1 1_555 1_555
O3 Eu1A 1_555 1_555
C9 C10 1_555 1_555
C11 O5 1_555 1_555
C12 O7 1_555 1_555
C15 C16 1_555 1_555
C17 O9 1_555 1_555
O11 Eu2A 1_555 1_555

#END
