
#######################################################################
#
#                 Cambridge Crystallographic Data Centre
#                                CCDC 
#
#######################################################################
#
# If this CIF has been generated from an entry in the Cambridge 
# Structural Database, then it will include bibliographic, chemical, 
# crystal, experimental, refinement or atomic coordinate data resulting 
# from the CCDC's data processing and validation procedures.
#
#######################################################################

data_WEHSOT
_symmetry_cell_setting           monoclinic
_symmetry_space_group_name_H-M   'P 21/c'
_symmetry_Int_Tables_number      14
_space_group_name_Hall           '-P 2ybc'
loop_
_symmetry_equiv_pos_site_id
_symmetry_equiv_pos_as_xyz
1 x,y,z
2 -x,1/2+y,1/2-z
3 -x,-y,-z
4 x,1/2-y,1/2+z
_cell_length_a                   22.568(1)
_cell_length_b                   11.817(1)
_cell_length_c                   14.220(1)
_cell_angle_alpha                90
_cell_angle_beta                 90.446(7)
_cell_angle_gamma                90
_cell_volume                     3792.16
loop_
_atom_site_label
_atom_site_type_symbol
_atom_site_fract_x
_atom_site_fract_y
_atom_site_fract_z
Yb1 Yb 0.58640(3) -0.04020(6) 0.74829(4)
Yb2 Yb 0.91424(3) -0.04010(5) 0.74513(3)
N1 N 0.4999(7) 0.0901(11) 0.8031(8)
C1 C 0.4886(7) 0.1945(11) 0.7742(9)
H1 H 0.5136 0.2260 0.7296
N2 N 0.4430(6) 0.2587(11) 0.8052(7)
C2 C 0.4098(8) 0.2185(13) 0.8781(10)
C3 C 0.4184(8) 0.1076(13) 0.9099(10)
H2 H 0.3933 0.0752 0.9539
C4 C 0.4655(8) 0.0484(14) 0.8737(9)
C5 C 0.4888(7) -0.0676(11) 0.9041(8)
O1 O 0.5282(5) -0.1123(8) 0.8597(6)
O2 O 0.4572(5) -0.1124(8) 0.9748(6)
C6 C 0.3668(8) 0.2992(14) 0.9194(10)
O3 O 0.3646(5) 0.3951(9) 0.8847(6)
O4 O 0.3380(5) 0.2644(11) 0.9849(8)
N3 N 0.7004(5) 0.0419(10) 0.7344(7)
C7 C 0.7531(8) -0.0074(9) 0.7457(6)
H3 H 0.7529 -0.0817 0.7673
N4 N 0.8055(5) 0.0378(9) 0.7296(7)
C8 C 0.8029(7) 0.1487(12) 0.6991(8)
C9 C 0.7494(10) 0.2044(9) 0.6864(7)
H4 H 0.7479 0.2796 0.6674
C10 C 0.6999(8) 0.1449(14) 0.7028(9)
C11 C 0.6409(9) 0.2025(16) 0.6841(10)
O5 O 0.5949(5) 0.1293(9) 0.6830(6)
O6 O 0.6314(6) 0.3015(11) 0.6746(8)
C12 C 0.8641(7) 0.1980(12) 0.6830(8)
O7 O 0.9041(5) 0.1326(8) 0.6778(6)
O8 O 0.8631(5) 0.3043(9) 0.6698(6)
N5 N 0.9456(5) -0.2400(10) 0.6870(6)
C13 C 0.9847(6) -0.3072(11) 0.7266(9)
H5 H 1.0036 -0.2821 0.7811
N6 N 0.9994(6) -0.4101(10) 0.6937(7)
C14 C 0.9678(7) -0.4524(13) 0.6234(8)
C15 C 0.9251(7) -0.3896(11) 0.5785(9)
H6 H 0.9030 -0.4178 0.5282
C16 C 0.9170(7) -0.2794(11) 0.6139(8)
C17 C 0.8758(6) -0.1974(11) 0.5664(8)
O9 O 0.8726(5) -0.1006(8) 0.6052(6)
O10 O 0.8503(5) -0.2229(8) 0.4928(6)
C18 C 0.9790(6) -0.5719(11) 0.5952(8)
O11 O 1.0217(5) -0.6188(8) 0.6440(6)
O12 O 0.9584(5) -0.6133(9) 0.5274(6)
O13 O 0.6501(5) -0.1700(9) 0.8223(6)
O14 O 0.6185(5) 0.0556(8) 0.8871(6)
O15 O 0.5082(6) -0.0298(10) 0.6370(7)
O16 O 0.8873(5) 0.0545(8) 0.8814(6)
O17 O 0.9969(5) -0.0271(9) 0.6390(6)
O18 O 0.8528(5) -0.1724(9) 0.8179(6)
Yb1A Yb 0.41360(3) 0.45980(6) 0.75171(4)
Yb2A Yb 1.08576(3) -0.54010(5) 0.75487(3)
N2A N 0.5570(6) -0.2413(11) 0.6948(7)
O3A O 0.6354(5) -0.1049(9) 0.6153(6)
N6A N 1.0006(6) 0.0899(10) 0.8063(7)
O11A O 0.9783(5) -0.1188(8) 0.8560(6)
O19 O 0.6924(8) -0.3694(16) 0.7718(12)
O20 O 0.7962(6) 0.0987(13) 0.9995(9)
O21 O 0.4839(6) -0.1589(11) 0.4907(8)
O22 O 0.3898(7) -0.0312(13) 0.6947(9)
O23 O 0.3531(7) -0.0765(13) 0.5182(10)
O24 O 1.1458(7) -0.0782(13) 0.5236(9)
O25 O 0.7498(10) -0.3968(8) 0.9409(6)
O26 O 0.8104(6) -0.3554(12) 0.7288(9)
O27 O 0.9742(5) -0.8397(9) 0.5044(6)
O28 O 0.8849(6) 0.4705(11) 0.7964(8)
O29 O 0.761(3) -0.408(3) 0.563(2)
loop_
_geom_bond_atom_site_label_1
_geom_bond_atom_site_label_2
_geom_bond_site_symmetry_1
_geom_bond_site_symmetry_2
Yb1 N1 1_555 1_555
Yb2 N4 1_555 1_555
N1 C1 1_555 1_555
C1 H1 1_555 1_555
N2 C1 1_555 1_555
C2 N2 1_555 1_555
C3 C2 1_555 1_555
H2 C3 1_555 1_555
C4 N1 1_555 1_555
C5 C4 1_555 1_555
O1 Yb1 1_555 1_555
O2 C5 1_555 1_555
C6 C2 1_555 1_555
O3 C6 1_555 1_555
O4 C6 1_555 1_555
N3 Yb1 1_555 1_555
C7 N3 1_555 1_555
H3 C7 1_555 1_555
N4 C7 1_555 1_555
C8 N4 1_555 1_555
C9 C8 1_555 1_555
H4 C9 1_555 1_555
C10 N3 1_555 1_555
C11 C10 1_555 1_555
O5 Yb1 1_555 1_555
O6 C11 1_555 1_555
C12 C8 1_555 1_555
O7 Yb2 1_555 1_555
O8 C12 1_555 1_555
N5 Yb2 1_555 1_555
C13 N5 1_555 1_555
H5 C13 1_555 1_555
N6 C13 1_555 1_555
C14 N6 1_555 1_555
C15 C14 1_555 1_555
H6 C15 1_555 1_555
C16 N5 1_555 1_555
C17 C16 1_555 1_555
O9 Yb2 1_555 1_555
O10 C17 1_555 1_555
C18 C14 1_555 1_555
O11 C18 1_555 1_555
O12 C18 1_555 1_555
O13 Yb1 1_555 1_555
O14 Yb1 1_555 1_555
O15 Yb1 1_555 1_555
O16 Yb2 1_555 1_555
O17 Yb2 1_555 1_555
O18 Yb2 1_555 1_555
Yb1A N2 1_555 1_555
Yb2A N6 1_555 1_555
N2A Yb1 1_555 1_555
O3A Yb1 1_555 1_555
N6A Yb2 1_555 1_555
O11A Yb2 1_555 1_555
C3 C4 1_555 1_555
C5 O1 1_555 1_555
O3 Yb1A 1_555 1_555
C9 C10 1_555 1_555
C11 O5 1_555 1_555
C12 O7 1_555 1_555
C15 C16 1_555 1_555
C17 O9 1_555 1_555
O11 Yb2A 1_555 1_555

#END
