
#######################################################################
#
#                 Cambridge Crystallographic Data Centre
#                                CCDC 
#
#######################################################################
#
# If this CIF has been generated from an entry in the Cambridge 
# Structural Database, then it will include bibliographic, chemical, 
# crystal, experimental, refinement or atomic coordinate data resulting 
# from the CCDC's data processing and validation procedures.
#
#######################################################################

data_WEHSUZ
_symmetry_cell_setting           monoclinic
_symmetry_space_group_name_H-M   'P c'
_symmetry_Int_Tables_number      7
_space_group_name_Hall           'P -2yc'
loop_
_symmetry_equiv_pos_site_id
_symmetry_equiv_pos_as_xyz
1 x,y,z
2 x,-y,1/2+z
_cell_length_a                   9.3759(2)
_cell_length_b                   10.4558(2)
_cell_length_c                   12.5447(2)
_cell_angle_alpha                90
_cell_angle_beta                 106.632(2)
_cell_angle_gamma                90
_cell_volume                     1178.34
loop_
_atom_site_label
_atom_site_type_symbol
_atom_site_fract_x
_atom_site_fract_y
_atom_site_fract_z
La1 La -0.110895 0.87180(3) 0.328073
La2 La 0.38425(6) 1.42417(3) 0.32639(5)
N1 N 0.0429(4) 1.0916(3) 0.4148(3)
C1 C 0.1157(6) 1.1728(6) 0.3649(5)
H1 H 0.102449 1.160804 0.286832
N2 N 0.2048(6) 1.2685(5) 0.4147(5)
C2 C 0.2215(7) 1.2849(6) 0.5239(5)
C3 C 0.1479(7) 1.2088(6) 0.5816(5)
H2 H 0.158341 1.222466 0.659118
C4 C 0.0588(6) 1.1125(6) 0.5226(5)
C5 C -0.0272(7) 1.0234(6) 0.5780(5)
C6 C 0.3290(8) 1.3881(6) 0.5832(5)
N3 N -0.0402(4) 0.6960(3) 0.4979(3)
C7 C 0.0905(7) 0.6836(5) 0.5780(5)
H3 H 0.17063 0.738375 0.573268
N4 N 0.1181(7) 0.6019(5) 0.6635(5)
C8 C 0.0046(7) 0.5265(5) 0.6697(5)
C9 C -0.1348(7) 0.5348(5) 0.5932(5)
H4 H -0.216073 0.482228 0.599221
C10 C -0.1517(7) 0.6221(5) 0.5079(5)
C11 C -0.3004(7) 0.6390(5) 0.4194(5)
C12 C 0.0364(8) 0.4279(6) 0.7624(5)
N5 N -0.4642(4) 0.7747(3) -0.0442(3)
C13 C -0.3720(6) 0.7682(5) 0.0603(5)
H5 H -0.337200 0.684910 0.088190
N6 N -0.3249(6) 0.8674(5) 0.1285(5)
C14 C -0.3735(6) 0.9837(6) 0.0882(5)
C15 C -0.4649(7) 1.0003(6) -0.0192(5)
H6 H -0.497140 1.083800 -0.04814
C16 C -0.5075(6) 0.8917(5) -0.0828(5)
C17 C -0.6078(7) 0.8992(6) -0.2020(6)
C18 C -0.3283(7) 1.0967(6) 0.1666(6)
O1 O -0.1141(4) 0.9474(4) 0.5143(3)
O2 O -0.0177(5) 1.0462(4) 0.6778(3)
O3 O 0.3940(4) 1.4531(4) 0.5274(3)
O4 O 0.3387(4) 1.4024(4) 0.6838(3)
O5 O -0.3115(4) 0.7317(4) 0.3537(3)
O6 O -0.4014(5) 0.5607(4) 0.4212(3)
O7 O 0.1618(4) 0.4332(4) 0.8341(3)
O8 O -0.0591(4) 0.3420(4) 0.7536(3)
O9 O -0.6340(4) 0.7924(4) -0.2534(3)
O10 O -0.6700(4) 1.0031(4) -0.2339(3)
O11 O -0.2676(5) 1.0678(4) 0.2687(3)
O12 O -0.3534(4) 1.2047(4) 0.1258(3)
O13 O 0.1775(4) 0.8367(4) 0.3845(3)
O14 O 0.5674(5) 1.4106(4) 0.2103(3)
H7 H 0.186074 0.756125 0.368876
H8 H 0.218158 0.875827 0.340413
H9 H 0.51761 1.450100 0.152270
H10 H 0.593070 1.341020 0.184970
La1A La -0.110895 1.12820(3) 0.828073
La1A_2 La -0.110895 0.12820(3) 0.828073
La2A La 0.38425(6) 0.57583(3) 0.82639(5)
La2A_2 La -0.61575(6) 0.57583(3) -0.17361(5)
La2A_3 La 0.38425(6) 1.57583(3) 0.82639(5)
La2_2 La -0.61575(6) 0.42417(3) 0.32639(5)
N4A N 0.1181(7) 1.3981(5) 0.1635(5)
N5A N 0.5358(4) 1.2253(3) 0.4558(3)
O2A O -0.0177(5) 0.9538(4) 0.1778(3)
O4A O 0.3387(4) 1.5976(4) 0.1838(3)
O6_2 O 0.5986(5) 1.5607(4) 0.4212(3)
O7A O 0.1618(4) 1.5668(4) 0.3341(3)
O8A O -0.0591(4) 0.6580(4) 0.2536(3)
O9A O 0.3660(4) 1.2076(4) 0.2466(3)
O15 O 0.8424(6) 0.6785(5) 0.8802(4)
H11 H 0.815409 0.75614 0.856695
H12 H 0.767159 0.634769 0.838965
loop_
_geom_bond_atom_site_label_1
_geom_bond_atom_site_label_2
_geom_bond_site_symmetry_1
_geom_bond_site_symmetry_2
La1 N1 1_555 1_555
La2 N2 1_555 1_555
N1 C1 1_555 1_555
C1 H1 1_555 1_555
N2 C1 1_555 1_555
C2 N2 1_555 1_555
C3 C2 1_555 1_555
H2 C3 1_555 1_555
C4 N1 1_555 1_555
C5 C4 1_555 1_555
C6 C2 1_555 1_555
N3 La1 1_555 1_555
C7 N3 1_555 1_555
H3 C7 1_555 1_555
N4 C7 1_555 1_555
C8 N4 1_555 1_555
C9 C8 1_555 1_555
H4 C9 1_555 1_555
C10 N3 1_555 1_555
C11 C10 1_555 1_555
C12 C8 1_555 1_555
N5 C13 1_555 1_555
C13 H5 1_555 1_555
N6 La1 1_555 1_555
C14 N6 1_555 1_555
C15 C14 1_555 1_555
H6 C15 1_555 1_555
C16 N5 1_555 1_555
C17 C16 1_555 1_555
C18 C14 1_555 1_555
O1 La1 1_555 1_555
O2 C5 1_555 1_555
O3 La2 1_555 1_555
O4 C6 1_555 1_555
O5 La1 1_555 1_555
O6 C11 1_555 1_555
O7 C12 1_555 1_555
O8 C12 1_555 1_555
O9 C17 1_555 1_555
O10 C17 1_555 1_555
O11 La1 1_555 1_555
O12 C18 1_555 1_555
O13 La1 1_555 1_555
O14 La2 1_555 1_555
H7 O13 1_555 1_555
H8 O13 1_555 1_555
H9 O14 1_555 1_555
H10 O14 1_555 1_555
O15 H11 1_555 1_555
H12 O15 1_555 1_555
La1A O2 1_555 1_555
La1A_2 O8 1_555 1_555
La2A N4 1_555 1_555
La2A_2 N5 1_555 1_555
La2A_3 O4 1_555 1_555
La2_2 O6 1_555 1_555
N4A La2 1_555 1_555
N5A La2 1_555 1_555
O2A La1 1_555 1_555
O4A La2 1_555 1_555
O6_2 La2 1_555 1_555
O7A La2 1_555 1_555
O8A La1 1_555 1_555
O9A La2 1_555 1_555
C3 C4 1_555 1_555
C5 O1 1_555 1_555
C6 O3 1_555 1_555
C9 C10 1_555 1_555
C11 O5 1_555 1_555
C13 N6 1_555 1_555
C15 C16 1_555 1_555
C18 O11 1_555 1_555
O7 La2A 1_555 1_555
O9 La2A_2 1_555 1_555

#END
