
#######################################################################
#
#                 Cambridge Crystallographic Data Centre
#                                CCDC 
#
#######################################################################
#
# If this CIF has been generated from an entry in the Cambridge 
# Structural Database, then it will include bibliographic, chemical, 
# crystal, experimental, refinement or atomic coordinate data resulting 
# from the CCDC's data processing and validation procedures.
#
#######################################################################

data_WEHSIN
_symmetry_cell_setting           monoclinic
_symmetry_space_group_name_H-M   'P 21/c'
_symmetry_Int_Tables_number      14
_space_group_name_Hall           '-P 2ybc'
loop_
_symmetry_equiv_pos_site_id
_symmetry_equiv_pos_as_xyz
1 x,y,z
2 -x,1/2+y,1/2-z
3 -x,-y,-z
4 x,1/2-y,1/2+z
_cell_length_a                   22.604(1)
_cell_length_b                   11.847(1)
_cell_length_c                   14.375(1)
_cell_angle_alpha                90
_cell_angle_beta                 90.920(4)
_cell_angle_gamma                90
_cell_volume                     3848.98
loop_
_atom_site_label
_atom_site_type_symbol
_atom_site_fract_x
_atom_site_fract_y
_atom_site_fract_z
Tb1 Tb 0.58731(3) -0.03999(5) 0.74894(4)
Tb2 Tb 0.91397(3) -0.03924(5) 0.74438(4)
N1 N 0.4994(5) 0.0896(8) 0.8044(7)
C1 C 0.4848(5) 0.1905(10) 0.7742(8)
H1 H 0.5060 0.2178 0.7240
N2 N 0.4428(5) 0.2587(8) 0.8075(7)
C2 C 0.4102(6) 0.2148(11) 0.8757(9)
C3 C 0.4207(6) 0.1067(12) 0.9109(9)
H2 H 0.3980 0.0770 0.9585
C4 C 0.4658(5) 0.0463(9) 0.8722(9)
C5 C 0.4832(6) -0.0707(9) 0.9055(8)
O1 O 0.5241(4) -0.1164(7) 0.8601(5)
O2 O 0.4583(4) -0.1118(7) 0.9728(5)
C6 C 0.3674(7) 0.2957(11) 0.9205(11)
O3 O 0.3667(5) 0.3936(8) 0.8883(6)
O4 O 0.3365(6) 0.2596(10) 0.9846(10)
N3 N 0.6976(5) 0.0424(7) 0.7315(7)
C7 C 0.7507(5) -0.0061(8) 0.7417(6)
H3 H 0.7512 -0.0812 0.7606
N4 N 0.8030(4) 0.0422(7) 0.7275(6)
C8 C 0.8019(6) 0.1499(10) 0.6985(7)
C9 C 0.7487(6) 0.2088(8) 0.6882(7)
H4 H 0.7482 0.2847 0.6716
C10 C 0.6979(6) 0.1522(10) 0.7031(8)
C11 C 0.6378(6) 0.2035(11) 0.6873(9)
O5 O 0.5960(4) 0.1344(7) 0.6850(6)
O6 O 0.6348(4) 0.3077(8) 0.6784(7)
C12 C 0.8615(6) 0.2031(9) 0.6823(8)
O7 O 0.9048(4) 0.1369(7) 0.6758(5)
O8 O 0.8631(5) 0.3066(8) 0.6687(8)
N5 N 0.9451(4) -0.2410(9) 0.6854(6)
C13 C 0.9867(5) -0.3054(9) 0.7236(8)
H5 H 1.0087 -0.2765 0.7734
N6 N 0.9990(5) -0.4108(8) 0.6941(7)
C14 C 0.9664(6) -0.4514(10) 0.6218(8)
C15 C 0.9228(5) -0.3906(9) 0.5787(8)
H6 H 0.8990 -0.4203 0.5314
C16 C 0.9164(5) -0.2788(10) 0.6115(7)
C17 C 0.8730(6) -0.1977(10) 0.5623(7)
O9 O 0.8694(4) -0.1016(7) 0.6034(5)
O10 O 0.8498(5) -0.2243(8) 0.4902(7)
C18 C 0.9828(5) -0.5719(10) 0.5948(7)
O11 O 1.0228(4) -0.6187(6) 0.6423(5)
O12 O 0.9569(4) -0.6137(7) 0.5257(5)
O13 O 0.6521(4) -0.1692(7) 0.8238(6)
O14 O 0.6175(4) 0.0565(7) 0.8883(6)
O15 O 0.5057(5) -0.0287(8) 0.6370(6)
O16 O 0.8833(5) 0.0541(8) 0.8830(6)
O17 O 0.9962(4) -0.0256(7) 0.6378(6)
O18 O 0.8512(4) -0.1712(7) 0.8146(6)
H7 H 0.6697 -0.2319 0.8097
H8 H 0.6573 -0.1765 0.8896
H9 H 0.6562 0.0753 0.9043
H10 H 0.6007 0.0753 0.9373
H11 H 0.5078 0.0280 0.6017
H12 H 0.4684 -0.0273 0.6524
H13 H 0.9012 0.0726 0.9284
H14 H 0.8441 0.0699 0.8993
H15 H 0.9892 0.0344 0.6046
H16 H 1.0341 -0.0077 0.6572
H17 H 0.8405 -0.2326 0.7798
H18 H 0.8505 -0.1991 0.8679
Tb1A Tb 0.41269(3) 0.46001(5) 0.75106(4)
Tb2A Tb 1.08603(3) -0.53924(5) 0.75562(4)
N2A N 0.5572(5) -0.2413(8) 0.6925(7)
O3A O 0.6333(5) -0.1064(8) 0.6117(6)
N6A N 1.0010(5) 0.0892(8) 0.8059(7)
O11A O 0.9772(4) -0.1187(6) 0.8577(5)
O19 O 0.6988(6) -0.3697(10) 0.7790(9)
O20 O 0.7032(10) 0.1060(19) 1.0057(15)
O21 O 0.4769(6) -0.1609(8) 0.4941(7)
O22 O 0.3888(6) -0.0286(9) 0.6943(8)
O23 O 0.3578(6) -0.0775(10) 0.5166(8)
O24 O 1.1442(5) -0.0771(11) 0.5281(7)
O25 O 0.7486(6) -0.3992(7) 0.9434(7)
O26 O 0.8116(6) -0.3527(9) 0.7171(11)
O27 O 0.9760(5) -0.8404(8) 0.5033(6)
O28 O 0.8857(5) 0.4791(9) 0.7969(7)
O29 O 0.7483(9) 0.3081(14) 0.9326(12)
O30? O 0.7847(12) -0.049(2) 0.9643(18)
loop_
_geom_bond_atom_site_label_1
_geom_bond_atom_site_label_2
_geom_bond_site_symmetry_1
_geom_bond_site_symmetry_2
Tb1 N1 1_555 1_555
Tb2 N4 1_555 1_555
N1 C1 1_555 1_555
C1 H1 1_555 1_555
N2 C1 1_555 1_555
C2 N2 1_555 1_555
C3 C2 1_555 1_555
H2 C3 1_555 1_555
C4 N1 1_555 1_555
C5 C4 1_555 1_555
O1 Tb1 1_555 1_555
O2 C5 1_555 1_555
C6 C2 1_555 1_555
O3 C6 1_555 1_555
O4 C6 1_555 1_555
N3 Tb1 1_555 1_555
C7 N3 1_555 1_555
H3 C7 1_555 1_555
N4 C7 1_555 1_555
C8 N4 1_555 1_555
C9 C8 1_555 1_555
H4 C9 1_555 1_555
C10 N3 1_555 1_555
C11 C10 1_555 1_555
O5 Tb1 1_555 1_555
O6 C11 1_555 1_555
C12 C8 1_555 1_555
O7 Tb2 1_555 1_555
O8 C12 1_555 1_555
N5 Tb2 1_555 1_555
C13 N5 1_555 1_555
H5 C13 1_555 1_555
N6 C13 1_555 1_555
C14 N6 1_555 1_555
C15 C14 1_555 1_555
H6 C15 1_555 1_555
C16 N5 1_555 1_555
C17 C16 1_555 1_555
O9 Tb2 1_555 1_555
O10 C17 1_555 1_555
C18 C14 1_555 1_555
O11 C18 1_555 1_555
O12 C18 1_555 1_555
O13 Tb1 1_555 1_555
O14 Tb1 1_555 1_555
O15 Tb1 1_555 1_555
O16 Tb2 1_555 1_555
O17 Tb2 1_555 1_555
O18 Tb2 1_555 1_555
H7 O13 1_555 1_555
H8 O13 1_555 1_555
H9 O14 1_555 1_555
H10 O14 1_555 1_555
H11 O15 1_555 1_555
H12 O15 1_555 1_555
H13 O16 1_555 1_555
H14 O16 1_555 1_555
H15 O17 1_555 1_555
H16 O17 1_555 1_555
H17 O18 1_555 1_555
H18 O18 1_555 1_555
Tb1A N2 1_555 1_555
Tb2A N6 1_555 1_555
N2A Tb1 1_555 1_555
O3A Tb1 1_555 1_555
N6A Tb2 1_555 1_555
O11A Tb2 1_555 1_555
C3 C4 1_555 1_555
C5 O1 1_555 1_555
O3 Tb1A 1_555 1_555
C9 C10 1_555 1_555
C11 O5 1_555 1_555
C12 O7 1_555 1_555
C15 C16 1_555 1_555
C17 O9 1_555 1_555
O11 Tb2A 1_555 1_555

#END
