
#######################################################################
#
#                 Cambridge Crystallographic Data Centre
#                                CCDC 
#
#######################################################################
#
# If this CIF has been generated from an entry in the Cambridge 
# Structural Database, then it will include bibliographic, chemical, 
# crystal, experimental, refinement or atomic coordinate data resulting 
# from the CCDC's data processing and validation procedures.
#
#######################################################################

data_WEHVIP
_symmetry_cell_setting           monoclinic
_symmetry_space_group_name_H-M   'P 21/c'
_symmetry_Int_Tables_number      14
_space_group_name_Hall           '-P 2ybc'
loop_
_symmetry_equiv_pos_site_id
_symmetry_equiv_pos_as_xyz
1 x,y,z
2 -x,1/2+y,1/2-z
3 -x,-y,-z
4 x,1/2-y,1/2+z
_cell_length_a                   3.7965(11)
_cell_length_b                   15.078(5)
_cell_length_c                   10.972(4)
_cell_angle_alpha                90
_cell_angle_beta                 97.082(6)
_cell_angle_gamma                90
_cell_volume                     623.285
loop_
_atom_site_label
_atom_site_type_symbol
_atom_site_fract_x
_atom_site_fract_y
_atom_site_fract_z
Cu1 Cu 0.2722(2) 0.43705(5) 0.55941(7)
Cl1 Cl 0.1807(4) 0.50141(9) 0.34369(11)
N1 N 0.3155(11) 0.3068(3) 0.5309(4)
C1 C 0.4863(14) 0.2531(3) 0.6147(5)
H1 H 0.5857 0.2779 0.6887
C2 C 0.5246(15) 0.1637(3) 0.5988(5)
H2 H 0.6439 0.1294 0.6612
C3 C 0.3840(14) 0.1246(3) 0.4887(5)
C4 C 0.2072(14) 0.1800(4) 0.4020(5)
H3 H 0.1050 0.1569 0.3273
C5 C 0.1805(14) 0.2691(3) 0.4249(5)
H4 H 0.0632 0.3049 0.3639
C6 C 0.4197(16) 0.0299(3) 0.4602(5)
H5 H 0.3258 0.0101 0.3827
Cu1B Cu -0.2722(2) 0.56295(5) 0.44059(7)
Cu1B_2 Cu 0.7278(2) 0.56295(5) 0.44059(7)
Cu1B_3 Cu 0.7278(2) -0.43705(5) 0.44059(7)
Cu1_2 Cu -0.7278(2) 0.43705(5) 0.55941(7)
Cl1B Cl -0.1807(4) 0.49859(9) 0.65631(11)
Cl1B_2 Cl 0.8193(4) 0.49859(9) 0.65631(11)
Cl1_2 Cl -0.8193(4) 0.50141(9) 0.34369(11)
N1B N 0.6845(11) -0.3068(3) 0.4691(4)
N1B_2 N -0.3155(11) 0.6932(3) 0.4691(4)
C1B C 0.5137(14) -0.2531(3) 0.3853(5)
H1B H 0.4143 -0.2779 0.3113
C2B C 0.4754(15) -0.1637(3) 0.4012(5)
H2B H 0.3561 -0.1294 0.3388
C3B C 0.6160(14) -0.1246(3) 0.5113(5)
C4B C 0.7928(14) -0.1800(4) 0.5980(5)
H3B H 0.8950 -0.1569 0.6727
C5B C 0.8195(14) -0.2691(3) 0.5751(5)
H4B H 0.9368 -0.3049 0.6361
C6B C 0.5803(16) -0.0299(3) 0.5398(5)
H5B H 0.6742 -0.0101 0.6173
loop_
_geom_bond_atom_site_label_1
_geom_bond_atom_site_label_2
_geom_bond_site_symmetry_1
_geom_bond_site_symmetry_2
Cu1 Cl1 1_555 1_555
Cl1 Cu1B 1_555 1_555
N1 Cu1 1_555 1_555
C1 N1 1_555 1_555
H1 C1 1_555 1_555
C2 C1 1_555 1_555
H2 C2 1_555 1_555
C3 C2 1_555 1_555
C4 C3 1_555 1_555
H3 C4 1_555 1_555
C5 N1 1_555 1_555
H4 C5 1_555 1_555
C6 C3 1_555 1_555
H5 C6 1_555 1_555
Cu1B Cl1B 1_555 1_555
Cu1B_2 Cl1 1_555 1_555
Cu1B_3 N1B 1_555 1_555
Cu1_2 Cl1B 1_555 1_555
Cl1B Cu1 1_555 1_555
Cl1B_2 Cu1 1_555 1_555
Cl1_2 Cu1B 1_555 1_555
N1B C1B 1_555 1_555
N1B_2 Cu1B 1_555 1_555
C1B H1B 1_555 1_555
C2B C1B 1_555 1_555
H2B C2B 1_555 1_555
C3B C2B 1_555 1_555
C4B C3B 1_555 1_555
H3B C4B 1_555 1_555
C5B N1B 1_555 1_555
H4B C5B 1_555 1_555
C6B C6 1_555 1_555
H5B C6B 1_555 1_555
C4 C5 1_555 1_555
Cu1B_2 Cl1B_2 1_555 1_555
Cu1_2 Cl1_2 1_555 1_555
C3B C6B 1_555 1_555
C4B C5B 1_555 1_555

#END
