
#######################################################################
#
#                 Cambridge Crystallographic Data Centre
#                                CCDC 
#
#######################################################################
#
# If this CIF has been generated from an entry in the Cambridge 
# Structural Database, then it will include bibliographic, chemical, 
# crystal, experimental, refinement or atomic coordinate data resulting 
# from the CCDC's data processing and validation procedures.
#
#######################################################################

data_WEHVOV
_symmetry_cell_setting           monoclinic
_symmetry_space_group_name_H-M   'P 21'
_symmetry_Int_Tables_number      4
_space_group_name_Hall           'P 2yb'
loop_
_symmetry_equiv_pos_site_id
_symmetry_equiv_pos_as_xyz
1 x,y,z
2 -x,1/2+y,-z
_cell_length_a                   5.0977(10)
_cell_length_b                   11.444(2)
_cell_length_c                   12.183(2)
_cell_angle_alpha                90
_cell_angle_beta                 95.58(3)
_cell_angle_gamma                90
_cell_volume                     707.365
loop_
_atom_site_label
_atom_site_type_symbol
_atom_site_fract_x
_atom_site_fract_y
_atom_site_fract_z
Mn1 Mn 0.57346(5) 0.22290(2) 0.90542(2)
S1 S -0.07105(9) 0.44281(5) 0.63645(4)
O1 O 0.8489(3) 0.36610(14) 0.96036(14)
H1 H 0.985(3) 0.348(2) 0.9282(19)
H2 H 0.778(4) 0.4260(16) 0.9273(19)
O2 O 0.8179(3) 0.19439(13) 0.76427(13)
H3 H 0.959(3) 0.1549(18) 0.773(2)
H4 H 0.848(5) 0.2597(14) 0.736(2)
O3 O 0.8603(3) 0.11184(13) 1.00137(13)
H5 H 0.850(4) 0.0485(14) 0.966(2)
H6 H 1.008(3) 0.1433(18) 1.000(2)
O4 O 0.3616(2) 0.22385(16) 1.05590(10)
H7 H 0.361(5) 0.2882(11) 1.0907(17)
H8 H 0.407(5) 0.1686(13) 1.1003(16)
O5 O 0.3120(3) 0.35505(13) 0.83019(14)
O6 O 0.5573(2) 0.51541(13) 0.83481(12)
O7 O 0.6315(3) 0.31153(13) 0.29508(12)
O8 O 0.6867(3) 0.58507(14) 0.15736(13)
O9 O 0.3842(3) 0.44466(14) 0.12859(12)
C1 C 0.3536(3) 0.45932(18) 0.80449(16)
C2 C 0.1383(4) 0.52629(18) 0.73539(16)
H9 H 0.2214 0.5875 0.6960
H10 H 0.0273 0.5640 0.7852
C3 C 0.1481(4) 0.40705(18) 0.53770(16)
C4 C 0.1804(4) 0.29063(18) 0.50549(19)
H11 H 0.0943 0.2313 0.5399
C5 C 0.3374(4) 0.2630(2) 0.42371(19)
H12 H 0.3522 0.1857 0.4015
C6 C 0.4739(4) 0.35008(18) 0.37413(16)
C7 C 0.4455(4) 0.46576(18) 0.40495(16)
H13 H 0.5366 0.5246 0.3721
C8 C 0.2800(4) 0.49277(18) 0.48513(16)
H14 H 0.2572 0.5706 0.5040
C9 C 0.7775(4) 0.40147(19) 0.24398(18)
H15 H 0.9036 0.3649 0.2001
H16 H 0.8754 0.4473 0.3011
C10 C 0.6010(4) 0.48206(18) 0.17092(16)
Mn1A Mn 0.42654(5) 0.72290(2) 0.09458(2)
O8A O 0.3133(3) 0.08507(14) 0.84264(13)
loop_
_geom_bond_atom_site_label_1
_geom_bond_atom_site_label_2
_geom_bond_site_symmetry_1
_geom_bond_site_symmetry_2
Mn1 O1 1_555 1_555
S1 C2 1_555 1_555
O1 H1 1_555 1_555
H2 O1 1_555 1_555
O2 Mn1 1_555 1_555
H3 O2 1_555 1_555
H4 O2 1_555 1_555
O3 Mn1 1_555 1_555
H5 O3 1_555 1_555
H6 O3 1_555 1_555
O4 Mn1 1_555 1_555
H7 O4 1_555 1_555
H8 O4 1_555 1_555
O5 Mn1 1_555 1_555
O6 C1 1_555 1_555
O7 C6 1_555 1_555
O8 C10 1_555 1_555
O9 C10 1_555 1_555
C1 O5 1_555 1_555
C2 C1 1_555 1_555
H9 C2 1_555 1_555
H10 C2 1_555 1_555
C3 S1 1_555 1_555
C4 C3 1_555 1_555
H11 C4 1_555 1_555
C5 C4 1_555 1_555
H12 C5 1_555 1_555
C6 C5 1_555 1_555
C7 C6 1_555 1_555
H13 C7 1_555 1_555
C8 C3 1_555 1_555
H14 C8 1_555 1_555
C9 O7 1_555 1_555
H15 C9 1_555 1_555
H16 C9 1_555 1_555
C10 C9 1_555 1_555
Mn1A O8 1_555 1_555
O8A Mn1 1_555 1_555
C7 C8 1_555 1_555

#END
