
#######################################################################
#
#                 Cambridge Crystallographic Data Centre
#                                CCDC 
#
#######################################################################
#
# If this CIF has been generated from an entry in the Cambridge 
# Structural Database, then it will include bibliographic, chemical, 
# crystal, experimental, refinement or atomic coordinate data resulting 
# from the CCDC's data processing and validation procedures.
#
#######################################################################

data_WEHVIP01
_symmetry_cell_setting           monoclinic
_symmetry_space_group_name_H-M   'P 21/c'
_symmetry_Int_Tables_number      14
_space_group_name_Hall           '-P 2ybc'
loop_
_symmetry_equiv_pos_site_id
_symmetry_equiv_pos_as_xyz
1 x,y,z
2 -x,1/2+y,1/2-z
3 -x,-y,-z
4 x,1/2-y,1/2+z
_cell_length_a                   3.7824(4)
_cell_length_b                   15.0560(17)
_cell_length_c                   10.8776(12)
_cell_angle_alpha                90
_cell_angle_beta                 96.301(2)
_cell_angle_gamma                90
_cell_volume                     615.713
loop_
_atom_site_label
_atom_site_type_symbol
_atom_site_fract_x
_atom_site_fract_y
_atom_site_fract_z
Cu1 Cu 0.23102(17) 0.56255(4) -0.05975(6)
Cl1 Cl 0.3116(2) 0.49904(6) 0.15789(8)
N1 N 0.1870(8) 0.6925(2) -0.0313(3)
C1 C 0.1226(9) 0.8761(2) 0.0090(3)
C2 C 0.0871(10) 0.9708(2) 0.0366(3)
H1 H 0.1967 0.9912 0.1121
C3 C 0.3012(10) 0.8206(3) 0.0964(3)
H2 H 0.4046 0.8440 0.1708
C4 C 0.0163(10) 0.7465(3) -0.1159(3)
H3 H -0.0845 0.7213 -0.1896
C5 C -0.0198(10) 0.8361(3) -0.1014(3)
H4 H -0.1382 0.8701 -0.1644
C6 C 0.3268(10) 0.7312(3) 0.0740(4)
H5 H 0.4470 0.6958 0.1349
Cu1B Cu -0.23102(17) 0.43745(4) 0.05975(6)
Cu1B_2 Cu 0.76898(17) 0.43745(4) 0.05975(6)
Cu1B_3 Cu -0.23102(17) 1.43745(4) 0.05975(6)
Cu1_2 Cu -0.76898(17) 0.56255(4) -0.05975(6)
Cl1B Cl -0.3116(2) 0.50096(6) -0.15789(8)
Cl1B_2 Cl 0.6884(2) 0.50096(6) -0.15789(8)
Cl1_2 Cl -0.6884(2) 0.49904(6) 0.15789(8)
N1B N -0.1870(8) 1.3075(2) 0.0313(3)
N1B_2 N -0.1870(8) 0.3075(2) 0.0313(3)
C1B C -0.1226(9) 1.1239(2) -0.0090(3)
C2B C -0.0871(10) 1.0292(2) -0.0366(3)
H1B H -0.1967 1.0088 -0.1121
C3B C -0.3012(10) 1.1794(3) -0.0964(3)
H2B H -0.4046 1.1560 -0.1708
C4B C -0.0163(10) 1.2535(3) 0.1159(3)
H3B H 0.0845 1.2787 0.1896
C5B C 0.0198(10) 1.1639(3) 0.1014(3)
H4B H 0.1382 1.1299 0.1644
C6B C -0.3268(10) 1.2688(3) -0.0740(4)
H5B H -0.4470 1.3042 -0.1349
loop_
_geom_bond_atom_site_label_1
_geom_bond_atom_site_label_2
_geom_bond_site_symmetry_1
_geom_bond_site_symmetry_2
Cu1 Cl1 1_555 1_555
Cl1 Cu1B 1_555 1_555
N1 Cu1 1_555 1_555
C1 C2 1_555 1_555
C2 H1 1_555 1_555
C3 C1 1_555 1_555
H2 C3 1_555 1_555
C4 N1 1_555 1_555
H3 C4 1_555 1_555
C5 C1 1_555 1_555
H4 C5 1_555 1_555
C6 N1 1_555 1_555
H5 C6 1_555 1_555
Cu1B Cl1B 1_555 1_555
Cu1B_2 Cl1 1_555 1_555
Cu1B_3 N1B 1_555 1_555
Cu1_2 Cl1B 1_555 1_555
Cl1B Cu1 1_555 1_555
Cl1B_2 Cu1 1_555 1_555
Cl1_2 Cu1B 1_555 1_555
N1B C4B 1_555 1_555
N1B_2 Cu1B 1_555 1_555
C1B C2B 1_555 1_555
C2B C2 1_555 1_555
H1B C2B 1_555 1_555
C3B C1B 1_555 1_555
H2B C3B 1_555 1_555
C4B H3B 1_555 1_555
C5B C1B 1_555 1_555
H4B C5B 1_555 1_555
C6B N1B 1_555 1_555
H5B C6B 1_555 1_555
C3 C6 1_555 1_555
C4 C5 1_555 1_555
Cu1B_2 Cl1B_2 1_555 1_555
Cu1_2 Cl1_2 1_555 1_555
C3B C6B 1_555 1_555
C4B C5B 1_555 1_555

#END
