
#######################################################################
#
#                 Cambridge Crystallographic Data Centre
#                                CCDC 
#
#######################################################################
#
# If this CIF has been generated from an entry in the Cambridge 
# Structural Database, then it will include bibliographic, chemical, 
# crystal, experimental, refinement or atomic coordinate data resulting 
# from the CCDC's data processing and validation procedures.
#
#######################################################################

data_WEJGUO
_symmetry_cell_setting           monoclinic
_symmetry_space_group_name_H-M   'P 21/n'
_symmetry_Int_Tables_number      14
_space_group_name_Hall           '-P 2yn'
loop_
_symmetry_equiv_pos_site_id
_symmetry_equiv_pos_as_xyz
1 x,y,z
2 1/2-x,1/2+y,1/2-z
3 -x,-y,-z
4 1/2+x,1/2-y,1/2+z
_cell_length_a                   10.8858(13)
_cell_length_b                   18.969(2)
_cell_length_c                   12.1338(12)
_cell_angle_alpha                90
_cell_angle_beta                 111.941(7)
_cell_angle_gamma                90
_cell_volume                     2324.06
loop_
_atom_site_label
_atom_site_type_symbol
_atom_site_fract_x
_atom_site_fract_y
_atom_site_fract_z
Na1 Na 0.67782(10) 0.07025(5) 0.70263(8)
Na2 Na 0.51509(10) 0.06945(5) 0.41192(9)
Na3 Na 0.52947(10) -0.00977(5) 0.87299(8)
O1 O 0.66005(18) -0.00587(9) 0.54916(15)
O2 O 0.67105(18) -0.04351(9) 0.77762(15)
O3 O 0.55536(19) 0.10101(9) 0.80662(16)
O4 O 0.52702(18) 0.14394(9) 0.56849(15)
O5 O 0.64935(17) 0.01639(9) 0.07117(14)
O6 O 0.61308(18) 0.08015(9) 0.27572(15)
N1 N 0.8887(2) 0.12571(11) 0.73372(18)
C1 C 0.7965(3) -0.07008(15) 0.4716(3)
H1 H 0.7227 -0.0769 0.3981
H2 H 0.8496 -0.1120 0.4908
H3 H 0.8491 -0.0312 0.4637
C2 C 0.7463(3) -0.05450(13) 0.5693(2)
C3 C 0.7951(3) -0.09427(13) 0.6744(2)
H4 H 0.8599 -0.1276 0.6804
C4 C 0.7545(3) -0.08808(12) 0.7715(2)
C5 C 0.8112(3) -0.13842(14) 0.8743(2)
H5 H 0.8699 -0.1134 0.9424
H6 H 0.8592 -0.1751 0.8532
H7 H 0.7405 -0.1589 0.8927
C6 C 0.4969(3) 0.18500(16) 0.9221(3)
H8 H 0.4301 0.1572 0.9353
H9 H 0.4723 0.2339 0.9165
H10 H 0.5800 0.1786 0.9870
C7 C 0.5102(3) 0.16187(14) 0.8070(2)
C8 C 0.4701(3) 0.20861(13) 0.7104(2)
H11 H 0.4392 0.2525 0.7225
C9 C 0.4720(3) 0.19551(13) 0.5969(2)
C10 C 0.4007(3) 0.24749(15) 0.4991(3)
H12 H 0.4605 0.2643 0.4636
H13 H 0.3697 0.2865 0.5320
H14 H 0.3268 0.2246 0.4398
C11 C 0.8441(3) 0.05105(14) 0.0420(2)
H15 H 0.8466 0.0047 0.0110
H16 H 0.9320 0.0651 0.0920
H17 H 0.8092 0.0838 -0.0225
C12 C 0.7562(3) 0.05029(13) 0.1139(2)
C13 C 0.8006(3) 0.08803(13) 0.2213(2)
H18 H 0.8847 0.1078 0.2449
C14 C 0.7312(3) 0.09903(13) 0.2967(2)
C15 C 0.8015(3) 0.13651(15) 0.4135(2)
H19 H 0.7511 0.1771 0.4183
H20 H 0.8878 0.1511 0.4183
H21 H 0.8101 0.1051 0.4780
C16 C 1.0026(3) 0.09108(15) 0.7556(2)
H22 H 1.0035 0.0426 0.7676
C17 C 1.1183(3) 0.12289(17) 0.7612(3)
H23 H 1.1954 0.0967 0.7786
C18 C 1.1175(3) 0.19442(17) 0.7407(3)
H24 H 1.1939 0.2173 0.7427
C19 C 1.0020(3) 0.23123(15) 0.7173(3)
H25 H 0.9987 0.2795 0.7034
C20 C 0.8906(3) 0.19509(14) 0.7148(2)
H26 H 0.8127 0.2204 0.6990
Na2B Na 0.48491(10) -0.06945(5) 0.58808(9)
Na3_2 Na 0.52947(10) -0.00977(5) -0.12701(8)
Na3B Na 0.47053(10) 0.00977(5) 0.12701(8)
O1B O 0.33995(18) 0.00587(9) 0.45084(15)
O2B O 0.32895(18) 0.04351(9) 0.22238(15)
O5_2 O 0.64935(17) 0.01639(9) 1.07117(14)
O5B O 0.35065(17) -0.01639(9) 0.92883(14)
O6B O 0.38692(18) -0.08015(9) 0.72428(15)
loop_
_geom_bond_atom_site_label_1
_geom_bond_atom_site_label_2
_geom_bond_site_symmetry_1
_geom_bond_site_symmetry_2
Na1 O1 1_555 1_555
Na2 O1 1_555 1_555
Na3 O2 1_555 1_555
O1 C2 1_555 1_555
O2 Na1 1_555 1_555
O3 Na1 1_555 1_555
O4 Na1 1_555 1_555
O5 C12 1_555 1_555
O6 Na2 1_555 1_555
N1 Na1 1_555 1_555
C1 H1 1_555 1_555
H2 C1 1_555 1_555
H3 C1 1_555 1_555
C2 C1 1_555 1_555
C3 C2 1_555 1_555
H4 C3 1_555 1_555
C4 O2 1_555 1_555
C5 C4 1_555 1_555
H5 C5 1_555 1_555
H6 C5 1_555 1_555
H7 C5 1_555 1_555
C6 H8 1_555 1_555
H9 C6 1_555 1_555
H10 C6 1_555 1_555
C7 O3 1_555 1_555
C8 C7 1_555 1_555
H11 C8 1_555 1_555
C9 O4 1_555 1_555
C10 C9 1_555 1_555
H12 C10 1_555 1_555
H13 C10 1_555 1_555
H14 C10 1_555 1_555
C11 H15 1_555 1_555
H16 C11 1_555 1_555
H17 C11 1_555 1_555
C12 C11 1_555 1_555
C13 C12 1_555 1_555
H18 C13 1_555 1_555
C14 O6 1_555 1_555
C15 C14 1_555 1_555
H19 C15 1_555 1_555
H20 C15 1_555 1_555
H21 C15 1_555 1_555
C16 N1 1_555 1_555
H22 C16 1_555 1_555
C17 C16 1_555 1_555
H23 C17 1_555 1_555
C18 C17 1_555 1_555
H24 C18 1_555 1_555
C19 C18 1_555 1_555
H25 C19 1_555 1_555
C20 N1 1_555 1_555
H26 C20 1_555 1_555
Na2B O1 1_555 1_555
Na3_2 O5 1_555 1_555
Na3B O5 1_555 1_555
O1B Na2 1_555 1_555
O2B Na2 1_555 1_555
O5_2 Na3 1_555 1_555
O5B Na3 1_555 1_555
O6B Na3 1_555 1_555
Na2 O4 1_555 1_555
Na3 O3 1_555 1_555
O2 Na2B 1_555 1_555
O6 Na3B 1_555 1_555
C3 C4 1_555 1_555
C6 C7 1_555 1_555
C8 C9 1_555 1_555
C13 C14 1_555 1_555
C19 C20 1_555 1_555
Na2B O1B 1_555 1_555
Na2B O6B 1_555 1_555
Na3B O2B 1_555 1_555

#END
