
#######################################################################
#
#                 Cambridge Crystallographic Data Centre
#                                CCDC 
#
#######################################################################
#
# If this CIF has been generated from an entry in the Cambridge 
# Structural Database, then it will include bibliographic, chemical, 
# crystal, experimental, refinement or atomic coordinate data resulting 
# from the CCDC's data processing and validation procedures.
#
#######################################################################

data_WEJKEC01
_symmetry_cell_setting           monoclinic
_symmetry_space_group_name_H-M   'P 21/c'
_symmetry_Int_Tables_number      14
_space_group_name_Hall           '-P 2ybc'
loop_
_symmetry_equiv_pos_site_id
_symmetry_equiv_pos_as_xyz
1 x,y,z
2 -x,1/2+y,1/2-z
3 -x,-y,-z
4 x,1/2-y,1/2+z
_cell_length_a                   10.276(3)
_cell_length_b                   9.891(2)
_cell_length_c                   13.244(3)
_cell_angle_alpha                90
_cell_angle_beta                 90.573(5)
_cell_angle_gamma                90
_cell_volume                     1346.05
loop_
_atom_site_label
_atom_site_type_symbol
_atom_site_fract_x
_atom_site_fract_y
_atom_site_fract_z
Cu1 Cu 0.21410(7) -0.52149(8) -0.02339(6)
O1 O 0.3461(4) -0.6665(4) -0.0065(3)
O2 O 0.4087(4) -0.7171(4) -0.1635(3)
C1 C 0.3995(5) -0.7414(5) -0.0728(4)
C2 C 0.4514(5) -0.8753(5) -0.0333(4)
C3 C 0.4576(5) -0.9040(6) 0.0690(4)
H1 H 0.4284 -0.8392 0.1165
C4 C 0.4938(5) -0.9732(5) -0.1020(4)
H2 H 0.4890 -0.9550 -0.1724
O3 O 0.1326(4) -0.3393(4) -0.0215(3)
O4 O -0.0417(4) -0.3536(4) 0.0784(3)
C5 C 0.0364(5) -0.2893(5) 0.0257(4)
C6 C 0.0190(5) -0.1384(5) 0.0127(4)
C7 C -0.0978(5) -0.0783(5) 0.0422(4)
H3 H -0.1645 -0.1318 0.0711
C8 C 0.1159(5) -0.0594(5) -0.0290(4)
H4 H 0.1955 -0.0999 -0.0488
N1 N 0.1768(5) -0.5385(5) 0.1257(4)
H5 H 0.0823 -0.5110 0.1286
C9 C 0.1722(7) -0.6690(6) 0.1754(5)
H6 H 0.2608 -0.7043 0.1837
H7 H 0.1205 -0.7320 0.1344
H8 H 0.1322 -0.6589 0.2419
C10 C 0.2613(7) -0.4425(8) 0.1816(5)
H9 H 0.2361 -0.4407 0.2528
H10 H 0.2516 -0.3519 0.1526
H11 H 0.3522 -0.4714 0.1765
N2 N 0.2723(5) -0.4741(5) -0.1635(4)
H12 H 0.3386 -0.5420 -0.1874
C11 C 0.1757(6) -0.4461(7) -0.2412(5)
H13 H 0.1261 -0.3653 -0.2228
H14 H 0.1165 -0.5233 -0.2478
H15 H 0.2193 -0.4306 -0.3057
C12 C 0.3664(6) -0.3622(6) -0.1512(5)
H16 H 0.4032 -0.3393 -0.2170
H17 H 0.4364 -0.3900 -0.1049
H18 H 0.3219 -0.2829 -0.1236
Cu1B Cu 0.78590(7) -1.47851(8) 0.02339(6)
Cu1B_2 Cu -0.21410(7) -0.47851(8) 0.02339(6)
Cu1B_3 Cu -0.21410(7) 0.52149(8) 0.02339(6)
Cu1_2 Cu 0.21410(7) 0.47851(8) -0.02339(6)
O1B O 0.6539(4) -1.3335(4) 0.0065(3)
O2B O 0.5913(4) -1.2829(4) 0.1635(3)
C1B C 0.6005(5) -1.2586(5) 0.0728(4)
C2B C 0.5486(5) -1.1247(5) 0.0333(4)
C3B C 0.5424(5) -1.0960(6) -0.0690(4)
H1B H 0.5716 -1.1608 -0.1165
C4B C 0.5062(5) -1.0268(5) 0.1020(4)
H2B H 0.5110 -1.0450 0.1724
O3B O 0.8674(4) -1.6607(4) 0.0215(3)
O3B_2 O -0.1326(4) 0.3393(4) 0.0215(3)
O4_2 O 0.9583(4) -1.3536(4) 0.0784(3)
O4B O 0.0417(4) -0.6464(4) -0.0784(3)
O4B_2 O 0.0417(4) 0.3536(4) -0.0784(3)
C5B C -0.0364(5) 0.2893(5) -0.0257(4)
C6B C -0.0190(5) 0.1384(5) -0.0127(4)
C7B C 0.0978(5) 0.0783(5) -0.0422(4)
H3B H 0.1645 0.1318 -0.0711
C8B C -0.1159(5) 0.0594(5) 0.0290(4)
H4B H -0.1955 0.0999 0.0488
N1B N 0.8232(5) -1.4615(5) -0.1257(4)
H5B H 0.9177 -1.4890 -0.1286
C9B C 0.8278(7) -1.3310(6) -0.1754(5)
H6B H 0.7392 -1.2957 -0.1837
H7B H 0.8795 -1.2680 -0.1344
H8B H 0.8678 -1.3411 -0.2419
C10B C 0.7387(7) -1.5575(8) -0.1816(5)
H9B H 0.7639 -1.5593 -0.2528
H10B H 0.7484 -1.6481 -0.1526
H11B H 0.6478 -1.5286 -0.1765
N2B N 0.7277(5) -1.5259(5) 0.1635(4)
H12B H 0.6614 -1.4580 0.1874
C11B C 0.8243(6) -1.5539(7) 0.2412(5)
H13B H 0.8739 -1.6347 0.2228
H14B H 0.8835 -1.4767 0.2478
H15B H 0.7807 -1.5694 0.3057
C12B C 0.6336(6) -1.6378(6) 0.1512(5)
H16B H 0.5968 -1.6607 0.2170
H17B H 0.5636 -1.6100 0.1049
H18B H 0.6781 -1.7171 0.1236
loop_
_geom_bond_atom_site_label_1
_geom_bond_atom_site_label_2
_geom_bond_site_symmetry_1
_geom_bond_site_symmetry_2
Cu1 O1 1_555 1_555
O1 C1 1_555 1_555
O2 C1 1_555 1_555
C1 C2 1_555 1_555
C2 C3 1_555 1_555
C3 H1 1_555 1_555
C4 C2 1_555 1_555
H2 C4 1_555 1_555
O3 Cu1 1_555 1_555
O4 C5 1_555 1_555
C5 O3 1_555 1_555
C6 C5 1_555 1_555
C7 C6 1_555 1_555
H3 C7 1_555 1_555
C8 C6 1_555 1_555
H4 C8 1_555 1_555
N1 Cu1 1_555 1_555
H5 N1 1_555 1_555
C9 N1 1_555 1_555
H6 C9 1_555 1_555
H7 C9 1_555 1_555
H8 C9 1_555 1_555
C10 N1 1_555 1_555
H9 C10 1_555 1_555
H10 C10 1_555 1_555
H11 C10 1_555 1_555
N2 Cu1 1_555 1_555
H12 N2 1_555 1_555
C11 N2 1_555 1_555
H13 C11 1_555 1_555
H14 C11 1_555 1_555
H15 C11 1_555 1_555
C12 N2 1_555 1_555
H16 C12 1_555 1_555
H17 C12 1_555 1_555
H18 C12 1_555 1_555
Cu1B O1B 1_555 1_555
Cu1B_2 O4 1_555 1_555
Cu1B_3 O3B_2 1_555 1_555
Cu1_2 O4B_2 1_555 1_555
O1B C1B 1_555 1_555
O2B C1B 1_555 1_555
C1B C2B 1_555 1_555
C2B C3B 1_555 1_555
C3B C4 1_555 1_555
H1B C3B 1_555 1_555
C4B C3 1_555 1_555
H2B C4B 1_555 1_555
O3B Cu1B 1_555 1_555
O3B_2 C5B 1_555 1_555
O4_2 Cu1B 1_555 1_555
O4B Cu1 1_555 1_555
O4B_2 C5B 1_555 1_555
C5B C6B 1_555 1_555
C6B C7B 1_555 1_555
C7B C8 1_555 1_555
H3B C7B 1_555 1_555
C8B C7 1_555 1_555
H4B C8B 1_555 1_555
N1B Cu1B 1_555 1_555
H5B N1B 1_555 1_555
C9B N1B 1_555 1_555
H6B C9B 1_555 1_555
H7B C9B 1_555 1_555
H8B C9B 1_555 1_555
C10B N1B 1_555 1_555
H9B C10B 1_555 1_555
H10B C10B 1_555 1_555
H11B C10B 1_555 1_555
N2B Cu1B 1_555 1_555
H12B N2B 1_555 1_555
C11B N2B 1_555 1_555
H13B C11B 1_555 1_555
H14B C11B 1_555 1_555
H15B C11B 1_555 1_555
C12B N2B 1_555 1_555
H16B C12B 1_555 1_555
H17B C12B 1_555 1_555
H18B C12B 1_555 1_555
C2B C4B 1_555 1_555
C6B C8B 1_555 1_555

#END
