
#######################################################################
#
#                 Cambridge Crystallographic Data Centre
#                                CCDC 
#
#######################################################################
#
# If this CIF has been generated from an entry in the Cambridge 
# Structural Database, then it will include bibliographic, chemical, 
# crystal, experimental, refinement or atomic coordinate data resulting 
# from the CCDC's data processing and validation procedures.
#
#######################################################################

data_WEJLUT01
_symmetry_cell_setting           triclinic
_symmetry_space_group_name_H-M   'P -1'
_symmetry_Int_Tables_number      2
_space_group_name_Hall           '-P 1'
loop_
_symmetry_equiv_pos_site_id
_symmetry_equiv_pos_as_xyz
1 x,y,z
2 -x,-y,-z
_cell_length_a                   9.674(2)
_cell_length_b                   10.464(2)
_cell_length_c                   10.670(3)
_cell_angle_alpha                90.521(4)
_cell_angle_beta                 115.380(3)
_cell_angle_gamma                111.467(3)
_cell_volume                     890.302
loop_
_atom_site_label
_atom_site_type_symbol
_atom_site_fract_x
_atom_site_fract_y
_atom_site_fract_z
Mn1 Mn 1.0000 1.0000 0.5000
O1 O 1.2089(3) 1.1566(3) 0.4937(3)
O2 O 1.0703(4) 1.2317(3) 0.3020(3)
C1 C 0.9979(5) 0.7335(4) 0.3595(5)
C2 C 1.2103(6) 0.8051(5) 0.5877(5)
C3 C 1.2492(6) 0.6910(5) 0.5777(5)
C4 C 1.1549(6) 0.5952(5) 0.4548(5)
H1 H 1.1759 0.5165 0.4466
C5 C 1.0270(5) 0.6135(4) 0.3411(5)
C6 C 0.9225(6) 0.5228(4) 0.2063(5)
C7 C 0.8016(5) 0.5481(4) 0.0947(5)
C8 C 0.7705(5) 0.6690(4) 0.1115(5)
C9 C 0.6516(6) 0.7029(5) 0.0027(5)
H2 H 0.5798 0.6411 -0.0839
C10 C 0.6421(6) 0.8272(5) 0.0247(5)
H3 H 0.5652 0.8522 -0.0468
C11 C 0.7499(6) 0.9159(5) 0.1564(5)
H4 H 0.7459 1.0023 0.1687
C12 C 0.8710(5) 0.7626(4) 0.2427(5)
C13 C 0.8042(6) 0.3615(5) 0.0146(5)
C14 C 0.7697(6) 0.2395(4) -0.0813(5)
C15 C 0.8755(6) 0.1714(4) -0.0476(5)
H5 H 0.9710 0.2004 0.0397
C16 C 0.8381(7) 0.0584(5) -0.1459(6)
C17 C 0.6986(6) 0.0168(5) -0.2763(5)
H6 H 0.6759 -0.0563 -0.3423
C18 C 0.5936(6) 0.0841(5) -0.3079(5)
H7 H 0.4982 0.0552 -0.3953
C19 C 0.6280(6) 0.1943(5) -0.2113(5)
C20 C 1.1984(5) 1.2438(4) 0.4127(5)
C21 C 1.3562(5) 1.3760(4) 0.4578(5)
C22 C 1.4653(5) 1.4327(4) 0.6004(5)
H8 H 1.4422 1.3878 0.6684
C23 C 1.3931(5) 1.4454(4) 0.3580(5)
H9 H 1.3210 1.4089 0.2621
N1 N 1.0900(4) 0.8285(3) 0.4833(4)
N2 N 0.8579(4) 0.8854(3) 0.2655(4)
N3 N 0.7257(4) 0.4468(4) -0.0249(4)
N4 N 0.9248(4) 0.4034(3) 0.1528(4)
H10 H 0.9896 0.3631 0.1977
H11 H 1.3364 0.6827 0.6510
H12 H 0.5521 0.2389 -0.2350
H13 H 1.2724 0.8705 0.6719
H14 H 0.918(5) 0.016(4) -0.114(4)
Mn1_2 Mn 2.0000 2.0000 0.5000
O1A O 1.7911(3) 1.8434(3) 0.5063(3)
O1A_2 O 0.7911(3) 0.8434(3) 0.5063(3)
O2A O 1.9297(4) 1.7683(3) 0.6980(3)
C1A C 1.0021(5) 1.2665(4) 0.6405(5)
C2A C 0.7897(6) 1.1949(5) 0.4123(5)
C3A C 0.7508(6) 1.3090(5) 0.4223(5)
C4A C 0.8451(6) 1.4048(5) 0.5452(5)
H1A H 0.8241 1.4835 0.5534
C5A C 0.9730(5) 1.3865(4) 0.6589(5)
C6A C 1.0775(6) 1.4772(4) 0.7937(5)
C7A C 1.1984(5) 1.4519(4) 0.9053(5)
C8A C 1.2295(5) 1.3310(4) 0.8885(5)
C9A C 1.3484(6) 1.2971(5) 0.9973(5)
H2A H 1.4202 1.3589 1.0839
C10A C 1.3579(6) 1.1728(5) 0.9753(5)
H3A H 1.4348 1.1478 1.0468
C11A C 1.2501(6) 1.0841(5) 0.8436(5)
H4A H 1.2541 0.9977 0.8313
C12A C 1.1290(5) 1.2374(4) 0.7573(5)
C13A C 1.1958(6) 1.6385(5) 0.9854(5)
C14A C 1.2303(6) 1.7605(4) 1.0813(5)
C15A C 1.1245(6) 1.8286(4) 1.0476(5)
H5A H 1.0290 1.7996 0.9603
C16A C 1.1619(7) 1.9416(5) 1.1459(6)
C17A C 1.3014(6) 1.9832(5) 1.2763(5)
H6A H 1.3241 2.0563 1.3423
C18A C 1.4064(6) 1.9159(5) 1.3079(5)
H7A H 1.5018 1.9448 1.3953
C19A C 1.3720(6) 1.8057(5) 1.2113(5)
C20A C 1.8016(5) 1.7562(4) 0.5873(5)
C21A C 1.6438(5) 1.6240(4) 0.5422(5)
C22A C 1.5347(5) 1.5673(4) 0.3996(5)
H8A H 1.5578 1.6122 0.3316
C23A C 1.6069(5) 1.5546(4) 0.6420(5)
H9A H 1.6790 1.5911 0.7379
N1A N 0.9100(4) 1.1715(3) 0.5167(4)
N2A N 1.1421(4) 1.1146(3) 0.7345(4)
N3A N 1.2743(4) 1.5532(4) 1.0249(4)
N4A N 1.0752(4) 1.5966(3) 0.8472(4)
H10A H 1.0104 1.6369 0.8023
H11A H 0.6636 1.3173 0.3490
H12A H 1.4479 1.7611 1.2350
H13A H 0.7276 1.1295 0.3281
H14A H 1.082(5) 1.984(4) 1.114(4)
loop_
_geom_bond_atom_site_label_1
_geom_bond_atom_site_label_2
_geom_bond_site_symmetry_1
_geom_bond_site_symmetry_2
Mn1 O1 1_555 1_555
O1 C20 1_555 1_555
O2 C20 1_555 1_555
C1 C5 1_555 1_555
C2 C3 1_555 1_555
C3 C4 1_555 1_555
C4 H1 1_555 1_555
C5 C4 1_555 1_555
C6 C5 1_555 1_555
C7 C6 1_555 1_555
C8 C7 1_555 1_555
C9 C8 1_555 1_555
H2 C9 1_555 1_555
C10 C9 1_555 1_555
H3 C10 1_555 1_555
C11 C10 1_555 1_555
H4 C11 1_555 1_555
C12 C1 1_555 1_555
C13 C14 1_555 1_555
C14 C15 1_555 1_555
C15 H5 1_555 1_555
C16 C15 1_555 1_555
C17 C16 1_555 1_555
H6 C17 1_555 1_555
C18 C17 1_555 1_555
H7 C18 1_555 1_555
C19 C14 1_555 1_555
C20 C21 1_555 1_555
C21 C22 1_555 1_555
C22 H8 1_555 1_555
C23 C21 1_555 1_555
H9 C23 1_555 1_555
N1 Mn1 1_555 1_555
N2 Mn1 1_555 1_555
N3 C7 1_555 1_555
N4 C6 1_555 1_555
H10 N4 1_555 1_555
H11 C3 1_555 1_555
H12 C19 1_555 1_555
H13 C2 1_555 1_555
H14 C16 1_555 1_555
Mn1_2 O1A 1_555 1_555
O1A C20A 1_555 1_555
O1A_2 Mn1 1_555 1_555
O2A C20A 1_555 1_555
C1A C5A 1_555 1_555
C2A C3A 1_555 1_555
C3A C4A 1_555 1_555
C4A H1A 1_555 1_555
C5A C4A 1_555 1_555
C6A C5A 1_555 1_555
C7A C6A 1_555 1_555
C8A C7A 1_555 1_555
C9A C8A 1_555 1_555
H2A C9A 1_555 1_555
C10A C9A 1_555 1_555
H3A C10A 1_555 1_555
C11A C10A 1_555 1_555
H4A C11A 1_555 1_555
C12A C1A 1_555 1_555
C13A C14A 1_555 1_555
C14A C15A 1_555 1_555
C15A H5A 1_555 1_555
C16A C15A 1_555 1_555
C17A C16A 1_555 1_555
H6A C17A 1_555 1_555
C18A C17A 1_555 1_555
H7A C18A 1_555 1_555
C19A C14A 1_555 1_555
C20A C21A 1_555 1_555
C21A C22A 1_555 1_555
C22A C23 1_555 1_555
H8A C22A 1_555 1_555
C23A C22 1_555 1_555
H9A C23A 1_555 1_555
N1A Mn1 1_555 1_555
N2A Mn1 1_555 1_555
N3A C7A 1_555 1_555
N4A C6A 1_555 1_555
H10A N4A 1_555 1_555
H11A C3A 1_555 1_555
H12A C19A 1_555 1_555
H13A C2A 1_555 1_555
H14A C16A 1_555 1_555
C1 N1 1_555 1_555
C2 N1 1_555 1_555
C8 C12 1_555 1_555
C11 N2 1_555 1_555
C12 N2 1_555 1_555
C13 N3 1_555 1_555
C13 N4 1_555 1_555
C18 C19 1_555 1_555
C1A N1A 1_555 1_555
C2A N1A 1_555 1_555
C8A C12A 1_555 1_555
C11A N2A 1_555 1_555
C12A N2A 1_555 1_555
C13A N3A 1_555 1_555
C13A N4A 1_555 1_555
C18A C19A 1_555 1_555
C21A C23A 1_555 1_555

#END
