
#######################################################################
#
#                 Cambridge Crystallographic Data Centre
#                                CCDC 
#
#######################################################################
#
# If this CIF has been generated from an entry in the Cambridge 
# Structural Database, then it will include bibliographic, chemical, 
# crystal, experimental, refinement or atomic coordinate data resulting 
# from the CCDC's data processing and validation procedures.
#
#######################################################################

data_WEJLON
_symmetry_cell_setting           monoclinic
_symmetry_space_group_name_H-M   'C 2/c'
_symmetry_Int_Tables_number      15
_space_group_name_Hall           '-C 2yn'
loop_
_symmetry_equiv_pos_site_id
_symmetry_equiv_pos_as_xyz
1 x,y,z
2 1/2+x,1/2+y,z
3 -x,y,1/2-z
4 1/2-x,1/2+y,1/2-z
5 -x,-y,-z
6 1/2-x,1/2-y,-z
7 x,-y,1/2+z
8 1/2+x,1/2-y,1/2+z
_cell_length_a                   15.254(3)
_cell_length_b                   16.018(3)
_cell_length_c                   19.069(4)
_cell_angle_alpha                90
_cell_angle_beta                 109.56(3)
_cell_angle_gamma                90
_cell_volume                     4390.41
loop_
_atom_site_label
_atom_site_type_symbol
_atom_site_fract_x
_atom_site_fract_y
_atom_site_fract_z
C1 C 0.2024(3) -0.2466(3) 0.8303(3)
H1 H 0.2240 -0.2979 0.8520
C2 C 0.2358(4) -0.1744(3) 0.8708(3)
H2 H 0.2780 -0.1776 0.9190
C3 C 0.2060(3) -0.0989(3) 0.8390(3)
H3 H 0.2283 -0.0500 0.8653
C4 C 0.1422(3) -0.0947(3) 0.7670(2)
C5 C 0.1054(3) -0.0202(3) 0.7278(2)
C6 C 0.0388(3) -0.0201(3) 0.6571(2)
C7 C 0.0044(3) -0.0964(3) 0.6187(2)
C8 C -0.0610(3) -0.1012(3) 0.5469(3)
H4 H -0.0861 -0.0527 0.5211
C9 C -0.0875(3) -0.1774(4) 0.5151(3)
H5 H -0.1312 -0.1817 0.4677
C10 C -0.0479(3) -0.2489(3) 0.5550(3)
H6 H -0.0663 -0.3006 0.5326
C11 C 0.0419(3) -0.1721(3) 0.6554(2)
C12 C 0.1098(3) -0.1710(3) 0.7296(2)
C13 C 0.0686(3) 0.1081(3) 0.6873(2)
C14 C 0.0676(3) 0.1984(3) 0.6856(2)
C15 C 0.0139(3) 0.2395(3) 0.6208(3)
H7 H -0.0218 0.2083 0.5802
C16 C 0.0129(4) 0.3251(4) 0.6162(3)
H8 H -0.0227 0.3511 0.5723
C17 C 0.0640(4) 0.3724(4) 0.6758(3)
H9 H 0.0631 0.4303 0.6726
C18 C 0.1166(4) 0.3334(4) 0.7405(3)
H10 H 0.1507 0.3654 0.7811
C19 C 0.1196(3) 0.2481(3) 0.7459(3)
H11 H 0.1564 0.2229 0.7899
C20 C 0.1591(3) -0.4122(3) 0.5827(2)
C21 C 0.1302(3) -0.5467(3) 0.3372(2)
C22 C 0.1968(3) -0.4298(3) 0.5207(2)
C23 C 0.2787(3) -0.3912(3) 0.5215(3)
H12 H 0.3110 -0.3569 0.5611
C24 C 0.3120(3) -0.4041(4) 0.4630(3)
H13 H 0.3671 -0.3789 0.4635
C25 C 0.2632(3) -0.4541(3) 0.4041(2)
H14 H 0.2853 -0.4614 0.3646
C26 C 0.1818(3) -0.4938(3) 0.4028(2)
C27 C 0.1488(3) -0.4811(3) 0.4617(2)
H15 H 0.0942 -0.5073 0.4616
N1 N 0.1414(2) -0.2455(2) 0.7623(2)
N2 N 0.0144(2) -0.2474(2) 0.6227(2)
N3 N 0.0155(2) 0.0611(2) 0.6325(2)
N4 N 0.1232(2) 0.0620(2) 0.74609(19)
H16 H 0.1616 0.0812 0.7870
O1 O 0.2122(2) -0.3802(2) 0.64230(15)
O2 O 0.0755(2) -0.4278(2) 0.57345(17)
O3 O 0.1590(2) -0.5481(2) 0.28245(16)
O4 O 0.0631(2) -0.5894(2) 0.34017(18)
Cd1 Cd 0.08563(2) -0.36656(2) 0.689399(16)
O3F O 0.1590(2) -0.4519(2) 0.78245(16)
O4D O -0.0631(2) -0.4106(2) 0.65983(18)
Cd1F Cd 0.08563(2) -0.63344(2) 0.189399(16)
Cd1D Cd -0.08563(2) -0.63344(2) 0.310601(16)
loop_
_geom_bond_atom_site_label_1
_geom_bond_atom_site_label_2
_geom_bond_site_symmetry_1
_geom_bond_site_symmetry_2
C1 H1 1_555 1_555
C2 C1 1_555 1_555
H2 C2 1_555 1_555
C3 C2 1_555 1_555
H3 C3 1_555 1_555
C4 C3 1_555 1_555
C5 C4 1_555 1_555
C6 C5 1_555 1_555
C7 C6 1_555 1_555
C8 C7 1_555 1_555
H4 C8 1_555 1_555
C9 C8 1_555 1_555
H5 C9 1_555 1_555
C10 C9 1_555 1_555
H6 C10 1_555 1_555
C11 C7 1_555 1_555
C12 C4 1_555 1_555
C13 C14 1_555 1_555
C14 C15 1_555 1_555
C15 H7 1_555 1_555
C16 C15 1_555 1_555
H8 C16 1_555 1_555
C17 C16 1_555 1_555
H9 C17 1_555 1_555
C18 C17 1_555 1_555
H10 C18 1_555 1_555
C19 C14 1_555 1_555
H11 C19 1_555 1_555
C20 C22 1_555 1_555
C21 C26 1_555 1_555
C22 C23 1_555 1_555
C23 H12 1_555 1_555
C24 C23 1_555 1_555
H13 C24 1_555 1_555
C25 C24 1_555 1_555
H14 C25 1_555 1_555
C26 C25 1_555 1_555
C27 C22 1_555 1_555
H15 C27 1_555 1_555
N1 C1 1_555 1_555
N2 C10 1_555 1_555
N3 C6 1_555 1_555
N4 C5 1_555 1_555
H16 N4 1_555 1_555
O1 C20 1_555 1_555
O2 C20 1_555 1_555
O3 C21 1_555 1_555
O4 C21 1_555 1_555
Cd1 N1 1_555 1_555
O3F Cd1 1_555 1_555
O4D Cd1 1_555 1_555
Cd1F O3 1_555 1_555
Cd1D O4 1_555 1_555
C11 C12 1_555 1_555
C11 N2 1_555 1_555
C12 N1 1_555 1_555
C13 N3 1_555 1_555
C13 N4 1_555 1_555
C18 C19 1_555 1_555
C26 C27 1_555 1_555
N2 Cd1 1_555 1_555
O1 Cd1 1_555 1_555
O2 Cd1 1_555 1_555

#END
