
#######################################################################
#
#                 Cambridge Crystallographic Data Centre
#                                CCDC 
#
#######################################################################
#
# If this CIF has been generated from an entry in the Cambridge 
# Structural Database, then it will include bibliographic, chemical, 
# crystal, experimental, refinement or atomic coordinate data resulting 
# from the CCDC's data processing and validation procedures.
#
#######################################################################

data_WEJLUT
_symmetry_cell_setting           triclinic
_symmetry_space_group_name_H-M   'P -1'
_symmetry_Int_Tables_number      2
_space_group_name_Hall           '-P 1'
loop_
_symmetry_equiv_pos_site_id
_symmetry_equiv_pos_as_xyz
1 x,y,z
2 -x,-y,-z
_cell_length_a                   9.6550(19)
_cell_length_b                   10.451(2)
_cell_length_c                   10.626(2)
_cell_angle_alpha                90.48(3)
_cell_angle_beta                 114.87(3)
_cell_angle_gamma                111.63(3)
_cell_volume                     887.144
loop_
_atom_site_label
_atom_site_type_symbol
_atom_site_fract_x
_atom_site_fract_y
_atom_site_fract_z
C1 C -0.3568(5) -0.1731(4) -0.4734(4)
H1 H -0.4334 -0.1479 -0.5447
C2 C -0.2493(5) -0.0841(3) -0.3413(4)
H2 H -0.2540 0.0020 -0.3282
C3 C -0.1286(4) -0.2367(3) -0.2561(3)
N1 N -0.1421(3) -0.1148(3) -0.2344(3)
C4 C 0.2105(4) -0.1937(4) 0.0864(4)
H3 H 0.2734 -0.1289 0.1712
C5 C 0.2484(5) -0.3083(4) 0.0768(4)
H4 H 0.3357 -0.3186 0.1524
C6 C 0.1549(4) -0.4051(3) -0.0457(4)
H5 H 0.1756 -0.4841 -0.0541
C7 C 0.0281(4) -0.3852(3) -0.1585(3)
C8 C -0.0009(4) -0.2653(3) -0.1410(3)
C9 C -0.2286(4) -0.3307(3) -0.3872(3)
C10 C -0.3470(5) -0.2980(4) -0.4957(4)
H6 H -0.4184 -0.3601 -0.5819
C11 C -0.1968(4) -0.4519(3) -0.4028(3)
C12 C -0.0752(4) -0.4765(3) -0.2935(3)
C13 C -0.1945(4) -0.6379(3) -0.4845(3)
C14 C -0.2296(4) -0.7600(3) -0.5808(3)
C15 C -0.3702(5) -0.8043(4) -0.7108(4)
H7 H -0.4425 -0.7596 -0.7333
C16 C -0.4042(5) -0.9148(4) -0.8079(4)
H8 H -0.4980 -0.9426 -0.8956
C17 C -0.3002(5) -0.9832(4) -0.7752(4)
H9 H -0.3232 -1.0572 -0.8405
C18 C -0.1620(5) -0.9417(4) -0.6457(4)
H10 H -0.0922 -0.9888 -0.6231
C19 C -0.1251(4) -0.8300(3) -0.5475(4)
H11 H -0.0309 -0.8024 -0.4601
C20 C 0.1984(4) 0.2453(3) -0.0889(3)
C21 C 0.3566(4) 0.3766(3) -0.0435(3)
C22 C 0.4636(4) 0.4312(3) 0.0998(3)
H12 H 0.4385 0.3853 0.1670
C23 C 0.3932(4) 0.4467(3) -0.1426(3)
H13 H 0.3211 0.4117 -0.2384
N2 N 0.0912(3) -0.1710(3) -0.0169(3)
N3 N -0.0743(3) -0.5966(3) -0.3466(3)
H14 H -0.0107 -0.6376 -0.3018
N4 N -0.2722(3) -0.5535(3) -0.5228(3)
O1 O 0.2068(3) 0.1568(2) -0.0092(2)
O2 O 0.0715(3) 0.2330(2) -0.1983(2)
Mn1 Mn 0.0000 0.0000 0.0000
C1A C 0.3568(5) 0.1731(4) 0.4734(4)
H1A H 0.4334 0.1479 0.5447
C2A C 0.2493(5) 0.0841(3) 0.3413(4)
H2A H 0.2540 -0.0020 0.3282
C3A C 0.1286(4) 0.2367(3) 0.2561(3)
N1A N 0.1421(3) 0.1148(3) 0.2344(3)
C4A C -0.2105(4) 0.1937(4) -0.0864(4)
H3A H -0.2734 0.1289 -0.1712
C5A C -0.2484(5) 0.3083(4) -0.0768(4)
H4A H -0.3357 0.3186 -0.1524
C6A C -0.1549(4) 0.4051(3) 0.0457(4)
H5A H -0.1756 0.4841 0.0541
C7A C -0.0281(4) 0.3852(3) 0.1585(3)
C8A C 0.0009(4) 0.2653(3) 0.1410(3)
C9A C 0.2286(4) 0.3307(3) 0.3872(3)
C10A C 0.3470(5) 0.2980(4) 0.4957(4)
H6A H 0.4184 0.3601 0.5819
C11A C 0.1968(4) 0.4519(3) 0.4028(3)
C12A C 0.0752(4) 0.4765(3) 0.2935(3)
C13A C 0.1945(4) 0.6379(3) 0.4845(3)
C14A C 0.2296(4) 0.7600(3) 0.5808(3)
C15A C 0.3702(5) 0.8043(4) 0.7108(4)
H7A H 0.4425 0.7596 0.7333
C16A C 0.4042(5) 0.9148(4) 0.8079(4)
H8A H 0.4980 0.9426 0.8956
C17A C 0.3002(5) 0.9832(4) 0.7752(4)
H9A H 0.3232 1.0572 0.8405
C18A C 0.1620(5) 0.9417(4) 0.6457(4)
H10A H 0.0922 0.9888 0.6231
C19A C 0.1251(4) 0.8300(3) 0.5475(4)
H11A H 0.0309 0.8024 0.4601
C20A C 0.8016(4) 0.7547(3) 0.0889(3)
C21A C 0.6434(4) 0.6234(3) 0.0435(3)
C22A C 0.5364(4) 0.5688(3) -0.0998(3)
H12A H 0.5615 0.6147 -0.1670
C23A C 0.6068(4) 0.5533(3) 0.1426(3)
H13A H 0.6789 0.5883 0.2384
N2A N -0.0912(3) 0.1710(3) 0.0169(3)
N3A N 0.0743(3) 0.5966(3) 0.3466(3)
H14A H 0.0107 0.6376 0.3018
N4A N 0.2722(3) 0.5535(3) 0.5228(3)
O1A O 0.7932(3) 0.8432(2) 0.0092(2)
O1A_2 O -0.2068(3) -0.1568(2) 0.0092(2)
O2A O 0.9285(3) 0.7670(2) 0.1983(2)
Mn1_2 Mn 1.0000 1.0000 0.0000
loop_
_geom_bond_atom_site_label_1
_geom_bond_atom_site_label_2
_geom_bond_site_symmetry_1
_geom_bond_site_symmetry_2
C1 H1 1_555 1_555
C2 C1 1_555 1_555
H2 C2 1_555 1_555
C3 N1 1_555 1_555
N1 C2 1_555 1_555
C4 H3 1_555 1_555
C5 C4 1_555 1_555
H4 C5 1_555 1_555
C6 C5 1_555 1_555
H5 C6 1_555 1_555
C7 C6 1_555 1_555
C8 C3 1_555 1_555
C9 C3 1_555 1_555
C10 C1 1_555 1_555
H6 C10 1_555 1_555
C11 C9 1_555 1_555
C12 C7 1_555 1_555
C13 C14 1_555 1_555
C14 C15 1_555 1_555
C15 H7 1_555 1_555
C16 C15 1_555 1_555
H8 C16 1_555 1_555
C17 C16 1_555 1_555
H9 C17 1_555 1_555
C18 C17 1_555 1_555
H10 C18 1_555 1_555
C19 C14 1_555 1_555
H11 C19 1_555 1_555
C20 C21 1_555 1_555
C21 C22 1_555 1_555
C22 H12 1_555 1_555
C23 C21 1_555 1_555
H13 C23 1_555 1_555
N2 C4 1_555 1_555
N3 C12 1_555 1_555
H14 N3 1_555 1_555
N4 C11 1_555 1_555
O1 C20 1_555 1_555
O2 C20 1_555 1_555
Mn1 N1 1_555 1_555
C1A H1A 1_555 1_555
C2A C1A 1_555 1_555
H2A C2A 1_555 1_555
C3A N1A 1_555 1_555
N1A Mn1 1_555 1_555
C4A H3A 1_555 1_555
C5A C4A 1_555 1_555
H4A C5A 1_555 1_555
C6A C5A 1_555 1_555
H5A C6A 1_555 1_555
C7A C6A 1_555 1_555
C8A C3A 1_555 1_555
C9A C3A 1_555 1_555
C10A C1A 1_555 1_555
H6A C10A 1_555 1_555
C11A C9A 1_555 1_555
C12A C7A 1_555 1_555
C13A C14A 1_555 1_555
C14A C15A 1_555 1_555
C15A H7A 1_555 1_555
C16A C15A 1_555 1_555
H8A C16A 1_555 1_555
C17A C16A 1_555 1_555
H9A C17A 1_555 1_555
C18A C17A 1_555 1_555
H10A C18A 1_555 1_555
C19A C14A 1_555 1_555
H11A C19A 1_555 1_555
C20A C21A 1_555 1_555
C21A C22A 1_555 1_555
C22A C23 1_555 1_555
H12A C22A 1_555 1_555
C23A C22 1_555 1_555
H13A C23A 1_555 1_555
N2A Mn1 1_555 1_555
N3A C12A 1_555 1_555
H14A N3A 1_555 1_555
N4A C11A 1_555 1_555
O1A C20A 1_555 1_555
O1A_2 Mn1 1_555 1_555
O2A C20A 1_555 1_555
Mn1_2 O1A 1_555 1_555
C7 C8 1_555 1_555
C8 N2 1_555 1_555
C9 C10 1_555 1_555
C11 C12 1_555 1_555
C13 N3 1_555 1_555
C13 N4 1_555 1_555
C18 C19 1_555 1_555
N2 Mn1 1_555 1_555
O1 Mn1 1_555 1_555
C2A N1A 1_555 1_555
C4A N2A 1_555 1_555
C7A C8A 1_555 1_555
C8A N2A 1_555 1_555
C9A C10A 1_555 1_555
C11A C12A 1_555 1_555
C13A N3A 1_555 1_555
C13A N4A 1_555 1_555
C18A C19A 1_555 1_555
C21A C23A 1_555 1_555

#END
