
#######################################################################
#
#                 Cambridge Crystallographic Data Centre
#                                CCDC 
#
#######################################################################
#
# If this CIF has been generated from an entry in the Cambridge 
# Structural Database, then it will include bibliographic, chemical, 
# crystal, experimental, refinement or atomic coordinate data resulting 
# from the CCDC's data processing and validation procedures.
#
#######################################################################

data_WEJMOO
_symmetry_cell_setting           monoclinic
_symmetry_space_group_name_H-M   'P 21/n'
_symmetry_Int_Tables_number      14
_space_group_name_Hall           '-P 2yn'
loop_
_symmetry_equiv_pos_site_id
_symmetry_equiv_pos_as_xyz
1 x,y,z
2 1/2-x,1/2+y,1/2-z
3 -x,-y,-z
4 1/2+x,1/2-y,1/2+z
_cell_length_a                   8.1707(16)
_cell_length_b                   15.052(3)
_cell_length_c                   17.136(3)
_cell_angle_alpha                90
_cell_angle_beta                 90.02(3)
_cell_angle_gamma                90
_cell_volume                     2107.48
loop_
_atom_site_label
_atom_site_type_symbol
_atom_site_fract_x
_atom_site_fract_y
_atom_site_fract_z
C1 C 0.5613(5) 0.3964(3) 0.7797(2)
H1 H 0.5304 0.3661 0.7348
C2 C 0.5155(5) 0.4839(3) 0.7880(2)
H2 H 0.4534 0.5118 0.7496
C3 C 0.5626(5) 0.5291(2) 0.8533(2)
H3 H 0.5349 0.5887 0.8592
C4 C 0.6527(4) 0.4857(2) 0.9112(2)
C5 C 0.6938(4) 0.3968(2) 0.89860(19)
C6 C 0.7885(4) 0.3473(2) 0.95672(19)
C7 C 0.9065(5) 0.2140(3) 0.9916(2)
H4 H 0.9275 0.1545 0.9810
C8 C 0.9660(5) 0.2503(3) 1.0602(2)
H5 H 1.0264 0.2157 1.0947
C9 C 0.9351(5) 0.3374(3) 1.0767(2)
H6 H 0.9744 0.3625 1.1226
C10 C 0.8441(4) 0.3885(2) 1.0245(2)
C11 C 0.8054(5) 0.4824(3) 1.0362(2)
C12 C 0.7091(5) 0.5281(2) 0.9823(2)
C13 C 0.7289(4) 0.64400(19) 1.05573(16)
H7 H 0.7063 0.7033 1.0663
C14 C 0.8238(6) 0.6054(3) 1.1059(2)
H8 H 0.8622 0.6385 1.1479
C15 C 0.6205(4) 0.0770(2) 0.8543(2)
C16 C 0.5357(4) -0.0085(2) 0.8751(2)
H9 H 0.4523 0.0050 0.9145
C17 C 0.4486(4) -0.0479(2) 0.8040(2)
H10 H 0.3699 -0.0054 0.7839
H11 H 0.5279 -0.0599 0.7632
C18 C 0.3608(4) -0.1339(2) 0.8261(2)
H12 H 0.2774 -0.1210 0.8647
H13 H 0.3070 -0.1580 0.7803
C19 C 0.4786(4) -0.2024(2) 0.8587(2)
H14 H 0.4134 -0.2528 0.8773
C20 C 0.5935(5) -0.2370(2) 0.7960(2)
C21 C 0.5703(5) -0.1644(2) 0.9289(2)
H15 H 0.4940 -0.1558 0.9716
H16 H 0.6526 -0.2067 0.9458
C22 C 0.6526(5) -0.0764(2) 0.9100(2)
H17 H 0.7412 -0.0869 0.8735
H18 H 0.6997 -0.0521 0.9574
N1 N 0.6489(3) 0.35306(18) 0.83398(16)
N2 N 0.8203(4) 0.26124(18) 0.94019(17)
N3 N 0.6637(5) 0.6146(2) 0.9961(2)
N4 N 0.8674(4) 0.5240(3) 1.10052(19)
O1 O 0.5357(3) 0.14482(17) 0.83634(18)
O2 O 0.7713(3) 0.08357(17) 0.85265(19)
O4 O 0.5339(3) -0.25006(18) 0.72760(16)
O6 O 0.7397(3) -0.2525(2) 0.80797(16)
Zn1 Zn 0.74602(5) 0.22353(3) 0.82563(2)
O4A O 0.9661(3) 0.24994(18) 0.77240(16)
O6A O 0.7603(3) 0.2475(2) 0.69203(16)
Zn1A Zn 0.75398(5) -0.27647(3) 0.67437(2)
O3 O 1.0673(6) -0.0085(3) 0.9204(3)
H19 H 1.137(4) 0.040(2) 0.917(2)
H22 H 1.003(3) -0.0109(19) 0.8808(18)
O5 O 0.1986(5) 0.1438(3) 0.8522(3)
H20 H 0.122(4) 0.175(3) 0.826(2)
H21 H 0.294(3) 0.142(3) 0.826(2)
loop_
_geom_bond_atom_site_label_1
_geom_bond_atom_site_label_2
_geom_bond_site_symmetry_1
_geom_bond_site_symmetry_2
C1 H1 1_555 1_555
C2 C1 1_555 1_555
H2 C2 1_555 1_555
C3 C2 1_555 1_555
H3 C3 1_555 1_555
C4 C3 1_555 1_555
C5 C4 1_555 1_555
C6 C5 1_555 1_555
C7 H4 1_555 1_555
C8 C7 1_555 1_555
H5 C8 1_555 1_555
C9 C8 1_555 1_555
H6 C9 1_555 1_555
C10 C6 1_555 1_555
C11 C10 1_555 1_555
C12 C4 1_555 1_555
C13 H7 1_555 1_555
C14 C13 1_555 1_555
H8 C14 1_555 1_555
C15 C16 1_555 1_555
C16 H9 1_555 1_555
C17 C16 1_555 1_555
H10 C17 1_555 1_555
H11 C17 1_555 1_555
C18 C17 1_555 1_555
H12 C18 1_555 1_555
H13 C18 1_555 1_555
C19 C18 1_555 1_555
H14 C19 1_555 1_555
C20 C19 1_555 1_555
C21 C19 1_555 1_555
H15 C21 1_555 1_555
H16 C21 1_555 1_555
C22 C16 1_555 1_555
H17 C22 1_555 1_555
H18 C22 1_555 1_555
N1 C1 1_555 1_555
N2 C6 1_555 1_555
N3 C12 1_555 1_555
N4 C11 1_555 1_555
O1 C15 1_555 1_555
O2 C15 1_555 1_555
O3 H19 1_555 1_555
O4 C20 1_555 1_555
O5 H20 1_555 1_555
O6 C20 1_555 1_555
Zn1 N1 1_555 1_555
H21 O5 1_555 1_555
H22 O3 1_555 1_555
O4A Zn1 1_555 1_555
O6A Zn1 1_555 1_555
Zn1A O4 1_555 1_555
C5 N1 1_555 1_555
C7 N2 1_555 1_555
C9 C10 1_555 1_555
C11 C12 1_555 1_555
C13 N3 1_555 1_555
C14 N4 1_555 1_555
C21 C22 1_555 1_555
N2 Zn1 1_555 1_555
O1 Zn1 1_555 1_555
O2 Zn1 1_555 1_555
O6 Zn1A 1_555 1_555

#END
