
#######################################################################
#
#                 Cambridge Crystallographic Data Centre
#                                CCDC 
#
#######################################################################
#
# If this CIF has been generated from an entry in the Cambridge 
# Structural Database, then it will include bibliographic, chemical, 
# crystal, experimental, refinement or atomic coordinate data resulting 
# from the CCDC's data processing and validation procedures.
#
#######################################################################

data_WEJNII
_symmetry_cell_setting           monoclinic
_symmetry_space_group_name_H-M   'P 21/c'
_symmetry_Int_Tables_number      14
_space_group_name_Hall           '-P 2ybc'
loop_
_symmetry_equiv_pos_site_id
_symmetry_equiv_pos_as_xyz
1 x,y,z
2 -x,1/2+y,1/2-z
3 -x,-y,-z
4 x,1/2-y,1/2+z
_cell_length_a                   9.390(1)
_cell_length_b                   9.688(2)
_cell_length_c                   13.828(3)
_cell_angle_alpha                90
_cell_angle_beta                 110.16(2)
_cell_angle_gamma                90
_cell_volume                     1180.87
loop_
_atom_site_label
_atom_site_type_symbol
_atom_site_fract_x
_atom_site_fract_y
_atom_site_fract_z
N1 N 0.3173(3) 0.1255(2) 0.6012(2)
C1 C 0.2357(3) 0.0507(3) 0.5185(2)
O1 O 0.2793(3) -0.0600(2) 0.4964(2)
N2 N 0.0963(3) 0.1036(3) 0.4581(2)
C2 C 0.0449(3) 0.2342(3) 0.4639(2)
O2 O -0.0789(2) 0.2723(3) 0.4073(2)
C3 C 0.1546(3) 0.3283(3) 0.5379(2)
C4 C 0.2698(3) 0.2564(3) 0.6301(2)
S1 S 0.18312(7) 0.22847(7) 0.72967(6)
O3 O 0.0632(2) 0.1293(2) 0.6814(2)
O4 O 0.1237(2) 0.3614(2) 0.7457(2)
O5 O 0.2999(2) 0.1743(3) 0.8195(2)
S2 S 0.44204(7) 0.36426(6) 0.67636(5)
O6 O 0.5572(2) 0.2786(2) 0.7462(2)
O7 O 0.4019(2) 0.4835(2) 0.7235(2)
O8 O 0.4720(2) 0.3974(2) 0.5834(2)
K1 K 0.21510(7) -0.13726(6) 0.28982(5)
K2 K 0.39618(7) -0.31480(7) 0.56104(5)
O9 O 0.1902(3) -0.4004(3) 0.3752(2)
H1 H 0.386(4) 0.085(4) 0.647(3)
H2 H 0.047(5) 0.055(5) 0.414(4)
H3 H 0.203(4) 0.367(4) 0.490(3)
H4 H 0.104(4) 0.397(4) 0.565(3)
H5 H 0.118(5) -0.399(5) 0.342(3)
H6 H 0.230(4) -0.474(4) 0.354(3)
K1A K -0.21510(7) 0.36274(6) 0.21018(5)
K2B K -0.39618(7) 0.31480(7) 0.43896(5)
K1B K -0.21510(7) 0.13726(6) 0.71018(5)
K1C K 0.21510(7) 0.63726(6) 0.78982(5)
K2A K 0.60382(7) 0.18520(7) 0.93896(5)
K1B_2 K 0.78490(7) 0.13726(6) 0.71018(5)
K2_2 K 0.39618(7) 0.68520(7) 0.56104(5)
K2B_2 K 0.60382(7) 0.31480(7) 0.43896(5)
O2A O 0.0789(2) -0.2277(3) 0.0927(2)
O3B O -0.0632(2) -0.1293(2) 0.3186(2)
O4C O 0.1237(2) 0.1386(2) 0.2457(2)
O6B O 0.4428(2) -0.2786(2) 0.2538(2)
O7C O 0.4019(2) 0.0165(2) 0.2235(2)
K2C K 0.39618(7) -0.18520(7) 0.06104(5)
O2B O 0.0789(2) -0.2723(3) 0.5927(2)
O5A O 0.7001(2) -0.3257(3) 0.6805(2)
O6A O 0.4428(2) -0.2214(2) 0.7538(2)
O7_2 O 0.4019(2) -0.5165(2) 0.7235(2)
O8_2 O 0.4720(2) -0.6026(2) 0.5834(2)
O8B O 0.5280(2) -0.3974(2) 0.4166(2)
K1C_2 K 0.21510(7) -0.36274(6) 0.78982(5)
loop_
_geom_bond_atom_site_label_1
_geom_bond_atom_site_label_2
_geom_bond_site_symmetry_1
_geom_bond_site_symmetry_2
N1 C1 1_555 1_555
C1 O1 1_555 1_555
O1 K1 1_555 1_555
N2 C1 1_555 1_555
C2 N2 1_555 1_555
O2 C2 1_555 1_555
C3 C2 1_555 1_555
C4 N1 1_555 1_555
S1 C4 1_555 1_555
O3 S1 1_555 1_555
O4 S1 1_555 1_555
O5 S1 1_555 1_555
S2 C4 1_555 1_555
O6 S2 1_555 1_555
O7 S2 1_555 1_555
O8 S2 1_555 1_555
K1 O9 1_555 1_555
K2 O1 1_555 1_555
O9 K2 1_555 1_555
H1 N1 1_555 1_555
H2 N2 1_555 1_555
H3 C3 1_555 1_555
H4 C3 1_555 1_555
H5 O9 1_555 1_555
H6 O9 1_555 1_555
K1A O2 1_555 1_555
K2B O2 1_555 1_555
K1B O3 1_555 1_555
K1C O4 1_555 1_555
K2A O5 1_555 1_555
K1B_2 O6 1_555 1_555
K2_2 O7 1_555 1_555
K2B_2 O8 1_555 1_555
O2A K1 1_555 1_555
O3B K1 1_555 1_555
O4C K1 1_555 1_555
O6B K1 1_555 1_555
O7C K1 1_555 1_555
K2C O2A 1_555 1_555
O2B K2 1_555 1_555
O5A K2 1_555 1_555
O6A K2 1_555 1_555
O7_2 K2 1_555 1_555
O8_2 K2 1_555 1_555
O8B K2 1_555 1_555
K1C_2 O2B 1_555 1_555
C3 C4 1_555 1_555
O6 K2A 1_555 1_555
O7 K1C 1_555 1_555
O8 K2_2 1_555 1_555
O6B K2C 1_555 1_555
O7C K2C 1_555 1_555
O6A K1C_2 1_555 1_555
O7_2 K1C_2 1_555 1_555

#END
