
#######################################################################
#
#                 Cambridge Crystallographic Data Centre
#                                CCDC 
#
#######################################################################
#
# If this CIF has been generated from an entry in the Cambridge 
# Structural Database, then it will include bibliographic, chemical, 
# crystal, experimental, refinement or atomic coordinate data resulting 
# from the CCDC's data processing and validation procedures.
#
#######################################################################

data_WEJNUV
_symmetry_cell_setting           triclinic
_symmetry_space_group_name_H-M   'P -1'
_symmetry_Int_Tables_number      2
_space_group_name_Hall           '-P 1'
loop_
_symmetry_equiv_pos_site_id
_symmetry_equiv_pos_as_xyz
1 x,y,z
2 -x,-y,-z
_cell_length_a                   9.1936(18)
_cell_length_b                   10.515(2)
_cell_length_c                   11.056(2)
_cell_angle_alpha                61.77(3)
_cell_angle_beta                 78.55(3)
_cell_angle_gamma                75.90(3)
_cell_volume                     908.947
loop_
_atom_site_label
_atom_site_type_symbol
_atom_site_fract_x
_atom_site_fract_y
_atom_site_fract_z
C1 C 0.3257(3) -0.1260(3) 0.3832(2)
H1 H 0.3139 -0.2130 0.4620
C2 C 0.4493(3) -0.1289(3) 0.2875(3)
H2 H 0.5153 -0.2161 0.3012
C3 C 0.4713(3) -0.0020(3) 0.1741(2)
H3 H 0.5531 -0.0007 0.1090
C4 C 0.3691(3) 0.1268(3) 0.1565(2)
C5 C 0.2453(3) 0.1204(2) 0.2565(2)
C6 C 0.1395(3) 0.2525(3) 0.2442(2)
C7 C 0.1609(3) 0.3905(2) 0.1344(2)
C8 C 0.2871(3) 0.3919(2) 0.0356(2)
C9 C 0.3855(3) 0.2669(3) 0.0443(2)
C10 C 0.4662(3) 0.4430(3) -0.1357(2)
C11 C 0.5609(3) 0.5236(2) -0.2597(2)
C12 C 0.6807(3) 0.4426(3) -0.3065(2)
H4 H 0.6938 0.3408 -0.2614
C13 C 0.7800(3) 0.5096(3) -0.4178(2)
H5 H 0.8590 0.4533 -0.4475
C14 C 0.7621(3) 0.6610(3) -0.4855(2)
C15 C 0.6429(3) 0.7440(3) -0.4408(2)
H6 H 0.6300 0.8458 -0.4864
C16 C 0.5433(3) 0.6759(3) -0.3289(2)
H7 H 0.4640 0.7323 -0.2996
C17 C 0.0588(3) 0.5148(3) 0.1309(2)
H8 H 0.0697 0.6070 0.0597
C18 C -0.0566(3) 0.4996(3) 0.2325(3)
H9 H -0.1244 0.5812 0.2326
C19 C -0.1287(3) 0.0815(2) 0.2216(2)
C20 C -0.0620(2) 0.0372(2) 0.1074(2)
C21 C 0.0653(3) -0.0692(3) 0.1223(2)
H10 H 0.1094 -0.1165 0.2049
C22 C -0.0712(3) 0.3592(3) 0.3365(3)
H11 H -0.1516 0.3501 0.4043
C23 C -0.1283(3) 0.1065(3) -0.0158(2)
H12 H -0.2145 0.1775 -0.0269
N1 N 0.2248(2) -0.0084(2) 0.36940(18)
N2 N 0.0216(2) 0.2391(2) 0.34469(18)
N3 N 0.4966(2) 0.2990(2) -0.06363(19)
N4 N 0.3411(2) 0.5045(2) -0.07955(18)
H13 H 0.3035 0.5963 -0.1104
O1 O 0.8648(2) 0.7198(2) -0.59340(18)
H14 H 0.8449 0.8094 -0.6264
O2 O -0.09681(19) -0.01299(17) 0.34391(15)
O3 O -0.2075(2) 0.20222(19) 0.19280(17)
Mn1 Mn 0.0000 0.0000 0.5000
C1A C -0.3257(3) 0.1260(3) 0.6168(2)
H1A H -0.3139 0.2130 0.5380
C2A C -0.4493(3) 0.1289(3) 0.7125(3)
H2A H -0.5153 0.2161 0.6988
C3A C -0.4713(3) 0.0020(3) 0.8259(2)
H3A H -0.5531 0.0007 0.8910
C4A C -0.3691(3) -0.1268(3) 0.8435(2)
C5A C -0.2453(3) -0.1204(2) 0.7435(2)
C6A C -0.1395(3) -0.2525(3) 0.7558(2)
C7A C -0.1609(3) -0.3905(2) 0.8656(2)
C8A C -0.2871(3) -0.3919(2) 0.9644(2)
C9A C -0.3855(3) -0.2669(3) 0.9557(2)
C10A C -0.4662(3) -0.4430(3) 1.1357(2)
C11A C -0.5609(3) -0.5236(2) 1.2597(2)
C12A C -0.6807(3) -0.4426(3) 1.3065(2)
H4A H -0.6938 -0.3408 1.2614
C13A C -0.7800(3) -0.5096(3) 1.4178(2)
H5A H -0.8590 -0.4533 1.4475
C14A C -0.7621(3) -0.6610(3) 1.4855(2)
C15A C -0.6429(3) -0.7440(3) 1.4408(2)
H6A H -0.6300 -0.8458 1.4864
C16A C -0.5433(3) -0.6759(3) 1.3289(2)
H7A H -0.4640 -0.7323 1.2996
C17A C -0.0588(3) -0.5148(3) 0.8691(2)
H8A H -0.0697 -0.6070 0.9403
C18A C 0.0566(3) -0.4996(3) 0.7675(3)
H9A H 0.1244 -0.5812 0.7674
C19A C 0.1287(3) -0.0815(2) -0.2216(2)
C20A C 0.0620(2) -0.0372(2) -0.1074(2)
C21A C -0.0653(3) 0.0692(3) -0.1223(2)
H10A H -0.1094 0.1165 -0.2049
C22A C 0.0712(3) -0.3592(3) 0.6635(3)
H11A H 0.1516 -0.3501 0.5957
C23A C 0.1283(3) -0.1065(3) 0.0158(2)
H12A H 0.2145 -0.1775 0.0269
N1A N -0.2248(2) 0.0084(2) 0.63060(18)
N2A N -0.0216(2) -0.2391(2) 0.65531(18)
N3A N -0.4966(2) -0.2990(2) 1.06363(19)
N4A N -0.3411(2) -0.5045(2) 1.07955(18)
H13A H -0.3035 -0.5963 1.1104
O1A O -0.8648(2) -0.7198(2) 1.59340(18)
H14A H -0.8449 -0.8094 1.6264
O2A O 0.09681(19) 0.01299(17) -0.34391(15)
O2A_2 O 0.09681(19) 0.01299(17) 0.65609(15)
O3A O 0.2075(2) -0.20222(19) -0.19280(17)
Mn1_2 Mn 0.0000 0.0000 -0.5000
loop_
_geom_bond_atom_site_label_1
_geom_bond_atom_site_label_2
_geom_bond_site_symmetry_1
_geom_bond_site_symmetry_2
C1 H1 1_555 1_555
C2 C1 1_555 1_555
H2 C2 1_555 1_555
C3 C2 1_555 1_555
H3 C3 1_555 1_555
C4 C3 1_555 1_555
C5 C4 1_555 1_555
C6 C5 1_555 1_555
C7 C6 1_555 1_555
C8 C7 1_555 1_555
C9 C4 1_555 1_555
C10 C11 1_555 1_555
C11 C12 1_555 1_555
C12 H4 1_555 1_555
C13 C12 1_555 1_555
H5 C13 1_555 1_555
C14 C13 1_555 1_555
C15 C14 1_555 1_555
H6 C15 1_555 1_555
C16 C11 1_555 1_555
H7 C16 1_555 1_555
C17 C7 1_555 1_555
H8 C17 1_555 1_555
C18 C17 1_555 1_555
H9 C18 1_555 1_555
C19 C20 1_555 1_555
C20 C21 1_555 1_555
C21 H10 1_555 1_555
C22 C18 1_555 1_555
H11 C22 1_555 1_555
C23 C20 1_555 1_555
H12 C23 1_555 1_555
N1 C1 1_555 1_555
N2 C6 1_555 1_555
N3 C9 1_555 1_555
N4 C8 1_555 1_555
H13 N4 1_555 1_555
O1 C14 1_555 1_555
H14 O1 1_555 1_555
O2 C19 1_555 1_555
O3 C19 1_555 1_555
Mn1 N1 1_555 1_555
C1A H1A 1_555 1_555
C2A C1A 1_555 1_555
H2A C2A 1_555 1_555
C3A C2A 1_555 1_555
H3A C3A 1_555 1_555
C4A C3A 1_555 1_555
C5A C4A 1_555 1_555
C6A C5A 1_555 1_555
C7A C6A 1_555 1_555
C8A C7A 1_555 1_555
C9A C4A 1_555 1_555
C10A C11A 1_555 1_555
C11A C12A 1_555 1_555
C12A H4A 1_555 1_555
C13A C12A 1_555 1_555
H5A C13A 1_555 1_555
C14A C13A 1_555 1_555
C15A C14A 1_555 1_555
H6A C15A 1_555 1_555
C16A C11A 1_555 1_555
H7A C16A 1_555 1_555
C17A C7A 1_555 1_555
H8A C17A 1_555 1_555
C18A C17A 1_555 1_555
H9A C18A 1_555 1_555
C19A C20A 1_555 1_555
C20A C21A 1_555 1_555
C21A C23 1_555 1_555
H10A C21A 1_555 1_555
C22A C18A 1_555 1_555
H11A C22A 1_555 1_555
C23A C21 1_555 1_555
H12A C23A 1_555 1_555
N1A Mn1 1_555 1_555
N2A Mn1 1_555 1_555
N3A C9A 1_555 1_555
N4A C8A 1_555 1_555
H13A N4A 1_555 1_555
O1A C14A 1_555 1_555
H14A O1A 1_555 1_555
O2A C19A 1_555 1_555
O2A_2 Mn1 1_555 1_555
O3A C19A 1_555 1_555
Mn1_2 O2A 1_555 1_555
C5 N1 1_555 1_555
C8 C9 1_555 1_555
C10 N3 1_555 1_555
C10 N4 1_555 1_555
C15 C16 1_555 1_555
C22 N2 1_555 1_555
N2 Mn1 1_555 1_555
O2 Mn1 1_555 1_555
C1A N1A 1_555 1_555
C5A N1A 1_555 1_555
C6A N2A 1_555 1_555
C8A C9A 1_555 1_555
C10A N3A 1_555 1_555
C10A N4A 1_555 1_555
C15A C16A 1_555 1_555
C20A C23A 1_555 1_555
C22A N2A 1_555 1_555

#END
