
#######################################################################
#
#                 Cambridge Crystallographic Data Centre
#                                CCDC 
#
#######################################################################
#
# If this CIF has been generated from an entry in the Cambridge 
# Structural Database, then it will include bibliographic, chemical, 
# crystal, experimental, refinement or atomic coordinate data resulting 
# from the CCDC's data processing and validation procedures.
#
#######################################################################

data_WEJNEF
_symmetry_cell_setting           monoclinic
_symmetry_space_group_name_H-M   'P 2/c'
_symmetry_Int_Tables_number      13
_space_group_name_Hall           '-P 2yc'
loop_
_symmetry_equiv_pos_site_id
_symmetry_equiv_pos_as_xyz
1 x,y,z
2 -x,y,1/2-z
3 -x,-y,-z
4 x,-y,1/2+z
_cell_length_a                   3.7354(7)
_cell_length_b                   12.099(2)
_cell_length_c                   13.129(3)
_cell_angle_alpha                90
_cell_angle_beta                 91.33(3)
_cell_angle_gamma                90
_cell_volume                     593.2
loop_
_atom_site_label
_atom_site_type_symbol
_atom_site_fract_x
_atom_site_fract_y
_atom_site_fract_z
C1 C 0.7365(8) 0.1325(3) 0.0598(3)
H1 H 0.7676 0.0644 0.0282
C2 C 0.8249(8) 0.2265(3) 0.0066(2)
H2 H 0.9142 0.2212 -0.0588
C3 C 0.7795(8) 0.3280(3) 0.0512(2)
H3 H 0.8372 0.3924 0.0166
C4 C 0.5666(7) 0.2332(2) 0.1981(2)
C5 C 0.6445(7) 0.3327(2) 0.1497(2)
C6 C 0.5737(7) 0.4367(2) 0.2015(2)
C7 C 0.5758(9) 0.6230(2) 0.2022(2)
H4 H 0.6251 0.6905 0.1717
Cl1 Cl 0.0000 -0.11078(8) 0.2500
Cu1 Cu 0.5000 0.00034(4) 0.2500
N1 N 0.6094(6) 0.13338(19) 0.15357(19)
N2 N 0.6522(7) 0.5321(2) 0.1532(2)
C1A C 0.2635(8) 0.1325(3) 0.4402(3)
H1A H 0.2324 0.0644 0.4718
C2A C 0.1751(8) 0.2265(3) 0.4934(2)
H2A H 0.0858 0.2212 0.5588
C3A C 0.2205(8) 0.3280(3) 0.4488(2)
H3A H 0.1628 0.3924 0.4834
C4A C 0.4334(7) 0.2332(2) 0.3019(2)
C5A C 0.3555(7) 0.3327(2) 0.3503(2)
C6A C 0.4263(7) 0.4367(2) 0.2985(2)
C7A C 0.4242(9) 0.6230(2) 0.2978(2)
H4A H 0.3749 0.6905 0.3283
Cl1_2 Cl 1.0000 -0.11078(8) 0.2500
Cu1_2 Cu -0.5000 0.00034(4) 0.2500
N1A N 0.3906(6) 0.13338(19) 0.34643(19)
N2A N 0.3478(7) 0.5321(2) 0.3468(2)
loop_
_geom_bond_atom_site_label_1
_geom_bond_atom_site_label_2
_geom_bond_site_symmetry_1
_geom_bond_site_symmetry_2
C1 H1 1_555 1_555
C2 C1 1_555 1_555
H2 C2 1_555 1_555
C3 C2 1_555 1_555
H3 C3 1_555 1_555
C4 C5 1_555 1_555
C5 C3 1_555 1_555
C6 C5 1_555 1_555
C7 H4 1_555 1_555
Cl1 Cu1 1_555 1_555
Cu1 N1 1_555 1_555
N1 C1 1_555 1_555
N2 C6 1_555 1_555
C1A H1A 1_555 1_555
C2A C1A 1_555 1_555
H2A C2A 1_555 1_555
C3A C2A 1_555 1_555
H3A C3A 1_555 1_555
C4A C4 1_555 1_555
C5A C3A 1_555 1_555
C6A C6 1_555 1_555
C7A C7 1_555 1_555
H4A C7A 1_555 1_555
Cl1_2 Cu1 1_555 1_555
Cu1_2 Cl1 1_555 1_555
N1A Cu1 1_555 1_555
N2A C6A 1_555 1_555
C4 N1 1_555 1_555
C7 N2 1_555 1_555
C1A N1A 1_555 1_555
C4A C5A 1_555 1_555
C4A N1A 1_555 1_555
C5A C6A 1_555 1_555
C7A N2A 1_555 1_555

#END
