
#######################################################################
#
#                 Cambridge Crystallographic Data Centre
#                                CCDC 
#
#######################################################################
#
# If this CIF has been generated from an entry in the Cambridge 
# Structural Database, then it will include bibliographic, chemical, 
# crystal, experimental, refinement or atomic coordinate data resulting 
# from the CCDC's data processing and validation procedures.
#
#######################################################################

data_WEJPIK
_symmetry_cell_setting           monoclinic
_symmetry_space_group_name_H-M   'C 2/c'
_symmetry_Int_Tables_number      15
_space_group_name_Hall           '-C 2yn'
loop_
_symmetry_equiv_pos_site_id
_symmetry_equiv_pos_as_xyz
1 x,y,z
2 1/2+x,1/2+y,z
3 -x,y,1/2-z
4 1/2-x,1/2+y,1/2-z
5 -x,-y,-z
6 1/2-x,1/2-y,-z
7 x,-y,1/2+z
8 1/2+x,1/2-y,1/2+z
_cell_length_a                   18.312(7)
_cell_length_b                   9.818(2)
_cell_length_c                   7.486(2)
_cell_angle_alpha                90
_cell_angle_beta                 107.750
_cell_angle_gamma                90
_cell_volume                     1281.82
loop_
_atom_site_label
_atom_site_type_symbol
_atom_site_fract_x
_atom_site_fract_y
_atom_site_fract_z
Br1 Br 0.4180(1) 0.8965(1) 0.0605(1)
Cu1 Cu 0.5000 1.0697(1) 0.2500
N1 N 0.4341(3) 1.2295(6) 0.1193(8)
C1 C 0.4207(4) 1.4714(7) 0.1097(10)
C2 C 0.4611(4) 1.3554(7) 0.1762(9)
C3 C 0.3654(4) 1.2201(8) -0.0105(10)
C4 C 0.3477(4) 1.4627(7) -0.0247(10)
C5 C 0.3218(4) 1.3341(8) -0.0830(10)
C6 C 0.2989(5) 1.5850(8) -0.0936(11)
C2B C 0.5389(4) 1.3554(7) 0.3238(9)
N1B N 0.5659(3) 1.2295(6) 0.3807(8)
C3B C 0.6346(4) 1.2201(8) 0.5105(10)
C5B C 0.6782(4) 1.3341(8) 0.5830(10)
C4B C 0.6523(4) 1.4627(7) 0.5247(10)
C1B C 0.5793(4) 1.4714(7) 0.3903(10)
C6B C 0.7011(5) 1.5850(8) 0.5936(11)
Br1B Br 0.5820(1) 0.8965(1) 0.4395(1)
Cu1D Cu 0.5000 0.9303(1) -0.2500
Br1D Br 0.5820(1) 1.1035(1) -0.0605(1)
Br1F Br 0.4180(1) 1.1035(1) 0.5605(1)
Cu1D_2 Cu 0.5000 0.9303(1) 0.7500
loop_
_geom_bond_atom_site_label_1
_geom_bond_atom_site_label_2
_geom_bond_site_symmetry_1
_geom_bond_site_symmetry_2
Br1 Cu1 1_555 1_555
Cu1 N1 1_555 1_555
N1 C2 1_555 1_555
C1 C2 1_555 1_555
C2 C2B 1_555 1_555
C3 N1 1_555 1_555
C4 C1 1_555 1_555
C5 C3 1_555 1_555
C6 C4 1_555 1_555
C2B N1B 1_555 1_555
N1B Cu1 1_555 1_555
C3B N1B 1_555 1_555
C5B C3B 1_555 1_555
C4B C5B 1_555 1_555
C1B C2B 1_555 1_555
C6B C4B 1_555 1_555
Br1B Cu1 1_555 1_555
Cu1D Br1 1_555 1_555
Br1D Cu1 1_555 1_555
Br1F Cu1 1_555 1_555
Cu1D_2 Br1B 1_555 1_555
C4 C5 1_555 1_555
C4B C1B 1_555 1_555
Cu1D Br1D 1_555 1_555
Br1F Cu1D_2 1_555 1_555

#END
