
#######################################################################
#
#                 Cambridge Crystallographic Data Centre
#                                CCDC 
#
#######################################################################
#
# If this CIF has been generated from an entry in the Cambridge 
# Structural Database, then it will include bibliographic, chemical, 
# crystal, experimental, refinement or atomic coordinate data resulting 
# from the CCDC's data processing and validation procedures.
#
#######################################################################

data_WEJPEH
_symmetry_cell_setting           monoclinic
_symmetry_space_group_name_H-M   'P 21/n'
_symmetry_Int_Tables_number      14
_space_group_name_Hall           '-P 2yn'
loop_
_symmetry_equiv_pos_site_id
_symmetry_equiv_pos_as_xyz
1 x,y,z
2 1/2-x,1/2+y,1/2-z
3 -x,-y,-z
4 1/2+x,1/2-y,1/2+z
_cell_length_a                   9.4301(2)
_cell_length_b                   11.0425(4)
_cell_length_c                   12.1683(3)
_cell_angle_alpha                90
_cell_angle_beta                 91.185(2)
_cell_angle_gamma                90
_cell_volume                     1266.84
loop_
_atom_site_label
_atom_site_type_symbol
_atom_site_fract_x
_atom_site_fract_y
_atom_site_fract_z
Fe1 Fe 0.03745(4) 0.14277(4) 0.32674(3)
O1 O -0.1427(3) 0.0348(2) 0.3415(2)
H1 H -0.227(4) 0.056(3) 0.338(3)
H2 H -0.144(4) -0.022(4) 0.368(3)
C1 C 0.0476(3) 0.2662(3) 0.1162(2)
C2 C 0.1683(3) 0.3245(2) 0.1808(2)
O2 O -0.0175(2) 0.18303(17) 0.16669(16)
O3 O 0.0216(3) 0.3009(2) 0.02248(18)
C3 C 0.2388(3) 0.4275(3) 0.1484(2)
H3 H 0.214(3) 0.464(2) 0.092(2)
N1 N 0.3445(2) 0.4761(2) 0.20800(19)
C4 C 0.3803(3) 0.4179(3) 0.3003(2)
H4 H 0.453(3) 0.452(2) 0.340(2)
C5 C 0.3092(3) 0.3157(3) 0.3354(2)
H5 H 0.334(3) 0.276(3) 0.405(2)
N2 N 0.2022(2) 0.2700(2) 0.27701(18)
C6 C 0.0559(3) 0.2245(3) 0.5532(3)
C7 C -0.0495(3) 0.3113(3) 0.5031(2)
O4 O 0.1056(2) 0.14553(18) 0.48840(16)
O5 O 0.0855(2) 0.2321(2) 0.65224(17)
C8 C -0.1140(4) 0.4022(3) 0.5616(3)
H6 H -0.094(3) 0.411(3) 0.633(2)
N3 N -0.2036(3) 0.4817(2) 0.5145(2)
C9 C -0.2300(3) 0.4661(3) 0.4078(3)
H7 H -0.291(3) 0.523(3) 0.374(2)
C10 C -0.1694(3) 0.3738(3) 0.3488(3)
H8 H -0.192(3) 0.363(3) 0.275(2)
N4 N -0.0789(2) 0.2966(2) 0.39585(19)
Fe1A Fe 0.46255(4) 0.64277(4) 0.17326(3)
N1A N 0.1555(2) -0.0239(2) 0.29200(19)
O6 O 0.0867(3) 0.3994(3) 0.8235(3)
H9 H 0.072(3) 0.373(3) 0.883(3)
H10 H 0.082(4) 0.347(4) 0.784(3)
loop_
_geom_bond_atom_site_label_1
_geom_bond_atom_site_label_2
_geom_bond_site_symmetry_1
_geom_bond_site_symmetry_2
Fe1 O1 1_555 1_555
O1 H1 1_555 1_555
H2 O1 1_555 1_555
C1 C2 1_555 1_555
C2 C3 1_555 1_555
O2 Fe1 1_555 1_555
O3 C1 1_555 1_555
C3 H3 1_555 1_555
N1 C3 1_555 1_555
C4 N1 1_555 1_555
H4 C4 1_555 1_555
C5 C4 1_555 1_555
H5 C5 1_555 1_555
N2 Fe1 1_555 1_555
C6 C7 1_555 1_555
C7 C8 1_555 1_555
O4 Fe1 1_555 1_555
O5 C6 1_555 1_555
C8 H6 1_555 1_555
N3 C8 1_555 1_555
C9 N3 1_555 1_555
H7 C9 1_555 1_555
C10 C9 1_555 1_555
H8 C10 1_555 1_555
N4 Fe1 1_555 1_555
O6 H9 1_555 1_555
H10 O6 1_555 1_555
Fe1A N1 1_555 1_555
N1A Fe1 1_555 1_555
C1 O2 1_555 1_555
C2 N2 1_555 1_555
C5 N2 1_555 1_555
C6 O4 1_555 1_555
C7 N4 1_555 1_555
C10 N4 1_555 1_555

#END
