
#######################################################################
#
#                 Cambridge Crystallographic Data Centre
#                                CCDC 
#
#######################################################################
#
# If this CIF has been generated from an entry in the Cambridge 
# Structural Database, then it will include bibliographic, chemical, 
# crystal, experimental, refinement or atomic coordinate data resulting 
# from the CCDC's data processing and validation procedures.
#
#######################################################################

data_WEJRIN
_symmetry_cell_setting           orthorhombic
_symmetry_space_group_name_H-M   'C m c 21'
_symmetry_Int_Tables_number      36
_space_group_name_Hall           'C 2n -2'
loop_
_symmetry_equiv_pos_site_id
_symmetry_equiv_pos_as_xyz
1 x,y,z
2 -x,-y,1/2+z
3 x,-y,1/2+z
4 -x,y,z
5 1/2+x,1/2+y,z
6 1/2-x,1/2-y,1/2+z
7 1/2+x,1/2-y,1/2+z
8 1/2-x,1/2+y,z
_cell_length_a                   6.4789(15)
_cell_length_b                   13.549(3)
_cell_length_c                   19.207(5)
_cell_angle_alpha                90
_cell_angle_beta                 90
_cell_angle_gamma                90
_cell_volume                     1686.04
loop_
_atom_site_label
_atom_site_type_symbol
_atom_site_fract_x
_atom_site_fract_y
_atom_site_fract_z
Au1 Au 1.0000 0.70119(7) -0.03562(5)
Pt1 Pt 1.5000 0.64745(6) -0.01671(4)
Cl1 Cl 1.0000 0.7378(8) 0.0874(8)
N1 N 1.5000 0.7348(17) -0.0984(11)
N2 N 1.5000 0.7756(13) 0.0289(10)
N3 N 1.5000 0.6018(15) 0.0835(9)
N4 N 1.5000 0.453(3) -0.086(2)
N5 N 1.0000 0.648(2) -0.1870(18)
C1 C 1.5000 0.714(2) -0.1684(13)
H1 H 1.5000 0.6467 -0.1819
C2 C 1.5000 0.782(2) -0.2191(14)
H2 H 1.5000 0.7614 -0.2663
C3 C 1.5000 0.876(3) -0.2051(15)
H3 H 1.5000 0.9231 -0.2415
C4 C 1.5000 0.905(2) -0.1364(16)
H4 H 1.5000 0.9730 -0.1250
C5 C 1.5000 0.835(2) -0.0841(12)
C6 C 1.5000 0.856(2) -0.0087(15)
C7 C 1.5000 0.946(2) 0.0256(16)
H5 H 1.5000 1.0051 -0.0006
C8 C 1.5000 0.950(2) 0.096(2)
H6 H 1.5000 1.0122 0.1189
C9 C 1.5000 0.865(2) 0.1351(15)
H7 H 1.5000 0.8683 0.1845
C10 C 1.5000 0.775(2) 0.1004(13)
C11 C 1.5000 0.6761(17) 0.1308(14)
C12 C 1.5000 0.657(2) 0.2004(12)
H8 H 1.5000 0.7102 0.2326
C13 C 1.5000 0.5627(18) 0.2246(11)
H9 H 1.5000 0.5492 0.2731
C14 C 1.5000 0.486(2) 0.1760(14)
H10 H 1.5000 0.4197 0.1911
C15 C 1.5000 0.508(2) 0.1057(13)
H11 H 1.5000 0.4562 0.0727
C16 C 1.5000 0.5091(16) -0.0691(11)
C17 C 1.0000 0.668(2) -0.1347(18)
Au1_2 Au 2.0000 0.70119(7) -0.03562(5)
Pt1_2 Pt 0.5000 0.64745(6) -0.01671(4)
loop_
_geom_bond_atom_site_label_1
_geom_bond_atom_site_label_2
_geom_bond_site_symmetry_1
_geom_bond_site_symmetry_2
Au1 Pt1 1_555 1_555
Pt1 N1 1_555 1_555
Cl1 Au1 1_555 1_555
N1 C1 1_555 1_555
N2 Pt1 1_555 1_555
N3 Pt1 1_555 1_555
N4 C16 1_555 1_555
N5 C17 1_555 1_555
C1 H1 1_555 1_555
C2 C1 1_555 1_555
H2 C2 1_555 1_555
C3 C2 1_555 1_555
H3 C3 1_555 1_555
C4 C3 1_555 1_555
H4 C4 1_555 1_555
C5 N1 1_555 1_555
C6 N2 1_555 1_555
C7 C6 1_555 1_555
H5 C7 1_555 1_555
C8 C7 1_555 1_555
H6 C8 1_555 1_555
C9 C8 1_555 1_555
H7 C9 1_555 1_555
C10 N2 1_555 1_555
C11 N3 1_555 1_555
C12 C11 1_555 1_555
H8 C12 1_555 1_555
C13 C12 1_555 1_555
H9 C13 1_555 1_555
C14 C13 1_555 1_555
H10 C14 1_555 1_555
C15 N3 1_555 1_555
H11 C15 1_555 1_555
C16 Pt1 1_555 1_555
C17 Au1 1_555 1_555
Au1_2 Pt1 1_555 1_555
Pt1_2 Au1 1_555 1_555
C4 C5 1_555 1_555
C5 C6 1_555 1_555
C9 C10 1_555 1_555
C10 C11 1_555 1_555
C14 C15 1_555 1_555

#END
