
#######################################################################
#
#                 Cambridge Crystallographic Data Centre
#                                CCDC 
#
#######################################################################
#
# If this CIF has been generated from an entry in the Cambridge 
# Structural Database, then it will include bibliographic, chemical, 
# crystal, experimental, refinement or atomic coordinate data resulting 
# from the CCDC's data processing and validation procedures.
#
#######################################################################

data_WEJSAH
_symmetry_cell_setting           tetragonal
_symmetry_space_group_name_H-M   'I 41/a'
_symmetry_Int_Tables_number      88
_space_group_name_Hall           '-I 4ad'
loop_
_symmetry_equiv_pos_site_id
_symmetry_equiv_pos_as_xyz
1 x,y,z
2 1/2-x,-y,1/2+z
3 3/4-y,1/4+x,1/4+z
4 3/4+y,3/4-x,3/4+z
5 1/2+x,1/2+y,1/2+z
6 -x,1/2-y,z
7 1/4-y,3/4+x,3/4+z
8 1/4+y,1/4-x,1/4+z
9 -x,-y,-z
10 1/2+x,y,1/2-z
11 1/4+y,3/4-x,3/4-z
12 1/4-y,1/4+x,1/4-z
13 1/2-x,1/2-y,1/2-z
14 x,1/2+y,-z
15 3/4+y,1/4-x,1/4-z
16 3/4-y,3/4+x,3/4-z
_cell_length_a                   17.5087(11)
_cell_length_b                   17.5087(11)
_cell_length_c                   15.1964(12)
_cell_angle_alpha                90
_cell_angle_beta                 90
_cell_angle_gamma                90
_cell_volume                     4658.53
loop_
_atom_site_label
_atom_site_type_symbol
_atom_site_fract_x
_atom_site_fract_y
_atom_site_fract_z
C1 C 0.59743(15) 0.90224(15) 0.14556(17)
C2 C 0.57610(18) 0.98804(15) 0.14551(17)
H1 H 0.6226 1.0185 0.1375
C3 C 0.5404(2) 1.00770(16) 0.23418(19)
C4 C 0.5843(3) 1.0349(2) 0.3035(2)
H2 H 0.6367 1.0404 0.2961
C5 C 0.5516(5) 1.0538(3) 0.3829(3)
H3 H 0.5817 1.0721 0.4287
C6 C 0.4755(5) 1.0455(3) 0.3940(3)
H4 H 0.4534 1.0591 0.4474
C7 C 0.4308(4) 1.0176(3) 0.3285(3)
H5 H 0.3787 1.0112 0.3377
C8 C 0.4630(3) 0.99849(19) 0.2469(2)
H6 H 0.4324 0.9797 0.2018
C9 C 0.5000 0.7500 -0.0188(2)
H7 H 0.5447 0.7526 0.0188
C10 C 0.42712(16) 0.81346(15) -0.13114(18)
H8 H 0.3817 0.8110 -0.0947
H9 H 0.4232 0.8585 -0.1681
C11 C 0.56481(16) 0.82182(15) -0.13121(19)
H10 H 0.5632 0.8670 -0.1682
H11 H 0.6103 0.8249 -0.0949
C12 C 0.5000 0.7500 -0.2407(2)
H12 H 0.5027 0.7053 -0.2782
Cu1 Cu 0.497684(19) 0.914516(16) 0.006832(19)
N1 N 0.49583(12) 0.82038(11) -0.07352(13)
N2 N 0.43077(14) 0.74583(13) -0.18654(15)
O1 O 0.56571(12) 0.86166(11) 0.08817(13)
O2 O 0.64243(12) 0.87760(11) 0.20197(13)
O3 O 0.52598(11) 1.00289(10) 0.07601(11)
C1K C 0.34776(15) 0.84743(15) 0.10444(17)
C2K C 0.26196(15) 0.82610(18) 0.10449(17)
H1K H 0.2315 0.8726 0.1125
C3K C 0.24230(16) 0.7904(2) 0.01582(19)
C4K C 0.2151(2) 0.8343(3) -0.0535(2)
H2K H 0.2096 0.8867 -0.0461
C5K C 0.1962(3) 0.8016(5) -0.1329(3)
H3K H 0.1779 0.8317 -0.1787
C6K C 0.2045(3) 0.7255(5) -0.1440(3)
H4K H 0.1909 0.7034 -0.1974
C7K C 0.2324(3) 0.6808(4) -0.0785(3)
H5K H 0.2388 0.6287 -0.0877
C8K C 0.25151(19) 0.7130(3) 0.0031(2)
H6K H 0.2703 0.6824 0.0482
H7E H 0.4553 0.7474 0.0188
C10E C 0.57288(16) 0.68654(15) -0.13114(18)
H8E H 0.6183 0.6890 -0.0947
H9E H 0.5768 0.6415 -0.1681
C11E C 0.43519(16) 0.67818(15) -0.13121(19)
H10E H 0.4368 0.6330 -0.1682
H11E H 0.3897 0.6751 -0.0949
H12E H 0.4973 0.7947 -0.2782
Cu1E Cu 0.502316(19) 0.585484(16) 0.006832(19)
Cu1N Cu 0.664516(16) 0.752316(19) 0.243168(19)
Cu1H Cu 0.502316(19) 1.085484(16) -0.006832(19)
Cu1K Cu 0.335484(16) 0.747684(19) 0.243168(19)
Cu1G Cu 0.164516(16) 0.752316(19) 0.256832(19)
N1E N 0.50417(12) 0.67962(11) -0.07352(13)
N2E N 0.56923(14) 0.75417(13) -0.18654(15)
O1K O 0.38834(11) 0.81571(12) 0.16183(13)
O1E O 0.43429(12) 0.63834(11) 0.08817(13)
O2K O 0.37240(11) 0.89243(12) 0.04803(13)
O2N O 0.62760(11) 0.60757(12) 0.04803(13)
O3K O 0.24711(10) 0.77598(11) 0.17399(11)
O3H O 0.47402(11) 0.99711(10) -0.07601(11)
O3E O 0.47402(11) 0.49711(10) 0.07601(11)
O3M O 0.52598(11) 0.50289(10) -0.07601(11)
O4 O 0.2731(12) 0.9638(16) 0.265(2)
loop_
_geom_bond_atom_site_label_1
_geom_bond_atom_site_label_2
_geom_bond_site_symmetry_1
_geom_bond_site_symmetry_2
C1 C2 1_555 1_555
C2 H1 1_555 1_555
C3 C2 1_555 1_555
C4 C3 1_555 1_555
H2 C4 1_555 1_555
C5 C4 1_555 1_555
H3 C5 1_555 1_555
C6 C5 1_555 1_555
H4 C6 1_555 1_555
C7 C6 1_555 1_555
H5 C7 1_555 1_555
C8 C3 1_555 1_555
H6 C8 1_555 1_555
C9 H7 1_555 1_555
C10 H8 1_555 1_555
H9 C10 1_555 1_555
C11 H10 1_555 1_555
H11 C11 1_555 1_555
C12 H12 1_555 1_555
Cu1 N1 1_555 1_555
N1 C9 1_555 1_555
N2 C10 1_555 1_555
O1 C1 1_555 1_555
O2 C1 1_555 1_555
O3 C2 1_555 1_555
C1K C2K 1_555 1_555
C2K H1K 1_555 1_555
C3K C2K 1_555 1_555
C4K C3K 1_555 1_555
H2K C4K 1_555 1_555
C5K C4K 1_555 1_555
H3K C5K 1_555 1_555
C6K C5K 1_555 1_555
H4K C6K 1_555 1_555
C7K C6K 1_555 1_555
H5K C7K 1_555 1_555
C8K C3K 1_555 1_555
H6K C8K 1_555 1_555
H7E C9 1_555 1_555
C10E H8E 1_555 1_555
H9E C10E 1_555 1_555
C11E N2 1_555 1_555
H10E C11E 1_555 1_555
H11E C11E 1_555 1_555
H12E C12 1_555 1_555
Cu1E N1E 1_555 1_555
Cu1N O2 1_555 1_555
Cu1H O3 1_555 1_555
Cu1K O1K 1_555 1_555
Cu1G O3K 1_555 1_555
N1E C9 1_555 1_555
N2E C11 1_555 1_555
O1K C1K 1_555 1_555
O1E Cu1E 1_555 1_555
O2K Cu1 1_555 1_555
O2N Cu1E 1_555 1_555
O3K C2K 1_555 1_555
O3H Cu1 1_555 1_555
O3E Cu1E 1_555 1_555
O3M Cu1E 1_555 1_555
C7 C8 1_555 1_555
C10 N1 1_555 1_555
C11 N1 1_555 1_555
C12 N2 1_555 1_555
C12 N2E 1_555 1_555
Cu1 O1 1_555 1_555
Cu1 O3 1_555 1_555
C1K O2K 1_555 1_555
C7K C8K 1_555 1_555
C10E N1E 1_555 1_555
C10E N2E 1_555 1_555
C11E N1E 1_555 1_555
Cu1H O3H 1_555 1_555
Cu1K O3K 1_555 1_555

#END
