
#######################################################################
#
#                 Cambridge Crystallographic Data Centre
#                                CCDC 
#
#######################################################################
#
# If this CIF has been generated from an entry in the Cambridge 
# Structural Database, then it will include bibliographic, chemical, 
# crystal, experimental, refinement or atomic coordinate data resulting 
# from the CCDC's data processing and validation procedures.
#
#######################################################################

data_WEJVAJ
_symmetry_cell_setting           monoclinic
_symmetry_space_group_name_H-M   'P 21/c'
_symmetry_Int_Tables_number      14
_space_group_name_Hall           '-P 2ybc'
loop_
_symmetry_equiv_pos_site_id
_symmetry_equiv_pos_as_xyz
1 x,y,z
2 -x,1/2+y,1/2-z
3 -x,-y,-z
4 x,1/2-y,1/2+z
_cell_length_a                   31.263(7)
_cell_length_b                   11.318(2)
_cell_length_c                   20.495(4)
_cell_angle_alpha                90
_cell_angle_beta                 99.676(4)
_cell_angle_gamma                90
_cell_volume                     7148.68
loop_
_atom_site_label
_atom_site_type_symbol
_atom_site_fract_x
_atom_site_fract_y
_atom_site_fract_z
Pt1 Pt 0.999007(7) 0.20347(2) 0.256381(11)
Pt2 Pt 0.670141(8) 0.31722(2) 0.428591(12)
Pt3 Pt 0.671397(8) -0.18371(2) 0.421738(12)
Ag1 Ag 1.007510(15) -0.04904(4) 0.28218(2)
Ag2 Ag 0.658792(16) 0.06721(4) 0.39676(3)
Ag3 Ag 0.677361(15) -0.43051(4) 0.45748(3)
N1 N 1.04002(19) 0.1784(5) 0.1922(3)
H1 H 1.0468 0.2417 0.1711
N2 N 0.94787(17) 0.1701(4) 0.1858(3)
H2 H 0.9347 0.1016 0.1875
N3 N 0.96044(17) 0.2391(5) 0.3262(3)
H3 H 0.9469 0.3109 0.3175
H4 H 0.9395 0.1818 0.3251
N4 N 1.04852(18) 0.2436(5) 0.3318(3)
H5 H 1.0628 0.1757 0.3475
H6 H 1.0681 0.2929 0.3166
N5 N 0.70091(19) 0.3451(5) 0.3519(3)
H7 H 0.7233 0.2912 0.3569
N6 N 0.61277(17) 0.3448(5) 0.3695(3)
H8 H 0.5934 0.3592 0.3978
N7 N 0.6424(2) 0.2785(5) 0.5104(3)
H9 H 0.6295 0.3450 0.5242
H10 H 0.6214 0.2214 0.4999
N8 N 0.72725(19) 0.2924(5) 0.4935(3)
H11 H 0.7389 0.2200 0.4860
H12 H 0.7469 0.3499 0.4871
N9 N 0.63671(19) -0.1577(5) 0.4948(3)
H13 H 0.6170 -0.2187 0.4910
N10 N 0.72710(19) -0.1556(5) 0.4843(3)
H14 H 0.7463 -0.1274 0.4585
N11 N 0.70347(19) -0.2169(5) 0.3436(3)
H15 H 0.7243 -0.1602 0.3419
H16 H 0.7168 -0.2895 0.3488
N12 N 0.61699(19) -0.2172(5) 0.3532(3)
H17 H 0.5984 -0.2654 0.3713
H18 H 0.6028 -0.1477 0.3403
O1 O 1.04995(18) -0.0187(4) 0.2035(3)
O2 O 0.9485(2) 0.3435(5) 0.1305(3)
O3 O 0.60689(16) 0.1723(4) 0.3135(3)
O4 O 0.61622(18) 0.0329(4) 0.4745(3)
O5 O 0.73650(16) -0.3403(4) 0.5296(2)
O6 O 0.71729(18) 0.5398(4) 0.3686(3)
O7 O 0.94684(16) -0.0291(4) 0.3318(3)
O8 O 0.91185(16) -0.0669(4) 0.2299(2)
O9 O 0.71461(16) 0.0542(5) 0.3359(3)
O10 O 0.75066(16) 0.0800(4) 0.4383(3)
O11 O 0.61924(16) -0.4715(5) 0.5249(3)
O12 O 0.59259(17) -0.4163(4) 0.4219(3)
C1 C 1.0578(2) 0.0793(6) 0.1779(3)
C2 C 1.0883(3) 0.0803(6) 0.1266(4)
C3 C 1.0595(4) 0.0805(10) 0.0580(5)
H19 H 1.0403 0.0114 0.0539
H20 H 1.0778 0.0777 0.0237
H21 H 1.0419 0.1527 0.0528
C4 C 1.1176(4) 0.1899(8) 0.1353(7)
H22 H 1.0999 0.2610 0.1254
H23 H 1.1387 0.1850 0.1050
H24 H 1.1330 0.1936 0.1810
C5 C 1.1169(2) -0.0308(7) 0.1342(4)
H25 H 1.1321 -0.0367 0.1800
H26 H 1.1381 -0.0258 0.1043
H27 H 1.0986 -0.1008 0.1233
C6 C 0.9323(2) 0.2421(6) 0.1371(3)
C7 C 0.8927(2) 0.2061(6) 0.0857(4)
C8 C 0.8819(3) 0.0753(7) 0.0876(4)
H28 H 0.8745 0.0555 0.1308
H29 H 0.9072 0.0288 0.0804
H30 H 0.8573 0.0573 0.0528
C9 C 0.8550(3) 0.2813(11) 0.0981(6)
H31 H 0.8308 0.2715 0.0614
H32 H 0.8639 0.3644 0.1013
H33 H 0.8460 0.2567 0.1396
C10 C 0.9031(4) 0.2348(9) 0.0175(4)
H34 H 0.8769 0.2246 -0.0159
H35 H 0.9259 0.1815 0.0076
H36 H 0.9131 0.3167 0.0168
C11 C 0.9883(2) 0.2416(7) 0.3925(3)
H37 H 0.9943 0.1601 0.4090
H38 H 0.9735 0.2845 0.4243
C12 C 1.0301(2) 0.3029(7) 0.3861(3)
H39 H 1.0246 0.3875 0.3755
H40 H 1.0508 0.2974 0.4282
C13 C 0.7181(2) 0.4449(6) 0.3351(3)
C14 C 0.7391(3) 0.4474(6) 0.2724(4)
C15 C 0.7653(3) 0.3360(8) 0.2658(6)
H41 H 0.7867 0.3249 0.3060
H42 H 0.7802 0.3437 0.2276
H43 H 0.7458 0.2677 0.2594
C16 C 0.7691(3) 0.5553(7) 0.2741(4)
H44 H 0.7894 0.5564 0.3161
H45 H 0.7516 0.6277 0.2700
H46 H 0.7854 0.5506 0.2373
C17 C 0.7022(3) 0.4587(8) 0.2127(4)
H47 H 0.7145 0.4673 0.1720
H48 H 0.6845 0.5282 0.2185
H49 H 0.6840 0.3877 0.2095
C18 C 0.5925(2) 0.2728(6) 0.3242(3)
C19 C 0.5482(2) 0.3114(6) 0.2838(4)
C20 C 0.5408(3) 0.2506(8) 0.2172(4)
H50 H 0.5141 0.2811 0.1904
H51 H 0.5379 0.1653 0.2235
H52 H 0.5654 0.2661 0.1946
C21 C 0.5455(3) 0.4461(7) 0.2735(5)
H53 H 0.5693 0.4722 0.2514
H54 H 0.5477 0.4856 0.3165
H55 H 0.5177 0.4664 0.2460
C22 C 0.5131(3) 0.2726(10) 0.3247(5)
H56 H 0.4842 0.2881 0.2992
H57 H 0.5168 0.3173 0.3662
H58 H 0.5162 0.1880 0.3345
C23 C 0.6146(2) -0.0630(6) 0.5051(3)
C24 C 0.5825(2) -0.0720(6) 0.5546(4)
C25 C 0.5739(3) 0.0513(8) 0.5808(5)
H59 H 0.5504 0.0468 0.6068
H60 H 0.5656 0.1054 0.5435
H61 H 0.6003 0.0805 0.6089
C26 C 0.5401(2) -0.1224(8) 0.5151(5)
H62 H 0.5453 -0.2026 0.5003
H63 H 0.5303 -0.0721 0.4766
H64 H 0.5178 -0.1246 0.5434
C27 C 0.5981(3) -0.1544(9) 0.6125(5)
H65 H 0.6016 -0.2344 0.5958
H66 H 0.5768 -0.1555 0.6425
H67 H 0.6261 -0.1263 0.6364
C28 C 0.7185(3) 0.2982(8) 0.5627(4)
H68 H 0.7425 0.2603 0.5933
H69 H 0.7162 0.3815 0.5763
C29 C 0.6772(3) 0.2350(8) 0.5643(4)
H70 H 0.6681 0.2476 0.6078
H71 H 0.6815 0.1492 0.5588
C30 C 0.6710(3) -0.2150(8) 0.2817(4)
H72 H 0.6826 -0.2566 0.2459
H73 H 0.6644 -0.1325 0.2676
C31 C 0.6306(3) -0.2758(6) 0.2954(4)
H74 H 0.6073 -0.2697 0.2564
H75 H 0.6365 -0.3606 0.3050
C32 C 0.7492(2) -0.2348(6) 0.5243(3)
C33 C 0.7942(2) -0.1991(6) 0.5632(4)
C34 C 0.7953(3) -0.0681(7) 0.5836(4)
H76 H 0.7708 -0.0511 0.6063
H77 H 0.7932 -0.0184 0.5440
H78 H 0.8225 -0.0513 0.6134
C35 C 0.8276(3) -0.2183(9) 0.5163(5)
H79 H 0.8566 -0.1966 0.5393
H80 H 0.8199 -0.1688 0.4768
H81 H 0.8275 -0.3015 0.5031
C36 C 0.8061(3) -0.2755(8) 0.6240(4)
H82 H 0.7849 -0.2638 0.6536
H83 H 0.8350 -0.2535 0.6471
H84 H 0.8062 -0.3587 0.6108
C37 C 0.9124(2) -0.0385(5) 0.2886(3)
C38 C 0.8701(2) -0.0082(6) 0.3110(3)
C39 C 0.8694(2) 0.0317(6) 0.3755(4)
H85 H 0.8959 0.0423 0.4053
C40 C 0.8308(2) 0.0555(6) 0.3960(3)
H86 H 0.8307 0.0835 0.4397
C41 C 0.7916(2) 0.0391(6) 0.3534(3)
C42 C 0.7499(2) 0.0603(5) 0.3784(4)
C43 C 0.7921(2) 0.0003(6) 0.2884(4)
H87 H 0.7657 -0.0102 0.2586
C44 C 0.8310(2) -0.0225(6) 0.2680(3)
H88 H 0.8312 -0.0483 0.2240
C45 C 0.5879(2) -0.4517(6) 0.4781(4)
C46 C 0.5423(2) -0.4764(6) 0.4900(4)
C47 C 0.5349(2) -0.5394(6) 0.5457(4)
H89 H 0.5588 -0.5664 0.5772
C48 C 0.5071(2) -0.4374(6) 0.4449(4)
H90 H 0.5118 -0.3941 0.4071
Pt1A Pt 1.000993(7) 0.70347(2) 0.243619(11)
Pt1A_2 Pt 1.000993(7) -0.29653(2) 0.243619(11)
Pt2A Pt 1.329859(8) 0.81722(2) 0.071409(12)
Pt2_2 Pt 0.670141(8) -0.68278(2) 0.428591(12)
Pt2A_2 Pt 1.329859(8) -0.18278(2) 0.071409(12)
Pt3A Pt 1.328603(8) 0.31629(2) 0.078262(12)
Ag1A Ag 0.992490(15) 0.45096(4) 0.21782(2)
Ag1_2 Ag 1.007510(15) 0.95096(4) 0.28218(2)
Ag2A Ag 1.341208(16) 0.56721(4) 0.10324(3)
Ag3A Ag 1.322639(15) 0.06949(4) 0.04252(3)
Ag3_2 Ag 0.677361(15) 0.56949(4) 0.45748(3)
Ag3B Ag 0.322639(15) -0.56949(4) 0.54252(3)
Ag3A_2 Ag 1.322639(15) 1.06949(4) 0.04252(3)
N1A N 0.95998(19) 0.6784(5) 0.3078(3)
H1A H 0.9532 0.7417 0.3289
N2A N 1.05213(17) -0.3299(4) 0.3142(3)
N2A_2 N 1.05213(17) 0.6701(4) 0.3142(3)
H2A H 1.0653 -0.3984 0.3125
H2A_2 H 1.0653 0.6016 0.3125
N3A N 1.03956(17) 0.7391(5) 0.1738(3)
H3A H 1.0531 0.8109 0.1825
H4A H 1.0605 0.6818 0.1749
N4A N 0.95148(18) 0.7436(5) 0.1682(3)
H5A H 0.9372 0.6757 0.1525
H6A H 0.9319 0.7929 0.1834
N5A N 1.29909(19) 0.8451(5) 0.1481(3)
H7A H 1.2767 0.7912 0.1431
N6A N 1.38723(17) 0.8448(5) 0.1305(3)
H8A H 1.4066 0.8592 0.1022
N7A N 1.3576(2) 0.7785(5) -0.0104(3)
H9A H 1.3705 0.8450 -0.0242
H10A H 1.3786 0.7214 0.0001
N8A N 1.27275(19) 0.7924(5) 0.0065(3)
H11A H 1.2611 0.7200 0.0140
H12A H 1.2531 0.8499 0.0129
N9A N 1.36329(19) 0.3423(5) 0.0052(3)
H13A H 1.3830 0.2813 0.0090
N10A N 1.27290(19) 0.3444(5) 0.0157(3)
H14A H 1.2537 0.3726 0.0415
N11A N 1.29653(19) 0.2831(5) 0.1564(3)
H15A H 1.2757 0.3398 0.1581
H16A H 1.2832 0.2105 0.1512
N12A N 1.38301(19) 0.2828(5) 0.1468(3)
H17A H 1.4016 0.2346 0.1287
H18A H 1.3972 0.3523 0.1597
O1A O 0.95005(18) 0.4813(4) 0.2965(3)
O2A O 1.0515(2) -0.1565(5) 0.3695(3)
O3A O 1.39311(16) 0.6723(4) 0.1865(3)
O4A O 1.38378(18) 0.5329(4) 0.0255(3)
O5A O 1.26350(16) 0.1597(4) -0.0296(2)
O6A O 1.28271(18) 1.0398(4) 0.1314(3)
O6_2 O 0.71729(18) -0.4602(4) 0.3686(3)
O6A_2 O 1.28271(18) 0.0398(4) 0.1314(3)
O7A O 1.05316(16) 0.4709(4) 0.1682(3)
O8A O 1.08815(16) 0.4331(4) 0.2701(2)
O9A O 1.28539(16) 0.5542(5) 0.1641(3)
O10A O 1.24934(16) 0.5800(4) 0.0617(3)
O11B O 0.38076(16) -0.5285(5) 0.4751(3)
O11A O 1.38076(16) 0.0285(5) -0.0249(3)
O12B O 0.40741(17) -0.5837(4) 0.5781(3)
C1A C 0.9422(2) 0.5793(6) 0.3221(3)
C2A C 0.9117(3) 0.5803(6) 0.3734(4)
C3A C 0.9405(4) 0.5805(10) 0.4420(5)
H19A H 0.9597 0.5114 0.4461
H20A H 0.9222 0.5777 0.4763
H21A H 0.9581 0.6527 0.4472
C4A C 0.8824(4) 0.6899(8) 0.3647(7)
H22A H 0.9001 0.7610 0.3746
H23A H 0.8613 0.6850 0.3950
H24A H 0.8670 0.6936 0.3190
C5A C 0.8831(2) 0.4692(7) 0.3658(4)
H25A H 0.8679 0.4633 0.3200
H26A H 0.8619 0.4742 0.3957
H27A H 0.9014 0.3992 0.3767
C6A C 1.0677(2) -0.2579(6) 0.3629(3)
C7A C 1.1073(2) -0.2939(6) 0.4143(4)
C8A C 1.1181(3) -0.4247(7) 0.4124(4)
H28A H 1.1255 -0.4445 0.3692
H29A H 1.0928 -0.4712 0.4196
H30A H 1.1427 -0.4427 0.4472
C9A C 1.1450(3) -0.2187(11) 0.4019(6)
H31A H 1.1692 -0.2285 0.4386
H32A H 1.1361 -0.1356 0.3987
H33A H 1.1540 -0.2433 0.3604
C10A C 1.0969(4) -0.2652(9) 0.4825(4)
H34A H 1.1231 -0.2754 0.5159
H35A H 1.0741 -0.3185 0.4924
H36A H 1.0869 -0.1833 0.4832
C11A C 1.0117(2) 0.7416(7) 0.1075(3)
H37A H 1.0057 0.6601 0.0910
H38A H 1.0265 0.7845 0.0757
C12A C 0.9699(2) 0.8029(7) 0.1139(3)
H39A H 0.9754 0.8875 0.1245
H40A H 0.9492 0.7974 0.0718
C13A C 1.2819(2) 0.9449(6) 0.1649(3)
C14A C 1.2609(3) 0.9474(6) 0.2276(4)
C15A C 1.2347(3) 0.8360(8) 0.2342(6)
H41A H 1.2133 0.8249 0.1940
H42A H 1.2198 0.8437 0.2724
H43A H 1.2542 0.7677 0.2406
C16A C 1.2309(3) 1.0553(7) 0.2259(4)
H44A H 1.2106 1.0564 0.1839
H45A H 1.2484 1.1277 0.2300
H46A H 1.2146 1.0506 0.2627
C17A C 1.2978(3) 0.9587(8) 0.2873(4)
H47A H 1.2855 0.9673 0.3280
H48A H 1.3155 1.0282 0.2815
H49A H 1.3160 0.8877 0.2905
C18A C 1.4075(2) 0.7728(6) 0.1758(3)
C19A C 1.4518(2) 0.8114(6) 0.2162(4)
C20A C 1.4592(3) 0.7506(8) 0.2828(4)
H50A H 1.4859 0.7811 0.3096
H51A H 1.4621 0.6653 0.2765
H52A H 1.4346 0.7661 0.3054
C21A C 1.4545(3) 0.9461(7) 0.2265(5)
H53A H 1.4307 0.9722 0.2486
H54A H 1.4523 0.9856 0.1835
H55A H 1.4823 0.9664 0.2540
C22A C 1.4869(3) 0.7726(10) 0.1753(5)
H56A H 1.5158 0.7881 0.2008
H57A H 1.4832 0.8173 0.1338
H58A H 1.4838 0.6880 0.1655
C23A C 1.3854(2) 0.4370(6) -0.0051(3)
C24A C 1.4175(2) 0.4280(6) -0.0546(4)
C25A C 1.4261(3) 0.5513(8) -0.0808(5)
H59A H 1.4496 0.5468 -0.1068
H60A H 1.4344 0.6054 -0.0435
H61A H 1.3997 0.5805 -0.1089
C26A C 1.4599(2) 0.3776(8) -0.0151(5)
H62A H 1.4547 0.2974 -0.0003
H63A H 1.4697 0.4279 0.0234
H64A H 1.4822 0.3754 -0.0434
C27A C 1.4019(3) 0.3456(9) -0.1125(5)
H65A H 1.3984 0.2656 -0.0958
H66A H 1.4232 0.3445 -0.1425
H67A H 1.3739 0.3737 -0.1364
C28A C 1.2815(3) 0.7982(8) -0.0627(4)
H68A H 1.2575 0.7603 -0.0933
H69A H 1.2838 0.8815 -0.0763
C29A C 1.3228(3) 0.7350(8) -0.0643(4)
H70A H 1.3319 0.7476 -0.1078
H71A H 1.3185 0.6492 -0.0588
C30A C 1.3290(3) 0.2850(8) 0.2183(4)
H72A H 1.3174 0.2434 0.2541
H73A H 1.3356 0.3675 0.2324
C31A C 1.3694(3) 0.2242(6) 0.2046(4)
H74A H 1.3927 0.2303 0.2436
H75A H 1.3635 0.1394 0.1950
C32A C 1.2508(2) 0.2652(6) -0.0243(3)
C33A C 1.2058(2) 0.3009(6) -0.0632(4)
C34A C 1.2047(3) 0.4319(7) -0.0836(4)
H76A H 1.2292 0.4489 -0.1063
H77A H 1.2068 0.4816 -0.0440
H78A H 1.1775 0.4487 -0.1134
C35A C 1.1724(3) 0.2817(9) -0.0163(5)
H79A H 1.1434 0.3034 -0.0393
H80A H 1.1801 0.3312 0.0232
H81A H 1.1725 0.1985 -0.0031
C36A C 1.1939(3) 0.2245(8) -0.1240(4)
H82A H 1.2151 0.2362 -0.1536
H83A H 1.1650 0.2465 -0.1471
H84A H 1.1938 0.1413 -0.1108
C37A C 1.0876(2) 0.4615(5) 0.2114(3)
C38A C 1.1299(2) 0.4918(6) 0.1890(3)
C39A C 1.1306(2) 0.5317(6) 0.1245(4)
H85A H 1.1041 0.5423 0.0947
C40A C 1.1692(2) 0.5555(6) 0.1040(3)
H86A H 1.1693 0.5835 0.0603
C41A C 1.2084(2) 0.5391(6) 0.1466(3)
C42A C 1.2501(2) 0.5603(5) 0.1216(4)
C43A C 1.2079(2) 0.5003(6) 0.2116(4)
H87A H 1.2343 0.4898 0.2414
C44A C 1.1690(2) 0.4775(6) 0.2320(3)
H88A H 1.1688 0.4517 0.2760
C45B C 0.4121(2) -0.5483(6) 0.5219(4)
C46B C 0.4577(2) -0.5236(6) 0.5100(4)
C47B C 0.4651(2) -0.4606(6) 0.4543(4)
H89B H 0.4412 -0.4336 0.4228
C48B C 0.4929(2) -0.5626(6) 0.5551(4)
H90B H 0.4882 -0.6059 0.5929
O13 O 0.57371(19) 0.9593(5) 0.2672(3)
O14 O 0.78487(18) 0.4902(5) 0.4772(3)
O15 O 0.0773(2) 0.0528(5) 0.4261(3)
O16 O 0.6637(2) 0.1480(5) 0.2240(3)
O17 O 0.6234(2) 0.5457(6) 0.6606(3)
O18 O 0.9743(3) 0.9101(7) 0.4620(4)
O19 O 0.7136(4) 0.5997(10) 0.6544(6)
loop_
_geom_bond_atom_site_label_1
_geom_bond_atom_site_label_2
_geom_bond_site_symmetry_1
_geom_bond_site_symmetry_2
Pt1 Ag1 1_555 1_555
Pt2 Ag2 1_555 1_555
Pt3 Ag2 1_555 1_555
Ag1 O1 1_555 1_555
Ag2 O3 1_555 1_555
Ag3 Pt3 1_555 1_555
N1 Pt1 1_555 1_555
H1 N1 1_555 1_555
N2 Pt1 1_555 1_555
H2 N2 1_555 1_555
N3 Pt1 1_555 1_555
H3 N3 1_555 1_555
H4 N3 1_555 1_555
N4 Pt1 1_555 1_555
H5 N4 1_555 1_555
H6 N4 1_555 1_555
N5 Pt2 1_555 1_555
H7 N5 1_555 1_555
N6 Pt2 1_555 1_555
H8 N6 1_555 1_555
N7 Pt2 1_555 1_555
H9 N7 1_555 1_555
H10 N7 1_555 1_555
N8 Pt2 1_555 1_555
H11 N8 1_555 1_555
H12 N8 1_555 1_555
N9 Pt3 1_555 1_555
H13 N9 1_555 1_555
N10 Pt3 1_555 1_555
H14 N10 1_555 1_555
N11 Pt3 1_555 1_555
H15 N11 1_555 1_555
H16 N11 1_555 1_555
N12 Pt3 1_555 1_555
H17 N12 1_555 1_555
H18 N12 1_555 1_555
O1 C1 1_555 1_555
O2 C6 1_555 1_555
O3 C18 1_555 1_555
O4 Ag2 1_555 1_555
O5 Ag3 1_555 1_555
O6 C13 1_555 1_555
O7 Ag1 1_555 1_555
O8 C37 1_555 1_555
O9 Ag2 1_555 1_555
O10 C42 1_555 1_555
O11 Ag3 1_555 1_555
O12 C45 1_555 1_555
C1 N1 1_555 1_555
C2 C1 1_555 1_555
C3 C2 1_555 1_555
H19 C3 1_555 1_555
H20 C3 1_555 1_555
H21 C3 1_555 1_555
C4 C2 1_555 1_555
H22 C4 1_555 1_555
H23 C4 1_555 1_555
H24 C4 1_555 1_555
C5 C2 1_555 1_555
H25 C5 1_555 1_555
H26 C5 1_555 1_555
H27 C5 1_555 1_555
C6 N2 1_555 1_555
C7 C6 1_555 1_555
C8 C7 1_555 1_555
H28 C8 1_555 1_555
H29 C8 1_555 1_555
H30 C8 1_555 1_555
C9 C7 1_555 1_555
H31 C9 1_555 1_555
H32 C9 1_555 1_555
H33 C9 1_555 1_555
C10 C7 1_555 1_555
H34 C10 1_555 1_555
H35 C10 1_555 1_555
H36 C10 1_555 1_555
C11 N3 1_555 1_555
H37 C11 1_555 1_555
H38 C11 1_555 1_555
C12 N4 1_555 1_555
H39 C12 1_555 1_555
H40 C12 1_555 1_555
C13 N5 1_555 1_555
C14 C13 1_555 1_555
C15 C14 1_555 1_555
H41 C15 1_555 1_555
H42 C15 1_555 1_555
H43 C15 1_555 1_555
C16 C14 1_555 1_555
H44 C16 1_555 1_555
H45 C16 1_555 1_555
H46 C16 1_555 1_555
C17 C14 1_555 1_555
H47 C17 1_555 1_555
H48 C17 1_555 1_555
H49 C17 1_555 1_555
C18 N6 1_555 1_555
C19 C18 1_555 1_555
C20 C19 1_555 1_555
H50 C20 1_555 1_555
H51 C20 1_555 1_555
H52 C20 1_555 1_555
C21 C19 1_555 1_555
H53 C21 1_555 1_555
H54 C21 1_555 1_555
H55 C21 1_555 1_555
C22 C19 1_555 1_555
H56 C22 1_555 1_555
H57 C22 1_555 1_555
H58 C22 1_555 1_555
C23 N9 1_555 1_555
C24 C23 1_555 1_555
C25 C24 1_555 1_555
H59 C25 1_555 1_555
H60 C25 1_555 1_555
H61 C25 1_555 1_555
C26 C24 1_555 1_555
H62 C26 1_555 1_555
H63 C26 1_555 1_555
H64 C26 1_555 1_555
C27 C24 1_555 1_555
H65 C27 1_555 1_555
H66 C27 1_555 1_555
H67 C27 1_555 1_555
C28 N8 1_555 1_555
H68 C28 1_555 1_555
H69 C28 1_555 1_555
C29 N7 1_555 1_555
H70 C29 1_555 1_555
H71 C29 1_555 1_555
C30 N11 1_555 1_555
H72 C30 1_555 1_555
H73 C30 1_555 1_555
C31 N12 1_555 1_555
H74 C31 1_555 1_555
H75 C31 1_555 1_555
C32 N10 1_555 1_555
C33 C32 1_555 1_555
C34 C33 1_555 1_555
H76 C34 1_555 1_555
H77 C34 1_555 1_555
H78 C34 1_555 1_555
C35 C33 1_555 1_555
H79 C35 1_555 1_555
H80 C35 1_555 1_555
H81 C35 1_555 1_555
C36 C33 1_555 1_555
H82 C36 1_555 1_555
H83 C36 1_555 1_555
H84 C36 1_555 1_555
C37 O7 1_555 1_555
C38 C37 1_555 1_555
C39 C38 1_555 1_555
H85 C39 1_555 1_555
C40 C39 1_555 1_555
H86 C40 1_555 1_555
C41 C40 1_555 1_555
C42 O9 1_555 1_555
C43 C41 1_555 1_555
H87 C43 1_555 1_555
C44 C38 1_555 1_555
H88 C44 1_555 1_555
C45 O11 1_555 1_555
C46 C45 1_555 1_555
C47 C46 1_555 1_555
H89 C47 1_555 1_555
C48 C46 1_555 1_555
H90 C48 1_555 1_555
Pt1A Ag1A 1_555 1_555
Pt1A_2 Ag1 1_555 1_555
Pt2A Ag2A 1_555 1_555
Pt2_2 Ag3 1_555 1_555
Pt2A_2 Ag3A 1_555 1_555
Pt3A Ag2A 1_555 1_555
Ag1A Pt1 1_555 1_555
Ag1_2 Pt1A 1_555 1_555
Ag2A O3A 1_555 1_555
Ag3A Pt3A 1_555 1_555
Ag3_2 Pt2 1_555 1_555
Ag3B O11B 1_555 1_555
Ag3A_2 Pt2A 1_555 1_555
N1A Pt1A 1_555 1_555
H1A N1A 1_555 1_555
N2A Pt1A_2 1_555 1_555
N2A_2 Pt1A 1_555 1_555
H2A N2A 1_555 1_555
H2A_2 N2A_2 1_555 1_555
N3A Pt1A 1_555 1_555
H3A N3A 1_555 1_555
H4A N3A 1_555 1_555
N4A Pt1A 1_555 1_555
H5A N4A 1_555 1_555
H6A N4A 1_555 1_555
N5A Pt2A 1_555 1_555
H7A N5A 1_555 1_555
N6A Pt2A 1_555 1_555
H8A N6A 1_555 1_555
N7A Pt2A 1_555 1_555
H9A N7A 1_555 1_555
H10A N7A 1_555 1_555
N8A Pt2A 1_555 1_555
H11A N8A 1_555 1_555
H12A N8A 1_555 1_555
N9A Pt3A 1_555 1_555
H13A N9A 1_555 1_555
N10A Pt3A 1_555 1_555
H14A N10A 1_555 1_555
N11A Pt3A 1_555 1_555
H15A N11A 1_555 1_555
H16A N11A 1_555 1_555
N12A Pt3A 1_555 1_555
H17A N12A 1_555 1_555
H18A N12A 1_555 1_555
O1A Ag1A 1_555 1_555
O2A Ag1 1_555 1_555
O3A C18A 1_555 1_555
O4A Ag2A 1_555 1_555
O5A Ag3A 1_555 1_555
O6A Ag3A_2 1_555 1_555
O6_2 Ag3 1_555 1_555
O6A_2 Ag3A 1_555 1_555
O7A Ag1A 1_555 1_555
O8A C37A 1_555 1_555
O9A Ag2A 1_555 1_555
O10A C42A 1_555 1_555
O11B C45B 1_555 1_555
O11A Ag3A 1_555 1_555
O12B C45B 1_555 1_555
C1A N1A 1_555 1_555
C2A C1A 1_555 1_555
C3A C2A 1_555 1_555
H19A C3A 1_555 1_555
H20A C3A 1_555 1_555
H21A C3A 1_555 1_555
C4A C2A 1_555 1_555
H22A C4A 1_555 1_555
H23A C4A 1_555 1_555
H24A C4A 1_555 1_555
C5A C2A 1_555 1_555
H25A C5A 1_555 1_555
H26A C5A 1_555 1_555
H27A C5A 1_555 1_555
C6A N2A 1_555 1_555
C7A C6A 1_555 1_555
C8A C7A 1_555 1_555
H28A C8A 1_555 1_555
H29A C8A 1_555 1_555
H30A C8A 1_555 1_555
C9A C7A 1_555 1_555
H31A C9A 1_555 1_555
H32A C9A 1_555 1_555
H33A C9A 1_555 1_555
C10A C7A 1_555 1_555
H34A C10A 1_555 1_555
H35A C10A 1_555 1_555
H36A C10A 1_555 1_555
C11A N3A 1_555 1_555
H37A C11A 1_555 1_555
H38A C11A 1_555 1_555
C12A N4A 1_555 1_555
H39A C12A 1_555 1_555
H40A C12A 1_555 1_555
C13A N5A 1_555 1_555
C14A C13A 1_555 1_555
C15A C14A 1_555 1_555
H41A C15A 1_555 1_555
H42A C15A 1_555 1_555
H43A C15A 1_555 1_555
C16A C14A 1_555 1_555
H44A C16A 1_555 1_555
H45A C16A 1_555 1_555
H46A C16A 1_555 1_555
C17A C14A 1_555 1_555
H47A C17A 1_555 1_555
H48A C17A 1_555 1_555
H49A C17A 1_555 1_555
C18A N6A 1_555 1_555
C19A C18A 1_555 1_555
C20A C19A 1_555 1_555
H50A C20A 1_555 1_555
H51A C20A 1_555 1_555
H52A C20A 1_555 1_555
C21A C19A 1_555 1_555
H53A C21A 1_555 1_555
H54A C21A 1_555 1_555
H55A C21A 1_555 1_555
C22A C19A 1_555 1_555
H56A C22A 1_555 1_555
H57A C22A 1_555 1_555
H58A C22A 1_555 1_555
C23A N9A 1_555 1_555
C24A C23A 1_555 1_555
C25A C24A 1_555 1_555
H59A C25A 1_555 1_555
H60A C25A 1_555 1_555
H61A C25A 1_555 1_555
C26A C24A 1_555 1_555
H62A C26A 1_555 1_555
H63A C26A 1_555 1_555
H64A C26A 1_555 1_555
C27A C24A 1_555 1_555
H65A C27A 1_555 1_555
H66A C27A 1_555 1_555
H67A C27A 1_555 1_555
C28A N8A 1_555 1_555
H68A C28A 1_555 1_555
H69A C28A 1_555 1_555
C29A N7A 1_555 1_555
H70A C29A 1_555 1_555
H71A C29A 1_555 1_555
C30A N11A 1_555 1_555
H72A C30A 1_555 1_555
H73A C30A 1_555 1_555
C31A N12A 1_555 1_555
H74A C31A 1_555 1_555
H75A C31A 1_555 1_555
C32A N10A 1_555 1_555
C33A C32A 1_555 1_555
C34A C33A 1_555 1_555
H76A C34A 1_555 1_555
H77A C34A 1_555 1_555
H78A C34A 1_555 1_555
C35A C33A 1_555 1_555
H79A C35A 1_555 1_555
H80A C35A 1_555 1_555
H81A C35A 1_555 1_555
C36A C33A 1_555 1_555
H82A C36A 1_555 1_555
H83A C36A 1_555 1_555
H84A C36A 1_555 1_555
C37A O7A 1_555 1_555
C38A C37A 1_555 1_555
C39A C38A 1_555 1_555
H85A C39A 1_555 1_555
C40A C39A 1_555 1_555
H86A C40A 1_555 1_555
C41A C40A 1_555 1_555
C42A O9A 1_555 1_555
C43A C41A 1_555 1_555
H87A C43A 1_555 1_555
C44A C38A 1_555 1_555
H88A C44A 1_555 1_555
C45B C46B 1_555 1_555
C46B C47B 1_555 1_555
C47B C48 1_555 1_555
H89B C47B 1_555 1_555
C48B C47 1_555 1_555
H90B C48B 1_555 1_555
O2 Ag1A 1_555 1_555
O4 C23 1_555 1_555
O5 C32 1_555 1_555
O6 Ag3_2 1_555 1_555
C11 C12 1_555 1_555
C28 C29 1_555 1_555
C30 C31 1_555 1_555
C41 C42 1_555 1_555
C43 C44 1_555 1_555
O1A C1A 1_555 1_555
O2A C6A 1_555 1_555
O4A C23A 1_555 1_555
O5A C32A 1_555 1_555
O6A C13A 1_555 1_555
C11A C12A 1_555 1_555
C28A C29A 1_555 1_555
C30A C31A 1_555 1_555
C41A C42A 1_555 1_555
C43A C44A 1_555 1_555
C46B C48B 1_555 1_555

#END
