
#######################################################################
#
#                 Cambridge Crystallographic Data Centre
#                                CCDC 
#
#######################################################################
#
# If this CIF has been generated from an entry in the Cambridge 
# Structural Database, then it will include bibliographic, chemical, 
# crystal, experimental, refinement or atomic coordinate data resulting 
# from the CCDC's data processing and validation procedures.
#
#######################################################################

data_WEJVEN
_symmetry_cell_setting           orthorhombic
_symmetry_space_group_name_H-M   'P n m a'
_symmetry_Int_Tables_number      62
_space_group_name_Hall           '-P 2ac 2n'
loop_
_symmetry_equiv_pos_site_id
_symmetry_equiv_pos_as_xyz
1 x,y,z
2 1/2-x,-y,1/2+z
3 -x,1/2+y,-z
4 1/2+x,1/2-y,1/2-z
5 -x,-y,-z
6 1/2+x,y,1/2-z
7 x,1/2-y,z
8 1/2-x,1/2+y,1/2+z
_cell_length_a                   11.868(2)
_cell_length_b                   23.175(4)
_cell_length_c                   11.228(2)
_cell_angle_alpha                90
_cell_angle_beta                 90
_cell_angle_gamma                90
_cell_volume                     3088.16
loop_
_atom_site_label
_atom_site_type_symbol
_atom_site_fract_x
_atom_site_fract_y
_atom_site_fract_z
O1 O 0.31383(12) 0.33223(6) 0.81108(12)
Ag1 Ag 0.327406(17) 0.2500 0.691060(17)
C1 C 0.23175(15) 0.34025(8) 0.88186(16)
C2 C 0.24707(16) 0.38329(8) 0.98569(17)
C3 C 0.13810(18) 0.41576(9) 1.0142(2)
H1 H 0.1113 0.4356 0.9426
H2 H 0.0807 0.3883 1.0413
H3 H 0.1525 0.4441 1.0771
C4 C 0.2833(2) 0.34773(11) 1.09412(19)
H4 H 0.2944 0.3734 1.1625
H5 H 0.2247 0.3194 1.1130
H6 H 0.3540 0.3277 1.0763
C5 C 0.33749(19) 0.42773(11) 0.9558(2)
H7 H 0.3483 0.4536 1.0240
H8 H 0.4085 0.4079 0.9380
H9 H 0.3138 0.4503 0.8864
C6 C 0.40080(17) 0.29941(8) 0.44449(17)
H10 H 0.3804 0.3349 0.4811
C7 C 0.45552(17) 0.30113(8) 0.33606(17)
H11 H 0.4721 0.3371 0.2995
C8 C 0.4861(2) 0.2500 0.2810(2)
C9 C 0.5508(2) 0.2500 0.1639(2)
N1 N 0.13741(14) 0.31184(7) 0.87232(14)
H22 H 0.0849 0.3210 0.9244
N2 N 0.05167(14) 0.31248(7) 0.63501(14)
H23 H -0.0238 0.3189 0.6393
H24 H 0.0893 0.3456 0.6522
H25 H 0.0699 0.3007 0.5602
N3 N 0.3750(2) 0.2500 0.5008(2)
O2 O 0.57398(13) 0.29796(6) 0.11923(12)
Pt1 Pt 0.095660(8) 0.2500 0.754710(8)
O1F O 0.31383(12) 0.16777(6) 0.81108(12)
Ag1E Ag -0.172594(17) 0.2500 0.808940(17)
C1F C 0.23175(15) 0.15975(8) 0.88186(16)
C2F C 0.24707(16) 0.11671(8) 0.98569(17)
C3F C 0.13810(18) 0.08424(9) 1.0142(2)
H1F H 0.1113 0.0644 0.9426
H2F H 0.0807 0.1117 1.0413
H3F H 0.1525 0.0559 1.0771
C4F C 0.2833(2) 0.15227(11) 1.09412(19)
H4F H 0.2944 0.1266 1.1625
H5F H 0.2247 0.1806 1.1130
H6F H 0.3540 0.1723 1.0763
C5F C 0.33749(19) 0.07227(11) 0.9558(2)
H7F H 0.3483 0.0464 1.0240
H8F H 0.4085 0.0921 0.9380
H9F H 0.3138 0.0497 0.8864
C6F C 0.40080(17) 0.20059(8) 0.44449(17)
H10F H 0.3804 0.1651 0.4811
C7F C 0.45552(17) 0.19887(8) 0.33606(17)
H11F H 0.4721 0.1629 0.2995
N1F N 0.13741(14) 0.18816(7) 0.87232(14)
H22F H 0.0849 0.1790 0.9244
N2F N 0.05167(14) 0.18752(7) 0.63501(14)
H23F H -0.0238 0.1811 0.6393
H24F H 0.0893 0.1544 0.6522
H25F H 0.0699 0.1993 0.5602
O2F O 0.57398(13) 0.20204(6) 0.11923(12)
Pt1E Pt 0.595660(8) 0.2500 0.745290(8)
H12 H 0.454(2) 0.4757(12) 0.303(2)
H13 H 0.530(3) 0.4649(14) 0.205(3)
O3 O 0.49687(14) 0.49362(7) 0.24816(13)
H14 H 0.606(2) 0.3763(8) 0.135(2)
H15 H 0.625(4) 0.423(2) 0.043(2)
O4 O 0.62444(14) 0.41393(7) 0.12406(14)
H16 H 0.364(2) 0.4343(13) 0.4747(16)
H17 H 0.2819(16) 0.4315(14) 0.379(3)
O5 O 0.35607(13) 0.43645(7) 0.39527(14)
H18 H 0.7110(15) 0.4368(13) 0.868(3)
H19 H 0.587(4) 0.4582(19) 0.838(4)
O6 O 0.63663(13) 0.43332(7) 0.88122(14)
H20 H 0.587(2) 0.5509(11) 0.312(3)
H21 H 0.635(3) 0.6072(11) 0.299(2)
O7 O 0.63179(14) 0.57791(7) 0.35020(14)
loop_
_geom_bond_atom_site_label_1
_geom_bond_atom_site_label_2
_geom_bond_site_symmetry_1
_geom_bond_site_symmetry_2
O1 Ag1 1_555 1_555
Ag1 N3 1_555 1_555
C1 O1 1_555 1_555
C2 C1 1_555 1_555
C3 C2 1_555 1_555
H1 C3 1_555 1_555
H2 C3 1_555 1_555
H3 C3 1_555 1_555
C4 C2 1_555 1_555
H4 C4 1_555 1_555
H5 C4 1_555 1_555
H6 C4 1_555 1_555
C5 C2 1_555 1_555
H7 C5 1_555 1_555
H8 C5 1_555 1_555
H9 C5 1_555 1_555
C6 H10 1_555 1_555
C7 C6 1_555 1_555
H11 C7 1_555 1_555
C8 C7 1_555 1_555
C9 C8 1_555 1_555
H12 O3 1_555 1_555
H13 O3 1_555 1_555
H14 O4 1_555 1_555
H15 O4 1_555 1_555
H16 O5 1_555 1_555
H17 O5 1_555 1_555
H18 O6 1_555 1_555
H19 O6 1_555 1_555
H20 O7 1_555 1_555
H21 O7 1_555 1_555
N1 C1 1_555 1_555
H22 N1 1_555 1_555
N2 H23 1_555 1_555
H24 N2 1_555 1_555
H25 N2 1_555 1_555
N3 C6 1_555 1_555
O2 C9 1_555 1_555
Pt1 Ag1 1_555 1_555
O1F Ag1 1_555 1_555
Ag1E Pt1 1_555 1_555
C1F O1F 1_555 1_555
C2F C1F 1_555 1_555
C3F C2F 1_555 1_555
H1F C3F 1_555 1_555
H2F C3F 1_555 1_555
H3F C3F 1_555 1_555
C4F C2F 1_555 1_555
H4F C4F 1_555 1_555
H5F C4F 1_555 1_555
H6F C4F 1_555 1_555
C5F C2F 1_555 1_555
H7F C5F 1_555 1_555
H8F C5F 1_555 1_555
H9F C5F 1_555 1_555
C6F N3 1_555 1_555
H10F C6F 1_555 1_555
C7F C8 1_555 1_555
H11F C7F 1_555 1_555
N1F Pt1 1_555 1_555
H22F N1F 1_555 1_555
N2F Pt1 1_555 1_555
H23F N2F 1_555 1_555
H24F N2F 1_555 1_555
H25F N2F 1_555 1_555
O2F C9 1_555 1_555
Pt1E Ag1 1_555 1_555
N1 Pt1 1_555 1_555
N2 Pt1 1_555 1_555
C1F N1F 1_555 1_555
C6F C7F 1_555 1_555

#END
