
#######################################################################
#
#                 Cambridge Crystallographic Data Centre
#                                CCDC 
#
#######################################################################
#
# If this CIF has been generated from an entry in the Cambridge 
# Structural Database, then it will include bibliographic, chemical, 
# crystal, experimental, refinement or atomic coordinate data resulting 
# from the CCDC's data processing and validation procedures.
#
#######################################################################

data_WEJVIR
_symmetry_cell_setting           orthorhombic
_symmetry_space_group_name_H-M   'P 21 21 21'
_symmetry_Int_Tables_number      19
_space_group_name_Hall           'P 2ac 2ab'
loop_
_symmetry_equiv_pos_site_id
_symmetry_equiv_pos_as_xyz
1 x,y,z
2 1/2-x,-y,1/2+z
3 -x,1/2+y,1/2-z
4 1/2+x,1/2-y,-z
_cell_length_a                   11.2677(17)
_cell_length_b                   19.592(3)
_cell_length_c                   19.601(3)
_cell_angle_alpha                90
_cell_angle_beta                 90
_cell_angle_gamma                90
_cell_volume                     4327.05
loop_
_atom_site_label
_atom_site_type_symbol
_atom_site_fract_x
_atom_site_fract_y
_atom_site_fract_z
Ag1 Ag 0.48045(3) 0.495309(16) 0.845864(17)
Ag2 Ag 0.52039(3) 0.509470(17) 0.370730(16)
Pt1 Pt 0.736184(13) 0.505907(7) 0.839275(8)
Pt2 Pt 0.226924(14) 0.479639(7) 0.843934(8)
N1 N 0.7161(4) 0.41315(17) 0.88165(19)
H1 H 0.7859 0.4060 0.9049
N2 N 0.7219(3) 0.54286(17) 0.25181(17)
H2 H 0.7916 0.5616 0.2361
N3 N 0.7767(4) 0.60170(16) 0.80189(18)
H3 H 0.8464 0.6002 0.7775
H4 H 0.7172 0.6167 0.7734
N4 N 0.6988(3) 0.55845(17) 0.92780(17)
H5 H 0.6277 0.5437 0.9456
H6 H 0.7573 0.5505 0.9596
N5 N 0.2423(3) 0.57041(16) 0.89093(18)
H7 H 0.1857 0.6000 0.8817
N6 N 0.3099(3) 0.47400(18) 0.25491(16)
H8 H 0.3143 0.5085 0.2232
N7 N 0.1892(3) 0.38442(18) 0.80643(19)
H9 H 0.1199 0.3857 0.7816
H10 H 0.2494 0.3700 0.7782
N8 N 0.2652(4) 0.42676(16) 0.93177(17)
H11 H 0.3364 0.4414 0.9495
H12 H 0.2070 0.4342 0.9638
N9 N 0.4846(3) 0.49960(18) 0.73280(17)
O1 O 0.5380(3) 0.42021(15) 0.93406(15)
O2 O 0.4245(3) 0.56419(16) 0.93765(16)
O3 O 0.4817(3) 0.42335(16) 0.28648(15)
O4 O 0.5623(3) 0.59943(16) 0.29119(16)
O5 O 0.5660(3) 0.4538(2) 0.48671(16)
O6 O 0.4725(3) 0.5540(2) 0.48432(16)
C1 C 0.6345(4) 0.3893(2) 0.9228(2)
C2 C 0.6624(4) 0.3228(2) 0.9603(2)
C3 C 0.5476(5) 0.2866(2) 0.9816(3)
H13 H 0.4975 0.3183 1.0074
H14 H 0.5669 0.2471 1.0101
H15 H 0.5049 0.2713 0.9407
C4 C 0.7369(5) 0.3426(2) 1.0238(2)
H16 H 0.7527 0.3018 1.0512
H17 H 0.6927 0.3758 1.0513
H18 H 0.8122 0.3629 1.0091
C5 C 0.7356(5) 0.2735(2) 0.9161(2)
H19 H 0.7412 0.2291 0.9389
H20 H 0.8155 0.2922 0.9093
H21 H 0.6968 0.2678 0.8717
C6 C 0.4823(4) 0.4412(2) 0.6961(2)
H22 H 0.4717 0.3991 0.7192
C7 C 0.4949(5) 0.4409(3) 0.6256(2)
H23 H 0.4959 0.3990 0.6011
C8 C 0.5060(4) 0.5021(2) 0.5916(2)
C9 C 0.5071(4) 0.5620(3) 0.6298(2)
H24 H 0.5158 0.6049 0.6077
C10 C 0.4957(4) 0.5590(2) 0.7000(2)
H25 H 0.4957 0.6002 0.7255
C11 C 0.7892(5) 0.6487(2) 0.8610(2)
H26 H 0.7826 0.6966 0.8455
H27 H 0.8680 0.6425 0.8825
C12 C 0.6922(4) 0.6329(2) 0.9122(2)
H28 H 0.7039 0.6600 0.9543
H29 H 0.6135 0.6444 0.8928
C13 C 0.3234(4) 0.5921(2) 0.9330(2)
C14 C 0.2961(4) 0.6509(2) 0.9823(2)
C15 C 0.2971(5) 0.6184(3) 1.0538(2)
H30 H 0.3756 0.5988 1.0629
H31 H 0.2370 0.5823 1.0560
H32 H 0.2794 0.6534 1.0880
C16 C 0.1746(5) 0.6838(2) 0.9695(3)
H33 H 0.1128 0.6486 0.9706
H34 H 0.1746 0.7060 0.9246
H35 H 0.1588 0.7179 1.0049
C17 C 0.3942(5) 0.7055(3) 0.9769(3)
H36 H 0.4001 0.7214 0.9296
H37 H 0.4702 0.6857 0.9910
H38 H 0.3746 0.7440 1.0067
C18 C 0.2721(5) 0.3529(2) 0.9150(2)
H39 H 0.2605 0.3252 0.9567
H40 H 0.3509 0.3419 0.8956
C19 C 0.1765(5) 0.3372(2) 0.8640(2)
H41 H 0.1840 0.2895 0.8480
H42 H 0.0974 0.3428 0.8853
C20 C 0.4025(4) 0.4351(2) 0.2429(2)
C21 C 0.4204(4) 0.4058(2) 0.1702(2)
C22 C 0.3060(5) 0.4046(3) 0.1284(2)
H43 H 0.3216 0.3839 0.0838
H44 H 0.2771 0.4513 0.1221
H45 H 0.2459 0.3777 0.1526
C23 C 0.4703(5) 0.3333(2) 0.1757(2)
H46 H 0.4802 0.3141 0.1299
H47 H 0.4153 0.3048 0.2019
H48 H 0.5474 0.3347 0.1988
C24 C 0.5102(5) 0.4532(3) 0.1350(2)
H49 H 0.4768 0.4993 0.1317
H50 H 0.5274 0.4360 0.0892
H51 H 0.5836 0.4546 0.1618
C25 C 0.6412(4) 0.5919(2) 0.2464(2)
C26 C 0.6481(4) 0.6438(2) 0.1887(2)
C27 C 0.6838(5) 0.6123(2) 0.1193(2)
H52 H 0.6941 0.6487 0.0855
H53 H 0.6214 0.5810 0.1039
H54 H 0.7585 0.5871 0.1244
C28 C 0.5287(4) 0.6797(2) 0.1807(2)
H55 H 0.5337 0.7132 0.1436
H56 H 0.5084 0.7032 0.2233
H57 H 0.4672 0.6460 0.1700
C29 C 0.7421(5) 0.6963(2) 0.2099(2)
H58 H 0.7230 0.7141 0.2553
H59 H 0.7430 0.7339 0.1770
H60 H 0.8203 0.6744 0.2110
C30 C 0.5164(4) 0.5028(3) 0.5148(2)
Ag2A Ag 0.97961(3) 0.490530(17) 0.870730(16)
Ag2A_2 Ag -0.02039(3) 0.490530(17) 0.870730(16)
Pt1A Pt 0.763816(13) 0.494093(7) 0.339275(8)
Pt2A Pt 0.273076(14) 0.520361(7) 0.343934(8)
N2A N 0.7781(3) 0.45714(17) 0.75181(17)
H2A H 0.7084 0.4384 0.7361
N6A N 0.1901(3) 0.52600(18) 0.75491(16)
H8A H 0.1857 0.4915 0.7232
Cl1 Cl 0.58634(12) 0.74954(5) 0.74535(6)
O7 O 0.6564(3) 0.70392(17) 0.70408(19)
O8 O 0.6641(4) 0.79153(18) 0.78542(19)
O9 O 0.5169(4) 0.79304(19) 0.70270(18)
O10 O 0.5140(4) 0.71039(18) 0.78959(19)
loop_
_geom_bond_atom_site_label_1
_geom_bond_atom_site_label_2
_geom_bond_site_symmetry_1
_geom_bond_site_symmetry_2
Ag1 Pt1 1_555 1_555
Ag2 O3 1_555 1_555
Pt1 N1 1_555 1_555
Pt2 Ag1 1_555 1_555
Cl1 O7 1_555 1_555
N1 H1 1_555 1_555
N2 H2 1_555 1_555
N3 Pt1 1_555 1_555
H3 N3 1_555 1_555
H4 N3 1_555 1_555
N4 Pt1 1_555 1_555
H5 N4 1_555 1_555
H6 N4 1_555 1_555
N5 Pt2 1_555 1_555
H7 N5 1_555 1_555
N6 H8 1_555 1_555
N7 Pt2 1_555 1_555
H9 N7 1_555 1_555
H10 N7 1_555 1_555
N8 Pt2 1_555 1_555
H11 N8 1_555 1_555
H12 N8 1_555 1_555
N9 Ag1 1_555 1_555
O1 Ag1 1_555 1_555
O2 Ag1 1_555 1_555
O3 C20 1_555 1_555
O4 Ag2 1_555 1_555
O5 Ag2 1_555 1_555
O6 Ag2 1_555 1_555
O8 Cl1 1_555 1_555
O9 Cl1 1_555 1_555
O10 Cl1 1_555 1_555
C1 N1 1_555 1_555
C2 C1 1_555 1_555
C3 C2 1_555 1_555
H13 C3 1_555 1_555
H14 C3 1_555 1_555
H15 C3 1_555 1_555
C4 C2 1_555 1_555
H16 C4 1_555 1_555
H17 C4 1_555 1_555
H18 C4 1_555 1_555
C5 C2 1_555 1_555
H19 C5 1_555 1_555
H20 C5 1_555 1_555
H21 C5 1_555 1_555
C6 N9 1_555 1_555
H22 C6 1_555 1_555
C7 C6 1_555 1_555
H23 C7 1_555 1_555
C8 C7 1_555 1_555
C9 C8 1_555 1_555
H24 C9 1_555 1_555
C10 N9 1_555 1_555
H25 C10 1_555 1_555
C11 N3 1_555 1_555
H26 C11 1_555 1_555
H27 C11 1_555 1_555
C12 N4 1_555 1_555
H28 C12 1_555 1_555
H29 C12 1_555 1_555
C13 N5 1_555 1_555
C14 C13 1_555 1_555
C15 C14 1_555 1_555
H30 C15 1_555 1_555
H31 C15 1_555 1_555
H32 C15 1_555 1_555
C16 C14 1_555 1_555
H33 C16 1_555 1_555
H34 C16 1_555 1_555
H35 C16 1_555 1_555
C17 C14 1_555 1_555
H36 C17 1_555 1_555
H37 C17 1_555 1_555
H38 C17 1_555 1_555
C18 N8 1_555 1_555
H39 C18 1_555 1_555
H40 C18 1_555 1_555
C19 N7 1_555 1_555
H41 C19 1_555 1_555
H42 C19 1_555 1_555
C20 N6 1_555 1_555
C21 C20 1_555 1_555
C22 C21 1_555 1_555
H43 C22 1_555 1_555
H44 C22 1_555 1_555
H45 C22 1_555 1_555
C23 C21 1_555 1_555
H46 C23 1_555 1_555
H47 C23 1_555 1_555
H48 C23 1_555 1_555
C24 C21 1_555 1_555
H49 C24 1_555 1_555
H50 C24 1_555 1_555
H51 C24 1_555 1_555
C25 N2 1_555 1_555
C26 C25 1_555 1_555
C27 C26 1_555 1_555
H52 C27 1_555 1_555
H53 C27 1_555 1_555
H54 C27 1_555 1_555
C28 C26 1_555 1_555
H55 C28 1_555 1_555
H56 C28 1_555 1_555
H57 C28 1_555 1_555
C29 C26 1_555 1_555
H58 C29 1_555 1_555
H59 C29 1_555 1_555
H60 C29 1_555 1_555
C30 O5 1_555 1_555
Ag2A Pt1 1_555 1_555
Ag2A_2 Pt2 1_555 1_555
Pt1A Ag2 1_555 1_555
Pt2A Ag2 1_555 1_555
N2A Pt1 1_555 1_555
H2A N2A 1_555 1_555
N6A Pt2 1_555 1_555
H8A N6A 1_555 1_555
N2 Pt1A 1_555 1_555
N6 Pt2A 1_555 1_555
O1 C1 1_555 1_555
O2 C13 1_555 1_555
O4 C25 1_555 1_555
O6 C30 1_555 1_555
C8 C30 1_555 1_555
C9 C10 1_555 1_555
C11 C12 1_555 1_555
C18 C19 1_555 1_555

#END
