
#######################################################################
#
#                 Cambridge Crystallographic Data Centre
#                                CCDC 
#
#######################################################################
#
# If this CIF has been generated from an entry in the Cambridge 
# Structural Database, then it will include bibliographic, chemical, 
# crystal, experimental, refinement or atomic coordinate data resulting 
# from the CCDC's data processing and validation procedures.
#
#######################################################################

data_WEJWOZ
_symmetry_cell_setting           monoclinic
_symmetry_space_group_name_H-M   'P 21/n'
_symmetry_Int_Tables_number      14
_space_group_name_Hall           '-P 2yn'
loop_
_symmetry_equiv_pos_site_id
_symmetry_equiv_pos_as_xyz
1 x,y,z
2 1/2-x,1/2+y,1/2-z
3 -x,-y,-z
4 1/2+x,1/2-y,1/2+z
_cell_length_a                   6.8540(2)
_cell_length_b                   15.0426(5)
_cell_length_c                   15.7853(5)
_cell_angle_alpha                90
_cell_angle_beta                 95.700(2)
_cell_angle_gamma                90
_cell_volume                     1619.45
loop_
_atom_site_label
_atom_site_type_symbol
_atom_site_fract_x
_atom_site_fract_y
_atom_site_fract_z
C1 C 0.1395(4) 0.37610(19) 0.73481(18)
H1 H 0.1052 0.3277 0.7668
C2 C 0.1490(5) 0.4694(2) 0.6333(2)
H2 H 0.1235 0.4986 0.5814
C3 C -0.6044(5) 0.0706(2) 0.5949(2)
H3 H -0.5592 0.0517 0.6494
C4 C -0.6376(4) 0.1441(2) 0.47911(19)
H4 H -0.6209 0.1861 0.4372
C5 C -0.1085(4) 0.35044(19) 0.60613(19)
H5 H -0.1455 0.3854 0.5547
C6 C -0.2846(4) 0.3458(2) 0.6571(2)
H6 H -0.3318 0.4054 0.6662
H7 H -0.2453 0.3196 0.7123
C7 C -0.4498(4) 0.2905(2) 0.6114(2)
H8 H -0.5563 0.2847 0.6471
H9 H -0.5001 0.3199 0.5590
C8 C -0.3712(4) 0.19901(18) 0.59158(18)
H10 H -0.3157 0.1726 0.6454
C9 C -0.2079(4) 0.2062(2) 0.5341(2)
H11 H -0.2561 0.2352 0.4812
H12 H -0.1624 0.1473 0.5207
C10 C -0.0397(4) 0.2597(2) 0.5790(2)
H13 H 0.0163 0.2273 0.6287
H14 H 0.0619 0.2673 0.5410
N1 N 0.2779(4) 0.43291(16) 0.75936(15)
N2 N 0.2836(4) 0.49294(16) 0.69374(15)
N3 N 0.0530(4) 0.39723(15) 0.65669(15)
N4 N -0.7471(4) 0.03340(18) 0.54760(17)
N5 N -0.7688(4) 0.08077(17) 0.47237(16)
N6 N -0.5300(3) 0.14018(15) 0.55517(15)
O1 O 0.6044(4) 0.56967(16) 0.77017(18)
O2 O 0.2711(4) 0.66187(17) 0.74792(17)
V1 V 0.44554(8) 0.61425(3) 0.70031(3)
Ag1 Ag 0.48919(4) 0.446007(17) 0.875622(15)
F1 F 0.5810(3) 0.71904(13) 0.67711(14)
F2 F 0.4217(4) 0.59499(16) 0.58459(13)
N4A N 0.2471(4) 0.53340(18) 0.95240(17)
N5C N 0.7312(4) 0.41923(17) 0.97237(16)
Ag1A Ag -0.98919(4) -0.053993(17) 0.624378(15)
Ag1C Ag -1.01081(4) 0.053993(17) 0.375622(15)
O3 O 0.9595(5) 0.7375(3) 0.6441(2)
H15 H 0.8502 0.7233 0.6642
H16 H 1.0513 0.7071 0.6729
O4 O 0.8130(6) 0.5792(3) 0.5467(2)
H17 H 0.8697 0.6228 0.5750
H18 H 0.6995 0.5716 0.5660
loop_
_geom_bond_atom_site_label_1
_geom_bond_atom_site_label_2
_geom_bond_site_symmetry_1
_geom_bond_site_symmetry_2
C1 H1 1_555 1_555
C2 H2 1_555 1_555
C3 H3 1_555 1_555
C4 H4 1_555 1_555
C5 H5 1_555 1_555
C6 C5 1_555 1_555
H6 C6 1_555 1_555
H7 C6 1_555 1_555
C7 C6 1_555 1_555
H8 C7 1_555 1_555
H9 C7 1_555 1_555
C8 C7 1_555 1_555
H10 C8 1_555 1_555
C9 C8 1_555 1_555
H11 C9 1_555 1_555
H12 C9 1_555 1_555
C10 C5 1_555 1_555
H13 C10 1_555 1_555
H14 C10 1_555 1_555
N1 C1 1_555 1_555
N2 C2 1_555 1_555
N3 C1 1_555 1_555
N4 C3 1_555 1_555
N5 C4 1_555 1_555
N6 C3 1_555 1_555
O1 V1 1_555 1_555
O2 V1 1_555 1_555
O3 H15 1_555 1_555
H16 O3 1_555 1_555
O4 H17 1_555 1_555
H18 O4 1_555 1_555
V1 N2 1_555 1_555
Ag1 N1 1_555 1_555
F1 V1 1_555 1_555
F2 V1 1_555 1_555
N4A Ag1 1_555 1_555
N5C Ag1 1_555 1_555
Ag1A N4 1_555 1_555
Ag1C N5 1_555 1_555
C2 N3 1_555 1_555
C4 N6 1_555 1_555
C5 N3 1_555 1_555
C8 N6 1_555 1_555
C9 C10 1_555 1_555
N1 N2 1_555 1_555
N4 N5 1_555 1_555
O1 Ag1 1_555 1_555

#END
