
#######################################################################
#
#                 Cambridge Crystallographic Data Centre
#                                CCDC 
#
#######################################################################
#
# If this CIF has been generated from an entry in the Cambridge 
# Structural Database, then it will include bibliographic, chemical, 
# crystal, experimental, refinement or atomic coordinate data resulting 
# from the CCDC's data processing and validation procedures.
#
#######################################################################

data_WEJWEP
_symmetry_cell_setting           triclinic
_symmetry_space_group_name_H-M   'P -1'
_symmetry_Int_Tables_number      2
_space_group_name_Hall           '-P 1'
loop_
_symmetry_equiv_pos_site_id
_symmetry_equiv_pos_as_xyz
1 x,y,z
2 -x,-y,-z
_cell_length_a                   7.1282(7)
_cell_length_b                   10.3660(10)
_cell_length_c                   12.1661(12)
_cell_angle_alpha                81.209(11)
_cell_angle_beta                 76.684(11)
_cell_angle_gamma                80.201(11)
_cell_volume                     855.959
loop_
_atom_site_label
_atom_site_type_symbol
_atom_site_fract_x
_atom_site_fract_y
_atom_site_fract_z
C1 C 0.9553(3) 0.2874(2) -0.08801(17)
H1 H 1.0636 0.3303 -0.0934
C2 C 0.7153(3) 0.1761(2) -0.02094(16)
H2 H 0.6244 0.1267 0.0285
C3 C 0.4295(3) 0.4567(2) 0.36305(17)
H3 H 0.4828 0.5195 0.3053
C4 C 0.3964(3) 0.2783(2) 0.47738(16)
H4 H 0.4208 0.1929 0.5150
C5 C 0.8877(3) 0.2180(2) 0.12906(16)
C6 C 0.6923(3) 0.2776(2) 0.20060(15)
H5 H 0.5891 0.2269 0.1986
H6 H 0.6566 0.3688 0.1689
C7 C 0.7134(3) 0.2739(2) 0.32422(16)
C8 C 0.8724(3) 0.3569(3) 0.32627(18)
H7 H 0.8374 0.4481 0.2942
H8 H 0.8849 0.3572 0.4048
C9 C 1.0671(3) 0.2961(3) 0.2552(2)
H9 H 1.1707 0.3479 0.2569
C10 C 1.0472(3) 0.3005(3) 0.13112(18)
H10 H 1.1714 0.2647 0.0849
H11 H 1.0123 0.3918 0.0993
C11 C 0.9427(3) 0.0755(2) 0.17759(17)
H12 H 0.8426 0.0227 0.1745
H13 H 1.0667 0.0380 0.1323
C12 C 0.9611(3) 0.0718(3) 0.30232(19)
H14 H 0.9960 -0.0206 0.3343
C13 C 0.7652(3) 0.1312(2) 0.37395(17)
H15 H 0.7764 0.1281 0.4531
H16 H 0.6625 0.0798 0.3727
C14 C 1.1210(3) 0.1529(3) 0.3056(2)
H17 H 1.2460 0.1150 0.2617
H18 H 1.1341 0.1508 0.3844
N1 N 0.8766(2) 0.2802(2) -0.17306(14)
N2 N 0.7223(2) 0.20905(19) -0.13026(13)
N3 N 0.8590(2) 0.22409(19) 0.01016(13)
N4 N 0.2556(3) 0.4765(2) 0.42897(14)
N5 N 0.2358(2) 0.36078(19) 0.50287(13)
N6 N 0.5220(2) 0.33421(18) 0.38901(13)
O1 O 0.6799(2) 0.21920(19) -0.34246(12)
O2 O 0.3836(2) 0.32669(19) -0.18409(17)
F1 F 0.3363(3) 0.1335(2) -0.29583(13)
F2 F 0.5092(2) 0.03105(15) -0.13442(12)
V1 V 0.51197(5) 0.18721(4) -0.22885(3)
Ag1 Ag 0.97338(2) 0.33896(2) -0.361600(14)
N4A N 0.7444(3) 0.5235(2) -0.42897(14)
N5_2 N 1.2358(2) 0.36078(19) -0.49713(13)
Ag1A Ag 0.02662(2) 0.66104(2) 0.361600(14)
Ag1_2 Ag -0.02662(2) 0.33896(2) 0.638400(14)
O3 O 0.5645(17) 0.5292(13) -0.0094(11)
loop_
_geom_bond_atom_site_label_1
_geom_bond_atom_site_label_2
_geom_bond_site_symmetry_1
_geom_bond_site_symmetry_2
C1 H1 1_555 1_555
C2 H2 1_555 1_555
C3 H3 1_555 1_555
C4 H4 1_555 1_555
C5 C6 1_555 1_555
C6 H5 1_555 1_555
H6 C6 1_555 1_555
C7 C6 1_555 1_555
C8 C7 1_555 1_555
H7 C8 1_555 1_555
H8 C8 1_555 1_555
C9 C8 1_555 1_555
H9 C9 1_555 1_555
C10 C5 1_555 1_555
H10 C10 1_555 1_555
H11 C10 1_555 1_555
C11 C5 1_555 1_555
H12 C11 1_555 1_555
H13 C11 1_555 1_555
C12 C11 1_555 1_555
H14 C12 1_555 1_555
C13 C7 1_555 1_555
H15 C13 1_555 1_555
H16 C13 1_555 1_555
C14 C9 1_555 1_555
H17 C14 1_555 1_555
H18 C14 1_555 1_555
N1 C1 1_555 1_555
N2 C2 1_555 1_555
N3 C1 1_555 1_555
N4 C3 1_555 1_555
N5 C4 1_555 1_555
N6 C3 1_555 1_555
O1 V1 1_555 1_555
O2 V1 1_555 1_555
F1 V1 1_555 1_555
F2 V1 1_555 1_555
V1 N2 1_555 1_555
Ag1 N1 1_555 1_555
N4A Ag1 1_555 1_555
N5_2 Ag1 1_555 1_555
Ag1A N4 1_555 1_555
Ag1_2 N5 1_555 1_555
C2 N3 1_555 1_555
C4 N6 1_555 1_555
C5 N3 1_555 1_555
C7 N6 1_555 1_555
C9 C10 1_555 1_555
C12 C13 1_555 1_555
C12 C14 1_555 1_555
N1 N2 1_555 1_555
N4 N5 1_555 1_555
O1 Ag1 1_555 1_555

#END
