
#######################################################################
#
#                 Cambridge Crystallographic Data Centre
#                                CCDC 
#
#######################################################################
#
# If this CIF has been generated from an entry in the Cambridge 
# Structural Database, then it will include bibliographic, chemical, 
# crystal, experimental, refinement or atomic coordinate data resulting 
# from the CCDC's data processing and validation procedures.
#
#######################################################################

data_WEJXOY
_symmetry_cell_setting           monoclinic
_symmetry_space_group_name_H-M   'P 21/c'
_symmetry_Int_Tables_number      14
_space_group_name_Hall           '-P 2ybc'
loop_
_symmetry_equiv_pos_site_id
_symmetry_equiv_pos_as_xyz
1 x,y,z
2 -x,1/2+y,1/2-z
3 -x,-y,-z
4 x,1/2-y,1/2+z
_cell_length_a                   21.395(3)
_cell_length_b                   9.2530(10)
_cell_length_c                   17.864(2)
_cell_angle_alpha                90
_cell_angle_beta                 101.34(1)
_cell_angle_gamma                90
_cell_volume                     3467.46
loop_
_atom_site_label
_atom_site_type_symbol
_atom_site_fract_x
_atom_site_fract_y
_atom_site_fract_z
Mn1 Mn -0.2819(1) 0.1480(1) -0.0655(1)
N1 N -0.3706(1) 0.2385(3) -0.0766(2)
N2 N -0.1958(1) 0.2518(3) -0.0624(2)
N3 N -0.2899(1) -0.0277(3) 0.0213(2)
C1 C -0.3370(2) -0.0261(4) 0.0606(2)
C2 C -0.3374(2) -0.1139(4) 0.1235(2)
C3 C -0.2874(2) -0.2089(4) 0.1484(2)
C4 C -0.2401(2) -0.2146(4) 0.1055(2)
C5 C -0.2437(2) -0.1243(4) 0.0430(2)
C6 C -0.2830(2) -0.2989(4) 0.2189(2)
C7 C -0.3208(2) -0.2719(4) 0.2728(2)
C8 C -0.3154(2) -0.3590(4) 0.3364(2)
N4 N -0.2752(1) -0.4714(3) 0.3495(2)
C9 C -0.2375(2) -0.4950(4) 0.2992(2)
C10 C -0.2405(2) -0.4132(4) 0.2338(2)
Si1 Si -0.3757(1) 0.3692(1) -0.0102(1)
C11 C -0.3806(2) 0.5580(4) -0.0500(2)
C12 C -0.4443(2) 0.3419(5) 0.0394(2)
C13 C -0.3026(2) 0.3688(5) 0.0676(2)
Si2 Si -0.4342(1) 0.1857(1) -0.1448(1)
C14 C -0.4716(2) 0.0155(5) -0.1171(2)
C15 C -0.5012(2) 0.3211(5) -0.1651(3)
C16 C -0.4130(2) 0.1582(5) -0.2406(2)
Si3 Si -0.1955(1) 0.3903(1) -0.1254(1)
C17 C -0.1308(2) 0.3779(6) -0.1826(3)
C18 C -0.2710(2) 0.3937(4) -0.1989(2)
C19 C -0.1875(2) 0.5746(5) -0.0788(3)
Si4 Si -0.1291(1) 0.1953(1) 0.0000(1)
C20 C -0.0585(2) 0.3197(6) 0.0115(3)
C21 C -0.0987(2) 0.0200(5) -0.0318(2)
C22 C -0.1443(2) 0.1748(5) 0.0996(2)
H1 H -0.3722(2) 0.0383(4) 0.0440(2)
H2 H -0.3723(2) -0.1087(4) 0.1501(2)
H3 H -0.2055(2) -0.2821(4) 0.1183(2)
H4 H -0.2106(2) -0.1301(4) 0.0138(2)
H5 H -0.3503(2) -0.1926(4) 0.2659(2)
H6 H -0.3414(2) -0.3385(4) 0.3733(2)
H7 H -0.2070(2) -0.5722(4) 0.3094(2)
H8 H -0.2132(2) -0.4355(4) 0.1987(2)
H9 H -0.4173(2) 0.5661(4) -0.0906(2)
H10 H -0.3843(2) 0.6257(4) -0.0103(2)
H11 H -0.3428(2) 0.5788(4) -0.0693(2)
H12 H -0.4425(2) 0.2459(5) 0.0601(2)
H13 H -0.4419(2) 0.4109(5) 0.0800(2)
H14 H -0.4836(2) 0.3546(5) 0.0035(2)
H15 H -0.2974(2) 0.2745(5) 0.0905(2)
H16 H -0.2658(2) 0.3921(5) 0.0467(2)
H17 H -0.3074(2) 0.4390(5) 0.1057(2)
H18 H -0.4399(2) -0.0589(5) -0.1065(2)
H19 H -0.4890(2) 0.0333(5) -0.0724(2)
H20 H -0.5050(2) -0.0148(5) -0.1582(2)
H21 H -0.4853(2) 0.4116(5) -0.1799(3)
H22 H -0.5342(2) 0.2863(5) -0.2055(3)
H23 H -0.5182(2) 0.3345(5) -0.1197(3)
H24 H -0.3788(2) 0.0897(5) -0.2362(2)
H25 H -0.4494(2) 0.1224(5) -0.2759(2)
H26 H -0.3999(2) 0.2487(5) -0.2587(2)
H27 H -0.1331(2) 0.2857(6) -0.2077(3)
H28 H -0.1363(2) 0.4534(6) -0.2202(3)
H29 H -0.0899(2) 0.3880(6) -0.1494(3)
H30 H -0.2769(2) 0.3018(4) -0.2242(2)
H31 H -0.3064(2) 0.4128(4) -0.1746(2)
H32 H -0.2684(2) 0.4681(4) -0.2356(2)
H33 H -0.2197(2) 0.5859(5) -0.0487(3)
H34 H -0.1462(2) 0.5830(5) -0.0466(3)
H35 H -0.1925(2) 0.6484(5) -0.1174(3)
H36 H -0.0474(2) 0.3358(6) -0.0374(3)
H37 H -0.0693(2) 0.4101(6) 0.0320(3)
H38 H -0.0229(2) 0.2774(6) 0.0455(3)
H39 H -0.1324(2) -0.0504(5) -0.0388(2)
H40 H -0.0847(2) 0.0342(5) -0.0791(2)
H41 H -0.0637(2) -0.0138(5) 0.0063(2)
H42 H -0.1799(2) 0.1113(5) 0.0987(2)
H43 H -0.1073(2) 0.1350(5) 0.1322(2)
H44 H -0.1537(2) 0.2677(5) 0.1187(2)
N4C N -0.2752(1) -0.0286(3) -0.1505(2)
Mn1C Mn -0.2819(1) -0.6480(1) 0.4345(1)
O1 O -0.8998(2) 0.3804(5) -0.1886(3)
C23 C -0.9345(3) 0.3191(9) -0.1398(4)
C24 C -0.9627(4) 0.1871(7) -0.1758(4)
C25 C -0.9756(3) 0.2214(10) -0.2572(4)
C26 C -0.9259(4) 0.3244(11) -0.2649(4)
H45 H -0.9669(3) 0.3846(9) -0.1304(4)
H46 H -0.9069(3) 0.2966(9) -0.0920(4)
H47 H -1.0014(4) 0.1633(7) -0.1589(4)
H48 H -0.9337(4) 0.1071(7) -0.1654(4)
H49 H -1.0164(3) 0.2674(10) -0.2718(4)
H50 H -0.9749(3) 0.1361(10) -0.2877(4)
H51 H -0.8932(4) 0.2739(11) -0.2843(4)
H52 H -0.9420(4) 0.4011(11) -0.2996(4)
loop_
_geom_bond_atom_site_label_1
_geom_bond_atom_site_label_2
_geom_bond_site_symmetry_1
_geom_bond_site_symmetry_2
Mn1 N1 1_555 1_555
N1 Si1 1_555 1_555
N2 Mn1 1_555 1_555
N3 Mn1 1_555 1_555
C1 N3 1_555 1_555
C2 C1 1_555 1_555
C3 C2 1_555 1_555
C4 C3 1_555 1_555
C5 N3 1_555 1_555
C6 C3 1_555 1_555
C7 C6 1_555 1_555
C8 C7 1_555 1_555
N4 C8 1_555 1_555
C9 N4 1_555 1_555
C10 C6 1_555 1_555
Si1 C11 1_555 1_555
C11 H9 1_555 1_555
C12 Si1 1_555 1_555
C13 Si1 1_555 1_555
Si2 N1 1_555 1_555
C14 Si2 1_555 1_555
C15 Si2 1_555 1_555
C16 Si2 1_555 1_555
Si3 N2 1_555 1_555
C17 Si3 1_555 1_555
C18 Si3 1_555 1_555
C19 Si3 1_555 1_555
Si4 N2 1_555 1_555
C20 Si4 1_555 1_555
C21 Si4 1_555 1_555
C22 Si4 1_555 1_555
O1 C23 1_555 1_555
C23 C24 1_555 1_555
C24 C25 1_555 1_555
C25 C26 1_555 1_555
C26 O1 1_555 1_555
H1 C1 1_555 1_555
H2 C2 1_555 1_555
H3 C4 1_555 1_555
H4 C5 1_555 1_555
H5 C7 1_555 1_555
H6 C8 1_555 1_555
H7 C9 1_555 1_555
H8 C10 1_555 1_555
H10 C11 1_555 1_555
H11 C11 1_555 1_555
H12 C12 1_555 1_555
H13 C12 1_555 1_555
H14 C12 1_555 1_555
H15 C13 1_555 1_555
H16 C13 1_555 1_555
H17 C13 1_555 1_555
H18 C14 1_555 1_555
H19 C14 1_555 1_555
H20 C14 1_555 1_555
H21 C15 1_555 1_555
H22 C15 1_555 1_555
H23 C15 1_555 1_555
H24 C16 1_555 1_555
H25 C16 1_555 1_555
H26 C16 1_555 1_555
H27 C17 1_555 1_555
H28 C17 1_555 1_555
H29 C17 1_555 1_555
H30 C18 1_555 1_555
H31 C18 1_555 1_555
H32 C18 1_555 1_555
H33 C19 1_555 1_555
H34 C19 1_555 1_555
H35 C19 1_555 1_555
H36 C20 1_555 1_555
H37 C20 1_555 1_555
H38 C20 1_555 1_555
H39 C21 1_555 1_555
H40 C21 1_555 1_555
H41 C21 1_555 1_555
H42 C22 1_555 1_555
H43 C22 1_555 1_555
H44 C22 1_555 1_555
H45 C23 1_555 1_555
H46 C23 1_555 1_555
H47 C24 1_555 1_555
H48 C24 1_555 1_555
H49 C25 1_555 1_555
H50 C25 1_555 1_555
H51 C26 1_555 1_555
H52 C26 1_555 1_555
N4C Mn1 1_555 1_555
Mn1C N4 1_555 1_555
C4 C5 1_555 1_555
C9 C10 1_555 1_555

#END
