
#######################################################################
#
#                 Cambridge Crystallographic Data Centre
#                                CCDC 
#
#######################################################################
#
# If this CIF has been generated from an entry in the Cambridge 
# Structural Database, then it will include bibliographic, chemical, 
# crystal, experimental, refinement or atomic coordinate data resulting 
# from the CCDC's data processing and validation procedures.
#
#######################################################################

data_WEKBAR
_symmetry_cell_setting           orthorhombic
_symmetry_space_group_name_H-M   'P b c n'
_symmetry_Int_Tables_number      60
_space_group_name_Hall           '-P 2n 2ab'
loop_
_symmetry_equiv_pos_site_id
_symmetry_equiv_pos_as_xyz
1 x,y,z
2 1/2-x,1/2-y,1/2+z
3 1/2+x,1/2-y,-z
4 -x,y,1/2-z
5 -x,-y,-z
6 1/2+x,1/2+y,1/2-z
7 1/2-x,1/2+y,z
8 x,-y,1/2+z
_cell_length_a                   17.8499(18)
_cell_length_b                   13.2590(13)
_cell_length_c                   11.9339(12)
_cell_angle_alpha                90
_cell_angle_beta                 90
_cell_angle_gamma                90
_cell_volume                     2824.42
loop_
_atom_site_label
_atom_site_type_symbol
_atom_site_fract_x
_atom_site_fract_y
_atom_site_fract_z
Ni1 Ni 0.064220(17) 0.10950(2) 0.17858(3)
O1 O 0.05055(9) 0.16509(14) 0.33377(14)
N1 N 0.17611(12) 0.05175(18) 0.1974(2)
N2 N 0.0000 0.0000 0.0000
N3 N 0.05562(13) 0.0423(2) 0.0229(2)
N4 N 0.11390(11) 0.23798(17) 0.12877(19)
N5 N 0.0000 -0.0960(3) 0.2500
N6 N 0.0000 -0.0058(2) 0.2500
C1 C 0.06380(13) 0.2572(2) 0.3692(2)
C2 C 0.09135(14) 0.3345(2) 0.2990(3)
C3 C 0.11687(14) 0.3191(2) 0.1867(3)
H1 H 0.1382 0.3748 0.1516
C4 C 0.05058(16) 0.2805(3) 0.4828(3)
H2 H 0.0347 0.2301 0.5315
C5 C 0.23022(17) 0.1745(3) 0.0527(3)
H3 H 0.2609 0.1733 -0.0143
H4 H 0.2577 0.2116 0.1094
C6 C 0.08536(19) 0.4526(3) 0.4538(4)
H5 H 0.0919 0.5175 0.4818
C7 C 0.15867(16) 0.2323(2) 0.0265(3)
H6 H 0.1708 0.2997 0.0004
H7 H 0.1307 0.1980 -0.0319
C8 C 0.10003(17) 0.4324(3) 0.3445(4)
H8 H 0.1162 0.4844 0.2981
C9 C 0.06095(18) 0.3768(3) 0.5225(4)
H9 H 0.0512 0.3907 0.5974
C10 C 0.22045(17) 0.0667(3) 0.0934(3)
H10 H 0.1968 0.0283 0.0340
H11 H 0.2698 0.0381 0.1053
N7 N 0.0000 -0.1825(3) 0.2500
C11 C 0.21280(18) 0.1001(3) 0.2949(3)
H12 H 0.2164 0.1715 0.2824
H13 H 0.2621 0.0725 0.3044
H14 H 0.1837 0.0876 0.3612
C12 C 0.17183(19) -0.0580(3) 0.2187(4)
H15 H 0.1434 -0.0700 0.2856
H16 H 0.2215 -0.0846 0.2278
H17 H 0.1479 -0.0906 0.1565
Ni1C Ni -0.064220(17) 0.10950(2) 0.32142(3)
Ni1D Ni -0.064220(17) -0.10950(2) -0.17858(3)
O1C O -0.05055(9) 0.16509(14) 0.16623(14)
N1C N -0.17611(12) 0.05175(18) 0.3026(2)
N3D N -0.05562(13) -0.0423(2) -0.0229(2)
N3C N -0.05562(13) 0.0423(2) 0.4771(2)
N4C N -0.11390(11) 0.23798(17) 0.37123(19)
C1C C -0.06380(13) 0.2572(2) 0.1308(2)
C2C C -0.09135(14) 0.3345(2) 0.2010(3)
C3C C -0.11687(14) 0.3191(2) 0.3133(3)
H1C H -0.1382 0.3748 0.3484
C4C C -0.05058(16) 0.2805(3) 0.0172(3)
H2C H -0.0347 0.2301 -0.0315
C5C C -0.23022(17) 0.1745(3) 0.4473(3)
H3C H -0.2609 0.1733 0.5143
H4C H -0.2577 0.2116 0.3906
C6C C -0.08536(19) 0.4526(3) 0.0462(4)
H5C H -0.0919 0.5175 0.0182
C7C C -0.15867(16) 0.2323(2) 0.4735(3)
H6C H -0.1708 0.2997 0.4996
H7C H -0.1307 0.1980 0.5319
C8C C -0.10003(17) 0.4324(3) 0.1555(4)
H8C H -0.1162 0.4844 0.2019
C9C C -0.06095(18) 0.3768(3) -0.0225(4)
H9C H -0.0512 0.3907 -0.0974
C10C C -0.22045(17) 0.0667(3) 0.4066(3)
H10C H -0.1968 0.0283 0.4660
H11C H -0.2698 0.0381 0.3947
C11C C -0.21280(18) 0.1001(3) 0.2051(3)
H12C H -0.2164 0.1715 0.2176
H13C H -0.2621 0.0725 0.1956
H14C H -0.1837 0.0876 0.1388
C12C C -0.17183(19) -0.0580(3) 0.2813(4)
H15C H -0.1434 -0.0700 0.2144
H16C H -0.2215 -0.0846 0.2722
H17C H -0.1479 -0.0906 0.3435
loop_
_geom_bond_atom_site_label_1
_geom_bond_atom_site_label_2
_geom_bond_site_symmetry_1
_geom_bond_site_symmetry_2
Ni1 O1 1_555 1_555
O1 C1 1_555 1_555
N1 Ni1 1_555 1_555
N2 N3 1_555 1_555
N3 Ni1 1_555 1_555
N4 Ni1 1_555 1_555
N5 N6 1_555 1_555
N6 Ni1 1_555 1_555
C1 C2 1_555 1_555
C2 C3 1_555 1_555
C3 N4 1_555 1_555
H1 C3 1_555 1_555
C4 C1 1_555 1_555
H2 C4 1_555 1_555
C5 H3 1_555 1_555
H4 C5 1_555 1_555
C6 H5 1_555 1_555
C7 N4 1_555 1_555
H6 C7 1_555 1_555
H7 C7 1_555 1_555
C8 C2 1_555 1_555
H8 C8 1_555 1_555
C9 C4 1_555 1_555
H9 C9 1_555 1_555
C10 N1 1_555 1_555
H10 C10 1_555 1_555
H11 C10 1_555 1_555
N7 N5 1_555 1_555
C11 N1 1_555 1_555
H12 C11 1_555 1_555
H13 C11 1_555 1_555
H14 C11 1_555 1_555
C12 N1 1_555 1_555
H15 C12 1_555 1_555
H16 C12 1_555 1_555
H17 C12 1_555 1_555
Ni1C O1 1_555 1_555
Ni1D N3D 1_555 1_555
O1C Ni1 1_555 1_555
N1C Ni1C 1_555 1_555
N3D N2 1_555 1_555
N3C Ni1C 1_555 1_555
N4C Ni1C 1_555 1_555
C1C O1C 1_555 1_555
C2C C1C 1_555 1_555
C3C N4C 1_555 1_555
H1C C3C 1_555 1_555
C4C C1C 1_555 1_555
H2C C4C 1_555 1_555
C5C H3C 1_555 1_555
H4C C5C 1_555 1_555
C6C H5C 1_555 1_555
C7C N4C 1_555 1_555
H6C C7C 1_555 1_555
H7C C7C 1_555 1_555
C8C C2C 1_555 1_555
H8C C8C 1_555 1_555
C9C C4C 1_555 1_555
H9C C9C 1_555 1_555
C10C N1C 1_555 1_555
H10C C10C 1_555 1_555
H11C C10C 1_555 1_555
C11C N1C 1_555 1_555
H12C C11C 1_555 1_555
H13C C11C 1_555 1_555
H14C C11C 1_555 1_555
C12C N1C 1_555 1_555
H15C C12C 1_555 1_555
H16C C12C 1_555 1_555
H17C C12C 1_555 1_555
N6 Ni1C 1_555 1_555
C5 C7 1_555 1_555
C5 C10 1_555 1_555
C6 C8 1_555 1_555
C6 C9 1_555 1_555
Ni1C O1C 1_555 1_555
C2C C3C 1_555 1_555
C5C C7C 1_555 1_555
C5C C10C 1_555 1_555
C6C C8C 1_555 1_555
C6C C9C 1_555 1_555

#END
