
#######################################################################
#
#                 Cambridge Crystallographic Data Centre
#                                CCDC 
#
#######################################################################
#
# If this CIF has been generated from an entry in the Cambridge 
# Structural Database, then it will include bibliographic, chemical, 
# crystal, experimental, refinement or atomic coordinate data resulting 
# from the CCDC's data processing and validation procedures.
#
#######################################################################

data_WEKHOK
_symmetry_cell_setting           monoclinic
_symmetry_space_group_name_H-M   'P 21/n'
_symmetry_Int_Tables_number      14
_space_group_name_Hall           '-P 2yn'
loop_
_symmetry_equiv_pos_site_id
_symmetry_equiv_pos_as_xyz
1 x,y,z
2 1/2-x,1/2+y,1/2-z
3 -x,-y,-z
4 1/2+x,1/2-y,1/2+z
_cell_length_a                   9.8626(4)
_cell_length_b                   15.2498(3)
_cell_length_c                   12.7681(3)
_cell_angle_alpha                90
_cell_angle_beta                 90.309(2)
_cell_angle_gamma                90
_cell_volume                     1920.33
loop_
_atom_site_label
_atom_site_type_symbol
_atom_site_fract_x
_atom_site_fract_y
_atom_site_fract_z
Ni1 Ni 0.05068(10) 0.28444(7) 0.36438(8)
N1 N 0.0589(6) 0.2027(4) 0.4956(5)
N2 N 0.1358(9) 0.1318(5) 0.6320(6)
N3 N -0.1320(6) 0.2271(4) 0.3142(5)
N4 N -0.2777(9) 0.1405(6) 0.2358(7)
N5 N 0.1697(6) 0.1998(4) 0.2765(5)
N6 N 0.2847(9) 0.1452(6) 0.1457(6)
O1 O 0.0532(5) 0.3710(4) 0.2378(4)
O2 O -0.1473(6) 0.4365(4) 0.2531(4)
O3 O -0.2286(5) 0.6485(4) -0.4139(4)
O4 O -0.1463(5) 0.5617(4) -0.5389(4)
O5 O -0.0675(6) 0.3728(4) 0.4523(5)
C1 C -0.0395(8) 0.4200(5) 0.2042(6)
C2 C -0.0199(8) 0.4614(5) 0.0976(6)
C3 C -0.1211(8) 0.5102(6) 0.0511(6)
H1 H -0.2036 0.5175 0.0850
C4 C 0.1010(8) 0.4518(5) 0.0450(6)
H2 H 0.1703 0.4189 0.0753
C5 C -0.2389(8) 0.5887(5) -0.4794(6)
C6 C -0.3758(8) 0.5439(5) -0.4910(6)
C7 C -0.4822(8) 0.5642(6) -0.4253(6)
H3 H -0.4710 0.6072 -0.3743
C8 C -0.6042(8) 0.5217(5) -0.4343(6)
H4 H -0.3252 0.4632 -0.6102
C9 C -0.0369(11) 0.1472(8) 0.5306(8)
C10 C 0.0089(11) 0.1020(7) 0.6139(8)
C11 C 0.1627(10) 0.1910(6) 0.5592(7)
C12 C -0.1477(10) 0.1636(6) 0.2461(7)
C13 C -0.3510(11) 0.1921(6) 0.3015(8)
C14 C -0.2622(9) 0.2448(6) 0.3489(8)
C15 C 0.2140(12) 0.1164(7) 0.2989(7)
C16 C 0.2853(11) 0.0836(8) 0.2204(8)
C17 C 0.2145(10) 0.2142(7) 0.1831(7)
H5 H 0.181(7) 0.106(4) 0.671(5)
H6 H 0.193(6) 0.096(4) 0.357(5)
H7 H -0.111(8) 0.143(5) 0.498(6)
H8 H 0.247(9) 0.226(6) 0.553(7)
H9 H -0.035(8) 0.069(6) 0.657(6)
H10 H 0.327(8) 0.147(5) 0.091(6)
H11 H 0.333(10) 0.035(7) 0.212(8)
H12 H 0.202(9) 0.269(6) 0.152(7)
H13 H 0.012(11) 0.406(7) 0.490(8)
H14 H -0.062(12) 0.132(8) 0.213(9)
H15 H -0.443(9) 0.193(6) 0.302(7)
H16 H -0.096(11) 0.409(7) 0.414(8)
H17 H -0.316(10) 0.104(7) 0.201(8)
H18 H -0.276(9) 0.287(6) 0.388(7)
Ni1B Ni -0.05068(10) 0.71556(7) -0.36438(8)
Ni1_2 Ni -0.94932(10) 0.28444(7) -0.63562(8)
N1B N -0.0589(6) 0.7973(4) -0.4956(5)
N2B N -0.1358(9) 0.8682(5) -0.6320(6)
N3B N 0.1320(6) 0.7729(4) -0.3142(5)
N4B N 0.2777(9) 0.8595(6) -0.2358(7)
N5B N -0.1697(6) 0.8002(4) -0.2765(5)
N6B N -0.2847(9) 0.8548(6) -0.1457(6)
O1B O -0.0532(5) 0.6290(4) -0.2378(4)
O2B O 0.1473(6) 0.5635(4) -0.2531(4)
O3B O 0.2286(5) 0.3515(4) 0.4139(4)
O3B_2 O -0.7714(5) 0.3515(4) -0.5861(4)
O4B O -0.8537(5) 0.4383(4) -0.4611(4)
O5B O 0.0675(6) 0.6272(4) -0.4523(5)
C1B C 0.0395(8) 0.5800(5) -0.2042(6)
C2B C 0.0199(8) 0.5386(5) -0.0976(6)
C3B C 0.1211(8) 0.4898(6) -0.0511(6)
H1B H 0.2036 0.4825 -0.0850
C4B C -0.1010(8) 0.5482(5) -0.0450(6)
H2B H -0.1703 0.5811 -0.0753
C5B C -0.7611(8) 0.4113(5) -0.5206(6)
C6B C -0.6242(8) 0.4561(5) -0.5090(6)
C7B C -0.5178(8) 0.4358(6) -0.5747(6)
H3B H -0.5290 0.3928 -0.6257
C8B C -0.3958(8) 0.4783(5) -0.5657(6)
H4B H -0.6748 0.5368 -0.3898
C9B C 0.0369(11) 0.8528(8) -0.5306(8)
C10B C -0.0089(11) 0.8980(7) -0.6139(8)
C11B C -0.1627(10) 0.8090(6) -0.5592(7)
C12B C 0.1477(10) 0.8364(6) -0.2461(7)
C13B C 0.3510(11) 0.8079(6) -0.3015(8)
C14B C 0.2622(9) 0.7552(6) -0.3489(8)
C15B C -0.2140(12) 0.8836(7) -0.2989(7)
C16B C -0.2853(11) 0.9164(8) -0.2204(8)
C17B C -0.2145(10) 0.7858(7) -0.1831(7)
H5B H -0.181(7) 0.894(4) -0.671(5)
H6B H -0.193(6) 0.904(4) -0.357(5)
H7B H 0.111(8) 0.857(5) -0.498(6)
H8B H -0.247(9) 0.774(6) -0.553(7)
H9B H 0.035(8) 0.931(6) -0.657(6)
H10B H -0.327(8) 0.853(5) -0.091(6)
H11B H -0.333(10) 0.965(7) -0.212(8)
H12B H -0.202(9) 0.731(6) -0.152(7)
H13B H -0.012(11) 0.594(7) -0.490(8)
H14B H 0.062(12) 0.868(8) -0.213(9)
H15B H 0.443(9) 0.807(6) -0.302(7)
H16B H 0.096(11) 0.591(7) -0.414(8)
H17B H 0.316(10) 0.896(7) -0.201(8)
H18B H 0.276(9) 0.713(6) -0.388(7)
loop_
_geom_bond_atom_site_label_1
_geom_bond_atom_site_label_2
_geom_bond_site_symmetry_1
_geom_bond_site_symmetry_2
Ni1 N1 1_555 1_555
N1 C9 1_555 1_555
N2 C10 1_555 1_555
N3 Ni1 1_555 1_555
N4 C12 1_555 1_555
N5 Ni1 1_555 1_555
N6 C16 1_555 1_555
O1 Ni1 1_555 1_555
O2 C1 1_555 1_555
O3 C5 1_555 1_555
O4 C5 1_555 1_555
O5 Ni1 1_555 1_555
C1 O1 1_555 1_555
C2 C1 1_555 1_555
C3 C2 1_555 1_555
H1 C3 1_555 1_555
C4 C2 1_555 1_555
H2 C4 1_555 1_555
C5 C6 1_555 1_555
C6 C7 1_555 1_555
C7 H3 1_555 1_555
C8 C7 1_555 1_555
H4 C8B 1_555 1_555
C9 C10 1_555 1_555
C10 H9 1_555 1_555
C11 N1 1_555 1_555
C12 N3 1_555 1_555
C13 N4 1_555 1_555
C14 N3 1_555 1_555
C15 N5 1_555 1_555
C16 C15 1_555 1_555
C17 N5 1_555 1_555
H5 N2 1_555 1_555
H6 C15 1_555 1_555
H7 C9 1_555 1_555
H8 C11 1_555 1_555
H10 N6 1_555 1_555
H11 C16 1_555 1_555
H12 C17 1_555 1_555
H13 O5 1_555 1_555
H14 C12 1_555 1_555
H15 C13 1_555 1_555
H16 O5 1_555 1_555
H17 N4 1_555 1_555
H18 C14 1_555 1_555
Ni1B O3 1_555 1_555
Ni1_2 O3B_2 1_555 1_555
N1B Ni1B 1_555 1_555
N2B C10B 1_555 1_555
N3B Ni1B 1_555 1_555
N4B C12B 1_555 1_555
N5B Ni1B 1_555 1_555
N6B C16B 1_555 1_555
O1B Ni1B 1_555 1_555
O2B C1B 1_555 1_555
O3B Ni1 1_555 1_555
O3B_2 C5B 1_555 1_555
O4B C5B 1_555 1_555
O5B Ni1B 1_555 1_555
C1B O1B 1_555 1_555
C2B C1B 1_555 1_555
C3B C4 1_555 1_555
H1B C3B 1_555 1_555
C4B C3 1_555 1_555
H2B C4B 1_555 1_555
C5B C6B 1_555 1_555
C6B C8 1_555 1_555
C7B C6B 1_555 1_555
H3B C7B 1_555 1_555
C8B C6 1_555 1_555
H4B C8 1_555 1_555
C9B N1B 1_555 1_555
C10B C9B 1_555 1_555
C11B N1B 1_555 1_555
C12B N3B 1_555 1_555
C13B N4B 1_555 1_555
C14B N3B 1_555 1_555
C15B N5B 1_555 1_555
C16B C15B 1_555 1_555
C17B N5B 1_555 1_555
H5B N2B 1_555 1_555
H6B C15B 1_555 1_555
H7B C9B 1_555 1_555
H8B C11B 1_555 1_555
H9B C10B 1_555 1_555
H10B N6B 1_555 1_555
H11B C16B 1_555 1_555
H12B C17B 1_555 1_555
H13B O5B 1_555 1_555
H14B C12B 1_555 1_555
H15B C13B 1_555 1_555
H16B O5B 1_555 1_555
H17B N4B 1_555 1_555
H18B C14B 1_555 1_555
N2 C11 1_555 1_555
N6 C17 1_555 1_555
C13 C14 1_555 1_555
N2B C11B 1_555 1_555
N6B C17B 1_555 1_555
C2B C3B 1_555 1_555
C2B C4B 1_555 1_555
C7B C8B 1_555 1_555
C13B C14B 1_555 1_555

#END
