
#######################################################################
#
#                 Cambridge Crystallographic Data Centre
#                                CCDC 
#
#######################################################################
#
# If this CIF has been generated from an entry in the Cambridge 
# Structural Database, then it will include bibliographic, chemical, 
# crystal, experimental, refinement or atomic coordinate data resulting 
# from the CCDC's data processing and validation procedures.
#
#######################################################################

data_WEKKUU
_symmetry_cell_setting           triclinic
_symmetry_space_group_name_H-M   'P -1'
_symmetry_Int_Tables_number      2
_space_group_name_Hall           '-P 1'
loop_
_symmetry_equiv_pos_site_id
_symmetry_equiv_pos_as_xyz
1 x,y,z
2 -x,-y,-z
_cell_length_a                   10.735(2)
_cell_length_b                   12.852(3)
_cell_length_c                   14.491(3)
_cell_angle_alpha                84.60(3)
_cell_angle_beta                 74.08(3)
_cell_angle_gamma                65.93(3)
_cell_volume                     1755.06
loop_
_atom_site_label
_atom_site_type_symbol
_atom_site_fract_x
_atom_site_fract_y
_atom_site_fract_z
O1 O -0.9105(3) -0.6234(3) 0.8776(2)
O2 O -0.7607(4) -0.7910(3) 0.8156(3)
O3 O 0.8125(3) -0.5232(3) 0.0154(2)
O4 O 0.8327(3) -0.7027(3) 0.0081(3)
O5 O 0.0431(4) 0.0599(3) 0.8712(3)
O6 O -0.0523(4) 0.2083(3) 0.7869(2)
O7 O -0.9245(4) -0.6394(3) 1.0974(3)
O8 O -0.2319(3) -0.6407(3) 0.5195(3)
O9 O 0.1312(3) -0.6022(3) 0.2645(2)
O10 O -0.2917(4) -0.1389(3) 0.6026(3)
O11 O -0.8562(4) -0.8556(3) 1.0237(3)
N1 N -0.4296(4) -0.4872(3) 0.5869(3)
H1 H -0.4664 -0.4139 0.5884
N2 N 0.1879(4) -0.4476(3) 0.2495(3)
H2 H 0.1517 -0.3758 0.2628
N3 N -0.0538(4) -0.1942(3) 0.5554(3)
H3 H 0.0233 -0.2368 0.5161
N4 N -0.6950(5) -1.0083(4) 1.0785(4)
C1 C -0.7932(5) -0.6859(4) 0.8203(3)
C2 C -0.6986(5) -0.6348(4) 0.7583(3)
C3 C -0.7371(5) -0.5172(4) 0.7555(3)
H4 H -0.8240 -0.4691 0.7932
C4 C -0.6477(5) -0.4720(4) 0.6976(3)
H5 H -0.6755 -0.3933 0.6961
C5 C -0.5165(5) -0.5416(4) 0.6411(3)
C6 C -0.4796(5) -0.6590(4) 0.6420(4)
H6 H -0.3938 -0.7072 0.6031
C7 C -0.5694(5) -0.7039(4) 0.7002(4)
H7 H -0.5427 -0.7824 0.7006
C8 C -0.2956(5) -0.5375(4) 0.5332(3)
C9 C -0.2216(5) -0.4596(4) 0.4900(3)
C10 C -0.2448(5) -0.3595(4) 0.5339(3)
H8 H -0.3195 -0.3306 0.5881
C11 C -0.1571(5) -0.3022(4) 0.4975(3)
C12 C -0.0481(5) -0.3431(4) 0.4153(3)
H9 H 0.0089 -0.3034 0.3902
C13 C -0.1092(5) -0.5010(4) 0.4089(3)
H10 H -0.0916 -0.5692 0.3804
C14 C -0.0228(5) -0.4439(4) 0.3694(3)
C15 C 0.1037(5) -0.5045(4) 0.2886(3)
C16 C 0.3278(5) -0.4916(4) 0.1898(3)
C17 C 0.3849(5) -0.4116(4) 0.1543(3)
H11 H 0.3292 -0.3343 0.1656
C18 C 0.5250(5) -0.4476(4) 0.1021(3)
H12 H 0.5627 -0.3938 0.0787
C19 C 0.6087(5) -0.5611(4) 0.0844(3)
C20 C 0.5497(5) -0.6399(4) 0.1186(4)
H13 H 0.6051 -0.7171 0.1059
C21 C 0.4100(5) -0.6060(4) 0.1710(4)
H14 H 0.3722 -0.6599 0.1934
C22 C 0.7624(5) -0.5986(5) 0.0317(3)
C23 C -0.1763(5) -0.2037(4) 0.5553(4)
C24 C -0.0469(5) -0.1182(4) 0.6165(4)
C25 C -0.1177(6) -0.0014(5) 0.6119(4)
H15 H -0.1737 0.0288 0.5691
C26 C -0.1053(6) 0.0709(5) 0.6712(4)
H16 H -0.1518 0.1494 0.6671
C27 C -0.0239(5) 0.0268(4) 0.7362(4)
C28 C 0.0433(6) -0.0911(4) 0.7424(4)
H17 H 0.0950 -0.1217 0.7876
C29 C 0.0337(6) -0.1628(5) 0.6816(4)
H18 H 0.0817 -0.2413 0.6846
C30 C -0.0107(5) 0.1033(5) 0.8021(4)
C31 C -0.7909(7) -0.9587(6) 1.0292(4)
H19 H -0.8104 -1.0062 0.9959
C32 C -0.6283(8) -1.1313(6) 1.0846(5)
H20 H -0.6600 -1.1662 1.0452
H21 H -0.6531 -1.1533 1.1500
H22 H -0.5276 -1.1559 1.0625
C33 C -0.6619(7) -0.9391(6) 1.1334(5)
H23 H -0.7131 -0.8600 1.1228
H24 H -0.5623 -0.9570 1.1134
H25 H -0.6883 -0.9546 1.2004
Mn1 Mn -1.0000 -0.5000 1.0000
Mn2 Mn -0.97028(8) -0.77580(6) 0.91411(5)
H33 H -0.8886 -0.6418 1.1430
H34 H -0.9047 -0.7103 1.0924
O1_2 O -2.9105(3) -0.6234(3) 1.8776(2)
O1A O -1.0895(3) -0.3766(3) 1.1224(2)
O2_2 O -2.7607(4) -0.7910(3) 1.8156(3)
O3_2 O -1.1875(3) -0.5232(3) 1.0154(2)
O3A O -0.8125(3) -0.4768(3) 0.9846(2)
O4_2 O -1.1673(3) -0.7027(3) 1.0081(3)
O4_3 O -3.1673(3) -0.7027(3) 2.0081(3)
O5_2 O -1.9569(4) 0.0599(3) 1.8712(3)
O5_3 O -0.9569(4) -0.9401(3) 0.8712(3)
O5_4 O -2.9569(4) -0.9401(3) 1.8712(3)
O6_2 O -2.0523(4) 0.2083(3) 1.7869(2)
O6_3 O -1.0523(4) -0.7917(3) 0.7869(2)
O6_4 O -3.0523(4) -0.7917(3) 1.7869(2)
O7A O -1.0755(4) -0.3606(3) 0.9026(3)
O8_2 O -2.2319(3) -0.6407(3) 1.5195(3)
O9_2 O -1.8688(3) -0.6022(3) 1.2645(2)
O10_2 O -2.2917(4) -0.1389(3) 1.6026(3)
O11_2 O -2.8562(4) -0.8556(3) 2.0237(3)
N1_2 N -2.4296(4) -0.4872(3) 1.5869(3)
H1_2 H -2.4664 -0.4139 1.5884
N2_2 N -1.8121(4) -0.4476(3) 1.2495(3)
H2_2 H -1.8483 -0.3758 1.2628
N3_2 N -2.0538(4) -0.1942(3) 1.5554(3)
H3_2 H -1.9767 -0.2368 1.5161
N4_2 N -2.6950(5) -1.0083(4) 2.0785(4)
C1_2 C -2.7932(5) -0.6859(4) 1.8203(3)
C2_2 C -2.6986(5) -0.6348(4) 1.7583(3)
C3_2 C -2.7371(5) -0.5172(4) 1.7555(3)
H4_2 H -2.8240 -0.4691 1.7932
C4_2 C -2.6477(5) -0.4720(4) 1.6976(3)
H5_2 H -2.6755 -0.3933 1.6961
C5_2 C -2.5165(5) -0.5416(4) 1.6411(3)
C6_2 C -2.4796(5) -0.6590(4) 1.6420(4)
H6_2 H -2.3938 -0.7072 1.6031
C7_2 C -2.5694(5) -0.7039(4) 1.7002(4)
H7_2 H -2.5427 -0.7824 1.7006
C8_2 C -2.2956(5) -0.5375(4) 1.5332(3)
C9_2 C -2.2216(5) -0.4596(4) 1.4900(3)
C10_2 C -2.2448(5) -0.3595(4) 1.5339(3)
H8_2 H -2.3195 -0.3306 1.5881
C11_2 C -2.1571(5) -0.3022(4) 1.4975(3)
C12_2 C -2.0481(5) -0.3431(4) 1.4153(3)
H9_2 H -1.9911 -0.3034 1.3902
C13_2 C -2.1092(5) -0.5010(4) 1.4089(3)
H10_2 H -2.0916 -0.5692 1.3804
C14_2 C -2.0228(5) -0.4439(4) 1.3694(3)
C15_2 C -1.8963(5) -0.5045(4) 1.2886(3)
C16_2 C -1.6722(5) -0.4916(4) 1.1898(3)
C17_2 C -1.6151(5) -0.4116(4) 1.1543(3)
H11_2 H -1.6708 -0.3343 1.1656
C18_2 C -1.4750(5) -0.4476(4) 1.1021(3)
H12_2 H -1.4373 -0.3938 1.0787
C19_2 C -1.3913(5) -0.5611(4) 1.0844(3)
C20_2 C -1.4503(5) -0.6399(4) 1.1186(4)
H13_2 H -1.3949 -0.7171 1.1059
C21_2 C -1.5900(5) -0.6060(4) 1.1710(4)
H14_2 H -1.6278 -0.6599 1.1934
C22_2 C -1.2376(5) -0.5986(5) 1.0317(3)
C23_2 C -2.1763(5) -0.2037(4) 1.5553(4)
C24_2 C -2.0469(5) -0.1182(4) 1.6165(4)
C25_2 C -2.1177(6) -0.0014(5) 1.6119(4)
H15_2 H -2.1737 0.0288 1.5691
C26_2 C -2.1053(6) 0.0709(5) 1.6712(4)
H16_2 H -2.1518 0.1494 1.6671
C27_2 C -2.0239(5) 0.0268(4) 1.7362(4)
C28_2 C -1.9567(6) -0.0911(4) 1.7424(4)
H17_2 H -1.9050 -0.1217 1.7876
C29_2 C -1.9663(6) -0.1628(5) 1.6816(4)
H18_2 H -1.9183 -0.2413 1.6846
C30_2 C -2.0107(5) 0.1033(5) 1.8021(4)
C31_2 C -2.7909(7) -0.9587(6) 2.0292(4)
H19_2 H -2.8104 -1.0062 1.9959
C32_2 C -2.6283(8) -1.1313(6) 2.0846(5)
H20_2 H -2.6600 -1.1662 2.0452
H21_2 H -2.6531 -1.1533 2.1500
H22_2 H -2.5276 -1.1559 2.0625
C33_2 C -2.6619(7) -0.9391(6) 2.1334(5)
H23_2 H -2.7131 -0.8600 2.1228
H24_2 H -2.5623 -0.9570 2.1134
H25_2 H -2.6883 -0.9546 2.2004
Mn1_2 Mn 1.0000 -0.5000 0.0000
Mn1_3 Mn -3.0000 -0.5000 2.0000
Mn2_2 Mn -2.97028(8) -0.77580(6) 1.91411(5)
Mn2_3 Mn 1.02972(8) -0.77580(6) -0.08589(5)
Mn2_4 Mn 0.02972(8) 0.22420(6) 0.91411(5)
Mn2_5 Mn -1.97028(8) 0.22420(6) 1.91411(5)
H33A H -1.1114 -0.3582 0.8570
H34A H -1.0953 -0.2897 0.9076
O12 O -0.5849(5) -0.2470(4) 0.6208(4)
N5 N -0.6285(5) -0.0654(4) 0.6487(4)
C34 C -0.6132(7) -0.1495(6) 0.5949(6)
H26 H -0.6248 -0.1328 0.5332
C35 C -0.6024(8) -0.0852(6) 0.7437(5)
H27 H -0.6095 -0.1553 0.7678
H28 H -0.6710 -0.0234 0.7863
H29 H -0.5093 -0.0900 0.7395
C36 C -0.6556(10) 0.0480(6) 0.6154(6)
H30 H -0.6700 0.0536 0.5522
H31 H -0.5764 0.0660 0.6132
H32 H -0.7387 0.1006 0.6582
loop_
_geom_bond_atom_site_label_1
_geom_bond_atom_site_label_2
_geom_bond_site_symmetry_1
_geom_bond_site_symmetry_2
O1 C1 1_555 1_555
O2 C1 1_555 1_555
O3 C22 1_555 1_555
O4 C22 1_555 1_555
O5 C30 1_555 1_555
O6 C30 1_555 1_555
O7 Mn1 1_555 1_555
O8 C8 1_555 1_555
O9 C15 1_555 1_555
O10 C23 1_555 1_555
O11 C31 1_555 1_555
O12 C34 1_555 1_555
N1 H1 1_555 1_555
N2 H2 1_555 1_555
N3 H3 1_555 1_555
N4 C31 1_555 1_555
N5 C34 1_555 1_555
C1 C2 1_555 1_555
C2 C3 1_555 1_555
C3 H4 1_555 1_555
C4 C3 1_555 1_555
H5 C4 1_555 1_555
C5 N1 1_555 1_555
C6 C5 1_555 1_555
H6 C6 1_555 1_555
C7 C2 1_555 1_555
H7 C7 1_555 1_555
C8 N1 1_555 1_555
C9 C8 1_555 1_555
C10 C9 1_555 1_555
H8 C10 1_555 1_555
C11 C10 1_555 1_555
C12 C11 1_555 1_555
H9 C12 1_555 1_555
C13 C9 1_555 1_555
H10 C13 1_555 1_555
C14 C12 1_555 1_555
C15 N2 1_555 1_555
C16 N2 1_555 1_555
C17 C16 1_555 1_555
H11 C17 1_555 1_555
C18 C17 1_555 1_555
H12 C18 1_555 1_555
C19 C18 1_555 1_555
C20 C19 1_555 1_555
H13 C20 1_555 1_555
C21 C16 1_555 1_555
H14 C21 1_555 1_555
C22 C19 1_555 1_555
C23 N3 1_555 1_555
C24 N3 1_555 1_555
C25 C24 1_555 1_555
H15 C25 1_555 1_555
C26 C25 1_555 1_555
H16 C26 1_555 1_555
C27 C26 1_555 1_555
C28 C27 1_555 1_555
H17 C28 1_555 1_555
C29 C24 1_555 1_555
H18 C29 1_555 1_555
C30 C27 1_555 1_555
C31 H19 1_555 1_555
C32 N4 1_555 1_555
H20 C32 1_555 1_555
H21 C32 1_555 1_555
H22 C32 1_555 1_555
C33 N4 1_555 1_555
H23 C33 1_555 1_555
H24 C33 1_555 1_555
H25 C33 1_555 1_555
C34 H26 1_555 1_555
C35 N5 1_555 1_555
H27 C35 1_555 1_555
H28 C35 1_555 1_555
H29 C35 1_555 1_555
C36 N5 1_555 1_555
H30 C36 1_555 1_555
H31 C36 1_555 1_555
H32 C36 1_555 1_555
Mn1 O1 1_555 1_555
Mn2 O1 1_555 1_555
H33 O7 1_555 1_555
H34 O7 1_555 1_555
O1_2 C1_2 1_555 1_555
O1A Mn1 1_555 1_555
O2_2 C1_2 1_555 1_555
O3_2 Mn1 1_555 1_555
O3A Mn1 1_555 1_555
O4_2 Mn2 1_555 1_555
O4_3 Mn2_2 1_555 1_555
O5_2 C30_2 1_555 1_555
O5_3 Mn2 1_555 1_555
O5_4 Mn2_2 1_555 1_555
O6_2 C30_2 1_555 1_555
O6_3 Mn2 1_555 1_555
O6_4 Mn2_2 1_555 1_555
O7A Mn1 1_555 1_555
O8_2 C8_2 1_555 1_555
O9_2 C15_2 1_555 1_555
O10_2 C23_2 1_555 1_555
O11_2 C31_2 1_555 1_555
N1_2 H1_2 1_555 1_555
N2_2 H2_2 1_555 1_555
N3_2 H3_2 1_555 1_555
N4_2 C31_2 1_555 1_555
C1_2 C2_2 1_555 1_555
C2_2 C3_2 1_555 1_555
C3_2 H4_2 1_555 1_555
C4_2 C3_2 1_555 1_555
H5_2 C4_2 1_555 1_555
C5_2 N1_2 1_555 1_555
C6_2 C5_2 1_555 1_555
H6_2 C6_2 1_555 1_555
C7_2 C2_2 1_555 1_555
H7_2 C7_2 1_555 1_555
C8_2 N1_2 1_555 1_555
C9_2 C8_2 1_555 1_555
C10_2 C9_2 1_555 1_555
H8_2 C10_2 1_555 1_555
C11_2 C10_2 1_555 1_555
C12_2 C11_2 1_555 1_555
H9_2 C12_2 1_555 1_555
C13_2 C9_2 1_555 1_555
H10_2 C13_2 1_555 1_555
C14_2 C12_2 1_555 1_555
C15_2 N2_2 1_555 1_555
C16_2 N2_2 1_555 1_555
C17_2 C16_2 1_555 1_555
H11_2 C17_2 1_555 1_555
C18_2 C17_2 1_555 1_555
H12_2 C18_2 1_555 1_555
C19_2 C18_2 1_555 1_555
C20_2 C19_2 1_555 1_555
H13_2 C20_2 1_555 1_555
C21_2 C16_2 1_555 1_555
H14_2 C21_2 1_555 1_555
C22_2 O3_2 1_555 1_555
C23_2 N3_2 1_555 1_555
C24_2 N3_2 1_555 1_555
C25_2 C24_2 1_555 1_555
H15_2 C25_2 1_555 1_555
C26_2 C25_2 1_555 1_555
H16_2 C26_2 1_555 1_555
C27_2 C26_2 1_555 1_555
C28_2 C27_2 1_555 1_555
H17_2 C28_2 1_555 1_555
C29_2 C24_2 1_555 1_555
H18_2 C29_2 1_555 1_555
C30_2 C27_2 1_555 1_555
C31_2 H19_2 1_555 1_555
C32_2 N4_2 1_555 1_555
H20_2 C32_2 1_555 1_555
H21_2 C32_2 1_555 1_555
H22_2 C32_2 1_555 1_555
C33_2 N4_2 1_555 1_555
H23_2 C33_2 1_555 1_555
H24_2 C33_2 1_555 1_555
H25_2 C33_2 1_555 1_555
Mn1_2 O3 1_555 1_555
Mn1_3 O1_2 1_555 1_555
Mn2_2 O1_2 1_555 1_555
Mn2_3 O4 1_555 1_555
Mn2_4 O5 1_555 1_555
Mn2_5 O5_2 1_555 1_555
H33A O7A 1_555 1_555
H34A O7A 1_555 1_555
O2 Mn2 1_555 1_555
O6 Mn2_4 1_555 1_555
O11 Mn2 1_555 1_555
C4 C5 1_555 1_555
C6 C7 1_555 1_555
C11 C23 1_555 1_555
C13 C14 1_555 1_555
C14 C15 1_555 1_555
C20 C21 1_555 1_555
C28 C29 1_555 1_555
O2_2 Mn2_2 1_555 1_555
O4_2 C22_2 1_555 1_555
O6_2 Mn2_5 1_555 1_555
O11_2 Mn2_2 1_555 1_555
C4_2 C5_2 1_555 1_555
C6_2 C7_2 1_555 1_555
C11_2 C23_2 1_555 1_555
C13_2 C14_2 1_555 1_555
C14_2 C15_2 1_555 1_555
C19_2 C22_2 1_555 1_555
C20_2 C21_2 1_555 1_555
C28_2 C29_2 1_555 1_555

#END
