
#######################################################################
#
#                 Cambridge Crystallographic Data Centre
#                                CCDC 
#
#######################################################################
#
# If this CIF has been generated from an entry in the Cambridge 
# Structural Database, then it will include bibliographic, chemical, 
# crystal, experimental, refinement or atomic coordinate data resulting 
# from the CCDC's data processing and validation procedures.
#
#######################################################################

data_WEKMOQ
_symmetry_cell_setting           monoclinic
_symmetry_space_group_name_H-M   'P 21/n'
_symmetry_Int_Tables_number      14
_space_group_name_Hall           '-P 2yn'
loop_
_symmetry_equiv_pos_site_id
_symmetry_equiv_pos_as_xyz
1 x,y,z
2 1/2-x,1/2+y,1/2-z
3 -x,-y,-z
4 1/2+x,1/2-y,1/2+z
_cell_length_a                   7.3106(7)
_cell_length_b                   18.8655(17)
_cell_length_c                   10.8996(10)
_cell_angle_alpha                90
_cell_angle_beta                 106.0990(10)
_cell_angle_gamma                90
_cell_volume                     1444.3
loop_
_atom_site_label
_atom_site_type_symbol
_atom_site_fract_x
_atom_site_fract_y
_atom_site_fract_z
Zn1 Zn 0.81247(3) 0.224633(12) 0.06118(2)
O1 O 0.8210(2) 0.28961(8) 0.19912(14)
O2 O 0.5260(2) 0.33025(8) 0.11724(14)
O3 O 1.2108(2) 0.37447(8) 0.33912(14)
O4 O 1.0774(2) 0.32335(8) 0.47749(13)
O5 O 1.2484(3) 0.50280(8) -0.07498(14)
N1 N 0.9469(2) 0.28473(9) -0.04255(16)
N2 N 1.2535(2) 0.47026(9) 0.12625(16)
H1 H 1.232(3) 0.4349(10) 0.172(2)
N3 N 1.5194(2) 0.64619(9) 0.33695(16)
C1 C 1.0435(3) 0.34224(11) 0.01240(19)
H2 H 1.0655 0.3489 0.1017
C2 C 1.1122(3) 0.39217(11) -0.05633(19)
C3 C 1.0790(3) 0.38141(11) -0.1873(2)
H3 H 1.1222 0.4152 -0.2376
C4 C 0.9834(3) 0.32170(11) -0.2435(2)
H4 H 0.9624 0.3132 -0.3322
C5 C 0.9189(3) 0.27459(11) -0.1685(2)
H5 H 0.8522 0.2335 -0.2071
C6 C 1.4872(3) 0.64439(11) 0.20905(19)
H6 H 1.5258 0.6841 0.1686
C7 C 1.4020(3) 0.58860(11) 0.13374(19)
H7 H 1.3850 0.5895 0.0441
C8 C 1.3410(3) 0.53056(11) 0.19106(19)
C9 C 1.3696(3) 0.53293(11) 0.32374(19)
H8 H 1.3272 0.4950 0.3664
C10 C 1.4592(3) 0.59037(11) 0.3913(2)
H9 H 1.4796 0.5907 0.4813
C11 C 1.2118(3) 0.45959(11) -0.0030(2)
C12 C 0.6779(3) 0.32953(11) 0.20045(19)
C13 C 0.7132(3) 0.37602(12) 0.3179(2)
H10 H 0.7100 0.3463 0.3921
H11 H 0.6093 0.4113 0.3051
C14 C 0.9038(3) 0.41487(11) 0.3475(2)
H12 H 0.9097 0.4417 0.2706
H13 H 0.9090 0.4496 0.4164
C15 C 1.0767(3) 0.36743(11) 0.38765(19)
Zn1C Zn 1.31247(3) 0.275367(12) 0.56118(2)
Zn1A Zn 1.68753(3) 0.724633(12) 0.43882(2)
O4C O 0.5774(2) 0.17665(8) -0.02251(13)
N3A N 0.9806(2) 0.14619(9) 0.16305(16)
loop_
_geom_bond_atom_site_label_1
_geom_bond_atom_site_label_2
_geom_bond_site_symmetry_1
_geom_bond_site_symmetry_2
Zn1 O1 1_555 1_555
O1 C12 1_555 1_555
O2 C12 1_555 1_555
O3 C15 1_555 1_555
O4 C15 1_555 1_555
O5 C11 1_555 1_555
N1 Zn1 1_555 1_555
N2 H1 1_555 1_555
N3 C6 1_555 1_555
C1 N1 1_555 1_555
H2 C1 1_555 1_555
C2 C1 1_555 1_555
C3 C2 1_555 1_555
H3 C3 1_555 1_555
C4 C3 1_555 1_555
H4 C4 1_555 1_555
C5 N1 1_555 1_555
H5 C5 1_555 1_555
C6 H6 1_555 1_555
C7 C6 1_555 1_555
H7 C7 1_555 1_555
C8 N2 1_555 1_555
C9 C8 1_555 1_555
H8 C9 1_555 1_555
C10 N3 1_555 1_555
H9 C10 1_555 1_555
C11 N2 1_555 1_555
C12 C13 1_555 1_555
C13 H10 1_555 1_555
H11 C13 1_555 1_555
C14 C13 1_555 1_555
H12 C14 1_555 1_555
H13 C14 1_555 1_555
C15 C14 1_555 1_555
Zn1C O4 1_555 1_555
Zn1A N3 1_555 1_555
O4C Zn1 1_555 1_555
N3A Zn1 1_555 1_555
C2 C11 1_555 1_555
C4 C5 1_555 1_555
C7 C8 1_555 1_555
C9 C10 1_555 1_555

#END
