
#######################################################################
#
#                 Cambridge Crystallographic Data Centre
#                                CCDC 
#
#######################################################################
#
# If this CIF has been generated from an entry in the Cambridge 
# Structural Database, then it will include bibliographic, chemical, 
# crystal, experimental, refinement or atomic coordinate data resulting 
# from the CCDC's data processing and validation procedures.
#
#######################################################################

data_WEKMIK
_symmetry_cell_setting           monoclinic
_symmetry_space_group_name_H-M   'P 21/c'
_symmetry_Int_Tables_number      14
_space_group_name_Hall           '-P 2ybc'
loop_
_symmetry_equiv_pos_site_id
_symmetry_equiv_pos_as_xyz
1 x,y,z
2 -x,1/2+y,1/2-z
3 -x,-y,-z
4 x,1/2-y,1/2+z
_cell_length_a                   11.4026(15)
_cell_length_b                   7.6683(10)
_cell_length_c                   17.686(2)
_cell_angle_alpha                90
_cell_angle_beta                 96.380(2)
_cell_angle_gamma                90
_cell_volume                     1536.86
loop_
_atom_site_label
_atom_site_type_symbol
_atom_site_fract_x
_atom_site_fract_y
_atom_site_fract_z
Zn1 Zn 0.88045(2) 0.14034(3) 0.567941(15)
Zn2 Zn 1.0000 0.5000 0.5000
O1 O 1.00378(13) 0.2382(2) 0.51570(9)
H1 H 1.012(2) 0.198(3) 0.4731(10)
O2 O 0.85572(15) 0.2938(2) 0.65380(9)
O3 O 0.74511(15) 0.8894(2) 0.63324(10)
O4 O 0.93617(14) 0.9257(2) 0.62599(9)
N1 N 0.83974(17) 0.4903(2) 0.41640(11)
N2 N 0.25779(17) 0.6079(3) 0.01374(11)
O5 O 0.88486(14) 0.5344(2) 0.58677(9)
C1 C 0.8494(2) 0.8533(3) 0.65395(13)
C2 C 0.8767(2) 0.7323(3) 0.72032(13)
H2 H 0.8914 0.7857 0.7689
C3 C 0.3249(2) 0.5080(3) 0.13903(14)
H3 H 0.3073 0.4508 0.1841
C4 C 0.8826(2) 0.5603(3) 0.71904(13)
H4 H 0.8939 0.4998 0.7661
C5 C 0.7299(2) 0.4180(3) 0.29709(14)
H5 H 0.7274 0.3613 0.2492
C6 C 0.2394(2) 0.5289(3) 0.07861(14)
H6 H 0.1628 0.4845 0.0833
C7 C 0.8725(2) 0.4566(3) 0.64747(13)
C8 C 0.6426(2) 0.5930(3) 0.38674(15)
H7 H 0.5775 0.6558 0.4022
C9 C 0.3672(2) 0.6685(3) 0.00833(15)
H8 H 0.3825 0.7248 -0.0374
C10 C 0.7460(2) 0.5811(3) 0.43404(14)
H9 H 0.7516 0.6399 0.4816
C11 C 0.6339(2) 0.5126(3) 0.31623(14)
C12 C 0.4576(2) 0.6528(4) 0.06576(15)
H10 H 0.5337 0.6970 0.0594
C13 C 0.4374(2) 0.5721(3) 0.13311(14)
O6 O 0.42607(17) 0.5229(4) 0.29286(11)
C14 C 0.8295(2) 0.4079(3) 0.34943(14)
H11 H 0.8939 0.3389 0.3370
C15 C 0.5195(2) 0.5286(4) 0.26595(15)
N3 N 0.53047(18) 0.5547(3) 0.19083(12)
H12 H 0.6011(17) 0.580(4) 0.1806(15)
Zn1B Zn 1.11955(2) 0.85966(3) 0.432059(15)
Zn1_2 Zn 0.88045(2) 1.14034(3) 0.567941(15)
Zn1A Zn 0.11955(2) 0.64034(3) -0.067941(15)
Zn1C Zn 1.88045(2) 0.35966(3) 1.067941(15)
Zn1B_2 Zn 1.11955(2) -0.14034(3) 0.432059(15)
O1B O 0.99622(13) 0.7618(2) 0.48430(9)
H1B H 0.988(2) 0.802(3) 0.5269(10)
O2B O 1.14428(15) 0.7062(2) 0.34620(9)
O3B O 1.25489(15) 0.1106(2) 0.36676(10)
O4B O 1.06383(14) 0.0743(2) 0.37401(9)
O4_2 O 0.93617(14) -0.0743(2) 0.62599(9)
O4B_2 O 1.06383(14) 1.0743(2) 0.37401(9)
N1B N 1.16026(17) 0.5097(2) 0.58360(11)
N2B N 1.74221(17) 0.3921(3) 0.98626(11)
N2A N 0.74221(17) 0.1079(3) 0.48626(11)
N2C N 1.25779(17) 0.8921(3) 0.51374(11)
O5B O 1.11514(14) 0.4656(2) 0.41323(9)
C1B C 1.1506(2) 0.1467(3) 0.34605(13)
C2B C 1.1233(2) 0.2677(3) 0.27968(13)
H2B H 1.1086 0.2143 0.2311
C3B C 1.6751(2) 0.4920(3) 0.86097(14)
H3B H 1.6927 0.5492 0.8159
C4B C 1.1174(2) 0.4397(3) 0.28096(13)
H4B H 1.1061 0.5002 0.2339
C5B C 1.2701(2) 0.5820(3) 0.70291(14)
H5B H 1.2726 0.6387 0.7508
C6B C 1.7606(2) 0.4711(3) 0.92139(14)
H6B H 1.8372 0.5155 0.9167
C7B C 1.1275(2) 0.5434(3) 0.35253(13)
C8B C 1.3574(2) 0.4070(3) 0.61326(15)
H7B H 1.4225 0.3442 0.5978
C9B C 1.6328(2) 0.3315(3) 0.99167(15)
H8B H 1.6175 0.2752 1.0374
C10B C 1.2540(2) 0.4189(3) 0.56596(14)
H9B H 1.2484 0.3601 0.5184
C11B C 1.3661(2) 0.4874(3) 0.68377(14)
C12B C 1.5424(2) 0.3472(4) 0.93424(15)
H10B H 1.4663 0.3030 0.9406
C13B C 1.5626(2) 0.4279(3) 0.86689(14)
O6B O 1.57393(17) 0.4771(4) 0.70714(11)
C14B C 1.1705(2) 0.5921(3) 0.65057(14)
H11B H 1.1061 0.6611 0.6630
C15B C 1.4805(2) 0.4714(4) 0.73405(15)
N3B N 1.46953(18) 0.4453(3) 0.80917(12)
H12B H 1.3989(17) 0.420(4) 0.8194(15)
loop_
_geom_bond_atom_site_label_1
_geom_bond_atom_site_label_2
_geom_bond_site_symmetry_1
_geom_bond_site_symmetry_2
Zn1 O1 1_555 1_555
Zn2 O1 1_555 1_555
O1 H1 1_555 1_555
O2 Zn1 1_555 1_555
O3 C1 1_555 1_555
O4 C1 1_555 1_555
N1 Zn2 1_555 1_555
N2 C6 1_555 1_555
O5 Zn2 1_555 1_555
C1 C2 1_555 1_555
C2 H2 1_555 1_555
C3 H3 1_555 1_555
C4 C2 1_555 1_555
H4 C4 1_555 1_555
C5 H5 1_555 1_555
C6 C3 1_555 1_555
H6 C6 1_555 1_555
C7 O2 1_555 1_555
C8 H7 1_555 1_555
C9 N2 1_555 1_555
H8 C9 1_555 1_555
C10 N1 1_555 1_555
H9 C10 1_555 1_555
C11 C5 1_555 1_555
C12 C9 1_555 1_555
H10 C12 1_555 1_555
C13 C3 1_555 1_555
O6 C15 1_555 1_555
C14 N1 1_555 1_555
H11 C14 1_555 1_555
C15 C11 1_555 1_555
N3 C13 1_555 1_555
H12 N3 1_555 1_555
Zn1B O1B 1_555 1_555
Zn1_2 O4 1_555 1_555
Zn1A N2 1_555 1_555
Zn1C N2B 1_555 1_555
Zn1B_2 O4B 1_555 1_555
O1B Zn2 1_555 1_555
H1B O1B 1_555 1_555
O2B Zn1B 1_555 1_555
O3B C1B 1_555 1_555
O4B C1B 1_555 1_555
O4_2 Zn1 1_555 1_555
O4B_2 Zn1B 1_555 1_555
N1B Zn2 1_555 1_555
N2B C6B 1_555 1_555
N2A Zn1 1_555 1_555
N2C Zn1B 1_555 1_555
O5B Zn2 1_555 1_555
C1B C2B 1_555 1_555
C2B H2B 1_555 1_555
C3B H3B 1_555 1_555
C4B C2B 1_555 1_555
H4B C4B 1_555 1_555
C5B H5B 1_555 1_555
C6B C3B 1_555 1_555
H6B C6B 1_555 1_555
C7B O2B 1_555 1_555
C8B H7B 1_555 1_555
C9B N2B 1_555 1_555
H8B C9B 1_555 1_555
C10B N1B 1_555 1_555
H9B C10B 1_555 1_555
C11B C5B 1_555 1_555
C12B C9B 1_555 1_555
H10B C12B 1_555 1_555
C13B C3B 1_555 1_555
O6B C15B 1_555 1_555
C14B N1B 1_555 1_555
H11B C14B 1_555 1_555
C15B C11B 1_555 1_555
N3B C13B 1_555 1_555
H12B N3B 1_555 1_555
O5 C7 1_555 1_555
C4 C7 1_555 1_555
C5 C14 1_555 1_555
C8 C10 1_555 1_555
C8 C11 1_555 1_555
C12 C13 1_555 1_555
C15 N3 1_555 1_555
O5B C7B 1_555 1_555
C4B C7B 1_555 1_555
C5B C14B 1_555 1_555
C8B C10B 1_555 1_555
C8B C11B 1_555 1_555
C12B C13B 1_555 1_555
C15B N3B 1_555 1_555

#END
