
#######################################################################
#
#                 Cambridge Crystallographic Data Centre
#                                CCDC 
#
#######################################################################
#
# If this CIF has been generated from an entry in the Cambridge 
# Structural Database, then it will include bibliographic, chemical, 
# crystal, experimental, refinement or atomic coordinate data resulting 
# from the CCDC's data processing and validation procedures.
#
#######################################################################

data_WEKPOT
_symmetry_cell_setting           monoclinic
_symmetry_space_group_name_H-M   'C 2'
_symmetry_Int_Tables_number      5
_space_group_name_Hall           'C 2y'
loop_
_symmetry_equiv_pos_site_id
_symmetry_equiv_pos_as_xyz
1 x,y,z
2 -x,y,-z
3 1/2+x,1/2+y,z
4 1/2-x,1/2+y,-z
_cell_length_a                   25.6810(15)
_cell_length_b                   12.3916(7)
_cell_length_c                   17.8922(10)
_cell_angle_alpha                90
_cell_angle_beta                 133.4980(10)
_cell_angle_gamma                90
_cell_volume                     4130.28
loop_
_atom_site_label
_atom_site_type_symbol
_atom_site_fract_x
_atom_site_fract_y
_atom_site_fract_z
C1 C 0.6013(2) -0.0179(3) 0.1452(3)
H1 H 0.5534 -0.0495 0.0882
H2 H 0.6354 -0.0496 0.1427
C2 C 0.5978(2) 0.1021(3) 0.1298(3)
C3 C 0.5909(2) 0.1728(3) 0.1832(3)
H3 H 0.5904 0.1437 0.2319
C4 C 0.5855(2) 0.3217(4) 0.1006(3)
H4 H 0.5815 0.3977 0.0907
C5 C 0.5918(2) 0.2580(4) 0.0443(3)
H5 H 0.5918 0.2896 -0.0041
C6 C 0.5981(2) 0.1469(4) 0.0585(3)
H6 H 0.6025 0.1019 0.0202
C7 C 0.7026(2) -0.0412(3) 0.3271(3)
H7 H 0.7202 0.0211 0.3150
H8 H 0.7233 -0.1075 0.3254
C8 C 0.7289(2) -0.0303(3) 0.4327(3)
C9 C 0.7937(2) -0.0788(3) 0.5169(3)
H9 H 0.8165 -0.1262 0.5051
C10 C 0.7931(2) 0.0045(4) 0.6314(3)
H10 H 0.8160 0.0179 0.7005
C11 C 0.7278(2) 0.0538(4) 0.5526(3)
H11 H 0.7056 0.0983 0.5672
C12 C 0.6955(2) 0.0365(4) 0.4517(3)
H12 H 0.6511 0.0701 0.3962
C13 C 0.5923(2) -0.1483(3) 0.2398(3)
H13 H 0.6119 -0.1597 0.3106
C14 C 0.6124(3) -0.2467(4) 0.2154(4)
H14 H 0.5949 -0.2390 0.1467
H15 H 0.5907 -0.3107 0.2168
H16 H 0.6648 -0.2545 0.2666
C15 C 0.5111(2) -0.1290(4) 0.1690(3)
C16 C 0.4602(3) -0.1926(4) 0.0828(3)
H17 H 0.4749 -0.2513 0.0667
C17 C 0.3875(3) -0.1696(6) 0.0201(4)
H18 H 0.3532 -0.2118 -0.0401
C18 C 0.3642(3) -0.0886(6) 0.0423(4)
H19 H 0.3144 -0.0757 -0.0005
C19 C 0.4155(3) -0.0238(5) 0.1300(4)
H20 H 0.4004 0.0337 0.1464
C20 C 0.4879(3) -0.0447(4) 0.1918(4)
H21 H 0.5223 -0.0009 0.2507
Cl1 Cl 0.47669(7) 0.51785(10) 0.13648(10)
Cl2 Cl 0.54914(7) 0.23825(10) 0.33440(10)
Hg1 Hg 0.556823(9) 0.378233(11) 0.249199(12)
N1 N 0.62402(18) -0.0462(3) 0.2438(2)
N2 N 0.58487(19) 0.2801(3) 0.1691(3)
N3 N 0.82491(18) -0.0603(3) 0.6144(2)
Hg1C Hg 0.943177(9) -0.121767(11) 0.750801(12)
N3C N 0.67509(18) 0.4397(3) 0.3856(2)
C21 C 0.8630(2) 0.1860(4) 0.1764(3)
H22 H 0.8752 0.1107 0.1748
H23 H 0.8993 0.2335 0.1887
C22 C 0.7899(2) 0.2130(4) 0.0715(3)
C23 C 0.7697(2) 0.1688(3) -0.0163(3)
H24 H 0.7987 0.1132 -0.0083
C24 C 0.6691(2) 0.2761(4) -0.1245(3)
H25 H 0.6281 0.2994 -0.1921
C25 C 0.6837(2) 0.3217(4) -0.0410(3)
H26 H 0.6520 0.3738 -0.0515
C26 C 0.7448(2) 0.2905(4) 0.0580(3)
H27 H 0.7559 0.3217 0.1160
C27 C 0.9418(2) 0.2323(4) 0.3552(3)
H28 H 0.9762 0.1962 0.3552
H29 H 0.9527 0.2082 0.4175
C28 C 0.9532(2) 0.3527(3) 0.3618(3)
C29 C 0.8967(2) 0.4232(4) 0.3175(3)
H30 H 0.8500 0.3940 0.2785
C30 C 0.9703(2) 0.5718(4) 0.3825(3)
H31 H 0.9768 0.6478 0.3908
C31 C 1.0278(3) 0.5072(5) 0.4273(3)
H32 H 1.0740 0.5379 0.4658
C32 C 1.0191(2) 0.3962(4) 0.4167(3)
H33 H 1.0593 0.3507 0.4479
C33 C 0.8514(2) 0.0977(4) 0.2883(3)
H34 H 0.8916 0.0453 0.3213
C34 C 0.7824(2) 0.0452(3) 0.1936(3)
H35 H 0.7426 0.0963 0.1596
H36 H 0.7727 -0.0192 0.2142
H37 H 0.7873 0.0245 0.1459
C35 C 0.8468(2) 0.1281(3) 0.3664(3)
C36 C 0.8004(3) 0.2084(4) 0.3438(4)
H38 H 0.7713 0.2451 0.2796
C37 C 0.7964(4) 0.2357(5) 0.4151(5)
H39 H 0.7636 0.2893 0.3992
C38 C 0.8405(4) 0.1840(6) 0.5092(5)
H40 H 0.8384 0.2038 0.5583
C39 C 0.8880(3) 0.1037(5) 0.5338(4)
H41 H 0.9184 0.0692 0.5991
C40 C 0.8902(3) 0.0752(4) 0.4611(3)
H42 H 0.9215 0.0192 0.4759
Cl3 Cl 0.65184(8) 0.28358(12) -0.36749(10)
Cl4 Cl 0.78982(7) 0.00739(11) -0.16503(9)
Hg2 Hg 0.696145(10) 0.138640(12) -0.251580(12)
N4 N 0.86844(18) 0.1973(3) 0.2632(2)
N5 N 0.71148(19) 0.2002(3) -0.1120(3)
N6 N 0.9046(2) 0.5306(3) 0.3270(3)
Hg2C Hg 0.803855(10) 0.638640(12) 0.251580(12)
N6C N 0.5954(2) 0.0306(3) -0.3270(3)
loop_
_geom_bond_atom_site_label_1
_geom_bond_atom_site_label_2
_geom_bond_site_symmetry_1
_geom_bond_site_symmetry_2
C1 H1 1_555 1_555
H2 C1 1_555 1_555
C2 C1 1_555 1_555
C3 C2 1_555 1_555
H3 C3 1_555 1_555
C4 H4 1_555 1_555
C5 C4 1_555 1_555
H5 C5 1_555 1_555
C6 C2 1_555 1_555
H6 C6 1_555 1_555
C7 H7 1_555 1_555
H8 C7 1_555 1_555
C8 C7 1_555 1_555
C9 C8 1_555 1_555
H9 C9 1_555 1_555
C10 H10 1_555 1_555
C11 C10 1_555 1_555
H11 C11 1_555 1_555
C12 C8 1_555 1_555
H12 C12 1_555 1_555
C13 H13 1_555 1_555
C14 C13 1_555 1_555
H14 C14 1_555 1_555
H15 C14 1_555 1_555
H16 C14 1_555 1_555
C15 C13 1_555 1_555
C16 C15 1_555 1_555
H17 C16 1_555 1_555
C17 C16 1_555 1_555
H18 C17 1_555 1_555
C18 C17 1_555 1_555
H19 C18 1_555 1_555
C19 C18 1_555 1_555
H20 C19 1_555 1_555
C20 C15 1_555 1_555
H21 C20 1_555 1_555
C21 H22 1_555 1_555
H23 C21 1_555 1_555
C22 C21 1_555 1_555
C23 C22 1_555 1_555
H24 C23 1_555 1_555
C24 H25 1_555 1_555
C25 C24 1_555 1_555
H26 C25 1_555 1_555
C26 C22 1_555 1_555
H27 C26 1_555 1_555
C27 H28 1_555 1_555
H29 C27 1_555 1_555
C28 C27 1_555 1_555
C29 C28 1_555 1_555
H30 C29 1_555 1_555
C30 H31 1_555 1_555
C31 C30 1_555 1_555
H32 C31 1_555 1_555
C32 C28 1_555 1_555
H33 C32 1_555 1_555
C33 H34 1_555 1_555
C34 C33 1_555 1_555
H35 C34 1_555 1_555
H36 C34 1_555 1_555
H37 C34 1_555 1_555
C35 C33 1_555 1_555
C36 C35 1_555 1_555
H38 C36 1_555 1_555
C37 C36 1_555 1_555
H39 C37 1_555 1_555
C38 C37 1_555 1_555
H40 C38 1_555 1_555
C39 C38 1_555 1_555
H41 C39 1_555 1_555
C40 C35 1_555 1_555
H42 C40 1_555 1_555
Cl1 Hg1 1_555 1_555
Cl2 Hg1 1_555 1_555
Cl3 Hg2 1_555 1_555
Cl4 Hg2 1_555 1_555
Hg1 N2 1_555 1_555
Hg2 N5 1_555 1_555
N1 C1 1_555 1_555
N2 C3 1_555 1_555
N3 C9 1_555 1_555
N4 C21 1_555 1_555
N5 C23 1_555 1_555
N6 C29 1_555 1_555
Hg1C N3 1_555 1_555
Hg2C N6 1_555 1_555
N3C Hg1 1_555 1_555
N6C Hg2 1_555 1_555
C4 N2 1_555 1_555
C5 C6 1_555 1_555
C7 N1 1_555 1_555
C10 N3 1_555 1_555
C11 C12 1_555 1_555
C13 N1 1_555 1_555
C19 C20 1_555 1_555
C24 N5 1_555 1_555
C25 C26 1_555 1_555
C27 N4 1_555 1_555
C30 N6 1_555 1_555
C31 C32 1_555 1_555
C33 N4 1_555 1_555
C39 C40 1_555 1_555

#END
