
#######################################################################
#
#                 Cambridge Crystallographic Data Centre
#                                CCDC 
#
#######################################################################
#
# If this CIF has been generated from an entry in the Cambridge 
# Structural Database, then it will include bibliographic, chemical, 
# crystal, experimental, refinement or atomic coordinate data resulting 
# from the CCDC's data processing and validation procedures.
#
#######################################################################

data_WEKPEJ
_symmetry_cell_setting           monoclinic
_symmetry_space_group_name_H-M   'P 21'
_symmetry_Int_Tables_number      4
_space_group_name_Hall           'P 2yb'
loop_
_symmetry_equiv_pos_site_id
_symmetry_equiv_pos_as_xyz
1 x,y,z
2 -x,1/2+y,-z
_cell_length_a                   11.269(2)
_cell_length_b                   14.216(3)
_cell_length_c                   14.794(3)
_cell_angle_alpha                90
_cell_angle_beta                 106.79(3)
_cell_angle_gamma                90
_cell_volume                     2268.97
loop_
_atom_site_label
_atom_site_type_symbol
_atom_site_fract_x
_atom_site_fract_y
_atom_site_fract_z
C1 C 1.2782(4) 0.9111(4) 0.5980(3)
H1 H 1.2143 0.9295 0.6276
H2 H 1.2586 0.9379 0.5344
H3 H 1.3590 0.9346 0.6361
C2 C -0.0557(6) 0.5723(5) -0.0507(4)
H4 H -0.1282 0.5344 -0.0678
C3 C 1.5702(5) 0.5603(5) 0.8571(4)
H5 H 1.5778 0.4971 0.8386
Hg1 Hg -0.286475(16) 0.713665(12) 0.137817(12)
Hg2 Hg 0.708319(16) 0.638701(12) 0.647072(12)
Cl1 Cl -0.36673(13) 0.86730(12) 0.14831(10)
Cl2 Cl -0.27040(12) 0.55562(11) 0.19812(9)
Cl3 Cl 0.72635(12) 0.79577(12) 0.70967(9)
Cl4 Cl 0.63490(13) 0.48108(11) 0.64615(9)
N1 N 1.3126(4) 0.7560(3) 0.6854(3)
N2 N 0.3205(4) 0.6006(4) 0.1928(3)
C4 C 1.1663(4) 0.6654(4) 0.4936(3)
N3 N 0.9183(4) 0.6125(3) 0.6593(3)
C5 C 1.1648(5) 0.7612(4) 0.5256(3)
N4 N 0.6086(4) 0.6793(3) 0.4885(3)
C6 C 0.5153(5) 0.7265(5) 0.2996(4)
H6 H 0.4846 0.7422 0.2346
C7 C 0.1343(5) 0.6870(4) 0.2091(3)
C8 C 0.9996(4) 0.6848(4) 0.6800(3)
H7 H 0.9676 0.7468 0.6780
C9 C 0.4335(5) 0.5597(4) 0.2602(3)
H8 H 0.4903 0.5359 0.2254
H9 H 0.4103 0.5065 0.2948
C10 C 0.9628(5) 0.5261(5) 0.6611(3)
H10 H 0.9063 0.4750 0.6450
C11 C 0.0069(5) 0.6727(4) 0.1826(3)
H11 H -0.0233 0.6103 0.1826
C12 C 0.0913(5) 0.8520(4) 0.1836(3)
H12 H 0.1191 0.9150 0.1834
C13 C -0.0338(5) 0.8317(4) 0.1570(4)
H13 H -0.0918 0.8816 0.1382
C14 C 0.2229(5) 0.6058(4) 0.2409(3)
H14 H 0.2626 0.6114 0.3098
H15 H 0.1751 0.5464 0.2297
C15 C 1.0548(5) 0.6243(5) 0.4365(3)
C16 C 1.2131(5) 0.7562(4) 0.7307(3)
H16 H 1.1646 0.8149 0.7134
H17 H 1.2504 0.7563 0.8000
C17 C 0.1751(5) 0.7794(4) 0.2104(3)
H18 H 0.2615 0.7926 0.2298
C18 C 1.0887(5) 0.5075(5) 0.6855(4)
H19 H 1.1180 0.4447 0.6867
N5 N -0.0756(4) 0.7432(3) 0.1570(3)
C19 C 1.1707(5) 0.5816(5) 0.7079(4)
H20 H 1.2574 0.5701 0.7261
C20 C 0.4980(4) 0.6365(6) 0.3300(3)
C21 C 1.2826(5) 0.8050(4) 0.5921(3)
H21 H 1.3515 0.7899 0.5645
C22 C 0.9461(5) 0.7703(5) 0.4407(3)
H22 H 0.8721 0.8065 0.4230
C23 C 0.5468(4) 0.6154(4) 0.4253(3)
H23 H 0.5361 0.5538 0.4464
C24 C 1.1263(5) 0.6734(4) 0.7039(4)
C25 C 0.9448(5) 0.6803(4) 0.4112(3)
H24 H 0.8696 0.6538 0.3730
C26 C 1.0568(5) 0.8107(4) 0.4976(3)
H25 H 1.0561 0.8744 0.5170
C27 C 0.5774(5) 0.7932(5) 0.3642(4)
H26 H 0.5891 0.8555 0.3450
C28 C 0.6219(5) 0.7658(4) 0.4582(4)
H27 H 0.6641 0.8112 0.5032
C29 C 0.2631(5) 0.8284(4) -0.0130(3)
H28 H 0.3350 0.8669 0.0013
C30 C 0.1495(6) 0.8643(5) -0.0730(4)
H29 H 0.1468 0.9263 -0.0975
C31 C 0.0457(6) 0.8114(5) -0.0957(4)
H30 H -0.0298 0.8363 -0.1351
C32 C 0.0499(5) 0.7179(6) -0.0601(3)
C33 C 0.2707(6) 0.7418(5) 0.0239(4)
H31 H 0.3470 0.7203 0.0652
C34 C 0.1638(5) 0.5881(5) 0.0369(4)
C35 C 0.1626(6) 0.6802(4) 0.0010(4)
C36 C 0.0560(5) 0.5353(5) 0.0094(4)
H32 H 0.0570 0.4725 0.0316
C37 C -0.0598(6) 0.6614(5) -0.0838(4)
H33 H -0.1356 0.6864 -0.1228
C38 C 1.4934(4) 0.7186(6) 0.8199(3)
C39 C 1.5057(4) 0.6259(5) 0.7923(3)
H34 H 1.4694 0.6078 0.7285
N6 N 1.6139(4) 0.6770(4) 0.9780(3)
C40 C 0.2783(5) 0.5447(5) 0.1042(4)
H35 H 0.2525 0.4819 0.1224
C41 C 1.4305(5) 0.7913(4) 0.7498(3)
H36 H 1.4135 0.8475 0.7836
H37 H 1.4864 0.8106 0.7123
C42 C 1.6233(5) 0.5885(5) 0.9491(4)
H38 H 1.6683 0.5438 0.9936
C43 C 1.5503(4) 0.7400(4) 0.9149(3)
H39 H 1.5435 0.8024 0.9358
C44 C 1.1619(5) 0.4773(4) 0.4302(4)
H40 H 1.1602 0.4141 0.4089
C45 C 1.2732(5) 0.5173(4) 0.4877(4)
H41 H 1.3466 0.4805 0.5057
C46 C 1.0570(5) 0.5311(4) 0.4057(4)
H42 H 0.9826 0.5044 0.3664
C47 C 1.2758(5) 0.6095(4) 0.5177(4)
H43 H 1.3516 0.6360 0.5549
C48 C 0.3801(4) 0.5258(4) 0.0566(3)
H44 H 0.4297 0.5829 0.0589
H45 H 0.3421 0.5077 -0.0094
H46 H 0.4336 0.4748 0.0898
Hg1_2 Hg 1.713525(16) 0.713665(12) 1.137817(12)
N6_2 N -0.3861(4) 0.6770(4) -0.0220(3)
loop_
_geom_bond_atom_site_label_1
_geom_bond_atom_site_label_2
_geom_bond_site_symmetry_1
_geom_bond_site_symmetry_2
C1 H1 1_555 1_555
H2 C1 1_555 1_555
H3 C1 1_555 1_555
C2 H4 1_555 1_555
C3 H5 1_555 1_555
Hg1 Cl1 1_555 1_555
Hg2 Cl3 1_555 1_555
Cl2 Hg1 1_555 1_555
Cl4 Hg2 1_555 1_555
N1 C16 1_555 1_555
N2 C9 1_555 1_555
C4 C5 1_555 1_555
N3 Hg2 1_555 1_555
C5 C21 1_555 1_555
N4 Hg2 1_555 1_555
C6 H6 1_555 1_555
C7 C11 1_555 1_555
C8 N3 1_555 1_555
H7 C8 1_555 1_555
C9 H8 1_555 1_555
H9 C9 1_555 1_555
C10 N3 1_555 1_555
H10 C10 1_555 1_555
C11 H11 1_555 1_555
C12 H12 1_555 1_555
C13 C12 1_555 1_555
H13 C13 1_555 1_555
C14 N2 1_555 1_555
H14 C14 1_555 1_555
H15 C14 1_555 1_555
C15 C4 1_555 1_555
C16 H16 1_555 1_555
H17 C16 1_555 1_555
C17 C7 1_555 1_555
H18 C17 1_555 1_555
C18 C10 1_555 1_555
H19 C18 1_555 1_555
N5 Hg1 1_555 1_555
C19 C18 1_555 1_555
H20 C19 1_555 1_555
C20 C6 1_555 1_555
C21 C1 1_555 1_555
H21 C21 1_555 1_555
C22 H22 1_555 1_555
C23 N4 1_555 1_555
H23 C23 1_555 1_555
C24 C8 1_555 1_555
C25 C15 1_555 1_555
H24 C25 1_555 1_555
C26 C5 1_555 1_555
H25 C26 1_555 1_555
C27 C6 1_555 1_555
H26 C27 1_555 1_555
C28 N4 1_555 1_555
H27 C28 1_555 1_555
C29 H28 1_555 1_555
C30 C29 1_555 1_555
H29 C30 1_555 1_555
C31 C30 1_555 1_555
H30 C31 1_555 1_555
C32 C31 1_555 1_555
C33 C29 1_555 1_555
H31 C33 1_555 1_555
C34 C35 1_555 1_555
C35 C32 1_555 1_555
C36 C2 1_555 1_555
H32 C36 1_555 1_555
C37 C2 1_555 1_555
H33 C37 1_555 1_555
C38 C39 1_555 1_555
C39 C3 1_555 1_555
H34 C39 1_555 1_555
N6 C42 1_555 1_555
C40 N2 1_555 1_555
H35 C40 1_555 1_555
C41 N1 1_555 1_555
H36 C41 1_555 1_555
H37 C41 1_555 1_555
C42 C3 1_555 1_555
H38 C42 1_555 1_555
C43 C38 1_555 1_555
H39 C43 1_555 1_555
C44 H40 1_555 1_555
C45 C44 1_555 1_555
H41 C45 1_555 1_555
C46 C15 1_555 1_555
H42 C46 1_555 1_555
C47 C4 1_555 1_555
H43 C47 1_555 1_555
C48 C40 1_555 1_555
H44 C48 1_555 1_555
H45 C48 1_555 1_555
H46 C48 1_555 1_555
Hg1_2 N6 1_555 1_555
N6_2 Hg1 1_555 1_555
N1 C21 1_555 1_555
C7 C14 1_555 1_555
C9 C20 1_555 1_555
C11 N5 1_555 1_555
C12 C17 1_555 1_555
C13 N5 1_555 1_555
C16 C24 1_555 1_555
C19 C24 1_555 1_555
C20 C23 1_555 1_555
C22 C25 1_555 1_555
C22 C26 1_555 1_555
C27 C28 1_555 1_555
C32 C37 1_555 1_555
C33 C35 1_555 1_555
C34 C36 1_555 1_555
C34 C40 1_555 1_555
C38 C41 1_555 1_555
N6 C43 1_555 1_555
C44 C46 1_555 1_555
C45 C47 1_555 1_555

#END
