
#######################################################################
#
#                 Cambridge Crystallographic Data Centre
#                                CCDC 
#
#######################################################################
#
# If this CIF has been generated from an entry in the Cambridge 
# Structural Database, then it will include bibliographic, chemical, 
# crystal, experimental, refinement or atomic coordinate data resulting 
# from the CCDC's data processing and validation procedures.
#
#######################################################################

data_WEKPIN
_symmetry_cell_setting           orthorhombic
_symmetry_space_group_name_H-M   'P 21 21 21'
_symmetry_Int_Tables_number      19
_space_group_name_Hall           'P 2ac 2ab'
loop_
_symmetry_equiv_pos_site_id
_symmetry_equiv_pos_as_xyz
1 x,y,z
2 1/2-x,-y,1/2+z
3 -x,1/2+y,1/2-z
4 1/2+x,1/2-y,-z
_cell_length_a                   10.8176(6)
_cell_length_b                   18.1757(11)
_cell_length_c                   25.9297(15)
_cell_angle_alpha                90
_cell_angle_beta                 90
_cell_angle_gamma                90
_cell_volume                     5098.23
loop_
_atom_site_label
_atom_site_type_symbol
_atom_site_fract_x
_atom_site_fract_y
_atom_site_fract_z
C1 C 1.9160(6) 0.6236(4) 0.7819(3)
H1 H 1.9551 0.5907 0.7562
H2 H 1.8437 0.5975 0.7966
C2 C 0.8617(6) 0.4855(4) 0.9568(3)
H3 H 0.9318 0.5142 0.9427
H4 H 0.8148 0.5179 0.9804
C3 C 0.7380(8) 0.3931(5) 0.8351(3)
H5 H 0.7612 0.3570 0.8104
C4 C 1.9817(6) 0.6909(4) 0.8623(3)
H6 H 1.9048 0.7160 0.8621
C5 C 0.6279(8) 0.4295(4) 0.8314(3)
H7 H 0.5766 0.4195 0.8025
Hg1 Hg 1.391540(19) 0.546690(12) 0.865300(9)
S1 S 1.33918(16) 0.46171(11) 0.73616(6)
N1 N 1.2730(4) 0.4546(3) 0.89414(19)
C6 C 1.1999(6) 0.4686(3) 0.9355(2)
H8 H 1.2022 0.5163 0.9504
C7 C 1.1220(6) 0.3468(3) 0.9345(2)
H9 H 1.0702 0.3091 0.9478
C8 C 1.5983(6) 0.7589(3) 0.8673(3)
H10 H 1.6018 0.8001 0.8898
N2 N 1.5148(5) 0.6423(3) 0.8476(2)
C9 C 0.8083(8) 0.1980(5) 0.9367(3)
H11 H 0.7647 0.1983 0.9049
C10 C 0.8742(6) 0.2610(4) 1.0143(3)
C11 C 1.5208(6) 0.7005(4) 0.8777(3)
H12 H 1.4701 0.7024 0.9076
C12 C 1.6648(6) 0.6952(4) 0.7912(3)
C13 C 1.1220(6) 0.4165(3) 0.9569(2)
C14 C 0.8727(8) 0.1340(5) 0.9519(3)
H13 H 0.8711 0.0913 0.9308
C15 C 0.9349(7) 0.1339(4) 0.9955(3)
H14 H 0.9799 0.0910 1.0049
C16 C 1.6707(6) 0.7562(4) 0.8234(3)
H15 H 1.7244 0.7960 0.8153
C17 C 1.2710(6) 0.3887(4) 0.8734(3)
H16 H 1.3214 0.3790 0.8442
C18 C 0.8078(6) 0.2596(4) 0.9669(3)
H17 H 0.7627 0.3018 0.9562
C19 C 1.5858(5) 0.6397(4) 0.8046(2)
H18 H 1.5805 0.5977 0.7830
C20 C 0.9337(6) 0.3175(4) 1.0940(3)
H19 H 0.9326 0.3581 1.1170
C21 C 0.8757(6) 0.3240(4) 1.0476(2)
C22 C 0.9371(6) 0.1955(4) 1.0289(3)
C23 C 1.1971(6) 0.3329(4) 0.8930(3)
H20 H 1.1986 0.2853 0.8778
S2 S 1.46399(17) 0.60567(13) 1.00911(7)
N3 N 0.5885(4) 0.4783(3) 0.8660(2)
O1 O 1.3750(5) 0.5196(3) 0.77086(17)
N4 N 2.2038(5) 0.6177(3) 0.8635(2)
C24 C 2.1203(6) 0.6043(3) 0.8268(2)
H21 H 2.1393 0.5689 0.8010
C25 C 1.0384(6) 0.4350(4) 1.0021(2)
H22 H 1.0586 0.4032 1.0320
H23 H 1.0502 0.4869 1.0125
O2 O 1.4141(5) 0.5755(3) 0.96357(19)
C26 C 0.7775(6) 0.4622(4) 0.9124(2)
C27 C 0.6631(6) 0.4945(3) 0.9055(3)
H24 H 0.6362 0.5299 0.9299
O3 O 1.3919(9) 0.3915(3) 0.7495(2)
O4 O 1.2153(6) 0.4616(6) 0.7209(3)
C28 C 2.1782(7) 0.6674(4) 0.8992(3)
H25 H 2.2379 0.6774 0.9252
C29 C 0.8274(6) 0.3975(4) 1.0285(2)
H26 H 0.7451 0.3875 1.0123
C30 C 0.8144(7) 0.4104(5) 0.8757(3)
H27 H 0.8925 0.3870 0.8789
N5 N 1.8739(5) 0.6905(3) 0.7562(2)
C31 C 2.0077(6) 0.6396(4) 0.8247(3)
C32 C 1.9523(6) 0.7137(4) 0.7113(2)
H28 H 1.9203 0.7627 0.7000
C33 C 1.7426(6) 0.6908(4) 0.7436(3)
H29 H 1.7218 0.6455 0.7243
H30 H 1.7242 0.7335 0.7211
C34 C 2.0666(7) 0.7054(4) 0.9000(3)
H31 H 2.0498 0.7407 0.9261
C35 C 2.2594(7) 0.8534(5) 0.8160(3)
H32 H 2.3413 0.8594 0.8286
N6 N 0.9104(5) 0.4228(3) 0.9861(2)
C36 C 2.1098(7) 0.7868(3) 0.7631(2)
C37 C 0.8056(6) 0.4547(5) 1.0699(3)
H33 H 0.8852 0.4716 1.0835
H34 H 0.7568 0.4330 1.0979
H35 H 0.7606 0.4965 1.0552
C38 C 2.0195(6) 0.8391(4) 0.7788(3)
H36 H 1.9370 0.8346 0.7666
C39 C 2.3272(6) 0.7474(4) 0.7640(3)
H37 H 2.4098 0.7541 0.7755
C40 C 0.9997(7) 0.1941(4) 1.0762(3)
H38 H 1.0460 0.1519 1.0858
C41 C 2.2341(6) 0.7956(4) 0.7817(3)
C42 C 2.0495(7) 0.8952(4) 0.8108(3)
H39 H 1.9887 0.9310 0.8192
C43 C 2.1695(9) 0.9016(5) 0.8320(4)
H40 H 2.1875 0.9386 0.8568
C44 C 0.9944(7) 0.2535(5) 1.1087(3)
H41 H 1.0326 0.2509 1.1416
C45 C 2.0845(6) 0.7262(4) 0.7289(3)
C46 C 2.1797(6) 0.6802(4) 0.7135(3)
H42 H 2.1636 0.6402 0.6910
C47 C 2.3023(6) 0.6934(4) 0.7318(3)
H43 H 2.3675 0.6624 0.7204
C48 C 1.9398(7) 0.6618(4) 0.6642(3)
H44 H 1.9693 0.6126 0.6735
H45 H 1.9892 0.6809 0.6355
H46 H 1.8528 0.6590 0.6538
F1 F 1.3770(5) 0.5475(3) 0.65678(15)
F2 F 1.4185(7) 0.4353(2) 0.64214(17)
F3 F 1.5398(5) 0.5021(4) 0.6878(2)
C49 C 1.4229(8) 0.4873(4) 0.6775(3)
F4 F 1.3603(5) 0.6408(3) 1.09704(17)
F5 F 1.2807(7) 0.5455(5) 1.0597(3)
O5 O 1.5436(8) 0.5546(8) 1.0349(3)
F6 F 1.2435(6) 0.6502(6) 1.0295(3)
O6 O 1.5096(12) 0.6764(5) 1.0061(3)
C50 C 1.3319(10) 0.6090(6) 1.0515(3)
Hg1_2 Hg 0.391540(19) 0.546690(12) 0.865300(9)
Hg1_3 Hg 2.391540(19) 0.546690(12) 0.865300(9)
N3_2 N 1.5885(4) 0.4783(3) 0.8660(2)
N4_2 N 1.2038(5) 0.6177(3) 0.8635(2)
O7 O 0.303(3) 0.8339(14) 0.9874(10)
C51 C 0.431(2) 0.8323(12) 0.9688(8)
H47 H 0.4506 0.8790 0.9517
H48 H 0.4411 0.7918 0.9441
H49 H 0.4874 0.8249 0.9980
loop_
_geom_bond_atom_site_label_1
_geom_bond_atom_site_label_2
_geom_bond_site_symmetry_1
_geom_bond_site_symmetry_2
C1 H1 1_555 1_555
H2 C1 1_555 1_555
C2 H3 1_555 1_555
H4 C2 1_555 1_555
C3 H5 1_555 1_555
C4 H6 1_555 1_555
C5 C3 1_555 1_555
H7 C5 1_555 1_555
Hg1 N1 1_555 1_555
S1 O1 1_555 1_555
N1 C6 1_555 1_555
C6 H8 1_555 1_555
C7 H9 1_555 1_555
C8 H10 1_555 1_555
N2 Hg1 1_555 1_555
C9 H11 1_555 1_555
C10 C18 1_555 1_555
C11 C8 1_555 1_555
H12 C11 1_555 1_555
C12 C16 1_555 1_555
C13 C6 1_555 1_555
C14 C9 1_555 1_555
H13 C14 1_555 1_555
C15 C14 1_555 1_555
H14 C15 1_555 1_555
C16 C8 1_555 1_555
H15 C16 1_555 1_555
C17 N1 1_555 1_555
H16 C17 1_555 1_555
C18 C9 1_555 1_555
H17 C18 1_555 1_555
C19 N2 1_555 1_555
H18 C19 1_555 1_555
C20 H19 1_555 1_555
C21 C10 1_555 1_555
C22 C10 1_555 1_555
C23 C7 1_555 1_555
H20 C23 1_555 1_555
S2 O2 1_555 1_555
N3 C5 1_555 1_555
O1 Hg1 1_555 1_555
N4 C24 1_555 1_555
C24 H21 1_555 1_555
C25 C13 1_555 1_555
H22 C25 1_555 1_555
H23 C25 1_555 1_555
O2 Hg1 1_555 1_555
C26 C2 1_555 1_555
C27 N3 1_555 1_555
H24 C27 1_555 1_555
O3 S1 1_555 1_555
O4 S1 1_555 1_555
C28 N4 1_555 1_555
H25 C28 1_555 1_555
C29 C21 1_555 1_555
H26 C29 1_555 1_555
C30 C3 1_555 1_555
H27 C30 1_555 1_555
N5 C1 1_555 1_555
C31 C1 1_555 1_555
C32 N5 1_555 1_555
H28 C32 1_555 1_555
C33 C12 1_555 1_555
H29 C33 1_555 1_555
H30 C33 1_555 1_555
C34 C4 1_555 1_555
H31 C34 1_555 1_555
C35 H32 1_555 1_555
N6 C2 1_555 1_555
C36 C38 1_555 1_555
C37 C29 1_555 1_555
H33 C37 1_555 1_555
H34 C37 1_555 1_555
H35 C37 1_555 1_555
C38 H36 1_555 1_555
C39 H37 1_555 1_555
C40 C22 1_555 1_555
H38 C40 1_555 1_555
C41 C35 1_555 1_555
C42 C38 1_555 1_555
H39 C42 1_555 1_555
C43 C35 1_555 1_555
H40 C43 1_555 1_555
C44 C20 1_555 1_555
H41 C44 1_555 1_555
C45 C32 1_555 1_555
C46 C45 1_555 1_555
H42 C46 1_555 1_555
C47 C39 1_555 1_555
H43 C47 1_555 1_555
C48 C32 1_555 1_555
H44 C48 1_555 1_555
H45 C48 1_555 1_555
H46 C48 1_555 1_555
F1 C49 1_555 1_555
F2 C49 1_555 1_555
F3 C49 1_555 1_555
C49 S1 1_555 1_555
F4 C50 1_555 1_555
F5 C50 1_555 1_555
O5 S2 1_555 1_555
F6 C50 1_555 1_555
O6 S2 1_555 1_555
C50 S2 1_555 1_555
O7 C51 1_555 1_555
C51 H47 1_555 1_555
H48 C51 1_555 1_555
H49 C51 1_555 1_555
Hg1_2 N3 1_555 1_555
Hg1_3 N4 1_555 1_555
N3_2 Hg1 1_555 1_555
N4_2 Hg1 1_555 1_555
C4 C31 1_555 1_555
C7 C13 1_555 1_555
N2 C11 1_555 1_555
C12 C19 1_555 1_555
C15 C22 1_555 1_555
C17 C23 1_555 1_555
C20 C21 1_555 1_555
C24 C31 1_555 1_555
C25 N6 1_555 1_555
C26 C27 1_555 1_555
C26 C30 1_555 1_555
C28 C34 1_555 1_555
C29 N6 1_555 1_555
N5 C33 1_555 1_555
C36 C41 1_555 1_555
C36 C45 1_555 1_555
C39 C41 1_555 1_555
C40 C44 1_555 1_555
C42 C43 1_555 1_555
C46 C47 1_555 1_555

#END
