
#######################################################################
#
#                 Cambridge Crystallographic Data Centre
#                                CCDC 
#
#######################################################################
#
# If this CIF has been generated from an entry in the Cambridge 
# Structural Database, then it will include bibliographic, chemical, 
# crystal, experimental, refinement or atomic coordinate data resulting 
# from the CCDC's data processing and validation procedures.
#
#######################################################################

data_WEKPAF
_symmetry_cell_setting           monoclinic
_symmetry_space_group_name_H-M   'C 2'
_symmetry_Int_Tables_number      5
_space_group_name_Hall           'C 2y'
loop_
_symmetry_equiv_pos_site_id
_symmetry_equiv_pos_as_xyz
1 x,y,z
2 -x,y,-z
3 1/2+x,1/2+y,z
4 1/2-x,1/2+y,-z
_cell_length_a                   25.096(2)
_cell_length_b                   10.4441(8)
_cell_length_c                   18.8981(13)
_cell_angle_alpha                90
_cell_angle_beta                 126.654(4)
_cell_angle_gamma                90
_cell_volume                     3973.8
loop_
_atom_site_label
_atom_site_type_symbol
_atom_site_fract_x
_atom_site_fract_y
_atom_site_fract_z
C1 C 0.5331(4) 0.2080(9) 0.8111(6)
H1 H 0.5362 0.2307 0.8637
H2 H 0.5548 0.1247 0.8221
C2 C 0.4608(4) 0.1948(7) 0.7342(5)
C3 C 0.4418(4) 0.1889(9) 0.6483(5)
H3 H 0.4739 0.1991 0.6380
C4 C 0.3777(4) 0.1687(8) 0.5798(5)
H4 H 0.3661 0.1612 0.5226
C5 C 0.3474(4) 0.1653(8) 0.6752(5)
H5 H 0.3149 0.1569 0.6847
C6 C 0.4119(4) 0.1836(8) 0.7442(5)
H6 H 0.4231 0.1886 0.8013
C7 C 0.5590(4) 0.4308(8) 0.8173(6)
H7 H 0.5925 0.4880 0.8235
H8 H 0.5655 0.4297 0.8738
C8 C 0.4916(4) 0.4840(8) 0.7482(5)
C9 C 0.4714(4) 0.5010(10) 0.6633(6)
H9 H 0.5012 0.4849 0.6498
C10 C 0.4081(4) 0.5410(8) 0.5982(5)
H10 H 0.3952 0.5517 0.5405
C11 C 0.3820(4) 0.5509(9) 0.6963(6)
H11 H 0.3511 0.5653 0.7082
C12 C 0.4472(4) 0.5140(9) 0.7641(5)
H12 H 0.4604 0.5101 0.8222
C13 C 0.6410(4) 0.2676(9) 0.8448(6)
H13 H 0.6630 0.3435 0.8412
C14 C 0.6462(6) 0.1645(11) 0.7957(7)
H14 H 0.6216 0.0901 0.7925
H15 H 0.6925 0.1417 0.8259
H16 H 0.6278 0.1938 0.7365
C15 C 0.6770(4) 0.2405(9) 0.9426(6)
C16 C 0.6820(3) 0.1144(16) 0.9729(6)
H17 H 0.6648 0.0455 0.9331
C17 C 0.7123(4) 0.0927(14) 1.0612(7)
H18 H 0.7150 0.0088 1.0812
C18 C 0.7382(5) 0.1915(13) 1.1199(8)
H19 H 0.7590 0.1759 1.1800
C19 C 0.7339(5) 0.3138(12) 1.0907(7)
H20 H 0.7524 0.3819 1.1312
C20 C 0.7026(4) 0.3376(10) 1.0028(6)
H21 H 0.6988 0.4224 0.9837
C21 C 0.2097(9) 0.3617(16) 0.2480(8)
C22 C 0.2964(14) -0.107(2) 0.3337(18)
F1 F 0.1748(6) 0.4679(11) 0.2081(5)
F2 F 0.1678(6) 0.2632(11) 0.1962(5)
F3 F 0.2589(7) 0.3555(12) 0.2439(7)
F4 F 0.3466(7) -0.1504(12) 0.3257(8)
F5 F 0.2973(10) 0.0207(16) 0.3133(10)
F6 F 0.2374(9) -0.151(2) 0.2742(11)
Hg1 Hg 0.232763(11) 0.11339(14) 0.488432(16)
N1 N 0.5696(3) 0.3037(7) 0.7987(4)
N2 N 0.3301(3) 0.1592(6) 0.5912(4)
N3 N 0.3645(3) 0.5652(6) 0.6151(4)
O1 O 0.2585(5) 0.2268(7) 0.3844(5)
O2 O 0.2742(3) 0.4528(7) 0.4013(5)
O3 O 0.1670(4) 0.3616(8) 0.3433(6)
O4 O 0.2682(5) -0.0728(8) 0.4360(6)
O5 O 0.3151(4) -0.2678(7) 0.4353(6)
O6 O 0.3862(9) -0.0693(14) 0.4907(11)
S1 S 0.23086(13) 0.3495(2) 0.35676(14)
S2 S 0.31049(19) -0.1346(3) 0.4250(3)
C1C C -0.0331(4) -0.2920(9) 0.1889(6)
H1C H -0.0362 -0.2693 0.1363
H2C H -0.0548 -0.3753 0.1779
C2C C 0.0392(4) -0.3052(7) 0.2658(5)
C3C C 0.0582(4) -0.3111(9) 0.3517(5)
H3C H 0.0261 -0.3009 0.3620
C4C C 0.1223(4) -0.3313(8) 0.4202(5)
H4C H 0.1339 -0.3388 0.4774
C5C C 0.1526(4) -0.3347(8) 0.3248(5)
H5C H 0.1851 -0.3431 0.3153
C6C C 0.0881(4) -0.3164(8) 0.2558(5)
H6C H 0.0769 -0.3114 0.1987
C7C C -0.0590(4) -0.0692(8) 0.1827(6)
H7C H -0.0925 -0.0120 0.1765
H8C H -0.0655 -0.0703 0.1262
C8C C 0.0084(4) -0.0160(8) 0.2518(5)
C9C C 0.0286(4) 0.0010(10) 0.3367(6)
H9C H -0.0012 -0.0151 0.3502
C10C C 0.0919(4) 0.0410(8) 0.4018(5)
H10C H 0.1048 0.0517 0.4595
C11C C 0.1180(4) 0.0509(9) 0.3037(6)
H11C H 0.1489 0.0653 0.2918
C12C C 0.0528(4) 0.0140(9) 0.2359(5)
H12C H 0.0396 0.0101 0.1778
C13C C -0.1410(4) -0.2324(9) 0.1552(6)
H13C H -0.1630 -0.1565 0.1588
C14C C -0.1462(6) -0.3355(11) 0.2043(7)
H14C H -0.1216 -0.4099 0.2075
H15C H -0.1925 -0.3583 0.1741
H16C H -0.1278 -0.3062 0.2635
C15C C -0.1770(4) -0.2595(9) 0.0574(6)
C16C C -0.1820(3) -0.3856(16) 0.0271(6)
H17C H -0.1648 -0.4545 0.0669
C17C C -0.2123(4) -0.4073(14) -0.0612(7)
H18C H -0.2150 -0.4912 -0.0812
C18C C -0.2382(5) -0.3085(13) -0.1199(8)
H19C H -0.2590 -0.3241 -0.1800
C19C C -0.2339(5) -0.1862(12) -0.0907(7)
H20C H -0.2524 -0.1181 -0.1312
C20C C -0.2026(4) -0.1624(10) -0.0028(6)
H21C H -0.1988 -0.0776 0.0163
C21C C 0.2903(9) -0.1383(16) 0.7520(8)
C22C C 0.2036(14) 0.393(2) 0.6663(18)
F1C F 0.3252(6) -0.0321(11) 0.7919(5)
F2C F 0.3322(6) -0.2368(11) 0.8038(5)
F3C F 0.2411(7) -0.1445(12) 0.7561(7)
F4C F 0.1534(7) 0.3496(12) 0.6743(8)
F5C F 0.2027(10) 0.5207(16) 0.6867(10)
F6C F 0.2626(9) 0.349(2) 0.7258(11)
Hg1C Hg 0.267237(11) -0.38661(14) 0.511568(16)
Hg1C_2 Hg 0.267237(11) 0.61339(14) 0.511568(16)
N1C N -0.0696(3) -0.1963(7) 0.2013(4)
N2C N 0.1699(3) -0.3408(6) 0.4088(4)
N3C N 0.1355(3) 0.0652(6) 0.3849(4)
N3_2 N 0.3645(3) -0.4348(6) 0.6151(4)
O1C O 0.2415(5) -0.2732(7) 0.6156(5)
O2C O 0.2258(3) -0.0472(7) 0.5987(5)
O2_2 O 0.2742(3) -0.5472(7) 0.4013(5)
O3C O 0.3330(4) -0.1384(8) 0.6567(6)
O4C O 0.2318(5) 0.4272(8) 0.5640(6)
O4C_2 O 0.2318(5) -0.5728(8) 0.5640(6)
O5C O 0.1849(4) 0.2322(7) 0.5647(6)
O6C O 0.1138(9) 0.4307(14) 0.5093(11)
S1C S 0.26914(13) -0.1505(2) 0.64324(14)
S2C S 0.18951(19) 0.3654(3) 0.5750(3)
C23 C 0.4948(6) 0.8523(12) 0.8218(12)
H22 H 0.4554 0.8815 0.8118
C24 C 0.5467(9) 0.8159(12) 0.9038(11)
C25 C 0.6040(7) 0.7743(14) 0.9191(11)
H23 H 0.6402 0.7487 0.9758
C26 C 0.6079(7) 0.7705(14) 0.8501(15)
H24 H 0.6473 0.7417 0.8597
C27 C 0.5558(11) 0.808(2) 0.7673(13)
H25 H 0.5592 0.8061 0.7204
C28 C 0.4994(9) 0.8468(17) 0.7542(10)
H26 H 0.4628 0.8707 0.6973
C33 C 0.5417(16) 0.822(3) 0.9753(16)
C29 C 0.5000 0.567(3) 0.5000
C30 C 0.4429(8) 0.4812(14) 0.4510(8)
H27 H 0.4013 0.5220 0.4153
C31 C 0.4408(9) 0.3422(15) 0.4493(9)
H28 H 0.3990 0.3021 0.4136
C32 C 0.5000 0.261(3) 0.5000
C39 C 0.5000 0.706(3) 0.5000
C30A C 0.5571(8) 0.4812(14) 0.5490(8)
H27A H 0.5987 0.5220 0.5847
C31A C 0.5592(9) 0.3422(15) 0.5507(9)
H28A H 0.6010 0.3021 0.5864
C34 C 0.0590(5) 0.7895(12) 0.0383(6)
H29 H 0.0988 0.7437 0.0641
C35 C 0.0000 0.5894(19) 0.0000
C36 C 0.0586(6) 0.9202(13) 0.0382(7)
H30 H 0.0984 0.9661 0.0643
C37 C 0.0000 0.7270(17) 0.0000
C38 C 0.0000 0.984(3) 0.0000
C34A C -0.0590(5) 0.7895(12) -0.0383(6)
H29A H -0.0988 0.7437 -0.0641
C36A C -0.0586(6) 0.9202(13) -0.0382(7)
H30A H -0.0984 0.9661 -0.0643
C40? C 0.5000 0.122(3) 0.5000
loop_
_geom_bond_atom_site_label_1
_geom_bond_atom_site_label_2
_geom_bond_site_symmetry_1
_geom_bond_site_symmetry_2
C1 H1 1_555 1_555
H2 C1 1_555 1_555
C2 C1 1_555 1_555
C3 C2 1_555 1_555
H3 C3 1_555 1_555
C4 C3 1_555 1_555
H4 C4 1_555 1_555
C5 H5 1_555 1_555
C6 C2 1_555 1_555
H6 C6 1_555 1_555
C7 H7 1_555 1_555
H8 C7 1_555 1_555
C8 C7 1_555 1_555
C9 C8 1_555 1_555
H9 C9 1_555 1_555
C10 C9 1_555 1_555
H10 C10 1_555 1_555
C11 H11 1_555 1_555
C12 C8 1_555 1_555
H12 C12 1_555 1_555
C13 H13 1_555 1_555
C14 C13 1_555 1_555
H14 C14 1_555 1_555
H15 C14 1_555 1_555
H16 C14 1_555 1_555
C15 C13 1_555 1_555
C16 C15 1_555 1_555
H17 C16 1_555 1_555
C17 C16 1_555 1_555
H18 C17 1_555 1_555
C18 C17 1_555 1_555
H19 C18 1_555 1_555
C19 C18 1_555 1_555
H20 C19 1_555 1_555
C20 C15 1_555 1_555
H21 C20 1_555 1_555
C21 F1 1_555 1_555
C22 F4 1_555 1_555
C23 H22 1_555 1_555
C24 C23 1_555 1_555
C25 C24 1_555 1_555
H23 C25 1_555 1_555
C26 C25 1_555 1_555
H24 C26 1_555 1_555
C27 C26 1_555 1_555
H25 C27 1_555 1_555
C28 C23 1_555 1_555
H26 C28 1_555 1_555
C29 C30 1_555 1_555
C30 H27 1_555 1_555
C31 C30 1_555 1_555
H28 C31 1_555 1_555
C32 C31 1_555 1_555
F2 C21 1_555 1_555
F3 C21 1_555 1_555
F5 C22 1_555 1_555
F6 C22 1_555 1_555
Hg1 N2 1_555 1_555
N1 C1 1_555 1_555
N2 C4 1_555 1_555
N3 C10 1_555 1_555
O1 Hg1 1_555 1_555
O2 S1 1_555 1_555
O3 S1 1_555 1_555
O4 Hg1 1_555 1_555
O5 S2 1_555 1_555
O6 S2 1_555 1_555
S1 C21 1_555 1_555
S2 C22 1_555 1_555
C33 C24 1_555 1_555
C34 H29 1_555 1_555
C35 C37 1_555 1_555
C36 C34 1_555 1_555
H30 C36 1_555 1_555
C37 C34 1_555 1_555
C38 C36 1_555 1_555
C39 C29 1_555 1_555
C1C H1C 1_555 1_555
H2C C1C 1_555 1_555
C2C C1C 1_555 1_555
C3C C2C 1_555 1_555
H3C C3C 1_555 1_555
C4C C3C 1_555 1_555
H4C C4C 1_555 1_555
C5C H5C 1_555 1_555
C6C C2C 1_555 1_555
H6C C6C 1_555 1_555
C7C H7C 1_555 1_555
H8C C7C 1_555 1_555
C8C C7C 1_555 1_555
C9C C8C 1_555 1_555
H9C C9C 1_555 1_555
C10C C9C 1_555 1_555
H10C C10C 1_555 1_555
C11C H11C 1_555 1_555
C12C C8C 1_555 1_555
H12C C12C 1_555 1_555
C13C H13C 1_555 1_555
C14C C13C 1_555 1_555
H14C C14C 1_555 1_555
H15C C14C 1_555 1_555
H16C C14C 1_555 1_555
C15C C13C 1_555 1_555
C16C C15C 1_555 1_555
H17C C16C 1_555 1_555
C17C C16C 1_555 1_555
H18C C17C 1_555 1_555
C18C C17C 1_555 1_555
H19C C18C 1_555 1_555
C19C C18C 1_555 1_555
H20C C19C 1_555 1_555
C20C C15C 1_555 1_555
H21C C20C 1_555 1_555
C21C F1C 1_555 1_555
C22C F4C 1_555 1_555
C30A C29 1_555 1_555
H27A C30A 1_555 1_555
C31A C32 1_555 1_555
H28A C31A 1_555 1_555
F2C C21C 1_555 1_555
F3C C21C 1_555 1_555
F5C C22C 1_555 1_555
F6C C22C 1_555 1_555
Hg1C O5 1_555 1_555
Hg1C_2 N3 1_555 1_555
N1C C1C 1_555 1_555
N2C C4C 1_555 1_555
N3C Hg1 1_555 1_555
N3_2 Hg1C 1_555 1_555
O1C Hg1C 1_555 1_555
O2C Hg1 1_555 1_555
O2_2 Hg1C 1_555 1_555
O3C S1C 1_555 1_555
O4C Hg1C_2 1_555 1_555
O4C_2 Hg1C 1_555 1_555
O5C Hg1 1_555 1_555
O6C S2C 1_555 1_555
S1C C21C 1_555 1_555
S2C C22C 1_555 1_555
C34A C37 1_555 1_555
H29A C34A 1_555 1_555
C36A C38 1_555 1_555
H30A C36A 1_555 1_555
C5 C6 1_555 1_555
C5 N2 1_555 1_555
C7 N1 1_555 1_555
C11 C12 1_555 1_555
C11 N3 1_555 1_555
C13 N1 1_555 1_555
C19 C20 1_555 1_555
C27 C28 1_555 1_555
O1 S1 1_555 1_555
O2 Hg1C_2 1_555 1_555
O4 S2 1_555 1_555
C5C C6C 1_555 1_555
C5C N2C 1_555 1_555
C7C N1C 1_555 1_555
C10C N3C 1_555 1_555
C11C C12C 1_555 1_555
C11C N3C 1_555 1_555
C13C N1C 1_555 1_555
C19C C20C 1_555 1_555
C30A C31A 1_555 1_555
Hg1C N2C 1_555 1_555
O1C S1C 1_555 1_555
O2C S1C 1_555 1_555
O4C S2C 1_555 1_555
O5C S2C 1_555 1_555
C34A C36A 1_555 1_555

#END
