
#######################################################################
#
#                 Cambridge Crystallographic Data Centre
#                                CCDC 
#
#######################################################################
#
# If this CIF has been generated from an entry in the Cambridge 
# Structural Database, then it will include bibliographic, chemical, 
# crystal, experimental, refinement or atomic coordinate data resulting 
# from the CCDC's data processing and validation procedures.
#
#######################################################################

data_WEKXAM
_symmetry_cell_setting           orthorhombic
_symmetry_space_group_name_H-M   'C 2 2 21'
_symmetry_Int_Tables_number      20
_space_group_name_Hall           'C 2n 2'
loop_
_symmetry_equiv_pos_site_id
_symmetry_equiv_pos_as_xyz
1 x,y,z
2 -x,-y,1/2+z
3 -x,y,1/2-z
4 x,-y,-z
5 1/2+x,1/2+y,z
6 1/2-x,1/2-y,1/2+z
7 1/2-x,1/2+y,1/2-z
8 1/2+x,1/2-y,-z
_cell_length_a                   13.050(6)
_cell_length_b                   14.647(7)
_cell_length_c                   14.025(6)
_cell_angle_alpha                90
_cell_angle_beta                 90
_cell_angle_gamma                90
_cell_volume                     2680.79
loop_
_atom_site_label
_atom_site_type_symbol
_atom_site_fract_x
_atom_site_fract_y
_atom_site_fract_z
Cu1 Cu 0.5000 1.03747(17) 0.2500
Cu2 Cu 0.40615(19) 1.0000 0.5000
Cu3 Cu 0.18755(14) 0.72549(12) 0.25076(12)
Cu4 Cu 0.21754(14) 0.81170(13) 0.50117(12)
Cu5 Cu -0.03198(18) 1.0000 0.0000
Cu6 Cu 0.0000 0.91408(17) 0.2500
N1 N 0.2797(10) 0.8304(8) 0.3003(8)
N2 N 0.2865(9) 0.8680(8) 0.3854(8)
N3 N 0.3471(10) 0.9377(8) 0.3844(8)
N4 N 0.3889(10) 0.9468(8) 0.2962(10)
N5 N 0.0598(9) 0.8959(8) 0.0441(9)
N6 N 0.0673(9) 0.8595(8) 0.1355(8)
N7 N 0.1308(9) 0.7908(8) 0.1341(8)
N8 N 0.1706(9) 0.7781(8) 0.0465(9)
N9 N 0.3904(8) 0.5092(7) 0.1995(7)
N10 N 0.3872(8) 0.5457(7) 0.1122(6)
N11 N 0.3236(8) 0.6167(7) 0.1144(7)
N12 N 0.2827(9) 0.6222(8) 0.2017(7)
N13 N 0.3908(9) 1.2218(7) 0.0489(9)
N14 N 0.3912(9) 1.1831(8) 0.1368(8)
N15 N 0.4556(9) 1.1126(8) 0.1369(7)
N16 N 0.4976(10) 1.1026(7) 0.0496(8)
C1 C 0.3437(11) 0.8826(10) 0.2414(14)
H1 H 0.3533 0.8744 0.1762
C2 C 0.1228(12) 0.8464(10) -0.0003(17)
H2 H 0.1361 0.8567 -0.0646
C3 C 0.3249(9) 0.5561(8) 0.2563(10)
H3 H 0.3117 0.5450 0.3204
C4 C 0.4549(11) 1.1694(9) 0.0024(15)
H4 H 0.4694 1.1793 -0.0617
Cu2A Cu 0.59385(19) 1.0000 0.0000
Cu3B Cu 0.81245(14) 0.72549(12) 0.24924(12)
Cu3F Cu 0.31245(14) 1.22549(12) 0.24924(12)
Cu3D Cu 0.68755(14) 1.22549(12) 0.25076(12)
Cu3E Cu 0.31245(14) 0.77451(12) 0.75076(12)
Cu4B Cu 0.78246(14) 0.81170(13) -0.00117(12)
Cu4E Cu 0.28246(14) 0.68830(13) 0.00117(12)
Cu4F Cu 0.28246(14) 1.31170(13) -0.00117(12)
Cu4D Cu 0.71754(14) 1.31170(13) 0.50117(12)
Cu5D Cu 0.46802(18) 0.5000 0.0000
Cu5E Cu 0.53198(18) 0.5000 0.5000
Cu5A Cu 0.03198(18) 1.0000 0.5000
Cu6D Cu 0.5000 0.41408(17) 0.2500
Cu6E Cu 0.5000 0.58592(17) 0.7500
Cu6A Cu 0.0000 1.08592(17) 0.7500
N1B N 0.7203(10) 0.8304(8) 0.1997(8)
N2B N 0.7135(9) 0.8680(8) 0.1146(8)
N3B N 0.6529(10) 0.9377(8) 0.1156(8)
N3C N 0.3471(10) 1.0623(8) 0.6156(8)
N4B N 0.6111(10) 0.9468(8) 0.2038(10)
N5E N 0.4402(9) 0.6041(8) 0.5441(9)
N5C N 0.0598(9) 1.1041(8) -0.0441(9)
N6E N 0.4327(9) 0.6405(8) 0.6355(8)
N6B N -0.0673(9) 0.8595(8) 0.3645(8)
N7E N 0.3692(9) 0.7092(8) 0.6341(8)
N7B N 0.8692(9) 0.7908(8) 0.3659(8)
N8E N 0.3294(9) 0.7219(8) 0.5465(9)
N8G N 0.6706(9) 0.7219(8) -0.0465(9)
N9E N 0.1096(8) 0.9908(7) 0.6995(7)
N9D N -0.1096(8) 1.0092(7) 0.1995(7)
N9F N 0.1096(8) 1.0092(7) 0.3005(7)
N10E N 0.1128(8) 0.9543(7) 0.6122(6)
N10D N -0.1128(8) 1.0457(7) 0.1122(6)
N10G N -0.1128(8) 0.9543(7) -0.1122(6)
N11E N 0.1764(8) 0.8833(7) 0.6144(7)
N11G N 0.8236(8) 0.8833(7) -0.1144(7)
N12E N 0.2173(9) 0.8778(8) 0.7017(7)
N12B N 0.7173(9) 0.6222(8) 0.2983(7)
N13B N 0.6092(9) 1.2218(7) 0.4511(9)
N13F N 0.1092(9) 0.7218(7) 0.4511(9)
N13D N 0.8908(9) 0.7218(7) 0.0489(9)
N14B N 0.6088(9) 1.1831(8) 0.3632(8)
N14F N 0.1088(9) 0.6831(8) 0.3632(8)
N14D N 0.8912(9) 0.6831(8) 0.1368(8)
N15B N 0.5444(9) 1.1126(8) 0.3631(7)
N16B N 0.5024(10) 1.1026(7) 0.4504(8)
N16A N 0.5024(10) 0.8974(7) 0.5496(8)
C1B C 0.6563(11) 0.8826(10) 0.2586(14)
H1B H 0.6467 0.8744 0.3238
C2E C 0.3772(12) 0.6536(10) 0.4997(17)
H2E H 0.3639 0.6433 0.4354
C3E C 0.1751(9) 0.9439(8) 0.7563(10)
H3E H 0.1883 0.9550 0.8204
C4B C 0.5451(11) 1.1694(9) 0.4976(15)
H4B H 0.5306 1.1793 0.5617
loop_
_geom_bond_atom_site_label_1
_geom_bond_atom_site_label_2
_geom_bond_site_symmetry_1
_geom_bond_site_symmetry_2
Cu1 N4 1_555 1_555
Cu2 N3 1_555 1_555
Cu3 N1 1_555 1_555
Cu4 N2 1_555 1_555
Cu5 N5 1_555 1_555
Cu6 N6 1_555 1_555
N1 N2 1_555 1_555
N2 N3 1_555 1_555
N3 N4 1_555 1_555
N4 C1 1_555 1_555
N5 N6 1_555 1_555
N6 N7 1_555 1_555
N7 Cu3 1_555 1_555
N8 N7 1_555 1_555
N9 N10 1_555 1_555
N10 N11 1_555 1_555
N11 N12 1_555 1_555
N12 Cu3 1_555 1_555
N13 N14 1_555 1_555
N14 N15 1_555 1_555
N15 Cu1 1_555 1_555
N16 N15 1_555 1_555
C1 N1 1_555 1_555
H1 C1 1_555 1_555
C2 N5 1_555 1_555
H2 C2 1_555 1_555
C3 N9 1_555 1_555
H3 C3 1_555 1_555
C4 N13 1_555 1_555
H4 C4 1_555 1_555
Cu2A N16 1_555 1_555
Cu3B N1B 1_555 1_555
Cu3F N14 1_555 1_555
Cu3D N14B 1_555 1_555
Cu3E N7E 1_555 1_555
Cu4B N2B 1_555 1_555
Cu4E N8 1_555 1_555
Cu4F N13 1_555 1_555
Cu4D N13B 1_555 1_555
Cu5D N10 1_555 1_555
Cu5E N5E 1_555 1_555
Cu5A N10E 1_555 1_555
Cu6D N9 1_555 1_555
Cu6E N6E 1_555 1_555
Cu6A N9E 1_555 1_555
N1B N2B 1_555 1_555
N2B N3B 1_555 1_555
N3B Cu2A 1_555 1_555
N3C Cu2 1_555 1_555
N4B Cu1 1_555 1_555
N5E N6E 1_555 1_555
N5C Cu5 1_555 1_555
N6E N7E 1_555 1_555
N6B Cu6 1_555 1_555
N7E N8E 1_555 1_555
N7B Cu3B 1_555 1_555
N8E Cu4 1_555 1_555
N8G Cu4B 1_555 1_555
N9E N10E 1_555 1_555
N9D Cu6 1_555 1_555
N9F Cu6 1_555 1_555
N10E N11E 1_555 1_555
N10D Cu5 1_555 1_555
N10G Cu5 1_555 1_555
N11E Cu4 1_555 1_555
N11G Cu4B 1_555 1_555
N12E Cu3E 1_555 1_555
N12B Cu3B 1_555 1_555
N13B N14B 1_555 1_555
N13F Cu4 1_555 1_555
N13D Cu4B 1_555 1_555
N14B N15B 1_555 1_555
N14F Cu3 1_555 1_555
N14D Cu3B 1_555 1_555
N15B Cu1 1_555 1_555
N16B Cu2 1_555 1_555
N16A Cu2 1_555 1_555
C1B N1B 1_555 1_555
H1B C1B 1_555 1_555
C2E N5E 1_555 1_555
H2E C2E 1_555 1_555
C3E N9E 1_555 1_555
H3E C3E 1_555 1_555
C4B N13B 1_555 1_555
H4B C4B 1_555 1_555
N8 C2 1_555 1_555
N11 Cu4E 1_555 1_555
N12 C3 1_555 1_555
N16 C4 1_555 1_555
N3B N4B 1_555 1_555
N4B C1B 1_555 1_555
N8E C2E 1_555 1_555
N9D N10D 1_555 1_555
N11E N12E 1_555 1_555
N12E C3E 1_555 1_555
N13F N14F 1_555 1_555
N13D N14D 1_555 1_555
N15B N16B 1_555 1_555
N16B C4B 1_555 1_555

#END
