
#######################################################################
#
#                 Cambridge Crystallographic Data Centre
#                                CCDC 
#
#######################################################################
#
# If this CIF has been generated from an entry in the Cambridge 
# Structural Database, then it will include bibliographic, chemical, 
# crystal, experimental, refinement or atomic coordinate data resulting 
# from the CCDC's data processing and validation procedures.
#
#######################################################################

data_WEKYOC
_symmetry_cell_setting           monoclinic
_symmetry_space_group_name_H-M   'P 21/c'
_symmetry_Int_Tables_number      14
_space_group_name_Hall           '-P 2ybc'
loop_
_symmetry_equiv_pos_site_id
_symmetry_equiv_pos_as_xyz
1 x,y,z
2 -x,1/2+y,1/2-z
3 -x,-y,-z
4 x,1/2-y,1/2+z
_cell_length_a                   5.4998(2)
_cell_length_b                   10.6053(4)
_cell_length_c                   15.2719(6)
_cell_angle_alpha                90
_cell_angle_beta                 99.942(2)
_cell_angle_gamma                90
_cell_volume                     877.388
loop_
_atom_site_label
_atom_site_type_symbol
_atom_site_fract_x
_atom_site_fract_y
_atom_site_fract_z
O1 O -0.00605(17) 0.69185(10) 0.40065(7)
O2 O -0.28086(19) 0.93004(10) 0.32473(7)
O3 O 0.39460(18) 0.70151(11) 0.39881(8)
C1 C -0.0189(2) 0.94353(12) 0.46775(8)
H1 H -0.1449 0.8876 0.4847
C2 C 0.2010(2) 0.74583(13) 0.41869(9)
C3 C -0.1046(2) 0.98847(13) 0.37198(9)
O4 O -0.4021(2) 0.66386(12) 0.22779(8)
H4 H -0.4918 0.5993 0.2308
H5 H -0.2666 0.6419 0.2127
O5 O 0.0041(2) 1.07828(11) 0.34376(8)
C4 C 0.2216(2) 0.86872(14) 0.47059(9)
H6 H 0.3398 0.9224 0.4481
H7 H 0.2885 0.8501 0.5322
Li1 Li -0.3342(4) 0.7487(2) 0.34509(17)
O1B O 0.00605(17) 1.30815(10) 0.59935(7)
O1B_2 O -0.99395(17) 1.30815(10) 0.59935(7)
O2B O 0.28086(19) 1.06996(10) 0.67527(7)
O2B_2 O -0.71914(19) 1.06996(10) 0.67527(7)
O3B O -0.39460(18) 1.29849(11) 0.60119(8)
O3_2 O -0.60540(18) 0.70151(11) 0.39881(8)
C1B C 0.0189(2) 1.05647(12) 0.53225(8)
H1B H 0.1449 1.1124 0.5153
C2B C -0.2010(2) 1.25417(13) 0.58131(9)
C3B C 0.1046(2) 1.01153(13) 0.62802(9)
O4B O -0.5979(2) 1.33614(12) 0.77221(8)
H4B H -0.5082 1.4007 0.7692
H5B H -0.7334 1.3581 0.7873
O5B O -0.0041(2) 0.92172(11) 0.65624(8)
C4B C -0.2216(2) 1.13128(14) 0.52941(9)
H6B H -0.3398 1.0776 0.5519
H7B H -0.2885 1.1499 0.4678
Li1B Li 0.3342(4) 1.2513(2) 0.65491(17)
Li1_2 Li 0.6658(4) 0.7487(2) 0.34509(17)
Li1B_2 Li -0.6658(4) 1.2513(2) 0.65491(17)
N1 N 0.0996(2) 0.45128(12) 0.34075(8)
H2 H 0.0654 0.5319 0.3524
H3 H 0.1741 0.4508 0.2927
C5 C 0.2709(4) 0.39917(19) 0.41739(11)
H8 H 0.4187 0.4490 0.4280
H9 H 0.3116 0.3138 0.4048
H10 H 0.1937 0.4008 0.4692
C6 C -0.1333(3) 0.38007(19) 0.32025(14)
H11 H -0.2372 0.4176 0.2700
H12 H -0.2159 0.3820 0.3707
H13 H -0.0984 0.2943 0.3066
loop_
_geom_bond_atom_site_label_1
_geom_bond_atom_site_label_2
_geom_bond_site_symmetry_1
_geom_bond_site_symmetry_2
O1 C2 1_555 1_555
O2 C3 1_555 1_555
O3 C2 1_555 1_555
C1 H1 1_555 1_555
N1 H2 1_555 1_555
H3 N1 1_555 1_555
C2 C4 1_555 1_555
C3 C1 1_555 1_555
O4 H4 1_555 1_555
H5 O4 1_555 1_555
O5 C3 1_555 1_555
C4 C1 1_555 1_555
H6 C4 1_555 1_555
H7 C4 1_555 1_555
C5 N1 1_555 1_555
H8 C5 1_555 1_555
H9 C5 1_555 1_555
H10 C5 1_555 1_555
C6 N1 1_555 1_555
H11 C6 1_555 1_555
H12 C6 1_555 1_555
H13 C6 1_555 1_555
Li1 O1 1_555 1_555
O1B C2B 1_555 1_555
O1B_2 Li1B_2 1_555 1_555
O2B C3B 1_555 1_555
O2B_2 Li1B_2 1_555 1_555
O3B C2B 1_555 1_555
O3_2 Li1 1_555 1_555
C1B C1 1_555 1_555
H1B C1B 1_555 1_555
C2B C4B 1_555 1_555
C3B C1B 1_555 1_555
O4B H4B 1_555 1_555
H5B O4B 1_555 1_555
O5B C3B 1_555 1_555
C4B C1B 1_555 1_555
H6B C4B 1_555 1_555
H7B C4B 1_555 1_555
Li1B O1B 1_555 1_555
Li1_2 O3 1_555 1_555
Li1B_2 O3B 1_555 1_555
O2 Li1 1_555 1_555
O4 Li1 1_555 1_555
O2B Li1B 1_555 1_555
O4B Li1B_2 1_555 1_555

#END
