
#######################################################################
#
#                 Cambridge Crystallographic Data Centre
#                                CCDC 
#
#######################################################################
#
# If this CIF has been generated from an entry in the Cambridge 
# Structural Database, then it will include bibliographic, chemical, 
# crystal, experimental, refinement or atomic coordinate data resulting 
# from the CCDC's data processing and validation procedures.
#
#######################################################################

data_WEKYIW
_symmetry_cell_setting           triclinic
_symmetry_space_group_name_H-M   'P -1'
_symmetry_Int_Tables_number      2
_space_group_name_Hall           '-P 1'
loop_
_symmetry_equiv_pos_site_id
_symmetry_equiv_pos_as_xyz
1 x,y,z
2 -x,-y,-z
_cell_length_a                   5.13440(10)
_cell_length_b                   7.7339(2)
_cell_length_c                   9.3901(2)
_cell_angle_alpha                107.1380(10)
_cell_angle_beta                 98.0990(10)
_cell_angle_gamma                93.3740(10)
_cell_volume                     350.77
loop_
_atom_site_label
_atom_site_type_symbol
_atom_site_fract_x
_atom_site_fract_y
_atom_site_fract_z
C1 C 0.2510(2) -0.09234(14) -0.30959(12)
C2 C 0.0614(2) -0.26326(15) -0.34881(12)
H1 H -0.1173 -0.2286 -0.3523
H2 H 0.0941 -0.3169 -0.2676
C3 C 0.0750(2) -0.40936(13) -0.49763(11)
H3 H 0.2607 -0.4274 -0.5047
C4 C -0.0474(2) -0.34905(13) -0.63172(11)
O1 O -0.23853(18) 0.16504(14) -0.03397(10)
H4 H -0.3951 0.1199 -0.0889
H5 H -0.2191 0.1085 0.0304
O2 O 0.3010(2) 0.39258(15) 0.06206(12)
H6 H 0.2697 0.4739 0.1344
H7 H 0.4606 0.3890 0.0674
O3 O 0.10635(15) -0.31078(11) -0.71588(9)
O4 O 0.39249(18) -0.06840(11) -0.40135(9)
O5 O -0.28974(16) -0.34124(12) -0.65273(10)
O6 O 0.25756(16) 0.02025(10) -0.18022(8)
Li1 Li 0.4520(4) -0.1786(3) -0.6091(2)
Li2 Li 0.0650(4) 0.2323(3) -0.1141(2)
C1A C -0.2510(2) -0.90766(14) -0.69041(12)
C2A C -0.0614(2) -0.73674(15) -0.65119(12)
H1A H 0.1173 -0.7714 -0.6477
H2A H -0.0941 -0.6831 -0.7324
C3A C -0.0750(2) -0.59064(13) -0.50237(11)
H3A H -0.2607 -0.5726 -0.4953
C4A C 0.0474(2) -0.65095(13) -0.36828(11)
O1A O 0.23853(18) -1.16504(14) -0.96603(10)
H4A H 0.3951 -1.1199 -0.9111
H5A H 0.2191 -1.1085 -1.0304
O2A O -0.3010(2) -1.39258(15) -1.06206(12)
H6A H -0.2697 -1.4739 -1.1344
H7A H -0.4606 -1.3890 -1.0674
O3A O -0.10635(15) -0.68922(11) -0.28412(9)
O3A_2 O -0.10635(15) 0.31078(11) -0.28412(9)
O3_2 O 0.10635(15) -1.31078(11) -0.71588(9)
O4A O -0.39249(18) -0.93160(11) -0.59865(9)
O4A_2 O 0.60751(18) 0.06840(11) -0.59865(9)
O4_2 O -0.60751(18) -1.06840(11) -0.40135(9)
O5A O 0.28974(16) -0.65876(12) -0.34727(10)
O5_2 O 0.71026(16) -0.34124(12) -0.65273(10)
O5A_2 O -0.71026(16) -0.65876(12) -0.34727(10)
O6A O -0.25756(16) -1.02025(10) -0.81978(8)
Li1A Li -0.4520(4) -0.8214(3) -0.3909(2)
Li1A_2 Li 0.5480(4) 0.1786(3) -0.3909(2)
Li1_2 Li -0.5480(4) -0.1786(3) -0.6091(2)
Li1_3 Li -0.5480(4) -1.1786(3) -0.6091(2)
Li1A_3 Li 0.5480(4) -0.8214(3) -0.3909(2)
Li2_2 Li 0.0650(4) -0.7677(3) -0.1141(2)
Li2A Li -0.0650(4) -0.2323(3) -0.8859(2)
Li2A_2 Li -0.0650(4) -1.2323(3) -0.8859(2)
loop_
_geom_bond_atom_site_label_1
_geom_bond_atom_site_label_2
_geom_bond_site_symmetry_1
_geom_bond_site_symmetry_2
C1 C2 1_555 1_555
C2 H1 1_555 1_555
H2 C2 1_555 1_555
C3 C2 1_555 1_555
H3 C3 1_555 1_555
C4 C3 1_555 1_555
O1 H4 1_555 1_555
H5 O1 1_555 1_555
O2 H6 1_555 1_555
H7 O2 1_555 1_555
O3 C4 1_555 1_555
O4 C1 1_555 1_555
O5 C4 1_555 1_555
O6 C1 1_555 1_555
Li1 O3 1_555 1_555
Li2 O1 1_555 1_555
C1A C2A 1_555 1_555
C2A H1A 1_555 1_555
H2A C2A 1_555 1_555
C3A C3 1_555 1_555
H3A C3A 1_555 1_555
C4A C3A 1_555 1_555
O1A H4A 1_555 1_555
H5A O1A 1_555 1_555
O2A H6A 1_555 1_555
H7A O2A 1_555 1_555
O3A C4A 1_555 1_555
O3A_2 Li2 1_555 1_555
O3_2 Li2A_2 1_555 1_555
O4A C1A 1_555 1_555
O4A_2 Li1 1_555 1_555
O4_2 Li1A 1_555 1_555
O5A C4A 1_555 1_555
O5_2 Li1 1_555 1_555
O5A_2 Li1A 1_555 1_555
O6A C1A 1_555 1_555
Li1A O3A 1_555 1_555
Li1A_2 O4 1_555 1_555
Li1_2 O5 1_555 1_555
Li1_3 O4A 1_555 1_555
Li1A_3 O5A 1_555 1_555
Li2_2 O3A 1_555 1_555
Li2A O3 1_555 1_555
Li2A_2 O1A 1_555 1_555
O2 Li2 1_555 1_555
O4 Li1 1_555 1_555
O6 Li2 1_555 1_555
C2A C3A 1_555 1_555
O2A Li2A_2 1_555 1_555
O4A Li1A 1_555 1_555
O4A_2 Li1A_2 1_555 1_555
O4_2 Li1_3 1_555 1_555
O6A Li2A_2 1_555 1_555

#END
