
#######################################################################
#
#                 Cambridge Crystallographic Data Centre
#                                CCDC 
#
#######################################################################
#
# If this CIF has been generated from an entry in the Cambridge 
# Structural Database, then it will include bibliographic, chemical, 
# crystal, experimental, refinement or atomic coordinate data resulting 
# from the CCDC's data processing and validation procedures.
#
#######################################################################

data_WELJOO
_symmetry_cell_setting           orthorhombic
_symmetry_space_group_name_H-M   'P b c a'
_symmetry_Int_Tables_number      61
_space_group_name_Hall           '-P 2ac 2ab'
loop_
_symmetry_equiv_pos_site_id
_symmetry_equiv_pos_as_xyz
1 x,y,z
2 1/2-x,-y,1/2+z
3 -x,1/2+y,1/2-z
4 1/2+x,1/2-y,-z
5 -x,-y,-z
6 1/2+x,y,1/2-z
7 x,1/2-y,1/2+z
8 1/2-x,1/2+y,z
_cell_length_a                   9.4671(10)
_cell_length_b                   16.4024(17)
_cell_length_c                   37.998(4)
_cell_angle_alpha                90
_cell_angle_beta                 90
_cell_angle_gamma                90
_cell_volume                     5900.45
loop_
_atom_site_label
_atom_site_type_symbol
_atom_site_fract_x
_atom_site_fract_y
_atom_site_fract_z
Fe1 Fe 0.52191(4) 0.30033(3) 0.795302(11)
O1 O 0.5746(2) 0.29324(13) 0.84211(5)
C1 C 0.2753(3) 0.2737(2) 0.84659(8)
H1 H 0.1820 0.2523 0.8516
H2 H 0.2712 0.3325 0.8493
C2 C 0.3117(4) 0.1660(2) 0.80248(10)
H3 H 0.2313 0.1527 0.7877
H4 H 0.2996 0.1376 0.8247
N1 N 0.3114(3) 0.25460(16) 0.80931(6)
C3 C 0.4438(4) 0.1347(2) 0.78495(10)
O2 O 0.5492(2) 0.18264(14) 0.78281(7)
O3 O 0.4438(3) 0.06438(17) 0.77387(9)
C4 C 0.2131(3) 0.2970(2) 0.78529(8)
H5 H 0.1854 0.3488 0.7955
H6 H 0.1286 0.2643 0.7822
C5 C 0.2821(3) 0.31159(19) 0.74990(8)
O4 O 0.4138(2) 0.31250(13) 0.74906(5)
O5 O 0.4656(2) 0.42024(13) 0.80177(6)
C6 C 0.5352(4) 0.4778(2) 0.82475(10)
H7 H 0.5368 0.5309 0.8135
H8 H 0.6321 0.4607 0.8284
C7 C 0.4638(5) 0.4844(3) 0.85891(11)
H9 H 0.4562 0.4309 0.8696
H10 H 0.5184 0.5190 0.8745
O6 O 0.3280(4) 0.5177(3) 0.85416(9)
H11 H 0.2846 0.5160 0.8728
O7 O 0.2080(2) 0.32582(14) 0.72356(5)
C8 C 0.3777(3) 0.23995(18) 0.87340(7)
C9 C 0.5238(3) 0.25337(17) 0.86973(7)
C10 C 0.6176(3) 0.22671(18) 0.89609(8)
C11 C 0.5602(3) 0.19046(19) 0.92613(8)
H12 H 0.6210 0.1740 0.9440
C12 C 0.4156(3) 0.17783(18) 0.93047(8)
C13 C 0.3269(3) 0.20097(19) 0.90308(8)
H13 H 0.2307 0.1899 0.9048
C14 C 0.7766(3) 0.23610(19) 0.88976(8)
C15 C 0.8180(4) 0.1800(2) 0.85874(10)
H14 H 0.7703 0.1977 0.8378
H15 H 0.7912 0.1249 0.8640
H16 H 0.9183 0.1826 0.8551
C16 C 0.8639(4) 0.2085(2) 0.92189(10)
H17 H 0.9626 0.2167 0.9172
H18 H 0.8468 0.1518 0.9263
H19 H 0.8368 0.2399 0.9421
C17 C 0.8159(3) 0.3253(2) 0.88265(9)
C18 C 0.8933(4) 0.3502(2) 0.85365(10)
H20 H 0.9188 0.3120 0.8367
C19 C 0.9337(4) 0.4309(3) 0.84930(12)
H21 H 0.9860 0.4460 0.8296
C20 C 0.8972(4) 0.4879(3) 0.87365(14)
H22 H 0.9261 0.5418 0.8709
C21 C 0.8172(4) 0.4655(2) 0.90234(12)
H23 H 0.7900 0.5044 0.9188
C22 C 0.7771(4) 0.3847(2) 0.90665(10)
H24 H 0.7231 0.3701 0.9261
C23 C 0.3499(3) 0.14243(19) 0.96435(8)
C24 C 0.4617(4) 0.1210(3) 0.99202(9)
H25 H 0.5105 0.1696 0.9991
H26 H 0.5281 0.0830 0.9822
H27 H 0.4167 0.0969 1.0121
C25 C 0.2539(4) 0.2085(2) 0.98052(9)
H28 H 0.1809 0.2225 0.9641
H29 H 0.3091 0.2561 0.9858
H30 H 0.2119 0.1881 1.0018
C26 C 0.2680(4) 0.0644(2) 0.95535(8)
C27 C 0.3379(4) -0.0004(2) 0.94020(10)
H31 H 0.4329 0.0054 0.9345
C28 C 0.2715(6) -0.0735(3) 0.93318(11)
H32 H 0.3222 -0.1163 0.9232
C29 C 0.1312(6) -0.0833(3) 0.94092(12)
H33 H 0.0860 -0.1327 0.9366
C30 C 0.0590(5) -0.0192(3) 0.95502(11)
H34 H -0.0369 -0.0247 0.9597
C31 C 0.1259(4) 0.0540(2) 0.96247(10)
H35 H 0.0746 0.0966 0.9724
Fe1E Fe 0.02191(4) 0.30033(3) 0.704698(11)
O7E O 0.7080(2) 0.32582(14) 0.77644(5)
O8 O 0.3188(4) 0.49580(19) 0.75646(10)
H36 H 0.372(8) 0.524(4) 0.7346(19)
H37 H 0.247(7) 0.514(4) 0.7609(16)
loop_
_geom_bond_atom_site_label_1
_geom_bond_atom_site_label_2
_geom_bond_site_symmetry_1
_geom_bond_site_symmetry_2
Fe1 O1 1_555 1_555
O1 C9 1_555 1_555
C1 H1 1_555 1_555
H2 C1 1_555 1_555
C2 H3 1_555 1_555
H4 C2 1_555 1_555
N1 Fe1 1_555 1_555
C3 C2 1_555 1_555
O2 Fe1 1_555 1_555
O3 C3 1_555 1_555
C4 N1 1_555 1_555
H5 C4 1_555 1_555
H6 C4 1_555 1_555
C5 C4 1_555 1_555
O4 Fe1 1_555 1_555
O5 Fe1 1_555 1_555
C6 O5 1_555 1_555
H7 C6 1_555 1_555
H8 C6 1_555 1_555
C7 C6 1_555 1_555
H9 C7 1_555 1_555
H10 C7 1_555 1_555
O6 C7 1_555 1_555
H11 O6 1_555 1_555
O7 C5 1_555 1_555
C8 C1 1_555 1_555
C9 C8 1_555 1_555
C10 C9 1_555 1_555
C11 C10 1_555 1_555
H12 C11 1_555 1_555
C12 C11 1_555 1_555
C13 C8 1_555 1_555
H13 C13 1_555 1_555
C14 C10 1_555 1_555
C15 C14 1_555 1_555
H14 C15 1_555 1_555
H15 C15 1_555 1_555
H16 C15 1_555 1_555
C16 C14 1_555 1_555
H17 C16 1_555 1_555
H18 C16 1_555 1_555
H19 C16 1_555 1_555
C17 C14 1_555 1_555
C18 C17 1_555 1_555
H20 C18 1_555 1_555
C19 C18 1_555 1_555
H21 C19 1_555 1_555
C20 C19 1_555 1_555
H22 C20 1_555 1_555
C21 C20 1_555 1_555
H23 C21 1_555 1_555
C22 C17 1_555 1_555
H24 C22 1_555 1_555
C23 C12 1_555 1_555
C24 C23 1_555 1_555
H25 C24 1_555 1_555
H26 C24 1_555 1_555
H27 C24 1_555 1_555
C25 C23 1_555 1_555
H28 C25 1_555 1_555
H29 C25 1_555 1_555
H30 C25 1_555 1_555
C26 C23 1_555 1_555
C27 C26 1_555 1_555
H31 C27 1_555 1_555
C28 C27 1_555 1_555
H32 C28 1_555 1_555
C29 C28 1_555 1_555
H33 C29 1_555 1_555
C30 C29 1_555 1_555
H34 C30 1_555 1_555
C31 C26 1_555 1_555
H35 C31 1_555 1_555
O8 H36 1_555 1_555
H37 O8 1_555 1_555
Fe1E O7 1_555 1_555
O7E Fe1 1_555 1_555
C1 N1 1_555 1_555
C2 N1 1_555 1_555
C3 O2 1_555 1_555
C5 O4 1_555 1_555
C12 C13 1_555 1_555
C21 C22 1_555 1_555
C30 C31 1_555 1_555

#END
