
#######################################################################
#
#                 Cambridge Crystallographic Data Centre
#                                CCDC 
#
#######################################################################
#
# If this CIF has been generated from an entry in the Cambridge 
# Structural Database, then it will include bibliographic, chemical, 
# crystal, experimental, refinement or atomic coordinate data resulting 
# from the CCDC's data processing and validation procedures.
#
#######################################################################

data_WELJEE
_symmetry_cell_setting           orthorhombic
_symmetry_space_group_name_H-M   'P b c a'
_symmetry_Int_Tables_number      61
_space_group_name_Hall           '-P 2ac 2ab'
loop_
_symmetry_equiv_pos_site_id
_symmetry_equiv_pos_as_xyz
1 x,y,z
2 1/2-x,-y,1/2+z
3 -x,1/2+y,1/2-z
4 1/2+x,1/2-y,-z
5 -x,-y,-z
6 1/2+x,y,1/2-z
7 x,1/2-y,1/2+z
8 1/2-x,1/2+y,z
_cell_length_a                   9.411(5)
_cell_length_b                   16.390(8)
_cell_length_c                   37.968(19)
_cell_angle_alpha                90
_cell_angle_beta                 90
_cell_angle_gamma                90
_cell_volume                     5856.42
loop_
_atom_site_label
_atom_site_type_symbol
_atom_site_fract_x
_atom_site_fract_y
_atom_site_fract_z
Fe1 Fe 0.52880(5) 0.20388(3) 0.295832(13)
O1 O 0.5547(3) 0.32201(17) 0.28227(8)
C1 C 0.4498(4) 0.3697(3) 0.28483(11)
C2 C 0.3193(5) 0.3394(3) 0.30405(11)
H1 H 0.3144 0.3661 0.3268
H2 H 0.2356 0.3553 0.2908
O2 O 0.4481(3) 0.44112(19) 0.27384(9)
O3 O 0.4227(3) 0.19105(16) 0.24954(6)
C3 C 0.2174(4) 0.2101(3) 0.28478(9)
H3 H 0.1357 0.2450 0.2809
H4 H 0.1840 0.1592 0.2949
C4 C 0.2897(4) 0.1931(2) 0.24996(9)
O4 O 0.2167(3) 0.17931(16) 0.22303(6)
O5 O 0.4699(3) 0.08494(17) 0.30273(7)
C5 C 0.5329(5) 0.0273(3) 0.32718(12)
H5 H 0.6168 0.0514 0.3378
H6 H 0.5620 -0.0213 0.3145
C6 C 0.4320(6) 0.0048(3) 0.35483(13)
H7 H 0.4098 0.0520 0.3688
H8 H 0.4733 -0.0364 0.3696
H9 H 0.3466 -0.0159 0.3443
N1 N 0.3160(3) 0.2500(2) 0.30951(7)
C7 C 0.2783(4) 0.2298(2) 0.34653(9)
H10 H 0.2741 0.1709 0.3489
H11 H 0.1840 0.2509 0.3514
C8 C 0.3789(4) 0.2625(2) 0.37390(9)
C9 C 0.5260(4) 0.2495(2) 0.37052(8)
O6 O 0.5797(3) 0.21199(16) 0.34247(6)
C10 C 0.6187(4) 0.2753(2) 0.39742(9)
C11 C 0.5613(4) 0.3104(2) 0.42727(9)
H12 H 0.6217 0.3258 0.4455
C12 C 0.4143(4) 0.3237(2) 0.43105(9)
C13 C 0.3262(4) 0.3010(2) 0.40365(9)
C14 C 0.7805(4) 0.2652(2) 0.39133(9)
C15 C 0.8256(4) 0.3227(2) 0.36168(11)
H13 H 0.9257 0.3171 0.3575
H14 H 0.8049 0.3780 0.3683
H15 H 0.7744 0.3093 0.3406
C16 C 0.8662(4) 0.2900(3) 0.42413(10)
H16 H 0.8382 0.2567 0.4437
H17 H 0.8482 0.3463 0.4295
H18 H 0.9658 0.2825 0.4196
C17 C 0.8169(4) 0.1760(2) 0.38361(9)
C18 C 0.8949(4) 0.1519(2) 0.35425(10)
H19 H 0.9224 0.1910 0.3378
C19 C 0.9325(4) 0.0715(3) 0.34892(12)
H20 H 0.9841 0.0571 0.3290
C20 C 0.8943(5) 0.0120(3) 0.37295(13)
H21 H 0.9214 -0.0420 0.3696
C21 C 0.8151(4) 0.0345(3) 0.40198(12)
H22 H 0.7875 -0.0049 0.4182
C22 C 0.7761(4) 0.1154(3) 0.40720(10)
H23 H 0.7219 0.1292 0.4268
C23 C 0.3474(4) 0.3594(2) 0.46493(9)
C24 C 0.2509(4) 0.2936(2) 0.48082(9)
H24 H 0.2081 0.3140 0.5020
H25 H 0.3062 0.2460 0.4862
H26 H 0.1778 0.2797 0.4642
C25 C 0.4592(4) 0.3811(3) 0.49277(10)
H27 H 0.4127 0.4018 0.5134
H28 H 0.5221 0.4220 0.4835
H29 H 0.5127 0.3333 0.4988
C26 C 0.2663(4) 0.4374(2) 0.45585(9)
C27 C 0.3381(5) 0.5022(2) 0.44056(11)
H30 H 0.4337 0.4963 0.4350
C28 C 0.2713(5) 0.5754(3) 0.43342(11)
H31 H 0.3225 0.6182 0.4236
C29 C 0.1301(5) 0.5850(3) 0.44072(12)
H32 H 0.0852 0.6343 0.4360
C30 C 0.0548(5) 0.5215(3) 0.45503(11)
H33 H -0.0417 0.5275 0.4596
C31 C 0.1226(4) 0.4482(3) 0.46267(10)
H34 H 0.0707 0.4057 0.4725
Fe1E Fe 0.02880(5) 0.20388(3) 0.204168(13)
O4E O 0.7167(3) 0.17931(16) 0.27697(6)
O7 O 0.6815(4) 0.5082(2) 0.24140(10)
H35 H 0.755(5) 0.483(3) 0.2403(11)
H36 H 0.639(7) 0.475(4) 0.2586(17)
loop_
_geom_bond_atom_site_label_1
_geom_bond_atom_site_label_2
_geom_bond_site_symmetry_1
_geom_bond_site_symmetry_2
Fe1 O1 1_555 1_555
O1 C1 1_555 1_555
C1 C2 1_555 1_555
C2 H1 1_555 1_555
H2 C2 1_555 1_555
O2 C1 1_555 1_555
O3 Fe1 1_555 1_555
C3 H3 1_555 1_555
H4 C3 1_555 1_555
C4 O3 1_555 1_555
O4 C4 1_555 1_555
O5 Fe1 1_555 1_555
C5 O5 1_555 1_555
H5 C5 1_555 1_555
H6 C5 1_555 1_555
C6 C5 1_555 1_555
H7 C6 1_555 1_555
H8 C6 1_555 1_555
H9 C6 1_555 1_555
N1 Fe1 1_555 1_555
C7 N1 1_555 1_555
H10 C7 1_555 1_555
H11 C7 1_555 1_555
C8 C7 1_555 1_555
C9 C8 1_555 1_555
O6 Fe1 1_555 1_555
C10 C9 1_555 1_555
C11 C10 1_555 1_555
H12 C11 1_555 1_555
C12 C11 1_555 1_555
C13 C8 1_555 1_555
C14 C10 1_555 1_555
C15 C14 1_555 1_555
H13 C15 1_555 1_555
H14 C15 1_555 1_555
H15 C15 1_555 1_555
C16 C14 1_555 1_555
H16 C16 1_555 1_555
H17 C16 1_555 1_555
H18 C16 1_555 1_555
C17 C14 1_555 1_555
C18 C17 1_555 1_555
H19 C18 1_555 1_555
C19 C18 1_555 1_555
H20 C19 1_555 1_555
C20 C19 1_555 1_555
H21 C20 1_555 1_555
C21 C20 1_555 1_555
H22 C21 1_555 1_555
C22 C17 1_555 1_555
H23 C22 1_555 1_555
C23 C12 1_555 1_555
C24 C23 1_555 1_555
H24 C24 1_555 1_555
H25 C24 1_555 1_555
H26 C24 1_555 1_555
C25 C23 1_555 1_555
H27 C25 1_555 1_555
H28 C25 1_555 1_555
H29 C25 1_555 1_555
C26 C23 1_555 1_555
C27 C26 1_555 1_555
H30 C27 1_555 1_555
C28 C27 1_555 1_555
H31 C28 1_555 1_555
C29 C28 1_555 1_555
H32 C29 1_555 1_555
C30 C29 1_555 1_555
H33 C30 1_555 1_555
C31 C26 1_555 1_555
H34 C31 1_555 1_555
O7 H35 1_555 1_555
H36 O7 1_555 1_555
Fe1E O4 1_555 1_555
O4E Fe1 1_555 1_555
C2 N1 1_555 1_555
C3 C4 1_555 1_555
C3 N1 1_555 1_555
C9 O6 1_555 1_555
C12 C13 1_555 1_555
C21 C22 1_555 1_555
C30 C31 1_555 1_555

#END
