
#######################################################################
#
#                 Cambridge Crystallographic Data Centre
#                                CCDC 
#
#######################################################################
#
# If this CIF has been generated from an entry in the Cambridge 
# Structural Database, then it will include bibliographic, chemical, 
# crystal, experimental, refinement or atomic coordinate data resulting 
# from the CCDC's data processing and validation procedures.
#
#######################################################################

data_WELJII
_symmetry_cell_setting           orthorhombic
_symmetry_space_group_name_H-M   'P b c a'
_symmetry_Int_Tables_number      61
_space_group_name_Hall           '-P 2ac 2ab'
loop_
_symmetry_equiv_pos_site_id
_symmetry_equiv_pos_as_xyz
1 x,y,z
2 1/2-x,-y,1/2+z
3 -x,1/2+y,1/2-z
4 1/2+x,1/2-y,-z
5 -x,-y,-z
6 1/2+x,y,1/2-z
7 x,1/2-y,1/2+z
8 1/2-x,1/2+y,z
_cell_length_a                   9.556(2)
_cell_length_b                   16.496(4)
_cell_length_c                   38.041(9)
_cell_angle_alpha                90
_cell_angle_beta                 90
_cell_angle_gamma                90
_cell_volume                     5996.62
loop_
_atom_site_label
_atom_site_type_symbol
_atom_site_fract_x
_atom_site_fract_y
_atom_site_fract_z
Fe1 Fe 1.03420(3) 0.208077(18) 0.205058(7)
O1 O 1.08442(15) 0.21975(9) 0.15829(4)
C1 C 0.8258(3) 0.34060(14) 0.19629(6)
H1 H 0.7411 0.3563 0.2086
H2 H 0.8247 0.3670 0.1735
O2 O 0.9446(2) 0.44153(11) 0.22841(6)
C2 C 0.9513(3) 0.37113(14) 0.21691(6)
O3 O 1.05526(16) 0.32461(10) 0.22011(4)
O4 O 0.72254(15) 0.18325(10) 0.27749(4)
C3 C 0.7258(2) 0.21146(16) 0.21566(5)
H3 H 0.6941 0.1606 0.2056
H4 H 0.6446 0.2458 0.2192
N1 N 0.82372(18) 0.25159(11) 0.19091(4)
C4 C 0.7963(2) 0.19527(13) 0.25089(5)
O5 O 0.92716(15) 0.19218(9) 0.25135(4)
O6 O 0.98355(18) 0.08975(10) 0.19703(4)
H5 H 0.931(3) 0.0613(18) 0.2084(7)
C5 C 1.0637(3) 0.03735(15) 0.17368(6)
H6 H 1.0761 -0.0153 0.1846
H7 H 1.1556 0.0607 0.1698
C6 C 0.9901(3) 0.02707(15) 0.13888(6)
H8 H 1.0521 -0.0008 0.1227
H9 H 0.9703 0.0802 0.1291
C7 C 0.8541(3) -0.02030(17) 0.14173(7)
H10 H 0.8733 -0.0739 0.1503
H11 H 0.8110 -0.0239 0.1190
H12 H 0.7920 0.0069 0.1577
C8 C 0.7863(2) 0.22981(14) 0.15394(5)
H13 H 0.6922 0.2490 0.1492
H14 H 0.7854 0.1712 0.1518
C9 C 0.8838(2) 0.26399(13) 0.12635(5)
C10 C 1.0296(2) 0.25446(12) 0.12991(5)
C11 C 1.1199(2) 0.28133(12) 0.10286(5)
C12 C 1.0594(2) 0.31404(13) 0.07250(5)
H15 H 1.1180 0.3302 0.0543
C13 C 0.9153(2) 0.32345(13) 0.06832(5)
C14 C 0.8299(2) 0.29937(13) 0.09617(5)
H16 H 0.7337 0.3073 0.0944
C15 C 1.2786(2) 0.27508(14) 0.10888(6)
C16 C 1.3622(3) 0.30350(17) 0.07648(7)
H17 H 1.3385 0.2703 0.0566
H18 H 1.4605 0.2989 0.0812
H19 H 1.3395 0.3590 0.0714
C17 C 1.3177(3) 0.33187(14) 0.13941(7)
H20 H 1.2870 0.3859 0.1341
H21 H 1.4173 0.3316 0.1426
H22 H 1.2731 0.3135 0.1606
C18 C 1.3213(2) 0.18685(14) 0.11605(6)
C19 C 1.4003(2) 0.16348(15) 0.14519(6)
H23 H 1.4246 0.2019 0.1620
C20 C 1.4432(3) 0.08367(17) 0.14948(7)
H24 H 1.4957 0.0693 0.1691
C21 C 1.4084(3) 0.02554(17) 0.12490(8)
H25 H 1.4394 -0.0276 0.1275
C22 C 1.3276(3) 0.04718(16) 0.09655(7)
H26 H 1.3014 0.0080 0.0802
C23 C 1.2845(2) 0.12668(15) 0.09202(6)
H27 H 1.2302 0.1402 0.0726
C24 C 0.8475(2) 0.35682(14) 0.03441(5)
C25 C 0.9571(3) 0.37557(17) 0.00584(6)
H28 H 0.9110 0.3967 -0.0146
H29 H 1.0061 0.3267 -0.0002
H30 H 1.0224 0.4149 0.0146
C26 C 0.7498(3) 0.29113(15) 0.01941(6)
H31 H 0.6782 0.2788 0.0363
H32 H 0.8028 0.2431 0.0145
H33 H 0.7073 0.3106 -0.0018
C27 C 0.7684(2) 0.43571(14) 0.04263(5)
C28 C 0.6257(3) 0.44584(16) 0.03716(6)
H34 H 0.5729 0.4027 0.0287
C29 C 0.5608(3) 0.51941(17) 0.04419(7)
H35 H 0.4651 0.5249 0.0404
C30 C 0.6364(3) 0.58448(17) 0.05676(7)
H36 H 0.5926 0.6337 0.0613
C31 C 0.7782(3) 0.57532(17) 0.06244(7)
H37 H 0.8306 0.6187 0.0709
C32 C 0.8427(3) 0.50195(15) 0.05565(6)
H38 H 0.9382 0.4967 0.0599
Fe1E Fe 0.53420(3) 0.208077(18) 0.294942(7)
O4E O 1.22254(15) 0.18325(10) 0.22251(4)
O7 O 0.8242(2) 0.00980(12) 0.23908(6)
H39 H 0.878(5) -0.014(2) 0.2533(11)
H40 H 0.748(4) -0.009(2) 0.2384(9)
loop_
_geom_bond_atom_site_label_1
_geom_bond_atom_site_label_2
_geom_bond_site_symmetry_1
_geom_bond_site_symmetry_2
Fe1 O1 1_555 1_555
O1 C10 1_555 1_555
C1 H1 1_555 1_555
H2 C1 1_555 1_555
O2 C2 1_555 1_555
C2 C1 1_555 1_555
O3 Fe1 1_555 1_555
O4 C4 1_555 1_555
C3 H3 1_555 1_555
H4 C3 1_555 1_555
N1 Fe1 1_555 1_555
C4 C3 1_555 1_555
O5 Fe1 1_555 1_555
O6 Fe1 1_555 1_555
H5 O6 1_555 1_555
C5 O6 1_555 1_555
H6 C5 1_555 1_555
H7 C5 1_555 1_555
C6 C5 1_555 1_555
H8 C6 1_555 1_555
H9 C6 1_555 1_555
C7 C6 1_555 1_555
H10 C7 1_555 1_555
H11 C7 1_555 1_555
H12 C7 1_555 1_555
C8 N1 1_555 1_555
H13 C8 1_555 1_555
H14 C8 1_555 1_555
C9 C8 1_555 1_555
C10 C9 1_555 1_555
C11 C10 1_555 1_555
C12 C11 1_555 1_555
H15 C12 1_555 1_555
C13 C12 1_555 1_555
C14 C9 1_555 1_555
H16 C14 1_555 1_555
C15 C11 1_555 1_555
C16 C15 1_555 1_555
H17 C16 1_555 1_555
H18 C16 1_555 1_555
H19 C16 1_555 1_555
C17 C15 1_555 1_555
H20 C17 1_555 1_555
H21 C17 1_555 1_555
H22 C17 1_555 1_555
C18 C15 1_555 1_555
C19 C18 1_555 1_555
H23 C19 1_555 1_555
C20 C19 1_555 1_555
H24 C20 1_555 1_555
C21 C20 1_555 1_555
H25 C21 1_555 1_555
C22 C21 1_555 1_555
H26 C22 1_555 1_555
C23 C18 1_555 1_555
H27 C23 1_555 1_555
C24 C13 1_555 1_555
C25 C24 1_555 1_555
H28 C25 1_555 1_555
H29 C25 1_555 1_555
H30 C25 1_555 1_555
C26 C24 1_555 1_555
H31 C26 1_555 1_555
H32 C26 1_555 1_555
H33 C26 1_555 1_555
C27 C24 1_555 1_555
C28 C27 1_555 1_555
H34 C28 1_555 1_555
C29 C28 1_555 1_555
H35 C29 1_555 1_555
C30 C29 1_555 1_555
H36 C30 1_555 1_555
C31 C30 1_555 1_555
H37 C31 1_555 1_555
C32 C27 1_555 1_555
H38 C32 1_555 1_555
O7 H39 1_555 1_555
H40 O7 1_555 1_555
Fe1E O4 1_555 1_555
O4E Fe1 1_555 1_555
C1 N1 1_555 1_555
C2 O3 1_555 1_555
C3 N1 1_555 1_555
C4 O5 1_555 1_555
C13 C14 1_555 1_555
C22 C23 1_555 1_555
C31 C32 1_555 1_555

#END
