
#######################################################################
#
#                 Cambridge Crystallographic Data Centre
#                                CCDC 
#
#######################################################################
#
# If this CIF has been generated from an entry in the Cambridge 
# Structural Database, then it will include bibliographic, chemical, 
# crystal, experimental, refinement or atomic coordinate data resulting 
# from the CCDC's data processing and validation procedures.
#
#######################################################################

data_WELMIK
_symmetry_cell_setting           monoclinic
_symmetry_space_group_name_H-M   'C c'
_symmetry_Int_Tables_number      9
_space_group_name_Hall           'C -2yc'
loop_
_symmetry_equiv_pos_site_id
_symmetry_equiv_pos_as_xyz
1 x,y,z
2 x,-y,1/2+z
3 1/2+x,1/2+y,z
4 1/2+x,1/2-y,1/2+z
_cell_length_a                   12.8704(10)
_cell_length_b                   11.1575(8)
_cell_length_c                   17.4207(13)
_cell_angle_alpha                90.00
_cell_angle_beta                 91.0990(10)
_cell_angle_gamma                90.00
_cell_volume                     2501.18
loop_
_atom_site_label
_atom_site_type_symbol
_atom_site_fract_x
_atom_site_fract_y
_atom_site_fract_z
H1 H 0.305(4) 0.465(4) 0.240(3)
H2 H 0.681(4) 0.470(4) 0.237(3)
H3 H 0.479(3) 0.275(4) 0.255(2)
H4 H 0.052(5) 0.541(5) 0.272(3)
H5 H 0.291(3) 0.790(3) 0.161(2)
Cu1 Cu 0.417253(19) 0.64973(2) 0.341451(15)
Cu2 Cu 0.732110(17) 0.34930(3) 0.375100(14)
P1 P 0.19745(5) 0.59168(5) 0.26371(3)
C1 C 0.9476(2) 0.4247(3) 0.42367(16)
P2 P 0.37865(4) 0.87527(6) 0.23116(3)
O1 O 0.59138(14) 0.37421(19) 0.33807(11)
N1 N 0.56585(18) 0.67099(19) 0.37963(14)
O2 O 0.26372(13) 0.64888(14) 0.32777(10)
O3 O 0.29492(14) 0.92012(16) 0.28627(10)
O4 O 0.43640(14) 0.76745(17) 0.26306(11)
O5 O 0.45197(14) 0.97466(18) 0.20924(11)
O6 O 0.44283(14) 0.48590(17) 0.27376(11)
C2 C 0.5882(2) 0.6198(2) 0.44855(16)
O7 O 0.32051(16) 0.8381(2) 0.15378(11)
O8 O 0.18099(15) 0.67251(17) 0.19475(10)
N2 N 0.40945(17) 0.56383(18) 0.44260(12)
N3 N 0.67722(16) 0.28539(18) 0.47370(11)
N4 N 0.85755(16) 0.37468(19) 0.44378(12)
O9 O 0.24997(17) 0.47195(19) 0.23787(15)
C3 C 0.9275(2) 0.3458(3) 0.56995(18)
O10 O 0.09267(16) 0.5549(2) 0.29715(12)
C4 C 1.0312(2) 0.4341(3) 0.47450(18)
C5 C 0.5817(2) 0.2417(3) 0.48267(17)
C6 C 0.8474(2) 0.3360(2) 0.51663(14)
C7 C 0.7416(3) 0.7342(3) 0.3708(3)
C8 C 0.6875(3) 0.6254(3) 0.4804(2)
C9 C 0.3252(2) 0.5115(3) 0.47021(18)
C10 C 0.7444(2) 0.2868(2) 0.53380(14)
C11 C 1.0209(2) 0.3944(3) 0.54869(18)
C12 C 0.6408(2) 0.7263(3) 0.3426(2)
C13 C 0.4992(2) 0.5603(2) 0.48474(15)
C14 C 0.5042(3) 0.5057(3) 0.55508(17)
P3 P 0.54205(5) 0.41810(6) 0.26461(4)
O11 O 0.62165(17) 0.5043(2) 0.22380(13)
O12 O 0.51968(19) 0.3139(2) 0.20692(14)
C15 C 0.7167(3) 0.2430(3) 0.60516(16)
C16 C 0.5489(2) 0.1984(3) 0.55286(19)
C17 C 0.7640(3) 0.6825(4) 0.4409(3)
C18 C 0.4156(3) 0.4515(3) 0.58379(17)
C19 C 0.3265(3) 0.4551(3) 0.54178(18)
C20 C 0.6182(3) 0.1990(3) 0.6137(2)
H6 H 0.543(2) 0.238(3) 0.4343(17)
H7 H 0.628(3) 0.754(3) 0.310(2)
H8 H 0.957(2) 0.452(3) 0.3761(19)
H9 H 0.767(3) 0.253(4) 0.642(2)
H10 H 1.096(3) 0.472(3) 0.4573(19)
H11 H 0.264(3) 0.517(3) 0.443(2)
H12 H 0.602(3) 0.179(3) 0.646(2)
H13 H 0.915(2) 0.326(3) 0.6183(19)
H14 H 0.494(3) 0.167(3) 0.559(2)
H15 H 0.783(3) 0.754(4) 0.341(3)
H16 H 1.081(3) 0.404(3) 0.5819(18)
H17 H 0.562(4) 0.492(4) 0.589(3)
H18 H 0.273(3) 0.413(3) 0.549(2)
H19 H 0.823(4) 0.691(4) 0.466(3)
H20 H 0.697(3) 0.603(3) 0.529(2)
H21 H 0.415(3) 0.410(4) 0.627(2)
Cu2B Cu 0.232110(17) 0.84930(3) 0.375100(14)
O2B O 0.76372(13) 0.14888(14) 0.32777(10)
O3B O 0.79492(14) 0.42012(16) 0.28627(10)
loop_
_geom_bond_atom_site_label_1
_geom_bond_atom_site_label_2
_geom_bond_site_symmetry_1
_geom_bond_site_symmetry_2
H1 O9 1_555 1_555
H2 O11 1_555 1_555
H3 O12 1_555 1_555
H4 O10 1_555 1_555
H5 O7 1_555 1_555
Cu1 N1 1_555 1_555
Cu2 O1 1_555 1_555
P1 O2 1_555 1_555
C1 N4 1_555 1_555
P2 O3 1_555 1_555
O1 P3 1_555 1_555
N1 C2 1_555 1_555
O2 Cu1 1_555 1_555
O3 Cu2B 1_555 1_555
O4 Cu1 1_555 1_555
O5 P2 1_555 1_555
O6 Cu1 1_555 1_555
C2 C8 1_555 1_555
O7 P2 1_555 1_555
O8 P1 1_555 1_555
N2 Cu1 1_555 1_555
N3 Cu2 1_555 1_555
N4 Cu2 1_555 1_555
O9 P1 1_555 1_555
C3 C6 1_555 1_555
O10 P1 1_555 1_555
C4 C1 1_555 1_555
C5 N3 1_555 1_555
C6 N4 1_555 1_555
C7 C12 1_555 1_555
C8 C17 1_555 1_555
C9 N2 1_555 1_555
C10 N3 1_555 1_555
C11 C3 1_555 1_555
C12 N1 1_555 1_555
C13 C2 1_555 1_555
C14 C13 1_555 1_555
P3 O6 1_555 1_555
O11 P3 1_555 1_555
O12 P3 1_555 1_555
C15 C10 1_555 1_555
C16 C5 1_555 1_555
C17 C7 1_555 1_555
C18 C14 1_555 1_555
C19 C9 1_555 1_555
C20 C15 1_555 1_555
H6 C5 1_555 1_555
H7 C12 1_555 1_555
H8 C1 1_555 1_555
H9 C15 1_555 1_555
H10 C4 1_555 1_555
H11 C9 1_555 1_555
H12 C20 1_555 1_555
H13 C3 1_555 1_555
H14 C16 1_555 1_555
H15 C7 1_555 1_555
H16 C11 1_555 1_555
H17 C14 1_555 1_555
H18 C19 1_555 1_555
H19 C17 1_555 1_555
H20 C8 1_555 1_555
H21 C18 1_555 1_555
Cu2B O2 1_555 1_555
O2B Cu2 1_555 1_555
O3B Cu2 1_555 1_555
P2 O4 1_555 1_555
N2 C13 1_555 1_555
C4 C11 1_555 1_555
C6 C10 1_555 1_555
C16 C20 1_555 1_555
C18 C19 1_555 1_555

#END
