
#######################################################################
#
#                 Cambridge Crystallographic Data Centre
#                                CCDC 
#
#######################################################################
#
# If this CIF has been generated from an entry in the Cambridge 
# Structural Database, then it will include bibliographic, chemical, 
# crystal, experimental, refinement or atomic coordinate data resulting 
# from the CCDC's data processing and validation procedures.
#
#######################################################################

data_WELMEG
_symmetry_cell_setting           triclinic
_symmetry_space_group_name_H-M   'P -1'
_symmetry_Int_Tables_number      2
_space_group_name_Hall           '-P 1'
loop_
_symmetry_equiv_pos_site_id
_symmetry_equiv_pos_as_xyz
1 x,y,z
2 -x,-y,-z
_cell_length_a                   10.2271(9)
_cell_length_b                   10.4060(9)
_cell_length_c                   15.0672(13)
_cell_angle_alpha                91.4740(10)
_cell_angle_beta                 92.3310(10)
_cell_angle_gamma                116.2210(10)
_cell_volume                     1435.59
loop_
_atom_site_label
_atom_site_type_symbol
_atom_site_fract_x
_atom_site_fract_y
_atom_site_fract_z
H1 H -0.124(5) -0.091(5) 0.540(3)
Cu1 Cu 0.01516(3) 0.19084(3) 0.28577(2)
Cu2 Cu 0.05053(4) -0.11604(3) 0.03069(2)
P1 P -0.17458(7) -0.07175(7) 0.15433(4)
P2 P -0.20243(7) -0.05309(7) 0.42839(5)
P3 P 0.20791(8) 0.02722(8) 0.21317(5)
O3 O -0.1428(2) 0.0680(2) 0.20389(12)
O4 O 0.1629(2) 0.1390(2) 0.24170(14)
O5 O -0.0893(2) -0.0499(2) 0.07059(12)
O6 O 0.2092(2) 0.0055(2) 0.11420(13)
N1 N 0.1795(2) 0.3648(2) 0.34828(15)
N2 N -0.0953(2) 0.3065(2) 0.31406(14)
N3 N -0.1082(3) -0.2845(2) -0.04058(15)
O7 O -0.0571(2) 0.0622(2) 0.40483(12)
N4 N 0.1725(2) -0.2094(2) -0.01317(15)
O8 O -0.1533(2) -0.1784(2) 0.21290(13)
O9 O -0.3394(2) -0.1383(3) 0.11784(17)
C1 C 0.0936(3) -0.3323(3) -0.06323(17)
C2 C 0.1398(3) 0.4674(3) 0.37413(17)
C3 C -0.0100(3) 0.4352(3) 0.35682(17)
O10 O -0.1957(3) -0.0903(3) 0.52780(15)
O11 O 0.3690(2) 0.0693(3) 0.24836(17)
O12 O -0.2354(3) -0.1969(2) 0.37548(16)
O13 O -0.3312(2) -0.0215(2) 0.41768(15)
C4 C 0.1542(3) -0.4181(3) -0.09906(19)
C5 C 0.0607(4) -0.5473(3) -0.1501(2)
C6 C -0.0614(3) 0.5347(3) 0.38226(19)
C7 C 0.2370(3) 0.6004(3) 0.41506(19)
O14 O 0.1163(3) -0.1164(3) 0.25653(19)
C8 C -0.0586(3) -0.3722(3) -0.07909(17)
C9 C -0.2492(3) -0.3173(4) -0.0548(2)
C10 C -0.2349(3) 0.2731(3) 0.2966(2)
C11 C -0.0823(4) -0.5830(3) -0.1658(2)
C12 C -0.2095(4) 0.4949(3) 0.3616(2)
C13 C -0.2942(4) -0.5266(4) -0.1452(2)
C14 C -0.1464(3) -0.4960(3) -0.13140(18)
C15 C 0.3054(4) -0.3680(4) -0.0835(2)
C16 C -0.2954(4) 0.3658(3) 0.3200(2)
C17 C 0.4224(4) 0.5220(4) 0.4007(2)
C18 C 0.3826(4) 0.6256(4) 0.4273(2)
C19 C 0.3145(3) -0.1665(4) 0.0012(2)
C20 C 0.3191(3) 0.3922(3) 0.3621(2)
C21 C -0.3432(4) -0.4376(4) -0.1075(3)
C22 C 0.3849(4) -0.2438(4) -0.0342(2)
C23 C 0.1817(4) 0.6987(3) 0.4406(2)
C24 C 0.0405(4) 0.6683(3) 0.4260(2)
H2 H -0.292(3) 0.189(4) 0.264(2)
H3 H -0.241(4) 0.550(4) 0.373(2)
H4 H -0.439(4) -0.455(4) -0.115(2)
H5 H -0.394(4) 0.338(3) 0.309(2)
H6 H 0.001(3) 0.733(3) 0.438(2)
H7 H -0.353(3) -0.603(3) -0.178(2)
H8 H 0.522(4) 0.540(4) 0.411(2)
H9 H 0.350(4) -0.418(4) -0.107(2)
H10 H -0.135(4) -0.665(4) -0.193(2)
H11 H 0.363(3) -0.084(3) 0.036(2)
H12 H 0.489(4) -0.211(4) -0.022(2)
H13 H 0.340(4) 0.324(4) 0.345(2)
H16 H 0.104(4) -0.607(4) -0.170(2)
H17 H -0.272(3) -0.252(3) -0.029(2)
H18 H 0.385(4) 0.071(4) 0.296(2)
H19 H 0.442(4) 0.699(3) 0.453(2)
H20 H -0.207(4) -0.177(4) 0.319(3)
H21 H 0.244(4) 0.785(4) 0.464(2)
H22 H -0.383(4) -0.145(4) 0.149(3)
H25 H 0.053(4) -0.134(4) 0.248(2)
Cu2A Cu -0.05053(4) 0.11604(3) -0.03069(2)
O5A O 0.0893(2) 0.0499(2) -0.07059(12)
O1 O 0.4929(3) 0.8591(3) 0.2512(2)
H14 H 0.537(5) 0.882(5) 0.291(3)
H24 H 0.442(6) 0.894(6) 0.245(4)
O2 O 0.4664(3) 0.0863(3) 0.40967(17)
H15 H 0.417(4) 0.059(4) 0.440(3)
H23 H 0.527(5) 0.055(5) 0.412(3)
loop_
_geom_bond_atom_site_label_1
_geom_bond_atom_site_label_2
_geom_bond_site_symmetry_1
_geom_bond_site_symmetry_2
H1 O10 1_555 1_555
O1 H14 1_555 1_555
O2 H15 1_555 1_555
Cu1 O3 1_555 1_555
Cu2 O5 1_555 1_555
P1 O3 1_555 1_555
P2 O7 1_555 1_555
P3 O4 1_555 1_555
O4 Cu1 1_555 1_555
O5 P1 1_555 1_555
O6 Cu2 1_555 1_555
N1 Cu1 1_555 1_555
N2 Cu1 1_555 1_555
N3 Cu2 1_555 1_555
O7 Cu1 1_555 1_555
N4 Cu2 1_555 1_555
O8 P1 1_555 1_555
O9 P1 1_555 1_555
C1 N4 1_555 1_555
C2 N1 1_555 1_555
C3 N2 1_555 1_555
O10 P2 1_555 1_555
O11 P3 1_555 1_555
O12 P2 1_555 1_555
O13 P2 1_555 1_555
C4 C1 1_555 1_555
C5 C4 1_555 1_555
C6 C3 1_555 1_555
C7 C2 1_555 1_555
O14 P3 1_555 1_555
C8 N3 1_555 1_555
C9 N3 1_555 1_555
C10 N2 1_555 1_555
C11 C5 1_555 1_555
C12 C6 1_555 1_555
C13 C14 1_555 1_555
C14 C8 1_555 1_555
C15 C4 1_555 1_555
C16 C10 1_555 1_555
C17 C18 1_555 1_555
C18 C7 1_555 1_555
C19 N4 1_555 1_555
C20 N1 1_555 1_555
C21 C9 1_555 1_555
C22 C15 1_555 1_555
C23 C7 1_555 1_555
C24 C6 1_555 1_555
H2 C10 1_555 1_555
H3 C12 1_555 1_555
H4 C21 1_555 1_555
H5 C16 1_555 1_555
H6 C24 1_555 1_555
H7 C13 1_555 1_555
H8 C17 1_555 1_555
H9 C15 1_555 1_555
H10 C11 1_555 1_555
H11 C19 1_555 1_555
H12 C22 1_555 1_555
H13 C20 1_555 1_555
H16 C5 1_555 1_555
H17 C9 1_555 1_555
H18 O11 1_555 1_555
H19 C18 1_555 1_555
H20 O12 1_555 1_555
H21 C23 1_555 1_555
H22 O9 1_555 1_555
H23 O2 1_555 1_555
H24 O1 1_555 1_555
H25 O14 1_555 1_555
Cu2A O5 1_555 1_555
O5A Cu2 1_555 1_555
P3 O6 1_555 1_555
C1 C8 1_555 1_555
C2 C3 1_555 1_555
C11 C14 1_555 1_555
C12 C16 1_555 1_555
C13 C21 1_555 1_555
C17 C20 1_555 1_555
C19 C22 1_555 1_555
C23 C24 1_555 1_555
Cu2A O5A 1_555 1_555

#END
