
#######################################################################
#
#                 Cambridge Crystallographic Data Centre
#                                CCDC 
#
#######################################################################
#
# If this CIF has been generated from an entry in the Cambridge 
# Structural Database, then it will include bibliographic, chemical, 
# crystal, experimental, refinement or atomic coordinate data resulting 
# from the CCDC's data processing and validation procedures.
#
#######################################################################

data_WELNEH
_symmetry_cell_setting           monoclinic
_symmetry_space_group_name_H-M   'C 2/m'
_symmetry_Int_Tables_number      12
_space_group_name_Hall           '-C 2y'
loop_
_symmetry_equiv_pos_site_id
_symmetry_equiv_pos_as_xyz
1 x,y,z
2 1/2+x,1/2+y,z
3 -x,y,-z
4 1/2-x,1/2+y,-z
5 -x,-y,-z
6 1/2-x,1/2-y,-z
7 x,-y,z
8 1/2+x,1/2-y,z
_cell_length_a                   12.500(3)
_cell_length_b                   7.5059(15)
_cell_length_c                   7.1511(14)
_cell_angle_alpha                90
_cell_angle_beta                 112.69(3)
_cell_angle_gamma                90
_cell_volume                     619.016
loop_
_atom_site_label
_atom_site_type_symbol
_atom_site_fract_x
_atom_site_fract_y
_atom_site_fract_z
Mn1 Mn 0.5000 0.5000 0.5000
N1 N 0.4246(2) 0.7116(3) 0.6281(4)
C1 C 0.4009(2) 0.8497(4) 0.6710(4)
N2 N 0.3698(3) 1.0000 0.7266(6)
H1 H 0.3280 1.0000 0.8012
O1 O 0.6565(3) 0.5000 0.7853(4)
C2 C 0.6576(4) 0.5000 0.9862(7)
H2 H 0.6149 0.3936 1.0019
C3 C 0.7751(5) 0.5000 1.1529(7)
H3 H 0.7673 0.5000 1.2843
H4 H 0.8177 0.6066 1.1423
Mn1_2 Mn 0.5000 1.5000 0.5000
Mn1_3 Mn 0.5000 -0.5000 0.5000
N1F N 0.4246(2) 1.2884(3) 0.6281(4)
N1F_2 N 0.4246(2) 0.2884(3) 0.6281(4)
N1_2 N 0.4246(2) -0.2884(3) 0.6281(4)
N1D N 0.5754(2) 0.2884(3) 0.3719(4)
N1B N 0.5754(2) 0.7116(3) 0.3719(4)
C1F C 0.4009(2) 1.1503(4) 0.6710(4)
C1F_2 C 0.4009(2) 0.1503(4) 0.6710(4)
C1_2 C 0.4009(2) -0.1503(4) 0.6710(4)
N2_2 N 0.3698(3) 0.0000 0.7266(6)
H1_2 H 0.3280 0.0000 0.8012
O1D O 0.3435(3) 0.5000 0.2147(4)
C2D C 0.3424(4) 0.5000 0.0138(7)
H2F H 0.6149 0.6064 1.0019
H2D H 0.3851 0.6064 -0.0019
H2B H 0.3851 0.3936 -0.0019
C3D C 0.2249(5) 0.5000 -0.1529(7)
H3D H 0.2327 0.5000 -0.2843
H4F H 0.8177 0.3934 1.1423
H4D H 0.1823 0.3934 -0.1423
H4B H 0.1823 0.6066 -0.1423
loop_
_geom_bond_atom_site_label_1
_geom_bond_atom_site_label_2
_geom_bond_site_symmetry_1
_geom_bond_site_symmetry_2
Mn1 N1 1_555 1_555
N1 C1 1_555 1_555
C1 N2 1_555 1_555
N2 H1 1_555 1_555
O1 Mn1 1_555 1_555
C2 O1 1_555 1_555
H2 C2 1_555 1_555
C3 C2 1_555 1_555
H3 C3 1_555 1_555
H4 C3 1_555 1_555
Mn1_2 N1F 1_555 1_555
Mn1_3 N1_2 1_555 1_555
N1F C1F 1_555 1_555
N1F_2 Mn1 1_555 1_555
N1_2 C1_2 1_555 1_555
N1D Mn1 1_555 1_555
N1B Mn1 1_555 1_555
C1F N2 1_555 1_555
C1F_2 N1F_2 1_555 1_555
C1_2 N2_2 1_555 1_555
N2_2 C1F_2 1_555 1_555
H1_2 N2_2 1_555 1_555
O1D Mn1 1_555 1_555
C2D O1D 1_555 1_555
H2F C2 1_555 1_555
H2D C2D 1_555 1_555
H2B C2D 1_555 1_555
C3D C2D 1_555 1_555
H3D C3D 1_555 1_555
H4F C3 1_555 1_555
H4D C3D 1_555 1_555
H4B C3D 1_555 1_555

#END
