
#######################################################################
#
#                 Cambridge Crystallographic Data Centre
#                                CCDC 
#
#######################################################################
#
# If this CIF has been generated from an entry in the Cambridge 
# Structural Database, then it will include bibliographic, chemical, 
# crystal, experimental, refinement or atomic coordinate data resulting 
# from the CCDC's data processing and validation procedures.
#
#######################################################################

data_WELNEI
_symmetry_cell_setting           orthorhombic
_symmetry_space_group_name_H-M   'P 21 21 21'
_symmetry_Int_Tables_number      19
_space_group_name_Hall           'P 2ac 2ab'
loop_
_symmetry_equiv_pos_site_id
_symmetry_equiv_pos_as_xyz
1 x,y,z
2 1/2-x,-y,1/2+z
3 -x,1/2+y,1/2-z
4 1/2+x,1/2-y,-z
_cell_length_a                   6.8101(3)
_cell_length_b                   9.5015(4)
_cell_length_c                   21.2601(5)
_cell_angle_alpha                90
_cell_angle_beta                 90
_cell_angle_gamma                90
_cell_volume                     1375.66
loop_
_atom_site_label
_atom_site_type_symbol
_atom_site_fract_x
_atom_site_fract_y
_atom_site_fract_z
C1 C 0.6408(8) 0.9219(5) 0.4315(2)
C2 C 0.6125(6) 0.7760(5) 0.4048(2)
H1 H 0.6894 0.7105 0.4305
C3 C 0.6841(7) 0.7634(5) 0.3370(2)
H2 H 0.8228 0.7862 0.3350
H3 H 0.6137 0.8300 0.3108
C4 C 0.6512(8) 0.6144(5) 0.3123(2)
H4 H 0.6921 0.6094 0.2687
H5 H 0.7311 0.5489 0.3362
C5 C 0.3978(6) 0.7321(4) 0.4090(2)
H6 H 0.3542 0.7364 0.4524
H7 H 0.3176 0.7961 0.3844
C6 C 0.4407(7) 0.5731(5) 0.3174(2)
H8 H 0.4239 0.4774 0.3025
H9 H 0.3613 0.6346 0.2913
C7 C 0.1641(8) 0.5315(5) 0.3917(2)
H10 H 0.0874 0.5588 0.3552
H11 H 0.1054 0.5745 0.4286
Ca1 Ca -0.34730(13) 0.22604(9) 0.45601(4)
N1 N 0.3741(6) 0.5832(4) 0.38420(16)
H12 H 0.4527 0.5264 0.4077
O1 O -0.0357(5) 0.3042(3) 0.42935(15)
O2 O 0.3247(5) 0.3126(3) 0.44639(14)
O3 O 0.1973(4) 0.2737(4) 0.33600(14)
O4 O 0.4966(5) 0.9877(3) 0.45447(15)
O5 O 0.8098(5) 0.9764(3) 0.42919(15)
O6 O -0.4008(5) 0.2258(4) 0.34524(14)
H13 H -0.2802 0.2028 0.3242
H14 H -0.5351 0.2493 0.3365
O7 O -0.3620(6) 0.4752(3) 0.49148(13)
H15 H -0.4843 0.4919 0.5127
H16 H -0.2552 0.4935 0.5198
P1 P 0.1602(2) 0.33803(12) 0.40007(6)
Ca1_2 Ca 0.65270(13) 0.22604(9) 0.45601(4)
Ca1_3 Ca 0.65270(13) 1.22604(9) 0.45601(4)
Ca1C Ca 0.15270(13) 0.27396(9) 0.54399(4)
O1C O -0.5357(5) 0.1958(3) 0.57065(15)
O2_2 O -0.6753(5) 0.3126(3) 0.44639(14)
O2C O -0.1753(5) 0.1874(3) 0.55361(14)
O4_2 O -0.5034(5) -0.0123(3) 0.45447(15)
O5_2 O -0.1902(5) -0.0236(3) 0.42919(15)
P1C P -0.3398(2) 0.16197(12) 0.59993(6)
O8 O 0.8954(9) 0.4846(6) 0.1626(3)
H17 H 0.9332 0.5680 0.1577
H18 H 0.8805 0.4671 0.2018
H19? H 0.8534 0.3545 0.2291
H20? H 0.9761 0.3136 0.2786
O9? O 0.8780(8) 0.2908(6) 0.2561(2)
loop_
_geom_bond_atom_site_label_1
_geom_bond_atom_site_label_2
_geom_bond_site_symmetry_1
_geom_bond_site_symmetry_2
C1 C2 1_555 1_555
C2 H1 1_555 1_555
C3 C2 1_555 1_555
H2 C3 1_555 1_555
H3 C3 1_555 1_555
C4 C3 1_555 1_555
H4 C4 1_555 1_555
H5 C4 1_555 1_555
C5 C2 1_555 1_555
H6 C5 1_555 1_555
H7 C5 1_555 1_555
C6 C4 1_555 1_555
H8 C6 1_555 1_555
H9 C6 1_555 1_555
C7 H10 1_555 1_555
H11 C7 1_555 1_555
Ca1 O1 1_555 1_555
N1 C5 1_555 1_555
H12 N1 1_555 1_555
O1 P1 1_555 1_555
O2 P1 1_555 1_555
O3 P1 1_555 1_555
O4 C1 1_555 1_555
O5 C1 1_555 1_555
O6 Ca1 1_555 1_555
H13 O6 1_555 1_555
H14 O6 1_555 1_555
O7 Ca1 1_555 1_555
H15 O7 1_555 1_555
H16 O7 1_555 1_555
P1 C7 1_555 1_555
O8 H17 1_555 1_555
H18 O8 1_555 1_555
Ca1_2 O2 1_555 1_555
Ca1_3 O4 1_555 1_555
Ca1C O1 1_555 1_555
O1C Ca1 1_555 1_555
O2_2 Ca1 1_555 1_555
O2C Ca1 1_555 1_555
O4_2 Ca1 1_555 1_555
O5_2 Ca1 1_555 1_555
P1C O1C 1_555 1_555
C6 N1 1_555 1_555
C7 N1 1_555 1_555
O2 Ca1C 1_555 1_555
O5 Ca1_3 1_555 1_555
Ca1C O2C 1_555 1_555
O2C P1C 1_555 1_555

#END
