
#######################################################################
#
#                 Cambridge Crystallographic Data Centre
#                                CCDC 
#
#######################################################################
#
# If this CIF has been generated from an entry in the Cambridge 
# Structural Database, then it will include bibliographic, chemical, 
# crystal, experimental, refinement or atomic coordinate data resulting 
# from the CCDC's data processing and validation procedures.
#
#######################################################################

data_WELPAF
_symmetry_cell_setting           monoclinic
_symmetry_space_group_name_H-M   'P 21/n'
_symmetry_Int_Tables_number      14
_space_group_name_Hall           '-P 2yn'
loop_
_symmetry_equiv_pos_site_id
_symmetry_equiv_pos_as_xyz
1 x,y,z
2 1/2-x,1/2+y,1/2-z
3 -x,-y,-z
4 1/2+x,1/2-y,1/2+z
_cell_length_a                   13.148(14)
_cell_length_b                   7.336(10)
_cell_length_c                   15.079(17)
_cell_angle_alpha                90
_cell_angle_beta                 100.852(10)
_cell_angle_gamma                90
_cell_volume                     1428.42
loop_
_atom_site_label
_atom_site_type_symbol
_atom_site_fract_x
_atom_site_fract_y
_atom_site_fract_z
Cu1 Cu 0.83843(3) 0.18555(6) 0.01924(3)
N1 N 0.7238(3) 0.1893(4) 0.0916(2)
C1 C 0.7306(4) 0.1606(7) 0.1806(3)
H1 H 0.7956(4) 0.1427(7) 0.2163(3)
C2 C 0.6439(5) 0.1567(8) 0.2211(4)
H2 H 0.6507(5) 0.1365(8) 0.2828(4)
C3 C 0.5489(5) 0.1831(8) 0.1685(4)
H3 H 0.4902(5) 0.1813(8) 0.1947(4)
C4 C 0.5388(4) 0.2126(6) 0.0765(3)
H4 H 0.4741(4) 0.2306(6) 0.0402(3)
C5 C 0.6287(3) 0.2144(5) 0.0400(3)
C6 C 0.6298(3) 0.2432(5) -0.0579(2)
C7 C 0.5347(3) 0.3029(6) -0.1219(3)
H5 H 0.5503(7) 0.3168(39) -0.1812(5)
H6 H 0.5114(14) 0.4173(21) -0.1022(11)
H7 H 0.4813(8) 0.2130(20) -0.1235(15)
N2 N 0.7185(2) 0.2178(4) -0.0782(2)
C8 C 0.7445(3) 0.2433(6) -0.1684(2)
H8 H 0.7525(3) 0.3717(6) -0.1807(2)
H9 H 0.6905(3) 0.1933(6) -0.2148(2)
C9 C 0.8461(3) 0.1420(6) -0.1664(3)
H10 H 0.8339(3) 0.0115(6) -0.1686(3)
H11 H 0.8757(3) 0.1759(6) -0.2183(3)
N3 N 0.9183(2) 0.1901(4) -0.0823(2)
H12 H 0.9450(2) 0.3019(4) -0.0872(2)
H13 H 0.9708(2) 0.1095(4) -0.0716(2)
N4 N 1.0468(3) 0.4422(5) 0.1738(3)
N5 N 0.9552(3) 0.1771(4) 0.1208(3)
N6 N 1.0009(2) 0.3148(4) 0.1454(2)
O1 O 0.8398(3) -0.1456(5) 0.0163(4)
Cl1 Cl 0.77562(7) -0.30103(12) -0.00015(7)
O2 O 0.7034(3) -0.2999(10) 0.0581(4)
O3 O 0.8426(3) -0.4557(5) 0.0179(3)
O4 O 0.7209(4) -0.3013(7) -0.0902(3)
Cu1_2 Cu 0.83843(3) -0.81445(6) 0.01924(3)
O3_2 O 0.8426(3) 0.5443(5) 0.0179(3)
loop_
_geom_bond_atom_site_label_1
_geom_bond_atom_site_label_2
_geom_bond_site_symmetry_1
_geom_bond_site_symmetry_2
Cu1 N1 1_555 1_555
N1 C1 1_555 1_555
C1 H1 1_555 1_555
C2 C1 1_555 1_555
H2 C2 1_555 1_555
C3 C2 1_555 1_555
H3 C3 1_555 1_555
C4 C3 1_555 1_555
H4 C4 1_555 1_555
C5 N1 1_555 1_555
C6 C5 1_555 1_555
C7 C6 1_555 1_555
H5 C7 1_555 1_555
H6 C7 1_555 1_555
H7 C7 1_555 1_555
N2 Cu1 1_555 1_555
C8 N2 1_555 1_555
H8 C8 1_555 1_555
H9 C8 1_555 1_555
C9 C8 1_555 1_555
H10 C9 1_555 1_555
H11 C9 1_555 1_555
N3 Cu1 1_555 1_555
H12 N3 1_555 1_555
H13 N3 1_555 1_555
N4 N6 1_555 1_555
N5 Cu1 1_555 1_555
N6 N5 1_555 1_555
O1 Cu1 1_555 1_555
Cl1 O1 1_555 1_555
O2 Cl1 1_555 1_555
O3 Cl1 1_555 1_555
O4 Cl1 1_555 1_555
Cu1_2 O3 1_555 1_555
O3_2 Cu1 1_555 1_555
C4 C5 1_555 1_555
C6 N2 1_555 1_555
C9 N3 1_555 1_555

#END
