
#######################################################################
#
#                 Cambridge Crystallographic Data Centre
#                                CCDC 
#
#######################################################################
#
# If this CIF has been generated from an entry in the Cambridge 
# Structural Database, then it will include bibliographic, chemical, 
# crystal, experimental, refinement or atomic coordinate data resulting 
# from the CCDC's data processing and validation procedures.
#
#######################################################################

data_WELPEJ
_symmetry_cell_setting           monoclinic
_symmetry_space_group_name_H-M   'C 2/c'
_symmetry_Int_Tables_number      15
_space_group_name_Hall           '-C 2yn'
loop_
_symmetry_equiv_pos_site_id
_symmetry_equiv_pos_as_xyz
1 x,y,z
2 1/2+x,1/2+y,z
3 -x,y,1/2-z
4 1/2-x,1/2+y,1/2-z
5 -x,-y,-z
6 1/2-x,1/2-y,-z
7 x,-y,1/2+z
8 1/2+x,1/2-y,1/2+z
_cell_length_a                   41.445(45)
_cell_length_b                   10.602(12)
_cell_length_c                   15.442(17)
_cell_angle_alpha                90
_cell_angle_beta                 111.139(10)
_cell_angle_gamma                90
_cell_volume                     6328.62
loop_
_atom_site_label
_atom_site_type_symbol
_atom_site_fract_x
_atom_site_fract_y
_atom_site_fract_z
Cu1 Cu 0.92227(3) 0.13510(12) 0.40796(8)
Cu2 Cu 0.84599(3) 0.08226(13) 0.16814(9)
N1 N 0.8904(2) 0.1577(9) 0.2491(6)
N2 N 0.9269(3) 0.2454(12) 0.1781(8)
N3 N 0.9083(2) 0.2011(9) 0.2104(6)
N4 N 0.9618(2) 0.0377(8) 0.3879(6)
C1 C 0.9646(3) -0.0859(12) 0.3776(8)
H1 H 0.9467(3) -0.1383(12) 0.3784(8)
C2 C 0.9934(4) -0.1400(12) 0.3657(8)
H2 H 0.9944(4) -0.2265(12) 0.3572(8)
C3 C 1.0201(3) -0.0633(14) 0.3669(7)
H3 H 1.0398(3) -0.0982(14) 0.3614(7)
C4 C 1.0179(3) 0.0644(12) 0.3760(7)
H4 H 1.0359(3) 0.1172(12) 0.3769(7)
C5 C 0.9881(3) 0.1128(10) 0.3839(7)
C6 C 0.9821(3) 0.2498(12) 0.3981(8)
C7 C 1.0089(4) 0.3471(14) 0.3957(12)
H5 H 0.9973(4) 0.4211(37) 0.3635(56)
H6 H 1.0230(16) 0.3122(34) 0.3640(59)
H7 H 1.0233(15) 0.3691(66) 0.4580(12)
N5 N 0.9545(2) 0.2755(7) 0.4133(5)
C8 C 0.9430(3) 0.3982(10) 0.4305(8)
H8 H 0.9490(3) 0.4613(10) 0.3933(8)
H9 H 0.9543(3) 0.4204(10) 0.4955(8)
C9 C 0.9041(3) 0.3944(11) 0.4056(9)
H10 H 0.8935(3) 0.3911(11) 0.3377(9)
C10 C 0.8909(4) 0.5126(12) 0.4373(10)
H11 H 0.8988(17) 0.5139(39) 0.5039(10)
H12 H 0.8661(4) 0.5130(38) 0.4122(45)
H13 H 0.8995(17) 0.5857(12) 0.4158(47)
N6 N 0.8959(2) 0.2731(8) 0.4424(6)
H14 H 0.8730(2) 0.2576(8) 0.4176(6)
H15 H 0.9021(2) 0.2774(8) 0.5045(6)
N7 N 0.8246(2) 0.2269(9) 0.0798(6)
C11 C 0.8359(3) 0.3459(11) 0.0852(8)
H16 H 0.8546(3) 0.3714(11) 0.1369(8)
C12 C 0.8199(3) 0.4330(12) 0.0137(9)
H17 H 0.8279(3) 0.5157(12) 0.0181(9)
C13 C 0.7931(3) 0.3951(14) -0.0606(10)
H18 H 0.7825(3) 0.4513(14) -0.1088(10)
C14 C 0.7809(3) 0.2712(14) -0.0658(8)
H19 H 0.7621(3) 0.2448(14) -0.1169(8)
C15 C 0.7970(2) 0.1894(11) 0.0051(7)
C16 C 0.7862(3) 0.0568(12) 0.0093(8)
C17 C 0.7579(3) -0.0005(14) -0.0719(9)
H20 H 0.7666(7) -0.0185(72) -0.1204(23)
H21 H 0.7390(9) 0.0576(34) -0.0944(37)
H22 H 0.7502(15) -0.0772(42) -0.0527(16)
N8 N 0.8035(2) -0.0001(9) 0.0829(6)
C18 C 0.7995(3) -0.1322(12) 0.1053(8)
H23 H 0.8078(3) -0.1877(12) 0.0680(8)
H24 H 0.7753(3) -0.1508(12) 0.0922(8)
C19 C 0.8204(4) -0.1524(12) 0.2083(11)
H25 H 0.8076(4) -0.1088(12) 0.2418(11)
C20 C 0.8227(4) -0.2870(14) 0.2383(12)
H26 H 0.8345(22) -0.3350(22) 0.2062(50)
H27 H 0.7998(4) -0.3203(30) 0.2241(63)
H28 H 0.8352(22) -0.2922(16) 0.3040(16)
N9 N 0.8539(3) -0.0857(9) 0.2331(7)
H29 H 0.8687(3) -0.1320(9) 0.2158(7)
H30 H 0.8631(3) -0.0742(9) 0.2950(7)
N10 N 0.8990(3) -0.0143(9) 0.4339(7)
N11 N 0.8860(2) -0.0115(9) 0.4915(6)
N12 N 0.8732(4) -0.0127(12) 0.5449(9)
Cu2F Cu 0.84599(3) -0.08226(13) 0.66814(9)
N12F N 0.8732(4) 0.0127(12) 0.0449(9)
Cl1 Cl 0.79867(8) 0.2567(3) 0.3120(2)
O1 O 0.7975(5) 0.1504(15) 0.2560(12)
O2 O 0.8181(5) 0.2337(19) 0.4083(10)
O3 O 0.8182(5) 0.3547(16) 0.2819(13)
O4 O 0.7654(4) 0.3010(18) 0.3013(13)
O9 O 0.9107(5) 0.2395(16) 0.6712(13)
O10 O 0.9312(5) 0.3446(13) 0.7962(8)
O11 O 0.9462(4) 0.3729(17) 0.6677(12)
O12 O 0.8961(4) 0.4462(16) 0.6743(11)
Cl3 Cl 0.92068(10) 0.3584(3) 0.7032(2)
Cl2? Cl 0.79867(8) 0.2567(3) 0.3120(2)
O5? O 0.7668(6) 0.1824(26) 0.2721(18)
O6? O 0.7980(8) 0.3651(21) 0.2563(19)
O7? O 0.8065(8) 0.2865(28) 0.4072(13)
O8? O 0.8255(7) 0.1699(24) 0.3047(20)
loop_
_geom_bond_atom_site_label_1
_geom_bond_atom_site_label_2
_geom_bond_site_symmetry_1
_geom_bond_site_symmetry_2
Cu1 N1 1_555 1_555
Cu2 N1 1_555 1_555
Cl1 O1 1_555 1_555
O2 Cl1 1_555 1_555
O3 Cl1 1_555 1_555
O4 Cl1 1_555 1_555
O9 Cl3 1_555 1_555
O10 Cl3 1_555 1_555
O11 Cl3 1_555 1_555
O12 Cl3 1_555 1_555
N1 N3 1_555 1_555
N2 N3 1_555 1_555
N4 Cu1 1_555 1_555
C1 N4 1_555 1_555
H1 C1 1_555 1_555
C2 C1 1_555 1_555
H2 C2 1_555 1_555
C3 C2 1_555 1_555
H3 C3 1_555 1_555
C4 C3 1_555 1_555
H4 C4 1_555 1_555
C5 N4 1_555 1_555
C6 C5 1_555 1_555
C7 C6 1_555 1_555
H5 C7 1_555 1_555
H6 C7 1_555 1_555
H7 C7 1_555 1_555
N5 Cu1 1_555 1_555
C8 N5 1_555 1_555
H8 C8 1_555 1_555
H9 C8 1_555 1_555
C9 C8 1_555 1_555
H10 C9 1_555 1_555
C10 C9 1_555 1_555
H11 C10 1_555 1_555
H12 C10 1_555 1_555
H13 C10 1_555 1_555
N6 Cu1 1_555 1_555
H14 N6 1_555 1_555
H15 N6 1_555 1_555
N7 Cu2 1_555 1_555
C11 N7 1_555 1_555
H16 C11 1_555 1_555
C12 C11 1_555 1_555
H17 C12 1_555 1_555
C13 C12 1_555 1_555
H18 C13 1_555 1_555
C14 C13 1_555 1_555
H19 C14 1_555 1_555
C15 N7 1_555 1_555
C16 C15 1_555 1_555
C17 C16 1_555 1_555
H20 C17 1_555 1_555
H21 C17 1_555 1_555
H22 C17 1_555 1_555
N8 Cu2 1_555 1_555
C18 N8 1_555 1_555
H23 C18 1_555 1_555
H24 C18 1_555 1_555
C19 C18 1_555 1_555
H25 C19 1_555 1_555
C20 C19 1_555 1_555
H26 C20 1_555 1_555
H27 C20 1_555 1_555
H28 C20 1_555 1_555
N9 Cu2 1_555 1_555
H29 N9 1_555 1_555
H30 N9 1_555 1_555
N10 Cu1 1_555 1_555
N11 N10 1_555 1_555
N12 N11 1_555 1_555
Cu2F N12 1_555 1_555
N12F Cu2 1_555 1_555
C4 C5 1_555 1_555
C6 N5 1_555 1_555
C9 N6 1_555 1_555
C14 C15 1_555 1_555
C16 N8 1_555 1_555
C19 N9 1_555 1_555

#END
