
#######################################################################
#
#                 Cambridge Crystallographic Data Centre
#                                CCDC 
#
#######################################################################
#
# If this CIF has been generated from an entry in the Cambridge 
# Structural Database, then it will include bibliographic, chemical, 
# crystal, experimental, refinement or atomic coordinate data resulting 
# from the CCDC's data processing and validation procedures.
#
#######################################################################

data_WELTUD
_symmetry_cell_setting           monoclinic
_symmetry_space_group_name_H-M   'C c'
_symmetry_Int_Tables_number      9
_space_group_name_Hall           'C -2yc'
loop_
_symmetry_equiv_pos_site_id
_symmetry_equiv_pos_as_xyz
1 x,y,z
2 x,-y,1/2+z
3 1/2+x,1/2+y,z
4 1/2+x,1/2-y,1/2+z
_cell_length_a                   21.3590(19)
_cell_length_b                   12.0195(8)
_cell_length_c                   28.954(2)
_cell_angle_alpha                90
_cell_angle_beta                 97.896(10)
_cell_angle_gamma                90
_cell_volume                     7362.73
loop_
_atom_site_label
_atom_site_type_symbol
_atom_site_fract_x
_atom_site_fract_y
_atom_site_fract_z
Cu1 Cu -0.48910(7) -0.50958(9) -0.04398(5)
Cu2 Cu -0.40429(6) -0.26484(10) -0.03215(5)
Cu3 Cu -0.57379(6) -0.26591(10) -0.04738(5)
Cu4 Cu -0.63888(6) -0.43489(10) -0.36781(5)
Cu5 Cu -0.55772(7) -0.18877(10) -0.37636(5)
Cu6 Cu -0.47465(6) -0.56764(10) 0.12032(5)
Cl1 Cl -0.45263(18) -0.5794(3) 0.04044(10)
Cl2 Cl -0.3781(2) -0.2253(3) 0.04799(12)
Cl3 Cl -0.5851(2) -0.2218(3) 0.02790(12)
Cl4 Cl -0.68521(18) -0.4865(3) -0.44026(11)
Cl5 Cl -0.5693(3) -0.1301(3) -0.46135(12)
O1 O -0.4794(5) -0.3528(6) -0.0225(3)
H1 H -0.4779 -0.3566 0.0069
O2 O -0.5535(4) -0.3457(6) -0.3944(3)
H2 H -0.5618 -0.3463 -0.4240
N1 N -0.5840(5) -0.5113(8) -0.0398(4)
N2 N -0.6186(5) -0.4123(7) -0.0430(3)
N3 N -0.6847(5) -0.5432(8) -0.0496(4)
N4 N -0.8259(6) -0.6689(9) -0.0986(4)
N5 N -0.8310(5) -0.6799(9) -0.0502(4)
N6 N -0.7429(5) -0.6026(8) -0.0577(4)
N7 N -0.3995(5) -0.5049(7) -0.0584(3)
N8 N -0.3679(5) -0.4031(8) -0.0598(4)
N9 N -0.3078(5) -0.5379(8) -0.0759(4)
N10 N -0.1655(6) -0.6823(9) -0.0796(5)
N11 N -0.1878(7) -0.6691(13) -0.1256(5)
N12 N -0.2529(5) -0.5918(8) -0.0878(4)
N13 N -0.4619(5) -1.1251(7) -0.0553(4)
N14 N -0.5268(5) -1.1243(8) -0.0538(3)
N15 N -0.4957(5) -0.9570(8) -0.0676(3)
N16 N -0.4959(5) -0.6659(7) -0.0667(4)
N17 N -0.5042(6) -0.6897(8) -0.1150(4)
N18 N -0.4967(5) -0.8453(7) -0.0764(3)
N19 N -0.6881(5) -0.2917(8) -0.3705(4)
N20 N -0.6559(5) -0.1918(8) -0.3742(3)
N21 N -0.7515(6) -0.1552(8) -0.3624(4)
N22 N -0.8737(6) -0.0304(10) -0.3131(4)
N23 N -0.8935(5) -0.0173(7) -0.3601(4)
N24 N -0.8042(5) -0.1009(8) -0.3535(4)
N25 N -0.5859(5) -0.5764(8) -0.3621(4)
N26 N -0.5226(5) -0.5757(8) -0.3681(4)
N27 N -0.5506(5) -0.7421(7) -0.3546(4)
N28 N -0.5462(7) -1.0123(9) -0.3070(4)
N29 N -0.5559(5) -1.0299(8) -0.3543(4)
N30 N -0.5507(5) -0.8541(7) -0.3443(4)
N31 N -0.9288(5) -0.7899(8) -0.3567(4)
N32 N -0.9620(5) -0.6913(7) -0.3589(3)
N33 N -0.8618(5) -0.6611(8) -0.3383(4)
N34 N -0.7207(7) -0.5379(14) -0.2855(5)
N35 N -0.7174(6) -0.5249(8) -0.3332(4)
N36 N -0.8063(6) -0.6064(8) -0.3250(4)
N37 N -0.5199(6) -0.4180(9) -0.1147(4)
N38 N -0.5538(5) -0.3211(7) -0.1129(3)
N39 N -0.5508(6) -0.3558(8) -0.1844(3)
N40 N -0.5930(5) -0.3783(7) -0.3052(3)
N41 N -0.5580(6) -0.2808(9) -0.3022(4)
N42 N -0.5599(6) -0.3458(9) -0.2327(3)
C1 C -0.6266(7) -0.5930(11) -0.0443(5)
H3 H -0.6183 -0.6698 -0.0439
C2 C -0.6770(6) -0.4344(10) -0.0490(5)
H4 H -0.7097 -0.3816 -0.0526
C3 C -0.7732(7) -0.6208(11) -0.1010(5)
H5 H -0.7578 -0.6010 -0.1287
C4 C -0.7805(6) -0.6384(10) -0.0272(4)
H6 H -0.7715 -0.6338 0.0054
C5 C -0.3615(7) -0.5839(11) -0.0676(5)
H7 H -0.3706 -0.6604 -0.0683
C6 C -0.3116(7) -0.4236(10) -0.0707(5)
H8 H -0.2800 -0.3712 -0.0743
C7 C -0.2390(13) -0.614(3) -0.1295(9)
H9 H -0.2632 -0.5932 -0.1577
C8 C -0.2071(7) -0.6320(11) -0.0569(6)
H10 H -0.2046 -0.6258 -0.0243
C9 C -0.4444(7) -1.0240(10) -0.0634(5)
H11 H -0.4029 -1.0014 -0.0659
C10 C -0.5453(6) -1.0231(8) -0.0626(4)
H12 H -0.5875 -0.9990 -0.0652
C11 C -0.5056(8) -0.7960(11) -0.1200(5)
H13 H -0.5117 -0.8341 -0.1486
C12 C -0.4897(6) -0.7594(8) -0.0444(5)
H14 H -0.4817 -0.7675 -0.0118
C13 C -0.7450(6) -0.2701(9) -0.3657(4)
H15 H -0.7773 -0.3227 -0.3645
C14 C -0.6945(6) -0.1098(10) -0.3677(5)
H16 H -0.6845 -0.0336 -0.3668
C15 C -0.8193(8) -0.0828(11) -0.3087(5)
H17 H -0.7950 -0.1042 -0.2805
C16 C -0.8515(6) -0.0562(9) -0.3834(5)
H18 H -0.8534 -0.0539 -0.4160
C17 C -0.6012(7) -0.6745(10) -0.3541(6)
H19 H -0.6416 -0.6976 -0.3485
C18 C -0.5020(7) -0.6752(10) -0.3626(6)
H20 H -0.4602 -0.6983 -0.3638
C19 C -0.5417(9) -0.9012(11) -0.3025(5)
H21 H -0.5333 -0.8628 -0.2740
C20 C -0.5630(10) -0.9354(9) -0.3772(6)
H22 H -0.5743 -0.9258 -0.4095
C21 C -0.8699(8) -0.7699(11) -0.3427(5)
H23 H -0.8379 -0.8238 -0.3367
C22 C -0.9200(6) -0.6127(9) -0.3488(5)
H24 H -0.9285 -0.5360 -0.3487
C23 C -0.7760(9) -0.5856(16) -0.2819(7)
H25 H -0.7914 -0.6022 -0.2538
C24 C -0.7673(7) -0.5680(10) -0.3553(5)
H26 H -0.7761 -0.5727 -0.3879
C25 C -0.5185(7) -0.4362(11) -0.1599(4)
H27 H -0.4981 -0.4960 -0.1725
C26 C -0.5725(6) -0.2842(10) -0.1545(4)
H28 H -0.5966 -0.2198 -0.1624
C27 C -0.5948(7) -0.4121(10) -0.2620(4)
H29 H -0.6175 -0.4740 -0.2534
C28 C -0.5394(8) -0.2615(12) -0.2583(5)
H30 H -0.5157 -0.1996 -0.2462
Cu2B Cu -0.90429(6) -0.76484(10) -0.03215(5)
Cu2_2 Cu -0.40429(6) -1.26484(10) -0.03215(5)
Cu3B Cu -0.07379(6) -0.76591(10) -0.04738(5)
Cu3_2 Cu -0.57379(6) -1.26591(10) -0.04738(5)
Cu5_2 Cu -0.55772(7) -1.18877(10) -0.37636(5)
Cu5B Cu -1.05772(7) -0.68877(10) -0.37636(5)
Cu6A Cu -0.47465(6) -0.43236(10) -0.37968(5)
Cu6C Cu -0.97465(6) 0.06764(10) -0.37968(5)
Cu6C_2 Cu -0.97465(6) -0.93236(10) -0.37968(5)
O2A O -0.5535(4) -0.6543(6) 0.1056(3)
H2A H -0.5618 -0.6537 0.0760
N5B N -0.3310(5) -0.1799(9) -0.0502(4)
N10B N -0.6655(6) -0.1823(9) -0.0796(5)
N13_2 N -0.4619(5) -0.1251(7) -0.0553(4)
N14_2 N -0.5268(5) -0.1243(8) -0.0538(3)
N23C N -0.3935(5) -0.4827(7) 0.1399(4)
N26A N -0.5226(5) -0.4243(8) 0.1319(4)
N29_2 N -0.5559(5) -0.0299(8) -0.3543(4)
N31C N -0.4288(5) -0.7101(8) 0.1433(4)
N32B N -0.4620(5) -0.1913(7) -0.3589(3)
Cl6 Cl -0.3803(2) 0.1537(3) -0.31700(16)
Cl7 Cl -0.3252(2) -0.8482(4) -0.0644(3)
Cl10 Cl -0.7222(4) 0.1522(7) -0.3545(5)
Cl13 Cl -0.4917(7) -0.0385(8) -0.1796(3)
Cl15 Cl -0.6671(2) 0.1594(4) -0.1015(2)
O3 O -0.6783(10) -0.488(2) -0.1630(7)
O4 O -0.4387(11) -0.0210(19) -0.4550(8)
O5 O -0.5365(11) 0.3333(17) -0.2444(8)
O6 O -0.1918(15) -0.681(2) -0.2529(11)
O7 O -0.4169(16) 0.287(3) -0.2286(12)
O8 O -0.3531(18) -0.183(3) -0.4458(13)
O9 O -0.7687(17) -0.342(3) -0.2163(12)
O10 O -0.6429(14) -0.699(2) -0.1943(10)
Cl8? Cl -0.3345(9) -0.8521(14) -0.0995(7)
Cl9? Cl -0.2758(12) -0.7650(18) -0.0335(8)
Cl11? Cl -0.7164(8) 0.1466(12) -0.3324(9)
Cl12? Cl -0.7122(8) 0.1466(11) -0.3079(7)
Cl14? Cl -0.542(2) -0.022(3) -0.1863(12)
loop_
_geom_bond_atom_site_label_1
_geom_bond_atom_site_label_2
_geom_bond_site_symmetry_1
_geom_bond_site_symmetry_2
Cu1 Cl1 1_555 1_555
Cu2 Cl2 1_555 1_555
Cu3 Cl3 1_555 1_555
Cu4 Cl4 1_555 1_555
Cu5 Cl5 1_555 1_555
Cu6 Cl1 1_555 1_555
O1 Cu1 1_555 1_555
H1 O1 1_555 1_555
O2 Cu4 1_555 1_555
H2 O2 1_555 1_555
N1 Cu1 1_555 1_555
N2 Cu3 1_555 1_555
N3 N6 1_555 1_555
N4 N5 1_555 1_555
N5 C4 1_555 1_555
N6 C3 1_555 1_555
N7 Cu1 1_555 1_555
N8 Cu2 1_555 1_555
N9 N12 1_555 1_555
N10 N11 1_555 1_555
N11 C7 1_555 1_555
N12 C7 1_555 1_555
N13 N14 1_555 1_555
N14 C10 1_555 1_555
N15 N18 1_555 1_555
N16 Cu1 1_555 1_555
N17 N16 1_555 1_555
N18 C11 1_555 1_555
N19 Cu4 1_555 1_555
N20 Cu5 1_555 1_555
N21 N24 1_555 1_555
N22 N23 1_555 1_555
N23 C16 1_555 1_555
N24 C15 1_555 1_555
N25 Cu4 1_555 1_555
N26 N25 1_555 1_555
N27 N30 1_555 1_555
N28 N29 1_555 1_555
N29 C20 1_555 1_555
N30 C19 1_555 1_555
N31 N32 1_555 1_555
N32 C22 1_555 1_555
N33 N36 1_555 1_555
N34 N35 1_555 1_555
N35 Cu4 1_555 1_555
N36 C23 1_555 1_555
N37 Cu1 1_555 1_555
N38 Cu3 1_555 1_555
N39 N42 1_555 1_555
N40 Cu4 1_555 1_555
N41 Cu5 1_555 1_555
N42 C27 1_555 1_555
C1 N1 1_555 1_555
H3 C1 1_555 1_555
C2 N2 1_555 1_555
H4 C2 1_555 1_555
C3 N4 1_555 1_555
H5 C3 1_555 1_555
C4 N6 1_555 1_555
H6 C4 1_555 1_555
C5 N7 1_555 1_555
H7 C5 1_555 1_555
C6 N8 1_555 1_555
H8 C6 1_555 1_555
C7 H9 1_555 1_555
C8 N10 1_555 1_555
H10 C8 1_555 1_555
C9 N13 1_555 1_555
H11 C9 1_555 1_555
C10 N15 1_555 1_555
H12 C10 1_555 1_555
C11 N17 1_555 1_555
H13 C11 1_555 1_555
C12 N16 1_555 1_555
H14 C12 1_555 1_555
C13 N19 1_555 1_555
H15 C13 1_555 1_555
C14 N20 1_555 1_555
H16 C14 1_555 1_555
C15 N22 1_555 1_555
H17 C15 1_555 1_555
C16 N24 1_555 1_555
H18 C16 1_555 1_555
C17 N25 1_555 1_555
H19 C17 1_555 1_555
C18 N26 1_555 1_555
H20 C18 1_555 1_555
C19 N28 1_555 1_555
H21 C19 1_555 1_555
C20 N30 1_555 1_555
H22 C20 1_555 1_555
C21 N31 1_555 1_555
H23 C21 1_555 1_555
C22 N33 1_555 1_555
H24 C22 1_555 1_555
C23 N34 1_555 1_555
H25 C23 1_555 1_555
C24 N35 1_555 1_555
H26 C24 1_555 1_555
C25 N37 1_555 1_555
H27 C25 1_555 1_555
C26 N38 1_555 1_555
H28 C26 1_555 1_555
C27 N40 1_555 1_555
H29 C27 1_555 1_555
C28 N41 1_555 1_555
H30 C28 1_555 1_555
Cu2B N5 1_555 1_555
Cu2_2 N13 1_555 1_555
Cu3B N10 1_555 1_555
Cu3_2 N14 1_555 1_555
Cu5_2 N29 1_555 1_555
Cu5B N32 1_555 1_555
Cu6A O2 1_555 1_555
Cu6C N23 1_555 1_555
Cu6C_2 N31 1_555 1_555
O2A Cu6 1_555 1_555
H2A O2A 1_555 1_555
N5B Cu2 1_555 1_555
N10B Cu3 1_555 1_555
N13_2 Cu2 1_555 1_555
N14_2 Cu3 1_555 1_555
N23C Cu6 1_555 1_555
N26A Cu6 1_555 1_555
N29_2 Cu5 1_555 1_555
N31C Cu6 1_555 1_555
N32B Cu5 1_555 1_555
Cu2 O1 1_555 1_555
Cu3 O1 1_555 1_555
Cu5 O2 1_555 1_555
N1 N2 1_555 1_555
N3 C1 1_555 1_555
N3 C2 1_555 1_555
N7 N8 1_555 1_555
N9 C5 1_555 1_555
N9 C6 1_555 1_555
N12 C8 1_555 1_555
N15 C9 1_555 1_555
N18 C12 1_555 1_555
N19 N20 1_555 1_555
N21 C13 1_555 1_555
N21 C14 1_555 1_555
N26 Cu6A 1_555 1_555
N27 C17 1_555 1_555
N27 C18 1_555 1_555
N33 C21 1_555 1_555
N36 C24 1_555 1_555
N37 N38 1_555 1_555
N39 C25 1_555 1_555
N39 C26 1_555 1_555
N40 N41 1_555 1_555
N42 C28 1_555 1_555
N13_2 N14_2 1_555 1_555

#END
