
#######################################################################
#
#                 Cambridge Crystallographic Data Centre
#                                CCDC 
#
#######################################################################
#
# If this CIF has been generated from an entry in the Cambridge 
# Structural Database, then it will include bibliographic, chemical, 
# crystal, experimental, refinement or atomic coordinate data resulting 
# from the CCDC's data processing and validation procedures.
#
#######################################################################

data_WELTIR
_symmetry_cell_setting           cubic
_symmetry_space_group_name_H-M   'F d -3 c'
_symmetry_Int_Tables_number      228
_space_group_name_Hall           '-F 4ud 2vw 3'
loop_
_symmetry_equiv_pos_site_id
_symmetry_equiv_pos_as_xyz
1 x,y,z
2 z,x,y
3 y,z,x
4 3/4+y,1/4+x,-z
5 1/4+y,-x,3/4+z
6 -y,3/4+x,1/4+z
7 3/4+x,1/4+z,-y
8 -x,3/4+z,1/4+y
9 1/4+x,-z,3/4+y
10 3/4+z,1/4+y,-x
11 1/4+z,-y,3/4+x
12 -z,3/4+y,1/4+x
13 x,1/2+y,1/2+z
14 1/4-x,1/4-y,z
15 z,1/2+x,1/2+y
16 1/4-z,1/4-x,y
17 y,1/2+z,1/2+x
18 1/4-y,1/4-z,x
19 1/4+y,1/2-x,1/4+z
20 -y,1/4+x,3/4+z
21 -x,1/4+z,3/4+y
22 1/4+x,1/2-z,1/4+y
23 1/4+z,1/2-y,1/4+x
24 -z,1/4+y,3/4+x
25 1/2+x,y,1/2+z
26 x,1/4-y,1/4-z
27 1/2+z,x,1/2+y
28 z,1/4-x,1/4-y
29 1/2+y,z,1/2+x
30 y,1/4-z,1/4-x
31 1/4+y,1/4+x,1/2-z
32 3/4+y,-x,1/4+z
33 1/4+x,1/4+z,1/2-y
34 3/4+x,-z,1/4+y
35 1/4+z,1/4+y,1/2-x
36 3/4+z,-y,1/4+x
37 1/2+x,1/2+y,z
38 1/4-x,y,1/4-z
39 1/2+z,1/2+x,y
40 1/4-z,x,1/4-y
41 1/2+y,1/2+z,x
42 1/4-y,z,1/4-x
43 1/4+y,3/4+x,-z
44 1/2-y,1/4+x,1/4+z
45 1/4+x,3/4+z,-y
46 1/2-x,1/4+z,1/4+y
47 1/4+z,3/4+y,-x
48 1/2-z,1/4+y,1/4+x
49 1/4-x,3/4-y,1/2+z
50 3/4-x,1/2+y,1/4-z
51 1/2+x,1/4-y,3/4-z
52 1/2+z,1/4-x,3/4-y
53 1/4-z,3/4-x,1/2+y
54 3/4-z,1/2+x,1/4-y
55 3/4-y,1/2+z,1/4-x
56 1/2+y,1/4-z,3/4-x
57 1/4-y,3/4-z,1/2+x
58 1/2-y,1/2-x,1/2-z
59 1/2-x,1/2-z,1/2-y
60 1/2-z,1/2-y,1/2-x
61 3/4-x,y,3/4-z
62 1/2+x,3/4-y,1/4-z
63 1/2+z,3/4-x,1/4-y
64 3/4-z,x,3/4-y
65 3/4-y,z,3/4-x
66 1/2+y,3/4-z,1/4-x
67 3/4+y,3/4+x,1/2-z
68 1/2-y,-x,-z
69 3/4+x,3/4+z,1/2-y
70 1/2-x,-z,-y
71 3/4+z,3/4+y,1/2-x
72 1/2-z,-y,-x
73 3/4-x,3/4-y,z
74 1/4-x,1/2+y,3/4-z
75 3/4-z,3/4-x,y
76 1/4-z,1/2+x,3/4-y
77 1/4-y,1/2+z,3/4-x
78 3/4-y,3/4-z,x
79 -y,1/2-x,-z
80 1/2-y,3/4+x,3/4+z
81 1/2-x,3/4+z,3/4+y
82 -x,1/2-z,-y
83 1/2-z,3/4+y,3/4+x
84 -z,1/2-y,-x
85 3/4-x,1/4-y,1/2+z
86 x,3/4-y,3/4-z
87 z,3/4-x,3/4-y
88 3/4-z,1/4-x,1/2+y
89 y,3/4-z,3/4-x
90 3/4-y,1/4-z,1/2+x
91 -y,-x,1/2-z
92 3/4+y,1/2-x,3/4+z
93 -x,-z,1/2-y
94 3/4+x,1/2-z,3/4+y
95 3/4+z,1/2-y,3/4+x
96 -z,-y,1/2-x
97 -x,-y,-z
98 -z,-x,-y
99 -y,-z,-x
100 1/4-y,3/4-x,z
101 3/4-y,x,1/4-z
102 y,1/4-x,3/4-z
103 1/4-x,3/4-z,y
104 x,1/4-z,3/4-y
105 3/4-x,z,1/4-y
106 1/4-z,3/4-y,x
107 3/4-z,y,1/4-x
108 z,1/4-y,3/4-x
109 -x,1/2-y,1/2-z
110 3/4+x,3/4+y,-z
111 -z,1/2-x,1/2-y
112 3/4+z,3/4+x,-y
113 -y,1/2-z,1/2-x
114 3/4+y,3/4+z,-x
115 3/4-y,1/2+x,3/4-z
116 y,3/4-x,1/4-z
117 x,3/4-z,1/4-y
118 3/4-x,1/2+z,3/4-y
119 3/4-z,1/2+y,3/4-x
120 z,3/4-y,1/4-x
121 1/2-x,-y,1/2-z
122 -x,3/4+y,3/4+z
123 1/2-z,-x,1/2-y
124 -z,3/4+x,3/4+y
125 1/2-y,-z,1/2-x
126 -y,3/4+z,3/4+x
127 3/4-y,3/4-x,1/2+z
128 1/4-y,x,3/4-z
129 3/4-x,3/4-z,1/2+y
130 1/4-x,z,3/4-y
131 3/4-z,3/4-y,1/2+x
132 1/4-z,y,3/4-x
133 1/2-x,1/2-y,-z
134 3/4+x,-y,3/4+z
135 1/2-z,1/2-x,-y
136 3/4+z,-x,3/4+y
137 1/2-y,1/2-z,-x
138 3/4+y,-z,3/4+x
139 3/4-y,1/4-x,z
140 1/2+y,3/4-x,3/4-z
141 3/4-x,1/4-z,y
142 1/2+x,3/4-z,3/4-y
143 3/4-z,1/4-y,x
144 1/2+z,3/4-y,3/4-x
145 3/4+x,1/4+y,1/2-z
146 1/4+x,1/2-y,3/4+z
147 1/2-x,3/4+y,1/4+z
148 1/2-z,3/4+x,1/4+y
149 3/4+z,1/4+x,1/2-y
150 1/4+z,1/2-x,3/4+y
151 1/4+y,1/2-z,3/4+x
152 1/2-y,3/4+z,1/4+x
153 3/4+y,1/4+z,1/2-x
154 1/2+y,1/2+x,1/2+z
155 1/2+x,1/2+z,1/2+y
156 1/2+z,1/2+y,1/2+x
157 1/4+x,-y,1/4+z
158 1/2-x,1/4+y,3/4+z
159 1/2-z,1/4+x,3/4+y
160 1/4+z,-x,1/4+y
161 1/4+y,-z,1/4+x
162 1/2-y,1/4+z,3/4+x
163 1/4-y,1/4-x,1/2+z
164 1/2+y,x,z
165 1/4-x,1/4-z,1/2+y
166 1/2+x,z,y
167 1/4-z,1/4-y,1/2+x
168 1/2+z,y,x
169 1/4+x,1/4+y,-z
170 3/4+x,1/2-y,1/4+z
171 1/4+z,1/4+x,-y
172 3/4+z,1/2-x,1/4+y
173 3/4+y,1/2-z,1/4+x
174 1/4+y,1/4+z,-x
175 y,1/2+x,z
176 1/2+y,1/4-x,1/4-z
177 1/2+x,1/4-z,1/4-y
178 x,1/2+z,y
179 1/2+z,1/4-y,1/4-x
180 z,1/2+y,x
181 1/4+x,3/4+y,1/2-z
182 -x,1/4+y,1/4+z
183 -z,1/4+x,1/4+y
184 1/4+z,3/4+x,1/2-y
185 -y,1/4+z,1/4+x
186 1/4+y,3/4+z,1/2-x
187 y,x,1/2+z
188 1/4-y,1/2+x,1/4-z
189 x,z,1/2+y
190 1/4-x,1/2+z,1/4-y
191 1/4-z,1/2+y,1/4-x
192 z,y,1/2+x
_cell_length_a                   30.0968(12)
_cell_length_b                   30.0968(12)
_cell_length_c                   30.0968(12)
_cell_angle_alpha                90
_cell_angle_beta                 90
_cell_angle_gamma                90
_cell_volume                     27262.2
loop_
_atom_site_label
_atom_site_type_symbol
_atom_site_fract_x
_atom_site_fract_y
_atom_site_fract_z
O1 O 0.0000 0.7500 0.5000
Cu1 Cu 0.04574(2) 0.57552(2) 0.48487(2)
Cl2 Cl 0.05580(4) 0.62062(5) 0.42425(4)
O2 O 0.02604(15) 0.52604(15) 0.52604(15)
H1 H 0.0097 0.5097 0.5097
O3 O 0.08033(18) 0.61644(19) 0.53458(19)
H2 H 0.0741 0.6437 0.5304
H3 H 0.1082 0.6133 0.5315
N1 N -0.01167(14) 0.60654(15) 0.49803(15)
N2 N 0.09649(14) 0.53712(14) 0.46616(14)
N3 N -0.06653(13) 0.65205(13) 0.50507(13)
C1 C -0.03123(18) 0.64021(18) 0.47940(17)
H4 H -0.0224 0.6543 0.4522
C2 C 0.12410(17) 0.54077(17) 0.43268(17)
H5 H 0.1245 0.5644 0.4113
Cu1LA Cu -0.01513(2) 0.54574(2) 0.57552(2)
Cu1BA Cu 0.07552(2) 0.48487(2) 0.54574(2)
N1BA N 0.10654(15) 0.49803(15) 0.48833(14)
N2LA N -0.03384(14) 0.59649(14) 0.53712(14)
N3PA N -0.09795(13) 0.68347(13) 0.49493(13)
N3BA N 0.15205(13) 0.50507(13) 0.43347(13)
C2LA C -0.06732(17) 0.62410(17) 0.54077(17)
Cl1 Cl 0.03794(12) 0.71206(12) 0.53794(12)
loop_
_geom_bond_atom_site_label_1
_geom_bond_atom_site_label_2
_geom_bond_site_symmetry_1
_geom_bond_site_symmetry_2
Cu1 Cl2 1_555 1_555
O2 Cu1 1_555 1_555
H1 O2 1_555 1_555
O3 Cu1 1_555 1_555
H2 O3 1_555 1_555
H3 O3 1_555 1_555
N1 Cu1 1_555 1_555
N2 Cu1 1_555 1_555
N3 C1 1_555 1_555
C1 N1 1_555 1_555
H4 C1 1_555 1_555
C2 N2 1_555 1_555
H5 C2 1_555 1_555
Cu1LA O2 1_555 1_555
Cu1BA O2 1_555 1_555
N1BA N2 1_555 1_555
N2LA N1 1_555 1_555
N3PA N3 1_555 1_555
N3BA C2 1_555 1_555
C2LA N3 1_555 1_555
Cu1LA N2LA 1_555 1_555
Cu1BA N1BA 1_555 1_555
N2LA C2LA 1_555 1_555

#END
