
#######################################################################
#
#                 Cambridge Crystallographic Data Centre
#                                CCDC 
#
#######################################################################
#
# If this CIF has been generated from an entry in the Cambridge 
# Structural Database, then it will include bibliographic, chemical, 
# crystal, experimental, refinement or atomic coordinate data resulting 
# from the CCDC's data processing and validation procedures.
#
#######################################################################

data_WELYOD
_symmetry_cell_setting           orthorhombic
_symmetry_space_group_name_H-M   'P 21 21 21'
_symmetry_Int_Tables_number      19
_space_group_name_Hall           'P 2ac 2ab'
loop_
_symmetry_equiv_pos_site_id
_symmetry_equiv_pos_as_xyz
1 x,y,z
2 1/2-x,-y,1/2+z
3 1/2+x,1/2-y,-z
4 -x,1/2+y,1/2-z
_cell_length_a                   15.6936(18)
_cell_length_b                   15.9984(19)
_cell_length_c                   26.489(3)
_cell_angle_alpha                90
_cell_angle_beta                 90
_cell_angle_gamma                90
_cell_volume                     6650.66
loop_
_atom_site_label
_atom_site_type_symbol
_atom_site_fract_x
_atom_site_fract_y
_atom_site_fract_z
Ag1 Ag 1.01634(5) 0.75528(4) 0.13889(3)
O1 O 0.8532(4) 0.5926(3) 0.5429(2)
C1 C 0.6790(5) 0.9158(4) 0.4105(3)
H1 H 0.6354 0.8750 0.4137
O2 O 0.7973(4) 0.8967(3) 0.2512(2)
C2 C 0.6937(3) 0.7491(4) 0.5032(2)
H2 H 0.6379 0.7521 0.4894
C3 C 0.7283(5) 0.6679(4) 0.5119(3)
C4 C 0.8180(4) 0.8162(4) 0.5335(3)
C5 C 0.6699(6) 0.6803(5) 0.2969(3)
C6 C 0.7346(4) 0.8237(4) 0.5133(3)
C7 C 0.6282(7) 0.6000(6) 0.3094(3)
H3 H 0.6365 0.5607 0.2804
O3 O 0.8683(3) 0.8839(3) 0.5445(2)
C8 C 0.6766(4) 0.5897(4) 0.5005(3)
H4 H 0.6977 0.5460 0.5245
N1 N 1.0081(5) 0.7332(5) 0.5775(3)
O4 O 0.7758(4) 0.6052(4) 0.2461(2)
C9 C 0.9393(5) 0.7328(5) 0.5621(3)
C10 C 0.6730(6) 0.5620(4) 0.3572(4)
O5 O 0.7880(5) 1.0325(3) 0.3117(2)
C11 C 0.7823(4) 0.7511(5) 0.2501(2)
C12 C 0.6448(4) 0.7593(4) 0.3111(3)
H5 H 0.5976 0.7629 0.3335
C13 C 0.6978(5) 0.5589(4) 0.4496(3)
C14 C 0.7200(5) 0.9421(4) 0.4530(3)
C15 C 0.6993(5) 0.9474(4) 0.3605(3)
C16 C 0.6602(6) 0.5915(5) 0.4054(3)
H6 H 0.6229 0.6377 0.4093
C17 C 0.8071(5) 1.0307(4) 0.4008(3)
C18 C 0.5808(6) 0.5979(5) 0.5106(4)
H7 H 0.5578 0.6405 0.4872
H8 H 0.5536 0.5440 0.5018
O6 O 0.8263(4) 1.0229(3) 0.4904(2)
C19 C 0.6464(5) 0.9176(5) 0.3159(3)
H9 H 0.6587 0.9581 0.2881
C20 C 0.7305(7) 0.4961(5) 0.3513(4)
C21 C 0.7631(5) 1.0040(4) 0.3577(3)
C22 C 0.8549(4) 0.7380(5) 0.5418(2)
C23 C 0.8114(5) 0.6643(4) 0.5307(3)
C24 C 0.7849(5) 1.0000(4) 0.4487(3)
C25 C 0.6952(4) 0.9073(4) 0.5055(3)
H10 H 0.7200 0.9458 0.5313
C26 C 0.8443(9) 0.4041(5) 0.3863(4)
C27 C 0.7735(6) 0.4620(5) 0.3939(4)
N2 N 0.9130(5) 0.7470(5) 0.1937(3)
C28 C 0.5689(6) 0.8853(5) 0.5650(3)
H11 H 0.5854 0.8265 0.5713
H12 H 0.6005 0.9205 0.5895
O7 O 0.7489(6) 0.4684(4) 0.3023(3)
O8 O 0.7980(4) 0.4623(3) 0.4818(3)
C29 C 0.7528(6) 0.8280(5) 0.2664(3)
C30 C 0.7576(6) 0.4939(4) 0.4422(3)
C31 C 0.7420(6) 0.6766(5) 0.2646(3)
C32 C 0.5539(6) 0.6207(6) 0.5627(3)
H13 H 0.5767 0.6768 0.5709
H14 H 0.4909 0.6240 0.5638
C33 C 0.8566(5) 0.7463(6) 0.2189(3)
C34 C 0.5971(5) 0.9090(5) 0.5122(3)
H15 H 0.5759 0.9659 0.5044
H16 H 0.5710 0.8699 0.4878
C35 C 0.8735(8) 1.0905(6) 0.3952(4)
N3 N 0.8951(6) 0.3577(5) 0.3785(4)
C36 C 0.5299(6) 0.6121(5) 0.3180(4)
H17 H 0.5226 0.6557 0.3442
H18 H 0.5054 0.6345 0.2864
C37 C 0.3552(6) 0.7464(6) 0.6113(3)
H19 H 0.3031 0.7764 0.6208
H20 H 0.3499 0.6875 0.6209
H21 H 0.3637 0.7507 0.5748
C38 C 0.5413(7) 0.5793(6) 0.6547(3)
H22 H 0.5566 0.6369 0.6650
H23 H 0.4786 0.5772 0.6512
C39 C 0.5666(9) 0.5212(8) 0.6960(4)
H24 H 0.6296 0.5176 0.6970
H25 H 0.5445 0.4647 0.6881
N4 N 0.9295(6) 1.1350(4) 0.3888(3)
C40 C 0.5827(7) 0.5615(6) 0.6010(3)
H26 H 0.6455 0.5647 0.6039
H27 H 0.5677 0.5041 0.5902
C41 C 0.4759(6) 0.8942(9) 0.5753(4)
H28 H 0.4456 0.8611 0.5493
H29 H 0.4611 0.9535 0.5693
C42 C 0.4365(13) 0.8694(8) 0.6278(4)
H30 H 0.4692 0.8986 0.6545
H31 H 0.3775 0.8911 0.6291
C43 C 0.5348(9) 0.5467(8) 0.7479(4)
H32 H 0.5707 0.5918 0.7611
H33 H 0.5373 0.4986 0.7707
H34 H 0.4758 0.5663 0.7452
C44 C 0.4778(8) 0.5386(9) 0.3333(6)
H35 H 0.4922 0.5235 0.3685
H36 H 0.4930 0.4905 0.3115
C45 C 0.3808(8) 0.5538(9) 0.3297(5)
H37 H 0.3645 0.5661 0.2943
H38 H 0.3642 0.6018 0.3511
C46 C 0.3354(10) 0.4719(10) 0.3484(6)
H39 H 0.3422 0.4267 0.3232
H40 H 0.3603 0.4531 0.3808
C47 C 0.5538(6) 0.9236(5) 0.3246(3)
H41 H 0.5410 0.8915 0.3557
H42 H 0.5408 0.9829 0.3321
C48 C 0.4937(8) 0.8958(9) 0.2855(7)
H43 H 0.5001 0.8343 0.2831
H44 H 0.5151 0.9188 0.2532
C49 C 0.2390(13) 0.7686(11) 0.3445(7)
H45 H 0.1777 0.7769 0.3495
H46 H 0.2666 0.7602 0.3774
H47 H 0.2485 0.7194 0.3233
C50 C 0.2758(11) 0.8433(12) 0.3197(8)
H48 H 0.2675 0.8933 0.3411
H49 H 0.2475 0.8532 0.2868
C51 C 0.3692(9) 0.8274(11) 0.3119(8)
H50 H 0.3791 0.7792 0.2892
H51 H 0.3990 0.8179 0.3443
C52 C 0.6802(5) 0.8320(5) 0.2966(3)
C53 C 0.4342(9) 0.7865(8) 0.6397(5)
H52 H 0.4280 0.7793 0.6766
H53 H 0.4876 0.7589 0.6289
C54 C 0.2395(10) 0.4937(10) 0.3553(7)
H54 H 0.2337 0.5399 0.3800
H55 H 0.2155 0.5129 0.3227
C55 C 0.1892(6) 0.4171(7) 0.3741(7)
H56 H 0.2088 0.3670 0.3562
H57 H 0.1283 0.4255 0.3676
H58 H 0.1985 0.4100 0.4104
H59 H 0.8350 0.4293 0.4893
H60 H 0.7904 0.5617 0.2617
H61 H 0.8508 1.0598 0.4769
H62 H 0.7640 0.4216 0.3005
H63 H 0.8528 0.9283 0.5367
H64 H 0.7840 0.9401 0.2631
H65 H 0.7990 1.0794 0.3196
H66 H 0.8294 0.5678 0.5211
C56 C 0.3977(11) 0.9131(13) 0.2864(10)
H67 H 0.3738 0.9200 0.2520
H68 H 0.3831 0.9622 0.3074
Ag1C Ag 0.98366(5) 0.25528(4) 0.36111(3)
Ag1C_2 Ag 0.98366(5) 1.25528(4) 0.36111(3)
N3C N 1.1049(6) 0.8577(5) 0.1215(4)
N4C N 1.0705(6) 0.6350(4) 0.1112(3)
O9 O 0.8598(8) 1.1784(5) 0.2869(4)
C57 C 0.9058(10) 1.1679(9) 0.2413(5)
O10 O 0.852(2) 0.3042(17) 0.4929(13)
C58 C 0.7737(18) 0.268(2) 0.4753(11)
C59 C 1.007(2) 0.107(2) 0.5450(10)
O11 O 0.9703(10) 0.1024(10) 0.4954(6)
C60 C 0.669(2) 0.297(4) 0.333(2)
O12 O 0.7472(10) 0.2988(9) 0.3047(6)
O13 O 1.076(3) 0.2546(19) 0.4484(17)
O14? O 0.7472(10) 0.2988(9) 0.3047(6)
C61? C 0.5203(10) 1.0124(9) 0.3322(7)
H69? H 0.5340 1.0458 0.3018
H70? H 0.5507 1.0380 0.3611
C62? C 0.4243(10) 1.0177(11) 0.3420(7)
H71? H 0.4083 0.9757 0.3678
H72? H 0.3934 1.0040 0.3105
C63? C 0.3964(15) 1.1065(13) 0.3606(11)
H73? H 0.4311 1.1237 0.3900
H74? H 0.4044 1.1481 0.3333
C64? C 0.3012(16) 1.1013(19) 0.3755(13)
H75? H 0.2680 1.0975 0.3438
H76? H 0.2930 1.0478 0.3935
O15? O 0.997(3) 0.392(3) 0.4912(17)
C65? C 0.5538(6) 0.9236(5) 0.3246(3)
H77? H 0.5393 0.8901 0.3549
H78? H 0.5239 0.8984 0.2955
O16? O 0.8839(14) 0.1750(14) 0.5071(8)
C66? C 1.082(3) 0.370(3) 0.5015(17)
C67? C 0.260(3) 1.169(4) 0.4073(18)
H79? H 0.2067 1.1481 0.4214
H80? H 0.2489 1.2181 0.3863
H81? H 0.2990 1.1845 0.4349
C68? C 0.826(2) 0.236(2) 0.4893(12)
C69? C 0.697(2) 0.245(2) 0.3372(13)
C70? C 0.376(4) 1.2565(19) 0.361(2)
H82? H 0.4006 1.3118 0.3662
H83? H 0.3272 1.2486 0.3834
H84? H 0.3561 1.2522 0.3255
C71? C 0.443(4) 1.189(2) 0.371(5)
H85? H 0.4925 1.1953 0.3479
H86? H 0.4632 1.1914 0.4062
C72? C 0.3964(15) 1.1065(13) 0.3606(11)
H87? H 0.3511 1.1226 0.3364
H88? H 0.3665 1.0950 0.3927
C73? C 0.4243(10) 1.0177(11) 0.3420(7)
H89? H 0.4083 0.9757 0.3678
H90? H 0.3934 1.0040 0.3105
C74? C 0.5203(10) 1.0124(9) 0.3322(7)
H91? H 0.5340 1.0458 0.3018
H92? H 0.5507 1.0380 0.3611
C75? C 0.5538(6) 0.9236(5) 0.3246(3)
H93? H 0.5393 0.8901 0.3549
H94? H 0.5239 0.8984 0.2955
loop_
_geom_bond_atom_site_label_1
_geom_bond_atom_site_label_2
_geom_bond_site_symmetry_1
_geom_bond_site_symmetry_2
Ag1 N2 1_555 1_555
O1 C23 1_555 1_555
C1 H1 1_555 1_555
O2 C29 1_555 1_555
C2 H2 1_555 1_555
C3 C2 1_555 1_555
C4 C6 1_555 1_555
C5 C7 1_555 1_555
C6 C2 1_555 1_555
C7 H3 1_555 1_555
O3 C4 1_555 1_555
C8 C3 1_555 1_555
H4 C8 1_555 1_555
N1 C9 1_555 1_555
O4 C31 1_555 1_555
C9 C22 1_555 1_555
C10 C7 1_555 1_555
O5 C21 1_555 1_555
C11 C29 1_555 1_555
C12 C5 1_555 1_555
H5 C12 1_555 1_555
C13 C8 1_555 1_555
C14 C1 1_555 1_555
C15 C1 1_555 1_555
C16 C10 1_555 1_555
H6 C16 1_555 1_555
C17 C21 1_555 1_555
C18 C8 1_555 1_555
H7 C18 1_555 1_555
H8 C18 1_555 1_555
O6 C24 1_555 1_555
C19 C15 1_555 1_555
H9 C19 1_555 1_555
C20 C10 1_555 1_555
C21 C15 1_555 1_555
C22 C4 1_555 1_555
C23 C3 1_555 1_555
C24 C14 1_555 1_555
C25 C6 1_555 1_555
H10 C25 1_555 1_555
C26 C27 1_555 1_555
C27 C20 1_555 1_555
N2 C33 1_555 1_555
C28 H11 1_555 1_555
H12 C28 1_555 1_555
O7 C20 1_555 1_555
O8 C30 1_555 1_555
C29 C52 1_555 1_555
C30 C13 1_555 1_555
C31 C5 1_555 1_555
C32 C18 1_555 1_555
H13 C32 1_555 1_555
H14 C32 1_555 1_555
C33 C11 1_555 1_555
C34 C25 1_555 1_555
H15 C34 1_555 1_555
H16 C34 1_555 1_555
C35 C17 1_555 1_555
N3 C26 1_555 1_555
C36 C7 1_555 1_555
H17 C36 1_555 1_555
H18 C36 1_555 1_555
C37 H19 1_555 1_555
H20 C37 1_555 1_555
H21 C37 1_555 1_555
C38 H22 1_555 1_555
H23 C38 1_555 1_555
C39 C38 1_555 1_555
H24 C39 1_555 1_555
H25 C39 1_555 1_555
N4 C35 1_555 1_555
C40 C32 1_555 1_555
H26 C40 1_555 1_555
H27 C40 1_555 1_555
C41 C28 1_555 1_555
H28 C41 1_555 1_555
H29 C41 1_555 1_555
C42 C41 1_555 1_555
H30 C42 1_555 1_555
H31 C42 1_555 1_555
C43 C39 1_555 1_555
H32 C43 1_555 1_555
H33 C43 1_555 1_555
H34 C43 1_555 1_555
C44 C36 1_555 1_555
H35 C44 1_555 1_555
H36 C44 1_555 1_555
C45 C44 1_555 1_555
H37 C45 1_555 1_555
H38 C45 1_555 1_555
C46 C45 1_555 1_555
H39 C46 1_555 1_555
H40 C46 1_555 1_555
C47 C19 1_555 1_555
H41 C47 1_555 1_555
H42 C47 1_555 1_555
C48 C47 1_555 1_555
H43 C48 1_555 1_555
H44 C48 1_555 1_555
C49 H45 1_555 1_555
H46 C49 1_555 1_555
H47 C49 1_555 1_555
C50 C49 1_555 1_555
H48 C50 1_555 1_555
H49 C50 1_555 1_555
C51 C50 1_555 1_555
H50 C51 1_555 1_555
H51 C51 1_555 1_555
C52 C12 1_555 1_555
C53 C37 1_555 1_555
H52 C53 1_555 1_555
H53 C53 1_555 1_555
C54 C46 1_555 1_555
H54 C54 1_555 1_555
H55 C54 1_555 1_555
C55 C54 1_555 1_555
H56 C55 1_555 1_555
H57 C55 1_555 1_555
H58 C55 1_555 1_555
H59 O8 1_555 1_555
H60 O4 1_555 1_555
H61 O6 1_555 1_555
H62 O7 1_555 1_555
H63 O3 1_555 1_555
H64 O2 1_555 1_555
H65 O5 1_555 1_555
H66 O1 1_555 1_555
C56 C48 1_555 1_555
H67 C56 1_555 1_555
H68 C56 1_555 1_555
O9 C57 1_555 1_555
O10 C58 1_555 1_555
C59 O11 1_555 1_555
C60 O12 1_555 1_555
Ag1C N3 1_555 1_555
Ag1C_2 N4 1_555 1_555
N3C Ag1 1_555 1_555
N4C Ag1 1_555 1_555
C11 C31 1_555 1_555
C13 C16 1_555 1_555
C14 C25 1_555 1_555
C17 C24 1_555 1_555
C19 C52 1_555 1_555
C22 C23 1_555 1_555
C27 C30 1_555 1_555
C28 C34 1_555 1_555
C38 C40 1_555 1_555
C42 C53 1_555 1_555
C51 C56 1_555 1_555

#END
