
#######################################################################
#
#                 Cambridge Crystallographic Data Centre
#                                CCDC 
#
#######################################################################
#
# If this CIF has been generated from an entry in the Cambridge 
# Structural Database, then it will include bibliographic, chemical, 
# crystal, experimental, refinement or atomic coordinate data resulting 
# from the CCDC's data processing and validation procedures.
#
#######################################################################

data_WELZEU
_symmetry_cell_setting           rhombohedral
_symmetry_space_group_name_H-M   'R 3'
_symmetry_Int_Tables_number      146
_space_group_name_Hall           'R 3'
loop_
_symmetry_equiv_pos_site_id
_symmetry_equiv_pos_as_xyz
1 x,y,z
2 -y,x-y,z
3 -x+y,-x,z
4 2/3+x,1/3+y,1/3+z
5 2/3-y,1/3+x-y,1/3+z
6 2/3-x+y,1/3-x,1/3+z
7 1/3+x,2/3+y,2/3+z
8 1/3-y,2/3+x-y,2/3+z
9 1/3-x+y,2/3-x,2/3+z
_cell_length_a                   25.4049(3)
_cell_length_b                   25.4049(3)
_cell_length_c                   10.6802(2)
_cell_angle_alpha                90
_cell_angle_beta                 90
_cell_angle_gamma                120
_cell_volume                     5969.6
loop_
_atom_site_label
_atom_site_type_symbol
_atom_site_fract_x
_atom_site_fract_y
_atom_site_fract_z
Cu1 Cu 0.18193(5) 0.36423(5) 0.82099(12)
Br1 Br 0.16778(4) 0.35292(4) 1.04884(9)
Br2 Br 0.20286(4) 0.38556(4) 0.60051(10)
N1 N 0.2590(3) 0.3633(3) 0.8435(7)
N2 N 0.1397(3) 0.1527(3) 0.9104(8)
H1 H 0.1532 0.1271 0.9207
N3 N 0.0947(3) 0.3395(3) 0.7945(7)
N4 N 0.1815(3) 0.5292(3) 0.9043(8)
H2 H 0.1759 0.5592 0.9282
O1 O 0.0609(3) 0.1638(3) 0.8549(9)
O2 O 0.2481(3) 0.5006(3) 0.8408(7)
C1 C 0.3090(4) 0.4156(4) 0.8747(9)
H3 H 0.3052 0.4505 0.8895
C2 C 0.3652(4) 0.4208(4) 0.8863(9)
H4 H 0.4000 0.4585 0.9070
C3 C 0.3697(4) 0.3695(4) 0.8668(9)
H5 H 0.4081 0.3719 0.8715
C4 C 0.3183(4) 0.3146(4) 0.8403(9)
H6 H 0.3207 0.2787 0.8298
C5 C 0.2632(4) 0.3128(4) 0.8292(9)
C6 C 0.2070(4) 0.2530(4) 0.8039(9)
H7 H 0.2167 0.2288 0.7455
H8 H 0.1758 0.2601 0.7641
C7 C 0.1819(4) 0.2178(4) 0.9266(9)
H9 H 0.2165 0.2232 0.9788
H10 H 0.1609 0.2358 0.9728
C8 C 0.0809(4) 0.1306(4) 0.8801(10)
C9 C 0.0409(4) 0.0622(3) 0.8774(8)
C10 C -0.0218(4) 0.0405(4) 0.8778(9)
H11 H -0.0366 0.0683 0.8784
C11 C 0.0586(4) 0.2790(4) 0.8001(10)
H12 H 0.0765 0.2547 0.8170
C12 C -0.0040(4) 0.2502(4) 0.7824(10)
H13 H -0.0282 0.2072 0.7836
C13 C -0.0297(4) 0.2862(4) 0.7629(10)
H14 H -0.0725 0.2683 0.7536
C14 C 0.0077(4) 0.3490(4) 0.7570(9)
H15 H -0.0094 0.3741 0.7426
C15 C 0.0704(4) 0.3751(3) 0.7722(8)
C16 C 0.1123(4) 0.4422(4) 0.7694(9)
H16 H 0.0920 0.4620 0.7276
H17 H 0.1492 0.4516 0.7207
C17 C 0.1304(4) 0.4669(4) 0.9024(9)
H18 H 0.0951 0.4657 0.9445
H19 H 0.1415 0.4404 0.9501
C18 C 0.2364(4) 0.5405(4) 0.8699(9)
C19 C 0.2861(4) 0.6063(3) 0.8752(9)
C20 C 0.2733(3) 0.6538(4) 0.8737(9)
H20 H 0.2323 0.6449 0.8718
Cu1A Cu -0.36423(5) -0.18230(7) 0.82099(12)
Cu1B Cu 0.18230(7) -0.18193(5) 0.82099(12)
Cu1A_2 Cu 0.63577(5) 0.81770(7) 0.82099(12)
Cu1B_2 Cu 0.18230(7) 0.81807(5) 0.82099(12)
Br1A Br -0.35292(4) -0.18514(6) 1.04884(9)
Br1B Br 0.18514(6) -0.16778(4) 1.04884(9)
Br2A Br -0.38556(4) -0.18270(6) 0.60051(10)
Br2B Br 0.18270(6) -0.20286(4) 0.60051(10)
N1A N -0.3633(3) -0.1043(4) 0.8435(7)
N1B N 0.1043(4) -0.2590(3) 0.8435(7)
N2A N -0.1527(3) -0.0130(4) 0.9104(8)
N2B N 0.0130(4) -0.1397(3) 0.9104(8)
H1A H -0.1271 0.0261 0.9207
H1B H -0.0261 -0.1532 0.9207
N3A N 0.6605(3) 0.7552(4) 0.7945(7)
N3B N 0.2448(4) 0.9053(3) 0.7945(7)
N3B_2 N 0.2448(4) -0.0947(3) 0.7945(7)
N3A_2 N -0.3395(3) -0.2448(4) 0.7945(7)
N4A N 0.4708(3) 0.6523(4) 0.9043(8)
N4B N 0.3477(4) 0.8185(3) 0.9043(8)
H2A H 0.4408 0.6167 0.9282
H2B H 0.3833 0.8241 0.9282
O1A O -0.1638(3) -0.1029(4) 0.8549(9)
O1B O 0.1029(4) -0.0609(3) 0.8549(9)
O2A O 0.4994(3) 0.7475(4) 0.8408(7)
O2B O 0.2525(4) 0.7519(3) 0.8408(7)
C1A C -0.4156(4) -0.1066(6) 0.8747(9)
C1B C 0.1066(6) -0.3090(4) 0.8747(9)
H3A H -0.4505 -0.1453 0.8895
H3B H 0.1453 -0.3052 0.8895
C2A C -0.4208(4) -0.0556(6) 0.8863(9)
C2B C 0.0556(6) -0.3652(4) 0.8863(9)
H4A H -0.4585 -0.0585 0.9070
H4B H 0.0585 -0.4000 0.9070
C3A C -0.3695(4) 0.0002(6) 0.8668(9)
C3B C -0.0002(6) -0.3697(4) 0.8668(9)
H5A H -0.3719 0.0362 0.8715
H5B H -0.0362 -0.4081 0.8715
C4A C -0.3146(4) 0.0037(6) 0.8403(9)
C4B C -0.0037(6) -0.3183(4) 0.8403(9)
H6A H -0.2787 0.0420 0.8298
H6B H -0.0420 -0.3207 0.8298
C5A C -0.3128(4) -0.0496(6) 0.8292(9)
C5B C 0.0496(6) -0.2632(4) 0.8292(9)
C6A C -0.2530(4) -0.0460(6) 0.8039(9)
C6B C 0.0460(6) -0.2070(4) 0.8039(9)
H7A H -0.2288 -0.0121 0.7455
H7B H 0.0121 -0.2167 0.7455
H8A H -0.2601 -0.0843 0.7641
H8B H 0.0843 -0.1758 0.7641
C7A C -0.2178(4) -0.0359(6) 0.9266(9)
C7B C 0.0359(6) -0.1819(4) 0.9266(9)
H9A H -0.2232 -0.0067 0.9788
H9B H 0.0067 -0.2165 0.9788
H10A H -0.2358 -0.0749 0.9728
H10B H 0.0749 -0.1609 0.9728
C8A C -0.1306(4) -0.0497(6) 0.8801(10)
C8B C 0.0497(6) -0.0809(4) 0.8801(10)
C9A C -0.0622(3) -0.0213(5) 0.8774(8)
C9B C 0.0213(5) -0.0409(4) 0.8774(8)
C10A C -0.0405(4) -0.0623(6) 0.8778(9)
C10B C 0.0623(6) 0.0218(4) 0.8778(9)
H11A H -0.0683 -0.1049 0.8784
H11B H 0.1049 0.0366 0.8784
C11A C 0.7210(4) 0.7796(6) 0.8001(10)
C11B C 0.2204(6) 0.9414(4) 0.8001(10)
H12A H 0.7453 0.8218 0.8170
H12B H 0.1782 0.9235 0.8170
C12A C 0.7498(4) 0.7458(6) 0.7824(10)
C12B C 0.2542(6) 1.0040(4) 0.7824(10)
H13A H 0.7928 0.7646 0.7836
H13B H 0.2354 1.0282 0.7836
C13A C 0.7138(4) 0.6841(6) 0.7629(10)
C13B C 0.3159(6) 1.0297(4) 0.7629(10)
H14A H 0.7317 0.6592 0.7536
H14B H 0.3408 1.0725 0.7536
C14A C 0.6510(4) 0.6587(6) 0.7570(9)
C14B C 0.3413(6) 0.9923(4) 0.7570(9)
H15A H 0.6259 0.6165 0.7426
H15B H 0.3835 1.0094 0.7426
C15A C 0.6249(3) 0.6953(5) 0.7722(8)
C15B C 0.3047(5) 0.9296(4) 0.7722(8)
C16A C 0.5578(4) 0.6701(6) 0.7694(9)
C16B C 0.3299(6) 0.8877(4) 0.7694(9)
H16A H 0.5380 0.6300 0.7276
H16B H 0.3700 0.9080 0.7276
H17A H 0.5484 0.6976 0.7207
H17B H 0.3024 0.8508 0.7207
C17A C 0.5331(4) 0.6635(6) 0.9024(9)
C17B C 0.3365(6) 0.8696(4) 0.9024(9)
H18A H 0.5343 0.6294 0.9445
H18B H 0.3706 0.9049 0.9445
H19A H 0.5596 0.7011 0.9501
H19B H 0.2989 0.8585 0.9501
C18A C 0.4595(4) 0.6959(6) 0.8699(9)
C18B C 0.3041(6) 0.7636(4) 0.8699(9)
C19A C 0.3937(3) 0.6798(5) 0.8752(9)
C19B C 0.3202(5) 0.7139(4) 0.8752(9)
C20A C 0.3462(4) 0.6195(5) 0.8737(9)
C20B C 0.3805(5) 0.7267(3) 0.8737(9)
H20A H 0.3551 0.5874 0.8718
H20B H 0.4126 0.7677 0.8718
O3 O 0.1918(5) 0.7145(4) 1.1601(9)
H21 H 0.1958 0.6885 1.1190
C21 C 0.2320(7) 0.7354(8) 1.2526(14)
H22 H 0.2231 0.7008 1.3085
H23 H 0.2251 0.7645 1.3017
C22 C 0.2958(9) 0.7651(14) 1.220(2)
H24 H 0.3067 0.7344 1.1970
H25 H 0.3203 0.7885 1.2921
H26 H 0.3037 0.7926 1.1492
C23 C 0.1072(8) 0.5662(7) 1.1466(16)
H27 H 0.1262 0.5506 1.2044
H28 H 0.0724 0.5320 1.1055
H29 H 0.0934 0.5903 1.1932
O4 O 0.1504(4) 0.6034(4) 1.0544(8)
H30 H 0.1323 0.6091 0.9947
loop_
_geom_bond_atom_site_label_1
_geom_bond_atom_site_label_2
_geom_bond_site_symmetry_1
_geom_bond_site_symmetry_2
Cu1 Br1 1_555 1_555
Br2 Cu1 1_555 1_555
N1 Cu1 1_555 1_555
N2 H1 1_555 1_555
N3 Cu1 1_555 1_555
N4 H2 1_555 1_555
O1 C8 1_555 1_555
O2 C18 1_555 1_555
C1 N1 1_555 1_555
H3 C1 1_555 1_555
C2 C1 1_555 1_555
H4 C2 1_555 1_555
C3 C2 1_555 1_555
H5 C3 1_555 1_555
C4 C3 1_555 1_555
H6 C4 1_555 1_555
C5 N1 1_555 1_555
C6 C5 1_555 1_555
H7 C6 1_555 1_555
H8 C6 1_555 1_555
C7 N2 1_555 1_555
H9 C7 1_555 1_555
H10 C7 1_555 1_555
C8 N2 1_555 1_555
C9 C8 1_555 1_555
C10 C9 1_555 1_555
H11 C10 1_555 1_555
C11 N3 1_555 1_555
H12 C11 1_555 1_555
C12 C11 1_555 1_555
H13 C12 1_555 1_555
C13 C12 1_555 1_555
H14 C13 1_555 1_555
C14 C13 1_555 1_555
H15 C14 1_555 1_555
C15 N3 1_555 1_555
C16 C15 1_555 1_555
H16 C16 1_555 1_555
H17 C16 1_555 1_555
C17 N4 1_555 1_555
H18 C17 1_555 1_555
H19 C17 1_555 1_555
C18 N4 1_555 1_555
C19 C18 1_555 1_555
C20 C19 1_555 1_555
H20 C20 1_555 1_555
O3 H21 1_555 1_555
C21 O3 1_555 1_555
H22 C21 1_555 1_555
H23 C21 1_555 1_555
C22 C21 1_555 1_555
H24 C22 1_555 1_555
H25 C22 1_555 1_555
H26 C22 1_555 1_555
C23 H27 1_555 1_555
H28 C23 1_555 1_555
H29 C23 1_555 1_555
O4 C23 1_555 1_555
H30 O4 1_555 1_555
Cu1A Br1A 1_555 1_555
Cu1B Br1B 1_555 1_555
Cu1A_2 N3A 1_555 1_555
Cu1B_2 N3B 1_555 1_555
Br2A Cu1A 1_555 1_555
Br2B Cu1B 1_555 1_555
N1A Cu1A 1_555 1_555
N1B Cu1B 1_555 1_555
N2A H1A 1_555 1_555
N2B H1B 1_555 1_555
N3A C11A 1_555 1_555
N3B C11B 1_555 1_555
N3B_2 Cu1B 1_555 1_555
N3A_2 Cu1A 1_555 1_555
N4A H2A 1_555 1_555
N4B H2B 1_555 1_555
O1A C8A 1_555 1_555
O1B C8B 1_555 1_555
O2A C18A 1_555 1_555
O2B C18B 1_555 1_555
C1A N1A 1_555 1_555
C1B N1B 1_555 1_555
H3A C1A 1_555 1_555
H3B C1B 1_555 1_555
C2A C1A 1_555 1_555
C2B C1B 1_555 1_555
H4A C2A 1_555 1_555
H4B C2B 1_555 1_555
C3A C2A 1_555 1_555
C3B C2B 1_555 1_555
H5A C3A 1_555 1_555
H5B C3B 1_555 1_555
C4A C3A 1_555 1_555
C4B C3B 1_555 1_555
H6A C4A 1_555 1_555
H6B C4B 1_555 1_555
C5A N1A 1_555 1_555
C5B N1B 1_555 1_555
C6A C5A 1_555 1_555
C6B C5B 1_555 1_555
H7A C6A 1_555 1_555
H7B C6B 1_555 1_555
H8A C6A 1_555 1_555
H8B C6B 1_555 1_555
C7A N2A 1_555 1_555
C7B N2B 1_555 1_555
H9A C7A 1_555 1_555
H9B C7B 1_555 1_555
H10A C7A 1_555 1_555
H10B C7B 1_555 1_555
C8A N2A 1_555 1_555
C8B N2B 1_555 1_555
C9A C10 1_555 1_555
C9B C8B 1_555 1_555
C10A C9A 1_555 1_555
C10B C9 1_555 1_555
H11A C10A 1_555 1_555
H11B C10B 1_555 1_555
C11A H12A 1_555 1_555
C11B H12B 1_555 1_555
C12A C11A 1_555 1_555
C12B C11B 1_555 1_555
H13A C12A 1_555 1_555
H13B C12B 1_555 1_555
C13A C12A 1_555 1_555
C13B C12B 1_555 1_555
H14A C13A 1_555 1_555
H14B C13B 1_555 1_555
C14A C13A 1_555 1_555
C14B C13B 1_555 1_555
H15A C14A 1_555 1_555
H15B C14B 1_555 1_555
C15A N3A 1_555 1_555
C15B N3B 1_555 1_555
C16A C15A 1_555 1_555
C16B C15B 1_555 1_555
H16A C16A 1_555 1_555
H16B C16B 1_555 1_555
H17A C16A 1_555 1_555
H17B C16B 1_555 1_555
C17A N4A 1_555 1_555
C17B N4B 1_555 1_555
H18A C17A 1_555 1_555
H18B C17B 1_555 1_555
H19A C17A 1_555 1_555
H19B C17B 1_555 1_555
C18A N4A 1_555 1_555
C18B N4B 1_555 1_555
C19A C18A 1_555 1_555
C19B C20 1_555 1_555
C20A C19 1_555 1_555
C20B C19A 1_555 1_555
H20A C20A 1_555 1_555
H20B C20B 1_555 1_555
C4 C5 1_555 1_555
C6 C7 1_555 1_555
C14 C15 1_555 1_555
C16 C17 1_555 1_555
C4A C5A 1_555 1_555
C4B C5B 1_555 1_555
C6A C7A 1_555 1_555
C6B C7B 1_555 1_555
C8A C9A 1_555 1_555
C9B C10A 1_555 1_555
C9B C10B 1_555 1_555
C14A C15A 1_555 1_555
C14B C15B 1_555 1_555
C16A C17A 1_555 1_555
C16B C17B 1_555 1_555
C18B C19B 1_555 1_555
C19A C20A 1_555 1_555
C19B C20B 1_555 1_555

#END
