
#######################################################################
#
#                 Cambridge Crystallographic Data Centre
#                                CCDC 
#
#######################################################################
#
# If this CIF has been generated from an entry in the Cambridge 
# Structural Database, then it will include bibliographic, chemical, 
# crystal, experimental, refinement or atomic coordinate data resulting 
# from the CCDC's data processing and validation procedures.
#
#######################################################################

data_WELZAQ
_symmetry_cell_setting           rhombohedral
_symmetry_space_group_name_H-M   'R 3'
_symmetry_Int_Tables_number      146
_space_group_name_Hall           'R 3'
loop_
_symmetry_equiv_pos_site_id
_symmetry_equiv_pos_as_xyz
1 x,y,z
2 -y,x-y,z
3 -x+y,-x,z
4 2/3+x,1/3+y,1/3+z
5 2/3-y,1/3+x-y,1/3+z
6 2/3-x+y,1/3-x,1/3+z
7 1/3+x,2/3+y,2/3+z
8 1/3-y,2/3+x-y,2/3+z
9 1/3-x+y,2/3-x,2/3+z
_cell_length_a                   25.1719(5)
_cell_length_b                   25.1719(5)
_cell_length_c                   10.8188(3)
_cell_angle_alpha                90
_cell_angle_beta                 90
_cell_angle_gamma                120
_cell_volume                     5936.65
loop_
_atom_site_label
_atom_site_type_symbol
_atom_site_fract_x
_atom_site_fract_y
_atom_site_fract_z
Cl1 Cl 0.86790(8) 0.71926(8) -0.09730(14)
Cl2 Cl 0.83486(7) 0.68699(8) 0.31522(15)
Cu1 Cu 0.84870(4) 0.69938(4) 0.10667(8)
N1 N 0.9270(2) 0.6978(3) 0.1268(4)
N2 N 0.8102(2) 0.4873(2) 0.1973(5)
H1 H 0.8232 0.4610 0.2071
N3 N 0.7601(2) 0.6733(2) 0.0853(4)
N4 N 0.8451(2) 0.8623(2) 0.1971(4)
H2 H 0.8392 0.8925 0.2203
O1 O 0.7298(2) 0.49864(19) 0.1508(5)
O2 O 0.91251(18) 0.83214(19) 0.1295(4)
C1 C 0.9763(3) 0.7507(3) 0.1569(5)
H3 H 0.9728 0.7860 0.1722
C2 C 1.0344(3) 0.7542(3) 0.1663(6)
H4 H 1.0697 0.7924 0.1855
C3 C 1.0400(3) 0.7047(4) 0.1484(6)
H5 H 1.0790 0.7074 0.1538
C4 C 0.9885(3) 0.6500(3) 0.1223(6)
H6 H 0.9912 0.6140 0.1112
C5 C 0.9312(3) 0.6472(3) 0.1118(5)
C6 C 0.8765(3) 0.5879(3) 0.0901(5)
H7 H 0.8860 0.5643 0.0297
H8 H 0.8439 0.5942 0.0545
C7 C 0.8535(3) 0.5514(3) 0.2100(6)
H9 H 0.8895 0.5558 0.2563
H10 H 0.8346 0.5702 0.2608
C8 C 0.7509(3) 0.4654(3) 0.1714(6)
C9 C 0.7088(3) 0.3961(3) 0.1732(6)
C10 C 0.7296(3) 0.3545(3) 0.1720(5)
H11 H 0.7724 0.3687 0.1703
C11 C 0.7231(3) 0.6132(3) 0.0934(5)
H12 H 0.7411 0.5882 0.1065
C12 C 0.6598(3) 0.5845(3) 0.0840(6)
H13 H 0.6352 0.5412 0.0912
C13 C 0.6341(3) 0.6194(3) 0.0643(5)
H14 H 0.5909 0.6008 0.0553
C14 C 0.6709(3) 0.6826(3) 0.0572(5)
H15 H 0.6531 0.7079 0.0473
C15 C 0.7343(3) 0.7085(3) 0.0649(5)
C16 C 0.7752(2) 0.7755(2) 0.0611(5)
H16 H 0.7537 0.7951 0.0227
H17 H 0.8119 0.7856 0.0108
C17 C 0.7947(3) 0.7996(3) 0.1942(5)
H18 H 0.7591 0.7973 0.2384
H19 H 0.8069 0.7730 0.2383
C18 C 0.9020(3) 0.8735(3) 0.1632(5)
C19 C 0.9528(3) 0.9401(3) 0.1665(5)
C20 C 0.9403(2) 0.9883(3) 0.1658(5)
H20 H 0.8991 0.9799 0.1649
Cl1B Cl 0.85136(11) 0.13210(8) -0.09730(14)
Cl1A Cl 0.28074(8) 0.14864(11) -0.09730(14)
Cl2B Cl 0.85213(11) 0.16514(7) 0.31522(15)
Cl2A Cl 0.31301(8) 0.14787(11) 0.31522(15)
Cu1B Cu 0.85068(6) 0.15130(4) 0.10667(8)
Cu1A Cu 0.30062(4) 0.14932(6) 0.10667(8)
Cu1B_2 Cu 0.85068(6) 1.15130(4) 0.10667(8)
Cu1A_2 Cu 1.30062(4) 1.14932(6) 0.10667(8)
N1B N 0.7708(4) 0.0730(2) 0.1268(4)
N1A N 0.3022(3) 0.2292(4) 0.1268(4)
N2B N 0.6771(3) 0.1898(2) 0.1973(5)
N2A N 0.5127(2) 0.3229(3) 0.1973(5)
H1B H 0.6378 0.1768 0.2071
H1A H 0.5390 0.3622 0.2071
N3B N 0.9132(3) 1.2399(2) 0.0853(4)
N3A N 1.3267(2) 1.0868(3) 0.0853(4)
N3B_2 N 0.9132(3) 0.2399(2) 0.0853(4)
N3A_2 N 0.3267(2) 0.0868(3) 0.0853(4)
N4B N 1.0172(3) 1.1549(2) 0.1971(4)
N4A N 1.1377(2) 0.9828(3) 0.1971(4)
H2B H 1.0533 1.1608 0.2203
H2A H 1.1075 0.9467 0.2203
O1B O 0.76884(28) 0.2702(2) 0.1508(5)
O1A O 0.50136(19) 0.23116(28) 0.1508(5)
O2B O 0.91963(26) 1.08749(18) 0.1295(4)
O2A O 1.16786(19) 1.08037(26) 0.1295(4)
C1B C 0.7744(4) 0.0237(3) 0.1569(5)
C1A C 0.2493(3) 0.2256(4) 0.1569(5)
H3B H 0.8132 0.0272 0.1722
H3A H 0.2140 0.1868 0.1722
C2B C 0.7198(4) -0.0344(3) 0.1663(6)
C2A C 0.2458(3) 0.2802(4) 0.1663(6)
H4B H 0.7227 -0.0697 0.1855
H4A H 0.2076 0.2773 0.1855
C3B C 0.6647(5) -0.0400(3) 0.1484(6)
C3A C 0.2953(4) 0.3353(5) 0.1484(6)
H5B H 0.6284 -0.0790 0.1538
H5A H 0.2926 0.3716 0.1538
C4B C 0.6615(4) 0.0115(3) 0.1223(6)
C4A C 0.3500(3) 0.3385(4) 0.1223(6)
H6B H 0.6228 0.0088 0.1112
H6A H 0.3860 0.3772 0.1112
C5B C 0.7160(4) 0.0688(3) 0.1118(5)
C5A C 0.3528(3) 0.2840(4) 0.1118(5)
C6B C 0.7114(4) 0.1235(3) 0.0901(5)
C6A C 0.4121(3) 0.2886(4) 0.0901(5)
H7B H 0.6783 0.1140 0.0297
H7A H 0.4357 0.3217 0.0297
H8B H 0.7503 0.1561 0.0545
H8A H 0.4058 0.2497 0.0545
C7B C 0.6979(4) 0.1465(3) 0.2100(6)
C7A C 0.4486(3) 0.3021(4) 0.2100(6)
H9B H 0.6663 0.1105 0.2563
H9A H 0.4442 0.3337 0.2563
H10B H 0.7356 0.1654 0.2608
H10A H 0.4298 0.2644 0.2608
C8B C 0.7145(4) 0.2491(3) 0.1714(6)
C8A C 0.5346(3) 0.2855(4) 0.1714(6)
C9B C 0.6873(4) 0.2912(3) 0.1732(6)
C9A C 0.6039(3) 0.3127(4) 0.1732(6)
C10B C 0.6249(4) 0.2704(3) 0.1720(5)
C10A C 0.6455(3) 0.3751(4) 0.1720(5)
H11A H 0.6313 0.4037 0.1703
H11B H 0.5963 0.2276 0.1703
C11B C 0.8901(4) 1.2769(3) 0.0934(5)
C11A C 1.3868(3) 1.1099(4) 0.0934(5)
H12B H 0.8471 1.2589 0.1065
H12A H 1.4118 1.1529 0.1065
C12B C 0.9247(4) 1.3402(3) 0.0840(6)
C12A C 1.4155(3) 1.0753(4) 0.0840(6)
H13B H 0.9060 1.3648 0.0912
H13A H 1.4588 1.0940 0.0912
C13B C 0.9853(4) 1.3659(3) 0.0643(5)
C13A C 1.3806(3) 1.0147(4) 0.0643(5)
H14B H 1.0099 1.4091 0.0553
H14A H 1.3992 0.9901 0.0553
C14B C 1.0117(4) 1.3291(3) 0.0572(5)
C14A C 1.3174(3) 0.9883(4) 0.0572(5)
H15B H 1.0548 1.3469 0.0473
H15A H 1.2921 0.9452 0.0473
C15B C 0.9742(4) 1.2657(3) 0.0649(5)
C15A C 1.2915(3) 1.0258(4) 0.0649(5)
C16B C 1.0003(3) 1.2248(2) 0.0611(5)
C16A C 1.2245(2) 0.9997(3) 0.0611(5)
H16B H 1.0414 1.2463 0.0227
H16A H 1.2049 0.9586 0.0227
H17B H 0.9737 1.1881 0.0108
H17A H 1.2144 1.0263 0.0108
C17B C 1.0049(4) 1.2053(3) 0.1942(5)
C17A C 1.2004(3) 0.9951(4) 0.1942(5)
H18B H 1.0382 1.2409 0.2384
H18A H 1.2027 0.9618 0.2384
H19B H 0.9661 1.1931 0.2383
H19A H 1.2270 1.0339 0.2383
C18B C 0.9715(4) 1.0980(3) 0.1632(5)
C18A C 1.1265(3) 1.0285(4) 0.1632(5)
C19B C 0.9873(4) 1.0472(3) 0.1665(5)
C19A C 1.0599(3) 1.0127(4) 0.1665(5)
C20B C 1.0480(4) 1.0597(2) 0.1658(5)
C20A C 1.0117(3) 0.9520(4) 0.1658(5)
H20A H 1.0201 0.9192 0.1649
H20B H 1.0808 1.1009 0.1649
O3 O 0.8150(2) 0.9386(2) 0.3402(5)
H21 H 0.8332 0.9756 0.3622
C21 C 0.7697(5) 0.9045(5) 0.4226(9)
H22 H 0.7326 0.8740 0.3778
H23 H 0.7590 0.9315 0.4701
C22 C 0.7910(7) 0.8717(9) 0.5106(15)
H25 H 0.7580 0.8467 0.5689
H26 H 0.8271 0.9021 0.5564
H27 H 0.8017 0.8452 0.4632
O4 O 0.9471(2) 0.8050(3) 0.4432(5)
H24 H 0.9350 0.8082 0.3727
C23 C 0.9191(5) 0.8228(5) 0.5330(11)
H28 H 0.9328 0.8172 0.6153
H29 H 0.8742 0.7946 0.5282
C24 C 0.9313(9) 0.8884(6) 0.5244(13)
H30 H 0.9138 0.8975 0.5969
H31 H 0.9122 0.8930 0.4493
H32 H 0.9756 0.9169 0.5215
loop_
_geom_bond_atom_site_label_1
_geom_bond_atom_site_label_2
_geom_bond_site_symmetry_1
_geom_bond_site_symmetry_2
Cl1 Cu1 1_555 1_555
Cl2 Cu1 1_555 1_555
Cu1 N1 1_555 1_555
N1 C1 1_555 1_555
N2 H1 1_555 1_555
N3 Cu1 1_555 1_555
N4 H2 1_555 1_555
O1 C8 1_555 1_555
O2 C18 1_555 1_555
C1 H3 1_555 1_555
C2 C1 1_555 1_555
H4 C2 1_555 1_555
C3 C2 1_555 1_555
H5 C3 1_555 1_555
C4 C3 1_555 1_555
H6 C4 1_555 1_555
C5 N1 1_555 1_555
C6 C5 1_555 1_555
H7 C6 1_555 1_555
H8 C6 1_555 1_555
C7 N2 1_555 1_555
H9 C7 1_555 1_555
H10 C7 1_555 1_555
C8 N2 1_555 1_555
C9 C8 1_555 1_555
C10 C9 1_555 1_555
H11 C10 1_555 1_555
C11 N3 1_555 1_555
H12 C11 1_555 1_555
C12 C11 1_555 1_555
H13 C12 1_555 1_555
C13 C12 1_555 1_555
H14 C13 1_555 1_555
C14 C13 1_555 1_555
H15 C14 1_555 1_555
C15 N3 1_555 1_555
C16 C15 1_555 1_555
H16 C16 1_555 1_555
H17 C16 1_555 1_555
C17 N4 1_555 1_555
H18 C17 1_555 1_555
H19 C17 1_555 1_555
C18 N4 1_555 1_555
C19 C18 1_555 1_555
C20 C19 1_555 1_555
H20 C20 1_555 1_555
O3 H21 1_555 1_555
C21 O3 1_555 1_555
H22 C21 1_555 1_555
H23 C21 1_555 1_555
O4 H24 1_555 1_555
C22 C21 1_555 1_555
H25 C22 1_555 1_555
H26 C22 1_555 1_555
H27 C22 1_555 1_555
C23 O4 1_555 1_555
H28 C23 1_555 1_555
H29 C23 1_555 1_555
C24 C23 1_555 1_555
H30 C24 1_555 1_555
H31 C24 1_555 1_555
H32 C24 1_555 1_555
Cl1B Cu1B 1_555 1_555
Cl1A Cu1A 1_555 1_555
Cl2B Cu1B 1_555 1_555
Cl2A Cu1A 1_555 1_555
Cu1B N1B 1_555 1_555
Cu1A N1A 1_555 1_555
Cu1B_2 N3B 1_555 1_555
Cu1A_2 N3A 1_555 1_555
N1B C1B 1_555 1_555
N1A C1A 1_555 1_555
N2B H1B 1_555 1_555
N2A H1A 1_555 1_555
N3B C11B 1_555 1_555
N3A C11A 1_555 1_555
N3B_2 Cu1B 1_555 1_555
N3A_2 Cu1A 1_555 1_555
N4B H2B 1_555 1_555
N4A H2A 1_555 1_555
O1B C8B 1_555 1_555
O1A C8A 1_555 1_555
O2B C18B 1_555 1_555
O2A C18A 1_555 1_555
C1B H3B 1_555 1_555
C1A H3A 1_555 1_555
C2B C1B 1_555 1_555
C2A C1A 1_555 1_555
H4B C2B 1_555 1_555
H4A C2A 1_555 1_555
C3B C2B 1_555 1_555
C3A C2A 1_555 1_555
H5B C3B 1_555 1_555
H5A C3A 1_555 1_555
C4B C3B 1_555 1_555
C4A C3A 1_555 1_555
H6B C4B 1_555 1_555
H6A C4A 1_555 1_555
C5B N1B 1_555 1_555
C5A N1A 1_555 1_555
C6B C5B 1_555 1_555
C6A C5A 1_555 1_555
H7B C6B 1_555 1_555
H7A C6A 1_555 1_555
H8B C6B 1_555 1_555
H8A C6A 1_555 1_555
C7B N2B 1_555 1_555
C7A N2A 1_555 1_555
H9B C7B 1_555 1_555
H9A C7A 1_555 1_555
H10B C7B 1_555 1_555
H10A C7A 1_555 1_555
C8B N2B 1_555 1_555
C8A N2A 1_555 1_555
C9B C10 1_555 1_555
C9A C8A 1_555 1_555
C10B C9B 1_555 1_555
C10A C9 1_555 1_555
H11A C10A 1_555 1_555
H11B C10B 1_555 1_555
C11B H12B 1_555 1_555
C11A H12A 1_555 1_555
C12B C11B 1_555 1_555
C12A C11A 1_555 1_555
H13B C12B 1_555 1_555
H13A C12A 1_555 1_555
C13B C12B 1_555 1_555
C13A C12A 1_555 1_555
H14B C13B 1_555 1_555
H14A C13A 1_555 1_555
C14B C13B 1_555 1_555
C14A C13A 1_555 1_555
H15B C14B 1_555 1_555
H15A C14A 1_555 1_555
C15B N3B 1_555 1_555
C15A N3A 1_555 1_555
C16B C15B 1_555 1_555
C16A C15A 1_555 1_555
H16B C16B 1_555 1_555
H16A C16A 1_555 1_555
H17B C16B 1_555 1_555
H17A C16A 1_555 1_555
C17B N4B 1_555 1_555
C17A N4A 1_555 1_555
H18B C17B 1_555 1_555
H18A C17A 1_555 1_555
H19B C17B 1_555 1_555
H19A C17A 1_555 1_555
C18B N4B 1_555 1_555
C18A N4A 1_555 1_555
C19B C20 1_555 1_555
C19A C18A 1_555 1_555
C20B C19B 1_555 1_555
C20A C19 1_555 1_555
H20A C20A 1_555 1_555
H20B C20B 1_555 1_555
C4 C5 1_555 1_555
C6 C7 1_555 1_555
C14 C15 1_555 1_555
C16 C17 1_555 1_555
C4B C5B 1_555 1_555
C4A C5A 1_555 1_555
C6B C7B 1_555 1_555
C6A C7A 1_555 1_555
C8B C9B 1_555 1_555
C9A C10B 1_555 1_555
C9A C10A 1_555 1_555
C14B C15B 1_555 1_555
C14A C15A 1_555 1_555
C16B C17B 1_555 1_555
C16A C17A 1_555 1_555
C18B C19B 1_555 1_555
C19A C20B 1_555 1_555
C19A C20A 1_555 1_555

#END
