
#######################################################################
#
#                 Cambridge Crystallographic Data Centre
#                                CCDC 
#
#######################################################################
#
# If this CIF has been generated from an entry in the Cambridge 
# Structural Database, then it will include bibliographic, chemical, 
# crystal, experimental, refinement or atomic coordinate data resulting 
# from the CCDC's data processing and validation procedures.
#
#######################################################################

data_WEMBEX
_symmetry_cell_setting           orthorhombic
_symmetry_space_group_name_H-M   'P 21 21 2'
_symmetry_Int_Tables_number      18
_space_group_name_Hall           'P 2 2ab'
loop_
_symmetry_equiv_pos_site_id
_symmetry_equiv_pos_as_xyz
1 x,y,z
2 -x,-y,z
3 1/2+x,1/2-y,-z
4 1/2-x,1/2+y,-z
_cell_length_a                   13.000(6)
_cell_length_b                   16.363(7)
_cell_length_c                   3.7037(16)
_cell_angle_alpha                90
_cell_angle_beta                 90
_cell_angle_gamma                90
_cell_volume                     787.847
loop_
_atom_site_label
_atom_site_type_symbol
_atom_site_fract_x
_atom_site_fract_y
_atom_site_fract_z
Cd1 Cd 0.0000 0.0000 -0.0225(2)
Cl1 Cl -0.09980(12) 0.07946(8) -0.5096(6)
N1 N 0.1281(4) 0.1073(3) 0.004(2)
N2 N 0.2767(4) 0.0294(3) -0.029(3)
H1 H 0.2411 -0.0094 -0.1228
H2 H 0.3417 0.0231 0.0054
C1 C 0.2314(5) 0.0994(4) 0.063(2)
C2 C 0.1396(6) 0.2446(4) 0.219(2)
C3 C 0.0856(5) 0.1804(4) 0.0792(19)
H3 H 0.0159 0.1876 0.0335
N3 N 0.0876(5) 0.3190(3) 0.303(2)
C4 C 0.2446(6) 0.2350(4) 0.303(2)
H4 H 0.2816 0.2769 0.4114
C5 C 0.2901(6) 0.1627(4) 0.219(2)
H5 H 0.3598 0.1550 0.2655
O1 O 0.1347(4) 0.3736(3) 0.463(2)
O2 O -0.0047(5) 0.3255(3) 0.2274(17)
Cd1_2 Cd 0.0000 0.0000 -1.0225(2)
Cl1A Cl 0.09980(12) -0.07946(8) -0.5096(6)
Cl1_2 Cl -0.09980(12) 0.07946(8) 0.4904(6)
Cl1A_2 Cl 0.09980(12) -0.07946(8) 0.4904(6)
N1A N -0.1281(4) -0.1073(3) 0.004(2)
N2A N -0.2767(4) -0.0294(3) -0.029(3)
H1A H -0.2411 0.0094 -0.1228
H2A H -0.3417 -0.0231 0.0054
C1A C -0.2314(5) -0.0994(4) 0.063(2)
C2A C -0.1396(6) -0.2446(4) 0.219(2)
C3A C -0.0856(5) -0.1804(4) 0.0792(19)
H3A H -0.0159 -0.1876 0.0335
N3A N -0.0876(5) -0.3190(3) 0.303(2)
C4A C -0.2446(6) -0.2350(4) 0.303(2)
H4A H -0.2816 -0.2769 0.4114
C5A C -0.2901(6) -0.1627(4) 0.219(2)
H5A H -0.3598 -0.1550 0.2655
O1A O -0.1347(4) -0.3736(3) 0.463(2)
O2A O 0.0047(5) -0.3255(3) 0.2274(17)
O3 O 0.5000 0.0000 0.223(2)
H6 H 0.5051 0.0336 0.4215
H6A H 0.4949 -0.0336 0.4215
loop_
_geom_bond_atom_site_label_1
_geom_bond_atom_site_label_2
_geom_bond_site_symmetry_1
_geom_bond_site_symmetry_2
Cd1 Cl1 1_555 1_555
Cl1 Cd1_2 1_555 1_555
N1 Cd1 1_555 1_555
N2 H1 1_555 1_555
H2 N2 1_555 1_555
C1 N1 1_555 1_555
C2 C3 1_555 1_555
C3 N1 1_555 1_555
H3 C3 1_555 1_555
N3 C2 1_555 1_555
C4 C2 1_555 1_555
H4 C4 1_555 1_555
C5 C1 1_555 1_555
H5 C5 1_555 1_555
O1 N3 1_555 1_555
O2 N3 1_555 1_555
O3 H6 1_555 1_555
Cd1_2 Cl1A 1_555 1_555
Cl1A Cd1 1_555 1_555
Cl1_2 Cd1 1_555 1_555
Cl1A_2 Cd1 1_555 1_555
N1A Cd1 1_555 1_555
N2A H1A 1_555 1_555
H2A N2A 1_555 1_555
C1A N1A 1_555 1_555
C2A C3A 1_555 1_555
C3A N1A 1_555 1_555
H3A C3A 1_555 1_555
N3A C2A 1_555 1_555
C4A C2A 1_555 1_555
H4A C4A 1_555 1_555
C5A C1A 1_555 1_555
H5A C5A 1_555 1_555
O1A N3A 1_555 1_555
O2A N3A 1_555 1_555
H6A O3 1_555 1_555
N2 C1 1_555 1_555
C4 C5 1_555 1_555
N2A C1A 1_555 1_555
C4A C5A 1_555 1_555

#END
