
#######################################################################
#
#                 Cambridge Crystallographic Data Centre
#                                CCDC 
#
#######################################################################
#
# If this CIF has been generated from an entry in the Cambridge 
# Structural Database, then it will include bibliographic, chemical, 
# crystal, experimental, refinement or atomic coordinate data resulting 
# from the CCDC's data processing and validation procedures.
#
#######################################################################

data_WEMCUN
_symmetry_cell_setting           orthorhombic
_symmetry_space_group_name_H-M   'P b c n'
_symmetry_Int_Tables_number      60
_space_group_name_Hall           '-P 2n 2ab'
loop_
_symmetry_equiv_pos_site_id
_symmetry_equiv_pos_as_xyz
1 x,y,z
2 1/2-x,1/2-y,1/2+z
3 -x,y,1/2-z
4 1/2+x,1/2-y,-z
5 -x,-y,-z
6 1/2+x,1/2+y,1/2-z
7 x,-y,1/2+z
8 1/2-x,1/2+y,z
_cell_length_a                   9.040(2)
_cell_length_b                   14.870(3)
_cell_length_c                   10.270(2)
_cell_angle_alpha                90
_cell_angle_beta                 90
_cell_angle_gamma                90
_cell_volume                     1380.54
loop_
_atom_site_label
_atom_site_type_symbol
_atom_site_fract_x
_atom_site_fract_y
_atom_site_fract_z
Cu1 Cu 0.5000 0.08816(4) 0.7500
I1 I 0.5000 0.25908(2) 0.7500
N1 N 0.3697(3) 0.02963(18) 0.8796(3)
N2 N 0.0000 -0.2413(3) 1.2500
C1 C 0.3541(4) -0.0598(2) 0.8845(3)
H1 H 0.4059 -0.0942 0.8241
C2 C 0.2661(4) -0.1043(2) 0.9732(3)
H2 H 0.2602 -0.1667 0.9715
C3 C 0.1857(3) -0.0556(2) 1.0659(3)
C4 C 0.2023(4) 0.0370(2) 1.0607(3)
H3 H 0.1524 0.0730 1.1202
C5 C 0.2914(4) 0.0761(2) 0.9687(3)
H4 H 0.2982 0.1385 0.9678
C6 C 0.0000 -0.0560(3) 1.2500
H5 H 0.0000 0.0066 1.2500
C7 C 0.0898(3) -0.1016(2) 1.1616(3)
C8 C 0.0844(4) -0.1951(2) 1.1683(4)
H6 H 0.1443 -0.2274 1.1114
Cu1_2 Cu -0.5000 0.08816(4) 1.7500
N1B N -0.3697(3) 0.02963(18) 1.6204(3)
N1B_2 N 0.6303(3) 0.02963(18) 0.6204(3)
C1B C -0.3541(4) -0.0598(2) 1.6155(3)
H1B H -0.4059 -0.0942 1.6759
C2B C -0.2661(4) -0.1043(2) 1.5268(3)
H2B H -0.2602 -0.1667 1.5285
C3B C -0.1857(3) -0.0556(2) 1.4341(3)
C4B C -0.2023(4) 0.0370(2) 1.4393(3)
H3B H -0.1524 0.0730 1.3798
C5B C -0.2914(4) 0.0761(2) 1.5313(3)
H4B H -0.2982 0.1385 1.5322
C7B C -0.0898(3) -0.1016(2) 1.3384(3)
C8B C -0.0844(4) -0.1951(2) 1.3317(4)
H6B H -0.1443 -0.2274 1.3886
loop_
_geom_bond_atom_site_label_1
_geom_bond_atom_site_label_2
_geom_bond_site_symmetry_1
_geom_bond_site_symmetry_2
Cu1 I1 1_555 1_555
N1 Cu1 1_555 1_555
N2 C8 1_555 1_555
C1 N1 1_555 1_555
H1 C1 1_555 1_555
C2 C1 1_555 1_555
H2 C2 1_555 1_555
C3 C2 1_555 1_555
C4 C3 1_555 1_555
H3 C4 1_555 1_555
C5 N1 1_555 1_555
H4 C5 1_555 1_555
C6 H5 1_555 1_555
C7 C3 1_555 1_555
C8 C7 1_555 1_555
H6 C8 1_555 1_555
Cu1_2 N1B 1_555 1_555
N1B C1B 1_555 1_555
N1B_2 Cu1 1_555 1_555
C1B H1B 1_555 1_555
C2B C1B 1_555 1_555
H2B C2B 1_555 1_555
C3B C2B 1_555 1_555
C4B C3B 1_555 1_555
H3B C4B 1_555 1_555
C5B N1B 1_555 1_555
H4B C5B 1_555 1_555
C7B C6 1_555 1_555
C8B N2 1_555 1_555
H6B C8B 1_555 1_555
C4 C5 1_555 1_555
C6 C7 1_555 1_555
C3B C7B 1_555 1_555
C4B C5B 1_555 1_555
C7B C8B 1_555 1_555

#END
