
#######################################################################
#
#                 Cambridge Crystallographic Data Centre
#                                CCDC 
#
#######################################################################
#
# If this CIF has been generated from an entry in the Cambridge 
# Structural Database, then it will include bibliographic, chemical, 
# crystal, experimental, refinement or atomic coordinate data resulting 
# from the CCDC's data processing and validation procedures.
#
#######################################################################

data_WEMCEX
_symmetry_cell_setting           triclinic
_symmetry_space_group_name_H-M   'P -1'
_symmetry_Int_Tables_number      2
_space_group_name_Hall           '-P 1'
loop_
_symmetry_equiv_pos_site_id
_symmetry_equiv_pos_as_xyz
1 x,y,z
2 -x,-y,-z
_cell_length_a                   10.988(2)
_cell_length_b                   12.236(3)
_cell_length_c                   12.292(3)
_cell_angle_alpha                65.459(3)
_cell_angle_beta                 77.598(4)
_cell_angle_gamma                85.232(4)
_cell_volume                     1468.24
loop_
_atom_site_label
_atom_site_type_symbol
_atom_site_fract_x
_atom_site_fract_y
_atom_site_fract_z
Cu1 Cu -0.50654(5) 0.63598(5) -0.36690(5)
Cu2 Cu -0.27263(6) 0.74576(5) -0.31496(5)
I1 I -0.51942(3) 0.76303(3) -0.23757(3)
I2 I -0.25704(3) 0.61779(3) -0.44513(3)
N1 N -0.5661(3) 0.4649(3) -0.2555(3)
C1 C -0.5458(4) 0.4079(4) -0.1412(4)
H1 H -0.5093 0.4519 -0.1082
C2 C -0.5756(4) 0.2883(4) -0.0693(4)
H2 H -0.5591 0.2512 0.0109
C3 C -0.6297(4) 0.2232(4) -0.1158(4)
C4 C -0.6520(4) 0.2820(4) -0.2330(4)
H3 H -0.6897 0.2408 -0.2680
C5 C -0.6189(4) 0.4006(4) -0.2976(4)
H4 H -0.6347 0.4396 -0.3780
C6 C -0.6616(4) 0.0944(4) -0.0453(4)
N2 N -0.6355(3) 0.0408(3) 0.0669(3)
C7 C -0.6632(4) -0.0763(4) 0.1249(4)
N3 N -0.7125(3) -0.1401(3) 0.0796(3)
C8 C -0.7352(4) -0.0768(4) -0.0325(4)
H5 H -0.7718 -0.1188 -0.0674
N4 N -0.7111(3) 0.0398(3) -0.0997(3)
C9 C -0.6344(4) -0.1405(4) 0.2483(4)
C10 C -0.5741(4) -0.0850(4) 0.2992(4)
H6 H -0.5519 -0.0024 0.2561
C11 C -0.5460(4) -0.1497(4) 0.4129(4)
H7 H -0.5043 -0.1099 0.4465
N5 N -0.5750(3) -0.2662(3) 0.4780(3)
C12 C -0.6358(4) -0.3191(4) 0.4295(4)
H8 H -0.6586 -0.4013 0.4756
C13 C -0.6675(4) -0.2609(4) 0.3154(4)
H9 H -0.7105 -0.3022 0.2842
N6 N -0.2048(3) 0.6480(3) -0.1613(3)
C14 C -0.2312(4) 0.5308(4) -0.0974(4)
H10 H -0.2713 0.4912 -0.1323
C15 C -0.2033(4) 0.4640(4) 0.0164(4)
H11 H -0.2241 0.3809 0.0580
C16 C -0.1451(4) 0.5196(4) 0.0687(4)
C17 C -0.1149(4) 0.6399(4) 0.0027(4)
H12 H -0.0733 0.6810 0.0351
C18 C -0.1454(4) 0.6995(4) -0.1096(4)
H13 H -0.1233 0.7821 -0.1536
C19 C -0.1161(4) 0.4556(4) 0.1915(4)
N7 N -0.1387(3) 0.3373(3) 0.2474(3)
C20 C -0.1156(4) 0.2851(4) 0.3603(4)
N8 N -0.0715(3) 0.3419(3) 0.4167(3)
C21 C -0.0488(4) 0.4579(4) 0.3506(4)
H14 H -0.0134 0.5002 0.3860
N9 N -0.0712(3) 0.5207(3) 0.2386(3)
C22 C -0.1423(4) 0.1551(4) 0.4301(4)
C23 C -0.1947(4) 0.0874(4) 0.3852(4)
H15 H -0.2107 0.1229 0.3048
C24 C -0.2231(4) -0.0311(4) 0.4578(4)
H16 H -0.2574 -0.0767 0.4250
N10 N -0.2052(3) -0.0860(3) 0.5725(3)
C25 C -0.1512(4) -0.0206(4) 0.6137(4)
H17 H -0.1344 -0.0586 0.6937
C26 C -0.1188(4) 0.0981(4) 0.5469(4)
H18 H -0.0807 0.1405 0.5804
Cu1_2 Cu -0.50654(5) -0.36402(5) 0.63310(5)
Cu2_2 Cu -0.27263(6) -0.25424(5) 0.68504(5)
N5_2 N -0.5750(3) 0.7338(3) -0.5220(3)
N10_2 N -0.2052(3) 0.9140(3) -0.4275(3)
N11 N -0.0237(4) 0.9624(5) -0.1337(4)
C27 C -0.0023(5) 1.0602(6) -0.1718(5)
C28 C 0.0233(5) 1.1894(5) -0.2200(5)
H19 H -0.0556 1.2330 -0.2188
H20 H 0.0707 1.2170 -0.3040
H21 H 0.0719 1.2044 -0.1693
loop_
_geom_bond_atom_site_label_1
_geom_bond_atom_site_label_2
_geom_bond_site_symmetry_1
_geom_bond_site_symmetry_2
Cu1 I1 1_555 1_555
Cu2 I1 1_555 1_555
I2 Cu1 1_555 1_555
N1 Cu1 1_555 1_555
C1 N1 1_555 1_555
H1 C1 1_555 1_555
C2 C1 1_555 1_555
H2 C2 1_555 1_555
C3 C2 1_555 1_555
C4 C3 1_555 1_555
H3 C4 1_555 1_555
C5 N1 1_555 1_555
H4 C5 1_555 1_555
C6 C3 1_555 1_555
N2 C6 1_555 1_555
C7 N2 1_555 1_555
N3 C7 1_555 1_555
C8 N3 1_555 1_555
H5 C8 1_555 1_555
N4 C6 1_555 1_555
C9 C7 1_555 1_555
C10 C9 1_555 1_555
H6 C10 1_555 1_555
C11 C10 1_555 1_555
H7 C11 1_555 1_555
N5 C11 1_555 1_555
C12 N5 1_555 1_555
H8 C12 1_555 1_555
C13 C9 1_555 1_555
H9 C13 1_555 1_555
N6 Cu2 1_555 1_555
C14 N6 1_555 1_555
H10 C14 1_555 1_555
C15 C14 1_555 1_555
H11 C15 1_555 1_555
C16 C15 1_555 1_555
C17 C16 1_555 1_555
H12 C17 1_555 1_555
C18 N6 1_555 1_555
H13 C18 1_555 1_555
C19 C16 1_555 1_555
N7 C19 1_555 1_555
C20 N7 1_555 1_555
N8 C20 1_555 1_555
C21 N8 1_555 1_555
H14 C21 1_555 1_555
N9 C19 1_555 1_555
C22 C20 1_555 1_555
C23 C22 1_555 1_555
H15 C23 1_555 1_555
C24 C23 1_555 1_555
H16 C24 1_555 1_555
N10 C24 1_555 1_555
C25 N10 1_555 1_555
H17 C25 1_555 1_555
C26 C22 1_555 1_555
H18 C26 1_555 1_555
N11 C27 1_555 1_555
C27 C28 1_555 1_555
C28 H19 1_555 1_555
H20 C28 1_555 1_555
H21 C28 1_555 1_555
Cu1_2 N5 1_555 1_555
Cu2_2 N10 1_555 1_555
N5_2 Cu1 1_555 1_555
N10_2 Cu2 1_555 1_555
Cu2 I2 1_555 1_555
C4 C5 1_555 1_555
C8 N4 1_555 1_555
C12 C13 1_555 1_555
C17 C18 1_555 1_555
C21 N9 1_555 1_555
C25 C26 1_555 1_555

#END
