
#######################################################################
#
#                 Cambridge Crystallographic Data Centre
#                                CCDC 
#
#######################################################################
#
# If this CIF has been generated from an entry in the Cambridge 
# Structural Database, then it will include bibliographic, chemical, 
# crystal, experimental, refinement or atomic coordinate data resulting 
# from the CCDC's data processing and validation procedures.
#
#######################################################################

data_WEMCUO
_symmetry_cell_setting           tetragonal
_symmetry_space_group_name_H-M   'I 41/a'
_symmetry_Int_Tables_number      88
_space_group_name_Hall           '-I 4ad'
loop_
_symmetry_equiv_pos_site_id
_symmetry_equiv_pos_as_xyz
1 x,y,z
2 1/2-x,-y,1/2+z
3 3/4-y,1/4+x,1/4+z
4 3/4+y,3/4-x,3/4+z
5 1/2+x,1/2+y,1/2+z
6 -x,1/2-y,z
7 1/4-y,3/4+x,3/4+z
8 1/4+y,1/4-x,1/4+z
9 -x,-y,-z
10 1/2+x,y,1/2-z
11 1/4+y,3/4-x,3/4-z
12 1/4-y,1/4+x,1/4-z
13 1/2-x,1/2-y,1/2-z
14 x,1/2+y,-z
15 3/4+y,1/4-x,1/4-z
16 3/4-y,3/4+x,3/4-z
_cell_length_a                   20.227(4)
_cell_length_b                   20.227(4)
_cell_length_c                   16.047(7)
_cell_angle_alpha                90
_cell_angle_beta                 90
_cell_angle_gamma                90
_cell_volume                     6565.33
loop_
_atom_site_label
_atom_site_type_symbol
_atom_site_fract_x
_atom_site_fract_y
_atom_site_fract_z
Tb1 Tb -0.42314(3) 1.04377(3) -0.16012(3)
Tb2 Tb -0.29443(3) 1.18115(3) 0.16934(3)
O1 O -0.4196(4) 1.0980(4) -0.0345(4)
O2 O -0.3680(4) 1.1617(4) 0.0581(4)
O3 O -0.3828(4) 0.8753(4) 0.0166(5)
O4 O -0.4140(4) 0.9585(5) -0.0637(5)
O5 O -0.4651(4) 1.0334(4) -0.3147(4)
O6 O -0.4657(4) 0.9791(4) -0.4329(4)
O7 O -0.3752(4) 0.8802(4) -0.4959(4)
O8 O -0.2874(4) 0.8312(4) -0.4417(4)
O9 O -0.5098(5) 1.1223(4) -0.1693(5)
H1 H -0.5142 1.1409 -0.1242
H2 H -0.5501 1.1000 -0.1835
O10 O -0.5172(5) 0.9736(4) -0.1635(5)
H3 H -0.5255 0.9607 -0.1162
H4 H -0.5079 0.9363 -0.1986
O11 O -0.3840(4) 1.2568(5) 0.1982(5)
H5 H -0.4148 1.2365 0.2194
H6 H -0.3689 1.2902 0.2361
N1 N -0.3058(5) 0.9521(5) 0.1106(6)
N2 N -0.3012(5) 1.0621(5) 0.1250(6)
N3 N -0.3097(5) 0.8768(5) -0.2892(5)
N4 N -0.3758(5) 0.9557(4) -0.2414(5)
C1 C -0.2796(6) 1.0036(6) 0.1510(7)
H7 H -0.2489 0.9989 0.1937
C2 C -0.3451(6) 1.0485(6) 0.0641(6)
C3 C -0.3480(5) 0.9803(6) 0.0554(6)
C4 C -0.3801(6) 1.1048(6) 0.0262(6)
C5 C -0.3850(6) 0.9361(6) -0.0009(6)
C6 C -0.3277(6) 0.9133(6) -0.2244(7)
H8 H -0.3084 0.9095 -0.1720
C7 C -0.3898(6) 0.9464(6) -0.3240(6)
C8 C -0.3492(5) 0.8967(6) -0.3531(6)
C9 C -0.4426(5) 0.9879(5) -0.3592(6)
C10 C -0.3382(6) 0.8682(5) -0.4376(6)
Tb1C Tb -0.20623(3) 1.17314(3) -0.41012(3)
Tb1B Tb -0.29377(3) 0.82686(3) 0.08988(3)
Tb1A Tb -0.07686(3) 0.95623(3) -0.66012(3)
Tb1O Tb -0.29377(3) 1.32686(3) -0.08988(3)
Tb1C_2 Tb -0.20623(3) 1.17314(3) 0.58988(3)
Tb1A_2 Tb -0.07686(3) 0.95623(3) 0.33988(3)
Tb2C Tb -0.06885(3) 1.04443(3) -0.08066(3)
Tb2J Tb -0.56885(3) 1.04443(3) -0.41934(3)
Tb2B Tb -0.43115(3) 0.95557(3) -0.58066(3)
Tb2A Tb -0.20557(3) 0.81885(3) -0.33066(3)
Tb2L Tb -0.20557(3) 1.31885(3) 0.33066(3)
Tb2N Tb -0.06885(3) 1.54443(3) 0.08066(3)
Tb2B_2 Tb -0.43115(3) 0.95557(3) 0.41934(3)
Tb2K Tb 0.06885(3) 0.95557(3) 0.08066(3)
O1C O -0.1520(4) 1.1696(4) -0.2845(4)
O1A O -0.0804(4) 0.9020(4) -0.5345(4)
O1B O -0.3480(4) 0.8304(4) 0.2155(4)
O2C O -0.0883(4) 1.1180(4) -0.1919(4)
O2A O -0.1320(4) 0.8383(4) -0.4419(4)
O2B O -0.4117(4) 0.8820(4) 0.3081(4)
O2J O -0.5883(4) 1.1180(4) -0.3081(4)
O2B_2 O -0.4117(4) 0.8820(4) -0.6919(4)
O3C O -0.3747(4) 1.1328(4) -0.2334(5)
O3A O -0.1172(4) 1.1247(4) -0.4834(5)
O3B O -0.1253(4) 0.8672(4) 0.2666(5)
O3B_2 O -0.1253(4) 0.8672(4) -0.7334(5)
O4C O -0.2915(5) 1.1640(4) -0.3137(5)
O4A O -0.0860(4) 1.0415(5) -0.5637(5)
O4B O -0.2085(5) 0.8360(4) 0.1863(5)
O5O O -0.2834(4) 1.2849(4) 0.0647(4)
O5C O -0.2166(4) 1.2151(4) 0.4353(4)
O5A O -0.0349(4) 0.9666(4) 0.1853(4)
O5C_2 O -0.2166(4) 1.2151(4) -0.5647(4)
O5B O -0.2834(4) 0.7849(4) -0.0647(4)
O5I O 0.0349(4) 1.0334(4) -0.1853(4)
O5H O -0.5349(4) 0.9666(4) -0.6853(4)
O5A_2 O -0.0349(4) 0.9666(4) -0.8147(4)
O6O O -0.2291(4) 1.2843(4) 0.1829(4)
O6C O -0.2709(4) 1.2157(4) 0.3171(4)
O6A O -0.0343(4) 1.0209(4) 0.0671(4)
O6I O 0.0343(4) 0.9791(4) -0.0671(4)
O6H O -0.5343(4) 1.0209(4) -0.5671(4)
O7O O -0.1302(4) 1.3748(4) 0.2459(4)
O7C O -0.3698(4) 1.1252(4) 0.2541(4)
O7A O -0.1248(4) 1.1198(4) 0.0041(4)
O7H O -0.6248(4) 1.1198(4) -0.5041(4)
O8O O -0.0812(4) 1.4626(4) 0.1917(4)
O8C O -0.4188(4) 1.0374(4) 0.3083(4)
O8A O -0.2126(4) 1.1688(4) 0.0583(4)
O8B O -0.0812(4) 0.9626(4) -0.1917(4)
O8K O -0.5812(4) 0.9626(4) -0.3083(4)
O8C_2 O -0.4188(4) 1.0374(4) -0.6917(4)
O9C O -0.1277(4) 1.2598(5) -0.4193(5)
O9B O -0.3723(4) 0.7402(5) 0.0807(5)
O9A O 0.0098(5) 0.8777(4) -0.6693(5)
H1C H -0.1091 1.2642 -0.3742
H1B H -0.3909 0.7358 0.1258
H1A H 0.0142 0.8591 -0.6242
H2C H -0.1500 1.3001 -0.4335
H2B H -0.3500 0.6999 0.0665
H2A H 0.0501 0.9000 -0.6835
O10C O -0.2764(4) 1.2672(5) -0.4135(5)
O10B O -0.2236(4) 0.7328(5) 0.0865(5)
O10A O 0.0172(5) 1.0264(4) -0.6635(5)
H3C H -0.2893 1.2755 -0.3662
H3B H -0.2107 0.7245 0.1338
H3A H 0.0255 1.0393 -0.6162
H4C H -0.3137 1.2579 -0.4486
H4B H -0.1863 0.7421 0.0514
H4A H 0.0079 1.0637 -0.6986
O11C O 0.0068(5) 1.1340(4) -0.0518(5)
O11J O -0.4932(5) 1.1340(4) -0.4482(5)
O11B O -0.5068(5) 0.8660(4) -0.5518(5)
H5C H -0.0135 1.1648 -0.0306
H5J H -0.5135 1.1648 -0.4694
H5B H -0.4865 0.8352 -0.5306
H6C H 0.0402 1.1189 -0.0139
H6J H -0.4598 1.1189 -0.4861
H6B H -0.5402 0.8811 -0.5139
N1C N -0.2979(5) 1.0558(5) -0.1394(6)
N1A N -0.1942(5) 1.0479(5) -0.3894(6)
N1B N -0.2021(5) 0.9442(5) 0.3606(6)
N1B_2 N -0.2021(5) 0.9442(5) -0.6394(6)
N2C N -0.1879(5) 1.0512(5) -0.1250(6)
N2A N -0.1988(5) 0.9379(5) -0.3750(6)
N2B N -0.3121(5) 0.9488(5) 0.3750(6)
N2J N -0.6879(5) 1.0512(5) -0.3750(6)
N2B_2 N -0.3121(5) 0.9488(5) -0.6250(6)
N3O N -0.1268(5) 1.4403(5) 0.0392(5)
N3C N -0.3732(5) 1.0597(5) 0.4608(5)
N3A N -0.1903(5) 1.1232(5) 0.2108(5)
N3B N -0.1268(5) 0.9403(5) -0.0392(5)
N3K N -0.6268(5) 0.9403(5) -0.4608(5)
N3C_2 N -0.3732(5) 1.0597(5) -0.5392(5)
N4O N -0.2057(4) 1.3742(5) -0.0086(5)
N4C N -0.2943(4) 1.1258(5) 0.5086(5)
N4A N -0.1242(5) 1.0443(4) 0.2586(5)
N4C_2 N -0.2943(4) 1.1258(5) -0.4914(5)
N4B N -0.2057(4) 0.8742(5) 0.0086(5)
N4A_2 N -0.1242(5) 1.0443(4) -0.7414(5)
C1C C -0.2464(6) 1.0296(6) -0.0990(7)
C1A C -0.2204(6) 0.9964(6) -0.3490(7)
C1B C -0.2536(6) 0.9704(6) 0.4010(7)
H7C H -0.2511 0.9989 -0.0563
H7A H -0.2511 1.0011 -0.3063
H7B H -0.2489 1.0011 0.4437
C2C C -0.2015(6) 1.0951(6) -0.1859(6)
C2A C -0.1549(6) 0.9515(6) -0.4359(6)
C2B C -0.2985(6) 0.9049(6) 0.3141(6)
C3C C -0.2697(6) 1.0980(5) -0.1946(6)
C3A C -0.1520(5) 1.0197(6) -0.4446(6)
C3B C -0.2303(6) 0.9020(5) 0.3054(6)
C4C C -0.1452(6) 1.1301(6) -0.2238(6)
C4A C -0.1199(6) 0.8952(6) -0.4738(6)
C4B C -0.3548(6) 0.8699(6) 0.2762(6)
C5C C -0.3139(6) 1.1350(6) -0.2509(6)
C5A C -0.1150(6) 1.0639(6) -0.5009(6)
C5B C -0.1861(6) 0.8650(6) 0.2491(6)
C6O C -0.1633(6) 1.4223(6) -0.0256(7)
C6C C -0.3367(6) 1.0777(6) 0.5256(7)
C6A C -0.1723(6) 1.0867(6) 0.2756(7)
H8O H -0.1595 1.4416 -0.0780
H8C H -0.3405 1.0584 0.5780
H8A H -0.1916 1.0905 0.3280
C7O C -0.1964(6) 1.3602(6) 0.0740(6)
C7C C -0.3036(6) 1.1398(6) 0.4260(6)
C7A C -0.1102(6) 1.0536(6) 0.1760(6)
C8O C -0.1467(6) 1.4008(5) 0.1031(6)
C8C C -0.3533(6) 1.0992(5) 0.3969(6)
C8A C -0.1508(5) 1.1033(6) 0.1469(6)
C9O C -0.2379(5) 1.3074(5) 0.1092(6)
C9C C -0.2621(5) 1.1926(5) 0.3908(6)
C9A C -0.0574(5) 1.0121(5) 0.1408(6)
C10O C -0.1182(5) 1.4118(6) 0.1876(6)
C10C C -0.3818(5) 1.0882(6) 0.3124(6)
C10A C -0.1618(6) 1.1318(5) 0.0624(6)
O12 O 0.0000 0.7500 -0.195(4)
O13 O 0.5000 0.7500 0.1250
O14 O 0.4259(7) 0.7740(7) 0.3517(8)
H12 H 0.4417 0.8115 0.3386
H13 H 0.3997 0.7783 0.3927
H9? H -0.0043 0.7191 -0.2306
H10? H 0.0351 0.7469 -0.1663
H11? H 0.5188 0.7288 0.1641
H14? H 0.4782 0.7551 0.0802
loop_
_geom_bond_atom_site_label_1
_geom_bond_atom_site_label_2
_geom_bond_site_symmetry_1
_geom_bond_site_symmetry_2
Tb1 O1 1_555 1_555
Tb2 O2 1_555 1_555
O1 C4 1_555 1_555
O2 C4 1_555 1_555
O3 C5 1_555 1_555
O4 Tb1 1_555 1_555
O5 Tb1 1_555 1_555
O6 C9 1_555 1_555
O7 C10 1_555 1_555
O8 C10 1_555 1_555
O9 Tb1 1_555 1_555
H1 O9 1_555 1_555
H2 O9 1_555 1_555
O10 Tb1 1_555 1_555
H3 O10 1_555 1_555
H4 O10 1_555 1_555
O11 Tb2 1_555 1_555
H5 O11 1_555 1_555
H6 O11 1_555 1_555
N1 C1 1_555 1_555
N2 Tb2 1_555 1_555
N3 C6 1_555 1_555
N4 Tb1 1_555 1_555
C1 N2 1_555 1_555
H7 C1 1_555 1_555
C2 N2 1_555 1_555
C3 N1 1_555 1_555
C4 C2 1_555 1_555
C5 O4 1_555 1_555
C6 N4 1_555 1_555
H8 C6 1_555 1_555
C7 N4 1_555 1_555
C8 N3 1_555 1_555
C9 O5 1_555 1_555
C10 C8 1_555 1_555
O14 H12 1_555 1_555
H13 O14 1_555 1_555
Tb1C O1C 1_555 1_555
Tb1B O3 1_555 1_555
Tb1A O1A 1_555 1_555
Tb1O O5O 1_555 1_555
Tb1C_2 O5C 1_555 1_555
Tb1A_2 O3B 1_555 1_555
Tb2C O2C 1_555 1_555
Tb2J O5 1_555 1_555
Tb2B O6 1_555 1_555
Tb2A O8 1_555 1_555
Tb2L O5C 1_555 1_555
Tb2N O8O 1_555 1_555
Tb2B_2 O2B 1_555 1_555
Tb2K O5A 1_555 1_555
O1C C4C 1_555 1_555
O1A C4A 1_555 1_555
O1B Tb1B 1_555 1_555
O2C C4C 1_555 1_555
O2A Tb2A 1_555 1_555
O2B C4B 1_555 1_555
O2J Tb2J 1_555 1_555
O2B_2 Tb2B 1_555 1_555
O3C Tb1 1_555 1_555
O3A Tb1C 1_555 1_555
O3B C5B 1_555 1_555
O3B_2 Tb1A 1_555 1_555
O4C Tb1C 1_555 1_555
O4A Tb1A 1_555 1_555
O4B Tb1B 1_555 1_555
O5O Tb2 1_555 1_555
O5C C9C 1_555 1_555
O5A Tb1A_2 1_555 1_555
O5C_2 Tb1C 1_555 1_555
O5B Tb1B 1_555 1_555
O5I Tb2C 1_555 1_555
O5H Tb2B 1_555 1_555
O5A_2 Tb1A 1_555 1_555
O6O Tb2 1_555 1_555
O6C Tb2 1_555 1_555
O6A Tb2C 1_555 1_555
O6I Tb2C 1_555 1_555
O6H Tb2J 1_555 1_555
O7O Tb2L 1_555 1_555
O7C Tb2 1_555 1_555
O7A Tb2C 1_555 1_555
O7H Tb2J 1_555 1_555
O8O C10O 1_555 1_555
O8C Tb2B_2 1_555 1_555
O8A Tb2 1_555 1_555
O8B Tb2C 1_555 1_555
O8K Tb2J 1_555 1_555
O8C_2 Tb2B 1_555 1_555
O9C Tb1C 1_555 1_555
O9B Tb1B 1_555 1_555
O9A Tb1A 1_555 1_555
H1C O9C 1_555 1_555
H1B O9B 1_555 1_555
H1A O9A 1_555 1_555
H2C O9C 1_555 1_555
H2B O9B 1_555 1_555
H2A O9A 1_555 1_555
O10C Tb1C 1_555 1_555
O10B Tb1B 1_555 1_555
O10A Tb1A 1_555 1_555
H3C O10C 1_555 1_555
H3B O10B 1_555 1_555
H3A O10A 1_555 1_555
H4C O10C 1_555 1_555
H4B O10B 1_555 1_555
H4A O10A 1_555 1_555
O11C Tb2C 1_555 1_555
O11J Tb2J 1_555 1_555
O11B Tb2B 1_555 1_555
H5C O11C 1_555 1_555
H5J O11J 1_555 1_555
H5B O11B 1_555 1_555
H6C O11C 1_555 1_555
H6J O11J 1_555 1_555
H6B O11B 1_555 1_555
N1C Tb1 1_555 1_555
N1A Tb1C 1_555 1_555
N1B Tb1A_2 1_555 1_555
N1B_2 Tb1A 1_555 1_555
N2C Tb2C 1_555 1_555
N2A Tb2A 1_555 1_555
N2B Tb2B_2 1_555 1_555
N2J Tb2J 1_555 1_555
N2B_2 Tb2B 1_555 1_555
N3O Tb2N 1_555 1_555
N3C Tb2B_2 1_555 1_555
N3A Tb2 1_555 1_555
N3B Tb2C 1_555 1_555
N3K Tb2J 1_555 1_555
N3C_2 Tb2B 1_555 1_555
N4O Tb1O 1_555 1_555
N4C Tb1C_2 1_555 1_555
N4A Tb1A_2 1_555 1_555
N4C_2 Tb1C 1_555 1_555
N4B Tb1B 1_555 1_555
N4A_2 Tb1A 1_555 1_555
C1C N1C 1_555 1_555
C1A N1A 1_555 1_555
C1B N1B 1_555 1_555
H7C C1C 1_555 1_555
H7A C1A 1_555 1_555
H7B C1B 1_555 1_555
C2C N2C 1_555 1_555
C2A N2A 1_555 1_555
C2B N2B 1_555 1_555
C3C N1C 1_555 1_555
C3A N1A 1_555 1_555
C3B N1B 1_555 1_555
C4C C2C 1_555 1_555
C4A O2A 1_555 1_555
C4B O1B 1_555 1_555
C5C O3C 1_555 1_555
C5A O3A 1_555 1_555
C5B O4B 1_555 1_555
C6O N3O 1_555 1_555
C6C N3C 1_555 1_555
C6A N3A 1_555 1_555
H8O C6O 1_555 1_555
H8C C6C 1_555 1_555
H8A C6A 1_555 1_555
C7O N4O 1_555 1_555
C7C N4C 1_555 1_555
C7A N4A 1_555 1_555
C8O N3O 1_555 1_555
C8C N3C 1_555 1_555
C8A N3A 1_555 1_555
C9O O5O 1_555 1_555
C9C O6C 1_555 1_555
C9A O5A 1_555 1_555
C10O O7O 1_555 1_555
C10C O7C 1_555 1_555
C10A O7A 1_555 1_555
O6 Tb2J 1_555 1_555
O7 Tb2B 1_555 1_555
N1 Tb1B 1_555 1_555
N3 Tb2A 1_555 1_555
C2 C3 1_555 1_555
C3 C5 1_555 1_555
C7 C8 1_555 1_555
C7 C9 1_555 1_555
Tb2B O6H 1_555 1_555
Tb2L O6O 1_555 1_555
Tb2L O6C 1_555 1_555
Tb2K O6A 1_555 1_555
Tb2K O6I 1_555 1_555
O4C C5C 1_555 1_555
O4A C5A 1_555 1_555
O6O C9O 1_555 1_555
O6A C9A 1_555 1_555
O8C C10C 1_555 1_555
O8A C10A 1_555 1_555
N2C C1C 1_555 1_555
N2A C1A 1_555 1_555
N2B C1B 1_555 1_555
N4O C6O 1_555 1_555
N4C C6C 1_555 1_555
N4A C6A 1_555 1_555
C2C C3C 1_555 1_555
C2A C3A 1_555 1_555
C2A C4A 1_555 1_555
C2B C3B 1_555 1_555
C2B C4B 1_555 1_555
C3C C5C 1_555 1_555
C3A C5A 1_555 1_555
C3B C5B 1_555 1_555
C7O C8O 1_555 1_555
C7O C9O 1_555 1_555
C7C C8C 1_555 1_555
C7C C9C 1_555 1_555
C7A C8A 1_555 1_555
C7A C9A 1_555 1_555
C8O C10O 1_555 1_555
C8C C10C 1_555 1_555
C8A C10A 1_555 1_555

#END
