
#######################################################################
#
#                 Cambridge Crystallographic Data Centre
#                                CCDC 
#
#######################################################################
#
# If this CIF has been generated from an entry in the Cambridge 
# Structural Database, then it will include bibliographic, chemical, 
# crystal, experimental, refinement or atomic coordinate data resulting 
# from the CCDC's data processing and validation procedures.
#
#######################################################################

data_WEMCOI
_symmetry_cell_setting           tetragonal
_symmetry_space_group_name_H-M   'I 41/a'
_symmetry_Int_Tables_number      88
_space_group_name_Hall           '-I 4ad'
loop_
_symmetry_equiv_pos_site_id
_symmetry_equiv_pos_as_xyz
1 x,y,z
2 1/2-x,-y,1/2+z
3 3/4-y,1/4+x,1/4+z
4 3/4+y,3/4-x,3/4+z
5 1/2+x,1/2+y,1/2+z
6 -x,1/2-y,z
7 1/4-y,3/4+x,3/4+z
8 1/4+y,1/4-x,1/4+z
9 -x,-y,-z
10 1/2+x,y,1/2-z
11 1/4+y,3/4-x,3/4-z
12 1/4-y,1/4+x,1/4-z
13 1/2-x,1/2-y,1/2-z
14 x,1/2+y,-z
15 3/4+y,1/4-x,1/4-z
16 3/4-y,3/4+x,3/4-z
_cell_length_a                   20.299(3)
_cell_length_b                   20.299(3)
_cell_length_c                   16.157(3)
_cell_angle_alpha                90
_cell_angle_beta                 90
_cell_angle_gamma                90
_cell_volume                     6657.48
loop_
_atom_site_label
_atom_site_type_symbol
_atom_site_fract_x
_atom_site_fract_y
_atom_site_fract_z
Gd1 Gd 1.423436(14) 1.044294(13) -0.160866(16)
Gd2 Gd 1.294902(13) 1.181391(13) 0.169198(16)
O1 O 1.4197(2) 1.0982(2) -0.0340(3)
O2 O 1.3690(2) 1.1613(2) 0.0565(3)
O3 O 1.4133(2) 0.9588(3) -0.0638(3)
O4 O 1.3838(2) 0.8756(2) 0.0163(3)
O5 O 1.4650(2) 1.0338(2) -0.3144(2)
O6 O 1.4651(2) 0.9795(2) -0.4333(2)
O7 O 1.3755(2) 0.8805(2) -0.4952(3)
O8 O 1.2876(2) 0.8303(2) -0.4420(3)
O9 O 1.5101(3) 1.1239(3) -0.1690(3)
H1 H 1.5395 1.1145 -0.1333
H2 H 1.5270 1.1230 -0.2171
O10 O 1.5174(3) 0.9736(3) -0.1637(3)
H3 H 1.5127 0.9435 -0.1277
H4 H 1.5208 0.9563 -0.2115
O11 O 1.3847(3) 1.2571(3) 0.2005(3)
H5 H 1.3857 1.2872 0.1639
H6 H 1.4210 1.2363 0.2004
N1 N 1.3067(3) 0.9517(2) 0.1101(3)
N2 N 1.3016(2) 1.0625(2) 0.1252(3)
N3 N 1.3091(3) 0.8769(3) -0.2899(3)
N4 N 1.3750(3) 0.9567(3) -0.2425(3)
C1 C 1.2802(3) 1.0035(3) 0.1502(4)
H7 H 1.2493 0.9986 0.1922
C2 C 1.3459(3) 1.0486(3) 0.0629(3)
C3 C 1.3490(3) 0.9805(3) 0.0538(3)
C4 C 1.3808(3) 1.1045(3) 0.0252(3)
C5 C 1.3852(3) 0.9362(3) -0.0021(4)
C6 C 1.3273(3) 0.9132(3) -0.2255(4)
H8 H 1.3085 0.9088 -0.1733
C7 C 1.3900(3) 0.9474(3) -0.3246(3)
C8 C 1.3487(3) 0.8973(3) -0.3537(3)
C9 C 1.4419(3) 0.9885(3) -0.3602(4)
C10 C 1.3374(3) 0.8681(3) -0.4370(4)
Gd1F Gd 1.205706(13) 1.173436(14) -0.410866(16)
Gd1G Gd 1.294294(13) 0.826564(14) 0.089134(16)
Gd1A Gd 1.076564(14) 0.955706(13) -0.660866(16)
Gd1J Gd 1.294294(13) 1.326564(14) -0.089134(16)
Gd1F_2 Gd 1.205706(13) 1.173436(14) 0.589134(16)
Gd1A_2 Gd 1.076564(14) 0.955706(13) 0.339134(16)
Gd2F Gd 1.068609(13) 1.044902(13) -0.080802(16)
Gd2O Gd 1.568609(13) 1.044902(13) -0.419198(16)
Gd2G Gd 1.431391(13) 0.955098(13) -0.580802(16)
Gd2A Gd 1.205098(13) 0.818609(13) -0.330802(16)
Gd2L Gd 1.205098(13) 1.318609(13) 0.330802(16)
Gd2K Gd 1.068609(13) 1.544902(13) 0.080802(16)
Gd2G_2 Gd 1.431391(13) 0.955098(13) 0.419198(16)
Gd2N Gd 0.931391(13) 0.955098(13) 0.080802(16)
O1F O 1.1518(2) 1.1697(2) -0.2840(3)
O1A O 1.0803(2) 0.9018(2) -0.5340(3)
O1G O 1.3482(2) 0.8303(2) 0.2160(3)
O2F O 1.0887(2) 1.1190(2) -0.1935(3)
O2A O 1.1310(2) 0.8387(2) -0.4435(3)
O2G O 1.4113(2) 0.8810(2) 0.3065(3)
O2O O 1.5887(2) 1.1190(2) -0.3065(3)
O2G_2 O 1.4113(2) 0.8810(2) -0.6935(3)
O3F O 1.2912(3) 1.1633(2) -0.3138(3)
O3A O 1.0867(2) 1.0412(3) -0.5638(3)
O3G O 1.2088(3) 0.8367(2) 0.1862(3)
O4F O 1.3744(2) 1.1338(2) -0.2337(3)
O4A O 1.1162(2) 1.1244(2) -0.4837(3)
O4G O 1.1256(2) 0.8662(2) 0.2663(3)
O4G_2 O 1.1256(2) 0.8662(2) -0.7337(3)
O5J O 1.2838(2) 1.2850(2) 0.0644(2)
O5F O 1.2162(2) 1.2150(2) 0.4356(2)
O5A O 1.0350(2) 0.9662(2) 0.1856(2)
O5F_2 O 1.2162(2) 1.2150(2) -0.5644(2)
O5G O 1.2838(2) 0.7850(2) -0.0644(2)
O5I O 0.9650(2) 1.0338(2) -0.1856(2)
O5H O 1.5350(2) 0.9662(2) -0.6856(2)
O5A_2 O 1.0350(2) 0.9662(2) -0.8144(2)
O6J O 1.2295(2) 1.2849(2) 0.1833(2)
O6F O 1.2705(2) 1.2151(2) 0.3167(2)
O6A O 1.0349(2) 1.0205(2) 0.0667(2)
O6I O 0.9651(2) 0.9795(2) -0.0667(2)
O6H O 1.5349(2) 1.0205(2) -0.5667(2)
O7J O 1.1305(2) 1.3745(2) 0.2452(3)
O7F O 1.3695(2) 1.1255(2) 0.2548(3)
O7A O 1.1245(2) 1.1195(2) 0.0048(3)
O7H O 1.6245(2) 1.1195(2) -0.5048(3)
O8J O 1.0803(2) 1.4624(2) 0.1920(3)
O8F O 1.4197(2) 1.0376(2) 0.3080(3)
O8A O 1.2124(2) 1.1697(2) 0.0580(3)
O8G O 1.0803(2) 0.9624(2) -0.1920(3)
O8N O 1.5803(2) 0.9624(2) -0.3080(3)
O8F_2 O 1.4197(2) 1.0376(2) -0.6920(3)
O9F O 1.1261(3) 1.2601(3) -0.4190(3)
O9G O 1.3739(3) 0.7399(3) 0.0810(3)
O9A O 0.9899(3) 0.8761(3) -0.6690(3)
H1F H 1.1355 1.2895 -0.3833
H1G H 1.3645 0.7105 0.1167
H1A H 0.9605 0.8855 -0.6333
H2F H 1.1270 1.2770 -0.4671
H2G H 1.3730 0.7230 0.0329
H2A H 0.9730 0.8770 -0.7171
O10F O 1.2764(3) 1.2674(3) -0.4137(3)
O10G O 1.2236(3) 0.7326(3) 0.0863(3)
O10A O 0.9826(3) 1.0264(3) -0.6637(3)
H3F H 1.3065 1.2627 -0.3777
H3G H 1.1935 0.7373 0.1223
H3A H 0.9873 1.0565 -0.6277
H4F H 1.2937 1.2708 -0.4615
H4G H 1.2063 0.7292 0.0385
H4A H 0.9792 1.0437 -0.7115
O11F O 0.9929(3) 1.1347(3) -0.0495(3)
O11O O 1.4929(3) 1.1347(3) -0.4505(3)
O11G O 1.5071(3) 0.8653(3) -0.5495(3)
H5F H 0.9628 1.1357 -0.0861
H5O H 1.4628 1.1357 -0.4139
H5G H 1.5372 0.8643 -0.5861
H6F H 1.0137 1.1710 -0.0496
H6O H 1.5137 1.1710 -0.4504
H6G H 1.4863 0.8290 -0.5496
N1F N 1.2983(2) 1.0567(3) -0.1399(3)
N1A N 1.1933(3) 1.0483(2) -0.3899(3)
N1G N 1.2017(2) 0.9433(3) 0.3601(3)
N1G_2 N 1.2017(2) 0.9433(3) -0.6399(3)
N2F N 1.1875(2) 1.0516(2) -0.1248(3)
N2A N 1.1984(2) 0.9375(2) -0.3748(3)
N2G N 1.3125(2) 0.9484(2) 0.3752(3)
N2O N 1.6875(2) 1.0516(2) -0.3752(3)
N2G_2 N 1.3125(2) 0.9484(2) -0.6248(3)
N3J N 1.1269(3) 1.4409(3) 0.0399(3)
N3F N 1.3731(3) 1.0591(3) 0.4601(3)
N3A N 1.1909(3) 1.1231(3) 0.2101(3)
N3G N 1.1269(3) 0.9409(3) -0.0399(3)
N3N N 1.6269(3) 0.9409(3) -0.4601(3)
N3F_2 N 1.3731(3) 1.0591(3) -0.5399(3)
N4J N 1.2067(3) 1.3750(3) -0.0075(3)
N4F N 1.2933(3) 1.1250(3) 0.5075(3)
N4A N 1.1250(3) 1.0433(3) 0.2575(3)
N4F_2 N 1.2933(3) 1.1250(3) -0.4925(3)
N4G N 1.2067(3) 0.8750(3) 0.0075(3)
N4A_2 N 1.1250(3) 1.0433(3) -0.7425(3)
C1F C 1.2465(3) 1.0302(3) -0.0998(4)
C1A C 1.2198(3) 0.9965(3) -0.3498(4)
C1G C 1.2535(3) 0.9698(3) 0.4002(4)
H7F H 1.2514 0.9993 -0.0578
H7A H 1.2507 1.0014 -0.3078
H7G H 1.2486 1.0007 0.4422
C2F C 1.2014(3) 1.0959(3) -0.1871(3)
C2A C 1.1541(3) 0.9514(3) -0.4371(3)
C2G C 1.2986(3) 0.9041(3) 0.3129(3)
C3F C 1.2695(3) 1.0990(3) -0.1962(3)
C3A C 1.1510(3) 1.0195(3) -0.4462(3)
C3G C 1.2305(3) 0.9010(3) 0.3038(3)
C4F C 1.1455(3) 1.1308(3) -0.2248(3)
C4A C 1.1192(3) 0.8955(3) -0.4748(3)
C4G C 1.3545(3) 0.8692(3) 0.2752(3)
C5F C 1.3138(3) 1.1352(3) -0.2521(4)
C5A C 1.1148(3) 1.0638(3) -0.5021(4)
C5G C 1.1862(3) 0.8648(3) 0.2479(4)
C6J C 1.1632(3) 1.4227(3) -0.0245(4)
C6F C 1.3368(3) 1.0773(3) 0.5245(4)
C6A C 1.1727(3) 1.0868(3) 0.2745(4)
H8J H 1.1588 1.4415 -0.0767
H8F H 1.3412 1.0585 0.5767
H8A H 1.1915 1.0912 0.3267
C7J C 1.1974(3) 1.3600(3) 0.0746(3)
C7F C 1.3026(3) 1.1400(3) 0.4254(3)
C7A C 1.1100(3) 1.0526(3) 0.1754(3)
C8J C 1.1473(3) 1.4013(3) 0.1037(3)
C8F C 1.3527(3) 1.0987(3) 0.3963(3)
C8A C 1.1513(3) 1.1027(3) 0.1463(3)
C9J C 1.2385(3) 1.3081(3) 0.1102(4)
C9F C 1.2615(3) 1.1919(3) 0.3898(4)
C9A C 1.0581(3) 1.0115(3) 0.1398(4)
C10J C 1.1181(3) 1.4126(3) 0.1870(4)
C10F C 1.3819(3) 1.0874(3) 0.3130(4)
C10A C 1.1626(3) 1.1319(3) 0.0630(4)
O12 O 0.5252(5) 0.6743(5) -0.1021(6)
H9 H 0.5375 0.6568 -0.1473
H10 H 0.4933 0.6524 -0.0820
O13 O 0.5046(17) 0.7028(12) -0.2940(19)
H11 H 0.5180 0.6759 -0.3306
H12 H 0.4831 0.6821 -0.2572
O14 O 0.5000 0.7500 0.1250
H13? H 0.4962 0.7658 0.1735
H14? H 0.5078 0.7200 0.0896
loop_
_geom_bond_atom_site_label_1
_geom_bond_atom_site_label_2
_geom_bond_site_symmetry_1
_geom_bond_site_symmetry_2
Gd1 O1 1_555 1_555
Gd2 O2 1_555 1_555
O1 C4 1_555 1_555
O2 C4 1_555 1_555
O3 Gd1 1_555 1_555
O4 C5 1_555 1_555
O5 Gd1 1_555 1_555
O6 C9 1_555 1_555
O7 C10 1_555 1_555
O8 C10 1_555 1_555
O9 Gd1 1_555 1_555
H1 O9 1_555 1_555
H2 O9 1_555 1_555
O10 Gd1 1_555 1_555
H3 O10 1_555 1_555
H4 O10 1_555 1_555
O11 Gd2 1_555 1_555
H5 O11 1_555 1_555
H6 O11 1_555 1_555
N1 C1 1_555 1_555
N2 Gd2 1_555 1_555
N3 C6 1_555 1_555
N4 Gd1 1_555 1_555
C1 N2 1_555 1_555
H7 C1 1_555 1_555
C2 N2 1_555 1_555
C3 N1 1_555 1_555
C4 C2 1_555 1_555
C5 O3 1_555 1_555
C6 N4 1_555 1_555
H8 C6 1_555 1_555
C7 N4 1_555 1_555
C8 N3 1_555 1_555
C9 O5 1_555 1_555
C10 C8 1_555 1_555
O12 H9 1_555 1_555
H10 O12 1_555 1_555
O13 H11 1_555 1_555
H12 O13 1_555 1_555
Gd1F O1F 1_555 1_555
Gd1G O4 1_555 1_555
Gd1A O1A 1_555 1_555
Gd1J O5J 1_555 1_555
Gd1F_2 O5F 1_555 1_555
Gd1A_2 O4G 1_555 1_555
Gd2F O2F 1_555 1_555
Gd2O O5 1_555 1_555
Gd2G O6 1_555 1_555
Gd2A O8 1_555 1_555
Gd2L O5F 1_555 1_555
Gd2K O8J 1_555 1_555
Gd2G_2 O2G 1_555 1_555
Gd2N O5A 1_555 1_555
O1F C4F 1_555 1_555
O1A C4A 1_555 1_555
O1G Gd1G 1_555 1_555
O2F C4F 1_555 1_555
O2A Gd2A 1_555 1_555
O2G C4G 1_555 1_555
O2O Gd2O 1_555 1_555
O2G_2 Gd2G 1_555 1_555
O3F Gd1F 1_555 1_555
O3A Gd1A 1_555 1_555
O3G Gd1G 1_555 1_555
O4F Gd1 1_555 1_555
O4A Gd1F 1_555 1_555
O4G C5G 1_555 1_555
O4G_2 Gd1A 1_555 1_555
O5J Gd2 1_555 1_555
O5F C9F 1_555 1_555
O5A Gd1A_2 1_555 1_555
O5F_2 Gd1F 1_555 1_555
O5G Gd1G 1_555 1_555
O5I Gd2F 1_555 1_555
O5H Gd2G 1_555 1_555
O5A_2 Gd1A 1_555 1_555
O6J Gd2 1_555 1_555
O6F Gd2 1_555 1_555
O6A Gd2F 1_555 1_555
O6I Gd2F 1_555 1_555
O6H Gd2O 1_555 1_555
O7J Gd2L 1_555 1_555
O7F Gd2 1_555 1_555
O7A Gd2F 1_555 1_555
O7H Gd2O 1_555 1_555
O8J C10J 1_555 1_555
O8F Gd2G_2 1_555 1_555
O8A Gd2 1_555 1_555
O8G Gd2F 1_555 1_555
O8N Gd2O 1_555 1_555
O8F_2 Gd2G 1_555 1_555
O9F Gd1F 1_555 1_555
O9G Gd1G 1_555 1_555
O9A Gd1A 1_555 1_555
H1F O9F 1_555 1_555
H1G O9G 1_555 1_555
H1A O9A 1_555 1_555
H2F O9F 1_555 1_555
H2G O9G 1_555 1_555
H2A O9A 1_555 1_555
O10F Gd1F 1_555 1_555
O10G Gd1G 1_555 1_555
O10A Gd1A 1_555 1_555
H3F O10F 1_555 1_555
H3G O10G 1_555 1_555
H3A O10A 1_555 1_555
H4F O10F 1_555 1_555
H4G O10G 1_555 1_555
H4A O10A 1_555 1_555
O11F Gd2F 1_555 1_555
O11O Gd2O 1_555 1_555
O11G Gd2G 1_555 1_555
H5F O11F 1_555 1_555
H5O O11O 1_555 1_555
H5G O11G 1_555 1_555
H6F O11F 1_555 1_555
H6O O11O 1_555 1_555
H6G O11G 1_555 1_555
N1F Gd1 1_555 1_555
N1A Gd1F 1_555 1_555
N1G Gd1A_2 1_555 1_555
N1G_2 Gd1A 1_555 1_555
N2F Gd2F 1_555 1_555
N2A Gd2A 1_555 1_555
N2G Gd2G_2 1_555 1_555
N2O Gd2O 1_555 1_555
N2G_2 Gd2G 1_555 1_555
N3J Gd2K 1_555 1_555
N3F Gd2G_2 1_555 1_555
N3A Gd2 1_555 1_555
N3G Gd2F 1_555 1_555
N3N Gd2O 1_555 1_555
N3F_2 Gd2G 1_555 1_555
N4J Gd1J 1_555 1_555
N4F Gd1F_2 1_555 1_555
N4A Gd1A_2 1_555 1_555
N4F_2 Gd1F 1_555 1_555
N4G Gd1G 1_555 1_555
N4A_2 Gd1A 1_555 1_555
C1F N1F 1_555 1_555
C1A N1A 1_555 1_555
C1G N1G 1_555 1_555
H7F C1F 1_555 1_555
H7A C1A 1_555 1_555
H7G C1G 1_555 1_555
C2F N2F 1_555 1_555
C2A N2A 1_555 1_555
C2G N2G 1_555 1_555
C3F N1F 1_555 1_555
C3A N1A 1_555 1_555
C3G N1G 1_555 1_555
C4F C2F 1_555 1_555
C4A O2A 1_555 1_555
C4G O1G 1_555 1_555
C5F O3F 1_555 1_555
C5A O3A 1_555 1_555
C5G O3G 1_555 1_555
C6J N3J 1_555 1_555
C6F N3F 1_555 1_555
C6A N3A 1_555 1_555
H8J C6J 1_555 1_555
H8F C6F 1_555 1_555
H8A C6A 1_555 1_555
C7J N4J 1_555 1_555
C7F N4F 1_555 1_555
C7A N4A 1_555 1_555
C8J N3J 1_555 1_555
C8F N3F 1_555 1_555
C8A N3A 1_555 1_555
C9J O5J 1_555 1_555
C9F O6F 1_555 1_555
C9A O5A 1_555 1_555
C10J O7J 1_555 1_555
C10F O7F 1_555 1_555
C10A O7A 1_555 1_555
O6 Gd2O 1_555 1_555
O7 Gd2G 1_555 1_555
N1 Gd1G 1_555 1_555
N3 Gd2A 1_555 1_555
C2 C3 1_555 1_555
C3 C5 1_555 1_555
C7 C8 1_555 1_555
C7 C9 1_555 1_555
Gd2G O6H 1_555 1_555
Gd2L O6J 1_555 1_555
Gd2L O6F 1_555 1_555
Gd2N O6A 1_555 1_555
Gd2N O6I 1_555 1_555
O4F C5F 1_555 1_555
O4A C5A 1_555 1_555
O6J C9J 1_555 1_555
O6A C9A 1_555 1_555
O8F C10F 1_555 1_555
O8A C10A 1_555 1_555
N2F C1F 1_555 1_555
N2A C1A 1_555 1_555
N2G C1G 1_555 1_555
N4J C6J 1_555 1_555
N4F C6F 1_555 1_555
N4A C6A 1_555 1_555
C2F C3F 1_555 1_555
C2A C3A 1_555 1_555
C2A C4A 1_555 1_555
C2G C3G 1_555 1_555
C2G C4G 1_555 1_555
C3F C5F 1_555 1_555
C3A C5A 1_555 1_555
C3G C5G 1_555 1_555
C7J C8J 1_555 1_555
C7J C9J 1_555 1_555
C7F C8F 1_555 1_555
C7F C9F 1_555 1_555
C7A C8A 1_555 1_555
C7A C9A 1_555 1_555
C8J C10J 1_555 1_555
C8F C10F 1_555 1_555
C8A C10A 1_555 1_555

#END
