
#######################################################################
#
#                 Cambridge Crystallographic Data Centre
#                                CCDC 
#
#######################################################################
#
# If this CIF has been generated from an entry in the Cambridge 
# Structural Database, then it will include bibliographic, chemical, 
# crystal, experimental, refinement or atomic coordinate data resulting 
# from the CCDC's data processing and validation procedures.
#
#######################################################################

data_WEMCIC
_symmetry_cell_setting           tetragonal
_symmetry_space_group_name_H-M   'I 41/a'
_symmetry_Int_Tables_number      88
_space_group_name_Hall           '-I 4ad'
loop_
_symmetry_equiv_pos_site_id
_symmetry_equiv_pos_as_xyz
1 x,y,z
2 1/2-x,-y,1/2+z
3 3/4-y,1/4+x,1/4+z
4 3/4+y,3/4-x,3/4+z
5 1/2+x,1/2+y,1/2+z
6 -x,1/2-y,z
7 1/4-y,3/4+x,3/4+z
8 1/4+y,1/4-x,1/4+z
9 -x,-y,-z
10 1/2+x,y,1/2-z
11 1/4+y,3/4-x,3/4-z
12 1/4-y,1/4+x,1/4-z
13 1/2-x,1/2-y,1/2-z
14 x,1/2+y,-z
15 3/4+y,1/4-x,1/4-z
16 3/4-y,3/4+x,3/4-z
_cell_length_a                   20.3131(14)
_cell_length_b                   20.3131(14)
_cell_length_c                   16.190(2)
_cell_angle_alpha                90
_cell_angle_beta                 90
_cell_angle_gamma                90
_cell_volume                     6680.35
loop_
_atom_site_label
_atom_site_type_symbol
_atom_site_fract_x
_atom_site_fract_y
_atom_site_fract_z
Eu1 Eu -0.076569(16) 0.955005(17) 0.338412(19)
Eu2 Eu -0.204780(15) 0.818510(16) 0.669220(18)
O1 O -0.0865(3) 1.0407(2) 0.4350(3)
O2 O -0.1150(2) 1.1242(3) 0.5154(3)
O3 O -0.0803(2) 0.9011(2) 0.4652(3)
O4 O -0.1311(2) 0.8391(2) 0.5569(3)
O5 O -0.2124(2) 1.1699(2) 0.0588(3)
O6 O -0.1249(2) 1.1193(2) 0.0051(3)
O7 O -0.0350(2) 0.9661(2) 0.1849(3)
O8 O -0.0353(2) 1.0207(2) 0.0665(3)
O9 O 0.0183(3) 1.0254(3) 0.3351(3)
H1 H 0.0185 1.0490 0.3762
H2 H 0.0168 1.0524 0.2864
O10 O 0.0099(3) 0.8742(3) 0.3312(3)
H3 H 0.0311 0.8746 0.3744
H4 H 0.0387 0.8845 0.2860
O11 O -0.1138(3) 0.7426(3) 0.6987(3)
H5 H -0.0832 0.7631 0.7196
H6 H -0.1287 0.7095 0.7366
N1 N -0.1927(3) 1.0477(3) 0.6102(3)
N2 N -0.1978(3) 0.9377(3) 0.6245(3)
N3 N -0.1252(3) 1.0427(3) 0.2572(3)
N4 N -0.1907(3) 1.1228(3) 0.2096(3)
C1 C -0.2194(3) 0.9963(3) 0.6499(4)
H7 H -0.2504 1.0012 0.6917
C2 C -0.1540(3) 0.9512(3) 0.5627(4)
C3 C -0.1500(3) 1.0193(3) 0.5532(4)
C4 C -0.1195(3) 0.8953(3) 0.5250(4)
C5 C -0.1146(3) 1.0629(3) 0.4971(4)
C6 C -0.1722(4) 1.0865(4) 0.2736(4)
H8 H -0.1905 1.0912 0.3259
C7 C -0.1516(3) 1.1021(3) 0.1461(4)
C8 C -0.1106(3) 1.0529(3) 0.1748(4)
C9 C -0.1623(3) 1.1314(3) 0.0631(4)
C10 C -0.0583(3) 1.0112(3) 0.1392(4)
Eu1C Eu -0.294995(17) 0.826569(16) 0.088412(19)
Eu1B Eu -0.205005(17) 1.173431(16) 0.588412(19)
Eu1A Eu -0.423431(16) 1.044995(17) -0.161588(19)
Eu1A_2 Eu -0.423431(16) 1.044995(17) 0.838412(19)
Eu1C_2 Eu -0.294995(17) 0.826569(16) 1.088412(19)
Eu1O Eu -0.205005(17) 0.673431(16) 0.411588(19)
Eu2C Eu -0.431490(16) 0.954780(15) 0.419220(18)
Eu2A Eu -0.295220(15) 1.181490(16) 0.169220(18)
Eu2B Eu -0.068510(16) 1.045220(15) -0.080780(18)
Eu2J Eu 0.068510(16) 0.954780(15) 0.080780(18)
Eu2K Eu -0.568510(16) 1.045220(15) 0.580780(18)
Eu2B_2 Eu -0.068510(16) 1.045220(15) 0.919220(18)
Eu2L Eu -0.295220(15) 0.681490(16) 0.830780(18)
Eu2N Eu -0.431490(16) 0.454780(15) 0.580780(18)
O1C O -0.2093(2) 0.8365(3) 0.1850(3)
O1A O -0.4135(3) 0.9593(2) -0.0650(3)
O1B O -0.2907(2) 1.1635(3) 0.6850(3)
O2C O -0.1258(3) 0.8650(2) 0.2654(3)
O2A O -0.3850(2) 0.8758(3) 0.0154(3)
O2B O -0.3742(3) 1.1350(2) 0.7654(3)
O2B_2 O -0.3742(3) 1.1350(2) -0.2346(3)
O3C O -0.3489(2) 0.8303(2) 0.2152(3)
O3A O -0.4197(2) 1.0989(2) -0.0348(3)
O3B O -0.1511(2) 1.1697(2) 0.7152(3)
O4C O -0.4109(2) 0.8811(2) 0.3069(3)
O4A O -0.3689(2) 1.1609(2) 0.0569(3)
O4B O -0.0891(2) 1.1189(2) 0.8069(3)
O4B_2 O -0.0891(2) 1.1189(2) -0.1931(3)
O5A O -0.2876(2) 0.8301(2) 0.5588(3)
O5C O -0.0801(2) 0.9624(2) 0.8088(3)
O5O O -0.4199(2) 0.5376(2) 0.6912(3)
O5B O -0.4199(2) 1.0376(2) 0.3088(3)
O5C_2 O -0.0801(2) 0.9624(2) -0.1912(3)
O6A O -0.3751(2) 0.8807(2) 0.5051(3)
O6C O -0.1307(2) 0.8749(2) 0.7551(3)
O6O O -0.3693(2) 0.6251(2) 0.7449(3)
O6B O -0.3693(2) 1.1251(2) 0.2551(3)
O7A O -0.4650(2) 1.0339(2) 0.6849(3)
O7C O -0.2839(2) 0.7850(2) 0.9349(3)
O7O O -0.2161(2) 0.7150(2) 0.5651(3)
O7C_2 O -0.2839(2) 0.7850(2) -0.0651(3)
O7B O -0.2161(2) 1.2150(2) 0.4349(3)
O7I O -0.5350(2) 0.9661(2) 0.3151(3)
O7N O -0.2839(2) 1.2850(2) 0.0651(3)
O7H O 0.0350(2) 1.0339(2) -0.1849(3)
O7A_2 O -0.4650(2) 1.0339(2) -0.3151(3)
O8A O -0.4647(2) 0.9793(2) 0.5665(3)
O8C O -0.2293(2) 0.7853(2) 0.8165(3)
O8O O -0.2707(2) 0.7147(2) 0.6835(3)
O8I O -0.5353(2) 1.0207(2) 0.4335(3)
O8B O -0.2707(2) 1.2147(2) 0.3165(3)
O8N O -0.2293(2) 1.2853(2) 0.1835(3)
O8H O 0.0353(2) 0.9793(2) -0.0665(3)
O9C O -0.2246(3) 0.7317(3) 0.0851(3)
O9B O -0.2754(3) 1.2683(3) 0.5851(3)
O9A O -0.5183(3) 0.9746(3) -0.1649(3)
H1C H -0.2010 0.7315 0.1262
H1B H -0.2990 1.2685 0.6262
H1A H -0.5185 0.9510 -0.1238
H2C H -0.1976 0.7332 0.0364
H2B H -0.3024 1.2668 0.5364
H2A H -0.5168 0.9476 -0.2136
O10C O -0.3758(3) 0.7401(3) 0.0812(3)
O10B O -0.1242(3) 1.2599(3) 0.5812(3)
O10A O -0.5099(3) 1.1258(3) -0.1688(3)
H3C H -0.3754 0.7189 0.1244
H3B H -0.1246 1.2811 0.6244
H3A H -0.5311 1.1254 -0.1256
H4C H -0.3655 0.7113 0.0360
H4B H -0.1345 1.2887 0.5360
H4A H -0.5387 1.1155 -0.2140
O11C O -0.5074(3) 0.8638(3) 0.4487(3)
O11A O -0.3862(3) 1.2574(3) 0.1987(3)
O11B O 0.0074(3) 1.1362(3) -0.0513(3)
H5C H -0.4869 0.8332 0.4696
H5A H -0.4168 1.2369 0.2196
H5B H -0.0131 1.1668 -0.0304
H6C H -0.5405 0.8787 0.4866
H6A H -0.3713 1.2905 0.2366
H6B H 0.0405 1.1213 -0.0134
N1C N -0.2023(3) 0.9427(3) 0.3602(3)
N1A N -0.3073(3) 0.9523(3) 0.1102(3)
N1B N -0.2977(3) 1.0573(3) 0.8602(3)
N1B_2 N -0.2977(3) 1.0573(3) -0.1398(3)
N2C N -0.3123(3) 0.9478(3) 0.3745(3)
N2A N -0.3022(3) 1.0623(3) 0.1245(3)
N2B N -0.1877(3) 1.0522(3) 0.8745(3)
N2B_2 N -0.1877(3) 1.0522(3) -0.1255(3)
N3A N -0.3748(3) 0.9573(3) 0.7572(3)
N3C N -0.2073(3) 0.8752(3) 1.0072(3)
N3O N -0.2927(3) 0.6248(3) 0.4928(3)
N3C_2 N -0.2073(3) 0.8752(3) 0.0072(3)
N3B N -0.2927(3) 1.1248(3) 0.5072(3)
N3A_2 N -0.3748(3) 0.9573(3) -0.2428(3)
N4A N -0.3093(3) 0.8772(3) 0.7096(3)
N4C N -0.1272(3) 0.9407(3) 0.9596(3)
N4O N -0.3728(3) 0.5593(3) 0.5404(3)
N4B N -0.3728(3) 1.0593(3) 0.4596(3)
N4C_2 N -0.1272(3) 0.9407(3) -0.0404(3)
C1C C -0.2537(3) 0.9694(3) 0.3999(4)
C1A C -0.2806(3) 1.0037(3) 0.1499(4)
C1B C -0.2463(3) 1.0306(3) 0.8999(4)
H7C H -0.2488 1.0004 0.4417
H7A H -0.2496 0.9988 0.1917
H7B H -0.2512 0.9996 0.9417
C2C C -0.2988(3) 0.9040(3) 0.3127(4)
C2A C -0.3460(3) 1.0488(3) 0.0627(4)
C2B C -0.2012(3) 1.0960(3) 0.8127(4)
C3C C -0.2307(3) 0.9000(3) 0.3032(4)
C3A C -0.3500(3) 0.9807(3) 0.0532(4)
C3B C -0.2693(3) 1.1000(3) 0.8032(4)
C4C C -0.3547(3) 0.8695(3) 0.2750(4)
C4A C -0.3805(3) 1.1047(3) 0.0250(4)
C4B C -0.1453(3) 1.1305(3) 0.7750(4)
C5C C -0.1871(3) 0.8646(3) 0.2471(4)
C5A C -0.3854(3) 0.9371(3) -0.0029(4)
C5B C -0.3129(3) 1.1354(3) 0.7471(4)
C6A C -0.3278(4) 0.9135(4) 0.7736(4)
C6C C -0.1635(4) 0.9222(4) 1.0236(4)
C6O C -0.3365(4) 0.5778(4) 0.4764(4)
H8A H -0.3095 0.9088 0.8259
H8C H -0.1588 0.9405 1.0759
H8O H -0.3412 0.5595 0.4241
C7A C -0.3484(3) 0.8979(3) 0.6461(4)
C7C C -0.1479(3) 0.9016(3) 0.8961(4)
C7O C -0.3521(3) 0.5984(3) 0.6039(4)
C8A C -0.3894(3) 0.9471(3) 0.6748(4)
C8C C -0.1971(3) 0.8606(3) 0.9248(4)
C8O C -0.3029(3) 0.6394(3) 0.5752(4)
C9A C -0.3377(3) 0.8686(3) 0.5631(4)
C9C C -0.1186(3) 0.9123(3) 0.8131(4)
C9O C -0.3814(3) 0.5877(3) 0.6869(4)
C10A C -0.4417(3) 0.9888(3) 0.6392(4)
C10C C -0.2388(3) 0.8083(3) 0.8892(4)
C10O C -0.2612(3) 0.6917(3) 0.6108(4)
O12 O 0.0000 0.7500 0.3750
O13 O -0.0521(12) 0.7544(19) -0.0480(16)
O14 O -0.0754(4) 0.7752(5) 0.1463(6)
H12 H -0.0858 0.7399 0.1713
H13 H -0.1031 0.7826 0.1080
H9? H 0.0076 0.7436 0.4260
H10? H -0.0135 0.7580 -0.0677
H11? H -0.0800 0.7683 -0.0831
H14? H -0.0285 0.7224 0.3582
loop_
_geom_bond_atom_site_label_1
_geom_bond_atom_site_label_2
_geom_bond_site_symmetry_1
_geom_bond_site_symmetry_2
Eu1 O1 1_555 1_555
Eu2 O4 1_555 1_555
O1 C5 1_555 1_555
O2 C5 1_555 1_555
O3 Eu1 1_555 1_555
O4 C4 1_555 1_555
O5 C9 1_555 1_555
O6 C9 1_555 1_555
O7 Eu1 1_555 1_555
O8 C10 1_555 1_555
O9 Eu1 1_555 1_555
H1 O9 1_555 1_555
H2 O9 1_555 1_555
O10 Eu1 1_555 1_555
H3 O10 1_555 1_555
H4 O10 1_555 1_555
O11 Eu2 1_555 1_555
H5 O11 1_555 1_555
H6 O11 1_555 1_555
N1 C1 1_555 1_555
N2 Eu2 1_555 1_555
N3 Eu1 1_555 1_555
N4 C6 1_555 1_555
C1 N2 1_555 1_555
H7 C1 1_555 1_555
C2 N2 1_555 1_555
C3 N1 1_555 1_555
C4 O3 1_555 1_555
C5 C3 1_555 1_555
C6 N3 1_555 1_555
H8 C6 1_555 1_555
C7 N4 1_555 1_555
C8 N3 1_555 1_555
C9 C7 1_555 1_555
C10 O7 1_555 1_555
O14 H12 1_555 1_555
H13 O14 1_555 1_555
Eu1C O1C 1_555 1_555
Eu1B O2 1_555 1_555
Eu1A O1A 1_555 1_555
Eu1A_2 O2B 1_555 1_555
Eu1C_2 O7C 1_555 1_555
Eu1O O7O 1_555 1_555
Eu2C O4C 1_555 1_555
Eu2A O5 1_555 1_555
Eu2B O6 1_555 1_555
Eu2J O7 1_555 1_555
Eu2K O7A 1_555 1_555
Eu2B_2 O4B 1_555 1_555
Eu2L O6O 1_555 1_555
Eu2N O5O 1_555 1_555
O1C C5C 1_555 1_555
O1A C5A 1_555 1_555
O1B Eu1B 1_555 1_555
O2C Eu1 1_555 1_555
O2A Eu1C 1_555 1_555
O2B C5B 1_555 1_555
O2B_2 Eu1A 1_555 1_555
O3C Eu1C 1_555 1_555
O3A Eu1A 1_555 1_555
O3B Eu1B 1_555 1_555
O4C C4C 1_555 1_555
O4A Eu2A 1_555 1_555
O4B C4B 1_555 1_555
O4B_2 Eu2B 1_555 1_555
O5A Eu2 1_555 1_555
O5C Eu2B_2 1_555 1_555
O5O C9O 1_555 1_555
O5B Eu2C 1_555 1_555
O5C_2 Eu2B 1_555 1_555
O6A Eu2C 1_555 1_555
O6C Eu2 1_555 1_555
O6O C9O 1_555 1_555
O6B Eu2A 1_555 1_555
O7A Eu1A_2 1_555 1_555
O7C Eu2L 1_555 1_555
O7O Eu2 1_555 1_555
O7C_2 Eu1C 1_555 1_555
O7B Eu1B 1_555 1_555
O7I Eu2C 1_555 1_555
O7N Eu2A 1_555 1_555
O7H Eu2B 1_555 1_555
O7A_2 Eu1A 1_555 1_555
O8A Eu2C 1_555 1_555
O8C Eu2 1_555 1_555
O8O Eu2 1_555 1_555
O8I Eu2C 1_555 1_555
O8B Eu2A 1_555 1_555
O8N Eu2A 1_555 1_555
O8H Eu2B 1_555 1_555
O9C Eu1C 1_555 1_555
O9B Eu1B 1_555 1_555
O9A Eu1A 1_555 1_555
H1C O9C 1_555 1_555
H1B O9B 1_555 1_555
H1A O9A 1_555 1_555
H2C O9C 1_555 1_555
H2B O9B 1_555 1_555
H2A O9A 1_555 1_555
O10C Eu1C 1_555 1_555
O10B Eu1B 1_555 1_555
O10A Eu1A 1_555 1_555
H3C O10C 1_555 1_555
H3B O10B 1_555 1_555
H3A O10A 1_555 1_555
H4C O10C 1_555 1_555
H4B O10B 1_555 1_555
H4A O10A 1_555 1_555
O11C Eu2C 1_555 1_555
O11A Eu2A 1_555 1_555
O11B Eu2B 1_555 1_555
H5C O11C 1_555 1_555
H5A O11A 1_555 1_555
H5B O11B 1_555 1_555
H6C O11C 1_555 1_555
H6A O11A 1_555 1_555
H6B O11B 1_555 1_555
N1C Eu1 1_555 1_555
N1A Eu1C 1_555 1_555
N1B Eu1A_2 1_555 1_555
N1B_2 Eu1A 1_555 1_555
N2C Eu2C 1_555 1_555
N2A Eu2A 1_555 1_555
N2B Eu2B_2 1_555 1_555
N2B_2 Eu2B 1_555 1_555
N3A Eu1A_2 1_555 1_555
N3C Eu1C_2 1_555 1_555
N3O Eu1O 1_555 1_555
N3C_2 Eu1C 1_555 1_555
N3B Eu1B 1_555 1_555
N3A_2 Eu1A 1_555 1_555
N4A Eu2 1_555 1_555
N4C Eu2B_2 1_555 1_555
N4O Eu2N 1_555 1_555
N4B Eu2C 1_555 1_555
N4C_2 Eu2B 1_555 1_555
C1C N1C 1_555 1_555
C1A N1A 1_555 1_555
C1B N1B 1_555 1_555
H7C C1C 1_555 1_555
H7A C1A 1_555 1_555
H7B C1B 1_555 1_555
C2C N2C 1_555 1_555
C2A N2A 1_555 1_555
C2B N2B 1_555 1_555
C3C N1C 1_555 1_555
C3A N1A 1_555 1_555
C3B N1B 1_555 1_555
C4C O3C 1_555 1_555
C4A O3A 1_555 1_555
C4B O3B 1_555 1_555
C5C O2C 1_555 1_555
C5A O2A 1_555 1_555
C5B O1B 1_555 1_555
C6A N3A 1_555 1_555
C6C N3C 1_555 1_555
C6O N3O 1_555 1_555
H8A C6A 1_555 1_555
H8C C6C 1_555 1_555
H8O C6O 1_555 1_555
C7A N4A 1_555 1_555
C7C N4C 1_555 1_555
C7O N4O 1_555 1_555
C8A N3A 1_555 1_555
C8C N3C 1_555 1_555
C8O N3O 1_555 1_555
C9A O5A 1_555 1_555
C9C O5C 1_555 1_555
C9O C7O 1_555 1_555
C10A O7A 1_555 1_555
C10C O7C 1_555 1_555
C10O O7O 1_555 1_555
O8 Eu2B 1_555 1_555
O8 Eu2J 1_555 1_555
N1 Eu1B 1_555 1_555
N4 Eu2A 1_555 1_555
C2 C3 1_555 1_555
C2 C4 1_555 1_555
C7 C8 1_555 1_555
C8 C10 1_555 1_555
Eu2J O8H 1_555 1_555
Eu2K O8A 1_555 1_555
Eu2K O8I 1_555 1_555
Eu2L O8C 1_555 1_555
Eu2L O8O 1_555 1_555
O4A C4A 1_555 1_555
O6A C9A 1_555 1_555
O6C C9C 1_555 1_555
O8A C10A 1_555 1_555
O8C C10C 1_555 1_555
O8O C10O 1_555 1_555
N2C C1C 1_555 1_555
N2A C1A 1_555 1_555
N2B C1B 1_555 1_555
N4A C6A 1_555 1_555
N4C C6C 1_555 1_555
N4O C6O 1_555 1_555
C2C C3C 1_555 1_555
C2C C4C 1_555 1_555
C2A C3A 1_555 1_555
C2A C4A 1_555 1_555
C2B C3B 1_555 1_555
C2B C4B 1_555 1_555
C3C C5C 1_555 1_555
C3A C5A 1_555 1_555
C3B C5B 1_555 1_555
C7A C8A 1_555 1_555
C7A C9A 1_555 1_555
C7C C8C 1_555 1_555
C7C C9C 1_555 1_555
C7O C8O 1_555 1_555
C8A C10A 1_555 1_555
C8C C10C 1_555 1_555
C8O C10O 1_555 1_555

#END
