
#######################################################################
#
#                 Cambridge Crystallographic Data Centre
#                                CCDC 
#
#######################################################################
#
# If this CIF has been generated from an entry in the Cambridge 
# Structural Database, then it will include bibliographic, chemical, 
# crystal, experimental, refinement or atomic coordinate data resulting 
# from the CCDC's data processing and validation procedures.
#
#######################################################################

data_WEMDAU
_symmetry_cell_setting           monoclinic
_symmetry_space_group_name_H-M   'P 21/c'
_symmetry_Int_Tables_number      14
_space_group_name_Hall           '-P 2ybc'
loop_
_symmetry_equiv_pos_site_id
_symmetry_equiv_pos_as_xyz
1 x,y,z
2 -x,1/2+y,1/2-z
3 -x,-y,-z
4 x,1/2-y,1/2+z
_cell_length_a                   8.643(2)
_cell_length_b                   20.034(5)
_cell_length_c                   8.384(2)
_cell_angle_alpha                90
_cell_angle_beta                 99.846(4)
_cell_angle_gamma                90
_cell_volume                     1430.34
loop_
_atom_site_label
_atom_site_type_symbol
_atom_site_fract_x
_atom_site_fract_y
_atom_site_fract_z
Cu1 Cu 0.13088(6) 0.46427(3) -0.08085(6)
Cu2 Cu -0.12305(6) 0.62654(3) -0.22055(6)
Cu3 Cu 0.27661(6) 0.28238(3) 0.08350(7)
I1 I 0.11655(3) 0.594767(13) 0.01116(3)
I2 I 0.38465(3) 0.404300(13) 0.07729(3)
I3 I -0.09507(3) 0.750371(13) -0.29626(3)
N1 N 0.5436(4) 0.71624(17) -0.5905(4)
C1 C 0.5571(5) 0.6578(2) -0.6645(5)
H1 H 0.6312 0.6543 -0.7357
C2 C 0.4688(5) 0.6023(2) -0.6423(5)
H2 H 0.4805 0.5622 -0.6994
C3 C 0.3620(4) 0.6058(2) -0.5349(5)
C4 C 0.3437(5) 0.6671(2) -0.4628(5)
H3 H 0.2688 0.6722 -0.3928
C5 C 0.4345(5) 0.7205(2) -0.4933(5)
H4 H 0.4198 0.7622 -0.4438
C6 C 0.2756(4) 0.54519(19) -0.5010(5)
C7 C 0.2337(5) 0.4964(2) -0.6179(5)
H5 H 0.2574 0.5037 -0.7231
N2 N 0.1616(4) 0.43972(16) -0.5894(4)
C8 C 0.1304(4) 0.4318(2) -0.4398(5)
H6 H 0.0801 0.3915 -0.4175
N3 N 0.1640(4) 0.47578(17) -0.3187(4)
C9 C 0.2378(5) 0.5323(2) -0.3503(5)
H7 H 0.2647 0.5642 -0.2664
Cu1B Cu -0.13088(6) 0.53573(3) 0.08085(6)
Cu2B Cu 0.12305(6) 0.37346(3) 0.22055(6)
Cu2B_2 Cu 0.12305(6) 0.37346(3) -0.77945(6)
Cu3B Cu -0.27661(6) 0.71762(3) -0.08350(7)
Cu3A Cu -0.27661(6) 0.78238(3) -0.58350(7)
Cu3A_2 Cu 0.72339(6) 0.78238(3) -0.58350(7)
I1B I -0.11655(3) 0.405233(13) -0.01116(3)
I2B I -0.38465(3) 0.595700(13) -0.07729(3)
I3B I 0.09507(3) 0.249629(13) 0.29626(3)
I3A I 0.09507(3) 0.250371(13) -0.20374(3)
N1A N 0.4564(4) 0.21624(17) 0.0905(4)
N2B N -0.1616(4) 0.56028(16) -0.4106(4)
loop_
_geom_bond_atom_site_label_1
_geom_bond_atom_site_label_2
_geom_bond_site_symmetry_1
_geom_bond_site_symmetry_2
Cu1 I1 1_555 1_555
Cu2 I1 1_555 1_555
Cu3 I2 1_555 1_555
I1 Cu1B 1_555 1_555
I2 Cu1 1_555 1_555
I3 Cu2 1_555 1_555
N1 C1 1_555 1_555
C1 H1 1_555 1_555
C2 C1 1_555 1_555
H2 C2 1_555 1_555
C3 C2 1_555 1_555
C4 C3 1_555 1_555
H3 C4 1_555 1_555
C5 N1 1_555 1_555
H4 C5 1_555 1_555
C6 C3 1_555 1_555
C7 C6 1_555 1_555
H5 C7 1_555 1_555
N2 C7 1_555 1_555
C8 N2 1_555 1_555
H6 C8 1_555 1_555
N3 Cu1 1_555 1_555
C9 C6 1_555 1_555
H7 C9 1_555 1_555
Cu1B I1B 1_555 1_555
Cu2B I2 1_555 1_555
Cu2B_2 N2 1_555 1_555
Cu3B I3 1_555 1_555
Cu3A I3 1_555 1_555
Cu3A_2 N1 1_555 1_555
I1B Cu1 1_555 1_555
I2B Cu2 1_555 1_555
I3B Cu3 1_555 1_555
I3A Cu3 1_555 1_555
N1A Cu3 1_555 1_555
N2B Cu2 1_555 1_555
C4 C5 1_555 1_555
C8 N3 1_555 1_555
N3 C9 1_555 1_555
Cu1B I2B 1_555 1_555
Cu2B I1B 1_555 1_555
Cu2B I3B 1_555 1_555
Cu3B I2B 1_555 1_555

#END
