
#######################################################################
#
#                 Cambridge Crystallographic Data Centre
#                                CCDC 
#
#######################################################################
#
# If this CIF has been generated from an entry in the Cambridge 
# Structural Database, then it will include bibliographic, chemical, 
# crystal, experimental, refinement or atomic coordinate data resulting 
# from the CCDC's data processing and validation procedures.
#
#######################################################################

data_WEMDEZ
_symmetry_cell_setting           monoclinic
_symmetry_space_group_name_H-M   'P 21/c'
_symmetry_Int_Tables_number      14
_space_group_name_Hall           '-P 2ybc'
loop_
_symmetry_equiv_pos_site_id
_symmetry_equiv_pos_as_xyz
1 x,y,z
2 -x,1/2+y,1/2-z
3 -x,-y,-z
4 x,1/2-y,1/2+z
_cell_length_a                   11.241(2)
_cell_length_b                   9.6687(19)
_cell_length_c                   10.338(2)
_cell_angle_alpha                90
_cell_angle_beta                 114.51(3)
_cell_angle_gamma                90
_cell_volume                     1022.35
loop_
_atom_site_label
_atom_site_type_symbol
_atom_site_fract_x
_atom_site_fract_y
_atom_site_fract_z
Pr1 Pr 0.310618(15) 0.045619(17) 0.168512(17)
O1 O 0.4918(2) 0.1399(3) 0.3905(3)
O2 O 0.6262(3) 0.1018(3) 0.6170(3)
O3 O 0.5298(3) -0.0258(3) 0.1777(3)
O4 O 0.6580(3) -0.0653(3) 0.0645(3)
O5 O 0.1074(2) -0.0711(3) 0.1605(3)
O6 O -0.1065(2) -0.1049(3) 0.0388(3)
O7 O 0.3299(3) 0.2952(3) 0.1149(3)
H1 H 0.3831 0.3032 0.0800
H2 H 0.3556 0.3419 0.1913
O8 O 0.2018(3) 0.1910(3) 0.2946(4)
H3 H 0.1850 0.1420 0.3495
H4 H 0.2535 0.2553 0.3410
O9 O 0.2899(3) -0.1940(3) 0.0740(4)
H5 H 0.3521 -0.2405 0.1269
H6 H 0.2893 -0.1917 -0.0084
C1 C 0.5340(3) 0.0707(3) 0.5024(4)
C2 C 0.5542(3) -0.0261(3) 0.0696(4)
C3 C 0.0004(3) -0.0514(3) 0.0576(4)
Pr1B Pr 0.689382(15) -0.045619(17) 0.831488(17)
Pr1B_2 Pr 0.689382(15) -0.045619(17) -0.168512(17)
Pr1B_3 Pr -0.310618(15) -0.045619(17) -0.168512(17)
O1B O 0.5082(2) -0.1399(3) 0.6095(3)
O2B O 0.3738(3) -0.1018(3) 0.3830(3)
O3B O 0.4702(3) 0.0258(3) -0.1777(3)
O3B_2 O 0.4702(3) 0.0258(3) 0.8223(3)
O4B O 0.3420(3) 0.0653(3) -0.0645(3)
O4_2 O 0.6580(3) -0.0653(3) 1.0645(3)
O5B O -0.1074(2) 0.0711(3) -0.1605(3)
O5B_2 O 0.8926(2) 0.0711(3) 0.8395(3)
O6B O 0.1065(2) 0.1049(3) -0.0388(3)
O6_2 O 0.8935(2) -0.1049(3) 1.0388(3)
O7B O 0.6701(3) -0.2952(3) 0.8851(3)
H1B H 0.6169 -0.3032 0.9200
H2B H 0.6444 -0.3419 0.8087
O8B O 0.7982(3) -0.1910(3) 0.7054(4)
H3B H 0.8150 -0.1420 0.6505
H4B H 0.7465 -0.2553 0.6590
O9B O 0.7101(3) 0.1940(3) 0.9260(4)
H5B H 0.6479 0.2405 0.8731
H6B H 0.7107 0.1917 1.0084
C1B C 0.4660(3) -0.0707(3) 0.4976(4)
C2B C 0.4458(3) 0.0261(3) -0.0696(4)
C3B C -0.0004(3) 0.0514(3) -0.0576(4)
O10 O 0.105(4) 0.025(4) 0.460(5)
H7 H 0.1409 0.0761 0.5327
H8 H 0.0263 0.0516 0.4128
O11 O 0.1582(11) 0.5934(14) 0.1718(18)
H9 H 0.1986 0.6449 0.1367
H10 H 0.1767 0.6180 0.2569
O12 O 0.0762(7) -0.3069(13) 0.2970(13)
H11 H 0.1076 -0.3857 0.2921
H12 H -0.0042 -0.3043 0.2399
H13? H 0.0091 0.4739 0.0294
H14? H 0.0839 0.5106 0.1698
H15? H 0.0790 -0.1741 0.4592
H16? H -0.0215 -0.1911 0.3250
O13? O 0.087(2) 0.483(3) 0.093(3)
O14? O 0.0596(9) -0.2037(18) 0.3754(13)
loop_
_geom_bond_atom_site_label_1
_geom_bond_atom_site_label_2
_geom_bond_site_symmetry_1
_geom_bond_site_symmetry_2
Pr1 O1 1_555 1_555
O1 C1 1_555 1_555
O2 C1 1_555 1_555
O3 Pr1 1_555 1_555
O4 C2 1_555 1_555
O5 Pr1 1_555 1_555
O6 C3 1_555 1_555
O7 Pr1 1_555 1_555
H1 O7 1_555 1_555
H2 O7 1_555 1_555
O8 Pr1 1_555 1_555
H3 O8 1_555 1_555
H4 O8 1_555 1_555
O9 Pr1 1_555 1_555
H5 O9 1_555 1_555
H6 O9 1_555 1_555
C1 C1B 1_555 1_555
C2 O3 1_555 1_555
C3 O5 1_555 1_555
O10 H7 1_555 1_555
H8 O10 1_555 1_555
O11 H9 1_555 1_555
H10 O11 1_555 1_555
O12 H11 1_555 1_555
H12 O12 1_555 1_555
Pr1B O2 1_555 1_555
Pr1B_2 O4 1_555 1_555
Pr1B_3 O6 1_555 1_555
O1B Pr1B 1_555 1_555
O2B Pr1 1_555 1_555
O3B Pr1B_2 1_555 1_555
O3B_2 Pr1B 1_555 1_555
O4B Pr1 1_555 1_555
O4_2 Pr1B 1_555 1_555
O5B Pr1B_3 1_555 1_555
O5B_2 Pr1B 1_555 1_555
O6B Pr1 1_555 1_555
O6_2 Pr1B 1_555 1_555
O7B Pr1B 1_555 1_555
H1B O7B 1_555 1_555
H2B O7B 1_555 1_555
O8B Pr1B 1_555 1_555
H3B O8B 1_555 1_555
H4B O8B 1_555 1_555
O9B Pr1B 1_555 1_555
H5B O9B 1_555 1_555
H6B O9B 1_555 1_555
C1B O1B 1_555 1_555
C2B C2 1_555 1_555
C3B C3 1_555 1_555
O2B C1B 1_555 1_555
O3B C2B 1_555 1_555
O4B C2B 1_555 1_555
O5B C3B 1_555 1_555
O6B C3B 1_555 1_555

#END
