
#######################################################################
#
#                 Cambridge Crystallographic Data Centre
#                                CCDC 
#
#######################################################################
#
# If this CIF has been generated from an entry in the Cambridge 
# Structural Database, then it will include bibliographic, chemical, 
# crystal, experimental, refinement or atomic coordinate data resulting 
# from the CCDC's data processing and validation procedures.
#
#######################################################################

data_WEMFUR
_symmetry_cell_setting           tetragonal
_symmetry_space_group_name_H-M   'I 41/a'
_symmetry_Int_Tables_number      88
_space_group_name_Hall           '-I 4ad'
loop_
_symmetry_equiv_pos_site_id
_symmetry_equiv_pos_as_xyz
1 x,y,z
2 1/2-x,-y,1/2+z
3 3/4-y,1/4+x,1/4+z
4 3/4+y,3/4-x,3/4+z
5 1/2+x,1/2+y,1/2+z
6 -x,1/2-y,z
7 1/4-y,3/4+x,3/4+z
8 1/4+y,1/4-x,1/4+z
9 -x,-y,-z
10 1/2+x,y,1/2-z
11 1/4+y,3/4-x,3/4-z
12 1/4-y,1/4+x,1/4-z
13 1/2-x,1/2-y,1/2-z
14 x,1/2+y,-z
15 3/4+y,1/4-x,1/4-z
16 3/4-y,3/4+x,3/4-z
_cell_length_a                   23.8931(2)
_cell_length_b                   23.8931(2)
_cell_length_c                   15.9482(3)
_cell_angle_alpha                90
_cell_angle_beta                 90
_cell_angle_gamma                90
_cell_volume                     9104.51
loop_
_atom_site_label
_atom_site_type_symbol
_atom_site_fract_x
_atom_site_fract_y
_atom_site_fract_z
Be1 Be 0.29976(13) 0.10607(13) 0.55869(19)
Be2 Be 0.27631(13) 0.41813(12) 0.49483(18)
Be3 Be 0.22234(13) 0.05556(12) 0.66415(19)
Be4 Be 0.34596(13) 0.09272(13) 0.39863(18)
O1 O 0.21581(7) 0.12102(7) 0.69545(10)
O2 O 0.26547(7) 0.16034(7) 0.59323(10)
O3 O 0.20258(7) 0.41527(7) 0.64224(10)
O4 O 0.25056(7) 0.36478(7) 0.54893(10)
O5 O 0.36628(7) 0.11024(8) 0.58259(10)
O6 O 0.40301(7) 0.09710(8) 0.45599(10)
O7 O 0.65961(7) 0.07324(8) 0.53415(10)
O8 O 0.60855(7) 0.09879(8) 0.42404(10)
O9 O 0.29237(7) 0.10640(7) 0.45753(10)
H1 H 0.2578 0.1143 0.4336
O10 O 0.27631(6) 0.05052(6) 0.60469(10)
H2 H 0.2938 0.0162 0.5968
O11 O 0.23834(7) 0.47062(7) 0.51317(10)
H3 H 0.2422 0.5020 0.4792
O12 O 0.28381(7) 0.40576(7) 0.39743(9)
H4 H 0.2519 0.3992 0.3656
C1 C 0.23097(10) 0.16250(10) 0.65334(14)
C2 C 0.22009(10) 0.36955(10) 0.61319(14)
C3 C 0.20601(10) 0.21773(10) 0.67477(14)
C4 C 0.22445(10) 0.26607(10) 0.63519(14)
H5 H 0.2521 0.2639 0.5943
C5 C 0.20182(10) 0.31746(10) 0.65633(14)
C6 C 0.16051(12) 0.32041(11) 0.71693(17)
H6 H 0.1454 0.3549 0.7316
C7 C 0.14162(14) 0.27235(12) 0.7557(2)
H7 H 0.1137 0.2745 0.7963
C8 C 0.16422(13) 0.22103(11) 0.73419(18)
H8 H 0.1512 0.1886 0.7599
C9 C 0.40729(10) 0.10348(10) 0.53376(14)
C10 C 0.61439(10) 0.08770(10) 0.50060(14)
C11 C 0.46420(10) 0.10202(11) 0.57139(15)
C12 C 0.51107(10) 0.09575(11) 0.52039(15)
H9 H 0.5068 0.0934 0.4625
C13 C 0.56403(10) 0.09294(11) 0.55524(15)
C14 C 0.57026(11) 0.09698(13) 0.64192(16)
H10 H 0.6057 0.0946 0.6657
C15 C 0.52427(12) 0.10446(15) 0.69223(16)
H11 H 0.5286 0.1082 0.7499
C16 C 0.47149(11) 0.10645(14) 0.65707(16)
H12 H 0.4404 0.1108 0.6916
Be2E Be 0.72369(13) 0.08187(12) 0.49483(18)
Be3K Be 0.19444(12) 0.47234(13) 0.58585(19)
Be4O Be 0.65728(13) 0.09596(13) 0.35137(18)
Be4J Be 0.34272(13) 0.40404(13) 0.35137(18)
O3N O 0.16527(7) 0.04742(7) 0.60776(10)
O7E O 0.34039(7) 0.42676(8) 0.53415(10)
O8J O 0.34879(8) 0.14145(7) 0.32596(10)
O11N O 0.22062(7) 0.01166(7) 0.73683(10)
H3N H 0.2520 0.0078 0.7708
O12O O 0.34424(7) 0.03381(7) 0.35257(9)
H4O H 0.3508 0.0019 0.3844
loop_
_geom_bond_atom_site_label_1
_geom_bond_atom_site_label_2
_geom_bond_site_symmetry_1
_geom_bond_site_symmetry_2
Be1 O2 1_555 1_555
Be2 O4 1_555 1_555
Be3 O1 1_555 1_555
Be4 O6 1_555 1_555
O1 C1 1_555 1_555
O2 C1 1_555 1_555
O3 C2 1_555 1_555
O4 C2 1_555 1_555
O5 Be1 1_555 1_555
O6 C9 1_555 1_555
O7 C10 1_555 1_555
O8 C10 1_555 1_555
O9 Be1 1_555 1_555
H1 O9 1_555 1_555
O10 Be1 1_555 1_555
H2 O10 1_555 1_555
O11 Be2 1_555 1_555
H3 O11 1_555 1_555
O12 Be2 1_555 1_555
H4 O12 1_555 1_555
C1 C3 1_555 1_555
C2 C5 1_555 1_555
C3 C4 1_555 1_555
C4 H5 1_555 1_555
C5 C4 1_555 1_555
C6 C5 1_555 1_555
H6 C6 1_555 1_555
C7 C6 1_555 1_555
H7 C7 1_555 1_555
C8 C3 1_555 1_555
H8 C8 1_555 1_555
C9 O5 1_555 1_555
C10 C13 1_555 1_555
C11 C9 1_555 1_555
C12 C11 1_555 1_555
H9 C12 1_555 1_555
C13 C12 1_555 1_555
C14 C13 1_555 1_555
H10 C14 1_555 1_555
C15 C14 1_555 1_555
H11 C15 1_555 1_555
C16 C11 1_555 1_555
H12 C16 1_555 1_555
Be2E O7 1_555 1_555
Be3K O3 1_555 1_555
Be4O O8 1_555 1_555
Be4J O12 1_555 1_555
O3N Be3 1_555 1_555
O7E Be2 1_555 1_555
O8J Be4 1_555 1_555
O11N Be3 1_555 1_555
H3N O11N 1_555 1_555
O12O Be4 1_555 1_555
H4O O12O 1_555 1_555
Be3 O10 1_555 1_555
Be4 O9 1_555 1_555
O11 Be3K 1_555 1_555
C7 C8 1_555 1_555
C15 C16 1_555 1_555

#END
