
#######################################################################
#
#                 Cambridge Crystallographic Data Centre
#                                CCDC 
#
#######################################################################
#
# If this CIF has been generated from an entry in the Cambridge 
# Structural Database, then it will include bibliographic, chemical, 
# crystal, experimental, refinement or atomic coordinate data resulting 
# from the CCDC's data processing and validation procedures.
#
#######################################################################

data_WEMFEA
_symmetry_cell_setting           monoclinic
_symmetry_space_group_name_H-M   'C 2/c'
_symmetry_Int_Tables_number      15
_space_group_name_Hall           '-C 2yn'
loop_
_symmetry_equiv_pos_site_id
_symmetry_equiv_pos_as_xyz
1 x,y,z
2 1/2+x,1/2+y,z
3 -x,y,1/2-z
4 1/2-x,1/2+y,1/2-z
5 -x,-y,-z
6 1/2-x,1/2-y,-z
7 x,-y,1/2+z
8 1/2+x,1/2-y,1/2+z
_cell_length_a                   28.4110(9)
_cell_length_b                   4.4718(2)
_cell_length_c                   15.3333(6)
_cell_angle_alpha                90
_cell_angle_beta                 116.852(2)
_cell_angle_gamma                90
_cell_volume                     1738.02
loop_
_atom_site_label
_atom_site_type_symbol
_atom_site_fract_x
_atom_site_fract_y
_atom_site_fract_z
Co1 Co 0.2500 0.2500 0.5000
N1 N 0.31698(10) 0.0499(6) 0.48413(19)
H1 H 0.3444 0.0374 0.5442
H2 H 0.3079 -0.1384 0.4623
O1 O 0.46451(12) 0.7636(7) 0.5361(2)
O3 O 0.45500(11) 0.8775(7) 0.38721(19)
H4 H 0.4807 0.9824 0.4199
O5 O 0.30396(9) 0.4453(5) 0.09713(16)
O6 O 0.26700(9) 0.0292(5) 0.12034(16)
C1 C 0.39435(13) 0.5380(8) 0.3999(2)
C2 C 0.36790(13) 0.4958(8) 0.2985(2)
H7 H 0.3784 0.5993 0.2576
C3 C 0.32601(13) 0.2983(8) 0.2601(2)
C4 C 0.30987(13) 0.1444(8) 0.3209(2)
H8 H 0.2821 0.0091 0.2943
C5 C 0.33537(13) 0.1931(8) 0.4220(2)
C6 C 0.37788(13) 0.3888(8) 0.4612(2)
H9 H 0.3954 0.4203 0.5283
C7 C 0.44075(15) 0.7397(8) 0.4430(3)
C8 C 0.29686(13) 0.2529(7) 0.1504(2)
Co1F Co 0.2500 0.7500 0.0000
Co1F_2 Co 0.2500 -0.2500 0.0000
Co1F_3 Co 0.2500 -0.2500 1.0000
Co1F_4 Co 0.2500 0.7500 1.0000
N1E N 0.18302(10) 0.4501(6) 0.51587(19)
H1E H 0.1556 0.4626 0.4558
H2E H 0.1921 0.6384 0.5377
O1E O 0.03549(12) -0.2636(7) 0.4639(2)
O3E O 0.04500(11) -0.3775(7) 0.61279(19)
H4E H 0.0193 -0.4824 0.5801
O5E O 0.19604(9) 0.0547(5) 0.90287(16)
O5F O 0.30396(9) 0.5547(5) 0.59713(16)
O5C O 0.19604(9) -0.0547(5) 0.40287(16)
O6E O 0.23300(9) 0.4708(5) 0.87966(16)
O6F O 0.26700(9) -0.0292(5) 0.62034(16)
O6C O 0.23300(9) 0.5292(5) 0.37966(16)
C1E C 0.10565(13) -0.0380(8) 0.6001(2)
C2E C 0.13210(13) 0.0042(8) 0.7015(2)
H7E H 0.1216 -0.0993 0.7424
C3E C 0.17399(13) 0.2017(8) 0.7399(2)
C4E C 0.19013(13) 0.3556(8) 0.6791(2)
H8E H 0.2179 0.4909 0.7057
C5E C 0.16463(13) 0.3069(8) 0.5780(2)
C6E C 0.12212(13) 0.1112(8) 0.5388(2)
H9E H 0.1046 0.0797 0.4717
C7E C 0.05925(15) -0.2397(8) 0.5570(3)
C8E C 0.20314(13) 0.2471(7) 0.8496(2)
O2 O 0.5000 0.498(4) 0.2500
H3 H 0.521(6) 0.64(2) 0.282(13)
H3B H 0.479(6) 0.64(2) 0.218(13)
O4 O 0.4207(2) 1.0045(15) 0.1772(4)
H5 H 0.432(3) 1.001(18) 0.2423(18)
H6 H 0.443(3) 1.146(14) 0.180(5)
loop_
_geom_bond_atom_site_label_1
_geom_bond_atom_site_label_2
_geom_bond_site_symmetry_1
_geom_bond_site_symmetry_2
Co1 N1 1_555 1_555
N1 H1 1_555 1_555
H2 N1 1_555 1_555
O1 C7 1_555 1_555
O2 H3 1_555 1_555
O3 H4 1_555 1_555
O4 H5 1_555 1_555
H6 O4 1_555 1_555
O5 C8 1_555 1_555
O6 C8 1_555 1_555
C1 C2 1_555 1_555
C2 H7 1_555 1_555
C3 C2 1_555 1_555
C4 C3 1_555 1_555
H8 C4 1_555 1_555
C5 N1 1_555 1_555
C6 C1 1_555 1_555
H9 C6 1_555 1_555
C7 O3 1_555 1_555
C8 C3 1_555 1_555
Co1F O5 1_555 1_555
Co1F_2 O6 1_555 1_555
Co1F_3 O5E 1_555 1_555
Co1F_4 O6E 1_555 1_555
N1E Co1 1_555 1_555
H1E N1E 1_555 1_555
H2E N1E 1_555 1_555
O1E C7E 1_555 1_555
H3B O2 1_555 1_555
O3E H4E 1_555 1_555
O5E C8E 1_555 1_555
O5F Co1 1_555 1_555
O5C Co1 1_555 1_555
O6E C8E 1_555 1_555
O6F Co1 1_555 1_555
O6C Co1 1_555 1_555
C1E C2E 1_555 1_555
C2E H7E 1_555 1_555
C3E C2E 1_555 1_555
C4E C3E 1_555 1_555
H8E C4E 1_555 1_555
C5E N1E 1_555 1_555
C6E C1E 1_555 1_555
H9E C6E 1_555 1_555
C7E O3E 1_555 1_555
C8E C3E 1_555 1_555
C1 C7 1_555 1_555
C4 C5 1_555 1_555
C5 C6 1_555 1_555
C1E C7E 1_555 1_555
C4E C5E 1_555 1_555
C5E C6E 1_555 1_555

#END
