
#######################################################################
#
#                 Cambridge Crystallographic Data Centre
#                                CCDC 
#
#######################################################################
#
# If this CIF has been generated from an entry in the Cambridge 
# Structural Database, then it will include bibliographic, chemical, 
# crystal, experimental, refinement or atomic coordinate data resulting 
# from the CCDC's data processing and validation procedures.
#
#######################################################################

data_WEMGAY
_symmetry_cell_setting           orthorhombic
_symmetry_space_group_name_H-M   'C c c m'
_symmetry_Int_Tables_number      66
_space_group_name_Hall           '-C 2 2n'
loop_
_symmetry_equiv_pos_site_id
_symmetry_equiv_pos_as_xyz
1 x,y,z
2 -x,-y,z
3 -x,y,1/2-z
4 x,-y,1/2-z
5 1/2+x,1/2+y,z
6 1/2-x,1/2-y,z
7 1/2-x,1/2+y,1/2-z
8 1/2+x,1/2-y,1/2-z
9 -x,-y,-z
10 x,y,-z
11 x,-y,1/2+z
12 -x,y,1/2+z
13 1/2-x,1/2-y,-z
14 1/2+x,1/2+y,-z
15 1/2+x,1/2-y,1/2+z
16 1/2-x,1/2+y,1/2+z
_cell_length_a                   10.3705(4)
_cell_length_b                   11.2422(6)
_cell_length_c                   18.4030(7)
_cell_angle_alpha                90
_cell_angle_beta                 90
_cell_angle_gamma                90
_cell_volume                     2145.55
loop_
_atom_site_label
_atom_site_type_symbol
_atom_site_fract_x
_atom_site_fract_y
_atom_site_fract_z
Be1 Be 0.2500 0.2500 0.3027(2)
Be2 Be 0.0000 0.2204(4) 0.2500
O1 O 0.19449(15) 0.14658(16) 0.35995(8)
O2 O -0.00958(15) 0.13258(15) 0.32197(8)
O3 O 0.12905(14) 0.29534(15) 0.25815(9)
H1 H 0.1338 0.3693 0.2357
C1 C 0.0861(3) 0.0938(3) 0.5000
H2 H 0.1448 0.1564 0.5000
C2 C 0.0430(2) 0.0479(2) 0.43402(12)
C3 C 0.0795(2) 0.1120(2) 0.36603(12)
Be1C Be 0.2500 -0.2500 0.1973(2)
Be1A Be -0.2500 -0.2500 0.3027(2)
Be1B Be -0.2500 0.2500 0.1973(2)
Be1H Be -0.2500 -0.2500 0.6973(2)
Be1I Be 0.2500 0.2500 0.6973(2)
Be2A Be 0.0000 -0.2204(4) 0.2500
Be2H Be 0.0000 -0.2204(4) 0.7500
Be2I Be 0.0000 0.2204(4) 0.7500
O1A O -0.19449(15) -0.14658(16) 0.35995(8)
O1H O -0.19449(15) -0.14658(16) 0.64005(8)
O1I O 0.19449(15) 0.14658(16) 0.64005(8)
O1E O 0.30551(15) 0.35342(16) 0.35995(8)
O1F O 0.30551(15) -0.35342(16) 0.14005(8)
O1C O 0.19449(15) -0.14658(16) 0.14005(8)
O2A O 0.00958(15) -0.13258(15) 0.32197(8)
O2H O 0.00958(15) -0.13258(15) 0.67803(8)
O2I O -0.00958(15) 0.13258(15) 0.67803(8)
O2B O 0.00958(15) 0.13258(15) 0.17803(8)
O2C O -0.00958(15) -0.13258(15) 0.17803(8)
O3A O -0.12905(14) -0.29534(15) 0.25815(9)
O3B O -0.12905(14) 0.29534(15) 0.24185(9)
O3C O 0.12905(14) -0.29534(15) 0.24185(9)
O3E O 0.37095(14) 0.20466(15) 0.25815(9)
O3F O 0.37095(14) -0.20466(15) 0.24185(9)
H1A H -0.1338 -0.3693 0.2357
H1B H -0.1338 0.3693 0.2643
H1C H 0.1338 -0.3693 0.2643
C1A C -0.0861(3) -0.0938(3) 0.5000
H2A H -0.1448 -0.1564 0.5000
C2A C -0.0430(2) -0.0479(2) 0.43402(12)
C2H C -0.0430(2) -0.0479(2) 0.56598(12)
C2I C 0.0430(2) 0.0479(2) 0.56598(12)
C3A C -0.0795(2) -0.1120(2) 0.36603(12)
C3H C -0.0795(2) -0.1120(2) 0.63397(12)
C3I C 0.0795(2) 0.1120(2) 0.63397(12)
loop_
_geom_bond_atom_site_label_1
_geom_bond_atom_site_label_2
_geom_bond_site_symmetry_1
_geom_bond_site_symmetry_2
Be1 O1 1_555 1_555
Be2 O2 1_555 1_555
O1 C3 1_555 1_555
O2 C3 1_555 1_555
O3 Be1 1_555 1_555
H1 O3 1_555 1_555
C1 H2 1_555 1_555
C2 C1 1_555 1_555
C3 C2 1_555 1_555
Be1C O1F 1_555 1_555
Be1A O1A 1_555 1_555
Be1B O3B 1_555 1_555
Be1H O1H 1_555 1_555
Be1I O1I 1_555 1_555
Be2A O2A 1_555 1_555
Be2H O2H 1_555 1_555
Be2I O2I 1_555 1_555
O1A C3A 1_555 1_555
O1H C3H 1_555 1_555
O1I C3I 1_555 1_555
O1E Be1 1_555 1_555
O1C Be1C 1_555 1_555
O2A C3A 1_555 1_555
O2H C3H 1_555 1_555
O2I C3I 1_555 1_555
O2B Be2 1_555 1_555
O2C Be2A 1_555 1_555
O3A Be1A 1_555 1_555
O3B Be2 1_555 1_555
O3C Be1C 1_555 1_555
O3E Be1 1_555 1_555
O3F Be1C 1_555 1_555
H1A O3A 1_555 1_555
H1B O3B 1_555 1_555
H1C O3C 1_555 1_555
C1A H2A 1_555 1_555
C2A C2 1_555 1_555
C2H C1A 1_555 1_555
C2I C1 1_555 1_555
C3A C2A 1_555 1_555
C3H C2H 1_555 1_555
C3I C2I 1_555 1_555
Be2 O3 1_555 1_555
Be2A O3A 1_555 1_555
Be2A O3C 1_555 1_555
C1A C2A 1_555 1_555
C2H C2I 1_555 1_555

#END
