
#######################################################################
#
#                 Cambridge Crystallographic Data Centre
#                                CCDC 
#
#######################################################################
#
# If this CIF has been generated from an entry in the Cambridge 
# Structural Database, then it will include bibliographic, chemical, 
# crystal, experimental, refinement or atomic coordinate data resulting 
# from the CCDC's data processing and validation procedures.
#
#######################################################################

data_WEMHIH
_symmetry_cell_setting           monoclinic
_symmetry_space_group_name_H-M   'P 21/c'
_symmetry_Int_Tables_number      14
_space_group_name_Hall           '-P 2ybc'
loop_
_symmetry_equiv_pos_site_id
_symmetry_equiv_pos_as_xyz
1 x,y,z
2 -x,1/2+y,1/2-z
3 -x,-y,-z
4 x,1/2-y,1/2+z
_cell_length_a                   18.577(7)
_cell_length_b                   11.671(3)
_cell_length_c                   18.655(5)
_cell_angle_alpha                90
_cell_angle_beta                 118.998(4)
_cell_angle_gamma                90
_cell_volume                     3537.58
loop_
_atom_site_label
_atom_site_type_symbol
_atom_site_fract_x
_atom_site_fract_y
_atom_site_fract_z
Zn1 Zn 0.83212(7) -0.00189(10) 0.45980(5)
Zn2 Zn 0.68632(7) 0.06772(10) 0.07931(6)
C1 C 0.8954(5) 0.0573(8) 0.6122(4)
C2 C 0.9521(5) 0.0763(7) 0.7017(4)
C3 C 0.9309(5) 0.1504(8) 0.7461(5)
H1 H 0.8812 0.1895 0.7193
C4 C 0.9802(6) 0.1684(9) 0.8278(5)
H2 H 0.9651 0.2198 0.8561
C5 C 1.0536(5) 0.1082(9) 0.8677(4)
H3 H 1.0877 0.1186 0.9237
C6 C 1.0767(5) 0.0323(7) 0.8249(4)
C7 C 1.0268(4) 0.0186(7) 0.7421(4)
H4 H 1.0430 -0.0296 0.7128
C8 C 1.1582(5) -0.0283(7) 0.8700(4)
C9 C 0.5830(5) -0.4525(7) 0.4327(5)
C10 C 0.5686(5) -0.3621(7) 0.3692(4)
C11 C 0.6286(5) -0.2800(7) 0.3872(4)
H5 H 0.6756 -0.2804 0.4384
C12 C 0.6200(5) -0.1974(7) 0.3307(4)
C13 C 0.5500(5) -0.1989(7) 0.2533(4)
H6 H 0.5440 -0.1460 0.2135
C14 C 0.4893(6) -0.2807(8) 0.2368(5)
H7 H 0.4411 -0.2799 0.1867
C15 C 0.4998(5) -0.3615(8) 0.2933(4)
H8 H 0.4598 -0.4175 0.2803
C16 C 0.6858(5) -0.1098(8) 0.3510(5)
C17 C 0.5941(5) 0.4538(8) 0.1820(5)
H9 H 0.5609 0.4646 0.1239
H10 H 0.5682 0.4901 0.2097
H11 H 0.6001 0.3733 0.1942
C18 C 0.6784(5) 0.5065(7) 0.2105(4)
C19 C 0.7384(6) 0.5020(7) 0.2930(4)
C20 C 0.8158(6) 0.5505(7) 0.3211(5)
C21 C 0.8304(5) 0.6139(7) 0.2655(4)
C22 C 0.7728(5) 0.6179(7) 0.1819(4)
C23 C 0.6984(5) 0.5577(7) 0.1555(4)
C24 C 0.7861(7) 0.6898(8) 0.1224(5)
H12 H 0.7400 0.6810 0.0684
H13 H 0.8354 0.6654 0.1224
H14 H 0.7913 0.7688 0.1384
C25 C 0.8805(6) 0.5357(9) 0.4091(5)
H15 H 0.9301 0.5740 0.4184
H16 H 0.8915 0.4556 0.4211
H17 H 0.8613 0.5681 0.4441
C26 C 0.7206(6) 0.4323(7) 0.3513(5)
H18 H 0.7446 0.4695 0.4044
H19 H 0.6616 0.4271 0.3302
C27 C 0.7865(5) 0.2453(8) 0.4225(5)
H20 H 0.7923 0.2612 0.4739
C28 C 0.7882(5) 0.1654(8) 0.3229(4)
H21 H 0.7967 0.1098 0.2920
C29 C 0.9132(6) 0.6732(8) 0.2970(5)
H22 H 0.9572 0.6175 0.3230
H23 H 0.9169 0.7075 0.2516
C30 C 0.8679(6) 0.8408(8) 0.3500(5)
H24 H 0.8171 0.8521 0.3036
C31 C 0.9726(5) 0.8547(8) 0.4665(5)
H25 H 1.0085 0.8809 0.5190
C32 C 0.6424(6) 0.5358(7) 0.0641(5)
H26 H 0.5887 0.5693 0.0471
H27 H 0.6655 0.5725 0.0331
C33 C 0.6810(6) 0.3239(9) 0.0839(5)
H28 H 0.7324 0.3290 0.1304
C34 C 0.5696(8) 0.2611(11) -0.0106(7)
H29 H 0.5283 0.2100 -0.0433
N1 N 0.8079(4) 0.1481(6) 0.4018(3)
N2 N 0.7556(4) 0.3167(5) 0.3597(4)
N3 N 0.7564(5) 0.2649(6) 0.2929(4)
N4 N 0.9223(5) 0.7631(6) 0.3571(4)
N5 N 0.9903(4) 0.7712(6) 0.4316(4)
N6 N 0.8963(4) 0.9005(6) 0.4187(4)
N7 N 0.6330(5) 0.4126(6) 0.0459(4)
N8 N 0.5602(7) 0.3741(9) -0.0152(6)
N9 N 0.6462(5) 0.2283(7) 0.0470(4)
O1 O 0.9185(3) -0.0139(5) 0.5758(3)
O2 O 0.8288(4) 0.1073(6) 0.5769(3)
O3 O 1.2004(3) -0.0387(5) 0.8334(3)
O4 O 1.1812(4) -0.0628(6) 0.9406(3)
O5 O 0.6542(3) -0.4561(5) 0.4927(3)
O6 O 0.5278(4) -0.5194(5) 0.4227(3)
O7 O 0.7340(4) -0.0952(5) 0.4281(3)
O8 O 0.6919(4) -0.0577(5) 0.2971(3)
O9 O 0.6305(4) 0.0131(9) 0.1409(4)
H30 H 0.5762(14) 0.015(12) 0.120(6)
H31 H 0.653(6) 0.004(11) 0.1949(16)
Zn1_2 Zn 0.83212(7) 0.99811(10) 0.45980(5)
Zn2B Zn 1.31368(7) -0.06772(10) 0.92069(6)
Zn2C Zn 0.68632(7) -0.56772(10) 0.57931(6)
N6_2 N 0.8963(4) -0.0995(6) 0.4187(4)
O3B O 0.7996(3) 0.0387(5) 0.1666(3)
O5C O 0.6542(3) -0.0439(5) -0.0073(3)
loop_
_geom_bond_atom_site_label_1
_geom_bond_atom_site_label_2
_geom_bond_site_symmetry_1
_geom_bond_site_symmetry_2
Zn1 N1 1_555 1_555
Zn2 N9 1_555 1_555
C1 C2 1_555 1_555
C2 C3 1_555 1_555
C3 H1 1_555 1_555
C4 C3 1_555 1_555
H2 C4 1_555 1_555
C5 C4 1_555 1_555
H3 C5 1_555 1_555
C6 C5 1_555 1_555
C7 C2 1_555 1_555
H4 C7 1_555 1_555
C8 C6 1_555 1_555
C9 C10 1_555 1_555
C10 C11 1_555 1_555
C11 H5 1_555 1_555
C12 C11 1_555 1_555
C13 C12 1_555 1_555
H6 C13 1_555 1_555
C14 C13 1_555 1_555
H7 C14 1_555 1_555
C15 C10 1_555 1_555
H8 C15 1_555 1_555
C16 C12 1_555 1_555
C17 H9 1_555 1_555
H10 C17 1_555 1_555
H11 C17 1_555 1_555
C18 C17 1_555 1_555
C19 C18 1_555 1_555
C20 C19 1_555 1_555
C21 C20 1_555 1_555
C22 C21 1_555 1_555
C23 C18 1_555 1_555
C24 C22 1_555 1_555
H12 C24 1_555 1_555
H13 C24 1_555 1_555
H14 C24 1_555 1_555
C25 C20 1_555 1_555
H15 C25 1_555 1_555
H16 C25 1_555 1_555
H17 C25 1_555 1_555
C26 C19 1_555 1_555
H18 C26 1_555 1_555
H19 C26 1_555 1_555
C27 H20 1_555 1_555
C28 H21 1_555 1_555
C29 C21 1_555 1_555
H22 C29 1_555 1_555
H23 C29 1_555 1_555
C30 H24 1_555 1_555
C31 H25 1_555 1_555
C32 C23 1_555 1_555
H26 C32 1_555 1_555
H27 C32 1_555 1_555
C33 H28 1_555 1_555
C34 H29 1_555 1_555
N1 C27 1_555 1_555
N2 C26 1_555 1_555
N3 C28 1_555 1_555
N4 C29 1_555 1_555
N5 C31 1_555 1_555
N6 C30 1_555 1_555
N7 C32 1_555 1_555
N8 C34 1_555 1_555
N9 C33 1_555 1_555
O1 Zn1 1_555 1_555
O2 C1 1_555 1_555
O3 C8 1_555 1_555
O4 C8 1_555 1_555
O5 C9 1_555 1_555
O6 C9 1_555 1_555
O7 Zn1 1_555 1_555
O8 C16 1_555 1_555
O9 Zn2 1_555 1_555
H30 O9 1_555 1_555
H31 O9 1_555 1_555
Zn1_2 N6 1_555 1_555
Zn2B O3 1_555 1_555
Zn2C O5 1_555 1_555
N6_2 Zn1 1_555 1_555
O3B Zn2 1_555 1_555
O5C Zn2 1_555 1_555
C1 O1 1_555 1_555
C6 C7 1_555 1_555
C14 C15 1_555 1_555
C16 O7 1_555 1_555
C22 C23 1_555 1_555
C27 N2 1_555 1_555
C28 N1 1_555 1_555
C30 N4 1_555 1_555
C31 N6 1_555 1_555
C33 N7 1_555 1_555
C34 N9 1_555 1_555
N2 N3 1_555 1_555
N4 N5 1_555 1_555
N7 N8 1_555 1_555

#END
