
#######################################################################
#
#                 Cambridge Crystallographic Data Centre
#                                CCDC 
#
#######################################################################
#
# If this CIF has been generated from an entry in the Cambridge 
# Structural Database, then it will include bibliographic, chemical, 
# crystal, experimental, refinement or atomic coordinate data resulting 
# from the CCDC's data processing and validation procedures.
#
#######################################################################

data_WEMHAZ
_symmetry_cell_setting           triclinic
_symmetry_space_group_name_H-M   'P -1'
_symmetry_Int_Tables_number      2
_space_group_name_Hall           '-P 1'
loop_
_symmetry_equiv_pos_site_id
_symmetry_equiv_pos_as_xyz
1 x,y,z
2 -x,-y,-z
_cell_length_a                   10.7033(16)
_cell_length_b                   11.880(4)
_cell_length_c                   12.457(6)
_cell_angle_alpha                115.528(6)
_cell_angle_beta                 106.801(5)
_cell_angle_gamma                91.358(4)
_cell_volume                     1348.02
loop_
_atom_site_label
_atom_site_type_symbol
_atom_site_fract_x
_atom_site_fract_y
_atom_site_fract_z
Zn1 Zn 0.31893(9) 0.45765(7) 0.60391(7)
C1 C 0.5602(8) 0.3762(7) 0.6393(7)
C2 C 0.7070(7) 0.3905(5) 0.7028(5)
C3 C 0.7461(7) 0.3636(5) 0.8051(6)
H1 H 0.6820 0.3387 0.8311
C4 C 0.8768(8) 0.3730(5) 0.8674(6)
H2 H 0.9012 0.3573 0.9369
C5 C 0.9701(7) 0.4051(5) 0.8282(6)
H3 H 1.0592 0.4093 0.8691
C6 C 0.9336(7) 0.4317(5) 0.7276(6)
H4 H 0.9989 0.4547 0.7017
C7 C 0.8024(7) 0.4250(5) 0.6641(5)
C8 C 0.7732(8) 0.4626(5) 0.5595(6)
C9 C 0.2182(8) 0.1695(6) 0.4830(6)
H5 H 0.3016 0.1465 0.4986
C10 C 0.0597(7) 0.2739(6) 0.4800(6)
H6 H 0.0126 0.3407 0.4955
C11 C 0.0861(7) -0.0482(6) 0.3437(6)
H7 H 0.0247 -0.0852 0.3685
H8 H 0.1697 -0.0768 0.3650
C12 C 0.0327(8) -0.0953(5) 0.2029(6)
C13 C 0.1233(7) -0.0899(5) 0.1428(6)
C14 C 0.0746(7) -0.1367(5) 0.0110(7)
C15 C -0.0592(7) -0.1916(5) -0.0600(6)
C16 C -0.1434(7) -0.2000(6) 0.0040(8)
C17 C -0.1006(8) -0.1480(6) 0.1354(8)
C18 C -0.1954(7) -0.1486(6) 0.2048(7)
H9 H -0.1484 -0.1092 0.2939
H10 H -0.2337 -0.2343 0.1775
H11 H -0.2645 -0.1026 0.1871
C19 C 0.2681(6) -0.0414(5) 0.2134(5)
H12 H 0.3133 -0.0464 0.1556
H13 H 0.3031 -0.0918 0.2542
H14 H 0.2806 0.0451 0.2756
C20 C -0.1073(6) -0.2396(5) -0.1984(6)
H15 H -0.2002 -0.2733 -0.2312
H16 H -0.0599 -0.3050 -0.2358
H17 H -0.0931 -0.1715 -0.2180
C21 C 0.1677(6) -0.1303(5) -0.0592(5)
H18 H 0.1212 -0.1091 -0.1256
H19 H 0.2423 -0.0626 -0.0012
C22 C 0.2163(6) -0.3158(6) -0.2309(5)
H20 H 0.1753 -0.2981 -0.2972
C23 C 0.3207(7) -0.3955(6) -0.1243(6)
H21 H 0.3700 -0.4499 -0.1014
C24 C -0.2823(10) -0.2771(8) -0.0759(8)
H22 H -0.3161 -0.3021 -0.0237
H23 H -0.2736 -0.3540 -0.1437
C25 C -0.4536(9) -0.2607(9) -0.2670(11)
H24 H -0.4374 -0.3279 -0.3329
C26 C -0.5287(12) -0.0974(15) -0.1506(19)
H25 H -0.5795 -0.0339 -0.1300
N1 N 0.1067(7) 0.0903(5) 0.4157(5)
N2 N 0.0036(6) 0.1542(6) 0.4110(5)
N3 N 0.1951(6) 0.2893(4) 0.5266(4)
N4 N 0.2179(5) -0.2477(4) -0.1150(5)
N5 N 0.2880(7) -0.2988(6) -0.0435(5)
N6 N 0.2786(5) -0.4113(4) -0.2429(5)
N7 N -0.3878(9) -0.2162(10) -0.1353(11)
N8 N -0.4313(12) -0.1124(10) -0.0586(11)
N9 N -0.5466(15) -0.1832(15) -0.2766(11)
O1 O 0.5014(4) 0.2821(4) 0.5372(4)
O2 O 0.5027(4) 0.4632(4) 0.6997(4)
O3 O 0.6619(5) 0.4938(4) 0.5267(4)
O4 O 0.8593(5) 0.4662(4) 0.5133(4)
Zn1_2 Zn 0.31893(9) -0.54235(7) -0.39609(7)
Zn1A Zn 0.68107(9) 0.54235(7) 0.39609(7)
N6_2 N 0.2786(5) 0.5887(4) 0.7571(5)
O3A O 0.3381(5) 0.5062(4) 0.4733(4)
O5 O 0.6210(9) 0.0589(8) 0.4577(8)
H26 H 0.570(6) 0.034(7) 0.486(7)
loop_
_geom_bond_atom_site_label_1
_geom_bond_atom_site_label_2
_geom_bond_site_symmetry_1
_geom_bond_site_symmetry_2
Zn1 N3 1_555 1_555
C1 C2 1_555 1_555
C2 C3 1_555 1_555
C3 H1 1_555 1_555
C4 C3 1_555 1_555
H2 C4 1_555 1_555
C5 C4 1_555 1_555
H3 C5 1_555 1_555
C6 C5 1_555 1_555
H4 C6 1_555 1_555
C7 C2 1_555 1_555
C8 C7 1_555 1_555
C9 H5 1_555 1_555
C10 H6 1_555 1_555
C11 H7 1_555 1_555
H8 C11 1_555 1_555
C12 C11 1_555 1_555
C13 C12 1_555 1_555
C14 C13 1_555 1_555
C15 C14 1_555 1_555
C16 C15 1_555 1_555
C17 C12 1_555 1_555
C18 C17 1_555 1_555
H9 C18 1_555 1_555
H10 C18 1_555 1_555
H11 C18 1_555 1_555
C19 C13 1_555 1_555
H12 C19 1_555 1_555
H13 C19 1_555 1_555
H14 C19 1_555 1_555
C20 C15 1_555 1_555
H15 C20 1_555 1_555
H16 C20 1_555 1_555
H17 C20 1_555 1_555
C21 C14 1_555 1_555
H18 C21 1_555 1_555
H19 C21 1_555 1_555
C22 H20 1_555 1_555
C23 H21 1_555 1_555
C24 C16 1_555 1_555
H22 C24 1_555 1_555
H23 C24 1_555 1_555
C25 H24 1_555 1_555
C26 H25 1_555 1_555
N1 C9 1_555 1_555
N2 C10 1_555 1_555
N3 C9 1_555 1_555
N4 C21 1_555 1_555
N5 C23 1_555 1_555
N6 C22 1_555 1_555
N7 C24 1_555 1_555
N8 C26 1_555 1_555
N9 C25 1_555 1_555
O1 C1 1_555 1_555
O2 Zn1 1_555 1_555
O3 C8 1_555 1_555
O4 C8 1_555 1_555
O5 H26 1_555 1_555
Zn1_2 N6 1_555 1_555
Zn1A O3 1_555 1_555
N6_2 Zn1 1_555 1_555
O3A Zn1 1_555 1_555
C1 O2 1_555 1_555
C6 C7 1_555 1_555
C10 N3 1_555 1_555
C11 N1 1_555 1_555
C16 C17 1_555 1_555
C22 N4 1_555 1_555
C23 N6 1_555 1_555
C25 N7 1_555 1_555
C26 N9 1_555 1_555
N1 N2 1_555 1_555
N4 N5 1_555 1_555
N7 N8 1_555 1_555

#END
