
#######################################################################
#
#                 Cambridge Crystallographic Data Centre
#                                CCDC 
#
#######################################################################
#
# If this CIF has been generated from an entry in the Cambridge 
# Structural Database, then it will include bibliographic, chemical, 
# crystal, experimental, refinement or atomic coordinate data resulting 
# from the CCDC's data processing and validation procedures.
#
#######################################################################

data_WEMJIJ
_symmetry_cell_setting           triclinic
_symmetry_space_group_name_H-M   'P -1'
_symmetry_Int_Tables_number      2
_space_group_name_Hall           '-P 1'
loop_
_symmetry_equiv_pos_site_id
_symmetry_equiv_pos_as_xyz
1 x,y,z
2 -x,-y,-z
_cell_length_a                   8.8798(6)
_cell_length_b                   9.2592(6)
_cell_length_c                   15.0913(10)
_cell_angle_alpha                104.7570(10)
_cell_angle_beta                 99.5260(10)
_cell_angle_gamma                90.5160(10)
_cell_volume                     1181.63
loop_
_atom_site_label
_atom_site_type_symbol
_atom_site_fract_x
_atom_site_fract_y
_atom_site_fract_z
Zn1 Zn 0.49320(3) 0.22647(3) 0.149737(19)
O2 O 0.3523(2) 0.3265(3) 0.07479(15)
N1 N 0.5743(2) 0.3720(2) 0.27950(15)
C1 C 0.5054(3) 0.4961(3) 0.31711(19)
H3 H 0.4214 0.5251 0.2813
N2 N 0.8737(2) 0.3534(2) 0.47156(14)
H4 H 0.9381 0.3079 0.4389
C2 C 0.6931(3) 0.3323(3) 0.33364(18)
H5 H 0.7414 0.2463 0.3087
O3 O 0.6490(2) 0.1618(2) 0.07199(13)
N3 N 1.0900(2) 0.1781(2) 0.52406(14)
O4 O 0.7727(2) 0.0715(2) 0.18492(13)
C3 C 0.5545(3) 0.5815(3) 0.4066(2)
H6 H 0.5046 0.6671 0.4299
N4 N 1.2379(2) 0.0322(2) 0.39055(15)
H7 H 1.1683 0.0953 0.3864
C4 C 0.6777(3) 0.5401(3) 0.46150(19)
H8 H 0.7125 0.5971 0.5220
O5 O 0.2000(2) 0.3254(2) 0.17631(15)
O6 O 0.8341(2) 0.4392(2) 0.62095(13)
C5 C 0.7483(3) 0.4110(3) 0.42404(17)
N5 N 1.4205(2) 0.0490(2) 0.19431(14)
O7 O 1.3520(2) -0.1078(2) 0.48402(14)
C6 C 0.9024(3) 0.3628(3) 0.56356(17)
C7 C 1.0271(3) 0.2656(3) 0.59162(17)
C8 C 1.0690(3) 0.2679(3) 0.68446(19)
H9 H 1.0243 0.3320 0.7298
C9 C 1.1787(3) 0.1730(4) 0.7084(2)
H10 H 1.2088 0.1718 0.7702
C10 C 1.2428(3) 0.0802(3) 0.63913(19)
H11 H 1.3157 0.0142 0.6532
C11 C 1.1967(3) 0.0873(3) 0.54841(17)
C12 C 1.2698(3) -0.0076(3) 0.47142(18)
C13 C 1.3085(3) -0.0206(3) 0.31233(18)
C14 C 1.3532(3) 0.0840(3) 0.26912(17)
H12 H 1.3352 0.1839 0.2936
C15 C 1.3324(3) -0.1697(3) 0.27463(19)
H13 H 1.3022 -0.2436 0.3007
C16 C 1.4025(3) -0.2056(3) 0.19705(19)
H14 H 1.4207 -0.3047 0.1707
C17 C 1.4453(3) -0.0953(3) 0.15880(18)
H15 H 1.4928 -0.1214 0.1069
C18 C 0.2259(3) 0.3557(3) 0.1059(2)
C19 C 0.1102(3) 0.4314(3) 0.05036(18)
C20 C 0.1383(3) 0.4673(3) -0.0292(2)
H16 H 0.2312 0.4459 -0.0491
C21 C 0.0280(3) 0.5352(3) -0.07966(19)
H17 H 0.0475 0.5583 -0.1333
C22 C 0.7604(3) 0.0953(3) 0.10732(18)
C23 C 0.8833(3) 0.0458(3) 0.05021(17)
C24 C 0.9877(3) -0.0541(3) 0.07604(17)
H18 H 0.9793 -0.0903 0.1272
C25 C 1.1029(3) -0.0993(3) 0.02614(17)
H19 H 1.1720 -0.1660 0.0437
Zn1A Zn -0.49320(3) 0.77353(3) -0.149737(19)
Zn1_2 Zn 1.49320(3) 0.22647(3) 0.149737(19)
Zn1A_2 Zn -1.49320(3) 0.77353(3) -0.149737(19)
Zn1A_3 Zn 1.50680(3) -0.22647(3) -0.149737(19)
O2A O -0.3523(2) 0.6735(3) -0.07479(15)
N1A N -0.5743(2) 0.6280(2) -0.27950(15)
C1A C -0.5054(3) 0.5039(3) -0.31711(19)
H3A H -0.4214 0.4749 -0.2813
N2A N -0.8737(2) 0.6466(2) -0.47156(14)
H4A H -0.9381 0.6921 -0.4389
C2A C -0.6931(3) 0.6677(3) -0.33364(18)
H5A H -0.7414 0.7537 -0.3087
O3A O 1.3510(2) -0.1618(2) -0.07199(13)
O3A_2 O -0.6490(2) 0.8382(2) -0.07199(13)
N3A N -1.0900(2) 0.8219(2) -0.52406(14)
O4A O 1.2273(2) -0.0715(2) -0.18492(13)
C3A C -0.5545(3) 0.4185(3) -0.4066(2)
H6A H -0.5046 0.3329 -0.4299
N4A N -1.2379(2) 0.9678(2) -0.39055(15)
H7A H -1.1683 0.9047 -0.3864
C4A C -0.6777(3) 0.4599(3) -0.46150(19)
H8A H -0.7125 0.4029 -0.5220
O5A O -0.2000(2) 0.6746(2) -0.17631(15)
O6A O -0.8341(2) 0.5608(2) -0.62095(13)
C5A C -0.7483(3) 0.5890(3) -0.42404(17)
N5A N -1.4205(2) 0.9510(2) -0.19431(14)
N5_2 N 0.4205(2) 0.0490(2) 0.19431(14)
N5A_2 N -0.4205(2) 0.9510(2) -0.19431(14)
O7A O -1.3520(2) 1.1078(2) -0.48402(14)
C6A C -0.9024(3) 0.6372(3) -0.56356(17)
C7A C -1.0271(3) 0.7344(3) -0.59162(17)
C8A C -1.0690(3) 0.7321(3) -0.68446(19)
H9A H -1.0243 0.6680 -0.7298
C9A C -1.1787(3) 0.8270(4) -0.7084(2)
H10A H -1.2088 0.8282 -0.7702
C10A C -1.2428(3) 0.9198(3) -0.63913(19)
H11A H -1.3157 0.9858 -0.6532
C11A C -1.1967(3) 0.9127(3) -0.54841(17)
C12A C -1.2698(3) 1.0076(3) -0.47142(18)
C13A C -1.3085(3) 1.0206(3) -0.31233(18)
C14A C -1.3532(3) 0.9160(3) -0.26912(17)
H12A H -1.3352 0.8161 -0.2936
C15A C -1.3324(3) 1.1697(3) -0.27463(19)
H13A H -1.3022 1.2436 -0.3007
C16A C -1.4025(3) 1.2056(3) -0.19705(19)
H14A H -1.4207 1.3047 -0.1707
C17A C -1.4453(3) 1.0953(3) -0.15880(18)
H15A H -1.4928 1.1214 -0.1069
C18A C -0.2259(3) 0.6443(3) -0.1059(2)
C19A C -0.1102(3) 0.5686(3) -0.05036(18)
C20A C -0.1383(3) 0.5327(3) 0.0292(2)
H16A H -0.2312 0.5541 0.0491
C21A C -0.0280(3) 0.4648(3) 0.07966(19)
H17A H -0.0475 0.4417 0.1333
C22A C 1.2396(3) -0.0953(3) -0.10732(18)
C23A C 1.1167(3) -0.0458(3) -0.05021(17)
C24A C 1.0123(3) 0.0541(3) -0.07604(17)
H18A H 1.0207 0.0903 -0.1272
C25A C 0.8971(3) 0.0993(3) -0.02614(17)
H19A H 0.8280 0.1660 -0.0437
O1 O 1.0370(2) 0.2312(2) 0.31042(14)
H1 H 1.0335 0.2281 0.2533
H2 H 1.0627 0.3206 0.3419
loop_
_geom_bond_atom_site_label_1
_geom_bond_atom_site_label_2
_geom_bond_site_symmetry_1
_geom_bond_site_symmetry_2
Zn1 O2 1_555 1_555
O1 H1 1_555 1_555
H2 O1 1_555 1_555
O2 C18 1_555 1_555
N1 Zn1 1_555 1_555
C1 N1 1_555 1_555
H3 C1 1_555 1_555
N2 H4 1_555 1_555
C2 N1 1_555 1_555
H5 C2 1_555 1_555
O3 Zn1 1_555 1_555
N3 C7 1_555 1_555
O4 C22 1_555 1_555
C3 C1 1_555 1_555
H6 C3 1_555 1_555
N4 H7 1_555 1_555
C4 C3 1_555 1_555
H8 C4 1_555 1_555
O5 C18 1_555 1_555
O6 C6 1_555 1_555
C5 N2 1_555 1_555
N5 C14 1_555 1_555
O7 C12 1_555 1_555
C6 N2 1_555 1_555
C7 C6 1_555 1_555
C8 C7 1_555 1_555
H9 C8 1_555 1_555
C9 C8 1_555 1_555
H10 C9 1_555 1_555
C10 C9 1_555 1_555
H11 C10 1_555 1_555
C11 N3 1_555 1_555
C12 N4 1_555 1_555
C13 N4 1_555 1_555
C14 C13 1_555 1_555
H12 C14 1_555 1_555
C15 C13 1_555 1_555
H13 C15 1_555 1_555
C16 C15 1_555 1_555
H14 C16 1_555 1_555
C17 N5 1_555 1_555
H15 C17 1_555 1_555
C18 C19 1_555 1_555
C19 C20 1_555 1_555
C20 H16 1_555 1_555
C21 C20 1_555 1_555
H17 C21 1_555 1_555
C22 O3 1_555 1_555
C23 C22 1_555 1_555
C24 C23 1_555 1_555
H18 C24 1_555 1_555
C25 C24 1_555 1_555
H19 C25 1_555 1_555
Zn1A O2A 1_555 1_555
Zn1_2 N5 1_555 1_555
Zn1A_2 N5A 1_555 1_555
Zn1A_3 O3A 1_555 1_555
O2A C18A 1_555 1_555
N1A Zn1A 1_555 1_555
C1A N1A 1_555 1_555
H3A C1A 1_555 1_555
N2A H4A 1_555 1_555
C2A N1A 1_555 1_555
H5A C2A 1_555 1_555
O3A C22A 1_555 1_555
O3A_2 Zn1A 1_555 1_555
N3A C7A 1_555 1_555
O4A C22A 1_555 1_555
C3A C1A 1_555 1_555
H6A C3A 1_555 1_555
N4A H7A 1_555 1_555
C4A C3A 1_555 1_555
H8A C4A 1_555 1_555
O5A C18A 1_555 1_555
O6A C6A 1_555 1_555
C5A N2A 1_555 1_555
N5A C14A 1_555 1_555
N5_2 Zn1 1_555 1_555
N5A_2 Zn1A 1_555 1_555
O7A C12A 1_555 1_555
C6A N2A 1_555 1_555
C7A C6A 1_555 1_555
C8A C7A 1_555 1_555
H9A C8A 1_555 1_555
C9A C8A 1_555 1_555
H10A C9A 1_555 1_555
C10A C9A 1_555 1_555
H11A C10A 1_555 1_555
C11A N3A 1_555 1_555
C12A N4A 1_555 1_555
C13A N4A 1_555 1_555
C14A C13A 1_555 1_555
H12A C14A 1_555 1_555
C15A C13A 1_555 1_555
H13A C15A 1_555 1_555
C16A C15A 1_555 1_555
H14A C16A 1_555 1_555
C17A N5A 1_555 1_555
H15A C17A 1_555 1_555
C18A C19A 1_555 1_555
C19A C21 1_555 1_555
C20A C19A 1_555 1_555
H16A C20A 1_555 1_555
C21A C19 1_555 1_555
H17A C21A 1_555 1_555
C22A C23A 1_555 1_555
C23A C25 1_555 1_555
C24A C23A 1_555 1_555
H18A C24A 1_555 1_555
C25A C23 1_555 1_555
H19A C25A 1_555 1_555
C2 C5 1_555 1_555
C4 C5 1_555 1_555
C10 C11 1_555 1_555
C11 C12 1_555 1_555
C16 C17 1_555 1_555
C2A C5A 1_555 1_555
C4A C5A 1_555 1_555
C10A C11A 1_555 1_555
C11A C12A 1_555 1_555
C16A C17A 1_555 1_555
C20A C21A 1_555 1_555
C24A C25A 1_555 1_555

#END
