
#######################################################################
#
#                 Cambridge Crystallographic Data Centre
#                                CCDC 
#
#######################################################################
#
# If this CIF has been generated from an entry in the Cambridge 
# Structural Database, then it will include bibliographic, chemical, 
# crystal, experimental, refinement or atomic coordinate data resulting 
# from the CCDC's data processing and validation procedures.
#
#######################################################################

data_WEMJUV
_symmetry_cell_setting           monoclinic
_symmetry_space_group_name_H-M   'P 21/n'
_symmetry_Int_Tables_number      14
_space_group_name_Hall           '-P 2yn'
loop_
_symmetry_equiv_pos_site_id
_symmetry_equiv_pos_as_xyz
1 x,y,z
2 1/2-x,1/2+y,1/2-z
3 -x,-y,-z
4 1/2+x,1/2-y,1/2+z
_cell_length_a                   11.9526(9)
_cell_length_b                   12.6037(9)
_cell_length_c                   16.3810(12)
_cell_angle_alpha                90
_cell_angle_beta                 102.0820(10)
_cell_angle_gamma                90
_cell_volume                     2413.09
loop_
_atom_site_label
_atom_site_type_symbol
_atom_site_fract_x
_atom_site_fract_y
_atom_site_fract_z
Zn1 Zn 0.29835(4) 0.16153(4) 0.31654(3)
N1 N 0.1923(3) 0.2275(3) 0.2139(2)
O1 O 0.1829(3) 0.0855(2) 0.35912(18)
C1 C 0.0778(3) 0.2154(3) 0.2009(2)
H1 H 0.0477 0.1713 0.2364
N2 N -0.1164(3) 0.2558(3) 0.1206(2)
H2 H -0.1528 0.2748 0.0718
O2 O 0.4137(2) 0.2629(2) 0.37399(19)
C2 C 0.2352(4) 0.2917(4) 0.1632(3)
H3 H 0.3139 0.3022 0.1730
O3 O 0.2825(3) 0.1058(3) 0.4872(2)
N3 N -0.4965(3) 0.2510(4) 0.1564(2)
C3 C 0.1663(4) 0.3429(4) 0.0967(3)
H4 H 0.1983 0.3853 0.0611
O4 O 0.2574(2) 0.3397(2) 0.39340(19)
N4 N -0.4605(3) 0.0964(3) -0.1060(2)
H5 H -0.3915 0.1200 -0.0939
C4 C 0.0497(4) 0.3303(4) 0.0838(3)
H6 H 0.0019 0.3646 0.0395
C5 C 0.0039(3) 0.2663(3) 0.1368(2)
N5 N -0.4219(3) -0.0667(3) -0.2817(2)
O5 O -0.1423(3) 0.1893(4) 0.2447(2)
C6 C -0.1810(4) 0.2189(4) 0.1738(3)
O6 O -0.6282(3) 0.0947(3) -0.0623(2)
C7 C -0.3065(3) 0.2170(4) 0.1367(3)
C8 C -0.3830(4) 0.2524(4) 0.1839(3)
H7 H -0.3538 0.2783 0.2372
C9 C -0.3500(4) 0.1752(3) 0.0585(3)
H8 H -0.3006 0.1507 0.0257
C10 C -0.5361(4) 0.2102(4) 0.0809(3)
H9 H -0.6150 0.2086 0.0615
C11 C -0.4681(3) 0.1698(3) 0.0289(3)
C12 C -0.5275(4) 0.1188(4) -0.0505(3)
C13 C -0.4915(4) 0.0392(3) -0.1809(3)
C14 C -0.6025(4) 0.0268(4) -0.2245(3)
H10 H -0.6632 0.0572 -0.2056
C15 C -0.4039(3) -0.0085(3) -0.2117(3)
H11 H -0.3291 0.0004 -0.1821
C16 C -0.6212(4) -0.0325(4) -0.2977(3)
H12 H -0.6951 -0.0414 -0.3289
C17 C -0.5309(4) -0.0775(4) -0.3235(3)
H13 H -0.5452 -0.1175 -0.3723
C18 C 0.1946(3) 0.0806(3) 0.4375(3)
C19 C 0.0932(3) 0.0393(3) 0.4696(2)
C20 C -0.0088(4) 0.0145(5) 0.4168(3)
H14 H -0.0164 0.0238 0.3596
C21 C 0.0999(4) 0.0239(5) 0.5527(3)
H15 H 0.1678 0.0397 0.5900
C22 C 0.3621(3) 0.3371(3) 0.4035(2)
C23 C 0.4337(3) 0.4217(3) 0.4528(2)
C24 C 0.5524(4) 0.4188(3) 0.4647(3)
H16 H 0.5877 0.3648 0.4407
C25 C 0.3821(4) 0.5037(3) 0.4880(3)
H17 H 0.3028 0.5065 0.4797
Zn1B Zn -0.29835(4) -0.16153(4) -0.31654(3)
Zn1B_2 Zn -0.29835(4) -0.16153(4) 0.68346(3)
Zn1B_3 Zn 0.70165(4) 0.83847(4) 0.68346(3)
N1B N -0.1923(3) -0.2275(3) -0.2139(2)
O1B O -0.1829(3) -0.0855(2) 0.64088(18)
O1B_2 O -0.1829(3) -0.0855(2) -0.35912(18)
C1B C -0.0778(3) -0.2154(3) -0.2009(2)
H1B H -0.0477 -0.1713 -0.2364
N2B N 0.1164(3) -0.2558(3) -0.1206(2)
H2B H 0.1528 -0.2748 -0.0718
O2B O 0.5863(2) 0.7371(2) 0.62601(19)
O2B_2 O -0.4137(2) -0.2629(2) -0.37399(19)
C2B C -0.2352(4) -0.2917(4) -0.1632(3)
H3B H -0.3139 -0.3022 -0.1730
O3B O -0.2825(3) -0.1058(3) 0.5128(2)
N3B N 0.4965(3) -0.2510(4) -0.1564(2)
C3B C -0.1663(4) -0.3429(4) -0.0967(3)
H4B H -0.1983 -0.3853 -0.0611
O4B O 0.7426(2) 0.6603(2) 0.60660(19)
N4B N 0.4605(3) -0.0964(3) 0.1060(2)
H5B H 0.3915 -0.1200 0.0939
C4B C -0.0497(4) -0.3303(4) -0.0838(3)
H6B H -0.0019 -0.3646 -0.0395
C5B C -0.0039(3) -0.2663(3) -0.1368(2)
N5B N 0.4219(3) 0.0667(3) 0.2817(2)
O5B O 0.1423(3) -0.1893(4) -0.2447(2)
C6B C 0.1810(4) -0.2189(4) -0.1738(3)
O6B O 0.6282(3) -0.0947(3) 0.0623(2)
C7B C 0.3065(3) -0.2170(4) -0.1367(3)
C8B C 0.3830(4) -0.2524(4) -0.1839(3)
H7B H 0.3538 -0.2783 -0.2372
C9B C 0.3500(4) -0.1752(3) -0.0585(3)
H8B H 0.3006 -0.1507 -0.0257
C10B C 0.5361(4) -0.2102(4) -0.0809(3)
H9B H 0.6150 -0.2086 -0.0615
C11B C 0.4681(3) -0.1698(3) -0.0289(3)
C12B C 0.5275(4) -0.1188(4) 0.0505(3)
C13B C 0.4915(4) -0.0392(3) 0.1809(3)
C14B C 0.6025(4) -0.0268(4) 0.2245(3)
H10B H 0.6632 -0.0572 0.2056
C15B C 0.4039(3) 0.0085(3) 0.2117(3)
H11B H 0.3291 -0.0004 0.1821
C16B C 0.6212(4) 0.0325(4) 0.2977(3)
H12B H 0.6951 0.0414 0.3289
C17B C 0.5309(4) 0.0775(4) 0.3235(3)
H13B H 0.5452 0.1175 0.3723
C18B C -0.1946(3) -0.0806(3) 0.5625(3)
C19B C -0.0932(3) -0.0393(3) 0.5304(2)
C20B C 0.0088(4) -0.0145(5) 0.5832(3)
H14B H 0.0164 -0.0238 0.6404
C21B C -0.0999(4) -0.0239(5) 0.4473(3)
H15B H -0.1678 -0.0397 0.4100
C22B C 0.6379(3) 0.6629(3) 0.5965(2)
C23B C 0.5663(3) 0.5783(3) 0.5472(2)
C24B C 0.4476(4) 0.5812(3) 0.5353(3)
H16B H 0.4123 0.6352 0.5593
C25B C 0.6179(4) 0.4963(3) 0.5120(3)
H17B H 0.6972 0.4935 0.5203
loop_
_geom_bond_atom_site_label_1
_geom_bond_atom_site_label_2
_geom_bond_site_symmetry_1
_geom_bond_site_symmetry_2
Zn1 N1 1_555 1_555
N1 C1 1_555 1_555
O1 Zn1 1_555 1_555
C1 H1 1_555 1_555
N2 H2 1_555 1_555
O2 Zn1 1_555 1_555
C2 N1 1_555 1_555
H3 C2 1_555 1_555
O3 C18 1_555 1_555
N3 C8 1_555 1_555
C3 C2 1_555 1_555
H4 C3 1_555 1_555
O4 C22 1_555 1_555
N4 H5 1_555 1_555
C4 C3 1_555 1_555
H6 C4 1_555 1_555
C5 C1 1_555 1_555
N5 C15 1_555 1_555
O5 C6 1_555 1_555
C6 N2 1_555 1_555
O6 C12 1_555 1_555
C7 C6 1_555 1_555
C8 C7 1_555 1_555
H7 C8 1_555 1_555
C9 C7 1_555 1_555
H8 C9 1_555 1_555
C10 N3 1_555 1_555
H9 C10 1_555 1_555
C11 C9 1_555 1_555
C12 N4 1_555 1_555
C13 N4 1_555 1_555
C14 C13 1_555 1_555
H10 C14 1_555 1_555
C15 C13 1_555 1_555
H11 C15 1_555 1_555
C16 C14 1_555 1_555
H12 C16 1_555 1_555
C17 N5 1_555 1_555
H13 C17 1_555 1_555
C18 O1 1_555 1_555
C19 C18 1_555 1_555
C20 C19 1_555 1_555
H14 C20 1_555 1_555
C21 C19 1_555 1_555
H15 C21 1_555 1_555
C22 O2 1_555 1_555
C23 C22 1_555 1_555
C24 C23 1_555 1_555
H16 C24 1_555 1_555
C25 C23 1_555 1_555
H17 C25 1_555 1_555
Zn1B N5 1_555 1_555
Zn1B_2 O1B 1_555 1_555
Zn1B_3 O2B 1_555 1_555
N1B Zn1B 1_555 1_555
O1B C18B 1_555 1_555
O1B_2 Zn1B 1_555 1_555
C1B N1B 1_555 1_555
H1B C1B 1_555 1_555
N2B H2B 1_555 1_555
O2B C22B 1_555 1_555
O2B_2 Zn1B 1_555 1_555
C2B N1B 1_555 1_555
H3B C2B 1_555 1_555
O3B C18B 1_555 1_555
N3B C8B 1_555 1_555
C3B C2B 1_555 1_555
H4B C3B 1_555 1_555
O4B C22B 1_555 1_555
N4B H5B 1_555 1_555
C4B C3B 1_555 1_555
H6B C4B 1_555 1_555
C5B C1B 1_555 1_555
N5B Zn1 1_555 1_555
O5B C6B 1_555 1_555
C6B N2B 1_555 1_555
O6B C12B 1_555 1_555
C7B C6B 1_555 1_555
C8B C7B 1_555 1_555
H7B C8B 1_555 1_555
C9B C7B 1_555 1_555
H8B C9B 1_555 1_555
C10B N3B 1_555 1_555
H9B C10B 1_555 1_555
C11B C9B 1_555 1_555
C12B N4B 1_555 1_555
C13B N4B 1_555 1_555
C14B C13B 1_555 1_555
H10B C14B 1_555 1_555
C15B N5B 1_555 1_555
H11B C15B 1_555 1_555
C16B C14B 1_555 1_555
H12B C16B 1_555 1_555
C17B N5B 1_555 1_555
H13B C17B 1_555 1_555
C18B C19B 1_555 1_555
C19B C20B 1_555 1_555
C20B C21 1_555 1_555
H14B C20B 1_555 1_555
C21B C20 1_555 1_555
H15B C21B 1_555 1_555
C22B C23B 1_555 1_555
C23B C24B 1_555 1_555
C24B C25 1_555 1_555
H16B C24B 1_555 1_555
C25B C24 1_555 1_555
H17B C25B 1_555 1_555
N2 C5 1_555 1_555
C4 C5 1_555 1_555
C10 C11 1_555 1_555
C11 C12 1_555 1_555
C16 C17 1_555 1_555
N2B C5B 1_555 1_555
C4B C5B 1_555 1_555
C10B C11B 1_555 1_555
C11B C12B 1_555 1_555
C13B C15B 1_555 1_555
C16B C17B 1_555 1_555
C19B C21B 1_555 1_555
C23B C25B 1_555 1_555

#END
