
#######################################################################
#
#                 Cambridge Crystallographic Data Centre
#                                CCDC 
#
#######################################################################
#
# If this CIF has been generated from an entry in the Cambridge 
# Structural Database, then it will include bibliographic, chemical, 
# crystal, experimental, refinement or atomic coordinate data resulting 
# from the CCDC's data processing and validation procedures.
#
#######################################################################

data_WEMJAB
_symmetry_cell_setting           triclinic
_symmetry_space_group_name_H-M   'P -1'
_symmetry_Int_Tables_number      2
_space_group_name_Hall           '-P 1'
loop_
_symmetry_equiv_pos_site_id
_symmetry_equiv_pos_as_xyz
1 x,y,z
2 -x,-y,-z
_cell_length_a                   9.6371(11)
_cell_length_b                   11.5022(14)
_cell_length_c                   13.0554(18)
_cell_angle_alpha                72.255(12)
_cell_angle_beta                 84.177(10)
_cell_angle_gamma                67.195(11)
_cell_volume                     1270.34
loop_
_atom_site_label
_atom_site_type_symbol
_atom_site_fract_x
_atom_site_fract_y
_atom_site_fract_z
Zn1 Zn 0.37952(6) 0.24721(6) 0.51442(5)
C1 C 0.3941(6) 0.4141(5) 0.2924(4)
H1 H 0.4847 0.3498 0.2818
C2 C 0.1996(6) 0.5232(6) 0.3612(5)
H2 H 0.1266 0.5476 0.4111
C3 C 0.3665(7) 0.5705(7) 0.1068(5)
H3 H 0.4647 0.5084 0.0954
H4 H 0.3761 0.6539 0.0980
C4 C 0.2577(6) 0.5894(5) 0.0222(4)
C5 C 0.1696(8) 0.7168(6) -0.0364(5)
C6 C 0.0809(8) 0.7362(6) -0.1242(5)
C7 C 0.0760(7) 0.6276(6) -0.1487(4)
C8 C 0.1610(6) 0.5011(6) -0.0868(4)
C9 C 0.2552(6) 0.4793(5) -0.0029(4)
C10 C 0.3543(8) 0.3420(6) 0.0578(5)
H5 H 0.2958 0.3024 0.1100
H6 H 0.4342 0.3453 0.0938
H7 H 0.3962 0.2906 0.0085
C11 C 0.1678(13) 0.8343(8) -0.0072(8)
H8 H 0.1714 0.8146 0.0696
H9 H 0.0773 0.9086 -0.0353
H10 H 0.2536 0.8547 -0.0373
C12 C -0.0173(9) 0.6472(8) -0.2416(5)
H11 H 0.0448 0.6402 -0.3035
H12 H -0.0965 0.7329 -0.2572
H13 H -0.0604 0.5811 -0.2240
C13 C -0.0029(11) 0.8746(8) -0.1953(7)
H14 H 0.0467 0.9319 -0.1907
H15 H -0.0002 0.8735 -0.2695
C14 C -0.3376(18) 0.9754(13) -0.0609(12)
H16 H -0.3918 0.9832 0.0014
C15 C -0.2827(17) 0.9838(15) -0.2233(12)
H17 H -0.2890 0.9979 -0.2970
C16 C 0.1560(7) 0.3833(6) -0.1131(5)
H18 H 0.1929 0.3057 -0.0517
H19 H 0.0527 0.3987 -0.1281
C17 C 0.4362(7) 0.3366(9) -0.3056(6)
H20 H 0.5298 0.3332 -0.3337
C18 C 0.2266(6) 0.3229(6) -0.2871(4)
H21 H 0.1412 0.3075 -0.2956
C19 C 0.6776(6) 0.1236(5) 0.4582(5)
C20 C 0.8442(5) 0.0540(5) 0.4846(4)
C21 C 0.9259(5) -0.0792(5) 0.4881(4)
C22 C 0.9208(5) 0.1277(5) 0.4990(4)
H22 H 0.8658 0.2140 0.5000
C23 C 0.8492(5) -0.1680(5) 0.4816(4)
N1 N 0.3221(5) 0.4087(4) 0.3842(3)
N2 N 0.3206(5) 0.5220(5) 0.2185(3)
N3 N 0.1948(6) 0.5962(5) 0.2606(4)
N4 N -0.4013(15) 1.0193(12) -0.1560(14)
N5 N -0.1910(12) 0.9194(9) -0.0610(8)
N6 N -0.1578(10) 0.9257(7) -0.1632(6)
N7 N 0.3390(4) 0.3101(4) -0.3532(3)
N8 N 0.3882(7) 0.3675(8) -0.2172(5)
N9 N 0.2495(5) 0.3603(5) -0.2076(4)
O1 O 0.5964(4) 0.1636(4) 0.5306(4)
O2 O 0.6313(5) 0.1486(5) 0.3661(4)
O3 O 0.7091(4) -0.1280(4) 0.4987(3)
O4 O 0.9233(4) -0.2746(4) 0.4642(4)
Zn1_2 Zn 0.37952(6) 0.24721(6) -0.48558(5)
Zn1A Zn 0.62048(6) -0.24721(6) 0.48558(5)
Zn1A_2 Zn 1.62048(6) -0.24721(6) 0.48558(5)
Zn1_3 Zn 1.37952(6) 0.24721(6) 0.51442(5)
Zn1A_3 Zn 0.62048(6) -0.24721(6) 1.48558(5)
C1A C 0.6059(6) -0.4141(5) 0.7076(4)
H1A H 0.5153 -0.3498 0.7182
C2A C 0.8004(6) -0.5232(6) 0.6388(5)
H2A H 0.8734 -0.5476 0.5889
C3A C 0.6335(7) -0.5705(7) 0.8932(5)
H3A H 0.5353 -0.5084 0.9046
H4A H 0.6239 -0.6539 0.9020
C4A C 0.7423(6) -0.5894(5) 0.9778(4)
C5A C 0.8304(8) -0.7168(6) 1.0364(5)
C6A C 0.9191(8) -0.7362(6) 1.1242(5)
C7A C 0.9240(7) -0.6276(6) 1.1487(4)
C8A C 0.8390(6) -0.5011(6) 1.0868(4)
C9A C 0.7448(6) -0.4793(5) 1.0029(4)
C10A C 0.6457(8) -0.3420(6) 0.9422(5)
H5A H 0.7042 -0.3024 0.8900
H6A H 0.5658 -0.3453 0.9062
H7A H 0.6038 -0.2906 0.9915
C11A C 0.8322(13) -0.8343(8) 1.0072(8)
H8A H 0.8286 -0.8146 0.9304
H9A H 0.9227 -0.9086 1.0353
H10A H 0.7464 -0.8547 1.0373
C12A C 1.0173(9) -0.6472(8) 1.2416(5)
H11A H 0.9552 -0.6402 1.3035
H12A H 1.0965 -0.7329 1.2572
H13A H 1.0604 -0.5811 1.2240
C13A C 1.0029(11) -0.8746(8) 1.1953(7)
H14A H 0.9533 -0.9319 1.1907
H15A H 1.0002 -0.8735 1.2695
C14A C 1.3376(18) -0.9754(13) 1.0609(12)
H16A H 1.3918 -0.9832 0.9986
C15A C 1.2827(17) -0.9838(15) 1.2233(12)
H17A H 1.2890 -0.9979 1.2970
C16A C 0.8440(7) -0.3833(6) 1.1131(5)
H18A H 0.8071 -0.3057 1.0517
H19A H 0.9473 -0.3987 1.1281
C17A C 0.5638(7) -0.3366(9) 1.3056(6)
H20A H 0.4702 -0.3332 1.3337
C18A C 0.7734(6) -0.3229(6) 1.2871(4)
H21A H 0.8588 -0.3075 1.2956
C19A C 1.3224(6) -0.1236(5) 0.5418(5)
C20A C 1.1558(5) -0.0540(5) 0.5154(4)
C21A C 1.0741(5) 0.0792(5) 0.5119(4)
C22A C 1.0792(5) -0.1277(5) 0.5010(4)
H22A H 1.1342 -0.2140 0.5000
C23A C 1.1508(5) 0.1680(5) 0.5184(4)
N1A N 0.6779(5) -0.4087(4) 0.6158(3)
N2A N 0.6794(5) -0.5220(5) 0.7815(3)
N3A N 0.8052(6) -0.5962(5) 0.7394(4)
N4A N 1.4013(15) -1.0193(12) 1.1560(14)
N5A N 1.1910(12) -0.9194(9) 1.0610(8)
N6A N 1.1578(10) -0.9257(7) 1.1632(6)
N7_2 N 0.3390(4) 0.3101(4) 0.6468(3)
N7A N 0.6610(4) -0.3101(4) 0.3532(3)
N7A_2 N 0.6610(4) -0.3101(4) 1.3532(3)
N8A N 0.6118(7) -0.3675(8) 1.2172(5)
N9A N 0.7505(5) -0.3603(5) 1.2076(4)
O1A O 1.4036(4) -0.1636(4) 0.4694(4)
O1A_2 O 0.4036(4) -0.1636(4) 0.4694(4)
O2A O 1.3687(5) -0.1486(5) 0.6339(4)
O3A O 1.2909(4) 0.1280(4) 0.5013(3)
O3A_2 O 0.2909(4) 0.1280(4) 0.5013(3)
O4A O 1.0767(4) 0.2746(4) 0.5358(4)
O5 O 0.6837(19) -0.0058(13) 0.2230(9)
H23 H 0.64(2) 0.05(2) 0.259(17)
H24? H 0.62(2) 0.00(3) 0.175(17)
loop_
_geom_bond_atom_site_label_1
_geom_bond_atom_site_label_2
_geom_bond_site_symmetry_1
_geom_bond_site_symmetry_2
Zn1 N1 1_555 1_555
C1 H1 1_555 1_555
C2 H2 1_555 1_555
C3 H3 1_555 1_555
H4 C3 1_555 1_555
C4 C3 1_555 1_555
C5 C4 1_555 1_555
C6 C5 1_555 1_555
C7 C6 1_555 1_555
C8 C7 1_555 1_555
C9 C4 1_555 1_555
C10 C9 1_555 1_555
H5 C10 1_555 1_555
H6 C10 1_555 1_555
H7 C10 1_555 1_555
C11 C5 1_555 1_555
H8 C11 1_555 1_555
H9 C11 1_555 1_555
H10 C11 1_555 1_555
C12 C7 1_555 1_555
H11 C12 1_555 1_555
H12 C12 1_555 1_555
H13 C12 1_555 1_555
C13 C6 1_555 1_555
H14 C13 1_555 1_555
H15 C13 1_555 1_555
C14 H16 1_555 1_555
C15 H17 1_555 1_555
C16 C8 1_555 1_555
H18 C16 1_555 1_555
H19 C16 1_555 1_555
C17 H20 1_555 1_555
C18 H21 1_555 1_555
C19 C20 1_555 1_555
C20 C21 1_555 1_555
C21 C23 1_555 1_555
C22 C20 1_555 1_555
H22 C22 1_555 1_555
C23 O3 1_555 1_555
N1 C1 1_555 1_555
N2 C1 1_555 1_555
N3 C2 1_555 1_555
N4 C14 1_555 1_555
N5 C14 1_555 1_555
N6 C13 1_555 1_555
N7 C17 1_555 1_555
N8 C17 1_555 1_555
N9 C16 1_555 1_555
O1 Zn1 1_555 1_555
O2 C19 1_555 1_555
O3 Zn1A 1_555 1_555
O4 C23 1_555 1_555
O5 H23 1_555 1_555
Zn1_2 N7 1_555 1_555
Zn1A N1A 1_555 1_555
Zn1A_2 O1A 1_555 1_555
Zn1_3 O3A 1_555 1_555
Zn1A_3 N7A_2 1_555 1_555
C1A H1A 1_555 1_555
C2A H2A 1_555 1_555
C3A H3A 1_555 1_555
H4A C3A 1_555 1_555
C4A C3A 1_555 1_555
C5A C4A 1_555 1_555
C6A C5A 1_555 1_555
C7A C6A 1_555 1_555
C8A C7A 1_555 1_555
C9A C4A 1_555 1_555
C10A C9A 1_555 1_555
H5A C10A 1_555 1_555
H6A C10A 1_555 1_555
H7A C10A 1_555 1_555
C11A C5A 1_555 1_555
H8A C11A 1_555 1_555
H9A C11A 1_555 1_555
H10A C11A 1_555 1_555
C12A C7A 1_555 1_555
H11A C12A 1_555 1_555
H12A C12A 1_555 1_555
H13A C12A 1_555 1_555
C13A C6A 1_555 1_555
H14A C13A 1_555 1_555
H15A C13A 1_555 1_555
C14A H16A 1_555 1_555
C15A H17A 1_555 1_555
C16A C8A 1_555 1_555
H18A C16A 1_555 1_555
H19A C16A 1_555 1_555
C17A H20A 1_555 1_555
C18A H21A 1_555 1_555
C19A C20A 1_555 1_555
C20A C21A 1_555 1_555
C21A C22 1_555 1_555
C22A C21 1_555 1_555
H22A C22A 1_555 1_555
C23A C21A 1_555 1_555
N1A C1A 1_555 1_555
N2A C1A 1_555 1_555
N3A C2A 1_555 1_555
N4A C14A 1_555 1_555
N5A C14A 1_555 1_555
N6A C13A 1_555 1_555
N7_2 Zn1 1_555 1_555
N7A Zn1A 1_555 1_555
N7A_2 C17A 1_555 1_555
N8A C17A 1_555 1_555
N9A C16A 1_555 1_555
O1A C19A 1_555 1_555
O1A_2 Zn1A 1_555 1_555
O2A C19A 1_555 1_555
O3A C23A 1_555 1_555
O3A_2 Zn1 1_555 1_555
O4A C23A 1_555 1_555
C2 N1 1_555 1_555
C3 N2 1_555 1_555
C8 C9 1_555 1_555
C15 N4 1_555 1_555
C15 N6 1_555 1_555
C18 N7 1_555 1_555
C18 N9 1_555 1_555
C19 O1 1_555 1_555
N2 N3 1_555 1_555
N5 N6 1_555 1_555
N8 N9 1_555 1_555
C2A N1A 1_555 1_555
C3A N2A 1_555 1_555
C8A C9A 1_555 1_555
C15A N4A 1_555 1_555
C15A N6A 1_555 1_555
C18A N7A_2 1_555 1_555
C18A N9A 1_555 1_555
C20A C22A 1_555 1_555
N2A N3A 1_555 1_555
N5A N6A 1_555 1_555
N8A N9A 1_555 1_555

#END
