
#######################################################################
#
#                 Cambridge Crystallographic Data Centre
#                                CCDC 
#
#######################################################################
#
# If this CIF has been generated from an entry in the Cambridge 
# Structural Database, then it will include bibliographic, chemical, 
# crystal, experimental, refinement or atomic coordinate data resulting 
# from the CCDC's data processing and validation procedures.
#
#######################################################################

data_WEMJOO
_symmetry_cell_setting           monoclinic
_symmetry_space_group_name_H-M   'P 21/c'
_symmetry_Int_Tables_number      14
_space_group_name_Hall           '-P 2ybc'
loop_
_symmetry_equiv_pos_site_id
_symmetry_equiv_pos_as_xyz
1 x,y,z
2 -x,1/2+y,1/2-z
3 -x,-y,-z
4 x,1/2-y,1/2+z
_cell_length_a                   11.4977(9)
_cell_length_b                   15.7562(14)
_cell_length_c                   8.7724(8)
_cell_angle_alpha                90
_cell_angle_beta                 101.991(7)
_cell_angle_gamma                90
_cell_volume                     1554.53
loop_
_atom_site_label
_atom_site_type_symbol
_atom_site_fract_x
_atom_site_fract_y
_atom_site_fract_z
Br1 Br 0.19583(5) 0.57076(4) 0.29886(7)
Sr1 Sr 0.38165(4) 0.24740(3) 0.21869(6)
O1 O 0.1552(3) 0.3033(2) 0.2100(5)
O2 O 0.2674(3) 0.2930(3) 0.4468(4)
O3 O -0.4988(3) 0.2808(3) -0.0073(5)
O4 O -0.3943(3) 0.3114(3) 0.2282(5)
N1 N -0.0389(3) 0.3576(3) 0.3116(6)
N2 N -0.1894(3) 0.3380(3) 0.1239(6)
C1 C 0.1719(4) 0.3098(3) 0.3538(7)
C2 C 0.0690(4) 0.3396(4) 0.4305(7)
H1 H 0.0516 0.2950 0.5020
H2 H 0.0936 0.3915 0.4926
C3 C -0.1131(4) 0.2989(4) 0.2367(7)
H3 H -0.1117 0.2399 0.2598
C4 C -0.0677(4) 0.4354(4) 0.2444(7)
H4 H -0.0286 0.4878 0.2744
C5 C -0.1636(4) 0.4228(4) 0.1259(7)
H5 H -0.2046 0.4648 0.0577
C6 C -0.2912(4) 0.2969(4) 0.0189(7)
H6 H -0.2701 0.2374 0.0004
H7 H -0.3070 0.3267 -0.0828
C7 C -0.4034(4) 0.2979(4) 0.0853(7)
O5 O 0.2696(4) 0.1152(3) 0.2839(7)
H8 H 0.279(6) 0.069(3) 0.217(8)
H9 H 0.195(4) 0.116(5) 0.316(8)
O6 O 0.5015(4) 0.1099(3) 0.1741(8)
H10 H 0.584(2) 0.092(4) 0.195(11)
H11 H 0.450(5) 0.065(4) 0.123(10)
O10 O 0.3615(8) 0.4134(5) 0.164(2)
Sr1C Sr 0.38165(4) 0.25260(3) 0.71869(6)
Sr1_2 Sr -0.61835(4) 0.24740(3) 0.21869(6)
Sr1C_2 Sr -0.61835(4) 0.25260(3) -0.28131(6)
O2C O 0.2674(3) 0.2070(3) -0.0532(4)
O3_2 O 0.5012(3) 0.2808(3) -0.0073(5)
O3C O 0.5012(3) 0.2192(3) 0.4927(5)
O4_2 O 0.6057(3) 0.3114(3) 0.2282(5)
O8 O 0.3496(4) 0.9732(3) 0.1443(6)
H14 H 0.293(5) 0.958(4) 0.047(5)
H15 H 0.377(6) 0.920(3) 0.199(7)
O9 O 0.0713(4) 0.3730(3) 0.9207(5)
H16 H -0.008(3) 0.395(4) 0.896(7)
H17 H 0.088(5) 0.346(4) 1.022(4)
O7? O 0.5000 0.5000 0.0000
H12? H 0.45(3) 0.47(2) 0.06(4)
H13? H 0.56(3) 0.54(2) 0.07(4)
O11? O 0.3956(16) 0.4083(9) 0.272(4)
loop_
_geom_bond_atom_site_label_1
_geom_bond_atom_site_label_2
_geom_bond_site_symmetry_1
_geom_bond_site_symmetry_2
Sr1 O1 1_555 1_555
O1 C1 1_555 1_555
O2 Sr1 1_555 1_555
O3 C7 1_555 1_555
O4 C7 1_555 1_555
N1 C2 1_555 1_555
N2 C3 1_555 1_555
C1 O2 1_555 1_555
C2 C1 1_555 1_555
H1 C2 1_555 1_555
H2 C2 1_555 1_555
C3 N1 1_555 1_555
H3 C3 1_555 1_555
C4 N1 1_555 1_555
H4 C4 1_555 1_555
C5 N2 1_555 1_555
H5 C5 1_555 1_555
C6 N2 1_555 1_555
H6 C6 1_555 1_555
H7 C6 1_555 1_555
C7 C6 1_555 1_555
O5 Sr1 1_555 1_555
H8 O5 1_555 1_555
H9 O5 1_555 1_555
O6 Sr1 1_555 1_555
H10 O6 1_555 1_555
H11 O6 1_555 1_555
O8 H14 1_555 1_555
H15 O8 1_555 1_555
O9 H16 1_555 1_555
H17 O9 1_555 1_555
O10 Sr1 1_555 1_555
Sr1C O2 1_555 1_555
Sr1_2 O3 1_555 1_555
Sr1C_2 O3 1_555 1_555
O2C Sr1 1_555 1_555
O3_2 Sr1 1_555 1_555
O3C Sr1 1_555 1_555
O4_2 Sr1 1_555 1_555
O4 Sr1_2 1_555 1_555
C4 C5 1_555 1_555
Sr1C O3C 1_555 1_555

#END
