
#######################################################################
#
#                 Cambridge Crystallographic Data Centre
#                                CCDC 
#
#######################################################################
#
# If this CIF has been generated from an entry in the Cambridge 
# Structural Database, then it will include bibliographic, chemical, 
# crystal, experimental, refinement or atomic coordinate data resulting 
# from the CCDC's data processing and validation procedures.
#
#######################################################################

data_WEMKUW
_symmetry_cell_setting           triclinic
_symmetry_space_group_name_H-M   'P -1'
_symmetry_Int_Tables_number      2
_space_group_name_Hall           '-P 1'
loop_
_symmetry_equiv_pos_site_id
_symmetry_equiv_pos_as_xyz
1 x,y,z
2 -x,-y,-z
_cell_length_a                   7.5069(5)
_cell_length_b                   12.8076(10)
_cell_length_c                   22.2479(17)
_cell_angle_alpha                93.887(4)
_cell_angle_beta                 94.965(4)
_cell_angle_gamma                92.390(4)
_cell_volume                     2123.67
loop_
_atom_site_label
_atom_site_type_symbol
_atom_site_fract_x
_atom_site_fract_y
_atom_site_fract_z
Cu1 Cu 0.40667(12) 0.70250(7) 0.78060(4)
Cu2 Cu -0.05366(12) 0.18514(7) 0.27758(4)
O1 O 0.0440(8) 0.1761(5) 0.1980(3)
H1 H 0.0383 0.2400 0.1902
H2 H 0.1333 0.1375 0.2002
O2 O 0.7633(8) 0.5848(4) 1.1889(3)
O3 O 0.5271(8) 0.6830(4) 0.7053(3)
H3 H 0.5371 0.7439 0.6925
H4 H 0.6143 0.6441 0.7001
O4 O 0.5921(8) 0.4983(5) 1.0972(3)
H5 H 0.5335 0.4432 1.0879
O5 O 0.5352(8) 0.4368(4) 1.2024(3)
O7 O 0.5052(7) 0.9873(4) 1.2687(2)
H8 H 0.4028 0.9613 1.2643
O9 O 0.3594(7) 1.0845(4) 1.1827(2)
O11 O 0.6474(6) 1.1557(4) 1.2430(2)
O13 O 0.5740(7) 0.6646(4) 0.9414(2)
O14 O 0.6114(8) 0.8537(5) 0.9225(3)
H15 H 0.6159 0.8707 0.8877
O15 O 0.3587(7) 0.7415(4) 0.8631(2)
O16 O -0.2111(8) 0.0086(4) 0.6226(3)
H16 H -0.1566 -0.0340 0.6030
O17 O -0.2130(7) 0.1197(4) 0.7164(2)
O18 O -0.0338(8) -0.0462(4) 0.7179(2)
O19 O -0.0272(7) 0.4946(4) 0.7565(2)
H17 H 0.0656 0.4723 0.7719
O20 O -0.1575(7) 0.5958(4) 0.6750(2)
O21 O 0.1216(7) 0.6701(4) 0.7385(2)
O22 O 0.0797(10) 0.1227(5) 0.4470(3)
O23 O 0.1697(8) 0.2999(6) 0.4183(3)
H18 H 0.1546 0.3299 0.3869
O24 O -0.1035(7) 0.2061(4) 0.3623(2)
P1 P 0.5873(3) 0.52817(18) 1.16668(10)
P2 P 0.5346(3) 1.05980(15) 1.21592(9)
P3 P 0.4735(3) 0.75742(18) 0.92272(9)
P4 P -0.0962(3) 0.04503(16) 0.68324(10)
P5 P 0.0185(3) 0.57281(16) 0.70855(9)
P6 P 0.0089(3) 0.22128(18) 0.42265(9)
C1 C 0.4402(12) 0.7134(6) 1.1368(4)
C2 C 0.5347(11) 0.8033(6) 1.1643(4)
H21 H 0.5779 0.8038 1.2048
C3 C 0.5658(11) 0.8908(6) 1.1335(3)
C4 C 0.4972(10) 0.8896(6) 1.0724(3)
H22 H 0.5138 0.9484 1.0508
C5 C 0.4040(11) 0.7995(6) 1.0441(3)
C6 C 0.3766(11) 0.7127(6) 1.0766(4)
H23 H 0.3147 0.6533 1.0577
C7 C 0.4089(12) 0.6167(7) 1.1722(4)
H24 H 0.2965 0.5807 1.1565
H25 H 0.4001 0.6387 1.2143
C8 C 0.6656(11) 0.9883(6) 1.1647(3)
H26 H 0.7005 1.0339 1.1343
H27 H 0.7740 0.9678 1.1870
C9 C 0.3272(11) 0.7963(7) 0.9781(3)
H28 H 0.2877 0.8656 0.9700
H29 H 0.2222 0.7488 0.9730
C10 C 0.0741(10) 0.2128(6) 0.6323(3)
C11 C 0.1264(10) 0.3120(6) 0.6587(3)
H30 H 0.1805 0.3181 0.6981
C12 C 0.1012(10) 0.4018(6) 0.6287(3)
C13 C 0.0207(10) 0.3912(6) 0.5694(3)
H31 H 0.0043 0.4508 0.5482
C14 C -0.0349(10) 0.2948(6) 0.5416(3)
C15 C -0.0083(10) 0.2062(6) 0.5732(3)
H32 H -0.0462 0.1408 0.5547
C16 C 0.1029(10) 0.1146(6) 0.6655(3)
H33 H 0.1766 0.1337 0.7029
H34 H 0.1696 0.0673 0.6410
C17 C 0.1639(10) 0.5092(6) 0.6589(3)
H35 H 0.1852 0.5555 0.6272
H36 H 0.2780 0.5019 0.6818
C18 C -0.1252(10) 0.2798(6) 0.4770(3)
H37 H -0.1591 0.3477 0.4641
H38 H -0.2342 0.2365 0.4774
Cu1A Cu -0.40667(12) -0.70250(7) 0.21940(4)
Cu1_2 Cu -0.59333(12) -1.29750(7) -0.21940(4)
Cu1_3 Cu -0.59333(12) -0.29750(7) -0.21940(4)
Cu1A_2 Cu 0.59333(12) 0.29750(7) 1.21940(4)
Cu1A_3 Cu 0.59333(12) 1.29750(7) 1.21940(4)
Cu2A Cu 0.05366(12) -0.18514(7) 0.72242(4)
Cu2_2 Cu -0.05366(12) -0.81486(7) 0.27758(4)
Cu2_3 Cu 0.94634(12) 1.18514(7) 1.27758(4)
Cu2A_2 Cu -0.94634(12) -1.18514(7) -0.27758(4)
Cu2A_3 Cu 0.05366(12) 0.81486(7) 0.72242(4)
O1A O -0.0440(8) -0.1761(5) 0.8020(3)
H1A H -0.0383 -0.2400 0.8098
H2A H -0.1333 -0.1375 0.7998
O2A O -0.7633(8) -0.5848(4) -0.1889(3)
O3A O -0.5271(8) -0.6830(4) 0.2947(3)
H3A H -0.5371 -0.7439 0.3075
H4A H -0.6143 -0.6441 0.2999
O4A O -0.5921(8) -0.4983(5) -0.0972(3)
H5A H -0.5335 -0.4432 -0.0879
O5A O -0.5352(8) -0.4368(4) -0.2024(3)
O5_2 O -0.4648(8) -0.5632(4) 0.2024(3)
O5A_2 O 0.4648(8) 0.5632(4) 0.7976(3)
O7A O -0.5052(7) -0.9873(4) -0.2687(2)
H8A H -0.4028 -0.9613 -0.2643
O9A O -0.3594(7) -1.0845(4) -0.1827(2)
O11A O -0.6474(6) -1.1557(4) -0.2430(2)
O11_2 O -0.3526(6) -0.8443(4) 0.2430(2)
O11_3 O -0.3526(6) 0.1557(4) 0.2430(2)
O11A_2 O 0.3526(6) -0.1557(4) 0.7570(2)
O11A_3 O 0.3526(6) 0.8443(4) 0.7570(2)
O13A O -0.5740(7) -0.6646(4) 0.0586(2)
O14A O -0.6114(8) -0.8537(5) 0.0775(3)
H15A H -0.6159 -0.8707 0.1123
O15A O -0.3587(7) -0.7415(4) 0.1369(2)
O16A O 0.2111(8) -0.0086(4) 0.3774(3)
H16A H 0.1566 0.0340 0.3970
O17A O 0.2130(7) -0.1197(4) 0.2836(2)
O18A O 0.0338(8) 0.0462(4) 0.2821(2)
O19A O 0.0272(7) -0.4946(4) 0.2435(2)
H17A H -0.0656 -0.4723 0.2281
O20A O 0.1575(7) -0.5958(4) 0.3250(2)
O21A O -0.1216(7) -0.6701(4) 0.2615(2)
O21_2 O 0.1216(7) -0.3299(4) 0.7385(2)
O21A_2 O -0.1216(7) 0.3299(4) 0.2615(2)
O22A O -0.0797(10) -0.1227(5) 0.5530(3)
O23A O -0.1697(8) -0.2999(6) 0.5817(3)
H18A H -0.1546 -0.3299 0.6131
O24A O 0.1035(7) -0.2061(4) 0.6377(2)
P1A P -0.5873(3) -0.52817(18) -0.16668(10)
P2A P -0.5346(3) -1.05980(15) -0.21592(9)
P3A P -0.4735(3) -0.75742(18) 0.07728(9)
P4A P 0.0962(3) -0.04503(16) 0.31676(10)
P5A P -0.0185(3) -0.57281(16) 0.29145(9)
P6A P -0.0089(3) -0.22128(18) 0.57735(9)
C1A C -0.4402(12) -0.7134(6) -0.1368(4)
C2A C -0.5347(11) -0.8033(6) -0.1643(4)
H21A H -0.5779 -0.8038 -0.2048
C3A C -0.5658(11) -0.8908(6) -0.1335(3)
C4A C -0.4972(10) -0.8896(6) -0.0724(3)
H22A H -0.5138 -0.9484 -0.0508
C5A C -0.4040(11) -0.7995(6) -0.0441(3)
C6A C -0.3766(11) -0.7127(6) -0.0766(4)
H23A H -0.3147 -0.6533 -0.0577
C7A C -0.4089(12) -0.6167(7) -0.1722(4)
H24A H -0.2965 -0.5807 -0.1565
H25A H -0.4001 -0.6387 -0.2143
C8A C -0.6656(11) -0.9883(6) -0.1647(3)
H26A H -0.7005 -1.0339 -0.1343
H27A H -0.7740 -0.9678 -0.1870
C9A C -0.3272(11) -0.7963(7) 0.0219(3)
H28A H -0.2877 -0.8656 0.0300
H29A H -0.2222 -0.7488 0.0270
C10A C -0.0741(10) -0.2128(6) 0.3677(3)
C11A C -0.1264(10) -0.3120(6) 0.3413(3)
H30A H -0.1805 -0.3181 0.3019
C12A C -0.1012(10) -0.4018(6) 0.3713(3)
C13A C -0.0207(10) -0.3912(6) 0.4306(3)
H31A H -0.0043 -0.4508 0.4518
C14A C 0.0349(10) -0.2948(6) 0.4584(3)
C15A C 0.0083(10) -0.2062(6) 0.4268(3)
H32A H 0.0462 -0.1408 0.4453
C16A C -0.1029(10) -0.1146(6) 0.3345(3)
H33A H -0.1766 -0.1337 0.2971
H34A H -0.1696 -0.0673 0.3590
C17A C -0.1639(10) -0.5092(6) 0.3411(3)
H35A H -0.1852 -0.5555 0.3728
H36A H -0.2780 -0.5019 0.3182
C18A C 0.1252(10) -0.2798(6) 0.5230(3)
H37A H 0.1591 -0.3477 0.5359
H38A H 0.2342 -0.2365 0.5226
O6 O 0.1238(13) 0.3437(7) 0.1328(4)
H6 H 0.0932 0.2944 0.1059
H7 H 0.0681 0.3933 0.1174
O8 O -0.4818(9) 0.1731(5) 0.3782(3)
H9 H -0.4232 0.1184 0.3729
H10 H -0.5843 0.1427 0.3690
O10 O 0.3128(17) 0.0026(8) 0.5255(5)
H11 H 0.2818 0.0317 0.5582
H12 H 0.4095 -0.0159 0.5437
O12 O -0.0671(13) 0.4609(8) 0.0510(5)
H13 H -0.1604 0.4917 0.0390
H14 H -0.0110 0.5163 0.0671
N1 N -0.3847(9) 0.2523(6) 0.6388(3)
H19 H -0.3397 0.2063 0.6683
C19 C -0.5321(11) 0.4520(6) 0.5018(4)
H39 H -0.6115 0.4242 0.4698
C20 C -0.4921(10) 0.3839(6) 0.5511(4)
C21 C -0.5323(11) 0.2769(7) 0.5429(4)
H40 H -0.5954 0.2487 0.5073
C22 C -0.4780(12) 0.2116(7) 0.5883(4)
H41 H -0.5069 0.1400 0.5832
C23 C -0.3509(11) 0.3548(7) 0.6492(4)
H42 H -0.2897 0.3810 0.6856
C24 C -0.4050(11) 0.4222(7) 0.6070(4)
H43 H -0.3840 0.4940 0.6155
N1A N -0.6153(9) 0.7477(6) 0.3612(3)
H19A H -0.6603 0.7937 0.3317
C19A C -0.4679(11) 0.5480(6) 0.4982(4)
H39A H -0.3885 0.5758 0.5302
C20A C -0.5079(10) 0.6161(6) 0.4489(4)
C21A C -0.4677(11) 0.7231(7) 0.4571(4)
H40A H -0.4046 0.7513 0.4927
C22A C -0.5220(12) 0.7884(7) 0.4117(4)
H41A H -0.4931 0.8600 0.4168
C23A C -0.6491(11) 0.6452(7) 0.3508(4)
H42A H -0.7103 0.6190 0.3144
C24A C -0.5950(11) 0.5778(7) 0.3930(4)
H43A H -0.6160 0.5060 0.3845
N2 N 0.9163(10) 0.7251(6) 1.1213(3)
H20 H 0.8855 0.6657 1.1431
C25 C 1.0315(12) 0.9904(8) 1.0277(4)
H44 H 1.1056 1.0425 1.0493
C26 C 0.9960(10) 0.8954(6) 1.0582(4)
C27 C 0.9007(11) 0.8066(7) 1.0311(4)
H45 H 0.8677 0.8032 0.9897
C28 C 0.8545(11) 0.7253(7) 1.0628(4)
H46 H 0.7808 0.6699 1.0444
C29 C 1.0171(12) 0.8046(7) 1.1509(4)
H47 H 1.0579 0.8009 1.1913
C30 C 1.0612(11) 0.8945(7) 1.1202(4)
H48 H 1.1300 0.9508 1.1399
N2A N 1.0837(10) 1.2749(6) 0.8787(3)
H20A H 1.1145 1.3343 0.8569
C25A C 0.9685(12) 1.0096(8) 0.9723(4)
H44A H 0.8944 0.9575 0.9507
C26A C 1.0040(10) 1.1046(6) 0.9418(4)
C27A C 1.0993(11) 1.1934(7) 0.9689(4)
H45A H 1.1323 1.1968 1.0103
C28A C 1.1455(11) 1.2747(7) 0.9372(4)
H46A H 1.2192 1.3301 0.9556
C29A C 0.9829(12) 1.1954(7) 0.8491(4)
H47A H 0.9421 1.1991 0.8087
C30A C 0.9388(11) 1.1055(7) 0.8798(4)
H48A H 0.8700 1.0492 0.8601
loop_
_geom_bond_atom_site_label_1
_geom_bond_atom_site_label_2
_geom_bond_site_symmetry_1
_geom_bond_site_symmetry_2
Cu1 O3 1_555 1_555
Cu2 O1 1_555 1_555
O1 H1 1_555 1_555
H2 O1 1_555 1_555
O2 P1 1_555 1_555
O3 H3 1_555 1_555
H4 O3 1_555 1_555
O4 H5 1_555 1_555
O5 P1 1_555 1_555
O6 H6 1_555 1_555
H7 O6 1_555 1_555
O7 H8 1_555 1_555
O8 H9 1_555 1_555
H10 O8 1_555 1_555
O9 P2 1_555 1_555
O10 H11 1_555 1_555
H12 O10 1_555 1_555
O11 P2 1_555 1_555
O12 H13 1_555 1_555
H14 O12 1_555 1_555
O13 P3 1_555 1_555
O14 H15 1_555 1_555
O15 Cu1 1_555 1_555
O16 H16 1_555 1_555
O17 P4 1_555 1_555
O18 P4 1_555 1_555
O19 H17 1_555 1_555
O20 P5 1_555 1_555
O21 Cu1 1_555 1_555
O22 P6 1_555 1_555
O23 H18 1_555 1_555
O24 Cu2 1_555 1_555
N1 H19 1_555 1_555
N2 H20 1_555 1_555
P1 O4 1_555 1_555
P2 O7 1_555 1_555
P3 O14 1_555 1_555
P4 O16 1_555 1_555
P5 O19 1_555 1_555
P6 O23 1_555 1_555
C1 C2 1_555 1_555
C2 H21 1_555 1_555
C3 C2 1_555 1_555
C4 C3 1_555 1_555
H22 C4 1_555 1_555
C5 C4 1_555 1_555
C6 C1 1_555 1_555
H23 C6 1_555 1_555
C7 P1 1_555 1_555
H24 C7 1_555 1_555
H25 C7 1_555 1_555
C8 P2 1_555 1_555
H26 C8 1_555 1_555
H27 C8 1_555 1_555
C9 P3 1_555 1_555
H28 C9 1_555 1_555
H29 C9 1_555 1_555
C10 C11 1_555 1_555
C11 H30 1_555 1_555
C12 C11 1_555 1_555
C13 C12 1_555 1_555
H31 C13 1_555 1_555
C14 C13 1_555 1_555
C15 C10 1_555 1_555
H32 C15 1_555 1_555
C16 P4 1_555 1_555
H33 C16 1_555 1_555
H34 C16 1_555 1_555
C17 P5 1_555 1_555
H35 C17 1_555 1_555
H36 C17 1_555 1_555
C18 P6 1_555 1_555
H37 C18 1_555 1_555
H38 C18 1_555 1_555
C19 H39 1_555 1_555
C20 C19 1_555 1_555
C21 C20 1_555 1_555
H40 C21 1_555 1_555
C22 N1 1_555 1_555
H41 C22 1_555 1_555
C23 N1 1_555 1_555
H42 C23 1_555 1_555
C24 C20 1_555 1_555
H43 C24 1_555 1_555
C25 H44 1_555 1_555
C26 C25 1_555 1_555
C27 C26 1_555 1_555
H45 C27 1_555 1_555
C28 N2 1_555 1_555
H46 C28 1_555 1_555
C29 N2 1_555 1_555
H47 C29 1_555 1_555
C30 C26 1_555 1_555
H48 C30 1_555 1_555
Cu1A O3A 1_555 1_555
Cu1_2 O11A 1_555 1_555
Cu1_3 O5A 1_555 1_555
Cu1A_2 O5 1_555 1_555
Cu1A_3 O11 1_555 1_555
Cu2A O18 1_555 1_555
Cu2_2 O11_2 1_555 1_555
Cu2_3 O11 1_555 1_555
Cu2A_2 O11A 1_555 1_555
Cu2A_3 O21 1_555 1_555
O1A Cu2A 1_555 1_555
H1A O1A 1_555 1_555
H2A O1A 1_555 1_555
O2A P1A 1_555 1_555
O3A H3A 1_555 1_555
H4A O3A 1_555 1_555
O4A H5A 1_555 1_555
O5A P1A 1_555 1_555
O5_2 Cu1A 1_555 1_555
O5A_2 Cu1 1_555 1_555
O7A H8A 1_555 1_555
O9A P2A 1_555 1_555
O11A P2A 1_555 1_555
O11_2 Cu1A 1_555 1_555
O11_3 Cu2 1_555 1_555
O11A_2 Cu2A 1_555 1_555
O11A_3 Cu1 1_555 1_555
O13A P3A 1_555 1_555
O14A H15A 1_555 1_555
O15A Cu1A 1_555 1_555
O16A H16A 1_555 1_555
O17A P4A 1_555 1_555
O18A Cu2 1_555 1_555
O19A H17A 1_555 1_555
O20A P5A 1_555 1_555
O21A Cu1A 1_555 1_555
O21_2 Cu2A 1_555 1_555
O21A_2 Cu2 1_555 1_555
O22A P6A 1_555 1_555
O23A H18A 1_555 1_555
O24A Cu2A 1_555 1_555
N1A H19A 1_555 1_555
N2A H20A 1_555 1_555
P1A O4A 1_555 1_555
P2A O7A 1_555 1_555
P3A O14A 1_555 1_555
P4A O16A 1_555 1_555
P5A O19A 1_555 1_555
P6A O23A 1_555 1_555
C1A C2A 1_555 1_555
C2A H21A 1_555 1_555
C3A C2A 1_555 1_555
C4A C3A 1_555 1_555
H22A C4A 1_555 1_555
C5A C4A 1_555 1_555
C6A C1A 1_555 1_555
H23A C6A 1_555 1_555
C7A P1A 1_555 1_555
H24A C7A 1_555 1_555
H25A C7A 1_555 1_555
C8A P2A 1_555 1_555
H26A C8A 1_555 1_555
H27A C8A 1_555 1_555
C9A P3A 1_555 1_555
H28A C9A 1_555 1_555
H29A C9A 1_555 1_555
C10A C11A 1_555 1_555
C11A H30A 1_555 1_555
C12A C11A 1_555 1_555
C13A C12A 1_555 1_555
H31A C13A 1_555 1_555
C14A C13A 1_555 1_555
C15A C10A 1_555 1_555
H32A C15A 1_555 1_555
C16A P4A 1_555 1_555
H33A C16A 1_555 1_555
H34A C16A 1_555 1_555
C17A P5A 1_555 1_555
H35A C17A 1_555 1_555
H36A C17A 1_555 1_555
C18A P6A 1_555 1_555
H37A C18A 1_555 1_555
H38A C18A 1_555 1_555
C19A C19 1_555 1_555
H39A C19A 1_555 1_555
C20A C19A 1_555 1_555
C21A C20A 1_555 1_555
H40A C21A 1_555 1_555
C22A N1A 1_555 1_555
H41A C22A 1_555 1_555
C23A N1A 1_555 1_555
H42A C23A 1_555 1_555
C24A C20A 1_555 1_555
H43A C24A 1_555 1_555
C25A C25 1_555 1_555
H44A C25A 1_555 1_555
C26A C25A 1_555 1_555
C27A C26A 1_555 1_555
H45A C27A 1_555 1_555
C28A N2A 1_555 1_555
H46A C28A 1_555 1_555
C29A N2A 1_555 1_555
H47A C29A 1_555 1_555
C30A C26A 1_555 1_555
H48A C30A 1_555 1_555
O15 P3 1_555 1_555
O21 P5 1_555 1_555
O24 P6 1_555 1_555
C1 C7 1_555 1_555
C3 C8 1_555 1_555
C5 C6 1_555 1_555
C5 C9 1_555 1_555
C10 C16 1_555 1_555
C12 C17 1_555 1_555
C14 C15 1_555 1_555
C14 C18 1_555 1_555
C21 C22 1_555 1_555
C23 C24 1_555 1_555
C27 C28 1_555 1_555
C29 C30 1_555 1_555
Cu2_2 O21A 1_555 1_555
Cu2A_3 O11A_3 1_555 1_555
O15A P3A 1_555 1_555
O18A P4A 1_555 1_555
O21A P5A 1_555 1_555
O24A P6A 1_555 1_555
C1A C7A 1_555 1_555
C3A C8A 1_555 1_555
C5A C6A 1_555 1_555
C5A C9A 1_555 1_555
C10A C16A 1_555 1_555
C12A C17A 1_555 1_555
C14A C15A 1_555 1_555
C14A C18A 1_555 1_555
C21A C22A 1_555 1_555
C23A C24A 1_555 1_555
C27A C28A 1_555 1_555
C29A C30A 1_555 1_555

#END
