
#######################################################################
#
#                 Cambridge Crystallographic Data Centre
#                                CCDC 
#
#######################################################################
#
# If this CIF has been generated from an entry in the Cambridge 
# Structural Database, then it will include bibliographic, chemical, 
# crystal, experimental, refinement or atomic coordinate data resulting 
# from the CCDC's data processing and validation procedures.
#
#######################################################################

data_WEMKAB
_symmetry_cell_setting           triclinic
_symmetry_space_group_name_H-M   'P -1'
_symmetry_Int_Tables_number      2
_space_group_name_Hall           '-P 1'
loop_
_symmetry_equiv_pos_site_id
_symmetry_equiv_pos_as_xyz
1 x,y,z
2 -x,-y,-z
_cell_length_a                   11.8185(7)
_cell_length_b                   12.3124(7)
_cell_length_c                   13.1178(5)
_cell_angle_alpha                105.826(5)
_cell_angle_beta                 103.715(5)
_cell_angle_gamma                95.216(5)
_cell_volume                     1759.22
loop_
_atom_site_label
_atom_site_type_symbol
_atom_site_fract_x
_atom_site_fract_y
_atom_site_fract_z
Br1 Br 0.23306(8) 0.33003(7) 1.13316(7)
Br2 Br 0.66340(8) 0.26389(8) 0.28394(8)
O12 O 0.3132(7) 0.3066(7) 0.6882(7)
O13 O 0.7047(8) 0.2887(7) 0.5561(7)
O14 O 0.3976(10) 0.2966(11) 0.3474(10)
O15 O 0.484(4) 0.374(6) 0.523(3)
O16 O 0.494(2) 0.448(2) 0.321(2)
O17 O 0.4565(8) 0.7443(9) 0.2972(9)
Ba1 Ba 0.0000 0.0000 1.0000
Ba2 Ba 0.02305(3) -0.30582(3) 0.09542(3)
Ba3 Ba -0.05583(3) -0.02671(3) 0.65636(3)
O1 O -0.0328(5) -0.1480(4) 0.4584(4)
O2 O 0.0292(5) -0.2064(4) 0.3085(4)
O3 O -0.0058(4) -0.1603(3) 0.7905(4)
O4 O 0.0680(4) -0.2154(4) 0.9382(4)
N1 N -0.0548(6) -0.3684(5) 0.4786(5)
N2 N -0.0222(5) -0.3714(4) 0.6472(5)
C1 C -0.0111(7) -0.2229(5) 0.3848(6)
C2 C -0.0309(8) -0.3486(6) 0.3809(6)
H1 H -0.0982 -0.3903 0.3164
H2 H 0.0400 -0.3816 0.3693
C3 C 0.0280(7) -0.3441(6) 0.5745(6)
H3 H 0.1086 -0.3129 0.5884
C4 C -0.1607(7) -0.4120(6) 0.4915(7)
H4 H -0.2341 -0.4364 0.4364
C5 C -0.1406(7) -0.4133(6) 0.5954(6)
H5 H -0.1975 -0.4385 0.6281
C6 C 0.0389(7) -0.3502(5) 0.7634(6)
H6 H 0.1229 -0.3573 0.7705
H7 H 0.0038 -0.4093 0.7903
C7 C 0.0316(6) -0.2322(5) 0.8354(6)
O5 O 0.0907(4) 0.1151(3) 0.8699(4)
O6 O 0.2267(4) 0.0322(4) 0.9563(4)
O7 O 0.8423(3) 0.0523(4) 0.8240(3)
O8 O 0.7331(4) 0.1927(4) 0.8326(4)
N3 N 0.4044(4) 0.1370(4) 0.8954(5)
N4 N 0.5593(4) 0.0613(4) 0.8741(5)
C8 C 0.1958(5) 0.0968(5) 0.9015(5)
C9 C 0.2869(5) 0.1684(5) 0.8695(6)
H8 H 0.2598 0.1580 0.7895
H9 H 0.2918 0.2503 0.9090
C10 C 0.4521(5) 0.0748(5) 0.8208(6)
H10 H 0.4163 0.0453 0.7437
C11 C 0.4824(5) 0.1627(5) 0.9984(6)
H11 H 0.4700 0.2055 1.0659
C12 C 0.5786(5) 0.1165(5) 0.9866(5)
H12 H 0.6469 0.1204 1.0437
C13 C 0.6428(5) 0.0051(5) 0.8236(6)
H13 H 0.6024 -0.0393 0.7461
H14 H 0.6730 -0.0493 0.8626
C14 C 0.7473(5) 0.0915(5) 0.8269(5)
O9 O -0.2038(4) -0.4072(4) 0.1327(4)
O10 O -0.1129(4) -0.5270(4) 0.0347(4)
N5 N -0.4217(5) -0.5382(5) 0.0037(6)
C15 C -0.2021(5) -0.4972(5) 0.0632(6)
C16 C -0.3155(6) -0.5823(7) 0.0069(10)
H15 H -0.3157 -0.6418 0.0446
H16 H -0.3148 -0.6205 -0.0698
C17 C -0.4969(13) -0.5097(13) 0.0431(16)
C19 C -0.4546(16) -0.5156(17) -0.1089(14)
O11 O 0.1766(4) -0.0613(5) 0.6697(5)
O18 O 0.1576(4) -0.4170(4) 0.2286(4)
O19 O -0.2570(10) -0.1828(9) 0.6490(10)
O21 O -0.2367(8) 0.0648(8) 0.5326(8)
Ba1_2 Ba 1.0000 0.0000 1.0000
Ba1_3 Ba -1.0000 0.0000 1.0000
Ba2A Ba -0.02305(3) 0.30582(3) 1.90458(3)
Ba2_2 Ba 0.02305(3) -0.30582(3) 1.09542(3)
Ba2A_2 Ba -0.02305(3) 0.30582(3) 0.90458(3)
Ba2A_3 Ba 0.97695(3) 0.30582(3) 0.90458(3)
Ba2A_4 Ba -0.02305(3) -0.69418(3) -0.09542(3)
Ba2_3 Ba -0.97695(3) -0.30582(3) 0.09542(3)
Ba2A_5 Ba -1.02305(3) -0.69418(3) -0.09542(3)
Ba2_4 Ba -0.97695(3) -0.30582(3) 1.09542(3)
Ba3A Ba 0.05583(3) 0.02671(3) 1.34364(3)
Ba3A_2 Ba 0.05583(3) 0.02671(3) 0.34364(3)
Ba3_2 Ba 0.94417(3) -0.02671(3) 0.65636(3)
Ba3_3 Ba -0.05583(3) -0.02671(3) 1.65636(3)
Ba3A_3 Ba -0.94417(3) 0.02671(3) 1.34364(3)
O1A O 0.0328(5) 0.1480(4) 1.5416(4)
O2A O -0.0292(5) 0.2064(4) 1.6915(4)
O2A_2 O -0.0292(5) 0.2064(4) 0.6915(4)
O2_2 O 0.0292(5) -0.2064(4) 1.3085(4)
O3A O 0.0058(4) 0.1603(3) 1.2095(4)
O4A O -0.0680(4) 0.2154(4) 1.0618(4)
O4_2 O 0.0680(4) -0.2154(4) -0.0618(4)
O4A_2 O -0.0680(4) 0.2154(4) 2.0618(4)
N1A N 0.0548(6) 0.3684(5) 1.5214(5)
N2A N 0.0222(5) 0.3714(4) 1.3528(5)
C1A C 0.0111(7) 0.2229(5) 1.6152(6)
C2A C 0.0309(8) 0.3486(6) 1.6191(6)
H1A H 0.0982 0.3903 1.6836
H2A H -0.0400 0.3816 1.6307
C3A C -0.0280(7) 0.3441(6) 1.4255(6)
H3A H -0.1086 0.3129 1.4116
C4A C 0.1607(7) 0.4120(6) 1.5085(7)
H4A H 0.2341 0.4364 1.5636
C5A C 0.1406(7) 0.4133(6) 1.4046(6)
H5A H 0.1975 0.4385 1.3719
C6A C -0.0389(7) 0.3502(5) 1.2366(6)
H6A H -0.1229 0.3573 1.2295
H7A H -0.0038 0.4093 1.2097
C7A C -0.0316(6) 0.2322(5) 1.1646(6)
O5A O -0.0907(4) -0.1151(3) 1.1301(4)
O5A_2 O -0.0907(4) -0.1151(3) 0.1301(4)
O5_2 O 0.0907(4) 0.1151(3) 1.8699(4)
O6A O -0.2267(4) -0.0322(4) 1.0437(4)
O7A O -0.8423(3) -0.0523(4) 1.1760(3)
O7_2 O -0.1577(3) 0.0523(4) 0.8240(3)
O7A_2 O 0.1577(3) -0.0523(4) 1.1760(3)
O8A O -0.7331(4) -0.1927(4) 1.1674(4)
O8A_2 O 0.2669(4) -0.1927(4) 0.1674(4)
O8_2 O -0.2669(4) 0.1927(4) 1.8326(4)
N3A N -0.4044(4) -0.1370(4) 1.1046(5)
N4A N -0.5593(4) -0.0613(4) 1.1259(5)
C8A C -0.1958(5) -0.0968(5) 1.0985(5)
C9A C -0.2869(5) -0.1684(5) 1.1305(6)
H8A H -0.2598 -0.1580 1.2105
H9A H -0.2918 -0.2503 1.0910
C10A C -0.4521(5) -0.0748(5) 1.1792(6)
H10A H -0.4163 -0.0453 1.2563
C11A C -0.4824(5) -0.1627(5) 1.0016(6)
H11A H -0.4700 -0.2055 0.9341
C12A C -0.5786(5) -0.1165(5) 1.0134(5)
H12A H -0.6469 -0.1204 0.9563
C13A C -0.6428(5) -0.0051(5) 1.1764(6)
H13A H -0.6024 0.0393 1.2539
H14A H -0.6730 0.0493 1.1374
C14A C -0.7473(5) -0.0915(5) 1.1731(5)
O9A O -0.7962(4) -0.5928(4) -0.1327(4)
O10A O -0.8871(4) -0.4730(4) -0.0347(4)
O10A_2 O 0.1129(4) -0.4730(4) -0.0347(4)
O10_2 O -0.1129(4) 0.4730(4) 2.0347(4)
O10A_3 O 0.1129(4) 0.5270(4) 1.9653(4)
N5A N -0.5783(5) -0.4618(5) -0.0037(6)
C15A C -0.7979(5) -0.5028(5) -0.0632(6)
C16A C -0.6845(6) -0.4177(7) -0.0069(10)
H15A H -0.6843 -0.3582 -0.0446
H16A H -0.6852 -0.3795 0.0698
C17A C -0.5031(13) -0.4903(13) -0.0431(16)
C19A C -0.5454(16) -0.4844(17) 0.1089(14)
O11A O -0.1766(4) 0.0613(5) 1.3303(5)
O18A O -0.1576(4) 0.4170(4) 1.7714(4)
O19A O 0.2570(10) 0.1828(9) 1.3510(10)
O21A O 0.2367(8) -0.0648(8) 1.4674(8)
Br3? Br -0.3167(2) -0.0060(3) 0.4817(3)
Br4? Br -0.5000 0.0000 0.5000
C18? C 0.4502(15) 0.5306(15) 0.8883(19)
O20? O -0.2588(9) -0.1748(9) 0.5530(14)
O22? O -0.2391(11) -0.0648(16) 0.4622(11)
loop_
_geom_bond_atom_site_label_1
_geom_bond_atom_site_label_2
_geom_bond_site_symmetry_1
_geom_bond_site_symmetry_2
Ba1 O3 1_555 1_555
Ba2 O2 1_555 1_555
Ba3 O1 1_555 1_555
O1 C1 1_555 1_555
O2 C1 1_555 1_555
O3 Ba3 1_555 1_555
O4 Ba1 1_555 1_555
N1 C2 1_555 1_555
N2 C3 1_555 1_555
C1 C2 1_555 1_555
C2 H1 1_555 1_555
H2 C2 1_555 1_555
C3 N1 1_555 1_555
H3 C3 1_555 1_555
C4 N1 1_555 1_555
H4 C4 1_555 1_555
C5 N2 1_555 1_555
H5 C5 1_555 1_555
C6 N2 1_555 1_555
H6 C6 1_555 1_555
H7 C6 1_555 1_555
C7 O3 1_555 1_555
O5 Ba1 1_555 1_555
O6 Ba1 1_555 1_555
O7 C14 1_555 1_555
O8 C14 1_555 1_555
N3 C9 1_555 1_555
N4 C10 1_555 1_555
C8 O5 1_555 1_555
C9 C8 1_555 1_555
H8 C9 1_555 1_555
H9 C9 1_555 1_555
C10 N3 1_555 1_555
H10 C10 1_555 1_555
C11 N3 1_555 1_555
H11 C11 1_555 1_555
C12 N4 1_555 1_555
H12 C12 1_555 1_555
C13 N4 1_555 1_555
H13 C13 1_555 1_555
H14 C13 1_555 1_555
C14 C13 1_555 1_555
O9 C15 1_555 1_555
O10 Ba2 1_555 1_555
N5 C16 1_555 1_555
C15 O10 1_555 1_555
C16 C15 1_555 1_555
H15 C16 1_555 1_555
H16 C16 1_555 1_555
C17 N5 1_555 1_555
C19 N5 1_555 1_555
O11 Ba3 1_555 1_555
O18 Ba2 1_555 1_555
O19 Ba3 1_555 1_555
O21 Ba3 1_555 1_555
Ba1_2 O7 1_555 1_555
Ba1_3 O7A 1_555 1_555
Ba2A O2A 1_555 1_555
Ba2_2 O4 1_555 1_555
Ba2A_2 O5 1_555 1_555
Ba2A_3 O8 1_555 1_555
Ba2A_4 O10 1_555 1_555
Ba2_3 O10A 1_555 1_555
Ba2A_5 O10A 1_555 1_555
Ba2_4 O8A 1_555 1_555
Ba3A O1A 1_555 1_555
Ba3A_2 O2 1_555 1_555
Ba3_2 O7 1_555 1_555
Ba3_3 O2A 1_555 1_555
Ba3A_3 O7A 1_555 1_555
O1A C1A 1_555 1_555
O2A C1A 1_555 1_555
O2A_2 Ba3 1_555 1_555
O2_2 Ba2_2 1_555 1_555
O3A Ba1 1_555 1_555
O4A Ba1 1_555 1_555
O4_2 Ba2 1_555 1_555
O4A_2 Ba2A 1_555 1_555
N1A C2A 1_555 1_555
N2A C3A 1_555 1_555
C1A C2A 1_555 1_555
C2A H1A 1_555 1_555
H2A C2A 1_555 1_555
C3A N1A 1_555 1_555
H3A C3A 1_555 1_555
C4A N1A 1_555 1_555
H4A C4A 1_555 1_555
C5A N2A 1_555 1_555
H5A C5A 1_555 1_555
C6A N2A 1_555 1_555
H6A C6A 1_555 1_555
H7A C6A 1_555 1_555
C7A O3A 1_555 1_555
O5A Ba1 1_555 1_555
O5A_2 Ba2 1_555 1_555
O5_2 Ba2A 1_555 1_555
O6A Ba1 1_555 1_555
O7A C14A 1_555 1_555
O7_2 Ba1 1_555 1_555
O7A_2 Ba1 1_555 1_555
O8A C14A 1_555 1_555
O8A_2 Ba2 1_555 1_555
O8_2 Ba2A 1_555 1_555
N3A C9A 1_555 1_555
N4A C10A 1_555 1_555
C8A O5A 1_555 1_555
C9A C8A 1_555 1_555
H8A C9A 1_555 1_555
H9A C9A 1_555 1_555
C10A N3A 1_555 1_555
H10A C10A 1_555 1_555
C11A N3A 1_555 1_555
H11A C11A 1_555 1_555
C12A N4A 1_555 1_555
H12A C12A 1_555 1_555
C13A N4A 1_555 1_555
H13A C13A 1_555 1_555
H14A C13A 1_555 1_555
C14A C13A 1_555 1_555
O9A C15A 1_555 1_555
O10A C15A 1_555 1_555
O10A_2 Ba2 1_555 1_555
O10_2 Ba2A 1_555 1_555
O10A_3 Ba2A 1_555 1_555
N5A C17 1_555 1_555
C15A C16A 1_555 1_555
C16A N5A 1_555 1_555
H15A C16A 1_555 1_555
H16A C16A 1_555 1_555
C17A N5 1_555 1_555
C19A C17 1_555 1_555
O11A Ba3A 1_555 1_555
O18A Ba2A 1_555 1_555
O19A Ba3A 1_555 1_555
O21A Ba3A 1_555 1_555
Ba3 O5 1_555 1_555
Ba3 O7_2 1_555 1_555
O4 C7 1_555 1_555
C4 C5 1_555 1_555
C6 C7 1_555 1_555
O6 C8 1_555 1_555
C11 C12 1_555 1_555
C17 C17A 1_555 1_555
C19 C17A 1_555 1_555
Ba2_2 O5A 1_555 1_555
Ba2A_2 O2A_2 1_555 1_555
Ba2A_2 O4A 1_555 1_555
Ba2A_4 O10A_2 1_555 1_555
Ba3A O2_2 1_555 1_555
Ba3A O3A 1_555 1_555
Ba3A O5A 1_555 1_555
Ba3A O7A_2 1_555 1_555
Ba3A_2 O5A_2 1_555 1_555
Ba3_3 O5_2 1_555 1_555
O4A C7A 1_555 1_555
C4A C5A 1_555 1_555
C6A C7A 1_555 1_555
O6A C8A 1_555 1_555
C11A C12A 1_555 1_555
N5A C17A 1_555 1_555
N5A C19A 1_555 1_555

#END
