
#######################################################################
#
#                 Cambridge Crystallographic Data Centre
#                                CCDC 
#
#######################################################################
#
# If this CIF has been generated from an entry in the Cambridge 
# Structural Database, then it will include bibliographic, chemical, 
# crystal, experimental, refinement or atomic coordinate data resulting 
# from the CCDC's data processing and validation procedures.
#
#######################################################################

data_WEMKAC
_symmetry_cell_setting           monoclinic
_symmetry_space_group_name_H-M   'P 21/n'
_symmetry_Int_Tables_number      14
_space_group_name_Hall           '-P 2yn'
loop_
_symmetry_equiv_pos_site_id
_symmetry_equiv_pos_as_xyz
1 x,y,z
2 1/2-x,1/2+y,1/2-z
3 -x,-y,-z
4 1/2+x,1/2-y,1/2+z
_cell_length_a                   11.1167(6)
_cell_length_b                   14.3657(7)
_cell_length_c                   15.1482(8)
_cell_angle_alpha                90
_cell_angle_beta                 93.2610(10)
_cell_angle_gamma                90
_cell_volume                     2415.24
loop_
_atom_site_label
_atom_site_type_symbol
_atom_site_fract_x
_atom_site_fract_y
_atom_site_fract_z
Cd1 Cd 0.307167(13) 0.290743(10) 0.789792(9)
O1 O 0.45937(14) 0.21043(11) 0.86585(12)
N1 N 0.17678(16) 0.22284(13) 0.68194(13)
C1 C 0.39324(18) 0.14523(15) 0.88940(13)
O2 O 0.28234(13) 0.14255(11) 0.86708(11)
N2 N -0.43400(17) 0.57712(14) 0.21051(13)
C2 C 0.44788(19) 0.06959(15) 0.94647(15)
N3 N -0.47046(16) 0.39668(14) 0.37630(12)
H1 H -0.4007 0.3706 0.3791
O3 O 0.14961(15) 0.39105(14) 0.81621(11)
C3 C 0.3775(2) -0.00112(17) 0.97812(17)
H2 H 0.2951 -0.0019 0.9636
O4 O 0.25113(15) 0.35074(13) 0.93889(11)
N4 N -0.54574(17) 0.26857(15) 0.66323(13)
C4 C 0.5712(2) 0.07060(18) 0.96889(18)
H3 H 0.6191 0.1180 0.9482
N5 N -0.13958(16) 0.23240(15) 0.59446(12)
H4 H -0.1715 0.2280 0.5416
O5 O -0.65030(18) 0.4036(2) 0.43690(16)
C5 C 0.16573(19) 0.39267(15) 0.89870(15)
C6 C 0.07963(19) 0.44865(15) 0.95107(15)
O6 O -0.17456(17) 0.27971(17) 0.73409(12)
C7 C -0.0165(2) 0.49490(19) 0.90895(16)
H5 H -0.0282 0.4919 0.8477
C8 C 0.0955(2) 0.45438(19) 1.04239(16)
H6 H 0.1600 0.4237 1.0714
C9 C -0.4122(2) 0.51276(16) 0.27314(15)
H7 H -0.3338 0.5059 0.2971
C10 C -0.5462(2) 0.58451(17) 0.17415(15)
H8 H -0.5621 0.6292 0.1306
C11 C -0.6387(2) 0.52826(18) 0.19888(16)
H9 H -0.7152 0.5344 0.1714
C12 C -0.6175(2) 0.46273(18) 0.26474(16)
H10 H -0.6791 0.4243 0.2824
C13 C -0.5014(2) 0.45584(16) 0.30398(14)
C14 C -0.5455(2) 0.3793(2) 0.44112(17)
C15 C -0.49476(19) 0.33131(17) 0.52297(15)
C16 C -0.5766(2) 0.30479(17) 0.58376(15)
H11 H -0.6582 0.3126 0.5684
C17 C -0.37296(19) 0.31733(16) 0.54502(14)
H12 H -0.3151 0.3331 0.5056
C18 C -0.4281(2) 0.25679(18) 0.68392(15)
H13 H -0.4048 0.2322 0.7391
C19 C -0.33935(19) 0.27942(16) 0.62705(14)
C20 C -0.2103(2) 0.26462(18) 0.65818(15)
C21 C 0.2150(2) 0.14974(17) 0.63630(16)
H14 H 0.2937 0.1291 0.6473
C22 C 0.06186(19) 0.25054(16) 0.66859(15)
H15 H 0.0347 0.3010 0.7003
C23 C 0.1423(2) 0.10397(18) 0.57371(17)
H16 H 0.1723 0.0548 0.5416
C24 C -0.01777(18) 0.20557(16) 0.60837(14)
C25 C 0.0238(2) 0.13249(17) 0.55940(15)
H17 H -0.0270 0.1028 0.5174
Cd1B Cd 0.692833(13) -0.290743(10) 1.210208(9)
Cd1B_2 Cd -0.307167(13) 0.709257(10) 0.210208(9)
Cd1B_3 Cd -0.307167(13) 0.709257(10) 1.210208(9)
O1B O 0.54063(14) -0.21043(11) 1.13415(12)
O1B_2 O -0.45937(14) 0.78957(11) 0.13415(12)
N1B N -0.17678(16) 0.77716(13) 0.31806(13)
C1B C 0.60676(18) -0.14523(15) 1.11060(13)
O2B O 0.71766(13) -0.14255(11) 1.13292(11)
N2B N 0.43400(17) 0.42288(14) 0.78949(13)
C2B C 0.55212(19) -0.06959(15) 1.05353(15)
N3B N 0.47046(16) 0.60332(14) 0.62370(12)
H1B H 0.4007 0.6294 0.6209
O3B O -0.14961(15) 0.60895(14) 1.18379(11)
O3B_2 O -0.14961(15) 0.60895(14) 0.18379(11)
C3B C 0.6225(2) 0.00112(17) 1.02188(17)
H2B H 0.7049 0.0019 1.0364
O4B O -0.25113(15) 0.64926(13) 1.06111(11)
N4B N 0.54574(17) 0.73143(15) 0.33677(13)
C4B C 0.4288(2) -0.07060(18) 1.03111(18)
H3B H 0.3809 -0.1180 1.0518
N5B N 0.13958(16) 0.76760(15) 0.40554(12)
H4B H 0.1715 0.7720 0.4584
O5B O 0.65030(18) 0.5964(2) 0.56310(16)
C5B C -0.16573(19) 0.60733(15) 1.10130(15)
C6B C -0.07963(19) 0.55135(15) 1.04893(15)
O6B O 0.17456(17) 0.72029(17) 0.26591(12)
C7B C 0.0165(2) 0.50510(19) 1.09105(16)
H5B H 0.0282 0.5081 1.1523
C8B C -0.0955(2) 0.54562(19) 0.95761(16)
H6B H -0.1600 0.5763 0.9286
C9B C 0.4122(2) 0.48724(16) 0.72686(15)
H7B H 0.3338 0.4941 0.7029
C10B C 0.5462(2) 0.41549(17) 0.82585(15)
H8B H 0.5621 0.3708 0.8694
C11B C 0.6387(2) 0.47174(18) 0.80112(16)
H9B H 0.7152 0.4656 0.8286
C12B C 0.6175(2) 0.53727(18) 0.73526(16)
H10B H 0.6791 0.5757 0.7176
C13B C 0.5014(2) 0.54416(16) 0.69602(14)
C14B C 0.5455(2) 0.6207(2) 0.55888(17)
C15B C 0.49476(19) 0.66869(17) 0.47703(15)
C16B C 0.5766(2) 0.69521(17) 0.41624(15)
H11B H 0.6582 0.6874 0.4316
C17B C 0.37296(19) 0.68267(16) 0.45498(14)
H12B H 0.3151 0.6669 0.4944
C18B C 0.4281(2) 0.74321(18) 0.31608(15)
H13B H 0.4048 0.7678 0.2609
C19B C 0.33935(19) 0.72058(16) 0.37295(14)
C20B C 0.2103(2) 0.73538(18) 0.34182(15)
C21B C -0.2150(2) 0.85026(17) 0.36370(16)
H14B H -0.2937 0.8709 0.3527
C22B C -0.06186(19) 0.74946(16) 0.33141(15)
H15B H -0.0347 0.6990 0.2997
C23B C -0.1423(2) 0.89603(18) 0.42629(17)
H16B H -0.1723 0.9452 0.4584
C24B C 0.01777(18) 0.79443(16) 0.39163(14)
C25B C -0.0238(2) 0.86751(17) 0.44060(15)
H17B H 0.0270 0.8972 0.4826
loop_
_geom_bond_atom_site_label_1
_geom_bond_atom_site_label_2
_geom_bond_site_symmetry_1
_geom_bond_site_symmetry_2
Cd1 O1 1_555 1_555
O1 C1 1_555 1_555
N1 Cd1 1_555 1_555
C1 O2 1_555 1_555
N2 C9 1_555 1_555
C2 C1 1_555 1_555
N3 H1 1_555 1_555
O3 Cd1 1_555 1_555
C3 C2 1_555 1_555
H2 C3 1_555 1_555
O4 C5 1_555 1_555
N4 C16 1_555 1_555
C4 C2 1_555 1_555
H3 C4 1_555 1_555
N5 H4 1_555 1_555
O5 C14 1_555 1_555
C5 O3 1_555 1_555
C6 C5 1_555 1_555
O6 C20 1_555 1_555
C7 C6 1_555 1_555
H5 C7 1_555 1_555
C8 C6 1_555 1_555
H6 C8 1_555 1_555
C9 H7 1_555 1_555
C10 N2 1_555 1_555
H8 C10 1_555 1_555
C11 C10 1_555 1_555
H9 C11 1_555 1_555
C12 C11 1_555 1_555
H10 C12 1_555 1_555
C13 N3 1_555 1_555
C14 N3 1_555 1_555
C15 C14 1_555 1_555
C16 C15 1_555 1_555
H11 C16 1_555 1_555
C17 C15 1_555 1_555
H12 C17 1_555 1_555
C18 N4 1_555 1_555
H13 C18 1_555 1_555
C19 C17 1_555 1_555
C20 N5 1_555 1_555
C21 N1 1_555 1_555
H14 C21 1_555 1_555
C22 N1 1_555 1_555
H15 C22 1_555 1_555
C23 C21 1_555 1_555
H16 C23 1_555 1_555
C24 N5 1_555 1_555
C25 C23 1_555 1_555
H17 C25 1_555 1_555
Cd1B O1B 1_555 1_555
Cd1B_2 N2 1_555 1_555
Cd1B_3 O3B 1_555 1_555
O1B C1B 1_555 1_555
O1B_2 Cd1B_2 1_555 1_555
N1B Cd1B_2 1_555 1_555
C1B O2B 1_555 1_555
N2B Cd1 1_555 1_555
C2B C1B 1_555 1_555
N3B H1B 1_555 1_555
O3B C5B 1_555 1_555
O3B_2 Cd1B_2 1_555 1_555
C3B C4 1_555 1_555
H2B C3B 1_555 1_555
O4B C5B 1_555 1_555
N4B C16B 1_555 1_555
C4B C3 1_555 1_555
H3B C4B 1_555 1_555
N5B H4B 1_555 1_555
O5B C14B 1_555 1_555
C5B C6B 1_555 1_555
C6B C7B 1_555 1_555
O6B C20B 1_555 1_555
C7B C8 1_555 1_555
H5B C7B 1_555 1_555
C8B C7 1_555 1_555
H6B C8B 1_555 1_555
C9B N2B 1_555 1_555
H7B C9B 1_555 1_555
C10B N2B 1_555 1_555
H8B C10B 1_555 1_555
C11B C10B 1_555 1_555
H9B C11B 1_555 1_555
C12B C11B 1_555 1_555
H10B C12B 1_555 1_555
C13B N3B 1_555 1_555
C14B N3B 1_555 1_555
C15B C14B 1_555 1_555
C16B C15B 1_555 1_555
H11B C16B 1_555 1_555
C17B C15B 1_555 1_555
H12B C17B 1_555 1_555
C18B N4B 1_555 1_555
H13B C18B 1_555 1_555
C19B C17B 1_555 1_555
C20B N5B 1_555 1_555
C21B N1B 1_555 1_555
H14B C21B 1_555 1_555
C22B N1B 1_555 1_555
H15B C22B 1_555 1_555
C23B C21B 1_555 1_555
H16B C23B 1_555 1_555
C24B N5B 1_555 1_555
C25B C23B 1_555 1_555
H17B C25B 1_555 1_555
C9 C13 1_555 1_555
C12 C13 1_555 1_555
C18 C19 1_555 1_555
C19 C20 1_555 1_555
C22 C24 1_555 1_555
C24 C25 1_555 1_555
C2B C3B 1_555 1_555
C2B C4B 1_555 1_555
C6B C8B 1_555 1_555
C9B C13B 1_555 1_555
C12B C13B 1_555 1_555
C18B C19B 1_555 1_555
C19B C20B 1_555 1_555
C22B C24B 1_555 1_555
C24B C25B 1_555 1_555

#END
