
#######################################################################
#
#                 Cambridge Crystallographic Data Centre
#                                CCDC 
#
#######################################################################
#
# If this CIF has been generated from an entry in the Cambridge 
# Structural Database, then it will include bibliographic, chemical, 
# crystal, experimental, refinement or atomic coordinate data resulting 
# from the CCDC's data processing and validation procedures.
#
#######################################################################

data_WEMLAD
_symmetry_cell_setting           triclinic
_symmetry_space_group_name_H-M   'P -1'
_symmetry_Int_Tables_number      2
_space_group_name_Hall           '-P 1'
loop_
_symmetry_equiv_pos_site_id
_symmetry_equiv_pos_as_xyz
1 x,y,z
2 -x,-y,-z
_cell_length_a                   8.0321(15)
_cell_length_b                   10.1400(19)
_cell_length_c                   12.985(2)
_cell_angle_alpha                67.540(2)
_cell_angle_beta                 85.067(2)
_cell_angle_gamma                74.216(2)
_cell_volume                     940.306
loop_
_atom_site_label
_atom_site_type_symbol
_atom_site_fract_x
_atom_site_fract_y
_atom_site_fract_z
O6 O -0.0605(6) 0.4324(7) 0.2434(4)
H6 H -0.0448 0.4511 0.1742
H7 H 0.0122 0.3485 0.2604
Ni1 Ni -1.0000 0.5000 0.5000
Ni2 Ni -1.46701(6) 0.63338(5) 0.39319(4)
O1 O -1.3721(3) 0.8117(3) 0.3703(2)
H1 H -1.3962 0.8733 0.3039
H2 H -1.2629 0.7906 0.3783
O2 O -0.3843(3) 1.1327(3) -0.0586(2)
O3 O -1.2079(3) 0.4838(3) 0.4200(2)
H3 H -1.1899 0.4527 0.3668
H4 H -1.2199 0.4015 0.4670
O4 O -0.6489(4) 1.0988(3) -0.1271(2)
H5 H -0.6377 1.0267 -0.0685
O5 O -0.5532(4) 1.3283(3) -0.2294(2)
O7 O -1.0202(3) 0.7094(3) 0.3773(2)
O8 O -0.8631(4) 0.7883(3) 0.2005(2)
H8 H -0.7787 0.8185 0.1721
O9 O -0.7228(3) 0.7447(3) 0.3855(2)
O10 O -0.8257(3) 1.3921(3) 0.4139(2)
O11 O -0.5334(3) 1.4317(3) 0.4349(2)
O12 O -0.6596(4) 1.4994(3) 0.2444(2)
H9 H -0.5970 1.5546 0.2353
P1 P -0.56036(13) 1.21214(11) -0.11458(8)
P2 P -0.89052(12) 0.79659(10) 0.31916(8)
P3 P -0.64803(12) 1.39192(10) 0.36870(8)
C1 C -0.7118(5) 1.2266(4) 0.0903(3)
C2 C -0.8440(5) 1.1528(4) 0.1298(3)
C3 C -0.8610(5) 1.0850(4) 0.2452(3)
C4 C -0.7632(5) 1.1062(4) 0.3195(3)
C5 C -0.6341(4) 1.1824(4) 0.2793(3)
C6 C -0.6006(5) 1.2337(4) 0.1649(3)
C7 C -0.6973(5) 1.3088(4) -0.0345(3)
H10 H -0.6569 1.3947 -0.0444
H11 H -0.8130 1.3450 -0.0671
C8 C -0.9673(5) 1.1520(5) 0.0487(3)
H12 H -0.9347 1.2017 -0.0262
H13 H -1.0828 1.2020 0.0607
H14 H -0.9628 1.0518 0.0601
C9 C -0.9882(5) 0.9898(4) 0.2919(3)
H15 H -1.0840 1.0252 0.2393
H16 H -1.0344 1.0005 0.3607
C10 C -0.8031(5) 1.0511(5) 0.4423(3)
H17 H -0.7259 1.0732 0.4821
H18 H -0.7883 0.9461 0.4699
H19 H -0.9204 1.0989 0.4529
C11 C -0.5398(5) 1.2165(4) 0.3594(3)
H20 H -0.4227 1.2174 0.3342
H21 H -0.5328 1.1391 0.4328
C12 C -0.4499(6) 1.3017(5) 0.1215(4)
H22 H -0.3876 1.2975 0.1830
H23 H -0.4926 1.4028 0.0725
H24 H -0.3740 1.2478 0.0815
O3A O -0.7921(3) 0.5162(3) 0.5800(2)
H3A H -0.8101 0.5473 0.6332
H4A H -0.7801 0.5985 0.5330
O2A O -1.6157(3) -0.1327(3) 1.0586(2)
O4A O -1.3511(4) -0.0988(3) 1.1271(2)
H5A H -1.3623 -0.0267 1.0685
O5A O -1.4468(4) -0.3283(3) 1.2294(2)
O7A O -0.9798(3) 0.2906(3) 0.6227(2)
O8A O -1.1369(4) 0.2117(3) 0.7995(2)
H8A H -1.2213 0.1815 0.8279
O9A O -1.2772(3) 0.2553(3) 0.6145(2)
O10A O -1.1743(3) -0.3921(3) 0.5861(2)
O11A O -1.4666(3) -0.4317(3) 0.5651(2)
O12A O -1.3404(4) -0.4994(3) 0.7556(2)
H9A H -1.4030 -0.5546 0.7647
P1A P -1.43964(13) -0.21214(11) 1.11458(8)
P2A P -1.10948(12) 0.20341(10) 0.68084(8)
P3A P -1.35197(12) -0.39192(10) 0.63130(8)
C1A C -1.2882(5) -0.2266(4) 0.9097(3)
C2A C -1.1560(5) -0.1528(4) 0.8702(3)
C3A C -1.1390(5) -0.0850(4) 0.7548(3)
C4A C -1.2368(5) -0.1062(4) 0.6805(3)
C5A C -1.3659(4) -0.1824(4) 0.7207(3)
C6A C -1.3994(5) -0.2337(4) 0.8351(3)
C7A C -1.3027(5) -0.3088(4) 1.0345(3)
H10A H -1.3431 -0.3947 1.0444
H11A H -1.1870 -0.3450 1.0671
C8A C -1.0327(5) -0.1520(5) 0.9513(3)
H12A H -1.0653 -0.2017 1.0262
H13A H -0.9172 -0.2020 0.9393
H14A H -1.0372 -0.0518 0.9399
C9A C -1.0118(5) 0.0102(4) 0.7081(3)
H15A H -0.9160 -0.0252 0.7607
H16A H -0.9656 -0.0005 0.6393
C10A C -1.1969(5) -0.0511(5) 0.5577(3)
H17A H -1.2741 -0.0732 0.5179
H18A H -1.2117 0.0539 0.5301
H19A H -1.0796 -0.0989 0.5471
C11A C -1.4602(5) -0.2165(4) 0.6406(3)
H20A H -1.5773 -0.2174 0.6658
H21A H -1.4672 -0.1391 0.5672
C12A C -1.5501(6) -0.3017(5) 0.8785(4)
H22A H -1.6124 -0.2975 0.8170
H23A H -1.5074 -0.4028 0.9275
H24A H -1.6260 -0.2478 0.9185
Ni2A Ni -0.53299(6) 0.36662(5) 0.60681(4)
O1A O -0.6279(3) 0.1883(3) 0.6297(2)
H1A H -0.6038 0.1267 0.6961
H2A H -0.7371 0.2094 0.6217
O10_2 O -0.8257(3) 0.3921(3) 0.4139(2)
O10A_2 O -1.1743(3) 0.6079(3) 0.5861(2)
O5A_2 O -1.4468(4) 0.6717(3) 0.2294(2)
O9_2 O -1.7228(3) 0.7447(3) 0.3855(2)
O11_2 O -1.5334(3) 0.4317(3) 0.4349(2)
O11A_2 O -1.4666(3) 0.5683(3) 0.5651(2)
Ni2A_2 Ni -0.53299(6) 1.36662(5) -0.39319(4)
Ni2_2 Ni -0.46701(6) 0.63338(5) 0.39319(4)
Ni1_2 Ni -1.0000 1.5000 0.5000
Ni2_3 Ni -0.46701(6) 1.63338(5) 0.39319(4)
Ni2A_3 Ni -0.53299(6) 1.36662(5) 0.60681(4)
Ni2_4 Ni -1.46701(6) -0.36662(5) 1.39319(4)
Ni2A_4 Ni -1.53299(6) 0.36662(5) 0.60681(4)
Ni1A Ni -1.0000 -0.5000 0.5000
Ni2A_5 Ni -1.53299(6) -0.63338(5) 0.60681(4)
Ni2_5 Ni -1.46701(6) -0.36662(5) 0.39319(4)
O5_2 O -0.5532(4) 0.3283(3) 0.7706(2)
O9A_2 O -0.2772(3) 0.2553(3) 0.6145(2)
O11A_3 O -0.4666(3) 0.5683(3) 0.5651(2)
O11_3 O -0.5334(3) 0.4317(3) 0.4349(2)
loop_
_geom_bond_atom_site_label_1
_geom_bond_atom_site_label_2
_geom_bond_site_symmetry_1
_geom_bond_site_symmetry_2
Ni1 O3 1_555 1_555
Ni2 O1 1_555 1_555
O1 H1 1_555 1_555
H2 O1 1_555 1_555
O2 P1 1_555 1_555
O3 Ni2 1_555 1_555
H3 O3 1_555 1_555
H4 O3 1_555 1_555
O4 H5 1_555 1_555
O5 P1 1_555 1_555
O6 H6 1_555 1_555
H7 O6 1_555 1_555
O7 Ni1 1_555 1_555
O8 H8 1_555 1_555
O9 P2 1_555 1_555
O10 P3 1_555 1_555
O11 P3 1_555 1_555
O12 H9 1_555 1_555
P1 O4 1_555 1_555
P2 O7 1_555 1_555
P3 O12 1_555 1_555
C1 C2 1_555 1_555
C2 C3 1_555 1_555
C3 C4 1_555 1_555
C4 C5 1_555 1_555
C5 C6 1_555 1_555
C6 C1 1_555 1_555
C7 P1 1_555 1_555
H10 C7 1_555 1_555
H11 C7 1_555 1_555
C8 C2 1_555 1_555
H12 C8 1_555 1_555
H13 C8 1_555 1_555
H14 C8 1_555 1_555
C9 P2 1_555 1_555
H15 C9 1_555 1_555
H16 C9 1_555 1_555
C10 C4 1_555 1_555
H17 C10 1_555 1_555
H18 C10 1_555 1_555
H19 C10 1_555 1_555
C11 P3 1_555 1_555
H20 C11 1_555 1_555
H21 C11 1_555 1_555
C12 C6 1_555 1_555
H22 C12 1_555 1_555
H23 C12 1_555 1_555
H24 C12 1_555 1_555
O3A Ni1 1_555 1_555
H3A O3A 1_555 1_555
H4A O3A 1_555 1_555
O2A P1A 1_555 1_555
O4A H5A 1_555 1_555
O5A P1A 1_555 1_555
O7A Ni1 1_555 1_555
O8A H8A 1_555 1_555
O9A P2A 1_555 1_555
O10A P3A 1_555 1_555
O11A P3A 1_555 1_555
O12A H9A 1_555 1_555
P1A O4A 1_555 1_555
P2A O7A 1_555 1_555
P3A O12A 1_555 1_555
C1A C2A 1_555 1_555
C2A C3A 1_555 1_555
C3A C4A 1_555 1_555
C4A C5A 1_555 1_555
C5A C6A 1_555 1_555
C6A C1A 1_555 1_555
C7A P1A 1_555 1_555
H10A C7A 1_555 1_555
H11A C7A 1_555 1_555
C8A C2A 1_555 1_555
H12A C8A 1_555 1_555
H13A C8A 1_555 1_555
H14A C8A 1_555 1_555
C9A P2A 1_555 1_555
H15A C9A 1_555 1_555
H16A C9A 1_555 1_555
C10A C4A 1_555 1_555
H17A C10A 1_555 1_555
H18A C10A 1_555 1_555
H19A C10A 1_555 1_555
C11A P3A 1_555 1_555
H20A C11A 1_555 1_555
H21A C11A 1_555 1_555
C12A C6A 1_555 1_555
H22A C12A 1_555 1_555
H23A C12A 1_555 1_555
H24A C12A 1_555 1_555
Ni2A O3A 1_555 1_555
O1A Ni2A 1_555 1_555
H1A O1A 1_555 1_555
H2A O1A 1_555 1_555
O10_2 Ni1 1_555 1_555
O10A_2 Ni1 1_555 1_555
O5A_2 Ni2 1_555 1_555
O9_2 Ni2 1_555 1_555
O11_2 Ni2 1_555 1_555
O11A_2 Ni2 1_555 1_555
Ni2A_2 O5 1_555 1_555
Ni2_2 O9 1_555 1_555
Ni1_2 O10 1_555 1_555
Ni2_3 O11 1_555 1_555
Ni2A_3 O11 1_555 1_555
Ni2_4 O5A 1_555 1_555
Ni2A_4 O9A 1_555 1_555
Ni1A O10A 1_555 1_555
Ni2A_5 O11A 1_555 1_555
Ni2_5 O11A 1_555 1_555
O5_2 Ni2A 1_555 1_555
O9A_2 Ni2A 1_555 1_555
O11A_3 Ni2A 1_555 1_555
O11_3 Ni2A 1_555 1_555
O8 P2 1_555 1_555
C1 C7 1_555 1_555
C3 C9 1_555 1_555
C5 C11 1_555 1_555
O8A P2A 1_555 1_555
C1A C7A 1_555 1_555
C3A C9A 1_555 1_555
C5A C11A 1_555 1_555
O11_2 Ni2A_4 1_555 1_555
O11A_2 Ni2A_4 1_555 1_555
Ni2_2 O11_3 1_555 1_555
Ni2_2 O11A_3 1_555 1_555

#END
