
#######################################################################
#
#                 Cambridge Crystallographic Data Centre
#                                CCDC 
#
#######################################################################
#
# If this CIF has been generated from an entry in the Cambridge 
# Structural Database, then it will include bibliographic, chemical, 
# crystal, experimental, refinement or atomic coordinate data resulting 
# from the CCDC's data processing and validation procedures.
#
#######################################################################

data_WEMLUX
_symmetry_cell_setting           monoclinic
_symmetry_space_group_name_H-M   'P 21/n'
_symmetry_Int_Tables_number      14
_space_group_name_Hall           '-P 2yn'
loop_
_symmetry_equiv_pos_site_id
_symmetry_equiv_pos_as_xyz
1 x,y,z
2 1/2-x,1/2+y,1/2-z
3 -x,-y,-z
4 1/2+x,1/2-y,1/2+z
_cell_length_a                   10.1684(7)
_cell_length_b                   15.3969(11)
_cell_length_c                   16.7062(12)
_cell_angle_alpha                90
_cell_angle_beta                 92.6080(10)
_cell_angle_gamma                90
_cell_volume                     2612.84
loop_
_atom_site_label
_atom_site_type_symbol
_atom_site_fract_x
_atom_site_fract_y
_atom_site_fract_z
Cu1 Cu 0.95333(3) 0.899262(19) 0.226186(17)
O1 O 1.22767(19) 0.58898(13) -0.08915(11)
H1 H 1.1995 0.5785 -0.1349
O2 O 1.44519(19) 0.61339(12) -0.15672(10)
O3 O 1.31832(17) 0.73842(12) -0.09896(10)
H2 H 1.3690 0.7635 -0.1280
O4 O 1.73927(16) 0.87934(11) 0.18758(11)
O5 O 1.66726(16) 1.02974(11) 0.15575(10)
H3 H 1.6194 1.0689 0.1705
O6 O 1.59810(17) 0.96187(12) 0.28514(10)
O7 O 0.99694(17) 0.77980(11) 0.20427(11)
O8 O 0.97412(18) 0.62451(12) 0.17023(11)
H4 H 0.9554 0.5782 0.1910
O9 O 0.95887(18) 0.66832(11) 0.31467(11)
N1 N 1.05892(19) 0.93549(13) 0.13090(11)
N2 N 0.93790(18) 1.02948(13) 0.23742(11)
P1 P 1.35700(6) 0.64139(4) -0.09229(4)
P2 P 1.63000(6) 0.94264(4) 0.19817(4)
P3 P 1.02221(6) 0.69077(4) 0.23718(4)
C1 C 1.4066(2) 0.68311(15) 0.07178(13)
C2 C 1.4611(2) 0.76629(16) 0.07861(14)
C3 C 1.4258(2) 0.82059(15) 0.14172(14)
C4 C 1.3393(2) 0.79116(15) 0.19870(14)
C5 C 1.2875(2) 0.70674(15) 0.19253(14)
C6 C 1.3202(2) 0.65235(15) 0.12847(14)
C7 C 1.4442(3) 0.62441(17) 0.00300(15)
H5 H 1.4307 0.5646 0.0190
H6 H 1.5375 0.6317 -0.0047
C8 C 1.5603(3) 0.7985(2) 0.02085(17)
H7 H 1.5746 0.7545 -0.0186
H8 H 1.6419 0.8111 0.0497
H9 H 1.5275 0.8501 -0.0052
C9 C 1.4765(2) 0.91378(16) 0.14368(15)
H10 H 1.4078 0.9495 0.1651
H11 H 1.4851 0.9317 0.0885
C10 C 1.3035(3) 0.85107(18) 0.26654(16)
H12 H 1.3478 0.9057 0.2613
H13 H 1.3298 0.8250 0.3169
H14 H 1.2100 0.8604 0.2643
C11 C 1.1973(2) 0.67351(17) 0.25560(15)
H15 H 1.2232 0.7008 0.3062
H16 H 1.2122 0.6116 0.2619
C12 C 1.2680(3) 0.56035(17) 0.12192(17)
H17 H 1.2993 0.5335 0.0746
H18 H 1.1735 0.5615 0.1189
H19 H 1.2980 0.5277 0.1682
C13 C 0.8743(2) 1.07495(17) 0.29113(15)
H20 H 0.8426 1.0461 0.3352
C14 C 0.8533(2) 1.16387(18) 0.28414(16)
H21 H 0.8073 1.1933 0.3226
C15 C 0.9006(2) 1.20796(17) 0.22028(16)
H22 H 0.8851 1.2672 0.2144
C16 C 0.9726(2) 1.16308(16) 0.16380(15)
C17 C 1.0312(3) 1.20257(17) 0.09661(17)
H23 H 1.0192 1.2617 0.0873
C18 C 1.1038(3) 1.15562(18) 0.04637(16)
H24 H 1.1438 1.1835 0.0045
C19 C 1.1203(2) 1.06386(17) 0.05625(15)
C20 C 1.1911(2) 1.00992(19) 0.00555(15)
H25 H 1.2355 1.0338 -0.0366
C21 C 1.1945(2) 0.92251(19) 0.01847(15)
H26 H 1.2426 0.8868 -0.0143
C22 C 1.1255(2) 0.88654(17) 0.08117(14)
H27 H 1.1264 0.8266 0.0882
C23 C 1.0580(2) 1.02299(16) 0.11937(14)
C24 C 0.9874(2) 1.07331(16) 0.17503(14)
Cu1_2 Cu 1.95333(3) 0.899262(19) 0.226186(17)
Cu1C Cu 1.45333(3) 0.600738(19) -0.273814(17)
O2C O 0.94519(19) 0.88661(12) 0.34328(10)
O4_2 O 0.73927(16) 0.87934(11) 0.18758(11)
O10 O 1.8164(10) 0.6231(6) 0.0195(5)
O11? O 1.9874(16) 0.5920(11) -0.0031(8)
loop_
_geom_bond_atom_site_label_1
_geom_bond_atom_site_label_2
_geom_bond_site_symmetry_1
_geom_bond_site_symmetry_2
Cu1 O7 1_555 1_555
O1 H1 1_555 1_555
O2 P1 1_555 1_555
O3 H2 1_555 1_555
O4 P2 1_555 1_555
O5 H3 1_555 1_555
O6 P2 1_555 1_555
O7 P3 1_555 1_555
O8 H4 1_555 1_555
O9 P3 1_555 1_555
N1 Cu1 1_555 1_555
N2 Cu1 1_555 1_555
P1 O1 1_555 1_555
P2 O5 1_555 1_555
P3 O8 1_555 1_555
C1 C2 1_555 1_555
C2 C3 1_555 1_555
C3 C4 1_555 1_555
C4 C5 1_555 1_555
C5 C6 1_555 1_555
C6 C1 1_555 1_555
C7 P1 1_555 1_555
H5 C7 1_555 1_555
H6 C7 1_555 1_555
C8 C2 1_555 1_555
H7 C8 1_555 1_555
H8 C8 1_555 1_555
H9 C8 1_555 1_555
C9 P2 1_555 1_555
H10 C9 1_555 1_555
H11 C9 1_555 1_555
C10 C4 1_555 1_555
H12 C10 1_555 1_555
H13 C10 1_555 1_555
H14 C10 1_555 1_555
C11 P3 1_555 1_555
H15 C11 1_555 1_555
H16 C11 1_555 1_555
C12 C6 1_555 1_555
H17 C12 1_555 1_555
H18 C12 1_555 1_555
H19 C12 1_555 1_555
C13 N2 1_555 1_555
H20 C13 1_555 1_555
C14 C13 1_555 1_555
H21 C14 1_555 1_555
C15 C14 1_555 1_555
H22 C15 1_555 1_555
C16 C15 1_555 1_555
C17 C16 1_555 1_555
H23 C17 1_555 1_555
C18 C17 1_555 1_555
H24 C18 1_555 1_555
C19 C18 1_555 1_555
C20 C19 1_555 1_555
H25 C20 1_555 1_555
C21 C20 1_555 1_555
H26 C21 1_555 1_555
C22 N1 1_555 1_555
H27 C22 1_555 1_555
C23 N1 1_555 1_555
C24 N2 1_555 1_555
Cu1_2 O4 1_555 1_555
Cu1C O2 1_555 1_555
O2C Cu1 1_555 1_555
O4_2 Cu1 1_555 1_555
O3 P1 1_555 1_555
C1 C7 1_555 1_555
C3 C9 1_555 1_555
C5 C11 1_555 1_555
C16 C24 1_555 1_555
C19 C23 1_555 1_555
C21 C22 1_555 1_555
C23 C24 1_555 1_555

#END
