
#######################################################################
#
#                 Cambridge Crystallographic Data Centre
#                                CCDC 
#
#######################################################################
#
# If this CIF has been generated from an entry in the Cambridge 
# Structural Database, then it will include bibliographic, chemical, 
# crystal, experimental, refinement or atomic coordinate data resulting 
# from the CCDC's data processing and validation procedures.
#
#######################################################################

data_WEMLOR
_symmetry_cell_setting           triclinic
_symmetry_space_group_name_H-M   'P -1'
_symmetry_Int_Tables_number      2
_space_group_name_Hall           '-P 1'
loop_
_symmetry_equiv_pos_site_id
_symmetry_equiv_pos_as_xyz
1 x,y,z
2 -x,-y,-z
_cell_length_a                   9.7878(16)
_cell_length_b                   10.2010(16)
_cell_length_c                   14.443(3)
_cell_angle_alpha                76.790(2)
_cell_angle_beta                 81.902(2)
_cell_angle_gamma                66.9930(10)
_cell_volume                     1290.1
loop_
_atom_site_label
_atom_site_type_symbol
_atom_site_fract_x
_atom_site_fract_y
_atom_site_fract_z
Cu1 Cu 0.19229(5) -0.05501(4) 0.83356(3)
O1 O 0.0004(3) 0.1481(3) 0.5553(2)
H1 H -0.0367 0.1299 0.5147
O2 O 0.1915(3) 0.0293(3) 0.67632(18)
O3 O 0.1463(3) -0.1206(3) 0.57358(19)
O4 O -0.1815(3) 0.4439(3) 0.1171(2)
H2 H -0.1857 0.5179 0.1327
O5 O -0.1503(3) 0.3280(3) 0.2868(2)
H3 H -0.1367 0.2475 0.3199
O6 O -0.0732(3) 0.1732(3) 0.15916(19)
O7 O 0.7622(4) -0.3082(3) 0.1251(2)
O8 O 0.7657(3) -0.2484(3) 0.2832(2)
H4 H 0.7800 -0.1812 0.2968
O9 O 0.6920(3) -0.0490(2) 0.13915(18)
N1 N 0.0010(3) 0.1112(3) 0.8520(2)
N2 N -0.6162(3) 0.7757(3) 0.8317(2)
P1 P 0.15318(11) 0.02209(12) 0.58044(7)
P2 P -0.08393(11) 0.31136(10) 0.18398(7)
P3 P 0.68883(11) -0.19560(10) 0.18638(8)
C1 C 0.2941(4) 0.0602(5) 0.3928(3)
C2 C 0.2120(5) 0.1890(5) 0.3323(3)
C3 C 0.2091(4) 0.1884(4) 0.2354(3)
C4 C 0.3032(4) 0.0672(4) 0.1975(3)
C5 C 0.3930(4) -0.0595(4) 0.2579(3)
C6 C 0.3792(4) -0.0654(5) 0.3566(3)
C7 C 0.2953(5) 0.0602(5) 0.4980(3)
H5 H 0.2916 0.1548 0.5030
H6 H 0.3906 -0.0100 0.5199
C8 C 0.1310(5) 0.3267(5) 0.3707(3)
H7 H 0.1436 0.3076 0.4378
H8 H 0.0271 0.3614 0.3599
H9 H 0.1707 0.3988 0.3389
C9 C 0.0991(4) 0.3167(4) 0.1739(3)
H10 H 0.1365 0.3198 0.1079
H11 H 0.0923 0.4053 0.1918
C10 C 0.3114(5) 0.0690(5) 0.0921(3)
H12 H 0.2437 0.1606 0.0610
H13 H 0.2849 -0.0077 0.0822
H14 H 0.4108 0.0554 0.0661
C11 C 0.4993(4) -0.1864(4) 0.2155(3)
H15 H 0.4588 -0.1858 0.1577
H16 H 0.5024 -0.2746 0.2598
C12 C 0.4536(5) -0.2078(5) 0.4228(3)
H17 H 0.4341 -0.1935 0.4875
H18 H 0.5589 -0.2427 0.4078
H19 H 0.4149 -0.2776 0.4151
C13 C -0.0252(4) 0.1905(4) 0.9191(3)
H20 H 0.0395 0.1565 0.9681
C14 C -0.1438(4) 0.3204(4) 0.9190(3)
H21 H -0.1589 0.3712 0.9679
C15 C -0.2402(4) 0.3749(4) 0.8460(3)
C16 C -0.3667(4) 0.5176(4) 0.8399(3)
C17 C -0.4150(4) 0.5891(4) 0.9171(3)
H22 H -0.3644 0.5515 0.9729
C18 C -0.5380(4) 0.7155(4) 0.9096(3)
H23 H -0.5686 0.7619 0.9615
C19 C -0.5643(4) 0.7114(4) 0.7560(3)
H24 H -0.6127 0.7550 0.6996
C20 C -0.4433(4) 0.5845(4) 0.7580(3)
H25 H -0.4125 0.5431 0.7039
C21 C -0.2141(4) 0.2902(4) 0.7781(3)
H26 H -0.2766 0.3219 0.7281
C22 C -0.0963(4) 0.1595(4) 0.7845(3)
H27 H -0.0840 0.1023 0.7398
Cu1A Cu -0.19229(5) 0.05501(4) 0.16644(3)
Cu1_2 Cu -0.80771(5) -0.05501(4) 0.83356(3)
Cu1_3 Cu -0.80771(5) 0.94499(4) 0.83356(3)
Cu1A_2 Cu 0.80771(5) -0.94499(4) 0.16644(3)
Cu1A_3 Cu 0.80771(5) 0.05501(4) 0.16644(3)
O1A O -0.0004(3) -0.1481(3) 0.4447(2)
H1A H 0.0367 -0.1299 0.4853
O2A O -0.1915(3) -0.0293(3) 0.32368(18)
O3A O -0.1463(3) 0.1206(3) 0.42642(19)
O4A O 0.1815(3) -0.4439(3) 0.8829(2)
H2A H 0.1857 -0.5179 0.8673
O5A O 0.1503(3) -0.3280(3) 0.7132(2)
H3A H 0.1367 -0.2475 0.6801
O6A O 0.0732(3) -0.1732(3) 0.84084(19)
O7A O -0.7622(4) 0.3082(3) 0.8749(2)
O8A O -0.7657(3) 0.2484(3) 0.7168(2)
H4A H -0.7800 0.1812 0.7032
O9A O -0.6920(3) 0.0490(2) 0.86085(18)
O9_2 O -0.3080(3) -0.0490(2) 0.13915(18)
O9A_2 O 0.3080(3) 0.0490(2) 0.86085(18)
N1A N -0.0010(3) -0.1112(3) 0.1480(2)
N2A N 0.6162(3) -0.7757(3) 0.1683(2)
N2_2 N 0.3838(3) -0.2243(3) 0.8317(2)
N2A_2 N -0.3838(3) 0.2243(3) 0.1683(2)
P1A P -0.15318(11) -0.02209(12) 0.41956(7)
P2A P 0.08393(11) -0.31136(10) 0.81602(7)
P3A P -0.68883(11) 0.19560(10) 0.81362(8)
C1A C -0.2941(4) -0.0602(5) 0.6072(3)
C2A C -0.2120(5) -0.1890(5) 0.6677(3)
C3A C -0.2091(4) -0.1884(4) 0.7646(3)
C4A C -0.3032(4) -0.0672(4) 0.8025(3)
C5A C -0.3930(4) 0.0595(4) 0.7421(3)
C6A C -0.3792(4) 0.0654(5) 0.6434(3)
C7A C -0.2953(5) -0.0602(5) 0.5020(3)
H5A H -0.2916 -0.1548 0.4970
H6A H -0.3906 0.0100 0.4801
C8A C -0.1310(5) -0.3267(5) 0.6293(3)
H7A H -0.1436 -0.3076 0.5622
H8A H -0.0271 -0.3614 0.6401
H9A H -0.1707 -0.3988 0.6611
C9A C -0.0991(4) -0.3167(4) 0.8261(3)
H10A H -0.1365 -0.3198 0.8921
H11A H -0.0923 -0.4053 0.8082
C10A C -0.3114(5) -0.0690(5) 0.9079(3)
H12A H -0.2437 -0.1606 0.9390
H13A H -0.2849 0.0077 0.9178
H14A H -0.4108 -0.0554 0.9339
C11A C -0.4993(4) 0.1864(4) 0.7845(3)
H15A H -0.4588 0.1858 0.8423
H16A H -0.5024 0.2746 0.7402
C12A C -0.4536(5) 0.2078(5) 0.5772(3)
H17A H -0.4341 0.1935 0.5125
H18A H -0.5589 0.2427 0.5922
H19A H -0.4149 0.2776 0.5849
C13A C 0.0252(4) -0.1905(4) 0.0809(3)
H20A H -0.0395 -0.1565 0.0319
C14A C 0.1438(4) -0.3204(4) 0.0810(3)
H21A H 0.1589 -0.3712 0.0321
C15A C 0.2402(4) -0.3749(4) 0.1540(3)
C16A C 0.3667(4) -0.5176(4) 0.1601(3)
C17A C 0.4150(4) -0.5891(4) 0.0829(3)
H22A H 0.3644 -0.5515 0.0271
C18A C 0.5380(4) -0.7155(4) 0.0904(3)
H23A H 0.5686 -0.7619 0.0385
C19A C 0.5643(4) -0.7114(4) 0.2440(3)
H24A H 0.6127 -0.7550 0.3004
C20A C 0.4433(4) -0.5845(4) 0.2420(3)
H25A H 0.4125 -0.5431 0.2961
C21A C 0.2141(4) -0.2902(4) 0.2219(3)
H26A H 0.2766 -0.3219 0.2719
C22A C 0.0963(4) -0.1595(4) 0.2155(3)
H27A H 0.0840 -0.1023 0.2602
loop_
_geom_bond_atom_site_label_1
_geom_bond_atom_site_label_2
_geom_bond_site_symmetry_1
_geom_bond_site_symmetry_2
Cu1 O2 1_555 1_555
O1 H1 1_555 1_555
O2 P1 1_555 1_555
O3 P1 1_555 1_555
O4 H2 1_555 1_555
O5 H3 1_555 1_555
O6 P2 1_555 1_555
O7 P3 1_555 1_555
O8 H4 1_555 1_555
O9 P3 1_555 1_555
N1 Cu1 1_555 1_555
N2 C18 1_555 1_555
P1 O1 1_555 1_555
P2 O4 1_555 1_555
P3 O8 1_555 1_555
C1 C2 1_555 1_555
C2 C3 1_555 1_555
C3 C4 1_555 1_555
C4 C5 1_555 1_555
C5 C6 1_555 1_555
C6 C1 1_555 1_555
C7 P1 1_555 1_555
H5 C7 1_555 1_555
H6 C7 1_555 1_555
C8 C2 1_555 1_555
H7 C8 1_555 1_555
H8 C8 1_555 1_555
H9 C8 1_555 1_555
C9 P2 1_555 1_555
H10 C9 1_555 1_555
H11 C9 1_555 1_555
C10 C4 1_555 1_555
H12 C10 1_555 1_555
H13 C10 1_555 1_555
H14 C10 1_555 1_555
C11 P3 1_555 1_555
H15 C11 1_555 1_555
H16 C11 1_555 1_555
C12 C6 1_555 1_555
H17 C12 1_555 1_555
H18 C12 1_555 1_555
H19 C12 1_555 1_555
C13 N1 1_555 1_555
H20 C13 1_555 1_555
C14 C13 1_555 1_555
H21 C14 1_555 1_555
C15 C14 1_555 1_555
C16 C15 1_555 1_555
C17 C16 1_555 1_555
H22 C17 1_555 1_555
C18 C17 1_555 1_555
H23 C18 1_555 1_555
C19 N2 1_555 1_555
H24 C19 1_555 1_555
C20 C16 1_555 1_555
H25 C20 1_555 1_555
C21 C15 1_555 1_555
H26 C21 1_555 1_555
C22 N1 1_555 1_555
H27 C22 1_555 1_555
Cu1A O6 1_555 1_555
Cu1_2 O9A 1_555 1_555
Cu1_3 N2 1_555 1_555
Cu1A_2 N2A 1_555 1_555
Cu1A_3 O9 1_555 1_555
O1A H1A 1_555 1_555
O2A Cu1A 1_555 1_555
O3A P1A 1_555 1_555
O4A H2A 1_555 1_555
O5A H3A 1_555 1_555
O6A Cu1 1_555 1_555
O7A P3A 1_555 1_555
O8A H4A 1_555 1_555
O9A P3A 1_555 1_555
O9_2 Cu1A 1_555 1_555
O9A_2 Cu1 1_555 1_555
N1A Cu1A 1_555 1_555
N2A C18A 1_555 1_555
N2_2 Cu1 1_555 1_555
N2A_2 Cu1A 1_555 1_555
P1A O1A 1_555 1_555
P2A O4A 1_555 1_555
P3A O8A 1_555 1_555
C1A C2A 1_555 1_555
C2A C3A 1_555 1_555
C3A C4A 1_555 1_555
C4A C5A 1_555 1_555
C5A C6A 1_555 1_555
C6A C1A 1_555 1_555
C7A P1A 1_555 1_555
H5A C7A 1_555 1_555
H6A C7A 1_555 1_555
C8A C2A 1_555 1_555
H7A C8A 1_555 1_555
H8A C8A 1_555 1_555
H9A C8A 1_555 1_555
C9A P2A 1_555 1_555
H10A C9A 1_555 1_555
H11A C9A 1_555 1_555
C10A C4A 1_555 1_555
H12A C10A 1_555 1_555
H13A C10A 1_555 1_555
H14A C10A 1_555 1_555
C11A P3A 1_555 1_555
H15A C11A 1_555 1_555
H16A C11A 1_555 1_555
C12A C6A 1_555 1_555
H17A C12A 1_555 1_555
H18A C12A 1_555 1_555
H19A C12A 1_555 1_555
C13A N1A 1_555 1_555
H20A C13A 1_555 1_555
C14A C13A 1_555 1_555
H21A C14A 1_555 1_555
C15A C14A 1_555 1_555
C16A C15A 1_555 1_555
C17A C16A 1_555 1_555
H22A C17A 1_555 1_555
C18A C17A 1_555 1_555
H23A C18A 1_555 1_555
C19A N2A 1_555 1_555
H24A C19A 1_555 1_555
C20A C16A 1_555 1_555
H25A C20A 1_555 1_555
C21A C15A 1_555 1_555
H26A C21A 1_555 1_555
C22A N1A 1_555 1_555
H27A C22A 1_555 1_555
O5 P2 1_555 1_555
C1 C7 1_555 1_555
C3 C9 1_555 1_555
C5 C11 1_555 1_555
C19 C20 1_555 1_555
C21 C22 1_555 1_555
O2A P1A 1_555 1_555
O5A P2A 1_555 1_555
O6A P2A 1_555 1_555
C1A C7A 1_555 1_555
C3A C9A 1_555 1_555
C5A C11A 1_555 1_555
C19A C20A 1_555 1_555
C21A C22A 1_555 1_555

#END
