
#######################################################################
#
#                 Cambridge Crystallographic Data Centre
#                                CCDC 
#
#######################################################################
#
# If this CIF has been generated from an entry in the Cambridge 
# Structural Database, then it will include bibliographic, chemical, 
# crystal, experimental, refinement or atomic coordinate data resulting 
# from the CCDC's data processing and validation procedures.
#
#######################################################################

data_WEMLIK
_symmetry_cell_setting           monoclinic
_symmetry_space_group_name_H-M   'P 21/n'
_symmetry_Int_Tables_number      14
_space_group_name_Hall           '-P 2yn'
loop_
_symmetry_equiv_pos_site_id
_symmetry_equiv_pos_as_xyz
1 x,y,z
2 1/2-x,1/2+y,1/2-z
3 -x,-y,-z
4 1/2+x,1/2-y,1/2+z
_cell_length_a                   5.8734(9)
_cell_length_b                   10.5573(15)
_cell_length_c                   14.863(2)
_cell_angle_alpha                90.00
_cell_angle_beta                 96.691(2)
_cell_angle_gamma                90.00
_cell_volume                     915.337
loop_
_atom_site_label
_atom_site_type_symbol
_atom_site_fract_x
_atom_site_fract_y
_atom_site_fract_z
Na1 Na -0.12084(19) 0.74804(11) 0.17692(8)
Mn1 Mn 0.40879(7) -0.44459(4) 0.24413(3)
Mn2 Mn 0.5000 0.0000 0.5000
P1 P 0.56968(15) -0.31512(8) 0.45438(6)
O1 O 0.5060(4) -0.17935(19) 0.43902(15)
O2 O 0.4502(4) -0.4116(2) 0.38934(14)
O3 O 0.5116(6) -0.3495(2) 0.55235(18)
H1 H 0.524(8) -0.417(4) 0.567(3)
O4 O 0.2914(3) -0.64151(19) 0.25700(14)
O5 O -0.0160(3) -0.75661(18) 0.27728(14)
O6 O -0.2716(3) -0.54646(19) 0.26404(16)
O7 O 0.0376(3) -0.43285(18) 0.24059(15)
O8 O 0.2167(4) -0.0668(2) 0.57574(14)
O9 O -0.1546(3) -0.0388(2) 0.59019(14)
C1 C 0.8735(7) -0.3336(4) 0.4540(3)
C2 C 0.0850(5) -0.6553(3) 0.26357(19)
C3 C -0.0645(5) -0.5338(3) 0.25461(19)
C4 C 0.0184(5) -0.0309(3) 0.5477(2)
Mn1B Mn 0.59121(7) 0.44459(4) 0.75587(3)
Mn1A Mn 0.09121(7) -0.94459(4) 0.25587(3)
Mn1_2 Mn -0.59121(7) -0.44459(4) 0.24413(3)
Mn1C Mn -0.09121(7) -0.05541(4) 0.74413(3)
Mn1A_2 Mn 0.09121(7) 0.05541(4) 0.25587(3)
Mn1A_3 Mn 1.09121(7) 0.05541(4) 0.25587(3)
Mn2_2 Mn -0.5000 0.0000 0.5000
P1B P 0.43032(15) 0.31512(8) 0.54562(6)
O1B O 0.4940(4) 0.17935(19) 0.56098(15)
O2B O 0.5498(4) 0.4116(2) 0.61066(14)
O3B O 0.4884(6) 0.3495(2) 0.44765(18)
H1B H 0.476(8) 0.417(4) 0.433(3)
O4A O 0.2086(3) -0.14151(19) 0.24300(14)
O4B O 0.7086(3) 0.64151(19) 0.74300(14)
O5A O 0.5160(3) -0.25661(18) 0.22272(14)
O5C O 0.4840(3) 0.25661(18) 0.77728(14)
O6A O 0.7716(3) -0.04646(19) 0.23596(16)
O6_2 O 0.7284(3) -0.54646(19) 0.26404(16)
O6B O 0.2716(3) 0.54646(19) 0.73596(16)
O7A O 0.4624(3) 0.06715(18) 0.25941(15)
O7B O 0.9624(3) 0.43285(18) 0.75941(15)
O8B O -0.2167(4) 0.0668(2) 0.42426(14)
O8B_2 O 0.7833(4) 0.0668(2) 0.42426(14)
O9B O 0.1546(3) 0.0388(2) 0.40981(14)
O9C O 0.3454(3) -0.4612(2) 0.09019(14)
O9_2 O 0.8454(3) -0.0388(2) 0.59019(14)
O9A O 0.6546(3) 0.4612(2) 0.90981(14)
C1B C 0.1265(7) 0.3336(4) 0.5460(3)
C2A C 0.4150(5) -0.1553(3) 0.23643(19)
C3A C 0.5645(5) -0.0338(3) 0.24539(19)
C4B C -0.0184(5) 0.0309(3) 0.4523(2)
loop_
_geom_bond_atom_site_label_1
_geom_bond_atom_site_label_2
_geom_bond_site_symmetry_1
_geom_bond_site_symmetry_2
Mn1 O2 1_555 1_555
Mn2 O1 1_555 1_555
P1 O1 1_555 1_555
O2 P1 1_555 1_555
O3 P1 1_555 1_555
H1 O3 1_555 1_555
O4 Mn1 1_555 1_555
O5 C2 1_555 1_555
O6 C3 1_555 1_555
O7 Mn1 1_555 1_555
O8 Mn2 1_555 1_555
O9 C4 1_555 1_555
C1 P1 1_555 1_555
C2 O4 1_555 1_555
C3 O7 1_555 1_555
C4 O8 1_555 1_555
Mn1B O2B 1_555 1_555
Mn1A O5 1_555 1_555
Mn1_2 O6 1_555 1_555
Mn1C O9 1_555 1_555
Mn1A_2 O4A 1_555 1_555
Mn1A_3 O6A 1_555 1_555
Mn2_2 O9 1_555 1_555
P1B O1B 1_555 1_555
O1B Mn2 1_555 1_555
O2B P1B 1_555 1_555
O3B P1B 1_555 1_555
H1B O3B 1_555 1_555
O4A C2A 1_555 1_555
O4B Mn1B 1_555 1_555
O5A Mn1 1_555 1_555
O5C Mn1B 1_555 1_555
O6A C3A 1_555 1_555
O6_2 Mn1 1_555 1_555
O6B Mn1B 1_555 1_555
O7A Mn1A_2 1_555 1_555
O7B Mn1B 1_555 1_555
O8B Mn2_2 1_555 1_555
O8B_2 Mn2 1_555 1_555
O9B Mn2 1_555 1_555
O9C Mn1 1_555 1_555
O9_2 Mn2 1_555 1_555
O9A Mn1B 1_555 1_555
C1B P1B 1_555 1_555
C2A O5A 1_555 1_555
C3A O7A 1_555 1_555
C4B C4 1_555 1_555
C2 C3 1_555 1_555
Mn1A_2 O9B 1_555 1_555
O8B C4B 1_555 1_555
O9B C4B 1_555 1_555
C2A C3A 1_555 1_555

#END
