
#######################################################################
#
#                 Cambridge Crystallographic Data Centre
#                                CCDC 
#
#######################################################################
#
# If this CIF has been generated from an entry in the Cambridge 
# Structural Database, then it will include bibliographic, chemical, 
# crystal, experimental, refinement or atomic coordinate data resulting 
# from the CCDC's data processing and validation procedures.
#
#######################################################################

data_WEMMOS
_symmetry_cell_setting           triclinic
_symmetry_space_group_name_H-M   'P -1'
_symmetry_Int_Tables_number      2
_space_group_name_Hall           '-P 1'
loop_
_symmetry_equiv_pos_site_id
_symmetry_equiv_pos_as_xyz
1 x,y,z
2 -x,-y,-z
_cell_length_a                   8.8495(14)
_cell_length_b                   12.1336(19)
_cell_length_c                   12.559(2)
_cell_angle_alpha                80.603(7)
_cell_angle_beta                 89.677(7)
_cell_angle_gamma                81.090(7)
_cell_volume                     1314.12
loop_
_atom_site_label
_atom_site_type_symbol
_atom_site_fract_x
_atom_site_fract_y
_atom_site_fract_z
Ag1 Ag -0.01486(7) 0.61534(5) 0.04566(5)
Ag2 Ag -0.5000 1.0000 -0.5000
S1 S -0.2746(2) 0.71700(17) -0.06760(16)
S2 S 0.2885(2) 0.58795(17) 0.02134(16)
S3 S 0.1109(2) 0.51569(16) -0.19350(16)
S4 S -0.3126(3) 0.84204(19) -0.41923(18)
N1 N 0.0325(8) 0.7996(6) -0.0074(6)
C1 C -0.0800(9) 0.8746(7) -0.0629(7)
C2 C -0.0488(11) 0.9674(7) -0.1326(7)
H1 H -0.1297 1.0190 -0.1708
C3 C 0.1020(12) 0.9855(7) -0.1469(7)
H2 H 0.1245 1.0499 -0.1946
C4 C 0.2194(10) 0.9089(7) -0.0911(7)
H3 H 0.3234 0.9184 -0.1012
C5 C 0.1789(9) 0.8157(7) -0.0182(7)
C6 C 0.2976(9) 0.7293(7) 0.0454(8)
H4 H 0.4003 0.7482 0.0262
H5 H 0.2836 0.7320 0.1233
C7 C 0.3451(10) 0.6037(7) -0.1182(7)
H6 H 0.4555 0.6093 -0.1215
H7 H 0.2884 0.6752 -0.1578
C8 C 0.3163(9) 0.5077(7) -0.1737(7)
H8 H 0.3673 0.5130 -0.2444
H9 H 0.3588 0.4346 -0.1291
C9 C 0.1019(10) 0.4595(7) -0.3197(7)
H10 H 0.1430 0.3777 -0.3085
H11 H 0.1624 0.4992 -0.3759
C10 C -0.0635(10) 0.4792(7) -0.3530(6)
C11 C -0.1575(12) 0.4004(8) -0.3220(9)
H12 H -0.1158 0.3279 -0.2840
C12 C -0.3163(13) 0.4265(10) -0.3463(10)
H13 H -0.3806 0.3707 -0.3278
C13 C -0.3756(10) 0.5313(9) -0.3961(8)
H14 H -0.4830 0.5499 -0.4081
C14 C -0.2842(10) 0.6122(8) -0.4299(7)
C15 C -0.1265(9) 0.5849(7) -0.4081(7)
H15 H -0.0618 0.6394 -0.4314
C16 C -0.3534(11) 0.7265(8) -0.4853(7)
H16 H -0.3154 0.7379 -0.5600
H17 H -0.4657 0.7297 -0.4898
C17 C -0.3703(10) 0.8045(8) -0.2797(6)
H18 H -0.4610 0.7658 -0.2784
H19 H -0.3991 0.8742 -0.2481
C18 C -0.2421(9) 0.7278(7) -0.2124(6)
H20 H -0.2315 0.6514 -0.2323
H21 H -0.1448 0.7572 -0.2291
C19 C -0.2387(10) 0.8536(7) -0.0421(8)
H22 H -0.2620 0.8595 0.0342
H23 H -0.3096 0.9135 -0.0880
Ag1A Ag -0.98514(7) 1.38466(5) -1.04566(5)
Ag1A_2 Ag 0.01486(7) 0.38466(5) -0.04566(5)
Ag1_2 Ag -1.01486(7) 1.61534(5) -0.95434(5)
S1A S -0.7254(2) 1.28300(17) -0.93240(16)
S2A S -1.2885(2) 1.41205(17) -1.02134(16)
S3A S -1.1109(2) 1.48431(16) -0.80650(16)
S3A_2 S -0.1109(2) 0.48431(16) 0.19350(16)
S3_2 S -0.8891(2) 1.51569(16) -1.19350(16)
S4A S -0.6874(3) 1.15796(19) -0.58077(18)
N1A N -1.0325(8) 1.2004(6) -0.9926(6)
C1A C -0.9200(9) 1.1254(7) -0.9371(7)
C2A C -0.9512(11) 1.0326(7) -0.8674(7)
H1A H -0.8703 0.9810 -0.8292
C3A C -1.1020(12) 1.0145(7) -0.8531(7)
H2A H -1.1245 0.9501 -0.8054
C4A C -1.2194(10) 1.0911(7) -0.9089(7)
H3A H -1.3234 1.0816 -0.8988
C5A C -1.1789(9) 1.1843(7) -0.9818(7)
C6A C -1.2976(9) 1.2707(7) -1.0454(8)
H4A H -1.4003 1.2518 -1.0262
H5A H -1.2836 1.2680 -1.1233
C7A C -1.3451(10) 1.3963(7) -0.8818(7)
H6A H -1.4555 1.3907 -0.8785
H7A H -1.2884 1.3248 -0.8422
C8A C -1.3163(9) 1.4923(7) -0.8263(7)
H8A H -1.3673 1.4870 -0.7556
H9A H -1.3588 1.5654 -0.8709
C9A C -1.1019(10) 1.5405(7) -0.6803(7)
H10A H -1.1430 1.6223 -0.6915
H11A H -1.1624 1.5008 -0.6241
C10A C -0.9365(10) 1.5208(7) -0.6470(6)
C11A C -0.8425(12) 1.5996(8) -0.6780(9)
H12A H -0.8842 1.6721 -0.7160
C12A C -0.6837(13) 1.5735(10) -0.6537(10)
H13A H -0.6194 1.6293 -0.6722
C13A C -0.6244(10) 1.4687(9) -0.6039(8)
H14A H -0.5170 1.4501 -0.5919
C14A C -0.7158(10) 1.3878(8) -0.5701(7)
C15A C -0.8735(9) 1.4151(7) -0.5919(7)
H15A H -0.9382 1.3606 -0.5686
C16A C -0.6466(11) 1.2735(8) -0.5147(7)
H16A H -0.6846 1.2621 -0.4400
H17A H -0.5343 1.2703 -0.5102
C17A C -0.6297(10) 1.1955(8) -0.7203(6)
H18A H -0.5390 1.2342 -0.7216
H19A H -0.6009 1.1258 -0.7519
C18A C -0.7579(9) 1.2722(7) -0.7876(6)
H20A H -0.7685 1.3486 -0.7677
H21A H -0.8552 1.2428 -0.7709
C19A C -0.7613(10) 1.1464(7) -0.9579(8)
H22A H -0.7380 1.1405 -1.0342
H23A H -0.6904 1.0865 -0.9120
Cl1 Cl 0.4795(2) 0.13666(17) 0.76513(16)
O1 O 0.3935(12) 0.0754(7) 0.7054(7)
O2 O 0.4007(11) 0.2465(6) 0.7687(7)
O3 O 0.5099(9) 0.0756(6) 0.8726(6)
O4 O 0.6207(11) 0.1485(9) 0.7127(8)
O5 O 0.726(3) 0.311(2) 0.397(2)
N2 N 0.8673(18) 0.1389(15) 0.4751(14)
C20 C 0.782(2) 0.2447(19) 0.4613(19)
H24 H 0.7781 0.2875 0.5184
C21 C 0.894(3) 0.079(2) 0.387(2)
H25 H 0.9517 0.0041 0.4121
H26 H 0.9528 0.1212 0.3323
H27 H 0.7959 0.0721 0.3551
C22 C 0.945(3) 0.094(2) 0.5772(18)
H28 H 0.8697 0.0921 0.6350
H29 H 1.0190 0.1426 0.5908
Cl2? Cl 0.8124(5) 0.1992(4) 0.4079(4)
O6? O 0.737(4) 0.109(3) 0.418(3)
O7? O 0.920(2) 0.2006(17) 0.3194(18)
O8? O 0.900(3) 0.186(3) 0.504(2)
O9? O 0.706(2) 0.2879(15) 0.3726(14)
H30? H 0.9980 0.0175 0.5754
loop_
_geom_bond_atom_site_label_1
_geom_bond_atom_site_label_2
_geom_bond_site_symmetry_1
_geom_bond_site_symmetry_2
Ag1 S1 1_555 1_555
Ag2 S4 1_555 1_555
S1 C18 1_555 1_555
S2 Ag1 1_555 1_555
S3 C8 1_555 1_555
S4 C16 1_555 1_555
N1 Ag1 1_555 1_555
C1 N1 1_555 1_555
C2 C1 1_555 1_555
H1 C2 1_555 1_555
C3 C2 1_555 1_555
H2 C3 1_555 1_555
C4 C3 1_555 1_555
H3 C4 1_555 1_555
C5 N1 1_555 1_555
C6 S2 1_555 1_555
H4 C6 1_555 1_555
H5 C6 1_555 1_555
C7 S2 1_555 1_555
H6 C7 1_555 1_555
H7 C7 1_555 1_555
C8 C7 1_555 1_555
H8 C8 1_555 1_555
H9 C8 1_555 1_555
C9 S3 1_555 1_555
H10 C9 1_555 1_555
H11 C9 1_555 1_555
C10 C9 1_555 1_555
C11 C10 1_555 1_555
H12 C11 1_555 1_555
C12 C11 1_555 1_555
H13 C12 1_555 1_555
C13 C12 1_555 1_555
H14 C13 1_555 1_555
C14 C13 1_555 1_555
C15 C10 1_555 1_555
H15 C15 1_555 1_555
C16 C14 1_555 1_555
H16 C16 1_555 1_555
H17 C16 1_555 1_555
C17 S4 1_555 1_555
H18 C17 1_555 1_555
H19 C17 1_555 1_555
C18 C17 1_555 1_555
H20 C18 1_555 1_555
H21 C18 1_555 1_555
C19 S1 1_555 1_555
H22 C19 1_555 1_555
H23 C19 1_555 1_555
Cl1 O1 1_555 1_555
O2 Cl1 1_555 1_555
O3 Cl1 1_555 1_555
O4 Cl1 1_555 1_555
O5 C20 1_555 1_555
N2 C20 1_555 1_555
C20 H24 1_555 1_555
C21 N2 1_555 1_555
H25 C21 1_555 1_555
H26 C21 1_555 1_555
H27 C21 1_555 1_555
C22 N2 1_555 1_555
H28 C22 1_555 1_555
H29 C22 1_555 1_555
Ag1A S1A 1_555 1_555
Ag1A_2 S3 1_555 1_555
Ag1_2 S3A 1_555 1_555
S1A C18A 1_555 1_555
S2A Ag1A 1_555 1_555
S3A C8A 1_555 1_555
S3A_2 Ag1 1_555 1_555
S3_2 Ag1A 1_555 1_555
S4A Ag2 1_555 1_555
N1A Ag1A 1_555 1_555
C1A N1A 1_555 1_555
C2A C1A 1_555 1_555
H1A C2A 1_555 1_555
C3A C2A 1_555 1_555
H2A C3A 1_555 1_555
C4A C3A 1_555 1_555
H3A C4A 1_555 1_555
C5A N1A 1_555 1_555
C6A S2A 1_555 1_555
H4A C6A 1_555 1_555
H5A C6A 1_555 1_555
C7A S2A 1_555 1_555
H6A C7A 1_555 1_555
H7A C7A 1_555 1_555
C8A C7A 1_555 1_555
H8A C8A 1_555 1_555
H9A C8A 1_555 1_555
C9A S3A 1_555 1_555
H10A C9A 1_555 1_555
H11A C9A 1_555 1_555
C10A C9A 1_555 1_555
C11A C10A 1_555 1_555
H12A C11A 1_555 1_555
C12A C11A 1_555 1_555
H13A C12A 1_555 1_555
C13A C12A 1_555 1_555
H14A C13A 1_555 1_555
C14A C13A 1_555 1_555
C15A C10A 1_555 1_555
H15A C15A 1_555 1_555
C16A S4A 1_555 1_555
H16A C16A 1_555 1_555
H17A C16A 1_555 1_555
C17A S4A 1_555 1_555
H18A C17A 1_555 1_555
H19A C17A 1_555 1_555
C18A C17A 1_555 1_555
H20A C18A 1_555 1_555
H21A C18A 1_555 1_555
C19A S1A 1_555 1_555
H22A C19A 1_555 1_555
H23A C19A 1_555 1_555
C1 C19 1_555 1_555
C4 C5 1_555 1_555
C5 C6 1_555 1_555
C14 C15 1_555 1_555
C1A C19A 1_555 1_555
C4A C5A 1_555 1_555
C5A C6A 1_555 1_555
C14A C15A 1_555 1_555
C14A C16A 1_555 1_555

#END
