
#######################################################################
#
#                 Cambridge Crystallographic Data Centre
#                                CCDC 
#
#######################################################################
#
# If this CIF has been generated from an entry in the Cambridge 
# Structural Database, then it will include bibliographic, chemical, 
# crystal, experimental, refinement or atomic coordinate data resulting 
# from the CCDC's data processing and validation procedures.
#
#######################################################################

data_WEMMIM
_symmetry_cell_setting           orthorhombic
_symmetry_space_group_name_H-M   'P b c m'
_symmetry_Int_Tables_number      57
_space_group_name_Hall           '-P 2c 2b'
loop_
_symmetry_equiv_pos_site_id
_symmetry_equiv_pos_as_xyz
1 x,y,z
2 -x,-y,1/2+z
3 -x,1/2+y,1/2-z
4 x,1/2-y,-z
5 -x,-y,-z
6 x,y,1/2-z
7 x,1/2-y,1/2+z
8 -x,1/2+y,z
_cell_length_a                   10.6675(5)
_cell_length_b                   21.4119(9)
_cell_length_c                   24.6267(14)
_cell_angle_alpha                90
_cell_angle_beta                 90
_cell_angle_gamma                90
_cell_volume                     5625.02
loop_
_atom_site_label
_atom_site_type_symbol
_atom_site_fract_x
_atom_site_fract_y
_atom_site_fract_z
Ag1 Ag -0.16177(5) -0.03170(2) 0.49222(2)
Ag2 Ag 0.02999(7) -0.2500 0.5000
N1 N -0.3061(4) -0.0595(2) 0.42499(19)
S1 S -0.17518(14) 0.07213(6) 0.42938(6)
S2 S -0.11094(14) -0.15235(6) 0.46948(6)
S3 S 0.06569(14) -0.27024(6) 0.40198(6)
S4 S 0.10431(13) 0.00138(6) 0.41461(6)
C1 C -0.3467(5) -0.0161(3) 0.3902(2)
C2 C -0.4066(6) -0.0316(3) 0.3433(3)
H1 H -0.4353 0.0000 0.3193
C3 C -0.4250(6) -0.0934(3) 0.3311(3)
H2 H -0.4670 -0.1050 0.2986
C4 C -0.3821(6) -0.1386(3) 0.3662(3)
H3 H -0.3934 -0.1817 0.3584
C5 C -0.3227(5) -0.1199(3) 0.4129(2)
C6 C -0.2741(5) -0.1664(3) 0.4526(2)
H4 H -0.3251 -0.1646 0.4861
H5 H -0.2826 -0.2089 0.4371
C7 C -0.0418(5) -0.1493(2) 0.4025(2)
H6 H 0.0440 -0.1321 0.4058
H7 H -0.0911 -0.1197 0.3801
C8 C -0.0344(5) -0.2109(2) 0.3728(2)
H8 H -0.1203 -0.2282 0.3701
H9 H -0.0051 -0.2026 0.3353
C9 C 0.2191(5) -0.2504(2) 0.3745(3)
H10 H 0.2116 -0.2457 0.3347
H11 H 0.2771 -0.2856 0.3815
C10 C 0.2755(5) -0.1921(3) 0.3973(2)
C11 C 0.3494(5) -0.1953(3) 0.4431(3)
H12 H 0.3707 -0.2349 0.4578
C12 C 0.3927(5) -0.1416(3) 0.4678(3)
H13 H 0.4434 -0.1442 0.4994
C13 C 0.3619(5) -0.0844(3) 0.4463(3)
H14 H 0.3904 -0.0473 0.4636
C14 C 0.2903(5) -0.0803(3) 0.4000(2)
C15 C 0.2507(5) -0.1346(2) 0.3750(2)
H15 H 0.2056 -0.1322 0.3419
C16 C 0.2477(6) -0.0187(3) 0.3781(3)
H16 H 0.3127 0.0135 0.3841
H17 H 0.2311 -0.0218 0.3387
C17 C 0.0487(5) 0.0680(2) 0.3758(2)
H18 H 0.0927 0.0694 0.3404
H19 H 0.0683 0.1070 0.3957
C18 C -0.0903(5) 0.0640(3) 0.3663(2)
H20 H -0.1163 0.0973 0.3409
H21 H -0.1108 0.0232 0.3495
C19 C -0.3293(5) 0.0512(3) 0.4055(3)
H22 H -0.3491 0.0772 0.3734
H23 H -0.3908 0.0617 0.4341
Ag1C Ag -0.16177(5) -0.46830(2) 0.50778(2)
Ag1D Ag 0.16177(5) 0.03170(2) 0.50778(2)
Ag1G Ag 0.16177(5) -0.53170(2) 0.49222(2)
N1C N -0.3061(4) -0.4405(2) 0.57501(19)
S1C S -0.17518(14) -0.57213(6) 0.57062(6)
S2C S -0.11094(14) -0.34765(6) 0.53052(6)
S3C S 0.06569(14) -0.22976(6) 0.59802(6)
S4C S 0.10431(13) -0.50138(6) 0.58539(6)
S4D S -0.10431(13) -0.00138(6) 0.58539(6)
S4G S -0.10431(13) -0.49862(6) 0.41461(6)
C1C C -0.3467(5) -0.4839(3) 0.6098(2)
C2C C -0.4066(6) -0.4684(3) 0.6567(3)
H1C H -0.4353 -0.5000 0.6807
C3C C -0.4250(6) -0.4066(3) 0.6689(3)
H2C H -0.4670 -0.3950 0.7014
C4C C -0.3821(6) -0.3614(3) 0.6338(3)
H3C H -0.3934 -0.3183 0.6416
C5C C -0.3227(5) -0.3801(3) 0.5871(2)
C6C C -0.2741(5) -0.3336(3) 0.5474(2)
H4C H -0.3251 -0.3354 0.5139
H5C H -0.2826 -0.2911 0.5629
C7C C -0.0418(5) -0.3507(2) 0.5975(2)
H6C H 0.0440 -0.3679 0.5942
H7C H -0.0911 -0.3803 0.6199
C8C C -0.0344(5) -0.2891(2) 0.6272(2)
H8C H -0.1203 -0.2718 0.6299
H9C H -0.0051 -0.2974 0.6647
C9C C 0.2191(5) -0.2496(2) 0.6255(3)
H10C H 0.2116 -0.2543 0.6653
H11C H 0.2771 -0.2144 0.6185
C10C C 0.2755(5) -0.3079(3) 0.6027(2)
C11C C 0.3494(5) -0.3047(3) 0.5569(3)
H12C H 0.3707 -0.2651 0.5422
C12C C 0.3927(5) -0.3584(3) 0.5322(3)
H13C H 0.4434 -0.3558 0.5006
C13C C 0.3619(5) -0.4156(3) 0.5537(3)
H14C H 0.3904 -0.4527 0.5364
C14C C 0.2903(5) -0.4197(3) 0.6000(2)
C15C C 0.2507(5) -0.3654(2) 0.6250(2)
H15C H 0.2056 -0.3678 0.6581
C16C C 0.2477(6) -0.4813(3) 0.6219(3)
H16C H 0.3127 -0.5135 0.6159
H17C H 0.2311 -0.4782 0.6613
C17C C 0.0487(5) -0.5680(2) 0.6242(2)
H18C H 0.0927 -0.5694 0.6596
H19C H 0.0683 -0.6070 0.6043
C18C C -0.0903(5) -0.5640(3) 0.6337(2)
H20C H -0.1163 -0.5973 0.6591
H21C H -0.1108 -0.5232 0.6505
C19C C -0.3293(5) -0.5512(3) 0.5945(3)
H22C H -0.3491 -0.5772 0.6266
H23C H -0.3908 -0.5617 0.5659
C20 C 0.1731(10) 0.1865(5) 0.2500
H24 H 0.2053 0.1645 0.2175
Cl2 Cl 0.0093(3) 0.18330(13) 0.2500
Cl3 Cl 0.2293(3) 0.26306(14) 0.2500
H24E H 0.2053 0.1645 0.2825
C21 C -0.4499(9) 0.1971(5) 0.2500
H25 H -0.5025 0.1897 0.2825
Cl4 Cl -0.3248(3) 0.14415(13) 0.2500
Cl5 Cl -0.3995(3) 0.27451(13) 0.2500
H25E H -0.5025 0.1897 0.2175
O1 O 0.3855(4) 0.39466(19) 0.56662(18)
O2 O 0.3693(5) 0.3760(2) 0.6588(2)
O3 O 0.2582(4) 0.3147(2) 0.5981(2)
O4 O 0.4743(5) 0.3053(2) 0.6038(3)
Cl1 Cl 0.37258(14) 0.34693(6) 0.60705(6)
O5 O -0.0774(11) 0.3787(6) 0.2500
O6 O 0.0713(8) 0.4282(3) 0.2041(3)
O7 O -0.0533(12) 0.4913(6) 0.2500
Cl6 Cl 0.0039(3) 0.43129(13) 0.2500
O6E O 0.0713(8) 0.4282(3) 0.2959(3)
O8 O -0.3442(17) 0.4572(9) 0.2500
C22 C -0.343(2) 0.5318(12) 0.2500
H26? H -0.3868 0.4443 0.2236
H27? H -0.4114 0.5474 0.2727
H28? H -0.3532 0.5471 0.2128
H29? H -0.2626 0.5466 0.2646
loop_
_geom_bond_atom_site_label_1
_geom_bond_atom_site_label_2
_geom_bond_site_symmetry_1
_geom_bond_site_symmetry_2
Ag1 N1 1_555 1_555
Ag2 S2 1_555 1_555
N1 C1 1_555 1_555
S1 Ag1 1_555 1_555
S2 Ag1 1_555 1_555
S3 Ag2 1_555 1_555
S4 C16 1_555 1_555
C1 C2 1_555 1_555
C2 H1 1_555 1_555
C3 C2 1_555 1_555
H2 C3 1_555 1_555
C4 C3 1_555 1_555
H3 C4 1_555 1_555
C5 N1 1_555 1_555
C6 S2 1_555 1_555
H4 C6 1_555 1_555
H5 C6 1_555 1_555
C7 S2 1_555 1_555
H6 C7 1_555 1_555
H7 C7 1_555 1_555
C8 S3 1_555 1_555
H8 C8 1_555 1_555
H9 C8 1_555 1_555
C9 S3 1_555 1_555
H10 C9 1_555 1_555
H11 C9 1_555 1_555
C10 C9 1_555 1_555
C11 C10 1_555 1_555
H12 C11 1_555 1_555
C12 C11 1_555 1_555
H13 C12 1_555 1_555
C13 C12 1_555 1_555
H14 C13 1_555 1_555
C14 C13 1_555 1_555
C15 C10 1_555 1_555
H15 C15 1_555 1_555
C16 C14 1_555 1_555
H16 C16 1_555 1_555
H17 C16 1_555 1_555
C17 S4 1_555 1_555
H18 C17 1_555 1_555
H19 C17 1_555 1_555
C18 S1 1_555 1_555
H20 C18 1_555 1_555
H21 C18 1_555 1_555
C19 S1 1_555 1_555
H22 C19 1_555 1_555
H23 C19 1_555 1_555
C20 H24 1_555 1_555
C21 H25 1_555 1_555
O1 Cl1 1_555 1_555
O2 Cl1 1_555 1_555
O3 Cl1 1_555 1_555
O4 Cl1 1_555 1_555
O5 Cl6 1_555 1_555
O6 Cl6 1_555 1_555
O7 Cl6 1_555 1_555
Cl2 C20 1_555 1_555
Cl3 C20 1_555 1_555
Cl4 C21 1_555 1_555
Cl5 C21 1_555 1_555
Cl6 O6E 1_555 1_555
O8 C22 1_555 1_555
Ag1C N1C 1_555 1_555
Ag1D S4 1_555 1_555
Ag1G S4C 1_555 1_555
N1C C1C 1_555 1_555
S1C Ag1C 1_555 1_555
S2C Ag2 1_555 1_555
S3C Ag2 1_555 1_555
S4C C16C 1_555 1_555
S4D Ag1 1_555 1_555
S4G Ag1C 1_555 1_555
C1C C2C 1_555 1_555
C2C H1C 1_555 1_555
C3C C2C 1_555 1_555
H2C C3C 1_555 1_555
C4C C3C 1_555 1_555
H3C C4C 1_555 1_555
C5C N1C 1_555 1_555
C6C S2C 1_555 1_555
H4C C6C 1_555 1_555
H5C C6C 1_555 1_555
C7C S2C 1_555 1_555
H6C C7C 1_555 1_555
H7C C7C 1_555 1_555
C8C S3C 1_555 1_555
H8C C8C 1_555 1_555
H9C C8C 1_555 1_555
C9C S3C 1_555 1_555
H10C C9C 1_555 1_555
H11C C9C 1_555 1_555
C10C C9C 1_555 1_555
C11C C10C 1_555 1_555
H12C C11C 1_555 1_555
C12C C11C 1_555 1_555
H13C C12C 1_555 1_555
C13C C12C 1_555 1_555
H14C C13C 1_555 1_555
C14C C13C 1_555 1_555
C15C C10C 1_555 1_555
H15C C15C 1_555 1_555
C16C C14C 1_555 1_555
H16C C16C 1_555 1_555
H17C C16C 1_555 1_555
C17C S4C 1_555 1_555
H18C C17C 1_555 1_555
H19C C17C 1_555 1_555
C18C S1C 1_555 1_555
H20C C18C 1_555 1_555
H21C C18C 1_555 1_555
C19C S1C 1_555 1_555
H22C C19C 1_555 1_555
H23C C19C 1_555 1_555
H24E C20 1_555 1_555
H25E C21 1_555 1_555
C1 C19 1_555 1_555
C4 C5 1_555 1_555
C5 C6 1_555 1_555
C7 C8 1_555 1_555
C14 C15 1_555 1_555
C17 C18 1_555 1_555
Ag1C S2C 1_555 1_555
C1C C19C 1_555 1_555
C4C C5C 1_555 1_555
C5C C6C 1_555 1_555
C7C C8C 1_555 1_555
C14C C15C 1_555 1_555
C17C C18C 1_555 1_555

#END
