
#######################################################################
#
#                 Cambridge Crystallographic Data Centre
#                                CCDC 
#
#######################################################################
#
# If this CIF has been generated from an entry in the Cambridge 
# Structural Database, then it will include bibliographic, chemical, 
# crystal, experimental, refinement or atomic coordinate data resulting 
# from the CCDC's data processing and validation procedures.
#
#######################################################################

data_WEMMUY
_symmetry_cell_setting           monoclinic
_symmetry_space_group_name_H-M   'P 21/n'
_symmetry_Int_Tables_number      14
_space_group_name_Hall           '-P 2yn'
loop_
_symmetry_equiv_pos_site_id
_symmetry_equiv_pos_as_xyz
1 x,y,z
2 1/2-x,1/2+y,1/2-z
3 -x,-y,-z
4 1/2+x,1/2-y,1/2+z
_cell_length_a                   12.6680(5)
_cell_length_b                   9.6186(4)
_cell_length_c                   20.4254(8)
_cell_angle_alpha                90
_cell_angle_beta                 95.966(4)
_cell_angle_gamma                90
_cell_volume                     2475.32
loop_
_atom_site_label
_atom_site_type_symbol
_atom_site_fract_x
_atom_site_fract_y
_atom_site_fract_z
Zn1 Zn 0.74539(3) 0.56324(4) -0.174789(19)
Zn2 Zn 0.89892(3) 0.40876(4) 0.055242(19)
S1 S 0.90705(6) 0.37792(9) -0.08847(4)
C1 C 0.6073(2) 1.0128(3) -0.00728(16)
C2 C 0.5747(2) 0.9307(3) 0.04301(16)
C3 C 0.5336(3) 1.0847(3) -0.04930(16)
C4 C 0.7242(2) 1.0223(4) -0.01657(19)
H1 H 0.7398 1.1142 -0.0325
H2 H 0.7661 1.0083 0.0254
C5 C 0.7032(2) 0.8102(3) -0.09079(16)
H3 H 0.6335 0.7859 -0.0856
C6 C 0.8569(3) 0.8123(4) -0.1176(2)
H4 H 0.9174 0.7864 -0.1367
C7 C 0.6558(3) 0.8623(4) 0.09181(18)
H5 H 0.7165 0.9236 0.1006
H6 H 0.6253 0.8475 0.1329
C8 C 0.7872(3) 0.6767(4) 0.07241(18)
H7 H 0.8484 0.7224 0.0901
C9 C 0.6800(3) 0.5304(4) 0.0292(2)
H8 H 0.6535 0.4483 0.0099
C10 C 0.5700(3) 1.1866(4) -0.09902(18)
H9 H 0.6328 1.2346 -0.0794
H10 H 0.5149 1.2556 -0.1093
C11 C 0.6719(3) 1.1453(4) -0.19631(17)
H11 H 0.7275 1.2068 -0.1851
C12 C 0.5702(3) 0.9987(5) -0.2435(2)
H12 H 0.5414 0.9350 -0.2746
C13 C 0.3274(2) 0.3616(3) -0.30314(16)
C14 C 0.4235(3) 0.3985(4) -0.27031(18)
H13 H 0.4857 0.3650 -0.2851
C15 C 0.4296(3) 0.4838(4) -0.21607(18)
C16 C 0.3373(3) 0.5301(4) -0.1933(2)
H14 H 0.3401 0.5870 -0.1564
C17 C 0.2411(3) 0.4920(4) -0.2255(2)
H15 H 0.1788 0.5227 -0.2098
C18 C 0.2355(3) 0.4095(4) -0.28018(18)
H16 H 0.1698 0.3858 -0.3019
C19 C 0.3249(3) 0.2763(3) -0.36383(16)
C20 C 0.5363(3) 0.5280(4) -0.1846(2)
N1 N 0.7659(2) 0.7413(3) -0.12665(14)
N2 N 0.7532(2) 0.9179(3) -0.06347(14)
N3 N 0.8540(3) 0.9206(4) -0.0797(2)
N4 N 0.7840(2) 0.5499(3) 0.04867(15)
N5 N 0.6912(2) 0.7293(3) 0.06740(14)
N6 N 0.6201(2) 0.6358(3) 0.03967(17)
N7 N 0.6596(2) 1.0708(3) -0.25067(14)
N8 N 0.5942(2) 1.1201(3) -0.16019(13)
N9 N 0.5279(3) 1.0252(4) -0.19013(16)
O1 O 0.40923(18) 0.2055(3) -0.36880(12)
O2 O 0.24713(19) 0.2739(3) -0.40474(12)
O3 O 0.5443(3) 0.5927(5) -0.13345(19)
O4 O 0.6137(2) 0.4924(3) -0.21376(15)
O5 O 0.79997(19) 0.4036(3) -0.11992(14)
O6 O 0.8972(2) 0.3043(2) -0.02657(11)
O7 O 0.95555(19) 0.5140(3) -0.07331(14)
O8 O 0.9675(2) 0.2978(3) -0.12970(14)
Zn1B Zn 0.25461(3) 1.43676(4) 0.174789(19)
Zn1A Zn 0.75461(3) 1.06324(4) -0.325211(19)
Zn1C Zn 0.24539(3) 0.93676(4) 0.325211(19)
Zn1C_2 Zn 1.24539(3) -0.06324(4) 0.325211(19)
Zn1B_2 Zn 1.25461(3) 0.43676(4) 0.174789(19)
Zn2B Zn 0.10108(3) 1.59124(4) -0.055242(19)
Zn2C Zn 0.39892(3) 0.09124(4) -0.444758(19)
Zn2B_2 Zn 1.10108(3) 0.59124(4) -0.055242(19)
S1B S 1.09295(6) 0.62208(9) 0.08847(4)
C1B C 0.3927(2) 0.9872(3) 0.00728(16)
C2B C 0.4253(2) 1.0693(3) -0.04301(16)
C3B C 0.4664(3) 0.9153(3) 0.04930(16)
C4B C 0.2758(2) 0.9777(4) 0.01657(19)
H1B H 0.2602 0.8858 0.0325
H2B H 0.2339 0.9917 -0.0254
C5B C 0.2968(2) 1.1898(3) 0.09079(16)
H3B H 0.3665 1.2141 0.0856
C6B C 0.1431(3) 1.1877(4) 0.1176(2)
H4B H 0.0826 1.2136 0.1367
C7B C 0.3442(3) 1.1377(4) -0.09181(18)
H5B H 0.2835 1.0764 -0.1006
H6B H 0.3747 1.1525 -0.1329
C8B C 0.2128(3) 1.3233(4) -0.07241(18)
H7B H 0.1516 1.2776 -0.0901
C9B C 0.3200(3) 1.4696(4) -0.0292(2)
H8B H 0.3465 1.5517 -0.0099
C10B C 0.4300(3) 0.8134(4) 0.09902(18)
H9B H 0.3672 0.7654 0.0794
H10B H 0.4851 0.7444 0.1093
C11B C 0.3281(3) 0.8547(4) 0.19631(17)
H11B H 0.2725 0.7932 0.1851
C12B C 0.4298(3) 1.0013(5) 0.2435(2)
H12B H 0.4586 1.0650 0.2746
C13C C 0.8274(2) 0.1384(3) 0.19686(16)
C14C C 0.9235(3) 0.1015(4) 0.22969(18)
H13C H 0.9857 0.1350 0.2149
C15C C 0.9296(3) 0.0162(4) 0.28393(18)
C16C C 0.8373(3) -0.0301(4) 0.3067(2)
H14C H 0.8401 -0.0870 0.3436
C17C C 0.7411(3) 0.0080(4) 0.2745(2)
H15C H 0.6788 -0.0227 0.2902
C18C C 0.7355(3) 0.0905(4) 0.21982(18)
H16C H 0.6698 0.1142 0.1981
C19C C 0.8249(3) 0.2237(3) 0.13617(16)
C20C C 1.0363(3) -0.0280(4) 0.3154(2)
N1B N 0.2341(2) 1.2587(3) 0.12665(14)
N2B N 0.2468(2) 1.0821(3) 0.06347(14)
N3B N 0.1460(3) 1.0794(4) 0.0797(2)
N4B N 0.2160(2) 1.4501(3) -0.04867(15)
N5B N 0.3088(2) 1.2707(3) -0.06740(14)
N6B N 0.3799(2) 1.3642(3) -0.03967(17)
N7B N 0.3404(2) 0.9292(3) 0.25067(14)
N7A N 0.8404(2) 0.5708(3) -0.24933(14)
N7C N 0.1596(2) 1.4292(3) 0.24933(14)
N8B N 0.4058(2) 0.8799(3) 0.16019(13)
N9B N 0.4721(3) 0.9748(4) 0.19013(16)
O1C O 0.90923(18) 0.2945(3) 0.13120(12)
O1A O 0.09077(18) 1.7055(3) -0.13120(12)
O2C O 0.74713(19) 0.2261(3) 0.09526(12)
O3C O 1.0443(3) -0.0927(5) 0.36655(19)
O4C O 1.1137(2) 0.0076(3) 0.28624(15)
O4B O 0.3863(2) 1.5076(3) 0.21376(15)
O5B O 1.20003(19) 0.5964(3) 0.11992(14)
O5B_2 O 0.20003(19) 1.5964(3) 0.11992(14)
O6B O 1.1028(2) 0.6957(2) 0.02657(11)
O6B_2 O 0.1028(2) 1.6957(2) 0.02657(11)
O7B O 1.04445(19) 0.4860(3) 0.07331(14)
O7_2 O -0.04445(19) 1.5140(3) -0.07331(14)
O8B O 1.0325(2) 0.7022(3) 0.12970(14)
O9 O 0.9308(3) 0.9516(4) 0.0802(2)
H17 H 0.9546 0.9512 0.0420
H18 H 0.9854 0.9257 0.1061
loop_
_geom_bond_atom_site_label_1
_geom_bond_atom_site_label_2
_geom_bond_site_symmetry_1
_geom_bond_site_symmetry_2
Zn1 N1 1_555 1_555
Zn2 N4 1_555 1_555
S1 O5 1_555 1_555
C1 C2 1_555 1_555
C2 C7 1_555 1_555
C3 C1 1_555 1_555
C4 C1 1_555 1_555
H1 C4 1_555 1_555
H2 C4 1_555 1_555
C5 H3 1_555 1_555
C6 H4 1_555 1_555
C7 H5 1_555 1_555
H6 C7 1_555 1_555
C8 H7 1_555 1_555
C9 H8 1_555 1_555
C10 C3 1_555 1_555
H9 C10 1_555 1_555
H10 C10 1_555 1_555
C11 H11 1_555 1_555
C12 H12 1_555 1_555
C13 C14 1_555 1_555
C14 H13 1_555 1_555
C15 C14 1_555 1_555
C16 C15 1_555 1_555
H14 C16 1_555 1_555
C17 C16 1_555 1_555
H15 C17 1_555 1_555
C18 C13 1_555 1_555
H16 C18 1_555 1_555
C19 C13 1_555 1_555
C20 C15 1_555 1_555
N1 C5 1_555 1_555
N2 C4 1_555 1_555
N3 C6 1_555 1_555
N4 C8 1_555 1_555
N5 C7 1_555 1_555
N6 C9 1_555 1_555
N7 C11 1_555 1_555
N8 C10 1_555 1_555
N9 C12 1_555 1_555
O1 C19 1_555 1_555
O2 C19 1_555 1_555
O3 C20 1_555 1_555
O4 Zn1 1_555 1_555
O5 Zn1 1_555 1_555
O6 Zn2 1_555 1_555
O7 S1 1_555 1_555
O8 S1 1_555 1_555
O9 H17 1_555 1_555
H18 O9 1_555 1_555
Zn1B N1B 1_555 1_555
Zn1A N7 1_555 1_555
Zn1C N7B 1_555 1_555
Zn1C_2 O4C 1_555 1_555
Zn1B_2 O5B 1_555 1_555
Zn2B N4B 1_555 1_555
Zn2C O1 1_555 1_555
Zn2B_2 O7 1_555 1_555
S1B O5B 1_555 1_555
C1B C2B 1_555 1_555
C2B C3 1_555 1_555
C3B C2 1_555 1_555
C4B C1B 1_555 1_555
H1B C4B 1_555 1_555
H2B C4B 1_555 1_555
C5B H3B 1_555 1_555
C6B H4B 1_555 1_555
C7B C2B 1_555 1_555
H5B C7B 1_555 1_555
H6B C7B 1_555 1_555
C8B H7B 1_555 1_555
C9B H8B 1_555 1_555
C10B C3B 1_555 1_555
H9B C10B 1_555 1_555
H10B C10B 1_555 1_555
C11B H11B 1_555 1_555
C12B H12B 1_555 1_555
C13C C14C 1_555 1_555
C14C H13C 1_555 1_555
C15C C14C 1_555 1_555
C16C C15C 1_555 1_555
H14C C16C 1_555 1_555
C17C C16C 1_555 1_555
H15C C17C 1_555 1_555
C18C C13C 1_555 1_555
H16C C18C 1_555 1_555
C19C C13C 1_555 1_555
C20C C15C 1_555 1_555
N1B C5B 1_555 1_555
N2B C4B 1_555 1_555
N3B C6B 1_555 1_555
N4B C8B 1_555 1_555
N5B C7B 1_555 1_555
N6B C9B 1_555 1_555
N7B C11B 1_555 1_555
N7A Zn1 1_555 1_555
N7C Zn1B 1_555 1_555
N8B C10B 1_555 1_555
N9B C12B 1_555 1_555
O1C Zn2 1_555 1_555
O1A Zn2B 1_555 1_555
O2C C19C 1_555 1_555
O3C C20C 1_555 1_555
O4C C20C 1_555 1_555
O4B Zn1B 1_555 1_555
O5B_2 Zn1B 1_555 1_555
O6B Zn2B_2 1_555 1_555
O6B_2 Zn2B 1_555 1_555
O7B Zn2 1_555 1_555
O7_2 Zn2B 1_555 1_555
O8B S1B 1_555 1_555
S1 O6 1_555 1_555
C5 N2 1_555 1_555
C6 N1 1_555 1_555
C8 N5 1_555 1_555
C9 N4 1_555 1_555
C11 N8 1_555 1_555
C12 N7 1_555 1_555
C17 C18 1_555 1_555
C20 O4 1_555 1_555
N2 N3 1_555 1_555
N5 N6 1_555 1_555
N8 N9 1_555 1_555
S1B O6B 1_555 1_555
S1B O7B 1_555 1_555
C1B C3B 1_555 1_555
C5B N2B 1_555 1_555
C6B N1B 1_555 1_555
C8B N5B 1_555 1_555
C9B N4B 1_555 1_555
C11B N8B 1_555 1_555
C12B N7B 1_555 1_555
C17C C18C 1_555 1_555
C19C O1C 1_555 1_555
N2B N3B 1_555 1_555
N5B N6B 1_555 1_555
N8B N9B 1_555 1_555

#END
