
#######################################################################
#
#                 Cambridge Crystallographic Data Centre
#                                CCDC 
#
#######################################################################
#
# If this CIF has been generated from an entry in the Cambridge 
# Structural Database, then it will include bibliographic, chemical, 
# crystal, experimental, refinement or atomic coordinate data resulting 
# from the CCDC's data processing and validation procedures.
#
#######################################################################

data_WEMNUZ
_symmetry_cell_setting           triclinic
_symmetry_space_group_name_H-M   'P -1'
_symmetry_Int_Tables_number      2
_space_group_name_Hall           '-P 1'
loop_
_symmetry_equiv_pos_site_id
_symmetry_equiv_pos_as_xyz
1 x,y,z
2 -x,-y,-z
_cell_length_a                   10.1440(8)
_cell_length_b                   10.7970(8)
_cell_length_c                   12.1600(8)
_cell_angle_alpha                68.36(6)
_cell_angle_beta                 72.963(6)
_cell_angle_gamma                70.147(7)
_cell_volume                     1142.74
loop_
_atom_site_label
_atom_site_type_symbol
_atom_site_fract_x
_atom_site_fract_y
_atom_site_fract_z
Co1 Co -0.15106(5) 0.26932(4) 0.07703(4)
C1 C -0.0214(3) -0.4011(3) 0.3888(3)
C2 C -0.1234(3) -0.4738(3) 0.4577(3)
C3 C 0.1025(3) -0.4264(3) 0.4311(3)
C4 C -0.0429(4) -0.2996(3) 0.2661(3)
H1 H 0.0474 -0.3108 0.2098
H2 H -0.1098 -0.3218 0.2380
C5 C -0.0542(4) -0.0466(3) 0.1839(3)
H3 H 0.0266 -0.0511 0.1231
C6 C -0.2439(4) 0.0231(4) 0.2972(3)
H4 H -0.3232 0.0824 0.3299
C7 C -0.2637(3) -0.4362(3) 0.4176(3)
H5 H -0.3371 -0.4550 0.4888
H6 H -0.2890 -0.3377 0.3774
C8 C -0.1679(4) -0.5844(3) 0.2726(3)
H7 H -0.0707 -0.6097 0.2727
C9 C -0.3620(5) -0.5530(6) 0.2342(5)
H8 H -0.4309 -0.5537 0.1982
C10 C 0.2142(4) -0.3496(3) 0.3553(3)
H9 H 0.1894 -0.2972 0.2768
H10 H 0.3057 -0.4159 0.3433
C11 C 0.3464(4) -0.2512(5) 0.4309(4)
H11 H 0.4353 -0.3125 0.4180
C12 C 0.1805(6) -0.0901(6) 0.4748(6)
H12 H 0.1316 -0.0118 0.4995
C13 C 0.2961(3) 0.2078(3) -0.0248(3)
C14 C 0.3927(3) 0.2445(3) 0.0091(3)
H13 H 0.3601 0.2934 0.0651
C15 C 0.5377(3) 0.2097(3) -0.0388(3)
C16 C 0.5852(4) 0.1374(3) -0.1227(3)
H14 H 0.6820 0.1134 -0.1555
C17 C 0.4892(4) 0.1009(4) -0.1577(3)
H15 H 0.5213 0.0536 -0.2149
C18 C 0.3460(4) 0.1345(3) -0.1080(3)
H16 H 0.2821 0.1078 -0.1304
C19 C 0.1396(4) 0.2404(3) 0.0306(3)
C20 C 0.6446(4) 0.2400(3) 0.0038(3)
N1 N -0.1450(3) 0.0692(3) 0.2028(2)
N2 N -0.0964(3) -0.1550(3) 0.2652(2)
N3 N -0.2198(3) -0.1113(3) 0.3396(2)
N4 N -0.2251(3) -0.6204(3) 0.2090(2)
N5 N -0.2660(3) -0.5078(3) 0.3366(2)
N6 N -0.3933(4) -0.4860(5) 0.3125(4)
N7 N 0.3207(5) -0.1480(5) 0.4725(4)
N8 N 0.2281(3) -0.2561(3) 0.4096(2)
N9 N 0.1180(4) -0.1539(4) 0.4391(4)
O1 O 0.0603(3) 0.1908(3) 0.0062(2)
O2 O 0.0938(3) 0.3140(3) 0.0985(3)
O3 O 0.6052(3) 0.2959(3) 0.0865(2)
O4 O 0.7750(2) 0.2066(2) -0.0418(2)
O5 O -0.1535(3) 0.4520(2) -0.0658(2)
H17 H -0.1376 0.5230 -0.0631
H18 H -0.2118 0.4819 -0.1131
Co1A Co 0.15106(5) -1.26932(4) 0.92297(4)
Co1_2 Co -0.15106(5) -0.73068(4) 0.07703(4)
Co1_3 Co 0.84894(5) 0.26932(4) 0.07703(4)
Co1A_2 Co 0.15106(5) -0.26932(4) 0.92297(4)
Co1A_3 Co -0.84894(5) -1.26932(4) 0.92297(4)
C1A C 0.0214(3) -0.5989(3) 0.6112(3)
C2A C 0.1234(3) -0.5262(3) 0.5423(3)
C3A C -0.1025(3) -0.5736(3) 0.5689(3)
C4A C 0.0429(4) -0.7004(3) 0.7339(3)
H1A H -0.0474 -0.6892 0.7902
H2A H 0.1098 -0.6782 0.7620
C5A C 0.0542(4) -0.9534(3) 0.8161(3)
H3A H -0.0266 -0.9489 0.8769
C6A C 0.2439(4) -1.0231(4) 0.7028(3)
H4A H 0.3232 -1.0824 0.6701
C7A C 0.2637(3) -0.5638(3) 0.5824(3)
H5A H 0.3371 -0.5450 0.5112
H6A H 0.2890 -0.6623 0.6226
C8A C 0.1679(4) -0.4156(3) 0.7274(3)
H7A H 0.0707 -0.3903 0.7273
C9A C 0.3620(5) -0.4470(6) 0.7658(5)
H8A H 0.4309 -0.4463 0.8018
C10A C -0.2142(4) -0.6504(3) 0.6447(3)
H9A H -0.1894 -0.7028 0.7232
H10A H -0.3057 -0.5841 0.6567
C11A C -0.3464(4) -0.7488(5) 0.5691(4)
H11A H -0.4353 -0.6875 0.5820
C12A C -0.1805(6) -0.9099(6) 0.5252(6)
H12A H -0.1316 -0.9882 0.5005
C13A C -0.2961(3) -1.2078(3) 1.0248(3)
C14A C -0.3927(3) -1.2445(3) 0.9909(3)
H13A H -0.3601 -1.2934 0.9349
C15A C -0.5377(3) -1.2097(3) 1.0388(3)
C16A C -0.5852(4) -1.1374(3) 1.1227(3)
H14A H -0.6820 -1.1134 1.1555
C17A C -0.4892(4) -1.1009(4) 1.1577(3)
H15A H -0.5213 -1.0536 1.2149
C18A C -0.3460(4) -1.1345(3) 1.1080(3)
H16A H -0.2821 -1.1078 1.1304
C19A C -0.1396(4) -1.2404(3) 0.9694(3)
C20A C -0.6446(4) -1.2400(3) 0.9962(3)
N1A N 0.1450(3) -1.0692(3) 0.7972(2)
N2A N 0.0964(3) -0.8450(3) 0.7348(2)
N3A N 0.2198(3) -0.8887(3) 0.6604(2)
N4A N 0.2251(3) -0.3796(3) 0.7910(2)
N4_2 N -0.2251(3) 0.3796(3) 0.2090(2)
N4A_2 N 0.2251(3) -1.3796(3) 0.7910(2)
N5A N 0.2660(3) -0.4922(3) 0.6634(2)
N6A N 0.3933(4) -0.5140(5) 0.6875(4)
N7A N -0.3207(5) -0.8520(5) 0.5275(4)
N8A N -0.2281(3) -0.7439(3) 0.5904(2)
N9A N -0.1180(4) -0.8461(4) 0.5609(4)
O1A O -0.0603(3) -1.1908(3) 0.9938(2)
O2A O -0.0938(3) -1.3140(3) 0.9015(3)
O3_2 O -0.3948(3) 0.2959(3) 0.0865(2)
O3A O 0.3948(3) -1.2959(3) 0.9135(2)
O3A_2 O -0.6052(3) -1.2959(3) 0.9135(2)
O4_2 O -0.2250(2) 0.2066(2) -0.0418(2)
O4A O 0.2250(2) -1.2066(2) 1.0418(2)
O4A_2 O -0.7750(2) -1.2066(2) 1.0418(2)
O5A O 0.1535(3) -1.4520(2) 1.0658(2)
H17A H 0.1376 -1.5230 1.0631
H18A H 0.2118 -1.4819 1.1131
O6 O 0.1627(13) -0.7630(11) 0.3555(10)
O7 O 0.4080(8) -0.7988(9) 0.4316(6)
O8 O 0.3434(3) 0.4131(4) 0.2192(3)
loop_
_geom_bond_atom_site_label_1
_geom_bond_atom_site_label_2
_geom_bond_site_symmetry_1
_geom_bond_site_symmetry_2
Co1 N1 1_555 1_555
C1 C2 1_555 1_555
C2 C7 1_555 1_555
C3 C1 1_555 1_555
C4 C1 1_555 1_555
H1 C4 1_555 1_555
H2 C4 1_555 1_555
C5 H3 1_555 1_555
C6 H4 1_555 1_555
C7 H5 1_555 1_555
H6 C7 1_555 1_555
C8 H7 1_555 1_555
C9 H8 1_555 1_555
C10 C3 1_555 1_555
H9 C10 1_555 1_555
H10 C10 1_555 1_555
C11 H11 1_555 1_555
C12 H12 1_555 1_555
C13 C14 1_555 1_555
C14 H13 1_555 1_555
C15 C14 1_555 1_555
C16 C15 1_555 1_555
H14 C16 1_555 1_555
C17 C16 1_555 1_555
H15 C17 1_555 1_555
C18 C13 1_555 1_555
H16 C18 1_555 1_555
C19 C13 1_555 1_555
C20 C15 1_555 1_555
N1 C5 1_555 1_555
N2 C4 1_555 1_555
N3 C6 1_555 1_555
N4 C8 1_555 1_555
N5 C7 1_555 1_555
N6 C9 1_555 1_555
N7 C11 1_555 1_555
N8 C10 1_555 1_555
N9 C12 1_555 1_555
O1 Co1 1_555 1_555
O2 C19 1_555 1_555
O3 C20 1_555 1_555
O4 C20 1_555 1_555
O5 Co1 1_555 1_555
H17 O5 1_555 1_555
H18 O5 1_555 1_555
Co1A N1A 1_555 1_555
Co1_2 N4 1_555 1_555
Co1_3 O3 1_555 1_555
Co1A_2 N4A 1_555 1_555
Co1A_3 O3A_2 1_555 1_555
C1A C2A 1_555 1_555
C2A C3 1_555 1_555
C3A C2 1_555 1_555
C4A C1A 1_555 1_555
H1A C4A 1_555 1_555
H2A C4A 1_555 1_555
C5A H3A 1_555 1_555
C6A H4A 1_555 1_555
C7A C2A 1_555 1_555
H5A C7A 1_555 1_555
H6A C7A 1_555 1_555
C8A H7A 1_555 1_555
C9A H8A 1_555 1_555
C10A C3A 1_555 1_555
H9A C10A 1_555 1_555
H10A C10A 1_555 1_555
C11A H11A 1_555 1_555
C12A H12A 1_555 1_555
C13A C14A 1_555 1_555
C14A H13A 1_555 1_555
C15A C14A 1_555 1_555
C16A C15A 1_555 1_555
H14A C16A 1_555 1_555
C17A C16A 1_555 1_555
H15A C17A 1_555 1_555
C18A C13A 1_555 1_555
H16A C18A 1_555 1_555
C19A C13A 1_555 1_555
C20A C15A 1_555 1_555
N1A C5A 1_555 1_555
N2A C4A 1_555 1_555
N3A C6A 1_555 1_555
N4A C8A 1_555 1_555
N4_2 Co1 1_555 1_555
N4A_2 Co1A 1_555 1_555
N5A C7A 1_555 1_555
N6A C9A 1_555 1_555
N7A C11A 1_555 1_555
N8A C10A 1_555 1_555
N9A C12A 1_555 1_555
O1A Co1A 1_555 1_555
O2A C19A 1_555 1_555
O3_2 Co1 1_555 1_555
O3A Co1A 1_555 1_555
O3A_2 C20A 1_555 1_555
O4_2 Co1 1_555 1_555
O4A Co1A 1_555 1_555
O4A_2 Co1A_3 1_555 1_555
O5A Co1A 1_555 1_555
H17A O5A 1_555 1_555
H18A O5A 1_555 1_555
C5 N2 1_555 1_555
C6 N1 1_555 1_555
C8 N5 1_555 1_555
C9 N4 1_555 1_555
C11 N8 1_555 1_555
C12 N7 1_555 1_555
C17 C18 1_555 1_555
C19 O1 1_555 1_555
N2 N3 1_555 1_555
N5 N6 1_555 1_555
N8 N9 1_555 1_555
O4 Co1_3 1_555 1_555
C1A C3A 1_555 1_555
C5A N2A 1_555 1_555
C6A N1A 1_555 1_555
C8A N5A 1_555 1_555
C9A N4A 1_555 1_555
C11A N8A 1_555 1_555
C12A N7A 1_555 1_555
C17A C18A 1_555 1_555
C19A O1A 1_555 1_555
C20A O4A_2 1_555 1_555
N2A N3A 1_555 1_555
N5A N6A 1_555 1_555
N8A N9A 1_555 1_555

#END
