
#######################################################################
#
#                 Cambridge Crystallographic Data Centre
#                                CCDC 
#
#######################################################################
#
# If this CIF has been generated from an entry in the Cambridge 
# Structural Database, then it will include bibliographic, chemical, 
# crystal, experimental, refinement or atomic coordinate data resulting 
# from the CCDC's data processing and validation procedures.
#
#######################################################################

data_WEMNOT
_symmetry_cell_setting           triclinic
_symmetry_space_group_name_H-M   'P -1'
_symmetry_Int_Tables_number      2
_space_group_name_Hall           '-P 1'
loop_
_symmetry_equiv_pos_site_id
_symmetry_equiv_pos_as_xyz
1 x,y,z
2 -x,-y,-z
_cell_length_a                   10.2980(4)
_cell_length_b                   11.1170(6)
_cell_length_c                   12.2680(4)
_cell_angle_alpha                67.475(4)
_cell_angle_beta                 73.320(4)
_cell_angle_gamma                68.923(4)
_cell_volume                     1192.25
loop_
_atom_site_label
_atom_site_type_symbol
_atom_site_fract_x
_atom_site_fract_y
_atom_site_fract_z
Cd1 Cd 0.134968(15) -0.279397(15) 0.426814(13)
C1 C 0.0238(2) 0.4000(2) 0.11016(17)
C2 C 0.1248(2) 0.4698(2) 0.04126(17)
C3 C -0.1004(2) 0.4294(2) 0.06872(17)
C4 C 0.0482(2) 0.2969(2) 0.23252(18)
H1 H 0.1174 0.3145 0.2596
H2 H -0.0394 0.3097 0.2891
C5 C 0.0517(2) 0.0517(2) 0.31185(19)
H3 H -0.0273 0.0583 0.3719
C6 C 0.2351(3) -0.0211(2) 0.1990(2)
H4 H 0.3103 -0.0809 0.1657
C7 C 0.2647(2) 0.4281(2) 0.08128(19)
H5 H 0.2901 0.3309 0.1213
H6 H 0.3364 0.4463 0.0108
C8 C 0.1672(2) 0.5679(2) 0.2269(2)
H7 H 0.0709 0.5911 0.2274
C9 C 0.3640(2) 0.5444(3) 0.2614(2)
H8 H 0.4321 0.5499 0.2940
C10 C -0.2096(2) 0.3538(2) 0.14380(19)
H9 H -0.3004 0.4192 0.1566
H10 H -0.1827 0.2993 0.2215
C11 C -0.3405(3) 0.2636(3) 0.0637(2)
H11 H -0.4294 0.3227 0.0782
C12 C -0.1746(4) 0.1118(4) 0.0142(4)
H12 H -0.1244 0.0389 -0.0149
C13 C 0.6862(2) -0.2032(2) 0.53586(19)
C14 C 0.5978(2) -0.2460(2) 0.50123(19)
H13 H 0.6353 -0.2960 0.4480
C15 C 0.4528(2) -0.2144(2) 0.54583(18)
C16 C 0.3993(2) -0.1407(2) 0.62615(19)
H14 H 0.3029 -0.1186 0.6560
C17 C 0.4875(2) -0.0997(2) 0.6623(2)
H15 H 0.4508 -0.0523 0.7176
C18 C 0.6299(2) -0.1294(2) 0.61619(19)
H16 H 0.6887 -0.0998 0.6390
C19 C 0.8417(2) -0.2285(2) 0.48405(19)
C20 C 0.3527(2) -0.2513(2) 0.50355(19)
N1 N 0.1354(2) -0.06310(19) 0.29184(16)
N2 N 0.09742(18) 0.15583(17) 0.23341(15)
N3 N 0.2176(2) 0.1102(2) 0.15969(17)
N4 N 0.22426(19) 0.60186(19) 0.29093(16)
N5 N 0.26717(17) 0.49619(18) 0.16206(15)
N6 N 0.3955(2) 0.4802(2) 0.18307(19)
N7 N -0.3146(3) 0.1675(3) 0.0172(2)
N8 N -0.22382(19) 0.26602(19) 0.08757(16)
N9 N -0.1130(3) 0.1674(3) 0.0555(3)
O1 O 0.91088(16) -0.17286(17) 0.50862(14)
O2 O 0.89880(17) -0.30373(19) 0.41867(18)
O3 O 0.39678(17) -0.30541(19) 0.42221(16)
O4 O 0.22414(15) -0.22299(16) 0.55074(14)
O5 O 0.13539(17) -0.47326(16) 0.59148(14)
H17 H 0.2014 -0.5045 0.6321
H18 H 0.1308 -0.5399 0.5771
Cd1A Cd -0.134968(15) 1.279397(15) -0.426814(13)
Cd1_2 Cd 0.134968(15) 0.720603(15) 0.426814(13)
Cd1_3 Cd 1.134968(15) -0.279397(15) 0.426814(13)
Cd1A_2 Cd -0.134968(15) 0.279397(15) -0.426814(13)
Cd1A_3 Cd 0.865032(15) 0.279397(15) -0.426814(13)
C1A C -0.0238(2) 0.6000(2) -0.11016(17)
C2A C -0.1248(2) 0.5302(2) -0.04126(17)
C3A C 0.1004(2) 0.5706(2) -0.06872(17)
C4A C -0.0482(2) 0.7031(2) -0.23252(18)
H1A H -0.1174 0.6855 -0.2596
H2A H 0.0394 0.6903 -0.2891
C5A C -0.0517(2) 0.9483(2) -0.31185(19)
H3A H 0.0273 0.9417 -0.3719
C6A C -0.2351(3) 1.0211(2) -0.1990(2)
H4A H -0.3103 1.0809 -0.1657
C7A C -0.2647(2) 0.5719(2) -0.08128(19)
H5A H -0.2901 0.6691 -0.1213
H6A H -0.3364 0.5537 -0.0108
C8A C -0.1672(2) 0.4321(2) -0.2269(2)
H7A H -0.0709 0.4089 -0.2274
C9A C -0.3640(2) 0.4556(3) -0.2614(2)
H8A H -0.4321 0.4501 -0.2940
C10A C 0.2096(2) 0.6462(2) -0.14380(19)
H9A H 0.3004 0.5808 -0.1566
H10A H 0.1827 0.7007 -0.2215
C11A C 0.3405(3) 0.7364(3) -0.0637(2)
H11A H 0.4294 0.6773 -0.0782
C12A C 0.1746(4) 0.8882(4) -0.0142(4)
H12A H 0.1244 0.9611 0.0149
C13A C 0.3138(2) 0.2032(2) -0.53586(19)
C14A C 0.4022(2) 0.2460(2) -0.50123(19)
H13A H 0.3647 0.2960 -0.4480
C15A C 0.5472(2) 0.2144(2) -0.54583(18)
C16A C 0.6007(2) 0.1407(2) -0.62615(19)
H14A H 0.6971 0.1186 -0.6560
C17A C 0.5125(2) 0.0997(2) -0.6623(2)
H15A H 0.5492 0.0523 -0.7176
C18A C 0.3701(2) 0.1294(2) -0.61619(19)
H16A H 0.3113 0.0998 -0.6390
C19A C 0.1583(2) 0.2285(2) -0.48405(19)
C20A C 0.6473(2) 0.2513(2) -0.50355(19)
N1A N -0.1354(2) 1.06310(19) -0.29184(16)
N1A_2 N -0.1354(2) 0.06310(19) -0.29184(16)
N2A N -0.09742(18) 0.84417(17) -0.23341(15)
N3A N -0.2176(2) 0.8898(2) -0.15969(17)
N4A N -0.22426(19) 0.39814(19) -0.29093(16)
N4_2 N 0.22426(19) -0.39814(19) 0.29093(16)
N5A N -0.26717(17) 0.50381(18) -0.16206(15)
N6A N -0.3955(2) 0.5198(2) -0.18307(19)
N7A N 0.3146(3) 0.8325(3) -0.0172(2)
N8A N 0.22382(19) 0.73398(19) -0.08757(16)
N9A N 0.1130(3) 0.8326(3) -0.0555(3)
O1_2 O -0.08912(16) -0.17286(17) 0.50862(14)
O1A O 0.08912(16) 0.17286(17) -0.50862(14)
O2_2 O -0.10120(17) -0.30373(19) 0.41867(18)
O2A O 0.10120(17) 0.30373(19) -0.41867(18)
O3A O -0.39678(17) 0.30541(19) -0.42221(16)
O3A_2 O 0.60322(17) 0.30541(19) -0.42221(16)
O4A O -0.22414(15) 0.22299(16) -0.55074(14)
O4A_2 O 0.77586(15) 0.22299(16) -0.55074(14)
O5A O -0.13539(17) 0.47326(16) -0.59148(14)
H17A H -0.2014 0.5045 -0.6321
H18A H -0.1308 0.5399 -0.5771
O6 O -0.3527(2) -0.4041(2) 0.28204(19)
H19 H -0.3557 -0.3443 0.2136
H20 H -0.4237 -0.3707 0.3282
O7 O -0.4217(3) -0.2072(4) 0.0602(3)
H21 H -0.3666 -0.1763 0.0789
H22 H -0.4802 -0.1323 0.0247
O8 O -0.1535(10) -0.2285(10) 0.1531(9)
H23 H -0.2224 -0.2212 0.1238
H24 H -0.0869 -0.2114 0.0953
loop_
_geom_bond_atom_site_label_1
_geom_bond_atom_site_label_2
_geom_bond_site_symmetry_1
_geom_bond_site_symmetry_2
Cd1 N1 1_555 1_555
C1 C2 1_555 1_555
C2 C7 1_555 1_555
C3 C1 1_555 1_555
C4 C1 1_555 1_555
H1 C4 1_555 1_555
H2 C4 1_555 1_555
C5 H3 1_555 1_555
C6 H4 1_555 1_555
C7 H5 1_555 1_555
H6 C7 1_555 1_555
C8 H7 1_555 1_555
C9 H8 1_555 1_555
C10 C3 1_555 1_555
H9 C10 1_555 1_555
H10 C10 1_555 1_555
C11 H11 1_555 1_555
C12 H12 1_555 1_555
C13 C14 1_555 1_555
C14 H13 1_555 1_555
C15 C14 1_555 1_555
C16 C15 1_555 1_555
H14 C16 1_555 1_555
C17 C16 1_555 1_555
H15 C17 1_555 1_555
C18 C13 1_555 1_555
H16 C18 1_555 1_555
C19 C13 1_555 1_555
C20 C15 1_555 1_555
N1 C5 1_555 1_555
N2 C4 1_555 1_555
N3 C6 1_555 1_555
N4 C8 1_555 1_555
N5 C7 1_555 1_555
N6 C9 1_555 1_555
N7 C11 1_555 1_555
N8 C10 1_555 1_555
N9 C12 1_555 1_555
O1 C19 1_555 1_555
O2 C19 1_555 1_555
O3 Cd1 1_555 1_555
O4 Cd1 1_555 1_555
O5 Cd1 1_555 1_555
H17 O5 1_555 1_555
H18 O5 1_555 1_555
O6 H19 1_555 1_555
H20 O6 1_555 1_555
O7 H21 1_555 1_555
H22 O7 1_555 1_555
O8 H23 1_555 1_555
H24 O8 1_555 1_555
Cd1A N1A 1_555 1_555
Cd1_2 N4 1_555 1_555
Cd1_3 O1 1_555 1_555
Cd1A_2 N1A_2 1_555 1_555
Cd1A_3 O3A_2 1_555 1_555
C1A C2A 1_555 1_555
C2A C3 1_555 1_555
C3A C2 1_555 1_555
C4A C1A 1_555 1_555
H1A C4A 1_555 1_555
H2A C4A 1_555 1_555
C5A H3A 1_555 1_555
C6A H4A 1_555 1_555
C7A C2A 1_555 1_555
H5A C7A 1_555 1_555
H6A C7A 1_555 1_555
C8A H7A 1_555 1_555
C9A H8A 1_555 1_555
C10A C3A 1_555 1_555
H9A C10A 1_555 1_555
H10A C10A 1_555 1_555
C11A H11A 1_555 1_555
C12A H12A 1_555 1_555
C13A C14A 1_555 1_555
C14A H13A 1_555 1_555
C15A C14A 1_555 1_555
C16A C15A 1_555 1_555
H14A C16A 1_555 1_555
C17A C16A 1_555 1_555
H15A C17A 1_555 1_555
C18A C13A 1_555 1_555
H16A C18A 1_555 1_555
C19A C13A 1_555 1_555
C20A C15A 1_555 1_555
N1A C5A 1_555 1_555
N2A C4A 1_555 1_555
N3A C6A 1_555 1_555
N4A Cd1A_2 1_555 1_555
N4_2 Cd1 1_555 1_555
N5A C7A 1_555 1_555
N6A C9A 1_555 1_555
N7A C11A 1_555 1_555
N8A C10A 1_555 1_555
N9A C12A 1_555 1_555
O1_2 Cd1 1_555 1_555
O1A Cd1A_2 1_555 1_555
O2_2 Cd1 1_555 1_555
O2A Cd1A_2 1_555 1_555
O3A Cd1A_2 1_555 1_555
O3A_2 C20A 1_555 1_555
O4A Cd1A_2 1_555 1_555
O4A_2 Cd1A_3 1_555 1_555
O5A Cd1A_2 1_555 1_555
H17A O5A 1_555 1_555
H18A O5A 1_555 1_555
C5 N2 1_555 1_555
C6 N1 1_555 1_555
C8 N5 1_555 1_555
C9 N4 1_555 1_555
C11 N8 1_555 1_555
C12 N7 1_555 1_555
C17 C18 1_555 1_555
C20 O3 1_555 1_555
C20 O4 1_555 1_555
N2 N3 1_555 1_555
N5 N6 1_555 1_555
N8 N9 1_555 1_555
O2 Cd1_3 1_555 1_555
C1A C3A 1_555 1_555
C5A N2A 1_555 1_555
C6A N1A 1_555 1_555
C8A N4A 1_555 1_555
C8A N5A 1_555 1_555
C9A N4A 1_555 1_555
C11A N8A 1_555 1_555
C12A N7A 1_555 1_555
C17A C18A 1_555 1_555
C19A O1A 1_555 1_555
C19A O2A 1_555 1_555
C20A O4A_2 1_555 1_555
N2A N3A 1_555 1_555
N5A N6A 1_555 1_555
N8A N9A 1_555 1_555

#END
