
#######################################################################
#
#                 Cambridge Crystallographic Data Centre
#                                CCDC 
#
#######################################################################
#
# If this CIF has been generated from an entry in the Cambridge 
# Structural Database, then it will include bibliographic, chemical, 
# crystal, experimental, refinement or atomic coordinate data resulting 
# from the CCDC's data processing and validation procedures.
#
#######################################################################

data_WEMNIN
_symmetry_cell_setting           triclinic
_symmetry_space_group_name_H-M   'P -1'
_symmetry_Int_Tables_number      2
_space_group_name_Hall           '-P 1'
loop_
_symmetry_equiv_pos_site_id
_symmetry_equiv_pos_as_xyz
1 x,y,z
2 -x,-y,-z
_cell_length_a                   10.1070(5)
_cell_length_b                   11.0730(7)
_cell_length_c                   12.5290(8)
_cell_angle_alpha                69.771(6)
_cell_angle_beta                 78.299(4)
_cell_angle_gamma                81.557(4)
_cell_volume                     1283.85
loop_
_atom_site_label
_atom_site_type_symbol
_atom_site_fract_x
_atom_site_fract_y
_atom_site_fract_z
Zn1 Zn 0.49301(4) -0.19104(4) 0.42752(4)
C1 C 0.5675(4) 0.3983(4) 0.0756(3)
C2 C 0.4637(4) 0.4732(4) 0.1193(3)
C3 C 0.6047(4) 0.4221(4) -0.0436(4)
C4 C 0.6434(4) 0.2872(4) 0.1569(4)
H1 H 0.7339 0.2715 0.1174
H2 H 0.6522 0.3109 0.2227
C5 C 0.5768(4) 0.0725(4) 0.2954(3)
H3 H 0.6188 0.0724 0.3550
C6 C 0.4713(5) 0.0197(4) 0.1930(4)
H4 H 0.4234 -0.0286 0.1686
C7 C 0.4214(5) 0.4412(4) 0.2494(4)
H5 H 0.3238 0.4575 0.2671
H6 H 0.4447 0.3501 0.2871
C8 C 0.4316(4) 0.6003(4) 0.3487(4)
H7 H 0.3387 0.6178 0.3682
C9 C 0.6410(5) 0.5980(5) 0.3296(5)
H8 H 0.7260 0.6166 0.3344
C10 C 0.7140(5) 0.3358(4) -0.0900(4)
H9 H 0.7011 0.3419 -0.1664
H10 H 0.7055 0.2469 -0.0407
C11 C 0.9606(6) 0.2938(6) -0.0628(6)
H11 H 0.9610 0.2055 -0.0235
C12 C 1.0161(7) 0.4799(8) -0.1445(8)
H12 H 1.0683 0.5503 -0.1747
C13 C 0.0852(4) -0.1715(4) 0.5445(4)
C14 C -0.0180(4) -0.1766(4) 0.4874(4)
H13 H 0.0035 -0.1797 0.4126
C15 C -0.1524(4) -0.1771(4) 0.5413(4)
C16 C -0.1830(4) -0.1715(4) 0.6509(4)
H14 H -0.2728 -0.1725 0.6874
C17 C -0.0822(5) -0.1644(5) 0.7089(4)
H15 H -0.1043 -0.1590 0.7830
C18 C 0.0522(4) -0.1656(5) 0.6544(4)
H16 H 0.1204 -0.1622 0.6930
C19 C 0.2282(4) -0.1773(4) 0.4840(4)
C20 C -0.2588(4) -0.1866(4) 0.4779(4)
N1 N 0.5124(3) -0.0231(3) 0.2965(3)
N2 N 0.5733(3) 0.1686(3) 0.1976(3)
N3 N 0.5052(5) 0.1357(4) 0.1302(4)
N4 N 0.5258(3) 0.6548(3) 0.3710(3)
N5 N 0.4876(4) 0.5179(3) 0.2952(3)
N6 N 0.6249(4) 0.5138(4) 0.2814(4)
N7 N 1.0677(5) 0.3596(6) -0.0925(6)
N8 N 0.8504(4) 0.3701(4) -0.0964(4)
N9 N 0.8854(5) 0.4905(5) -0.1493(6)
O1 O 0.3232(3) -0.1839(3) 0.5396(3)
O2 O 0.2536(3) -0.1774(3) 0.3826(3)
O3 O -0.2261(3) -0.1925(4) 0.3783(3)
O4 O -0.3814(3) -0.1878(3) 0.5291(2)
Zn1A Zn 0.50699(4) 1.19104(4) -0.42752(4)
Zn1_2 Zn 0.49301(4) 0.80896(4) 0.42752(4)
Zn1_3 Zn -0.50699(4) -0.19104(4) 0.42752(4)
Zn1A_2 Zn 0.50699(4) 0.19104(4) -0.42752(4)
Zn1A_3 Zn 1.50699(4) 0.19104(4) -0.42752(4)
C1A C 0.4325(4) 0.6017(4) -0.0756(3)
C2A C 0.5363(4) 0.5268(4) -0.1193(3)
C3A C 0.3953(4) 0.5779(4) 0.0436(4)
C4A C 0.3566(4) 0.7128(4) -0.1569(4)
H1A H 0.2661 0.7285 -0.1174
H2A H 0.3478 0.6891 -0.2227
C5A C 0.4232(4) 0.9275(4) -0.2954(3)
H3A H 0.3812 0.9276 -0.3550
C6A C 0.5287(5) 0.9803(4) -0.1930(4)
H4A H 0.5766 1.0286 -0.1686
C7A C 0.5786(5) 0.5588(4) -0.2494(4)
H5A H 0.6762 0.5425 -0.2671
H6A H 0.5553 0.6499 -0.2871
C8A C 0.5684(4) 0.3997(4) -0.3487(4)
H7A H 0.6613 0.3822 -0.3682
C9A C 0.3590(5) 0.4020(5) -0.3296(5)
H8A H 0.2740 0.3834 -0.3344
C10A C 0.2860(5) 0.6642(4) 0.0900(4)
H9A H 0.2989 0.6581 0.1664
H10A H 0.2945 0.7531 0.0407
C11A C 0.0394(6) 0.7062(6) 0.0628(6)
H11A H 0.0390 0.7945 0.0235
C12A C -0.0161(7) 0.5201(8) 0.1445(8)
H12A H -0.0683 0.4497 0.1747
C13A C 0.9148(4) 0.1715(4) -0.5445(4)
C14A C 1.0180(4) 0.1766(4) -0.4874(4)
H13A H 0.9965 0.1797 -0.4126
C15A C 1.1524(4) 0.1771(4) -0.5413(4)
C16A C 1.1830(4) 0.1715(4) -0.6509(4)
H14A H 1.2728 0.1725 -0.6874
C17A C 1.0822(5) 0.1644(5) -0.7089(4)
H15A H 1.1043 0.1590 -0.7830
C18A C 0.9478(4) 0.1656(5) -0.6544(4)
H16A H 0.8796 0.1622 -0.6930
C19A C 0.7718(4) 0.1773(4) -0.4840(4)
C20A C 1.2588(4) 0.1866(4) -0.4779(4)
N1A N 0.4876(3) 1.0231(3) -0.2965(3)
N1A_2 N 0.4876(3) 0.0231(3) -0.2965(3)
N2A N 0.4267(3) 0.8314(3) -0.1976(3)
N3A N 0.4948(5) 0.8643(4) -0.1302(4)
N4A N 0.4742(3) 0.3452(3) -0.3710(3)
N4_2 N 0.5258(3) -0.3452(3) 0.3710(3)
N5A N 0.5124(4) 0.4821(3) -0.2952(3)
N6A N 0.3751(4) 0.4862(4) -0.2814(4)
N7A N -0.0677(5) 0.6404(6) 0.0925(6)
N8A N 0.1496(4) 0.6299(4) 0.0964(4)
N9A N 0.1146(5) 0.5095(5) 0.1493(6)
O1A O 0.6768(3) 0.1839(3) -0.5396(3)
O2A O 0.7464(3) 0.1774(3) -0.3826(3)
O3A O 1.2261(3) 0.1925(4) -0.3783(3)
O4_2 O 0.6186(3) -0.1878(3) 0.5291(2)
O4A O 0.3814(3) 0.1878(3) -0.5291(2)
O4A_2 O 1.3814(3) 0.1878(3) -0.5291(2)
O5 O 0.1157(5) 1.0011(5) -0.1727(4)
H17 H 0.1519 1.0254 -0.1287
H18 H 0.0482 1.0563 -0.1886
O6 O -0.1445(8) 1.1013(9) -0.1801(7)
O7 O -0.3256(9) 0.7844(8) 0.0487(7)
O8 O -0.2073(16) 1.0028(10) -0.0117(13)
O9 O 0.089(2) -0.485(2) 0.4434(18)
loop_
_geom_bond_atom_site_label_1
_geom_bond_atom_site_label_2
_geom_bond_site_symmetry_1
_geom_bond_site_symmetry_2
Zn1 N1 1_555 1_555
C1 C2 1_555 1_555
C2 C7 1_555 1_555
C3 C1 1_555 1_555
C4 C1 1_555 1_555
H1 C4 1_555 1_555
H2 C4 1_555 1_555
C5 H3 1_555 1_555
C6 H4 1_555 1_555
C7 H5 1_555 1_555
H6 C7 1_555 1_555
C8 H7 1_555 1_555
C9 H8 1_555 1_555
C10 C3 1_555 1_555
H9 C10 1_555 1_555
H10 C10 1_555 1_555
C11 H11 1_555 1_555
C12 H12 1_555 1_555
C13 C14 1_555 1_555
C14 H13 1_555 1_555
C15 C14 1_555 1_555
C16 C15 1_555 1_555
H14 C16 1_555 1_555
C17 C16 1_555 1_555
H15 C17 1_555 1_555
C18 C13 1_555 1_555
H16 C18 1_555 1_555
C19 C13 1_555 1_555
C20 C15 1_555 1_555
N1 C5 1_555 1_555
N2 C4 1_555 1_555
N3 C6 1_555 1_555
N4 C8 1_555 1_555
N5 C7 1_555 1_555
N6 C9 1_555 1_555
N7 C11 1_555 1_555
N8 C10 1_555 1_555
N9 C12 1_555 1_555
O1 Zn1 1_555 1_555
O2 Zn1 1_555 1_555
O3 C20 1_555 1_555
O4 C20 1_555 1_555
O5 H17 1_555 1_555
H18 O5 1_555 1_555
Zn1A N1A 1_555 1_555
Zn1_2 N4 1_555 1_555
Zn1_3 O4 1_555 1_555
Zn1A_2 N1A_2 1_555 1_555
Zn1A_3 O4A_2 1_555 1_555
C1A C2A 1_555 1_555
C2A C3 1_555 1_555
C3A C2 1_555 1_555
C4A C1A 1_555 1_555
H1A C4A 1_555 1_555
H2A C4A 1_555 1_555
C5A H3A 1_555 1_555
C6A H4A 1_555 1_555
C7A C2A 1_555 1_555
H5A C7A 1_555 1_555
H6A C7A 1_555 1_555
C8A H7A 1_555 1_555
C9A H8A 1_555 1_555
C10A C3A 1_555 1_555
H9A C10A 1_555 1_555
H10A C10A 1_555 1_555
C11A H11A 1_555 1_555
C12A H12A 1_555 1_555
C13A C14A 1_555 1_555
C14A H13A 1_555 1_555
C15A C14A 1_555 1_555
C16A C15A 1_555 1_555
H14A C16A 1_555 1_555
C17A C16A 1_555 1_555
H15A C17A 1_555 1_555
C18A C13A 1_555 1_555
H16A C18A 1_555 1_555
C19A C13A 1_555 1_555
C20A C15A 1_555 1_555
N1A C5A 1_555 1_555
N2A C4A 1_555 1_555
N3A C6A 1_555 1_555
N4A Zn1A_2 1_555 1_555
N4_2 Zn1 1_555 1_555
N5A C7A 1_555 1_555
N6A C9A 1_555 1_555
N7A C11A 1_555 1_555
N8A C10A 1_555 1_555
N9A C12A 1_555 1_555
O1A Zn1A_2 1_555 1_555
O2A Zn1A_2 1_555 1_555
O3A C20A 1_555 1_555
O4_2 Zn1 1_555 1_555
O4A Zn1A_2 1_555 1_555
O4A_2 C20A 1_555 1_555
C5 N2 1_555 1_555
C6 N1 1_555 1_555
C8 N5 1_555 1_555
C9 N4 1_555 1_555
C11 N8 1_555 1_555
C12 N7 1_555 1_555
C17 C18 1_555 1_555
C19 O1 1_555 1_555
C19 O2 1_555 1_555
N2 N3 1_555 1_555
N5 N6 1_555 1_555
N8 N9 1_555 1_555
C1A C3A 1_555 1_555
C5A N2A 1_555 1_555
C6A N1A 1_555 1_555
C8A N4A 1_555 1_555
C8A N5A 1_555 1_555
C9A N4A 1_555 1_555
C11A N8A 1_555 1_555
C12A N7A 1_555 1_555
C17A C18A 1_555 1_555
C19A O1A 1_555 1_555
C19A O2A 1_555 1_555
N2A N3A 1_555 1_555
N5A N6A 1_555 1_555
N8A N9A 1_555 1_555

#END
