
#######################################################################
#
#                 Cambridge Crystallographic Data Centre
#                                CCDC 
#
#######################################################################
#
# If this CIF has been generated from an entry in the Cambridge 
# Structural Database, then it will include bibliographic, chemical, 
# crystal, experimental, refinement or atomic coordinate data resulting 
# from the CCDC's data processing and validation procedures.
#
#######################################################################

data_WEMQOV
_symmetry_cell_setting           triclinic
_symmetry_space_group_name_H-M   'P -1'
_symmetry_Int_Tables_number      2
_space_group_name_Hall           '-P 1'
loop_
_symmetry_equiv_pos_site_id
_symmetry_equiv_pos_as_xyz
1 x,y,z
2 -x,-y,-z
_cell_length_a                   8.754(4)
_cell_length_b                   9.486(5)
_cell_length_c                   11.988(6)
_cell_angle_alpha                93.216(8)
_cell_angle_beta                 100.419(9)
_cell_angle_gamma                112.405(7)
_cell_volume                     896.569
loop_
_atom_site_label
_atom_site_type_symbol
_atom_site_fract_x
_atom_site_fract_y
_atom_site_fract_z
Eu1 Eu 0.38224(8) 0.84486(7) 0.36133(6)
O1 O 0.2347(12) 0.5788(10) 0.4022(9)
O2 O 0.4582(13) 0.6225(10) 0.3305(9)
O3 O 0.4754(11) 0.1350(9) 0.4478(7)
O4 O 0.3516(13) 0.0603(10) 0.2687(8)
O5 O 0.1935(11) 0.8762(10) 0.4680(8)
O6 O 0.3291(11) 1.0240(10) 0.6366(8)
N1 N 0.3842(15) 0.8023(12) 0.1443(10)
N2 N 0.0906(14) 0.7259(12) 0.2179(9)
C1 C 0.3419(16) 0.5351(14) 0.3698(10)
C2 C 0.3229(18) 0.3719(14) 0.3839(13)
H1 H 0.3371 0.3612 0.4647
H2 H 0.2091 0.3014 0.3458
C3 C 0.4488(18) 0.3274(13) 0.3358(12)
H3 H 0.4354 0.3377 0.2549
H4 H 0.5630 0.3964 0.3743
C4 C 0.4235(17) 0.1650(13) 0.3513(12)
C5 C 0.2052(17) 0.9648(14) 0.5531(11)
C6 C 0.061(2) 1.015(2) 0.5556(13)
H5 H -0.0010 0.9630 0.6110
H6 H 0.1084 1.1247 0.5822
C7 C 0.525(2) 0.8386(16) 0.1070(13)
H7 H 0.6268 0.8688 0.1609
C8 C 0.532(3) 0.8345(17) -0.0077(14)
H8 H 0.6343 0.8602 -0.0298
C9 C 0.383(2) 0.7916(18) -0.0883(15)
H9 H 0.3836 0.7895 -0.1658
C10 C 0.232(2) 0.7515(18) -0.0521(13)
C11 C 0.069(3) 0.698(2) -0.1284(14)
H10 H 0.0636 0.6999 -0.2064
C12 C -0.079(2) 0.646(3) -0.0919(15)
H11 H -0.1829 0.6011 -0.1441
C13 C -0.072(2) 0.6620(18) 0.0257(14)
C14 C -0.221(2) 0.622(2) 0.0673(15)
H12 H -0.3260 0.5918 0.0176
C15 C -0.2074(19) 0.6272(17) 0.1811(16)
H13 H -0.3043 0.5949 0.2108
C16 C -0.0506(19) 0.6803(15) 0.2534(13)
H14 H -0.0447 0.6841 0.3318
C17 C 0.0829(19) 0.7169(15) 0.1041(12)
C18 C 0.2376(19) 0.7587(14) 0.0667(12)
Eu1_2 Eu 0.38224(8) 1.84486(7) 0.36133(6)
Eu1_3 Eu 0.38224(8) -0.15514(7) 0.36133(6)
Eu1A Eu 0.61776(8) 0.15514(7) 0.63867(6)
Eu1A_2 Eu 0.61776(8) 1.15514(7) 0.63867(6)
Eu1A_3 Eu -0.38224(8) 1.15514(7) 0.63867(6)
Eu1_4 Eu -0.61776(8) 0.84486(7) 0.36133(6)
O1_2 O 0.2347(12) 1.5788(10) 0.4022(9)
O2_2 O 0.4582(13) 1.6225(10) 0.3305(9)
O3_2 O 0.4754(11) 1.1350(9) 0.4478(7)
O3A O 0.5246(11) 0.8650(9) 0.5522(7)
O3_3 O 0.4754(11) 2.1350(9) 0.4478(7)
O3A_2 O 0.5246(11) 1.8650(9) 0.5522(7)
O4_2 O 0.3516(13) 1.0603(10) 0.2687(8)
O4_3 O 0.3516(13) 2.0603(10) 0.2687(8)
O5A O -0.1935(11) 1.1238(10) 0.5320(8)
O5_2 O 0.1935(11) 1.8762(10) 0.4680(8)
O6A O -0.3291(11) 0.9760(10) 0.3634(8)
O6A_2 O 0.6709(11) 0.9760(10) 0.3634(8)
O6A_3 O 0.6709(11) 1.9760(10) 0.3634(8)
N1_2 N 0.3842(15) 1.8023(12) 0.1443(10)
N2_2 N 0.0906(14) 1.7259(12) 0.2179(9)
C1_2 C 0.3419(16) 1.5351(14) 0.3698(10)
C2_2 C 0.3229(18) 1.3719(14) 0.3839(13)
H1_2 H 0.3371 1.3612 0.4647
H2_2 H 0.2091 1.3014 0.3458
C3_2 C 0.4488(18) 1.3274(13) 0.3358(12)
H3_2 H 0.4354 1.3377 0.2549
H4_2 H 0.5630 1.3964 0.3743
C4_2 C 0.4235(17) 1.1650(13) 0.3513(12)
C5A C -0.2052(17) 1.0352(14) 0.4469(11)
C6A C -0.061(2) 0.985(2) 0.4444(13)
H5A H 0.0010 1.0370 0.3890
H6A H -0.1084 0.8753 0.4178
C7_2 C 0.525(2) 1.8386(16) 0.1070(13)
H7_2 H 0.6268 1.8688 0.1609
C8_2 C 0.532(3) 1.8345(17) -0.0077(14)
H8_2 H 0.6343 1.8602 -0.0298
C9_2 C 0.383(2) 1.7916(18) -0.0883(15)
H9_2 H 0.3836 1.7895 -0.1658
C10_2 C 0.232(2) 1.7515(18) -0.0521(13)
C11_2 C 0.069(3) 1.698(2) -0.1284(14)
H10_2 H 0.0636 1.6999 -0.2064
C12_2 C -0.079(2) 1.646(3) -0.0919(15)
H11_2 H -0.1829 1.6011 -0.1441
C13_2 C -0.072(2) 1.6620(18) 0.0257(14)
C14_2 C -0.221(2) 1.622(2) 0.0673(15)
H12_2 H -0.3260 1.5918 0.0176
C15_2 C -0.2074(19) 1.6272(17) 0.1811(16)
H13_2 H -0.3043 1.5949 0.2108
C16_2 C -0.0506(19) 1.6803(15) 0.2534(13)
H14_2 H -0.0447 1.6841 0.3318
C17_2 C 0.0829(19) 1.7169(15) 0.1041(12)
C18_2 C 0.2376(19) 1.7587(14) 0.0667(12)
O7 O 0.112(3) 0.618(2) 0.6165(18)
loop_
_geom_bond_atom_site_label_1
_geom_bond_atom_site_label_2
_geom_bond_site_symmetry_1
_geom_bond_site_symmetry_2
Eu1 O1 1_555 1_555
O1 C1 1_555 1_555
O2 Eu1 1_555 1_555
O3 C4 1_555 1_555
O4 C4 1_555 1_555
O5 Eu1 1_555 1_555
O6 C5 1_555 1_555
N1 Eu1 1_555 1_555
N2 Eu1 1_555 1_555
C1 O2 1_555 1_555
C2 C1 1_555 1_555
H1 C2 1_555 1_555
H2 C2 1_555 1_555
C3 C2 1_555 1_555
H3 C3 1_555 1_555
H4 C3 1_555 1_555
C4 C3 1_555 1_555
C5 O5 1_555 1_555
C6 C5 1_555 1_555
H5 C6 1_555 1_555
H6 C6 1_555 1_555
C7 N1 1_555 1_555
H7 C7 1_555 1_555
C8 C7 1_555 1_555
H8 C8 1_555 1_555
C9 C8 1_555 1_555
H9 C9 1_555 1_555
C10 C9 1_555 1_555
C11 C10 1_555 1_555
H10 C11 1_555 1_555
C12 C11 1_555 1_555
H11 C12 1_555 1_555
C13 C12 1_555 1_555
C14 C13 1_555 1_555
H12 C14 1_555 1_555
C15 C14 1_555 1_555
H13 C15 1_555 1_555
C16 N2 1_555 1_555
H14 C16 1_555 1_555
C17 N2 1_555 1_555
C18 N1 1_555 1_555
Eu1_2 O1_2 1_555 1_555
Eu1_3 O3 1_555 1_555
Eu1A O3 1_555 1_555
Eu1A_2 O6 1_555 1_555
Eu1A_3 O5A 1_555 1_555
Eu1_4 O6A 1_555 1_555
O1_2 C1_2 1_555 1_555
O2_2 Eu1_2 1_555 1_555
O3_2 Eu1 1_555 1_555
O3A Eu1 1_555 1_555
O3_3 Eu1_2 1_555 1_555
O3A_2 Eu1_2 1_555 1_555
O4_2 Eu1 1_555 1_555
O4_3 Eu1_2 1_555 1_555
O5A C5A 1_555 1_555
O5_2 Eu1_2 1_555 1_555
O6A C5A 1_555 1_555
O6A_2 Eu1 1_555 1_555
O6A_3 Eu1_2 1_555 1_555
N1_2 Eu1_2 1_555 1_555
N2_2 Eu1_2 1_555 1_555
C1_2 O2_2 1_555 1_555
C2_2 C1_2 1_555 1_555
H1_2 C2_2 1_555 1_555
H2_2 C2_2 1_555 1_555
C3_2 C2_2 1_555 1_555
H3_2 C3_2 1_555 1_555
H4_2 C3_2 1_555 1_555
C4_2 O3_2 1_555 1_555
C5A C6A 1_555 1_555
C6A C6 1_555 1_555
H5A C6A 1_555 1_555
H6A C6A 1_555 1_555
C7_2 N1_2 1_555 1_555
H7_2 C7_2 1_555 1_555
C8_2 C7_2 1_555 1_555
H8_2 C8_2 1_555 1_555
C9_2 C8_2 1_555 1_555
H9_2 C9_2 1_555 1_555
C10_2 C9_2 1_555 1_555
C11_2 C10_2 1_555 1_555
H10_2 C11_2 1_555 1_555
C12_2 C11_2 1_555 1_555
H11_2 C12_2 1_555 1_555
C13_2 C12_2 1_555 1_555
C14_2 C13_2 1_555 1_555
H12_2 C14_2 1_555 1_555
C15_2 C14_2 1_555 1_555
H13_2 C15_2 1_555 1_555
C16_2 N2_2 1_555 1_555
H14_2 C16_2 1_555 1_555
C17_2 N2_2 1_555 1_555
C18_2 N1_2 1_555 1_555
O4 Eu1_3 1_555 1_555
C10 C18 1_555 1_555
C13 C17 1_555 1_555
C15 C16 1_555 1_555
C17 C18 1_555 1_555
Eu1A_2 O3_2 1_555 1_555
Eu1A_2 O3A 1_555 1_555
O4_2 C4_2 1_555 1_555
C3_2 C4_2 1_555 1_555
C10_2 C18_2 1_555 1_555
C13_2 C17_2 1_555 1_555
C15_2 C16_2 1_555 1_555
C17_2 C18_2 1_555 1_555

#END
