
#######################################################################
#
#                 Cambridge Crystallographic Data Centre
#                                CCDC 
#
#######################################################################
#
# If this CIF has been generated from an entry in the Cambridge 
# Structural Database, then it will include bibliographic, chemical, 
# crystal, experimental, refinement or atomic coordinate data resulting 
# from the CCDC's data processing and validation procedures.
#
#######################################################################

data_WEMQUB
_symmetry_cell_setting           triclinic
_symmetry_space_group_name_H-M   'P -1'
_symmetry_Int_Tables_number      2
_space_group_name_Hall           '-P 1'
loop_
_symmetry_equiv_pos_site_id
_symmetry_equiv_pos_as_xyz
1 x,y,z
2 -x,-y,-z
_cell_length_a                   7.334(3)
_cell_length_b                   9.995(5)
_cell_length_c                   12.863(6)
_cell_angle_alpha                112.408(6)
_cell_angle_beta                 91.735(7)
_cell_angle_gamma                97.678(6)
_cell_volume                     860.49
loop_
_atom_site_label
_atom_site_type_symbol
_atom_site_fract_x
_atom_site_fract_y
_atom_site_fract_z
Er1 Er 0.70866(4) 0.57194(3) 0.68813(3)
O1 O 0.4184(7) 0.4997(6) 0.6185(5)
O2 O 0.2108(7) 0.4045(6) 0.4724(5)
O3 O -0.0276(7) 0.4658(5) 0.6844(5)
O4 O -0.2708(7) 0.3181(5) 0.5822(5)
O5 O 0.6494(10) 0.4652(7) 0.8229(6)
O6 O 0.5791(9) 0.6827(6) 0.8649(5)
N1 N 0.6377(8) 0.8163(6) 0.7023(5)
N2 N 0.9598(8) 0.7812(6) 0.7931(6)
C1 C 0.2861(9) 0.4045(7) 0.5601(6)
C2 C 0.2190(11) 0.2826(8) 0.5974(8)
H1 H 0.2410 0.3180 0.6788
H2 H 0.2895 0.2033 0.5645
C3 C 0.0150(11) 0.2239(8) 0.5634(8)
H3 H -0.0068 0.1845 0.4818
H4 H -0.0208 0.1449 0.5884
C4 C -0.1024(10) 0.3429(8) 0.6142(6)
C5 C 0.5751(10) 0.5690(8) 0.8841(6)
C6 C 0.4753(13) 0.5574(9) 0.9817(8)
H5 H 0.5018 0.6511 1.0451
H6 H 0.3435 0.5377 0.9604
C7 C 0.4866(11) 0.8332(9) 0.6539(7)
H7 H 0.3998 0.7507 0.6144
C8 C 0.4506(12) 0.9691(9) 0.6590(8)
H8 H 0.3429 0.9757 0.6224
C9 C 0.5742(12) 1.0924(9) 0.7180(8)
H9 H 0.5516 1.1838 0.7226
C10 C 0.7346(11) 1.0789(8) 0.7710(7)
C11 C 0.8720(12) 1.2023(9) 0.8349(8)
H10 H 0.8548 1.2958 0.8419
C12 C 1.0233(12) 1.1845(8) 0.8840(9)
H11 H 1.1076 1.2671 0.9270
C13 C 1.0625(11) 1.0436(8) 0.8737(8)
C14 C 1.2227(10) 1.0216(9) 0.9206(8)
H12 H 1.3107 1.1012 0.9643
C15 C 1.2501(11) 0.8831(9) 0.9023(8)
H13 H 1.3579 0.8667 0.9323
C16 C 1.1156(11) 0.7662(9) 0.8385(8)
H14 H 1.1364 0.6720 0.8271
C17 C 0.9309(10) 0.9195(7) 0.8105(6)
C18 C 0.7649(10) 0.9384(7) 0.7610(6)
Er1A Er 0.29134(4) 0.42806(3) 0.31187(3)
Er1_2 Er -0.29134(4) 0.57194(3) 0.68813(3)
Er1A_2 Er 0.29134(4) 0.42806(3) 1.31187(3)
Er1A_3 Er 1.29134(4) 0.42806(3) 0.31187(3)
O1A O 0.5816(7) 0.5003(6) 0.3815(5)
O2A O 0.7892(7) 0.5955(6) 0.5276(5)
O3A O 1.0276(7) 0.5342(5) 0.3156(5)
O3_2 O 0.9724(7) 0.4658(5) 0.6844(5)
O3A_2 O 0.0276(7) 0.5342(5) 0.3156(5)
O4A O 1.2708(7) 0.6819(5) 0.4178(5)
O4_2 O 0.7292(7) 0.3181(5) 0.5822(5)
O4A_2 O 0.2708(7) 0.6819(5) 0.4178(5)
O5A O 0.3506(10) 0.5348(7) 1.1771(6)
O5A_2 O 0.3506(10) 0.5348(7) 0.1771(6)
O6A O 0.4209(9) 0.3173(6) 1.1351(5)
O6A_2 O 0.4209(9) 0.3173(6) 0.1351(5)
N1A N 0.3623(8) 0.1837(6) 0.2977(5)
N2A N 0.0402(8) 0.2188(6) 0.2069(6)
C1A C 0.7139(9) 0.5955(7) 0.4399(6)
C2A C 0.7810(11) 0.7174(8) 0.4026(8)
H1A H 0.7590 0.6820 0.3212
H2A H 0.7105 0.7967 0.4355
C3A C 0.9850(11) 0.7761(8) 0.4366(8)
H3A H 1.0068 0.8155 0.5182
H4A H 1.0208 0.8551 0.4116
C4A C 1.1024(10) 0.6571(8) 0.3858(6)
C5A C 0.4249(10) 0.4310(8) 1.1159(6)
C6A C 0.5247(13) 0.4426(9) 1.0183(8)
H5A H 0.4982 0.3489 0.9549
H6A H 0.6565 0.4623 1.0396
C7A C 0.5134(11) 0.1668(9) 0.3461(7)
H7A H 0.6002 0.2493 0.3856
C8A C 0.5494(12) 0.0309(9) 0.3410(8)
H8A H 0.6571 0.0243 0.3776
C9A C 0.4258(12) -0.0924(9) 0.2820(8)
H9A H 0.4484 -0.1838 0.2774
C10A C 0.2654(11) -0.0789(8) 0.2290(7)
C11A C 0.1280(12) -0.2023(9) 0.1651(8)
H10A H 0.1452 -0.2958 0.1581
C12A C -0.0233(12) -0.1845(8) 0.1160(9)
H11A H -0.1076 -0.2671 0.0730
C13A C -0.0625(11) -0.0436(8) 0.1263(8)
C14A C -0.2227(10) -0.0216(9) 0.0794(8)
H12A H -0.3107 -0.1012 0.0357
C15A C -0.2501(11) 0.1169(9) 0.0977(8)
H13A H -0.3579 0.1333 0.0677
C16A C -0.1156(11) 0.2338(9) 0.1615(8)
H14A H -0.1364 0.3280 0.1729
C17A C 0.0691(10) 0.0805(7) 0.1895(6)
C18A C 0.2351(10) 0.0616(7) 0.2390(6)
loop_
_geom_bond_atom_site_label_1
_geom_bond_atom_site_label_2
_geom_bond_site_symmetry_1
_geom_bond_site_symmetry_2
Er1 O1 1_555 1_555
O1 C1 1_555 1_555
O2 C1 1_555 1_555
O3 C4 1_555 1_555
O4 C4 1_555 1_555
O5 Er1 1_555 1_555
O6 Er1 1_555 1_555
N1 Er1 1_555 1_555
N2 Er1 1_555 1_555
C1 C2 1_555 1_555
C2 H1 1_555 1_555
H2 C2 1_555 1_555
C3 C2 1_555 1_555
H3 C3 1_555 1_555
H4 C3 1_555 1_555
C4 C3 1_555 1_555
C5 O5 1_555 1_555
C6 C5 1_555 1_555
H5 C6 1_555 1_555
H6 C6 1_555 1_555
C7 N1 1_555 1_555
H7 C7 1_555 1_555
C8 C7 1_555 1_555
H8 C8 1_555 1_555
C9 C8 1_555 1_555
H9 C9 1_555 1_555
C10 C9 1_555 1_555
C11 C10 1_555 1_555
H10 C11 1_555 1_555
C12 C11 1_555 1_555
H11 C12 1_555 1_555
C13 C12 1_555 1_555
C14 C13 1_555 1_555
H12 C14 1_555 1_555
C15 C14 1_555 1_555
H13 C15 1_555 1_555
C16 N2 1_555 1_555
H14 C16 1_555 1_555
C17 N2 1_555 1_555
C18 N1 1_555 1_555
Er1A O2 1_555 1_555
Er1_2 O3 1_555 1_555
Er1A_2 O5A 1_555 1_555
Er1A_3 O3A 1_555 1_555
O1A Er1A 1_555 1_555
O2A Er1 1_555 1_555
O3A C4A 1_555 1_555
O3_2 Er1 1_555 1_555
O3A_2 Er1A 1_555 1_555
O4A Er1A_3 1_555 1_555
O4_2 Er1 1_555 1_555
O4A_2 Er1A 1_555 1_555
O5A C5A 1_555 1_555
O5A_2 Er1A 1_555 1_555
O6A Er1A_2 1_555 1_555
O6A_2 Er1A 1_555 1_555
N1A Er1A 1_555 1_555
N2A Er1A 1_555 1_555
C1A O1A 1_555 1_555
C2A C1A 1_555 1_555
H1A C2A 1_555 1_555
H2A C2A 1_555 1_555
C3A C2A 1_555 1_555
H3A C3A 1_555 1_555
H4A C3A 1_555 1_555
C4A O4A 1_555 1_555
C5A O6A 1_555 1_555
C6A C6 1_555 1_555
H5A C6A 1_555 1_555
H6A C6A 1_555 1_555
C7A N1A 1_555 1_555
H7A C7A 1_555 1_555
C8A C7A 1_555 1_555
H8A C8A 1_555 1_555
C9A C8A 1_555 1_555
H9A C9A 1_555 1_555
C10A C9A 1_555 1_555
C11A C10A 1_555 1_555
H10A C11A 1_555 1_555
C12A C11A 1_555 1_555
H11A C12A 1_555 1_555
C13A C12A 1_555 1_555
C14A C13A 1_555 1_555
H12A C14A 1_555 1_555
C15A C14A 1_555 1_555
H13A C15A 1_555 1_555
C16A N2A 1_555 1_555
H14A C16A 1_555 1_555
C17A N2A 1_555 1_555
C18A N1A 1_555 1_555
O4 Er1_2 1_555 1_555
O6 C5 1_555 1_555
C10 C18 1_555 1_555
C13 C17 1_555 1_555
C15 C16 1_555 1_555
C17 C18 1_555 1_555
O2A C1A 1_555 1_555
C3A C4A 1_555 1_555
C5A C6A 1_555 1_555
C10A C18A 1_555 1_555
C13A C17A 1_555 1_555
C15A C16A 1_555 1_555
C17A C18A 1_555 1_555

#END
