
#######################################################################
#
#                 Cambridge Crystallographic Data Centre
#                                CCDC 
#
#######################################################################
#
# If this CIF has been generated from an entry in the Cambridge 
# Structural Database, then it will include bibliographic, chemical, 
# crystal, experimental, refinement or atomic coordinate data resulting 
# from the CCDC's data processing and validation procedures.
#
#######################################################################

data_WEMREM
_symmetry_cell_setting           monoclinic
_symmetry_space_group_name_H-M   'P 21/n'
_symmetry_Int_Tables_number      14
_space_group_name_Hall           '-P 2yn'
loop_
_symmetry_equiv_pos_site_id
_symmetry_equiv_pos_as_xyz
1 x,y,z
2 1/2-x,1/2+y,1/2-z
3 -x,-y,-z
4 1/2+x,1/2-y,1/2+z
_cell_length_a                   9.0743(12)
_cell_length_b                   15.498(2)
_cell_length_c                   10.5712(14)
_cell_angle_alpha                90
_cell_angle_beta                 90.693(2)
_cell_angle_gamma                90
_cell_volume                     1486.56
loop_
_atom_site_label
_atom_site_type_symbol
_atom_site_fract_x
_atom_site_fract_y
_atom_site_fract_z
Cu1 Cu 0.09766(5) 1.17826(3) -0.14554(5)
Cu2 Cu 0.41855(7) 1.20523(4) 0.06628(7)
Cu3 Cu -0.29071(6) 1.16793(3) -0.05629(5)
Cl1 Cl 0.23328(14) 1.28668(7) -0.06063(12)
Cl2 Cl -0.11960(10) 1.25134(6) -0.16689(10)
Cl3 Cl 0.63526(11) 1.26517(7) 0.09656(10)
N1 N 0.0179(3) 1.0664(2) -0.2255(3)
N2 N 0.2185(3) 1.09276(19) -0.0569(3)
N3 N 0.3202(3) 1.09502(19) 0.0394(3)
N4 N 0.2526(3) 0.95765(19) 0.0040(3)
N5 N 0.4254(4) 0.8943(2) 0.1918(3)
C1 C -0.0803(5) 1.0583(3) -0.3200(4)
H1 H -0.1205 1.1078 -0.3561
C2 C -0.1240(5) 0.9786(3) -0.3656(4)
H2 H -0.1926 0.9752 -0.4314
C3 C -0.0665(5) 0.9053(3) -0.3143(4)
H3 H -0.0950 0.8514 -0.3447
C4 C 0.0352(5) 0.9121(3) -0.2158(4)
H4 H 0.0760 0.8631 -0.1784
C5 C 0.0740(4) 0.9932(2) -0.1749(3)
C6 C 0.1816(4) 1.0110(2) -0.0754(3)
C7 C 0.3371(4) 1.0127(2) 0.0730(3)
C8 C 0.4317(4) 0.9805(2) 0.1763(3)
C9 C 0.5152(4) 1.0337(3) 0.2544(4)
H5 H 0.5205 1.0927 0.2391
C10 C 0.5906(5) 0.9971(3) 0.3555(4)
H6 H 0.6468 1.0313 0.4100
C11 C 0.5811(5) 0.9093(3) 0.3742(4)
H7 H 0.6289 0.8834 0.4426
C12 C 0.4997(5) 0.8609(3) 0.2900(4)
H8 H 0.4962 0.8015 0.3020
Cu3_2 Cu 0.70929(6) 1.16793(3) -0.05629(5)
Cu3B Cu 0.29071(6) 0.83207(3) 0.05629(5)
Cl3_2 Cl -0.36474(11) 1.26517(7) 0.09656(10)
N4B N -0.2526(3) 1.04235(19) -0.0040(3)
N5B N -0.4254(4) 1.1057(2) -0.1918(3)
loop_
_geom_bond_atom_site_label_1
_geom_bond_atom_site_label_2
_geom_bond_site_symmetry_1
_geom_bond_site_symmetry_2
Cu1 Cl1 1_555 1_555
Cu2 Cl1 1_555 1_555
Cu3 Cl2 1_555 1_555
Cl2 Cu1 1_555 1_555
Cl3 Cu2 1_555 1_555
N1 Cu1 1_555 1_555
N2 Cu1 1_555 1_555
N3 Cu2 1_555 1_555
N4 C6 1_555 1_555
N5 C8 1_555 1_555
C1 N1 1_555 1_555
H1 C1 1_555 1_555
C2 C1 1_555 1_555
H2 C2 1_555 1_555
C3 C2 1_555 1_555
H3 C3 1_555 1_555
C4 C3 1_555 1_555
H4 C4 1_555 1_555
C5 N1 1_555 1_555
C6 N2 1_555 1_555
C7 N3 1_555 1_555
C8 C7 1_555 1_555
C9 C8 1_555 1_555
H5 C9 1_555 1_555
C10 C9 1_555 1_555
H6 C10 1_555 1_555
C11 C10 1_555 1_555
H7 C11 1_555 1_555
C12 N5 1_555 1_555
H8 C12 1_555 1_555
Cu3_2 Cl3 1_555 1_555
Cu3B N4 1_555 1_555
Cl3_2 Cu3 1_555 1_555
N4B Cu3 1_555 1_555
N5B Cu3 1_555 1_555
N2 N3 1_555 1_555
N4 C7 1_555 1_555
N5 Cu3B 1_555 1_555
C4 C5 1_555 1_555
C5 C6 1_555 1_555
C11 C12 1_555 1_555

#END
