
#######################################################################
#
#                 Cambridge Crystallographic Data Centre
#                                CCDC 
#
#######################################################################
#
# If this CIF has been generated from an entry in the Cambridge 
# Structural Database, then it will include bibliographic, chemical, 
# crystal, experimental, refinement or atomic coordinate data resulting 
# from the CCDC's data processing and validation procedures.
#
#######################################################################

data_WEMXUJ
_symmetry_cell_setting           orthorhombic
_symmetry_space_group_name_H-M   'F d d 2'
_symmetry_Int_Tables_number      43
_space_group_name_Hall           'F 2 -2d'
loop_
_symmetry_equiv_pos_site_id
_symmetry_equiv_pos_as_xyz
1 x,y,z
2 -x,-y,z
3 1/4-x,1/4+y,1/4+z
4 3/4+x,3/4-y,1/4+z
5 x,1/2+y,1/2+z
6 -x,1/2-y,1/2+z
7 1/4-x,3/4+y,3/4+z
8 3/4+x,1/4-y,3/4+z
9 1/2+x,y,1/2+z
10 1/2-x,-y,1/2+z
11 3/4-x,1/4+y,3/4+z
12 1/4+x,3/4-y,3/4+z
13 1/2+x,1/2+y,z
14 1/2-x,1/2-y,z
15 3/4-x,3/4+y,1/4+z
16 1/4+x,1/4-y,1/4+z
_cell_length_a                   23.934(7)
_cell_length_b                   29.782(5)
_cell_length_c                   10.9902(18)
_cell_angle_alpha                90
_cell_angle_beta                 90
_cell_angle_gamma                90
_cell_volume                     7833.84
loop_
_atom_site_label
_atom_site_type_symbol
_atom_site_fract_x
_atom_site_fract_y
_atom_site_fract_z
Cu1 Cu -0.63524(8) -0.65958(6) -0.11936(17)
O1 O -0.7031(5) -0.6348(4) -0.1995(10)
O2 O -0.6510(6) -0.5882(5) -0.3080(11)
O3 O -0.7881(4) -0.5132(4) -0.5594(9)
O4 O -0.8287(4) -0.5546(3) -0.7714(7)
O5 O -0.9124(5) -0.5273(5) -0.7324(9)
O6 O -0.5589(5) -0.6093(4) -0.2152(9)
H1 H -0.5460 -0.6223 -0.2788
H2 H -0.5729 -0.5839 -0.2352
N1 N -0.6360(4) -0.6155(3) 0.0179(8)
N2 N -0.6204(5) -0.4559(4) 0.4946(10)
C1 C -0.6966(8) -0.6064(6) -0.2739(15)
C2 C -0.7536(6) -0.5942(5) -0.3290(12)
C3 C -0.8073(6) -0.6111(5) -0.3012(11)
H3 H -0.8109 -0.6332 -0.2420
C4 C -0.8547(7) -0.5957(6) -0.3597(15)
C5 C -0.8524(7) -0.5625(5) -0.4500(11)
H4 H -0.8845 -0.5517 -0.4875
C6 C -0.8001(7) -0.5466(5) -0.4804(11)
C7 C -0.7516(6) -0.5616(5) -0.4192(12)
H5 H -0.7173 -0.5492 -0.4400
C8 C -0.9122(8) -0.6103(6) -0.3289(15)
H6 H -0.9206 -0.6019 -0.2466
H7 H -0.9383 -0.5961 -0.3830
H8 H -0.9150 -0.6423 -0.3373
C9 C -0.8350(6) -0.4957(4) -0.6235(13)
H9 H -0.8635 -0.4875 -0.5649
H10 H -0.8235 -0.4684 -0.6649
C10 C -0.8605(9) -0.5271(5) -0.7159(12)
C11 C -0.6811(5) -0.5982(4) 0.0658(11)
H11 H -0.7153 -0.6071 0.0337
C12 C -0.6817(5) -0.5667(4) 0.1641(9)
H12 H -0.7151 -0.5561 0.1966
C13 C -0.6296(5) -0.5523(4) 0.2094(9)
C14 C -0.5848(6) -0.5708(5) 0.1578(12)
H13 H -0.5497 -0.5624 0.1859
C15 C -0.5880(6) -0.6012(4) 0.0664(11)
H14 H -0.5548 -0.6127 0.0355
C16 C -0.6661(6) -0.4599(5) 0.4307(11)
H15 H -0.6965 -0.4412 0.4460
C17 C -0.6692(6) -0.4922(5) 0.3399(10)
H16 H -0.7026 -0.4951 0.2973
C18 C -0.6265(5) -0.5195(4) 0.3102(10)
C19 C -0.5814(6) -0.5154(5) 0.3825(11)
H17 H -0.5505 -0.5339 0.3705
C20 C -0.5807(7) -0.4844(5) 0.4728(15)
H18 H -0.5494 -0.4835 0.5230
Cu1C Cu -0.88524(8) -0.59042(6) -0.86936(17)
Cu1J Cu -0.61476(8) -0.40958(6) 0.63064(17)
O4K O -0.5787(4) -0.6954(3) -0.0214(7)
O5K O -0.6624(5) -0.7227(5) 0.0176(9)
N2N N -0.6296(5) -0.7059(4) -0.2554(10)
O7 O -0.5032(8) -0.5399(7) -0.1055(19)
loop_
_geom_bond_atom_site_label_1
_geom_bond_atom_site_label_2
_geom_bond_site_symmetry_1
_geom_bond_site_symmetry_2
Cu1 O1 1_555 1_555
O1 C1 1_555 1_555
O2 C1 1_555 1_555
O3 C6 1_555 1_555
O4 C10 1_555 1_555
O5 C10 1_555 1_555
O6 Cu1 1_555 1_555
H1 O6 1_555 1_555
H2 O6 1_555 1_555
N1 Cu1 1_555 1_555
N2 C16 1_555 1_555
C1 C2 1_555 1_555
C2 C3 1_555 1_555
C3 H3 1_555 1_555
C4 C3 1_555 1_555
C5 C4 1_555 1_555
H4 C5 1_555 1_555
C6 C5 1_555 1_555
C7 C2 1_555 1_555
H5 C7 1_555 1_555
C8 C4 1_555 1_555
H6 C8 1_555 1_555
H7 C8 1_555 1_555
H8 C8 1_555 1_555
C9 O3 1_555 1_555
H9 C9 1_555 1_555
H10 C9 1_555 1_555
C10 C9 1_555 1_555
C11 N1 1_555 1_555
H11 C11 1_555 1_555
C12 C11 1_555 1_555
H12 C12 1_555 1_555
C13 C12 1_555 1_555
C14 C13 1_555 1_555
H13 C14 1_555 1_555
C15 N1 1_555 1_555
H14 C15 1_555 1_555
C16 H15 1_555 1_555
C17 C16 1_555 1_555
H16 C17 1_555 1_555
C18 C13 1_555 1_555
C19 C18 1_555 1_555
H17 C19 1_555 1_555
C20 N2 1_555 1_555
H18 C20 1_555 1_555
Cu1C O4 1_555 1_555
Cu1J N2 1_555 1_555
O4K Cu1 1_555 1_555
O5K Cu1 1_555 1_555
N2N Cu1 1_555 1_555
O5 Cu1C 1_555 1_555
C6 C7 1_555 1_555
C14 C15 1_555 1_555
C17 C18 1_555 1_555
C19 C20 1_555 1_555

#END
