
#######################################################################
#
#                 Cambridge Crystallographic Data Centre
#                                CCDC 
#
#######################################################################
#
# If this CIF has been generated from an entry in the Cambridge 
# Structural Database, then it will include bibliographic, chemical, 
# crystal, experimental, refinement or atomic coordinate data resulting 
# from the CCDC's data processing and validation procedures.
#
#######################################################################

data_WEMXIX
_symmetry_cell_setting           trigonal
_symmetry_space_group_name_H-M   'P -3 c 1'
_symmetry_Int_Tables_number      165
_space_group_name_Hall           '-P 3 2"c'
loop_
_symmetry_equiv_pos_site_id
_symmetry_equiv_pos_as_xyz
1 x,y,z
2 -y,x-y,z
3 -x+y,-x,z
4 y,x,1/2-z
5 -x,-x+y,1/2-z
6 x-y,-y,1/2-z
7 -x,-y,-z
8 y,-x+y,-z
9 x-y,x,-z
10 -y,-x,1/2+z
11 x,x-y,1/2+z
12 -x+y,y,1/2+z
_cell_length_a                   21.7696(13)
_cell_length_b                   21.7696(13)
_cell_length_c                   8.7212(7)
_cell_angle_alpha                90
_cell_angle_beta                 90
_cell_angle_gamma                120
_cell_volume                     3579.38
loop_
_atom_site_label
_atom_site_type_symbol
_atom_site_fract_x
_atom_site_fract_y
_atom_site_fract_z
Cu1 Cu 0.46932(3) 0.41708(3) 0.39890(6)
O1 O 0.44483(16) 0.35264(16) 0.2256(3)
O2 O 0.44523(17) 0.13332(16) 0.0458(3)
O3 O 0.54066(16) 0.10786(15) 0.3394(3)
O4 O 0.38602(16) 0.37304(15) 0.0424(3)
O5 O 0.50307(15) 0.05336(15) 0.1128(3)
C1 C 0.3486(2) 0.1329(2) -0.0735(5)
H1 H 0.3353 0.0877 -0.1093
C2 C 0.4078(2) 0.3363(2) 0.1066(5)
C3 C 0.4873(3) 0.1523(2) 0.1782(5)
H2 H 0.4601 0.1537 0.2650
H3 H 0.5282 0.1993 0.1652
C4 C 0.3298(3) 0.2321(2) -0.0588(5)
H4 H 0.3050 0.2547 -0.0875
C5 C 0.4076(3) 0.1680(3) 0.0181(5)
C6 C 0.2427(3) 0.1255(3) -0.2124(6)
H5 H 0.2270 0.0757 -0.2124
H6 H 0.2536 0.1433 -0.3153
H7 H 0.2058 0.1328 -0.1720
C7 C 0.4275(2) 0.2338(2) 0.0768(5)
H8 H 0.4666 0.2566 0.1412
C8 C 0.3880(2) 0.2663(2) 0.0382(5)
C9 C 0.3085(2) 0.1643(3) -0.1134(5)
C10 C 0.5119(2) 0.0997(2) 0.2094(5)
Cu1J Cu 0.46932(3) 0.05224(4) -0.10110(6)
Cu1A Cu 0.58292(3) 0.05224(4) 0.39890(6)
Cu1C Cu 0.41708(3) 0.46932(3) 0.10110(6)
Cu1D Cu 0.53068(3) -0.05224(4) 0.10110(6)
O2J O 0.44523(17) 0.31191(23) 0.5458(3)
O3B O 0.56720(22) 0.45934(16) 0.3394(3)
O4C O 0.37304(15) 0.38602(16) 0.4576(3)
O5D O 0.49693(15) 0.55029(21) 0.3872(3)
O5J O 0.50307(15) 0.44971(21) 0.6128(3)
loop_
_geom_bond_atom_site_label_1
_geom_bond_atom_site_label_2
_geom_bond_site_symmetry_1
_geom_bond_site_symmetry_2
Cu1 O1 1_555 1_555
O1 C2 1_555 1_555
O2 C3 1_555 1_555
O3 C10 1_555 1_555
O4 C2 1_555 1_555
O5 C10 1_555 1_555
C1 H1 1_555 1_555
C2 C8 1_555 1_555
C3 H2 1_555 1_555
H3 C3 1_555 1_555
C4 H4 1_555 1_555
C5 O2 1_555 1_555
C6 H5 1_555 1_555
H6 C6 1_555 1_555
H7 C6 1_555 1_555
C7 C5 1_555 1_555
H8 C7 1_555 1_555
C8 C4 1_555 1_555
C9 C1 1_555 1_555
C10 C3 1_555 1_555
Cu1J O2 1_555 1_555
Cu1A O3 1_555 1_555
Cu1C O4 1_555 1_555
Cu1D O5 1_555 1_555
O2J Cu1 1_555 1_555
O3B Cu1 1_555 1_555
O4C Cu1 1_555 1_555
O5D Cu1 1_555 1_555
O5J Cu1 1_555 1_555
O5 Cu1J 1_555 1_555
C1 C5 1_555 1_555
C4 C9 1_555 1_555
C6 C9 1_555 1_555
C7 C8 1_555 1_555

#END
