
#######################################################################
#
#                 Cambridge Crystallographic Data Centre
#                                CCDC 
#
#######################################################################
#
# If this CIF has been generated from an entry in the Cambridge 
# Structural Database, then it will include bibliographic, chemical, 
# crystal, experimental, refinement or atomic coordinate data resulting 
# from the CCDC's data processing and validation procedures.
#
#######################################################################

data_WEMYES01
_symmetry_cell_setting           monoclinic
_symmetry_space_group_name_H-M   'P 21/c'
_symmetry_Int_Tables_number      14
_space_group_name_Hall           '-P 2ybc'
loop_
_symmetry_equiv_pos_site_id
_symmetry_equiv_pos_as_xyz
1 x,y,z
2 -x,1/2+y,1/2-z
3 -x,-y,-z
4 x,1/2-y,1/2+z
_cell_length_a                   5.3593(4)
_cell_length_b                   6.6217(4)
_cell_length_c                   30.695(2)
_cell_angle_alpha                90
_cell_angle_beta                 98.810(3)
_cell_angle_gamma                90
_cell_volume                     1076.44
loop_
_atom_site_label
_atom_site_type_symbol
_atom_site_fract_x
_atom_site_fract_y
_atom_site_fract_z
Zr1 Zr 0.1901(7) 0.2609(9) 0.20032(10)
P1 P 0.2371(15) 0.7539(22) 0.22993(22)
P2 P 0.6362(16) 0.2318(21) 0.11987(21)
O1 O 0.1959(23) 0.5692(16) 0.19912(34)
O2 O 0.5308(16) 0.7588(23) 0.24690(29)
O3 O 0.0799(19) 0.7611(22) 0.26362(30)
O4 O 0.1978(24) 0.9500(16) 0.19895(34)
O5 O 0.4575(21) 0.2684(24) 0.15691(32)
O6 O 0.9101(18) 0.2632(23) 0.14303(30)
O7 O 0.5493(32) 0.3840(24) 0.08238(37)
C1 C 0.584(4) -0.0313(23) 0.1032(7)
C2 C 0.731(7) -0.1724(32) 0.1400(8)
C3 C 0.983(6) -0.2340(78) 0.1182(10)
O2A O 0.4692(16) 0.2588(23) 0.25310(29)
O3A O -0.0799(19) 0.2611(22) 0.23638(30)
O4_2 O 0.1978(24) -0.0500(16) 0.19895(34)
O6_2 O -0.0899(18) 0.2632(23) 0.14303(30)
Zr1_2 Zr 1.1901(7) 0.2609(9) 0.20032(10)
Zr1A Zr 0.8099(7) 0.7609(9) 0.29968(10)
Zr1_3 Zr 0.1901(7) 1.2609(9) 0.20032(10)
Zr1A_2 Zr -0.1901(7) 0.7609(9) 0.29968(10)
O8 O 0.2684(50) 0.5991(46) 0.01073(82)
loop_
_geom_bond_atom_site_label_1
_geom_bond_atom_site_label_2
_geom_bond_site_symmetry_1
_geom_bond_site_symmetry_2
Zr1 O1 1_555 1_555
P1 O1 1_555 1_555
P2 O5 1_555 1_555
O2 P1 1_555 1_555
O3 P1 1_555 1_555
O4 P1 1_555 1_555
O5 Zr1 1_555 1_555
O6 P2 1_555 1_555
O7 P2 1_555 1_555
C1 P2 1_555 1_555
C2 C1 1_555 1_555
C3 C2 1_555 1_555
O2A Zr1 1_555 1_555
O3A Zr1 1_555 1_555
O4_2 Zr1 1_555 1_555
O6_2 Zr1 1_555 1_555
Zr1_2 O6 1_555 1_555
Zr1A O2 1_555 1_555
Zr1_3 O4 1_555 1_555
Zr1A_2 O3 1_555 1_555

#END
