
#######################################################################
#
#                 Cambridge Crystallographic Data Centre
#                                CCDC 
#
#######################################################################
#
# If this CIF has been generated from an entry in the Cambridge 
# Structural Database, then it will include bibliographic, chemical, 
# crystal, experimental, refinement or atomic coordinate data resulting 
# from the CCDC's data processing and validation procedures.
#
#######################################################################

data_WEMYAO
_symmetry_cell_setting           monoclinic
_symmetry_space_group_name_H-M   'P 1 1 21/a'
_symmetry_Int_Tables_number      14
_space_group_name_Hall           '-P 2ac'
loop_
_symmetry_equiv_pos_site_id
_symmetry_equiv_pos_as_xyz
1 x,y,z
2 1/2-x,-y,1/2+z
3 -x,-y,-z
4 1/2+x,y,1/2-z
_cell_length_a                   22.807(3)
_cell_length_b                   9.282(3)
_cell_length_c                   10.853(3)
_cell_angle_alpha                90
_cell_angle_beta                 90
_cell_angle_gamma                90.07
_cell_volume                     2297.52
loop_
_atom_site_label
_atom_site_type_symbol
_atom_site_fract_x
_atom_site_fract_y
_atom_site_fract_z
Sm1 Sm 0.2105 0.1435(1) -0.1053(1)
S1 S 0.1625(1) 0.0066(4) 0.2063(3)
S2 S 0.1707(1) 0.3714(4) -0.3822(4)
O1 O 0.1826(4) 0.0953(12) 0.1025(11)
O2 O 0.2093(4) -0.0937(11) 0.2405(10)
O3 O 0.1417(4) 0.0971(12) 0.3030(10)
O4 O -0.0345(4) -0.3223(12) -0.0012(12)
O5 O -0.0701(4) 0.0225(14) 0.2323(12)
O6 O -0.1033(3) -0.1409(10) 0.1053(12)
O7 O 0.1898(4) 0.2671(14) -0.2867(11)
O8 O 0.1826(4) 0.3213(12) -0.5022(12)
O9 O 0.1945(5) 0.5143(11) -0.3570(11)
O10 O -0.0861(4) 0.4077(14) -0.3416(12)
O11 O -0.0915(4) 0.2101(14) -0.5129(13)
O12 O -0.0088(4) 0.1419(16) -0.5994(16)
O13 O 0.1773(4) 0.3785(11) -0.0273(11)
O14 O 0.1824(4) -0.0782(11) -0.1988(13)
O15 O 0.2927(4) 0.2736(13) -0.0239(13)
O16 O 0.2775(5) -0.0320(14) -0.0115(12)
C1 C 0.1043(5) -0.0966(15) 0.1509(13)
C2 C 0.1127(6) -0.2180(17) 0.0788(16)
C3 C 0.0669(6) -0.2935(19) 0.0312(16)
C4 C 0.0089(6) -0.2464(17) 0.0540(16)
C5 C -0.0016(5) -0.1283(15) 0.1278(14)
C6 C 0.0470(5) -0.0488(16) 0.1736(15)
C7 C -0.0623(5) -0.0745(15) 0.1589(14)
C8 C 0.0951(5) 0.3855(15) -0.3691(14)
C9 C 0.0681(6) 0.4760(16) -0.2855(16)
C10 C 0.0077(6) 0.4861(19) -0.2766(16)
C11 C -0.0255(6) 0.3950(16) -0.3535(15)
C12 C -0.0010(6) 0.3053(17) -0.4348(14)
C13 C 0.0602(6) 0.2951(17) -0.4464(15)
C14 C -0.0368(5) 0.2106(17) -0.5194(16)
O2A O 0.2907(4) 0.0937(11) -0.2595(10)
Sm1A Sm 0.2895 -0.1435(1) 0.3947(1)
O6B O 0.1033(3) 0.1409(10) -0.1053(12)
Sm1B Sm -0.2105 -0.1435(1) 0.1053(1)
O17 O 0.2152(5) 0.6418(12) -0.1370(10)
O18 O 0.1579(6) 0.3970(14) -0.7852(14)
loop_
_geom_bond_atom_site_label_1
_geom_bond_atom_site_label_2
_geom_bond_site_symmetry_1
_geom_bond_site_symmetry_2
Sm1 O1 1_555 1_555
S1 O1 1_555 1_555
S2 O7 1_555 1_555
O2 S1 1_555 1_555
O3 S1 1_555 1_555
O4 C4 1_555 1_555
O5 C7 1_555 1_555
O6 C7 1_555 1_555
O7 Sm1 1_555 1_555
O8 S2 1_555 1_555
O9 S2 1_555 1_555
O10 C11 1_555 1_555
O11 C14 1_555 1_555
O12 C14 1_555 1_555
O13 Sm1 1_555 1_555
O14 Sm1 1_555 1_555
O15 Sm1 1_555 1_555
O16 Sm1 1_555 1_555
C1 S1 1_555 1_555
C2 C1 1_555 1_555
C3 C2 1_555 1_555
C4 C3 1_555 1_555
C5 C4 1_555 1_555
C6 C1 1_555 1_555
C7 C5 1_555 1_555
C8 S2 1_555 1_555
C9 C8 1_555 1_555
C10 C9 1_555 1_555
C11 C10 1_555 1_555
C12 C11 1_555 1_555
C13 C8 1_555 1_555
C14 C12 1_555 1_555
O2A Sm1 1_555 1_555
Sm1A O2 1_555 1_555
O6B Sm1 1_555 1_555
Sm1B O6 1_555 1_555
C5 C6 1_555 1_555
C12 C13 1_555 1_555

#END
