
#######################################################################
#
#                 Cambridge Crystallographic Data Centre
#                                CCDC 
#
#######################################################################
#
# If this CIF has been generated from an entry in the Cambridge 
# Structural Database, then it will include bibliographic, chemical, 
# crystal, experimental, refinement or atomic coordinate data resulting 
# from the CCDC's data processing and validation procedures.
#
#######################################################################

data_WEMZUJ
_symmetry_cell_setting           monoclinic
_symmetry_space_group_name_H-M   'P 21/c'
_symmetry_Int_Tables_number      14
_space_group_name_Hall           '-P 2ybc'
loop_
_symmetry_equiv_pos_site_id
_symmetry_equiv_pos_as_xyz
1 x,y,z
2 -x,1/2+y,1/2-z
3 -x,-y,-z
4 x,1/2-y,1/2+z
_cell_length_a                   9.641(2)
_cell_length_b                   12.258(2)
_cell_length_c                   14.978(3)
_cell_angle_alpha                90
_cell_angle_beta                 101.64(4)
_cell_angle_gamma                90
_cell_volume                     1733.69
loop_
_atom_site_label
_atom_site_type_symbol
_atom_site_fract_x
_atom_site_fract_y
_atom_site_fract_z
Zn1 Zn 0.1808(2) 0.0628(2) 0.3075(1)
N1 N 0.2708(9) 0.0736(6) 0.1969(5)
C1 C 0.429(1) 0.0729(9) 0.2143(7)
C2 C 0.491(1) -0.0128(9) 0.279(1)
O1 O 0.425(1) -0.0019(8) 0.3569(7)
C3 C 0.417(1) -0.1003(9) 0.402(1)
C4 C 0.304(2) -0.1013(9) 0.4458(6)
N2 N 0.1727(8) -0.059(1) 0.4011(5)
N3 N 0.205(1) 0.2110(9) 0.3678(5)
C5 C 0.343(1) 0.268(1) 0.3852(7)
C6 C 0.3457(9) 0.374(1) 0.4242(8)
O2 O 0.266(1) 0.443(1) 0.3600(6)
C7 C 0.233(1) 0.553(1) 0.3845(6)
C8 C 0.083(1) 0.5708(7) 0.3519(8)
N4 N 0.031(1) 0.5495(6) 0.2554(7)
H1 H 0.28(1) 0.154(3) 0.181(8)
H2 H 0.24(1) 0.012(7) 0.152(6)
H3 H 0.46(1) 0.149(4) 0.238(7)
H4 H 0.46(1) 0.07(1) 0.152(3)
H5 H 0.596(4) 0.006(9) 0.285(8)
H6 H 0.49(1) -0.093(4) 0.260(7)
H7 H 0.512(6) -0.127(9) 0.438(6)
H8 H 0.39(1) -0.161(6) 0.355(6)
H9 H 0.35(1) -0.07(1) 0.507(4)
H10 H 0.29(1) -0.168(5) 0.484(7)
H11 H 0.13(1) -0.021(9) 0.452(5)
H12 H 0.083(8) -0.098(8) 0.368(7)
H13 H 0.18(1) 0.21(1) 0.432(4)
H14 H 0.124(9) 0.264(7) 0.343(7)
H15 H 0.36(1) 0.30(1) 0.324(4)
H16 H 0.411(9) 0.217(8) 0.426(7)
H17 H 0.445(6) 0.407(9) 0.444(7)
H18 H 0.27(1) 0.393(9) 0.465(6)
H19 H 0.29(1) 0.614(7) 0.364(7)
H20 H 0.29(1) 0.56(1) 0.450(2)
H21 H 0.08(1) 0.653(3) 0.363(8)
H22 H 0.003(9) 0.534(8) 0.377(7)
H23 H 0.08(1) 0.595(7) 0.213(7)
H24 H 0.07(1) 0.475(4) 0.239(7)
N4A N -0.031(1) 0.0495(6) 0.2446(7)
Zn1A Zn -0.1808(2) 0.5628(2) 0.1925(1)
H23A H -0.08(1) 0.095(7) 0.287(7)
H24A H -0.07(1) -0.025(4) 0.261(7)
N5 N 0.165(1) 0.342(1) 0.1126(9)
O3 O 0.141(1) 0.434(1) 0.0761(8)
O4 O 0.101(1) 0.3115(8) 0.1716(7)
O5 O 0.250(1) 0.2797(9) 0.0862(7)
Cl1 Cl -0.1816(4) 0.2803(3) 0.3709(3)
O6 O -0.129(2) 0.308(2) 0.2916(9)
O7 O -0.177(3) 0.372(1) 0.429(1)
O8 O -0.322(2) 0.240(2) 0.344(2)
O9 O -0.095(2) 0.195(1) 0.418(1)
O10? O -0.289(2) 0.344(1) 0.400(1)
O11? O -0.081(2) 0.244(2) 0.448(1)
O12? O -0.252(3) 0.190(2) 0.321(2)
O13? O -0.111(2) 0.344(2) 0.314(1)
loop_
_geom_bond_atom_site_label_1
_geom_bond_atom_site_label_2
_geom_bond_site_symmetry_1
_geom_bond_site_symmetry_2
Zn1 N1 1_555 1_555
N1 C1 1_555 1_555
C1 C2 1_555 1_555
C2 O1 1_555 1_555
O1 Zn1 1_555 1_555
C3 O1 1_555 1_555
C4 C3 1_555 1_555
N2 Zn1 1_555 1_555
N3 Zn1 1_555 1_555
C5 N3 1_555 1_555
C6 C5 1_555 1_555
O2 C6 1_555 1_555
C7 O2 1_555 1_555
C8 C7 1_555 1_555
N4 C8 1_555 1_555
N5 O3 1_555 1_555
O4 N5 1_555 1_555
O5 N5 1_555 1_555
Cl1 O6 1_555 1_555
O7 Cl1 1_555 1_555
O8 Cl1 1_555 1_555
O9 Cl1 1_555 1_555
H1 N1 1_555 1_555
H2 N1 1_555 1_555
H3 C1 1_555 1_555
H4 C1 1_555 1_555
H5 C2 1_555 1_555
H6 C2 1_555 1_555
H7 C3 1_555 1_555
H8 C3 1_555 1_555
H9 C4 1_555 1_555
H10 C4 1_555 1_555
H11 N2 1_555 1_555
H12 N2 1_555 1_555
H13 N3 1_555 1_555
H14 N3 1_555 1_555
H15 C5 1_555 1_555
H16 C5 1_555 1_555
H17 C6 1_555 1_555
H18 C6 1_555 1_555
H19 C7 1_555 1_555
H20 C7 1_555 1_555
H21 C8 1_555 1_555
H22 C8 1_555 1_555
H23 N4 1_555 1_555
H24 N4 1_555 1_555
N4A Zn1 1_555 1_555
Zn1A N4 1_555 1_555
H23A N4A 1_555 1_555
H24A N4A 1_555 1_555
C4 N2 1_555 1_555

#END
