
#######################################################################
#
#                 Cambridge Crystallographic Data Centre
#                                CCDC 
#
#######################################################################
#
# If this CIF has been generated from an entry in the Cambridge 
# Structural Database, then it will include bibliographic, chemical, 
# crystal, experimental, refinement or atomic coordinate data resulting 
# from the CCDC's data processing and validation procedures.
#
#######################################################################

data_WENBEW
_symmetry_cell_setting           monoclinic
_symmetry_space_group_name_H-M   'P 1 1 21/b'
_symmetry_Int_Tables_number      14
_space_group_name_Hall           '-P 2bc'
loop_
_symmetry_equiv_pos_site_id
_symmetry_equiv_pos_as_xyz
1 x,y,z
2 -x,1/2-y,1/2+z
3 -x,-y,-z
4 x,1/2+y,1/2-z
_cell_length_a                   6.603(2)
_cell_length_b                   8.318(2)
_cell_length_c                   18.342(4)
_cell_angle_alpha                90
_cell_angle_beta                 90
_cell_angle_gamma                92.28(3)
_cell_volume                     1006.61
loop_
_atom_site_label
_atom_site_type_symbol
_atom_site_fract_x
_atom_site_fract_y
_atom_site_fract_z
Cu1 Cu -0.05536(4) 0.21418(6) 0.51698(3)
O1 O 0.1542(5) 0.3029(3) 0.3933(2)
O2 O 0.2998(5) 0.0925(4) 0.3553(2)
O3 O 0.0795(4) 0.0753(3) 0.4417(1)
N1 N 0.4659(4) 0.3959(4) 0.6430(2)
N2 N 0.1678(4) 0.2911(4) 0.5764(2)
N3 N 0.1802(4) 0.1581(4) 0.3954(2)
C1 C 0.6465(5) 0.2270(5) 0.4946(2)
C2 C 0.6998(5) 0.3406(4) 0.5448(2)
C3 C 0.6608(5) 0.3248(4) 0.6236(2)
C4 C 0.4519(6) 0.5008(5) 0.7060(2)
C5 C 0.2542(8) 0.5682(7) 0.7150(3)
C6 C 0.1302(13) 0.5571(11) 0.7666(5)
C7 C 0.3035(5) 0.3399(4) 0.6088(2)
H1 H 0.597(6) 0.123(5) 0.511(2)
H2 H 0.643(5) 0.252(4) 0.445(2)
H3 H 0.724(5) 0.449(4) 0.530(2)
H4 H 0.660(5) 0.220(4) 0.637(2)
H5 H 0.763(5) 0.369(4) 0.652(2)
H6 H 0.567(7) 0.574(6) 0.711(3)
H7 H 0.462(8) 0.428(6) 0.744(3)
H8 H 0.182(12) 0.666(10) 0.679(4)
H9 H 0.213(12) 0.492(10) 0.791(4)
H10 H 0.026(12) 0.616(9) 0.777(5)
O3B O -0.0795(4) -0.0753(3) 0.5583(1)
C1_2 C -0.3535(5) 0.2270(5) 0.4946(2)
C2_2 C -0.3002(5) 0.3406(4) 0.5448(2)
Cu1B Cu 0.05536(4) -0.21418(6) 0.48302(3)
Cu1_2 Cu 0.94464(4) 0.21418(6) 0.51698(3)
H1_2 H -0.403(6) 0.123(5) 0.511(2)
H2_2 H -0.357(5) 0.252(4) 0.445(2)
H3_2 H -0.276(5) 0.449(4) 0.530(2)
loop_
_geom_bond_atom_site_label_1
_geom_bond_atom_site_label_2
_geom_bond_site_symmetry_1
_geom_bond_site_symmetry_2
Cu1 O3 1_555 1_555
O1 N3 1_555 1_555
O2 N3 1_555 1_555
O3 N3 1_555 1_555
N1 C3 1_555 1_555
N2 Cu1 1_555 1_555
C1 C2 1_555 1_555
C2 C3 1_555 1_555
C3 H4 1_555 1_555
C4 N1 1_555 1_555
C5 C4 1_555 1_555
C6 C5 1_555 1_555
C7 N1 1_555 1_555
H1 C1 1_555 1_555
H2 C1 1_555 1_555
H3 C2 1_555 1_555
H5 C3 1_555 1_555
H6 C4 1_555 1_555
H7 C4 1_555 1_555
H8 C5 1_555 1_555
H9 C6 1_555 1_555
H10 C6 1_555 1_555
O3B Cu1 1_555 1_555
C1_2 Cu1 1_555 1_555
C2_2 Cu1 1_555 1_555
Cu1B O3 1_555 1_555
Cu1_2 C1 1_555 1_555
H1_2 C1_2 1_555 1_555
H2_2 C1_2 1_555 1_555
H3_2 C2_2 1_555 1_555
N2 C7 1_555 1_555
C2 Cu1_2 1_555 1_555
O3B Cu1B 1_555 1_555
C1_2 C2_2 1_555 1_555

#END
