
#######################################################################
#
#                 Cambridge Crystallographic Data Centre
#                                CCDC 
#
#######################################################################
#
# If this CIF has been generated from an entry in the Cambridge 
# Structural Database, then it will include bibliographic, chemical, 
# crystal, experimental, refinement or atomic coordinate data resulting 
# from the CCDC's data processing and validation procedures.
#
#######################################################################

data_WENCAU
_symmetry_cell_setting           monoclinic
_symmetry_space_group_name_H-M   'P 21/c'
_symmetry_Int_Tables_number      14
_space_group_name_Hall           '-P 2ybc'
loop_
_symmetry_equiv_pos_site_id
_symmetry_equiv_pos_as_xyz
1 x,y,z
2 -x,1/2+y,1/2-z
3 -x,-y,-z
4 x,1/2-y,1/2+z
_cell_length_a                   9.0597(18)
_cell_length_b                   18.705(4)
_cell_length_c                   13.554(3)
_cell_angle_alpha                90
_cell_angle_beta                 104.34(3)
_cell_angle_gamma                90
_cell_volume                     2225.32
loop_
_atom_site_label
_atom_site_type_symbol
_atom_site_fract_x
_atom_site_fract_y
_atom_site_fract_z
Sm1 Sm 0.33234(3) 0.707221(12) 0.692013(19)
N1 N 0.6204(5) 0.6840(2) 0.7620(3)
C1 C 0.6351(7) 0.8140(3) 0.7603(4)
C2 C 0.7139(6) 0.7427(3) 0.7842(4)
C3 C 0.8687(7) 0.7369(3) 0.8248(4)
C4 C 0.9323(7) 0.6691(3) 0.8430(5)
H1 H 1.0384 0.6632 0.8718
C5 C 0.8381(7) 0.6108(3) 0.8183(5)
H2 H 0.8797 0.5640 0.8284
C6 C 0.6846(7) 0.6198(3) 0.7793(4)
H3 H 0.6217 0.5786 0.7640
O1 O 0.4916(4) 0.81292(15) 0.7248(3)
O2 O 0.7163(4) 0.86928(18) 0.7753(3)
O3 O 0.9612(4) 0.7937(2) 0.8471(3)
H4 H 0.9098 0.8314 0.8334
N2 N 0.0473(5) 0.6816(2) 0.6074(3)
C7 C 0.0285(6) 0.8088(3) 0.6289(4)
C8 C -0.0478(6) 0.7390(3) 0.5947(4)
C9 C -0.2038(7) 0.7333(3) 0.5555(4)
C10 C -0.2665(7) 0.6665(3) 0.5283(4)
H5 H -0.3733 0.6609 0.5018
C11 C -0.1711(7) 0.6089(3) 0.5405(5)
H6 H -0.2115 0.5626 0.5218
C12 C -0.0146(7) 0.6175(3) 0.5802(4)
H7 H 0.0497 0.5767 0.5882
O4 O 0.1692(4) 0.80889(16) 0.6701(3)
O5 O -0.0544(4) 0.8637(2) 0.6156(3)
O6 O -0.2954(4) 0.7915(2) 0.5429(3)
H8 H -0.2440 0.8276 0.5675
N3 N 0.3605(5) 0.8921(2) 0.5536(3)
H9 H 0.395(6) 0.858(2) 0.606(3)
C13 C 0.3498(5) 0.7857(3) 0.4513(4)
C14 C 0.3438(6) 0.8660(2) 0.4581(4)
C15 C 0.3107(6) 0.9132(3) 0.3747(4)
C16 C 0.2923(6) 0.9866(3) 0.3995(4)
H10 H 0.2680 1.0208 0.3461
C17 C 0.3088(8) 1.0086(3) 0.4974(4)
H11 H 0.2946 1.0576 0.5115
C18 C 0.3463(7) 0.9596(3) 0.5766(4)
H12 H 0.3612 0.9744 0.6454
O7 O 0.3528(4) 0.75026(16) 0.5301(2)
O8 O 0.3481(4) 0.75847(16) 0.3649(2)
O9 O 0.2957(4) 0.89382(16) 0.2814(3)
O10 O 0.3603(5) 0.60471(17) 0.5916(3)
H13 H 0.387(7) 0.5635(13) 0.614(3)
H14 H 0.347(7) 0.604(2) 0.5281(9)
Sm1C Sm 0.33234(3) 0.792779(12) 0.192013(19)
O8C O 0.3481(4) 0.74153(16) 0.8649(2)
O9C O 0.2957(4) 0.60618(16) 0.7814(3)
O11 O 0.3103(4) 0.60695(17) 0.3862(3)
O12 O 0.4640(5) 0.47565(18) 0.6671(3)
H15 H 0.519(6) 0.447(2) 0.645(5)
H16 H 0.411(6) 0.454(2) 0.700(4)
O13 O 0.0440(5) 0.5444(2) 0.2749(4)
loop_
_geom_bond_atom_site_label_1
_geom_bond_atom_site_label_2
_geom_bond_site_symmetry_1
_geom_bond_site_symmetry_2
Sm1 N1 1_555 1_555
N1 C2 1_555 1_555
C1 C2 1_555 1_555
C2 C3 1_555 1_555
C3 C4 1_555 1_555
C4 H1 1_555 1_555
C5 C4 1_555 1_555
H2 C5 1_555 1_555
C6 N1 1_555 1_555
H3 C6 1_555 1_555
O1 Sm1 1_555 1_555
O2 C1 1_555 1_555
O3 C3 1_555 1_555
H4 O3 1_555 1_555
N2 Sm1 1_555 1_555
C7 C8 1_555 1_555
C8 N2 1_555 1_555
C9 C8 1_555 1_555
C10 C9 1_555 1_555
H5 C10 1_555 1_555
C11 C10 1_555 1_555
H6 C11 1_555 1_555
C12 N2 1_555 1_555
H7 C12 1_555 1_555
O4 Sm1 1_555 1_555
O5 C7 1_555 1_555
O6 C9 1_555 1_555
H8 O6 1_555 1_555
N3 H9 1_555 1_555
C13 C14 1_555 1_555
C14 N3 1_555 1_555
C15 C14 1_555 1_555
C16 C15 1_555 1_555
H10 C16 1_555 1_555
C17 C16 1_555 1_555
H11 C17 1_555 1_555
C18 N3 1_555 1_555
H12 C18 1_555 1_555
O7 Sm1 1_555 1_555
O8 C13 1_555 1_555
O9 C15 1_555 1_555
O10 Sm1 1_555 1_555
H13 O10 1_555 1_555
H14 O10 1_555 1_555
O12 H15 1_555 1_555
H16 O12 1_555 1_555
Sm1C O8 1_555 1_555
O8C Sm1 1_555 1_555
O9C Sm1 1_555 1_555
C1 O1 1_555 1_555
C5 C6 1_555 1_555
C7 O4 1_555 1_555
C11 C12 1_555 1_555
C13 O7 1_555 1_555
C17 C18 1_555 1_555
O9 Sm1C 1_555 1_555

#END
