
#######################################################################
#
#                 Cambridge Crystallographic Data Centre
#                                CCDC 
#
#######################################################################
#
# If this CIF has been generated from an entry in the Cambridge 
# Structural Database, then it will include bibliographic, chemical, 
# crystal, experimental, refinement or atomic coordinate data resulting 
# from the CCDC's data processing and validation procedures.
#
#######################################################################

data_WENCEY
_symmetry_cell_setting           triclinic
_symmetry_space_group_name_H-M   'P -1'
_symmetry_Int_Tables_number      2
_space_group_name_Hall           '-P 1'
loop_
_symmetry_equiv_pos_site_id
_symmetry_equiv_pos_as_xyz
1 x,y,z
2 -x,-y,-z
_cell_length_a                   9.5190(5)
_cell_length_b                   12.9224(9)
_cell_length_c                   13.1428(7)
_cell_angle_alpha                98.724(4)
_cell_angle_beta                 97.927(4)
_cell_angle_gamma                104.120(4)
_cell_volume                     1523.67
loop_
_atom_site_label
_atom_site_type_symbol
_atom_site_fract_x
_atom_site_fract_y
_atom_site_fract_z
Cu1 Cu 0.17826(6) 0.56911(5) 0.55816(5)
Cu2 Cu -0.33045(7) 1.08948(6) 1.02919(6)
V1 V 0.49164(7) 0.20672(5) 0.78519(5)
V2 V 0.01474(7) 0.32586(5) 0.67782(5)
P1 P 0.18799(11) 0.13659(8) 0.62465(8)
P2 P 0.24385(11) 0.34490(9) 0.85208(8)
P3 P -0.30720(11) 0.13212(9) 0.61166(8)
P4 P -0.17485(10) 0.36384(8) 0.87179(8)
O1 O 0.3564(3) 0.1582(2) 0.6477(2)
O2 O 0.3738(3) 0.3052(3) 0.8283(2)
O3 O -0.3686(3) 0.1485(2) 0.7092(2)
O4 O -0.3424(3) 0.3312(2) 0.8506(2)
O5 O 0.4640(3) 0.1211(2) 0.8597(2)
O6 O 0.1394(3) 0.2385(2) 0.6157(2)
O7 O 0.1978(3) 0.4166(2) 0.7792(2)
O8 O -0.1092(3) 0.3749(2) 0.7742(2)
O9 O -0.1515(3) 0.1950(2) 0.6159(2)
O10 O 0.0061(3) 0.4041(2) 0.5946(2)
O11 O 0.1192(3) 0.0829(2) 0.7124(2)
H1 H 0.1471 0.1259 0.7685
O12 O 0.1308(3) 0.0492(2) 0.5229(2)
O13 O 0.2892(3) 0.4088(3) 0.9676(2)
H2 H 0.2211 0.4319 0.9844
O14 O 0.1062(3) 0.2480(2) 0.8408(2)
H3 H 0.0363 0.2709 0.8539
O15 O -0.4039(3) 0.1601(3) 0.5193(3)
H4 H -0.4876 0.1196 0.5086
O16 O -0.3162(3) 0.0084(2) 0.5821(3)
H5 H -0.4024 -0.0275 0.5728
O17 O -0.1255(3) 0.4719(2) 0.9516(2)
O18 O -0.1189(3) 0.2761(2) 0.9239(2)
H6 H -0.0287 0.2955 0.9393
N1 N 0.1099(4) 0.6615(3) 0.6554(3)
N2 N -0.2426(4) 0.9945(3) 0.9535(3)
N3 N 0.2759(4) 0.4952(3) 0.4663(3)
N4 N 0.5977(4) 0.1840(3) 0.1200(3)
C1 C 0.0656(5) 0.6358(4) 0.7437(4)
H7 H 0.0800 0.5726 0.7637
C2 C 0.0003(5) 0.6982(4) 0.8056(3)
H8 H -0.0284 0.6765 0.8656
C3 C -0.0233(4) 0.7936(3) 0.7791(3)
C4 C 0.0253(5) 0.8216(4) 0.6887(4)
H9 H 0.0137 0.8851 0.6678
C5 C 0.0900(6) 0.7556(4) 0.6312(4)
H10 H 0.1221 0.7766 0.5719
C6 C -0.2048(6) 0.9116(5) 0.9891(4)
H11 H -0.2273 0.8982 1.0533
C7 C -0.1349(6) 0.8455(4) 0.9365(4)
H12 H -0.1112 0.7891 0.9653
C8 C -0.0994(4) 0.8626(3) 0.8399(3)
C9 C -0.1419(5) 0.9479(4) 0.8030(4)
H13 H -0.1232 0.9621 0.7382
C10 C -0.2099(5) 1.0108(4) 0.8598(4)
H14 H -0.2351 1.0677 0.8328
C11 C 0.3016(6) 0.4024(4) 0.4825(4)
H15 H 0.2752 0.3765 0.5414
C12 C 0.3653(7) 0.3423(4) 0.4168(5)
H16 H 0.3782 0.2767 0.4315
C13 C 0.4108(4) 0.3774(4) 0.3294(3)
C14 C 0.3856(7) 0.4751(4) 0.3133(4)
H17 H 0.4132 0.5036 0.2559
C15 C 0.3201(7) 0.5301(5) 0.3818(4)
H18 H 0.3053 0.5958 0.3688
C16 C 0.5618(6) 0.1542(4) 0.2086(4)
H19 H 0.5762 0.0891 0.2238
C17 C 0.5049(6) 0.2158(4) 0.2773(4)
H20 H 0.4818 0.1921 0.3379
C18 C 0.4809(4) 0.3138(4) 0.2576(3)
C19 C 0.5183(6) 0.3431(4) 0.1660(4)
H21 H 0.5044 0.4077 0.1490
C20 C 0.5752(6) 0.2793(5) 0.1001(4)
H22 H 0.5995 0.3018 0.0393
Cu1A Cu -0.17826(6) 0.43089(5) 0.44184(5)
Cu2_2 Cu 0.66955(7) 0.08948(6) 0.02919(6)
V1_2 V -0.50836(7) 0.20672(5) 0.78519(5)
O3_2 O 0.6314(3) 0.1485(2) 0.7092(2)
O4_2 O 0.6576(3) 0.3312(2) 0.8506(2)
O10A O -0.0061(3) 0.5959(2) 0.4054(2)
N4_2 N -0.4023(4) 1.1840(3) 1.1200(3)
loop_
_geom_bond_atom_site_label_1
_geom_bond_atom_site_label_2
_geom_bond_site_symmetry_1
_geom_bond_site_symmetry_2
Cu1 O10 1_555 1_555
Cu2 N2 1_555 1_555
V1 O1 1_555 1_555
V2 O6 1_555 1_555
P1 O1 1_555 1_555
P2 O2 1_555 1_555
P3 O3 1_555 1_555
P4 O4 1_555 1_555
O2 V1 1_555 1_555
O3 V1_2 1_555 1_555
O4 V1_2 1_555 1_555
O5 V1 1_555 1_555
O6 P1 1_555 1_555
O7 V2 1_555 1_555
O8 V2 1_555 1_555
O9 V2 1_555 1_555
O10 V2 1_555 1_555
O11 P1 1_555 1_555
H1 O11 1_555 1_555
O12 P1 1_555 1_555
O13 P2 1_555 1_555
H2 O13 1_555 1_555
O14 P2 1_555 1_555
H3 O14 1_555 1_555
O15 P3 1_555 1_555
H4 O15 1_555 1_555
O16 P3 1_555 1_555
H5 O16 1_555 1_555
O17 P4 1_555 1_555
O18 P4 1_555 1_555
H6 O18 1_555 1_555
N1 Cu1 1_555 1_555
N2 C6 1_555 1_555
N3 Cu1 1_555 1_555
N4 C16 1_555 1_555
C1 N1 1_555 1_555
H7 C1 1_555 1_555
C2 C1 1_555 1_555
H8 C2 1_555 1_555
C3 C2 1_555 1_555
C4 C3 1_555 1_555
H9 C4 1_555 1_555
C5 N1 1_555 1_555
H10 C5 1_555 1_555
C6 H11 1_555 1_555
C7 C6 1_555 1_555
H12 C7 1_555 1_555
C8 C3 1_555 1_555
C9 C8 1_555 1_555
H13 C9 1_555 1_555
C10 N2 1_555 1_555
H14 C10 1_555 1_555
C11 N3 1_555 1_555
H15 C11 1_555 1_555
C12 C11 1_555 1_555
H16 C12 1_555 1_555
C13 C12 1_555 1_555
C14 C13 1_555 1_555
H17 C14 1_555 1_555
C15 N3 1_555 1_555
H18 C15 1_555 1_555
C16 H19 1_555 1_555
C17 C16 1_555 1_555
H20 C17 1_555 1_555
C18 C13 1_555 1_555
C19 C18 1_555 1_555
H21 C19 1_555 1_555
C20 N4 1_555 1_555
H22 C20 1_555 1_555
Cu1A O10 1_555 1_555
Cu2_2 N4 1_555 1_555
O3_2 V1 1_555 1_555
O4_2 V1 1_555 1_555
O10A Cu1 1_555 1_555
N4_2 Cu2 1_555 1_555
P2 O7 1_555 1_555
P3 O9 1_555 1_555
P4 O8 1_555 1_555
C4 C5 1_555 1_555
C7 C8 1_555 1_555
C9 C10 1_555 1_555
C14 C15 1_555 1_555
C17 C18 1_555 1_555
C19 C20 1_555 1_555
Cu1A O10A 1_555 1_555

#END
