
#######################################################################
#
#                 Cambridge Crystallographic Data Centre
#                                CCDC 
#
#######################################################################
#
# If this CIF has been generated from an entry in the Cambridge 
# Structural Database, then it will include bibliographic, chemical, 
# crystal, experimental, refinement or atomic coordinate data resulting 
# from the CCDC's data processing and validation procedures.
#
#######################################################################

data_WENDIE
_symmetry_cell_setting           monoclinic
_symmetry_space_group_name_H-M   'C 2'
_symmetry_Int_Tables_number      5
_space_group_name_Hall           'C 2y'
loop_
_symmetry_equiv_pos_site_id
_symmetry_equiv_pos_as_xyz
1 x,y,z
2 -x,y,-z
3 1/2+x,1/2+y,z
4 1/2-x,1/2+y,-z
_cell_length_a                   18.1435(18)
_cell_length_b                   7.9332(8)
_cell_length_c                   17.2163(17)
_cell_angle_alpha                90
_cell_angle_beta                 105.387(2)
_cell_angle_gamma                90
_cell_volume                     2389.22
loop_
_atom_site_label
_atom_site_type_symbol
_atom_site_fract_x
_atom_site_fract_y
_atom_site_fract_z
Zn1 Zn 0.08366(7) 0.27051(17) 0.24428(6)
Zn2 Zn 0.24954(7) -0.41675(15) 0.24340(5)
N1 N 0.1828(5) -0.2126(13) 0.2306(5)
N2 N 0.1380(6) -0.1809(14) 0.1557(5)
N3 N 0.1000(6) -0.0425(15) 0.1578(5)
N4 N 0.1202(6) 0.0177(13) 0.2349(5)
N5 N -0.1387(5) 0.1442(10) 0.2656(4)
N6 N -0.0897(6) 0.1097(13) 0.3396(4)
N7 N -0.0203(6) 0.1326(13) 0.3379(5)
N8 N -0.0200(5) 0.1886(11) 0.2616(4)
N9 N -0.0613(6) 0.6765(12) 0.1167(5)
O1 O 0.3596(5) -0.1497(12) 0.6484(4)
O2 O 0.2514(5) -0.0478(12) 0.6638(4)
O3 O -0.1361(5) 0.3284(10) -0.1547(4)
O4 O -0.2346(5) 0.4677(11) -0.1411(4)
O5 O 0.0186(5) 0.5100(9) 0.2084(4)
C1 C 0.1704(7) -0.0886(16) 0.2784(6)
C2 C 0.2039(7) -0.0816(15) 0.3655(5)
C3 C 0.1581(7) -0.0431(17) 0.4156(6)
H1 H 0.1069 -0.0164 0.3937
C4 C 0.1884(7) -0.0440(17) 0.4989(6)
H2 H 0.1575 -0.0176 0.5326
C5 C 0.2640(7) -0.0839(14) 0.5312(5)
C6 C 0.3089(7) -0.1282(17) 0.4822(6)
H3 H 0.3589 -0.1632 0.5050
C7 C 0.2814(7) -0.122(2) 0.3994(6)
H4 H 0.3136 -0.1439 0.3665
C8 C 0.2968(7) -0.0960(13) 0.6234(5)
C9 C -0.0937(6) 0.1900(12) 0.2206(5)
C10 C -0.1211(6) 0.2320(11) 0.1327(5)
C11 C -0.0773(7) 0.1767(14) 0.0823(5)
H5 H -0.0333 0.1132 0.1028
C12 C -0.0998(6) 0.2172(13) 0.0017(5)
H6 H -0.0724 0.1740 -0.0325
C13 C -0.1601(7) 0.3173(12) -0.0289(5)
C14 C -0.2048(6) 0.3743(14) 0.0222(5)
H7 H -0.2482 0.4396 0.0018
C15 C -0.1829(6) 0.3314(13) 0.1020(5)
H8 H -0.2110 0.3714 0.1361
C16 C -0.1809(8) 0.3732(15) -0.1169(6)
C17 C -0.0067(7) 0.5612(16) 0.1402(6)
H9 H 0.0139 0.5158 0.1007
C18 C -0.0914(8) 0.7384(16) 0.1805(7)
H10 H -0.0667 0.6816 0.2298
H11 H -0.1454 0.7174 0.1675
H12 H -0.0821 0.8574 0.1869
C19 C -0.0829(8) 0.7242(16) 0.0340(6)
H13 H -0.0555 0.6568 0.0047
H14 H -0.0711 0.8411 0.0293
H15 H -0.1369 0.7069 0.0123
Zn1C Zn 0.41634(7) -0.22949(17) 0.75572(6)
Zn1A Zn -0.08366(7) 0.27051(17) -0.24428(6)
Zn2B Zn -0.25046(7) 0.08325(15) 0.24340(5)
Zn2C Zn 0.25046(7) 0.08325(15) 0.75660(5)
Zn2A Zn -0.24954(7) 0.58325(15) -0.24340(5)
N5B N 0.3613(5) -0.3558(10) 0.2656(4)
O1C O 0.1404(5) 0.3503(12) 0.3516(4)
O2C O 0.2486(5) -0.5478(12) 0.3362(4)
O3A O 0.1361(5) 0.3284(10) 0.1547(4)
O4A O 0.2346(5) -0.5323(11) 0.1411(4)
loop_
_geom_bond_atom_site_label_1
_geom_bond_atom_site_label_2
_geom_bond_site_symmetry_1
_geom_bond_site_symmetry_2
Zn1 N4 1_555 1_555
Zn2 N1 1_555 1_555
N1 N2 1_555 1_555
N2 N3 1_555 1_555
N3 N4 1_555 1_555
N4 C1 1_555 1_555
N5 N6 1_555 1_555
N6 N7 1_555 1_555
N7 N8 1_555 1_555
N8 Zn1 1_555 1_555
N9 C17 1_555 1_555
O1 C8 1_555 1_555
O2 C8 1_555 1_555
O3 C16 1_555 1_555
O4 C16 1_555 1_555
O5 Zn1 1_555 1_555
C1 N1 1_555 1_555
C2 C1 1_555 1_555
C3 C2 1_555 1_555
H1 C3 1_555 1_555
C4 C3 1_555 1_555
H2 C4 1_555 1_555
C5 C4 1_555 1_555
C6 C5 1_555 1_555
H3 C6 1_555 1_555
C7 C2 1_555 1_555
H4 C7 1_555 1_555
C8 C5 1_555 1_555
C9 N5 1_555 1_555
C10 C9 1_555 1_555
C11 C10 1_555 1_555
H5 C11 1_555 1_555
C12 C11 1_555 1_555
H6 C12 1_555 1_555
C13 C12 1_555 1_555
C14 C13 1_555 1_555
H7 C14 1_555 1_555
C15 C10 1_555 1_555
H8 C15 1_555 1_555
C16 C13 1_555 1_555
C17 O5 1_555 1_555
H9 C17 1_555 1_555
C18 N9 1_555 1_555
H10 C18 1_555 1_555
H11 C18 1_555 1_555
H12 C18 1_555 1_555
C19 N9 1_555 1_555
H13 C19 1_555 1_555
H14 C19 1_555 1_555
H15 C19 1_555 1_555
Zn1C O1 1_555 1_555
Zn1A O3 1_555 1_555
Zn2B N5 1_555 1_555
Zn2C O2 1_555 1_555
Zn2A O4 1_555 1_555
N5B Zn2 1_555 1_555
O1C Zn1 1_555 1_555
O2C Zn2 1_555 1_555
O3A Zn1 1_555 1_555
O4A Zn2 1_555 1_555
N8 C9 1_555 1_555
C6 C7 1_555 1_555
C14 C15 1_555 1_555

#END
