
#######################################################################
#
#                 Cambridge Crystallographic Data Centre
#                                CCDC 
#
#######################################################################
#
# If this CIF has been generated from an entry in the Cambridge 
# Structural Database, then it will include bibliographic, chemical, 
# crystal, experimental, refinement or atomic coordinate data resulting 
# from the CCDC's data processing and validation procedures.
#
#######################################################################

data_WENFOM
_symmetry_cell_setting           orthorhombic
_symmetry_space_group_name_H-M   'P n a 21'
_symmetry_Int_Tables_number      33
_space_group_name_Hall           'P 2c -2n'
loop_
_symmetry_equiv_pos_site_id
_symmetry_equiv_pos_as_xyz
1 x,y,z
2 -x,-y,1/2+z
3 1/2+x,1/2-y,z
4 1/2-x,1/2+y,1/2+z
_cell_length_a                   25.897(3)
_cell_length_b                   10.5743(10)
_cell_length_c                   11.8334(11)
_cell_angle_alpha                90
_cell_angle_beta                 90
_cell_angle_gamma                90
_cell_volume                     3240.49
loop_
_atom_site_label
_atom_site_type_symbol
_atom_site_fract_x
_atom_site_fract_y
_atom_site_fract_z
Cu1 Cu 0.19876(4) 0.63836(8) 0.13502(10)
Cu2 Cu 0.25791(4) 0.67779(8) 0.53422(10)
C1 C 0.1168(4) 0.7732(8) 0.0025(8)
H1 H 0.0943 0.7407 0.0563
C2 C 0.0955(4) 0.8431(10) -0.0823(11)
H2 H 0.0602 0.8588 -0.0858
C3 C 0.1286(6) 0.8886(10) -0.1611(10)
H3 H 0.1160 0.9353 -0.2217
C4 C 0.1810(5) 0.8664(8) -0.1523(8)
H4 H 0.2041 0.8985 -0.2052
C5 C 0.1979(4) 0.7943(7) -0.0617(8)
C6 C 0.2527(4) 0.7699(7) -0.0402(8)
C7 C 0.2931(4) 0.8055(7) -0.1092(8)
H5 H 0.2864 0.8493 -0.1757
C8 C 0.3424(5) 0.7774(9) -0.0809(11)
H6 H 0.3697 0.8013 -0.1273
C9 C 0.3515(4) 0.7110(9) 0.0203(11)
H7 H 0.3848 0.6895 0.0422
C10 C 0.3100(4) 0.6793(8) 0.0852(8)
H8 H 0.3160 0.6354 0.1521
C11 C 0.1064(4) 0.4867(8) 0.1339(10)
H9 H 0.1175 0.4716 0.0604
C12 C 0.0651(4) 0.4185(9) 0.1718(9)
H10 H 0.0494 0.3579 0.1262
C13 C 0.0470(4) 0.4423(10) 0.2804(11)
C14 C 0.0710(4) 0.5343(9) 0.3428(7)
H11 H 0.0593 0.5545 0.4149
C15 C 0.1131(4) 0.5970(8) 0.2966(9)
H12 H 0.1290 0.6593 0.3400
C16 C 0.2448(4) 0.6453(7) 0.3795(7)
C17 C 0.1515(4) 0.6014(7) 0.6355(9)
H13 H 0.1375 0.6529 0.5797
C18 C 0.1178(5) 0.5418(10) 0.7054(8)
H14 H 0.0823 0.5525 0.6988
C19 C 0.1386(5) 0.4668(11) 0.7845(9)
H15 H 0.1168 0.4246 0.8344
C20 C 0.1911(4) 0.4501(8) 0.7945(8)
H16 H 0.2047 0.3959 0.8487
C21 C 0.2234(4) 0.5172(8) 0.7206(7)
C22 C 0.2802(4) 0.5107(7) 0.7243(8)
C23 C 0.3076(5) 0.4542(8) 0.8111(8)
H17 H 0.2901 0.4136 0.8692
C24 C 0.3595(5) 0.4576(10) 0.8119(11)
H18 H 0.3778 0.4208 0.8710
C25 C 0.3851(4) 0.5149(9) 0.7263(11)
H19 H 0.4210 0.5186 0.7254
C26 C 0.3562(4) 0.5675(7) 0.6403(9)
H20 H 0.3738 0.6061 0.5812
N1 N 0.1656(3) 0.7473(6) 0.0158(7)
N2 N 0.2613(3) 0.7078(6) 0.0580(6)
N3 N 0.1323(3) 0.5739(7) 0.1945(7)
N4 N 0.0072(3) 0.3738(8) 0.3246(7)
H24 H -0.0031 0.3882 0.3925
H25 H -0.0076 0.3164 0.2847
N5 N 0.2303(3) 0.6429(6) 0.2875(6)
N6 N 0.2034(3) 0.5925(5) 0.6398(7)
N7 N 0.3043(3) 0.5671(5) 0.6358(8)
N9 N 0.2203(3) 0.4566(7) 0.0867(6)
C29 C 0.2302(4) 0.3493(8) 0.0712(7)
Cu2C Cu 0.24209(4) 0.17779(8) 0.03422(10)
C29C C 0.2698(4) 0.8493(8) 0.5712(7)
C27 C 0.4757(5) 0.7019(9) 0.2645(9)
H21 H 0.5037 0.7232 0.3140
H22 H 0.4763 0.6128 0.2490
H23 H 0.4436 0.7238 0.2999
C28 C 0.4807(5) 0.7685(14) 0.1640(10)
N8 N 0.4884(4) 0.8244(11) 0.0816(8)
Cl1 Cl 0.02792(14) 0.8799(3) 0.5696(3)
O1 O 0.0626(6) 0.9696(10) 0.5620(11)
O2 O 0.0486(4) 0.7764(8) 0.5239(9)
O3 O -0.0154(5) 0.9107(12) 0.5199(11)
O4 O 0.0190(4) 0.8671(9) 0.6842(6)
loop_
_geom_bond_atom_site_label_1
_geom_bond_atom_site_label_2
_geom_bond_site_symmetry_1
_geom_bond_site_symmetry_2
Cu1 N1 1_555 1_555
Cu2 C16 1_555 1_555
C1 H1 1_555 1_555
C2 C1 1_555 1_555
H2 C2 1_555 1_555
C3 C2 1_555 1_555
H3 C3 1_555 1_555
C4 C3 1_555 1_555
H4 C4 1_555 1_555
C5 C4 1_555 1_555
C6 C5 1_555 1_555
C7 C6 1_555 1_555
H5 C7 1_555 1_555
C8 C7 1_555 1_555
H6 C8 1_555 1_555
C9 C8 1_555 1_555
H7 C9 1_555 1_555
C10 C9 1_555 1_555
H8 C10 1_555 1_555
C11 H9 1_555 1_555
C12 C11 1_555 1_555
H10 C12 1_555 1_555
C13 C12 1_555 1_555
C14 C13 1_555 1_555
H11 C14 1_555 1_555
C15 C14 1_555 1_555
H12 C15 1_555 1_555
C16 N5 1_555 1_555
C17 H13 1_555 1_555
C18 C17 1_555 1_555
H14 C18 1_555 1_555
C19 C18 1_555 1_555
H15 C19 1_555 1_555
C20 C19 1_555 1_555
H16 C20 1_555 1_555
C21 C20 1_555 1_555
C22 C21 1_555 1_555
C23 C22 1_555 1_555
H17 C23 1_555 1_555
C24 C23 1_555 1_555
H18 C24 1_555 1_555
C25 C24 1_555 1_555
H19 C25 1_555 1_555
C26 C25 1_555 1_555
H20 C26 1_555 1_555
C27 H21 1_555 1_555
H22 C27 1_555 1_555
H23 C27 1_555 1_555
C28 C27 1_555 1_555
Cl1 O1 1_555 1_555
N1 C1 1_555 1_555
N2 Cu1 1_555 1_555
N3 Cu1 1_555 1_555
N4 C13 1_555 1_555
H24 N4 1_555 1_555
H25 N4 1_555 1_555
N5 Cu1 1_555 1_555
N6 Cu2 1_555 1_555
N7 Cu2 1_555 1_555
N8 C28 1_555 1_555
N9 Cu1 1_555 1_555
C29 N9 1_555 1_555
O2 Cl1 1_555 1_555
O3 Cl1 1_555 1_555
O4 Cl1 1_555 1_555
Cu2C C29 1_555 1_555
C29C Cu2 1_555 1_555
C5 N1 1_555 1_555
C6 N2 1_555 1_555
C10 N2 1_555 1_555
C11 N3 1_555 1_555
C15 N3 1_555 1_555
C17 N6 1_555 1_555
C21 N6 1_555 1_555
C22 N7 1_555 1_555
C26 N7 1_555 1_555

#END
