
#######################################################################
#
#                 Cambridge Crystallographic Data Centre
#                                CCDC 
#
#######################################################################
#
# If this CIF has been generated from an entry in the Cambridge 
# Structural Database, then it will include bibliographic, chemical, 
# crystal, experimental, refinement or atomic coordinate data resulting 
# from the CCDC's data processing and validation procedures.
#
#######################################################################

data_WENKIL
_symmetry_cell_setting           triclinic
_symmetry_space_group_name_H-M   'P -1'
_symmetry_Int_Tables_number      2
_space_group_name_Hall           '-P 1'
loop_
_symmetry_equiv_pos_site_id
_symmetry_equiv_pos_as_xyz
1 x,y,z
2 -x,-y,-z
_cell_length_a                   9.2706(19)
_cell_length_b                   15.663(3)
_cell_length_c                   22.310(4)
_cell_angle_alpha                102.25(3)
_cell_angle_beta                 101.47(3)
_cell_angle_gamma                104.51(3)
_cell_volume                     2954.06
loop_
_atom_site_label
_atom_site_type_symbol
_atom_site_fract_x
_atom_site_fract_y
_atom_site_fract_z
Eu1 Eu 0.48562(4) 0.13966(2) 0.197869(16)
Eu2 Eu 0.97049(3) 0.08799(2) 0.143415(15)
C1 C 0.8303(7) 0.1236(5) 0.2771(3)
C2 C 0.9096(7) 0.1237(5) 0.3415(3)
C3 C 1.0728(8) 0.1485(5) 0.3624(3)
H1 H 1.1311 0.1650 0.3349
C4 C 1.1457(8) 0.1490(6) 0.4212(3)
H2 H 1.2531 0.1651 0.4332
C5 C 1.0640(8) 0.1259(6) 0.4639(3)
C6 C 0.9065(8) 0.1020(5) 0.4441(3)
C7 C 0.8263(8) 0.1010(5) 0.3844(3)
H3 H 0.7190 0.0854 0.3732
C8 C 1.2906(10) 0.1503(7) 0.5470(4)
H4 H 1.3318 0.2137 0.5486
H5 H 1.3319 0.1136 0.5190
H6 H 1.3185 0.1427 0.5889
C9 C 0.7852(8) 0.1072(6) 0.5988(3)
C10 C 0.9260(8) 0.1195(6) 0.6380(4)
H7 H 1.0160 0.1505 0.6297
C11 C 0.9335(8) 0.0849(6) 0.6907(3)
H8 H 1.0290 0.0953 0.7186
C12 C 0.8007(7) 0.0354(5) 0.7020(3)
C13 C 0.6602(8) 0.0211(6) 0.6609(3)
H9 H 0.5700 -0.0126 0.6677
C14 C 0.6529(8) 0.0573(6) 0.6084(4)
H10 H 0.5579 0.0473 0.5801
C15 C 0.8100(8) -0.0050(5) 0.7581(3)
C16 C 0.7935(7) 0.2578(5) 0.1453(3)
C17 C 0.8256(7) 0.3511(5) 0.1323(3)
C18 C 0.9414(8) 0.3781(5) 0.1038(3)
H11 H 0.9956 0.3379 0.0915
C19 C 0.9787(8) 0.4632(5) 0.0930(3)
H12 H 1.0578 0.4811 0.0741
C20 C 0.8959(8) 0.5214(5) 0.1110(3)
C21 C 0.7796(9) 0.4956(6) 0.1400(4)
H13 H 0.7267 0.5362 0.1530
C22 C 0.7423(8) 0.4090(6) 0.1496(4)
H14 H 0.6616 0.3903 0.1675
C23 C 0.7283(8) 0.6672(5) 0.0194(3)
C24 C 0.7780(8) 0.7278(5) -0.0125(3)
H15 H 0.8731 0.7334 -0.0215
C25 C 0.6914(7) 0.7822(5) -0.0322(3)
C26 C 0.5515(7) 0.7728(5) -0.0181(3)
H16 H 0.4906 0.8080 -0.0311
C27 C 0.5000(8) 0.7113(6) 0.0155(3)
H17 H 0.4058 0.7065 0.0252
C28 C 0.5879(9) 0.6567(6) 0.0347(4)
C29 C 0.7486(7) 0.8456(5) -0.0696(3)
C30 C 0.3949(11) 0.5761(8) 0.0764(4)
H18 H 0.3176 0.5548 0.0363
H19 H 0.3860 0.6317 0.1011
H20 H 0.3805 0.5303 0.0990
C31 C 0.2990(8) -0.7271(5) 0.2117(3)
C32 C 0.2493(7) -0.6431(5) 0.2292(3)
C33 C 0.3282(7) -0.5633(5) 0.2174(3)
H21 H 0.4088 -0.5626 0.1983
C34 C 0.2866(7) -0.4858(5) 0.2341(3)
C35 C 0.1676(8) -0.4836(5) 0.2627(4)
C36 C 0.0889(8) -0.5634(5) 0.2744(4)
H22 H 0.0080 -0.5638 0.2933
C37 C 0.1296(7) -0.6413(5) 0.2583(3)
H23 H 0.0767 -0.6942 0.2669
C38 C 0.0187(10) -0.3950(7) 0.3075(5)
H24 H 0.0662 -0.3644 0.3518
H25 H -0.0477 -0.4552 0.3030
H26 H -0.0411 -0.3604 0.2893
C39 C 0.5530(8) -0.2521(5) 0.2375(3)
C40 C 0.6734(8) -0.2364(5) 0.2085(4)
H27 H 0.7407 -0.2716 0.2093
C41 C 0.6899(8) -0.1674(5) 0.1788(3)
H28 H 0.7677 -0.1569 0.1581
C42 C 0.5924(7) -0.1133(5) 0.1792(3)
C43 C 0.4766(8) -0.1300(5) 0.2094(4)
H29 H 0.4111 -0.0937 0.2096
C44 C 0.4548(9) -0.1994(6) 0.2394(4)
H30 H 0.3770 -0.2098 0.2601
C45 C 0.6111(7) -0.0383(5) 0.1462(3)
O1 O 0.9105(5) 0.1390(4) 0.2386(2)
O2 O 0.6879(5) 0.1105(4) 0.2645(2)
O3 O 1.1239(6) 0.1217(4) 0.5236(2)
O4 O 0.8176(6) 0.0747(4) 0.4861(2)
O5 O 0.8907(7) 0.2363(4) 0.5475(3)
O6 O 0.6166(7) 0.1435(5) 0.5053(3)
O7 O 0.9402(5) -0.0010(3) 0.7893(2)
O8 O 0.6843(5) -0.0365(4) 0.7707(2)
O9 O 0.8701(5) 0.2075(3) 0.1268(2)
O10 O 0.6917(5) 0.2372(4) 0.1749(2)
O11 O 1.0867(6) 0.6514(4) 0.0829(3)
O12 O 0.9136(6) 0.6964(4) 0.1443(2)
O13 O 0.8084(7) 0.6052(4) 0.0317(2)
O14 O 0.5031(5) -0.0016(3) 0.1377(2)
O15 O 0.7300(5) -0.0176(3) 0.1278(2)
O16 O 0.8794(5) 0.8540(4) -0.0759(2)
O17 O 0.6589(5) 0.8853(3) -0.0942(2)
O18 O 0.6359(6) -0.3912(4) 0.2637(3)
O19 O 0.3646(5) -0.4052(3) 0.2212(2)
O20 O 0.5583(7) 0.2402(5) 0.3097(2)
H31 H 0.4849 0.2625 0.3016
H32 H 0.5252 0.1838 0.3074
O21 O 1.0006(6) -0.0496(4) 0.0771(2)
H33 H 0.9921 -0.0742 0.0389
H34 H 1.0521 -0.0700 0.1053
O22 O 0.4281(5) -0.7169(4) 0.1988(2)
O23 O 0.8168(6) 0.0533(4) 0.0277(2)
H35 H 0.7482 0.0769 0.0396
H36 H 0.7696 -0.0031 0.0063
O24 O 0.5458(7) 0.5934(4) 0.0653(3)
O25 O 0.2142(5) -0.8052(3) 0.2104(2)
O26 O 0.1364(6) -0.4027(4) 0.2752(3)
O27 O 0.4991(7) -0.3195(4) 0.3319(3)
S1 S 0.7741(3) 0.15116(18) 0.53249(10)
S2 S 0.9400(2) 0.63065(15) 0.09743(10)
S3 S 0.5254(2) -0.34414(15) 0.27163(11)
Eu1A Eu 0.51438(4) -0.13966(2) 0.802131(16)
Eu1A_2 Eu 0.51438(4) 0.86034(2) -0.197869(16)
Eu1_2 Eu 0.48562(4) -0.86034(2) 0.197869(16)
Eu2A Eu 1.02951(3) -0.08799(2) 0.856585(15)
Eu2A_2 Eu 1.02951(3) 0.91201(2) -0.143415(15)
Eu2_2 Eu -0.02951(3) -0.91201(2) 0.143415(15)
O7A O 1.0598(5) 0.0010(3) 0.2107(2)
O8A O 0.3157(5) 0.0365(4) 0.2293(2)
O16A O 1.1206(5) 0.1460(4) 0.0759(2)
O17A O 0.3411(5) 0.1147(3) 0.0942(2)
O22_2 O 0.4281(5) 0.2831(4) 0.1988(2)
O25_2 O 0.2142(5) 0.1948(3) 0.2104(2)
O25_3 O 1.2142(5) 0.1948(3) 0.2104(2)
loop_
_geom_bond_atom_site_label_1
_geom_bond_atom_site_label_2
_geom_bond_site_symmetry_1
_geom_bond_site_symmetry_2
Eu1 O2 1_555 1_555
Eu2 O1 1_555 1_555
C1 C2 1_555 1_555
C2 C3 1_555 1_555
C3 H1 1_555 1_555
C4 C3 1_555 1_555
H2 C4 1_555 1_555
C5 C4 1_555 1_555
C6 C5 1_555 1_555
C7 C2 1_555 1_555
H3 C7 1_555 1_555
C8 H4 1_555 1_555
H5 C8 1_555 1_555
H6 C8 1_555 1_555
C9 C10 1_555 1_555
C10 H7 1_555 1_555
C11 C10 1_555 1_555
H8 C11 1_555 1_555
C12 C11 1_555 1_555
C13 C12 1_555 1_555
H9 C13 1_555 1_555
C14 C9 1_555 1_555
H10 C14 1_555 1_555
C15 C12 1_555 1_555
C16 C17 1_555 1_555
C17 C18 1_555 1_555
C18 H11 1_555 1_555
C19 C18 1_555 1_555
H12 C19 1_555 1_555
C20 C19 1_555 1_555
C21 C20 1_555 1_555
H13 C21 1_555 1_555
C22 C17 1_555 1_555
H14 C22 1_555 1_555
C23 C24 1_555 1_555
C24 H15 1_555 1_555
C25 C24 1_555 1_555
C26 C25 1_555 1_555
H16 C26 1_555 1_555
C27 C26 1_555 1_555
H17 C27 1_555 1_555
C28 C23 1_555 1_555
C29 C25 1_555 1_555
C30 H18 1_555 1_555
H19 C30 1_555 1_555
H20 C30 1_555 1_555
C31 C32 1_555 1_555
C32 C33 1_555 1_555
C33 H21 1_555 1_555
C34 C33 1_555 1_555
C35 C34 1_555 1_555
C36 C35 1_555 1_555
H22 C36 1_555 1_555
C37 C32 1_555 1_555
H23 C37 1_555 1_555
C38 H24 1_555 1_555
H25 C38 1_555 1_555
H26 C38 1_555 1_555
C39 C40 1_555 1_555
C40 H27 1_555 1_555
C41 C40 1_555 1_555
H28 C41 1_555 1_555
C42 C41 1_555 1_555
C43 C42 1_555 1_555
H29 C43 1_555 1_555
C44 C39 1_555 1_555
H30 C44 1_555 1_555
C45 C42 1_555 1_555
O1 C1 1_555 1_555
O2 C1 1_555 1_555
O3 C5 1_555 1_555
O4 C6 1_555 1_555
O5 S1 1_555 1_555
O6 S1 1_555 1_555
O7 C15 1_555 1_555
O8 C15 1_555 1_555
O9 Eu2 1_555 1_555
O10 Eu1 1_555 1_555
O11 S2 1_555 1_555
O12 S2 1_555 1_555
O13 C23 1_555 1_555
O14 Eu1 1_555 1_555
O15 Eu2 1_555 1_555
O16 C29 1_555 1_555
O17 C29 1_555 1_555
O18 S3 1_555 1_555
O19 C34 1_555 1_555
O20 Eu1 1_555 1_555
H31 O20 1_555 1_555
H32 O20 1_555 1_555
O21 Eu2 1_555 1_555
H33 O21 1_555 1_555
H34 O21 1_555 1_555
O22 C31 1_555 1_555
O23 Eu2 1_555 1_555
H35 O23 1_555 1_555
H36 O23 1_555 1_555
O24 C28 1_555 1_555
O25 C31 1_555 1_555
O26 C35 1_555 1_555
O27 S3 1_555 1_555
S1 C9 1_555 1_555
S2 C20 1_555 1_555
S3 C39 1_555 1_555
Eu1A O8 1_555 1_555
Eu1A_2 O17 1_555 1_555
Eu1_2 O22 1_555 1_555
Eu2A O7 1_555 1_555
Eu2A_2 O16 1_555 1_555
Eu2_2 O25 1_555 1_555
O7A Eu2 1_555 1_555
O8A Eu1 1_555 1_555
O16A Eu2 1_555 1_555
O17A Eu1 1_555 1_555
O22_2 Eu1 1_555 1_555
O25_2 Eu1 1_555 1_555
O25_3 Eu2 1_555 1_555
C6 C7 1_555 1_555
C8 O3 1_555 1_555
C13 C14 1_555 1_555
C16 O9 1_555 1_555
C16 O10 1_555 1_555
C21 C22 1_555 1_555
C27 C28 1_555 1_555
C30 O24 1_555 1_555
C36 C37 1_555 1_555
C38 O26 1_555 1_555
C43 C44 1_555 1_555
C45 O14 1_555 1_555
C45 O15 1_555 1_555
O4 S1 1_555 1_555
O13 S2 1_555 1_555
O19 S3 1_555 1_555
O25 Eu1_2 1_555 1_555

#END
