
#######################################################################
#
#                 Cambridge Crystallographic Data Centre
#                                CCDC 
#
#######################################################################
#
# If this CIF has been generated from an entry in the Cambridge 
# Structural Database, then it will include bibliographic, chemical, 
# crystal, experimental, refinement or atomic coordinate data resulting 
# from the CCDC's data processing and validation procedures.
#
#######################################################################

data_WENKUX
_symmetry_cell_setting           triclinic
_symmetry_space_group_name_H-M   'P -1'
_symmetry_Int_Tables_number      2
_space_group_name_Hall           '-P 1'
loop_
_symmetry_equiv_pos_site_id
_symmetry_equiv_pos_as_xyz
1 x,y,z
2 -x,-y,-z
_cell_length_a                   9.2574(19)
_cell_length_b                   15.601(3)
_cell_length_c                   22.274(4)
_cell_angle_alpha                102.19(3)
_cell_angle_beta                 101.58(3)
_cell_angle_gamma                104.32(3)
_cell_volume                     2936
loop_
_atom_site_label
_atom_site_type_symbol
_atom_site_fract_x
_atom_site_fract_y
_atom_site_fract_z
Tb1 Tb 0.48475(3) 0.139422(19) 0.197830(13)
Tb2 Tb 0.96819(3) 0.088114(19) 0.144180(13)
C1 C 0.8260(7) 0.1230(4) 0.2768(3)
C2 C 0.9088(7) 0.1240(4) 0.3424(3)
C3 C 1.0697(7) 0.1496(4) 0.3613(3)
H1 H 1.1260 0.1669 0.3333
C4 C 1.1456(7) 0.1495(5) 0.4205(3)
H2 H 1.2531 0.1659 0.4321
C5 C 1.0646(8) 0.1253(4) 0.4637(3)
C6 C 0.9040(8) 0.1022(4) 0.4440(3)
C7 C 0.8266(7) 0.0999(4) 0.3842(3)
H3 H 0.7190 0.0822 0.3720
C8 C 1.2903(9) 0.1530(7) 0.5474(4)
H4 H 1.3286 0.2168 0.5491
H5 H 1.3341 0.1175 0.5197
H6 H 1.3190 0.1455 0.5894
C9 C 0.7824(7) 0.1046(5) 0.5985(3)
C10 C 0.9261(8) 0.1186(5) 0.6384(3)
H7 H 1.0155 0.1511 0.6303
C11 C 0.9348(7) 0.0830(4) 0.6914(3)
H8 H 1.0306 0.0919 0.7187
C12 C 0.8025(7) 0.0353(4) 0.7029(3)
C13 C 0.6602(7) 0.0211(5) 0.6608(3)
H9 H 0.5703 -0.0117 0.6684
C14 C 0.6501(7) 0.0540(5) 0.6093(3)
H10 H 0.5542 0.0426 0.5812
C15 C 0.8100(7) -0.0056(4) 0.7588(3)
C16 C 0.7881(7) 0.2548(4) 0.1448(3)
C17 C 0.8219(7) 0.3492(4) 0.1309(3)
C18 C 0.9390(7) 0.3755(4) 0.1037(3)
H11 H 0.9951 0.3355 0.0927
C19 C 0.9747(7) 0.4599(5) 0.0923(3)
H12 H 1.0527 0.4769 0.0727
C20 C 0.8936(7) 0.5193(4) 0.1104(3)
C21 C 0.7749(8) 0.4940(4) 0.1379(3)
H13 H 0.7197 0.5344 0.1493
C22 C 0.7388(7) 0.4084(4) 0.1484(3)
H14 H 0.6593 0.3904 0.1671
C23 C 0.7286(8) 0.6679(4) 0.0184(3)
C24 C 0.7824(7) 0.7295(4) -0.0135(3)
H15 H 0.8782 0.7351 -0.0220
C25 C 0.6947(6) 0.7837(4) -0.0334(3)
C26 C 0.5574(7) 0.7760(5) -0.0180(3)
H16 H 0.4983 0.8127 -0.0305
C27 C 0.5042(7) 0.7164(5) 0.0150(3)
H17 H 0.4115 0.7145 0.0257
C28 C 0.5858(8) 0.6587(5) 0.0330(3)
C29 C 0.7524(7) 0.8461(4) -0.0711(3)
C30 C 0.3938(9) 0.5793(6) 0.0762(4)
H18 H 0.3157 0.5467 0.0369
H19 H 0.3786 0.6373 0.0931
H20 H 0.3869 0.5435 0.1062
C31 C 0.2940(7) -0.7270(4) 0.2127(3)
C32 C 0.2444(6) -0.6435(4) 0.2288(3)
C33 C 0.3246(7) -0.5634(4) 0.2176(3)
H21 H 0.4058 -0.5631 0.1989
C34 C 0.2843(7) -0.4855(4) 0.2341(3)
C35 C 0.1650(7) -0.4813(4) 0.2619(3)
C36 C 0.0866(7) -0.5617(4) 0.2739(3)
H22 H 0.0066 -0.5612 0.2933
C37 C 0.1242(7) -0.6412(4) 0.2580(3)
H23 H 0.0700 -0.6940 0.2665
C38 C 0.0163(10) -0.3911(6) 0.3055(4)
H24 H 0.0506 -0.3922 0.3488
H25 H -0.0770 -0.4408 0.2842
H26 H -0.0033 -0.3337 0.3047
C39 C 0.5552(7) -0.2517(4) 0.2373(3)
C40 C 0.6723(7) -0.2364(4) 0.2078(3)
H27 H 0.7378 -0.2729 0.2072
C41 C 0.6908(7) -0.1663(4) 0.1791(3)
H28 H 0.7712 -0.1544 0.1599
C42 C 0.5916(6) -0.1130(4) 0.1785(3)
C43 C 0.4752(8) -0.1297(4) 0.2081(4)
H29 H 0.4093 -0.0934 0.2083
C44 C 0.4544(8) -0.1996(5) 0.2378(4)
H30 H 0.3748 -0.2113 0.2574
C45 C 0.6103(7) -0.0360(4) 0.1457(3)
O1 O 0.9062(5) 0.1369(3) 0.23803(19)
O2 O 0.6836(4) 0.1091(3) 0.2649(2)
O3 O 1.1257(6) 0.1222(4) 0.5238(2)
O4 O 0.8170(5) 0.0737(3) 0.4864(2)
O5 O 0.8901(6) 0.2362(3) 0.5478(2)
O6 O 0.6175(6) 0.1437(4) 0.5048(3)
O7 O 0.9397(4) -0.0019(3) 0.78987(19)
O8 O 0.6849(5) -0.0379(3) 0.7714(2)
O9 O 0.8636(5) 0.2047(3) 0.12658(19)
O10 O 0.6875(5) 0.2363(3) 0.1749(2)
O11 O 1.0853(6) 0.6493(4) 0.0822(3)
O12 O 0.9109(5) 0.6944(3) 0.1421(2)
O13 O 0.8098(6) 0.6057(3) 0.0318(2)
O14 O 0.5043(4) 0.0004(3) 0.13776(19)
O15 O 0.7305(5) -0.0165(3) 0.1271(2)
O16 O 0.8859(5) 0.8534(3) -0.0780(2)
O17 O 0.6631(5) 0.8862(3) -0.09629(19)
O18 O 0.6360(6) -0.3916(4) 0.2630(3)
O19 O 0.3648(5) -0.4043(3) 0.2207(2)
O20 O 0.5580(6) 0.2393(4) 0.3090(2)
H31 H 0.4847 0.2615 0.3008
H32 H 0.5249 0.1828 0.3067
O21 O 0.9927(6) -0.0478(3) 0.0760(2)
H33 H 0.9842 -0.0724 0.0378
H34 H 1.0442 -0.0681 0.1042
O22 O 0.4222(5) -0.7196(3) 0.2003(2)
O23 O 0.8148(6) 0.0523(4) 0.0286(2)
H35 H 0.7462 0.0760 0.0405
H36 H 0.7676 -0.0040 0.0073
O24 O 0.5454(6) 0.5951(3) 0.0644(2)
O25 O 0.2048(5) -0.8059(3) 0.2104(2)
O26 O 0.1338(5) -0.4009(3) 0.2736(3)
O27 O 0.4971(7) -0.3188(4) 0.3313(2)
S1 S 0.7733(2) 0.15042(14) 0.53241(9)
S2 S 0.9392(2) 0.62939(12) 0.09661(9)
S3 S 0.5241(2) -0.34455(12) 0.27053(10)
Tb1A Tb 0.51525(3) -0.139422(19) 0.802170(13)
Tb1A_2 Tb 0.51525(3) 0.860578(19) -0.197830(13)
Tb1_2 Tb 0.48475(3) -0.860578(19) 0.197830(13)
Tb2A Tb 1.03181(3) -0.088114(19) 0.855820(13)
Tb2A_2 Tb 1.03181(3) 0.911886(19) -0.144180(13)
Tb2_2 Tb -0.03181(3) -0.911886(19) 0.144180(13)
O7A O 1.0603(4) 0.0019(3) 0.21013(19)
O8A O 0.3151(5) 0.0379(3) 0.2286(2)
O16A O 1.1141(5) 0.1466(3) 0.0780(2)
O17A O 0.3369(5) 0.1138(3) 0.09629(19)
O22_2 O 0.4222(5) 0.2804(3) 0.2003(2)
O25_2 O 0.2048(5) 0.1941(3) 0.2104(2)
O25_3 O 1.2048(5) 0.1941(3) 0.2104(2)
loop_
_geom_bond_atom_site_label_1
_geom_bond_atom_site_label_2
_geom_bond_site_symmetry_1
_geom_bond_site_symmetry_2
Tb1 O2 1_555 1_555
Tb2 O1 1_555 1_555
C1 C2 1_555 1_555
C2 C3 1_555 1_555
C3 H1 1_555 1_555
C4 C3 1_555 1_555
H2 C4 1_555 1_555
C5 C4 1_555 1_555
C6 C5 1_555 1_555
C7 C2 1_555 1_555
H3 C7 1_555 1_555
C8 H4 1_555 1_555
H5 C8 1_555 1_555
H6 C8 1_555 1_555
C9 C10 1_555 1_555
C10 H7 1_555 1_555
C11 C10 1_555 1_555
H8 C11 1_555 1_555
C12 C11 1_555 1_555
C13 C12 1_555 1_555
H9 C13 1_555 1_555
C14 C9 1_555 1_555
H10 C14 1_555 1_555
C15 C12 1_555 1_555
C16 C17 1_555 1_555
C17 C18 1_555 1_555
C18 H11 1_555 1_555
C19 C18 1_555 1_555
H12 C19 1_555 1_555
C20 C19 1_555 1_555
C21 C20 1_555 1_555
H13 C21 1_555 1_555
C22 C17 1_555 1_555
H14 C22 1_555 1_555
C23 C24 1_555 1_555
C24 H15 1_555 1_555
C25 C24 1_555 1_555
C26 C25 1_555 1_555
H16 C26 1_555 1_555
C27 C26 1_555 1_555
H17 C27 1_555 1_555
C28 C23 1_555 1_555
C29 C25 1_555 1_555
C30 H18 1_555 1_555
H19 C30 1_555 1_555
H20 C30 1_555 1_555
C31 C32 1_555 1_555
C32 C33 1_555 1_555
C33 H21 1_555 1_555
C34 C33 1_555 1_555
C35 C34 1_555 1_555
C36 C35 1_555 1_555
H22 C36 1_555 1_555
C37 C32 1_555 1_555
H23 C37 1_555 1_555
C38 H24 1_555 1_555
H25 C38 1_555 1_555
H26 C38 1_555 1_555
C39 C40 1_555 1_555
C40 H27 1_555 1_555
C41 C40 1_555 1_555
H28 C41 1_555 1_555
C42 C41 1_555 1_555
C43 C42 1_555 1_555
H29 C43 1_555 1_555
C44 C39 1_555 1_555
H30 C44 1_555 1_555
C45 C42 1_555 1_555
O1 C1 1_555 1_555
O2 C1 1_555 1_555
O3 C5 1_555 1_555
O4 C6 1_555 1_555
O5 S1 1_555 1_555
O6 S1 1_555 1_555
O7 C15 1_555 1_555
O8 C15 1_555 1_555
O9 Tb2 1_555 1_555
O10 Tb1 1_555 1_555
O11 S2 1_555 1_555
O12 S2 1_555 1_555
O13 C23 1_555 1_555
O14 Tb1 1_555 1_555
O15 Tb2 1_555 1_555
O16 C29 1_555 1_555
O17 C29 1_555 1_555
O18 S3 1_555 1_555
O19 C34 1_555 1_555
O20 Tb1 1_555 1_555
H31 O20 1_555 1_555
H32 O20 1_555 1_555
O21 Tb2 1_555 1_555
H33 O21 1_555 1_555
H34 O21 1_555 1_555
O22 C31 1_555 1_555
O23 Tb2 1_555 1_555
H35 O23 1_555 1_555
H36 O23 1_555 1_555
O24 C28 1_555 1_555
O25 C31 1_555 1_555
O26 C35 1_555 1_555
O27 S3 1_555 1_555
S1 C9 1_555 1_555
S2 C20 1_555 1_555
S3 C39 1_555 1_555
Tb1A O8 1_555 1_555
Tb1A_2 O17 1_555 1_555
Tb1_2 O22 1_555 1_555
Tb2A O7 1_555 1_555
Tb2A_2 O16 1_555 1_555
Tb2_2 O25 1_555 1_555
O7A Tb2 1_555 1_555
O8A Tb1 1_555 1_555
O16A Tb2 1_555 1_555
O17A Tb1 1_555 1_555
O22_2 Tb1 1_555 1_555
O25_2 Tb1 1_555 1_555
O25_3 Tb2 1_555 1_555
C6 C7 1_555 1_555
C8 O3 1_555 1_555
C13 C14 1_555 1_555
C16 O9 1_555 1_555
C16 O10 1_555 1_555
C21 C22 1_555 1_555
C27 C28 1_555 1_555
C30 O24 1_555 1_555
C36 C37 1_555 1_555
C38 O26 1_555 1_555
C43 C44 1_555 1_555
C45 O14 1_555 1_555
C45 O15 1_555 1_555
O4 S1 1_555 1_555
O13 S2 1_555 1_555
O19 S3 1_555 1_555
O25 Tb1_2 1_555 1_555

#END
