
#######################################################################
#
#                 Cambridge Crystallographic Data Centre
#                                CCDC 
#
#######################################################################
#
# If this CIF has been generated from an entry in the Cambridge 
# Structural Database, then it will include bibliographic, chemical, 
# crystal, experimental, refinement or atomic coordinate data resulting 
# from the CCDC's data processing and validation procedures.
#
#######################################################################

data_WENLIL
_symmetry_cell_setting           monoclinic
_symmetry_space_group_name_H-M   'P 21/c'
_symmetry_Int_Tables_number      14
_space_group_name_Hall           '-P 2ybc'
loop_
_symmetry_equiv_pos_site_id
_symmetry_equiv_pos_as_xyz
1 x,y,z
2 -x,1/2+y,1/2-z
3 -x,-y,-z
4 x,1/2-y,1/2+z
_cell_length_a                   9.2283(15)
_cell_length_b                   17.060(3)
_cell_length_c                   6.7156(11)
_cell_angle_alpha                90
_cell_angle_beta                 105.848(2)
_cell_angle_gamma                90
_cell_volume                     1017.08
loop_
_atom_site_label
_atom_site_type_symbol
_atom_site_fract_x
_atom_site_fract_y
_atom_site_fract_z
Ag1 Ag 0.5000 0.0000 0.0000
Ag2 Ag 0.5000 0.0000 0.5000
Br1 Br 0.27906(15) 0.07977(9) 0.4309(3)
N1 N 0.7682(8) 0.1139(4) 0.1116(10)
N2 N 0.5605(8) 0.1783(4) 0.0334(9)
C1 C 0.6223(10) 0.1045(4) 0.0573(12)
C2 C 0.6760(12) 0.3144(5) 0.0770(13)
H1 H 0.5861 0.3425 0.0431
C3 C 0.9462(13) 0.3111(6) 0.1767(16)
H2 H 1.0367 0.3386 0.2075
C4 C 0.6761(11) 0.2346(5) 0.0779(11)
C5 C 0.9485(13) 0.2298(6) 0.1810(16)
H3 H 1.0387 0.2021 0.2169
C6 C 0.8120(9) 0.1921(5) 0.1298(12)
C7 C 0.4002(11) 0.1947(6) -0.0267(16)
H4 H 0.3503 0.1599 -0.1363
H5 H 0.3837 0.2479 -0.0737
H6 H 0.3607 0.1872 0.0901
C8 C 0.8793(11) 0.0469(5) 0.1548(16)
H7 H 0.8302 -0.0001 0.0919
H8 H 0.9166 0.0393 0.3016
H9 H 0.9618 0.0588 0.0984
C9 C 0.8114(15) 0.3520(5) 0.1274(14)
H10 H 0.8134 0.4066 0.1287
Ag1_2 Ag 0.5000 0.0000 1.0000
Ag2_2 Ag 0.5000 0.0000 -0.5000
Br1B Br 0.72094(15) -0.07977(9) 0.5691(3)
N1B N 0.2318(8) -0.1139(4) -0.1116(10)
N2B N 0.4395(8) -0.1783(4) -0.0334(9)
C1B C 0.3777(10) -0.1045(4) -0.0573(12)
C2B C 0.3240(12) -0.3144(5) -0.0770(13)
H1B H 0.4139 -0.3425 -0.0431
C3B C 0.0538(13) -0.3111(6) -0.1767(16)
H2B H -0.0367 -0.3386 -0.2075
C4B C 0.3239(11) -0.2346(5) -0.0779(11)
C5B C 0.0515(13) -0.2298(6) -0.1810(16)
H3B H -0.0387 -0.2021 -0.2169
C6B C 0.1880(9) -0.1921(5) -0.1298(12)
C7B C 0.5998(11) -0.1947(6) 0.0267(16)
H4B H 0.6497 -0.1599 0.1363
H5B H 0.6163 -0.2479 0.0737
H6B H 0.6393 -0.1872 -0.0901
C8B C 0.1207(11) -0.0469(5) -0.1548(16)
H7B H 0.1698 0.0001 -0.0919
H8B H 0.0834 -0.0393 -0.3016
H9B H 0.0382 -0.0588 -0.0984
C9B C 0.1886(15) -0.3520(5) -0.1274(14)
H10B H 0.1866 -0.4066 -0.1287
loop_
_geom_bond_atom_site_label_1
_geom_bond_atom_site_label_2
_geom_bond_site_symmetry_1
_geom_bond_site_symmetry_2
Ag1 Ag2 1_555 1_555
Ag2 Br1 1_555 1_555
N1 C1 1_555 1_555
N2 C1 1_555 1_555
C1 Ag1 1_555 1_555
C2 H1 1_555 1_555
C3 H2 1_555 1_555
C4 N2 1_555 1_555
C5 C3 1_555 1_555
H3 C5 1_555 1_555
C6 N1 1_555 1_555
C7 N2 1_555 1_555
H4 C7 1_555 1_555
H5 C7 1_555 1_555
H6 C7 1_555 1_555
C8 N1 1_555 1_555
H7 C8 1_555 1_555
H8 C8 1_555 1_555
H9 C8 1_555 1_555
C9 C2 1_555 1_555
H10 C9 1_555 1_555
Ag1_2 Ag2 1_555 1_555
Ag2_2 Ag1 1_555 1_555
Br1B Ag2 1_555 1_555
N1B C1B 1_555 1_555
N2B C1B 1_555 1_555
C1B Ag1 1_555 1_555
C2B H1B 1_555 1_555
C3B H2B 1_555 1_555
C4B N2B 1_555 1_555
C5B C3B 1_555 1_555
H3B C5B 1_555 1_555
C6B N1B 1_555 1_555
C7B N2B 1_555 1_555
H4B C7B 1_555 1_555
H5B C7B 1_555 1_555
H6B C7B 1_555 1_555
C8B N1B 1_555 1_555
H7B C8B 1_555 1_555
H8B C8B 1_555 1_555
H9B C8B 1_555 1_555
C9B C2B 1_555 1_555
H10B C9B 1_555 1_555
C2 C4 1_555 1_555
C3 C9 1_555 1_555
C4 C6 1_555 1_555
C5 C6 1_555 1_555
C2B C4B 1_555 1_555
C3B C9B 1_555 1_555
C4B C6B 1_555 1_555
C5B C6B 1_555 1_555

#END
