
#######################################################################
#
#                 Cambridge Crystallographic Data Centre
#                                CCDC 
#
#######################################################################
#
# If this CIF has been generated from an entry in the Cambridge 
# Structural Database, then it will include bibliographic, chemical, 
# crystal, experimental, refinement or atomic coordinate data resulting 
# from the CCDC's data processing and validation procedures.
#
#######################################################################

data_WENLAE
_symmetry_cell_setting           triclinic
_symmetry_space_group_name_H-M   'P -1'
_symmetry_Int_Tables_number      2
_space_group_name_Hall           '-P 1'
loop_
_symmetry_equiv_pos_site_id
_symmetry_equiv_pos_as_xyz
1 x,y,z
2 -x,-y,-z
_cell_length_a                   9.1999(19)
_cell_length_b                   15.578(3)
_cell_length_c                   22.142(4)
_cell_angle_alpha                102.86(3)
_cell_angle_beta                 101.55(3)
_cell_angle_gamma                104.52(3)
_cell_volume                     2882.59
loop_
_atom_site_label
_atom_site_type_symbol
_atom_site_fract_x
_atom_site_fract_y
_atom_site_fract_z
Dy1 Dy 0.48589(5) 0.13777(3) 0.19568(2)
Dy2 Dy 0.97083(5) 0.08715(3) 0.14226(2)
C1 C 0.8316(11) 0.1233(6) 0.2758(5)
C2 C 0.9096(11) 0.1214(7) 0.3409(5)
C3 C 1.0762(10) 0.1487(7) 0.3618(5)
H1 H 1.1344 0.1664 0.3344
C4 C 1.1493(12) 0.1488(7) 0.4206(5)
H2 H 1.2577 0.1657 0.4333
C5 C 1.0640(12) 0.1237(7) 0.4633(5)
C6 C 0.9010(12) 0.0979(7) 0.4436(5)
C7 C 0.8253(11) 0.0979(7) 0.3818(5)
H3 H 0.7170 0.0817 0.3689
C8 C 1.2911(12) 0.1473(9) 0.5470(5)
H4 H 1.3349 0.2104 0.5477
H5 H 1.3298 0.1079 0.5188
H6 H 1.3201 0.1415 0.5897
C9 C 0.7826(11) 0.1047(7) 0.5978(5)
C10 C 0.9256(11) 0.1179(8) 0.6393(5)
H7 H 1.0163 0.1510 0.6319
C11 C 0.9357(12) 0.0820(7) 0.6923(5)
H8 H 1.0326 0.0902 0.7194
C12 C 0.8006(10) 0.0346(7) 0.7038(5)
C13 C 0.6583(12) 0.0219(8) 0.6618(5)
H9 H 0.5675 -0.0105 0.6695
C14 C 0.6459(12) 0.0553(7) 0.6089(5)
H10 H 0.5488 0.0453 0.5813
C15 C 0.8092(11) -0.0043(7) 0.7600(5)
C16 C 0.7943(12) 0.2538(7) 0.1442(5)
C17 C 0.8277(11) 0.3490(8) 0.1308(5)
C18 C 0.9463(12) 0.3753(8) 0.1036(5)
H11 H 1.0014 0.3348 0.0915
C19 C 0.9843(11) 0.4612(7) 0.0939(5)
H12 H 1.0640 0.4785 0.0749
C20 C 0.9040(11) 0.5224(7) 0.1125(5)
C21 C 0.7827(12) 0.4979(8) 0.1405(5)
H13 H 0.7284 0.5388 0.1528
C22 C 0.7458(12) 0.4102(7) 0.1495(5)
H14 H 0.6655 0.3921 0.1682
C23 C 0.7385(11) 0.6694(7) 0.0210(5)
C24 C 0.7877(11) 0.7316(7) -0.0103(5)
H15 H 0.8844 0.7394 -0.0189
C25 C 0.6945(11) 0.7845(7) -0.0302(5)
C26 C 0.5517(11) 0.7727(8) -0.0165(5)
H16 H 0.4896 0.8080 -0.0287
C27 C 0.5005(11) 0.7090(8) 0.0151(5)
H17 H 0.4031 0.7010 0.0230
C28 C 0.5921(12) 0.6566(8) 0.0355(6)
C29 C 0.7482(11) 0.8473(7) -0.0677(5)
C30 C 0.4012(14) 0.5719(10) 0.0757(6)
H18 H 0.3244 0.5528 0.0350
H19 H 0.3921 0.6267 0.1027
H20 H 0.3845 0.5233 0.0962
C31 C 0.2955(13) -0.7297(8) 0.2104(5)
C32 C 0.2464(10) -0.6441(7) 0.2284(5)
C33 C 0.3262(11) -0.5644(7) 0.2159(4)
H21 H 0.4065 -0.5647 0.1963
C34 C 0.2848(11) -0.4852(7) 0.2329(5)
C35 C 0.1655(12) -0.4842(7) 0.2634(5)
C36 C 0.0899(11) -0.5641(7) 0.2747(5)
H22 H 0.0101 -0.5637 0.2946
C37 C 0.1263(11) -0.6450(8) 0.2581(5)
H23 H 0.0726 -0.6983 0.2663
C38 C 0.0151(12) -0.3942(8) 0.3078(6)
H24 H 0.0510 -0.3966 0.3510
H25 H -0.0790 -0.4444 0.2857
H26 H -0.0051 -0.3364 0.3088
C39 C 0.5547(11) -0.2514(7) 0.2372(5)
C40 C 0.6754(10) -0.2357(7) 0.2077(5)
H27 H 0.7425 -0.2715 0.2084
C41 C 0.6945(11) -0.1679(6) 0.1778(5)
H28 H 0.7741 -0.1574 0.1577
C42 C 0.5931(11) -0.1136(7) 0.1775(4)
C43 C 0.4730(11) -0.1321(7) 0.2070(5)
H29 H 0.4034 -0.0980 0.2056
C44 C 0.4551(12) -0.1993(8) 0.2380(5)
H30 H 0.3773 -0.2093 0.2590
C45 C 0.6100(11) -0.0384(7) 0.1439(4)
O1 O 0.9119(8) 0.1401(5) 0.2375(3)
O2 O 0.6843(7) 0.1065(5) 0.2616(3)
O3 O 1.1229(8) 0.1203(5) 0.5241(3)
O4 O 0.8143(8) 0.0718(5) 0.4849(3)
O5 O 0.8923(8) 0.2352(5) 0.5477(3)
O6 O 0.6131(8) 0.1432(6) 0.5045(4)
O7 O 0.9415(7) -0.0013(4) 0.7910(3)
O8 O 0.6836(7) -0.0360(5) 0.7735(3)
O9 O 0.8709(8) 0.2051(5) 0.1247(3)
O10 O 0.6903(8) 0.2344(5) 0.1735(3)
O11 O 1.0991(8) 0.6521(5) 0.0864(4)
O12 O 0.9202(8) 0.6982(5) 0.1468(3)
O13 O 0.8217(9) 0.6082(5) 0.0329(3)
O14 O 0.5003(7) -0.0032(4) 0.1344(3)
O15 O 0.7326(7) -0.0171(5) 0.1266(3)
O16 O 0.8825(7) 0.8575(5) -0.0747(3)
O17 O 0.6541(8) 0.8864(5) -0.0933(3)
O18 O 0.6403(8) -0.3905(5) 0.2639(4)
O19 O 0.3618(7) -0.4060(5) 0.2195(3)
O20 O 0.5536(9) 0.2339(6) 0.3069(3)
H31 H 0.4802 0.2561 0.2987
H32 H 0.5204 0.1774 0.3046
O21 O 0.9948(8) -0.0478(5) 0.0749(3)
H33 H 0.9863 -0.0724 0.0367
H34 H 1.0463 -0.0681 0.1031
O22 O 0.4288(7) -0.7192(5) 0.1982(4)
O23 O 0.8149(9) 0.0525(6) 0.0265(4)
H35 H 0.7463 0.0762 0.0384
H36 H 0.7677 -0.0039 0.0052
O24 O 0.5543(9) 0.5908(5) 0.0659(4)
O25 O 0.2109(8) -0.8072(5) 0.2084(3)
O26 O 0.1318(8) -0.4018(5) 0.2749(4)
O27 O 0.4998(9) -0.3170(5) 0.3319(4)
S1 S 0.7712(3) 0.1489(2) 0.53215(14)
S2 S 0.9507(3) 0.6322(2) 0.09981(14)
S3 S 0.5250(3) -0.3438(2) 0.27072(14)
Dy1A Dy 0.51411(5) -0.13777(3) 0.80432(2)
Dy1A_2 Dy 0.51411(5) 0.86223(3) -0.19568(2)
Dy1_2 Dy 0.48589(5) -0.86223(3) 0.19568(2)
Dy2A Dy 1.02917(5) -0.08715(3) 0.85774(2)
Dy2A_2 Dy 1.02917(5) 0.91285(3) -0.14226(2)
Dy2_2 Dy -0.02917(5) -0.91285(3) 0.14226(2)
O7A O 1.0585(7) 0.0013(4) 0.2090(3)
O8A O 0.3164(7) 0.0360(5) 0.2265(3)
O16A O 1.1175(7) 0.1425(5) 0.0747(3)
O17A O 0.3459(8) 0.1136(5) 0.0933(3)
O22_2 O 0.4288(7) 0.2808(5) 0.1982(4)
O25_2 O 0.2109(8) 0.1928(5) 0.2084(3)
O25_3 O 1.2109(8) 0.1928(5) 0.2084(3)
loop_
_geom_bond_atom_site_label_1
_geom_bond_atom_site_label_2
_geom_bond_site_symmetry_1
_geom_bond_site_symmetry_2
Dy1 O2 1_555 1_555
Dy2 O1 1_555 1_555
C1 C2 1_555 1_555
C2 C3 1_555 1_555
C3 H1 1_555 1_555
C4 C3 1_555 1_555
H2 C4 1_555 1_555
C5 C4 1_555 1_555
C6 C5 1_555 1_555
C7 C2 1_555 1_555
H3 C7 1_555 1_555
C8 H4 1_555 1_555
H5 C8 1_555 1_555
H6 C8 1_555 1_555
C9 C10 1_555 1_555
C10 H7 1_555 1_555
C11 C10 1_555 1_555
H8 C11 1_555 1_555
C12 C11 1_555 1_555
C13 C12 1_555 1_555
H9 C13 1_555 1_555
C14 C9 1_555 1_555
H10 C14 1_555 1_555
C15 C12 1_555 1_555
C16 C17 1_555 1_555
C17 C18 1_555 1_555
C18 H11 1_555 1_555
C19 C18 1_555 1_555
H12 C19 1_555 1_555
C20 C19 1_555 1_555
C21 C20 1_555 1_555
H13 C21 1_555 1_555
C22 C17 1_555 1_555
H14 C22 1_555 1_555
C23 C24 1_555 1_555
C24 H15 1_555 1_555
C25 C24 1_555 1_555
C26 C25 1_555 1_555
H16 C26 1_555 1_555
C27 C26 1_555 1_555
H17 C27 1_555 1_555
C28 C23 1_555 1_555
C29 C25 1_555 1_555
C30 H18 1_555 1_555
H19 C30 1_555 1_555
H20 C30 1_555 1_555
C31 C32 1_555 1_555
C32 C33 1_555 1_555
C33 H21 1_555 1_555
C34 C33 1_555 1_555
C35 C34 1_555 1_555
C36 C35 1_555 1_555
H22 C36 1_555 1_555
C37 C32 1_555 1_555
H23 C37 1_555 1_555
C38 H24 1_555 1_555
H25 C38 1_555 1_555
H26 C38 1_555 1_555
C39 C40 1_555 1_555
C40 H27 1_555 1_555
C41 C40 1_555 1_555
H28 C41 1_555 1_555
C42 C41 1_555 1_555
C43 C42 1_555 1_555
H29 C43 1_555 1_555
C44 C39 1_555 1_555
H30 C44 1_555 1_555
C45 C42 1_555 1_555
O1 C1 1_555 1_555
O2 C1 1_555 1_555
O3 C5 1_555 1_555
O4 C6 1_555 1_555
O5 S1 1_555 1_555
O6 S1 1_555 1_555
O7 C15 1_555 1_555
O8 C15 1_555 1_555
O9 Dy2 1_555 1_555
O10 Dy1 1_555 1_555
O11 S2 1_555 1_555
O12 S2 1_555 1_555
O13 C23 1_555 1_555
O14 Dy1 1_555 1_555
O15 Dy2 1_555 1_555
O16 C29 1_555 1_555
O17 C29 1_555 1_555
O18 S3 1_555 1_555
O19 C34 1_555 1_555
O20 Dy1 1_555 1_555
H31 O20 1_555 1_555
H32 O20 1_555 1_555
O21 Dy2 1_555 1_555
H33 O21 1_555 1_555
H34 O21 1_555 1_555
O22 C31 1_555 1_555
O23 Dy2 1_555 1_555
H35 O23 1_555 1_555
H36 O23 1_555 1_555
O24 C28 1_555 1_555
O25 C31 1_555 1_555
O26 C35 1_555 1_555
O27 S3 1_555 1_555
S1 C9 1_555 1_555
S2 C20 1_555 1_555
S3 C39 1_555 1_555
Dy1A O8 1_555 1_555
Dy1A_2 O17 1_555 1_555
Dy1_2 O22 1_555 1_555
Dy2A O7 1_555 1_555
Dy2A_2 O16 1_555 1_555
Dy2_2 O25 1_555 1_555
O7A Dy2 1_555 1_555
O8A Dy1 1_555 1_555
O16A Dy2 1_555 1_555
O17A Dy1 1_555 1_555
O22_2 Dy1 1_555 1_555
O25_2 Dy1 1_555 1_555
O25_3 Dy2 1_555 1_555
C6 C7 1_555 1_555
C8 O3 1_555 1_555
C13 C14 1_555 1_555
C16 O9 1_555 1_555
C16 O10 1_555 1_555
C21 C22 1_555 1_555
C27 C28 1_555 1_555
C30 O24 1_555 1_555
C36 C37 1_555 1_555
C38 O26 1_555 1_555
C43 C44 1_555 1_555
C45 O14 1_555 1_555
C45 O15 1_555 1_555
O4 S1 1_555 1_555
O13 S2 1_555 1_555
O19 S3 1_555 1_555
O25 Dy1_2 1_555 1_555

#END
