
#######################################################################
#
#                 Cambridge Crystallographic Data Centre
#                                CCDC 
#
#######################################################################
#
# If this CIF has been generated from an entry in the Cambridge 
# Structural Database, then it will include bibliographic, chemical, 
# crystal, experimental, refinement or atomic coordinate data resulting 
# from the CCDC's data processing and validation procedures.
#
#######################################################################

data_WENRIR
_symmetry_cell_setting           monoclinic
_symmetry_space_group_name_H-M   'P 21/n'
_symmetry_Int_Tables_number      14
_space_group_name_Hall           '-P 2yn'
loop_
_symmetry_equiv_pos_site_id
_symmetry_equiv_pos_as_xyz
1 x,y,z
2 1/2-x,1/2+y,1/2-z
3 -x,-y,-z
4 1/2+x,1/2-y,1/2+z
_cell_length_a                   8.6132(19)
_cell_length_b                   11.032(2)
_cell_length_c                   17.008(4)
_cell_angle_alpha                90
_cell_angle_beta                 98.393(3)
_cell_angle_gamma                90
_cell_volume                     1598.81
loop_
_atom_site_label
_atom_site_type_symbol
_atom_site_fract_x
_atom_site_fract_y
_atom_site_fract_z
Pb1 Pb 0.14320(5) 0.04554(3) 0.17669(2)
Pb2 Pb 0.07706(4) 0.40005(3) 0.12410(2)
O1 O 0.0586(8) 0.1839(5) 0.0569(4)
O2 O 0.2220(9) 0.0351(6) 0.0477(4)
C1 C 0.1370(12) 0.1204(7) 0.0161(6)
O3 O -0.3380(8) -0.0066(7) 0.4843(4)
O4 O -0.3338(9) -0.0249(6) 0.3560(4)
C2 C -0.2807(12) 0.0181(8) 0.4233(6)
C3 C -0.1434(11) 0.1050(8) 0.4289(6)
C4 C 0.0186(10) 0.2357(7) 0.3619(5)
C5 C -0.0987(11) 0.1479(8) 0.3587(6)
H1 H -0.1466 0.1182 0.3099
C6 C -0.0696(11) 0.1489(8) 0.5010(5)
H2 H -0.0995 0.1203 0.5480
C7 C 0.0901(12) 0.2802(8) 0.4352(5)
H3 H 0.1660 0.3406 0.4376
C8 C 0.0464(13) 0.2333(9) 0.5039(6)
H4 H 0.0970 0.2597 0.5530
O5 O 0.0026(8) 0.2392(5) 0.2199(4)
O6 O 0.1338(9) 0.3881(6) 0.2868(4)
C9 C 0.0552(10) 0.2899(8) 0.2854(5)
O7 O -0.1529(8) 0.3091(6) -0.3062(4)
O8 O -0.1723(8) 0.3948(5) -0.1899(4)
C10 C -0.1108(11) 0.3206(8) -0.2323(6)
C11 C 0.0102(11) 0.2352(8) -0.1916(5)
C12 C 0.1049(11) 0.1679(8) -0.2345(6)
H5 H 0.0964 0.1775 -0.2893
C13 C 0.0231(11) 0.2211(7) -0.1101(5)
H6 H -0.0397 0.2673 -0.0815
C14 C 0.2122(11) 0.0863(8) -0.1958(5)
H7 H 0.2766 0.0417 -0.2244
C15 C 0.2231(12) 0.0714(7) -0.1139(6)
H8 H 0.2942 0.0160 -0.0879
C16 C 0.1282(11) 0.1389(8) -0.0706(5)
Pb1A Pb 0.35680(5) 0.54554(3) 0.32331(2)
Pb1C Pb -0.35680(5) 0.45446(3) -0.32331(2)
Pb2C Pb -0.42294(4) 0.09995(3) 0.62410(2)
Pb2A Pb -0.57706(4) -0.09995(3) 0.37590(2)
Pb2B Pb -0.07706(4) 0.59995(3) -0.12410(2)
O3C O 0.1620(8) 0.5066(7) -0.0157(4)
O3A O -0.1620(8) 0.4934(7) 0.0157(4)
O4A O -0.1662(9) 0.4751(6) 0.1440(4)
O6A O 0.3662(9) -0.1119(6) 0.2132(4)
O7C O 0.3471(8) 0.1909(6) 0.1938(4)
O8C O 0.3277(8) 0.1052(5) 0.3101(4)
O8B O 0.1723(8) 0.6052(5) 0.1899(4)
loop_
_geom_bond_atom_site_label_1
_geom_bond_atom_site_label_2
_geom_bond_site_symmetry_1
_geom_bond_site_symmetry_2
Pb1 O1 1_555 1_555
Pb2 O1 1_555 1_555
O1 C1 1_555 1_555
O2 Pb1 1_555 1_555
C1 O2 1_555 1_555
O3 C2 1_555 1_555
O4 C2 1_555 1_555
C2 C3 1_555 1_555
C3 C5 1_555 1_555
C4 C5 1_555 1_555
C5 H1 1_555 1_555
C6 C3 1_555 1_555
H2 C6 1_555 1_555
C7 C4 1_555 1_555
H3 C7 1_555 1_555
C8 C6 1_555 1_555
H4 C8 1_555 1_555
O5 Pb1 1_555 1_555
O6 Pb2 1_555 1_555
C9 C4 1_555 1_555
O7 C10 1_555 1_555
O8 C10 1_555 1_555
C10 C11 1_555 1_555
C11 C12 1_555 1_555
C12 H5 1_555 1_555
C13 C11 1_555 1_555
H6 C13 1_555 1_555
C14 C12 1_555 1_555
H7 C14 1_555 1_555
C15 C14 1_555 1_555
H8 C15 1_555 1_555
C16 C1 1_555 1_555
Pb1A O6 1_555 1_555
Pb1C O7 1_555 1_555
Pb2C O3 1_555 1_555
Pb2A O3 1_555 1_555
Pb2B O8 1_555 1_555
O3C Pb2 1_555 1_555
O3A Pb2 1_555 1_555
O4A Pb2 1_555 1_555
O6A Pb1 1_555 1_555
O7C Pb1 1_555 1_555
O8C Pb1 1_555 1_555
O8B Pb2 1_555 1_555
Pb2 O5 1_555 1_555
O4 Pb2A 1_555 1_555
C7 C8 1_555 1_555
O5 C9 1_555 1_555
O6 C9 1_555 1_555
O8 Pb1C 1_555 1_555
C13 C16 1_555 1_555
C15 C16 1_555 1_555
Pb1A O8B 1_555 1_555
Pb2B O3C 1_555 1_555
Pb2B O3A 1_555 1_555

#END
