
#######################################################################
#
#                 Cambridge Crystallographic Data Centre
#                                CCDC 
#
#######################################################################
#
# If this CIF has been generated from an entry in the Cambridge 
# Structural Database, then it will include bibliographic, chemical, 
# crystal, experimental, refinement or atomic coordinate data resulting 
# from the CCDC's data processing and validation procedures.
#
#######################################################################

data_WENSIS
_symmetry_cell_setting           tetragonal
_symmetry_space_group_name_H-M   'I -4'
_symmetry_Int_Tables_number      82
_space_group_name_Hall           'I -4'
loop_
_symmetry_equiv_pos_site_id
_symmetry_equiv_pos_as_xyz
1 x,y,z
2 -x,-y,z
3 y,-x,-z
4 -y,x,-z
5 1/2+x,1/2+y,1/2+z
6 1/2-x,1/2-y,1/2+z
7 1/2+y,1/2-x,1/2-z
8 1/2-y,1/2+x,1/2-z
_cell_length_a                   11.3420(10)
_cell_length_b                   11.3420(10)
_cell_length_c                   8.9200(10)
_cell_angle_alpha                90
_cell_angle_beta                 90
_cell_angle_gamma                90
_cell_volume                     1147.48
loop_
_atom_site_label
_atom_site_type_symbol
_atom_site_fract_x
_atom_site_fract_y
_atom_site_fract_z
Zr1 Zr 1.0000 1.0000 0.0000
Ca1 Ca 0.5000 1.0000 0.2500
K1 K 1.0000 1.0000 0.5000
K2 K 0.5000 1.0000 -0.2500
O1 O 0.8908(2) 1.0048(2) 0.2084(3)
O2 O 0.8145(2) 0.9963(2) -0.0618(3)
O3 O 0.7077(2) 1.0040(2) 0.3035(3)
O4 O 0.6264(2) 0.9891(2) 0.0179(4)
O5 O 0.7946(3) 1.1433(3) 0.5421(3)
O6 O 0.6431(3) 1.2079(3) -0.2090(4)
C1 C 0.7799(3) 1.0019(3) 0.1995(4)
C2 C 0.7334(3) 0.9952(3) 0.0376(4)
H1 H 0.7353 1.1095 0.5028
H2 H 0.7824 1.1529 0.6354
H3 H 0.6474 1.2242 -0.1162
H4 H 0.6122 1.2654 -0.2557
Ca1_2 Ca 1.5000 1.0000 0.2500
Ca1B Ca 1.0000 1.5000 -0.2500
Ca1B_2 Ca 1.0000 0.5000 -0.2500
K1_2 K 1.0000 1.0000 -0.5000
K2_2 K 1.5000 1.0000 -0.2500
K2B K 1.0000 1.5000 0.2500
K2B_2 K 1.0000 0.5000 0.2500
O1A O 1.1092(2) 0.9952(2) 0.2084(3)
O1B O 1.0048(2) 1.1092(2) -0.2084(3)
O1C O 0.9952(2) 0.8908(2) -0.2084(3)
O1B_2 O 1.0048(2) 1.1092(2) 0.7916(3)
O1C_2 O 0.9952(2) 0.8908(2) 0.7916(3)
O2A O 1.1855(2) 1.0037(2) -0.0618(3)
O2B O 0.9963(2) 1.1855(2) 0.0618(3)
O2C O 1.0037(2) 0.8145(2) 0.0618(3)
O3A O 1.2923(2) 0.9960(2) 0.3035(3)
O3B O 1.0040(2) 1.2923(2) -0.3035(3)
O3C O 0.9960(2) 0.7077(2) -0.3035(3)
O3A_2 O 0.2923(2) 0.9960(2) 0.3035(3)
O3F O 0.5040(2) 0.7923(2) 0.1965(3)
O3G O 0.4960(2) 1.2077(2) 0.1965(3)
O4A O 1.3736(2) 1.0109(2) 0.0179(4)
O4B O 0.9891(2) 1.3736(2) -0.0179(4)
O4C O 1.0109(2) 0.6264(2) -0.0179(4)
O4A_2 O 0.3736(2) 1.0109(2) 0.0179(4)
O4F O 0.4891(2) 0.8736(2) 0.4821(4)
O4G O 0.5109(2) 1.1264(2) 0.4821(4)
O4F_2 O 0.4891(2) 0.8736(2) -0.5179(4)
O4G_2 O 0.5109(2) 1.1264(2) -0.5179(4)
O5A O 1.2054(3) 0.8567(3) 0.5421(3)
O5B O 1.1433(3) 1.2054(3) 0.4579(3)
O5C O 0.8567(3) 0.7946(3) 0.4579(3)
O6A O 0.3569(3) 0.7921(3) -0.2090(4)
O6F O 0.7079(3) 0.8569(3) -0.2910(4)
O6G O 0.2921(3) 1.1431(3) -0.2910(4)
C1A C 1.2201(3) 0.9981(3) 0.1995(4)
C1B C 1.0019(3) 1.2201(3) -0.1995(4)
C1C C 0.9981(3) 0.7799(3) -0.1995(4)
C2A C 1.2666(3) 1.0048(3) 0.0376(4)
C2B C 0.9952(3) 1.2666(3) -0.0376(4)
C2C C 1.0048(3) 0.7334(3) -0.0376(4)
H1A H 1.2647 0.8905 0.5028
H1B H 1.1095 1.2647 0.4972
H1C H 0.8905 0.7353 0.4972
H2A H 1.2176 0.8471 0.6354
H2B H 1.1529 1.2176 0.3646
H2C H 0.8471 0.7824 0.3646
H3A H 0.3526 0.7758 -0.1162
H3F H 0.7242 0.8526 -0.3838
H3G H 0.2758 1.1474 -0.3838
H4A H 0.3878 0.7346 -0.2557
H4F H 0.7654 0.8878 -0.2443
H4G H 0.2346 1.1122 -0.2443
loop_
_geom_bond_atom_site_label_1
_geom_bond_atom_site_label_2
_geom_bond_site_symmetry_1
_geom_bond_site_symmetry_2
Zr1 O1 1_555 1_555
Ca1 O3 1_555 1_555
K1 O1 1_555 1_555
K2 O4 1_555 1_555
O1 C1 1_555 1_555
O2 Zr1 1_555 1_555
O3 C1 1_555 1_555
O4 Ca1 1_555 1_555
O5 K1 1_555 1_555
O6 K2 1_555 1_555
C1 C2 1_555 1_555
C2 O2 1_555 1_555
H1 O5 1_555 1_555
H2 O5 1_555 1_555
H3 O6 1_555 1_555
H4 O6 1_555 1_555
Ca1_2 O3A 1_555 1_555
Ca1B O3B 1_555 1_555
Ca1B_2 O3C 1_555 1_555
K1_2 O1B 1_555 1_555
K2_2 O4A 1_555 1_555
K2B O4B 1_555 1_555
K2B_2 O4C 1_555 1_555
O1A Zr1 1_555 1_555
O1B Zr1 1_555 1_555
O1C Zr1 1_555 1_555
O1B_2 K1 1_555 1_555
O1C_2 K1 1_555 1_555
O2A Zr1 1_555 1_555
O2B Zr1 1_555 1_555
O2C Zr1 1_555 1_555
O3A C1A 1_555 1_555
O3B C1B 1_555 1_555
O3C C1C 1_555 1_555
O3A_2 Ca1 1_555 1_555
O3F Ca1 1_555 1_555
O3G Ca1 1_555 1_555
O4A Ca1_2 1_555 1_555
O4B Ca1B 1_555 1_555
O4C Ca1B_2 1_555 1_555
O4A_2 Ca1 1_555 1_555
O4F Ca1 1_555 1_555
O4G Ca1 1_555 1_555
O4F_2 K2 1_555 1_555
O4G_2 K2 1_555 1_555
O5A K1 1_555 1_555
O5B K1 1_555 1_555
O5C K1 1_555 1_555
O6A K2 1_555 1_555
O6F K2 1_555 1_555
O6G K2 1_555 1_555
C1A O1A 1_555 1_555
C1B O1B 1_555 1_555
C1C O1C 1_555 1_555
C2A O2A 1_555 1_555
C2B O2B 1_555 1_555
C2C O2C 1_555 1_555
H1A O5A 1_555 1_555
H1B O5B 1_555 1_555
H1C O5C 1_555 1_555
H2A O5A 1_555 1_555
H2B O5B 1_555 1_555
H2C O5C 1_555 1_555
H3A O6A 1_555 1_555
H3F O6F 1_555 1_555
H3G O6G 1_555 1_555
H4A O6A 1_555 1_555
H4F O6F 1_555 1_555
H4G O6G 1_555 1_555
K1 O1A 1_555 1_555
K2 O4A_2 1_555 1_555
O4 C2 1_555 1_555
K1_2 O1C 1_555 1_555
O4A C2A 1_555 1_555
O4B C2B 1_555 1_555
O4C C2C 1_555 1_555
C1A C2A 1_555 1_555
C1B C2B 1_555 1_555
C1C C2C 1_555 1_555

#END
