
#######################################################################
#
#                 Cambridge Crystallographic Data Centre
#                                CCDC 
#
#######################################################################
#
# If this CIF has been generated from an entry in the Cambridge 
# Structural Database, then it will include bibliographic, chemical, 
# crystal, experimental, refinement or atomic coordinate data resulting 
# from the CCDC's data processing and validation procedures.
#
#######################################################################

data_WENSEO
_symmetry_cell_setting           monoclinic
_symmetry_space_group_name_H-M   'C 2/c'
_symmetry_Int_Tables_number      15
_space_group_name_Hall           '-C 2yn'
loop_
_symmetry_equiv_pos_site_id
_symmetry_equiv_pos_as_xyz
1 x,y,z
2 1/2+x,1/2+y,z
3 -x,y,1/2-z
4 1/2-x,1/2+y,1/2-z
5 -x,-y,-z
6 1/2-x,1/2-y,-z
7 x,-y,1/2+z
8 1/2+x,1/2-y,1/2+z
_cell_length_a                   21.848(8)
_cell_length_b                   11.057(5)
_cell_length_c                   14.806(6)
_cell_angle_alpha                90
_cell_angle_beta                 90.288(15)
_cell_angle_gamma                90
_cell_volume                     3576.69
loop_
_atom_site_label
_atom_site_type_symbol
_atom_site_fract_x
_atom_site_fract_y
_atom_site_fract_z
Zn1 Zn 0.399878(7) 0.197417(14) 0.246520(10)
C1 C 0.41583(7) -0.07719(13) 0.26650(10)
C2 C 0.39901(9) -0.09311(17) 0.35638(12)
H1 H 0.3901 -0.0276 0.3935
C3 C 0.39612(11) -0.21046(19) 0.38785(15)
H2 H 0.3854 -0.2247 0.4476
C4 C 0.40910(12) -0.30870(18) 0.33105(17)
H3 H 0.4062 -0.3866 0.3543
C5 C 0.42588(10) -0.29412(15) 0.24251(15)
H4 H 0.4343 -0.3599 0.2055
C6 C 0.42964(7) -0.17545(14) 0.21100(12)
C7 C 0.44160(7) -0.00630(14) 0.13624(10)
H5 H 0.4502 0.0469 0.0893
C8 C 0.28554(7) 0.28454(15) 0.34248(11)
C9 C 0.30566(8) 0.40068(16) 0.36243(12)
H6 H 0.3427 0.4298 0.3408
C10 C 0.26820(10) 0.4711(2) 0.41576(14)
H7 H 0.2803 0.5493 0.4306
C11 C 0.21223(10) 0.4268(2) 0.44796(14)
H8 H 0.1881 0.4766 0.4837
C12 C 0.19208(9) 0.3124(2) 0.42849(13)
H9 H 0.1552 0.2833 0.4507
C13 C 0.22941(7) 0.24183(18) 0.37389(11)
C14 C 0.27538(8) 0.10072(16) 0.29508(12)
H10 H 0.2829 0.0269 0.2672
C15 C 0.46011(6) 0.28234(13) 0.40632(9)
C16 C 0.48425(6) 0.39205(12) 0.45589(9)
C17 C 0.54219(6) 0.44254(12) 0.44302(9)
C18 C 0.58985(6) 0.38366(13) 0.38390(9)
C19 C 0.44305(6) 0.45016(12) 0.51292(9)
H11 H 0.4046 0.4162 0.5218
N1 N 0.42350(6) 0.02881(11) 0.21688(8)
N2 N 0.44627(6) -0.12634(12) 0.12898(9)
H12 H 0.4576 -0.1658 0.0819
N3 N 0.31392(6) 0.19282(12) 0.29319(9)
N4 N 0.22446(7) 0.12502(15) 0.34136(10)
H13 H 0.1941 0.0767 0.3494
O1 O 0.44798(5) 0.30165(10) 0.32395(7)
O2 O 0.44948(6) 0.18816(10) 0.44833(8)
O3 O 0.58239(5) 0.27092(9) 0.37052(7)
O4 O 0.63210(6) 0.44538(11) 0.35329(9)
Zn1D Zn 0.600122(7) 0.802583(14) 0.753480(10)
Zn1B Zn 0.600122(7) 0.197417(14) 0.253480(10)
Zn1F Zn 0.399878(7) 0.802583(14) 0.746520(10)
C1D C 0.58417(7) 1.07719(13) 0.73350(10)
C2D C 0.60099(9) 1.09311(17) 0.64362(12)
H1D H 0.6099 1.0276 0.6065
C3D C 0.60388(11) 1.21046(19) 0.61215(15)
H2D H 0.6146 1.2247 0.5524
C4D C 0.59090(12) 1.30870(18) 0.66895(17)
H3D H 0.5938 1.3866 0.6457
C5D C 0.57412(10) 1.29412(15) 0.75749(15)
H4D H 0.5657 1.3599 0.7945
C6D C 0.57036(7) 1.17545(14) 0.78900(12)
C7D C 0.55840(7) 1.00630(14) 0.86376(10)
H5D H 0.5498 0.9531 0.9107
C8D C 0.71446(7) 0.71546(15) 0.65752(11)
C9D C 0.69434(8) 0.59932(16) 0.63757(12)
H6D H 0.6573 0.5702 0.6592
C10D C 0.73180(10) 0.5289(2) 0.58424(14)
H7D H 0.7197 0.4507 0.5694
C11D C 0.78777(10) 0.5732(2) 0.55204(14)
H8D H 0.8119 0.5234 0.5163
C12D C 0.80792(9) 0.6876(2) 0.57151(13)
H9D H 0.8448 0.7167 0.5493
C13D C 0.77059(7) 0.75817(18) 0.62611(11)
C14D C 0.72462(8) 0.89928(16) 0.70492(12)
H10D H 0.7171 0.9731 0.7328
C15D C 0.53989(6) 0.71766(13) 0.59368(9)
C16D C 0.51575(6) 0.60795(12) 0.54411(9)
C17D C 0.45781(6) 0.55746(12) 0.55698(9)
C18D C 0.41015(6) 0.61634(13) 0.61610(9)
C19D C 0.55695(6) 0.54984(12) 0.48708(9)
H11D H 0.5954 0.5838 0.4782
N1D N 0.57650(6) 0.97119(11) 0.78312(8)
N2D N 0.55373(6) 1.12634(12) 0.87102(9)
H12D H 0.5424 1.1658 0.9181
N3D N 0.68608(6) 0.80718(12) 0.70681(9)
N4D N 0.77554(7) 0.87498(15) 0.65864(10)
H13D H 0.8059 0.9233 0.6506
O1D O 0.55202(5) 0.69835(10) 0.67605(7)
O2D O 0.55052(6) 0.81184(10) 0.55167(8)
O3D O 0.41761(5) 0.72908(9) 0.62948(7)
O3B O 0.41761(5) 0.27092(9) 0.12948(7)
O3F O 0.58239(5) 0.72908(9) 0.87052(7)
O4D O 0.36790(6) 0.55462(11) 0.64671(9)
O5 O 0.2567(4) 0.3070(7) 0.0931(6)
loop_
_geom_bond_atom_site_label_1
_geom_bond_atom_site_label_2
_geom_bond_site_symmetry_1
_geom_bond_site_symmetry_2
Zn1 N1 1_555 1_555
C1 C2 1_555 1_555
C2 H1 1_555 1_555
C3 C2 1_555 1_555
H2 C3 1_555 1_555
C4 C3 1_555 1_555
H3 C4 1_555 1_555
C5 C4 1_555 1_555
H4 C5 1_555 1_555
C6 C1 1_555 1_555
C7 H5 1_555 1_555
C8 C9 1_555 1_555
C9 H6 1_555 1_555
C10 C9 1_555 1_555
H7 C10 1_555 1_555
C11 C10 1_555 1_555
H8 C11 1_555 1_555
C12 C11 1_555 1_555
H9 C12 1_555 1_555
C13 C8 1_555 1_555
C14 H10 1_555 1_555
C15 C16 1_555 1_555
C16 C17 1_555 1_555
C17 C18 1_555 1_555
C18 O3 1_555 1_555
C19 C16 1_555 1_555
H11 C19 1_555 1_555
N1 C1 1_555 1_555
N2 C6 1_555 1_555
H12 N2 1_555 1_555
N3 Zn1 1_555 1_555
N4 C13 1_555 1_555
H13 N4 1_555 1_555
O1 Zn1 1_555 1_555
O2 C15 1_555 1_555
O3 Zn1B 1_555 1_555
O4 C18 1_555 1_555
Zn1D N1D 1_555 1_555
Zn1F O3D 1_555 1_555
C1D C2D 1_555 1_555
C2D H1D 1_555 1_555
C3D C2D 1_555 1_555
H2D C3D 1_555 1_555
C4D C3D 1_555 1_555
H3D C4D 1_555 1_555
C5D C4D 1_555 1_555
H4D C5D 1_555 1_555
C6D C1D 1_555 1_555
C7D H5D 1_555 1_555
C8D C9D 1_555 1_555
C9D H6D 1_555 1_555
C10D C9D 1_555 1_555
H7D C10D 1_555 1_555
C11D C10D 1_555 1_555
H8D C11D 1_555 1_555
C12D C11D 1_555 1_555
H9D C12D 1_555 1_555
C13D C8D 1_555 1_555
C14D H10D 1_555 1_555
C15D C16D 1_555 1_555
C16D C17D 1_555 1_555
C17D C19 1_555 1_555
C18D C17D 1_555 1_555
C19D C17 1_555 1_555
H11D C19D 1_555 1_555
N1D C1D 1_555 1_555
N2D C6D 1_555 1_555
H12D N2D 1_555 1_555
N3D Zn1D 1_555 1_555
N4D C13D 1_555 1_555
H13D N4D 1_555 1_555
O1D Zn1D 1_555 1_555
O2D C15D 1_555 1_555
O3D C18D 1_555 1_555
O3B Zn1 1_555 1_555
O3F Zn1D 1_555 1_555
O4D C18D 1_555 1_555
C5 C6 1_555 1_555
C7 N1 1_555 1_555
C7 N2 1_555 1_555
C8 N3 1_555 1_555
C12 C13 1_555 1_555
C14 N3 1_555 1_555
C14 N4 1_555 1_555
C15 O1 1_555 1_555
C5D C6D 1_555 1_555
C7D N1D 1_555 1_555
C7D N2D 1_555 1_555
C8D N3D 1_555 1_555
C12D C13D 1_555 1_555
C14D N3D 1_555 1_555
C14D N4D 1_555 1_555
C15D O1D 1_555 1_555
C16D C19D 1_555 1_555

#END
