
#######################################################################
#
#                 Cambridge Crystallographic Data Centre
#                                CCDC 
#
#######################################################################
#
# If this CIF has been generated from an entry in the Cambridge 
# Structural Database, then it will include bibliographic, chemical, 
# crystal, experimental, refinement or atomic coordinate data resulting 
# from the CCDC's data processing and validation procedures.
#
#######################################################################

data_WENWUI
_symmetry_cell_setting           monoclinic
_symmetry_space_group_name_H-M   'C 2/c'
_symmetry_Int_Tables_number      15
_space_group_name_Hall           '-C 2yn'
loop_
_symmetry_equiv_pos_site_id
_symmetry_equiv_pos_as_xyz
1 x,y,z
2 1/2+x,1/2+y,z
3 -x,y,1/2-z
4 1/2-x,1/2+y,1/2-z
5 -x,-y,-z
6 1/2-x,1/2-y,-z
7 x,-y,1/2+z
8 1/2+x,1/2-y,1/2+z
_cell_length_a                   16.846(3)
_cell_length_b                   15.932(3)
_cell_length_c                   17.398(4)
_cell_angle_alpha                90
_cell_angle_beta                 108.38(3)
_cell_angle_gamma                90
_cell_volume                     4431.25
loop_
_atom_site_label
_atom_site_type_symbol
_atom_site_fract_x
_atom_site_fract_y
_atom_site_fract_z
C1 C 0.18393(17) 0.10347(16) 0.60230(16)
C2 C 0.20464(15) 0.07493(16) 0.52837(15)
C3 C 0.27882(17) 0.10059(18) 0.51666(17)
H1 H 0.3166 0.1336 0.5554
C4 C 0.29625(18) 0.0768(2) 0.44734(19)
H2 H 0.3458 0.0944 0.4394
C5 C 0.24092(17) 0.02733(17) 0.38957(17)
H3 H 0.2531 0.0118 0.3430
C6 C 0.16713(16) 0.00081(15) 0.40131(15)
C7 C 0.14941(16) 0.02538(15) 0.47046(14)
H4 H 0.0996 0.0083 0.4781
C8 C 0.10589(17) -0.05247(16) 0.33863(15)
C9 C 0.20489(19) 0.24880(18) 0.80253(18)
H5 H 0.2286 0.1970 0.8215
C10 C 0.2463(2) 0.32118(19) 0.83757(19)
H6 H 0.2968 0.3175 0.8793
C11 C 0.21294(19) 0.39779(18) 0.81091(18)
H7 H 0.2400 0.4466 0.8347
C12 C 0.13729(17) 0.40218(17) 0.74718(16)
C13 C 0.09911(16) 0.32561(16) 0.71443(16)
C14 C 0.02148(17) 0.32513(17) 0.64740(16)
C15 C -0.08199(19) 0.2452(2) 0.56149(19)
H8 H -0.1049 0.1928 0.5437
C16 C -0.1241(2) 0.3164(2) 0.5231(2)
H9 H -0.1741 0.3114 0.4808
C17 C -0.0914(2) 0.3936(2) 0.5481(2)
H10 H -0.1184 0.4417 0.5226
C18 C -0.01664(17) 0.39986(17) 0.61251(17)
C19 C 0.02313(17) 0.47690(17) 0.64560(18)
C20 C 0.09587(17) 0.47701(16) 0.71043(17)
C21 C 0.05446(18) 0.60551(17) 0.67241(18)
C22 C 0.05414(18) 0.69748(17) 0.67039(18)
C23 C 0.0983(2) 0.74469(19) 0.7372(2)
H11 H 0.1299 0.7180 0.7845
C24 C 0.0952(2) 0.8313(2) 0.7334(2)
H12 H 0.1237 0.8628 0.7788
C25 C 0.0503(2) 0.8712(2) 0.6629(2)
H13 H 0.0496 0.9295 0.6602
C26 C 0.0066(2) 0.8250(2) 0.5968(2)
H14 H -0.0239 0.8519 0.5492
C27 C 0.0079(2) 0.73833(19) 0.60048(19)
H15 H -0.0227 0.7073 0.5556
N1 N -0.01129(14) 0.24840(14) 0.62177(14)
N2 N 0.13244(14) 0.25063(13) 0.74276(13)
N3 N 0.11511(15) 0.55999(13) 0.72731(14)
H16 H 0.1572 0.5796 0.7651
N4 N -0.00190(15) 0.55771(14) 0.62161(15)
O1 O 0.10636(12) 0.10485(12) 0.59466(11)
O2 O 0.24013(12) 0.12282(13) 0.66459(11)
O3 O 0.04130(13) -0.07486(12) 0.35351(12)
O4 O 0.12472(13) -0.06948(12) 0.27606(12)
Zn1 Zn 0.06563(2) 0.143258(18) 0.681927(18)
O3D O -0.04130(13) 0.07486(12) 0.64649(12)
O4F O 0.12472(13) 0.06948(12) 0.77606(12)
Zn1D Zn -0.06563(2) -0.143258(18) 0.318073(18)
Zn1F Zn 0.06563(2) -0.143258(18) 0.181927(18)
loop_
_geom_bond_atom_site_label_1
_geom_bond_atom_site_label_2
_geom_bond_site_symmetry_1
_geom_bond_site_symmetry_2
C1 C2 1_555 1_555
C2 C3 1_555 1_555
C3 H1 1_555 1_555
C4 C3 1_555 1_555
H2 C4 1_555 1_555
C5 C4 1_555 1_555
H3 C5 1_555 1_555
C6 C5 1_555 1_555
C7 C2 1_555 1_555
H4 C7 1_555 1_555
C8 C6 1_555 1_555
C9 H5 1_555 1_555
C10 C9 1_555 1_555
H6 C10 1_555 1_555
C11 C10 1_555 1_555
H7 C11 1_555 1_555
C12 C11 1_555 1_555
C13 C12 1_555 1_555
C14 C13 1_555 1_555
C15 H8 1_555 1_555
C16 C15 1_555 1_555
H9 C16 1_555 1_555
C17 C16 1_555 1_555
H10 C17 1_555 1_555
C18 C14 1_555 1_555
C19 C18 1_555 1_555
C20 C12 1_555 1_555
C21 C22 1_555 1_555
C22 C23 1_555 1_555
C23 H11 1_555 1_555
C24 C23 1_555 1_555
H12 C24 1_555 1_555
C25 C24 1_555 1_555
H13 C25 1_555 1_555
C26 C25 1_555 1_555
H14 C26 1_555 1_555
C27 C22 1_555 1_555
H15 C27 1_555 1_555
N1 C14 1_555 1_555
N2 C9 1_555 1_555
N3 C20 1_555 1_555
H16 N3 1_555 1_555
N4 C19 1_555 1_555
O1 C1 1_555 1_555
O2 C1 1_555 1_555
O3 C8 1_555 1_555
O4 C8 1_555 1_555
Zn1 N1 1_555 1_555
O3D Zn1 1_555 1_555
O4F Zn1 1_555 1_555
Zn1D O3 1_555 1_555
Zn1F O4 1_555 1_555
C6 C7 1_555 1_555
C13 N2 1_555 1_555
C15 N1 1_555 1_555
C17 C18 1_555 1_555
C19 C20 1_555 1_555
C21 N3 1_555 1_555
C21 N4 1_555 1_555
C26 C27 1_555 1_555
N2 Zn1 1_555 1_555
O1 Zn1 1_555 1_555

#END
