
#######################################################################
#
#                 Cambridge Crystallographic Data Centre
#                                CCDC 
#
#######################################################################
#
# If this CIF has been generated from an entry in the Cambridge 
# Structural Database, then it will include bibliographic, chemical, 
# crystal, experimental, refinement or atomic coordinate data resulting 
# from the CCDC's data processing and validation procedures.
#
#######################################################################

data_WEPCEA
_symmetry_cell_setting           monoclinic
_symmetry_space_group_name_H-M   'P 21/n'
_symmetry_Int_Tables_number      14
_space_group_name_Hall           '-P 2yn'
loop_
_symmetry_equiv_pos_site_id
_symmetry_equiv_pos_as_xyz
1 x,y,z
2 1/2-x,1/2+y,1/2-z
3 -x,-y,-z
4 1/2+x,1/2-y,1/2+z
_cell_length_a                   7.3160(15)
_cell_length_b                   8.1710(16)
_cell_length_c                   13.051(3)
_cell_angle_alpha                90
_cell_angle_beta                 95.14(3)
_cell_angle_gamma                90
_cell_volume                     777.039
loop_
_atom_site_label
_atom_site_type_symbol
_atom_site_fract_x
_atom_site_fract_y
_atom_site_fract_z
Ag1 Ag -0.45585(4) -0.52833(3) 0.10776(2)
O1 O -0.3223(4) -0.5591(3) 0.29145(18)
C1 C -0.3161(4) -0.4667(4) 0.3782(2)
C2 C -0.3840(4) -0.3088(4) 0.3709(2)
H1 H -0.4313 -0.2681 0.3074
C3 C -0.3821(4) -0.2111(4) 0.4574(2)
H2 H -0.4267 -0.1045 0.4526
C4 C -0.3129(4) -0.2744(4) 0.5515(2)
C5 C -0.2452(4) -0.4308(4) 0.5601(2)
H3 H -0.1987 -0.4704 0.6239
C6 C -0.2457(4) -0.5304(3) 0.4735(2)
Br1 Br -0.31373(6) -0.14358(5) 0.67212(3)
C7 C -0.1698(4) -0.6999(4) 0.4846(2)
O2 O -0.1759(3) -0.7862(3) 0.40270(17)
O3 O -0.1050(3) -0.7453(3) 0.57081(17)
H4 H -0.285(7) -0.660(3) 0.309(4)
Ag1A Ag -0.04415(4) -1.02833(3) 0.39224(2)
Ag1C Ag 0.04415(4) -0.97167(3) 0.60776(2)
O2A O -0.3241(3) -0.2862(3) 0.09730(17)
O3C O -0.6050(3) -0.7547(3) 0.07081(17)
loop_
_geom_bond_atom_site_label_1
_geom_bond_atom_site_label_2
_geom_bond_site_symmetry_1
_geom_bond_site_symmetry_2
Ag1 O1 1_555 1_555
O1 C1 1_555 1_555
C1 C2 1_555 1_555
C2 H1 1_555 1_555
C3 C2 1_555 1_555
H2 C3 1_555 1_555
C4 C3 1_555 1_555
C5 C4 1_555 1_555
H3 C5 1_555 1_555
C6 C1 1_555 1_555
Br1 C4 1_555 1_555
C7 C6 1_555 1_555
O2 C7 1_555 1_555
O3 C7 1_555 1_555
H4 O1 1_555 1_555
Ag1A O2 1_555 1_555
Ag1C O3 1_555 1_555
O2A Ag1 1_555 1_555
O3C Ag1 1_555 1_555
C5 C6 1_555 1_555

#END
