
#######################################################################
#
#                 Cambridge Crystallographic Data Centre
#                                CCDC 
#
#######################################################################
#
# If this CIF has been generated from an entry in the Cambridge 
# Structural Database, then it will include bibliographic, chemical, 
# crystal, experimental, refinement or atomic coordinate data resulting 
# from the CCDC's data processing and validation procedures.
#
#######################################################################

data_WEPREP
_symmetry_cell_setting           monoclinic
_symmetry_space_group_name_H-M   'P 21/c'
_symmetry_Int_Tables_number      14
_space_group_name_Hall           '-P 2ybc'
loop_
_symmetry_equiv_pos_site_id
_symmetry_equiv_pos_as_xyz
1 x,y,z
2 -x,1/2+y,1/2-z
3 -x,-y,-z
4 x,1/2-y,1/2+z
_cell_length_a                   13.8014(4)
_cell_length_b                   8.9030(4)
_cell_length_c                   21.1399(9)
_cell_angle_alpha                90
_cell_angle_beta                 91.675(3)
_cell_angle_gamma                90
_cell_volume                     2596.43
loop_
_atom_site_label
_atom_site_type_symbol
_atom_site_fract_x
_atom_site_fract_y
_atom_site_fract_z
Zn1 Zn 0.5000 0.5000 0.5000
C1 C 0.50651(18) 0.7233(3) 0.61000(12)
C2 C 0.55096(19) 0.8623(3) 0.63019(13)
H1 H 0.5421 0.9116 0.6695
C3 C 0.60761(19) 0.9098(3) 0.58306(13)
H2 H 0.6458 0.9986 0.5829
C4 C 0.59897(18) 0.8000(3) 0.53307(12)
C5 C 0.64958(18) 0.8049(3) 0.47596(12)
C6 C 0.64447(18) 0.6959(3) 0.42805(12)
C7 C 0.69243(19) 0.7061(3) 0.36823(13)
H3 H 0.7334 0.7851 0.3550
C8 C 0.66763(19) 0.5813(3) 0.33466(13)
H4 H 0.6885 0.5561 0.2936
C9 C 0.60354(17) 0.4940(3) 0.37303(11)
C10 C 0.44091(18) 0.6412(3) 0.64539(12)
N1 N 0.53677(14) 0.6880(2) 0.55030(10)
N2 N 0.59107(15) 0.5663(2) 0.42966(10)
C11 C 0.71720(18) 0.9338(3) 0.46742(12)
C12 C 0.81698(19) 0.9071(3) 0.46342(13)
H5 H 0.8412 0.8075 0.4673
C13 C 0.88033(18) 1.0248(3) 0.45392(12)
H6 H 0.9478 1.0055 0.4514
C14 C 0.84606(18) 1.1710(3) 0.44803(12)
C15 C 0.74705(18) 1.1991(3) 0.45322(12)
H7 H 0.7231 1.2989 0.4499
C16 C 0.68365(19) 1.0811(3) 0.46330(12)
H8 H 0.6165 1.1011 0.4674
C17 C 0.91657(19) 1.2924(3) 0.43530(13)
O1 O 1.00352(14) 1.2801(2) 0.44232(11)
O2 O 0.87361(13) 1.4178(2) 0.41391(10)
C18 C 0.9374(2) 1.5408(3) 0.39855(17)
H9 H 0.9691 1.5788 0.4374
H10 H 0.8995 1.6215 0.3782
H11 H 0.9866 1.5052 0.3696
C19 C 0.41405(18) 0.7077(3) 0.70793(12)
C20 C 0.3332(2) 0.8015(4) 0.71085(13)
H12 H 0.2958 0.8221 0.6734
C21 C 0.3072(2) 0.8647(4) 0.76758(13)
H13 H 0.2527 0.9297 0.7689
C22 C 0.36069(18) 0.8334(3) 0.82289(12)
C23 C 0.44149(19) 0.7410(3) 0.82013(12)
H14 H 0.4784 0.7191 0.8576
C24 C 0.46845(19) 0.6805(3) 0.76285(12)
H15 H 0.5249 0.6197 0.7612
C25 C 0.33100(18) 0.8914(3) 0.88544(12)
O3 O 0.37117(13) 0.8595(2) 0.93535(8)
O4 O 0.25231(13) 0.9793(2) 0.88022(8)
C26 C 0.2123(2) 1.0283(4) 0.93925(13)
H16 H 0.2644 1.0676 0.9671
H17 H 0.1642 1.1073 0.9308
H18 H 0.1812 0.9431 0.9599
Zn1C Zn 0.5000 1.0000 1.0000
Zn1C_2 Zn 0.5000 0.0000 0.0000
C1B C 0.49349(18) 0.2767(3) 0.39000(12)
C2B C 0.44904(19) 0.1377(3) 0.36981(13)
H1B H 0.4579 0.0884 0.3305
C3B C 0.39239(19) 0.0902(3) 0.41694(13)
H2B H 0.3542 0.0014 0.4171
C4B C 0.40103(18) 0.2000(3) 0.46693(12)
C5B C 0.35042(18) 0.1951(3) 0.52404(12)
C6B C 0.35553(18) 0.3041(3) 0.57195(12)
C7B C 0.30757(19) 0.2939(3) 0.63177(13)
H3B H 0.2666 0.2149 0.6450
C8B C 0.33237(19) 0.4187(3) 0.66534(13)
H4B H 0.3115 0.4439 0.7064
C9B C 0.39646(17) 0.5060(3) 0.62697(11)
C10B C 0.55909(18) 0.3588(3) 0.35461(12)
N1B N 0.46323(14) 0.3120(2) 0.44970(10)
N2B N 0.40893(15) 0.4337(2) 0.57034(10)
C11B C 0.28280(18) 0.0662(3) 0.53258(12)
C12B C 0.18302(19) 0.0929(3) 0.53658(13)
H5B H 0.1588 0.1925 0.5327
C13B C 0.11967(18) -0.0248(3) 0.54608(12)
H6B H 0.0522 -0.0055 0.5486
C14B C 0.15394(18) -0.1710(3) 0.55197(12)
C15B C 0.25295(18) -0.1991(3) 0.54678(12)
H7B H 0.2769 -0.2989 0.5501
C16B C 0.31635(19) -0.0811(3) 0.53670(12)
H8B H 0.3835 -0.1011 0.5326
C17B C 0.08343(19) -0.2924(3) 0.56470(13)
O1B O -0.00352(14) -0.2801(2) 0.55768(11)
O2B O 0.12639(13) -0.4178(2) 0.58609(10)
C18B C 0.0626(2) -0.5408(3) 0.60145(17)
H9B H 0.0309 -0.5788 0.5626
H10B H 0.1005 -0.6215 0.6218
H11B H 0.0134 -0.5052 0.6304
C19B C 0.58595(18) 0.2923(3) 0.29207(12)
C20B C 0.6668(2) 0.1985(4) 0.28915(13)
H12B H 0.7042 0.1779 0.3266
C21B C 0.6928(2) 0.1353(4) 0.23242(13)
H13B H 0.7473 0.0703 0.2311
C22B C 0.63931(18) 0.1666(3) 0.17711(12)
C23B C 0.55851(19) 0.2590(3) 0.17987(12)
H14B H 0.5216 0.2809 0.1424
C24B C 0.53155(19) 0.3195(3) 0.23715(12)
H15B H 0.4751 0.3803 0.2388
C25B C 0.66900(18) 0.1086(3) 0.11456(12)
O3B O 0.62883(13) 0.1405(2) 0.06465(8)
O3C O 0.37117(13) 0.6405(2) 0.43535(8)
O3A O 0.62883(13) 0.3595(2) 0.56465(8)
O4B O 0.74769(13) 0.0207(2) 0.11978(8)
C26B C 0.7877(2) -0.0283(4) 0.06075(13)
H16B H 0.7356 -0.0676 0.0329
H17B H 0.8358 -0.1073 0.0692
H18B H 0.8188 0.0569 0.0401
O5 O 1.0124(2) 0.3466(3) 0.16201(13)
C27 C 0.9438(3) 0.4405(5) 0.16349(16)
C28 C 0.8486(3) 0.4059(5) 0.1322(2)
H19 H 0.8517 0.3074 0.1117
H20 H 0.8331 0.4829 0.1004
H21 H 0.7983 0.4046 0.1639
N3 N 0.9567(2) 0.5682(4) 0.19365(15)
C29 C 1.0521(2) 0.6100(5) 0.22035(19)
H22 H 1.0989 0.5304 0.2116
H23 H 1.0479 0.6234 0.2662
H24 H 1.0733 0.7041 0.2011
C30 C 0.8806(3) 0.6828(5) 0.1978(2)
H25 H 0.8951 0.7666 0.1696
H26 H 0.8782 0.7195 0.2415
H27 H 0.8179 0.6388 0.1853
loop_
_geom_bond_atom_site_label_1
_geom_bond_atom_site_label_2
_geom_bond_site_symmetry_1
_geom_bond_site_symmetry_2
Zn1 N1 1_555 1_555
C1 C2 1_555 1_555
C2 H1 1_555 1_555
C3 C2 1_555 1_555
H2 C3 1_555 1_555
C4 C3 1_555 1_555
C5 C4 1_555 1_555
C6 C5 1_555 1_555
C7 C6 1_555 1_555
H3 C7 1_555 1_555
C8 C7 1_555 1_555
H4 C8 1_555 1_555
C9 C8 1_555 1_555
C10 C1 1_555 1_555
N1 C1 1_555 1_555
N2 Zn1 1_555 1_555
C11 C5 1_555 1_555
C12 C11 1_555 1_555
H5 C12 1_555 1_555
C13 C12 1_555 1_555
H6 C13 1_555 1_555
C14 C13 1_555 1_555
C15 C14 1_555 1_555
H7 C15 1_555 1_555
C16 C11 1_555 1_555
H8 C16 1_555 1_555
C17 C14 1_555 1_555
O1 C17 1_555 1_555
O2 C17 1_555 1_555
C18 O2 1_555 1_555
H9 C18 1_555 1_555
H10 C18 1_555 1_555
H11 C18 1_555 1_555
C19 C10 1_555 1_555
C20 C19 1_555 1_555
H12 C20 1_555 1_555
C21 C20 1_555 1_555
H13 C21 1_555 1_555
C22 C21 1_555 1_555
C23 C22 1_555 1_555
H14 C23 1_555 1_555
C24 C19 1_555 1_555
H15 C24 1_555 1_555
C25 C22 1_555 1_555
O3 C25 1_555 1_555
O4 C25 1_555 1_555
C26 O4 1_555 1_555
H16 C26 1_555 1_555
H17 C26 1_555 1_555
H18 C26 1_555 1_555
O5 C27 1_555 1_555
C27 C28 1_555 1_555
C28 H19 1_555 1_555
H20 C28 1_555 1_555
H21 C28 1_555 1_555
N3 C27 1_555 1_555
C29 N3 1_555 1_555
H22 C29 1_555 1_555
H23 C29 1_555 1_555
H24 C29 1_555 1_555
C30 N3 1_555 1_555
H25 C30 1_555 1_555
H26 C30 1_555 1_555
H27 C30 1_555 1_555
Zn1C O3 1_555 1_555
Zn1C_2 O3B 1_555 1_555
C1B C2B 1_555 1_555
C2B H1B 1_555 1_555
C3B C2B 1_555 1_555
H2B C3B 1_555 1_555
C4B C3B 1_555 1_555
C5B C4B 1_555 1_555
C6B C5B 1_555 1_555
C7B C6B 1_555 1_555
H3B C7B 1_555 1_555
C8B C7B 1_555 1_555
H4B C8B 1_555 1_555
C9B C10 1_555 1_555
C10B C9 1_555 1_555
N1B Zn1 1_555 1_555
N2B Zn1 1_555 1_555
C11B C5B 1_555 1_555
C12B C11B 1_555 1_555
H5B C12B 1_555 1_555
C13B C12B 1_555 1_555
H6B C13B 1_555 1_555
C14B C13B 1_555 1_555
C15B C14B 1_555 1_555
H7B C15B 1_555 1_555
C16B C11B 1_555 1_555
H8B C16B 1_555 1_555
C17B C14B 1_555 1_555
O1B C17B 1_555 1_555
O2B C17B 1_555 1_555
C18B O2B 1_555 1_555
H9B C18B 1_555 1_555
H10B C18B 1_555 1_555
H11B C18B 1_555 1_555
C19B C10B 1_555 1_555
C20B C19B 1_555 1_555
H12B C20B 1_555 1_555
C21B C20B 1_555 1_555
H13B C21B 1_555 1_555
C22B C21B 1_555 1_555
C23B C22B 1_555 1_555
H14B C23B 1_555 1_555
C24B C19B 1_555 1_555
H15B C24B 1_555 1_555
C25B C22B 1_555 1_555
O3B C25B 1_555 1_555
O3C Zn1 1_555 1_555
O3A Zn1 1_555 1_555
O4B C25B 1_555 1_555
C26B O4B 1_555 1_555
H16B C26B 1_555 1_555
H17B C26B 1_555 1_555
H18B C26B 1_555 1_555
C4 N1 1_555 1_555
C6 N2 1_555 1_555
C9 N2 1_555 1_555
C15 C16 1_555 1_555
C23 C24 1_555 1_555
C1B C10B 1_555 1_555
C1B N1B 1_555 1_555
C4B N1B 1_555 1_555
C6B N2B 1_555 1_555
C8B C9B 1_555 1_555
C9B N2B 1_555 1_555
C15B C16B 1_555 1_555
C23B C24B 1_555 1_555

#END
