
#######################################################################
#
#                 Cambridge Crystallographic Data Centre
#                                CCDC 
#
#######################################################################
#
# If this CIF has been generated from an entry in the Cambridge 
# Structural Database, then it will include bibliographic, chemical, 
# crystal, experimental, refinement or atomic coordinate data resulting 
# from the CCDC's data processing and validation procedures.
#
#######################################################################

data_WEPZEX
_symmetry_cell_setting           hexagonal
_symmetry_space_group_name_H-M   'P 65'
_symmetry_Int_Tables_number      170
_space_group_name_Hall           'P 65'
loop_
_symmetry_equiv_pos_site_id
_symmetry_equiv_pos_as_xyz
1 x,y,z
2 -y,x-y,2/3+z
3 -x+y,-x,1/3+z
4 -x,-y,1/2+z
5 y,-x+y,1/6+z
6 x-y,x,5/6+z
_cell_length_a                   12.7777(18)
_cell_length_b                   12.7777(18)
_cell_length_c                   62.202(12)
_cell_angle_alpha                90
_cell_angle_beta                 90
_cell_angle_gamma                120
_cell_volume                     8795.09
loop_
_atom_site_label
_atom_site_type_symbol
_atom_site_fract_x
_atom_site_fract_y
_atom_site_fract_z
Sm1 Sm 0.53159(8) 1.07620(8) 0.54490(3)
Sm2 Sm 0.46849(8) 0.54458(8) 0.55564(3)
O1 O 0.3469(11) 0.9253(11) 0.5296(2)
O2 O 0.1602(12) 0.7585(15) 0.5335(3)
O3 O 0.6006(12) 1.0058(10) 0.5158(2)
O4 O 0.7293(12) 1.0336(11) 0.4889(2)
O5 O 0.6209(12) 1.1769(12) 0.5773(2)
O6 O 0.7632(15) 1.2642(17) 0.6022(3)
O7 O 0.4721(11) 0.8945(11) 0.5651(2)
O8 O 0.4775(11) 0.7399(10) 0.5519(2)
O9 O 0.6536(11) 0.5779(11) 0.5710(2)
O10 O 0.8378(15) 0.5998(17) 0.5670(3)
O11 O 0.3983(11) 0.4073(11) 0.5846(2)
O12 O 0.2715(12) 0.3054(11) 0.6118(2)
O13 O 0.3763(13) 0.5553(11) 0.5230(2)
O14 O 0.2351(15) 0.4971(14) 0.4986(3)
O15 O 0.5237(10) 1.2621(10) 0.5485(2)
O16 O 0.5262(11) 1.4217(12) 0.5353(2)
N1 N 0.7361(10) 1.2420(10) 0.5274(2)
N2 N 0.7249(10) 1.0598(11) 0.5603(2)
N3 N 0.5206(11) 0.6798(10) 0.59126(16)
N4 N 0.6683(11) 0.6797(11) 0.5330(2)
N5 N 0.2649(10) 0.5073(12) 0.5731(2)
N6 N 0.2743(11) 0.3347(9) 0.5402(2)
N7 N 0.4797(11) 1.1589(10) 0.50939(16)
C1 C 0.244(2) 0.857(2) 0.5395(4)
N8 N 0.3314(11) 1.0094(13) 0.5677(2)
C2 C 0.2312(14) 0.9073(13) 0.5608(2)
C3 C 0.1279(11) 0.8569(11) 0.5728(2)
H1 H 0.0581 0.7856 0.5680
C4 C 0.1249(11) 0.9092(13) 0.5919(2)
H2 H 0.0531 0.8743 0.6003
C5 C 0.2255(14) 1.0119(13) 0.5988(2)
H3 H 0.2237 1.0486 0.6120
C6 C 0.3287(11) 1.0616(11) 0.5867(2)
H4 H 0.3987 1.1326 0.5915
C7 C 0.6927(19) 1.0696(16) 0.5043(3)
C8 C 0.7718(11) 1.2043(9) 0.5098(2)
C9 C 0.8716(12) 1.2843(11) 0.49844(18)
H5 H 0.8962 1.2577 0.4862
C10 C 0.9361(11) 1.4024(10) 0.5047(2)
H6 H 1.0055 1.4581 0.4968
C11 C 0.9005(12) 1.4404(9) 0.5224(2)
H7 H 0.9452 1.5225 0.5268
C12 C 0.8002(12) 1.3597(11) 0.53373(19)
H8 H 0.7753 1.3858 0.5460
C13 C 0.712(2) 1.187(2) 0.5871(4)
C14 C 0.7677(12) 1.1183(12) 0.5793(2)
C15 C 0.8533(12) 1.1053(12) 0.59042(18)
H9 H 0.8833 1.1460 0.6037
C16 C 0.8956(11) 1.0341(12) 0.5824(2)
H10 H 0.9548 1.0250 0.5900
C17 C 0.8525(12) 0.9760(12) 0.5633(2)
H11 H 0.8821 0.9267 0.5576
C18 C 0.7669(11) 0.9884(11) 0.55219(18)
H12 H 0.7367 0.9474 0.5389
C19 C 0.4856(14) 0.8054(16) 0.5674(3)
C20 C 0.5072(12) 0.7786(11) 0.58938(16)
C21 C 0.5237(12) 0.8505(9) 0.60686(19)
H13 H 0.5143 0.9194 0.6055
C22 C 0.5537(12) 0.8230(10) 0.62625(17)
H14 H 0.5652 0.8728 0.6384
C23 C 0.5674(12) 0.7235(11) 0.62823(16)
H15 H 0.5883 0.7040 0.6417
C24 C 0.5505(12) 0.6526(9) 0.61063(19)
H16 H 0.5598 0.5836 0.6119
C25 C 0.751(2) 0.6130(18) 0.5611(4)
C26 C 0.7678(14) 0.6761(11) 0.53969(19)
C27 C 0.8706(11) 0.7276(12) 0.5275(2)
H17 H 0.9400 0.7250 0.5322
C28 C 0.8734(11) 0.7830(12) 0.5085(2)
H18 H 0.9447 0.8188 0.5000
C29 C 0.7735(14) 0.7867(12) 0.50176(19)
H19 H 0.7753 0.8253 0.4886
C30 C 0.6707(11) 0.7346(12) 0.5140(2)
H20 H 0.6010 0.7366 0.5094
C31 C 0.3074(17) 0.3783(17) 0.5963(3)
C32 C 0.2298(11) 0.4340(12) 0.5907(2)
C33 C 0.1291(11) 0.4126(12) 0.60197(18)
H21 H 0.1048 0.3614 0.6142
C34 C 0.0634(10) 0.4646(12) 0.5956(2)
H22 H -0.0066 0.4499 0.6034
C35 C 0.0987(11) 0.5383(12) 0.5778(2)
H23 H 0.0531 0.5745 0.5733
C36 C 0.1999(11) 0.5594(12) 0.56669(19)
H24 H 0.2247 0.6106 0.5544
C37 C 0.286(2) 0.475(2) 0.5132(3)
C38 C 0.2325(12) 0.3511(9) 0.5209(2)
C39 C 0.1481(13) 0.2529(11) 0.50965(18)
H25 H 0.1189 0.2640 0.4963
C40 C 0.1060(12) 0.1392(9) 0.5176(2)
H26 H 0.0476 0.0710 0.5098
C41 C 0.1477(12) 0.1235(8) 0.5368(2)
H27 H 0.1180 0.0444 0.5423
C42 C 0.2322(12) 0.2212(10) 0.54804(18)
H28 H 0.2616 0.2098 0.5614
C43 C 0.5185(15) 1.3217(17) 0.5334(3)
C44 C 0.4933(12) 1.2726(11) 0.51115(16)
C45 C 0.4765(12) 1.3266(9) 0.49357(19)
H29 H 0.4859 1.4050 0.4948
C46 C 0.4462(12) 1.2680(10) 0.47424(17)
H30 H 0.4347 1.3057 0.4620
C47 C 0.4325(12) 1.1550(10) 0.47247(16)
H31 H 0.4112 1.1139 0.4591
C48 C 0.4496(11) 1.1019(9) 0.49010(19)
H32 H 0.4402 1.0235 0.4888
Sm2_2 Sm 0.46849(8) 1.54458(8) 0.55564(3)
O16_2 O 0.5262(11) 0.4217(12) 0.5353(2)
K1 K 0.3879(5) 0.7623(4) 0.50960(8)
K2 K 0.6124(5) 0.3744(4) 0.59091(9)
O17 O 0.9316(19) 1.0641(19) 0.4672(5)
O18 O 0.533(2) 1.0826(17) 0.6316(5)
O19 O 0.466(2) 0.284(2) 0.6242(4)
O20 O 0.542(2) 0.819(2) 0.4770(4)
O21 O 0.113(2) 0.726(2) 0.4915(4)
O22 O 0.895(2) 0.629(2) 0.6092(4)
O23 O 1.0630(19) 0.9221(19) 0.4622(3)
O24 O 0.227(4) 0.694(4) 0.4699(8)
loop_
_geom_bond_atom_site_label_1
_geom_bond_atom_site_label_2
_geom_bond_site_symmetry_1
_geom_bond_site_symmetry_2
Sm1 O1 1_555 1_555
Sm2 O8 1_555 1_555
O1 C1 1_555 1_555
O2 C1 1_555 1_555
O3 Sm1 1_555 1_555
O4 C7 1_555 1_555
O5 Sm1 1_555 1_555
O6 C13 1_555 1_555
O7 Sm1 1_555 1_555
O8 C19 1_555 1_555
O9 Sm2 1_555 1_555
O10 C25 1_555 1_555
O11 Sm2 1_555 1_555
O12 C31 1_555 1_555
O13 Sm2 1_555 1_555
O14 C37 1_555 1_555
O15 Sm1 1_555 1_555
O16 C43 1_555 1_555
N1 Sm1 1_555 1_555
N2 Sm1 1_555 1_555
N3 Sm2 1_555 1_555
N4 Sm2 1_555 1_555
N5 Sm2 1_555 1_555
N6 Sm2 1_555 1_555
N7 Sm1 1_555 1_555
C1 C2 1_555 1_555
N8 Sm1 1_555 1_555
C2 N8 1_555 1_555
C3 C2 1_555 1_555
H1 C3 1_555 1_555
C4 C3 1_555 1_555
H2 C4 1_555 1_555
C5 C4 1_555 1_555
H3 C5 1_555 1_555
C6 N8 1_555 1_555
H4 C6 1_555 1_555
C7 O3 1_555 1_555
C8 N1 1_555 1_555
C9 C8 1_555 1_555
H5 C9 1_555 1_555
C10 C9 1_555 1_555
H6 C10 1_555 1_555
C11 C10 1_555 1_555
H7 C11 1_555 1_555
C12 N1 1_555 1_555
H8 C12 1_555 1_555
C13 O5 1_555 1_555
C14 N2 1_555 1_555
C15 C14 1_555 1_555
H9 C15 1_555 1_555
C16 C15 1_555 1_555
H10 C16 1_555 1_555
C17 C16 1_555 1_555
H11 C17 1_555 1_555
C18 N2 1_555 1_555
H12 C18 1_555 1_555
C19 O7 1_555 1_555
C20 N3 1_555 1_555
C21 C20 1_555 1_555
H13 C21 1_555 1_555
C22 C21 1_555 1_555
H14 C22 1_555 1_555
C23 C22 1_555 1_555
H15 C23 1_555 1_555
C24 N3 1_555 1_555
H16 C24 1_555 1_555
C25 O9 1_555 1_555
C26 N4 1_555 1_555
C27 C26 1_555 1_555
H17 C27 1_555 1_555
C28 C27 1_555 1_555
H18 C28 1_555 1_555
C29 C28 1_555 1_555
H19 C29 1_555 1_555
C30 N4 1_555 1_555
H20 C30 1_555 1_555
C31 O11 1_555 1_555
C32 N5 1_555 1_555
C33 C32 1_555 1_555
H21 C33 1_555 1_555
C34 C33 1_555 1_555
H22 C34 1_555 1_555
C35 C34 1_555 1_555
H23 C35 1_555 1_555
C36 N5 1_555 1_555
H24 C36 1_555 1_555
C37 O13 1_555 1_555
C38 N6 1_555 1_555
C39 C38 1_555 1_555
H25 C39 1_555 1_555
C40 C39 1_555 1_555
H26 C40 1_555 1_555
C41 C40 1_555 1_555
H27 C41 1_555 1_555
C42 N6 1_555 1_555
H28 C42 1_555 1_555
C43 O15 1_555 1_555
C44 N7 1_555 1_555
C45 C44 1_555 1_555
H29 C45 1_555 1_555
C46 C45 1_555 1_555
H30 C46 1_555 1_555
C47 C46 1_555 1_555
H31 C47 1_555 1_555
C48 N7 1_555 1_555
H32 C48 1_555 1_555
Sm2_2 O16 1_555 1_555
O16_2 Sm2 1_555 1_555
C5 C6 1_555 1_555
C7 C8 1_555 1_555
C11 C12 1_555 1_555
C13 C14 1_555 1_555
C17 C18 1_555 1_555
C19 C20 1_555 1_555
C23 C24 1_555 1_555
C25 C26 1_555 1_555
C29 C30 1_555 1_555
C31 C32 1_555 1_555
C35 C36 1_555 1_555
C37 C38 1_555 1_555
C41 C42 1_555 1_555
C43 C44 1_555 1_555
C47 C48 1_555 1_555

#END
