
#######################################################################
#
#                 Cambridge Crystallographic Data Centre
#                                CCDC 
#
#######################################################################
#
# If this CIF has been generated from an entry in the Cambridge 
# Structural Database, then it will include bibliographic, chemical, 
# crystal, experimental, refinement or atomic coordinate data resulting 
# from the CCDC's data processing and validation procedures.
#
#######################################################################

data_WEQKEJ
_symmetry_cell_setting           tetragonal
_symmetry_space_group_name_H-M   'P 42/m b c'
_symmetry_Int_Tables_number      135
_space_group_name_Hall           '-P 4c 2ab'
loop_
_symmetry_equiv_pos_site_id
_symmetry_equiv_pos_as_xyz
1 x,y,z
2 -y,x,1/2+z
3 y,-x,1/2+z
4 1/2+y,1/2+x,1/2-z
5 -x,-y,z
6 1/2-x,1/2+y,-z
7 1/2+x,1/2-y,-z
8 1/2-y,1/2-x,1/2-z
9 -x,-y,-z
10 y,-x,1/2-z
11 -y,x,1/2-z
12 1/2-y,1/2-x,1/2+z
13 x,y,-z
14 1/2+x,1/2-y,z
15 1/2-x,1/2+y,z
16 1/2+y,1/2+x,1/2+z
_cell_length_a                   10.7990(9)
_cell_length_b                   10.7990(9)
_cell_length_c                   12.511(2)
_cell_angle_alpha                90
_cell_angle_beta                 90
_cell_angle_gamma                90
_cell_volume                     1459.01
loop_
_atom_site_label
_atom_site_type_symbol
_atom_site_fract_x
_atom_site_fract_y
_atom_site_fract_z
Eu1 Eu 1.0000 0.5000 0.2500
Cr1 Cr 1.0000 1.0000 0.0000
O1 O 0.99713(15) 0.62335(18) 0.41136(14)
O2 O 1.00883(18) 0.71210(19) 0.20024(16)
O3 O 1.05801(19) 0.88198(18) 0.11005(15)
N1 N 0.8472(3) 0.8875(3) 0.0000
H1 H 0.7691 0.9350 0.0000
C1 C 0.9988(3) 0.5717(4) 0.5000
C2 C 0.9819(2) 0.7988(3) 0.1398(2)
C3 C 0.8500(3) 0.8127(3) 0.1002(2)
H2 H 0.8148 0.7316 0.0868
H3 H 0.8003 0.8531 0.1546
Eu1L Eu 1.0000 0.5000 0.7500
Eu1L_2 Eu 1.0000 0.5000 -0.2500
Cr1C Cr 1.5000 0.5000 0.5000
O1L O 0.99713(15) 0.62335(18) 0.58864(14)
O1H O 1.00287(15) 0.37665(18) 0.58864(14)
O1D O 1.00287(15) 0.37665(18) 0.41136(14)
O1C O 1.12335(18) 0.49713(15) 0.08864(14)
O1G O 0.87665(18) 0.50287(15) 0.08864(14)
O2L O 1.00883(18) 0.71210(19) -0.20024(16)
O2C O 1.21210(19) 0.50883(18) 0.29976(16)
O2O O 1.21210(19) 0.50883(18) 0.70024(16)
O2D O 0.99117(18) 0.28790(19) 0.20024(16)
O2G O 0.78790(19) 0.49117(18) 0.29976(16)
O3L O 1.05801(19) 0.88198(18) -0.11005(15)
O3C O 1.38198(18) 0.55801(19) 0.38995(15)
O3O O 1.38198(18) 0.55801(19) 0.61005(15)
O3H O 0.94199(19) 1.11802(18) -0.11005(15)
O3D O 0.94199(19) 1.11802(18) 0.11005(15)
N1C N 1.3875(3) 0.3472(3) 0.5000
N1H N 1.1528(3) 1.1125(3) 0.0000
H1C H 1.4350 0.2691 0.5000
H1H H 1.2309 1.0650 0.0000
C1H C 1.0012(3) 0.4283(4) 0.5000
C2L C 0.9819(2) 0.7988(3) -0.1398(2)
C2C C 1.2988(3) 0.4819(2) 0.3602(2)
C2O C 1.2988(3) 0.4819(2) 0.6398(2)
C3L C 0.8500(3) 0.8127(3) -0.1002(2)
C3C C 1.3127(3) 0.3500(3) 0.3998(2)
C3O C 1.3127(3) 0.3500(3) 0.6002(2)
H2L H 0.8148 0.7316 -0.0868
H2C H 1.2316 0.3148 0.4132
H2O H 1.2316 0.3148 0.5868
H3L H 0.8003 0.8531 -0.1546
H3C H 1.3531 0.3003 0.3454
H3O H 1.3531 0.3003 0.6546
loop_
_geom_bond_atom_site_label_1
_geom_bond_atom_site_label_2
_geom_bond_site_symmetry_1
_geom_bond_site_symmetry_2
Eu1 O1 1_555 1_555
Cr1 O3 1_555 1_555
O1 C1 1_555 1_555
O2 Eu1 1_555 1_555
O3 C2 1_555 1_555
N1 Cr1 1_555 1_555
H1 N1 1_555 1_555
C1 O1L 1_555 1_555
C2 O2 1_555 1_555
C3 N1 1_555 1_555
H2 C3 1_555 1_555
H3 C3 1_555 1_555
Eu1L O1L 1_555 1_555
Eu1L_2 O2L 1_555 1_555
Cr1C O3C 1_555 1_555
O1H Eu1L 1_555 1_555
O1D Eu1 1_555 1_555
O1C Eu1 1_555 1_555
O1G Eu1 1_555 1_555
O2L C2L 1_555 1_555
O2C Eu1 1_555 1_555
O2O Eu1L 1_555 1_555
O2D Eu1 1_555 1_555
O2G Eu1 1_555 1_555
O3L Cr1 1_555 1_555
O3C C2C 1_555 1_555
O3O Cr1C 1_555 1_555
O3H Cr1 1_555 1_555
O3D Cr1 1_555 1_555
N1C Cr1C 1_555 1_555
N1H Cr1 1_555 1_555
H1C N1C 1_555 1_555
H1H N1H 1_555 1_555
C1H C1 1_555 1_555
C2L O3L 1_555 1_555
C2C O2C 1_555 1_555
C2O O2O 1_555 1_555
C3L N1 1_555 1_555
C3C N1C 1_555 1_555
C3O N1C 1_555 1_555
H2L C3L 1_555 1_555
H2C C3C 1_555 1_555
H2O C3O 1_555 1_555
H3L C3L 1_555 1_555
H3C C3C 1_555 1_555
H3O C3O 1_555 1_555
C2 C3 1_555 1_555
O1H C1H 1_555 1_555
O1D C1H 1_555 1_555
O3O C2O 1_555 1_555
C2L C3L 1_555 1_555
C2C C3C 1_555 1_555
C2O C3O 1_555 1_555

#END
