
#######################################################################
#
#                 Cambridge Crystallographic Data Centre
#                                CCDC 
#
#######################################################################
#
# If this CIF has been generated from an entry in the Cambridge 
# Structural Database, then it will include bibliographic, chemical, 
# crystal, experimental, refinement or atomic coordinate data resulting 
# from the CCDC's data processing and validation procedures.
#
#######################################################################

data_WEQLIO
_symmetry_cell_setting           triclinic
_symmetry_space_group_name_H-M   'P -1'
_symmetry_Int_Tables_number      2
_space_group_name_Hall           '-P 1'
loop_
_symmetry_equiv_pos_site_id
_symmetry_equiv_pos_as_xyz
1 x,y,z
2 -x,-y,-z
_cell_length_a                   8.902(5)
_cell_length_b                   10.740(7)
_cell_length_c                   14.633(7)
_cell_angle_alpha                79.979(18)
_cell_angle_beta                 78.027(15)
_cell_angle_gamma                83.597(19)
_cell_volume                     1343.57
loop_
_atom_site_label
_atom_site_type_symbol
_atom_site_fract_x
_atom_site_fract_y
_atom_site_fract_z
Zn1 Zn 0.71133(2) 0.00314(2) 0.252177(14)
Cl1 Cl 0.81852(5) 0.13332(5) 0.12531(3)
Cl2 Cl 0.76003(6) 0.01235(5) 0.39424(3)
O1 O 0.33756(13) 0.10030(11) -0.00143(8)
O2 O 0.08154(13) 0.48281(11) 0.09515(8)
O3 O 0.52807(13) 0.48163(11) -0.16053(8)
N1 N 0.47969(16) 0.01641(13) 0.25801(10)
N2 N -0.22939(16) 0.81829(13) 0.23237(10)
N3 N 0.86180(18) 0.67439(16) -0.37856(11)
C1 C 0.32140(19) 0.23021(16) -0.00714(11)
C2 C 0.20477(19) 0.29530(16) 0.04924(11)
H4 H 0.1301 0.2512 0.0959
C3 C 0.20059(19) 0.42684(16) 0.03530(11)
C4 C 0.30607(19) 0.49440(16) -0.03232(11)
H5 H 0.3011 0.5844 -0.0404
C5 C 0.42050(19) 0.42582(17) -0.08855(11)
C6 C 0.43041(19) 0.29445(16) -0.07543(11)
H6 H 0.5109 0.2490 -0.1127
C7 C 0.2380(2) 0.02734(16) 0.07347(12)
H7 H 0.2441 -0.0607 0.0605
H8 H 0.1304 0.0636 0.0753
C8 C 0.43298(19) 0.02304(16) 0.17566(12)
H9 H 0.5089 0.0263 0.1193
C9 C 0.28022(19) 0.02543(15) 0.16846(12)
C10 C 0.1710(2) 0.02129(17) 0.25193(12)
H10 H 0.0646 0.0233 0.2504
C11 C 0.2180(2) 0.01431(18) 0.33702(13)
H11 H 0.1441 0.0119 0.3943
C12 C 0.3727(2) 0.01082(16) 0.33836(12)
H12 H 0.4047 0.0043 0.3972
C13 C 0.07939(19) 0.61596(16) 0.09520(12)
H13 H 0.0718 0.6635 0.0318
H14 H 0.1748 0.6362 0.1123
C14 C -0.10628(18) 0.77876(16) 0.17031(11)
H15 H -0.0488 0.8406 0.1267
C15 C -0.06023(19) 0.65134(16) 0.16764(11)
C16 C -0.1439(2) 0.56264(17) 0.23181(12)
H16 H -0.1142 0.4748 0.2326
C17 C -0.2713(2) 0.60209(18) 0.29503(13)
H17 H -0.3305 0.5421 0.3393
C18 C -0.3104(2) 0.73049(18) 0.29233(12)
H18 H -0.3989 0.7575 0.3350
C19 C 0.5132(2) 0.61759(16) -0.18492(12)
H19 H 0.5486 0.6578 -0.1380
H20 H 0.4042 0.6479 -0.1859
C20 C 0.7687(2) 0.64998(17) -0.29366(13)
H21 H 0.8143 0.6312 -0.2391
C21 C 0.6109(2) 0.65058(16) -0.28114(12)
C22 C 0.5447(2) 0.6786(2) -0.36049(13)
H22 H 0.4364 0.6796 -0.3548
C23 C 0.6383(3) 0.7051(2) -0.44792(14)
H23 H 0.5956 0.7258 -0.5035
C24 C 0.7944(3) 0.7011(2) -0.45319(15)
H24 H 0.8580 0.7185 -0.5139
Zn1_2 Zn -0.28867(2) 1.00314(2) 0.252177(14)
N2_2 N 0.77061(16) -0.18171(13) 0.23237(10)
O4 O 0.3532(2) 0.6928(2) 0.42166(15)
H1 H 0.299(3) 0.693(3) 0.478(2)
C25 C 0.2576(4) 0.6673(3) 0.3640(2)
H25 H 0.2119 0.5869 0.3909
H26 H 0.3181 0.6613 0.3006
H27 H 0.1756 0.7358 0.3600
O5 O 0.17750(17) 0.69907(15) 0.60147(12)
H2 H 0.185(3) 0.778(2) 0.6009(16)
H3 H 0.084(3) 0.689(2) 0.6069(16)
loop_
_geom_bond_atom_site_label_1
_geom_bond_atom_site_label_2
_geom_bond_site_symmetry_1
_geom_bond_site_symmetry_2
Zn1 Cl1 1_555 1_555
Cl2 Zn1 1_555 1_555
O1 C1 1_555 1_555
O2 C3 1_555 1_555
O3 C5 1_555 1_555
O4 H1 1_555 1_555
O5 H2 1_555 1_555
H3 O5 1_555 1_555
N1 Zn1 1_555 1_555
N2 C14 1_555 1_555
N3 C20 1_555 1_555
C1 C2 1_555 1_555
C2 H4 1_555 1_555
C3 C2 1_555 1_555
C4 C3 1_555 1_555
H5 C4 1_555 1_555
C5 C4 1_555 1_555
C6 C1 1_555 1_555
H6 C6 1_555 1_555
C7 O1 1_555 1_555
H7 C7 1_555 1_555
H8 C7 1_555 1_555
C8 N1 1_555 1_555
H9 C8 1_555 1_555
C9 C7 1_555 1_555
C10 C9 1_555 1_555
H10 C10 1_555 1_555
C11 C10 1_555 1_555
H11 C11 1_555 1_555
C12 N1 1_555 1_555
H12 C12 1_555 1_555
C13 O2 1_555 1_555
H13 C13 1_555 1_555
H14 C13 1_555 1_555
C14 H15 1_555 1_555
C15 C13 1_555 1_555
C16 C15 1_555 1_555
H16 C16 1_555 1_555
C17 C16 1_555 1_555
H17 C17 1_555 1_555
C18 N2 1_555 1_555
H18 C18 1_555 1_555
C19 O3 1_555 1_555
H19 C19 1_555 1_555
H20 C19 1_555 1_555
C20 H21 1_555 1_555
C21 C19 1_555 1_555
C22 C21 1_555 1_555
H22 C22 1_555 1_555
C23 C22 1_555 1_555
H23 C23 1_555 1_555
C24 N3 1_555 1_555
H24 C24 1_555 1_555
C25 O4 1_555 1_555
H25 C25 1_555 1_555
H26 C25 1_555 1_555
H27 C25 1_555 1_555
Zn1_2 N2 1_555 1_555
N2_2 Zn1 1_555 1_555
C5 C6 1_555 1_555
C8 C9 1_555 1_555
C11 C12 1_555 1_555
C14 C15 1_555 1_555
C17 C18 1_555 1_555
C20 C21 1_555 1_555
C23 C24 1_555 1_555

#END
