
#######################################################################
#
#                 Cambridge Crystallographic Data Centre
#                                CCDC 
#
#######################################################################
#
# If this CIF has been generated from an entry in the Cambridge 
# Structural Database, then it will include bibliographic, chemical, 
# crystal, experimental, refinement or atomic coordinate data resulting 
# from the CCDC's data processing and validation procedures.
#
#######################################################################

data_WEQMIP
_symmetry_cell_setting           orthorhombic
_symmetry_space_group_name_H-M   'P b c a'
_symmetry_Int_Tables_number      61
_space_group_name_Hall           '-P 2ac 2ab'
loop_
_symmetry_equiv_pos_site_id
_symmetry_equiv_pos_as_xyz
1 x,y,z
2 1/2+x,1/2-y,-z
3 -x,1/2+y,1/2-z
4 1/2-x,-y,1/2+z
5 -x,-y,-z
6 1/2-x,1/2+y,z
7 x,1/2-y,1/2+z
8 1/2+x,y,1/2-z
_cell_length_a                   7.7648(18)
_cell_length_b                   25.174(6)
_cell_length_c                   28.672(5)
_cell_angle_alpha                90
_cell_angle_beta                 90
_cell_angle_gamma                90
_cell_volume                     5604.55
loop_
_atom_site_label
_atom_site_type_symbol
_atom_site_fract_x
_atom_site_fract_y
_atom_site_fract_z
Hg1 Hg 0.48708(5) 0.322752(17) 0.105873(14)
Hg2 Hg 0.49635(7) 0.37970(2) 0.729213(16)
Br1 Br 0.32930(17) 0.39826(5) 0.06734(4)
Br2 Br 0.76444(16) 0.27607(5) 0.08771(4)
Br3 Br 0.32002(16) 0.30828(5) 0.76953(4)
Br4 Br 0.67838(18) 0.44921(5) 0.76948(5)
O1 O 0.3233(12) 0.4387(3) 0.3278(2)
O2 O 0.0422(10) 0.5807(3) 0.3980(2)
O3 O 0.3113(10) 0.4539(3) 0.4969(2)
N1 N 0.4815(12) 0.3444(4) 0.1846(3)
N2 N -0.2756(12) 0.7533(3) 0.4010(3)
N3 N 0.5069(12) 0.3929(4) 0.6515(3)
C1 C 0.2750(14) 0.4618(4) 0.3699(3)
C2 C 0.1825(14) 0.5081(4) 0.3650(3)
H1 H 0.1540 0.5215 0.3350
C3 C 0.1323(14) 0.5346(4) 0.4050(4)
C4 C 0.1763(13) 0.5154(4) 0.4500(3)
H2 H 0.1401 0.5334 0.4775
C5 C 0.2743(13) 0.4694(4) 0.4525(3)
C6 C 0.3265(15) 0.4416(4) 0.4127(4)
H3 H 0.3942 0.4103 0.4149
C7 C 0.4260(15) 0.3919(4) 0.3280(4)
H4 H 0.3686 0.3634 0.3461
H5 H 0.5399 0.3991 0.3421
C8 C 0.5200(15) 0.3114(4) 0.2194(4)
H6 H 0.5591 0.2767 0.2120
C9 C 0.5051(15) 0.3258(4) 0.2661(4)
H7 H 0.5360 0.3012 0.2898
C10 C 0.4457(15) 0.3756(4) 0.2782(3)
C11 C 0.4108(16) 0.4109(4) 0.2422(4)
H8 H 0.3764 0.4463 0.2487
C12 C 0.4271(17) 0.3934(5) 0.1960(4)
H9 H 0.3983 0.4173 0.1716
C13 C 0.0056(14) 0.6119(4) 0.4375(4)
H10 H 0.1143 0.6212 0.4536
H11 H -0.0665 0.5913 0.4595
C14 C -0.2294(14) 0.7420(4) 0.4463(4)
H12 H -0.2625 0.7658 0.4704
C15 C -0.1368(13) 0.6971(4) 0.4579(4)
H13 H -0.1070 0.6906 0.4895
C16 C -0.0872(12) 0.6617(4) 0.4238(3)
C17 C -0.1252(15) 0.6739(5) 0.3779(4)
H14 H -0.0875 0.6516 0.3531
C18 C -0.2216(14) 0.7202(4) 0.3688(4)
H15 H -0.2492 0.7281 0.3372
C19 C 0.4266(15) 0.4123(4) 0.5038(3)
H16 H 0.5366 0.4201 0.4876
H17 H 0.3787 0.3791 0.4907
C20 C 0.4323(16) 0.4358(4) 0.6340(4)
H18 H 0.3950 0.4624 0.6552
C21 C 0.4049(15) 0.4448(4) 0.5869(4)
H19 H 0.3514 0.4765 0.5764
C22 C 0.4575(12) 0.4061(4) 0.5554(3)
C23 C 0.5421(14) 0.3610(4) 0.5733(4)
H20 H 0.5831 0.3342 0.5527
C24 C 0.5654(15) 0.3558(4) 0.6207(4)
H21 H 0.6239 0.3254 0.6323
Hg1B Hg -0.48708(5) 0.822752(17) 0.394127(14)
Hg2G Hg -0.00365(7) 0.37970(2) 0.770787(16)
Hg2G_2 Hg 0.99635(7) 0.37970(2) 0.770787(16)
Br3G Br 0.82002(16) 0.30828(5) 0.73047(4)
Br4G Br 0.17838(18) 0.44921(5) 0.73052(5)
N2B N 0.2756(12) 0.2533(3) 0.0990(3)
loop_
_geom_bond_atom_site_label_1
_geom_bond_atom_site_label_2
_geom_bond_site_symmetry_1
_geom_bond_site_symmetry_2
Hg1 Br1 1_555 1_555
Hg2 Br3 1_555 1_555
Br2 Hg1 1_555 1_555
Br3 Hg2G 1_555 1_555
Br4 Hg2 1_555 1_555
O1 C1 1_555 1_555
O2 C3 1_555 1_555
O3 C5 1_555 1_555
N1 Hg1 1_555 1_555
N2 C14 1_555 1_555
N3 Hg2 1_555 1_555
C1 C2 1_555 1_555
C2 H1 1_555 1_555
C3 C2 1_555 1_555
C4 C3 1_555 1_555
H2 C4 1_555 1_555
C5 C4 1_555 1_555
C6 C1 1_555 1_555
H3 C6 1_555 1_555
C7 O1 1_555 1_555
H4 C7 1_555 1_555
H5 C7 1_555 1_555
C8 N1 1_555 1_555
H6 C8 1_555 1_555
C9 C8 1_555 1_555
H7 C9 1_555 1_555
C10 C7 1_555 1_555
C11 C10 1_555 1_555
H8 C11 1_555 1_555
C12 N1 1_555 1_555
H9 C12 1_555 1_555
C13 O2 1_555 1_555
H10 C13 1_555 1_555
H11 C13 1_555 1_555
C14 H12 1_555 1_555
C15 C14 1_555 1_555
H13 C15 1_555 1_555
C16 C13 1_555 1_555
C17 C16 1_555 1_555
H14 C17 1_555 1_555
C18 N2 1_555 1_555
H15 C18 1_555 1_555
C19 O3 1_555 1_555
H16 C19 1_555 1_555
H17 C19 1_555 1_555
C20 N3 1_555 1_555
H18 C20 1_555 1_555
C21 C20 1_555 1_555
H19 C21 1_555 1_555
C22 C19 1_555 1_555
C23 C22 1_555 1_555
H20 C23 1_555 1_555
C24 N3 1_555 1_555
H21 C24 1_555 1_555
Hg1B N2 1_555 1_555
Hg2G Br4G 1_555 1_555
Hg2G_2 Br4 1_555 1_555
Br3G Hg2 1_555 1_555
Br4G Hg2 1_555 1_555
N2B Hg1 1_555 1_555
C5 C6 1_555 1_555
C9 C10 1_555 1_555
C11 C12 1_555 1_555
C15 C16 1_555 1_555
C17 C18 1_555 1_555
C21 C22 1_555 1_555
C23 C24 1_555 1_555
Hg2G_2 Br3G 1_555 1_555

#END
