
#######################################################################
#
#                 Cambridge Crystallographic Data Centre
#                                CCDC 
#
#######################################################################
#
# If this CIF has been generated from an entry in the Cambridge 
# Structural Database, then it will include bibliographic, chemical, 
# crystal, experimental, refinement or atomic coordinate data resulting 
# from the CCDC's data processing and validation procedures.
#
#######################################################################

data_WEQMEL
_symmetry_cell_setting           orthorhombic
_symmetry_space_group_name_H-M   'P b c a'
_symmetry_Int_Tables_number      61
_space_group_name_Hall           '-P 2ac 2ab'
loop_
_symmetry_equiv_pos_site_id
_symmetry_equiv_pos_as_xyz
1 x,y,z
2 1/2+x,1/2-y,-z
3 -x,1/2+y,1/2-z
4 1/2-x,-y,1/2+z
5 -x,-y,-z
6 1/2-x,1/2+y,z
7 x,1/2-y,1/2+z
8 1/2+x,y,1/2-z
_cell_length_a                   7.596(3)
_cell_length_b                   24.397(6)
_cell_length_c                   28.642(6)
_cell_angle_alpha                90
_cell_angle_beta                 90
_cell_angle_gamma                90
_cell_volume                     5307.92
loop_
_atom_site_label
_atom_site_type_symbol
_atom_site_fract_x
_atom_site_fract_y
_atom_site_fract_z
Hg1 Hg 0.51024(5) 0.335508(15) 0.102686(12)
Hg2 Hg 0.51512(6) 0.373037(16) 0.730676(13)
Cl1 Cl 0.6739(3) 0.40864(10) 0.06957(9)
Cl2 Cl 0.2532(3) 0.28299(9) 0.08714(9)
Cl3 Cl 0.6943(4) 0.30360(10) 0.76703(10)
Cl4 Cl 0.3305(4) 0.44042(11) 0.76763(11)
O1 O 0.6619(10) 0.4422(3) 0.3295(2)
O2 O 0.9494(8) 0.5863(2) 0.4012(2)
O3 O 0.6862(8) 0.4519(2) 0.49846(19)
N1 N 0.5130(10) 0.3535(3) 0.1824(2)
N2 N 1.2641(10) 0.7641(3) 0.4040(3)
N3 N 0.5071(10) 0.3862(3) 0.6530(2)
C1 C 0.7125(11) 0.4644(4) 0.3714(3)
C2 C 0.8079(12) 0.5118(4) 0.3675(3)
H1 H 0.8374 0.5262 0.3377
C3 C 0.8603(11) 0.5382(3) 0.4080(3)
C4 C 0.8195(10) 0.5169(3) 0.4518(3)
H2 H 0.8579 0.5346 0.4795
C5 C 0.7210(11) 0.4692(3) 0.4536(3)
C6 C 0.6644(11) 0.4419(3) 0.4141(3)
H3 H 0.5960 0.4094 0.4160
C7 C 0.5609(12) 0.3933(4) 0.3274(3)
H4 H 0.4442 0.3989 0.3420
H5 H 0.6220 0.3632 0.3439
C8 C 0.4736(13) 0.3164(4) 0.2157(3)
H6 H 0.4337 0.2811 0.2065
C9 C 0.4890(13) 0.3278(4) 0.2621(3)
H7 H 0.4643 0.3001 0.2845
C10 C 0.5410(11) 0.3801(4) 0.2769(3)
C11 C 0.5751(14) 0.4189(4) 0.2427(3)
H8 H 0.6070 0.4553 0.2508
C12 C 0.5617(13) 0.4033(4) 0.1961(3)
H9 H 0.5887 0.4297 0.1728
C13 C 0.9860(11) 0.6183(4) 0.4414(3)
H10 H 1.0627 0.5975 0.4630
H11 H 0.8750 0.6271 0.4579
C14 C 1.2235(12) 0.7530(4) 0.4483(3)
H12 H 1.2591 0.7779 0.4720
C15 C 1.1310(11) 0.7063(4) 0.4610(3)
H13 H 1.1057 0.6993 0.4929
C16 C 1.0754(11) 0.6698(3) 0.4268(3)
C17 C 1.1122(12) 0.6832(4) 0.3806(3)
H14 H 1.0732 0.6604 0.3557
C18 C 1.2077(12) 0.7309(4) 0.3717(3)
H15 H 1.2333 0.7397 0.3401
C19 C 0.5706(11) 0.4076(3) 0.5051(3)
H16 H 0.6203 0.3738 0.4911
H17 H 0.4557 0.4152 0.4901
C20 C 0.5858(12) 0.4307(4) 0.6356(3)
H18 H 0.6276 0.4578 0.6566
C21 C 0.6090(11) 0.4389(3) 0.5880(3)
H19 H 0.6671 0.4709 0.5770
C22 C 0.5478(11) 0.4006(3) 0.5570(3)
C23 C 0.4610(11) 0.3544(4) 0.5753(3)
H20 H 0.4155 0.3272 0.5548
C24 C 0.4423(11) 0.3486(4) 0.6224(3)
H21 H 0.3824 0.3174 0.6343
Hg1B Hg 1.48976(5) 0.835508(15) 0.397314(12)
Hg2G Hg 1.01512(6) 0.373037(16) 0.769324(13)
Hg2G_2 Hg 0.01512(6) 0.373037(16) 0.769324(13)
Cl3G Cl 0.1943(4) 0.30360(10) 0.73297(10)
Cl4G Cl 0.8305(4) 0.44042(11) 0.73237(11)
N2B N 0.7359(10) 0.2641(3) 0.0960(3)
loop_
_geom_bond_atom_site_label_1
_geom_bond_atom_site_label_2
_geom_bond_site_symmetry_1
_geom_bond_site_symmetry_2
Hg1 Cl1 1_555 1_555
Hg2 Cl3 1_555 1_555
Cl2 Hg1 1_555 1_555
Cl3 Hg2G 1_555 1_555
Cl4 Hg2 1_555 1_555
O1 C1 1_555 1_555
O2 C3 1_555 1_555
O3 C5 1_555 1_555
N1 Hg1 1_555 1_555
N2 C14 1_555 1_555
N3 Hg2 1_555 1_555
C1 C2 1_555 1_555
C2 H1 1_555 1_555
C3 C2 1_555 1_555
C4 C3 1_555 1_555
H2 C4 1_555 1_555
C5 C4 1_555 1_555
C6 C1 1_555 1_555
H3 C6 1_555 1_555
C7 O1 1_555 1_555
H4 C7 1_555 1_555
H5 C7 1_555 1_555
C8 N1 1_555 1_555
H6 C8 1_555 1_555
C9 C8 1_555 1_555
H7 C9 1_555 1_555
C10 C7 1_555 1_555
C11 C10 1_555 1_555
H8 C11 1_555 1_555
C12 N1 1_555 1_555
H9 C12 1_555 1_555
C13 O2 1_555 1_555
H10 C13 1_555 1_555
H11 C13 1_555 1_555
C14 H12 1_555 1_555
C15 C14 1_555 1_555
H13 C15 1_555 1_555
C16 C13 1_555 1_555
C17 C16 1_555 1_555
H14 C17 1_555 1_555
C18 N2 1_555 1_555
H15 C18 1_555 1_555
C19 O3 1_555 1_555
H16 C19 1_555 1_555
H17 C19 1_555 1_555
C20 N3 1_555 1_555
H18 C20 1_555 1_555
C21 C20 1_555 1_555
H19 C21 1_555 1_555
C22 C19 1_555 1_555
C23 C22 1_555 1_555
H20 C23 1_555 1_555
C24 N3 1_555 1_555
H21 C24 1_555 1_555
Hg1B N2 1_555 1_555
Hg2G Cl4G 1_555 1_555
Hg2G_2 Cl4 1_555 1_555
Cl3G Hg2 1_555 1_555
Cl4G Hg2 1_555 1_555
N2B Hg1 1_555 1_555
C5 C6 1_555 1_555
C9 C10 1_555 1_555
C11 C12 1_555 1_555
C15 C16 1_555 1_555
C17 C18 1_555 1_555
C21 C22 1_555 1_555
C23 C24 1_555 1_555
Hg2G_2 Cl3G 1_555 1_555

#END
