
#######################################################################
#
#                 Cambridge Crystallographic Data Centre
#                                CCDC 
#
#######################################################################
#
# If this CIF has been generated from an entry in the Cambridge 
# Structural Database, then it will include bibliographic, chemical, 
# crystal, experimental, refinement or atomic coordinate data resulting 
# from the CCDC's data processing and validation procedures.
#
#######################################################################

data_WEQMOV
_symmetry_cell_setting           triclinic
_symmetry_space_group_name_H-M   'P -1'
_symmetry_Int_Tables_number      2
_space_group_name_Hall           '-P 1'
loop_
_symmetry_equiv_pos_site_id
_symmetry_equiv_pos_as_xyz
1 x,y,z
2 -x,-y,-z
_cell_length_a                   15.427(3)
_cell_length_b                   16.466(4)
_cell_length_c                   24.960(5)
_cell_angle_alpha                78.940(7)
_cell_angle_beta                 80.930(7)
_cell_angle_gamma                76.733(8)
_cell_volume                     6013.54
loop_
_atom_site_label
_atom_site_type_symbol
_atom_site_fract_x
_atom_site_fract_y
_atom_site_fract_z
Hg1 Hg 0.23320(6) 1.17723(5) 0.39152(3)
Hg2 Hg 0.51289(6) 0.34571(5) 0.11045(3)
Hg3 Hg -0.16222(7) 0.30580(7) 0.77069(4)
I1 I 0.40582(10) 1.17600(11) 0.37916(6)
I2 I 0.08014(10) 1.27528(9) 0.42532(6)
I3 I 0.67012(12) 0.36620(15) 0.12811(7)
I4 I 0.44683(12) 0.23736(10) 0.07005(7)
I5 I -0.17021(14) 0.43736(12) 0.82044(7)
I6 I -0.2656(2) 0.2196(2) 0.74075(9)
O1 O 0.2064(9) 0.7400(8) 0.4379(5)
O2 O 0.2634(10) 0.5069(8) 0.3490(5)
O3 O 0.0932(8) 0.4994(8) 0.5320(4)
O4 O 0.2015(9) 1.0086(8) 0.1490(5)
O5 O 0.2712(11) 0.7710(8) 0.0669(5)
O6 O 0.0930(9) 1.0316(9) -0.0218(4)
N1 N 0.2149(12) 1.0358(10) 0.4301(7)
N2 N 0.4228(12) 0.3611(10) 0.1988(6)
N3 N -0.0522(12) 0.3337(12) 0.6914(6)
N4 N 0.2073(11) 1.1541(9) 0.3031(6)
N5 N 0.4372(13) 0.4833(11) 0.0709(6)
N6 N -0.0513(12) 1.1996(11) -0.1826(6)
C1 C 0.1959(12) 0.6600(11) 0.4416(7)
C2 C 0.2330(13) 0.6215(11) 0.3956(7)
H1 H 0.2668 0.6495 0.3655
C3 C 0.2194(13) 0.5421(13) 0.3952(8)
C4 C 0.1750(11) 0.4952(11) 0.4401(6)
H2 H 0.1678 0.4397 0.4393
C5 C 0.1428(12) 0.5350(11) 0.4851(7)
C6 C 0.1459(10) 0.6147(11) 0.4873(7)
H3 H 0.1162 0.6410 0.5178
C7 C 0.1632(15) 0.7857(12) 0.4783(7)
H4 H 0.1853 0.7586 0.5139
H5 H 0.0979 0.7880 0.4820
C8 C 0.2767(17) 0.9731(16) 0.4214(9)
H6 H 0.3327 0.9822 0.4020
C9 C 0.2641(15) 0.8897(13) 0.4399(11)
H7 H 0.3134 0.8436 0.4365
C10 C 0.1817(13) 0.8745(12) 0.4627(7)
C11 C 0.1174(16) 0.9439(14) 0.4681(11)
H8 H 0.0582 0.9380 0.4832
C12 C 0.1361(18) 1.0222(14) 0.4523(11)
H9 H 0.0892 1.0697 0.4577
C13 C 0.2538(15) 0.4269(12) 0.3430(8)
H10 H 0.1906 0.4269 0.3401
H11 H 0.2739 0.3840 0.3746
C14 C 0.4355(17) 0.4193(17) 0.2282(9)
H12 H 0.4843 0.4468 0.2147
C15 C 0.3871(16) 0.4393(16) 0.2721(9)
H13 H 0.4040 0.4760 0.2918
C16 C 0.3132(11) 0.4089(11) 0.2902(6)
C17 C 0.2958(16) 0.3504(13) 0.2611(9)
H14 H 0.2454 0.3246 0.2731
C18 C 0.3496(13) 0.3321(11) 0.2177(7)
H15 H 0.3348 0.2944 0.1979
C19 C 0.0877(11) 0.4149(10) 0.5358(6)
H16 H 0.1486 0.3795 0.5301
H17 H 0.0528 0.4092 0.5072
C20 C -0.0261(17) 0.4020(14) 0.6828(8)
H18 H -0.0381 0.4342 0.7119
C21 C 0.0195(15) 0.4339(12) 0.6336(8)
H19 H 0.0345 0.4879 0.6290
C22 C 0.0433(13) 0.3864(13) 0.5910(8)
C23 C 0.0141(13) 0.3070(12) 0.6020(8)
H20 H 0.0281 0.2700 0.5755
C24 C -0.0342(14) 0.2866(12) 0.6514(8)
H21 H -0.0564 0.2359 0.6579
C25 C 0.1927(11) 0.9769(10) 0.1044(7)
C26 C 0.2313(13) 0.8923(12) 0.1052(7)
H22 H 0.2607 0.8604 0.1356
C27 C 0.2268(14) 0.8567(13) 0.0631(8)
C28 C 0.1800(13) 0.9003(10) 0.0174(7)
H23 H 0.1765 0.8730 -0.0122
C29 C 0.1409(11) 0.9825(12) 0.0187(6)
C30 C 0.1436(11) 1.0197(11) 0.0612(7)
H24 H 0.1117 1.0762 0.0622
C31 C 0.1537(15) 1.0960(13) 0.1540(8)
H25 H 0.1749 1.1369 0.1230
H26 H 0.0882 1.1018 0.1548
C32 C 0.2704(17) 1.105(2) 0.2744(10)
H27 H 0.3282 1.0850 0.2863
C33 C 0.2520(19) 1.0816(18) 0.2249(10)
H28 H 0.2976 1.0447 0.2057
C34 C 0.1756(14) 1.1093(13) 0.2063(8)
C35 C 0.1100(15) 1.1601(13) 0.2367(8)
H29 H 0.0524 1.1817 0.2248
C36 C 0.1293(14) 1.1793(12) 0.2852(8)
H30 H 0.0827 1.2127 0.3062
C37 C 0.2713(15) 0.7250(12) 0.0249(9)
H31 H 0.2962 0.7533 -0.0109
H32 H 0.2096 0.7196 0.0221
C38 C 0.4531(18) 0.5486(15) 0.0802(12)
H33 H 0.5027 0.5426 0.0998
C39 C 0.4049(17) 0.6322(14) 0.0646(13)
H34 H 0.4242 0.6804 0.0702
C40 C 0.3299(15) 0.6388(13) 0.0412(8)
C41 C 0.3070(14) 0.5692(13) 0.0333(9)
H35 H 0.2547 0.5725 0.0167
C42 C 0.3613(18) 0.4927(17) 0.0496(10)
H36 H 0.3433 0.4430 0.0454
C43 C 0.0915(13) 1.0020(11) -0.0679(8)
H37 H 0.0585 0.9552 -0.0593
H38 H 0.1536 0.9794 -0.0833
C44 C -0.0269(16) 1.2171(15) -0.1380(8)
H39 H -0.0424 1.2736 -0.1308
C45 C 0.0210(16) 1.1541(14) -0.1013(8)
H40 H 0.0362 1.1690 -0.0696
C46 C 0.0468(12) 1.0710(12) -0.1096(7)
C47 C 0.0211(17) 1.0557(15) -0.1580(8)
H41 H 0.0362 1.0010 -0.1682
C48 C -0.0292(15) 1.1273(15) -0.1914(8)
H42 H -0.0470 1.1165 -0.2236
Hg3_2 Hg -0.16222(7) 1.30580(7) -0.22931(4)
N6_2 N -0.0513(12) 0.1996(11) 0.8174(6)
Hg4 Hg 0.73867(6) 1.15338(5) 0.38891(3)
Hg5 Hg 1.02016(5) 0.33339(5) 0.10654(3)
Hg6 Hg 0.38167(7) 0.17780(7) 0.72483(4)
I7 I 0.91531(11) 1.12682(13) 0.37060(7)
I8 I 0.60311(10) 1.26018(9) 0.43309(6)
I9 I 1.18241(11) 0.34433(11) 0.12067(7)
I10 I 0.94122(10) 0.23403(9) 0.06714(7)
I11 I 0.21347(13) 0.2500(2) 0.75073(9)
I12 I 0.47281(14) 0.04597(12) 0.67804(7)
O7 O 0.6868(10) 0.7246(8) 0.4312(6)
O8 O 0.7822(10) 0.4860(8) 0.3518(5)
O9 O 0.5994(9) 0.4604(7) 0.5216(4)
O10 O 0.6859(10) 0.9986(8) 0.1492(5)
O11 O 0.7868(10) 0.7664(8) 0.0643(5)
O12 O 0.6033(9) 1.0019(7) -0.0328(5)
N7 N 0.7081(13) 1.0153(10) 0.4259(7)
N8 N 0.9367(13) 0.3475(12) 0.1969(7)
N9 N 0.4586(13) 0.2878(14) 0.6784(7)
N10 N 0.7027(11) 1.1446(11) 0.3005(7)
N11 N 0.9439(14) 0.4724(11) 0.0718(7)
N12 N 0.4594(11) 1.1595(12) -0.1951(7)
C49 C 0.6816(13) 0.6421(13) 0.4364(8)
C50 C 0.7323(13) 0.6047(11) 0.3931(8)
H43 H 0.7650 0.6351 0.3636
C51 C 0.7318(14) 0.5191(12) 0.3959(7)
C52 C 0.6854(12) 0.4739(11) 0.4396(7)
H44 H 0.6832 0.4166 0.4400
C53 C 0.6448(12) 0.5141(11) 0.4801(7)
C54 C 0.6364(12) 0.5971(11) 0.4812(8)
H45 H 0.6019 0.6235 0.5105
C55 C 0.6397(17) 0.7725(11) 0.4718(8)
H46 H 0.6579 0.7455 0.5084
H47 H 0.5743 0.7773 0.4731
C56 C 0.7670(16) 0.9433(18) 0.4194(14)
H48 H 0.8262 0.9484 0.4041
C57 C 0.7513(18) 0.8649(15) 0.4322(14)
H49 H 0.7959 0.8162 0.4260
C58 C 0.6638(15) 0.8607(12) 0.4555(9)
C59 C 0.6059(15) 0.9296(14) 0.4649(10)
H50 H 0.5479 0.9256 0.4835
C60 C 0.6276(17) 1.0073(13) 0.4483(9)
H51 H 0.5830 1.0566 0.4532
C61 C 0.7890(15) 0.4011(13) 0.3466(9)
H52 H 0.7282 0.3890 0.3505
H53 H 0.8211 0.3636 0.3765
C62 C 0.9611(19) 0.398(2) 0.2269(11)
H54 H 1.0094 0.4263 0.2127
C63 C 0.9180(17) 0.4081(18) 0.2747(9)
H55 H 0.9430 0.4337 0.2980
C64 C 0.8367(15) 0.3831(13) 0.2939(8)
C65 C 0.8172(16) 0.3300(13) 0.2607(8)
H56 H 0.7683 0.3023 0.2731
C66 C 0.8631(16) 0.3185(13) 0.2149(9)
H57 H 0.8433 0.2874 0.1925
C67 C 0.5562(12) 0.4887(13) 0.5703(7)
H58 H 0.5053 0.5362 0.5617
H59 H 0.5987 0.5102 0.5872
C68 C 0.4324(17) 0.3678(17) 0.6905(8)
H60 H 0.3920 0.3790 0.7224
C69 C 0.4664(15) 0.4328(15) 0.6551(7)
H61 H 0.4479 0.4883 0.6640
C70 C 0.5232(14) 0.4221(12) 0.6094(9)
C71 C 0.5527(15) 0.3406(15) 0.5978(9)
H62 H 0.5970 0.3288 0.5677
C72 C 0.5149(16) 0.2750(14) 0.6324(9)
H63 H 0.5299 0.2201 0.6226
C73 C 0.6865(14) 0.9659(12) 0.1019(8)
C74 C 0.7330(12) 0.8855(11) 0.1027(7)
H64 H 0.7618 0.8555 0.1337
C75 C 0.7374(13) 0.8496(11) 0.0584(8)
C76 C 0.6900(12) 0.8893(11) 0.0141(7)
H65 H 0.6896 0.8602 -0.0153
C77 C 0.6451(12) 0.9691(11) 0.0137(7)
C78 C 0.6386(14) 1.0102(12) 0.0564(8)
H66 H 0.6040 1.0660 0.0563
C79 C 0.6332(14) 1.0848(12) 0.1537(8)
H67 H 0.5680 1.0866 0.1563
H68 H 0.6503 1.1263 0.1217
C80 C 0.7537(17) 1.0804(19) 0.2764(10)
H69 H 0.8037 1.0466 0.2936
C81 C 0.7367(18) 1.0611(16) 0.2273(10)
H70 H 0.7787 1.0207 0.2087
C82 C 0.6583(15) 1.1017(12) 0.2069(7)
C83 C 0.6008(15) 1.1621(12) 0.2351(8)
H71 H 0.5451 1.1917 0.2227
C84 C 0.6282(15) 1.1770(13) 0.2818(7)
H72 H 0.5869 1.2155 0.3021
C85 C 0.7938(15) 0.7183(11) 0.0198(9)
H73 H 0.8262 0.7443 -0.0143
H74 H 0.7336 0.7154 0.0122
C86 C 0.9687(18) 0.5417(12) 0.0784(10)
H75 H 1.0210 0.5347 0.0959
C87 C 0.9235(17) 0.6237(14) 0.0614(11)
H76 H 0.9464 0.6713 0.0644
C88 C 0.8448(14) 0.6330(11) 0.0403(8)
C89 C 0.8164(15) 0.5637(14) 0.0351(9)
H77 H 0.7622 0.5700 0.0197
C90 C 0.8663(15) 0.4816(13) 0.0522(8)
H78 H 0.8444 0.4332 0.0497
C91 C 0.5591(14) 1.0921(11) -0.0385(7)
H79 H 0.6015 1.1270 -0.0345
H80 H 0.5068 1.1012 -0.0101
C92 C 0.4356(14) 1.2092(16) -0.1589(10)
H81 H 0.3938 1.2608 -0.1668
C93 C 0.4708(15) 1.1887(12) -0.1068(8)
H82 H 0.4526 1.2268 -0.0810
C94 C 0.5300(13) 1.1147(13) -0.0944(7)
C95 C 0.5566(16) 1.0628(14) -0.1342(7)
H83 H 0.5976 1.0103 -0.1275
C96 C 0.5214(16) 1.0900(14) -0.1845(8)
H84 H 0.5433 1.0565 -0.2127
Hg6_2 Hg 0.38167(7) 1.17780(7) -0.27517(4)
N12_2 N 0.4594(11) 0.1595(12) 0.8049(7)
O13 O 0.336(4) 0.438(2) 0.8213(13)
O14 O 0.957(3) 0.0604(19) 0.6724(17)
loop_
_geom_bond_atom_site_label_1
_geom_bond_atom_site_label_2
_geom_bond_site_symmetry_1
_geom_bond_site_symmetry_2
Hg1 I1 1_555 1_555
Hg2 I3 1_555 1_555
Hg3 I5 1_555 1_555
Hg4 I7 1_555 1_555
Hg5 I9 1_555 1_555
Hg6 I11 1_555 1_555
I2 Hg1 1_555 1_555
I4 Hg2 1_555 1_555
I6 Hg3 1_555 1_555
I8 Hg4 1_555 1_555
I10 Hg5 1_555 1_555
I12 Hg6 1_555 1_555
O1 C1 1_555 1_555
O2 C3 1_555 1_555
O3 C5 1_555 1_555
O4 C25 1_555 1_555
O5 C27 1_555 1_555
O6 C29 1_555 1_555
O7 C49 1_555 1_555
O8 C51 1_555 1_555
O9 C53 1_555 1_555
O10 C73 1_555 1_555
O11 C75 1_555 1_555
O12 C77 1_555 1_555
N1 Hg1 1_555 1_555
N2 Hg2 1_555 1_555
N3 Hg3 1_555 1_555
N4 Hg1 1_555 1_555
N5 Hg2 1_555 1_555
N6 C44 1_555 1_555
N7 Hg4 1_555 1_555
N8 Hg5 1_555 1_555
N9 Hg6 1_555 1_555
N10 Hg4 1_555 1_555
N11 Hg5 1_555 1_555
N12 C92 1_555 1_555
C1 C2 1_555 1_555
C2 H1 1_555 1_555
C3 C2 1_555 1_555
C4 C3 1_555 1_555
H2 C4 1_555 1_555
C5 C4 1_555 1_555
C6 C1 1_555 1_555
H3 C6 1_555 1_555
C7 O1 1_555 1_555
H4 C7 1_555 1_555
H5 C7 1_555 1_555
C8 N1 1_555 1_555
H6 C8 1_555 1_555
C9 C8 1_555 1_555
H7 C9 1_555 1_555
C10 C7 1_555 1_555
C11 C10 1_555 1_555
H8 C11 1_555 1_555
C12 N1 1_555 1_555
H9 C12 1_555 1_555
C13 O2 1_555 1_555
H10 C13 1_555 1_555
H11 C13 1_555 1_555
C14 N2 1_555 1_555
H12 C14 1_555 1_555
C15 C14 1_555 1_555
H13 C15 1_555 1_555
C16 C13 1_555 1_555
C17 C16 1_555 1_555
H14 C17 1_555 1_555
C18 N2 1_555 1_555
H15 C18 1_555 1_555
C19 O3 1_555 1_555
H16 C19 1_555 1_555
H17 C19 1_555 1_555
C20 N3 1_555 1_555
H18 C20 1_555 1_555
C21 C20 1_555 1_555
H19 C21 1_555 1_555
C22 C19 1_555 1_555
C23 C22 1_555 1_555
H20 C23 1_555 1_555
C24 N3 1_555 1_555
H21 C24 1_555 1_555
C25 C26 1_555 1_555
C26 H22 1_555 1_555
C27 C26 1_555 1_555
C28 C27 1_555 1_555
H23 C28 1_555 1_555
C29 C28 1_555 1_555
C30 C25 1_555 1_555
H24 C30 1_555 1_555
C31 O4 1_555 1_555
H25 C31 1_555 1_555
H26 C31 1_555 1_555
C32 N4 1_555 1_555
H27 C32 1_555 1_555
C33 C32 1_555 1_555
H28 C33 1_555 1_555
C34 C31 1_555 1_555
C35 C34 1_555 1_555
H29 C35 1_555 1_555
C36 N4 1_555 1_555
H30 C36 1_555 1_555
C37 O5 1_555 1_555
H31 C37 1_555 1_555
H32 C37 1_555 1_555
C38 N5 1_555 1_555
H33 C38 1_555 1_555
C39 C38 1_555 1_555
H34 C39 1_555 1_555
C40 C37 1_555 1_555
C41 C40 1_555 1_555
H35 C41 1_555 1_555
C42 N5 1_555 1_555
H36 C42 1_555 1_555
C43 O6 1_555 1_555
H37 C43 1_555 1_555
H38 C43 1_555 1_555
C44 H39 1_555 1_555
C45 C44 1_555 1_555
H40 C45 1_555 1_555
C46 C43 1_555 1_555
C47 C46 1_555 1_555
H41 C47 1_555 1_555
C48 N6 1_555 1_555
H42 C48 1_555 1_555
C49 C50 1_555 1_555
C50 H43 1_555 1_555
C51 C50 1_555 1_555
C52 C51 1_555 1_555
H44 C52 1_555 1_555
C53 C52 1_555 1_555
C54 C49 1_555 1_555
H45 C54 1_555 1_555
C55 O7 1_555 1_555
H46 C55 1_555 1_555
H47 C55 1_555 1_555
C56 N7 1_555 1_555
H48 C56 1_555 1_555
C57 C56 1_555 1_555
H49 C57 1_555 1_555
C58 C55 1_555 1_555
C59 C58 1_555 1_555
H50 C59 1_555 1_555
C60 N7 1_555 1_555
H51 C60 1_555 1_555
C61 O8 1_555 1_555
H52 C61 1_555 1_555
H53 C61 1_555 1_555
C62 N8 1_555 1_555
H54 C62 1_555 1_555
C63 C62 1_555 1_555
H55 C63 1_555 1_555
C64 C61 1_555 1_555
C65 C64 1_555 1_555
H56 C65 1_555 1_555
C66 N8 1_555 1_555
H57 C66 1_555 1_555
C67 O9 1_555 1_555
H58 C67 1_555 1_555
H59 C67 1_555 1_555
C68 N9 1_555 1_555
H60 C68 1_555 1_555
C69 C68 1_555 1_555
H61 C69 1_555 1_555
C70 C67 1_555 1_555
C71 C70 1_555 1_555
H62 C71 1_555 1_555
C72 N9 1_555 1_555
H63 C72 1_555 1_555
C73 C74 1_555 1_555
C74 H64 1_555 1_555
C75 C74 1_555 1_555
C76 C75 1_555 1_555
H65 C76 1_555 1_555
C77 C76 1_555 1_555
C78 C73 1_555 1_555
H66 C78 1_555 1_555
C79 O10 1_555 1_555
H67 C79 1_555 1_555
H68 C79 1_555 1_555
C80 N10 1_555 1_555
H69 C80 1_555 1_555
C81 C80 1_555 1_555
H70 C81 1_555 1_555
C82 C79 1_555 1_555
C83 C82 1_555 1_555
H71 C83 1_555 1_555
C84 N10 1_555 1_555
H72 C84 1_555 1_555
C85 O11 1_555 1_555
H73 C85 1_555 1_555
H74 C85 1_555 1_555
C86 N11 1_555 1_555
H75 C86 1_555 1_555
C87 C86 1_555 1_555
H76 C87 1_555 1_555
C88 C85 1_555 1_555
C89 C88 1_555 1_555
H77 C89 1_555 1_555
C90 N11 1_555 1_555
H78 C90 1_555 1_555
C91 O12 1_555 1_555
H79 C91 1_555 1_555
H80 C91 1_555 1_555
C92 H81 1_555 1_555
C93 C92 1_555 1_555
H82 C93 1_555 1_555
C94 C91 1_555 1_555
C95 C94 1_555 1_555
H83 C95 1_555 1_555
C96 N12 1_555 1_555
H84 C96 1_555 1_555
Hg3_2 N6 1_555 1_555
Hg6_2 N12 1_555 1_555
N6_2 Hg3 1_555 1_555
N12_2 Hg6 1_555 1_555
C5 C6 1_555 1_555
C9 C10 1_555 1_555
C11 C12 1_555 1_555
C15 C16 1_555 1_555
C17 C18 1_555 1_555
C21 C22 1_555 1_555
C23 C24 1_555 1_555
C29 C30 1_555 1_555
C33 C34 1_555 1_555
C35 C36 1_555 1_555
C39 C40 1_555 1_555
C41 C42 1_555 1_555
C45 C46 1_555 1_555
C47 C48 1_555 1_555
C53 C54 1_555 1_555
C57 C58 1_555 1_555
C59 C60 1_555 1_555
C63 C64 1_555 1_555
C65 C66 1_555 1_555
C69 C70 1_555 1_555
C71 C72 1_555 1_555
C77 C78 1_555 1_555
C81 C82 1_555 1_555
C83 C84 1_555 1_555
C87 C88 1_555 1_555
C89 C90 1_555 1_555
C93 C94 1_555 1_555
C95 C96 1_555 1_555

#END
