
#######################################################################
#
#                 Cambridge Crystallographic Data Centre
#                                CCDC 
#
#######################################################################
#
# If this CIF has been generated from an entry in the Cambridge 
# Structural Database, then it will include bibliographic, chemical, 
# crystal, experimental, refinement or atomic coordinate data resulting 
# from the CCDC's data processing and validation procedures.
#
#######################################################################

data_WEQRAM
_symmetry_cell_setting           orthorhombic
_symmetry_space_group_name_H-M   'P c c n'
_symmetry_Int_Tables_number      56
_space_group_name_Hall           '-P 2ab 2ac'
loop_
_symmetry_equiv_pos_site_id
_symmetry_equiv_pos_as_xyz
1 x,y,z
2 1/2-x,1/2-y,z
3 1/2+x,-y,1/2-z
4 -x,1/2+y,1/2-z
5 -x,-y,-z
6 1/2+x,1/2+y,-z
7 1/2-x,y,1/2+z
8 x,1/2-y,1/2+z
_cell_length_a                   17.9459(5)
_cell_length_b                   11.4012(3)
_cell_length_c                   16.2390(5)
_cell_angle_alpha                90
_cell_angle_beta                 90
_cell_angle_gamma                90
_cell_volume                     3322.58
loop_
_atom_site_label
_atom_site_type_symbol
_atom_site_fract_x
_atom_site_fract_y
_atom_site_fract_z
Co1 Co 0.56611(4) 0.03625(6) 0.10428(4)
S1 S 0.81220(7) -0.00347(14) 0.27336(8)
O1 O 0.6920(2) 0.0291(4) 0.1398(2)
O2 O 0.6000(2) 0.0443(4) 0.2286(2)
O3 O 0.95489(17) -0.0349(3) 0.3671(2)
O4 O 0.9135(2) 0.0454(3) 0.4835(2)
N1 N 0.5651(2) 0.2252(3) 0.1017(3)
N2 N 0.5710(2) 0.8486(3) 0.1040(3)
C1 C 0.5052(3) 0.4099(5) 0.1240(4)
H1 H 0.4624 0.4498 0.1400
C2 C 0.5059(3) 0.2887(5) 0.1233(4)
H2 H 0.4627 0.2494 0.1387
C3 C 0.6260(3) 0.2850(5) 0.0815(4)
H3 H 0.6686 0.2428 0.0678
C4 C 0.6299(3) 0.4066(5) 0.0797(4)
H4 H 0.6738 0.4437 0.0642
C5 C 0.5681(3) 0.4722(4) 0.1010(3)
C6 C 0.5703(3) 0.6031(4) 0.1022(3)
C7 C 0.6194(3) 0.6666(5) 0.0539(4)
H5 H 0.6530 0.6282 0.0197
C8 C 0.6180(3) 0.7877(5) 0.0570(4)
H6 H 0.6517 0.8289 0.0245
C9 C 0.5244(3) 0.7864(5) 0.1519(4)
H7 H 0.4917 0.8269 0.1860
C10 C 0.5226(3) 0.6659(5) 0.1529(4)
H8 H 0.4895 0.6267 0.1874
C11 C 0.6686(3) 0.0374(5) 0.2121(3)
C12 C 0.7215(3) 0.0403(5) 0.2826(3)
C13 C 0.7066(3) 0.0762(7) 0.3612(4)
H9 H 0.6600 0.1019 0.3785
C14 C 0.7690(3) 0.0701(7) 0.4130(4)
H10 H 0.7684 0.0930 0.4679
C15 C 0.8301(3) 0.0277(5) 0.3747(3)
C16 C 0.9052(3) 0.0104(4) 0.4110(3)
Co1B Co 1.06611(4) -0.03625(6) 0.39572(4)
Co1F Co 0.93389(4) 0.03625(6) 0.60428(4)
Co1_2 Co 0.56611(4) 1.03625(6) 0.10428(4)
O3B O 0.45489(17) 0.0349(3) 0.1329(2)
O4F O 0.5865(2) 0.0454(3) -0.0165(2)
N2_2 N 0.5710(2) -0.1514(3) 0.1040(3)
loop_
_geom_bond_atom_site_label_1
_geom_bond_atom_site_label_2
_geom_bond_site_symmetry_1
_geom_bond_site_symmetry_2
Co1 O1 1_555 1_555
S1 C12 1_555 1_555
O1 C11 1_555 1_555
O2 Co1 1_555 1_555
O3 C16 1_555 1_555
O4 C16 1_555 1_555
N1 Co1 1_555 1_555
N2 C8 1_555 1_555
C1 H1 1_555 1_555
C2 N1 1_555 1_555
H2 C2 1_555 1_555
C3 N1 1_555 1_555
H3 C3 1_555 1_555
C4 C3 1_555 1_555
H4 C4 1_555 1_555
C5 C1 1_555 1_555
C6 C5 1_555 1_555
C7 C6 1_555 1_555
H5 C7 1_555 1_555
C8 C7 1_555 1_555
H6 C8 1_555 1_555
C9 N2 1_555 1_555
H7 C9 1_555 1_555
C10 C6 1_555 1_555
H8 C10 1_555 1_555
C11 O2 1_555 1_555
C12 C11 1_555 1_555
C13 C12 1_555 1_555
H9 C13 1_555 1_555
C14 C13 1_555 1_555
H10 C14 1_555 1_555
C15 S1 1_555 1_555
C16 C15 1_555 1_555
Co1B O3 1_555 1_555
Co1F O4 1_555 1_555
Co1_2 N2 1_555 1_555
O3B Co1 1_555 1_555
O4F Co1 1_555 1_555
N2_2 Co1 1_555 1_555
C1 C2 1_555 1_555
C4 C5 1_555 1_555
C9 C10 1_555 1_555
C14 C15 1_555 1_555

#END
