
#######################################################################
#
#                 Cambridge Crystallographic Data Centre
#                                CCDC 
#
#######################################################################
#
# If this CIF has been generated from an entry in the Cambridge 
# Structural Database, then it will include bibliographic, chemical, 
# crystal, experimental, refinement or atomic coordinate data resulting 
# from the CCDC's data processing and validation procedures.
#
#######################################################################

data_WEQTOC
_symmetry_cell_setting           monoclinic
_symmetry_space_group_name_H-M   'C 2/c'
_symmetry_Int_Tables_number      15
_space_group_name_Hall           '-C 2yn'
loop_
_symmetry_equiv_pos_site_id
_symmetry_equiv_pos_as_xyz
1 x,y,z
2 1/2+x,1/2+y,z
3 -x,y,1/2-z
4 1/2-x,1/2+y,1/2-z
5 -x,-y,-z
6 1/2-x,1/2-y,-z
7 x,-y,1/2+z
8 1/2+x,1/2-y,1/2+z
_cell_length_a                   20.457(11)
_cell_length_b                   25.429(14)
_cell_length_c                   14.537(8)
_cell_angle_alpha                90
_cell_angle_beta                 122.662(6)
_cell_angle_gamma                90
_cell_volume                     6366.35
loop_
_atom_site_label
_atom_site_type_symbol
_atom_site_fract_x
_atom_site_fract_y
_atom_site_fract_z
O1 O 0.19824(13) 0.93372(10) 0.41401(17)
H25 H 0.1740 0.9593 0.4146
O2 O 0.32583(15) 0.92949(12) 0.6419(2)
H26 H 0.3283 0.9434 0.5930
C23 C 0.2627(2) 0.90282(17) 0.6000(3)
H27 H 0.2362 0.9170 0.6331
H28 H 0.2792 0.8677 0.6299
C24 C 0.2049(3) 0.89500(18) 0.4916(4)
H29 H 0.1556 0.8934 0.4863
H30 H 0.2132 0.8609 0.4696
O3 O 0.2101(5) 0.2141(4) 0.2320(11)
Co1 Co 0.5000 0.247572(15) 0.2500
N1 N 0.53025(9) 0.48306(7) -0.15177(13)
N2 N 0.60900(10) 0.48132(8) -0.07873(15)
N3 N 0.51539(9) 0.30848(7) 0.15757(12)
N4 N 0.48349(9) 0.18740(7) 0.34082(12)
N5 N 0.46864(9) 0.01348(7) 0.65084(12)
N6 N 0.39093(9) 0.01196(7) 0.57536(12)
C1 C 0.5000 0.51421(13) -0.2500
H1 H 0.4589 0.5367 -0.2580
C2 C 0.70157(14) 0.43719(13) 0.0929(2)
H3 H 0.7372 0.4597 0.0878
H4 H 0.7138 0.4011 0.0893
H5 H 0.7057 0.4434 0.1610
C3 C 0.62000(12) 0.44877(10) -0.00020(18)
C4 C 0.54744(11) 0.42717(9) -0.02500(16)
C5 C 0.49187(12) 0.45049(10) -0.12066(17)
C6 C 0.40641(13) 0.44745(13) -0.1852(2)
H6 H 0.3885 0.4406 -0.1374
H7 H 0.3898 0.4196 -0.2378
H8 H 0.3852 0.4802 -0.2225
C7 C 0.53602(11) 0.38733(9) 0.03732(16)
C8 C 0.57921(12) 0.38636(10) 0.15250(16)
H9 H 0.6155 0.4125 0.1921
C9 C 0.56740(13) 0.34670(10) 0.20569(18)
H10 H 0.5983 0.3465 0.2816
C10 C 0.47422(13) 0.30879(10) 0.04806(18)
H11 H 0.4379 0.2823 0.0112
C11 C 0.48312(13) 0.34689(10) -0.01324(19)
H12 H 0.4531 0.3451 -0.0891
C12 C 0.29931(13) 0.05182(12) 0.3989(2)
H13 H 0.2698 0.0204 0.3877
H14 H 0.3024 0.0581 0.3361
H15 H 0.2743 0.0811 0.4092
C13 C 0.5000 -0.01811(12) 0.7500
H16 H 0.4592 -0.0406 0.7428
H17 H 0.5408 -0.0406 0.7572
C14 C 0.59305(12) 0.05353(12) 0.69152(19)
H18 H 0.6110 0.0456 0.7661
H19 H 0.6057 0.0893 0.6863
H20 H 0.6177 0.0304 0.6670
C15 C 0.50649(11) 0.04615(8) 0.62125(15)
C16 C 0.45099(11) 0.06823(8) 0.52250(15)
C17 C 0.37904(11) 0.04541(9) 0.49743(16)
C18 C 0.46195(11) 0.10819(9) 0.45940(15)
C19 C 0.52472(11) 0.10829(9) 0.44684(16)
H21 H 0.5616 0.0817 0.4787
C20 C 0.53304(12) 0.14698(9) 0.38822(16)
H22 H 0.5754 0.1451 0.3808
C21 C 0.42210(12) 0.18816(10) 0.35185(17)
H23 H 0.3868 0.2157 0.3200
C22 C 0.40908(12) 0.15010(9) 0.40817(18)
H24 H 0.3653 0.1521 0.4123
N7 N 0.37928(14) 0.24882(15) 0.1234(3)
C25 C 0.31347(18) 0.24975(19) 0.0847(4)
N8 N 0.24027(18) 0.2480(3) 0.0499(3)
N1B N 0.46975(9) 0.48306(7) -0.34823(13)
N3B N 0.48461(9) 0.30848(7) 0.34243(12)
N4B N 0.51651(9) 0.18740(7) 0.15918(12)
N5B N 0.53136(9) 0.01348(7) 0.84916(12)
H1B H 0.5411 0.5367 -0.2420
N7B N 0.62072(14) 0.24882(15) 0.3766(3)
C25E C 0.18653(18) 0.25025(19) -0.0847(4)
N8E N 0.25973(18) 0.2520(3) -0.0499(3)
H2? H 0.5411 0.5367 -0.2420
N9? N 0.1252(2) 0.25312(17) -0.1351(3)
C26? C 0.1804(2) 0.2525(2) -0.0492(3)
loop_
_geom_bond_atom_site_label_1
_geom_bond_atom_site_label_2
_geom_bond_site_symmetry_1
_geom_bond_site_symmetry_2
Co1 N3 1_555 1_555
N1 N2 1_555 1_555
N2 C3 1_555 1_555
N3 C9 1_555 1_555
N4 Co1 1_555 1_555
N5 N6 1_555 1_555
N6 C17 1_555 1_555
C1 N1 1_555 1_555
H1 C1 1_555 1_555
C2 H3 1_555 1_555
H4 C2 1_555 1_555
H5 C2 1_555 1_555
C3 C2 1_555 1_555
C4 C3 1_555 1_555
C5 N1 1_555 1_555
C6 C5 1_555 1_555
H6 C6 1_555 1_555
H7 C6 1_555 1_555
H8 C6 1_555 1_555
C7 C4 1_555 1_555
C8 C7 1_555 1_555
H9 C8 1_555 1_555
C9 C8 1_555 1_555
H10 C9 1_555 1_555
C10 N3 1_555 1_555
H11 C10 1_555 1_555
C11 C7 1_555 1_555
H12 C11 1_555 1_555
C12 H13 1_555 1_555
H14 C12 1_555 1_555
H15 C12 1_555 1_555
C13 N5 1_555 1_555
H16 C13 1_555 1_555
H17 C13 1_555 1_555
C14 H18 1_555 1_555
H19 C14 1_555 1_555
H20 C14 1_555 1_555
C15 N5 1_555 1_555
C16 C15 1_555 1_555
C17 C12 1_555 1_555
C18 C16 1_555 1_555
C19 C18 1_555 1_555
H21 C19 1_555 1_555
C20 N4 1_555 1_555
H22 C20 1_555 1_555
C21 N4 1_555 1_555
H23 C21 1_555 1_555
C22 C18 1_555 1_555
H24 C22 1_555 1_555
O1 H25 1_555 1_555
O2 H26 1_555 1_555
C23 O2 1_555 1_555
H27 C23 1_555 1_555
H28 C23 1_555 1_555
C24 O1 1_555 1_555
H29 C24 1_555 1_555
H30 C24 1_555 1_555
N7 Co1 1_555 1_555
C25 N7 1_555 1_555
N8 C25 1_555 1_555
N1B C1 1_555 1_555
N3B Co1 1_555 1_555
N4B Co1 1_555 1_555
N5B C13 1_555 1_555
H1B C1 1_555 1_555
N7B Co1 1_555 1_555
C25E N8 1_555 1_555
N8E C25 1_555 1_555
C4 C5 1_555 1_555
C10 C11 1_555 1_555
C14 C15 1_555 1_555
C16 C17 1_555 1_555
C19 C20 1_555 1_555
C21 C22 1_555 1_555
C23 C24 1_555 1_555
N8 N8E 1_555 1_555
C25E N8E 1_555 1_555

#END
