
#######################################################################
#
#                 Cambridge Crystallographic Data Centre
#                                CCDC 
#
#######################################################################
#
# If this CIF has been generated from an entry in the Cambridge 
# Structural Database, then it will include bibliographic, chemical, 
# crystal, experimental, refinement or atomic coordinate data resulting 
# from the CCDC's data processing and validation procedures.
#
#######################################################################

data_WEQTUI
_symmetry_cell_setting           orthorhombic
_symmetry_space_group_name_H-M   'P c c a'
_symmetry_Int_Tables_number      54
_space_group_name_Hall           '-P 2a 2ac'
loop_
_symmetry_equiv_pos_site_id
_symmetry_equiv_pos_as_xyz
1 x,y,z
2 1/2-x,-y,z
3 1/2+x,-y,1/2-z
4 -x,y,1/2-z
5 -x,-y,-z
6 1/2+x,y,-z
7 1/2-x,y,1/2+z
8 x,-y,1/2+z
_cell_length_a                   22.923(3)
_cell_length_b                   24.682(4)
_cell_length_c                   8.3340(12)
_cell_angle_alpha                90
_cell_angle_beta                 90
_cell_angle_gamma                90
_cell_volume                     4715.26
loop_
_atom_site_label
_atom_site_type_symbol
_atom_site_fract_x
_atom_site_fract_y
_atom_site_fract_z
Co1 Co 0.0000 0.26055(3) -0.2500
N1 N 0.04719(16) 0.32010(14) -0.1119(5)
N2 N 0.20091(16) 0.48352(15) 0.3146(4)
N3 N 0.16698(16) 0.52331(13) 0.2502(5)
N4 N 0.04676(16) 0.19801(14) -0.1195(5)
N5 N 0.20313(14) 0.02120(14) 0.2483(5)
N6 N 0.16720(16) -0.01522(14) 0.1750(4)
N7 N 0.06612(19) 0.26044(17) -0.4224(5)
N8 N 0.1556(3) 0.2397(3) -0.5653(9)
N9 N 0.2562(3) 0.2575(2) -0.5066(10)
C1 C 0.1068(2) 0.39822(17) 0.0736(5)
C2 C 0.1351(2) 0.35509(17) 0.0017(6)
H1 H 0.1752 0.3511 0.0145
C3 C 0.1047(2) 0.31825(18) -0.0880(6)
H2 H 0.1255 0.2901 -0.1354
C4 C 0.0192(2) 0.36101(18) -0.0377(6)
H3 H -0.0212 0.3631 -0.0482
C5 C 0.0468(2) 0.39969(18) 0.0523(6)
H4 H 0.0251 0.4272 0.0996
C6 C 0.13806(19) 0.44030(17) 0.1640(5)
C7 C 0.1282(2) 0.49690(18) 0.1605(5)
C8 C 0.0833(2) 0.52914(18) 0.0740(6)
H5 H 0.0477 0.5292 0.1347
H6 H 0.0763 0.5133 -0.0295
H7 H 0.0969 0.5657 0.0608
C9 C 0.18545(19) 0.43324(17) 0.2649(6)
C10 C 0.2151(2) 0.38325(17) 0.3256(6)
H8 H 0.2535 0.3809 0.2804
H9 H 0.1929 0.3519 0.2950
H10 H 0.2179 0.3848 0.4405
C11 C 0.2500 0.5000 0.4118(8)
H11 H 0.2616 0.4701 0.4803
H12 H 0.2384 0.5299 0.4803
C12 C 0.1097(2) 0.11555(18) 0.0369(6)
C13 C 0.0861(2) 0.15820(19) 0.1201(6)
H13 H 0.0909 0.1604 0.2307
C14 C 0.0549(2) 0.1983(2) 0.0388(7)
H14 H 0.0391 0.2266 0.0981
C15 C 0.0704(2) 0.15701(18) -0.1993(6)
H15 H 0.0658 0.1561 -0.3101
C16 C 0.1016(2) 0.11565(18) -0.1277(6)
H16 H 0.1172 0.0879 -0.1899
C17 C 0.1420(2) 0.07056(17) 0.1135(6)
C18 C 0.1889(2) 0.07306(17) 0.2156(6)
C19 C 0.2225(2) 0.12072(17) 0.2770(6)
H17 H 0.2175 0.1235 0.3911
H18 H 0.2084 0.1532 0.2267
H19 H 0.2631 0.1161 0.2527
C20 C 0.12997(19) 0.01459(18) 0.0926(6)
C21 C 0.0811(2) -0.01228(19) 0.0048(6)
H20 H 0.0959 -0.0289 -0.0912
H21 H 0.0522 0.0142 -0.0230
H22 H 0.0639 -0.0395 0.0720
C22 C 0.2500 0.0000 0.3458(8)
H23 H 0.2350 -0.0286 0.4143
H24 H 0.2650 0.0286 0.4143
C23 C 0.1098(3) 0.2526(2) -0.4828(8)
C24 C 0.2091(3) 0.2502(2) -0.5245(9)
Co1A Co 0.5000 0.73945(3) -0.2500
Co1A_2 Co 0.5000 -0.26055(3) -0.2500
N1A N 0.45281(16) 0.67990(14) -0.1119(5)
N1C N -0.04719(16) 0.32010(14) -0.3881(5)
N2A N 0.29909(16) 0.51648(15) 0.3146(4)
N3A N 0.33302(16) 0.47669(13) 0.2502(5)
N4A N 0.45324(16) -0.19801(14) -0.1195(5)
N4C N -0.04676(16) 0.19801(14) -0.3805(5)
N5A N 0.29687(14) -0.02120(14) 0.2483(5)
N6A N 0.33280(16) 0.01522(14) 0.1750(4)
N7C N -0.06612(19) 0.26044(17) -0.0776(5)
N8C N -0.1556(3) 0.2397(3) 0.0653(9)
N9C N -0.2562(3) 0.2575(2) 0.0066(10)
C1A C 0.3932(2) 0.60178(17) 0.0736(5)
C2A C 0.3649(2) 0.64491(17) 0.0017(6)
H1A H 0.3248 0.6489 0.0145
C3A C 0.3953(2) 0.68175(18) -0.0880(6)
H2A H 0.3745 0.7099 -0.1354
C4A C 0.4808(2) 0.63899(18) -0.0377(6)
H3A H 0.5212 0.6369 -0.0482
C5A C 0.4532(2) 0.60031(18) 0.0523(6)
H4A H 0.4749 0.5728 0.0996
C6A C 0.36194(19) 0.55970(17) 0.1640(5)
C7A C 0.3718(2) 0.50310(18) 0.1605(5)
C8A C 0.4167(2) 0.47086(18) 0.0740(6)
H5A H 0.4523 0.4708 0.1347
H6A H 0.4237 0.4867 -0.0295
H7A H 0.4031 0.4343 0.0608
C9A C 0.31455(19) 0.56676(17) 0.2649(6)
C10A C 0.2849(2) 0.61675(17) 0.3256(6)
H8A H 0.2465 0.6191 0.2804
H9A H 0.3071 0.6481 0.2950
H10A H 0.2821 0.6152 0.4405
C12A C 0.3903(2) -0.11555(18) 0.0369(6)
C13A C 0.4139(2) -0.15820(19) 0.1201(6)
H13A H 0.4091 -0.1604 0.2307
C14A C 0.4451(2) -0.1983(2) 0.0388(7)
H14A H 0.4609 -0.2266 0.0981
C15A C 0.4296(2) -0.15701(18) -0.1993(6)
H15A H 0.4342 -0.1561 -0.3101
C16A C 0.3984(2) -0.11565(18) -0.1277(6)
H16A H 0.3828 -0.0879 -0.1899
C17A C 0.3580(2) -0.07056(17) 0.1135(6)
C18A C 0.3111(2) -0.07306(17) 0.2156(6)
C19A C 0.2775(2) -0.12072(17) 0.2770(6)
H17A H 0.2825 -0.1235 0.3911
H18A H 0.2916 -0.1532 0.2267
H19A H 0.2369 -0.1161 0.2527
C20A C 0.37003(19) -0.01459(18) 0.0926(6)
C21A C 0.4189(2) 0.01228(19) 0.0048(6)
H20A H 0.4041 0.0289 -0.0912
H21A H 0.4478 -0.0142 -0.0230
H22A H 0.4361 0.0395 0.0720
C23C C -0.1098(3) 0.2526(2) -0.0172(8)
C24C C -0.2091(3) 0.2502(2) 0.0245(9)
loop_
_geom_bond_atom_site_label_1
_geom_bond_atom_site_label_2
_geom_bond_site_symmetry_1
_geom_bond_site_symmetry_2
Co1 N1 1_555 1_555
N1 C3 1_555 1_555
N2 N3 1_555 1_555
N3 C7 1_555 1_555
N4 Co1 1_555 1_555
N5 N6 1_555 1_555
N6 C20 1_555 1_555
N7 Co1 1_555 1_555
N8 C23 1_555 1_555
N9 C24 1_555 1_555
C1 C2 1_555 1_555
C2 H1 1_555 1_555
C3 C2 1_555 1_555
H2 C3 1_555 1_555
C4 N1 1_555 1_555
H3 C4 1_555 1_555
C5 C1 1_555 1_555
H4 C5 1_555 1_555
C6 C1 1_555 1_555
C7 C6 1_555 1_555
C8 C7 1_555 1_555
H5 C8 1_555 1_555
H6 C8 1_555 1_555
H7 C8 1_555 1_555
C9 N2 1_555 1_555
C10 C9 1_555 1_555
H8 C10 1_555 1_555
H9 C10 1_555 1_555
H10 C10 1_555 1_555
C11 N2 1_555 1_555
H11 C11 1_555 1_555
H12 C11 1_555 1_555
C12 C13 1_555 1_555
C13 H13 1_555 1_555
C14 N4 1_555 1_555
H14 C14 1_555 1_555
C15 N4 1_555 1_555
H15 C15 1_555 1_555
C16 C12 1_555 1_555
H16 C16 1_555 1_555
C17 C12 1_555 1_555
C18 N5 1_555 1_555
C19 C18 1_555 1_555
H17 C19 1_555 1_555
H18 C19 1_555 1_555
H19 C19 1_555 1_555
C20 C17 1_555 1_555
C21 C20 1_555 1_555
H20 C21 1_555 1_555
H21 C21 1_555 1_555
H22 C21 1_555 1_555
C22 N5 1_555 1_555
H23 C22 1_555 1_555
H24 C22 1_555 1_555
C23 N7 1_555 1_555
C24 N8 1_555 1_555
Co1A N1A 1_555 1_555
Co1A_2 N4A 1_555 1_555
N1A C3A 1_555 1_555
N1C Co1 1_555 1_555
N2A C11 1_555 1_555
N3A N2A 1_555 1_555
N4A C14A 1_555 1_555
N4C Co1 1_555 1_555
N5A C22 1_555 1_555
N6A N5A 1_555 1_555
N7C Co1 1_555 1_555
N8C C23C 1_555 1_555
N9C C24C 1_555 1_555
C1A C2A 1_555 1_555
C2A H1A 1_555 1_555
C3A C2A 1_555 1_555
H2A C3A 1_555 1_555
C4A N1A 1_555 1_555
H3A C4A 1_555 1_555
C5A C1A 1_555 1_555
H4A C5A 1_555 1_555
C6A C1A 1_555 1_555
C7A N3A 1_555 1_555
C8A C7A 1_555 1_555
H5A C8A 1_555 1_555
H6A C8A 1_555 1_555
H7A C8A 1_555 1_555
C9A N2A 1_555 1_555
C10A C9A 1_555 1_555
H8A C10A 1_555 1_555
H9A C10A 1_555 1_555
H10A C10A 1_555 1_555
C12A C13A 1_555 1_555
C13A H13A 1_555 1_555
C14A C13A 1_555 1_555
H14A C14A 1_555 1_555
C15A N4A 1_555 1_555
H15A C15A 1_555 1_555
C16A C12A 1_555 1_555
H16A C16A 1_555 1_555
C17A C12A 1_555 1_555
C18A N5A 1_555 1_555
C19A C18A 1_555 1_555
H17A C19A 1_555 1_555
H18A C19A 1_555 1_555
H19A C19A 1_555 1_555
C20A N6A 1_555 1_555
C21A C20A 1_555 1_555
H20A C21A 1_555 1_555
H21A C21A 1_555 1_555
H22A C21A 1_555 1_555
C23C N7C 1_555 1_555
C24C N8C 1_555 1_555
C4 C5 1_555 1_555
C6 C9 1_555 1_555
C13 C14 1_555 1_555
C15 C16 1_555 1_555
C17 C18 1_555 1_555
C4A C5A 1_555 1_555
C6A C7A 1_555 1_555
C6A C9A 1_555 1_555
C15A C16A 1_555 1_555
C17A C18A 1_555 1_555
C17A C20A 1_555 1_555

#END
