
#######################################################################
#
#                 Cambridge Crystallographic Data Centre
#                                CCDC 
#
#######################################################################
#
# If this CIF has been generated from an entry in the Cambridge 
# Structural Database, then it will include bibliographic, chemical, 
# crystal, experimental, refinement or atomic coordinate data resulting 
# from the CCDC's data processing and validation procedures.
#
#######################################################################

data_WEQTER
_symmetry_cell_setting           triclinic
_symmetry_space_group_name_H-M   'P -1'
_symmetry_Int_Tables_number      2
_space_group_name_Hall           '-P 1'
loop_
_symmetry_equiv_pos_site_id
_symmetry_equiv_pos_as_xyz
1 x,y,z
2 -x,-y,-z
_cell_length_a                   7.084(3)
_cell_length_b                   10.627(4)
_cell_length_c                   11.038(5)
_cell_angle_alpha                71.59(3)
_cell_angle_beta                 87.83(4)
_cell_angle_gamma                85.62(4)
_cell_volume                     786.046
loop_
_atom_site_label
_atom_site_type_symbol
_atom_site_fract_x
_atom_site_fract_y
_atom_site_fract_z
Pb1 Pb -0.24230(10) -0.00870(10) -0.11100(10)
Cl1 Cl -0.2538(5) 0.2417(3) -0.4133(2)
O1 O 0.1075(9) -0.0545(9) -0.0883(7)
O2 O 0.4144(9) -0.0556(9) -0.0897(7)
O3 O -0.098(2) 0.189(2) -0.3395(15)
O4 O -0.403(2) 0.196(3) -0.3374(15)
O5 O -0.260(5) 0.3737(14) -0.470(2)
O6 O -0.244(4) 0.203(3) -0.515(2)
N1 N -0.2282(11) -0.1874(8) -0.2201(7)
N2 N -0.2271(12) -0.2412(7) 0.0402(7)
C1 C 0.2693(13) -0.0619(9) -0.1456(9)
C2 C 0.2672(15) -0.0703(13) -0.2784(12)
C3 C -0.2320(18) -0.1646(12) -0.3454(10)
C4 C -0.2462(18) -0.2552(16) -0.4022(12)
C5 C -0.262(2) -0.3876(15) -0.3298(15)
C6 C -0.2552(18) -0.4182(12) -0.1950(13)
C7 C -0.2401(13) -0.3139(9) -0.1456(10)
C8 C -0.2368(13) -0.3439(8) -0.0094(10)
C9 C -0.2420(19) -0.4750(10) 0.0699(14)
C10 C -0.232(2) -0.5032(10) 0.2040(12)
C11 C -0.222(2) -0.3992(12) 0.2486(12)
C12 C -0.2208(18) -0.2690(10) 0.1676(10)
C13 C -0.255(2) -0.5787(12) 0.0156(17)
C14 C -0.264(2) -0.5536(14) -0.1128(16)
H1 H 0.1391(15) -0.0744(13) -0.3017(12)
H2 H 0.3410(15) -0.1485(13) -0.2819(12)
H3 H 0.3201(15) 0.0068(13) -0.3367(12)
H4 H -0.2240(18) -0.0772(12) -0.3974(10)
H5 H -0.2458(18) -0.2308(16) -0.4909(12)
H6 H -0.276(2) -0.4529(15) -0.3678(15)
H7 H -0.233(2) -0.5898(10) 0.2591(12)
H8 H -0.215(2) -0.4153(12) 0.3362(12)
H9 H -0.2157(18) -0.2001(10) 0.2021(10)
H10 H -0.258(2) -0.6659(12) 0.0692(17)
H11 H -0.276(2) -0.6222(14) -0.1468(16)
O1A O -0.1075(9) 0.0545(9) 0.0883(7)
O2A O -0.4144(9) 0.0556(9) 0.0897(7)
O2_2 O -0.5856(9) -0.0556(9) -0.0897(7)
Pb1A Pb 0.24230(10) 0.00870(10) 0.11100(10)
Pb1A_2 Pb -0.75770(10) 0.00870(10) 0.11100(10)
Pb1_2 Pb 0.75770(10) -0.00870(10) -0.11100(10)
loop_
_geom_bond_atom_site_label_1
_geom_bond_atom_site_label_2
_geom_bond_site_symmetry_1
_geom_bond_site_symmetry_2
Pb1 O1 1_555 1_555
Cl1 O3 1_555 1_555
O1 C1 1_555 1_555
O2 C1 1_555 1_555
O3 Pb1 1_555 1_555
O4 Pb1 1_555 1_555
O5 Cl1 1_555 1_555
O6 Cl1 1_555 1_555
N1 Pb1 1_555 1_555
N2 Pb1 1_555 1_555
C1 C2 1_555 1_555
C2 H1 1_555 1_555
C3 N1 1_555 1_555
C4 C3 1_555 1_555
C5 C4 1_555 1_555
C6 C5 1_555 1_555
C7 N1 1_555 1_555
C8 N2 1_555 1_555
C9 C8 1_555 1_555
C10 C9 1_555 1_555
C11 C10 1_555 1_555
C12 N2 1_555 1_555
C13 C9 1_555 1_555
C14 C6 1_555 1_555
H2 C2 1_555 1_555
H3 C2 1_555 1_555
H4 C3 1_555 1_555
H5 C4 1_555 1_555
H6 C5 1_555 1_555
H7 C10 1_555 1_555
H8 C11 1_555 1_555
H9 C12 1_555 1_555
H10 C13 1_555 1_555
H11 C14 1_555 1_555
O1A Pb1 1_555 1_555
O2A Pb1 1_555 1_555
O2_2 Pb1 1_555 1_555
Pb1A O1 1_555 1_555
Pb1A_2 O2A 1_555 1_555
Pb1_2 O2 1_555 1_555
Cl1 O4 1_555 1_555
O2 Pb1A 1_555 1_555
C6 C7 1_555 1_555
C7 C8 1_555 1_555
C11 C12 1_555 1_555
C13 C14 1_555 1_555
O1A Pb1A 1_555 1_555
O2_2 Pb1A_2 1_555 1_555

#END
