
#######################################################################
#
#                 Cambridge Crystallographic Data Centre
#                                CCDC 
#
#######################################################################
#
# If this CIF has been generated from an entry in the Cambridge 
# Structural Database, then it will include bibliographic, chemical, 
# crystal, experimental, refinement or atomic coordinate data resulting 
# from the CCDC's data processing and validation procedures.
#
#######################################################################

data_WEQVEU
_symmetry_cell_setting           monoclinic
_symmetry_space_group_name_H-M   'C 2/c'
_symmetry_Int_Tables_number      15
_space_group_name_Hall           '-C 2yn'
loop_
_symmetry_equiv_pos_site_id
_symmetry_equiv_pos_as_xyz
1 x,y,z
2 1/2+x,1/2+y,z
3 -x,y,1/2-z
4 1/2-x,1/2+y,1/2-z
5 -x,-y,-z
6 1/2-x,1/2-y,-z
7 x,-y,1/2+z
8 1/2+x,1/2-y,1/2+z
_cell_length_a                   25.192(5)
_cell_length_b                   11.485(5)
_cell_length_c                   18.005(5)
_cell_angle_alpha                90
_cell_angle_beta                 133.652(5)
_cell_angle_gamma                90
_cell_volume                     3769.23
loop_
_atom_site_label
_atom_site_type_symbol
_atom_site_fract_x
_atom_site_fract_y
_atom_site_fract_z
Cl1 Cl -0.2514(3) -0.0160(6) 0.0866(4)
O1 O -0.1844(11) -0.026(2) 0.1811(17)
O2 O -0.2497(11) 0.078(2) 0.0475(18)
O3 O -0.3082(12) -0.0035(19) 0.0773(16)
O4 O -0.2647(12) -0.077(2) 0.014(2)
Fe1 Fe 0.0000 0.2061(2) 0.2500
N1 N 0.0000 0.0129(14) 0.2500
C1 C 0.0623(10) -0.0465(12) 0.3190(13)
C2 C 0.0642(8) -0.1694(11) 0.3218(12)
C3 C 0.0000 -0.2321(14) 0.2500
N2 N 0.0653(8) 0.2000(10) 0.4136(9)
C4 C -0.0415(11) -0.5366(17) 0.1657(12)
N3 N 0.0000 -0.6029(13) 0.2500
C5 C -0.0412(12) -0.4247(14) 0.1608(15)
C6 C 0.0000 -0.3569(17) 0.2500
N4 N -0.0842(7) 0.2042(10) 0.2534(9)
C7 C 0.1732(14) 0.1753(16) 0.5921(17)
C8 C 0.1359(14) 0.1936(15) 0.4871(16)
C9 C 0.1383(15) 0.1621(17) 0.6177(18)
C10 C -0.0551(12) 0.1866(12) 0.3515(15)
C11 C 0.0239(12) 0.1835(11) 0.4375(13)
C12 C 0.0575(14) 0.1645(15) 0.5373(17)
C13 C 0.0076(15) 0.1456(17) 0.5538(18)
C14 C -0.0594(14) 0.1602(17) 0.4770(17)
C15 C -0.0941(14) 0.1702(14) 0.3764(16)
H1 H 0.1058 -0.0060 0.3678
H2 H 0.1083 -0.2090 0.3708
H3 H -0.0753 -0.5742 0.1028
H4 H -0.0664 -0.3873 0.0985
H5 H 0.2242 0.1731 0.6419
H6 H 0.1635 0.2006 0.4703
H7 H 0.1628 0.1508 0.6861
H8 H 0.0244 0.1276 0.6174
H9 H -0.0899 0.1618 0.4892
H10 H -0.1450 0.1672 0.3253
H11 H -0.1083 0.2713 0.2293
H12 H -0.1163 0.1487 0.2120
Fe1_2 Fe 0.0000 -0.7939(2) 0.2500
C1B C -0.0623(10) -0.0465(12) 0.1810(13)
C2B C -0.0642(8) -0.1694(11) 0.1782(12)
N2B N -0.0653(8) 0.2000(10) 0.0864(9)
C4B C 0.0415(11) -0.5366(17) 0.3343(12)
N3_2 N 0.0000 0.3971(13) 0.2500
C5B C 0.0412(12) -0.4247(14) 0.3392(15)
N4B N 0.0842(7) 0.2042(10) 0.2466(9)
C7B C -0.1732(14) 0.1753(16) -0.0921(17)
C8B C -0.1359(14) 0.1936(15) 0.0129(16)
C9B C -0.1383(15) 0.1621(17) -0.1177(18)
C10B C 0.0551(12) 0.1866(12) 0.1485(15)
C11B C -0.0239(12) 0.1835(11) 0.0625(13)
C12B C -0.0575(14) 0.1645(15) -0.0373(17)
C13B C -0.0076(15) 0.1456(17) -0.0538(18)
C14B C 0.0594(14) 0.1602(17) 0.0230(17)
C15B C 0.0941(14) 0.1702(14) 0.1236(16)
H1B H -0.1058 -0.0060 0.1322
H2B H -0.1083 -0.2090 0.1292
H3B H 0.0753 -0.5742 0.3972
H4B H 0.0664 -0.3873 0.4015
H5B H -0.2242 0.1731 -0.1419
H6B H -0.1635 0.2006 0.0297
H7B H -0.1628 0.1508 -0.1861
H8B H -0.0244 0.1276 -0.1174
H9B H 0.0899 0.1618 0.0108
H10B H 0.1450 0.1672 0.1747
H11B H 0.1083 0.2713 0.2707
H12B H 0.1163 0.1487 0.2880
loop_
_geom_bond_atom_site_label_1
_geom_bond_atom_site_label_2
_geom_bond_site_symmetry_1
_geom_bond_site_symmetry_2
Fe1 N1 1_555 1_555
Cl1 O1 1_555 1_555
N1 C1 1_555 1_555
C1 C2 1_555 1_555
C2 C3 1_555 1_555
C3 C6 1_555 1_555
N2 Fe1 1_555 1_555
C4 N3 1_555 1_555
N3 Fe1_2 1_555 1_555
C5 C4 1_555 1_555
C6 C5 1_555 1_555
N4 Fe1 1_555 1_555
C7 C8 1_555 1_555
C8 N2 1_555 1_555
O2 Cl1 1_555 1_555
C9 C7 1_555 1_555
O3 Cl1 1_555 1_555
O4 Cl1 1_555 1_555
C10 N4 1_555 1_555
C11 N2 1_555 1_555
C12 C9 1_555 1_555
C13 C12 1_555 1_555
C14 C13 1_555 1_555
C15 C10 1_555 1_555
H1 C1 1_555 1_555
H2 C2 1_555 1_555
H3 C4 1_555 1_555
H4 C5 1_555 1_555
H5 C7 1_555 1_555
H6 C8 1_555 1_555
H7 C9 1_555 1_555
H8 C13 1_555 1_555
H9 C14 1_555 1_555
H10 C15 1_555 1_555
H11 N4 1_555 1_555
H12 N4 1_555 1_555
C1B N1 1_555 1_555
C2B C3 1_555 1_555
N2B Fe1 1_555 1_555
C4B N3 1_555 1_555
N3_2 Fe1 1_555 1_555
C5B C6 1_555 1_555
N4B Fe1 1_555 1_555
C7B C8B 1_555 1_555
C8B N2B 1_555 1_555
C9B C7B 1_555 1_555
C10B N4B 1_555 1_555
C11B N2B 1_555 1_555
C12B C9B 1_555 1_555
C13B C12B 1_555 1_555
C14B C13B 1_555 1_555
C15B C10B 1_555 1_555
H1B C1B 1_555 1_555
H2B C2B 1_555 1_555
H3B C4B 1_555 1_555
H4B C5B 1_555 1_555
H5B C7B 1_555 1_555
H6B C8B 1_555 1_555
H7B C9B 1_555 1_555
H8B C13B 1_555 1_555
H9B C14B 1_555 1_555
H10B C15B 1_555 1_555
H11B N4B 1_555 1_555
H12B N4B 1_555 1_555
C10 C11 1_555 1_555
C11 C12 1_555 1_555
C14 C15 1_555 1_555
C1B C2B 1_555 1_555
C4B C5B 1_555 1_555
C10B C11B 1_555 1_555
C11B C12B 1_555 1_555
C14B C15B 1_555 1_555

#END
