
#######################################################################
#
#                 Cambridge Crystallographic Data Centre
#                                CCDC 
#
#######################################################################
#
# If this CIF has been generated from an entry in the Cambridge 
# Structural Database, then it will include bibliographic, chemical, 
# crystal, experimental, refinement or atomic coordinate data resulting 
# from the CCDC's data processing and validation procedures.
#
#######################################################################

data_WEQVEU01
_symmetry_cell_setting           monoclinic
_symmetry_space_group_name_H-M   'C 2/c'
_symmetry_Int_Tables_number      15
_space_group_name_Hall           '-C 2yn'
loop_
_symmetry_equiv_pos_site_id
_symmetry_equiv_pos_as_xyz
1 x,y,z
2 1/2+x,1/2+y,z
3 -x,y,1/2-z
4 1/2-x,1/2+y,1/2-z
5 -x,-y,-z
6 1/2-x,1/2-y,-z
7 x,-y,1/2+z
8 1/2+x,1/2-y,1/2+z
_cell_length_a                   24.531(5)
_cell_length_b                   11.147(5)
_cell_length_c                   17.686(5)
_cell_angle_alpha                90
_cell_angle_beta                 133.306(5)
_cell_angle_gamma                90
_cell_volume                     3519.3
loop_
_atom_site_label
_atom_site_type_symbol
_atom_site_fract_x
_atom_site_fract_y
_atom_site_fract_z
Cl1 Cl 0.74503(19) -0.0194(3) 1.0840(3)
O1 O 0.7539(7) 0.0882(9) 1.0491(9)
O2 O 0.6855(5) -0.0043(9) 1.0825(7)
O3 O 0.8130(7) -0.0455(18) 1.1836(12)
O4 O 0.7295(9) -0.1113(15) 1.0170(17)
Fe1 Fe 0.5000 0.28995(19) 0.7500
N1 N 0.5000 0.4698(11) 0.7500
C1 C 0.4422(10) 0.3103(10) 0.8457(12)
C2 C 0.6326(12) 0.3336(12) 1.1094(14)
N2 N 0.5608(7) 0.2979(8) 0.9003(8)
C3 C 0.4358(7) 0.6575(10) 0.6782(9)
C4 C 0.5000 0.7194(14) 0.7500
C5 C 0.5176(10) 0.3150(9) 0.9245(12)
N3 N 0.4131(6) 0.2846(9) 0.7440(8)
C6 C 0.5528(11) 0.3332(11) 1.0283(13)
C7 C 0.4379(7) 0.5347(10) 0.6811(9)
N4 N 0.5000 1.1088(10) 0.7500
C8 C 0.6344(11) 0.2960(12) 0.9767(13)
C9 C 0.4541(8) 0.9195(11) 0.6584(9)
C10 C 0.4986(11) 0.3539(11) 1.0393(13)
C11 C 0.5000 0.8559(11) 0.7500
C12 C 0.4576(8) 1.0424(12) 0.6652(10)
C13 C 0.4270(12) 0.3434(13) 0.9617(15)
C14 C 0.3958(10) 0.3273(12) 0.8615(14)
C15 C 0.6710(12) 0.3168(11) 1.0825(14)
H1 H 0.6566 0.3443 1.1787
H2 H 0.3907 0.6980 0.6263
H3 H 0.3938 0.4919 0.6328
H4 H 0.6639 0.2842 0.9617
H5 H 0.4241 0.8810 0.5948
H6 H 0.5181 0.3702 1.1056
H7 H 0.4275 1.0825 0.6019
H8 H 0.3947 0.3505 0.9719
H9 H 0.3441 0.3264 0.8063
H10 H 0.7233 0.3198 1.1343
H11 H 0.3750 0.3464 0.6934
H12 H 0.3893 0.2034 0.7208
Fe1_2 Fe 0.5000 1.28995(19) 0.7500
C1B C 0.5578(10) 0.3103(10) 0.6543(12)
C2B C 0.3674(12) 0.3336(12) 0.3906(14)
N2B N 0.4392(7) 0.2979(8) 0.5997(8)
C3B C 0.5642(7) 0.6575(10) 0.8218(9)
C5B C 0.4824(10) 0.3150(9) 0.5755(12)
N3B N 0.5869(6) 0.2846(9) 0.7560(8)
C6B C 0.4472(11) 0.3332(11) 0.4717(13)
C7B C 0.5621(7) 0.5347(10) 0.8189(9)
N4_2 N 0.5000 0.1088(10) 0.7500
C8B C 0.3656(11) 0.2960(12) 0.5233(13)
C9B C 0.5459(8) 0.9195(11) 0.8416(9)
C10B C 0.5014(11) 0.3539(11) 0.4607(13)
C12B C 0.5424(8) 1.0424(12) 0.8348(10)
C13B C 0.5730(12) 0.3434(13) 0.5383(15)
C14B C 0.6042(10) 0.3273(12) 0.6385(14)
C15B C 0.3290(12) 0.3168(11) 0.4175(14)
H1B H 0.3434 0.3443 0.3213
H2B H 0.6093 0.6980 0.8737
H3B H 0.6062 0.4919 0.8672
H4B H 0.3361 0.2842 0.5383
H5B H 0.5759 0.8810 0.9052
H6B H 0.4819 0.3702 0.3944
H7B H 0.5725 1.0825 0.8981
H8B H 0.6053 0.3505 0.5281
H9B H 0.6559 0.3264 0.6937
H10B H 0.2767 0.3198 0.3657
H11B H 0.6250 0.3464 0.8066
H12B H 0.6107 0.2034 0.7792
loop_
_geom_bond_atom_site_label_1
_geom_bond_atom_site_label_2
_geom_bond_site_symmetry_1
_geom_bond_site_symmetry_2
Fe1 N1 1_555 1_555
Cl1 O1 1_555 1_555
N1 C7 1_555 1_555
O2 Cl1 1_555 1_555
C1 C5 1_555 1_555
C2 C6 1_555 1_555
N2 Fe1 1_555 1_555
C3 C4 1_555 1_555
C4 C11 1_555 1_555
C5 N2 1_555 1_555
N3 Fe1 1_555 1_555
C6 C5 1_555 1_555
C7 C3 1_555 1_555
N4 C12 1_555 1_555
C8 N2 1_555 1_555
C9 C11 1_555 1_555
C10 C6 1_555 1_555
C11 C9B 1_555 1_555
C12 C9 1_555 1_555
C13 C10 1_555 1_555
C14 C1 1_555 1_555
O3 Cl1 1_555 1_555
O4 Cl1 1_555 1_555
C15 C2 1_555 1_555
H1 C2 1_555 1_555
H2 C3 1_555 1_555
H3 C7 1_555 1_555
H4 C8 1_555 1_555
H5 C9 1_555 1_555
H6 C10 1_555 1_555
H7 C12 1_555 1_555
H8 C13 1_555 1_555
H9 C14 1_555 1_555
H10 C15 1_555 1_555
H11 N3 1_555 1_555
H12 N3 1_555 1_555
Fe1_2 N4 1_555 1_555
C1B C5B 1_555 1_555
C2B C6B 1_555 1_555
N2B Fe1 1_555 1_555
C3B C4 1_555 1_555
C5B N2B 1_555 1_555
N3B Fe1 1_555 1_555
C6B C5B 1_555 1_555
C7B N1 1_555 1_555
N4_2 Fe1 1_555 1_555
C8B N2B 1_555 1_555
C9B C12B 1_555 1_555
C10B C6B 1_555 1_555
C12B N4 1_555 1_555
C13B C10B 1_555 1_555
C14B C1B 1_555 1_555
C15B C2B 1_555 1_555
H1B C2B 1_555 1_555
H2B C3B 1_555 1_555
H3B C7B 1_555 1_555
H4B C8B 1_555 1_555
H5B C9B 1_555 1_555
H6B C10B 1_555 1_555
H7B C12B 1_555 1_555
H8B C13B 1_555 1_555
H9B C14B 1_555 1_555
H10B C15B 1_555 1_555
H11B N3B 1_555 1_555
H12B N3B 1_555 1_555
C1 N3 1_555 1_555
C8 C15 1_555 1_555
C13 C14 1_555 1_555
C1B N3B 1_555 1_555
C3B C7B 1_555 1_555
C8B C15B 1_555 1_555
C13B C14B 1_555 1_555

#END
