
#######################################################################
#
#                 Cambridge Crystallographic Data Centre
#                                CCDC 
#
#######################################################################
#
# If this CIF has been generated from an entry in the Cambridge 
# Structural Database, then it will include bibliographic, chemical, 
# crystal, experimental, refinement or atomic coordinate data resulting 
# from the CCDC's data processing and validation procedures.
#
#######################################################################

data_WEQVAQ
_symmetry_cell_setting           orthorhombic
_symmetry_space_group_name_H-M   'P b c n'
_symmetry_Int_Tables_number      60
_space_group_name_Hall           '-P 2n 2ab'
loop_
_symmetry_equiv_pos_site_id
_symmetry_equiv_pos_as_xyz
1 x,y,z
2 1/2-x,1/2-y,1/2+z
3 -x,y,1/2-z
4 1/2+x,1/2-y,-z
5 -x,-y,-z
6 1/2+x,1/2+y,1/2-z
7 x,-y,1/2+z
8 1/2-x,1/2+y,z
_cell_length_a                   24.958(4)
_cell_length_b                   24.637(4)
_cell_length_c                   8.1686(12)
_cell_angle_alpha                90
_cell_angle_beta                 90
_cell_angle_gamma                90
_cell_volume                     5022.79
loop_
_atom_site_label
_atom_site_type_symbol
_atom_site_fract_x
_atom_site_fract_y
_atom_site_fract_z
Co1 Co 0.0000 0.23222(2) 0.2500
N1 N -0.04817(11) 0.29481(10) 0.3525(3)
N2 N -0.16041(10) 0.51366(10) 0.6211(3)
N3 N -0.19326(10) 0.47646(10) 0.6943(3)
N4 N -0.28423(10) 0.50928(10) 0.7003(3)
N5 N -0.31615(11) 0.46849(10) 0.6452(3)
N6 N -0.45037(10) 0.67165(10) 0.3574(4)
N7 N 0.04641(12) 0.23023(11) 0.4580(4)
N8 N 0.1011(2) 0.2025(2) 0.6909(6)
N9 N 0.1830(3) 0.24191(18) 0.7937(9)
C1 C -0.09645(14) 0.37778(13) 0.3196(4)
H1 H -0.1096 0.4042 0.2488
C2 C -0.06847(15) 0.33433(13) 0.2590(4)
H2 H -0.0633 0.3322 0.1464
C3 C -0.05742(15) 0.29849(14) 0.5116(4)
H3 H -0.0445 0.2710 0.5790
C4 C -0.08503(15) 0.34068(14) 0.5830(4)
H4 H -0.0902 0.3412 0.6958
C5 C -0.10507(13) 0.38233(12) 0.4876(4)
C6 C -0.13528(13) 0.42811(12) 0.5573(4)
C7 C -0.17958(13) 0.42470(12) 0.6593(4)
C8 C -0.21003(18) 0.37746(15) 0.7211(6)
H5 H -0.2476 0.3832 0.7026
H6 H -0.1987 0.3453 0.6645
H7 H -0.2036 0.3733 0.8362
C9 C -0.12517(12) 0.48401(12) 0.5385(4)
C10 C -0.08024(13) 0.51109(15) 0.4506(4)
H8 H -0.0508 0.5164 0.5246
H9 H -0.0689 0.4887 0.3609
H10 H -0.0921 0.5456 0.4096
C11 C -0.23721(12) 0.49544(14) 0.7954(4)
H11 H -0.2257 0.5271 0.8564
H12 H -0.2465 0.4674 0.8737
C12 C -0.35570(12) 0.49328(12) 0.5683(4)
C13 C -0.39946(15) 0.46037(15) 0.4930(5)
H13 H -0.4282 0.4563 0.5701
H14 H -0.4124 0.4784 0.3966
H15 H -0.3859 0.4252 0.4640
C14 C -0.34874(12) 0.55048(12) 0.5697(4)
C15 C -0.30190(12) 0.55905(12) 0.6574(4)
C16 C -0.27401(15) 0.60915(14) 0.7096(5)
H16 H -0.2384 0.6095 0.6651
H17 H -0.2933 0.6402 0.6705
H18 H -0.2722 0.6102 0.8269
C17 C -0.38367(12) 0.59210(12) 0.4964(4)
C18 C -0.43931(13) 0.59019(13) 0.5115(5)
H19 H -0.4554 0.5621 0.5696
C19 C -0.47022(13) 0.62975(13) 0.4404(5)
H20 H -0.5072 0.6271 0.4509
C20 C -0.39719(12) 0.67367(13) 0.3431(4)
H21 H -0.3821 0.7026 0.2863
C21 C -0.36349(12) 0.63518(13) 0.4081(4)
H22 H -0.3267 0.6382 0.3923
C22 C 0.07403(18) 0.22027(16) 0.5647(6)
C23 C 0.1446(3) 0.22555(19) 0.7390(7)
Co1E Co -0.5000 0.73222(2) 0.2500
Co1E_2 Co 0.5000 0.73222(2) 0.2500
N1B N 0.04817(11) 0.29481(10) 0.1475(3)
N2B N 0.16041(10) 0.51366(10) -0.1211(3)
N3B N 0.19326(10) 0.47646(10) -0.1943(3)
N4B N 0.28423(10) 0.50928(10) -0.2003(3)
N5B N 0.31615(11) 0.46849(10) -0.1452(3)
N6B N 0.45037(10) 0.67165(10) 0.1426(4)
N6E N 0.04963(10) 0.17165(10) 0.1426(4)
N6G N -0.04963(10) 0.17165(10) 0.3574(4)
N7B N -0.04641(12) 0.23023(11) 0.0420(4)
N8B N -0.1011(2) 0.2025(2) -0.1909(6)
N9B N -0.1830(3) 0.24191(18) -0.2937(9)
C1B C 0.09645(14) 0.37778(13) 0.1804(4)
H1B H 0.1096 0.4042 0.2512
C2B C 0.06847(15) 0.33433(13) 0.2410(4)
H2B H 0.0633 0.3322 0.3536
C3B C 0.05742(15) 0.29849(14) -0.0116(4)
H3B H 0.0445 0.2710 -0.0790
C4B C 0.08503(15) 0.34068(14) -0.0830(4)
H4B H 0.0902 0.3412 -0.1958
C5B C 0.10507(13) 0.38233(12) 0.0124(4)
C6B C 0.13528(13) 0.42811(12) -0.0573(4)
C7B C 0.17958(13) 0.42470(12) -0.1593(4)
C8B C 0.21003(18) 0.37746(15) -0.2211(6)
H5B H 0.2476 0.3832 -0.2026
H6B H 0.1987 0.3453 -0.1645
H7B H 0.2036 0.3733 -0.3362
C9B C 0.12517(12) 0.48401(12) -0.0385(4)
C10B C 0.08024(13) 0.51109(15) 0.0494(4)
H8B H 0.0508 0.5164 -0.0246
H9B H 0.0689 0.4887 0.1391
H10B H 0.0921 0.5456 0.0904
C11B C 0.23721(12) 0.49544(14) -0.2954(4)
H11B H 0.2257 0.5271 -0.3564
H12B H 0.2465 0.4674 -0.3737
C12B C 0.35570(12) 0.49328(12) -0.0683(4)
C13B C 0.39946(15) 0.46037(15) 0.0070(5)
H13B H 0.4282 0.4563 -0.0701
H14B H 0.4124 0.4784 0.1034
H15B H 0.3859 0.4252 0.0360
C14B C 0.34874(12) 0.55048(12) -0.0697(4)
C15B C 0.30190(12) 0.55905(12) -0.1574(4)
C16B C 0.27401(15) 0.60915(14) -0.2096(5)
H16B H 0.2384 0.6095 -0.1651
H17B H 0.2933 0.6402 -0.1705
H18B H 0.2722 0.6102 -0.3269
C17B C 0.38367(12) 0.59210(12) 0.0036(4)
C18B C 0.43931(13) 0.59019(13) -0.0115(5)
H19B H 0.4554 0.5621 -0.0696
C19B C 0.47022(13) 0.62975(13) 0.0596(5)
H20B H 0.5072 0.6271 0.0491
C20B C 0.39719(12) 0.67367(13) 0.1569(4)
H21B H 0.3821 0.7026 0.2137
C21B C 0.36349(12) 0.63518(13) 0.0919(4)
H22B H 0.3267 0.6382 0.1077
C22B C -0.07403(18) 0.22027(16) -0.0647(6)
C23B C -0.1446(3) 0.22555(19) -0.2390(7)
O1 O 0.2962(4) 0.2381(5) 0.6676(15)
loop_
_geom_bond_atom_site_label_1
_geom_bond_atom_site_label_2
_geom_bond_site_symmetry_1
_geom_bond_site_symmetry_2
Co1 N1 1_555 1_555
N1 C2 1_555 1_555
N2 N3 1_555 1_555
N3 C7 1_555 1_555
N4 N5 1_555 1_555
N5 C12 1_555 1_555
N6 C19 1_555 1_555
N7 Co1 1_555 1_555
N8 C22 1_555 1_555
N9 C23 1_555 1_555
C1 H1 1_555 1_555
C2 C1 1_555 1_555
H2 C2 1_555 1_555
C3 N1 1_555 1_555
H3 C3 1_555 1_555
C4 C3 1_555 1_555
H4 C4 1_555 1_555
C5 C1 1_555 1_555
C6 C5 1_555 1_555
C7 C6 1_555 1_555
C8 C7 1_555 1_555
H5 C8 1_555 1_555
H6 C8 1_555 1_555
H7 C8 1_555 1_555
C9 N2 1_555 1_555
C10 C9 1_555 1_555
H8 C10 1_555 1_555
H9 C10 1_555 1_555
H10 C10 1_555 1_555
C11 N3 1_555 1_555
H11 C11 1_555 1_555
H12 C11 1_555 1_555
C12 C13 1_555 1_555
C13 H13 1_555 1_555
H14 C13 1_555 1_555
H15 C13 1_555 1_555
C14 C12 1_555 1_555
C15 N4 1_555 1_555
C16 C15 1_555 1_555
H16 C16 1_555 1_555
H17 C16 1_555 1_555
H18 C16 1_555 1_555
C17 C14 1_555 1_555
C18 C17 1_555 1_555
H19 C18 1_555 1_555
C19 C18 1_555 1_555
H20 C19 1_555 1_555
C20 N6 1_555 1_555
H21 C20 1_555 1_555
C21 C17 1_555 1_555
H22 C21 1_555 1_555
C22 N7 1_555 1_555
C23 N8 1_555 1_555
Co1E N6 1_555 1_555
Co1E_2 N6B 1_555 1_555
N1B Co1 1_555 1_555
N2B N3B 1_555 1_555
N3B C7B 1_555 1_555
N4B N5B 1_555 1_555
N5B C12B 1_555 1_555
N6B C19B 1_555 1_555
N6E Co1 1_555 1_555
N6G Co1 1_555 1_555
N7B Co1 1_555 1_555
N8B C22B 1_555 1_555
N9B C23B 1_555 1_555
C1B H1B 1_555 1_555
C2B N1B 1_555 1_555
H2B C2B 1_555 1_555
C3B N1B 1_555 1_555
H3B C3B 1_555 1_555
C4B C3B 1_555 1_555
H4B C4B 1_555 1_555
C5B C1B 1_555 1_555
C6B C5B 1_555 1_555
C7B C6B 1_555 1_555
C8B C7B 1_555 1_555
H5B C8B 1_555 1_555
H6B C8B 1_555 1_555
H7B C8B 1_555 1_555
C9B N2B 1_555 1_555
C10B C9B 1_555 1_555
H8B C10B 1_555 1_555
H9B C10B 1_555 1_555
H10B C10B 1_555 1_555
C11B N3B 1_555 1_555
H11B C11B 1_555 1_555
H12B C11B 1_555 1_555
C12B C13B 1_555 1_555
C13B H13B 1_555 1_555
H14B C13B 1_555 1_555
H15B C13B 1_555 1_555
C14B C12B 1_555 1_555
C15B N4B 1_555 1_555
C16B C15B 1_555 1_555
H16B C16B 1_555 1_555
H17B C16B 1_555 1_555
H18B C16B 1_555 1_555
C17B C14B 1_555 1_555
C18B C17B 1_555 1_555
H19B C18B 1_555 1_555
C19B C18B 1_555 1_555
H20B C19B 1_555 1_555
C20B N6B 1_555 1_555
H21B C20B 1_555 1_555
C21B C17B 1_555 1_555
H22B C21B 1_555 1_555
C22B N7B 1_555 1_555
C23B N8B 1_555 1_555
N4 C11 1_555 1_555
C4 C5 1_555 1_555
C6 C9 1_555 1_555
C14 C15 1_555 1_555
C20 C21 1_555 1_555
N4B C11B 1_555 1_555
C1B C2B 1_555 1_555
C4B C5B 1_555 1_555
C6B C9B 1_555 1_555
C14B C15B 1_555 1_555
C20B C21B 1_555 1_555

#END
