
#######################################################################
#
#                 Cambridge Crystallographic Data Centre
#                                CCDC 
#
#######################################################################
#
# If this CIF has been generated from an entry in the Cambridge 
# Structural Database, then it will include bibliographic, chemical, 
# crystal, experimental, refinement or atomic coordinate data resulting 
# from the CCDC's data processing and validation procedures.
#
#######################################################################

data_WEQZUN
_symmetry_cell_setting           triclinic
_symmetry_space_group_name_H-M   'P -1'
_symmetry_Int_Tables_number      2
_space_group_name_Hall           '-P 1'
loop_
_symmetry_equiv_pos_site_id
_symmetry_equiv_pos_as_xyz
1 x,y,z
2 -x,-y,-z
_cell_length_a                   11.596(9)
_cell_length_b                   13.019(12)
_cell_length_c                   18.107(16)
_cell_angle_alpha                75.51(7)
_cell_angle_beta                 74.45(7)
_cell_angle_gamma                79.71(7)
_cell_volume                     2531.46
loop_
_atom_site_label
_atom_site_type_symbol
_atom_site_fract_x
_atom_site_fract_y
_atom_site_fract_z
Fe1 Fe 0.1401(2) 0.6965(2) 0.2430(2)
N1 N 0.2519(13) 0.5639(12) 0.2481(9)
N2 N 0.0355(13) 0.6061(13) 0.3283(9)
C1 C 0.3649(18) 0.5434(17) 0.2081(12)
C2 C 0.4319(19) 0.4436(19) 0.2180(13)
C3 C 0.3819(21) 0.3589(18) 0.2686(14)
C4 C 0.2626(20) 0.3743(17) 0.3117(13)
C5 C 0.2001(22) 0.2919(17) 0.3664(14)
C6 C 0.0862(22) 0.3130(18) 0.4137(14)
C7 C 0.0245(19) 0.4227(17) 0.4003(13)
C8 C -0.0866(20) 0.4494(19) 0.4466(13)
C9 C -0.1351(18) 0.5566(19) 0.4309(13)
C10 C -0.0723(17) 0.6308(17) 0.3749(12)
C11 C 0.0851(18) 0.5016(16) 0.3455(12)
C12 C 0.2036(18) 0.4788(16) 0.2992(12)
N3 N 0.1980(13) 0.7466(12) 0.3200(9)
N4 N 0.0255(13) 0.8295(12) 0.2468(9)
C13 C 0.2831(17) 0.7001(17) 0.3572(12)
C14 C 0.3133(19) 0.7416(19) 0.4141(13)
C15 C 0.2515(20) 0.8372(20) 0.4278(13)
C16 C 0.1627(19) 0.8922(18) 0.3882(13)
C17 C 0.0953(21) 0.9912(19) 0.3974(14)
C18 C 0.0096(21) 1.0363(18) 0.3587(15)
C19 C -0.0212(19) 0.9830(17) 0.3034(13)
C20 C -0.1077(20) 1.0231(18) 0.2640(14)
C21 C -0.1299(19) 0.9668(18) 0.2146(14)
C22 C -0.0609(17) 0.8681(16) 0.2079(12)
C23 C 0.0458(17) 0.8869(15) 0.2940(12)
C24 C 0.1369(17) 0.8397(16) 0.3359(12)
N5 N 0.2511(12) 0.7743(11) 0.1513(9)
N6 N 0.0839(13) 0.6573(11) 0.1615(9)
C25 C 0.3273(17) 0.8391(15) 0.1472(12)
C26 C 0.3980(18) 0.8870(17) 0.0774(13)
C27 C 0.3928(19) 0.8689(18) 0.0091(13)
C28 C 0.3072(18) 0.8028(17) 0.0097(12)
C29 C 0.2888(20) 0.7785(19) -0.0584(13)
C30 C 0.2025(20) 0.7165(19) -0.0542(13)
C31 C 0.1289(19) 0.6750(17) 0.0195(12)
C32 C 0.0306(20) 0.6157(17) 0.0302(13)
C33 C -0.0328(19) 0.5805(16) 0.1014(13)
C34 C -0.0067(17) 0.6008(15) 0.1678(12)
C35 C 0.1488(17) 0.6933(15) 0.0870(12)
C36 C 0.2387(16) 0.7601(15) 0.0813(12)
H1 H 0.4038 0.6036 0.1687
H2 H 0.5174 0.4341 0.1876
H3 H 0.4294 0.2865 0.2753
H4 H 0.2392 0.2163 0.3711
H5 H 0.0473 0.2552 0.4557
H6 H -0.1304 0.3950 0.4892
H7 H -0.2173 0.5793 0.4614
H8 H -0.1083 0.7074 0.3681
H9 H 0.3293 0.6316 0.3445
H10 H 0.3765 0.7028 0.4427
H11 H 0.2703 0.8690 0.4675
H12 H 0.1122 1.0293 0.4342
H13 H -0.0351 1.1072 0.3669
H14 H -0.1560 1.0935 0.2702
H15 H -0.1935 0.9960 0.1844
H16 H -0.0768 0.8259 0.1732
H17 H 0.3347 0.8546 0.1969
H18 H 0.4545 0.9365 0.0779
H19 H 0.4476 0.9010 -0.0411
H20 H 0.3404 0.8075 -0.1108
H21 H 0.1916 0.7008 -0.1031
H22 H 0.0103 0.6012 -0.0162
H23 H -0.1008 0.5385 0.1086
H24 H -0.0566 0.5726 0.2210
I1 I 0.2648(2) 0.2124(2) 0.0429(1)
I2 I 0.0767(1) 0.0586(1) 0.0138(1)
I3 I 0.4255(2) 0.4235(2) 0.0111(1)
I4 I 0.0339(2) 0.2882(1) 0.1893(1)
I5 I -0.1816(2) 0.3489(1) 0.2864(1)
I6 I 0.3242(1) 0.2519(2) -0.1440(1)
I7 I 0.3599(2) 0.2812(2) -0.3037(1)
I8 I -0.3825(2) -0.0933(2) 0.7892(1)
I9 I -0.5186(2) -0.0291(1) 0.6780(1)
I10 I -0.4428(2) 0.4401(1) 0.4002(1)
I11 I -0.5585(1) 0.2506(1) 0.4762(1)
I12 I -0.6918(2) 0.0638(2) 0.5499(1)
I2A I -0.0767(1) -0.0586(1) -0.0138(1)
I3A I 0.5745(2) 0.5765(2) -0.0111(1)
loop_
_geom_bond_atom_site_label_1
_geom_bond_atom_site_label_2
_geom_bond_site_symmetry_1
_geom_bond_site_symmetry_2
Fe1 N1 1_555 1_555
N1 C1 1_555 1_555
N2 Fe1 1_555 1_555
C1 C2 1_555 1_555
C2 C3 1_555 1_555
C3 C4 1_555 1_555
C4 C5 1_555 1_555
C5 C6 1_555 1_555
C6 C7 1_555 1_555
C7 C8 1_555 1_555
C8 C9 1_555 1_555
C9 C10 1_555 1_555
C10 N2 1_555 1_555
C11 N2 1_555 1_555
C12 N1 1_555 1_555
N3 Fe1 1_555 1_555
N4 Fe1 1_555 1_555
C13 N3 1_555 1_555
C14 C13 1_555 1_555
C15 C14 1_555 1_555
C16 C15 1_555 1_555
C17 C16 1_555 1_555
C18 C17 1_555 1_555
C19 C18 1_555 1_555
C20 C19 1_555 1_555
C21 C20 1_555 1_555
C22 N4 1_555 1_555
C23 N4 1_555 1_555
C24 N3 1_555 1_555
N5 Fe1 1_555 1_555
N6 Fe1 1_555 1_555
C25 N5 1_555 1_555
C26 C25 1_555 1_555
C27 C26 1_555 1_555
C28 C27 1_555 1_555
C29 C28 1_555 1_555
C30 C29 1_555 1_555
C31 C30 1_555 1_555
C32 C31 1_555 1_555
C33 C32 1_555 1_555
C34 N6 1_555 1_555
C35 N6 1_555 1_555
C36 N5 1_555 1_555
I1 I2 1_555 1_555
I2 I2A 1_555 1_555
I3 I1 1_555 1_555
I4 I1 1_555 1_555
I5 I4 1_555 1_555
I6 I1 1_555 1_555
I7 I6 1_555 1_555
I8 I9 1_555 1_555
I9 I12 1_555 1_555
I10 I5 1_555 1_555
I11 I10 1_555 1_555
I12 I11 1_555 1_555
H1 C1 1_555 1_555
H2 C2 1_555 1_555
H3 C3 1_555 1_555
H4 C5 1_555 1_555
H5 C6 1_555 1_555
H6 C8 1_555 1_555
H7 C9 1_555 1_555
H8 C10 1_555 1_555
H9 C13 1_555 1_555
H10 C14 1_555 1_555
H11 C15 1_555 1_555
H12 C17 1_555 1_555
H13 C18 1_555 1_555
H14 C20 1_555 1_555
H15 C21 1_555 1_555
H16 C22 1_555 1_555
H17 C25 1_555 1_555
H18 C26 1_555 1_555
H19 C27 1_555 1_555
H20 C29 1_555 1_555
H21 C30 1_555 1_555
H22 C32 1_555 1_555
H23 C33 1_555 1_555
H24 C34 1_555 1_555
I3A I3 1_555 1_555
C4 C12 1_555 1_555
C7 C11 1_555 1_555
C11 C12 1_555 1_555
C16 C24 1_555 1_555
C19 C23 1_555 1_555
C21 C22 1_555 1_555
C23 C24 1_555 1_555
C28 C36 1_555 1_555
C31 C35 1_555 1_555
C33 C34 1_555 1_555
C35 C36 1_555 1_555

#END
