
#######################################################################
#
#                 Cambridge Crystallographic Data Centre
#                                CCDC 
#
#######################################################################
#
# If this CIF has been generated from an entry in the Cambridge 
# Structural Database, then it will include bibliographic, chemical, 
# crystal, experimental, refinement or atomic coordinate data resulting 
# from the CCDC's data processing and validation procedures.
#
#######################################################################

data_WERCAX
_symmetry_cell_setting           orthorhombic
_symmetry_space_group_name_H-M   'P b c a'
_symmetry_Int_Tables_number      61
_space_group_name_Hall           '-P 2ac 2ab'
loop_
_symmetry_equiv_pos_site_id
_symmetry_equiv_pos_as_xyz
1 x,y,z
2 1/2-x,1/2+y,z
3 x,1/2-y,1/2+z
4 1/2-x,-y,1/2+z
5 -x,-y,-z
6 1/2+x,1/2-y,-z
7 -x,1/2+y,1/2-z
8 1/2+x,y,1/2-z
_cell_length_a                   44.966(1)
_cell_length_b                   16.267(1)
_cell_length_c                   14.0147(3)
_cell_angle_alpha                90
_cell_angle_beta                 90
_cell_angle_gamma                90
_cell_volume                     10251.2
loop_
_atom_site_label
_atom_site_type_symbol
_atom_site_fract_x
_atom_site_fract_y
_atom_site_fract_z
Cu1 Cu 0.6694 0.0153 0.0343(1)
O1 O 0.7100(1) 0.0178(2) -0.0169(2)
O2 O 0.6849(1) -0.0233(2) -0.1427(2)
O3 O 0.8156(1) -0.0536(2) -0.3092(2)
O4 O 0.7514(1) -0.2793(2) 0.0584(2)
N1 N 0.6741(1) -0.1060(2) 0.0610(2)
N2 N 0.7492(1) -0.2279(2) 0.2073(3)
C1 C 0.7091(1) -0.0068(2) -0.1039(3)
C2 C 0.7379(1) -0.0165(2) -0.1559(3)
C3 C 0.7649(1) -0.0081(3) -0.1104(3)
C4 C 0.7918(1) -0.0187(3) -0.1597(3)
C5 C 0.7906(1) -0.0387(2) -0.2559(3)
C6 C 0.7635(1) -0.0474(3) -0.3034(3)
C7 C 0.7373(1) -0.0366(3) -0.2527(3)
C8 C 0.6515(1) -0.1601(3) 0.0471(3)
C9 C 0.6553(1) -0.2438(3) 0.0610(3)
C10 C 0.6834(1) -0.2740(3) 0.0897(3)
C11 C 0.7063(1) -0.2172(3) 0.1031(3)
C12 C 0.7007(1) -0.1357(3) 0.0883(3)
C13 C 0.7376(1) -0.2443(3) 0.1224(3)
C14 C 0.7311(1) -0.1961(3) 0.2894(4)
C15 C 0.7160(1) -0.2652(4) 0.3431(4)
C16 C 0.7806(1) -0.2472(3) 0.2255(4)
C17 C 0.8000(1) -0.1719(3) 0.2168(5)
O5 O 0.6288(1) 0.0103(2) 0.0783(2)
O6 O 0.6314(1) 0.0321(2) 0.2353(2)
O7 O 0.4915(1) 0.0196(2) 0.1661(2)
O8 O 0.5796(1) 0.2742(3) -0.0525(3)
N3 N 0.6612(1) 0.1296(2) -0.0165(2)
N4 N 0.5865(1) 0.2285(2) -0.2007(3)
C18 C 0.6171(1) 0.0202(3) 0.1599(3)
C19 C 0.5838(1) 0.0190(2) 0.1630(3)
C20 C 0.5678(1) 0.0043(3) 0.0813(3)
C21 C 0.5368(1) 0.0046(3) 0.0817(3)
C22 C 0.5222(1) 0.0188(3) 0.1691(3)
C23 C 0.5380(1) 0.0305(3) 0.2514(3)
C24 C 0.5692(1) 0.0318(3) 0.2493(3)
C25 C 0.6829(1) 0.1881(3) -0.0161(3)
C26 C 0.6772(1) 0.2676(3) -0.0498(3)
C27 C 0.6490(1) 0.2864(3) -0.0864(3)
C28 C 0.6274(1) 0.2257(3) -0.0870(3)
C29 C 0.6343(1) 0.1491(3) -0.0513(3)
C30 C 0.5959(1) 0.2451(3) -0.1135(3)
C31 C 0.6066(1) 0.1935(3) -0.2748(4)
C32 C 0.6203(1) 0.2594(4) -0.3344(4)
C33 C 0.5558(1) 0.2472(3) -0.2271(4)
C34 C 0.5359(1) 0.1721(4) -0.2174(5)
H1 H 0.76539 0.00581 -0.04059
H2 H 0.81126 -0.01200 -0.12527
H3 H 0.83800 -0.04250 -0.28390
H4 H 0.76275 -0.06158 -0.37318
H5 H 0.71801 -0.04344 -0.28513
H6 H 0.63154 -0.13883 0.02665
H7 H 0.63802 -0.28203 0.05144
H8 H 0.68672 -0.33440 0.09954
H9 H 0.71900 -0.09610 0.08780
H10 H 0.71560 -0.15780 0.26430
H11 H 0.74450 -0.16580 0.33420
H12 H 0.70260 -0.29550 0.29830
H13 H 0.73150 -0.30350 0.36810
H14 H 0.70390 -0.24410 0.39780
H15 H 0.78050 -0.27110 0.29440
H16 H 0.78040 -0.29310 0.18530
H17 H 0.82285 -0.18839 0.23056
H18 H 0.79290 -0.12635 0.26794
H19 H 0.79812 -0.14712 0.14557
H20 H 0.57940 -0.00760 0.02160
H21 H 0.52542 -0.00575 0.02152
H22 H 0.48440 0.01830 0.23210
H23 H 0.52701 0.03881 0.31369
H24 H 0.58107 0.04212 0.30866
H25 H 0.70305 0.17294 0.00855
H26 H 0.69341 0.31033 -0.04779
H27 H 0.64449 0.34333 -0.11114
H28 H 0.61842 0.10529 -0.05169
H29 H 0.62398 0.15880 -0.24019
H30 H 0.59384 0.15313 -0.32042
H31 H 0.63468 0.23188 -0.38721
H32 H 0.63322 0.29981 -0.28935
H33 H 0.60308 0.29414 -0.36958
H34 H 0.54748 0.29517 -0.18086
H35 H 0.55525 0.26818 -0.30016
H36 H 0.51347 0.18800 -0.23735
H37 H 0.53622 0.15093 -0.14442
H38 H 0.54399 0.12393 -0.26372
O1C O 0.7900(1) -0.0178(2) 0.4831(2)
O2C O 0.8151(1) 0.0233(2) 0.3573(2)
O3C O 0.6844(1) 0.0536(2) 0.1908(2)
C1C C 0.7909(1) 0.0068(2) 0.3961(3)
C2C C 0.7621(1) 0.0165(2) 0.3441(3)
C3C C 0.7351(1) 0.0081(3) 0.3896(3)
C4C C 0.7082(1) 0.0187(3) 0.3403(3)
C5C C 0.7094(1) 0.0387(2) 0.2441(3)
C6C C 0.7365(1) 0.0474(3) 0.1966(3)
C7C C 0.7627(1) 0.0366(3) 0.2473(3)
H1C H 0.73461 -0.00581 0.45941
H2C H 0.68874 0.01200 0.37473
H3C H 0.66200 0.04250 0.21610
H4C H 0.73725 0.06158 0.12682
H5C H 0.78199 0.04344 0.21487
Cu1C Cu 0.8306 -0.0153 0.5343(1)
O4C O 0.7486(1) 0.2793(2) 0.5584(2)
N1C N 0.8259(1) 0.1060(2) 0.5610(2)
N2C N 0.7508(1) 0.2279(2) 0.7073(3)
C8C C 0.8485(1) 0.1601(3) 0.5471(3)
C9C C 0.8447(1) 0.2438(3) 0.5610(3)
C10C C 0.8166(1) 0.2740(3) 0.5897(3)
C11C C 0.7937(1) 0.2172(3) 0.6031(3)
C12C C 0.7993(1) 0.1357(3) 0.5883(3)
C13C C 0.7624(1) 0.2443(3) 0.6224(3)
C14C C 0.7689(1) 0.1961(3) 0.7894(4)
C15C C 0.7840(1) 0.2652(4) 0.8431(4)
C16C C 0.7194(1) 0.2472(3) 0.7255(4)
C17C C 0.7000(1) 0.1719(3) 0.7168(5)
H6C H 0.86846 0.13883 0.52665
H7C H 0.86198 0.28203 0.55144
H8C H 0.81328 0.33440 0.59954
H9C H 0.78100 0.09610 0.58780
H10C H 0.78440 0.15780 0.76430
H11C H 0.75550 0.16580 0.83420
H12C H 0.79740 0.29550 0.79830
H13C H 0.76850 0.30350 0.86810
H14C H 0.79610 0.24410 0.89780
H15C H 0.71950 0.27110 0.79440
H16C H 0.71960 0.29310 0.68530
H17C H 0.67715 0.18839 0.73056
H18C H 0.70710 0.12635 0.76794
H19C H 0.70188 0.14712 0.64557
O5C O 0.8712(1) -0.0103(2) 0.5783(2)
O6C O 0.8686(1) -0.0321(2) 0.7353(2)
O7C O 1.0085(1) -0.0196(2) 0.6661(2)
C18C C 0.8829(1) -0.0202(3) 0.6599(3)
C19C C 0.9162(1) -0.0190(2) 0.6630(3)
C20C C 0.9322(1) -0.0043(3) 0.5813(3)
C21C C 0.9632(1) -0.0046(3) 0.5817(3)
C22C C 0.9778(1) -0.0188(3) 0.6691(3)
C23C C 0.9620(1) -0.0305(3) 0.7514(3)
C24C C 0.9308(1) -0.0318(3) 0.7493(3)
H20C H 0.92060 0.00760 0.52160
H21C H 0.97458 0.00575 0.52152
H22C H 1.01560 -0.01830 0.73210
H23C H 0.97299 -0.03881 0.81369
H24C H 0.91893 -0.04212 0.80866
O8C O 0.9204(1) -0.2742(3) 0.4475(3)
N3C N 0.8388(1) -0.1296(2) 0.4835(2)
N4C N 0.9135(1) -0.2285(2) 0.2993(3)
C25C C 0.8171(1) -0.1881(3) 0.4839(3)
C26C C 0.8228(1) -0.2676(3) 0.4502(3)
C27C C 0.8510(1) -0.2864(3) 0.4136(3)
C28C C 0.8726(1) -0.2257(3) 0.4130(3)
C29C C 0.8657(1) -0.1491(3) 0.4487(3)
C30C C 0.9041(1) -0.2451(3) 0.3865(3)
C31C C 0.8934(1) -0.1935(3) 0.2252(4)
C32C C 0.8797(1) -0.2594(4) 0.1656(4)
C33C C 0.9442(1) -0.2472(3) 0.2729(4)
C34C C 0.9641(1) -0.1721(4) 0.2826(5)
H25C H 0.79695 -0.17294 0.50855
H26C H 0.80659 -0.31033 0.45221
H27C H 0.85551 -0.34333 0.38886
H28C H 0.88158 -0.10529 0.44831
H29C H 0.87602 -0.15880 0.25981
H30C H 0.90616 -0.15313 0.17958
H31C H 0.86532 -0.23188 0.11279
H32C H 0.86678 -0.29981 0.21065
H33C H 0.89692 -0.29414 0.13042
H34C H 0.95252 -0.29517 0.31914
H35C H 0.94475 -0.26818 0.19984
H36C H 0.98653 -0.18800 0.26265
H37C H 0.96378 -0.15093 0.35558
H38C H 0.95601 -0.12393 0.23628
Cu1C_2 Cu 0.8306 -0.0153 -0.4657(1)
O3_2 O 0.8156(1) -0.0536(2) 0.6908(2)
H3_2 H 0.83800 -0.04250 0.71610
Cu2 Cu 0.50000 0.00000 0.50000
O9 O 0.4577(1) -0.0148(2) 0.4888(2)
O10 O 0.4708(1) 0.0218(2) 0.3434(2)
O11 O 0.3294(1) 0.0285(2) 0.3211(2)
O12 O 0.5858(1) -0.2904(3) 0.4570(3)
N5 N 0.5070(1) -0.1212(2) 0.4669(2)
N6 N 0.5826(1) -0.2310(2) 0.3123(3)
C35 C 0.4511(1) 0.0052(3) 0.4024(3)
C36 C 0.4189(1) 0.0105(2) 0.3792(3)
C37 C 0.3982(1) -0.0022(3) 0.4500(3)
C38 C 0.3680(1) 0.0055(4) 0.4297(3)
C39 C 0.3588(1) 0.0217(3) 0.3366(3)
C40 C 0.3799(1) 0.0314(3) 0.2639(3)
C41 C 0.4098(1) 0.0265(3) 0.2859(3)
C42 C 0.4848(1) -0.1777(3) 0.4797(3)
C43 C 0.4898(1) -0.2606(3) 0.4615(4)
C44 C 0.5180(1) -0.2871(3) 0.4309(3)
C45 C 0.5399(1) -0.2282(3) 0.4180(3)
C46 C 0.5334(1) -0.1479(3) 0.4359(3)
C47 C 0.5713(1) -0.2535(3) 0.3947(3)
C48 C 0.5647(1) -0.1984(3) 0.2332(4)
C49 C 0.5494(2) -0.2671(4) 0.1773(4)
C50 C 0.6144(1) -0.2471(4) 0.2938(4)
C51 C 0.6328(1) -0.1742(4) 0.3110(5)
H39 H 0.40498 -0.01539 0.51648
H40 H 0.35298 -0.00132 0.48195
H41 H 0.32290 0.03810 0.25440
H42 H 0.37309 0.04150 0.19649
H43 H 0.42534 0.03471 0.23523
H44 H 0.46450 -0.15911 0.50146
H45 H 0.47328 -0.30135 0.47163
H46 H 0.52190 -0.34890 0.42000
H47 H 0.54974 -0.10551 0.42523
H48 H 0.57920 -0.16260 0.18920
H49 H 0.54330 -0.16420 0.24900
H50 H 0.53655 -0.24077 0.11993
H51 H 0.53493 -0.30111 0.22426
H52 H 0.56605 -0.30788 0.14807
H53 H 0.61700 -0.26573 0.22033
H54 H 0.62179 -0.29599 0.34019
H55 H 0.65580 -0.18873 0.29662
H56 H 0.63051 -0.15524 0.38447
H57 H 0.62572 -0.12499 0.26461
O9D O 0.5423(1) 0.0148(2) 0.5112(2)
O10D O 0.5292(1) -0.0218(2) 0.6566(2)
O11D O 0.6706(1) -0.0285(2) 0.6789(2)
C35D C 0.5489(1) -0.0052(3) 0.5976(3)
C36D C 0.5811(1) -0.0105(2) 0.6208(3)
C37D C 0.6018(1) 0.0022(3) 0.5500(3)
C38D C 0.6320(1) -0.0055(4) 0.5703(3)
C39D C 0.6412(1) -0.0217(3) 0.6634(3)
C40D C 0.6201(1) -0.0314(3) 0.7361(3)
C41D C 0.5902(1) -0.0265(3) 0.7141(3)
H39D H 0.59502 0.01539 0.48352
H40D H 0.64702 0.00132 0.51805
H41D H 0.67710 -0.03810 0.74560
H42D H 0.62691 -0.04150 0.80351
H43D H 0.57466 -0.03471 0.76477
O12D O 0.4142(1) 0.2904(3) 0.5430(3)
N5D N 0.4930(1) 0.1212(2) 0.5331(2)
N6D N 0.4174(1) 0.2310(2) 0.6877(3)
C42D C 0.5152(1) 0.1777(3) 0.5203(3)
C43D C 0.5102(1) 0.2606(3) 0.5385(4)
C44D C 0.4820(1) 0.2871(3) 0.5691(3)
C45D C 0.4601(1) 0.2282(3) 0.5820(3)
C46D C 0.4666(1) 0.1479(3) 0.5641(3)
C47D C 0.4287(1) 0.2535(3) 0.6053(3)
C48D C 0.4353(1) 0.1984(3) 0.7668(4)
C49D C 0.4506(2) 0.2671(4) 0.8227(4)
C50D C 0.3856(1) 0.2471(4) 0.7062(4)
C51D C 0.3672(1) 0.1742(4) 0.6890(5)
H44D H 0.53550 0.15911 0.49854
H45D H 0.52672 0.30135 0.52837
H46D H 0.47810 0.34890 0.58000
H47D H 0.45026 0.10551 0.57477
H48D H 0.42080 0.16260 0.81080
H49D H 0.45670 0.16420 0.75100
H50D H 0.46345 0.24077 0.88007
H51D H 0.46507 0.30111 0.77574
H52D H 0.43395 0.30788 0.85193
H53D H 0.38300 0.26573 0.77967
H54D H 0.37821 0.29599 0.65981
H55D H 0.34420 0.18873 0.70338
H56D H 0.36949 0.15524 0.61553
H57D H 0.37428 0.12499 0.73539
loop_
_geom_bond_atom_site_label_1
_geom_bond_atom_site_label_2
_geom_bond_site_symmetry_1
_geom_bond_site_symmetry_2
Cu1 O1 1_555 1_555
Cu2 O9 1_555 1_555
O1 C1 1_555 1_555
O2 Cu1 1_555 1_555
O3 C5 1_555 1_555
O4 C13 1_555 1_555
N1 Cu1 1_555 1_555
N2 C13 1_555 1_555
C1 O2 1_555 1_555
C2 C1 1_555 1_555
C3 C2 1_555 1_555
C4 C3 1_555 1_555
C5 C4 1_555 1_555
C6 C5 1_555 1_555
C7 C2 1_555 1_555
C8 N1 1_555 1_555
C9 C8 1_555 1_555
C10 C9 1_555 1_555
C11 C10 1_555 1_555
C12 N1 1_555 1_555
C13 C11 1_555 1_555
C14 N2 1_555 1_555
C15 C14 1_555 1_555
C16 N2 1_555 1_555
C17 C16 1_555 1_555
O5 Cu1 1_555 1_555
O6 C18 1_555 1_555
O7 C22 1_555 1_555
O8 C30 1_555 1_555
N3 Cu1 1_555 1_555
N4 C30 1_555 1_555
C18 O5 1_555 1_555
C19 C18 1_555 1_555
C20 C19 1_555 1_555
C21 C20 1_555 1_555
C22 C21 1_555 1_555
C23 C22 1_555 1_555
C24 C19 1_555 1_555
C25 N3 1_555 1_555
C26 C25 1_555 1_555
C27 C26 1_555 1_555
C28 C27 1_555 1_555
C29 N3 1_555 1_555
C30 C28 1_555 1_555
C31 N4 1_555 1_555
C32 C31 1_555 1_555
C33 N4 1_555 1_555
C34 C33 1_555 1_555
O9 C35 1_555 1_555
O10 Cu2 1_555 1_555
O11 C39 1_555 1_555
O12 C47 1_555 1_555
N5 Cu2 1_555 1_555
N6 C47 1_555 1_555
C35 O10 1_555 1_555
C36 C35 1_555 1_555
C37 C36 1_555 1_555
C38 C37 1_555 1_555
C39 C38 1_555 1_555
C40 C39 1_555 1_555
C41 C36 1_555 1_555
C42 N5 1_555 1_555
C43 C42 1_555 1_555
C44 C43 1_555 1_555
C45 C44 1_555 1_555
C46 N5 1_555 1_555
C47 C45 1_555 1_555
C48 N6 1_555 1_555
C49 C48 1_555 1_555
C50 N6 1_555 1_555
C51 C50 1_555 1_555
H1 C3 1_555 1_555
H2 C4 1_555 1_555
H3 O3 1_555 1_555
H4 C6 1_555 1_555
H5 C7 1_555 1_555
H6 C8 1_555 1_555
H7 C9 1_555 1_555
H8 C10 1_555 1_555
H9 C12 1_555 1_555
H10 C14 1_555 1_555
H11 C14 1_555 1_555
H12 C15 1_555 1_555
H13 C15 1_555 1_555
H14 C15 1_555 1_555
H15 C16 1_555 1_555
H16 C16 1_555 1_555
H17 C17 1_555 1_555
H18 C17 1_555 1_555
H19 C17 1_555 1_555
H20 C20 1_555 1_555
H21 C21 1_555 1_555
H22 O7 1_555 1_555
H23 C23 1_555 1_555
H24 C24 1_555 1_555
H25 C25 1_555 1_555
H26 C26 1_555 1_555
H27 C27 1_555 1_555
H28 C29 1_555 1_555
H29 C31 1_555 1_555
H30 C31 1_555 1_555
H31 C32 1_555 1_555
H32 C32 1_555 1_555
H33 C32 1_555 1_555
H34 C33 1_555 1_555
H35 C33 1_555 1_555
H36 C34 1_555 1_555
H37 C34 1_555 1_555
H38 C34 1_555 1_555
H39 C37 1_555 1_555
H40 C38 1_555 1_555
H41 O11 1_555 1_555
H42 C40 1_555 1_555
H43 C41 1_555 1_555
H44 C42 1_555 1_555
H45 C43 1_555 1_555
H46 C44 1_555 1_555
H47 C46 1_555 1_555
H48 C48 1_555 1_555
H49 C48 1_555 1_555
H50 C49 1_555 1_555
H51 C49 1_555 1_555
H52 C49 1_555 1_555
H53 C50 1_555 1_555
H54 C50 1_555 1_555
H55 C51 1_555 1_555
H56 C51 1_555 1_555
H57 C51 1_555 1_555
O9D Cu2 1_555 1_555
O10D Cu2 1_555 1_555
O11D C39D 1_555 1_555
C35D O9D 1_555 1_555
C36D C35D 1_555 1_555
C37D C36D 1_555 1_555
C38D C37D 1_555 1_555
C39D C38D 1_555 1_555
C40D C39D 1_555 1_555
C41D C36D 1_555 1_555
H39D C37D 1_555 1_555
H40D C38D 1_555 1_555
H41D O11D 1_555 1_555
H42D C40D 1_555 1_555
H43D C41D 1_555 1_555
O12D C47D 1_555 1_555
N5D Cu2 1_555 1_555
N6D C47D 1_555 1_555
C42D N5D 1_555 1_555
C43D C42D 1_555 1_555
C44D C43D 1_555 1_555
C45D C44D 1_555 1_555
C46D N5D 1_555 1_555
C47D C45D 1_555 1_555
C48D N6D 1_555 1_555
C49D C48D 1_555 1_555
C50D N6D 1_555 1_555
C51D C50D 1_555 1_555
H44D C42D 1_555 1_555
H45D C43D 1_555 1_555
H46D C44D 1_555 1_555
H47D C46D 1_555 1_555
H48D C48D 1_555 1_555
H49D C48D 1_555 1_555
H50D C49D 1_555 1_555
H51D C49D 1_555 1_555
H52D C49D 1_555 1_555
H53D C50D 1_555 1_555
H54D C50D 1_555 1_555
H55D C51D 1_555 1_555
H56D C51D 1_555 1_555
H57D C51D 1_555 1_555
O1C C1C 1_555 1_555
O2C C1C 1_555 1_555
O3C Cu1 1_555 1_555
C1C C2C 1_555 1_555
C2C C3C 1_555 1_555
C3C C4C 1_555 1_555
C4C C5C 1_555 1_555
C5C O3C 1_555 1_555
C6C C5C 1_555 1_555
C7C C2C 1_555 1_555
H1C C3C 1_555 1_555
H2C C4C 1_555 1_555
H3C O3C 1_555 1_555
H4C C6C 1_555 1_555
H5C C7C 1_555 1_555
Cu1C O1C 1_555 1_555
O4C C13C 1_555 1_555
N1C Cu1C 1_555 1_555
N2C C13C 1_555 1_555
C8C N1C 1_555 1_555
C9C C8C 1_555 1_555
C10C C9C 1_555 1_555
C11C C10C 1_555 1_555
C12C N1C 1_555 1_555
C13C C11C 1_555 1_555
C14C N2C 1_555 1_555
C15C C14C 1_555 1_555
C16C N2C 1_555 1_555
C17C C16C 1_555 1_555
H6C C8C 1_555 1_555
H7C C9C 1_555 1_555
H8C C10C 1_555 1_555
H9C C12C 1_555 1_555
H10C C14C 1_555 1_555
H11C C14C 1_555 1_555
H12C C15C 1_555 1_555
H13C C15C 1_555 1_555
H14C C15C 1_555 1_555
H15C C16C 1_555 1_555
H16C C16C 1_555 1_555
H17C C17C 1_555 1_555
H18C C17C 1_555 1_555
H19C C17C 1_555 1_555
O5C Cu1C 1_555 1_555
O6C C18C 1_555 1_555
O7C C22C 1_555 1_555
C18C O5C 1_555 1_555
C19C C18C 1_555 1_555
C20C C19C 1_555 1_555
C21C C20C 1_555 1_555
C22C C21C 1_555 1_555
C23C C22C 1_555 1_555
C24C C19C 1_555 1_555
H20C C20C 1_555 1_555
H21C C21C 1_555 1_555
H22C O7C 1_555 1_555
H23C C23C 1_555 1_555
H24C C24C 1_555 1_555
O8C C30C 1_555 1_555
N3C Cu1C 1_555 1_555
N4C C30C 1_555 1_555
C25C N3C 1_555 1_555
C26C C25C 1_555 1_555
C27C C26C 1_555 1_555
C28C C27C 1_555 1_555
C29C N3C 1_555 1_555
C30C C28C 1_555 1_555
C31C N4C 1_555 1_555
C32C C31C 1_555 1_555
C33C N4C 1_555 1_555
C34C C33C 1_555 1_555
H25C C25C 1_555 1_555
H26C C26C 1_555 1_555
H27C C27C 1_555 1_555
H28C C29C 1_555 1_555
H29C C31C 1_555 1_555
H30C C31C 1_555 1_555
H31C C32C 1_555 1_555
H32C C32C 1_555 1_555
H33C C32C 1_555 1_555
H34C C33C 1_555 1_555
H35C C33C 1_555 1_555
H36C C34C 1_555 1_555
H37C C34C 1_555 1_555
H38C C34C 1_555 1_555
Cu1C_2 O3 1_555 1_555
O3_2 Cu1C 1_555 1_555
H3_2 O3_2 1_555 1_555
C6 C7 1_555 1_555
C11 C12 1_555 1_555
C23 C24 1_555 1_555
C28 C29 1_555 1_555
C40 C41 1_555 1_555
C45 C46 1_555 1_555
O10D C35D 1_555 1_555
C40D C41D 1_555 1_555
C45D C46D 1_555 1_555
O2C Cu1C 1_555 1_555
C6C C7C 1_555 1_555
C11C C12C 1_555 1_555
C23C C24C 1_555 1_555
C28C C29C 1_555 1_555

#END
