
#######################################################################
#
#                 Cambridge Crystallographic Data Centre
#                                CCDC 
#
#######################################################################
#
# If this CIF has been generated from an entry in the Cambridge 
# Structural Database, then it will include bibliographic, chemical, 
# crystal, experimental, refinement or atomic coordinate data resulting 
# from the CCDC's data processing and validation procedures.
#
#######################################################################

data_WERGAC
_symmetry_cell_setting           triclinic
_symmetry_space_group_name_H-M   'P -1'
_symmetry_Int_Tables_number      2
_space_group_name_Hall           '-P 1'
loop_
_symmetry_equiv_pos_site_id
_symmetry_equiv_pos_as_xyz
1 x,y,z
2 -x,-y,-z
_cell_length_a                   9.6982(10)
_cell_length_b                   10.1104(11)
_cell_length_c                   11.3940(12)
_cell_angle_alpha                99.0150(10)
_cell_angle_beta                 107.7430(10)
_cell_angle_gamma                96.3720(10)
_cell_volume                     1035.85
loop_
_atom_site_label
_atom_site_type_symbol
_atom_site_fract_x
_atom_site_fract_y
_atom_site_fract_z
Pb1 Pb 0.24717(6) -0.07403(5) -0.58673(6)
Pb2 Pb -0.21190(6) -0.59145(6) -0.58707(6)
Pb3 Pb -0.19117(6) -0.30245(6) -0.30141(6)
Pb4 Pb 0.53019(6) -0.62719(5) -0.40179(6)
P1 P -0.0587(4) -0.2016(4) -0.5126(4)
P2 P 0.4893(4) -0.1065(4) -0.3244(4)
O1 O 0.1027(11) -0.1323(11) -0.4619(11)
O2 O -0.0678(11) -0.3497(10) -0.5077(13)
O3 O -0.1531(13) -0.1409(12) -0.4394(12)
O4 O -0.3468(11) -0.4540(11) -0.4577(11)
O5 O -0.0031(17) -0.5326(12) -0.7462(14)
O6 O 0.1700(12) -0.3469(11) -0.6526(14)
O7 O 0.4120(13) -0.4856(12) -0.2535(13)
O8 O 0.6538(13) -0.4248(13) -0.1830(13)
O9 O 0.4099(13) -0.2403(11) -0.4206(12)
O10 O 0.4541(13) 0.0147(11) -0.3833(12)
O11 O 0.6522(12) -0.1124(12) -0.2742(12)
N1 N -0.0406(14) -0.1870(12) -0.7485(12)
N2 N 0.3763(14) -0.2264(14) -0.1608(13)
C1 C -0.0767(19) -0.1063(16) -0.8488(15)
H1 H -0.1815 -0.1211 -0.8932
H2 H -0.0417 -0.0100 -0.8151
C2 C 0.007(3) -0.164(2) -0.9333(19)
H3 H 0.1101 -0.1244 -0.8998
H4 H -0.0338 -0.1479 -1.0178
C3 C -0.015(3) -0.3138(19) -0.932(2)
H5 H -0.0946 -0.3630 -1.0064
H6 H 0.0738 -0.3502 -0.9308
C4 C -0.0521(19) -0.3250(15) -0.8129(16)
H7 H -0.1547 -0.3694 -0.8378
C5 C -0.1373(17) -0.1716(15) -0.6690(16)
H8 H -0.1603 -0.0804 -0.6628
H9 H -0.2289 -0.2345 -0.7107
C6 C 0.0454(18) -0.4114(17) -0.7317(15)
C7 C 0.294(2) -0.2194(19) -0.0765(18)
H10 H 0.1900 -0.2443 -0.1224
H11 H 0.3132 -0.1282 -0.0268
C8 C 0.345(2) -0.319(2) 0.0071(17)
H12 H 0.3294 -0.2952 0.0872
H13 H 0.2954 -0.4112 -0.0332
C9 C 0.505(2) -0.3049(16) 0.0236(17)
H14 H 0.5420 -0.3882 0.0391
H15 H 0.5614 -0.2311 0.0931
C10 C 0.5155(17) -0.2747(17) -0.0989(18)
H16 H 0.5998 -0.2032 -0.0829
C11 C 0.4039(19) -0.0990(15) -0.2043(16)
H17 H 0.4655 -0.0308 -0.1321
H18 H 0.3108 -0.0681 -0.2357
C12 C 0.530(2) -0.4024(16) -0.1841(15)
Pb1A Pb -0.24717(6) 0.07403(5) -0.41327(6)
Pb2A Pb 0.21190(6) -0.40855(6) -0.41293(6)
Pb3A Pb 0.19117(6) -0.69755(6) -0.69859(6)
Pb3_2 Pb 0.80883(6) -0.30245(6) -0.30141(6)
Pb4A Pb -0.53019(6) -0.37281(5) -0.59821(6)
Pb4A_2 Pb 0.46981(6) -0.37281(5) -0.59821(6)
Pb4_2 Pb -0.46981(6) -0.62719(5) -0.40179(6)
O3A O 0.1531(13) 0.1409(12) -0.5606(12)
O4A O 0.3468(11) -0.5460(11) -0.5423(11)
O4_2 O 0.6532(11) -0.4540(11) -0.4577(11)
O5A O 0.0031(17) -0.4674(12) -0.2538(14)
O7A O -0.4120(13) -0.5144(12) -0.7465(13)
O8_2 O -0.3462(13) -0.4248(13) -0.1830(13)
O9A O 0.5901(13) -0.7597(11) -0.5794(12)
O9A_2 O -0.4099(13) -0.7597(11) -0.5794(12)
O11_2 O -0.3478(12) -0.1124(12) -0.2742(12)
loop_
_geom_bond_atom_site_label_1
_geom_bond_atom_site_label_2
_geom_bond_site_symmetry_1
_geom_bond_site_symmetry_2
Pb1 O1 1_555 1_555
Pb2 O2 1_555 1_555
Pb3 O3 1_555 1_555
Pb4 O7 1_555 1_555
P1 O1 1_555 1_555
P2 O9 1_555 1_555
O2 P1 1_555 1_555
O3 P1 1_555 1_555
O4 Pb2 1_555 1_555
O5 C6 1_555 1_555
O6 Pb1 1_555 1_555
O7 C12 1_555 1_555
O8 C12 1_555 1_555
O9 Pb2A 1_555 1_555
O10 Pb1 1_555 1_555
O11 P2 1_555 1_555
N1 C1 1_555 1_555
N2 C7 1_555 1_555
C1 H1 1_555 1_555
H2 C1 1_555 1_555
C2 C1 1_555 1_555
H3 C2 1_555 1_555
H4 C2 1_555 1_555
C3 C2 1_555 1_555
H5 C3 1_555 1_555
H6 C3 1_555 1_555
C4 N1 1_555 1_555
H7 C4 1_555 1_555
C5 P1 1_555 1_555
H8 C5 1_555 1_555
H9 C5 1_555 1_555
C6 O6 1_555 1_555
C7 H10 1_555 1_555
H11 C7 1_555 1_555
C8 C7 1_555 1_555
H12 C8 1_555 1_555
H13 C8 1_555 1_555
C9 C8 1_555 1_555
H14 C9 1_555 1_555
H15 C9 1_555 1_555
C10 N2 1_555 1_555
H16 C10 1_555 1_555
C11 P2 1_555 1_555
H17 C11 1_555 1_555
H18 C11 1_555 1_555
C12 C10 1_555 1_555
Pb1A O3 1_555 1_555
Pb2A O7 1_555 1_555
Pb3A O5 1_555 1_555
Pb3_2 O8 1_555 1_555
Pb4A O4 1_555 1_555
Pb4A_2 O9 1_555 1_555
Pb4_2 O4 1_555 1_555
O3A Pb1 1_555 1_555
O4A Pb4 1_555 1_555
O4_2 Pb4 1_555 1_555
O5A Pb3 1_555 1_555
O7A Pb2 1_555 1_555
O8_2 Pb3 1_555 1_555
O9A Pb4 1_555 1_555
O9A_2 Pb2 1_555 1_555
O11_2 Pb3 1_555 1_555
Pb3 O4 1_555 1_555
P2 O10 1_555 1_555
O11 Pb3_2 1_555 1_555
N1 C5 1_555 1_555
N2 C11 1_555 1_555
C3 C4 1_555 1_555
C4 C6 1_555 1_555
C9 C10 1_555 1_555
Pb2A O4A 1_555 1_555
Pb3A O4A 1_555 1_555
Pb3_2 O4_2 1_555 1_555
Pb4A O7A 1_555 1_555
Pb4A_2 O4A 1_555 1_555
Pb4A_2 O4_2 1_555 1_555
Pb4_2 O9A_2 1_555 1_555

#END
