
#######################################################################
#
#                 Cambridge Crystallographic Data Centre
#                                CCDC 
#
#######################################################################
#
# If this CIF has been generated from an entry in the Cambridge 
# Structural Database, then it will include bibliographic, chemical, 
# crystal, experimental, refinement or atomic coordinate data resulting 
# from the CCDC's data processing and validation procedures.
#
#######################################################################

data_WERHOR
_symmetry_cell_setting           orthorhombic
_symmetry_space_group_name_H-M   'P n m a'
_symmetry_Int_Tables_number      62
_space_group_name_Hall           '-P 2ac 2n'
loop_
_symmetry_equiv_pos_site_id
_symmetry_equiv_pos_as_xyz
1 x,y,z
2 1/2-x,-y,1/2+z
3 -x,1/2+y,-z
4 1/2+x,1/2-y,1/2-z
5 -x,-y,-z
6 1/2+x,y,1/2-z
7 x,1/2-y,z
8 1/2-x,1/2+y,1/2+z
_cell_length_a                   8.114(4)
_cell_length_b                   6.907(4)
_cell_length_c                   9.122(5)
_cell_angle_alpha                90
_cell_angle_beta                 90
_cell_angle_gamma                90
_cell_volume                     511.228
loop_
_atom_site_label
_atom_site_type_symbol
_atom_site_fract_x
_atom_site_fract_y
_atom_site_fract_z
Cs1 Cs 0.48558(8) 0.2500 1.19756(6)
N1 N 0.2106(7) 0.5901(7) 1.1557(6)
N2 N 0.1838(7) 0.6565(8) 1.0201(6)
N3 N 0.2472(12) 0.7500 1.3884(9)
H1 H 0.3130 0.6467 1.4020
H2 H 0.3130 0.8533 1.4020
C1 C 0.2240(11) 0.7500 1.2379(9)
Cs1E Cs -0.01442(8) 0.2500 1.30244(6)
Cs1E_2 Cs 0.98558(8) 0.2500 1.30244(6)
Cs1G Cs 0.01442(8) 0.7500 0.69756(6)
Cs1D Cs 0.51442(8) 0.7500 0.80244(6)
Cs1G_2 Cs 0.01442(8) 0.7500 1.69756(6)
Cs1_2 Cs 0.48558(8) 1.2500 1.19756(6)
Cs1E_3 Cs -0.01442(8) 1.2500 1.30244(6)
N1F N 0.2106(7) 0.9099(7) 1.1557(6)
N1E N 0.7106(7) 0.5901(7) 1.3443(6)
N1F_2 N 0.2106(7) -0.0901(7) 1.1557(6)
N1C N 0.7106(7) -0.0901(7) 1.3443(6)
N2F N 0.1838(7) 0.8435(8) 1.0201(6)
N2G N 0.3162(7) 0.1565(8) 1.5201(6)
N2D N 0.8162(7) 0.3435(8) 0.9799(6)
N2A N 0.3162(7) 0.3435(8) 1.5201(6)
N2B N 0.8162(7) 0.1565(8) 0.9799(6)
N3G N 0.2528(12) 0.2500 0.8884(9)
H1G H 0.1870 0.1467 0.9020
H1A H 0.1870 0.3533 0.9020
loop_
_geom_bond_atom_site_label_1
_geom_bond_atom_site_label_2
_geom_bond_site_symmetry_1
_geom_bond_site_symmetry_2
Cs1 N1 1_555 1_555
N1 N2 1_555 1_555
N2 Cs1G 1_555 1_555
N3 H1 1_555 1_555
H2 N3 1_555 1_555
C1 N1 1_555 1_555
Cs1E N1 1_555 1_555
Cs1E_2 N1E 1_555 1_555
Cs1G N2F 1_555 1_555
Cs1D N2 1_555 1_555
Cs1G_2 N3 1_555 1_555
Cs1_2 N1F 1_555 1_555
Cs1E_3 N1F 1_555 1_555
N1F C1 1_555 1_555
N1E Cs1 1_555 1_555
N1F_2 Cs1 1_555 1_555
N1C Cs1 1_555 1_555
N2F N2 1_555 1_555
N2G Cs1 1_555 1_555
N2D Cs1 1_555 1_555
N2A Cs1 1_555 1_555
N2B Cs1 1_555 1_555
N3G Cs1 1_555 1_555
H1G N3G 1_555 1_555
H1A N3G 1_555 1_555
N3 C1 1_555 1_555
Cs1E N1F_2 1_555 1_555
Cs1E N2G 1_555 1_555
Cs1E N2A 1_555 1_555
Cs1E_2 N1C 1_555 1_555
Cs1E_2 N2D 1_555 1_555
Cs1E_2 N2B 1_555 1_555
Cs1D N2F 1_555 1_555
N1F N2F 1_555 1_555
N2G N2A 1_555 1_555
N2D N2B 1_555 1_555

#END
