
#######################################################################
#
#                 Cambridge Crystallographic Data Centre
#                                CCDC 
#
#######################################################################
#
# If this CIF has been generated from an entry in the Cambridge 
# Structural Database, then it will include bibliographic, chemical, 
# crystal, experimental, refinement or atomic coordinate data resulting 
# from the CCDC's data processing and validation procedures.
#
#######################################################################

data_WERJIN
_symmetry_cell_setting           triclinic
_symmetry_space_group_name_H-M   'P -1'
_symmetry_Int_Tables_number      2
_space_group_name_Hall           '-P 1'
loop_
_symmetry_equiv_pos_site_id
_symmetry_equiv_pos_as_xyz
1 x,y,z
2 -x,-y,-z
_cell_length_a                   11.298(2)
_cell_length_b                   12.689(1)
_cell_length_c                   21.030(3)
_cell_angle_alpha                81.189(9)
_cell_angle_beta                 80.95(1)
_cell_angle_gamma                65.832(9)
_cell_volume                     2703.15
loop_
_atom_site_label
_atom_site_type_symbol
_atom_site_fract_x
_atom_site_fract_y
_atom_site_fract_z
La1 La 0.832874(13) 0.433630(12) 0.278244(7)
O1 O 0.72254(17) 0.52535(17) 0.37578(9)
O2 O 0.52854(15) 1.26218(15) 0.48657(8)
O3 O 0.3992(2) 0.91556(18) 0.28897(10)
O4 O 0.6793(2) 0.61853(17) 0.23381(11)
O5 O 0.97501(19) 0.42297(18) 0.17676(9)
O6 O 1.1598(2) 0.5821(2) 0.03495(11)
O7 O 0.97128(19) 0.55609(17) 0.28283(11)
O8 O 1.04930(18) 0.38060(17) 0.32622(10)
O9 O 1.1544(2) 0.4893(2) 0.32305(17)
O10 O 0.6373(2) 0.37166(19) 0.28672(10)
O11 O 0.7264(2) 0.38724(19) 0.18995(10)
O12 O 0.5458(3) 0.3608(2) 0.20699(14)
O13 O 0.86688(18) 0.26112(17) 0.36570(9)
O14 O 0.9686(2) 0.21469(16) 0.27209(10)
O15 O 0.9896(3) 0.08263(19) 0.35285(13)
N1 N 0.70774(19) 0.62015(19) 0.45965(11)
H1 H 0.6561 0.6646 0.4881
N2 N 0.6354(2) 0.8061(2) 0.22595(14)
H2 H 0.5779 0.8763 0.2242
N3 N 1.1684(2) 0.4190(2) 0.13050(12)
H3 H 1.2095 0.4467 0.0992
N4 N 1.0612(2) 0.4757(2) 0.31116(12)
N5 N 0.6341(3) 0.3724(2) 0.22731(14)
N6 N 0.9422(2) 0.1832(2) 0.33102(13)
C1 C 0.7513(5) 0.9805(3) 0.2416(2)
H4 H 0.6988 0.9732 0.2793
C2 C 0.7786(6) 1.0762(4) 0.2288(3)
H5 H 0.7472 1.1324 0.2578
C3 C 0.8523(7) 1.0894(5) 0.1733(4)
H6 H 0.8708 1.1555 0.1653
C4 C 0.9000(7) 1.0122(6) 0.1293(4)
H7 H 0.9489 1.0241 0.0911
C5 C 0.8713(5) 0.9074(5) 0.1446(3)
H8 H 0.9026 0.8505 0.1160
C6 C 0.7969(3) 0.8947(3) 0.20188(19)
C7 C 0.7720(4) 0.7862(3) 0.2198(3)
H9 H 0.8068 0.7492 0.2605
H10 H 0.8185 0.7332 0.1871
C8 C 0.5971(3) 0.7204(2) 0.23406(13)
C9 C 0.4558(3) 0.7450(2) 0.23979(13)
C10 C 0.4181(3) 0.6657(3) 0.21876(16)
H11 H 0.4818 0.6008 0.2007
C11 C 0.2899(4) 0.6805(3) 0.22387(19)
H12 H 0.2670 0.6267 0.2091
C12 C 0.1955(4) 0.7758(4) 0.2511(2)
H13 H 0.1083 0.7867 0.2543
C13 C 0.2284(3) 0.8553(3) 0.27383(17)
H14 H 0.1640 0.9188 0.2928
C14 C 0.3581(3) 0.8401(2) 0.26831(14)
C15 C 0.3121(3) 0.9993(3) 0.33151(16)
H15 H 0.2442 1.0599 0.3081
H16 H 0.2714 0.9624 0.3667
C16 C 0.3914(3) 1.0496(2) 0.35742(13)
C17 C 0.3717(3) 1.1638(3) 0.34335(15)
H17 H 0.3085 1.2115 0.3164
C18 C 0.4439(3) 1.2099(3) 0.36840(16)
H18 H 0.4291 1.2879 0.3580
C19 C 0.5375(2) 1.1415(2) 0.40852(13)
C20 C 0.5581(3) 1.0262(3) 0.42196(14)
H19 H 0.6219 0.9783 0.4485
C21 C 0.4862(3) 0.9804(3) 0.39696(14)
H20 H 0.5018 0.9021 0.4068
C22 C 0.6144(3) 1.1914(3) 0.43723(15)
H21 H 0.6467 1.2381 0.4041
H22 H 0.6884 1.1295 0.4559
C23 C 0.5767(2) 1.3139(2) 0.52253(12)
C24 C 0.7079(2) 1.2962(2) 0.51551(14)
H23 H 0.7660 1.2490 0.4850
C25 C 0.7517(3) 1.3488(3) 0.55373(15)
H24 H 0.8395 1.3365 0.5487
C26 C 0.6682(3) 1.4190(3) 0.59919(15)
H25 H 0.6987 1.4537 0.6250
C27 C 0.5374(3) 1.4370(2) 0.60593(13)
H26 H 0.4805 1.4848 0.6365
C28 C 0.4886(2) 1.38587(19) 0.56840(11)
C29 C 0.6547(2) 0.5845(2) 0.42068(12)
C30 C 0.8476(2) 0.5903(3) 0.45863(18)
H27 H 0.8935 0.5527 0.4200
H28 H 0.8801 0.5361 0.4959
C31 C 0.8745(2) 0.6965(2) 0.45963(13)
C32 C 0.8965(3) 0.7593(3) 0.40340(15)
H29 H 0.8956 0.7355 0.3639
C33 C 0.9198(3) 0.8570(3) 0.40465(19)
H30 H 0.9342 0.8986 0.3659
C34 C 0.9222(3) 0.8930(3) 0.4608(2)
H31 H 0.9381 0.9593 0.4610
C35 C 0.9011(3) 0.8326(3) 0.51772(18)
H32 H 0.9026 0.8577 0.5568
C36 C 0.8772(3) 0.7324(3) 0.51750(14)
H33 H 0.8634 0.6907 0.5563
C37 C 1.2607(6) 0.1357(5) 0.1561(2)
H34 H 1.1785 0.1535 0.1789
C38 C 1.3231(11) 0.0299(6) 0.1296(3)
H35 H 1.2841 -0.0229 0.1332
C39 C 1.4449(13) 0.0080(9) 0.0978(6)
H36 H 1.4893 -0.0627 0.0804
C40 C 1.5042(12) 0.0819(11) 0.0903(7)
H37 H 1.5860 0.0642 0.0671
C41 C 1.4392(4) 0.1872(6) 0.1184(3)
H38 H 1.4799 0.2385 0.1158
C42 C 1.3176(4) 0.2138(4) 0.14940(17)
C43 C 1.2454(3) 0.3278(3) 0.17731(16)
H39 H 1.1877 0.3181 0.2150
H40 H 1.3074 0.3519 0.1914
C44 C 1.0400(3) 0.4608(3) 0.13349(12)
C45 C 0.9709(3) 0.5564(3) 0.08452(13)
C46 C 0.8377(3) 0.5883(3) 0.08695(15)
H41 H 0.7980 0.5476 0.1168
C47 C 0.7617(4) 0.6791(4) 0.04618(18)
H42 H 0.6723 0.6992 0.0490
C48 C 0.8191(5) 0.7390(4) 0.00192(19)
H43 H 0.7682 0.8010 -0.0249
C49 C 0.9500(4) 0.7085(3) -0.00322(17)
H44 H 0.9882 0.7486 -0.0345
C50 C 1.0280(3) 0.6180(3) 0.03777(14)
C51 C 1.2287(4) 0.6369(4) -0.01355(18)
H45 H 1.2046 0.7168 -0.0059
H46 H 1.2088 0.6354 -0.0566
C52 C 1.3699(4) 0.5672(4) -0.00684(18)
C53 C 1.4471(5) 0.5017(6) -0.0533(2)
H47 H 1.4126 0.5020 -0.0907
C54 C 1.4229(5) 0.5664(6) 0.0467(2)
H48 H 1.3714 0.6120 0.0793
La1A La 0.167126(13) 1.566370(12) 0.721756(7)
La1A_2 La 2.167126(13) 0.566370(12) -0.278244(7)
O1A O 0.27746(17) 1.47465(17) 0.62422(9)
O2A O 0.47146(15) 0.73782(15) 0.51343(8)
O3A O 0.6008(2) 1.08444(18) 0.71103(10)
O4A O 0.3207(2) 1.38147(17) 0.76619(11)
O5A O 2.02499(19) 0.57703(18) -0.17676(9)
O5A_2 O 0.02499(19) 1.57703(18) 0.82324(9)
O6A O 1.8402(2) 0.4179(2) -0.03495(11)
O7A O 0.02872(19) 1.44391(17) 0.71717(11)
O8A O -0.04930(18) 1.61940(17) 0.67378(10)
O9A O -0.1544(2) 1.5107(2) 0.67695(17)
O10A O 0.3627(2) 1.62834(19) 0.71328(10)
O11A O 0.2736(2) 1.61276(19) 0.81005(10)
O12A O 0.4542(3) 1.6392(2) 0.79301(14)
O13A O 0.13312(18) 1.73888(17) 0.63430(9)
O14A O 0.0314(2) 1.78531(16) 0.72791(10)
O15A O 0.0104(3) 1.91737(19) 0.64715(13)
N1A N 0.29226(19) 1.37985(19) 0.54035(11)
H1A H 0.3439 1.3354 0.5119
N2A N 0.3646(2) 1.1939(2) 0.77405(14)
H2A H 0.4221 1.1237 0.7758
N3A N 1.8316(2) 0.5810(2) -0.13050(12)
H3A H 1.7905 0.5533 -0.0992
N4A N -0.0612(2) 1.5243(2) 0.68884(12)
N5A N 0.3659(3) 1.6276(2) 0.77269(14)
N6A N 0.0578(2) 1.8168(2) 0.66898(13)
C1A C 0.2487(5) 1.0195(3) 0.7584(2)
H4A H 0.3012 1.0268 0.7207
C2A C 0.2214(6) 0.9238(4) 0.7712(3)
H5A H 0.2528 0.8676 0.7422
C3A C 0.1477(7) 0.9106(5) 0.8267(4)
H6A H 0.1292 0.8445 0.8347
C4A C 0.1000(7) 0.9878(6) 0.8707(4)
H7A H 0.0511 0.9759 0.9089
C5A C 0.1287(5) 1.0926(5) 0.8554(3)
H8A H 0.0974 1.1495 0.8840
C6A C 0.2031(3) 1.1053(3) 0.79812(19)
C7A C 0.2280(4) 1.2138(3) 0.7802(3)
H9A H 0.1932 1.2508 0.7395
H10A H 0.1815 1.2668 0.8129
C8A C 0.4029(3) 1.2796(2) 0.76594(13)
C9A C 0.5442(3) 1.2550(2) 0.76021(13)
C10A C 0.5819(3) 1.3343(3) 0.78124(16)
H11A H 0.5182 1.3992 0.7993
C11A C 0.7101(4) 1.3195(3) 0.77613(19)
H12A H 0.7330 1.3733 0.7909
C12A C 0.8045(4) 1.2242(4) 0.7489(2)
H13A H 0.8917 1.2133 0.7457
C13A C 0.7716(3) 1.1447(3) 0.72617(17)
H14A H 0.8360 1.0812 0.7072
C14A C 0.6419(3) 1.1599(2) 0.73169(14)
C15A C 0.6879(3) 1.0007(3) 0.66849(16)
H15A H 0.7558 0.9401 0.6919
H16A H 0.7286 1.0376 0.6333
C16A C 0.6086(3) 0.9504(2) 0.64258(13)
C17A C 0.6283(3) 0.8362(3) 0.65665(15)
H17A H 0.6915 0.7885 0.6836
C18A C 0.5561(3) 0.7901(3) 0.63160(16)
H18A H 0.5709 0.7121 0.6420
C19A C 0.4625(2) 0.8585(2) 0.59148(13)
C20A C 0.4419(3) 0.9738(3) 0.57804(14)
H19A H 0.3781 1.0217 0.5515
C21A C 0.5138(3) 1.0196(3) 0.60304(14)
H20A H 0.4982 1.0979 0.5932
C22A C 0.3856(3) 0.8086(3) 0.56277(15)
H21A H 0.3533 0.7619 0.5959
H22A H 0.3116 0.8705 0.5441
C23A C 0.4233(2) 0.6861(2) 0.47747(12)
C24A C 0.2921(2) 0.7038(2) 0.48449(14)
H23A H 0.2340 0.7510 0.5150
C25A C 0.2483(3) 0.6512(3) 0.44627(15)
H24A H 0.1605 0.6635 0.4513
C26A C 0.3318(3) 0.5810(3) 0.40081(15)
H25A H 0.3013 0.5463 0.3750
C27A C 0.4626(3) 0.5630(2) 0.39407(13)
H26A H 0.5195 0.5152 0.3635
C28A C 0.5114(2) 0.61413(19) 0.43160(11)
C29A C 0.3453(2) 1.4155(2) 0.57932(12)
C30A C 0.1524(2) 1.4097(3) 0.54137(18)
H27A H 0.1065 1.4473 0.5800
H28A H 0.1199 1.4639 0.5041
C31A C 0.1255(2) 1.3035(2) 0.54037(13)
C32A C 0.1035(3) 1.2407(3) 0.59660(15)
H29A H 0.1044 1.2645 0.6361
C33A C 0.0802(3) 1.1430(3) 0.59535(19)
H30A H 0.0658 1.1014 0.6341
C34A C 0.0778(3) 1.1070(3) 0.5392(2)
H31A H 0.0619 1.0407 0.5390
C35A C 0.0989(3) 1.1674(3) 0.48228(18)
H32A H 0.0974 1.1423 0.4432
C36A C 0.1228(3) 1.2676(3) 0.48250(14)
H33A H 0.1366 1.3093 0.4437
C37A C 1.7393(6) 0.8643(5) -0.1561(2)
H34A H 1.8215 0.8465 -0.1789
C38A C 1.6769(11) 0.9701(6) -0.1296(3)
H35A H 1.7159 1.0229 -0.1332
C39A C 1.5551(13) 0.9920(9) -0.0978(6)
H36A H 1.5107 1.0627 -0.0804
C40A C 1.4958(12) 0.9181(11) -0.0903(7)
H37A H 1.4140 0.9358 -0.0671
C41A C 1.5608(4) 0.8128(6) -0.1184(3)
H38A H 1.5201 0.7615 -0.1158
C42A C 1.6824(4) 0.7862(4) -0.14940(17)
C43A C 1.7546(3) 0.6722(3) -0.17731(16)
H39A H 1.8123 0.6819 -0.2150
H40A H 1.6926 0.6481 -0.1914
C44A C 1.9600(3) 0.5392(3) -0.13349(12)
C45A C 2.0291(3) 0.4436(3) -0.08452(13)
C46A C 2.1623(3) 0.4117(3) -0.08695(15)
H41A H 2.2020 0.4524 -0.1168
C47A C 2.2383(4) 0.3209(4) -0.04618(18)
H42A H 2.3277 0.3008 -0.0490
C48A C 2.1809(5) 0.2610(4) -0.00192(19)
H43A H 2.2318 0.1990 0.0249
C49A C 2.0500(4) 0.2915(3) 0.00322(17)
H44A H 2.0118 0.2514 0.0345
C50A C 1.9720(3) 0.3820(3) -0.03777(14)
C51A C 1.7713(4) 0.3631(4) 0.01355(18)
H45A H 1.7954 0.2832 0.0059
H46A H 1.7912 0.3646 0.0566
C52A C 1.6301(4) 0.4328(4) 0.00684(18)
C53A C 1.5529(5) 0.4983(6) 0.0533(2)
H47A H 1.5874 0.4980 0.0907
C54A C 1.5771(5) 0.4336(6) -0.0467(2)
H48A H 1.6286 0.3880 -0.0793
loop_
_geom_bond_atom_site_label_1
_geom_bond_atom_site_label_2
_geom_bond_site_symmetry_1
_geom_bond_site_symmetry_2
La1 O1 1_555 1_555
O1 C29 1_555 1_555
O2 C22 1_555 1_555
O3 C14 1_555 1_555
O4 La1 1_555 1_555
O5 La1 1_555 1_555
O6 C50 1_555 1_555
O7 La1 1_555 1_555
O8 La1 1_555 1_555
O9 N4 1_555 1_555
O10 La1 1_555 1_555
O11 La1 1_555 1_555
O12 N5 1_555 1_555
O13 La1 1_555 1_555
O14 La1 1_555 1_555
O15 N6 1_555 1_555
N1 H1 1_555 1_555
N2 H2 1_555 1_555
N3 H3 1_555 1_555
N4 O7 1_555 1_555
N5 O10 1_555 1_555
N6 O13 1_555 1_555
C1 H4 1_555 1_555
C2 C1 1_555 1_555
H5 C2 1_555 1_555
C3 C2 1_555 1_555
H6 C3 1_555 1_555
C4 C3 1_555 1_555
H7 C4 1_555 1_555
C5 C4 1_555 1_555
H8 C5 1_555 1_555
C6 C1 1_555 1_555
C7 N2 1_555 1_555
H9 C7 1_555 1_555
H10 C7 1_555 1_555
C8 O4 1_555 1_555
C9 C8 1_555 1_555
C10 C9 1_555 1_555
H11 C10 1_555 1_555
C11 C10 1_555 1_555
H12 C11 1_555 1_555
C12 C11 1_555 1_555
H13 C12 1_555 1_555
C13 C12 1_555 1_555
H14 C13 1_555 1_555
C14 C9 1_555 1_555
C15 O3 1_555 1_555
H15 C15 1_555 1_555
H16 C15 1_555 1_555
C16 C15 1_555 1_555
C17 C16 1_555 1_555
H17 C17 1_555 1_555
C18 C17 1_555 1_555
H18 C18 1_555 1_555
C19 C18 1_555 1_555
C20 C19 1_555 1_555
H19 C20 1_555 1_555
C21 C16 1_555 1_555
H20 C21 1_555 1_555
C22 C19 1_555 1_555
H21 C22 1_555 1_555
H22 C22 1_555 1_555
C23 O2 1_555 1_555
C24 C23 1_555 1_555
H23 C24 1_555 1_555
C25 C24 1_555 1_555
H24 C25 1_555 1_555
C26 C25 1_555 1_555
H25 C26 1_555 1_555
C27 C26 1_555 1_555
H26 C27 1_555 1_555
C28 C23 1_555 1_555
C29 N1 1_555 1_555
C30 N1 1_555 1_555
H27 C30 1_555 1_555
H28 C30 1_555 1_555
C31 C30 1_555 1_555
C32 C31 1_555 1_555
H29 C32 1_555 1_555
C33 C32 1_555 1_555
H30 C33 1_555 1_555
C34 C33 1_555 1_555
H31 C34 1_555 1_555
C35 C34 1_555 1_555
H32 C35 1_555 1_555
C36 C31 1_555 1_555
H33 C36 1_555 1_555
C37 H34 1_555 1_555
C38 C37 1_555 1_555
H35 C38 1_555 1_555
C39 C38 1_555 1_555
H36 C39 1_555 1_555
C40 C39 1_555 1_555
H37 C40 1_555 1_555
C41 C40 1_555 1_555
H38 C41 1_555 1_555
C42 C37 1_555 1_555
C43 N3 1_555 1_555
H39 C43 1_555 1_555
H40 C43 1_555 1_555
C44 O5 1_555 1_555
C45 C44 1_555 1_555
C46 C45 1_555 1_555
H41 C46 1_555 1_555
C47 C46 1_555 1_555
H42 C47 1_555 1_555
C48 C47 1_555 1_555
H43 C48 1_555 1_555
C49 C48 1_555 1_555
H44 C49 1_555 1_555
C50 C45 1_555 1_555
C51 O6 1_555 1_555
H45 C51 1_555 1_555
H46 C51 1_555 1_555
C52 C51 1_555 1_555
C53 C52 1_555 1_555
H47 C53 1_555 1_555
C54 C52 1_555 1_555
H48 C54 1_555 1_555
La1A O1A 1_555 1_555
La1A_2 O5A 1_555 1_555
O1A C29A 1_555 1_555
O2A C22A 1_555 1_555
O3A C14A 1_555 1_555
O4A La1A 1_555 1_555
O5A C44A 1_555 1_555
O5A_2 La1A 1_555 1_555
O6A C50A 1_555 1_555
O7A La1A 1_555 1_555
O8A La1A 1_555 1_555
O9A N4A 1_555 1_555
O10A La1A 1_555 1_555
O11A La1A 1_555 1_555
O12A N5A 1_555 1_555
O13A La1A 1_555 1_555
O14A La1A 1_555 1_555
O15A N6A 1_555 1_555
N1A H1A 1_555 1_555
N2A H2A 1_555 1_555
N3A H3A 1_555 1_555
N4A O7A 1_555 1_555
N5A O10A 1_555 1_555
N6A O13A 1_555 1_555
C1A H4A 1_555 1_555
C2A C1A 1_555 1_555
H5A C2A 1_555 1_555
C3A C2A 1_555 1_555
H6A C3A 1_555 1_555
C4A C3A 1_555 1_555
H7A C4A 1_555 1_555
C5A C4A 1_555 1_555
H8A C5A 1_555 1_555
C6A C1A 1_555 1_555
C7A N2A 1_555 1_555
H9A C7A 1_555 1_555
H10A C7A 1_555 1_555
C8A O4A 1_555 1_555
C9A C8A 1_555 1_555
C10A C9A 1_555 1_555
H11A C10A 1_555 1_555
C11A C10A 1_555 1_555
H12A C11A 1_555 1_555
C12A C11A 1_555 1_555
H13A C12A 1_555 1_555
C13A C12A 1_555 1_555
H14A C13A 1_555 1_555
C14A C9A 1_555 1_555
C15A O3A 1_555 1_555
H15A C15A 1_555 1_555
H16A C15A 1_555 1_555
C16A C15A 1_555 1_555
C17A C16A 1_555 1_555
H17A C17A 1_555 1_555
C18A C17A 1_555 1_555
H18A C18A 1_555 1_555
C19A C18A 1_555 1_555
C20A C19A 1_555 1_555
H19A C20A 1_555 1_555
C21A C16A 1_555 1_555
H20A C21A 1_555 1_555
C22A C19A 1_555 1_555
H21A C22A 1_555 1_555
H22A C22A 1_555 1_555
C23A O2A 1_555 1_555
C24A C23A 1_555 1_555
H23A C24A 1_555 1_555
C25A C24A 1_555 1_555
H24A C25A 1_555 1_555
C26A C25A 1_555 1_555
H25A C26A 1_555 1_555
C27A C26A 1_555 1_555
H26A C27A 1_555 1_555
C28A C29 1_555 1_555
C29A C28 1_555 1_555
C30A N1A 1_555 1_555
H27A C30A 1_555 1_555
H28A C30A 1_555 1_555
C31A C30A 1_555 1_555
C32A C31A 1_555 1_555
H29A C32A 1_555 1_555
C33A C32A 1_555 1_555
H30A C33A 1_555 1_555
C34A C33A 1_555 1_555
H31A C34A 1_555 1_555
C35A C34A 1_555 1_555
H32A C35A 1_555 1_555
C36A C31A 1_555 1_555
H33A C36A 1_555 1_555
C37A H34A 1_555 1_555
C38A C37A 1_555 1_555
H35A C38A 1_555 1_555
C39A C38A 1_555 1_555
H36A C39A 1_555 1_555
C40A C39A 1_555 1_555
H37A C40A 1_555 1_555
C41A C40A 1_555 1_555
H38A C41A 1_555 1_555
C42A C37A 1_555 1_555
C43A N3A 1_555 1_555
H39A C43A 1_555 1_555
H40A C43A 1_555 1_555
C44A N3A 1_555 1_555
C45A C44A 1_555 1_555
C46A C45A 1_555 1_555
H41A C46A 1_555 1_555
C47A C46A 1_555 1_555
H42A C47A 1_555 1_555
C48A C47A 1_555 1_555
H43A C48A 1_555 1_555
C49A C48A 1_555 1_555
H44A C49A 1_555 1_555
C50A C45A 1_555 1_555
C51A O6A 1_555 1_555
H45A C51A 1_555 1_555
H46A C51A 1_555 1_555
C52A C51A 1_555 1_555
C53A C54 1_555 1_555
H47A C53A 1_555 1_555
C54A C53 1_555 1_555
H48A C54A 1_555 1_555
O8 N4 1_555 1_555
O11 N5 1_555 1_555
O14 N6 1_555 1_555
N2 C8 1_555 1_555
N3 C44 1_555 1_555
C5 C6 1_555 1_555
C6 C7 1_555 1_555
C13 C14 1_555 1_555
C20 C21 1_555 1_555
C27 C28 1_555 1_555
C35 C36 1_555 1_555
C41 C42 1_555 1_555
C42 C43 1_555 1_555
C49 C50 1_555 1_555
O8A N4A 1_555 1_555
O11A N5A 1_555 1_555
O14A N6A 1_555 1_555
N1A C29A 1_555 1_555
N2A C8A 1_555 1_555
C5A C6A 1_555 1_555
C6A C7A 1_555 1_555
C13A C14A 1_555 1_555
C20A C21A 1_555 1_555
C23A C28A 1_555 1_555
C27A C28A 1_555 1_555
C35A C36A 1_555 1_555
C41A C42A 1_555 1_555
C42A C43A 1_555 1_555
C49A C50A 1_555 1_555
C52A C53A 1_555 1_555
C52A C54A 1_555 1_555

#END
