
#######################################################################
#
#                 Cambridge Crystallographic Data Centre
#                                CCDC 
#
#######################################################################
#
# If this CIF has been generated from an entry in the Cambridge 
# Structural Database, then it will include bibliographic, chemical, 
# crystal, experimental, refinement or atomic coordinate data resulting 
# from the CCDC's data processing and validation procedures.
#
#######################################################################

data_WERMEL
_symmetry_cell_setting           orthorhombic
_symmetry_space_group_name_H-M   'F d d 2'
_symmetry_Int_Tables_number      43
_space_group_name_Hall           'F 2 -2d'
loop_
_symmetry_equiv_pos_site_id
_symmetry_equiv_pos_as_xyz
1 x,y,z
2 x,1/2+y,1/2+z
3 1/2+x,y,1/2+z
4 1/2+x,1/2+y,z
5 1/4-x,1/4+y,1/4+z
6 1/4-x,3/4+y,3/4+z
7 3/4-x,1/4+y,3/4+z
8 3/4-x,3/4+y,1/4+z
9 1/4+x,1/4-y,1/4+z
10 1/4+x,3/4-y,3/4+z
11 3/4+x,1/4-y,3/4+z
12 3/4+x,3/4-y,1/4+z
13 1/2-x,-y,1/2+z
14 1/2-x,1/2-y,z
15 -x,-y,z
16 -x,1/2-y,1/2+z
_cell_length_a                   15.743(5)
_cell_length_b                   57.011(25)
_cell_length_c                   3.962(1)
_cell_angle_alpha                90
_cell_angle_beta                 90
_cell_angle_gamma                90
_cell_volume                     3555.99
loop_
_atom_site_label
_atom_site_type_symbol
_atom_site_fract_x
_atom_site_fract_y
_atom_site_fract_z
Cd1 Cd 0.00000 0.00000 0.2305
Br1 Br 0.04591(6) 0.03092(2) 0.7161(4)
O1 O 0.1399(4) -0.01349(9) 0.222(3)
O2 O 0.3321(7) -0.0939(2) 0.905(4)
O3 O 0.2373(7) -0.1138(1) 0.708(5)
N1 N 0.1673(5) -0.0330(1) 0.359(2)
N2 N 0.2692(6) -0.0956(1) 0.749(4)
C1 C 0.2412(6) -0.0325(2) 0.533(3)
C2 C 0.2723(6) -0.0533(2) 0.663(3)
C3 C 0.2288(6) -0.0742(2) 0.612(3)
C4 C 0.1515(6) -0.0745(2) 0.446(3)
C5 C 0.1236(6) -0.0535(2) 0.316(3)
C6 C 0.0949(8) -0.0956(2) 0.393(4)
H1 H 0.2714 -0.0180 0.5641
H2 H 0.3141 -0.0501 0.8295
H3 H 0.0708 -0.0532 0.1927
H4 H 0.1216 -0.1091 0.5154
H5 H 0.0424 -0.0929 0.5110
H6 H 0.0891 -0.0988 0.1768
Br1_2 Br 0.04591(6) 0.03092(2) -0.2839(4)
Br1N Br -0.04591(6) -0.03092(2) 0.7161(4)
Br1N_2 Br -0.04591(6) -0.03092(2) -0.2839(4)
O1N O -0.1399(4) 0.01349(9) 0.222(3)
Cd1_2 Cd 0.00000 0.00000 1.2305
N1N N -0.1673(5) 0.0330(1) 0.359(2)
C1N C -0.2412(6) 0.0325(2) 0.533(3)
C5N C -0.1236(6) 0.0535(2) 0.316(3)
C2N C -0.2723(6) 0.0533(2) 0.663(3)
H1N H -0.2714 0.0180 0.5641
C4N C -0.1515(6) 0.0745(2) 0.446(3)
H3N H -0.0708 0.0532 0.1927
C3N C -0.2288(6) 0.0742(2) 0.612(3)
H2N H -0.3141 0.0501 0.8295
C6N C -0.0949(8) 0.0956(2) 0.393(4)
N2N N -0.2692(6) 0.0956(1) 0.749(4)
H4N H -0.1216 0.1091 0.5154
H5N H -0.0424 0.0929 0.5110
H6N H -0.0891 0.0988 0.1768
O2N O -0.3321(7) 0.0939(2) 0.905(4)
O3N O -0.2373(7) 0.1138(1) 0.708(5)
loop_
_geom_bond_atom_site_label_1
_geom_bond_atom_site_label_2
_geom_bond_site_symmetry_1
_geom_bond_site_symmetry_2
Cd1 Br1 1_555 1_555
Br1 Cd1_2 1_555 1_555
O1 Cd1 1_555 1_555
O2 N2 1_555 1_555
O3 N2 1_555 1_555
N1 O1 1_555 1_555
N2 C3 1_555 1_555
C1 N1 1_555 1_555
C2 C1 1_555 1_555
C3 C2 1_555 1_555
C4 C3 1_555 1_555
C5 N1 1_555 1_555
C6 C4 1_555 1_555
H1 C1 1_555 1_555
H2 C2 1_555 1_555
H3 C5 1_555 1_555
H4 C6 1_555 1_555
H5 C6 1_555 1_555
H6 C6 1_555 1_555
Br1_2 Cd1 1_555 1_555
Br1N Cd1 1_555 1_555
Br1N_2 Cd1 1_555 1_555
O1N Cd1 1_555 1_555
Cd1_2 Br1N 1_555 1_555
N1N O1N 1_555 1_555
C1N N1N 1_555 1_555
C5N N1N 1_555 1_555
C2N C1N 1_555 1_555
H1N C1N 1_555 1_555
C4N C5N 1_555 1_555
H3N C5N 1_555 1_555
C3N C2N 1_555 1_555
H2N C2N 1_555 1_555
C6N C4N 1_555 1_555
N2N C3N 1_555 1_555
H4N C6N 1_555 1_555
H5N C6N 1_555 1_555
H6N C6N 1_555 1_555
O2N N2N 1_555 1_555
O3N N2N 1_555 1_555
C4 C5 1_555 1_555
C4N C3N 1_555 1_555

#END
