
#######################################################################
#
#                 Cambridge Crystallographic Data Centre
#                                CCDC 
#
#######################################################################
#
# If this CIF has been generated from an entry in the Cambridge 
# Structural Database, then it will include bibliographic, chemical, 
# crystal, experimental, refinement or atomic coordinate data resulting 
# from the CCDC's data processing and validation procedures.
#
#######################################################################

data_WERQUF
_symmetry_cell_setting           monoclinic
_symmetry_space_group_name_H-M   'P 21/n'
_symmetry_Int_Tables_number      14
_space_group_name_Hall           '-P 2yn'
loop_
_symmetry_equiv_pos_site_id
_symmetry_equiv_pos_as_xyz
1 x,y,z
2 1/2+x,1/2-y,1/2+z
3 -x,-y,-z
4 1/2-x,1/2+y,1/2-z
_cell_length_a                   8.9528(15)
_cell_length_b                   18.253(3)
_cell_length_c                   15.610(2)
_cell_angle_alpha                90
_cell_angle_beta                 91.155(12)
_cell_angle_gamma                90
_cell_volume                     2550.4
loop_
_atom_site_label
_atom_site_type_symbol
_atom_site_fract_x
_atom_site_fract_y
_atom_site_fract_z
Er1 Er 0.61379(4) 0.22636(2) 0.23791(2)
C1 C 0.8517(13) 0.4130(6) 0.2264(7)
H1 H 0.8781(13) 0.4636(6) 0.2201(7)
H2 H 0.8578(13) 0.3889(6) 0.1719(7)
H3 H 0.9193(13) 0.3900(6) 0.2666(7)
C2 C 0.6959(10) 0.4074(4) 0.2581(4)
O1 O 0.6366(7) 0.3476(3) 0.2712(4)
N1 N 0.6285(10) 0.4693(4) 0.2755(4)
H4 H 0.6723(10) 0.5097(4) 0.2630(4)
C3 C 0.4814(11) 0.4725(5) 0.3154(6)
H5 H 0.4298(11) 0.4263(5) 0.3061(6)
H6 H 0.4223(11) 0.5109(5) 0.2883(6)
C4 C 0.4953(11) 0.4874(4) 0.4112(5)
C5 C 0.6287(12) 0.4853(6) 0.4568(6)
H7 H 0.7168(12) 0.4756(6) 0.4283(6)
C6 C 0.3665(12) 0.5025(5) 0.4551(6)
H8 H 0.2754(12) 0.5046(5) 0.4255(6)
C7 C 0.8112(14) 0.2959(5) 0.4591(7)
H9 H 0.8462(14) 0.3007(5) 0.5174(7)
H10 H 0.7543(14) 0.3385(5) 0.4431(7)
H11 H 0.8951(14) 0.2912(5) 0.4221(7)
O2 O 0.6563(8) 0.2120(3) 0.3803(4)
C8 C 0.7144(9) 0.2292(5) 0.4508(5)
N2 N 0.6903(10) 0.1900(4) 0.5195(4)
H12 H 0.7331(10) 0.2037(4) 0.5667(4)
C9 C 0.5963(12) 0.1250(6) 0.5217(7)
H13 H 0.5318(12) 0.1245(6) 0.4711(7)
H14 H 0.5329(12) 0.1279(6) 0.5713(7)
C10 C 0.6827(10) 0.0545(5) 0.5256(5)
C11 C 0.6860(13) 0.0117(6) 0.5988(6)
H15 H 0.6359(13) 0.0277(6) 0.6470(6)
C12 C 0.7613(13) 0.0306(6) 0.4551(6)
H16 H 0.7620(13) 0.0587(6) 0.4055(6)
C13 C 0.6561(16) -0.3114(6) 0.4772(8)
H17 H 0.6296(16) -0.3148(6) 0.5363(8)
H18 H 0.7011(16) -0.3565(6) 0.4595(8)
H19 H 0.5680(16) -0.3022(6) 0.4428(8)
O3 O 0.8154(8) -0.2348(4) 0.3946(3)
C14 C 0.7645(12) -0.2500(4) 0.4663(6)
N3 N 0.8077(10) -0.2133(4) 0.5343(4)
H20 H 0.7717(10) -0.2261(4) 0.5827(4)
C15 C 0.9121(11) -0.1524(6) 0.5338(6)
H21 H 0.9754(11) -0.1569(6) 0.4843(6)
H22 H 0.9757(11) -0.1550(6) 0.5847(6)
C16 C 0.8359(10) -0.0793(5) 0.5311(5)
C17 C 0.7602(12) -0.0529(6) 0.6021(6)
H23 H 0.7608(12) -0.0802(6) 0.6524(6)
C18 C 0.8395(13) -0.0358(5) 0.4588(6)
H24 H 0.8945(13) -0.0507(5) 0.4121(6)
N4 N 0.9159(10) 0.1727(5) 0.2435(5)
O4 O 0.8862(9) 0.2394(4) 0.2530(6)
O5 O 0.8053(9) 0.1314(4) 0.2299(5)
O6 O 1.0429(11) 0.1503(6) 0.2401(8)
N5 N 0.3121(8) 0.2855(4) 0.2442(4)
O7 O 0.3759(7) 0.2549(4) 0.3075(4)
O8 O 0.3875(7) 0.2791(5) 0.1742(4)
O9 O 0.1983(9) 0.3175(6) 0.2464(7)
N6 N 0.4811(12) 0.0905(4) 0.1913(6)
O10 O 0.5017(11) 0.1089(4) 0.2677(5)
O11 O 0.5207(12) 0.1367(4) 0.1364(5)
O12 O 0.4283(16) 0.0304(5) 0.1736(8)
C6B C 0.6335(12) 0.4975(5) 0.5449(6)
C4B C 0.5047(11) 0.5126(4) 0.5888(5)
C3B C 0.5186(11) 0.5275(5) 0.6846(6)
N1B N 0.3715(10) 0.5307(4) 0.7245(4)
C2B C 0.3041(10) 0.5926(4) 0.7419(4)
C1B C 0.1483(13) 0.5870(6) 0.7736(7)
H1B H 0.1219(13) 0.5364(6) 0.7799(7)
H2B H 0.1422(13) 0.6111(6) 0.8281(7)
H3B H 0.0807(13) 0.6100(6) 0.7334(7)
O1B O 0.3634(7) 0.6524(3) 0.7288(4)
H4B H 0.3277(10) 0.4903(4) 0.7370(4)
H5B H 0.5702(11) 0.5737(5) 0.6939(6)
H6B H 0.5777(11) 0.4891(5) 0.7117(6)
C5B C 0.3713(12) 0.5147(6) 0.5432(6)
H7B H 0.2832(12) 0.5244(6) 0.5717(6)
H8B H 0.7246(12) 0.4954(5) 0.5745(6)
C7C C 0.6888(14) 0.7959(5) 0.0409(7)
H9C H 0.6538(14) 0.8007(5) -0.0174(7)
H10C H 0.7457(14) 0.8385(5) 0.0569(7)
H11C H 0.6049(14) 0.7912(5) 0.0779(7)
O2C O 0.8437(8) 0.7120(3) 0.1197(4)
C8C C 0.7856(9) 0.7292(5) 0.0492(5)
N2C N 0.8097(10) 0.6900(4) -0.0195(4)
H12C H 0.7669(10) 0.7037(4) -0.0667(4)
C9C C 0.9037(12) 0.6250(6) -0.0217(7)
H13C H 0.9682(12) 0.6245(6) 0.0289(7)
H14C H 0.9671(12) 0.6279(6) -0.0713(7)
C10C C 0.8173(10) 0.5545(5) -0.0256(5)
C11C C 0.8140(13) 0.5117(6) -0.0988(6)
H15C H 0.8641(13) 0.5277(6) -0.1470(6)
C12C C 0.7387(13) 0.5306(6) 0.0449(6)
H16C H 0.7380(13) 0.5587(6) 0.0945(6)
C13C C 0.8439(16) 0.1886(6) 0.0228(8)
H17C H 0.8704(16) 0.1852(6) -0.0363(8)
H18C H 0.7989(16) 0.1435(6) 0.0405(8)
H19C H 0.9320(16) 0.1978(6) 0.0572(8)
O3C O 0.6846(8) 0.2652(4) 0.1054(3)
C14C C 0.7355(12) 0.2500(4) 0.0337(6)
N3C N 0.6923(10) 0.2867(4) -0.0343(4)
H20C H 0.7283(10) 0.2739(4) -0.0827(4)
C15C C 0.5879(11) 0.3476(6) -0.0338(6)
H21C H 0.5246(11) 0.3431(6) 0.0157(6)
H22C H 0.5243(11) 0.3450(6) -0.0847(6)
C16C C 0.6641(10) 0.4207(5) -0.0311(5)
C17C C 0.7398(12) 0.4471(6) -0.1021(6)
H23C H 0.7392(12) 0.4198(6) -0.1524(6)
C18C C 0.6605(13) 0.4642(5) 0.0412(6)
H24C H 0.6055(13) 0.4493(5) 0.0879(6)
Er1B Er 0.38621(4) 0.77364(2) 0.76209(2)
Er1C Er 0.88621(4) 0.72636(2) 0.26209(2)
Er1C_2 Er 0.88621(4) -0.27364(2) 0.26209(2)
O2B O 0.3437(8) 0.7880(3) 0.6197(4)
O3A O 0.3154(8) 0.7348(4) 0.8946(3)
N4B N 0.0841(10) 0.8273(5) 0.7565(5)
O4B O 0.1138(9) 0.7606(4) 0.7470(6)
O5B O 0.1947(9) 0.8686(4) 0.7701(5)
O6B O -0.0429(11) 0.8497(6) 0.7599(8)
N5B N 0.6879(8) 0.7145(4) 0.7558(4)
O7B O 0.6241(7) 0.7451(4) 0.6925(4)
O8B O 0.6125(7) 0.7209(5) 0.8258(4)
O9B O 0.8017(9) 0.6825(6) 0.7536(7)
N6B N 0.5189(12) 0.9095(4) 0.8087(6)
O10B O 0.4983(11) 0.8911(4) 0.7323(5)
O11B O 0.4793(12) 0.8633(4) 0.8636(5)
O12B O 0.5717(16) 0.9696(5) 0.8264(8)
loop_
_geom_bond_atom_site_label_1
_geom_bond_atom_site_label_2
_geom_bond_site_symmetry_1
_geom_bond_site_symmetry_2
Er1 O1 1_555 1_555
C1 H1 1_555 1_555
H2 C1 1_555 1_555
H3 C1 1_555 1_555
C2 C1 1_555 1_555
O1 C2 1_555 1_555
N1 C2 1_555 1_555
H4 N1 1_555 1_555
C3 N1 1_555 1_555
H5 C3 1_555 1_555
H6 C3 1_555 1_555
C4 C3 1_555 1_555
C5 C4 1_555 1_555
H7 C5 1_555 1_555
C6 C4 1_555 1_555
H8 C6 1_555 1_555
C7 H9 1_555 1_555
H10 C7 1_555 1_555
H11 C7 1_555 1_555
O2 Er1 1_555 1_555
C8 C7 1_555 1_555
N2 C8 1_555 1_555
H12 N2 1_555 1_555
C9 N2 1_555 1_555
H13 C9 1_555 1_555
H14 C9 1_555 1_555
C10 C9 1_555 1_555
C11 C10 1_555 1_555
H15 C11 1_555 1_555
C12 C10 1_555 1_555
H16 C12 1_555 1_555
C13 H17 1_555 1_555
H18 C13 1_555 1_555
H19 C13 1_555 1_555
O3 C14 1_555 1_555
C14 C13 1_555 1_555
N3 C14 1_555 1_555
H20 N3 1_555 1_555
C15 N3 1_555 1_555
H21 C15 1_555 1_555
H22 C15 1_555 1_555
C16 C15 1_555 1_555
C17 C11 1_555 1_555
H23 C17 1_555 1_555
C18 C12 1_555 1_555
H24 C18 1_555 1_555
N4 O4 1_555 1_555
O4 Er1 1_555 1_555
O5 Er1 1_555 1_555
O6 N4 1_555 1_555
N5 O7 1_555 1_555
O7 Er1 1_555 1_555
O8 Er1 1_555 1_555
O9 N5 1_555 1_555
N6 O10 1_555 1_555
O10 Er1 1_555 1_555
O11 Er1 1_555 1_555
O12 N6 1_555 1_555
C6B C5 1_555 1_555
C4B C6B 1_555 1_555
C3B C4B 1_555 1_555
N1B C3B 1_555 1_555
C2B N1B 1_555 1_555
C1B C2B 1_555 1_555
H1B C1B 1_555 1_555
H2B C1B 1_555 1_555
H3B C1B 1_555 1_555
O1B C2B 1_555 1_555
H4B N1B 1_555 1_555
H5B C3B 1_555 1_555
H6B C3B 1_555 1_555
C5B C6 1_555 1_555
H7B C5B 1_555 1_555
H8B C6B 1_555 1_555
C7C H9C 1_555 1_555
H10C C7C 1_555 1_555
H11C C7C 1_555 1_555
O2C C8C 1_555 1_555
C8C C7C 1_555 1_555
N2C C8C 1_555 1_555
H12C N2C 1_555 1_555
C9C N2C 1_555 1_555
H13C C9C 1_555 1_555
H14C C9C 1_555 1_555
C10C C9C 1_555 1_555
C11C C10C 1_555 1_555
H15C C11C 1_555 1_555
C12C C10C 1_555 1_555
H16C C12C 1_555 1_555
C13C H17C 1_555 1_555
H18C C13C 1_555 1_555
H19C C13C 1_555 1_555
O3C Er1 1_555 1_555
C14C C13C 1_555 1_555
N3C C14C 1_555 1_555
H20C N3C 1_555 1_555
C15C N3C 1_555 1_555
H21C C15C 1_555 1_555
H22C C15C 1_555 1_555
C16C C15C 1_555 1_555
C17C C11C 1_555 1_555
H23C C17C 1_555 1_555
C18C C12C 1_555 1_555
H24C C18C 1_555 1_555
Er1B O1B 1_555 1_555
Er1C O2C 1_555 1_555
Er1C_2 O3 1_555 1_555
O2B Er1B 1_555 1_555
O3A Er1B 1_555 1_555
N4B O4B 1_555 1_555
O4B Er1B 1_555 1_555
O5B Er1B 1_555 1_555
O6B N4B 1_555 1_555
N5B O7B 1_555 1_555
O7B Er1B 1_555 1_555
O8B Er1B 1_555 1_555
O9B N5B 1_555 1_555
N6B O10B 1_555 1_555
O10B Er1B 1_555 1_555
O11B Er1B 1_555 1_555
O12B N6B 1_555 1_555
O2 C8 1_555 1_555
C16 C17 1_555 1_555
C16 C18 1_555 1_555
N4 O5 1_555 1_555
N5 O8 1_555 1_555
N6 O11 1_555 1_555
C4B C5B 1_555 1_555
O3C C14C 1_555 1_555
C16C C17C 1_555 1_555
C16C C18C 1_555 1_555
N4B O5B 1_555 1_555
N5B O8B 1_555 1_555
N6B O11B 1_555 1_555

#END
