
#######################################################################
#
#                 Cambridge Crystallographic Data Centre
#                                CCDC 
#
#######################################################################
#
# If this CIF has been generated from an entry in the Cambridge 
# Structural Database, then it will include bibliographic, chemical, 
# crystal, experimental, refinement or atomic coordinate data resulting 
# from the CCDC's data processing and validation procedures.
#
#######################################################################

data_WERYOH
_symmetry_cell_setting           monoclinic
_symmetry_space_group_name_H-M   'P 21/n'
_symmetry_Int_Tables_number      14
_space_group_name_Hall           '-P 2yn'
loop_
_symmetry_equiv_pos_site_id
_symmetry_equiv_pos_as_xyz
1 x,y,z
2 1/2+x,1/2-y,1/2+z
3 -x,-y,-z
4 1/2-x,1/2+y,1/2-z
_cell_length_a                   15.107(3)
_cell_length_b                   6.9710(10)
_cell_length_c                   24.447(5)
_cell_angle_alpha                90
_cell_angle_beta                 100.63(3)
_cell_angle_gamma                90
_cell_volume                     2530.35
loop_
_atom_site_label
_atom_site_type_symbol
_atom_site_fract_x
_atom_site_fract_y
_atom_site_fract_z
Pt1 Pt 0.345414(15) 0.04979(3) 0.113117(9)
Ag1 Ag 0.69491(3) -0.39218(6) 0.33762(2)
N1 N 0.3759(3) -0.1677(6) 0.0634(2)
H1 H 0.4099(21) -0.2545(26) 0.0842(3)
H2 H 0.4059(21) -0.1204(10) 0.0383(10)
H3 H 0.3253(3) -0.2227(34) 0.0461(12)
N2 N 0.3148(3) 0.2651(6) 0.1624(2)
H4 H 0.3626(8) 0.3405(30) 0.1722(12)
H5 H 0.2991(24) 0.2156(6) 0.1928(7)
H6 H 0.2692(16) 0.3336(32) 0.1438(6)
N3 N 0.3448(3) 0.3427(6) -0.0708(2)
H7 H 0.3908(3) 0.3716(6) -0.0853(2)
C1 C 0.2615(5) 0.3831(7) -0.1014(3)
H8 H 0.2598(5) 0.4351(7) -0.1366(3)
N4 N 0.1851(3) 0.3562(6) -0.0861(2)
C2 C 0.1971(4) 0.2795(7) -0.0339(2)
C3 C 0.2768(4) 0.2334(7) -0.0010(2)
C4 C 0.3613(5) 0.2590(7) -0.0185(2)
O1 O 0.4379(3) 0.2165(5) 0.0043(2)
N5 N 0.2590(3) 0.1558(6) 0.0484(2)
C5 C 0.1698(4) 0.1612(7) 0.0426(2)
H9 H 0.1386(4) 0.1178(7) 0.0696(2)
N6 N 0.1303(3) 0.2348(6) -0.0057(2)
C6 C 0.0332(4) 0.2534(9) -0.0274(3)
H10 H 0.0141(6) 0.1518(30) -0.0534(11)
H11 H 0.0215(5) 0.3748(23) -0.0458(13)
H12 H 0.0008(4) 0.2457(49) 0.0028(3)
N7 N 0.6758(3) -0.0122(5) 0.1886(2)
C7 C 0.6937(4) -0.0987(7) 0.2379(2)
H13 H 0.7545(4) -0.1136(7) 0.2529(2)
N8 N 0.6364(3) -0.1673(5) 0.2687(2)
C8 C 0.5513(4) -0.1383(6) 0.2431(2)
C9 C 0.5230(3) -0.0527(6) 0.1915(2)
C10 C 0.5898(4) 0.0128(6) 0.1636(2)
N9 N 0.5734(3) 0.0942(5) 0.1131(2)
H14 H 0.6175(3) 0.1288(5) 0.0975(2)
H15 H 0.5188(3) 0.1117(5) 0.0962(2)
N10 N 0.4298(3) -0.0560(6) 0.1788(2)
C11 C 0.4046(4) -0.1390(7) 0.2217(2)
H16 H 0.3446(4) -0.1591(7) 0.2243(2)
N11 N 0.4740(3) -0.1918(5) 0.2615(2)
C12 C 0.4678(4) -0.2876(7) 0.3140(2)
H17 H 0.4989(19) -0.2128(25) 0.3446(2)
H18 H 0.4948(21) -0.4125(20) 0.3147(6)
H19 H 0.4057(4) -0.3004(43) 0.3171(7)
N12 N 0.6919(4) -0.2903(7) 0.4544(2)
O2 O 0.6244(3) -0.3431(6) 0.4202(2)
O3 O 0.6833(3) -0.2307(6) 0.5004(2)
O4 O 0.7686(3) -0.2990(6) 0.4418(2)
O12 O 0.6168(3) -0.6898(6) 0.3012(2)
H20 H 0.5774(36) -0.6688(81) 0.2728(20)
H21 H 0.5918(46) -0.7602(91) 0.3216(27)
N7C N 0.8242(3) -0.5122(5) 0.3114(2)
Ag1C Ag 0.80509(3) 0.10782(6) 0.16238(2)
N13 N 0.5345(4) 0.4816(6) 0.1689(2)
O5 O 0.4936(3) 0.5328(5) 0.1219(2)
O6 O 0.4904(3) 0.4174(6) 0.2037(2)
O7 O 0.6172(3) 0.4906(6) 0.1809(2)
Cl1 Cl -0.15100(11) 0.3068(2) -0.16695(7)
O8 O -0.2125(3) 0.3639(7) -0.2160(2)
O9 O -0.0623(3) 0.3180(7) -0.1775(2)
O10 O -0.1604(4) 0.4406(7) -0.1245(2)
O11 O -0.1676(4) 0.1203(6) -0.1508(2)
loop_
_geom_bond_atom_site_label_1
_geom_bond_atom_site_label_2
_geom_bond_site_symmetry_1
_geom_bond_site_symmetry_2
Pt1 N1 1_555 1_555
Ag1 N8 1_555 1_555
N1 H1 1_555 1_555
H2 N1 1_555 1_555
H3 N1 1_555 1_555
N2 Pt1 1_555 1_555
H4 N2 1_555 1_555
H5 N2 1_555 1_555
H6 N2 1_555 1_555
N3 H7 1_555 1_555
C1 N3 1_555 1_555
H8 C1 1_555 1_555
N4 C1 1_555 1_555
C2 N4 1_555 1_555
C3 C2 1_555 1_555
C4 N3 1_555 1_555
O1 C4 1_555 1_555
N5 Pt1 1_555 1_555
C5 N5 1_555 1_555
H9 C5 1_555 1_555
N6 C2 1_555 1_555
C6 N6 1_555 1_555
H10 C6 1_555 1_555
H11 C6 1_555 1_555
H12 C6 1_555 1_555
N7 C7 1_555 1_555
C7 H13 1_555 1_555
N8 C7 1_555 1_555
C8 N8 1_555 1_555
C9 C8 1_555 1_555
C10 N7 1_555 1_555
N9 C10 1_555 1_555
H14 N9 1_555 1_555
H15 N9 1_555 1_555
N10 Pt1 1_555 1_555
C11 N10 1_555 1_555
H16 C11 1_555 1_555
N11 C8 1_555 1_555
C12 N11 1_555 1_555
H17 C12 1_555 1_555
H18 C12 1_555 1_555
H19 C12 1_555 1_555
N12 O2 1_555 1_555
O2 Ag1 1_555 1_555
O3 N12 1_555 1_555
O4 Ag1 1_555 1_555
N13 O5 1_555 1_555
O6 N13 1_555 1_555
O7 N13 1_555 1_555
Cl1 O8 1_555 1_555
O9 Cl1 1_555 1_555
O10 Cl1 1_555 1_555
O11 Cl1 1_555 1_555
O12 Ag1 1_555 1_555
H20 O12 1_555 1_555
H21 O12 1_555 1_555
N7C Ag1 1_555 1_555
Ag1C N7 1_555 1_555
C3 N5 1_555 1_555
C3 C4 1_555 1_555
C5 N6 1_555 1_555
C9 N10 1_555 1_555
C9 C10 1_555 1_555
C11 N11 1_555 1_555
N12 O4 1_555 1_555

#END
