
#######################################################################
#
#                 Cambridge Crystallographic Data Centre
#                                CCDC 
#
#######################################################################
#
# If this CIF has been generated from an entry in the Cambridge 
# Structural Database, then it will include bibliographic, chemical, 
# crystal, experimental, refinement or atomic coordinate data resulting 
# from the CCDC's data processing and validation procedures.
#
#######################################################################

data_WESNIS
_symmetry_cell_setting           tetragonal
_symmetry_space_group_name_H-M   'P 4/n b m'
_symmetry_Int_Tables_number      125
_space_group_name_Hall           '-P 4a 2b'
loop_
_symmetry_equiv_pos_site_id
_symmetry_equiv_pos_as_xyz
1 x,y,z
2 1/2-y,x,z
3 y,1/2-x,z
4 y,x,-z
5 1/2-x,1/2-y,z
6 1/2-x,y,-z
7 x,1/2-y,-z
8 1/2-y,1/2-x,-z
9 -x,-y,-z
10 1/2+y,-x,-z
11 -y,1/2+x,-z
12 -y,-x,z
13 1/2+x,1/2+y,-z
14 1/2+x,-y,z
15 -x,1/2+y,z
16 1/2+y,1/2+x,z
_cell_length_a                   10.0812(2)
_cell_length_b                   10.0812(2)
_cell_length_c                   6.1990(2)
_cell_angle_alpha                90
_cell_angle_beta                 90
_cell_angle_gamma                90
_cell_volume                     630.008
loop_
_atom_site_label
_atom_site_type_symbol
_atom_site_fract_x
_atom_site_fract_y
_atom_site_fract_z
Co1 Co 0.2500 0.2500 0.5000
N1 N 0.0985(2) 0.0985(2) 0.5000
C1 C 0.0031(3) 0.0938(3) 0.6493(4)
H1 H 0.0018 0.1579 0.7570
O1 O 0.2500 0.2500 0.1665(6)
N2 N 0.2500 0.2500 0.0000
Co1L Co -0.2500 -0.2500 0.5000
Co1_2 Co 0.2500 0.2500 -0.5000
Co1L_2 Co 0.7500 -0.2500 0.5000
N1H N -0.0985(2) -0.0985(2) 0.5000
N1A N 0.4015(2) 0.0985(2) 0.5000
N1M N 0.5985(2) -0.0985(2) 0.5000
N1B N 0.0985(2) 0.4015(2) 0.5000
N1D N 0.4015(2) 0.4015(2) 0.5000
C1K C -0.0938(3) -0.0031(3) 0.6493(4)
C1H C -0.0031(3) -0.0938(3) 0.3507(4)
C1C C 0.0938(3) 0.0031(3) 0.3507(4)
C1A C 0.4062(3) 0.0031(3) 0.6493(4)
C1M C 0.5031(3) -0.0938(3) 0.6493(4)
C1I C 0.5938(3) -0.0031(3) 0.3507(4)
C1E C 0.4969(3) 0.0938(3) 0.3507(4)
H1C H 0.1579 0.0018 0.2430
H1H H -0.0018 -0.1579 0.2430
H1K H -0.1579 -0.0018 0.7570
H1A H 0.3421 0.0018 0.7570
H1E H 0.4982 0.1579 0.2430
H1I H 0.6579 -0.0018 0.2430
H1M H 0.5018 -0.1579 0.7570
O1C O 0.2500 0.2500 -0.1665(6)
O1C_2 O 0.2500 0.2500 0.8335(6)
Cl1 Cl -0.2500 0.2500 1.0000
O2 O -0.1658(3) 0.3342(3) 0.8766(8)
O2I O -0.1658(3) 0.1658(3) 1.1234(8)
O2J O -0.3342(3) 0.3342(3) 1.1234(8)
O2K O -0.3342(3) 0.1658(3) 0.8766(8)
loop_
_geom_bond_atom_site_label_1
_geom_bond_atom_site_label_2
_geom_bond_site_symmetry_1
_geom_bond_site_symmetry_2
Co1 N1 1_555 1_555
N1 C1 1_555 1_555
C1 H1 1_555 1_555
O1 Co1 1_555 1_555
N2 O1 1_555 1_555
Cl1 O2 1_555 1_555
Co1L N1H 1_555 1_555
Co1_2 O1C 1_555 1_555
Co1L_2 N1M 1_555 1_555
N1H C1K 1_555 1_555
N1A Co1 1_555 1_555
N1M C1M 1_555 1_555
N1B Co1 1_555 1_555
N1D Co1 1_555 1_555
C1K C1 1_555 1_555
C1H N1H 1_555 1_555
C1C N1 1_555 1_555
C1A N1A 1_555 1_555
C1M C1A 1_555 1_555
C1I N1M 1_555 1_555
C1E N1A 1_555 1_555
H1C C1C 1_555 1_555
H1H C1H 1_555 1_555
H1K C1K 1_555 1_555
H1A C1A 1_555 1_555
H1E C1E 1_555 1_555
H1I C1I 1_555 1_555
H1M C1M 1_555 1_555
O1C N2 1_555 1_555
O1C_2 Co1 1_555 1_555
O2I Cl1 1_555 1_555
O2J Cl1 1_555 1_555
O2K Cl1 1_555 1_555
C1H C1C 1_555 1_555
C1I C1E 1_555 1_555

#END
