
#######################################################################
#
#                 Cambridge Crystallographic Data Centre
#                                CCDC 
#
#######################################################################
#
# If this CIF has been generated from an entry in the Cambridge 
# Structural Database, then it will include bibliographic, chemical, 
# crystal, experimental, refinement or atomic coordinate data resulting 
# from the CCDC's data processing and validation procedures.
#
#######################################################################

data_WESNEO
_symmetry_cell_setting           tetragonal
_symmetry_space_group_name_H-M   'P 4/n b m'
_symmetry_Int_Tables_number      125
_space_group_name_Hall           '-P 4a 2b'
loop_
_symmetry_equiv_pos_site_id
_symmetry_equiv_pos_as_xyz
1 x,y,z
2 1/2-y,x,z
3 y,1/2-x,z
4 y,x,-z
5 1/2-x,1/2-y,z
6 1/2-x,y,-z
7 x,1/2-y,-z
8 1/2-y,1/2-x,-z
9 -x,-y,-z
10 1/2+y,-x,-z
11 -y,1/2+x,-z
12 -y,-x,z
13 1/2+x,1/2+y,-z
14 1/2+x,-y,z
15 -x,1/2+y,z
16 1/2+y,1/2+x,z
_cell_length_a                   9.7253(2)
_cell_length_b                   9.7253(2)
_cell_length_c                   6.6458(3)
_cell_angle_alpha                90
_cell_angle_beta                 90
_cell_angle_gamma                90
_cell_volume                     628.569
loop_
_atom_site_label
_atom_site_type_symbol
_atom_site_fract_x
_atom_site_fract_y
_atom_site_fract_z
Cu1 Cu 0.2500 0.2500 0.5000
N1 N 0.1010(2) 0.1010(2) 0.5000
C1 C 0.0084(3) 0.0920(3) 0.6484(4)
H1 H 0.0117 0.1548 0.7538
O1 O 0.2500 0.2500 0.1562(6)
N2 N 0.2500 0.2500 0.0000
Cu1L Cu -0.2500 -0.2500 0.5000
Cu1_2 Cu 0.2500 0.2500 -0.5000
Cu1L_2 Cu 0.7500 -0.2500 0.5000
N1H N -0.1010(2) -0.1010(2) 0.5000
N1A N 0.3990(2) 0.1010(2) 0.5000
N1M N 0.6010(2) -0.1010(2) 0.5000
N1B N 0.1010(2) 0.3990(2) 0.5000
N1D N 0.3990(2) 0.3990(2) 0.5000
C1K C -0.0920(3) -0.0084(3) 0.6484(4)
C1H C -0.0084(3) -0.0920(3) 0.3516(4)
C1C C 0.0920(3) 0.0084(3) 0.3516(4)
C1A C 0.4080(3) 0.0084(3) 0.6484(4)
C1M C 0.5084(3) -0.0920(3) 0.6484(4)
C1I C 0.5920(3) -0.0084(3) 0.3516(4)
C1E C 0.4916(3) 0.0920(3) 0.3516(4)
H1C H 0.1548 0.0117 0.2462
H1H H -0.0117 -0.1548 0.2462
H1K H -0.1548 -0.0117 0.7538
H1A H 0.3452 0.0117 0.7538
H1E H 0.4883 0.1548 0.2462
H1I H 0.6548 -0.0117 0.2462
H1M H 0.5117 -0.1548 0.7538
O1C O 0.2500 0.2500 -0.1562(6)
O1C_2 O 0.2500 0.2500 0.8438(6)
Cl1 Cl -0.2500 0.2500 1.0000
O2 O -0.1629(4) 0.3371(4) 0.8869(9)
O2I O -0.1629(4) 0.1629(4) 1.1131(9)
O2J O -0.3371(4) 0.3371(4) 1.1131(9)
O2K O -0.3371(4) 0.1629(4) 0.8869(9)
loop_
_geom_bond_atom_site_label_1
_geom_bond_atom_site_label_2
_geom_bond_site_symmetry_1
_geom_bond_site_symmetry_2
Cu1 N1 1_555 1_555
N1 C1 1_555 1_555
C1 H1 1_555 1_555
O1 Cu1 1_555 1_555
N2 O1 1_555 1_555
Cl1 O2 1_555 1_555
Cu1L N1H 1_555 1_555
Cu1_2 O1C 1_555 1_555
Cu1L_2 N1M 1_555 1_555
N1H C1K 1_555 1_555
N1A Cu1 1_555 1_555
N1M C1M 1_555 1_555
N1B Cu1 1_555 1_555
N1D Cu1 1_555 1_555
C1K C1 1_555 1_555
C1H N1H 1_555 1_555
C1C N1 1_555 1_555
C1A N1A 1_555 1_555
C1M C1A 1_555 1_555
C1I N1M 1_555 1_555
C1E N1A 1_555 1_555
H1C C1C 1_555 1_555
H1H C1H 1_555 1_555
H1K C1K 1_555 1_555
H1A C1A 1_555 1_555
H1E C1E 1_555 1_555
H1I C1I 1_555 1_555
H1M C1M 1_555 1_555
O1C N2 1_555 1_555
O1C_2 Cu1 1_555 1_555
O2I Cl1 1_555 1_555
O2J Cl1 1_555 1_555
O2K Cl1 1_555 1_555
C1H C1C 1_555 1_555
C1I C1E 1_555 1_555

#END
