
#######################################################################
#
#                 Cambridge Crystallographic Data Centre
#                                CCDC 
#
#######################################################################
#
# If this CIF has been generated from an entry in the Cambridge 
# Structural Database, then it will include bibliographic, chemical, 
# crystal, experimental, refinement or atomic coordinate data resulting 
# from the CCDC's data processing and validation procedures.
#
#######################################################################

data_WESNUD
_symmetry_cell_setting           hexagonal
_symmetry_space_group_name_H-M   'P 65 2 2'
_symmetry_Int_Tables_number      179
_space_group_name_Hall           "P 65 2' (0,0,1)"
loop_
_symmetry_equiv_pos_site_id
_symmetry_equiv_pos_as_xyz
1 x,y,z
2 -y,x-y,2/3+z
3 -x+y,-x,1/3+z
4 y,x,2/3-z
5 x-y,-y,-z
6 -x,-x+y,1/3-z
7 -x,-y,1/2+z
8 y,-x+y,1/6+z
9 x-y,x,5/6+z
10 -y,-x,1/6-z
11 -x+y,y,1/2-z
12 x,x-y,5/6-z
_cell_length_a                   10.075(3)
_cell_length_b                   10.075(3)
_cell_length_c                   29.567(12)
_cell_angle_alpha                90
_cell_angle_beta                 90
_cell_angle_gamma                120
_cell_volume                     2599.13
loop_
_atom_site_label
_atom_site_type_symbol
_atom_site_fract_x
_atom_site_fract_y
_atom_site_fract_z
U1 U 0.6118(1) 0.0000 0.0000
O1 O 0.5378(15) -0.1481(15) -0.0415(3)
N1 N 0.3268(13) 0.2185(14) -0.0377(4)
C1 C 0.4536(15) 0.2214(18) -0.0259(4)
O2 O 0.4715(12) 0.1078(13) -0.0322(3)
C2 C 0.5697(16) 0.3727(19) -0.0076(5)
C3 C 0.4893(19) 0.4635(19) -0.0087(6)
C4 C 0.3340(18) 0.3647(18) -0.0291(6)
C5 C 0.1937(16) 0.0872(18) -0.0576(4)
N2 N 0.8762(18) 0.1951(19) -0.0599(5)
O3 O 0.7525(14) 0.1962(16) -0.0611(4)
O4 O 0.9835(16) 0.2698(19) -0.0846(5)
O5 O 0.8800(13) 0.1053(17) -0.0294(4)
H1 H 0.6592 0.4174 -0.0264
H2 H 0.5987 0.3640 0.0228
H3 H 0.5463 0.5536 -0.0269
H4 H 0.4798 0.4945 0.0213
H5 H 0.2550 0.3526 -0.0085
H6 H 0.3226 0.4077 -0.0569
H7 H 0.1014 0.0760 -0.0445
H8 H 0.1979 -0.0042 -0.0515
O1D O 0.6859(21) 0.1481(15) 0.0415(3)
O2D O 0.3637(18) -0.1078(13) 0.0322(3)
O3D O 0.5563(21) -0.1962(16) 0.0611(4)
O5D O 0.7747(21) -0.1053(17) 0.0294(4)
C5K C 0.1937(16) 0.1065(24) -0.1091(4)
N2D N 0.6811(26) -0.1951(19) 0.0599(5)
N1K N 0.3268(13) 0.1083(19) -0.1290(4)
H7K H 0.1014 0.0254 -0.1222
H8K H 0.1979 0.2021 -0.1152
O4D O 0.7137(25) -0.2698(19) 0.0846(5)
C1K C 0.4536(15) 0.2322(23) -0.1408(4)
C4K C 0.3340(18) -0.0307(25) -0.1376(6)
O2K O 0.4715(12) 0.3637(18) -0.1345(3)
C2K C 0.5697(16) 0.1970(25) -0.1591(5)
C3K C 0.4893(19) 0.0258(27) -0.1580(6)
H5K H 0.2550 -0.0976 -0.1582
H6K H 0.3226 -0.0851 -0.1098
U1H U 0.6118(1) 0.6118(1) -0.1667
H1K H 0.6592 0.2418 -0.1403
H2K H 0.5987 0.2347 -0.1895
H3K H 0.5463 -0.0073 -0.1398
H4K H 0.4798 -0.0147 -0.1880
loop_
_geom_bond_atom_site_label_1
_geom_bond_atom_site_label_2
_geom_bond_site_symmetry_1
_geom_bond_site_symmetry_2
U1 O1 1_555 1_555
N1 C1 1_555 1_555
C1 O2 1_555 1_555
O2 U1 1_555 1_555
C2 C1 1_555 1_555
C3 C2 1_555 1_555
C4 N1 1_555 1_555
C5 N1 1_555 1_555
N2 O3 1_555 1_555
O3 U1 1_555 1_555
O4 N2 1_555 1_555
O5 U1 1_555 1_555
H1 C2 1_555 1_555
H2 C2 1_555 1_555
H3 C3 1_555 1_555
H4 C3 1_555 1_555
H5 C4 1_555 1_555
H6 C4 1_555 1_555
H7 C5 1_555 1_555
H8 C5 1_555 1_555
O1D U1 1_555 1_555
O2D U1 1_555 1_555
O3D U1 1_555 1_555
O5D U1 1_555 1_555
C5K C5 1_555 1_555
N2D O3D 1_555 1_555
N1K C5K 1_555 1_555
H7K C5K 1_555 1_555
H8K C5K 1_555 1_555
O4D N2D 1_555 1_555
C1K N1K 1_555 1_555
C4K N1K 1_555 1_555
O2K C1K 1_555 1_555
C2K C1K 1_555 1_555
C3K C4K 1_555 1_555
H5K C4K 1_555 1_555
H6K C4K 1_555 1_555
U1H O2K 1_555 1_555
H1K C2K 1_555 1_555
H2K C2K 1_555 1_555
H3K C3K 1_555 1_555
H4K C3K 1_555 1_555
C3 C4 1_555 1_555
N2 O5 1_555 1_555
O5D N2D 1_555 1_555
C2K C3K 1_555 1_555

#END
