
#######################################################################
#
#                 Cambridge Crystallographic Data Centre
#                                CCDC 
#
#######################################################################
#
# If this CIF has been generated from an entry in the Cambridge 
# Structural Database, then it will include bibliographic, chemical, 
# crystal, experimental, refinement or atomic coordinate data resulting 
# from the CCDC's data processing and validation procedures.
#
#######################################################################

data_WESRIW
_symmetry_cell_setting           orthorhombic
_symmetry_space_group_name_H-M   'P 21 21 21'
_symmetry_Int_Tables_number      19
_space_group_name_Hall           'P 2ac 2ab'
loop_
_symmetry_equiv_pos_site_id
_symmetry_equiv_pos_as_xyz
1 x,y,z
2 1/2-x,-y,1/2+z
3 -x,1/2+y,1/2-z
4 1/2+x,1/2-y,-z
_cell_length_a                   4.8153(4)
_cell_length_b                   13.7892(11)
_cell_length_c                   14.0641(11)
_cell_angle_alpha                90
_cell_angle_beta                 90
_cell_angle_gamma                90
_cell_volume                     933.844
loop_
_atom_site_label
_atom_site_type_symbol
_atom_site_fract_x
_atom_site_fract_y
_atom_site_fract_z
Cu1 Cu 0.12084(4) 0.789658(13) 0.569047(13)
Cl1 Cl 0.22457(8) 0.64388(3) 0.51133(3)
O1 O 0.2079(2) 0.67708(9) 0.86960(9)
N1 N 0.1951(3) 0.87301(9) 0.68114(9)
N2 N 0.6411(3) 0.71662(9) 0.82397(9)
H1 H 0.8189 0.7188 0.8383
C1 C 0.0505(3) 0.95597(11) 0.69076(11)
H2 H -0.0846 0.9716 0.6440
C2 C 0.0897(4) 1.01961(11) 0.76581(11)
H3 H -0.0209 1.0764 0.7715
C3 C 0.2924(3) 0.99900(12) 0.83198(11)
H4 H 0.3266 1.0421 0.8834
C4 C 0.4453(3) 0.91448(11) 0.82239(11)
H5 H 0.5873 0.8994 0.8669
C5 C 0.3895(3) 0.85199(11) 0.74729(10)
C6 C 0.5429(3) 0.75756(12) 0.73484(11)
H6 H 0.4183 0.7102 0.7036
H7 H 0.7038 0.7683 0.6923
C7 C 0.4599(3) 0.67544(11) 0.88434(11)
C8 C 0.5806(3) 0.62787(12) 0.97115(11)
H8 H 0.4979 0.5635 0.9793
H9 H 0.5405 0.6677 1.0272
H10 H 0.7821 0.6215 0.9635
Cu1C Cu 0.62084(4) 0.710342(13) 0.430953(13)
Cl1C Cl -0.27543(8) 0.85612(3) 0.48867(3)
loop_
_geom_bond_atom_site_label_1
_geom_bond_atom_site_label_2
_geom_bond_site_symmetry_1
_geom_bond_site_symmetry_2
Cu1 Cl1 1_555 1_555
Cl1 Cu1C 1_555 1_555
O1 C7 1_555 1_555
N1 Cu1 1_555 1_555
N2 H1 1_555 1_555
C1 N1 1_555 1_555
H2 C1 1_555 1_555
C2 C1 1_555 1_555
H3 C2 1_555 1_555
C3 C2 1_555 1_555
H4 C3 1_555 1_555
C4 C3 1_555 1_555
H5 C4 1_555 1_555
C5 N1 1_555 1_555
C6 N2 1_555 1_555
H6 C6 1_555 1_555
H7 C6 1_555 1_555
C7 N2 1_555 1_555
C8 C7 1_555 1_555
H8 C8 1_555 1_555
H9 C8 1_555 1_555
H10 C8 1_555 1_555
Cl1C Cu1 1_555 1_555
C4 C5 1_555 1_555
C5 C6 1_555 1_555

#END
