
#######################################################################
#
#                 Cambridge Crystallographic Data Centre
#                                CCDC 
#
#######################################################################
#
# If this CIF has been generated from an entry in the Cambridge 
# Structural Database, then it will include bibliographic, chemical, 
# crystal, experimental, refinement or atomic coordinate data resulting 
# from the CCDC's data processing and validation procedures.
#
#######################################################################

data_WESYUP
_symmetry_cell_setting           triclinic
_symmetry_space_group_name_H-M   'P -1'
_symmetry_Int_Tables_number      2
_space_group_name_Hall           '-P 1'
loop_
_symmetry_equiv_pos_site_id
_symmetry_equiv_pos_as_xyz
1 x,y,z
2 -x,-y,-z
_cell_length_a                   7.3893(8)
_cell_length_b                   9.0008(9)
_cell_length_c                   9.0474(9)
_cell_angle_alpha                92.650(10)
_cell_angle_beta                 107.178(10)
_cell_angle_gamma                95.598(10)
_cell_volume                     570.37
loop_
_atom_site_label
_atom_site_type_symbol
_atom_site_fract_x
_atom_site_fract_y
_atom_site_fract_z
Cu1 Cu 0.0000 0.0000 0.0000
O1 O 0.32628(15) -0.00427(14) 0.11399(12)
N1 N 0.02411(17) 0.22805(15) 0.01599(14)
N2 N 0.15940(19) 0.29572(17) 0.14751(15)
N3 N 0.02552(17) -0.00002(15) -0.22109(14)
N4 N 0.21011(18) 0.02665(18) -0.22537(15)
C1 C -0.0834(2) 0.30709(19) -0.08633(17)
H1 H -0.1732 0.2573 -0.1754
C2 C -0.0674(2) 0.46479(18) -0.06584(16)
C3 C 0.1787(2) 0.4417(2) 0.17096(18)
H2 H 0.2703 0.4872 0.2614
C4 C -0.1193(2) -0.02053(19) -0.34843(16)
H3 H -0.2435 -0.0403 -0.3411
C5 C -0.0926(2) -0.01348(19) -0.49673(17)
C6 C 0.2411(2) 0.0325(2) -0.36025(17)
H4 H 0.3677 0.0503 -0.3625
H5 H 0.3553 -0.0686 0.0695
H6 H 0.3835 0.0806 0.1038
Cu1_2 Cu 0.0000 1.0000 0.0000
Cu1_3 Cu 0.0000 0.0000 -1.0000
O1A O -0.32628(15) 0.00427(14) -0.11399(12)
N1A N -0.02411(17) 0.77195(15) -0.01599(14)
N1A_2 N -0.02411(17) -0.22805(15) -0.01599(14)
N2A N -0.15940(19) 0.70428(17) -0.14751(15)
N3A N -0.02552(17) 0.00002(15) -0.77891(14)
N3A_2 N -0.02552(17) 0.00002(15) 0.22109(14)
N4A N -0.21011(18) -0.02665(18) -0.77463(15)
C1A C 0.0834(2) 0.69291(19) 0.08633(17)
H1A H 0.1732 0.7427 0.1754
C2A C 0.0674(2) 0.53521(18) 0.06584(16)
C3A C -0.1787(2) 0.5583(2) -0.17096(18)
H2A H -0.2703 0.5128 -0.2614
C4A C 0.1193(2) 0.02053(19) -0.65157(16)
H3A H 0.2435 0.0403 -0.6589
C5A C 0.0926(2) 0.01348(19) -0.50327(17)
C6A C -0.2411(2) -0.0325(2) -0.63975(17)
H4A H -0.3677 -0.0503 -0.6375
H5A H -0.3553 0.0686 -0.0695
H6A H -0.3835 -0.0806 -0.1038
Cl1 Cl 0.23633(6) 0.44641(6) -0.32209(5)
O2 O 0.3675(3) 0.4263(3) -0.1742(2)
O3 O 0.1950(3) 0.5996(2) -0.3189(2)
O4 O 0.0668(2) 0.3463(2) -0.3479(2)
O5 O 0.3205(3) 0.4209(3) -0.4425(3)
O6 O 0.55293(18) 0.23310(16) 0.04150(16)
H7 H 0.6153 0.2850 0.1250
H9 H 0.4925 0.2998 -0.0167
O7 O 0.6172(3) 0.2314(2) -0.4568(2)
H8 H 0.5309 0.2860 -0.4647
H10 H 0.6981 0.2731 -0.5022
loop_
_geom_bond_atom_site_label_1
_geom_bond_atom_site_label_2
_geom_bond_site_symmetry_1
_geom_bond_site_symmetry_2
Cu1 O1 1_555 1_555
Cl1 O2 1_555 1_555
O1 H5 1_555 1_555
O3 Cl1 1_555 1_555
O4 Cl1 1_555 1_555
O5 Cl1 1_555 1_555
O6 H7 1_555 1_555
O7 H8 1_555 1_555
N1 Cu1 1_555 1_555
N2 N1 1_555 1_555
N3 Cu1 1_555 1_555
N4 N3 1_555 1_555
C1 N1 1_555 1_555
H1 C1 1_555 1_555
C2 C1 1_555 1_555
C3 N2 1_555 1_555
H2 C3 1_555 1_555
C4 N3 1_555 1_555
H3 C4 1_555 1_555
C5 C4 1_555 1_555
C6 N4 1_555 1_555
H4 C6 1_555 1_555
H6 O1 1_555 1_555
H9 O6 1_555 1_555
H10 O7 1_555 1_555
Cu1_2 N1A 1_555 1_555
Cu1_3 N3A 1_555 1_555
O1A Cu1 1_555 1_555
N1A N2A 1_555 1_555
N1A_2 Cu1 1_555 1_555
N2A C3A 1_555 1_555
N3A N4A 1_555 1_555
N3A_2 Cu1 1_555 1_555
N4A C6A 1_555 1_555
C1A N1A 1_555 1_555
H1A C1A 1_555 1_555
C2A C2 1_555 1_555
C3A C2 1_555 1_555
H2A C3A 1_555 1_555
C4A N3A 1_555 1_555
H3A C4A 1_555 1_555
C5A C5 1_555 1_555
C6A C5 1_555 1_555
H4A C6A 1_555 1_555
H5A O1A 1_555 1_555
H6A O1A 1_555 1_555
C3 C2A 1_555 1_555
C6 C5A 1_555 1_555
C1A C2A 1_555 1_555
C4A C5A 1_555 1_555

#END
