
#######################################################################
#
#                 Cambridge Crystallographic Data Centre
#                                CCDC 
#
#######################################################################
#
# If this CIF has been generated from an entry in the Cambridge 
# Structural Database, then it will include bibliographic, chemical, 
# crystal, experimental, refinement or atomic coordinate data resulting 
# from the CCDC's data processing and validation procedures.
#
#######################################################################

data_WESYID
_symmetry_cell_setting           triclinic
_symmetry_space_group_name_H-M   'P -1'
_symmetry_Int_Tables_number      2
_space_group_name_Hall           '-P 1'
loop_
_symmetry_equiv_pos_site_id
_symmetry_equiv_pos_as_xyz
1 x,y,z
2 -x,-y,-z
_cell_length_a                   6.3661(7)
_cell_length_b                   7.5923(9)
_cell_length_c                   8.0357(9)
_cell_angle_alpha                103.580(10)
_cell_angle_beta                 103.119(10)
_cell_angle_gamma                109.693(10)
_cell_volume                     334.982
loop_
_atom_site_label
_atom_site_type_symbol
_atom_site_fract_x
_atom_site_fract_y
_atom_site_fract_z
Zn1 Zn 0.0000 0.0000 0.0000
O1 O 0.1480(2) -0.13050(17) -0.18411(14)
O2 O -0.24885(19) -0.28949(16) -0.03957(15)
N1 N 0.2442(2) -0.01986(17) 0.20875(15)
N2 N 0.2625(2) -0.19872(17) 0.17300(16)
C1 C 0.3532(2) 0.11956(19) 0.36921(18)
H1 H 0.3387 0.2412 0.3869
C2 C 0.4923(2) 0.09067(18) 0.51629(17)
C3 C 0.3870(2) -0.23226(19) 0.30517(18)
H2 H 0.3974 -0.3558 0.2813
H3 H 0.0918 -0.1645 -0.2948
H4 H 0.1624 -0.2414 -0.1756
H5 H -0.4017 -0.3210 -0.0758
H6 H -0.2277 -0.3400 0.0435
Zn1_2 Zn 1.0000 0.0000 1.0000
O1A O -0.1480(2) 0.13050(17) 0.18411(14)
O2A O 0.24885(19) 0.28949(16) 0.03957(15)
N1A N 0.7558(2) 0.01986(17) 0.79125(15)
N1A_2 N -0.2442(2) 0.01986(17) -0.20875(15)
N2A N 0.7375(2) 0.19872(17) 0.82700(16)
C1A C 0.6468(2) -0.11956(19) 0.63079(18)
H1A H 0.6613 -0.2412 0.6131
C2A C 0.5077(2) -0.09067(18) 0.48371(17)
C3A C 0.6130(2) 0.23226(19) 0.69483(18)
H2A H 0.6026 0.3558 0.7187
H3A H -0.0918 0.1645 0.2948
H4A H -0.1624 0.2414 0.1756
H5A H 0.4017 0.3210 0.0758
H6A H 0.2277 0.3400 -0.0435
O3 O -0.2442(2) -0.50659(18) 0.46248(17)
O4 O -0.0490(2) -0.23372(16) 0.42326(16)
O5 O -0.2390(2) -0.51022(17) 0.19216(15)
N3 N -0.1764(2) -0.41610(18) 0.36171(17)
loop_
_geom_bond_atom_site_label_1
_geom_bond_atom_site_label_2
_geom_bond_site_symmetry_1
_geom_bond_site_symmetry_2
Zn1 O1 1_555 1_555
O1 H3 1_555 1_555
O2 Zn1 1_555 1_555
N1 Zn1 1_555 1_555
N2 N1 1_555 1_555
C1 N1 1_555 1_555
H1 C1 1_555 1_555
C2 C1 1_555 1_555
C3 N2 1_555 1_555
H2 C3 1_555 1_555
H4 O1 1_555 1_555
H5 O2 1_555 1_555
H6 O2 1_555 1_555
O3 N3 1_555 1_555
O4 N3 1_555 1_555
O5 N3 1_555 1_555
Zn1_2 N1A 1_555 1_555
O1A Zn1 1_555 1_555
O2A Zn1 1_555 1_555
N1A N2A 1_555 1_555
N1A_2 Zn1 1_555 1_555
N2A C3A 1_555 1_555
C1A N1A 1_555 1_555
H1A C1A 1_555 1_555
C2A C2 1_555 1_555
C3A C2 1_555 1_555
H2A C3A 1_555 1_555
H3A O1A 1_555 1_555
H4A O1A 1_555 1_555
H5A O2A 1_555 1_555
H6A O2A 1_555 1_555
C3 C2A 1_555 1_555
C1A C2A 1_555 1_555

#END
