
#######################################################################
#
#                 Cambridge Crystallographic Data Centre
#                                CCDC 
#
#######################################################################
#
# If this CIF has been generated from an entry in the Cambridge 
# Structural Database, then it will include bibliographic, chemical, 
# crystal, experimental, refinement or atomic coordinate data resulting 
# from the CCDC's data processing and validation procedures.
#
#######################################################################

data_WESYOJ
_symmetry_cell_setting           monoclinic
_symmetry_space_group_name_H-M   'C c'
_symmetry_Int_Tables_number      9
_space_group_name_Hall           'C -2yc'
loop_
_symmetry_equiv_pos_site_id
_symmetry_equiv_pos_as_xyz
1 x,y,z
2 x,-y,1/2+z
3 1/2+x,1/2+y,z
4 1/2+x,1/2-y,1/2+z
_cell_length_a                   13.1173(9)
_cell_length_b                   13.2215(9)
_cell_length_c                   12.0518(8)
_cell_angle_alpha                90
_cell_angle_beta                 113.404(2)
_cell_angle_gamma                90
_cell_volume                     1918.19
loop_
_atom_site_label
_atom_site_type_symbol
_atom_site_fract_x
_atom_site_fract_y
_atom_site_fract_z
Cu1 Cu 0.65691(8) 0.74967(2) 0.17469(9)
O1 O 0.4657(4) 0.7373(3) 0.1201(5)
H1 H 0.4224 0.7077 0.1503
H2 H 0.4305 0.7538 0.0424
O2 O 0.8561(4) 0.7447(2) 0.2300(5)
H3 H 0.8843 0.7581 0.3031
H4 H 0.8985 0.7157 0.2072
N1 N 0.6791(3) 0.6385(3) 0.2985(4)
N2 N 0.7713(3) 0.6458(3) 0.4062(4)
N3 N 0.5532(3) 0.3472(3) 0.4415(4)
N4 N 0.6450(4) 0.3558(3) 0.5473(4)
N5 N 0.6397(4) 0.8620(4) 0.0537(4)
N6 N 0.5341(3) 0.8935(3) -0.0075(4)
N7 N 0.7781(3) 1.1126(3) -0.1350(4)
N8 N 0.6700(4) 1.1445(3) -0.1992(5)
C1 C 0.6065(4) 0.5654(4) 0.2780(4)
H5 H 0.5459 0.5617 0.2028
C2 C 0.6181(4) 0.4916(4) 0.3679(4)
C3 C 0.5400(4) 0.4137(4) 0.3556(5)
H6 H 0.4762 0.4094 0.2832
C4 C 0.7848(4) 0.5784(4) 0.4883(5)
H7 H 0.8482 0.5830 0.5610
C5 C 0.7095(4) 0.4979(4) 0.4752(5)
C6 C 0.7194(4) 0.4246(3) 0.5640(4)
H8 H 0.7820 0.4260 0.6376
C7 C 0.5162(4) 0.9702(4) -0.0811(5)
H9 H 0.4427 0.9919 -0.1240
C8 C 0.6021(4) 1.0219(4) -0.0991(4)
C9 C 0.5868(4) 1.1046(3) -0.1822(4)
H10 H 0.5149 1.1303 -0.2250
C10 C 0.7240(4) 0.9066(4) 0.0424(5)
H11 H 0.7963 0.8838 0.0890
C11 C 0.7092(4) 0.9876(4) -0.0376(5)
C12 C 0.7963(4) 1.0367(4) -0.0592(5)
H12 H 0.8696 1.0139 -0.0175
Cu1A Cu 0.65691(8) 0.25033(2) 0.67469(9)
Cu1A_2 Cu 0.65691(8) 1.25033(2) -0.32531(9)
N4A N 0.6450(4) 0.6442(3) 0.0473(4)
N8A N 0.6700(4) 0.8555(3) 0.3008(5)
O3 O 0.4717(4) 0.9034(5) 0.6401(5)
O4 O 0.6423(4) 0.9276(2) 0.6710(5)
O5 O 0.5972(5) 0.8044(3) 0.7564(4)
N9 N 0.5693(3) 0.8767(3) 0.6871(3)
O6 O 0.4165(5) 0.6795(7) 0.4752(7)
O7 O 0.5755(5) 0.7123(4) 0.4839(6)
O8 O 0.5549(8) 0.5938(5) 0.5977(6)
N10 N 0.5225(5) 0.6604(4) 0.5246(5)
O9 O 0.3597(4) 0.6234(4) 0.2285(5)
O10 O 0.7866(7) 0.5971(9) 0.7488(11)
O11? O 0.8275(11) 0.6319(8) 0.8051(12)
loop_
_geom_bond_atom_site_label_1
_geom_bond_atom_site_label_2
_geom_bond_site_symmetry_1
_geom_bond_site_symmetry_2
Cu1 O1 1_555 1_555
O1 H1 1_555 1_555
H2 O1 1_555 1_555
O2 Cu1 1_555 1_555
H3 O2 1_555 1_555
H4 O2 1_555 1_555
O3 N9 1_555 1_555
O4 N9 1_555 1_555
O5 N9 1_555 1_555
O6 N10 1_555 1_555
O7 N10 1_555 1_555
O8 N10 1_555 1_555
N1 Cu1 1_555 1_555
N2 N1 1_555 1_555
N3 N4 1_555 1_555
N4 C6 1_555 1_555
N5 Cu1 1_555 1_555
N6 N5 1_555 1_555
N7 N8 1_555 1_555
N8 C9 1_555 1_555
C1 N1 1_555 1_555
H5 C1 1_555 1_555
C2 C1 1_555 1_555
C3 N3 1_555 1_555
H6 C3 1_555 1_555
C4 N2 1_555 1_555
H7 C4 1_555 1_555
C5 C2 1_555 1_555
C6 C5 1_555 1_555
H8 C6 1_555 1_555
C7 N6 1_555 1_555
H9 C7 1_555 1_555
C8 C7 1_555 1_555
C9 C8 1_555 1_555
H10 C9 1_555 1_555
C10 N5 1_555 1_555
H11 C10 1_555 1_555
C11 C8 1_555 1_555
C12 N7 1_555 1_555
H12 C12 1_555 1_555
Cu1A N4 1_555 1_555
Cu1A_2 N8 1_555 1_555
N4A Cu1 1_555 1_555
N8A Cu1 1_555 1_555
C2 C3 1_555 1_555
C4 C5 1_555 1_555
C10 C11 1_555 1_555
C11 C12 1_555 1_555

#END
