
#######################################################################
#
#                 Cambridge Crystallographic Data Centre
#                                CCDC 
#
#######################################################################
#
# If this CIF has been generated from an entry in the Cambridge 
# Structural Database, then it will include bibliographic, chemical, 
# crystal, experimental, refinement or atomic coordinate data resulting 
# from the CCDC's data processing and validation procedures.
#
#######################################################################

data_WESZID
_symmetry_cell_setting           triclinic
_symmetry_space_group_name_H-M   'P -1'
_symmetry_Int_Tables_number      2
_space_group_name_Hall           '-P 1'
loop_
_symmetry_equiv_pos_site_id
_symmetry_equiv_pos_as_xyz
1 x,y,z
2 -x,-y,-z
_cell_length_a                   11.1443(5)
_cell_length_b                   14.8506(7)
_cell_length_c                   17.3929(7)
_cell_angle_alpha                114.50(1)
_cell_angle_beta                 94.12(1)
_cell_angle_gamma                99.20(1)
_cell_volume                     2554.88
loop_
_atom_site_label
_atom_site_type_symbol
_atom_site_fract_x
_atom_site_fract_y
_atom_site_fract_z
Zn1 Zn 0.10649(12) 0.98438(10) -0.04920(8)
Zn2 Zn 0.40707(13) 0.78658(10) 0.27804(9)
Zn3 Zn 0.12385(13) 0.52428(10) 0.55363(9)
O1 O 0.0207(5) 0.9277(5) 0.0225(4)
O2 O 0.0300(6) 0.5863(5) 0.4929(4)
N1 N 0.2613(10) 0.7965(8) 0.1853(7)
N2 N -0.2376(9) 0.8899(7) -0.0428(6)
N3 N -0.1596(9) 0.6866(7) 0.0091(6)
N4 N 0.2602(11) 0.7791(9) 0.3642(9)
N5 N -0.2061(8) 0.5737(7) 0.5476(6)
N6 N -0.1029(8) 0.8140(7) 0.5332(6)
C1 C -0.0008(11) 0.8254(8) 0.0062(7)
C2 C 0.0896(11) 0.8081(9) 0.0662(9)
C3 C 0.1778(13) 0.7527(8) 0.0426(7)
C4 C 0.2587(11) 0.7483(9) 0.1034(10)
C5 C 0.1758(13) 0.8526(8) 0.2093(7)
C6 C 0.0922(10) 0.8613(8) 0.1530(10)
C7 C -0.1363(11) 0.7893(8) 0.0134(6)
C8 C -0.2244(9) 0.8067(9) -0.0471(7)
C9 C -0.3261(12) 0.8943(10) -0.1091(9)
C10 C -0.2579(10) 0.8864(8) -0.1842(7)
C11 C -0.3592(9) 0.9978(9) -0.0676(7)
C12 C -0.4426(10) 0.8117(9) -0.1385(7)
C13 C -0.1645(10) 0.6097(9) -0.0804(8)
C14 C -0.0770(10) 0.5382(8) -0.0886(7)
C15 C -0.2539(15) 0.6655(11) 0.0584(10)
C16 C -0.3823(12) 0.6710(9) 0.0255(8)
C17 C -0.2609(11) 0.5587(9) 0.0517(7)
C18 C -0.2162(12) 0.7386(9) 0.1534(8)
C19 C 0.1335(14) 0.8963(12) -0.1628(9)
C20 C 0.2442(14) 0.9212(13) -0.1871(9)
C21 C 0.4105(11) 0.6390(8) 0.2156(8)
C22 C 0.4937(12) 0.5916(8) 0.2455(8)
C23 C 0.5063(13) 0.9252(10) 0.3399(9)
C24 C 0.4999(15) 0.9959(11) 0.3120(10)
C25 C 0.0326(12) 0.6893(9) 0.5206(7)
C26 C 0.1082(14) 0.7295(10) 0.4675(10)
C27 C 0.2173(15) 0.7990(10) 0.5019(7)
C28 C 0.2882(11) 0.8226(8) 0.4481(11)
C29 C 0.1537(16) 0.7131(10) 0.3324(8)
C30 C 0.0771(11) 0.6855(8) 0.3804(11)
C31 C -0.0996(11) 0.7076(8) 0.5142(6)
C32 C -0.1756(10) 0.6671(10) 0.5663(7)
C33 C -0.2785(12) 0.5399(10) 0.6037(9)
C34 C -0.1886(10) 0.5566(8) 0.6810(7)
C35 C -0.3349(10) 0.4282(9) 0.5510(7)
C36 C -0.3817(10) 0.5994(8) 0.6309(7)
C37 C -0.0683(10) 0.8818(8) 0.6255(7)
C38 C 0.0350(10) 0.9733(8) 0.6435(6)
C39 C -0.2114(14) 0.8280(9) 0.4896(8)
C40 C -0.2054(10) 0.9414(8) 0.5145(6)
C41 C -0.2056(9) 0.7808(8) 0.3922(7)
C42 C -0.3364(11) 0.7826(8) 0.5052(7)
C43 C 0.2206(18) 0.6001(12) 0.6659(9)
C44 C 0.227(2) 0.5736(14) 0.7216(12)
H1 H 0.0137(11) 0.7847(8) -0.0518(7)
H2 H 0.1826(13) 0.7166(8) -0.0184(7)
H3 H 0.3197(11) 0.7065(9) 0.0827(10)
H4 H 0.1724(13) 0.8887(8) 0.2705(7)
H5 H 0.0360(10) 0.9075(8) 0.1744(10)
H6 H -0.1534(11) 0.8309(8) 0.0705(6)
H7 H -0.2741(9) 0.7464(9) -0.0951(7)
H8 H -0.3122(10) 0.8903(8) -0.2291(7)
H9 H -0.2328(10) 0.8211(8) -0.2069(7)
H10 H -0.1848(10) 0.9413(8) -0.1650(7)
H11 H -0.4174(9) 1.0050(9) -0.1086(7)
H12 H -0.2843(9) 1.0504(9) -0.0511(7)
H13 H -0.3967(9) 1.0047(9) -0.0167(7)
H14 H -0.4869(10) 0.8180(9) -0.0904(7)
H15 H -0.4188(10) 0.7459(9) -0.1620(7)
H16 H -0.4961(10) 0.8172(9) -0.1829(7)
H17 H -0.2487(10) 0.5698(9) -0.1021(8)
H18 H -0.1417(10) 0.6454(9) -0.1154(8)
H19 H -0.0844(10) 0.4902(8) -0.1488(7)
H20 H -0.0991(10) 0.5011(8) -0.0546(7)
H21 H 0.0079(10) 0.5768(8) -0.0679(7)
H22 H -0.3790(12) 0.7387(9) 0.0284(8)
H23 H -0.4400(12) 0.6594(9) 0.0620(8)
H24 H -0.4098(12) 0.6202(9) -0.0337(8)
H25 H -0.1798(11) 0.5514(9) 0.0712(7)
H26 H -0.2892(11) 0.5086(9) -0.0077(7)
H27 H -0.3195(11) 0.5478(9) 0.0880(7)
H28 H -0.2780(12) 0.7235(9) 0.1861(8)
H29 H -0.2122(12) 0.8076(9) 0.1591(8)
H30 H -0.1357(12) 0.7330(9) 0.1754(8)
H31 H 0.0689(14) 0.8969(12) -0.2039(9)
H32 H 0.1252(14) 0.8278(12) -0.1667(9)
H33 H 0.2459(14) 0.8715(13) -0.2454(9)
H34 H 0.3111(14) 0.9198(13) -0.1480(9)
H35 H 0.2548(14) 0.9889(13) -0.1852(9)
H36 H 0.4251(11) 0.6277(8) 0.1578(8)
H37 H 0.3280(11) 0.6020(8) 0.2130(8)
H38 H 0.4797(12) 0.5196(8) 0.2062(8)
H39 H 0.4810(12) 0.5989(8) 0.3028(8)
H40 H 0.5781(12) 0.6246(8) 0.2476(8)
H41 H 0.5924(13) 0.9186(10) 0.3424(9)
H42 H 0.4853(13) 0.9522(10) 0.3979(9)
H43 H 0.5565(15) 1.0590(11) 0.3512(10)
H44 H 0.4157(15) 1.0072(11) 0.3101(10)
H45 H 0.5228(15) 0.9737(11) 0.2546(10)
H46 H 0.0717(12) 0.7258(9) 0.5805(7)
H47 H 0.2447(15) 0.8320(10) 0.5639(7)
H48 H 0.3641(11) 0.8745(8) 0.4738(11)
H49 H 0.1286(16) 0.6818(10) 0.2703(8)
H50 H 0.0014(11) 0.6340(8) 0.3523(11)
H51 H -0.1387(11) 0.6689(8) 0.4544(6)
H52 H -0.2013(10) 0.7157(10) 0.6172(7)
H53 H -0.2330(10) 0.5356(8) 0.7195(7)
H54 H -0.1485(10) 0.6283(8) 0.7116(7)
H55 H -0.1263(10) 0.5159(8) 0.6614(7)
H56 H -0.3829(10) 0.4023(9) 0.5853(7)
H57 H -0.2693(10) 0.3908(9) 0.5331(7)
H58 H -0.3889(10) 0.4196(9) 0.5003(7)
H59 H -0.4269(10) 0.5769(8) 0.6683(7)
H60 H -0.4381(10) 0.5870(8) 0.5800(7)
H61 H -0.3456(10) 0.6719(8) 0.6618(7)
H62 H -0.1404(10) 0.9068(8) 0.6483(7)
H63 H -0.0401(10) 0.8431(8) 0.6546(7)
H64 H 0.0551(10) 1.0156(8) 0.7053(6)
H65 H 0.0079(10) 1.0132(8) 0.6152(6)
H66 H 0.1082(10) 0.9495(8) 0.6215(6)
H67 H -0.2094(10) 0.9763(8) 0.5757(6)
H68 H -0.2745(10) 0.9497(8) 0.4816(6)
H69 H -0.1278(10) 0.9704(8) 0.5024(6)
H70 H -0.2771(9) 0.7887(8) 0.3612(7)
H71 H -0.2052(9) 0.7087(8) 0.3722(7)
H72 H -0.1301(9) 0.8151(8) 0.3819(7)
H73 H -0.3412(11) 0.7104(8) 0.4890(7)
H74 H -0.4038(11) 0.7909(8) 0.4709(7)
H75 H -0.3433(11) 0.8171(8) 0.5659(7)
H76 H 0.1910(18) 0.6634(12) 0.6901(9)
H77 H 0.3055(18) 0.6143(12) 0.6558(9)
H78 H 0.282(2) 0.6270(14) 0.7718(12)
H79 H 0.259(2) 0.5116(14) 0.7024(12)
H80 H 0.145(2) 0.5607(14) 0.7367(12)
O1A O -0.0207(5) 1.0723(5) -0.0225(4)
N2A N 0.2376(9) 1.1101(7) 0.0428(6)
O2A O -0.0300(6) 0.4137(5) 0.5071(4)
N5A N 0.2061(8) 0.4263(7) 0.4524(6)
Zn1A Zn -0.10649(12) 1.01562(10) 0.04920(8)
Zn3A Zn -0.12385(13) 0.47572(10) 0.44637(9)
loop_
_geom_bond_atom_site_label_1
_geom_bond_atom_site_label_2
_geom_bond_site_symmetry_1
_geom_bond_site_symmetry_2
Zn1 O1 1_555 1_555
Zn2 N1 1_555 1_555
Zn3 O2 1_555 1_555
O1 C1 1_555 1_555
O2 C25 1_555 1_555
N1 C4 1_555 1_555
N2 C8 1_555 1_555
N3 C7 1_555 1_555
N4 Zn2 1_555 1_555
N5 C32 1_555 1_555
N6 C31 1_555 1_555
C1 C2 1_555 1_555
C2 C3 1_555 1_555
C3 C4 1_555 1_555
C4 H3 1_555 1_555
C5 N1 1_555 1_555
C6 C2 1_555 1_555
C7 C1 1_555 1_555
C8 C7 1_555 1_555
C9 N2 1_555 1_555
C10 C9 1_555 1_555
C11 C9 1_555 1_555
C12 C9 1_555 1_555
C13 N3 1_555 1_555
C14 C13 1_555 1_555
C15 N3 1_555 1_555
C16 C15 1_555 1_555
C17 C15 1_555 1_555
C18 C15 1_555 1_555
C19 Zn1 1_555 1_555
C20 C19 1_555 1_555
C21 Zn2 1_555 1_555
C22 C21 1_555 1_555
C23 Zn2 1_555 1_555
C24 C23 1_555 1_555
C25 C26 1_555 1_555
C26 C27 1_555 1_555
C27 C28 1_555 1_555
C28 N4 1_555 1_555
C29 N4 1_555 1_555
C30 C26 1_555 1_555
C31 C25 1_555 1_555
C32 C31 1_555 1_555
C33 N5 1_555 1_555
C34 C33 1_555 1_555
C35 C33 1_555 1_555
C36 C33 1_555 1_555
C37 N6 1_555 1_555
C38 C37 1_555 1_555
C39 N6 1_555 1_555
C40 C39 1_555 1_555
C41 C39 1_555 1_555
C42 C39 1_555 1_555
C43 Zn3 1_555 1_555
C44 C43 1_555 1_555
H1 C1 1_555 1_555
H2 C3 1_555 1_555
H4 C5 1_555 1_555
H5 C6 1_555 1_555
H6 C7 1_555 1_555
H7 C8 1_555 1_555
H8 C10 1_555 1_555
H9 C10 1_555 1_555
H10 C10 1_555 1_555
H11 C11 1_555 1_555
H12 C11 1_555 1_555
H13 C11 1_555 1_555
H14 C12 1_555 1_555
H15 C12 1_555 1_555
H16 C12 1_555 1_555
H17 C13 1_555 1_555
H18 C13 1_555 1_555
H19 C14 1_555 1_555
H20 C14 1_555 1_555
H21 C14 1_555 1_555
H22 C16 1_555 1_555
H23 C16 1_555 1_555
H24 C16 1_555 1_555
H25 C17 1_555 1_555
H26 C17 1_555 1_555
H27 C17 1_555 1_555
H28 C18 1_555 1_555
H29 C18 1_555 1_555
H30 C18 1_555 1_555
H31 C19 1_555 1_555
H32 C19 1_555 1_555
H33 C20 1_555 1_555
H34 C20 1_555 1_555
H35 C20 1_555 1_555
H36 C21 1_555 1_555
H37 C21 1_555 1_555
H38 C22 1_555 1_555
H39 C22 1_555 1_555
H40 C22 1_555 1_555
H41 C23 1_555 1_555
H42 C23 1_555 1_555
H43 C24 1_555 1_555
H44 C24 1_555 1_555
H45 C24 1_555 1_555
H46 C25 1_555 1_555
H47 C27 1_555 1_555
H48 C28 1_555 1_555
H49 C29 1_555 1_555
H50 C30 1_555 1_555
H51 C31 1_555 1_555
H52 C32 1_555 1_555
H53 C34 1_555 1_555
H54 C34 1_555 1_555
H55 C34 1_555 1_555
H56 C35 1_555 1_555
H57 C35 1_555 1_555
H58 C35 1_555 1_555
H59 C36 1_555 1_555
H60 C36 1_555 1_555
H61 C36 1_555 1_555
H62 C37 1_555 1_555
H63 C37 1_555 1_555
H64 C38 1_555 1_555
H65 C38 1_555 1_555
H66 C38 1_555 1_555
H67 C40 1_555 1_555
H68 C40 1_555 1_555
H69 C40 1_555 1_555
H70 C41 1_555 1_555
H71 C41 1_555 1_555
H72 C41 1_555 1_555
H73 C42 1_555 1_555
H74 C42 1_555 1_555
H75 C42 1_555 1_555
H76 C43 1_555 1_555
H77 C43 1_555 1_555
H78 C44 1_555 1_555
H79 C44 1_555 1_555
H80 C44 1_555 1_555
O1A Zn1 1_555 1_555
N2A Zn1 1_555 1_555
O2A Zn3 1_555 1_555
N5A Zn3 1_555 1_555
Zn1A O1 1_555 1_555
Zn3A O2 1_555 1_555
N2 Zn1A 1_555 1_555
N5 Zn3A 1_555 1_555
C5 C6 1_555 1_555
C29 C30 1_555 1_555
O1A Zn1A 1_555 1_555
O2A Zn3A 1_555 1_555

#END
