
#######################################################################
#
#                 Cambridge Crystallographic Data Centre
#                                CCDC 
#
#######################################################################
#
# If this CIF has been generated from an entry in the Cambridge 
# Structural Database, then it will include bibliographic, chemical, 
# crystal, experimental, refinement or atomic coordinate data resulting 
# from the CCDC's data processing and validation procedures.
#
#######################################################################

data_WESZOK
_symmetry_cell_setting           orthorhombic
_symmetry_space_group_name_H-M   'P b c m'
_symmetry_Int_Tables_number      57
_space_group_name_Hall           '-P 2c 2b'
loop_
_symmetry_equiv_pos_site_id
_symmetry_equiv_pos_as_xyz
1 x,y,z
2 -x,-y,1/2+z
3 -x,1/2+y,1/2-z
4 x,1/2-y,-z
5 -x,-y,-z
6 x,y,1/2-z
7 x,1/2-y,1/2+z
8 -x,1/2+y,z
_cell_length_a                   6.328(3)
_cell_length_b                   31.404(14)
_cell_length_c                   24.166(11)
_cell_angle_alpha                90
_cell_angle_beta                 90
_cell_angle_gamma                90
_cell_volume                     4802.38
loop_
_atom_site_label
_atom_site_type_symbol
_atom_site_fract_x
_atom_site_fract_y
_atom_site_fract_z
Ag1 Ag 1.19404(12) 0.39809(2) 0.61863(3)
Ag2 Ag 1.18346(17) 0.22718(3) 0.7500
N2 N 1.2678(11) 0.4304(2) 0.7015(3)
N3 N 1.5089(12) 0.4200(2) 0.5756(3)
N4 N 1.8805(12) 0.4178(3) 0.5743(4)
N5 N 1.1260(14) 0.3265(3) 0.6161(4)
N6 N 1.1085(14) 0.2629(2) 0.6689(4)
N7 N 0.8610(16) 0.1888(3) 0.7500
N8 N 0.4902(18) 0.1907(4) 0.7500
C3 C 1.3883(15) 0.4654(3) 0.7022(4)
H1 H 1.4297 0.4778 0.6680
C4 C 1.453(2) 0.4839(4) 0.7500
H2 H 1.5405 0.5085 0.7500
C5 C 1.214(2) 0.4149(5) 0.7500
H3 H 1.1275 0.3901 0.7500
C6 C 1.5120(17) 0.4388(4) 0.5263(4)
H4 H 1.3821 0.4471 0.5098
C7 C 1.6953(16) 0.4464(4) 0.4987(4)
H5 H 1.6960 0.4590 0.4629
C8 C 1.6956(15) 0.4111(3) 0.5976(4)
H6 H 1.6958 0.3988 0.6335
C9 C 1.8789(15) 0.4350(4) 0.5247(4)
H7 H 2.0096 0.4398 0.5064
C10 C 1.1743(17) 0.3021(3) 0.6589(5)
H8 H 1.2671 0.3142 0.6855
C11 C 0.997(2) 0.3091(4) 0.5792(5)
H9 H 0.9590 0.3252 0.5474
C12 C 0.916(2) 0.2690(4) 0.5847(5)
H10 H 0.8223 0.2572 0.5580
C13 C 0.977(2) 0.2467(4) 0.6306(4)
H11 H 0.9236 0.2187 0.6356
C14 C 0.855(2) 0.1463(4) 0.7500
H12 H 0.9835 0.1307 0.7500
C15 C 0.679(2) 0.2084(4) 0.7500
H13 H 0.6835 0.2387 0.7500
C16 C 0.671(2) 0.1254(4) 0.7500
H14 H 0.6680 0.0951 0.7500
C17 C 0.486(2) 0.1484(5) 0.7500
H15 H 0.3544 0.1340 0.7500
Ag1E Ag 1.19404(12) 0.39809(2) 0.88137(3)
Ag1_2 Ag 2.19404(12) 0.39809(2) 0.61863(3)
Ag1_3 Ag 0.19404(12) 0.39809(2) 0.61863(3)
Ag2_2 Ag 0.18346(17) 0.22718(3) 0.7500
N2E N 1.2678(11) 0.4304(2) 0.7985(3)
N3_2 N 0.5089(12) 0.4200(2) 0.5756(3)
N3E N 1.5089(12) 0.4200(2) 0.9244(3)
N4_2 N 0.8805(12) 0.4178(3) 0.5743(4)
N4E N 0.8805(12) 0.4178(3) 0.9257(4)
N5E N 1.1260(14) 0.3265(3) 0.8839(4)
N6E N 1.1085(14) 0.2629(2) 0.8311(4)
N8_2 N 1.4902(18) 0.1907(4) 0.7500
C3E C 1.3883(15) 0.4654(3) 0.7978(4)
H1E H 1.4297 0.4778 0.8320
C6_2 C 0.5120(17) 0.4388(4) 0.5263(4)
H4_2 H 0.3821 0.4471 0.5098
C7_2 C 0.6953(16) 0.4464(4) 0.4987(4)
H5_2 H 0.6960 0.4590 0.4629
C8_2 C 0.6956(15) 0.4111(3) 0.5976(4)
H6_2 H 0.6958 0.3988 0.6335
C9_2 C 0.8789(15) 0.4350(4) 0.5247(4)
H7_2 H 1.0096 0.4398 0.5064
C10E C 1.1743(17) 0.3021(3) 0.8411(5)
H8E H 1.2671 0.3142 0.8145
C11E C 0.997(2) 0.3091(4) 0.9208(5)
H9E H 0.9590 0.3252 0.9526
C12E C 0.916(2) 0.2690(4) 0.9153(5)
H10E H 0.8223 0.2572 0.9420
C13E C 0.977(2) 0.2467(4) 0.8694(4)
H11E H 0.9236 0.2187 0.8644
B1 B 1.701(3) 0.3435(5) 0.7500
F7 F 1.888(2) 0.3300(5) 0.7500
F8 F 1.716(5) 0.3883(9) 0.7500
F9 F 1.629(5) 0.3355(9) 0.6990(13)
F9E F 1.629(5) 0.3355(9) 0.8010(13)
F1 F 1.4431(15) 0.2010(2) 0.5874(4)
F2 F 1.5903(12) 0.1421(3) 0.6089(4)
F3 F 1.4993(13) 0.1540(2) 0.5255(3)
F4 F 0.9113(11) 0.0605(2) 0.6687(4)
F5 F 0.9365(10) 0.0139(2) 0.6066(3)
F6 F 1.0744(11) 0.0021(2) 0.6849(3)
S1 S 1.1867(5) 0.13745(8) 0.59266(11)
S2 S 1.2834(4) 0.05473(8) 0.62545(10)
O1 O 1.1465(12) 0.1492(2) 0.6482(3)
O2 O 1.0566(14) 0.1544(2) 0.5507(3)
O3 O 1.3747(11) 0.0705(2) 0.6749(3)
O4 O 1.3814(11) 0.0203(2) 0.5969(3)
N1 N 1.2186(14) 0.0883(3) 0.5811(3)
C1 C 1.450(2) 0.1597(4) 0.5774(5)
C2 C 1.0357(17) 0.0317(4) 0.6478(5)
F10? F 1.554(5) 0.3129(9) 0.7500
F11? F 1.665(6) 0.3708(12) 0.7120(14)
loop_
_geom_bond_atom_site_label_1
_geom_bond_atom_site_label_2
_geom_bond_site_symmetry_1
_geom_bond_site_symmetry_2
Ag1 N2 1_555 1_555
Ag2 N6 1_555 1_555
B1 F7 1_555 1_555
F1 C1 1_555 1_555
F2 C1 1_555 1_555
F3 C1 1_555 1_555
F4 C2 1_555 1_555
F5 C2 1_555 1_555
F6 C2 1_555 1_555
F8 B1 1_555 1_555
F9 B1 1_555 1_555
S1 O1 1_555 1_555
S2 O3 1_555 1_555
O2 S1 1_555 1_555
O4 S2 1_555 1_555
N1 S1 1_555 1_555
N2 C3 1_555 1_555
N3 Ag1 1_555 1_555
N4 C8 1_555 1_555
N5 Ag1 1_555 1_555
N6 C10 1_555 1_555
N7 Ag2 1_555 1_555
N8 C15 1_555 1_555
C1 S1 1_555 1_555
C2 S2 1_555 1_555
C3 H1 1_555 1_555
C4 C3 1_555 1_555
H2 C4 1_555 1_555
C5 N2 1_555 1_555
H3 C5 1_555 1_555
C6 N3 1_555 1_555
H4 C6 1_555 1_555
C7 C6 1_555 1_555
H5 C7 1_555 1_555
C8 N3 1_555 1_555
H6 C8 1_555 1_555
C9 N4 1_555 1_555
H7 C9 1_555 1_555
C10 N5 1_555 1_555
H8 C10 1_555 1_555
C11 N5 1_555 1_555
H9 C11 1_555 1_555
C12 C11 1_555 1_555
H10 C12 1_555 1_555
C13 N6 1_555 1_555
H11 C13 1_555 1_555
C14 N7 1_555 1_555
H12 C14 1_555 1_555
C15 N7 1_555 1_555
H13 C15 1_555 1_555
C16 C14 1_555 1_555
H14 C16 1_555 1_555
C17 N8 1_555 1_555
H15 C17 1_555 1_555
Ag1E N2E 1_555 1_555
Ag1_2 N4 1_555 1_555
Ag1_3 N3_2 1_555 1_555
Ag2_2 N8 1_555 1_555
F9E B1 1_555 1_555
N2E C5 1_555 1_555
N3_2 C6_2 1_555 1_555
N3E Ag1E 1_555 1_555
N4_2 Ag1 1_555 1_555
N4E Ag1E 1_555 1_555
N5E Ag1E 1_555 1_555
N6E Ag2 1_555 1_555
N8_2 Ag2 1_555 1_555
C3E C4 1_555 1_555
H1E C3E 1_555 1_555
C6_2 H4_2 1_555 1_555
C7_2 C6_2 1_555 1_555
H5_2 C7_2 1_555 1_555
C8_2 N3_2 1_555 1_555
H6_2 C8_2 1_555 1_555
C9_2 N4_2 1_555 1_555
H7_2 C9_2 1_555 1_555
C10E N5E 1_555 1_555
H8E C10E 1_555 1_555
C11E N5E 1_555 1_555
H9E C11E 1_555 1_555
C12E C11E 1_555 1_555
H10E C12E 1_555 1_555
C13E N6E 1_555 1_555
H11E C13E 1_555 1_555
S2 N1 1_555 1_555
C7 C9 1_555 1_555
C12 C13 1_555 1_555
C16 C17 1_555 1_555
N2E C3E 1_555 1_555
N4_2 C8_2 1_555 1_555
N6E C10E 1_555 1_555
C7_2 C9_2 1_555 1_555
C12E C13E 1_555 1_555

#END
