
#######################################################################
#
#                 Cambridge Crystallographic Data Centre
#                                CCDC 
#
#######################################################################
#
# If this CIF has been generated from an entry in the Cambridge 
# Structural Database, then it will include bibliographic, chemical, 
# crystal, experimental, refinement or atomic coordinate data resulting 
# from the CCDC's data processing and validation procedures.
#
#######################################################################

data_WETDOO
_symmetry_cell_setting           orthorhombic
_symmetry_space_group_name_H-M   'P m c 21'
_symmetry_Int_Tables_number      26
_space_group_name_Hall           'P 2c -2'
loop_
_symmetry_equiv_pos_site_id
_symmetry_equiv_pos_as_xyz
1 x,y,z
2 -x,y,z
3 x,-y,1/2+z
4 -x,-y,1/2+z
_cell_length_a                   6.564(1)
_cell_length_b                   8.328(2)
_cell_length_c                   13.229(4)
_cell_angle_alpha                90
_cell_angle_beta                 90
_cell_angle_gamma                90
_cell_volume                     723.163
loop_
_atom_site_label
_atom_site_type_symbol
_atom_site_fract_x
_atom_site_fract_y
_atom_site_fract_z
Au1 Au 0.000 0.23867(19) 0.25000
Au2 Au 0.500 0.16820(21) 0.27724(18)
Br1 Br 0.000 -0.0475(5) 0.2403(4)
Br2 Br 0.500 0.3445(8) 0.1354(5)
S1 S 0.000 0.5095(15) 0.2540(11)
C1 C 0.208(8) 0.566(6) 0.341(5)
C2 C 0.109(13) 0.591(9) 0.445(9)
S2 S 0.500 -0.0045(17) 0.4109(9)
C3 C 0.308(8) 0.065(6) 0.495(4)
C4 C 0.392(10) 0.201(9) 0.554(7)
Au2_2 Au -0.500 0.16820(21) 0.27724(18)
Au1_2 Au 1.000 0.23867(19) 0.25000
C1A C -0.208(8) 0.566(6) 0.341(5)
C2A C -0.109(13) 0.591(9) 0.445(9)
C3A C 0.692(8) 0.065(6) 0.495(4)
C4A C 0.608(10) 0.201(9) 0.554(7)
loop_
_geom_bond_atom_site_label_1
_geom_bond_atom_site_label_2
_geom_bond_site_symmetry_1
_geom_bond_site_symmetry_2
Au1 Au2 1_555 1_555
Au2 Br2 1_555 1_555
Br1 Au1 1_555 1_555
S1 Au1 1_555 1_555
C1 S1 1_555 1_555
C2 C1 1_555 1_555
S2 Au2 1_555 1_555
C3 S2 1_555 1_555
C4 C3 1_555 1_555
Au2_2 Au1 1_555 1_555
Au1_2 Au2 1_555 1_555
C1A S1 1_555 1_555
C2A C2 1_555 1_555
C3A S2 1_555 1_555
C4A C4 1_555 1_555
C1A C2A 1_555 1_555
C3A C4A 1_555 1_555

#END
