
#######################################################################
#
#                 Cambridge Crystallographic Data Centre
#                                CCDC 
#
#######################################################################
#
# If this CIF has been generated from an entry in the Cambridge 
# Structural Database, then it will include bibliographic, chemical, 
# crystal, experimental, refinement or atomic coordinate data resulting 
# from the CCDC's data processing and validation procedures.
#
#######################################################################

data_WETKAI
_symmetry_cell_setting           monoclinic
_symmetry_space_group_name_H-M   'P 21/c'
_symmetry_Int_Tables_number      14
_space_group_name_Hall           '-P 2ybc'
loop_
_symmetry_equiv_pos_site_id
_symmetry_equiv_pos_as_xyz
1 x,y,z
2 -x,1/2+y,1/2-z
3 -x,-y,-z
4 x,1/2-y,1/2+z
_cell_length_a                   9.1236(18)
_cell_length_b                   14.398(3)
_cell_length_c                   9.844(2)
_cell_angle_alpha                90
_cell_angle_beta                 99.66(3)
_cell_angle_gamma                90
_cell_volume                     1274.79
loop_
_atom_site_label
_atom_site_type_symbol
_atom_site_fract_x
_atom_site_fract_y
_atom_site_fract_z
Cd1 Cd 0.729517(17) 0.040450(12) 0.319302(17)
O1 O 0.59234(19) 0.15038(13) 0.19391(18)
H1 H 0.5231 0.1655 0.2326
O2 O 0.54173(18) -0.06002(12) 0.26799(17)
O3 O 0.56582(17) -0.09999(12) 0.05186(17)
C1 C 0.3286(2) -0.11563(17) 0.1186(2)
H2 H 0.3213 -0.1828 0.1162
H3 H 0.2864 -0.0929 0.0277
C2 C 0.4921(2) -0.08952(16) 0.1472(2)
C3 C 0.0707(2) -0.10961(17) 0.1701(2)
H4 H 0.0480 -0.1012 0.0711
H5 H 0.0616 -0.1753 0.1889
C4 C 0.2824(2) -0.11084(17) 0.3714(2)
C5 C 0.2339(2) -0.07937(17) 0.2210(2)
C6 C 0.2220(3) 0.18153(18) 0.1825(3)
H6 H 0.1969 0.2283 0.1176
C7 C 0.2138(2) 0.08995(18) 0.1426(2)
H7 H 0.1876 0.0740 0.0502
O4 O -0.06618(18) -0.07810(13) 0.35505(18)
O5 O 0.29120(18) -0.19346(12) 0.40593(18)
C8 C 0.2842(3) 0.04231(16) 0.3782(2)
C9 C 0.3011(2) 0.13499(17) 0.4200(3)
H8 H 0.3336 0.1499 0.5120
C10 C -0.0435(3) -0.05657(17) 0.2362(3)
C11 C 0.2687(3) 0.20406(18) 0.3223(3)
H9 H 0.2778 0.2660 0.3490
O6 O -0.11449(17) 0.00759(12) 0.16533(17)
O7 O 0.9087(2) 0.15970(16) 0.4052(2)
N1 N 0.3021(2) -0.03631(13) 0.4575(2)
H10 H 0.629(4) 0.194(2) 0.172(4)
H11 H 0.858(5) 0.191(3) 0.452(5)
H12 H 0.963(4) 0.140(2) 0.446(4)
N2 N 0.2448(2) 0.02315(14) 0.2410(2)
Cd1_2 Cd -0.270483(17) 0.040450(12) 0.319302(17)
Cd1B Cd 0.270483(17) -0.040450(12) 0.680698(17)
O4_2 O 0.93382(18) -0.07810(13) 0.35505(18)
O6_2 O 0.88551(17) 0.00759(12) 0.16533(17)
N1B N 0.6979(2) 0.03631(13) 0.5425(2)
loop_
_geom_bond_atom_site_label_1
_geom_bond_atom_site_label_2
_geom_bond_site_symmetry_1
_geom_bond_site_symmetry_2
Cd1 O1 1_555 1_555
O1 H1 1_555 1_555
O2 Cd1 1_555 1_555
O3 C2 1_555 1_555
C1 H2 1_555 1_555
H3 C1 1_555 1_555
C2 O2 1_555 1_555
C3 H4 1_555 1_555
H5 C3 1_555 1_555
C4 C5 1_555 1_555
C5 C1 1_555 1_555
C6 H6 1_555 1_555
C7 C6 1_555 1_555
H7 C7 1_555 1_555
O4 C10 1_555 1_555
O5 C4 1_555 1_555
C8 C9 1_555 1_555
C9 H8 1_555 1_555
C10 C3 1_555 1_555
C11 C6 1_555 1_555
H9 C11 1_555 1_555
O6 C10 1_555 1_555
O7 Cd1 1_555 1_555
N1 C4 1_555 1_555
H10 O1 1_555 1_555
H11 O7 1_555 1_555
H12 O7 1_555 1_555
N2 C5 1_555 1_555
Cd1_2 O4 1_555 1_555
Cd1B N1 1_555 1_555
O4_2 Cd1 1_555 1_555
O6_2 Cd1 1_555 1_555
N1B Cd1 1_555 1_555
C1 C2 1_555 1_555
C3 C5 1_555 1_555
C7 N2 1_555 1_555
C8 N1 1_555 1_555
C8 N2 1_555 1_555
C9 C11 1_555 1_555
O6 Cd1_2 1_555 1_555

#END
