
#######################################################################
#
#                 Cambridge Crystallographic Data Centre
#                                CCDC 
#
#######################################################################
#
# If this CIF has been generated from an entry in the Cambridge 
# Structural Database, then it will include bibliographic, chemical, 
# crystal, experimental, refinement or atomic coordinate data resulting 
# from the CCDC's data processing and validation procedures.
#
#######################################################################

data_WETKEM
_symmetry_cell_setting           monoclinic
_symmetry_space_group_name_H-M   'P 21/n'
_symmetry_Int_Tables_number      14
_space_group_name_Hall           '-P 2yn'
loop_
_symmetry_equiv_pos_site_id
_symmetry_equiv_pos_as_xyz
1 x,y,z
2 1/2-x,1/2+y,1/2-z
3 -x,-y,-z
4 1/2+x,1/2-y,1/2+z
_cell_length_a                   11.669(2)
_cell_length_b                   8.1012(16)
_cell_length_c                   12.733(3)
_cell_angle_alpha                90
_cell_angle_beta                 94.82(3)
_cell_angle_gamma                90
_cell_volume                     1199.43
loop_
_atom_site_label
_atom_site_type_symbol
_atom_site_fract_x
_atom_site_fract_y
_atom_site_fract_z
Zn1 Zn 0.25066(3) 0.03657(4) 0.05880(2)
N1 N 0.00379(19) 0.3041(3) 0.21320(16)
C1 C 0.0861(2) 0.0475(4) 0.2202(2)
N2 N 0.14054(19) 0.1410(3) 0.15221(16)
O1 O 0.3781(2) 0.2056(3) 0.08871(19)
O2 O 0.10705(18) -0.0970(2) 0.24103(16)
C2 C -0.0097(2) 0.1449(3) 0.26652(19)
C3 C 0.1250(3) 0.4373(4) 0.1000(2)
H1 H 0.1866 0.4357 0.0582
C4 C 0.0930(2) 0.2950(3) 0.15169(19)
C5 C -0.0569(3) 0.4440(4) 0.2249(2)
H2 H -0.1173 0.4455 0.2681
C6 C 0.0643(3) 0.5785(4) 0.1117(2)
H3 H 0.0853 0.6744 0.0781
C7 C -0.0286(3) 0.5816(4) 0.1732(2)
H4 H -0.0711 0.6779 0.1786
C8 C -0.1263(2) 0.0634(4) 0.2380(2)
H5 H -0.1281 -0.0397 0.2765
H6 H -0.1853 0.1342 0.2629
C9 C 0.0068(2) 0.1610(4) 0.3871(2)
H7 H -0.0672 0.1893 0.4117
H8 H 0.0274 0.0528 0.4155
C10 C -0.1585(2) 0.0268(4) 0.1219(2)
O3 O -0.12160(19) 0.1140(3) 0.05253(15)
O4 O -0.22683(17) -0.0920(2) 0.10061(15)
O5 O 0.08541(19) 0.3261(3) 0.52763(16)
C11 C 0.0947(2) 0.2838(4) 0.4357(2)
O6 O 0.17058(17) 0.3379(2) 0.38016(14)
H9 H 0.385(3) 0.247(5) 0.139(3)
H10 H 0.453(4) 0.192(5) 0.067(3)
Zn1B Zn -0.25066(3) -0.03657(4) -0.05880(2)
Zn1A Zn 0.24934(3) 0.53657(4) 0.44120(2)
O3B O 0.12160(19) -0.1140(3) -0.05253(15)
O4B O 0.22683(17) 0.0920(2) -0.10061(15)
O6A O 0.32942(17) -0.1621(2) 0.11984(14)
loop_
_geom_bond_atom_site_label_1
_geom_bond_atom_site_label_2
_geom_bond_site_symmetry_1
_geom_bond_site_symmetry_2
Zn1 N2 1_555 1_555
N1 C2 1_555 1_555
C1 N2 1_555 1_555
N2 C4 1_555 1_555
O1 Zn1 1_555 1_555
O2 C1 1_555 1_555
C2 C1 1_555 1_555
C3 H1 1_555 1_555
C4 N1 1_555 1_555
C5 N1 1_555 1_555
H2 C5 1_555 1_555
C6 C3 1_555 1_555
H3 C6 1_555 1_555
C7 C5 1_555 1_555
H4 C7 1_555 1_555
C8 C2 1_555 1_555
H5 C8 1_555 1_555
H6 C8 1_555 1_555
C9 C2 1_555 1_555
H7 C9 1_555 1_555
H8 C9 1_555 1_555
C10 C8 1_555 1_555
O3 C10 1_555 1_555
O4 C10 1_555 1_555
O5 C11 1_555 1_555
C11 C9 1_555 1_555
O6 C11 1_555 1_555
H9 O1 1_555 1_555
H10 O1 1_555 1_555
Zn1B O3 1_555 1_555
Zn1A O6 1_555 1_555
O3B Zn1 1_555 1_555
O4B Zn1 1_555 1_555
O6A Zn1 1_555 1_555
C3 C4 1_555 1_555
C6 C7 1_555 1_555
O4 Zn1B 1_555 1_555

#END
