
#######################################################################
#
#                 Cambridge Crystallographic Data Centre
#                                CCDC 
#
#######################################################################
#
# If this CIF has been generated from an entry in the Cambridge 
# Structural Database, then it will include bibliographic, chemical, 
# crystal, experimental, refinement or atomic coordinate data resulting 
# from the CCDC's data processing and validation procedures.
#
#######################################################################

data_WETQOB
_symmetry_cell_setting           tetragonal
_symmetry_space_group_name_H-M   'P 43 21 2'
_symmetry_Int_Tables_number      96
_space_group_name_Hall           'P 4nw 2abw'
loop_
_symmetry_equiv_pos_site_id
_symmetry_equiv_pos_as_xyz
1 x,y,z
2 -x,-y,1/2+z
3 1/2-y,1/2+x,3/4+z
4 1/2+y,1/2-x,1/4+z
5 1/2-x,1/2+y,3/4-z
6 1/2+x,1/2-y,1/4-z
7 y,x,-z
8 -y,-x,1/2-z
_cell_length_a                   9.915(1)
_cell_length_b                   9.915(1)
_cell_length_c                   14.715(2)
_cell_angle_alpha                90
_cell_angle_beta                 90
_cell_angle_gamma                90
_cell_volume                     1446.59
loop_
_atom_site_label
_atom_site_type_symbol
_atom_site_fract_x
_atom_site_fract_y
_atom_site_fract_z
Cu1 Cu 0.24239(2) 0.75761(2) 0.2500
O1 O 0.26312(14) 0.8013(2) 0.12049(9)
N1 N 0.3803(2) 0.8516(2) 0.09214(11)
N2 N 0.4808(2) 0.7711(2) 0.06798(10)
N3 N 0.5819(2) 0.8490(2) 0.03989(10)
C1 C 0.6101(2) 1.1024(2) 0.02422(14)
C2 C 0.5398(3) 1.2194(2) 0.0390(2)
C3 C 0.4074(3) 1.2205(2) 0.0757(2)
C4 C 0.3410(2) 1.1031(2) 0.09624(15)
C5 C 0.5435(2) 0.9811(2) 0.04607(11)
C6 C 0.4123(2) 0.9841(2) 0.07991(12)
O2 O 0.4060(4) 0.5958(4) 0.2833(2)
C7 C 0.4907(4) 0.5093(4) 0.2500
H1 H 0.6878(36) 1.1008(32) 0.0012(23)
H2 H 0.5786(27) 1.3011(31) 0.0281(17)
H3 H 0.3688(26) 1.3052(27) 0.0881(15)
H4 H 0.2560(28) 1.0993(28) 0.1146(19)
H5 H 0.5668(63) 0.5290(62) 0.2599(47)
O2G O 0.4042(4) 0.5940(4) 0.2167(2)
H5G H 0.4710(62) 0.4332(63) 0.2401(47)
O1G O 0.1987(2) 0.73688(14) 0.37951(9)
N1G N 0.1484(2) 0.6197(2) 0.40786(11)
N2G N 0.2289(2) 0.5192(2) 0.43202(10)
N3G N 0.1510(2) 0.4181(2) 0.46011(10)
C1G C -0.1024(2) 0.3899(2) 0.47578(14)
C2G C -0.2194(2) 0.4602(3) 0.4610(2)
C3G C -0.2205(2) 0.5926(3) 0.4243(2)
C4G C -0.1031(2) 0.6590(2) 0.40376(15)
C5G C 0.0189(2) 0.4565(2) 0.45393(11)
C6G C 0.0159(2) 0.5877(2) 0.42009(12)
H1G H -0.1008(32) 0.3122(36) 0.4988(23)
H2G H -0.3011(31) 0.4214(27) 0.4719(17)
H3G H -0.3052(27) 0.6312(26) 0.4119(15)
H4G H -0.0993(28) 0.7440(28) 0.3854(19)
O1C O 0.3013(2) 1.23688(14) 0.37049(9)
N1C N 0.3516(2) 1.1197(2) 0.34214(11)
N2C N 0.2711(2) 1.0192(2) 0.31798(10)
N3C N 0.3490(2) 0.9181(2) 0.28989(10)
C1C C 0.6024(2) 0.8899(2) 0.27422(14)
C2C C 0.7194(2) 0.9602(3) 0.2890(2)
C3C C 0.7205(2) 1.0926(3) 0.3257(2)
C4C C 0.6031(2) 1.1590(2) 0.34624(15)
C5C C 0.4811(2) 0.9565(2) 0.29607(11)
C6C C 0.4841(2) 1.0877(2) 0.32991(12)
H1C H 0.6008(32) 0.8122(36) 0.2512(23)
H2C H 0.8011(31) 0.9214(27) 0.2781(17)
H3C H 0.8052(27) 1.1312(26) 0.3381(15)
H4C H 0.5993(28) 1.2440(28) 0.3646(19)
O1E O -0.23688(14) 0.6987(2) 0.12951(9)
N1E N -0.1197(2) 0.6484(2) 0.15786(11)
N2E N -0.0192(2) 0.7289(2) 0.18202(10)
N3E N 0.0819(2) 0.6510(2) 0.21011(10)
C1E C 0.1101(2) 0.3976(2) 0.22578(14)
C2E C 0.0398(3) 0.2806(2) 0.2110(2)
C3E C -0.0926(3) 0.2795(2) 0.1743(2)
C4E C -0.1590(2) 0.3969(2) 0.15376(15)
C5E C 0.0435(2) 0.5189(2) 0.20393(11)
C6E C -0.0877(2) 0.5159(2) 0.17009(12)
H1E H 0.1878(36) 0.3992(32) 0.2488(23)
H2E H 0.0786(27) 0.1989(31) 0.2219(17)
H3E H -0.1312(26) 0.1948(27) 0.1619(15)
H4E H -0.2440(28) 0.4007(28) 0.1354(19)
Cu1C Cu 0.25761(2) 1.25761(2) 0.5000
Cu1E Cu -0.25761(2) 0.74239(2) 0.0000
Cu1B Cu 0.74239(2) 0.74239(2) 0.0000
Cu1D Cu 0.25761(2) 0.25761(2) 0.5000
O1D O 0.23688(14) 1.3013(2) 0.62951(9)
N3A N 0.4181(2) 1.1510(2) 0.53989(10)
N3G_2 N 0.1510(2) 1.4181(2) 0.46011(10)
O2C O 0.0958(4) 1.0940(4) 0.5333(2)
O2D O 0.0940(4) 1.0958(4) 0.4667(2)
O1B O -0.3013(2) 0.76312(14) -0.12951(9)
N3_2 N -0.4181(2) 0.8490(2) 0.03989(10)
N3F N -0.1510(2) 0.5819(2) -0.03989(10)
O2B O -0.0958(4) 0.9060(4) 0.0333(2)
O2E O -0.0940(4) 0.9042(4) -0.0333(2)
O1B_2 O 0.6987(2) 0.76312(14) -0.12951(9)
O1E_2 O 0.76312(14) 0.6987(2) 0.12951(9)
N3F_2 N 0.8490(2) 0.5819(2) -0.03989(10)
O2B_2 O 0.9042(4) 0.9060(4) 0.0333(2)
O2E_2 O 0.9060(4) 0.9042(4) -0.0333(2)
O1C_2 O 0.3013(2) 0.23688(14) 0.37049(9)
O1D_2 O 0.23688(14) 0.3013(2) 0.62951(9)
N3A_2 N 0.4181(2) 0.1510(2) 0.53989(10)
O2C_2 O 0.0958(4) 0.0940(4) 0.5333(2)
O2D_2 O 0.0940(4) 0.0958(4) 0.4667(2)
N1D N 0.1197(2) 1.3516(2) 0.65786(11)
N2A N 0.5192(2) 1.2289(2) 0.56798(10)
C5A C 0.4565(2) 1.0189(2) 0.54607(11)
N2G_2 N 0.2289(2) 1.5192(2) 0.43202(10)
C5G_2 C 0.0189(2) 1.4565(2) 0.45393(11)
C7C C 0.0093(4) 1.0093(4) 0.5000
N1B N -0.3516(2) 0.8803(2) -0.15786(11)
N2_2 N -0.5192(2) 0.7711(2) 0.06798(10)
C5_2 C -0.4565(2) 0.9811(2) 0.04607(11)
N2F N -0.2289(2) 0.4808(2) -0.06798(10)
C5F C -0.0189(2) 0.5435(2) -0.04607(11)
C7B C -0.0093(4) 0.9907(4) 0.0000
N1B_2 N 0.6484(2) 0.8803(2) -0.15786(11)
N1E_2 N 0.8803(2) 0.6484(2) 0.15786(11)
N2F_2 N 0.7711(2) 0.4808(2) -0.06798(10)
C5F_2 C 0.9811(2) 0.5435(2) -0.04607(11)
C7B_2 C 0.9907(4) 0.9907(4) 0.0000
N1C_2 N 0.3516(2) 0.1197(2) 0.34214(11)
N1D_2 N 0.1197(2) 0.3516(2) 0.65786(11)
N2A_2 N 0.5192(2) 0.2289(2) 0.56798(10)
C5A_2 C 0.4565(2) 0.0189(2) 0.54607(11)
C7C_2 C 0.0093(4) 0.0093(4) 0.5000
loop_
_geom_bond_atom_site_label_1
_geom_bond_atom_site_label_2
_geom_bond_site_symmetry_1
_geom_bond_site_symmetry_2
Cu1 O1 1_555 1_555
O1 N1 1_555 1_555
N1 N2 1_555 1_555
N2 N3 1_555 1_555
N3 C5 1_555 1_555
C1 C2 1_555 1_555
C2 C3 1_555 1_555
C3 C4 1_555 1_555
C4 C6 1_555 1_555
C5 C1 1_555 1_555
C6 N1 1_555 1_555
O2 Cu1 1_555 1_555
C7 O2 1_555 1_555
H1 C1 1_555 1_555
H2 C2 1_555 1_555
H3 C3 1_555 1_555
H4 C4 1_555 1_555
H5 C7 1_555 1_555
O2G Cu1 1_555 1_555
H5G C7 1_555 1_555
O1G Cu1 1_555 1_555
N1G O1G 1_555 1_555
N2G N1G 1_555 1_555
N3G N2G 1_555 1_555
C1G C2G 1_555 1_555
C2G C3G 1_555 1_555
C3G C4G 1_555 1_555
C4G C6G 1_555 1_555
C5G N3G 1_555 1_555
C6G N1G 1_555 1_555
H1G C1G 1_555 1_555
H2G C2G 1_555 1_555
H3G C3G 1_555 1_555
H4G C4G 1_555 1_555
O1C N1C 1_555 1_555
N1C N2C 1_555 1_555
N2C N3C 1_555 1_555
N3C Cu1 1_555 1_555
C1C C2C 1_555 1_555
C2C C3C 1_555 1_555
C3C C4C 1_555 1_555
C4C C6C 1_555 1_555
C5C N3C 1_555 1_555
C6C N1C 1_555 1_555
H1C C1C 1_555 1_555
H2C C2C 1_555 1_555
H3C C3C 1_555 1_555
H4C C4C 1_555 1_555
O1E N1E 1_555 1_555
N1E N2E 1_555 1_555
N2E N3E 1_555 1_555
N3E Cu1 1_555 1_555
C1E C2E 1_555 1_555
C2E C3E 1_555 1_555
C3E C4E 1_555 1_555
C4E C6E 1_555 1_555
C5E N3E 1_555 1_555
C6E N1E 1_555 1_555
H1E C1E 1_555 1_555
H2E C2E 1_555 1_555
H3E C3E 1_555 1_555
H4E C4E 1_555 1_555
Cu1C O1C 1_555 1_555
Cu1E O1E 1_555 1_555
Cu1B N3 1_555 1_555
Cu1D N3G 1_555 1_555
O1D Cu1C 1_555 1_555
N3A Cu1C 1_555 1_555
N3G_2 Cu1C 1_555 1_555
O2C Cu1C 1_555 1_555
O2D Cu1C 1_555 1_555
O1B Cu1E 1_555 1_555
N3_2 Cu1E 1_555 1_555
N3F Cu1E 1_555 1_555
O2B Cu1E 1_555 1_555
O2E Cu1E 1_555 1_555
O1B_2 Cu1B 1_555 1_555
O1E_2 Cu1B 1_555 1_555
N3F_2 Cu1B 1_555 1_555
O2B_2 Cu1B 1_555 1_555
O2E_2 Cu1B 1_555 1_555
O1C_2 Cu1D 1_555 1_555
O1D_2 Cu1D 1_555 1_555
N3A_2 Cu1D 1_555 1_555
O2C_2 Cu1D 1_555 1_555
O2D_2 Cu1D 1_555 1_555
N1D O1D 1_555 1_555
N2A N3A 1_555 1_555
C5A N3A 1_555 1_555
N2G_2 N3G_2 1_555 1_555
C5G_2 N3G_2 1_555 1_555
C7C O2C 1_555 1_555
N1B O1B 1_555 1_555
N2_2 N3_2 1_555 1_555
C5_2 N3_2 1_555 1_555
N2F N3F 1_555 1_555
C5F N3F 1_555 1_555
C7B O2B 1_555 1_555
N1B_2 O1B_2 1_555 1_555
N1E_2 O1E_2 1_555 1_555
N2F_2 N3F_2 1_555 1_555
C5F_2 N3F_2 1_555 1_555
C7B_2 O2B_2 1_555 1_555
N1C_2 O1C_2 1_555 1_555
N1D_2 O1D_2 1_555 1_555
N2A_2 N3A_2 1_555 1_555
C5A_2 N3A_2 1_555 1_555
C7C_2 O2C_2 1_555 1_555
C5 C6 1_555 1_555
O2 O2G 1_555 1_555
C7 O2G 1_555 1_555
C1G C5G 1_555 1_555
C5G C6G 1_555 1_555
C1C C5C 1_555 1_555
C5C C6C 1_555 1_555
C1E C5E 1_555 1_555
C5E C6E 1_555 1_555
O2C O2D 1_555 1_555
O2D C7C 1_555 1_555
O2B O2E 1_555 1_555
O2E C7B 1_555 1_555
O2B_2 O2E_2 1_555 1_555
O2E_2 C7B_2 1_555 1_555
O2C_2 O2D_2 1_555 1_555
O2D_2 C7C_2 1_555 1_555

#END
