
#######################################################################
#
#                 Cambridge Crystallographic Data Centre
#                                CCDC 
#
#######################################################################
#
# If this CIF has been generated from an entry in the Cambridge 
# Structural Database, then it will include bibliographic, chemical, 
# crystal, experimental, refinement or atomic coordinate data resulting 
# from the CCDC's data processing and validation procedures.
#
#######################################################################

data_WETSUK
_symmetry_cell_setting           monoclinic
_symmetry_space_group_name_H-M   'C 2/c'
_symmetry_Int_Tables_number      15
_space_group_name_Hall           '-C 2yn'
loop_
_symmetry_equiv_pos_site_id
_symmetry_equiv_pos_as_xyz
1 x,y,z
2 1/2+x,1/2+y,z
3 -x,y,1/2-z
4 1/2-x,1/2+y,1/2-z
5 -x,-y,-z
6 1/2-x,1/2-y,-z
7 x,-y,1/2+z
8 1/2+x,1/2-y,1/2+z
_cell_length_a                   18.737(3)
_cell_length_b                   9.8618(16)
_cell_length_c                   24.615(4)
_cell_angle_alpha                90
_cell_angle_beta                 99.925(2)
_cell_angle_gamma                90
_cell_volume                     4480.3
loop_
_atom_site_label
_atom_site_type_symbol
_atom_site_fract_x
_atom_site_fract_y
_atom_site_fract_z
Au1 Au 1.16752(2) 0.71523(4) 0.615460(18)
Au2 Au 1.04050(2) 0.88756(4) 0.546527(18)
Mn1 Mn 1.41930(7) 0.95619(14) 0.61018(6)
O1 O 1.4516(4) 0.8244(10) 0.6808(4)
N1 N 1.3802(5) 1.1172(8) 0.5480(3)
N2 N 1.4013(4) 1.1460(9) 0.6584(4)
N3 N 1.3058(5) 0.8843(9) 0.6086(4)
N4 N 1.0341(5) 0.5311(9) 0.6214(4)
N5 N 1.0317(7) 1.0627(13) 0.6514(5)
N6 N 1.0603(5) 0.6900(9) 0.4508(4)
C1 C 1.4138(6) 1.1616(14) 0.7132(5)
H1 H 1.4281 1.0859 0.7349
C2 C 1.4067(8) 1.2825(18) 0.7395(7)
H2 H 1.4167 1.2884 0.7778
C3 C 1.3849(8) 1.3925(17) 0.7084(9)
H3 H 1.3806 1.4753 0.7257
C4 C 1.3681(7) 1.3850(12) 0.6493(7)
C5 C 1.3437(8) 1.4954(14) 0.6126(10)
H4 H 1.3367 1.5802 0.6274
C6 C 1.3312(8) 1.4800(13) 0.5594(9)
H5 H 1.3142 1.5534 0.5372
C7 C 1.3430(6) 1.3517(12) 0.5338(7)
C8 C 1.3320(8) 1.3347(17) 0.4791(9)
H6 H 1.3151 1.4062 0.4557
C9 C 1.3460(8) 1.2093(18) 0.4575(6)
H7 H 1.3390 1.1961 0.4196
C10 C 1.3711(7) 1.1014(13) 0.4940(4)
H8 H 1.3814 1.0179 0.4796
C11 C 1.3670(5) 1.2403(10) 0.5680(5)
C12 C 1.3786(5) 1.2562(10) 0.6262(5)
C13 C 1.2537(6) 0.8252(11) 0.6119(4)
C14 C 1.0836(6) 0.5956(10) 0.6202(4)
C15 C 1.0341(6) 1.0006(12) 0.6119(6)
C16 C 1.0515(6) 0.7660(10) 0.4848(6)
Au2D Au 0.95950(2) 1.11244(4) 0.453473(18)
Mn1A Mn 0.91930(7) 0.45619(14) 0.61018(6)
Mn1E Mn 1.08070(7) 0.54381(14) 0.38982(6)
N4A N 1.5341(5) 1.0311(9) 0.6214(4)
N6E N 1.4397(5) 0.8100(9) 0.5492(4)
O2 O 0.8904(6) 0.2145(9) 0.7628(4)
H9 H 0.9146 0.2783 0.7546
C17 C 0.8057(9) 0.3882(12) 0.7677(8)
H10 H 0.8419 0.4437 0.7555
H11 H 0.7861 0.4349 0.7960
H12 H 0.7676 0.3698 0.7372
C18 C 0.8381(8) 0.2613(12) 0.7894(8)
H13 H 0.8656 0.2886 0.8253
C19 C 0.7902(8) 0.1561(13) 0.8045(8)
H14 H 0.7636 0.1158 0.7716
H15 H 0.7569 0.1956 0.8256
H16 H 0.8185 0.0877 0.8261
loop_
_geom_bond_atom_site_label_1
_geom_bond_atom_site_label_2
_geom_bond_site_symmetry_1
_geom_bond_site_symmetry_2
Au1 Au2 1_555 1_555
Au2 C15 1_555 1_555
Mn1 O1 1_555 1_555
N1 Mn1 1_555 1_555
N2 Mn1 1_555 1_555
N3 Mn1 1_555 1_555
N4 C14 1_555 1_555
N5 C15 1_555 1_555
N6 C16 1_555 1_555
C1 N2 1_555 1_555
H1 C1 1_555 1_555
C2 C1 1_555 1_555
H2 C2 1_555 1_555
C3 C2 1_555 1_555
H3 C3 1_555 1_555
C4 C3 1_555 1_555
C5 C4 1_555 1_555
H4 C5 1_555 1_555
C6 C5 1_555 1_555
H5 C6 1_555 1_555
C7 C6 1_555 1_555
C8 C7 1_555 1_555
H6 C8 1_555 1_555
C9 C8 1_555 1_555
H7 C9 1_555 1_555
C10 N1 1_555 1_555
H8 C10 1_555 1_555
C11 N1 1_555 1_555
C12 N2 1_555 1_555
C13 Au1 1_555 1_555
C14 Au1 1_555 1_555
C16 Au2 1_555 1_555
O2 H9 1_555 1_555
C17 H10 1_555 1_555
H11 C17 1_555 1_555
H12 C17 1_555 1_555
C18 O2 1_555 1_555
H13 C18 1_555 1_555
C19 C18 1_555 1_555
H14 C19 1_555 1_555
H15 C19 1_555 1_555
H16 C19 1_555 1_555
Au2D Au2 1_555 1_555
Mn1A N4 1_555 1_555
Mn1E N6 1_555 1_555
N4A Mn1 1_555 1_555
N6E Mn1 1_555 1_555
N3 C13 1_555 1_555
C4 C12 1_555 1_555
C7 C11 1_555 1_555
C9 C10 1_555 1_555
C11 C12 1_555 1_555
C17 C18 1_555 1_555

#END
