
#######################################################################
#
#                 Cambridge Crystallographic Data Centre
#                                CCDC 
#
#######################################################################
#
# If this CIF has been generated from an entry in the Cambridge 
# Structural Database, then it will include bibliographic, chemical, 
# crystal, experimental, refinement or atomic coordinate data resulting 
# from the CCDC's data processing and validation procedures.
#
#######################################################################

data_WETTOE
_symmetry_cell_setting           monoclinic
_symmetry_space_group_name_H-M   'P 21/c'
_symmetry_Int_Tables_number      14
_space_group_name_Hall           '-P 2ybc'
loop_
_symmetry_equiv_pos_site_id
_symmetry_equiv_pos_as_xyz
1 x,y,z
2 x,1/2-y,1/2+z
3 -x,-y,-z
4 -x,1/2+y,1/2-z
_cell_length_a                   10.5216(6)
_cell_length_b                   16.7671(9)
_cell_length_c                   28.7044(16)
_cell_angle_alpha                90
_cell_angle_beta                 89.9880(10)
_cell_angle_gamma                90
_cell_volume                     5063.94
loop_
_atom_site_label
_atom_site_type_symbol
_atom_site_fract_x
_atom_site_fract_y
_atom_site_fract_z
Zn1 Zn 0.08748(5) 0.72035(3) 0.18407(2)
Zn2 Zn 0.08109(6) 0.76992(3) 0.06501(2)
O1 O 0.1320(3) 0.77699(18) 0.12874(12)
H1 H 0.194(3) 0.808(2) 0.1385(18)
N1 N -0.0411(4) 0.6305(2) 0.17901(14)
C1 C -0.1619(4) 0.6464(3) 0.16654(17)
H2 H -0.1822 0.6993 0.1573
C2 C -0.2573(4) 0.5906(3) 0.16632(17)
H3 H -0.3409 0.6050 0.1570
C3 C -0.2300(4) 0.5117(3) 0.18018(18)
C4 C -0.1064(5) 0.4959(3) 0.19268(18)
H4 H -0.0834 0.4435 0.2021
C5 C -0.0150(5) 0.5552(3) 0.19177(18)
H5 H 0.0695 0.5422 0.2005
C6 C -0.3340(4) 0.4509(3) 0.1830(2)
H6 H -0.2991 0.4009 0.1961
H7 H -0.3649 0.4392 0.1511
C7 C -0.4445(5) 0.4778(3) 0.21249(19)
H8 H -0.4785 0.5280 0.1992
H9 H -0.4127 0.4899 0.2442
C8 C -0.5536(4) 0.4177(3) 0.21657(19)
H10 H -0.5756 0.3973 0.1852
H11 H -0.5261 0.3720 0.2359
C9 C -0.6682(5) 0.4556(3) 0.2381(2)
H12 H -0.6408 0.4831 0.2669
H13 H -0.6996 0.4971 0.2164
C10 C -0.7774(5) 0.4024(3) 0.25014(17)
C11 C -0.7839(5) 0.3225(3) 0.23573(17)
H14 H -0.7211 0.3017 0.2153
C12 C -0.8809(5) 0.2744(3) 0.25116(17)
H15 H -0.8826 0.2203 0.2414
C13 C -0.9720(5) 0.3788(3) 0.29153(18)
H16 H -1.0382 0.3992 0.3106
C14 C -0.8779(5) 0.4291(3) 0.27694(17)
H17 H -0.8816 0.4838 0.2854
N2 N -0.9734(4) 0.3007(2) 0.27948(14)
N3 N 0.2262(4) 0.6943(2) 0.23023(14)
C15 C 0.1968(5) 0.6664(3) 0.27311(17)
H18 H 0.1097 0.6629 0.2816
C16 C 0.2865(5) 0.6428(3) 0.30494(18)
H19 H 0.2607 0.6229 0.3344
C17 C 0.4154(5) 0.6479(2) 0.29421(17)
C18 C 0.4459(4) 0.6794(3) 0.25078(17)
H20 H 0.5324 0.6863 0.2422
C19 C 0.3504(5) 0.7004(3) 0.22013(18)
H21 H 0.3739 0.7203 0.1904
C20 C 0.5161(5) 0.6187(3) 0.32736(18)
H22 H 0.6004 0.6308 0.3138
H23 H 0.5089 0.5600 0.3298
C21 C 0.5107(5) 0.6541(3) 0.37684(18)
H24 H 0.4290 0.6394 0.3916
H25 H 0.5802 0.6312 0.3958
C22 C 0.5234(5) 0.7447(3) 0.3761(2)
H26 H 0.5988 0.7593 0.3573
H27 H 0.4476 0.7678 0.3607
C23 C 0.5368(5) 0.7813(3) 0.42488(19)
H28 H 0.5493 0.8395 0.4215
H29 H 0.6143 0.7593 0.4396
C24 C 0.4266(5) 0.7674(3) 0.45700(17)
C25 C 0.3007(5) 0.7826(3) 0.4444(2)
H30 H 0.2825 0.8006 0.4138
C26 C 0.2037(5) 0.7720(3) 0.47514(19)
H31 H 0.1192 0.7822 0.4652
C27 C 0.3454(5) 0.7319(3) 0.53248(18)
H32 H 0.3617 0.7146 0.5634
C28 C 0.4462(5) 0.7403(3) 0.50223(18)
H33 H 0.5297 0.7276 0.5124
N4 N 0.2239(4) 0.7473(2) 0.51975(15)
N5 N -0.0541(3) 0.6853(2) 0.05584(13)
C29 C -0.2747(5) 0.6498(3) 0.05241(17)
H34 H -0.3608 0.6666 0.0539
C30 C -0.1791(5) 0.7047(3) 0.05682(18)
H35 H -0.2015 0.7592 0.0608
C31 C -0.2466(4) 0.5699(3) 0.04578(17)
C32 C -0.1196(5) 0.5503(3) 0.04537(18)
H36 H -0.0954 0.4961 0.0412
C33 C -0.0264(5) 0.6077(3) 0.05083(19)
H37 H 0.0601 0.5917 0.0510
C34 C -0.3502(4) 0.5086(3) 0.03982(18)
H38 H -0.3922 0.4998 0.0703
H39 H -0.3113 0.4574 0.0301
C35 C -0.4508(4) 0.5325(3) 0.00401(17)
H40 H -0.4943 0.5815 0.0148
H41 H -0.4084 0.5450 -0.0259
C36 C -0.4399(5) 0.9767(3) 0.0062(2)
H42 H -0.4480 0.9563 0.0384
H43 H -0.4330 0.9301 -0.0149
C37 C -0.3192(5) 1.0255(4) 0.0025(2)
H44 H -0.3090 1.0449 -0.0298
H45 H -0.3254 1.0725 0.0233
C38 C -0.2041(5) 0.9764(3) 0.0160(2)
C39 C -0.1547(5) 0.9770(3) 0.0602(2)
H46 H -0.1843 1.0149 0.0823
C40 C -0.0623(5) 0.9230(3) 0.07263(19)
H47 H -0.0311 0.9239 0.1037
C41 C -0.1516(6) 0.9240(4) -0.0155(2)
H48 H -0.1801 0.9236 -0.0469
C42 C -0.0571(6) 0.8719(4) -0.0013(2)
H49 H -0.0211 0.8368 -0.0237
N6 N -0.0140(4) 0.8689(3) 0.04278(14)
C35B C -0.5492(4) 0.4675(3) -0.00401(17)
C34B C -0.6498(4) 0.4914(3) -0.03982(18)
C31B C -0.7534(4) 0.4301(3) -0.04578(17)
C29B C -0.7253(5) 0.3502(3) -0.05241(17)
H34B H -0.6392 0.3334 -0.0539
C30B C -0.8209(5) 0.2953(3) -0.05682(18)
N5B N -0.9459(3) 0.3147(2) -0.05584(13)
C33B C -0.9736(5) 0.3923(3) -0.05083(19)
C32B C -0.8804(5) 0.4497(3) -0.04537(18)
H36B H -0.9046 0.5039 -0.0412
H37B H -1.0601 0.4083 -0.0510
H35B H -0.7985 0.2408 -0.0608
H38B H -0.6078 0.5002 -0.0703
H39B H -0.6887 0.5426 -0.0301
H40B H -0.5057 0.4185 -0.0148
H41B H -0.5916 0.4550 0.0259
C36B C -0.5601(5) 1.0233(3) -0.0062(2)
H42B H -0.5520 1.0437 -0.0384
H43B H -0.5670 1.0699 0.0149
C37B C -0.6808(5) 0.9745(4) -0.0025(2)
H44B H -0.6910 0.9551 0.0298
H45B H -0.6746 0.9275 -0.0233
C38B C -0.7959(5) 1.0236(3) -0.0160(2)
C39B C -0.8453(5) 1.0230(3) -0.0602(2)
H46B H -0.8157 0.9851 -0.0823
C40B C -0.9377(5) 1.0770(3) -0.07263(19)
H47B H -0.9689 1.0761 -0.1037
N6B N -0.9860(4) 1.1311(3) -0.04278(14)
C42B C -0.9429(6) 1.1281(4) 0.0013(2)
C41B C -0.8484(6) 1.0760(4) 0.0155(2)
H48B H -0.8199 1.0764 0.0469
H49B H -0.9789 1.1632 0.0237
N1C N -0.9589(4) 1.1305(2) 0.32099(14)
C1C C -0.8381(4) 1.1464(3) 0.33346(17)
H2C H -0.8178 1.1993 0.3427
C2C C -0.7427(4) 1.0906(3) 0.33368(17)
H3C H -0.6591 1.1050 0.3430
C3C C -0.7700(4) 1.0117(3) 0.31982(18)
C4C C -0.8936(5) 0.9959(3) 0.30732(18)
H4C H -0.9166 0.9435 0.2979
C5C C -0.9850(5) 1.0552(3) 0.30823(18)
H5C H -1.0695 1.0422 0.2995
C6C C -0.6660(4) 0.9509(3) 0.3170(2)
H6C H -0.7009 0.9009 0.3039
H7C H -0.6351 0.9392 0.3489
C7C C -0.5555(5) 0.9778(3) 0.28751(19)
H8C H -0.5215 1.0280 0.3008
H9C H -0.5873 0.9899 0.2558
C8C C -0.4464(4) 0.9177(3) 0.28343(19)
H10C H -0.4244 0.8973 0.3148
H11C H -0.4739 0.8720 0.2641
C9C C -0.3318(5) 0.9556(3) 0.2619(2)
H12C H -0.3592 0.9831 0.2331
H13C H -0.3004 0.9971 0.2836
C10C C -0.2226(5) 0.9024(3) 0.24986(17)
C11C C -0.2161(5) 0.8225(3) 0.26427(17)
H14C H -0.2789 0.8017 0.2847
C12C C -0.1191(5) 0.7744(3) 0.24884(17)
H15C H -0.1174 0.7203 0.2586
C13C C -0.0280(5) 0.8788(3) 0.20847(18)
H16C H 0.0382 0.8992 0.1894
C14C C -0.1221(5) 0.9291(3) 0.22306(17)
H17C H -0.1184 0.9838 0.2146
N2C N -0.0266(4) 0.8007(2) 0.22052(14)
Zn1C Zn -1.08748(5) 1.22035(3) 0.31593(2)
Zn1C_2 Zn -1.08748(5) 0.22035(3) 0.31593(2)
Zn2A Zn 0.08109(6) 0.73008(3) 0.56501(2)
N3A N 0.2262(4) 0.8057(2) -0.26977(14)
C15A C 0.1968(5) 0.8336(3) -0.22689(17)
H18A H 0.1097 0.8371 -0.2184
C16A C 0.2865(5) 0.8572(3) -0.19506(18)
H19A H 0.2607 0.8771 -0.1656
C17A C 0.4154(5) 0.8521(2) -0.20579(17)
C18A C 0.4459(4) 0.8206(3) -0.24922(17)
H20A H 0.5324 0.8137 -0.2578
C19A C 0.3504(5) 0.7996(3) -0.27987(18)
H21A H 0.3739 0.7797 -0.3096
C20A C 0.5161(5) 0.8813(3) -0.17264(18)
H22A H 0.6004 0.8692 -0.1862
H23A H 0.5089 0.9400 -0.1702
C21A C 0.5107(5) 0.8459(3) -0.12316(18)
H24A H 0.4290 0.8606 -0.1084
H25A H 0.5802 0.8688 -0.1042
C22A C 0.5234(5) 0.7553(3) -0.1239(2)
H26A H 0.5988 0.7407 -0.1427
H27A H 0.4476 0.7322 -0.1393
C23A C 0.5368(5) 0.7187(3) -0.07512(19)
H28A H 0.5493 0.6605 -0.0785
H29A H 0.6143 0.7407 -0.0604
C24A C 0.4266(5) 0.7326(3) -0.04300(17)
C25A C 0.3007(5) 0.7174(3) -0.0556(2)
H30A H 0.2825 0.6994 -0.0862
C26A C 0.2037(5) 0.7280(3) -0.02486(19)
H31A H 0.1192 0.7178 -0.0348
C27A C 0.3454(5) 0.7681(3) 0.03248(18)
H32A H 0.3617 0.7854 0.0634
C28A C 0.4462(5) 0.7597(3) 0.00223(18)
H33A H 0.5297 0.7724 0.0124
N4A N 0.2239(4) 0.7527(2) 0.01975(15)
Zn1A Zn 0.08748(5) 0.77965(3) -0.31593(2)
Zn2B Zn -1.08109(6) 0.23008(3) -0.06501(2)
Zn2B_2 Zn -1.08109(6) 1.23008(3) -0.06501(2)
O1B O -1.1320(3) 0.22301(18) -0.12874(12)
H1B H -1.194(3) 0.192(2) -0.1385(18)
N4C N -1.2239(4) 0.2473(2) -0.01975(15)
N6B_2 N -0.9860(4) 0.1311(3) -0.04278(14)
Zn1B Zn -1.08748(5) 0.27965(3) -0.18407(2)
N1B N -0.9589(4) 0.3695(2) -0.17901(14)
N2A N -0.9734(4) 0.1993(2) -0.22052(14)
N3B N -1.2262(4) 0.3057(2) -0.23023(14)
Cl1 Cl 0.11137(14) 0.09648(8) 0.15463(5)
O2 O 0.1148(6) 0.0839(3) 0.20383(14)
O3 O 0.1655(4) 0.1716(3) 0.14481(17)
O4 O 0.1848(4) 0.0367(3) 0.13157(15)
O5 O -0.0149(4) 0.0940(4) 0.1384(2)
Cl2 Cl 0.37697(13) 0.35308(9) 0.36466(5)
O6 O 0.2466(3) 0.3325(2) 0.35935(14)
O7 O 0.4209(4) 0.3282(2) 0.40939(14)
O8 O 0.4493(5) 0.3199(4) 0.32812(19)
O9 O 0.3849(6) 0.4390(3) 0.36114(18)
Cl3 Cl -0.67122(12) 0.57526(8) 0.10810(5)
O10 O -0.7212(3) 0.5832(2) 0.06137(14)
O11 O -0.7696(4) 0.5925(2) 0.14159(14)
O12 O -0.6252(4) 0.4961(2) 0.11466(14)
O13 O -0.5677(3) 0.6299(2) 0.11419(15)
O14 O 0.2909(5) 0.8913(3) 0.1637(2)
H50 H 0.2855 0.9040 0.1348
H51 H 0.3655 0.8753 0.1680
C43 C -0.1343(7) 0.6427(5) -0.0771(3)
H52 H -0.2267 0.6371 -0.0828
H53 H -0.1096 0.6080 -0.0507
C44 C -0.061(2) 0.6244(7) -0.1189(7)
H54 H -0.0762 0.5690 -0.1281
H55 H 0.0301 0.6317 -0.1123
H56 H -0.0862 0.6602 -0.1442
O15 O -0.0998(9) 0.7256(4) -0.0683(3)
H57 H -0.0390 0.7386 -0.0857
C45? C -0.019(3) 0.6156(6) -0.1040(15)
O16? O 0.0273(10) 0.6927(7) -0.1213(5)
H58? H 0.0153 0.7279 -0.1009
loop_
_geom_bond_atom_site_label_1
_geom_bond_atom_site_label_2
_geom_bond_site_symmetry_1
_geom_bond_site_symmetry_2
Zn1 O1 1_555 1_555
Zn2 O1 1_555 1_555
O1 H1 1_555 1_555
N1 Zn1 1_555 1_555
C1 N1 1_555 1_555
H2 C1 1_555 1_555
C2 C1 1_555 1_555
H3 C2 1_555 1_555
C3 C2 1_555 1_555
C4 C3 1_555 1_555
H4 C4 1_555 1_555
C5 N1 1_555 1_555
H5 C5 1_555 1_555
C6 C3 1_555 1_555
H6 C6 1_555 1_555
H7 C6 1_555 1_555
C7 C6 1_555 1_555
H8 C7 1_555 1_555
H9 C7 1_555 1_555
C8 C7 1_555 1_555
H10 C8 1_555 1_555
H11 C8 1_555 1_555
C9 C8 1_555 1_555
H12 C9 1_555 1_555
H13 C9 1_555 1_555
C10 C9 1_555 1_555
C11 C10 1_555 1_555
H14 C11 1_555 1_555
C12 C11 1_555 1_555
H15 C12 1_555 1_555
C13 H16 1_555 1_555
C14 C10 1_555 1_555
H17 C14 1_555 1_555
N2 C12 1_555 1_555
N3 Zn1 1_555 1_555
C15 N3 1_555 1_555
H18 C15 1_555 1_555
C16 C15 1_555 1_555
H19 C16 1_555 1_555
C17 C16 1_555 1_555
C18 C17 1_555 1_555
H20 C18 1_555 1_555
C19 N3 1_555 1_555
H21 C19 1_555 1_555
C20 C17 1_555 1_555
H22 C20 1_555 1_555
H23 C20 1_555 1_555
C21 C20 1_555 1_555
H24 C21 1_555 1_555
H25 C21 1_555 1_555
C22 C21 1_555 1_555
H26 C22 1_555 1_555
H27 C22 1_555 1_555
C23 C22 1_555 1_555
H28 C23 1_555 1_555
H29 C23 1_555 1_555
C24 C23 1_555 1_555
C25 C24 1_555 1_555
H30 C25 1_555 1_555
C26 C25 1_555 1_555
H31 C26 1_555 1_555
C27 H32 1_555 1_555
C28 C24 1_555 1_555
H33 C28 1_555 1_555
N4 C26 1_555 1_555
N5 Zn2 1_555 1_555
C29 H34 1_555 1_555
C30 N5 1_555 1_555
H35 C30 1_555 1_555
C31 C29 1_555 1_555
C32 C31 1_555 1_555
H36 C32 1_555 1_555
C33 N5 1_555 1_555
H37 C33 1_555 1_555
C34 C31 1_555 1_555
H38 C34 1_555 1_555
H39 C34 1_555 1_555
C35 C34 1_555 1_555
H40 C35 1_555 1_555
H41 C35 1_555 1_555
C36 H42 1_555 1_555
H43 C36 1_555 1_555
C37 C36 1_555 1_555
H44 C37 1_555 1_555
H45 C37 1_555 1_555
C38 C37 1_555 1_555
C39 C38 1_555 1_555
H46 C39 1_555 1_555
C40 C39 1_555 1_555
H47 C40 1_555 1_555
C41 C38 1_555 1_555
H48 C41 1_555 1_555
C42 C41 1_555 1_555
H49 C42 1_555 1_555
N6 Zn2 1_555 1_555
Cl1 O2 1_555 1_555
O3 Cl1 1_555 1_555
O4 Cl1 1_555 1_555
O5 Cl1 1_555 1_555
Cl2 O6 1_555 1_555
O7 Cl2 1_555 1_555
O8 Cl2 1_555 1_555
O9 Cl2 1_555 1_555
Cl3 O10 1_555 1_555
O11 Cl3 1_555 1_555
O12 Cl3 1_555 1_555
O13 Cl3 1_555 1_555
O14 H50 1_555 1_555
H51 O14 1_555 1_555
C43 H52 1_555 1_555
H53 C43 1_555 1_555
C44 C43 1_555 1_555
H54 C44 1_555 1_555
H55 C44 1_555 1_555
H56 C44 1_555 1_555
O15 C43 1_555 1_555
H57 O15 1_555 1_555
C35B C35 1_555 1_555
C34B C35B 1_555 1_555
C31B C34B 1_555 1_555
C29B C31B 1_555 1_555
H34B C29B 1_555 1_555
C30B C29B 1_555 1_555
N5B C30B 1_555 1_555
C33B N5B 1_555 1_555
C32B C31B 1_555 1_555
H36B C32B 1_555 1_555
H37B C33B 1_555 1_555
H35B C30B 1_555 1_555
H38B C34B 1_555 1_555
H39B C34B 1_555 1_555
H40B C35B 1_555 1_555
H41B C35B 1_555 1_555
C36B C36 1_555 1_555
H42B C36B 1_555 1_555
H43B C36B 1_555 1_555
C37B C36B 1_555 1_555
H44B C37B 1_555 1_555
H45B C37B 1_555 1_555
C38B C37B 1_555 1_555
C39B C38B 1_555 1_555
H46B C39B 1_555 1_555
C40B C39B 1_555 1_555
H47B C40B 1_555 1_555
N6B C40B 1_555 1_555
C42B N6B 1_555 1_555
C41B C38B 1_555 1_555
H48B C41B 1_555 1_555
H49B C42B 1_555 1_555
N1C C1C 1_555 1_555
C1C H2C 1_555 1_555
C2C C1C 1_555 1_555
H3C C2C 1_555 1_555
C3C C2C 1_555 1_555
C4C C3C 1_555 1_555
H4C C4C 1_555 1_555
C5C N1C 1_555 1_555
H5C C5C 1_555 1_555
C6C C3C 1_555 1_555
H6C C6C 1_555 1_555
H7C C6C 1_555 1_555
C7C C6C 1_555 1_555
H8C C7C 1_555 1_555
H9C C7C 1_555 1_555
C8C C7C 1_555 1_555
H10C C8C 1_555 1_555
H11C C8C 1_555 1_555
C9C C8C 1_555 1_555
H12C C9C 1_555 1_555
H13C C9C 1_555 1_555
C10C C9C 1_555 1_555
C11C C10C 1_555 1_555
H14C C11C 1_555 1_555
C12C C11C 1_555 1_555
H15C C12C 1_555 1_555
C13C H16C 1_555 1_555
C14C C10C 1_555 1_555
H17C C14C 1_555 1_555
N2C Zn1 1_555 1_555
Zn1C N1C 1_555 1_555
Zn1C_2 N2 1_555 1_555
Zn2A N4 1_555 1_555
N3A C15A 1_555 1_555
C15A H18A 1_555 1_555
C16A C15A 1_555 1_555
H19A C16A 1_555 1_555
C17A C16A 1_555 1_555
C18A C17A 1_555 1_555
H20A C18A 1_555 1_555
C19A N3A 1_555 1_555
H21A C19A 1_555 1_555
C20A C17A 1_555 1_555
H22A C20A 1_555 1_555
H23A C20A 1_555 1_555
C21A C20A 1_555 1_555
H24A C21A 1_555 1_555
H25A C21A 1_555 1_555
C22A C21A 1_555 1_555
H26A C22A 1_555 1_555
H27A C22A 1_555 1_555
C23A C22A 1_555 1_555
H28A C23A 1_555 1_555
H29A C23A 1_555 1_555
C24A C23A 1_555 1_555
C25A C24A 1_555 1_555
H30A C25A 1_555 1_555
C26A C25A 1_555 1_555
H31A C26A 1_555 1_555
C27A H32A 1_555 1_555
C28A C24A 1_555 1_555
H33A C28A 1_555 1_555
N4A Zn2 1_555 1_555
Zn1A N3A 1_555 1_555
Zn2B N5B 1_555 1_555
Zn2B_2 N6B 1_555 1_555
O1B Zn2B 1_555 1_555
H1B O1B 1_555 1_555
N4C Zn2B 1_555 1_555
N6B_2 Zn2B 1_555 1_555
Zn1B O1B 1_555 1_555
N1B Zn1B 1_555 1_555
N2A Zn1B 1_555 1_555
N3B Zn1B 1_555 1_555
C4 C5 1_555 1_555
C13 N2 1_555 1_555
C13 C14 1_555 1_555
C18 C19 1_555 1_555
C27 N4 1_555 1_555
C27 C28 1_555 1_555
C29 C30 1_555 1_555
C32 C33 1_555 1_555
C40 N6 1_555 1_555
C42 N6 1_555 1_555
C33B C32B 1_555 1_555
C42B C41B 1_555 1_555
C4C C5C 1_555 1_555
C12C N2C 1_555 1_555
C13C N2C 1_555 1_555
C13C C14C 1_555 1_555
C18A C19A 1_555 1_555
C26A N4A 1_555 1_555
C27A N4A 1_555 1_555
C27A C28A 1_555 1_555

#END
