
#######################################################################
#
#                 Cambridge Crystallographic Data Centre
#                                CCDC 
#
#######################################################################
#
# If this CIF has been generated from an entry in the Cambridge 
# Structural Database, then it will include bibliographic, chemical, 
# crystal, experimental, refinement or atomic coordinate data resulting 
# from the CCDC's data processing and validation procedures.
#
#######################################################################

data_WETVUN
_symmetry_cell_setting           triclinic
_symmetry_space_group_name_H-M   'P -1'
_symmetry_Int_Tables_number      2
_space_group_name_Hall           '-P 1'
loop_
_symmetry_equiv_pos_site_id
_symmetry_equiv_pos_as_xyz
1 x,y,z
2 -x,-y,-z
_cell_length_a                   10.375(7)
_cell_length_b                   10.435(1)
_cell_length_c                   12.040(1)
_cell_angle_alpha                68.503(1)
_cell_angle_beta                 86.371(1)
_cell_angle_gamma                66.231(1)
_cell_volume                     1104.47
loop_
_atom_site_label
_atom_site_type_symbol
_atom_site_fract_x
_atom_site_fract_y
_atom_site_fract_z
Cd1 Cd 0.15511(3) 0.40194(3) 0.43407(3)
C1 C 0.2313(6) 0.1697(6) 0.7129(4)
H1 H 0.1858 0.2597 0.7285
C2 C 0.2844(6) 0.0304(7) 0.8107(5)
H2 H 0.2732 0.0272 0.8905
C3 C 0.3507(6) -0.0969(6) 0.7901(5)
H3 H 0.3885 -0.1911 0.8557
C4 C 0.3649(5) -0.0926(5) 0.6728(5)
C5 C 0.4339(5) -0.2229(5) 0.6429(6)
H4 H 0.4762 -0.3192 0.7056
C6 C 0.4408(5) -0.2136(5) 0.5283(6)
H5 H 0.4884 -0.3028 0.5117
C7 C 0.3780(4) -0.0721(5) 0.4318(5)
C8 C 0.3791(5) -0.0567(6) 0.3114(6)
H6 H 0.4232 -0.1434 0.2911
C9 C 0.3176(6) 0.0810(7) 0.2244(5)
H7 H 0.3182 0.0918 0.1425
C10 C 0.2531(5) 0.2079(6) 0.2551(4)
H8 H 0.2105 0.3044 0.1927
C11 C 0.3114(4) 0.0604(4) 0.4562(4)
C12 C 0.3057(4) 0.0505(4) 0.5794(4)
C13 C 0.1766(4) 0.5714(5) 0.5773(4)
C14 C 0.1415(5) 0.6767(5) 0.6438(4)
H9 H 0.2304 0.6595 0.6842
H10 H 0.0806 0.6501 0.7070
C15 C 0.0673(4) 0.8433(5) 0.5676(4)
C16 C 0.0523(5) 0.8988(5) 0.4431(4)
H11 H 0.0880 0.8308 0.4022
C17 C 0.0149(5) 0.9462(5) 0.6226(4)
H12 H 0.0248 0.9109 0.7077
C18 C 0.1594(5) 0.5884(5) 0.2044(4)
C19 C 0.1783(6) 0.6790(5) 0.0780(4)
H13 H 0.2784 0.6651 0.0739
H14 H 0.1568 0.6393 0.0216
C20 C 0.0851(5) 0.8448(5) 0.0387(4)
C21 C -0.0267(5) 0.9124(5) -0.0490(4)
H15 H -0.0463 0.8526 -0.0833
C22 C 0.1113(5) 0.9332(5) 0.0881(4)
H16 H 0.1871 0.8887 0.1491
N1 N 0.2422(4) 0.1800(4) 0.6004(3)
N2 N 0.2491(4) 0.1990(4) 0.3673(3)
O1 O 0.3011(4) 0.4898(4) 0.5715(4)
O2 O 0.0742(3) 0.5685(3) 0.5275(3)
O3 O 0.0511(4) 0.5626(4) 0.2247(3)
O4 O 0.2550(4) 0.5382(4) 0.2884(3)
Cd1A Cd -0.15511(3) 1.59806(3) 0.56593(3)
Cd1A_2 Cd -0.15511(3) 0.59806(3) 0.56593(3)
Cd1_2 Cd 0.15511(3) 1.40194(3) 0.43407(3)
Cd1A_3 Cd -0.15511(3) 1.59806(3) -0.43407(3)
C1A C -0.2313(6) 1.8303(6) 0.2871(4)
H1A H -0.1858 1.7403 0.2715
C2A C -0.2844(6) 1.9696(7) 0.1893(5)
H2A H -0.2732 1.9728 0.1095
C3A C -0.3507(6) 2.0969(6) 0.2099(5)
H3A H -0.3885 2.1911 0.1443
C4A C -0.3649(5) 2.0926(5) 0.3272(5)
C5A C -0.4339(5) 2.2229(5) 0.3571(6)
H4A H -0.4762 2.3192 0.2944
C6A C -0.4408(5) 2.2136(5) 0.4717(6)
H5A H -0.4884 2.3028 0.4883
C7A C -0.3780(4) 2.0721(5) 0.5682(5)
C8A C -0.3791(5) 2.0567(6) 0.6886(6)
H6A H -0.4232 2.1434 0.7089
C9A C -0.3176(6) 1.9190(7) 0.7756(5)
H7A H -0.3182 1.9082 0.8575
C10A C -0.2531(5) 1.7921(6) 0.7449(4)
H8A H -0.2105 1.6956 0.8073
C11A C -0.3114(4) 1.9396(4) 0.5438(4)
C12A C -0.3057(4) 1.9495(4) 0.4206(4)
C13A C -0.1766(4) 1.4286(5) 0.4227(4)
C14A C -0.1415(5) 1.3233(5) 0.3562(4)
H9A H -0.2304 1.3405 0.3158
H10A H -0.0806 1.3499 0.2930
C15A C -0.0673(4) 1.1567(5) 0.4324(4)
C16A C -0.0523(5) 1.1012(5) 0.5569(4)
H11A H -0.0880 1.1692 0.5978
C17A C -0.0149(5) 1.0538(5) 0.3774(4)
H12A H -0.0248 1.0891 0.2923
C18A C -0.1594(5) 1.4116(5) -0.2044(4)
C19A C -0.1783(6) 1.3210(5) -0.0780(4)
H13A H -0.2784 1.3349 -0.0739
H14A H -0.1568 1.3607 -0.0216
C20A C -0.0851(5) 1.1552(5) -0.0387(4)
C21A C 0.0267(5) 1.0876(5) 0.0490(4)
H15A H 0.0463 1.1474 0.0833
C22A C -0.1113(5) 1.0668(5) -0.0881(4)
H16A H -0.1871 1.1113 -0.1491
N1A N -0.2422(4) 1.8200(4) 0.3996(3)
N2A N -0.2491(4) 1.8010(4) 0.6327(3)
O1A O -0.3011(4) 1.5102(4) 0.4285(4)
O2A O -0.0742(3) 1.4315(3) 0.4725(3)
O2A_2 O -0.0742(3) 0.4315(3) 0.4725(3)
O2_2 O 0.0742(3) 1.5685(3) 0.5275(3)
O3A O -0.0511(4) 1.4374(4) -0.2247(3)
O3A_2 O -0.0511(4) 1.4374(4) 0.7753(3)
O4A O -0.2550(4) 1.4618(4) -0.2884(3)
O4A_2 O -0.2550(4) 1.4618(4) 0.7116(3)
O5 O -0.1283(7) 0.5871(8) 0.0447(5)
H18 H -0.2014 0.6288 0.0252
H20 H -0.0777 0.5987 0.0864
O6 O 0.4820(4) 0.6221(4) 0.2509(3)
H21 H 0.5541 0.5636 0.3266
H22 H 0.4282 0.5753 0.2862
O7 O 0.4093(8) 0.4338(11) -0.0488(6)
H17 H 0.4391 0.4422 -0.1227
H19 H 0.4742 0.4405 -0.0151
loop_
_geom_bond_atom_site_label_1
_geom_bond_atom_site_label_2
_geom_bond_site_symmetry_1
_geom_bond_site_symmetry_2
Cd1 N1 1_555 1_555
C1 H1 1_555 1_555
C2 C1 1_555 1_555
H2 C2 1_555 1_555
C3 C2 1_555 1_555
H3 C3 1_555 1_555
C4 C3 1_555 1_555
C5 C4 1_555 1_555
H4 C5 1_555 1_555
C6 C5 1_555 1_555
H5 C6 1_555 1_555
C7 C6 1_555 1_555
C8 C7 1_555 1_555
H6 C8 1_555 1_555
C9 C8 1_555 1_555
H7 C9 1_555 1_555
C10 C9 1_555 1_555
H8 C10 1_555 1_555
C11 C7 1_555 1_555
C12 C4 1_555 1_555
C13 C14 1_555 1_555
C14 H9 1_555 1_555
H10 C14 1_555 1_555
C15 C14 1_555 1_555
C16 C15 1_555 1_555
H11 C16 1_555 1_555
C17 C15 1_555 1_555
H12 C17 1_555 1_555
C18 C19 1_555 1_555
C19 H13 1_555 1_555
H14 C19 1_555 1_555
C20 C19 1_555 1_555
C21 C20 1_555 1_555
H15 C21 1_555 1_555
C22 C20 1_555 1_555
H16 C22 1_555 1_555
N1 C1 1_555 1_555
N2 Cd1 1_555 1_555
O1 C13 1_555 1_555
O2 Cd1 1_555 1_555
O3 Cd1 1_555 1_555
O4 Cd1 1_555 1_555
O5 H18 1_555 1_555
O6 H21 1_555 1_555
O7 H17 1_555 1_555
H19 O7 1_555 1_555
H20 O5 1_555 1_555
H22 O6 1_555 1_555
Cd1A N1A 1_555 1_555
Cd1A_2 O2 1_555 1_555
Cd1_2 O2A 1_555 1_555
Cd1A_3 O3A 1_555 1_555
C1A H1A 1_555 1_555
C2A C1A 1_555 1_555
H2A C2A 1_555 1_555
C3A C2A 1_555 1_555
H3A C3A 1_555 1_555
C4A C3A 1_555 1_555
C5A C4A 1_555 1_555
H4A C5A 1_555 1_555
C6A C5A 1_555 1_555
H5A C6A 1_555 1_555
C7A C6A 1_555 1_555
C8A C7A 1_555 1_555
H6A C8A 1_555 1_555
C9A C8A 1_555 1_555
H7A C9A 1_555 1_555
C10A C9A 1_555 1_555
H8A C10A 1_555 1_555
C11A C7A 1_555 1_555
C12A C4A 1_555 1_555
C13A C14A 1_555 1_555
C14A H9A 1_555 1_555
H10A C14A 1_555 1_555
C15A C14A 1_555 1_555
C16A C17 1_555 1_555
H11A C16A 1_555 1_555
C17A C16 1_555 1_555
H12A C17A 1_555 1_555
C18A C19A 1_555 1_555
C19A H13A 1_555 1_555
H14A C19A 1_555 1_555
C20A C19A 1_555 1_555
C21A C22 1_555 1_555
H15A C21A 1_555 1_555
C22A C21 1_555 1_555
H16A C22A 1_555 1_555
N1A C1A 1_555 1_555
N2A Cd1A 1_555 1_555
O1A C13A 1_555 1_555
O2A Cd1A 1_555 1_555
O2A_2 Cd1 1_555 1_555
O2_2 Cd1A 1_555 1_555
O3A C18A 1_555 1_555
O3A_2 Cd1A 1_555 1_555
O4A Cd1A_3 1_555 1_555
O4A_2 Cd1A 1_555 1_555
C10 N2 1_555 1_555
C11 C12 1_555 1_555
C11 N2 1_555 1_555
C12 N1 1_555 1_555
C13 O2 1_555 1_555
C18 O3 1_555 1_555
C18 O4 1_555 1_555
Cd1A_2 O2A_2 1_555 1_555
Cd1_2 O2_2 1_555 1_555
C10A N2A 1_555 1_555
C11A C12A 1_555 1_555
C11A N2A 1_555 1_555
C12A N1A 1_555 1_555
C13A O2A 1_555 1_555
C15A C16A 1_555 1_555
C15A C17A 1_555 1_555
C18A O4A 1_555 1_555
C20A C21A 1_555 1_555
C20A C22A 1_555 1_555

#END
