
#######################################################################
#
#                 Cambridge Crystallographic Data Centre
#                                CCDC 
#
#######################################################################
#
# If this CIF has been generated from an entry in the Cambridge 
# Structural Database, then it will include bibliographic, chemical, 
# crystal, experimental, refinement or atomic coordinate data resulting 
# from the CCDC's data processing and validation procedures.
#
#######################################################################

data_WETWOH
_symmetry_cell_setting           orthorhombic
_symmetry_space_group_name_H-M   'P n m a'
_symmetry_Int_Tables_number      62
_space_group_name_Hall           '-P 2ac 2n'
loop_
_symmetry_equiv_pos_site_id
_symmetry_equiv_pos_as_xyz
1 x,y,z
2 1/2-x,1/2+y,1/2+z
3 1/2+x,y,1/2-z
4 x,1/2-y,z
5 -x,-y,-z
6 1/2+x,1/2-y,1/2-z
7 1/2-x,-y,1/2+z
8 -x,1/2+y,-z
_cell_length_a                   17.2550(4)
_cell_length_b                   34.4538(6)
_cell_length_c                   24.5191(10)
_cell_angle_alpha                90
_cell_angle_beta                 90
_cell_angle_gamma                90
_cell_volume                     14576.6
loop_
_atom_site_label
_atom_site_type_symbol
_atom_site_fract_x
_atom_site_fract_y
_atom_site_fract_z
Zn1 Zn 0.00925(7) 0.19925(3) 0.02645(5)
O1 O -0.0002(6) 0.2500 0.0551(3)
H1 H -0.007(10) 0.2500 0.0886(12)
N1 N -0.0849(5) 0.1676(3) 0.0475(4)
N2 N -0.3990(4) 0.1713(2) 0.4422(3)
C1 C -0.0976(7) 0.1323(3) 0.0268(4)
H2 H -0.0613 0.1219 0.0029
C2 C -0.1618(7) 0.1108(3) 0.0394(4)
H3 H -0.1693 0.0869 0.0225
C3 C -0.2153(6) 0.1238(4) 0.0763(5)
C4 C -0.2004(6) 0.1595(4) 0.0982(5)
H4 H -0.2344 0.1698 0.1238
C5 C -0.1366(6) 0.1805(3) 0.0833(4)
H5 H -0.1290 0.2048 0.0988
C6 C -0.2865(7) 0.1016(4) 0.0910(6)
H6 H -0.3250 0.1195 0.1052
H7 H -0.3077 0.0898 0.0583
C7 C -0.2723(8) 0.0718(5) 0.1308(5)
H8 H -0.3169 0.0547 0.1324
H9 H -0.2280 0.0565 0.1194
C8 C -0.2577(11) 0.0873(5) 0.1842(6)
H10 H -0.3006 0.1045 0.1928
H11 H -0.2119 0.1035 0.1814
C9 C -0.2466(13) 0.0625(6) 0.2309(8)
H12 H -0.2886 0.0439 0.2346
H13 H -0.1978 0.0486 0.2288
C10 C -0.2466(16) 0.0900(8) 0.2751(8)
H14 H -0.2064 0.1086 0.2661
H15 H -0.2953 0.1039 0.2718
C11 C -0.2377(14) 0.0828(6) 0.3318(8)
H16 H -0.2048 0.0601 0.3344
H17 H -0.2884 0.0748 0.3446
C12 C -0.2092(6) 0.1093(4) 0.3721(6)
H18 H -0.1736 0.1275 0.3554
H19 H -0.1815 0.0951 0.4001
C13 C -0.2751(6) 0.1306(3) 0.3969(4)
C14 C -0.3179(6) 0.1153(3) 0.4383(5)
H20 H -0.3057 0.0910 0.4522
C15 C -0.3787(6) 0.1356(3) 0.4592(4)
H21 H -0.4078 0.1242 0.4868
C16 C -0.3560(6) 0.1864(3) 0.4025(4)
H22 H -0.3675 0.2112 0.3901
C17 C -0.2955(6) 0.1667(3) 0.3792(5)
H23 H -0.2679 0.1782 0.3508
N3 N 0.0123(6) 0.1971(2) -0.0555(3)
N4 N -0.0248(7) -0.0824(4) -0.4600(5)
C18 C 0.0771(6) 0.1950(3) -0.0851(5)
H24 H 0.1243 0.1934 -0.0668
C19 C 0.0777(7) 0.1951(3) -0.1407(5)
H25 H 0.1247 0.1941 -0.1593
C20 C 0.0099(8) 0.1966(3) -0.1692(4)
C21 C -0.0561(7) 0.1986(3) -0.1387(5)
H26 H -0.1037 0.2003 -0.1564
C22 C -0.0542(6) 0.1984(3) -0.0832(5)
H27 H -0.1007 0.1991 -0.0641
C23 C 0.0120(8) 0.1963(3) -0.2319(4)
H28 H -0.0213 0.2171 -0.2446
H29 H 0.0644 0.2028 -0.2430
C24 C -0.0103(10) 0.1614(3) -0.2604(7)
H30 H -0.0664 0.1598 -0.2585
H31 H 0.0027 0.1654 -0.2985
C25 C 0.0185(10) 0.1244(4) -0.2459(6)
H32 H 0.0058 0.1206 -0.2077
H33 H 0.0746 0.1261 -0.2479
C26 C -0.0033(10) 0.0893(4) -0.2737(6)
H34 H 0.0272 0.0685 -0.2579
H35 H -0.0569 0.0841 -0.2643
C27 C 0.0029(13) 0.0857(4) -0.3314(6)
H36 H 0.0418 0.1042 -0.3432
H37 H -0.0461 0.0943 -0.3466
C28 C 0.0212(13) 0.0493(5) -0.3571(9)
H38 H 0.0163 0.0533 -0.3961
H39 H 0.0755 0.0443 -0.3500
C29 C -0.0195(11) 0.0144(5) -0.3447(8)
H40 H -0.0724 0.0214 -0.3358
H41 H 0.0034 0.0035 -0.3120
C30 C -0.0224(9) -0.0180(5) -0.3881(6)
C31 C 0.0119(10) -0.0527(6) -0.3769(6)
H42 H 0.0405 -0.0551 -0.3450
C32 C 0.0063(8) -0.0840(4) -0.4103(7)
H43 H 0.0251 -0.1077 -0.3979
C33 C -0.0573(8) -0.0484(4) -0.4720(5)
H44 H -0.0838 -0.0462 -0.5049
C34 C -0.0539(8) -0.0166(4) -0.4390(7)
H45 H -0.0737 0.0068 -0.4517
Zn1C Zn 0.00925(7) 0.30075(3) 0.02645(5)
N1C N -0.0849(5) 0.3324(3) 0.0475(4)
N2E N 0.1010(4) 0.3287(2) 0.0578(3)
N3C N 0.0123(6) 0.3029(2) -0.0555(3)
N2B N 0.1010(4) 0.1713(2) 0.0578(3)
C1C C -0.0976(7) 0.3677(3) 0.0268(4)
C5C C -0.1366(6) 0.3195(3) 0.0833(4)
C18C C 0.0771(6) 0.3050(3) -0.0851(5)
C22C C -0.0542(6) 0.3016(3) -0.0832(5)
Zn1B Zn -0.49075(7) 0.19925(3) 0.47355(5)
H2C H -0.0613 0.3781 0.0029
C2C C -0.1618(7) 0.3892(3) 0.0394(4)
C4C C -0.2004(6) 0.3405(4) 0.0982(5)
H5C H -0.1290 0.2952 0.0988
H24C H 0.1243 0.3066 -0.0668
C19C C 0.0777(7) 0.3049(3) -0.1407(5)
C21C C -0.0561(7) 0.3014(3) -0.1387(5)
H27C H -0.1007 0.3009 -0.0641
H3C H -0.1693 0.4131 0.0225
C3C C -0.2153(6) 0.3762(4) 0.0763(5)
H4C H -0.2344 0.3302 0.1238
H25C H 0.1247 0.3059 -0.1593
C20C C 0.0099(8) 0.3034(3) -0.1692(4)
H26C H -0.1037 0.2997 -0.1564
C6C C -0.2865(7) 0.3984(4) 0.0910(6)
C23C C 0.0120(8) 0.3037(3) -0.2319(4)
H6C H -0.3250 0.3805 0.1052
H7C H -0.3077 0.4102 0.0583
C7C C -0.2723(8) 0.4282(5) 0.1308(5)
H28C H -0.0213 0.2829 -0.2446
H29C H 0.0644 0.2972 -0.2430
C24C C -0.0103(10) 0.3386(3) -0.2604(7)
H8C H -0.3169 0.4453 0.1324
H9C H -0.2280 0.4435 0.1194
C8C C -0.2577(11) 0.4127(5) 0.1842(6)
H30C H -0.0664 0.3402 -0.2585
H31C H 0.0027 0.3346 -0.2985
C25C C 0.0185(10) 0.3756(4) -0.2459(6)
H10C H -0.3006 0.3955 0.1928
H11C H -0.2119 0.3965 0.1814
C9C C -0.2466(13) 0.4375(6) 0.2309(8)
H32C H 0.0058 0.3794 -0.2077
H33C H 0.0746 0.3739 -0.2479
C26C C -0.0033(10) 0.4107(4) -0.2737(6)
H12C H -0.2886 0.4561 0.2346
H13C H -0.1978 0.4514 0.2288
C10C C -0.2466(16) 0.4100(8) 0.2751(8)
H34C H 0.0272 0.4315 -0.2579
H35C H -0.0569 0.4159 -0.2643
C27C C 0.0029(13) 0.4143(4) -0.3314(6)
H14C H -0.2064 0.3914 0.2661
H15C H -0.2953 0.3961 0.2718
C11C C -0.2377(14) 0.4172(6) 0.3318(8)
H36C H 0.0418 0.3958 -0.3432
H37C H -0.0461 0.4057 -0.3466
C28C C 0.0212(13) 0.4507(5) -0.3571(9)
H16C H -0.2048 0.4399 0.3344
H17C H -0.2884 0.4252 0.3446
C12C C -0.2092(6) 0.3907(4) 0.3721(6)
H38C H 0.0163 0.4467 -0.3961
H39C H 0.0755 0.4557 -0.3500
C29C C -0.0195(11) 0.4856(5) -0.3447(8)
H18C H -0.1736 0.3725 0.3554
H19C H -0.1815 0.4049 0.4001
C13C C -0.2751(6) 0.3694(3) 0.3969(4)
H40C H -0.0724 0.4786 -0.3358
H41C H 0.0034 0.4965 -0.3120
C30C C -0.0224(9) 0.5180(5) -0.3881(6)
C14C C -0.3179(6) 0.3847(3) 0.4383(5)
C17C C -0.2955(6) 0.3333(3) 0.3792(5)
C31C C 0.0119(10) 0.5527(6) -0.3769(6)
C34C C -0.0539(8) 0.5166(4) -0.4390(7)
H20C H -0.3057 0.4090 0.4522
C15C C -0.3787(6) 0.3644(3) 0.4592(4)
C16C C -0.3560(6) 0.3136(3) 0.4025(4)
H23C H -0.2679 0.3218 0.3508
H42C H 0.0405 0.5551 -0.3450
C32C C 0.0063(8) 0.5840(4) -0.4103(7)
C33C C -0.0573(8) 0.5484(4) -0.4720(5)
H45C H -0.0737 0.4932 -0.4517
N2C N -0.3990(4) 0.3287(2) 0.4422(3)
H21C H -0.4078 0.3758 0.4868
H22C H -0.3675 0.2888 0.3901
N4C N -0.0248(7) 0.5824(4) -0.4600(5)
H43C H 0.0251 0.6077 -0.3979
H44C H -0.0838 0.5462 -0.5049
Zn1E Zn -0.49075(7) 0.30075(3) 0.47355(5)
Zn2 Zn 0.00274(8) 0.19948(4) -0.45102(5)
O2 O -0.0166(6) 0.2500 -0.4223(4)
H46 H -0.015(4) 0.2500 -0.3885(4)
N5 N -0.0890(5) 0.1655(3) -0.4317(4)
N6 N -0.4042(5) 0.1729(3) -0.0784(4)
C35 C -0.0998(6) 0.1320(3) -0.4580(4)
H47 H -0.0637 0.1248 -0.4843
C36 C -0.1613(7) 0.1075(3) -0.4486(4)
H48 H -0.1661 0.0845 -0.4680
C37 C -0.2155(6) 0.1177(4) -0.4102(5)
C38 C -0.2038(8) 0.1513(4) -0.3814(5)
H49 H -0.2376 0.1582 -0.3536
C39 C -0.1420(7) 0.1746(3) -0.3940(5)
H50 H -0.1366 0.1979 -0.3753
C40 C -0.2855(7) 0.0925(4) -0.3965(6)
H51 H -0.3223 0.1080 -0.3759
H52 H -0.3106 0.0849 -0.4303
C41 C -0.2678(11) 0.0581(5) -0.3656(8)
H53 H -0.3107 0.0400 -0.3680
H54 H -0.2222 0.0456 -0.3807
C42 C -0.2542(13) 0.0679(7) -0.3099(8)
H55 H -0.2031 0.0796 -0.3122
H56 H -0.2891 0.0897 -0.3053
C43 C -0.2528(14) 0.0525(7) -0.2558(8)
H57 H -0.2054 0.0374 -0.2551
H58 H -0.2944 0.0336 -0.2561
C44 C -0.2567(12) 0.0688(6) -0.2018(8)
H59 H -0.3094 0.0774 -0.1952
H60 H -0.2453 0.0485 -0.1756
C45 C -0.2054(14) 0.1006(7) -0.1923(7)
H61 H -0.2225 0.1232 -0.2124
H62 H -0.1534 0.0940 -0.2041
C46 C -0.2062(7) 0.1083(4) -0.1350(6)
H63 H -0.1591 0.1221 -0.1254
H64 H -0.2060 0.0838 -0.1155
C47 C -0.2752(6) 0.1320(4) -0.1164(5)
C48 C -0.2965(7) 0.1669(4) -0.1378(5)
H65 H -0.2674 0.1777 -0.1659
C49 C -0.3599(7) 0.1862(3) -0.1185(4)
H66 H -0.3727 0.2099 -0.1343
C50 C -0.3833(6) 0.1385(3) -0.0580(4)
H67 H -0.4139 0.1278 -0.0306
C51 C -0.3198(7) 0.1181(3) -0.0749(4)
H68 H -0.3071 0.0947 -0.0582
N7 N 0.0045(7) 0.1978(2) -0.5315(4)
N8 N -0.0246(7) -0.0771(4) -0.9500(6)
C52 C 0.0694(6) 0.1971(3) -0.5609(5)
H69 H 0.1164 0.1968 -0.5424
C53 C 0.0712(7) 0.1968(3) -0.6167(6)
H70 H 0.1188 0.1963 -0.6345
C54 C 0.0044(8) 0.1974(3) -0.6467(5)
C55 C -0.0628(7) 0.1995(3) -0.6175(6)
H71 H -0.1102 0.2015 -0.6352
C56 C -0.0595(6) 0.1987(3) -0.5619(6)
H72 H -0.1066 0.1987 -0.5434
C57 C 0.0040(8) 0.1950(3) -0.7079(5)
H73 H -0.0401 0.2093 -0.7219
H74 H 0.0507 0.2071 -0.7220
C58 C 0.0000(10) 0.1555(4) -0.7271(5)
H75 H 0.0448 0.1424 -0.7117
H76 H -0.0450 0.1441 -0.7095
C59 C -0.0037(14) 0.1434(7) -0.7831(6)
H77 H 0.0393 0.1543 -0.8035
H78 H -0.0517 0.1523 -0.7996
C60 C 0.0000(15) 0.1012(7) -0.7844(10)
H79 H 0.0463 0.0915 -0.7665
H80 H -0.0455 0.0895 -0.7682
C61 C 0.0026(16) 0.0956(7) -0.8418(10)
H81 H 0.0408 0.1136 -0.8561
H82 H -0.0472 0.1037 -0.8561
C62 C 0.0193(14) 0.0583(7) -0.8653(10)
H83 H 0.0141 0.0610 -0.9045
H84 H 0.0735 0.0528 -0.8581
C63 C -0.0237(13) 0.0248(6) -0.8497(9)
H85 H -0.0766 0.0329 -0.8427
H86 H -0.0027 0.0156 -0.8154
C64 C -0.0266(9) -0.0093(4) -0.8886(6)
C65 C 0.0175(9) -0.0402(5) -0.8744(7)
H87 H 0.0526 -0.0381 -0.8457
C66 C 0.0106(8) -0.0743(5) -0.9019(7)
H88 H 0.0313 -0.0967 -0.8864
C67 C -0.0604(8) -0.0450(4) -0.9668(5)
H89 H -0.0876 -0.0460 -0.9995
C68 C -0.0595(8) -0.0108(4) -0.9390(7)
H90 H -0.0812 0.0114 -0.9544
Zn2C Zn 0.00274(8) 0.30052(4) -0.45102(5)
N5C N -0.0890(5) 0.3345(3) -0.4317(4)
N6E N 0.0958(5) 0.3271(3) -0.4216(4)
N7C N 0.0045(7) 0.3022(2) -0.5315(4)
N6B N 0.0958(5) 0.1729(3) -0.4216(4)
C35C C -0.0998(6) 0.3680(3) -0.4580(4)
C39C C -0.1420(7) 0.3254(3) -0.3940(5)
C52C C 0.0694(6) 0.3029(3) -0.5609(5)
C56C C -0.0595(6) 0.3013(3) -0.5619(6)
Zn2B Zn -0.49726(8) 0.19948(4) -0.04898(5)
H47C H -0.0637 0.3752 -0.4843
C36C C -0.1613(7) 0.3925(3) -0.4486(4)
C38C C -0.2038(8) 0.3487(4) -0.3814(5)
H50C H -0.1366 0.3021 -0.3753
H69C H 0.1164 0.3032 -0.5424
C53C C 0.0712(7) 0.3032(3) -0.6167(6)
C55C C -0.0628(7) 0.3005(3) -0.6175(6)
H72C H -0.1066 0.3013 -0.5434
H48C H -0.1661 0.4155 -0.4680
C37C C -0.2155(6) 0.3823(4) -0.4102(5)
H49C H -0.2376 0.3418 -0.3536
H70C H 0.1188 0.3037 -0.6345
C54C C 0.0044(8) 0.3026(3) -0.6467(5)
H71C H -0.1102 0.2985 -0.6352
C40C C -0.2855(7) 0.4075(4) -0.3965(6)
C57C C 0.0040(8) 0.3050(3) -0.7079(5)
H51C H -0.3223 0.3920 -0.3759
H52C H -0.3106 0.4151 -0.4303
C41C C -0.2678(11) 0.4419(5) -0.3656(8)
H73C H -0.0401 0.2907 -0.7219
H74C H 0.0507 0.2929 -0.7220
C58C C 0.0000(10) 0.3445(4) -0.7271(5)
H53C H -0.3107 0.4600 -0.3680
H54C H -0.2222 0.4544 -0.3807
C42C C -0.2542(13) 0.4321(7) -0.3099(8)
H75C H 0.0448 0.3576 -0.7117
H76C H -0.0450 0.3559 -0.7095
C59C C -0.0037(14) 0.3566(7) -0.7831(6)
H55C H -0.2031 0.4204 -0.3122
H56C H -0.2891 0.4103 -0.3053
C43C C -0.2528(14) 0.4475(7) -0.2558(8)
H77C H 0.0393 0.3457 -0.8035
H78C H -0.0517 0.3477 -0.7996
C60C C 0.0000(15) 0.3988(7) -0.7844(10)
H57C H -0.2054 0.4626 -0.2551
H58C H -0.2944 0.4664 -0.2561
C44C C -0.2567(12) 0.4312(6) -0.2018(8)
H79C H 0.0463 0.4085 -0.7665
H80C H -0.0455 0.4105 -0.7682
C61C C 0.0026(16) 0.4044(7) -0.8418(10)
H59C H -0.3094 0.4226 -0.1952
H60C H -0.2453 0.4515 -0.1756
C45C C -0.2054(14) 0.3994(7) -0.1923(7)
H81C H 0.0408 0.3864 -0.8561
H82C H -0.0472 0.3963 -0.8561
C62C C 0.0193(14) 0.4417(7) -0.8653(10)
H61C H -0.2225 0.3768 -0.2124
H62C H -0.1534 0.4060 -0.2041
C46C C -0.2062(7) 0.3917(4) -0.1350(6)
H83C H 0.0141 0.4390 -0.9045
H84C H 0.0735 0.4472 -0.8581
C63C C -0.0237(13) 0.4752(6) -0.8497(9)
H63C H -0.1591 0.3779 -0.1254
H64C H -0.2060 0.4162 -0.1155
C47C C -0.2752(6) 0.3680(4) -0.1164(5)
H85C H -0.0766 0.4671 -0.8427
H86C H -0.0027 0.4844 -0.8154
C64C C -0.0266(9) 0.5093(4) -0.8886(6)
C48C C -0.2965(7) 0.3331(4) -0.1378(5)
C51C C -0.3198(7) 0.3819(3) -0.0749(4)
C65C C 0.0175(9) 0.5402(5) -0.8744(7)
C68C C -0.0595(8) 0.5108(4) -0.9390(7)
H65C H -0.2674 0.3223 -0.1659
C49C C -0.3599(7) 0.3138(3) -0.1185(4)
C50C C -0.3833(6) 0.3615(3) -0.0580(4)
H68C H -0.3071 0.4053 -0.0582
H87C H 0.0526 0.5381 -0.8457
C66C C 0.0106(8) 0.5743(5) -0.9019(7)
C67C C -0.0604(8) 0.5450(4) -0.9668(5)
H90C H -0.0812 0.4886 -0.9544
N6C N -0.4042(5) 0.3271(3) -0.0784(4)
H66C H -0.3727 0.2901 -0.1343
H67C H -0.4139 0.3722 -0.0306
N8C N -0.0246(7) 0.5771(4) -0.9500(6)
H88C H 0.0313 0.5967 -0.8864
H89C H -0.0876 0.5460 -0.9995
Zn2E Zn -0.49726(8) 0.30052(4) -0.04898(5)
Cl1 Cl 0.2528(2) -0.00056(11) 0.04446(16)
O3 O 0.2756(5) 0.0304(2) 0.0113(4)
O4 O 0.2287(5) -0.0325(2) 0.0148(4)
O5 O 0.1915(4) 0.0113(3) 0.0789(4)
O6 O 0.3144(4) -0.0096(3) 0.0795(3)
O23 O -0.0230(12) 0.2500 -0.8328(8)
Cl2? Cl 0.2371(3) 0.2437(5) -0.4878(2)
O7? O 0.1611(4) 0.2500(7) -0.4696(4)
O8? O 0.2475(7) 0.2552(7) -0.5414(4)
O9? O 0.2579(8) 0.2042(5) -0.4832(5)
O10? O 0.2868(7) 0.2636(5) -0.4522(6)
Cl3? Cl 0.2511(3) 0.2417(4) 0.0010(2)
O11? O 0.2544(6) 0.2018(4) -0.0095(6)
O12? O 0.1784(6) 0.2573(6) -0.0085(5)
O13? O 0.3053(8) 0.2616(5) -0.0322(5)
O14? O 0.2758(6) 0.2500(6) 0.0548(3)
Cl4? Cl -0.2207(3) 0.2500 -0.2648(2)
O15? O -0.1978(9) 0.2557(7) -0.2111(3)
O16? O -0.1649(7) 0.2590(6) -0.3022(5)
O17? O -0.2891(6) 0.2694(4) -0.2753(8)
O18? O -0.2420(10) 0.20888(15) -0.2711(10)
Cl5? Cl -0.2393(4) 0.2564(6) -0.7592(3)
O19? O -0.3034(9) 0.2337(7) -0.7453(11)
O20? O -0.1849(11) 0.2363(8) -0.7896(9)
O21? O -0.2032(14) 0.2704(8) -0.7114(7)
O22? O -0.2660(13) 0.2896(8) -0.7867(9)
loop_
_geom_bond_atom_site_label_1
_geom_bond_atom_site_label_2
_geom_bond_site_symmetry_1
_geom_bond_site_symmetry_2
Zn1 O1 1_555 1_555
O1 H1 1_555 1_555
N1 Zn1 1_555 1_555
N2 C15 1_555 1_555
C1 N1 1_555 1_555
H2 C1 1_555 1_555
C2 C1 1_555 1_555
H3 C2 1_555 1_555
C3 C2 1_555 1_555
C4 C3 1_555 1_555
H4 C4 1_555 1_555
C5 N1 1_555 1_555
H5 C5 1_555 1_555
C6 C3 1_555 1_555
H6 C6 1_555 1_555
H7 C6 1_555 1_555
C7 C6 1_555 1_555
H8 C7 1_555 1_555
H9 C7 1_555 1_555
C8 C7 1_555 1_555
H10 C8 1_555 1_555
H11 C8 1_555 1_555
C9 C8 1_555 1_555
H12 C9 1_555 1_555
H13 C9 1_555 1_555
C10 C9 1_555 1_555
H14 C10 1_555 1_555
H15 C10 1_555 1_555
C11 C10 1_555 1_555
H16 C11 1_555 1_555
H17 C11 1_555 1_555
C12 C11 1_555 1_555
H18 C12 1_555 1_555
H19 C12 1_555 1_555
C13 C12 1_555 1_555
C14 C13 1_555 1_555
H20 C14 1_555 1_555
C15 C14 1_555 1_555
H21 C15 1_555 1_555
C16 N2 1_555 1_555
H22 C16 1_555 1_555
C17 C13 1_555 1_555
H23 C17 1_555 1_555
N3 Zn1 1_555 1_555
N4 C32 1_555 1_555
C18 N3 1_555 1_555
H24 C18 1_555 1_555
C19 C18 1_555 1_555
H25 C19 1_555 1_555
C20 C19 1_555 1_555
C21 C20 1_555 1_555
H26 C21 1_555 1_555
C22 N3 1_555 1_555
H27 C22 1_555 1_555
C23 C20 1_555 1_555
H28 C23 1_555 1_555
H29 C23 1_555 1_555
C24 C23 1_555 1_555
H30 C24 1_555 1_555
H31 C24 1_555 1_555
C25 C24 1_555 1_555
H32 C25 1_555 1_555
H33 C25 1_555 1_555
C26 C25 1_555 1_555
H34 C26 1_555 1_555
H35 C26 1_555 1_555
C27 C26 1_555 1_555
H36 C27 1_555 1_555
H37 C27 1_555 1_555
C28 C27 1_555 1_555
H38 C28 1_555 1_555
H39 C28 1_555 1_555
C29 C28 1_555 1_555
H40 C29 1_555 1_555
H41 C29 1_555 1_555
C30 C29 1_555 1_555
C31 C30 1_555 1_555
H42 C31 1_555 1_555
C32 C31 1_555 1_555
H43 C32 1_555 1_555
C33 N4 1_555 1_555
H44 C33 1_555 1_555
C34 C30 1_555 1_555
H45 C34 1_555 1_555
Zn2 O2 1_555 1_555
O2 H46 1_555 1_555
N5 Zn2 1_555 1_555
N6 C49 1_555 1_555
C35 N5 1_555 1_555
H47 C35 1_555 1_555
C36 C35 1_555 1_555
H48 C36 1_555 1_555
C37 C36 1_555 1_555
C38 C37 1_555 1_555
H49 C38 1_555 1_555
C39 N5 1_555 1_555
H50 C39 1_555 1_555
C40 C37 1_555 1_555
H51 C40 1_555 1_555
H52 C40 1_555 1_555
C41 C40 1_555 1_555
H53 C41 1_555 1_555
H54 C41 1_555 1_555
C42 C41 1_555 1_555
H55 C42 1_555 1_555
H56 C42 1_555 1_555
C43 C42 1_555 1_555
H57 C43 1_555 1_555
H58 C43 1_555 1_555
C44 C43 1_555 1_555
H59 C44 1_555 1_555
H60 C44 1_555 1_555
C45 C44 1_555 1_555
H61 C45 1_555 1_555
H62 C45 1_555 1_555
C46 C45 1_555 1_555
H63 C46 1_555 1_555
H64 C46 1_555 1_555
C47 C46 1_555 1_555
C48 C47 1_555 1_555
H65 C48 1_555 1_555
C49 C48 1_555 1_555
H66 C49 1_555 1_555
C50 N6 1_555 1_555
H67 C50 1_555 1_555
C51 C47 1_555 1_555
H68 C51 1_555 1_555
N7 Zn2 1_555 1_555
N8 C66 1_555 1_555
C52 N7 1_555 1_555
H69 C52 1_555 1_555
C53 C52 1_555 1_555
H70 C53 1_555 1_555
C54 C53 1_555 1_555
C55 C54 1_555 1_555
H71 C55 1_555 1_555
C56 N7 1_555 1_555
H72 C56 1_555 1_555
C57 C54 1_555 1_555
H73 C57 1_555 1_555
H74 C57 1_555 1_555
C58 C57 1_555 1_555
H75 C58 1_555 1_555
H76 C58 1_555 1_555
C59 C58 1_555 1_555
H77 C59 1_555 1_555
H78 C59 1_555 1_555
C60 C59 1_555 1_555
H79 C60 1_555 1_555
H80 C60 1_555 1_555
C61 C60 1_555 1_555
H81 C61 1_555 1_555
H82 C61 1_555 1_555
C62 C61 1_555 1_555
H83 C62 1_555 1_555
H84 C62 1_555 1_555
C63 C62 1_555 1_555
H85 C63 1_555 1_555
H86 C63 1_555 1_555
C64 C63 1_555 1_555
C65 C64 1_555 1_555
H87 C65 1_555 1_555
C66 C65 1_555 1_555
H88 C66 1_555 1_555
C67 N8 1_555 1_555
H89 C67 1_555 1_555
C68 C64 1_555 1_555
H90 C68 1_555 1_555
Cl1 O3 1_555 1_555
O4 Cl1 1_555 1_555
O5 Cl1 1_555 1_555
O6 Cl1 1_555 1_555
Zn1C O1 1_555 1_555
Zn2C O2 1_555 1_555
N1C Zn1C 1_555 1_555
N2E Zn1C 1_555 1_555
N3C Zn1C 1_555 1_555
N2B Zn1 1_555 1_555
N5C Zn2C 1_555 1_555
N6E Zn2C 1_555 1_555
N7C Zn2C 1_555 1_555
N6B Zn2 1_555 1_555
C1C N1C 1_555 1_555
C5C N1C 1_555 1_555
C18C N3C 1_555 1_555
C22C N3C 1_555 1_555
Zn1B N2 1_555 1_555
C35C N5C 1_555 1_555
C39C N5C 1_555 1_555
C52C N7C 1_555 1_555
C56C N7C 1_555 1_555
Zn2B N6 1_555 1_555
H2C C1C 1_555 1_555
C2C C1C 1_555 1_555
C4C C5C 1_555 1_555
H5C C5C 1_555 1_555
H24C C18C 1_555 1_555
C19C C18C 1_555 1_555
C21C C22C 1_555 1_555
H27C C22C 1_555 1_555
H47C C35C 1_555 1_555
C36C C35C 1_555 1_555
C38C C39C 1_555 1_555
H50C C39C 1_555 1_555
H69C C52C 1_555 1_555
C53C C52C 1_555 1_555
C55C C56C 1_555 1_555
H72C C56C 1_555 1_555
H3C C2C 1_555 1_555
C3C C2C 1_555 1_555
H4C C4C 1_555 1_555
H25C C19C 1_555 1_555
C20C C19C 1_555 1_555
H26C C21C 1_555 1_555
H48C C36C 1_555 1_555
C37C C36C 1_555 1_555
H49C C38C 1_555 1_555
H70C C53C 1_555 1_555
C54C C53C 1_555 1_555
H71C C55C 1_555 1_555
C6C C3C 1_555 1_555
C23C C20C 1_555 1_555
C40C C37C 1_555 1_555
C57C C54C 1_555 1_555
H6C C6C 1_555 1_555
H7C C6C 1_555 1_555
C7C C6C 1_555 1_555
H28C C23C 1_555 1_555
H29C C23C 1_555 1_555
C24C C23C 1_555 1_555
H51C C40C 1_555 1_555
H52C C40C 1_555 1_555
C41C C40C 1_555 1_555
H73C C57C 1_555 1_555
H74C C57C 1_555 1_555
C58C C57C 1_555 1_555
H8C C7C 1_555 1_555
H9C C7C 1_555 1_555
C8C C7C 1_555 1_555
H30C C24C 1_555 1_555
H31C C24C 1_555 1_555
C25C C24C 1_555 1_555
H53C C41C 1_555 1_555
H54C C41C 1_555 1_555
C42C C41C 1_555 1_555
H75C C58C 1_555 1_555
H76C C58C 1_555 1_555
C59C C58C 1_555 1_555
H10C C8C 1_555 1_555
H11C C8C 1_555 1_555
C9C C8C 1_555 1_555
H32C C25C 1_555 1_555
H33C C25C 1_555 1_555
C26C C25C 1_555 1_555
H55C C42C 1_555 1_555
H56C C42C 1_555 1_555
C43C C42C 1_555 1_555
H77C C59C 1_555 1_555
H78C C59C 1_555 1_555
C60C C59C 1_555 1_555
H12C C9C 1_555 1_555
H13C C9C 1_555 1_555
C10C C9C 1_555 1_555
H34C C26C 1_555 1_555
H35C C26C 1_555 1_555
C27C C26C 1_555 1_555
H57C C43C 1_555 1_555
H58C C43C 1_555 1_555
C44C C43C 1_555 1_555
H79C C60C 1_555 1_555
H80C C60C 1_555 1_555
C61C C60C 1_555 1_555
H14C C10C 1_555 1_555
H15C C10C 1_555 1_555
C11C C10C 1_555 1_555
H36C C27C 1_555 1_555
H37C C27C 1_555 1_555
C28C C27C 1_555 1_555
H59C C44C 1_555 1_555
H60C C44C 1_555 1_555
C45C C44C 1_555 1_555
H81C C61C 1_555 1_555
H82C C61C 1_555 1_555
C62C C61C 1_555 1_555
H16C C11C 1_555 1_555
H17C C11C 1_555 1_555
C12C C11C 1_555 1_555
H38C C28C 1_555 1_555
H39C C28C 1_555 1_555
C29C C28C 1_555 1_555
H61C C45C 1_555 1_555
H62C C45C 1_555 1_555
C46C C45C 1_555 1_555
H83C C62C 1_555 1_555
H84C C62C 1_555 1_555
C63C C62C 1_555 1_555
H18C C12C 1_555 1_555
H19C C12C 1_555 1_555
C13C C12C 1_555 1_555
H40C C29C 1_555 1_555
H41C C29C 1_555 1_555
C30C C29C 1_555 1_555
H63C C46C 1_555 1_555
H64C C46C 1_555 1_555
C47C C46C 1_555 1_555
H85C C63C 1_555 1_555
H86C C63C 1_555 1_555
C64C C63C 1_555 1_555
C14C C13C 1_555 1_555
C17C C13C 1_555 1_555
C31C C30C 1_555 1_555
C34C C30C 1_555 1_555
C48C C47C 1_555 1_555
C51C C47C 1_555 1_555
C65C C64C 1_555 1_555
C68C C64C 1_555 1_555
H20C C14C 1_555 1_555
C15C C14C 1_555 1_555
C16C C17C 1_555 1_555
H23C C17C 1_555 1_555
H42C C31C 1_555 1_555
C32C C31C 1_555 1_555
C33C C34C 1_555 1_555
H45C C34C 1_555 1_555
H65C C48C 1_555 1_555
C49C C48C 1_555 1_555
C50C C51C 1_555 1_555
H68C C51C 1_555 1_555
H87C C65C 1_555 1_555
C66C C65C 1_555 1_555
C67C C68C 1_555 1_555
H90C C68C 1_555 1_555
N2C C15C 1_555 1_555
H21C C15C 1_555 1_555
H22C C16C 1_555 1_555
N4C C32C 1_555 1_555
H43C C32C 1_555 1_555
H44C C33C 1_555 1_555
N6C C49C 1_555 1_555
H66C C49C 1_555 1_555
H67C C50C 1_555 1_555
N8C C66C 1_555 1_555
H88C C66C 1_555 1_555
H89C C67C 1_555 1_555
Zn1E N2C 1_555 1_555
Zn2E N6C 1_555 1_555
C4 C5 1_555 1_555
C16 C17 1_555 1_555
C21 C22 1_555 1_555
C33 C34 1_555 1_555
C38 C39 1_555 1_555
C50 C51 1_555 1_555
C55 C56 1_555 1_555
C67 C68 1_555 1_555
C4C C3C 1_555 1_555
C21C C20C 1_555 1_555
C38C C37C 1_555 1_555
C55C C54C 1_555 1_555
C16C N2C 1_555 1_555
C33C N4C 1_555 1_555
C50C N6C 1_555 1_555
C67C N8C 1_555 1_555

#END
