
#######################################################################
#
#                 Cambridge Crystallographic Data Centre
#                                CCDC 
#
#######################################################################
#
# If this CIF has been generated from an entry in the Cambridge 
# Structural Database, then it will include bibliographic, chemical, 
# crystal, experimental, refinement or atomic coordinate data resulting 
# from the CCDC's data processing and validation procedures.
#
#######################################################################

data_WETWAU
_symmetry_cell_setting           monoclinic
_symmetry_space_group_name_H-M   'C 2/c'
_symmetry_Int_Tables_number      15
_space_group_name_Hall           '-C 2yn'
loop_
_symmetry_equiv_pos_site_id
_symmetry_equiv_pos_as_xyz
1 x,y,z
2 1/2+x,1/2+y,z
3 -x,y,1/2-z
4 1/2-x,1/2+y,1/2-z
5 -x,-y,-z
6 1/2-x,1/2-y,-z
7 x,-y,1/2+z
8 1/2+x,1/2-y,1/2+z
_cell_length_a                   23.805(8)
_cell_length_b                   11.464(4)
_cell_length_c                   15.807(5)
_cell_angle_alpha                90
_cell_angle_beta                 128.435(4)
_cell_angle_gamma                90
_cell_volume                     3379.01
loop_
_atom_site_label
_atom_site_type_symbol
_atom_site_fract_x
_atom_site_fract_y
_atom_site_fract_z
Co1 Co 0.5000 0.25281(5) 0.7500
O1 O 0.57045(12) 0.25761(17) 0.71509(17)
O2 O 0.50011(13) 0.2413(2) 0.53544(19)
O3 O 0.41259(12) 0.25039(17) 0.58210(17)
H1 H 0.4178 0.2945 0.5380
N1 N 0.5000 0.0627(3) 0.7500
N2 N 0.5000 -0.5567(3) 0.7500
C1 C 0.55922(18) 0.2579(3) 0.6258(3)
C2 C 0.62306(19) 0.2779(3) 0.6296(3)
C3 C 0.6465(2) 0.3920(4) 0.6347(3)
C4 C 0.7059(2) 0.4054(5) 0.6366(3)
H2 H 0.7223 0.4802 0.6402
C5 C 0.7405(3) 0.3122(7) 0.6335(4)
C6 C 0.7172(3) 0.1996(6) 0.6306(4)
H3 H 0.7413 0.1361 0.6301
C7 C 0.6587(2) 0.1803(4) 0.6284(3)
C8 C 0.6100(2) 0.4949(4) 0.6402(4)
H4 H 0.5595 0.4912 0.5817
H5 H 0.6293 0.5656 0.6349
H6 H 0.6179 0.4938 0.7077
C9 C 0.8063(3) 0.3284(7) 0.6382(5)
H7 H 0.8026 0.4014 0.6053
H8 H 0.8086 0.2658 0.6002
H9 H 0.8490 0.3283 0.7122
C10 C 0.6347(3) 0.0591(4) 0.6281(4)
H10 H 0.6666 0.0034 0.6328
H11 H 0.5870 0.0466 0.5625
H12 H 0.6351 0.0497 0.6889
C11 C 0.49748(18) -0.0003(3) 0.6757(3)
H13 H 0.4962 0.0402 0.6235
C12 C 0.49666(18) -0.1193(3) 0.6716(3)
H14 H 0.4939 -0.1577 0.6173
C13 C 0.5000 -0.1825(3) 0.7500
C14 C 0.5000 -0.3116(4) 0.7500
C15 C 0.4562(2) -0.3751(3) 0.6561(3)
H15 H 0.4259 -0.3369 0.5901
C16 C 0.4573(2) -0.4948(3) 0.6597(3)
H16 H 0.4263 -0.5351 0.5951
C17 C 0.3468(2) 0.1885(5) 0.5297(4)
H17 H 0.3300 0.1981 0.5716
H18 H 0.3560 0.1061 0.5295
C18 C 0.2900(3) 0.2251(4) 0.4190(4)
H19 H 0.2776 0.3049 0.4186
H20 H 0.2486 0.1767 0.3885
H21 H 0.3063 0.2178 0.3769
Co1_2 Co 0.5000 -0.74719(5) 0.7500
O1B O 0.42955(12) 0.25761(17) 0.78491(17)
O2B O 0.49989(13) 0.2413(2) 0.96456(19)
O3B O 0.58741(12) 0.25039(17) 0.91790(17)
H1B H 0.5822 0.2945 0.9620
N2_2 N 0.5000 0.4433(3) 0.7500
C1B C 0.44078(18) 0.2579(3) 0.8742(3)
C2B C 0.37694(19) 0.2779(3) 0.8704(3)
C3B C 0.3535(2) 0.3920(4) 0.8653(3)
C4B C 0.2941(2) 0.4054(5) 0.8634(3)
H2B H 0.2777 0.4802 0.8598
C5B C 0.2595(3) 0.3122(7) 0.8665(4)
C6B C 0.2828(3) 0.1996(6) 0.8694(4)
H3B H 0.2587 0.1361 0.8699
C7B C 0.3413(2) 0.1803(4) 0.8716(3)
C8B C 0.3900(2) 0.4949(4) 0.8598(4)
H4B H 0.4405 0.4912 0.9183
H5B H 0.3707 0.5656 0.8651
H6B H 0.3821 0.4938 0.7923
C9B C 0.1937(3) 0.3284(7) 0.8618(5)
H7B H 0.1974 0.4014 0.8947
H8B H 0.1914 0.2658 0.8998
H9B H 0.1510 0.3283 0.7878
C10B C 0.3653(3) 0.0591(4) 0.8719(4)
H10B H 0.3334 0.0034 0.8672
H11B H 0.4130 0.0466 0.9375
H12B H 0.3649 0.0497 0.8111
C11B C 0.50252(18) -0.0003(3) 0.8243(3)
H13B H 0.5038 0.0402 0.8765
C12B C 0.50334(18) -0.1193(3) 0.8284(3)
H14B H 0.5061 -0.1577 0.8827
C15B C 0.5438(2) -0.3751(3) 0.8439(3)
H15B H 0.5741 -0.3369 0.9099
C16B C 0.5427(2) -0.4948(3) 0.8403(3)
H16B H 0.5737 -0.5351 0.9049
C17B C 0.6532(2) 0.1885(5) 0.9703(4)
H17B H 0.6700 0.1981 0.9284
H18B H 0.6440 0.1061 0.9705
C18B C 0.7100(3) 0.2251(4) 1.0810(4)
H19B H 0.7224 0.3049 1.0814
H20B H 0.7514 0.1767 1.1115
H21B H 0.6937 0.2178 1.1231
loop_
_geom_bond_atom_site_label_1
_geom_bond_atom_site_label_2
_geom_bond_site_symmetry_1
_geom_bond_site_symmetry_2
Co1 O1 1_555 1_555
O1 C1 1_555 1_555
O2 C1 1_555 1_555
O3 Co1 1_555 1_555
H1 O3 1_555 1_555
N1 Co1 1_555 1_555
N2 C16 1_555 1_555
C1 C2 1_555 1_555
C2 C3 1_555 1_555
C3 C4 1_555 1_555
C4 H2 1_555 1_555
C5 C4 1_555 1_555
C6 C5 1_555 1_555
H3 C6 1_555 1_555
C7 C2 1_555 1_555
C8 C3 1_555 1_555
H4 C8 1_555 1_555
H5 C8 1_555 1_555
H6 C8 1_555 1_555
C9 C5 1_555 1_555
H7 C9 1_555 1_555
H8 C9 1_555 1_555
H9 C9 1_555 1_555
C10 C7 1_555 1_555
H10 C10 1_555 1_555
H11 C10 1_555 1_555
H12 C10 1_555 1_555
C11 N1 1_555 1_555
H13 C11 1_555 1_555
C12 C11 1_555 1_555
H14 C12 1_555 1_555
C13 C12 1_555 1_555
C14 C13 1_555 1_555
C15 C14 1_555 1_555
H15 C15 1_555 1_555
C16 C15 1_555 1_555
H16 C16 1_555 1_555
C17 O3 1_555 1_555
H17 C17 1_555 1_555
H18 C17 1_555 1_555
C18 C17 1_555 1_555
H19 C18 1_555 1_555
H20 C18 1_555 1_555
H21 C18 1_555 1_555
Co1_2 N2 1_555 1_555
O1B Co1 1_555 1_555
O2B C1B 1_555 1_555
O3B Co1 1_555 1_555
H1B O3B 1_555 1_555
N2_2 Co1 1_555 1_555
C1B O1B 1_555 1_555
C2B C1B 1_555 1_555
C3B C2B 1_555 1_555
C4B C3B 1_555 1_555
H2B C4B 1_555 1_555
C5B C4B 1_555 1_555
C6B C5B 1_555 1_555
H3B C6B 1_555 1_555
C7B C2B 1_555 1_555
C8B C3B 1_555 1_555
H4B C8B 1_555 1_555
H5B C8B 1_555 1_555
H6B C8B 1_555 1_555
C9B C5B 1_555 1_555
H7B C9B 1_555 1_555
H8B C9B 1_555 1_555
H9B C9B 1_555 1_555
C10B C7B 1_555 1_555
H10B C10B 1_555 1_555
H11B C10B 1_555 1_555
H12B C10B 1_555 1_555
C11B N1 1_555 1_555
H13B C11B 1_555 1_555
C12B C13 1_555 1_555
H14B C12B 1_555 1_555
C15B C14 1_555 1_555
H15B C15B 1_555 1_555
C16B N2 1_555 1_555
H16B C16B 1_555 1_555
C17B O3B 1_555 1_555
H17B C17B 1_555 1_555
H18B C17B 1_555 1_555
C18B C17B 1_555 1_555
H19B C18B 1_555 1_555
H20B C18B 1_555 1_555
H21B C18B 1_555 1_555
C6 C7 1_555 1_555
C6B C7B 1_555 1_555
C11B C12B 1_555 1_555
C15B C16B 1_555 1_555

#END
