
#######################################################################
#
#                 Cambridge Crystallographic Data Centre
#                                CCDC 
#
#######################################################################
#
# If this CIF has been generated from an entry in the Cambridge 
# Structural Database, then it will include bibliographic, chemical, 
# crystal, experimental, refinement or atomic coordinate data resulting 
# from the CCDC's data processing and validation procedures.
#
#######################################################################

data_WEVMOA
_symmetry_cell_setting           triclinic
_symmetry_space_group_name_H-M   'P -1'
_symmetry_Int_Tables_number      2
_space_group_name_Hall           '-P 1'
loop_
_symmetry_equiv_pos_site_id
_symmetry_equiv_pos_as_xyz
1 x,y,z
2 -x,-y,-z
_cell_length_a                   7.9134(17)
_cell_length_b                   9.986(2)
_cell_length_c                   11.494(3)
_cell_angle_alpha                90.194(3)
_cell_angle_beta                 94.070(3)
_cell_angle_gamma                111.031(3)
_cell_volume                     845.244
loop_
_atom_site_label
_atom_site_type_symbol
_atom_site_fract_x
_atom_site_fract_y
_atom_site_fract_z
Zn1 Zn 0.5000 0.5000 0.0000
F1 F 1.2887(2) 0.50104(16) 0.63408(13)
F2 F 1.16771(17) 0.19999(15) 0.30452(12)
O1 O 0.60706(19) 0.08401(16) 0.34878(13)
H1 H 0.5288 0.0109 0.3196
O2 O 0.72744(18) 0.64946(14) -0.08118(12)
H2 H 0.8174 0.6343 -0.1067
H3 H 0.7388 0.7374 -0.0811
N1 N 0.7889(2) 0.25400(16) 0.15982(14)
N2 N 0.9354(2) 0.37890(17) 0.15970(15)
N3 N 0.6820(2) 0.41046(16) 0.08685(13)
N4 N 0.6735(2) -0.17969(16) 0.27884(14)
N5 N 0.5058(2) -0.25305(19) 0.31415(16)
N6 N 0.5466(2) -0.34817(16) 0.14618(14)
C1 C 0.6420(3) 0.2753(2) 0.11605(17)
H4 H 0.5265 0.2049 0.1070
C2 C 0.8627(3) 0.4689(2) 0.11595(17)
H5 H 0.9301 0.5652 0.1058
C3 C 0.8055(3) 0.11828(19) 0.19334(16)
H6 H 0.9246 0.1199 0.1763
H7 H 0.7156 0.0410 0.1465
C4 C 0.7802(3) 0.08710(19) 0.32280(17)
C5 C 0.8018(3) -0.05812(19) 0.34866(17)
H8 H 0.9244 -0.0501 0.3345
H9 H 0.7861 -0.0775 0.4306
C6 C 0.6950(3) -0.2379(2) 0.17973(17)
H10 H 0.7996 -0.2057 0.1396
C7 C 0.4361(3) -0.3521(2) 0.23173(19)
H11 H 0.3194 -0.4201 0.2319
C8 C 0.9186(3) 0.20013(19) 0.40559(16)
C9 C 0.8633(3) 0.2536(2) 0.50221(18)
H12 H 0.7407 0.2214 0.5152
C10 C 0.9879(4) 0.3540(3) 0.5793(2)
H13 H 0.9494 0.3883 0.6438
C11 C 1.1666(3) 0.4015(2) 0.5597(2)
C12 C 1.2307(3) 0.3528(2) 0.46725(19)
H14 H 1.3537 0.3860 0.4550
C13 C 1.1030(3) 0.2517(2) 0.39339(18)
Zn1_2 Zn 0.5000 -0.5000 0.0000
Zn1_3 Zn 0.5000 1.5000 0.0000
F1A F -0.2887(2) 0.49896(16) -0.63408(13)
F2A F -0.16771(17) 0.80001(15) -0.30452(12)
O1A O 0.39294(19) 0.91599(16) -0.34878(13)
H1A H 0.4712 0.9891 -0.3196
O2A O 0.27256(18) 0.35054(14) 0.08118(12)
H2A H 0.1826 0.3657 0.1067
H3A H 0.2612 0.2626 0.0811
N1A N 0.2111(2) 0.74600(16) -0.15982(14)
N2A N 0.0646(2) 0.62110(17) -0.15970(15)
N3A N 0.3180(2) 0.58954(16) -0.08685(13)
N4A N 0.3265(2) 1.17969(16) -0.27884(14)
N5A N 0.4942(2) 1.25305(19) -0.31415(16)
N6A N 0.4534(2) 1.34817(16) -0.14618(14)
N6_2 N 0.5466(2) 0.65183(16) 0.14618(14)
N6A_2 N 0.4534(2) 0.34817(16) -0.14618(14)
C1A C 0.3580(3) 0.7247(2) -0.11605(17)
H4A H 0.4735 0.7951 -0.1070
C2A C 0.1373(3) 0.5311(2) -0.11595(17)
H5A H 0.0699 0.4348 -0.1058
C3A C 0.1945(3) 0.88172(19) -0.19334(16)
H6A H 0.0754 0.8801 -0.1763
H7A H 0.2844 0.9590 -0.1465
C4A C 0.2198(3) 0.91290(19) -0.32280(17)
C5A C 0.1982(3) 1.05812(19) -0.34866(17)
H8A H 0.0756 1.0501 -0.3345
H9A H 0.2139 1.0775 -0.4306
C6A C 0.3050(3) 1.2379(2) -0.17973(17)
H10A H 0.2004 1.2057 -0.1396
C7A C 0.5639(3) 1.3521(2) -0.23173(19)
H11A H 0.6806 1.4201 -0.2319
C8A C 0.0814(3) 0.79987(19) -0.40559(16)
C9A C 0.1367(3) 0.7464(2) -0.50221(18)
H12A H 0.2593 0.7786 -0.5152
C10A C 0.0121(4) 0.6460(3) -0.5793(2)
H13A H 0.0506 0.6117 -0.6438
C11A C -0.1666(3) 0.5985(2) -0.5597(2)
C12A C -0.2307(3) 0.6472(2) -0.46725(19)
H14A H -0.3537 0.6140 -0.4550
C13A C -0.1030(3) 0.7483(2) -0.39339(18)
Cl1 Cl 0.21778(6) 0.92409(5) 0.12612(4)
O3 O 0.2001(3) 0.9231(2) 0.24779(16)
O4 O 0.3915(2) 0.9218(2) 0.10479(18)
O5 O 0.0805(2) 0.80299(17) 0.06879(17)
O6 O 0.2018(3) 1.05152(17) 0.07847(17)
loop_
_geom_bond_atom_site_label_1
_geom_bond_atom_site_label_2
_geom_bond_site_symmetry_1
_geom_bond_site_symmetry_2
Zn1 O2 1_555 1_555
F1 C11 1_555 1_555
F2 C13 1_555 1_555
O1 H1 1_555 1_555
O2 H2 1_555 1_555
H3 O2 1_555 1_555
N1 N2 1_555 1_555
N2 C2 1_555 1_555
N3 Zn1 1_555 1_555
N4 N5 1_555 1_555
N5 C7 1_555 1_555
N6 C6 1_555 1_555
C1 N1 1_555 1_555
H4 C1 1_555 1_555
C2 N3 1_555 1_555
H5 C2 1_555 1_555
C3 N1 1_555 1_555
H6 C3 1_555 1_555
H7 C3 1_555 1_555
C4 O1 1_555 1_555
C5 N4 1_555 1_555
H8 C5 1_555 1_555
H9 C5 1_555 1_555
C6 N4 1_555 1_555
H10 C6 1_555 1_555
C7 N6 1_555 1_555
H11 C7 1_555 1_555
C8 C4 1_555 1_555
C9 C8 1_555 1_555
H12 C9 1_555 1_555
C10 C9 1_555 1_555
H13 C10 1_555 1_555
C11 C10 1_555 1_555
C12 C11 1_555 1_555
H14 C12 1_555 1_555
C13 C8 1_555 1_555
Cl1 O3 1_555 1_555
O4 Cl1 1_555 1_555
O5 Cl1 1_555 1_555
O6 Cl1 1_555 1_555
Zn1_2 N6 1_555 1_555
Zn1_3 N6A 1_555 1_555
F1A C11A 1_555 1_555
F2A C13A 1_555 1_555
O1A H1A 1_555 1_555
O2A Zn1 1_555 1_555
H2A O2A 1_555 1_555
H3A O2A 1_555 1_555
N1A N2A 1_555 1_555
N2A C2A 1_555 1_555
N3A Zn1 1_555 1_555
N4A N5A 1_555 1_555
N5A C7A 1_555 1_555
N6A C6A 1_555 1_555
N6_2 Zn1 1_555 1_555
N6A_2 Zn1 1_555 1_555
C1A N1A 1_555 1_555
H4A C1A 1_555 1_555
C2A N3A 1_555 1_555
H5A C2A 1_555 1_555
C3A N1A 1_555 1_555
H6A C3A 1_555 1_555
H7A C3A 1_555 1_555
C4A O1A 1_555 1_555
C5A N4A 1_555 1_555
H8A C5A 1_555 1_555
H9A C5A 1_555 1_555
C6A N4A 1_555 1_555
H10A C6A 1_555 1_555
C7A N6A 1_555 1_555
H11A C7A 1_555 1_555
C8A C4A 1_555 1_555
C9A C8A 1_555 1_555
H12A C9A 1_555 1_555
C10A C9A 1_555 1_555
H13A C10A 1_555 1_555
C11A C10A 1_555 1_555
C12A C11A 1_555 1_555
H14A C12A 1_555 1_555
C13A C8A 1_555 1_555
N3 C1 1_555 1_555
C3 C4 1_555 1_555
C4 C5 1_555 1_555
C12 C13 1_555 1_555
N3A C1A 1_555 1_555
C3A C4A 1_555 1_555
C4A C5A 1_555 1_555
C12A C13A 1_555 1_555

#END
