
#######################################################################
#
#                 Cambridge Crystallographic Data Centre
#                                CCDC 
#
#######################################################################
#
# If this CIF has been generated from an entry in the Cambridge 
# Structural Database, then it will include bibliographic, chemical, 
# crystal, experimental, refinement or atomic coordinate data resulting 
# from the CCDC's data processing and validation procedures.
#
#######################################################################

data_WEVMOA01
_symmetry_cell_setting           triclinic
_symmetry_space_group_name_H-M   'P -1'
_symmetry_Int_Tables_number      2
_space_group_name_Hall           '-P 1'
loop_
_symmetry_equiv_pos_site_id
_symmetry_equiv_pos_as_xyz
1 x,y,z
2 -x,-y,-z
_cell_length_a                   7.932(2)
_cell_length_b                   9.993(3)
_cell_length_c                   11.510(3)
_cell_angle_alpha                90.134(4)
_cell_angle_beta                 94.022(4)
_cell_angle_gamma                111.137(3)
_cell_volume                     848.483
loop_
_atom_site_label
_atom_site_type_symbol
_atom_site_fract_x
_atom_site_fract_y
_atom_site_fract_z
Zn1 Zn 0.0000 0.5000 0.5000
F1 F 0.6665(3) 1.1997(2) 0.80436(18)
F2 F 0.7886(3) 1.5009(2) 1.13293(19)
N1 N 0.1727(3) 0.8198(2) 0.7793(2)
N2 N 0.0051(4) 0.7465(3) 0.8142(2)
N3 N 0.0467(3) 0.6514(2) 0.6463(2)
N4 N 0.2878(3) 1.2541(2) 0.6604(2)
N5 N 0.4342(3) 1.3791(2) 0.6595(2)
N6 N 0.1810(3) 1.4105(2) 0.5870(2)
O1 O 0.1069(3) 1.0837(2) 0.84895(19)
H1 H 0.0286 1.0237 0.8064
O6 O 0.2279(3) 0.6498(2) 0.41901(18)
H2 H 0.2454 0.7382 0.4104
H3 H 0.3224 0.6404 0.3955
C1 C -0.0630(4) 0.6484(3) 0.7317(3)
H4 H -0.1797 0.5805 0.7316
C2 C 0.1944(4) 0.7617(3) 0.6801(3)
H5 H 0.2990 0.7943 0.6401
C3 C 0.3618(4) 1.4683(3) 0.6159(3)
H6 H 0.4295 1.5645 0.6054
C4 C 0.1414(4) 1.2751(3) 0.6169(3)
H7 H 0.0261 1.2046 0.6085
C5 C 0.3006(4) 0.9417(3) 0.8491(3)
H8 H 0.4230 0.9494 0.8355
H9 H 0.2840 0.9225 0.9309
C6 C 0.2807(4) 1.0868(3) 0.8229(3)
C7 C 0.3049(4) 1.1181(3) 0.6937(2)
H10 H 0.2149 1.0407 0.6471
H11 H 0.4236 1.1201 0.6761
C8 C 0.4181(4) 1.2002(3) 0.9055(3)
C9 C 0.6030(4) 1.2516(3) 0.8934(3)
C10 C 0.7302(5) 1.3526(3) 0.9667(3)
H12 H 0.8530 1.3860 0.9544
C11 C 0.6656(5) 1.4011(3) 1.0589(3)
C12 C 0.4887(6) 1.3540(4) 1.0787(3)
H13 H 0.4508 1.3885 1.1432
C13 C 0.3627(5) 1.2532(4) 1.0017(3)
H14 H 0.2403 1.2210 1.0149
Zn1_2 Zn 0.0000 1.5000 0.5000
Zn1_3 Zn 0.0000 -0.5000 0.5000
F1A F -0.6665(3) -0.1997(2) 0.19564(18)
F2A F -0.7886(3) -0.5009(2) -0.13293(19)
N1A N -0.1727(3) 0.1802(2) 0.2207(2)
N2A N -0.0051(4) 0.2535(3) 0.1858(2)
N3A N -0.0467(3) 0.3486(2) 0.3537(2)
N4A N -0.2878(3) -0.2541(2) 0.3396(2)
N5A N -0.4342(3) -0.3791(2) 0.3405(2)
N6A N -0.1810(3) -0.4105(2) 0.4130(2)
N6_2 N 0.1810(3) 0.4105(2) 0.5870(2)
N6A_2 N -0.1810(3) 0.5895(2) 0.4130(2)
O1A O -0.1069(3) -0.0837(2) 0.15105(19)
H1A H -0.0286 -0.0237 0.1936
O6A O -0.2279(3) 0.3502(2) 0.58099(18)
H2A H -0.2454 0.2618 0.5896
H3A H -0.3224 0.3596 0.6045
C1A C 0.0630(4) 0.3516(3) 0.2683(3)
H4A H 0.1797 0.4195 0.2684
C2A C -0.1944(4) 0.2383(3) 0.3199(3)
H5A H -0.2990 0.2057 0.3599
C3A C -0.3618(4) -0.4683(3) 0.3841(3)
H6A H -0.4295 -0.5645 0.3946
C4A C -0.1414(4) -0.2751(3) 0.3831(3)
H7A H -0.0261 -0.2046 0.3915
C5A C -0.3006(4) 0.0583(3) 0.1509(3)
H8A H -0.4230 0.0506 0.1645
H9A H -0.2840 0.0775 0.0691
C6A C -0.2807(4) -0.0868(3) 0.1771(3)
C7A C -0.3049(4) -0.1181(3) 0.3063(2)
H10A H -0.2149 -0.0407 0.3529
H11A H -0.4236 -0.1201 0.3239
C8A C -0.4181(4) -0.2002(3) 0.0945(3)
C9A C -0.6030(4) -0.2516(3) 0.1066(3)
C10A C -0.7302(5) -0.3526(3) 0.0333(3)
H12A H -0.8530 -0.3860 0.0456
C11A C -0.6656(5) -0.4011(3) -0.0589(3)
C12A C -0.4887(6) -0.3540(4) -0.0787(3)
H13A H -0.4508 -0.3885 -0.1432
C13A C -0.3627(5) -0.2532(4) -0.0017(3)
H14A H -0.2403 -0.2210 -0.0149
Cl1 Cl 0.71721(10) 0.92386(7) 0.62546(7)
O2 O 0.7018(4) 1.0508(2) 0.5775(2)
O3 O 0.6998(5) 0.9231(3) 0.7471(2)
O4 O 0.8898(3) 0.9208(3) 0.6049(3)
O5 O 0.5799(3) 0.8026(2) 0.5686(2)
loop_
_geom_bond_atom_site_label_1
_geom_bond_atom_site_label_2
_geom_bond_site_symmetry_1
_geom_bond_site_symmetry_2
Zn1 N3 1_555 1_555
Cl1 O2 1_555 1_555
F1 C9 1_555 1_555
F2 C11 1_555 1_555
N1 N2 1_555 1_555
N2 C1 1_555 1_555
N3 C1 1_555 1_555
N4 N5 1_555 1_555
N5 C3 1_555 1_555
N6 C3 1_555 1_555
O1 H1 1_555 1_555
O3 Cl1 1_555 1_555
O4 Cl1 1_555 1_555
O5 Cl1 1_555 1_555
O6 Zn1 1_555 1_555
H2 O6 1_555 1_555
H3 O6 1_555 1_555
C1 H4 1_555 1_555
C2 N1 1_555 1_555
H5 C2 1_555 1_555
C3 H6 1_555 1_555
C4 N4 1_555 1_555
H7 C4 1_555 1_555
C5 N1 1_555 1_555
H8 C5 1_555 1_555
H9 C5 1_555 1_555
C6 O1 1_555 1_555
C7 N4 1_555 1_555
H10 C7 1_555 1_555
H11 C7 1_555 1_555
C8 C6 1_555 1_555
C9 C8 1_555 1_555
C10 C9 1_555 1_555
H12 C10 1_555 1_555
C11 C10 1_555 1_555
C12 C11 1_555 1_555
H13 C12 1_555 1_555
C13 C8 1_555 1_555
H14 C13 1_555 1_555
Zn1_2 N6 1_555 1_555
Zn1_3 N6A 1_555 1_555
F1A C9A 1_555 1_555
F2A C11A 1_555 1_555
N1A N2A 1_555 1_555
N2A C1A 1_555 1_555
N3A Zn1 1_555 1_555
N4A N5A 1_555 1_555
N5A C3A 1_555 1_555
N6A C3A 1_555 1_555
N6_2 Zn1 1_555 1_555
N6A_2 Zn1 1_555 1_555
O1A H1A 1_555 1_555
O6A Zn1 1_555 1_555
H2A O6A 1_555 1_555
H3A O6A 1_555 1_555
C1A N3A 1_555 1_555
H4A C1A 1_555 1_555
C2A N1A 1_555 1_555
H5A C2A 1_555 1_555
C3A H6A 1_555 1_555
C4A N4A 1_555 1_555
H7A C4A 1_555 1_555
C5A N1A 1_555 1_555
H8A C5A 1_555 1_555
H9A C5A 1_555 1_555
C6A O1A 1_555 1_555
C7A N4A 1_555 1_555
H10A C7A 1_555 1_555
H11A C7A 1_555 1_555
C8A C6A 1_555 1_555
C9A C8A 1_555 1_555
C10A C9A 1_555 1_555
H12A C10A 1_555 1_555
C11A C10A 1_555 1_555
C12A C11A 1_555 1_555
H13A C12A 1_555 1_555
C13A C8A 1_555 1_555
H14A C13A 1_555 1_555
N3 C2 1_555 1_555
N6 C4 1_555 1_555
C5 C6 1_555 1_555
C6 C7 1_555 1_555
C12 C13 1_555 1_555
N3A C2A 1_555 1_555
N6A C4A 1_555 1_555
C5A C6A 1_555 1_555
C6A C7A 1_555 1_555
C12A C13A 1_555 1_555

#END
