
#######################################################################
#
#                 Cambridge Crystallographic Data Centre
#                                CCDC 
#
#######################################################################
#
# If this CIF has been generated from an entry in the Cambridge 
# Structural Database, then it will include bibliographic, chemical, 
# crystal, experimental, refinement or atomic coordinate data resulting 
# from the CCDC's data processing and validation procedures.
#
#######################################################################

data_WEVNOB
_symmetry_cell_setting           monoclinic
_symmetry_space_group_name_H-M   'P 21/n'
_symmetry_Int_Tables_number      14
_space_group_name_Hall           '-P 2yn'
loop_
_symmetry_equiv_pos_site_id
_symmetry_equiv_pos_as_xyz
1 x,y,z
2 1/2-x,1/2+y,1/2-z
3 -x,-y,-z
4 1/2+x,1/2-y,1/2+z
_cell_length_a                   7.2259(12)
_cell_length_b                   13.521(2)
_cell_length_c                   22.655(4)
_cell_angle_alpha                90
_cell_angle_beta                 90.322(4)
_cell_angle_gamma                90
_cell_volume                     2213.39
loop_
_atom_site_label
_atom_site_type_symbol
_atom_site_fract_x
_atom_site_fract_y
_atom_site_fract_z
Na1 Na 0.5000 0.5000 0.5000
Na2 Na 1.0000 0.5000 0.5000
N1 N 0.7078(3) 0.26795(18) 0.50276(11)
N2 N 0.8010(3) 0.54131(18) 0.63781(10)
N3 N 0.6512(3) 0.53176(19) 0.35073(10)
N4 N 0.8359(3) 0.73546(17) 0.45411(11)
O1 O 0.7366(3) 0.40894(14) 0.44876(8)
O2 O 0.7592(2) 0.59717(14) 0.54430(8)
O3 O 0.4839(3) 0.60875(14) 0.42137(8)
O4 O 1.0096(3) 0.60781(14) 0.42057(8)
C1 C 0.7660(3) 0.3165(2) 0.45319(12)
C2 C 0.8577(4) 0.2569(2) 0.41096(13)
H1 H 0.8982 0.2856 0.3750
C3 C 0.8887(4) 0.1583(2) 0.42137(14)
H2 H 0.9515 0.1196 0.3928
C4 C 0.8284(4) 0.1140(2) 0.47383(14)
H3 H 0.8505 0.0458 0.4811
C5 C 0.7383(4) 0.1701(2) 0.51377(13)
H4 H 0.6962 0.1414 0.5495
C6 C 0.7405(4) 0.6117(2) 0.59910(12)
C7 C 0.6605(4) 0.6979(2) 0.62504(13)
H5 H 0.6153 0.7495 0.6005
C8 C 0.6486(4) 0.7065(2) 0.68517(13)
H6 H 0.5966 0.7646 0.7019
C9 C 0.7122(4) 0.6308(2) 0.72221(13)
H7 H 0.7035 0.6369 0.7639
C10 C 0.7863(4) 0.5487(2) 0.69771(12)
H8 H 0.8282 0.4961 0.7222
C11 C 0.5393(3) 0.6075(2) 0.36883(12)
C12 C 0.4955(4) 0.6789(2) 0.32485(13)
H9 H 0.4197 0.7340 0.3345
C13 C 0.5614(4) 0.6691(3) 0.26902(14)
H10 H 0.5288 0.7169 0.2401
C14 C 0.6762(4) 0.5902(3) 0.25320(14)
H11 H 0.7224 0.5841 0.2142
C15 C 0.7192(4) 0.5228(2) 0.29519(13)
H12 H 0.7976 0.4687 0.2858
C16 C 0.9436(3) 0.6932(2) 0.41155(12)
C17 C 0.9722(4) 0.7520(2) 0.36032(13)
H13 H 1.0474 0.7274 0.3294
C18 C 0.8935(4) 0.8427(2) 0.35505(14)
H14 H 0.9135 0.8804 0.3203
C19 C 0.7830(4) 0.8818(2) 0.40024(14)
H15 H 0.7280 0.9454 0.3965
C20 C 0.7570(4) 0.8267(2) 0.44908(13)
H16 H 0.6830 0.8516 0.4803
H17 H 0.663(4) 0.302(2) 0.5289(14)
H18 H 0.844(4) 0.486(2) 0.6223(13)
H19 H 0.680(4) 0.489(2) 0.3767(13)
H20 H 0.804(4) 0.699(2) 0.4844(14)
Na2_2 Na 0.0000 0.5000 0.5000
N1B N 0.2922(3) 0.73205(18) 0.49724(11)
N2B N 0.1990(3) 0.45869(18) 0.36219(10)
N3B N 0.3488(3) 0.46824(19) 0.64927(10)
N4B N 1.1641(3) 0.26454(17) 0.54589(11)
O1B O 0.2634(3) 0.59106(14) 0.55124(8)
O1B_2 O 1.2634(3) 0.59106(14) 0.55124(8)
O2B O 0.2408(2) 0.40283(14) 0.45570(8)
O2B_2 O 1.2408(2) 0.40283(14) 0.45570(8)
O3B O 0.5161(3) 0.39125(14) 0.57863(8)
O4B O 0.9904(3) 0.39219(14) 0.57943(8)
C1B C 0.2340(3) 0.6835(2) 0.54681(12)
C2B C 0.1423(4) 0.7431(2) 0.58904(13)
H1B H 0.1018 0.7144 0.6250
C3B C 0.1113(4) 0.8417(2) 0.57863(14)
H2B H 0.0485 0.8804 0.6072
C4B C 0.1716(4) 0.8860(2) 0.52617(14)
H3B H 0.1495 0.9542 0.5189
C5B C 0.2617(4) 0.8299(2) 0.48623(13)
H4B H 0.3038 0.8586 0.4505
C6B C 0.2595(4) 0.3883(2) 0.40090(12)
C7B C 0.3395(4) 0.3021(2) 0.37496(13)
H5B H 0.3847 0.2505 0.3995
C8B C 0.3514(4) 0.2935(2) 0.31483(13)
H6B H 0.4034 0.2354 0.2981
C9B C 0.2878(4) 0.3692(2) 0.27779(13)
H7B H 0.2965 0.3631 0.2361
C10B C 0.2137(4) 0.4513(2) 0.30229(12)
H8B H 0.1718 0.5039 0.2778
C11B C 0.4607(3) 0.3925(2) 0.63117(12)
C12B C 0.5045(4) 0.3211(2) 0.67515(13)
H9B H 0.5803 0.2660 0.6655
C13B C 0.4386(4) 0.3309(3) 0.73098(14)
H10B H 0.4712 0.2831 0.7599
C14B C 0.3238(4) 0.4098(3) 0.74680(14)
H11B H 0.2776 0.4159 0.7858
C15B C 0.2808(4) 0.4772(2) 0.70481(13)
H12B H 0.2024 0.5313 0.7142
C16B C 1.0564(3) 0.3068(2) 0.58845(12)
C17B C 1.0278(4) 0.2480(2) 0.63968(13)
H13B H 0.9526 0.2726 0.6706
C18B C 1.1065(4) 0.1573(2) 0.64495(14)
H14B H 1.0865 0.1196 0.6797
C19B C 1.2170(4) 0.1182(2) 0.59976(14)
H15B H 1.2720 0.0546 0.6035
C20B C 1.2430(4) 0.1733(2) 0.55092(13)
H16B H 1.3170 0.1484 0.5197
H17B H 0.337(4) 0.698(2) 0.4711(14)
H18B H 0.156(4) 0.514(2) 0.3777(13)
H19B H 0.320(4) 0.511(2) 0.6233(13)
H20B H 1.196(4) 0.301(2) 0.5156(14)
B1 B 0.1599(5) 0.5219(3) 0.13962(16)
F1 F 0.3086(3) 0.55499(16) 0.17229(9)
F2 F 0.1460(3) 0.41937(14) 0.14367(9)
F3 F 0.0019(3) 0.56367(18) 0.16124(14)
F4 F 0.1815(3) 0.54898(16) 0.08153(9)
loop_
_geom_bond_atom_site_label_1
_geom_bond_atom_site_label_2
_geom_bond_site_symmetry_1
_geom_bond_site_symmetry_2
Na1 O1 1_555 1_555
Na2 O1 1_555 1_555
N1 C1 1_555 1_555
N2 C6 1_555 1_555
N3 C11 1_555 1_555
N4 C16 1_555 1_555
O1 C1 1_555 1_555
O2 Na1 1_555 1_555
O3 Na1 1_555 1_555
O4 Na2 1_555 1_555
B1 F1 1_555 1_555
C1 C2 1_555 1_555
C2 H1 1_555 1_555
C3 C2 1_555 1_555
H2 C3 1_555 1_555
C4 C3 1_555 1_555
H3 C4 1_555 1_555
C5 N1 1_555 1_555
H4 C5 1_555 1_555
C6 O2 1_555 1_555
C7 C6 1_555 1_555
H5 C7 1_555 1_555
C8 C7 1_555 1_555
H6 C8 1_555 1_555
C9 C8 1_555 1_555
H7 C9 1_555 1_555
C10 N2 1_555 1_555
H8 C10 1_555 1_555
C11 O3 1_555 1_555
C12 C11 1_555 1_555
H9 C12 1_555 1_555
C13 C12 1_555 1_555
H10 C13 1_555 1_555
C14 C13 1_555 1_555
H11 C14 1_555 1_555
C15 N3 1_555 1_555
H12 C15 1_555 1_555
C16 O4 1_555 1_555
C17 C16 1_555 1_555
H13 C17 1_555 1_555
C18 C17 1_555 1_555
H14 C18 1_555 1_555
C19 C18 1_555 1_555
H15 C19 1_555 1_555
C20 N4 1_555 1_555
H16 C20 1_555 1_555
H17 N1 1_555 1_555
H18 N2 1_555 1_555
H19 N3 1_555 1_555
H20 N4 1_555 1_555
F2 B1 1_555 1_555
F3 B1 1_555 1_555
F4 B1 1_555 1_555
Na2_2 O1B 1_555 1_555
N1B C1B 1_555 1_555
N2B C6B 1_555 1_555
N3B C11B 1_555 1_555
N4B C16B 1_555 1_555
O1B Na1 1_555 1_555
O1B_2 Na2 1_555 1_555
O2B Na1 1_555 1_555
O2B_2 Na2 1_555 1_555
O3B Na1 1_555 1_555
O4B Na2 1_555 1_555
C1B O1B 1_555 1_555
C2B C1B 1_555 1_555
H1B C2B 1_555 1_555
C3B C2B 1_555 1_555
H2B C3B 1_555 1_555
C4B C3B 1_555 1_555
H3B C4B 1_555 1_555
C5B N1B 1_555 1_555
H4B C5B 1_555 1_555
C6B O2B 1_555 1_555
C7B C6B 1_555 1_555
H5B C7B 1_555 1_555
C8B C7B 1_555 1_555
H6B C8B 1_555 1_555
C9B C8B 1_555 1_555
H7B C9B 1_555 1_555
C10B N2B 1_555 1_555
H8B C10B 1_555 1_555
C11B O3B 1_555 1_555
C12B C11B 1_555 1_555
H9B C12B 1_555 1_555
C13B C12B 1_555 1_555
H10B C13B 1_555 1_555
C14B C13B 1_555 1_555
H11B C14B 1_555 1_555
C15B N3B 1_555 1_555
H12B C15B 1_555 1_555
C16B O4B 1_555 1_555
C17B C16B 1_555 1_555
H13B C17B 1_555 1_555
C18B C17B 1_555 1_555
H14B C18B 1_555 1_555
C19B C18B 1_555 1_555
H15B C19B 1_555 1_555
C20B N4B 1_555 1_555
H16B C20B 1_555 1_555
H17B N1B 1_555 1_555
H18B N2B 1_555 1_555
H19B N3B 1_555 1_555
H20B N4B 1_555 1_555
Na2 O2 1_555 1_555
C4 C5 1_555 1_555
C9 C10 1_555 1_555
C14 C15 1_555 1_555
C19 C20 1_555 1_555
Na2_2 O2B 1_555 1_555
C4B C5B 1_555 1_555
C9B C10B 1_555 1_555
C14B C15B 1_555 1_555
C19B C20B 1_555 1_555

#END
