
#######################################################################
#
#                 Cambridge Crystallographic Data Centre
#                                CCDC 
#
#######################################################################
#
# If this CIF has been generated from an entry in the Cambridge 
# Structural Database, then it will include bibliographic, chemical, 
# crystal, experimental, refinement or atomic coordinate data resulting 
# from the CCDC's data processing and validation procedures.
#
#######################################################################

data_WEVPAP01
_symmetry_cell_setting           triclinic
_symmetry_space_group_name_H-M   'P -1'
_symmetry_Int_Tables_number      2
_space_group_name_Hall           '-P 1'
loop_
_symmetry_equiv_pos_site_id
_symmetry_equiv_pos_as_xyz
1 x,y,z
2 -x,-y,-z
_cell_length_a                   10.9802(7)
_cell_length_b                   11.4929(7)
_cell_length_c                   14.8800(9)
_cell_angle_alpha                82.3570(10)
_cell_angle_beta                 83.4290(10)
_cell_angle_gamma                65.9560(10)
_cell_volume                     1695.84
loop_
_atom_site_label
_atom_site_type_symbol
_atom_site_fract_x
_atom_site_fract_y
_atom_site_fract_z
Mn1 Mn -0.46345(10) 0.59656(10) 0.39569(6)
Mn2 Mn 0.0000 0.5000 0.5000
Fe1 Fe -0.53142(12) 0.21071(11) 0.26433(7)
Fe2 Fe -0.82003(11) 0.87770(10) 0.15463(7)
Fe3 Fe -0.20954(10) 0.58654(10) 0.13527(6)
O1 O -0.3820(5) 0.4051(5) 0.3597(3)
O2 O -0.5246(5) 0.3797(5) 0.4686(3)
O3 O -0.6684(5) 0.6330(5) 0.3512(4)
O4 O -0.5986(5) 0.7866(5) 0.3434(4)
O5 O -0.2851(5) 0.6204(5) 0.3835(3)
O6 O -0.0677(5) 0.5697(5) 0.3644(3)
O7 O 0.1980(5) 0.4720(5) 0.4340(4)
N1 N 0.0250(6) 0.2999(5) 0.4806(4)
C1 C -0.4452(7) 0.3433(7) 0.4001(4)
C2 C -0.6875(7) 0.7490(7) 0.3303(4)
C3 C -0.1813(7) 0.6169(6) 0.3355(4)
C4 C -0.0745(9) 0.2864(7) 0.4496(5)
H1 H -0.1396 0.3588 0.4219
C5 C -0.0901(8) 0.1724(7) 0.4549(6)
H2 H -0.1642 0.1693 0.4323
C6 C 0.0059(7) 0.0632(6) 0.4941(5)
C7 C 0.1125(7) 0.0776(7) 0.5260(6)
H3 H 0.1808 0.0067 0.5524
C8 C 0.1174(8) 0.1946(7) 0.5188(6)
H4 H 0.1893 0.2014 0.5417
C9 C -0.4661(10) 0.0444(8) 0.3482(7)
H5 H -0.5027 -0.0213 0.3552
C10 C -0.3622(9) 0.0490(8) 0.2858(7)
H6 H -0.3145 -0.0129 0.2414
C11 C -0.3405(8) 0.1590(8) 0.2948(6)
H7 H -0.2738 0.1858 0.2595
C12 C -0.4308(7) 0.2226(7) 0.3675(5)
C13 C -0.5072(9) 0.1495(8) 0.3997(6)
H8 H -0.5785 0.1701 0.4485
C14 C -0.6815(11) 0.2177(12) 0.1909(7)
H9 H -0.7193 0.1530 0.1960
C15 C -0.5726(12) 0.2188(11) 0.1330(6)
H10 H -0.5215 0.1560 0.0897
C16 C -0.5508(12) 0.3266(11) 0.1468(6)
H11 H -0.4814 0.3525 0.1148
C17 C -0.6456(12) 0.3920(10) 0.2131(7)
H12 H -0.6541 0.4713 0.2358
C18 C -0.7263(10) 0.3236(11) 0.2420(7)
H13 H -0.8014 0.3469 0.2880
C19 C -1.0047(8) 0.9195(10) 0.2187(6)
H14 H -1.0841 0.9260 0.1907
C20 C -0.9666(10) 1.0192(10) 0.2225(7)
H15 H -1.0141 1.1078 0.1971
C21 C -0.8459(9) 0.9720(7) 0.2668(6)
H16 H -0.7961 1.0217 0.2790
C22 C -0.8116(7) 0.8390(7) 0.2915(5)
C23 C -0.9124(7) 0.8077(8) 0.2621(5)
H17 H -0.9160 0.7231 0.2701
C24 C -0.6344(9) 0.7798(11) 0.0993(6)
H18 H -0.5551 0.7296 0.1332
C25 C -0.6777(13) 0.9101(13) 0.0693(8)
H19 H -0.6341 0.9676 0.0759
C26 C -0.7932(12) 0.9388(11) 0.0223(7)
H20 H -0.8470 1.0226 -0.0078
C27 C -0.8172(11) 0.8308(12) 0.0256(6)
H21 H -0.8915 0.8241 -0.0010
C28 C -0.7198(11) 0.7334(10) 0.0721(6)
H22 H -0.7127 0.6451 0.0846
C29 C -0.1598(9) 0.4705(8) 0.0333(5)
H23 H -0.1216 0.4859 -0.0277
C30 C -0.0873(9) 0.4037(7) 0.1098(6)
H24 H 0.0102 0.3643 0.1118
C31 C -0.1823(9) 0.4026(7) 0.1831(5)
H25 H -0.1613 0.3635 0.2451
C32 C -0.3106(8) 0.4698(7) 0.1525(5)
H26 H -0.3950 0.4846 0.1887
C33 C -0.2963(9) 0.5104(8) 0.0602(5)
H27 H -0.3698 0.5593 0.0209
C34 C -0.2882(8) 0.7816(7) 0.1067(5)
H28 H -0.3534 0.8305 0.0616
C35 C -0.1491(8) 0.7305(7) 0.0907(5)
H29 H -0.1004 0.7383 0.0323
C36 C -0.0908(8) 0.6664(7) 0.1719(5)
H30 H 0.0052 0.6226 0.1802
C37 C -0.1965(7) 0.6760(6) 0.2407(4)
C38 C -0.3182(7) 0.7473(6) 0.1989(4)
H31 H -0.4081 0.7689 0.2287
H32 H 0.259(4) 0.424(5) 0.469(3)
H33 H 0.226(5) 0.520(5) 0.397(4)
C6A C -0.0059(7) -0.0632(6) 0.5059(5)
C5A C 0.0901(8) -0.1724(7) 0.5451(6)
C4A C 0.0745(9) -0.2864(7) 0.5504(5)
N1A N -0.0250(6) -0.2999(5) 0.5194(4)
C8A C -0.1174(8) -0.1946(7) 0.4812(6)
C7A C -0.1125(7) -0.0776(7) 0.4740(6)
H3A H -0.1808 -0.0067 0.4476
H4A H -0.1893 -0.2014 0.4583
H1A H 0.1396 -0.3588 0.5781
H2A H 0.1642 -0.1693 0.5677
O5A O 0.2851(5) 0.3796(5) 0.6165(3)
O6A O 0.0677(5) 0.4303(5) 0.6356(3)
C3A C 0.1813(7) 0.3831(6) 0.6645(4)
C34A C 0.2882(8) 0.2184(7) 0.8933(5)
H28A H 0.3534 0.1695 0.9384
C35A C 0.1491(8) 0.2695(7) 0.9093(5)
H29A H 0.1004 0.2617 0.9677
C36A C 0.0908(8) 0.3336(7) 0.8281(5)
H30A H -0.0052 0.3774 0.8198
C37A C 0.1965(7) 0.3240(6) 0.7593(4)
C38A C 0.3182(7) 0.2527(6) 0.8011(4)
H31A H 0.4081 0.2311 0.7713
O7A O -0.1980(5) 0.5280(5) 0.5660(4)
H32A H -0.259(4) 0.576(5) 0.531(3)
H33A H -0.226(5) 0.480(5) 0.603(4)
Mn1A Mn 0.46345(10) 0.40344(10) 0.60431(6)
Fe3A Fe 0.20954(10) 0.41346(10) 0.86473(6)
O1A O -0.6180(5) 0.5949(5) 0.6403(3)
O2A O -0.4754(5) 0.6203(5) 0.5314(3)
C1A C -0.5548(7) 0.6567(7) 0.5999(4)
C9A C -0.5339(10) 0.9556(8) 0.6518(7)
H5A H -0.4973 1.0213 0.6448
C10A C -0.6378(9) 0.9510(8) 0.7142(7)
H6A H -0.6855 1.0129 0.7586
C11A C -0.6595(8) 0.8410(8) 0.7052(6)
H7A H -0.7262 0.8142 0.7405
C12A C -0.5692(7) 0.7774(7) 0.6325(5)
C13A C -0.4928(9) 0.8505(8) 0.6003(6)
H8A H -0.4215 0.8299 0.5515
O3A O 0.6684(5) 0.3670(5) 0.6488(4)
O4A O 0.5986(5) 0.2134(5) 0.6566(4)
C2A C 0.6875(7) 0.2510(7) 0.6697(4)
C19A C 1.0047(8) 0.0805(10) 0.7813(6)
H14A H 1.0841 0.0740 0.8093
C20A C 0.9666(10) -0.0192(10) 0.7775(7)
H15A H 1.0141 -0.1078 0.8029
C21A C 0.8459(9) 0.0280(7) 0.7332(6)
H16A H 0.7961 -0.0217 0.7210
C22A C 0.8116(7) 0.1610(7) 0.7085(5)
C23A C 0.9124(7) 0.1923(8) 0.7379(5)
H17A H 0.9160 0.2769 0.7299
C29A C 0.1598(9) 0.5295(8) 0.9667(5)
H23A H 0.1216 0.5141 1.0277
C30A C 0.0873(9) 0.5963(7) 0.8902(6)
H24A H -0.0102 0.6357 0.8882
C31A C 0.1823(9) 0.5974(7) 0.8169(5)
H25A H 0.1613 0.6365 0.7549
C32A C 0.3106(8) 0.5302(7) 0.8475(5)
H26A H 0.3950 0.5154 0.8113
C33A C 0.2963(9) 0.4896(8) 0.9398(5)
H27A H 0.3698 0.4407 0.9791
Fe1A Fe -0.46858(12) 0.78929(11) 0.73567(7)
Fe2A Fe 0.82003(11) 0.12230(10) 0.84537(7)
C14A C -0.3185(11) 0.7823(12) 0.8091(7)
H9A H -0.2807 0.8470 0.8040
C15A C -0.4274(12) 0.7812(11) 0.8670(6)
H10A H -0.4785 0.8440 0.9103
C16A C -0.4492(12) 0.6734(11) 0.8532(6)
H11A H -0.5186 0.6475 0.8852
C17A C -0.3544(12) 0.6080(10) 0.7869(7)
H12A H -0.3459 0.5287 0.7642
C18A C -0.2737(10) 0.6764(11) 0.7580(7)
H13A H -0.1986 0.6531 0.7120
C24A C 0.6344(9) 0.2202(11) 0.9007(6)
H18A H 0.5551 0.2704 0.8668
C25A C 0.6777(13) 0.0899(13) 0.9307(8)
H19A H 0.6341 0.0324 0.9241
C26A C 0.7932(12) 0.0612(11) 0.9777(7)
H20A H 0.8470 -0.0226 1.0078
C27A C 0.8172(11) 0.1692(12) 0.9744(6)
H21A H 0.8915 0.1759 1.0010
C28A C 0.7198(11) 0.2666(10) 0.9279(6)
H22A H 0.7127 0.3549 0.9154
N1A_2 N -0.0250(6) 0.7001(5) 0.5194(4)
Mn1A_2 Mn -0.53655(10) 0.40344(10) 0.60431(6)
Mn2_2 Mn 0.0000 -0.5000 0.5000
O1A_2 O 0.3820(5) 0.5949(5) 0.6403(3)
O2_2 O 0.4754(5) 0.3797(5) 0.4686(3)
loop_
_geom_bond_atom_site_label_1
_geom_bond_atom_site_label_2
_geom_bond_site_symmetry_1
_geom_bond_site_symmetry_2
Mn1 O1 1_555 1_555
Mn2 O6 1_555 1_555
Fe1 C9 1_555 1_555
Fe2 C19 1_555 1_555
Fe3 C29 1_555 1_555
O1 C1 1_555 1_555
O2 C1 1_555 1_555
O3 Mn1 1_555 1_555
O4 Mn1 1_555 1_555
O5 Mn1 1_555 1_555
O6 C3 1_555 1_555
O7 Mn2 1_555 1_555
N1 Mn2 1_555 1_555
C1 C12 1_555 1_555
C2 O3 1_555 1_555
C3 O5 1_555 1_555
C4 N1 1_555 1_555
H1 C4 1_555 1_555
C5 C4 1_555 1_555
H2 C5 1_555 1_555
C6 C5 1_555 1_555
C7 C6 1_555 1_555
H3 C7 1_555 1_555
C8 N1 1_555 1_555
H4 C8 1_555 1_555
C9 H5 1_555 1_555
C10 Fe1 1_555 1_555
H6 C10 1_555 1_555
C11 Fe1 1_555 1_555
H7 C11 1_555 1_555
C12 Fe1 1_555 1_555
C13 Fe1 1_555 1_555
H8 C13 1_555 1_555
C14 Fe1 1_555 1_555
H9 C14 1_555 1_555
C15 Fe1 1_555 1_555
H10 C15 1_555 1_555
C16 Fe1 1_555 1_555
H11 C16 1_555 1_555
C17 Fe1 1_555 1_555
H12 C17 1_555 1_555
C18 Fe1 1_555 1_555
H13 C18 1_555 1_555
C19 H14 1_555 1_555
C20 Fe2 1_555 1_555
H15 C20 1_555 1_555
C21 Fe2 1_555 1_555
H16 C21 1_555 1_555
C22 Fe2 1_555 1_555
C23 Fe2 1_555 1_555
H17 C23 1_555 1_555
C24 Fe2 1_555 1_555
H18 C24 1_555 1_555
C25 Fe2 1_555 1_555
H19 C25 1_555 1_555
C26 Fe2 1_555 1_555
H20 C26 1_555 1_555
C27 Fe2 1_555 1_555
H21 C27 1_555 1_555
C28 Fe2 1_555 1_555
H22 C28 1_555 1_555
C29 H23 1_555 1_555
C30 Fe3 1_555 1_555
H24 C30 1_555 1_555
C31 Fe3 1_555 1_555
H25 C31 1_555 1_555
C32 Fe3 1_555 1_555
H26 C32 1_555 1_555
C33 Fe3 1_555 1_555
H27 C33 1_555 1_555
C34 Fe3 1_555 1_555
H28 C34 1_555 1_555
C35 Fe3 1_555 1_555
H29 C35 1_555 1_555
C36 Fe3 1_555 1_555
H30 C36 1_555 1_555
C37 Fe3 1_555 1_555
C38 Fe3 1_555 1_555
H31 C38 1_555 1_555
H32 O7 1_555 1_555
H33 O7 1_555 1_555
C6A C6 1_555 1_555
C5A C6A 1_555 1_555
C4A C5A 1_555 1_555
N1A C4A 1_555 1_555
C8A N1A 1_555 1_555
C7A C6A 1_555 1_555
H3A C7A 1_555 1_555
H4A C8A 1_555 1_555
H1A C4A 1_555 1_555
H2A C5A 1_555 1_555
O5A C3A 1_555 1_555
O6A Mn2 1_555 1_555
C3A O6A 1_555 1_555
C34A H28A 1_555 1_555
C35A C34A 1_555 1_555
H29A C35A 1_555 1_555
C36A C35A 1_555 1_555
H30A C36A 1_555 1_555
C37A C3A 1_555 1_555
C38A C34A 1_555 1_555
H31A C38A 1_555 1_555
O7A Mn2 1_555 1_555
H32A O7A 1_555 1_555
H33A O7A 1_555 1_555
Mn1A O5A 1_555 1_555
Fe3A C34A 1_555 1_555
O1A C1A 1_555 1_555
O2A Mn1 1_555 1_555
C1A O2A 1_555 1_555
C9A H5A 1_555 1_555
C10A C9A 1_555 1_555
H6A C10A 1_555 1_555
C11A C10A 1_555 1_555
H7A C11A 1_555 1_555
C12A C1A 1_555 1_555
C13A C9A 1_555 1_555
H8A C13A 1_555 1_555
O3A Mn1A 1_555 1_555
O4A Mn1A 1_555 1_555
C2A O3A 1_555 1_555
C19A H14A 1_555 1_555
C20A C19A 1_555 1_555
H15A C20A 1_555 1_555
C21A C20A 1_555 1_555
H16A C21A 1_555 1_555
C22A C2A 1_555 1_555
C23A C19A 1_555 1_555
H17A C23A 1_555 1_555
C29A Fe3A 1_555 1_555
H23A C29A 1_555 1_555
C30A Fe3A 1_555 1_555
H24A C30A 1_555 1_555
C31A Fe3A 1_555 1_555
H25A C31A 1_555 1_555
C32A Fe3A 1_555 1_555
H26A C32A 1_555 1_555
C33A Fe3A 1_555 1_555
H27A C33A 1_555 1_555
Fe1A C9A 1_555 1_555
Fe2A C19A 1_555 1_555
C14A Fe1A 1_555 1_555
H9A C14A 1_555 1_555
C15A Fe1A 1_555 1_555
H10A C15A 1_555 1_555
C16A Fe1A 1_555 1_555
H11A C16A 1_555 1_555
C17A Fe1A 1_555 1_555
H12A C17A 1_555 1_555
C18A Fe1A 1_555 1_555
H13A C18A 1_555 1_555
C24A Fe2A 1_555 1_555
H18A C24A 1_555 1_555
C25A Fe2A 1_555 1_555
H19A C25A 1_555 1_555
C26A Fe2A 1_555 1_555
H20A C26A 1_555 1_555
C27A Fe2A 1_555 1_555
H21A C27A 1_555 1_555
C28A Fe2A 1_555 1_555
H22A C28A 1_555 1_555
N1A_2 Mn2 1_555 1_555
Mn1A_2 O2 1_555 1_555
Mn2_2 N1A 1_555 1_555
O1A_2 Mn1A 1_555 1_555
O2_2 Mn1A 1_555 1_555
O4 C2 1_555 1_555
C2 C22 1_555 1_555
C3 C37 1_555 1_555
C7 C8 1_555 1_555
C9 C10 1_555 1_555
C9 C13 1_555 1_555
C10 C11 1_555 1_555
C11 C12 1_555 1_555
C12 C13 1_555 1_555
C14 C15 1_555 1_555
C14 C18 1_555 1_555
C15 C16 1_555 1_555
C16 C17 1_555 1_555
C17 C18 1_555 1_555
C19 C20 1_555 1_555
C19 C23 1_555 1_555
C20 C21 1_555 1_555
C21 C22 1_555 1_555
C22 C23 1_555 1_555
C24 C25 1_555 1_555
C24 C28 1_555 1_555
C25 C26 1_555 1_555
C26 C27 1_555 1_555
C27 C28 1_555 1_555
C29 C30 1_555 1_555
C29 C33 1_555 1_555
C30 C31 1_555 1_555
C31 C32 1_555 1_555
C32 C33 1_555 1_555
C34 C35 1_555 1_555
C34 C38 1_555 1_555
C35 C36 1_555 1_555
C36 C37 1_555 1_555
C37 C38 1_555 1_555
C8A C7A 1_555 1_555
C35A Fe3A 1_555 1_555
C36A Fe3A 1_555 1_555
C36A C37A 1_555 1_555
C37A Fe3A 1_555 1_555
C37A C38A 1_555 1_555
C38A Fe3A 1_555 1_555
O1A Mn1A_2 1_555 1_555
C10A Fe1A 1_555 1_555
C11A Fe1A 1_555 1_555
C11A C12A 1_555 1_555
C12A Fe1A 1_555 1_555
C12A C13A 1_555 1_555
C13A Fe1A 1_555 1_555
O4A C2A 1_555 1_555
C20A Fe2A 1_555 1_555
C21A Fe2A 1_555 1_555
C21A C22A 1_555 1_555
C22A Fe2A 1_555 1_555
C22A C23A 1_555 1_555
C23A Fe2A 1_555 1_555
C29A C30A 1_555 1_555
C29A C33A 1_555 1_555
C30A C31A 1_555 1_555
C31A C32A 1_555 1_555
C32A C33A 1_555 1_555
C14A C15A 1_555 1_555
C14A C18A 1_555 1_555
C15A C16A 1_555 1_555
C16A C17A 1_555 1_555
C17A C18A 1_555 1_555
C24A C25A 1_555 1_555
C24A C28A 1_555 1_555
C25A C26A 1_555 1_555
C26A C27A 1_555 1_555
C27A C28A 1_555 1_555

#END
