
#######################################################################
#
#                 Cambridge Crystallographic Data Centre
#                                CCDC 
#
#######################################################################
#
# If this CIF has been generated from an entry in the Cambridge 
# Structural Database, then it will include bibliographic, chemical, 
# crystal, experimental, refinement or atomic coordinate data resulting 
# from the CCDC's data processing and validation procedures.
#
#######################################################################

data_WEVQIY
_symmetry_cell_setting           monoclinic
_symmetry_space_group_name_H-M   'C 2/c'
_symmetry_Int_Tables_number      15
_space_group_name_Hall           '-C 2yn'
loop_
_symmetry_equiv_pos_site_id
_symmetry_equiv_pos_as_xyz
1 x,y,z
2 1/2+x,1/2+y,z
3 -x,y,1/2-z
4 1/2-x,1/2+y,1/2-z
5 -x,-y,-z
6 1/2-x,1/2-y,-z
7 x,-y,1/2+z
8 1/2+x,1/2-y,1/2+z
_cell_length_a                   24.76(2)
_cell_length_b                   8.590(10)
_cell_length_c                   11.550(10)
_cell_angle_alpha                90
_cell_angle_beta                 107.11(3)
_cell_angle_gamma                90
_cell_volume                     2347.83
loop_
_atom_site_label
_atom_site_type_symbol
_atom_site_fract_x
_atom_site_fract_y
_atom_site_fract_z
Ag1 Ag 0.518213(11) 0.64184(3) 0.96130(2)
O1 O 0.44762(9) 0.6062(3) 0.79853(19)
O2 O 0.41382(9) 0.4011(3) 0.8695(2)
N1 N 0.54997(10) 0.9039(3) 0.9499(2)
N2 N 0.5000 0.9312(4) 0.7500
H1 H 0.5000 0.8311 0.7500
C1 C 0.58397(12) 0.9606(4) 1.0539(3)
H2 H 0.5954 0.8936 1.1198
C2 C 0.60309(12) 1.1115(4) 1.0692(3)
H3 H 0.6253 1.1473 1.1440
C3 C 0.58802(12) 1.2083(4) 0.9688(3)
H4 H 0.6009 1.3106 0.9751
C4 C 0.55416(12) 1.1535(4) 0.8603(3)
H5 H 0.5445 1.2168 0.7919
C5 C 0.53449(11) 1.0006(4) 0.8544(2)
C6 C 0.41071(12) 0.5059(4) 0.7938(3)
C7 C 0.35821(12) 0.5123(4) 0.6887(3)
C8 C 0.35269(14) 0.6147(4) 0.5951(3)
H6 H 0.3817 0.6846 0.5982
C9 C 0.30546(16) 0.6164(5) 0.4972(3)
H7 H 0.3036 0.6871 0.4352
C10 C 0.26115(14) 0.5189(5) 0.4871(3)
C11 C 0.26599(15) 0.4167(6) 0.5823(3)
H8 H 0.2363 0.3493 0.5802
C12 C 0.31385(15) 0.4131(5) 0.6799(3)
H9 H 0.3162 0.3415 0.7415
C13 C 0.20958(15) 0.5182(6) 0.3768(3)
H10 H 0.2028 0.6216 0.3441
H11 H 0.1773 0.4835 0.3996
H12 H 0.2159 0.4493 0.3167
Ag1D Ag 0.481787(11) 0.35816(3) 1.03870(2)
Ag1B Ag 0.481787(11) 0.64184(3) 0.53870(2)
O1D O 0.55238(9) 0.3938(3) 1.20147(19)
O2D O 0.58618(9) 0.5989(3) 1.1305(2)
N1B N 0.45003(10) 0.9039(3) 0.5501(2)
N1D N 0.45003(10) 0.0961(3) 1.0501(2)
C1B C 0.41603(12) 0.9606(4) 0.4461(3)
H2B H 0.4046 0.8936 0.3802
C2B C 0.39691(12) 1.1115(4) 0.4308(3)
H3B H 0.3747 1.1473 0.3560
C3B C 0.41198(12) 1.2083(4) 0.5312(3)
H4B H 0.3991 1.3106 0.5249
C4B C 0.44584(12) 1.1535(4) 0.6397(3)
H5B H 0.4555 1.2168 0.7081
C5B C 0.46551(11) 1.0006(4) 0.6456(2)
C6D C 0.58929(12) 0.4941(4) 1.2062(3)
C7D C 0.64179(12) 0.4877(4) 1.3113(3)
C8D C 0.64731(14) 0.3853(4) 1.4049(3)
H6D H 0.6183 0.3154 1.4018
C9D C 0.69454(16) 0.3836(5) 1.5028(3)
H7D H 0.6964 0.3129 1.5648
C10D C 0.73885(14) 0.4811(5) 1.5129(3)
C11D C 0.73401(15) 0.5833(6) 1.4177(3)
H8D H 0.7637 0.6507 1.4198
C12D C 0.68615(15) 0.5869(5) 1.3201(3)
H9D H 0.6838 0.6585 1.2585
C13D C 0.79042(15) 0.4818(6) 1.6232(3)
H10D H 0.7972 0.3784 1.6559
H11D H 0.8227 0.5165 1.6004
H12D H 0.7841 0.5507 1.6833
loop_
_geom_bond_atom_site_label_1
_geom_bond_atom_site_label_2
_geom_bond_site_symmetry_1
_geom_bond_site_symmetry_2
Ag1 O1 1_555 1_555
O1 C6 1_555 1_555
O2 C6 1_555 1_555
N1 Ag1 1_555 1_555
N2 H1 1_555 1_555
C1 N1 1_555 1_555
H2 C1 1_555 1_555
C2 C1 1_555 1_555
H3 C2 1_555 1_555
C3 C2 1_555 1_555
H4 C3 1_555 1_555
C4 C3 1_555 1_555
H5 C4 1_555 1_555
C5 N1 1_555 1_555
C6 C7 1_555 1_555
C7 C8 1_555 1_555
C8 H6 1_555 1_555
C9 C8 1_555 1_555
H7 C9 1_555 1_555
C10 C9 1_555 1_555
C11 C10 1_555 1_555
H8 C11 1_555 1_555
C12 C7 1_555 1_555
H9 C12 1_555 1_555
C13 C10 1_555 1_555
H10 C13 1_555 1_555
H11 C13 1_555 1_555
H12 C13 1_555 1_555
Ag1D Ag1 1_555 1_555
Ag1B N1B 1_555 1_555
O1D Ag1D 1_555 1_555
O2D Ag1 1_555 1_555
N1B C1B 1_555 1_555
N1D Ag1D 1_555 1_555
C1B H2B 1_555 1_555
C2B C1B 1_555 1_555
H3B C2B 1_555 1_555
C3B C2B 1_555 1_555
H4B C3B 1_555 1_555
C4B C3B 1_555 1_555
H5B C4B 1_555 1_555
C5B N2 1_555 1_555
C6D O1D 1_555 1_555
C7D C6D 1_555 1_555
C8D C7D 1_555 1_555
H6D C8D 1_555 1_555
C9D C8D 1_555 1_555
H7D C9D 1_555 1_555
C10D C9D 1_555 1_555
C11D C10D 1_555 1_555
H8D C11D 1_555 1_555
C12D C7D 1_555 1_555
H9D C12D 1_555 1_555
C13D C10D 1_555 1_555
H10D C13D 1_555 1_555
H11D C13D 1_555 1_555
H12D C13D 1_555 1_555
O2 Ag1D 1_555 1_555
N2 C5 1_555 1_555
C4 C5 1_555 1_555
C11 C12 1_555 1_555
O2D C6D 1_555 1_555
N1B C5B 1_555 1_555
C4B C5B 1_555 1_555
C11D C12D 1_555 1_555

#END
