
#######################################################################
#
#                 Cambridge Crystallographic Data Centre
#                                CCDC 
#
#######################################################################
#
# If this CIF has been generated from an entry in the Cambridge 
# Structural Database, then it will include bibliographic, chemical, 
# crystal, experimental, refinement or atomic coordinate data resulting 
# from the CCDC's data processing and validation procedures.
#
#######################################################################

data_WEVQOE
_symmetry_cell_setting           triclinic
_symmetry_space_group_name_H-M   'P -1'
_symmetry_Int_Tables_number      2
_space_group_name_Hall           '-P 1'
loop_
_symmetry_equiv_pos_site_id
_symmetry_equiv_pos_as_xyz
1 x,y,z
2 -x,-y,-z
_cell_length_a                   7.259(8)
_cell_length_b                   11.070(10)
_cell_length_c                   15.38(2)
_cell_angle_alpha                82.66(5)
_cell_angle_beta                 84.84(4)
_cell_angle_gamma                72.01(4)
_cell_volume                     1164.17
loop_
_atom_site_label
_atom_site_type_symbol
_atom_site_fract_x
_atom_site_fract_y
_atom_site_fract_z
Ag1 Ag 0.89741(3) 0.13823(3) 0.554037(15)
Ag2 Ag 1.29267(3) -0.01184(2) 0.571841(14)
O1 O 0.9050(3) 0.0677(2) 0.69404(13)
O2 O 1.1912(3) -0.0817(2) 0.70066(13)
O3 O 0.9345(4) -0.2598(3) 1.13020(16)
O4 O 0.6844(3) -0.0964(2) 1.12742(15)
O5 O 1.3265(3) 0.08205(19) 0.43793(12)
O6 O 1.0217(3) 0.2092(2) 0.43068(13)
O7 O 1.2401(5) 0.4777(3) 0.02400(18)
O8 O 1.4476(5) 0.3001(3) 0.00161(17)
N1 N 0.5595(3) 0.2341(2) 0.55414(16)
N2 N 0.5637(3) 0.3535(2) 0.42195(15)
H1 H 0.6831 0.3072 0.4194
N3 N 0.3472(3) 0.5375(2) 0.35207(15)
N4 N 0.8296(4) -0.1641(2) 1.09215(16)
N5 N 1.3312(4) 0.3697(3) 0.04937(17)
C1 C 0.4695(4) 0.2001(3) 0.62935(19)
H2 H 0.5413 0.1356 0.6687
C2 C 0.2773(4) 0.2561(3) 0.65051(19)
H3 H 0.2181 0.2296 0.7024
C3 C 0.1754(4) 0.3527(3) 0.5923(2)
H4 H 0.0444 0.3927 0.6047
C4 C 0.2648(4) 0.3914(3) 0.51573(18)
H5 H 0.1969 0.4582 0.4767
C5 C 0.4599(4) 0.3274(3) 0.49845(17)
C6 C 0.3089(5) 0.6192(3) 0.2792(2)
H6 H 0.1960 0.6878 0.2804
C7 C 0.4238(5) 0.6094(3) 0.20266(19)
H7 H 0.3899 0.6692 0.1540
C8 C 0.5900(5) 0.5084(3) 0.2009(2)
H8 H 0.6720 0.4983 0.1505
C9 C 0.6341(4) 0.4227(3) 0.27350(19)
H9 H 0.7456 0.3530 0.2731
C10 C 0.5095(4) 0.4410(3) 0.34868(17)
C11 C 1.0307(4) -0.0220(3) 0.73313(17)
C12 C 0.9801(3) -0.0591(2) 0.82785(16)
C13 C 1.0915(4) -0.1698(3) 0.87320(17)
H10 H 1.2011 -0.2211 0.8451
C14 C 1.0430(4) -0.2057(3) 0.95956(18)
H11 H 1.1178 -0.2807 0.9895
C15 C 0.8808(4) -0.1273(3) 1.00021(16)
C16 C 0.7681(4) -0.0156(3) 0.95759(18)
H12 H 0.6607 0.0366 0.9865
C17 C 0.8176(4) 0.0174(3) 0.87074(18)
H13 H 0.7412 0.0918 0.8408
C18 C 1.1931(4) 0.1674(3) 0.40032(17)
C19 C 1.2366(4) 0.2240(2) 0.30983(16)
C20 C 1.1290(4) 0.3465(3) 0.27887(18)
H14 H 1.0358 0.3957 0.3161
C21 C 1.1584(4) 0.3964(3) 0.19341(19)
H15 H 1.0860 0.4784 0.1725
C22 C 1.2983(4) 0.3209(3) 0.14011(17)
C23 C 1.4094(4) 0.1991(3) 0.16914(18)
H16 H 1.5028 0.1502 0.1318
C24 C 1.3787(4) 0.1519(3) 0.25430(17)
H17 H 1.4538 0.0706 0.2752
Ag1A Ag 1.10259(3) -0.13823(3) 0.445963(15)
Ag2A Ag 0.70733(3) 0.01184(2) 0.428159(14)
Ag2A_2 Ag 1.70733(3) 0.01184(2) 0.428159(14)
O5A O 1.6735(3) -0.08205(19) 0.56207(12)
loop_
_geom_bond_atom_site_label_1
_geom_bond_atom_site_label_2
_geom_bond_site_symmetry_1
_geom_bond_site_symmetry_2
Ag1 Ag2 1_555 1_555
Ag2 O2 1_555 1_555
O1 Ag1 1_555 1_555
O2 C11 1_555 1_555
O3 N4 1_555 1_555
O4 N4 1_555 1_555
O5 Ag2 1_555 1_555
O6 Ag1 1_555 1_555
O7 N5 1_555 1_555
O8 N5 1_555 1_555
N1 Ag1 1_555 1_555
N2 H1 1_555 1_555
N3 C6 1_555 1_555
N4 C15 1_555 1_555
N5 C22 1_555 1_555
C1 N1 1_555 1_555
H2 C1 1_555 1_555
C2 C1 1_555 1_555
H3 C2 1_555 1_555
C3 C2 1_555 1_555
H4 C3 1_555 1_555
C4 C3 1_555 1_555
H5 C4 1_555 1_555
C5 N1 1_555 1_555
C6 H6 1_555 1_555
C7 C6 1_555 1_555
H7 C7 1_555 1_555
C8 C7 1_555 1_555
H8 C8 1_555 1_555
C9 C8 1_555 1_555
H9 C9 1_555 1_555
C10 N2 1_555 1_555
C11 O1 1_555 1_555
C12 C11 1_555 1_555
C13 C12 1_555 1_555
H10 C13 1_555 1_555
C14 C13 1_555 1_555
H11 C14 1_555 1_555
C15 C14 1_555 1_555
C16 C15 1_555 1_555
H12 C16 1_555 1_555
C17 C12 1_555 1_555
H13 C17 1_555 1_555
C18 O5 1_555 1_555
C19 C18 1_555 1_555
C20 C19 1_555 1_555
H14 C20 1_555 1_555
C21 C20 1_555 1_555
H15 C21 1_555 1_555
C22 C21 1_555 1_555
C23 C22 1_555 1_555
H16 C23 1_555 1_555
C24 C19 1_555 1_555
H17 C24 1_555 1_555
Ag1A Ag2 1_555 1_555
Ag2A Ag1 1_555 1_555
Ag2A_2 O5 1_555 1_555
O5A Ag2 1_555 1_555
O6 C18 1_555 1_555
N2 C5 1_555 1_555
N3 C10 1_555 1_555
C4 C5 1_555 1_555
C9 C10 1_555 1_555
C16 C17 1_555 1_555
C23 C24 1_555 1_555
Ag1A Ag2A 1_555 1_555
Ag2A_2 O5A 1_555 1_555

#END
