
#######################################################################
#
#                 Cambridge Crystallographic Data Centre
#                                CCDC 
#
#######################################################################
#
# If this CIF has been generated from an entry in the Cambridge 
# Structural Database, then it will include bibliographic, chemical, 
# crystal, experimental, refinement or atomic coordinate data resulting 
# from the CCDC's data processing and validation procedures.
#
#######################################################################

data_WEVYON
_symmetry_cell_setting           monoclinic
_symmetry_space_group_name_H-M   'C 2/c'
_symmetry_Int_Tables_number      15
_space_group_name_Hall           '-C 2yn'
loop_
_symmetry_equiv_pos_site_id
_symmetry_equiv_pos_as_xyz
1 x,y,z
2 -x,y,1/2-z
3 1/2+x,1/2+y,z
4 1/2-x,1/2+y,1/2-z
5 -x,-y,-z
6 x,-y,1/2+z
7 1/2-x,1/2-y,-z
8 1/2+x,1/2-y,1/2+z
_cell_length_a                   27.543(3)
_cell_length_b                   7.4157(9)
_cell_length_c                   15.8568(19)
_cell_angle_alpha                90
_cell_angle_beta                 123.3880(10)
_cell_angle_gamma                90
_cell_volume                     2704.25
loop_
_atom_site_label
_atom_site_type_symbol
_atom_site_fract_x
_atom_site_fract_y
_atom_site_fract_z
Co1 Co 0.194085(14) 0.39468(5) 0.19352(3)
Co2 Co 0.159731(15) 0.45812(5) 0.35187(3)
P1 P 0.32715(3) 0.30097(9) 0.26660(5)
O1 O 0.33496(9) 0.4154(3) 0.19561(14)
O2 O 0.28262(8) 0.3818(3) 0.28444(14)
O3 O 0.31321(8) 0.1046(3) 0.22884(14)
O4 O 0.57924(9) 0.1093(4) 0.72091(16)
O5 O 0.60896(9) 0.1755(3) 0.61876(15)
O6 O 0.36296(10) 0.1974(3) 0.56860(15)
O7 O 0.31433(8) 0.0676(3) 0.41795(15)
O8 O 0.20117(8) 0.2448(3) 0.32149(14)
H1 H 0.2361 0.2260 0.3700
H2 H 0.1819 0.1470 0.3034
O9 O 0.19141(9) 0.1797(3) 0.09597(16)
H3 H 0.1605 0.1887 0.0374
H4 H 0.1924 0.0813 0.1205
O10 O 0.24136(10) 0.5345(4) 0.47544(16)
H5 H 0.2675 0.5003 0.4661
H6 H 0.2468 0.4878 0.5268
O11 O 0.12321(10) 0.6866(3) 0.38042(18)
H7 H 0.1055 0.7498 0.3278
H8 H 0.1000 0.6528 0.3955
C1 C 0.51029(12) 0.2134(4) 0.5536(2)
C2 C 0.46218(12) 0.1813(4) 0.5584(2)
H9 H 0.4676 0.1387 0.6182
C3 C 0.40584(11) 0.2115(4) 0.4752(2)
C4 C 0.39710(11) 0.2848(4) 0.38628(19)
C5 C 0.44594(12) 0.3291(4) 0.3852(2)
H10 H 0.4410 0.3852 0.3285
C6 C 0.50174(12) 0.2912(4) 0.4668(2)
H11 H 0.5336 0.3180 0.4633
C7 C 0.57084(12) 0.1632(4) 0.6386(2)
C8 C 0.35717(12) 0.1548(4) 0.4870(2)
Co1C Co 0.305915(14) -0.10532(5) 0.30648(3)
Co1G Co 0.694085(14) 0.10532(5) 0.69352(3)
Co2C Co 0.340269(15) -0.04188(5) 0.14813(3)
Co2F Co 0.340269(15) 0.04188(5) 0.64813(3)
Co2G Co 0.659731(15) 0.04188(5) 0.85187(3)
O3C O 0.18679(8) 0.6046(3) 0.27116(14)
O4G O 0.07924(9) 0.3907(4) 0.22091(16)
O5G O 0.10896(9) 0.3245(3) 0.11876(15)
O6F O 0.13704(10) 0.3026(3) 0.43140(15)
O7C O 0.18567(8) 0.5676(3) 0.08205(15)
O12 O 0.5000 0.8504(9) 0.7500
O13 O 0.0473(5) 0.0291(12) 0.3052(8)
H12 H 0.0670 0.0663 0.3659
H13 H 0.0615 0.1031 0.2848
H14? H 0.5218 0.9149 0.7412
H15? H 0.4951 0.7498 0.7220
loop_
_geom_bond_atom_site_label_1
_geom_bond_atom_site_label_2
_geom_bond_site_symmetry_1
_geom_bond_site_symmetry_2
Co1 O2 1_555 1_555
Co2 O8 1_555 1_555
P1 O1 1_555 1_555
O2 P1 1_555 1_555
O3 P1 1_555 1_555
O4 C7 1_555 1_555
O5 C7 1_555 1_555
O6 C8 1_555 1_555
O7 C8 1_555 1_555
O8 Co1 1_555 1_555
H1 O8 1_555 1_555
H2 O8 1_555 1_555
O9 Co1 1_555 1_555
H3 O9 1_555 1_555
H4 O9 1_555 1_555
O10 Co2 1_555 1_555
H5 O10 1_555 1_555
H6 O10 1_555 1_555
O11 Co2 1_555 1_555
H7 O11 1_555 1_555
H8 O11 1_555 1_555
C1 C2 1_555 1_555
C2 H9 1_555 1_555
C3 C2 1_555 1_555
C4 P1 1_555 1_555
C5 C4 1_555 1_555
H10 C5 1_555 1_555
C6 C1 1_555 1_555
H11 C6 1_555 1_555
C7 C1 1_555 1_555
C8 C3 1_555 1_555
O13 H12 1_555 1_555
H13 O13 1_555 1_555
Co1C O3 1_555 1_555
Co1G O5 1_555 1_555
Co2C O3 1_555 1_555
Co2F O6 1_555 1_555
Co2G O4 1_555 1_555
O3C Co1 1_555 1_555
O4G Co2 1_555 1_555
O5G Co1 1_555 1_555
O6F Co2 1_555 1_555
O7C Co1 1_555 1_555
Co2 O3C 1_555 1_555
O7 Co1C 1_555 1_555
C3 C4 1_555 1_555
C5 C6 1_555 1_555

#END
