
#######################################################################
#
#                 Cambridge Crystallographic Data Centre
#                                CCDC 
#
#######################################################################
#
# If this CIF has been generated from an entry in the Cambridge 
# Structural Database, then it will include bibliographic, chemical, 
# crystal, experimental, refinement or atomic coordinate data resulting 
# from the CCDC's data processing and validation procedures.
#
#######################################################################

data_WEWDEI
_symmetry_cell_setting           monoclinic
_symmetry_space_group_name_H-M   'C 2/c'
_symmetry_Int_Tables_number      15
_space_group_name_Hall           '-C 2yn'
loop_
_symmetry_equiv_pos_site_id
_symmetry_equiv_pos_as_xyz
1 x,y,z
2 1/2+x,1/2+y,z
3 -x,y,1/2-z
4 1/2-x,1/2+y,1/2-z
5 -x,-y,-z
6 1/2-x,1/2-y,-z
7 x,-y,1/2+z
8 1/2+x,1/2-y,1/2+z
_cell_length_a                   17.7743(16)
_cell_length_b                   25.311(2)
_cell_length_c                   16.5981(15)
_cell_angle_alpha                90
_cell_angle_beta                 105.408(2)
_cell_angle_gamma                90
_cell_volume                     7198.86
loop_
_atom_site_label
_atom_site_type_symbol
_atom_site_fract_x
_atom_site_fract_y
_atom_site_fract_z
W1 W 0.644807(10) 0.842834(7) 0.527721(11)
O1 O 0.73796(18) 0.86007(14) 0.5296(2)
S1 S 0.63419(7) 0.83576(5) 0.65976(8)
S2 S 0.56046(7) 0.90427(4) 0.46002(7)
Cu1 Cu 0.55665(3) 0.90494(2) 0.59840(3)
S3 S 0.61234(7) 0.76542(4) 0.46160(7)
Cu2 Cu 0.59806(3) 0.75597(2) 0.59385(3)
Cu3 Cu 0.51981(3) 0.82469(2) 0.39793(3)
N1 N 0.6157(2) 0.97333(16) 0.6535(2)
C1 C 0.6921(3) 0.97416(18) 0.6621(3)
H1 H 0.7162 0.9453 0.6449
C2 C 0.5817(3) 1.01145(17) 0.6868(3)
H2 H 0.5295 1.0075 0.6862
Cl1 Cl 0.5000 0.82753(8) 0.2500
N2 N 0.8378(2) 1.19293(15) 0.8463(2)
C3 C 0.7661(3) 1.18652(19) 0.8537(3)
H3 H 0.7460 1.2110 0.8842
C4 C 0.7185(3) 1.1425(2) 0.8155(3)
H4 H 0.6687 1.1374 0.8222
C5 C 0.7504(3) 1.10777(19) 0.7680(3)
C6 C 0.8251(3) 1.11589(19) 0.7599(3)
H5 H 0.8453 1.0935 0.7265
C7 C 0.8705(3) 1.15835(15) 0.8026(3)
H6 H 0.9220 1.1626 0.8008
C8 C 0.7017(3) 1.06253(19) 0.7272(3)
C9 C 0.6214(3) 1.05735(18) 0.7228(3)
H7 H 0.5953 1.0838 0.7434
C10 C 0.7383(3) 1.01959(19) 0.6982(3)
H8 H 0.7915 1.0206 0.7022
N3 N 0.4862(2) 0.73749(16) 0.5969(2)
C11 C 0.4485(3) 0.69685(17) 0.5574(3)
H9 H 0.4729 0.6739 0.5286
C12 C 0.3701(3) 0.68790(19) 0.5585(3)
H10 H 0.3431 0.6597 0.5282
C13 C 0.3329(3) 0.7194(2) 0.6028(3)
C14 C 0.3737(3) 0.76225(19) 0.6428(3)
H11 H 0.3502 0.7869 0.6699
C15 C 0.4486(3) 0.7674(2) 0.6414(3)
H12 H 0.4773 0.7941 0.6741
C16 C 0.2488(3) 0.70890(17) 0.5998(3)
C17 C 0.2068(3) 0.66568(19) 0.5545(3)
H13 H 0.2300 0.6423 0.5250
C18 C 0.2124(3) 0.74010(18) 0.6480(3)
H14 H 0.2401 0.7677 0.6795
N4 N 0.0946(2) 0.69073(16) 0.6011(2)
C19 C 0.1325(3) 0.73052(19) 0.6502(3)
H15 H 0.1086 0.7505 0.6834
C20 C 0.1271(3) 0.65989(19) 0.5565(4)
H16 H 0.0973 0.6332 0.5248
C21 C 0.2902(3) 0.9536(2) 0.5886(3)
C22 C 0.3254(3) 0.97444(19) 0.5309(3)
H17 H 0.2982 0.9975 0.4897
C23 C 0.4027(3) 0.96044(18) 0.5351(3)
H18 H 0.4269 0.9743 0.4965
N5 N 0.4432(2) 0.92603(16) 0.5967(3)
C24 C 0.4071(3) 0.90539(18) 0.6541(3)
H19 H 0.4342 0.8824 0.6954
C25 C 0.3296(3) 0.91906(18) 0.6501(3)
H20 H 0.3050 0.9051 0.6884
N6 N 0.0594(2) 1.00220(16) 0.5761(2)
C26 C 0.1082(3) 1.0347(2) 0.5445(3)
H21 H 0.0907 1.0671 0.5205
C27 C 0.1838(3) 1.0176(2) 0.5496(3)
H22 H 0.2172 1.0391 0.5296
C28 C 0.2100(3) 0.96888(19) 0.5842(3)
C29 C 0.1611(3) 0.9369(2) 0.6152(3)
H23 H 0.1790 0.9044 0.6389
C30 C 0.0854(3) 0.95305(19) 0.6113(3)
H24 H 0.0524 0.9314 0.6318
W1C W 0.855193(10) 0.342834(7) 0.972279(11)
W1C_2 W 0.855193(10) 1.342834(7) 0.972279(11)
W1B W 0.355193(10) 0.842834(7) -0.027721(11)
O1C O 0.76204(18) 0.36007(14) 0.9704(2)
S1C S 0.86581(7) 0.33576(5) 0.84024(8)
S1C_2 S 0.86581(7) 1.33576(5) 0.84024(8)
S2C S 0.93954(7) 0.40427(4) 1.03998(7)
S2B S 0.43954(7) 0.90427(4) 0.03998(7)
Cu1C Cu 0.94335(3) 0.40494(2) 0.90160(3)
S3C S 0.88766(7) 1.26542(4) 1.03840(7)
S3B S 0.38766(7) 0.76542(4) 0.03840(7)
S3C_2 S 0.88766(7) 0.26542(4) 1.03840(7)
Cu2C Cu 0.90194(3) 1.25597(2) 0.90615(3)
Cu2E Cu -0.09806(3) 0.74403(2) 0.40615(3)
Cu2C_2 Cu 0.90194(3) 0.25597(2) 0.90615(3)
Cu3B Cu 0.48019(3) 0.82469(2) 0.10207(3)
Cu3E Cu -0.01981(3) 0.67531(2) 0.60207(3)
Cu3C Cu 0.98019(3) 0.32469(2) 1.10207(3)
Cu3C_2 Cu 0.98019(3) 1.32469(2) 1.10207(3)
N1C N 0.8843(2) 0.47333(16) 0.8465(2)
C1C C 0.8079(3) 0.47416(18) 0.8379(3)
H1C H 0.7838 0.4453 0.8551
C2C C 0.9183(3) 0.51145(17) 0.8132(3)
H2C H 0.9705 0.5075 0.8138
N2C N 0.6622(2) 0.69293(15) 0.6537(2)
C3C C 0.7339(3) 0.68652(19) 0.6463(3)
H3C H 0.7540 0.7110 0.6158
C4C C 0.7815(3) 0.6425(2) 0.6845(3)
H4C H 0.8313 0.6374 0.6778
C5C C 0.7496(3) 0.60777(19) 0.7320(3)
C6C C 0.6749(3) 0.61589(19) 0.7401(3)
H5C H 0.6547 0.5935 0.7735
C7C C 0.6295(3) 0.65835(15) 0.6974(3)
H6C H 0.5780 0.6626 0.6992
C8C C 0.7983(3) 0.56253(19) 0.7728(3)
C9C C 0.8786(3) 0.55735(18) 0.7772(3)
H7C H 0.9047 0.5838 0.7566
C10C C 0.7617(3) 0.51959(19) 0.8018(3)
H8C H 0.7085 0.5206 0.7978
N3E N 0.0138(2) 0.76251(16) 0.4031(2)
N3C N 1.0138(2) 1.23749(16) 0.9031(2)
C11E C 0.0515(3) 0.80315(17) 0.4426(3)
H9E H 0.0271 0.8261 0.4714
C12E C 0.1299(3) 0.81210(19) 0.4415(3)
H10E H 0.1569 0.8403 0.4718
C13E C 0.1671(3) 0.7806(2) 0.3972(3)
C14E C 0.1263(3) 0.73775(19) 0.3572(3)
H11E H 0.1498 0.7131 0.3301
C15E C 0.0514(3) 0.7326(2) 0.3586(3)
H12E H 0.0227 0.7059 0.3259
C16E C 0.2512(3) 0.79110(17) 0.4002(3)
C17E C 0.2932(3) 0.83432(19) 0.4455(3)
H13E H 0.2700 0.8577 0.4750
C18E C 0.2876(3) 0.75990(18) 0.3520(3)
H14E H 0.2599 0.7323 0.3205
N4E N 0.4054(2) 0.80927(16) 0.3989(2)
N4G N 0.5946(2) 0.80927(16) 0.1011(2)
C19E C 0.3675(3) 0.76948(19) 0.3498(3)
H15E H 0.3914 0.7495 0.3166
C20E C 0.3729(3) 0.84011(19) 0.4435(4)
H16E H 0.4027 0.8668 0.4752
C21C C 1.2098(3) 0.4536(2) 0.9114(3)
C22C C 1.1746(3) 0.47444(19) 0.9691(3)
H17C H 1.2018 0.4975 1.0103
C23C C 1.0973(3) 0.46044(18) 0.9649(3)
H18C H 1.0731 0.4743 1.0035
N5C N 1.0568(2) 0.42603(16) 0.9033(3)
C24C C 1.0929(3) 0.40539(18) 0.8459(3)
H19C H 1.0658 0.3824 0.8046
C25C C 1.1704(3) 0.41906(18) 0.8499(3)
H20C H 1.1950 0.4051 0.8116
N6C N 1.4406(2) 0.50220(16) 0.9239(2)
C26C C 1.3918(3) 0.5347(2) 0.9555(3)
H21C H 1.4093 0.5671 0.9795
C27C C 1.3162(3) 0.5176(2) 0.9504(3)
H22C H 1.2828 0.5391 0.9704
C28C C 1.2900(3) 0.46888(19) 0.9158(3)
C29C C 1.3389(3) 0.4369(2) 0.8848(3)
H23C H 1.3210 0.4044 0.8611
C30C C 1.4146(3) 0.45305(19) 0.8887(3)
H24C H 1.4476 0.4314 0.8682
Cl2 Cl 0.0000 0.80979(9) 0.7500
O2 O 0.5660(4) 0.5599(3) 0.8681(4)
H25 H 0.5529 0.5682 0.9357
H26 H 0.6060 0.5305 0.8565
O3 O 0.1457(4) 0.9187(3) 0.8176(4)
H27 H 0.1003 0.9253 0.8227
H28 H 0.1522 0.8854 0.8171
loop_
_geom_bond_atom_site_label_1
_geom_bond_atom_site_label_2
_geom_bond_site_symmetry_1
_geom_bond_site_symmetry_2
W1 O1 1_555 1_555
S1 W1 1_555 1_555
S2 W1 1_555 1_555
Cu1 W1 1_555 1_555
S3 W1 1_555 1_555
Cu2 W1 1_555 1_555
Cu3 W1 1_555 1_555
N1 Cu1 1_555 1_555
C1 N1 1_555 1_555
H1 C1 1_555 1_555
C2 N1 1_555 1_555
H2 C2 1_555 1_555
Cl1 Cu3 1_555 1_555
N2 C3 1_555 1_555
C3 H3 1_555 1_555
C4 C3 1_555 1_555
H4 C4 1_555 1_555
C5 C4 1_555 1_555
C6 C5 1_555 1_555
H5 C6 1_555 1_555
C7 N2 1_555 1_555
H6 C7 1_555 1_555
C8 C5 1_555 1_555
C9 C2 1_555 1_555
H7 C9 1_555 1_555
C10 C1 1_555 1_555
H8 C10 1_555 1_555
N3 Cu2 1_555 1_555
C11 N3 1_555 1_555
H9 C11 1_555 1_555
C12 C11 1_555 1_555
H10 C12 1_555 1_555
C13 C12 1_555 1_555
C14 C13 1_555 1_555
H11 C14 1_555 1_555
C15 N3 1_555 1_555
H12 C15 1_555 1_555
C16 C13 1_555 1_555
C17 C16 1_555 1_555
H13 C17 1_555 1_555
C18 C16 1_555 1_555
H14 C18 1_555 1_555
N4 C19 1_555 1_555
C19 C18 1_555 1_555
H15 C19 1_555 1_555
C20 C17 1_555 1_555
H16 C20 1_555 1_555
C21 C22 1_555 1_555
C22 H17 1_555 1_555
C23 C22 1_555 1_555
H18 C23 1_555 1_555
N5 Cu1 1_555 1_555
C24 N5 1_555 1_555
H19 C24 1_555 1_555
C25 C21 1_555 1_555
H20 C25 1_555 1_555
N6 C26 1_555 1_555
C26 H21 1_555 1_555
C27 C26 1_555 1_555
H22 C27 1_555 1_555
C28 C21 1_555 1_555
C29 C28 1_555 1_555
H23 C29 1_555 1_555
C30 N6 1_555 1_555
H24 C30 1_555 1_555
O2 H25 1_555 1_555
H26 O2 1_555 1_555
O3 H27 1_555 1_555
H28 O3 1_555 1_555
W1C O1C 1_555 1_555
W1C_2 S1C_2 1_555 1_555
W1B S2B 1_555 1_555
S1C W1C 1_555 1_555
S1C_2 Cu2C 1_555 1_555
S2C W1C 1_555 1_555
S2B Cu3B 1_555 1_555
Cu1C W1C 1_555 1_555
S3C W1C_2 1_555 1_555
S3B W1B 1_555 1_555
S3C_2 W1C 1_555 1_555
Cu2C N2 1_555 1_555
Cu2E N3E 1_555 1_555
Cu2C_2 W1C 1_555 1_555
Cu3B Cl1 1_555 1_555
Cu3E N4 1_555 1_555
Cu3C W1C 1_555 1_555
Cu3C_2 W1C_2 1_555 1_555
N1C Cu1C 1_555 1_555
C1C N1C 1_555 1_555
H1C C1C 1_555 1_555
C2C N1C 1_555 1_555
H2C C2C 1_555 1_555
N2C Cu2 1_555 1_555
C3C N2C 1_555 1_555
H3C C3C 1_555 1_555
C4C C3C 1_555 1_555
H4C C4C 1_555 1_555
C5C C4C 1_555 1_555
C6C C5C 1_555 1_555
H5C C6C 1_555 1_555
C7C N2C 1_555 1_555
H6C C7C 1_555 1_555
C8C C5C 1_555 1_555
C9C C2C 1_555 1_555
H7C C9C 1_555 1_555
C10C C1C 1_555 1_555
H8C C10C 1_555 1_555
N3E C11E 1_555 1_555
N3C Cu2C 1_555 1_555
C11E H9E 1_555 1_555
C12E C11E 1_555 1_555
H10E C12E 1_555 1_555
C13E C12E 1_555 1_555
C14E C13E 1_555 1_555
H11E C14E 1_555 1_555
C15E N3E 1_555 1_555
H12E C15E 1_555 1_555
C16E C13E 1_555 1_555
C17E C16E 1_555 1_555
H13E C17E 1_555 1_555
C18E C16E 1_555 1_555
H14E C18E 1_555 1_555
N4E Cu3 1_555 1_555
N4G Cu3B 1_555 1_555
C19E C18E 1_555 1_555
H15E C19E 1_555 1_555
C20E C17E 1_555 1_555
H16E C20E 1_555 1_555
C21C C22C 1_555 1_555
C22C H17C 1_555 1_555
C23C C22C 1_555 1_555
H18C C23C 1_555 1_555
N5C Cu1C 1_555 1_555
C24C N5C 1_555 1_555
H19C C24C 1_555 1_555
C25C C21C 1_555 1_555
H20C C25C 1_555 1_555
N6C C26C 1_555 1_555
C26C H21C 1_555 1_555
C27C C26C 1_555 1_555
H22C C27C 1_555 1_555
C28C C21C 1_555 1_555
C29C C28C 1_555 1_555
H23C C29C 1_555 1_555
C30C N6C 1_555 1_555
H24C C30C 1_555 1_555
S1 Cu1 1_555 1_555
S1 Cu2 1_555 1_555
S2 Cu1 1_555 1_555
S2 Cu3 1_555 1_555
S3 Cu2 1_555 1_555
S3 Cu3 1_555 1_555
C6 C7 1_555 1_555
C8 C9 1_555 1_555
C8 C10 1_555 1_555
C14 C15 1_555 1_555
N4 C20 1_555 1_555
C23 N5 1_555 1_555
C24 C25 1_555 1_555
C27 C28 1_555 1_555
C29 C30 1_555 1_555
W1C_2 Cu2C 1_555 1_555
W1B Cu3B 1_555 1_555
S1C Cu1C 1_555 1_555
S1C Cu2C_2 1_555 1_555
S2C Cu1C 1_555 1_555
S2C Cu3C 1_555 1_555
S3C Cu2C 1_555 1_555
S3C Cu3C_2 1_555 1_555
S3B Cu3B 1_555 1_555
S3C_2 Cu2C_2 1_555 1_555
S3C_2 Cu3C 1_555 1_555
C6C C7C 1_555 1_555
C8C C9C 1_555 1_555
C8C C10C 1_555 1_555
C14E C15E 1_555 1_555
N4E C19E 1_555 1_555
N4E C20E 1_555 1_555
C23C N5C 1_555 1_555
C24C C25C 1_555 1_555
C27C C28C 1_555 1_555
C29C C30C 1_555 1_555

#END
