
#######################################################################
#
#                 Cambridge Crystallographic Data Centre
#                                CCDC 
#
#######################################################################
#
# If this CIF has been generated from an entry in the Cambridge 
# Structural Database, then it will include bibliographic, chemical, 
# crystal, experimental, refinement or atomic coordinate data resulting 
# from the CCDC's data processing and validation procedures.
#
#######################################################################

data_WEWDIM
_symmetry_cell_setting           triclinic
_symmetry_space_group_name_H-M   'P -1'
_symmetry_Int_Tables_number      2
_space_group_name_Hall           '-P 1'
loop_
_symmetry_equiv_pos_site_id
_symmetry_equiv_pos_as_xyz
1 x,y,z
2 -x,-y,-z
_cell_length_a                   9.8430(10)
_cell_length_b                   12.9740(10)
_cell_length_c                   17.362(2)
_cell_angle_alpha                97.650(10)
_cell_angle_beta                 101.500(10)
_cell_angle_gamma                108.650(10)
_cell_volume                     2011.77
loop_
_atom_site_label
_atom_site_type_symbol
_atom_site_fract_x
_atom_site_fract_y
_atom_site_fract_z
W1 W 0.75977(2) 0.718480(17) 0.699040(10)
Br1 Br 0.99688(7) 0.64173(6) 0.93951(4)
Br2 Br 1.07681(8) 1.10878(6) 0.72683(4)
C17 C 0.1703(5) 1.0515(5) 1.0722(3)
H37 H 0.1397 1.0251 1.1154
C18 C 0.2258(5) 0.9869(5) 1.0253(3)
H38 H 0.2352 0.9220 1.0387
C19 C 0.2655(5) 1.0208(5) 0.9603(3)
C20 C 0.2431(6) 1.1150(5) 0.9443(3)
H39 H 0.2653 1.1383 0.8984
C21 C 0.1887(6) 1.1789(5) 0.9928(3)
H40 H 0.1742 1.2422 0.9792
C22 C 0.4410(6) 0.9406(5) 0.7993(3)
H41 H 0.4736 0.9697 0.7573
C23 C 0.3777(6) 1.0004(5) 0.8443(3)
H42 H 0.3673 1.0654 0.8317
C24 C 0.3304(5) 0.9601(4) 0.9086(3)
C25 C 0.3419(6) 0.8611(5) 0.9192(3)
H43 H 0.3060 0.8292 0.9594
C26 C 0.4057(6) 0.8067(5) 0.8716(3)
H44 H 0.4129 0.7397 0.8816
C27 C 0.2026(5) 0.6726(4) 0.6521(3)
H45 H 0.1993 0.7216 0.6954
C28 C 0.0700(6) 0.6067(4) 0.5969(3)
H46 H -0.0191 0.6109 0.6046
C29 C 0.0698(5) 0.5346(4) 0.5304(3)
C30 C 0.2047(5) 0.5323(4) 0.5262(3)
H47 H 0.2117 0.4851 0.4830
C31 C 0.3288(6) 0.5966(4) 0.5829(3)
H48 H 0.4181 0.5900 0.5777
Cu1 Cu 0.53154(6) 0.76241(5) 0.73550(3)
Cu2 Cu 0.87757(7) 0.73523(5) 0.85708(3)
Cu3 Cu 0.92125(7) 0.93178(6) 0.71867(4)
N1 N 0.4588(4) 0.8475(4) 0.8103(2)
N2 N 0.3325(4) 0.6699(3) 0.6468(2)
N3 N 0.1574(4) 1.1457(4) 1.0606(2)
O1 O 0.7400(3) 0.6144(3) 0.61977(18)
S1 S 0.63101(13) 0.64011(11) 0.78262(7)
S2 S 1.00029(13) 0.80181(11) 0.76532(7)
S3 S 0.67760(14) 0.85184(12) 0.65851(7)
W1A W 0.24023(2) 1.281520(17) 1.300960(10)
Br1A Br 0.00312(7) 1.35827(6) 1.06049(4)
Br2A Br -0.07681(8) 0.89122(6) 1.27317(4)
C17A C 0.8297(5) 0.9485(5) 0.9278(3)
H37A H 0.8603 0.9749 0.8846
C18A C 0.7742(5) 1.0131(5) 0.9747(3)
H38A H 0.7648 1.0780 0.9613
C19A C 0.7345(5) 0.9792(5) 1.0397(3)
C20A C 0.7569(6) 0.8850(5) 1.0557(3)
H39A H 0.7347 0.8617 1.1016
C21A C 0.8113(6) 0.8211(5) 1.0072(3)
H40A H 0.8258 0.7578 1.0208
C22A C 0.5590(6) 1.0594(5) 1.2007(3)
H41A H 0.5264 1.0303 1.2427
C23A C 0.6223(6) 0.9996(5) 1.1557(3)
H42A H 0.6327 0.9346 1.1683
C24A C 0.6696(5) 1.0399(4) 1.0914(3)
C25A C 0.6581(6) 1.1389(5) 1.0808(3)
H43A H 0.6940 1.1708 1.0406
C26A C 0.5943(6) 1.1933(5) 1.1284(3)
H44A H 0.5871 1.2603 1.1184
C27A C -0.2026(5) 0.3274(4) 0.3479(3)
H45A H -0.1993 0.2784 0.3046
C28A C -0.0700(6) 0.3933(4) 0.4031(3)
H46A H 0.0191 0.3891 0.3954
C29A C -0.0698(5) 0.4654(4) 0.4696(3)
C30A C -0.2047(5) 0.4677(4) 0.4738(3)
H47A H -0.2117 0.5149 0.5170
C31A C -0.3288(6) 0.4034(4) 0.4171(3)
H48A H -0.4181 0.4100 0.4223
Cu1A Cu 0.46846(6) 1.23759(5) 1.26450(3)
Cu1A_2 Cu -0.53154(6) 0.23759(5) 0.26450(3)
Cu2A Cu 0.12243(7) 1.26477(5) 1.14292(3)
Cu3A Cu 0.07875(7) 1.06822(6) 1.28133(4)
N1A N 0.5412(4) 1.1525(4) 1.1897(2)
N2A N -0.3325(4) 0.3301(3) 0.3532(2)
N2A_2 N 0.6675(4) 1.3301(3) 1.3532(2)
N3A N 0.8426(4) 0.8543(4) 0.9394(2)
O1A O 0.2600(3) 1.3856(3) 1.38023(18)
S1A S 0.36899(13) 1.35989(11) 1.21738(7)
S2A S -0.00029(13) 1.19819(11) 1.23468(7)
S3A S 0.32240(14) 1.14816(12) 1.34149(7)
C1 C 0.7111(6) 0.1911(4) 0.6452(3)
H1 H 0.7867 0.1699 0.6769
H2 H 0.6164 0.1321 0.6377
C2 C 0.7412(7) 0.1978(5) 0.5633(3)
H3 H 0.6652 0.2164 0.5295
H4 H 0.8367 0.2549 0.5690
C3 C 0.7404(7) 0.0856(5) 0.5263(3)
H5 H 0.6506 0.0279 0.5286
H6 H 0.8247 0.0721 0.5568
C4 C 0.7479(7) 0.0805(6) 0.4397(3)
H7 H 0.7468 0.0085 0.4171
H8 H 0.8377 0.1367 0.4376
H9 H 0.6640 0.0932 0.4095
C5 C 0.5970(6) 0.3398(5) 0.6455(3)
H10 H 0.5975 0.4068 0.6781
H11 H 0.6302 0.3599 0.5988
C6 C 0.4412(6) 0.2582(5) 0.6178(3)
H12 H 0.4087 0.2353 0.6641
H13 H 0.4389 0.1926 0.5827
C7 C 0.3344(6) 0.3060(5) 0.5734(3)
H14 H 0.3378 0.3708 0.6098
H15 H 0.3719 0.3320 0.5292
C8 C 0.1797(6) 0.2352(6) 0.5409(4)
H16 H 0.1264 0.2757 0.5135
H17 H 0.1377 0.2122 0.5839
H18 H 0.1728 0.1707 0.5037
C9 C 0.6643(6) 0.2704(4) 0.7719(3)
H19 H 0.5715 0.2073 0.7564
H20 H 0.7392 0.2465 0.8014
C10 C 0.6462(7) 0.3624(5) 0.8295(3)
H21 H 0.7357 0.4281 0.8435
H22 H 0.5643 0.3821 0.8032
C11 C 0.6180(7) 0.3250(5) 0.9023(3)
H23 H 0.7003 0.3053 0.9281
H24 H 0.5294 0.2586 0.8876
C12 C 0.5984(8) 0.4101(6) 0.9602(4)
H25 H 0.5807 0.3814 1.0069
H26 H 0.5154 0.4286 0.9356
H27 H 0.6865 0.4757 0.9758
C13 C 0.8547(6) 0.3972(5) 0.7128(3)
H28 H 0.8434 0.4631 0.7400
H29 H 0.8792 0.4116 0.6629
C14 C 0.9831(6) 0.3738(5) 0.7668(4)
H30 H 0.9704 0.3762 0.8209
H31 H 0.9812 0.3001 0.7458
C15 C 1.1327(6) 0.4612(5) 0.7689(4)
H32 H 1.1447 0.4587 0.7146
H33 H 1.1339 0.5348 0.7897
C16 C 1.2558(7) 0.4416(6) 0.8191(4)
H34 H 1.3478 0.4969 0.8189
H35 H 1.2551 0.3690 0.7984
H36 H 1.2454 0.4460 0.8732
N4 N 0.7075(5) 0.2980(4) 0.6940(3)
loop_
_geom_bond_atom_site_label_1
_geom_bond_atom_site_label_2
_geom_bond_site_symmetry_1
_geom_bond_site_symmetry_2
W1 Cu1 1_555 1_555
Br1 Cu2 1_555 1_555
Br2 Cu3 1_555 1_555
C1 H1 1_555 1_555
H2 C1 1_555 1_555
C2 C1 1_555 1_555
H3 C2 1_555 1_555
H4 C2 1_555 1_555
C3 C2 1_555 1_555
H5 C3 1_555 1_555
H6 C3 1_555 1_555
C4 C3 1_555 1_555
H7 C4 1_555 1_555
H8 C4 1_555 1_555
H9 C4 1_555 1_555
C5 H10 1_555 1_555
H11 C5 1_555 1_555
C6 C5 1_555 1_555
H12 C6 1_555 1_555
H13 C6 1_555 1_555
C7 C6 1_555 1_555
H14 C7 1_555 1_555
H15 C7 1_555 1_555
C8 C7 1_555 1_555
H16 C8 1_555 1_555
H17 C8 1_555 1_555
H18 C8 1_555 1_555
C9 H19 1_555 1_555
H20 C9 1_555 1_555
C10 C9 1_555 1_555
H21 C10 1_555 1_555
H22 C10 1_555 1_555
C11 C10 1_555 1_555
H23 C11 1_555 1_555
H24 C11 1_555 1_555
C12 C11 1_555 1_555
H25 C12 1_555 1_555
H26 C12 1_555 1_555
H27 C12 1_555 1_555
C13 H28 1_555 1_555
H29 C13 1_555 1_555
C14 C13 1_555 1_555
H30 C14 1_555 1_555
H31 C14 1_555 1_555
C15 C14 1_555 1_555
H32 C15 1_555 1_555
H33 C15 1_555 1_555
C16 C15 1_555 1_555
H34 C16 1_555 1_555
H35 C16 1_555 1_555
H36 C16 1_555 1_555
C17 H37 1_555 1_555
C18 C17 1_555 1_555
H38 C18 1_555 1_555
C19 C18 1_555 1_555
C20 C19 1_555 1_555
H39 C20 1_555 1_555
C21 C20 1_555 1_555
H40 C21 1_555 1_555
C22 H41 1_555 1_555
C23 C22 1_555 1_555
H42 C23 1_555 1_555
C24 C19 1_555 1_555
C25 C24 1_555 1_555
H43 C25 1_555 1_555
C26 C25 1_555 1_555
H44 C26 1_555 1_555
C27 H45 1_555 1_555
C28 C27 1_555 1_555
H46 C28 1_555 1_555
C29 C28 1_555 1_555
C30 C29 1_555 1_555
H47 C30 1_555 1_555
C31 C30 1_555 1_555
H48 C31 1_555 1_555
Cu1 N1 1_555 1_555
Cu2 W1 1_555 1_555
Cu3 W1 1_555 1_555
N1 C22 1_555 1_555
N2 C27 1_555 1_555
N3 C17 1_555 1_555
N4 C1 1_555 1_555
O1 W1 1_555 1_555
S1 W1 1_555 1_555
S2 W1 1_555 1_555
S3 W1 1_555 1_555
W1A Cu1A 1_555 1_555
Br1A Cu2A 1_555 1_555
Br2A Cu3A 1_555 1_555
C17A H37A 1_555 1_555
C18A C17A 1_555 1_555
H38A C18A 1_555 1_555
C19A C18A 1_555 1_555
C20A C19A 1_555 1_555
H39A C20A 1_555 1_555
C21A C20A 1_555 1_555
H40A C21A 1_555 1_555
C22A H41A 1_555 1_555
C23A C22A 1_555 1_555
H42A C23A 1_555 1_555
C24A C19A 1_555 1_555
C25A C24A 1_555 1_555
H43A C25A 1_555 1_555
C26A C25A 1_555 1_555
H44A C26A 1_555 1_555
C27A H45A 1_555 1_555
C28A C27A 1_555 1_555
H46A C28A 1_555 1_555
C29A C29 1_555 1_555
C30A C29A 1_555 1_555
H47A C30A 1_555 1_555
C31A C30A 1_555 1_555
H48A C31A 1_555 1_555
Cu1A N1A 1_555 1_555
Cu1A_2 N2A 1_555 1_555
Cu2A N3 1_555 1_555
Cu3A W1A 1_555 1_555
N1A C22A 1_555 1_555
N2A C27A 1_555 1_555
N2A_2 Cu1A 1_555 1_555
N3A Cu2 1_555 1_555
O1A W1A 1_555 1_555
S1A W1A 1_555 1_555
S2A W1A 1_555 1_555
S3A W1A 1_555 1_555
C5 N4 1_555 1_555
C9 N4 1_555 1_555
C13 N4 1_555 1_555
C21 N3 1_555 1_555
C23 C24 1_555 1_555
C26 N1 1_555 1_555
C31 N2 1_555 1_555
Cu1 N2 1_555 1_555
Cu1 S1 1_555 1_555
Cu1 S3 1_555 1_555
Cu2 S1 1_555 1_555
Cu2 S2 1_555 1_555
Cu3 S2 1_555 1_555
Cu3 S3 1_555 1_555
W1A Cu2A 1_555 1_555
C17A N3A 1_555 1_555
C21A N3A 1_555 1_555
C23A C24A 1_555 1_555
C26A N1A 1_555 1_555
C28A C29A 1_555 1_555
C31A N2A 1_555 1_555
Cu1A S1A 1_555 1_555
Cu1A S3A 1_555 1_555
Cu2A S1A 1_555 1_555
Cu2A S2A 1_555 1_555
Cu3A S2A 1_555 1_555
Cu3A S3A 1_555 1_555

#END
