
#######################################################################
#
#                 Cambridge Crystallographic Data Centre
#                                CCDC 
#
#######################################################################
#
# If this CIF has been generated from an entry in the Cambridge 
# Structural Database, then it will include bibliographic, chemical, 
# crystal, experimental, refinement or atomic coordinate data resulting 
# from the CCDC's data processing and validation procedures.
#
#######################################################################

data_WEWGAH
_symmetry_cell_setting           triclinic
_symmetry_space_group_name_H-M   'P -1'
_symmetry_Int_Tables_number      2
_space_group_name_Hall           '-P 1'
loop_
_symmetry_equiv_pos_site_id
_symmetry_equiv_pos_as_xyz
1 x,y,z
2 -x,-y,-z
_cell_length_a                   7.621(4)
_cell_length_b                   9.634(4)
_cell_length_c                   10.500(5)
_cell_angle_alpha                106.409(18)
_cell_angle_beta                 105.273(18)
_cell_angle_gamma                100.88(2)
_cell_volume                     683.943
loop_
_atom_site_label
_atom_site_type_symbol
_atom_site_fract_x
_atom_site_fract_y
_atom_site_fract_z
Ho1 Ho 0.24667(2) 0.032622(17) 0.451767(16)
O1 O 0.3923(3) 0.0682(3) 0.2916(3)
O2 O 0.6853(3) 0.0392(3) 0.3446(3)
O3 O -0.0439(3) 0.1662(3) -0.2277(3)
O4 O 0.0633(3) 0.1378(3) -0.4041(2)
O5 O 0.5885(3) 0.7038(3) 0.4415(3)
O6 O 0.3993(3) 0.8450(3) 0.4166(3)
O7 O 0.0395(3) 0.1436(3) 0.3245(3)
C1 C 0.4778(5) 0.2739(4) 0.1552(4)
C2 C 0.4225(5) 0.2658(4) 0.0170(4)
H1 H 0.4621 0.1996 -0.0482
C3 C 0.3115(5) 0.3507(4) -0.0297(4)
C4 C 0.2574(4) 0.4496(4) 0.0665(4)
H2 H 0.1842 0.5112 0.0362
C5 C 0.3086(4) 0.4596(4) 0.2057(4)
C6 C 0.4175(5) 0.3715(4) 0.2506(4)
H3 H 0.4516 0.3772 0.3460
C7 C 0.6153(6) 0.1886(5) 0.2058(4)
H4 H 0.6362 0.1240 0.1225
H5 H 0.7386 0.2633 0.2671
C8 C 0.5564(5) 0.0909(4) 0.2852(4)
C9 C 0.2570(5) 0.3367(5) -0.1823(4)
H6 H 0.3645 0.3227 -0.2159
H7 H 0.2326 0.4316 -0.1908
C10 C 0.0828(5) 0.2062(4) -0.2750(4)
C11 C 0.2601(5) 0.5747(4) 0.3133(4)
H8 H 0.1496 0.6025 0.2644
H9 H 0.2247 0.5293 0.3799
C12 C 0.4246(5) 0.7142(4) 0.3941(4)
Ho1A Ho 0.75333(2) -0.032622(17) 0.548233(16)
Ho1A_2 Ho -0.24667(2) -0.032622(17) -0.451767(16)
Ho1_2 Ho 0.24667(2) 0.032622(17) -0.548233(16)
Ho1A_3 Ho 0.75333(2) 0.967378(17) 0.548233(16)
Ho1_3 Ho 0.24667(2) 1.032622(17) 0.451767(16)
O2A O 0.3147(3) -0.0392(3) 0.6554(3)
O3A O 0.0439(3) -0.1662(3) 0.2277(3)
O4_2 O 0.0633(3) 0.1378(3) 0.5959(2)
O4A O -0.0633(3) -0.1378(3) 0.4041(2)
O5A O 0.4115(3) 0.2962(3) 0.5585(3)
O6_2 O 0.3993(3) -0.1550(3) 0.4166(3)
O6A O 0.6007(3) 0.1550(3) 0.5834(3)
O8 O 0.0763(5) 0.8715(4) -0.0341(3)
O9 O 0.130(2) 0.4554(16) 0.5440(18)
loop_
_geom_bond_atom_site_label_1
_geom_bond_atom_site_label_2
_geom_bond_site_symmetry_1
_geom_bond_site_symmetry_2
Ho1 O1 1_555 1_555
O1 C8 1_555 1_555
O2 C8 1_555 1_555
O3 C10 1_555 1_555
O4 C10 1_555 1_555
O5 C12 1_555 1_555
O6 C12 1_555 1_555
O7 Ho1 1_555 1_555
C1 C2 1_555 1_555
C2 H1 1_555 1_555
C3 C2 1_555 1_555
C4 C3 1_555 1_555
H2 C4 1_555 1_555
C5 C4 1_555 1_555
C6 C1 1_555 1_555
H3 C6 1_555 1_555
C7 C1 1_555 1_555
H4 C7 1_555 1_555
H5 C7 1_555 1_555
C8 C7 1_555 1_555
C9 C3 1_555 1_555
H6 C9 1_555 1_555
H7 C9 1_555 1_555
C10 C9 1_555 1_555
C11 C5 1_555 1_555
H8 C11 1_555 1_555
H9 C11 1_555 1_555
C12 C11 1_555 1_555
Ho1A O2 1_555 1_555
Ho1A_2 O3 1_555 1_555
Ho1_2 O4 1_555 1_555
Ho1A_3 O5 1_555 1_555
Ho1_3 O6 1_555 1_555
O2A Ho1 1_555 1_555
O3A Ho1 1_555 1_555
O4_2 Ho1 1_555 1_555
O4A Ho1 1_555 1_555
O5A Ho1 1_555 1_555
O6_2 Ho1 1_555 1_555
O6A Ho1 1_555 1_555
O4 Ho1A_2 1_555 1_555
O6 Ho1A_3 1_555 1_555
C5 C6 1_555 1_555
Ho1A O6_2 1_555 1_555
Ho1A O6A 1_555 1_555

#END
