
#######################################################################
#
#                 Cambridge Crystallographic Data Centre
#                                CCDC 
#
#######################################################################
#
# If this CIF has been generated from an entry in the Cambridge 
# Structural Database, then it will include bibliographic, chemical, 
# crystal, experimental, refinement or atomic coordinate data resulting 
# from the CCDC's data processing and validation procedures.
#
#######################################################################

data_WEWGUB
_symmetry_cell_setting           triclinic
_symmetry_space_group_name_H-M   'P -1'
_symmetry_Int_Tables_number      2
_space_group_name_Hall           '-P 1'
loop_
_symmetry_equiv_pos_site_id
_symmetry_equiv_pos_as_xyz
1 x,y,z
2 -x,-y,-z
_cell_length_a                   8.7174(5)
_cell_length_b                   9.9377(5)
_cell_length_c                   21.153(2)
_cell_angle_alpha                81.145(2)
_cell_angle_beta                 87.591(2)
_cell_angle_gamma                67.345(5)
_cell_volume                     1670.65
loop_
_atom_site_label
_atom_site_type_symbol
_atom_site_fract_x
_atom_site_fract_y
_atom_site_fract_z
La1 La 0.74830(6) 1.01407(6) 0.51301(3)
O2 O 0.6881(8) 1.2778(7) 0.4529(3)
O4 O 0.7930(8) 0.7415(7) 0.5025(3)
H5 H 0.705(8) 0.737(13) 0.493(6)
O6 O 0.5034(8) 1.2241(7) 0.5572(3)
H8 H 0.442(5) 1.223(8) 0.5877(17)
O7 O 0.9602(8) 1.1518(7) 0.4543(3)
O8 O 0.8661(7) 0.9474(7) 0.4021(3)
O9 O 0.5094(8) 1.0619(7) 0.4389(3)
O10 O 1.1432(8) 0.8825(7) 0.4099(3)
O11 O 0.2970(8) 1.1110(8) 0.3750(4)
C1 C 0.4263(13) 1.1276(11) 0.3869(5)
O12 O 0.4460(12) 1.5524(11) 0.2801(4)
C2 C 0.498(2) 1.2146(17) 0.3395(6)
H9 H 0.6126 1.1748 0.3346
C3 C 0.4210(16) 1.3327(15) 0.3066(7)
H10 H 0.3057 1.3652 0.3062
C4 C 0.496(2) 1.4307(18) 0.2667(6)
C5 C 0.6066(17) 1.3847(14) 0.2128(6)
C6 C 0.656(2) 1.2473(16) 0.1973(6)
H11 H 0.6185 1.1790 0.2206
C7 C 0.762(2) 1.2080(16) 0.1468(6)
H12 H 0.8002 1.1114 0.1383
C8 C 0.8132(17) 1.3098(17) 0.1082(6)
C9 C 0.7494(15) 1.4568(14) 0.1230(6)
H13 H 0.7751 1.5295 0.0971
C10 C 0.6518(13) 1.4913(12) 0.1743(5)
H14 H 0.6143 1.5867 0.1842
C11 C 0.8332(11) 1.2634(9) 0.4349(5)
C12 C 0.8433(14) 1.3816(11) 0.3854(5)
H15 H 0.7769 1.4788 0.3894
O13 O 0.8485(10) 1.6033(8) 0.2867(4)
C13 C 0.9425(13) 1.3563(11) 0.3354(5)
H16 H 1.0155 1.2603 0.3328
C14 C 0.9407(14) 1.4763(12) 0.2833(5)
C15 C 1.0517(14) 1.4424(12) 0.2286(5)
C16 C 1.1334(15) 1.3005(13) 0.2129(6)
H17 H 1.1218 1.2199 0.2383
C17 C 1.2322(16) 1.2809(13) 0.1589(6)
H18 H 1.2841 1.1867 0.1481
C18 C 1.2554(16) 1.3976(14) 0.1211(6)
C19 C 1.1752(15) 1.5388(13) 0.1365(5)
H19 H 1.1883 1.6188 0.1111
C20 C 1.0754(14) 1.5598(12) 0.1898(5)
H20 H 1.0230 1.6545 0.2001
C21 C 1.0123(12) 0.9100(10) 0.3786(4)
C22 C 1.0278(12) 0.9029(12) 0.3086(5)
H21 H 0.9368 0.9066 0.2859
C23 C 1.1653(13) 0.8917(11) 0.2777(5)
H22 H 1.2573 0.8862 0.3004
O14 O 1.0612(9) 0.8890(9) 0.1769(4)
C24 C 1.1783(12) 0.8877(10) 0.2073(5)
C25 C 1.3325(12) 0.8860(11) 0.1734(5)
C26 C 1.4684(13) 0.8905(11) 0.2053(5)
H23 H 1.4639 0.8949 0.2490
C27 C 1.6097(14) 0.8884(12) 0.1715(5)
H24 H 1.6981 0.8936 0.1927
C28 C 1.6205(13) 0.8786(12) 0.1062(5)
C29 C 1.4818(14) 0.8748(13) 0.0752(5)
H25 H 1.4855 0.8694 0.0316
C30 C 1.3417(12) 0.8790(12) 0.1085(5)
H26 H 1.2517 0.8771 0.0871
C31 C 0.9189(18) 1.269(2) 0.0520(7)
H27 H 0.9418 1.3519 0.0314
H28 H 1.0215 1.1885 0.0657
H29 H 0.8619 1.2391 0.0224
C32 C 1.3671(17) 1.3705(17) 0.0638(7)
H30 H 1.4108 1.2674 0.0603
H31 H 1.4572 1.4010 0.0691
H32 H 1.3043 1.4261 0.0257
C33 C 1.7734(15) 0.8730(15) 0.0700(6)
H33 H 1.8544 0.8761 0.0985
H34 H 1.8185 0.7834 0.0516
H35 H 1.7455 0.9561 0.0365
H36 H 0.529(10) 1.295(6) 0.556(4)
La1A La 1.25170(6) 0.98593(6) 0.48699(3)
La1A_2 La 0.25170(6) 0.98593(6) 0.48699(3)
O7A O 1.0398(8) 0.8482(7) 0.5457(3)
O9A O 0.4906(8) 0.9381(7) 0.5611(3)
O10A O 0.8568(8) 1.1175(7) 0.5901(3)
O11A O 0.7030(8) 0.8890(8) 0.6250(4)
O1 O 0.5830(8) 1.4516(7) 0.5846(4)
H1 H 0.490(5) 1.514(9) 0.575(4)
H2 H 0.588(12) 1.426(12) 0.6235(9)
O3 O 0.3412(8) 1.1497(8) 0.6594(4)
H3 H 0.277(8) 1.233(5) 0.664(6)
H4 H 0.289(9) 1.109(9) 0.643(6)
O5 O 1.0761(10) 0.5817(8) 0.4399(5)
H6 H 1.169(4) 0.584(9) 0.442(8)
H7 H 1.087(10) 0.496(4) 0.439(8)
loop_
_geom_bond_atom_site_label_1
_geom_bond_atom_site_label_2
_geom_bond_site_symmetry_1
_geom_bond_site_symmetry_2
La1 O2 1_555 1_555
O1 H1 1_555 1_555
H2 O1 1_555 1_555
O2 C11 1_555 1_555
O3 H3 1_555 1_555
H4 O3 1_555 1_555
O4 La1 1_555 1_555
H5 O4 1_555 1_555
O5 H6 1_555 1_555
H7 O5 1_555 1_555
O6 La1 1_555 1_555
H8 O6 1_555 1_555
O7 La1 1_555 1_555
O8 La1 1_555 1_555
O9 La1 1_555 1_555
O10 C21 1_555 1_555
O11 C1 1_555 1_555
C1 O9 1_555 1_555
O12 C4 1_555 1_555
C2 C1 1_555 1_555
H9 C2 1_555 1_555
C3 C2 1_555 1_555
H10 C3 1_555 1_555
C4 C3 1_555 1_555
C5 C4 1_555 1_555
C6 C5 1_555 1_555
H11 C6 1_555 1_555
C7 C6 1_555 1_555
H12 C7 1_555 1_555
C8 C7 1_555 1_555
C9 C8 1_555 1_555
H13 C9 1_555 1_555
C10 C5 1_555 1_555
H14 C10 1_555 1_555
C11 O7 1_555 1_555
C12 C11 1_555 1_555
H15 C12 1_555 1_555
O13 C14 1_555 1_555
C13 C12 1_555 1_555
H16 C13 1_555 1_555
C14 C13 1_555 1_555
C15 C14 1_555 1_555
C16 C15 1_555 1_555
H17 C16 1_555 1_555
C17 C16 1_555 1_555
H18 C17 1_555 1_555
C18 C17 1_555 1_555
C19 C18 1_555 1_555
H19 C19 1_555 1_555
C20 C15 1_555 1_555
H20 C20 1_555 1_555
C21 O8 1_555 1_555
C22 C21 1_555 1_555
H21 C22 1_555 1_555
C23 C22 1_555 1_555
H22 C23 1_555 1_555
O14 C24 1_555 1_555
C24 C23 1_555 1_555
C25 C24 1_555 1_555
C26 C25 1_555 1_555
H23 C26 1_555 1_555
C27 C26 1_555 1_555
H24 C27 1_555 1_555
C28 C27 1_555 1_555
C29 C28 1_555 1_555
H25 C29 1_555 1_555
C30 C25 1_555 1_555
H26 C30 1_555 1_555
C31 C8 1_555 1_555
H27 C31 1_555 1_555
H28 C31 1_555 1_555
H29 C31 1_555 1_555
C32 C18 1_555 1_555
H30 C32 1_555 1_555
H31 C32 1_555 1_555
H32 C32 1_555 1_555
C33 C28 1_555 1_555
H33 C33 1_555 1_555
H34 C33 1_555 1_555
H35 C33 1_555 1_555
H36 O6 1_555 1_555
La1A O7 1_555 1_555
La1A_2 O9 1_555 1_555
O7A La1 1_555 1_555
O9A La1 1_555 1_555
O10A La1 1_555 1_555
O11A La1 1_555 1_555
O10 La1A 1_555 1_555
O11 La1A_2 1_555 1_555
C9 C10 1_555 1_555
C19 C20 1_555 1_555
C29 C30 1_555 1_555
La1A O7A 1_555 1_555
La1A_2 O9A 1_555 1_555

#END
