
#######################################################################
#
#                 Cambridge Crystallographic Data Centre
#                                CCDC 
#
#######################################################################
#
# If this CIF has been generated from an entry in the Cambridge 
# Structural Database, then it will include bibliographic, chemical, 
# crystal, experimental, refinement or atomic coordinate data resulting 
# from the CCDC's data processing and validation procedures.
#
#######################################################################

data_WEWHAJ
_symmetry_cell_setting           trigonal
_symmetry_space_group_name_H-M   'P 32 2 1'
_symmetry_Int_Tables_number      154
_space_group_name_Hall           'P 32 2"'
loop_
_symmetry_equiv_pos_site_id
_symmetry_equiv_pos_as_xyz
1 x,y,z
2 -y,x-y,2/3+z
3 -x+y,-x,1/3+z
4 x-y,-y,1/3-z
5 -x,-x+y,2/3-z
6 y,x,-z
_cell_length_a                   12.1793(6)
_cell_length_b                   12.1793(6)
_cell_length_c                   26.9353(13)
_cell_angle_alpha                90
_cell_angle_beta                 90
_cell_angle_gamma                120
_cell_volume                     3460.17
loop_
_atom_site_label
_atom_site_type_symbol
_atom_site_fract_x
_atom_site_fract_y
_atom_site_fract_z
C1 C 0.6943(2) -0.1085(2) 0.22319(11)
C2 C 0.7144(2) -0.0053(2) 0.19387(11)
C3 C 0.7077(3) 0.0807(2) 0.22781(11)
C4 C 0.6934(3) -0.2292(3) 0.21145(12)
H1 H 0.7592 -0.2324 0.2299
H2 H 0.7078 -0.2323 0.1766
H3 H 0.6127 -0.3003 0.2203
C5 C 0.7223(3) 0.2079(3) 0.21582(12)
H4 H 0.6517 0.2126 0.2292
H5 H 0.7250 0.2187 0.1805
H6 H 0.7995 0.2735 0.2302
C6 C 0.8503(3) 0.4874(3) 0.31041(14)
C7 C 0.9302(3) 0.4499(3) 0.33197(12)
C8 C 0.8490(3) 0.3250(3) 0.35004(12)
C9 C 0.8783(3) 0.6066(4) 0.28392(17)
H7 H 0.8206 0.5864 0.2566
H8 H 0.9637 0.6478 0.2716
H9 H 0.8686 0.6622 0.3065
C10 C 0.8837(3) 0.2405(3) 0.37750(12)
H10 H 0.8213 0.1951 0.4027
H11 H 0.9652 0.2907 0.3927
H12 H 0.8868 0.1814 0.3548
C11 C 0.5272(2) -0.0619(3) 0.41397(11)
C12 C 0.5039(3) -0.1421(3) 0.45984(12)
C13 C 0.3928(3) -0.1840(3) 0.48729(13)
H13 H 0.3320 -0.1646 0.4764
C14 C 0.3712(3) -0.2539(3) 0.53040(13)
H14 H 0.2962 -0.2820 0.5481
C15 C 0.4622(3) -0.2814(4) 0.54689(14)
H15 H 0.4491 -0.3273 0.5760
C16 C 0.5730(3) -0.2405(3) 0.52007(13)
H16 H 0.6334 -0.2599 0.5314
C17 C 0.5956(3) -0.1712(3) 0.47659(9)
C18 C 0.7203(3) -0.1207(4) 0.44956(11)
C19 C 0.8275(3) -0.0182(4) 0.47047(13)
H17 H 0.8202 0.0151 0.5006
C20 C 0.9452(3) 0.0353(4) 0.44709(13)
H18 H 1.0154 0.1037 0.4617
C21 C 0.9580(3) -0.0123(4) 0.40270(12)
H19 H 1.0366 0.0232 0.3872
C22 C 0.8524(3) -0.1142(4) 0.38104(13)
H20 H 0.8609 -0.1459 0.3508
C23 C 0.7341(2) -0.1692(3) 0.40409(12)
C24 C 0.6261(3) -0.2837(4) 0.37935(12)
N1 N 0.6849(2) 0.03427(19) 0.27390(9)
N2 N 0.6770(2) -0.0817(2) 0.27034(11)
N3 N 0.7279(2) 0.2898(2) 0.34013(9)
N4 N 0.7316(3) 0.3905(2) 0.31595(10)
O1 O 0.4850(3) -0.11375(18) 0.37287(8)
O2 O 0.5881(2) 0.0548(2) 0.41753(9)
O3 O 0.5519(2) -0.3764(3) 0.40470(9)
O4 O 0.6162(2) -0.2836(3) 0.33270(9)
Cd1 Cd 0.572089(19) 0.08283(2) 0.330951(8)
H21 H 0.661(2) -0.133(3) 0.2912(11)
H22 H 0.671(3) 0.395(3) 0.3112(13)
C1C C 0.8028(3) 0.1085(2) 0.11014(11)
C2C C 0.7197(3) 0.0053(2) 0.13946(11)
C3C C 0.6270(4) -0.0807(2) 0.10552(11)
C4C C 0.9226(4) 0.2292(3) 0.12188(12)
H1C H 0.9916 0.2324 0.1034
H2C H 0.9401 0.2323 0.1567
H3C H 0.9130 0.3003 0.1130
C5C C 0.5144(4) -0.2079(3) 0.11751(12)
H4C H 0.4391 -0.2126 0.1041
H5C H 0.5063 -0.2187 0.1528
H6C H 0.5260 -0.2735 0.1031
N1C N 0.65063(28) -0.03427(19) 0.05943(9)
N2C N 0.7587(3) 0.0817(2) 0.06299(11)
H21C H 0.794(4) 0.133(3) 0.0421(11)
C6D C 1.1497(3) 0.6371(4) 0.35626(14)
C7D C 1.0698(3) 0.5197(4) 0.33470(12)
C8D C 1.1510(3) 0.4760(4) 0.31663(12)
C9D C 1.1217(3) 0.7283(5) 0.38275(17)
H7D H 1.1794 0.7658 0.4101
H8D H 1.0363 0.6841 0.3951
H9D H 1.1314 0.7936 0.3602
C10D C 1.1163(3) 0.3568(4) 0.28917(12)
H10D H 1.1787 0.3738 0.2640
H11D H 1.0348 0.3255 0.2740
H12D H 1.1132 0.2946 0.3119
N3D N 1.2721(2) 0.5619(3) 0.32654(9)
N4D N 1.2684(3) 0.6589(4) 0.35072(10)
H22D H 1.329(3) 0.724(4) 0.3555(13)
C11C C 0.5891(4) 0.0619(3) -0.08064(11)
C12C C 0.6460(4) 0.1421(3) -0.12651(12)
C13C C 0.5768(4) 0.1840(3) -0.15396(13)
H13C H 0.4966 0.1646 -0.1431
C14C C 0.6251(4) 0.2539(3) -0.19707(13)
H14C H 0.5782 0.2820 -0.2148
C15C C 0.7436(5) 0.2814(4) -0.21356(14)
H15C H 0.7764 0.3273 -0.2427
C16C C 0.8135(4) 0.2405(3) -0.18674(13)
H16C H 0.8933 0.2599 -0.1981
C17C C 0.7668(4) 0.1712(3) -0.14326(9)
C18C C 0.8410(5) 0.1207(4) -0.11623(11)
C19C C 0.8457(5) 0.0182(4) -0.13714(13)
H17C H 0.8051 -0.0151 -0.1673
C20C C 0.9099(5) -0.0353(4) -0.11376(13)
H18C H 0.9117 -0.1037 -0.1284
C21C C 0.9703(5) 0.0123(4) -0.06937(12)
H19C H 1.0134 -0.0232 -0.0539
C22C C 0.9666(5) 0.1142(4) -0.04771(13)
H20C H 1.0068 0.1459 -0.0175
C23C C 0.9033(4) 0.1692(3) -0.07076(12)
C24C C 0.9098(5) 0.2837(4) -0.04602(12)
O1C O 0.59875(35) 0.11375(18) -0.03954(8)
O2C O 0.5333(3) -0.0548(2) -0.08420(9)
O3C O 0.9283(4) 0.3764(3) -0.07137(9)
O4C O 0.8998(4) 0.2836(3) 0.00063(9)
Cd1C Cd 0.489259(28) -0.08283(2) 0.002382(8)
N3C N 0.4381(3) -0.2898(2) -0.00680(9)
O3A O 0.3764(3) -0.0717(4) 0.07137(9)
O3D O 0.4481(2) 0.0717(4) 0.26197(9)
O4A O 0.2836(3) -0.1002(4) -0.00063(9)
O4D O 0.3838(2) 0.1002(4) 0.33397(9)
Cd1A Cd 0.91717(2) 0.489259(28) -0.002382(8)
Cd1D Cd 0.427911(19) -0.489259(28) 0.335716(8)
Cd1D_2 Cd 1.427911(19) 0.510741(28) 0.335716(8)
loop_
_geom_bond_atom_site_label_1
_geom_bond_atom_site_label_2
_geom_bond_site_symmetry_1
_geom_bond_site_symmetry_2
C1 C2 1_555 1_555
C2 C3 1_555 1_555
C3 C5 1_555 1_555
C4 C1 1_555 1_555
H1 C4 1_555 1_555
H2 C4 1_555 1_555
H3 C4 1_555 1_555
C5 H4 1_555 1_555
H5 C5 1_555 1_555
H6 C5 1_555 1_555
C6 C7 1_555 1_555
C7 C8 1_555 1_555
C8 C10 1_555 1_555
C9 C6 1_555 1_555
H7 C9 1_555 1_555
H8 C9 1_555 1_555
H9 C9 1_555 1_555
C10 H10 1_555 1_555
H11 C10 1_555 1_555
H12 C10 1_555 1_555
C11 C12 1_555 1_555
C12 C13 1_555 1_555
C13 H13 1_555 1_555
C14 C13 1_555 1_555
H14 C14 1_555 1_555
C15 C14 1_555 1_555
H15 C15 1_555 1_555
C16 C15 1_555 1_555
H16 C16 1_555 1_555
C17 C12 1_555 1_555
C18 C17 1_555 1_555
C19 C18 1_555 1_555
H17 C19 1_555 1_555
C20 C19 1_555 1_555
H18 C20 1_555 1_555
C21 C20 1_555 1_555
H19 C21 1_555 1_555
C22 C21 1_555 1_555
H20 C22 1_555 1_555
C23 C18 1_555 1_555
C24 C23 1_555 1_555
N1 C3 1_555 1_555
N2 C1 1_555 1_555
N3 C8 1_555 1_555
N4 C6 1_555 1_555
O1 C11 1_555 1_555
O2 C11 1_555 1_555
O3 C24 1_555 1_555
O4 C24 1_555 1_555
Cd1 N1 1_555 1_555
H21 N2 1_555 1_555
H22 N4 1_555 1_555
C1C C2C 1_555 1_555
C2C C2 1_555 1_555
C3C C2C 1_555 1_555
C4C C1C 1_555 1_555
H1C C4C 1_555 1_555
H2C C4C 1_555 1_555
H3C C4C 1_555 1_555
C5C C3C 1_555 1_555
H4C C5C 1_555 1_555
H5C C5C 1_555 1_555
H6C C5C 1_555 1_555
N1C C3C 1_555 1_555
N2C C1C 1_555 1_555
H21C N2C 1_555 1_555
C6D C7D 1_555 1_555
C7D C7 1_555 1_555
C8D C7D 1_555 1_555
C9D C6D 1_555 1_555
H7D C9D 1_555 1_555
H8D C9D 1_555 1_555
H9D C9D 1_555 1_555
C10D C8D 1_555 1_555
H10D C10D 1_555 1_555
H11D C10D 1_555 1_555
H12D C10D 1_555 1_555
N3D C8D 1_555 1_555
N4D C6D 1_555 1_555
H22D N4D 1_555 1_555
C11C C12C 1_555 1_555
C12C C13C 1_555 1_555
C13C H13C 1_555 1_555
C14C C13C 1_555 1_555
H14C C14C 1_555 1_555
C15C C14C 1_555 1_555
H15C C15C 1_555 1_555
C16C C15C 1_555 1_555
H16C C16C 1_555 1_555
C17C C12C 1_555 1_555
C18C C17C 1_555 1_555
C19C C18C 1_555 1_555
H17C C19C 1_555 1_555
C20C C19C 1_555 1_555
H18C C20C 1_555 1_555
C21C C20C 1_555 1_555
H19C C21C 1_555 1_555
C22C C21C 1_555 1_555
H20C C22C 1_555 1_555
C23C C18C 1_555 1_555
C24C C23C 1_555 1_555
O1C C11C 1_555 1_555
O2C C11C 1_555 1_555
O3C C24C 1_555 1_555
O4C C24C 1_555 1_555
Cd1C N1C 1_555 1_555
N3C Cd1C 1_555 1_555
O3A Cd1C 1_555 1_555
O3D Cd1 1_555 1_555
O4A Cd1C 1_555 1_555
O4D Cd1 1_555 1_555
Cd1A O3C 1_555 1_555
Cd1D O3 1_555 1_555
Cd1D_2 N3D 1_555 1_555
C16 C17 1_555 1_555
C22 C23 1_555 1_555
N1 N2 1_555 1_555
N3 N4 1_555 1_555
N3 Cd1 1_555 1_555
O1 Cd1 1_555 1_555
O2 Cd1 1_555 1_555
O4 Cd1D 1_555 1_555
N1C N2C 1_555 1_555
N3D N4D 1_555 1_555
C16C C17C 1_555 1_555
C22C C23C 1_555 1_555
O1C Cd1C 1_555 1_555
O2C Cd1C 1_555 1_555
O4C Cd1A 1_555 1_555

#END
