
#######################################################################
#
#                 Cambridge Crystallographic Data Centre
#                                CCDC 
#
#######################################################################
#
# If this CIF has been generated from an entry in the Cambridge 
# Structural Database, then it will include bibliographic, chemical, 
# crystal, experimental, refinement or atomic coordinate data resulting 
# from the CCDC's data processing and validation procedures.
#
#######################################################################

data_WEWHOX
_symmetry_cell_setting           orthorhombic
_symmetry_space_group_name_H-M   'P 21 21 21'
_symmetry_Int_Tables_number      19
_space_group_name_Hall           'P 2ac 2ab'
loop_
_symmetry_equiv_pos_site_id
_symmetry_equiv_pos_as_xyz
1 x,y,z
2 1/2-x,-y,1/2+z
3 1/2+x,1/2-y,-z
4 -x,1/2+y,1/2-z
_cell_length_a                   8.4769(3)
_cell_length_b                   18.5949(7)
_cell_length_c                   22.2123(9)
_cell_angle_alpha                90
_cell_angle_beta                 90
_cell_angle_gamma                90
_cell_volume                     3501.26
loop_
_atom_site_label
_atom_site_type_symbol
_atom_site_fract_x
_atom_site_fract_y
_atom_site_fract_z
C1 C 0.1910(3) 0.54763(11) 0.25121(9)
C2 C 0.3340(2) 0.57433(10) 0.23119(11)
C3 C 0.4372(3) 0.51493(10) 0.22941(9)
C4 C 0.0381(3) 0.58502(12) 0.26297(13)
H1 H -0.0391 0.5694 0.2342
H2 H 0.0527 0.6360 0.2595
H3 H 0.0023 0.5737 0.3029
C5 C 0.6060(3) 0.51634(12) 0.21004(11)
H4 H 0.6709 0.4967 0.2414
H5 H 0.6372 0.5651 0.2021
H6 H 0.6182 0.4882 0.1741
C6 C 0.3045(3) 0.68611(11) 0.16649(10)
C7 C 0.3723(2) 0.64856(12) 0.21394(9)
C8 C 0.4807(2) 0.69613(11) 0.24108(10)
C9 C 0.1907(3) 0.66305(12) 0.11956(11)
H7 H 0.0893 0.6839 0.1277
H8 H 0.1821 0.6116 0.1198
H9 H 0.2271 0.6787 0.0808
C10 C 0.5844(3) 0.68512(12) 0.29434(10)
H10 H 0.6790 0.7130 0.2897
H11 H 0.6112 0.6351 0.2976
H12 H 0.5300 0.7001 0.3301
C11 C 0.8102(3) 0.35358(14) 0.14845(9)
C12 C 0.6938(2) 0.35297(13) 0.10458(9)
C13 C 0.5500(2) 0.35381(12) 0.13659(8)
C14 C 0.9862(3) 0.35219(19) 0.14401(11)
H13 H 1.0311 0.3631 0.1826
H14 H 1.0204 0.3873 0.1151
H15 H 1.0201 0.3053 0.1314
C15 C 0.3868(2) 0.35501(15) 0.11212(10)
H16 H 0.3507 0.3066 0.1061
H17 H 0.3860 0.3802 0.0744
H18 H 0.3183 0.3791 0.1400
C16 C 0.7712(3) 0.40993(12) 0.00450(10)
C17 C 0.7119(2) 0.35425(14) 0.03877(9)
C18 C 0.6648(3) 0.30164(12) -0.00332(10)
C19 C 0.8367(4) 0.48166(14) 0.02243(12)
H19 H 0.9478 0.4828 0.0142
H20 H 0.8194 0.4892 0.0647
H21 H 0.7849 0.5189 -0.0001
C20 C 0.5950(3) 0.22941(13) 0.01002(11)
H22 H 0.4856 0.2293 -0.0012
H23 H 0.6044 0.2195 0.0523
H24 H 0.6501 0.1932 -0.0125
C21 C 0.5718(3) 0.45432(11) 0.36467(9)
C22 C 0.4151(3) 0.47177(11) 0.39411(9)
C23 C 0.3643(3) 0.54320(12) 0.39428(10)
H25 H 0.4311 0.5790 0.3799
C24 C 0.2160(3) 0.56178(13) 0.41547(12)
H26 H 0.1833 0.6095 0.4152
C25 C 0.1170(3) 0.50829(15) 0.43713(13)
H27 H 0.0164 0.5200 0.4506
C26 C 0.1675(3) 0.43755(14) 0.43870(12)
H28 H 0.1008 0.4024 0.4542
C27 C 0.3169(3) 0.41777(12) 0.41743(10)
C28 C 0.3624(3) 0.34050(12) 0.42447(10)
C29 C 0.4702(3) 0.31941(13) 0.46844(11)
H29 H 0.5243 0.3544 0.4901
C30 C 0.4985(3) 0.24728(14) 0.48055(12)
H30 H 0.5723 0.2343 0.5096
C31 C 0.4162(3) 0.19452(13) 0.44917(11)
H31 H 0.4328 0.1462 0.4579
C32 C 0.3097(3) 0.21411(12) 0.40500(10)
H32 H 0.2558 0.1788 0.3836
C33 C 0.2824(3) 0.28676(12) 0.39223(10)
C34 C 0.1667(3) 0.30689(12) 0.34366(10)
N1 N 0.3606(2) 0.45569(10) 0.24779(8)
N2 N 0.2110(2) 0.47715(9) 0.26041(9)
N3 N 0.4767(2) 0.75916(9) 0.21217(8)
N4 N 0.3689(2) 0.75221(10) 0.16779(9)
N5 N 0.5782(2) 0.35532(10) 0.19579(7)
N6 N 0.7383(2) 0.35361(11) 0.20199(8)
N7 N 0.6941(3) 0.32247(11) -0.05973(9)
N8 N 0.7599(3) 0.38889(11) -0.05335(9)
O1 O 0.58477(19) 0.39328(8) 0.33989(7)
O2 O 0.6783(2) 0.50074(9) 0.36419(8)
O3 O 0.22013(18) 0.33616(8) 0.29591(7)
O4 O 0.0243(2) 0.29602(11) 0.35307(9)
Cu1 Cu 0.43449(3) 0.355569(13) 0.266748(11)
H33 H 0.149(3) 0.4489(13) 0.2736(13)
H34 H 0.352(4) 0.7861(13) 0.1458(11)
H35 H 0.779(3) 0.3632(17) 0.2339(10)
H36 H 0.779(4) 0.4128(15) -0.0829(11)
N3C N 0.5233(2) 0.25916(9) 0.28783(8)
Cu1C Cu 0.56551(3) 0.855569(13) 0.233252(11)
O5 O -0.0872(2) 0.41532(9) 0.29709(7)
H37 H -0.068(4) 0.3777(11) 0.3166(11)
H38 H -0.144(4) 0.4405(14) 0.3209(13)
loop_
_geom_bond_atom_site_label_1
_geom_bond_atom_site_label_2
_geom_bond_site_symmetry_1
_geom_bond_site_symmetry_2
C1 C2 1_555 1_555
C2 C3 1_555 1_555
C3 C5 1_555 1_555
C4 C1 1_555 1_555
H1 C4 1_555 1_555
H2 C4 1_555 1_555
H3 C4 1_555 1_555
C5 H4 1_555 1_555
H5 C5 1_555 1_555
H6 C5 1_555 1_555
C6 C7 1_555 1_555
C7 C2 1_555 1_555
C8 C7 1_555 1_555
C9 C6 1_555 1_555
H7 C9 1_555 1_555
H8 C9 1_555 1_555
H9 C9 1_555 1_555
C10 C8 1_555 1_555
H10 C10 1_555 1_555
H11 C10 1_555 1_555
H12 C10 1_555 1_555
C11 C12 1_555 1_555
C12 C13 1_555 1_555
C13 C15 1_555 1_555
C14 C11 1_555 1_555
H13 C14 1_555 1_555
H14 C14 1_555 1_555
H15 C14 1_555 1_555
C15 H16 1_555 1_555
H17 C15 1_555 1_555
H18 C15 1_555 1_555
C16 C17 1_555 1_555
C17 C12 1_555 1_555
C18 C17 1_555 1_555
C19 C16 1_555 1_555
H19 C19 1_555 1_555
H20 C19 1_555 1_555
H21 C19 1_555 1_555
C20 C18 1_555 1_555
H22 C20 1_555 1_555
H23 C20 1_555 1_555
H24 C20 1_555 1_555
C21 C22 1_555 1_555
C22 C23 1_555 1_555
C23 H25 1_555 1_555
C24 C23 1_555 1_555
H26 C24 1_555 1_555
C25 C24 1_555 1_555
H27 C25 1_555 1_555
C26 C25 1_555 1_555
H28 C26 1_555 1_555
C27 C22 1_555 1_555
C28 C27 1_555 1_555
C29 C28 1_555 1_555
H29 C29 1_555 1_555
C30 C29 1_555 1_555
H30 C30 1_555 1_555
C31 C30 1_555 1_555
H31 C31 1_555 1_555
C32 C31 1_555 1_555
H32 C32 1_555 1_555
C33 C28 1_555 1_555
C34 C33 1_555 1_555
N1 C3 1_555 1_555
N2 C1 1_555 1_555
N3 C8 1_555 1_555
N4 C6 1_555 1_555
N5 C13 1_555 1_555
N6 C11 1_555 1_555
N7 C18 1_555 1_555
N8 C16 1_555 1_555
O1 C21 1_555 1_555
O2 C21 1_555 1_555
O3 C34 1_555 1_555
O4 C34 1_555 1_555
Cu1 N1 1_555 1_555
H33 N2 1_555 1_555
H34 N4 1_555 1_555
H35 N6 1_555 1_555
H36 N8 1_555 1_555
O5 H37 1_555 1_555
H38 O5 1_555 1_555
N3C Cu1 1_555 1_555
Cu1C N3 1_555 1_555
C26 C27 1_555 1_555
C32 C33 1_555 1_555
N1 N2 1_555 1_555
N3 N4 1_555 1_555
N5 N6 1_555 1_555
N5 Cu1 1_555 1_555
N7 N8 1_555 1_555
O1 Cu1 1_555 1_555
O3 Cu1 1_555 1_555

#END
