
#######################################################################
#
#                 Cambridge Crystallographic Data Centre
#                                CCDC 
#
#######################################################################
#
# If this CIF has been generated from an entry in the Cambridge 
# Structural Database, then it will include bibliographic, chemical, 
# crystal, experimental, refinement or atomic coordinate data resulting 
# from the CCDC's data processing and validation procedures.
#
#######################################################################

data_WEWHAI
_symmetry_cell_setting           triclinic
_symmetry_space_group_name_H-M   'P -1'
_symmetry_Int_Tables_number      2
_space_group_name_Hall           '-P 1'
loop_
_symmetry_equiv_pos_site_id
_symmetry_equiv_pos_as_xyz
1 x,y,z
2 -x,-y,-z
_cell_length_a                   9.8279(4)
_cell_length_b                   11.8278(5)
_cell_length_c                   17.8730(7)
_cell_angle_alpha                72.7960(10)
_cell_angle_beta                 83.3820(10)
_cell_angle_gamma                67.1650(10)
_cell_volume                     1829.1
loop_
_atom_site_label
_atom_site_type_symbol
_atom_site_fract_x
_atom_site_fract_y
_atom_site_fract_z
La1 La -0.21588(2) 0.96679(2) -0.005810(13)
O1 O -0.1518(3) 0.9290(2) 0.13407(14)
O2 O -0.3500(3) 0.9818(3) 0.21000(15)
O3 O 0.4139(4) 0.3119(4) 0.46482(19)
H1 H 0.3766 0.2908 0.5075
O4 O -0.0165(3) 0.7506(2) 0.02659(17)
O5 O 0.1259(3) 0.8578(2) 0.02317(15)
O6 O 0.8970(3) 0.2248(3) 0.19218(19)
H2 H 0.8828 0.1800 0.2347
O7 O -0.4088(3) 1.0974(3) -0.10433(15)
O8 O -0.6434(3) 1.1639(2) -0.06743(15)
O9 O -0.9779(4) 1.7788(3) -0.46145(19)
H3 H -0.9217 1.7799 -0.4991
O10 O -0.4290(3) 1.1200(2) 0.05739(16)
H4 H -0.409(5) 1.090(4) 0.1085(8)
H5 H -0.5240(18) 1.140(4) 0.047(2)
O11 O -0.0659(3) 0.9821(3) -0.13017(16)
H6 H 0.002(4) 1.017(4) -0.134(3)
H7 H -0.032(5) 0.916(3) -0.150(2)
O12 O -0.2458(3) 0.8277(3) -0.09043(17)
H8 H -0.194(5) 0.7444(14) -0.070(3)
N1 N -0.2901(5) 0.7796(4) 0.3924(2)
N2 N 0.1504(4) 0.4372(3) 0.0963(2)
N3 N -0.3708(5) 1.2246(4) -0.2968(2)
C1 C -0.2200(4) 0.9158(4) 0.1992(2)
C2 C -0.1348(4) 0.8110(4) 0.2676(2)
C3 C -0.2204(5) 0.7940(4) 0.3379(2)
C4 C 0.0071(4) 0.7363(4) 0.2613(2)
H9 H 0.0480 0.7570 0.2120
C5 C 0.1080(5) 0.6290(4) 0.3176(2)
C6 C 0.2404(5) 0.5540(4) 0.2898(2)
H10 H 0.2614 0.5761 0.2366
C7 C 0.3402(5) 0.4490(5) 0.3382(3)
H11 H 0.4270 0.4001 0.3179
C8 C 0.3115(5) 0.4159(4) 0.4177(2)
C9 C 0.1831(5) 0.4900(4) 0.4471(2)
H12 H 0.1642 0.4684 0.5006
C10 C 0.0829(5) 0.5950(4) 0.3985(2)
H13 H -0.0027 0.6443 0.4195
C11 C 0.1049(4) 0.7553(3) 0.0361(2)
C12 C 0.2280(4) 0.6298(3) 0.0660(2)
C13 C 0.1860(4) 0.5221(4) 0.0840(2)
C14 C 0.3691(4) 0.6207(3) 0.0699(2)
H14 H 0.3832 0.6974 0.0497
C15 C 0.5017(4) 0.5114(3) 0.1002(2)
C16 C 0.6376(4) 0.5245(4) 0.0810(2)
H15 H 0.6400 0.6007 0.0475
C17 C 0.7681(4) 0.4274(4) 0.1103(2)
H16 H 0.8576 0.4371 0.0952
C18 C 0.7655(4) 0.3160(4) 0.1618(2)
C19 C 0.6327(5) 0.2997(4) 0.1823(3)
H17 H 0.6313 0.2241 0.2171
C20 C 0.5033(5) 0.3952(4) 0.1511(2)
H18 H 0.4148 0.3826 0.1640
C21 C -0.5416(4) 1.1670(3) -0.1167(2)
C22 C -0.5799(4) 1.2615(3) -0.1956(2)
C23 C -0.4632(5) 1.2433(4) -0.2520(2)
C24 C -0.7130(4) 1.3568(3) -0.2090(2)
H19 H -0.7782 1.3526 -0.1672
C25 C -0.7743(4) 1.4649(3) -0.2763(2)
C26 C -0.9227(5) 1.5417(4) -0.2741(2)
H20 H -0.9776 1.5221 -0.2297
C27 C -0.9909(5) 1.6453(4) -0.3352(3)
H21 H -1.0909 1.6936 -0.3325
C28 C -0.9099(5) 1.6770(4) -0.4005(2)
C29 C -0.7618(5) 1.6053(4) -0.4040(3)
H22 H -0.7070 1.6282 -0.4477
C30 C -0.6940(5) 1.5000(4) -0.3433(3)
H23 H -0.5941 1.4517 -0.3467
C31 C -0.2648(9) 0.8664(8) -0.1845(6)
H24 H -0.2718 0.7971 -0.1993
H25 H -0.1809 0.8843 -0.2098
H26 H -0.3529 0.9408 -0.2003
La1A La 0.21588(2) 1.03321(2) 0.005810(13)
La1A_2 La -0.78412(2) 1.03321(2) 0.005810(13)
O5A O -0.1259(3) 1.1422(2) -0.02317(15)
O8A O -0.3566(3) 0.8361(2) 0.06743(15)
O13 O -0.4623(7) 0.9136(7) -0.3286(3)
H27 H -0.414(10) 0.913(10) -0.287(4)
H28 H -0.410(10) 0.944(9) -0.370(4)
O14 O -0.6400(7) 0.8926(6) -0.4231(3)
H29 H -0.574(8) 0.821(5) -0.433(6)
H30 H -0.587(10) 0.928(10) -0.406(6)
O15 O -0.1255(5) 0.0598(4) 0.3210(2)
H31 H -0.036(4) 0.009(6) 0.342(4)
H32 H -0.179(7) 0.085(7) 0.361(3)
O16 O -0.2402(6) 0.9524(5) -0.4321(3)
H33 H -0.284(9) 0.991(7) -0.479(2)
H34 H -0.162(6) 0.898(6) -0.451(5)
O17 O -0.8613(5) 0.8805(4) -0.6010(2)
H35 H -0.789(5) 0.836(6) -0.628(3)
H36 H -0.815(7) 0.905(7) -0.572(4)
loop_
_geom_bond_atom_site_label_1
_geom_bond_atom_site_label_2
_geom_bond_site_symmetry_1
_geom_bond_site_symmetry_2
La1 O1 1_555 1_555
O1 C1 1_555 1_555
O2 C1 1_555 1_555
O3 H1 1_555 1_555
O4 La1 1_555 1_555
O5 C11 1_555 1_555
O6 H2 1_555 1_555
O7 La1 1_555 1_555
O8 C21 1_555 1_555
O9 H3 1_555 1_555
O10 La1 1_555 1_555
H4 O10 1_555 1_555
H5 O10 1_555 1_555
O11 La1 1_555 1_555
H6 O11 1_555 1_555
H7 O11 1_555 1_555
O12 La1 1_555 1_555
H8 O12 1_555 1_555
N1 C3 1_555 1_555
N2 C13 1_555 1_555
N3 C23 1_555 1_555
C1 C2 1_555 1_555
C2 C3 1_555 1_555
C4 C2 1_555 1_555
H9 C4 1_555 1_555
C5 C4 1_555 1_555
C6 C5 1_555 1_555
H10 C6 1_555 1_555
C7 C6 1_555 1_555
H11 C7 1_555 1_555
C8 O3 1_555 1_555
C9 C8 1_555 1_555
H12 C9 1_555 1_555
C10 C5 1_555 1_555
H13 C10 1_555 1_555
C11 O4 1_555 1_555
C12 C11 1_555 1_555
C13 C12 1_555 1_555
C14 C12 1_555 1_555
H14 C14 1_555 1_555
C15 C14 1_555 1_555
C16 C15 1_555 1_555
H15 C16 1_555 1_555
C17 C16 1_555 1_555
H16 C17 1_555 1_555
C18 O6 1_555 1_555
C19 C18 1_555 1_555
H17 C19 1_555 1_555
C20 C15 1_555 1_555
H18 C20 1_555 1_555
C21 O7 1_555 1_555
C22 C21 1_555 1_555
C23 C22 1_555 1_555
C24 C22 1_555 1_555
H19 C24 1_555 1_555
C25 C24 1_555 1_555
C26 C25 1_555 1_555
H20 C26 1_555 1_555
C27 C26 1_555 1_555
H21 C27 1_555 1_555
C28 O9 1_555 1_555
C29 C28 1_555 1_555
H22 C29 1_555 1_555
C30 C25 1_555 1_555
H23 C30 1_555 1_555
C31 O12 1_555 1_555
H24 C31 1_555 1_555
H25 C31 1_555 1_555
H26 C31 1_555 1_555
O13 H27 1_555 1_555
H28 O13 1_555 1_555
O14 H29 1_555 1_555
H30 O14 1_555 1_555
O15 H31 1_555 1_555
H32 O15 1_555 1_555
O16 H33 1_555 1_555
H34 O16 1_555 1_555
O17 H35 1_555 1_555
H36 O17 1_555 1_555
La1A O5 1_555 1_555
La1A_2 O8 1_555 1_555
O5A La1 1_555 1_555
O8A La1 1_555 1_555
C7 C8 1_555 1_555
C9 C10 1_555 1_555
C17 C18 1_555 1_555
C19 C20 1_555 1_555
C27 C28 1_555 1_555
C29 C30 1_555 1_555

#END
