
#######################################################################
#
#                 Cambridge Crystallographic Data Centre
#                                CCDC 
#
#######################################################################
#
# If this CIF has been generated from an entry in the Cambridge 
# Structural Database, then it will include bibliographic, chemical, 
# crystal, experimental, refinement or atomic coordinate data resulting 
# from the CCDC's data processing and validation procedures.
#
#######################################################################

data_WEWKEP
_symmetry_cell_setting           orthorhombic
_symmetry_space_group_name_H-M   'P b c a'
_symmetry_Int_Tables_number      61
_space_group_name_Hall           '-P 2ac 2ab'
loop_
_symmetry_equiv_pos_site_id
_symmetry_equiv_pos_as_xyz
1 x,y,z
2 1/2-x,-y,1/2+z
3 -x,1/2+y,1/2-z
4 1/2+x,1/2-y,-z
5 -x,-y,-z
6 1/2+x,y,1/2-z
7 x,1/2-y,1/2+z
8 1/2-x,1/2+y,z
_cell_length_a                   10.2372(5)
_cell_length_b                   18.9029(9)
_cell_length_c                   25.5159(13)
_cell_angle_alpha                90
_cell_angle_beta                 90
_cell_angle_gamma                90
_cell_volume                     4937.65
loop_
_atom_site_label
_atom_site_type_symbol
_atom_site_fract_x
_atom_site_fract_y
_atom_site_fract_z
H1 H -0.108(3) 0.3315(15) 0.4574(12)
H2 H 0.286(3) 0.2883(17) 0.3999(12)
C1 C 0.1257(2) 0.13041(14) 0.60337(10)
H3 H 0.1013 0.1763 0.6149
C2 C 0.1665(2) 0.08070(14) 0.64060(11)
H4 H 0.1702 0.0932 0.6766
C3 C 0.2009(2) 0.01438(14) 0.62490(11)
H5 H 0.2286 -0.0196 0.6499
C4 C 0.1951(2) -0.00340(13) 0.57168(10)
C5 C 0.2293(2) -0.07116(13) 0.55001(12)
H6 H 0.2570 -0.1078 0.5729
C6 C 0.2231(2) -0.08426(14) 0.49829(11)
H7 H 0.2470 -0.1296 0.4854
C7 C 0.1809(2) -0.03056(13) 0.46219(11)
C8 C 0.1732(2) -0.03969(13) 0.40787(11)
H8 H 0.1948 -0.0838 0.3923
C9 C 0.1337(2) 0.01616(13) 0.37752(11)
H9 H 0.1282 0.0109 0.3406
C10 C 0.1016(2) 0.08081(13) 0.40063(11)
H10 H 0.0742 0.1188 0.3789
C11 C 0.1474(2) 0.03590(12) 0.48222(10)
C12 C 0.1541(2) 0.04978(12) 0.53712(10)
C13 C 0.4208(2) 0.14192(13) 0.40387(10)
C14 C 0.4126(3) 0.14215(15) 0.34932(11)
H11 H 0.3906 0.1848 0.3317
C15 C 0.4361(3) 0.08080(18) 0.32012(13)
C16 C 0.4662(3) 0.01918(17) 0.34722(14)
H12 H 0.4821 -0.0231 0.3281
C17 C 0.4735(2) 0.01776(14) 0.40106(13)
H13 H 0.4939 -0.0251 0.4186
C18 C 0.4511(2) 0.07898(13) 0.42963(11)
H14 H 0.4565 0.0780 0.4668
C19 C 0.4262(4) 0.0829(2) 0.26065(15)
H15 H 0.4873 0.0486 0.2455
H16 H 0.4479 0.1304 0.2481
H17 H 0.3369 0.0709 0.2500
C20 C -0.0967(2) 0.28106(13) 0.34468(10)
C21 C -0.0748(3) 0.32285(14) 0.30194(11)
H18 H -0.0041 0.3554 0.3020
C22 C -0.1569(3) 0.31795(16) 0.25761(11)
C23 C -0.2572(3) 0.26883(17) 0.25831(12)
H19 H -0.3113 0.2641 0.2283
C24 C -0.2804(3) 0.22743(18) 0.30045(13)
H20 H -0.3510 0.1949 0.3002
C25 C -0.2004(3) 0.23290(16) 0.34379(12)
H21 H -0.2159 0.2036 0.3734
C26 C -0.1341(4) 0.36567(19) 0.21234(13)
H22 H -0.0892 0.3396 0.1845
H23 H -0.0800 0.4057 0.2235
H24 H -0.2180 0.3832 0.1992
N1 N 0.12011(18) 0.11571(10) 0.55296(8)
N2 N 0.10806(18) 0.09079(10) 0.45184(8)
O1 O 0.29618(15) 0.20787(8) 0.48375(6)
O2 O 0.35158(18) 0.27858(10) 0.40206(7)
O3 O 0.00577(15) 0.22091(8) 0.42922(7)
O4 O -0.07790(18) 0.34686(10) 0.43695(8)
O5 O 0.12818(15) 0.32503(9) 0.38762(7)
O6 O 0.53084(15) 0.24159(8) 0.46192(7)
P1 P 0.39670(6) 0.22128(3) 0.44164(3)
P2 P 0.00018(6) 0.29232(3) 0.40294(2)
Cu1 Cu 0.07891(3) 0.181178(14) 0.492320(12)
O6C O 0.03084(15) 0.25841(8) 0.53808(7)
Cu1C Cu 0.57891(3) 0.318822(14) 0.507680(12)
loop_
_geom_bond_atom_site_label_1
_geom_bond_atom_site_label_2
_geom_bond_site_symmetry_1
_geom_bond_site_symmetry_2
H1 O4 1_555 1_555
H2 O2 1_555 1_555
C1 H3 1_555 1_555
C2 C1 1_555 1_555
H4 C2 1_555 1_555
C3 C2 1_555 1_555
H5 C3 1_555 1_555
C4 C3 1_555 1_555
C5 C4 1_555 1_555
H6 C5 1_555 1_555
C6 C5 1_555 1_555
H7 C6 1_555 1_555
C7 C6 1_555 1_555
C8 C7 1_555 1_555
H8 C8 1_555 1_555
C9 C8 1_555 1_555
H9 C9 1_555 1_555
C10 C9 1_555 1_555
H10 C10 1_555 1_555
C11 C7 1_555 1_555
C12 C4 1_555 1_555
C13 C14 1_555 1_555
C14 H11 1_555 1_555
C15 C14 1_555 1_555
C16 C15 1_555 1_555
H12 C16 1_555 1_555
C17 C16 1_555 1_555
H13 C17 1_555 1_555
C18 C13 1_555 1_555
H14 C18 1_555 1_555
C19 C15 1_555 1_555
H15 C19 1_555 1_555
H16 C19 1_555 1_555
H17 C19 1_555 1_555
C20 C21 1_555 1_555
C21 H18 1_555 1_555
C22 C21 1_555 1_555
C23 C22 1_555 1_555
H19 C23 1_555 1_555
C24 C23 1_555 1_555
H20 C24 1_555 1_555
C25 C20 1_555 1_555
H21 C25 1_555 1_555
C26 C22 1_555 1_555
H22 C26 1_555 1_555
H23 C26 1_555 1_555
H24 C26 1_555 1_555
N1 C1 1_555 1_555
N2 C10 1_555 1_555
O1 P1 1_555 1_555
O2 P1 1_555 1_555
O3 P2 1_555 1_555
O4 P2 1_555 1_555
O5 P2 1_555 1_555
O6 P1 1_555 1_555
P1 C13 1_555 1_555
P2 C20 1_555 1_555
Cu1 N1 1_555 1_555
O6C Cu1 1_555 1_555
Cu1C O6 1_555 1_555
C11 C12 1_555 1_555
C11 N2 1_555 1_555
C12 N1 1_555 1_555
C17 C18 1_555 1_555
C24 C25 1_555 1_555
N2 Cu1 1_555 1_555
O1 Cu1 1_555 1_555
O3 Cu1 1_555 1_555

#END
