
#######################################################################
#
#                 Cambridge Crystallographic Data Centre
#                                CCDC 
#
#######################################################################
#
# If this CIF has been generated from an entry in the Cambridge 
# Structural Database, then it will include bibliographic, chemical, 
# crystal, experimental, refinement or atomic coordinate data resulting 
# from the CCDC's data processing and validation procedures.
#
#######################################################################

data_WEWLOB
_symmetry_cell_setting           monoclinic
_symmetry_space_group_name_H-M   'C 2/c'
_symmetry_Int_Tables_number      15
_space_group_name_Hall           '-C 2yn'
loop_
_symmetry_equiv_pos_site_id
_symmetry_equiv_pos_as_xyz
1 x,y,z
2 -x,y,1/2-z
3 1/2+x,1/2+y,z
4 1/2-x,1/2+y,1/2-z
5 -x,-y,-z
6 x,-y,1/2+z
7 1/2-x,1/2-y,-z
8 1/2+x,1/2-y,1/2+z
_cell_length_a                   22.079(2)
_cell_length_b                   11.6581(12)
_cell_length_c                   7.4229(8)
_cell_angle_alpha                90
_cell_angle_beta                 98.728(3)
_cell_angle_gamma                90
_cell_volume                     1888.52
loop_
_atom_site_label
_atom_site_type_symbol
_atom_site_fract_x
_atom_site_fract_y
_atom_site_fract_z
Cd1 Cd 0.0000 0.38893(3) 0.7500
C1 C 0.10668(17) 0.2225(3) 0.9753(5)
H1 H 0.1235 0.2926 1.0164
C2 C 0.1381(2) 0.1217(4) 1.0343(5)
H2 H 0.1754 0.1249 1.1112
C3 C 0.11294(19) 0.0184(3) 0.9768(5)
H3 H 0.1334 -0.0494 1.0136
C4 C 0.05768(18) 0.0148(3) 0.8650(5)
C5 C 0.02938(17) 0.1193(3) 0.8099(4)
C6 C 0.0279(2) -0.0910(3) 0.8049(5)
H4 H 0.0467 -0.1604 0.8410
C7 C 0.08954(15) 0.4196(3) 0.4283(5)
C8 C 0.15261(16) 0.3675(3) 0.4336(5)
C9 C 0.19332(17) 0.4091(3) 0.3180(5)
H5 H 0.1816 0.4709 0.2413
C10 C 0.24886(16) 0.3604(3) 0.3179(5)
H6 H 0.2740 0.3866 0.2368
C11 C 0.26938(15) 0.2698(3) 0.4398(4)
C12 C 0.17158(15) 0.2804(3) 0.5525(5)
H7 H 0.1453 0.2536 0.6299
N1 N 0.05481(13) 0.2216(2) 0.8650(4)
O1 O 0.05016(11) 0.3645(2) 0.4917(4)
O2 O 0.08394(12) 0.5175(2) 0.3552(4)
C1A C -0.10668(17) 0.2225(3) 0.5247(5)
H1A H -0.1235 0.2926 0.4836
C2A C -0.1381(2) 0.1217(4) 0.4657(5)
H2A H -0.1754 0.1249 0.3888
C3A C -0.11294(19) 0.0184(3) 0.5232(5)
H3A H -0.1334 -0.0494 0.4864
C4A C -0.05768(18) 0.0148(3) 0.6350(5)
C5A C -0.02938(17) 0.1193(3) 0.6901(4)
C6A C -0.0279(2) -0.0910(3) 0.6951(5)
H4A H -0.0467 -0.1604 0.6590
N1A N -0.05481(13) 0.2216(2) 0.6350(4)
C7F C 0.41046(15) 0.0804(3) 0.5717(5)
C8F C 0.34739(16) 0.1325(3) 0.5664(5)
C9F C 0.30668(17) 0.0909(3) 0.6820(5)
H5F H 0.3184 0.0291 0.7587
C10F C 0.25114(16) 0.1396(3) 0.6821(5)
H6F H 0.2260 0.1134 0.7632
C11F C 0.23062(15) 0.2302(3) 0.5602(4)
C12F C 0.32842(15) 0.2196(3) 0.4475(5)
H7F H 0.3547 0.2464 0.3701
O1F O 0.44984(11) 0.1355(2) 0.5083(4)
O2F O 0.41606(12) -0.0175(2) 0.6448(4)
Cd1B Cd 0.5000 -0.11107(3) 0.7500
Cd1D Cd 0.0000 0.61107(3) 0.2500
Cd1F Cd 0.5000 0.11107(3) 0.2500
O1A O -0.05016(11) 0.3645(2) 1.0083(4)
O2D O -0.08394(12) 0.4825(2) 0.6448(4)
O2E O 0.08394(12) 0.4825(2) 0.8552(4)
loop_
_geom_bond_atom_site_label_1
_geom_bond_atom_site_label_2
_geom_bond_site_symmetry_1
_geom_bond_site_symmetry_2
Cd1 N1 1_555 1_555
C1 H1 1_555 1_555
C2 C1 1_555 1_555
H2 C2 1_555 1_555
C3 C2 1_555 1_555
H3 C3 1_555 1_555
C4 C3 1_555 1_555
C5 C4 1_555 1_555
C6 C4 1_555 1_555
H4 C6 1_555 1_555
C7 C8 1_555 1_555
C8 C9 1_555 1_555
C9 H5 1_555 1_555
C10 C9 1_555 1_555
H6 C10 1_555 1_555
C11 C10 1_555 1_555
C12 C8 1_555 1_555
H7 C12 1_555 1_555
N1 C1 1_555 1_555
O1 Cd1 1_555 1_555
O2 C7 1_555 1_555
C1A H1A 1_555 1_555
C2A C1A 1_555 1_555
H2A C2A 1_555 1_555
C3A C2A 1_555 1_555
H3A C3A 1_555 1_555
C4A C3A 1_555 1_555
C5A C5 1_555 1_555
C6A C6 1_555 1_555
H4A C6A 1_555 1_555
N1A Cd1 1_555 1_555
C7F C8F 1_555 1_555
C8F C9F 1_555 1_555
C9F H5F 1_555 1_555
C10F C9F 1_555 1_555
H6F C10F 1_555 1_555
C11F C11 1_555 1_555
C12F C11 1_555 1_555
H7F C12F 1_555 1_555
O1F C7F 1_555 1_555
O2F C7F 1_555 1_555
Cd1B O2F 1_555 1_555
Cd1D O2 1_555 1_555
Cd1F O1F 1_555 1_555
O1A Cd1 1_555 1_555
O2D Cd1 1_555 1_555
O2E Cd1 1_555 1_555
C5 N1 1_555 1_555
C7 O1 1_555 1_555
C12 C11F 1_555 1_555
C1A N1A 1_555 1_555
C4A C5A 1_555 1_555
C4A C6A 1_555 1_555
C5A N1A 1_555 1_555
C8F C12F 1_555 1_555
C10F C11F 1_555 1_555

#END
