
#######################################################################
#
#                 Cambridge Crystallographic Data Centre
#                                CCDC 
#
#######################################################################
#
# If this CIF has been generated from an entry in the Cambridge 
# Structural Database, then it will include bibliographic, chemical, 
# crystal, experimental, refinement or atomic coordinate data resulting 
# from the CCDC's data processing and validation procedures.
#
#######################################################################

data_WEWMIW
_symmetry_cell_setting           triclinic
_symmetry_space_group_name_H-M   'P -1'
_symmetry_Int_Tables_number      2
_space_group_name_Hall           '-P 1'
loop_
_symmetry_equiv_pos_site_id
_symmetry_equiv_pos_as_xyz
1 x,y,z
2 -x,-y,-z
_cell_length_a                   9.1866(11)
_cell_length_b                   11.0303(10)
_cell_length_c                   11.0347(13)
_cell_angle_alpha                119.187(8)
_cell_angle_beta                 105.174(3)
_cell_angle_gamma                91.239(5)
_cell_volume                     927.251
loop_
_atom_site_label
_atom_site_type_symbol
_atom_site_fract_x
_atom_site_fract_y
_atom_site_fract_z
Co1 Co 0.53706(4) 0.44180(3) 0.60927(4)
C1 C 0.5634(3) 0.6056(3) 0.9224(3)
C2 C 0.8033(3) 0.5632(3) 0.9057(3)
H1 H 0.8669 0.5207 0.8495
C3 C 0.8677(4) 0.6459(4) 1.0569(4)
H2 H 0.9724 0.6574 1.0999
C4 C 0.7778(4) 0.7095(3) 1.1410(3)
H3 H 0.8205 0.7647 1.2420
C5 C 0.6193(3) 0.6918(3) 1.0749(3)
C6 C 0.4043(3) 0.5836(3) 0.8473(3)
C7 C 0.2099(3) 0.4801(3) 0.6286(3)
H4 H 0.1760 0.4209 0.5277
C8 C 0.1040(3) 0.5453(3) 0.6981(3)
H5 H 0.0017 0.5293 0.6446
C9 C 0.1526(3) 0.6328(3) 0.8459(3)
H6 H 0.0837 0.6796 0.8933
C10 C 0.3052(3) 0.6528(3) 0.9266(3)
C11 C 0.3666(4) 0.7395(3) 1.0822(3)
H7 H 0.3015 0.7847 1.1357
C12 C 0.5153(4) 0.7574(3) 1.1530(3)
H8 H 0.5511 0.8132 1.2543
C13 C 1.1466(3) 0.0586(3) 0.4413(3)
H9 H 1.1661 0.1264 0.4180
C14 C 1.0148(3) 0.0523(2) 0.4828(3)
C15 C 0.9122(3) 0.1485(2) 0.4947(3)
H10 H 0.9308 0.2185 0.4740
C16 C 0.7868(3) 0.1402(2) 0.5357(3)
C17 C 0.7547(3) 0.0332(3) 0.5650(3)
H11 H 0.6663 0.0253 0.5886
C18 C 0.6845(3) 0.2477(3) 0.5543(3)
C19 C 0.5565(3) 0.0469(2) 0.0679(3)
C20 C 0.5093(3) 0.1489(2) 0.1835(3)
H12 H 0.5827 0.2113 0.2723
C21 C 0.3583(3) 0.1579(2) 0.1676(3)
C22 C 0.2458(3) 0.0622(3) 0.0328(3)
H13 H 0.1425 0.0661 0.0225
C23 C 0.2881(3) -0.0353(3) -0.0815(3)
H14 H 0.2133 -0.0953 -0.1703
C24 C 0.3078(3) 0.2684(2) 0.2886(3)
N1 N 0.6546(2) 0.5430(2) 0.8390(2)
N2 N 0.3566(2) 0.4985(2) 0.6994(2)
O1 O 0.7326(2) 0.35924(18) 0.5597(2)
O2 O 0.5566(2) 0.22989(19) 0.5687(2)
O3 O 0.41476(19) 0.37502(16) 0.39354(17)
O4 O 0.1744(2) 0.2579(2) 0.2849(2)
C13A C 0.8534(3) -0.0586(3) 0.5587(3)
H9A H 0.8339 -0.1264 0.5820
C14A C 0.9852(3) -0.0523(2) 0.5172(3)
C15A C 1.0878(3) -0.1485(2) 0.5053(3)
H10A H 1.0692 -0.2185 0.5260
C16A C 1.2132(3) -0.1402(2) 0.4643(3)
C17A C 1.2453(3) -0.0332(3) 0.4350(3)
H11A H 1.3337 -0.0253 0.4114
C18A C 1.3155(3) -0.2477(3) 0.4457(3)
O1A O 1.2674(2) -0.35924(18) 0.4403(2)
O2A O 1.4434(2) -0.22989(19) 0.4313(2)
C19A C 0.4435(3) -0.0469(2) -0.0679(3)
C20A C 0.4907(3) -0.1489(2) -0.1835(3)
H12A H 0.4173 -0.2113 -0.2723
C21A C 0.6417(3) -0.1579(2) -0.1676(3)
C22A C 0.7542(3) -0.0622(3) -0.0328(3)
H13A H 0.8575 -0.0661 -0.0225
C23A C 0.7119(3) 0.0353(3) 0.0815(3)
H14A H 0.7867 0.0953 0.1703
C24A C 0.6922(3) -0.2684(2) -0.2886(3)
O3A O 0.58524(19) -0.37502(16) -0.39354(17)
O4A O 0.8256(2) -0.2579(2) -0.2849(2)
Co1A Co 0.46294(4) -0.44180(3) -0.60927(4)
C1A C 0.4366(3) -0.6056(3) -0.9224(3)
C2A C 0.1967(3) -0.5632(3) -0.9057(3)
H1A H 0.1331 -0.5207 -0.8495
C3A C 0.1323(4) -0.6459(4) -1.0569(4)
H2A H 0.0276 -0.6574 -1.0999
C4A C 0.2222(4) -0.7095(3) -1.1410(3)
H3A H 0.1795 -0.7647 -1.2420
C5A C 0.3807(3) -0.6918(3) -1.0749(3)
C6A C 0.5957(3) -0.5836(3) -0.8473(3)
C7A C 0.7901(3) -0.4801(3) -0.6286(3)
H4A H 0.8240 -0.4209 -0.5277
C8A C 0.8960(3) -0.5453(3) -0.6981(3)
H5A H 0.9983 -0.5293 -0.6446
C9A C 0.8474(3) -0.6328(3) -0.8459(3)
H6A H 0.9163 -0.6796 -0.8933
C10A C 0.6948(3) -0.6528(3) -0.9266(3)
C11A C 0.6334(4) -0.7395(3) -1.0822(3)
H7A H 0.6985 -0.7847 -1.1357
C12A C 0.4847(4) -0.7574(3) -1.1530(3)
H8A H 0.4489 -0.8132 -1.2543
N1A N 0.3454(2) -0.5430(2) -0.8390(2)
N2A N 0.6434(2) -0.4985(2) -0.6994(2)
Co1_2 Co 0.53706(4) -0.55820(3) -0.39073(4)
Co1A_2 Co 0.46294(4) 0.55820(3) 0.39073(4)
Co1A_3 Co 1.46294(4) -0.44180(3) 0.39073(4)
O1A_2 O 0.2674(2) -0.35924(18) -0.5597(2)
O2A_2 O 0.4434(2) -0.22989(19) -0.5687(2)
O3_2 O 0.41476(19) -0.62498(16) -0.60646(17)
O3A_2 O 0.58524(19) 0.62498(16) 0.60646(17)
loop_
_geom_bond_atom_site_label_1
_geom_bond_atom_site_label_2
_geom_bond_site_symmetry_1
_geom_bond_site_symmetry_2
Co1 N1 1_555 1_555
C1 C5 1_555 1_555
C2 H1 1_555 1_555
C3 C2 1_555 1_555
H2 C3 1_555 1_555
C4 C3 1_555 1_555
H3 C4 1_555 1_555
C5 C4 1_555 1_555
C6 C1 1_555 1_555
C7 H4 1_555 1_555
C8 C7 1_555 1_555
H5 C8 1_555 1_555
C9 C8 1_555 1_555
H6 C9 1_555 1_555
C10 C6 1_555 1_555
C11 C10 1_555 1_555
H7 C11 1_555 1_555
C12 C5 1_555 1_555
H8 C12 1_555 1_555
C13 H9 1_555 1_555
C14 C13 1_555 1_555
C15 C14 1_555 1_555
H10 C15 1_555 1_555
C16 C15 1_555 1_555
C17 C16 1_555 1_555
H11 C17 1_555 1_555
C18 C16 1_555 1_555
C19 C20 1_555 1_555
C20 H12 1_555 1_555
C21 C20 1_555 1_555
C22 C21 1_555 1_555
H13 C22 1_555 1_555
C23 C22 1_555 1_555
H14 C23 1_555 1_555
C24 C21 1_555 1_555
N1 C1 1_555 1_555
N2 Co1 1_555 1_555
O1 Co1 1_555 1_555
O2 Co1 1_555 1_555
O3 Co1 1_555 1_555
O4 C24 1_555 1_555
C13A C17 1_555 1_555
H9A C13A 1_555 1_555
C14A C14 1_555 1_555
C15A C14A 1_555 1_555
H10A C15A 1_555 1_555
C16A C15A 1_555 1_555
C17A C13 1_555 1_555
H11A C17A 1_555 1_555
C18A C16A 1_555 1_555
O1A C18A 1_555 1_555
O2A C18A 1_555 1_555
C19A C19 1_555 1_555
C20A C19A 1_555 1_555
H12A C20A 1_555 1_555
C21A C20A 1_555 1_555
C22A C21A 1_555 1_555
H13A C22A 1_555 1_555
C23A C19 1_555 1_555
H14A C23A 1_555 1_555
C24A C21A 1_555 1_555
O3A C24A 1_555 1_555
O4A C24A 1_555 1_555
Co1A O3A 1_555 1_555
C1A C5A 1_555 1_555
C2A H1A 1_555 1_555
C3A C2A 1_555 1_555
H2A C3A 1_555 1_555
C4A C3A 1_555 1_555
H3A C4A 1_555 1_555
C5A C4A 1_555 1_555
C6A C1A 1_555 1_555
C7A H4A 1_555 1_555
C8A C7A 1_555 1_555
H5A C8A 1_555 1_555
C9A C8A 1_555 1_555
H6A C9A 1_555 1_555
C10A C6A 1_555 1_555
C11A C10A 1_555 1_555
H7A C11A 1_555 1_555
C12A C5A 1_555 1_555
H8A C12A 1_555 1_555
N1A Co1A 1_555 1_555
N2A Co1A 1_555 1_555
Co1_2 O3A 1_555 1_555
Co1A_2 O3 1_555 1_555
Co1A_3 O1A 1_555 1_555
O1A_2 Co1A 1_555 1_555
O2A_2 Co1A 1_555 1_555
O3_2 Co1A 1_555 1_555
O3A_2 Co1 1_555 1_555
C2 N1 1_555 1_555
C6 N2 1_555 1_555
C7 N2 1_555 1_555
C9 C10 1_555 1_555
C11 C12 1_555 1_555
C18 O1 1_555 1_555
C18 O2 1_555 1_555
C23 C19A 1_555 1_555
C24 O3 1_555 1_555
C13A C14A 1_555 1_555
C16A C17A 1_555 1_555
O2A Co1A_3 1_555 1_555
C22A C23A 1_555 1_555
C1A N1A 1_555 1_555
C2A N1A 1_555 1_555
C6A N2A 1_555 1_555
C7A N2A 1_555 1_555
C9A C10A 1_555 1_555
C11A C12A 1_555 1_555
Co1_2 O3_2 1_555 1_555
Co1A_2 O3A_2 1_555 1_555

#END
