
#######################################################################
#
#                 Cambridge Crystallographic Data Centre
#                                CCDC 
#
#######################################################################
#
# If this CIF has been generated from an entry in the Cambridge 
# Structural Database, then it will include bibliographic, chemical, 
# crystal, experimental, refinement or atomic coordinate data resulting 
# from the CCDC's data processing and validation procedures.
#
#######################################################################

data_WEWMAN
_symmetry_cell_setting           trigonal
_symmetry_space_group_name_H-M   'P 31'
_symmetry_Int_Tables_number      144
_space_group_name_Hall           'P 31'
loop_
_symmetry_equiv_pos_site_id
_symmetry_equiv_pos_as_xyz
1 x,y,z
2 -y,x-y,1/3+z
3 -x+y,-x,2/3+z
_cell_length_a                   15.283(3)
_cell_length_b                   15.283(3)
_cell_length_c                   9.112(3)
_cell_angle_alpha                90
_cell_angle_beta                 90
_cell_angle_gamma                120
_cell_volume                     1843.15
loop_
_atom_site_label
_atom_site_type_symbol
_atom_site_fract_x
_atom_site_fract_y
_atom_site_fract_z
K1 K 0.46220(8) -0.00129(7) 0.04970(11)
O1 O 0.6242(2) -0.0353(2) 0.1117(4)
O2 O 0.4224(2) -0.1831(2) 0.1639(3)
O3 O 0.2610(2) -0.1476(2) 0.0812(3)
O4 O 0.3045(3) 0.0285(2) -0.0245(3)
O5 O 0.5126(3) 0.1807(2) -0.0875(3)
O6 O 0.6604(2) 0.1247(2) -0.0260(3)
O7 O 0.4153(3) -0.0929(2) -0.2091(4)
C1 C 0.1924(4) -0.1458(4) -0.0155(5)
C2 C 0.2471(4) -0.2448(3) 0.1201(6)
H1 H 0.2536 -0.2789 0.0320
H2 H 0.1789 -0.2877 0.1623
C3 C 0.5549(4) 0.0855(4) -0.4910(6)
H3 H 0.6233 0.1330 -0.5138
C4 C 0.3572(4) -0.0493(3) -0.4214(6)
H4 H 0.2886 -0.0935 -0.3954
C5 C 0.6092(4) 0.2464(3) -0.0208(5)
H5 H 0.6044 0.2364 0.0869
H6 H 0.6298 0.3178 -0.0411
C6 C 0.8029(4) 0.1331(4) -0.1553(6)
H7 H 0.8152 0.1915 -0.2087
C7 C 0.5973(4) -0.1297(3) 0.1837(5)
H8 H 0.6514 -0.1205 0.2524
H9 H 0.5881 -0.1813 0.1102
C8 C 0.2138(4) -0.0519(4) -0.0714(5)
C9 C 0.7056(4) 0.0019(4) 0.0183(6)
O8 O 0.4998(3) 0.1215(2) -0.7124(4)
C10 C 0.4347(4) -0.0399(3) -0.3244(5)
C11 C 0.3353(4) 0.1236(4) -0.0945(5)
H10 H 0.2854 0.1455 -0.0747
H11 H 0.3397 0.1172 -0.2020
C12 C 0.3782(4) 0.0031(3) -0.5505(6)
H12 H 0.3242 -0.0079 -0.6138
C13 C 0.1056(4) -0.2302(4) -0.0575(6)
H13 H 0.0910 -0.2944 -0.0216
C14 C 0.6839(4) 0.2233(3) -0.0808(5)
H14 H 0.6813 0.2226 -0.1894
H15 H 0.7527 0.2751 -0.0496
C15 C 0.7653(5) -0.0400(4) -0.0018(6)
H16 H 0.7522 -0.0991 0.0505
C16 C 0.0578(5) -0.1303(5) -0.2071(6)
H17 H 0.0115 -0.1256 -0.2717
C17 C 0.4372(4) 0.2000(3) -0.0340(6)
H18 H 0.4532 0.2689 -0.0632
H19 H 0.4355 0.1966 0.0746
C18 C 0.5019(4) -0.1625(3) 0.2647(5)
H20 H 0.4845 -0.2240 0.3223
H21 H 0.5104 -0.1087 0.3337
C19 C 0.3254(4) -0.2294(3) 0.2295(5)
H22 H 0.3251 -0.1863 0.3104
H23 H 0.3096 -0.2954 0.2717
C20 C 0.7243(4) 0.0884(4) -0.0573(6)
C21 C 0.4791(4) 0.0736(4) -0.5918(5)
C22 C 0.5354(4) 0.0336(4) -0.3656(6)
H24 H 0.5898 0.0458 -0.3024
C23 C 0.0388(4) -0.2231(5) -0.1515(7)
H25 H -0.0214 -0.2828 -0.1791
C24 C 0.8455(5) 0.0052(6) -0.0999(8)
H26 H 0.8873 -0.0236 -0.1150
C25 C 0.8649(4) 0.0901(6) -0.1746(7)
H27 H 0.9206 0.1206 -0.2402
C26 C 0.1469(5) -0.0447(4) -0.1644(6)
H28 H 0.1618 0.0196 -0.2002
K1_2 K 0.46220(8) -0.00129(7) -0.95030(11)
O8_2 O 0.4998(3) 0.1215(2) 0.2876(4)
loop_
_geom_bond_atom_site_label_1
_geom_bond_atom_site_label_2
_geom_bond_site_symmetry_1
_geom_bond_site_symmetry_2
K1 O1 1_555 1_555
O1 C7 1_555 1_555
O2 K1 1_555 1_555
O3 K1 1_555 1_555
O4 K1 1_555 1_555
O5 K1 1_555 1_555
O6 K1 1_555 1_555
O7 K1 1_555 1_555
C1 O3 1_555 1_555
C2 O3 1_555 1_555
H1 C2 1_555 1_555
H2 C2 1_555 1_555
C3 H3 1_555 1_555
C4 H4 1_555 1_555
C5 O5 1_555 1_555
H5 C5 1_555 1_555
H6 C5 1_555 1_555
C6 H7 1_555 1_555
C7 H8 1_555 1_555
H9 C7 1_555 1_555
C8 O4 1_555 1_555
C9 O1 1_555 1_555
O8 C21 1_555 1_555
C10 O7 1_555 1_555
C11 O4 1_555 1_555
H10 C11 1_555 1_555
H11 C11 1_555 1_555
C12 C4 1_555 1_555
H12 C12 1_555 1_555
C13 C1 1_555 1_555
H13 C13 1_555 1_555
C14 O6 1_555 1_555
H14 C14 1_555 1_555
H15 C14 1_555 1_555
C15 C9 1_555 1_555
H16 C15 1_555 1_555
C16 H17 1_555 1_555
C17 O5 1_555 1_555
H18 C17 1_555 1_555
H19 C17 1_555 1_555
C18 O2 1_555 1_555
H20 C18 1_555 1_555
H21 C18 1_555 1_555
C19 O2 1_555 1_555
H22 C19 1_555 1_555
H23 C19 1_555 1_555
C20 O6 1_555 1_555
C21 C3 1_555 1_555
C22 C3 1_555 1_555
H24 C22 1_555 1_555
C23 C13 1_555 1_555
H25 C23 1_555 1_555
C24 C15 1_555 1_555
H26 C24 1_555 1_555
C25 C6 1_555 1_555
H27 C25 1_555 1_555
C26 C8 1_555 1_555
H28 C26 1_555 1_555
K1_2 O8 1_555 1_555
O8_2 K1 1_555 1_555
C1 C8 1_555 1_555
C2 C19 1_555 1_555
C4 C10 1_555 1_555
C5 C14 1_555 1_555
C6 C20 1_555 1_555
C7 C18 1_555 1_555
C9 C20 1_555 1_555
C10 C22 1_555 1_555
C11 C17 1_555 1_555
C12 C21 1_555 1_555
C16 C23 1_555 1_555
C16 C26 1_555 1_555
C24 C25 1_555 1_555

#END
