
#######################################################################
#
#                 Cambridge Crystallographic Data Centre
#                                CCDC 
#
#######################################################################
#
# If this CIF has been generated from an entry in the Cambridge 
# Structural Database, then it will include bibliographic, chemical, 
# crystal, experimental, refinement or atomic coordinate data resulting 
# from the CCDC's data processing and validation procedures.
#
#######################################################################

data_WEWNAP
_symmetry_cell_setting           monoclinic
_symmetry_space_group_name_H-M   'P 2/c'
_symmetry_Int_Tables_number      13
_space_group_name_Hall           '-P 2yc'
loop_
_symmetry_equiv_pos_site_id
_symmetry_equiv_pos_as_xyz
1 x,y,z
2 -x,y,1/2-z
3 -x,-y,-z
4 x,-y,1/2+z
_cell_length_a                   9.67900(10)
_cell_length_b                   12.5770(2)
_cell_length_c                   14.0811(2)
_cell_angle_alpha                90
_cell_angle_beta                 110.1370(10)
_cell_angle_gamma                90
_cell_volume                     1609.35
loop_
_atom_site_label
_atom_site_type_symbol
_atom_site_fract_x
_atom_site_fract_y
_atom_site_fract_z
Fe1 Fe -0.94350(11) 0.77529(8) 0.15073(7)
Fe2 Fe 0.0000 1.0000 0.0000
O1 O -0.7005(7) 0.7662(5) 0.1473(5)
O2 O -0.0174(8) 0.7217(4) -0.0006(4)
O3 O -0.0391(10) 0.3814(5) -0.1834(5)
O4 O -0.0309(9) 0.8716(4) -0.0880(4)
O5 O -0.1257(9) 0.9369(8) 0.0849(7)
O6 O -0.8341(5) 0.9108(4) 0.1195(4)
O7 O -0.1472(8) 0.8068(7) 0.1821(5)
O8 O -0.6101(12) 1.2583(8) 0.1019(14)
O9 O -0.3760(12) 1.2725(8) 0.1221(12)
H1 H -0.3982 1.3356 0.1137
C1 C -0.4512(8) 0.8798(6) 0.1357(5)
H2 H -0.4423 0.8062 0.1406
C2 C -0.5964(8) 1.0395(6) 0.1248(6)
H3 H -0.6843 1.0718 0.1215
C3 C -0.5833(7) 0.9287(6) 0.1293(5)
C4 C -0.3456(8) 1.0527(7) 0.1284(6)
H4 H -0.2664 1.0934 0.1264
C5 C -0.3332(8) 0.9416(6) 0.1347(5)
C6 C -0.4742(8) 1.1019(6) 0.1252(6)
C7 C -0.7115(7) 0.8632(6) 0.1305(5)
C8 C 0.0000 0.4265(8) -0.2500
C9 C 0.0000 0.5457(8) -0.2500
C10 C -0.0115(10) 0.6007(5) -0.1674(5)
H5 H -0.0186 0.5634 -0.1123
C11 C -0.0122(9) 0.7112(5) -0.1670(5)
C12 C -0.1930(8) 0.8932(7) 0.1341(6)
C13 C -0.0211(8) 0.7724(5) -0.0786(5)
C14 C -0.4901(11) 1.2180(8) 0.1152(10)
C15 C 0.0000 0.7652(6) -0.2500
H6 H 0.0000 0.8391 -0.2500
O2A O 0.0174(8) 0.7217(4) -0.4994(4)
O3A O 0.0391(10) 0.3814(5) -0.3166(5)
O4A O 0.0309(9) 0.8716(4) -0.4120(4)
C10A C 0.0115(10) 0.6007(5) -0.3326(5)
H5A H 0.0186 0.5634 -0.3877
C11A C 0.0122(9) 0.7112(5) -0.3330(5)
C13A C 0.0211(8) 0.7724(5) -0.4214(5)
Fe1A Fe -0.05650(11) 0.77529(8) -0.65073(7)
O1A O -0.2995(7) 0.7662(5) -0.6473(5)
O5A O -0.8743(9) 0.9369(8) -0.5849(7)
O6A O -0.1659(5) 0.9108(4) -0.6195(4)
O7A O -0.8528(8) 0.8068(7) -0.6821(5)
O8A O -0.3899(12) 1.2583(8) -0.6019(14)
O9A O -0.6240(12) 1.2725(8) -0.6221(12)
H1A H -0.6018 1.3356 -0.6137
C1A C -0.5488(8) 0.8798(6) -0.6357(5)
H2A H -0.5577 0.8062 -0.6406
C2A C -0.4036(8) 1.0395(6) -0.6248(6)
H3A H -0.3157 1.0718 -0.6215
C3A C -0.4167(7) 0.9287(6) -0.6293(5)
C4A C -0.6544(8) 1.0527(7) -0.6284(6)
H4A H -0.7336 1.0934 -0.6264
C5A C -0.6668(8) 0.9416(6) -0.6347(5)
C6A C -0.5258(8) 1.1019(6) -0.6252(6)
C7A C -0.2885(7) 0.8632(6) -0.6305(5)
C12A C -0.8070(8) 0.8932(7) -0.6341(6)
C14A C -0.5099(11) 1.2180(8) -0.6152(10)
Fe1_2 Fe -0.94350(11) 0.77529(8) -0.84927(7)
Fe1_3 Fe 0.05650(11) 0.77529(8) 0.15073(7)
Fe1A_2 Fe -1.05650(11) 0.77529(8) -0.65073(7)
Fe1A_3 Fe -0.05650(11) 0.77529(8) 0.34927(7)
Fe1B Fe -0.05650(11) 0.22471(8) -0.15073(7)
Fe1C Fe 0.05650(11) 0.22471(8) -0.34927(7)
Fe2_2 Fe -1.0000 1.0000 0.0000
Fe2A Fe -1.0000 1.0000 -0.5000
Fe2A_2 Fe 0.0000 1.0000 -0.5000
O2_2 O -1.0174(8) 0.7217(4) -0.0006(4)
O3B O -0.9609(10) 0.6186(5) 0.1834(5)
O3C O -0.0391(10) 0.6186(5) -0.6834(5)
O4B O 0.0309(9) 1.1284(4) 0.0880(4)
O5B O 0.1257(9) 1.0631(8) -0.0849(7)
O6_2 O 0.1659(5) 0.9108(4) 0.1195(4)
O6B O -0.1659(5) 1.0892(4) -0.1195(4)
O7_2 O -1.1472(8) 0.8068(7) 0.1821(5)
O7_3 O -0.1472(8) 0.8068(7) -0.8179(5)
O7A_2 O -0.8528(8) 0.8068(7) 0.3179(5)
O7A_3 O 0.1472(8) 0.8068(7) -0.6821(5)
Na1 Na -0.7741 1.3860(6) -0.0172
O10 O -0.7480 1.4321(6) 0.0288
O11 O -0.5000 1.6161(6) 0.2500
O12 O -0.6226 1.5028(6) -0.1088
Na2? Na -0.6856 1.5781(6) 0.1704
O13? O -0.4620 1.6690(6) 0.1508
O14? O -0.7706 1.5395(6) 0.0653
loop_
_geom_bond_atom_site_label_1
_geom_bond_atom_site_label_2
_geom_bond_site_symmetry_1
_geom_bond_site_symmetry_2
Fe1 O1 1_555 1_555
Fe2 O4 1_555 1_555
O1 C7 1_555 1_555
O2 C13 1_555 1_555
O3 C8 1_555 1_555
O4 C13 1_555 1_555
O5 Fe2 1_555 1_555
O6 Fe1 1_555 1_555
O7 C12 1_555 1_555
O8 C14 1_555 1_555
O9 H1 1_555 1_555
C1 H2 1_555 1_555
C2 H3 1_555 1_555
C3 C1 1_555 1_555
C4 H4 1_555 1_555
C5 C1 1_555 1_555
C6 C2 1_555 1_555
C7 O6 1_555 1_555
C8 C9 1_555 1_555
C9 C10 1_555 1_555
C10 H5 1_555 1_555
C11 C10 1_555 1_555
C12 O5 1_555 1_555
C13 C11 1_555 1_555
C14 O9 1_555 1_555
C15 C11 1_555 1_555
H6 C15 1_555 1_555
O2A C13A 1_555 1_555
O3A C8 1_555 1_555
O4A C13A 1_555 1_555
C10A C9 1_555 1_555
H5A C10A 1_555 1_555
C11A C15 1_555 1_555
C13A C11A 1_555 1_555
Fe1A O2A 1_555 1_555
O1A Fe1A 1_555 1_555
O5A C12A 1_555 1_555
O6A Fe1A 1_555 1_555
O7A C12A 1_555 1_555
O8A C14A 1_555 1_555
O9A H1A 1_555 1_555
C1A H2A 1_555 1_555
C2A H3A 1_555 1_555
C3A C1A 1_555 1_555
C4A H4A 1_555 1_555
C5A C1A 1_555 1_555
C6A C2A 1_555 1_555
C7A O1A 1_555 1_555
C12A C5A 1_555 1_555
C14A O9A 1_555 1_555
Fe1_2 O7A 1_555 1_555
Fe1_3 O2 1_555 1_555
Fe1A_2 O7A 1_555 1_555
Fe1A_3 O7 1_555 1_555
Fe1B O3 1_555 1_555
Fe1C O3A 1_555 1_555
Fe2_2 O6 1_555 1_555
Fe2A O5A 1_555 1_555
Fe2A_2 O4A 1_555 1_555
O2_2 Fe1 1_555 1_555
O3B Fe1 1_555 1_555
O3C Fe1A 1_555 1_555
O4B Fe2 1_555 1_555
O5B Fe2 1_555 1_555
O6_2 Fe2 1_555 1_555
O6B Fe2 1_555 1_555
O7_2 Fe1 1_555 1_555
O7_3 Fe1A 1_555 1_555
O7A_2 Fe1 1_555 1_555
O7A_3 Fe1A 1_555 1_555
O7 Fe1_3 1_555 1_555
C2 C3 1_555 1_555
C3 C7 1_555 1_555
C4 C5 1_555 1_555
C4 C6 1_555 1_555
C5 C12 1_555 1_555
C6 C14 1_555 1_555
C10A C11A 1_555 1_555
O6A C7A 1_555 1_555
O6A Fe2A_2 1_555 1_555
C2A C3A 1_555 1_555
C3A C7A 1_555 1_555
C4A C5A 1_555 1_555
C4A C6A 1_555 1_555
C6A C14A 1_555 1_555
Fe1_3 O6_2 1_555 1_555

#END
