
#######################################################################
#
#                 Cambridge Crystallographic Data Centre
#                                CCDC 
#
#######################################################################
#
# If this CIF has been generated from an entry in the Cambridge 
# Structural Database, then it will include bibliographic, chemical, 
# crystal, experimental, refinement or atomic coordinate data resulting 
# from the CCDC's data processing and validation procedures.
#
#######################################################################

data_WEWQUK
_symmetry_cell_setting           monoclinic
_symmetry_space_group_name_H-M   'C 2/c'
_symmetry_Int_Tables_number      15
_space_group_name_Hall           '-C 2yn'
loop_
_symmetry_equiv_pos_site_id
_symmetry_equiv_pos_as_xyz
1 x,y,z
2 1/2+x,1/2+y,z
3 x,-y,1/2+z
4 1/2+x,1/2-y,1/2+z
5 -x,-y,-z
6 1/2-x,1/2-y,-z
7 -x,y,1/2-z
8 1/2-x,1/2+y,1/2-z
_cell_length_a                   28.102(2)
_cell_length_b                   16.8556(12)
_cell_length_c                   27.928(2)
_cell_angle_alpha                90
_cell_angle_beta                 117.915(2)
_cell_angle_gamma                90
_cell_volume                     11689.6
loop_
_atom_site_label
_atom_site_type_symbol
_atom_site_fract_x
_atom_site_fract_y
_atom_site_fract_z
Ag1 Ag 0.5000 0.0000 0.0000
Ag2 Ag 0.08477(3) -0.10934(4) -0.16857(3)
Ag3 Ag 0.13044(2) -0.05416(3) -0.03807(3)
Ag4 Ag 0.26182(3) 0.45151(5) -0.14446(4)
S1 S -0.04893(9) 0.28762(11) -0.21433(8)
S2 S 0.03026(7) 0.54551(9) -0.09882(7)
S3 S -0.00896(8) 0.30813(9) -0.00718(7)
S4 S 0.11414(7) 0.52395(12) 0.04617(7)
S5 S 0.10676(9) 0.37687(12) 0.20949(9)
S6 S 0.19191(9) 0.65411(13) 0.24326(9)
N4 N -0.0070(2) 0.4089(3) -0.1521(2)
N5 N 0.0028(2) 0.4208(3) -0.0635(2)
N6 N -0.0253(2) 0.2979(3) -0.1092(2)
C1 C -0.0252(3) 0.3350(4) -0.1518(3)
C2 C 0.0065(2) 0.4487(3) -0.1072(3)
C3 C -0.0110(2) 0.3443(3) -0.0669(3)
N7 N 0.1125(2) 0.4579(3) 0.1285(2)
N8 N 0.1476(3) 0.5164(4) 0.2166(2)
N9 N 0.1536(2) 0.5863(4) 0.1458(3)
C4 C 0.1240(3) 0.4568(4) 0.1817(3)
C5 C 0.1613(3) 0.5776(5) 0.1966(3)
C6 C 0.1285(3) 0.5232(4) 0.1135(3)
C7 C -0.0720(3) 0.1921(4) -0.2018(3)
C8 C -0.0329(3) 0.1242(4) -0.1907(3)
C9 C 0.0222(3) 0.1348(5) -0.1719(3)
C10 C 0.0545(3) 0.0692(4) -0.1629(3)
N10 N 0.0346(3) -0.0064(3) -0.1744(3)
C11 C -0.0186(3) -0.0157(4) -0.1930(3)
C12 C -0.0530(3) 0.0478(4) -0.2013(3)
C13 C 0.0332(3) 0.5631(4) -0.1620(3)
C14 C 0.1790(4) 0.5580(5) -0.1282(4)
C15 C 0.1305(3) 0.5837(5) -0.1330(4)
N11 N 0.1854(3) 0.4884(4) -0.1479(3)
C16 C 0.0867(3) 0.5370(4) -0.1573(3)
C17 C 0.0910(3) 0.4652(5) -0.1792(3)
C18 C 0.1402(4) 0.4418(4) -0.1734(4)
C19 C -0.0330(3) 0.2076(3) -0.0249(3)
C20 C 0.0064(3) 0.1488(4) -0.0280(3)
C21 C -0.0129(3) 0.0771(4) -0.0532(3)
C22 C 0.0218(3) 0.0206(4) -0.0554(3)
N12 N 0.0746(2) 0.0316(4) -0.0339(3)
C23 C 0.0934(4) 0.1010(5) -0.0081(4)
C24 C 0.0616(3) 0.1607(5) -0.0047(4)
C25 C 0.1429(3) 0.6176(4) 0.0391(3)
C26 C 0.2393(3) -0.1365(5) -0.0109(4)
C27 C 0.2876(3) -0.1498(4) -0.0093(3)
N13 N 0.2037(2) -0.0820(3) -0.0425(3)
C28 C 0.1975(3) 0.6047(4) 0.0416(3)
C29 C 0.2343(3) 0.5497(5) 0.0747(3)
C30 C 0.2178(3) -0.0389(5) -0.0739(3)
C31 C 0.0718(3) 0.3099(5) 0.1522(3)
C32 C 0.1093(3) 0.2480(4) 0.1472(3)
C33 C 0.0956(3) 0.1687(5) 0.1421(4)
C34 C 0.1298(3) 0.1132(5) 0.1381(4)
N14 N 0.3249(3) 0.3669(4) -0.1357(3)
C35 C 0.1563(3) 0.2695(5) 0.1454(4)
C36 C 0.3130(4) 0.2899(5) -0.1380(4)
C37 C 0.2148(3) 0.7224(4) 0.2077(4)
C38 C 0.2625(3) 0.6952(4) 0.2016(3)
C39 C 0.2886(4) 0.6252(5) 0.2202(4)
C40 C 0.3329(4) 0.6041(6) 0.2121(4)
N15 N 0.1489(3) -0.1516(4) -0.1858(3)
C41 C 0.1744(5) -0.2201(6) -0.1672(6)
C42 C 0.2799(5) 0.7422(5) 0.1725(6)
N14E N 0.1751(3) 0.1331(4) 0.1357(3)
Ag4E Ag 0.23818(3) 0.04849(5) 0.14446(4)
N11E N 0.3146(3) 0.0116(4) 0.1479(3)
C14E C 0.3210(4) -0.0580(5) 0.1282(4)
C15E C 0.3695(3) -0.0837(5) 0.1330(4)
C16E C 0.4133(3) -0.0370(4) 0.1573(3)
C13E C 0.4668(3) -0.0631(4) 0.1620(3)
S2E S 0.46974(7) -0.04551(9) 0.09882(7)
C2E C 0.4935(2) 0.0513(3) 0.1072(3)
N4E N 0.5070(2) 0.0911(3) 0.1521(2)
C1E C 0.5252(3) 0.1650(4) 0.1518(3)
S1E S 0.54893(9) 0.21238(11) 0.21433(8)
C7E C 0.5720(3) 0.3079(4) 0.2018(3)
C8E C 0.5329(3) 0.3758(4) 0.1907(3)
C9E C 0.4778(3) 0.3652(5) 0.1719(3)
C10E C 0.4455(3) 0.4308(4) 0.1629(3)
N10E N 0.4654(3) 0.5064(3) 0.1744(3)
Ag2E Ag 0.41523(3) 0.60934(4) 0.16857(3)
N15E N 0.3511(3) 0.6516(4) 0.1858(3)
C41E C 0.3256(5) 0.7201(6) 0.1672(6)
C11E C 0.5186(3) 0.5157(4) 0.1930(3)
C12E C 0.5530(3) 0.4522(4) 0.2013(3)
N6E N 0.5253(2) 0.2021(3) 0.1092(2)
C3E C 0.5110(2) 0.1557(3) 0.0669(3)
S3E S 0.50896(8) 0.19187(9) 0.00718(7)
C19E C 0.5330(3) 0.2924(3) 0.0249(3)
C20E C 0.4936(3) 0.3512(4) 0.0280(3)
C21E C 0.5129(3) 0.4229(4) 0.0532(3)
C22E C 0.4782(3) 0.4794(4) 0.0554(3)
N12E N 0.4254(2) 0.4684(4) 0.0339(3)
Ag3E Ag 0.36956(2) 0.55416(3) 0.03807(3)
N13E N 0.2963(2) 0.5820(3) 0.0425(3)
C26E C 0.2607(3) 0.6365(5) 0.0109(4)
C27E C 0.2124(3) 0.6498(4) 0.0093(3)
C30E C 0.2822(3) 0.5389(5) 0.0739(3)
C23E C 0.4066(4) 0.3990(5) 0.0081(4)
C24E C 0.4384(3) 0.3393(5) 0.0047(4)
N5E N 0.4972(2) 0.0792(3) 0.0635(2)
Ag1A Ag 0.0000 0.5000 0.0000
S4E S 0.38586(7) -0.02395(12) -0.04617(7)
C6E C 0.3715(3) -0.0232(4) -0.1135(3)
N7E N 0.3875(2) 0.0421(3) -0.1285(2)
C4E C 0.3760(3) 0.0432(4) -0.1817(3)
S5E S 0.39324(9) 0.12313(12) -0.20949(9)
C31E C 0.4282(3) 0.1901(5) -0.1522(3)
C32E C 0.3907(3) 0.2520(4) -0.1472(3)
C33E C 0.4044(3) 0.3313(5) -0.1421(4)
C34E C 0.3702(3) 0.3868(5) -0.1381(4)
C40E C 0.1671(4) -0.1041(6) -0.2121(4)
C39E C 0.2114(4) -0.1252(5) -0.2202(4)
C38E C 0.2375(3) -0.1952(4) -0.2016(3)
C37E C 0.2852(3) -0.2224(4) -0.2077(4)
S6E S 0.30809(9) -0.15411(13) -0.24326(9)
C5E C 0.3387(3) -0.0776(5) -0.1966(3)
N8E N 0.3524(3) -0.0164(4) -0.2166(2)
N9E N 0.3464(2) -0.0863(4) -0.1458(3)
C42E C 0.2201(5) -0.2422(5) -0.1725(6)
C28E C 0.3025(3) -0.1047(4) -0.0416(3)
C25E C 0.3571(3) -0.1176(4) -0.0391(3)
C29E C 0.2657(3) -0.0497(5) -0.0747(3)
C35E C 0.3437(3) 0.2305(5) -0.1454(4)
S4A S 0.61414(7) 0.02395(12) 0.04617(7)
N5A N 0.5028(2) -0.0792(3) -0.0635(2)
C17E C 0.4090(3) 0.0348(5) 0.1792(3)
C18E C 0.3598(4) 0.0582(4) 0.1734(4)
C36E C 0.1870(4) 0.2101(5) 0.1380(4)
O1 O 0.1792(4) -0.0608(6) 0.0746(4)
O2 O 0.1533(4) -0.1416(5) 0.1176(4)
O3 O 0.1560(4) -0.1724(5) 0.0462(4)
N1 N 0.1635(3) -0.1260(5) 0.0811(3)
O4 O 0.1116(3) -0.2222(4) -0.0947(2)
O5 O 0.0503(2) -0.1577(3) -0.0860(2)
O6 O 0.0566(2) -0.2839(3) -0.0740(2)
N2 N 0.0730(2) -0.2219(3) -0.0851(2)
O7 O -0.0037(5) -0.2018(7) -0.2162(5)
O8 O 0.0000 -0.317(1) -0.2500
N3 N 0.0000 -0.2406(6) -0.2500
O7F O 0.0037(5) -0.2018(7) -0.2838(5)
Cl1 Cl 0.2894(3) 0.3736(4) 0.1694(3)
O9 O 0.2572(6) 0.4104(9) 0.1875(6)
O10 O 0.3339(5) 0.4132(7) 0.1795(5)
O11 O 0.2572(6) 0.3626(9) 0.1189(7)
O12 O 0.3091(9) 0.3017(15) 0.1818(9)
O13 O 0.2032(5) -0.0411(7) 0.2025(5)
O14 O 0.2751(9) 0.3518(13) -0.0336(9)
N16 N 0.1805(6) 0.3378(10) -0.0472(7)
C43 C 0.2355(9) 0.3627(11) -0.0221(15)
C44 C 0.1207(12) 0.3672(17) -0.0878(11)
C45 C 0.1778(19) 0.2736(18) -0.0827(18)
loop_
_geom_bond_atom_site_label_1
_geom_bond_atom_site_label_2
_geom_bond_site_symmetry_1
_geom_bond_site_symmetry_2
Ag1 N5E 1_555 1_555
Ag2 N10 1_555 1_555
Ag3 N12 1_555 1_555
Ag4 N11 1_555 1_555
S1 C1 1_555 1_555
S2 C2 1_555 1_555
S3 C3 1_555 1_555
S4 C6 1_555 1_555
S5 C4 1_555 1_555
S6 C5 1_555 1_555
O1 N1 1_555 1_555
O2 N1 1_555 1_555
O3 N1 1_555 1_555
O4 N2 1_555 1_555
O5 N2 1_555 1_555
O6 N2 1_555 1_555
O7 N3 1_555 1_555
O8 N3 1_555 1_555
N3 O7F 1_555 1_555
Cl1 O9 1_555 1_555
O10 Cl1 1_555 1_555
O11 Cl1 1_555 1_555
O12 Cl1 1_555 1_555
N4 C1 1_555 1_555
N5 C2 1_555 1_555
N6 C1 1_555 1_555
C2 N4 1_555 1_555
C3 N5 1_555 1_555
N7 C4 1_555 1_555
N8 C4 1_555 1_555
N9 C5 1_555 1_555
C5 N8 1_555 1_555
C6 N7 1_555 1_555
C7 S1 1_555 1_555
C8 C7 1_555 1_555
C9 C8 1_555 1_555
C10 C9 1_555 1_555
N10 C10 1_555 1_555
C11 N10 1_555 1_555
C12 C8 1_555 1_555
C13 S2 1_555 1_555
C14 C15 1_555 1_555
C15 C16 1_555 1_555
N11 C14 1_555 1_555
C16 C13 1_555 1_555
C17 C16 1_555 1_555
C18 N11 1_555 1_555
C19 S3 1_555 1_555
C20 C19 1_555 1_555
C21 C20 1_555 1_555
C22 C21 1_555 1_555
N12 C22 1_555 1_555
C23 N12 1_555 1_555
C24 C20 1_555 1_555
C25 S4 1_555 1_555
C26 C27 1_555 1_555
C27 C28E 1_555 1_555
N13 Ag3 1_555 1_555
C28 C25 1_555 1_555
C29 C28 1_555 1_555
C30 N13 1_555 1_555
C31 S5 1_555 1_555
C32 C31 1_555 1_555
C33 C32 1_555 1_555
C34 C33 1_555 1_555
N14 Ag4 1_555 1_555
C35 C32 1_555 1_555
C36 N14 1_555 1_555
C37 S6 1_555 1_555
C38 C37 1_555 1_555
C39 C38 1_555 1_555
C40 C39 1_555 1_555
N15 Ag2 1_555 1_555
C41 N15 1_555 1_555
C42 C38 1_555 1_555
O14 C43 1_555 1_555
N16 C43 1_555 1_555
C44 N16 1_555 1_555
C45 N16 1_555 1_555
N14E C34 1_555 1_555
Ag4E N14E 1_555 1_555
N11E Ag4E 1_555 1_555
C14E N11E 1_555 1_555
C15E C14E 1_555 1_555
C16E C15E 1_555 1_555
C13E C16E 1_555 1_555
S2E C13E 1_555 1_555
C2E S2E 1_555 1_555
N4E C2E 1_555 1_555
C1E N4E 1_555 1_555
S1E C1E 1_555 1_555
C7E S1E 1_555 1_555
C8E C7E 1_555 1_555
C9E C8E 1_555 1_555
C10E C9E 1_555 1_555
N10E C10E 1_555 1_555
Ag2E N10E 1_555 1_555
N15E C40 1_555 1_555
C41E C42 1_555 1_555
C11E N10E 1_555 1_555
C12E C8E 1_555 1_555
N6E C1E 1_555 1_555
C3E N6E 1_555 1_555
S3E C3E 1_555 1_555
C19E S3E 1_555 1_555
C20E C19E 1_555 1_555
C21E C20E 1_555 1_555
C22E C21E 1_555 1_555
N12E C22E 1_555 1_555
Ag3E N12E 1_555 1_555
N13E Ag3E 1_555 1_555
C26E N13E 1_555 1_555
C27E C28 1_555 1_555
C30E C29 1_555 1_555
C23E N12E 1_555 1_555
C24E C20E 1_555 1_555
N5E C2E 1_555 1_555
Ag1A S4 1_555 1_555
S4E Ag1 1_555 1_555
C6E S4E 1_555 1_555
N7E C6E 1_555 1_555
C4E N7E 1_555 1_555
S5E C4E 1_555 1_555
C31E S5E 1_555 1_555
C32E C31E 1_555 1_555
C33E C32E 1_555 1_555
C34E N14 1_555 1_555
C40E N15 1_555 1_555
C39E C40E 1_555 1_555
C38E C39E 1_555 1_555
C37E C38E 1_555 1_555
S6E C37E 1_555 1_555
C5E S6E 1_555 1_555
N8E C4E 1_555 1_555
N9E C6E 1_555 1_555
C42E C41 1_555 1_555
C28E C25E 1_555 1_555
C25E S4E 1_555 1_555
C29E C30 1_555 1_555
C35E C36 1_555 1_555
S4A Ag1 1_555 1_555
N5A Ag1 1_555 1_555
C17E C16E 1_555 1_555
C18E N11E 1_555 1_555
C36E C35 1_555 1_555
N5 Ag1A 1_555 1_555
N6 C3 1_555 1_555
N9 C6 1_555 1_555
C11 C12 1_555 1_555
C17 C18 1_555 1_555
C23 C24 1_555 1_555
C26 N13 1_555 1_555
N14E C36E 1_555 1_555
Ag2E N15E 1_555 1_555
N15E C41E 1_555 1_555
C11E C12E 1_555 1_555
C3E N5E 1_555 1_555
N13E C30E 1_555 1_555
C26E C27E 1_555 1_555
C23E C24E 1_555 1_555
C32E C35E 1_555 1_555
C33E C34E 1_555 1_555
C38E C42E 1_555 1_555
C5E N8E 1_555 1_555
C5E N9E 1_555 1_555
C28E C29E 1_555 1_555
C17E C18E 1_555 1_555

#END
