
#######################################################################
#
#                 Cambridge Crystallographic Data Centre
#                                CCDC 
#
#######################################################################
#
# If this CIF has been generated from an entry in the Cambridge 
# Structural Database, then it will include bibliographic, chemical, 
# crystal, experimental, refinement or atomic coordinate data resulting 
# from the CCDC's data processing and validation procedures.
#
#######################################################################

data_WEWQAQ
_symmetry_cell_setting           tetragonal
_symmetry_space_group_name_H-M   'I 41/a'
_symmetry_Int_Tables_number      88
_space_group_name_Hall           '-I 4ad'
loop_
_symmetry_equiv_pos_site_id
_symmetry_equiv_pos_as_xyz
1 x,y,z
2 3/4-y,1/4+x,1/4+z
3 1/2+x,1/2+y,1/2+z
4 1/4-y,3/4+x,3/4+z
5 1/4+y,1/4-x,1/4+z
6 1/2+x,y,1/2-z
7 1/4-y,1/4+x,1/4-z
8 x,1/2+y,-z
9 -x,-y,-z
10 1/4+y,3/4-x,3/4-z
11 1/2-x,1/2-y,1/2-z
12 3/4+y,1/4-x,1/4-z
13 3/4-y,3/4+x,3/4-z
14 1/2-x,-y,1/2+z
15 3/4+y,3/4-x,3/4+z
16 -x,1/2-y,z
_cell_length_a                   25.184(3)
_cell_length_b                   25.184(3)
_cell_length_c                   12.6272(15)
_cell_angle_alpha                90
_cell_angle_beta                 90
_cell_angle_gamma                90
_cell_volume                     8008.6
loop_
_atom_site_label
_atom_site_type_symbol
_atom_site_fract_x
_atom_site_fract_y
_atom_site_fract_z
N8 N -0.2610(5) -0.3264(4) -0.0206(7)
O4 O -0.2265(3) -0.3634(3) -0.0303(6)
O5 O -0.3081(4) -0.3384(3) -0.0298(8)
O6 O -0.2458(4) -0.2820(3) -0.0042(9)
Cu1 Cu -0.37691(4) -0.37964(4) 0.53399(8)
O1 O -0.3462(2) -0.3600(2) 0.6758(4)
O2 O -0.3860(3) -0.2923(2) 0.4796(5)
N1 N -0.2253(3) -0.5018(3) 0.2090(5)
H1 H -0.1913 -0.5095 0.2119
C1 C -0.2386(4) -0.4493(4) 0.1979(5)
N2 N -0.1981(3) -0.4138(3) 0.1929(5)
H2 H -0.2049 -0.3797 0.1874
H3 H -0.1650 -0.4250 0.1952
N3 N -0.2883(3) -0.4320(3) 0.1945(5)
C2 C -0.3236(3) -0.4717(3) 0.2041(6)
C3 C -0.3138(3) -0.5249(3) 0.2170(6)
O3 O -0.2450(2) -0.5904(2) 0.2213(4)
C4 C -0.2605(3) -0.5437(3) 0.2158(6)
N4 N -0.3622(3) -0.5531(3) 0.2295(5)
C5 C -0.3982(3) -0.5155(3) 0.2214(6)
H4 H -0.4353 -0.5222 0.2252
N5 N -0.3781(3) -0.4669(3) 0.2073(5)
C6 C -0.4079(3) -0.4176(3) 0.2024(7)
H5 H -0.4463 -0.4256 0.1969
H6 H -0.3974 -0.3975 0.1384
C7 C -0.3979(3) -0.3836(4) 0.3009(7)
H7 H -0.3603 -0.3722 0.3012
H8 H -0.4201 -0.3512 0.2966
N6 N -0.4095(3) -0.4113(3) 0.4015(5)
H9 H -0.3952 -0.4451 0.3948
C8 C -0.4654(4) -0.4186(4) 0.4200(8)
H10 H -0.4844 -0.3862 0.3969
H11 H -0.4780 -0.4484 0.3755
C9 C -0.4782(8) -0.4285(5) 0.5203(11)
H12 H -0.4696 -0.4659 0.5373
H13 H -0.5169 -0.4235 0.5300
N7 N -0.4479(4) -0.3915(3) 0.5965(6)
H14 H -0.4448 -0.4070 0.6622
H15 H -0.4656 -0.3598 0.6038
Cu1C Cu -0.37036(4) -0.62691(4) 0.28399(8)
N4D N -0.3031(3) -0.3878(3) 0.4795(5)
loop_
_geom_bond_atom_site_label_1
_geom_bond_atom_site_label_2
_geom_bond_site_symmetry_1
_geom_bond_site_symmetry_2
Cu1 O1 1_555 1_555
O2 Cu1 1_555 1_555
N1 H1 1_555 1_555
C1 N1 1_555 1_555
N2 C1 1_555 1_555
H2 N2 1_555 1_555
H3 N2 1_555 1_555
N3 C1 1_555 1_555
C2 N3 1_555 1_555
C3 C2 1_555 1_555
O3 C4 1_555 1_555
C4 N1 1_555 1_555
N4 C3 1_555 1_555
C5 N4 1_555 1_555
H4 C5 1_555 1_555
N5 C2 1_555 1_555
C6 N5 1_555 1_555
H5 C6 1_555 1_555
H6 C6 1_555 1_555
C7 C6 1_555 1_555
H7 C7 1_555 1_555
H8 C7 1_555 1_555
N6 Cu1 1_555 1_555
H9 N6 1_555 1_555
C8 N6 1_555 1_555
H10 C8 1_555 1_555
H11 C8 1_555 1_555
C9 C8 1_555 1_555
H12 C9 1_555 1_555
H13 C9 1_555 1_555
N7 Cu1 1_555 1_555
H14 N7 1_555 1_555
H15 N7 1_555 1_555
N8 O4 1_555 1_555
O5 N8 1_555 1_555
O6 N8 1_555 1_555
Cu1C N4 1_555 1_555
N4D Cu1 1_555 1_555
C3 C4 1_555 1_555
C5 N5 1_555 1_555
C7 N6 1_555 1_555
C9 N7 1_555 1_555

#END
