
#######################################################################
#
#                 Cambridge Crystallographic Data Centre
#                                CCDC 
#
#######################################################################
#
# If this CIF has been generated from an entry in the Cambridge 
# Structural Database, then it will include bibliographic, chemical, 
# crystal, experimental, refinement or atomic coordinate data resulting 
# from the CCDC's data processing and validation procedures.
#
#######################################################################

data_WEWTIC
_symmetry_cell_setting           monoclinic
_symmetry_space_group_name_H-M   'P 21/n'
_symmetry_Int_Tables_number      14
_space_group_name_Hall           '-P 2yn'
loop_
_symmetry_equiv_pos_site_id
_symmetry_equiv_pos_as_xyz
1 x,y,z
2 1/2-x,1/2+y,1/2-z
3 -x,-y,-z
4 1/2+x,1/2-y,1/2+z
_cell_length_a                   11.901(4)
_cell_length_b                   5.5648(15)
_cell_length_c                   12.124(3)
_cell_angle_alpha                90
_cell_angle_beta                 101.05(2)
_cell_angle_gamma                90
_cell_volume                     788.046
loop_
_atom_site_label
_atom_site_type_symbol
_atom_site_fract_x
_atom_site_fract_y
_atom_site_fract_z
Np1 Np -0.61873(2) 0.21676(5) -0.22867(2)
N1 N -0.4550(5) 0.0856(12) -0.3470(5)
C1 C -0.4194(8) 0.2424(14) -0.4173(7)
H1 H -0.4615(8) 0.3824(14) -0.4355(7)
C2 C -0.3225(7) 0.2063(11) -0.4645(6)
C3 C -0.2572(7) 0.0029(14) -0.4355(6)
H2 H -0.1898(7) -0.0225(14) -0.4618(6)
C4 C -0.2963(8) -0.1646(15) -0.3647(6)
H3 H -0.2554(8) -0.3054(15) -0.3447(6)
C5 C -0.3946(7) -0.1199(13) -0.3254(6)
H4 H -0.4211(7) -0.2367(13) -0.2818(6)
C6 C -0.2893(6) 0.3832(12) -0.5473(5)
O1 O -0.5155(5) 0.4308(10) -0.1561(5)
O2 O -0.7250(4) -0.0097(10) -0.2955(4)
O3 O -0.4974(5) -0.0940(10) -0.1198(4)
O4 O -0.1865(4) 0.3820(10) -0.5567(4)
O5 O -0.3656(5) 0.5095(11) -0.6042(5)
Np1C Np -0.11873(2) 0.28324(5) -0.72867(2)
Np1A Np -0.88127(2) -0.28324(5) -0.27133(2)
Np1B Np -0.38127(2) 0.78324(5) -0.77133(2)
O2A O -0.7750(4) 0.4903(10) -0.2045(4)
O4C O -0.6865(4) 0.1180(10) -0.0567(4)
O5B O -0.6344(5) 0.4905(11) -0.3958(5)
loop_
_geom_bond_atom_site_label_1
_geom_bond_atom_site_label_2
_geom_bond_site_symmetry_1
_geom_bond_site_symmetry_2
Np1 N1 1_555 1_555
N1 C1 1_555 1_555
C1 H1 1_555 1_555
C2 C1 1_555 1_555
C3 C2 1_555 1_555
H2 C3 1_555 1_555
C4 C3 1_555 1_555
H3 C4 1_555 1_555
C5 N1 1_555 1_555
H4 C5 1_555 1_555
C6 C2 1_555 1_555
O1 Np1 1_555 1_555
O2 Np1 1_555 1_555
O3 Np1 1_555 1_555
O4 C6 1_555 1_555
O5 C6 1_555 1_555
Np1C O4 1_555 1_555
Np1A O2 1_555 1_555
Np1B O5 1_555 1_555
O2A Np1 1_555 1_555
O4C Np1 1_555 1_555
O5B Np1 1_555 1_555
C4 C5 1_555 1_555

#END
