
#######################################################################
#
#                 Cambridge Crystallographic Data Centre
#                                CCDC 
#
#######################################################################
#
# If this CIF has been generated from an entry in the Cambridge 
# Structural Database, then it will include bibliographic, chemical, 
# crystal, experimental, refinement or atomic coordinate data resulting 
# from the CCDC's data processing and validation procedures.
#
#######################################################################

data_WEWWOM
_symmetry_cell_setting           monoclinic
_symmetry_space_group_name_H-M   'C 2/c'
_symmetry_Int_Tables_number      15
_space_group_name_Hall           '-C 2yn'
loop_
_symmetry_equiv_pos_site_id
_symmetry_equiv_pos_as_xyz
1 x,y,z
2 -x,y,1/2-z
3 1/2+x,1/2+y,z
4 1/2-x,1/2+y,1/2-z
5 -x,-y,-z
6 x,-y,1/2+z
7 1/2-x,1/2-y,-z
8 1/2+x,1/2-y,1/2+z
_cell_length_a                   20.837(4)
_cell_length_b                   8.4407(15)
_cell_length_c                   21.141(4)
_cell_angle_alpha                90
_cell_angle_beta                 103.349(3)
_cell_angle_gamma                90
_cell_volume                     3617.79
loop_
_atom_site_label
_atom_site_type_symbol
_atom_site_fract_x
_atom_site_fract_y
_atom_site_fract_z
Cu1 Cu 0.204932(11) 0.14281(3) 0.529698(11)
Ni1 Ni 0.0000 0.5000 0.5000
N1 N 0.21365(9) 0.0841(2) 0.62291(8)
N2 N 0.27328(9) 0.0850(2) 0.66671(8)
N3 N 0.37476(9) 0.5363(2) 0.57864(8)
N4 N 0.34051(9) 0.5508(2) 0.51562(8)
N5 N 0.12253(9) 0.3021(2) 0.53037(10)
N6 N 0.01572(13) 0.6003(3) 0.63938(12)
C1 C 0.32423(19) 0.0138(5) 0.78228(14)
H1 H 0.3603 -0.0352 0.7685
H2 H 0.3118 -0.0506 0.8149
H3 H 0.3375 0.1166 0.8000
C2 C 0.26668(15) 0.0305(3) 0.72531(11)
C3 C 0.20092(15) -0.0031(3) 0.71832(12)
H4 H 0.1812 -0.0420 0.7504
C4 C 0.16943(12) 0.0316(3) 0.65471(11)
C5 C 0.09779(13) 0.0137(4) 0.62353(14)
H5 H 0.0757 0.1127 0.6254
H6 H 0.0789 -0.0660 0.6462
H7 H 0.0927 -0.0173 0.5790
C6 C 0.33139(11) 0.1490(3) 0.64944(11)
H8 H 0.3468 0.0743 0.6213
H9 H 0.3660 0.1612 0.6886
C7 C 0.31889(10) 0.3083(2) 0.61501(9)
H10 H 0.2973 0.3789 0.6405
C8 C 0.38401(11) 0.3813(3) 0.61012(10)
H11 H 0.4121 0.3924 0.6534
H12 H 0.4060 0.3112 0.5855
C9 C 0.43514(16) 0.7011(4) 0.67240(12)
H13 H 0.4057 0.7009 0.7013
H14 H 0.4582 0.8004 0.6760
H15 H 0.4663 0.6163 0.6839
C10 C 0.39663(12) 0.6791(3) 0.60429(12)
C11 C 0.37542(13) 0.7879(3) 0.55621(12)
H16 H 0.3831 0.8965 0.5592
C12 C 0.34024(11) 0.7064(3) 0.50195(11)
C13 C 0.30623(14) 0.7764(3) 0.43857(13)
H17 H 0.3361 0.7803 0.4102
H18 H 0.2918 0.8817 0.4454
H19 H 0.2688 0.7124 0.4191
C14 C 0.07566(11) 0.3769(3) 0.52063(11)
C15 C 0.01127(11) 0.5616(3) 0.58691(12)
O1 O 0.27784(7) 0.28990(19) 0.55318(6)
Cu1D Cu -0.204932(11) 0.85719(3) 0.470302(11)
N1D N -0.21365(9) 0.9159(2) 0.37709(8)
N2D N -0.27328(9) 0.9150(2) 0.33329(8)
N3D N -0.37476(9) 0.4637(2) 0.42136(8)
N4D N -0.34051(9) 0.4492(2) 0.48438(8)
N5D N -0.12253(9) 0.6979(2) 0.46963(10)
N6D N -0.01572(13) 0.3997(3) 0.36062(12)
C1D C -0.32423(19) 0.9862(5) 0.21772(14)
H1D H -0.3603 1.0352 0.2315
H2D H -0.3118 1.0506 0.1851
H3D H -0.3375 0.8834 0.2000
C2D C -0.26668(15) 0.9695(3) 0.27469(11)
C3D C -0.20092(15) 1.0031(3) 0.28168(12)
H4D H -0.1812 1.0420 0.2496
C4D C -0.16943(12) 0.9684(3) 0.34529(11)
C5D C -0.09779(13) 0.9863(4) 0.37647(14)
H5D H -0.0757 0.8873 0.3746
H6D H -0.0789 1.0660 0.3538
H7D H -0.0927 1.0173 0.4210
C6D C -0.33139(11) 0.8510(3) 0.35056(11)
H8D H -0.3468 0.9257 0.3787
H9D H -0.3660 0.8388 0.3114
C7D C -0.31889(10) 0.6917(2) 0.38499(9)
H10D H -0.2973 0.6211 0.3595
C8D C -0.38401(11) 0.6187(3) 0.38988(10)
H11D H -0.4121 0.6076 0.3466
H12D H -0.4060 0.6888 0.4145
C9D C -0.43514(16) 0.2989(4) 0.32760(12)
H13D H -0.4057 0.2991 0.2987
H14D H -0.4582 0.1996 0.3240
H15D H -0.4663 0.3837 0.3161
C10D C -0.39663(12) 0.3209(3) 0.39571(12)
C11D C -0.37542(13) 0.2121(3) 0.44379(12)
H16D H -0.3831 0.1035 0.4408
C12D C -0.34024(11) 0.2936(3) 0.49805(11)
C13D C -0.30623(14) 0.2236(3) 0.56143(13)
H17D H -0.3361 0.2197 0.5898
H18D H -0.2918 0.1183 0.5546
H19D H -0.2688 0.2876 0.5809
C14D C -0.07566(11) 0.6231(3) 0.47937(11)
C15D C -0.01127(11) 0.4384(3) 0.41309(12)
O1D O -0.27784(7) 0.71010(19) 0.44682(6)
Cu1B Cu -0.295068(11) 0.64281(3) 0.529698(11)
Cu1F Cu 0.295068(11) 0.35719(3) 0.470302(11)
N4B N -0.15949(9) 1.0508(2) 0.51562(8)
N4F N 0.15949(9) -0.0508(2) 0.48438(8)
O1B O -0.22216(7) 0.78990(19) 0.55318(6)
O1F O 0.22216(7) 0.21010(19) 0.44682(6)
O2 O 0.0000 0.7888(4) 0.7500
H20 H 0.011(3) 0.721(5) 0.731(2)
H20A H -0.011(3) 0.721(5) 0.769(2)
loop_
_geom_bond_atom_site_label_1
_geom_bond_atom_site_label_2
_geom_bond_site_symmetry_1
_geom_bond_site_symmetry_2
Cu1 N1 1_555 1_555
Ni1 C14 1_555 1_555
N1 N2 1_555 1_555
N2 C2 1_555 1_555
N3 N4 1_555 1_555
N4 C12 1_555 1_555
N5 Cu1 1_555 1_555
N6 C15 1_555 1_555
C1 H1 1_555 1_555
H2 C1 1_555 1_555
H3 C1 1_555 1_555
C2 C1 1_555 1_555
C3 C2 1_555 1_555
H4 C3 1_555 1_555
C4 N1 1_555 1_555
C5 C4 1_555 1_555
H5 C5 1_555 1_555
H6 C5 1_555 1_555
H7 C5 1_555 1_555
C6 N2 1_555 1_555
H8 C6 1_555 1_555
H9 C6 1_555 1_555
C7 C6 1_555 1_555
H10 C7 1_555 1_555
C8 N3 1_555 1_555
H11 C8 1_555 1_555
H12 C8 1_555 1_555
C9 H13 1_555 1_555
H14 C9 1_555 1_555
H15 C9 1_555 1_555
C10 N3 1_555 1_555
C11 C10 1_555 1_555
H16 C11 1_555 1_555
C12 C11 1_555 1_555
C13 C12 1_555 1_555
H17 C13 1_555 1_555
H18 C13 1_555 1_555
H19 C13 1_555 1_555
C14 N5 1_555 1_555
C15 Ni1 1_555 1_555
O1 Cu1 1_555 1_555
O2 H20 1_555 1_555
Cu1D N1D 1_555 1_555
N1D N2D 1_555 1_555
N2D C2D 1_555 1_555
N3D N4D 1_555 1_555
N4D C12D 1_555 1_555
N5D Cu1D 1_555 1_555
N6D C15D 1_555 1_555
C1D H1D 1_555 1_555
H2D C1D 1_555 1_555
H3D C1D 1_555 1_555
C2D C1D 1_555 1_555
C3D C2D 1_555 1_555
H4D C3D 1_555 1_555
C4D N1D 1_555 1_555
C5D C4D 1_555 1_555
H5D C5D 1_555 1_555
H6D C5D 1_555 1_555
H7D C5D 1_555 1_555
C6D N2D 1_555 1_555
H8D C6D 1_555 1_555
H9D C6D 1_555 1_555
C7D C6D 1_555 1_555
H10D C7D 1_555 1_555
C8D N3D 1_555 1_555
H11D C8D 1_555 1_555
H12D C8D 1_555 1_555
C9D H13D 1_555 1_555
H14D C9D 1_555 1_555
H15D C9D 1_555 1_555
C10D N3D 1_555 1_555
C11D C10D 1_555 1_555
H16D C11D 1_555 1_555
C12D C11D 1_555 1_555
C13D C12D 1_555 1_555
H17D C13D 1_555 1_555
H18D C13D 1_555 1_555
H19D C13D 1_555 1_555
C14D Ni1 1_555 1_555
C15D Ni1 1_555 1_555
O1D Cu1D 1_555 1_555
Cu1B N4D 1_555 1_555
Cu1F N4 1_555 1_555
N4B Cu1D 1_555 1_555
N4F Cu1 1_555 1_555
O1B Cu1D 1_555 1_555
O1F Cu1 1_555 1_555
H20A O2 1_555 1_555
C3 C4 1_555 1_555
C7 C8 1_555 1_555
C7 O1 1_555 1_555
C9 C10 1_555 1_555
O1 Cu1F 1_555 1_555
N5D C14D 1_555 1_555
C3D C4D 1_555 1_555
C7D C8D 1_555 1_555
C7D O1D 1_555 1_555
C9D C10D 1_555 1_555
O1D Cu1B 1_555 1_555
Cu1B O1B 1_555 1_555
Cu1F O1F 1_555 1_555

#END
