
#######################################################################
#
#                 Cambridge Crystallographic Data Centre
#                                CCDC 
#
#######################################################################
#
# If this CIF has been generated from an entry in the Cambridge 
# Structural Database, then it will include bibliographic, chemical, 
# crystal, experimental, refinement or atomic coordinate data resulting 
# from the CCDC's data processing and validation procedures.
#
#######################################################################

data_WEWXEC
_symmetry_cell_setting           triclinic
_symmetry_space_group_name_H-M   'P -1'
_symmetry_Int_Tables_number      2
_space_group_name_Hall           '-P 1'
loop_
_symmetry_equiv_pos_site_id
_symmetry_equiv_pos_as_xyz
1 x,y,z
2 -x,-y,-z
_cell_length_a                   5.1077(5)
_cell_length_b                   8.362(2)
_cell_length_c                   11.378(2)
_cell_angle_alpha                93.773(6)
_cell_angle_beta                 97.587(9)
_cell_angle_gamma                90.493(9)
_cell_volume                     480.589
loop_
_atom_site_label
_atom_site_type_symbol
_atom_site_fract_x
_atom_site_fract_y
_atom_site_fract_z
Cu1 Cu -0.26996(9) 0.54408(7) 0.55372(5)
O1 O -0.1609(5) 0.4318(4) 0.4058(3)
O2 O -0.5604(6) 0.3623(5) 0.3132(3)
O3 O -0.6728(6) 0.2608(4) -0.4721(3)
O4 O -0.2787(6) 0.3404(4) -0.3759(3)
C1 C -0.3108(9) 0.3704(5) 0.3174(4)
C2 C -0.1910(9) 0.3009(7) 0.2123(4)
H1 H -0.0393 0.3637 0.2044
H2 H -0.1328 0.1961 0.2286
C3 C -0.3676(9) 0.2902(6) 0.0945(4)
H3 H -0.4175 0.3952 0.0744
H4 H -0.5238 0.2315 0.1021
C4 C -0.2366(9) 0.2107(7) -0.0047(4)
H5 H -0.0807 0.2701 -0.0117
H6 H -0.1846 0.1066 0.0167
C5 C -0.4051(10) 0.1951(7) -0.1255(4)
H7 H -0.4375 0.2992 -0.1523
H8 H -0.5706 0.1476 -0.1171
C6 C -0.2800(10) 0.0958(6) -0.2185(4)
H9 H -0.1118 0.1413 -0.2249
H10 H -0.2529 -0.0093 -0.1927
C7 C -0.4435(11) 0.0841(6) -0.3408(4)
H11 H -0.6158 0.0457 -0.3335
H12 H -0.3659 0.0079 -0.3907
C8 C -0.4664(9) 0.2416(6) -0.3996(4)
Cu1A Cu -0.73004(9) 0.45592(7) -0.55372(5)
Cu1_2 Cu -0.26996(9) 0.54408(7) -0.44628(5)
Cu1A_2 Cu -0.73004(9) 0.45592(7) 0.44628(5)
Cu1A_3 Cu 0.26996(9) 0.45592(7) 0.44628(5)
O1A O 0.1609(5) 0.5682(4) 0.5942(3)
O2A O -0.4396(6) 0.6377(5) 0.6868(3)
O3A O -0.3272(6) 0.7392(4) 0.4721(3)
O4_2 O -0.2787(6) 0.3404(4) 0.6241(3)
loop_
_geom_bond_atom_site_label_1
_geom_bond_atom_site_label_2
_geom_bond_site_symmetry_1
_geom_bond_site_symmetry_2
Cu1 O1 1_555 1_555
O1 C1 1_555 1_555
O2 C1 1_555 1_555
O3 C8 1_555 1_555
O4 C8 1_555 1_555
C1 C2 1_555 1_555
C2 H1 1_555 1_555
H2 C2 1_555 1_555
C3 C2 1_555 1_555
H3 C3 1_555 1_555
H4 C3 1_555 1_555
C4 C3 1_555 1_555
H5 C4 1_555 1_555
H6 C4 1_555 1_555
C5 C4 1_555 1_555
H7 C5 1_555 1_555
H8 C5 1_555 1_555
C6 C5 1_555 1_555
H9 C6 1_555 1_555
H10 C6 1_555 1_555
C7 C6 1_555 1_555
H11 C7 1_555 1_555
H12 C7 1_555 1_555
C8 C7 1_555 1_555
Cu1A O3 1_555 1_555
Cu1_2 O4 1_555 1_555
Cu1A_2 O2 1_555 1_555
Cu1A_3 O1 1_555 1_555
O1A Cu1 1_555 1_555
O2A Cu1 1_555 1_555
O3A Cu1 1_555 1_555
O4_2 Cu1 1_555 1_555
Cu1A_3 O1A 1_555 1_555

#END
