
#######################################################################
#
#                 Cambridge Crystallographic Data Centre
#                                CCDC 
#
#######################################################################
#
# If this CIF has been generated from an entry in the Cambridge 
# Structural Database, then it will include bibliographic, chemical, 
# crystal, experimental, refinement or atomic coordinate data resulting 
# from the CCDC's data processing and validation procedures.
#
#######################################################################

data_WEWXED
_symmetry_cell_setting           monoclinic
_symmetry_space_group_name_H-M   'P 21'
_symmetry_Int_Tables_number      4
_space_group_name_Hall           'P 2yb'
loop_
_symmetry_equiv_pos_site_id
_symmetry_equiv_pos_as_xyz
1 x,y,z
2 -x,1/2+y,-z
_cell_length_a                   9.763(2)
_cell_length_b                   19.956(4)
_cell_length_c                   10.942(2)
_cell_angle_alpha                90
_cell_angle_beta                 99.94(3)
_cell_angle_gamma                90
_cell_volume                     2099.83
loop_
_atom_site_label
_atom_site_type_symbol
_atom_site_fract_x
_atom_site_fract_y
_atom_site_fract_z
N1 N 1.0148(6) 0.2577(3) -0.4956(5)
C1 C 1.0045(6) 0.2351(3) -0.4032(5)
Cu1 Cu 0.93289(7) 0.12696(3) 0.20845(6)
Cu2 Cu 1.06031(7) 0.26236(2) 0.29832(6)
Fe1 Fe 0.98322(10) 0.18620(6) -0.25334(9)
N2 N 0.6358(5) 0.1529(2) 0.1149(4)
N3 N 0.9713(5) 0.1282(3) 0.0062(5)
N4 N 1.3567(5) 0.2378(3) 0.3926(4)
N5 N 1.2650(5) 0.2828(3) 0.3277(4)
N6 N 0.7270(5) 0.1063(3) 0.1771(4)
C2 C 0.6442(7) 0.0620(3) 0.2208(5)
C3 C 1.4826(7) 0.3128(4) 0.3209(5)
H1 H 1.5582 0.3369 0.3031
C4 C 1.3434(6) 0.3290(3) 0.2825(5)
C5 C 1.4893(6) 0.2556(3) 0.3885(5)
C6 C 0.5045(7) 0.0772(4) 0.1824(5)
H2 H 0.4283 0.0526 0.1981
C7 C 0.9810(6) 0.1484(3) -0.0906(5)
C8 C 0.5021(6) 0.1365(4) 0.1161(5)
C9 C 0.7017(8) 0.0048(4) 0.3029(6)
H3 H 0.6839 -0.0366 0.2583
H4 H 0.6578 0.0038 0.3749
H5 H 0.8002 0.0106 0.3281
C10 C 1.2841(8) 0.3839(4) 0.1970(7)
H6 H 1.2149 0.3658 0.1324
H7 H 1.3569 0.4042 0.1610
H8 H 1.2423 0.4170 0.2426
C11 C 0.3811(6) 0.1783(4) 0.0572(5)
H9 H 0.3918 0.1897 -0.0258
H10 H 0.3775 0.2185 0.1047
H11 H 0.2966 0.1534 0.0551
C12 C 1.6125(6) 0.2156(5) 0.4480(6)
H12 H 1.6251 0.2209 0.5365
H13 H 1.6941 0.2311 0.4186
H14 H 1.5974 0.1692 0.4272
O1 O 1.1061(4) 0.1683(2) 0.2925(3)
N7 N 0.9010(6) 0.1234(3) -0.3365(5)
C13 C 1.2198(6) 0.1344(3) 0.3600(5)
H15 H 1.2792 0.1186 0.3023
N8 N 1.2713(6) 0.1239(3) -0.2582(5)
O2 O 0.8450(7) 0.0819(3) -0.3974(6)
C14 C 1.1715(6) 0.0741(3) 0.4263(5)
H16 H 1.2485 0.0569 0.4859
H17 H 1.0987 0.0878 0.4711
C15 C 1.1692(7) 0.1480(3) -0.2517(5)
N9 N 1.0139(5) 0.0353(2) 0.2392(4)
N10 N 1.1189(6) 0.0214(3) 0.3376(4)
C16 C 0.9979(7) -0.0208(3) 0.1703(5)
C17 C 0.6901(6) 0.2093(3) 0.0542(5)
H18 H 0.6132 0.2344 0.0076
H19 H 0.7466 0.1927 -0.0040
C18 C 0.8928(8) -0.0265(4) 0.0539(6)
H20 H 0.8386 0.0139 0.0418
H21 H 0.8327 -0.0639 0.0605
H22 H 0.9396 -0.0331 -0.0155
C19 C 1.0886(8) -0.0696(4) 0.2227(6)
H23 H 1.0971 -0.1128 0.1930
O3 O 0.8903(4) 0.2219(2) 0.2166(3)
C20 C 1.1655(7) -0.0411(3) 0.3296(6)
C21 C 0.7773(5) 0.2559(3) 0.1466(5)
H24 H 0.7184 0.2731 0.2035
N11 N 0.8813(5) 0.3677(3) 0.1674(4)
N12 N 0.9781(5) 0.3541(3) 0.2701(4)
C22 C 0.8302(7) 0.3151(3) 0.0805(5)
H25 H 0.9044 0.3004 0.0382
H26 H 0.7555 0.3325 0.0186
C23 C 0.9961(8) 0.4087(3) 0.3379(6)
C24 C 0.8377(8) 0.4320(3) 0.1711(7)
C25 C 0.7343(8) 0.4626(4) 0.0717(7)
H27 H 0.7543 0.4495 -0.0078
H28 H 0.7388 0.5105 0.0791
H29 H 0.6428 0.4476 0.0794
C26 C 0.9082(7) 0.4588(3) 0.2760(6)
H30 H 0.9006 0.5026 0.3031
C27 C 1.0959(9) 0.4130(4) 0.4572(6)
H31 H 1.1870 0.4005 0.4436
H32 H 1.0669 0.3831 0.5166
H33 H 1.0980 0.4580 0.4881
C28 C 1.0819(7) 0.2590(4) -0.1600(6)
N13 N 0.7171(6) 0.2663(4) -0.2333(5)
N14 N 1.1328(7) 0.3000(4) -0.1000(6)
C29 C 0.8196(7) 0.2374(3) -0.2400(5)
C30 C 1.3044(6) 0.1810(4) 0.4539(4)
H34 H 1.2468 0.1970 0.5116
H35 H 1.3820 0.1565 0.5008
C31 C 1.2779(9) -0.0723(4) 0.4258(8)
H36 H 1.2410 -0.0816 0.4999
H37 H 1.3546 -0.0417 0.4447
H38 H 1.3092 -0.1132 0.3938
N1_2 N 1.0148(6) 0.2577(3) 0.5044(5)
Cu2_2 Cu 1.06031(7) 0.26236(2) -0.70168(6)
C32 C 0.5563(8) 0.0527(5) 0.6910(8)
N15 N 0.5304(9) 0.0373(6) 0.5932(8)
C33 C 0.5944(9) 0.0751(6) 0.8165(7)
H39 H 0.5189 0.0670 0.8604
H40 H 0.6144 0.1222 0.8173
H41 H 0.6753 0.0512 0.8560
C34 C 0.5620(9) 0.8395(6) 0.1651(10)
N16 N 0.5217(10) 0.8590(6) 0.0733(8)
C35 C 0.6114(10) 0.8107(6) 0.2877(7)
H42 H 0.5746 0.7662 0.2912
H43 H 0.5808 0.8381 0.3500
H44 H 0.7111 0.8089 0.3025
loop_
_geom_bond_atom_site_label_1
_geom_bond_atom_site_label_2
_geom_bond_site_symmetry_1
_geom_bond_site_symmetry_2
N1 C1 1_555 1_555
C1 Fe1 1_555 1_555
Cu1 N3 1_555 1_555
Cu2 N5 1_555 1_555
Fe1 C7 1_555 1_555
N2 N6 1_555 1_555
N3 C7 1_555 1_555
N4 N5 1_555 1_555
N5 C4 1_555 1_555
N6 Cu1 1_555 1_555
C2 N6 1_555 1_555
C3 H1 1_555 1_555
C4 C3 1_555 1_555
C5 N4 1_555 1_555
C6 C2 1_555 1_555
H2 C6 1_555 1_555
C8 N2 1_555 1_555
C9 C2 1_555 1_555
H3 C9 1_555 1_555
H4 C9 1_555 1_555
H5 C9 1_555 1_555
C10 C4 1_555 1_555
H6 C10 1_555 1_555
H7 C10 1_555 1_555
H8 C10 1_555 1_555
C11 C8 1_555 1_555
H9 C11 1_555 1_555
H10 C11 1_555 1_555
H11 C11 1_555 1_555
C12 C5 1_555 1_555
H12 C12 1_555 1_555
H13 C12 1_555 1_555
H14 C12 1_555 1_555
O1 Cu1 1_555 1_555
N7 Fe1 1_555 1_555
C13 O1 1_555 1_555
H15 C13 1_555 1_555
N8 C15 1_555 1_555
O2 N7 1_555 1_555
C14 C13 1_555 1_555
H16 C14 1_555 1_555
H17 C14 1_555 1_555
C15 Fe1 1_555 1_555
N9 Cu1 1_555 1_555
N10 C14 1_555 1_555
C16 N9 1_555 1_555
C17 N2 1_555 1_555
H18 C17 1_555 1_555
H19 C17 1_555 1_555
C18 C16 1_555 1_555
H20 C18 1_555 1_555
H21 C18 1_555 1_555
H22 C18 1_555 1_555
C19 C16 1_555 1_555
H23 C19 1_555 1_555
O3 Cu1 1_555 1_555
C20 N10 1_555 1_555
C21 C17 1_555 1_555
H24 C21 1_555 1_555
N11 N12 1_555 1_555
N12 Cu2 1_555 1_555
C22 C21 1_555 1_555
H25 C22 1_555 1_555
H26 C22 1_555 1_555
C23 N12 1_555 1_555
C24 N11 1_555 1_555
C25 C24 1_555 1_555
H27 C25 1_555 1_555
H28 C25 1_555 1_555
H29 C25 1_555 1_555
C26 C23 1_555 1_555
H30 C26 1_555 1_555
C27 C23 1_555 1_555
H31 C27 1_555 1_555
H32 C27 1_555 1_555
H33 C27 1_555 1_555
C28 Fe1 1_555 1_555
N13 C29 1_555 1_555
N14 C28 1_555 1_555
C29 Fe1 1_555 1_555
C30 N4 1_555 1_555
H34 C30 1_555 1_555
H35 C30 1_555 1_555
C31 C20 1_555 1_555
H36 C31 1_555 1_555
H37 C31 1_555 1_555
H38 C31 1_555 1_555
C32 N15 1_555 1_555
C33 C32 1_555 1_555
H39 C33 1_555 1_555
H40 C33 1_555 1_555
H41 C33 1_555 1_555
C34 N16 1_555 1_555
C35 C34 1_555 1_555
H42 C35 1_555 1_555
H43 C35 1_555 1_555
H44 C35 1_555 1_555
N1_2 Cu2 1_555 1_555
Cu2_2 N1 1_555 1_555
Cu2 O1 1_555 1_555
Cu2 O3 1_555 1_555
C3 C5 1_555 1_555
C6 C8 1_555 1_555
C13 C30 1_555 1_555
N9 N10 1_555 1_555
C19 C20 1_555 1_555
O3 C21 1_555 1_555
N11 C22 1_555 1_555
C24 C26 1_555 1_555

#END
