
#######################################################################
#
#                 Cambridge Crystallographic Data Centre
#                                CCDC 
#
#######################################################################
#
# If this CIF has been generated from an entry in the Cambridge 
# Structural Database, then it will include bibliographic, chemical, 
# crystal, experimental, refinement or atomic coordinate data resulting 
# from the CCDC's data processing and validation procedures.
#
#######################################################################

data_WEWZOP
_symmetry_cell_setting           monoclinic
_symmetry_space_group_name_H-M   'C 2/c'
_symmetry_Int_Tables_number      15
_space_group_name_Hall           '-C 2yn'
loop_
_symmetry_equiv_pos_site_id
_symmetry_equiv_pos_as_xyz
1 x,y,z
2 -x,y,1/2-z
3 1/2+x,1/2+y,z
4 1/2-x,1/2+y,1/2-z
5 -x,-y,-z
6 x,-y,1/2+z
7 1/2-x,1/2-y,-z
8 1/2+x,1/2-y,1/2+z
_cell_length_a                   23.056(5)
_cell_length_b                   5.4224(11)
_cell_length_c                   15.027(3)
_cell_angle_alpha                90
_cell_angle_beta                 121.22(3)
_cell_angle_gamma                90
_cell_volume                     1606.6
loop_
_atom_site_label
_atom_site_type_symbol
_atom_site_fract_x
_atom_site_fract_y
_atom_site_fract_z
Zn1 Zn 0.44661(2) 0.32106(9) 0.37026(3)
As1 As 0.406012(17) 0.81688(7) 0.44960(3)
N1 N 0.10307(16) 0.7122(8) 0.2845(3)
H1 H 0.0898 0.8086 0.3195
H2 H 0.0917 0.5556 0.2885
C1 C 0.17569(18) 0.7296(8) 0.3318(3)
C2 C 0.20963(19) 0.5392(8) 0.3163(3)
H3 H 0.1862 0.3981 0.2805
C3 C 0.27851(19) 0.5592(8) 0.3543(3)
H4 H 0.3015 0.4327 0.3436
C4 C 0.31319(18) 0.7713(7) 0.4088(3)
C5 C 0.27895(19) 0.9594(8) 0.4265(3)
H5 H 0.3024 1.0984 0.4643
C6 C 0.21014(19) 0.9384(8) 0.3877(3)
H6 H 0.1871 1.0634 0.3989
O1 O 0.42146(15) 0.6647(5) 0.3672(2)
O2 O 0.45627(13) 0.7186(7) 0.5731(2)
O3 O 0.41628(15) 1.1202(5) 0.4452(3)
Zn1_2 Zn 0.44661(2) 1.32106(9) 0.37026(3)
Zn1C Zn 0.05339(2) 0.82106(9) 0.12974(3)
Zn1D Zn 0.55339(2) 0.67894(9) 0.62974(3)
N1C N 0.39693(16) 0.2122(8) 0.2155(3)
O2D O 0.54373(13) 0.2814(7) 0.4269(2)
O3_2 O 0.41628(15) 0.1202(5) 0.4452(3)
O4 O 0.0630(2) 0.2460(8) 0.3469(3)
H7 H 0.050(3) 0.114(5) 0.358(5)
H8 H 0.050(3) 0.365(7) 0.368(5)
loop_
_geom_bond_atom_site_label_1
_geom_bond_atom_site_label_2
_geom_bond_site_symmetry_1
_geom_bond_site_symmetry_2
Zn1 O1 1_555 1_555
As1 C4 1_555 1_555
N1 H1 1_555 1_555
H2 N1 1_555 1_555
C1 N1 1_555 1_555
C2 C1 1_555 1_555
H3 C2 1_555 1_555
C3 C2 1_555 1_555
H4 C3 1_555 1_555
C4 C3 1_555 1_555
C5 C4 1_555 1_555
H5 C5 1_555 1_555
C6 C1 1_555 1_555
H6 C6 1_555 1_555
O1 As1 1_555 1_555
O2 As1 1_555 1_555
O3 As1 1_555 1_555
O4 H7 1_555 1_555
H8 O4 1_555 1_555
Zn1_2 O3 1_555 1_555
Zn1C N1 1_555 1_555
Zn1D O2 1_555 1_555
N1C Zn1 1_555 1_555
O2D Zn1 1_555 1_555
O3_2 Zn1 1_555 1_555
C5 C6 1_555 1_555

#END
