
#######################################################################
#
#                 Cambridge Crystallographic Data Centre
#                                CCDC 
#
#######################################################################
#
# If this CIF has been generated from an entry in the Cambridge 
# Structural Database, then it will include bibliographic, chemical, 
# crystal, experimental, refinement or atomic coordinate data resulting 
# from the CCDC's data processing and validation procedures.
#
#######################################################################

data_WEXCIN
_symmetry_cell_setting           monoclinic
_symmetry_space_group_name_H-M   'P 21'
_symmetry_Int_Tables_number      4
_space_group_name_Hall           'P 2yb'
loop_
_symmetry_equiv_pos_site_id
_symmetry_equiv_pos_as_xyz
1 x,y,z
2 -x,1/2+y,-z
_cell_length_a                   10.431(3)
_cell_length_b                   4.9185(12)
_cell_length_c                   17.662(4)
_cell_angle_alpha                90
_cell_angle_beta                 91.686(3)
_cell_angle_gamma                90
_cell_volume                     905.754
loop_
_atom_site_label
_atom_site_type_symbol
_atom_site_fract_x
_atom_site_fract_y
_atom_site_fract_z
C1 C 0.4855(3) 0.7264(8) 0.36253(17)
C2 C 0.4755(3) 0.5272(8) 0.41719(18)
H1 H 0.5415 0.4031 0.4258
C3 C 0.3653(3) 0.5158(8) 0.45889(18)
H2 H 0.3585 0.3838 0.4963
C4 C 0.2667(3) 0.6931(9) 0.44645(19)
C5 C 0.2773(3) 0.8870(9) 0.3899(2)
H3 H 0.2097 1.0063 0.3799
C6 C 0.3870(3) 0.9051(8) 0.34825(19)
H4 H 0.3939 1.0372 0.3109
C7 C 0.1492(4) 0.6911(12) 0.4954(2)
H5 H 0.1220 0.5070 0.5031
H6 H 0.0813 0.7916 0.4705
H7 H 0.1702 0.7735 0.5435
H8 H 0.1151 -0.2717 0.0617
H9 H 0.0114 -0.0831 0.0593
C8 C 0.3863(3) 0.5637(9) 0.17744(14)
C9 C 0.5167(3) 0.7010(7) 0.17468(16)
H10 H 0.5061 0.8956 0.1846
C10 C 0.5685(3) 0.6645(7) 0.09427(16)
H11 H 0.5795 0.4722 0.0842
H12 H 0.5063 0.7352 0.0575
C11 C 0.6947(3) 0.8082(9) 0.08504(18)
H13 H 0.7566 0.7343 0.1216
H14 H 0.6834 0.9990 0.0969
C12 C 0.7498(3) 0.7862(8) 0.00661(18)
C13 C -0.0178(3) 0.1019(12) 0.2204(2)
H15 H -0.0527 -0.0366 0.1904
C14 C -0.0005(4) 0.4126(10) 0.3052(2)
H16 H -0.0179 0.5318 0.3444
C15 C 0.1092(3) 0.3943(9) 0.26811(19)
H17 H 0.1819 0.4996 0.2778
N1 N 0.6084(2) 0.5876(7) 0.23138(12)
N2 N 0.0982(2) 0.1980(6) 0.21402(15)
N3 N -0.0796(3) 0.2282(8) 0.27522(19)
H18 H -0.1566 0.1960 0.2887
O1 O 0.38345(19) 0.3141(5) 0.19240(12)
O2 O 0.2887(2) 0.7018(5) 0.16228(13)
O3 O 0.72547(18) 0.6026(7) 0.35348(11)
O4 O 0.64991(19) 1.0271(5) 0.29379(12)
O5 O 0.6883(2) 0.6498(6) -0.04211(12)
O6 O 0.8536(2) 0.9025(6) -0.00472(13)
O7 O 0.0716(2) -0.1579(6) 0.08454(14)
S1 S 0.62827(7) 0.74469(18) 0.31137(4)
Zn1 Zn 0.22511(3) 0.07972(8) 0.136926(18)
H19 H 0.6016 0.4132 0.2370
O2_2 O 0.2887(2) -0.2982(5) 0.16228(13)
O5A O 0.3117(2) 0.1498(6) 0.04211(12)
Zn1_2 Zn 0.22511(3) 1.07972(8) 0.136926(18)
Zn1A Zn 0.77489(3) 0.57972(8) -0.136926(18)
loop_
_geom_bond_atom_site_label_1
_geom_bond_atom_site_label_2
_geom_bond_site_symmetry_1
_geom_bond_site_symmetry_2
C1 C2 1_555 1_555
C2 H1 1_555 1_555
C3 C2 1_555 1_555
H2 C3 1_555 1_555
C4 C3 1_555 1_555
C5 C4 1_555 1_555
H3 C5 1_555 1_555
C6 C1 1_555 1_555
H4 C6 1_555 1_555
C7 C4 1_555 1_555
H5 C7 1_555 1_555
H6 C7 1_555 1_555
H7 C7 1_555 1_555
H8 O7 1_555 1_555
H9 O7 1_555 1_555
C8 C9 1_555 1_555
C9 H10 1_555 1_555
C10 C9 1_555 1_555
H11 C10 1_555 1_555
H12 C10 1_555 1_555
C11 C10 1_555 1_555
H13 C11 1_555 1_555
H14 C11 1_555 1_555
C12 C11 1_555 1_555
C13 H15 1_555 1_555
C14 H16 1_555 1_555
C15 C14 1_555 1_555
H17 C15 1_555 1_555
N1 C9 1_555 1_555
N2 C13 1_555 1_555
N3 C13 1_555 1_555
H18 N3 1_555 1_555
O1 C8 1_555 1_555
O2 C8 1_555 1_555
O3 S1 1_555 1_555
O4 S1 1_555 1_555
O5 C12 1_555 1_555
O6 C12 1_555 1_555
O7 Zn1 1_555 1_555
S1 C1 1_555 1_555
Zn1 N2 1_555 1_555
H19 N1 1_555 1_555
O2_2 Zn1 1_555 1_555
O5A Zn1 1_555 1_555
Zn1_2 O2 1_555 1_555
Zn1A O5 1_555 1_555
C5 C6 1_555 1_555
C14 N3 1_555 1_555
C15 N2 1_555 1_555
N1 S1 1_555 1_555
O1 Zn1 1_555 1_555

#END
