
#######################################################################
#
#                 Cambridge Crystallographic Data Centre
#                                CCDC 
#
#######################################################################
#
# If this CIF has been generated from an entry in the Cambridge 
# Structural Database, then it will include bibliographic, chemical, 
# crystal, experimental, refinement or atomic coordinate data resulting 
# from the CCDC's data processing and validation procedures.
#
#######################################################################

data_WEXGIR
_symmetry_cell_setting           monoclinic
_symmetry_space_group_name_H-M   'P 21/c'
_symmetry_Int_Tables_number      14
_space_group_name_Hall           '-P 2ybc'
loop_
_symmetry_equiv_pos_site_id
_symmetry_equiv_pos_as_xyz
1 x,y,z
2 -x,1/2+y,1/2-z
3 -x,-y,-z
4 x,1/2-y,1/2+z
_cell_length_a                   12.589(3)
_cell_length_b                   16.004(3)
_cell_length_c                   6.8171(14)
_cell_angle_alpha                90
_cell_angle_beta                 91.153(3)
_cell_angle_gamma                90
_cell_volume                     1373.19
loop_
_atom_site_label
_atom_site_type_symbol
_atom_site_fract_x
_atom_site_fract_y
_atom_site_fract_z
Ba1 Ba 0.680738(11) 0.079270(8) 0.24751(2)
Ba2 Ba 1.0000 0.0000 0.0000
C1 C 0.41895(18) 0.26306(15) -0.0646(3)
C2 C 0.34948(18) 0.19617(15) -0.0885(3)
H1 H 0.3751 0.1419 -0.0749
C3 C 0.24292(19) 0.20885(15) -0.1321(3)
C4 C 0.20500(18) 0.28989(15) -0.1535(3)
H2 H 0.1338 0.2988 -0.1859
C5 C 0.27255(18) 0.35754(14) -0.1269(3)
C6 C 0.37947(19) 0.34402(15) -0.0815(3)
H3 H 0.4248 0.3893 -0.0625
C7 C 0.53423(18) 0.24703(15) -0.0157(3)
C8 C 0.17000(19) 0.13513(15) -0.1451(4)
C9 C 0.22828(19) 0.44475(15) -0.1414(3)
H4 H 0.437(4) -0.015(3) 0.278(8)
H5 H 0.719(3) 0.265(2) 0.139(6)
H6 H 0.800(3) 0.149(3) -0.113(6)
H7 H 0.916(3) 0.119(3) 0.392(6)
H8 H 0.492(4) -0.069(3) 0.180(7)
H9 H 0.825(3) 0.249(2) 0.159(5)
H10 H 0.790(3) 0.081(3) -0.177(7)
H11 H 0.895(4) 0.047(4) 0.439(9)
O1 O 0.59517(14) 0.30885(11) 0.0025(3)
O2 O 0.56220(14) 0.17228(11) 0.0063(3)
O3 O 0.20793(15) 0.06315(11) -0.1394(3)
O4 O 0.07012(14) 0.14875(11) -0.1541(3)
O5 O 0.13168(14) 0.45385(11) -0.1799(3)
O6 O 0.29160(14) 0.50561(10) -0.1121(3)
O7 O 0.49566(19) -0.02335(16) 0.2319(4)
O8 O 0.76828(16) 0.24443(12) 0.2155(3)
O9 O 0.80926(17) 0.10336(15) -0.0872(3)
O10 O 0.89843(17) 0.07566(16) 0.3549(4)
Ba1B Ba 0.319262(11) -0.079270(8) -0.24751(2)
C1B C 0.58105(18) -0.26306(15) 0.0646(3)
C2B C 0.65052(18) -0.19617(15) 0.0885(3)
H1B H 0.6249 -0.1419 0.0749
C3B C 0.75708(19) -0.20885(15) 0.1321(3)
C4B C 0.79500(18) -0.28989(15) 0.1535(3)
H2B H 0.8662 -0.2988 0.1859
C5B C 0.72745(18) -0.35754(14) 0.1269(3)
C6B C 0.62053(19) -0.34402(15) 0.0815(3)
H3B H 0.5752 -0.3893 0.0625
C7B C 0.46577(18) -0.24703(15) 0.0157(3)
C8B C 0.83000(19) -0.13513(15) 0.1451(4)
C9B C 0.77172(19) -0.44475(15) 0.1414(3)
H4B H 0.563(4) 0.015(3) -0.278(8)
H5B H 0.281(3) -0.265(2) -0.139(6)
H6B H 0.200(3) -0.149(3) 0.113(6)
H7B H 0.084(3) -0.119(3) -0.392(6)
H8B H 0.508(4) 0.069(3) -0.180(7)
H9B H 0.175(3) -0.249(2) -0.159(5)
H10B H 0.210(3) -0.081(3) 0.177(7)
H11B H 0.105(4) -0.047(4) -0.439(9)
O1B O 0.40483(14) -0.30885(11) -0.0025(3)
O2B O 0.43780(14) -0.17228(11) -0.0063(3)
O3B O 0.79207(15) -0.06315(11) 0.1394(3)
O4B O 0.92988(14) -0.14875(11) 0.1541(3)
O5B O 0.86832(14) -0.45385(11) 0.1799(3)
O6B O 0.70840(14) -0.50561(10) 0.1121(3)
O7B O 0.50434(19) 0.02335(16) -0.2319(4)
O8B O 0.23172(16) -0.24443(12) -0.2155(3)
O9B O 0.19074(17) -0.10336(15) 0.0872(3)
O10B O 0.10157(17) -0.07566(16) -0.3549(4)
Ba1A Ba 0.319262(11) -0.420730(8) 0.25249(2)
Ba1A_2 Ba 0.319262(11) 0.579270(8) 0.25249(2)
Ba1C Ba 0.680738(11) -0.579270(8) -0.25249(2)
Ba1C_2 Ba 0.680738(11) 0.420730(8) -0.25249(2)
Ba2_2 Ba 0.0000 0.0000 0.0000
Ba2A Ba 0.0000 0.5000 -0.5000
Ba2A_2 Ba 1.0000 -0.5000 0.5000
O1A O 0.40483(14) -0.19115(11) -0.5025(3)
O1C O 0.59517(14) 0.19115(11) 0.5025(3)
O3_2 O 1.20793(15) 0.06315(11) -0.1394(3)
O4_2 O 1.07012(14) 0.14875(11) -0.1541(3)
O5A O 0.86832(14) -0.04615(11) -0.3201(3)
O5C O 1.13168(14) 0.04615(11) 0.3201(3)
O6A O 0.70840(14) 0.00561(10) 0.6121(3)
O6C O 0.29160(14) -0.00561(10) -0.6121(3)
O9B_2 O 1.19074(17) -0.10336(15) 0.0872(3)
O10B_2 O 1.10157(17) -0.07566(16) -0.3549(4)
H12 H 0.004(3) 0.798(3) 0.367(6)
H13 H -0.001(3) 0.742(2) 0.503(5)
O11 O 0.03792(17) 0.77455(15) 0.4579(3)
loop_
_geom_bond_atom_site_label_1
_geom_bond_atom_site_label_2
_geom_bond_site_symmetry_1
_geom_bond_site_symmetry_2
Ba1 O2 1_555 1_555
Ba2 O9 1_555 1_555
C1 C2 1_555 1_555
C2 H1 1_555 1_555
C3 C2 1_555 1_555
C4 C3 1_555 1_555
H2 C4 1_555 1_555
C5 C4 1_555 1_555
C6 C1 1_555 1_555
H3 C6 1_555 1_555
C7 C1 1_555 1_555
C8 C3 1_555 1_555
C9 C5 1_555 1_555
H4 O7 1_555 1_555
H5 O8 1_555 1_555
H6 O9 1_555 1_555
H7 O10 1_555 1_555
H8 O7 1_555 1_555
H9 O8 1_555 1_555
H10 O9 1_555 1_555
H11 O10 1_555 1_555
O1 C7 1_555 1_555
O2 C7 1_555 1_555
O3 C8 1_555 1_555
O4 C8 1_555 1_555
O5 C9 1_555 1_555
O6 C9 1_555 1_555
O7 Ba1 1_555 1_555
O8 Ba1 1_555 1_555
O9 Ba1 1_555 1_555
O10 Ba1 1_555 1_555
H12 O11 1_555 1_555
H13 O11 1_555 1_555
Ba1B O3 1_555 1_555
C1B C2B 1_555 1_555
C2B H1B 1_555 1_555
C3B C2B 1_555 1_555
C4B C3B 1_555 1_555
H2B C4B 1_555 1_555
C5B C4B 1_555 1_555
C6B C1B 1_555 1_555
H3B C6B 1_555 1_555
C7B C1B 1_555 1_555
C8B C3B 1_555 1_555
C9B C5B 1_555 1_555
H4B O7B 1_555 1_555
H5B O8B 1_555 1_555
H6B O9B 1_555 1_555
H7B O10B 1_555 1_555
H8B O7B 1_555 1_555
H9B O8B 1_555 1_555
H10B O9B 1_555 1_555
H11B O10B 1_555 1_555
O1B C7B 1_555 1_555
O2B Ba1B 1_555 1_555
O3B Ba1 1_555 1_555
O4B Ba2 1_555 1_555
O5B C9B 1_555 1_555
O6B C9B 1_555 1_555
O7B Ba1B 1_555 1_555
O8B Ba1B 1_555 1_555
O9B Ba1B 1_555 1_555
O10B Ba1B 1_555 1_555
Ba1A O1B 1_555 1_555
Ba1A_2 O6 1_555 1_555
Ba1C O6B 1_555 1_555
Ba1C_2 O1 1_555 1_555
Ba2_2 O3 1_555 1_555
Ba2A O5 1_555 1_555
Ba2A_2 O5B 1_555 1_555
O1A Ba1B 1_555 1_555
O1C Ba1 1_555 1_555
O3_2 Ba2 1_555 1_555
O4_2 Ba2 1_555 1_555
O5A Ba2 1_555 1_555
O5C Ba2 1_555 1_555
O6A Ba1 1_555 1_555
O6C Ba1B 1_555 1_555
O9B_2 Ba2 1_555 1_555
O10B_2 Ba2 1_555 1_555
Ba2 O10 1_555 1_555
Ba2 O3B 1_555 1_555
C5 C6 1_555 1_555
O4 Ba2_2 1_555 1_555
C5B C6B 1_555 1_555
C7B O2B 1_555 1_555
C8B O3B 1_555 1_555
C8B O4B 1_555 1_555
O9B Ba2_2 1_555 1_555
O10B Ba2_2 1_555 1_555

#END
