
#######################################################################
#
#                 Cambridge Crystallographic Data Centre
#                                CCDC 
#
#######################################################################
#
# If this CIF has been generated from an entry in the Cambridge 
# Structural Database, then it will include bibliographic, chemical, 
# crystal, experimental, refinement or atomic coordinate data resulting 
# from the CCDC's data processing and validation procedures.
#
#######################################################################

data_WEXNIW
_symmetry_cell_setting           triclinic
_symmetry_space_group_name_H-M   'P -1'
_symmetry_Int_Tables_number      2
_space_group_name_Hall           '-P 1'
loop_
_symmetry_equiv_pos_site_id
_symmetry_equiv_pos_as_xyz
1 x,y,z
2 -x,-y,-z
_cell_length_a                   7.7969(6)
_cell_length_b                   8.5017(7)
_cell_length_c                   9.0179(7)
_cell_angle_alpha                101.331(7)
_cell_angle_beta                 68.372(7)
_cell_angle_gamma                96.366(7)
_cell_volume                     544.367
loop_
_atom_site_label
_atom_site_type_symbol
_atom_site_fract_x
_atom_site_fract_y
_atom_site_fract_z
Ba1 Ba -0.40382(3) 0.85107(3) 0.72817(3)
V1 V 0.03304(9) 0.31852(8) 0.11755(8)
O1 O -0.1278(5) 0.6770(5) 0.4941(4)
O2 O 0.3593(4) 0.8807(4) 0.0546(4)
O3 O -0.1162(4) 0.4433(4) 0.3291(4)
O4 O 0.2077(4) 0.7837(4) -0.1112(4)
O5 O 0.1881(4) 0.5120(4) 0.1092(4)
O6 O -0.0923(4) 0.7115(4) 0.1115(4)
O7 O -0.1347(5) 0.8156(4) 0.8435(5)
O8 O -0.1907(6) 1.0555(5) 0.5039(5)
O9 O -0.5440(5) 0.6766(4) 0.4897(4)
O10 O -0.6186(5) 1.0851(5) 0.7077(5)
O11 O -0.4962(5) 0.5407(4) 0.8150(4)
C1 C -0.0561(6) 0.5882(5) 0.3658(5)
C2 C 0.1144(5) 0.6418(5) 0.2333(5)
C3 C 0.0511(5) 0.7709(5) 0.1669(5)
C4 C 0.2178(5) 0.8199(4) 0.0303(5)
H1 H 0.2001(74) 0.6830(66) 0.2827(67)
H2 H 0.0189(80) 0.8610(66) 0.2752(66)
H3 H -0.204(11) 1.0005(80) 0.3965(66)
H4 H -0.130(11) 1.1656(59) 0.523(11)
H5 H -0.433(11) 0.6104(67) 0.3898(60)
H6 H -0.6751(44) 0.628(11) 0.519(12)
H7 H -0.7060(97) 1.1533(82) 0.8044(64)
H8 H -0.5181(88) 1.1660(86) 0.660(10)
H9 H -0.4131(99) 0.511(10) 0.8678(99)
H10 H -0.6036(78) 0.522(10) 0.9150(59)
O2_2 O -0.6407(4) 0.8807(4) 1.0546(4)
O2A O -0.3593(4) 1.1193(4) 0.9454(4)
O4_2 O -0.7923(4) 0.7837(4) 0.8888(4)
O4A O -0.2077(4) 0.2163(4) 0.1112(4)
O6A O 0.0923(4) 0.2885(4) -0.1115(4)
O7A O 0.1347(5) 0.1844(4) 0.1565(5)
Ba1_2 Ba 0.59618(3) 0.85107(3) -0.27183(3)
Ba1A Ba 0.40382(3) 1.14893(3) 0.27183(3)
V1A V -0.03304(9) 0.68148(8) -0.11755(8)
V1A_2 V -0.03304(9) 0.68148(8) 0.88245(8)
loop_
_geom_bond_atom_site_label_1
_geom_bond_atom_site_label_2
_geom_bond_site_symmetry_1
_geom_bond_site_symmetry_2
Ba1 O1 1_555 1_555
V1 O3 1_555 1_555
O1 C1 1_555 1_555
O2 C4 1_555 1_555
O3 C1 1_555 1_555
O4 C4 1_555 1_555
O5 V1 1_555 1_555
O6 C3 1_555 1_555
O7 Ba1 1_555 1_555
O8 Ba1 1_555 1_555
O9 Ba1 1_555 1_555
O10 Ba1 1_555 1_555
O11 Ba1 1_555 1_555
C1 C2 1_555 1_555
C2 O5 1_555 1_555
C3 C2 1_555 1_555
C4 C3 1_555 1_555
H1 C2 1_555 1_555
H2 C3 1_555 1_555
H3 O8 1_555 1_555
H4 O8 1_555 1_555
H5 O9 1_555 1_555
H6 O9 1_555 1_555
H7 O10 1_555 1_555
H8 O10 1_555 1_555
H9 O11 1_555 1_555
H10 O11 1_555 1_555
O2_2 Ba1 1_555 1_555
O2A Ba1 1_555 1_555
O4_2 Ba1 1_555 1_555
O4A V1 1_555 1_555
O6A V1 1_555 1_555
O7A V1 1_555 1_555
Ba1_2 O2 1_555 1_555
Ba1A O2 1_555 1_555
V1A O4 1_555 1_555
V1A_2 O7 1_555 1_555
O4 Ba1_2 1_555 1_555
O6 V1A 1_555 1_555

#END
