
#######################################################################
#
#                 Cambridge Crystallographic Data Centre
#                                CCDC 
#
#######################################################################
#
# If this CIF has been generated from an entry in the Cambridge 
# Structural Database, then it will include bibliographic, chemical, 
# crystal, experimental, refinement or atomic coordinate data resulting 
# from the CCDC's data processing and validation procedures.
#
#######################################################################

data_WEXQUM
_symmetry_cell_setting           orthorhombic
_symmetry_space_group_name_H-M   'P b c a'
_symmetry_Int_Tables_number      61
_space_group_name_Hall           '-P 2ac 2ab'
loop_
_symmetry_equiv_pos_site_id
_symmetry_equiv_pos_as_xyz
1 x,y,z
2 1/2-x,-y,1/2+z
3 -x,1/2+y,1/2-z
4 1/2+x,1/2-y,-z
5 -x,-y,-z
6 1/2+x,y,1/2-z
7 x,1/2-y,1/2+z
8 1/2-x,1/2+y,z
_cell_length_a                   10.0874(5)
_cell_length_b                   16.6910(8)
_cell_length_c                   19.8593(11)
_cell_angle_alpha                90
_cell_angle_beta                 90
_cell_angle_gamma                90
_cell_volume                     3343.69
loop_
_atom_site_label
_atom_site_type_symbol
_atom_site_fract_x
_atom_site_fract_y
_atom_site_fract_z
Co1 Co 0.41040(3) 0.186314(19) 0.420981(16)
C1 C 0.5248(3) 0.09764(15) 0.28904(13)
C2 C 0.6196(3) 0.04290(17) 0.31170(15)
H1 H 0.6372 0.0361 0.3573
C3 C 0.6858(3) -0.00052(19) 0.26319(17)
H2 H 0.7498 -0.0373 0.2767
C4 C 0.6603(4) 0.0088(2) 0.19453(18)
H3 H 0.7083 -0.0213 0.1636
C5 C 0.5667(3) 0.0611(2) 0.17170(17)
H4 H 0.5486 0.0667 0.1260
C6 C 0.4997(3) 0.10552(16) 0.21976(14)
C7 C 0.3695(3) 0.18607(14) 0.27736(13)
C8 C 0.2663(3) 0.24278(15) 0.29650(13)
C9 C 0.1847(3) 0.28336(17) 0.25251(15)
H5 H 0.1949 0.2775 0.2062
C10 C 0.0877(3) 0.33283(19) 0.27829(19)
H6 H 0.0319 0.3611 0.2496
C11 C 0.0745(3) 0.33982(19) 0.34743(18)
H7 H 0.0089 0.3721 0.3660
C12 C 0.1607(3) 0.29780(17) 0.38806(15)
H8 H 0.1516 0.3022 0.4345
C13 C 0.5219(3) 0.33756(14) 0.44895(13)
C14 C 0.5138(2) 0.42100(13) 0.47781(11)
C15 C 0.3896(2) 0.45570(13) 0.48421(12)
H9 H 0.3148 0.4256 0.4738
C16 C 0.6261(2) 0.46578(13) 0.49418(12)
C17 C 0.7621(2) 0.42927(14) 0.49864(14)
N1 N 0.2568(2) 0.25104(13) 0.36358(11)
N2 N 0.4423(2) 0.14945(12) 0.32389(11)
N3 N 0.4004(2) 0.16234(14) 0.21453(11)
H10 H 0.3649 0.1794 0.1778
O1 O 0.5673(3) 0.12724(14) 0.46572(13)
H11 H 0.557(4) 0.083(3) 0.482(2)
H12 H 0.636(7) 0.129(4) 0.451(4)
O2 O 0.4393(2) 0.28756(10) 0.47347(10)
O3 O 0.5984(2) 0.32256(12) 0.40243(11)
O5 O 0.8596(2) 0.46693(13) 0.47888(16)
O6 O 0.76422(18) 0.36060(10) 0.52588(10)
Co1D Co 0.58960(3) 0.813686(19) 0.579019(16)
Co1C Co 0.91040(3) 0.313686(19) 0.579019(16)
Co1G Co 0.08960(3) 0.686314(19) 0.420981(16)
C1D C 0.4752(3) 0.90236(15) 0.71096(13)
C2D C 0.3804(3) 0.95710(17) 0.68830(15)
H1D H 0.3628 0.9639 0.6427
C3D C 0.3142(3) 1.00052(19) 0.73681(17)
H2D H 0.2502 1.0373 0.7233
C4D C 0.3397(4) 0.9912(2) 0.80547(18)
H3D H 0.2917 1.0213 0.8364
C5D C 0.4333(3) 0.9389(2) 0.82830(17)
H4D H 0.4514 0.9333 0.8740
C6D C 0.5003(3) 0.89448(16) 0.78024(14)
C7D C 0.6305(3) 0.81393(14) 0.72264(13)
C8D C 0.7337(3) 0.75722(15) 0.70350(13)
C9D C 0.8153(3) 0.71664(17) 0.74749(15)
H5D H 0.8051 0.7225 0.7938
C10D C 0.9123(3) 0.66717(19) 0.72171(19)
H6D H 0.9681 0.6389 0.7504
C11D C 0.9255(3) 0.66018(19) 0.65257(18)
H7D H 0.9911 0.6279 0.6340
C12D C 0.8393(3) 0.70220(17) 0.61194(15)
H8D H 0.8484 0.6978 0.5655
C13D C 0.4781(3) 0.66244(14) 0.55105(13)
C14D C 0.4862(2) 0.57900(13) 0.52219(11)
C15D C 0.6104(2) 0.54430(13) 0.51579(12)
H9D H 0.6852 0.5744 0.5262
C16D C 0.3739(2) 0.53422(13) 0.50582(12)
C17D C 0.2379(2) 0.57073(14) 0.50136(14)
N1D N 0.7432(2) 0.74896(13) 0.63642(11)
N2D N 0.5577(2) 0.85055(12) 0.67611(11)
N3D N 0.5996(2) 0.83766(14) 0.78547(11)
H10D H 0.6351 0.8206 0.8222
O1D O 0.4327(3) 0.87276(14) 0.53428(13)
H11D H 0.443(4) 0.917(3) 0.518(2)
H12D H 0.364(7) 0.871(4) 0.549(4)
O2D O 0.5607(2) 0.71244(10) 0.52653(10)
O3D O 0.4016(2) 0.67744(12) 0.59757(11)
O5D O 0.1404(2) 0.53307(13) 0.52112(16)
O6D O 0.23578(18) 0.63940(10) 0.47412(10)
O6C O 0.26422(18) 0.13940(10) 0.47412(10)
O6G O 0.73578(18) 0.86060(10) 0.52588(10)
O4 O 0.2929(3) 0.29415(16) 0.59022(12)
H13 H 0.249(4) 0.259(2) 0.5896(18)
H14 H 0.336(5) 0.292(3) 0.559(2)
loop_
_geom_bond_atom_site_label_1
_geom_bond_atom_site_label_2
_geom_bond_site_symmetry_1
_geom_bond_site_symmetry_2
Co1 N1 1_555 1_555
C1 C2 1_555 1_555
C2 H1 1_555 1_555
C3 C2 1_555 1_555
H2 C3 1_555 1_555
C4 C3 1_555 1_555
H3 C4 1_555 1_555
C5 C4 1_555 1_555
H4 C5 1_555 1_555
C6 C1 1_555 1_555
C7 C8 1_555 1_555
C8 C9 1_555 1_555
C9 H5 1_555 1_555
C10 C9 1_555 1_555
H6 C10 1_555 1_555
C11 C10 1_555 1_555
H7 C11 1_555 1_555
C12 C11 1_555 1_555
H8 C12 1_555 1_555
C13 C14 1_555 1_555
C14 C15 1_555 1_555
C15 H9 1_555 1_555
C16 C14 1_555 1_555
C17 C16 1_555 1_555
N1 C8 1_555 1_555
N2 Co1 1_555 1_555
N3 C6 1_555 1_555
H10 N3 1_555 1_555
O1 Co1 1_555 1_555
H11 O1 1_555 1_555
H12 O1 1_555 1_555
O2 Co1 1_555 1_555
O3 C13 1_555 1_555
O4 H13 1_555 1_555
H14 O4 1_555 1_555
O5 C17 1_555 1_555
O6 C17 1_555 1_555
Co1D N1D 1_555 1_555
Co1C O6 1_555 1_555
Co1G O6D 1_555 1_555
C1D C2D 1_555 1_555
C2D H1D 1_555 1_555
C3D C2D 1_555 1_555
H2D C3D 1_555 1_555
C4D C3D 1_555 1_555
H3D C4D 1_555 1_555
C5D C4D 1_555 1_555
H4D C5D 1_555 1_555
C6D C1D 1_555 1_555
C7D C8D 1_555 1_555
C8D C9D 1_555 1_555
C9D H5D 1_555 1_555
C10D C9D 1_555 1_555
H6D C10D 1_555 1_555
C11D C10D 1_555 1_555
H7D C11D 1_555 1_555
C12D C11D 1_555 1_555
H8D C12D 1_555 1_555
C13D C14D 1_555 1_555
C14D C15D 1_555 1_555
C15D C16 1_555 1_555
H9D C15D 1_555 1_555
C16D C15 1_555 1_555
C17D C16D 1_555 1_555
N1D C8D 1_555 1_555
N2D Co1D 1_555 1_555
N3D C6D 1_555 1_555
H10D N3D 1_555 1_555
O1D Co1D 1_555 1_555
H11D O1D 1_555 1_555
H12D O1D 1_555 1_555
O2D Co1D 1_555 1_555
O3D C13D 1_555 1_555
O5D C17D 1_555 1_555
O6D C17D 1_555 1_555
O6C Co1 1_555 1_555
O6G Co1D 1_555 1_555
C1 N2 1_555 1_555
C5 C6 1_555 1_555
C7 N2 1_555 1_555
C7 N3 1_555 1_555
C12 N1 1_555 1_555
C13 O2 1_555 1_555
C1D N2D 1_555 1_555
C5D C6D 1_555 1_555
C7D N2D 1_555 1_555
C7D N3D 1_555 1_555
C12D N1D 1_555 1_555
C13D O2D 1_555 1_555
C14D C16D 1_555 1_555

#END
