
#######################################################################
#
#                 Cambridge Crystallographic Data Centre
#                                CCDC 
#
#######################################################################
#
# If this CIF has been generated from an entry in the Cambridge 
# Structural Database, then it will include bibliographic, chemical, 
# crystal, experimental, refinement or atomic coordinate data resulting 
# from the CCDC's data processing and validation procedures.
#
#######################################################################

data_WEXRUO
_symmetry_cell_setting           monoclinic
_symmetry_space_group_name_H-M   'P 21/m'
_symmetry_Int_Tables_number      11
_space_group_name_Hall           '-P 2yb'
loop_
_symmetry_equiv_pos_site_id
_symmetry_equiv_pos_as_xyz
1 x,y,z
2 -x,1/2+y,-z
3 -x,-y,-z
4 x,1/2-y,z
_cell_length_a                   13.9922(8)
_cell_length_b                   22.7043(12)
_cell_length_c                   14.7236(8)
_cell_angle_alpha                90
_cell_angle_beta                 108.5190(10)
_cell_angle_gamma                90
_cell_volume                     4435.23
loop_
_atom_site_label
_atom_site_type_symbol
_atom_site_fract_x
_atom_site_fract_y
_atom_site_fract_z
W1 W 0.06119(2) 0.324437(11) 0.289698(19)
W2 W 0.09901(2) 0.324454(11) 0.048975(18)
W3 W 0.50637(3) 0.2500 0.01163(3)
W4 W 0.51531(2) 0.331112(12) 0.481564(19)
W5 W 0.33690(2) 0.405908(11) 0.149058(19)
W6 W 0.55370(2) 0.331708(12) 0.239613(19)
W7 W 0.29860(2) 0.405487(11) 0.389848(19)
W8 W 0.28770(2) 0.324239(11) -0.079156(18)
W9 W 0.40752(3) 0.2500 0.64473(3)
W10 W 0.19011(2) 0.324800(11) 0.552985(18)
P1 P 0.33015(17) 0.2500 0.13889(15)
P2 P 0.29110(17) 0.2500 0.39425(15)
Cu1 Cu 0.22563(7) 0.44922(4) -0.24411(6)
N1 N 0.3512(5) 0.4468(3) -0.2790(4)
O1 O 0.0938(3) 0.3200(2) 0.4278(3)
O2 O 0.0627(3) 0.3158(2) 0.1612(3)
O3 O -0.0067(5) 0.2500 0.2785(4)
O4 O 0.2540(5) 0.2500 -0.1441(4)
O5 O 0.5393(4) 0.3066(2) 0.1112(3)
O6 O 0.4251(3) 0.30882(19) -0.0713(3)
O7 O 0.2745(4) 0.2500 0.4953(4)
O8 O 0.4648(3) 0.3069(2) 0.5825(3)
O9 O 0.5336(3) 0.3433(2) 0.3604(3)
O10 O 0.2607(3) 0.37738(19) 0.4971(3)
O11 O 0.3365(4) 0.4092(2) 0.2773(3)
O12 O 0.1684(3) 0.31880(18) -0.0456(3)
O13 O 0.3348(3) 0.37602(19) 0.0243(3)
O14 O 0.3450(5) 0.2500 0.0363(4)
O15 O 0.1394(5) 0.2500 0.5809(4)
O16 O 0.5756(5) 0.2500 0.2729(4)
O17 O 0.3812(3) 0.30548(18) 0.1904(3)
O18 O 0.1707(4) 0.37722(19) 0.3133(3)
O19 O 0.1863(5) 0.2500 0.3189(4)
O20 O 0.3503(3) 0.30566(18) 0.3881(3)
O21 O 0.2019(3) 0.37735(19) 0.1138(3)
O22 O 0.2156(4) 0.2500 0.1206(4)
O23 O 0.2539(3) 0.37177(19) -0.1752(3)
O24 O 0.3115(3) 0.3083(2) 0.6536(3)
O25 O 0.2758(4) 0.4781(2) 0.3989(4)
O26 O 0.1314(4) 0.3713(2) 0.6099(3)
O27 O -0.0398(4) 0.3702(2) 0.2680(3)
O28 O 0.4372(4) 0.40175(19) 0.4648(3)
O29 O 0.4801(4) 0.40223(19) 0.1909(3)
O30 O 0.6109(5) 0.2500 -0.0247(5)
O31 O 0.0048(4) 0.3700(2) -0.0148(3)
O32 O 0.3179(4) 0.4780(2) 0.1199(4)
O33 O 0.5439(5) 0.2500 0.4709(5)
O34 O 0.6740(4) 0.3567(2) 0.2680(3)
O35 O 0.4902(5) 0.2500 0.7575(5)
O36 O 0.6295(4) 0.3560(2) 0.5539(3)
N2 N 0.1004(5) 0.4590(3) -0.2096(4)
N3 N 0.2779(5) 0.5090(3) -0.1229(5)
N4 N 0.1858(5) 0.5068(3) -0.3526(5)
C1 C 0.3557(6) 0.4872(3) -0.3448(5)
C2 C 0.2611(7) 0.5201(3) -0.3877(5)
C3 C 0.4434(7) 0.4946(4) -0.3683(6)
H1 H 0.4459 0.5228 -0.4134
C4 C 0.1007(7) 0.5019(4) -0.1453(6)
C5 C 0.4325(6) 0.4134(4) -0.2374(6)
H2 H 0.4294 0.3855 -0.1922
C6 C 0.5203(6) 0.4192(4) -0.2596(6)
H3 H 0.5751 0.3951 -0.2300
C7 C 0.2006(7) 0.5321(3) -0.1007(6)
C8 C 0.2495(8) 0.5630(4) -0.4581(6)
H4 H 0.3031 0.5732 -0.4795
C9 C 0.0971(7) 0.5347(4) -0.3877(6)
H5 H 0.0457 0.5262 -0.3623
C10 C 0.5271(7) 0.4602(4) -0.3249(7)
H6 H 0.5864 0.4649 -0.3399
C11 C 0.3689(8) 0.5333(4) -0.0854(6)
H7 H 0.4230 0.5172 -0.1005
O37 O 0.0376(5) 0.2500 0.0028(4)
C12 C 0.1577(9) 0.5901(4) -0.4951(6)
H8 H 0.1480 0.6179 -0.5435
C13 C 0.0799(8) 0.5759(4) -0.4606(7)
H9 H 0.0170 0.5936 -0.4857
C14 C 0.3855(9) 0.5812(4) -0.0255(7)
H10 H 0.4497 0.5973 -0.0007
C15 C 0.0149(7) 0.4300(4) -0.2507(7)
H11 H 0.0151 0.4000 -0.2936
C16 C 0.2122(9) 0.5807(4) -0.0402(8)
H12 H 0.1576 0.5964 -0.0253
C17 C 0.0145(8) 0.5152(4) -0.1234(8)
H13 H 0.0165 0.5437 -0.0775
C18 C -0.0757(9) 0.4862(5) -0.1696(8)
H14 H -0.1351 0.4964 -0.1578
C19 C 0.3067(10) 0.6045(4) -0.0033(8)
H15 H 0.3168 0.6369 0.0372
C20 C -0.0741(8) 0.4425(5) -0.2329(8)
H16 H -0.1324 0.4213 -0.2635
O17C O 0.3812(3) 0.19452(18) 0.1904(3)
O20C O 0.3503(3) 0.19434(18) 0.3881(3)
W1C W 0.06119(2) 0.175563(11) 0.289698(19)
W2C W 0.09901(2) 0.175546(11) 0.048975(18)
W4C W 0.51531(2) 0.168888(12) 0.481564(19)
W5C W 0.33690(2) 0.094092(11) 0.149058(19)
W6C W 0.55370(2) 0.168292(12) 0.239613(19)
W7C W 0.29860(2) 0.094513(11) 0.389848(19)
W8C W 0.28770(2) 0.175761(11) -0.079156(18)
W10C W 0.19011(2) 0.175200(11) 0.552985(18)
Cu1C Cu 0.22563(7) 0.05078(4) -0.24411(6)
N1C N 0.3512(5) 0.0532(3) -0.2790(4)
O1C O 0.0938(3) 0.1800(2) 0.4278(3)
O2C O 0.0627(3) 0.1842(2) 0.1612(3)
O5C O 0.5393(4) 0.1934(2) 0.1112(3)
O6C O 0.4251(3) 0.19118(19) -0.0713(3)
O8C O 0.4648(3) 0.1931(2) 0.5825(3)
O9C O 0.5336(3) 0.1567(2) 0.3604(3)
O10C O 0.2607(3) 0.12262(19) 0.4971(3)
O11C O 0.3365(4) 0.0908(2) 0.2773(3)
O12C O 0.1684(3) 0.18120(18) -0.0456(3)
O13C O 0.3348(3) 0.12398(19) 0.0243(3)
O18C O 0.1707(4) 0.12278(19) 0.3133(3)
O21C O 0.2019(3) 0.12265(19) 0.1138(3)
O23C O 0.2539(3) 0.12823(19) -0.1752(3)
O24C O 0.3115(3) 0.1917(2) 0.6536(3)
O25C O 0.2758(4) 0.0219(2) 0.3989(4)
O26C O 0.1314(4) 0.1287(2) 0.6099(3)
O27C O -0.0398(4) 0.1298(2) 0.2680(3)
O28C O 0.4372(4) 0.09825(19) 0.4648(3)
O29C O 0.4801(4) 0.09777(19) 0.1909(3)
O31C O 0.0048(4) 0.1300(2) -0.0148(3)
O32C O 0.3179(4) 0.0220(2) 0.1199(4)
O34C O 0.6740(4) 0.1433(2) 0.2680(3)
O36C O 0.6295(4) 0.1440(2) 0.5539(3)
N2C N 0.1004(5) 0.0410(3) -0.2096(4)
N3C N 0.2779(5) -0.0090(3) -0.1229(5)
N4C N 0.1858(5) -0.0068(3) -0.3526(5)
C1C C 0.3557(6) 0.0128(3) -0.3448(5)
C2C C 0.2611(7) -0.0201(3) -0.3877(5)
C3C C 0.4434(7) 0.0054(4) -0.3683(6)
H1C H 0.4459 -0.0228 -0.4134
C4C C 0.1007(7) -0.0019(4) -0.1453(6)
C5C C 0.4325(6) 0.0866(4) -0.2374(6)
H2C H 0.4294 0.1145 -0.1922
C6C C 0.5203(6) 0.0808(4) -0.2596(6)
H3C H 0.5751 0.1049 -0.2300
C7C C 0.2006(7) -0.0321(3) -0.1007(6)
C8C C 0.2495(8) -0.0630(4) -0.4581(6)
H4C H 0.3031 -0.0732 -0.4795
C9C C 0.0971(7) -0.0347(4) -0.3877(6)
H5C H 0.0457 -0.0262 -0.3623
C10C C 0.5271(7) 0.0398(4) -0.3249(7)
H6C H 0.5864 0.0351 -0.3399
C11C C 0.3689(8) -0.0333(4) -0.0854(6)
H7C H 0.4230 -0.0172 -0.1005
C12C C 0.1577(9) -0.0901(4) -0.4951(6)
H8C H 0.1480 -0.1179 -0.5435
C13C C 0.0799(8) -0.0759(4) -0.4606(7)
H9C H 0.0170 -0.0936 -0.4857
C14C C 0.3855(9) -0.0812(4) -0.0255(7)
H10C H 0.4497 -0.0973 -0.0007
C15C C 0.0149(7) 0.0700(4) -0.2507(7)
H11C H 0.0151 0.1000 -0.2936
C16C C 0.2122(9) -0.0807(4) -0.0402(8)
H12C H 0.1576 -0.0964 -0.0253
C17C C 0.0145(8) -0.0152(4) -0.1234(8)
H13C H 0.0165 -0.0437 -0.0775
C18C C -0.0757(9) 0.0138(5) -0.1696(8)
H14C H -0.1351 0.0036 -0.1578
C19C C 0.3067(10) -0.1045(4) -0.0033(8)
H15C H 0.3168 -0.1369 0.0372
C20C C -0.0741(8) 0.0575(5) -0.2329(8)
H16C H -0.1324 0.0787 -0.2635
Cu1_2 Cu 0.22563(7) 0.44922(4) 0.75589(6)
Cu1C_2 Cu 0.22563(7) 0.05078(4) 0.75589(6)
O26_2 O 0.1314(4) 0.3713(2) -0.3901(3)
O26C_2 O 0.1314(4) 0.1287(2) -0.3901(3)
N5 N 0.7570(8) 0.2500 0.4290(9)
N6 N 0.9174(8) 0.2500 0.4593(8)
H17 H 0.9751 0.2500 0.4502
C21 C 0.8011(12) 0.2500 0.5267(11)
H18 H 0.7681 0.2500 0.5725
C22 C 0.9006(11) 0.2500 0.5433(10)
H19 H 0.9497 0.2500 0.6032
C23 C 0.8280(13) 0.2500 0.3924(11)
H20 H 0.8184 0.2500 0.3270
O38 O 0.0417(12) 0.2500 0.7548(11)
H21 H 0.0127 0.2175 0.7578
H21C H 0.0127 0.2825 0.7578
H22? H 0.9154 0.2337 0.8926
N7? N 0.6953(12) 0.2500 0.8251(11)
N8? N 0.8546(15) 0.2500 0.8643(15)
C24? C 0.7785(16) 0.2500 0.8970(15)
H23? H 0.7828 0.2500 0.9614
C25? C 0.711(2) 0.2827(14) 0.745(2)
H24? H 0.6630 0.3086 0.7002
C26? C 0.822(2) 0.2839(12) 0.770(2)
H25? H 0.8628 0.3103 0.7447
H26? H 0.0611 0.2722 0.8038
loop_
_geom_bond_atom_site_label_1
_geom_bond_atom_site_label_2
_geom_bond_site_symmetry_1
_geom_bond_site_symmetry_2
W1 O1 1_555 1_555
W2 O2 1_555 1_555
W3 O5 1_555 1_555
W4 O8 1_555 1_555
W5 O11 1_555 1_555
W6 O5 1_555 1_555
W7 O10 1_555 1_555
W8 O4 1_555 1_555
W9 O7 1_555 1_555
W10 O1 1_555 1_555
P1 O14 1_555 1_555
P2 O7 1_555 1_555
Cu1 N1 1_555 1_555
N1 C1 1_555 1_555
O2 W1 1_555 1_555
O3 W1 1_555 1_555
O4 W8C 1_555 1_555
O6 W3 1_555 1_555
O7 W10 1_555 1_555
O8 W9 1_555 1_555
O9 W4 1_555 1_555
O10 W10 1_555 1_555
O11 W7 1_555 1_555
O12 W2 1_555 1_555
O13 W5 1_555 1_555
O14 W3 1_555 1_555
O15 W10 1_555 1_555
O16 W6 1_555 1_555
O17 W5 1_555 1_555
O18 W1 1_555 1_555
O19 W1 1_555 1_555
O20 W4 1_555 1_555
O21 W2 1_555 1_555
O22 W2 1_555 1_555
O23 W8 1_555 1_555
O24 W9 1_555 1_555
O25 W7 1_555 1_555
O26 W10 1_555 1_555
O27 W1 1_555 1_555
O28 W4 1_555 1_555
O29 W5 1_555 1_555
O30 W3 1_555 1_555
O31 W2 1_555 1_555
O32 W5 1_555 1_555
O33 W4 1_555 1_555
O34 W6 1_555 1_555
O35 W9 1_555 1_555
O36 W4 1_555 1_555
N2 Cu1 1_555 1_555
N3 Cu1 1_555 1_555
N4 Cu1 1_555 1_555
C1 C2 1_555 1_555
C2 N4 1_555 1_555
C3 C1 1_555 1_555
H1 C3 1_555 1_555
C4 N2 1_555 1_555
C5 N1 1_555 1_555
H2 C5 1_555 1_555
C6 C5 1_555 1_555
H3 C6 1_555 1_555
C7 N3 1_555 1_555
C8 C2 1_555 1_555
H4 C8 1_555 1_555
C9 N4 1_555 1_555
H5 C9 1_555 1_555
C10 C3 1_555 1_555
H6 C10 1_555 1_555
C11 N3 1_555 1_555
H7 C11 1_555 1_555
O37 W2 1_555 1_555
C12 C8 1_555 1_555
H8 C12 1_555 1_555
C13 C9 1_555 1_555
H9 C13 1_555 1_555
C14 C11 1_555 1_555
H10 C14 1_555 1_555
C15 N2 1_555 1_555
H11 C15 1_555 1_555
C16 C7 1_555 1_555
H12 C16 1_555 1_555
C17 C4 1_555 1_555
H13 C17 1_555 1_555
C18 C17 1_555 1_555
H14 C18 1_555 1_555
C19 C14 1_555 1_555
H15 C19 1_555 1_555
C20 C15 1_555 1_555
H16 C20 1_555 1_555
N5 C21 1_555 1_555
N6 H17 1_555 1_555
C21 H18 1_555 1_555
C22 N6 1_555 1_555
H19 C22 1_555 1_555
C23 N5 1_555 1_555
H20 C23 1_555 1_555
O38 H21 1_555 1_555
O17C P1 1_555 1_555
O20C P2 1_555 1_555
W1C O3 1_555 1_555
W2C O22 1_555 1_555
W4C O33 1_555 1_555
W5C O17C 1_555 1_555
W6C O16 1_555 1_555
W7C O20C 1_555 1_555
W8C O14 1_555 1_555
W10C O7 1_555 1_555
Cu1C N1C 1_555 1_555
N1C C1C 1_555 1_555
O1C W1C 1_555 1_555
O2C W1C 1_555 1_555
O5C W3 1_555 1_555
O6C W3 1_555 1_555
O8C W9 1_555 1_555
O9C W4C 1_555 1_555
O10C W7C 1_555 1_555
O11C W5C 1_555 1_555
O12C W2C 1_555 1_555
O13C W5C 1_555 1_555
O18C W1C 1_555 1_555
O21C W2C 1_555 1_555
O23C W8C 1_555 1_555
O24C W9 1_555 1_555
O25C W7C 1_555 1_555
O26C W10C 1_555 1_555
O27C W1C 1_555 1_555
O28C W4C 1_555 1_555
O29C W5C 1_555 1_555
O31C W2C 1_555 1_555
O32C W5C 1_555 1_555
O34C W6C 1_555 1_555
O36C W4C 1_555 1_555
N2C Cu1C 1_555 1_555
N3C Cu1C 1_555 1_555
N4C Cu1C 1_555 1_555
C1C C2C 1_555 1_555
C2C N4C 1_555 1_555
C3C C1C 1_555 1_555
H1C C3C 1_555 1_555
C4C N2C 1_555 1_555
C5C N1C 1_555 1_555
H2C C5C 1_555 1_555
C6C C5C 1_555 1_555
H3C C6C 1_555 1_555
C7C N3C 1_555 1_555
C8C C2C 1_555 1_555
H4C C8C 1_555 1_555
C9C N4C 1_555 1_555
H5C C9C 1_555 1_555
C10C C3C 1_555 1_555
H6C C10C 1_555 1_555
C11C N3C 1_555 1_555
H7C C11C 1_555 1_555
C12C C8C 1_555 1_555
H8C C12C 1_555 1_555
C13C C9C 1_555 1_555
H9C C13C 1_555 1_555
C14C C11C 1_555 1_555
H10C C14C 1_555 1_555
C15C N2C 1_555 1_555
H11C C15C 1_555 1_555
C16C C7C 1_555 1_555
H12C C16C 1_555 1_555
C17C C4C 1_555 1_555
H13C C17C 1_555 1_555
C18C C17C 1_555 1_555
H14C C18C 1_555 1_555
C19C C14C 1_555 1_555
H15C C19C 1_555 1_555
C20C C15C 1_555 1_555
H16C C20C 1_555 1_555
Cu1_2 O26 1_555 1_555
Cu1C_2 O26C 1_555 1_555
O26_2 Cu1 1_555 1_555
O26C_2 Cu1C 1_555 1_555
H21C O38 1_555 1_555
W5 O21 1_555 1_555
W6 O9 1_555 1_555
W6 O17 1_555 1_555
W6 O29 1_555 1_555
W7 O18 1_555 1_555
W7 O20 1_555 1_555
W7 O28 1_555 1_555
W8 O6 1_555 1_555
W8 O12 1_555 1_555
W8 O13 1_555 1_555
W8 O14 1_555 1_555
W10 O24 1_555 1_555
P1 O17 1_555 1_555
P1 O22 1_555 1_555
P2 O19 1_555 1_555
P2 O20 1_555 1_555
Cu1 O23 1_555 1_555
O15 W10C 1_555 1_555
O19 W1C 1_555 1_555
C4 C7 1_555 1_555
C6 C10 1_555 1_555
O37 W2C 1_555 1_555
C12 C13 1_555 1_555
C16 C19 1_555 1_555
C18 C20 1_555 1_555
N6 C23 1_555 1_555
C21 C22 1_555 1_555
O17C W6C 1_555 1_555
O20C W4C 1_555 1_555
W2C O2C 1_555 1_555
W4C O8C 1_555 1_555
W5C O21C 1_555 1_555
W6C O5C 1_555 1_555
W6C O9C 1_555 1_555
W6C O29C 1_555 1_555
W7C O11C 1_555 1_555
W7C O18C 1_555 1_555
W7C O28C 1_555 1_555
W8C O6C 1_555 1_555
W8C O12C 1_555 1_555
W8C O13C 1_555 1_555
W10C O1C 1_555 1_555
W10C O10C 1_555 1_555
W10C O24C 1_555 1_555
Cu1C O23C 1_555 1_555
C4C C7C 1_555 1_555
C6C C10C 1_555 1_555
C12C C13C 1_555 1_555
C16C C19C 1_555 1_555
C18C C20C 1_555 1_555

#END
