
#######################################################################
#
#                 Cambridge Crystallographic Data Centre
#                                CCDC 
#
#######################################################################
#
# If this CIF has been generated from an entry in the Cambridge 
# Structural Database, then it will include bibliographic, chemical, 
# crystal, experimental, refinement or atomic coordinate data resulting 
# from the CCDC's data processing and validation procedures.
#
#######################################################################

data_WEXRAT
_symmetry_cell_setting           triclinic
_symmetry_space_group_name_H-M   'P -1'
_symmetry_Int_Tables_number      2
_space_group_name_Hall           '-P 1'
loop_
_symmetry_equiv_pos_site_id
_symmetry_equiv_pos_as_xyz
1 x,y,z
2 -x,-y,-z
_cell_length_a                   9.6687(16)
_cell_length_b                   9.9468(19)
_cell_length_c                   10.0967(18)
_cell_angle_alpha                102.424(4)
_cell_angle_beta                 110.463(2)
_cell_angle_gamma                113.544(3)
_cell_volume                     759.538
loop_
_atom_site_label
_atom_site_type_symbol
_atom_site_fract_x
_atom_site_fract_y
_atom_site_fract_z
Co1 Co 0.07562(3) 0.23485(4) 0.92354(3)
C1 C -0.5936(3) 0.3714(3) 0.6294(3)
C2 C -0.2444(4) 0.0653(4) 0.4311(3)
H1 H -0.2541 0.0013 0.3424
C3 C -0.6568(3) 0.4367(3) 0.7127(3)
H2 H -0.6086 0.4690 0.8196
C4 C -0.7931(3) 0.4514(3) 0.6306(3)
H3 H -0.8374 0.4952 0.6832
C5 C -0.8669(3) 0.4020(3) 0.4693(3)
H4 H -0.9585 0.4146 0.4179
C6 C -0.8077(3) 0.3354(3) 0.3849(3)
H5 H -0.8575 0.3017 0.2778
C7 C -0.6690(3) 0.3211(3) 0.4688(3)
C8 C -0.4541(3) 0.2787(3) 0.5537(3)
C9 C -0.3367(3) 0.2199(3) 0.5532(3)
C10 C -0.3536(3) 0.1244(3) 0.4193(3)
H6 H -0.4378 0.1003 0.3223
C11 C -0.1211(3) 0.1028(3) 0.5764(3)
H7 H -0.0495 0.0611 0.5839
C12 C -0.2054(3) 0.2546(3) 0.6941(3)
H8 H -0.1897 0.3219 0.7846
C13 C -0.1667(3) 0.2064(3) 1.0289(2)
C14 C -0.2776(3) -0.1304(3) 1.0101(2)
C15 C -0.3370(3) 0.0992(3) 1.0181(2)
C16 C -0.3897(2) -0.0591(3) 1.0036(2)
C17 C -0.4482(3) 0.1558(3) 1.0144(2)
H9 H -0.4133 0.2608 1.0243
N1 N -0.1003(2) 0.1969(2) 0.7071(2)
N2 N -0.4577(2) 0.3441(2) 0.6807(2)
N3 N -0.5789(2) 0.2612(3) 0.4233(2)
H10 H -0.5982 0.2204 0.3299
O1 O 0.2351(2) 0.4699(2) 1.0110(2)
H11 H 0.183(4) 0.521(4) 0.975(3)
H12 H 0.300(4) 0.524(4) 1.105(4)
O2 O -0.0955(2) 0.1348(2) 0.9882(2)
O3 O -0.1066(2) 0.3536(2) 1.0723(2)
O4 O -0.1700(2) -0.1040(2) 1.14366(17)
O5 O -0.2986(2) -0.2204(2) 0.88900(18)
Co1A Co -1.07562(3) -0.23485(4) 1.07646(3)
Co1A_2 Co -0.07562(3) -0.23485(4) 1.07646(3)
Co1_2 Co -0.92438(3) 0.23485(4) 0.92354(3)
C1A C -0.4064(3) -0.3714(3) 1.3706(3)
C2A C -0.7556(4) -0.0653(4) 1.5689(3)
H1A H -0.7459 -0.0013 1.6576
C3A C -0.3432(3) -0.4367(3) 1.2873(3)
H2A H -0.3914 -0.4690 1.1804
C4A C -0.2069(3) -0.4514(3) 1.3694(3)
H3A H -0.1626 -0.4952 1.3168
C5A C -0.1331(3) -0.4020(3) 1.5307(3)
H4A H -0.0415 -0.4146 1.5821
C6A C -0.1923(3) -0.3354(3) 1.6151(3)
H5A H -0.1425 -0.3017 1.7222
C7A C -0.3310(3) -0.3211(3) 1.5312(3)
C8A C -0.5459(3) -0.2787(3) 1.4463(3)
C9A C -0.6633(3) -0.2199(3) 1.4468(3)
C10A C -0.6464(3) -0.1244(3) 1.5807(3)
H6A H -0.5622 -0.1003 1.6777
C11A C -0.8789(3) -0.1028(3) 1.4236(3)
H7A H -0.9505 -0.0611 1.4161
C12A C -0.7946(3) -0.2546(3) 1.3059(3)
H8A H -0.8103 -0.3219 1.2154
C13A C -0.8333(3) -0.2064(3) 0.9711(2)
C14A C -0.7224(3) 0.1304(3) 0.9899(2)
C15A C -0.6630(3) -0.0992(3) 0.9819(2)
C16A C -0.6103(2) 0.0591(3) 0.9964(2)
C17A C -0.5518(3) -0.1558(3) 0.9856(2)
H9A H -0.5867 -0.2608 0.9757
N1A N -0.8997(2) -0.1969(2) 1.2929(2)
N2A N -0.5423(2) -0.3441(2) 1.3193(2)
N3A N -0.4211(2) -0.2612(3) 1.5767(2)
H10A H -0.4018 -0.2204 1.6701
O1A O -1.2351(2) -0.4699(2) 0.9890(2)
H11A H -1.183(4) -0.521(4) 1.025(3)
H12A H -1.300(4) -0.524(4) 0.895(4)
O2A O -0.9045(2) -0.1348(2) 1.0118(2)
O3A O -0.8934(2) -0.3536(2) 0.9277(2)
O4A O -0.8300(2) 0.1040(2) 0.85634(17)
O4A_2 O 0.1700(2) 0.1040(2) 0.85634(17)
O4_2 O -1.1700(2) -0.1040(2) 1.14366(17)
O5A O -0.7014(2) 0.2204(2) 1.11100(18)
O5A_2 O 0.2986(2) 0.2204(2) 1.11100(18)
O5_2 O -1.2986(2) -0.2204(2) 0.88900(18)
loop_
_geom_bond_atom_site_label_1
_geom_bond_atom_site_label_2
_geom_bond_site_symmetry_1
_geom_bond_site_symmetry_2
Co1 N1 1_555 1_555
C1 C3 1_555 1_555
C2 H1 1_555 1_555
C3 H2 1_555 1_555
C4 C3 1_555 1_555
H3 C4 1_555 1_555
C5 C4 1_555 1_555
H4 C5 1_555 1_555
C6 C5 1_555 1_555
H5 C6 1_555 1_555
C7 C1 1_555 1_555
C8 C9 1_555 1_555
C9 C10 1_555 1_555
C10 C2 1_555 1_555
H6 C10 1_555 1_555
C11 C2 1_555 1_555
H7 C11 1_555 1_555
C12 C9 1_555 1_555
H8 C12 1_555 1_555
C13 C15 1_555 1_555
C14 C16 1_555 1_555
C15 C16 1_555 1_555
C16 C17A 1_555 1_555
C17 C15 1_555 1_555
H9 C17 1_555 1_555
N1 C11 1_555 1_555
N2 C1 1_555 1_555
N3 C7 1_555 1_555
H10 N3 1_555 1_555
O1 Co1 1_555 1_555
H11 O1 1_555 1_555
H12 O1 1_555 1_555
O2 Co1 1_555 1_555
O3 C13 1_555 1_555
O4 C14 1_555 1_555
O5 C14 1_555 1_555
Co1A N1A 1_555 1_555
Co1A_2 O4 1_555 1_555
Co1_2 O4A 1_555 1_555
C1A C3A 1_555 1_555
C2A H1A 1_555 1_555
C3A H2A 1_555 1_555
C4A C3A 1_555 1_555
H3A C4A 1_555 1_555
C5A C4A 1_555 1_555
H4A C5A 1_555 1_555
C6A C5A 1_555 1_555
H5A C6A 1_555 1_555
C7A C1A 1_555 1_555
C8A C9A 1_555 1_555
C9A C10A 1_555 1_555
C10A C2A 1_555 1_555
H6A C10A 1_555 1_555
C11A C2A 1_555 1_555
H7A C11A 1_555 1_555
C12A C9A 1_555 1_555
H8A C12A 1_555 1_555
C13A C15A 1_555 1_555
C14A C16A 1_555 1_555
C15A C16A 1_555 1_555
C16A C17 1_555 1_555
C17A C15A 1_555 1_555
H9A C17A 1_555 1_555
N1A C11A 1_555 1_555
N2A C1A 1_555 1_555
N3A C7A 1_555 1_555
H10A N3A 1_555 1_555
O1A Co1A 1_555 1_555
H11A O1A 1_555 1_555
H12A O1A 1_555 1_555
O2A Co1A 1_555 1_555
O3A C13A 1_555 1_555
O4A C14A 1_555 1_555
O4A_2 Co1 1_555 1_555
O4_2 Co1A 1_555 1_555
O5A Co1_2 1_555 1_555
O5A_2 Co1 1_555 1_555
O5_2 Co1A 1_555 1_555
C6 C7 1_555 1_555
C8 N2 1_555 1_555
C8 N3 1_555 1_555
C12 N1 1_555 1_555
C13 O2 1_555 1_555
O5 Co1A_2 1_555 1_555
C6A C7A 1_555 1_555
C8A N2A 1_555 1_555
C8A N3A 1_555 1_555
C12A N1A 1_555 1_555
C13A O2A 1_555 1_555
C14A O5A 1_555 1_555

#END
