
#######################################################################
#
#                 Cambridge Crystallographic Data Centre
#                                CCDC 
#
#######################################################################
#
# If this CIF has been generated from an entry in the Cambridge 
# Structural Database, then it will include bibliographic, chemical, 
# crystal, experimental, refinement or atomic coordinate data resulting 
# from the CCDC's data processing and validation procedures.
#
#######################################################################

data_WEXRAS
_symmetry_cell_setting           tetragonal
_symmetry_space_group_name_H-M   'P 43 21 2'
_symmetry_Int_Tables_number      96
_space_group_name_Hall           'P 4nw 2abw'
loop_
_symmetry_equiv_pos_site_id
_symmetry_equiv_pos_as_xyz
1 x,y,z
2 1/2-y,1/2+x,3/4+z
3 -x,-y,1/2+z
4 1/2+y,1/2-x,1/4+z
5 y,x,-z
6 1/2+x,1/2-y,1/4-z
7 -y,-x,1/2-z
8 1/2-x,1/2+y,3/4-z
_cell_length_a                   14.364(1)
_cell_length_b                   14.364(1)
_cell_length_c                   37.611(5)
_cell_angle_alpha                90
_cell_angle_beta                 90
_cell_angle_gamma                90
_cell_volume                     7760.07
loop_
_atom_site_label
_atom_site_type_symbol
_atom_site_fract_x
_atom_site_fract_y
_atom_site_fract_z
Co1 Co 0.7775(2) 0.7467(3) 0.1229(1)
O1 O 0.7815(14) 0.6441(14) 0.0847(5)
O2 O 0.7730(22) 0.6339(16) 0.1545(6)
C1 C 0.7702(40) 0.5650(31) 0.1008(12)
C2 C 0.7700(27) 0.5629(22) 0.1382(10)
C3 C 0.7523(37) 0.4671(30) 0.1529(9)
C4 C 0.7615(22) 0.3910(17) 0.1330(8)
C5 C 0.7643(28) 0.3990(24) 0.0962(8)
C6 C 0.7707(21) 0.4811(22) 0.0773(7)
C7 C 0.7529(30) 0.4663(22) 0.1949(8)
C8 C 0.6635(26) 0.5134(30) 0.2093(9)
C9 C 0.8373(29) 0.4979(32) 0.2110(9)
C10 C 0.7338(26) 0.3583(17) 0.2074(7)
C11 C 0.7812(21) 0.4905(20) 0.0365(7)
C12 C 0.7013(24) 0.5440(22) 0.0212(9)
C13 C 0.7778(23) 0.3924(18) 0.0189(7)
C14 C 0.8699(27) 0.5307(28) 0.0279(9)
O3 O 0.7799(14) 0.8617(12) 0.0923(4)
O4 O 0.7668(18) 0.8431(13) 0.1603(5)
C15 C 0.7774(24) 0.9389(19) 0.1098(9)
C16 C 0.7681(25) 0.9318(20) 0.1494(7)
C17 C 0.7616(23) 1.0042(18) 0.1684(7)
C18 C 0.7665(31) 1.0920(26) 0.1528(9)
C19 C 0.7700(30) 1.1010(23) 0.1138(10)
C20 C 0.7762(19) 1.0313(20) 0.0928(6)
C21 C 0.7485(33) 1.0039(20) 0.2106(7)
C22 C 0.8419(27) 0.9610(29) 0.2263(9)
C23 C 0.6782(26) 0.9393(27) 0.2213(10)
C24 C 0.7384(31) 1.0966(20) 0.2278(8)
C25 C 0.7831(20) 1.0380(21) 0.0530(8)
C26 C 0.7031(25) 0.9846(28) 0.0346(8)
C27 C 0.8755(26) 0.9946(25) 0.0396(9)
C28 C 0.7849(20) 1.1409(17) 0.0402(7)
N1 N 0.9261(12) 0.7524(23) 0.1262(8)
N2 N 1.1209(12) 0.7552(21) 0.1277(7)
C29 C 0.9834(25) 0.7653(31) 0.0977(9)
C30 C 1.0762(25) 0.7573(31) 0.0969(9)
C31 C 0.9730(26) 0.7467(34) 0.1572(9)
C32 C 1.0730(20) 0.7453(24) 0.1568(7)
H1 H 0.7623 0.3311 0.1444
H2 H 0.7660 0.3421 0.0829
H3 H 0.6650 0.5786 0.2038
H4 H 0.6100 0.4854 0.1984
H5 H 0.6602 0.5053 0.2346
H6 H 0.8529 0.5606 0.2045
H7 H 0.8359 0.4925 0.2365
H8 H 0.8832 0.4561 0.2016
H9 H 0.7849 0.3196 0.2001
H10 H 0.7276 0.3560 0.2328
H11 H 0.6774 0.3362 0.1965
H12 H 0.7066 0.5488 -0.0042
H13 H 0.6437 0.5139 0.0272
H14 H 0.7024 0.6052 0.0315
H15 H 0.8282 0.3547 0.0276
H16 H 0.7196 0.3645 0.0255
H17 H 0.7815 0.3968 -0.0065
H18 H 0.9179 0.4919 0.0377
H19 H 0.8773 0.5345 0.0026
H20 H 0.8742 0.5919 0.0380
H21 H 0.7629 1.1464 0.1676
H22 H 0.7729 1.1624 0.1038
H23 H 0.8350 0.9621 0.2517
H24 H 0.8479 0.8977 0.2184
H25 H 0.8964 0.9954 0.2197
H26 H 0.6703 0.9308 0.2464
H27 H 0.6223 0.9651 0.2113
H28 H 0.6910 0.8804 0.2103
H29 H 0.7389 1.0919 0.2533
H30 H 0.7838 1.1417 0.2204
H31 H 0.6778 1.1158 0.2200
H32 H 0.7090 0.9888 0.0092
H33 H 0.7041 0.9203 0.0416
H34 H 0.6453 1.0123 0.0418
H35 H 0.8814 0.9969 0.0142
H36 H 0.9261 1.0282 0.0503
H37 H 0.8770 0.9310 0.0474
H38 H 0.7891 1.1449 0.0148
H39 H 0.7287 1.1706 0.0481
H40 H 0.8376 1.1714 0.0507
H41 H 0.9519 0.7726 0.0753
H42 H 1.1110 0.7626 0.0752
H43 H 0.9373 0.7399 0.1767
H44 H 1.1040 0.7422 0.1794
N2E N 0.6209(12) 0.7448(21) 0.1223(7)
Co1E Co 1.2775(2) 0.7533(3) 0.1271(1)
C33 C 0.0203(25) 0.4732(27) 0.1271(8)
C34 C 0.0152(29) 0.3864(30) 0.1107(9)
C35 C 0.0207(35) 0.2893(36) 0.1435(12)
C36 C 0.0133(26) 0.1914(25) 0.1260(10)
C37 C 0.0134(29) 0.1465(27) 0.1575(10)
C38 C 0.0133(28) 0.0295(28) 0.1487(9)
H45 H 0.0154 0.5237 0.1105
H46 H -0.0304 0.4762 0.1437
H47 H 0.0782 0.4779 0.1398
H48 H 0.0653 0.3840 0.0939
H49 H -0.0423 0.3822 0.0978
H50 H 0.0657 0.1710 0.1121
H51 H -0.0434 0.1820 0.1129
H52 H -0.0419 0.1635 0.1703
H53 H 0.0672 0.1629 0.1713
H54 H 0.0117 -0.0074 0.1700
H55 H -0.0405 0.0158 0.1344
H56 H 0.0686 0.0152 0.1355
H57? H 0.0420 0.2646 0.1260
loop_
_geom_bond_atom_site_label_1
_geom_bond_atom_site_label_2
_geom_bond_site_symmetry_1
_geom_bond_site_symmetry_2
Co1 O1 1_555 1_555
O1 C1 1_555 1_555
O2 Co1 1_555 1_555
C1 C2 1_555 1_555
C2 O2 1_555 1_555
C3 C2 1_555 1_555
C4 C3 1_555 1_555
C5 C4 1_555 1_555
C6 C1 1_555 1_555
C7 C3 1_555 1_555
C8 C7 1_555 1_555
C9 C7 1_555 1_555
C10 C7 1_555 1_555
C11 C6 1_555 1_555
C12 C11 1_555 1_555
C13 C11 1_555 1_555
C14 C11 1_555 1_555
O3 Co1 1_555 1_555
O4 Co1 1_555 1_555
C15 O3 1_555 1_555
C16 O4 1_555 1_555
C17 C16 1_555 1_555
C18 C17 1_555 1_555
C19 C18 1_555 1_555
C20 C15 1_555 1_555
C21 C17 1_555 1_555
C22 C21 1_555 1_555
C23 C21 1_555 1_555
C24 C21 1_555 1_555
C25 C20 1_555 1_555
C26 C25 1_555 1_555
C27 C25 1_555 1_555
C28 C25 1_555 1_555
N1 Co1 1_555 1_555
N2 C30 1_555 1_555
C29 N1 1_555 1_555
C30 C29 1_555 1_555
C31 N1 1_555 1_555
C32 N2 1_555 1_555
H1 C4 1_555 1_555
H2 C5 1_555 1_555
H3 C8 1_555 1_555
H4 C8 1_555 1_555
H5 C8 1_555 1_555
H6 C9 1_555 1_555
H7 C9 1_555 1_555
H8 C9 1_555 1_555
H9 C10 1_555 1_555
H10 C10 1_555 1_555
H11 C10 1_555 1_555
H12 C12 1_555 1_555
H13 C12 1_555 1_555
H14 C12 1_555 1_555
H15 C13 1_555 1_555
H16 C13 1_555 1_555
H17 C13 1_555 1_555
H18 C14 1_555 1_555
H19 C14 1_555 1_555
H20 C14 1_555 1_555
H21 C18 1_555 1_555
H22 C19 1_555 1_555
H23 C22 1_555 1_555
H24 C22 1_555 1_555
H25 C22 1_555 1_555
H26 C23 1_555 1_555
H27 C23 1_555 1_555
H28 C23 1_555 1_555
H29 C24 1_555 1_555
H30 C24 1_555 1_555
H31 C24 1_555 1_555
H32 C26 1_555 1_555
H33 C26 1_555 1_555
H34 C26 1_555 1_555
H35 C27 1_555 1_555
H36 C27 1_555 1_555
H37 C27 1_555 1_555
H38 C28 1_555 1_555
H39 C28 1_555 1_555
H40 C28 1_555 1_555
H41 C29 1_555 1_555
H42 C30 1_555 1_555
H43 C31 1_555 1_555
H44 C32 1_555 1_555
C33 C34 1_555 1_555
C34 C35 1_555 1_555
C35 C36 1_555 1_555
C36 C37 1_555 1_555
C37 C38 1_555 1_555
C38 H54 1_555 1_555
H45 C33 1_555 1_555
H46 C33 1_555 1_555
H47 C33 1_555 1_555
H48 C34 1_555 1_555
H49 C34 1_555 1_555
H50 C36 1_555 1_555
H51 C36 1_555 1_555
H52 C37 1_555 1_555
H53 C37 1_555 1_555
H55 C38 1_555 1_555
H56 C38 1_555 1_555
N2E Co1 1_555 1_555
Co1E N2 1_555 1_555
C5 C6 1_555 1_555
C15 C16 1_555 1_555
C19 C20 1_555 1_555
C31 C32 1_555 1_555

#END
