
#######################################################################
#
#                 Cambridge Crystallographic Data Centre
#                                CCDC 
#
#######################################################################
#
# If this CIF has been generated from an entry in the Cambridge 
# Structural Database, then it will include bibliographic, chemical, 
# crystal, experimental, refinement or atomic coordinate data resulting 
# from the CCDC's data processing and validation procedures.
#
#######################################################################

data_WEXSAU
_symmetry_cell_setting           monoclinic
_symmetry_space_group_name_H-M   'P 21/c'
_symmetry_Int_Tables_number      14
_space_group_name_Hall           '-P 2ybc'
loop_
_symmetry_equiv_pos_site_id
_symmetry_equiv_pos_as_xyz
1 x,y,z
2 -x,1/2+y,1/2-z
3 -x,-y,-z
4 x,1/2-y,1/2+z
_cell_length_a                   7.4193(9)
_cell_length_b                   19.135(2)
_cell_length_c                   12.9846(14)
_cell_angle_alpha                90
_cell_angle_beta                 97.033(5)
_cell_angle_gamma                90
_cell_volume                     1829.53
loop_
_atom_site_label
_atom_site_type_symbol
_atom_site_fract_x
_atom_site_fract_y
_atom_site_fract_z
Ni1 Ni 0.23007(7) 0.48057(2) 0.34147(3)
Ni2 Ni 0.28348(7) 0.58569(2) 0.10827(3)
O1 O -0.0463(5) 0.49558(18) 0.3341(3)
O2 O 0.2386(5) 0.48973(18) 0.1830(3)
O3 O 0.5092(6) 0.4602(2) 0.3576(3)
C1 C 0.2261(8) 0.3668(3) 0.2012(4)
N1 N 0.1894(7) 0.3784(2) 0.2976(3)
O4 O 0.1618(6) 0.1207(2) 0.2357(3)
O5 O 0.2547(7) 0.1628(2) 0.0909(3)
C2 C 0.2053(8) 0.1694(3) 0.1777(4)
O6 O 0.2971(7) 0.4228(2) 0.0503(3)
C3 C 0.2577(8) 0.4307(3) 0.1382(4)
C4 C 0.2330(8) 0.3003(3) 0.1595(4)
H1 H 0.2618 0.2938 0.0908
C5 C 0.1517(10) 0.2560(3) 0.3192(4)
H2 H 0.1233 0.2184 0.3621
C6 C 0.1486(10) 0.3236(3) 0.3543(4)
H3 H 0.1160 0.3318 0.4217
C7 C 0.1970(8) 0.2434(3) 0.2201(4)
O7 O 0.2449(5) 0.46188(19) 0.5028(3)
O8 O 0.2700(6) 0.58021(19) 0.3856(3)
O9 O 0.2466(6) 0.94564(19) 0.4533(3)
O10 O 0.0111(6) 0.6045(2) 0.0956(3)
O11 O 0.3109(6) 0.6427(2) 0.2452(3)
O12 O 0.5524(6) 0.5587(2) 0.1307(3)
N2 N 0.3229(7) 0.8204(2) 0.5314(3)
C8 C 0.2979(7) 0.6356(3) 0.3394(4)
O13 O 0.2526(7) 0.9076(2) 0.2907(3)
C9 C 0.2858(8) 0.7676(3) 0.3635(4)
H4 H 0.2661 0.7734 0.2903
C10 C 0.2609(8) 0.8990(3) 0.3860(4)
C11 C 0.2906(8) 0.8258(3) 0.4273(4)
C12 C 0.3092(8) 0.7011(3) 0.4052(4)
C13 C 0.3536(10) 0.7563(3) 0.5714(4)
H5 H 0.3813 0.7517 0.6445
C14 C 0.3469(9) 0.6966(3) 0.5115(4)
H6 H 0.3684 0.6522 0.5436
H7 H -0.0981 0.4654 0.2969
H8 H 0.5652 0.5997 0.1592
H9 H -0.0839 0.5332 0.3042
H10 H 0.1716 0.4858 0.5341
H11 H 0.5480 0.4710 0.3004
H12 H 0.0120 0.5648 0.1260
H13 H 0.5337 0.5348 0.1808
H14 H -0.0496 0.5959 0.0350
H15 H 0.5787 0.4850 0.3999
H16 H 0.2296 0.4209 0.5274
Ni2C Ni 0.28348(7) 0.91431(2) 0.60827(3)
O9C O 0.2466(6) 0.55436(19) -0.0467(3)
N2C N 0.3229(7) 0.6796(2) 0.0314(3)
loop_
_geom_bond_atom_site_label_1
_geom_bond_atom_site_label_2
_geom_bond_site_symmetry_1
_geom_bond_site_symmetry_2
Ni1 O1 1_555 1_555
Ni2 O2 1_555 1_555
O1 H7 1_555 1_555
O2 Ni1 1_555 1_555
O3 Ni1 1_555 1_555
C1 N1 1_555 1_555
N1 Ni1 1_555 1_555
O4 C2 1_555 1_555
O5 C2 1_555 1_555
C2 C7 1_555 1_555
O6 C3 1_555 1_555
C3 O2 1_555 1_555
C4 C1 1_555 1_555
H1 C4 1_555 1_555
C5 H2 1_555 1_555
C6 N1 1_555 1_555
H3 C6 1_555 1_555
C7 C4 1_555 1_555
O7 Ni1 1_555 1_555
O8 Ni1 1_555 1_555
O9 C10 1_555 1_555
O10 Ni2 1_555 1_555
O11 Ni2 1_555 1_555
O12 Ni2 1_555 1_555
N2 C11 1_555 1_555
C8 O8 1_555 1_555
O13 C10 1_555 1_555
C9 H4 1_555 1_555
C10 C11 1_555 1_555
C11 C9 1_555 1_555
C12 C8 1_555 1_555
C13 N2 1_555 1_555
H5 C13 1_555 1_555
C14 C12 1_555 1_555
H6 C14 1_555 1_555
H8 O12 1_555 1_555
H9 O1 1_555 1_555
H10 O7 1_555 1_555
H11 O3 1_555 1_555
H12 O10 1_555 1_555
H13 O12 1_555 1_555
H14 O10 1_555 1_555
H15 O3 1_555 1_555
H16 O7 1_555 1_555
Ni2C O9 1_555 1_555
O9C Ni2 1_555 1_555
N2C Ni2 1_555 1_555
C1 C3 1_555 1_555
C5 C6 1_555 1_555
C5 C7 1_555 1_555
O11 C8 1_555 1_555
N2 Ni2C 1_555 1_555
C9 C12 1_555 1_555
C13 C14 1_555 1_555

#END
