
#######################################################################
#
#                 Cambridge Crystallographic Data Centre
#                                CCDC 
#
#######################################################################
#
# If this CIF has been generated from an entry in the Cambridge 
# Structural Database, then it will include bibliographic, chemical, 
# crystal, experimental, refinement or atomic coordinate data resulting 
# from the CCDC's data processing and validation procedures.
#
#######################################################################

data_WEXTEZ
_symmetry_cell_setting           orthorhombic
_symmetry_space_group_name_H-M   'P 21 21 21'
_symmetry_Int_Tables_number      19
_space_group_name_Hall           'P 2ac 2ab'
loop_
_symmetry_equiv_pos_site_id
_symmetry_equiv_pos_as_xyz
1 x,y,z
2 1/2-x,-y,1/2+z
3 -x,1/2+y,1/2-z
4 1/2+x,1/2-y,-z
_cell_length_a                   7.34080(10)
_cell_length_b                   9.8955(2)
_cell_length_c                   22.1795(2)
_cell_angle_alpha                90
_cell_angle_beta                 90
_cell_angle_gamma                90
_cell_volume                     1611.14
loop_
_atom_site_label
_atom_site_type_symbol
_atom_site_fract_x
_atom_site_fract_y
_atom_site_fract_z
Sr1 Sr 0.29781(12) 0.84160(8) 0.48799(4)
Sr2 Sr -0.02363(11) 1.23759(8) 0.53109(4)
P1 P -0.2221(3) 0.9591(2) 0.45372(11)
N1 N -0.1027(11) 1.0761(8) 0.3460(4)
H1 H -0.1096 1.1521 0.3689
N2 N 0.3508(11) 1.0431(9) 0.5961(4)
N3 N -0.0401(14) 1.1172(9) 0.6597(4)
C1 C 0.0952(12) 1.0262(9) 0.3488(4)
H2 H 0.0955 0.9280 0.3545
C2 C 0.1943(13) 1.0924(9) 0.4014(4)
C3 C -0.2366(13) 0.9765(9) 0.3716(4)
H3 H -0.2154 0.8888 0.3533
H4 H -0.3589 1.0048 0.3609
C4 C 0.1753(15) 1.0592(13) 0.2870(5)
H5 H 0.2971 1.0961 0.2909
H6 H 0.1806 0.9789 0.2620
C5 C 0.0464(16) 1.1633(13) 0.2600(5)
H7 H 0.0746 1.2535 0.2744
H8 H 0.0516 1.1623 0.2163
C6 C -0.1372(15) 1.1170(12) 0.2825(5)
H9 H -0.2255 1.1898 0.2806
H10 H -0.1817 1.0413 0.2589
O1 O 0.1299(10) 1.1960(7) 0.4257(3)
O2 O 0.3437(8) 1.0402(7) 0.4149(3)
O3 O -0.2574(8) 1.1029(6) 0.4763(3)
O4 O -0.0359(9) 0.9059(6) 0.4717(3)
O5 O -0.3701(8) 0.8578(6) 0.4704(3)
O6 O 0.3873(14) 0.9200(7) 0.5994(4)
O7 O 0.3685(13) 1.1168(8) 0.6399(4)
O8 O 0.2945(10) 1.0896(6) 0.5463(3)
O9 O -0.0677(15) 1.0455(8) 0.6149(4)
O10 O -0.0065(12) 1.2382(8) 0.6528(3)
O11 O -0.0476(16) 1.0673(10) 0.7117(4)
O12 O 0.2539(14) 0.7230(9) 0.3873(4)
Sr1C Sr -0.20219(12) 0.65840(8) 0.51201(4)
Sr1_2 Sr -0.70219(12) 0.84160(8) 0.48799(4)
Sr2C Sr 0.47637(11) 1.26241(8) 0.46891(4)
Sr2C_2 Sr -0.52363(11) 1.26241(8) 0.46891(4)
O1C O -0.3701(10) 1.3040(7) 0.5743(3)
O2C O -0.1563(8) 1.4598(7) 0.5851(3)
O3C O 0.2426(8) 1.3971(6) 0.5237(3)
O4C O 0.4641(9) 0.5941(6) 0.5283(3)
O5_2 O 0.6299(8) 0.8578(6) 0.4704(3)
O5C O 0.1299(8) 0.6422(6) 0.5296(3)
O8C O -0.2055(10) 1.4104(6) 0.4537(3)
O13 O 0.5273(17) 0.7309(12) 0.3053(5)
loop_
_geom_bond_atom_site_label_1
_geom_bond_atom_site_label_2
_geom_bond_site_symmetry_1
_geom_bond_site_symmetry_2
Sr1 O2 1_555 1_555
Sr2 O1 1_555 1_555
P1 C3 1_555 1_555
N1 H1 1_555 1_555
N2 O6 1_555 1_555
N3 O9 1_555 1_555
C1 N1 1_555 1_555
H2 C1 1_555 1_555
C2 C1 1_555 1_555
C3 N1 1_555 1_555
H3 C3 1_555 1_555
H4 C3 1_555 1_555
C4 C1 1_555 1_555
H5 C4 1_555 1_555
H6 C4 1_555 1_555
C5 C4 1_555 1_555
H7 C5 1_555 1_555
H8 C5 1_555 1_555
C6 N1 1_555 1_555
H9 C6 1_555 1_555
H10 C6 1_555 1_555
O1 C2 1_555 1_555
O2 C2 1_555 1_555
O3 Sr2 1_555 1_555
O4 Sr1 1_555 1_555
O5 P1 1_555 1_555
O6 Sr1 1_555 1_555
O7 N2 1_555 1_555
O8 Sr1 1_555 1_555
O9 Sr2 1_555 1_555
O10 Sr2 1_555 1_555
O11 N3 1_555 1_555
O12 Sr1 1_555 1_555
Sr1C O4 1_555 1_555
Sr1_2 O5 1_555 1_555
Sr2C O1 1_555 1_555
Sr2C_2 O3 1_555 1_555
O1C Sr2 1_555 1_555
O2C Sr2 1_555 1_555
O3C Sr2 1_555 1_555
O4C Sr1 1_555 1_555
O5_2 Sr1 1_555 1_555
O5C Sr1 1_555 1_555
O8C Sr2 1_555 1_555
Sr2 O8 1_555 1_555
P1 O3 1_555 1_555
P1 O4 1_555 1_555
N2 O8 1_555 1_555
N3 O10 1_555 1_555
C5 C6 1_555 1_555
O2 Sr2C 1_555 1_555
O5 Sr1C 1_555 1_555
O8 Sr2C 1_555 1_555
Sr1C O5C 1_555 1_555
Sr2C O3C 1_555 1_555
Sr2C_2 O1C 1_555 1_555
Sr2C_2 O8C 1_555 1_555

#END
