
#######################################################################
#
#                 Cambridge Crystallographic Data Centre
#                                CCDC 
#
#######################################################################
#
# If this CIF has been generated from an entry in the Cambridge 
# Structural Database, then it will include bibliographic, chemical, 
# crystal, experimental, refinement or atomic coordinate data resulting 
# from the CCDC's data processing and validation procedures.
#
#######################################################################

data_WEXTAV
_symmetry_cell_setting           orthorhombic
_symmetry_space_group_name_H-M   'P 21 21 21'
_symmetry_Int_Tables_number      19
_space_group_name_Hall           'P 2ac 2ab'
loop_
_symmetry_equiv_pos_site_id
_symmetry_equiv_pos_as_xyz
1 x,y,z
2 1/2-x,-y,1/2+z
3 -x,1/2+y,1/2-z
4 1/2+x,1/2-y,-z
_cell_length_a                   8.7142(11)
_cell_length_b                   10.8075(14)
_cell_length_c                   18.074(2)
_cell_angle_alpha                90
_cell_angle_beta                 90
_cell_angle_gamma                90
_cell_volume                     1702.19
loop_
_atom_site_label
_atom_site_type_symbol
_atom_site_fract_x
_atom_site_fract_y
_atom_site_fract_z
Co1 Co 0.8402(2) 0.67345(16) 0.87976(9)
Co2 Co 0.8388(2) 0.95076(16) 0.95588(9)
Cl1 Cl 0.7108(4) 0.8646(4) 0.84610(19)
P1 P 0.8417(5) 0.2819(3) 0.53307(16)
N1 N 0.7228(13) 0.2975(11) 0.6782(6)
H1 H 0.8237 0.2864 0.6893
C1 C 0.654(2) 0.3779(13) 0.7382(7)
H2 H 0.5614 0.4181 0.7193
C2 C 0.612(3) 0.2908(16) 0.7993(10)
H3 H 0.6839 0.2982 0.8399
H4 H 0.5098 0.3100 0.8177
C3 C 0.615(3) 0.1628(18) 0.7687(9)
H5 H 0.5180 0.1216 0.7779
H6 H 0.6961 0.1152 0.7921
C4 C 0.6437(19) 0.1727(14) 0.6863(8)
H7 H 0.5481 0.1707 0.6589
H8 H 0.7093 0.1061 0.6692
C5 C 0.7654(18) 0.4754(14) 0.7649(8)
C6 C 0.7150(15) 0.3496(13) 0.6024(6)
H9 H 0.7374 0.4374 0.6055
H10 H 0.6102 0.3415 0.5849
O1 O 0.7132(11) 0.5470(9) 0.8139(5)
O2 O 0.9013(12) 0.4758(10) 0.7402(5)
O3 O 1.0076(10) 0.2965(8) 0.5595(5)
O4 O 0.7991(11) 0.1459(8) 0.5260(4)
O5 O 0.8070(10) 0.3590(8) 0.4645(5)
O6 O 0.9863(11) 0.6938(10) 0.7866(5)
H11 H 0.9325 0.6949 0.7474
H12 H 1.0356 0.7614 0.7904
O7 O 0.9727(11) 0.5164(9) 0.9137(5)
H13 H 0.9253 0.4505 0.9019
H14 H 0.9853 0.5185 0.9603
O8 O 0.9558(11) 1.0266(9) 1.0482(5)
H15 H 1.0381 0.9862 1.0554
H16 H 0.9774 1.1019 1.0395
O9 O 0.9800(13) 1.0577(10) 0.8899(6)
H17 H 1.0403 1.0995 0.9171
H18 H 1.0322 1.0106 0.8618
O10 O 0.6954(12) 1.1058(9) 0.9608(6)
H19 H 0.7215 1.1506 0.9973
H20 H 0.6032 1.0819 0.9664
Co1B Co 1.1598(2) 0.17345(16) 0.62024(9)
Co1A Co 0.6598(2) 0.32655(16) 0.37976(9)
Co2B Co 1.1612(2) 0.45076(16) 0.54412(9)
Co2A Co 0.6612(2) 0.04924(16) 0.45588(9)
O3B O 0.9924(10) 0.7965(8) 0.9405(5)
O4A O 0.7009(11) 0.8541(8) 1.0260(4)
O5A O 0.6930(10) 0.6410(8) 0.9645(5)
Cl2 Cl 0.6561(6) 0.6726(4) 0.5437(3)
O11 O 0.892(2) 0.8035(16) 0.6559(8)
H21 H 0.8567 0.8732 0.6697
H22 H 0.8261 0.7675 0.6285
loop_
_geom_bond_atom_site_label_1
_geom_bond_atom_site_label_2
_geom_bond_site_symmetry_1
_geom_bond_site_symmetry_2
Co1 Cl1 1_555 1_555
Co2 Cl1 1_555 1_555
P1 C6 1_555 1_555
N1 H1 1_555 1_555
C1 N1 1_555 1_555
H2 C1 1_555 1_555
C2 C1 1_555 1_555
H3 C2 1_555 1_555
H4 C2 1_555 1_555
C3 C2 1_555 1_555
H5 C3 1_555 1_555
H6 C3 1_555 1_555
C4 N1 1_555 1_555
H7 C4 1_555 1_555
H8 C4 1_555 1_555
C5 C1 1_555 1_555
C6 N1 1_555 1_555
H9 C6 1_555 1_555
H10 C6 1_555 1_555
O1 Co1 1_555 1_555
O2 C5 1_555 1_555
O3 P1 1_555 1_555
O4 P1 1_555 1_555
O5 P1 1_555 1_555
O6 Co1 1_555 1_555
H11 O6 1_555 1_555
H12 O6 1_555 1_555
O7 Co1 1_555 1_555
H13 O7 1_555 1_555
H14 O7 1_555 1_555
O8 Co2 1_555 1_555
H15 O8 1_555 1_555
H16 O8 1_555 1_555
O9 Co2 1_555 1_555
H17 O9 1_555 1_555
H18 O9 1_555 1_555
O10 Co2 1_555 1_555
H19 O10 1_555 1_555
H20 O10 1_555 1_555
O11 H21 1_555 1_555
H22 O11 1_555 1_555
Co1B O3 1_555 1_555
Co1A O5 1_555 1_555
Co2B O3 1_555 1_555
Co2A O4 1_555 1_555
O3B Co1 1_555 1_555
O4A Co2 1_555 1_555
O5A Co1 1_555 1_555
Co2 O3B 1_555 1_555
C3 C4 1_555 1_555
C5 O1 1_555 1_555

#END
