
#######################################################################
#
#                 Cambridge Crystallographic Data Centre
#                                CCDC 
#
#######################################################################
#
# If this CIF has been generated from an entry in the Cambridge 
# Structural Database, then it will include bibliographic, chemical, 
# crystal, experimental, refinement or atomic coordinate data resulting 
# from the CCDC's data processing and validation procedures.
#
#######################################################################

data_WEXVUQ
_symmetry_cell_setting           triclinic
_symmetry_space_group_name_H-M   'P -1'
_symmetry_Int_Tables_number      2
_space_group_name_Hall           '-P 1'
loop_
_symmetry_equiv_pos_site_id
_symmetry_equiv_pos_as_xyz
1 x,y,z
2 -x,-y,-z
_cell_length_a                   8.5378(4)
_cell_length_b                   10.9410(5)
_cell_length_c                   14.5173(7)
_cell_angle_alpha                106.0060(10)
_cell_angle_beta                 97.6060(10)
_cell_angle_gamma                96.1640(10)
_cell_volume                     1277.24
loop_
_atom_site_label
_atom_site_type_symbol
_atom_site_fract_x
_atom_site_fract_y
_atom_site_fract_z
Ag1 Ag -0.11748(4) -0.39475(3) 0.11185(2)
Ag2 Ag -0.43722(4) -0.01539(3) -0.15935(2)
S1 S -0.02695(11) -0.58310(9) 0.23978(7)
O1 O -0.5817(4) -0.2417(3) -0.1928(2)
H1 H -0.5322 -0.2931 -0.2251
O2 O 0.1398(3) -0.5351(3) 0.2921(2)
O3 O -0.1245(3) -0.4775(3) 0.2619(2)
O4 O -0.0951(3) -0.6899(3) 0.2738(2)
N1 N -0.2716(4) -0.0435(3) -0.0428(2)
N2 N 0.0418(4) -0.2187(3) 0.2029(2)
N3 N -0.5931(4) 0.0599(3) -0.2542(2)
O5 O -0.0269(3) -0.6250(3) 0.1349(2)
C1 C -0.1949(4) -0.1464(4) -0.0551(3)
H2 H -0.2108 -0.2058 -0.1165
C2 C 0.0375(4) -0.0977(4) 0.1961(3)
C3 C 0.1295(5) 0.0097(4) 0.2646(3)
H3 H 0.1229 0.0916 0.2587
C4 C -0.0705(4) -0.0809(4) 0.1122(3)
C5 C -0.7983(5) 0.1342(4) -0.3879(3)
H4 H -0.8669 0.1590 -0.4323
C6 C 0.2372(5) -0.1301(4) 0.3488(3)
H5 H 0.3050 -0.1440 0.3993
C7 C -0.6988(5) 0.2251(4) -0.3105(3)
H6 H -0.6994 0.3123 -0.3028
C8 C -0.5983(5) 0.1856(4) -0.2444(3)
C9 C -0.7925(5) 0.0049(4) -0.3972(3)
H7 H -0.8573 -0.0585 -0.4484
C10 C 0.2317(5) -0.0069(4) 0.3420(3)
H8 H 0.2950 0.0635 0.3882
C11 C -0.1476(4) 0.0271(4) 0.1250(3)
H9 H -0.1329 0.0883 0.1856
C12 C 0.1400(5) -0.2326(4) 0.2790(3)
H10 H 0.1426 -0.3149 0.2849
C13 C -0.2464(5) 0.0423(4) 0.0465(3)
H11 H -0.2974 0.1147 0.0558
C14 C -0.6899(5) -0.0281(4) -0.3297(3)
H12 H -0.6872 -0.1148 -0.3365
C15 C -0.0932(5) -0.1680(4) 0.0196(3)
H13 H -0.0408 -0.2397 0.0080
N4 N -0.2887(4) 0.4691(3) -0.0071(2)
C16 C -0.3088(5) 0.4801(4) -0.0985(3)
H14 H -0.2522 0.5506 -0.1097
C17 C -0.3715(5) 0.3673(4) 0.0080(3)
H15 H -0.3603 0.3591 0.0705
C18 C -0.4734(5) 0.2735(4) -0.0665(3)
H16 H -0.5292 0.2042 -0.0533
C19 C -0.4093(5) 0.3915(4) -0.1755(3)
H17 H -0.4218 0.4039 -0.2368
C20 C -0.4922(4) 0.2832(4) -0.1612(3)
H28 H -0.675(6) -0.258(5) -0.219(4)
N4_2 N -0.2887(4) -0.5309(3) -0.0071(2)
Ag1_2 Ag -0.11748(4) 0.60525(3) 0.11185(2)
O6 O -0.2678(4) -0.4519(3) -0.5750(2)
H18 H -0.236(6) -0.468(5) -0.623(4)
H27 H -0.269(8) -0.512(7) -0.553(5)
O7 O -0.5492(4) -0.7270(3) -0.5158(2)
H21 H -0.588(8) -0.669(7) -0.475(5)
H24 H -0.464(7) -0.693(5) -0.501(4)
O8 O -0.9784(4) -0.7303(3) -0.5529(2)
H20 H -0.895(6) -0.668(5) -0.514(4)
H25 H -0.996(7) -0.715(6) -0.599(4)
O9 O -0.7726(4) -0.3664(4) -0.5255(3)
H19 H -0.798(6) -0.403(5) -0.564(3)
H22 H -0.853(7) -0.333(5) -0.500(4)
O10 O -0.3469(4) -0.2903(3) -0.2983(2)
H23 H -0.376(6) -0.291(5) -0.351(4)
H26 H -0.297(6) -0.343(5) -0.302(4)
loop_
_geom_bond_atom_site_label_1
_geom_bond_atom_site_label_2
_geom_bond_site_symmetry_1
_geom_bond_site_symmetry_2
Ag1 O3 1_555 1_555
Ag2 O1 1_555 1_555
S1 O2 1_555 1_555
O1 H1 1_555 1_555
O3 S1 1_555 1_555
O4 S1 1_555 1_555
N1 Ag2 1_555 1_555
N2 Ag1 1_555 1_555
N3 Ag2 1_555 1_555
O5 S1 1_555 1_555
C1 N1 1_555 1_555
H2 C1 1_555 1_555
C2 N2 1_555 1_555
C3 C2 1_555 1_555
H3 C3 1_555 1_555
C4 C2 1_555 1_555
C5 H4 1_555 1_555
C6 H5 1_555 1_555
C7 C5 1_555 1_555
H6 C7 1_555 1_555
C8 N3 1_555 1_555
C9 C5 1_555 1_555
H7 C9 1_555 1_555
C10 C3 1_555 1_555
H8 C10 1_555 1_555
C11 C4 1_555 1_555
H9 C11 1_555 1_555
C12 N2 1_555 1_555
H10 C12 1_555 1_555
C13 N1 1_555 1_555
H11 C13 1_555 1_555
C14 N3 1_555 1_555
H12 C14 1_555 1_555
C15 C1 1_555 1_555
H13 C15 1_555 1_555
N4 C16 1_555 1_555
C16 H14 1_555 1_555
O6 H18 1_555 1_555
O7 H21 1_555 1_555
O8 H20 1_555 1_555
O9 H19 1_555 1_555
O10 H23 1_555 1_555
C17 N4 1_555 1_555
H15 C17 1_555 1_555
C18 C17 1_555 1_555
H16 C18 1_555 1_555
C19 C16 1_555 1_555
H17 C19 1_555 1_555
C20 C8 1_555 1_555
H22 O9 1_555 1_555
H24 O7 1_555 1_555
H25 O8 1_555 1_555
H26 O10 1_555 1_555
H27 O6 1_555 1_555
H28 O1 1_555 1_555
N4_2 Ag1 1_555 1_555
Ag1_2 N4 1_555 1_555
C4 C15 1_555 1_555
C6 C10 1_555 1_555
C6 C12 1_555 1_555
C7 C8 1_555 1_555
C9 C14 1_555 1_555
C11 C13 1_555 1_555
C18 C20 1_555 1_555
C19 C20 1_555 1_555

#END
