
#######################################################################
#
#                 Cambridge Crystallographic Data Centre
#                                CCDC 
#
#######################################################################
#
# If this CIF has been generated from an entry in the Cambridge 
# Structural Database, then it will include bibliographic, chemical, 
# crystal, experimental, refinement or atomic coordinate data resulting 
# from the CCDC's data processing and validation procedures.
#
#######################################################################

data_WEXXAY
_symmetry_cell_setting           monoclinic
_symmetry_space_group_name_H-M   'P 21/c'
_symmetry_Int_Tables_number      14
_space_group_name_Hall           '-P 2ybc'
loop_
_symmetry_equiv_pos_site_id
_symmetry_equiv_pos_as_xyz
1 x,y,z
2 -x,1/2+y,1/2-z
3 -x,-y,-z
4 x,1/2-y,1/2+z
_cell_length_a                   13.6378(11)
_cell_length_b                   9.1224(8)
_cell_length_c                   10.7978(9)
_cell_angle_alpha                90
_cell_angle_beta                 98.6010(10)
_cell_angle_gamma                90
_cell_volume                     1328.24
loop_
_atom_site_label
_atom_site_type_symbol
_atom_site_fract_x
_atom_site_fract_y
_atom_site_fract_z
Ag1 Ag 0.26259(5) 0.13748(12) -0.16967(9)
N1 N -0.5773(6) 0.1170(10) -0.1483(8)
C1 C -0.5330(7) 0.0342(14) -0.2253(12)
H1 H -0.5722 -0.0197 -0.2870
C2 C -0.5192(7) 0.1930(14) -0.0611(11)
H2 H -0.5485 0.2493 -0.0048
C3 C -0.4165(7) 0.1913(14) -0.0510(11)
H3 H -0.3789 0.2496 0.0088
C4 C -0.4310(8) 0.0255(15) -0.2169(11)
H4 H -0.4031 -0.0344 -0.2720
C5 C -0.3702(8) 0.1048(15) -0.1279(11)
C6 C -0.2577(8) 0.0914(18) -0.1138(14)
H5 H -0.2287 0.1293 -0.0326
H6 H -0.2398 -0.0113 -0.1171
C7 C -0.2168(7) 0.1710(15) -0.2115(12)
H7 H -0.2332 0.2742 -0.2072
H8 H -0.2464 0.1345 -0.2930
C8 C -0.1048(7) 0.1531(16) -0.1966(12)
C9 C 0.0604(8) 0.1787(18) -0.0799(13)
H9 H 0.1005 0.2010 -0.0049
C10 C 0.0437(8) 0.0771(19) -0.2686(14)
H10 H 0.0720 0.0267 -0.3292
C11 C -0.0587(8) 0.0876(19) -0.2825(13)
H11 H -0.0964 0.0480 -0.3536
C12 C -0.0425(9) 0.194(2) -0.0875(16)
H12 H -0.0693 0.2310 -0.0198
N2 N 0.1019(6) 0.1341(14) -0.1752(9)
Ag1_2 Ag -0.73741(5) 0.13748(12) -0.16967(9)
N1_2 N 0.4227(6) 0.1170(10) -0.1483(8)
N3 N -0.7358(6) 0.4063(13) -0.9707(10)
O1 O -0.7257(6) 0.2874(10) -0.9151(8)
O2 O -0.7710(7) 0.5106(11) -0.9211(9)
O3 O -0.7155(8) 0.4184(13) -1.0755(9)
loop_
_geom_bond_atom_site_label_1
_geom_bond_atom_site_label_2
_geom_bond_site_symmetry_1
_geom_bond_site_symmetry_2
Ag1 N2 1_555 1_555
N1 C1 1_555 1_555
C1 H1 1_555 1_555
C2 N1 1_555 1_555
H2 C2 1_555 1_555
C3 C2 1_555 1_555
H3 C3 1_555 1_555
C4 C1 1_555 1_555
H4 C4 1_555 1_555
C5 C3 1_555 1_555
C6 C5 1_555 1_555
H5 C6 1_555 1_555
H6 C6 1_555 1_555
C7 C6 1_555 1_555
H7 C7 1_555 1_555
H8 C7 1_555 1_555
C8 C7 1_555 1_555
C9 H9 1_555 1_555
C10 H10 1_555 1_555
C11 C8 1_555 1_555
H11 C11 1_555 1_555
C12 C8 1_555 1_555
H12 C12 1_555 1_555
N2 C9 1_555 1_555
N3 O1 1_555 1_555
O2 N3 1_555 1_555
O3 N3 1_555 1_555
Ag1_2 N1 1_555 1_555
N1_2 Ag1 1_555 1_555
C4 C5 1_555 1_555
C9 C12 1_555 1_555
C10 C11 1_555 1_555
C10 N2 1_555 1_555

#END
