
#######################################################################
#
#                 Cambridge Crystallographic Data Centre
#                                CCDC 
#
#######################################################################
#
# If this CIF has been generated from an entry in the Cambridge 
# Structural Database, then it will include bibliographic, chemical, 
# crystal, experimental, refinement or atomic coordinate data resulting 
# from the CCDC's data processing and validation procedures.
#
#######################################################################

data_WEXYOO
_symmetry_cell_setting           orthorhombic
_symmetry_space_group_name_H-M   'P 21 21 21'
_symmetry_Int_Tables_number      19
_space_group_name_Hall           'P 2ac 2ab'
loop_
_symmetry_equiv_pos_site_id
_symmetry_equiv_pos_as_xyz
1 x,y,z
2 1/2-x,-y,1/2+z
3 -x,1/2+y,1/2-z
4 1/2+x,1/2-y,-z
_cell_length_a                   6.8516(7)
_cell_length_b                   22.979(2)
_cell_length_c                   29.332(3)
_cell_angle_alpha                90
_cell_angle_beta                 90
_cell_angle_gamma                90
_cell_volume                     4618.12
loop_
_atom_site_label
_atom_site_type_symbol
_atom_site_fract_x
_atom_site_fract_y
_atom_site_fract_z
Cu1 Cu 0.95463(17) 0.76525(4) 0.90097(3)
C1 C 0.9354(13) 0.7255(3) 0.8019(3)
H1 H 0.9343 0.7645 0.7935
C2 C 0.9224(12) 0.6833(3) 0.7676(2)
H2 H 0.9150 0.6939 0.7371
C3 C 0.9208(11) 0.6268(3) 0.7799(3)
H3 H 0.9087 0.5982 0.7576
C4 C 0.9369(11) 0.6105(3) 0.8254(2)
C5 C 0.9402(10) 0.5504(3) 0.8408(3)
C6 C 0.9237(11) 0.4528(3) 0.8248(3)
C7 C 0.8976(12) 0.4065(4) 0.7948(4)
H4 H 0.8746 0.4140 0.7642
C8 C 0.9051(13) 0.3513(4) 0.8095(5)
H5 H 0.8889 0.3210 0.7889
C9 C 0.9371(15) 0.3390(4) 0.8556(5)
H6 H 0.9434 0.3005 0.8652
C10 C 0.9590(14) 0.3822(3) 0.8865(4)
H7 H 0.9789 0.3731 0.9170
C11 C 0.9521(12) 0.4408(3) 0.8728(3)
C12 C 0.9632(12) 0.5383(3) 0.8888(3)
C13 C 0.9823(12) 0.5859(3) 0.9208(3)
C14 C 1.0011(15) 0.5776(4) 0.9683(3)
H8 H 1.0076 0.5402 0.9805
C15 C 1.0097(16) 0.6251(4) 0.9961(3)
H9 H 1.0176 0.6201 1.0275
C16 C 1.0069(15) 0.6809(4) 0.9778(3)
H10 H 1.0204 0.7128 0.9971
C17 C 0.9756(12) 0.6432(3) 0.9056(3)
C18 C 0.9532(11) 0.6557(3) 0.8573(2)
C19 C 0.9938(14) 0.8676(3) 0.9471(3)
C20 C 0.9851(14) 0.8886(3) 0.8983(3)
H11 H 1.1121 0.9055 0.8905
C21 C 0.8302(17) 0.9349(4) 0.8917(3)
H12 H 0.8595 0.9675 0.9115
H13 H 0.7051 0.9191 0.9010
C22 C 1.018(3) 0.9999(6) 0.8286(5)
H14 H 1.0248 1.0160 0.7984
H15 H 1.1285 0.9748 0.8335
H16 H 1.0201 1.0308 0.8506
N1 N 0.9493(10) 0.7121(2) 0.84577(18)
N2 N 0.9848(11) 0.6896(3) 0.9327(2)
N3 N 0.9481(11) 0.8388(2) 0.8674(2)
H33 H 1.0392 0.8382 0.8453
H34 H 0.8306 0.8431 0.8541
N7 N 0.9194(9) 0.5083(3) 0.8101(2)
N8 N 0.9712(10) 0.4836(3) 0.9036(2)
O1 O 1.0031(10) 0.8128(2) 0.95371(17)
O2 O 1.0039(14) 0.9030(2) 0.97793(19)
O3 O 0.6272(9) 0.7609(3) 0.9164(2)
S1 S 0.8097(7) 0.96109(14) 0.83430(11)
Cu2 Cu 0.47379(14) 0.29047(3) 0.93459(3)
C23 C 0.4129(11) 0.2871(3) 0.8321(3)
H17 H 0.4057 0.2468 0.8344
C24 C 0.3950(11) 0.3126(3) 0.7895(3)
H18 H 0.3819 0.2893 0.7637
C25 C 0.3965(11) 0.3714(3) 0.7853(3)
H19 H 0.3815 0.3888 0.7569
C26 C 0.4213(10) 0.4057(3) 0.8249(2)
C27 C 0.4278(10) 0.4691(3) 0.8235(2)
C28 C 0.4152(11) 0.5541(3) 0.7836(2)
C29 C 0.3996(13) 0.5843(3) 0.7422(3)
H20 H 0.3899 0.5636 0.7150
C30 C 0.3986(13) 0.6431(4) 0.7413(3)
H21 H 0.3859 0.6625 0.7136
C31 C 0.4168(12) 0.6753(4) 0.7822(3)
H22 H 0.4162 0.7158 0.7813
C32 C 0.4351(13) 0.6474(3) 0.8227(3)
H23 H 0.4484 0.6691 0.8493
C33 C 0.4343(11) 0.5864(3) 0.8252(2)
C34 C 0.4492(11) 0.5007(3) 0.8653(2)
C35 C 0.4757(10) 0.4696(3) 0.9084(2)
C36 C 0.5004(12) 0.4962(3) 0.9508(2)
H24 H 0.4969 0.5366 0.9531
C37 C 0.5297(13) 0.4635(3) 0.9889(2)
H25 H 0.5466 0.4813 1.0171
C38 C 0.5340(12) 0.4029(3) 0.9853(2)
H26 H 0.5578 0.3808 1.0113
C39 C 0.4768(11) 0.4087(3) 0.9075(2)
C40 C 0.4449(11) 0.3769(3) 0.8662(2)
C41 C 0.6049(12) 0.2163(3) 1.0010(3)
C42 C 0.4906(12) 0.1762(3) 0.9682(2)
H27 H 0.3602 0.1705 0.9812
C43 C 0.5886(14) 0.1155(3) 0.9647(3)
H28 H 0.6244 0.1031 0.9952
H29 H 0.7085 0.1196 0.9474
C44 C 0.484(2) 0.0727(4) 0.8811(4)
H30 H 0.4118 0.0450 0.8633
H31 H 0.6204 0.0694 0.8742
H32 H 0.4399 0.1113 0.8740
N4 N 0.5047(9) 0.3758(2) 0.94555(18)
N5 N 0.4401(10) 0.3182(2) 0.87014(18)
N6 N 0.4663(10) 0.2051(2) 0.9242(2)
H35 H 0.3516 0.1949 0.9116
H36 H 0.5628 0.1945 0.9051
N9 N 0.4100(9) 0.4950(3) 0.7840(2)
N10 N 0.4528(9) 0.5585(2) 0.86609(18)
O4 O 0.6074(8) 0.2698(2) 0.99030(18)
O5 O 0.6776(9) 0.1959(2) 1.03543(19)
S2 S 0.4464(5) 0.05881(10) 0.93911(10)
Cu2C Cu 0.97379(14) 0.20953(3) 1.06541(3)
O5C O 0.1776(9) 0.3041(2) 0.96457(19)
N11 N 0.4178(13) 0.8297(4) 0.8273(3)
O7 O 0.2803(11) 0.8353(4) 0.8016(2)
O8 O 0.3884(16) 0.8361(6) 0.8679(3)
O9 O 0.5817(11) 0.8170(4) 0.8165(2)
N12 N 0.9764(13) 0.1785(3) 0.8707(2)
O10 O 0.8129(11) 0.1914(3) 0.8574(3)
O11 O 1.1209(13) 0.1843(4) 0.8475(3)
O12 O 1.0036(17) 0.1630(6) 0.9087(3)
O6 O 0.4891(12) 0.6537(3) 0.9380(2)
loop_
_geom_bond_atom_site_label_1
_geom_bond_atom_site_label_2
_geom_bond_site_symmetry_1
_geom_bond_site_symmetry_2
Cu1 N1 1_555 1_555
Cu2 N4 1_555 1_555
C1 H1 1_555 1_555
C2 C1 1_555 1_555
H2 C2 1_555 1_555
C3 C2 1_555 1_555
H3 C3 1_555 1_555
C4 C3 1_555 1_555
C5 C4 1_555 1_555
C6 C7 1_555 1_555
C7 H4 1_555 1_555
C8 C7 1_555 1_555
H5 C8 1_555 1_555
C9 C8 1_555 1_555
H6 C9 1_555 1_555
C10 C9 1_555 1_555
H7 C10 1_555 1_555
C11 C6 1_555 1_555
C12 C5 1_555 1_555
C13 C12 1_555 1_555
C14 C13 1_555 1_555
H8 C14 1_555 1_555
C15 C14 1_555 1_555
H9 C15 1_555 1_555
C16 C15 1_555 1_555
H10 C16 1_555 1_555
C17 C13 1_555 1_555
C18 C4 1_555 1_555
C19 C20 1_555 1_555
C20 H11 1_555 1_555
C21 C20 1_555 1_555
H12 C21 1_555 1_555
H13 C21 1_555 1_555
C22 H14 1_555 1_555
H15 C22 1_555 1_555
H16 C22 1_555 1_555
C23 H17 1_555 1_555
C24 C23 1_555 1_555
H18 C24 1_555 1_555
C25 C24 1_555 1_555
H19 C25 1_555 1_555
C26 C25 1_555 1_555
C27 C26 1_555 1_555
C28 C29 1_555 1_555
C29 H20 1_555 1_555
C30 C29 1_555 1_555
H21 C30 1_555 1_555
C31 C30 1_555 1_555
H22 C31 1_555 1_555
C32 C31 1_555 1_555
H23 C32 1_555 1_555
C33 C28 1_555 1_555
C34 C27 1_555 1_555
C35 C34 1_555 1_555
C36 C35 1_555 1_555
H24 C36 1_555 1_555
C37 C36 1_555 1_555
H25 C37 1_555 1_555
C38 C37 1_555 1_555
H26 C38 1_555 1_555
C39 C35 1_555 1_555
C40 C26 1_555 1_555
C41 C42 1_555 1_555
C42 H27 1_555 1_555
C43 C42 1_555 1_555
H28 C43 1_555 1_555
H29 C43 1_555 1_555
C44 H30 1_555 1_555
H31 C44 1_555 1_555
H32 C44 1_555 1_555
N1 C1 1_555 1_555
N2 Cu1 1_555 1_555
N3 Cu1 1_555 1_555
H33 N3 1_555 1_555
H34 N3 1_555 1_555
N4 C38 1_555 1_555
N5 Cu2 1_555 1_555
N6 Cu2 1_555 1_555
H35 N6 1_555 1_555
H36 N6 1_555 1_555
N7 C5 1_555 1_555
N8 C11 1_555 1_555
N9 C27 1_555 1_555
N10 C33 1_555 1_555
N11 O7 1_555 1_555
N12 O10 1_555 1_555
O1 Cu1 1_555 1_555
O2 C19 1_555 1_555
O3 Cu1 1_555 1_555
O4 Cu2 1_555 1_555
O5 C41 1_555 1_555
O8 N11 1_555 1_555
O9 N11 1_555 1_555
O11 N12 1_555 1_555
O12 N12 1_555 1_555
S1 C21 1_555 1_555
S2 C43 1_555 1_555
Cu2C O5 1_555 1_555
O5C Cu2 1_555 1_555
C6 N7 1_555 1_555
C10 C11 1_555 1_555
C12 N8 1_555 1_555
C16 N2 1_555 1_555
C17 C18 1_555 1_555
C17 N2 1_555 1_555
C18 N1 1_555 1_555
C19 O1 1_555 1_555
C20 N3 1_555 1_555
C22 S1 1_555 1_555
C23 N5 1_555 1_555
C28 N9 1_555 1_555
C32 C33 1_555 1_555
C34 N10 1_555 1_555
C39 C40 1_555 1_555
C39 N4 1_555 1_555
C40 N5 1_555 1_555
C41 O4 1_555 1_555
C42 N6 1_555 1_555
C44 S2 1_555 1_555

#END
