
#######################################################################
#
#                 Cambridge Crystallographic Data Centre
#                                CCDC 
#
#######################################################################
#
# If this CIF has been generated from an entry in the Cambridge 
# Structural Database, then it will include bibliographic, chemical, 
# crystal, experimental, refinement or atomic coordinate data resulting 
# from the CCDC's data processing and validation procedures.
#
#######################################################################

data_WEXZIJ
_symmetry_cell_setting           monoclinic
_symmetry_space_group_name_H-M   'P 21/c'
_symmetry_Int_Tables_number      14
_space_group_name_Hall           '-P 2ybc'
loop_
_symmetry_equiv_pos_site_id
_symmetry_equiv_pos_as_xyz
1 x,y,z
2 -x,1/2+y,1/2-z
3 -x,-y,-z
4 x,1/2-y,1/2+z
_cell_length_a                   16.304(1)
_cell_length_b                   4.750(1)
_cell_length_c                   10.393(6)
_cell_angle_alpha                90
_cell_angle_beta                 95.27(2)
_cell_angle_gamma                90
_cell_volume                     801.473
loop_
_atom_site_label
_atom_site_type_symbol
_atom_site_fract_x
_atom_site_fract_y
_atom_site_fract_z
Ag1 Ag 0.534610(17) 0.02490(6) 0.38052(2)
O1 O 0.43238(15) -0.2824(6) 0.3328(2)
O2 O 0.39036(19) -0.3717(7) 0.5259(2)
O3 O 0.35808(17) -0.7300(6) 0.2271(3)
H1 H 0.3587 -0.9041 0.1982
C1 C 0.2467(2) -0.5708(7) 0.3466(4)
C2 C 0.1958(3) -0.6776(13) 0.4330(5)
H2 H 0.2163 -0.8012 0.4974
C3 C 0.1120(4) -0.5982(18) 0.4231(8)
H3 H 0.0772 -0.6740 0.4802
C4 C 0.0819(4) -0.4154(17) 0.3327(8)
H4 H 0.0268 -0.3622 0.3281
C5 C 0.1321(3) -0.3082(14) 0.2480(7)
H5 H 0.1109 -0.1810 0.1855
C6 C 0.2150(3) -0.3853(11) 0.2527(5)
H6 H 0.2485 -0.3122 0.1931
C7 C 0.3356(2) -0.6591(7) 0.3522(3)
H7 H 0.3436 -0.8246 0.4083
C8 C 0.3925(2) -0.4191(7) 0.4089(3)
Ag1B Ag 0.465390(17) -0.02490(6) 0.61948(2)
Ag1A Ag 0.465390(17) -0.47510(6) 0.11948(2)
O1A O 0.56762(15) 0.2176(6) 0.1672(2)
O2B O 0.60964(19) 0.3717(7) 0.4741(2)
O3A O 0.64192(17) -0.2300(6) 0.2729(3)
H1A H 0.6413 -0.4041 0.3018
loop_
_geom_bond_atom_site_label_1
_geom_bond_atom_site_label_2
_geom_bond_site_symmetry_1
_geom_bond_site_symmetry_2
Ag1 O1 1_555 1_555
O1 C8 1_555 1_555
O2 C8 1_555 1_555
O3 H1 1_555 1_555
C1 C2 1_555 1_555
C2 H2 1_555 1_555
C3 C2 1_555 1_555
H3 C3 1_555 1_555
C4 C3 1_555 1_555
H4 C4 1_555 1_555
C5 C4 1_555 1_555
H5 C5 1_555 1_555
C6 C1 1_555 1_555
H6 C6 1_555 1_555
C7 O3 1_555 1_555
H7 C7 1_555 1_555
C8 C7 1_555 1_555
Ag1B Ag1 1_555 1_555
Ag1A O1 1_555 1_555
O1A Ag1 1_555 1_555
O2B Ag1 1_555 1_555
O3A Ag1 1_555 1_555
H1A O3A 1_555 1_555
O2 Ag1B 1_555 1_555
O3 Ag1A 1_555 1_555
C1 C7 1_555 1_555
C5 C6 1_555 1_555

#END
