
#######################################################################
#
#                 Cambridge Crystallographic Data Centre
#                                CCDC 
#
#######################################################################
#
# If this CIF has been generated from an entry in the Cambridge 
# Structural Database, then it will include bibliographic, chemical, 
# crystal, experimental, refinement or atomic coordinate data resulting 
# from the CCDC's data processing and validation procedures.
#
#######################################################################

data_WEXZOQ
_symmetry_cell_setting           monoclinic
_symmetry_space_group_name_H-M   'P 21/c'
_symmetry_Int_Tables_number      14
_space_group_name_Hall           '-P 2ybc'
loop_
_symmetry_equiv_pos_site_id
_symmetry_equiv_pos_as_xyz
1 x,y,z
2 -x,1/2+y,1/2-z
3 -x,-y,-z
4 x,1/2-y,1/2+z
_cell_length_a                   12.164(7)
_cell_length_b                   19.0805(11)
_cell_length_c                   16.115(7)
_cell_angle_alpha                90
_cell_angle_beta                 125.95(3)
_cell_angle_gamma                90
_cell_volume                     3027.81
loop_
_atom_site_label
_atom_site_type_symbol
_atom_site_fract_x
_atom_site_fract_y
_atom_site_fract_z
Fe1 Fe -0.17333(3) -0.207229(16) 0.04037(2)
S1 S 0.28379(6) -0.52574(4) 0.17319(5)
O1 O -0.11598(16) -0.18533(8) 0.18160(12)
O2 O -0.31872(16) -0.28141(8) -0.01733(13)
O3 O -0.6059(2) -0.34955(11) -0.31616(17)
O4 O -0.55478(19) -0.25733(10) -0.37065(14)
O5 O 0.1462(2) -0.03170(11) 0.39367(14)
O6 O 0.22418(16) -0.01525(9) 0.30059(12)
N1 N -0.03330(18) -0.13205(9) 0.06426(13)
N2 N -0.20952(18) -0.20695(9) -0.10302(13)
N3 N -0.01613(19) -0.29165(9) 0.09858(14)
N4 N 0.6635(2) -0.37810(10) 0.48052(14)
C1 C -0.0355(2) -0.14115(11) 0.24899(16)
C2 C 0.0440(2) -0.09462(11) 0.23522(16)
C3 C 0.0406(2) -0.09292(11) 0.14538(16)
H1 H 0.0976 -0.0601 0.1446
C4 C -0.0216(2) -0.12669(11) -0.01837(15)
C5 C 0.0749(2) -0.08608(12) -0.01668(17)
H2 H 0.1365 -0.0589 0.0415
C6 C 0.0810(2) -0.08533(13) -0.09945(18)
H3 H 0.1443 -0.0564 -0.0985
C7 C -0.0054(3) -0.12693(13) -0.18370(18)
H4 H 0.0008 -0.1272 -0.2391
C8 C -0.1009(2) -0.16808(12) -0.18676(17)
H5 H -0.1582 -0.1970 -0.2439
C9 C -0.1136(2) -0.16740(11) -0.10626(16)
C10 C -0.3179(2) -0.23270(12) -0.18678(17)
H6 H -0.3327 -0.2201 -0.2490
C11 C -0.4157(2) -0.27782(12) -0.19328(19)
C12 C -0.4069(2) -0.30329(12) -0.1074(2)
C13 C -0.0301(3) -0.14227(14) 0.3444(2)
H7 H -0.0990 -0.1740 0.3349
H8 H -0.0466 -0.0955 0.3583
H9 H 0.0588 -0.1581 0.4017
C14 C -0.4982(3) -0.35989(15) -0.1149(2)
H10 H -0.4803 -0.3668 -0.0483
H11 H -0.4810 -0.4032 -0.1370
H12 H -0.5922 -0.3462 -0.1642
C15 C 0.1392(2) -0.04608(12) 0.31764(17)
C16 C 0.3182(3) 0.03528(14) 0.37566(19)
H13 H 0.3758 0.0136 0.4436
H14 H 0.2691 0.0745 0.3791
C17 C 0.4029(3) 0.06041(14) 0.3415(2)
H15 H 0.4516 0.0211 0.3391
H16 H 0.4674 0.0952 0.3895
H17 H 0.3444 0.0812 0.2738
C18 C -0.5317(3) -0.30019(13) -0.2955(2)
C19 C -0.6758(3) -0.27482(18) -0.4718(2)
H18 H -0.6678 -0.3222 -0.4912
H19 H -0.7562 -0.2732 -0.4716
C20 C -0.6884(4) -0.2240(2) -0.5437(3)
H20 H -0.7007 -0.1776 -0.5257
H21 H -0.7661 -0.2357 -0.6125
H22 H -0.6067 -0.2246 -0.5412
C21 C 0.1155(3) -0.27546(13) 0.1538(2)
H23 H 0.1418 -0.2301 0.1816
C22 C 0.2149(2) -0.32112(13) 0.1726(2)
H24 H 0.3061 -0.3067 0.2123
C23 C 0.1809(2) -0.38835(12) 0.13322(16)
C24 C 0.0456(2) -0.40666(13) 0.08149(18)
H25 H 0.0177 -0.4527 0.0571
C25 C -0.0476(2) -0.35806(12) 0.06564(18)
H26 H -0.1389 -0.3720 0.0296
C26 C 0.2848(2) -0.43573(14) 0.14071(19)
H27 H 0.3750 -0.4163 0.1922
H28 H 0.2720 -0.4347 0.0747
C27 C 0.3231(3) -0.51704(14) 0.3000(2)
H29 H 0.2445 -0.4971 0.2941
H30 H 0.3408 -0.5636 0.3312
C28 C 0.4445(2) -0.47099(12) 0.36802(17)
C29 C 0.4339(3) -0.40964(14) 0.4085(2)
H31 H 0.3516 -0.3981 0.3982
C30 C 0.5442(3) -0.36550(14) 0.4641(2)
H32 H 0.5350 -0.3245 0.4917
C31 C 0.6739(2) -0.43844(13) 0.44329(19)
H33 H 0.7576 -0.4491 0.4553
C32 C 0.5692(3) -0.48584(13) 0.3884(2)
H34 H 0.5826 -0.5279 0.3650
Fe1C Fe 0.82667(3) -0.292771(16) 0.54037(2)
N4C N -0.3365(2) -0.12190(10) -0.01948(14)
loop_
_geom_bond_atom_site_label_1
_geom_bond_atom_site_label_2
_geom_bond_site_symmetry_1
_geom_bond_site_symmetry_2
Fe1 O1 1_555 1_555
S1 C26 1_555 1_555
O1 C1 1_555 1_555
O2 Fe1 1_555 1_555
O3 C18 1_555 1_555
O4 C18 1_555 1_555
O5 C15 1_555 1_555
O6 C15 1_555 1_555
N1 Fe1 1_555 1_555
N2 Fe1 1_555 1_555
N3 Fe1 1_555 1_555
N4 C30 1_555 1_555
C1 C2 1_555 1_555
C2 C3 1_555 1_555
C3 N1 1_555 1_555
H1 C3 1_555 1_555
C4 N1 1_555 1_555
C5 C4 1_555 1_555
H2 C5 1_555 1_555
C6 C5 1_555 1_555
H3 C6 1_555 1_555
C7 C6 1_555 1_555
H4 C7 1_555 1_555
C8 C7 1_555 1_555
H5 C8 1_555 1_555
C9 N2 1_555 1_555
C10 N2 1_555 1_555
H6 C10 1_555 1_555
C11 C10 1_555 1_555
C12 O2 1_555 1_555
C13 C1 1_555 1_555
H7 C13 1_555 1_555
H8 C13 1_555 1_555
H9 C13 1_555 1_555
C14 C12 1_555 1_555
H10 C14 1_555 1_555
H11 C14 1_555 1_555
H12 C14 1_555 1_555
C15 C2 1_555 1_555
C16 O6 1_555 1_555
H13 C16 1_555 1_555
H14 C16 1_555 1_555
C17 C16 1_555 1_555
H15 C17 1_555 1_555
H16 C17 1_555 1_555
H17 C17 1_555 1_555
C18 C11 1_555 1_555
C19 O4 1_555 1_555
H18 C19 1_555 1_555
H19 C19 1_555 1_555
C20 C19 1_555 1_555
H20 C20 1_555 1_555
H21 C20 1_555 1_555
H22 C20 1_555 1_555
C21 N3 1_555 1_555
H23 C21 1_555 1_555
C22 C21 1_555 1_555
H24 C22 1_555 1_555
C23 C22 1_555 1_555
C24 C23 1_555 1_555
H25 C24 1_555 1_555
C25 N3 1_555 1_555
H26 C25 1_555 1_555
C26 C23 1_555 1_555
H27 C26 1_555 1_555
H28 C26 1_555 1_555
C27 S1 1_555 1_555
H29 C27 1_555 1_555
H30 C27 1_555 1_555
C28 C27 1_555 1_555
C29 C28 1_555 1_555
H31 C29 1_555 1_555
C30 C29 1_555 1_555
H32 C30 1_555 1_555
C31 N4 1_555 1_555
H33 C31 1_555 1_555
C32 C28 1_555 1_555
H34 C32 1_555 1_555
Fe1C N4 1_555 1_555
N4C Fe1 1_555 1_555
C4 C9 1_555 1_555
C8 C9 1_555 1_555
C11 C12 1_555 1_555
C24 C25 1_555 1_555
C31 C32 1_555 1_555

#END
