
#######################################################################
#
#                 Cambridge Crystallographic Data Centre
#                                CCDC 
#
#######################################################################
#
# If this CIF has been generated from an entry in the Cambridge 
# Structural Database, then it will include bibliographic, chemical, 
# crystal, experimental, refinement or atomic coordinate data resulting 
# from the CCDC's data processing and validation procedures.
#
#######################################################################

data_WEXZIJ01
_symmetry_cell_setting           monoclinic
_symmetry_space_group_name_H-M   'P 21/c'
_symmetry_Int_Tables_number      14
_space_group_name_Hall           '-P 2ybc'
loop_
_symmetry_equiv_pos_site_id
_symmetry_equiv_pos_as_xyz
1 x,y,z
2 -x,1/2+y,1/2-z
3 -x,-y,-z
4 x,1/2-y,1/2+z
_cell_length_a                   16.274(3)
_cell_length_b                   4.7421(9)
_cell_length_c                   10.3421(19)
_cell_angle_alpha                90
_cell_angle_beta                 95.093(5)
_cell_angle_gamma                90
_cell_volume                     794.979
loop_
_atom_site_label
_atom_site_type_symbol
_atom_site_fract_x
_atom_site_fract_y
_atom_site_fract_z
Ag1 Ag 0.53462(4) 0.97500(14) 0.38031(6)
O1 O 0.6098(4) 0.6291(15) 0.4734(5)
C1 C 0.6082(5) 0.5805(15) 0.5908(7)
C2 C 0.6644(5) 0.3404(15) 0.6471(7)
H1 H 0.6565 0.1751 0.5905
O2 O 0.6418(4) 0.2686(13) 0.7722(6)
O3 O 0.5673(3) 0.7159(11) 0.6663(5)
C3 C 0.7529(5) 0.4285(17) 0.6531(8)
C4 C 0.7851(7) 0.613(2) 0.7468(11)
H2 H 0.7512 0.6850 0.8067
C5 C 0.8669(8) 0.694(3) 0.7538(15)
H3 H 0.8879 0.8230 0.8162
C6 C 0.9166(9) 0.581(4) 0.6667(19)
H4 H 0.9721 0.6310 0.6720
C7 C 0.8876(10) 0.403(4) 0.5755(17)
H5 H 0.9224 0.3317 0.5167
C8 C 0.8039(7) 0.320(3) 0.5672(11)
H6 H 0.7836 0.1927 0.5038
Ag1C Ag 0.53462(4) 0.52500(14) 0.88031(6)
Ag1B Ag 0.46538(4) 1.02500(14) 0.61969(6)
O2C O 0.6418(4) 1.2314(13) 0.2722(6)
O3B O 0.4327(3) 1.2841(11) 0.3337(5)
O3C O 0.5673(3) 0.7841(11) 0.1663(5)
loop_
_geom_bond_atom_site_label_1
_geom_bond_atom_site_label_2
_geom_bond_site_symmetry_1
_geom_bond_site_symmetry_2
Ag1 O1 1_555 1_555
O1 C1 1_555 1_555
C1 C2 1_555 1_555
C2 H1 1_555 1_555
O2 C2 1_555 1_555
O3 C1 1_555 1_555
C3 C2 1_555 1_555
C4 C3 1_555 1_555
H2 C4 1_555 1_555
C5 C4 1_555 1_555
H3 C5 1_555 1_555
C6 C5 1_555 1_555
H4 C6 1_555 1_555
C7 C6 1_555 1_555
H5 C7 1_555 1_555
C8 C3 1_555 1_555
H6 C8 1_555 1_555
Ag1C O2 1_555 1_555
Ag1B O3 1_555 1_555
O2C Ag1 1_555 1_555
O3B Ag1 1_555 1_555
O3C Ag1 1_555 1_555
O3 Ag1C 1_555 1_555
C7 C8 1_555 1_555

#END
