
#######################################################################
#
#                 Cambridge Crystallographic Data Centre
#                                CCDC 
#
#######################################################################
#
# If this CIF has been generated from an entry in the Cambridge 
# Structural Database, then it will include bibliographic, chemical, 
# crystal, experimental, refinement or atomic coordinate data resulting 
# from the CCDC's data processing and validation procedures.
#
#######################################################################

data_WEYCIO
_symmetry_cell_setting           monoclinic
_symmetry_space_group_name_H-M   'P 21/c'
_symmetry_Int_Tables_number      14
_space_group_name_Hall           '-P 2ybc'
loop_
_symmetry_equiv_pos_site_id
_symmetry_equiv_pos_as_xyz
1 x,y,z
2 -x,1/2+y,1/2-z
3 -x,-y,-z
4 x,1/2-y,1/2+z
_cell_length_a                   9.472(2)
_cell_length_b                   24.410(5)
_cell_length_c                   14.047(3)
_cell_angle_alpha                90
_cell_angle_beta                 94.177(4)
_cell_angle_gamma                90
_cell_volume                     3239.2
loop_
_atom_site_label
_atom_site_type_symbol
_atom_site_fract_x
_atom_site_fract_y
_atom_site_fract_z
O3 O 0.3856(4) -0.1476(2) 0.8831(4)
H21 H 0.3007 -0.1494 0.8904
O4 O 0.4032(5) -0.2018(2) 1.0102(4)
O5 O 1.1293(5) -0.1436(2) 0.9033(4)
O6 O 1.0976(6) -0.2238(3) 0.8374(6)
C29 C 0.6132(6) -0.1785(3) 0.9354(5)
C30 C 0.6559(7) -0.1729(3) 0.8456(5)
H22 H 0.5886 -0.1673 0.7950
C31 C 0.7989(7) -0.1756(3) 0.8281(5)
H23 H 0.8248 -0.1726 0.7657
C32 C 0.9021(6) -0.1824(3) 0.9010(5)
C33 C 0.8628(6) -0.1880(3) 0.9943(5)
C34 C 0.9656(8) -0.1975(3) 1.0718(6)
H24 H 1.0609 -0.1991 1.0601
C35 C 0.9275(9) -0.2042(4) 1.1621(6)
H25 H 0.9963 -0.2108 1.2114
C36 C 0.7855(9) -0.2012(4) 1.1814(6)
H26 H 0.7606 -0.2051 1.2439
C37 C 0.6822(8) -0.1925(3) 1.1099(5)
H27 H 0.5883 -0.1904 1.1248
C38 C 0.7144(7) -0.1866(3) 1.0150(5)
C39 C 0.4551(7) -0.1769(3) 0.9483(5)
C40 C 1.0569(7) -0.1845(3) 0.8781(5)
O7 O 0.807(2) -0.1700(7) 0.5612(15)
Mn1 Mn 0.46241(11) 0.00966(4) 0.66463(7)
O1 O 0.6700(5) -0.0044(2) 0.6200(3)
O2 O 0.6247(5) -0.0359(2) 0.4724(3)
N1 N 0.3891(6) -0.0774(2) 0.6570(4)
N2 N 0.2480(6) 0.0064(2) 0.7262(4)
N3 N 0.5710(6) 0.0135(2) 0.8160(4)
N4 N 0.5157(6) 0.0973(2) 0.6991(4)
C1 C 0.4633(9) -0.1184(3) 0.6240(6)
H1 H 0.5569 -0.1117 0.6116
C2 C 0.4102(11) -0.1703(3) 0.6070(6)
H2 H 0.4671 -0.1981 0.5856
C3 C 0.2734(12) -0.1795(4) 0.6223(7)
H3 H 0.2331 -0.2136 0.6088
C4 C 0.1941(9) -0.1385(4) 0.6576(6)
H4 H 0.1004 -0.1450 0.6699
C5 C 0.2525(8) -0.0873(3) 0.6752(5)
C6 C 0.1764(7) -0.0408(3) 0.7155(5)
C7 C 0.0373(9) -0.0447(4) 0.7425(7)
H5 H -0.0117 -0.0776 0.7348
C8 C -0.0253(9) -0.0009(4) 0.7796(7)
H6 H -0.1185 -0.0031 0.7961
C9 C 0.0500(9) 0.0472(4) 0.7930(6)
H7 H 0.0105 0.0775 0.8214
C10 C 0.1859(9) 0.0492(3) 0.7632(6)
H8 H 0.2358 0.0820 0.7694
C11 C 0.5879(9) -0.0295(3) 0.8747(5)
H9 H 0.5451 -0.0625 0.8563
C12 C 0.6656(10) -0.0270(4) 0.9605(6)
H10 H 0.6761 -0.0577 0.9996
C13 C 0.7280(10) 0.0220(4) 0.9879(6)
H11 H 0.7819 0.0248 1.0457
C14 C 0.7102(8) 0.0663(4) 0.9299(6)
H12 H 0.7507 0.0998 0.9478
C15 C 0.6299(7) 0.0609(3) 0.8425(5)
C16 C 0.6069(7) 0.1074(3) 0.7749(5)
C17 C 0.6724(9) 0.1575(3) 0.7876(6)
H13 H 0.7345 0.1638 0.8409
C18 C 0.6448(12) 0.1987(4) 0.7199(7)
H14 H 0.6900 0.2325 0.7263
C19 C 0.5511(13) 0.1883(4) 0.6452(7)
H15 H 0.5283 0.2154 0.6000
C20 C 0.4911(11) 0.1385(3) 0.6365(6)
H16 H 0.4283 0.1321 0.5836
C21 C 0.7061(7) -0.0160(3) 0.5388(5)
C22 C 0.8595(7) -0.0080(4) 0.5198(5)
C23 C 0.9333(8) -0.0513(4) 0.4805(5)
C24 C 0.9230(7) 0.0426(4) 0.5389(5)
C25 C 0.9371(19) 0.1538(8) 0.5824(10)
H17 H 0.8840 0.1838 0.5996
C26 C 0.9549(17) -0.1613(7) 0.4296(11)
H18 H 0.9126 -0.1949 0.4147
C27 C 0.8569(13) 0.0962(6) 0.5738(10)
H19 H 0.7640 0.0948 0.5911
C28 C 0.8692(15) -0.1131(6) 0.4739(11)
H20 H 0.7811 -0.1202 0.4964
O1B O 1.3300(5) 0.0044(2) 0.3800(3)
O2B O 1.3753(5) 0.0359(2) 0.5276(3)
C21B C 1.2939(7) 0.0160(3) 0.4612(5)
C22B C 1.1405(7) 0.0080(4) 0.4802(5)
C23B C 1.0667(8) 0.0513(4) 0.5195(5)
C24B C 1.0770(7) -0.0426(4) 0.4611(5)
C25B C 1.0629(19) -0.1538(8) 0.4176(10)
H17B H 1.1160 -0.1838 0.4004
C26B C 1.0451(17) 0.1613(7) 0.5704(11)
H18B H 1.0874 0.1949 0.5853
C27B C 1.1431(13) -0.0962(6) 0.4262(10)
H19B H 1.2360 -0.0948 0.4089
C28B C 1.1308(15) 0.1131(6) 0.5261(11)
H20B H 1.2189 0.1202 0.5036
Mn1B Mn 0.53759(11) -0.00966(4) 0.33537(7)
N1B N 0.6109(6) 0.0774(2) 0.3430(4)
N2B N 0.7520(6) -0.0064(2) 0.2738(4)
N3B N 0.4290(6) -0.0135(2) 0.1840(4)
N4B N 0.4843(6) -0.0973(2) 0.3009(4)
C1B C 0.5367(9) 0.1184(3) 0.3760(6)
H1B H 0.4431 0.1117 0.3884
C2B C 0.5898(11) 0.1703(3) 0.3930(6)
H2B H 0.5329 0.1981 0.4144
C3B C 0.7266(12) 0.1795(4) 0.3777(7)
H3B H 0.7669 0.2136 0.3912
C4B C 0.8059(9) 0.1385(4) 0.3424(6)
H4B H 0.8996 0.1450 0.3301
C5B C 0.7475(8) 0.0873(3) 0.3248(5)
C6B C 0.8236(7) 0.0408(3) 0.2845(5)
C7B C 0.9627(9) 0.0447(4) 0.2575(7)
H5B H 1.0117 0.0776 0.2652
C8B C 1.0253(9) 0.0009(4) 0.2204(7)
H6B H 1.1185 0.0031 0.2039
C9B C 0.9500(9) -0.0472(4) 0.2070(6)
H7B H 0.9895 -0.0775 0.1786
C10B C 0.8141(9) -0.0492(3) 0.2368(6)
H8B H 0.7642 -0.0820 0.2306
C11B C 0.4121(9) 0.0295(3) 0.1253(5)
H9B H 0.4549 0.0625 0.1437
C12B C 0.3344(10) 0.0270(4) 0.0395(6)
H10B H 0.3239 0.0577 0.0004
C13B C 0.2720(10) -0.0220(4) 0.0121(6)
H11B H 0.2181 -0.0248 -0.0457
C14B C 0.2898(8) -0.0663(4) 0.0701(6)
H12B H 0.2493 -0.0998 0.0522
C15B C 0.3701(7) -0.0609(3) 0.1575(5)
C16B C 0.3931(7) -0.1074(3) 0.2251(5)
C17B C 0.3276(9) -0.1575(3) 0.2124(6)
H13B H 0.2655 -0.1638 0.1591
C18B C 0.3552(12) -0.1987(4) 0.2801(7)
H14B H 0.3100 -0.2325 0.2737
C19B C 0.4489(13) -0.1883(4) 0.3548(7)
H15B H 0.4717 -0.2154 0.4000
C20B C 0.5089(11) -0.1385(3) 0.3635(6)
H16B H 0.5717 -0.1321 0.4164
Mn1_2 Mn 1.46241(11) 0.00966(4) 0.66463(7)
Mn1B_2 Mn 1.53759(11) -0.00966(4) 0.33537(7)
O1B_2 O 0.3300(5) 0.0044(2) 0.3800(3)
O2B_2 O 0.3753(5) 0.0359(2) 0.5276(3)
loop_
_geom_bond_atom_site_label_1
_geom_bond_atom_site_label_2
_geom_bond_site_symmetry_1
_geom_bond_site_symmetry_2
Mn1 O1 1_555 1_555
O1 C21 1_555 1_555
O2 C21 1_555 1_555
N1 Mn1 1_555 1_555
N2 Mn1 1_555 1_555
N3 Mn1 1_555 1_555
N4 Mn1 1_555 1_555
C1 N1 1_555 1_555
H1 C1 1_555 1_555
C2 C1 1_555 1_555
H2 C2 1_555 1_555
C3 C2 1_555 1_555
H3 C3 1_555 1_555
C4 C3 1_555 1_555
H4 C4 1_555 1_555
C5 N1 1_555 1_555
C6 N2 1_555 1_555
C7 C6 1_555 1_555
H5 C7 1_555 1_555
C8 C7 1_555 1_555
H6 C8 1_555 1_555
C9 C8 1_555 1_555
H7 C9 1_555 1_555
C10 N2 1_555 1_555
H8 C10 1_555 1_555
C11 N3 1_555 1_555
H9 C11 1_555 1_555
C12 C11 1_555 1_555
H10 C12 1_555 1_555
C13 C12 1_555 1_555
H11 C13 1_555 1_555
C14 C13 1_555 1_555
H12 C14 1_555 1_555
C15 N3 1_555 1_555
C16 N4 1_555 1_555
C17 C16 1_555 1_555
H13 C17 1_555 1_555
C18 C17 1_555 1_555
H14 C18 1_555 1_555
C19 C18 1_555 1_555
H15 C19 1_555 1_555
C20 N4 1_555 1_555
H16 C20 1_555 1_555
C21 C22 1_555 1_555
C22 C23 1_555 1_555
C23 C28 1_555 1_555
C24 C22 1_555 1_555
C25 H17 1_555 1_555
C26 H18 1_555 1_555
C27 C24 1_555 1_555
H19 C27 1_555 1_555
C28 C26 1_555 1_555
H20 C28 1_555 1_555
O3 H21 1_555 1_555
O4 C39 1_555 1_555
O5 C40 1_555 1_555
O6 C40 1_555 1_555
C29 C30 1_555 1_555
C30 H22 1_555 1_555
C31 C30 1_555 1_555
H23 C31 1_555 1_555
C32 C31 1_555 1_555
C33 C32 1_555 1_555
C34 C33 1_555 1_555
H24 C34 1_555 1_555
C35 C34 1_555 1_555
H25 C35 1_555 1_555
C36 C35 1_555 1_555
H26 C36 1_555 1_555
C37 C36 1_555 1_555
H27 C37 1_555 1_555
C38 C29 1_555 1_555
C39 O3 1_555 1_555
C40 C32 1_555 1_555
O1B C21B 1_555 1_555
O2B C21B 1_555 1_555
C21B C22B 1_555 1_555
C22B C23B 1_555 1_555
C23B C24 1_555 1_555
C24B C23 1_555 1_555
C25B C26 1_555 1_555
H17B C25B 1_555 1_555
C26B C25 1_555 1_555
H18B C26B 1_555 1_555
C27B C24B 1_555 1_555
H19B C27B 1_555 1_555
C28B C23B 1_555 1_555
H20B C28B 1_555 1_555
Mn1B O2 1_555 1_555
N1B Mn1B 1_555 1_555
N2B Mn1B 1_555 1_555
N3B Mn1B 1_555 1_555
N4B Mn1B 1_555 1_555
C1B N1B 1_555 1_555
H1B C1B 1_555 1_555
C2B C1B 1_555 1_555
H2B C2B 1_555 1_555
C3B C2B 1_555 1_555
H3B C3B 1_555 1_555
C4B C3B 1_555 1_555
H4B C4B 1_555 1_555
C5B N1B 1_555 1_555
C6B N2B 1_555 1_555
C7B C6B 1_555 1_555
H5B C7B 1_555 1_555
C8B C7B 1_555 1_555
H6B C8B 1_555 1_555
C9B C8B 1_555 1_555
H7B C9B 1_555 1_555
C10B N2B 1_555 1_555
H8B C10B 1_555 1_555
C11B N3B 1_555 1_555
H9B C11B 1_555 1_555
C12B C11B 1_555 1_555
H10B C12B 1_555 1_555
C13B C12B 1_555 1_555
H11B C13B 1_555 1_555
C14B C13B 1_555 1_555
H12B C14B 1_555 1_555
C15B N3B 1_555 1_555
C16B N4B 1_555 1_555
C17B C16B 1_555 1_555
H13B C17B 1_555 1_555
C18B C17B 1_555 1_555
H14B C18B 1_555 1_555
C19B C18B 1_555 1_555
H15B C19B 1_555 1_555
C20B N4B 1_555 1_555
H16B C20B 1_555 1_555
Mn1_2 O2B 1_555 1_555
Mn1B_2 O1B 1_555 1_555
O1B_2 Mn1B 1_555 1_555
O2B_2 Mn1 1_555 1_555
C4 C5 1_555 1_555
C5 C6 1_555 1_555
C9 C10 1_555 1_555
C14 C15 1_555 1_555
C15 C16 1_555 1_555
C19 C20 1_555 1_555
C25 C27 1_555 1_555
C29 C39 1_555 1_555
C33 C38 1_555 1_555
C37 C38 1_555 1_555
C22B C24B 1_555 1_555
C25B C27B 1_555 1_555
C26B C28B 1_555 1_555
C4B C5B 1_555 1_555
C5B C6B 1_555 1_555
C9B C10B 1_555 1_555
C14B C15B 1_555 1_555
C15B C16B 1_555 1_555
C19B C20B 1_555 1_555

#END
