
#######################################################################
#
#                 Cambridge Crystallographic Data Centre
#                                CCDC 
#
#######################################################################
#
# If this CIF has been generated from an entry in the Cambridge 
# Structural Database, then it will include bibliographic, chemical, 
# crystal, experimental, refinement or atomic coordinate data resulting 
# from the CCDC's data processing and validation procedures.
#
#######################################################################

data_WEYCEK
_symmetry_cell_setting           monoclinic
_symmetry_space_group_name_H-M   'P 21/c'
_symmetry_Int_Tables_number      14
_space_group_name_Hall           '-P 2ybc'
loop_
_symmetry_equiv_pos_site_id
_symmetry_equiv_pos_as_xyz
1 x,y,z
2 -x,1/2+y,1/2-z
3 -x,-y,-z
4 x,1/2-y,1/2+z
_cell_length_a                   7.997(3)
_cell_length_b                   16.545(5)
_cell_length_c                   15.624(5)
_cell_angle_alpha                90
_cell_angle_beta                 98.919(5)
_cell_angle_gamma                90
_cell_volume                     2042.22
loop_
_atom_site_label
_atom_site_type_symbol
_atom_site_fract_x
_atom_site_fract_y
_atom_site_fract_z
Zn1 Zn 0.60319(6) 0.59823(3) 0.25925(3)
O1 O 0.6344(4) 0.49539(18) 0.3250(2)
O2 O 0.9036(4) 0.4647(2) 0.3193(3)
O3 O 0.7839(4) 0.06485(18) 0.4352(2)
O4 O 0.5326(4) 0.07229(17) 0.35408(19)
O5 O 0.8341(4) 0.58747(18) 0.2124(2)
H1 H 0.8857 0.5503 0.2437
H2 H 0.8391 0.5831 0.1584
N1 N 0.3915(5) 0.6293(2) 0.3252(2)
N2 N 0.6496(4) 0.7202(2) 0.2876(2)
C1 C 0.2687(6) 0.5834(3) 0.3462(3)
H3 H 0.2692 0.5286 0.3331
C2 C 0.1382(6) 0.6136(3) 0.3871(3)
H4 H 0.0567 0.5790 0.4030
C3 C 0.1318(6) 0.6943(3) 0.4035(3)
H5 H 0.0450 0.7153 0.4301
C4 C 0.2570(6) 0.7460(3) 0.3798(3)
C5 C 0.2598(6) 0.8316(3) 0.3936(3)
H6 H 0.1722 0.8560 0.4168
C6 C 0.3881(6) 0.8773(3) 0.3733(3)
H7 H 0.3870 0.9328 0.3826
C7 C 0.5258(6) 0.8419(2) 0.3377(3)
C8 C 0.6644(7) 0.8856(3) 0.3183(3)
H8 H 0.6710 0.9410 0.3285
C9 C 0.7901(6) 0.8473(3) 0.2842(3)
H9 H 0.8826 0.8761 0.2711
C10 C 0.7778(6) 0.7637(3) 0.2693(3)
H10 H 0.8633 0.7380 0.2456
C11 C 0.5243(5) 0.7580(2) 0.3220(3)
C12 C 0.3875(5) 0.7096(2) 0.3425(3)
C13 C 0.7319(5) 0.3619(2) 0.3650(3)
C14 C 0.8528(5) 0.3069(2) 0.3513(3)
H11 H 0.9511 0.3251 0.3327
C15 C 0.8330(5) 0.2237(2) 0.3643(3)
H12 H 0.9192 0.1880 0.3564
C16 C 0.6858(5) 0.1950(2) 0.3889(3)
C17 C 0.5604(5) 0.2499(2) 0.4089(2)
C18 C 0.4146(5) 0.2227(3) 0.4415(3)
H13 H 0.3958 0.1676 0.4461
C19 C 0.3013(6) 0.2761(3) 0.4662(3)
H14 H 0.2058 0.2571 0.4870
C20 C 0.3283(7) 0.3597(3) 0.4604(3)
H15 H 0.2518 0.3958 0.4785
C21 C 0.4664(6) 0.3878(3) 0.4284(3)
H16 H 0.4828 0.4433 0.4254
C22 C 0.5858(5) 0.3351(2) 0.3997(3)
C23 C 0.7607(6) 0.4477(2) 0.3355(3)
C24 C 0.6664(5) 0.1044(2) 0.3937(3)
Zn1A Zn 0.39681(6) 0.09823(3) 0.24075(3)
O4A O 0.4674(4) 0.57229(17) 0.14592(19)
O6 O 0.8603(5) 0.5719(2) 0.0419(3)
H17 H 0.9676 0.5754 0.0457
H18 H 0.8153 0.5336 0.0096
loop_
_geom_bond_atom_site_label_1
_geom_bond_atom_site_label_2
_geom_bond_site_symmetry_1
_geom_bond_site_symmetry_2
Zn1 O1 1_555 1_555
O1 C23 1_555 1_555
O2 C23 1_555 1_555
O3 C24 1_555 1_555
O4 C24 1_555 1_555
O5 Zn1 1_555 1_555
H1 O5 1_555 1_555
H2 O5 1_555 1_555
N1 Zn1 1_555 1_555
N2 Zn1 1_555 1_555
C1 N1 1_555 1_555
H3 C1 1_555 1_555
C2 C1 1_555 1_555
H4 C2 1_555 1_555
C3 C2 1_555 1_555
H5 C3 1_555 1_555
C4 C3 1_555 1_555
C5 C4 1_555 1_555
H6 C5 1_555 1_555
C6 C5 1_555 1_555
H7 C6 1_555 1_555
C7 C6 1_555 1_555
C8 C7 1_555 1_555
H8 C8 1_555 1_555
C9 C8 1_555 1_555
H9 C9 1_555 1_555
C10 N2 1_555 1_555
H10 C10 1_555 1_555
C11 N2 1_555 1_555
C12 N1 1_555 1_555
C13 C14 1_555 1_555
C14 H11 1_555 1_555
C15 C14 1_555 1_555
H12 C15 1_555 1_555
C16 C15 1_555 1_555
C17 C16 1_555 1_555
C18 C17 1_555 1_555
H13 C18 1_555 1_555
C19 C18 1_555 1_555
H14 C19 1_555 1_555
C20 C19 1_555 1_555
H15 C20 1_555 1_555
C21 C20 1_555 1_555
H16 C21 1_555 1_555
C22 C13 1_555 1_555
C23 C13 1_555 1_555
C24 C16 1_555 1_555
O6 H17 1_555 1_555
H18 O6 1_555 1_555
Zn1A O4 1_555 1_555
O4A Zn1 1_555 1_555
C4 C12 1_555 1_555
C7 C11 1_555 1_555
C9 C10 1_555 1_555
C11 C12 1_555 1_555
C17 C22 1_555 1_555
C21 C22 1_555 1_555

#END
