
#######################################################################
#
#                 Cambridge Crystallographic Data Centre
#                                CCDC 
#
#######################################################################
#
# If this CIF has been generated from an entry in the Cambridge 
# Structural Database, then it will include bibliographic, chemical, 
# crystal, experimental, refinement or atomic coordinate data resulting 
# from the CCDC's data processing and validation procedures.
#
#######################################################################

data_WEYCUA
_symmetry_cell_setting           monoclinic
_symmetry_space_group_name_H-M   'C 2/c'
_symmetry_Int_Tables_number      15
_space_group_name_Hall           '-C 2yn'
loop_
_symmetry_equiv_pos_site_id
_symmetry_equiv_pos_as_xyz
1 x,y,z
2 -x,y,1/2-z
3 1/2+x,1/2+y,z
4 1/2-x,1/2+y,1/2-z
5 -x,-y,-z
6 x,-y,1/2+z
7 1/2-x,1/2-y,-z
8 1/2+x,1/2-y,1/2+z
_cell_length_a                   41.396(8)
_cell_length_b                   13.293(3)
_cell_length_c                   15.059(3)
_cell_angle_alpha                90
_cell_angle_beta                 108.011(3)
_cell_angle_gamma                90
_cell_volume                     7880.55
loop_
_atom_site_label
_atom_site_type_symbol
_atom_site_fract_x
_atom_site_fract_y
_atom_site_fract_z
Co1 Co 0.671858(8) 0.22108(2) 0.65204(2)
Co2 Co 0.582528(8) 0.22805(2) 0.58369(2)
O1 O 0.62783(4) 0.11777(13) 0.62321(12)
O2 O 0.67389(4) 0.09245(14) 0.74069(14)
O3 O 0.57555(5) -0.17887(16) 0.95392(13)
O4 O 0.55373(5) -0.27284(15) 0.82850(15)
O5 O 0.60545(4) 0.35641(13) 0.55316(13)
O6 O 0.65852(4) 0.32679(13) 0.55184(13)
O7 O 0.60219(4) 0.73649(13) 0.22610(12)
O8 O 0.65658(4) 0.69678(14) 0.24515(13)
N1 N 0.72104(5) 0.28341(15) 0.70353(15)
N2 N 0.69873(5) 0.13831(15) 0.57637(14)
N3 N 0.54679(5) 0.11868(15) 0.59682(14)
N4 N 0.54096(5) 0.31855(16) 0.59058(14)
C1 C 0.73092(7) 0.3593(2) 0.76227(19)
H1 H 0.7157 0.3856 0.7905
C2 C 0.76318(8) 0.4013(2) 0.7835(2)
H2 H 0.7690 0.4569 0.8227
C3 C 0.78610(8) 0.3601(3) 0.7462(2)
H3 H 0.8079 0.3866 0.7612
C4 C 0.77707(7) 0.2781(2) 0.6853(2)
C5 C 0.79919(8) 0.2303(3) 0.6420(3)
H4 H 0.8216 0.2516 0.6569
C6 C 0.78849(8) 0.1557(3) 0.5810(3)
H5 H 0.8036 0.1260 0.5542
C7 C 0.75418(7) 0.1205(2) 0.5558(2)
C8 C 0.74076(9) 0.0456(3) 0.4901(2)
H6 H 0.7548 0.0130 0.4615
C9 C 0.70752(9) 0.0196(2) 0.4673(2)
H7 H 0.6985 -0.0294 0.4224
C10 C 0.68716(7) 0.0680(2) 0.5126(2)
H8 H 0.6644 0.0498 0.4971
C11 C 0.73184(6) 0.16483(19) 0.59769(18)
C12 C 0.74354(6) 0.2435(2) 0.66447(18)
C13 C 0.54918(7) 0.0198(2) 0.59451(19)
H9 H 0.5679 -0.0081 0.5819
C14 C 0.52502(9) -0.0447(2) 0.6101(2)
H10 H 0.5277 -0.1141 0.6084
C15 C 0.49734(9) -0.0049(3) 0.6279(2)
H11 H 0.4812 -0.0471 0.6399
C16 C 0.49322(7) 0.0991(2) 0.6281(2)
C17 C 0.46505(8) 0.1496(3) 0.6451(2)
H12 H 0.4480 0.1114 0.6570
C18 C 0.46252(8) 0.2494(3) 0.6443(3)
H13 H 0.4439 0.2792 0.6557
C19 C 0.48794(7) 0.3115(3) 0.6264(2)
C20 C 0.48750(9) 0.4174(3) 0.6264(2)
H14 H 0.4696 0.4515 0.6380
C21 C 0.51295(8) 0.4697(2) 0.6095(2)
H15 H 0.5129 0.5397 0.6104
C22 C 0.53920(7) 0.4177(2) 0.5909(2)
H16 H 0.5564 0.4544 0.5781
C23 C 0.51576(6) 0.2652(2) 0.60916(18)
C24 C 0.51882(6) 0.1583(2) 0.61148(17)
C25 C 0.62606(6) -0.00437(19) 0.73960(17)
C26 C 0.61747(7) 0.0217(2) 0.81734(19)
H17 H 0.6227 0.0856 0.8427
C27 C 0.60108(7) -0.0461(2) 0.85864(19)
H18 H 0.5955 -0.0265 0.9114
C28 C 0.59282(6) -0.14092(19) 0.82410(17)
C29 C 0.60217(6) -0.17276(19) 0.74480(18)
C30 C 0.59666(7) -0.2711(2) 0.7066(2)
H19 H 0.5865 -0.3189 0.7342
C31 C 0.60583(9) -0.2968(2) 0.6313(3)
H20 H 0.6019 -0.3620 0.6080
C32 C 0.62121(8) -0.2266(2) 0.5873(2)
H21 H 0.6271 -0.2449 0.5346
C33 C 0.62744(7) -0.1323(2) 0.6219(2)
H22 H 0.6376 -0.0859 0.5926
C34 C 0.61887(6) -0.10282(19) 0.70163(18)
C35 C 0.64368(6) 0.07173(18) 0.69797(19)
C36 C 0.57262(7) -0.2046(2) 0.87220(19)
C37 C 0.63037(6) 0.46976(18) 0.47379(18)
C38 C 0.60379(6) 0.47919(19) 0.39359(19)
H23 H 0.5857 0.4344 0.3815
C39 C 0.60347(6) 0.55523(19) 0.32967(18)
H24 H 0.5849 0.5610 0.2760
C40 C 0.62976(6) 0.62130(18) 0.34425(17)
C41 C 0.65703(6) 0.61860(18) 0.43016(17)
C42 C 0.68316(7) 0.6917(2) 0.4533(2)
H25 H 0.6837 0.7411 0.4101
C43 C 0.70755(7) 0.6903(2) 0.5385(2)
H26 H 0.7247 0.7384 0.5528
C44 C 0.70682(7) 0.6168(2) 0.6044(2)
H27 H 0.7232 0.6173 0.6627
C45 C 0.68241(7) 0.5451(2) 0.58383(19)
H28 H 0.6825 0.4963 0.6282
C46 C 0.65673(6) 0.54280(18) 0.49594(17)
C47 C 0.63160(7) 0.37761(19) 0.53239(18)
C48 C 0.62947(6) 0.69161(18) 0.26600(17)
Co1E Co 0.671858(8) 0.77892(2) 0.15204(2)
Co2E Co 0.582528(8) -0.22805(2) 1.08369(2)
Co2E_2 Co 0.582528(8) 0.77195(2) 0.08369(2)
O3E O 0.57555(5) 0.17887(16) 0.45392(13)
O7E O 0.60219(4) 0.26351(13) 0.72610(12)
O8E O 0.65658(4) 0.30322(14) 0.74515(13)
O9 O 0.49015(5) -0.28599(15) 0.86595(16)
H29 H 0.4753 -0.2804 0.8121
H30 H 0.5104 -0.2848 0.8645
loop_
_geom_bond_atom_site_label_1
_geom_bond_atom_site_label_2
_geom_bond_site_symmetry_1
_geom_bond_site_symmetry_2
Co1 O1 1_555 1_555
Co2 O1 1_555 1_555
O1 C35 1_555 1_555
O2 Co1 1_555 1_555
O3 C36 1_555 1_555
O4 C36 1_555 1_555
O5 Co2 1_555 1_555
O6 Co1 1_555 1_555
O7 C48 1_555 1_555
O8 C48 1_555 1_555
N1 Co1 1_555 1_555
N2 Co1 1_555 1_555
N3 Co2 1_555 1_555
N4 Co2 1_555 1_555
C1 N1 1_555 1_555
H1 C1 1_555 1_555
C2 C1 1_555 1_555
H2 C2 1_555 1_555
C3 C2 1_555 1_555
H3 C3 1_555 1_555
C4 C3 1_555 1_555
C5 C4 1_555 1_555
H4 C5 1_555 1_555
C6 C5 1_555 1_555
H5 C6 1_555 1_555
C7 C6 1_555 1_555
C8 C7 1_555 1_555
H6 C8 1_555 1_555
C9 C8 1_555 1_555
H7 C9 1_555 1_555
C10 N2 1_555 1_555
H8 C10 1_555 1_555
C11 N2 1_555 1_555
C12 N1 1_555 1_555
C13 N3 1_555 1_555
H9 C13 1_555 1_555
C14 C13 1_555 1_555
H10 C14 1_555 1_555
C15 C14 1_555 1_555
H11 C15 1_555 1_555
C16 C15 1_555 1_555
C17 C16 1_555 1_555
H12 C17 1_555 1_555
C18 C17 1_555 1_555
H13 C18 1_555 1_555
C19 C18 1_555 1_555
C20 C19 1_555 1_555
H14 C20 1_555 1_555
C21 C20 1_555 1_555
H15 C21 1_555 1_555
C22 N4 1_555 1_555
H16 C22 1_555 1_555
C23 N4 1_555 1_555
C24 N3 1_555 1_555
C25 C26 1_555 1_555
C26 H17 1_555 1_555
C27 C26 1_555 1_555
H18 C27 1_555 1_555
C28 C27 1_555 1_555
C29 C28 1_555 1_555
C30 C29 1_555 1_555
H19 C30 1_555 1_555
C31 C30 1_555 1_555
H20 C31 1_555 1_555
C32 C31 1_555 1_555
H21 C32 1_555 1_555
C33 C32 1_555 1_555
H22 C33 1_555 1_555
C34 C25 1_555 1_555
C35 O2 1_555 1_555
C36 C28 1_555 1_555
C37 C38 1_555 1_555
C38 H23 1_555 1_555
C39 C38 1_555 1_555
H24 C39 1_555 1_555
C40 C39 1_555 1_555
C41 C40 1_555 1_555
C42 C41 1_555 1_555
H25 C42 1_555 1_555
C43 C42 1_555 1_555
H26 C43 1_555 1_555
C44 C43 1_555 1_555
H27 C44 1_555 1_555
C45 C44 1_555 1_555
H28 C45 1_555 1_555
C46 C37 1_555 1_555
C47 O5 1_555 1_555
C48 C40 1_555 1_555
O9 H29 1_555 1_555
H30 O9 1_555 1_555
Co1E O8 1_555 1_555
Co2E O3 1_555 1_555
Co2E_2 O7 1_555 1_555
O3E Co2 1_555 1_555
O7E Co2 1_555 1_555
O8E Co1 1_555 1_555
O6 C47 1_555 1_555
C4 C12 1_555 1_555
C7 C11 1_555 1_555
C9 C10 1_555 1_555
C11 C12 1_555 1_555
C16 C24 1_555 1_555
C19 C23 1_555 1_555
C21 C22 1_555 1_555
C23 C24 1_555 1_555
C25 C35 1_555 1_555
C29 C34 1_555 1_555
C33 C34 1_555 1_555
C37 C47 1_555 1_555
C41 C46 1_555 1_555
C45 C46 1_555 1_555

#END
