
#######################################################################
#
#                 Cambridge Crystallographic Data Centre
#                                CCDC 
#
#######################################################################
#
# If this CIF has been generated from an entry in the Cambridge 
# Structural Database, then it will include bibliographic, chemical, 
# crystal, experimental, refinement or atomic coordinate data resulting 
# from the CCDC's data processing and validation procedures.
#
#######################################################################

data_WEYCOU
_symmetry_cell_setting           triclinic
_symmetry_space_group_name_H-M   'P -1'
_symmetry_Int_Tables_number      2
_space_group_name_Hall           '-P 1'
loop_
_symmetry_equiv_pos_site_id
_symmetry_equiv_pos_as_xyz
1 x,y,z
2 -x,-y,-z
_cell_length_a                   9.6736(14)
_cell_length_b                   14.605(2)
_cell_length_c                   14.683(2)
_cell_angle_alpha                76.648(2)
_cell_angle_beta                 87.672(2)
_cell_angle_gamma                70.980(2)
_cell_volume                     1906.84
loop_
_atom_site_label
_atom_site_type_symbol
_atom_site_fract_x
_atom_site_fract_y
_atom_site_fract_z
Cu1 Cu 0.66856(4) 0.99102(2) 0.43470(2)
Cu2 Cu 0.33549(4) 0.52964(3) 1.05561(2)
O1 O 0.8011(2) 0.79319(17) 0.57978(18)
O2 O 0.5879(2) 0.91069(14) 0.53701(14)
O3 O 0.4211(2) 0.57797(14) 0.93716(13)
O4 O 0.2180(2) 0.64162(19) 0.84730(17)
O5 O 0.5833(2) 0.94818(17) 0.34271(14)
O6 O 0.7858(3) 0.82468(19) 0.33326(19)
O7 O 0.4112(2) 0.61049(17) 0.11184(16)
O8 O 0.2075(3) 0.7383(2) 0.0829(2)
N1 N 0.7552(3) 1.05241(17) 0.51535(16)
N2 N 0.7850(3) 1.05557(19) 0.33859(17)
N3 N 0.2424(3) 0.44174(17) 1.01382(17)
N4 N 0.2226(3) 0.4977(2) 1.17070(18)
C1 C 0.7323(3) 1.0484(2) 0.6063(2)
H1 H 0.6707 1.0144 0.6362
C2 C 0.7967(4) 1.0930(3) 0.6574(2)
H2 H 0.7786 1.0894 0.7206
C3 C 0.8882(4) 1.1428(3) 0.6134(3)
H3 H 0.9335 1.1730 0.6466
C4 C 0.9124(4) 1.1478(3) 0.5191(3)
H4 H 0.9740 1.1812 0.4881
C5 C 0.8439(3) 1.1026(2) 0.4724(2)
C6 C 0.8626(3) 1.1029(2) 0.3721(2)
C7 C 0.9545(4) 1.1453(2) 0.3164(2)
H5 H 1.0058 1.1789 0.3406
C8 C 0.9692(4) 1.1373(3) 0.2243(2)
H6 H 1.0317 1.1644 0.1861
C9 C 0.8907(4) 1.0888(3) 0.1898(2)
H7 H 0.8988 1.0827 0.1279
C10 C 0.7998(4) 1.0496(3) 0.2487(2)
H8 H 0.7460 1.0172 0.2251
C11 C 0.2657(4) 0.4117(2) 0.9344(2)
H9 H 0.3320 0.4314 0.8934
C12 C 0.1945(4) 0.3516(3) 0.9104(3)
H10 H 0.2138 0.3301 0.8549
C13 C 0.0944(4) 0.3245(3) 0.9708(3)
H11 H 0.0432 0.2858 0.9556
C14 C 0.0708(4) 0.3543(2) 1.0525(3)
H12 H 0.0038 0.3360 1.0938
C15 C 0.1473(3) 0.4123(2) 1.0738(2)
C16 C 0.1344(3) 0.4453(2) 1.1615(2)
C17 C 0.0407(4) 0.4250(3) 1.2319(3)
H13 H -0.0209 0.3898 1.2242
C18 C 0.0398(5) 0.4569(4) 1.3117(3)
H14 H -0.0223 0.4435 1.3592
C19 C 0.1300(5) 0.5084(4) 1.3219(3)
H15 H 0.1301 0.5308 1.3763
C20 C 0.2221(5) 0.5275(3) 1.2502(3)
H16 H 0.2851 0.5618 1.2577
C21 C 0.5874(3) 0.77244(19) 0.6558(2)
C22 C 0.5885(3) 0.7780(2) 0.7473(2)
H17 H 0.6414 0.8139 0.7660
C23 C 0.5108(3) 0.7302(2) 0.8131(2)
H18 H 0.5131 0.7349 0.8750
C24 C 0.4314(3) 0.6766(2) 0.7884(2)
C25 C 0.4294(3) 0.6683(2) 0.6936(2)
C26 C 0.3546(4) 0.6099(2) 0.6638(2)
H19 H 0.3032 0.5771 0.7068
C27 C 0.3577(5) 0.6019(3) 0.5740(3)
H20 H 0.3075 0.5643 0.5556
C28 C 0.4364(5) 0.6501(3) 0.5076(3)
H21 H 0.4384 0.6435 0.4460
C29 C 0.5089(4) 0.7059(2) 0.5333(2)
H22 H 0.5592 0.7381 0.4888
C30 C 0.5094(3) 0.7162(2) 0.6269(2)
C31 C 0.3467(3) 0.6298(2) 0.8618(2)
C32 C 0.6681(3) 0.8274(2) 0.5860(2)
C33 C 0.5688(3) 0.8339(2) 0.2567(2)
C34 C 0.5863(4) 0.7345(2) 0.2812(2)
H23 H 0.6518 0.6934 0.3299
C35 C 0.5071(4) 0.6936(2) 0.2339(2)
H24 H 0.5191 0.6261 0.2530
C36 C 0.4124(3) 0.7507(2) 0.1602(2)
C37 C 0.3915(3) 0.8543(2) 0.1321(2)
C38 C 0.2954(4) 0.9181(3) 0.0567(3)
H25 H 0.2418 0.8921 0.0247
C39 C 0.2795(5) 1.0171(3) 0.0298(3)
H26 H 0.2166 1.0572 -0.0205
C40 C 0.3567(5) 1.0580(3) 0.0770(3)
H27 H 0.3449 1.1256 0.0586
C41 C 0.4498(4) 0.9996(2) 0.1503(2)
H28 H 0.5007 1.0282 0.1813
C42 C 0.4712(3) 0.8964(2) 0.1806(2)
C43 C 0.6551(4) 0.8708(2) 0.3144(2)
C44 C 0.3342(4) 0.6990(3) 0.1135(2)
Cu1A Cu 0.33144(4) 1.00898(2) 0.56530(2)
Cu2_2 Cu 0.33549(4) 0.52964(3) 0.05561(2)
Cu2A Cu 0.66451(4) 0.47036(3) 0.94439(2)
O2A O 0.4121(2) 1.08931(14) 0.46299(14)
O3A O 0.5789(2) 0.42203(14) 1.06284(13)
O7_2 O 0.4112(2) 0.61049(17) 1.11184(16)
O9 O 0.9381(5) 0.6493(3) 0.4639(3)
H29 H 0.9040 0.6753 0.5096
H30 H 0.8966 0.6903 0.4139
O10 O -0.0487(5) 0.8459(4) 0.1603(3)
H31 H 0.0441 0.8218 0.1614
H32 H -0.0806 0.8016 0.1934
loop_
_geom_bond_atom_site_label_1
_geom_bond_atom_site_label_2
_geom_bond_site_symmetry_1
_geom_bond_site_symmetry_2
Cu1 O2 1_555 1_555
Cu2 O3 1_555 1_555
O1 C32 1_555 1_555
O2 C32 1_555 1_555
O3 C31 1_555 1_555
O4 C31 1_555 1_555
O5 Cu1 1_555 1_555
O6 C43 1_555 1_555
O7 C44 1_555 1_555
O8 C44 1_555 1_555
N1 Cu1 1_555 1_555
N2 Cu1 1_555 1_555
N3 Cu2 1_555 1_555
N4 Cu2 1_555 1_555
C1 N1 1_555 1_555
H1 C1 1_555 1_555
C2 C1 1_555 1_555
H2 C2 1_555 1_555
C3 C2 1_555 1_555
H3 C3 1_555 1_555
C4 C3 1_555 1_555
H4 C4 1_555 1_555
C5 N1 1_555 1_555
C6 N2 1_555 1_555
C7 C6 1_555 1_555
H5 C7 1_555 1_555
C8 C7 1_555 1_555
H6 C8 1_555 1_555
C9 C8 1_555 1_555
H7 C9 1_555 1_555
C10 N2 1_555 1_555
H8 C10 1_555 1_555
C11 N3 1_555 1_555
H9 C11 1_555 1_555
C12 C11 1_555 1_555
H10 C12 1_555 1_555
C13 C12 1_555 1_555
H11 C13 1_555 1_555
C14 C13 1_555 1_555
H12 C14 1_555 1_555
C15 N3 1_555 1_555
C16 N4 1_555 1_555
C17 C16 1_555 1_555
H13 C17 1_555 1_555
C18 C17 1_555 1_555
H14 C18 1_555 1_555
C19 C18 1_555 1_555
H15 C19 1_555 1_555
C20 N4 1_555 1_555
H16 C20 1_555 1_555
C21 C22 1_555 1_555
C22 H17 1_555 1_555
C23 C22 1_555 1_555
H18 C23 1_555 1_555
C24 C23 1_555 1_555
C25 C24 1_555 1_555
C26 C25 1_555 1_555
H19 C26 1_555 1_555
C27 C26 1_555 1_555
H20 C27 1_555 1_555
C28 C27 1_555 1_555
H21 C28 1_555 1_555
C29 C28 1_555 1_555
H22 C29 1_555 1_555
C30 C21 1_555 1_555
C31 C24 1_555 1_555
C32 C21 1_555 1_555
C33 C34 1_555 1_555
C34 H23 1_555 1_555
C35 C34 1_555 1_555
H24 C35 1_555 1_555
C36 C35 1_555 1_555
C37 C36 1_555 1_555
C38 C37 1_555 1_555
H25 C38 1_555 1_555
C39 C38 1_555 1_555
H26 C39 1_555 1_555
C40 C39 1_555 1_555
H27 C40 1_555 1_555
C41 C40 1_555 1_555
H28 C41 1_555 1_555
C42 C33 1_555 1_555
C43 O5 1_555 1_555
C44 C36 1_555 1_555
O9 H29 1_555 1_555
H30 O9 1_555 1_555
O10 H31 1_555 1_555
H32 O10 1_555 1_555
Cu1A O2 1_555 1_555
Cu2_2 O7 1_555 1_555
Cu2A O3 1_555 1_555
O2A Cu1 1_555 1_555
O3A Cu2 1_555 1_555
O7_2 Cu2 1_555 1_555
C4 C5 1_555 1_555
C5 C6 1_555 1_555
C9 C10 1_555 1_555
C14 C15 1_555 1_555
C15 C16 1_555 1_555
C19 C20 1_555 1_555
C25 C30 1_555 1_555
C29 C30 1_555 1_555
C33 C43 1_555 1_555
C37 C42 1_555 1_555
C41 C42 1_555 1_555
Cu1A O2A 1_555 1_555
Cu2A O3A 1_555 1_555

#END
