
#######################################################################
#
#                 Cambridge Crystallographic Data Centre
#                                CCDC 
#
#######################################################################
#
# If this CIF has been generated from an entry in the Cambridge 
# Structural Database, then it will include bibliographic, chemical, 
# crystal, experimental, refinement or atomic coordinate data resulting 
# from the CCDC's data processing and validation procedures.
#
#######################################################################

data_WEYDAH
_symmetry_cell_setting           monoclinic
_symmetry_space_group_name_H-M   'P 21/n'
_symmetry_Int_Tables_number      14
_space_group_name_Hall           '-P 2yn'
loop_
_symmetry_equiv_pos_site_id
_symmetry_equiv_pos_as_xyz
1 x,y,z
2 1/2-x,1/2+y,1/2-z
3 -x,-y,-z
4 1/2+x,1/2-y,1/2+z
_cell_length_a                   8.666(4)
_cell_length_b                   13.800(6)
_cell_length_c                   10.845(5)
_cell_angle_alpha                90
_cell_angle_beta                 93.237(7)
_cell_angle_gamma                90
_cell_volume                     1294.89
loop_
_atom_site_label
_atom_site_type_symbol
_atom_site_fract_x
_atom_site_fract_y
_atom_site_fract_z
Cu1 Cu 0.15507(5) 0.80845(3) 0.33662(4)
Ni1 Ni -0.25728(6) 0.55693(4) 0.27571(4)
N1 N -0.5031(4) 0.4090(3) 0.2121(3)
N2 N -0.3055(4) 0.6406(3) 0.0201(3)
N3 N -0.0121(4) 0.7064(2) 0.3338(3)
N4 N -0.2361(5) 0.4815(3) 0.5370(4)
N5 N 0.3195(4) 0.8650(3) 0.2300(3)
N6 N 0.3166(4) 0.7036(2) 0.3437(3)
C1 C -0.4099(5) 0.4646(3) 0.2376(4)
C2 C -0.2840(4) 0.6071(3) 0.1153(4)
C3 C -0.1049(5) 0.6494(3) 0.3135(4)
C4 C -0.2410(5) 0.5096(3) 0.4376(4)
C5 C 0.4586(5) 0.8941(3) 0.3062(5)
H1 H 0.4273 0.9323 0.3756
H2 H 0.5230 0.9347 0.2572
C6 C 0.5519(5) 0.8084(4) 0.3540(6)
H3 H 0.6321 0.8317 0.4126
H4 H 0.6026 0.7795 0.2854
C7 C 0.4617(5) 0.7304(4) 0.4156(5)
H5 H 0.5261 0.6733 0.4267
H6 H 0.4361 0.7528 0.4968
C8 C 0.3415(6) 0.6871(3) 0.2110(5)
H7 H 0.2571 0.6490 0.1738
H8 H 0.4369 0.6515 0.2027
C9 C 0.3501(6) 0.7856(4) 0.1447(4)
H9 H 0.4520 0.7937 0.1134
H10 H 0.2748 0.7872 0.0751
Cu1A Cu -0.65507(5) 0.30845(3) 0.16338(4)
Cu1C Cu -0.34493(5) 0.69155(3) -0.16338(4)
N1A N 0.0031(4) 0.9090(3) 0.2879(3)
N2C N 0.1945(4) 0.8594(3) 0.5201(3)
loop_
_geom_bond_atom_site_label_1
_geom_bond_atom_site_label_2
_geom_bond_site_symmetry_1
_geom_bond_site_symmetry_2
Cu1 N3 1_555 1_555
Ni1 C1 1_555 1_555
N1 C1 1_555 1_555
N2 C2 1_555 1_555
N3 C3 1_555 1_555
N4 C4 1_555 1_555
N5 Cu1 1_555 1_555
N6 Cu1 1_555 1_555
C2 Ni1 1_555 1_555
C3 Ni1 1_555 1_555
C4 Ni1 1_555 1_555
C5 N5 1_555 1_555
H1 C5 1_555 1_555
H2 C5 1_555 1_555
C6 C5 1_555 1_555
H3 C6 1_555 1_555
H4 C6 1_555 1_555
C7 N6 1_555 1_555
H5 C7 1_555 1_555
H6 C7 1_555 1_555
C8 N6 1_555 1_555
H7 C8 1_555 1_555
H8 C8 1_555 1_555
C9 N5 1_555 1_555
H9 C9 1_555 1_555
H10 C9 1_555 1_555
Cu1A N1 1_555 1_555
Cu1C N2 1_555 1_555
N1A Cu1 1_555 1_555
N2C Cu1 1_555 1_555
C6 C7 1_555 1_555
C8 C9 1_555 1_555

#END
