
#######################################################################
#
#                 Cambridge Crystallographic Data Centre
#                                CCDC 
#
#######################################################################
#
# If this CIF has been generated from an entry in the Cambridge 
# Structural Database, then it will include bibliographic, chemical, 
# crystal, experimental, refinement or atomic coordinate data resulting 
# from the CCDC's data processing and validation procedures.
#
#######################################################################

data_WEYFIR
_symmetry_cell_setting           monoclinic
_symmetry_space_group_name_H-M   'P 2/c'
_symmetry_Int_Tables_number      13
_space_group_name_Hall           '-P 2yc'
loop_
_symmetry_equiv_pos_site_id
_symmetry_equiv_pos_as_xyz
1 x,y,z
2 -x,y,1/2-z
3 -x,-y,-z
4 x,-y,1/2+z
_cell_length_a                   18.348(2)
_cell_length_b                   10.9080(14)
_cell_length_c                   13.7924(18)
_cell_angle_alpha                90
_cell_angle_beta                 98.156(2)
_cell_angle_gamma                90
_cell_volume                     2732.49
loop_
_atom_site_label
_atom_site_type_symbol
_atom_site_fract_x
_atom_site_fract_y
_atom_site_fract_z
C1 C 1.0000 0.1791(7) 1.2500
C2 C 1.0000 0.0438(6) 1.2500
C3 C 1.0448(3) -0.0199(5) 1.1952(4)
H1 H 1.0751 0.0226 1.1582
C4 C 1.0000 -0.3467(7) 1.2500
C5 C 1.0000 -0.2091(6) 1.2500
C6 C 0.5000 -0.0216(6) 0.7500
C7 C 0.5000 -0.1560(6) 0.7500
C8 C 0.5000 -0.5516(6) 0.7500
C9 C 0.5000 -0.4142(6) 0.7500
C10 C 0.8736(3) 0.4006(4) 1.1370(4)
C11 C 0.6211(3) 0.2382(5) 0.8657(4)
C12 C 0.8080(3) 0.3705(5) 1.0631(4)
C13 C 0.6499(3) 0.0893(5) 0.4268(4)
H2 H 0.6570 0.0131 0.3995
C14 C 1.0447(3) -0.1440(5) 1.1951(4)
H3 H 1.0749 -0.1862 1.1578
C15 C 0.4749(3) -0.3465(5) 0.8247(4)
H4 H 0.4582 -0.3881 0.8760
C16 C 0.4741(3) -0.2203(5) 0.8248(4)
H5 H 0.4562 -0.1782 0.8751
C17 C 0.8174(3) 0.3179(5) 0.9741(4)
H6 H 0.8646 0.3104 0.9574
C18 C 0.6248(3) 0.3039(5) 0.5108(4)
H7 H 0.6165 0.3793 0.5386
C19 C 0.6113(3) 0.0975(4) 0.5055(4)
H8 H 0.5937 0.0257 0.5302
C20 C 0.6646(3) 0.3015(5) 0.4323(4)
H9 H 0.6824 0.3741 0.4093
C21 C 0.7373(3) 0.3822(5) 1.0846(4)
H10 H 0.7296 0.4183 1.1434
C22 C 0.6876(3) 0.2870(5) 0.9329(4)
C23 C 0.6777(3) 0.1919(5) 0.3886(4)
C24 C 0.6778(3) 0.3415(5) 1.0207(4)
H11 H 0.6305 0.3506 1.0366
C25 C 0.7579(3) 0.2768(6) 0.9100(4)
H12 H 0.7654 0.2418 0.8508
C26 C 0.7202(3) 0.1880(5) 0.3027(4)
H13 H 0.6931 0.2357 0.2502
H14 H 0.7668 0.2294 0.3220
C27 C 0.7364(3) 0.0657(5) 0.2618(4)
H15 H 0.6907 0.0212 0.2437
H16 H 0.7671 0.0185 0.3115
C28 C 0.8018(3) -0.0338(5) 0.1297(4)
C29 C 0.7790(3) -0.1479(5) 0.1510(4)
H17 H 0.7445 -0.1583 0.1937
C30 C 0.7756(3) 0.0798(5) 0.1724(4)
H18 H 0.7424 0.1212 0.1218
H19 H 0.8177 0.1331 0.1900
C31 C 0.8535(3) -0.0261(5) 0.0654(4)
H20 H 0.8705 0.0502 0.0485
C32 C 0.8792(4) -0.1286(6) 0.0272(5)
H21 H 0.9139 -0.1202 -0.0153
C33 C 0.8073(3) -0.2473(5) 0.1087(4)
H22 H 0.7905 -0.3244 0.1240
N1 N 0.5979(2) 0.2040(4) 0.5482(3)
N2 N 0.8571(3) -0.2420(4) 0.0473(4)
O1 O 0.53162(19) 0.0324(3) 0.6871(3)
O2 O 0.5638(2) 0.2246(3) 0.9020(3)
O3 O 0.5336(2) -0.6052(3) 0.6892(3)
O4 O 0.6300(2) 0.2180(3) 0.7787(3)
O5 O 0.8632(2) 0.4103(3) 1.2241(3)
O6 O 1.0358(2) -0.4003(3) 1.1914(3)
O7 O 1.0876(2) 0.4234(3) 1.0465(3)
H23 H 1.0671 0.4776 1.0115
H24 H 1.0967 0.3538 1.0292
O8 O 0.9346(2) 0.4134(3) 1.1067(3)
O9 O 1.0357(2) 0.2340(3) 1.1918(3)
Zn1 Zn 1.04662(3) 0.41751(5) 1.16953(5)
Zn2 Zn 0.54324(3) 0.21324(5) 0.66530(5)
C3A C 0.9552(3) -0.0199(5) 1.3048(4)
H1A H 0.9249 0.0226 1.3418
C14A C 0.9553(3) -0.1440(5) 1.3049(4)
H3A H 0.9251 -0.1862 1.3422
O9A O 0.9643(2) 0.2340(3) 1.3082(3)
O6A O 0.9642(2) -0.4003(3) 1.3086(3)
C16A C 0.5259(3) -0.2203(5) 0.6752(4)
H5A H 0.5438 -0.1782 0.6249
O1A O 0.46838(19) 0.0324(3) 0.8129(3)
C15A C 0.5251(3) -0.3465(5) 0.6753(4)
H4A H 0.5418 -0.3881 0.6240
O3A O 0.4664(2) -0.6052(3) 0.8108(3)
C10A C 0.1264(3) 0.4006(4) 0.3630(4)
C11A C 0.3789(3) 0.2382(5) 0.6343(4)
C12A C 0.1920(3) 0.3705(5) 0.4369(4)
C13A C 0.3501(3) 0.0893(5) 1.0732(4)
H2A H 0.3430 0.0131 1.1005
C17A C 0.1826(3) 0.3179(5) 0.5259(4)
H6A H 0.1354 0.3104 0.5426
C18A C 0.3752(3) 0.3039(5) 0.9892(4)
H7A H 0.3835 0.3793 0.9614
C19A C 0.3887(3) 0.0975(4) 0.9945(4)
H8A H 0.4063 0.0257 0.9698
C20A C 0.3354(3) 0.3015(5) 1.0677(4)
H9A H 0.3176 0.3741 1.0907
C21A C 0.2627(3) 0.3822(5) 0.4154(4)
H10A H 0.2704 0.4183 0.3566
C22A C 0.3124(3) 0.2870(5) 0.5671(4)
C23A C 0.3223(3) 0.1919(5) 1.1114(4)
C24A C 0.3222(3) 0.3415(5) 0.4793(4)
H11A H 0.3695 0.3506 0.4634
C25A C 0.2421(3) 0.2768(6) 0.5900(4)
H12A H 0.2346 0.2418 0.6492
C26A C 0.2798(3) 0.1880(5) 1.1973(4)
H13A H 0.3069 0.2357 1.2498
H14A H 0.2332 0.2294 1.1780
C27A C 0.2636(3) 0.0657(5) 1.2382(4)
H15A H 0.3093 0.0212 1.2563
H16A H 0.2329 0.0185 1.1885
C28A C 0.1982(3) -0.0338(5) 1.3703(4)
C29A C 0.2210(3) -0.1479(5) 1.3490(4)
H17A H 0.2555 -0.1583 1.3063
C30A C 0.2244(3) 0.0798(5) 1.3276(4)
H18A H 0.2576 0.1212 1.3782
H19A H 0.1823 0.1331 1.3100
C31A C 0.1465(3) -0.0261(5) 1.4346(4)
H20A H 0.1295 0.0502 1.4515
C32A C 0.1208(4) -0.1286(6) 1.4728(5)
H21A H 0.0861 -0.1202 1.5153
C33A C 0.1927(3) -0.2473(5) 1.3913(4)
H22A H 0.2095 -0.3244 1.3760
N1A N 0.4021(2) 0.2040(4) 0.9518(3)
N2A N 0.1429(3) -0.2420(4) 1.4527(4)
O2A O 0.4362(2) 0.2246(3) 0.5980(3)
O4A O 0.3700(2) 0.2180(3) 0.7213(3)
O5A O 0.1368(2) 0.4103(3) 0.2759(3)
O7A O -0.0876(2) 0.4234(3) 0.4535(3)
H23A H -0.0671 0.4776 0.4885
H24A H -0.0967 0.3538 0.4708
O8A O 0.0654(2) 0.4134(3) 0.3933(3)
Zn1A Zn -0.04662(3) 0.41751(5) 0.33047(5)
Zn2A Zn 0.45676(3) 0.21324(5) 0.83470(5)
O3_2 O 0.5336(2) 0.3948(3) 0.6892(3)
O3A_2 O 0.4664(2) 0.3948(3) 0.8108(3)
O5_2 O -0.1368(2) 0.4103(3) 0.2241(3)
O5A_2 O 1.1368(2) 0.4103(3) 1.2759(3)
O6_2 O 1.0358(2) 0.5997(3) 1.1914(3)
O6A_2 O -0.0358(2) 0.5997(3) 0.3086(3)
O9A_2 O -0.0357(2) 0.2340(3) 0.3082(3)
Zn1_2 Zn 0.04662(3) 0.41751(5) 0.16953(5)
Zn1_3 Zn 1.04662(3) -0.58249(5) 1.16953(5)
Zn1A_2 Zn 0.95338(3) -0.58249(5) 1.33047(5)
Zn1A_3 Zn 0.95338(3) 0.41751(5) 1.33047(5)
Zn2_2 Zn 0.54324(3) -0.78676(5) 0.66530(5)
Zn2A_2 Zn 0.45676(3) -0.78676(5) 0.83470(5)
loop_
_geom_bond_atom_site_label_1
_geom_bond_atom_site_label_2
_geom_bond_site_symmetry_1
_geom_bond_site_symmetry_2
C1 C2 1_555 1_555
C2 C3 1_555 1_555
C3 H1 1_555 1_555
C4 C5 1_555 1_555
C5 C14 1_555 1_555
C6 C7 1_555 1_555
C7 C16 1_555 1_555
C8 C9 1_555 1_555
C9 C15 1_555 1_555
C10 C12 1_555 1_555
C11 C22 1_555 1_555
C12 C17 1_555 1_555
C13 H2 1_555 1_555
C14 C3 1_555 1_555
H3 C14 1_555 1_555
C15 H4 1_555 1_555
C16 C15 1_555 1_555
H5 C16 1_555 1_555
C17 H6 1_555 1_555
C18 H7 1_555 1_555
C19 C13 1_555 1_555
H8 C19 1_555 1_555
C20 C18 1_555 1_555
H9 C20 1_555 1_555
C21 C12 1_555 1_555
H10 C21 1_555 1_555
C22 C24 1_555 1_555
C23 C13 1_555 1_555
C24 C21 1_555 1_555
H11 C24 1_555 1_555
C25 C17 1_555 1_555
H12 C25 1_555 1_555
C26 C23 1_555 1_555
H13 C26 1_555 1_555
H14 C26 1_555 1_555
C27 C26 1_555 1_555
H15 C27 1_555 1_555
H16 C27 1_555 1_555
C28 C29 1_555 1_555
C29 H17 1_555 1_555
C30 C27 1_555 1_555
H18 C30 1_555 1_555
H19 C30 1_555 1_555
C31 C28 1_555 1_555
H20 C31 1_555 1_555
C32 C31 1_555 1_555
H21 C32 1_555 1_555
C33 C29 1_555 1_555
H22 C33 1_555 1_555
N1 C18 1_555 1_555
N2 C32 1_555 1_555
O1 C6 1_555 1_555
O2 C11 1_555 1_555
O3 C8 1_555 1_555
O4 C11 1_555 1_555
O5 C10 1_555 1_555
O6 C4 1_555 1_555
O7 H23 1_555 1_555
H24 O7 1_555 1_555
O8 C10 1_555 1_555
O9 C1 1_555 1_555
Zn1 O7 1_555 1_555
Zn2 N1 1_555 1_555
C3A C2 1_555 1_555
H1A C3A 1_555 1_555
C14A C5 1_555 1_555
H3A C14A 1_555 1_555
O9A C1 1_555 1_555
O6A C4 1_555 1_555
C16A C7 1_555 1_555
H5A C16A 1_555 1_555
O1A C6 1_555 1_555
C15A C9 1_555 1_555
H4A C15A 1_555 1_555
O3A C8 1_555 1_555
C10A C12A 1_555 1_555
C11A C22A 1_555 1_555
C12A C17A 1_555 1_555
C13A H2A 1_555 1_555
C17A H6A 1_555 1_555
C18A H7A 1_555 1_555
C19A C13A 1_555 1_555
H8A C19A 1_555 1_555
C20A C18A 1_555 1_555
H9A C20A 1_555 1_555
C21A C12A 1_555 1_555
H10A C21A 1_555 1_555
C22A C24A 1_555 1_555
C23A C13A 1_555 1_555
C24A C21A 1_555 1_555
H11A C24A 1_555 1_555
C25A C17A 1_555 1_555
H12A C25A 1_555 1_555
C26A C23A 1_555 1_555
H13A C26A 1_555 1_555
H14A C26A 1_555 1_555
C27A C26A 1_555 1_555
H15A C27A 1_555 1_555
H16A C27A 1_555 1_555
C28A C29A 1_555 1_555
C29A H17A 1_555 1_555
C30A C27A 1_555 1_555
H18A C30A 1_555 1_555
H19A C30A 1_555 1_555
C31A C28A 1_555 1_555
H20A C31A 1_555 1_555
C32A C31A 1_555 1_555
H21A C32A 1_555 1_555
C33A C29A 1_555 1_555
H22A C33A 1_555 1_555
N1A C18A 1_555 1_555
N2A C32A 1_555 1_555
O2A Zn2 1_555 1_555
O4A C11A 1_555 1_555
O5A C10A 1_555 1_555
O7A H23A 1_555 1_555
H24A O7A 1_555 1_555
O8A C10A 1_555 1_555
Zn1A O7A 1_555 1_555
Zn2A O2 1_555 1_555
O3_2 Zn2 1_555 1_555
O3A_2 Zn2A 1_555 1_555
O5_2 Zn1A 1_555 1_555
O5A_2 Zn1 1_555 1_555
O6_2 Zn1 1_555 1_555
O6A_2 Zn1A 1_555 1_555
O9A_2 Zn1A 1_555 1_555
Zn1_2 O5A 1_555 1_555
Zn1_3 O6 1_555 1_555
Zn1A_2 O6A 1_555 1_555
Zn1A_3 O5 1_555 1_555
Zn2_2 O3 1_555 1_555
Zn2A_2 O3A 1_555 1_555
C19 N1 1_555 1_555
C20 C23 1_555 1_555
C22 C25 1_555 1_555
C28 C30 1_555 1_555
C33 N2 1_555 1_555
O1 Zn2 1_555 1_555
O4 Zn2 1_555 1_555
O8 Zn1 1_555 1_555
O9 Zn1 1_555 1_555
C3A C14A 1_555 1_555
O9A Zn1A_3 1_555 1_555
C16A C15A 1_555 1_555
O1A Zn2A 1_555 1_555
C11A O2A 1_555 1_555
C19A N1A 1_555 1_555
C20A C23A 1_555 1_555
C22A C25A 1_555 1_555
C28A C30A 1_555 1_555
C33A N2A 1_555 1_555
N1A Zn2A 1_555 1_555
O4A Zn2A 1_555 1_555
O8A Zn1A 1_555 1_555

#END
