
#######################################################################
#
#                 Cambridge Crystallographic Data Centre
#                                CCDC 
#
#######################################################################
#
# If this CIF has been generated from an entry in the Cambridge 
# Structural Database, then it will include bibliographic, chemical, 
# crystal, experimental, refinement or atomic coordinate data resulting 
# from the CCDC's data processing and validation procedures.
#
#######################################################################

data_WEYKEQ
_symmetry_cell_setting           monoclinic
_symmetry_space_group_name_H-M   'P 2/c'
_symmetry_Int_Tables_number      13
_space_group_name_Hall           '-P 2yc'
loop_
_symmetry_equiv_pos_site_id
_symmetry_equiv_pos_as_xyz
1 x,y,z
2 x,-y,1/2+z
3 -x,-y,-z
4 -x,y,1/2-z
_cell_length_a                   14.153(5)
_cell_length_b                   6.695(3)
_cell_length_c                   13.066(5)
_cell_angle_alpha                90
_cell_angle_beta                 101.29(3)
_cell_angle_gamma                90
_cell_volume                     1214.1
loop_
_atom_site_label
_atom_site_type_symbol
_atom_site_fract_x
_atom_site_fract_y
_atom_site_fract_z
Mn1 Mn 0.0000 0.0000 0.0000
N1 N 0.0076(2) 0.3297(4) 0.0038(2)
N2 N 0.0000 0.5000 0.0000
N3 N -0.0296(2) -0.0202(4) 0.1608(2)
N4 N 0.0000 -0.0186(4) 0.2500
N5 N 0.1626(2) -0.0213(3) 0.0626(2)
C1 C 0.1991(2) -0.1338(4) 0.1467(2)
H1 H 0.1563(2) -0.1919(4) 0.1837(2)
C2 C 0.2965(2) -0.1675(3) 0.1810(2)
C3 C 0.3607(2) -0.0788(4) 0.1261(2)
H2 H 0.4268(2) -0.0951(4) 0.1480(2)
C4 C 0.3244(2) 0.0334(4) 0.0390(2)
H3 H 0.3657(2) 0.0912(4) 0.0001(2)
C5 C 0.2258(2) 0.0593(4) 0.0100(2)
H4 H 0.2021(2) 0.1362(4) -0.0488(2)
C6 C 0.3395(2) -0.2806(4) 0.2801(2)
O1 O 0.40845(12) -0.2038(3) 0.33990(14)
N6 N 0.3028(2) -0.4584(3) 0.3007(2)
C7 C 0.3496(2) -0.5605(5) 0.3973(2)
H5 H 0.3041(2) -0.6530(5) 0.4183(2)
H6 H 0.3666(2) -0.4622(5) 0.4524(2)
C8 C 0.4392(3) -0.6737(5) 0.3853(3)
H7 H 0.4697(11) -0.7279(34) 0.4515(5)
H8 H 0.4829(8) -0.5847(10) 0.3605(20)
H9 H 0.4218(3) -0.7804(25) 0.3361(16)
C9 C 0.2282(2) -0.5725(5) 0.2303(2)
H10 H 0.2507(2) -0.7082(5) 0.2248(2)
H11 H 0.2180(2) -0.5132(5) 0.1613(2)
C10 C 0.1327(3) -0.5782(7) 0.2673(3)
H12 H 0.1411(5) -0.6473(34) 0.3328(10)
H13 H 0.0855(5) -0.6466(34) 0.2166(10)
H14 H 0.1113(10) -0.4442(7) 0.2759(20)
N1B N -0.0076(2) -0.3297(4) -0.0038(2)
N3B N 0.0296(2) 0.0202(4) -0.1608(2)
N5B N -0.1626(2) 0.0213(3) -0.0626(2)
N1B_2 N -0.0076(2) 0.6703(4) -0.0038(2)
N3C N 0.0296(2) -0.0202(4) 0.3392(2)
C1B C -0.1991(2) 0.1338(4) -0.1467(2)
C5B C -0.2258(2) -0.0593(4) -0.0100(2)
H1B H -0.1563(2) 0.1919(4) -0.1837(2)
C2B C -0.2965(2) 0.1675(3) -0.1810(2)
C4B C -0.3244(2) -0.0334(4) -0.0390(2)
H4B H -0.2021(2) -0.1362(4) 0.0488(2)
C3B C -0.3607(2) 0.0788(4) -0.1261(2)
C6B C -0.3395(2) 0.2806(4) -0.2801(2)
H3B H -0.3657(2) -0.0912(4) -0.0001(2)
H2B H -0.4268(2) 0.0951(4) -0.1480(2)
O1B O -0.40845(12) 0.2038(3) -0.33990(14)
N6B N -0.3028(2) 0.4584(3) -0.3007(2)
C7B C -0.3496(2) 0.5605(5) -0.3973(2)
C9B C -0.2282(2) 0.5725(5) -0.2303(2)
H5B H -0.3041(2) 0.6530(5) -0.4183(2)
H6B H -0.3666(2) 0.4622(5) -0.4524(2)
C8B C -0.4392(3) 0.6737(5) -0.3853(3)
H10B H -0.2507(2) 0.7082(5) -0.2248(2)
H11B H -0.2180(2) 0.5132(5) -0.1613(2)
C10B C -0.1327(3) 0.5782(7) -0.2673(3)
H12B H -0.1411(5) 0.6473(34) -0.3328(10)
H13B H -0.0855(5) 0.6466(34) -0.2166(10)
H14B H -0.1113(10) 0.4442(7) -0.2759(20)
H7B H -0.4697(11) 0.7279(34) -0.4515(5)
H8B H -0.4829(8) 0.5847(10) -0.3605(20)
H9B H -0.4218(3) 0.7804(25) -0.3361(16)
Mn1_2 Mn 0.0000 1.0000 0.0000
Mn1A Mn 0.0000 0.0000 0.5000
loop_
_geom_bond_atom_site_label_1
_geom_bond_atom_site_label_2
_geom_bond_site_symmetry_1
_geom_bond_site_symmetry_2
Mn1 N1 1_555 1_555
N1 N2 1_555 1_555
N2 N1B_2 1_555 1_555
N3 Mn1 1_555 1_555
N4 N3 1_555 1_555
N5 Mn1 1_555 1_555
C1 N5 1_555 1_555
H1 C1 1_555 1_555
C2 C1 1_555 1_555
C3 C2 1_555 1_555
H2 C3 1_555 1_555
C4 C3 1_555 1_555
H3 C4 1_555 1_555
C5 N5 1_555 1_555
H4 C5 1_555 1_555
C6 C2 1_555 1_555
O1 C6 1_555 1_555
N6 C6 1_555 1_555
C7 N6 1_555 1_555
H5 C7 1_555 1_555
H6 C7 1_555 1_555
C8 C7 1_555 1_555
H7 C8 1_555 1_555
H8 C8 1_555 1_555
H9 C8 1_555 1_555
C9 N6 1_555 1_555
H10 C9 1_555 1_555
H11 C9 1_555 1_555
C10 C9 1_555 1_555
H12 C10 1_555 1_555
H13 C10 1_555 1_555
H14 C10 1_555 1_555
N1B Mn1 1_555 1_555
N3B Mn1 1_555 1_555
N5B Mn1 1_555 1_555
N1B_2 Mn1_2 1_555 1_555
N3C N4 1_555 1_555
C1B N5B 1_555 1_555
C5B N5B 1_555 1_555
H1B C1B 1_555 1_555
C2B C1B 1_555 1_555
C4B C5B 1_555 1_555
H4B C5B 1_555 1_555
C3B C2B 1_555 1_555
C6B C2B 1_555 1_555
H3B C4B 1_555 1_555
H2B C3B 1_555 1_555
O1B C6B 1_555 1_555
N6B C6B 1_555 1_555
C7B N6B 1_555 1_555
C9B N6B 1_555 1_555
H5B C7B 1_555 1_555
H6B C7B 1_555 1_555
C8B C7B 1_555 1_555
H10B C9B 1_555 1_555
H11B C9B 1_555 1_555
C10B C9B 1_555 1_555
H12B C10B 1_555 1_555
H13B C10B 1_555 1_555
H14B C10B 1_555 1_555
H7B C8B 1_555 1_555
H8B C8B 1_555 1_555
H9B C8B 1_555 1_555
Mn1A N3C 1_555 1_555
C4 C5 1_555 1_555
C4B C3B 1_555 1_555

#END
