
#######################################################################
#
#                 Cambridge Crystallographic Data Centre
#                                CCDC 
#
#######################################################################
#
# If this CIF has been generated from an entry in the Cambridge 
# Structural Database, then it will include bibliographic, chemical, 
# crystal, experimental, refinement or atomic coordinate data resulting 
# from the CCDC's data processing and validation procedures.
#
#######################################################################

data_WEYMOD
_symmetry_cell_setting           monoclinic
_symmetry_space_group_name_H-M   'P 21/c'
_symmetry_Int_Tables_number      14
_space_group_name_Hall           '-P 2ybc'
loop_
_symmetry_equiv_pos_site_id
_symmetry_equiv_pos_as_xyz
1 x,y,z
2 -x,1/2+y,1/2-z
3 -x,-y,-z
4 x,1/2-y,1/2+z
_cell_length_a                   9.37570(10)
_cell_length_b                   15.18890(10)
_cell_length_c                   8.66120(10)
_cell_angle_alpha                90.00
_cell_angle_beta                 101.33
_cell_angle_gamma                90.00
_cell_volume                     1209.37
loop_
_atom_site_label
_atom_site_type_symbol
_atom_site_fract_x
_atom_site_fract_y
_atom_site_fract_z
Ag1 Ag 0.02836(4) 0.78649(2) -0.00906(5)
Cl1 Cl -0.18184(10) 0.87332(6) -0.39075(11)
C1 C 0.2788(5) 0.6617(3) -0.1069(5)
C2 C 0.3068(4) 0.5655(2) -0.4295(4)
H1 H 0.2329 0.5341 -0.3968
C3 C 0.5256(4) 0.6600(3) -0.5252(5)
H2 H 0.5989 0.6916 -0.5586
C4 C 0.4064(4) 0.6134(2) -0.3190(4)
C5 C 0.4264(4) 0.6117(3) -0.6333(5)
H3 H 0.4337 0.6113 -0.7388
C6 C 0.3171(4) 0.5643(2) -0.5850(4)
C7 C 0.5155(4) 0.6609(3) -0.3699(5)
H4 H 0.5817 0.6934 -0.2979
N1 N 0.1891(5) 0.7016(3) -0.0759(5)
O1 O -0.0596(5) 0.8291(3) -0.3014(4)
O2 O -0.2085(5) 0.8373(3) -0.5466(4)
C8 C 0.3994(5) 0.6106(3) -0.1460(5)
H5 H 0.3897 0.5498 -0.1153
H6 H 0.4901 0.6330 -0.0852
O3 O -0.1477(6) 0.9640(3) -0.3957(6)
C9 C 0.2117(4) 0.5138(3) -0.7101(5)
H7 H 0.1424 0.5549 -0.7690
H8 H 0.2655 0.4873 -0.7830
C10 C 0.1325(4) 0.4452(3) -0.6450(5)
N2 N 0.0711(5) 0.3928(3) -0.5948(5)
O4 O -0.3035(6) 0.8627(4) -0.3227(6)
Ag1A Ag -0.02836(4) 0.28649(2) -0.49094(5)
N2A N -0.0711(5) 0.8928(3) 0.0948(5)
loop_
_geom_bond_atom_site_label_1
_geom_bond_atom_site_label_2
_geom_bond_site_symmetry_1
_geom_bond_site_symmetry_2
Ag1 N1 1_555 1_555
Cl1 O1 1_555 1_555
C1 N1 1_555 1_555
C2 H1 1_555 1_555
C3 H2 1_555 1_555
C4 C2 1_555 1_555
C5 C3 1_555 1_555
H3 C5 1_555 1_555
C6 C2 1_555 1_555
C7 C3 1_555 1_555
H4 C7 1_555 1_555
O1 Ag1 1_555 1_555
O2 Cl1 1_555 1_555
C8 C1 1_555 1_555
H5 C8 1_555 1_555
H6 C8 1_555 1_555
O3 Cl1 1_555 1_555
C9 C6 1_555 1_555
H7 C9 1_555 1_555
H8 C9 1_555 1_555
C10 C9 1_555 1_555
N2 C10 1_555 1_555
O4 Cl1 1_555 1_555
Ag1A N2 1_555 1_555
N2A Ag1 1_555 1_555
C4 C7 1_555 1_555
C4 C8 1_555 1_555
C5 C6 1_555 1_555

#END
