
#######################################################################
#
#                 Cambridge Crystallographic Data Centre
#                                CCDC 
#
#######################################################################
#
# If this CIF has been generated from an entry in the Cambridge 
# Structural Database, then it will include bibliographic, chemical, 
# crystal, experimental, refinement or atomic coordinate data resulting 
# from the CCDC's data processing and validation procedures.
#
#######################################################################

data_WEYPEW
_symmetry_cell_setting           orthorhombic
_symmetry_space_group_name_H-M   'P b c a'
_symmetry_Int_Tables_number      61
_space_group_name_Hall           '-P 2ac 2ab'
loop_
_symmetry_equiv_pos_site_id
_symmetry_equiv_pos_as_xyz
1 x,y,z
2 1/2-x,-y,1/2+z
3 1/2+x,1/2-y,-z
4 -x,1/2+y,1/2-z
5 -x,-y,-z
6 1/2+x,y,1/2-z
7 1/2-x,1/2+y,z
8 x,1/2-y,1/2+z
_cell_length_a                   14.3366(10)
_cell_length_b                   21.9394(15)
_cell_length_c                   29.751(2)
_cell_angle_alpha                90
_cell_angle_beta                 90
_cell_angle_gamma                90
_cell_volume                     9357.77
loop_
_atom_site_label
_atom_site_type_symbol
_atom_site_fract_x
_atom_site_fract_y
_atom_site_fract_z
C1 C 0.3756(4) 0.3358(2) 0.15445(16)
C2 C 0.3420(4) 0.3140(3) 0.06766(17)
C3 C 0.1943(4) 0.3348(3) 0.17358(17)
C4 C 0.1590(4) 0.3001(2) 0.08521(16)
C5 C 0.2802(4) 0.2435(3) 0.13255(19)
C6 C 0.5258(5) 0.2448(3) 0.2467(2)
H1 H 0.5183 0.2230 0.2185
H2 H 0.5796 0.2279 0.2621
C7 C 0.4413(4) 0.2356(2) 0.27486(19)
C8 C 0.3592(5) 0.2174(3) 0.2570(3)
H3 H 0.3549 0.2105 0.2262
C9 C 0.2816(5) 0.2088(4) 0.2839(4)
H4 H 0.2255 0.1962 0.2712
C10 C 0.2871(7) 0.2188(4) 0.3289(4)
H5 H 0.2349 0.2137 0.3471
C11 C 0.3663(8) 0.2356(3) 0.3462(3)
H6 H 0.3705 0.2419 0.3770
C12 C 0.4423(5) 0.2441(3) 0.3204(2)
H7 H 0.4977 0.2561 0.3341
C13 C 0.6530(4) 0.3666(3) 0.18510(19)
H8 H 0.7143 0.3609 0.1982
H9 H 0.6485 0.3403 0.1590
C14 C 0.6436(4) 0.4306(3) 0.1705(2)
C15 C 0.6938(6) 0.4746(4) 0.1923(3)
H10 H 0.7337 0.4630 0.2154
C16 C 0.6873(11) 0.5362(6) 0.1810(5)
H11 H 0.7245 0.5656 0.1946
C17 C 0.6235(13) 0.5506(7) 0.1492(6)
H12 H 0.6137 0.5917 0.1432
C18 C 0.5724(10) 0.5092(6) 0.1254(5)
H13 H 0.5320 0.5208 0.1025
C19 C 0.5848(6) 0.4479(4) 0.1375(3)
H14 H 0.5511 0.4181 0.1223
C20 C 0.4604(5) 0.3988(3) 0.2702(2)
H15 H 0.4003 0.3788 0.2732
H16 H 0.4861 0.4030 0.3002
C21 C 0.4439(6) 0.4610(3) 0.2520(3)
C22 C 0.5018(5) 0.5081(4) 0.2661(3)
H17 H 0.5515 0.5000 0.2853
C23 C 0.4853(8) 0.5673(3) 0.2515(4)
H18 H 0.5240 0.5988 0.2610
C24 C 0.4110(10) 0.5794(3) 0.2229(4)
H19 H 0.4000 0.6190 0.2131
C25 C 0.3531(8) 0.5323(5) 0.2088(3)
H20 H 0.3034 0.5404 0.1897
C26 C 0.3696(6) 0.4731(4) 0.2234(3)
H21 H 0.3309 0.4415 0.2140
C27 C 0.4009(5) 0.1899(4) -0.0155(3)
H22 H 0.3882 0.1783 0.0153
H23 H 0.3427 0.2041 -0.0285
C28 C 0.4314(5) 0.1343(3) -0.0406(2)
C29 C 0.4979(6) 0.0968(5) -0.0241(4)
H24 H 0.5246 0.1048 0.0038
C30 C 0.5258(9) 0.0470(6) -0.0485(7)
H25 H 0.5733 0.0228 -0.0368
C31 C 0.4907(14) 0.0320(7) -0.0861(7)
H26 H 0.5112 -0.0030 -0.1006
C32 C 0.4235(13) 0.0667(7) -0.1050(4)
H27 H 0.3984 0.0568 -0.1329
C33 C 0.3923(7) 0.1189(4) -0.0811(3)
H28 H 0.3449 0.1429 -0.0931
C34 C 0.6046(4) 0.2690(3) 0.0349(2)
H29 H 0.6634 0.2783 0.0203
H30 H 0.5906 0.3022 0.0553
C35 C 0.6157(4) 0.2121(3) 0.0614(2)
C36 C 0.5574(5) 0.1989(4) 0.0959(2)
H31 H 0.5111 0.2268 0.1035
C37 C 0.5642(9) 0.1460(6) 0.1200(3)
H32 H 0.5223 0.1380 0.1431
C38 C 0.6315(11) 0.1054(5) 0.1101(5)
H33 H 0.6362 0.0693 0.1264
C39 C 0.6935(8) 0.1175(5) 0.0757(5)
H34 H 0.7409 0.0900 0.0690
C40 C 0.6847(5) 0.1709(4) 0.0513(3)
H35 H 0.7259 0.1789 0.0279
C41 C 0.4913(5) 0.3463(3) -0.0547(2)
H36 H 0.4946 0.3364 -0.0864
H37 H 0.4332 0.3676 -0.0491
C42 C 0.5726(5) 0.3857(3) -0.0416(2)
C43 C 0.6557(6) 0.3818(3) -0.0636(3)
H38 H 0.6606 0.3564 -0.0885
C44 C 0.7341(7) 0.4153(5) -0.0497(5)
H39 H 0.7904 0.4134 -0.0652
C45 C 0.7234(10) 0.4505(5) -0.0125(5)
H40 H 0.7752 0.4715 -0.0019
C46 C 0.6437(10) 0.4568(5) 0.0096(4)
H41 H 0.6390 0.4827 0.0343
C47 C 0.5683(8) 0.4236(4) -0.0053(3)
H42 H 0.5120 0.4272 0.0100
N1 N 0.4406(3) 0.3373(2) 0.17620(16)
N2 N 0.3894(4) 0.3062(3) 0.03731(17)
N3 N 0.1555(3) 0.3401(2) 0.20660(16)
N4 N 0.0986(3) 0.2806(2) 0.06477(15)
N5 N 0.2902(5) 0.1940(3) 0.1414(2)
N6 N 0.2535(3) 0.4019(2) 0.10788(16)
O1 O 0.2466(5) 0.4519(3) 0.1015(2)
Fe1 Fe 0.26513(5) 0.32896(3) 0.11881(2)
Sn1 Sn 0.54980(2) 0.339558(16) 0.233017(11)
Sn2 Sn 0.49751(3) 0.26440(2) -0.015001(12)
N3E N 0.6555(3) 0.3401(2) 0.29340(16)
N4B N 0.5986(3) 0.2194(2) -0.06477(15)
Sn1E Sn 0.04980(2) 0.339558(16) 0.266983(11)
Sn2B Sn -0.00249(3) 0.23560(2) 0.015001(12)
loop_
_geom_bond_atom_site_label_1
_geom_bond_atom_site_label_2
_geom_bond_site_symmetry_1
_geom_bond_site_symmetry_2
C1 N1 1_555 1_555
C2 N2 1_555 1_555
C3 N3 1_555 1_555
C4 N4 1_555 1_555
C5 N5 1_555 1_555
C6 H1 1_555 1_555
H2 C6 1_555 1_555
C7 C6 1_555 1_555
C8 C7 1_555 1_555
H3 C8 1_555 1_555
C9 C8 1_555 1_555
H4 C9 1_555 1_555
C10 C9 1_555 1_555
H5 C10 1_555 1_555
C11 C10 1_555 1_555
H6 C11 1_555 1_555
C12 C7 1_555 1_555
H7 C12 1_555 1_555
C13 H8 1_555 1_555
H9 C13 1_555 1_555
C14 C13 1_555 1_555
C15 C14 1_555 1_555
H10 C15 1_555 1_555
C16 C15 1_555 1_555
H11 C16 1_555 1_555
C17 C16 1_555 1_555
H12 C17 1_555 1_555
C18 C17 1_555 1_555
H13 C18 1_555 1_555
C19 C14 1_555 1_555
H14 C19 1_555 1_555
C20 H15 1_555 1_555
H16 C20 1_555 1_555
C21 C20 1_555 1_555
C22 C21 1_555 1_555
H17 C22 1_555 1_555
C23 C22 1_555 1_555
H18 C23 1_555 1_555
C24 C23 1_555 1_555
H19 C24 1_555 1_555
C25 C24 1_555 1_555
H20 C25 1_555 1_555
C26 C21 1_555 1_555
H21 C26 1_555 1_555
C27 H22 1_555 1_555
H23 C27 1_555 1_555
C28 C27 1_555 1_555
C29 C28 1_555 1_555
H24 C29 1_555 1_555
C30 C29 1_555 1_555
H25 C30 1_555 1_555
C31 C30 1_555 1_555
H26 C31 1_555 1_555
C32 C31 1_555 1_555
H27 C32 1_555 1_555
C33 C28 1_555 1_555
H28 C33 1_555 1_555
C34 H29 1_555 1_555
H30 C34 1_555 1_555
C35 C34 1_555 1_555
C36 C35 1_555 1_555
H31 C36 1_555 1_555
C37 C36 1_555 1_555
H32 C37 1_555 1_555
C38 C37 1_555 1_555
H33 C38 1_555 1_555
C39 C38 1_555 1_555
H34 C39 1_555 1_555
C40 C35 1_555 1_555
H35 C40 1_555 1_555
C41 H36 1_555 1_555
H37 C41 1_555 1_555
C42 C41 1_555 1_555
C43 C42 1_555 1_555
H38 C43 1_555 1_555
C44 C43 1_555 1_555
H39 C44 1_555 1_555
C45 C44 1_555 1_555
H40 C45 1_555 1_555
C46 C45 1_555 1_555
H41 C46 1_555 1_555
C47 C42 1_555 1_555
H42 C47 1_555 1_555
N1 Sn1 1_555 1_555
N2 Sn2 1_555 1_555
N3 Sn1E 1_555 1_555
N4 Sn2B 1_555 1_555
N6 O1 1_555 1_555
Fe1 C1 1_555 1_555
Sn1 C6 1_555 1_555
Sn2 C27 1_555 1_555
N3E Sn1 1_555 1_555
N4B Sn2 1_555 1_555
C2 Fe1 1_555 1_555
C3 Fe1 1_555 1_555
C4 Fe1 1_555 1_555
C5 Fe1 1_555 1_555
C11 C12 1_555 1_555
C13 Sn1 1_555 1_555
C18 C19 1_555 1_555
C20 Sn1 1_555 1_555
C25 C26 1_555 1_555
C32 C33 1_555 1_555
C34 Sn2 1_555 1_555
C39 C40 1_555 1_555
C41 Sn2 1_555 1_555
C46 C47 1_555 1_555
N6 Fe1 1_555 1_555

#END
