
#######################################################################
#
#                 Cambridge Crystallographic Data Centre
#                                CCDC 
#
#######################################################################
#
# If this CIF has been generated from an entry in the Cambridge 
# Structural Database, then it will include bibliographic, chemical, 
# crystal, experimental, refinement or atomic coordinate data resulting 
# from the CCDC's data processing and validation procedures.
#
#######################################################################

data_WEYPUM
_symmetry_cell_setting           triclinic
_symmetry_space_group_name_H-M   'P -1'
_symmetry_Int_Tables_number      2
_space_group_name_Hall           '-P 1'
loop_
_symmetry_equiv_pos_site_id
_symmetry_equiv_pos_as_xyz
1 x,y,z
2 -x,-y,-z
_cell_length_a                   12.6316(8)
_cell_length_b                   13.3725(8)
_cell_length_c                   22.3824(13)
_cell_angle_alpha                81.4830(10)
_cell_angle_beta                 78.4010(10)
_cell_angle_gamma                79.6490(10)
_cell_volume                     3618.59
loop_
_atom_site_label
_atom_site_type_symbol
_atom_site_fract_x
_atom_site_fract_y
_atom_site_fract_z
C1 C 0.7579(9) 0.8186(8) 0.6596(5)
C2 C 0.6609(9) 0.7922(9) 0.8327(5)
C3 C 0.6338(9) 0.9407(9) 0.7377(5)
C4 C 0.7854(10) 0.6625(10) 0.7507(5)
C5 C 0.8288(10) 0.8450(9) 0.7555(5)
C6 C 0.8627(9) 0.6945(9) 0.4990(5)
H1 H 0.8875 0.6826 0.4563
H2 H 0.9229 0.6679 0.5207
C7 C 0.7678(9) 0.6374(8) 0.5262(6)
C8 C 0.6941(10) 0.6265(9) 0.4903(6)
H3 H 0.7054 0.6519 0.4489
C9 C 0.6032(11) 0.5781(10) 0.5150(8)
H4 H 0.5544 0.5717 0.4902
C10 C 0.5861(13) 0.5400(11) 0.5762(9)
H5 H 0.5261 0.5070 0.5925
C11 C 0.6576(12) 0.5505(10) 0.6138(7)
H6 H 0.6455 0.5257 0.6553
C12 C 0.7483(11) 0.5994(10) 0.5879(6)
H7 H 0.7967 0.6065 0.6127
C13 C 0.6667(9) 0.9492(9) 0.5027(5)
H8 H 0.6744 1.0172 0.5096
H9 H 0.6499 0.9542 0.4619
C14 C 0.5711(9) 0.9171(9) 0.5479(5)
C15 C 0.5208(9) 0.8393(9) 0.5369(6)
H10 H 0.5471 0.8081 0.5012
C16 C 0.4325(12) 0.8071(11) 0.5778(7)
H11 H 0.3995 0.7553 0.5693
C17 C 0.3952(11) 0.8496(12) 0.6288(7)
H12 H 0.3369 0.8261 0.6563
C18 C 0.4397(11) 0.9272(13) 0.6423(6)
H13 H 0.4106 0.9577 0.6779
C19 C 0.5299(10) 0.9604(10) 0.6018(6)
H14 H 0.5621 1.0119 0.6113
C20 C 0.8980(9) 1.1307(8) 0.3889(5)
H15 H 0.9143 1.1326 0.3446
H16 H 0.8234 1.1172 0.4020
C21 C 0.8995(9) 1.2360(9) 0.4034(5)
C22 C 0.8338(10) 1.2741(10) 0.4553(5)
H17 H 0.7906 1.2324 0.4830
C23 C 0.8323(12) 1.3719(11) 0.4661(6)
H18 H 0.7873 1.3966 0.5007
C24 C 0.8971(12) 1.4350(11) 0.4259(7)
H19 H 0.8959 1.5016 0.4337
C25 C 0.9630(10) 1.3986(10) 0.3747(7)
H20 H 1.0072 1.4405 0.3478
C26 C 0.9639(9) 1.3012(9) 0.3631(6)
H21 H 1.0081 1.2776 0.3279
C27 C 1.1519(9) 0.9189(9) 0.3827(6)
H22 H 1.1944 0.9669 0.3558
H23 H 1.1931 0.8869 0.4145
C28 C 1.1384(9) 0.8377(8) 0.3461(5)
C29 C 1.1476(10) 0.8537(10) 0.2825(6)
H24 H 1.1610 0.9169 0.2617
C30 C 1.1373(11) 0.7777(12) 0.2501(7)
H25 H 1.1419 0.7902 0.2077
C31 C 1.1203(12) 0.6834(11) 0.2801(8)
H26 H 1.1147 0.6322 0.2574
C32 C 1.1113(11) 0.6629(10) 0.3415(7)
H27 H 1.1000 0.5984 0.3614
C33 C 1.1196(10) 0.7419(10) 0.3749(6)
H28 H 1.1122 0.7293 0.4174
C34 C 0.8568(10) 0.8890(10) 0.3577(5)
H29 H 0.9033 0.9181 0.3225
H30 H 0.7827 0.9225 0.3584
H31 H 0.8607 0.8173 0.3554
C35 C 0.5329(11) 0.6445(10) 0.9985(6)
H32 H 0.5653 0.5884 1.0252
H33 H 0.4594 0.6675 1.0194
C36 C 0.5248(11) 0.6040(9) 0.9408(6)
C37 C 0.6138(11) 0.5406(9) 0.9117(6)
H34 H 0.6781 0.5246 0.9277
C38 C 0.6072(15) 0.5003(11) 0.8580(7)
H35 H 0.6664 0.4573 0.8388
C39 C 0.5136(19) 0.5253(14) 0.8349(7)
H36 H 0.5097 0.4995 0.7991
C40 C 0.4227(16) 0.5885(13) 0.8630(8)
H37 H 0.3583 0.6037 0.8472
C41 C 0.4316(12) 0.6279(11) 0.9155(8)
H38 H 0.3726 0.6718 0.9341
C42 C 0.7972(10) 0.7392(10) 0.9813(6)
H39 H 0.8301 0.7884 0.9501
H40 H 0.8151 0.7475 1.0203
C43 C 0.8424(10) 0.6335(10) 0.9657(6)
C44 C 0.8410(10) 0.5486(12) 1.0115(7)
H41 H 0.8132 0.5579 1.0524
C45 C 0.8813(13) 0.4520(13) 0.9949(10)
H42 H 0.8813 0.3962 1.0252
C46 C 0.9209(13) 0.4363(14) 0.9358(12)
H43 H 0.9463 0.3701 0.9258
C47 C 0.9236(13) 0.5155(15) 0.8916(9)
H44 H 0.9535 0.5046 0.8511
C48 C 0.8822(10) 0.6133(11) 0.9059(7)
H45 H 0.8811 0.6671 0.8745
C49 C 0.6385(10) 1.0223(9) 1.0952(6)
H46 H 0.6834 1.0472 1.0573
H47 H 0.6059 1.0808 1.1172
C50 C 0.7090(10) 0.9514(10) 1.1324(6)
C51 C 0.6739(11) 0.9292(11) 1.1955(6)
H48 H 0.6064 0.9623 1.2135
C52 C 0.7347(13) 0.8611(12) 1.2316(7)
H49 H 0.7076 0.8472 1.2733
C53 C 0.8361(14) 0.8129(12) 1.2067(8)
H50 H 0.8782 0.7675 1.2316
C54 C 0.8752(12) 0.8319(11) 1.1447(8)
H51 H 0.9426 0.7977 1.1273
C55 C 0.8134(11) 0.9019(10) 1.1090(6)
H52 H 0.8421 0.9170 1.0677
C56 C 0.3601(9) 0.9335(9) 1.1320(5)
H53 H 0.3744 0.8798 1.1649
H54 H 0.3272 0.9957 1.1504
C57 C 0.2819(11) 0.9046(10) 1.0988(5)
C58 C 0.1940(13) 0.9729(12) 1.0858(7)
H55 H 0.1840 1.0387 1.0970
C59 C 0.1175(13) 0.9459(15) 1.0553(8)
H56 H 0.0570 0.9928 1.0469
C60 C 0.1346(16) 0.847(2) 1.0383(8)
H57 H 0.0858 0.8292 1.0173
C61 C 0.2204(14) 0.7781(17) 1.0516(9)
H58 H 0.2303 0.7123 1.0405
C62 C 0.2935(11) 0.8058(12) 1.0820(7)
H59 H 0.3522 0.7575 1.0916
C63 C 0.6012(13) 0.7296(10) 1.1334(6)
H60 H 0.5745 0.7643 1.1694
H61 H 0.6780 0.7049 1.1309
H62 H 0.5628 0.6730 1.1358
N1 N 0.7915(7) 0.8336(7) 0.6084(4)
N2 N 0.6378(8) 0.7952(7) 0.8844(4)
N3 N 0.5957(9) 1.0254(8) 0.7349(5)
N4 N 0.8395(10) 0.5817(9) 0.7501(5)
N5 N 0.9049(9) 0.8747(8) 0.7610(5)
N6 N 0.5901(9) 0.7525(8) 0.7354(4)
O1 O 0.9361(5) 0.9344(5) 0.5100(3)
O2 O 0.8916(6) 0.9026(6) 0.4119(3)
O3 O 0.5483(6) 0.9133(5) 0.9861(3)
O4 O 0.5839(7) 0.7987(6) 1.0804(3)
O5 O 0.5188(8) 0.7159(7) 0.7289(4)
Fe1 Fe 0.69840(13) 0.79713(12) 0.74477(7)
Sn1 Sn 0.81997(6) 0.85376(6) 0.50412(3)
Sn2 Sn 1.00048(6) 1.00225(6) 0.42467(3)
Sn3 Sn 0.62530(7) 0.76711(6) 0.98719(4)
Sn4 Sn 0.51180(6) 0.95779(6) 1.07313(3)
O1A O 1.0639(5) 1.0656(5) 0.4900(3)
O3A O 0.4517(6) 1.0867(5) 1.0139(3)
Sn2A Sn 0.99952(6) 0.99775(6) 0.57533(3)
Sn4A Sn 0.48820(6) 1.04221(6) 0.92687(3)
C64 C 0.4124(11) 0.7329(10) 0.3338(6)
H63 H 0.3501 0.6995 0.3344
H64 H 0.4025 0.7989 0.3092
Cl1 Cl 0.4188(4) 0.7511(4) 0.4090(2)
Cl2 Cl 0.5322(4) 0.6582(4) 0.3008(2)
C65 C 0.1777(17) 0.5705(16) 0.7540(11)
H65 H 0.1564 0.6188 0.7843
H66 H 0.1185 0.5769 0.7313
Cl3 Cl 0.3000(6) 0.5998(5) 0.7021(3)
Cl4 Cl 0.1993(6) 0.4529(6) 0.7891(4)
C66 C 0.1145(12) 0.8851(12) 0.8257(7)
H67 H 0.1274 0.9479 0.8379
H68 H 0.0556 0.9028 0.8023
Cl5 Cl 0.2286(6) 0.8341(5) 0.7800(3)
Cl6 Cl 0.0746(5) 0.8069(5) 0.8890(3)
loop_
_geom_bond_atom_site_label_1
_geom_bond_atom_site_label_2
_geom_bond_site_symmetry_1
_geom_bond_site_symmetry_2
C1 N1 1_555 1_555
C2 N2 1_555 1_555
C3 N3 1_555 1_555
C4 N4 1_555 1_555
C5 N5 1_555 1_555
C6 H1 1_555 1_555
H2 C6 1_555 1_555
C7 C6 1_555 1_555
C8 C7 1_555 1_555
H3 C8 1_555 1_555
C9 C8 1_555 1_555
H4 C9 1_555 1_555
C10 C9 1_555 1_555
H5 C10 1_555 1_555
C11 C10 1_555 1_555
H6 C11 1_555 1_555
C12 C7 1_555 1_555
H7 C12 1_555 1_555
C13 H8 1_555 1_555
H9 C13 1_555 1_555
C14 C13 1_555 1_555
C15 C14 1_555 1_555
H10 C15 1_555 1_555
C16 C15 1_555 1_555
H11 C16 1_555 1_555
C17 C16 1_555 1_555
H12 C17 1_555 1_555
C18 C17 1_555 1_555
H13 C18 1_555 1_555
C19 C14 1_555 1_555
H14 C19 1_555 1_555
C20 H15 1_555 1_555
H16 C20 1_555 1_555
C21 C20 1_555 1_555
C22 C21 1_555 1_555
H17 C22 1_555 1_555
C23 C22 1_555 1_555
H18 C23 1_555 1_555
C24 C23 1_555 1_555
H19 C24 1_555 1_555
C25 C24 1_555 1_555
H20 C25 1_555 1_555
C26 C21 1_555 1_555
H21 C26 1_555 1_555
C27 H22 1_555 1_555
H23 C27 1_555 1_555
C28 C27 1_555 1_555
C29 C28 1_555 1_555
H24 C29 1_555 1_555
C30 C29 1_555 1_555
H25 C30 1_555 1_555
C31 C30 1_555 1_555
H26 C31 1_555 1_555
C32 C31 1_555 1_555
H27 C32 1_555 1_555
C33 C28 1_555 1_555
H28 C33 1_555 1_555
C34 H29 1_555 1_555
H30 C34 1_555 1_555
H31 C34 1_555 1_555
C35 H32 1_555 1_555
H33 C35 1_555 1_555
C36 C35 1_555 1_555
C37 C36 1_555 1_555
H34 C37 1_555 1_555
C38 C37 1_555 1_555
H35 C38 1_555 1_555
C39 C38 1_555 1_555
H36 C39 1_555 1_555
C40 C39 1_555 1_555
H37 C40 1_555 1_555
C41 C36 1_555 1_555
H38 C41 1_555 1_555
C42 H39 1_555 1_555
H40 C42 1_555 1_555
C43 C42 1_555 1_555
C44 C43 1_555 1_555
H41 C44 1_555 1_555
C45 C44 1_555 1_555
H42 C45 1_555 1_555
C46 C45 1_555 1_555
H43 C46 1_555 1_555
C47 C46 1_555 1_555
H44 C47 1_555 1_555
C48 C43 1_555 1_555
H45 C48 1_555 1_555
C49 H46 1_555 1_555
H47 C49 1_555 1_555
C50 C49 1_555 1_555
C51 C50 1_555 1_555
H48 C51 1_555 1_555
C52 C51 1_555 1_555
H49 C52 1_555 1_555
C53 C52 1_555 1_555
H50 C53 1_555 1_555
C54 C53 1_555 1_555
H51 C54 1_555 1_555
C55 C50 1_555 1_555
H52 C55 1_555 1_555
C56 H53 1_555 1_555
H54 C56 1_555 1_555
C57 C56 1_555 1_555
C58 C57 1_555 1_555
H55 C58 1_555 1_555
C59 C58 1_555 1_555
H56 C59 1_555 1_555
C60 C59 1_555 1_555
H57 C60 1_555 1_555
C61 C60 1_555 1_555
H58 C61 1_555 1_555
C62 C57 1_555 1_555
H59 C62 1_555 1_555
C63 H60 1_555 1_555
H61 C63 1_555 1_555
H62 C63 1_555 1_555
C64 H63 1_555 1_555
H64 C64 1_555 1_555
C65 H65 1_555 1_555
H66 C65 1_555 1_555
C66 H67 1_555 1_555
H68 C66 1_555 1_555
N1 Sn1 1_555 1_555
N2 Sn3 1_555 1_555
N6 O5 1_555 1_555
O1 Sn1 1_555 1_555
O2 C34 1_555 1_555
O3 Sn3 1_555 1_555
O4 C63 1_555 1_555
Fe1 C1 1_555 1_555
Sn1 C6 1_555 1_555
Sn2 C20 1_555 1_555
Sn3 C35 1_555 1_555
Sn4 C49 1_555 1_555
Cl1 C64 1_555 1_555
Cl2 C64 1_555 1_555
Cl3 C65 1_555 1_555
Cl4 C65 1_555 1_555
Cl5 C66 1_555 1_555
Cl6 C66 1_555 1_555
O1A Sn2 1_555 1_555
O3A Sn4 1_555 1_555
Sn2A O1 1_555 1_555
Sn4A O3 1_555 1_555
C2 Fe1 1_555 1_555
C3 Fe1 1_555 1_555
C4 Fe1 1_555 1_555
C5 Fe1 1_555 1_555
C11 C12 1_555 1_555
C13 Sn1 1_555 1_555
C18 C19 1_555 1_555
C25 C26 1_555 1_555
C27 Sn2 1_555 1_555
C32 C33 1_555 1_555
C40 C41 1_555 1_555
C42 Sn3 1_555 1_555
C47 C48 1_555 1_555
C54 C55 1_555 1_555
C56 Sn4 1_555 1_555
C61 C62 1_555 1_555
N6 Fe1 1_555 1_555
O1 Sn2 1_555 1_555
O2 Sn1 1_555 1_555
O2 Sn2 1_555 1_555
O3 Sn4 1_555 1_555
O4 Sn3 1_555 1_555
O4 Sn4 1_555 1_555
O1A Sn2A 1_555 1_555
O3A Sn4A 1_555 1_555

#END
