
#######################################################################
#
#                 Cambridge Crystallographic Data Centre
#                                CCDC 
#
#######################################################################
#
# If this CIF has been generated from an entry in the Cambridge 
# Structural Database, then it will include bibliographic, chemical, 
# crystal, experimental, refinement or atomic coordinate data resulting 
# from the CCDC's data processing and validation procedures.
#
#######################################################################

data_WEYPUN
_symmetry_cell_setting           orthorhombic
_symmetry_space_group_name_H-M   'P b c a'
_symmetry_Int_Tables_number      61
_space_group_name_Hall           '-P 2ac 2ab'
loop_
_symmetry_equiv_pos_site_id
_symmetry_equiv_pos_as_xyz
1 x,y,z
2 1/2-x,-y,1/2+z
3 -x,1/2+y,1/2-z
4 1/2+x,1/2-y,-z
5 -x,-y,-z
6 1/2+x,y,1/2-z
7 x,1/2-y,1/2+z
8 1/2-x,1/2+y,z
_cell_length_a                   12.6358(8)
_cell_length_b                   15.2897(9)
_cell_length_c                   16.4183(10)
_cell_angle_alpha                90
_cell_angle_beta                 90
_cell_angle_gamma                90
_cell_volume                     3171.98
loop_
_atom_site_label
_atom_site_type_symbol
_atom_site_fract_x
_atom_site_fract_y
_atom_site_fract_z
Mn1 Mn 0.00789(3) 0.08922(2) 0.39866(2)
C1 C -0.23571(19) 0.08361(16) 0.59831(16)
C2 C -0.2811(2) 0.16029(16) 0.59008(17)
H1 H -0.2537 0.2016 0.5524
C3 C -0.3703(2) 0.18108(16) 0.63720(17)
C4 C -0.41544(19) 0.12412(16) 0.69381(16)
H2 H -0.4770 0.1398 0.7236
C5 C -0.36932(19) 0.04795(16) 0.70420(17)
C6 C -0.27899(19) 0.02727(16) 0.65625(16)
H3 H -0.2463 -0.0280 0.6641
C7 C -0.14192(19) 0.06072(16) 0.54166(17)
C8 C -0.4172(2) 0.26479(16) 0.62872(17)
C9 C -0.4157(2) -0.00973(16) 0.77074(16)
O1 O -0.09388(13) 0.11880(11) 0.50384(12)
O2 O -0.11824(13) -0.01315(11) 0.53287(12)
O3 O -0.50681(15) 0.27966(13) 0.66182(15)
O4 O -0.36744(15) 0.31874(12) 0.58838(13)
O5 O -0.50945(16) 0.00025(14) 0.79493(14)
O6 O -0.36041(16) -0.06408(13) 0.80365(16)
Mn1A Mn -0.50789(3) -0.08922(2) 0.89866(2)
Mn1C Mn -0.49211(3) 0.41078(2) 0.60134(2)
Mn1D Mn -0.00789(3) -0.08922(2) 0.60134(2)
O2D O 0.11824(13) 0.01315(11) 0.46713(12)
O3C O -0.00681(15) 0.22034(13) 0.33818(15)
O4C O 0.13256(15) 0.18126(12) 0.41162(13)
O5A O 0.00945(16) -0.00025(14) 0.29493(14)
O6A O -0.13959(16) 0.06408(13) 0.30365(16)
N1 N -0.9372(3) 0.2776(3) 0.63671(19)
N2 N -0.7939(2) 0.2066(2) 0.6199(2)
C10 C -0.8557(4) 0.3252(3) 0.6656(2)
H4 H -0.8613 0.3811 0.6905
C11 C -0.7673(3) 0.2821(3) 0.6539(2)
H5 H -0.6979 0.3012 0.6672
C12 C -0.8980(3) 0.2073(3) 0.6097(2)
H6 H -0.9376 0.1613 0.5854
C13 C -1.0502(4) 0.2979(4) 0.6360(4)
H7 H -1.0890 0.2498 0.6102
H8 H -1.0621 0.3519 0.6053
H9 H -1.0753 0.3055 0.6920
C14 C -0.7036(5) 0.1589(4) 0.5642(4)
H10 H -0.7286 0.1394 0.5100
H11 H -0.6360 0.1914 0.5603
C15 C -0.7054(4) 0.0967(3) 0.6218(3)
H12 H -0.7742 0.0662 0.6270
H13 H -0.6788 0.1162 0.6755
C16 C -0.6164(5) 0.0433(4) 0.5659(4)
H14 H -0.5974 -0.0115 0.5931
H15 H -0.5531 0.0796 0.5594
H16 H -0.6465 0.0304 0.5122
loop_
_geom_bond_atom_site_label_1
_geom_bond_atom_site_label_2
_geom_bond_site_symmetry_1
_geom_bond_site_symmetry_2
Mn1 O1 1_555 1_555
C1 C2 1_555 1_555
C2 H1 1_555 1_555
C3 C2 1_555 1_555
C4 C3 1_555 1_555
H2 C4 1_555 1_555
C5 C4 1_555 1_555
C6 C1 1_555 1_555
H3 C6 1_555 1_555
C7 C1 1_555 1_555
C8 C3 1_555 1_555
C9 C5 1_555 1_555
O1 C7 1_555 1_555
O2 C7 1_555 1_555
O3 C8 1_555 1_555
O4 C8 1_555 1_555
O5 C9 1_555 1_555
O6 C9 1_555 1_555
N1 C10 1_555 1_555
N2 C11 1_555 1_555
C10 H4 1_555 1_555
C11 C10 1_555 1_555
H5 C11 1_555 1_555
C12 N1 1_555 1_555
H6 C12 1_555 1_555
C13 N1 1_555 1_555
H7 C13 1_555 1_555
H8 C13 1_555 1_555
H9 C13 1_555 1_555
C14 N2 1_555 1_555
H10 C14 1_555 1_555
H11 C14 1_555 1_555
C15 C14 1_555 1_555
H12 C15 1_555 1_555
H13 C15 1_555 1_555
C16 C15 1_555 1_555
H14 C16 1_555 1_555
H15 C16 1_555 1_555
H16 C16 1_555 1_555
Mn1A O5 1_555 1_555
Mn1C O3 1_555 1_555
Mn1D O2 1_555 1_555
O2D Mn1 1_555 1_555
O3C Mn1 1_555 1_555
O4C Mn1 1_555 1_555
O5A Mn1 1_555 1_555
O6A Mn1 1_555 1_555
C5 C6 1_555 1_555
O4 Mn1C 1_555 1_555
O6 Mn1A 1_555 1_555
N2 C12 1_555 1_555

#END
