
#######################################################################
#
#                 Cambridge Crystallographic Data Centre
#                                CCDC 
#
#######################################################################
#
# If this CIF has been generated from an entry in the Cambridge 
# Structural Database, then it will include bibliographic, chemical, 
# crystal, experimental, refinement or atomic coordinate data resulting 
# from the CCDC's data processing and validation procedures.
#
#######################################################################

data_WEYQEY
_symmetry_cell_setting           orthorhombic
_symmetry_space_group_name_H-M   'P b c a'
_symmetry_Int_Tables_number      61
_space_group_name_Hall           '-P 2ac 2ab'
loop_
_symmetry_equiv_pos_site_id
_symmetry_equiv_pos_as_xyz
1 x,y,z
2 1/2-x,-y,1/2+z
3 -x,1/2+y,1/2-z
4 1/2+x,1/2-y,-z
5 -x,-y,-z
6 1/2+x,y,1/2-z
7 x,1/2-y,1/2+z
8 1/2-x,1/2+y,z
_cell_length_a                   12.6991(5)
_cell_length_b                   15.5711(6)
_cell_length_c                   16.3313(6)
_cell_angle_alpha                90
_cell_angle_beta                 90
_cell_angle_gamma                90
_cell_volume                     3229.33
loop_
_atom_site_label
_atom_site_type_symbol
_atom_site_fract_x
_atom_site_fract_y
_atom_site_fract_z
Mn1 Mn 0.60058(2) 0.00472(2) 0.588780(17)
C1 C 0.70445(13) 0.36659(16) 0.45226(11)
C2 C 0.69328(13) 0.41351(16) 0.37558(12)
H1 H 0.7223 0.4675 0.3666
C3 C 0.63688(13) 0.37081(15) 0.31928(11)
C4 C 0.58895(14) 0.28255(17) 0.34042(12)
H2 H 0.5500 0.2560 0.2993
C5 C 0.59772(12) 0.23620(16) 0.41725(11)
C6 C 0.65636(13) 0.27847(16) 0.47299(11)
H3 H 0.6678 0.2543 0.5243
C7 C 0.77302(13) 0.41514(18) 0.51217(12)
C8 C 0.62841(12) 0.41966(14) 0.23128(11)
C9 C 0.54097(13) 0.14384(15) 0.44014(11)
O1 O 0.79814(15) 0.49874(15) 0.49855(15)
O2 O 0.80079(15) 0.35832(18) 0.56480(13)
O3 O 0.66043(15) 0.50589(13) 0.22097(12)
O4 O 0.58509(15) 0.37256(15) 0.18262(10)
O5 O 0.53543(11) 0.11742(12) 0.51326(8)
O6 O 0.50075(10) 0.09948(12) 0.38270(9)
Mn1D Mn 0.39942(2) -0.00472(2) 0.411220(17)
Mn1F Mn 0.60058(2) 0.49528(2) 0.088780(17)
Mn1G Mn 0.89942(2) 0.50472(2) 0.588780(17)
O1G O 0.70186(15) -0.00126(15) 0.49855(15)
O3F O 0.66043(15) -0.00589(13) 0.72097(12)
O4F O 0.58509(15) 0.12744(15) 0.68262(10)
O6D O 0.49925(10) -0.09948(12) 0.61730(9)
N1 N 0.3792(2) 0.2034(3) 0.7060(3)
N2 N 0.36284(16) 0.0609(2) 0.7742(2)
C10 C 0.3604(3) -0.0517(4) 0.7964(5)
H4 H 0.3861 -0.0832 0.7500
H5 H 0.2895 -0.0692 0.8082
H6 H 0.4044 -0.0633 0.8430
C11 C 0.3336(3) 0.1410(3) 0.8210(3)
H7 H 0.3076 0.1367 0.8741
C12 C 0.3910(2) 0.1004(3) 0.7055(3)
H8 H 0.4159 0.0705 0.6601
C13 C 0.3464(2) 0.2287(3) 0.7815(3)
H9 H 0.3351 0.2834 0.8026
C14 C 0.4327(4) 0.2830(5) 0.6656(4)
H10 H 0.4319 0.3313 0.7032
H11 H 0.5054 0.2699 0.6522
C15 C 0.3807(3) 0.3024(4) 0.5992(3)
H12 H 0.3095 0.3184 0.6145
H13 H 0.3760 0.2513 0.5653
C16 C 0.4336(5) 0.3837(5) 0.5416(4)
H14 H 0.3894 0.3943 0.4950
H15 H 0.5026 0.3675 0.5234
H16 H 0.4383 0.4349 0.5742
loop_
_geom_bond_atom_site_label_1
_geom_bond_atom_site_label_2
_geom_bond_site_symmetry_1
_geom_bond_site_symmetry_2
Mn1 O5 1_555 1_555
C1 C2 1_555 1_555
C2 H1 1_555 1_555
C3 C2 1_555 1_555
C4 C3 1_555 1_555
H2 C4 1_555 1_555
C5 C4 1_555 1_555
C6 C1 1_555 1_555
H3 C6 1_555 1_555
C7 C1 1_555 1_555
C8 C3 1_555 1_555
C9 C5 1_555 1_555
O1 C7 1_555 1_555
O2 C7 1_555 1_555
O3 C8 1_555 1_555
O4 C8 1_555 1_555
O5 C9 1_555 1_555
O6 C9 1_555 1_555
N1 C12 1_555 1_555
N2 C10 1_555 1_555
C10 H4 1_555 1_555
H5 C10 1_555 1_555
H6 C10 1_555 1_555
C11 N2 1_555 1_555
H7 C11 1_555 1_555
C12 N2 1_555 1_555
H8 C12 1_555 1_555
C13 N1 1_555 1_555
H9 C13 1_555 1_555
C14 N1 1_555 1_555
H10 C14 1_555 1_555
H11 C14 1_555 1_555
C15 C14 1_555 1_555
H12 C15 1_555 1_555
H13 C15 1_555 1_555
C16 C15 1_555 1_555
H14 C16 1_555 1_555
H15 C16 1_555 1_555
H16 C16 1_555 1_555
Mn1D O6 1_555 1_555
Mn1F O3 1_555 1_555
Mn1G O1 1_555 1_555
O1G Mn1 1_555 1_555
O3F Mn1 1_555 1_555
O4F Mn1 1_555 1_555
O6D Mn1 1_555 1_555
C5 C6 1_555 1_555
O4 Mn1F 1_555 1_555
C11 C13 1_555 1_555

#END
