
#######################################################################
#
#                 Cambridge Crystallographic Data Centre
#                                CCDC 
#
#######################################################################
#
# If this CIF has been generated from an entry in the Cambridge 
# Structural Database, then it will include bibliographic, chemical, 
# crystal, experimental, refinement or atomic coordinate data resulting 
# from the CCDC's data processing and validation procedures.
#
#######################################################################

data_WEYQAU
_symmetry_cell_setting           orthorhombic
_symmetry_space_group_name_H-M   'P b c a'
_symmetry_Int_Tables_number      61
_space_group_name_Hall           '-P 2ac 2ab'
loop_
_symmetry_equiv_pos_site_id
_symmetry_equiv_pos_as_xyz
1 x,y,z
2 1/2-x,-y,1/2+z
3 -x,1/2+y,1/2-z
4 1/2+x,1/2-y,-z
5 -x,-y,-z
6 1/2+x,y,1/2-z
7 x,1/2-y,1/2+z
8 1/2-x,1/2+y,z
_cell_length_a                   12.4378(6)
_cell_length_b                   14.7717(8)
_cell_length_c                   16.6097(9)
_cell_angle_alpha                90
_cell_angle_beta                 90
_cell_angle_gamma                90
_cell_volume                     3051.66
loop_
_atom_site_label
_atom_site_type_symbol
_atom_site_fract_x
_atom_site_fract_y
_atom_site_fract_z
Mn1 Mn 0.604574(19) 0.01655(2) 0.579815(16)
C1 C 0.79655(13) -0.12973(16) 0.43917(11)
C2 C 0.84701(13) -0.21923(15) 0.46087(11)
H1 H 0.8397 -0.2415 0.5142
C3 C 0.90360(12) -0.26964(16) 0.40517(11)
C4 C 0.90623(12) -0.23221(15) 0.32697(11)
H2 H 0.9406 -0.2661 0.2857
C5 C 0.85780(13) -0.14153(15) 0.30456(11)
C6 C 0.80424(13) -0.08927(15) 0.36146(11)
H3 H 0.7752 -0.0313 0.3495
C7 C 0.73122(13) -0.07771(16) 0.49681(11)
C8 C 0.96222(12) -0.36293(14) 0.42940(11)
C9 C 0.86314(13) -0.09813(16) 0.21984(11)
O1 O 0.70780(11) 0.01690(12) 0.48576(10)
O2 O 0.69905(11) -0.13277(12) 0.55327(9)
O3 O 0.99914(9) -0.41699(11) 0.37496(8)
O4 O 0.97454(9) -0.38022(10) 0.50401(7)
O5 O 0.82780(10) -0.00949(11) 0.20431(9)
O6 O 0.90454(11) -0.15191(12) 0.16736(8)
Mn1A Mn 0.895426(19) -0.01655(2) 0.079815(16)
Mn1C Mn 1.104574(19) -0.51655(2) 0.420185(16)
Mn1G Mn 0.895426(19) -0.48345(2) 0.579815(16)
O3C O 0.49914(9) -0.08301(11) 0.62504(8)
O4G O 0.52546(9) 0.11978(10) 0.50401(7)
O5A O 0.67220(10) 0.00949(11) 0.70431(9)
O6A O 0.59546(11) 0.15191(12) 0.66736(8)
N1 N 1.12421(16) -0.0925(2) 0.29040(19)
N2 N 1.12129(14) -0.22255(18) 0.20306(15)
C10 C 1.10163(16) -0.1153(2) 0.2143(2)
H4 H 1.0779 -0.0748 0.1735
C11 C 1.1553(2) -0.1776(3) 0.3280(3)
H5 H 1.1760 -0.1811 0.3830
C12 C 1.15266(18) -0.2562(2) 0.27669(18)
H6 H 1.1688 -0.3171 0.2905
C13 C 1.1104(3) -0.2850(3) 0.1318(2)
H7 H 1.1302 -0.3467 0.1478
H8 H 1.1580 -0.2645 0.0885
H9 H 1.0358 -0.2845 0.1128
C14 C 1.1124(2) 0.0156(3) 0.3300(3)
H10 H 1.1834 0.0456 0.3342
H11 H 1.0638 0.0536 0.2970
C15 C 1.0658(3) -0.0028(4) 0.4108(3)
H12 H 1.0567 0.0543 0.4400
H13 H 1.1142 -0.0425 0.4411
H14 H 0.9958 -0.0324 0.4046
loop_
_geom_bond_atom_site_label_1
_geom_bond_atom_site_label_2
_geom_bond_site_symmetry_1
_geom_bond_site_symmetry_2
Mn1 O1 1_555 1_555
C1 C2 1_555 1_555
C2 H1 1_555 1_555
C3 C2 1_555 1_555
C4 C3 1_555 1_555
H2 C4 1_555 1_555
C5 C4 1_555 1_555
C6 C1 1_555 1_555
H3 C6 1_555 1_555
C7 C1 1_555 1_555
C8 C3 1_555 1_555
C9 C5 1_555 1_555
O1 C7 1_555 1_555
O2 C7 1_555 1_555
O3 C8 1_555 1_555
O4 C8 1_555 1_555
O5 C9 1_555 1_555
O6 C9 1_555 1_555
N1 C10 1_555 1_555
N2 C10 1_555 1_555
C10 H4 1_555 1_555
C11 N1 1_555 1_555
H5 C11 1_555 1_555
C12 N2 1_555 1_555
H6 C12 1_555 1_555
C13 N2 1_555 1_555
H7 C13 1_555 1_555
H8 C13 1_555 1_555
H9 C13 1_555 1_555
C14 N1 1_555 1_555
H10 C14 1_555 1_555
H11 C14 1_555 1_555
C15 C14 1_555 1_555
H12 C15 1_555 1_555
H13 C15 1_555 1_555
H14 C15 1_555 1_555
Mn1A O5 1_555 1_555
Mn1C O3 1_555 1_555
Mn1G O4 1_555 1_555
O3C Mn1 1_555 1_555
O4G Mn1 1_555 1_555
O5A Mn1 1_555 1_555
O6A Mn1 1_555 1_555
C5 C6 1_555 1_555
O6 Mn1A 1_555 1_555
C11 C12 1_555 1_555

#END
