
#######################################################################
#
#                 Cambridge Crystallographic Data Centre
#                                CCDC 
#
#######################################################################
#
# If this CIF has been generated from an entry in the Cambridge 
# Structural Database, then it will include bibliographic, chemical, 
# crystal, experimental, refinement or atomic coordinate data resulting 
# from the CCDC's data processing and validation procedures.
#
#######################################################################

data_WEYWEE
_symmetry_cell_setting           monoclinic
_symmetry_space_group_name_H-M   'P 21/n'
_symmetry_Int_Tables_number      14
_space_group_name_Hall           '-P 2yn'
loop_
_symmetry_equiv_pos_site_id
_symmetry_equiv_pos_as_xyz
1 x,y,z
2 1/2-x,1/2+y,1/2-z
3 -x,-y,-z
4 1/2+x,1/2-y,1/2+z
_cell_length_a                   5.3295(14)
_cell_length_b                   10.246(3)
_cell_length_c                   17.239(5)
_cell_angle_alpha                90
_cell_angle_beta                 94.207(3)
_cell_angle_gamma                90
_cell_volume                     938.817
loop_
_atom_site_label
_atom_site_type_symbol
_atom_site_fract_x
_atom_site_fract_y
_atom_site_fract_z
Co1 Co 0.0000 1.0000 0.5000
C1 C 0.1527(3) 0.71648(15) 0.52735(10)
C2 C 0.3341(3) 0.60520(15) 0.51287(10)
C3 C 0.4672(3) 0.54194(18) 0.57386(10)
C4 C 0.3708(3) 0.56046(16) 0.43903(10)
C5 C 0.2179(4) 1.1504(2) 0.63771(12)
H1 H 0.0837 1.2048 0.6222
C6 C 0.3082(6) 1.3047(3) 0.74226(15)
H2 H 0.1672 1.3492 0.7165
H3 H 0.4529 1.3607 0.7445
H4 H 0.2699 1.2820 0.7941
C7 C 0.5746(5) 1.1093(3) 0.72839(16)
H5 H 0.5823 1.0306 0.6985
H6 H 0.5575 1.0877 0.7819
H7 H 0.7261 1.1587 0.7242
F1 F 0.2392(3) 0.61355(13) 0.37697(7)
F2 F 0.4481(3) 0.58312(14) 0.64744(7)
N1 N 0.3611(3) 1.18595(17) 0.69918(10)
O1 O 0.2049(2) 0.82472(12) 0.49803(8)
O2 O -0.0254(3) 0.69022(14) 0.56676(11)
O3 O 0.2453(3) 1.05045(14) 0.59825(9)
O4 O 0.2554(2) 1.08123(14) 0.42621(9)
H8 H 0.2096 1.1576 0.4273
H9 H 0.4021 1.0607 0.4377
C1B C 0.8473(3) 0.28352(15) 0.47265(10)
C2B C 0.6659(3) 0.39480(15) 0.48713(10)
C3B C 0.5328(3) 0.45806(18) 0.42614(10)
C4B C 0.6292(3) 0.43954(16) 0.56097(10)
F1B F 0.7608(3) 0.38645(13) 0.62303(7)
F2B F 0.5519(3) 0.41688(14) 0.35256(7)
O1B O 0.7951(2) 0.17528(12) 0.50197(8)
O2B O 1.0254(3) 0.30978(14) 0.43324(11)
C5B C -0.2179(4) 0.8496(2) 0.36229(12)
H1B H -0.0837 0.7952 0.3778
C6B C -0.3082(6) 0.6953(3) 0.25774(15)
H2B H -0.1672 0.6508 0.2835
H3B H -0.4529 0.6393 0.2555
H4B H -0.2699 0.7180 0.2059
C7B C -0.5746(5) 0.8907(3) 0.27161(16)
H5B H -0.5823 0.9694 0.3015
H6B H -0.5575 0.9123 0.2181
H7B H -0.7261 0.8413 0.2758
N1B N -0.3611(3) 0.81405(17) 0.30082(10)
O3B O -0.2453(3) 0.94955(14) 0.40175(9)
O4B O -0.2554(2) 0.91877(14) 0.57379(9)
H8B H -0.2096 0.8424 0.5727
H9B H -0.4021 0.9393 0.5623
Co1_2 Co 1.0000 0.0000 0.5000
O1B_2 O -0.2049(2) 1.17528(12) 0.50197(8)
loop_
_geom_bond_atom_site_label_1
_geom_bond_atom_site_label_2
_geom_bond_site_symmetry_1
_geom_bond_site_symmetry_2
Co1 O1 1_555 1_555
C1 C2 1_555 1_555
C2 C3 1_555 1_555
C3 F2 1_555 1_555
C4 C2 1_555 1_555
C5 H1 1_555 1_555
C6 H2 1_555 1_555
H3 C6 1_555 1_555
H4 C6 1_555 1_555
C7 H5 1_555 1_555
H6 C7 1_555 1_555
H7 C7 1_555 1_555
F1 C4 1_555 1_555
N1 C5 1_555 1_555
O1 C1 1_555 1_555
O2 C1 1_555 1_555
O3 Co1 1_555 1_555
O4 Co1 1_555 1_555
H8 O4 1_555 1_555
H9 O4 1_555 1_555
C1B C2B 1_555 1_555
C2B C3B 1_555 1_555
C3B C4 1_555 1_555
C4B C3 1_555 1_555
F1B C4B 1_555 1_555
F2B C3B 1_555 1_555
O1B C1B 1_555 1_555
O2B C1B 1_555 1_555
C5B H1B 1_555 1_555
C6B H2B 1_555 1_555
H3B C6B 1_555 1_555
H4B C6B 1_555 1_555
C7B H5B 1_555 1_555
H6B C7B 1_555 1_555
H7B C7B 1_555 1_555
N1B C5B 1_555 1_555
O3B Co1 1_555 1_555
O4B Co1 1_555 1_555
H8B O4B 1_555 1_555
H9B O4B 1_555 1_555
Co1_2 O1B 1_555 1_555
O1B_2 Co1 1_555 1_555
C5 O3 1_555 1_555
C6 N1 1_555 1_555
C7 N1 1_555 1_555
C2B C4B 1_555 1_555
C5B O3B 1_555 1_555
C6B N1B 1_555 1_555
C7B N1B 1_555 1_555

#END
