
#######################################################################
#
#                 Cambridge Crystallographic Data Centre
#                                CCDC 
#
#######################################################################
#
# If this CIF has been generated from an entry in the Cambridge 
# Structural Database, then it will include bibliographic, chemical, 
# crystal, experimental, refinement or atomic coordinate data resulting 
# from the CCDC's data processing and validation procedures.
#
#######################################################################

data_WEYXOO
_symmetry_cell_setting           triclinic
_symmetry_space_group_name_H-M   'P -1'
_symmetry_Int_Tables_number      2
_space_group_name_Hall           '-P 1'
loop_
_symmetry_equiv_pos_site_id
_symmetry_equiv_pos_as_xyz
1 x,y,z
2 -x,-y,-z
_cell_length_a                   5.7012(18)
_cell_length_b                   6.452(3)
_cell_length_c                   8.635(4)
_cell_angle_alpha                101.536(8)
_cell_angle_beta                 100.991(8)
_cell_angle_gamma                92.644(9)
_cell_volume                     304.332
loop_
_atom_site_label
_atom_site_type_symbol
_atom_site_fract_x
_atom_site_fract_y
_atom_site_fract_z
Cu1 Cu 0.0000 0.0000 0.0000
S1 S 0.35557(7) 0.37080(6) 0.15498(5)
N1 N -0.0217(3) 0.2757(2) -0.39628(17)
N2 N -0.2458(3) 0.1720(2) -0.44369(18)
N3 N -0.0641(3) 0.1174(2) -0.20308(16)
N4 N 0.7527(3) 0.1634(2) 0.08157(18)
C1 C -0.2639(3) 0.0799(3) -0.3228(2)
H1 H -0.4002 -0.0029 -0.3197
C2 C 0.0840(3) 0.2420(3) -0.2534(2)
H2 H 0.2373 0.2970 -0.1976
C3 C 0.0692(3) 0.4023(3) -0.4980(2)
H3 H 0.0517 0.3179 -0.6066
H4 H 0.2383 0.4454 -0.4556
C4 C 0.5879(3) 0.2490(2) 0.11165(19)
Cu1_2 Cu 1.0000 0.0000 0.0000
Cu1_3 Cu 0.0000 1.0000 -1.0000
Cu1_4 Cu -1.0000 0.0000 0.0000
S1A S -0.35557(7) -0.37080(6) -0.15498(5)
N1A N 0.0217(3) 0.7243(2) -0.60372(17)
N2A N 0.2458(3) 0.8280(2) -0.55631(18)
N3A N 0.0641(3) 0.8826(2) -0.79692(16)
N3A_2 N 0.0641(3) -0.1174(2) 0.20308(16)
N4A N -0.7527(3) -0.1634(2) -0.08157(18)
N4_2 N -0.2473(3) 0.1634(2) 0.08157(18)
N4A_2 N 0.2473(3) -0.1634(2) -0.08157(18)
C1A C 0.2639(3) 0.9201(3) -0.6772(2)
H1A H 0.4002 1.0029 -0.6803
C2A C -0.0840(3) 0.7580(3) -0.7466(2)
H2A H -0.2373 0.7030 -0.8024
C3A C -0.0692(3) 0.5977(3) -0.5020(2)
H3A H -0.0517 0.6821 -0.3934
H4A H -0.2383 0.5546 -0.5444
C4A C -0.5879(3) -0.2490(2) -0.11165(19)
loop_
_geom_bond_atom_site_label_1
_geom_bond_atom_site_label_2
_geom_bond_site_symmetry_1
_geom_bond_site_symmetry_2
Cu1 S1 1_555 1_555
S1 C4 1_555 1_555
N1 N2 1_555 1_555
N2 C1 1_555 1_555
N3 Cu1 1_555 1_555
N4 C4 1_555 1_555
C1 N3 1_555 1_555
H1 C1 1_555 1_555
C2 N1 1_555 1_555
H2 C2 1_555 1_555
C3 N1 1_555 1_555
H3 C3 1_555 1_555
H4 C3 1_555 1_555
Cu1_2 N4 1_555 1_555
Cu1_3 N3A 1_555 1_555
Cu1_4 N4A 1_555 1_555
S1A Cu1 1_555 1_555
N1A N2A 1_555 1_555
N2A C1A 1_555 1_555
N3A C1A 1_555 1_555
N3A_2 Cu1 1_555 1_555
N4A C4A 1_555 1_555
N4_2 Cu1 1_555 1_555
N4A_2 Cu1 1_555 1_555
C1A H1A 1_555 1_555
C2A N1A 1_555 1_555
H2A C2A 1_555 1_555
C3A C3 1_555 1_555
H3A C3A 1_555 1_555
H4A C3A 1_555 1_555
C4A S1A 1_555 1_555
N3 C2 1_555 1_555
N1A C3A 1_555 1_555
N3A C2A 1_555 1_555

#END
