
#######################################################################
#
#                 Cambridge Crystallographic Data Centre
#                                CCDC 
#
#######################################################################
#
# If this CIF has been generated from an entry in the Cambridge 
# Structural Database, then it will include bibliographic, chemical, 
# crystal, experimental, refinement or atomic coordinate data resulting 
# from the CCDC's data processing and validation procedures.
#
#######################################################################

data_WEYXUU
_symmetry_cell_setting           orthorhombic
_symmetry_space_group_name_H-M   'P n a 21'
_symmetry_Int_Tables_number      33
_space_group_name_Hall           'P 2c -2n'
loop_
_symmetry_equiv_pos_site_id
_symmetry_equiv_pos_as_xyz
1 x,y,z
2 1/2-x,1/2+y,1/2+z
3 1/2+x,1/2-y,z
4 -x,-y,1/2+z
_cell_length_a                   11.306(3)
_cell_length_b                   8.989(3)
_cell_length_c                   12.969(4)
_cell_angle_alpha                90
_cell_angle_beta                 90
_cell_angle_gamma                90
_cell_volume                     1318.03
loop_
_atom_site_label
_atom_site_type_symbol
_atom_site_fract_x
_atom_site_fract_y
_atom_site_fract_z
Cu1 Cu 0.13899(2) 0.25159(4) 0.74282(6)
S1 S -0.00317(6) 0.36927(9) 0.91475(6)
S2 S 0.28569(6) 0.12283(9) 0.56573(6)
N1 N 0.20120(18) 0.4505(3) 0.70493(17)
N2 N 0.26829(18) 0.6793(2) 0.71720(19)
N3 N 0.57943(19) 0.4495(3) 0.78026(18)
N4 N 0.51370(18) 0.6782(2) 0.7693(2)
N5 N -0.22213(19) 0.2784(3) 0.8365(2)
N6 N 0.5021(2) 0.2184(3) 0.6467(2)
C1 C 0.2428(2) 0.5535(3) 0.7682(2)
H1 H 0.2531 0.5404 0.8388
C2 C 0.2429(3) 0.6542(3) 0.6149(2)
H2 H 0.2525 0.7208 0.5607
C3 C 0.2011(3) 0.5131(3) 0.6091(2)
H3 H 0.1763 0.4662 0.5489
C4 C 0.5368(2) 0.5532(3) 0.7179(2)
H4 H 0.5247 0.5405 0.6475
C5 C 0.5400(3) 0.6540(4) 0.8704(2)
H5 H 0.5311 0.7210 0.9245
C6 C 0.5819(3) 0.5127(3) 0.8766(2)
H6 H 0.6080 0.4663 0.9365
C7 C 0.3259(2) 0.8118(3) 0.7580(3)
H7 H 0.3180 0.8139 0.8325
H8 H 0.2880 0.9000 0.7304
C8 C 0.4558(2) 0.8114(3) 0.7289(3)
H9 H 0.4635 0.8139 0.6544
H10 H 0.4939 0.8994 0.7567
C9 C -0.1308(2) 0.3152(3) 0.8679(2)
C10 C 0.4124(2) 0.1787(3) 0.6140(2)
Cu1B Cu 0.63899(2) 0.24841(4) 0.74282(6)
Cu1B_2 Cu -0.36101(2) 0.24841(4) 0.74282(6)
N3B N 0.07943(19) 0.0505(3) 0.78026(18)
N5B N 0.27787(19) 0.2216(3) 0.8365(2)
N6B N 0.0021(2) 0.2816(3) 0.6467(2)
loop_
_geom_bond_atom_site_label_1
_geom_bond_atom_site_label_2
_geom_bond_site_symmetry_1
_geom_bond_site_symmetry_2
Cu1 S1 1_555 1_555
S1 C9 1_555 1_555
S2 Cu1 1_555 1_555
N1 Cu1 1_555 1_555
N2 C1 1_555 1_555
N3 C4 1_555 1_555
N4 C4 1_555 1_555
N5 C9 1_555 1_555
N6 C10 1_555 1_555
C1 N1 1_555 1_555
H1 C1 1_555 1_555
C2 N2 1_555 1_555
H2 C2 1_555 1_555
C3 N1 1_555 1_555
H3 C3 1_555 1_555
C4 H4 1_555 1_555
C5 N4 1_555 1_555
H5 C5 1_555 1_555
C6 N3 1_555 1_555
H6 C6 1_555 1_555
C7 N2 1_555 1_555
H7 C7 1_555 1_555
H8 C7 1_555 1_555
C8 N4 1_555 1_555
H9 C8 1_555 1_555
H10 C8 1_555 1_555
C10 S2 1_555 1_555
Cu1B N3 1_555 1_555
Cu1B_2 N5 1_555 1_555
N3B Cu1 1_555 1_555
N5B Cu1 1_555 1_555
N6B Cu1 1_555 1_555
N6 Cu1B 1_555 1_555
C2 C3 1_555 1_555
C5 C6 1_555 1_555
C7 C8 1_555 1_555

#END
