
#######################################################################
#
#                 Cambridge Crystallographic Data Centre
#                                CCDC 
#
#######################################################################
#
# If this CIF has been generated from an entry in the Cambridge 
# Structural Database, then it will include bibliographic, chemical, 
# crystal, experimental, refinement or atomic coordinate data resulting 
# from the CCDC's data processing and validation procedures.
#
#######################################################################

data_WEZCAH
_symmetry_cell_setting           monoclinic
_symmetry_space_group_name_H-M   'P 21/c'
_symmetry_Int_Tables_number      14
_space_group_name_Hall           '-P 2ybc'
loop_
_symmetry_equiv_pos_site_id
_symmetry_equiv_pos_as_xyz
1 x,y,z
2 -x,1/2+y,1/2-z
3 -x,-y,-z
4 x,1/2-y,1/2+z
_cell_length_a                   10.0543(15)
_cell_length_b                   10.3292(16)
_cell_length_c                   8.3716(9)
_cell_angle_alpha                90
_cell_angle_beta                 91.388(2)
_cell_angle_gamma                90
_cell_volume                     869.16
loop_
_atom_site_label
_atom_site_type_symbol
_atom_site_fract_x
_atom_site_fract_y
_atom_site_fract_z
Pb1 Pb 0.93927(3) -0.05917(3) 0.20092(4)
O1 O 0.8952(7) 0.0696(6) -0.0113(8)
O2 O 1.0286(9) 0.1634(7) 0.3088(11)
O3 O 1.1890(9) 0.2372(8) 0.4475(12)
O4 O 1.1623(8) 0.0280(8) 0.4271(11)
N1 N 0.6985(9) 0.0298(8) 0.1954(9)
N2 N 1.1300(9) 0.1414(10) 0.3974(10)
C1 C 0.7879(11) 0.1593(10) -0.0178(14)
H1 H 0.7566 0.1682 -0.1278
H2 H 0.8197 0.2433 0.0180
C2 C 0.6725(10) 0.1185(9) 0.0840(11)
C3 C 0.5461(11) 0.1696(9) 0.0632(12)
H3 H 0.5300 0.2326 -0.0143
C4 C 0.4468(11) 0.1286(12) 0.1544(14)
H4 H 0.3613 0.1612 0.1388
C5 C 0.4719(12) 0.0400(11) 0.2684(15)
H5 H 0.4043 0.0122 0.3341
C6 C 0.6000(12) -0.0100(12) 0.2874(12)
H6 H 0.6171 -0.0721 0.3656
Pb1A Pb 1.06073(3) 0.44083(3) 0.29908(4)
Pb1B Pb 1.06073(3) 0.05917(3) -0.20092(4)
O1B O 1.1048(7) -0.0696(6) 0.0113(8)
O2A O 0.9714(9) -0.3366(7) 0.1912(11)
O3A O 0.8110(9) -0.2628(8) 0.0525(12)
loop_
_geom_bond_atom_site_label_1
_geom_bond_atom_site_label_2
_geom_bond_site_symmetry_1
_geom_bond_site_symmetry_2
Pb1 O1 1_555 1_555
O1 C1 1_555 1_555
O2 Pb1 1_555 1_555
O3 N2 1_555 1_555
O4 N2 1_555 1_555
N1 Pb1 1_555 1_555
N2 O2 1_555 1_555
C1 H1 1_555 1_555
H2 C1 1_555 1_555
C2 N1 1_555 1_555
C3 C2 1_555 1_555
H3 C3 1_555 1_555
C4 C3 1_555 1_555
H4 C4 1_555 1_555
C5 C4 1_555 1_555
H5 C5 1_555 1_555
C6 N1 1_555 1_555
H6 C6 1_555 1_555
Pb1A O2 1_555 1_555
Pb1B O1 1_555 1_555
O1B Pb1 1_555 1_555
O2A Pb1 1_555 1_555
O3A Pb1 1_555 1_555
O3 Pb1A 1_555 1_555
C1 C2 1_555 1_555
C5 C6 1_555 1_555
Pb1B O1B 1_555 1_555

#END
