
#######################################################################
#
#                 Cambridge Crystallographic Data Centre
#                                CCDC 
#
#######################################################################
#
# If this CIF has been generated from an entry in the Cambridge 
# Structural Database, then it will include bibliographic, chemical, 
# crystal, experimental, refinement or atomic coordinate data resulting 
# from the CCDC's data processing and validation procedures.
#
#######################################################################

data_WEZCEL
_symmetry_cell_setting           triclinic
_symmetry_space_group_name_H-M   'P -1'
_symmetry_Int_Tables_number      2
_space_group_name_Hall           '-P 1'
loop_
_symmetry_equiv_pos_site_id
_symmetry_equiv_pos_as_xyz
1 x,y,z
2 -x,-y,-z
_cell_length_a                   9.5502(19)
_cell_length_b                   13.234(3)
_cell_length_c                   15.157(3)
_cell_angle_alpha                68.95(3)
_cell_angle_beta                 77.33(3)
_cell_angle_gamma                81.92(3)
_cell_volume                     1740.26
loop_
_atom_site_label
_atom_site_type_symbol
_atom_site_fract_x
_atom_site_fract_y
_atom_site_fract_z
Mn1 Mn 0.19028(7) 0.27405(6) 0.48846(5)
Mn2 Mn -0.16869(7) 0.30894(6) 1.02393(5)
O1 O 0.3068(3) 0.4078(3) 0.6790(2)
H1 H 0.3946 0.3860 0.6666
O2 O 0.2480(3) 0.3186(3) 0.5946(2)
O3 O 0.2442(3) 0.5743(3) 0.4911(2)
O4 O 0.0500(3) 0.6906(3) 0.4583(2)
O5 O -0.3707(3) 0.6609(3) 0.6297(2)
O6 O -0.4419(3) 0.5341(3) 0.7723(2)
O7 O -0.3493(3) 0.2908(3) 0.7939(2)
O8 O -0.2429(3) 0.2988(3) 0.9059(2)
O9 O -0.1201(3) 0.4813(3) 0.9316(2)
O10 O -0.1810(3) 0.6492(3) 0.8472(2)
H2 H -0.2574 0.6882 0.8378
O11 O -0.3710(3) 0.2374(3) 1.1322(2)
O12 O -0.6055(3) 0.2325(3) 1.1843(2)
O13 O -0.1094(3) 0.3255(3) 1.1472(2)
H3 H -0.1600 0.3678 1.1746
H4 H -0.0355 0.2897 1.1683
N1 N -0.0250(4) 0.3699(3) 0.7289(3)
N2 N -0.1121(4) 0.5719(3) 0.6136(3)
N3 N 0.1310(4) 0.1577(3) 0.4260(3)
N4 N 0.2979(4) 0.1106(3) 0.5606(3)
N5 N -0.3801(4) 0.4339(3) 1.0171(3)
N6 N -0.1073(4) 0.1237(3) 1.0745(3)
N7 N 0.0774(4) 0.2818(3) 0.9765(3)
C1 C 0.2205(5) 0.3825(4) 0.6404(3)
C2 C 0.0681(5) 0.4311(4) 0.6559(3)
C3 C 0.0230(5) 0.5333(4) 0.5959(3)
C4 C 0.1152(5) 0.6064(4) 0.5070(3)
C5 C -0.3529(5) 0.5735(4) 0.6981(3)
C6 C -0.2071(5) 0.5137(4) 0.6875(3)
C7 C -0.1618(5) 0.4096(4) 0.7439(3)
C8 C -0.2607(5) 0.3286(4) 0.8217(3)
C9 C 0.0487(5) 0.1808(4) 0.3602(3)
H5 H 0.0033 0.2518 0.3393
C10 C 0.0256(5) 0.1062(4) 0.3201(3)
H6 H -0.0327 0.1264 0.2722
C11 C 0.0890(5) 0.0026(4) 0.3511(3)
H7 H 0.0744 -0.0497 0.3249
C12 C 0.1748(5) -0.0253(4) 0.4212(3)
C13 C 0.2429(5) -0.1314(4) 0.4574(4)
H8 H 0.2310 -0.1859 0.4330
C14 C 0.3245(5) -0.1552(4) 0.5264(4)
H9 H 0.3693 -0.2261 0.5496
C15 C 0.3435(5) -0.0752(4) 0.5641(3)
C16 C 0.4269(5) -0.0963(4) 0.6356(3)
H10 H 0.4706 -0.1669 0.6622
C17 C 0.4443(5) -0.0153(4) 0.6662(3)
H11 H 0.5010 -0.0284 0.7140
C18 C 0.3783(5) 0.0880(4) 0.6270(3)
H12 H 0.3918 0.1442 0.6488
C19 C 0.2814(5) 0.0301(4) 0.5291(3)
C20 C 0.1940(5) 0.0552(4) 0.4564(3)
C21 C -0.2111(5) 0.5561(4) 0.9074(3)
C22 C -0.3670(5) 0.5337(4) 0.9530(3)
C23 C -0.5077(5) 0.3981(4) 1.0634(3)
C24 C -0.4932(5) 0.2807(4) 1.1316(3)
C25 C -0.1965(5) 0.0444(4) 1.1150(3)
H13 H -0.2965 0.0632 1.1162
C26 C -0.1529(6) -0.0652(4) 1.1560(3)
H14 H -0.2208 -0.1192 1.1816
C27 C -0.0088(6) -0.0925(4) 1.1582(3)
H15 H 0.0239 -0.1657 1.1883
C28 C 0.0897(5) -0.0110(4) 1.1154(3)
C29 C 0.2413(6) -0.0329(4) 1.1134(4)
H16 H 0.2784 -0.1043 1.1448
C30 C 0.3322(6) 0.0474(4) 1.0670(4)
H17 H 0.4320 0.0318 1.0686
C31 C 0.2822(5) 0.1547(4) 1.0159(3)
C32 C 0.3751(5) 0.2363(4) 0.9580(3)
H18 H 0.4763 0.2220 0.9528
C33 C 0.3183(5) 0.3369(4) 0.9090(3)
H19 H 0.3792 0.3923 0.8672
C34 C 0.1676(5) 0.3562(4) 0.9220(3)
H20 H 0.1288 0.4267 0.8896
C35 C 0.1335(5) 0.1801(4) 1.0212(3)
C36 C 0.0344(5) 0.0959(4) 1.0728(3)
O9A O -0.8799(3) 0.5187(3) 1.0684(2)
O10A O -0.8190(3) 0.3508(3) 1.1528(2)
H2A H -0.7426 0.3118 1.1622
O11A O -0.6290(3) 0.7626(3) 0.8678(2)
O12A O -0.3945(3) 0.7675(3) 0.8157(2)
N5A N -0.6199(4) 0.5661(3) 0.9829(3)
C21A C -0.7889(5) 0.4439(4) 1.0926(3)
C22A C -0.6330(5) 0.4663(4) 1.0470(3)
C23A C -0.4923(5) 0.6019(4) 0.9366(3)
C24A C -0.5068(5) 0.7193(4) 0.8684(3)
Mn1A Mn -1.19028(7) 0.72595(6) 1.51154(5)
Mn2A Mn -0.83131(7) 0.69106(6) 0.97607(5)
O1A O -1.3068(3) 0.5922(3) 1.3210(2)
H1A H -1.3946 0.6140 1.3334
O2A O -1.2480(3) 0.6814(3) 1.4054(2)
O3A O -1.2442(3) 0.4257(3) 1.5089(2)
O4A O -1.0500(3) 0.3094(3) 1.5417(2)
O5A O -0.6293(3) 0.3391(3) 1.3703(2)
O6A O -0.5581(3) 0.4659(3) 1.2277(2)
O7A O -0.6507(3) 0.7092(3) 1.2061(2)
O8A O -0.7571(3) 0.7012(3) 1.0941(2)
O13A O -0.8906(3) 0.6745(3) 0.8528(2)
H3A H -0.8400 0.6322 0.8254
H4A H -0.9645 0.7103 0.8317
N1A N -0.9750(4) 0.6301(3) 1.2711(3)
N2A N -0.8879(4) 0.4281(3) 1.3864(3)
N3A N -1.1310(4) 0.8423(3) 1.5740(3)
N4A N -1.2979(4) 0.8894(3) 1.4394(3)
N6A N -0.8927(4) 0.8763(3) 0.9255(3)
N7A N -1.0774(4) 0.7182(3) 1.0235(3)
C1A C -1.2205(5) 0.6175(4) 1.3596(3)
C2A C -1.0681(5) 0.5689(4) 1.3441(3)
C3A C -1.0230(5) 0.4667(4) 1.4041(3)
C4A C -1.1152(5) 0.3936(4) 1.4930(3)
C5A C -0.6471(5) 0.4265(4) 1.3019(3)
C6A C -0.7929(5) 0.4863(4) 1.3125(3)
C7A C -0.8382(5) 0.5904(4) 1.2561(3)
C8A C -0.7393(5) 0.6714(4) 1.1783(3)
C9A C -1.0487(5) 0.8192(4) 1.6398(3)
H5A H -1.0033 0.7482 1.6607
C10A C -1.0256(5) 0.8938(4) 1.6799(3)
H6A H -0.9673 0.8736 1.7278
C11A C -1.0890(5) 0.9974(4) 1.6489(3)
H7A H -1.0744 1.0497 1.6751
C12A C -1.1748(5) 1.0253(4) 1.5788(3)
C13A C -1.2429(5) 1.1314(4) 1.5426(4)
H8A H -1.2310 1.1859 1.5670
C14A C -1.3245(5) 1.1552(4) 1.4736(4)
H9A H -1.3693 1.2261 1.4504
C15A C -1.3435(5) 1.0752(4) 1.4359(3)
C16A C -1.4269(5) 1.0963(4) 1.3644(3)
H10A H -1.4706 1.1669 1.3378
C17A C -1.4443(5) 1.0153(4) 1.3338(3)
H11A H -1.5010 1.0284 1.2860
C18A C -1.3783(5) 0.9120(4) 1.3730(3)
H12A H -1.3918 0.8558 1.3512
C19A C -1.2814(5) 0.9699(4) 1.4709(3)
C20A C -1.1940(5) 0.9448(4) 1.5436(3)
C25A C -0.8035(5) 0.9556(4) 0.8850(3)
H13A H -0.7035 0.9368 0.8838
C26A C -0.8471(6) 1.0652(4) 0.8440(3)
H14A H -0.7792 1.1192 0.8184
C27A C -0.9912(6) 1.0925(4) 0.8418(3)
H15A H -1.0239 1.1657 0.8117
C28A C -1.0897(5) 1.0110(4) 0.8846(3)
C29A C -1.2413(6) 1.0329(4) 0.8866(4)
H16A H -1.2784 1.1043 0.8552
C30A C -1.3322(6) 0.9526(4) 0.9330(4)
H17A H -1.4320 0.9682 0.9314
C31A C -1.2822(5) 0.8453(4) 0.9841(3)
C32A C -1.3751(5) 0.7637(4) 1.0420(3)
H18A H -1.4763 0.7780 1.0472
C33A C -1.3183(5) 0.6631(4) 1.0910(3)
H19A H -1.3792 0.6077 1.1328
C34A C -1.1676(5) 0.6438(4) 1.0780(3)
H20A H -1.1288 0.5733 1.1104
C35A C -1.1335(5) 0.8199(4) 0.9788(3)
C36A C -1.0344(5) 0.9041(4) 0.9272(3)
Mn1_2 Mn -0.80972(7) 0.27405(6) 1.48846(5)
Mn1A_2 Mn -0.19028(7) 0.72595(6) 0.51154(5)
O4_2 O -0.9500(3) 0.6906(3) 1.4583(2)
O4A_2 O -0.0500(3) 0.3094(3) 0.5417(2)
O5_2 O -1.3707(3) 0.6609(3) 1.6297(2)
O5A_2 O 0.3707(3) 0.3391(3) 0.3703(2)
N2_2 N -1.1121(4) 0.5719(3) 1.6136(3)
N2A_2 N 0.1121(4) 0.4281(3) 0.3864(3)
O14 O 0.4345(4) 0.6718(3) 0.3586(2)
H21 H 0.397(5) 0.684(4) 0.309(2)
H22 H 0.389(6) 0.632(5) 0.4120(19)
O15 O 0.7139(4) 0.4000(3) 0.2753(3)
H23 H 0.635(3) 0.414(4) 0.254(3)
H24 H 0.728(6) 0.439(5) 0.306(5)
loop_
_geom_bond_atom_site_label_1
_geom_bond_atom_site_label_2
_geom_bond_site_symmetry_1
_geom_bond_site_symmetry_2
Mn1 O2 1_555 1_555
Mn2 O8 1_555 1_555
O1 H1 1_555 1_555
O2 C1 1_555 1_555
O3 C4 1_555 1_555
O4 C4 1_555 1_555
O5 C5 1_555 1_555
O6 C5 1_555 1_555
O7 C8 1_555 1_555
O8 C8 1_555 1_555
O9 Mn2 1_555 1_555
O10 H2 1_555 1_555
O11 Mn2 1_555 1_555
O12 C24 1_555 1_555
O13 Mn2 1_555 1_555
H3 O13 1_555 1_555
H4 O13 1_555 1_555
N1 C2 1_555 1_555
N2 C3 1_555 1_555
N3 Mn1 1_555 1_555
N4 Mn1 1_555 1_555
N5 Mn2 1_555 1_555
N6 Mn2 1_555 1_555
N7 Mn2 1_555 1_555
C1 O1 1_555 1_555
C2 C1 1_555 1_555
C3 C2 1_555 1_555
C4 C3 1_555 1_555
C5 C6 1_555 1_555
C6 N2 1_555 1_555
C7 N1 1_555 1_555
C8 C7 1_555 1_555
C9 N3 1_555 1_555
H5 C9 1_555 1_555
C10 C9 1_555 1_555
H6 C10 1_555 1_555
C11 C10 1_555 1_555
H7 C11 1_555 1_555
C12 C11 1_555 1_555
C13 C12 1_555 1_555
H8 C13 1_555 1_555
C14 C13 1_555 1_555
H9 C14 1_555 1_555
C15 C14 1_555 1_555
C16 C15 1_555 1_555
H10 C16 1_555 1_555
C17 C16 1_555 1_555
H11 C17 1_555 1_555
C18 N4 1_555 1_555
H12 C18 1_555 1_555
C19 N4 1_555 1_555
C20 N3 1_555 1_555
C21 O9 1_555 1_555
C22 N5 1_555 1_555
C23 N5 1_555 1_555
C24 O11 1_555 1_555
C25 N6 1_555 1_555
H13 C25 1_555 1_555
C26 C25 1_555 1_555
H14 C26 1_555 1_555
C27 C26 1_555 1_555
H15 C27 1_555 1_555
C28 C27 1_555 1_555
C29 C28 1_555 1_555
H16 C29 1_555 1_555
C30 C29 1_555 1_555
H17 C30 1_555 1_555
C31 C30 1_555 1_555
C32 C31 1_555 1_555
H18 C32 1_555 1_555
C33 C32 1_555 1_555
H19 C33 1_555 1_555
C34 N7 1_555 1_555
H20 C34 1_555 1_555
C35 N7 1_555 1_555
C36 N6 1_555 1_555
O14 H21 1_555 1_555
H22 O14 1_555 1_555
O15 H23 1_555 1_555
H24 O15 1_555 1_555
O9A C21A 1_555 1_555
O10A H2A 1_555 1_555
O11A C24A 1_555 1_555
O12A C24A 1_555 1_555
N5A C22A 1_555 1_555
C21A O10A 1_555 1_555
C22A C23 1_555 1_555
C23A C22 1_555 1_555
C24A C23A 1_555 1_555
Mn1A O2A 1_555 1_555
Mn2A O9A 1_555 1_555
O1A H1A 1_555 1_555
O2A C1A 1_555 1_555
O3A C4A 1_555 1_555
O4A C4A 1_555 1_555
O5A C5A 1_555 1_555
O6A C5A 1_555 1_555
O7A C8A 1_555 1_555
O8A Mn2A 1_555 1_555
O13A Mn2A 1_555 1_555
H3A O13A 1_555 1_555
H4A O13A 1_555 1_555
N1A C2A 1_555 1_555
N2A C3A 1_555 1_555
N3A Mn1A 1_555 1_555
N4A Mn1A 1_555 1_555
N6A Mn2A 1_555 1_555
N7A Mn2A 1_555 1_555
C1A O1A 1_555 1_555
C2A C1A 1_555 1_555
C3A C2A 1_555 1_555
C4A C3A 1_555 1_555
C5A C6A 1_555 1_555
C6A N2A 1_555 1_555
C7A N1A 1_555 1_555
C8A O8A 1_555 1_555
C9A N3A 1_555 1_555
H5A C9A 1_555 1_555
C10A C9A 1_555 1_555
H6A C10A 1_555 1_555
C11A C10A 1_555 1_555
H7A C11A 1_555 1_555
C12A C11A 1_555 1_555
C13A C12A 1_555 1_555
H8A C13A 1_555 1_555
C14A C13A 1_555 1_555
H9A C14A 1_555 1_555
C15A C14A 1_555 1_555
C16A C15A 1_555 1_555
H10A C16A 1_555 1_555
C17A C16A 1_555 1_555
H11A C17A 1_555 1_555
C18A N4A 1_555 1_555
H12A C18A 1_555 1_555
C19A N4A 1_555 1_555
C20A N3A 1_555 1_555
C25A N6A 1_555 1_555
H13A C25A 1_555 1_555
C26A C25A 1_555 1_555
H14A C26A 1_555 1_555
C27A C26A 1_555 1_555
H15A C27A 1_555 1_555
C28A C27A 1_555 1_555
C29A C28A 1_555 1_555
H16A C29A 1_555 1_555
C30A C29A 1_555 1_555
H17A C30A 1_555 1_555
C31A C30A 1_555 1_555
C32A C31A 1_555 1_555
H18A C32A 1_555 1_555
C33A C32A 1_555 1_555
H19A C33A 1_555 1_555
C34A N7A 1_555 1_555
H20A C34A 1_555 1_555
C35A N7A 1_555 1_555
C36A N6A 1_555 1_555
Mn1_2 O4A 1_555 1_555
Mn1A_2 O4 1_555 1_555
O4_2 Mn1A 1_555 1_555
O4A_2 Mn1 1_555 1_555
O5_2 Mn1A 1_555 1_555
O5A_2 Mn1 1_555 1_555
N2_2 Mn1A 1_555 1_555
N2A_2 Mn1 1_555 1_555
O5 Mn1A_2 1_555 1_555
O10 C21 1_555 1_555
N2 Mn1A_2 1_555 1_555
C6 C7 1_555 1_555
C12 C20 1_555 1_555
C15 C19 1_555 1_555
C17 C18 1_555 1_555
C19 C20 1_555 1_555
C21 C22 1_555 1_555
C23 C24 1_555 1_555
C28 C36 1_555 1_555
C31 C35 1_555 1_555
C33 C34 1_555 1_555
C35 C36 1_555 1_555
O11A Mn2A 1_555 1_555
N5A C23A 1_555 1_555
N5A Mn2A 1_555 1_555
C21A C22A 1_555 1_555
O5A Mn1_2 1_555 1_555
N2A Mn1_2 1_555 1_555
C6A C7A 1_555 1_555
C7A C8A 1_555 1_555
C12A C20A 1_555 1_555
C15A C19A 1_555 1_555
C17A C18A 1_555 1_555
C19A C20A 1_555 1_555
C28A C36A 1_555 1_555
C31A C35A 1_555 1_555
C33A C34A 1_555 1_555
C35A C36A 1_555 1_555

#END
