
#######################################################################
#
#                 Cambridge Crystallographic Data Centre
#                                CCDC 
#
#######################################################################
#
# If this CIF has been generated from an entry in the Cambridge 
# Structural Database, then it will include bibliographic, chemical, 
# crystal, experimental, refinement or atomic coordinate data resulting 
# from the CCDC's data processing and validation procedures.
#
#######################################################################

data_WEZCIP
_symmetry_cell_setting           monoclinic
_symmetry_space_group_name_H-M   'C 2/c'
_symmetry_Int_Tables_number      15
_space_group_name_Hall           '-C 2yn'
loop_
_symmetry_equiv_pos_site_id
_symmetry_equiv_pos_as_xyz
1 x,y,z
2 -x,y,1/2-z
3 1/2+x,1/2+y,z
4 1/2-x,1/2+y,1/2-z
5 -x,-y,-z
6 x,-y,1/2+z
7 1/2-x,1/2-y,-z
8 1/2+x,1/2-y,1/2+z
_cell_length_a                   20.450(3)
_cell_length_b                   9.7837(6)
_cell_length_c                   18.850(2)
_cell_angle_alpha                90
_cell_angle_beta                 100.595(9)
_cell_angle_gamma                90
_cell_volume                     3707.15
loop_
_atom_site_label
_atom_site_type_symbol
_atom_site_fract_x
_atom_site_fract_y
_atom_site_fract_z
C1 C 0.36180(10) 0.4191(2) 0.31955(11)
C2 C 0.42530(11) 0.4168(2) 0.36190(13)
C3 C 0.43795(13) 0.6415(2) 0.33523(17)
H1 H 0.4639 0.7202 0.3388
C4 C 0.37464(12) 0.6458(2) 0.29475(14)
H2 H 0.3583 0.7272 0.2729
C5 C 0.31765(10) 0.2943(2) 0.30591(12)
C6 C 0.45905(11) 0.2899(2) 0.39832(14)
C7 C 0.37246(13) 0.5400(3) 0.12278(15)
H3 H 0.4021 0.5056 0.1621
C8 C 0.33481(15) 0.6281(3) 0.01771(16)
H4 H 0.3320 0.6658 -0.0280
C9 C 0.28390(14) 0.6029(3) 0.05302(14)
H5 H 0.2393 0.6204 0.0345
C10 C 0.19151(16) 0.2821(3) 0.07337(18)
H6 H 0.2340 0.2443 0.0826
C11 C 0.14013(19) 0.2365(3) 0.02395(19)
H7 H 0.1403 0.1623 -0.0069
C12 C 0.10876(12) 0.4135(3) 0.07889(14)
H8 H 0.0825 0.4834 0.0920
C13 C 0.11090(13) 0.5668(3) 0.28584(15)
H9 H 0.0914 0.6225 0.2478
C14 C 0.1272(2) 0.4614(4) 0.38863(19)
H10 H 0.1226 0.4294 0.4339
C15 C 0.17584(16) 0.4295(3) 0.35145(16)
H11 H 0.2112 0.3707 0.3678
N1 N 0.33677(9) 0.53437(18) 0.28673(11)
N2 N 0.46333(11) 0.5297(2) 0.36930(14)
N3 N 0.30734(10) 0.5482(2) 0.11955(12)
N4 N 0.39045(11) 0.5870(2) 0.06283(13)
H12 H 0.4303 0.5905 0.0544
N5 N 0.17102(10) 0.3933(2) 0.10795(11)
N6 N 0.08776(13) 0.3208(3) 0.02801(13)
H13 H 0.0484 0.3151 0.0024
N7 N 0.16560(12) 0.49614(19) 0.28616(13)
N8 N 0.08650(13) 0.5497(3) 0.34610(14)
H14 H 0.0514 0.5877 0.3561
O1 O 0.27229(8) 0.29475(15) 0.25167(9)
O2 O 0.32959(8) 0.19798(15) 0.35010(9)
O3 O 0.46662(11) 0.2832(2) 0.46506(11)
O4 O 0.47910(9) 0.20699(19) 0.35710(11)
Cd1 Cd 0.234481(7) 0.510844(15) 0.200980(8)
O2C O 0.17041(8) 0.69798(15) 0.14990(9)
Cd1C Cd 0.265519(7) 0.010844(15) 0.299020(8)
O5 O 0.5000 0.3798(14) 0.2500
H15 H 0.516(9) 0.330(4) 0.222(7)
H15A H 0.484(9) 0.330(4) 0.278(7)
loop_
_geom_bond_atom_site_label_1
_geom_bond_atom_site_label_2
_geom_bond_site_symmetry_1
_geom_bond_site_symmetry_2
C1 C2 1_555 1_555
C2 C6 1_555 1_555
C3 H1 1_555 1_555
C4 C3 1_555 1_555
H2 C4 1_555 1_555
C5 C1 1_555 1_555
C6 O3 1_555 1_555
C7 H3 1_555 1_555
C8 H4 1_555 1_555
C9 C8 1_555 1_555
H5 C9 1_555 1_555
C10 H6 1_555 1_555
C11 C10 1_555 1_555
H7 C11 1_555 1_555
C12 H8 1_555 1_555
C13 H9 1_555 1_555
C14 H10 1_555 1_555
C15 C14 1_555 1_555
H11 C15 1_555 1_555
N1 C1 1_555 1_555
N2 C2 1_555 1_555
N3 C7 1_555 1_555
N4 C7 1_555 1_555
H12 N4 1_555 1_555
N5 C10 1_555 1_555
N6 C11 1_555 1_555
H13 N6 1_555 1_555
N7 C13 1_555 1_555
N8 C13 1_555 1_555
H14 N8 1_555 1_555
O1 C5 1_555 1_555
O2 C5 1_555 1_555
O4 C6 1_555 1_555
Cd1 N1 1_555 1_555
O5 H15 1_555 1_555
O2C Cd1 1_555 1_555
Cd1C O2 1_555 1_555
H15A O5 1_555 1_555
C3 N2 1_555 1_555
C4 N1 1_555 1_555
C8 N4 1_555 1_555
C9 N3 1_555 1_555
C12 N5 1_555 1_555
C12 N6 1_555 1_555
C14 N8 1_555 1_555
C15 N7 1_555 1_555
N3 Cd1 1_555 1_555
N5 Cd1 1_555 1_555
N7 Cd1 1_555 1_555
O1 Cd1 1_555 1_555

#END
