
#######################################################################
#
#                 Cambridge Crystallographic Data Centre
#                                CCDC 
#
#######################################################################
#
# If this CIF has been generated from an entry in the Cambridge 
# Structural Database, then it will include bibliographic, chemical, 
# crystal, experimental, refinement or atomic coordinate data resulting 
# from the CCDC's data processing and validation procedures.
#
#######################################################################

data_WEZCEK
_symmetry_cell_setting           triclinic
_symmetry_space_group_name_H-M   'P -1'
_symmetry_Int_Tables_number      2
_space_group_name_Hall           '-P 1'
loop_
_symmetry_equiv_pos_site_id
_symmetry_equiv_pos_as_xyz
1 x,y,z
2 -x,-y,-z
_cell_length_a                   8.9479(14)
_cell_length_b                   9.3027(14)
_cell_length_c                   9.749(2)
_cell_angle_alpha                98.118(17)
_cell_angle_beta                 104.895(16)
_cell_angle_gamma                97.879(13)
_cell_volume                     763.521
loop_
_atom_site_label
_atom_site_type_symbol
_atom_site_fract_x
_atom_site_fract_y
_atom_site_fract_z
O1 O 0.8087(2) 1.6226(2) 1.4039(2)
O2 O 0.7981(2) 1.8668(2) 1.4123(2)
O3 O 1.0323(2) 1.5766(2) 0.7196(2)
O4 O 1.0900(2) 1.7608(2) 0.60271(19)
O5 O 0.9876(2) 1.7251(2) 1.2180(2)
O6 O 1.0841(2) 1.9604(2) 1.3343(2)
O7 O 1.4693(3) 2.2075(3) 0.9311(3)
O8 O 1.3990(7) 2.2923(4) 1.1213(4)
N1 N 0.2585(3) 1.6523(3) 1.4158(2)
C1 C 0.3170(3) 1.5500(3) 1.3431(3)
H1 H 0.2503 1.4622 1.2931
C2 C 0.4728(3) 1.5703(3) 1.3400(3)
H2 H 0.5103 1.4956 1.2923
C3 C 0.5716(3) 1.7032(3) 1.4087(3)
C4 C 0.5120(3) 1.8093(3) 1.4839(3)
Cu1 Cu 1.0000 2.0000 1.5000
H3 H 0.5757 1.8992 1.5320
C5 C 0.3569(3) 1.7796(3) 1.4865(3)
H4 H 0.3189 1.8502 1.5390
C6 C 0.7414(3) 1.7338(3) 1.4075(3)
C7 C 1.1318(3) 1.8186(3) 0.8565(3)
C8 C 1.0761(3) 1.7865(3) 0.9726(3)
H5 H 1.0112 1.6966 0.9638
C9 C 1.1178(3) 1.8895(3) 1.1021(3)
C10 C 1.2184(3) 2.0219(3) 1.1156(3)
H6 H 1.2447 2.0913 1.2006
C11 C 1.2804(3) 2.0515(3) 1.0020(3)
C12 C 1.2354(3) 1.9512(3) 0.8715(3)
H7 H 1.2738 1.9722 0.7951
C13 C 1.0805(3) 1.7097(3) 0.7155(3)
C14 C 1.3910(5) 2.1939(3) 1.0253(4)
C15 C 1.0561(3) 1.8546(3) 1.2266(3)
H10 H 1.540(7) 2.283(6) 0.965(6)
Cu2 Cu 1.02922(3) 1.63287(3) 1.40791(3)
O1A O 1.1913(2) 2.3774(2) 1.5961(2)
O2A O 1.2019(2) 2.1332(2) 1.5877(2)
O3A O 0.9677(2) 1.4234(2) 1.2804(2)
O3_2 O 1.0323(2) 2.5766(2) 1.7196(2)
O3A_2 O 0.9677(2) 2.4234(2) 2.2804(2)
O4_2 O 1.0900(2) 1.7608(2) 1.60271(19)
O4A O 0.9100(2) 2.2392(2) 1.39729(19)
O4A_2 O 0.9100(2) 2.2392(2) 2.39729(19)
O5A O 1.0124(2) 2.2749(2) 1.7820(2)
O6A O 0.9159(2) 2.0396(2) 1.6657(2)
O7A O 0.5307(3) 1.7925(3) 2.0689(3)
O8A O 0.6010(7) 1.7077(4) 1.8787(4)
N1_2 N 1.2585(3) 1.6523(3) 1.4158(2)
N1A N 0.7415(3) 2.3477(3) 1.5842(2)
N1A_2 N 1.7415(3) 2.3477(3) 1.5842(2)
C1A C 1.6830(3) 2.4500(3) 1.6569(3)
H1A H 1.7497 2.5378 1.7069
C2A C 1.5272(3) 2.4297(3) 1.6600(3)
H2A H 1.4897 2.5044 1.7077
C3A C 1.4284(3) 2.2968(3) 1.5913(3)
C4A C 1.4880(3) 2.1907(3) 1.5161(3)
H3A H 1.4243 2.1008 1.4680
C5A C 1.6431(3) 2.2204(3) 1.5135(3)
H4A H 1.6811 2.1498 1.4610
C6A C 1.2586(3) 2.2662(3) 1.5925(3)
C7A C 0.8682(3) 2.1814(3) 2.1435(3)
C8A C 0.9239(3) 2.2135(3) 2.0274(3)
H5A H 0.9888 2.3034 2.0362
C9A C 0.8822(3) 2.1105(3) 1.8979(3)
C10A C 0.7816(3) 1.9781(3) 1.8844(3)
H6A H 0.7553 1.9087 1.7994
C11A C 0.7196(3) 1.9485(3) 1.9980(3)
C12A C 0.7646(3) 2.0488(3) 2.1285(3)
H7A H 0.7262 2.0278 2.2049
C13A C 0.9195(3) 2.2903(3) 2.2845(3)
C14A C 0.6090(5) 1.8061(3) 1.9747(4)
C15A C 0.9439(3) 2.1454(3) 1.7734(3)
H10A H 0.460(7) 1.717(6) 2.035(6)
Cu2A Cu 0.97078(3) 1.36713(3) 0.59209(3)
Cu2_2 Cu 1.02922(3) 1.63287(3) 0.40791(3)
Cu2_3 Cu 0.02922(3) 1.63287(3) 1.40791(3)
Cu2A_2 Cu 0.97078(3) 2.36713(3) 1.59209(3)
Cu2A_3 Cu 1.97078(3) 2.36713(3) 1.59209(3)
Cu2A_4 Cu 0.97078(3) 2.36713(3) 2.59209(3)
Cu2_4 Cu 1.02922(3) 2.63287(3) 2.40791(3)
O9 O 0.3102(4) 0.5438(4) 0.9768(5)
H8 H 0.324(6) 0.483(6) 1.006(6)
H9 H 0.226(10) 0.519(9) 0.908(9)
loop_
_geom_bond_atom_site_label_1
_geom_bond_atom_site_label_2
_geom_bond_site_symmetry_1
_geom_bond_site_symmetry_2
O1 C6 1_555 1_555
O2 Cu1 1_555 1_555
O3 C13 1_555 1_555
O4 C13 1_555 1_555
O5 C15 1_555 1_555
O6 Cu1 1_555 1_555
O7 C14 1_555 1_555
O8 C14 1_555 1_555
O9 H8 1_555 1_555
N1 C1 1_555 1_555
C1 H1 1_555 1_555
C2 C1 1_555 1_555
H2 C2 1_555 1_555
C3 C2 1_555 1_555
C4 C3 1_555 1_555
Cu1 O2A 1_555 1_555
H3 C4 1_555 1_555
C5 N1 1_555 1_555
H4 C5 1_555 1_555
C6 O2 1_555 1_555
C7 C8 1_555 1_555
C8 H5 1_555 1_555
C9 C8 1_555 1_555
C10 C9 1_555 1_555
H6 C10 1_555 1_555
C11 C10 1_555 1_555
C12 C7 1_555 1_555
H7 C12 1_555 1_555
C13 C7 1_555 1_555
C14 C11 1_555 1_555
C15 O6 1_555 1_555
H9 O9 1_555 1_555
H10 O7 1_555 1_555
Cu2 O1 1_555 1_555
O1A C6A 1_555 1_555
O2A C6A 1_555 1_555
O3A Cu2 1_555 1_555
O3_2 Cu2A_2 1_555 1_555
O3A_2 C13A 1_555 1_555
O4_2 Cu2 1_555 1_555
O4A Cu2A_2 1_555 1_555
O4A_2 C13A 1_555 1_555
O5A C15A 1_555 1_555
O6A Cu1 1_555 1_555
O7A C14A 1_555 1_555
O8A C14A 1_555 1_555
N1_2 Cu2 1_555 1_555
N1A Cu2A_2 1_555 1_555
N1A_2 C1A 1_555 1_555
C1A H1A 1_555 1_555
C2A C1A 1_555 1_555
H2A C2A 1_555 1_555
C3A C2A 1_555 1_555
C4A C3A 1_555 1_555
H3A C4A 1_555 1_555
C5A N1A_2 1_555 1_555
H4A C5A 1_555 1_555
C6A C3A 1_555 1_555
C7A C8A 1_555 1_555
C8A H5A 1_555 1_555
C9A C8A 1_555 1_555
C10A C9A 1_555 1_555
H6A C10A 1_555 1_555
C11A C10A 1_555 1_555
C12A C7A 1_555 1_555
H7A C12A 1_555 1_555
C13A C7A 1_555 1_555
C14A C11A 1_555 1_555
C15A O6A 1_555 1_555
H10A O7A 1_555 1_555
Cu2A O3 1_555 1_555
Cu2_2 O4 1_555 1_555
Cu2_3 N1 1_555 1_555
Cu2A_2 O1A 1_555 1_555
Cu2A_3 N1A_2 1_555 1_555
Cu2A_4 O4A_2 1_555 1_555
Cu2_4 O3A_2 1_555 1_555
O5 Cu2 1_555 1_555
C3 C6 1_555 1_555
C4 C5 1_555 1_555
C9 C15 1_555 1_555
C11 C12 1_555 1_555
O5A Cu2A_2 1_555 1_555
C4A C5A 1_555 1_555
C9A C15A 1_555 1_555
C11A C12A 1_555 1_555

#END
