
#######################################################################
#
#                 Cambridge Crystallographic Data Centre
#                                CCDC 
#
#######################################################################
#
# If this CIF has been generated from an entry in the Cambridge 
# Structural Database, then it will include bibliographic, chemical, 
# crystal, experimental, refinement or atomic coordinate data resulting 
# from the CCDC's data processing and validation procedures.
#
#######################################################################

data_WEZFOW10
_symmetry_cell_setting           orthorhombic
_symmetry_space_group_name_H-M   'P c c a'
_symmetry_Int_Tables_number      54
_space_group_name_Hall           '-P 2a 2ac'
loop_
_symmetry_equiv_pos_site_id
_symmetry_equiv_pos_as_xyz
1 x,y,z
2 1/2-x,-y,z
3 1/2+x,-y,1/2-z
4 -x,y,1/2-z
5 -x,-y,-z
6 1/2+x,y,-z
7 1/2-x,y,1/2+z
8 x,-y,1/2+z
_cell_length_a                   17.616(1)
_cell_length_b                   11.024(1)
_cell_length_c                   17.297(1)
_cell_angle_alpha                90
_cell_angle_beta                 90
_cell_angle_gamma                90
_cell_volume                     3359.06
loop_
_atom_site_label
_atom_site_type_symbol
_atom_site_fract_x
_atom_site_fract_y
_atom_site_fract_z
Na1 Na 0.7500 0.0000 0.1031(1)
O1 O 0.6492(1) -0.0299(1) 0.0304(1)
C1 C 0.5790(1) -0.0150(2) 0.0163(1)
C2 C 0.5404(1) 0.0962(2) 0.0366(1)
C3 C 0.5356(1) -0.1112(2) -0.0196(1)
C4 C 0.5759(1) -0.2279(2) -0.0335(1)
C5 C 0.6367(1) -0.2361(2) -0.0844(1)
C6 C 0.6729(1) -0.3456(2) -0.0970(1)
C7 C 0.5919(1) -0.4404(2) -0.0050(1)
C8 C 0.6508(1) -0.4478(2) -0.0572(1)
C9 C 0.5545(1) -0.3312(2) 0.0060(1)
C10 C 0.5846(1) 0.1905(2) 0.0790(1)
C11 C 0.6528(1) 0.2357(2) 0.0506(1)
C12 C 0.6934(1) 0.3229(2) 0.0913(1)
C13 C 0.6668(1) 0.3650(2) 0.1612(1)
C14 C 0.5997(1) 0.3203(2) 0.1908(1)
C15 C 0.5593(1) 0.2341(2) 0.1498(1)
O2 O 0.6789(1) -0.0953(2) 0.2011(1)
C16 C 0.6344(1) -0.1986(3) 0.1816(1)
C17 C 0.6320(2) -0.2874(2) 0.2477(2)
C18 C 0.6030(1) -0.2282(2) 0.3203(1)
C19 C 0.6469(2) -0.1126(2) 0.3358(1)
C20 C 0.6475(2) -0.0337(2) 0.2652(1)
H1 H 0.6537 -0.1648 -0.1112
H2 H 0.7137 -0.3504 -0.1337
H3 H 0.5769 -0.5109 0.0238
H4 H 0.6762 -0.5236 -0.0658
H5 H 0.5130 -0.3273 0.0417
H6 H 0.6721 0.2062 0.0023
H7 H 0.7401 0.3539 0.0706
H8 H 0.6948 0.4253 0.1893
H9 H 0.5812 0.3488 0.2397
H10 H 0.5125 0.2038 0.1708
H11 H 0.5836 -0.1729 0.1698
H12 H 0.6561 -0.2375 0.1372
H13 H 0.6822 -0.3178 0.2568
H14 H 0.5990 -0.3535 0.2342
H15 H 0.5501 -0.2092 0.3142
H16 H 0.6093 -0.2828 0.3630
H17 H 0.6982 -0.1327 0.3496
H18 H 0.6234 -0.0694 0.3777
H19 H 0.6772 0.0374 0.2756
H20 H 0.5964 -0.0104 0.2532
O1A O 0.8508(1) 0.0299(1) 0.0304(1)
O2A O 0.8211(1) 0.0953(2) 0.2011(1)
C3D C 0.4644(1) 0.1112(2) 0.0196(1)
C2D C 0.4596(1) -0.0962(2) -0.0366(1)
C16A C 0.8656(1) 0.1986(3) 0.1816(1)
C20A C 0.8525(2) 0.0337(2) 0.2652(1)
C1D C 0.4210(1) 0.0150(2) -0.0163(1)
C4D C 0.4241(1) 0.2279(2) 0.0335(1)
C10D C 0.4154(1) -0.1905(2) -0.0790(1)
C17A C 0.8680(2) 0.2874(2) 0.2477(2)
H11A H 0.9164 0.1729 0.1698
H12A H 0.8439 0.2375 0.1372
C19A C 0.8531(2) 0.1126(2) 0.3358(1)
H19A H 0.8228 -0.0374 0.2756
H20A H 0.9036 0.0104 0.2532
O1D O 0.3508(1) 0.0299(1) -0.0304(1)
C5D C 0.3633(1) 0.2361(2) 0.0844(1)
C9D C 0.4455(1) 0.3312(2) -0.0060(1)
C11D C 0.3472(1) -0.2357(2) -0.0506(1)
C15D C 0.4407(1) -0.2341(2) -0.1498(1)
C18A C 0.8970(1) 0.2282(2) 0.3203(1)
H13A H 0.8178 0.3178 0.2568
H14A H 0.9010 0.3535 0.2342
H17A H 0.8018 0.1327 0.3496
H18A H 0.8766 0.0694 0.3777
Na1D Na 0.2500 0.0000 -0.1031(1)
C6D C 0.3271(1) 0.3456(2) 0.0970(1)
H1D H 0.3463 0.1648 0.1112
C7D C 0.4081(1) 0.4404(2) 0.0050(1)
H5D H 0.4870 0.3273 -0.0417
C12D C 0.3066(1) -0.3229(2) -0.0913(1)
H6D H 0.3279 -0.2062 -0.0023
C14D C 0.4003(1) -0.3203(2) -0.1908(1)
H10D H 0.4875 -0.2038 -0.1708
H15A H 0.9499 0.2092 0.3142
H16A H 0.8907 0.2828 0.3630
C8D C 0.3492(1) 0.4478(2) 0.0572(1)
H2D H 0.2863 0.3504 0.1337
H3D H 0.4231 0.5109 -0.0238
C13D C 0.3332(1) -0.3650(2) -0.1612(1)
H7D H 0.2599 -0.3539 -0.0706
H9D H 0.4188 -0.3488 -0.2397
H4D H 0.3238 0.5236 0.0658
H8D H 0.3052 -0.4253 -0.1893
loop_
_geom_bond_atom_site_label_1
_geom_bond_atom_site_label_2
_geom_bond_site_symmetry_1
_geom_bond_site_symmetry_2
Na1 O1 1_555 1_555
O1 C1 1_555 1_555
C1 C2 1_555 1_555
C2 C10 1_555 1_555
C3 C1 1_555 1_555
C4 C3 1_555 1_555
C5 C4 1_555 1_555
C6 C5 1_555 1_555
C7 C8 1_555 1_555
C8 C6 1_555 1_555
C9 C4 1_555 1_555
C10 C11 1_555 1_555
C11 C12 1_555 1_555
C12 C13 1_555 1_555
C13 C14 1_555 1_555
C14 C15 1_555 1_555
C15 C10 1_555 1_555
O2 Na1 1_555 1_555
C16 O2 1_555 1_555
C17 C16 1_555 1_555
C18 C17 1_555 1_555
C19 C18 1_555 1_555
C20 O2 1_555 1_555
H1 C5 1_555 1_555
H2 C6 1_555 1_555
H3 C7 1_555 1_555
H4 C8 1_555 1_555
H5 C9 1_555 1_555
H6 C11 1_555 1_555
H7 C12 1_555 1_555
H8 C13 1_555 1_555
H9 C14 1_555 1_555
H10 C15 1_555 1_555
H11 C16 1_555 1_555
H12 C16 1_555 1_555
H13 C17 1_555 1_555
H14 C17 1_555 1_555
H15 C18 1_555 1_555
H16 C18 1_555 1_555
H17 C19 1_555 1_555
H18 C19 1_555 1_555
H19 C20 1_555 1_555
H20 C20 1_555 1_555
O1A Na1 1_555 1_555
O2A Na1 1_555 1_555
C3D C2 1_555 1_555
C2D C3 1_555 1_555
C16A O2A 1_555 1_555
C20A O2A 1_555 1_555
C1D C3D 1_555 1_555
C4D C3D 1_555 1_555
C10D C2D 1_555 1_555
C17A C16A 1_555 1_555
H11A C16A 1_555 1_555
H12A C16A 1_555 1_555
C19A C20A 1_555 1_555
H19A C20A 1_555 1_555
H20A C20A 1_555 1_555
O1D C1D 1_555 1_555
C5D C4D 1_555 1_555
C9D C4D 1_555 1_555
C11D C10D 1_555 1_555
C15D C10D 1_555 1_555
C18A C17A 1_555 1_555
H13A C17A 1_555 1_555
H14A C17A 1_555 1_555
H17A C19A 1_555 1_555
H18A C19A 1_555 1_555
Na1D O1D 1_555 1_555
C6D C5D 1_555 1_555
H1D C5D 1_555 1_555
C7D C9D 1_555 1_555
H5D C9D 1_555 1_555
C12D C11D 1_555 1_555
H6D C11D 1_555 1_555
C14D C15D 1_555 1_555
H10D C15D 1_555 1_555
H15A C18A 1_555 1_555
H16A C18A 1_555 1_555
C8D C6D 1_555 1_555
H2D C6D 1_555 1_555
H3D C7D 1_555 1_555
C13D C12D 1_555 1_555
H7D C12D 1_555 1_555
H9D C14D 1_555 1_555
H4D C8D 1_555 1_555
H8D C13D 1_555 1_555
C7 C9 1_555 1_555
C19 C20 1_555 1_555
C2D C1D 1_555 1_555
C19A C18A 1_555 1_555
C7D C8D 1_555 1_555
C14D C13D 1_555 1_555

#END
