
#######################################################################
#
#                 Cambridge Crystallographic Data Centre
#                                CCDC 
#
#######################################################################
#
# If this CIF has been generated from an entry in the Cambridge 
# Structural Database, then it will include bibliographic, chemical, 
# crystal, experimental, refinement or atomic coordinate data resulting 
# from the CCDC's data processing and validation procedures.
#
#######################################################################

data_WEZHUF
_symmetry_cell_setting           monoclinic
_symmetry_space_group_name_H-M   'P 21/n'
_symmetry_Int_Tables_number      14
_space_group_name_Hall           '-P 2yn'
loop_
_symmetry_equiv_pos_site_id
_symmetry_equiv_pos_as_xyz
1 x,y,z
2 1/2-x,1/2+y,1/2-z
3 -x,-y,-z
4 1/2+x,1/2-y,1/2+z
_cell_length_a                   9.6113(18)
_cell_length_b                   10.697(2)
_cell_length_c                   19.954(4)
_cell_angle_alpha                90
_cell_angle_beta                 94.941(4)
_cell_angle_gamma                90
_cell_volume                     2043.89
loop_
_atom_site_label
_atom_site_type_symbol
_atom_site_fract_x
_atom_site_fract_y
_atom_site_fract_z
Cu1 Cu 0.25227(5) 0.72964(5) 1.05509(2)
O1 O 0.1259(3) 0.8405(3) 1.00368(13)
O2 O 0.3167(3) 0.9183(4) 0.96811(16)
O3 O -0.1973(3) 0.6566(3) 0.62901(13)
O4 O -0.3688(3) 0.7589(3) 0.67022(15)
N1 N 0.1938(3) 0.5866(3) 0.99372(16)
N2 N 0.3949(3) 0.6035(4) 1.09150(17)
C1 C 0.1886(4) 0.9092(4) 0.9639(2)
C2 C 0.0988(4) 0.9775(4) 0.9092(2)
H1 H 0.0381 1.0361 0.9296
H2 H 0.1582 1.0244 0.8814
C3 C 0.0115(4) 0.8859(4) 0.86607(18)
C4 C -0.1306(4) 0.8742(4) 0.8705(2)
H3 H -0.1747 0.9252 0.9000
C5 C -0.2078(4) 0.7880(4) 0.83185(19)
H4 H -0.3037 0.7836 0.8348
C6 C -0.1467(4) 0.7082(4) 0.78897(18)
C7 C -0.0032(4) 0.7182(4) 0.78544(19)
H5 H 0.0415 0.6646 0.7575
C8 C 0.0735(4) 0.8064(4) 0.8228(2)
H6 H 0.1690 0.8126 0.8189
C9 C -0.2346(5) 0.6181(4) 0.7436(2)
H7 H -0.3183 0.5951 0.7646
H8 H -0.1818 0.5426 0.7367
C10 C -0.2740(5) 0.6824(4) 0.6763(2)
C11 C 0.0919(4) 0.5816(4) 0.9448(2)
H9 H 0.0403 0.6536 0.9343
C12 C 0.0587(5) 0.4732(5) 0.9084(2)
H10 H -0.0127 0.4734 0.8738
C13 C 0.1319(6) 0.3670(5) 0.9239(2)
H11 H 0.1091 0.2937 0.9004
C14 C 0.2410(5) 0.3667(4) 0.9748(2)
C15 C 0.3278(6) 0.2628(5) 0.9947(3)
H12 H 0.3119 0.1866 0.9729
C16 C 0.4312(6) 0.2714(5) 1.0435(3)
H13 H 0.4859 0.2015 1.0546
C17 C 0.4596(5) 0.3855(5) 1.0790(3)
C18 C 0.5657(6) 0.4024(6) 1.1308(3)
H14 H 0.6228 0.3356 1.1450
C19 C 0.5857(5) 0.5166(7) 1.1606(3)
H15 H 0.6568 0.5278 1.1948
C20 C 0.4985(5) 0.6174(5) 1.1396(2)
H16 H 0.5135 0.6952 1.1598
C21 C 0.3768(4) 0.4900(4) 1.0615(2)
C22 C 0.2675(4) 0.4804(4) 1.0089(2)
Cu1C Cu -0.24773(5) 0.77036(5) 0.55509(2)
O3C O 0.3027(3) 0.8434(3) 1.12901(13)
O5 O 0.4509(3) 0.0121(3) 0.85913(16)
H17 H 0.5305 0.0462 0.8644
H18 H 0.4143 -0.0125 0.8938
O6 O 0.4040(4) 0.8357(4) 0.75308(18)
H19 H 0.4647 0.8142 0.7267
H20 H 0.4315 0.8835 0.7856
loop_
_geom_bond_atom_site_label_1
_geom_bond_atom_site_label_2
_geom_bond_site_symmetry_1
_geom_bond_site_symmetry_2
Cu1 O1 1_555 1_555
O1 C1 1_555 1_555
O2 C1 1_555 1_555
O3 C10 1_555 1_555
O4 C10 1_555 1_555
N1 Cu1 1_555 1_555
N2 Cu1 1_555 1_555
C1 C2 1_555 1_555
C2 H1 1_555 1_555
H2 C2 1_555 1_555
C3 C2 1_555 1_555
C4 C3 1_555 1_555
H3 C4 1_555 1_555
C5 C4 1_555 1_555
H4 C5 1_555 1_555
C6 C5 1_555 1_555
C7 C6 1_555 1_555
H5 C7 1_555 1_555
C8 C3 1_555 1_555
H6 C8 1_555 1_555
C9 C6 1_555 1_555
H7 C9 1_555 1_555
H8 C9 1_555 1_555
C10 C9 1_555 1_555
C11 N1 1_555 1_555
H9 C11 1_555 1_555
C12 C11 1_555 1_555
H10 C12 1_555 1_555
C13 C12 1_555 1_555
H11 C13 1_555 1_555
C14 C13 1_555 1_555
C15 C14 1_555 1_555
H12 C15 1_555 1_555
C16 C15 1_555 1_555
H13 C16 1_555 1_555
C17 C16 1_555 1_555
C18 C17 1_555 1_555
H14 C18 1_555 1_555
C19 C18 1_555 1_555
H15 C19 1_555 1_555
C20 N2 1_555 1_555
H16 C20 1_555 1_555
C21 N2 1_555 1_555
C22 N1 1_555 1_555
O5 H17 1_555 1_555
H18 O5 1_555 1_555
O6 H19 1_555 1_555
H20 O6 1_555 1_555
Cu1C O3 1_555 1_555
O3C Cu1 1_555 1_555
C7 C8 1_555 1_555
C14 C22 1_555 1_555
C17 C21 1_555 1_555
C19 C20 1_555 1_555
C21 C22 1_555 1_555

#END
