
#######################################################################
#
#                 Cambridge Crystallographic Data Centre
#                                CCDC 
#
#######################################################################
#
# If this CIF has been generated from an entry in the Cambridge 
# Structural Database, then it will include bibliographic, chemical, 
# crystal, experimental, refinement or atomic coordinate data resulting 
# from the CCDC's data processing and validation procedures.
#
#######################################################################

data_WEZKIW
_symmetry_cell_setting           triclinic
_symmetry_space_group_name_H-M   'P -1'
_symmetry_Int_Tables_number      2
_space_group_name_Hall           '-P 1'
loop_
_symmetry_equiv_pos_site_id
_symmetry_equiv_pos_as_xyz
1 x,y,z
2 -x,-y,-z
_cell_length_a                   12.822(5)
_cell_length_b                   13.698(5)
_cell_length_c                   13.940(6)
_cell_angle_alpha                87.044(15)
_cell_angle_beta                 74.85(2)
_cell_angle_gamma                83.25(2)
_cell_volume                     2346.33
loop_
_atom_site_label
_atom_site_type_symbol
_atom_site_fract_x
_atom_site_fract_y
_atom_site_fract_z
La1 La 0.19650(9) 0.76915(9) 0.72048(9)
Cl1 Cl -0.0974(4) 0.7074(4) 0.8483(4)
O1 O 0.1474(10) 0.8794(10) 0.8611(11)
O2 O 0.3679(11) 0.7517(10) 0.7717(10)
O3 O 0.0057(11) 0.7139(10) 0.7761(10)
O4 O -0.0807(11) 0.6919(11) 0.9449(12)
O5 O -0.1636(15) 0.7965(14) 0.8419(13)
O6 O -0.1384(14) 0.6260(12) 0.8208(12)
O16 O 0.0583(14) 0.9020(12) 0.6654(13)
H1 H -0.0054 0.9024 0.6579
H2 H 0.0531 0.9631 0.6507
O17 O 0.2890(12) 0.9237(10) 0.6579(11)
H3 H 0.2415 0.9671 0.6899
H4 H 0.3378 0.9451 0.6797
N1 N 0.2283(11) 0.4917(13) 0.6863(12)
N2 N 0.2187(13) 0.5690(11) 0.7413(13)
N3 N 0.1690(13) 0.6949(14) 0.9029(11)
N4 N 0.2085(12) 0.9183(14) 0.9859(14)
N5 N 0.1168(14) 0.7356(12) 0.4846(12)
N6 N 0.1918(14) 0.7340(13) 0.5348(14)
N7 N 0.3822(11) 0.7359(12) 0.5805(12)
N8 N 0.5368(13) 0.6823(15) 0.7595(16)
C1 C 0.4341(19) 0.5306(16) 0.4431(18)
H5 H 0.3865 0.5514 0.4022
C2 C 0.4601(14) 0.4686(13) 0.5956(13)
H6 H 0.4334 0.4457 0.6620
C3 C 0.3895(13) 0.5009(13) 0.5398(15)
C4 C 0.2673(16) 0.5000(16) 0.5822(19)
H7 H 0.2309 0.5614 0.5598
H8 H 0.2445 0.4446 0.5526
C5 C 0.2044(18) 0.4094(16) 0.743(2)
H9 H 0.2072 0.3453 0.7188
C6 C 0.1763(17) 0.4348(16) 0.8385(17)
H10 H 0.1557 0.3922 0.8945
C7 C 0.1826(16) 0.5330(16) 0.8403(18)
C8 C 0.1608(17) 0.5970(15) 0.9177(16)
C9 C 0.1258(18) 0.5621(17) 1.0195(18)
H11 H 0.1147 0.4948 1.0324
C10 C 0.1088(15) 0.6220(17) 1.0956(17)
H12 H 0.0900 0.5968 1.1619
C11 C 0.1184(16) 0.7187(16) 1.0781(14)
H13 H 0.1023 0.7630 1.1316
C12 C 0.1529(16) 0.7527(15) 0.9789(17)
C13 C 0.1733(18) 0.8555(16) 0.9370(15)
C14 C 0.2155(18) 1.0202(17) 0.9425(17)
H14 H 0.2618 1.0541 0.9738
H15 H 0.2518 1.0158 0.8706
C15 C 0.109(2) 1.0807(19) 0.9551(18)
H16 H 0.0618 1.0471 0.9259
H17 H 0.1202 1.1448 0.9217
H18 H 0.0750 1.0902 1.0261
C16 C 0.2512(19) 0.8970(19) 1.0742(19)
H19 H 0.3252 0.9177 1.0602
H20 H 0.2567 0.8252 1.0879
C17 C 0.179(2) 0.9495(17) 1.166(2)
H21 H 0.1639 1.0192 1.1495
H22 H 0.2170 0.9433 1.2192
H23 H 0.1110 0.9197 1.1883
C18 C 0.0079(16) 0.5674(15) 0.4252(16)
H24 H 0.0147 0.6137 0.3714
C19 C -0.0049(16) 0.5294(17) 0.5920(15)
H25 H -0.0072 0.5490 0.6569
C20 C 0.0014(13) 0.5983(14) 0.5167(15)
C21 C 0.0066(16) 0.7056(14) 0.5347(15)
H26 H -0.0491 0.7470 0.5088
H27 H -0.0094 0.7162 0.6071
C22 C 0.1502(16) 0.7655(15) 0.3872(18)
H28 H 0.1078 0.7764 0.3403
C23 C 0.2602(17) 0.7766(19) 0.372(2)
H29 H 0.3101 0.7936 0.3117
C24 C 0.2793(16) 0.7578(14) 0.461(2)
C25 C 0.3837(14) 0.7601(16) 0.491(2)
C26 C 0.4709(16) 0.7986(15) 0.4175(17)
H30 H 0.4661 0.8196 0.3526
C27 C 0.5602(17) 0.8020(19) 0.4501(17)
H31 H 0.6210 0.8276 0.4059
C28 C 0.5698(16) 0.7693(19) 0.5473(15)
H32 H 0.6358 0.7672 0.5667
C29 C 0.4728(17) 0.7407(14) 0.6117(16)
C30 C 0.4617(19) 0.7243(14) 0.7183(14)
C31 C 0.6423(17) 0.6405(16) 0.7009(18)
H33 H 0.6971 0.6863 0.6990
H34 H 0.6388 0.6317 0.6318
C32 C 0.678(2) 0.5373(18) 0.747(2)
H35 H 0.6650 0.5426 0.8192
H36 H 0.7556 0.5183 0.7177
H37 H 0.6358 0.4873 0.7328
C33 C 0.514(2) 0.6832(16) 0.8715(17)
H38 H 0.5836 0.6801 0.8895
H39 H 0.4715 0.7467 0.8947
C34 C 0.456(2) 0.606(2) 0.923(2)
H40 H 0.3867 0.6075 0.9053
H41 H 0.4414 0.6155 0.9951
H42 H 0.4991 0.5431 0.9056
La1A La 0.80350(9) 0.23085(9) 0.27952(9)
La1A_2 La -0.19650(9) 0.23085(9) 0.27952(9)
Cl1A Cl 1.0974(4) 0.2926(4) 0.1517(4)
O1A O 0.8526(10) 0.1206(10) 0.1389(11)
O2A O -0.3679(11) 0.2483(10) 0.2283(10)
O2A_2 O 0.6321(11) 0.2483(10) 0.2283(10)
O3A O 0.9943(11) 0.2861(10) 0.2239(10)
O4A O 1.0807(11) 0.3081(11) 0.0551(12)
O5A O 1.1636(15) 0.2035(14) 0.1581(13)
O6A O 1.1384(14) 0.3740(12) 0.1792(12)
O16A O 0.9417(14) 0.0980(12) 0.3346(13)
H1A H 1.0054 0.0976 0.3421
H2A H 0.9469 0.0369 0.3493
O17A O 0.7110(12) 0.0763(10) 0.3421(11)
H3A H 0.7585 0.0329 0.3101
H4A H 0.6622 0.0549 0.3203
N1A N 0.7717(11) 0.5083(13) 0.3137(12)
N2A N 0.7813(13) 0.4310(11) 0.2587(13)
N3A N 0.8310(13) 0.3051(14) 0.0971(11)
N4A N 0.7915(12) 0.0817(14) 0.0141(14)
N5A N -0.1168(14) 0.2644(12) 0.5154(12)
N6A N -0.1918(14) 0.2660(13) 0.4652(14)
N6A_2 N 0.8082(14) 0.2660(13) 0.4652(14)
N7A N -0.3822(11) 0.2641(12) 0.4195(12)
N7A_2 N 0.6178(11) 0.2641(12) 0.4195(12)
N8A N -0.5368(13) 0.3177(15) 0.2405(16)
C1A C 0.5659(19) 0.4694(16) 0.5569(18)
H5A H 0.6135 0.4486 0.5978
C2A C 0.5399(14) 0.5314(13) 0.4044(13)
H6A H 0.5666 0.5543 0.3380
C3A C 0.6105(13) 0.4991(13) 0.4602(15)
C4A C 0.7327(16) 0.5000(16) 0.4178(19)
H7A H 0.7691 0.4386 0.4402
H8A H 0.7555 0.5554 0.4474
C5A C 0.7956(18) 0.5906(16) 0.257(2)
H9A H 0.7928 0.6547 0.2812
C6A C 0.8237(17) 0.5652(16) 0.1615(17)
H10A H 0.8443 0.6078 0.1055
C7A C 0.8174(16) 0.4670(16) 0.1597(18)
C8A C 0.8392(17) 0.4030(15) 0.0823(16)
C9A C 0.8742(18) 0.4379(17) -0.0195(18)
H11A H 0.8853 0.5052 -0.0324
C10A C 0.8912(15) 0.3780(17) -0.0956(17)
H12A H 0.9100 0.4032 -0.1619
C11A C 0.8816(16) 0.2813(16) -0.0781(14)
H13A H 0.8977 0.2370 -0.1316
C12A C 0.8471(16) 0.2473(15) 0.0211(17)
C13A C 0.8267(18) 0.1445(16) 0.0630(15)
C14A C 0.7845(18) -0.0202(17) 0.0575(17)
H14A H 0.7382 -0.0541 0.0262
H15A H 0.7482 -0.0158 0.1294
C15A C 0.891(2) -0.0807(19) 0.0449(18)
H16A H 0.9382 -0.0471 0.0741
H17A H 0.8798 -0.1448 0.0783
H18A H 0.9250 -0.0902 -0.0261
C16A C 0.7488(19) 0.1030(19) -0.0742(19)
H19A H 0.6748 0.0823 -0.0602
H20A H 0.7433 0.1748 -0.0879
C17A C 0.821(2) 0.0505(17) -0.166(2)
H21A H 0.8361 -0.0192 -0.1495
H22A H 0.7830 0.0567 -0.2192
H23A H 0.8890 0.0803 -0.1883
C18A C -0.0079(16) 0.4326(15) 0.5748(16)
H24A H -0.0147 0.3863 0.6286
C19A C 0.0049(16) 0.4706(17) 0.4080(15)
H25A H 0.0072 0.4510 0.3431
C20A C -0.0014(13) 0.4017(14) 0.4833(15)
C21A C -0.0066(16) 0.2944(14) 0.4653(15)
H26A H 0.0491 0.2530 0.4912
H27A H 0.0094 0.2838 0.3929
C22A C -0.1502(16) 0.2345(15) 0.6128(18)
H28A H -0.1078 0.2236 0.6597
C23A C -0.2602(17) 0.2234(19) 0.628(2)
H29A H -0.3101 0.2064 0.6883
C24A C -0.2793(16) 0.2422(14) 0.539(2)
C25A C -0.3837(14) 0.2399(16) 0.509(2)
C26A C -0.4709(16) 0.2014(15) 0.5825(17)
H30A H -0.4661 0.1804 0.6474
C27A C -0.5602(17) 0.1980(19) 0.5499(17)
H31A H -0.6210 0.1724 0.5941
C28A C -0.5698(16) 0.2307(19) 0.4527(15)
H32A H -0.6358 0.2328 0.4333
C29A C -0.4728(17) 0.2593(14) 0.3883(16)
C30A C -0.4617(19) 0.2757(14) 0.2817(14)
C31A C -0.6423(17) 0.3595(16) 0.2991(18)
H33A H -0.6971 0.3137 0.3010
H34A H -0.6388 0.3683 0.3682
C32A C -0.678(2) 0.4627(18) 0.253(2)
H35A H -0.6650 0.4574 0.1808
H36A H -0.7556 0.4817 0.2823
H37A H -0.6358 0.5127 0.2672
C33A C -0.514(2) 0.3168(16) 0.1285(17)
H38A H -0.5836 0.3199 0.1105
H39A H -0.4715 0.2533 0.1053
C34A C -0.456(2) 0.394(2) 0.077(2)
H40A H -0.3867 0.3925 0.0947
H41A H -0.4414 0.3845 0.0049
H42A H -0.4991 0.4569 0.0944
Cl2 Cl 0.1352(4) 0.1720(4) 0.6643(5)
O7 O 0.2087(14) 0.1294(14) 0.7168(13)
O8 O 0.1851(12) 0.2326(13) 0.5855(11)
O9 O 0.0965(18) 0.0979(14) 0.6178(17)
O10 O 0.0497(11) 0.2288(11) 0.7302(12)
Cl3 Cl 0.4618(5) 0.0292(5) 0.2237(5)
O12 O 0.511(4) 0.033(3) 0.304(3)
O13 O 0.527(2) 0.0550(18) 0.1294(18)
O14 O 0.4193(15) -0.0597(12) 0.2229(14)
O15 O 0.374(2) 0.1090(16) 0.252(2)
O18 O -0.146(2) 0.903(2) 0.640(2)
H43 H -0.1340 0.9030 0.5773
H44 H -0.2117 0.8991 0.6716
N9 N 0.509(2) 0.337(2) 0.813(2)
C35 C 0.465(3) 0.273(3) 0.864(3)
C36 C 0.381(3) 0.208(3) 0.921(3)
H45 H 0.4171 0.1531 0.9520
H46 H 0.3445 0.1835 0.8755
H47 H 0.3279 0.2469 0.9726
O11? O 0.553(4) 0.002(4) 0.265(5)
loop_
_geom_bond_atom_site_label_1
_geom_bond_atom_site_label_2
_geom_bond_site_symmetry_1
_geom_bond_site_symmetry_2
La1 O1 1_555 1_555
Cl1 O3 1_555 1_555
Cl2 O7 1_555 1_555
Cl3 O12 1_555 1_555
O1 C13 1_555 1_555
O2 La1 1_555 1_555
O3 La1 1_555 1_555
O4 Cl1 1_555 1_555
O5 Cl1 1_555 1_555
O6 Cl1 1_555 1_555
O8 Cl2 1_555 1_555
O9 Cl2 1_555 1_555
O10 Cl2 1_555 1_555
O13 Cl3 1_555 1_555
O14 Cl3 1_555 1_555
O15 Cl3 1_555 1_555
O16 La1 1_555 1_555
H1 O16 1_555 1_555
H2 O16 1_555 1_555
O17 La1 1_555 1_555
H3 O17 1_555 1_555
H4 O17 1_555 1_555
N1 N2 1_555 1_555
N2 La1 1_555 1_555
N3 La1 1_555 1_555
N4 C13 1_555 1_555
N5 N6 1_555 1_555
N6 La1 1_555 1_555
N7 La1 1_555 1_555
N8 C30 1_555 1_555
C1 H5 1_555 1_555
C2 H6 1_555 1_555
C3 C1 1_555 1_555
C4 N1 1_555 1_555
H7 C4 1_555 1_555
H8 C4 1_555 1_555
C5 N1 1_555 1_555
H9 C5 1_555 1_555
C6 C5 1_555 1_555
H10 C6 1_555 1_555
C7 N2 1_555 1_555
C8 N3 1_555 1_555
C9 C8 1_555 1_555
H11 C9 1_555 1_555
C10 C9 1_555 1_555
H12 C10 1_555 1_555
C11 C10 1_555 1_555
H13 C11 1_555 1_555
C12 N3 1_555 1_555
C13 C12 1_555 1_555
C14 N4 1_555 1_555
H14 C14 1_555 1_555
H15 C14 1_555 1_555
C15 C14 1_555 1_555
H16 C15 1_555 1_555
H17 C15 1_555 1_555
H18 C15 1_555 1_555
C16 N4 1_555 1_555
H19 C16 1_555 1_555
H20 C16 1_555 1_555
C17 C16 1_555 1_555
H21 C17 1_555 1_555
H22 C17 1_555 1_555
H23 C17 1_555 1_555
C18 H24 1_555 1_555
C19 H25 1_555 1_555
C20 C18 1_555 1_555
C21 N5 1_555 1_555
H26 C21 1_555 1_555
H27 C21 1_555 1_555
C22 N5 1_555 1_555
H28 C22 1_555 1_555
C23 C22 1_555 1_555
H29 C23 1_555 1_555
C24 N6 1_555 1_555
C25 N7 1_555 1_555
C26 C25 1_555 1_555
H30 C26 1_555 1_555
C27 C26 1_555 1_555
H31 C27 1_555 1_555
C28 C27 1_555 1_555
H32 C28 1_555 1_555
C29 N7 1_555 1_555
C30 O2 1_555 1_555
C31 N8 1_555 1_555
H33 C31 1_555 1_555
H34 C31 1_555 1_555
C32 C31 1_555 1_555
H35 C32 1_555 1_555
H36 C32 1_555 1_555
H37 C32 1_555 1_555
C33 N8 1_555 1_555
H38 C33 1_555 1_555
H39 C33 1_555 1_555
C34 C33 1_555 1_555
H40 C34 1_555 1_555
H41 C34 1_555 1_555
H42 C34 1_555 1_555
O18 H43 1_555 1_555
H44 O18 1_555 1_555
N9 C35 1_555 1_555
C35 C36 1_555 1_555
C36 H45 1_555 1_555
H46 C36 1_555 1_555
H47 C36 1_555 1_555
La1A O1A 1_555 1_555
La1A_2 O2A 1_555 1_555
Cl1A O3A 1_555 1_555
O1A C13A 1_555 1_555
O2A C30A 1_555 1_555
O2A_2 La1A 1_555 1_555
O3A La1A 1_555 1_555
O4A Cl1A 1_555 1_555
O5A Cl1A 1_555 1_555
O6A Cl1A 1_555 1_555
O16A La1A 1_555 1_555
H1A O16A 1_555 1_555
H2A O16A 1_555 1_555
O17A La1A 1_555 1_555
H3A O17A 1_555 1_555
H4A O17A 1_555 1_555
N1A N2A 1_555 1_555
N2A La1A 1_555 1_555
N3A La1A 1_555 1_555
N4A C13A 1_555 1_555
N5A N6A 1_555 1_555
N6A La1A_2 1_555 1_555
N6A_2 La1A 1_555 1_555
N7A La1A_2 1_555 1_555
N7A_2 La1A 1_555 1_555
N8A C30A 1_555 1_555
C1A C2 1_555 1_555
H5A C1A 1_555 1_555
C2A C1 1_555 1_555
H6A C2A 1_555 1_555
C3A C1A 1_555 1_555
C4A N1A 1_555 1_555
H7A C4A 1_555 1_555
H8A C4A 1_555 1_555
C5A N1A 1_555 1_555
H9A C5A 1_555 1_555
C6A C5A 1_555 1_555
H10A C6A 1_555 1_555
C7A N2A 1_555 1_555
C8A N3A 1_555 1_555
C9A C8A 1_555 1_555
H11A C9A 1_555 1_555
C10A C9A 1_555 1_555
H12A C10A 1_555 1_555
C11A C10A 1_555 1_555
H13A C11A 1_555 1_555
C12A N3A 1_555 1_555
C13A C12A 1_555 1_555
C14A N4A 1_555 1_555
H14A C14A 1_555 1_555
H15A C14A 1_555 1_555
C15A C14A 1_555 1_555
H16A C15A 1_555 1_555
H17A C15A 1_555 1_555
H18A C15A 1_555 1_555
C16A N4A 1_555 1_555
H19A C16A 1_555 1_555
H20A C16A 1_555 1_555
C17A C16A 1_555 1_555
H21A C17A 1_555 1_555
H22A C17A 1_555 1_555
H23A C17A 1_555 1_555
C18A C19 1_555 1_555
H24A C18A 1_555 1_555
C19A C18 1_555 1_555
H25A C19A 1_555 1_555
C20A C18A 1_555 1_555
C21A N5A 1_555 1_555
H26A C21A 1_555 1_555
H27A C21A 1_555 1_555
C22A N5A 1_555 1_555
H28A C22A 1_555 1_555
C23A C22A 1_555 1_555
H29A C23A 1_555 1_555
C24A N6A 1_555 1_555
C25A N7A 1_555 1_555
C26A C25A 1_555 1_555
H30A C26A 1_555 1_555
C27A C26A 1_555 1_555
H31A C27A 1_555 1_555
C28A C27A 1_555 1_555
H32A C28A 1_555 1_555
C29A N7A 1_555 1_555
C30A C29A 1_555 1_555
C31A N8A 1_555 1_555
H33A C31A 1_555 1_555
H34A C31A 1_555 1_555
C32A C31A 1_555 1_555
H35A C32A 1_555 1_555
H36A C32A 1_555 1_555
H37A C32A 1_555 1_555
C33A N8A 1_555 1_555
H38A C33A 1_555 1_555
H39A C33A 1_555 1_555
C34A C33A 1_555 1_555
H40A C34A 1_555 1_555
H41A C34A 1_555 1_555
H42A C34A 1_555 1_555
C2 C3 1_555 1_555
C3 C4 1_555 1_555
C6 C7 1_555 1_555
C7 C8 1_555 1_555
C11 C12 1_555 1_555
C19 C20 1_555 1_555
C20 C21 1_555 1_555
C23 C24 1_555 1_555
C24 C25 1_555 1_555
C28 C29 1_555 1_555
C29 C30 1_555 1_555
C2A C3A 1_555 1_555
C3A C4A 1_555 1_555
C6A C7A 1_555 1_555
C7A C8A 1_555 1_555
C11A C12A 1_555 1_555
C19A C20A 1_555 1_555
C20A C21A 1_555 1_555
C23A C24A 1_555 1_555
C24A C25A 1_555 1_555
C28A C29A 1_555 1_555

#END
