
#######################################################################
#
#                 Cambridge Crystallographic Data Centre
#                                CCDC 
#
#######################################################################
#
# If this CIF has been generated from an entry in the Cambridge 
# Structural Database, then it will include bibliographic, chemical, 
# crystal, experimental, refinement or atomic coordinate data resulting 
# from the CCDC's data processing and validation procedures.
#
#######################################################################

data_WEZMUL
_symmetry_cell_setting           monoclinic
_symmetry_space_group_name_H-M   'P 21/n'
_symmetry_Int_Tables_number      14
_space_group_name_Hall           '-P 2yn'
loop_
_symmetry_equiv_pos_site_id
_symmetry_equiv_pos_as_xyz
1 x,y,z
2 1/2-x,1/2+y,1/2-z
3 -x,-y,-z
4 1/2+x,1/2-y,1/2+z
_cell_length_a                   9.3890(19)
_cell_length_b                   23.221(5)
_cell_length_c                   18.143(4)
_cell_angle_alpha                90
_cell_angle_beta                 100.80(3)
_cell_angle_gamma                90
_cell_volume                     3885.51
loop_
_atom_site_label
_atom_site_type_symbol
_atom_site_fract_x
_atom_site_fract_y
_atom_site_fract_z
Mo1 Mo 1.32986(5) 0.251175(18) 0.23083(3)
Cu1 Cu 1.07041(7) 0.26448(3) 0.13863(4)
Cu2 Cu 1.30577(8) 0.36524(3) 0.24181(4)
Cu3 Cu 1.44409(7) 0.28159(3) 0.10874(4)
S1 S 0.90320(16) 0.18646(6) 0.12309(11)
S2 S 1.38138(18) 0.42114(7) -0.08549(10)
S3 S 1.26538(14) 0.21728(5) 0.11145(8)
S4 S 1.13381(15) 0.30147(5) 0.25435(8)
S5 S 1.50447(15) 0.31819(5) 0.22539(8)
N1 N 0.6295(5) 0.2378(2) 0.0987(3)
N2 N 1.4253(5) 0.3360(2) 0.0260(3)
N3 N 0.9838(4) 0.32856(16) 0.0688(2)
N4 N 0.7642(5) 0.56833(17) -0.1697(3)
N5 N 1.3767(6) 0.41319(19) 0.3395(3)
C1 C 0.7437(6) 0.2174(2) 0.1103(3)
C2 C 1.4081(6) 0.3715(2) -0.0210(4)
C3 C 1.0660(5) 0.3497(2) 0.0210(3)
H1 H 1.1571 0.3321 0.0206
C4 C 1.0258(6) 0.3950(2) -0.0267(3)
H2 H 1.0877 0.4077 -0.0593
C5 C 0.8926(5) 0.42235(19) -0.0271(3)
C6 C 0.8095(6) 0.4001(2) 0.0198(4)
H3 H 0.7166 0.4162 0.0203
C7 C 0.8582(6) 0.3540(2) 0.0673(3)
H4 H 0.7977 0.3404 0.1001
C8 C 0.8479(5) 0.4726(2) -0.0781(3)
C9 C 0.9321(6) 0.4942(2) -0.1245(4)
H5 H 1.0227 0.4767 -0.1268
C10 C 0.8864(7) 0.5415(2) -0.1684(3)
H6 H 0.9485 0.5556 -0.2000
C11 C 0.6817(7) 0.5486(2) -0.1231(3)
H7 H 0.5932 0.5679 -0.1213
C12 C 0.7186(6) 0.50137(19) -0.0772(3)
H8 H 0.6558 0.4887 -0.0451
C13 C 1.2928(9) 0.4483(3) 0.3669(5)
H9 H 1.1940 0.4500 0.3425
C14 C 1.3355(9) 0.4836(3) 0.4290(5)
H10 H 1.2675 0.5087 0.4453
C15 C 1.4744(7) 0.4820(2) 0.4659(3)
C16 C 1.5608(9) 0.4445(4) 0.4395(4)
H11 H 1.6586 0.4403 0.4645
C17 C 1.5107(8) 0.4123(4) 0.3775(4)
H12 H 1.5775 0.3872 0.3603
C18 C 1.3979(10) 0.2225(3) 0.3571(5)
C19 C 1.5132(10) 0.2066(3) 0.3218(5)
C20 C 1.4581(10) 0.1635(3) 0.2684(5)
C21 C 1.3097(10) 0.1551(3) 0.2745(5)
C22 C 1.2816(10) 0.1917(3) 0.3300(5)
C23 C 1.4037(9) 0.2663(3) 0.4191(5)
H13 H 1.3554 0.3018 0.3986
H14 H 1.5050 0.2746 0.4411
H15 H 1.3543 0.2508 0.4579
C24 C 1.6667(9) 0.2239(3) 0.3409(5)
H16 H 1.6743 0.2608 0.3677
H17 H 1.7059 0.2281 0.2948
H18 H 1.7218 0.1945 0.3729
C25 C 1.5421(9) 0.1299(3) 0.2213(5)
H19 H 1.6225 0.1534 0.2106
H20 H 1.4785 0.1192 0.1741
H21 H 1.5807 0.0950 0.2482
C26 C 1.2260(9) 0.1079(3) 0.2262(5)
H22 H 1.2575 0.0701 0.2473
H23 H 1.2448 0.1106 0.1750
H24 H 1.1220 0.1126 0.2253
C27 C 1.1266(9) 0.1862(3) 0.3486(5)
H25 H 1.1216 0.2081 0.3942
H26 H 1.1055 0.1455 0.3565
H27 H 1.0552 0.2014 0.3067
N5B N 1.6233(6) 0.58681(19) 0.6605(3)
C13B C 1.7072(9) 0.5517(3) 0.6331(5)
H9B H 1.8060 0.5500 0.6575
C14B C 1.6645(9) 0.5164(3) 0.5710(5)
H10B H 1.7325 0.4913 0.5547
C15B C 1.5256(7) 0.5180(2) 0.5341(3)
C16B C 1.4392(9) 0.5555(4) 0.5605(4)
H11B H 1.3414 0.5597 0.5355
C17B C 1.4893(8) 0.5877(4) 0.6225(4)
H12B H 1.4225 0.6128 0.6397
Mo1B Mo 0.67014(5) 0.748825(18) -0.23083(3)
Cu1B Cu 0.92959(7) 0.73552(3) -0.13863(4)
Cu2B Cu 0.69423(8) 0.63476(3) -0.24181(4)
Cu3B Cu 0.55591(7) 0.71841(3) -0.10874(4)
S1B S 1.09680(16) 0.81354(6) -0.12309(11)
S2B S 0.61862(18) 0.57886(7) 0.08549(10)
S3B S 0.73462(14) 0.78272(5) -0.11145(8)
S4B S 0.86619(15) 0.69853(5) -0.25435(8)
S5B S 0.49553(15) 0.68181(5) -0.22539(8)
N1B N 1.3705(5) 0.7622(2) -0.0987(3)
N2B N 0.5747(5) 0.6640(2) -0.0260(3)
N3B N 1.0162(4) 0.67144(16) -0.0688(2)
N4B N 1.2358(5) 0.43167(17) 0.1697(3)
C1B C 1.2563(6) 0.7826(2) -0.1103(3)
C2B C 0.5919(6) 0.6285(2) 0.0210(4)
C3B C 0.9340(5) 0.6503(2) -0.0210(3)
H1B H 0.8429 0.6679 -0.0206
C4B C 0.9742(6) 0.6050(2) 0.0267(3)
H2B H 0.9123 0.5923 0.0593
C5B C 1.1074(5) 0.57765(19) 0.0271(3)
C6B C 1.1905(6) 0.5999(2) -0.0198(4)
H3B H 1.2834 0.5838 -0.0203
C7B C 1.1418(6) 0.6460(2) -0.0673(3)
H4B H 1.2023 0.6596 -0.1001
C8B C 1.1521(5) 0.5274(2) 0.0781(3)
C9B C 1.0679(6) 0.5058(2) 0.1245(4)
H5B H 0.9773 0.5233 0.1268
C10B C 1.1136(7) 0.4585(2) 0.1684(3)
H6B H 1.0515 0.4444 0.2000
C11B C 1.3183(7) 0.4514(2) 0.1231(3)
H7B H 1.4068 0.4321 0.1213
C12B C 1.2814(6) 0.49863(19) 0.0772(3)
H8B H 1.3442 0.5113 0.0451
C18B C 0.6021(10) 0.7775(3) -0.3571(5)
C19B C 0.4868(10) 0.7934(3) -0.3218(5)
C20B C 0.5419(10) 0.8365(3) -0.2684(5)
C21B C 0.6903(10) 0.8449(3) -0.2745(5)
C22B C 0.7184(10) 0.8083(3) -0.3300(5)
C23B C 0.5963(9) 0.7337(3) -0.4191(5)
H13B H 0.6446 0.6982 -0.3986
H14B H 0.4950 0.7254 -0.4411
H15B H 0.6457 0.7492 -0.4579
C24B C 0.3333(9) 0.7761(3) -0.3409(5)
H16B H 0.3257 0.7392 -0.3677
H17B H 0.2941 0.7719 -0.2948
H18B H 0.2782 0.8055 -0.3729
C25B C 0.4579(9) 0.8701(3) -0.2213(5)
H19B H 0.3775 0.8466 -0.2106
H20B H 0.5215 0.8808 -0.1741
H21B H 0.4193 0.9050 -0.2482
C26B C 0.7740(9) 0.8921(3) -0.2262(5)
H22B H 0.7425 0.9299 -0.2473
H23B H 0.7552 0.8894 -0.1750
H24B H 0.8780 0.8874 -0.2253
C27B C 0.8734(9) 0.8138(3) -0.3486(5)
H25B H 0.8784 0.7919 -0.3942
H26B H 0.8945 0.8545 -0.3565
H27B H 0.9448 0.7986 -0.3067
Cu2B_2 Cu 1.69423(8) 0.63476(3) 0.75819(4)
Cu3_2 Cu 0.44409(7) 0.28159(3) 0.10874(4)
Cu3B_2 Cu 1.55591(7) 0.71841(3) -0.10874(4)
N1_2 N 1.6295(5) 0.2378(2) 0.0987(3)
N1B_2 N 0.3705(5) 0.7622(2) -0.0987(3)
N5B_2 N 0.6233(6) 0.58681(19) -0.3395(3)
O1 O 0.0567(6) 0.5610(3) -0.3160(3)
N6 N 0.2531(6) 0.5053(2) -0.2875(4)
C28 C 0.3062(10) 0.5389(4) -0.2206(5)
H28 H 0.2634 0.5775 -0.2263
H29 H 0.4120 0.5419 -0.2133
H30 H 0.2790 0.5199 -0.1770
C29 C 0.3380(11) 0.4569(3) -0.3028(7)
H31 H 0.2897 0.4379 -0.3490
H32 H 0.3479 0.4296 -0.2609
H33 H 0.4342 0.4702 -0.3088
C30 C 0.1294(8) 0.5208(3) -0.3295(5)
H34 H 0.0949 0.4988 -0.3734
N7 N 0.0634(9) 0.5739(3) -0.5277(4)
C31 C 0.0271(13) 0.6645(5) -0.4414(6)
H35 H -0.0682 0.6705 -0.4281
H36 H 0.0522 0.6981 -0.4691
H37 H 0.1001 0.6595 -0.3956
C32 C 0.0233(8) 0.6164(3) -0.4854(4)
loop_
_geom_bond_atom_site_label_1
_geom_bond_atom_site_label_2
_geom_bond_site_symmetry_1
_geom_bond_site_symmetry_2
Mo1 S3 1_555 1_555
Cu1 S1 1_555 1_555
Cu2 S4 1_555 1_555
Cu3 S3 1_555 1_555
S1 C1 1_555 1_555
S2 C2 1_555 1_555
S3 Cu1 1_555 1_555
S4 Mo1 1_555 1_555
S5 Mo1 1_555 1_555
N1 C1 1_555 1_555
N2 Cu3 1_555 1_555
N3 Cu1 1_555 1_555
N4 C10 1_555 1_555
N5 Cu2 1_555 1_555
C2 N2 1_555 1_555
C3 N3 1_555 1_555
H1 C3 1_555 1_555
C4 C3 1_555 1_555
H2 C4 1_555 1_555
C5 C4 1_555 1_555
C6 C5 1_555 1_555
H3 C6 1_555 1_555
C7 N3 1_555 1_555
H4 C7 1_555 1_555
C8 C5 1_555 1_555
C9 C8 1_555 1_555
H5 C9 1_555 1_555
C10 C9 1_555 1_555
H6 C10 1_555 1_555
C11 N4 1_555 1_555
H7 C11 1_555 1_555
C12 C8 1_555 1_555
H8 C12 1_555 1_555
C13 N5 1_555 1_555
H9 C13 1_555 1_555
C14 C13 1_555 1_555
H10 C14 1_555 1_555
C15 C14 1_555 1_555
C16 C15 1_555 1_555
H11 C16 1_555 1_555
C17 N5 1_555 1_555
H12 C17 1_555 1_555
C18 Mo1 1_555 1_555
C19 Mo1 1_555 1_555
C20 Mo1 1_555 1_555
C21 Mo1 1_555 1_555
C22 Mo1 1_555 1_555
C23 C18 1_555 1_555
H13 C23 1_555 1_555
H14 C23 1_555 1_555
H15 C23 1_555 1_555
C24 C19 1_555 1_555
H16 C24 1_555 1_555
H17 C24 1_555 1_555
H18 C24 1_555 1_555
C25 C20 1_555 1_555
H19 C25 1_555 1_555
H20 C25 1_555 1_555
H21 C25 1_555 1_555
C26 C21 1_555 1_555
H22 C26 1_555 1_555
H23 C26 1_555 1_555
H24 C26 1_555 1_555
C27 C22 1_555 1_555
H25 C27 1_555 1_555
H26 C27 1_555 1_555
H27 C27 1_555 1_555
O1 C30 1_555 1_555
N6 C28 1_555 1_555
C28 H28 1_555 1_555
H29 C28 1_555 1_555
H30 C28 1_555 1_555
C29 N6 1_555 1_555
H31 C29 1_555 1_555
H32 C29 1_555 1_555
H33 C29 1_555 1_555
C30 N6 1_555 1_555
H34 C30 1_555 1_555
N7 C32 1_555 1_555
C31 H35 1_555 1_555
H36 C31 1_555 1_555
H37 C31 1_555 1_555
C32 C31 1_555 1_555
N5B C13B 1_555 1_555
C13B H9B 1_555 1_555
C14B C13B 1_555 1_555
H10B C14B 1_555 1_555
C15B C15 1_555 1_555
C16B C15B 1_555 1_555
H11B C16B 1_555 1_555
C17B N5B 1_555 1_555
H12B C17B 1_555 1_555
Mo1B S3B 1_555 1_555
Cu1B S1B 1_555 1_555
Cu2B N4 1_555 1_555
Cu3B S3B 1_555 1_555
S1B C1B 1_555 1_555
S2B C2B 1_555 1_555
S3B Cu1B 1_555 1_555
S4B Mo1B 1_555 1_555
S5B Mo1B 1_555 1_555
N1B C1B 1_555 1_555
N2B Cu3B 1_555 1_555
N3B Cu1B 1_555 1_555
N4B Cu2 1_555 1_555
C2B N2B 1_555 1_555
C3B N3B 1_555 1_555
H1B C3B 1_555 1_555
C4B C3B 1_555 1_555
H2B C4B 1_555 1_555
C5B C4B 1_555 1_555
C6B C5B 1_555 1_555
H3B C6B 1_555 1_555
C7B N3B 1_555 1_555
H4B C7B 1_555 1_555
C8B C5B 1_555 1_555
C9B C8B 1_555 1_555
H5B C9B 1_555 1_555
C10B N4B 1_555 1_555
H6B C10B 1_555 1_555
C11B N4B 1_555 1_555
H7B C11B 1_555 1_555
C12B C8B 1_555 1_555
H8B C12B 1_555 1_555
C18B Mo1B 1_555 1_555
C19B Mo1B 1_555 1_555
C20B Mo1B 1_555 1_555
C21B Mo1B 1_555 1_555
C22B Mo1B 1_555 1_555
C23B C18B 1_555 1_555
H13B C23B 1_555 1_555
H14B C23B 1_555 1_555
H15B C23B 1_555 1_555
C24B C19B 1_555 1_555
H16B C24B 1_555 1_555
H17B C24B 1_555 1_555
H18B C24B 1_555 1_555
C25B C20B 1_555 1_555
H19B C25B 1_555 1_555
H20B C25B 1_555 1_555
H21B C25B 1_555 1_555
C26B C21B 1_555 1_555
H22B C26B 1_555 1_555
H23B C26B 1_555 1_555
H24B C26B 1_555 1_555
C27B C22B 1_555 1_555
H25B C27B 1_555 1_555
H26B C27B 1_555 1_555
H27B C27B 1_555 1_555
Cu2B_2 N5B 1_555 1_555
Cu3_2 N1 1_555 1_555
Cu3B_2 N1B 1_555 1_555
N1_2 Cu3 1_555 1_555
N1B_2 Cu3B 1_555 1_555
N5B_2 Cu2B 1_555 1_555
Cu1 S4 1_555 1_555
Cu2 S5 1_555 1_555
Cu3 S5 1_555 1_555
C6 C7 1_555 1_555
C11 C12 1_555 1_555
C16 C17 1_555 1_555
C18 C19 1_555 1_555
C18 C22 1_555 1_555
C19 C20 1_555 1_555
C20 C21 1_555 1_555
C21 C22 1_555 1_555
C14B C15B 1_555 1_555
C16B C17B 1_555 1_555
Cu1B S4B 1_555 1_555
Cu2B S4B 1_555 1_555
Cu2B S5B 1_555 1_555
Cu3B S5B 1_555 1_555
C6B C7B 1_555 1_555
C9B C10B 1_555 1_555
C11B C12B 1_555 1_555
C18B C19B 1_555 1_555
C18B C22B 1_555 1_555
C19B C20B 1_555 1_555
C20B C21B 1_555 1_555
C21B C22B 1_555 1_555

#END
