
#######################################################################
#
#                 Cambridge Crystallographic Data Centre
#                                CCDC 
#
#######################################################################
#
# If this CIF has been generated from an entry in the Cambridge 
# Structural Database, then it will include bibliographic, chemical, 
# crystal, experimental, refinement or atomic coordinate data resulting 
# from the CCDC's data processing and validation procedures.
#
#######################################################################

data_WEZMIZ
_symmetry_cell_setting           triclinic
_symmetry_space_group_name_H-M   'P -1'
_symmetry_Int_Tables_number      2
_space_group_name_Hall           '-P 1'
loop_
_symmetry_equiv_pos_site_id
_symmetry_equiv_pos_as_xyz
1 x,y,z
2 -x,-y,-z
_cell_length_a                   10.783(2)
_cell_length_b                   11.087(2)
_cell_length_c                   19.188(4)
_cell_angle_alpha                83.16(3)
_cell_angle_beta                 74.11(1)
_cell_angle_gamma                75.89(2)
_cell_volume                     2136.36
loop_
_atom_site_label
_atom_site_type_symbol
_atom_site_fract_x
_atom_site_fract_y
_atom_site_fract_z
Mo1 Mo 0.68309(5) 0.65901(5) 0.23437(3)
Cu1 Cu 0.92317(8) 0.64103(7) 0.25455(4)
Cu2 Cu 0.63242(8) 0.58870(8) 0.37696(4)
Cu3 Cu 0.64170(8) 0.89048(7) 0.27846(4)
S1 S 0.5666(2) 1.15600(19) 0.07507(11)
S2 S 0.6970(2) 0.6157(2) 0.47950(10)
S3 S 0.81561(15) 0.79705(14) 0.19355(8)
S4 S 0.80459(16) 0.49667(15) 0.28983(8)
S5 S 0.51427(16) 0.75480(16) 0.32415(9)
N1 N 0.5687(6) 1.0394(5) 0.2120(3)
N2 N 0.4980(6) 0.5260(6) 0.5845(3)
N3 N 0.9973(6) 0.7044(6) 0.3258(3)
N4 N 1.3320(6) 1.0099(5) 0.6477(3)
N5 N 1.0972(5) 0.5800(5) 0.1736(3)
C1 C 0.5700(6) 1.0880(6) 0.1552(4)
C2 C 0.5797(7) 0.5630(6) 0.5409(4)
C3 C 1.0345(8) 0.6361(10) 0.3798(5)
H1 H 1.0183 0.5550 0.3932
C4 C 1.0133(13) 0.8231(9) 0.3162(7)
H2 H 0.9682 0.8768 0.2843
C5 C 1.2573(9) 0.7933(8) 0.4973(5)
H3 H 1.3407 0.7417 0.4695
H4 H 1.2005 0.7368 0.5251
C6 C 1.2878(8) 0.8694(8) 0.5499(4)
C7 C 1.2843(10) 0.8281(7) 0.6176(5)
H5 H 1.2645 0.7491 0.6342
C8 C 1.3090(9) 0.8992(7) 0.6646(4)
H6 H 1.3092 0.8648 0.7124
C9 C 1.106(2) 0.6968(19) 0.4200(12)
H7 H 1.1380 0.6497 0.4587
C10 C 1.127(2) 0.8129(16) 0.4037(11)
C11 C 1.088(2) 0.8759(17) 0.3477(10)
H8 H 1.1103 0.9536 0.3297
C12 C 1.193(2) 0.8728(16) 0.4489(11)
H9 H 1.2578 0.9152 0.4147
H10 H 1.1237 0.9379 0.4773
C13 C 1.364(2) 1.038(2) 0.5778(11)
H11 H 1.4019 1.1079 0.5604
C14 C 1.343(2) 0.968(2) 0.5287(11)
H12 H 1.3676 0.9916 0.4784
C15 C 1.1471(6) 0.6661(6) 0.1266(4)
H13 H 1.1051 0.7511 0.1338
C16 C 1.2548(7) 0.6390(6) 0.0688(4)
H14 H 1.2850 0.7039 0.0366
C17 C 1.3200(6) 0.5141(6) 0.0579(3)
C18 C 1.2710(7) 0.4253(6) 0.1063(4)
H15 H 1.3128 0.3398 0.1012
C19 C 1.1601(6) 0.4609(6) 0.1630(4)
H16 H 1.1272 0.3979 0.1958
C20 C 1.4397(6) 0.4819(7) -0.0060(4)
H17 H 1.4191 0.5264 -0.0508
H18 H 1.4604 0.3914 -0.0126
C21 C 0.5143(7) 0.5937(6) 0.1994(4)
C22 C 0.6311(7) 0.4991(6) 0.1827(4)
C23 C 0.7272(7) 0.5494(7) 0.1297(3)
C24 C 0.6689(8) 0.6742(7) 0.1121(4)
C25 C 0.5389(7) 0.7022(6) 0.1554(4)
C26 C 0.3835(7) 0.5812(8) 0.2502(5)
H19 H 0.3359 0.5424 0.2256
H20 H 0.3307 0.6639 0.2646
H21 H 0.3986 0.5293 0.2934
C27 C 0.6429(8) 0.3654(6) 0.2119(4)
H22 H 0.6127 0.3192 0.1817
H23 H 0.5883 0.3626 0.2619
H24 H 0.7354 0.3277 0.2111
C28 C 0.8633(8) 0.4766(9) 0.0943(4)
H25 H 0.8945 0.4123 0.1291
H26 H 0.9242 0.5330 0.0787
H27 H 0.8596 0.4371 0.0520
C29 C 0.7284(10) 0.7602(9) 0.0519(4)
H28 H 0.6999 0.7547 0.0082
H29 H 0.8250 0.7357 0.0412
H30 H 0.6988 0.8461 0.0671
C30 C 0.4376(9) 0.8218(7) 0.1523(5)
H31 H 0.4825 0.8897 0.1315
H32 H 0.3833 0.8407 0.2014
H33 H 0.3811 0.8129 0.1218
N5A N 1.9028(5) 0.4200(5) -0.1736(3)
C15A C 1.8529(6) 0.3339(6) -0.1266(4)
H13A H 1.8949 0.2489 -0.1338
C16A C 1.7452(7) 0.3610(6) -0.0688(4)
H14A H 1.7150 0.2961 -0.0366
C17A C 1.6800(6) 0.4859(6) -0.0579(3)
C18A C 1.7290(7) 0.5747(6) -0.1063(4)
H15A H 1.6872 0.6602 -0.1012
C19A C 1.8399(6) 0.5391(6) -0.1630(4)
H16A H 1.8728 0.6021 -0.1958
C20A C 1.5603(6) 0.5181(7) 0.0060(4)
H17A H 1.5809 0.4736 0.0508
H18A H 1.5396 0.6086 0.0126
Mo1A Mo 0.31691(5) 0.34099(5) 0.76563(3)
Cu1A Cu 0.07683(8) 0.35897(7) 0.74545(4)
Cu2A Cu 0.36758(8) 0.41130(8) 0.62304(4)
Cu3A Cu 0.35830(8) 0.10952(7) 0.72154(4)
S1A S 0.4334(2) -0.15600(19) 0.92493(11)
S2A S 0.3030(2) 0.3843(2) 0.52050(10)
S3A S 0.18439(15) 0.20295(14) 0.80645(8)
S4A S 0.19541(16) 0.50333(15) 0.71017(8)
S5A S 0.48573(16) 0.24520(16) 0.67585(9)
N1A N 0.4313(6) -0.0394(5) 0.7880(3)
N2A N 0.5020(6) 0.4740(6) 0.4155(3)
N3A N 0.0027(6) 0.2956(6) 0.6742(3)
N4A N -0.3320(6) -0.0099(5) 0.3523(3)
C1A C 0.4300(6) -0.0880(6) 0.8448(4)
C2A C 0.4203(7) 0.4370(6) 0.4591(4)
C3A C -0.0345(8) 0.3639(10) 0.6202(5)
H1A H -0.0183 0.4450 0.6068
C4A C -0.0133(13) 0.1769(9) 0.6838(7)
H2A H 0.0318 0.1232 0.7157
C5A C -0.2573(9) 0.2067(8) 0.5027(5)
H3A H -0.3407 0.2583 0.5305
H4A H -0.2005 0.2632 0.4749
C6A C -0.2878(8) 0.1306(8) 0.4501(4)
C7A C -0.2843(10) 0.1719(7) 0.3824(5)
H5A H -0.2645 0.2509 0.3658
C8A C -0.3090(9) 0.1008(7) 0.3354(4)
H6A H -0.3092 0.1352 0.2876
C9A C -0.106(2) 0.3032(19) 0.5800(12)
H7A H -0.1380 0.3503 0.5413
C10A C -0.127(2) 0.1871(16) 0.5963(11)
C11A C -0.088(2) 0.1241(17) 0.6523(10)
H8A H -0.1103 0.0464 0.6703
C12A C -0.193(2) 0.1272(16) 0.5511(11)
H9A H -0.2578 0.0848 0.5853
H10A H -0.1237 0.0621 0.5227
C13A C -0.364(2) -0.038(2) 0.4222(11)
H11A H -0.4019 -0.1079 0.4396
C14A C -0.343(2) 0.032(2) 0.4713(11)
H12A H -0.3676 0.0084 0.5216
C21A C 0.4857(7) 0.4063(6) 0.8006(4)
C22A C 0.3689(7) 0.5009(6) 0.8173(4)
C23A C 0.2728(7) 0.4506(7) 0.8703(3)
C24A C 0.3311(8) 0.3258(7) 0.8879(4)
C25A C 0.4611(7) 0.2978(6) 0.8446(4)
C26A C 0.6165(7) 0.4188(8) 0.7498(5)
H19A H 0.6641 0.4576 0.7744
H20A H 0.6693 0.3361 0.7354
H21A H 0.6014 0.4707 0.7066
C27A C 0.3571(8) 0.6346(6) 0.7881(4)
H22A H 0.3873 0.6808 0.8183
H23A H 0.4117 0.6374 0.7381
H24A H 0.2646 0.6723 0.7889
C28A C 0.1367(8) 0.5234(9) 0.9057(4)
H25A H 0.1055 0.5877 0.8709
H26A H 0.0758 0.4670 0.9213
H27A H 0.1404 0.5629 0.9480
C29A C 0.2716(10) 0.2398(9) 0.9481(4)
H28A H 0.3001 0.2453 0.9918
H29A H 0.1750 0.2643 0.9588
H30A H 0.3012 0.1539 0.9329
C30A C 0.5624(9) 0.1782(7) 0.8477(5)
H31A H 0.5175 0.1103 0.8685
H32A H 0.6167 0.1593 0.7986
H33A H 0.6189 0.1871 0.8782
Cu1A_2 Cu 2.07683(8) 0.35897(7) -0.25455(4)
Cu3_2 Cu -0.35830(8) -0.10952(7) 0.27846(4)
Cu3A_2 Cu 1.35830(8) 1.10952(7) 0.72154(4)
N4_2 N 0.3320(6) 0.0099(5) 0.6477(3)
N4A_2 N 0.6680(6) 0.9901(5) 0.3523(3)
N5A_2 N -0.0972(5) 0.4200(5) 0.8264(3)
O1 O 0.970(2) 0.831(2) 0.5959(12)
N6 N 0.789(2) 0.786(2) 0.6525(12)
C31 C 0.737(3) 0.913(2) 0.6738(19)
C32 C 0.673(3) 0.737(3) 0.6761(18)
C33 C 0.910(2) 0.749(3) 0.6190(15)
N7 N 1.1213(8) 1.1441(7) 0.1847(4)
C34 C 0.9486(9) 1.0865(8) 0.1486(5)
H34 H 0.8571 1.0874 0.1583
C35 C 0.9924(9) 1.1422(9) 0.1930(6)
H35 H 0.9289 1.1829 0.2328
C36 C 1.2049(9) 1.0867(7) 0.1282(5)
H36 H 1.2957 1.0871 0.1205
C37 C 1.1715(9) 1.0258(7) 0.0790(5)
H37 H 1.2379 0.9844 0.0404
C38 C 1.0390(8) 1.0267(7) 0.0876(5)
C39 C 0.9973(11) 0.9655(8) 0.0358(5)
H38 H 1.0548 0.8812 0.0282
H39 H 0.9057 0.9556 0.0578
N7A N 0.8787(8) 0.8559(7) -0.1847(4)
C34A C 1.0514(9) 0.9135(8) -0.1486(5)
H34A H 1.1429 0.9126 -0.1583
C35A C 1.0076(9) 0.8578(9) -0.1930(6)
H35A H 1.0711 0.8171 -0.2328
C36A C 0.7951(9) 0.9133(7) -0.1282(5)
H36A H 0.7043 0.9129 -0.1205
C37A C 0.8285(9) 0.9742(7) -0.0790(5)
H37A H 0.7621 1.0156 -0.0404
C38A C 0.9610(8) 0.9733(7) -0.0876(5)
C39A C 1.0027(11) 1.0345(8) -0.0358(5)
H38A H 0.9452 1.1188 -0.0282
H39A H 1.0943 1.0444 -0.0578
H40? H 1.0385 0.5502 0.3771
H41? H 1.0151 0.8747 0.2729
H42? H 1.2741 0.7039 0.5133
H43? H 1.3153 0.8028 0.4480
C40? C 1.068(3) 0.659(3) 0.4374(16)
H44? H 1.0885 0.5979 0.4740
C41? C 1.068(3) 0.786(3) 0.4376(15)
C42? C 1.028(3) 0.859(3) 0.3853(16)
H45? H 1.0047 0.9456 0.3926
C43? C 1.108(2) 0.841(3) 0.4955(16)
H46? H 1.0511 0.8218 0.5437
H47? H 1.0892 0.9331 0.4872
C44? C 1.287(3) 1.071(3) 0.5882(15)
H48? H 1.2703 1.1590 0.5832
C45? C 1.267(3) 1.007(3) 0.5365(17)
H49? H 1.2420 1.0478 0.4946
loop_
_geom_bond_atom_site_label_1
_geom_bond_atom_site_label_2
_geom_bond_site_symmetry_1
_geom_bond_site_symmetry_2
Mo1 S3 1_555 1_555
Cu1 S3 1_555 1_555
Cu2 S2 1_555 1_555
Cu3 S3 1_555 1_555
S1 C1 1_555 1_555
S2 C2 1_555 1_555
S4 Mo1 1_555 1_555
S5 Mo1 1_555 1_555
N1 Cu3 1_555 1_555
N2 C2 1_555 1_555
N3 Cu1 1_555 1_555
N4 C8 1_555 1_555
N5 Cu1 1_555 1_555
C1 N1 1_555 1_555
C3 N3 1_555 1_555
H1 C3 1_555 1_555
C4 N3 1_555 1_555
H2 C4 1_555 1_555
C5 H3 1_555 1_555
H4 C5 1_555 1_555
C6 C5 1_555 1_555
C7 C6 1_555 1_555
H5 C7 1_555 1_555
C8 C7 1_555 1_555
H6 C8 1_555 1_555
C9 C3 1_555 1_555
H7 C9 1_555 1_555
C10 C9 1_555 1_555
C11 C4 1_555 1_555
H8 C11 1_555 1_555
C12 C5 1_555 1_555
H9 C12 1_555 1_555
H10 C12 1_555 1_555
C13 N4 1_555 1_555
H11 C13 1_555 1_555
C14 C6 1_555 1_555
H12 C14 1_555 1_555
C15 N5 1_555 1_555
H13 C15 1_555 1_555
C16 C15 1_555 1_555
H14 C16 1_555 1_555
C17 C16 1_555 1_555
C18 C17 1_555 1_555
H15 C18 1_555 1_555
C19 N5 1_555 1_555
H16 C19 1_555 1_555
C20 C17 1_555 1_555
H17 C20 1_555 1_555
H18 C20 1_555 1_555
C21 Mo1 1_555 1_555
C22 Mo1 1_555 1_555
C23 Mo1 1_555 1_555
C24 Mo1 1_555 1_555
C25 Mo1 1_555 1_555
C26 C21 1_555 1_555
H19 C26 1_555 1_555
H20 C26 1_555 1_555
H21 C26 1_555 1_555
C27 C22 1_555 1_555
H22 C27 1_555 1_555
H23 C27 1_555 1_555
H24 C27 1_555 1_555
C28 C23 1_555 1_555
H25 C28 1_555 1_555
H26 C28 1_555 1_555
H27 C28 1_555 1_555
C29 C24 1_555 1_555
H28 C29 1_555 1_555
H29 C29 1_555 1_555
H30 C29 1_555 1_555
C30 C25 1_555 1_555
H31 C30 1_555 1_555
H32 C30 1_555 1_555
H33 C30 1_555 1_555
O1 C33 1_555 1_555
N6 C31 1_555 1_555
C32 N6 1_555 1_555
C33 N6 1_555 1_555
N7 C35 1_555 1_555
C34 H34 1_555 1_555
C35 C34 1_555 1_555
H35 C35 1_555 1_555
C36 N7 1_555 1_555
H36 C36 1_555 1_555
C37 C36 1_555 1_555
H37 C37 1_555 1_555
C38 C34 1_555 1_555
C39 C38 1_555 1_555
H38 C39 1_555 1_555
H39 C39 1_555 1_555
N5A C15A 1_555 1_555
C15A H13A 1_555 1_555
C16A C15A 1_555 1_555
H14A C16A 1_555 1_555
C17A C16A 1_555 1_555
C18A C17A 1_555 1_555
H15A C18A 1_555 1_555
C19A N5A 1_555 1_555
H16A C19A 1_555 1_555
C20A C20 1_555 1_555
H17A C20A 1_555 1_555
H18A C20A 1_555 1_555
Mo1A S3A 1_555 1_555
Cu1A S3A 1_555 1_555
Cu2A N2 1_555 1_555
Cu3A S3A 1_555 1_555
S1A C1A 1_555 1_555
S2A Cu2A 1_555 1_555
S4A Mo1A 1_555 1_555
S5A Mo1A 1_555 1_555
N1A Cu3A 1_555 1_555
N2A Cu2 1_555 1_555
N3A Cu1A 1_555 1_555
N4A C8A 1_555 1_555
C1A N1A 1_555 1_555
C2A S2A 1_555 1_555
C3A N3A 1_555 1_555
H1A C3A 1_555 1_555
C4A N3A 1_555 1_555
H2A C4A 1_555 1_555
C5A H3A 1_555 1_555
H4A C5A 1_555 1_555
C6A C5A 1_555 1_555
C7A C6A 1_555 1_555
H5A C7A 1_555 1_555
C8A C7A 1_555 1_555
H6A C8A 1_555 1_555
C9A C3A 1_555 1_555
H7A C9A 1_555 1_555
C10A C9A 1_555 1_555
C11A C4A 1_555 1_555
H8A C11A 1_555 1_555
C12A C5A 1_555 1_555
H9A C12A 1_555 1_555
H10A C12A 1_555 1_555
C13A N4A 1_555 1_555
H11A C13A 1_555 1_555
C14A C6A 1_555 1_555
H12A C14A 1_555 1_555
C21A Mo1A 1_555 1_555
C22A Mo1A 1_555 1_555
C23A Mo1A 1_555 1_555
C24A Mo1A 1_555 1_555
C25A Mo1A 1_555 1_555
C26A C21A 1_555 1_555
H19A C26A 1_555 1_555
H20A C26A 1_555 1_555
H21A C26A 1_555 1_555
C27A C22A 1_555 1_555
H22A C27A 1_555 1_555
H23A C27A 1_555 1_555
H24A C27A 1_555 1_555
C28A C23A 1_555 1_555
H25A C28A 1_555 1_555
H26A C28A 1_555 1_555
H27A C28A 1_555 1_555
C29A C24A 1_555 1_555
H28A C29A 1_555 1_555
H29A C29A 1_555 1_555
H30A C29A 1_555 1_555
C30A C25A 1_555 1_555
H31A C30A 1_555 1_555
H32A C30A 1_555 1_555
H33A C30A 1_555 1_555
Cu1A_2 N5A 1_555 1_555
Cu3_2 N4A 1_555 1_555
Cu3A_2 N4 1_555 1_555
N4_2 Cu3A 1_555 1_555
N4A_2 Cu3 1_555 1_555
N5A_2 Cu1A 1_555 1_555
N7A C35A 1_555 1_555
C34A H34A 1_555 1_555
C35A C34A 1_555 1_555
H35A C35A 1_555 1_555
C36A N7A 1_555 1_555
H36A C36A 1_555 1_555
C37A C36A 1_555 1_555
H37A C37A 1_555 1_555
C38A C34A 1_555 1_555
C39A C39 1_555 1_555
H38A C39A 1_555 1_555
H39A C39A 1_555 1_555
Cu1 S4 1_555 1_555
Cu2 S4 1_555 1_555
Cu2 S5 1_555 1_555
Cu3 S5 1_555 1_555
C10 C11 1_555 1_555
C10 C12 1_555 1_555
C13 C14 1_555 1_555
C18 C19 1_555 1_555
C21 C22 1_555 1_555
C21 C25 1_555 1_555
C22 C23 1_555 1_555
C23 C24 1_555 1_555
C24 C25 1_555 1_555
C37 C38 1_555 1_555
C17A C20A 1_555 1_555
C18A C19A 1_555 1_555
Cu1A S4A 1_555 1_555
Cu2A S4A 1_555 1_555
Cu2A S5A 1_555 1_555
Cu3A S5A 1_555 1_555
N2A C2A 1_555 1_555
C10A C11A 1_555 1_555
C10A C12A 1_555 1_555
C13A C14A 1_555 1_555
C21A C22A 1_555 1_555
C21A C25A 1_555 1_555
C22A C23A 1_555 1_555
C23A C24A 1_555 1_555
C24A C25A 1_555 1_555
C37A C38A 1_555 1_555
C38A C39A 1_555 1_555

#END
