
#######################################################################
#
#                 Cambridge Crystallographic Data Centre
#                                CCDC 
#
#######################################################################
#
# If this CIF has been generated from an entry in the Cambridge 
# Structural Database, then it will include bibliographic, chemical, 
# crystal, experimental, refinement or atomic coordinate data resulting 
# from the CCDC's data processing and validation procedures.
#
#######################################################################

data_WEZMOF
_symmetry_cell_setting           triclinic
_symmetry_space_group_name_H-M   'P -1'
_symmetry_Int_Tables_number      2
_space_group_name_Hall           '-P 1'
loop_
_symmetry_equiv_pos_site_id
_symmetry_equiv_pos_as_xyz
1 x,y,z
2 -x,-y,-z
_cell_length_a                   11.181(2)
_cell_length_b                   12.017(2)
_cell_length_c                   17.674(4)
_cell_angle_alpha                96.85(4)
_cell_angle_beta                 94.19(5)
_cell_angle_gamma                95.43(5)
_cell_volume                     2338.62
loop_
_atom_site_label
_atom_site_type_symbol
_atom_site_fract_x
_atom_site_fract_y
_atom_site_fract_z
Mo1 Mo 0.63728(4) -0.15586(4) -0.23941(3)
Cu1 Cu 0.60505(7) -0.36660(6) -0.31620(4)
Cu2 Cu 0.39777(6) -0.19250(7) -0.24204(4)
Cu3 Cu 0.57250(7) -0.09305(7) -0.37581(4)
S1 S 0.70790(13) -0.21418(13) -0.35383(9)
S2 S 0.52667(13) -0.30987(13) -0.20561(9)
S3 S 0.50000(13) -0.03377(13) -0.26498(9)
S4 S 0.88599(19) -0.63477(17) -0.28195(13)
S5 S 0.67719(16) 0.10642(16) -0.39684(10)
N1 N 0.7163(5) -0.4869(5) -0.2956(3)
N2 N 0.5318(5) 0.1178(4) -0.5305(3)
N3 N 0.4701(4) -0.4414(4) -0.3946(3)
N4 N -0.2564(4) -0.7440(4) -0.6807(3)
N5 N 0.2917(5) -0.1387(4) -0.1549(3)
C1 C 0.7814(6) -0.5443(6) -0.2900(3)
C2 C 0.5912(6) 0.1140(5) -0.4754(4)
C3 C 0.4026(6) -0.5362(6) -0.3863(4)
H1 H 0.4280 -0.5774 -0.3465
C4 C 0.2995(6) -0.5782(6) -0.4311(4)
H2 H 0.2562 -0.6466 -0.4221
C5 C 0.2584(6) -0.5206(6) -0.4899(4)
C6 C 0.3280(6) -0.4250(6) -0.4993(4)
H3 H 0.3046 -0.3830 -0.5392
C7 C 0.4322(6) -0.3871(5) -0.4525(4)
H4 H 0.4785 -0.3204 -0.4617
C8 C 0.1447(6) -0.5537(6) -0.5380(4)
H5 H 0.1263 -0.5071 -0.5762
C9 C 0.0670(6) -0.6393(6) -0.5341(4)
H6 H 0.0832 -0.6853 -0.4952
C10 C -0.0446(6) -0.6717(6) -0.5849(4)
C11 C -0.1184(6) -0.7652(6) -0.5747(4)
H7 H -0.0987 -0.8070 -0.5339
C12 C -0.2219(6) -0.7995(6) -0.6234(4)
H8 H -0.2704 -0.8657 -0.6154
C13 C -0.1881(6) -0.6503(6) -0.6885(4)
H9 H -0.2130 -0.6076 -0.7276
C14 C -0.0822(6) -0.6106(6) -0.6429(4)
H10 H -0.0364 -0.5431 -0.6512
C15 C 0.2586(5) -0.2016(5) -0.1003(4)
H11 H 0.2930 -0.2704 -0.0970
C16 C 0.1768(5) -0.1705(5) -0.0487(4)
H12 H 0.1587 -0.2164 -0.0100
C17 C 0.1213(5) -0.0731(5) -0.0529(3)
C18 C 0.1568(5) -0.0072(5) -0.1094(3)
H13 H 0.1242 0.0621 -0.1139
C19 C 0.2387(6) -0.0434(6) -0.1578(4)
H14 H 0.2597 0.0019 -0.1962
C20 C 0.0326(5) -0.0436(5) 0.0015(4)
H15 H 0.0208 -0.0893 0.0412
C21 C 0.7621(5) -0.1729(5) -0.1268(3)
C22 C 0.6976(5) -0.0772(5) -0.1125(3)
C23 C 0.7399(6) 0.0034(5) -0.1604(4)
C24 C 0.8268(5) -0.0447(5) -0.2055(3)
C25 C 0.8401(5) -0.1536(5) -0.1844(3)
C26 C 0.7589(6) -0.2722(6) -0.0835(4)
H16 H 0.7749 -0.3389 -0.1173
H17 H 0.6792 -0.2853 -0.0646
H18 H 0.8206 -0.2576 -0.0401
C27 C 0.6043(6) -0.0618(6) -0.0555(4)
H19 H 0.5522 -0.1325 -0.0569
H20 H 0.5552 -0.0023 -0.0685
H21 H 0.6448 -0.0407 -0.0040
C28 C 0.7091(6) 0.1232(5) -0.1578(4)
H22 H 0.7766 0.1745 -0.1312
H23 H 0.6368 0.1316 -0.1303
H24 H 0.6939 0.1412 -0.2100
C29 C 0.8986(6) 0.0149(6) -0.2599(4)
H25 H 0.8550 0.0758 -0.2768
H26 H 0.9106 -0.0386 -0.3043
H27 H 0.9772 0.0466 -0.2341
C30 C 0.9267(6) -0.2311(6) -0.2167(4)
H28 H 0.9997 -0.2245 -0.1815
H29 H 0.9482 -0.2105 -0.2663
H30 H 0.8889 -0.3090 -0.2232
N5A N -0.2917(5) 0.1387(4) 0.1549(3)
C15A C -0.2586(5) 0.2016(5) 0.1003(4)
H11A H -0.2930 0.2704 0.0970
C16A C -0.1768(5) 0.1705(5) 0.0487(4)
H12A H -0.1587 0.2164 0.0100
C17A C -0.1213(5) 0.0731(5) 0.0529(3)
C18A C -0.1568(5) 0.0072(5) 0.1094(3)
H13A H -0.1242 -0.0621 0.1139
C19A C -0.2387(6) 0.0434(6) 0.1578(4)
H14A H -0.2597 -0.0019 0.1962
C20A C -0.0326(5) 0.0436(5) -0.0015(4)
H15A H -0.0208 0.0893 -0.0412
Mo1A Mo -0.63728(4) -0.84414(4) -0.76059(3)
Cu1A Cu -0.60505(7) -0.63340(6) -0.68380(4)
Cu2A Cu -0.39777(6) -0.80750(7) -0.75796(4)
Cu3A Cu -0.57250(7) -0.90695(7) -0.62419(4)
S1A S -0.70790(13) -0.78582(13) -0.64617(9)
S2A S -0.52667(13) -0.69013(13) -0.79439(9)
S3A S -0.50000(13) -0.96623(13) -0.73502(9)
S4A S -0.88599(19) -0.36523(17) -0.71805(13)
S5A S -0.67719(16) -1.10642(16) -0.60316(10)
N1A N -0.7163(5) -0.5131(5) -0.7044(3)
N2A N -0.5318(5) -1.1178(4) -0.4695(3)
N3A N -0.4701(4) -0.5586(4) -0.6054(3)
N4A N 0.2564(4) -0.2560(4) -0.3193(3)
C1A C -0.7814(6) -0.4557(6) -0.7100(3)
C2A C -0.5912(6) -1.1140(5) -0.5246(4)
C3A C -0.4026(6) -0.4638(6) -0.6137(4)
H1A H -0.4280 -0.4226 -0.6535
C4A C -0.2995(6) -0.4218(6) -0.5689(4)
H2A H -0.2562 -0.3534 -0.5779
C5A C -0.2584(6) -0.4794(6) -0.5101(4)
C6A C -0.3280(6) -0.5750(6) -0.5007(4)
H3A H -0.3046 -0.6170 -0.4608
C7A C -0.4322(6) -0.6129(5) -0.5475(4)
H4A H -0.4785 -0.6796 -0.5383
C8A C -0.1447(6) -0.4463(6) -0.4620(4)
H5A H -0.1263 -0.4929 -0.4238
C9A C -0.0670(6) -0.3607(6) -0.4659(4)
H6A H -0.0832 -0.3147 -0.5048
C10A C 0.0446(6) -0.3283(6) -0.4151(4)
C11A C 0.1184(6) -0.2348(6) -0.4253(4)
H7A H 0.0987 -0.1930 -0.4661
C12A C 0.2219(6) -0.2005(6) -0.3766(4)
H8A H 0.2704 -0.1343 -0.3846
C13A C 0.1881(6) -0.3497(6) -0.3115(4)
H9A H 0.2130 -0.3924 -0.2724
C14A C 0.0822(6) -0.3894(6) -0.3571(4)
H10A H 0.0364 -0.4569 -0.3488
C21A C -0.7621(5) -0.8271(5) -0.8732(3)
C22A C -0.6976(5) -0.9228(5) -0.8875(3)
C23A C -0.7399(6) -1.0034(5) -0.8396(4)
C24A C -0.8268(5) -0.9553(5) -0.7945(3)
C25A C -0.8401(5) -0.8464(5) -0.8156(3)
C26A C -0.7589(6) -0.7278(6) -0.9165(4)
H16A H -0.7749 -0.6611 -0.8827
H17A H -0.6792 -0.7147 -0.9354
H18A H -0.8206 -0.7424 -0.9599
C27A C -0.6043(6) -0.9382(6) -0.9445(4)
H19A H -0.5522 -0.8675 -0.9431
H20A H -0.5552 -0.9977 -0.9315
H21A H -0.6448 -0.9593 -0.9960
C28A C -0.7091(6) -1.1232(5) -0.8422(4)
H22A H -0.7766 -1.1745 -0.8688
H23A H -0.6368 -1.1316 -0.8697
H24A H -0.6939 -1.1412 -0.7900
C29A C -0.8986(6) -1.0149(6) -0.7401(4)
H25A H -0.8550 -1.0758 -0.7232
H26A H -0.9106 -0.9614 -0.6957
H27A H -0.9772 -1.0466 -0.7659
C30A C -0.9267(6) -0.7689(6) -0.7833(4)
H28A H -0.9997 -0.7755 -0.8185
H29A H -0.9482 -0.7895 -0.7337
H30A H -0.8889 -0.6910 -0.7768
Cu2A_2 Cu -0.39777(6) 0.19250(7) 0.24204(4)
Cu3_2 Cu -0.42750(7) -1.09305(7) -0.37581(4)
Cu3A_2 Cu 0.42750(7) 0.09305(7) -0.62419(4)
N2_2 N -0.4682(5) -0.8822(4) -0.5305(3)
N2A_2 N 0.4682(5) -0.1178(4) -0.4695(3)
N5A_2 N -0.2917(5) -0.8613(4) -0.8451(3)
O1 O 0.7347(5) 0.3989(5) -0.0306(3)
N6 N 0.5633(5) 0.3691(5) -0.1094(3)
C31 C 0.4888(8) 0.3370(11) -0.0497(6)
H31 H 0.5402 0.3342 -0.0027
H32 H 0.4448 0.2626 -0.0663
H33 H 0.4312 0.3925 -0.0398
C32 C 0.5079(7) 0.3655(8) -0.1870(5)
H34 H 0.5704 0.3826 -0.2212
H35 H 0.4496 0.4214 -0.1878
H36 H 0.4665 0.2902 -0.2041
C33 C 0.6796(7) 0.3976(6) -0.0931(5)
H37 H 0.7248 0.4191 -0.1334
O2 O -0.0459(5) -0.2344(4) 0.1123(3)
N7 N -0.0758(5) -0.4239(5) 0.1098(3)
C34 C -0.1914(7) -0.4243(7) 0.1382(5)
H38 H -0.1848 -0.4359 0.1923
H39 H -0.2462 -0.4854 0.1090
H40 H -0.2230 -0.3520 0.1331
C35 C -0.0229(7) -0.5301(6) 0.1013(5)
H41 H 0.0523 -0.5206 0.0764
H42 H -0.0794 -0.5877 0.0699
H43 H -0.0058 -0.5538 0.1518
C36 C -0.0138(7) -0.3279(6) 0.1016(4)
H44 H 0.0649 -0.3326 0.0855
N8 N 1.2636(6) 0.2068(5) -0.3013(4)
C37 C 1.1451(7) 0.2034(6) -0.3115(4)
H45 H 1.1065 0.2438 -0.2724
C38 C 1.0717(7) 0.1476(6) -0.3729(4)
H46 H 0.9866 0.1486 -0.3750
C39 C 1.1265(6) 0.0890(6) -0.4321(4)
C40 C 1.2507(6) 0.0949(6) -0.4241(4)
H47 H 1.2920 0.0581 -0.4633
C41 C 1.3153(7) 0.1534(6) -0.3602(5)
H48 H 1.4008 0.1564 -0.3572
C42 C 1.0579(6) 0.0193(6) -0.4979(4)
H49 H 1.1004 0.0000 -0.5415
N8A N 0.7364(6) -0.2068(5) -0.6987(4)
C37A C 0.8549(7) -0.2034(6) -0.6885(4)
H45A H 0.8935 -0.2438 -0.7276
C38A C 0.9283(7) -0.1476(6) -0.6271(4)
H46A H 1.0134 -0.1486 -0.6250
C39A C 0.8735(6) -0.0890(6) -0.5679(4)
C40A C 0.7493(6) -0.0949(6) -0.5759(4)
H47A H 0.7080 -0.0581 -0.5367
C41A C 0.6847(7) -0.1534(6) -0.6398(5)
H48A H 0.5992 -0.1564 -0.6428
C42A C 0.9421(6) -0.0193(6) -0.5021(4)
H49A H 0.8996 0.0000 -0.4585
loop_
_geom_bond_atom_site_label_1
_geom_bond_atom_site_label_2
_geom_bond_site_symmetry_1
_geom_bond_site_symmetry_2
Mo1 S1 1_555 1_555
Cu1 S1 1_555 1_555
Cu2 S2 1_555 1_555
Cu3 S1 1_555 1_555
S2 Mo1 1_555 1_555
S3 Mo1 1_555 1_555
S4 C1 1_555 1_555
S5 Cu3 1_555 1_555
N1 Cu1 1_555 1_555
N2 C2 1_555 1_555
N3 Cu1 1_555 1_555
N4 C12 1_555 1_555
N5 Cu2 1_555 1_555
C1 N1 1_555 1_555
C2 S5 1_555 1_555
C3 N3 1_555 1_555
H1 C3 1_555 1_555
C4 C3 1_555 1_555
H2 C4 1_555 1_555
C5 C4 1_555 1_555
C6 C5 1_555 1_555
H3 C6 1_555 1_555
C7 N3 1_555 1_555
H4 C7 1_555 1_555
C8 C5 1_555 1_555
H5 C8 1_555 1_555
C9 C8 1_555 1_555
H6 C9 1_555 1_555
C10 C9 1_555 1_555
C11 C10 1_555 1_555
H7 C11 1_555 1_555
C12 C11 1_555 1_555
H8 C12 1_555 1_555
C13 N4 1_555 1_555
H9 C13 1_555 1_555
C14 C10 1_555 1_555
H10 C14 1_555 1_555
C15 N5 1_555 1_555
H11 C15 1_555 1_555
C16 C15 1_555 1_555
H12 C16 1_555 1_555
C17 C16 1_555 1_555
C18 C17 1_555 1_555
H13 C18 1_555 1_555
C19 N5 1_555 1_555
H14 C19 1_555 1_555
C20 C17 1_555 1_555
H15 C20 1_555 1_555
C21 Mo1 1_555 1_555
C22 Mo1 1_555 1_555
C23 Mo1 1_555 1_555
C24 Mo1 1_555 1_555
C25 Mo1 1_555 1_555
C26 C21 1_555 1_555
H16 C26 1_555 1_555
H17 C26 1_555 1_555
H18 C26 1_555 1_555
C27 C22 1_555 1_555
H19 C27 1_555 1_555
H20 C27 1_555 1_555
H21 C27 1_555 1_555
C28 C23 1_555 1_555
H22 C28 1_555 1_555
H23 C28 1_555 1_555
H24 C28 1_555 1_555
C29 C24 1_555 1_555
H25 C29 1_555 1_555
H26 C29 1_555 1_555
H27 C29 1_555 1_555
C30 C25 1_555 1_555
H28 C30 1_555 1_555
H29 C30 1_555 1_555
H30 C30 1_555 1_555
O1 C33 1_555 1_555
N6 C31 1_555 1_555
C31 H31 1_555 1_555
H32 C31 1_555 1_555
H33 C31 1_555 1_555
C32 N6 1_555 1_555
H34 C32 1_555 1_555
H35 C32 1_555 1_555
H36 C32 1_555 1_555
C33 N6 1_555 1_555
H37 C33 1_555 1_555
O2 C36 1_555 1_555
N7 C34 1_555 1_555
C34 H38 1_555 1_555
H39 C34 1_555 1_555
H40 C34 1_555 1_555
C35 N7 1_555 1_555
H41 C35 1_555 1_555
H42 C35 1_555 1_555
H43 C35 1_555 1_555
C36 N7 1_555 1_555
H44 C36 1_555 1_555
N8 C37 1_555 1_555
C37 H45 1_555 1_555
C38 C37 1_555 1_555
H46 C38 1_555 1_555
C39 C38 1_555 1_555
C40 C39 1_555 1_555
H47 C40 1_555 1_555
C41 N8 1_555 1_555
H48 C41 1_555 1_555
C42 C39 1_555 1_555
H49 C42 1_555 1_555
N5A C15A 1_555 1_555
C15A H11A 1_555 1_555
C16A C15A 1_555 1_555
H12A C16A 1_555 1_555
C17A C16A 1_555 1_555
C18A C17A 1_555 1_555
H13A C18A 1_555 1_555
C19A N5A 1_555 1_555
H14A C19A 1_555 1_555
C20A C20 1_555 1_555
H15A C20A 1_555 1_555
Mo1A S1A 1_555 1_555
Cu1A S1A 1_555 1_555
Cu2A N4 1_555 1_555
Cu3A S1A 1_555 1_555
S2A Mo1A 1_555 1_555
S3A Mo1A 1_555 1_555
S4A C1A 1_555 1_555
S5A Cu3A 1_555 1_555
N1A Cu1A 1_555 1_555
N2A C2A 1_555 1_555
N3A Cu1A 1_555 1_555
N4A Cu2 1_555 1_555
C1A N1A 1_555 1_555
C2A S5A 1_555 1_555
C3A N3A 1_555 1_555
H1A C3A 1_555 1_555
C4A C3A 1_555 1_555
H2A C4A 1_555 1_555
C5A C4A 1_555 1_555
C6A C5A 1_555 1_555
H3A C6A 1_555 1_555
C7A N3A 1_555 1_555
H4A C7A 1_555 1_555
C8A C5A 1_555 1_555
H5A C8A 1_555 1_555
C9A C8A 1_555 1_555
H6A C9A 1_555 1_555
C10A C9A 1_555 1_555
C11A C10A 1_555 1_555
H7A C11A 1_555 1_555
C12A N4A 1_555 1_555
H8A C12A 1_555 1_555
C13A N4A 1_555 1_555
H9A C13A 1_555 1_555
C14A C10A 1_555 1_555
H10A C14A 1_555 1_555
C21A Mo1A 1_555 1_555
C22A Mo1A 1_555 1_555
C23A Mo1A 1_555 1_555
C24A Mo1A 1_555 1_555
C25A Mo1A 1_555 1_555
C26A C21A 1_555 1_555
H16A C26A 1_555 1_555
H17A C26A 1_555 1_555
H18A C26A 1_555 1_555
C27A C22A 1_555 1_555
H19A C27A 1_555 1_555
H20A C27A 1_555 1_555
H21A C27A 1_555 1_555
C28A C23A 1_555 1_555
H22A C28A 1_555 1_555
H23A C28A 1_555 1_555
H24A C28A 1_555 1_555
C29A C24A 1_555 1_555
H25A C29A 1_555 1_555
H26A C29A 1_555 1_555
H27A C29A 1_555 1_555
C30A C25A 1_555 1_555
H28A C30A 1_555 1_555
H29A C30A 1_555 1_555
H30A C30A 1_555 1_555
Cu2A_2 N5A 1_555 1_555
Cu3_2 N2A 1_555 1_555
Cu3A_2 N2 1_555 1_555
N2_2 Cu3A 1_555 1_555
N2A_2 Cu3 1_555 1_555
N5A_2 Cu2A 1_555 1_555
N8A C37A 1_555 1_555
C37A H45A 1_555 1_555
C38A C37A 1_555 1_555
H46A C38A 1_555 1_555
C39A C38A 1_555 1_555
C40A C39A 1_555 1_555
H47A C40A 1_555 1_555
C41A N8A 1_555 1_555
H48A C41A 1_555 1_555
C42A C42 1_555 1_555
H49A C42A 1_555 1_555
Cu1 S2 1_555 1_555
Cu2 S3 1_555 1_555
Cu3 S3 1_555 1_555
C6 C7 1_555 1_555
C13 C14 1_555 1_555
C18 C19 1_555 1_555
C21 C22 1_555 1_555
C21 C25 1_555 1_555
C22 C23 1_555 1_555
C23 C24 1_555 1_555
C24 C25 1_555 1_555
C40 C41 1_555 1_555
C17A C20A 1_555 1_555
C18A C19A 1_555 1_555
Cu1A S2A 1_555 1_555
Cu2A S2A 1_555 1_555
Cu2A S3A 1_555 1_555
Cu3A S3A 1_555 1_555
C6A C7A 1_555 1_555
C11A C12A 1_555 1_555
C13A C14A 1_555 1_555
C21A C22A 1_555 1_555
C21A C25A 1_555 1_555
C22A C23A 1_555 1_555
C23A C24A 1_555 1_555
C24A C25A 1_555 1_555
C39A C42A 1_555 1_555
C40A C41A 1_555 1_555

#END
