
#######################################################################
#
#                 Cambridge Crystallographic Data Centre
#                                CCDC 
#
#######################################################################
#
# If this CIF has been generated from an entry in the Cambridge 
# Structural Database, then it will include bibliographic, chemical, 
# crystal, experimental, refinement or atomic coordinate data resulting 
# from the CCDC's data processing and validation procedures.
#
#######################################################################

data_WEZXUU
_symmetry_cell_setting           triclinic
_symmetry_space_group_name_H-M   'P -1'
_symmetry_Int_Tables_number      2
_space_group_name_Hall           '-P 1'
loop_
_symmetry_equiv_pos_site_id
_symmetry_equiv_pos_as_xyz
1 x,y,z
2 -x,-y,-z
_cell_length_a                   13.716(3)
_cell_length_b                   14.010(5)
_cell_length_c                   15.216(6)
_cell_angle_alpha                86.13(3)
_cell_angle_beta                 64.10(3)
_cell_angle_gamma                89.80(2)
_cell_volume                     2623.14
loop_
_atom_site_label
_atom_site_type_symbol
_atom_site_fract_x
_atom_site_fract_y
_atom_site_fract_z
N1 N 0.0340(16) 0.1306(11) 0.0227(13)
C1 C -0.0012(22) 0.1784(14) 0.1062(20)
O1 O -0.0658(12) 0.1605(9) 0.1898(10)
C2 C 0.0891(19) 0.2613(12) 0.0526(16)
C3 C 0.1268(19) 0.2024(13) -0.0434(14)
C4 C 0.0408(16) 0.3614(13) 0.0504(16)
C5 C 0.1322(22) 0.4401(12) 0.0052(16)
C6 C 0.1703(26) 0.4524(14) -0.1079(15)
C8 C 0.2462(16) 0.3696(19) -0.1575(20)
C10 C 0.1917(20) 0.3058(14) -0.2043(12)
C11 C 0.0949(17) 0.2465(15) -0.1233(15)
N2 N -0.4701(15) 0.1286(11) 0.4208(15)
C12 C -0.3713(23) 0.1692(15) 0.3597(18)
O2 O -0.2812(13) 0.1496(10) 0.3279(11)
C13 C -0.4278(16) 0.2453(12) 0.3183(17)
C14 C -0.5408(14) 0.1977(11) 0.3905(19)
C15 C -0.4101(16) 0.3479(14) 0.3459(18)
C16 C -0.4456(16) 0.4268(13) 0.2871(22)
C17 C -0.5714(18) 0.4140(20) 0.3184(16)
C18 C -0.6352(21) 0.4195(11) 0.4331(17)
C19 C -0.6877(13) 0.3179(14) 0.4828(18)
C20 C -0.5970(17) 0.2506(15) 0.4878(15)
N3 N 0.0596(18) 0.2147(11) 0.3785(16)
C21 C -0.0431(23) 0.2100(18) 0.3921(21)
O3 O -0.1063(13) 0.1432(10) 0.4089(11)
C22 C -0.0502(32) 0.3220(14) 0.4079(29)
C23 C 0.0664(22) 0.3245(14) 0.3896(21)
C24 C -0.1063(24) 0.3659(15) 0.3462(19)
C25 C -0.1280(17) 0.4733(14) 0.3639(18)
C26 C -0.0215(19) 0.5333(16) 0.3037(23)
C28 C 0.0532(19) 0.5245(19) 0.3564(22)
C30 C 0.1605(17) 0.4774(14) 0.2900(17)
C31 C 0.1398(22) 0.3694(14) 0.2853(16)
N4 N -0.2524(15) 0.0069(11) 0.6280(13)
C32 C -0.2956(18) 0.0351(14) 0.5672(18)
O4 O -0.2846(10) 0.0047(9) 0.4903(10)
C33 C -0.3702(24) 0.1064(14) 0.6366(18)
C34 C -0.3102(25) 0.0751(17) 0.7031(21)
C35 C -0.3537(20) 0.2125(14) 0.5925(14)
C36 C -0.4437(21) 0.2761(15) 0.6636(17)
C37 C -0.4500(18) 0.2645(19) 0.7689(15)
C38 C -0.3395(22) 0.2967(13) 0.7661(19)
C39 C -0.2876(26) 0.2100(16) 0.7990(17)
C40 C -0.2275(18) 0.1470(18) 0.7103(20)
N5 N -0.0810(19) -0.1497(14) 0.3818(14)
O5 O -0.0544(13) -0.0692(11) 0.4048(11)
O6 O -0.1410(16) -0.1475(11) 0.3407(12)
O7 O -0.0387(17) -0.2244(11) 0.3999(14)
N6 N 0.0967(23) 0.0043(18) 0.1760(16)
O8 O 0.0145(16) -0.0407(11) 0.1781(12)
O9 O 0.0821(18) 0.0583(14) 0.2407(15)
O10 O 0.1855(19) -0.0062(17) 0.1067(18)
N7 N -0.2887(21) -0.0444(14) 0.2405(21)
O11 O -0.3202(14) -0.0551(10) 0.3278(11)
O12 O -0.1938(13) -0.0069(11) 0.1819(11)
O13 O -0.3484(17) -0.0643(15) 0.2015(14)
H1 H 0.1411 0.2619 0.0790
H2 H 0.1983 0.1773 -0.0664
H3 H -0.0100 0.3744 0.1156
H4 H 0.0024 0.3610 0.0106
H5 H 0.1908 0.4225 0.0208
H6 H 0.1041 0.4992 0.0336
H7 H 0.2097 0.5123 -0.1325
H8 H 0.1099 0.4530 -0.1239
H11 H 0.2577 0.3307 -0.1087
H12 H 0.3153 0.3949 -0.2057
H15 H 0.2444 0.2643 -0.2470
H16 H 0.1666 0.3466 -0.2430
H17 H 0.0333 0.2862 -0.0943
H18 H 0.0754 0.1962 -0.1530
H19 H -0.4138 0.2425 0.2510
H20 H -0.5862 0.1717 0.3641
H21 H -0.3350 0.3582 0.3306
H22 H -0.4522 0.3537 0.4148
H23 H -0.4058 0.4193 0.2183
H24 H -0.4300 0.4898 0.2996
H25 H -0.5864 0.3530 0.3011
H26 H -0.5947 0.4631 0.2851
H27 H -0.6909 0.4658 0.4473
H28 H -0.5862 0.4398 0.4583
H29 H -0.7191 0.2890 0.4453
H30 H -0.7441 0.3251 0.5473
H31 H -0.5439 0.2891 0.4954
H32 H -0.6288 0.2054 0.5437
H33 H -0.0950 0.3302 0.4759
H34 H 0.0830 0.3425 0.4414
H35 H -0.1735 0.3323 0.3623
H36 H -0.0594 0.3591 0.2783
H37 H -0.1526 0.4827 0.4321
H38 H -0.1833 0.4941 0.3450
H39 H -0.0378 0.5993 0.2967
H40 H 0.0142 0.5102 0.2395
H43 H 0.0181 0.4857 0.4169
H44 H 0.0684 0.5867 0.3710
H47 H 0.2140 0.4865 0.3137
H48 H 0.1875 0.5078 0.2249
H49 H 0.1070 0.3599 0.2421
H50 H 0.2076 0.3374 0.2611
H51 H -0.4446 0.0845 0.6653
H52 H -0.3576 0.0432 0.7651
H53 H -0.2837 0.2371 0.5811
H54 H -0.3577 0.2153 0.5309
H55 H -0.4287 0.3423 0.6405
H56 H -0.5125 0.2583 0.6662
H57 H -0.5082 0.3005 0.8134
H58 H -0.4639 0.1981 0.7918
H59 H -0.2917 0.3225 0.7012
H60 H -0.3525 0.3463 0.8101
H61 H -0.2362 0.2334 0.8200
H62 H -0.3418 0.1715 0.8525
H63 H -0.1706 0.1124 0.7176
H64 H -0.1955 0.1879 0.6509
Hg1 Hg 0.0000 0.0000 0.0000
Hg2 Hg -0.5000 0.0000 0.5000
Hg3 Hg 0.1558(1) 0.1043(1) 0.3743(1)
Nd1 Nd -0.1467(1) 0.0337(1) 0.3189(1)
N1A N -0.0340(16) -0.1306(11) -0.0227(13)
C1A C 0.0012(22) -0.1784(14) -0.1062(20)
O1A O 0.0658(12) -0.1605(9) -0.1898(10)
C2A C -0.0891(19) -0.2613(12) -0.0526(16)
C3A C -0.1268(19) -0.2024(13) 0.0434(14)
C4A C -0.0408(16) -0.3614(13) -0.0504(16)
C5A C -0.1322(22) -0.4401(12) -0.0052(16)
C6A C -0.1703(26) -0.4524(14) 0.1079(15)
C8A C -0.2462(16) -0.3696(19) 0.1575(20)
C10A C -0.1917(20) -0.3058(14) 0.2043(12)
C11A C -0.0949(17) -0.2465(15) 0.1233(15)
H1A H -0.1411 -0.2619 -0.0790
H2A H -0.1983 -0.1773 0.0664
H3A H 0.0100 -0.3744 -0.1156
H4A H -0.0024 -0.3610 -0.0106
H5A H -0.1908 -0.4225 -0.0208
H6A H -0.1041 -0.4992 -0.0336
H7A H -0.2097 -0.5123 0.1325
H8A H -0.1099 -0.4530 0.1239
H11A H -0.2577 -0.3307 0.1087
H12A H -0.3153 -0.3949 0.2057
H15A H -0.2444 -0.2643 0.2470
H16A H -0.1666 -0.3466 0.2430
H17A H -0.0333 -0.2862 0.0943
H18A H -0.0754 -0.1962 0.1530
Nd1A Nd 0.1467(1) -0.0337(1) -0.3189(1)
N2A N 0.4701(15) -0.1286(11) -0.4208(15)
C12A C 0.3713(23) -0.1692(15) -0.3597(18)
O2A O 0.2812(13) -0.1496(10) -0.3279(11)
C13A C 0.4278(16) -0.2453(12) -0.3183(17)
C14A C 0.5408(14) -0.1977(11) -0.3905(19)
C15A C 0.4101(16) -0.3479(14) -0.3459(18)
C16A C 0.4456(16) -0.4268(13) -0.2871(22)
C17A C 0.5714(18) -0.4140(20) -0.3184(16)
C18A C 0.6352(21) -0.4195(11) -0.4331(17)
C19A C 0.6877(13) -0.3179(14) -0.4828(18)
C20A C 0.5970(17) -0.2506(15) -0.4878(15)
H19A H 0.4138 -0.2425 -0.2510
H20A H 0.5862 -0.1717 -0.3641
H21A H 0.3350 -0.3582 -0.3306
H22A H 0.4522 -0.3537 -0.4148
H23A H 0.4058 -0.4193 -0.2183
H24A H 0.4300 -0.4898 -0.2996
H25A H 0.5864 -0.3530 -0.3011
H26A H 0.5947 -0.4631 -0.2851
H27A H 0.6909 -0.4658 -0.4473
H28A H 0.5862 -0.4398 -0.4583
H29A H 0.7191 -0.2890 -0.4453
H30A H 0.7441 -0.3251 -0.5473
H31A H 0.5439 -0.2891 -0.4954
H32A H 0.6288 -0.2054 -0.5437
N3A N -0.0596(18) -0.2147(11) -0.3785(16)
C21A C 0.0431(23) -0.2100(18) -0.3921(21)
O3A O 0.1063(13) -0.1432(10) -0.4089(11)
C22A C 0.0502(32) -0.3220(14) -0.4079(29)
C23A C -0.0664(22) -0.3245(14) -0.3896(21)
C24A C 0.1063(24) -0.3659(15) -0.3462(19)
C25A C 0.1280(17) -0.4733(14) -0.3639(18)
C26A C 0.0215(19) -0.5333(16) -0.3037(23)
C28A C -0.0532(19) -0.5245(19) -0.3564(22)
C30A C -0.1605(17) -0.4774(14) -0.2900(17)
C31A C -0.1398(22) -0.3694(14) -0.2853(16)
H33A H 0.0950 -0.3302 -0.4759
H34A H -0.0830 -0.3425 -0.4414
H35A H 0.1735 -0.3323 -0.3623
H36A H 0.0594 -0.3591 -0.2783
H37A H 0.1526 -0.4827 -0.4321
H38A H 0.1833 -0.4941 -0.3450
H39A H 0.0378 -0.5993 -0.2967
H40A H -0.0142 -0.5102 -0.2395
H43A H -0.0181 -0.4857 -0.4169
H44A H -0.0684 -0.5867 -0.3710
H47A H -0.2140 -0.4865 -0.3137
H48A H -0.1875 -0.5078 -0.2249
H49A H -0.1070 -0.3599 -0.2421
H50A H -0.2076 -0.3374 -0.2611
N4A N 0.2524(15) -0.0069(11) -0.6280(13)
C32A C 0.2956(18) -0.0351(14) -0.5672(18)
O4A O 0.2846(10) -0.0047(9) -0.4903(10)
C33A C 0.3702(24) -0.1064(14) -0.6366(18)
C34A C 0.3102(25) -0.0751(17) -0.7031(21)
C35A C 0.3537(20) -0.2125(14) -0.5925(14)
C36A C 0.4437(21) -0.2761(15) -0.6636(17)
C37A C 0.4500(18) -0.2645(19) -0.7689(15)
C38A C 0.3395(22) -0.2967(13) -0.7661(19)
C39A C 0.2876(26) -0.2100(16) -0.7990(17)
C40A C 0.2275(18) -0.1470(18) -0.7103(20)
H51A H 0.4446 -0.0845 -0.6653
H52A H 0.3576 -0.0432 -0.7651
H53A H 0.2837 -0.2371 -0.5811
H54A H 0.3577 -0.2153 -0.5309
H55A H 0.4287 -0.3423 -0.6405
H56A H 0.5125 -0.2583 -0.6662
H57A H 0.5082 -0.3005 -0.8134
H58A H 0.4639 -0.1981 -0.7918
H59A H 0.2917 -0.3225 -0.7012
H60A H 0.3525 -0.3463 -0.8101
H61A H 0.2362 -0.2334 -0.8200
H62A H 0.3418 -0.1715 -0.8525
H63A H 0.1706 -0.1124 -0.7176
H64A H 0.1955 -0.1879 -0.6509
N5A N 0.0810(19) 0.1497(14) -0.3818(14)
O5A O 0.0544(13) 0.0692(11) -0.4048(11)
O6A O 0.1410(16) 0.1475(11) -0.3407(12)
O7A O 0.0387(17) 0.2244(11) -0.3999(14)
N6A N -0.0967(23) -0.0043(18) -0.1760(16)
O8A O -0.0145(16) 0.0407(11) -0.1781(12)
O9A O -0.0821(18) -0.0583(14) -0.2407(15)
O10A O -0.1855(19) 0.0062(17) -0.1067(18)
N7A N 0.2887(21) 0.0444(14) -0.2405(21)
O11A O 0.3202(14) 0.0551(10) -0.3278(11)
O12A O 0.1938(13) 0.0069(11) -0.1819(11)
O13A O 0.3484(17) 0.0643(15) -0.2015(14)
Hg3A Hg -0.1558(1) -0.1043(1) -0.3743(1)
Hg3A_2 Hg -0.1558(1) -0.1043(1) 0.6257(1)
N2A_2 N -0.5299(15) -0.1286(11) 0.5792(15)
N4A_2 N 0.2524(15) -0.0069(11) 0.3720(13)
Hg2_2 Hg 0.5000 0.0000 -0.5000
Hg3_2 Hg 0.1558(1) 0.1043(1) -0.6257(1)
N4_2 N -0.2524(15) 0.0069(11) -0.3720(13)
O14 O 0.3428(32) 0.1813(26) 0.1924(28)
O15 O 0.7380(43) 0.1827(34) 0.0683(37)
C7? C 0.2272(7) 0.4079(25) -0.0893(17)
C9? C 0.1916(30) 0.4097(14) -0.1736(17)
C27? C -0.0366(18) 0.5205(18) 0.3814(18)
C29? C 0.0673(18) 0.5359(16) 0.2831(20)
H9? H 0.2490 0.3448 -0.0780
H10? H 0.2879 0.4514 -0.1073
H13? H 0.2396 0.4513 -0.2281
H14? H 0.1195 0.4332 -0.1515
H41? H -0.0203 0.4807 0.4269
H42? H -0.0585 0.5814 0.4080
H45? H 0.0875 0.6026 0.2673
H46? H 0.0521 0.5130 0.2322
loop_
_geom_bond_atom_site_label_1
_geom_bond_atom_site_label_2
_geom_bond_site_symmetry_1
_geom_bond_site_symmetry_2
N1 C1 1_555 1_555
C1 O1 1_555 1_555
O1 Nd1 1_555 1_555
C2 C1 1_555 1_555
C3 N1 1_555 1_555
C4 C2 1_555 1_555
C5 C4 1_555 1_555
C6 C5 1_555 1_555
C8 C6 1_555 1_555
C10 C8 1_555 1_555
C11 C3 1_555 1_555
N2 C12 1_555 1_555
C12 O2 1_555 1_555
O2 Nd1 1_555 1_555
C13 C12 1_555 1_555
C14 N2 1_555 1_555
C15 C13 1_555 1_555
C16 C15 1_555 1_555
C17 C16 1_555 1_555
C18 C17 1_555 1_555
C19 C18 1_555 1_555
C20 C14 1_555 1_555
N3 C21 1_555 1_555
C21 O3 1_555 1_555
O3 Nd1 1_555 1_555
C22 C21 1_555 1_555
C23 N3 1_555 1_555
C24 C22 1_555 1_555
C25 C24 1_555 1_555
C26 C25 1_555 1_555
C28 C26 1_555 1_555
C30 C28 1_555 1_555
C31 C23 1_555 1_555
N4 C32 1_555 1_555
C32 O4 1_555 1_555
O4 Nd1 1_555 1_555
C33 C32 1_555 1_555
C34 N4 1_555 1_555
C35 C33 1_555 1_555
C36 C35 1_555 1_555
C37 C36 1_555 1_555
C38 C37 1_555 1_555
C39 C38 1_555 1_555
C40 C34 1_555 1_555
N5 O5 1_555 1_555
O5 Nd1 1_555 1_555
O6 N5 1_555 1_555
O7 N5 1_555 1_555
N6 O8 1_555 1_555
O8 Nd1 1_555 1_555
O9 N6 1_555 1_555
O10 N6 1_555 1_555
N7 O11 1_555 1_555
O11 Nd1 1_555 1_555
O12 N7 1_555 1_555
O13 N7 1_555 1_555
H1 C2 1_555 1_555
H2 C3 1_555 1_555
H3 C4 1_555 1_555
H4 C4 1_555 1_555
H5 C5 1_555 1_555
H6 C5 1_555 1_555
H7 C6 1_555 1_555
H8 C6 1_555 1_555
H11 C8 1_555 1_555
H12 C8 1_555 1_555
H15 C10 1_555 1_555
H16 C10 1_555 1_555
H17 C11 1_555 1_555
H18 C11 1_555 1_555
H19 C13 1_555 1_555
H20 C14 1_555 1_555
H21 C15 1_555 1_555
H22 C15 1_555 1_555
H23 C16 1_555 1_555
H24 C16 1_555 1_555
H25 C17 1_555 1_555
H26 C17 1_555 1_555
H27 C18 1_555 1_555
H28 C18 1_555 1_555
H29 C19 1_555 1_555
H30 C19 1_555 1_555
H31 C20 1_555 1_555
H32 C20 1_555 1_555
H33 C22 1_555 1_555
H34 C23 1_555 1_555
H35 C24 1_555 1_555
H36 C24 1_555 1_555
H37 C25 1_555 1_555
H38 C25 1_555 1_555
H39 C26 1_555 1_555
H40 C26 1_555 1_555
H43 C28 1_555 1_555
H44 C28 1_555 1_555
H47 C30 1_555 1_555
H48 C30 1_555 1_555
H49 C31 1_555 1_555
H50 C31 1_555 1_555
H51 C33 1_555 1_555
H52 C34 1_555 1_555
H53 C35 1_555 1_555
H54 C35 1_555 1_555
H55 C36 1_555 1_555
H56 C36 1_555 1_555
H57 C37 1_555 1_555
H58 C37 1_555 1_555
H59 C38 1_555 1_555
H60 C38 1_555 1_555
H61 C39 1_555 1_555
H62 C39 1_555 1_555
H63 C40 1_555 1_555
H64 C40 1_555 1_555
Hg1 N1 1_555 1_555
Hg2 N2 1_555 1_555
Hg3 N3 1_555 1_555
Nd1 O6 1_555 1_555
N1A Hg1 1_555 1_555
C1A N1A 1_555 1_555
O1A C1A 1_555 1_555
C2A C1A 1_555 1_555
C3A N1A 1_555 1_555
C4A C2A 1_555 1_555
C5A C4A 1_555 1_555
C6A C5A 1_555 1_555
C8A C6A 1_555 1_555
C10A C8A 1_555 1_555
C11A C3A 1_555 1_555
H1A C2A 1_555 1_555
H2A C3A 1_555 1_555
H3A C4A 1_555 1_555
H4A C4A 1_555 1_555
H5A C5A 1_555 1_555
H6A C5A 1_555 1_555
H7A C6A 1_555 1_555
H8A C6A 1_555 1_555
H11A C8A 1_555 1_555
H12A C8A 1_555 1_555
H15A C10A 1_555 1_555
H16A C10A 1_555 1_555
H17A C11A 1_555 1_555
H18A C11A 1_555 1_555
Nd1A O1A 1_555 1_555
N2A C12A 1_555 1_555
C12A O2A 1_555 1_555
O2A Nd1A 1_555 1_555
C13A C12A 1_555 1_555
C14A N2A 1_555 1_555
C15A C13A 1_555 1_555
C16A C15A 1_555 1_555
C17A C16A 1_555 1_555
C18A C17A 1_555 1_555
C19A C18A 1_555 1_555
C20A C14A 1_555 1_555
H19A C13A 1_555 1_555
H20A C14A 1_555 1_555
H21A C15A 1_555 1_555
H22A C15A 1_555 1_555
H23A C16A 1_555 1_555
H24A C16A 1_555 1_555
H25A C17A 1_555 1_555
H26A C17A 1_555 1_555
H27A C18A 1_555 1_555
H28A C18A 1_555 1_555
H29A C19A 1_555 1_555
H30A C19A 1_555 1_555
H31A C20A 1_555 1_555
H32A C20A 1_555 1_555
N3A C21A 1_555 1_555
C21A O3A 1_555 1_555
O3A Nd1A 1_555 1_555
C22A C21A 1_555 1_555
C23A N3A 1_555 1_555
C24A C22A 1_555 1_555
C25A C24A 1_555 1_555
C26A C25A 1_555 1_555
C28A C26A 1_555 1_555
C30A C28A 1_555 1_555
C31A C23A 1_555 1_555
H33A C22A 1_555 1_555
H34A C23A 1_555 1_555
H35A C24A 1_555 1_555
H36A C24A 1_555 1_555
H37A C25A 1_555 1_555
H38A C25A 1_555 1_555
H39A C26A 1_555 1_555
H40A C26A 1_555 1_555
H43A C28A 1_555 1_555
H44A C28A 1_555 1_555
H47A C30A 1_555 1_555
H48A C30A 1_555 1_555
H49A C31A 1_555 1_555
H50A C31A 1_555 1_555
N4A C32A 1_555 1_555
C32A O4A 1_555 1_555
O4A Nd1A 1_555 1_555
C33A C32A 1_555 1_555
C34A N4A 1_555 1_555
C35A C33A 1_555 1_555
C36A C35A 1_555 1_555
C37A C36A 1_555 1_555
C38A C37A 1_555 1_555
C39A C38A 1_555 1_555
C40A C34A 1_555 1_555
H51A C33A 1_555 1_555
H52A C34A 1_555 1_555
H53A C35A 1_555 1_555
H54A C35A 1_555 1_555
H55A C36A 1_555 1_555
H56A C36A 1_555 1_555
H57A C37A 1_555 1_555
H58A C37A 1_555 1_555
H59A C38A 1_555 1_555
H60A C38A 1_555 1_555
H61A C39A 1_555 1_555
H62A C39A 1_555 1_555
H63A C40A 1_555 1_555
H64A C40A 1_555 1_555
N5A O5A 1_555 1_555
O5A Nd1A 1_555 1_555
O6A Nd1A 1_555 1_555
O7A N5A 1_555 1_555
N6A O8A 1_555 1_555
O8A Nd1A 1_555 1_555
O9A Nd1A 1_555 1_555
O10A N6A 1_555 1_555
N7A O11A 1_555 1_555
O11A Nd1A 1_555 1_555
O12A Nd1A 1_555 1_555
O13A N7A 1_555 1_555
Hg3A N3A 1_555 1_555
Hg3A_2 N4 1_555 1_555
N2A_2 Hg2 1_555 1_555
N4A_2 Hg3 1_555 1_555
Hg2_2 N2A 1_555 1_555
Hg3_2 N4A 1_555 1_555
N4_2 Hg3A 1_555 1_555
C2 C3 1_555 1_555
C10 C11 1_555 1_555
C13 C14 1_555 1_555
C19 C20 1_555 1_555
C22 C23 1_555 1_555
C30 C31 1_555 1_555
C33 C34 1_555 1_555
C39 C40 1_555 1_555
O9 Nd1 1_555 1_555
O12 Nd1 1_555 1_555
C2A C3A 1_555 1_555
C10A C11A 1_555 1_555
C13A C14A 1_555 1_555
C19A C20A 1_555 1_555
C22A C23A 1_555 1_555
C30A C31A 1_555 1_555
C33A C34A 1_555 1_555
C39A C40A 1_555 1_555
N5A O6A 1_555 1_555
N6A O9A 1_555 1_555
N7A O12A 1_555 1_555

#END
