
#######################################################################
#
#                 Cambridge Crystallographic Data Centre
#                                CCDC 
#
#######################################################################
#
# If this CIF has been generated from an entry in the Cambridge 
# Structural Database, then it will include bibliographic, chemical, 
# crystal, experimental, refinement or atomic coordinate data resulting 
# from the CCDC's data processing and validation procedures.
#
#######################################################################

data_WEZYIL
_symmetry_cell_setting           monoclinic
_symmetry_space_group_name_H-M   'C 2/c'
_symmetry_Int_Tables_number      15
_space_group_name_Hall           '-C 2yn'
loop_
_symmetry_equiv_pos_site_id
_symmetry_equiv_pos_as_xyz
1 x,y,z
2 -x,y,1/2-z
3 1/2+x,1/2+y,z
4 1/2-x,1/2+y,1/2-z
5 -x,-y,-z
6 x,-y,1/2+z
7 1/2-x,1/2-y,-z
8 1/2+x,1/2-y,1/2+z
_cell_length_a                   26.491(2)
_cell_length_b                   8.7773(6)
_cell_length_c                   27.893(2)
_cell_angle_alpha                90
_cell_angle_beta                 113.3020(10)
_cell_angle_gamma                90
_cell_volume                     5956.65
loop_
_atom_site_label
_atom_site_type_symbol
_atom_site_fract_x
_atom_site_fract_y
_atom_site_fract_z
Pb1 Pb 0.5000 -0.14128(2) -0.2500
Pb2 Pb 1.0000 0.14273(2) 0.2500
O1 O 0.50525(14) -0.1169(3) -0.14712(11)
O2 O 0.48803(11) 0.0765(3) -0.20151(9)
O3 O 0.89090(11) 0.1146(3) 0.24049(12)
O4 O 0.95101(10) -0.0736(3) 0.26343(11)
N1 N 0.60524(13) -0.0670(4) -0.19318(13)
N2 N 0.93749(14) 0.0764(4) 0.15006(13)
C1 C 0.71340(17) 0.0137(5) -0.13054(15)
C2 C 0.6847(2) -0.0884(6) -0.11431(18)
H1 H 0.7012 -0.1327 -0.0815
C3 C 0.6315(2) -0.1265(5) -0.14620(19)
H2 H 0.6131 -0.1973 -0.1342
C4 C 0.63308(17) 0.0329(5) -0.20884(16)
H3 H 0.6156 0.0765 -0.2417
C5 C 0.68579(18) 0.0753(5) -0.17952(17)
H4 H 0.7033 0.1460 -0.1926
C6 C 0.7722(2) 0.0586(7) -0.09929(18)
H5 H 0.7761 0.1656 -0.1057
H6 H 0.7953 0.0018 -0.1126
C7 C 0.7946(2) 0.0344(8) -0.03989(19)
H7 H 0.7767 0.1056 -0.0250
H8 H 0.7854 -0.0678 -0.0328
C8 C 0.8515(3) 0.0546(10) -0.0156(2)
H9 H 0.8603 0.1511 -0.0274
H10 H 0.8687 -0.0248 -0.0282
C9 C 0.8780(2) 0.0532(8) 0.04335(18)
C10 C 0.8660(2) 0.1652(6) 0.07283(19)
H11 H 0.8374 0.2335 0.0571
C11 C 0.89714(19) 0.1728(5) 0.12532(18)
H12 H 0.8896 0.2494 0.1445
C12 C 0.94664(18) -0.0331(5) 0.12197(17)
H13 H 0.9742 -0.1033 0.1389
C13 C 0.9181(2) -0.0486(6) 0.06993(19)
H14 H 0.9259 -0.1290 0.0522
C14 C 0.49502(15) 0.0197(5) -0.15750(14)
C15 C 0.48886(17) 0.1270(4) -0.11801(15)
C16 C 0.52229(19) 0.1134(5) -0.06379(16)
C17 C 0.56607(19) 0.0069(6) -0.04354(17)
H15 H 0.5734 -0.0582 -0.0663
C18 C 0.5974(3) -0.0015(8) 0.0086(2)
H16 H 0.6268 -0.0690 0.0211
C19 C 0.5853(3) 0.0913(10) 0.0432(2)
H17 H 0.6058 0.0813 0.0789
C20 C 0.5444(3) 0.1958(9) 0.0260(2)
H18 H 0.5373 0.2568 0.0498
C21 C 0.5122(2) 0.2129(7) -0.02850(18)
C22 C 0.4708(2) 0.3217(7) -0.0484(2)
H19 H 0.4642 0.3871 -0.0252
C23 C 0.43967(19) 0.3357(6) -0.1002(2)
H20 H 0.4123 0.4095 -0.1123
C24 C 0.44931(16) 0.2377(5) -0.13498(16)
H21 H 0.4284 0.2478 -0.1706
C25 C 0.90322(15) -0.0203(5) 0.25251(13)
C26 C 0.86068(16) -0.1280(4) 0.25604(15)
C27 C 0.80682(16) -0.1352(4) 0.21638(15)
C28 C 0.79035(16) -0.0538(5) 0.16903(16)
H22 H 0.8152 0.0106 0.1632
C29 C 0.73834(19) -0.0682(6) 0.13153(19)
H23 H 0.7282 -0.0146 0.1004
C30 C 0.7000(2) -0.1641(6) 0.1400(2)
H24 H 0.6647 -0.1734 0.1144
C31 C 0.71449(18) -0.2421(6) 0.1847(2)
H25 H 0.6885 -0.3031 0.1901
C32 C 0.76796(16) -0.2338(5) 0.22371(16)
C33 C 0.7838(2) -0.3205(6) 0.26946(19)
H26 H 0.7582 -0.3827 0.2749
C34 C 0.8356(2) -0.3147(6) 0.30557(18)
H27 H 0.8457 -0.3751 0.3353
C35 C 0.87479(17) -0.2187(5) 0.29904(15)
H28 H 0.9106 -0.2170 0.3242
O1A O 0.49475(14) -0.1169(3) -0.35288(11)
O2A O 0.51197(11) 0.0765(3) -0.29849(9)
N1A N 0.39476(13) -0.0670(4) -0.30682(13)
N2A N 0.06251(14) 0.0764(4) -0.65006(13)
C1A C 0.28660(17) 0.0137(5) -0.36946(15)
C2A C 0.3153(2) -0.0884(6) -0.38569(18)
H1A H 0.2988 -0.1327 -0.4185
C3A C 0.3685(2) -0.1265(5) -0.35380(19)
H2A H 0.3869 -0.1973 -0.3658
C4A C 0.36692(17) 0.0329(5) -0.29116(16)
H3A H 0.3844 0.0765 -0.2583
C5A C 0.31421(18) 0.0753(5) -0.32048(17)
H4A H 0.2967 0.1460 -0.3074
C6A C 0.2278(2) 0.0586(7) -0.40071(18)
H5A H 0.2239 0.1656 -0.3943
H6A H 0.2047 0.0018 -0.3874
C7A C 0.2054(2) 0.0344(8) -0.46011(19)
H7A H 0.2233 0.1056 -0.4750
H8A H 0.2146 -0.0678 -0.4672
C8A C 0.1485(3) 0.0546(10) -0.4844(2)
H9A H 0.1397 0.1511 -0.4726
H10A H 0.1313 -0.0248 -0.4718
C9A C 0.1220(2) 0.0532(8) -0.54335(18)
C10A C 0.1340(2) 0.1652(6) -0.57283(19)
H11A H 0.1626 0.2335 -0.5571
C11A C 0.10286(19) 0.1728(5) -0.62532(18)
H12A H 0.1104 0.2494 -0.6445
C12A C 0.05336(18) -0.0331(5) -0.62197(17)
H13A H 0.0258 -0.1033 -0.6389
C13A C 0.0819(2) -0.0486(6) -0.56993(19)
H14A H 0.0741 -0.1290 -0.5522
C14A C 0.50498(15) 0.0197(5) -0.34250(14)
C15A C 0.51114(17) 0.1270(4) -0.38199(15)
C16A C 0.47771(19) 0.1134(5) -0.43621(16)
C17A C 0.43393(19) 0.0069(6) -0.45646(17)
H15A H 0.4266 -0.0582 -0.4337
C18A C 0.4026(3) -0.0015(8) -0.5086(2)
H16A H 0.3732 -0.0690 -0.5211
C19A C 0.4147(3) 0.0913(10) -0.5432(2)
H17A H 0.3942 0.0813 -0.5789
C20A C 0.4556(3) 0.1958(9) -0.5260(2)
H18A H 0.4627 0.2568 -0.5498
C21A C 0.4878(2) 0.2129(7) -0.47150(18)
C22A C 0.5292(2) 0.3217(7) -0.4516(2)
H19A H 0.5358 0.3871 -0.4748
C23A C 0.56033(19) 0.3357(6) -0.3998(2)
H20A H 0.5877 0.4095 -0.3877
C24A C 0.55069(16) 0.2377(5) -0.36502(16)
H21A H 0.5716 0.2478 -0.3294
O3G O 0.39090(11) -0.6146(3) -0.25951(12)
O4G O 0.45101(10) -0.4264(3) -0.23657(11)
C25G C 0.40322(15) -0.4797(5) -0.24749(13)
C26G C 0.36068(16) -0.3720(4) -0.24396(15)
C27G C 0.30682(16) -0.3648(4) -0.28362(15)
C28G C 0.29035(16) -0.4462(5) -0.33097(16)
H22G H 0.3152 -0.5106 -0.3368
C29G C 0.23834(19) -0.4318(6) -0.36847(19)
H23G H 0.2282 -0.4854 -0.3996
C30G C 0.2000(2) -0.3359(6) -0.3600(2)
H24G H 0.1647 -0.3266 -0.3856
C31G C 0.21449(18) -0.2579(6) -0.3153(2)
H25G H 0.1885 -0.1969 -0.3099
C32G C 0.26796(16) -0.2662(5) -0.27629(16)
C33G C 0.2838(2) -0.1795(6) -0.23054(19)
H26G H 0.2582 -0.1173 -0.2251
C34G C 0.3356(2) -0.1853(6) -0.19443(18)
H27G H 0.3457 -0.1249 -0.1647
C35G C 0.37479(17) -0.2813(5) -0.20096(15)
H28G H 0.4106 -0.2830 -0.1758
Pb1F Pb 1.0000 -0.35872(2) 0.2500
Pb2_2 Pb 0.0000 0.14273(2) -0.7500
Pb2F Pb 0.5000 -0.64273(2) -0.2500
Pb2F_2 Pb 0.5000 0.35727(2) -0.2500
O2F O 1.01197(11) 0.4235(3) 0.20151(9)
O2G O 0.98803(11) 0.4235(3) 0.29849(9)
O3A O 1.10910(11) 0.1146(3) 0.25951(12)
O4A O 1.04899(10) -0.0736(3) 0.23657(11)
O4F O 0.54899(10) -0.4264(3) -0.26343(11)
N2A_2 N 1.06251(14) 0.0764(4) 0.34994(13)
loop_
_geom_bond_atom_site_label_1
_geom_bond_atom_site_label_2
_geom_bond_site_symmetry_1
_geom_bond_site_symmetry_2
Pb1 O1 1_555 1_555
Pb2 O3 1_555 1_555
O1 C14 1_555 1_555
O2 Pb1 1_555 1_555
O3 C25 1_555 1_555
O4 Pb2 1_555 1_555
N1 Pb1 1_555 1_555
N2 Pb2 1_555 1_555
C1 C2 1_555 1_555
C2 H1 1_555 1_555
C3 N1 1_555 1_555
H2 C3 1_555 1_555
C4 N1 1_555 1_555
H3 C4 1_555 1_555
C5 C1 1_555 1_555
H4 C5 1_555 1_555
C6 C1 1_555 1_555
H5 C6 1_555 1_555
H6 C6 1_555 1_555
C7 C6 1_555 1_555
H7 C7 1_555 1_555
H8 C7 1_555 1_555
C8 C7 1_555 1_555
H9 C8 1_555 1_555
H10 C8 1_555 1_555
C9 C8 1_555 1_555
C10 C9 1_555 1_555
H11 C10 1_555 1_555
C11 N2 1_555 1_555
H12 C11 1_555 1_555
C12 N2 1_555 1_555
H13 C12 1_555 1_555
C13 C9 1_555 1_555
H14 C13 1_555 1_555
C14 O2 1_555 1_555
C15 C14 1_555 1_555
C16 C15 1_555 1_555
C17 C16 1_555 1_555
H15 C17 1_555 1_555
C18 C17 1_555 1_555
H16 C18 1_555 1_555
C19 C18 1_555 1_555
H17 C19 1_555 1_555
C20 C19 1_555 1_555
H18 C20 1_555 1_555
C21 C16 1_555 1_555
C22 C21 1_555 1_555
H19 C22 1_555 1_555
C23 C22 1_555 1_555
H20 C23 1_555 1_555
C24 C15 1_555 1_555
H21 C24 1_555 1_555
C25 O4 1_555 1_555
C26 C25 1_555 1_555
C27 C26 1_555 1_555
C28 C27 1_555 1_555
H22 C28 1_555 1_555
C29 C28 1_555 1_555
H23 C29 1_555 1_555
C30 C29 1_555 1_555
H24 C30 1_555 1_555
C31 C30 1_555 1_555
H25 C31 1_555 1_555
C32 C27 1_555 1_555
C33 C32 1_555 1_555
H26 C33 1_555 1_555
C34 C33 1_555 1_555
H27 C34 1_555 1_555
C35 C26 1_555 1_555
H28 C35 1_555 1_555
O1A Pb1 1_555 1_555
O2A Pb1 1_555 1_555
N1A Pb1 1_555 1_555
N2A C11A 1_555 1_555
C1A C2A 1_555 1_555
C2A H1A 1_555 1_555
C3A N1A 1_555 1_555
H2A C3A 1_555 1_555
C4A N1A 1_555 1_555
H3A C4A 1_555 1_555
C5A C1A 1_555 1_555
H4A C5A 1_555 1_555
C6A C1A 1_555 1_555
H5A C6A 1_555 1_555
H6A C6A 1_555 1_555
C7A C6A 1_555 1_555
H7A C7A 1_555 1_555
H8A C7A 1_555 1_555
C8A C7A 1_555 1_555
H9A C8A 1_555 1_555
H10A C8A 1_555 1_555
C9A C8A 1_555 1_555
C10A C9A 1_555 1_555
H11A C10A 1_555 1_555
C11A C10A 1_555 1_555
H12A C11A 1_555 1_555
C12A N2A 1_555 1_555
H13A C12A 1_555 1_555
C13A C9A 1_555 1_555
H14A C13A 1_555 1_555
C14A O1A 1_555 1_555
C15A C14A 1_555 1_555
C16A C15A 1_555 1_555
C17A C16A 1_555 1_555
H15A C17A 1_555 1_555
C18A C17A 1_555 1_555
H16A C18A 1_555 1_555
C19A C18A 1_555 1_555
H17A C19A 1_555 1_555
C20A C19A 1_555 1_555
H18A C20A 1_555 1_555
C21A C16A 1_555 1_555
C22A C21A 1_555 1_555
H19A C22A 1_555 1_555
C23A C22A 1_555 1_555
H20A C23A 1_555 1_555
C24A C15A 1_555 1_555
H21A C24A 1_555 1_555
O3G C25G 1_555 1_555
O4G Pb1 1_555 1_555
C25G O4G 1_555 1_555
C26G C25G 1_555 1_555
C27G C26G 1_555 1_555
C28G C27G 1_555 1_555
H22G C28G 1_555 1_555
C29G C28G 1_555 1_555
H23G C29G 1_555 1_555
C30G C29G 1_555 1_555
H24G C30G 1_555 1_555
C31G C30G 1_555 1_555
H25G C31G 1_555 1_555
C32G C27G 1_555 1_555
C33G C32G 1_555 1_555
H26G C33G 1_555 1_555
C34G C33G 1_555 1_555
H27G C34G 1_555 1_555
C35G C26G 1_555 1_555
H28G C35G 1_555 1_555
Pb1F O4 1_555 1_555
Pb2_2 N2A 1_555 1_555
Pb2F O3G 1_555 1_555
Pb2F_2 O2 1_555 1_555
O2F Pb2 1_555 1_555
O2G Pb2 1_555 1_555
O3A Pb2 1_555 1_555
O4A Pb2 1_555 1_555
O4F Pb1 1_555 1_555
N2A_2 Pb2 1_555 1_555
C2 C3 1_555 1_555
C4 C5 1_555 1_555
C10 C11 1_555 1_555
C12 C13 1_555 1_555
C20 C21 1_555 1_555
C23 C24 1_555 1_555
C31 C32 1_555 1_555
C34 C35 1_555 1_555
O2A C14A 1_555 1_555
O2A Pb2F_2 1_555 1_555
C2A C3A 1_555 1_555
C4A C5A 1_555 1_555
C12A C13A 1_555 1_555
C20A C21A 1_555 1_555
C23A C24A 1_555 1_555
O4G Pb2F 1_555 1_555
C31G C32G 1_555 1_555
C34G C35G 1_555 1_555
Pb1F O4A 1_555 1_555
Pb2F O4F 1_555 1_555

#END
