
#######################################################################
#
#                 Cambridge Crystallographic Data Centre
#                                CCDC 
#
#######################################################################
#
# If this CIF has been generated from an entry in the Cambridge 
# Structural Database, then it will include bibliographic, chemical, 
# crystal, experimental, refinement or atomic coordinate data resulting 
# from the CCDC's data processing and validation procedures.
#
#######################################################################

data_WEZYAB
_symmetry_cell_setting           monoclinic
_symmetry_space_group_name_H-M   'P 21/c'
_symmetry_Int_Tables_number      14
_space_group_name_Hall           '-P 2ybc'
loop_
_symmetry_equiv_pos_site_id
_symmetry_equiv_pos_as_xyz
1 x,y,z
2 -x,1/2+y,1/2-z
3 -x,-y,-z
4 x,1/2-y,1/2+z
_cell_length_a                   14.933(2)
_cell_length_b                   15.638(2)
_cell_length_c                   16.213(3)
_cell_angle_alpha                90
_cell_angle_beta                 101.00(2)
_cell_angle_gamma                90
_cell_volume                     3716.54
loop_
_atom_site_label
_atom_site_type_symbol
_atom_site_fract_x
_atom_site_fract_y
_atom_site_fract_z
O13 O 0.3011(30) 0.8572(30) 0.2833(27)
C28 C 0.3447(36) 0.9178(37) 0.2585(32)
Hg1 Hg 0.0272(1) 0.1569(1) 0.1131(1)
Hg2 Hg 0.0000 0.5000 0.0000
Er1 Er 0.0108(1) 0.2374(1) -0.1482(1)
N1 N 0.1470(14) 0.1972(14) 0.0902(12)
C1 C 0.1722(18) 0.2237(18) 0.0234(19)
O1 O 0.1429(12) 0.2230(14) -0.0542(10)
C2 C 0.2673(23) 0.2519(27) 0.0701(22)
C3 C 0.2366(19) 0.2239(21) 0.1486(17)
C4 C 0.3494(19) 0.2439(23) 0.0490(17)
C5 C 0.4430(17) 0.2616(21) 0.0986(22)
C6 C 0.4696(24) 0.2309(26) 0.1883(24)
C7 C 0.4177(27) 0.2707(27) 0.2495(24)
C8 C 0.3520(26) 0.2066(28) 0.2704(20)
C9 C 0.2785(23) 0.1629(23) 0.1996(21)
N2 N -0.0878(13) 0.1182(15) 0.1516(12)
C10 C -0.1264(15) 0.1330(15) 0.2173(17)
O2 O -0.0993(11) 0.3230(13) -0.2218(10)
C11 C -0.2017(19) 0.0679(20) 0.1963(16)
C12 C -0.1624(18) 0.0567(19) 0.1118(18)
C13 C -0.2973(19) 0.0938(20) 0.1926(19)
C14 C -0.3653(21) 0.0175(21) 0.1773(20)
C15 C -0.3603(21) -0.0383(19) 0.1027(19)
C16 C -0.3724(20) 0.0101(22) 0.0201(20)
C17 C -0.2858(21) 0.0228(22) -0.0154(19)
C18 C -0.2123(22) 0.0817(21) 0.0326(17)
N3 N -0.1026(14) 0.4109(14) -0.0061(14)
C19 C -0.1041(17) 0.3283(17) -0.0167(14)
O3 O -0.0523(12) 0.2755(12) -0.0366(11)
C20 C -0.2059(18) 0.3203(16) -0.0046(15)
C21 C -0.1917(19) 0.4170(19) 0.0140(19)
C22 C -0.2686(17) 0.2909(20) -0.0792(17)
C23 C -0.3686(19) 0.2785(21) -0.0707(21)
C24 C -0.4208(20) 0.3645(25) -0.0717(22)
C25 C -0.3952(26) 0.4206(25) 0.0019(26)
C26 C -0.3452(22) 0.5011(23) -0.0167(26)
C27 C -0.2511(19) 0.4810(16) -0.0457(21)
N4 N 0.1035(20) 0.3945(17) -0.1709(16)
O4 O 0.1032(12) 0.3276(13) -0.2172(11)
O5 O 0.0639(13) 0.3843(11) -0.1102(11)
O6 O 0.1395(26) 0.4607(16) -0.1852(17)
N5 N 0.0619(18) 0.1408(16) -0.2846(17)
O7 O -0.0055(13) 0.1885(9) -0.2985(9)
O8 O 0.1007(13) 0.1330(13) -0.2096(11)
O9 O 0.0829(12) 0.0956(12) -0.3371(12)
N6 N -0.0793(17) 0.0844(15) -0.1278(15)
O10 O -0.1174(13) 0.1410(15) -0.1785(11)
O11 O -0.0072(12) 0.0990(13) -0.0789(11)
O12 O -0.1200(17) 0.0159(13) -0.1273(16)
H1 H 0.2623 0.3131 0.0708
H2 H 0.2256 0.2715 0.1827
H3 H 0.3509 0.1832 0.0405
H4 H 0.3458 0.2693 -0.0054
H5 H 0.4873 0.2418 0.0672
H6 H 0.4476 0.3228 0.1015
H7 H 0.4586 0.1703 0.1869
H8 H 0.5337 0.2396 0.2081
H9 H 0.4600 0.2894 0.2983
H10 H 0.3850 0.3198 0.2241
H11 H 0.3867 0.1635 0.3047
H12 H 0.3168 0.2363 0.3051
H13 H 0.2351 0.1293 0.2221
H14 H 0.3107 0.1263 0.1675
H15 H -0.1895 0.0191 0.2328
H16 H -0.1379 0.0007 0.1064
H17 H -0.3120 0.1322 0.1458
H18 H -0.3026 0.1244 0.2427
H19 H -0.4266 0.0389 0.1691
H20 H -0.3550 -0.0160 0.2279
H21 H -0.4051 -0.0830 0.0973
H22 H -0.3009 -0.0640 0.1120
H23 H -0.3922 0.0663 0.0321
H24 H -0.4193 -0.0153 -0.0214
H25 H -0.3011 0.0393 -0.0734
H26 H -0.2579 -0.0326 -0.0129
H27 H -0.1703 0.0971 -0.0029
H28 H -0.2438 0.1327 0.0438
H29 H -0.2114 0.2866 0.0437
H30 H -0.1896 0.4318 0.0718
H31 H -0.2684 0.3327 -0.1224
H32 H -0.2462 0.2381 -0.0977
H33 H -0.4003 0.2410 -0.1134
H34 H -0.3675 0.2519 -0.0171
H35 H -0.4112 0.3955 -0.1204
H36 H -0.4848 0.3525 -0.0790
H37 H -0.4491 0.4367 0.0221
H38 H -0.3564 0.3893 0.0457
H39 H -0.3853 0.5332 -0.0589
H40 H -0.3318 0.5359 0.0329
H41 H -0.2190 0.5335 -0.0497
H42 H -0.2640 0.4549 -0.1003
N3B N 0.1026(14) 0.5891(14) 0.0061(14)
O2C O -0.0993(11) 0.1770(13) 0.2782(10)
C10C C -0.1264(15) 0.3670(15) -0.2827(17)
loop_
_geom_bond_atom_site_label_1
_geom_bond_atom_site_label_2
_geom_bond_site_symmetry_1
_geom_bond_site_symmetry_2
Hg1 N1 1_555 1_555
Hg2 N3 1_555 1_555
Er1 O1 1_555 1_555
N1 C1 1_555 1_555
C1 O1 1_555 1_555
C2 C1 1_555 1_555
C3 N1 1_555 1_555
C4 C2 1_555 1_555
C5 C4 1_555 1_555
C6 C5 1_555 1_555
C7 C6 1_555 1_555
C8 C7 1_555 1_555
C9 C3 1_555 1_555
N2 Hg1 1_555 1_555
C10 N2 1_555 1_555
O2 Er1 1_555 1_555
C11 C10 1_555 1_555
C12 N2 1_555 1_555
C13 C11 1_555 1_555
C14 C13 1_555 1_555
C15 C14 1_555 1_555
C16 C15 1_555 1_555
C17 C16 1_555 1_555
C18 C12 1_555 1_555
N3 C19 1_555 1_555
C19 O3 1_555 1_555
O3 Er1 1_555 1_555
C20 C19 1_555 1_555
C21 N3 1_555 1_555
C22 C20 1_555 1_555
C23 C22 1_555 1_555
C24 C23 1_555 1_555
C25 C24 1_555 1_555
C26 C25 1_555 1_555
C27 C21 1_555 1_555
N4 O4 1_555 1_555
O4 Er1 1_555 1_555
O5 Er1 1_555 1_555
O6 N4 1_555 1_555
N5 O7 1_555 1_555
O7 Er1 1_555 1_555
O8 Er1 1_555 1_555
O9 N5 1_555 1_555
N6 O10 1_555 1_555
O10 Er1 1_555 1_555
O11 Er1 1_555 1_555
O12 N6 1_555 1_555
O13 C28 1_555 1_555
H1 C2 1_555 1_555
H2 C3 1_555 1_555
H3 C4 1_555 1_555
H4 C4 1_555 1_555
H5 C5 1_555 1_555
H6 C5 1_555 1_555
H7 C6 1_555 1_555
H8 C6 1_555 1_555
H9 C7 1_555 1_555
H10 C7 1_555 1_555
H11 C8 1_555 1_555
H12 C8 1_555 1_555
H13 C9 1_555 1_555
H14 C9 1_555 1_555
H15 C11 1_555 1_555
H16 C12 1_555 1_555
H17 C13 1_555 1_555
H18 C13 1_555 1_555
H19 C14 1_555 1_555
H20 C14 1_555 1_555
H21 C15 1_555 1_555
H22 C15 1_555 1_555
H23 C16 1_555 1_555
H24 C16 1_555 1_555
H25 C17 1_555 1_555
H26 C17 1_555 1_555
H27 C18 1_555 1_555
H28 C18 1_555 1_555
H29 C20 1_555 1_555
H30 C21 1_555 1_555
H31 C22 1_555 1_555
H32 C22 1_555 1_555
H33 C23 1_555 1_555
H34 C23 1_555 1_555
H35 C24 1_555 1_555
H36 C24 1_555 1_555
H37 C25 1_555 1_555
H38 C25 1_555 1_555
H39 C26 1_555 1_555
H40 C26 1_555 1_555
H41 C27 1_555 1_555
H42 C27 1_555 1_555
N3B Hg2 1_555 1_555
O2C C10 1_555 1_555
C10C O2 1_555 1_555
C2 C3 1_555 1_555
C8 C9 1_555 1_555
C11 C12 1_555 1_555
C17 C18 1_555 1_555
C20 C21 1_555 1_555
C26 C27 1_555 1_555
N4 O5 1_555 1_555
N5 O8 1_555 1_555
N6 O11 1_555 1_555

#END
