
#######################################################################
#
#                 Cambridge Crystallographic Data Centre
#                                CCDC 
#
#######################################################################
#
# If this CIF has been generated from an entry in the Cambridge 
# Structural Database, then it will include bibliographic, chemical, 
# crystal, experimental, refinement or atomic coordinate data resulting 
# from the CCDC's data processing and validation procedures.
#
#######################################################################

data_WEZYOR
_symmetry_cell_setting           monoclinic
_symmetry_space_group_name_H-M   'C 2/c'
_symmetry_Int_Tables_number      15
_space_group_name_Hall           '-C 2yn'
loop_
_symmetry_equiv_pos_site_id
_symmetry_equiv_pos_as_xyz
1 x,y,z
2 -x,y,1/2-z
3 1/2+x,1/2+y,z
4 1/2-x,1/2+y,1/2-z
5 -x,-y,-z
6 x,-y,1/2+z
7 1/2-x,1/2-y,-z
8 1/2+x,1/2-y,1/2+z
_cell_length_a                   28.114(3)
_cell_length_b                   10.9601(10)
_cell_length_c                   8.6843(8)
_cell_angle_alpha                90
_cell_angle_beta                 93.3760(10)
_cell_angle_gamma                90
_cell_volume                     2671.27
loop_
_atom_site_label
_atom_site_type_symbol
_atom_site_fract_x
_atom_site_fract_y
_atom_site_fract_z
Pb1 Pb 0.0000 0.09222(2) 0.2500
C1 C 0.0812(3) 0.0972(5) 0.5395(9)
N1 N -0.03732(18) 0.2822(4) 0.3471(6)
C2 C -0.0198(3) 0.3899(5) 0.2996(8)
O1 O 0.06024(16) 0.1706(4) 0.4491(6)
C3 C 0.1268(2) 0.1407(5) 0.6266(7)
C4 C 0.1574(2) 0.2322(5) 0.5676(7)
O2 O 0.06651(19) -0.0071(4) 0.5688(7)
C5 C 0.1527(2) 0.2777(6) 0.4153(8)
H1 H 0.1287 0.2477 0.3472
C6 C -0.0728(3) 0.2832(7) 0.4383(8)
H2 H -0.0844 0.2093 0.4732
C7 C -0.0396(3) 0.5026(6) 0.3465(8)
C8 C 0.1955(2) 0.2777(6) 0.6654(8)
C9 C 0.2193(3) 0.4124(6) 0.4656(13)
H3 H 0.2391 0.4736 0.4320
C10 C 0.1365(3) 0.0951(6) 0.7709(10)
H4 H 0.1175 0.0334 0.8074
C11 C -0.0939(4) 0.3914(7) 0.4846(11)
H5 H -0.1196 0.3885 0.5472
C12 C -0.0774(3) 0.4989(8) 0.4397(9)
H6 H -0.0914 0.5709 0.4713
C13 C 0.1831(3) 0.3658(8) 0.3666(11)
H7 H 0.1794 0.3948 0.2660
C14 C -0.0182(4) 0.6153(6) 0.2963(11)
H8 H -0.0301 0.6894 0.3293
C15 C 0.2255(3) 0.3691(7) 0.6092(11)
H9 H 0.2501 0.3998 0.6740
C16 C 0.2032(3) 0.2288(9) 0.8153(9)
H10 H 0.2281 0.2585 0.8800
C17 C 0.1751(4) 0.1399(11) 0.8657(10)
H11 H 0.1811 0.1077 0.9639
N1A N 0.03732(18) 0.2822(4) 0.1529(6)
C2A C 0.0198(3) 0.3899(5) 0.2004(8)
C6A C 0.0728(3) 0.2832(7) 0.0617(8)
H2A H 0.0844 0.2093 0.0268
C7A C 0.0396(3) 0.5026(6) 0.1535(8)
C11A C 0.0939(4) 0.3914(7) 0.0154(11)
H5A H 0.1196 0.3885 -0.0472
C12A C 0.0774(3) 0.4989(8) 0.0603(9)
H6A H 0.0914 0.5709 0.0287
C14A C 0.0182(4) 0.6153(6) 0.2037(11)
H8A H 0.0301 0.6894 0.1707
C1A C -0.0812(3) 0.0972(5) -0.0395(9)
O1A O -0.06024(16) 0.1706(4) 0.0509(6)
C3A C -0.1268(2) 0.1407(5) -0.1266(7)
C4A C -0.1574(2) 0.2322(5) -0.0676(7)
O2A O -0.06651(19) -0.0071(4) -0.0688(7)
C5A C -0.1527(2) 0.2777(6) 0.0847(8)
H1A H -0.1287 0.2477 0.1528
C8A C -0.1955(2) 0.2777(6) -0.1654(8)
C9A C -0.2193(3) 0.4124(6) 0.0344(13)
H3A H -0.2391 0.4736 0.0680
C10A C -0.1365(3) 0.0951(6) -0.2709(10)
H4A H -0.1175 0.0334 -0.3074
C13A C -0.1831(3) 0.3658(8) 0.1334(11)
H7A H -0.1794 0.3948 0.2340
C15A C -0.2255(3) 0.3691(7) -0.1092(11)
H9A H -0.2501 0.3998 -0.1740
C16A C -0.2032(3) 0.2288(9) -0.3153(9)
H10A H -0.2281 0.2585 -0.3800
C17A C -0.1751(4) 0.1399(11) -0.3657(10)
H11A H -0.1811 0.1077 -0.4639
Pb1D Pb 0.0000 -0.09222(2) -0.2500
Pb1D_2 Pb 0.0000 -0.09222(2) 0.7500
O2D O -0.06651(19) 0.0071(4) 0.4312(7)
O2E O 0.06651(19) 0.0071(4) 0.0688(7)
loop_
_geom_bond_atom_site_label_1
_geom_bond_atom_site_label_2
_geom_bond_site_symmetry_1
_geom_bond_site_symmetry_2
Pb1 N1 1_555 1_555
C1 O1 1_555 1_555
N1 C2 1_555 1_555
C2 C7 1_555 1_555
O1 Pb1 1_555 1_555
C3 C1 1_555 1_555
C4 C3 1_555 1_555
O2 C1 1_555 1_555
C5 C4 1_555 1_555
H1 C5 1_555 1_555
C6 N1 1_555 1_555
H2 C6 1_555 1_555
C7 C12 1_555 1_555
C8 C4 1_555 1_555
C9 H3 1_555 1_555
C10 C3 1_555 1_555
H4 C10 1_555 1_555
C11 C6 1_555 1_555
H5 C11 1_555 1_555
C12 C11 1_555 1_555
H6 C12 1_555 1_555
C13 C5 1_555 1_555
H7 C13 1_555 1_555
C14 C7 1_555 1_555
H8 C14 1_555 1_555
C15 C8 1_555 1_555
H9 C15 1_555 1_555
C16 C8 1_555 1_555
H10 C16 1_555 1_555
C17 C10 1_555 1_555
H11 C17 1_555 1_555
N1A Pb1 1_555 1_555
C2A C2 1_555 1_555
C6A N1A 1_555 1_555
H2A C6A 1_555 1_555
C7A C2A 1_555 1_555
C11A C6A 1_555 1_555
H5A C11A 1_555 1_555
C12A C7A 1_555 1_555
H6A C12A 1_555 1_555
C14A C14 1_555 1_555
H8A C14A 1_555 1_555
C1A O1A 1_555 1_555
O1A Pb1 1_555 1_555
C3A C1A 1_555 1_555
C4A C3A 1_555 1_555
O2A C1A 1_555 1_555
C5A C4A 1_555 1_555
H1A C5A 1_555 1_555
C8A C4A 1_555 1_555
C9A H3A 1_555 1_555
C10A C3A 1_555 1_555
H4A C10A 1_555 1_555
C13A C5A 1_555 1_555
H7A C13A 1_555 1_555
C15A C8A 1_555 1_555
H9A C15A 1_555 1_555
C16A C8A 1_555 1_555
H10A C16A 1_555 1_555
C17A C10A 1_555 1_555
H11A C17A 1_555 1_555
Pb1D O2A 1_555 1_555
Pb1D_2 O2 1_555 1_555
O2D Pb1 1_555 1_555
O2E Pb1 1_555 1_555
C9 C13 1_555 1_555
C9 C15 1_555 1_555
C16 C17 1_555 1_555
N1A C2A 1_555 1_555
C7A C14A 1_555 1_555
C11A C12A 1_555 1_555
C9A C13A 1_555 1_555
C9A C15A 1_555 1_555
C16A C17A 1_555 1_555

#END
