
#######################################################################
#
#                 Cambridge Crystallographic Data Centre
#                                CCDC 
#
#######################################################################
#
# If this CIF has been generated from an entry in the Cambridge 
# Structural Database, then it will include bibliographic, chemical, 
# crystal, experimental, refinement or atomic coordinate data resulting 
# from the CCDC's data processing and validation procedures.
#
#######################################################################

data_WIBCER01
_symmetry_cell_setting           triclinic
_symmetry_space_group_name_H-M   'P -1'
_symmetry_Int_Tables_number      2
_space_group_name_Hall           '-P 1'
loop_
_symmetry_equiv_pos_site_id
_symmetry_equiv_pos_as_xyz
1 x,y,z
2 -x,-y,-z
_cell_length_a                   7.3718(11)
_cell_length_b                   8.4881(13)
_cell_length_c                   9.4513(14)
_cell_angle_alpha                110.3300(10)
_cell_angle_beta                 100.7470(10)
_cell_angle_gamma                95.338(2)
_cell_volume                     536.772
loop_
_atom_site_label
_atom_site_type_symbol
_atom_site_fract_x
_atom_site_fract_y
_atom_site_fract_z
Co1 Co -0.10578(3) 0.13967(3) 0.12803(2)
O1 O 0.09452(16) 0.12032(14) -0.03015(14)
O2 O -0.25574(17) 0.29917(14) 0.28837(14)
N1 N 0.02257(19) 0.38253(17) 0.17802(15)
O3 O -0.34612(17) 0.08692(16) -0.04190(14)
O4 O 0.05012(17) 0.11850(15) 0.33026(14)
C1 C 0.2097(2) 0.2569(2) -0.00006(18)
C2 C -0.1921(2) 0.4585(2) 0.34301(19)
C3 C 0.1654(2) 0.4152(2) 0.11613(18)
C4 C -0.0335(2) 0.5134(2) 0.27841(18)
H1 H -0.4216 0.1454 -0.0067
H2 H -0.3293 0.0964 -0.1231
H3 H 0.1017 0.2136 0.3927
H4 H 0.1253 0.0499 0.3207
O5 O 0.34588(17) 0.26783(15) -0.05791(15)
O6 O -0.24562(18) 0.56939(15) 0.44579(15)
C5 C 0.2602(2) 0.5780(2) 0.15382(19)
C6 C 0.0490(2) 0.6810(2) 0.31911(19)
H5 H 0.3603 0.5955 0.1109
C7 C 0.2022(2) 0.7177(2) 0.25888(18)
H6 H 0.0037 0.7691 0.3858
O7 O 0.28670(16) 0.87733(14) 0.29882(13)
Co2 Co 0.5000 1.0000 0.5000
O8 O 0.50523(17) 0.78007(15) 0.55160(15)
O9 O 0.29368(17) 1.06018(16) 0.63216(14)
H7 H 0.5522 0.7116 0.4902
H8 H 0.4400 0.7464 0.5984
H9 H 0.2204 0.9730 0.6143
H10 H 0.3136 1.1305 0.7209
O1A O -0.09452(16) -0.12032(14) 0.03015(14)
Co1A Co 0.10578(3) -0.13967(3) -0.12803(2)
O8A O 0.49477(17) 1.21993(15) 0.44840(15)
O9A O 0.70632(17) 0.93982(16) 0.36784(14)
O7A O 0.71330(16) 1.12267(14) 0.70118(13)
H7A H 0.4478 1.2884 0.5098
H8A H 0.5600 1.2536 0.4016
H9A H 0.7796 1.0270 0.3857
H10A H 0.6864 0.8695 0.2791
C7A C 0.7978(2) 1.2823(2) 0.74112(18)
C5A C 0.7398(2) 1.4220(2) 0.84618(19)
C6A C 0.9510(2) 1.3190(2) 0.68089(19)
C3A C 0.8346(2) 1.5848(2) 0.88387(18)
H5A H 0.6397 1.4045 0.8891
C4A C 1.0335(2) 1.4866(2) 0.72159(18)
H6A H 0.9963 1.2309 0.6142
N1A N 0.97743(19) 1.61747(17) 0.82198(15)
C1A C 0.7903(2) 1.7431(2) 1.00006(18)
C2A C 1.1921(2) 1.5415(2) 0.65699(19)
Co1A_2 Co 1.10578(3) 1.86033(3) 0.87197(2)
O1A_2 O 0.90548(16) 1.87968(14) 1.03015(14)
O5A O 0.65412(17) 1.73217(15) 1.05791(15)
O2A O 1.25574(17) 1.70083(14) 0.71163(14)
O6A O 1.24562(18) 1.43061(15) 0.55421(15)
O4A O 0.94988(17) 1.88150(15) 0.66974(14)
O3A O 1.34612(17) 1.91308(16) 1.04190(14)
O1_2 O 1.09452(16) 2.12032(14) 0.96985(14)
Co1_2 Co 0.89422(3) 2.13967(3) 1.12803(2)
H3A H 0.8983 1.7864 0.6073
H4A H 0.8747 1.9501 0.6793
H2A H 1.3293 1.9036 1.1231
H1A H 1.4216 1.8546 1.0067
loop_
_geom_bond_atom_site_label_1
_geom_bond_atom_site_label_2
_geom_bond_site_symmetry_1
_geom_bond_site_symmetry_2
Co1 O1 1_555 1_555
O1 C1 1_555 1_555
O2 Co1 1_555 1_555
N1 Co1 1_555 1_555
O3 Co1 1_555 1_555
O4 Co1 1_555 1_555
C1 C3 1_555 1_555
C2 O2 1_555 1_555
C3 N1 1_555 1_555
C4 N1 1_555 1_555
H1 O3 1_555 1_555
H2 O3 1_555 1_555
H3 O4 1_555 1_555
H4 O4 1_555 1_555
O5 C1 1_555 1_555
O6 C2 1_555 1_555
C5 C3 1_555 1_555
C6 C4 1_555 1_555
H5 C5 1_555 1_555
C7 C5 1_555 1_555
H6 C6 1_555 1_555
O7 C7 1_555 1_555
Co2 O7 1_555 1_555
O8 Co2 1_555 1_555
O9 Co2 1_555 1_555
H7 O8 1_555 1_555
H8 O8 1_555 1_555
H9 O9 1_555 1_555
H10 O9 1_555 1_555
O1A Co1 1_555 1_555
Co1A O1 1_555 1_555
O8A Co2 1_555 1_555
O9A Co2 1_555 1_555
O7A Co2 1_555 1_555
H7A O8A 1_555 1_555
H8A O8A 1_555 1_555
H9A O9A 1_555 1_555
H10A O9A 1_555 1_555
C7A O7A 1_555 1_555
C5A C7A 1_555 1_555
C6A C7A 1_555 1_555
C3A C5A 1_555 1_555
H5A C5A 1_555 1_555
C4A C6A 1_555 1_555
H6A C6A 1_555 1_555
N1A C3A 1_555 1_555
C1A C3A 1_555 1_555
C2A C4A 1_555 1_555
Co1A_2 N1A 1_555 1_555
O1A_2 C1A 1_555 1_555
O5A C1A 1_555 1_555
O2A C2A 1_555 1_555
O6A C2A 1_555 1_555
O4A Co1A_2 1_555 1_555
O3A Co1A_2 1_555 1_555
O1_2 Co1A_2 1_555 1_555
Co1_2 O1A_2 1_555 1_555
H3A O4A 1_555 1_555
H4A O4A 1_555 1_555
H2A O3A 1_555 1_555
H1A O3A 1_555 1_555
C2 C4 1_555 1_555
C6 C7 1_555 1_555
O1A Co1A 1_555 1_555
C4A N1A 1_555 1_555
Co1A_2 O1A_2 1_555 1_555
Co1A_2 O2A 1_555 1_555
O1_2 Co1_2 1_555 1_555

#END
