
#######################################################################
#
#                 Cambridge Crystallographic Data Centre
#                                CCDC 
#
#######################################################################
#
# If this CIF has been generated from an entry in the Cambridge 
# Structural Database, then it will include bibliographic, chemical, 
# crystal, experimental, refinement or atomic coordinate data resulting 
# from the CCDC's data processing and validation procedures.
#
#######################################################################

data_WIBCER
_symmetry_cell_setting           triclinic
_symmetry_space_group_name_H-M   'P -1'
_symmetry_Int_Tables_number      2
_space_group_name_Hall           '-P 1'
loop_
_symmetry_equiv_pos_site_id
_symmetry_equiv_pos_as_xyz
1 x,y,z
2 -x,-y,-z
_cell_length_a                   7.3042(15)
_cell_length_b                   8.4313(17)
_cell_length_c                   9.3806(19)
_cell_angle_alpha                110.14(3)
_cell_angle_beta                 101.01(3)
_cell_angle_gamma                95.14(3)
_cell_volume                     524.769
loop_
_atom_site_label
_atom_site_type_symbol
_atom_site_fract_x
_atom_site_fract_y
_atom_site_fract_z
Co1 Co 0.0000 0.0000 0.0000
Co2 Co 0.60636(4) 0.86019(4) 0.37190(3)
C1 C 0.3346(3) 0.5844(3) 0.3844(2)
C2 C 0.2401(3) 0.4211(3) 0.3465(2)
H1 H 0.1390 0.4030 0.3894
C3 C 0.2992(3) 0.2817(3) 0.2417(2)
C4 C 0.4517(3) 0.3179(3) 0.1810(2)
H2 H 0.4972 0.2292 0.1141
C5 C 0.5338(3) 0.4855(3) 0.2208(2)
C6 C 0.6926(3) 0.5410(3) 0.1563(2)
C7 C 0.2907(3) 0.7433(3) 0.5007(2)
N1 N 0.4775(2) 0.6170(2) 0.3216(2)
O1 O 0.7449(2) 0.4298(2) 0.05149(18)
O2 O 0.7576(2) 0.70039(19) 0.21192(17)
O3 O 0.4074(2) 0.87989(19) 0.53132(17)
O4 O 0.1530(2) 0.7327(2) 0.55809(17)
O5 O 0.2143(2) 0.12158(19) 0.20232(17)
O6 O 0.8472(2) 0.9152(2) 0.54273(17)
H3 H 0.9432 0.8703 0.5240
H4 H 0.8341 0.9017 0.6253
O7 O 0.4508(2) 0.88115(19) 0.16820(17)
H5 H 0.3954 0.7864 0.0988
H6 H 0.3798 0.9568 0.1810
O8 O 0.2082(2) -0.0601(2) -0.13184(17)
H7 H 0.1744 -0.1353 -0.2230
H8 H 0.3045 0.0094 -0.1230
O9 O -0.0049(2) 0.2200(2) -0.05187(18)
H9 H 0.0681 0.2405 -0.1062
H10 H -0.0622 0.2988 -0.0050
Co2A Co -0.60636(4) -0.86019(4) -0.37190(3)
C1A C -0.3346(3) -0.5844(3) -0.3844(2)
C2A C -0.2401(3) -0.4211(3) -0.3465(2)
H1A H -0.1390 -0.4030 -0.3894
C3A C -0.2992(3) -0.2817(3) -0.2417(2)
C4A C -0.4517(3) -0.3179(3) -0.1810(2)
H2A H -0.4972 -0.2292 -0.1141
C5A C -0.5338(3) -0.4855(3) -0.2208(2)
C6A C -0.6926(3) -0.5410(3) -0.1563(2)
C7A C -0.2907(3) -0.7433(3) -0.5007(2)
N1A N -0.4775(2) -0.6170(2) -0.3216(2)
O1A O -0.7449(2) -0.4298(2) -0.05149(18)
O2A O -0.7576(2) -0.70039(19) -0.21192(17)
O3A O -0.4074(2) -0.87989(19) -0.53132(17)
O4A O -0.1530(2) -0.7327(2) -0.55809(17)
O5A O -0.2143(2) -0.12158(19) -0.20232(17)
O6A O -0.8472(2) -0.9152(2) -0.54273(17)
H3A H -0.9432 -0.8703 -0.5240
H4A H -0.8341 -0.9017 -0.6253
O7A O -0.4508(2) -0.88115(19) -0.16820(17)
H5A H -0.3954 -0.7864 -0.0988
H6A H -0.3798 -0.9568 -0.1810
O8A O -0.2082(2) 0.0601(2) 0.13184(17)
H7A H -0.1744 0.1353 0.2230
H8A H -0.3045 -0.0094 0.1230
O9A O 0.0049(2) -0.2200(2) 0.05187(18)
H9A H -0.0681 -0.2405 0.1062
H10A H 0.0622 -0.2988 0.0050
Co2_2 Co -0.39364(4) -1.13981(4) -0.62810(3)
Co2A_2 Co 0.39364(4) 1.13981(4) 0.62810(3)
O3_2 O -0.5926(2) -1.12011(19) -0.46868(17)
O3A_2 O 0.5926(2) 1.12011(19) 0.46868(17)
loop_
_geom_bond_atom_site_label_1
_geom_bond_atom_site_label_2
_geom_bond_site_symmetry_1
_geom_bond_site_symmetry_2
Co1 O5 1_555 1_555
Co2 N1 1_555 1_555
C1 C2 1_555 1_555
C2 H1 1_555 1_555
C3 C2 1_555 1_555
C4 C3 1_555 1_555
H2 C4 1_555 1_555
C5 C4 1_555 1_555
C6 C5 1_555 1_555
C7 C1 1_555 1_555
N1 C1 1_555 1_555
O1 C6 1_555 1_555
O2 Co2 1_555 1_555
O3 Co2 1_555 1_555
O4 C7 1_555 1_555
O5 C3 1_555 1_555
O6 Co2 1_555 1_555
H3 O6 1_555 1_555
H4 O6 1_555 1_555
O7 Co2 1_555 1_555
H5 O7 1_555 1_555
H6 O7 1_555 1_555
O8 Co1 1_555 1_555
H7 O8 1_555 1_555
H8 O8 1_555 1_555
O9 Co1 1_555 1_555
H9 O9 1_555 1_555
H10 O9 1_555 1_555
Co2A N1A 1_555 1_555
C1A C2A 1_555 1_555
C2A H1A 1_555 1_555
C3A C2A 1_555 1_555
C4A C3A 1_555 1_555
H2A C4A 1_555 1_555
C5A C4A 1_555 1_555
C6A C5A 1_555 1_555
C7A C1A 1_555 1_555
N1A C1A 1_555 1_555
O1A C6A 1_555 1_555
O2A Co2A 1_555 1_555
O3A Co2A 1_555 1_555
O4A C7A 1_555 1_555
O5A Co1 1_555 1_555
O6A Co2A 1_555 1_555
H3A O6A 1_555 1_555
H4A O6A 1_555 1_555
O7A Co2A 1_555 1_555
H5A O7A 1_555 1_555
H6A O7A 1_555 1_555
O8A Co1 1_555 1_555
H7A O8A 1_555 1_555
H8A O8A 1_555 1_555
O9A Co1 1_555 1_555
H9A O9A 1_555 1_555
H10A O9A 1_555 1_555
Co2_2 O3A 1_555 1_555
Co2A_2 O3 1_555 1_555
O3_2 Co2A 1_555 1_555
O3A_2 Co2 1_555 1_555
C5 N1 1_555 1_555
C6 O2 1_555 1_555
C7 O3 1_555 1_555
C3A O5A 1_555 1_555
C5A N1A 1_555 1_555
C6A O2A 1_555 1_555
C7A O3A 1_555 1_555
Co2_2 O3_2 1_555 1_555
Co2A_2 O3A_2 1_555 1_555

#END
