
#######################################################################
#
#                 Cambridge Crystallographic Data Centre
#                                CCDC 
#
#######################################################################
#
# If this CIF has been generated from an entry in the Cambridge 
# Structural Database, then it will include bibliographic, chemical, 
# crystal, experimental, refinement or atomic coordinate data resulting 
# from the CCDC's data processing and validation procedures.
#
#######################################################################

data_WIBGEV
_symmetry_cell_setting           monoclinic
_symmetry_space_group_name_H-M   'C 2/c'
_symmetry_Int_Tables_number      15
_space_group_name_Hall           '-C 2yn'
loop_
_symmetry_equiv_pos_site_id
_symmetry_equiv_pos_as_xyz
1 x,y,z
2 -x,y,1/2-z
3 1/2+x,1/2+y,z
4 1/2-x,1/2+y,1/2-z
5 -x,-y,-z
6 x,-y,1/2+z
7 1/2-x,1/2-y,-z
8 1/2+x,1/2-y,1/2+z
_cell_length_a                   33.930(7)
_cell_length_b                   12.300(3)
_cell_length_c                   24.969(5)
_cell_angle_alpha                90
_cell_angle_beta                 100.61(3)
_cell_angle_gamma                90
_cell_volume                     10242.4
loop_
_atom_site_label
_atom_site_type_symbol
_atom_site_fract_x
_atom_site_fract_y
_atom_site_fract_z
Cu1 Cu 0.425773(15) 0.45681(3) 0.325214(17)
Cu2 Cu 0.396890(15) 0.95781(3) 0.219265(18)
C1 C 0.44782(14) 0.2648(3) 0.17414(16)
H1 H 0.4369 0.3269 0.1868
C2 C 0.46092(16) 0.2665(4) 0.12541(18)
H2 H 0.4592 0.3305 0.1053
C3 C 0.47655(15) 0.1752(4) 0.10584(18)
H3 H 0.4845 0.1762 0.0721
C4 C 0.48034(14) 0.0820(3) 0.13684(18)
H4 H 0.4914 0.0202 0.1242
C5 C 0.46796(12) 0.0788(3) 0.18629(16)
H5 H 0.4710 0.0159 0.2073
C6 C 0.45095(12) 0.1708(3) 0.20402(14)
C7 C 0.43325(11) 0.2456(3) 0.29134(14)
C8 C 0.41929(12) 0.1965(3) 0.33537(14)
C9 C 0.41430(12) 0.0852(3) 0.32062(15)
C10 C 0.39704(13) -0.0079(3) 0.34760(16)
H6 H 0.4140 -0.0711 0.3469
H7 H 0.3975 0.0107 0.3855
C11 C 0.35495(14) -0.0372(3) 0.32164(16)
C12 C 0.33032(16) 0.0290(4) 0.2864(2)
H8 H 0.3402 0.0958 0.2775
C13 C 0.29154(18) 0.0016(6) 0.2636(2)
H9 H 0.2759 0.0478 0.2389
C14 C 0.2766(2) -0.0941(7) 0.2779(3)
H10 H 0.2502 -0.1127 0.2636
C15 C 0.2999(2) -0.1632(6) 0.3129(3)
H11 H 0.2893 -0.2288 0.3223
C16 C 0.33974(19) -0.1359(4) 0.3350(2)
H12 H 0.3558 -0.1837 0.3583
C17 C 0.41211(12) 0.2545(3) 0.38249(14)
C18 C 0.40191(15) 0.1955(3) 0.43048(16)
C19 C 0.36392(17) 0.2024(4) 0.4432(2)
H13 H 0.3444 0.2447 0.4219
C20 C 0.3550(2) 0.1462(4) 0.4876(2)
H14 H 0.3295 0.1508 0.4961
C21 C 0.3837(3) 0.0842(4) 0.5190(2)
H15 H 0.3776 0.0464 0.5487
C22 C 0.4208(2) 0.0775(4) 0.50700(19)
H16 H 0.4403 0.0351 0.5286
C23 C 0.43013(16) 0.1330(3) 0.46301(17)
H17 H 0.4559 0.1281 0.4553
C24 C 0.40879(13) 0.5220(3) 0.41890(15)
C25 C 0.39730(14) 0.5947(3) 0.46029(15)
C26 C 0.40112(18) 0.7069(3) 0.45407(19)
H18 H 0.4127 0.7341 0.4259
C27 C 0.3877(2) 0.7775(4) 0.4899(2)
H19 H 0.3899 0.8522 0.4855
C28 C 0.37118(19) 0.7377(5) 0.5317(2)
H20 H 0.3620 0.7859 0.5554
C29 C 0.36782(16) 0.6285(4) 0.53946(19)
H21 H 0.3568 0.6025 0.5684
C30 C 0.38102(15) 0.5566(4) 0.50360(18)
C31 C 0.49148(15) 0.7646(3) 0.3411(2)
H22 H 0.4755 0.8265 0.3352
C32 C 0.52710(18) 0.7668(4) 0.3780(2)
H23 H 0.5354 0.8310 0.3964
C33 C 0.55024(16) 0.6759(4) 0.3879(2)
H24 H 0.5736 0.6770 0.4141
C34 C 0.53921(14) 0.5842(4) 0.35944(18)
H25 H 0.5554 0.5229 0.3654
C35 C 0.50404(13) 0.5805(3) 0.32158(16)
H26 H 0.4968 0.5174 0.3017
C36 C 0.47979(12) 0.6712(3) 0.31348(14)
C37 C 0.42064(11) 0.7464(3) 0.24703(14)
C38 C 0.38647(11) 0.6967(3) 0.21544(13)
C39 C 0.39011(12) 0.5854(3) 0.22909(14)
C40 C 0.36211(12) 0.4922(3) 0.21381(15)
H27 H 0.3770 0.4307 0.2036
H28 H 0.3421 0.5123 0.1824
C41 C 0.34122(12) 0.4589(3) 0.25989(16)
C42 C 0.32963(15) 0.5357(4) 0.2949(2)
H29 H 0.3352 0.6088 0.2902
C43 C 0.31005(17) 0.5057(4) 0.3363(2)
H30 H 0.3022 0.5585 0.3589
C44 C 0.30211(17) 0.3985(5) 0.3443(2)
H31 H 0.2888 0.3782 0.3721
C45 C 0.31397(17) 0.3211(4) 0.3109(2)
H32 H 0.3089 0.2480 0.3165
C46 C 0.33337(14) 0.3513(3) 0.26907(19)
H33 H 0.3412 0.2980 0.2468
C47 C 0.35625(11) 0.7548(3) 0.17863(14)
C48 C 0.32218(12) 0.6984(3) 0.14366(14)
C49 C 0.32571(14) 0.6666(3) 0.09229(16)
H34 H 0.3495 0.6796 0.0799
C50 C 0.29426(16) 0.6151(4) 0.05848(19)
H35 H 0.2968 0.5950 0.0234
C51 C 0.25981(16) 0.5943(4) 0.0766(2)
H36 H 0.2389 0.5588 0.0540
C52 C 0.25564(15) 0.6251(4) 0.1276(2)
H37 H 0.2319 0.6106 0.1400
C53 C 0.28682(14) 0.6780(4) 0.16095(18)
H38 H 0.2838 0.7000 0.1956
C54 C 0.33410(12) 1.0216(3) 0.14658(14)
C55 C 0.30233(12) 1.0913(3) 0.11623(15)
C56 C 0.30413(15) 1.2035(3) 0.12527(17)
H39 H 0.3261 1.2325 0.1487
C57 C 0.27444(18) 1.2717(4) 0.1006(2)
H40 H 0.2759 1.3460 0.1076
C58 C 0.24252(17) 1.2291(4) 0.0654(2)
H41 H 0.2222 1.2749 0.0484
C59 C 0.24007(16) 1.1199(4) 0.05500(19)
H42 H 0.2183 1.0924 0.0306
C60 C 0.26966(14) 1.0499(4) 0.08040(16)
N1 N 0.43626(10) 0.1658(2) 0.25402(12)
N2 N 0.42418(10) 0.0670(2) 0.27200(12)
N3 N 0.41441(10) 0.3601(2) 0.38200(12)
N4 N 0.40662(11) 0.4167(2) 0.42709(12)
N5 N 0.44228(9) 0.6659(2) 0.27640(11)
N6 N 0.42325(10) 0.5671(2) 0.26589(12)
N7 N 0.35924(10) 0.8608(2) 0.17597(11)
N8 N 0.32904(10) 0.9158(2) 0.14118(12)
O1 O 0.44228(8) 0.34450(17) 0.28223(9)
O2 O 0.41825(10) 0.56550(19) 0.37602(11)
O3 O 0.37730(13) 0.4499(3) 0.51298(13)
H43 H 0.3805 0.4153 0.4860
O4 O 0.43228(8) 0.84639(17) 0.25079(10)
O5 O 0.36450(8) 1.06607(18) 0.17796(10)
O6 O 0.26521(10) 0.9427(2) 0.06855(13)
H44 H 0.2815 0.9077 0.0902
Cu2_2 Cu 0.396890(15) -0.04219(3) 0.219265(18)
N2_2 N 0.42418(10) 1.0670(2) 0.27200(12)
loop_
_geom_bond_atom_site_label_1
_geom_bond_atom_site_label_2
_geom_bond_site_symmetry_1
_geom_bond_site_symmetry_2
Cu1 N3 1_555 1_555
Cu2 N7 1_555 1_555
C1 H1 1_555 1_555
C2 C1 1_555 1_555
H2 C2 1_555 1_555
C3 C2 1_555 1_555
H3 C3 1_555 1_555
C4 C3 1_555 1_555
H4 C4 1_555 1_555
C5 C4 1_555 1_555
H5 C5 1_555 1_555
C6 C1 1_555 1_555
C7 C8 1_555 1_555
C8 C9 1_555 1_555
C9 C10 1_555 1_555
C10 H6 1_555 1_555
H7 C10 1_555 1_555
C11 C10 1_555 1_555
C12 C11 1_555 1_555
H8 C12 1_555 1_555
C13 C12 1_555 1_555
H9 C13 1_555 1_555
C14 C13 1_555 1_555
H10 C14 1_555 1_555
C15 C14 1_555 1_555
H11 C15 1_555 1_555
C16 C11 1_555 1_555
H12 C16 1_555 1_555
C17 C8 1_555 1_555
C18 C17 1_555 1_555
C19 C18 1_555 1_555
H13 C19 1_555 1_555
C20 C19 1_555 1_555
H14 C20 1_555 1_555
C21 C20 1_555 1_555
H15 C21 1_555 1_555
C22 C21 1_555 1_555
H16 C22 1_555 1_555
C23 C18 1_555 1_555
H17 C23 1_555 1_555
C24 C25 1_555 1_555
C25 C26 1_555 1_555
C26 H18 1_555 1_555
C27 C26 1_555 1_555
H19 C27 1_555 1_555
C28 C27 1_555 1_555
H20 C28 1_555 1_555
C29 C28 1_555 1_555
H21 C29 1_555 1_555
C30 C25 1_555 1_555
C31 H22 1_555 1_555
C32 C31 1_555 1_555
H23 C32 1_555 1_555
C33 C32 1_555 1_555
H24 C33 1_555 1_555
C34 C33 1_555 1_555
H25 C34 1_555 1_555
C35 C34 1_555 1_555
H26 C35 1_555 1_555
C36 C31 1_555 1_555
C37 C38 1_555 1_555
C38 C39 1_555 1_555
C39 C40 1_555 1_555
C40 H27 1_555 1_555
H28 C40 1_555 1_555
C41 C40 1_555 1_555
C42 C41 1_555 1_555
H29 C42 1_555 1_555
C43 C42 1_555 1_555
H30 C43 1_555 1_555
C44 C43 1_555 1_555
H31 C44 1_555 1_555
C45 C44 1_555 1_555
H32 C45 1_555 1_555
C46 C41 1_555 1_555
H33 C46 1_555 1_555
C47 C38 1_555 1_555
C48 C47 1_555 1_555
C49 C48 1_555 1_555
H34 C49 1_555 1_555
C50 C49 1_555 1_555
H35 C50 1_555 1_555
C51 C50 1_555 1_555
H36 C51 1_555 1_555
C52 C51 1_555 1_555
H37 C52 1_555 1_555
C53 C48 1_555 1_555
H38 C53 1_555 1_555
C54 C55 1_555 1_555
C55 C56 1_555 1_555
C56 H39 1_555 1_555
C57 C56 1_555 1_555
H40 C57 1_555 1_555
C58 C57 1_555 1_555
H41 C58 1_555 1_555
C59 C58 1_555 1_555
H42 C59 1_555 1_555
C60 C55 1_555 1_555
N1 C6 1_555 1_555
N2 C9 1_555 1_555
N3 C17 1_555 1_555
N4 C24 1_555 1_555
N5 C36 1_555 1_555
N6 Cu1 1_555 1_555
N7 C47 1_555 1_555
N8 C54 1_555 1_555
O1 Cu1 1_555 1_555
O2 Cu1 1_555 1_555
O3 C30 1_555 1_555
H43 O3 1_555 1_555
O4 Cu2 1_555 1_555
O5 Cu2 1_555 1_555
O6 C60 1_555 1_555
H44 O6 1_555 1_555
Cu2_2 N2 1_555 1_555
N2_2 Cu2 1_555 1_555
C5 C6 1_555 1_555
C7 N1 1_555 1_555
C7 O1 1_555 1_555
C15 C16 1_555 1_555
C22 C23 1_555 1_555
C24 O2 1_555 1_555
C29 C30 1_555 1_555
C35 C36 1_555 1_555
C37 N5 1_555 1_555
C37 O4 1_555 1_555
C39 N6 1_555 1_555
C45 C46 1_555 1_555
C52 C53 1_555 1_555
C54 O5 1_555 1_555
C59 C60 1_555 1_555
N1 N2 1_555 1_555
N3 N4 1_555 1_555
N5 N6 1_555 1_555
N7 N8 1_555 1_555

#END
