
#######################################################################
#
#                 Cambridge Crystallographic Data Centre
#                                CCDC 
#
#######################################################################
#
# If this CIF has been generated from an entry in the Cambridge 
# Structural Database, then it will include bibliographic, chemical, 
# crystal, experimental, refinement or atomic coordinate data resulting 
# from the CCDC's data processing and validation procedures.
#
#######################################################################

data_WIBGIZ
_symmetry_cell_setting           monoclinic
_symmetry_space_group_name_H-M   'C 2/c'
_symmetry_Int_Tables_number      15
_space_group_name_Hall           '-C 2yn'
loop_
_symmetry_equiv_pos_site_id
_symmetry_equiv_pos_as_xyz
1 x,y,z
2 -x,y,1/2-z
3 1/2+x,1/2+y,z
4 1/2-x,1/2+y,1/2-z
5 -x,-y,-z
6 x,-y,1/2+z
7 1/2-x,1/2-y,-z
8 1/2+x,1/2-y,1/2+z
_cell_length_a                   24.3593(18)
_cell_length_b                   10.8644(7)
_cell_length_c                   21.1608(14)
_cell_angle_alpha                90
_cell_angle_beta                 113.532(2)
_cell_angle_gamma                90
_cell_volume                     5134.46
loop_
_atom_site_label
_atom_site_type_symbol
_atom_site_fract_x
_atom_site_fract_y
_atom_site_fract_z
Zn1 Zn 0.208890(13) 0.36319(2) 0.328024(14)
O1 O 0.18900(8) 0.21438(15) 0.26472(9)
O2 O 0.23040(9) 0.47165(16) 0.41597(9)
O3 O 0.12219(10) 0.3559(2) 0.31622(13)
H1 H 0.1011 0.2848 0.2963
O4 O 0.36416(10) 0.32164(19) 0.59109(10)
H2 H 0.3492 0.2949 0.5516
N1 N 0.22641(10) 0.05941(19) 0.21913(10)
N2 N 0.27615(10) -0.01635(19) 0.23781(11)
N3 N 0.27696(9) 0.26205(18) 0.40085(9)
N4 N 0.29594(10) 0.31531(19) 0.46555(10)
C1 C 0.17665(12) 0.0475(2) 0.15439(13)
C2 C 0.14206(14) -0.0568(3) 0.13963(16)
H3 H 0.1505 -0.1194 0.1722
C3 C 0.09459(16) -0.0687(4) 0.0763(2)
H4 H 0.0710 -0.1393 0.0657
C4 C 0.08267(18) 0.0255(5) 0.0289(2)
H5 H 0.0512 0.0176 -0.0140
C5 C 0.1165(2) 0.1303(4) 0.0445(2)
H6 H 0.1075 0.1938 0.0124
C6 C 0.16377(16) 0.1422(3) 0.10737(17)
H7 H 0.1868 0.2135 0.1181
C7 C 0.23003(12) 0.1366(2) 0.27157(13)
C8 C 0.28390(11) 0.1051(2) 0.32785(12)
C9 C 0.31058(11) 0.0117(2) 0.30299(12)
C10 C 0.37158(12) -0.0448(2) 0.33528(13)
H8 H 0.3750 -0.1088 0.3051
H9 H 0.3760 -0.0834 0.3784
C11 C 0.42202(12) 0.0467(2) 0.34926(13)
C12 C 0.47581(15) 0.0324(3) 0.40537(16)
H10 H 0.4808 -0.0331 0.4355
C13 C 0.52241(16) 0.1142(4) 0.41738(19)
H11 H 0.5582 0.1032 0.4555
C14 C 0.51651(16) 0.2107(4) 0.3740(2)
H12 H 0.5480 0.2653 0.3824
C15 C 0.46352(17) 0.2262(4) 0.3179(2)
H13 H 0.4591 0.2915 0.2878
C16 C 0.41660(16) 0.1450(3) 0.30578(18)
H14 H 0.3808 0.1569 0.2677
C17 C 0.30318(12) 0.1605(2) 0.39550(13)
C18 C 0.35013(15) 0.1015(3) 0.45757(14)
H15 H 0.3863 0.1490 0.4722
H16 H 0.3578 0.0196 0.4462
H17 H 0.3364 0.0981 0.4942
C19 C 0.27076(12) 0.4239(2) 0.46766(13)
C20 C 0.29475(13) 0.4846(2) 0.53563(13)
C21 C 0.27281(16) 0.6009(3) 0.54144(16)
H18 H 0.2424 0.6359 0.5034
C22 C 0.29567(19) 0.6642(3) 0.60273(18)
H19 H 0.2817 0.7427 0.6057
C23 C 0.33933(19) 0.6110(3) 0.65971(18)
H20 H 0.3539 0.6532 0.7014
C24 C 0.36158(17) 0.4970(3) 0.65584(15)
H21 H 0.3909 0.4627 0.6951
C25 C 0.34090(13) 0.4309(2) 0.59353(13)
C26 C 0.09027(16) 0.4478(3) 0.33523(19)
H22 H 0.1177 0.5096 0.3624
H23 H 0.0704 0.4111 0.3617
H24 H 0.0611 0.4849 0.2945
Zn1C Zn 0.291110(13) -0.13681(2) 0.171976(14)
N2C N 0.22385(10) 0.48365(19) 0.26219(11)
loop_
_geom_bond_atom_site_label_1
_geom_bond_atom_site_label_2
_geom_bond_site_symmetry_1
_geom_bond_site_symmetry_2
Zn1 O1 1_555 1_555
O1 C7 1_555 1_555
O2 Zn1 1_555 1_555
O3 Zn1 1_555 1_555
H1 O3 1_555 1_555
O4 H2 1_555 1_555
N1 N2 1_555 1_555
N2 C9 1_555 1_555
N3 Zn1 1_555 1_555
N4 N3 1_555 1_555
C1 N1 1_555 1_555
C2 C1 1_555 1_555
H3 C2 1_555 1_555
C3 C2 1_555 1_555
H4 C3 1_555 1_555
C4 C3 1_555 1_555
H5 C4 1_555 1_555
C5 C4 1_555 1_555
H6 C5 1_555 1_555
C6 C1 1_555 1_555
H7 C6 1_555 1_555
C7 N1 1_555 1_555
C8 C7 1_555 1_555
C9 C8 1_555 1_555
C10 C9 1_555 1_555
H8 C10 1_555 1_555
H9 C10 1_555 1_555
C11 C10 1_555 1_555
C12 C11 1_555 1_555
H10 C12 1_555 1_555
C13 C12 1_555 1_555
H11 C13 1_555 1_555
C14 C13 1_555 1_555
H12 C14 1_555 1_555
C15 C14 1_555 1_555
H13 C15 1_555 1_555
C16 C11 1_555 1_555
H14 C16 1_555 1_555
C17 N3 1_555 1_555
C18 C17 1_555 1_555
H15 C18 1_555 1_555
H16 C18 1_555 1_555
H17 C18 1_555 1_555
C19 O2 1_555 1_555
C20 C19 1_555 1_555
C21 C20 1_555 1_555
H18 C21 1_555 1_555
C22 C21 1_555 1_555
H19 C22 1_555 1_555
C23 C22 1_555 1_555
H20 C23 1_555 1_555
C24 C23 1_555 1_555
H21 C24 1_555 1_555
C25 O4 1_555 1_555
C26 O3 1_555 1_555
H22 C26 1_555 1_555
H23 C26 1_555 1_555
H24 C26 1_555 1_555
Zn1C N2 1_555 1_555
N2C Zn1 1_555 1_555
N4 C19 1_555 1_555
C5 C6 1_555 1_555
C8 C17 1_555 1_555
C15 C16 1_555 1_555
C20 C25 1_555 1_555
C24 C25 1_555 1_555

#END
