
#######################################################################
#
#                 Cambridge Crystallographic Data Centre
#                                CCDC 
#
#######################################################################
#
# If this CIF has been generated from an entry in the Cambridge 
# Structural Database, then it will include bibliographic, chemical, 
# crystal, experimental, refinement or atomic coordinate data resulting 
# from the CCDC's data processing and validation procedures.
#
#######################################################################

data_WIBLAW
_symmetry_cell_setting           triclinic
_symmetry_space_group_name_H-M   'P -1'
_symmetry_Int_Tables_number      2
_space_group_name_Hall           '-P 1'
loop_
_symmetry_equiv_pos_site_id
_symmetry_equiv_pos_as_xyz
1 x,y,z
2 -x,-y,-z
_cell_length_a                   6.9212(2)
_cell_length_b                   7.8465(3)
_cell_length_c                   11.1468(5)
_cell_angle_alpha                85.761(1)
_cell_angle_beta                 83.978(1)
_cell_angle_gamma                69.462(1)
_cell_volume                     563.299
loop_
_atom_site_label
_atom_site_type_symbol
_atom_site_fract_x
_atom_site_fract_y
_atom_site_fract_z
Co1 Co 0.5000 0.0000 0.5000
Na1 Na 0.33419(14) 0.41810(12) 0.61849(8)
O1 O 0.1910(2) 0.5865(2) -0.14921(13)
O2 O -0.0303(2) 0.9953(2) -0.31721(14)
O3 O 0.0816(3) 0.7076(2) -0.37610(14)
O4 O 0.3438(3) 0.2361(3) -0.19377(15)
O5 O 0.2708(3) 0.0715(2) -0.04689(14)
O6 O 0.4533(2) 0.15306(19) 0.34216(12)
O7 O 0.4075(3) 0.4329(2) 0.40055(13)
O8 O 0.6424(2) 0.1620(2) 0.56823(13)
O9 O 0.1965(2) 0.1899(2) 0.56406(13)
N1 N 0.3008(3) 0.2099(2) -0.08710(15)
C1 C 0.2350(3) 0.5316(3) -0.03400(17)
C2 C 0.2901(3) 0.3454(3) -0.00069(17)
C3 C 0.3379(3) 0.2802(3) 0.11520(17)
H1 H 0.3734 0.1537 0.1350
C4 C 0.3345(3) 0.3980(3) 0.20259(17)
C5 C 0.2738(3) 0.5838(3) 0.17257(17)
H2 H 0.2658 0.6668 0.2324
C6 C 0.2247(3) 0.6495(3) 0.05617(18)
H3 H 0.1835 0.7767 0.0378
C7 C 0.1196(3) 0.7792(3) -0.17422(18)
H4 H 0.2323 0.8262 -0.1647
H5 H 0.0022 0.8390 -0.1151
C8 C 0.0511(3) 0.8273(3) -0.30049(18)
C9 C 0.4023(3) 0.3244(3) 0.32592(17)
H6 H 0.735(3) 0.100(4) 0.609(2)
H7 H 0.680(5) 0.225(4) 0.516(2)
H8 H 0.140(4) 0.133(4) 0.612(2)
H9 H 0.120(4) 0.227(4) 0.5092(17)
Na1A Na 0.66581(14) -0.41810(12) 0.38151(8)
O1A O 0.8090(2) -0.5865(2) 1.14921(13)
O2A O 1.0303(2) -0.9953(2) 1.31721(14)
O3A O 0.9184(3) -0.7076(2) 1.37610(14)
O4A O 0.6562(3) -0.2361(3) 1.19377(15)
O5A O 0.7292(3) -0.0715(2) 1.04689(14)
O6A O 0.5467(2) -0.15306(19) 0.65784(12)
O7A O 0.5925(3) -0.4329(2) 0.59945(13)
O8A O 0.3576(2) -0.1620(2) 0.43177(13)
O9A O 0.8035(2) -0.1899(2) 0.43594(13)
N1A N 0.6992(3) -0.2099(2) 1.08710(15)
C1A C 0.7650(3) -0.5316(3) 1.03400(17)
C2A C 0.7099(3) -0.3454(3) 1.00069(17)
C3A C 0.6621(3) -0.2802(3) 0.88480(17)
H1A H 0.6266 -0.1537 0.8650
C4A C 0.6655(3) -0.3980(3) 0.79741(17)
C5A C 0.7262(3) -0.5838(3) 0.82743(17)
H2A H 0.7342 -0.6668 0.7676
C6A C 0.7753(3) -0.6495(3) 0.94383(18)
H3A H 0.8165 -0.7767 0.9622
C7A C 0.8804(3) -0.7792(3) 1.17422(18)
H4A H 0.7677 -0.8262 1.1647
H5A H 0.9978 -0.8390 1.1151
C8A C 0.9489(3) -0.8273(3) 1.30049(18)
C9A C 0.5977(3) -0.3244(3) 0.67408(17)
H6A H 0.265(3) -0.100(4) 0.391(2)
H7A H 0.320(5) -0.225(4) 0.484(2)
H8A H 0.860(4) -0.133(4) 0.388(2)
H9A H 0.880(4) -0.227(4) 0.4908(17)
Na1_2 Na 0.33419(14) -0.58190(12) 0.61849(8)
Na1_3 Na 0.33419(14) 0.41810(12) -0.38151(8)
Na1A_2 Na 0.66581(14) -0.41810(12) 1.38151(8)
Na1A_3 Na 0.66581(14) 0.58190(12) 0.38151(8)
O1_2 O 0.1910(2) 0.5865(2) 0.85079(13)
O1A_2 O 0.8090(2) -0.5865(2) 0.14921(13)
O3_2 O 0.0816(3) 0.7076(2) 0.62390(14)
O3A_2 O 0.9184(3) -0.7076(2) 0.37610(14)
O4_2 O 0.3438(3) 0.2361(3) 0.80623(15)
O4A_2 O 0.6562(3) -0.2361(3) 0.19377(15)
O7_2 O 0.4075(3) -0.5671(2) 0.40055(13)
O7A_2 O 0.5925(3) 0.5671(2) 0.59945(13)
loop_
_geom_bond_atom_site_label_1
_geom_bond_atom_site_label_2
_geom_bond_site_symmetry_1
_geom_bond_site_symmetry_2
Co1 O6 1_555 1_555
Na1 O7 1_555 1_555
O1 C1 1_555 1_555
O2 C8 1_555 1_555
O3 C8 1_555 1_555
O4 N1 1_555 1_555
O5 N1 1_555 1_555
O6 C9 1_555 1_555
O7 C9 1_555 1_555
O8 Co1 1_555 1_555
O9 Co1 1_555 1_555
N1 C2 1_555 1_555
C1 C2 1_555 1_555
C2 C3 1_555 1_555
C3 H1 1_555 1_555
C4 C3 1_555 1_555
C5 C4 1_555 1_555
H2 C5 1_555 1_555
C6 C1 1_555 1_555
H3 C6 1_555 1_555
C7 O1 1_555 1_555
H4 C7 1_555 1_555
H5 C7 1_555 1_555
C8 C7 1_555 1_555
C9 C4 1_555 1_555
H6 O8 1_555 1_555
H7 O8 1_555 1_555
H8 O9 1_555 1_555
H9 O9 1_555 1_555
Na1A O7A 1_555 1_555
O1A C1A 1_555 1_555
O2A C8A 1_555 1_555
O3A C8A 1_555 1_555
O4A N1A 1_555 1_555
O5A N1A 1_555 1_555
O6A Co1 1_555 1_555
O7A C9A 1_555 1_555
O8A Co1 1_555 1_555
O9A Co1 1_555 1_555
N1A C2A 1_555 1_555
C1A C2A 1_555 1_555
C2A C3A 1_555 1_555
C3A H1A 1_555 1_555
C4A C3A 1_555 1_555
C5A C4A 1_555 1_555
H2A C5A 1_555 1_555
C6A C1A 1_555 1_555
H3A C6A 1_555 1_555
C7A O1A 1_555 1_555
H4A C7A 1_555 1_555
H5A C7A 1_555 1_555
C8A C7A 1_555 1_555
C9A O6A 1_555 1_555
H6A O8A 1_555 1_555
H7A O8A 1_555 1_555
H8A O9A 1_555 1_555
H9A O9A 1_555 1_555
Na1_2 O7A 1_555 1_555
Na1_3 O1 1_555 1_555
Na1A_2 O1A 1_555 1_555
Na1A_3 O7 1_555 1_555
O1_2 Na1 1_555 1_555
O1A_2 Na1A 1_555 1_555
O3_2 Na1 1_555 1_555
O3A_2 Na1A 1_555 1_555
O4_2 Na1 1_555 1_555
O4A_2 Na1A 1_555 1_555
O7_2 Na1A 1_555 1_555
O7A_2 Na1 1_555 1_555
Na1 O8 1_555 1_555
Na1 O9 1_555 1_555
O3 Na1_3 1_555 1_555
O4 Na1_3 1_555 1_555
C5 C6 1_555 1_555
Na1A O8A 1_555 1_555
Na1A O9A 1_555 1_555
O3A Na1A_2 1_555 1_555
O4A Na1A_2 1_555 1_555
C4A C9A 1_555 1_555
C5A C6A 1_555 1_555
Na1_2 O7_2 1_555 1_555
Na1A_3 O7A_2 1_555 1_555

#END
