
#######################################################################
#
#                 Cambridge Crystallographic Data Centre
#                                CCDC 
#
#######################################################################
#
# If this CIF has been generated from an entry in the Cambridge 
# Structural Database, then it will include bibliographic, chemical, 
# crystal, experimental, refinement or atomic coordinate data resulting 
# from the CCDC's data processing and validation procedures.
#
#######################################################################

data_WIBMEZ
_symmetry_cell_setting           tetragonal
_symmetry_space_group_name_H-M   'P 41 21 2'
_symmetry_Int_Tables_number      92
_space_group_name_Hall           'P 4abw 2nw'
loop_
_symmetry_equiv_pos_site_id
_symmetry_equiv_pos_as_xyz
1 x,y,z
2 1/2-y,1/2+x,1/4+z
3 -x,-y,1/2+z
4 1/2+y,1/2-x,3/4+z
5 y,x,-z
6 1/2+x,1/2-y,3/4-z
7 -y,-x,1/2-z
8 1/2-x,1/2+y,1/4-z
_cell_length_a                   8.2973(8)
_cell_length_b                   8.2973(8)
_cell_length_c                   29.4350(3)
_cell_angle_alpha                90
_cell_angle_beta                 90
_cell_angle_gamma                90
_cell_volume                     2026.46
loop_
_atom_site_label
_atom_site_type_symbol
_atom_site_fract_x
_atom_site_fract_y
_atom_site_fract_z
V1 V 0.45478(4) 0.82048(4) 0.00206(1)
Na1 Na 0.2366(1) 0.9581(1) 0.08695(3)
Na2 Na 0.3312(1) 0.6052(1) -0.10246(3)
O1 O 0.3162(2) 0.9576(2) 0.00619(6)
O2 O 0.5736(2) 0.9000(2) -0.05316(5)
O3 O 0.6554(2) 0.8628(2) 0.03040(5)
O4 O 0.3982(2) 0.6244(2) -0.02644(5)
O5 O 0.3914(2) 0.6958(2) 0.05807(5)
O6 O 0.8084(2) 1.0047(2) -0.07515(5)
O7 O 0.3248(2) 0.4516(2) 0.08305(5)
O8 O 0.5022(2) 1.0482(2) 0.09996(6)
O9 O 0.1121(2) 1.2009(2) 0.07096(7)
O10 O 0.1750(4) 0.8371(2) -0.12499(8)
C1 C 0.7203(2) 0.9449(2) -0.04578(7)
C2 C 0.7825(2) 0.9141(2) 0.00190(7)
C3 C 0.3610(2) 0.4924(2) 0.00197(7)
C4 C 0.3557(2) 0.5475(2) 0.05158(6)
H1 H 0.847(3) 1.0073(37) 0.0109(11)
H2 H 0.2599(35) 0.4427(36) -0.00871(99)
H3 H 0.5432(55) 1.0331(51) 0.1304(15)
H4 H 0.5778(59) 1.0185(55) 0.0820(14)
H5 H 0.0613(60) 1.2160(53) 0.0515(16)
H6 H 0.1764(52) 1.2825(54) 0.0716(16)
H7 H 0.1955(52) 0.9247(59) -0.1143(15)
H8 H 0.2028(57) 0.8530(55) -0.1504(17)
C2D C 0.9141(2) 0.7825(2) -0.00190(7)
O3D O 0.8628(2) 0.6554(2) -0.03040(5)
C1D C 0.9449(2) 0.7203(2) 0.04578(7)
O2D O 0.9000(2) 0.5736(2) 0.05316(5)
O6D O 1.0047(2) 0.8084(2) 0.07515(5)
H1D H 1.0073(37) 0.847(3) -0.0109(11)
C3D C 0.4924(2) 0.3610(2) -0.00197(7)
O4D O 0.6244(2) 0.3982(2) 0.02644(5)
C4D C 0.5475(2) 0.3557(2) -0.05158(6)
O5D O 0.6958(2) 0.3914(2) -0.05807(5)
O7D O 0.4516(2) 0.3248(2) -0.08305(5)
H2D H 0.4427(36) 0.2599(35) 0.00871(99)
V1D V 0.82048(4) 0.45478(4) -0.00206(1)
Na1D Na 0.9581(1) 0.2366(1) -0.08695(3)
Na2D Na 0.6052(1) 0.3312(1) 0.10246(3)
O8D O 0.0482(2) 0.5022(2) -0.09996(6)
H3D H 0.0331(51) 0.5432(55) -0.1304(15)
H4D H 0.0185(55) 0.5778(59) -0.0820(14)
O1D O 0.9576(2) 0.3162(2) -0.00619(6)
O9D O 1.2009(2) 0.1121(2) -0.07096(7)
H5D H 1.2160(53) 0.0613(60) -0.0515(16)
H6D H 1.2825(54) 0.1764(52) -0.0716(16)
O10D O 0.8371(2) 0.1750(4) 0.12499(8)
H7D H 0.9247(59) 0.1955(52) 0.1143(15)
H8D H 0.8530(55) 0.2028(57) 0.1504(17)
O6D_2 O 0.0047(2) 0.8084(2) 0.07515(5)
O7G O 0.1752(2) 0.9516(2) 0.16695(5)
O6E O 0.3084(2) 0.4953(2) -0.17485(5)
Na1D_2 Na 0.9581(1) 1.2366(1) -0.08695(3)
Na2E Na 0.8312(1) 0.8948(1) -0.14754(3)
Na1G Na 0.2634(1) 0.4581(1) 0.16305(3)
Na2D_2 Na 0.6052(1) 1.3312(1) 0.10246(3)
Na1_2 Na 1.2366(1) 0.9581(1) 0.08695(3)
Na2A Na 0.8948(1) 0.8312(1) 0.14754(3)
Na1C Na 0.4581(1) 0.2634(1) -0.16305(3)
O6_2 O 0.8084(2) 0.0047(2) -0.07515(5)
O7C O 0.9516(2) 0.1752(2) -0.16695(5)
O8D_2 O 1.0482(2) 0.5022(2) -0.09996(6)
O6A O 0.4953(2) 0.3084(2) 0.17485(5)
O8_2 O 0.5022(2) 0.0482(2) 0.09996(6)
Na1D_3 Na -0.0419(1) 0.2366(1) -0.08695(3)
H3D_2 H 1.0331(51) 0.5432(55) -0.1304(15)
H4D_2 H 1.0185(55) 0.5778(59) -0.0820(14)
H3_2 H 0.5432(55) 0.0331(51) 0.1304(15)
H4_2 H 0.5778(59) 0.0185(55) 0.0820(14)
loop_
_geom_bond_atom_site_label_1
_geom_bond_atom_site_label_2
_geom_bond_site_symmetry_1
_geom_bond_site_symmetry_2
V1 O1 1_555 1_555
Na1 O1 1_555 1_555
Na2 O4 1_555 1_555
O2 V1 1_555 1_555
O3 V1 1_555 1_555
O4 V1 1_555 1_555
O5 V1 1_555 1_555
O6 C1 1_555 1_555
O7 C4 1_555 1_555
O8 Na1 1_555 1_555
O9 Na1 1_555 1_555
O10 Na2 1_555 1_555
C1 O2 1_555 1_555
C2 O3 1_555 1_555
C3 O4 1_555 1_555
C4 O5 1_555 1_555
H1 C2 1_555 1_555
H2 C3 1_555 1_555
H3 O8 1_555 1_555
H4 O8 1_555 1_555
H5 O9 1_555 1_555
H6 O9 1_555 1_555
H7 O10 1_555 1_555
H8 O10 1_555 1_555
C2D C2 1_555 1_555
O3D C2D 1_555 1_555
C1D C2D 1_555 1_555
O2D C1D 1_555 1_555
O6D C1D 1_555 1_555
H1D C2D 1_555 1_555
C3D C3 1_555 1_555
O4D C3D 1_555 1_555
C4D C3D 1_555 1_555
O5D C4D 1_555 1_555
O7D Na2 1_555 1_555
H2D C3D 1_555 1_555
V1D O3D 1_555 1_555
Na1D O5D 1_555 1_555
Na2D O7 1_555 1_555
O8D Na2 1_555 1_555
H3D O8D 1_555 1_555
H4D O8D 1_555 1_555
O1D V1D 1_555 1_555
O9D Na1D 1_555 1_555
H5D O9D 1_555 1_555
H6D O9D 1_555 1_555
O10D Na2D 1_555 1_555
H7D O10D 1_555 1_555
H8D O10D 1_555 1_555
O6D_2 Na1 1_555 1_555
O7G Na1 1_555 1_555
O6E Na2 1_555 1_555
Na1D_2 O6 1_555 1_555
Na2E O6 1_555 1_555
Na1G O7 1_555 1_555
Na2D_2 O8 1_555 1_555
Na1_2 O6D 1_555 1_555
Na2A O6D 1_555 1_555
Na1C O7D 1_555 1_555
O6_2 Na1D 1_555 1_555
O7C Na1D 1_555 1_555
O8D_2 Na1D 1_555 1_555
O6A Na2D 1_555 1_555
O8_2 Na2D 1_555 1_555
Na1D_3 O8D 1_555 1_555
H3D_2 O8D_2 1_555 1_555
H4D_2 O8D_2 1_555 1_555
H3_2 O8_2 1_555 1_555
H4_2 O8_2 1_555 1_555
Na1 O5 1_555 1_555
C1 C2 1_555 1_555
C3 C4 1_555 1_555
O2D V1D 1_555 1_555
O4D V1D 1_555 1_555
O4D Na2D 1_555 1_555
C4D O7D 1_555 1_555
O5D V1D 1_555 1_555
Na1D O1D 1_555 1_555
O6E Na1C 1_555 1_555
Na1G O6A 1_555 1_555

#END
