
#######################################################################
#
#                 Cambridge Crystallographic Data Centre
#                                CCDC 
#
#######################################################################
#
# If this CIF has been generated from an entry in the Cambridge 
# Structural Database, then it will include bibliographic, chemical, 
# crystal, experimental, refinement or atomic coordinate data resulting 
# from the CCDC's data processing and validation procedures.
#
#######################################################################

data_WIBNOL
_symmetry_cell_setting           triclinic
_symmetry_space_group_name_H-M   'P -1'
_symmetry_Int_Tables_number      2
_space_group_name_Hall           '-P 1'
loop_
_symmetry_equiv_pos_site_id
_symmetry_equiv_pos_as_xyz
1 x,y,z
2 -x,-y,-z
_cell_length_a                   18.057(4)
_cell_length_b                   18.204(4)
_cell_length_c                   19.226(4)
_cell_angle_alpha                112.441(3)
_cell_angle_beta                 98.555(4)
_cell_angle_gamma                112.615(4)
_cell_volume                     5058.23
loop_
_atom_site_label
_atom_site_type_symbol
_atom_site_fract_x
_atom_site_fract_y
_atom_site_fract_z
Co1 Co 0.44466(5) 0.76968(5) 0.62973(5)
Co2 Co 0.38584(5) 0.48799(6) 0.74012(5)
Co3 Co 0.21214(5) 0.18910(5) 0.39738(5)
Co4 Co 0.26485(5) 0.46464(5) 0.27516(5)
Ni1 Ni 0.5000 1.0000 0.5000
N1 N 0.4166(3) 0.6781(3) 0.6675(3)
N2 N 0.3939(3) 0.5750(3) 0.7072(3)
N3 N 0.3310(3) 0.3862(3) 0.6344(3)
N4 N 0.2663(3) 0.2768(3) 0.5085(3)
N5 N 0.2190(3) 0.2736(3) 0.3605(3)
N6 N 0.2359(3) 0.3676(3) 0.3107(3)
N7 N 0.3227(3) 0.5695(3) 0.3874(3)
N8 N 0.3887(3) 0.6799(3) 0.5141(3)
N9 N 0.5615(3) 0.7919(3) 0.6320(3)
N10 N 0.6861(3) 0.8104(3) 0.6203(3)
N11 N 0.5018(3) 0.4905(3) 0.2535(3)
N12 N 0.3753(3) 0.4717(3) 0.2602(3)
N13 N 0.4880(5) 0.9476(5) 0.3809(4)
H1 H 0.5206 0.9989 0.3791
N14 N 0.3850(4) 0.9954(5) 0.4650(6)
H2 H 0.3458 0.9447 0.4637
C1 C 0.4454(4) 0.6274(4) 0.6822(4)
H15 H 0.4956 0.6277 0.6760
C2 C 0.3412(4) 0.6590(4) 0.6834(4)
C3 C 0.3279(4) 0.5940(4) 0.7088(4)
C4 C 0.2979(5) 0.7096(5) 0.6697(4)
C5 C 0.2640(4) 0.5446(5) 0.7375(4)
C6 C 0.3064(3) 0.3663(4) 0.5588(4)
H16 H 0.3159 0.4097 0.5420
C7 C 0.3039(4) 0.3049(4) 0.6340(4)
C8 C 0.2633(4) 0.2373(4) 0.5571(4)
C9 C 0.3291(4) 0.3144(5) 0.7161(4)
C10 C 0.2161(4) 0.1366(4) 0.5134(5)
C11 C 0.2695(4) 0.3242(4) 0.3355(3)
H17 H 0.3227 0.3292 0.3352
C12 C 0.1461(3) 0.2808(4) 0.3484(3)
C13 C 0.1569(3) 0.3394(4) 0.3176(3)
C14 C 0.0815(4) 0.2280(4) 0.3749(4)
C15 C 0.1037(5) 0.3760(5) 0.2917(4)
C16 C 0.3554(3) 0.5909(4) 0.4626(4)
H18 H 0.3556 0.5488 0.4787
C17 C 0.3356(4) 0.6493(4) 0.3881(4)
C18 C 0.3778(4) 0.7179(4) 0.4679(4)
C19 C 0.3013(5) 0.6461(5) 0.3128(4)
C20 C 0.4182(4) 0.8181(4) 0.5115(5)
C21 C 0.6021(4) 0.7627(4) 0.5847(4)
H19 H 0.5746 0.7145 0.5326
C22 C 0.6237(4) 0.8623(4) 0.7022(4)
C23 C 0.7020(4) 0.8741(4) 0.6959(4)
C24 C 0.5924(5) 0.9070(4) 0.7653(4)
C25 C 0.7951(4) 0.9338(4) 0.7462(4)
C26 C 0.4583(4) 0.5164(4) 0.3000(4)
H20 H 0.4837 0.5604 0.3538
C27 C 0.4425(4) 0.4254(4) 0.1791(4)
C28 C 0.3644(4) 0.4159(4) 0.1835(4)
C29 C 0.4777(5) 0.3865(5) 0.1184(4)
C30 C 0.2753(4) 0.3666(5) 0.1266(5)
C31 C 0.5317(6) 0.8957(6) 0.3547(5)
H21 H 0.4932 0.8329 0.3386
H22 H 0.5424 0.8978 0.3073
C32 C 0.4075(6) 0.9228(6) 0.3347(6)
H23 H 0.3708 0.8590 0.3167
H24 H 0.4119 0.9291 0.2874
C33 C 0.3632(6) 0.9748(7) 0.3738(7)
H25 H 0.3019 0.9389 0.3458
H26 H 0.3832 1.0312 0.3714
C34 C 0.3692(8) 1.0612(9) 0.5069(11)
H27 H 0.3095 1.0435 0.4844
H28 H 0.4041 1.1162 0.5055
C35 C 0.6109(8) 0.9233(8) 0.4112(8)
H29 H 0.6282 0.8790 0.3842
H30 H 0.6511 0.9796 0.4147
O1 O 0.3359(3) 0.7628(3) 0.6442(3)
O2 O 0.2285(3) 0.6941(4) 0.6794(3)
O3 O 0.2061(3) 0.5592(4) 0.7488(4)
O4 O 0.2806(3) 0.4846(3) 0.7486(3)
O5 O 0.3685(3) 0.3977(3) 0.7726(3)
O6 O 0.3122(4) 0.2480(4) 0.7275(3)
O7 O 0.1987(3) 0.0893(3) 0.5458(3)
O8 O 0.1925(3) 0.1029(3) 0.4357(3)
O9 O 0.1032(3) 0.1806(3) 0.4002(3)
O10 O 0.0144(3) 0.2315(3) 0.3725(3)
O11 O 0.0293(3) 0.3507(4) 0.2922(3)
O12 O 0.1426(3) 0.4359(3) 0.2714(3)
O13 O 0.2729(3) 0.5678(4) 0.2515(3)
O14 O 0.2951(4) 0.7075(4) 0.3074(4)
O15 O 0.4244(3) 0.8619(3) 0.4731(3)
O16 O 0.4490(3) 0.8534(3) 0.5870(3)
O17 O 0.5106(3) 0.8731(3) 0.7399(3)
O18 O 0.6407(3) 0.9675(4) 0.8314(3)
O19 O 0.8202(3) 0.9979(3) 0.8126(3)
O20 O 0.8433(3) 0.9099(3) 0.7109(3)
O21 O 0.5603(3) 0.4202(3) 0.1490(2)
O22 O 0.4349(3) 0.3318(4) 0.0498(3)
O23 O 0.2585(3) 0.3203(4) 0.0528(3)
O24 O 0.2202(3) 0.3767(3) 0.1553(3)
Co1A Co 0.55534(5) 1.23032(5) 0.37027(5)
Co2A Co 0.61416(5) 1.51201(6) 0.25988(5)
Co2A_2 Co 0.61416(5) 0.51201(6) 0.25988(5)
Co2_2 Co 0.38584(5) 1.48799(6) 0.74012(5)
Co3A Co 0.78786(5) 1.81090(5) 0.60262(5)
Co3A_2 Co 0.78786(5) 0.81090(5) 0.60262(5)
Co3_2 Co 0.21214(5) 1.18910(5) 0.39738(5)
Co4A Co 0.73515(5) 1.53536(5) 0.72484(5)
N1A N 0.5834(3) 1.3219(3) 0.3325(3)
N2A N 0.6061(3) 1.4250(3) 0.2928(3)
N3A N 0.6690(3) 1.6138(3) 0.3656(3)
N4A N 0.7337(3) 1.7232(3) 0.4915(3)
N5A N 0.7810(3) 1.7264(3) 0.6395(3)
N6A N 0.7641(3) 1.6324(3) 0.6893(3)
N7A N 0.6773(3) 1.4305(3) 0.6126(3)
N8A N 0.6113(3) 1.3201(3) 0.4859(3)
N9A N 0.4385(3) 1.2081(3) 0.3680(3)
N10A N 0.3139(3) 1.1896(3) 0.3797(3)
N10A_2 N 0.3139(3) 0.1896(3) 0.3797(3)
N10_2 N 0.6861(3) 1.8104(3) 0.6203(3)
N11A N 0.4982(3) 1.5095(3) 0.7465(3)
N11A_2 N 0.4982(3) 0.5095(3) 0.7465(3)
N11_2 N 0.5018(3) 1.4905(3) 0.2535(3)
N12A N 0.6247(3) 1.5283(3) 0.7398(3)
N13A N 0.5120(5) 1.0524(5) 0.6191(4)
H1A H 0.4794 1.0011 0.6209
N14A N 0.6150(4) 1.0046(5) 0.5350(6)
H2A H 0.6542 1.0553 0.5363
C1A C 0.5546(4) 1.3726(4) 0.3178(4)
H15A H 0.5044 1.3723 0.3240
C2A C 0.6588(4) 1.3410(4) 0.3166(4)
C3A C 0.6721(4) 1.4060(4) 0.2912(4)
C4A C 0.7021(5) 1.2904(5) 0.3303(4)
C5A C 0.7360(4) 1.4554(5) 0.2625(4)
C6A C 0.6936(3) 1.6337(4) 0.4412(4)
H16A H 0.6841 1.5903 0.4580
C7A C 0.6961(4) 1.6951(4) 0.3660(4)
C8A C 0.7367(4) 1.7627(4) 0.4429(4)
C9A C 0.6709(4) 1.6856(5) 0.2839(4)
C10A C 0.7839(4) 1.8634(4) 0.4866(5)
C11A C 0.7305(4) 1.6758(4) 0.6645(3)
H17A H 0.6773 1.6708 0.6648
C12A C 0.8539(3) 1.7192(4) 0.6516(3)
C13A C 0.8431(3) 1.6606(4) 0.6824(3)
C14A C 0.9185(4) 1.7720(4) 0.6251(4)
C15A C 0.8963(5) 1.6240(5) 0.7083(4)
C16A C 0.6446(3) 1.4091(4) 0.5374(4)
H18A H 0.6444 1.4512 0.5213
C17A C 0.6644(4) 1.3507(4) 0.6119(4)
C18A C 0.6222(4) 1.2821(4) 0.5321(4)
C19A C 0.6987(5) 1.3539(5) 0.6872(4)
C20A C 0.5818(4) 1.1819(4) 0.4885(5)
C21A C 0.3979(4) 1.2373(4) 0.4153(4)
H19A H 0.4254 1.2855 0.4674
C22A C 0.3763(4) 1.1377(4) 0.2978(4)
C23A C 0.2980(4) 1.1259(4) 0.3041(4)
C24A C 0.4076(5) 1.0930(4) 0.2347(4)
C25A C 0.2049(4) 1.0662(4) 0.2538(4)
C26A C 0.5417(4) 1.4836(4) 0.7000(4)
H20A H 0.5163 1.4396 0.6462
C27A C 0.5575(4) 1.5746(4) 0.8209(4)
C28A C 0.6356(4) 1.5841(4) 0.8165(4)
C29A C 0.5223(5) 1.6135(5) 0.8816(4)
C30A C 0.7247(4) 1.6334(5) 0.8734(5)
C31A C 0.4683(6) 1.1043(6) 0.6453(5)
H21A H 0.5068 1.1671 0.6614
H22A H 0.4576 1.1022 0.6927
C32A C 0.5925(6) 1.0772(6) 0.6653(6)
H23A H 0.6292 1.1410 0.6833
H24A H 0.5881 1.0709 0.7126
C33A C 0.6368(6) 1.0252(7) 0.6262(7)
H25A H 0.6981 1.0611 0.6542
H26A H 0.6168 0.9688 0.6286
C34A C 0.6308(8) 0.9388(9) 0.4931(11)
H27A H 0.6905 0.9565 0.5156
H28A H 0.5959 0.8838 0.4945
C35A C 0.3891(8) 1.0767(8) 0.5888(8)
H29A H 0.3718 1.1210 0.6158
H30A H 0.3489 1.0204 0.5853
O1A O 0.6641(3) 1.2372(3) 0.3558(3)
O2A O 0.7715(3) 1.3059(4) 0.3206(3)
O3A O 0.7939(3) 1.4408(4) 0.2512(4)
O4A O 0.7194(3) 1.5154(3) 0.2514(3)
O5A O 0.6315(3) 1.6023(3) 0.2274(3)
O6A O 0.6878(4) 1.7520(4) 0.2725(3)
O7A O 0.8013(3) 1.9107(3) 0.4542(3)
O8A O 0.8075(3) 1.8971(3) 0.5643(3)
O9A O 0.8968(3) 1.8194(3) 0.5998(3)
O10A O 0.9856(3) 1.7685(3) 0.6275(3)
O11A O 0.9707(3) 1.6493(4) 0.7078(3)
O12A O 0.8574(3) 1.5641(3) 0.7286(3)
O13A O 0.7271(3) 1.4322(4) 0.7485(3)
O14A O 0.7049(4) 1.2925(4) 0.6926(4)
O15A O 0.5756(3) 1.1381(3) 0.5269(3)
O16A O 0.5510(3) 1.1466(3) 0.4130(3)
O17A O 0.4894(3) 1.1269(3) 0.2601(3)
O18A O 0.3593(3) 1.0325(4) 0.1686(3)
O19A O 0.1798(3) 1.0021(3) 0.1874(3)
O20A O 0.1567(3) 1.0901(3) 0.2891(3)
O20A_2 O 0.1567(3) 0.0901(3) 0.2891(3)
O20_2 O 0.8433(3) 1.9099(3) 0.7109(3)
O21A O 0.4397(3) 1.5798(3) 0.8510(2)
O21A_2 O 0.4397(3) 0.5798(3) 0.8510(2)
O21_2 O 0.5603(3) 1.4202(3) 0.1490(2)
O22A O 0.5651(3) 1.6682(4) 0.9502(3)
O23A O 0.7415(3) 1.6797(4) 0.9472(3)
O24A O 0.7798(3) 1.6233(3) 0.8447(3)
Ni2 Ni 1.0000 0.5000 0.5000
N15 N 1.0727(3) 0.5315(4) 0.4345(3)
H3 H 1.0506 0.4806 0.3862
N16 N 0.9044(3) 0.5157(4) 0.4438(3)
H4 H 0.8721 0.4641 0.3959
C36 C 1.1580(4) 0.5491(5) 0.4746(4)
H31 H 1.1905 0.6107 0.5187
H32 H 1.1885 0.5422 0.4371
C37 C 1.0772(5) 0.6062(5) 0.4176(5)
H33 H 1.1114 0.6124 0.3837
H34 H 1.1052 0.6629 0.4676
C38 C 0.9905(6) 0.5890(5) 0.3772(5)
H35 H 0.9616 0.5298 0.3299
H36 H 0.9977 0.6335 0.3591
C39 C 0.9322(5) 0.5920(6) 0.4268(5)
H37 H 0.9623 0.6485 0.4770
H38 H 0.8823 0.5905 0.3979
C40 C 1.1483(5) 0.4829(5) 0.5055(5)
H39 H 1.2045 0.4975 0.5361
H40 H 1.1226 0.4223 0.4604
O26 O 0.9352(3) 0.3554(3) 0.4064(3)
N15A N 0.9273(3) 0.4685(4) 0.5655(3)
H3A H 0.9494 0.5194 0.6138
N16A N 1.0956(3) 0.4843(4) 0.5562(3)
H4A H 1.1279 0.5359 0.6041
C36A C 0.8420(4) 0.4509(5) 0.5254(4)
H31A H 0.8095 0.3893 0.4813
H32A H 0.8115 0.4578 0.5629
C37A C 0.9228(5) 0.3938(5) 0.5824(5)
H33A H 0.8886 0.3876 0.6163
H34A H 0.8948 0.3371 0.5324
C38A C 1.0095(6) 0.4110(5) 0.6228(5)
H35A H 1.0384 0.4702 0.6701
H36A H 1.0023 0.3665 0.6409
C39A C 1.0678(5) 0.4080(6) 0.5732(5)
H37A H 1.0377 0.3515 0.5230
H38A H 1.1177 0.4095 0.6021
C40A C 0.8517(5) 0.5171(5) 0.4945(5)
H39A H 0.7955 0.5025 0.4639
H40A H 0.8774 0.5777 0.5396
O26A O 1.0648(3) 0.6446(3) 0.5936(3)
Ni3 Ni 0.5000 0.0000 0.0000
N17 N 0.4750(6) 0.1052(6) 0.0277(5)
H5 H 0.4889 0.1257 -0.0074
N18 N 0.6101(6) 0.0864(6) 0.0931(6)
H6 H 0.6022 0.0787 0.1360
C41 C 0.3328(8) 0.0174(8) -0.0617(9)
H41 H 0.3574 0.0320 -0.0992
H42 H 0.2790 0.0186 -0.0706
C42 C 0.3906(8) 0.0908(9) 0.0202(7)
H43 H 0.3885 0.1461 0.0297
H44 H 0.3729 0.0739 0.0595
C43 C 0.5395(7) 0.1791(6) 0.1075(6)
H45 H 0.5213 0.1699 0.1498
H46 H 0.5467 0.2374 0.1145
C44 C 0.6239(8) 0.1766(7) 0.1105(7)
H47 H 0.6445 0.1917 0.0715
H48 H 0.6667 0.2209 0.1633
C45 C 0.3128(6) -0.0789(8) -0.0830(7)
H49 H 0.2640 -0.1217 -0.1323
H50 H 0.2995 -0.0919 -0.0405
O27 O 0.4370(5) -0.0515(5) 0.0818(4)
N17A N 0.5250(6) -0.1052(6) -0.0277(5)
H5A H 0.5111 -0.1257 0.0074
N18A N 0.3899(6) -0.0864(6) -0.0931(6)
H6A H 0.3978 -0.0787 -0.1360
C41A C 0.6672(8) -0.0174(8) 0.0617(9)
H41A H 0.6426 -0.0320 0.0992
H42A H 0.7210 -0.0186 0.0706
C42A C 0.6094(8) -0.0908(9) -0.0202(7)
H43A H 0.6115 -0.1461 -0.0297
H44A H 0.6271 -0.0739 -0.0595
C43A C 0.4605(7) -0.1791(6) -0.1075(6)
H45A H 0.4787 -0.1699 -0.1498
H46A H 0.4533 -0.2374 -0.1145
C44A C 0.3761(8) -0.1766(7) -0.1105(7)
H47A H 0.3555 -0.1917 -0.0715
H48A H 0.3333 -0.2209 -0.1633
C45A C 0.6872(6) 0.0789(8) 0.0830(7)
H49A H 0.7360 0.1217 0.1323
H50A H 0.7005 0.0919 0.0405
O27A O 0.5630(5) 0.0515(5) -0.0818(4)
Ni4 Ni 0.26205(7) 0.52139(8) 0.00104(6)
N19 N 0.2977(4) 0.6113(5) 0.1125(4)
H7 H 0.2771 0.5807 0.1392
N20 N 0.1735(5) 0.5539(6) -0.0194(5)
H8 H 0.1944 0.5949 -0.0370
N21 N 0.2285(6) 0.4312(6) -0.1114(5)
H9 H 0.2588 0.4626 -0.1338
N22 N 0.3497(5) 0.4885(6) 0.0234(5)
H10 H 0.3318 0.4541 0.0478
C46 C 0.2553(6) 0.6680(7) 0.1159(5)
H51 H 0.2559 0.6992 0.1698
H52 H 0.2847 0.7129 0.1003
C47 C 0.1662(7) 0.6049(7) 0.0592(5)
H53 H 0.1367 0.6382 0.0542
H54 H 0.1351 0.5635 0.0774
C48 C 0.0896(7) 0.4811(8) -0.0819(6)
H55 H 0.0638 0.4354 -0.0660
H56 H 0.0519 0.5065 -0.0869
C49 C 0.0989(7) 0.4388(8) -0.1595(6)
H57 H 0.1306 0.4858 -0.1721
H58 H 0.0426 0.3996 -0.2007
C50 C 0.1433(9) 0.3847(8) -0.1618(7)
H59 H 0.1112 0.3383 -0.1489
H60 H 0.1411 0.3540 -0.2165
C51 C 0.2634(8) 0.3710(7) -0.1096(7)
H61 H 0.2300 0.3305 -0.0916
H62 H 0.2612 0.3345 -0.1629
C52 C 0.3518(7) 0.4271(8) -0.0546(7)
H63 H 0.3870 0.4626 -0.0754
H64 H 0.3748 0.3895 -0.0470
C53 C 0.4361(7) 0.5607(8) 0.0761(7)
H65 H 0.4585 0.5993 0.0525
H66 H 0.4728 0.5343 0.0812
C54 C 0.4377(6) 0.6166(6) 0.1571(6)
H67 H 0.4966 0.6591 0.1924
H68 H 0.4120 0.5774 0.1792
C55 C 0.3905(6) 0.6680(6) 0.1542(6)
H69 H 0.4012 0.7105 0.2088
H70 H 0.4135 0.7030 0.1279
Ni5 Ni 0.0000 0.0000 0.0000
N23 N 0.0644(4) 0.1300(4) 0.0610(4)
H11 H 0.0791 0.1495 0.0255
N24 N 0.1054(4) -0.0005(4) 0.0393(4)
H12 H 0.1018 -0.0114 0.0814
C56 C 0.0286(6) 0.1821(5) 0.1029(5)
H71 H 0.0700 0.2461 0.1282
H72 H 0.0161 0.1675 0.1447
C57 C 0.1458(5) 0.1532(5) 0.1171(5)
H73 H 0.1363 0.1462 0.1631
H74 H 0.1878 0.2157 0.1361
C58 C 0.1776(5) 0.0909(5) 0.0736(5)
H75 H 0.1943 0.1027 0.0317
H76 H 0.2264 0.0984 0.1103
C59 C 0.1239(6) -0.0678(6) -0.0133(5)
H77 H 0.1764 -0.0615 0.0162
H78 H 0.1330 -0.0563 -0.0574
C60 C -0.0531(8) 0.1640(7) 0.0469(6)
H79 H -0.0414 0.1747 0.0030
H80 H -0.0718 0.2060 0.0761
N23A N -0.0644(4) -0.1300(4) -0.0610(4)
H11A H -0.0791 -0.1495 -0.0255
N24A N -0.1054(4) 0.0005(4) -0.0393(4)
H12A H -0.1018 0.0114 -0.0814
C56A C -0.0286(6) -0.1821(5) -0.1029(5)
H71A H -0.0700 -0.2461 -0.1282
H72A H -0.0161 -0.1675 -0.1447
C57A C -0.1458(5) -0.1532(5) -0.1171(5)
H73A H -0.1363 -0.1462 -0.1631
H74A H -0.1878 -0.2157 -0.1361
C58A C -0.1776(5) -0.0909(5) -0.0736(5)
H75A H -0.1943 -0.1027 -0.0317
H76A H -0.2264 -0.0984 -0.1103
C59A C -0.1239(6) 0.0678(6) 0.0133(5)
H77A H -0.1764 0.0615 -0.0162
H78A H -0.1330 0.0563 0.0574
C60A C 0.0531(8) -0.1640(7) -0.0469(6)
H79A H 0.0414 -0.1747 -0.0030
H80A H 0.0718 -0.2060 -0.0761
Ni6 Ni 1.0000 1.0000 0.5000
N25 N 0.9886(5) 0.8983(5) 0.4089(5)
H13 H 1.0390 0.9190 0.4001
N26 N 0.9733(5) 1.0525(5) 0.4367(4)
H14 H 1.0229 1.0822 0.4298
C61 C 0.9553(9) 1.1247(9) 0.4873(10)
H81 H 0.9631 1.1677 0.4674
H82 H 0.8968 1.0980 0.4859
C62 C 0.9075(6) 0.9933(9) 0.3548(7)
H83 H 0.8525 0.9607 0.3584
H84 H 0.9025 1.0306 0.3313
C63 C 0.9303(9) 0.9278(11) 0.3029(7)
H85 H 0.9886 0.9595 0.3055
H86 H 0.8929 0.8978 0.2477
C64 C 0.9215(7) 0.8569(7) 0.3303(7)
H87 H 0.8655 0.8313 0.3348
H88 H 0.9262 0.8081 0.2905
C65 C 0.9872(9) 0.8310(8) 0.4334(9)
H89 H 0.9298 0.7948 0.4305
H90 H 1.0034 0.7907 0.3973
N25A N 1.0114(5) 1.1017(5) 0.5911(5)
H13A H 0.9610 1.0810 0.5999
N26A N 1.0267(5) 0.9475(5) 0.5633(4)
H14A H 0.9771 0.9178 0.5702
C61A C 1.0447(9) 0.8753(9) 0.5127(10)
H81A H 1.0369 0.8323 0.5326
H82A H 1.1032 0.9020 0.5141
C62A C 1.0925(6) 1.0067(9) 0.6452(7)
H83A H 1.1475 1.0393 0.6416
H84A H 1.0975 0.9694 0.6687
C63A C 1.0697(9) 1.0722(11) 0.6971(7)
H85A H 1.0114 1.0405 0.6945
H86A H 1.1071 1.1022 0.7523
C64A C 1.0785(7) 1.1431(7) 0.6697(7)
H87A H 1.1345 1.1687 0.6652
H88A H 1.0738 1.1919 0.7095
C65A C 1.0128(9) 1.1690(8) 0.5666(9)
H89A H 1.0702 1.2052 0.5695
H90A H 0.9966 1.2093 0.6027
O25 O 0.5000 0.5000 0.5000
O28 O 0.3507(5) 0.6429(5) 0.9562(4)
O29 O 0.4794(5) 0.2208(6) 0.9337(5)
O30 O 0.8862(7) 0.2173(7) 0.8054(8)
O31 O 0.9662(5) 0.5352(6) 0.8148(5)
O32 O 0.8696(5) 0.3408(6) 0.7564(5)
O33 O 0.8621(5) 0.0859(4) 0.6451(4)
O34 O 0.7572(5) 0.1630(5) 0.4245(5)
O35 O 0.7358(5) 0.0351(5) 0.2744(4)
O36 O 0.5744(5) 0.0205(5) 0.2211(5)
O37 O 0.8752(4) 0.1184(5) 0.2261(4)
O38 O 0.8759(5) 0.3340(6) 0.1952(4)
O39 O 0.7863(9) 0.2772(8) 0.0393(7)
O40 O 1.0293(6) 0.2574(6) 0.9145(5)
O41 O 0.0970(5) 0.1607(8) 0.9265(5)
O42 O 0.7357(4) 0.8232(4) 0.0735(4)
O43 O 0.6671(5) 0.8442(5) 0.1967(4)
O44 O 0.2239(6) 0.8485(5) 0.1094(5)
O45 O 0.2148(6) 0.8237(5) 0.4238(5)
O46 O 0.0973(5) 0.3947(5) 0.0628(4)
O47 O 0.0084(4) 0.9726(6) 0.8221(5)
loop_
_geom_bond_atom_site_label_1
_geom_bond_atom_site_label_2
_geom_bond_site_symmetry_1
_geom_bond_site_symmetry_2
Co1 N1 1_555 1_555
Co2 N2 1_555 1_555
Co3 N4 1_555 1_555
Co4 N6 1_555 1_555
Ni1 N13 1_555 1_555
Ni2 N15 1_555 1_555
Ni3 N17 1_555 1_555
Ni4 N19 1_555 1_555
Ni5 N23 1_555 1_555
Ni6 N25 1_555 1_555
N1 C1 1_555 1_555
N2 C1 1_555 1_555
N3 Co2 1_555 1_555
N4 C6 1_555 1_555
N5 Co3 1_555 1_555
N6 C11 1_555 1_555
N7 Co4 1_555 1_555
N8 Co1 1_555 1_555
N9 Co1 1_555 1_555
N10 C21 1_555 1_555
N11 C26 1_555 1_555
N12 Co4 1_555 1_555
N13 H1 1_555 1_555
N14 Ni1 1_555 1_555
H2 N14 1_555 1_555
N15 H3 1_555 1_555
N16 Ni2 1_555 1_555
H4 N16 1_555 1_555
N17 H5 1_555 1_555
N18 Ni3 1_555 1_555
H6 N18 1_555 1_555
N19 H7 1_555 1_555
N20 Ni4 1_555 1_555
H8 N20 1_555 1_555
N21 Ni4 1_555 1_555
H9 N21 1_555 1_555
N22 Ni4 1_555 1_555
H10 N22 1_555 1_555
N23 H11 1_555 1_555
N24 Ni5 1_555 1_555
H12 N24 1_555 1_555
N25 H13 1_555 1_555
N26 Ni6 1_555 1_555
H14 N26 1_555 1_555
C1 H15 1_555 1_555
C2 N1 1_555 1_555
C3 N2 1_555 1_555
C4 C2 1_555 1_555
C5 C3 1_555 1_555
C6 N3 1_555 1_555
H16 C6 1_555 1_555
C7 N3 1_555 1_555
C8 N4 1_555 1_555
C9 C7 1_555 1_555
C10 C8 1_555 1_555
C11 N5 1_555 1_555
H17 C11 1_555 1_555
C12 N5 1_555 1_555
C13 N6 1_555 1_555
C14 C12 1_555 1_555
C15 C13 1_555 1_555
C16 N7 1_555 1_555
H18 C16 1_555 1_555
C17 N7 1_555 1_555
C18 N8 1_555 1_555
C19 C17 1_555 1_555
C20 C18 1_555 1_555
C21 N9 1_555 1_555
H19 C21 1_555 1_555
C22 N9 1_555 1_555
C23 N10 1_555 1_555
C24 C22 1_555 1_555
C25 C23 1_555 1_555
C26 N12 1_555 1_555
H20 C26 1_555 1_555
C27 N11 1_555 1_555
C28 N12 1_555 1_555
C29 C27 1_555 1_555
C30 C28 1_555 1_555
C31 N13 1_555 1_555
H21 C31 1_555 1_555
H22 C31 1_555 1_555
C32 N13 1_555 1_555
H23 C32 1_555 1_555
H24 C32 1_555 1_555
C33 N14 1_555 1_555
H25 C33 1_555 1_555
H26 C33 1_555 1_555
C34 N14 1_555 1_555
H27 C34 1_555 1_555
H28 C34 1_555 1_555
C35 C31 1_555 1_555
H29 C35 1_555 1_555
H30 C35 1_555 1_555
C36 N15 1_555 1_555
H31 C36 1_555 1_555
H32 C36 1_555 1_555
C37 N15 1_555 1_555
H33 C37 1_555 1_555
H34 C37 1_555 1_555
C38 C37 1_555 1_555
H35 C38 1_555 1_555
H36 C38 1_555 1_555
C39 N16 1_555 1_555
H37 C39 1_555 1_555
H38 C39 1_555 1_555
C40 C36 1_555 1_555
H39 C40 1_555 1_555
H40 C40 1_555 1_555
C41 H41 1_555 1_555
H42 C41 1_555 1_555
C42 N17 1_555 1_555
H43 C42 1_555 1_555
H44 C42 1_555 1_555
C43 N17 1_555 1_555
H45 C43 1_555 1_555
H46 C43 1_555 1_555
C44 N18 1_555 1_555
H47 C44 1_555 1_555
H48 C44 1_555 1_555
C45 C41 1_555 1_555
H49 C45 1_555 1_555
H50 C45 1_555 1_555
C46 N19 1_555 1_555
H51 C46 1_555 1_555
H52 C46 1_555 1_555
C47 N20 1_555 1_555
H53 C47 1_555 1_555
H54 C47 1_555 1_555
C48 N20 1_555 1_555
H55 C48 1_555 1_555
H56 C48 1_555 1_555
C49 C48 1_555 1_555
H57 C49 1_555 1_555
H58 C49 1_555 1_555
C50 N21 1_555 1_555
H59 C50 1_555 1_555
H60 C50 1_555 1_555
C51 N21 1_555 1_555
H61 C51 1_555 1_555
H62 C51 1_555 1_555
C52 N22 1_555 1_555
H63 C52 1_555 1_555
H64 C52 1_555 1_555
C53 N22 1_555 1_555
H65 C53 1_555 1_555
H66 C53 1_555 1_555
C54 C53 1_555 1_555
H67 C54 1_555 1_555
H68 C54 1_555 1_555
C55 N19 1_555 1_555
H69 C55 1_555 1_555
H70 C55 1_555 1_555
C56 N23 1_555 1_555
H71 C56 1_555 1_555
H72 C56 1_555 1_555
C57 N23 1_555 1_555
H73 C57 1_555 1_555
H74 C57 1_555 1_555
C58 N24 1_555 1_555
H75 C58 1_555 1_555
H76 C58 1_555 1_555
C59 N24 1_555 1_555
H77 C59 1_555 1_555
H78 C59 1_555 1_555
C60 C56 1_555 1_555
H79 C60 1_555 1_555
H80 C60 1_555 1_555
C61 N26 1_555 1_555
H81 C61 1_555 1_555
H82 C61 1_555 1_555
C62 N26 1_555 1_555
H83 C62 1_555 1_555
H84 C62 1_555 1_555
C63 C62 1_555 1_555
H85 C63 1_555 1_555
H86 C63 1_555 1_555
C64 N25 1_555 1_555
H87 C64 1_555 1_555
H88 C64 1_555 1_555
C65 N25 1_555 1_555
H89 C65 1_555 1_555
H90 C65 1_555 1_555
O1 Co1 1_555 1_555
O2 C4 1_555 1_555
O3 C5 1_555 1_555
O4 Co2 1_555 1_555
O5 Co2 1_555 1_555
O6 C9 1_555 1_555
O7 C10 1_555 1_555
O8 Co3 1_555 1_555
O9 Co3 1_555 1_555
O10 C14 1_555 1_555
O11 C15 1_555 1_555
O12 Co4 1_555 1_555
O13 Co4 1_555 1_555
O14 C19 1_555 1_555
O15 Ni1 1_555 1_555
O16 Co1 1_555 1_555
O17 Co1 1_555 1_555
O18 C24 1_555 1_555
O19 C25 1_555 1_555
O20 C25 1_555 1_555
O21 C29 1_555 1_555
O22 C29 1_555 1_555
O23 C30 1_555 1_555
O24 Co4 1_555 1_555
O26 Ni2 1_555 1_555
O27 Ni3 1_555 1_555
Co1A N1A 1_555 1_555
Co2A N2A 1_555 1_555
Co2A_2 N11 1_555 1_555
Co2_2 N11A 1_555 1_555
Co3A N4A 1_555 1_555
Co3A_2 N10 1_555 1_555
Co3_2 N10A 1_555 1_555
Co4A N6A 1_555 1_555
N1A C1A 1_555 1_555
N2A C1A 1_555 1_555
N3A Co2A 1_555 1_555
N4A C6A 1_555 1_555
N5A Co3A 1_555 1_555
N6A C11A 1_555 1_555
N7A Co4A 1_555 1_555
N8A Co1A 1_555 1_555
N9A Co1A 1_555 1_555
N10A C21A 1_555 1_555
N10A_2 Co3 1_555 1_555
N10_2 Co3A 1_555 1_555
N11A C26A 1_555 1_555
N11A_2 Co2 1_555 1_555
N11_2 Co2A 1_555 1_555
N12A Co4A 1_555 1_555
N13A Ni1 1_555 1_555
H1A N13A 1_555 1_555
N14A Ni1 1_555 1_555
H2A N14A 1_555 1_555
N15A Ni2 1_555 1_555
H3A N15A 1_555 1_555
N16A Ni2 1_555 1_555
H4A N16A 1_555 1_555
N17A Ni3 1_555 1_555
H5A N17A 1_555 1_555
N18A Ni3 1_555 1_555
H6A N18A 1_555 1_555
N23A Ni5 1_555 1_555
H11A N23A 1_555 1_555
N24A Ni5 1_555 1_555
H12A N24A 1_555 1_555
N25A Ni6 1_555 1_555
H13A N25A 1_555 1_555
N26A Ni6 1_555 1_555
H14A N26A 1_555 1_555
C1A H15A 1_555 1_555
C2A N1A 1_555 1_555
C3A N2A 1_555 1_555
C4A C2A 1_555 1_555
C5A C3A 1_555 1_555
C6A N3A 1_555 1_555
H16A C6A 1_555 1_555
C7A N3A 1_555 1_555
C8A N4A 1_555 1_555
C9A C7A 1_555 1_555
C10A C8A 1_555 1_555
C11A N5A 1_555 1_555
H17A C11A 1_555 1_555
C12A N5A 1_555 1_555
C13A N6A 1_555 1_555
C14A C12A 1_555 1_555
C15A C13A 1_555 1_555
C16A N7A 1_555 1_555
H18A C16A 1_555 1_555
C17A N7A 1_555 1_555
C18A N8A 1_555 1_555
C19A C17A 1_555 1_555
C20A C18A 1_555 1_555
C21A N9A 1_555 1_555
H19A C21A 1_555 1_555
C22A N9A 1_555 1_555
C23A N10A 1_555 1_555
C24A C22A 1_555 1_555
C25A C23A 1_555 1_555
C26A N12A 1_555 1_555
H20A C26A 1_555 1_555
C27A N11A 1_555 1_555
C28A N12A 1_555 1_555
C29A C27A 1_555 1_555
C30A C28A 1_555 1_555
C31A N13A 1_555 1_555
H21A C31A 1_555 1_555
H22A C31A 1_555 1_555
C32A N13A 1_555 1_555
H23A C32A 1_555 1_555
H24A C32A 1_555 1_555
C33A N14A 1_555 1_555
H25A C33A 1_555 1_555
H26A C33A 1_555 1_555
C34A C35 1_555 1_555
H27A C34A 1_555 1_555
H28A C34A 1_555 1_555
C35A C34 1_555 1_555
H29A C35A 1_555 1_555
H30A C35A 1_555 1_555
C36A N15A 1_555 1_555
H31A C36A 1_555 1_555
H32A C36A 1_555 1_555
C37A N15A 1_555 1_555
H33A C37A 1_555 1_555
H34A C37A 1_555 1_555
C38A C37A 1_555 1_555
H35A C38A 1_555 1_555
H36A C38A 1_555 1_555
C39A N16A 1_555 1_555
H37A C39A 1_555 1_555
H38A C39A 1_555 1_555
C40A N16 1_555 1_555
H39A C40A 1_555 1_555
H40A C40A 1_555 1_555
C41A H41A 1_555 1_555
H42A C41A 1_555 1_555
C42A N17A 1_555 1_555
H43A C42A 1_555 1_555
H44A C42A 1_555 1_555
C43A N17A 1_555 1_555
H45A C43A 1_555 1_555
H46A C43A 1_555 1_555
C44A N18A 1_555 1_555
H47A C44A 1_555 1_555
H48A C44A 1_555 1_555
C45A N18 1_555 1_555
H49A C45A 1_555 1_555
H50A C45A 1_555 1_555
C56A N23A 1_555 1_555
H71A C56A 1_555 1_555
H72A C56A 1_555 1_555
C57A N23A 1_555 1_555
H73A C57A 1_555 1_555
H74A C57A 1_555 1_555
C58A N24A 1_555 1_555
H75A C58A 1_555 1_555
H76A C58A 1_555 1_555
C59A C60 1_555 1_555
H77A C59A 1_555 1_555
H78A C59A 1_555 1_555
C60A C59 1_555 1_555
H79A C60A 1_555 1_555
H80A C60A 1_555 1_555
C61A C65 1_555 1_555
H81A C61A 1_555 1_555
H82A C61A 1_555 1_555
C62A N26A 1_555 1_555
H83A C62A 1_555 1_555
H84A C62A 1_555 1_555
C63A C62A 1_555 1_555
H85A C63A 1_555 1_555
H86A C63A 1_555 1_555
C64A N25A 1_555 1_555
H87A C64A 1_555 1_555
H88A C64A 1_555 1_555
C65A C61 1_555 1_555
H89A C65A 1_555 1_555
H90A C65A 1_555 1_555
O1A Co1A 1_555 1_555
O2A C4A 1_555 1_555
O3A C5A 1_555 1_555
O4A Co2A 1_555 1_555
O5A Co2A 1_555 1_555
O6A C9A 1_555 1_555
O7A C10A 1_555 1_555
O8A Co3A 1_555 1_555
O9A Co3A 1_555 1_555
O10A C14A 1_555 1_555
O11A C15A 1_555 1_555
O12A Co4A 1_555 1_555
O13A Co4A 1_555 1_555
O14A C19A 1_555 1_555
O15A Ni1 1_555 1_555
O16A Co1A 1_555 1_555
O17A Co1A 1_555 1_555
O18A C24A 1_555 1_555
O19A C25A 1_555 1_555
O20A Co3_2 1_555 1_555
O20A_2 Co3 1_555 1_555
O20_2 Co3A 1_555 1_555
O21A Co2_2 1_555 1_555
O21A_2 Co2 1_555 1_555
O21_2 Co2A 1_555 1_555
O22A C29A 1_555 1_555
O23A C30A 1_555 1_555
O24A Co4A 1_555 1_555
O26A Ni2 1_555 1_555
O27A Ni3 1_555 1_555
N8 C16 1_555 1_555
C2 C3 1_555 1_555
C4 O1 1_555 1_555
C5 O4 1_555 1_555
C7 C8 1_555 1_555
C9 O5 1_555 1_555
C10 O8 1_555 1_555
C12 C13 1_555 1_555
C14 O9 1_555 1_555
C15 O12 1_555 1_555
C17 C18 1_555 1_555
C19 O13 1_555 1_555
C20 O15 1_555 1_555
C20 O16 1_555 1_555
C22 C23 1_555 1_555
C24 O17 1_555 1_555
C27 C28 1_555 1_555
C30 O24 1_555 1_555
C32 C33 1_555 1_555
C38 C39 1_555 1_555
C40 N16A 1_555 1_555
C41 C42 1_555 1_555
C43 C44 1_555 1_555
C45 N18A 1_555 1_555
C46 C47 1_555 1_555
C49 C50 1_555 1_555
C51 C52 1_555 1_555
C54 C55 1_555 1_555
C57 C58 1_555 1_555
C63 C64 1_555 1_555
O20 Co3A_2 1_555 1_555
O21 Co2A_2 1_555 1_555
N8A C16A 1_555 1_555
N14A C34A 1_555 1_555
N24A C59A 1_555 1_555
N25A C65A 1_555 1_555
N26A C61A 1_555 1_555
C2A C3A 1_555 1_555
C4A O1A 1_555 1_555
C5A O4A 1_555 1_555
C7A C8A 1_555 1_555
C9A O5A 1_555 1_555
C10A O8A 1_555 1_555
C12A C13A 1_555 1_555
C14A O9A 1_555 1_555
C15A O12A 1_555 1_555
C17A C18A 1_555 1_555
C19A O13A 1_555 1_555
C20A O15A 1_555 1_555
C20A O16A 1_555 1_555
C22A C23A 1_555 1_555
C24A O17A 1_555 1_555
C25A O20A 1_555 1_555
C27A C28A 1_555 1_555
C29A O21A 1_555 1_555
C30A O24A 1_555 1_555
C31A C35A 1_555 1_555
C32A C33A 1_555 1_555
C36A C40A 1_555 1_555
C38A C39A 1_555 1_555
C41A C42A 1_555 1_555
C41A C45A 1_555 1_555
C43A C44A 1_555 1_555
C56A C60A 1_555 1_555
C57A C58A 1_555 1_555
C63A C64A 1_555 1_555

#END
