
#######################################################################
#
#                 Cambridge Crystallographic Data Centre
#                                CCDC 
#
#######################################################################
#
# If this CIF has been generated from an entry in the Cambridge 
# Structural Database, then it will include bibliographic, chemical, 
# crystal, experimental, refinement or atomic coordinate data resulting 
# from the CCDC's data processing and validation procedures.
#
#######################################################################

data_WICBAM
_symmetry_cell_setting           triclinic
_symmetry_space_group_name_H-M   'P -1'
_symmetry_Int_Tables_number      2
_space_group_name_Hall           '-P 1'
loop_
_symmetry_equiv_pos_site_id
_symmetry_equiv_pos_as_xyz
1 x,y,z
2 -x,-y,-z
_cell_length_a                   12.7533(8)
_cell_length_b                   13.4046(8)
_cell_length_c                   22.4209(13)
_cell_angle_alpha                81.9610(10)
_cell_angle_beta                 77.6930(10)
_cell_angle_gamma                79.6730(10)
_cell_volume                     3663.52
loop_
_atom_site_label
_atom_site_type_symbol
_atom_site_fract_x
_atom_site_fract_y
_atom_site_fract_z
C1 C 0.7532(6) 0.8227(5) 0.6586(3)
C2 C 0.6580(7) 0.7937(6) 0.8331(3)
C3 C 0.6322(6) 0.9455(6) 0.7407(3)
C4 C 0.7813(7) 0.6661(6) 0.7475(3)
C5 C 0.8258(7) 0.8474(5) 0.7553(3)
C6 C 0.8604(7) 0.6975(5) 0.4982(4)
H1 H 0.8864 0.6854 0.4555
H2 H 0.9192 0.6710 0.5200
C7 C 0.7661(6) 0.6408(5) 0.5246(4)
C8 C 0.6952(8) 0.6281(6) 0.4880(4)
H3 H 0.7071 0.6528 0.4467
C9 C 0.6056(9) 0.5781(7) 0.5133(6)
H4 H 0.5588 0.5692 0.4886
C10 C 0.5867(9) 0.5423(7) 0.5745(6)
H5 H 0.5265 0.5103 0.5913
C11 C 0.6578(9) 0.5542(7) 0.6112(5)
H6 H 0.6461 0.5291 0.6525
C12 C 0.7468(8) 0.6038(6) 0.5858(4)
H7 H 0.7939 0.6121 0.6105
C13 C 0.6665(6) 0.9528(6) 0.5032(4)
H8 H 0.6736 1.0203 0.5111
H9 H 0.6508 0.9587 0.4623
C14 C 0.5701(6) 0.9190(6) 0.5485(3)
C15 C 0.5206(7) 0.8401(6) 0.5376(4)
H10 H 0.5478 0.8084 0.5019
C16 C 0.4331(8) 0.8081(7) 0.5779(5)
H11 H 0.4015 0.7556 0.5694
C17 C 0.3929(7) 0.8534(8) 0.6301(4)
H12 H 0.3336 0.8315 0.6574
C18 C 0.4385(8) 0.9320(9) 0.6437(4)
H13 H 0.4097 0.9632 0.6794
C19 C 0.5278(7) 0.9633(7) 0.6030(4)
H14 H 0.5600 1.0147 0.6122
C20 C 1.1491(6) 0.9205(6) 0.3807(4)
H15 H 1.1896 0.9684 0.3527
H16 H 1.1915 0.8912 0.4118
C21 C 1.1383(6) 0.8360(5) 0.3453(3)
C22 C 1.1503(8) 0.8507(7) 0.2819(4)
H17 H 1.1638 0.9133 0.2608
C23 C 1.1424(10) 0.7719(9) 0.2504(5)
H18 H 1.1490 0.7827 0.2079
C24 C 1.1251(10) 0.6791(9) 0.2797(6)
H19 H 1.1207 0.6269 0.2575
C25 C 1.1142(9) 0.6627(7) 0.3426(6)
H20 H 1.1030 0.5989 0.3629
C26 C 1.1198(8) 0.7411(6) 0.3758(5)
H21 H 1.1112 0.7302 0.4183
C27 C 0.9000(7) 1.1318(6) 0.3901(4)
H22 H 0.9161 1.1336 0.3458
H23 H 0.8255 1.1196 0.4037
C28 C 0.9040(7) 1.2385(6) 0.4053(4)
C29 C 0.8386(8) 1.2770(7) 0.4572(4)
H24 H 0.7935 1.2367 0.4844
C30 C 0.8404(9) 1.3760(7) 0.4690(4)
H25 H 0.7971 1.4011 0.5043
C31 C 0.9047(9) 1.4359(7) 0.4294(5)
H26 H 0.9041 1.5024 0.4372
C32 C 0.9709(8) 1.3993(7) 0.3777(4)
H27 H 1.0153 1.4408 0.3510
C33 C 0.9716(7) 1.3009(6) 0.3654(4)
H28 H 1.0170 1.2762 0.3306
C34 C 0.8596(8) 0.8856(7) 0.3573(3)
H29 H 0.9010 0.8208 0.3458
H30 H 0.7835 0.8778 0.3672
C35 C 0.873(3) 0.952(2) 0.3108(15)
H31 H 0.8505 0.9305 0.2772
H32 H 0.9490 0.9588 0.2993
H33 H 0.8314 1.0164 0.3209
C36 C 0.5310(8) 0.6435(7) 0.9990(4)
H34 H 0.5616 0.5882 1.0260
H35 H 0.4571 0.6667 1.0191
C37 C 0.5271(8) 0.6020(6) 0.9404(4)
C38 C 0.6153(9) 0.5401(7) 0.9115(4)
H36 H 0.6778 0.5227 0.9281
C39 C 0.6107(12) 0.5028(8) 0.8568(5)
H37 H 0.6705 0.4615 0.8366
C40 C 0.5166(15) 0.5282(10) 0.8331(5)
H38 H 0.5133 0.5031 0.7971
C41 C 0.4299(13) 0.5885(10) 0.8614(6)
H39 H 0.3664 0.6039 0.8456
C42 C 0.4366(9) 0.6279(8) 0.9150(5)
H40 H 0.3782 0.6725 0.9336
C43 C 0.7939(8) 0.7390(7) 0.9806(5)
H41 H 0.8258 0.7895 0.9501
H42 H 0.8116 0.7461 1.0196
C44 C 0.8415(8) 0.6349(7) 0.9625(5)
C45 C 0.8440(10) 0.5511(9) 1.0049(7)
H43 H 0.8173 0.5592 1.0462
C46 C 0.8863(13) 0.4525(11) 0.9874(9)
H44 H 0.8894 0.3957 1.0165
C47 C 0.9229(13) 0.4433(12) 0.9256(10)
H45 H 0.9505 0.3788 0.9133
C48 C 0.9205(11) 0.5244(12) 0.8819(8)
H46 H 0.9462 0.5166 0.8405
C49 C 0.8782(9) 0.6182(9) 0.9016(6)
H47 H 0.8740 0.6742 0.8721
C50 C 0.6293(8) 1.0223(7) 1.0992(5)
H48 H 0.6720 1.0525 1.0622
H49 H 0.5948 1.0768 1.1244
C51 C 0.7040(7) 0.9498(7) 1.1330(4)
C52 C 0.8057(9) 0.9064(9) 1.1044(5)
H50 H 0.8296 0.9233 1.0627
C53 C 0.8735(10) 0.8363(11) 1.1383(8)
H51 H 0.9415 0.8067 1.1188
C54 C 0.8391(13) 0.8124(13) 1.1993(8)
H52 H 0.8853 0.7690 1.2219
C55 C 0.7387(12) 0.8508(13) 1.2276(6)
H53 H 0.7141 0.8301 1.2688
C56 C 0.6726(9) 0.9208(10) 1.1954(5)
H54 H 0.6050 0.9495 1.2160
C57 C 0.3496(8) 0.9374(6) 1.1289(4)
H55 H 0.3605 0.8864 1.1631
H56 H 0.3155 1.0009 1.1456
C58 C 0.2752(8) 0.9056(8) 1.0958(4)
C59 C 0.2884(10) 0.8092(11) 1.0789(6)
H57 H 0.3476 0.7622 1.0878
C60 C 0.2195(13) 0.7808(17) 1.0501(9)
H58 H 0.2298 0.7141 1.0402
C61 C 0.1341(19) 0.849(2) 1.0352(8)
H59 H 0.0888 0.8296 1.0128
C62 C 0.1145(15) 0.9447(19) 1.0532(9)
H60 H 0.0539 0.9902 1.0448
C63 C 0.1852(12) 0.9733(11) 1.0836(7)
H61 H 0.1724 1.0384 1.0960
C64 C 0.5720(13) 0.7331(9) 1.1373(6)
H62 H 0.5589 0.7739 1.1714
H63 H 0.5109 0.6967 1.1425
C65 C 0.660(2) 0.667(2) 1.1398(10)
H64 H 0.6506 0.6250 1.1785
H65 H 0.7205 0.7018 1.1359
H66 H 0.6724 0.6245 1.1070
N1 N 0.7896(5) 0.8379(4) 0.6074(3)
N2 N 0.6361(6) 0.7931(5) 0.8851(3)
N3 N 0.5964(6) 1.0295(6) 0.7374(3)
N4 N 0.8297(8) 0.5857(6) 0.7471(4)
N5 N 0.9033(7) 0.8744(6) 0.7608(4)
N6 N 0.5868(6) 0.7575(5) 0.7359(3)
O1 O 0.8894(4) 0.9064(4) 0.41124(19)
O2 O 0.9345(4) 0.9369(3) 0.51023(19)
O3 O 0.5756(5) 0.7995(4) 1.0821(2)
O4 O 0.5480(4) 0.9134(4) 0.9865(2)
O5 O 0.5147(6) 0.7234(6) 0.7303(3)
Fe1 Fe 0.69530(9) 0.80135(8) 0.74490(4)
Sn1 Sn 0.81834(4) 0.85724(3) 0.50381(2)
Sn2 Sn 1.00002(4) 1.00327(3) 0.424700(19)
Sn3 Sn 0.62251(5) 0.76648(4) 0.98833(2)
Sn4 Sn 0.50502(5) 0.95827(4) 1.07375(2)
O2A O 1.0655(4) 1.0631(3) 0.48977(19)
O4A O 0.4520(4) 1.0866(4) 1.0135(2)
Sn2A Sn 0.99998(4) 0.99673(3) 0.575300(19)
Sn4A Sn 0.49498(5) 1.04173(4) 0.92625(2)
C66 C 0.1139(12) 0.8812(12) 0.8271(6)
H67 H 0.0601 0.8963 0.8011
H68 H 0.1219 0.9448 0.8404
Cl1 Cl 0.0694(6) 0.7995(6) 0.8906(2)
Cl2 Cl 0.2314(7) 0.8310(6) 0.7872(4)
C67 C 0.4120(10) 0.7343(9) 0.3384(5)
H69 H 0.3494 0.7033 0.3374
H70 H 0.4046 0.8007 0.3147
Cl3 Cl 0.4102(3) 0.7517(3) 0.41384(17)
Cl4 Cl 0.5268(5) 0.6602(4) 0.3034(2)
C68 C 0.177(2) 0.5739(17) 0.7517(13)
Cl5 Cl 0.3070(6) 0.5974(4) 0.7028(3)
Cl6 Cl 0.2052(9) 0.4613(9) 0.7930(5)
Cl7? Cl 0.1784(13) 0.4401(10) 0.7254(10)
loop_
_geom_bond_atom_site_label_1
_geom_bond_atom_site_label_2
_geom_bond_site_symmetry_1
_geom_bond_site_symmetry_2
C1 N1 1_555 1_555
C2 N2 1_555 1_555
C3 N3 1_555 1_555
C4 N4 1_555 1_555
C5 N5 1_555 1_555
C6 H1 1_555 1_555
H2 C6 1_555 1_555
C7 C6 1_555 1_555
C8 C7 1_555 1_555
H3 C8 1_555 1_555
C9 C8 1_555 1_555
H4 C9 1_555 1_555
C10 C9 1_555 1_555
H5 C10 1_555 1_555
C11 C10 1_555 1_555
H6 C11 1_555 1_555
C12 C7 1_555 1_555
H7 C12 1_555 1_555
C13 H8 1_555 1_555
H9 C13 1_555 1_555
C14 C13 1_555 1_555
C15 C14 1_555 1_555
H10 C15 1_555 1_555
C16 C15 1_555 1_555
H11 C16 1_555 1_555
C17 C16 1_555 1_555
H12 C17 1_555 1_555
C18 C17 1_555 1_555
H13 C18 1_555 1_555
C19 C14 1_555 1_555
H14 C19 1_555 1_555
C20 H15 1_555 1_555
H16 C20 1_555 1_555
C21 C20 1_555 1_555
C22 C21 1_555 1_555
H17 C22 1_555 1_555
C23 C22 1_555 1_555
H18 C23 1_555 1_555
C24 C23 1_555 1_555
H19 C24 1_555 1_555
C25 C24 1_555 1_555
H20 C25 1_555 1_555
C26 C21 1_555 1_555
H21 C26 1_555 1_555
C27 H22 1_555 1_555
H23 C27 1_555 1_555
C28 C27 1_555 1_555
C29 C28 1_555 1_555
H24 C29 1_555 1_555
C30 C29 1_555 1_555
H25 C30 1_555 1_555
C31 C30 1_555 1_555
H26 C31 1_555 1_555
C32 C31 1_555 1_555
H27 C32 1_555 1_555
C33 C28 1_555 1_555
H28 C33 1_555 1_555
C34 H29 1_555 1_555
H30 C34 1_555 1_555
C35 C34 1_555 1_555
H31 C35 1_555 1_555
H32 C35 1_555 1_555
H33 C35 1_555 1_555
C36 H34 1_555 1_555
H35 C36 1_555 1_555
C37 C36 1_555 1_555
C38 C37 1_555 1_555
H36 C38 1_555 1_555
C39 C38 1_555 1_555
H37 C39 1_555 1_555
C40 C39 1_555 1_555
H38 C40 1_555 1_555
C41 C40 1_555 1_555
H39 C41 1_555 1_555
C42 C37 1_555 1_555
H40 C42 1_555 1_555
C43 H41 1_555 1_555
H42 C43 1_555 1_555
C44 C43 1_555 1_555
C45 C44 1_555 1_555
H43 C45 1_555 1_555
C46 C45 1_555 1_555
H44 C46 1_555 1_555
C47 C46 1_555 1_555
H45 C47 1_555 1_555
C48 C47 1_555 1_555
H46 C48 1_555 1_555
C49 C44 1_555 1_555
H47 C49 1_555 1_555
C50 H48 1_555 1_555
H49 C50 1_555 1_555
C51 C50 1_555 1_555
C52 C51 1_555 1_555
H50 C52 1_555 1_555
C53 C52 1_555 1_555
H51 C53 1_555 1_555
C54 C53 1_555 1_555
H52 C54 1_555 1_555
C55 C54 1_555 1_555
H53 C55 1_555 1_555
C56 C51 1_555 1_555
H54 C56 1_555 1_555
C57 H55 1_555 1_555
H56 C57 1_555 1_555
C58 C57 1_555 1_555
C59 C58 1_555 1_555
H57 C59 1_555 1_555
C60 C59 1_555 1_555
H58 C60 1_555 1_555
C61 C60 1_555 1_555
H59 C61 1_555 1_555
C62 C61 1_555 1_555
H60 C62 1_555 1_555
C63 C58 1_555 1_555
H61 C63 1_555 1_555
C64 H62 1_555 1_555
H63 C64 1_555 1_555
C65 C64 1_555 1_555
H64 C65 1_555 1_555
H65 C65 1_555 1_555
H66 C65 1_555 1_555
C66 H67 1_555 1_555
H68 C66 1_555 1_555
C67 H69 1_555 1_555
H70 C67 1_555 1_555
C68 Cl5 1_555 1_555
N1 Sn1 1_555 1_555
N2 Sn3 1_555 1_555
N6 O5 1_555 1_555
O1 C34 1_555 1_555
O2 Sn1 1_555 1_555
O3 C64 1_555 1_555
O4 Sn3 1_555 1_555
Fe1 C1 1_555 1_555
Sn1 C6 1_555 1_555
Sn2 C20 1_555 1_555
Sn3 C36 1_555 1_555
Sn4 C50 1_555 1_555
Cl1 C66 1_555 1_555
Cl2 C66 1_555 1_555
Cl3 C67 1_555 1_555
Cl4 C67 1_555 1_555
Cl6 C68 1_555 1_555
O2A Sn2 1_555 1_555
O4A Sn4 1_555 1_555
Sn2A O2 1_555 1_555
Sn4A O4 1_555 1_555
C2 Fe1 1_555 1_555
C3 Fe1 1_555 1_555
C4 Fe1 1_555 1_555
C5 Fe1 1_555 1_555
C11 C12 1_555 1_555
C13 Sn1 1_555 1_555
C18 C19 1_555 1_555
C25 C26 1_555 1_555
C27 Sn2 1_555 1_555
C32 C33 1_555 1_555
C41 C42 1_555 1_555
C43 Sn3 1_555 1_555
C48 C49 1_555 1_555
C55 C56 1_555 1_555
C57 Sn4 1_555 1_555
C62 C63 1_555 1_555
N6 Fe1 1_555 1_555
O1 Sn1 1_555 1_555
O1 Sn2 1_555 1_555
O2 Sn2 1_555 1_555
O3 Sn3 1_555 1_555
O3 Sn4 1_555 1_555
O4 Sn4 1_555 1_555
O2A Sn2A 1_555 1_555
O4A Sn4A 1_555 1_555

#END
