
#######################################################################
#
#                 Cambridge Crystallographic Data Centre
#                                CCDC 
#
#######################################################################
#
# If this CIF has been generated from an entry in the Cambridge 
# Structural Database, then it will include bibliographic, chemical, 
# crystal, experimental, refinement or atomic coordinate data resulting 
# from the CCDC's data processing and validation procedures.
#
#######################################################################

data_WICDAP
_symmetry_cell_setting           monoclinic
_symmetry_space_group_name_H-M   'C 2/c'
_symmetry_Int_Tables_number      15
_space_group_name_Hall           '-C 2yn'
loop_
_symmetry_equiv_pos_site_id
_symmetry_equiv_pos_as_xyz
1 x,y,z
2 -x,y,1/2-z
3 1/2+x,1/2+y,z
4 1/2-x,1/2+y,1/2-z
5 -x,-y,-z
6 x,-y,1/2+z
7 1/2-x,1/2-y,-z
8 1/2+x,1/2-y,1/2+z
_cell_length_a                   26.539(9)
_cell_length_b                   20.025(7)
_cell_length_c                   18.036(6)
_cell_angle_alpha                90
_cell_angle_beta                 115.32(1)
_cell_angle_gamma                90
_cell_volume                     8664.3
loop_
_atom_site_label
_atom_site_type_symbol
_atom_site_fract_x
_atom_site_fract_y
_atom_site_fract_z
Ru1 Ru 0.3446(1) 0.1800(7) 0.24176(9)
Co1 Co 0.1583(2) 0.3024(2) 0.2426(1)
O1 O 0.42297(3) 0.20764(2) 0.31722(3)
O2 O 0.34959(3) 0.26390(2) 0.18326(1)
O3 O 0.48832(3) 0.27914(2) 0.32175(1)
O4 O 0.41097(3) 0.34043(2) 0.18600(3)
O5 O 0.26160(1) 0.18641(4) 0.18389(2)
O6 O 0.32228(1) 0.25449(3) 0.31614(3)
O7 O 0.18432(1) 0.23479(3) 0.17490(2)
O8 O 0.24684(1) 0.29755(2) 0.32030(3)
O9 O 0.34279(1) 0.11714(2) 0.32210(2)
O10 O 0.35563(1) 0.11795(1) 0.18960(2)
O11 O 0.35200(1) 0.00734(2) 0.33610(2)
O12 O 0.35960(1) 0.00784(2) 0.18540(2)
O13 O 0.00678(1) 0.20417(2) 0.17991(1)
O14 O 0.08172(1) 0.14227(1) 0.30751(3)
O15 O 0.07052(1) 0.27275(3) 0.17460(2)
O16 O 0.14617(1) 0.21743(1) 0.31700(2)
O17 O -0.00984(1) 0.03547(2) 0.17272(1)
O18 O -0.01200(1) -0.07615(2) 0.16943(1)
O19 O 0.1368(3) 0.3765(6) 0.31040(1)
H1 H 0.1605 0.40700 0.31600
H2 H 0.14300 0.37000 0.36000
O20 O 0.15980(2) 0.37910(2) 0.16800(5)
H3 H 0.16500 0.37200 0.12800
H4 H 0.16100 0.41700 0.18200
C1 C 0.44070(3) 0.25660(2) 0.29170(1)
C2 C 0.39711(3) 0.29070(2) 0.21310(1)
C3 C 0.23480(1) 0.22543(3) 0.20880(2)
C4 C 0.27050(1) 0.26274(2) 0.28880(3)
C5 C 0.34970(1) 0.05950(2) 0.29820(2)
C6 C 0.35470(1) 0.06020(1) 0.21720(2)
C7 C 0.05565(1) 0.22653(2) 0.20610(2)
C8 C 0.09921(1) 0.19300(1) 0.28390(2)
C9 C -0.00621(1) -0.02190(2) 0.20448(1)
K1 K 0.33941(3) -0.01833(2) 0.47267(4)
O21 O 0.25816(8) 0.10534(2) 0.43544(1)
C10 C 0.20691(8) 0.08637(2) 0.42616(1)
H5 H 0.18019 0.12089 0.39682
H6 H 0.20755 0.08152 0.47961
C11 C 0.18893(8) 0.02225(2) 0.38086(1)
H7 H 0.15177 0.01121 0.37331
H8 H 0.18842 0.02627 0.32741
O22 O 0.22644(1) -0.02841(2) 0.42620(1)
C12 C 0.21133(1) -0.09282(2) 0.39031(2)
H9 H 0.21254 -0.09365 0.33777
H10 H 0.17382 -0.10345 0.38167
C13 C 0.25051(1) -0.14227(2) 0.44562(2)
H11 H 0.25178 -0.13844 0.49957
H12 H 0.23816 -0.18693 0.42524
O23 O 0.30440(1) -0.13158(2) 0.45078(2)
C14 C 0.34435(1) -0.17526(2) 0.50736(3)
H13 H 0.33483 -0.22087 0.48916
H14 H 0.34386 -0.17081 0.56015
C15 C 0.40151(1) -0.16001(2) 0.51606(3)
H15 H 0.42811 -0.19196 0.55243
H16 H 0.40218 -0.16238 0.46319
O24 O 0.41519(1) -0.09459(2) 0.54864(2)
C16 C 0.46873(1) -0.07815(2) 0.56452(2)
H17 H 0.47206 -0.07390 0.51369
H18 H 0.49427 -0.11258 0.59726
C17 C 0.48255(1) -0.01270(2) 0.60995(1)
H19 H 0.47687 -0.01616 0.65891
H20 H 0.52117 -0.00157 0.62606
O25 O 0.44740(1) 0.03786(2) 0.55759(1)
C18 C 0.46180(1) 0.10256(2) 0.58990(1)
H21 H 0.49937 0.11267 0.59844
H22 H 0.46044 0.10511 0.64225
C19 C 0.42254(1) 0.15174(2) 0.53251(2)
H23 H 0.43526 0.19668 0.55103
H24 H 0.42101 0.14603 0.47854
O26 O 0.36863(1) 0.14214(2) 0.52864(2)
C20 C 0.32925(1) 0.18561(2) 0.47219(2)
H25 H 0.32939 0.18049 0.41917
H26 H 0.33911 0.23135 0.48991
C21 C 0.27397(1) 0.17114(2) 0.46495(2)
H27 H 0.27390 0.17584 0.51797
H28 H 0.24746 0.20274 0.42779
C22 C 0.01916(8) 0.17604(1) 0.00568(1)
H29 H 0.01021 0.22026 -0.01844
H30 H 0.02388 0.17934 0.06162
O27 O -0.02616(1) 0.13242(3) -0.03881(3)
C23 C -0.07651(2) 0.15302(6) -0.03384(9)
H31 H -0.08491 0.19918 -0.05061
H32 H -0.07195 0.14880 0.02183
C24 C -0.12298(1) 0.10837(1) -0.09000(1)
H33 H -0.15861 0.12477 -0.09555
H34 H -0.12379 0.10644 -0.14379
O28 O -0.11125(1) 0.04312(1) -0.05194(1)
C25 C -0.15389(3) -0.00392(1) -0.10340(1)
H35 H -0.19045 0.01065 -0.11152
H36 H -0.15352 -0.00899 -0.15619
C26 C -0.13704(1) -0.06982(1) -0.05379(1)
H37 H -0.16584 -0.10300 -0.07914
H38 H -0.13253 -0.06218 0.00141
O29 O -0.08678(4) -0.09303(8) -0.05196(6)
C27 C 0.06864(6) 0.15502(4) 0.00623(5)
H39 H 0.06358 0.14824 -0.04940
H40 H 0.09680 0.18896 0.03126
Ru2 Ru 0.00000 0.12290(1) 0.25000
Co2 Co 0.00000 -0.14045(2) 0.25000
K2 K 0.00000 0.00000 0.00000
O17A O 0.00984(1) 0.03547(2) 0.32728(1)
O18A O 0.01200(1) -0.07615(2) 0.33057(1)
C9A C 0.00621(1) -0.02190(2) 0.29552(1)
C22D C -0.01916(8) -0.17604(1) -0.00568(1)
H29D H -0.01021 -0.22026 0.01844
H30D H -0.02388 -0.17934 -0.06162
O27D O 0.02616(1) -0.13242(3) 0.03881(3)
C23D C 0.07651(2) -0.15302(6) 0.03384(9)
H31D H 0.08491 -0.19918 0.05061
H32D H 0.07195 -0.14880 -0.02183
C24D C 0.12298(1) -0.10837(1) 0.09000(1)
H33D H 0.15861 -0.12477 0.09555
H34D H 0.12379 -0.10644 0.14379
O28D O 0.11125(1) -0.04312(1) 0.05194(1)
C25D C 0.15389(3) 0.00392(1) 0.10340(1)
H35D H 0.19045 -0.01065 0.11152
H36D H 0.15352 0.00899 0.15619
C26D C 0.13704(1) 0.06982(1) 0.05379(1)
H37D H 0.16584 0.10300 0.07914
H38D H 0.13253 0.06218 -0.00141
O29D O 0.08678(4) 0.09303(8) 0.05196(6)
C27D C -0.06864(6) -0.15502(4) -0.00623(5)
H39D H -0.06358 -0.14824 0.04940
H40D H -0.09680 -0.18896 -0.03126
Ru1A Ru -0.3446(1) 0.1800(7) 0.25824(9)
Co1A Co -0.1583(2) 0.3024(2) 0.2574(1)
O1A O -0.42297(3) 0.20764(2) 0.18278(3)
O2A O -0.34959(3) 0.26390(2) 0.31674(1)
O3A O -0.48832(3) 0.27914(2) 0.17825(1)
O4A O -0.41097(3) 0.34043(2) 0.31400(3)
O5A O -0.26160(1) 0.18641(4) 0.31611(2)
O6A O -0.32228(1) 0.25449(3) 0.18386(3)
O7A O -0.18432(1) 0.23479(3) 0.32510(2)
O8A O -0.24684(1) 0.29755(2) 0.17970(3)
O9A O -0.34279(1) 0.11714(2) 0.17790(2)
O10A O -0.35563(1) 0.11795(1) 0.31040(2)
O11A O -0.35200(1) 0.00734(2) 0.16390(2)
O12A O -0.35960(1) 0.00784(2) 0.31460(2)
O13A O -0.00678(1) 0.20417(2) 0.32009(1)
O14A O -0.08172(1) 0.14227(1) 0.19249(3)
O15A O -0.07052(1) 0.27275(3) 0.32540(2)
O16A O -0.14617(1) 0.21743(1) 0.18300(2)
O19A O -0.1368(3) 0.3765(6) 0.18960(1)
H1A H -0.1605 0.40700 0.18400
H2A H -0.14300 0.37000 0.14000
O20A O -0.15980(2) 0.37910(2) 0.33200(5)
H3A H -0.16500 0.37200 0.37200
H4A H -0.16100 0.41700 0.31800
C1A C -0.44070(3) 0.25660(2) 0.20830(1)
C2A C -0.39711(3) 0.29070(2) 0.28690(1)
C3A C -0.23480(1) 0.22543(3) 0.29120(2)
C4A C -0.27050(1) 0.26274(2) 0.21120(3)
C5A C -0.34970(1) 0.05950(2) 0.20180(2)
C6A C -0.35470(1) 0.06020(1) 0.28280(2)
C7A C -0.05565(1) 0.22653(2) 0.29390(2)
C8A C -0.09921(1) 0.19300(1) 0.21610(2)
K1A K -0.33941(3) -0.01833(2) 0.02733(4)
O21A O -0.25816(8) 0.10534(2) 0.06456(1)
C10A C -0.20691(8) 0.08637(2) 0.07384(1)
H5A H -0.18019 0.12089 0.10318
H6A H -0.20755 0.08152 0.02039
C11A C -0.18893(8) 0.02225(2) 0.11914(1)
H7A H -0.15177 0.01121 0.12669
H8A H -0.18842 0.02627 0.17259
O22A O -0.22644(1) -0.02841(2) 0.07380(1)
C12A C -0.21133(1) -0.09282(2) 0.10969(2)
H9A H -0.21254 -0.09365 0.16223
H10A H -0.17382 -0.10345 0.11833
C13A C -0.25051(1) -0.14227(2) 0.05438(2)
H11A H -0.25178 -0.13844 0.00043
H12A H -0.23816 -0.18693 0.07476
O23A O -0.30440(1) -0.13158(2) 0.04922(2)
C14A C -0.34435(1) -0.17526(2) -0.00736(3)
H13A H -0.33483 -0.22087 0.01084
H14A H -0.34386 -0.17081 -0.06015
C15A C -0.40151(1) -0.16001(2) -0.01606(3)
H15A H -0.42811 -0.19196 -0.05243
H16A H -0.40218 -0.16238 0.03681
O24A O -0.41519(1) -0.09459(2) -0.04864(2)
C16A C -0.46873(1) -0.07815(2) -0.06452(2)
H17A H -0.47206 -0.07390 -0.01369
H18A H -0.49427 -0.11258 -0.09726
C17A C -0.48255(1) -0.01270(2) -0.10995(1)
H19A H -0.47687 -0.01616 -0.15891
H20A H -0.52117 -0.00157 -0.12606
O25A O -0.44740(1) 0.03786(2) -0.05759(1)
C18A C -0.46180(1) 0.10256(2) -0.08990(1)
H21A H -0.49937 0.11267 -0.09844
H22A H -0.46044 0.10511 -0.14225
C19A C -0.42254(1) 0.15174(2) -0.03251(2)
H23A H -0.43526 0.19668 -0.05103
H24A H -0.42101 0.14603 0.02146
O26A O -0.36863(1) 0.14214(2) -0.02864(2)
C20A C -0.32925(1) 0.18561(2) 0.02781(2)
H25A H -0.32939 0.18049 0.08083
H26A H -0.33911 0.23135 0.01009
C21A C -0.27397(1) 0.17114(2) 0.03505(2)
H27A H -0.27390 0.17584 -0.01797
H28A H -0.24746 0.20274 0.07221
O3B O -0.01168(3) -0.22086(2) 0.32175(1)
O3C O 0.01168(3) -0.22086(2) 0.17825(1)
O4B O -0.08903(3) -0.15957(2) 0.18600(3)
O4C O 0.08903(3) -0.15957(2) 0.31400(3)
O17D O 0.00984(1) -0.03547(2) -0.17272(1)
O20B O -0.34020(2) -0.12090(2) 0.16800(5)
O20C O 0.34020(2) -0.12090(2) 0.33200(5)
K1B K -0.16059(3) 0.48167(2) 0.47267(4)
K1C K 0.16059(3) 0.48167(2) 0.02733(4)
Co2B Co -0.50000 0.35955(2) 0.25000
Co2B_2 Co 0.50000 0.35955(2) 0.25000
K2A K 0.00000 0.00000 0.50000
loop_
_geom_bond_atom_site_label_1
_geom_bond_atom_site_label_2
_geom_bond_site_symmetry_1
_geom_bond_site_symmetry_2
Ru1 O1 1_555 1_555
Co1 O7 1_555 1_555
O1 C1 1_555 1_555
O2 Ru1 1_555 1_555
O3 C1 1_555 1_555
O4 C2 1_555 1_555
O5 Ru1 1_555 1_555
O6 Ru1 1_555 1_555
O7 C3 1_555 1_555
O8 Co1 1_555 1_555
O9 Ru1 1_555 1_555
O10 Ru1 1_555 1_555
O11 C5 1_555 1_555
O12 C6 1_555 1_555
O13 C7 1_555 1_555
O14 C8 1_555 1_555
O15 Co1 1_555 1_555
O16 Co1 1_555 1_555
O17 C9 1_555 1_555
O18 C9 1_555 1_555
O19 Co1 1_555 1_555
H1 O19 1_555 1_555
H2 O19 1_555 1_555
O20 Co1 1_555 1_555
H3 O20 1_555 1_555
H4 O20 1_555 1_555
C1 C2 1_555 1_555
C2 O2 1_555 1_555
C3 O5 1_555 1_555
C4 O6 1_555 1_555
C5 O9 1_555 1_555
C6 O10 1_555 1_555
C7 O15 1_555 1_555
C8 O16 1_555 1_555
C9 C9A 1_555 1_555
K1 O11 1_555 1_555
O21 K1 1_555 1_555
C10 O21 1_555 1_555
H5 C10 1_555 1_555
H6 C10 1_555 1_555
C11 C10 1_555 1_555
H7 C11 1_555 1_555
H8 C11 1_555 1_555
O22 K1 1_555 1_555
C12 O22 1_555 1_555
H9 C12 1_555 1_555
H10 C12 1_555 1_555
C13 C12 1_555 1_555
H11 C13 1_555 1_555
H12 C13 1_555 1_555
O23 K1 1_555 1_555
C14 O23 1_555 1_555
H13 C14 1_555 1_555
H14 C14 1_555 1_555
C15 C14 1_555 1_555
H15 C15 1_555 1_555
H16 C15 1_555 1_555
O24 K1 1_555 1_555
C16 O24 1_555 1_555
H17 C16 1_555 1_555
H18 C16 1_555 1_555
C17 C16 1_555 1_555
H19 C17 1_555 1_555
H20 C17 1_555 1_555
O25 K1 1_555 1_555
C18 O25 1_555 1_555
H21 C18 1_555 1_555
H22 C18 1_555 1_555
C19 C18 1_555 1_555
H23 C19 1_555 1_555
H24 C19 1_555 1_555
O26 K1 1_555 1_555
C20 O26 1_555 1_555
H25 C20 1_555 1_555
H26 C20 1_555 1_555
C21 O21 1_555 1_555
H27 C21 1_555 1_555
H28 C21 1_555 1_555
C22 H29 1_555 1_555
H30 C22 1_555 1_555
O27 C22 1_555 1_555
C23 O27 1_555 1_555
H31 C23 1_555 1_555
H32 C23 1_555 1_555
C24 C23 1_555 1_555
H33 C24 1_555 1_555
H34 C24 1_555 1_555
O28 C24 1_555 1_555
C25 O28 1_555 1_555
H35 C25 1_555 1_555
H36 C25 1_555 1_555
C26 C25 1_555 1_555
H37 C26 1_555 1_555
H38 C26 1_555 1_555
O29 C26 1_555 1_555
C27 C22 1_555 1_555
H39 C27 1_555 1_555
H40 C27 1_555 1_555
Ru2 O13 1_555 1_555
Co2 O18 1_555 1_555
K2 O17 1_555 1_555
O17A Ru2 1_555 1_555
O18A Co2 1_555 1_555
C9A O17A 1_555 1_555
C22D H29D 1_555 1_555
H30D C22D 1_555 1_555
O27D K2 1_555 1_555
C23D O27D 1_555 1_555
H31D C23D 1_555 1_555
H32D C23D 1_555 1_555
C24D C23D 1_555 1_555
H33D C24D 1_555 1_555
H34D C24D 1_555 1_555
O28D K2 1_555 1_555
C25D O28D 1_555 1_555
H35D C25D 1_555 1_555
H36D C25D 1_555 1_555
C26D C25D 1_555 1_555
H37D C26D 1_555 1_555
H38D C26D 1_555 1_555
O29D C27 1_555 1_555
C27D O29 1_555 1_555
H39D C27D 1_555 1_555
H40D C27D 1_555 1_555
Ru1A O1A 1_555 1_555
Co1A O7A 1_555 1_555
O1A C1A 1_555 1_555
O2A Ru1A 1_555 1_555
O3A C1A 1_555 1_555
O4A C2A 1_555 1_555
O5A Ru1A 1_555 1_555
O6A Ru1A 1_555 1_555
O7A C3A 1_555 1_555
O8A Co1A 1_555 1_555
O9A Ru1A 1_555 1_555
O10A Ru1A 1_555 1_555
O11A C5A 1_555 1_555
O12A C6A 1_555 1_555
O13A Ru2 1_555 1_555
O14A Ru2 1_555 1_555
O15A Co1A 1_555 1_555
O16A Co1A 1_555 1_555
O19A Co1A 1_555 1_555
H1A O19A 1_555 1_555
H2A O19A 1_555 1_555
O20A Co1A 1_555 1_555
H3A O20A 1_555 1_555
H4A O20A 1_555 1_555
C1A C2A 1_555 1_555
C2A O2A 1_555 1_555
C3A O5A 1_555 1_555
C4A O6A 1_555 1_555
C5A O9A 1_555 1_555
C6A O10A 1_555 1_555
C7A O13A 1_555 1_555
C8A O14A 1_555 1_555
K1A O11A 1_555 1_555
O21A K1A 1_555 1_555
C10A O21A 1_555 1_555
H5A C10A 1_555 1_555
H6A C10A 1_555 1_555
C11A C10A 1_555 1_555
H7A C11A 1_555 1_555
H8A C11A 1_555 1_555
O22A K1A 1_555 1_555
C12A O22A 1_555 1_555
H9A C12A 1_555 1_555
H10A C12A 1_555 1_555
C13A C12A 1_555 1_555
H11A C13A 1_555 1_555
H12A C13A 1_555 1_555
O23A K1A 1_555 1_555
C14A O23A 1_555 1_555
H13A C14A 1_555 1_555
H14A C14A 1_555 1_555
C15A C14A 1_555 1_555
H15A C15A 1_555 1_555
H16A C15A 1_555 1_555
O24A K1A 1_555 1_555
C16A O24A 1_555 1_555
H17A C16A 1_555 1_555
H18A C16A 1_555 1_555
C17A C16A 1_555 1_555
H19A C17A 1_555 1_555
H20A C17A 1_555 1_555
O25A K1A 1_555 1_555
C18A O25A 1_555 1_555
H21A C18A 1_555 1_555
H22A C18A 1_555 1_555
C19A C18A 1_555 1_555
H23A C19A 1_555 1_555
H24A C19A 1_555 1_555
O26A K1A 1_555 1_555
C20A O26A 1_555 1_555
H25A C20A 1_555 1_555
H26A C20A 1_555 1_555
C21A O21A 1_555 1_555
H27A C21A 1_555 1_555
H28A C21A 1_555 1_555
O3B Co2 1_555 1_555
O3C Co2 1_555 1_555
O4B Co2 1_555 1_555
O4C Co2 1_555 1_555
O17D K2 1_555 1_555
O20B K1A 1_555 1_555
O20C K1 1_555 1_555
K1B O20A 1_555 1_555
K1C O20 1_555 1_555
Co2B O3A 1_555 1_555
Co2B_2 O3 1_555 1_555
K2A O17A 1_555 1_555
O4 Co2B_2 1_555 1_555
O8 C4 1_555 1_555
O14 Ru2 1_555 1_555
O17 Ru2 1_555 1_555
C3 C4 1_555 1_555
C5 C6 1_555 1_555
C7 C8 1_555 1_555
C11 O22 1_555 1_555
C13 O23 1_555 1_555
C15 O24 1_555 1_555
C17 O25 1_555 1_555
C19 O26 1_555 1_555
C20 C21 1_555 1_555
O27 K2 1_555 1_555
O28 K2 1_555 1_555
O29 K2 1_555 1_555
K2 O29D 1_555 1_555
O18A C9A 1_555 1_555
C22D O27D 1_555 1_555
C22D C27D 1_555 1_555
C24D O28D 1_555 1_555
C26D O29D 1_555 1_555
O4A Co2B 1_555 1_555
O8A C4A 1_555 1_555
O15A C7A 1_555 1_555
O16A C8A 1_555 1_555
C3A C4A 1_555 1_555
C5A C6A 1_555 1_555
C7A C8A 1_555 1_555
C11A O22A 1_555 1_555
C13A O23A 1_555 1_555
C15A O24A 1_555 1_555
C17A O25A 1_555 1_555
C19A O26A 1_555 1_555
C20A C21A 1_555 1_555

#END
