
#######################################################################
#
#                 Cambridge Crystallographic Data Centre
#                                CCDC 
#
#######################################################################
#
# If this CIF has been generated from an entry in the Cambridge 
# Structural Database, then it will include bibliographic, chemical, 
# crystal, experimental, refinement or atomic coordinate data resulting 
# from the CCDC's data processing and validation procedures.
#
#######################################################################

data_WICGEU
_symmetry_cell_setting           triclinic
_symmetry_space_group_name_H-M   'P -1'
_symmetry_Int_Tables_number      2
_space_group_name_Hall           '-P 1'
loop_
_symmetry_equiv_pos_site_id
_symmetry_equiv_pos_as_xyz
1 x,y,z
2 -x,-y,-z
_cell_length_a                   9.5362(14)
_cell_length_b                   10.3322(11)
_cell_length_c                   12.187(2)
_cell_angle_alpha                86.15(3)
_cell_angle_beta                 68.22(2)
_cell_angle_gamma                67.827(14)
_cell_volume                     1028.89
loop_
_atom_site_label
_atom_site_type_symbol
_atom_site_fract_x
_atom_site_fract_y
_atom_site_fract_z
Cu1 Cu -0.15208(5) -0.15045(4) -0.19351(4)
Cu2 Cu -0.46483(7) -0.24700(6) -0.21464(5)
S1 S -0.27005(11) -0.13567(9) -0.32780(9)
S2 S -0.43877(13) -0.26969(10) -0.02821(9)
S3 S 0.09408(13) -0.04877(11) -0.33913(10)
N1 N -0.1267(4) -0.3201(3) -0.5138(3)
H1 H -0.0562(4) -0.3960(3) -0.5571(3)
H2 H -0.2014(4) -0.2632(3) -0.5365(3)
N2 N -0.0033(4) -0.3812(3) -0.3795(3)
H3 H 0.0657(4) -0.4596(3) -0.4196(3)
N3 N -0.0040(3) -0.3369(3) -0.2768(3)
N4 N -0.0273(4) -0.2221(3) -0.0857(3)
N5 N -0.6913(4) -0.0247(3) 0.1014(3)
N6 N 0.3284(4) -0.1440(4) -0.2354(3)
N7 N -0.3637(5) -0.4519(4) -0.2771(3)
C1 C -0.1202(4) -0.2907(4) -0.4112(3)
C2 C -0.0415(5) -0.1531(4) 0.0088(3)
H4 H -0.1248(5) -0.0651(4) 0.0354(3)
C3 C 0.0633(6) -0.2076(5) 0.0688(4)
H5 H 0.0507(6) -0.1575(5) 0.1347(4)
C4 C 0.1862(6) -0.3371(5) 0.0293(4)
H6 H 0.2584(6) -0.3755(5) 0.0680(4)
C5 C 0.2024(5) -0.4104(4) -0.0688(3)
H7 H 0.2843(5) -0.4989(4) -0.0959(3)
C6 C 0.0942(4) -0.3494(4) -0.1254(3)
C7 C 0.1051(4) -0.4135(3) -0.2350(3)
C8 C 0.2346(4) -0.5509(3) -0.2920(3)
C9 C 0.3443(5) -0.5620(4) -0.4072(3)
H8 H 0.3381(5) -0.4819(4) -0.4479(3)
C10 C 0.4624(5) -0.6898(4) -0.4624(4)
H9 H 0.5360(5) -0.6953(4) -0.5395(4)
C11 C 0.4714(5) -0.8089(4) -0.4036(4)
H10 H 0.5497(5) -0.8957(4) -0.4410(4)
C12 C 0.3628(6) -0.7989(4) -0.2881(5)
H11 H 0.3686(6) -0.8796(4) -0.2482(5)
C13 C 0.2460(5) -0.6706(4) -0.2316(4)
H12 H 0.1755(5) -0.6646(4) -0.1534(4)
C14 C -0.5857(5) -0.1256(4) 0.0469(3)
C15 C 0.2311(5) -0.1048(4) -0.2775(3)
C16 C -0.3119(5) -0.5674(5) -0.3024(4)
C17 C -0.2414(7) -0.7180(5) -0.3352(5)
H13 H -0.3142(7) -0.7573(5) -0.2809(5)
H14 H -0.2324(7) -0.7378(5) -0.4031(5)
H15 H -0.1439(7) -0.7547(5) -0.3223(5)
N5A N -0.3087(4) 0.0247(3) -0.1014(3)
Cu1A Cu -0.84792(5) 0.15045(4) 0.19351(4)
N6_2 N -0.6716(4) -0.1440(4) -0.2354(3)
Cu2_2 Cu 0.53517(7) -0.24700(6) -0.21464(5)
loop_
_geom_bond_atom_site_label_1
_geom_bond_atom_site_label_2
_geom_bond_site_symmetry_1
_geom_bond_site_symmetry_2
Cu1 S1 1_555 1_555
Cu2 S1 1_555 1_555
S1 C1 1_555 1_555
S2 Cu2 1_555 1_555
S3 Cu1 1_555 1_555
N1 H1 1_555 1_555
H2 N1 1_555 1_555
N2 H3 1_555 1_555
N3 Cu1 1_555 1_555
N4 Cu1 1_555 1_555
N5 C14 1_555 1_555
N6 C15 1_555 1_555
N7 Cu2 1_555 1_555
C1 N1 1_555 1_555
C2 N4 1_555 1_555
H4 C2 1_555 1_555
C3 C2 1_555 1_555
H5 C3 1_555 1_555
C4 C3 1_555 1_555
H6 C4 1_555 1_555
C5 C4 1_555 1_555
H7 C5 1_555 1_555
C6 N4 1_555 1_555
C7 N3 1_555 1_555
C8 C7 1_555 1_555
C9 C8 1_555 1_555
H8 C9 1_555 1_555
C10 C9 1_555 1_555
H9 C10 1_555 1_555
C11 C10 1_555 1_555
H10 C11 1_555 1_555
C12 C11 1_555 1_555
H11 C12 1_555 1_555
C13 C8 1_555 1_555
H12 C13 1_555 1_555
C14 S2 1_555 1_555
C15 S3 1_555 1_555
C16 N7 1_555 1_555
C17 C16 1_555 1_555
H13 C17 1_555 1_555
H14 C17 1_555 1_555
H15 C17 1_555 1_555
N5A Cu1 1_555 1_555
Cu1A N5 1_555 1_555
N6_2 Cu2 1_555 1_555
Cu2_2 N6 1_555 1_555
N2 N3 1_555 1_555
N2 C1 1_555 1_555
C5 C6 1_555 1_555
C6 C7 1_555 1_555
C12 C13 1_555 1_555

#END
