
#######################################################################
#
#                 Cambridge Crystallographic Data Centre
#                                CCDC 
#
#######################################################################
#
# If this CIF has been generated from an entry in the Cambridge 
# Structural Database, then it will include bibliographic, chemical, 
# crystal, experimental, refinement or atomic coordinate data resulting 
# from the CCDC's data processing and validation procedures.
#
#######################################################################

data_WICNUS
_symmetry_cell_setting           triclinic
_symmetry_space_group_name_H-M   'P -1'
_symmetry_Int_Tables_number      2
_space_group_name_Hall           '-P 1'
loop_
_symmetry_equiv_pos_site_id
_symmetry_equiv_pos_as_xyz
1 x,y,z
2 -x,-y,-z
_cell_length_a                   9.885(2)
_cell_length_b                   10.786(2)
_cell_length_c                   13.178(3)
_cell_angle_alpha                94.95(3)
_cell_angle_beta                 101.36(3)
_cell_angle_gamma                116.45(3)
_cell_volume                     1208.83
loop_
_atom_site_label
_atom_site_type_symbol
_atom_site_fract_x
_atom_site_fract_y
_atom_site_fract_z
O1 O -0.305(3) 0.727(3) -0.258(2)
O2 O -0.4655(19) 0.4563(19) -0.3032(13)
Nd1 Nd 0.26436(2) 0.03320(2) -0.514060(17)
O3 O -0.0023(4) 0.1490(3) -0.4527(3)
O4 O 0.2467(4) 0.2453(4) -0.4539(3)
O5 O 0.5197(4) 0.7779(4) -0.4420(3)
O6 O 0.3553(5) 0.8674(3) -0.4683(3)
O7 O -0.0676(7) 0.6744(6) -0.2876(6)
O8 O -0.1847(5) 0.4537(5) -0.2945(5)
O9 O 0.4663(4) 0.1445(4) -0.3398(3)
O10 O 0.2247(4) 0.0133(4) -0.3301(3)
O11 O 0.1390(13) -0.0628(12) 0.0187(8)
O12 O 0.3257(11) 0.0523(9) 0.1654(5)
O13 O 0.8448(12) 0.3991(12) 0.1275(6)
O14 O 0.8948(11) 0.3632(12) -0.0202(8)
O15 O 0.1021(5) 0.0675(5) -0.6726(3)
O16 O 0.2728(4) -0.0940(4) -0.6779(3)
N1 N -0.0794(5) 0.5577(5) -0.3080(4)
N2 N 0.8039(11) 0.3444(11) 0.0341(6)
C1 C 0.1435(5) 0.3981(4) -0.4124(3)
C2 C 0.2656(5) 0.5174(4) -0.4303(3)
H2 H 0.3444 0.5091 -0.4540
C3 C 0.2706(5) 0.6493(4) -0.4129(3)
C4 C 0.1567(5) 0.6630(4) -0.3721(3)
H3 H 0.1590 0.7502 -0.3593
C5 C 0.0406(5) 0.5441(5) -0.3512(4)
C6 C 0.0309(5) 0.4126(4) -0.3710(3)
H4 H -0.0497 0.3346 -0.3570
C7 C 0.1289(5) 0.2538(4) -0.4418(3)
C8 C 0.3908(5) 0.7737(4) -0.4429(3)
C9 C 0.4275(7) 0.1226(6) -0.1690(4)
C10 C 0.3290(9) 0.0607(7) -0.1069(5)
H5 H 0.2244 -0.0034 -0.1386
C11 C 0.3840(12) 0.0930(9) 0.0035(6)
C12 C 0.5410(12) 0.1887(9) 0.0498(5)
H6 H 0.5802 0.2128 0.1228
C13 C 0.6347(10) 0.2452(9) -0.0127(5)
C14 C 0.5845(8) 0.2164(7) -0.1217(5)
H7 H 0.6536 0.2585 -0.1622
C15 C 0.3681(6) 0.0914(5) -0.2867(4)
C16 C 0.2767(16) 0.0229(12) 0.0708(8)
Nd1A Nd -0.26436(2) -0.03320(2) -0.485940(17)
Nd1A_2 Nd 0.73564(2) 0.96680(2) -0.485940(17)
Nd1_2 Nd 0.26436(2) 1.03320(2) -0.514060(17)
O3A O 0.0023(4) -0.1490(3) -0.5473(3)
O5A O 0.4803(4) 0.2221(4) -0.5580(3)
O6_2 O 0.3553(5) -0.1326(3) -0.4683(3)
N3 N -0.8954(15) 0.2399(13) -0.0559(11)
H1 H -0.9910 0.1747 -0.0692
C17 C -0.8316(16) 0.2797(14) -0.1317(12)
H8 H -0.8913 0.2388 -0.2011
C18 C -0.6782(18) 0.3809(15) -0.1128(14)
H9 H -0.6365 0.4063 -0.1698
C19 C -0.5833(17) 0.4465(13) -0.0111(13)
C20 C -0.6580(16) 0.4063(14) 0.0675(13)
H10 H -0.6055 0.4500 0.1377
C21 C -0.8128(17) 0.2997(16) 0.0410(15)
H11 H -0.8595 0.2698 0.0953
N3A N -0.1046(15) 0.7601(13) 0.0559(11)
H1A H -0.0090 0.8253 0.0692
C17A C -0.1684(16) 0.7203(14) 0.1317(12)
H8A H -0.1087 0.7612 0.2011
C18A C -0.3218(18) 0.6191(15) 0.1128(14)
H9A H -0.3635 0.5937 0.1698
C19A C -0.4167(17) 0.5535(13) 0.0111(13)
C20A C -0.3420(16) 0.5937(14) -0.0675(13)
H10A H -0.3945 0.5500 -0.1377
C21A C -0.1872(17) 0.7003(16) -0.0410(15)
H11A H -0.1405 0.7302 -0.0953
loop_
_geom_bond_atom_site_label_1
_geom_bond_atom_site_label_2
_geom_bond_site_symmetry_1
_geom_bond_site_symmetry_2
Nd1 O4 1_555 1_555
O3 C7 1_555 1_555
O4 C7 1_555 1_555
O5 C8 1_555 1_555
O6 C8 1_555 1_555
O7 N1 1_555 1_555
O8 N1 1_555 1_555
O9 Nd1 1_555 1_555
O10 Nd1 1_555 1_555
O11 C16 1_555 1_555
O12 C16 1_555 1_555
O13 N2 1_555 1_555
O14 N2 1_555 1_555
O15 Nd1 1_555 1_555
O16 Nd1 1_555 1_555
N1 C5 1_555 1_555
N2 C13 1_555 1_555
N3 H1 1_555 1_555
C1 C2 1_555 1_555
C2 H2 1_555 1_555
C3 C2 1_555 1_555
C4 C3 1_555 1_555
H3 C4 1_555 1_555
C5 C4 1_555 1_555
C6 C1 1_555 1_555
H4 C6 1_555 1_555
C7 C1 1_555 1_555
C8 C3 1_555 1_555
C9 C10 1_555 1_555
C10 H5 1_555 1_555
C11 C10 1_555 1_555
C12 C11 1_555 1_555
H6 C12 1_555 1_555
C13 C12 1_555 1_555
C14 C9 1_555 1_555
H7 C14 1_555 1_555
C15 O9 1_555 1_555
C16 C11 1_555 1_555
C17 N3 1_555 1_555
H8 C17 1_555 1_555
C18 C17 1_555 1_555
H9 C18 1_555 1_555
C19 C18 1_555 1_555
C20 C19 1_555 1_555
H10 C20 1_555 1_555
C21 N3 1_555 1_555
H11 C21 1_555 1_555
Nd1A O3 1_555 1_555
Nd1A_2 O5 1_555 1_555
Nd1_2 O6 1_555 1_555
O3A Nd1 1_555 1_555
O5A Nd1 1_555 1_555
O6_2 Nd1 1_555 1_555
N3A H1A 1_555 1_555
C17A N3A 1_555 1_555
H8A C17A 1_555 1_555
C18A C17A 1_555 1_555
H9A C18A 1_555 1_555
C19A C19 1_555 1_555
C20A C19A 1_555 1_555
H10A C20A 1_555 1_555
C21A N3A 1_555 1_555
H11A C21A 1_555 1_555
O10 C15 1_555 1_555
C5 C6 1_555 1_555
C9 C15 1_555 1_555
C13 C14 1_555 1_555
C20 C21 1_555 1_555
C18A C19A 1_555 1_555
C20A C21A 1_555 1_555

#END
