
#######################################################################
#
#                 Cambridge Crystallographic Data Centre
#                                CCDC 
#
#######################################################################
#
# If this CIF has been generated from an entry in the Cambridge 
# Structural Database, then it will include bibliographic, chemical, 
# crystal, experimental, refinement or atomic coordinate data resulting 
# from the CCDC's data processing and validation procedures.
#
#######################################################################

data_WICNOM
_symmetry_cell_setting           triclinic
_symmetry_space_group_name_H-M   'P -1'
_symmetry_Int_Tables_number      2
_space_group_name_Hall           '-P 1'
loop_
_symmetry_equiv_pos_site_id
_symmetry_equiv_pos_as_xyz
1 x,y,z
2 -x,-y,-z
_cell_length_a                   9.798(2)
_cell_length_b                   10.729(2)
_cell_length_c                   13.238(3)
_cell_angle_alpha                94.33(3)
_cell_angle_beta                 102.05(3)
_cell_angle_gamma                115.42(3)
_cell_volume                     1207.52
loop_
_atom_site_label
_atom_site_type_symbol
_atom_site_fract_x
_atom_site_fract_y
_atom_site_fract_z
La1 La 0.27263(3) 0.03368(2) -0.515890(19)
O1 O 0.4727(4) 0.1478(3) -0.3360(3)
O2 O 0.2310(4) 0.0116(4) -0.3304(3)
O3 O 0.1306(11) -0.0747(10) 0.0083(7)
O4 O 0.3022(10) 0.0426(7) 0.1574(4)
O5 O 0.8307(10) 0.3898(11) 0.1316(5)
O6 O 0.8859(9) 0.3700(10) -0.0110(6)
O7 O -0.0098(4) 0.1523(3) -0.4521(3)
O8 O 0.2377(4) 0.2398(3) -0.4550(3)
O9 O 0.5290(4) 0.7638(4) -0.4308(3)
O10 O 0.3796(5) 0.8681(3) -0.4637(3)
O11 O -0.0545(5) 0.6877(4) -0.2870(4)
O12 O -0.1814(5) 0.4668(5) -0.2986(4)
O13 O 0.2696(4) -0.0995(4) -0.6839(3)
O14 O 0.0962(5) 0.0642(4) -0.6765(4)
N1 N 0.7941(9) 0.3419(8) 0.0409(5)
N2 N -0.0720(5) 0.5704(5) -0.3095(3)
C1 C 0.4288(6) 0.1214(5) -0.1675(4)
C2 C 0.3249(7) 0.0575(6) -0.1095(4)
H2 H 0.2214 -0.0060 -0.1432
C3 C 0.3759(9) 0.0887(7) -0.0005(5)
C4 C 0.5263(9) 0.1815(7) 0.0492(4)
H3 H 0.5602 0.2028 0.1222
C5 C 0.6286(8) 0.2441(7) -0.0102(5)
C6 C 0.5811(7) 0.2153(6) -0.1183(4)
H4 H 0.6513 0.2588 -0.1572
C7 C 0.3732(5) 0.0922(5) -0.2858(4)
C8 C 0.2586(11) 0.0134(9) 0.0599(7)
C9 C 0.1396(4) 0.3970(4) -0.4124(3)
C10 C 0.2660(4) 0.5128(4) -0.4282(3)
H5 H 0.3441 0.5006 -0.4505
C11 C 0.2764(5) 0.6472(4) -0.4108(3)
C12 C 0.1640(5) 0.6657(4) -0.3717(3)
H6 H 0.1700 0.7545 -0.3585
C13 C 0.0445(5) 0.5516(4) -0.3530(3)
C14 C 0.0297(4) 0.4163(4) -0.3739(3)
H7 H -0.0540 0.3402 -0.3618
C15 C 0.1214(5) 0.2516(4) -0.4424(4)
C16 C 0.4052(5) 0.7682(4) -0.4359(4)
La1A La -0.27263(3) -0.03368(2) -0.484110(19)
La1A_2 La 0.72737(3) 0.96632(2) -0.484110(19)
La1_2 La 0.27263(3) 1.03368(2) -0.515890(19)
O7A O 0.0098(4) -0.1523(3) -0.5479(3)
O9A O 0.4710(4) 0.2362(4) -0.5692(3)
O10_2 O 0.3796(5) -0.1319(3) -0.4637(3)
N3 N -0.8941(11) -0.7563(10) -0.0471(8)
H1 H -0.9891 -0.8210 -0.0596
C17 C -0.8295(13) -0.7150(12) -0.1246(10)
H8 H -0.8914 -0.7551 -0.1932
C18 C -0.6802(12) -0.6188(12) -0.1105(9)
H9 H -0.6396 -0.5969 -0.1679
C19 C -0.5926(10) -0.5565(8) -0.0153(9)
C20 C -0.6596(13) -0.5966(12) 0.0667(11)
H10 H -0.6004 -0.5544 0.1356
C21 C -0.8102(13) -0.6964(12) 0.0477(11)
H11 H -0.8534 -0.7218 0.1037
N3A N -0.1059(11) -0.2437(10) 0.0471(8)
H1A H -0.0109 -0.1790 0.0596
C17A C -0.1705(13) -0.2850(12) 0.1246(10)
H8A H -0.1086 -0.2449 0.1932
C18A C -0.3198(12) -0.3812(12) 0.1105(9)
H9A H -0.3604 -0.4031 0.1679
C19A C -0.4074(10) -0.4435(8) 0.0153(9)
C20A C -0.3404(13) -0.4034(12) -0.0667(11)
H10A H -0.3996 -0.4456 -0.1356
C21A C -0.1898(13) -0.3036(12) -0.0477(11)
H11A H -0.1466 -0.2782 -0.1037
loop_
_geom_bond_atom_site_label_1
_geom_bond_atom_site_label_2
_geom_bond_site_symmetry_1
_geom_bond_site_symmetry_2
La1 O1 1_555 1_555
O1 C7 1_555 1_555
O2 La1 1_555 1_555
O3 C8 1_555 1_555
O4 C8 1_555 1_555
O5 N1 1_555 1_555
O6 N1 1_555 1_555
O7 C15 1_555 1_555
O8 La1 1_555 1_555
O9 C16 1_555 1_555
O10 C16 1_555 1_555
O11 N2 1_555 1_555
O12 N2 1_555 1_555
O13 La1 1_555 1_555
O14 La1 1_555 1_555
N1 C5 1_555 1_555
N2 C13 1_555 1_555
N3 H1 1_555 1_555
C1 C2 1_555 1_555
C2 H2 1_555 1_555
C3 C2 1_555 1_555
C4 C3 1_555 1_555
H3 C4 1_555 1_555
C5 C4 1_555 1_555
C6 C1 1_555 1_555
H4 C6 1_555 1_555
C7 O2 1_555 1_555
C8 C3 1_555 1_555
C9 C10 1_555 1_555
C10 H5 1_555 1_555
C11 C10 1_555 1_555
C12 C11 1_555 1_555
H6 C12 1_555 1_555
C13 C12 1_555 1_555
C14 C9 1_555 1_555
H7 C14 1_555 1_555
C15 O8 1_555 1_555
C16 C11 1_555 1_555
C17 N3 1_555 1_555
H8 C17 1_555 1_555
C18 C17 1_555 1_555
H9 C18 1_555 1_555
C19 C18 1_555 1_555
C20 C19 1_555 1_555
H10 C20 1_555 1_555
C21 N3 1_555 1_555
H11 C21 1_555 1_555
La1A O7 1_555 1_555
La1A_2 O9 1_555 1_555
La1_2 O10 1_555 1_555
O7A La1 1_555 1_555
O9A La1 1_555 1_555
O10_2 La1 1_555 1_555
N3A H1A 1_555 1_555
C17A N3A 1_555 1_555
H8A C17A 1_555 1_555
C18A C17A 1_555 1_555
H9A C18A 1_555 1_555
C19A C19 1_555 1_555
C20A C19A 1_555 1_555
H10A C20A 1_555 1_555
C21A N3A 1_555 1_555
H11A C21A 1_555 1_555
C1 C7 1_555 1_555
C5 C6 1_555 1_555
C9 C15 1_555 1_555
C13 C14 1_555 1_555
C20 C21 1_555 1_555
C18A C19A 1_555 1_555
C20A C21A 1_555 1_555

#END
