
#######################################################################
#
#                 Cambridge Crystallographic Data Centre
#                                CCDC 
#
#######################################################################
#
# If this CIF has been generated from an entry in the Cambridge 
# Structural Database, then it will include bibliographic, chemical, 
# crystal, experimental, refinement or atomic coordinate data resulting 
# from the CCDC's data processing and validation procedures.
#
#######################################################################

data_WICNIG
_symmetry_cell_setting           triclinic
_symmetry_space_group_name_H-M   'P -1'
_symmetry_Int_Tables_number      2
_space_group_name_Hall           '-P 1'
loop_
_symmetry_equiv_pos_site_id
_symmetry_equiv_pos_as_xyz
1 x,y,z
2 -x,-y,-z
_cell_length_a                   12.275(3)
_cell_length_b                   13.386(3)
_cell_length_c                   22.313(5)
_cell_angle_alpha                76.23(3)
_cell_angle_beta                 75.33(3)
_cell_angle_gamma                68.03(3)
_cell_volume                     3247.01
loop_
_atom_site_label
_atom_site_type_symbol
_atom_site_fract_x
_atom_site_fract_y
_atom_site_fract_z
Pr1 Pr -0.45006(2) -0.01299(2) -0.351890(11)
Pr2 Pr -0.62795(2) 0.29987(2) -0.256470(11)
Pr3 Pr 0.00813(2) -0.55821(2) -0.144960(11)
Pr4 Pr -0.33460(2) -0.37352(2) -0.232470(11)
O1 O -0.6547(3) 0.0710(3) -0.3766(2)
O2 O -0.6596(3) 0.1600(3) -0.30382(16)
O3 O -1.0699(4) 0.4122(4) -0.22577(18)
O4 O -1.2000(4) 0.4844(4) -0.2891(2)
O5 O -1.0659(5) 0.4222(6) -0.5086(2)
O6 O -0.8880(5) 0.3196(6) -0.5381(2)
O7 O -0.5364(5) 0.3106(3) -0.36457(16)
O8 O -0.4499(4) 0.1615(3) -0.40801(16)
O9 O -0.5353(3) 0.1653(3) -0.61422(16)
O10 O -0.5774(3) 0.3246(3) -0.67798(15)
O11 O -0.7320(6) 0.6563(4) -0.5885(2)
O12 O -0.6991(5) 0.6571(3) -0.4991(2)
O13 O 0.2990(5) -0.5117(4) -0.3077(2)
O14 O 0.1335(5) -0.5156(4) -0.2460(2)
O15 O -0.2486(4) -0.2467(5) -0.30551(19)
O16 O -0.2399(4) -0.1021(4) -0.3751(2)
O17 O 0.1398(5) -0.0652(6) -0.4831(4)
O18 O 0.2898(4) -0.1494(4) -0.4391(2)
O19 O -0.4957(4) 0.1442(3) -0.2028(2)
O20 O -0.3875(4) 0.0344(3) -0.27223(18)
O21 O -0.1781(3) -0.3599(3) -0.18315(15)
O22 O -0.0774(4) -0.3726(3) -0.1113(2)
O23 O -0.3110(5) -0.1236(5) 0.0434(2)
O24 O -0.3994(5) 0.0452(4) 0.0097(2)
O25 O -0.9615(4) 0.2482(3) -0.1133(2)
O26 O -0.7976(4) 0.2553(3) -0.17943(16)
O27 O -0.5224(4) -0.1024(3) -0.25308(17)
O28 O -0.5035(4) -0.2450(3) -0.17813(19)
O29 O -0.9072(4) -0.2433(4) -0.0564(2)
O30 O -1.0412(4) -0.0926(4) -0.0369(3)
O31 O -0.6512(3) 0.3847(4) -0.17199(16)
O32 O -0.8259(3) 0.4632(3) -0.11307(16)
O33 O -0.8142(3) 0.5532(3) 0.08793(14)
O34 O -0.6491(3) 0.4762(3) 0.12921(14)
O35 O -0.2870(4) 0.2597(5) 0.0011(2)
O36 O -0.2983(4) 0.2120(5) -0.0810(2)
O37 O -0.3887(4) -0.0117(4) -0.47371(18)
O38 O -0.4437(4) 0.3514(4) -0.27154(19)
O39 O 0.0120(4) -0.6097(4) -0.02553(19)
O40 O -0.5026(4) -0.4520(3) -0.21397(18)
N1 N -0.9696(5) 0.3588(6) -0.4980(2)
N2 N -0.6964(5) 0.6100(4) -0.5398(2)
N3 N 0.1898(4) -0.1356(4) -0.4451(3)
N4 N -0.3447(5) -0.0497(4) 0.0016(2)
N5 N -0.9415(4) -0.1454(4) -0.0601(2)
N6 N -0.3416(4) 0.2628(4) -0.0371(2)
C1 C -0.8212(5) 0.2308(4) -0.3595(2)
C2 C -0.9039(5) 0.2865(4) -0.3137(2)
H1 H -0.8878 0.2722 -0.2734
C3 C -1.0109(5) 0.3636(4) -0.3272(2)
C4 C -1.0344(5) 0.3874(5) -0.3874(2)
H2 H -1.1053 0.4399 -0.3972
C5 C -0.9495(5) 0.3309(5) -0.4324(2)
C6 C -0.8448(5) 0.2516(5) -0.4199(2)
H3 H -0.7911 0.2127 -0.4508
C7 C -0.7046(4) 0.1483(5) -0.3451(2)
C8 C -1.0995(5) 0.4251(5) -0.2768(3)
C9 C -0.5567(4) 0.3227(4) -0.4683(2)
C10 C -0.5462(4) 0.2691(4) -0.5163(2)
H4 H -0.5139 0.1933 -0.5110
C11 C -0.5828(4) 0.3261(4) -0.5721(2)
C12 C -0.6313(4) 0.4387(4) -0.5801(2)
H5 H -0.6545 0.4784 -0.6178
C13 C -0.6445(5) 0.4910(4) -0.5309(2)
C14 C -0.6087(5) 0.4368(4) -0.4746(2)
H6 H -0.6187 0.4741 -0.4422
C15 C -0.5102(5) 0.2600(4) -0.4091(2)
C16 C -0.5649(4) 0.2678(4) -0.6251(2)
C17 C 0.1259(4) -0.3625(4) -0.3271(2)
C18 C 0.0024(4) -0.3275(4) -0.3193(2)
H7 H -0.0398 -0.3686 -0.2903
C19 C -0.0584(4) -0.2325(4) -0.3543(2)
C20 C 0.0043(4) -0.1710(4) -0.3974(2)
H8 H -0.0353 -0.1071 -0.4218
C21 C 0.1253(5) -0.2065(4) -0.4032(2)
C22 C 0.1896(4) -0.3022(4) -0.3690(2)
H9 H 0.2724 -0.3244 -0.3743
C23 C 0.1909(6) -0.4702(4) -0.2906(2)
C24 C -0.1917(5) -0.1926(5) -0.3447(2)
C25 C -0.3605(5) -0.0251(4) -0.1662(2)
C26 C -0.2898(4) -0.1304(4) -0.1775(2)
H10 H -0.2793 -0.1489 -0.2167
C27 C -0.2346(4) -0.2084(4) -0.1307(2)
C28 C -0.2516(5) -0.1796(4) -0.0722(2)
H11 H -0.2147 -0.2299 -0.0405
C29 C -0.3235(5) -0.0760(4) -0.0618(2)
C30 C -0.3785(5) 0.0021(4) -0.1074(2)
H12 H -0.4267 0.0716 -0.0989
C31 C -0.4187(5) 0.0585(4) -0.2179(2)
C32 C -0.1587(4) -0.3197(4) -0.1424(2)
C33 C -0.8222(5) 0.0806(4) -0.1382(2)
C34 C -0.7122(4) 0.0228(4) -0.1703(2)
H13 H -0.6632 0.0603 -0.1966
C35 C -0.6747(4) -0.0895(4) -0.1637(2)
C36 C -0.7484(4) -0.1457(4) -0.1255(2)
H14 H -0.7236 -0.2215 -0.1198
C37 C -0.8598(5) -0.0861(4) -0.0961(2)
C38 C -0.8983(5) 0.0249(4) -0.1014(2)
H15 H -0.9736 0.0625 -0.0808
C39 C -0.8635(5) 0.2016(4) -0.1439(2)
C40 C -0.5589(4) -0.1501(4) -0.2008(2)
C41 C -0.6478(4) 0.4074(4) -0.0717(2)
C42 C -0.7043(4) 0.4577(4) -0.0191(2)
H16 H -0.7841 0.5016 -0.0157
C43 C -0.6431(4) 0.4434(4) 0.0283(2)
C44 C -0.5233(4) 0.3767(4) 0.0233(2)
H17 H -0.4811 0.3648 0.0550
C45 C -0.4693(4) 0.3292(4) -0.0300(2)
C46 C -0.5287(5) 0.3434(4) -0.0773(2)
H18 H -0.4894 0.3105 -0.1127
C47 C -0.7153(5) 0.4196(4) -0.1227(2)
C48 C -0.7072(4) 0.4955(4) 0.0857(2)
Pr1A Pr -0.54994(2) 0.01299(2) -0.648110(11)
Pr2_2 Pr 0.37205(2) -0.70013(2) -0.256470(11)
Pr3_2 Pr -0.99187(2) 0.44179(2) -0.144960(11)
Pr3A Pr -1.00813(2) 0.55821(2) 0.144960(11)
Pr4A Pr -0.66540(2) 0.37352(2) -0.767530(11)
Pr4_2 Pr -1.33460(2) 0.62648(2) -0.232470(11)
Pr4A_2 Pr -0.66540(2) 0.37352(2) 0.232470(11)
O3_2 O -0.0699(4) -0.5878(4) -0.22577(18)
O4_2 O -0.2000(4) -0.5156(4) -0.2891(2)
O9A O -0.4647(3) -0.1653(3) -0.38578(16)
O10A O -0.4226(3) -0.3246(3) -0.32202(15)
O13_2 O -0.7010(5) 0.4883(4) -0.3077(2)
O14_2 O -0.8665(5) 0.4844(4) -0.2460(2)
O25_2 O 0.0385(4) -0.7518(3) -0.1133(2)
O26_2 O 0.2024(4) -0.7447(3) -0.17943(16)
O32_2 O 0.1741(3) -0.5368(3) -0.11307(16)
O33A O -0.1858(3) -0.5532(3) -0.08793(14)
O34A O -0.3509(3) -0.4762(3) -0.12921(14)
N7 N -0.2736(5) 0.2899(5) -0.7652(2)
N8 N 0.2212(5) -0.1940(5) -0.7261(3)
C49 C -0.1638(6) 0.2806(5) -0.8000(3)
H19 H -0.1534 0.3405 -0.8289
C50 C -0.0665(5) 0.1866(5) -0.7945(3)
H20 H 0.0065 0.1828 -0.8209
C51 C -0.0777(5) 0.0983(5) -0.7498(2)
C52 C -0.1901(6) 0.1073(5) -0.7133(3)
H21 H -0.2021 0.0496 -0.6828
C53 C -0.2832(6) 0.2028(6) -0.7230(3)
H22 H -0.3579 0.2071 -0.6985
C54 C 0.1538(9) -0.1424(7) -0.6783(4)
H23 H 0.1752 -0.1691 -0.6390
C55 C 0.0548(8) -0.0522(6) -0.6845(3)
H24 H 0.0073 -0.0221 -0.6492
C56 C 0.0248(5) -0.0054(5) -0.7427(3)
C57 C 0.0968(6) -0.0557(6) -0.7915(3)
H25 H 0.0821 -0.0267 -0.8321
C58 C 0.1917(7) -0.1498(7) -0.7812(4)
H26 H 0.2376 -0.1839 -0.8154
loop_
_geom_bond_atom_site_label_1
_geom_bond_atom_site_label_2
_geom_bond_site_symmetry_1
_geom_bond_site_symmetry_2
Pr1 O1 1_555 1_555
Pr2 O2 1_555 1_555
Pr3 O14 1_555 1_555
Pr4 O15 1_555 1_555
O1 C7 1_555 1_555
O2 Pr1 1_555 1_555
O3 C8 1_555 1_555
O4 C8 1_555 1_555
O5 N1 1_555 1_555
O6 N1 1_555 1_555
O7 Pr2 1_555 1_555
O8 Pr1 1_555 1_555
O9 C16 1_555 1_555
O10 C16 1_555 1_555
O11 N2 1_555 1_555
O12 N2 1_555 1_555
O13 C23 1_555 1_555
O14 C23 1_555 1_555
O15 C24 1_555 1_555
O16 Pr1 1_555 1_555
O17 N3 1_555 1_555
O18 N3 1_555 1_555
O19 Pr2 1_555 1_555
O20 Pr1 1_555 1_555
O21 Pr3 1_555 1_555
O22 Pr3 1_555 1_555
O23 N4 1_555 1_555
O24 N4 1_555 1_555
O25 C39 1_555 1_555
O26 Pr2 1_555 1_555
O27 Pr1 1_555 1_555
O28 Pr4 1_555 1_555
O29 N5 1_555 1_555
O30 N5 1_555 1_555
O31 Pr2 1_555 1_555
O32 C47 1_555 1_555
O33 C48 1_555 1_555
O34 C48 1_555 1_555
O35 N6 1_555 1_555
O36 N6 1_555 1_555
O37 Pr1 1_555 1_555
O38 Pr2 1_555 1_555
O39 Pr3 1_555 1_555
O40 Pr4 1_555 1_555
N1 C5 1_555 1_555
N2 C13 1_555 1_555
N3 C21 1_555 1_555
N4 C29 1_555 1_555
N5 C37 1_555 1_555
N6 C45 1_555 1_555
N7 C49 1_555 1_555
N8 C54 1_555 1_555
C1 C2 1_555 1_555
C2 H1 1_555 1_555
C3 C2 1_555 1_555
C4 C3 1_555 1_555
H2 C4 1_555 1_555
C5 C4 1_555 1_555
C6 C1 1_555 1_555
H3 C6 1_555 1_555
C7 O2 1_555 1_555
C8 C3 1_555 1_555
C9 C10 1_555 1_555
C10 H4 1_555 1_555
C11 C10 1_555 1_555
C12 C11 1_555 1_555
H5 C12 1_555 1_555
C13 C12 1_555 1_555
C14 C9 1_555 1_555
H6 C14 1_555 1_555
C15 O7 1_555 1_555
C16 C11 1_555 1_555
C17 C18 1_555 1_555
C18 H7 1_555 1_555
C19 C18 1_555 1_555
C20 C19 1_555 1_555
H8 C20 1_555 1_555
C21 C20 1_555 1_555
C22 C17 1_555 1_555
H9 C22 1_555 1_555
C23 C17 1_555 1_555
C24 O16 1_555 1_555
C25 C26 1_555 1_555
C26 H10 1_555 1_555
C27 C26 1_555 1_555
C28 C27 1_555 1_555
H11 C28 1_555 1_555
C29 C28 1_555 1_555
C30 C25 1_555 1_555
H12 C30 1_555 1_555
C31 O19 1_555 1_555
C32 O21 1_555 1_555
C33 C34 1_555 1_555
C34 H13 1_555 1_555
C35 C34 1_555 1_555
C36 C35 1_555 1_555
H14 C36 1_555 1_555
C37 C36 1_555 1_555
C38 C33 1_555 1_555
H15 C38 1_555 1_555
C39 O26 1_555 1_555
C40 O27 1_555 1_555
C41 C42 1_555 1_555
C42 H16 1_555 1_555
C43 C42 1_555 1_555
C44 C43 1_555 1_555
H17 C44 1_555 1_555
C45 C44 1_555 1_555
C46 C41 1_555 1_555
H18 C46 1_555 1_555
C47 O31 1_555 1_555
C48 C43 1_555 1_555
C49 H19 1_555 1_555
C50 C49 1_555 1_555
H20 C50 1_555 1_555
C51 C50 1_555 1_555
C52 C51 1_555 1_555
H21 C52 1_555 1_555
C53 N7 1_555 1_555
H22 C53 1_555 1_555
C54 H23 1_555 1_555
C55 C54 1_555 1_555
H24 C55 1_555 1_555
C56 C51 1_555 1_555
C57 C56 1_555 1_555
H25 C57 1_555 1_555
C58 N8 1_555 1_555
H26 C58 1_555 1_555
Pr1A O9 1_555 1_555
Pr2_2 O13 1_555 1_555
Pr3_2 O3 1_555 1_555
Pr3A O33 1_555 1_555
Pr4A O10 1_555 1_555
Pr4_2 O4 1_555 1_555
Pr4A_2 O34 1_555 1_555
O3_2 Pr3 1_555 1_555
O4_2 Pr4 1_555 1_555
O9A Pr1 1_555 1_555
O10A Pr4 1_555 1_555
O13_2 Pr2 1_555 1_555
O14_2 Pr2 1_555 1_555
O25_2 Pr3 1_555 1_555
O26_2 Pr3 1_555 1_555
O32_2 Pr3 1_555 1_555
O33A Pr3 1_555 1_555
O34A Pr4 1_555 1_555
Pr4 O21 1_555 1_555
O8 C15 1_555 1_555
O14 Pr2_2 1_555 1_555
O20 C31 1_555 1_555
O22 C32 1_555 1_555
O25 Pr3_2 1_555 1_555
O26 Pr3_2 1_555 1_555
O28 C40 1_555 1_555
O32 Pr3_2 1_555 1_555
C1 C7 1_555 1_555
C5 C6 1_555 1_555
C9 C15 1_555 1_555
C13 C14 1_555 1_555
C19 C24 1_555 1_555
C21 C22 1_555 1_555
C25 C31 1_555 1_555
C27 C32 1_555 1_555
C29 C30 1_555 1_555
C33 C39 1_555 1_555
C35 C40 1_555 1_555
C37 C38 1_555 1_555
C41 C47 1_555 1_555
C45 C46 1_555 1_555
C52 C53 1_555 1_555
C55 C56 1_555 1_555
C57 C58 1_555 1_555
Pr2_2 O26_2 1_555 1_555
Pr3_2 O14_2 1_555 1_555

#END
