
#######################################################################
#
#                 Cambridge Crystallographic Data Centre
#                                CCDC 
#
#######################################################################
#
# If this CIF has been generated from an entry in the Cambridge 
# Structural Database, then it will include bibliographic, chemical, 
# crystal, experimental, refinement or atomic coordinate data resulting 
# from the CCDC's data processing and validation procedures.
#
#######################################################################

data_WICPOO
_symmetry_cell_setting           triclinic
_symmetry_space_group_name_H-M   'P -1'
_symmetry_Int_Tables_number      2
_space_group_name_Hall           '-P 1'
loop_
_symmetry_equiv_pos_site_id
_symmetry_equiv_pos_as_xyz
1 x,y,z
2 -x,-y,-z
_cell_length_a                   8.6712(17)
_cell_length_b                   9.3753(19)
_cell_length_c                   13.804(3)
_cell_angle_alpha                84.93(3)
_cell_angle_beta                 77.99(3)
_cell_angle_gamma                73.92(3)
_cell_volume                     1054.13
loop_
_atom_site_label
_atom_site_type_symbol
_atom_site_fract_x
_atom_site_fract_y
_atom_site_fract_z
Ho1 Ho 0.671470(18) -0.445370(18) -0.415980(12)
O1 O 0.4604(3) -0.3739(3) -0.6628(2)
O2 O 0.6453(4) -0.4839(3) -0.5727(2)
O3 O 1.2314(4) -0.5036(4) -0.7269(2)
O4 O 1.2720(4) -0.3628(5) -0.8622(3)
O5 O 0.8271(7) 0.0698(6) -0.9134(5)
O6 O 0.5945(6) 0.0251(7) -0.9022(5)
O7 O -0.1128(4) 0.3608(3) -0.4668(3)
O8 O 0.1490(4) 0.3074(3) -0.5393(2)
O9 O 0.5025(4) -0.2131(4) -0.4702(2)
O10 O 0.4343(4) -0.2941(4) -0.3174(2)
O11 O -0.1710(6) -0.2007(6) -0.2107(4)
O12 O -0.3267(5) -0.0451(5) -0.2953(4)
N1 N 0.7303(6) -0.0044(5) -0.8840(4)
N2 N -0.1938(5) -0.1006(5) -0.2718(4)
C1 C 0.7215(5) -0.3278(4) -0.7072(3)
C2 C 0.8876(5) -0.3915(4) -0.7129(3)
H2 H 0.9225 -0.4752 -0.6735
C3 C 1.0032(5) -0.3322(5) -0.7768(3)
C4 C 0.9517(5) -0.2036(5) -0.8321(3)
H3 H 1.0272 -0.1612 -0.8738
C5 C 0.7846(5) -0.1390(5) -0.8240(3)
C6 C 0.6690(5) -0.2008(5) -0.7641(3)
H4 H 0.5580 -0.1580 -0.7620
C7 C 0.5992(5) -0.3971(4) -0.6425(3)
C8 C 1.1827(5) -0.4052(5) -0.7882(3)
C9 C 0.0542(4) 0.1280(4) -0.4306(3)
C10 C 0.2100(5) 0.0333(4) -0.4366(3)
H5 H 0.2988 0.0602 -0.4763
C11 C 0.2344(4) -0.1020(4) -0.3835(3)
C12 C 0.1016(5) -0.1442(5) -0.3267(3)
H6 H 0.1163 -0.2330 -0.2896
C13 C -0.0517(5) -0.0522(5) -0.3262(3)
C14 C -0.0803(5) 0.0854(4) -0.3764(3)
H7 H -0.1857 0.1464 -0.3737
C15 C 0.0276(5) 0.2772(4) -0.4828(3)
C16 C 0.4019(5) -0.2074(4) -0.3902(3)
Ho1A Ho 0.328530(18) -0.554630(18) -0.584020(12)
Ho1A_2 Ho 1.328530(18) -0.554630(18) -0.584020(12)
Ho1A_3 Ho 0.328530(18) 0.445370(18) -0.584020(12)
Ho1_2 Ho -0.328530(18) 0.554630(18) -0.415980(12)
O1A O 0.5396(3) -0.6261(3) -0.3372(2)
O3A O 0.7686(4) -0.4964(4) -0.2731(2)
O7_2 O 0.8872(4) -0.6392(3) -0.4668(3)
O8A O 0.8510(4) -0.3074(3) -0.4607(2)
N3 N 0.4202(4) -0.5580(5) -0.0866(3)
H1 H 0.5235 -0.5729 -0.1089
C17 C 0.3180(6) -0.4354(6) -0.1135(4)
H8 H 0.3591 -0.3660 -0.1557
C18 C 0.1505(6) -0.4079(6) -0.0802(4)
H9 H 0.0802 -0.3205 -0.0994
C19 C 0.0894(5) -0.5114(5) -0.0183(3)
C20 C 0.2016(6) -0.6385(6) 0.0084(4)
H10 H 0.1648 -0.7108 0.0499
C21 C 0.3663(6) -0.6582(7) -0.0258(4)
H11 H 0.4404 -0.7426 -0.0061
N3A N -0.4202(4) -0.4420(5) 0.0866(3)
H1A H -0.5235 -0.4271 0.1089
C17A C -0.3180(6) -0.5646(6) 0.1135(4)
H8A H -0.3591 -0.6340 0.1557
C18A C -0.1505(6) -0.5921(6) 0.0802(4)
H9A H -0.0802 -0.6795 0.0994
C19A C -0.0894(5) -0.4886(5) 0.0183(3)
C20A C -0.2016(6) -0.3615(6) -0.0084(4)
H10A H -0.1648 -0.2892 -0.0499
C21A C -0.3663(6) -0.3418(7) 0.0258(4)
H11A H -0.4404 -0.2574 0.0061
loop_
_geom_bond_atom_site_label_1
_geom_bond_atom_site_label_2
_geom_bond_site_symmetry_1
_geom_bond_site_symmetry_2
Ho1 O2 1_555 1_555
O1 C7 1_555 1_555
O2 C7 1_555 1_555
O3 C8 1_555 1_555
O4 C8 1_555 1_555
O5 N1 1_555 1_555
O6 N1 1_555 1_555
O7 C15 1_555 1_555
O8 C15 1_555 1_555
O9 Ho1 1_555 1_555
O10 Ho1 1_555 1_555
O11 N2 1_555 1_555
O12 N2 1_555 1_555
N1 C5 1_555 1_555
N2 C13 1_555 1_555
N3 H1 1_555 1_555
C1 C2 1_555 1_555
C2 H2 1_555 1_555
C3 C2 1_555 1_555
C4 C3 1_555 1_555
H3 C4 1_555 1_555
C5 C4 1_555 1_555
C6 C1 1_555 1_555
H4 C6 1_555 1_555
C7 C1 1_555 1_555
C8 C3 1_555 1_555
C9 C10 1_555 1_555
C10 H5 1_555 1_555
C11 C10 1_555 1_555
C12 C11 1_555 1_555
H6 C12 1_555 1_555
C13 C12 1_555 1_555
C14 C9 1_555 1_555
H7 C14 1_555 1_555
C15 C9 1_555 1_555
C16 O9 1_555 1_555
C17 N3 1_555 1_555
H8 C17 1_555 1_555
C18 C17 1_555 1_555
H9 C18 1_555 1_555
C19 C18 1_555 1_555
C20 C19 1_555 1_555
H10 C20 1_555 1_555
C21 N3 1_555 1_555
H11 C21 1_555 1_555
Ho1A O1 1_555 1_555
Ho1A_2 O3 1_555 1_555
Ho1A_3 O8 1_555 1_555
Ho1_2 O7 1_555 1_555
O1A Ho1 1_555 1_555
O3A Ho1 1_555 1_555
O7_2 Ho1 1_555 1_555
O8A Ho1 1_555 1_555
N3A H1A 1_555 1_555
C17A N3A 1_555 1_555
H8A C17A 1_555 1_555
C18A C17A 1_555 1_555
H9A C18A 1_555 1_555
C19A C19 1_555 1_555
C20A C19A 1_555 1_555
H10A C20A 1_555 1_555
C21A N3A 1_555 1_555
H11A C21A 1_555 1_555
O10 C16 1_555 1_555
C5 C6 1_555 1_555
C11 C16 1_555 1_555
C13 C14 1_555 1_555
C20 C21 1_555 1_555
C18A C19A 1_555 1_555
C20A C21A 1_555 1_555

#END
