
#######################################################################
#
#                 Cambridge Crystallographic Data Centre
#                                CCDC 
#
#######################################################################
#
# If this CIF has been generated from an entry in the Cambridge 
# Structural Database, then it will include bibliographic, chemical, 
# crystal, experimental, refinement or atomic coordinate data resulting 
# from the CCDC's data processing and validation procedures.
#
#######################################################################

data_WICPEE
_symmetry_cell_setting           triclinic
_symmetry_space_group_name_H-M   'P -1'
_symmetry_Int_Tables_number      2
_space_group_name_Hall           '-P 1'
loop_
_symmetry_equiv_pos_site_id
_symmetry_equiv_pos_as_xyz
1 x,y,z
2 -x,-y,-z
_cell_length_a                   8.6559(17)
_cell_length_b                   9.3993(19)
_cell_length_c                   13.812(3)
_cell_angle_alpha                85.16(3)
_cell_angle_beta                 78.16(3)
_cell_angle_gamma                74.51(3)
_cell_volume                     1059.36
loop_
_atom_site_label
_atom_site_type_symbol
_atom_site_fract_x
_atom_site_fract_y
_atom_site_fract_z
Eu1 Eu 0.664842(15) 0.553435(14) 0.583124(10)
O1 O 0.5429(3) 0.3636(3) 0.6733(2)
O2 O 0.3679(3) 0.4789(3) 0.57946(18)
O3 O -0.2278(3) 0.5041(3) 0.7264(2)
O4 O -0.2723(3) 0.3660(4) 0.8634(2)
O5 O 0.1614(6) -0.0717(5) 0.9147(4)
O6 O 0.3956(5) -0.0313(6) 0.9047(4)
O7 O 0.8831(3) 0.3571(3) 0.5271(2)
O8 O 1.1466(3) 0.3096(3) 0.4642(2)
O9 O 1.4949(3) -0.2103(3) 0.5310(2)
O10 O 1.4285(3) -0.2870(3) 0.6849(2)
O11 O 0.8224(5) -0.1936(6) 0.7925(4)
O12 O 0.6689(4) -0.0451(4) 0.7049(4)
N1 N 0.2598(5) 0.0004(4) 0.8854(3)
N2 N 0.8014(5) -0.0981(4) 0.7303(3)
C1 C 0.2794(4) 0.3217(4) 0.7121(2)
C2 C 0.1140(4) 0.3887(4) 0.7155(2)
H2 H 0.0823 0.4723 0.6759
C3 C -0.0036(4) 0.3306(4) 0.7779(2)
C4 C 0.0439(4) 0.2014(4) 0.8328(3)
H3 H -0.0336 0.1596 0.8731
C5 C 0.2087(4) 0.1360(4) 0.8263(3)
C6 C 0.3292(4) 0.1948(4) 0.7687(3)
H4 H 0.4392 0.1508 0.7680
C7 C 0.4061(4) 0.3906(4) 0.6494(3)
C8 C -0.1826(4) 0.4065(4) 0.7887(3)
C9 C 1.0506(4) 0.1285(3) 0.5702(2)
C10 C 1.2072(4) 0.0348(3) 0.5650(2)
H5 H 1.2965 0.0616 0.5257
C11 C 1.2293(4) -0.0992(3) 0.6188(3)
C12 C 1.0969(4) -0.1406(4) 0.6762(3)
H6 H 1.1109 -0.2279 0.7142
C13 C 0.9436(4) -0.0490(4) 0.6754(3)
C14 C 0.9156(4) 0.0854(4) 0.6247(3)
H7 H 0.8103 0.1451 0.6268
C15 C 1.0248(4) 0.2772(3) 0.5167(2)
C16 C 1.3955(4) -0.2034(3) 0.6118(3)
Eu1A Eu 0.335158(15) 0.446565(14) 0.416876(10)
Eu1_2 Eu -0.335158(15) 0.553435(14) 0.583124(10)
Eu1A_2 Eu 1.335158(15) 0.446565(14) 0.416876(10)
Eu1_3 Eu 1.664842(15) -0.446565(14) 0.583124(10)
O2A O 0.6321(3) 0.5211(3) 0.42054(18)
O3_2 O 0.7722(3) 0.5041(3) 0.7264(2)
O8A O 0.8534(3) 0.6904(3) 0.5358(2)
O9_2 O 0.4949(3) 0.7897(3) 0.5310(2)
O10_2 O 0.4285(3) 0.7130(3) 0.6849(2)
N3 N 0.5810(4) 0.5554(4) 0.0865(2)
H1 H 0.4780 0.5698 0.1091
C17 C 0.6348(5) 0.6571(6) 0.0263(4)
H8 H 0.5611 0.7412 0.0073
C18 C 0.8002(5) 0.6376(5) -0.0080(3)
H9 H 0.8379 0.7098 -0.0491
C19 C 0.9103(4) 0.5115(4) 0.0183(2)
C20 C 0.8480(5) 0.4078(5) 0.0793(3)
H10 H 0.9182 0.3211 0.0980
C21 C 0.6822(5) 0.4327(5) 0.1125(3)
H11 H 0.6409 0.3625 0.1537
N3A N 1.4190(4) 0.4446(4) -0.0865(2)
H1A H 1.5220 0.4302 -0.1091
C17A C 1.3652(5) 0.3429(6) -0.0263(4)
H8A H 1.4389 0.2588 -0.0073
C18A C 1.1998(5) 0.3624(5) 0.0080(3)
H9A H 1.1621 0.2902 0.0491
C19A C 1.0897(4) 0.4885(4) -0.0183(2)
C20A C 1.1520(5) 0.5922(5) -0.0793(3)
H10A H 1.0818 0.6789 -0.0980
C21A C 1.3178(5) 0.5673(5) -0.1125(3)
H11A H 1.3591 0.6375 -0.1537
loop_
_geom_bond_atom_site_label_1
_geom_bond_atom_site_label_2
_geom_bond_site_symmetry_1
_geom_bond_site_symmetry_2
Eu1 O1 1_555 1_555
O1 C7 1_555 1_555
O2 Eu1 1_555 1_555
O3 C8 1_555 1_555
O4 C8 1_555 1_555
O5 N1 1_555 1_555
O6 N1 1_555 1_555
O7 Eu1 1_555 1_555
O8 C15 1_555 1_555
O9 C16 1_555 1_555
O10 C16 1_555 1_555
O11 N2 1_555 1_555
O12 N2 1_555 1_555
N1 C5 1_555 1_555
N2 C13 1_555 1_555
N3 H1 1_555 1_555
C1 C2 1_555 1_555
C2 H2 1_555 1_555
C3 C2 1_555 1_555
C4 C3 1_555 1_555
H3 C4 1_555 1_555
C5 C4 1_555 1_555
C6 C1 1_555 1_555
H4 C6 1_555 1_555
C7 O2 1_555 1_555
C8 C3 1_555 1_555
C9 C10 1_555 1_555
C10 H5 1_555 1_555
C11 C10 1_555 1_555
C12 C11 1_555 1_555
H6 C12 1_555 1_555
C13 C12 1_555 1_555
C14 C9 1_555 1_555
H7 C14 1_555 1_555
C15 O7 1_555 1_555
C16 C11 1_555 1_555
C17 N3 1_555 1_555
H8 C17 1_555 1_555
C18 C17 1_555 1_555
H9 C18 1_555 1_555
C19 C18 1_555 1_555
C20 C19 1_555 1_555
H10 C20 1_555 1_555
C21 N3 1_555 1_555
H11 C21 1_555 1_555
Eu1A O2 1_555 1_555
Eu1_2 O3 1_555 1_555
Eu1A_2 O8 1_555 1_555
Eu1_3 O9 1_555 1_555
O2A Eu1 1_555 1_555
O3_2 Eu1 1_555 1_555
O8A Eu1 1_555 1_555
O9_2 Eu1 1_555 1_555
O10_2 Eu1 1_555 1_555
N3A H1A 1_555 1_555
C17A N3A 1_555 1_555
H8A C17A 1_555 1_555
C18A C17A 1_555 1_555
H9A C18A 1_555 1_555
C19A C19 1_555 1_555
C20A C19A 1_555 1_555
H10A C20A 1_555 1_555
C21A N3A 1_555 1_555
H11A C21A 1_555 1_555
O10 Eu1_3 1_555 1_555
C1 C7 1_555 1_555
C5 C6 1_555 1_555
C9 C15 1_555 1_555
C13 C14 1_555 1_555
C20 C21 1_555 1_555
Eu1A O2A 1_555 1_555
C18A C19A 1_555 1_555
C20A C21A 1_555 1_555

#END
