
#######################################################################
#
#                 Cambridge Crystallographic Data Centre
#                                CCDC 
#
#######################################################################
#
# If this CIF has been generated from an entry in the Cambridge 
# Structural Database, then it will include bibliographic, chemical, 
# crystal, experimental, refinement or atomic coordinate data resulting 
# from the CCDC's data processing and validation procedures.
#
#######################################################################

data_WICPUU
_symmetry_cell_setting           triclinic
_symmetry_space_group_name_H-M   'P -1'
_symmetry_Int_Tables_number      2
_space_group_name_Hall           '-P 1'
loop_
_symmetry_equiv_pos_site_id
_symmetry_equiv_pos_as_xyz
1 x,y,z
2 -x,-y,-z
_cell_length_a                   8.6721(17)
_cell_length_b                   9.3671(19)
_cell_length_c                   13.849(3)
_cell_angle_alpha                84.74(3)
_cell_angle_beta                 77.93(3)
_cell_angle_gamma                73.63(3)
_cell_volume                     1054.88
loop_
_atom_site_label
_atom_site_type_symbol
_atom_site_fract_x
_atom_site_fract_y
_atom_site_fract_z
Yb1 Yb 0.67602(3) -0.44479(3) -0.41500(2)
O1 O 0.4372(7) -0.2982(6) -0.3192(4)
O2 O 0.5078(7) -0.2155(6) -0.4700(4)
O3 O 0.1471(7) 0.3079(6) -0.5408(4)
O4 O -0.1108(6) 0.3636(6) -0.4617(4)
O5 O -0.3293(9) -0.0461(9) -0.2981(7)
O6 O -0.1671(11) -0.2035(11) -0.2128(7)
O7 O 1.2674(7) -0.3591(9) -0.8615(5)
O8 O 1.2357(7) -0.5052(7) -0.7276(4)
O9 O 0.6517(7) -0.4854(6) -0.5674(4)
O10 O 0.4625(6) -0.3799(6) -0.6556(5)
O11 O 0.5851(11) 0.0204(12) -0.9008(8)
O12 O 0.8165(12) 0.0697(11) -0.9129(9)
N1 N -0.1910(10) -0.1027(9) -0.2740(7)
N2 N 0.7243(10) -0.0051(9) -0.8823(7)
C1 C 0.2383(9) -0.1043(8) -0.3841(5)
C2 C 0.2142(8) 0.0310(8) -0.4380(5)
H2 H 0.3025 0.0570 -0.4789
C3 C 0.0566(8) 0.1273(8) -0.4302(5)
C4 C -0.0762(9) 0.0841(8) -0.3768(5)
H3 H -0.1819 0.1453 -0.3747
C5 C -0.0493(9) -0.0527(9) -0.3259(6)
C6 C 0.1038(10) -0.1466(8) -0.3273(6)
H4 H 0.1182 -0.2366 -0.2912
C7 C 0.4047(9) -0.2105(8) -0.3918(6)
C8 C 0.0285(9) 0.2780(7) -0.4825(5)
C14 C 1.0010(9) -0.3335(8) -0.7758(5)
C15 C 0.8878(9) -0.3918(8) -0.7109(5)
H9 H 0.9246 -0.4745 -0.6708
C16 C 0.7218(9) -0.3302(8) -0.7041(5)
C17 C 0.6655(10) -0.2047(9) -0.7625(6)
H10 H 0.5543 -0.1644 -0.7617
C18 C 0.7824(10) -0.1411(9) -0.8225(6)
C19 C 0.9451(10) -0.2031(9) -0.8321(6)
H11 H 1.0190 -0.1605 -0.8750
C20 C 1.1834(9) -0.4049(9) -0.7884(6)
C21 C 0.6018(9) -0.4027(8) -0.6377(5)
Yb1A Yb 0.32398(3) 0.44479(3) -0.58500(2)
Yb1_2 Yb -0.32398(3) 0.55521(3) -0.41500(2)
Yb1A_2 Yb 1.32398(3) -0.55521(3) -0.58500(2)
Yb1A_3 Yb 0.32398(3) -0.55521(3) -0.58500(2)
O3A O 0.8529(7) -0.3079(6) -0.4592(4)
O4_2 O 0.8892(6) -0.6364(6) -0.4617(4)
O8A O 0.7643(7) -0.4948(7) -0.2724(4)
O10A O 0.5375(6) -0.6201(6) -0.3444(5)
N3 N 0.4214(9) -0.5581(9) -0.0861(5)
H1 H 0.5248 -0.5730 -0.1081
C9 C 0.3176(11) -0.4353(11) -0.1142(7)
H5 H 0.3580 -0.3658 -0.1567
C10 C 0.1506(11) -0.4090(11) -0.0812(7)
H6 H 0.0800 -0.3218 -0.1011
C11 C 0.0875(9) -0.5117(10) -0.0187(5)
C12 C 0.1991(11) -0.6389(12) 0.0083(8)
H7 H 0.1619 -0.7120 0.0487
C13 C 0.3666(11) -0.6583(13) -0.0244(8)
H8 H 0.4406 -0.7417 -0.0030
N3A N -0.4214(9) -0.4419(9) 0.0861(5)
H1A H -0.5248 -0.4270 0.1081
C9A C -0.3176(11) -0.5647(11) 0.1142(7)
H5A H -0.3580 -0.6342 0.1567
C10A C -0.1506(11) -0.5910(11) 0.0812(7)
H6A H -0.0800 -0.6782 0.1011
C11A C -0.0875(9) -0.4883(10) 0.0187(5)
C12A C -0.1991(11) -0.3611(12) -0.0083(8)
H7A H -0.1619 -0.2880 -0.0487
C13A C -0.3666(11) -0.3417(13) 0.0244(8)
H8A H -0.4406 -0.2583 0.0030
loop_
_geom_bond_atom_site_label_1
_geom_bond_atom_site_label_2
_geom_bond_site_symmetry_1
_geom_bond_site_symmetry_2
Yb1 O1 1_555 1_555
O1 C7 1_555 1_555
O2 Yb1 1_555 1_555
O3 C8 1_555 1_555
O4 C8 1_555 1_555
O5 N1 1_555 1_555
O6 N1 1_555 1_555
O7 C20 1_555 1_555
O8 C20 1_555 1_555
O9 Yb1 1_555 1_555
O10 C21 1_555 1_555
O11 N2 1_555 1_555
O12 N2 1_555 1_555
N1 C5 1_555 1_555
N2 C18 1_555 1_555
N3 H1 1_555 1_555
C1 C2 1_555 1_555
C2 H2 1_555 1_555
C3 C2 1_555 1_555
C4 C3 1_555 1_555
H3 C4 1_555 1_555
C5 C4 1_555 1_555
C6 C1 1_555 1_555
H4 C6 1_555 1_555
C7 O2 1_555 1_555
C8 C3 1_555 1_555
C9 N3 1_555 1_555
H5 C9 1_555 1_555
C10 C9 1_555 1_555
H6 C10 1_555 1_555
C11 C10 1_555 1_555
C12 C11 1_555 1_555
H7 C12 1_555 1_555
C13 N3 1_555 1_555
H8 C13 1_555 1_555
C14 C15 1_555 1_555
C15 H9 1_555 1_555
C16 C15 1_555 1_555
C17 C16 1_555 1_555
H10 C17 1_555 1_555
C18 C17 1_555 1_555
C19 C14 1_555 1_555
H11 C19 1_555 1_555
C20 C14 1_555 1_555
C21 O9 1_555 1_555
Yb1A O3 1_555 1_555
Yb1_2 O4 1_555 1_555
Yb1A_2 O8 1_555 1_555
Yb1A_3 O10 1_555 1_555
O3A Yb1 1_555 1_555
O4_2 Yb1 1_555 1_555
O8A Yb1 1_555 1_555
O10A Yb1 1_555 1_555
N3A H1A 1_555 1_555
C9A N3A 1_555 1_555
H5A C9A 1_555 1_555
C10A C9A 1_555 1_555
H6A C10A 1_555 1_555
C11A C11 1_555 1_555
C12A C11A 1_555 1_555
H7A C12A 1_555 1_555
C13A N3A 1_555 1_555
H8A C13A 1_555 1_555
C1 C7 1_555 1_555
C5 C6 1_555 1_555
C12 C13 1_555 1_555
C16 C21 1_555 1_555
C18 C19 1_555 1_555
C10A C11A 1_555 1_555
C12A C13A 1_555 1_555

#END
