
#######################################################################
#
#                 Cambridge Crystallographic Data Centre
#                                CCDC 
#
#######################################################################
#
# If this CIF has been generated from an entry in the Cambridge 
# Structural Database, then it will include bibliographic, chemical, 
# crystal, experimental, refinement or atomic coordinate data resulting 
# from the CCDC's data processing and validation procedures.
#
#######################################################################

data_WICPII
_symmetry_cell_setting           triclinic
_symmetry_space_group_name_H-M   'P -1'
_symmetry_Int_Tables_number      2
_space_group_name_Hall           '-P 1'
loop_
_symmetry_equiv_pos_site_id
_symmetry_equiv_pos_as_xyz
1 x,y,z
2 -x,-y,-z
_cell_length_a                   8.6598(17)
_cell_length_b                   9.3878(19)
_cell_length_c                   13.796(3)
_cell_angle_alpha                85.10(3)
_cell_angle_beta                 78.24(3)
_cell_angle_gamma                74.21(3)
_cell_volume                     1056.06
loop_
_atom_site_label
_atom_site_type_symbol
_atom_site_fract_x
_atom_site_fract_y
_atom_site_fract_z
Tb1 Tb 0.66799(2) 0.55396(2) 0.583522(16)
O1 O 0.4304(5) 0.7095(4) 0.6836(3)
O2 O 0.4990(5) 0.7881(4) 0.5307(3)
O3 O 0.1474(5) 1.3089(4) 0.4634(3)
O4 O -0.1154(5) 1.3597(4) 0.5298(3)
O5 O -0.3287(6) 0.9556(7) 0.7044(5)
O6 O -0.1751(8) 0.8023(8) 0.7906(6)
O7 O 0.5419(5) 0.3688(4) 0.6686(3)
O8 O 0.3613(5) 0.4811(4) 0.5761(3)
O9 O -0.2301(5) 0.5043(5) 0.7267(3)
O10 O -0.2716(5) 0.3635(6) 0.8623(3)
O11 O 0.1682(9) -0.0707(7) 0.9148(6)
O12 O 0.4009(8) -0.0294(9) 0.9032(6)
N1 N -0.1966(7) 0.9002(7) 0.7288(5)
N2 N 0.2647(8) 0.0019(7) 0.8852(5)
C1 C 0.2319(6) 0.8996(5) 0.6176(4)
C2 C 0.2092(6) 1.0342(5) 0.5644(4)
H2 H 0.2983 1.0616 0.5256
C3 C 0.0525(6) 1.1276(5) 0.5697(3)
C4 C -0.0823(6) 1.0851(6) 0.6237(4)
H3 H -0.1875 1.1458 0.6259
C5 C -0.0545(7) 0.9484(6) 0.6744(4)
C6 C 0.0994(7) 0.8580(6) 0.6750(4)
H4 H 0.1144 0.7706 0.7132
C7 C 0.3977(6) 0.7942(5) 0.6105(4)
C8 C 0.0263(6) 1.2769(5) 0.5168(4)
C9 C 0.2786(6) 0.3247(5) 0.7098(3)
C10 C 0.1116(6) 0.3910(5) 0.7141(4)
H5 H 0.0775 0.4746 0.6747
C11 C -0.0021(6) 0.3312(6) 0.7773(4)
C12 C 0.0475(7) 0.2012(6) 0.8328(4)
H6 H -0.0285 0.1588 0.8739
C13 C 0.2115(7) 0.1382(6) 0.8248(4)
C14 C 0.3304(6) 0.1967(6) 0.7664(4)
H7 H 0.4408 0.1524 0.7649
C15 C 0.4045(6) 0.3927(6) 0.6466(4)
C16 C -0.1824(6) 0.4050(6) 0.7888(4)
Tb1A Tb 0.33201(2) 1.44604(2) 0.416478(16)
Tb1_2 Tb -0.33201(2) 1.55396(2) 0.583522(16)
Tb1A_2 Tb 0.33201(2) 0.44604(2) 0.416478(16)
Tb1_3 Tb -0.33201(2) 0.55396(2) 0.583522(16)
O3A O 0.8526(5) 0.6911(4) 0.5366(3)
O4_2 O 0.8846(5) 0.3597(4) 0.5298(3)
O8A O 0.6387(5) 0.5189(4) 0.4239(3)
O9_2 O 0.7699(5) 0.5043(5) 0.7267(3)
N3 N 0.4189(6) 0.4439(6) 0.9134(4)
H1 H 0.5220 0.4294 0.8910
C17 C 0.3168(8) 0.5667(8) 0.8869(5)
H8 H 0.3576 0.6368 0.8454
C18 C 0.1507(7) 0.5921(7) 0.9200(5)
H9 H 0.0798 0.6785 0.9007
C19 C 0.0901(6) 0.4887(6) 0.9821(4)
C20 C 0.2009(7) 0.3617(8) 1.0084(5)
H10 H 0.1640 0.2891 1.0493
C21 C 0.3655(8) 0.3430(9) 0.9739(6)
H11 H 0.4398 0.2589 0.9931
N3A N -0.4189(6) 0.5561(6) 1.0866(4)
H1A H -0.5220 0.5706 1.1090
C17A C -0.3168(8) 0.4333(8) 1.1131(5)
H8A H -0.3576 0.3632 1.1546
C18A C -0.1507(7) 0.4079(7) 1.0800(5)
H9A H -0.0798 0.3215 1.0993
C19A C -0.0901(6) 0.5113(6) 1.0179(4)
C20A C -0.2009(7) 0.6383(8) 0.9916(5)
H10A H -0.1640 0.7109 0.9507
C21A C -0.3655(8) 0.6570(9) 1.0261(6)
H11A H -0.4398 0.7411 1.0069
loop_
_geom_bond_atom_site_label_1
_geom_bond_atom_site_label_2
_geom_bond_site_symmetry_1
_geom_bond_site_symmetry_2
Tb1 O1 1_555 1_555
O1 C7 1_555 1_555
O2 Tb1 1_555 1_555
O3 C8 1_555 1_555
O4 C8 1_555 1_555
O5 N1 1_555 1_555
O6 N1 1_555 1_555
O7 Tb1 1_555 1_555
O8 C15 1_555 1_555
O9 C16 1_555 1_555
O10 C16 1_555 1_555
O11 N2 1_555 1_555
O12 N2 1_555 1_555
N1 C5 1_555 1_555
N2 C13 1_555 1_555
N3 H1 1_555 1_555
C1 C2 1_555 1_555
C2 H2 1_555 1_555
C3 C2 1_555 1_555
C4 C3 1_555 1_555
H3 C4 1_555 1_555
C5 C4 1_555 1_555
C6 C1 1_555 1_555
H4 C6 1_555 1_555
C7 O2 1_555 1_555
C8 C3 1_555 1_555
C9 C10 1_555 1_555
C10 H5 1_555 1_555
C11 C10 1_555 1_555
C12 C11 1_555 1_555
H6 C12 1_555 1_555
C13 C12 1_555 1_555
C14 C9 1_555 1_555
H7 C14 1_555 1_555
C15 O7 1_555 1_555
C16 C11 1_555 1_555
C17 N3 1_555 1_555
H8 C17 1_555 1_555
C18 C17 1_555 1_555
H9 C18 1_555 1_555
C19 C18 1_555 1_555
C20 C19 1_555 1_555
H10 C20 1_555 1_555
C21 N3 1_555 1_555
H11 C21 1_555 1_555
Tb1A O3 1_555 1_555
Tb1_2 O4 1_555 1_555
Tb1A_2 O8 1_555 1_555
Tb1_3 O9 1_555 1_555
O3A Tb1 1_555 1_555
O4_2 Tb1 1_555 1_555
O8A Tb1 1_555 1_555
O9_2 Tb1 1_555 1_555
N3A H1A 1_555 1_555
C17A N3A 1_555 1_555
H8A C17A 1_555 1_555
C18A C17A 1_555 1_555
H9A C18A 1_555 1_555
C19A C19 1_555 1_555
C20A C19A 1_555 1_555
H10A C20A 1_555 1_555
C21A N3A 1_555 1_555
H11A C21A 1_555 1_555
C1 C7 1_555 1_555
C5 C6 1_555 1_555
C9 C15 1_555 1_555
C13 C14 1_555 1_555
C20 C21 1_555 1_555
C18A C19A 1_555 1_555
C20A C21A 1_555 1_555

#END
