
#######################################################################
#
#                 Cambridge Crystallographic Data Centre
#                                CCDC 
#
#######################################################################
#
# If this CIF has been generated from an entry in the Cambridge 
# Structural Database, then it will include bibliographic, chemical, 
# crystal, experimental, refinement or atomic coordinate data resulting 
# from the CCDC's data processing and validation procedures.
#
#######################################################################

data_WICQUV
_symmetry_cell_setting           triclinic
_symmetry_space_group_name_H-M   'P -1'
_symmetry_Int_Tables_number      2
_space_group_name_Hall           '-P 1'
loop_
_symmetry_equiv_pos_site_id
_symmetry_equiv_pos_as_xyz
1 x,y,z
2 -x,-y,-z
_cell_length_a                   10.5491(16)
_cell_length_b                   14.136(2)
_cell_length_c                   16.082(3)
_cell_angle_alpha                87.483(3)
_cell_angle_beta                 86.253(3)
_cell_angle_gamma                89.096(3)
_cell_volume                     2390.55
loop_
_atom_site_label
_atom_site_type_symbol
_atom_site_fract_x
_atom_site_fract_y
_atom_site_fract_z
Cd1 Cd 0.0000 0.0000 0.5000
Cd2 Cd 0.5000 -0.5000 0.0000
O12 O 0.6670(3) -0.4330(3) 0.0664(3)
H3 H 0.736(3) -0.464(3) 0.062(3)
H4 H 0.681(6) -0.378(3) 0.084(5)
O13 O 0.1593(3) 0.0623(2) 0.4074(2)
H5 H 0.219(4) 0.022(2) 0.396(3)
H6 H 0.193(4) 0.1160(18) 0.395(3)
N1 N 0.3469(4) -0.4495(3) 0.0995(3)
N2 N 0.0801(5) -0.3845(3) 0.2946(3)
H7 H 0.0335 -0.4318 0.3116
N3 N 0.0139(4) -0.1402(3) 0.4287(3)
N4 N -0.1497(4) 0.0492(3) 0.4071(3)
N5 N -0.4229(4) 0.1210(3) 0.2364(3)
H8 H -0.4759 0.0767 0.2300
N6 N -0.4789(4) 0.3655(3) 0.0851(3)
C1 C 0.2485(6) -0.5044(4) 0.1243(4)
H11 H 0.2403 -0.5604 0.0970
C2 C 0.1587(6) -0.4847(4) 0.1869(4)
H12 H 0.0931 -0.5267 0.2013
C3 C 0.1673(5) -0.4010(4) 0.2286(3)
C4 C 0.2684(5) -0.3425(4) 0.2039(3)
H13 H 0.2786 -0.2858 0.2296
C5 C 0.3532(5) -0.3698(4) 0.1406(3)
H14 H 0.4203 -0.3296 0.1251
C6 C 0.0532(5) -0.1354(4) 0.3484(3)
H15 H 0.0653 -0.0756 0.3230
C7 C 0.0772(5) -0.2120(4) 0.3003(3)
H16 H 0.1060 -0.2042 0.2446
C8 C 0.0574(5) -0.3019(4) 0.3372(4)
C9 C 0.0114(6) -0.3092(4) 0.4201(4)
H17 H -0.0065 -0.3679 0.4463
C10 C -0.0071(5) -0.2271(4) 0.4625(3)
C11 C -0.1310(5) 0.1194(4) 0.3497(3)
H18 H -0.0546 0.1515 0.3483
C12 C -0.2165(5) 0.1478(4) 0.2923(3)
H19 H -0.1979 0.1973 0.2537
C13 C -0.3315(5) 0.1006(3) 0.2934(3)
C14 C -0.3509(5) 0.0252(4) 0.3509(4)
C15 C -0.2607(5) 0.0026(4) 0.4058(3)
H20 H -0.2763 -0.0475 0.4444
C16 C -0.5241(5) 0.2802(4) 0.0687(3)
H21 H -0.5691 0.2758 0.0212
C17 C -0.5084(5) 0.1996(4) 0.1172(3)
H22 H -0.5428 0.1428 0.1031
C18 C -0.4393(5) 0.2042(4) 0.1885(3)
C19 C -0.3967(5) 0.2917(3) 0.2074(3)
H23 H -0.3540 0.2986 0.2555
C20 C -0.4174(5) 0.3683(4) 0.1554(3)
H24 H -0.3869 0.4264 0.1695
H40 H -0.0357 -0.2324 0.5188
H41 H -0.4258 -0.0097 0.3523
Cd2_2 Cd -0.5000 0.5000 0.0000
Cd2_3 Cd -0.5000 0.5000 1.0000
Cd2_4 Cd 0.5000 -0.5000 1.0000
O12A O 0.3330(3) -0.5670(3) -0.0664(3)
H3A H 0.264(3) -0.536(3) -0.062(3)
H4A H 0.319(6) -0.622(3) -0.084(5)
O13A O -0.1593(3) -0.0623(2) 0.5926(2)
H5A H -0.219(4) -0.022(2) 0.604(3)
H6A H -0.193(4) -0.1160(18) 0.605(3)
N1A N -0.3469(4) 0.4495(3) 0.9005(3)
N1A_2 N 0.6531(4) -0.5505(3) -0.0995(3)
N2A N -0.0801(5) 0.3845(3) 0.7054(3)
H7A H -0.0335 0.4318 0.6884
N3A N -0.0139(4) 0.1402(3) 0.5713(3)
N4A N 0.1497(4) -0.0492(3) 0.5929(3)
N5A N 0.4229(4) -0.1210(3) 0.7636(3)
H8A H 0.4759 -0.0767 0.7700
N6A N 0.4789(4) -0.3655(3) 0.9149(3)
N6_2 N 0.5211(4) -0.6345(3) 0.0851(3)
N6A_2 N 0.4789(4) -0.3655(3) -0.0851(3)
C1A C -0.2485(6) 0.5044(4) 0.8757(4)
H11A H -0.2403 0.5604 0.9030
C2A C -0.1587(6) 0.4847(4) 0.8131(4)
H12A H -0.0931 0.5267 0.7987
C3A C -0.1673(5) 0.4010(4) 0.7714(3)
C4A C -0.2684(5) 0.3425(4) 0.7961(3)
H13A H -0.2786 0.2858 0.7704
C5A C -0.3532(5) 0.3698(4) 0.8594(3)
H14A H -0.4203 0.3296 0.8749
C6A C -0.0532(5) 0.1354(4) 0.6516(3)
H15A H -0.0653 0.0756 0.6770
C7A C -0.0772(5) 0.2120(4) 0.6997(3)
H16A H -0.1060 0.2042 0.7554
C8A C -0.0574(5) 0.3019(4) 0.6628(4)
C9A C -0.0114(6) 0.3092(4) 0.5799(4)
H17A H 0.0065 0.3679 0.5537
C10A C 0.0071(5) 0.2271(4) 0.5375(3)
C11A C 0.1310(5) -0.1194(4) 0.6503(3)
H18A H 0.0546 -0.1515 0.6517
C12A C 0.2165(5) -0.1478(4) 0.7077(3)
H19A H 0.1979 -0.1973 0.7463
C13A C 0.3315(5) -0.1006(3) 0.7066(3)
C14A C 0.3509(5) -0.0252(4) 0.6491(4)
C15A C 0.2607(5) -0.0026(4) 0.5942(3)
H20A H 0.2763 0.0475 0.5556
C16A C 0.5241(5) -0.2802(4) 0.9313(3)
H21A H 0.5691 -0.2758 0.9788
C17A C 0.5084(5) -0.1996(4) 0.8828(3)
H22A H 0.5428 -0.1428 0.8969
C18A C 0.4393(5) -0.2042(4) 0.8115(3)
C19A C 0.3967(5) -0.2917(3) 0.7926(3)
H23A H 0.3540 -0.2986 0.7445
C20A C 0.4174(5) -0.3683(4) 0.8446(3)
H24A H 0.3869 -0.4264 0.8305
H40A H 0.0357 0.2324 0.4812
H41A H 0.4258 0.0097 0.6477
Cl1 Cl 0.34697(13) 0.93697(9) 0.11848(9)
O1 O 0.4507(4) 0.9596(3) 0.1673(3)
O3 O 0.3250(4) 1.0115(3) 0.0586(3)
O6 O 0.3730(5) 0.8503(3) 0.0785(3)
O7 O 0.2359(4) 0.9267(3) 0.1742(3)
Cl2 Cl 0.87469(14) 0.40968(10) 0.34294(10)
O8 O 0.9626(4) 0.4536(3) 0.3922(3)
O9 O 0.9408(4) 0.3433(3) 0.2918(3)
O10 O 0.7789(5) 0.3629(4) 0.3933(3)
O11 O 0.8207(5) 0.4801(4) 0.2887(4)
O2 O 0.3493(4) -0.0524(3) 0.3499(3)
H1 H 0.381(5) -0.107(2) 0.361(3)
H2 H 0.340(6) -0.046(4) 0.2980(14)
O4 O -0.1107(9) 0.4685(7) 0.0946(6)
N7 N -0.7201(5) 0.2319(3) 0.3945(3)
N8 N -0.4878(5) 0.4713(3) 0.3795(3)
H9 H -0.4079 0.4579 0.3750
N9 N -0.5677(6) 0.7620(4) 0.3790(3)
C21 C -0.7637(6) 0.3183(5) 0.3719(5)
H25 H -0.8478 0.3237 0.3580
C22 C -0.6933(6) 0.3990(4) 0.3680(4)
H26 H -0.7303 0.4569 0.3531
C23 C -0.5670(5) 0.3943(4) 0.3862(4)
C24 C -0.5185(6) 0.3048(4) 0.4089(4)
H27 H -0.4340 0.2972 0.4214
C25 C -0.5978(6) 0.2283(4) 0.4124(4)
H28 H -0.5639 0.1697 0.4284
C26 C -0.6471(6) 0.6996(5) 0.4149(4)
H29 H -0.7223 0.7226 0.4406
C27 C -0.6277(6) 0.6029(4) 0.4176(4)
H30 H -0.6874 0.5627 0.4448
C28 C -0.5179(6) 0.5672(4) 0.3789(4)
C29 C -0.4323(6) 0.6309(4) 0.3422(4)
H31 H -0.3560 0.6096 0.3169
C30 C -0.4592(7) 0.7258(5) 0.3431(4)
H32 H -0.3998 0.7675 0.3178
N10 N -0.2447(4) 0.7404(3) 0.1061(3)
N11 N -0.0232(4) 0.9816(3) 0.1202(3)
H10 H 0.0533 0.9676 0.1322
N12 N -0.0798(5) 1.2760(3) 0.0850(3)
C31 C -0.1193(6) 0.7384(4) 0.1002(4)
H33 H -0.0788 0.6802 0.0926
C32 C -0.0444(5) 0.8166(4) 0.1045(3)
H34 H 0.0437 0.8106 0.0998
C33 C -0.1019(5) 0.9046(4) 0.1159(3)
C34 C -0.2347(5) 0.9076(4) 0.1249(4)
C35 C -0.2986(5) 0.8244(4) 0.1188(4)
H35 H -0.3869 0.8272 0.1242
C36 C 0.0211(6) 1.2371(4) 0.1202(4)
H36 H 0.0816 1.2777 0.1376
C37 C 0.0418(6) 1.1416(4) 0.1327(4)
H37 H 0.1147 1.1192 0.1570
C38 C -0.0486(5) 1.0779(4) 0.1083(3)
C39 C -0.1538(5) 1.1175(4) 0.0715(3)
H38 H -0.2159 1.0789 0.0531
C40 C -0.1647(5) 1.2148(4) 0.0625(4)
H39 H -0.2370 1.2396 0.0390
H42 H -0.2789 0.9639 0.1345
O5? O -0.0983(10) 0.4711(7) 0.0388(7)
loop_
_geom_bond_atom_site_label_1
_geom_bond_atom_site_label_2
_geom_bond_site_symmetry_1
_geom_bond_site_symmetry_2
Cd1 O13 1_555 1_555
Cd2 O12 1_555 1_555
Cl1 O1 1_555 1_555
Cl2 O8 1_555 1_555
O2 H1 1_555 1_555
H2 O2 1_555 1_555
O3 Cl1 1_555 1_555
O6 Cl1 1_555 1_555
O7 Cl1 1_555 1_555
O9 Cl2 1_555 1_555
O10 Cl2 1_555 1_555
O11 Cl2 1_555 1_555
O12 H3 1_555 1_555
H4 O12 1_555 1_555
O13 H5 1_555 1_555
H6 O13 1_555 1_555
N1 Cd2 1_555 1_555
N2 H7 1_555 1_555
N3 Cd1 1_555 1_555
N4 Cd1 1_555 1_555
N5 H8 1_555 1_555
N6 C16 1_555 1_555
N7 C21 1_555 1_555
N8 H9 1_555 1_555
N9 C26 1_555 1_555
N10 C31 1_555 1_555
N11 H10 1_555 1_555
N12 C36 1_555 1_555
C1 N1 1_555 1_555
H11 C1 1_555 1_555
C2 C1 1_555 1_555
H12 C2 1_555 1_555
C3 N2 1_555 1_555
C4 C3 1_555 1_555
H13 C4 1_555 1_555
C5 N1 1_555 1_555
H14 C5 1_555 1_555
C6 N3 1_555 1_555
H15 C6 1_555 1_555
C7 C6 1_555 1_555
H16 C7 1_555 1_555
C8 N2 1_555 1_555
C9 C8 1_555 1_555
H17 C9 1_555 1_555
C10 N3 1_555 1_555
C11 N4 1_555 1_555
H18 C11 1_555 1_555
C12 C11 1_555 1_555
H19 C12 1_555 1_555
C13 N5 1_555 1_555
C14 C13 1_555 1_555
C15 N4 1_555 1_555
H20 C15 1_555 1_555
C16 H21 1_555 1_555
C17 C16 1_555 1_555
H22 C17 1_555 1_555
C18 N5 1_555 1_555
C19 C18 1_555 1_555
H23 C19 1_555 1_555
C20 N6 1_555 1_555
H24 C20 1_555 1_555
C21 H25 1_555 1_555
C22 C21 1_555 1_555
H26 C22 1_555 1_555
C23 N8 1_555 1_555
C24 C23 1_555 1_555
H27 C24 1_555 1_555
C25 N7 1_555 1_555
H28 C25 1_555 1_555
C26 H29 1_555 1_555
C27 C26 1_555 1_555
H30 C27 1_555 1_555
C28 N8 1_555 1_555
C29 C28 1_555 1_555
H31 C29 1_555 1_555
C30 N9 1_555 1_555
H32 C30 1_555 1_555
C31 H33 1_555 1_555
C32 C31 1_555 1_555
H34 C32 1_555 1_555
C33 N11 1_555 1_555
C34 C33 1_555 1_555
C35 N10 1_555 1_555
H35 C35 1_555 1_555
C36 H36 1_555 1_555
C37 C36 1_555 1_555
H37 C37 1_555 1_555
C38 N11 1_555 1_555
C39 C38 1_555 1_555
H38 C39 1_555 1_555
C40 N12 1_555 1_555
H39 C40 1_555 1_555
H40 C10 1_555 1_555
H41 C14 1_555 1_555
H42 C34 1_555 1_555
Cd2_2 N6 1_555 1_555
Cd2_3 N1A 1_555 1_555
Cd2_4 N6A 1_555 1_555
O12A Cd2 1_555 1_555
H3A O12A 1_555 1_555
H4A O12A 1_555 1_555
O13A Cd1 1_555 1_555
H5A O13A 1_555 1_555
H6A O13A 1_555 1_555
N1A C1A 1_555 1_555
N1A_2 Cd2 1_555 1_555
N2A H7A 1_555 1_555
N3A Cd1 1_555 1_555
N4A Cd1 1_555 1_555
N5A H8A 1_555 1_555
N6A C16A 1_555 1_555
N6_2 Cd2 1_555 1_555
N6A_2 Cd2 1_555 1_555
C1A H11A 1_555 1_555
C2A C1A 1_555 1_555
H12A C2A 1_555 1_555
C3A N2A 1_555 1_555
C4A C3A 1_555 1_555
H13A C4A 1_555 1_555
C5A N1A 1_555 1_555
H14A C5A 1_555 1_555
C6A N3A 1_555 1_555
H15A C6A 1_555 1_555
C7A C6A 1_555 1_555
H16A C7A 1_555 1_555
C8A N2A 1_555 1_555
C9A C8A 1_555 1_555
H17A C9A 1_555 1_555
C10A N3A 1_555 1_555
C11A N4A 1_555 1_555
H18A C11A 1_555 1_555
C12A C11A 1_555 1_555
H19A C12A 1_555 1_555
C13A N5A 1_555 1_555
C14A C13A 1_555 1_555
C15A N4A 1_555 1_555
H20A C15A 1_555 1_555
C16A H21A 1_555 1_555
C17A C16A 1_555 1_555
H22A C17A 1_555 1_555
C18A N5A 1_555 1_555
C19A C18A 1_555 1_555
H23A C19A 1_555 1_555
C20A N6A 1_555 1_555
H24A C20A 1_555 1_555
H40A C10A 1_555 1_555
H41A C14A 1_555 1_555
C2 C3 1_555 1_555
C4 C5 1_555 1_555
C7 C8 1_555 1_555
C9 C10 1_555 1_555
C12 C13 1_555 1_555
C14 C15 1_555 1_555
C17 C18 1_555 1_555
C19 C20 1_555 1_555
C22 C23 1_555 1_555
C24 C25 1_555 1_555
C27 C28 1_555 1_555
C29 C30 1_555 1_555
C32 C33 1_555 1_555
C34 C35 1_555 1_555
C37 C38 1_555 1_555
C39 C40 1_555 1_555
C2A C3A 1_555 1_555
C4A C5A 1_555 1_555
C7A C8A 1_555 1_555
C9A C10A 1_555 1_555
C12A C13A 1_555 1_555
C14A C15A 1_555 1_555
C17A C18A 1_555 1_555
C19A C20A 1_555 1_555

#END
