
#######################################################################
#
#                 Cambridge Crystallographic Data Centre
#                                CCDC 
#
#######################################################################
#
# If this CIF has been generated from an entry in the Cambridge 
# Structural Database, then it will include bibliographic, chemical, 
# crystal, experimental, refinement or atomic coordinate data resulting 
# from the CCDC's data processing and validation procedures.
#
#######################################################################

data_WICQIJ
_symmetry_cell_setting           orthorhombic
_symmetry_space_group_name_H-M   'P b c a'
_symmetry_Int_Tables_number      61
_space_group_name_Hall           '-P 2ac 2ab'
loop_
_symmetry_equiv_pos_site_id
_symmetry_equiv_pos_as_xyz
1 x,y,z
2 1/2-x,-y,1/2+z
3 -x,1/2+y,1/2-z
4 1/2+x,1/2-y,-z
5 -x,-y,-z
6 1/2+x,y,1/2-z
7 x,1/2-y,1/2+z
8 1/2-x,1/2+y,z
_cell_length_a                   16.992(3)
_cell_length_b                   15.164(3)
_cell_length_c                   17.489(3)
_cell_angle_alpha                90
_cell_angle_beta                 90
_cell_angle_gamma                90
_cell_volume                     4506.33
loop_
_atom_site_label
_atom_site_type_symbol
_atom_site_fract_x
_atom_site_fract_y
_atom_site_fract_z
Co1 Co 0.18284(3) 0.01304(4) 0.45184(3)
S1 S 0.04097(10) 0.07633(15) 0.32781(10)
O1 O 0.07686(18) -0.0617(2) 0.46820(19)
H1 H 0.044(2) -0.035(3) 0.439(2)
H2 H 0.058(3) -0.070(4) 0.5128(15)
O2 O 0.12289(18) 0.0709(3) 0.3564(2)
O3 O -0.0139(2) 0.0569(3) 0.3904(2)
O4 O 0.0301(2) 0.1719(3) 0.3035(2)
O5 O 0.0269(2) 0.0185(3) 0.2638(2)
N1 N 0.28253(19) 0.0904(2) 0.4190(2)
N2 N 0.6399(2) 0.3852(2) 0.4703(2)
N3 N 0.4924(2) 0.2121(3) 0.3484(2)
H3 H 0.503(3) 0.202(3) 0.2986(14)
N4 N 0.2346(2) -0.0596(2) 0.5465(2)
N5 N 0.3066(2) -0.2046(2) 0.7396(2)
H4 H 0.347(2) -0.177(3) 0.761(3)
N6 N 0.2214(2) -0.4103(2) 0.8763(2)
C1 C 0.6198(2) 0.3992(3) 0.3972(3)
H5 H 0.6386 0.4499 0.3734
C2 C 0.5730(2) 0.3430(3) 0.3551(3)
H6 H 0.5614 0.3552 0.3042
C3 C 0.5434(2) 0.2680(3) 0.3901(3)
C4 C 0.5667(3) 0.2499(3) 0.4648(3)
H7 H 0.5511 0.1981 0.4890
C5 C 0.6134(3) 0.3105(3) 0.5022(3)
H8 H 0.6274 0.2989 0.5526
C6 C 0.3118(2) 0.0822(3) 0.3478(2)
H9 H 0.2838 0.0484 0.3127
C7 C 0.3808(2) 0.1209(3) 0.3238(3)
H10 H 0.3984 0.1127 0.2739
C8 C 0.4246(2) 0.1729(3) 0.3746(3)
C9 C 0.3935(2) 0.1850(3) 0.4478(3)
H11 H 0.4192 0.2205 0.4833
C10 C 0.3234(2) 0.1430(3) 0.4665(2)
H12 H 0.3033 0.1518 0.5154
C11 C 0.2948(3) -0.3780(3) 0.8816(3)
H13 H 0.3276 -0.4009 0.9193
C12 C 0.3243(3) -0.3134(3) 0.8350(3)
H14 H 0.3762 -0.2948 0.8404
C13 C 0.2757(3) -0.2753(3) 0.7788(3)
C14 C 0.2000(2) -0.3095(3) 0.7717(3)
H15 H 0.1659 -0.2881 0.7345
C15 C 0.1764(3) -0.3757(3) 0.8206(3)
H16 H 0.1258 -0.3979 0.8147
C16 C 0.2067(3) -0.1409(3) 0.5605(3)
H17 H 0.1711 -0.1645 0.5257
C17 C 0.2268(3) -0.1917(3) 0.6225(3)
H18 H 0.2047 -0.2474 0.6288
C18 C 0.2804(3) -0.1595(3) 0.6758(3)
C19 C 0.3129(3) -0.0760(3) 0.6607(3)
H19 H 0.3506 -0.0520 0.6931
C20 C 0.2881(3) -0.0305(3) 0.5971(3)
H20 H 0.3101 0.0248 0.5884
Co1C Co 0.68284(3) 0.48696(4) 0.54816(3)
Co1F Co 0.18284(3) -0.51304(4) 0.95184(3)
N2C N 0.1399(2) 0.1148(2) 0.5297(2)
N6F N 0.2214(2) -0.0897(2) 0.3763(2)
O6 O 0.0061(5) 0.4537(5) 0.3769(6)
O8 O 0.0635(3) -0.2078(5) 0.1290(4)
O7? O 0.5248(6) 0.0300(6) 0.5304(6)
O9? O -0.0466(6) 0.3638(7) 0.3524(6)
S2? S 0.0314(6) 0.1138(7) 0.3483(9)
loop_
_geom_bond_atom_site_label_1
_geom_bond_atom_site_label_2
_geom_bond_site_symmetry_1
_geom_bond_site_symmetry_2
Co1 O1 1_555 1_555
S1 O2 1_555 1_555
O1 H1 1_555 1_555
H2 O1 1_555 1_555
O2 Co1 1_555 1_555
O3 S1 1_555 1_555
O4 S1 1_555 1_555
O5 S1 1_555 1_555
N1 Co1 1_555 1_555
N2 C1 1_555 1_555
N3 H3 1_555 1_555
N4 Co1 1_555 1_555
N5 H4 1_555 1_555
N6 C11 1_555 1_555
C1 H5 1_555 1_555
C2 C1 1_555 1_555
H6 C2 1_555 1_555
C3 N3 1_555 1_555
C4 C3 1_555 1_555
H7 C4 1_555 1_555
C5 N2 1_555 1_555
H8 C5 1_555 1_555
C6 N1 1_555 1_555
H9 C6 1_555 1_555
C7 C6 1_555 1_555
H10 C7 1_555 1_555
C8 N3 1_555 1_555
C9 C8 1_555 1_555
H11 C9 1_555 1_555
C10 N1 1_555 1_555
H12 C10 1_555 1_555
C11 H13 1_555 1_555
C12 C11 1_555 1_555
H14 C12 1_555 1_555
C13 N5 1_555 1_555
C14 C13 1_555 1_555
H15 C14 1_555 1_555
C15 N6 1_555 1_555
H16 C15 1_555 1_555
C16 N4 1_555 1_555
H17 C16 1_555 1_555
C17 C16 1_555 1_555
H18 C17 1_555 1_555
C18 N5 1_555 1_555
C19 C18 1_555 1_555
H19 C19 1_555 1_555
C20 N4 1_555 1_555
H20 C20 1_555 1_555
Co1C N2 1_555 1_555
Co1F N6 1_555 1_555
N2C Co1 1_555 1_555
N6F Co1 1_555 1_555
C2 C3 1_555 1_555
C4 C5 1_555 1_555
C7 C8 1_555 1_555
C9 C10 1_555 1_555
C12 C13 1_555 1_555
C14 C15 1_555 1_555
C17 C18 1_555 1_555
C19 C20 1_555 1_555

#END
