
#######################################################################
#
#                 Cambridge Crystallographic Data Centre
#                                CCDC 
#
#######################################################################
#
# If this CIF has been generated from an entry in the Cambridge 
# Structural Database, then it will include bibliographic, chemical, 
# crystal, experimental, refinement or atomic coordinate data resulting 
# from the CCDC's data processing and validation procedures.
#
#######################################################################

data_WICQEF
_symmetry_cell_setting           monoclinic
_symmetry_space_group_name_H-M   'P 21/c'
_symmetry_Int_Tables_number      14
_space_group_name_Hall           '-P 2ybc'
loop_
_symmetry_equiv_pos_site_id
_symmetry_equiv_pos_as_xyz
1 x,y,z
2 -x,1/2+y,1/2-z
3 -x,-y,-z
4 x,1/2-y,1/2+z
_cell_length_a                   17.028(4)
_cell_length_b                   16.175(4)
_cell_length_c                   33.771(7)
_cell_angle_alpha                90
_cell_angle_beta                 100.799(4)
_cell_angle_gamma                90
_cell_volume                     9136.75
loop_
_atom_site_label
_atom_site_type_symbol
_atom_site_fract_x
_atom_site_fract_y
_atom_site_fract_z
Co1 Co 0.0000 0.5000 0.5000
Co3 Co 0.5000 0.0000 0.5000
O13 O 0.50880(12) 0.06387(14) 0.55628(6)
H9 H 0.4648(12) 0.070(2) 0.5632(10)
H10 H 0.5461(15) 0.077(2) 0.5743(8)
O26 O 0.00853(12) 0.43552(13) 0.55601(6)
H11 H 0.0434(15) 0.431(2) 0.5763(8)
H12 H -0.0367(12) 0.428(2) 0.5606(10)
N16 N 0.40072(15) 0.07950(15) 0.47580(7)
N17 N 0.20222(17) 0.22649(18) 0.42743(8)
H18 H 0.1853 0.2186 0.4015
N18 N 0.06633(14) 0.40204(15) 0.47690(7)
N22 N -0.42368(15) 0.09072(16) 0.47880(8)
N23 N -0.30867(17) 0.28720(18) 0.43131(8)
H20 H -0.3323 0.3017 0.4069
N24 N -0.10792(14) 0.43134(15) 0.47848(7)
C51 C 0.38533(18) 0.15038(18) 0.49362(9)
H61 H 0.4213 0.1666 0.5174
C52 C 0.32104(18) 0.20117(19) 0.47985(9)
H62 H 0.3129 0.2500 0.4942
C53 C 0.26823(19) 0.1801(2) 0.44476(9)
C54 C 0.2858(2) 0.1095(2) 0.42454(11)
H63 H 0.2534 0.0941 0.3996
C55 C 0.3510(2) 0.0621(2) 0.44129(11)
H64 H 0.3612 0.0136 0.4273
C56 C 0.11453(18) 0.34903(18) 0.50042(9)
H65 H 0.1167 0.3524 0.5287
C57 C 0.16129(18) 0.28987(19) 0.48658(9)
H66 H 0.1942 0.2541 0.5049
C58 C 0.15933(18) 0.28344(18) 0.44534(9)
C59 C 0.1077(2) 0.3363(2) 0.42009(9)
H67 H 0.1034 0.3331 0.3917
C60 C 0.06302(19) 0.3933(2) 0.43674(9)
H68 H 0.0279 0.4283 0.4190
C71 C -0.37062(18) 0.13864(19) 0.50272(9)
H77 H -0.3605 0.1273 0.5308
C72 C -0.32952(19) 0.2035(2) 0.48927(9)
H78 H -0.2929 0.2356 0.5078
C73 C -0.34285(18) 0.2210(2) 0.44810(9)
C74 C -0.3965(2) 0.1708(2) 0.42279(10)
H79 H -0.4065 0.1796 0.3945
C75 C -0.4352(2) 0.1077(2) 0.43918(10)
H80 H -0.4720 0.0746 0.4214
C76 C -0.11420(18) 0.35241(18) 0.49028(9)
H81 H -0.0713 0.3299 0.5093
C77 C -0.17906(18) 0.30229(19) 0.47640(9)
H82 H -0.1806 0.2472 0.4860
C78 C -0.24192(18) 0.33342(19) 0.44826(9)
C79 C -0.23663(19) 0.4151(2) 0.43547(10)
H83 H -0.2782 0.4387 0.4161
C80 C -0.16967(18) 0.46072(19) 0.45163(9)
H84 H -0.1672 0.5165 0.4432
Co3_2 Co -0.5000 0.0000 0.5000
Co3_3 Co -0.5000 1.0000 0.5000
Co3_4 Co 0.5000 1.0000 0.5000
O13B O 0.49120(12) -0.06387(14) 0.44372(6)
H9B H 0.5352(12) -0.070(2) 0.4368(10)
H10B H 0.4539(15) -0.077(2) 0.4257(8)
O26B O -0.00853(12) 0.56448(13) 0.44399(6)
H11B H -0.0434(15) 0.569(2) 0.4237(8)
H12B H 0.0367(12) 0.572(2) 0.4394(10)
N16B N -0.40072(15) 0.92050(15) 0.52420(7)
N16B_2 N 0.59928(15) -0.07950(15) 0.52420(7)
N17B N -0.20222(17) 0.77351(18) 0.57257(8)
H18B H -0.1853 0.7814 0.5985
N18B N -0.06633(14) 0.59796(15) 0.52310(7)
N22B N 0.42368(15) 0.90928(16) 0.52120(8)
N22_2 N 0.57632(15) 0.09072(16) 0.47880(8)
N22B_2 N 0.42368(15) -0.09072(16) 0.52120(8)
N23B N 0.30867(17) 0.71280(18) 0.56869(8)
H20B H 0.3323 0.6983 0.5931
N24B N 0.10792(14) 0.56866(15) 0.52152(7)
C51B C -0.38533(18) 0.84962(18) 0.50638(9)
H61B H -0.4213 0.8334 0.4826
C52B C -0.32104(18) 0.79883(19) 0.52015(9)
H62B H -0.3129 0.7500 0.5058
C53B C -0.26823(19) 0.8199(2) 0.55524(9)
C54B C -0.2858(2) 0.8905(2) 0.57546(11)
H63B H -0.2534 0.9059 0.6004
C55B C -0.3510(2) 0.9379(2) 0.55871(11)
H64B H -0.3612 0.9864 0.5727
C56B C -0.11453(18) 0.65097(18) 0.49958(9)
H65B H -0.1167 0.6476 0.4713
C57B C -0.16129(18) 0.71013(19) 0.51342(9)
H66B H -0.1942 0.7459 0.4951
C58B C -0.15933(18) 0.71656(18) 0.55466(9)
C59B C -0.1077(2) 0.6637(2) 0.57991(9)
H67B H -0.1034 0.6669 0.6083
C60B C -0.06302(19) 0.6067(2) 0.56326(9)
H68B H -0.0279 0.5717 0.5810
C71B C 0.37062(18) 0.86136(19) 0.49728(9)
H77B H 0.3605 0.8727 0.4692
C72B C 0.32952(19) 0.7965(2) 0.51073(9)
H78B H 0.2929 0.7644 0.4922
C73B C 0.34285(18) 0.7790(2) 0.55190(9)
C74B C 0.3965(2) 0.8292(2) 0.57721(10)
H79B H 0.4065 0.8204 0.6055
C75B C 0.4352(2) 0.8923(2) 0.56082(10)
H80B H 0.4720 0.9254 0.5786
C76B C 0.11420(18) 0.64759(18) 0.50972(9)
H81B H 0.0713 0.6701 0.4907
C77B C 0.17906(18) 0.69771(19) 0.52360(9)
H82B H 0.1806 0.7528 0.5140
C78B C 0.24192(18) 0.66658(19) 0.55174(9)
C79B C 0.23663(19) 0.5849(2) 0.56453(10)
H83B H 0.2782 0.5613 0.5839
C80B C 0.16967(18) 0.53928(19) 0.54837(9)
H84B H 0.1672 0.4835 0.5568
Co2 Co 0.25121(2) 0.49037(2) 0.251029(11)
O1 O 0.25356(13) 0.44221(15) 0.30892(7)
H1 H 0.2902(16) 0.423(2) 0.3266(9)
H2 H 0.2092(13) 0.425(2) 0.3035(11)
O7 O 0.24969(13) 0.54440(15) 0.19454(7)
H5 H 0.2242(19) 0.579(2) 0.1763(9)
H6 H 0.2919(15) 0.535(2) 0.1832(10)
N4 N 0.13906(14) 0.42630(15) 0.22822(7)
N5 N -0.06628(17) 0.28668(18) 0.18343(9)
H14 H -0.0891 0.3016 0.1589
N6 N -0.18885(15) 0.09427(15) 0.22896(7)
N7 N 0.36300(14) 0.55346(15) 0.27235(7)
N8 N 0.57255(19) 0.6871(2) 0.31459(9)
H15 H 0.5985 0.6696 0.3381
N9 N 0.68858(15) 0.88455(16) 0.26863(8)
C11 C 0.1017(2) 0.4280(2) 0.18971(10)
H29 H 0.1229 0.4630 0.1717
C12 C 0.0348(2) 0.3828(2) 0.17437(11)
H30 H 0.0112 0.3869 0.1466
C13 C 0.00150(18) 0.33063(19) 0.19963(10)
C14 C 0.0384(2) 0.3298(2) 0.23952(10)
H31 H 0.0173 0.2969 0.2583
C15 C 0.1062(2) 0.3767(2) 0.25216(10)
H32 H 0.1311 0.3735 0.2798
C16 C -0.1156(2) 0.1160(2) 0.24704(10)
H33 H -0.0924 0.0873 0.2709
C17 C -0.0710(2) 0.1777(2) 0.23352(11)
H34 H -0.0182 0.1890 0.2473
C18 C -0.10420(19) 0.22266(19) 0.19965(9)
C19 C -0.17993(19) 0.19885(19) 0.17968(9)
H35 H -0.2045 0.2263 0.1557
C20 C -0.21876(19) 0.1353(2) 0.19494(10)
H36 H -0.2699 0.1195 0.1805
C21 C 0.41858(19) 0.5292(2) 0.30362(10)
H37 H 0.4097 0.4788 0.3166
C22 C 0.4874(2) 0.5717(2) 0.31823(11)
H38 H 0.5245 0.5509 0.3405
C23 C 0.5023(2) 0.6462(2) 0.29987(10)
C24 C 0.44388(19) 0.67392(19) 0.26830(9)
H39 H 0.4502 0.7252 0.2555
C25 C 0.37696(18) 0.62640(19) 0.25579(9)
H40 H 0.3380 0.6463 0.2340
C26 C 0.63444(19) 0.8386(2) 0.24469(9)
H41 H 0.6236 0.8517 0.2168
C27 C 0.59295(19) 0.7735(2) 0.25735(9)
H42 H 0.5543 0.7440 0.2387
C28 C 0.6085(2) 0.7519(2) 0.29775(10)
C29 C 0.6687(2) 0.7949(2) 0.32270(11)
H43 H 0.6844 0.7796 0.3502
C30 C 0.7056(2) 0.8603(2) 0.30719(10)
H44 H 0.7456 0.8899 0.3250
Co2A Co -0.25121(2) 0.99037(2) 0.248971(11)
Co2A_2 Co -0.25121(2) -0.00963(2) 0.248971(11)
Co2A_3 Co 0.74879(2) 0.99037(2) 0.248971(11)
Co2A_4 Co 0.74879(2) -0.00963(2) 0.248971(11)
O1A O -0.25356(13) 0.94221(15) 0.19108(7)
H1A H -0.2902(16) 0.923(2) 0.1734(9)
H2A H -0.2092(13) 0.925(2) 0.1965(11)
O7A O -0.24969(13) 1.04440(15) 0.30546(7)
H5A H -0.2242(19) 1.079(2) 0.3237(9)
H6A H -0.2919(15) 1.035(2) 0.3168(10)
N4A N -0.13906(14) 0.92630(15) 0.27178(7)
N5A N 0.06628(17) 0.78668(18) 0.31657(9)
H14A H 0.0891 0.8016 0.3411
N6A N 0.18885(15) 0.59427(15) 0.27104(7)
N6_2 N -0.18885(15) 1.09427(15) 0.22896(7)
N7A N 0.63700(14) 0.05346(15) 0.22765(7)
N7A_2 N -0.36300(14) 1.05346(15) 0.22765(7)
N8A N 0.42745(19) 0.1871(2) 0.18541(9)
H15A H 0.4015 0.1696 0.1619
N9A N 0.31142(15) 0.38455(16) 0.23137(8)
N9_2 N -0.31142(15) 0.88455(16) 0.26863(8)
C11A C -0.1017(2) 0.9280(2) 0.31029(10)
H29A H -0.1229 0.9630 0.3283
C12A C -0.0348(2) 0.8828(2) 0.32563(11)
H30A H -0.0112 0.8869 0.3534
C13A C -0.00150(18) 0.83063(19) 0.30037(10)
C14A C -0.0384(2) 0.8298(2) 0.26048(10)
H31A H -0.0173 0.7969 0.2417
C15A C -0.1062(2) 0.8767(2) 0.24784(10)
H32A H -0.1311 0.8735 0.2202
C16A C 0.1156(2) 0.6160(2) 0.25296(10)
H33A H 0.0924 0.5873 0.2291
C17A C 0.0710(2) 0.6777(2) 0.26648(11)
H34A H 0.0182 0.6890 0.2527
C18A C 0.10420(19) 0.72266(19) 0.30035(9)
C19A C 0.17993(19) 0.69885(19) 0.32032(9)
H35A H 0.2045 0.7263 0.3443
C20A C 0.21876(19) 0.6353(2) 0.30506(10)
H36A H 0.2699 0.6195 0.3195
C21A C 0.58142(19) 0.0292(2) 0.19638(10)
H37A H 0.5903 -0.0212 0.1834
C22A C 0.5126(2) 0.0717(2) 0.18177(11)
H38A H 0.4755 0.0509 0.1595
C23A C 0.4977(2) 0.1462(2) 0.20013(10)
C24A C 0.55612(19) 0.17392(19) 0.23170(9)
H39A H 0.5498 0.2252 0.2445
C25A C 0.62304(18) 0.12640(19) 0.24421(9)
H40A H 0.6620 0.1463 0.2660
C26A C 0.36556(19) 0.3386(2) 0.25531(9)
H41A H 0.3764 0.3517 0.2832
C27A C 0.40705(19) 0.2735(2) 0.24265(9)
H42A H 0.4457 0.2440 0.2613
C28A C 0.3915(2) 0.2519(2) 0.20225(10)
C29A C 0.3313(2) 0.2949(2) 0.17730(11)
H43A H 0.3156 0.2796 0.1498
C30A C 0.2944(2) 0.3603(2) 0.19281(10)
H44A H 0.2544 0.3899 0.1750
Cl1 Cl 0.11910(6) 0.33133(8) 0.82199(3)
O3 O 0.0509(2) 0.2825(3) 0.82691(11)
O4 O 0.1213(2) 0.3408(3) 0.78169(9)
O5 O 0.1890(3) 0.2790(3) 0.83885(13)
O6 O 0.1258(3) 0.4015(3) 0.84550(16)
Cl2 Cl 0.13775(5) 0.66717(6) 0.92452(2)
O9 O 0.20890(18) 0.7126(2) 0.92184(9)
O10 O 0.1428(2) 0.6357(2) 0.96382(8)
O11 O 0.0709(2) 0.7236(2) 0.91546(12)
O12 O 0.12551(18) 0.6024(2) 0.89556(9)
Cl3 Cl 0.38482(6) 0.67318(7) 0.67919(3)
O15 O 0.4375(3) 0.7335(3) 0.66859(15)
O16 O 0.4268(3) 0.6309(3) 0.71251(11)
O17 O 0.3630(4) 0.6219(3) 0.64672(13)
O18 O 0.3233(3) 0.7157(3) 0.69265(18)
Cl4 Cl 0.33485(5) 0.34392(6) 0.57824(2)
O21 O 0.33310(19) 0.38275(19) 0.54001(8)
O22 O 0.3997(2) 0.2860(2) 0.58560(11)
O23 O 0.3465(2) 0.4027(2) 0.60983(8)
O24 O 0.26224(19) 0.2998(3) 0.57809(10)
O2 O 0.12797(15) 0.47974(17) 0.34644(7)
H3 H 0.150(2) 0.503(2) 0.3304(10)
O8 O -0.12734(14) 0.39940(16) 0.58923(7)
O14 O 0.3761(2) 0.3979(2) 0.08902(10)
O20 O 0.3703(2) 0.5191(3) 0.15313(10)
N1 N 0.22264(19) 0.4160(2) 0.04780(11)
N2 N -0.01382(18) 0.3825(2) -0.01195(9)
H13 H -0.0453 0.3686 0.0049
N3 N -0.1390(2) 0.3981(2) -0.13124(9)
C1 C 0.1671(2) 0.3789(3) 0.06458(12)
H21 H 0.1823 0.3593 0.0915
C2 C 0.0894(2) 0.3671(2) 0.04549(11)
H22 H 0.0526 0.3401 0.0591
C3 C 0.0649(2) 0.3950(2) 0.00594(11)
C4 C 0.1216(2) 0.4366(2) -0.01170(12)
H23 H 0.1079 0.4584 -0.0382
C5 C 0.1981(2) 0.4450(3) 0.01050(13)
H24 H 0.2361 0.4735 -0.0017
C6 C -0.1752(2) 0.3988(2) -0.09956(11)
H25 H -0.2318 0.4025 -0.1043
C7 C -0.1348(2) 0.3946(2) -0.06001(10)
H26 H -0.1636 0.3962 -0.0385
C8 C -0.0518(2) 0.3880(2) -0.05193(10)
C9 C -0.0141(2) 0.3843(3) -0.08512(11)
H27 H 0.0422 0.3781 -0.0815
C10 C -0.0596(2) 0.3898(3) -0.12325(12)
H28 H -0.0327 0.3875 -0.1454
N10 N 0.37486(18) 0.6026(2) 0.87713(9)
N11 N 0.24890(18) 0.6389(2) 0.75905(9)
H16 H 0.2758 0.6696 0.7447
N12 N 0.0293(2) 0.5620(3) 0.69064(11)
C31 C 0.4092(2) 0.6299(3) 0.84712(11)
H45 H 0.4647 0.6424 0.8531
C32 C 0.3694(2) 0.6412(2) 0.80810(11)
H46 H 0.3973 0.6606 0.7881
C33 C 0.2876(2) 0.6240(2) 0.79813(10)
C34 C 0.2510(2) 0.5962(2) 0.82942(11)
H47 H 0.1955 0.5839 0.8246
C35 C 0.2967(2) 0.5869(2) 0.86731(11)
H48 H 0.2705 0.5678 0.8881
C36 C 0.0620(2) 0.5228(3) 0.72463(14)
H49 H 0.0344 0.4761 0.7323
C37 C 0.1328(2) 0.5450(2) 0.74938(12)
H50 H 0.1528 0.5145 0.7731
C38 C 0.1741(2) 0.6131(2) 0.73879(10)
C39 C 0.1407(2) 0.6554(3) 0.70341(11)
H51 H 0.1666 0.7026 0.6951
C40 C 0.0695(2) 0.6277(3) 0.68090(12)
H52 H 0.0477 0.6571 0.6570
N13 N 0.36099(19) 0.3849(2) 0.37386(9)
N14 N 0.47253(18) 0.3731(2) 0.49578(9)
H17 H 0.4389 0.3625 0.5120
N15 N 0.7094(2) 0.4001(2) 0.55703(11)
C41 C 0.4396(2) 0.3714(3) 0.38473(12)
H53 H 0.4693 0.3640 0.3638
C42 C 0.4808(2) 0.3673(3) 0.42391(11)
H54 H 0.5368 0.3577 0.4295
C43 C 0.4385(2) 0.3775(2) 0.45538(10)
C44 C 0.3562(2) 0.3897(2) 0.44452(10)
H55 H 0.3244 0.3956 0.4647
C45 C 0.3214(2) 0.3931(2) 0.40431(11)
H56 H 0.2653 0.4019 0.3977
C46 C 0.6851(2) 0.4314(3) 0.52051(13)
H57 H 0.7234 0.4608 0.5088
C47 C 0.6085(2) 0.4247(2) 0.49805(12)
H58 H 0.5954 0.4484 0.4719
C48 C 0.5516(2) 0.3827(2) 0.51465(11)
C49 C 0.5755(2) 0.3508(3) 0.55350(12)
H59 H 0.5384 0.3225 0.5664
C50 C 0.6535(3) 0.3609(3) 0.57277(13)
H60 H 0.6687 0.3383 0.5991
N19 N 0.4714(2) 0.4443(2) 0.81311(11)
N20 N 0.25406(17) 0.3703(2) 0.74162(9)
H19 H 0.2306 0.3330 0.7544
N21 N 0.11819(18) 0.4172(2) 0.62644(9)
C61 C 0.4173(3) 0.3976(3) 0.82659(13)
H69 H 0.4298 0.3790 0.8537
C62 C 0.3450(2) 0.3744(3) 0.80411(12)
H70 H 0.3092 0.3411 0.8156
C63 C 0.3248(2) 0.4009(2) 0.76391(11)
C64 C 0.3789(2) 0.4514(3) 0.74956(13)
H71 H 0.3675 0.4725 0.7228
C65 C 0.4503(2) 0.4704(3) 0.77521(14)
H72 H 0.4870 0.5048 0.7649
C66 C 0.1746(2) 0.4696(3) 0.64397(11)
H73 H 0.1817 0.5188 0.6297
C67 C 0.2238(2) 0.4585(2) 0.68107(11)
H74 H 0.2636 0.4981 0.6914
C68 C 0.2133(2) 0.3877(2) 0.70289(10)
C69 C 0.1543(2) 0.3323(3) 0.68533(12)
H75 H 0.1450 0.2830 0.6991
C70 C 0.1096(2) 0.3493(3) 0.64801(12)
H76 H 0.0699 0.3104 0.6367
H4? H 0.221(2) 0.464(2) 0.3215(11)
H7? H 0.273(2) 0.579(2) 0.2109(10)
H8? H 0.2016(13) 0.554(3) 0.1832(12)
O19? O 0.3789(8) 0.4502(12) 0.0916(4)
O25? O 0.3697(8) 0.5727(11) 0.1559(4)
loop_
_geom_bond_atom_site_label_1
_geom_bond_atom_site_label_2
_geom_bond_site_symmetry_1
_geom_bond_site_symmetry_2
Co1 O26 1_555 1_555
Co2 O1 1_555 1_555
Co3 O13 1_555 1_555
Cl1 O3 1_555 1_555
Cl2 O9 1_555 1_555
Cl3 O15 1_555 1_555
Cl4 O21 1_555 1_555
O1 H1 1_555 1_555
H2 O1 1_555 1_555
O2 H3 1_555 1_555
O4 Cl1 1_555 1_555
O5 Cl1 1_555 1_555
O6 Cl1 1_555 1_555
O7 Co2 1_555 1_555
H5 O7 1_555 1_555
H6 O7 1_555 1_555
O10 Cl2 1_555 1_555
O11 Cl2 1_555 1_555
O12 Cl2 1_555 1_555
O13 H9 1_555 1_555
H10 O13 1_555 1_555
O16 Cl3 1_555 1_555
O17 Cl3 1_555 1_555
O18 Cl3 1_555 1_555
O22 Cl4 1_555 1_555
O23 Cl4 1_555 1_555
O24 Cl4 1_555 1_555
O26 H11 1_555 1_555
H12 O26 1_555 1_555
N1 C1 1_555 1_555
N2 H13 1_555 1_555
N3 C6 1_555 1_555
N4 Co2 1_555 1_555
N5 H14 1_555 1_555
N6 C16 1_555 1_555
N7 Co2 1_555 1_555
N8 H15 1_555 1_555
N9 C26 1_555 1_555
N10 C31 1_555 1_555
N11 H16 1_555 1_555
N12 C36 1_555 1_555
N13 C41 1_555 1_555
N14 H17 1_555 1_555
N15 C46 1_555 1_555
N16 Co3 1_555 1_555
N17 H18 1_555 1_555
N18 Co1 1_555 1_555
N19 C61 1_555 1_555
N20 H19 1_555 1_555
N21 C66 1_555 1_555
N22 C71 1_555 1_555
N23 H20 1_555 1_555
N24 Co1 1_555 1_555
C1 H21 1_555 1_555
C2 C1 1_555 1_555
H22 C2 1_555 1_555
C3 N2 1_555 1_555
C4 C3 1_555 1_555
H23 C4 1_555 1_555
C5 N1 1_555 1_555
H24 C5 1_555 1_555
C6 H25 1_555 1_555
C7 C6 1_555 1_555
H26 C7 1_555 1_555
C8 N2 1_555 1_555
C9 C8 1_555 1_555
H27 C9 1_555 1_555
C10 N3 1_555 1_555
H28 C10 1_555 1_555
C11 N4 1_555 1_555
H29 C11 1_555 1_555
C12 C11 1_555 1_555
H30 C12 1_555 1_555
C13 N5 1_555 1_555
C14 C13 1_555 1_555
H31 C14 1_555 1_555
C15 N4 1_555 1_555
H32 C15 1_555 1_555
C16 H33 1_555 1_555
C17 C16 1_555 1_555
H34 C17 1_555 1_555
C18 N5 1_555 1_555
C19 C18 1_555 1_555
H35 C19 1_555 1_555
C20 N6 1_555 1_555
H36 C20 1_555 1_555
C21 N7 1_555 1_555
H37 C21 1_555 1_555
C22 C21 1_555 1_555
H38 C22 1_555 1_555
C23 N8 1_555 1_555
C24 C23 1_555 1_555
H39 C24 1_555 1_555
C25 N7 1_555 1_555
H40 C25 1_555 1_555
C26 H41 1_555 1_555
C27 C26 1_555 1_555
H42 C27 1_555 1_555
C28 N8 1_555 1_555
C29 C28 1_555 1_555
H43 C29 1_555 1_555
C30 N9 1_555 1_555
H44 C30 1_555 1_555
C31 H45 1_555 1_555
C32 C31 1_555 1_555
H46 C32 1_555 1_555
C33 N11 1_555 1_555
C34 C33 1_555 1_555
H47 C34 1_555 1_555
C35 N10 1_555 1_555
H48 C35 1_555 1_555
C36 H49 1_555 1_555
C37 C36 1_555 1_555
H50 C37 1_555 1_555
C38 N11 1_555 1_555
C39 C38 1_555 1_555
H51 C39 1_555 1_555
C40 N12 1_555 1_555
H52 C40 1_555 1_555
C41 H53 1_555 1_555
C42 C41 1_555 1_555
H54 C42 1_555 1_555
C43 N14 1_555 1_555
C44 C43 1_555 1_555
H55 C44 1_555 1_555
C45 N13 1_555 1_555
H56 C45 1_555 1_555
C46 H57 1_555 1_555
C47 C46 1_555 1_555
H58 C47 1_555 1_555
C48 N14 1_555 1_555
C49 C48 1_555 1_555
H59 C49 1_555 1_555
C50 N15 1_555 1_555
H60 C50 1_555 1_555
C51 N16 1_555 1_555
H61 C51 1_555 1_555
C52 C51 1_555 1_555
H62 C52 1_555 1_555
C53 N17 1_555 1_555
C54 C53 1_555 1_555
H63 C54 1_555 1_555
C55 N16 1_555 1_555
H64 C55 1_555 1_555
C56 N18 1_555 1_555
H65 C56 1_555 1_555
C57 C56 1_555 1_555
H66 C57 1_555 1_555
C58 N17 1_555 1_555
C59 C58 1_555 1_555
H67 C59 1_555 1_555
C60 N18 1_555 1_555
H68 C60 1_555 1_555
C61 H69 1_555 1_555
C62 C61 1_555 1_555
H70 C62 1_555 1_555
C63 N20 1_555 1_555
C64 C63 1_555 1_555
H71 C64 1_555 1_555
C65 N19 1_555 1_555
H72 C65 1_555 1_555
C66 H73 1_555 1_555
C67 C66 1_555 1_555
H74 C67 1_555 1_555
C68 N20 1_555 1_555
C69 C68 1_555 1_555
H75 C69 1_555 1_555
C70 N21 1_555 1_555
H76 C70 1_555 1_555
C71 H77 1_555 1_555
C72 C71 1_555 1_555
H78 C72 1_555 1_555
C73 N23 1_555 1_555
C74 C73 1_555 1_555
H79 C74 1_555 1_555
C75 N22 1_555 1_555
H80 C75 1_555 1_555
C76 N24 1_555 1_555
H81 C76 1_555 1_555
C77 C76 1_555 1_555
H82 C77 1_555 1_555
C78 N23 1_555 1_555
C79 C78 1_555 1_555
H83 C79 1_555 1_555
C80 N24 1_555 1_555
H84 C80 1_555 1_555
Co2A O1A 1_555 1_555
Co2A_2 N6 1_555 1_555
Co2A_3 N9 1_555 1_555
Co2A_4 N7A 1_555 1_555
Co3_2 N22 1_555 1_555
Co3_3 N16B 1_555 1_555
Co3_4 N22B 1_555 1_555
O1A H1A 1_555 1_555
H2A O1A 1_555 1_555
O7A Co2A 1_555 1_555
H5A O7A 1_555 1_555
H6A O7A 1_555 1_555
O13B Co3 1_555 1_555
H9B O13B 1_555 1_555
H10B O13B 1_555 1_555
O26B Co1 1_555 1_555
H11B O26B 1_555 1_555
H12B O26B 1_555 1_555
N4A Co2A 1_555 1_555
N5A H14A 1_555 1_555
N6A Co2 1_555 1_555
N6_2 Co2A 1_555 1_555
N7A C21A 1_555 1_555
N7A_2 Co2A 1_555 1_555
N8A H15A 1_555 1_555
N9A Co2 1_555 1_555
N9_2 Co2A 1_555 1_555
N16B C51B 1_555 1_555
N16B_2 Co3 1_555 1_555
N17B H18B 1_555 1_555
N18B Co1 1_555 1_555
N22B C71B 1_555 1_555
N22_2 Co3 1_555 1_555
N22B_2 Co3 1_555 1_555
N23B H20B 1_555 1_555
N24B Co1 1_555 1_555
C11A N4A 1_555 1_555
H29A C11A 1_555 1_555
C12A C11A 1_555 1_555
H30A C12A 1_555 1_555
C13A N5A 1_555 1_555
C14A C13A 1_555 1_555
H31A C14A 1_555 1_555
C15A N4A 1_555 1_555
H32A C15A 1_555 1_555
C16A N6A 1_555 1_555
H33A C16A 1_555 1_555
C17A C16A 1_555 1_555
H34A C17A 1_555 1_555
C18A N5A 1_555 1_555
C19A C18A 1_555 1_555
H35A C19A 1_555 1_555
C20A N6A 1_555 1_555
H36A C20A 1_555 1_555
C21A H37A 1_555 1_555
C22A C21A 1_555 1_555
H38A C22A 1_555 1_555
C23A N8A 1_555 1_555
C24A C23A 1_555 1_555
H39A C24A 1_555 1_555
C25A N7A 1_555 1_555
H40A C25A 1_555 1_555
C26A N9A 1_555 1_555
H41A C26A 1_555 1_555
C27A C26A 1_555 1_555
H42A C27A 1_555 1_555
C28A N8A 1_555 1_555
C29A C28A 1_555 1_555
H43A C29A 1_555 1_555
C30A N9A 1_555 1_555
H44A C30A 1_555 1_555
C51B H61B 1_555 1_555
C52B C51B 1_555 1_555
H62B C52B 1_555 1_555
C53B N17B 1_555 1_555
C54B C53B 1_555 1_555
H63B C54B 1_555 1_555
C55B N16B 1_555 1_555
H64B C55B 1_555 1_555
C56B N18B 1_555 1_555
H65B C56B 1_555 1_555
C57B C56B 1_555 1_555
H66B C57B 1_555 1_555
C58B N17B 1_555 1_555
C59B C58B 1_555 1_555
H67B C59B 1_555 1_555
C60B N18B 1_555 1_555
H68B C60B 1_555 1_555
C71B H77B 1_555 1_555
C72B C71B 1_555 1_555
H78B C72B 1_555 1_555
C73B N23B 1_555 1_555
C74B C73B 1_555 1_555
H79B C74B 1_555 1_555
C75B N22B 1_555 1_555
H80B C75B 1_555 1_555
C76B N24B 1_555 1_555
H81B C76B 1_555 1_555
C77B C76B 1_555 1_555
H82B C77B 1_555 1_555
C78B N23B 1_555 1_555
C79B C78B 1_555 1_555
H83B C79B 1_555 1_555
C80B N24B 1_555 1_555
H84B C80B 1_555 1_555
C2 C3 1_555 1_555
C4 C5 1_555 1_555
C7 C8 1_555 1_555
C9 C10 1_555 1_555
C12 C13 1_555 1_555
C14 C15 1_555 1_555
C17 C18 1_555 1_555
C19 C20 1_555 1_555
C22 C23 1_555 1_555
C24 C25 1_555 1_555
C27 C28 1_555 1_555
C29 C30 1_555 1_555
C32 C33 1_555 1_555
C34 C35 1_555 1_555
C37 C38 1_555 1_555
C39 C40 1_555 1_555
C42 C43 1_555 1_555
C44 C45 1_555 1_555
C47 C48 1_555 1_555
C49 C50 1_555 1_555
C52 C53 1_555 1_555
C54 C55 1_555 1_555
C57 C58 1_555 1_555
C59 C60 1_555 1_555
C62 C63 1_555 1_555
C64 C65 1_555 1_555
C67 C68 1_555 1_555
C69 C70 1_555 1_555
C72 C73 1_555 1_555
C74 C75 1_555 1_555
C77 C78 1_555 1_555
C79 C80 1_555 1_555
C12A C13A 1_555 1_555
C14A C15A 1_555 1_555
C17A C18A 1_555 1_555
C19A C20A 1_555 1_555
C22A C23A 1_555 1_555
C24A C25A 1_555 1_555
C27A C28A 1_555 1_555
C29A C30A 1_555 1_555
C52B C53B 1_555 1_555
C54B C55B 1_555 1_555
C57B C58B 1_555 1_555
C59B C60B 1_555 1_555
C72B C73B 1_555 1_555
C74B C75B 1_555 1_555
C77B C78B 1_555 1_555
C79B C80B 1_555 1_555

#END
