
#######################################################################
#
#                 Cambridge Crystallographic Data Centre
#                                CCDC 
#
#######################################################################
#
# If this CIF has been generated from an entry in the Cambridge 
# Structural Database, then it will include bibliographic, chemical, 
# crystal, experimental, refinement or atomic coordinate data resulting 
# from the CCDC's data processing and validation procedures.
#
#######################################################################

data_WICQOP
_symmetry_cell_setting           monoclinic
_symmetry_space_group_name_H-M   'C c'
_symmetry_Int_Tables_number      9
_space_group_name_Hall           'C -2yc'
loop_
_symmetry_equiv_pos_site_id
_symmetry_equiv_pos_as_xyz
1 x,y,z
2 x,-y,1/2+z
3 1/2+x,1/2+y,z
4 1/2+x,1/2-y,1/2+z
_cell_length_a                   24.00(2)
_cell_length_b                   15.522(16)
_cell_length_c                   16.523(17)
_cell_angle_alpha                90
_cell_angle_beta                 133.517(3)
_cell_angle_gamma                90
_cell_volume                     4463.63
loop_
_atom_site_label
_atom_site_type_symbol
_atom_site_fract_x
_atom_site_fract_y
_atom_site_fract_z
Co1 Co 0.74090(3) 0.99134(4) 1.00112(4)
Co2 Co 0.82874(3) 0.49898(4) 0.58671(4)
N1 N 0.7129(2) 0.9200(2) 0.8676(3)
N2 N 0.7556(2) 0.5992(2) 0.5658(3)
N3 N 0.6348(2) 0.7696(3) 0.5974(3)
H1 H 0.5842(12) 0.773(4) 0.546(3)
N4 N 0.6703(2) 1.0969(2) 0.8935(3)
N5 N 0.3401(2) 1.4407(2) 0.5562(3)
N6 N 0.5425(2) 1.3095(3) 0.6901(3)
H2 H 0.556(3) 1.335(3) 0.657(4)
N7 N 0.8137(2) 0.8925(2) 1.1231(3)
N8 N 0.8658(2) 0.5818(2) 1.5276(3)
N9 N 0.9402(2) 0.7360(3) 1.4078(3)
H3 H 0.9903(12) 0.737(3) 1.450(4)
N10 N 0.9004(2) 0.3964(2) 0.6153(3)
N11 N 1.2324(2) 0.0640(2) 0.9361(3)
N12 N 1.0312(2) 0.1866(3) 0.6591(3)
H4 H 1.004(3) 0.161(3) 0.593(3)
N13 N 0.6124(2) 0.9085(3) 0.9936(3)
N14 N 0.9369(2) 0.5769(3) 0.8332(3)
O1 O 0.74299(19) 1.0491(2) 1.1192(3)
H5 H 0.7835(17) 1.042(4) 1.186(2)
H6 H 0.7004(16) 1.029(3) 1.093(4)
O2 O 0.8109(2) 0.4311(2) 0.6773(3)
H7 H 0.7649(15) 0.417(3) 0.643(4)
H8 H 0.833(3) 0.456(3) 0.739(3)
O3 O 0.63527(19) 0.9237(2) 0.9441(3)
O4 O 0.6139(3) 0.9675(3) 1.0453(4)
O5 O 0.5879(2) 0.8366(2) 0.9870(3)
O6 O 0.9788(2) 0.6388(3) 0.8913(3)
O7 O 0.93037(19) 0.5539(2) 0.7530(3)
O8 O 0.8992(3) 0.5403(3) 0.8499(4)
C1 C 0.7583(2) 0.8609(3) 0.8790(4)
H9 H 0.8076 0.8541 0.9491
C2 C 0.7366(3) 0.8089(3) 0.7926(4)
H10 H 0.7702 0.7680 0.8051
C3 C 0.6635(3) 0.8194(3) 0.6871(4)
C4 C 0.6163(3) 0.8831(3) 0.6740(4)
H11 H 0.5676 0.8935 0.6043
C5 C 0.6426(3) 0.9296(3) 0.7651(4)
H12 H 0.6099 0.9702 0.7553
C6 C 0.7871(3) 0.6732(3) 0.6231(4)
H13 H 0.8367 0.6860 0.6558
C7 C 0.7507(3) 0.7313(3) 0.6365(4)
H14 H 0.7755 0.7813 0.6779
C8 C 0.6753(3) 0.7134(3) 0.5862(4)
C9 C 0.6397(3) 0.6398(3) 0.5216(4)
H15 H 0.5891 0.6271 0.4843
C10 C 0.6818(3) 0.5863(3) 0.5146(4)
H16 H 0.6575 0.5371 0.4709
C11 C 0.6880(3) 1.1436(3) 0.8455(4)
H17 H 0.7306 1.1273 0.8578
C12 C 0.6467(3) 1.2139(3) 0.7793(5)
H18 H 0.6615 1.2446 0.7483
C13 C 0.5819(2) 1.2389(3) 0.7589(4)
C14 C 0.5625(3) 1.1911(3) 0.8072(4)
H19 H 0.5199 1.2055 0.7958
C15 C 0.6080(3) 1.1213(3) 0.8726(4)
H20 H 0.5944 1.0892 0.9043
C16 C 0.3738(3) 1.3848(3) 0.6405(4)
H21 H 0.3503 1.3754 0.6668
C17 C 0.4414(3) 1.3396(3) 0.6920(4)
H22 H 0.4633 1.3038 0.7527
C18 C 0.4756(3) 1.3496(3) 0.6492(4)
C19 C 0.4417(3) 1.4085(3) 0.5627(4)
H23 H 0.4634 1.4193 0.5339
C20 C 0.3755(3) 1.4506(3) 0.5199(4)
H24 H 0.3537 1.4888 0.4614
C21 C 0.8893(3) 0.9018(3) 1.2092(4)
H25 H 0.9144 0.9444 1.2048
C22 C 0.9327(3) 0.8515(3) 1.3047(4)
H26 H 0.9853 0.8606 1.3625
C23 C 0.8962(3) 0.7868(3) 1.3129(4)
C24 C 0.8181(3) 0.7741(3) 1.2219(4)
H27 H 0.7920 0.7306 1.2230
C25 C 0.7802(3) 0.8264(3) 1.1306(4)
H28 H 0.7282 0.8161 1.0697
C26 C 0.8228(3) 0.6479(3) 1.4580(4)
H29 H 0.7757 0.6579 1.4358
C27 C 0.8448(3) 0.7012(3) 1.4182(4)
H30 H 0.8139 0.7476 1.3730
C28 C 0.9137(3) 0.6861(3) 1.4453(4)
C29 C 0.9611(3) 0.6206(3) 1.5229(4)
H31 H 1.0092 0.6102 1.5486
C30 C 0.9347(3) 0.5720(3) 1.5600(4)
H32 H 0.9668 0.5289 1.6117
C31 C 0.9538(3) 0.3590(3) 0.7142(4)
H33 H 0.9614 0.3807 0.7737
C32 C 0.9985(3) 0.2905(3) 0.7350(4)
H34 H 1.0339 0.2665 0.8061
C33 C 0.9908(2) 0.2575(3) 0.6505(4)
C34 C 0.9345(3) 0.2952(3) 0.5450(4)
H35 H 0.9257 0.2743 0.4843
C35 C 0.8927(2) 0.3627(3) 0.5321(4)
H36 H 0.8565 0.3874 0.4616
C36 C 1.2165(3) 0.1456(3) 0.9429(4)
H37 H 1.2521 0.1736 1.0113
C37 C 1.1516(3) 0.1903(3) 0.8564(4)
H38 H 1.1436 0.2464 0.8662
C38 C 1.0989(3) 0.1499(3) 0.7545(4)
C39 C 1.1167(3) 0.0668(3) 0.7446(4)
H39 H 1.0836 0.0383 0.6764
C40 C 1.1826(3) 0.0284(3) 0.8353(4)
H40 H 1.1936 -0.0263 0.8264
Co1C Co 0.24090(3) 1.50866(4) 0.50112(4)
Co2_2 Co 0.82874(3) 0.49898(4) 1.58671(4)
Co2C Co 1.32874(3) 0.00102(4) 1.08671(4)
N5C N 0.8401(2) 1.0593(2) 1.0562(3)
N8_2 N 0.8658(2) 0.5818(2) 0.5276(3)
N11C N 0.7324(2) 0.4360(2) 0.4361(3)
N15 N 0.9178(2) 0.9072(3) 0.8892(3)
O9 O 0.8698(2) 0.9674(3) 0.8348(3)
O10 O 0.9817(2) 0.9233(3) 0.9836(3)
O11 O 0.9022(3) 0.8345(3) 0.8509(3)
N16 N 1.1410(2) 0.8753(3) 1.6005(4)
O12 O 1.0765(2) 0.8565(3) 1.5637(3)
O13 O 1.1964(2) 0.8790(3) 1.7017(3)
O14 O 1.1509(3) 0.8883(4) 1.5374(4)
loop_
_geom_bond_atom_site_label_1
_geom_bond_atom_site_label_2
_geom_bond_site_symmetry_1
_geom_bond_site_symmetry_2
Co1 N1 1_555 1_555
Co2 N2 1_555 1_555
N1 C1 1_555 1_555
N2 C6 1_555 1_555
N3 H1 1_555 1_555
N4 Co1 1_555 1_555
N5 C16 1_555 1_555
N6 H2 1_555 1_555
N7 Co1 1_555 1_555
N8 C26 1_555 1_555
N9 H3 1_555 1_555
N10 Co2 1_555 1_555
N11 C36 1_555 1_555
N12 H4 1_555 1_555
N13 O3 1_555 1_555
N14 O6 1_555 1_555
N15 O9 1_555 1_555
N16 O12 1_555 1_555
O1 Co1 1_555 1_555
H5 O1 1_555 1_555
H6 O1 1_555 1_555
O2 Co2 1_555 1_555
H7 O2 1_555 1_555
H8 O2 1_555 1_555
O3 Co1 1_555 1_555
O4 N13 1_555 1_555
O5 N13 1_555 1_555
O7 Co2 1_555 1_555
O8 N14 1_555 1_555
O10 N15 1_555 1_555
O11 N15 1_555 1_555
O13 N16 1_555 1_555
O14 N16 1_555 1_555
C1 H9 1_555 1_555
C2 C1 1_555 1_555
H10 C2 1_555 1_555
C3 N3 1_555 1_555
C4 C3 1_555 1_555
H11 C4 1_555 1_555
C5 N1 1_555 1_555
H12 C5 1_555 1_555
C6 H13 1_555 1_555
C7 C6 1_555 1_555
H14 C7 1_555 1_555
C8 N3 1_555 1_555
C9 C8 1_555 1_555
H15 C9 1_555 1_555
C10 N2 1_555 1_555
H16 C10 1_555 1_555
C11 N4 1_555 1_555
H17 C11 1_555 1_555
C12 C11 1_555 1_555
H18 C12 1_555 1_555
C13 N6 1_555 1_555
C14 C13 1_555 1_555
H19 C14 1_555 1_555
C15 N4 1_555 1_555
H20 C15 1_555 1_555
C16 H21 1_555 1_555
C17 C16 1_555 1_555
H22 C17 1_555 1_555
C18 N6 1_555 1_555
C19 C18 1_555 1_555
H23 C19 1_555 1_555
C20 N5 1_555 1_555
H24 C20 1_555 1_555
C21 N7 1_555 1_555
H25 C21 1_555 1_555
C22 C21 1_555 1_555
H26 C22 1_555 1_555
C23 N9 1_555 1_555
C24 C23 1_555 1_555
H27 C24 1_555 1_555
C25 N7 1_555 1_555
H28 C25 1_555 1_555
C26 H29 1_555 1_555
C27 C26 1_555 1_555
H30 C27 1_555 1_555
C28 N9 1_555 1_555
C29 C28 1_555 1_555
H31 C29 1_555 1_555
C30 N8 1_555 1_555
H32 C30 1_555 1_555
C31 N10 1_555 1_555
H33 C31 1_555 1_555
C32 C31 1_555 1_555
H34 C32 1_555 1_555
C33 N12 1_555 1_555
C34 C33 1_555 1_555
H35 C34 1_555 1_555
C35 N10 1_555 1_555
H36 C35 1_555 1_555
C36 H37 1_555 1_555
C37 C36 1_555 1_555
H38 C37 1_555 1_555
C38 N12 1_555 1_555
C39 C38 1_555 1_555
H39 C39 1_555 1_555
C40 N11 1_555 1_555
H40 C40 1_555 1_555
Co1C N5 1_555 1_555
Co2_2 N8 1_555 1_555
Co2C N11 1_555 1_555
N5C Co1 1_555 1_555
N8_2 Co2 1_555 1_555
N11C Co2 1_555 1_555
N14 O7 1_555 1_555
C2 C3 1_555 1_555
C4 C5 1_555 1_555
C7 C8 1_555 1_555
C9 C10 1_555 1_555
C12 C13 1_555 1_555
C14 C15 1_555 1_555
C17 C18 1_555 1_555
C19 C20 1_555 1_555
C22 C23 1_555 1_555
C24 C25 1_555 1_555
C27 C28 1_555 1_555
C29 C30 1_555 1_555
C32 C33 1_555 1_555
C34 C35 1_555 1_555
C37 C38 1_555 1_555
C39 C40 1_555 1_555

#END
