
#######################################################################
#
#                 Cambridge Crystallographic Data Centre
#                                CCDC 
#
#######################################################################
#
# If this CIF has been generated from an entry in the Cambridge 
# Structural Database, then it will include bibliographic, chemical, 
# crystal, experimental, refinement or atomic coordinate data resulting 
# from the CCDC's data processing and validation procedures.
#
#######################################################################

data_WICQAB
_symmetry_cell_setting           triclinic
_symmetry_space_group_name_H-M   'P -1'
_symmetry_Int_Tables_number      2
_space_group_name_Hall           '-P 1'
loop_
_symmetry_equiv_pos_site_id
_symmetry_equiv_pos_as_xyz
1 x,y,z
2 -x,-y,-z
_cell_length_a                   9.978(2)
_cell_length_b                   10.900(2)
_cell_length_c                   13.237(3)
_cell_angle_alpha                74.72(3)
_cell_angle_beta                 78.43(3)
_cell_angle_gamma                62.90(3)
_cell_volume                     1230.85
loop_
_atom_site_label
_atom_site_type_symbol
_atom_site_fract_x
_atom_site_fract_y
_atom_site_fract_z
Pr1 Pr 0.227030(14) -0.468220(12) 0.513950(11)
O1 O 0.3226(2) -0.35791(19) 0.33876(15)
O2 O 0.2102(2) -0.4877(2) 0.32948(16)
O3 O 0.2013(5) -0.5576(4) -0.0245(3)
O4 O 0.2933(4) -0.4520(4) -0.1673(2)
O5 O 0.4414(5) -0.0977(5) -0.1223(3)
O6 O 0.5365(4) -0.1401(4) 0.0199(4)
O7 O 0.5193(2) -0.3661(2) 0.53106(17)
O8 O 0.2692(2) -0.28327(19) 0.55265(18)
O9 O -0.0033(2) 0.24852(19) 0.54431(19)
O10 O 0.1448(2) 0.34968(19) 0.54319(18)
O11 O 0.6152(3) 0.0625(3) 0.7063(2)
O12 O 0.7247(3) -0.1575(3) 0.7124(3)
O13 O 0.3621(2) -0.5909(2) 0.67761(16)
O14 O 0.0314(2) -0.4394(2) 0.67179(19)
N1 N 0.4626(5) -0.1569(4) -0.0326(3)
N2 N 0.6209(3) -0.0447(3) 0.6916(2)
C1 C 0.3077(3) -0.3786(3) 0.1684(2)
C2 C 0.2697(4) -0.4409(3) 0.1059(2)
H2 H 0.2282 -0.5046 0.1367
C3 C 0.2947(4) -0.4067(4) -0.0036(3)
C4 C 0.3545(4) -0.3121(4) -0.0490(3)
H3 H 0.3685 -0.2871 -0.1218
C5 C 0.3936(4) -0.2543(4) 0.0147(3)
C6 C 0.3689(3) -0.2851(3) 0.1232(2)
H4 H 0.3935 -0.2429 0.1647
C7 C 0.2799(3) -0.4106(3) 0.2860(2)
C8 C 0.2596(5) -0.4769(4) -0.0722(3)
C9 C 0.3793(3) -0.1478(2) 0.58414(19)
C10 C 0.2518(3) -0.0191(2) 0.5657(2)
H5 H 0.1684 -0.0141 0.5407
C11 C 0.2500(3) 0.1018(2) 0.5850(2)
C12 C 0.3705(3) 0.0921(2) 0.6275(2)
H6 H 0.3699 0.1715 0.6417
C13 C 0.4917(3) -0.0368(3) 0.6488(2)
C14 C 0.4996(3) -0.1572(2) 0.6267(2)
H7 H 0.5841 -0.2424 0.6402
C15 C 0.3910(3) -0.2757(2) 0.5532(2)
C16 C 0.1203(3) 0.2437(2) 0.5551(2)
Pr1A Pr 0.772970(14) -0.531780(12) 0.486050(11)
Pr1A_2 Pr -0.227030(14) 0.468220(12) 0.486050(11)
Pr1_2 Pr 0.227030(14) 0.531780(12) 0.513950(11)
O7A O 0.4807(2) -0.6339(2) 0.46894(17)
O9A O 0.0033(2) -0.24852(19) 0.45569(19)
O10_2 O 0.1448(2) -0.65032(19) 0.54319(18)
O15 O 0.9614(4) -0.7595(4) 0.2585(3)
O16 O 0.0873(4) -0.0459(4) 0.3169(4)
N3 N 0.8655(4) -0.2595(4) 0.0579(3)
H1 H 0.8318 -0.3226 0.0714
C17 C 0.8975(5) -0.2247(5) 0.1360(4)
H8 H 0.8858 -0.2702 0.2050
C18 C 0.9477(5) -0.1213(5) 0.1151(4)
H9 H 0.9674 -0.0962 0.1706
C19 C 0.9693(4) -0.0547(4) 0.0141(3)
C20 C 0.9339(5) -0.0940(5) -0.0646(4)
H10 H 0.9431 -0.0499 -0.1344
C21 C 0.8850(5) -0.1983(5) -0.0390(4)
H11 H 0.8652 -0.2263 -0.0928
N3A N 1.1345(4) 0.2595(4) -0.0579(3)
H1A H 1.1682 0.3226 -0.0714
C17A C 1.1025(5) 0.2247(5) -0.1360(4)
H8A H 1.1142 0.2702 -0.2050
C18A C 1.0523(5) 0.1213(5) -0.1151(4)
H9A H 1.0326 0.0962 -0.1706
C19A C 1.0307(4) 0.0547(4) -0.0141(3)
C20A C 1.0661(5) 0.0940(5) 0.0646(4)
H10A H 1.0569 0.0499 0.1344
C21A C 1.1150(5) 0.1983(5) 0.0390(4)
H11A H 1.1348 0.2263 0.0928
loop_
_geom_bond_atom_site_label_1
_geom_bond_atom_site_label_2
_geom_bond_site_symmetry_1
_geom_bond_site_symmetry_2
Pr1 O1 1_555 1_555
O1 C7 1_555 1_555
O2 Pr1 1_555 1_555
O3 C8 1_555 1_555
O4 C8 1_555 1_555
O5 N1 1_555 1_555
O6 N1 1_555 1_555
O7 C15 1_555 1_555
O8 Pr1 1_555 1_555
O9 C16 1_555 1_555
O10 C16 1_555 1_555
O11 N2 1_555 1_555
O12 N2 1_555 1_555
O13 Pr1 1_555 1_555
O14 Pr1 1_555 1_555
N1 C5 1_555 1_555
N2 C13 1_555 1_555
N3 H1 1_555 1_555
C1 C2 1_555 1_555
C2 H2 1_555 1_555
C3 C2 1_555 1_555
C4 C3 1_555 1_555
H3 C4 1_555 1_555
C5 C4 1_555 1_555
C6 C1 1_555 1_555
H4 C6 1_555 1_555
C7 O2 1_555 1_555
C8 C3 1_555 1_555
C9 C10 1_555 1_555
C10 H5 1_555 1_555
C11 C10 1_555 1_555
C12 C11 1_555 1_555
H6 C12 1_555 1_555
C13 C12 1_555 1_555
C14 C9 1_555 1_555
H7 C14 1_555 1_555
C15 O8 1_555 1_555
C16 C11 1_555 1_555
C17 N3 1_555 1_555
H8 C17 1_555 1_555
C18 C17 1_555 1_555
H9 C18 1_555 1_555
C19 C18 1_555 1_555
C20 C19 1_555 1_555
H10 C20 1_555 1_555
C21 N3 1_555 1_555
H11 C21 1_555 1_555
Pr1A O7 1_555 1_555
Pr1A_2 O9 1_555 1_555
Pr1_2 O10 1_555 1_555
O7A Pr1 1_555 1_555
O9A Pr1 1_555 1_555
O10_2 Pr1 1_555 1_555
N3A H1A 1_555 1_555
C17A N3A 1_555 1_555
H8A C17A 1_555 1_555
C18A C17A 1_555 1_555
H9A C18A 1_555 1_555
C19A C19 1_555 1_555
C20A C19A 1_555 1_555
H10A C20A 1_555 1_555
C21A N3A 1_555 1_555
H11A C21A 1_555 1_555
C1 C7 1_555 1_555
C5 C6 1_555 1_555
C9 C15 1_555 1_555
C13 C14 1_555 1_555
C20 C21 1_555 1_555
C18A C19A 1_555 1_555
C20A C21A 1_555 1_555

#END
