
#######################################################################
#
#                 Cambridge Crystallographic Data Centre
#                                CCDC 
#
#######################################################################
#
# If this CIF has been generated from an entry in the Cambridge 
# Structural Database, then it will include bibliographic, chemical, 
# crystal, experimental, refinement or atomic coordinate data resulting 
# from the CCDC's data processing and validation procedures.
#
#######################################################################

data_WICROQ
_symmetry_cell_setting           tetragonal
_symmetry_space_group_name_H-M   'I 41/a'
_symmetry_Int_Tables_number      88
_space_group_name_Hall           '-I 4ad'
loop_
_symmetry_equiv_pos_site_id
_symmetry_equiv_pos_as_xyz
1 x,y,z
2 3/4-y,1/4+x,1/4+z
3 1/4+y,1/4-x,1/4+z
4 1/2+x,1/2+y,1/2+z
5 1/4-y,3/4+x,3/4+z
6 -x,1/2-y,z
7 1/2-x,-y,1/2+z
8 3/4+y,3/4-x,3/4+z
9 -x,-y,-z
10 1/4+y,3/4-x,3/4-z
11 3/4-y,3/4+x,3/4-z
12 1/2-x,1/2-y,1/2-z
13 3/4+y,1/4-x,1/4-z
14 x,1/2+y,-z
15 1/2+x,y,1/2-z
16 1/4-y,1/4+x,1/4-z
_cell_length_a                   13.2775(1)
_cell_length_b                   13.2775(1)
_cell_length_c                   22.4184(3)
_cell_angle_alpha                90
_cell_angle_beta                 90
_cell_angle_gamma                90
_cell_volume                     3952.18
loop_
_atom_site_label
_atom_site_type_symbol
_atom_site_fract_x
_atom_site_fract_y
_atom_site_fract_z
Br1 Br 0.08623(6) 0.64135(6) 0.03853(3)
Cu1 Cu 0.13671(7) 0.79076(7) 0.08857(4)
O1 O 0.1344(5) 0.8507(5) 0.3209(2)
H1 H 0.1198 0.9092 0.3094
N1 N 0.1212(4) 0.7430(4) 0.1720(3)
O2 O 0.0885(4) 1.0145(4) 0.2790(2)
N2 N 0.1371(4) 0.9221(4) 0.1296(2)
C1 C 0.1220(5) 0.8166(5) 0.2146(3)
C2 C 0.1212(5) 0.9200(5) 0.1903(3)
C3 C 0.1274(5) 0.7872(6) 0.2751(3)
C4 C 0.1064(5) 1.0121(5) 0.2210(3)
C5 C 0.1267(6) 0.6849(6) 0.2896(3)
H2 H 0.1263 0.6648 0.3302
C6 C 0.1114(5) 1.1026(5) 0.1877(3)
H3 H 0.1036 1.1655 0.2074
C7 C 0.1267(5) 0.6135(6) 0.2455(4)
H4 H 0.1280 0.5438 0.2551
C8 C 0.1276(6) 1.1000(6) 0.1270(4)
H5 H 0.1308 1.1606 0.1046
C9 C 0.1247(5) 0.6453(5) 0.1860(3)
H6 H 0.1259 0.5965 0.1550
C10 C 0.1392(6) 1.0073(5) 0.0990(3)
H7 H 0.1487 1.0051 0.0570
Cu1B Cu 0.04076(7) 1.11329(7) 0.33857(4)
O2D O 0.2355(4) 0.8385(4) 0.0290(2)
loop_
_geom_bond_atom_site_label_1
_geom_bond_atom_site_label_2
_geom_bond_site_symmetry_1
_geom_bond_site_symmetry_2
Br1 Cu1 1_555 1_555
Cu1 N1 1_555 1_555
O1 H1 1_555 1_555
N1 C1 1_555 1_555
O2 C4 1_555 1_555
N2 Cu1 1_555 1_555
C1 C2 1_555 1_555
C2 N2 1_555 1_555
C3 O1 1_555 1_555
C4 C2 1_555 1_555
C5 C3 1_555 1_555
H2 C5 1_555 1_555
C6 C4 1_555 1_555
H3 C6 1_555 1_555
C7 C5 1_555 1_555
H4 C7 1_555 1_555
C8 C6 1_555 1_555
H5 C8 1_555 1_555
C9 N1 1_555 1_555
H6 C9 1_555 1_555
C10 N2 1_555 1_555
H7 C10 1_555 1_555
Cu1B O2 1_555 1_555
O2D Cu1 1_555 1_555
C1 C3 1_555 1_555
C7 C9 1_555 1_555
C8 C10 1_555 1_555

#END
