
#######################################################################
#
#                 Cambridge Crystallographic Data Centre
#                                CCDC 
#
#######################################################################
#
# If this CIF has been generated from an entry in the Cambridge 
# Structural Database, then it will include bibliographic, chemical, 
# crystal, experimental, refinement or atomic coordinate data resulting 
# from the CCDC's data processing and validation procedures.
#
#######################################################################

data_WICSIL
_symmetry_cell_setting           triclinic
_symmetry_space_group_name_H-M   'P -1'
_symmetry_Int_Tables_number      2
_space_group_name_Hall           '-P 1'
loop_
_symmetry_equiv_pos_site_id
_symmetry_equiv_pos_as_xyz
1 x,y,z
2 -x,-y,-z
_cell_length_a                   8.827(3)
_cell_length_b                   11.675(4)
_cell_length_c                   21.160(7)
_cell_angle_alpha                96.847(6)
_cell_angle_beta                 100.776(6)
_cell_angle_gamma                102.133(6)
_cell_volume                     2065.62
loop_
_atom_site_label
_atom_site_type_symbol
_atom_site_fract_x
_atom_site_fract_y
_atom_site_fract_z
O6 O 0.0342(7) 0.7146(4) 0.5053(2)
O7 O 0.0665(7) 0.8449(4) 0.5905(2)
O8 O 0.0345(8) 0.6615(4) 0.5983(2)
N12 N 0.0490(5) 0.7415(4) 0.5655(2)
O9 O 0.8001(5) 0.5055(4) 0.4556(2)
Ag1 Ag -0.24597(4) 0.01611(3) -0.329441(16)
Ru1 Ru -0.85951(4) -0.60269(3) -0.793570(15)
O1 O -0.4481(4) 0.1509(3) -0.34808(18)
O2 O -0.6438(4) 0.1648(3) -0.30077(18)
O3 O -0.5262(4) 0.0209(3) -0.28895(18)
N1 N -0.6481(4) -0.6565(3) -0.77219(16)
N2 N -0.7782(4) -0.5275(3) -0.70098(16)
N3 N -1.0414(4) -0.5236(3) -0.77589(16)
N4 N -0.3823(5) -0.1347(3) -0.40889(18)
N5 N -0.7558(4) -0.4604(3) -0.83389(16)
N6 N -0.9279(4) -0.6696(3) -0.88758(16)
N7 N -0.9918(4) -0.7713(3) -0.79119(16)
N8 N -1.1434(4) -0.9114(3) -1.22342(18)
N9 N -0.0498(5) 0.1170(4) -0.3817(2)
N10 N -0.5411(4) 0.1117(3) -0.31277(18)
C1 C -0.5921(5) -0.7303(4) -0.8103(2)
H1 H -0.6459 -0.7556 -0.8547
C2 C -0.4586(5) -0.7709(4) -0.7875(2)
H2 H -0.4218 -0.8230 -0.8158
C3 C -0.3802(5) -0.7347(4) -0.7231(2)
H3 H -0.2912 -0.7641 -0.7061
C4 C -0.4323(5) -0.6550(4) -0.6836(2)
H4 H -0.3772 -0.6270 -0.6396
C5 C -0.5658(5) -0.6166(3) -0.70894(19)
C6 C -0.6317(5) -0.5332(3) -0.67037(19)
C7 C -0.5549(5) -0.4614(4) -0.61110(19)
H5 H -0.4505 -0.4643 -0.5908
C8 C -0.6338(5) -0.3847(4) -0.58169(19)
C9 C -0.5500(5) -0.3002(4) -0.5210(2)
C10 C -0.4174(5) -0.3188(4) -0.4801(2)
H6 H -0.3817 -0.3889 -0.4895
C11 C -0.3377(5) -0.2352(4) -0.4258(2)
H7 H -0.2468 -0.2495 -0.3990
C12 C -0.5124(6) -0.1181(4) -0.4480(2)
H8 H -0.5471 -0.0482 -0.4368
C13 C -0.5980(6) -0.1965(4) -0.5033(2)
H9 H -0.6888 -0.1802 -0.5291
C14 C -0.7897(5) -0.3851(4) -0.6125(2)
H10 H -0.8475 -0.3369 -0.5923
C15 C -0.8582(5) -0.4562(3) -0.6725(2)
C16 C -1.0135(5) -0.4608(3) -0.7142(2)
C17 C -1.1239(5) -0.4044(4) -0.6944(2)
H11 H -1.1040 -0.3634 -0.6510
C18 C -1.2636(5) -0.4080(4) -0.7381(3)
H12 H -1.3393 -0.3683 -0.7254
C19 C -1.2909(5) -0.4700(4) -0.8004(2)
H13 H -1.3855 -0.4732 -0.8313
C20 C -1.1782(5) -0.5281(4) -0.8176(2)
H14 H -1.1988 -0.5724 -0.8602
C21 C -0.6669(5) -0.3539(4) -0.8030(2)
H15 H -0.6480 -0.3374 -0.7568
C22 C -0.6015(5) -0.2669(4) -0.8357(2)
H16 H -0.5379 -0.1927 -0.8122
C23 C -0.6297(6) -0.2893(4) -0.9035(2)
H17 H -0.5855 -0.2309 -0.9269
C24 C -0.7237(5) -0.3987(4) -0.9363(2)
H18 H -0.7465 -0.4157 -0.9826
C25 C -0.7840(4) -0.4829(3) -0.90071(19)
C26 C -0.8790(5) -0.6032(3) -0.93140(19)
C27 C -0.9161(5) -0.6505(4) -0.9970(2)
H19 H -0.8831 -0.6031 -1.0277
C28 C -1.0028(5) -0.7687(4) -1.0182(2)
C29 C -1.0448(5) -0.8200(3) -1.08864(19)
C30 C -0.9703(5) -0.7683(4) -1.1342(2)
H20 H -0.8838 -0.7005 -1.1203
C31 C -1.0220(5) -0.8155(4) -1.2000(2)
H21 H -0.9692 -0.7783 -1.2301
C32 C -1.2121(5) -0.9628(4) -1.1791(2)
H22 H -1.2969 -1.0315 -1.1944
C33 C -1.1678(6) -0.9224(4) -1.1130(2)
H23 H -1.2201 -0.9635 -1.0841
C34 C -1.0519(5) -0.8347(4) -0.9717(2)
H24 H -1.1111 -0.9148 -0.9847
C35 C -1.0143(4) -0.7834(3) -0.90662(19)
C36 C -1.0566(5) -0.8392(3) -0.85135(19)
C37 C -1.1566(5) -0.9511(4) -0.8592(2)
H25 H -1.2003 -0.9965 -0.9014
C38 C -1.1922(5) -0.9958(4) -0.8042(2)
H26 H -1.2625 -1.0714 -0.8085
C39 C -1.1232(5) -0.9281(4) -0.7429(2)
H27 H -1.1438 -0.9579 -0.7047
C40 C -1.0240(5) -0.8166(4) -0.73816(19)
H28 H -0.9773 -0.7708 -0.6962
C41 C 0.0458(6) 0.1119(4) -0.4105(2)
C42 C 0.1687(6) 0.1032(6) -0.4473(3)
H29 H 0.2647 0.1656 -0.4273
H30 H 0.1306 0.1131 -0.4924
H31 H 0.1932 0.0252 -0.4470
Ag1_2 Ag -1.24597(4) -0.98389(3) -1.329441(16)
N8_2 N -0.1434(4) 0.0886(3) -0.22342(18)
O4? O -0.5811(9) -0.1413(6) -0.0306(4)
O5? O -0.3139(5) -0.1156(4) -0.0176(2)
O10? O -0.4559(17) 0.0346(13) -0.0338(7)
N11? N -0.4179(15) -0.0677(11) -0.0176(6)
C43? C -0.3964(9) 0.5130(7) 0.0471(4)
C44? C -0.400(2) 0.6061(15) 0.0236(9)
C45? C -0.409(3) 0.6334(18) -0.0103(12)
C46? C -0.507(3) 0.3706(19) 0.0656(10)
C47? C -0.4728(13) 0.4044(10) 0.0417(6)
C48? C -0.3909(19) 0.3189(13) 0.0593(7)
C49? C -0.4713(17) 0.3500(12) 0.0595(6)
loop_
_geom_bond_atom_site_label_1
_geom_bond_atom_site_label_2
_geom_bond_site_symmetry_1
_geom_bond_site_symmetry_2
Ag1 O1 1_555 1_555
Ru1 N1 1_555 1_555
O1 N10 1_555 1_555
O2 N10 1_555 1_555
O3 N10 1_555 1_555
O6 N12 1_555 1_555
O7 N12 1_555 1_555
O8 N12 1_555 1_555
N1 C1 1_555 1_555
N2 Ru1 1_555 1_555
N3 Ru1 1_555 1_555
N4 Ag1 1_555 1_555
N5 Ru1 1_555 1_555
N6 Ru1 1_555 1_555
N7 Ru1 1_555 1_555
N8 C31 1_555 1_555
N9 Ag1 1_555 1_555
C1 H1 1_555 1_555
C2 C1 1_555 1_555
H2 C2 1_555 1_555
C3 C2 1_555 1_555
H3 C3 1_555 1_555
C4 C3 1_555 1_555
H4 C4 1_555 1_555
C5 N1 1_555 1_555
C6 N2 1_555 1_555
C7 C6 1_555 1_555
H5 C7 1_555 1_555
C8 C7 1_555 1_555
C9 C8 1_555 1_555
C10 C9 1_555 1_555
H6 C10 1_555 1_555
C11 N4 1_555 1_555
H7 C11 1_555 1_555
C12 N4 1_555 1_555
H8 C12 1_555 1_555
C13 C9 1_555 1_555
H9 C13 1_555 1_555
C14 C8 1_555 1_555
H10 C14 1_555 1_555
C15 N2 1_555 1_555
C16 N3 1_555 1_555
C17 C16 1_555 1_555
H11 C17 1_555 1_555
C18 C17 1_555 1_555
H12 C18 1_555 1_555
C19 C18 1_555 1_555
H13 C19 1_555 1_555
C20 N3 1_555 1_555
H14 C20 1_555 1_555
C21 N5 1_555 1_555
H15 C21 1_555 1_555
C22 C21 1_555 1_555
H16 C22 1_555 1_555
C23 C22 1_555 1_555
H17 C23 1_555 1_555
C24 C23 1_555 1_555
H18 C24 1_555 1_555
C25 N5 1_555 1_555
C26 N6 1_555 1_555
C27 C26 1_555 1_555
H19 C27 1_555 1_555
C28 C27 1_555 1_555
C29 C28 1_555 1_555
C30 C29 1_555 1_555
H20 C30 1_555 1_555
C31 C30 1_555 1_555
H21 C31 1_555 1_555
C32 N8 1_555 1_555
H22 C32 1_555 1_555
C33 C29 1_555 1_555
H23 C33 1_555 1_555
C34 C28 1_555 1_555
H24 C34 1_555 1_555
C35 N6 1_555 1_555
C36 N7 1_555 1_555
C37 C36 1_555 1_555
H25 C37 1_555 1_555
C38 C37 1_555 1_555
H26 C38 1_555 1_555
C39 C38 1_555 1_555
H27 C39 1_555 1_555
C40 N7 1_555 1_555
H28 C40 1_555 1_555
C41 N9 1_555 1_555
C42 C41 1_555 1_555
H29 C42 1_555 1_555
H30 C42 1_555 1_555
H31 C42 1_555 1_555
Ag1_2 N8 1_555 1_555
N8_2 Ag1 1_555 1_555
C4 C5 1_555 1_555
C5 C6 1_555 1_555
C10 C11 1_555 1_555
C12 C13 1_555 1_555
C14 C15 1_555 1_555
C15 C16 1_555 1_555
C19 C20 1_555 1_555
C24 C25 1_555 1_555
C25 C26 1_555 1_555
C32 C33 1_555 1_555
C34 C35 1_555 1_555
C35 C36 1_555 1_555
C39 C40 1_555 1_555

#END
