
#######################################################################
#
#                 Cambridge Crystallographic Data Centre
#                                CCDC 
#
#######################################################################
#
# If this CIF has been generated from an entry in the Cambridge 
# Structural Database, then it will include bibliographic, chemical, 
# crystal, experimental, refinement or atomic coordinate data resulting 
# from the CCDC's data processing and validation procedures.
#
#######################################################################

data_WICTOS
_symmetry_cell_setting           triclinic
_symmetry_space_group_name_H-M   'P -1'
_symmetry_Int_Tables_number      2
_space_group_name_Hall           '-P 1'
loop_
_symmetry_equiv_pos_site_id
_symmetry_equiv_pos_as_xyz
1 x,y,z
2 -x,-y,-z
_cell_length_a                   10.4762(7)
_cell_length_b                   12.3802(9)
_cell_length_c                   23.4254(16)
_cell_angle_alpha                96.1230(10)
_cell_angle_beta                 100.4500(10)
_cell_angle_gamma                111.8460(10)
_cell_volume                     2722.31
loop_
_atom_site_label
_atom_site_type_symbol
_atom_site_fract_x
_atom_site_fract_y
_atom_site_fract_z
Y1 Y 0.48283(3) 0.69312(2) 0.288473(10)
Y2 Y 0.45740(3) 0.89049(2) 0.426479(10)
Y3 Y 0.33302(3) 1.38378(2) 0.152610(10)
Cu1 Cu 0.46582(4) 1.18122(3) 0.060270(14)
O1 O 0.4926(2) 0.87596(18) 0.25761(9)
O2 O 0.3736(2) 0.82581(15) 0.32480(7)
O3 O 0.2197(2) 1.18280(16) 0.12540(8)
O4 O 0.3697(2) 1.09629(17) 0.11525(8)
O5 O 0.4672(2) 0.56268(17) 0.13999(8)
O6 O 0.6056(2) 0.71095(17) 0.21449(8)
O7 O 0.8066(2) 0.63842(17) -0.05654(8)
O8 O 0.6092(2) 0.66386(17) -0.05687(8)
O9 O 0.2772(2) 0.62873(18) 0.21916(8)
O10 O 0.1632(2) 0.44083(18) 0.17361(9)
O11 O -0.3631(2) 0.27868(18) 0.12094(8)
O12 O -0.4700(2) 0.35194(18) 0.17873(8)
O13 O 0.3252(2) 0.31813(17) 0.24527(8)
O14 O 0.4710(2) 0.50551(16) 0.26890(8)
O15 O 0.4994(2) 0.12695(16) 0.47851(8)
O16 O 0.4615(2) 0.05595(16) 0.38430(8)
O17 O -0.0866(4) 0.1766(3) 0.25969(17)
O18 O -0.2575(4) 0.1294(3) 0.30666(17)
H1 H -0.2878 0.0665 0.2830
O19 O 0.3180(2) 0.57945(16) 0.33479(8)
O20 O 0.3115(2) 0.69443(17) 0.41344(8)
O21 O 1.3096(2) 0.98103(16) 0.54078(8)
O22 O 1.2530(2) 0.89830(17) 0.44519(8)
O23 O 0.7299(2) 0.7628(2) 0.33976(8)
O24 O 0.58891(19) 0.78534(17) 0.39310(8)
N1 N 0.5759(3) 1.2228(2) -0.00120(11)
N2 N 0.3290(3) 1.0578(2) -0.00887(11)
C1 C 0.6992(4) 1.3155(3) 0.00640(16)
H2 H 0.7433 1.3628 0.0437
C2 C 0.7625(5) 1.3425(4) -0.0400(2)
H3 H 0.8480 1.4075 -0.0342
C3 C 0.6976(5) 1.2723(4) -0.09434(19)
H4 H 0.7397 1.2886 -0.1259
C4 C 0.5708(5) 1.1781(4) -0.10285(15)
H5 H 0.5256 1.1308 -0.1401
C5 C 0.5106(4) 1.1539(3) -0.05552(13)
C6 C 0.3738(4) 1.0575(3) -0.05907(13)
C7 C 0.2915(5) 0.9715(4) -0.10934(16)
H6 H 0.3236 0.9711 -0.1438
C8 C 0.1643(5) 0.8885(4) -0.10764(19)
H7 H 0.1089 0.8311 -0.1411
C9 C 0.1178(5) 0.8889(4) -0.05704(19)
H8 H 0.0308 0.8326 -0.0553
C10 C 0.2031(4) 0.9750(3) -0.00874(17)
H9 H 0.1717 0.9757 0.0259
C11 C 0.2463(3) 1.0528(2) 0.18974(11)
C12 C 0.3301(3) 0.9962(2) 0.21219(11)
H10 H 0.4040 0.9960 0.1955
C13 C 0.3048(3) 0.9399(2) 0.25930(11)
C14 C 0.1942(3) 0.9407(2) 0.28460(12)
H11 H 0.1763 0.9026 0.3162
C15 C 0.1116(3) 0.9984(3) 0.26238(13)
H12 H 0.0379 0.9991 0.2792
C16 C 0.1376(3) 1.0551(3) 0.21533(12)
H13 H 0.0824 1.0947 0.2009
C17 C 0.2801(3) 1.1155(2) 0.13986(11)
C18 C 0.3973(3) 0.8803(2) 0.28170(11)
C19 C 0.6928(3) 0.6857(2) 0.12974(11)
C20 C 0.8346(3) 0.7425(3) 0.15940(12)
H14 H 0.8591 0.7654 0.2003
C21 C 0.9394(3) 0.7652(3) 0.12870(13)
H15 H 1.0342 0.8002 0.1489
C22 C 0.9023(3) 0.7356(3) 0.06751(13)
H16 H 0.9727 0.7499 0.0467
C23 C 0.7612(3) 0.6848(2) 0.03722(11)
C24 C 0.6560(3) 0.6570(2) 0.06833(11)
H17 H 0.5612 0.6193 0.0482
C25 C 0.5805(3) 0.6512(2) 0.16427(11)
C26 C 0.7235(3) 0.6605(2) -0.02908(11)
C27 C -0.2205(3) 0.4380(3) 0.20009(12)
C28 C -0.2142(3) 0.5207(3) 0.24722(12)
H18 H -0.2967 0.5160 0.2583
C29 C -0.0857(3) 0.6093(3) 0.27728(13)
H19 H -0.0819 0.6642 0.3086
C30 C 0.0367(3) 0.6170(3) 0.26118(12)
H20 H 0.1223 0.6789 0.2806
C31 C 0.0333(3) 0.5325(2) 0.21599(11)
C32 C -0.0958(3) 0.4431(2) 0.18567(12)
H21 H -0.0988 0.3863 0.1555
C33 C -0.3612(3) 0.3500(3) 0.16444(12)
C34 C 0.1669(3) 0.5342(3) 0.20200(11)
C35 C 0.4708(3) 0.3852(2) 0.34304(11)
C36 C 0.5422(3) 0.4821(3) 0.38938(13)
H22 H 0.5585 0.5579 0.3821
C37 C 0.5892(4) 0.4683(3) 0.44560(13)
H23 H 0.6359 0.5342 0.4760
C38 C 0.5671(3) 0.3569(3) 0.45703(12)
H24 H 0.5980 0.3475 0.4952
C39 C 0.4986(3) 0.2583(2) 0.41149(11)
C40 C 0.4495(3) 0.2726(2) 0.35427(11)
H25 H 0.4027 0.2068 0.3238
C41 C 0.4171(3) 0.4027(2) 0.28226(11)
C42 C 0.4851(3) 0.1398(2) 0.42501(11)
C43 C -0.0715(4) 0.3172(3) 0.34027(14)
C44 C -0.1422(4) 0.3435(4) 0.38036(17)
H26 H -0.2313 0.2890 0.3811
C45 C -0.0807(4) 0.4503(4) 0.41931(18)
H27 H -0.1286 0.4676 0.4464
C46 C 0.0511(4) 0.5321(3) 0.41868(15)
H28 H 0.0917 0.6042 0.4451
C47 C 0.1234(3) 0.5064(3) 0.37824(12)
C48 C 0.0611(3) 0.3985(3) 0.33945(13)
H29 H 0.1088 0.3804 0.3125
C49 C -0.1372(4) 0.2016(3) 0.29766(18)
C50 C 0.2617(3) 0.5996(2) 0.37551(11)
C51 C 1.0678(3) 0.8775(2) 0.49401(12)
C52 C 0.9627(3) 0.8469(2) 0.44230(11)
H30 H 0.9869 0.8490 0.4060
C53 C 0.8219(3) 0.8133(2) 0.44433(11)
C54 C 0.7851(3) 0.8044(3) 0.49831(12)
H31 H 0.6908 0.7815 0.5000
C55 C 0.8889(3) 0.8298(3) 0.54947(12)
H32 H 0.8638 0.8207 0.5853
C56 C 1.0292(3) 0.8686(3) 0.54768(12)
H33 H 1.0987 0.8890 0.5826
C57 C 1.2214(3) 0.9220(2) 0.49310(12)
C58 C 0.7109(3) 0.7882(2) 0.38974(12)
Y2A Y 0.54260(3) 0.10951(2) 0.573521(10)
Y2_2 Y 0.45740(3) -0.10951(2) 0.426479(10)
Y2A_2 Y 1.54260(3) 1.10951(2) 0.573521(10)
Y2_3 Y 1.45740(3) 0.89049(2) 0.426479(10)
Y3_2 Y 0.33302(3) 0.38378(2) 0.152610(10)
Y3A Y 0.66698(3) 0.61622(2) -0.152610(10)
Y3_3 Y -0.66698(3) 0.38378(2) 0.152610(10)
Cu1A Cu 0.53418(4) 0.81878(3) -0.060270(14)
Cu1_2 Cu -0.53418(4) 0.18122(3) 0.060270(14)
O5_2 O 0.4672(2) 1.56268(17) 0.13999(8)
O7A O 0.1934(2) 1.36158(17) 0.05654(8)
O8A O 0.3908(2) 1.33614(17) 0.05687(8)
O10_2 O 0.1632(2) 1.44083(18) 0.17361(9)
O11_2 O 0.6369(2) 1.27868(18) 0.12094(8)
O12_2 O 0.5300(2) 1.35194(18) 0.17873(8)
O13_2 O 0.3252(2) 1.31813(17) 0.24527(8)
O15A O 0.5006(2) 0.87305(16) 0.52149(8)
O16_2 O 0.4615(2) 1.05595(16) 0.38430(8)
O21A O 0.6904(2) 1.01897(16) 0.45922(8)
O22_2 O 0.2530(2) 0.89830(17) 0.44519(8)
O25 O 0.7509(8) 0.9516(6) 0.2286(4)
loop_
_geom_bond_atom_site_label_1
_geom_bond_atom_site_label_2
_geom_bond_site_symmetry_1
_geom_bond_site_symmetry_2
Y1 O1 1_555 1_555
Y2 O2 1_555 1_555
Y3 O3 1_555 1_555
Cu1 O4 1_555 1_555
O1 C18 1_555 1_555
O2 Y1 1_555 1_555
O3 C17 1_555 1_555
O4 C17 1_555 1_555
O5 C25 1_555 1_555
O6 Y1 1_555 1_555
O7 C26 1_555 1_555
O8 C26 1_555 1_555
O9 Y1 1_555 1_555
O10 C34 1_555 1_555
O11 C33 1_555 1_555
O12 C33 1_555 1_555
O13 C41 1_555 1_555
O14 Y1 1_555 1_555
O15 C42 1_555 1_555
O16 C42 1_555 1_555
O17 C49 1_555 1_555
O18 H1 1_555 1_555
O19 Y1 1_555 1_555
O20 Y2 1_555 1_555
O21 C57 1_555 1_555
O22 C57 1_555 1_555
O23 Y1 1_555 1_555
O24 Y1 1_555 1_555
N1 Cu1 1_555 1_555
N2 Cu1 1_555 1_555
C1 N1 1_555 1_555
H2 C1 1_555 1_555
C2 C1 1_555 1_555
H3 C2 1_555 1_555
C3 C2 1_555 1_555
H4 C3 1_555 1_555
C4 C3 1_555 1_555
H5 C4 1_555 1_555
C5 N1 1_555 1_555
C6 N2 1_555 1_555
C7 C6 1_555 1_555
H6 C7 1_555 1_555
C8 C7 1_555 1_555
H7 C8 1_555 1_555
C9 C8 1_555 1_555
H8 C9 1_555 1_555
C10 N2 1_555 1_555
H9 C10 1_555 1_555
C11 C12 1_555 1_555
C12 H10 1_555 1_555
C13 C12 1_555 1_555
C14 C13 1_555 1_555
H11 C14 1_555 1_555
C15 C14 1_555 1_555
H12 C15 1_555 1_555
C16 C11 1_555 1_555
H13 C16 1_555 1_555
C17 C11 1_555 1_555
C18 O2 1_555 1_555
C19 C20 1_555 1_555
C20 H14 1_555 1_555
C21 C20 1_555 1_555
H15 C21 1_555 1_555
C22 C21 1_555 1_555
H16 C22 1_555 1_555
C23 C22 1_555 1_555
C24 C19 1_555 1_555
H17 C24 1_555 1_555
C25 O6 1_555 1_555
C26 C23 1_555 1_555
C27 C28 1_555 1_555
C28 H18 1_555 1_555
C29 C28 1_555 1_555
H19 C29 1_555 1_555
C30 C29 1_555 1_555
H20 C30 1_555 1_555
C31 C30 1_555 1_555
C32 C27 1_555 1_555
H21 C32 1_555 1_555
C33 C27 1_555 1_555
C34 O9 1_555 1_555
C35 C36 1_555 1_555
C36 H22 1_555 1_555
C37 C36 1_555 1_555
H23 C37 1_555 1_555
C38 C37 1_555 1_555
H24 C38 1_555 1_555
C39 C38 1_555 1_555
C40 C35 1_555 1_555
H25 C40 1_555 1_555
C41 O14 1_555 1_555
C42 C39 1_555 1_555
C43 C44 1_555 1_555
C44 H26 1_555 1_555
C45 C44 1_555 1_555
H27 C45 1_555 1_555
C46 C45 1_555 1_555
H28 C46 1_555 1_555
C47 C46 1_555 1_555
C48 C43 1_555 1_555
H29 C48 1_555 1_555
C49 O18 1_555 1_555
C50 O19 1_555 1_555
C51 C52 1_555 1_555
C52 H30 1_555 1_555
C53 C52 1_555 1_555
C54 C53 1_555 1_555
H31 C54 1_555 1_555
C55 C54 1_555 1_555
H32 C55 1_555 1_555
C56 C51 1_555 1_555
H33 C56 1_555 1_555
C57 C51 1_555 1_555
C58 O23 1_555 1_555
Y2A O15 1_555 1_555
Y2_2 O16 1_555 1_555
Y2A_2 O21 1_555 1_555
Y2_3 O22 1_555 1_555
Y3_2 O5 1_555 1_555
Y3A O7 1_555 1_555
Y3_3 O12 1_555 1_555
Cu1A O8 1_555 1_555
Cu1_2 O11 1_555 1_555
O5_2 Y3 1_555 1_555
O7A Y3 1_555 1_555
O8A Y3 1_555 1_555
O10_2 Y3 1_555 1_555
O11_2 Cu1 1_555 1_555
O12_2 Y3 1_555 1_555
O13_2 Y3 1_555 1_555
O15A Y2 1_555 1_555
O16_2 Y2 1_555 1_555
O21A Y2 1_555 1_555
O22_2 Y2 1_555 1_555
Y2 O24 1_555 1_555
Cu1 O8A 1_555 1_555
O8 Y3A 1_555 1_555
O10 Y3_2 1_555 1_555
O13 Y3_2 1_555 1_555
O20 C50 1_555 1_555
O24 C58 1_555 1_555
C4 C5 1_555 1_555
C5 C6 1_555 1_555
C9 C10 1_555 1_555
C13 C18 1_555 1_555
C15 C16 1_555 1_555
C19 C25 1_555 1_555
C23 C24 1_555 1_555
C31 C32 1_555 1_555
C31 C34 1_555 1_555
C35 C41 1_555 1_555
C39 C40 1_555 1_555
C43 C49 1_555 1_555
C47 C48 1_555 1_555
C47 C50 1_555 1_555
C53 C58 1_555 1_555
C55 C56 1_555 1_555

#END
