
#######################################################################
#
#                 Cambridge Crystallographic Data Centre
#                                CCDC 
#
#######################################################################
#
# If this CIF has been generated from an entry in the Cambridge 
# Structural Database, then it will include bibliographic, chemical, 
# crystal, experimental, refinement or atomic coordinate data resulting 
# from the CCDC's data processing and validation procedures.
#
#######################################################################

data_WICTIM
_symmetry_cell_setting           triclinic
_symmetry_space_group_name_H-M   'P -1'
_symmetry_Int_Tables_number      2
_space_group_name_Hall           '-P 1'
loop_
_symmetry_equiv_pos_site_id
_symmetry_equiv_pos_as_xyz
1 x,y,z
2 -x,-y,-z
_cell_length_a                   10.5478(5)
_cell_length_b                   12.5171(5)
_cell_length_c                   23.5260(10)
_cell_angle_alpha                95.6350(10)
_cell_angle_beta                 100.8520(10)
_cell_angle_gamma                111.8670(10)
_cell_volume                     2782.37
loop_
_atom_site_label
_atom_site_type_symbol
_atom_site_fract_x
_atom_site_fract_y
_atom_site_fract_z
Eu1 Eu 0.173478(18) 0.116053(16) 0.847619(8)
Eu2 Eu 0.043983(18) 0.607711(16) 0.573487(8)
Eu3 Eu 0.021510(18) -0.190100(16) 0.711860(8)
Cu1 Cu -0.03885(5) -0.31814(4) 1.06055(2)
O1 O -0.1067(3) -0.2101(2) 0.78603(12)
O2 O 0.0315(3) -0.0650(2) 0.86035(12)
O3 O -0.1148(3) -0.1641(2) 1.05581(11)
O4 O -0.3115(3) -0.1400(2) 1.05361(11)
O5 O -0.0253(3) 0.1517(3) 0.82045(12)
O6 O -0.1309(3) 0.2206(3) 0.87905(12)
O7 O -0.6502(3) 0.0601(3) 0.82943(14)
O8 O -0.7671(3) -0.1232(3) 0.78232(12)
O9 O 0.2856(3) 0.3199(2) 0.87596(11)
O10 O 0.1339(3) 0.4025(2) 0.88485(12)
O11 O 0.0200(3) 0.6305(3) 0.74632(13)
O12 O 0.1312(3) 0.6752(2) 0.67712(11)
O13 O 0.0391(3) 0.0012(2) 0.73321(12)
O14 O 0.1857(3) 0.1867(2) 0.75433(12)
O15 O 0.0429(3) 0.4431(2) 0.61884(12)
O16 O 0.0031(3) 0.3780(2) 0.52438(11)
O17 O -0.0888(3) 0.7156(2) 0.60633(12)
O18 O -0.2284(3) 0.7414(3) 0.65860(13)
O19 O -0.7472(3) 0.6029(2) 0.55381(12)
O20 O -0.8064(2) 0.5208(2) 0.45901(12)
O21 O 0.1904(3) 0.8064(2) 0.58568(12)
O22 O 0.1852(3) 0.9218(2) 0.66303(12)
O23 O 0.5759(5) 1.3166(4) 0.7371(3)
O24 O 0.7544(6) 1.3663(5) 0.6962(3)
H1 H 0.7816 1.3355 0.6714
N1 N 0.0713(3) -0.2763(3) 0.99952(15)
N2 N -0.1726(4) -0.4415(3) 0.99183(16)
C1 C -0.1951(4) -0.1845(3) 0.86994(17)
C2 C -0.1594(4) -0.1584(3) 0.93093(16)
H2 H -0.0652 -0.1234 0.9514
C3 C -0.2645(4) -0.1845(3) 0.96154(17)
C4 C -0.4039(4) -0.2336(4) 0.93090(19)
H3 H -0.4743 -0.2478 0.9513
C5 C -0.4400(4) -0.2619(4) 0.86976(19)
H4 H -0.5342 -0.2956 0.8493
C6 C -0.3355(4) -0.2398(4) 0.83949(19)
H5 H -0.3592 -0.2620 0.7987
C7 C -0.0827(4) -0.1512(3) 0.83622(17)
C8 C -0.2287(4) -0.1622(3) 1.02723(17)
C9 C -0.2724(4) 0.0648(3) 0.79972(17)
C10 C -0.3963(4) 0.0589(4) 0.81497(18)
H6 H -0.3929 0.1138 0.8455
C11 C -0.5243(4) -0.0292(3) 0.78442(17)
C12 C -0.5301(4) -0.1116(4) 0.73922(17)
H7 H -0.6157 -0.1723 0.7200
C13 C -0.4083(4) -0.1036(4) 0.72270(19)
H8 H -0.4124 -0.1573 0.6914
C14 C -0.2809(4) -0.0163(4) 0.75264(18)
H9 H -0.1994 -0.0113 0.7413
C15 C -0.1336(4) 0.1521(4) 0.83508(17)
C16 C -0.6559(4) -0.0307(4) 0.79963(17)
C17 C 0.2585(4) 0.4488(3) 0.81155(16)
C18 C 0.1773(4) 0.5074(3) 0.78958(17)
H10 H 0.1047 0.5085 0.8065
C19 C 0.2025(4) 0.5639(3) 0.74316(17)
C20 C 0.3113(4) 0.5625(3) 0.71749(18)
H11 H 0.3289 0.6004 0.6860
C21 C 0.3922(4) 0.5039(4) 0.73947(19)
H12 H 0.4652 0.5031 0.7228
C22 C 0.3663(4) 0.4469(4) 0.78565(18)
H13 H 0.4207 0.4069 0.7997
C23 C 0.2245(4) 0.3857(3) 0.86075(17)
C24 C 0.1112(4) 0.6245(3) 0.72084(17)
C25 C 0.0346(4) 0.1176(3) 0.65785(17)
C26 C 0.0548(4) 0.2294(3) 0.64656(17)
H14 H 0.1016 0.2942 0.6769
C27 C 0.0050(4) 0.2440(3) 0.59022(16)
C28 C -0.0652(4) 0.1468(4) 0.54523(18)
H15 H -0.0983 0.1566 0.5074
C29 C -0.0859(5) 0.0376(4) 0.5560(2)
H16 H -0.1323 -0.0270 0.5256
C30 C -0.0379(4) 0.0226(4) 0.61252(19)
H17 H -0.0547 -0.0525 0.6199
C31 C 0.0919(4) 0.1026(3) 0.71853(17)
C32 C 0.0180(4) 0.3621(3) 0.57769(16)
C33 C -0.3202(4) 0.6880(3) 0.55415(17)
C34 C -0.4608(4) 0.6538(3) 0.55655(17)
H18 H -0.4846 0.6517 0.5927
C35 C -0.5640(4) 0.6234(3) 0.50528(17)
C36 C -0.5275(4) 0.6304(4) 0.45173(18)
H19 H -0.5974 0.6095 0.4171
C37 C -0.3882(4) 0.6680(4) 0.44955(19)
H20 H -0.3639 0.6755 0.4137
C38 C -0.2851(4) 0.6946(4) 0.50082(18)
H21 H -0.1914 0.7171 0.4993
C39 C -0.2092(4) 0.7143(3) 0.60954(18)
C40 C -0.7173(4) 0.5795(3) 0.50646(17)
C41 C 0.3784(4) 0.9926(4) 0.62040(18)
C42 C 0.4403(4) 1.0993(4) 0.6591(2)
H22 H 0.3930 1.1168 0.6859
C43 C 0.5706(5) 1.1793(4) 0.6582(2)
C44 C 0.6438(6) 1.1539(6) 0.6202(3)
H23 H 0.7335 1.2073 0.6209
C45 C 0.5830(5) 1.0479(6) 0.5808(3)
H24 H 0.6315 1.0312 0.5545
C46 C 0.4505(5) 0.9671(5) 0.5806(2)
H25 H 0.4100 0.8963 0.5542
C47 C 0.2413(4) 0.9008(3) 0.62306(17)
C48 C 0.6347(7) 1.2931(5) 0.7011(3)
C49 C 0.1901(5) -0.1835(4) 1.0064(2)
H26 H 0.2317 -0.1353 1.0432
C50 C 0.2548(6) -0.1557(5) 0.9608(3)
H27 H 0.3381 -0.0897 0.9667
C51 C 0.1927(7) -0.2282(6) 0.9064(3)
H28 H 0.2344 -0.2121 0.8750
C52 C 0.0683(6) -0.3247(5) 0.8990(2)
H29 H 0.0251 -0.3741 0.8625
C53 C 0.0093(5) -0.3470(4) 0.94597(19)
C54 C -0.1250(5) -0.4441(4) 0.94289(19)
C55 C -0.2038(6) -0.5329(5) 0.8943(2)
H30 H -0.1690 -0.5359 0.8609
C56 C -0.3319(7) -0.6160(5) 0.8950(3)
H31 H -0.3859 -0.6734 0.8619
C57 C -0.3790(6) -0.6135(5) 0.9447(3)
H32 H -0.4651 -0.6698 0.9465
C58 C -0.2970(5) -0.5260(5) 0.9927(2)
H33 H -0.3287 -0.5252 1.0270
Eu1A Eu -0.173478(18) -0.116053(16) 1.152381(8)
Eu1_2 Eu -0.826522(18) 0.116053(16) 0.847619(8)
Eu2A Eu -0.043983(18) 0.392289(16) 0.426513(8)
Eu2_2 Eu -0.956017(18) 0.607711(16) 0.573487(8)
Eu2A_2 Eu -1.043983(18) 0.392289(16) 0.426513(8)
Eu3_2 Eu -0.978490(18) -0.190100(16) 0.711860(8)
Eu3_3 Eu 0.021510(18) 0.809900(16) 0.711860(8)
Cu1A Cu 0.03885(5) 0.31814(4) 0.93945(2)
O3A O 0.1148(3) 0.1641(2) 0.94419(11)
O4A O 0.3115(3) 0.1400(2) 0.94639(11)
O6A O 0.1309(3) -0.2206(3) 1.12095(12)
O7_2 O 0.3498(3) 0.0601(3) 0.82943(14)
O8_2 O 0.2329(3) -0.1232(3) 0.78232(12)
O10A O -0.1339(3) -0.4025(2) 1.11515(12)
O11_2 O 0.0200(3) -0.3695(3) 0.74632(13)
O12_2 O 0.1312(3) -0.3248(2) 0.67712(11)
O16A O -0.0031(3) 0.6220(2) 0.47562(11)
O17_2 O -0.0888(3) -0.2844(2) 0.60633(12)
O18_2 O -0.2284(3) -0.2586(3) 0.65860(13)
O19_2 O 0.2528(3) 0.6029(2) 0.55381(12)
O20A O -0.1936(2) 0.4792(2) 0.54099(12)
O22_2 O 0.1852(3) -0.0782(2) 0.66303(12)
O25 O 0.7498(6) 0.5453(5) 0.7707(3)
loop_
_geom_bond_atom_site_label_1
_geom_bond_atom_site_label_2
_geom_bond_site_symmetry_1
_geom_bond_site_symmetry_2
Eu1 O2 1_555 1_555
Eu2 O12 1_555 1_555
Eu3 O1 1_555 1_555
Cu1 O3 1_555 1_555
O1 C7 1_555 1_555
O2 C7 1_555 1_555
O3 C8 1_555 1_555
O4 C8 1_555 1_555
O5 Eu1 1_555 1_555
O6 C15 1_555 1_555
O7 C16 1_555 1_555
O8 C16 1_555 1_555
O9 Eu1 1_555 1_555
O10 C23 1_555 1_555
O11 C24 1_555 1_555
O12 C24 1_555 1_555
O13 Eu3 1_555 1_555
O14 Eu1 1_555 1_555
O15 Eu2 1_555 1_555
O16 C32 1_555 1_555
O17 Eu2 1_555 1_555
O18 C39 1_555 1_555
O19 C40 1_555 1_555
O20 C40 1_555 1_555
O21 Eu2 1_555 1_555
O22 C47 1_555 1_555
O23 C48 1_555 1_555
O24 H1 1_555 1_555
N1 Cu1 1_555 1_555
N2 Cu1 1_555 1_555
C1 C2 1_555 1_555
C2 H2 1_555 1_555
C3 C2 1_555 1_555
C4 C3 1_555 1_555
H3 C4 1_555 1_555
C5 C4 1_555 1_555
H4 C5 1_555 1_555
C6 C1 1_555 1_555
H5 C6 1_555 1_555
C7 C1 1_555 1_555
C8 C3 1_555 1_555
C9 C10 1_555 1_555
C10 H6 1_555 1_555
C11 C10 1_555 1_555
C12 C11 1_555 1_555
H7 C12 1_555 1_555
C13 C12 1_555 1_555
H8 C13 1_555 1_555
C14 C9 1_555 1_555
H9 C14 1_555 1_555
C15 O5 1_555 1_555
C16 C11 1_555 1_555
C17 C18 1_555 1_555
C18 H10 1_555 1_555
C19 C18 1_555 1_555
C20 C19 1_555 1_555
H11 C20 1_555 1_555
C21 C20 1_555 1_555
H12 C21 1_555 1_555
C22 C17 1_555 1_555
H13 C22 1_555 1_555
C23 O9 1_555 1_555
C24 C19 1_555 1_555
C25 C26 1_555 1_555
C26 H14 1_555 1_555
C27 C26 1_555 1_555
C28 C27 1_555 1_555
H15 C28 1_555 1_555
C29 C28 1_555 1_555
H16 C29 1_555 1_555
C30 C25 1_555 1_555
H17 C30 1_555 1_555
C31 O13 1_555 1_555
C32 O15 1_555 1_555
C33 C34 1_555 1_555
C34 H18 1_555 1_555
C35 C34 1_555 1_555
C36 C35 1_555 1_555
H19 C36 1_555 1_555
C37 C36 1_555 1_555
H20 C37 1_555 1_555
C38 C33 1_555 1_555
H21 C38 1_555 1_555
C39 O17 1_555 1_555
C40 C35 1_555 1_555
C41 C42 1_555 1_555
C42 H22 1_555 1_555
C43 C42 1_555 1_555
C44 C43 1_555 1_555
H23 C44 1_555 1_555
C45 C44 1_555 1_555
H24 C45 1_555 1_555
C46 C41 1_555 1_555
H25 C46 1_555 1_555
C47 O21 1_555 1_555
C48 O24 1_555 1_555
C49 N1 1_555 1_555
H26 C49 1_555 1_555
C50 C49 1_555 1_555
H27 C50 1_555 1_555
C51 C50 1_555 1_555
H28 C51 1_555 1_555
C52 C51 1_555 1_555
H29 C52 1_555 1_555
C53 N1 1_555 1_555
C54 N2 1_555 1_555
C55 C54 1_555 1_555
H30 C55 1_555 1_555
C56 C55 1_555 1_555
H31 C56 1_555 1_555
C57 C56 1_555 1_555
H32 C57 1_555 1_555
C58 N2 1_555 1_555
H33 C58 1_555 1_555
Eu1A O3 1_555 1_555
Eu1_2 O7 1_555 1_555
Eu2A O16 1_555 1_555
Eu2_2 O19 1_555 1_555
Eu2A_2 O20 1_555 1_555
Eu3_2 O8 1_555 1_555
Eu3_3 O11 1_555 1_555
Cu1A O6 1_555 1_555
O3A Eu1 1_555 1_555
O4A Eu1 1_555 1_555
O6A Cu1 1_555 1_555
O7_2 Eu1 1_555 1_555
O8_2 Eu3 1_555 1_555
O10A Cu1 1_555 1_555
O11_2 Eu3 1_555 1_555
O12_2 Eu3 1_555 1_555
O16A Eu2 1_555 1_555
O17_2 Eu3 1_555 1_555
O18_2 Eu3 1_555 1_555
O19_2 Eu2 1_555 1_555
O20A Eu2 1_555 1_555
O22_2 Eu3 1_555 1_555
O4 Eu1A 1_555 1_555
O10 Cu1A 1_555 1_555
O12 Eu3_3 1_555 1_555
O14 C31 1_555 1_555
O17 Eu3_3 1_555 1_555
O18 Eu3_3 1_555 1_555
O22 Eu3_3 1_555 1_555
C5 C6 1_555 1_555
C9 C15 1_555 1_555
C13 C14 1_555 1_555
C17 C23 1_555 1_555
C21 C22 1_555 1_555
C25 C31 1_555 1_555
C27 C32 1_555 1_555
C29 C30 1_555 1_555
C33 C39 1_555 1_555
C37 C38 1_555 1_555
C41 C47 1_555 1_555
C43 C48 1_555 1_555
C45 C46 1_555 1_555
C52 C53 1_555 1_555
C53 C54 1_555 1_555
C57 C58 1_555 1_555
Cu1A O3A 1_555 1_555

#END
