
#######################################################################
#
#                 Cambridge Crystallographic Data Centre
#                                CCDC 
#
#######################################################################
#
# If this CIF has been generated from an entry in the Cambridge 
# Structural Database, then it will include bibliographic, chemical, 
# crystal, experimental, refinement or atomic coordinate data resulting 
# from the CCDC's data processing and validation procedures.
#
#######################################################################

data_WICVAG
_symmetry_cell_setting           rhombohedral
_symmetry_space_group_name_H-M   'R -3 c'
_symmetry_Int_Tables_number      167
_space_group_name_Hall           '-R 3 2"c'
loop_
_symmetry_equiv_pos_site_id
_symmetry_equiv_pos_as_xyz
1 x,y,z
2 -y,x-y,z
3 -x+y,-x,z
4 y,x,1/2-z
5 2/3+x,1/3+y,1/3+z
6 2/3-y,1/3+x-y,1/3+z
7 2/3-x+y,1/3-x,1/3+z
8 2/3+y,1/3+x,5/6-z
9 1/3+x,2/3+y,2/3+z
10 1/3+y,2/3+x,1/6-z
11 x-y,-y,1/2-z
12 -x,-x+y,1/2-z
13 1/3-y,2/3+x-y,2/3+z
14 1/3-x+y,2/3-x,2/3+z
15 1/3+x-y,2/3-y,1/6-z
16 1/3-x,2/3-x+y,1/6-z
17 2/3+x-y,1/3-y,5/6-z
18 2/3-x,1/3-x+y,5/6-z
19 -x,-y,-z
20 y,-x+y,-z
21 x-y,x,-z
22 -y,-x,1/2+z
23 1/3-x,2/3-y,2/3-z
24 1/3+y,2/3-x+y,2/3-z
25 1/3+x-y,2/3+x,2/3-z
26 1/3-y,2/3-x,1/6+z
27 2/3-x,1/3-y,1/3-z
28 2/3-y,1/3-x,5/6+z
29 -x+y,y,1/2+z
30 x,x-y,1/2+z
31 2/3+y,1/3-x+y,1/3-z
32 2/3+x-y,1/3+x,1/3-z
33 2/3-x+y,1/3+y,5/6+z
34 2/3+x,1/3+x-y,5/6+z
35 1/3-x+y,2/3+y,1/6+z
36 1/3+x,2/3+x-y,1/6+z
_cell_length_a                   13.1335(9)
_cell_length_b                   13.1335(9)
_cell_length_c                   46.919(6)
_cell_angle_alpha                90
_cell_angle_beta                 90
_cell_angle_gamma                120.00
_cell_volume                     7008.75
loop_
_atom_site_label
_atom_site_type_symbol
_atom_site_fract_x
_atom_site_fract_y
_atom_site_fract_z
Gd1 Gd 0.6667 0.3333 -0.006674(5)
Cu1 Cu 0.5000 0.0000 0.0000
O1 O 0.47899(19) 0.13773(19) 0.00192(4)
O2 O 0.5070(2) 0.2870(2) 0.02789(5)
O3 O 0.3179(2) 0.1538(2) 0.12599(5)
O4 O 0.1355(2) 0.00119(19) 0.12777(4)
C1 C 0.3380(3) 0.1027(3) 0.03877(6)
C2 C 0.3301(3) 0.1291(3) 0.06720(6)
H1 H 0.3903 0.1972 0.0754
C3 C 0.2324(3) 0.0536(3) 0.08320(6)
C4 C 0.1407(3) -0.0446(3) 0.07041(7)
H2 H 0.0738 -0.0940 0.0809
C5 C 0.1483(3) -0.0693(4) 0.04210(8)
H3 H 0.0864 -0.1351 0.0336
C6 C 0.2465(3) 0.0028(3) 0.02653(7)
H4 H 0.2519 -0.0154 0.0076
C7 C 0.4472(3) 0.1806(3) 0.02246(6)
C8 C 0.2268(3) 0.0713(3) 0.11455(6)
Gd1FA Gd 0.3333 0.6666 -0.173341(5)
Gd1HA Gd -0.0001 -0.0000 0.159993(5)
Gd1HA_2 Gd 0.9999 -0.0000 0.159993(5)
Gd1HA_3 Gd 0.9999 1.0000 0.159993(5)
Gd1FA_2 Gd 1.3333 0.6666 -0.173341(5)
Gd1FA_3 Gd 0.3333 -0.3334 -0.173341(5)
Cu1A Cu 1.0000 0.5000 0.0000
Cu1B Cu 0.5000 0.5000 0.0000
Cu1I Cu 0.3333 0.1667 0.1667
Cu1IA Cu 0.8333 0.1667 0.1667
Cu1HA Cu 0.8333 0.6667 0.1667
Cu1FA Cu 0.1667 0.3333 -0.1667
Cu1GA Cu 1.1667 0.8333 -0.1667
Cu1G Cu 0.6667 -0.1667 -0.1667
O1A O 0.86227(19) 0.34126(27) 0.00192(4)
O1B O 0.65874(27) 0.52101(19) 0.00192(4)
O1FA O 0.32541(27) 0.47106(19) -0.16475(4)
O1GA O 1.14566(19) 0.67459(27) -0.16475(4)
O1AA O 0.52894(19) -0.14566(19) -0.16475(4)
O1R O 0.52101(19) -0.13773(19) -0.00192(4)
O1S O 1.13773(19) 0.65874(27) -0.00192(4)
O1T O 0.34126(27) 0.47899(19) -0.00192(4)
O1Y O 0.19560(19) 0.18768(19) 0.16859(4)
O1HA O -0.00793(27) -0.19560(19) 0.16859(4)
O1IA O -0.18768(19) 0.00793(27) 0.16859(4)
O2A O 0.7130(2) 0.2200(3) 0.02789(5)
O2B O 0.7800(3) 0.4930(2) 0.02789(5)
O2FA O 0.4467(3) 0.6203(2) -0.13878(5)
O2GA O 1.1737(2) 0.5533(3) -0.13878(5)
O2AA O 0.3797(2) -0.1737(2) -0.13878(5)
O2HA O 0.1133(3) -0.0463(2) 0.19456(5)
O2IA O -0.1597(2) -0.1133(3) 0.19456(5)
O2Y O 0.0463(2) 0.1597(2) 0.19456(5)
O3A O 0.8462(2) 0.1641(3) 0.12599(5)
O3B O 0.8359(3) 0.6821(2) 0.12599(5)
O3FA O 0.5026(3) 0.4871(2) -0.04068(5)
O3GA O 0.9846(2) 0.4974(3) -0.04068(5)
O3AA O 0.5129(2) 0.0154(2) -0.04068(5)
O3I O 0.4871(2) -0.0154(2) 0.04068(5)
O3O O 1.0154(2) 0.5026(3) 0.04068(5)
O3N O 0.4974(3) 0.5129(2) 0.04068(5)
O4A O 0.99881(19) 0.13431(28) 0.12777(4)
O4B O 0.86569(28) 0.8645(2) 0.12777(4)
O4FA O 0.53236(28) 0.33452(19) -0.03890(4)
O4GA O 0.8022(2) 0.46764(28) -0.03890(4)
O4AA O 0.66548(19) 0.1978(2) -0.03890(4)
O4A_2 O -0.00119(19) 0.13431(28) 0.12777(4)
O4B_2 O -0.13431(28) -0.1355(2) 0.12777(4)
C1A C 0.8973(3) 0.2353(4) 0.03877(6)
C1B C 0.7647(4) 0.6620(3) 0.03877(6)
C1FA C 0.4314(4) 0.4360(3) -0.12790(6)
C1GA C 1.0047(3) 0.5686(4) -0.12790(6)
C1AA C 0.5640(3) -0.0047(3) -0.12790(6)
C2A C 0.8709(3) 0.2010(4) 0.06720(6)
C2B C 0.7990(4) 0.6699(3) 0.06720(6)
C2FA C 0.4657(4) 0.4624(3) -0.09947(6)
C2GA C 0.9968(3) 0.5343(4) -0.09947(6)
C2AA C 0.5376(3) 0.0032(3) -0.09947(6)
H1A H 0.8028 0.1931 0.0754
H1B H 0.8069 0.6097 0.0754
H1FA H 0.4736 0.5305 -0.0913
H1GA H 1.0570 0.5264 -0.0913
H1AA H 0.4695 -0.0570 -0.0913
C3A C 0.9464(3) 0.1788(4) 0.08320(6)
C3B C 0.8212(4) 0.7676(3) 0.08320(6)
C3FA C 0.4879(4) 0.3869(3) -0.08347(6)
C3GA C 0.8991(3) 0.5121(4) -0.08347(6)
C3AA C 0.6131(3) 0.1009(3) -0.08347(6)
C4A C 1.0446(3) 0.1853(4) 0.07041(7)
C4B C 0.8147(4) 0.8593(3) 0.07041(7)
C4FA C 0.4814(4) 0.2887(3) -0.09626(7)
C4GA C 0.8074(3) 0.5186(4) -0.09626(7)
C4AA C 0.7113(3) 0.1926(3) -0.09626(7)
H2A H 1.0940 0.1678 0.0809
H2B H 0.8322 0.9262 0.0809
H2FA H 0.4989 0.2393 -0.0858
H2GA H 0.7405 0.5011 -0.0858
H2AA H 0.7607 0.2595 -0.0858
C5A C 1.0693(4) 0.2176(5) 0.04210(8)
C5B C 0.7824(5) 0.8517(3) 0.04210(8)
C5FA C 0.4491(5) 0.2640(4) -0.12457(8)
C5GA C 0.8150(3) 0.5509(5) -0.12457(8)
C5AA C 0.7360(4) 0.1850(3) -0.12457(8)
H3A H 1.1351 0.2215 0.0336
H3B H 0.7785 0.9136 0.0336
H3FA H 0.4452 0.1982 -0.1331
H3GA H 0.7531 0.5548 -0.1331
H3AA H 0.8018 0.2469 -0.1331
C6A C 0.9972(3) 0.2437(4) 0.02653(7)
C6B C 0.7563(4) 0.7535(3) 0.02653(7)
C6FA C 0.4230(4) 0.3361(3) -0.14014(7)
C6GA C 0.9132(3) 0.5770(4) -0.14014(7)
C6AA C 0.6639(3) 0.0868(3) -0.14014(7)
H4A H 1.0154 0.2673 0.0076
H4B H 0.7327 0.7481 0.0076
H4FA H 0.3994 0.3179 -0.1591
H4GA H 0.9186 0.6006 -0.1591
H4AA H 0.6821 0.0814 -0.1591
C7A C 0.8194(3) 0.2666(4) 0.02246(6)
C7B C 0.7334(4) 0.5528(3) 0.02246(6)
C7FA C 0.4001(4) 0.5139(3) -0.14421(6)
C7GA C 1.1139(3) 0.5999(4) -0.14421(6)
C7AA C 0.4861(3) -0.1139(3) -0.14421(6)
C8A C 0.9287(3) 0.1555(4) 0.11455(6)
C8B C 0.8445(4) 0.7732(3) 0.11455(6)
C8FA C 0.5112(4) 0.4046(3) -0.05212(6)
C8GA C 0.8935(3) 0.4888(4) -0.05212(6)
C8AA C 0.5954(3) 0.1065(3) -0.05212(6)
loop_
_geom_bond_atom_site_label_1
_geom_bond_atom_site_label_2
_geom_bond_site_symmetry_1
_geom_bond_site_symmetry_2
Gd1 O1 1_555 1_555
Cu1 O1 1_555 1_555
O1 C7 1_555 1_555
O2 Gd1 1_555 1_555
O3 C8 1_555 1_555
O4 C8 1_555 1_555
C1 C2 1_555 1_555
C2 H1 1_555 1_555
C3 C2 1_555 1_555
C4 C3 1_555 1_555
H2 C4 1_555 1_555
C5 C4 1_555 1_555
H3 C5 1_555 1_555
C6 C1 1_555 1_555
H4 C6 1_555 1_555
C7 O2 1_555 1_555
C8 C3 1_555 1_555
Gd1FA O1FA 1_555 1_555
Gd1HA O4 1_555 1_555
Gd1HA_2 O4A 1_555 1_555
Gd1HA_3 O4B 1_555 1_555
Gd1FA_2 O1GA 1_555 1_555
Gd1FA_3 O1AA 1_555 1_555
Cu1A O1A 1_555 1_555
Cu1B O1B 1_555 1_555
Cu1I O3 1_555 1_555
Cu1IA O3A 1_555 1_555
Cu1HA O3B 1_555 1_555
Cu1FA O1FA 1_555 1_555
Cu1GA O1GA 1_555 1_555
Cu1G O1AA 1_555 1_555
O1A Gd1 1_555 1_555
O1B Gd1 1_555 1_555
O1FA C7FA 1_555 1_555
O1GA C7GA 1_555 1_555
O1AA C7AA 1_555 1_555
O1R Cu1 1_555 1_555
O1S Cu1A 1_555 1_555
O1T Cu1B 1_555 1_555
O1Y Gd1HA 1_555 1_555
O1HA Gd1HA 1_555 1_555
O1IA Gd1HA 1_555 1_555
O2A Gd1 1_555 1_555
O2B Gd1 1_555 1_555
O2FA Gd1FA 1_555 1_555
O2GA Gd1FA_2 1_555 1_555
O2AA Gd1FA_3 1_555 1_555
O2HA Gd1HA 1_555 1_555
O2IA Gd1HA 1_555 1_555
O2Y Gd1HA 1_555 1_555
O3A C8A 1_555 1_555
O3B C8B 1_555 1_555
O3FA Cu1B 1_555 1_555
O3GA Cu1A 1_555 1_555
O3AA Cu1 1_555 1_555
O3I Cu1 1_555 1_555
O3O Cu1A 1_555 1_555
O3N Cu1B 1_555 1_555
O4A C8A 1_555 1_555
O4B C8B 1_555 1_555
O4FA Gd1 1_555 1_555
O4GA Gd1 1_555 1_555
O4AA Gd1 1_555 1_555
O4A_2 Gd1HA 1_555 1_555
O4B_2 Gd1HA 1_555 1_555
C1A C2A 1_555 1_555
C1B C2B 1_555 1_555
C1FA C2FA 1_555 1_555
C1GA C2GA 1_555 1_555
C1AA C2AA 1_555 1_555
C2A H1A 1_555 1_555
C2B H1B 1_555 1_555
C2FA H1FA 1_555 1_555
C2GA H1GA 1_555 1_555
C2AA H1AA 1_555 1_555
C3A C2A 1_555 1_555
C3B C2B 1_555 1_555
C3FA C2FA 1_555 1_555
C3GA C2GA 1_555 1_555
C3AA C2AA 1_555 1_555
C4A C3A 1_555 1_555
C4B C3B 1_555 1_555
C4FA C3FA 1_555 1_555
C4GA C3GA 1_555 1_555
C4AA C3AA 1_555 1_555
H2A C4A 1_555 1_555
H2B C4B 1_555 1_555
H2FA C4FA 1_555 1_555
H2GA C4GA 1_555 1_555
H2AA C4AA 1_555 1_555
C5A C4A 1_555 1_555
C5B C4B 1_555 1_555
C5FA C4FA 1_555 1_555
C5GA C4GA 1_555 1_555
C5AA C4AA 1_555 1_555
H3A C5A 1_555 1_555
H3B C5B 1_555 1_555
H3FA C5FA 1_555 1_555
H3GA C5GA 1_555 1_555
H3AA C5AA 1_555 1_555
C6A C1A 1_555 1_555
C6B C1B 1_555 1_555
C6FA C1FA 1_555 1_555
C6GA C1GA 1_555 1_555
C6AA C1AA 1_555 1_555
H4A C6A 1_555 1_555
H4B C6B 1_555 1_555
H4FA C6FA 1_555 1_555
H4GA C6GA 1_555 1_555
H4AA C6AA 1_555 1_555
C7A O1A 1_555 1_555
C7B O1B 1_555 1_555
C7FA O2FA 1_555 1_555
C7GA O2GA 1_555 1_555
C7AA O2AA 1_555 1_555
C8A C3A 1_555 1_555
C8B C3B 1_555 1_555
C8FA O3FA 1_555 1_555
C8GA O3GA 1_555 1_555
C8AA O3AA 1_555 1_555
C1 C7 1_555 1_555
C5 C6 1_555 1_555
Cu1I O1Y 1_555 1_555
O2A C7A 1_555 1_555
O2B C7B 1_555 1_555
O4FA C8FA 1_555 1_555
O4GA C8GA 1_555 1_555
O4AA C8AA 1_555 1_555
C1A C7A 1_555 1_555
C1B C7B 1_555 1_555
C1FA C7FA 1_555 1_555
C1GA C7GA 1_555 1_555
C1AA C7AA 1_555 1_555
C3FA C8FA 1_555 1_555
C3GA C8GA 1_555 1_555
C3AA C8AA 1_555 1_555
C5A C6A 1_555 1_555
C5B C6B 1_555 1_555
C5FA C6FA 1_555 1_555
C5GA C6GA 1_555 1_555
C5AA C6AA 1_555 1_555

#END
