
#######################################################################
#
#                 Cambridge Crystallographic Data Centre
#                                CCDC 
#
#######################################################################
#
# If this CIF has been generated from an entry in the Cambridge 
# Structural Database, then it will include bibliographic, chemical, 
# crystal, experimental, refinement or atomic coordinate data resulting 
# from the CCDC's data processing and validation procedures.
#
#######################################################################

data_WICVEK
_symmetry_cell_setting           rhombohedral
_symmetry_space_group_name_H-M   'R -3 c'
_symmetry_Int_Tables_number      167
_space_group_name_Hall           '-R 3 2"c'
loop_
_symmetry_equiv_pos_site_id
_symmetry_equiv_pos_as_xyz
1 x,y,z
2 -y,x-y,z
3 -x+y,-x,z
4 y,x,1/2-z
5 2/3+x,1/3+y,1/3+z
6 2/3-y,1/3+x-y,1/3+z
7 2/3-x+y,1/3-x,1/3+z
8 2/3+y,1/3+x,5/6-z
9 1/3+x,2/3+y,2/3+z
10 1/3+y,2/3+x,1/6-z
11 x-y,-y,1/2-z
12 -x,-x+y,1/2-z
13 1/3-y,2/3+x-y,2/3+z
14 1/3-x+y,2/3-x,2/3+z
15 1/3+x-y,2/3-y,1/6-z
16 1/3-x,2/3-x+y,1/6-z
17 2/3+x-y,1/3-y,5/6-z
18 2/3-x,1/3-x+y,5/6-z
19 -x,-y,-z
20 y,-x+y,-z
21 x-y,x,-z
22 -y,-x,1/2+z
23 1/3-x,2/3-y,2/3-z
24 1/3+y,2/3-x+y,2/3-z
25 1/3+x-y,2/3+x,2/3-z
26 1/3-y,2/3-x,1/6+z
27 2/3-x,1/3-y,1/3-z
28 2/3-y,1/3-x,5/6+z
29 -x+y,y,1/2+z
30 x,x-y,1/2+z
31 2/3+y,1/3-x+y,1/3-z
32 2/3+x-y,1/3+x,1/3-z
33 2/3-x+y,1/3+y,5/6+z
34 2/3+x,1/3+x-y,5/6+z
35 1/3-x+y,2/3+y,1/6+z
36 1/3+x,2/3+x-y,1/6+z
_cell_length_a                   13.1118(11)
_cell_length_b                   13.1118(11)
_cell_length_c                   46.936(8)
_cell_angle_alpha                90
_cell_angle_beta                 90
_cell_angle_gamma                120.00
_cell_volume                     6988.14
loop_
_atom_site_label
_atom_site_type_symbol
_atom_site_fract_x
_atom_site_fract_y
_atom_site_fract_z
Eu1 Eu 0.3333 0.6667 0.006713(6)
Cu1 Cu 0.5000 1.0000 0.0000
O1 O 0.3345(2) 0.8024(2) 0.03886(5)
O2 O 0.4875(2) 0.9850(3) 0.04067(6)
O3 O 0.6206(3) 1.1737(3) 0.13875(6)
O4 O 0.4711(2) 1.1452(2) 0.16486(5)
C1 C 0.3868(3) 0.8984(3) 0.08347(7)
C2 C 0.4624(4) 0.9967(3) 0.09953(8)
H1 H 0.5301 1.0573 0.0913
C3 C 0.4368(3) 1.0044(3) 0.12793(8)
C4 C 0.3359(4) 0.9128(4) 0.14021(8)
H2 H 0.3175 0.9183 0.1591
C5 C 0.2635(4) 0.8139(4) 0.12452(9)
H3 H 0.1976 0.7517 0.1330
C6 C 0.2883(4) 0.8069(4) 0.09619(9)
H4 H 0.2385 0.7402 0.0856
C7 C 0.4043(3) 0.8936(3) 0.05216(8)
C8 C 0.5137(4) 1.1131(3) 0.14429(8)
Eu1FA Eu 0.0001 0.0000 -0.159954(6)
Eu1HA Eu 0.6667 1.3334 0.173380(6)
Eu1HA_2 Eu -0.3333 0.3334 0.173380(6)
Eu1HA_3 Eu 0.6667 0.3334 0.173380(6)
Eu1FA_2 Eu 0.0001 1.0000 -0.159954(6)
Eu1FA_3 Eu 1.0001 1.0000 -0.159954(6)
Cu1A Cu 0.0000 0.5000 0.0000
Cu1B Cu 0.5000 0.5000 0.0000
Cu1I Cu 0.3333 1.1667 0.1667
Cu1IA Cu -0.1667 0.1667 0.1667
Cu1HA Cu 0.8333 0.6667 0.1667
Cu1FA Cu 0.1667 0.3333 -0.1667
Cu1GA Cu 0.1667 0.8333 -0.1667
Cu1G Cu 0.6667 0.8333 -0.1667
O1A O 0.1976(2) 0.5321(3) 0.03886(5)
O1B O 0.4679(3) 0.6655(2) 0.03886(5)
O1FA O 0.1346(3) 0.1357(2) -0.12781(5)
O1GA O 0.0012(2) 0.8654(3) -0.12781(5)
O1AA O 0.8643(2) 0.9988(2) -0.12781(5)
O1GA_2 O 0.0012(2) -0.1346(3) -0.12781(5)
O1AA_2 O -0.1357(2) -0.0012(2) -0.12781(5)
O2A O 0.0150(3) 0.5025(4) 0.04067(6)
O2B O 0.4975(4) 0.5125(2) 0.04067(6)
O2FA O 0.1642(4) 0.3183(3) -0.12600(6)
O2GA O 0.1542(2) 0.8358(4) -0.12600(6)
O2AA O 0.6817(3) 0.8458(2) -0.12600(6)
O2R O 0.5125(2) 1.0150(3) -0.04067(6)
O2S O -0.0150(3) 0.4975(4) -0.04067(6)
O2T O 0.5025(4) 0.4875(2) -0.04067(6)
O3A O -0.1737(3) 0.4469(4) 0.13875(6)
O3B O 0.5531(4) 0.3794(3) 0.13875(6)
O3FA O 0.2198(4) 0.5070(3) -0.02792(6)
O3GA O 0.2873(3) 0.7802(4) -0.02792(6)
O3AA O 0.4930(3) 0.7127(3) -0.02792(6)
O3H O -0.0461(3) -0.1596(3) -0.19458(6)
O3L O 0.1596(3) 0.1136(4) -0.19458(6)
O3M O -0.1136(4) 0.0461(3) -0.19458(6)
O4A O -0.1452(2) 0.3259(3) 0.16486(5)
O4B O 0.6741(3) 0.5289(2) 0.16486(5)
O4FA O 0.3408(3) 0.4785(2) -0.00181(5)
O4GA O 0.1378(2) 0.6592(3) -0.00181(5)
O4AA O 0.5215(2) 0.8622(2) -0.00181(5)
O4I O 0.4785(2) 1.1378(2) 0.00181(5)
O4H O -0.1956(2) -0.1881(2) -0.16847(5)
O4L O 0.1881(2) -0.0074(3) -0.16847(5)
O4M O 0.0074(3) 0.1956(2) -0.16847(5)
O4O O -0.1378(2) 0.3408(3) 0.00181(5)
O4N O 0.6592(3) 0.5215(2) 0.00181(5)
C1A C 0.1016(3) 0.4884(4) 0.08347(7)
C1B C 0.5116(4) 0.6132(3) 0.08347(7)
C1FA C 0.1783(4) 0.2317(3) -0.08320(7)
C1GA C 0.0535(3) 0.8217(4) -0.08320(7)
C1AA C 0.7683(3) 0.9465(3) -0.08320(7)
C2A C 0.0033(3) 0.4657(5) 0.09953(8)
C2B C 0.5343(5) 0.5376(4) 0.09953(8)
C2FA C 0.2010(5) 0.3300(3) -0.06714(8)
C2GA C 0.1291(4) 0.7990(5) -0.06714(8)
C2AA C 0.6700(3) 0.8709(4) -0.06714(8)
H1A H -0.0573 0.4728 0.0913
H1B H 0.5272 0.4699 0.0913
H1FA H 0.1939 0.3906 -0.0754
H1GA H 0.1968 0.8061 -0.0754
H1AA H 0.6094 0.8032 -0.0754
C3A C -0.0044(3) 0.4324(4) 0.12793(8)
C3B C 0.5676(4) 0.5632(3) 0.12793(8)
C3FA C 0.2343(4) 0.3377(3) -0.03874(8)
C3GA C 0.1035(3) 0.7657(4) -0.03874(8)
C3AA C 0.6623(3) 0.8965(3) -0.03874(8)
C4A C 0.0872(4) 0.4231(6) 0.14021(8)
C4B C 0.5769(6) 0.6641(4) 0.14021(8)
C4FA C 0.2436(6) 0.2461(4) -0.02646(8)
C4GA C 0.0026(4) 0.7564(6) -0.02646(8)
C4AA C 0.7539(4) 0.9974(4) -0.02646(8)
H2A H 0.0817 0.3992 0.1591
H2B H 0.6008 0.6825 0.1591
H2FA H 0.2675 0.2516 -0.0076
H2GA H -0.0158 0.7325 -0.0076
H2AA H 0.7484 1.0158 -0.0076
C5A C 0.1861(4) 0.4496(6) 0.12452(9)
C5B C 0.5504(6) 0.7365(4) 0.12452(9)
C5FA C 0.2171(6) 0.1472(4) -0.04215(9)
C5GA C -0.0698(4) 0.7829(6) -0.04215(9)
C5AA C 0.8528(4) 1.0698(4) -0.04215(9)
H3A H 0.2483 0.4459 0.1330
H3B H 0.5541 0.8024 0.1330
H3FA H 0.2208 0.0850 -0.0337
H3GA H -0.1357 0.7792 -0.0337
H3AA H 0.9150 1.1357 -0.0337
C6A C 0.1931(4) 0.4814(6) 0.09619(9)
C6B C 0.5186(6) 0.7117(4) 0.09619(9)
C6FA C 0.1853(6) 0.1402(4) -0.07048(9)
C6GA C -0.0450(4) 0.8147(6) -0.07048(9)
C6AA C 0.8598(4) 1.0450(4) -0.07048(9)
H4A H 0.2598 0.4983 0.0856
H4B H 0.5017 0.7615 0.0856
H4FA H 0.1684 0.0735 -0.0811
H4GA H -0.0948 0.8316 -0.0811
H4AA H 0.9265 1.0948 -0.0811
C7A C 0.1064(3) 0.5107(4) 0.05216(8)
C7B C 0.4893(4) 0.5957(3) 0.05216(8)
C7FA C 0.1560(4) 0.2269(3) -0.11451(8)
C7GA C 0.0710(3) 0.8440(4) -0.11451(8)
C7AA C 0.7731(3) 0.9290(3) -0.11451(8)
C8A C -0.1131(3) 0.4006(5) 0.14429(8)
C8B C 0.5994(5) 0.4863(4) 0.14429(8)
C8FA C 0.2661(5) 0.4464(3) -0.02238(8)
C8GA C 0.1804(4) 0.7339(5) -0.02238(8)
C8AA C 0.5536(3) 0.8196(4) -0.02238(8)
loop_
_geom_bond_atom_site_label_1
_geom_bond_atom_site_label_2
_geom_bond_site_symmetry_1
_geom_bond_site_symmetry_2
Eu1 O1 1_555 1_555
Cu1 O2 1_555 1_555
O1 C7 1_555 1_555
O2 C7 1_555 1_555
O3 C8 1_555 1_555
O4 C8 1_555 1_555
C1 C2 1_555 1_555
C2 H1 1_555 1_555
C3 C2 1_555 1_555
C4 C3 1_555 1_555
H2 C4 1_555 1_555
C5 C4 1_555 1_555
H3 C5 1_555 1_555
C6 C1 1_555 1_555
H4 C6 1_555 1_555
C7 C1 1_555 1_555
C8 C3 1_555 1_555
Eu1FA O1FA 1_555 1_555
Eu1HA O3 1_555 1_555
Eu1HA_2 O3A 1_555 1_555
Eu1HA_3 O3B 1_555 1_555
Eu1FA_2 O1GA 1_555 1_555
Eu1FA_3 O1AA 1_555 1_555
Cu1A O2A 1_555 1_555
Cu1B O2B 1_555 1_555
Cu1I O4 1_555 1_555
Cu1IA O4A 1_555 1_555
Cu1HA O4B 1_555 1_555
Cu1FA O2FA 1_555 1_555
Cu1GA O2GA 1_555 1_555
Cu1G O2AA 1_555 1_555
O1A Eu1 1_555 1_555
O1B Eu1 1_555 1_555
O1FA C7FA 1_555 1_555
O1GA C7GA 1_555 1_555
O1AA C7AA 1_555 1_555
O1GA_2 Eu1FA 1_555 1_555
O1AA_2 Eu1FA 1_555 1_555
O2A C7A 1_555 1_555
O2B C7B 1_555 1_555
O2FA C7FA 1_555 1_555
O2GA C7GA 1_555 1_555
O2AA C7AA 1_555 1_555
O2R Cu1 1_555 1_555
O2S Cu1A 1_555 1_555
O2T Cu1B 1_555 1_555
O3A C8A 1_555 1_555
O3B C8B 1_555 1_555
O3FA Eu1 1_555 1_555
O3GA Eu1 1_555 1_555
O3AA Eu1 1_555 1_555
O3H Eu1FA 1_555 1_555
O3L Eu1FA 1_555 1_555
O3M Eu1FA 1_555 1_555
O4A Eu1HA_2 1_555 1_555
O4B Eu1HA_3 1_555 1_555
O4FA Eu1 1_555 1_555
O4GA Eu1 1_555 1_555
O4AA Eu1 1_555 1_555
O4I Cu1 1_555 1_555
O4H Eu1FA 1_555 1_555
O4L Eu1FA 1_555 1_555
O4M Eu1FA 1_555 1_555
O4O Cu1A 1_555 1_555
O4N Cu1B 1_555 1_555
C1A C2A 1_555 1_555
C1B C2B 1_555 1_555
C1FA C2FA 1_555 1_555
C1GA C2GA 1_555 1_555
C1AA C2AA 1_555 1_555
C2A H1A 1_555 1_555
C2B H1B 1_555 1_555
C2FA H1FA 1_555 1_555
C2GA H1GA 1_555 1_555
C2AA H1AA 1_555 1_555
C3A C2A 1_555 1_555
C3B C2B 1_555 1_555
C3FA C2FA 1_555 1_555
C3GA C2GA 1_555 1_555
C3AA C2AA 1_555 1_555
C4A C3A 1_555 1_555
C4B C3B 1_555 1_555
C4FA C3FA 1_555 1_555
C4GA C3GA 1_555 1_555
C4AA C3AA 1_555 1_555
H2A C4A 1_555 1_555
H2B C4B 1_555 1_555
H2FA C4FA 1_555 1_555
H2GA C4GA 1_555 1_555
H2AA C4AA 1_555 1_555
C5A C4A 1_555 1_555
C5B C4B 1_555 1_555
C5FA C4FA 1_555 1_555
C5GA C4GA 1_555 1_555
C5AA C4AA 1_555 1_555
H3A C5A 1_555 1_555
H3B C5B 1_555 1_555
H3FA C5FA 1_555 1_555
H3GA C5GA 1_555 1_555
H3AA C5AA 1_555 1_555
C6A C1A 1_555 1_555
C6B C1B 1_555 1_555
C6FA C1FA 1_555 1_555
C6GA C1GA 1_555 1_555
C6AA C1AA 1_555 1_555
H4A C6A 1_555 1_555
H4B C6B 1_555 1_555
H4FA C6FA 1_555 1_555
H4GA C6GA 1_555 1_555
H4AA C6AA 1_555 1_555
C7A O1A 1_555 1_555
C7B O1B 1_555 1_555
C7FA C1FA 1_555 1_555
C7GA C1GA 1_555 1_555
C7AA C1AA 1_555 1_555
C8A O4A 1_555 1_555
C8B O4B 1_555 1_555
C8FA O3FA 1_555 1_555
C8GA O3GA 1_555 1_555
C8AA O3AA 1_555 1_555
Cu1 O4AA 1_555 1_555
O4 Eu1HA 1_555 1_555
C5 C6 1_555 1_555
Cu1A O4GA 1_555 1_555
Cu1B O4FA 1_555 1_555
Cu1FA O4M 1_555 1_555
O4FA C8FA 1_555 1_555
O4GA C8GA 1_555 1_555
O4AA C8AA 1_555 1_555
C1A C7A 1_555 1_555
C1B C7B 1_555 1_555
C3A C8A 1_555 1_555
C3B C8B 1_555 1_555
C3FA C8FA 1_555 1_555
C3GA C8GA 1_555 1_555
C3AA C8AA 1_555 1_555
C5A C6A 1_555 1_555
C5B C6B 1_555 1_555
C5FA C6FA 1_555 1_555
C5GA C6GA 1_555 1_555
C5AA C6AA 1_555 1_555

#END
