
#######################################################################
#
#                 Cambridge Crystallographic Data Centre
#                                CCDC 
#
#######################################################################
#
# If this CIF has been generated from an entry in the Cambridge 
# Structural Database, then it will include bibliographic, chemical, 
# crystal, experimental, refinement or atomic coordinate data resulting 
# from the CCDC's data processing and validation procedures.
#
#######################################################################

data_WICVOU
_symmetry_cell_setting           triclinic
_symmetry_space_group_name_H-M   'P -1'
_symmetry_Int_Tables_number      2
_space_group_name_Hall           '-P 1'
loop_
_symmetry_equiv_pos_site_id
_symmetry_equiv_pos_as_xyz
1 x,y,z
2 -x,-y,-z
_cell_length_a                   10.9774(13)
_cell_length_b                   12.8338(16)
_cell_length_c                   13.2340(16)
_cell_angle_alpha                75.135(2)
_cell_angle_beta                 80.874(2)
_cell_angle_gamma                69.436(2)
_cell_volume                     1682.37
loop_
_atom_site_label
_atom_site_type_symbol
_atom_site_fract_x
_atom_site_fract_y
_atom_site_fract_z
Yb1 Yb 0.95196(2) 0.81830(2) 0.306601(18)
Cu1 Cu 1.68277(7) 0.87713(6) 0.11180(5)
Cu2 Cu 1.0000 1.0000 0.5000
O1 O 1.0462(4) 0.6361(4) 0.4156(3)
O2 O 1.1590(4) 0.7540(4) 0.3796(3)
O3 O 1.3195(5) 0.2688(4) 0.8027(3)
O4 O 1.1836(4) 0.2793(4) 0.6896(3)
O5 O 1.0070(4) 0.9758(3) 0.2735(3)
O6 O 0.9254(4) 1.1052(3) 0.3721(3)
O7 O 1.0704(4) 1.1343(4) -0.1179(3)
O8 O 0.9093(4) 1.2812(4) -0.1835(3)
O9 O 1.7535(4) 0.9662(4) 0.2909(3)
O10 O 1.5877(4) 0.9544(4) 0.2198(3)
O11 O 1.1721(4) 1.0143(4) 0.4454(3)
O12 O 1.1102(4) 1.1566(4) 0.5284(3)
N1 N 1.6571(5) 1.0213(5) 0.0027(4)
N2 N 1.7436(5) 0.8096(5) -0.0130(4)
C1 C 1.1424(6) 0.6623(5) 0.4310(4)
C2 C 1.2309(6) 0.5865(5) 0.5139(4)
C3 C 1.3291(6) 0.6179(6) 0.5380(5)
H1 H 1.3427 0.6851 0.4998
C4 C 1.4074(7) 0.5505(6) 0.6184(5)
H2 H 1.4750 0.5712 0.6326
C5 C 1.3854(6) 0.4530(5) 0.6773(5)
H3 H 1.4363 0.4092 0.7327
C6 C 1.2869(6) 0.4193(5) 0.6542(4)
C7 C 1.2117(6) 0.4861(5) 0.5715(4)
H4 H 1.1474 0.4633 0.5545
C8 C 1.2614(6) 0.3138(5) 0.7203(4)
C9 C 0.9481(5) 1.0759(5) 0.2846(4)
C10 C 0.9042(6) 1.1680(5) 0.1898(4)
C11 C 0.8237(7) 1.2766(6) 0.2002(5)
H5 H 0.7949 1.2914 0.2667
C12 C 0.7862(8) 1.3623(6) 0.1129(5)
H6 H 0.7313 1.4344 0.1203
C13 C 0.8307(7) 1.3409(6) 0.0137(5)
H7 H 0.8039 1.3983 -0.0453
C14 C 0.9141(6) 1.2353(5) 0.0022(4)
C15 C 0.9477(5) 1.1478(5) 0.0905(4)
H8 H 0.9999 1.0751 0.0826
C16 C 0.9680(6) 1.2153(5) -0.1052(4)
C17 C 1.6349(6) 0.9874(5) 0.2827(4)
C18 C 1.5358(6) 1.0612(5) 0.3485(4)
C19 C 1.5630(6) 1.1449(6) 0.3827(5)
H9 H 1.6445 1.1544 0.3658
C20 C 1.4688(6) 1.2128(5) 0.4413(5)
H10 H 1.4860 1.2697 0.4624
C21 C 1.3490(6) 1.1971(5) 0.4690(5)
H11 H 1.2859 1.2438 0.5084
C22 C 1.3212(5) 1.1126(5) 0.4389(4)
C23 C 1.4154(5) 1.0453(5) 0.3779(4)
H12 H 1.3975 0.9888 0.3566
C24 C 1.1932(5) 1.0927(5) 0.4739(4)
C25 C 1.6084(7) 1.1271(6) 0.0184(6)
H13 H 1.5767 1.1380 0.0857
C26 C 1.6036(8) 1.2212(7) -0.0621(7)
H14 H 1.5692 1.2945 -0.0495
C27 C 1.6503(7) 1.2044(8) -0.1603(7)
H15 H 1.6497 1.2665 -0.2152
C28 C 1.6979(7) 1.0969(7) -0.1785(5)
H16 H 1.7292 1.0852 -0.2456
C29 C 1.6991(6) 1.0053(6) -0.0953(5)
C30 C 1.7471(6) 0.8863(6) -0.1040(5)
C31 C 1.7931(7) 0.8512(8) -0.1970(5)
H17 H 1.7932 0.9045 -0.2596
C32 C 1.8387(10) 0.7373(9) -0.1964(7)
H18 H 1.8726 0.7127 -0.2584
C33 C 1.8344(10) 0.6602(8) -0.1050(7)
H19 H 1.8625 0.5826 -0.1039
C34 C 1.7872(9) 0.6994(7) -0.0134(6)
H20 H 1.7860 0.6468 0.0496
Yb1A Yb 1.04804(2) 1.18170(2) 0.693399(18)
Yb1A_2 Yb 1.04804(2) 0.18170(2) 0.693399(18)
Yb1A_3 Yb 1.04804(2) 1.18170(2) -0.306601(18)
Yb1_2 Yb 1.95196(2) 0.81830(2) 0.306601(18)
Yb1_3 Yb 0.95196(2) 0.81830(2) 1.306601(18)
Yb1A_4 Yb 0.04804(2) 1.18170(2) 0.693399(18)
Cu1A Cu 0.31723(7) 1.12287(6) 0.88820(5)
Cu1A_2 Cu 1.31723(7) 0.12287(6) 0.88820(5)
Cu1_2 Cu 0.68277(7) 0.87713(6) 0.11180(5)
O1A O 0.9538(4) 0.3639(4) 0.5844(3)
O1A_2 O 0.9538(4) 1.3639(4) 0.5844(3)
O2A O 0.8410(4) 0.2460(4) 0.6204(3)
O2A_2 O 0.8410(4) 1.2460(4) 0.6204(3)
O3A O 0.6805(5) 0.7312(4) 0.1973(3)
O3A_2 O 1.6805(5) 0.7312(4) 0.1973(3)
O3_2 O 0.3195(5) 1.2688(4) 0.8027(3)
O4A O 0.8164(4) 0.7207(4) 0.3104(3)
O4_2 O 1.1836(4) 1.2793(4) 0.6896(3)
O5A O 0.9930(4) 1.0242(3) 0.7265(3)
O6A O 1.0746(4) 0.8948(3) 0.6279(3)
O7A O 0.9296(4) 0.8657(4) 1.1179(3)
O7A_2 O 0.9296(4) 0.8657(4) 0.1179(3)
O7_2 O 1.0704(4) 1.1343(4) 0.8821(3)
O8A O 1.0907(4) 0.7188(4) 1.1835(3)
O8A_2 O 1.0907(4) 0.7188(4) 0.1835(3)
O8_2 O 0.9093(4) 1.2812(4) 0.8165(3)
O9A O 0.2465(4) 1.0338(4) 0.7091(3)
O9_2 O 0.7535(4) 0.9662(4) 0.2909(3)
O9A_2 O 1.2465(4) 1.0338(4) 0.7091(3)
O10A O 0.4123(4) 1.0456(4) 0.7802(3)
O11A O 0.8279(4) 0.9857(4) 0.5546(3)
O12A O 0.8898(4) 0.8434(4) 0.4716(3)
N1A N 0.3429(5) 0.9787(5) 0.9973(4)
N2A N 0.2564(5) 1.1904(5) 1.0130(4)
C1A C 0.8576(6) 0.3377(5) 0.5690(4)
C2A C 0.7691(6) 0.4135(5) 0.4861(4)
C3A C 0.6709(6) 0.3821(6) 0.4620(5)
H1A H 0.6573 0.3149 0.5002
C4A C 0.5926(7) 0.4495(6) 0.3816(5)
H2A H 0.5250 0.4288 0.3674
C5A C 0.6146(6) 0.5470(5) 0.3227(5)
H3A H 0.5637 0.5908 0.2673
C6A C 0.7131(6) 0.5807(5) 0.3458(4)
C7A C 0.7883(6) 0.5139(5) 0.4285(4)
H4A H 0.8526 0.5367 0.4455
C8A C 0.7386(6) 0.6862(5) 0.2797(4)
C9A C 1.0519(5) 0.9241(5) 0.7154(4)
C10A C 1.0958(6) 0.8320(5) 0.8102(4)
C11A C 1.1763(7) 0.7234(6) 0.7998(5)
H5A H 1.2051 0.7086 0.7333
C12A C 1.2138(8) 0.6377(6) 0.8871(5)
H6A H 1.2687 0.5656 0.8797
C13A C 1.1693(7) 0.6591(6) 0.9863(5)
H7A H 1.1961 0.6017 1.0453
C14A C 1.0859(6) 0.7647(5) 0.9978(4)
C15A C 1.0523(5) 0.8522(5) 0.9095(4)
H8A H 1.0001 0.9249 0.9174
C16A C 1.0320(6) 0.7847(5) 1.1052(4)
C17A C 0.3651(6) 1.0126(5) 0.7173(4)
C18A C 0.4642(6) 0.9388(5) 0.6515(4)
C19A C 0.4370(6) 0.8551(6) 0.6173(5)
H9A H 0.3555 0.8456 0.6342
C20A C 0.5312(6) 0.7872(5) 0.5587(5)
H10A H 0.5140 0.7303 0.5376
C21A C 0.6510(6) 0.8029(5) 0.5310(5)
H11A H 0.7141 0.7562 0.4916
C22A C 0.6788(5) 0.8874(5) 0.5611(4)
C23A C 0.5846(5) 0.9547(5) 0.6221(4)
H12A H 0.6025 1.0112 0.6434
C24A C 0.8068(5) 0.9073(5) 0.5261(4)
C25A C 0.3916(7) 0.8729(6) 0.9816(6)
H13A H 0.4233 0.8620 0.9143
C26A C 0.3964(8) 0.7788(7) 1.0621(7)
H14A H 0.4308 0.7055 1.0495
C27A C 0.3497(7) 0.7956(8) 1.1603(7)
H15A H 0.3503 0.7335 1.2152
C28A C 0.3021(7) 0.9031(7) 1.1785(5)
H16A H 0.2708 0.9148 1.2456
C29A C 0.3009(6) 0.9947(6) 1.0953(5)
C30A C 0.2529(6) 1.1137(6) 1.1040(5)
C31A C 0.2069(7) 1.1488(8) 1.1970(5)
H17A H 0.2068 1.0955 1.2596
C32A C 0.1613(10) 1.2627(9) 1.1964(7)
H18A H 0.1274 1.2873 1.2584
C33A C 0.1656(10) 1.3398(8) 1.1050(7)
H19A H 0.1375 1.4174 1.1039
C34A C 0.2128(9) 1.3006(7) 1.0134(6)
H20A H 0.2140 1.3532 0.9504
O13 O 0.7011(8) 0.4933(7) 0.7571(6)
O14 O 0.1016(7) 0.4223(6) 0.3659(6)
O15 O 0.5383(18) 0.5860(17) 0.9136(15)
loop_
_geom_bond_atom_site_label_1
_geom_bond_atom_site_label_2
_geom_bond_site_symmetry_1
_geom_bond_site_symmetry_2
Yb1 O1 1_555 1_555
Cu1 O10 1_555 1_555
Cu2 O6 1_555 1_555
O1 C1 1_555 1_555
O2 Yb1 1_555 1_555
O3 C8 1_555 1_555
O4 C8 1_555 1_555
O5 Yb1 1_555 1_555
O6 C9 1_555 1_555
O7 C16 1_555 1_555
O8 C16 1_555 1_555
O9 C17 1_555 1_555
O10 C17 1_555 1_555
O11 Cu2 1_555 1_555
O12 C24 1_555 1_555
N1 Cu1 1_555 1_555
N2 Cu1 1_555 1_555
C1 O2 1_555 1_555
C2 C1 1_555 1_555
C3 C2 1_555 1_555
H1 C3 1_555 1_555
C4 C3 1_555 1_555
H2 C4 1_555 1_555
C5 C4 1_555 1_555
H3 C5 1_555 1_555
C6 C5 1_555 1_555
C7 C2 1_555 1_555
H4 C7 1_555 1_555
C8 C6 1_555 1_555
C9 O5 1_555 1_555
C10 C9 1_555 1_555
C11 C10 1_555 1_555
H5 C11 1_555 1_555
C12 C11 1_555 1_555
H6 C12 1_555 1_555
C13 C12 1_555 1_555
H7 C13 1_555 1_555
C14 C13 1_555 1_555
C15 C10 1_555 1_555
H8 C15 1_555 1_555
C16 C14 1_555 1_555
C17 C18 1_555 1_555
C18 C19 1_555 1_555
C19 H9 1_555 1_555
C20 C19 1_555 1_555
H10 C20 1_555 1_555
C21 C20 1_555 1_555
H11 C21 1_555 1_555
C22 C21 1_555 1_555
C23 C18 1_555 1_555
H12 C23 1_555 1_555
C24 O11 1_555 1_555
C25 N1 1_555 1_555
H13 C25 1_555 1_555
C26 C25 1_555 1_555
H14 C26 1_555 1_555
C27 C26 1_555 1_555
H15 C27 1_555 1_555
C28 C27 1_555 1_555
H16 C28 1_555 1_555
C29 N1 1_555 1_555
C30 N2 1_555 1_555
C31 C30 1_555 1_555
H17 C31 1_555 1_555
C32 C31 1_555 1_555
H18 C32 1_555 1_555
C33 C32 1_555 1_555
H19 C33 1_555 1_555
C34 N2 1_555 1_555
H20 C34 1_555 1_555
Yb1A O12 1_555 1_555
Yb1A_2 O4 1_555 1_555
Yb1A_3 O7 1_555 1_555
Yb1_2 O9 1_555 1_555
Yb1_3 O7A 1_555 1_555
Yb1A_4 O9A 1_555 1_555
Cu1A O3_2 1_555 1_555
Cu1A_2 O3 1_555 1_555
Cu1_2 O3A 1_555 1_555
O1A Yb1A_2 1_555 1_555
O1A_2 Yb1A 1_555 1_555
O2A Yb1A_2 1_555 1_555
O2A_2 Yb1A 1_555 1_555
O3A C8A 1_555 1_555
O3A_2 Cu1 1_555 1_555
O4A Yb1 1_555 1_555
O4_2 Yb1A 1_555 1_555
O5A Yb1A 1_555 1_555
O6A Cu2 1_555 1_555
O7A C16A 1_555 1_555
O7A_2 Yb1 1_555 1_555
O7_2 Yb1A 1_555 1_555
O8A Yb1_3 1_555 1_555
O8A_2 Yb1 1_555 1_555
O8_2 Yb1A 1_555 1_555
O9A C17A 1_555 1_555
O9_2 Yb1 1_555 1_555
O9A_2 Yb1A 1_555 1_555
O10A Cu1A 1_555 1_555
O11A Cu2 1_555 1_555
O12A Yb1 1_555 1_555
N1A Cu1A 1_555 1_555
N2A Cu1A 1_555 1_555
C1A O1A 1_555 1_555
C2A C1A 1_555 1_555
C3A C2A 1_555 1_555
H1A C3A 1_555 1_555
C4A C3A 1_555 1_555
H2A C4A 1_555 1_555
C5A C4A 1_555 1_555
H3A C5A 1_555 1_555
C6A C5A 1_555 1_555
C7A C2A 1_555 1_555
H4A C7A 1_555 1_555
C8A O4A 1_555 1_555
C9A O5A 1_555 1_555
C10A C9A 1_555 1_555
C11A C10A 1_555 1_555
H5A C11A 1_555 1_555
C12A C11A 1_555 1_555
H6A C12A 1_555 1_555
C13A C12A 1_555 1_555
H7A C13A 1_555 1_555
C14A C13A 1_555 1_555
C15A C10A 1_555 1_555
H8A C15A 1_555 1_555
C16A O8A 1_555 1_555
C17A O10A 1_555 1_555
C18A C17A 1_555 1_555
C19A C18A 1_555 1_555
H9A C19A 1_555 1_555
C20A C19A 1_555 1_555
H10A C20A 1_555 1_555
C21A C20A 1_555 1_555
H11A C21A 1_555 1_555
C22A C21A 1_555 1_555
C23A C18A 1_555 1_555
H12A C23A 1_555 1_555
C24A O11A 1_555 1_555
C25A N1A 1_555 1_555
H13A C25A 1_555 1_555
C26A C25A 1_555 1_555
H14A C26A 1_555 1_555
C27A C26A 1_555 1_555
H15A C27A 1_555 1_555
C28A C27A 1_555 1_555
H16A C28A 1_555 1_555
C29A N1A 1_555 1_555
C30A N2A 1_555 1_555
C31A C30A 1_555 1_555
H17A C31A 1_555 1_555
C32A C31A 1_555 1_555
H18A C32A 1_555 1_555
C33A C32A 1_555 1_555
H19A C33A 1_555 1_555
C34A N2A 1_555 1_555
H20A C34A 1_555 1_555
O8 Yb1A_3 1_555 1_555
C6 C7 1_555 1_555
C14 C15 1_555 1_555
C22 C23 1_555 1_555
C22 C24 1_555 1_555
C28 C29 1_555 1_555
C29 C30 1_555 1_555
C33 C34 1_555 1_555
O2A C1A 1_555 1_555
O6A C9A 1_555 1_555
O12A C24A 1_555 1_555
C6A C7A 1_555 1_555
C6A C8A 1_555 1_555
C14A C15A 1_555 1_555
C14A C16A 1_555 1_555
C22A C23A 1_555 1_555
C22A C24A 1_555 1_555
C28A C29A 1_555 1_555
C29A C30A 1_555 1_555
C33A C34A 1_555 1_555

#END
