
#######################################################################
#
#                 Cambridge Crystallographic Data Centre
#                                CCDC 
#
#######################################################################
#
# If this CIF has been generated from an entry in the Cambridge 
# Structural Database, then it will include bibliographic, chemical, 
# crystal, experimental, refinement or atomic coordinate data resulting 
# from the CCDC's data processing and validation procedures.
#
#######################################################################

data_WICVUA
_symmetry_cell_setting           triclinic
_symmetry_space_group_name_H-M   'P -1'
_symmetry_Int_Tables_number      2
_space_group_name_Hall           '-P 1'
loop_
_symmetry_equiv_pos_site_id
_symmetry_equiv_pos_as_xyz
1 x,y,z
2 -x,-y,-z
_cell_length_a                   10.9785(5)
_cell_length_b                   12.8812(6)
_cell_length_c                   13.2657(6)
_cell_angle_alpha                75.0650(10)
_cell_angle_beta                 81.2510(10)
_cell_angle_gamma                69.4670(10)
_cell_volume                     1693.51
loop_
_atom_site_label
_atom_site_type_symbol
_atom_site_fract_x
_atom_site_fract_y
_atom_site_fract_z
Tb1 Tb 0.047290(12) 0.682020(11) 0.196420(10)
Cu1 Cu 0.32443(4) 0.62294(3) 0.38815(3)
Cu2 Cu 1.0000 0.5000 0.0000
O1 O 0.2504(2) 0.53158(18) 0.21509(18)
O2 O 0.4188(2) 0.5453(2) 0.28091(17)
O3 O 0.82916(19) 0.48376(18) 0.05494(16)
O4 O 0.8882(2) 0.34294(19) -0.02817(16)
O5 O 1.00622(19) 0.48017(16) -0.22389(15)
O6 O 0.9220(2) 0.60730(17) -0.12483(15)
O7 O 0.9081(2) 0.78796(19) -0.67982(16)
O8 O 1.0630(2) 0.63547(18) -0.61246(16)
O9 O 0.3288(2) 0.76719(19) 0.30239(16)
O10 O 0.1881(2) 0.77940(18) 0.19290(17)
O11 O 0.0497(2) 1.13292(17) -0.08336(16)
O12 O 0.1639(2) 1.24951(17) -0.12195(16)
N1 N 0.3445(3) 0.4798(2) 0.4966(2)
N2 N 0.2595(3) 0.6899(2) 0.5118(2)
C1 C 0.3913(4) 0.3738(3) 0.4815(3)
H1 H 0.4239 0.3627 0.4148
C2 C 0.3930(4) 0.2802(3) 0.5614(4)
H2 H 0.4256 0.2073 0.5489
C3 C 0.3453(4) 0.2976(3) 0.6597(3)
H3 H 0.3449 0.2360 0.7147
C4 C 0.2985(3) 0.4051(3) 0.6769(3)
H4 H 0.2659 0.4176 0.7432
C5 C 0.3004(3) 0.4955(3) 0.5936(2)
C6 C 0.2536(3) 0.6141(3) 0.6025(2)
C7 C 0.2056(4) 0.6492(4) 0.6949(3)
H5 H 0.2035 0.5961 0.7572
C8 C 0.1610(5) 0.7635(4) 0.6940(3)
H6 H 0.1275 0.7885 0.7554
C9 C 0.1664(5) 0.8397(4) 0.6019(4)
H7 H 0.1369 0.9172 0.5998
C10 C 0.2161(5) 0.8004(3) 0.5121(3)
H8 H 0.2196 0.8527 0.4495
C11 C 0.6783(3) 0.3879(2) 0.0616(2)
C12 C 0.6493(3) 0.3043(3) 0.0306(2)
H9 H 0.7112 0.2581 -0.0092
C13 C 0.5293(3) 0.2899(3) 0.0587(3)
H10 H 0.5104 0.2343 0.0372
C14 C 0.4368(3) 0.3571(3) 0.1184(3)
H11 H 0.3553 0.3479 0.1358
C15 C 0.4659(3) 0.4391(2) 0.1528(2)
C16 C 0.5870(3) 0.4545(2) 0.1229(2)
H12 H 0.6063 0.5099 0.1444
C17 C 0.8064(3) 0.4070(3) 0.0267(2)
C18 C 0.3700(3) 0.5109(3) 0.2201(2)
C19 C 0.9008(3) 0.6715(2) -0.3072(2)
C20 C 0.8225(4) 0.7795(3) -0.2962(3)
H13 H 0.7951 0.7941 -0.2299
C21 C 0.7850(4) 0.8655(3) -0.3840(3)
H14 H 0.7307 0.9375 -0.3767
C22 C 0.8280(4) 0.8445(3) -0.4823(3)
H15 H 0.8012 0.9021 -0.5412
C23 C 0.9110(3) 0.7381(3) -0.4942(2)
C24 C 0.9439(3) 0.6509(2) -0.4061(2)
H16 H 0.9951 0.5781 -0.4136
C25 C 0.9450(3) 0.5795(2) -0.2125(2)
C26 C 0.9639(3) 0.7189(3) -0.6006(2)
C27 C 0.2161(3) 0.9840(2) 0.0724(2)
H17 H 0.1516 0.9608 0.0561
C28 C 0.2933(3) 0.9184(2) 0.1546(2)
C29 C 0.3916(3) 0.9523(3) 0.1774(3)
H18 H 0.4434 0.9087 0.2325
C30 C 0.4118(3) 1.0505(3) 0.1182(3)
H19 H 0.4780 1.0726 0.1328
C31 C 0.3341(3) 1.1162(3) 0.0371(3)
H20 H 0.3483 1.1823 -0.0025
C32 C 0.2349(3) 1.0843(2) 0.0142(2)
C33 C 0.1458(3) 1.1595(2) -0.0695(2)
C34 C 0.2681(3) 0.8140(3) 0.2205(2)
Tb1A Tb 1.952710(12) 0.317980(11) -0.196420(10)
Tb1A_2 Tb 0.952710(12) 0.317980(11) -0.196420(10)
Tb1_2 Tb 1.047290(12) 0.682020(11) -0.803580(10)
Tb1A_3 Tb -0.047290(12) 1.317980(11) -0.196420(10)
Tb1_3 Tb 1.047290(12) 0.682020(11) 0.196420(10)
Tb1A_4 Tb 0.952710(12) 0.317980(11) 0.803580(10)
Cu1A Cu 1.67557(4) 0.37706(3) -0.38815(3)
Cu1A_2 Cu -0.32443(4) 1.37706(3) -0.38815(3)
O1A O 1.7496(2) 0.46842(18) -0.21509(18)
O2A O 1.5812(2) 0.4547(2) -0.28091(17)
O3A O 1.17084(19) 0.51624(18) -0.05494(16)
O4A O 1.1118(2) 0.65706(19) 0.02817(16)
O4A_2 O 0.1118(2) 0.65706(19) 0.02817(16)
O4_2 O 1.8882(2) 0.34294(19) -0.02817(16)
O5A O 0.99378(19) 0.51983(16) 0.22389(15)
O5A_2 O -0.00622(19) 0.51983(16) 0.22389(15)
O5_2 O 2.00622(19) 0.48017(16) -0.22389(15)
O6A O 1.0780(2) 0.39270(17) 0.12483(15)
O7A O 1.0919(2) 0.21204(19) 0.67982(16)
O7_2 O -0.0919(2) 0.78796(19) 0.32018(16)
O7A_2 O 2.0919(2) 0.21204(19) -0.32018(16)
O8A O 0.9370(2) 0.36453(18) 0.61246(16)
O8_2 O 0.0630(2) 0.63547(18) 0.38754(16)
O8A_2 O 1.9370(2) 0.36453(18) -0.38754(16)
O9A O -0.3288(2) 1.23281(19) -0.30239(16)
O9A_2 O 1.6712(2) 0.23281(19) -0.30239(16)
O10A O -0.1881(2) 1.22060(18) -0.19290(17)
O10A_2 O 1.8119(2) 0.22060(18) -0.19290(17)
O11A O -0.0497(2) 0.86708(17) 0.08336(16)
O11_2 O 2.0497(2) 0.13292(17) -0.08336(16)
O12A O -0.1639(2) 0.75049(17) 0.12195(16)
O12_2 O 2.1639(2) 0.24951(17) -0.12195(16)
N1A N 1.6555(3) 0.5202(2) -0.4966(2)
N2A N 1.7405(3) 0.3101(2) -0.5118(2)
C1A C 1.6087(4) 0.6262(3) -0.4815(3)
H1A H 1.5761 0.6373 -0.4148
C2A C 1.6070(4) 0.7198(3) -0.5614(4)
H2A H 1.5744 0.7927 -0.5489
C3A C 1.6547(4) 0.7024(3) -0.6597(3)
H3A H 1.6551 0.7640 -0.7147
C4A C 1.7015(3) 0.5949(3) -0.6769(3)
H4A H 1.7341 0.5824 -0.7432
C5A C 1.6996(3) 0.5045(3) -0.5936(2)
C6A C 1.7464(3) 0.3859(3) -0.6025(2)
C7A C 1.7944(4) 0.3508(4) -0.6949(3)
H5A H 1.7965 0.4039 -0.7572
C8A C 1.8390(5) 0.2365(4) -0.6940(3)
H6A H 1.8725 0.2115 -0.7554
C9A C 1.8336(5) 0.1603(4) -0.6019(4)
H7A H 1.8631 0.0828 -0.5998
C10A C 1.7839(5) 0.1996(3) -0.5121(3)
H8A H 1.7804 0.1473 -0.4495
C11A C 1.3217(3) 0.6121(2) -0.0616(2)
C12A C 1.3507(3) 0.6957(3) -0.0306(2)
H9A H 1.2888 0.7419 0.0092
C13A C 1.4707(3) 0.7101(3) -0.0587(3)
H10A H 1.4896 0.7657 -0.0372
C14A C 1.5632(3) 0.6429(3) -0.1184(3)
H11A H 1.6447 0.6521 -0.1358
C15A C 1.5341(3) 0.5609(2) -0.1528(2)
C16A C 1.4130(3) 0.5455(2) -0.1229(2)
H12A H 1.3937 0.4901 -0.1444
C17A C 1.1936(3) 0.5930(3) -0.0267(2)
C18A C 1.6300(3) 0.4891(3) -0.2201(2)
C19A C 1.0992(3) 0.3285(2) 0.3072(2)
C20A C 1.1775(4) 0.2205(3) 0.2962(3)
H13A H 1.2049 0.2059 0.2299
C21A C 1.2150(4) 0.1345(3) 0.3840(3)
H14A H 1.2693 0.0625 0.3767
C22A C 1.1720(4) 0.1555(3) 0.4823(3)
H15A H 1.1988 0.0979 0.5412
C23A C 1.0890(3) 0.2619(3) 0.4942(2)
C24A C 1.0561(3) 0.3491(2) 0.4061(2)
H16A H 1.0049 0.4219 0.4136
C25A C 1.0550(3) 0.4205(2) 0.2125(2)
C26A C 1.0361(3) 0.2811(3) 0.6006(2)
C27A C -0.2161(3) 1.0160(2) -0.0724(2)
H17A H -0.1516 1.0392 -0.0561
C28A C -0.2933(3) 1.0816(2) -0.1546(2)
C29A C -0.3916(3) 1.0477(3) -0.1774(3)
H18A H -0.4434 1.0913 -0.2325
C30A C -0.4118(3) 0.9495(3) -0.1182(3)
H19A H -0.4780 0.9274 -0.1328
C31A C -0.3341(3) 0.8838(3) -0.0371(3)
H20A H -0.3483 0.8177 0.0025
C32A C -0.2349(3) 0.9157(2) -0.0142(2)
C33A C -0.1458(3) 0.8405(2) 0.0695(2)
C34A C -0.2681(3) 1.1860(3) -0.2205(2)
O13 O 0.8976(3) 0.0828(3) 0.1319(3)
H21 H 0.9059 0.0141 0.1623
H22 H 0.9455 0.0935 0.0763
O14 O 0.3013(3) 1.0020(3) 0.7419(3)
H23 H 0.2540 0.9596 0.7633
H24 H 0.2650 1.0684 0.7064
O15 O 0.4666(8) 0.9100(9) 0.5854(9)
H25 H 0.4358 0.9294 0.5258
H26 H 0.4768 0.8431 0.6216
loop_
_geom_bond_atom_site_label_1
_geom_bond_atom_site_label_2
_geom_bond_site_symmetry_1
_geom_bond_site_symmetry_2
Tb1 O1 1_555 1_555
Cu1 O2 1_555 1_555
Cu2 O3 1_555 1_555
O1 C18 1_555 1_555
O2 C18 1_555 1_555
O3 C17 1_555 1_555
O4 C17 1_555 1_555
O5 C25 1_555 1_555
O6 Cu2 1_555 1_555
O7 C26 1_555 1_555
O8 C26 1_555 1_555
O9 Cu1 1_555 1_555
O10 Tb1 1_555 1_555
O11 C33 1_555 1_555
O12 C33 1_555 1_555
N1 Cu1 1_555 1_555
N2 Cu1 1_555 1_555
C1 N1 1_555 1_555
H1 C1 1_555 1_555
C2 C1 1_555 1_555
H2 C2 1_555 1_555
C3 C2 1_555 1_555
H3 C3 1_555 1_555
C4 C3 1_555 1_555
H4 C4 1_555 1_555
C5 N1 1_555 1_555
C6 N2 1_555 1_555
C7 C6 1_555 1_555
H5 C7 1_555 1_555
C8 C7 1_555 1_555
H6 C8 1_555 1_555
C9 C8 1_555 1_555
H7 C9 1_555 1_555
C10 N2 1_555 1_555
H8 C10 1_555 1_555
C11 C12 1_555 1_555
C12 H9 1_555 1_555
C13 C12 1_555 1_555
H10 C13 1_555 1_555
C14 C13 1_555 1_555
H11 C14 1_555 1_555
C15 C14 1_555 1_555
C16 C11 1_555 1_555
H12 C16 1_555 1_555
C17 C11 1_555 1_555
C18 C15 1_555 1_555
C19 C20 1_555 1_555
C20 H13 1_555 1_555
C21 C20 1_555 1_555
H14 C21 1_555 1_555
C22 C21 1_555 1_555
H15 C22 1_555 1_555
C23 C22 1_555 1_555
C24 C19 1_555 1_555
H16 C24 1_555 1_555
C25 O6 1_555 1_555
C26 C23 1_555 1_555
C27 H17 1_555 1_555
C28 C27 1_555 1_555
C29 C28 1_555 1_555
H18 C29 1_555 1_555
C30 C29 1_555 1_555
H19 C30 1_555 1_555
C31 C30 1_555 1_555
H20 C31 1_555 1_555
C32 C27 1_555 1_555
C33 C32 1_555 1_555
C34 O9 1_555 1_555
O13 H21 1_555 1_555
H22 O13 1_555 1_555
O14 H23 1_555 1_555
H24 O14 1_555 1_555
O15 H25 1_555 1_555
H26 O15 1_555 1_555
Tb1A O1A 1_555 1_555
Tb1A_2 O4 1_555 1_555
Tb1_2 O7 1_555 1_555
Tb1A_3 O11 1_555 1_555
Tb1_3 O4A 1_555 1_555
Tb1A_4 O7A 1_555 1_555
Cu1A O2A 1_555 1_555
Cu1A_2 O9A 1_555 1_555
O1A C18A 1_555 1_555
O2A C18A 1_555 1_555
O3A Cu2 1_555 1_555
O4A C17A 1_555 1_555
O4A_2 Tb1 1_555 1_555
O4_2 Tb1A 1_555 1_555
O5A Tb1_3 1_555 1_555
O5A_2 Tb1 1_555 1_555
O5_2 Tb1A 1_555 1_555
O6A Cu2 1_555 1_555
O7A C26A 1_555 1_555
O7_2 Tb1 1_555 1_555
O7A_2 Tb1A 1_555 1_555
O8A Tb1A_4 1_555 1_555
O8_2 Tb1 1_555 1_555
O8A_2 Tb1A 1_555 1_555
O9A C34A 1_555 1_555
O9A_2 Cu1A 1_555 1_555
O10A Tb1A_3 1_555 1_555
O10A_2 Tb1A 1_555 1_555
O11A Tb1 1_555 1_555
O11_2 Tb1A 1_555 1_555
O12A Tb1 1_555 1_555
O12_2 Tb1A 1_555 1_555
N1A Cu1A 1_555 1_555
N2A Cu1A 1_555 1_555
C1A N1A 1_555 1_555
H1A C1A 1_555 1_555
C2A C1A 1_555 1_555
H2A C2A 1_555 1_555
C3A C2A 1_555 1_555
H3A C3A 1_555 1_555
C4A C3A 1_555 1_555
H4A C4A 1_555 1_555
C5A N1A 1_555 1_555
C6A N2A 1_555 1_555
C7A C6A 1_555 1_555
H5A C7A 1_555 1_555
C8A C7A 1_555 1_555
H6A C8A 1_555 1_555
C9A C8A 1_555 1_555
H7A C9A 1_555 1_555
C10A N2A 1_555 1_555
H8A C10A 1_555 1_555
C11A C12A 1_555 1_555
C12A H9A 1_555 1_555
C13A C12A 1_555 1_555
H10A C13A 1_555 1_555
C14A C13A 1_555 1_555
H11A C14A 1_555 1_555
C15A C14A 1_555 1_555
C16A C11A 1_555 1_555
H12A C16A 1_555 1_555
C17A O3A 1_555 1_555
C18A C15A 1_555 1_555
C19A C20A 1_555 1_555
C20A H13A 1_555 1_555
C21A C20A 1_555 1_555
H14A C21A 1_555 1_555
C22A C21A 1_555 1_555
H15A C22A 1_555 1_555
C23A C22A 1_555 1_555
C24A C19A 1_555 1_555
H16A C24A 1_555 1_555
C25A O5A 1_555 1_555
C26A O8A 1_555 1_555
C27A H17A 1_555 1_555
C28A C27A 1_555 1_555
C29A C28A 1_555 1_555
H18A C29A 1_555 1_555
C30A C29A 1_555 1_555
H19A C30A 1_555 1_555
C31A C30A 1_555 1_555
H20A C31A 1_555 1_555
C32A C27A 1_555 1_555
C33A O11A 1_555 1_555
C34A O10A 1_555 1_555
O5 Tb1A_2 1_555 1_555
O8 Tb1_2 1_555 1_555
O10 C34 1_555 1_555
O12 Tb1A_3 1_555 1_555
C4 C5 1_555 1_555
C5 C6 1_555 1_555
C9 C10 1_555 1_555
C15 C16 1_555 1_555
C19 C25 1_555 1_555
C23 C24 1_555 1_555
C28 C34 1_555 1_555
C31 C32 1_555 1_555
O6A C25A 1_555 1_555
O12A C33A 1_555 1_555
C4A C5A 1_555 1_555
C5A C6A 1_555 1_555
C9A C10A 1_555 1_555
C11A C17A 1_555 1_555
C15A C16A 1_555 1_555
C19A C25A 1_555 1_555
C23A C24A 1_555 1_555
C23A C26A 1_555 1_555
C28A C34A 1_555 1_555
C31A C32A 1_555 1_555
C32A C33A 1_555 1_555

#END
