
#######################################################################
#
#                 Cambridge Crystallographic Data Centre
#                                CCDC 
#
#######################################################################
#
# If this CIF has been generated from an entry in the Cambridge 
# Structural Database, then it will include bibliographic, chemical, 
# crystal, experimental, refinement or atomic coordinate data resulting 
# from the CCDC's data processing and validation procedures.
#
#######################################################################

data_WICWOV
_symmetry_cell_setting           cubic
_symmetry_space_group_name_H-M   'I 21 3'
_symmetry_Int_Tables_number      199
_space_group_name_Hall           'I 2b 2c 3'
loop_
_symmetry_equiv_pos_site_id
_symmetry_equiv_pos_as_xyz
1 x,y,z
2 1/2-x,-y,1/2+z
3 -x,1/2+y,1/2-z
4 1/2+x,1/2-y,-z
5 z,x,y
6 1/2+z,1/2-x,-y
7 1/2-z,-x,1/2+y
8 -z,1/2+x,1/2-y
9 y,z,x
10 -y,1/2+z,1/2-x
11 1/2+y,1/2-z,-x
12 1/2-y,-z,1/2+x
13 1/2+x,1/2+y,1/2+z
14 -x,1/2-y,z
15 1/2-x,y,-z
16 x,-y,1/2-z
17 1/2+z,1/2+x,1/2+y
18 z,-x,1/2-y
19 -z,1/2-x,y
20 1/2-z,x,-y
21 1/2+y,1/2+z,1/2+x
22 1/2-y,z,-x
23 y,-z,1/2-x
24 -y,1/2-z,x
_cell_length_a                   16.211(2)
_cell_length_b                   16.211(2)
_cell_length_c                   16.211(2)
_cell_angle_alpha                90
_cell_angle_beta                 90
_cell_angle_gamma                90
_cell_volume                     4260.19
loop_
_atom_site_label
_atom_site_type_symbol
_atom_site_fract_x
_atom_site_fract_y
_atom_site_fract_z
Pr1 Pr 0.37986(3) 0.62014(3) 0.12014(3)
Cu1 Cu 0.5000 0.7500 0.26711(8)
P1 P 0.40307(12) 0.59724(11) 0.31687(12)
N1 N 0.4118(4) 0.7502(4) 0.3726(4)
O1 O 0.4725(3) 0.6321(3) 0.2627(3)
O2 O 0.3249(3) 0.5935(3) 0.2629(3)
O3 O 0.4241(3) 0.5174(3) 0.3592(3)
C1 C 0.3867(5) 0.6728(4) 0.3970(4)
C2 C 0.3553(4) 0.6568(5) 0.4719(5)
H5 H 0.3409 0.6033 0.4870
C3 C 0.3448(5) 0.7240(4) 0.5278(5)
H6 H 0.3212 0.7170 0.5797
C4 C 0.3714(5) 0.7987(4) 0.5007(5)
H7 H 0.3676 0.8436 0.5362
C5 C 0.4016(5) 0.8101(5) 0.4278(5)
H8 H 0.4171 0.8633 0.4131
Pr1O Pr 0.37986(3) 0.37986(3) 0.37986(3)
Pr1N Pr 0.12014(3) 0.62014(3) -0.12014(3)
Pr1M Pr 0.62014(3) 0.87986(3) 0.12014(3)
Cu1F Cu 0.23289(8) 0.5000 0.2500
Cu1I Cu 0.2500 0.76711(8) 0.0000
Cu1B Cu 0.5000 0.2500 0.23289(8)
Cu1D Cu 0.26711(8) 0.5000 -0.2500
Cu1K Cu 0.7500 0.73289(8) 0.0000
P1F P 0.18313(12) 0.59693(12) 0.09724(11)
P1I P 0.40276(11) 0.81687(12) 0.09693(12)
P1O P 0.40307(12) 0.40276(11) 0.18313(12)
P1Q P 0.31687(12) 0.59693(12) -0.09724(11)
P1V P 0.59724(11) 0.68313(12) 0.09693(12)
N1F N 0.1274(4) 0.5882(4) 0.2502(4)
N1I N 0.2498(4) 0.8726(4) 0.0882(4)
N1O N 0.4118(4) 0.2498(4) 0.1274(4)
N1Q N 0.3726(4) 0.5882(4) -0.2502(4)
N1V N 0.7502(4) 0.6274(4) 0.0882(4)
N1M N 0.5882(4) 0.7498(4) 0.3726(4)
N1S N 0.1274(4) 0.4118(4) 0.2498(4)
N1T N 0.2502(4) 0.8726(4) -0.0882(4)
O1F O 0.2373(3) 0.5275(3) 0.1321(3)
O1I O 0.3679(3) 0.7627(3) 0.0275(3)
O1O O 0.4725(3) 0.3679(3) 0.2373(3)
O1Q O 0.2627(3) 0.5275(3) -0.1321(3)
O1V O 0.6321(3) 0.7373(3) 0.0275(3)
O1M O 0.5275(3) 0.8679(3) 0.2627(3)
O1S O 0.2373(3) 0.4725(3) 0.3679(3)
O1W O 0.3679(3) 0.2373(3) 0.4725(3)
O1T O 0.1321(3) 0.7627(3) -0.0275(3)
O2F O 0.2371(3) 0.6751(3) 0.0935(3)
O2I O 0.4065(3) 0.7629(3) 0.1751(3)
O2O O 0.3249(3) 0.4065(3) 0.2371(3)
O2Q O 0.2629(3) 0.6751(3) -0.0935(3)
O2V O 0.5935(3) 0.7371(3) 0.1751(3)
O2S O 0.2371(3) 0.3249(3) 0.4065(3)
O2W O 0.4065(3) 0.2371(3) 0.3249(3)
O3F O 0.1408(3) 0.5759(3) 0.0174(3)
O3I O 0.4826(3) 0.8592(3) 0.0759(3)
O3O O 0.4241(3) 0.4826(3) 0.1408(3)
O3Q O 0.3592(3) 0.5759(3) -0.0174(3)
O3V O 0.5174(3) 0.6408(3) 0.0759(3)
O3D O 0.3592(3) 0.4241(3) 0.5174(3)
O3H O 0.5174(3) 0.3592(3) 0.4241(3)
C1F C 0.1030(4) 0.6133(5) 0.1728(4)
C1I C 0.3272(4) 0.8970(4) 0.1133(5)
C1O C 0.3867(5) 0.3272(4) 0.1030(4)
C1Q C 0.3970(4) 0.6133(5) -0.1728(4)
C1V C 0.6728(4) 0.6030(4) 0.1133(5)
C2F C 0.0281(5) 0.6447(4) 0.1568(5)
C2I C 0.3432(5) 0.9719(5) 0.1447(4)
C2O C 0.3553(4) 0.3432(5) 0.0281(5)
C2Q C 0.4719(5) 0.6447(4) -0.1568(5)
C2V C 0.6568(5) 0.5281(5) 0.1447(4)
H5F H 0.0130 0.6591 0.1033
H5I H 0.3967 0.9870 0.1591
H5O H 0.3409 0.3967 0.0130
H5Q H 0.4870 0.6591 -0.1033
H5V H 0.6033 0.5130 0.1591
C3F C -0.0278(5) 0.6552(5) 0.2240(4)
C3I C 0.2760(4) 1.0278(5) 0.1552(5)
C3O C 0.3448(5) 0.2760(4) -0.0278(5)
C3Q C 0.5278(5) 0.6552(5) -0.2240(4)
C3V C 0.7240(4) 0.4722(5) 0.1552(5)
H6F H -0.0797 0.6788 0.2170
H6I H 0.2830 1.0797 0.1788
H6O H 0.3212 0.2830 -0.0797
H6Q H 0.5797 0.6788 -0.2170
H6V H 0.7170 0.4203 0.1788
C4F C -0.0007(5) 0.6286(5) 0.2987(4)
C4I C 0.2013(4) 1.0007(5) 0.1286(5)
C4O C 0.3714(5) 0.2013(4) -0.0007(5)
C4Q C 0.5007(5) 0.6286(5) -0.2987(4)
C4V C 0.7987(4) 0.4993(5) 0.1286(5)
H7F H -0.0362 0.6324 0.3436
H7I H 0.1564 1.0362 0.1324
H7O H 0.3676 0.1564 -0.0362
H7Q H 0.5362 0.6324 -0.3436
H7V H 0.8436 0.4638 0.1324
C5F C 0.0722(5) 0.5984(5) 0.3101(5)
C5I C 0.1899(5) 0.9278(5) 0.0984(5)
C5O C 0.4016(5) 0.1899(5) 0.0722(5)
C5Q C 0.4278(5) 0.5984(5) -0.3101(5)
C5V C 0.8101(5) 0.5722(5) 0.0984(5)
H8F H 0.0869 0.5829 0.3633
H8I H 0.1367 0.9131 0.0829
H8O H 0.4171 0.1367 0.0869
H8Q H 0.4131 0.5829 -0.3633
H8V H 0.8633 0.5869 0.0829
O4 O 0.2282(3) 0.7718(3) 0.2718(3)
O5 O 0.4755(3) 0.9755(3) 0.5245(3)
H1? H 0.2087 0.8130 0.2977
H2? H 0.2492 0.7879 0.2265
H3? H 0.5279 0.9776 0.5237
H4? H 0.4560 1.0196 0.5039
loop_
_geom_bond_atom_site_label_1
_geom_bond_atom_site_label_2
_geom_bond_site_symmetry_1
_geom_bond_site_symmetry_2
Pr1 O1 1_555 1_555
Cu1 N1 1_555 1_555
P1 O1 1_555 1_555
N1 C1 1_555 1_555
O1 Cu1 1_555 1_555
O2 Pr1 1_555 1_555
O3 P1 1_555 1_555
C1 P1 1_555 1_555
C2 C1 1_555 1_555
H5 C2 1_555 1_555
C3 C2 1_555 1_555
H6 C3 1_555 1_555
C4 C3 1_555 1_555
H7 C4 1_555 1_555
C5 N1 1_555 1_555
H8 C5 1_555 1_555
Pr1O O3 1_555 1_555
Pr1N O1Q 1_555 1_555
Pr1M O1V 1_555 1_555
Cu1F O2 1_555 1_555
Cu1I N1I 1_555 1_555
Cu1B N1O 1_555 1_555
Cu1D N1Q 1_555 1_555
Cu1K N1V 1_555 1_555
P1F O1F 1_555 1_555
P1I O1I 1_555 1_555
P1O O1O 1_555 1_555
P1Q O1Q 1_555 1_555
P1V O1V 1_555 1_555
N1F Cu1F 1_555 1_555
N1I C1I 1_555 1_555
N1O C1O 1_555 1_555
N1Q C1Q 1_555 1_555
N1V C1V 1_555 1_555
N1M Cu1 1_555 1_555
N1S Cu1F 1_555 1_555
N1T Cu1I 1_555 1_555
O1F Pr1 1_555 1_555
O1I Pr1 1_555 1_555
O1O Pr1O 1_555 1_555
O1Q Cu1D 1_555 1_555
O1V Cu1K 1_555 1_555
O1M Cu1 1_555 1_555
O1S Pr1O 1_555 1_555
O1W Pr1O 1_555 1_555
O1T Pr1N 1_555 1_555
O2F Pr1 1_555 1_555
O2I Pr1 1_555 1_555
O2O Pr1O 1_555 1_555
O2Q Pr1N 1_555 1_555
O2V Cu1 1_555 1_555
O2S Pr1O 1_555 1_555
O2W Pr1O 1_555 1_555
O3F Pr1N 1_555 1_555
O3I Pr1M 1_555 1_555
O3O Pr1 1_555 1_555
O3Q Pr1 1_555 1_555
O3V Pr1 1_555 1_555
O3D Pr1O 1_555 1_555
O3H Pr1O 1_555 1_555
C1F P1F 1_555 1_555
C1I P1I 1_555 1_555
C1O P1O 1_555 1_555
C1Q P1Q 1_555 1_555
C1V P1V 1_555 1_555
C2F C1F 1_555 1_555
C2I C1I 1_555 1_555
C2O C1O 1_555 1_555
C2Q C1Q 1_555 1_555
C2V C1V 1_555 1_555
H5F C2F 1_555 1_555
H5I C2I 1_555 1_555
H5O C2O 1_555 1_555
H5Q C2Q 1_555 1_555
H5V C2V 1_555 1_555
C3F C2F 1_555 1_555
C3I C2I 1_555 1_555
C3O C2O 1_555 1_555
C3Q C2Q 1_555 1_555
C3V C2V 1_555 1_555
H6F C3F 1_555 1_555
H6I C3I 1_555 1_555
H6O C3O 1_555 1_555
H6Q C3Q 1_555 1_555
H6V C3V 1_555 1_555
C4F C3F 1_555 1_555
C4I C3I 1_555 1_555
C4O C3O 1_555 1_555
C4Q C3Q 1_555 1_555
C4V C3V 1_555 1_555
H7F C4F 1_555 1_555
H7I C4I 1_555 1_555
H7O C4O 1_555 1_555
H7Q C4Q 1_555 1_555
H7V C4V 1_555 1_555
C5F N1F 1_555 1_555
C5I N1I 1_555 1_555
C5O N1O 1_555 1_555
C5Q N1Q 1_555 1_555
C5V N1V 1_555 1_555
H8F C5F 1_555 1_555
H8I C5I 1_555 1_555
H8O C5O 1_555 1_555
H8Q C5Q 1_555 1_555
H8V C5V 1_555 1_555
Cu1 O2I 1_555 1_555
P1 O2 1_555 1_555
C4 C5 1_555 1_555
Pr1M O1M 1_555 1_555
Pr1M O2V 1_555 1_555
Cu1F O1F 1_555 1_555
Cu1F O1S 1_555 1_555
Cu1F O2O 1_555 1_555
Cu1I O1I 1_555 1_555
Cu1I O1T 1_555 1_555
Cu1I O2F 1_555 1_555
Cu1I O2Q 1_555 1_555
Cu1B O1O 1_555 1_555
Cu1B O2W 1_555 1_555
P1F O2F 1_555 1_555
P1F O3F 1_555 1_555
P1I O2I 1_555 1_555
P1I O3I 1_555 1_555
P1O O2O 1_555 1_555
P1O O3O 1_555 1_555
P1Q O2Q 1_555 1_555
P1Q O3Q 1_555 1_555
P1V O2V 1_555 1_555
P1V O3V 1_555 1_555
N1F C1F 1_555 1_555
C4F C5F 1_555 1_555
C4I C5I 1_555 1_555
C4O C5O 1_555 1_555
C4Q C5Q 1_555 1_555
C4V C5V 1_555 1_555

#END
