
#######################################################################
#
#                 Cambridge Crystallographic Data Centre
#                                CCDC 
#
#######################################################################
#
# If this CIF has been generated from an entry in the Cambridge 
# Structural Database, then it will include bibliographic, chemical, 
# crystal, experimental, refinement or atomic coordinate data resulting 
# from the CCDC's data processing and validation procedures.
#
#######################################################################

data_WICWUB
_symmetry_cell_setting           rhombohedral
_symmetry_space_group_name_H-M   'R -3'
_symmetry_Int_Tables_number      148
_space_group_name_Hall           '-R 3'
loop_
_symmetry_equiv_pos_site_id
_symmetry_equiv_pos_as_xyz
1 x,y,z
2 -y,x-y,z
3 -x+y,-x,z
4 2/3+x,1/3+y,1/3+z
5 2/3-y,1/3+x-y,1/3+z
6 2/3-x+y,1/3-x,1/3+z
7 1/3+x,2/3+y,2/3+z
8 1/3-y,2/3+x-y,2/3+z
9 1/3-x+y,2/3-x,2/3+z
10 -x,-y,-z
11 y,-x+y,-z
12 x-y,x,-z
13 1/3-x,2/3-y,2/3-z
14 1/3+y,2/3-x+y,2/3-z
15 1/3+x-y,2/3+x,2/3-z
16 2/3-x,1/3-y,1/3-z
17 2/3+y,1/3-x+y,1/3-z
18 2/3+x-y,1/3+x,1/3-z
_cell_length_a                   18.678(4)
_cell_length_b                   18.678(4)
_cell_length_c                   10.155(2)
_cell_angle_alpha                90
_cell_angle_beta                 90
_cell_angle_gamma                120.00
_cell_volume                     3068.11
loop_
_atom_site_label
_atom_site_type_symbol
_atom_site_fract_x
_atom_site_fract_y
_atom_site_fract_z
Dy1 Dy 0.6667 0.3333 0.3333
Dy2 Dy 0.6667 0.3333 -0.1667
Cu1 Cu 0.8333 0.1667 0.1667
P1 P 0.75441(8) 0.26078(8) 0.08855(13)
O1 O 0.7511(2) 0.1783(2) 0.0738(3)
O2 O 0.7381(2) 0.2911(2) -0.0384(3)
O3 O 0.7036(2) 0.2606(2) 0.2027(4)
N1 N 0.9032(3) 0.2889(3) 0.1610(4)
C1 C 0.9038(4) 0.4138(4) 0.1297(6)
H1 H 0.8751 0.4417 0.1143
C2 C 0.8626(3) 0.3290(3) 0.1308(5)
C3 C 0.9846(3) 0.3310(4) 0.1821(5)
H2 H 1.0118 0.3021 0.2023
C4 C 1.0289(4) 0.4149(4) 0.1749(6)
H3 H 1.0860 0.4428 0.1858
C5 C 0.9884(4) 0.4577(4) 0.1515(6)
H4 H 1.0171 0.5152 0.1502
Dy2_2 Dy 0.6667 0.3333 0.8333
Cu1A Cu 0.8333 0.6666 0.1667
Cu1B Cu 0.3334 0.1667 0.1667
Cu1C Cu 0.5000 0.5000 0.5000
Cu1D Cu 0.5000 -0.0001 0.5000
Cu1E Cu 1.0001 0.5000 0.5000
P1A P 0.73922(8) 0.49363(11) 0.08855(13)
P1B P 0.50637(11) 0.24559(8) 0.08855(13)
P1L P 0.57892(8) 0.40589(8) 0.57812(13)
P1M P 0.59411(8) 0.17304(11) 0.57812(13)
P1N P 0.82696(11) 0.42108(8) 0.57812(13)
O1A O 0.8217(2) 0.5728(3) 0.0738(3)
O1B O 0.4272(3) 0.2489(2) 0.0738(3)
O1L O 0.5822(2) 0.4884(2) 0.5929(3)
O1M O 0.5116(2) 0.0939(3) 0.5929(3)
O1N O 0.9061(3) 0.4178(2) 0.5929(3)
O1O O 0.9156(2) 0.1550(2) 0.2595(3)
O1P O 0.8450(2) 0.7605(3) 0.2595(3)
O1Q O 0.2395(3) 0.0844(2) 0.2595(3)
O2A O 0.7089(2) 0.4470(3) -0.0384(3)
O2B O 0.5530(3) 0.2619(2) -0.0384(3)
O2L O 0.5952(2) 0.3756(2) 0.7051(3)
O2M O 0.6244(2) 0.2197(3) 0.7051(3)
O2N O 0.7803(3) 0.4048(2) 0.7051(3)
O2L_2 O 0.5952(2) 0.3756(2) -0.2949(3)
O2M_2 O 0.6244(2) 0.2197(3) -0.2949(3)
O2N_2 O 0.7803(3) 0.4048(2) -0.2949(3)
O3A O 0.7394(2) 0.4430(3) 0.2027(4)
O3B O 0.5570(3) 0.2964(2) 0.2027(4)
O3L O 0.6297(2) 0.4061(2) 0.4640(4)
O3M O 0.5939(2) 0.2237(3) 0.4640(4)
O3N O 0.7763(3) 0.3703(2) 0.4640(4)
N1A N 0.7111(3) 0.6143(4) 0.1610(4)
N1B N 0.3857(4) 0.0968(3) 0.1610(4)
N1L N 0.4301(3) 0.3778(3) 0.5057(4)
N1M N 0.6222(3) 0.0524(4) 0.5057(4)
N1N N 0.9476(4) 0.5699(3) 0.5057(4)
N1O N 0.7635(3) 0.0444(3) 0.1723(4)
N1P N 0.9556(3) 0.7190(4) 0.1723(4)
N1Q N 0.2810(4) 0.2365(3) 0.1723(4)
C1A C 0.5862(4) 0.4900(6) 0.1297(6)
C1B C 0.5100(6) 0.0962(4) 0.1297(6)
C1L C 0.4295(4) 0.2529(4) 0.5370(6)
C1M C 0.7471(4) 0.1767(6) 0.5370(6)
C1N C 0.8233(6) 0.5705(4) 0.5370(6)
H1A H 0.5583 0.4334 0.1143
H1B H 0.5666 0.1249 0.1143
H1L H 0.4582 0.2250 0.5524
H1M H 0.7750 0.2333 0.5524
H1N H 0.7667 0.5418 0.5524
C2A C 0.6710(3) 0.5336(4) 0.1308(5)
C2B C 0.4664(4) 0.1374(3) 0.1308(5)
C2L C 0.4707(3) 0.3377(3) 0.5359(5)
C2M C 0.6623(3) 0.1331(4) 0.5359(5)
C2N C 0.8669(4) 0.5293(3) 0.5359(5)
C3A C 0.6690(4) 0.6536(5) 0.1821(5)
C3B C 0.3464(5) 0.0154(3) 0.1821(5)
C3L C 0.3487(3) 0.3357(4) 0.4846(5)
C3M C 0.6643(4) 0.0131(5) 0.4846(5)
C3N C 0.9869(5) 0.6513(3) 0.4846(5)
H2A H 0.6979 0.7097 0.2023
H2B H 0.2903 -0.0118 0.2023
H2L H 0.3215 0.3646 0.4644
H2M H 0.6354 -0.0430 0.4644
H2N H 1.0430 0.6785 0.4644
C4A C 0.5851(4) 0.6140(6) 0.1749(6)
C4B C 0.3860(6) -0.0289(4) 0.1749(6)
C4L C 0.3044(4) 0.2518(4) 0.4918(6)
C4M C 0.7482(4) 0.0527(6) 0.4918(6)
C4N C 0.9473(6) 0.6956(4) 0.4918(6)
H3A H 0.5572 0.6432 0.1858
H3B H 0.3568 -0.0860 0.1858
H3L H 0.2473 0.2239 0.4809
H3M H 0.7761 0.0235 0.4809
H3N H 0.9765 0.7527 0.4809
C5A C 0.5423(4) 0.5307(6) 0.1515(6)
C5B C 0.4693(6) 0.0116(4) 0.1515(6)
C5L C 0.3449(4) 0.2090(4) 0.5152(6)
C5M C 0.7910(4) 0.1360(6) 0.5152(6)
C5N C 0.8640(6) 0.6551(4) 0.5152(6)
H4A H 0.4848 0.5019 0.1502
H4B H 0.4981 -0.0171 0.1502
H4L H 0.3162 0.1515 0.5165
H4M H 0.8485 0.1648 0.5165
H4N H 0.8352 0.6838 0.5165
loop_
_geom_bond_atom_site_label_1
_geom_bond_atom_site_label_2
_geom_bond_site_symmetry_1
_geom_bond_site_symmetry_2
Dy1 O3 1_555 1_555
Dy2 O2 1_555 1_555
Cu1 O1 1_555 1_555
P1 O1 1_555 1_555
O2 P1 1_555 1_555
O3 P1 1_555 1_555
N1 Cu1 1_555 1_555
C1 H1 1_555 1_555
C2 P1 1_555 1_555
C3 N1 1_555 1_555
H2 C3 1_555 1_555
C4 C3 1_555 1_555
H3 C4 1_555 1_555
C5 C1 1_555 1_555
H4 C5 1_555 1_555
Dy2_2 O2L 1_555 1_555
Cu1A O1A 1_555 1_555
Cu1B O1B 1_555 1_555
Cu1C O1L 1_555 1_555
Cu1D O1M 1_555 1_555
Cu1E O1N 1_555 1_555
P1A O1A 1_555 1_555
P1B O1B 1_555 1_555
P1L O1L 1_555 1_555
P1M O1M 1_555 1_555
P1N O1N 1_555 1_555
O1O Cu1 1_555 1_555
O1P Cu1A 1_555 1_555
O1Q Cu1B 1_555 1_555
O2A Dy2 1_555 1_555
O2B Dy2 1_555 1_555
O2L P1L 1_555 1_555
O2M Dy2_2 1_555 1_555
O2N Dy2_2 1_555 1_555
O2L_2 Dy2 1_555 1_555
O2M_2 Dy2 1_555 1_555
O2N_2 Dy2 1_555 1_555
O3A Dy1 1_555 1_555
O3B Dy1 1_555 1_555
O3L Dy1 1_555 1_555
O3M Dy1 1_555 1_555
O3N Dy1 1_555 1_555
N1A Cu1A 1_555 1_555
N1B Cu1B 1_555 1_555
N1L Cu1C 1_555 1_555
N1M Cu1D 1_555 1_555
N1N Cu1E 1_555 1_555
N1O Cu1 1_555 1_555
N1P Cu1A 1_555 1_555
N1Q Cu1B 1_555 1_555
C1A H1A 1_555 1_555
C1B H1B 1_555 1_555
C1L H1L 1_555 1_555
C1M H1M 1_555 1_555
C1N H1N 1_555 1_555
C2A P1A 1_555 1_555
C2B P1B 1_555 1_555
C2L P1L 1_555 1_555
C2M P1M 1_555 1_555
C2N P1N 1_555 1_555
C3A N1A 1_555 1_555
C3B N1B 1_555 1_555
C3L N1L 1_555 1_555
C3M N1M 1_555 1_555
C3N N1N 1_555 1_555
H2A C3A 1_555 1_555
H2B C3B 1_555 1_555
H2L C3L 1_555 1_555
H2M C3M 1_555 1_555
H2N C3N 1_555 1_555
C4A C3A 1_555 1_555
C4B C3B 1_555 1_555
C4L C3L 1_555 1_555
C4M C3M 1_555 1_555
C4N C3N 1_555 1_555
H3A C4A 1_555 1_555
H3B C4B 1_555 1_555
H3L C4L 1_555 1_555
H3M C4M 1_555 1_555
H3N C4N 1_555 1_555
C5A C1A 1_555 1_555
C5B C1B 1_555 1_555
C5L C1L 1_555 1_555
C5M C1M 1_555 1_555
C5N C1N 1_555 1_555
H4A C5A 1_555 1_555
H4B C5B 1_555 1_555
H4L C5L 1_555 1_555
H4M C5M 1_555 1_555
H4N C5N 1_555 1_555
N1 C2 1_555 1_555
C1 C2 1_555 1_555
C4 C5 1_555 1_555
P1A O2A 1_555 1_555
P1A O3A 1_555 1_555
P1B O2B 1_555 1_555
P1B O3B 1_555 1_555
P1L O3L 1_555 1_555
P1M O2M 1_555 1_555
P1M O3M 1_555 1_555
P1N O2N 1_555 1_555
P1N O3N 1_555 1_555
N1A C2A 1_555 1_555
N1B C2B 1_555 1_555
N1L C2L 1_555 1_555
N1M C2M 1_555 1_555
N1N C2N 1_555 1_555
C1A C2A 1_555 1_555
C1B C2B 1_555 1_555
C1L C2L 1_555 1_555
C1M C2M 1_555 1_555
C1N C2N 1_555 1_555
C4A C5A 1_555 1_555
C4B C5B 1_555 1_555
C4L C5L 1_555 1_555
C4M C5M 1_555 1_555
C4N C5N 1_555 1_555

#END
