
#######################################################################
#
#                 Cambridge Crystallographic Data Centre
#                                CCDC 
#
#######################################################################
#
# If this CIF has been generated from an entry in the Cambridge 
# Structural Database, then it will include bibliographic, chemical, 
# crystal, experimental, refinement or atomic coordinate data resulting 
# from the CCDC's data processing and validation procedures.
#
#######################################################################

data_WICWEL
_symmetry_cell_setting           cubic
_symmetry_space_group_name_H-M   'I 21 3'
_symmetry_Int_Tables_number      199
_space_group_name_Hall           'I 2b 2c 3'
loop_
_symmetry_equiv_pos_site_id
_symmetry_equiv_pos_as_xyz
1 x,y,z
2 1/2-x,-y,1/2+z
3 -x,1/2+y,1/2-z
4 1/2+x,1/2-y,-z
5 z,x,y
6 1/2+z,1/2-x,-y
7 1/2-z,-x,1/2+y
8 -z,1/2+x,1/2-y
9 y,z,x
10 -y,1/2+z,1/2-x
11 1/2+y,1/2-z,-x
12 1/2-y,-z,1/2+x
13 1/2+x,1/2+y,1/2+z
14 -x,1/2-y,z
15 1/2-x,y,-z
16 x,-y,1/2-z
17 1/2+z,1/2+x,1/2+y
18 z,-x,1/2-y
19 -z,1/2-x,y
20 1/2-z,x,-y
21 1/2+y,1/2+z,1/2+x
22 1/2-y,z,-x
23 y,-z,1/2-x
24 -y,1/2-z,x
_cell_length_a                   16.2799(7)
_cell_length_b                   16.2799(7)
_cell_length_c                   16.2799(7)
_cell_angle_alpha                90
_cell_angle_beta                 90
_cell_angle_gamma                90
_cell_volume                     4314.75
loop_
_atom_site_label
_atom_site_type_symbol
_atom_site_fract_x
_atom_site_fract_y
_atom_site_fract_z
La1 La 0.38083(3) 0.61917(3) 0.11917(3)
Cu1 Cu 0.5000 0.7500 0.26639(9)
P1 P 0.40283(13) 0.59893(13) 0.31721(14)
N1 N 0.4146(4) 0.7522(4) 0.3695(4)
O1 O 0.4721(3) 0.6326(3) 0.2627(3)
O2 O 0.3252(3) 0.5931(3) 0.2629(3)
O3 O 0.4248(3) 0.5211(3) 0.3611(3)
C1 C 0.3854(5) 0.6758(5) 0.3943(5)
C2 C 0.3543(5) 0.6628(5) 0.4690(6)
H5 H 0.3365 0.6105 0.4837
C3 C 0.3483(5) 0.7259(5) 0.5240(5)
H6 H 0.3285 0.7175 0.5769
C4 C 0.3732(6) 0.8037(5) 0.4976(5)
H7 H 0.3704 0.8483 0.5332
C5 C 0.4005(5) 0.8133(5) 0.4228(6)
H8 H 0.4109 0.8667 0.4051
La1O La 0.38083(3) 0.38083(3) 0.38083(3)
La1N La 0.11917(3) 0.61917(3) -0.11917(3)
La1M La 0.61917(3) 0.88083(3) 0.11917(3)
Cu1F Cu 0.23361(9) 0.5000 0.2500
Cu1I Cu 0.2500 0.76639(9) 0.0000
Cu1B Cu 0.5000 0.2500 0.23361(9)
Cu1D Cu 0.26639(9) 0.5000 -0.2500
Cu1K Cu 0.7500 0.73361(9) 0.0000
P1F P 0.18279(14) 0.59717(13) 0.09893(13)
P1I P 0.40107(13) 0.81721(14) 0.09717(13)
P1O P 0.40283(13) 0.40107(13) 0.18279(14)
P1Q P 0.31721(14) 0.59717(13) -0.09893(13)
P1V P 0.59893(13) 0.68279(14) 0.09717(13)
N1F N 0.1305(4) 0.5854(4) 0.2522(4)
N1I N 0.2478(4) 0.8695(4) 0.0854(4)
N1O N 0.4146(4) 0.2478(4) 0.1305(4)
N1Q N 0.3695(4) 0.5854(4) -0.2522(4)
N1V N 0.7522(4) 0.6305(4) 0.0854(4)
N1M N 0.5854(4) 0.7478(4) 0.3695(4)
N1S N 0.1305(4) 0.4146(4) 0.2478(4)
N1T N 0.2522(4) 0.8695(4) -0.0854(4)
O1F O 0.2373(3) 0.5279(3) 0.1326(3)
O1I O 0.3674(3) 0.7627(3) 0.0279(3)
O1O O 0.4721(3) 0.3674(3) 0.2373(3)
O1Q O 0.2627(3) 0.5279(3) -0.1326(3)
O1V O 0.6326(3) 0.7373(3) 0.0279(3)
O1M O 0.5279(3) 0.8674(3) 0.2627(3)
O1S O 0.2373(3) 0.4721(3) 0.3674(3)
O1W O 0.3674(3) 0.2373(3) 0.4721(3)
O1T O 0.1326(3) 0.7627(3) -0.0279(3)
O2F O 0.2371(3) 0.6748(3) 0.0931(3)
O2I O 0.4069(3) 0.7629(3) 0.1748(3)
O2O O 0.3252(3) 0.4069(3) 0.2371(3)
O2Q O 0.2629(3) 0.6748(3) -0.0931(3)
O2V O 0.5931(3) 0.7371(3) 0.1748(3)
O2S O 0.2371(3) 0.3252(3) 0.4069(3)
O2W O 0.4069(3) 0.2371(3) 0.3252(3)
O3F O 0.1389(3) 0.5752(3) 0.0211(3)
O3I O 0.4789(3) 0.8611(3) 0.0752(3)
O3O O 0.4248(3) 0.4789(3) 0.1389(3)
O3Q O 0.3611(3) 0.5752(3) -0.0211(3)
O3V O 0.5211(3) 0.6389(3) 0.0752(3)
O3D O 0.3611(3) 0.4248(3) 0.5211(3)
O3H O 0.5211(3) 0.3611(3) 0.4248(3)
C1F C 0.1057(5) 0.6146(5) 0.1758(5)
C1I C 0.3242(5) 0.8943(5) 0.1146(5)
C1O C 0.3854(5) 0.3242(5) 0.1057(5)
C1Q C 0.3943(5) 0.6146(5) -0.1758(5)
C1V C 0.6758(5) 0.6057(5) 0.1146(5)
C2F C 0.0310(6) 0.6457(5) 0.1628(5)
C2I C 0.3372(5) 0.9690(6) 0.1457(5)
C2O C 0.3543(5) 0.3372(5) 0.0310(6)
C2Q C 0.4690(6) 0.6457(5) -0.1628(5)
C2V C 0.6628(5) 0.5310(6) 0.1457(5)
H5F H 0.0163 0.6635 0.1105
H5I H 0.3895 0.9837 0.1635
H5O H 0.3365 0.3895 0.0163
H5Q H 0.4837 0.6635 -0.1105
H5V H 0.6105 0.5163 0.1635
C3F C -0.0240(5) 0.6517(5) 0.2259(5)
C3I C 0.2741(5) 1.0240(5) 0.1517(5)
C3O C 0.3483(5) 0.2741(5) -0.0240(5)
C3Q C 0.5240(5) 0.6517(5) -0.2259(5)
C3V C 0.7259(5) 0.4760(5) 0.1517(5)
H6F H -0.0769 0.6715 0.2175
H6I H 0.2825 1.0769 0.1715
H6O H 0.3285 0.2825 -0.0769
H6Q H 0.5769 0.6715 -0.2175
H6V H 0.7175 0.4231 0.1715
C4F C 0.0024(5) 0.6268(6) 0.3037(5)
C4I C 0.1963(5) 0.9976(5) 0.1268(6)
C4O C 0.3732(6) 0.1963(5) 0.0024(5)
C4Q C 0.4976(5) 0.6268(6) -0.3037(5)
C4V C 0.8037(5) 0.5024(5) 0.1268(6)
H7F H -0.0332 0.6296 0.3483
H7I H 0.1517 1.0332 0.1296
H7O H 0.3704 0.1517 -0.0332
H7Q H 0.5332 0.6296 -0.3483
H7V H 0.8483 0.4668 0.1296
C5F C 0.0772(6) 0.5995(5) 0.3133(5)
C5I C 0.1867(5) 0.9228(6) 0.0995(5)
C5O C 0.4005(5) 0.1867(5) 0.0772(6)
C5Q C 0.4228(6) 0.5995(5) -0.3133(5)
C5V C 0.8133(5) 0.5772(6) 0.0995(5)
H8F H 0.0949 0.5891 0.3667
H8I H 0.1333 0.9051 0.0891
H8O H 0.4109 0.1333 0.0949
H8Q H 0.4051 0.5891 -0.3667
H8V H 0.8667 0.5949 0.0891
O4 O 0.2264(4) 0.7736(4) 0.2736(4)
O5 O 0.4738(3) 0.9738(3) 0.5262(3)
H1? H 0.2012 0.7382 0.2458
H2? H 0.1927 0.7976 0.3063
H3? H 0.5009 0.9798 0.5699
H4? H 0.5062 0.9777 0.4848
loop_
_geom_bond_atom_site_label_1
_geom_bond_atom_site_label_2
_geom_bond_site_symmetry_1
_geom_bond_site_symmetry_2
La1 O1 1_555 1_555
Cu1 N1 1_555 1_555
P1 O1 1_555 1_555
N1 C1 1_555 1_555
O1 Cu1 1_555 1_555
O2 La1 1_555 1_555
O3 P1 1_555 1_555
C1 P1 1_555 1_555
C2 C1 1_555 1_555
H5 C2 1_555 1_555
C3 C2 1_555 1_555
H6 C3 1_555 1_555
C4 C3 1_555 1_555
H7 C4 1_555 1_555
C5 N1 1_555 1_555
H8 C5 1_555 1_555
La1O O3 1_555 1_555
La1N O1Q 1_555 1_555
La1M O1V 1_555 1_555
Cu1F O2 1_555 1_555
Cu1I N1I 1_555 1_555
Cu1B N1O 1_555 1_555
Cu1D N1Q 1_555 1_555
Cu1K N1V 1_555 1_555
P1F O1F 1_555 1_555
P1I O1I 1_555 1_555
P1O O1O 1_555 1_555
P1Q O1Q 1_555 1_555
P1V O1V 1_555 1_555
N1F Cu1F 1_555 1_555
N1I C1I 1_555 1_555
N1O C1O 1_555 1_555
N1Q C1Q 1_555 1_555
N1V C1V 1_555 1_555
N1M Cu1 1_555 1_555
N1S Cu1F 1_555 1_555
N1T Cu1I 1_555 1_555
O1F La1 1_555 1_555
O1I La1 1_555 1_555
O1O La1O 1_555 1_555
O1Q Cu1D 1_555 1_555
O1V Cu1K 1_555 1_555
O1M Cu1 1_555 1_555
O1S La1O 1_555 1_555
O1W La1O 1_555 1_555
O1T La1N 1_555 1_555
O2F La1 1_555 1_555
O2I La1 1_555 1_555
O2O La1O 1_555 1_555
O2Q La1N 1_555 1_555
O2V Cu1 1_555 1_555
O2S La1O 1_555 1_555
O2W La1O 1_555 1_555
O3F La1N 1_555 1_555
O3I La1M 1_555 1_555
O3O La1 1_555 1_555
O3Q La1 1_555 1_555
O3V La1 1_555 1_555
O3D La1O 1_555 1_555
O3H La1O 1_555 1_555
C1F P1F 1_555 1_555
C1I P1I 1_555 1_555
C1O P1O 1_555 1_555
C1Q P1Q 1_555 1_555
C1V P1V 1_555 1_555
C2F C1F 1_555 1_555
C2I C1I 1_555 1_555
C2O C1O 1_555 1_555
C2Q C1Q 1_555 1_555
C2V C1V 1_555 1_555
H5F C2F 1_555 1_555
H5I C2I 1_555 1_555
H5O C2O 1_555 1_555
H5Q C2Q 1_555 1_555
H5V C2V 1_555 1_555
C3F C2F 1_555 1_555
C3I C2I 1_555 1_555
C3O C2O 1_555 1_555
C3Q C2Q 1_555 1_555
C3V C2V 1_555 1_555
H6F C3F 1_555 1_555
H6I C3I 1_555 1_555
H6O C3O 1_555 1_555
H6Q C3Q 1_555 1_555
H6V C3V 1_555 1_555
C4F C3F 1_555 1_555
C4I C3I 1_555 1_555
C4O C3O 1_555 1_555
C4Q C3Q 1_555 1_555
C4V C3V 1_555 1_555
H7F C4F 1_555 1_555
H7I C4I 1_555 1_555
H7O C4O 1_555 1_555
H7Q C4Q 1_555 1_555
H7V C4V 1_555 1_555
C5F N1F 1_555 1_555
C5I N1I 1_555 1_555
C5O N1O 1_555 1_555
C5Q N1Q 1_555 1_555
C5V N1V 1_555 1_555
H8F C5F 1_555 1_555
H8I C5I 1_555 1_555
H8O C5O 1_555 1_555
H8Q C5Q 1_555 1_555
H8V C5V 1_555 1_555
Cu1 O2I 1_555 1_555
P1 O2 1_555 1_555
C4 C5 1_555 1_555
La1M O1M 1_555 1_555
La1M O2V 1_555 1_555
Cu1F O1F 1_555 1_555
Cu1F O1S 1_555 1_555
Cu1F O2O 1_555 1_555
Cu1I O1I 1_555 1_555
Cu1I O1T 1_555 1_555
Cu1I O2F 1_555 1_555
Cu1I O2Q 1_555 1_555
Cu1B O1O 1_555 1_555
Cu1B O2W 1_555 1_555
P1F O2F 1_555 1_555
P1F O3F 1_555 1_555
P1I O2I 1_555 1_555
P1I O3I 1_555 1_555
P1O O2O 1_555 1_555
P1O O3O 1_555 1_555
P1Q O2Q 1_555 1_555
P1Q O3Q 1_555 1_555
P1V O2V 1_555 1_555
P1V O3V 1_555 1_555
N1F C1F 1_555 1_555
C4F C5F 1_555 1_555
C4I C5I 1_555 1_555
C4O C5O 1_555 1_555
C4Q C5Q 1_555 1_555
C4V C5V 1_555 1_555

#END
