
#######################################################################
#
#                 Cambridge Crystallographic Data Centre
#                                CCDC 
#
#######################################################################
#
# If this CIF has been generated from an entry in the Cambridge 
# Structural Database, then it will include bibliographic, chemical, 
# crystal, experimental, refinement or atomic coordinate data resulting 
# from the CCDC's data processing and validation procedures.
#
#######################################################################

data_WICWAH
_symmetry_cell_setting           cubic
_symmetry_space_group_name_H-M   'I 21 3'
_symmetry_Int_Tables_number      199
_space_group_name_Hall           'I 2b 2c 3'
loop_
_symmetry_equiv_pos_site_id
_symmetry_equiv_pos_as_xyz
1 x,y,z
2 1/2-x,-y,1/2+z
3 -x,1/2+y,1/2-z
4 1/2+x,1/2-y,-z
5 z,x,y
6 1/2+z,1/2-x,-y
7 1/2-z,-x,1/2+y
8 -z,1/2+x,1/2-y
9 y,z,x
10 -y,1/2+z,1/2-x
11 1/2+y,1/2-z,-x
12 1/2-y,-z,1/2+x
13 1/2+x,1/2+y,1/2+z
14 -x,1/2-y,z
15 1/2-x,y,-z
16 x,-y,1/2-z
17 1/2+z,1/2+x,1/2+y
18 z,-x,1/2-y
19 -z,1/2-x,y
20 1/2-z,x,-y
21 1/2+y,1/2+z,1/2+x
22 1/2-y,z,-x
23 y,-z,1/2-x
24 -y,1/2-z,x
_cell_length_a                   16.2376(15)
_cell_length_b                   16.2376(15)
_cell_length_c                   16.2376(15)
_cell_angle_alpha                90
_cell_angle_beta                 90
_cell_angle_gamma                90
_cell_volume                     4281.2
loop_
_atom_site_label
_atom_site_type_symbol
_atom_site_fract_x
_atom_site_fract_y
_atom_site_fract_z
Ce1 Ce 0.38017(3) 0.61983(3) 0.11983(3)
Cu1 Cu 0.5000 0.7500 0.26659(9)
P1 P 0.40341(13) 0.59764(13) 0.31662(13)
N1 N 0.4112(4) 0.7503(4) 0.3738(5)
O1 O 0.4725(3) 0.6318(3) 0.2635(3)
O2 O 0.3254(3) 0.5930(3) 0.2636(3)
O3 O 0.4243(3) 0.5184(3) 0.3602(3)
C1 C 0.3884(6) 0.6739(5) 0.3967(5)
C2 C 0.3556(5) 0.6572(5) 0.4700(5)
H5 H 0.3390 0.6042 0.4842
C3 C 0.3472(5) 0.7253(5) 0.5259(5)
H6 H 0.3264 0.7169 0.5786
C4 C 0.3689(5) 0.7990(5) 0.5023(6)
H7 H 0.3610 0.8436 0.5373
C5 C 0.4034(5) 0.8109(6) 0.4261(6)
H8 H 0.4216 0.8631 0.4113
Ce1O Ce 0.38017(3) 0.38017(3) 0.38017(3)
Ce1N Ce 0.11983(3) 0.61983(3) -0.11983(3)
Ce1M Ce 0.61983(3) 0.88017(3) 0.11983(3)
Cu1F Cu 0.23341(9) 0.5000 0.2500
Cu1I Cu 0.2500 0.76659(9) 0.0000
Cu1B Cu 0.5000 0.2500 0.23341(9)
Cu1D Cu 0.26659(9) 0.5000 -0.2500
Cu1K Cu 0.7500 0.73341(9) 0.0000
P1F P 0.18338(13) 0.59659(13) 0.09764(13)
P1I P 0.40236(13) 0.81662(13) 0.09659(13)
P1O P 0.40341(13) 0.40236(13) 0.18338(13)
P1Q P 0.31662(13) 0.59659(13) -0.09764(13)
P1V P 0.59764(13) 0.68338(13) 0.09659(13)
N1F N 0.1262(5) 0.5888(4) 0.2503(4)
N1I N 0.2497(4) 0.8738(5) 0.0888(4)
N1O N 0.4112(4) 0.2497(4) 0.1262(5)
N1Q N 0.3738(5) 0.5888(4) -0.2503(4)
N1V N 0.7503(4) 0.6262(5) 0.0888(4)
N1M N 0.5888(4) 0.7497(4) 0.3738(5)
N1S N 0.1262(5) 0.4112(4) 0.2497(4)
N1T N 0.2503(4) 0.8738(5) -0.0888(4)
O1F O 0.2365(3) 0.5275(3) 0.1318(3)
O1I O 0.3682(3) 0.7635(3) 0.0275(3)
O1O O 0.4725(3) 0.3682(3) 0.2365(3)
O1Q O 0.2635(3) 0.5275(3) -0.1318(3)
O1V O 0.6318(3) 0.7365(3) 0.0275(3)
O1M O 0.5275(3) 0.8682(3) 0.2635(3)
O1S O 0.2365(3) 0.4725(3) 0.3682(3)
O1W O 0.3682(3) 0.2365(3) 0.4725(3)
O1T O 0.1318(3) 0.7635(3) -0.0275(3)
O2F O 0.2364(3) 0.6746(3) 0.0930(3)
O2I O 0.4070(3) 0.7636(3) 0.1746(3)
O2O O 0.3254(3) 0.4070(3) 0.2364(3)
O2Q O 0.2636(3) 0.6746(3) -0.0930(3)
O2V O 0.5930(3) 0.7364(3) 0.1746(3)
O2S O 0.2364(3) 0.3254(3) 0.4070(3)
O2W O 0.4070(3) 0.2364(3) 0.3254(3)
O3F O 0.1398(3) 0.5757(3) 0.0184(3)
O3I O 0.4816(3) 0.8602(3) 0.0757(3)
O3O O 0.4243(3) 0.4816(3) 0.1398(3)
O3Q O 0.3602(3) 0.5757(3) -0.0184(3)
O3V O 0.5184(3) 0.6398(3) 0.0757(3)
O3D O 0.3602(3) 0.4243(3) 0.5184(3)
O3H O 0.5184(3) 0.3602(3) 0.4243(3)
C1F C 0.1033(5) 0.6116(6) 0.1739(5)
C1I C 0.3261(5) 0.8967(5) 0.1116(6)
C1O C 0.3884(6) 0.3261(5) 0.1033(5)
C1Q C 0.3967(5) 0.6116(6) -0.1739(5)
C1V C 0.6739(5) 0.6033(5) 0.1116(6)
C2F C 0.0300(5) 0.6444(5) 0.1572(5)
C2I C 0.3428(5) 0.9700(5) 0.1444(5)
C2O C 0.3556(5) 0.3428(5) 0.0300(5)
C2Q C 0.4700(5) 0.6444(5) -0.1572(5)
C2V C 0.6572(5) 0.5300(5) 0.1444(5)
H5F H 0.0158 0.6610 0.1042
H5I H 0.3958 0.9842 0.1610
H5O H 0.3390 0.3958 0.0158
H5Q H 0.4842 0.6610 -0.1042
H5V H 0.6042 0.5158 0.1610
C3F C -0.0259(5) 0.6528(5) 0.2253(5)
C3I C 0.2747(5) 1.0259(5) 0.1528(5)
C3O C 0.3472(5) 0.2747(5) -0.0259(5)
C3Q C 0.5259(5) 0.6528(5) -0.2253(5)
C3V C 0.7253(5) 0.4741(5) 0.1528(5)
H6F H -0.0786 0.6736 0.2169
H6I H 0.2831 1.0786 0.1736
H6O H 0.3264 0.2831 -0.0786
H6Q H 0.5786 0.6736 -0.2169
H6V H 0.7169 0.4214 0.1736
C4F C -0.0023(6) 0.6311(5) 0.2990(5)
C4I C 0.2010(5) 1.0023(6) 0.1311(5)
C4O C 0.3689(5) 0.2010(5) -0.0023(6)
C4Q C 0.5023(6) 0.6311(5) -0.2990(5)
C4V C 0.7990(5) 0.4977(6) 0.1311(5)
H7F H -0.0373 0.6390 0.3436
H7I H 0.1564 1.0373 0.1390
H7O H 0.3610 0.1564 -0.0373
H7Q H 0.5373 0.6390 -0.3436
H7V H 0.8436 0.4627 0.1390
C5F C 0.0739(6) 0.5966(5) 0.3109(6)
C5I C 0.1891(6) 0.9261(6) 0.0966(5)
C5O C 0.4034(5) 0.1891(6) 0.0739(6)
C5Q C 0.4261(6) 0.5966(5) -0.3109(6)
C5V C 0.8109(6) 0.5739(6) 0.0966(5)
H8F H 0.0887 0.5784 0.3631
H8I H 0.1369 0.9113 0.0784
H8O H 0.4216 0.1369 0.0887
H8Q H 0.4113 0.5784 -0.3631
H8V H 0.8631 0.5887 0.0784
O4 O 0.2290(4) 0.7710(4) 0.2710(4)
O5 O 0.4774(4) 0.9774(4) 0.5226(4)
H1? H 0.2096 0.8125 0.2964
H2? H 0.2497 0.7865 0.2255
H3? H 0.4611 0.9726 0.5721
H4? H 0.5297 0.9796 0.5215
loop_
_geom_bond_atom_site_label_1
_geom_bond_atom_site_label_2
_geom_bond_site_symmetry_1
_geom_bond_site_symmetry_2
Ce1 O1 1_555 1_555
Cu1 N1 1_555 1_555
P1 O1 1_555 1_555
N1 C1 1_555 1_555
O1 Cu1 1_555 1_555
O2 Ce1 1_555 1_555
O3 P1 1_555 1_555
C1 P1 1_555 1_555
C2 C1 1_555 1_555
H5 C2 1_555 1_555
C3 C2 1_555 1_555
H6 C3 1_555 1_555
C4 C3 1_555 1_555
H7 C4 1_555 1_555
C5 N1 1_555 1_555
H8 C5 1_555 1_555
Ce1O O3 1_555 1_555
Ce1N O1Q 1_555 1_555
Ce1M O1V 1_555 1_555
Cu1F O2 1_555 1_555
Cu1I N1I 1_555 1_555
Cu1B N1O 1_555 1_555
Cu1D N1Q 1_555 1_555
Cu1K N1V 1_555 1_555
P1F O1F 1_555 1_555
P1I O1I 1_555 1_555
P1O O1O 1_555 1_555
P1Q O1Q 1_555 1_555
P1V O1V 1_555 1_555
N1F Cu1F 1_555 1_555
N1I C1I 1_555 1_555
N1O C1O 1_555 1_555
N1Q C1Q 1_555 1_555
N1V C1V 1_555 1_555
N1M Cu1 1_555 1_555
N1S Cu1F 1_555 1_555
N1T Cu1I 1_555 1_555
O1F Ce1 1_555 1_555
O1I Ce1 1_555 1_555
O1O Ce1O 1_555 1_555
O1Q Cu1D 1_555 1_555
O1V Cu1K 1_555 1_555
O1M Cu1 1_555 1_555
O1S Ce1O 1_555 1_555
O1W Ce1O 1_555 1_555
O1T Ce1N 1_555 1_555
O2F Ce1 1_555 1_555
O2I Ce1 1_555 1_555
O2O Ce1O 1_555 1_555
O2Q Ce1N 1_555 1_555
O2V Cu1 1_555 1_555
O2S Ce1O 1_555 1_555
O2W Ce1O 1_555 1_555
O3F Ce1N 1_555 1_555
O3I Ce1M 1_555 1_555
O3O Ce1 1_555 1_555
O3Q Ce1 1_555 1_555
O3V Ce1 1_555 1_555
O3D Ce1O 1_555 1_555
O3H Ce1O 1_555 1_555
C1F P1F 1_555 1_555
C1I P1I 1_555 1_555
C1O P1O 1_555 1_555
C1Q P1Q 1_555 1_555
C1V P1V 1_555 1_555
C2F C1F 1_555 1_555
C2I C1I 1_555 1_555
C2O C1O 1_555 1_555
C2Q C1Q 1_555 1_555
C2V C1V 1_555 1_555
H5F C2F 1_555 1_555
H5I C2I 1_555 1_555
H5O C2O 1_555 1_555
H5Q C2Q 1_555 1_555
H5V C2V 1_555 1_555
C3F C2F 1_555 1_555
C3I C2I 1_555 1_555
C3O C2O 1_555 1_555
C3Q C2Q 1_555 1_555
C3V C2V 1_555 1_555
H6F C3F 1_555 1_555
H6I C3I 1_555 1_555
H6O C3O 1_555 1_555
H6Q C3Q 1_555 1_555
H6V C3V 1_555 1_555
C4F C3F 1_555 1_555
C4I C3I 1_555 1_555
C4O C3O 1_555 1_555
C4Q C3Q 1_555 1_555
C4V C3V 1_555 1_555
H7F C4F 1_555 1_555
H7I C4I 1_555 1_555
H7O C4O 1_555 1_555
H7Q C4Q 1_555 1_555
H7V C4V 1_555 1_555
C5F N1F 1_555 1_555
C5I N1I 1_555 1_555
C5O N1O 1_555 1_555
C5Q N1Q 1_555 1_555
C5V N1V 1_555 1_555
H8F C5F 1_555 1_555
H8I C5I 1_555 1_555
H8O C5O 1_555 1_555
H8Q C5Q 1_555 1_555
H8V C5V 1_555 1_555
Cu1 O2I 1_555 1_555
P1 O2 1_555 1_555
C4 C5 1_555 1_555
Ce1M O1M 1_555 1_555
Ce1M O2V 1_555 1_555
Cu1F O1F 1_555 1_555
Cu1F O1S 1_555 1_555
Cu1F O2O 1_555 1_555
Cu1I O1I 1_555 1_555
Cu1I O1T 1_555 1_555
Cu1I O2F 1_555 1_555
Cu1I O2Q 1_555 1_555
Cu1B O1O 1_555 1_555
Cu1B O2W 1_555 1_555
P1F O2F 1_555 1_555
P1F O3F 1_555 1_555
P1I O2I 1_555 1_555
P1I O3I 1_555 1_555
P1O O2O 1_555 1_555
P1O O3O 1_555 1_555
P1Q O2Q 1_555 1_555
P1Q O3Q 1_555 1_555
P1V O2V 1_555 1_555
P1V O3V 1_555 1_555
N1F C1F 1_555 1_555
C4F C5F 1_555 1_555
C4I C5I 1_555 1_555
C4O C5O 1_555 1_555
C4Q C5Q 1_555 1_555
C4V C5V 1_555 1_555

#END
