
#######################################################################
#
#                 Cambridge Crystallographic Data Centre
#                                CCDC 
#
#######################################################################
#
# If this CIF has been generated from an entry in the Cambridge 
# Structural Database, then it will include bibliographic, chemical, 
# crystal, experimental, refinement or atomic coordinate data resulting 
# from the CCDC's data processing and validation procedures.
#
#######################################################################

data_WICWIP
_symmetry_cell_setting           cubic
_symmetry_space_group_name_H-M   'I 21 3'
_symmetry_Int_Tables_number      199
_space_group_name_Hall           'I 2b 2c 3'
loop_
_symmetry_equiv_pos_site_id
_symmetry_equiv_pos_as_xyz
1 x,y,z
2 1/2-x,-y,1/2+z
3 -x,1/2+y,1/2-z
4 1/2+x,1/2-y,-z
5 z,x,y
6 1/2+z,1/2-x,-y
7 1/2-z,-x,1/2+y
8 -z,1/2+x,1/2-y
9 y,z,x
10 -y,1/2+z,1/2-x
11 1/2+y,1/2-z,-x
12 1/2-y,-z,1/2+x
13 1/2+x,1/2+y,1/2+z
14 -x,1/2-y,z
15 1/2-x,y,-z
16 x,-y,1/2-z
17 1/2+z,1/2+x,1/2+y
18 z,-x,1/2-y
19 -z,1/2-x,y
20 1/2-z,x,-y
21 1/2+y,1/2+z,1/2+x
22 1/2-y,z,-x
23 y,-z,1/2-x
24 -y,1/2-z,x
_cell_length_a                   16.1745(19)
_cell_length_b                   16.1745(19)
_cell_length_c                   16.1745(19)
_cell_angle_alpha                90
_cell_angle_beta                 90
_cell_angle_gamma                90
_cell_volume                     4231.48
loop_
_atom_site_label
_atom_site_type_symbol
_atom_site_fract_x
_atom_site_fract_y
_atom_site_fract_z
Nd1 Nd 0.37977(4) 0.62023(4) 0.12023(4)
Cu1 Cu 0.5000 0.7500 0.26764(14)
P1 P 0.40319(19) 0.59663(17) 0.31672(18)
N1 N 0.4135(7) 0.7542(7) 0.3720(7)
O1 O 0.4719(5) 0.6314(6) 0.2638(6)
O2 O 0.3251(6) 0.5933(6) 0.2615(6)
O3 O 0.4245(5) 0.5164(5) 0.3604(5)
C1 C 0.3877(10) 0.6736(9) 0.3969(9)
C2 C 0.3552(9) 0.6561(10) 0.4715(10)
H5 H 0.3380 0.6027 0.4837
C3 C 0.3476(10) 0.7176(10) 0.5292(11)
H6 H 0.3285 0.7073 0.5824
C4 C 0.3706(10) 0.7970(9) 0.5030(9)
H7 H 0.3632 0.8417 0.5384
C5 C 0.4020(10) 0.8093(10) 0.4300(10)
H8 H 0.4181 0.8632 0.4178
Nd1O Nd 0.37977(4) 0.37977(4) 0.37977(4)
Nd1N Nd 0.12023(4) 0.62023(4) -0.12023(4)
Nd1M Nd 0.62023(4) 0.87977(4) 0.12023(4)
Cu1F Cu 0.23236(14) 0.5000 0.2500
Cu1I Cu 0.2500 0.76764(14) 0.0000
Cu1B Cu 0.5000 0.2500 0.23236(14)
Cu1D Cu 0.26764(14) 0.5000 -0.2500
Cu1K Cu 0.7500 0.73236(14) 0.0000
P1F P 0.18328(18) 0.59681(19) 0.09663(17)
P1I P 0.40337(17) 0.81672(18) 0.09681(19)
P1O P 0.40319(19) 0.40337(17) 0.18328(18)
P1Q P 0.31672(18) 0.59681(19) -0.09663(17)
P1V P 0.59663(17) 0.68328(18) 0.09681(19)
N1F N 0.1280(7) 0.5865(7) 0.2542(7)
N1I N 0.2458(7) 0.8720(7) 0.0865(7)
N1O N 0.4135(7) 0.2458(7) 0.1280(7)
N1Q N 0.3720(7) 0.5865(7) -0.2542(7)
N1V N 0.7542(7) 0.6280(7) 0.0865(7)
N1M N 0.5865(7) 0.7458(7) 0.3720(7)
N1S N 0.1280(7) 0.4135(7) 0.2458(7)
N1T N 0.2542(7) 0.8720(7) -0.0865(7)
O1F O 0.2362(6) 0.5281(5) 0.1314(6)
O1I O 0.3686(6) 0.7638(6) 0.0281(5)
O1O O 0.4719(5) 0.3686(6) 0.2362(6)
O1Q O 0.2638(6) 0.5281(5) -0.1314(6)
O1V O 0.6314(6) 0.7362(6) 0.0281(5)
O1M O 0.5281(5) 0.8686(6) 0.2638(6)
O1S O 0.2362(6) 0.4719(5) 0.3686(6)
O1W O 0.3686(6) 0.2362(6) 0.4719(5)
O1T O 0.1314(6) 0.7638(6) -0.0281(5)
O2F O 0.2385(6) 0.6749(6) 0.0933(6)
O2I O 0.4067(6) 0.7615(6) 0.1749(6)
O2O O 0.3251(6) 0.4067(6) 0.2385(6)
O2Q O 0.2615(6) 0.6749(6) -0.0933(6)
O2V O 0.5933(6) 0.7385(6) 0.1749(6)
O2S O 0.2385(6) 0.3251(6) 0.4067(6)
O2W O 0.4067(6) 0.2385(6) 0.3251(6)
O3F O 0.1396(5) 0.5755(5) 0.0164(5)
O3I O 0.4836(5) 0.8604(5) 0.0755(5)
O3O O 0.4245(5) 0.4836(5) 0.1396(5)
O3Q O 0.3604(5) 0.5755(5) -0.0164(5)
O3V O 0.5164(5) 0.6396(5) 0.0755(5)
O3D O 0.3604(5) 0.4245(5) 0.5164(5)
O3H O 0.5164(5) 0.3604(5) 0.4245(5)
C1F C 0.1031(9) 0.6123(10) 0.1736(9)
C1I C 0.3264(9) 0.8969(9) 0.1123(10)
C1O C 0.3877(10) 0.3264(9) 0.1031(9)
C1Q C 0.3969(9) 0.6123(10) -0.1736(9)
C1V C 0.6736(9) 0.6031(9) 0.1123(10)
C2F C 0.0285(10) 0.6448(9) 0.1561(10)
C2I C 0.3439(10) 0.9715(10) 0.1448(9)
C2O C 0.3552(9) 0.3439(10) 0.0285(10)
C2Q C 0.4715(10) 0.6448(9) -0.1561(10)
C2V C 0.6561(10) 0.5285(10) 0.1448(9)
H5F H 0.0163 0.6620 0.1027
H5I H 0.3973 0.9837 0.1620
H5O H 0.3380 0.3973 0.0163
H5Q H 0.4837 0.6620 -0.1027
H5V H 0.6027 0.5163 0.1620
C3F C -0.0292(11) 0.6524(10) 0.2176(10)
C3I C 0.2824(10) 1.0292(11) 0.1524(10)
C3O C 0.3476(10) 0.2824(10) -0.0292(11)
C3Q C 0.5292(11) 0.6524(10) -0.2176(10)
C3V C 0.7176(10) 0.4708(11) 0.1524(10)
H6F H -0.0824 0.6715 0.2073
H6I H 0.2927 1.0824 0.1715
H6O H 0.3285 0.2927 -0.0824
H6Q H 0.5824 0.6715 -0.2073
H6V H 0.7073 0.4176 0.1715
C4F C -0.0030(9) 0.6294(10) 0.2970(9)
C4I C 0.2030(9) 1.0030(9) 0.1294(10)
C4O C 0.3706(10) 0.2030(9) -0.0030(9)
C4Q C 0.5030(9) 0.6294(10) -0.2970(9)
C4V C 0.7970(9) 0.4970(9) 0.1294(10)
H7F H -0.0384 0.6368 0.3417
H7I H 0.1583 1.0384 0.1368
H7O H 0.3632 0.1583 -0.0384
H7Q H 0.5384 0.6368 -0.3417
H7V H 0.8417 0.4616 0.1368
C5F C 0.0700(10) 0.5980(10) 0.3093(10)
C5I C 0.1907(10) 0.9300(10) 0.0980(10)
C5O C 0.4020(10) 0.1907(10) 0.0700(10)
C5Q C 0.4300(10) 0.5980(10) -0.3093(10)
C5V C 0.8093(10) 0.5700(10) 0.0980(10)
H8F H 0.0822 0.5819 0.3632
H8I H 0.1368 0.9178 0.0819
H8O H 0.4181 0.1368 0.0822
H8Q H 0.4178 0.5819 -0.3632
H8V H 0.8632 0.5822 0.0819
O4 O 0.2294(7) 0.7706(7) 0.2706(7)
O5 O 0.4739(7) 0.9739(7) 0.5261(7)
H1? H 0.2048 0.7339 0.2421
H2? H 0.1946 0.7949 0.3017
H3? H 0.5264 0.9761 0.5256
H4? H 0.4543 1.0181 0.5057
loop_
_geom_bond_atom_site_label_1
_geom_bond_atom_site_label_2
_geom_bond_site_symmetry_1
_geom_bond_site_symmetry_2
Nd1 O1 1_555 1_555
Cu1 N1 1_555 1_555
P1 O1 1_555 1_555
N1 C1 1_555 1_555
O1 Cu1 1_555 1_555
O2 Nd1 1_555 1_555
O3 P1 1_555 1_555
C1 P1 1_555 1_555
C2 C1 1_555 1_555
H5 C2 1_555 1_555
C3 C2 1_555 1_555
H6 C3 1_555 1_555
C4 C3 1_555 1_555
H7 C4 1_555 1_555
C5 N1 1_555 1_555
H8 C5 1_555 1_555
Nd1O O3 1_555 1_555
Nd1N O1Q 1_555 1_555
Nd1M O1V 1_555 1_555
Cu1F O2 1_555 1_555
Cu1I N1I 1_555 1_555
Cu1B N1O 1_555 1_555
Cu1D N1Q 1_555 1_555
Cu1K N1V 1_555 1_555
P1F O1F 1_555 1_555
P1I O1I 1_555 1_555
P1O O1O 1_555 1_555
P1Q O1Q 1_555 1_555
P1V O1V 1_555 1_555
N1F Cu1F 1_555 1_555
N1I C1I 1_555 1_555
N1O C1O 1_555 1_555
N1Q C1Q 1_555 1_555
N1V C1V 1_555 1_555
N1M Cu1 1_555 1_555
N1S Cu1F 1_555 1_555
N1T Cu1I 1_555 1_555
O1F Nd1 1_555 1_555
O1I Nd1 1_555 1_555
O1O Nd1O 1_555 1_555
O1Q Cu1D 1_555 1_555
O1V Cu1K 1_555 1_555
O1M Cu1 1_555 1_555
O1S Nd1O 1_555 1_555
O1W Nd1O 1_555 1_555
O1T Nd1N 1_555 1_555
O2F Nd1 1_555 1_555
O2I Nd1 1_555 1_555
O2O Nd1O 1_555 1_555
O2Q Nd1N 1_555 1_555
O2V Cu1 1_555 1_555
O2S Nd1O 1_555 1_555
O2W Nd1O 1_555 1_555
O3F Nd1N 1_555 1_555
O3I Nd1M 1_555 1_555
O3O Nd1 1_555 1_555
O3Q Nd1 1_555 1_555
O3V Nd1 1_555 1_555
O3D Nd1O 1_555 1_555
O3H Nd1O 1_555 1_555
C1F P1F 1_555 1_555
C1I P1I 1_555 1_555
C1O P1O 1_555 1_555
C1Q P1Q 1_555 1_555
C1V P1V 1_555 1_555
C2F C1F 1_555 1_555
C2I C1I 1_555 1_555
C2O C1O 1_555 1_555
C2Q C1Q 1_555 1_555
C2V C1V 1_555 1_555
H5F C2F 1_555 1_555
H5I C2I 1_555 1_555
H5O C2O 1_555 1_555
H5Q C2Q 1_555 1_555
H5V C2V 1_555 1_555
C3F C2F 1_555 1_555
C3I C2I 1_555 1_555
C3O C2O 1_555 1_555
C3Q C2Q 1_555 1_555
C3V C2V 1_555 1_555
H6F C3F 1_555 1_555
H6I C3I 1_555 1_555
H6O C3O 1_555 1_555
H6Q C3Q 1_555 1_555
H6V C3V 1_555 1_555
C4F C3F 1_555 1_555
C4I C3I 1_555 1_555
C4O C3O 1_555 1_555
C4Q C3Q 1_555 1_555
C4V C3V 1_555 1_555
H7F C4F 1_555 1_555
H7I C4I 1_555 1_555
H7O C4O 1_555 1_555
H7Q C4Q 1_555 1_555
H7V C4V 1_555 1_555
C5F N1F 1_555 1_555
C5I N1I 1_555 1_555
C5O N1O 1_555 1_555
C5Q N1Q 1_555 1_555
C5V N1V 1_555 1_555
H8F C5F 1_555 1_555
H8I C5I 1_555 1_555
H8O C5O 1_555 1_555
H8Q C5Q 1_555 1_555
H8V C5V 1_555 1_555
Cu1 O2I 1_555 1_555
P1 O2 1_555 1_555
C4 C5 1_555 1_555
Nd1M O1M 1_555 1_555
Nd1M O2V 1_555 1_555
Cu1F O1F 1_555 1_555
Cu1F O1S 1_555 1_555
Cu1F O2O 1_555 1_555
Cu1I O1I 1_555 1_555
Cu1I O1T 1_555 1_555
Cu1I O2F 1_555 1_555
Cu1I O2Q 1_555 1_555
Cu1B O1O 1_555 1_555
Cu1B O2W 1_555 1_555
P1F O2F 1_555 1_555
P1F O3F 1_555 1_555
P1I O2I 1_555 1_555
P1I O3I 1_555 1_555
P1O O2O 1_555 1_555
P1O O3O 1_555 1_555
P1Q O2Q 1_555 1_555
P1Q O3Q 1_555 1_555
P1V O2V 1_555 1_555
P1V O3V 1_555 1_555
N1F C1F 1_555 1_555
C4F C5F 1_555 1_555
C4I C5I 1_555 1_555
C4O C5O 1_555 1_555
C4Q C5Q 1_555 1_555
C4V C5V 1_555 1_555

#END
