
#######################################################################
#
#                 Cambridge Crystallographic Data Centre
#                                CCDC 
#
#######################################################################
#
# If this CIF has been generated from an entry in the Cambridge 
# Structural Database, then it will include bibliographic, chemical, 
# crystal, experimental, refinement or atomic coordinate data resulting 
# from the CCDC's data processing and validation procedures.
#
#######################################################################

data_WICXOW
_symmetry_cell_setting           rhombohedral
_symmetry_space_group_name_H-M   'R -3'
_symmetry_Int_Tables_number      148
_space_group_name_Hall           '-R 3'
loop_
_symmetry_equiv_pos_site_id
_symmetry_equiv_pos_as_xyz
1 x,y,z
2 -y,x-y,z
3 -x+y,-x,z
4 2/3+x,1/3+y,1/3+z
5 2/3-y,1/3+x-y,1/3+z
6 2/3-x+y,1/3-x,1/3+z
7 1/3+x,2/3+y,2/3+z
8 1/3-y,2/3+x-y,2/3+z
9 1/3-x+y,2/3-x,2/3+z
10 -x,-y,-z
11 y,-x+y,-z
12 x-y,x,-z
13 1/3-x,2/3-y,2/3-z
14 1/3+y,2/3-x+y,2/3-z
15 1/3+x-y,2/3+x,2/3-z
16 2/3-x,1/3-y,1/3-z
17 2/3+y,1/3-x+y,1/3-z
18 2/3+x-y,1/3+x,1/3-z
_cell_length_a                   18.818(3)
_cell_length_b                   18.818(3)
_cell_length_c                   10.310(2)
_cell_angle_alpha                90
_cell_angle_beta                 90
_cell_angle_gamma                120.00
_cell_volume                     3161.81
loop_
_atom_site_label
_atom_site_type_symbol
_atom_site_fract_x
_atom_site_fract_y
_atom_site_fract_z
Nd1 Nd 0.6667 0.3333 -0.1667
Nd2 Nd 0.6667 0.3333 0.3333
Cu1 Cu 0.8333 0.1667 0.1667
P1 P 0.74007(9) 0.24493(9) 0.08834(15)
O1 O 0.8227(2) 0.2483(2) 0.0742(4)
O2 O 0.7394(3) 0.2951(3) 0.1998(4)
O3 O 0.7101(3) 0.2602(3) -0.0369(4)
N1 N 0.7119(3) 0.0974(3) 0.1620(5)
C1 C 0.6717(4) 0.1375(3) 0.1310(6)
C2 C 0.5872(4) 0.0971(4) 0.1281(7)
H1 H 0.5596 0.1254 0.1105
C3 C 0.5442(4) 0.0136(4) 0.1519(7)
H2 H 0.4871 -0.0149 0.1506
C4 C 0.5860(4) -0.0268(4) 0.1775(6)
H3 H 0.5577 -0.0833 0.1907
C5 C 0.6695(4) 0.0162(4) 0.1833(6)
H4 H 0.6977 -0.0114 0.2026
Nd2_2 Nd 0.6667 0.3333 -0.6667
Cu1A Cu 0.8333 0.6666 0.1667
Cu1B Cu 0.3334 0.1667 0.1667
Cu1C Cu 0.5000 0.5000 -0.5000
Cu1D Cu 0.5000 -0.0001 -0.5000
Cu1E Cu 1.0001 0.5000 -0.5000
P1A P 0.75507(9) 0.49514(13) 0.08834(15)
P1B P 0.50486(13) 0.25993(9) 0.08834(15)
P1L P 0.59326(9) 0.42174(9) -0.42167(15)
P1M P 0.57826(9) 0.17153(13) -0.42167(15)
P1N P 0.82847(13) 0.40674(9) -0.42167(15)
O1A O 0.7517(2) 0.5744(3) 0.0742(4)
O1B O 0.4256(3) 0.1773(2) 0.0742(4)
O1L O 0.5106(2) 0.4184(2) -0.4075(4)
O1M O 0.5816(2) 0.0923(3) -0.4075(4)
O1N O 0.9077(3) 0.4894(2) -0.4075(4)
O1O O 0.8440(2) 0.0850(2) 0.2591(4)
O1P O 0.9150(2) 0.7589(3) 0.2591(4)
O1Q O 0.2411(3) 0.1560(2) 0.2591(4)
O2A O 0.7049(3) 0.4443(4) 0.1998(4)
O2B O 0.5557(4) 0.2606(3) 0.1998(4)
O2L O 0.5939(3) 0.3716(3) -0.5331(4)
O2M O 0.6284(3) 0.2224(4) -0.5331(4)
O2N O 0.7776(4) 0.4061(3) -0.5331(4)
O2L_2 O 0.5939(3) 0.3716(3) 0.4669(4)
O2M_2 O 0.6284(3) 0.2224(4) 0.4669(4)
O2N_2 O 0.7776(4) 0.4061(3) 0.4669(4)
O3A O 0.7398(3) 0.4499(4) -0.0369(4)
O3B O 0.5501(4) 0.2899(3) -0.0369(4)
O3L O 0.6232(3) 0.4065(3) -0.2964(4)
O3M O 0.5935(3) 0.2168(4) -0.2964(4)
O3N O 0.7832(4) 0.3768(3) -0.2964(4)
N1A N 0.9026(3) 0.6145(4) 0.1620(5)
N1B N 0.3855(4) 0.2881(3) 0.1620(5)
N1L N 0.6214(3) 0.5693(3) -0.4953(5)
N1M N 0.4307(3) 0.0522(4) -0.4953(5)
N1N N 0.9478(4) 0.3786(3) -0.4953(5)
N1O N 0.9548(3) 0.2359(3) 0.1713(5)
N1P N 0.7641(3) 0.7188(4) 0.1713(5)
N1Q N 0.2812(4) 0.0452(3) 0.1713(5)
C1A C 0.8625(3) 0.5342(5) 0.1310(6)
C1B C 0.4658(5) 0.3283(4) 0.1310(6)
C1L C 0.6616(4) 0.5292(3) -0.4643(6)
C1M C 0.4708(3) 0.1325(5) -0.4643(6)
C1N C 0.8675(5) 0.3384(4) -0.4643(6)
C2A C 0.9029(4) 0.4901(6) 0.1281(7)
C2B C 0.5099(6) 0.4128(4) 0.1281(7)
C2L C 0.7461(4) 0.5696(4) -0.4614(7)
C2M C 0.4304(4) 0.1766(6) -0.4614(7)
C2N C 0.8234(6) 0.2539(4) -0.4614(7)
H1A H 0.8746 0.4342 0.1105
H1B H 0.5658 0.4404 0.1105
H1L H 0.7737 0.5413 -0.4438
H1M H 0.4587 0.2325 -0.4438
H1N H 0.7675 0.2263 -0.4438
C3A C 0.9864(4) 0.5306(6) 0.1519(7)
C3B C 0.4694(6) 0.4558(4) 0.1519(7)
C3L C 0.7891(4) 0.6531(4) -0.4852(7)
C3M C 0.3469(4) 0.1361(6) -0.4852(7)
C3N C 0.8639(6) 0.2109(4) -0.4852(7)
H2A H 1.0149 0.5020 0.1506
H2B H 0.4980 0.5129 0.1506
H2L H 0.8462 0.6816 -0.4839
H2M H 0.3184 0.1647 -0.4839
H2N H 0.8353 0.1538 -0.4839
C4A C 1.0268(4) 0.6128(6) 0.1775(6)
C4B C 0.3872(6) 0.4140(4) 0.1775(6)
C4L C 0.7473(4) 0.6935(4) -0.5108(6)
C4M C 0.3065(4) 0.0539(6) -0.5108(6)
C4N C 0.9461(6) 0.2527(4) -0.5108(6)
H3A H 1.0833 0.6410 0.1907
H3B H 0.3590 0.4423 0.1907
H3L H 0.7756 0.7500 -0.5240
H3M H 0.2500 0.0257 -0.5240
H3N H 0.9743 0.2244 -0.5240
C5A C 0.9838(4) 0.6533(6) 0.1833(6)
C5B C 0.3467(6) 0.3305(4) 0.1833(6)
C5L C 0.6638(4) 0.6505(4) -0.5166(6)
C5M C 0.3495(4) 0.0134(6) -0.5166(6)
C5N C 0.9866(6) 0.3362(4) -0.5166(6)
H4A H 1.0114 0.7091 0.2026
H4B H 0.2909 0.3023 0.2026
H4L H 0.6356 0.6781 -0.5359
H4M H 0.3219 -0.0424 -0.5359
H4N H 1.0424 0.3644 -0.5359
loop_
_geom_bond_atom_site_label_1
_geom_bond_atom_site_label_2
_geom_bond_site_symmetry_1
_geom_bond_site_symmetry_2
Nd1 O3 1_555 1_555
Nd2 O2 1_555 1_555
Cu1 O1 1_555 1_555
P1 O1 1_555 1_555
O2 P1 1_555 1_555
O3 P1 1_555 1_555
N1 Cu1 1_555 1_555
C1 P1 1_555 1_555
C2 C1 1_555 1_555
H1 C2 1_555 1_555
C3 C2 1_555 1_555
H2 C3 1_555 1_555
C4 C3 1_555 1_555
H3 C4 1_555 1_555
C5 N1 1_555 1_555
H4 C5 1_555 1_555
Nd2_2 O2L 1_555 1_555
Cu1A O1A 1_555 1_555
Cu1B O1B 1_555 1_555
Cu1C O1L 1_555 1_555
Cu1D O1M 1_555 1_555
Cu1E O1N 1_555 1_555
P1A O1A 1_555 1_555
P1B O1B 1_555 1_555
P1L O1L 1_555 1_555
P1M O1M 1_555 1_555
P1N O1N 1_555 1_555
O1O Cu1 1_555 1_555
O1P Cu1A 1_555 1_555
O1Q Cu1B 1_555 1_555
O2A Nd2 1_555 1_555
O2B Nd2 1_555 1_555
O2L P1L 1_555 1_555
O2M Nd2_2 1_555 1_555
O2N Nd2_2 1_555 1_555
O2L_2 Nd2 1_555 1_555
O2M_2 Nd2 1_555 1_555
O2N_2 Nd2 1_555 1_555
O3A Nd1 1_555 1_555
O3B Nd1 1_555 1_555
O3L Nd1 1_555 1_555
O3M Nd1 1_555 1_555
O3N Nd1 1_555 1_555
N1A Cu1A 1_555 1_555
N1B Cu1B 1_555 1_555
N1L Cu1C 1_555 1_555
N1M Cu1D 1_555 1_555
N1N Cu1E 1_555 1_555
N1O Cu1 1_555 1_555
N1P Cu1A 1_555 1_555
N1Q Cu1B 1_555 1_555
C1A P1A 1_555 1_555
C1B P1B 1_555 1_555
C1L P1L 1_555 1_555
C1M P1M 1_555 1_555
C1N P1N 1_555 1_555
C2A C1A 1_555 1_555
C2B C1B 1_555 1_555
C2L C1L 1_555 1_555
C2M C1M 1_555 1_555
C2N C1N 1_555 1_555
H1A C2A 1_555 1_555
H1B C2B 1_555 1_555
H1L C2L 1_555 1_555
H1M C2M 1_555 1_555
H1N C2N 1_555 1_555
C3A C2A 1_555 1_555
C3B C2B 1_555 1_555
C3L C2L 1_555 1_555
C3M C2M 1_555 1_555
C3N C2N 1_555 1_555
H2A C3A 1_555 1_555
H2B C3B 1_555 1_555
H2L C3L 1_555 1_555
H2M C3M 1_555 1_555
H2N C3N 1_555 1_555
C4A C3A 1_555 1_555
C4B C3B 1_555 1_555
C4L C3L 1_555 1_555
C4M C3M 1_555 1_555
C4N C3N 1_555 1_555
H3A C4A 1_555 1_555
H3B C4B 1_555 1_555
H3L C4L 1_555 1_555
H3M C4M 1_555 1_555
H3N C4N 1_555 1_555
C5A N1A 1_555 1_555
C5B N1B 1_555 1_555
C5L N1L 1_555 1_555
C5M N1M 1_555 1_555
C5N N1N 1_555 1_555
H4A C5A 1_555 1_555
H4B C5B 1_555 1_555
H4L C5L 1_555 1_555
H4M C5M 1_555 1_555
H4N C5N 1_555 1_555
N1 C1 1_555 1_555
C4 C5 1_555 1_555
P1A O2A 1_555 1_555
P1A O3A 1_555 1_555
P1B O2B 1_555 1_555
P1B O3B 1_555 1_555
P1L O3L 1_555 1_555
P1M O2M 1_555 1_555
P1M O3M 1_555 1_555
P1N O2N 1_555 1_555
P1N O3N 1_555 1_555
N1A C1A 1_555 1_555
N1B C1B 1_555 1_555
N1L C1L 1_555 1_555
N1M C1M 1_555 1_555
N1N C1N 1_555 1_555
C4A C5A 1_555 1_555
C4B C5B 1_555 1_555
C4L C5L 1_555 1_555
C4M C5M 1_555 1_555
C4N C5N 1_555 1_555

#END
