
#######################################################################
#
#                 Cambridge Crystallographic Data Centre
#                                CCDC 
#
#######################################################################
#
# If this CIF has been generated from an entry in the Cambridge 
# Structural Database, then it will include bibliographic, chemical, 
# crystal, experimental, refinement or atomic coordinate data resulting 
# from the CCDC's data processing and validation procedures.
#
#######################################################################

data_WICXIQ
_symmetry_cell_setting           rhombohedral
_symmetry_space_group_name_H-M   'R -3'
_symmetry_Int_Tables_number      148
_space_group_name_Hall           '-R 3'
loop_
_symmetry_equiv_pos_site_id
_symmetry_equiv_pos_as_xyz
1 x,y,z
2 -y,x-y,z
3 -x+y,-x,z
4 2/3+x,1/3+y,1/3+z
5 2/3-y,1/3+x-y,1/3+z
6 2/3-x+y,1/3-x,1/3+z
7 1/3+x,2/3+y,2/3+z
8 1/3-y,2/3+x-y,2/3+z
9 1/3-x+y,2/3-x,2/3+z
10 -x,-y,-z
11 y,-x+y,-z
12 x-y,x,-z
13 1/3-x,2/3-y,2/3-z
14 1/3+y,2/3-x+y,2/3-z
15 1/3+x-y,2/3+x,2/3-z
16 2/3-x,1/3-y,1/3-z
17 2/3+y,1/3-x+y,1/3-z
18 2/3+x-y,1/3+x,1/3-z
_cell_length_a                   18.622(3)
_cell_length_b                   18.622(3)
_cell_length_c                   10.067(2)
_cell_angle_alpha                90
_cell_angle_beta                 90
_cell_angle_gamma                120.00
_cell_volume                     3023.31
loop_
_atom_site_label
_atom_site_type_symbol
_atom_site_fract_x
_atom_site_fract_y
_atom_site_fract_z
Ho1 Ho 0.6667 0.3333 -0.1667
Ho2 Ho 0.6667 0.3333 0.3333
Cu1 Cu 0.8333 0.1667 0.1667
P1 P 0.73987(15) 0.24686(15) 0.0889(2)
O1 O 0.8220(4) 0.2494(4) 0.0736(7)
O2 O 0.7372(4) 0.2952(4) 0.2041(6)
O3 O 0.7097(4) 0.2631(4) -0.0395(6)
N1 N 0.7103(5) 0.0962(5) 0.1627(8)
C1 C 0.6717(6) 0.1384(6) 0.1317(10)
C2 C 0.5849(7) 0.0969(7) 0.1320(11)
H1 H 0.5570 0.1262 0.1202
C3 C 0.5416(7) 0.0131(7) 0.1498(11)
H2 H 0.4840 -0.0155 0.1448
C4 C 0.5839(7) -0.0295(7) 0.1754(11)
H3 H 0.5551 -0.0864 0.1902
C5 C 0.6699(7) 0.0148(6) 0.1784(10)
H4 H 0.6993 -0.0129 0.1915
Ho2_2 Ho 0.6667 0.3333 -0.6667
Cu1A Cu 0.8333 0.6666 0.1667
Cu1B Cu 0.3334 0.1667 0.1667
Cu1C Cu 0.5000 0.5000 -0.5000
Cu1D Cu 0.5000 -0.0001 -0.5000
Cu1E Cu 1.0001 0.5000 -0.5000
P1A P 0.75314(15) 0.49301(21) 0.0889(2)
P1B P 0.50699(21) 0.26013(15) 0.0889(2)
P1L P 0.59346(15) 0.41981(15) -0.4222(2)
P1M P 0.58019(15) 0.17366(21) -0.4222(2)
P1N P 0.82634(21) 0.40654(15) -0.4222(2)
O1A O 0.7506(4) 0.5726(6) 0.0736(7)
O1B O 0.4274(6) 0.1780(4) 0.0736(7)
O1L O 0.5113(4) 0.4173(4) -0.4069(7)
O1M O 0.5827(4) 0.0941(6) -0.4069(7)
O1N O 0.9059(6) 0.4887(4) -0.4069(7)
O1O O 0.8447(4) 0.0839(4) 0.2597(7)
O1P O 0.9161(4) 0.7607(6) 0.2597(7)
O1Q O 0.2393(6) 0.1553(4) 0.2597(7)
O2A O 0.7048(4) 0.4420(6) 0.2041(6)
O2B O 0.5580(6) 0.2628(4) 0.2041(6)
O2L O 0.5961(4) 0.3715(4) -0.5374(6)
O2M O 0.6285(4) 0.2247(6) -0.5374(6)
O2N O 0.7753(6) 0.4039(4) -0.5374(6)
O2L_2 O 0.5961(4) 0.3715(4) 0.4626(6)
O2M_2 O 0.6285(4) 0.2247(6) 0.4626(6)
O2N_2 O 0.7753(6) 0.4039(4) 0.4626(6)
O3A O 0.7369(4) 0.4466(6) -0.0395(6)
O3B O 0.5534(6) 0.2903(4) -0.0395(6)
O3L O 0.6236(4) 0.4036(4) -0.2938(6)
O3M O 0.5964(4) 0.2201(6) -0.2938(6)
O3N O 0.7799(6) 0.3764(4) -0.2938(6)
N1A N 0.9038(5) 0.6141(7) 0.1627(8)
N1B N 0.3859(7) 0.2897(5) 0.1627(8)
N1L N 0.6230(5) 0.5705(5) -0.4960(8)
N1M N 0.4295(5) 0.0526(7) -0.4960(8)
N1N N 0.9474(7) 0.3770(5) -0.4960(8)
N1O N 0.9564(5) 0.2371(5) 0.1706(8)
N1P N 0.7629(5) 0.7192(7) 0.1706(8)
N1Q N 0.2808(7) 0.0436(5) 0.1706(8)
C1A C 0.8616(6) 0.5333(8) 0.1317(10)
C1B C 0.4667(8) 0.3283(6) 0.1317(10)
C1L C 0.6616(6) 0.5283(6) -0.4650(10)
C1M C 0.4717(6) 0.1334(8) -0.4650(10)
C1N C 0.8666(8) 0.3384(6) -0.4650(10)
C2A C 0.9031(7) 0.4880(10) 0.1320(11)
C2B C 0.5120(10) 0.4151(7) 0.1320(11)
C2L C 0.7484(7) 0.5698(7) -0.4653(11)
C2M C 0.4302(7) 0.1787(10) -0.4653(11)
C2N C 0.8213(10) 0.2516(7) -0.4653(11)
H1A H 0.8738 0.4308 0.1202
H1B H 0.5692 0.4430 0.1202
H1L H 0.7763 0.5405 -0.4535
H1M H 0.4595 0.2359 -0.4535
H1N H 0.7641 0.2237 -0.4535
C3A C 0.9869(7) 0.5285(10) 0.1498(11)
C3B C 0.4715(10) 0.4584(7) 0.1498(11)
C3L C 0.7917(7) 0.6536(7) -0.4831(11)
C3M C 0.3464(7) 0.1382(10) -0.4831(11)
C3N C 0.8618(10) 0.2083(7) -0.4831(11)
H2A H 1.0155 0.4995 0.1448
H2B H 0.5005 0.5160 0.1448
H2L H 0.8493 0.6822 -0.4781
H2M H 0.3178 0.1672 -0.4781
H2N H 0.8328 0.1507 -0.4781
C4A C 1.0295(7) 0.6134(10) 0.1754(11)
C4B C 0.3866(10) 0.4161(7) 0.1754(11)
C4L C 0.7494(7) 0.6962(7) -0.5087(11)
C4M C 0.3038(7) 0.0533(10) -0.5087(11)
C4N C 0.9467(10) 0.2506(7) -0.5087(11)
H3A H 1.0864 0.6415 0.1902
H3B H 0.3585 0.4449 0.1902
H3L H 0.7782 0.7531 -0.5235
H3M H 0.2469 0.0252 -0.5235
H3N H 0.9748 0.2218 -0.5235
C5A C 0.9852(6) 0.6551(9) 0.1784(10)
C5B C 0.3449(9) 0.3301(7) 0.1784(10)
C5L C 0.6634(7) 0.6519(6) -0.5117(10)
C5M C 0.3481(6) 0.0116(9) -0.5117(10)
C5N C 0.9884(9) 0.3366(7) -0.5117(10)
H4A H 1.0129 0.7122 0.1915
H4B H 0.2878 0.3007 0.1915
H4L H 0.6340 0.6796 -0.5248
H4M H 0.3204 -0.0455 -0.5248
H4N H 1.0455 0.3660 -0.5248
loop_
_geom_bond_atom_site_label_1
_geom_bond_atom_site_label_2
_geom_bond_site_symmetry_1
_geom_bond_site_symmetry_2
Ho1 O3 1_555 1_555
Ho2 O2 1_555 1_555
Cu1 O1 1_555 1_555
P1 O1 1_555 1_555
O2 P1 1_555 1_555
O3 P1 1_555 1_555
N1 Cu1 1_555 1_555
C1 P1 1_555 1_555
C2 C1 1_555 1_555
H1 C2 1_555 1_555
C3 C2 1_555 1_555
H2 C3 1_555 1_555
C4 C3 1_555 1_555
H3 C4 1_555 1_555
C5 N1 1_555 1_555
H4 C5 1_555 1_555
Ho2_2 O2L 1_555 1_555
Cu1A O1A 1_555 1_555
Cu1B O1B 1_555 1_555
Cu1C O1L 1_555 1_555
Cu1D O1M 1_555 1_555
Cu1E O1N 1_555 1_555
P1A O1A 1_555 1_555
P1B O1B 1_555 1_555
P1L O1L 1_555 1_555
P1M O1M 1_555 1_555
P1N O1N 1_555 1_555
O1O Cu1 1_555 1_555
O1P Cu1A 1_555 1_555
O1Q Cu1B 1_555 1_555
O2A Ho2 1_555 1_555
O2B Ho2 1_555 1_555
O2L P1L 1_555 1_555
O2M Ho2_2 1_555 1_555
O2N Ho2_2 1_555 1_555
O2L_2 Ho2 1_555 1_555
O2M_2 Ho2 1_555 1_555
O2N_2 Ho2 1_555 1_555
O3A Ho1 1_555 1_555
O3B Ho1 1_555 1_555
O3L Ho1 1_555 1_555
O3M Ho1 1_555 1_555
O3N Ho1 1_555 1_555
N1A Cu1A 1_555 1_555
N1B Cu1B 1_555 1_555
N1L Cu1C 1_555 1_555
N1M Cu1D 1_555 1_555
N1N Cu1E 1_555 1_555
N1O Cu1 1_555 1_555
N1P Cu1A 1_555 1_555
N1Q Cu1B 1_555 1_555
C1A P1A 1_555 1_555
C1B P1B 1_555 1_555
C1L P1L 1_555 1_555
C1M P1M 1_555 1_555
C1N P1N 1_555 1_555
C2A C1A 1_555 1_555
C2B C1B 1_555 1_555
C2L C1L 1_555 1_555
C2M C1M 1_555 1_555
C2N C1N 1_555 1_555
H1A C2A 1_555 1_555
H1B C2B 1_555 1_555
H1L C2L 1_555 1_555
H1M C2M 1_555 1_555
H1N C2N 1_555 1_555
C3A C2A 1_555 1_555
C3B C2B 1_555 1_555
C3L C2L 1_555 1_555
C3M C2M 1_555 1_555
C3N C2N 1_555 1_555
H2A C3A 1_555 1_555
H2B C3B 1_555 1_555
H2L C3L 1_555 1_555
H2M C3M 1_555 1_555
H2N C3N 1_555 1_555
C4A C3A 1_555 1_555
C4B C3B 1_555 1_555
C4L C3L 1_555 1_555
C4M C3M 1_555 1_555
C4N C3N 1_555 1_555
H3A C4A 1_555 1_555
H3B C4B 1_555 1_555
H3L C4L 1_555 1_555
H3M C4M 1_555 1_555
H3N C4N 1_555 1_555
C5A N1A 1_555 1_555
C5B N1B 1_555 1_555
C5L N1L 1_555 1_555
C5M N1M 1_555 1_555
C5N N1N 1_555 1_555
H4A C5A 1_555 1_555
H4B C5B 1_555 1_555
H4L C5L 1_555 1_555
H4M C5M 1_555 1_555
H4N C5N 1_555 1_555
N1 C1 1_555 1_555
C4 C5 1_555 1_555
P1A O2A 1_555 1_555
P1A O3A 1_555 1_555
P1B O2B 1_555 1_555
P1B O3B 1_555 1_555
P1L O3L 1_555 1_555
P1M O2M 1_555 1_555
P1M O3M 1_555 1_555
P1N O2N 1_555 1_555
P1N O3N 1_555 1_555
N1A C1A 1_555 1_555
N1B C1B 1_555 1_555
N1L C1L 1_555 1_555
N1M C1M 1_555 1_555
N1N C1N 1_555 1_555
C4A C5A 1_555 1_555
C4B C5B 1_555 1_555
C4L C5L 1_555 1_555
C4M C5M 1_555 1_555
C4N C5N 1_555 1_555

#END
