
#######################################################################
#
#                 Cambridge Crystallographic Data Centre
#                                CCDC 
#
#######################################################################
#
# If this CIF has been generated from an entry in the Cambridge 
# Structural Database, then it will include bibliographic, chemical, 
# crystal, experimental, refinement or atomic coordinate data resulting 
# from the CCDC's data processing and validation procedures.
#
#######################################################################

data_WICXUC
_symmetry_cell_setting           rhombohedral
_symmetry_space_group_name_H-M   'R -3'
_symmetry_Int_Tables_number      148
_space_group_name_Hall           '-R 3'
loop_
_symmetry_equiv_pos_site_id
_symmetry_equiv_pos_as_xyz
1 x,y,z
2 -y,x-y,z
3 -x+y,-x,z
4 2/3+x,1/3+y,1/3+z
5 2/3-y,1/3+x-y,1/3+z
6 2/3-x+y,1/3-x,1/3+z
7 1/3+x,2/3+y,2/3+z
8 1/3-y,2/3+x-y,2/3+z
9 1/3-x+y,2/3-x,2/3+z
10 -x,-y,-z
11 y,-x+y,-z
12 x-y,x,-z
13 1/3-x,2/3-y,2/3-z
14 1/3+y,2/3-x+y,2/3-z
15 1/3+x-y,2/3+x,2/3-z
16 2/3-x,1/3-y,1/3-z
17 2/3+y,1/3-x+y,1/3-z
18 2/3+x-y,1/3+x,1/3-z
_cell_length_a                   18.808(4)
_cell_length_b                   18.808(4)
_cell_length_c                   10.329(3)
_cell_angle_alpha                90
_cell_angle_beta                 90
_cell_angle_gamma                120
_cell_volume                     3164.27
loop_
_atom_site_label
_atom_site_type_symbol
_atom_site_fract_x
_atom_site_fract_y
_atom_site_fract_z
C1 C 0.6722(4) 0.1375(4) 0.1302(6)
C2 C 0.5877(5) 0.0969(5) 0.1267(8)
H1 H 0.5600 0.1250 0.1076
C3 C 0.5448(4) 0.0137(5) 0.1521(8)
H2 H 0.4877 -0.0145 0.1521
C4 C 0.5859(4) -0.0273(4) 0.1771(7)
H3 H 0.5578 -0.0839 0.1892
C5 C 0.6698(5) 0.0170(4) 0.1842(7)
H4 H 0.6983 -0.0100 0.2054
Cu1 Cu 0.8333 0.1667 0.1667
N1 N 0.7119(3) 0.0973(3) 0.1617(5)
O1 O 0.8225(3) 0.2480(3) 0.0743(5)
O2 O 0.7400(3) 0.2954(3) 0.1988(4)
O3 O 0.7108(3) 0.2600(3) -0.0366(5)
P1 P 0.74045(10) 0.24475(10) 0.08793(16)
Pr1 Pr 0.6667 0.3333 0.3333
Pr2 Pr 0.6667 0.3333 -0.1667
C1A C 0.8625(4) 0.5347(6) 0.1302(6)
C1B C 0.4653(6) 0.3278(4) 0.1302(6)
C1L C 0.6611(4) 0.5292(4) 0.5365(6)
C1M C 0.4708(4) 0.1320(6) 0.5365(6)
C1N C 0.8680(6) 0.3389(4) 0.5365(6)
C2A C 0.9031(5) 0.4908(7) 0.1267(8)
C2B C 0.5092(7) 0.4123(5) 0.1267(8)
C2L C 0.7456(5) 0.5698(5) 0.5400(8)
C2M C 0.4302(5) 0.1759(7) 0.5400(8)
C2N C 0.8241(7) 0.2544(5) 0.5400(8)
H1A H 0.8750 0.4350 0.1076
H1B H 0.5650 0.4400 0.1076
H1L H 0.7733 0.5417 0.5591
H1M H 0.4583 0.2317 0.5591
H1N H 0.7683 0.2267 0.5591
C3A C 0.9863(5) 0.5311(6) 0.1521(8)
C3B C 0.4689(6) 0.4552(4) 0.1521(8)
C3L C 0.7885(4) 0.6530(5) 0.5146(8)
C3M C 0.3470(5) 0.1356(6) 0.5146(8)
C3N C 0.8644(6) 0.2115(4) 0.5146(8)
H2A H 1.0145 0.5022 0.1521
H2B H 0.4978 0.5123 0.1521
H2L H 0.8456 0.6812 0.5146
H2M H 0.3188 0.1645 0.5146
H2N H 0.8355 0.1544 0.5146
C4A C 1.0273(4) 0.6132(6) 0.1771(7)
C4B C 0.3868(6) 0.4141(4) 0.1771(7)
C4L C 0.7474(4) 0.6940(4) 0.4896(7)
C4M C 0.3060(4) 0.0535(6) 0.4896(7)
C4N C 0.9465(6) 0.2526(4) 0.4896(7)
H3A H 1.0839 0.6417 0.1892
H3B H 0.3583 0.4422 0.1892
H3L H 0.7755 0.7506 0.4775
H3M H 0.2494 0.0250 0.4775
H3N H 0.9750 0.2245 0.4775
C5A C 0.9830(4) 0.6528(6) 0.1842(7)
C5B C 0.3472(6) 0.3302(5) 0.1842(7)
C5L C 0.6635(5) 0.6497(4) 0.4825(7)
C5M C 0.3503(4) 0.0139(6) 0.4825(7)
C5N C 0.9861(6) 0.3365(5) 0.4825(7)
H4A H 1.0100 0.7083 0.2054
H4B H 0.2917 0.3017 0.2054
H4L H 0.6350 0.6767 0.4613
H4M H 0.3233 -0.0416 0.4613
H4N H 1.0416 0.3650 0.4613
Cu1A Cu 0.8333 0.6666 0.1667
Cu1B Cu 0.3334 0.1667 0.1667
Cu1C Cu 0.5000 0.5000 0.5000
Cu1D Cu 0.5000 -0.0001 0.5000
Cu1E Cu 1.0001 0.5000 0.5000
N1A N 0.9027(3) 0.6146(4) 0.1617(5)
N1B N 0.3854(4) 0.2881(3) 0.1617(5)
N1L N 0.6214(3) 0.5694(3) 0.5050(5)
N1M N 0.4306(3) 0.0521(4) 0.5050(5)
N1N N 0.9479(4) 0.3786(3) 0.5050(5)
N1O N 0.9548(3) 0.2360(3) 0.1716(5)
N1P N 0.7640(3) 0.7187(4) 0.1716(5)
N1Q N 0.2813(4) 0.0452(3) 0.1716(5)
O1A O 0.7520(3) 0.5745(4) 0.0743(5)
O1B O 0.4255(4) 0.1775(3) 0.0743(5)
O1L O 0.5108(3) 0.4187(3) 0.5924(5)
O1M O 0.5813(3) 0.0922(4) 0.5924(5)
O1N O 0.9078(4) 0.4892(3) 0.5924(5)
O1O O 0.8442(3) 0.0853(3) 0.2590(5)
O1P O 0.9147(3) 0.7588(4) 0.2590(5)
O1Q O 0.2412(4) 0.1558(3) 0.2590(5)
O2A O 0.7046(3) 0.4446(4) 0.1988(4)
O2B O 0.5554(4) 0.2600(3) 0.1988(4)
O2L O 0.5933(3) 0.3713(3) 0.4679(4)
O2M O 0.6287(3) 0.2221(4) 0.4679(4)
O2N O 0.7779(4) 0.4067(3) 0.4679(4)
O3A O 0.7400(3) 0.4508(4) -0.0366(5)
O3B O 0.5492(4) 0.2892(3) -0.0366(5)
O3L O 0.6225(3) 0.4067(3) 0.7033(5)
O3M O 0.5933(3) 0.2159(4) 0.7033(5)
O3N O 0.7841(4) 0.3775(3) 0.7033(5)
O3L_2 O 0.6225(3) 0.4067(3) -0.2967(5)
O3M_2 O 0.5933(3) 0.2159(4) -0.2967(5)
O3N_2 O 0.7841(4) 0.3775(3) -0.2967(5)
P1A P 0.75525(10) 0.49570(14) 0.08793(16)
P1B P 0.50430(14) 0.25955(10) 0.08793(16)
P1L P 0.59288(10) 0.42192(10) 0.57874(16)
P1M P 0.57808(10) 0.17097(14) 0.57874(16)
P1N P 0.82903(14) 0.40712(10) 0.57874(16)
Pr2_2 Pr 0.6667 0.3333 0.8333
loop_
_geom_bond_atom_site_label_1
_geom_bond_atom_site_label_2
_geom_bond_site_symmetry_1
_geom_bond_site_symmetry_2
C1 C2 1_555 1_555
C2 H1 1_555 1_555
C3 C2 1_555 1_555
H2 C3 1_555 1_555
C4 C3 1_555 1_555
H3 C4 1_555 1_555
C5 C4 1_555 1_555
H4 C5 1_555 1_555
Cu1 N1 1_555 1_555
N1 C1 1_555 1_555
O1 Cu1 1_555 1_555
O2 P1 1_555 1_555
O3 P1 1_555 1_555
P1 C1 1_555 1_555
Pr1 O2 1_555 1_555
Pr2 O3 1_555 1_555
C1A C2A 1_555 1_555
C1B C2B 1_555 1_555
C1L C2L 1_555 1_555
C1M C2M 1_555 1_555
C1N C2N 1_555 1_555
C2A H1A 1_555 1_555
C2B H1B 1_555 1_555
C2L H1L 1_555 1_555
C2M H1M 1_555 1_555
C2N H1N 1_555 1_555
C3A C2A 1_555 1_555
C3B C2B 1_555 1_555
C3L C2L 1_555 1_555
C3M C2M 1_555 1_555
C3N C2N 1_555 1_555
H2A C3A 1_555 1_555
H2B C3B 1_555 1_555
H2L C3L 1_555 1_555
H2M C3M 1_555 1_555
H2N C3N 1_555 1_555
C4A C3A 1_555 1_555
C4B C3B 1_555 1_555
C4L C3L 1_555 1_555
C4M C3M 1_555 1_555
C4N C3N 1_555 1_555
H3A C4A 1_555 1_555
H3B C4B 1_555 1_555
H3L C4L 1_555 1_555
H3M C4M 1_555 1_555
H3N C4N 1_555 1_555
C5A C4A 1_555 1_555
C5B C4B 1_555 1_555
C5L C4L 1_555 1_555
C5M C4M 1_555 1_555
C5N C4N 1_555 1_555
H4A C5A 1_555 1_555
H4B C5B 1_555 1_555
H4L C5L 1_555 1_555
H4M C5M 1_555 1_555
H4N C5N 1_555 1_555
Cu1A N1A 1_555 1_555
Cu1B N1B 1_555 1_555
Cu1C N1L 1_555 1_555
Cu1D N1M 1_555 1_555
Cu1E N1N 1_555 1_555
N1A C1A 1_555 1_555
N1B C1B 1_555 1_555
N1L C1L 1_555 1_555
N1M C1M 1_555 1_555
N1N C1N 1_555 1_555
N1O Cu1 1_555 1_555
N1P Cu1A 1_555 1_555
N1Q Cu1B 1_555 1_555
O1A Cu1A 1_555 1_555
O1B Cu1B 1_555 1_555
O1L Cu1C 1_555 1_555
O1M Cu1D 1_555 1_555
O1N Cu1E 1_555 1_555
O1O Cu1 1_555 1_555
O1P Cu1A 1_555 1_555
O1Q Cu1B 1_555 1_555
O2A Pr1 1_555 1_555
O2B Pr1 1_555 1_555
O2L Pr1 1_555 1_555
O2M Pr1 1_555 1_555
O2N Pr1 1_555 1_555
O3A Pr2 1_555 1_555
O3B Pr2 1_555 1_555
O3L P1L 1_555 1_555
O3M P1M 1_555 1_555
O3N P1N 1_555 1_555
O3L_2 Pr2 1_555 1_555
O3M_2 Pr2 1_555 1_555
O3N_2 Pr2 1_555 1_555
P1A C1A 1_555 1_555
P1B C1B 1_555 1_555
P1L C1L 1_555 1_555
P1M C1M 1_555 1_555
P1N C1N 1_555 1_555
Pr2_2 O3L 1_555 1_555
C5 N1 1_555 1_555
O1 P1 1_555 1_555
C5A N1A 1_555 1_555
C5B N1B 1_555 1_555
C5L N1L 1_555 1_555
C5M N1M 1_555 1_555
C5N N1N 1_555 1_555
O1A P1A 1_555 1_555
O1B P1B 1_555 1_555
O1L P1L 1_555 1_555
O1M P1M 1_555 1_555
O1N P1N 1_555 1_555
O2A P1A 1_555 1_555
O2B P1B 1_555 1_555
O2L P1L 1_555 1_555
O2M P1M 1_555 1_555
O2N P1N 1_555 1_555
O3A P1A 1_555 1_555
O3B P1B 1_555 1_555
O3M Pr2_2 1_555 1_555
O3N Pr2_2 1_555 1_555

#END
