
#######################################################################
#
#                 Cambridge Crystallographic Data Centre
#                                CCDC 
#
#######################################################################
#
# If this CIF has been generated from an entry in the Cambridge 
# Structural Database, then it will include bibliographic, chemical, 
# crystal, experimental, refinement or atomic coordinate data resulting 
# from the CCDC's data processing and validation procedures.
#
#######################################################################

data_WICXAI
_symmetry_cell_setting           rhombohedral
_symmetry_space_group_name_H-M   'R -3'
_symmetry_Int_Tables_number      148
_space_group_name_Hall           '-R 3'
loop_
_symmetry_equiv_pos_site_id
_symmetry_equiv_pos_as_xyz
1 x,y,z
2 -y,x-y,z
3 -x+y,-x,z
4 2/3+x,1/3+y,1/3+z
5 2/3-y,1/3+x-y,1/3+z
6 2/3-x+y,1/3-x,1/3+z
7 1/3+x,2/3+y,2/3+z
8 1/3-y,2/3+x-y,2/3+z
9 1/3-x+y,2/3-x,2/3+z
10 -x,-y,-z
11 y,-x+y,-z
12 x-y,x,-z
13 1/3-x,2/3-y,2/3-z
14 1/3+y,2/3-x+y,2/3-z
15 1/3+x-y,2/3+x,2/3-z
16 2/3-x,1/3-y,1/3-z
17 2/3+y,1/3-x+y,1/3-z
18 2/3+x-y,1/3+x,1/3-z
_cell_length_a                   18.724(3)
_cell_length_b                   18.724(3)
_cell_length_c                   10.210(2)
_cell_angle_alpha                90
_cell_angle_beta                 90
_cell_angle_gamma                120.00
_cell_volume                     3099.94
loop_
_atom_site_label
_atom_site_type_symbol
_atom_site_fract_x
_atom_site_fract_y
_atom_site_fract_z
Eu1 Eu 0.6667 0.3333 0.3333
Eu2 Eu 0.6667 0.3333 -0.1667
Cu1 Cu 0.8333 0.1667 0.1667
P1 P 0.73963(5) 0.24521(5) 0.08824(7)
O1 O 0.82232(13) 0.24855(13) 0.0734(2)
O2 O 0.73986(14) 0.29603(14) 0.2012(2)
O3 O 0.70936(14) 0.26140(13) -0.0376(2)
N1 N 0.71153(16) 0.09707(15) 0.1615(2)
C1 C 0.67158(18) 0.13745(18) 0.1306(3)
C2 C 0.5863(2) 0.0964(2) 0.1287(4)
H1 H 0.5585 0.1250 0.1122
C3 C 0.5427(2) 0.0122(2) 0.1517(4)
H2 H 0.4854 -0.0163 0.1508
C4 C 0.5852(2) -0.0284(2) 0.1757(3)
H3 H 0.5571 -0.0853 0.1871
C5 C 0.6692(2) 0.0155(2) 0.1828(3)
H4 H 0.6978 -0.0118 0.2029
Eu2_2 Eu 0.6667 0.3333 0.8333
Cu1A Cu 0.8333 0.6666 0.1667
Cu1B Cu 0.3334 0.1667 0.1667
Cu1C Cu 0.5000 0.5000 0.5000
Cu1D Cu 0.5000 -0.0001 0.5000
Cu1E Cu 1.0001 0.5000 0.5000
P1A P 0.75479(5) 0.49442(7) 0.08824(7)
P1B P 0.50558(7) 0.26037(5) 0.08824(7)
P1L P 0.59370(5) 0.42146(5) 0.57843(7)
P1M P 0.57854(5) 0.17225(7) 0.57843(7)
P1N P 0.82775(7) 0.40630(5) 0.57843(7)
O1A O 0.75145(13) 0.57377(18) 0.0734(2)
O1B O 0.42623(18) 0.17768(13) 0.0734(2)
O1L O 0.51101(13) 0.41812(13) 0.5933(2)
O1M O 0.58188(13) 0.09290(18) 0.5933(2)
O1N O 0.90710(18) 0.48899(13) 0.5933(2)
O1O O 0.84435(13) 0.08478(13) 0.2599(2)
O1P O 0.91522(13) 0.75956(18) 0.2599(2)
O1Q O 0.24044(18) 0.15565(13) 0.2599(2)
O2A O 0.70397(14) 0.44383(20) 0.2012(2)
O2B O 0.55617(20) 0.26014(14) 0.2012(2)
O2L O 0.59347(14) 0.37064(14) 0.4655(2)
O2M O 0.62936(14) 0.22284(20) 0.4655(2)
O2N O 0.77716(20) 0.40653(14) 0.4655(2)
O3A O 0.73860(13) 0.44796(19) -0.0376(2)
O3B O 0.55204(19) 0.29064(14) -0.0376(2)
O3L O 0.62397(14) 0.40527(13) 0.7043(2)
O3M O 0.59473(13) 0.21871(19) 0.7043(2)
O3N O 0.78129(19) 0.37603(14) 0.7043(2)
O3L_2 O 0.62397(14) 0.40527(13) -0.2957(2)
O3M_2 O 0.59473(13) 0.21871(19) -0.2957(2)
O3N_2 O 0.78129(19) 0.37603(14) -0.2957(2)
N1A N 0.90293(15) 0.61446(22) 0.1615(2)
N1B N 0.38554(22) 0.28847(16) 0.1615(2)
N1L N 0.62180(16) 0.56960(15) 0.5052(2)
N1M N 0.43040(15) 0.05221(22) 0.5052(2)
N1N N 0.94779(22) 0.37820(16) 0.5052(2)
N1O N 0.95514(16) 0.23626(15) 0.1718(2)
N1P N 0.76374(15) 0.71887(22) 0.1718(2)
N1Q N 0.28113(22) 0.04486(16) 0.1718(2)
C1A C 0.86255(18) 0.53413(25) 0.1306(3)
C1B C 0.46587(25) 0.32842(18) 0.1306(3)
C1L C 0.66175(18) 0.52922(18) 0.5361(3)
C1M C 0.47078(18) 0.13254(25) 0.5361(3)
C1N C 0.86746(25) 0.33825(18) 0.5361(3)
C2A C 0.9036(2) 0.4899(3) 0.1287(4)
C2B C 0.5101(3) 0.4137(2) 0.1287(4)
C2L C 0.7470(2) 0.5703(2) 0.5380(4)
C2M C 0.4297(2) 0.1768(3) 0.5380(4)
C2N C 0.8232(3) 0.2530(2) 0.5380(4)
H1A H 0.8750 0.4335 0.1122
H1B H 0.5665 0.4415 0.1122
H1L H 0.7748 0.5417 0.5545
H1M H 0.4583 0.2332 0.5545
H1N H 0.7668 0.2252 0.5545
C3A C 0.9878(2) 0.5305(3) 0.1517(4)
C3B C 0.4695(3) 0.4573(2) 0.1517(4)
C3L C 0.7906(2) 0.6545(2) 0.5150(4)
C3M C 0.3455(2) 0.1362(3) 0.5150(4)
C3N C 0.8638(3) 0.2094(2) 0.5150(4)
H2A H 1.0163 0.5017 0.1508
H2B H 0.4983 0.5146 0.1508
H2L H 0.8479 0.6830 0.5159
H2M H 0.3170 0.1650 0.5159
H2N H 0.8350 0.1521 0.5159
C4A C 1.0284(2) 0.6136(3) 0.1757(3)
C4B C 0.3864(3) 0.4148(2) 0.1757(3)
C4L C 0.7481(2) 0.6951(2) 0.4910(3)
C4M C 0.3049(2) 0.0531(3) 0.4910(3)
C4N C 0.9469(3) 0.2519(2) 0.4910(3)
H3A H 1.0853 0.6424 0.1871
H3B H 0.3576 0.4429 0.1871
H3L H 0.7762 0.7520 0.4796
H3M H 0.2480 0.0243 0.4796
H3N H 0.9757 0.2238 0.4796
C5A C 0.9845(2) 0.6537(3) 0.1828(3)
C5B C 0.3463(3) 0.3308(2) 0.1828(3)
C5L C 0.6641(2) 0.6512(2) 0.4839(3)
C5M C 0.3488(2) 0.0130(3) 0.4839(3)
C5N C 0.9870(3) 0.3359(2) 0.4839(3)
H4A H 1.0118 0.7096 0.2029
H4B H 0.2904 0.3022 0.2029
H4L H 0.6355 0.6785 0.4638
H4M H 0.3215 -0.0429 0.4638
H4N H 1.0429 0.3645 0.4638
loop_
_geom_bond_atom_site_label_1
_geom_bond_atom_site_label_2
_geom_bond_site_symmetry_1
_geom_bond_site_symmetry_2
Eu1 O2 1_555 1_555
Eu2 O3 1_555 1_555
Cu1 O1 1_555 1_555
P1 O1 1_555 1_555
O2 P1 1_555 1_555
O3 P1 1_555 1_555
N1 Cu1 1_555 1_555
C1 P1 1_555 1_555
C2 C1 1_555 1_555
H1 C2 1_555 1_555
C3 C2 1_555 1_555
H2 C3 1_555 1_555
C4 C3 1_555 1_555
H3 C4 1_555 1_555
C5 N1 1_555 1_555
H4 C5 1_555 1_555
Eu2_2 O3L 1_555 1_555
Cu1A O1A 1_555 1_555
Cu1B O1B 1_555 1_555
Cu1C O1L 1_555 1_555
Cu1D O1M 1_555 1_555
Cu1E O1N 1_555 1_555
P1A O1A 1_555 1_555
P1B O1B 1_555 1_555
P1L O1L 1_555 1_555
P1M O1M 1_555 1_555
P1N O1N 1_555 1_555
O1O Cu1 1_555 1_555
O1P Cu1A 1_555 1_555
O1Q Cu1B 1_555 1_555
O2A Eu1 1_555 1_555
O2B Eu1 1_555 1_555
O2L Eu1 1_555 1_555
O2M Eu1 1_555 1_555
O2N Eu1 1_555 1_555
O3A Eu2 1_555 1_555
O3B Eu2 1_555 1_555
O3L P1L 1_555 1_555
O3M Eu2_2 1_555 1_555
O3N Eu2_2 1_555 1_555
O3L_2 Eu2 1_555 1_555
O3M_2 Eu2 1_555 1_555
O3N_2 Eu2 1_555 1_555
N1A Cu1A 1_555 1_555
N1B Cu1B 1_555 1_555
N1L Cu1C 1_555 1_555
N1M Cu1D 1_555 1_555
N1N Cu1E 1_555 1_555
N1O Cu1 1_555 1_555
N1P Cu1A 1_555 1_555
N1Q Cu1B 1_555 1_555
C1A P1A 1_555 1_555
C1B P1B 1_555 1_555
C1L P1L 1_555 1_555
C1M P1M 1_555 1_555
C1N P1N 1_555 1_555
C2A C1A 1_555 1_555
C2B C1B 1_555 1_555
C2L C1L 1_555 1_555
C2M C1M 1_555 1_555
C2N C1N 1_555 1_555
H1A C2A 1_555 1_555
H1B C2B 1_555 1_555
H1L C2L 1_555 1_555
H1M C2M 1_555 1_555
H1N C2N 1_555 1_555
C3A C2A 1_555 1_555
C3B C2B 1_555 1_555
C3L C2L 1_555 1_555
C3M C2M 1_555 1_555
C3N C2N 1_555 1_555
H2A C3A 1_555 1_555
H2B C3B 1_555 1_555
H2L C3L 1_555 1_555
H2M C3M 1_555 1_555
H2N C3N 1_555 1_555
C4A C3A 1_555 1_555
C4B C3B 1_555 1_555
C4L C3L 1_555 1_555
C4M C3M 1_555 1_555
C4N C3N 1_555 1_555
H3A C4A 1_555 1_555
H3B C4B 1_555 1_555
H3L C4L 1_555 1_555
H3M C4M 1_555 1_555
H3N C4N 1_555 1_555
C5A N1A 1_555 1_555
C5B N1B 1_555 1_555
C5L N1L 1_555 1_555
C5M N1M 1_555 1_555
C5N N1N 1_555 1_555
H4A C5A 1_555 1_555
H4B C5B 1_555 1_555
H4L C5L 1_555 1_555
H4M C5M 1_555 1_555
H4N C5N 1_555 1_555
N1 C1 1_555 1_555
C4 C5 1_555 1_555
P1A O2A 1_555 1_555
P1A O3A 1_555 1_555
P1B O2B 1_555 1_555
P1B O3B 1_555 1_555
P1L O2L 1_555 1_555
P1M O2M 1_555 1_555
P1M O3M 1_555 1_555
P1N O2N 1_555 1_555
P1N O3N 1_555 1_555
N1A C1A 1_555 1_555
N1B C1B 1_555 1_555
N1L C1L 1_555 1_555
N1M C1M 1_555 1_555
N1N C1N 1_555 1_555
C4A C5A 1_555 1_555
C4B C5B 1_555 1_555
C4L C5L 1_555 1_555
C4M C5M 1_555 1_555
C4N C5N 1_555 1_555

#END
