
#######################################################################
#
#                 Cambridge Crystallographic Data Centre
#                                CCDC 
#
#######################################################################
#
# If this CIF has been generated from an entry in the Cambridge 
# Structural Database, then it will include bibliographic, chemical, 
# crystal, experimental, refinement or atomic coordinate data resulting 
# from the CCDC's data processing and validation procedures.
#
#######################################################################

data_WICXEM
_symmetry_cell_setting           rhombohedral
_symmetry_space_group_name_H-M   'R -3'
_symmetry_Int_Tables_number      148
_space_group_name_Hall           '-R 3'
loop_
_symmetry_equiv_pos_site_id
_symmetry_equiv_pos_as_xyz
1 x,y,z
2 -y,x-y,z
3 -x+y,-x,z
4 2/3+x,1/3+y,1/3+z
5 2/3-y,1/3+x-y,1/3+z
6 2/3-x+y,1/3-x,1/3+z
7 1/3+x,2/3+y,2/3+z
8 1/3-y,2/3+x-y,2/3+z
9 1/3-x+y,2/3-x,2/3+z
10 -x,-y,-z
11 y,-x+y,-z
12 x-y,x,-z
13 1/3-x,2/3-y,2/3-z
14 1/3+y,2/3-x+y,2/3-z
15 1/3+x-y,2/3+x,2/3-z
16 2/3-x,1/3-y,1/3-z
17 2/3+y,1/3-x+y,1/3-z
18 2/3+x-y,1/3+x,1/3-z
_cell_length_a                   18.742(3)
_cell_length_b                   18.742(3)
_cell_length_c                   10.191(2)
_cell_angle_alpha                90
_cell_angle_beta                 90
_cell_angle_gamma                120.00
_cell_volume                     3100.13
loop_
_atom_site_label
_atom_site_type_symbol
_atom_site_fract_x
_atom_site_fract_y
_atom_site_fract_z
Gd1 Gd 0.6667 0.3333 0.3333
Gd2 Gd 0.6667 0.3333 -0.1667
Cu1 Cu 0.8333 0.1667 0.1667
P1 P 0.75471(7) 0.26047(7) 0.08835(10)
O1 O 0.70401(18) 0.26041(18) 0.2026(3)
O2 O 0.73873(18) 0.29061(18) -0.0381(3)
O3 O 0.75156(17) 0.17831(17) 0.0732(3)
N1 N 0.9030(2) 0.2883(2) 0.1616(3)
C1 C 0.8628(2) 0.3288(3) 0.1307(4)
C2 C 0.9037(3) 0.4134(3) 0.1283(4)
H1 H 0.8752 0.4412 0.1110
C3 C 0.9879(3) 0.4570(3) 0.1518(4)
H2 H 1.0164 0.5143 0.1517
C4 C 1.0283(3) 0.4144(3) 0.1752(4)
H3 H 1.0852 0.4423 0.1859
C5 C 0.9843(3) 0.3307(3) 0.1825(4)
H4 H 1.0116 0.3022 0.2028
Gd2_2 Gd 0.6667 0.3333 0.8333
Cu1A Cu 0.8333 0.6666 0.1667
Cu1B Cu 0.3334 0.1667 0.1667
Cu1C Cu 0.5000 0.5000 0.5000
Cu1D Cu 0.5000 -0.0001 0.5000
Cu1E Cu 1.0001 0.5000 0.5000
P1A P 0.73953(7) 0.49424(10) 0.08835(10)
P1B P 0.50576(10) 0.24529(7) 0.08835(10)
P1L P 0.57862(7) 0.40620(7) 0.57832(10)
P1M P 0.59380(7) 0.17243(10) 0.57832(10)
P1N P 0.82757(10) 0.42138(7) 0.57832(10)
O1A O 0.73959(18) 0.44360(25) 0.2026(3)
O1B O 0.55640(25) 0.29599(18) 0.2026(3)
O1L O 0.62932(18) 0.40626(18) 0.4641(3)
O1M O 0.59374(18) 0.22307(25) 0.4641(3)
O1N O 0.77693(25) 0.37068(18) 0.4641(3)
O2A O 0.70939(18) 0.44812(25) -0.0381(3)
O2B O 0.55188(25) 0.26127(18) -0.0381(3)
O2L O 0.59460(18) 0.37606(18) 0.7048(3)
O2M O 0.62394(18) 0.21855(25) 0.7048(3)
O2N O 0.78145(25) 0.40540(18) 0.7048(3)
O2L_2 O 0.59460(18) 0.37606(18) -0.2952(3)
O2M_2 O 0.62394(18) 0.21855(25) -0.2952(3)
O2N_2 O 0.78145(25) 0.40540(18) -0.2952(3)
O3A O 0.82169(17) 0.57325(24) 0.0732(3)
O3B O 0.42675(24) 0.24844(17) 0.0732(3)
O3L O 0.58177(17) 0.48836(17) 0.5935(3)
O3M O 0.51164(17) 0.09342(24) 0.5935(3)
O3N O 0.90658(24) 0.41823(17) 0.5935(3)
O3O O 0.91511(17) 0.15502(17) 0.2601(3)
O3P O 0.84498(17) 0.76008(24) 0.2601(3)
O3Q O 0.23992(24) 0.08489(17) 0.2601(3)
N1A N 0.7117(2) 0.6147(3) 0.1616(3)
N1B N 0.3853(3) 0.0970(2) 0.1616(3)
N1L N 0.4303(2) 0.3784(2) 0.5051(3)
N1M N 0.6216(2) 0.0520(3) 0.5051(3)
N1N N 0.9480(3) 0.5697(2) 0.5051(3)
N1O N 0.7637(2) 0.0450(2) 0.1717(3)
N1P N 0.9550(2) 0.7186(3) 0.1717(3)
N1Q N 0.2814(3) 0.2363(2) 0.1717(3)
C1A C 0.6712(3) 0.5340(4) 0.1307(4)
C1B C 0.4660(4) 0.1372(2) 0.1307(4)
C1L C 0.4705(2) 0.3379(3) 0.5360(4)
C1M C 0.6621(3) 0.1327(4) 0.5360(4)
C1N C 0.8673(4) 0.5295(2) 0.5360(4)
C2A C 0.5866(3) 0.4903(4) 0.1283(4)
C2B C 0.5097(4) 0.0963(3) 0.1283(4)
C2L C 0.4296(3) 0.2533(3) 0.5384(4)
C2M C 0.7467(3) 0.1764(4) 0.5384(4)
C2N C 0.8236(4) 0.5704(3) 0.5384(4)
H1A H 0.5588 0.4340 0.1110
H1B H 0.5660 0.1248 0.1110
H1L H 0.4581 0.2255 0.5557
H1M H 0.7745 0.2327 0.5557
H1N H 0.7673 0.5419 0.5557
C3A C 0.5430(3) 0.5309(4) 0.1518(4)
C3B C 0.4691(4) 0.0121(3) 0.1518(4)
C3L C 0.3454(3) 0.2097(3) 0.5149(4)
C3M C 0.7903(3) 0.1358(4) 0.5149(4)
C3N C 0.8642(4) 0.6546(3) 0.5149(4)
H2A H 0.4857 0.5021 0.1517
H2B H 0.4979 -0.0164 0.1517
H2L H 0.3169 0.1524 0.5150
H2M H 0.8476 0.1646 0.5150
H2N H 0.8354 0.6831 0.5150
C4A C 0.5856(3) 0.6139(4) 0.1752(4)
C4B C 0.3861(4) -0.0283(3) 0.1752(4)
C4L C 0.3050(3) 0.2523(3) 0.4915(4)
C4M C 0.7477(3) 0.0528(4) 0.4915(4)
C4N C 0.9472(4) 0.6950(3) 0.4915(4)
H3A H 0.5577 0.6429 0.1859
H3B H 0.3571 -0.0852 0.1859
H3L H 0.2481 0.2244 0.4808
H3M H 0.7756 0.0238 0.4808
H3N H 0.9762 0.7519 0.4808
C5A C 0.6693(3) 0.6536(4) 0.1825(4)
C5B C 0.3464(4) 0.0157(3) 0.1825(4)
C5L C 0.3490(3) 0.3360(3) 0.4842(4)
C5M C 0.6640(3) 0.0131(4) 0.4842(4)
C5N C 0.9869(4) 0.6510(3) 0.4842(4)
H4A H 0.6978 0.7094 0.2028
H4B H 0.2906 -0.0116 0.2028
H4L H 0.3217 0.3645 0.4639
H4M H 0.6355 -0.0427 0.4639
H4N H 1.0427 0.6783 0.4639
loop_
_geom_bond_atom_site_label_1
_geom_bond_atom_site_label_2
_geom_bond_site_symmetry_1
_geom_bond_site_symmetry_2
Gd1 O1 1_555 1_555
Gd2 O2 1_555 1_555
Cu1 O3 1_555 1_555
P1 O1 1_555 1_555
O2 P1 1_555 1_555
O3 P1 1_555 1_555
N1 Cu1 1_555 1_555
C1 P1 1_555 1_555
C2 C1 1_555 1_555
H1 C2 1_555 1_555
C3 C2 1_555 1_555
H2 C3 1_555 1_555
C4 C3 1_555 1_555
H3 C4 1_555 1_555
C5 N1 1_555 1_555
H4 C5 1_555 1_555
Gd2_2 O2L 1_555 1_555
Cu1A O3A 1_555 1_555
Cu1B O3B 1_555 1_555
Cu1C O3L 1_555 1_555
Cu1D O3M 1_555 1_555
Cu1E O3N 1_555 1_555
P1A O1A 1_555 1_555
P1B O1B 1_555 1_555
P1L O1L 1_555 1_555
P1M O1M 1_555 1_555
P1N O1N 1_555 1_555
O1A Gd1 1_555 1_555
O1B Gd1 1_555 1_555
O1L Gd1 1_555 1_555
O1M Gd1 1_555 1_555
O1N Gd1 1_555 1_555
O2A Gd2 1_555 1_555
O2B Gd2 1_555 1_555
O2L P1L 1_555 1_555
O2M Gd2_2 1_555 1_555
O2N Gd2_2 1_555 1_555
O2L_2 Gd2 1_555 1_555
O2M_2 Gd2 1_555 1_555
O2N_2 Gd2 1_555 1_555
O3A P1A 1_555 1_555
O3B P1B 1_555 1_555
O3L P1L 1_555 1_555
O3M P1M 1_555 1_555
O3N P1N 1_555 1_555
O3O Cu1 1_555 1_555
O3P Cu1A 1_555 1_555
O3Q Cu1B 1_555 1_555
N1A Cu1A 1_555 1_555
N1B Cu1B 1_555 1_555
N1L Cu1C 1_555 1_555
N1M Cu1D 1_555 1_555
N1N Cu1E 1_555 1_555
N1O Cu1 1_555 1_555
N1P Cu1A 1_555 1_555
N1Q Cu1B 1_555 1_555
C1A P1A 1_555 1_555
C1B P1B 1_555 1_555
C1L P1L 1_555 1_555
C1M P1M 1_555 1_555
C1N P1N 1_555 1_555
C2A C1A 1_555 1_555
C2B C1B 1_555 1_555
C2L C1L 1_555 1_555
C2M C1M 1_555 1_555
C2N C1N 1_555 1_555
H1A C2A 1_555 1_555
H1B C2B 1_555 1_555
H1L C2L 1_555 1_555
H1M C2M 1_555 1_555
H1N C2N 1_555 1_555
C3A C2A 1_555 1_555
C3B C2B 1_555 1_555
C3L C2L 1_555 1_555
C3M C2M 1_555 1_555
C3N C2N 1_555 1_555
H2A C3A 1_555 1_555
H2B C3B 1_555 1_555
H2L C3L 1_555 1_555
H2M C3M 1_555 1_555
H2N C3N 1_555 1_555
C4A C3A 1_555 1_555
C4B C3B 1_555 1_555
C4L C3L 1_555 1_555
C4M C3M 1_555 1_555
C4N C3N 1_555 1_555
H3A C4A 1_555 1_555
H3B C4B 1_555 1_555
H3L C4L 1_555 1_555
H3M C4M 1_555 1_555
H3N C4N 1_555 1_555
C5A N1A 1_555 1_555
C5B N1B 1_555 1_555
C5L N1L 1_555 1_555
C5M N1M 1_555 1_555
C5N N1N 1_555 1_555
H4A C5A 1_555 1_555
H4B C5B 1_555 1_555
H4L C5L 1_555 1_555
H4M C5M 1_555 1_555
H4N C5N 1_555 1_555
N1 C1 1_555 1_555
C4 C5 1_555 1_555
P1A O2A 1_555 1_555
P1B O2B 1_555 1_555
P1M O2M 1_555 1_555
P1N O2N 1_555 1_555
N1A C1A 1_555 1_555
N1B C1B 1_555 1_555
N1L C1L 1_555 1_555
N1M C1M 1_555 1_555
N1N C1N 1_555 1_555
C4A C5A 1_555 1_555
C4B C5B 1_555 1_555
C4L C5L 1_555 1_555
C4M C5M 1_555 1_555
C4N C5N 1_555 1_555

#END
