
#######################################################################
#
#                 Cambridge Crystallographic Data Centre
#                                CCDC 
#
#######################################################################
#
# If this CIF has been generated from an entry in the Cambridge 
# Structural Database, then it will include bibliographic, chemical, 
# crystal, experimental, refinement or atomic coordinate data resulting 
# from the CCDC's data processing and validation procedures.
#
#######################################################################

data_WICYAJ
_symmetry_cell_setting           rhombohedral
_symmetry_space_group_name_H-M   'R -3'
_symmetry_Int_Tables_number      148
_space_group_name_Hall           '-R 3'
loop_
_symmetry_equiv_pos_site_id
_symmetry_equiv_pos_as_xyz
1 x,y,z
2 -y,x-y,z
3 -x+y,-x,z
4 2/3+x,1/3+y,1/3+z
5 2/3-y,1/3+x-y,1/3+z
6 2/3-x+y,1/3-x,1/3+z
7 1/3+x,2/3+y,2/3+z
8 1/3-y,2/3+x-y,2/3+z
9 1/3-x+y,2/3-x,2/3+z
10 -x,-y,-z
11 y,-x+y,-z
12 x-y,x,-z
13 1/3-x,2/3-y,2/3-z
14 1/3+y,2/3-x+y,2/3-z
15 1/3+x-y,2/3+x,2/3-z
16 2/3-x,1/3-y,1/3-z
17 2/3+y,1/3-x+y,1/3-z
18 2/3+x-y,1/3+x,1/3-z
_cell_length_a                   18.744(3)
_cell_length_b                   18.744(3)
_cell_length_c                   10.242(2)
_cell_angle_alpha                90
_cell_angle_beta                 90
_cell_angle_gamma                120.00
_cell_volume                     3116.3
loop_
_atom_site_label
_atom_site_type_symbol
_atom_site_fract_x
_atom_site_fract_y
_atom_site_fract_z
Sm1 Sm 0.6667 0.3333 -0.1667
Sm2 Sm 0.6667 0.3333 0.3333
Cu1 Cu 0.8333 0.1667 0.1667
P1 P 0.73979(6) 0.24508(6) 0.08790(9)
O1 O 0.82193(15) 0.24819(15) 0.0735(2)
O2 O 0.74002(16) 0.29585(16) 0.2009(2)
O3 O 0.70962(16) 0.26103(16) -0.0379(2)
N1 N 0.71193(19) 0.09717(19) 0.1613(3)
C1 C 0.6719(2) 0.1373(2) 0.1301(3)
C2 C 0.5868(3) 0.0961(3) 0.1282(4)
H1 H 0.5590 0.1245 0.1109
C3 C 0.5436(3) 0.0126(3) 0.1520(4)
H2 H 0.4863 -0.0158 0.1518
C4 C 0.5858(3) -0.0281(3) 0.1760(4)
H3 H 0.5578 -0.0850 0.1869
C5 C 0.6695(3) 0.0161(2) 0.1837(4)
H4 H 0.6980 -0.0110 0.2053
Sm2_2 Sm 0.6667 0.3333 -0.6667
Cu1A Cu 0.8333 0.6666 0.1667
Cu1B Cu 0.3334 0.1667 0.1667
Cu1C Cu 0.5000 0.5000 -0.5000
Cu1D Cu 0.5000 -0.0001 -0.5000
Cu1E Cu 1.0001 0.5000 -0.5000
P1A P 0.75492(6) 0.49471(8) 0.08790(9)
P1B P 0.50529(8) 0.26021(6) 0.08790(9)
P1L P 0.59354(6) 0.42159(6) -0.42123(9)
P1M P 0.57841(6) 0.17196(8) -0.42123(9)
P1N P 0.82804(8) 0.40646(6) -0.42123(9)
O1A O 0.75181(15) 0.57374(21) 0.0735(2)
O1B O 0.42626(21) 0.17807(15) 0.0735(2)
O1L O 0.51140(15) 0.41848(15) -0.4068(2)
O1M O 0.58152(15) 0.09293(21) -0.4068(2)
O1N O 0.90707(21) 0.48860(15) -0.4068(2)
O1O O 0.84474(15) 0.08514(15) 0.2598(2)
O1P O 0.91486(15) 0.75959(21) 0.2598(2)
O1Q O 0.24041(21) 0.15526(15) 0.2598(2)
O2A O 0.70415(16) 0.44417(23) 0.2009(2)
O2B O 0.55583(23) 0.25998(16) 0.2009(2)
O2L O 0.59331(16) 0.37082(16) -0.5342(2)
O2M O 0.62918(16) 0.22250(23) -0.5342(2)
O2N O 0.77750(23) 0.40669(16) -0.5342(2)
O2L_2 O 0.59331(16) 0.37082(16) 0.4658(2)
O2M_2 O 0.62918(16) 0.22250(23) 0.4658(2)
O2N_2 O 0.77750(23) 0.40669(16) 0.4658(2)
O3A O 0.73897(16) 0.44859(23) -0.0379(2)
O3B O 0.55141(23) 0.29038(16) -0.0379(2)
O3L O 0.62371(16) 0.40564(16) -0.2954(2)
O3M O 0.59436(16) 0.21808(23) -0.2954(2)
O3N O 0.78192(23) 0.37629(16) -0.2954(2)
N1A N 0.90283(19) 0.61476(27) 0.1613(3)
N1B N 0.38524(27) 0.28807(19) 0.1613(3)
N1L N 0.62140(19) 0.56950(19) -0.4946(3)
N1M N 0.43050(19) 0.05191(27) -0.4946(3)
N1N N 0.94809(27) 0.37860(19) -0.4946(3)
N1O N 0.95474(19) 0.23616(19) 0.1720(3)
N1P N 0.76384(19) 0.71857(27) 0.1720(3)
N1Q N 0.28143(27) 0.04526(19) 0.1720(3)
C1A C 0.8627(2) 0.5346(3) 0.1301(3)
C1B C 0.4654(3) 0.3281(2) 0.1301(3)
C1L C 0.6614(2) 0.5294(2) -0.4634(3)
C1M C 0.4706(2) 0.1321(3) -0.4634(3)
C1N C 0.8679(3) 0.3386(2) -0.4634(3)
C2A C 0.9039(3) 0.4907(4) 0.1282(4)
C2B C 0.5093(4) 0.4132(3) 0.1282(4)
C2L C 0.7465(3) 0.5706(3) -0.4615(4)
C2M C 0.4294(3) 0.1760(4) -0.4615(4)
C2N C 0.8240(4) 0.2535(3) -0.4615(4)
H1A H 0.8755 0.4345 0.1109
H1B H 0.5655 0.4410 0.1109
H1L H 0.7743 0.5422 -0.4442
H1M H 0.4578 0.2322 -0.4442
H1N H 0.7678 0.2257 -0.4442
C3A C 0.9874(3) 0.5310(4) 0.1520(4)
C3B C 0.4690(4) 0.4564(3) 0.1520(4)
C3L C 0.7897(3) 0.6541(3) -0.4853(4)
C3M C 0.3459(3) 0.1357(4) -0.4853(4)
C3N C 0.8643(4) 0.2103(3) -0.4853(4)
H2A H 1.0158 0.5021 0.1518
H2B H 0.4979 0.5137 0.1518
H2L H 0.8470 0.6825 -0.4851
H2M H 0.3175 0.1646 -0.4851
H2N H 0.8354 0.1530 -0.4851
C4A C 1.0281(3) 0.6139(4) 0.1760(4)
C4B C 0.3861(4) 0.4142(3) 0.1760(4)
C4L C 0.7475(3) 0.6948(3) -0.5093(4)
C4M C 0.3052(3) 0.0528(4) -0.5093(4)
C4N C 0.9472(4) 0.2525(3) -0.5093(4)
H3A H 1.0850 0.6428 0.1869
H3B H 0.3572 0.4422 0.1869
H3L H 0.7755 0.7517 -0.5202
H3M H 0.2483 0.0239 -0.5202
H3N H 0.9761 0.2245 -0.5202
C5A C 0.9839(2) 0.6534(4) 0.1837(4)
C5B C 0.3466(4) 0.3305(3) 0.1837(4)
C5L C 0.6638(3) 0.6506(2) -0.5170(4)
C5M C 0.3494(2) 0.0133(4) -0.5170(4)
C5N C 0.9867(4) 0.3362(3) -0.5170(4)
H4A H 1.0110 0.7090 0.2053
H4B H 0.2910 0.3020 0.2053
H4L H 0.6353 0.6777 -0.5386
H4M H 0.3223 -0.0423 -0.5386
H4N H 1.0423 0.3647 -0.5386
loop_
_geom_bond_atom_site_label_1
_geom_bond_atom_site_label_2
_geom_bond_site_symmetry_1
_geom_bond_site_symmetry_2
Sm1 O3 1_555 1_555
Sm2 O2 1_555 1_555
Cu1 O1 1_555 1_555
P1 O1 1_555 1_555
O2 P1 1_555 1_555
O3 P1 1_555 1_555
N1 Cu1 1_555 1_555
C1 P1 1_555 1_555
C2 C1 1_555 1_555
H1 C2 1_555 1_555
C3 C2 1_555 1_555
H2 C3 1_555 1_555
C4 C3 1_555 1_555
H3 C4 1_555 1_555
C5 N1 1_555 1_555
H4 C5 1_555 1_555
Sm2_2 O2L 1_555 1_555
Cu1A O1A 1_555 1_555
Cu1B O1B 1_555 1_555
Cu1C O1L 1_555 1_555
Cu1D O1M 1_555 1_555
Cu1E O1N 1_555 1_555
P1A O1A 1_555 1_555
P1B O1B 1_555 1_555
P1L O1L 1_555 1_555
P1M O1M 1_555 1_555
P1N O1N 1_555 1_555
O1O Cu1 1_555 1_555
O1P Cu1A 1_555 1_555
O1Q Cu1B 1_555 1_555
O2A Sm2 1_555 1_555
O2B Sm2 1_555 1_555
O2L P1L 1_555 1_555
O2M Sm2_2 1_555 1_555
O2N Sm2_2 1_555 1_555
O2L_2 Sm2 1_555 1_555
O2M_2 Sm2 1_555 1_555
O2N_2 Sm2 1_555 1_555
O3A Sm1 1_555 1_555
O3B Sm1 1_555 1_555
O3L Sm1 1_555 1_555
O3M Sm1 1_555 1_555
O3N Sm1 1_555 1_555
N1A Cu1A 1_555 1_555
N1B Cu1B 1_555 1_555
N1L Cu1C 1_555 1_555
N1M Cu1D 1_555 1_555
N1N Cu1E 1_555 1_555
N1O Cu1 1_555 1_555
N1P Cu1A 1_555 1_555
N1Q Cu1B 1_555 1_555
C1A P1A 1_555 1_555
C1B P1B 1_555 1_555
C1L P1L 1_555 1_555
C1M P1M 1_555 1_555
C1N P1N 1_555 1_555
C2A C1A 1_555 1_555
C2B C1B 1_555 1_555
C2L C1L 1_555 1_555
C2M C1M 1_555 1_555
C2N C1N 1_555 1_555
H1A C2A 1_555 1_555
H1B C2B 1_555 1_555
H1L C2L 1_555 1_555
H1M C2M 1_555 1_555
H1N C2N 1_555 1_555
C3A C2A 1_555 1_555
C3B C2B 1_555 1_555
C3L C2L 1_555 1_555
C3M C2M 1_555 1_555
C3N C2N 1_555 1_555
H2A C3A 1_555 1_555
H2B C3B 1_555 1_555
H2L C3L 1_555 1_555
H2M C3M 1_555 1_555
H2N C3N 1_555 1_555
C4A C3A 1_555 1_555
C4B C3B 1_555 1_555
C4L C3L 1_555 1_555
C4M C3M 1_555 1_555
C4N C3N 1_555 1_555
H3A C4A 1_555 1_555
H3B C4B 1_555 1_555
H3L C4L 1_555 1_555
H3M C4M 1_555 1_555
H3N C4N 1_555 1_555
C5A N1A 1_555 1_555
C5B N1B 1_555 1_555
C5L N1L 1_555 1_555
C5M N1M 1_555 1_555
C5N N1N 1_555 1_555
H4A C5A 1_555 1_555
H4B C5B 1_555 1_555
H4L C5L 1_555 1_555
H4M C5M 1_555 1_555
H4N C5N 1_555 1_555
N1 C1 1_555 1_555
C4 C5 1_555 1_555
P1A O2A 1_555 1_555
P1A O3A 1_555 1_555
P1B O2B 1_555 1_555
P1B O3B 1_555 1_555
P1L O3L 1_555 1_555
P1M O2M 1_555 1_555
P1M O3M 1_555 1_555
P1N O2N 1_555 1_555
P1N O3N 1_555 1_555
N1A C1A 1_555 1_555
N1B C1B 1_555 1_555
N1L C1L 1_555 1_555
N1M C1M 1_555 1_555
N1N C1N 1_555 1_555
C4A C5A 1_555 1_555
C4B C5B 1_555 1_555
C4L C5L 1_555 1_555
C4M C5M 1_555 1_555
C4N C5N 1_555 1_555

#END
