
#######################################################################
#
#                 Cambridge Crystallographic Data Centre
#                                CCDC 
#
#######################################################################
#
# If this CIF has been generated from an entry in the Cambridge 
# Structural Database, then it will include bibliographic, chemical, 
# crystal, experimental, refinement or atomic coordinate data resulting 
# from the CCDC's data processing and validation procedures.
#
#######################################################################

data_WICYIR
_symmetry_cell_setting           cubic
_symmetry_space_group_name_H-M   'I 21 3'
_symmetry_Int_Tables_number      199
_space_group_name_Hall           'I 2b 2c 3'
loop_
_symmetry_equiv_pos_site_id
_symmetry_equiv_pos_as_xyz
1 x,y,z
2 1/2-x,-y,1/2+z
3 -x,1/2+y,1/2-z
4 1/2+x,1/2-y,-z
5 z,x,y
6 1/2+z,1/2-x,-y
7 1/2-z,-x,1/2+y
8 -z,1/2+x,1/2-y
9 y,z,x
10 -y,1/2+z,1/2-x
11 1/2+y,1/2-z,-x
12 1/2-y,-z,1/2+x
13 1/2+x,1/2+y,1/2+z
14 -x,1/2-y,z
15 1/2-x,y,-z
16 x,-y,1/2-z
17 1/2+z,1/2+x,1/2+y
18 z,-x,1/2-y
19 -z,1/2-x,y
20 1/2-z,x,-y
21 1/2+y,1/2+z,1/2+x
22 1/2-y,z,-x
23 y,-z,1/2-x
24 -y,1/2-z,x
_cell_length_a                   16.2658(8)
_cell_length_b                   16.2658(8)
_cell_length_c                   16.2658(8)
_cell_angle_alpha                90
_cell_angle_beta                 90
_cell_angle_gamma                90
_cell_volume                     4303.54
loop_
_atom_site_label
_atom_site_type_symbol
_atom_site_fract_x
_atom_site_fract_y
_atom_site_fract_z
Nd1 Nd 0.38011(3) 0.61989(3) 0.11989(3)
Zn1 Zn 0.5000 0.7500 0.26654(9)
P1 P 0.40351(14) 0.59735(15) 0.31644(14)
N1 N 0.4107(5) 0.7509(5) 0.3741(5)
O1 O 0.4722(4) 0.6318(4) 0.2633(4)
O2 O 0.3248(4) 0.5924(4) 0.2637(4)
O3 O 0.4247(4) 0.5179(4) 0.3605(3)
C1 C 0.3883(6) 0.6730(5) 0.3973(5)
C2 C 0.3560(5) 0.6573(6) 0.4692(6)
H5 H 0.3388 0.6046 0.4830
C3 C 0.3480(6) 0.7248(6) 0.5263(6)
H6 H 0.3281 0.7157 0.5791
C4 C 0.3689(6) 0.7990(6) 0.5030(6)
H7 H 0.3604 0.8436 0.5377
C5 C 0.4035(6) 0.8102(7) 0.4264(7)
H8 H 0.4224 0.8622 0.4120
Nd1O Nd 0.38011(3) 0.38011(3) 0.38011(3)
Nd1N Nd 0.11989(3) 0.61989(3) -0.11989(3)
Nd1M Nd 0.61989(3) 0.88011(3) 0.11989(3)
Zn1F Zn 0.23346(9) 0.5000 0.2500
Zn1I Zn 0.2500 0.76654(9) 0.0000
Zn1B Zn 0.5000 0.2500 0.23346(9)
Zn1D Zn 0.26654(9) 0.5000 -0.2500
Zn1K Zn 0.7500 0.73346(9) 0.0000
P1F P 0.18356(14) 0.59649(14) 0.09735(15)
P1I P 0.40265(15) 0.81644(14) 0.09649(14)
P1O P 0.40351(14) 0.40265(15) 0.18356(14)
P1Q P 0.31644(14) 0.59649(14) -0.09735(15)
P1V P 0.59735(15) 0.68356(14) 0.09649(14)
N1F N 0.1259(5) 0.5893(5) 0.2509(5)
N1I N 0.2491(5) 0.8741(5) 0.0893(5)
N1O N 0.4107(5) 0.2491(5) 0.1259(5)
N1Q N 0.3741(5) 0.5893(5) -0.2509(5)
N1V N 0.7509(5) 0.6259(5) 0.0893(5)
N1M N 0.5893(5) 0.7491(5) 0.3741(5)
N1S N 0.1259(5) 0.4107(5) 0.2491(5)
N1T N 0.2509(5) 0.8741(5) -0.0893(5)
O1F O 0.2367(4) 0.5278(4) 0.1318(4)
O1I O 0.3682(4) 0.7633(4) 0.0278(4)
O1O O 0.4722(4) 0.3682(4) 0.2367(4)
O1Q O 0.2633(4) 0.5278(4) -0.1318(4)
O1V O 0.6318(4) 0.7367(4) 0.0278(4)
O1M O 0.5278(4) 0.8682(4) 0.2633(4)
O1S O 0.2367(4) 0.4722(4) 0.3682(4)
O1W O 0.3682(4) 0.2367(4) 0.4722(4)
O1T O 0.1318(4) 0.7633(4) -0.0278(4)
O2F O 0.2363(4) 0.6752(4) 0.0924(4)
O2I O 0.4076(4) 0.7637(4) 0.1752(4)
O2O O 0.3248(4) 0.4076(4) 0.2363(4)
O2Q O 0.2637(4) 0.6752(4) -0.0924(4)
O2V O 0.5924(4) 0.7363(4) 0.1752(4)
O2S O 0.2363(4) 0.3248(4) 0.4076(4)
O2W O 0.4076(4) 0.2363(4) 0.3248(4)
O3F O 0.1395(3) 0.5753(4) 0.0179(4)
O3I O 0.4821(4) 0.8605(3) 0.0753(4)
O3O O 0.4247(4) 0.4821(4) 0.1395(3)
O3Q O 0.3605(3) 0.5753(4) -0.0179(4)
O3V O 0.5179(4) 0.6395(3) 0.0753(4)
O3D O 0.3605(3) 0.4247(4) 0.5179(4)
O3H O 0.5179(4) 0.3605(3) 0.4247(4)
C1F C 0.1027(5) 0.6117(6) 0.1730(5)
C1I C 0.3270(5) 0.8973(5) 0.1117(6)
C1O C 0.3883(6) 0.3270(5) 0.1027(5)
C1Q C 0.3973(5) 0.6117(6) -0.1730(5)
C1V C 0.6730(5) 0.6027(5) 0.1117(6)
C2F C 0.0308(6) 0.6440(5) 0.1573(6)
C2I C 0.3427(6) 0.9692(6) 0.1440(5)
C2O C 0.3560(5) 0.3427(6) 0.0308(6)
C2Q C 0.4692(6) 0.6440(5) -0.1573(6)
C2V C 0.6573(6) 0.5308(6) 0.1440(5)
H5F H 0.0170 0.6612 0.1046
H5I H 0.3954 0.9830 0.1612
H5O H 0.3388 0.3954 0.0170
H5Q H 0.4830 0.6612 -0.1046
H5V H 0.6046 0.5170 0.1612
C3F C -0.0263(6) 0.6520(6) 0.2248(6)
C3I C 0.2752(6) 1.0263(6) 0.1520(6)
C3O C 0.3480(6) 0.2752(6) -0.0263(6)
C3Q C 0.5263(6) 0.6520(6) -0.2248(6)
C3V C 0.7248(6) 0.4737(6) 0.1520(6)
H6F H -0.0791 0.6719 0.2157
H6I H 0.2843 1.0791 0.1719
H6O H 0.3281 0.2843 -0.0791
H6Q H 0.5791 0.6719 -0.2157
H6V H 0.7157 0.4209 0.1719
C4F C -0.0030(6) 0.6311(6) 0.2990(6)
C4I C 0.2010(6) 1.0030(6) 0.1311(6)
C4O C 0.3689(6) 0.2010(6) -0.0030(6)
C4Q C 0.5030(6) 0.6311(6) -0.2990(6)
C4V C 0.7990(6) 0.4970(6) 0.1311(6)
H7F H -0.0377 0.6396 0.3436
H7I H 0.1564 1.0377 0.1396
H7O H 0.3604 0.1564 -0.0377
H7Q H 0.5377 0.6396 -0.3436
H7V H 0.8436 0.4623 0.1396
C5F C 0.0736(7) 0.5965(6) 0.3102(7)
C5I C 0.1898(7) 0.9264(7) 0.0965(6)
C5O C 0.4035(6) 0.1898(7) 0.0736(7)
C5Q C 0.4264(7) 0.5965(6) -0.3102(7)
C5V C 0.8102(7) 0.5736(7) 0.0965(6)
H8F H 0.0880 0.5776 0.3622
H8I H 0.1378 0.9120 0.0776
H8O H 0.4224 0.1378 0.0880
H8Q H 0.4120 0.5776 -0.3622
H8V H 0.8622 0.5880 0.0776
O4 O 0.2281(6) 0.7719(6) 0.2719(6)
O5 O 0.4777(3) 0.9777(3) 0.5223(3)
H1? H 0.2651 0.7494 0.3012
H2? H 0.2027 0.7360 0.2446
H3? H 0.5294 0.9707 0.5253
H4? H 0.4660 1.0026 0.4780
loop_
_geom_bond_atom_site_label_1
_geom_bond_atom_site_label_2
_geom_bond_site_symmetry_1
_geom_bond_site_symmetry_2
Nd1 O1 1_555 1_555
Zn1 N1 1_555 1_555
P1 O1 1_555 1_555
N1 C1 1_555 1_555
O1 Zn1 1_555 1_555
O2 Nd1 1_555 1_555
O3 P1 1_555 1_555
C1 P1 1_555 1_555
C2 C1 1_555 1_555
H5 C2 1_555 1_555
C3 C2 1_555 1_555
H6 C3 1_555 1_555
C4 C3 1_555 1_555
H7 C4 1_555 1_555
C5 N1 1_555 1_555
H8 C5 1_555 1_555
Nd1O O3 1_555 1_555
Nd1N O1Q 1_555 1_555
Nd1M O1V 1_555 1_555
Zn1F O2 1_555 1_555
Zn1I N1I 1_555 1_555
Zn1B N1O 1_555 1_555
Zn1D N1Q 1_555 1_555
Zn1K N1V 1_555 1_555
P1F O1F 1_555 1_555
P1I O1I 1_555 1_555
P1O O1O 1_555 1_555
P1Q O1Q 1_555 1_555
P1V O1V 1_555 1_555
N1F Zn1F 1_555 1_555
N1I C1I 1_555 1_555
N1O C1O 1_555 1_555
N1Q C1Q 1_555 1_555
N1V C1V 1_555 1_555
N1M Zn1 1_555 1_555
N1S Zn1F 1_555 1_555
N1T Zn1I 1_555 1_555
O1F Nd1 1_555 1_555
O1I Nd1 1_555 1_555
O1O Nd1O 1_555 1_555
O1Q Zn1D 1_555 1_555
O1V Zn1K 1_555 1_555
O1M Zn1 1_555 1_555
O1S Nd1O 1_555 1_555
O1W Nd1O 1_555 1_555
O1T Nd1N 1_555 1_555
O2F Nd1 1_555 1_555
O2I Nd1 1_555 1_555
O2O Nd1O 1_555 1_555
O2Q Nd1N 1_555 1_555
O2V Zn1 1_555 1_555
O2S Nd1O 1_555 1_555
O2W Nd1O 1_555 1_555
O3F Nd1N 1_555 1_555
O3I Nd1M 1_555 1_555
O3O Nd1 1_555 1_555
O3Q Nd1 1_555 1_555
O3V Nd1 1_555 1_555
O3D Nd1O 1_555 1_555
O3H Nd1O 1_555 1_555
C1F P1F 1_555 1_555
C1I P1I 1_555 1_555
C1O P1O 1_555 1_555
C1Q P1Q 1_555 1_555
C1V P1V 1_555 1_555
C2F C1F 1_555 1_555
C2I C1I 1_555 1_555
C2O C1O 1_555 1_555
C2Q C1Q 1_555 1_555
C2V C1V 1_555 1_555
H5F C2F 1_555 1_555
H5I C2I 1_555 1_555
H5O C2O 1_555 1_555
H5Q C2Q 1_555 1_555
H5V C2V 1_555 1_555
C3F C2F 1_555 1_555
C3I C2I 1_555 1_555
C3O C2O 1_555 1_555
C3Q C2Q 1_555 1_555
C3V C2V 1_555 1_555
H6F C3F 1_555 1_555
H6I C3I 1_555 1_555
H6O C3O 1_555 1_555
H6Q C3Q 1_555 1_555
H6V C3V 1_555 1_555
C4F C3F 1_555 1_555
C4I C3I 1_555 1_555
C4O C3O 1_555 1_555
C4Q C3Q 1_555 1_555
C4V C3V 1_555 1_555
H7F C4F 1_555 1_555
H7I C4I 1_555 1_555
H7O C4O 1_555 1_555
H7Q C4Q 1_555 1_555
H7V C4V 1_555 1_555
C5F N1F 1_555 1_555
C5I N1I 1_555 1_555
C5O N1O 1_555 1_555
C5Q N1Q 1_555 1_555
C5V N1V 1_555 1_555
H8F C5F 1_555 1_555
H8I C5I 1_555 1_555
H8O C5O 1_555 1_555
H8Q C5Q 1_555 1_555
H8V C5V 1_555 1_555
Zn1 O2I 1_555 1_555
P1 O2 1_555 1_555
C4 C5 1_555 1_555
Nd1M O1M 1_555 1_555
Nd1M O2V 1_555 1_555
Zn1F O1F 1_555 1_555
Zn1F O1S 1_555 1_555
Zn1F O2O 1_555 1_555
Zn1I O1I 1_555 1_555
Zn1I O1T 1_555 1_555
Zn1I O2F 1_555 1_555
Zn1I O2Q 1_555 1_555
Zn1B O1O 1_555 1_555
Zn1B O2W 1_555 1_555
P1F O2F 1_555 1_555
P1F O3F 1_555 1_555
P1I O2I 1_555 1_555
P1I O3I 1_555 1_555
P1O O2O 1_555 1_555
P1O O3O 1_555 1_555
P1Q O2Q 1_555 1_555
P1Q O3Q 1_555 1_555
P1V O2V 1_555 1_555
P1V O3V 1_555 1_555
N1F C1F 1_555 1_555
C4F C5F 1_555 1_555
C4I C5I 1_555 1_555
C4O C5O 1_555 1_555
C4Q C5Q 1_555 1_555
C4V C5V 1_555 1_555

#END
