
#######################################################################
#
#                 Cambridge Crystallographic Data Centre
#                                CCDC 
#
#######################################################################
#
# If this CIF has been generated from an entry in the Cambridge 
# Structural Database, then it will include bibliographic, chemical, 
# crystal, experimental, refinement or atomic coordinate data resulting 
# from the CCDC's data processing and validation procedures.
#
#######################################################################

data_WIDGOF
_symmetry_cell_setting           monoclinic
_symmetry_space_group_name_H-M   'P 21/c'
_symmetry_Int_Tables_number      14
_space_group_name_Hall           '-P 2ybc'
loop_
_symmetry_equiv_pos_site_id
_symmetry_equiv_pos_as_xyz
1 x,y,z
2 -x,1/2+y,1/2-z
3 -x,-y,-z
4 x,1/2-y,1/2+z
_cell_length_a                   15.154(4)
_cell_length_b                   9.159(3)
_cell_length_c                   17.685(4)
_cell_angle_alpha                90
_cell_angle_beta                 91.410(8)
_cell_angle_gamma                90
_cell_volume                     2453.85
loop_
_atom_site_label
_atom_site_type_symbol
_atom_site_fract_x
_atom_site_fract_y
_atom_site_fract_z
Sn1 Sn 0.22651(2) 0.09085(4) 0.10857(2)
P1 P 0.2485(1) 0.6792(2) 0.06319(8)
O1 O 0.2090(2) 0.3161(3) 0.1339(2)
O2 O 0.3501(2) 0.3774(4) 0.1250(2)
O3 O 0.2240(2) 0.8325(3) 0.0798(2)
O4 O 0.1843(3) 0.6014(4) 0.0059(2)
O5 O 0.3395(2) 0.6624(4) 0.0259(2)
C1 C 0.0943(3) 0.0558(5) 0.1429(3)
C2 C 0.0644(4) 0.1238(7) 0.2057(3)
C3 C -0.0193(4) 0.1004(9) 0.2304(4)
C4 C -0.0755(4) 0.0138(8) 0.1907(4)
C5 C -0.0492(4) -0.0520(8) 0.1284(4)
C6 C 0.0355(4) -0.0316(7) 0.1040(3)
C7 C 0.3210(3) 0.0245(5) 0.1914(3)
C8 C 0.4080(3) 0.0680(6) 0.1935(3)
C9 C 0.4674(4) 0.0142(7) 0.2473(3)
C10 C 0.4423(4) -0.0824(7) 0.2995(3)
C11 C 0.3566(4) -0.1297(6) 0.3004(3)
C12 C 0.2962(4) -0.0755(6) 0.2461(3)
C13 C 0.2605(3) 0.1231(5) -0.0062(3)
C14 C 0.2423(4) 0.2538(6) -0.0408(3)
C15 C 0.2649(4) 0.2805(7) -0.1139(3)
C16 C 0.3084(4) 0.1793(7) -0.1538(3)
C17 C 0.3272(4) 0.0491(7) -0.1205(3)
C18 C 0.3034(4) 0.0223(6) -0.0473(3)
C19 C 0.2731(3) 0.4073(6) 0.1340(3)
C20 C 0.2457(4) 0.5659(5) 0.1450(3)
C21 C 0.1382(5) 0.6631(8) -0.0518(4)
C22 C 0.0688(5) 0.592(1) -0.0850(4)
C23 C 0.4204(4) 0.7029(7) 0.0647(3)
C24 C 0.4901(5) 0.725(1) 0.0109(4)
O3_2 O 0.2240(2) -0.1675(3) 0.0798(2)
Sn1_2 Sn 0.22651(2) 1.09085(4) 0.10857(2)
loop_
_geom_bond_atom_site_label_1
_geom_bond_atom_site_label_2
_geom_bond_site_symmetry_1
_geom_bond_site_symmetry_2
Sn1 O1 1_555 1_555
P1 O3 1_555 1_555
O1 C19 1_555 1_555
O2 C19 1_555 1_555
O3 Sn1_2 1_555 1_555
O4 P1 1_555 1_555
O5 P1 1_555 1_555
C1 Sn1 1_555 1_555
C2 C1 1_555 1_555
C3 C2 1_555 1_555
C4 C3 1_555 1_555
C5 C4 1_555 1_555
C6 C1 1_555 1_555
C7 Sn1 1_555 1_555
C8 C7 1_555 1_555
C9 C8 1_555 1_555
C10 C9 1_555 1_555
C11 C10 1_555 1_555
C12 C7 1_555 1_555
C13 Sn1 1_555 1_555
C14 C13 1_555 1_555
C15 C14 1_555 1_555
C16 C15 1_555 1_555
C17 C16 1_555 1_555
C18 C13 1_555 1_555
C19 C20 1_555 1_555
C20 P1 1_555 1_555
C21 O4 1_555 1_555
C22 C21 1_555 1_555
C23 O5 1_555 1_555
C24 C23 1_555 1_555
O3_2 Sn1 1_555 1_555
C5 C6 1_555 1_555
C11 C12 1_555 1_555
C17 C18 1_555 1_555

#END
