
#######################################################################
#
#                 Cambridge Crystallographic Data Centre
#                                CCDC 
#
#######################################################################
#
# If this CIF has been generated from an entry in the Cambridge 
# Structural Database, then it will include bibliographic, chemical, 
# crystal, experimental, refinement or atomic coordinate data resulting 
# from the CCDC's data processing and validation procedures.
#
#######################################################################

data_WIDLEC
_symmetry_cell_setting           monoclinic
_symmetry_space_group_name_H-M   'C 2/c'
_symmetry_Int_Tables_number      15
_space_group_name_Hall           '-C 2yn'
loop_
_symmetry_equiv_pos_site_id
_symmetry_equiv_pos_as_xyz
1 x,y,z
2 -x,y,1/2-z
3 1/2+x,1/2+y,z
4 1/2-x,1/2+y,1/2-z
5 -x,-y,-z
6 x,-y,1/2+z
7 1/2-x,1/2-y,-z
8 1/2+x,1/2-y,1/2+z
_cell_length_a                   19.7786(3)
_cell_length_b                   19.9182(3)
_cell_length_c                   16.8816(3)
_cell_angle_alpha                90
_cell_angle_beta                 91.718(2)
_cell_angle_gamma                90
_cell_volume                     6647.59
loop_
_atom_site_label
_atom_site_type_symbol
_atom_site_fract_x
_atom_site_fract_y
_atom_site_fract_z
Cu1 Cu 0.12827(2) 0.36727(2) 0.75056(3)
Cu2 Cu 0.25306(2) 0.11775(2) 0.82735(3)
C1 C 0.18781(16) 0.49111(16) 0.71218(19)
H1 H 0.2278 0.4773 0.7376
C2 C 0.11561(16) 0.55093(16) 0.64474(18)
C3 C 0.08003(16) 0.59951(16) 0.60080(19)
H2 H 0.1008 0.6394 0.5864
C4 C 0.01288(17) 0.58705(16) 0.57896(18)
C5 C -0.02613(18) 0.63795(17) 0.5300(2)
H3 H 0.0023 0.6759 0.5201
H4 H -0.0650 0.6523 0.5582
H5 H -0.0405 0.6181 0.4806
C6 C -0.01868(16) 0.52581(16) 0.60198(19)
C7 C -0.09169(17) 0.51260(18) 0.5781(2)
H6 H -0.1050 0.4696 0.5978
H7 H -0.0966 0.5130 0.5213
H8 H -0.1198 0.5469 0.5998
C8 C 0.01667(16) 0.47823(16) 0.64628(19)
H9 H -0.0042 0.4388 0.6620
C9 C 0.08458(16) 0.49082(16) 0.66695(18)
C10 C 0.19093(16) 0.24396(16) 0.78854(19)
H10 H 0.2293 0.2580 0.7626
C11 C 0.08981(16) 0.24326(16) 0.83426(18)
C12 C 0.02303(16) 0.25463(17) 0.85534(19)
H11 H 0.0008 0.2939 0.8400
C13 C -0.00952(16) 0.20664(17) 0.89943(19)
C14 C -0.08200(17) 0.21812(18) 0.9227(2)
H12 H -0.0974 0.2606 0.9024
H13 H -0.0844 0.2181 0.9794
H14 H -0.1101 0.1829 0.9011
C15 C 0.02447(17) 0.14642(16) 0.92355(19)
C16 C -0.01052(19) 0.09545(18) 0.9739(2)
H15 H 0.0193 0.0583 0.9843
H16 H -0.0507 0.0798 0.9463
H17 H -0.0225 0.1158 1.0230
C17 C 0.09098(17) 0.13539(16) 0.9022(2)
H18 H 0.1136 0.0964 0.9178
C18 C 0.12308(16) 0.18370(16) 0.85706(18)
N1 N 0.18215(14) 0.55032(14) 0.67444(16)
N2 N 0.13191(14) 0.45344(14) 0.71057(16)
N3 N 0.13427(14) 0.28124(14) 0.79073(16)
N4 N 0.18780(13) 0.18496(14) 0.82661(16)
Cu2C Cu 0.24694(2) 0.61775(2) 0.67265(3)
N1C N 0.31785(14) 0.05032(14) 0.82556(16)
Cu3 Cu 0.5000 0.23545(3) 0.7500
Cu4 Cu 0.0000 0.00157(3) 0.7500
Cu5 Cu 0.24803(2) 0.11743(2) 0.66037(3)
C19 C 0.12113(16) 0.06075(16) 0.70046(19)
H19 H 0.1085 0.1010 0.7238
C20 C 0.11892(16) -0.04268(16) 0.66201(18)
C21 C 0.10562(16) -0.11018(17) 0.64626(19)
H20 H 0.0660 -0.1299 0.6631
C22 C 0.15209(17) -0.14737(16) 0.60529(19)
C23 C 0.13802(18) -0.22056(17) 0.5874(2)
H21 H 0.0951 -0.2329 0.6082
H22 H 0.1730 -0.2478 0.6115
H23 H 0.1370 -0.2274 0.5310
C24 C 0.21308(16) -0.11678(17) 0.57978(19)
C25 C 0.26375(18) -0.15740(18) 0.5350(2)
H24 H 0.3017 -0.1296 0.5228
H25 H 0.2429 -0.1738 0.4867
H26 H 0.2789 -0.1946 0.5670
C26 C 0.22615(16) -0.04960(16) 0.59554(18)
H27 H 0.2657 -0.0295 0.5788
C27 C 0.17858(16) -0.01261(16) 0.63709(18)
C28 C 0.37655(16) 0.17499(16) 0.70166(19)
H28 H 0.3911 0.1348 0.7245
C29 C 0.37483(16) 0.27881(16) 0.66477(18)
C30 C 0.38613(16) 0.34705(16) 0.65071(19)
H29 H 0.4260 0.3675 0.6686
C31 C 0.33690(17) 0.38364(16) 0.60975(19)
C32 C 0.34818(18) 0.45709(17) 0.5934(2)
H30 H 0.3915 0.4704 0.6151
H31 H 0.3134 0.4830 0.6173
H32 H 0.3468 0.4646 0.5372
C33 C 0.27568(17) 0.35191(17) 0.58275(19)
C34 C 0.22247(18) 0.39200(18) 0.5379(2)
H33 H 0.1847 0.3635 0.5243
H34 H 0.2412 0.4097 0.4904
H35 H 0.2076 0.4283 0.5704
C35 C 0.26462(16) 0.28426(17) 0.59724(19)
H36 H 0.2248 0.2635 0.5798
C36 C 0.31478(16) 0.24821(16) 0.63870(18)
N5 N 0.17913(14) 0.05405(14) 0.66230(16)
N6 N 0.08264(14) 0.00562(14) 0.70270(16)
N7 N 0.31671(13) 0.18102(14) 0.66321(16)
N8 N 0.41417(14) 0.23122(14) 0.70479(16)
Cu5A Cu -0.24803(2) 0.11743(2) 0.83963(3)
C19A C -0.12113(16) 0.06075(16) 0.79954(19)
H19A H -0.1085 0.1010 0.7762
C20A C -0.11892(16) -0.04268(16) 0.83799(18)
C21A C -0.10562(16) -0.11018(17) 0.85374(19)
H20A H -0.0660 -0.1299 0.8369
C22A C -0.15209(17) -0.14737(16) 0.89471(19)
C23A C -0.13802(18) -0.22056(17) 0.9126(2)
H21A H -0.0951 -0.2329 0.8918
H22A H -0.1730 -0.2478 0.8885
H23A H -0.1370 -0.2274 0.9690
C24A C -0.21308(16) -0.11678(17) 0.92022(19)
C25A C -0.26375(18) -0.15740(18) 0.9650(2)
H24A H -0.3017 -0.1296 0.9772
H25A H -0.2429 -0.1738 1.0133
H26A H -0.2789 -0.1946 0.9330
C26A C -0.22615(16) -0.04960(16) 0.90446(18)
H27A H -0.2657 -0.0295 0.9212
C27A C -0.17858(16) -0.01261(16) 0.86291(18)
C28A C -0.37655(16) 0.17499(16) 0.79834(19)
H28A H -0.3911 0.1348 0.7755
C29A C -0.37483(16) 0.27881(16) 0.83523(18)
C30A C -0.38613(16) 0.34705(16) 0.84929(19)
H29A H -0.4260 0.3675 0.8314
C31A C -0.33690(17) 0.38364(16) 0.89025(19)
C32A C -0.34818(18) 0.45709(17) 0.9066(2)
H30A H -0.3915 0.4704 0.8849
H31A H -0.3134 0.4830 0.8827
H32A H -0.3468 0.4646 0.9628
C33A C -0.27568(17) 0.35191(17) 0.91725(19)
C34A C -0.22247(18) 0.39200(18) 0.9621(2)
H33A H -0.1847 0.3635 0.9757
H34A H -0.2412 0.4097 1.0096
H35A H -0.2076 0.4283 0.9296
C35A C -0.26462(16) 0.28426(17) 0.90276(19)
H36A H -0.2248 0.2635 0.9202
C36A C -0.31478(16) 0.24821(16) 0.86130(18)
N5A N -0.17913(14) 0.05405(14) 0.83770(16)
N6A N -0.08264(14) 0.00562(14) 0.79730(16)
N7A N -0.31671(13) 0.18102(14) 0.83679(16)
N8A N -0.41417(14) 0.23122(14) 0.79521(16)
Cu3_2 Cu -0.5000 0.23545(3) 0.7500
N8A_2 N 0.58583(14) 0.23122(14) 0.79521(16)
loop_
_geom_bond_atom_site_label_1
_geom_bond_atom_site_label_2
_geom_bond_site_symmetry_1
_geom_bond_site_symmetry_2
Cu1 N2 1_555 1_555
Cu2 N4 1_555 1_555
C1 H1 1_555 1_555
C2 C3 1_555 1_555
C3 H2 1_555 1_555
C4 C3 1_555 1_555
C5 C4 1_555 1_555
H3 C5 1_555 1_555
H4 C5 1_555 1_555
H5 C5 1_555 1_555
C6 C4 1_555 1_555
C7 C6 1_555 1_555
H6 C7 1_555 1_555
H7 C7 1_555 1_555
H8 C7 1_555 1_555
C8 C6 1_555 1_555
H9 C8 1_555 1_555
C9 C2 1_555 1_555
C10 H10 1_555 1_555
C11 C12 1_555 1_555
C12 H11 1_555 1_555
C13 C12 1_555 1_555
C14 C13 1_555 1_555
H12 C14 1_555 1_555
H13 C14 1_555 1_555
H14 C14 1_555 1_555
C15 C13 1_555 1_555
C16 C15 1_555 1_555
H15 C16 1_555 1_555
H16 C16 1_555 1_555
H17 C16 1_555 1_555
C17 C15 1_555 1_555
H18 C17 1_555 1_555
C18 C11 1_555 1_555
N1 C1 1_555 1_555
N2 C1 1_555 1_555
N3 Cu1 1_555 1_555
N4 C10 1_555 1_555
Cu3 N8 1_555 1_555
Cu4 N6 1_555 1_555
Cu5 N5 1_555 1_555
C19 H19 1_555 1_555
C20 C21 1_555 1_555
C21 H20 1_555 1_555
C22 C21 1_555 1_555
C23 C22 1_555 1_555
H21 C23 1_555 1_555
H22 C23 1_555 1_555
H23 C23 1_555 1_555
C24 C22 1_555 1_555
C25 C24 1_555 1_555
H24 C25 1_555 1_555
H25 C25 1_555 1_555
H26 C25 1_555 1_555
C26 C24 1_555 1_555
H27 C26 1_555 1_555
C27 C20 1_555 1_555
C28 H28 1_555 1_555
C29 C30 1_555 1_555
C30 H29 1_555 1_555
C31 C30 1_555 1_555
C32 C31 1_555 1_555
H30 C32 1_555 1_555
H31 C32 1_555 1_555
H32 C32 1_555 1_555
C33 C31 1_555 1_555
C34 C33 1_555 1_555
H33 C34 1_555 1_555
H34 C34 1_555 1_555
H35 C34 1_555 1_555
C35 C33 1_555 1_555
H36 C35 1_555 1_555
C36 C29 1_555 1_555
N5 C19 1_555 1_555
N6 C19 1_555 1_555
N7 Cu5 1_555 1_555
N8 C28 1_555 1_555
Cu2C N1 1_555 1_555
N1C Cu2 1_555 1_555
Cu5A N5A 1_555 1_555
C19A H19A 1_555 1_555
C20A C21A 1_555 1_555
C21A H20A 1_555 1_555
C22A C21A 1_555 1_555
C23A C22A 1_555 1_555
H21A C23A 1_555 1_555
H22A C23A 1_555 1_555
H23A C23A 1_555 1_555
C24A C22A 1_555 1_555
C25A C24A 1_555 1_555
H24A C25A 1_555 1_555
H25A C25A 1_555 1_555
H26A C25A 1_555 1_555
C26A C24A 1_555 1_555
H27A C26A 1_555 1_555
C27A C20A 1_555 1_555
C28A H28A 1_555 1_555
C29A C30A 1_555 1_555
C30A H29A 1_555 1_555
C31A C30A 1_555 1_555
C32A C31A 1_555 1_555
H30A C32A 1_555 1_555
H31A C32A 1_555 1_555
H32A C32A 1_555 1_555
C33A C31A 1_555 1_555
C34A C33A 1_555 1_555
H33A C34A 1_555 1_555
H34A C34A 1_555 1_555
H35A C34A 1_555 1_555
C35A C33A 1_555 1_555
H36A C35A 1_555 1_555
C36A C29A 1_555 1_555
N5A C19A 1_555 1_555
N6A Cu4 1_555 1_555
N7A Cu5A 1_555 1_555
N8A C28A 1_555 1_555
Cu3_2 N8A 1_555 1_555
N8A_2 Cu3 1_555 1_555
C2 N1 1_555 1_555
C8 C9 1_555 1_555
C9 N2 1_555 1_555
C10 N3 1_555 1_555
C11 N3 1_555 1_555
C17 C18 1_555 1_555
C18 N4 1_555 1_555
C20 N6 1_555 1_555
C26 C27 1_555 1_555
C27 N5 1_555 1_555
C28 N7 1_555 1_555
C29 N8 1_555 1_555
C35 C36 1_555 1_555
C36 N7 1_555 1_555
C19A N6A 1_555 1_555
C20A N6A 1_555 1_555
C26A C27A 1_555 1_555
C27A N5A 1_555 1_555
C28A N7A 1_555 1_555
C29A N8A 1_555 1_555
C35A C36A 1_555 1_555
C36A N7A 1_555 1_555

#END
