
#######################################################################
#
#                 Cambridge Crystallographic Data Centre
#                                CCDC 
#
#######################################################################
#
# If this CIF has been generated from an entry in the Cambridge 
# Structural Database, then it will include bibliographic, chemical, 
# crystal, experimental, refinement or atomic coordinate data resulting 
# from the CCDC's data processing and validation procedures.
#
#######################################################################

data_WIDSUY01
_symmetry_cell_setting           monoclinic
_symmetry_space_group_name_H-M   'C 2/c'
_symmetry_Int_Tables_number      15
_space_group_name_Hall           '-C 2yn'
loop_
_symmetry_equiv_pos_site_id
_symmetry_equiv_pos_as_xyz
1 x,y,z
2 -x,y,1/2-z
3 1/2+x,1/2+y,z
4 1/2-x,1/2+y,1/2-z
5 -x,-y,-z
6 x,-y,1/2+z
7 1/2-x,1/2-y,-z
8 1/2+x,1/2-y,1/2+z
_cell_length_a                   19.3530(14)
_cell_length_b                   9.9584(7)
_cell_length_c                   21.0315(15)
_cell_angle_alpha                90
_cell_angle_beta                 101.0760(10)
_cell_angle_gamma                90
_cell_volume                     3977.79
loop_
_atom_site_label
_atom_site_type_symbol
_atom_site_fract_x
_atom_site_fract_y
_atom_site_fract_z
Cd1 Cd 1.031986(9) 0.796312(16) 0.483304(7)
N1 N 1.02931(10) 0.78023(18) 0.58988(9)
O1 O 0.94264(9) 0.62532(17) 0.43896(8)
O2 O 0.98238(10) 0.77275(18) 0.37684(9)
O3 O 0.87478(10) -0.10122(19) 0.05047(9)
O4 O 0.92878(9) 0.0439(2) -0.00217(10)
O5 O 0.68443(8) 0.40593(18) 0.17530(9)
O6 O 0.72805(10) 0.56952(17) 0.10349(9)
O7 O 1.10216(11) 0.60180(19) 0.49543(10)
S1 S 0.74192(3) 0.46372(6) 0.15077(3)
C1 C 0.94357(13) 0.6757(2) 0.38414(12)
C2 C 0.89592(12) 0.6188(2) 0.32530(11)
C3 C 0.89801(13) 0.6687(2) 0.26412(12)
H1 H 0.9306 0.7348 0.2594
C4 C 0.85222(13) 0.6213(2) 0.20995(12)
H2 H 0.8538 0.6550 0.1690
C5 C 0.80404(11) 0.5227(2) 0.21789(11)
C6 C 0.80255(13) 0.4697(2) 0.27848(12)
H3 H 0.7707 0.4022 0.2832
C7 C 0.84870(13) 0.5180(2) 0.33161(12)
H4 H 0.8481 0.4823 0.3724
C8 C 0.88690(12) 0.0177(3) 0.03490(12)
C9 C 0.85088(11) 0.1292(2) 0.06351(12)
C10 C 0.84162(12) 0.2531(3) 0.03315(12)
H5 H 0.8576 0.2670 -0.0053
C11 C 0.80878(12) 0.3560(2) 0.05971(11)
H6 H 0.8021 0.4390 0.0392
C12 C 0.78586(11) 0.3343(2) 0.11710(11)
C13 C 0.79567(14) 0.2115(2) 0.14875(12)
H7 H 0.7808 0.1985 0.1878
C14 C 0.82785(14) 0.1093(2) 0.12131(12)
H8 H 0.8342 0.0261 0.1417
C15 C 1.04664(13) 0.8857(2) 0.62899(11)
H9 H 1.0667 0.9603 0.6131
C16 C 1.03601(14) 0.8882(2) 0.69150(11)
H10 H 1.0484 0.9637 0.7172
C17 C 1.00659(12) 0.7773(2) 0.71639(10)
C18 C 0.98939(12) 0.6676(2) 0.67610(11)
H11 H 0.9701 0.5910 0.6910
C19 C 1.00115(12) 0.6730(2) 0.61379(11)
H12 H 0.9890 0.5989 0.5870
H15 H 1.0873(16) 0.539(3) 0.5161(14)
H16 H 1.1435(11) 0.618(3) 0.5148(14)
Cd1A Cd 0.968014(9) 0.796312(16) 1.016696(7)
Cd1A_2 Cd 0.968014(9) -0.203688(16) 0.016696(7)
Cd1E Cd 1.031986(9) 0.203688(16) -0.016696(7)
Cd1A_3 Cd 0.968014(9) 1.796312(16) 0.016696(7)
Cd1D Cd 0.968014(9) 1.203688(16) 0.516696(7)
N1A N 0.97069(10) 0.78023(18) 0.91012(9)
O1A O 1.05736(9) 1.62532(17) 0.06104(8)
O1A_2 O 1.05736(9) 0.62532(17) 1.06104(8)
O2A O 1.01762(10) 1.77275(18) 0.12316(9)
O2A_2 O 1.01762(10) 0.77275(18) 1.12316(9)
O3A O 1.12522(10) 0.89878(19) 0.44953(9)
O3_2 O 0.87478(10) 0.89878(19) 1.05047(9)
O4A O 1.07122(9) 1.0439(2) 0.50217(10)
O4E O 0.92878(9) 0.9561(2) 0.49783(10)
O4_2 O 0.92878(9) 1.0439(2) 0.99783(10)
O4D O 1.07122(9) 0.9561(2) 1.00217(10)
O5A O 1.31557(8) 1.40593(18) 0.32470(9)
O6A O 1.27195(10) 1.56952(17) 0.39651(9)
O7A O 0.89784(11) 0.60180(19) 1.00457(10)
S1A S 1.25808(3) 1.46372(6) 0.34923(3)
C1A C 1.05643(13) 1.6757(2) 0.11586(12)
C2A C 1.10408(12) 1.6188(2) 0.17470(11)
C3A C 1.10199(13) 1.6687(2) 0.23588(12)
H1A H 1.0694 1.7348 0.2406
C4A C 1.14778(13) 1.6213(2) 0.29005(12)
H2A H 1.1462 1.6550 0.3310
C5A C 1.19596(11) 1.5227(2) 0.28211(11)
C6A C 1.19745(13) 1.4697(2) 0.22152(12)
H3A H 1.2293 1.4022 0.2168
C7A C 1.15130(13) 1.5180(2) 0.16839(12)
H4A H 1.1519 1.4823 0.1276
C8A C 1.11310(12) 1.0177(3) 0.46510(12)
C9A C 1.14912(11) 1.1292(2) 0.43649(12)
C10A C 1.15838(12) 1.2531(3) 0.46685(12)
H5A H 1.1424 1.2670 0.5053
C11A C 1.19122(12) 1.3560(2) 0.44029(11)
H6A H 1.1979 1.4390 0.4608
C12A C 1.21414(11) 1.3343(2) 0.38290(11)
C13A C 1.20433(14) 1.2115(2) 0.35125(12)
H7A H 1.2192 1.1985 0.3122
C14A C 1.17215(14) 1.1093(2) 0.37869(12)
H8A H 1.1658 1.0261 0.3583
C15A C 0.95336(13) 0.8857(2) 0.87101(11)
H9A H 0.9333 0.9603 0.8869
C16A C 0.96399(14) 0.8882(2) 0.80850(11)
H10A H 0.9516 0.9637 0.7828
C17A C 0.99341(12) 0.7773(2) 0.78361(10)
C18A C 1.01061(12) 0.6676(2) 0.82390(11)
H11A H 1.0299 0.5910 0.8090
C19A C 0.99885(12) 0.6730(2) 0.88621(11)
H12A H 1.0110 0.5989 0.9130
H15A H 0.9127(16) 0.539(3) 0.9839(14)
H16A H 0.8565(11) 0.618(3) 0.9852(14)
O8 O 0.23316(12) 0.6607(2) 0.56364(12)
H13 H 0.2741(12) 0.643(4) 0.5573(17)
H14 H 0.2289(19) 0.741(2) 0.5740(18)
loop_
_geom_bond_atom_site_label_1
_geom_bond_atom_site_label_2
_geom_bond_site_symmetry_1
_geom_bond_site_symmetry_2
Cd1 N1 1_555 1_555
N1 C15 1_555 1_555
O1 Cd1 1_555 1_555
O2 Cd1 1_555 1_555
O3 C8 1_555 1_555
O4 C8 1_555 1_555
O5 S1 1_555 1_555
O6 S1 1_555 1_555
O7 Cd1 1_555 1_555
O8 H13 1_555 1_555
S1 C5 1_555 1_555
C1 O1 1_555 1_555
C2 C1 1_555 1_555
C3 C2 1_555 1_555
H1 C3 1_555 1_555
C4 C3 1_555 1_555
H2 C4 1_555 1_555
C5 C4 1_555 1_555
C6 C5 1_555 1_555
H3 C6 1_555 1_555
C7 C2 1_555 1_555
H4 C7 1_555 1_555
C8 C9 1_555 1_555
C9 C10 1_555 1_555
C10 H5 1_555 1_555
C11 C10 1_555 1_555
H6 C11 1_555 1_555
C12 S1 1_555 1_555
C13 C12 1_555 1_555
H7 C13 1_555 1_555
C14 C9 1_555 1_555
H8 C14 1_555 1_555
C15 H9 1_555 1_555
C16 C15 1_555 1_555
H10 C16 1_555 1_555
C17 C16 1_555 1_555
C18 C17 1_555 1_555
H11 C18 1_555 1_555
C19 N1 1_555 1_555
H12 C19 1_555 1_555
H14 O8 1_555 1_555
H15 O7 1_555 1_555
H16 O7 1_555 1_555
Cd1A N1A 1_555 1_555
Cd1A_2 O3 1_555 1_555
Cd1E O4 1_555 1_555
Cd1A_3 O1A 1_555 1_555
Cd1D O4A 1_555 1_555
N1A C15A 1_555 1_555
O1A C1A 1_555 1_555
O1A_2 Cd1A 1_555 1_555
O2A Cd1A_3 1_555 1_555
O2A_2 Cd1A 1_555 1_555
O3A Cd1 1_555 1_555
O3_2 Cd1A 1_555 1_555
O4A Cd1 1_555 1_555
O4E Cd1 1_555 1_555
O4_2 Cd1A 1_555 1_555
O4D Cd1A 1_555 1_555
O5A S1A 1_555 1_555
O6A S1A 1_555 1_555
O7A Cd1A 1_555 1_555
S1A C5A 1_555 1_555
C1A O2A 1_555 1_555
C2A C1A 1_555 1_555
C3A C2A 1_555 1_555
H1A C3A 1_555 1_555
C4A C3A 1_555 1_555
H2A C4A 1_555 1_555
C5A C4A 1_555 1_555
C6A C5A 1_555 1_555
H3A C6A 1_555 1_555
C7A C2A 1_555 1_555
H4A C7A 1_555 1_555
C8A O3A 1_555 1_555
C9A C8A 1_555 1_555
C10A C9A 1_555 1_555
H5A C10A 1_555 1_555
C11A C10A 1_555 1_555
H6A C11A 1_555 1_555
C12A S1A 1_555 1_555
C13A C12A 1_555 1_555
H7A C13A 1_555 1_555
C14A C9A 1_555 1_555
H8A C14A 1_555 1_555
C15A H9A 1_555 1_555
C16A C15A 1_555 1_555
H10A C16A 1_555 1_555
C17A C17 1_555 1_555
C18A C17A 1_555 1_555
H11A C18A 1_555 1_555
C19A N1A 1_555 1_555
H12A C19A 1_555 1_555
H15A O7A 1_555 1_555
H16A O7A 1_555 1_555
O2 C1 1_555 1_555
O4 Cd1A_2 1_555 1_555
C6 C7 1_555 1_555
C11 C12 1_555 1_555
C13 C14 1_555 1_555
C18 C19 1_555 1_555
Cd1D O4E 1_555 1_555
O4A C8A 1_555 1_555
C6A C7A 1_555 1_555
C11A C12A 1_555 1_555
C13A C14A 1_555 1_555
C16A C17A 1_555 1_555
C18A C19A 1_555 1_555

#END
