
#######################################################################
#
#                 Cambridge Crystallographic Data Centre
#                                CCDC 
#
#######################################################################
#
# If this CIF has been generated from an entry in the Cambridge 
# Structural Database, then it will include bibliographic, chemical, 
# crystal, experimental, refinement or atomic coordinate data resulting 
# from the CCDC's data processing and validation procedures.
#
#######################################################################

data_WIDSUY
_symmetry_cell_setting           monoclinic
_symmetry_space_group_name_H-M   'C 2/c'
_symmetry_Int_Tables_number      15
_space_group_name_Hall           '-C 2yn'
loop_
_symmetry_equiv_pos_site_id
_symmetry_equiv_pos_as_xyz
1 x,y,z
2 1/2+x,1/2+y,z
3 -x,y,1/2-z
4 1/2-x,1/2+y,1/2-z
5 -x,-y,-z
6 1/2-x,1/2-y,-z
7 x,-y,1/2+z
8 1/2+x,1/2-y,1/2+z
_cell_length_a                   19.144(4)
_cell_length_b                   9.934(2)
_cell_length_c                   21.129(4)
_cell_angle_alpha                90
_cell_angle_beta                 100.90(3)
_cell_angle_gamma                90
_cell_volume                     3945.74
loop_
_atom_site_label
_atom_site_type_symbol
_atom_site_fract_x
_atom_site_fract_y
_atom_site_fract_z
Cd1 Cd -0.031299(7) 0.703895(12) 0.515942(6)
S1 S 0.25903(2) 1.03577(4) 0.84776(2)
O1 O 0.05731(8) 0.87623(14) 0.56071(7)
O2 O 0.01667(9) 0.72786(15) 0.62254(8)
O3 O -0.10305(9) 0.89763(15) 0.50378(8)
H1 H -0.0841(12) 0.956(2) 0.4852(11)
H2 H -0.1432(8) 0.878(3) 0.4832(12)
O5 O 0.07155(8) 1.44992(18) 1.00506(8)
O6 O 0.12435(9) 1.59745(15) 0.95194(8)
O7 O 0.27329(8) 0.92834(14) 0.89406(8)
O8 O 0.31711(7) 1.09501(15) 0.82343(8)
N1 N -0.02888(9) 0.71952(15) 0.40959(8)
C1 C 0.10377(10) 0.88264(18) 0.67402(9)
C2 C 0.10131(11) 0.8316(2) 0.73483(10)
H5 H 0.0684 0.7651 0.7393
C3 C 0.14736(11) 0.87872(19) 0.78876(10)
H6 H 0.1457 0.8446 0.8294
C4 C 0.19640(10) 0.97845(18) 0.78100(9)
C5 C 0.19833(11) 1.0319(2) 0.72084(10)
H7 H 0.2307 1.0994 0.7163
C6 C 0.15156(11) 0.9840(2) 0.66756(10)
H8 H 0.1522 1.0201 0.6271
C7 C 0.21451(9) 1.16439(18) 0.88234(9)
C8 C 0.19235(10) 1.14008(19) 0.93993(9)
H9 H 0.1996 1.0564 0.9599
C9 C 0.15919(10) 1.2425(2) 0.96727(10)
H10 H 0.1435 1.2275 1.0057
C10 C 0.14918(10) 1.36700(19) 0.93779(10)
C11 C 0.17166(12) 1.38917(19) 0.87972(10)
H11 H 0.1648 1.4730 0.8599
C12 C 0.20392(12) 1.28778(18) 0.85158(10)
H12 H 0.2184 1.3018 0.8125
C13 C 0.05592(11) 0.8255(2) 0.61544(10)
C14 C 0.11283(10) 1.4780(2) 0.96747(10)
C15 C -0.04610(11) 0.6134(2) 0.37105(9)
H13 H -0.0656 0.5381 0.3873
C16 C -0.03614(12) 0.61078(19) 0.30822(9)
H14 H -0.0491 0.5354 0.2826
C17 C -0.00638(10) 0.72259(18) 0.28346(9)
C18 C 0.01097(10) 0.83298(19) 0.32329(9)
H15 H 0.0300 0.9099 0.3081
C19 C -0.00034(11) 0.82743(19) 0.38574(9)
H16 H 0.0123 0.9014 0.4125
Cd1F Cd -0.031299(7) 1.296105(12) 0.015942(6)
Cd1F_2 Cd -0.031299(7) 1.296105(12) 1.015942(6)
Cd1B Cd 0.031299(7) 1.703895(12) 0.984058(6)
Cd1B_2 Cd 0.031299(7) 0.703895(12) -0.015942(6)
Cd1D Cd 0.031299(7) 0.296105(12) 0.484058(6)
S1F S 0.25903(2) 0.96423(4) 0.34776(2)
O1F O 0.05731(8) 1.12377(14) 0.06071(7)
O2F O 0.01667(9) 1.27214(15) 0.12254(8)
O3F O -0.10305(9) 1.10237(15) 0.00378(8)
H1F H -0.0841(12) 1.044(2) -0.0148(11)
H2F H -0.1432(8) 1.122(3) -0.0168(12)
O5F O 0.07155(8) 0.55008(18) 0.50506(8)
O5B O -0.07155(8) 0.44992(18) 0.49494(8)
O5_2 O 0.07155(8) 1.44992(18) 0.00506(8)
O5D O -0.07155(8) 1.55008(18) -0.00506(8)
O6F O 0.12435(9) 0.40255(15) 0.45194(8)
O6B O -0.12435(9) 0.59745(15) 0.54806(8)
O6D O -0.12435(9) 1.40255(15) 0.04806(8)
O7F O 0.27329(8) 1.07166(14) 0.39406(8)
O8F O 0.31711(7) 0.90499(15) 0.32343(8)
N1B N 0.02888(9) 0.71952(15) 0.09041(8)
N1F N -0.02888(9) 1.28048(15) -0.09041(8)
C1F C 0.10377(10) 1.11736(18) 0.17402(9)
C2F C 0.10131(11) 1.1684(2) 0.23483(10)
H5F H 0.0684 1.2349 0.2393
C3F C 0.14736(11) 1.12128(19) 0.28876(10)
H6F H 0.1457 1.1554 0.3294
C4F C 0.19640(10) 1.02155(18) 0.28100(9)
C5F C 0.19833(11) 0.9681(2) 0.22084(10)
H7F H 0.2307 0.9006 0.2163
C6F C 0.15156(11) 1.0160(2) 0.16756(10)
H8F H 0.1522 0.9799 0.1271
C7F C 0.21451(9) 0.83561(18) 0.38234(9)
C8F C 0.19235(10) 0.85992(19) 0.43993(9)
H9F H 0.1996 0.9436 0.4599
C9F C 0.15919(10) 0.7575(2) 0.46727(10)
H10F H 0.1435 0.7725 0.5057
C10F C 0.14918(10) 0.63300(19) 0.43779(10)
C11F C 0.17166(12) 0.61083(19) 0.37972(10)
H11F H 0.1648 0.5270 0.3599
C12F C 0.20392(12) 0.71222(18) 0.35158(10)
H12F H 0.2184 0.6982 0.3125
C13F C 0.05592(11) 1.1745(2) 0.11544(10)
C14F C 0.11283(10) 0.5220(2) 0.46747(10)
C15B C 0.04610(11) 0.6134(2) 0.12895(9)
H13B H 0.0656 0.5381 0.1127
C16B C 0.03614(12) 0.61078(19) 0.19178(9)
H14B H 0.0491 0.5354 0.2174
C17B C 0.00638(10) 0.72259(18) 0.21654(9)
C18B C -0.01097(10) 0.83298(19) 0.17671(9)
H15B H -0.0300 0.9099 0.1919
C19B C 0.00034(11) 0.82743(19) 0.11426(9)
H16B H -0.0123 0.9014 0.0875
O4 O 0.26534(9) 0.66036(17) 0.93610(10)
H3 H 0.2709(13) 0.7423(12) 0.9302(15)
H4 H 0.2240(8) 0.645(2) 0.9414(15)
loop_
_geom_bond_atom_site_label_1
_geom_bond_atom_site_label_2
_geom_bond_site_symmetry_1
_geom_bond_site_symmetry_2
Cd1 O1 1_555 1_555
S1 O7 1_555 1_555
O1 C13 1_555 1_555
O2 Cd1 1_555 1_555
O3 Cd1 1_555 1_555
H1 O3 1_555 1_555
H2 O3 1_555 1_555
O4 H3 1_555 1_555
H4 O4 1_555 1_555
O5 C14 1_555 1_555
O6 C14 1_555 1_555
O8 S1 1_555 1_555
N1 Cd1 1_555 1_555
C1 C2 1_555 1_555
C2 H5 1_555 1_555
C3 C2 1_555 1_555
H6 C3 1_555 1_555
C4 S1 1_555 1_555
C5 C4 1_555 1_555
H7 C5 1_555 1_555
C6 C1 1_555 1_555
H8 C6 1_555 1_555
C7 S1 1_555 1_555
C8 C7 1_555 1_555
H9 C8 1_555 1_555
C9 C8 1_555 1_555
H10 C9 1_555 1_555
C10 C9 1_555 1_555
C11 C10 1_555 1_555
H11 C11 1_555 1_555
C12 C7 1_555 1_555
H12 C12 1_555 1_555
C13 O2 1_555 1_555
C14 C10 1_555 1_555
C15 N1 1_555 1_555
H13 C15 1_555 1_555
C16 C15 1_555 1_555
H14 C16 1_555 1_555
C17 C16 1_555 1_555
C18 C17 1_555 1_555
H15 C18 1_555 1_555
C19 N1 1_555 1_555
H16 C19 1_555 1_555
Cd1F O1F 1_555 1_555
Cd1F_2 O5 1_555 1_555
Cd1B O5 1_555 1_555
Cd1B_2 N1B 1_555 1_555
Cd1D O5F 1_555 1_555
S1F O7F 1_555 1_555
O1F C13F 1_555 1_555
O2F Cd1F 1_555 1_555
O3F Cd1F 1_555 1_555
H1F O3F 1_555 1_555
H2F O3F 1_555 1_555
O5F Cd1 1_555 1_555
O5B Cd1 1_555 1_555
O5_2 Cd1F 1_555 1_555
O5D Cd1F 1_555 1_555
O6F Cd1D 1_555 1_555
O6B Cd1 1_555 1_555
O6D Cd1F 1_555 1_555
O8F S1F 1_555 1_555
N1B C15B 1_555 1_555
N1F Cd1F 1_555 1_555
C1F C2F 1_555 1_555
C2F H5F 1_555 1_555
C3F C2F 1_555 1_555
H6F C3F 1_555 1_555
C4F S1F 1_555 1_555
C5F C4F 1_555 1_555
H7F C5F 1_555 1_555
C6F C1F 1_555 1_555
H8F C6F 1_555 1_555
C7F S1F 1_555 1_555
C8F C7F 1_555 1_555
H9F C8F 1_555 1_555
C9F C8F 1_555 1_555
H10F C9F 1_555 1_555
C10F C9F 1_555 1_555
C11F C10F 1_555 1_555
H11F C11F 1_555 1_555
C12F C7F 1_555 1_555
H12F C12F 1_555 1_555
C13F O2F 1_555 1_555
C14F O5F 1_555 1_555
C15B H13B 1_555 1_555
C16B C15B 1_555 1_555
H14B C16B 1_555 1_555
C17B C17 1_555 1_555
C18B C17B 1_555 1_555
H15B C18B 1_555 1_555
C19B N1B 1_555 1_555
H16B C19B 1_555 1_555
O6 Cd1B 1_555 1_555
C1 C13 1_555 1_555
C3 C4 1_555 1_555
C5 C6 1_555 1_555
C11 C12 1_555 1_555
C18 C19 1_555 1_555
Cd1D O5B 1_555 1_555
O6F C14F 1_555 1_555
C1F C13F 1_555 1_555
C3F C4F 1_555 1_555
C5F C6F 1_555 1_555
C10F C14F 1_555 1_555
C11F C12F 1_555 1_555
C16B C17B 1_555 1_555
C18B C19B 1_555 1_555

#END
