
#######################################################################
#
#                 Cambridge Crystallographic Data Centre
#                                CCDC 
#
#######################################################################
#
# If this CIF has been generated from an entry in the Cambridge 
# Structural Database, then it will include bibliographic, chemical, 
# crystal, experimental, refinement or atomic coordinate data resulting 
# from the CCDC's data processing and validation procedures.
#
#######################################################################

data_WIDVUA
_symmetry_cell_setting           monoclinic
_symmetry_space_group_name_H-M   'P 21/n'
_symmetry_Int_Tables_number      14
_space_group_name_Hall           '-P 2yn'
loop_
_symmetry_equiv_pos_site_id
_symmetry_equiv_pos_as_xyz
1 x,y,z
2 1/2-x,1/2+y,1/2-z
3 -x,-y,-z
4 1/2+x,1/2-y,1/2+z
_cell_length_a                   3.890
_cell_length_b                   11.811(2)
_cell_length_c                   19.830(4)
_cell_angle_alpha                90
_cell_angle_beta                 91.62(3)
_cell_angle_gamma                90
_cell_volume                     910.721
loop_
_atom_site_label
_atom_site_type_symbol
_atom_site_fract_x
_atom_site_fract_y
_atom_site_fract_z
Cu1 Cu 0.1447(2) 0.0499(1) 0.4501(1)
S1 S 0.1376(4) -0.0577(1) 0.3557(1)
S2 S -0.3466(3) 0.1455(1) 0.4675(1)
C1 C 0.3147(13) -0.1752(5) 0.3899(3)
C2 C -0.3988(12) 0.2065(5) 0.5444(3)
C3 C -0.5664(14) 0.3113(5) 0.5653(3)
C4 C 0.4706(14) -0.2785(5) 0.3628(3)
O1 O -0.7251(12) 0.3876(4) 0.5386(2)
O2 O 0.5179(12) -0.3189(4) 0.3076(2)
S2_2 S 0.6534(3) 0.1455(1) 0.4675(1)
Cu1_2 Cu -0.8553(2) 0.0499(1) 0.4501(1)
C2B C 0.3988(12) -0.2065(5) 0.4556(3)
C1B C -0.3147(13) 0.1752(5) 0.6101(3)
C4B C -0.4706(14) 0.2785(5) 0.6372(3)
C3B C 0.5664(14) -0.3113(5) 0.4347(3)
S2B S 0.3466(3) -0.1455(1) 0.5325(1)
S1B S -0.1376(4) 0.0577(1) 0.6443(1)
O2B O -0.5179(12) 0.3189(4) 0.6924(2)
O1B O 0.7251(12) -0.3876(4) 0.4614(2)
Cu1B Cu -0.1447(2) -0.0499(1) 0.5499(1)
Cu1B_2 Cu 0.8553(2) -0.0499(1) 0.5499(1)
S2B_2 S -0.6534(3) -0.1455(1) 0.5325(1)
C5 C -0.4836(15) 0.1140(5) 0.8397(3)
N1 N -0.6398(15) 0.0525(5) 0.7930(2)
N2 N -0.4521(16) 0.0755(5) 0.9013(3)
N3 N -0.3590(15) 0.2145(5) 0.8242(3)
H1 H -0.6631 0.0766 0.7527
H2 H -0.7202 -0.0119 0.8035
H3 H -0.5332 0.0110 0.9113
H4 H -0.3489 0.1151 0.9314
H5 H -0.3813 0.2392 0.7841
H6 H -0.2556 0.2542 0.8543
loop_
_geom_bond_atom_site_label_1
_geom_bond_atom_site_label_2
_geom_bond_site_symmetry_1
_geom_bond_site_symmetry_2
Cu1 S1 1_555 1_555
S1 C1 1_555 1_555
S2 Cu1 1_555 1_555
C1 C4 1_555 1_555
C2 S2 1_555 1_555
C3 C2 1_555 1_555
C4 O2 1_555 1_555
O1 C3 1_555 1_555
C5 N1 1_555 1_555
N1 H1 1_555 1_555
N2 C5 1_555 1_555
N3 C5 1_555 1_555
H2 N1 1_555 1_555
H3 N2 1_555 1_555
H4 N2 1_555 1_555
H5 N3 1_555 1_555
H6 N3 1_555 1_555
S2_2 Cu1 1_555 1_555
Cu1_2 S2 1_555 1_555
C2B C1 1_555 1_555
C1B C2 1_555 1_555
C4B C3 1_555 1_555
C3B C4 1_555 1_555
S2B C2B 1_555 1_555
S1B C1B 1_555 1_555
O2B C4B 1_555 1_555
O1B C3B 1_555 1_555
Cu1B S2B 1_555 1_555
Cu1B_2 S2B 1_555 1_555
S2B_2 Cu1B 1_555 1_555
C2B C3B 1_555 1_555
C1B C4B 1_555 1_555
S1B Cu1B 1_555 1_555

#END
