
#######################################################################
#
#                 Cambridge Crystallographic Data Centre
#                                CCDC 
#
#######################################################################
#
# If this CIF has been generated from an entry in the Cambridge 
# Structural Database, then it will include bibliographic, chemical, 
# crystal, experimental, refinement or atomic coordinate data resulting 
# from the CCDC's data processing and validation procedures.
#
#######################################################################

data_WIDWIR
_symmetry_cell_setting           trigonal
_symmetry_space_group_name_H-M   'P 32 2 1'
_symmetry_Int_Tables_number      154
_space_group_name_Hall           'P 32 2"'
loop_
_symmetry_equiv_pos_site_id
_symmetry_equiv_pos_as_xyz
1 x,y,z
2 -y,x-y,2/3+z
3 -x+y,-x,1/3+z
4 y,x,-z
5 x-y,-y,1/3-z
6 -x,-x+y,2/3-z
_cell_length_a                   10.1695(9)
_cell_length_b                   10.1695(9)
_cell_length_c                   41.686(7)
_cell_angle_alpha                90
_cell_angle_beta                 90
_cell_angle_gamma                120
_cell_volume                     3733.53
loop_
_atom_site_label
_atom_site_type_symbol
_atom_site_fract_x
_atom_site_fract_y
_atom_site_fract_z
La1 La 2.0000 1.59436(9) -0.1667
Ag1 Ag 1.84240(10) 2.0000 -0.3333
Ag2 Ag 1.67084(10) 2.16137(8) -0.325862(14)
Co1 Co 1.62957(14) 1.91289(16) -0.25214(3)
S1 S 1.8586(3) 2.0346(3) -0.27694(5)
S2 S 1.5473(3) 2.0592(3) -0.27594(5)
S3 S 1.5309(3) 1.7349(3) -0.29115(5)
O1 O 1.8456(9) 1.6471(9) -0.20713(18)
O2 O 2.0725(9) 1.8480(9) -0.19945(19)
O3 O 1.8254(10) 2.3430(9) -0.18529(17)
O4 O 1.5985(13) 2.3129(13) -0.1760(2)
O5 O 1.1320(8) 1.5945(9) -0.21524(15)
O6 O 1.1527(11) 1.3862(10) -0.2196(2)
N1 N 1.7173(9) 1.8062(9) -0.22886(17)
H1 H 1.6819 1.7898 -0.2086
H2 H 1.6837 1.7149 -0.2381
N2 N 1.6968(9) 2.0667(9) -0.21705(17)
H3 H 1.6822 2.0182 -0.1982
H4 H 1.7973 2.1304 -0.2192
N3 N 1.4289(9) 1.7806(9) -0.23007(16)
H5 H 1.4453 1.7835 -0.2088
H6 H 1.3683 1.8201 -0.2336
C1 C 1.9521(12) 1.9309(12) -0.2619(2)
C2 C 1.8844(12) 1.8847(12) -0.2276(2)
H7 H 1.9194 1.9779 -0.2151
C3 C 1.9398(13) 1.7858(13) -0.2104(2)
C4 C 2.1197(12) 2.0373(13) -0.2610(3)
H8 H 2.1697 1.9836 -0.2539
H9 H 2.1421 2.1189 -0.2464
H10 H 2.1550 2.0776 -0.2820
C5 C 1.9159(12) 1.7894(12) -0.2815(2)
H11 H 1.9718 1.7441 -0.2731
H12 H 1.9440 1.8177 -0.3035
H13 H 1.8091 1.7178 -0.2803
C6 C 1.6301(11) 2.2268(11) -0.24926(18)
C7 C 1.6212(12) 2.1584(12) -0.2155(2)
H14 H 1.5139 2.0903 -0.2103
C8 C 1.6890(17) 2.2789(14) -0.1896(3)
C9 C 1.7919(12) 2.3454(11) -0.2586(2)
H15 H 1.8292 2.4297 -0.2440
H16 H 1.7925 2.3803 -0.2800
H17 H 1.8559 2.3011 -0.2576
C10 C 1.5299(13) 2.3004(14) -0.2510(2)
H18 H 1.5716 2.3883 -0.2373
H19 H 1.4290 2.2288 -0.2439
H20 H 1.5265 2.3302 -0.2727
C11 C 1.3304(11) 1.6090(11) -0.2769(2)
C12 C 1.3473(12) 1.6184(11) -0.2407(2)
H21 H 1.4124 1.5762 -0.2351
C13 C 1.2749(13) 1.4517(12) -0.2899(3)
H22 H 1.1724 1.3856 -0.2830
H23 H 1.3388 1.4140 -0.2822
H24 H 1.2783 1.4553 -0.3130
C14 C 1.2277(11) 1.6687(12) -0.2891(2)
H25 H 1.1257 1.6032 -0.2818
H26 H 1.2293 1.6709 -0.3121
H27 H 1.2639 1.7695 -0.2810
C15 C 1.1954(14) 1.5218(14) -0.2230(2)
Ag2D Ag 1.50947(13) 1.83863(8) -0.340805(14)
Co1D Co 1.71668(21) 2.08711(16) -0.41453(3)
S1D S 1.8240(4) 1.9654(3) -0.38973(5)
S2D S 1.4881(4) 1.9408(3) -0.39073(5)
S3D S 1.7960(4) 2.2651(3) -0.37552(5)
O1D O 2.1985(13) 2.3529(9) -0.45954(18)
O2D O 2.2245(13) 2.1520(9) -0.46722(19)
O3D O 1.4824(13) 1.6570(9) -0.48138(17)
O4D O 1.2856(18) 1.6871(13) -0.4907(2)
O5D O 1.5375(12) 2.4055(9) -0.45143(15)
O6D O 1.7665(15) 2.6138(10) -0.4471(2)
N1D N 1.9111(13) 2.1938(9) -0.43781(17)
H1D H 1.8921 2.2102 -0.4581
H2D H 1.9688 2.2851 -0.4286
N2D N 1.6301(13) 1.9333(9) -0.44962(17)
H3D H 1.6640 1.9818 -0.4685
H4D H 1.6669 1.8696 -0.4475
N3D N 1.6483(13) 2.2194(9) -0.43660(16)
H5D H 1.6618 2.2165 -0.4579
H6D H 1.5482 2.1799 -0.4331
C1D C 2.0212(17) 2.0691(12) -0.4048(2)
C2D C 1.9997(17) 2.1153(12) -0.4391(2)
H7D H 1.9415 2.0221 -0.4516
C3D C 2.1540(18) 2.2142(13) -0.4563(2)
C4D C 2.0824(18) 1.9627(13) -0.4057(3)
H8D H 2.1861 2.0164 -0.4128
H9D H 2.0232 1.8811 -0.4203
H10D H 2.0774 1.9224 -0.3847
C5D C 2.1265(17) 2.2106(12) -0.3852(2)
H11D H 2.2277 2.2559 -0.3936
H12D H 2.1263 2.1823 -0.3632
H13D H 2.0913 2.2822 -0.3864
C6D C 1.4033(16) 1.7732(11) -0.41741(18)
C7D C 1.4628(17) 1.8416(12) -0.4512(2)
H14D H 1.4236 1.9097 -0.4564
C8D C 1.4101(22) 1.7211(14) -0.4771(3)
C9D C 1.4465(16) 1.6546(11) -0.4081(2)
H15D H 1.3995 1.5703 -0.4227
H16D H 1.4122 1.6197 -0.3867
H17D H 1.5548 1.6989 -0.4091
C10D C 1.2295(19) 1.6996(14) -0.4157(2)
H18D H 1.1833 1.6117 -0.4294
H19D H 1.2002 1.7712 -0.4228
H20D H 1.1963 1.6698 -0.3940
C11D C 1.7214(16) 2.3910(11) -0.3898(2)
C12D C 1.7289(16) 2.3816(11) -0.4260(2)
H21D H 1.8362 2.4238 -0.4316
C13D C 1.8232(18) 2.5483(12) -0.3768(3)
H22D H 1.7868 2.6144 -0.3837
H23D H 1.9248 2.5860 -0.3845
H24D H 1.8230 2.5447 -0.3537
C14D C 1.5590(16) 2.3313(12) -0.3776(2)
H25D H 1.5225 2.3968 -0.3849
H26D H 1.5584 2.3291 -0.3546
H27D H 1.4944 2.2305 -0.3857
C15D C 1.6736(20) 2.4782(14) -0.4437(2)
La1_2 La 1.0000 1.59436(9) -0.1667
La1_3 La 2.0000 2.59436(9) -0.1667
La1A La 1.40564(9) 1.40564(9) -0.5000
La1A_2 La 1.40564(9) 2.40564(9) -0.5000
La1A_3 La 2.40564(9) 2.40564(9) -0.5000
O1E O 2.1544(9) 1.8015(13) -0.12620(18)
O2E O 1.9275(9) 1.7755(13) -0.13388(19)
O3_2 O 1.8254(10) 1.3430(9) -0.18529(17)
O3E O 2.1746(10) 1.5176(13) -0.14804(17)
O5_2 O 2.1320(8) 1.5945(9) -0.21524(15)
O5E O 1.8680(8) 1.4625(12) -0.11809(15)
O7 O 2.0000 1.1815(15) -0.1667
O8 O 1.7263(13) 1.8765(14) -0.1590(2)
O9 O 1.547(3) 2.0010(19) -0.1499(4)
loop_
_geom_bond_atom_site_label_1
_geom_bond_atom_site_label_2
_geom_bond_site_symmetry_1
_geom_bond_site_symmetry_2
La1 O1 1_555 1_555
Ag1 Ag2 1_555 1_555
Ag2 S2 1_555 1_555
Co1 S1 1_555 1_555
S1 Ag1 1_555 1_555
S2 Co1 1_555 1_555
S3 Co1 1_555 1_555
O1 C3 1_555 1_555
O2 La1 1_555 1_555
O3 C8 1_555 1_555
O4 C8 1_555 1_555
O5 C15 1_555 1_555
O6 C15 1_555 1_555
N1 Co1 1_555 1_555
H1 N1 1_555 1_555
H2 N1 1_555 1_555
N2 Co1 1_555 1_555
H3 N2 1_555 1_555
H4 N2 1_555 1_555
N3 Co1 1_555 1_555
H5 N3 1_555 1_555
H6 N3 1_555 1_555
C1 S1 1_555 1_555
C2 N1 1_555 1_555
H7 C2 1_555 1_555
C3 O2 1_555 1_555
C4 C1 1_555 1_555
H8 C4 1_555 1_555
H9 C4 1_555 1_555
H10 C4 1_555 1_555
C5 C1 1_555 1_555
H11 C5 1_555 1_555
H12 C5 1_555 1_555
H13 C5 1_555 1_555
C6 S2 1_555 1_555
C7 N2 1_555 1_555
H14 C7 1_555 1_555
C8 C7 1_555 1_555
C9 C6 1_555 1_555
H15 C9 1_555 1_555
H16 C9 1_555 1_555
H17 C9 1_555 1_555
C10 C6 1_555 1_555
H18 C10 1_555 1_555
H19 C10 1_555 1_555
H20 C10 1_555 1_555
C11 S3 1_555 1_555
C12 N3 1_555 1_555
H21 C12 1_555 1_555
C13 C11 1_555 1_555
H22 C13 1_555 1_555
H23 C13 1_555 1_555
H24 C13 1_555 1_555
C14 C11 1_555 1_555
H25 C14 1_555 1_555
H26 C14 1_555 1_555
H27 C14 1_555 1_555
C15 C12 1_555 1_555
Ag2D Ag1 1_555 1_555
Co1D S1D 1_555 1_555
S1D Ag1 1_555 1_555
S2D Ag2D 1_555 1_555
S3D Ag2 1_555 1_555
O1D C3D 1_555 1_555
O2D C3D 1_555 1_555
O3D C8D 1_555 1_555
O4D C8D 1_555 1_555
O5D C15D 1_555 1_555
O6D C15D 1_555 1_555
N1D Co1D 1_555 1_555
H1D N1D 1_555 1_555
H2D N1D 1_555 1_555
N2D Co1D 1_555 1_555
H3D N2D 1_555 1_555
H4D N2D 1_555 1_555
N3D Co1D 1_555 1_555
H5D N3D 1_555 1_555
H6D N3D 1_555 1_555
C1D S1D 1_555 1_555
C2D N1D 1_555 1_555
H7D C2D 1_555 1_555
C3D C2D 1_555 1_555
C4D C1D 1_555 1_555
H8D C4D 1_555 1_555
H9D C4D 1_555 1_555
H10D C4D 1_555 1_555
C5D C1D 1_555 1_555
H11D C5D 1_555 1_555
H12D C5D 1_555 1_555
H13D C5D 1_555 1_555
C6D S2D 1_555 1_555
C7D N2D 1_555 1_555
H14D C7D 1_555 1_555
C8D C7D 1_555 1_555
C9D C6D 1_555 1_555
H15D C9D 1_555 1_555
H16D C9D 1_555 1_555
H17D C9D 1_555 1_555
C10D C6D 1_555 1_555
H18D C10D 1_555 1_555
H19D C10D 1_555 1_555
H20D C10D 1_555 1_555
C11D S3D 1_555 1_555
C12D N3D 1_555 1_555
H21D C12D 1_555 1_555
C13D C11D 1_555 1_555
H22D C13D 1_555 1_555
H23D C13D 1_555 1_555
H24D C13D 1_555 1_555
C14D C11D 1_555 1_555
H25D C14D 1_555 1_555
H26D C14D 1_555 1_555
H27D C14D 1_555 1_555
C15D C12D 1_555 1_555
La1_2 O5 1_555 1_555
La1_3 O3 1_555 1_555
La1A O3D 1_555 1_555
La1A_2 O5D 1_555 1_555
La1A_3 O1D 1_555 1_555
O1E La1 1_555 1_555
O2E La1 1_555 1_555
O3_2 La1 1_555 1_555
O3E La1 1_555 1_555
O5_2 La1 1_555 1_555
O5E La1 1_555 1_555
Ag2 Ag2D 1_555 1_555
S3 Ag2D 1_555 1_555
C1 C2 1_555 1_555
C2 C3 1_555 1_555
C6 C7 1_555 1_555
C11 C12 1_555 1_555
Co1D S2D 1_555 1_555
Co1D S3D 1_555 1_555
O2D La1A_3 1_555 1_555
C1D C2D 1_555 1_555
C6D C7D 1_555 1_555
C11D C12D 1_555 1_555

#END
