
#######################################################################
#
#                 Cambridge Crystallographic Data Centre
#                                CCDC 
#
#######################################################################
#
# If this CIF has been generated from an entry in the Cambridge 
# Structural Database, then it will include bibliographic, chemical, 
# crystal, experimental, refinement or atomic coordinate data resulting 
# from the CCDC's data processing and validation procedures.
#
#######################################################################

data_WIDWOX
_symmetry_cell_setting           tetragonal
_symmetry_space_group_name_H-M   'P 41 21 2'
_symmetry_Int_Tables_number      92
_space_group_name_Hall           'P 4abw 2nw'
loop_
_symmetry_equiv_pos_site_id
_symmetry_equiv_pos_as_xyz
1 x,y,z
2 -x,-y,1/2+z
3 1/2-y,1/2+x,1/4+z
4 1/2+y,1/2-x,3/4+z
5 1/2-x,1/2+y,1/4-z
6 1/2+x,1/2-y,3/4-z
7 y,x,-z
8 -y,-x,1/2-z
_cell_length_a                   24.3687(14)
_cell_length_b                   24.3687(14)
_cell_length_c                   47.322(6)
_cell_angle_alpha                90
_cell_angle_beta                 90
_cell_angle_gamma                90
_cell_volume                     28101.4
loop_
_atom_site_label
_atom_site_type_symbol
_atom_site_fract_x
_atom_site_fract_y
_atom_site_fract_z
La1 La 0.08148(2) 0.37847(2) 0.637236(11)
Cl1 Cl 0.23546(8) 0.62421(8) 0.46086(4)
Ag1 Ag 0.12970(3) 0.70674(4) 0.441151(17)
Ag2 Ag 0.14749(3) 0.60745(3) 0.499872(15)
Ag3 Ag 0.18913(3) 0.50353(3) 0.462873(14)
Ag4 Ag 0.20192(3) 0.59285(3) 0.406453(15)
Ag5 Ag 0.26758(3) 0.73702(3) 0.460550(14)
Ag6 Ag 0.27796(3) 0.65584(3) 0.518664(14)
Ag7 Ag 0.32518(3) 0.55688(3) 0.477451(14)
Ag8 Ag 0.33970(3) 0.63970(3) 0.412680(18)
Ni1 Ni 0.04422(4) 0.56512(4) 0.43659(2)
Ni2 Ni 0.42624(4) 0.68774(4) 0.48227(2)
Ni3 Ni 0.23553(4) 0.74759(4) 0.37710(2)
Ni4 Ni 0.24293(4) 0.49593(4) 0.54525(2)
Ni5 Ni 0.16095(5) 0.77355(4) 0.52076(2)
Ni6 Ni 0.31556(4) 0.47307(4) 0.40471(2)
S1 S 0.07610(9) 0.62913(8) 0.46366(5)
S2 S 0.12423(8) 0.53340(8) 0.42521(4)
S3 S 0.34549(8) 0.71651(8) 0.49471(4)
S4 S 0.39535(8) 0.62083(8) 0.45655(4)
S5 S 0.29624(8) 0.73224(8) 0.40944(4)
S6 S 0.17599(9) 0.69066(9) 0.39416(5)
S7 S 0.29866(8) 0.55738(8) 0.52940(4)
S8 S 0.17753(8) 0.51334(8) 0.51540(4)
S9 S 0.18271(9) 0.68855(9) 0.52777(4)
S10 S 0.17549(10) 0.77081(9) 0.47583(5)
S11 S 0.28565(8) 0.48045(8) 0.44756(4)
S12 S 0.29410(9) 0.55595(8) 0.39264(4)
O1 O -0.1169(4) 0.6148(7) 0.4730(2)
O2 O -0.1070(5) 0.6996(6) 0.4748(3)
O3 O 0.0442(3) 0.3681(3) 0.39161(18)
O4 O -0.0214(2) 0.4278(2) 0.38042(12)
O5 O 0.4870(3) 0.8240(3) 0.54194(14)
O6 O 0.4188(3) 0.8125(3) 0.57270(13)
O7 O 0.5891(3) 0.6094(4) 0.4615(2)
O8 O 0.5714(4) 0.6005(4) 0.4130(3)
O9 O 0.4289(2) 0.8416(3) 0.35970(13)
O10 O 0.3506(3) 0.8865(3) 0.35441(17)
O11 O 0.1154(5) 0.7550(5) 0.3042(2)
O12 O 0.0411(3) 0.7508(3) 0.3277(2)
O13 O 0.3886(3) 0.4498(3) 0.59960(15)
O14 O 0.4106(3) 0.5349(3) 0.61250(15)
O15 O 0.1185(3) 0.3915(3) 0.58878(13)
O16 O 0.0690(4) 0.3675(4) 0.55245(18)
O17 O 0.2032(3) 0.7233(4) 0.62615(14)
O18 O 0.1256(3) 0.7670(3) 0.61482(14)
O19 O 0.1291(6) 0.9539(3) 0.5067(2)
O20 O 0.0892(6) 0.9444(4) 0.4638(3)
O21 O 0.3629(3) 0.2986(2) 0.43429(14)
O22 O 0.2843(3) 0.2866(3) 0.45622(15)
O23 O 0.3405(4) 0.4485(3) 0.31093(15)
O24 O 0.3788(4) 0.5308(3) 0.30239(17)
O25 O 0.0871(3) 0.4333(3) 0.68706(15)
O26 O 0.0492(5) 0.2853(3) 0.61945(18)
O27 O -0.0122(2) 0.3868(2) 0.66323(12)
O28 O 0.1666(4) 0.3151(3) 0.6300(2)
O29 O 0.0018(2) 0.3898(3) 0.60202(13)
N1 N -0.0286(3) 0.5934(3) 0.44434(17)
N2 N 0.0124(3) 0.5055(3) 0.41503(15)
N3 N 0.4565(3) 0.7390(3) 0.50947(14)
N4 N 0.4992(3) 0.6707(3) 0.46856(15)
N5 N 0.2873(3) 0.7972(3) 0.35988(14)
N6 N 0.1831(3) 0.7657(3) 0.34837(19)
N7 N 0.2958(3) 0.4812(3) 0.57435(14)
N8 N 0.1993(3) 0.4359(3) 0.55904(16)
N9 N 0.1576(3) 0.7833(3) 0.56148(15)
N10 N 0.1324(3) 0.8462(3) 0.51635(15)
N11 N 0.3276(3) 0.3966(3) 0.41133(13)
N12 N 0.3465(3) 0.4629(3) 0.36743(14)
C1 C -0.0314(4) 0.6475(4) 0.4572(2)
H1 H -0.0246 0.6757 0.4429
C2 C 0.0112(4) 0.6522(4) 0.48084(19)
C3 C 0.0195(4) 0.7114(4) 0.4915(2)
H2 H -0.0135 0.7240 0.5004
H3 H 0.0281 0.7349 0.4758
H4 H 0.0492 0.7122 0.5048
C4 C -0.0016(4) 0.6156(4) 0.5055(2)
H5 H -0.0350 0.6276 0.5143
H6 H 0.0279 0.6173 0.5189
H7 H -0.0059 0.5785 0.4990
C5 C -0.0892(6) 0.6559(7) 0.4703(3)
C6 C 0.0489(3) 0.4577(3) 0.41188(18)
H8 H 0.0543 0.4416 0.4307
C7 C 0.1052(3) 0.4766(3) 0.40105(18)
C8 C 0.1015(4) 0.4983(4) 0.37104(17)
H9 H 0.0916 0.4689 0.3585
H10 H 0.1364 0.5130 0.3655
H11 H 0.0742 0.5266 0.3701
C9 C 0.1494(4) 0.4338(4) 0.4029(2)
H12 H 0.1405 0.4038 0.3906
H13 H 0.1520 0.4208 0.4220
H14 H 0.1838 0.4496 0.3973
C10 C 0.0219(4) 0.4135(4) 0.3928(2)
C11 C 0.4181(3) 0.7557(3) 0.53062(17)
H15 H 0.4102 0.7236 0.5424
C12 C 0.3641(3) 0.7750(3) 0.51792(17)
C13 C 0.3717(4) 0.8258(3) 0.49937(19)
H16 H 0.3813 0.8566 0.5110
H17 H 0.3381 0.8335 0.4896
H18 H 0.4004 0.8192 0.4859
C14 C 0.3187(4) 0.7815(4) 0.53976(19)
H19 H 0.3274 0.8116 0.5521
H20 H 0.3156 0.7484 0.5506
H21 H 0.2846 0.7887 0.5303
C15 C 0.4436(4) 0.8020(3) 0.5508(2)
C16 C 0.4996(4) 0.6323(4) 0.4437(2)
H22 H 0.4882 0.6530 0.4270
C17 C 0.4608(3) 0.5859(4) 0.44753(19)
C18 C 0.4520(4) 0.5518(4) 0.42176(19)
H23 H 0.4855 0.5332 0.4170
H24 H 0.4412 0.5749 0.4063
H25 H 0.4238 0.5252 0.4253
C19 C 0.4757(4) 0.5507(4) 0.4728(2)
H26 H 0.5093 0.5316 0.4691
H27 H 0.4469 0.5247 0.4763
H28 H 0.4803 0.5737 0.4891
C20 C 0.5603(7) 0.6136(6) 0.4392(4)
C21 C 0.3453(3) 0.7941(3) 0.36968(18)
H29 H 0.3623 0.7618 0.3609
C22 C 0.3468(4) 0.7865(3) 0.40141(18)
C23 C 0.4014(4) 0.7679(6) 0.4135(3)
H30 H 0.4288 0.7952 0.4097
H31 H 0.4119 0.7338 0.4049
H32 H 0.3979 0.7628 0.4335
C24 C 0.3298(6) 0.8389(4) 0.4164(2)
H33 H 0.3560 0.8674 0.4124
H34 H 0.3286 0.8326 0.4364
H35 H 0.2942 0.8500 0.4099
C25 C 0.3775(4) 0.8454(4) 0.3601(2)
C26 C 0.1250(4) 0.7486(3) 0.3543(2)
H36 H 0.1087 0.7732 0.3684
C27 C 0.1239(4) 0.6887(3) 0.36544(19)
C28 C 0.0704(4) 0.6707(5) 0.3778(3)
H37 H 0.0431 0.6693 0.3632
H38 H 0.0592 0.6963 0.3921
H39 H 0.0746 0.6349 0.3861
C29 C 0.1457(6) 0.6486(4) 0.3430(2)
H40 H 0.1199 0.6460 0.3277
H41 H 0.1507 0.6130 0.3513
H42 H 0.1802 0.6617 0.3358
C30 C 0.0909(5) 0.7505(4) 0.3265(3)
C31 C 0.3359(4) 0.5253(4) 0.58006(17)
H43 H 0.3177 0.5548 0.5906
C32 C 0.3590(3) 0.5486(3) 0.55293(17)
C33 C 0.3858(4) 0.6036(4) 0.5575(2)
H44 H 0.4171 0.5994 0.5696
H45 H 0.3600 0.6283 0.5661
H46 H 0.3974 0.6183 0.5396
C34 C 0.3990(4) 0.5087(4) 0.53805(19)
H47 H 0.4309 0.5035 0.5497
H48 H 0.4098 0.5238 0.5202
H49 H 0.3811 0.4741 0.5351
C35 C 0.3835(4) 0.4997(5) 0.59916(19)
C36 C 0.1486(3) 0.4214(3) 0.54301(17)
H50 H 0.1584 0.3974 0.5272
C37 C 0.1201(3) 0.4749(3) 0.53109(17)
C38 C 0.0964(4) 0.5070(4) 0.5552(2)
H51 H 0.0665 0.4869 0.5634
H52 H 0.0834 0.5418 0.5484
H53 H 0.1243 0.5129 0.5692
C39 C 0.0807(4) 0.4612(4) 0.50778(19)
H54 H 0.0503 0.4410 0.5154
H55 H 0.0991 0.4393 0.4938
H56 H 0.0677 0.4944 0.4992
C40 C 0.1087(4) 0.3894(4) 0.5635(2)
C41 C 0.1832(4) 0.7383(3) 0.57789(16)
H57 H 0.2230 0.7414 0.5755
C42 C 0.1658(3) 0.6820(3) 0.56604(17)
C43 C 0.1033(4) 0.6722(4) 0.5693(2)
H58 H 0.0944 0.6686 0.5889
H59 H 0.0932 0.6392 0.5595
H60 H 0.0836 0.7027 0.5614
C44 C 0.1972(4) 0.6350(4) 0.57814(17)
H61 H 0.1888 0.6314 0.5979
H62 H 0.2358 0.6415 0.5759
H63 H 0.1873 0.6018 0.5684
C45 C 0.1707(4) 0.7453(4) 0.6093(2)
C46 C 0.1203(5) 0.8611(4) 0.4865(2)
H64 H 0.0859 0.8439 0.4805
C47 C 0.1665(7) 0.8436(4) 0.4669(2)
C48 C 0.2233(6) 0.8734(4) 0.4739(3)
H65 H 0.2205 0.9117 0.4694
H66 H 0.2521 0.8571 0.4629
H67 H 0.2314 0.8692 0.4937
C49 C 0.1141(8) 0.9265(6) 0.4858(4)
C50 C 0.1547(7) 0.8485(7) 0.4359(4)
H68 H 0.1502 0.8865 0.4310
H69 H 0.1217 0.8288 0.4315
H70 H 0.1848 0.8334 0.4253
C51 C 0.2993(3) 0.3745(3) 0.43707(16)
H71 H 0.2599 0.3730 0.4330
C52 C 0.3075(3) 0.4129(3) 0.46115(16)
C53 C 0.3678(3) 0.4161(3) 0.46898(17)
H72 H 0.3798 0.3812 0.4761
H73 H 0.3729 0.4437 0.4832
H74 H 0.3889 0.4255 0.4525
C54 C 0.2754(4) 0.3986(4) 0.48699(17)
H75 H 0.2871 0.3635 0.4939
H76 H 0.2371 0.3971 0.4824
H77 H 0.2815 0.4259 0.5012
C55 C 0.3194(5) 0.3143(4) 0.44295(19)
C56 C 0.3505(4) 0.5128(3) 0.34913(18)
H78 H 0.3833 0.5332 0.3549
C57 C 0.3009(4) 0.5497(4) 0.35402(18)
C58 C 0.2506(5) 0.5241(4) 0.3424(2)
H79 H 0.2540 0.5209 0.3222
H80 H 0.2194 0.5465 0.3469
H81 H 0.2459 0.4883 0.3504
C59 C 0.3105(5) 0.6073(4) 0.3424(2)
H82 H 0.3143 0.6055 0.3222
H83 H 0.3434 0.6222 0.3504
H84 H 0.2799 0.6303 0.3471
C60 C 0.3582(5) 0.4957(5) 0.3189(2)
O30 O 0.1684(5) 0.4137(5) 0.6645(2)
C61 C 0.1348(7) 0.4377(7) 0.6873(4)
C62 C 0.1662(8) 0.4714(8) 0.7136(4)
H85 H 0.1493 0.4620 0.7313
H86 H 0.1631 0.5102 0.7105
H87 H 0.2043 0.4613 0.7141
La1C La -0.12153(2) 0.41852(2) 0.387236(11)
La1D La 0.41852(2) 0.87847(2) 0.612764(11)
O4B O 0.0722(2) 0.4786(2) 0.63042(12)
O6D O 0.0812(3) 0.3125(3) 0.67730(13)
loop_
_geom_bond_atom_site_label_1
_geom_bond_atom_site_label_2
_geom_bond_site_symmetry_1
_geom_bond_site_symmetry_2
La1 O15 1_555 1_555
Cl1 Ag2 1_555 1_555
Ag1 S1 1_555 1_555
Ag2 S1 1_555 1_555
Ag3 S2 1_555 1_555
Ag4 Cl1 1_555 1_555
Ag5 Cl1 1_555 1_555
Ag6 Cl1 1_555 1_555
Ag7 Cl1 1_555 1_555
Ag8 S4 1_555 1_555
Ni1 S1 1_555 1_555
Ni2 S3 1_555 1_555
Ni3 S5 1_555 1_555
Ni4 S7 1_555 1_555
Ni5 S9 1_555 1_555
Ni6 S11 1_555 1_555
S1 C2 1_555 1_555
S2 Ag4 1_555 1_555
S3 Ag5 1_555 1_555
S4 Ag7 1_555 1_555
S5 Ag5 1_555 1_555
S6 Ag1 1_555 1_555
S7 Ag6 1_555 1_555
S8 Ag2 1_555 1_555
S9 Ag2 1_555 1_555
S10 Ag1 1_555 1_555
S11 Ag3 1_555 1_555
S12 Ag4 1_555 1_555
O1 C5 1_555 1_555
O2 C5 1_555 1_555
O3 C10 1_555 1_555
O4 C10 1_555 1_555
O5 C15 1_555 1_555
O6 C15 1_555 1_555
O7 C20 1_555 1_555
O8 C20 1_555 1_555
O9 C25 1_555 1_555
O10 C25 1_555 1_555
O11 C30 1_555 1_555
O12 C30 1_555 1_555
O13 C35 1_555 1_555
O14 C35 1_555 1_555
O15 C40 1_555 1_555
O16 C40 1_555 1_555
O17 C45 1_555 1_555
O18 C45 1_555 1_555
O19 C49 1_555 1_555
O20 C49 1_555 1_555
O21 C55 1_555 1_555
O22 C55 1_555 1_555
O23 C60 1_555 1_555
O24 C60 1_555 1_555
O25 La1 1_555 1_555
O26 La1 1_555 1_555
O27 La1 1_555 1_555
O28 La1 1_555 1_555
O29 La1 1_555 1_555
N1 Ni1 1_555 1_555
N2 Ni1 1_555 1_555
N3 Ni2 1_555 1_555
N4 Ni2 1_555 1_555
N5 Ni3 1_555 1_555
N6 Ni3 1_555 1_555
N7 Ni4 1_555 1_555
N8 Ni4 1_555 1_555
N9 Ni5 1_555 1_555
N10 Ni5 1_555 1_555
N11 Ni6 1_555 1_555
N12 Ni6 1_555 1_555
C1 N1 1_555 1_555
H1 C1 1_555 1_555
C2 C1 1_555 1_555
C3 C2 1_555 1_555
H2 C3 1_555 1_555
H3 C3 1_555 1_555
H4 C3 1_555 1_555
C4 C2 1_555 1_555
H5 C4 1_555 1_555
H6 C4 1_555 1_555
H7 C4 1_555 1_555
C5 C1 1_555 1_555
C6 N2 1_555 1_555
H8 C6 1_555 1_555
C7 S2 1_555 1_555
C8 C7 1_555 1_555
H9 C8 1_555 1_555
H10 C8 1_555 1_555
H11 C8 1_555 1_555
C9 C7 1_555 1_555
H12 C9 1_555 1_555
H13 C9 1_555 1_555
H14 C9 1_555 1_555
C10 C6 1_555 1_555
C11 N3 1_555 1_555
H15 C11 1_555 1_555
C12 S3 1_555 1_555
C13 C12 1_555 1_555
H16 C13 1_555 1_555
H17 C13 1_555 1_555
H18 C13 1_555 1_555
C14 C12 1_555 1_555
H19 C14 1_555 1_555
H20 C14 1_555 1_555
H21 C14 1_555 1_555
C15 C11 1_555 1_555
C16 N4 1_555 1_555
H22 C16 1_555 1_555
C17 S4 1_555 1_555
C18 C17 1_555 1_555
H23 C18 1_555 1_555
H24 C18 1_555 1_555
H25 C18 1_555 1_555
C19 C17 1_555 1_555
H26 C19 1_555 1_555
H27 C19 1_555 1_555
H28 C19 1_555 1_555
C20 C16 1_555 1_555
C21 N5 1_555 1_555
H29 C21 1_555 1_555
C22 S5 1_555 1_555
C23 C22 1_555 1_555
H30 C23 1_555 1_555
H31 C23 1_555 1_555
H32 C23 1_555 1_555
C24 C22 1_555 1_555
H33 C24 1_555 1_555
H34 C24 1_555 1_555
H35 C24 1_555 1_555
C25 C21 1_555 1_555
C26 N6 1_555 1_555
H36 C26 1_555 1_555
C27 S6 1_555 1_555
C28 C27 1_555 1_555
H37 C28 1_555 1_555
H38 C28 1_555 1_555
H39 C28 1_555 1_555
C29 C27 1_555 1_555
H40 C29 1_555 1_555
H41 C29 1_555 1_555
H42 C29 1_555 1_555
C30 C26 1_555 1_555
C31 N7 1_555 1_555
H43 C31 1_555 1_555
C32 S7 1_555 1_555
C33 C32 1_555 1_555
H44 C33 1_555 1_555
H45 C33 1_555 1_555
H46 C33 1_555 1_555
C34 C32 1_555 1_555
H47 C34 1_555 1_555
H48 C34 1_555 1_555
H49 C34 1_555 1_555
C35 C31 1_555 1_555
C36 N8 1_555 1_555
H50 C36 1_555 1_555
C37 S8 1_555 1_555
C38 C37 1_555 1_555
H51 C38 1_555 1_555
H52 C38 1_555 1_555
H53 C38 1_555 1_555
C39 C37 1_555 1_555
H54 C39 1_555 1_555
H55 C39 1_555 1_555
H56 C39 1_555 1_555
C40 C36 1_555 1_555
C41 N9 1_555 1_555
H57 C41 1_555 1_555
C42 S9 1_555 1_555
C43 C42 1_555 1_555
H58 C43 1_555 1_555
H59 C43 1_555 1_555
H60 C43 1_555 1_555
C44 C42 1_555 1_555
H61 C44 1_555 1_555
H62 C44 1_555 1_555
H63 C44 1_555 1_555
C45 C41 1_555 1_555
C46 N10 1_555 1_555
H64 C46 1_555 1_555
C47 S10 1_555 1_555
C48 C47 1_555 1_555
H65 C48 1_555 1_555
H66 C48 1_555 1_555
H67 C48 1_555 1_555
C49 C46 1_555 1_555
C50 C47 1_555 1_555
H68 C50 1_555 1_555
H69 C50 1_555 1_555
H70 C50 1_555 1_555
C51 N11 1_555 1_555
H71 C51 1_555 1_555
C52 S11 1_555 1_555
C53 C52 1_555 1_555
H72 C53 1_555 1_555
H73 C53 1_555 1_555
H74 C53 1_555 1_555
C54 C52 1_555 1_555
H75 C54 1_555 1_555
H76 C54 1_555 1_555
H77 C54 1_555 1_555
C55 C51 1_555 1_555
C56 N12 1_555 1_555
H78 C56 1_555 1_555
C57 S12 1_555 1_555
C58 C57 1_555 1_555
H79 C58 1_555 1_555
H80 C58 1_555 1_555
H81 C58 1_555 1_555
C59 C57 1_555 1_555
H82 C59 1_555 1_555
H83 C59 1_555 1_555
H84 C59 1_555 1_555
C60 C56 1_555 1_555
O30 La1 1_555 1_555
C61 O25 1_555 1_555
C62 C61 1_555 1_555
H85 C62 1_555 1_555
H86 C62 1_555 1_555
H87 C62 1_555 1_555
La1C O4 1_555 1_555
La1D O6 1_555 1_555
O4B La1 1_555 1_555
O6D La1 1_555 1_555
Ag3 S8 1_555 1_555
Ag4 S6 1_555 1_555
Ag5 S10 1_555 1_555
Ag6 S3 1_555 1_555
Ag6 S9 1_555 1_555
Ag7 S7 1_555 1_555
Ag7 S11 1_555 1_555
Ag8 S5 1_555 1_555
Ag8 S12 1_555 1_555
Ni1 S2 1_555 1_555
Ni2 S4 1_555 1_555
Ni3 S6 1_555 1_555
Ni4 S8 1_555 1_555
Ni5 S10 1_555 1_555
Ni6 S12 1_555 1_555
C6 C7 1_555 1_555
C11 C12 1_555 1_555
C16 C17 1_555 1_555
C21 C22 1_555 1_555
C26 C27 1_555 1_555
C31 C32 1_555 1_555
C36 C37 1_555 1_555
C41 C42 1_555 1_555
C46 C47 1_555 1_555
C51 C52 1_555 1_555
C56 C57 1_555 1_555
O30 C61 1_555 1_555

#END
