
#######################################################################
#
#                 Cambridge Crystallographic Data Centre
#                                CCDC 
#
#######################################################################
#
# If this CIF has been generated from an entry in the Cambridge 
# Structural Database, then it will include bibliographic, chemical, 
# crystal, experimental, refinement or atomic coordinate data resulting 
# from the CCDC's data processing and validation procedures.
#
#######################################################################

data_WIDWEN
_symmetry_cell_setting           trigonal
_symmetry_space_group_name_H-M   'P 32 2 1'
_symmetry_Int_Tables_number      154
_space_group_name_Hall           'P 32 2"'
loop_
_symmetry_equiv_pos_site_id
_symmetry_equiv_pos_as_xyz
1 x,y,z
2 -y,x-y,2/3+z
3 -x+y,-x,1/3+z
4 y,x,-z
5 x-y,-y,1/3-z
6 -x,-x+y,2/3-z
_cell_length_a                   10.1532(8)
_cell_length_b                   10.1532(8)
_cell_length_c                   41.538(6)
_cell_angle_alpha                90
_cell_angle_beta                 90
_cell_angle_gamma                120
_cell_volume                     3708.36
loop_
_atom_site_label
_atom_site_type_symbol
_atom_site_fract_x
_atom_site_fract_y
_atom_site_fract_z
Eu1 Eu 1.0000 1.39936(8) 0.3333
Ag1 Ag 0.84658(12) 0.84658(12) 0.5000
Ag2 Ag 0.51098(11) 0.67405(12) 0.506902(18)
Co1 Co 0.63389(17) 0.71558(17) 0.41816(3)
S1 S 0.8634(4) 0.8276(4) 0.44329(6)
C1 C 0.9182(15) 1.1273(14) 0.4463(3)
H1 H 0.9714 1.2275 0.4371
H2 H 0.9482 1.1316 0.4683
H3 H 0.8107 1.0891 0.4452
N1 N 0.7219(12) 0.9127(12) 0.3944(2)
H4 H 0.6864 0.8933 0.3740
H5 H 0.6878 0.9703 0.4036
C2 C 0.9399(17) 1.1530(16) 0.3754(3)
C3 C 0.8905(14) 1.0023(14) 0.3932(3)
H6 H 0.9268 0.9443 0.3809
C4 C 1.1235(15) 1.0855(18) 0.4266(4)
H7 H 1.1734 1.1880 0.4187
H8 H 1.1443 1.0232 0.4125
H9 H 1.1606 1.0841 0.4478
S2 S 0.5517(4) 0.4868(3) 0.44280(6)
O1 O 0.8469(11) 1.1962(10) 0.3719(2)
O2 O 1.0752(11) 1.2265(12) 0.3647(2)
C5 C 0.9558(14) 1.0251(14) 0.4280(3)
S3 S 0.5323(3) 0.7964(3) 0.45680(6)
N2 N 0.7052(12) 0.6283(11) 0.3832(2)
H10 H 0.6907 0.6604 0.3641
H11 H 0.8059 0.6658 0.3856
C6 C 0.6281(14) 0.4579(14) 0.3826(3)
H12 H 0.5205 0.4189 0.3776
C7 C 0.5344(16) 0.2287(13) 0.4183(3)
H13 H 0.5751 0.1807 0.4049
H14 H 0.4338 0.2007 0.4112
H15 H 0.5302 0.1962 0.4402
C8 C 0.7989(15) 0.4468(15) 0.4257(3)
H16 H 0.8370 0.4000 0.4112
H17 H 0.8000 0.4137 0.4473
H18 H 0.8619 0.5553 0.4245
C9 C 0.6363(14) 0.4013(13) 0.4163(3)
C10 C 0.6932(16) 0.4023(15) 0.3567(3)
O3 O 0.8304(10) 0.4717(11) 0.3530(2)
O4 O 0.5989(13) 0.2795(13) 0.3425(3)
N3 N 0.4288(11) 0.6418(12) 0.3959(2)
H19 H 0.4437 0.6502 0.3745
H20 H 0.3678 0.5426 0.4005
C11 C 0.2255(15) 0.5510(15) 0.4556(3)
H21 H 0.1239 0.5131 0.4477
H22 H 0.2252 0.5531 0.4787
H23 H 0.2627 0.4857 0.4484
C12 C 0.3289(14) 0.7123(13) 0.4427(3)
C13 C 0.2707(17) 0.8194(16) 0.4554(3)
H24 H 0.1669 0.7801 0.4490
H25 H 0.3323 0.9195 0.4467
H26 H 0.2772 0.8243 0.4785
C14 C 0.3496(14) 0.7258(15) 0.4054(3)
H27 H 0.4149 0.8334 0.3999
C15 C 0.1929(17) 0.6646(17) 0.3877(3)
O5 O 0.1336(10) 0.5300(10) 0.37970(18)
O6 O 0.1491(13) 0.7569(14) 0.3855(3)
Ag2C Ag 0.67405(12) 0.51098(11) 0.493098(18)
Co1C Co 0.71558(17) 0.63389(17) 0.58184(3)
S1C S 0.8276(4) 0.8634(4) 0.55671(6)
C1C C 1.1273(14) 0.9182(15) 0.5537(3)
H1C H 1.2275 0.9714 0.5629
H2C H 1.1316 0.9482 0.5317
H3C H 1.0891 0.8107 0.5548
N1C N 0.9127(12) 0.7219(12) 0.6056(2)
H4C H 0.8933 0.6864 0.6260
H5C H 0.9703 0.6878 0.5964
C2C C 1.1530(16) 0.9399(17) 0.6246(3)
C3C C 1.0023(14) 0.8905(14) 0.6068(3)
H6C H 0.9443 0.9268 0.6191
C4C C 1.0855(18) 1.1235(15) 0.5734(4)
H7C H 1.1880 1.1734 0.5813
H8C H 1.0232 1.1443 0.5875
H9C H 1.0841 1.1606 0.5522
S2C S 0.4868(3) 0.5517(4) 0.55720(6)
O1C O 1.1962(10) 0.8469(11) 0.6281(2)
O2C O 1.2265(12) 1.0752(11) 0.6353(2)
C5C C 1.0251(14) 0.9558(14) 0.5720(3)
S3C S 0.7964(3) 0.5323(3) 0.54320(6)
N2C N 0.6283(11) 0.7052(12) 0.6168(2)
H10C H 0.6604 0.6907 0.6359
H11C H 0.6658 0.8059 0.6144
C6C C 0.4579(14) 0.6281(14) 0.6174(3)
H12C H 0.4189 0.5205 0.6224
C7C C 0.2287(13) 0.5344(16) 0.5817(3)
H13C H 0.1807 0.5751 0.5951
H14C H 0.2007 0.4338 0.5888
H15C H 0.1962 0.5302 0.5598
C8C C 0.4468(15) 0.7989(15) 0.5743(3)
H16C H 0.4000 0.8370 0.5888
H17C H 0.4137 0.8000 0.5527
H18C H 0.5553 0.8619 0.5755
C9C C 0.4013(13) 0.6363(14) 0.5837(3)
C10C C 0.4023(15) 0.6932(16) 0.6433(3)
O3C O 0.4717(11) 0.8304(10) 0.6470(2)
O4C O 0.2795(13) 0.5989(13) 0.6575(3)
N3C N 0.6418(12) 0.4288(11) 0.6041(2)
H19C H 0.6502 0.4437 0.6255
H20C H 0.5426 0.3678 0.5995
C11C C 0.5510(15) 0.2255(15) 0.5444(3)
H21C H 0.5131 0.1239 0.5523
H22C H 0.5531 0.2252 0.5213
H23C H 0.4857 0.2627 0.5516
C12C C 0.7123(13) 0.3289(14) 0.5573(3)
C13C C 0.8194(16) 0.2707(17) 0.5446(3)
H24C H 0.7801 0.1669 0.5510
H25C H 0.9195 0.3323 0.5533
H26C H 0.8243 0.2772 0.5215
C14C C 0.7258(15) 0.3496(14) 0.5946(3)
H27C H 0.8334 0.4149 0.6001
C15C C 0.6646(17) 0.1929(17) 0.6123(3)
O5C O 0.5300(10) 0.1336(10) 0.62030(18)
O6C O 0.7569(14) 0.1491(13) 0.6145(3)
Eu1_2 Eu 0.0000 0.39936(8) 0.3333
Eu1_3 Eu 1.0000 0.39936(8) 0.3333
Eu1B Eu 0.39936(8) 0.0000 0.6666
Eu1B_2 Eu 0.39936(8) 1.0000 0.6666
Eu1B_3 Eu 1.39936(8) 1.0000 0.6666
O1E O 1.1531(11) 1.3493(15) 0.2948(2)
O2E O 0.9248(11) 1.1513(16) 0.3020(2)
O3_2 O 0.8304(10) 1.4717(11) 0.3530(2)
O3E O 1.1696(10) 1.6413(15) 0.3137(2)
O5_2 O 1.1336(10) 1.5300(10) 0.37970(18)
O5E O 0.8664(10) 1.3964(14) 0.28697(18)
O7 O 0.0000 0.8117(18) 0.3333
O8 O 0.2816(17) 0.1159(19) 0.3421(3)
O9 O 0.473(3) -0.005(4) 0.3493(7)
loop_
_geom_bond_atom_site_label_1
_geom_bond_atom_site_label_2
_geom_bond_site_symmetry_1
_geom_bond_site_symmetry_2
Eu1 O1 1_555 1_555
Ag1 Ag2 1_555 1_555
Ag2 S3 1_555 1_555
Co1 S1 1_555 1_555
S1 Ag1 1_555 1_555
C1 H1 1_555 1_555
H2 C1 1_555 1_555
H3 C1 1_555 1_555
N1 Co1 1_555 1_555
H4 N1 1_555 1_555
H5 N1 1_555 1_555
C2 C3 1_555 1_555
C3 N1 1_555 1_555
H6 C3 1_555 1_555
C4 H7 1_555 1_555
H8 C4 1_555 1_555
H9 C4 1_555 1_555
S2 Co1 1_555 1_555
O1 C2 1_555 1_555
O2 Eu1 1_555 1_555
C5 S1 1_555 1_555
S3 Co1 1_555 1_555
N2 Co1 1_555 1_555
H10 N2 1_555 1_555
H11 N2 1_555 1_555
C6 N2 1_555 1_555
H12 C6 1_555 1_555
C7 H13 1_555 1_555
H14 C7 1_555 1_555
H15 C7 1_555 1_555
C8 H16 1_555 1_555
H17 C8 1_555 1_555
H18 C8 1_555 1_555
C9 S2 1_555 1_555
C10 C6 1_555 1_555
O3 C10 1_555 1_555
O4 C10 1_555 1_555
N3 Co1 1_555 1_555
H19 N3 1_555 1_555
H20 N3 1_555 1_555
C11 H21 1_555 1_555
H22 C11 1_555 1_555
H23 C11 1_555 1_555
C12 S3 1_555 1_555
C13 C12 1_555 1_555
H24 C13 1_555 1_555
H25 C13 1_555 1_555
H26 C13 1_555 1_555
C14 N3 1_555 1_555
H27 C14 1_555 1_555
C15 C14 1_555 1_555
O5 C15 1_555 1_555
O6 C15 1_555 1_555
Ag2C Ag1 1_555 1_555
Co1C S1C 1_555 1_555
S1C Ag1 1_555 1_555
C1C H1C 1_555 1_555
H2C C1C 1_555 1_555
H3C C1C 1_555 1_555
N1C Co1C 1_555 1_555
H4C N1C 1_555 1_555
H5C N1C 1_555 1_555
C2C C3C 1_555 1_555
C3C N1C 1_555 1_555
H6C C3C 1_555 1_555
C4C H7C 1_555 1_555
H8C C4C 1_555 1_555
H9C C4C 1_555 1_555
S2C Ag2 1_555 1_555
O1C C2C 1_555 1_555
O2C C2C 1_555 1_555
C5C S1C 1_555 1_555
S3C Ag2C 1_555 1_555
N2C Co1C 1_555 1_555
H10C N2C 1_555 1_555
H11C N2C 1_555 1_555
C6C N2C 1_555 1_555
H12C C6C 1_555 1_555
C7C H13C 1_555 1_555
H14C C7C 1_555 1_555
H15C C7C 1_555 1_555
C8C H16C 1_555 1_555
H17C C8C 1_555 1_555
H18C C8C 1_555 1_555
C9C S2C 1_555 1_555
C10C C6C 1_555 1_555
O3C C10C 1_555 1_555
O4C C10C 1_555 1_555
N3C Co1C 1_555 1_555
H19C N3C 1_555 1_555
H20C N3C 1_555 1_555
C11C H21C 1_555 1_555
H22C C11C 1_555 1_555
H23C C11C 1_555 1_555
C12C S3C 1_555 1_555
C13C C12C 1_555 1_555
H24C C13C 1_555 1_555
H25C C13C 1_555 1_555
H26C C13C 1_555 1_555
C14C N3C 1_555 1_555
H27C C14C 1_555 1_555
C15C C14C 1_555 1_555
O5C C15C 1_555 1_555
O6C C15C 1_555 1_555
Eu1_2 O5 1_555 1_555
Eu1_3 O3 1_555 1_555
Eu1B O5C 1_555 1_555
Eu1B_2 O3C 1_555 1_555
Eu1B_3 O1C 1_555 1_555
O1E Eu1 1_555 1_555
O2E Eu1 1_555 1_555
O3_2 Eu1 1_555 1_555
O3E Eu1 1_555 1_555
O5_2 Eu1 1_555 1_555
O5E Eu1 1_555 1_555
Ag2 Ag2C 1_555 1_555
C1 C5 1_555 1_555
C2 O2 1_555 1_555
C3 C5 1_555 1_555
C4 C5 1_555 1_555
S2 Ag2C 1_555 1_555
C6 C9 1_555 1_555
C7 C9 1_555 1_555
C8 C9 1_555 1_555
C11 C12 1_555 1_555
C12 C14 1_555 1_555
Co1C S2C 1_555 1_555
Co1C S3C 1_555 1_555
C1C C5C 1_555 1_555
C3C C5C 1_555 1_555
C4C C5C 1_555 1_555
O2C Eu1B_3 1_555 1_555
C6C C9C 1_555 1_555
C7C C9C 1_555 1_555
C8C C9C 1_555 1_555
C11C C12C 1_555 1_555
C12C C14C 1_555 1_555

#END
