
#######################################################################
#
#                 Cambridge Crystallographic Data Centre
#                                CCDC 
#
#######################################################################
#
# If this CIF has been generated from an entry in the Cambridge 
# Structural Database, then it will include bibliographic, chemical, 
# crystal, experimental, refinement or atomic coordinate data resulting 
# from the CCDC's data processing and validation procedures.
#
#######################################################################

data_WIDZIU
_symmetry_cell_setting           monoclinic
_symmetry_space_group_name_H-M   'C 2/c'
_symmetry_Int_Tables_number      15
_space_group_name_Hall           '-C 2yn'
loop_
_symmetry_equiv_pos_site_id
_symmetry_equiv_pos_as_xyz
1 x,y,z
2 -x,y,1/2-z
3 1/2+x,1/2+y,z
4 1/2-x,1/2+y,1/2-z
5 -x,-y,-z
6 x,-y,1/2+z
7 1/2-x,1/2-y,-z
8 1/2+x,1/2-y,1/2+z
_cell_length_a                   23.7901(9)
_cell_length_b                   8.6694(3)
_cell_length_c                   29.5375(9)
_cell_angle_alpha                90
_cell_angle_beta                 113.205(3)
_cell_angle_gamma                90
_cell_volume                     5599.15
loop_
_atom_site_label
_atom_site_type_symbol
_atom_site_fract_x
_atom_site_fract_y
_atom_site_fract_z
C1 C 0.8646(3) 0.3325(7) 0.3938(2)
H1 H 0.8655 0.2534 0.4153
C2 C 0.8440(3) 0.3002(7) 0.3440(2)
H2 H 0.8321 0.2003 0.3327
C3 C 0.8410(3) 0.4153(7) 0.31094(19)
C4 C 0.8607(3) 0.5611(7) 0.3301(2)
H3 H 0.8595 0.6427 0.3093
C5 C 0.8822(2) 0.5838(7) 0.38052(18)
H4 H 0.8965 0.6811 0.3930
C6 C 0.8204(4) 0.3756(9) 0.2566(2)
H5 H 0.8552 0.3343 0.2513
H6 H 0.7900 0.2945 0.2488
C7 C 0.7941(3) 0.5066(9) 0.2212(2)
H7 H 0.7566 0.5420 0.2235
H8 H 0.8228 0.5918 0.2300
C8 C 0.7809(3) 0.4567(8) 0.1694(2)
C9 C 0.8257(3) 0.4619(12) 0.1508(2)
H9 H 0.8635 0.5054 0.1695
C10 C 0.8151(3) 0.4035(12) 0.1050(2)
H10 H 0.8469 0.4041 0.0942
C11 C 0.7175(3) 0.3475(9) 0.0924(2)
H11 H 0.6790 0.3117 0.0719
C12 C 0.7258(3) 0.3991(9) 0.1387(2)
H12 H 0.6937 0.3946 0.1491
C13 C 0.8049(2) 0.4018(6) 0.49280(19)
C14 C 0.7474(3) 0.3313(6) 0.4926(3)
H13 H 0.7342 0.3903 0.5145
H14 H 0.7158 0.3402 0.4596
C15 C 0.9781(2) 0.7847(5) 0.49580(18)
C16 C 1.0132(3) 0.9340(7) 0.4963(4)
H15 H 1.0539 0.9258 0.5220
H16 H 1.0176 0.9426 0.4651
C17 C 0.9784(3) 0.6237(8) 0.6105(2)
H17 H 0.9801 0.7174 0.5958
C18 C 1.0000(3) 0.6165(10) 0.6612(2)
H18 H 1.0158 0.7048 0.6797
C19 C 0.9985(3) 0.4827(10) 0.6844(2)
C20 C 0.9747(3) 0.3555(9) 0.6550(2)
H19 H 0.9732 0.2608 0.6692
C21 C 0.9530(3) 0.3691(8) 0.6040(2)
H20 H 0.9364 0.2827 0.5847
C22 C 1.0233(3) 0.4686(12) 0.7401(2)
H21 H 1.0466 0.3737 0.7498
H22 H 1.0511 0.5536 0.7545
N1 N 0.8832(2) 0.4727(5) 0.41207(15)
N2 N 0.7615(2) 0.3461(6) 0.07547(15)
N3 N 0.9551(2) 0.5021(6) 0.58186(15)
O1 O 0.84875(16) 0.3183(4) 0.49574(14)
O2 O 0.80881(16) 0.5479(4) 0.49004(14)
O3 O 0.65483(17) 0.6337(6) 0.46356(16)
H23 H 0.6518 0.5789 0.4369
H24 H 0.6475 0.5684 0.4842
O4 O 0.92438(17) 0.7826(5) 0.49326(16)
O5 O 1.00494(18) 0.6625(5) 0.49648(16)
Cd1 Cd 0.7500 0.7500 0.5000
Cd2 Cd 0.917051(14) 0.50842(4) 0.496414(11)
C13F C 0.6951(2) 0.0982(6) 0.50720(19)
C14F C 0.7526(3) 0.1687(6) 0.5074(3)
H13F H 0.7658 0.1097 0.4855
H14F H 0.7842 0.1598 0.5404
O1F O 0.65125(16) 0.1817(4) 0.50426(14)
O2F O 0.69119(16) -0.0479(4) 0.50996(14)
C15D C 1.0219(2) 1.2153(5) 0.50420(18)
C16D C 0.9868(3) 1.0660(7) 0.5037(4)
H15D H 0.9461 1.0742 0.4780
H16D H 0.9824 1.0574 0.5349
O4D O 1.07562(17) 1.2174(5) 0.50674(16)
O5D O 0.99506(18) 1.3375(5) 0.50352(16)
C17A C 1.0216(3) 0.6237(8) 0.8895(2)
H17A H 1.0199 0.7174 0.9042
C18A C 1.0000(3) 0.6165(10) 0.8388(2)
H18A H 0.9842 0.7048 0.8203
C19A C 1.0015(3) 0.4827(10) 0.8156(2)
C20A C 1.0253(3) 0.3555(9) 0.8450(2)
H19A H 1.0268 0.2608 0.8308
C21A C 1.0470(3) 0.3691(8) 0.8960(2)
H20A H 1.0636 0.2827 0.9153
C22A C 0.9767(3) 0.4686(12) 0.7599(2)
H21A H 0.9534 0.3737 0.7502
H22A H 0.9489 0.5536 0.7455
N3A N 1.0449(2) 0.5021(6) 0.91814(15)
C1A C 1.1354(3) 0.3325(7) 1.1062(2)
H1A H 1.1345 0.2534 1.0847
C2A C 1.1560(3) 0.3002(7) 1.1560(2)
H2A H 1.1679 0.2003 1.1673
C3A C 1.1590(3) 0.4153(7) 1.18906(19)
C4A C 1.1393(3) 0.5611(7) 1.1699(2)
H3A H 1.1405 0.6427 1.1907
C5A C 1.1178(2) 0.5838(7) 1.11948(18)
H4A H 1.1035 0.6811 1.1070
C6A C 1.1796(4) 0.3756(9) 1.2434(2)
H5A H 1.1448 0.3343 1.2487
H6A H 1.2100 0.2945 1.2512
C7A C 1.2059(3) 0.5066(9) 1.2788(2)
H7A H 1.2434 0.5420 1.2765
H8A H 1.1772 0.5918 1.2700
C8A C 1.2191(3) 0.4567(8) 1.3306(2)
C9A C 1.1743(3) 0.4619(12) 1.3492(2)
H9A H 1.1365 0.5054 1.3305
C10A C 1.1849(3) 0.4035(12) 1.3950(2)
H10A H 1.1531 0.4041 1.4058
C11A C 1.2825(3) 0.3475(9) 1.4076(2)
H11A H 1.3210 0.3117 1.4281
C12A C 1.2742(3) 0.3991(9) 1.3613(2)
H12A H 1.3063 0.3946 1.3509
N1A N 1.1168(2) 0.4727(5) 1.08793(15)
N2A N 1.2385(2) 0.3461(6) 1.42453(15)
Cd2A Cd 1.082949(14) 0.50842(4) 1.003586(11)
O3F O 0.84517(17) 0.8663(6) 0.53644(16)
H23F H 0.8482 0.9211 0.5631
H24F H 0.8525 0.9316 0.5158
N2C N 0.7385(2) 0.8461(6) 0.42453(15)
N2E N 0.7615(2) 0.6539(6) 0.57547(15)
O1A O 1.15125(16) 0.3183(4) 1.00426(14)
O2A O 1.19119(16) 0.5479(4) 1.00996(14)
O2F_2 O 0.69119(16) 0.9521(4) 0.50996(14)
O4A O 1.07562(17) 0.7826(5) 1.00674(16)
O5A O 0.99506(18) 0.6625(5) 1.00352(16)
O5D_2 O 0.99506(18) 0.3375(5) 0.50352(16)
O5E O 1.00494(18) 0.3375(5) 0.99648(16)
Cd1_2 Cd 0.7500 -0.2500 0.5000
Cd1B Cd 1.2500 0.2500 1.5000
Cd1C Cd 0.7500 0.2500 0.0000
Cd2_2 Cd 0.917051(14) 1.50842(4) 0.496414(11)
Cd2D Cd 1.082949(14) 0.49158(4) 0.503586(11)
Cd2D_2 Cd 1.082949(14) 1.49158(4) 0.503586(11)
Cd2F Cd 0.582949(14) -0.00842(4) 0.503586(11)
N4 N 0.9195(5) -0.0293(10) 0.3186(5)
O6 O 0.8661(5) -0.0633(11) 0.2945(4)
O7 O 0.9491(6) 0.0087(14) 0.2958(6)
O8 O 0.9379(6) -0.0305(15) 0.3616(5)
O9 O 0.5874(6) 0.5114(13) 0.3760(4)
O10 O 0.6633(12) 0.434(2) 0.3240(7)
loop_
_geom_bond_atom_site_label_1
_geom_bond_atom_site_label_2
_geom_bond_site_symmetry_1
_geom_bond_site_symmetry_2
C1 H1 1_555 1_555
C2 C1 1_555 1_555
H2 C2 1_555 1_555
C3 C2 1_555 1_555
C4 C3 1_555 1_555
H3 C4 1_555 1_555
C5 C4 1_555 1_555
H4 C5 1_555 1_555
C6 C3 1_555 1_555
H5 C6 1_555 1_555
H6 C6 1_555 1_555
C7 C6 1_555 1_555
H7 C7 1_555 1_555
H8 C7 1_555 1_555
C8 C7 1_555 1_555
C9 C8 1_555 1_555
H9 C9 1_555 1_555
C10 C9 1_555 1_555
H10 C10 1_555 1_555
C11 H11 1_555 1_555
C12 C8 1_555 1_555
H12 C12 1_555 1_555
C13 C14 1_555 1_555
C14 H13 1_555 1_555
H14 C14 1_555 1_555
C15 C16 1_555 1_555
C16 H15 1_555 1_555
H16 C16 1_555 1_555
C17 H17 1_555 1_555
C18 C17 1_555 1_555
H18 C18 1_555 1_555
C19 C18 1_555 1_555
C20 C19 1_555 1_555
H19 C20 1_555 1_555
C21 C20 1_555 1_555
H20 C21 1_555 1_555
C22 C19 1_555 1_555
H21 C22 1_555 1_555
H22 C22 1_555 1_555
N1 C1 1_555 1_555
N2 C10 1_555 1_555
N3 C17 1_555 1_555
O1 C13 1_555 1_555
O2 C13 1_555 1_555
O3 H23 1_555 1_555
H24 O3 1_555 1_555
O4 C15 1_555 1_555
O5 C15 1_555 1_555
Cd1 O2 1_555 1_555
Cd2 N1 1_555 1_555
N4 O6 1_555 1_555
O7 N4 1_555 1_555
O8 N4 1_555 1_555
C13F C14F 1_555 1_555
C14F C14 1_555 1_555
H13F C14F 1_555 1_555
H14F C14F 1_555 1_555
O1F C13F 1_555 1_555
O2F C13F 1_555 1_555
C15D C16D 1_555 1_555
C16D C16 1_555 1_555
H15D C16D 1_555 1_555
H16D C16D 1_555 1_555
O4D C15D 1_555 1_555
O5D C15D 1_555 1_555
C17A H17A 1_555 1_555
C18A C17A 1_555 1_555
H18A C18A 1_555 1_555
C19A C18A 1_555 1_555
C20A C19A 1_555 1_555
H19A C20A 1_555 1_555
C21A C20A 1_555 1_555
H20A C21A 1_555 1_555
C22A C22 1_555 1_555
H21A C22A 1_555 1_555
H22A C22A 1_555 1_555
N3A C17A 1_555 1_555
C1A H1A 1_555 1_555
C2A C1A 1_555 1_555
H2A C2A 1_555 1_555
C3A C2A 1_555 1_555
C4A C3A 1_555 1_555
H3A C4A 1_555 1_555
C5A C4A 1_555 1_555
H4A C5A 1_555 1_555
C6A C3A 1_555 1_555
H5A C6A 1_555 1_555
H6A C6A 1_555 1_555
C7A C6A 1_555 1_555
H7A C7A 1_555 1_555
H8A C7A 1_555 1_555
C8A C7A 1_555 1_555
C9A C8A 1_555 1_555
H9A C9A 1_555 1_555
C10A C9A 1_555 1_555
H10A C10A 1_555 1_555
C11A H11A 1_555 1_555
C12A C8A 1_555 1_555
H12A C12A 1_555 1_555
N1A C1A 1_555 1_555
N2A C10A 1_555 1_555
Cd2A N3A 1_555 1_555
O3F Cd1 1_555 1_555
H23F O3F 1_555 1_555
H24F O3F 1_555 1_555
N2C Cd1 1_555 1_555
N2E Cd1 1_555 1_555
O1A Cd2A 1_555 1_555
O2A Cd2A 1_555 1_555
O2F_2 Cd1 1_555 1_555
O4A Cd2A 1_555 1_555
O5A Cd2A 1_555 1_555
O5D_2 Cd2 1_555 1_555
O5E Cd2A 1_555 1_555
Cd1_2 O2F 1_555 1_555
Cd1B N2A 1_555 1_555
Cd1C N2 1_555 1_555
Cd2_2 O5D 1_555 1_555
Cd2D O5 1_555 1_555
Cd2D_2 O4D 1_555 1_555
Cd2F O1F 1_555 1_555
C5 N1 1_555 1_555
C11 C12 1_555 1_555
C11 N2 1_555 1_555
C21 N3 1_555 1_555
N3 Cd2 1_555 1_555
O1 Cd2 1_555 1_555
O2 Cd2 1_555 1_555
O3 Cd1 1_555 1_555
O4 Cd2 1_555 1_555
O5 Cd2 1_555 1_555
O2F Cd2F 1_555 1_555
O5D Cd2D_2 1_555 1_555
C19A C22A 1_555 1_555
C21A N3A 1_555 1_555
C5A N1A 1_555 1_555
C11A C12A 1_555 1_555
C11A N2A 1_555 1_555
N1A Cd2A 1_555 1_555
O5D_2 Cd2D 1_555 1_555

#END
