
#######################################################################
#
#                 Cambridge Crystallographic Data Centre
#                                CCDC 
#
#######################################################################
#
# If this CIF has been generated from an entry in the Cambridge 
# Structural Database, then it will include bibliographic, chemical, 
# crystal, experimental, refinement or atomic coordinate data resulting 
# from the CCDC's data processing and validation procedures.
#
#######################################################################

data_WIDZUG
_symmetry_cell_setting           monoclinic
_symmetry_space_group_name_H-M   'C 2/c'
_symmetry_Int_Tables_number      15
_space_group_name_Hall           '-C 2yn'
loop_
_symmetry_equiv_pos_site_id
_symmetry_equiv_pos_as_xyz
1 x,y,z
2 -x,y,1/2-z
3 1/2+x,1/2+y,z
4 1/2-x,1/2+y,1/2-z
5 -x,-y,-z
6 x,-y,1/2+z
7 1/2-x,1/2-y,-z
8 1/2+x,1/2-y,1/2+z
_cell_length_a                   24.709(3)
_cell_length_b                   11.5985(12)
_cell_length_c                   14.2484(15)
_cell_angle_alpha                90
_cell_angle_beta                 103.464(7)
_cell_angle_gamma                90
_cell_volume                     3971.18
loop_
_atom_site_label
_atom_site_type_symbol
_atom_site_fract_x
_atom_site_fract_y
_atom_site_fract_z
C1 C 0.33213(14) 0.4024(3) 0.2924(3)
C2 C 0.36425(15) 0.4611(4) 0.3833(3)
H1 H 0.3948 0.4114 0.4140
H2 H 0.3802 0.5317 0.3651
C3 C 0.33088(17) 0.4903(3) 0.4561(3)
H3 H 0.3561 0.5147 0.5156
H4 H 0.3119 0.4215 0.4700
C4 C 0.28856(13) 0.5839(3) 0.4227(2)
C5 C 0.40644(16) 0.2456(4) 0.1335(3)
H5 H 0.4047 0.3255 0.1377
C6 C 0.45659(15) 0.1948(4) 0.1307(3)
H6 H 0.4881 0.2395 0.1328
C7 C 0.45888(14) 0.0769(3) 0.1248(2)
C8 C 0.41169(14) 0.0128(3) 0.1217(3)
H7 H 0.4126 -0.0672 0.1179
C9 C 0.36277(15) 0.0697(3) 0.1243(3)
H8 H 0.3308 0.0264 0.1218
C10 C 0.59928(13) 0.0032(3) 0.1304(2)
C11 C 0.64725(15) 0.0621(3) 0.1253(3)
H9 H 0.6474 0.1420 0.1202
C12 C 0.69491(14) -0.0013(3) 0.1281(3)
H10 H 0.7274 0.0379 0.1259
C13 C 0.64999(16) -0.1703(3) 0.1413(4)
H11 H 0.6511 -0.2499 0.1489
C14 C 0.60022(16) -0.1140(4) 0.1381(4)
H12 H 0.5683 -0.1550 0.1411
N1 N 0.35985(11) 0.1834(3) 0.1302(2)
N2 N 0.50902(12) 0.0128(3) 0.1245(2)
N3 N 0.54969(12) 0.0704(3) 0.1276(2)
N4 N 0.69649(11) -0.1163(2) 0.1339(2)
O1 O 0.30159(12) 0.3191(2) 0.30228(18)
O2 O 0.33795(11) 0.4336(2) 0.2112(2)
O3 O 0.27121(11) 0.6041(2) 0.33597(17)
O4 O 0.27175(11) 0.6426(3) 0.48417(18)
Cd1 Cd 0.277023(8) 0.278120(17) 0.135749(15)
N4B N 0.19649(11) 0.3837(2) 0.1339(2)
O3C O 0.22879(11) 0.1041(2) 0.16403(17)
O4C O 0.22825(11) 0.1426(3) 0.01583(18)
O4E O 0.27175(11) 0.3574(3) -0.01583(18)
Cd1B Cd 0.777023(8) -0.221880(17) 0.135749(15)
Cd1C Cd 0.222977(8) 0.778120(17) 0.364251(15)
Cd1E Cd 0.277023(8) 0.721880(17) 0.635749(15)
O5 O 0.3776(3) 0.6549(5) 0.1816(5)
H13 H 0.3730 0.5861 0.1988
H14 H 0.4120 0.6667 0.1849
O6 O 0.2184(3) 0.2869(6) 0.4093(5)
H15 H 0.2141 0.2163 0.3933
H16 H 0.1968 0.2945 0.4473
loop_
_geom_bond_atom_site_label_1
_geom_bond_atom_site_label_2
_geom_bond_site_symmetry_1
_geom_bond_site_symmetry_2
C1 C2 1_555 1_555
C2 H1 1_555 1_555
H2 C2 1_555 1_555
C3 C2 1_555 1_555
H3 C3 1_555 1_555
H4 C3 1_555 1_555
C4 C3 1_555 1_555
C5 H5 1_555 1_555
C6 C5 1_555 1_555
H6 C6 1_555 1_555
C7 C6 1_555 1_555
C8 C7 1_555 1_555
H7 C8 1_555 1_555
C9 C8 1_555 1_555
H8 C9 1_555 1_555
C10 C11 1_555 1_555
C11 H9 1_555 1_555
C12 C11 1_555 1_555
H10 C12 1_555 1_555
C13 H11 1_555 1_555
C14 C10 1_555 1_555
H12 C14 1_555 1_555
N1 C5 1_555 1_555
N2 C7 1_555 1_555
N3 C10 1_555 1_555
N4 C12 1_555 1_555
O1 C1 1_555 1_555
O2 C1 1_555 1_555
O3 C4 1_555 1_555
O4 C4 1_555 1_555
Cd1 N1 1_555 1_555
O5 H13 1_555 1_555
H14 O5 1_555 1_555
O6 H15 1_555 1_555
H16 O6 1_555 1_555
N4B Cd1 1_555 1_555
O3C Cd1 1_555 1_555
O4C Cd1 1_555 1_555
O4E Cd1 1_555 1_555
Cd1B N4 1_555 1_555
Cd1C O3 1_555 1_555
Cd1E O4 1_555 1_555
C9 N1 1_555 1_555
C13 C14 1_555 1_555
C13 N4 1_555 1_555
N2 N3 1_555 1_555
O1 Cd1 1_555 1_555
O2 Cd1 1_555 1_555
O4 Cd1C 1_555 1_555

#END
