
#######################################################################
#
#                 Cambridge Crystallographic Data Centre
#                                CCDC 
#
#######################################################################
#
# If this CIF has been generated from an entry in the Cambridge 
# Structural Database, then it will include bibliographic, chemical, 
# crystal, experimental, refinement or atomic coordinate data resulting 
# from the CCDC's data processing and validation procedures.
#
#######################################################################

data_WIFBAP
_symmetry_cell_setting           monoclinic
_symmetry_space_group_name_H-M   'C 2/c'
_symmetry_Int_Tables_number      15
_space_group_name_Hall           '-C 2yn'
loop_
_symmetry_equiv_pos_site_id
_symmetry_equiv_pos_as_xyz
1 x,y,z
2 1/2+x,1/2+y,z
3 -x,y,1/2-z
4 1/2-x,1/2+y,1/2-z
5 -x,-y,-z
6 1/2-x,1/2-y,-z
7 x,-y,1/2+z
8 1/2+x,1/2-y,1/2+z
_cell_length_a                   33.4475(14)
_cell_length_b                   5.6876(2)
_cell_length_c                   14.5603(6)
_cell_angle_alpha                90
_cell_angle_beta                 107.0170(10)
_cell_angle_gamma                90
_cell_volume                     2648.62
loop_
_atom_site_label
_atom_site_type_symbol
_atom_site_fract_x
_atom_site_fract_y
_atom_site_fract_z
Na1 Na 0.5000 0.2491(2) 0.7500
Ag1 Ag 0.5000 0.5000 0.5000
N1 N 0.45289(5) 0.2461(3) 0.42616(12)
S1 S 0.438346(15) 0.07146(9) 0.49738(4)
S2 S 0.438726(15) 0.21953(9) 0.31063(3)
O1 O 0.46741(5) 0.1154(3) 0.59044(10)
O2 O 0.43201(5) -0.1666(3) 0.46319(11)
O3 O 0.54338(5) 0.5801(3) 0.72311(11)
O4 O 0.44656(5) -0.0093(3) 0.27829(11)
C1 C 0.38929(6) 0.1781(4) 0.50222(14)
C2 C 0.35302(7) 0.0506(4) 0.46017(15)
H1 H 0.3546 -0.0972 0.4311
C3 C 0.31452(7) 0.1406(4) 0.46097(16)
H2 H 0.2894 0.0555 0.4334
C4 C 0.31386(7) 0.3563(4) 0.50276(16)
C5 C 0.34940(7) 0.4851(4) 0.54642(15)
H3 H 0.3476 0.6323 0.5758
C6 C 0.38775(7) 0.3936(4) 0.54615(15)
H4 H 0.4128 0.4774 0.5757
F1 F 0.27634(4) 0.4517(3) 0.50173(11)
C7 C 0.38378(6) 0.2535(4) 0.27426(14)
C8 C 0.35837(7) 0.0730(4) 0.22485(14)
H5 H 0.3704 -0.0669 0.2091
C9 C 0.31497(7) 0.0995(4) 0.19864(15)
H6 H 0.2969 -0.0205 0.1644
C10 C 0.29922(6) 0.3039(4) 0.22381(16)
C11 C 0.32373(7) 0.4860(4) 0.27225(15)
H7 H 0.3114 0.6251 0.2877
C12 C 0.36697(6) 0.4611(4) 0.29790(15)
H8 H 0.3847 0.5835 0.3310
F2 F 0.25699(4) 0.3294(3) 0.20058(11)
Na1F Na 0.5000 0.7509(2) 0.2500
Na1F_2 Na 0.5000 -0.2491(2) 0.2500
Na1_2 Na 0.5000 1.2491(2) 0.7500
N1D N 0.54711(5) 0.7539(3) 0.57384(12)
S1D S 0.561654(15) 0.92854(9) 0.50262(4)
S2D S 0.561274(15) 0.78047(9) 0.68937(3)
O1B O 0.53259(5) 0.1154(3) 0.90956(10)
O1D O 0.53259(5) 0.8846(3) 0.40956(10)
O2D O 0.56799(5) 1.1666(3) 0.53681(11)
O3B O 0.45662(5) 0.5801(3) 0.77689(11)
O3D O 0.45662(5) 0.4199(3) 0.27689(11)
O4D O 0.55344(5) 0.0093(3) 0.72171(11)
O4F O 0.44656(5) 0.0093(3) 0.77829(11)
O4D_2 O 0.55344(5) 1.0093(3) 0.72171(11)
C1D C 0.61071(6) 0.8219(4) 0.49778(14)
C2D C 0.64698(7) 0.9494(4) 0.53983(15)
H1D H 0.6454 1.0972 0.5689
C3D C 0.68548(7) 0.8594(4) 0.53903(16)
H2D H 0.7106 0.9445 0.5666
C4D C 0.68614(7) 0.6437(4) 0.49724(16)
C5D C 0.65060(7) 0.5149(4) 0.45358(15)
H3D H 0.6524 0.3677 0.4242
C6D C 0.61225(7) 0.6064(4) 0.45385(15)
H4D H 0.5872 0.5226 0.4243
F1D F 0.72366(4) 0.5483(3) 0.49827(11)
C7D C 0.61622(6) 0.7465(4) 0.72574(14)
C8D C 0.64163(7) 0.9270(4) 0.77515(14)
H5D H 0.6296 1.0669 0.7909
C9D C 0.68503(7) 0.9005(4) 0.80136(15)
H6D H 0.7031 1.0205 0.8356
C10D C 0.70078(6) 0.6961(4) 0.77619(16)
C11D C 0.67627(7) 0.5140(4) 0.72775(15)
H7D H 0.6886 0.3749 0.7123
C12D C 0.63303(6) 0.5389(4) 0.70210(15)
H8D H 0.6153 0.4165 0.6690
F2D F 0.74301(4) 0.6706(3) 0.79942(11)
loop_
_geom_bond_atom_site_label_1
_geom_bond_atom_site_label_2
_geom_bond_site_symmetry_1
_geom_bond_site_symmetry_2
Na1 O1 1_555 1_555
Ag1 N1 1_555 1_555
N1 S1 1_555 1_555
S1 O1 1_555 1_555
S2 N1 1_555 1_555
O2 S1 1_555 1_555
O3 Na1 1_555 1_555
O4 S2 1_555 1_555
C1 S1 1_555 1_555
C2 C1 1_555 1_555
H1 C2 1_555 1_555
C3 C2 1_555 1_555
H2 C3 1_555 1_555
C4 C3 1_555 1_555
C5 C4 1_555 1_555
H3 C5 1_555 1_555
C6 C1 1_555 1_555
H4 C6 1_555 1_555
F1 C4 1_555 1_555
C7 S2 1_555 1_555
C8 C7 1_555 1_555
H5 C8 1_555 1_555
C9 C8 1_555 1_555
H6 C9 1_555 1_555
C10 C9 1_555 1_555
C11 C10 1_555 1_555
H7 C11 1_555 1_555
C12 C7 1_555 1_555
H8 C12 1_555 1_555
F2 C10 1_555 1_555
Na1F O1D 1_555 1_555
Na1F_2 O4 1_555 1_555
Na1_2 O4D_2 1_555 1_555
N1D Ag1 1_555 1_555
S1D N1D 1_555 1_555
S2D O3 1_555 1_555
O1B Na1 1_555 1_555
O1D S1D 1_555 1_555
O2D S1D 1_555 1_555
O3B Na1 1_555 1_555
O3D S2 1_555 1_555
O4D Na1 1_555 1_555
O4F Na1 1_555 1_555
O4D_2 S2D 1_555 1_555
C1D S1D 1_555 1_555
C2D C1D 1_555 1_555
H1D C2D 1_555 1_555
C3D C2D 1_555 1_555
H2D C3D 1_555 1_555
C4D C3D 1_555 1_555
C5D C4D 1_555 1_555
H3D C5D 1_555 1_555
C6D C1D 1_555 1_555
H4D C6D 1_555 1_555
F1D C4D 1_555 1_555
C7D S2D 1_555 1_555
C8D C7D 1_555 1_555
H5D C8D 1_555 1_555
C9D C8D 1_555 1_555
H6D C9D 1_555 1_555
C10D C9D 1_555 1_555
C11D C10D 1_555 1_555
H7D C11D 1_555 1_555
C12D C7D 1_555 1_555
H8D C12D 1_555 1_555
F2D C10D 1_555 1_555
C5 C6 1_555 1_555
C11 C12 1_555 1_555
Na1F O3D 1_555 1_555
N1D S2D 1_555 1_555
C5D C6D 1_555 1_555
C11D C12D 1_555 1_555

#END
