
#######################################################################
#
#                 Cambridge Crystallographic Data Centre
#                                CCDC 
#
#######################################################################
#
# If this CIF has been generated from an entry in the Cambridge 
# Structural Database, then it will include bibliographic, chemical, 
# crystal, experimental, refinement or atomic coordinate data resulting 
# from the CCDC's data processing and validation procedures.
#
#######################################################################

data_WIFBAQ
_symmetry_cell_setting           monoclinic
_symmetry_space_group_name_H-M   'C 2/c'
_symmetry_Int_Tables_number      15
_space_group_name_Hall           '-C 2yn'
loop_
_symmetry_equiv_pos_site_id
_symmetry_equiv_pos_as_xyz
1 x,y,z
2 -x,y,1/2-z
3 1/2+x,1/2+y,z
4 1/2-x,1/2+y,1/2-z
5 -x,-y,-z
6 x,-y,1/2+z
7 1/2-x,1/2-y,-z
8 1/2+x,1/2-y,1/2+z
_cell_length_a                   29.200(2)
_cell_length_b                   11.9144(9)
_cell_length_c                   14.0146(10)
_cell_angle_alpha                90
_cell_angle_beta                 92.054(7)
_cell_angle_gamma                90
_cell_volume                     4872.55
loop_
_atom_site_label
_atom_site_type_symbol
_atom_site_fract_x
_atom_site_fract_y
_atom_site_fract_z
C1 C 0.88008(19) 0.2678(5) 0.5970(5)
H1 H 0.8795 0.1901 0.5901
C2 C 0.92184(17) 0.3207(5) 0.5986(5)
H2 H 0.9487 0.2798 0.5925
C3 C 0.92319(15) 0.4358(5) 0.6094(4)
C4 C 0.88186(16) 0.4927(5) 0.6131(4)
H3 H 0.8813 0.5706 0.6169
C5 C 0.84160(16) 0.4325(5) 0.6110(4)
H4 H 0.8141 0.4715 0.6141
C6 C 0.96850(16) 0.4960(5) 0.6171(4)
C7 C 0.96889(19) 0.6218(5) 0.6234(5)
H5 H 1.0000 0.6480 0.6276
H6 H 0.9533 0.6451 0.6792
H7 H 0.9537 0.6528 0.5676
C8 C 1.0813(2) 0.3065(6) 0.6344(6)
H8 H 1.0504 0.2786 0.6303
H9 H 1.0960 0.2809 0.6927
H10 H 1.0978 0.2793 0.5811
C9 C 1.08062(16) 0.4300(5) 0.6331(4)
C10 C 1.12511(14) 0.4928(4) 0.6389(3)
C11 C 1.16742(17) 0.4406(5) 0.6347(4)
H11 H 1.1695 0.3630 0.6297
C12 C 1.20619(16) 0.5056(5) 0.6379(4)
H12 H 1.2344 0.4696 0.6347
C13 C 1.16531(16) 0.6654(5) 0.6521(4)
H13 H 1.1645 0.7429 0.6600
C14 C 1.12482(16) 0.6081(5) 0.6481(4)
H14 H 1.0972 0.6465 0.6515
C15 C 0.81874(16) 0.0931(5) 0.7625(4)
C16 C 0.84584(18) 0.0288(6) 0.8409(5)
H15 H 0.8578 -0.0397 0.8139
H16 H 0.8717 0.0742 0.8627
C17 C 0.8174(2) -0.0012(5) 0.9266(4)
H17 H 0.8378 -0.0263 0.9784
H18 H 0.8018 0.0656 0.9478
C18 C 0.78268(15) -0.0911(4) 0.9050(4)
N1 N 0.84015(12) 0.3217(4) 0.6049(3)
N2 N 1.00375(14) 0.4315(4) 0.6201(4)
N3 N 1.04544(13) 0.4909(4) 0.6285(4)
N4 N 1.20599(12) 0.6159(4) 0.6454(3)
O1 O 0.79482(13) 0.1742(4) 0.7869(3)
O2 O 0.82261(13) 0.0666(4) 0.6771(3)
O3 O 0.76909(12) -0.1108(3) 0.8218(3)
O4 O 0.76862(12) -0.1484(3) 0.9731(3)
Cd1 Cd 0.772739(10) 0.22070(3) 0.62754(2)
N4B N 0.70599(12) 0.1159(4) 0.6454(3)
O3C O 0.73091(12) 0.3892(3) 0.6782(3)
O4C O 0.73138(12) 0.3516(3) 0.5269(3)
O4E O 0.76862(12) 0.1484(3) 0.4731(3)
Cd1B Cd 1.272739(10) 0.72070(3) 0.62754(2)
Cd1C Cd 0.727261(10) -0.27930(3) 0.87246(2)
Cd1E Cd 0.772739(10) -0.22070(3) 1.12754(2)
O5 O 0.7253(4) 0.2119(9) 0.9197(7)
O6 O 0.8539(4) -0.1562(9) 0.6345(7)
O7 O 0.9606(11) 0.893(3) 0.775(4)
O8 O 0.9410(12) -0.042(2) 0.541(3)
loop_
_geom_bond_atom_site_label_1
_geom_bond_atom_site_label_2
_geom_bond_site_symmetry_1
_geom_bond_site_symmetry_2
C1 H1 1_555 1_555
C2 C1 1_555 1_555
H2 C2 1_555 1_555
C3 C2 1_555 1_555
C4 C3 1_555 1_555
H3 C4 1_555 1_555
C5 C4 1_555 1_555
H4 C5 1_555 1_555
C6 C3 1_555 1_555
C7 C6 1_555 1_555
H5 C7 1_555 1_555
H6 C7 1_555 1_555
H7 C7 1_555 1_555
C8 H8 1_555 1_555
H9 C8 1_555 1_555
H10 C8 1_555 1_555
C9 C8 1_555 1_555
C10 C9 1_555 1_555
C11 C10 1_555 1_555
H11 C11 1_555 1_555
C12 C11 1_555 1_555
H12 C12 1_555 1_555
C13 H13 1_555 1_555
C14 C10 1_555 1_555
H14 C14 1_555 1_555
C15 C16 1_555 1_555
C16 H15 1_555 1_555
H16 C16 1_555 1_555
C17 C16 1_555 1_555
H17 C17 1_555 1_555
H18 C17 1_555 1_555
C18 C17 1_555 1_555
N1 C1 1_555 1_555
N2 C6 1_555 1_555
N3 C9 1_555 1_555
N4 C12 1_555 1_555
O1 C15 1_555 1_555
O2 C15 1_555 1_555
O3 C18 1_555 1_555
O4 C18 1_555 1_555
Cd1 N1 1_555 1_555
N4B Cd1 1_555 1_555
O3C Cd1 1_555 1_555
O4C Cd1 1_555 1_555
O4E Cd1 1_555 1_555
Cd1B N4 1_555 1_555
Cd1C O3 1_555 1_555
Cd1E O4 1_555 1_555
C5 N1 1_555 1_555
C13 C14 1_555 1_555
C13 N4 1_555 1_555
N2 N3 1_555 1_555
O1 Cd1 1_555 1_555
O2 Cd1 1_555 1_555
O4 Cd1C 1_555 1_555

#END
