
#######################################################################
#
#                 Cambridge Crystallographic Data Centre
#                                CCDC 
#
#######################################################################
#
# If this CIF has been generated from an entry in the Cambridge 
# Structural Database, then it will include bibliographic, chemical, 
# crystal, experimental, refinement or atomic coordinate data resulting 
# from the CCDC's data processing and validation procedures.
#
#######################################################################

data_WIFDAQ
_symmetry_cell_setting           triclinic
_symmetry_space_group_name_H-M   'P -1'
_symmetry_Int_Tables_number      2
_space_group_name_Hall           '-P 1'
loop_
_symmetry_equiv_pos_site_id
_symmetry_equiv_pos_as_xyz
1 x,y,z
2 -x,-y,-z
_cell_length_a                   9.9876(15)
_cell_length_b                   15.656(3)
_cell_length_c                   19.698(3)
_cell_angle_alpha                110.77(2)
_cell_angle_beta                 100.63(2)
_cell_angle_gamma                100.58(2)
_cell_volume                     2724.6
loop_
_atom_site_label
_atom_site_type_symbol
_atom_site_fract_x
_atom_site_fract_y
_atom_site_fract_z
Er1 Er 0.51839(5) 0.21065(4) 0.07092(3)
Er2 Er -0.71685(6) 0.27280(4) -0.68304(3)
Er3 Er -0.00949(5) 0.48084(4) -0.21734(3)
O1 O 0.2831(8) 0.1952(6) 0.0842(4)
O2 O 0.3145(9) 0.0969(7) -0.0175(5)
O3 O -0.0927(10) -0.1354(7) -0.2268(5)
O4 O -0.3076(9) -0.1363(6) -0.2201(5)
O5 O -0.2346(9) 0.2040(6) 0.0884(4)
O6 O -0.3940(10) 0.1157(8) -0.0182(6)
O7 O -0.4648(8) 0.3129(7) -0.6863(4)
O8 O -0.5149(10) 0.3254(9) -0.5803(5)
O9 O 0.0511(10) 0.4322(8) -0.3363(5)
O10 O -0.1498(9) 0.4671(7) -0.3360(4)
O11 O 0.0604(8) 0.3116(6) -0.6787(4)
O12 O 0.1890(11) 0.3163(10) -0.5758(5)
O13 O 0.2441(9) 0.5129(6) -0.1941(4)
O14 O 0.1358(10) 0.3965(8) -0.1709(7)
O15 O 0.8568(10) 0.4270(7) -0.1432(6)
O16 O 0.7710(9) 0.5178(7) -0.1938(5)
O17 O 0.6340(10) 0.3236(7) 0.0315(5)
O18 O 0.4092(11) 0.2924(10) 0.0057(8)
O19 O 0.5817(10) 0.3347(7) 0.1869(5)
O20 O 0.5259(11) 0.1334(8) 0.1512(5)
O21 O -0.7535(11) 0.3110(6) -0.7895(4)
O22 O -0.6576(10) 0.4374(7) -0.6419(6)
O23 O -0.7172(26) 0.1516(11) -0.6347(7)
O24 O 0.0558(10) 0.6331(6) -0.2152(5)
O25 O 0.0818(10) 0.5905(8) -0.0893(5)
O26 O -0.1363(16) 0.3149(9) -0.2861(7)
C1 C 0.0770(13) 0.1010(8) -0.0179(7)
C2 C 0.0258(13) 0.0245(8) -0.0883(6)
C3 C -0.1201(12) -0.0109(8) -0.1223(6)
C4 C -0.2094(13) 0.0332(8) -0.0862(6)
C5 C -0.1613(12) 0.1066(8) -0.0160(6)
C6 C -0.0175(13) 0.1421(8) 0.0192(6)
C7 C 0.2308(12) 0.1308(8) 0.0186(6)
C8 C -0.1744(13) -0.0974(9) -0.1935(7)
C9 C -0.2670(13) 0.1448(9) 0.0200(7)
C10 C -0.2749(13) 0.3523(9) -0.5752(6)
C11 C -0.2365(13) 0.3864(9) -0.4969(6)
C12 C -0.1018(12) 0.4040(8) -0.4564(6)
C13 C -0.0001(14) 0.3846(9) -0.4945(6)
C14 C -0.0319(12) 0.3498(9) -0.5717(6)
C15 C -0.1678(13) 0.3339(9) -0.6118(6)
C16 C -0.4263(13) 0.3284(10) -0.6157(6)
C17 C -0.0632(13) 0.4360(9) -0.3725(6)
C18 C 0.0798(13) 0.3257(10) -0.6101(7)
C19 C 0.3877(13) 0.4339(9) -0.1372(7)
C20 C 0.5096(12) 0.4657(9) -0.1582(6)
C21 C 0.6327(12) 0.4447(9) -0.1298(7)
C22 C 0.6402(12) 0.4043(8) -0.0786(6)
C23 C 0.5196(12) 0.3778(9) -0.0566(6)
C24 C 0.3947(13) 0.3924(8) -0.0867(7)
C25 C 0.2501(14) 0.4506(9) -0.1687(7)
C26 C 0.7634(12) 0.4661(9) -0.1562(7)
C27 C 0.5216(13) 0.3291(9) -0.0034(6)
H1 H 0.0885(13) -0.0027(8) -0.1125(6)
H2 H -0.3059(13) 0.0126(8) -0.1102(6)
H3 H 0.0161(13) 0.1922(8) 0.0665(6)
H4 H -0.3056(13) 0.3975(9) -0.4716(6)
H5 H 0.0922(14) 0.3955(9) -0.4670(6)
H6 H -0.1902(13) 0.3105(9) -0.6642(6)
H7 H 0.5078(12) 0.4989(9) -0.1891(6)
H8 H 0.7251(12) 0.3945(8) -0.0586(6)
H9 H 0.3141(13) 0.3739(8) -0.0725(7)
O5_2 O 0.7654(9) 0.2040(6) 0.0884(4)
O6_2 O 0.6060(10) 0.1157(8) -0.0182(6)
Er1_2 Er -0.48161(5) 0.21065(4) 0.07092(3)
Er3_2 Er 0.99051(5) 0.48084(4) -0.21734(3)
O15_2 O -0.1432(10) 0.4270(7) -0.1432(6)
O16_2 O -0.2290(9) 0.5178(7) -0.1938(5)
Er2A Er -0.28315(6) -0.27280(4) -0.31696(3)
Er2_2 Er 0.28315(6) 0.27280(4) -0.68304(3)
O3A O -0.9073(10) 0.1354(7) -0.7732(5)
O4A O -0.6924(9) 0.1363(6) -0.7799(5)
O11_2 O -0.9396(8) 0.3116(6) -0.6787(4)
O12_2 O -0.8110(11) 0.3163(10) -0.5758(5)
O27 O 0.5833(18) 0.5785(18) 0.4337(9)
O28 O 0.7593(43) 0.0857(31) 0.2179(20)
O29 O 0.7479(32) 0.6679(24) 0.3653(14)
O30 O 0.9458(34) 0.6289(20) 0.0203(18)
loop_
_geom_bond_atom_site_label_1
_geom_bond_atom_site_label_2
_geom_bond_site_symmetry_1
_geom_bond_site_symmetry_2
Er1 O1 1_555 1_555
Er2 O7 1_555 1_555
Er3 O9 1_555 1_555
O1 C7 1_555 1_555
O2 Er1 1_555 1_555
O3 C8 1_555 1_555
O4 C8 1_555 1_555
O5 C9 1_555 1_555
O6 C9 1_555 1_555
O7 C16 1_555 1_555
O8 Er2 1_555 1_555
O9 C17 1_555 1_555
O10 Er3 1_555 1_555
O11 C18 1_555 1_555
O12 C18 1_555 1_555
O13 Er3 1_555 1_555
O14 Er3 1_555 1_555
O15 C26 1_555 1_555
O16 C26 1_555 1_555
O17 Er1 1_555 1_555
O18 Er1 1_555 1_555
O19 Er1 1_555 1_555
O20 Er1 1_555 1_555
O21 Er2 1_555 1_555
O22 Er2 1_555 1_555
O23 Er2 1_555 1_555
O24 Er3 1_555 1_555
O25 Er3 1_555 1_555
O26 Er3 1_555 1_555
C1 C2 1_555 1_555
C2 C3 1_555 1_555
C3 C4 1_555 1_555
C4 C5 1_555 1_555
C5 C6 1_555 1_555
C6 C1 1_555 1_555
C7 O2 1_555 1_555
C8 C3 1_555 1_555
C9 C5 1_555 1_555
C10 C11 1_555 1_555
C11 C12 1_555 1_555
C12 C13 1_555 1_555
C13 C14 1_555 1_555
C14 C15 1_555 1_555
C15 C10 1_555 1_555
C16 O8 1_555 1_555
C17 O10 1_555 1_555
C18 C14 1_555 1_555
C19 C20 1_555 1_555
C20 C21 1_555 1_555
C21 C22 1_555 1_555
C22 C23 1_555 1_555
C23 C24 1_555 1_555
C24 C19 1_555 1_555
C25 O13 1_555 1_555
C26 C21 1_555 1_555
C27 O17 1_555 1_555
H1 C2 1_555 1_555
H2 C4 1_555 1_555
H3 C6 1_555 1_555
H4 C11 1_555 1_555
H5 C13 1_555 1_555
H6 C15 1_555 1_555
H7 C20 1_555 1_555
H8 C22 1_555 1_555
H9 C24 1_555 1_555
O5_2 Er1 1_555 1_555
O6_2 Er1 1_555 1_555
Er1_2 O5 1_555 1_555
Er3_2 O15 1_555 1_555
O15_2 Er3 1_555 1_555
O16_2 Er3 1_555 1_555
Er2A O3 1_555 1_555
Er2_2 O11 1_555 1_555
O3A Er2 1_555 1_555
O4A Er2 1_555 1_555
O11_2 Er2 1_555 1_555
O12_2 Er2 1_555 1_555
O4 Er2A 1_555 1_555
O6 Er1_2 1_555 1_555
O12 Er2_2 1_555 1_555
O14 C25 1_555 1_555
O16 Er3_2 1_555 1_555
O18 C27 1_555 1_555
C1 C7 1_555 1_555
C10 C16 1_555 1_555
C12 C17 1_555 1_555
C19 C25 1_555 1_555
C23 C27 1_555 1_555

#END
