
#######################################################################
#
#                 Cambridge Crystallographic Data Centre
#                                CCDC 
#
#######################################################################
#
# If this CIF has been generated from an entry in the Cambridge 
# Structural Database, then it will include bibliographic, chemical, 
# crystal, experimental, refinement or atomic coordinate data resulting 
# from the CCDC's data processing and validation procedures.
#
#######################################################################

data_WIFGOJ
_symmetry_cell_setting           tetragonal
_symmetry_space_group_name_H-M   'I -4'
_symmetry_Int_Tables_number      82
_space_group_name_Hall           'I -4'
loop_
_symmetry_equiv_pos_site_id
_symmetry_equiv_pos_as_xyz
1 x,y,z
2 -x,-y,z
3 y,-x,-z
4 -y,x,-z
5 1/2+x,1/2+y,1/2+z
6 1/2-x,1/2-y,1/2+z
7 1/2+y,1/2-x,1/2-z
8 1/2-y,1/2+x,1/2-z
_cell_length_a                   22.2366(2)
_cell_length_b                   22.2366(2)
_cell_length_c                   18.6742(3)
_cell_angle_alpha                90
_cell_angle_beta                 90
_cell_angle_gamma                90
_cell_volume                     9233.76
loop_
_atom_site_label
_atom_site_type_symbol
_atom_site_fract_x
_atom_site_fract_y
_atom_site_fract_z
Cd1 Cd 0.81619(5) 0.69372(5) 0.60517(5)
Cd2 Cd 0.91594(5) 0.70133(5) 0.76976(6)
Cd3 Cd 1.02606(4) 0.76822(5) 0.90271(5)
Cd4 Cd 0.97403(4) 0.76812(5) 1.09721(5)
Cd5 Cd 1.08406(5) 0.70123(5) 1.23020(6)
Cd6 Cd 1.18373(5) 0.69365(5) 1.39483(5)
Cl1 Cl 0.92635(18) 0.7152(2) 0.6311(2)
Cl2 Cl 0.9628(2) 0.80436(18) 0.7980(2)
Cl3 Cl 1.0001(2) 0.84387(18) 1.0001(2)
Cl4 Cl 1.0371(2) 0.80434(18) 1.2021(2)
Cl5 Cl 1.07353(18) 0.7149(2) 1.3689(2)
Cl6 Cl 1.21334(19) 0.78655(19) 1.46757(19)
N1 N 0.8201(6) 0.6330(6) 0.5043(6)
N2 N 0.7907(5) 0.5801(6) 0.5045(6)
N3 N 0.7906(5) 0.5581(5) 0.4386(6)
N4 N 0.8195(5) 0.5964(5) 0.3944(6)
N5 N 0.8723(5) 0.6083(5) 0.7385(6)
N6 N 0.8336(5) 0.6075(5) 0.6821(6)
N7 N 0.8139(5) 0.5527(6) 0.6732(6)
N8 N 0.8374(5) 0.5155(5) 0.7202(6)
N9 N 0.8211(5) 0.7508(5) 0.7706(6)
N10 N 0.7911(6) 0.7504(6) 0.7090(6)
N11 N 0.7499(6) 0.7906(6) 0.7090(6)
N12 N 0.7511(5) 0.8211(5) 0.7699(6)
N13 N 0.8850(5) 0.8153(5) 1.1199(7)
N14 N 0.8313(5) 0.7905(5) 1.1087(6)
N15 N 0.7901(5) 0.8309(5) 1.1097(7)
N16 N 0.8161(6) 0.8858(6) 1.1209(6)
N17 N 1.1282(5) 0.6081(6) 1.2622(6)
N18 N 1.1661(5) 0.6075(5) 1.3169(6)
N19 N 1.1865(5) 0.5521(6) 1.3268(6)
N20 N 1.1617(5) 0.5158(5) 1.2796(6)
N21 N 1.1800(6) 0.6333(5) 1.4951(6)
N22 N 1.2096(5) 0.5809(5) 1.4952(6)
N23 N 1.2101(6) 0.5580(5) 1.5619(6)
N24 N 1.1805(5) 0.5968(5) 1.6055(6)
C1 C 0.8371(7) 0.6427(7) 0.4357(8)
C2 C 0.8691(8) 0.6947(8) 0.4093(9)
H1 H 0.8690 0.6943 0.3579
H2 H 0.9098 0.6938 0.4264
H3 H 0.8497 0.7306 0.4261
C3 C 0.8735(7) 0.5515(7) 0.7603(8)
C4 C 0.9121(8) 0.5306(7) 0.8254(9)
H4 H 0.9307 0.5649 0.8473
H5 H 0.9425 0.5032 0.8093
H6 H 0.8867 0.5109 0.8597
C5 C 0.7954(7) 0.7963(6) 0.8081(7)
C6 C 0.8131(7) 0.8143(7) 0.8817(7)
H7 H 0.7867 0.8454 0.8984
H8 H 0.8537 0.8290 0.8813
H9 H 0.8104 0.7801 0.9130
C7 C 0.8739(7) 0.8736(7) 1.1262(7)
C8 C 0.9229(7) 0.9230(8) 1.1357(10)
H10 H 0.9114 0.9496 1.1737
H11 H 0.9268 0.9454 1.0920
H12 H 0.9607 0.9044 1.1471
C9 C 1.1256(7) 0.5518(7) 1.2392(8)
C10 C 1.0879(7) 0.5300(7) 1.1749(9)
H13 H 1.0570 0.5589 1.1646
H14 H 1.0697 0.4920 1.1862
H15 H 1.1134 0.5255 1.1338
C11 C 1.1623(7) 0.6423(7) 1.5655(8)
C12 C 1.1303(8) 0.6960(8) 1.5901(9)
H16 H 1.0885 0.6928 1.5776
H17 H 1.1472 0.7310 1.5676
H18 H 1.1342 0.6995 1.6411
Cd1C Cd 1.30628(5) 0.81619(5) 1.39483(5)
Cd1E Cd 0.68381(5) 0.80628(5) 1.10517(5)
Cd2F Cd 1.20133(5) 0.58406(5) 1.73024(6)
Cd2G Cd 0.79867(5) 0.41594(5) 0.73024(6)
Cd3B Cd 0.76822(5) 0.97394(4) 1.09729(5)
Cd3F Cd 1.26822(5) 0.47394(4) 1.59729(5)
Cd3G Cd 0.73178(5) 0.52606(4) 0.59729(5)
Cd4F Cd 1.26812(5) 0.52597(4) 1.40279(5)
Cd4G Cd 0.73188(5) 0.47403(4) 0.40279(5)
Cd5B Cd 0.70123(5) 0.91594(5) 0.76980(6)
Cd5F Cd 1.20123(5) 0.41594(5) 1.26980(6)
Cd5G Cd 0.79877(5) 0.58406(5) 0.26980(6)
Cd6B Cd 0.69365(5) 0.81627(5) 0.60517(5)
Cd6G Cd 0.80635(5) 0.68373(5) 1.10517(5)
Cl6B Cl 0.78655(19) 0.78666(19) 0.53243(19)
N2F N 1.0801(6) 0.7093(5) 0.9955(6)
N3F N 1.0581(5) 0.7094(5) 1.0614(6)
N4F N 1.0964(5) 0.6805(5) 1.1056(6)
N7F N 1.0527(6) 0.6861(5) 0.8268(6)
N8F N 1.0155(5) 0.6626(5) 0.7798(6)
N11C N 1.2094(6) 0.7499(6) 1.2910(6)
N12C N 1.1789(5) 0.7511(5) 1.2301(6)
N14F N 1.2905(5) 0.6687(5) 1.3913(6)
N15E N 0.7099(5) 0.6691(5) 0.6097(7)
N16C N 1.1142(6) 0.8161(6) 0.8791(6)
N19G N 0.9479(6) 0.6865(5) 1.1732(6)
N20G N 0.9842(5) 0.6617(5) 1.2204(6)
N22G N 0.9191(5) 0.7096(5) 1.0048(6)
N23G N 0.9420(5) 0.7101(6) 0.9381(6)
N24G N 0.9032(5) 0.6805(5) 0.8945(6)
O1 O 0.324(3) 0.670(3) 0.211(2)
O2 O 0.045(3) 0.503(5) 1.000(3)
loop_
_geom_bond_atom_site_label_1
_geom_bond_atom_site_label_2
_geom_bond_site_symmetry_1
_geom_bond_site_symmetry_2
Cd1 Cl1 1_555 1_555
Cd2 Cl1 1_555 1_555
Cd3 Cl2 1_555 1_555
Cd4 Cl3 1_555 1_555
Cd5 Cl4 1_555 1_555
Cd6 Cl5 1_555 1_555
Cl2 Cd2 1_555 1_555
Cl3 Cd3 1_555 1_555
Cl4 Cd4 1_555 1_555
Cl5 Cd5 1_555 1_555
Cl6 Cd6 1_555 1_555
N1 Cd1 1_555 1_555
N2 N1 1_555 1_555
N3 N2 1_555 1_555
N4 N3 1_555 1_555
N5 Cd2 1_555 1_555
N6 Cd1 1_555 1_555
N7 N6 1_555 1_555
N8 N7 1_555 1_555
N9 Cd2 1_555 1_555
N10 Cd1 1_555 1_555
N11 N10 1_555 1_555
N12 N11 1_555 1_555
N13 Cd4 1_555 1_555
N14 N13 1_555 1_555
N15 N14 1_555 1_555
N16 N15 1_555 1_555
N17 Cd5 1_555 1_555
N18 Cd6 1_555 1_555
N19 N18 1_555 1_555
N20 N19 1_555 1_555
N21 Cd6 1_555 1_555
N22 N21 1_555 1_555
N23 N22 1_555 1_555
N24 N23 1_555 1_555
C1 N1 1_555 1_555
C2 C1 1_555 1_555
H1 C2 1_555 1_555
H2 C2 1_555 1_555
H3 C2 1_555 1_555
C3 N5 1_555 1_555
C4 C3 1_555 1_555
H4 C4 1_555 1_555
H5 C4 1_555 1_555
H6 C4 1_555 1_555
C5 N9 1_555 1_555
C6 C5 1_555 1_555
H7 C6 1_555 1_555
H8 C6 1_555 1_555
H9 C6 1_555 1_555
C7 N13 1_555 1_555
C8 C7 1_555 1_555
H10 C8 1_555 1_555
H11 C8 1_555 1_555
H12 C8 1_555 1_555
C9 N17 1_555 1_555
C10 C9 1_555 1_555
H13 C10 1_555 1_555
H14 C10 1_555 1_555
H15 C10 1_555 1_555
C11 N21 1_555 1_555
C12 C11 1_555 1_555
H16 C12 1_555 1_555
H17 C12 1_555 1_555
H18 C12 1_555 1_555
Cd1C Cl6 1_555 1_555
Cd1E N15 1_555 1_555
Cd2F N24 1_555 1_555
Cd2G N8 1_555 1_555
Cd3B N16 1_555 1_555
Cd3F N23 1_555 1_555
Cd3G N2 1_555 1_555
Cd4F N19 1_555 1_555
Cd4G N3 1_555 1_555
Cd5B N12 1_555 1_555
Cd5F N20 1_555 1_555
Cd5G N4 1_555 1_555
Cd6B N11 1_555 1_555
Cd6G N14 1_555 1_555
Cl6B Cd1 1_555 1_555
N2F Cd3 1_555 1_555
N3F Cd4 1_555 1_555
N4F Cd5 1_555 1_555
N7F Cd3 1_555 1_555
N8F Cd2 1_555 1_555
N11C Cd6 1_555 1_555
N12C Cd5 1_555 1_555
N14F Cd6 1_555 1_555
N15E Cd1 1_555 1_555
N16C Cd3 1_555 1_555
N19G Cd4 1_555 1_555
N20G Cd5 1_555 1_555
N22G Cd4 1_555 1_555
N23G Cd3 1_555 1_555
N24G Cd2 1_555 1_555
N4 C1 1_555 1_555
N5 N6 1_555 1_555
N7 Cd3G 1_555 1_555
N8 C3 1_555 1_555
N9 N10 1_555 1_555
N12 C5 1_555 1_555
N16 C7 1_555 1_555
N17 N18 1_555 1_555
N20 C9 1_555 1_555
N22 Cd4F 1_555 1_555
N24 C11 1_555 1_555
Cd6B Cl6B 1_555 1_555
N2F N3F 1_555 1_555
N3F N4F 1_555 1_555
N7F N8F 1_555 1_555
N11C N12C 1_555 1_555
N19G N20G 1_555 1_555
N22G N23G 1_555 1_555
N23G N24G 1_555 1_555

#END
