
#######################################################################
#
#                 Cambridge Crystallographic Data Centre
#                                CCDC 
#
#######################################################################
#
# If this CIF has been generated from an entry in the Cambridge 
# Structural Database, then it will include bibliographic, chemical, 
# crystal, experimental, refinement or atomic coordinate data resulting 
# from the CCDC's data processing and validation procedures.
#
#######################################################################

data_WIFHAW
_symmetry_cell_setting           orthorhombic
_symmetry_space_group_name_H-M   'P c a 21'
_symmetry_Int_Tables_number      29
_space_group_name_Hall           'P 2c -2ac'
loop_
_symmetry_equiv_pos_site_id
_symmetry_equiv_pos_as_xyz
1 x,y,z
2 -x,-y,1/2+z
3 1/2-x,y,1/2+z
4 1/2+x,-y,z
_cell_length_a                   9.7285(3)
_cell_length_b                   8.443
_cell_length_c                   8.4433(2)
_cell_angle_alpha                90
_cell_angle_beta                 90
_cell_angle_gamma                90
_cell_volume                     693.513
loop_
_atom_site_label
_atom_site_type_symbol
_atom_site_fract_x
_atom_site_fract_y
_atom_site_fract_z
Mn1 Mn 0.43587(3) 0.74693(3) 0.78572(10)
O1 O 0.56464(14) 0.53501(16) 0.8050(3)
O2 O 0.74824(13) 0.38542(16) 0.7867(4)
O3 O 0.4237(3) 0.7720(3) 1.0391(4)
H1 H 0.4926 0.8177 1.0715
O4 O 0.4437(3) 0.7469(2) 0.5225(4)
H2 H 0.4089 0.8287 0.4888
N1 N 0.64120(15) 0.86453(18) 0.7796(3)
N2 N 0.68256(18) 1.0111(2) 0.8181(3)
N3 N 0.85388(18) 0.8943(2) 0.7000(3)
N4 N 0.80960(17) 1.0284(2) 0.7684(3)
C1 C 0.7482(2) 0.7963(3) 0.7087(3)
C2 C 0.7506(2) 0.6306(3) 0.6460(4)
H3 H 0.8455 0.5997 0.6286
H4 H 0.7044 0.6288 0.5443
C3 C 0.6838(2) 0.5103(2) 0.7531(4)
H5 H 0.418(3) 0.661(4) 0.469(4)
H6 H 0.355(4) 0.767(4) 1.074(5)
Mn1C Mn 0.93587(3) 0.25307(3) 0.78572(10)
Mn1C_2 Mn 0.93587(3) 1.25307(3) 0.78572(10)
O2C O 0.24824(13) 0.61458(16) 0.7867(4)
N4C N 0.30960(17) 0.9716(2) 0.7684(3)
loop_
_geom_bond_atom_site_label_1
_geom_bond_atom_site_label_2
_geom_bond_site_symmetry_1
_geom_bond_site_symmetry_2
Mn1 O1 1_555 1_555
O1 C3 1_555 1_555
O2 C3 1_555 1_555
O3 Mn1 1_555 1_555
H1 O3 1_555 1_555
O4 Mn1 1_555 1_555
H2 O4 1_555 1_555
N1 Mn1 1_555 1_555
N2 N1 1_555 1_555
N3 N4 1_555 1_555
N4 N2 1_555 1_555
C1 N1 1_555 1_555
C2 C1 1_555 1_555
H3 C2 1_555 1_555
H4 C2 1_555 1_555
C3 C2 1_555 1_555
H5 O4 1_555 1_555
H6 O3 1_555 1_555
Mn1C O2 1_555 1_555
Mn1C_2 N4 1_555 1_555
O2C Mn1 1_555 1_555
N4C Mn1 1_555 1_555
N3 C1 1_555 1_555

#END
