
#######################################################################
#
#                 Cambridge Crystallographic Data Centre
#                                CCDC 
#
#######################################################################
#
# If this CIF has been generated from an entry in the Cambridge 
# Structural Database, then it will include bibliographic, chemical, 
# crystal, experimental, refinement or atomic coordinate data resulting 
# from the CCDC's data processing and validation procedures.
#
#######################################################################

data_WIFLAA
_symmetry_cell_setting           tetragonal
_symmetry_space_group_name_H-M   'P 43 21 2'
_symmetry_Int_Tables_number      96
_space_group_name_Hall           'P 4nw 2abw'
loop_
_symmetry_equiv_pos_site_id
_symmetry_equiv_pos_as_xyz
1 x,y,z
2 -x,-y,1/2+z
3 1/2-y,1/2+x,3/4+z
4 1/2+y,1/2-x,1/4+z
5 1/2-x,1/2+y,3/4-z
6 1/2+x,1/2-y,1/4-z
7 y,x,-z
8 -y,-x,1/2-z
_cell_length_a                   15.8964(6)
_cell_length_b                   15.8964(6)
_cell_length_c                   17.0316(12)
_cell_angle_alpha                90
_cell_angle_beta                 90
_cell_angle_gamma                90
_cell_volume                     4303.81
loop_
_atom_site_label
_atom_site_type_symbol
_atom_site_fract_x
_atom_site_fract_y
_atom_site_fract_z
N1 N 0.60152(17) 1.60152(17) 0.0000
C1 C 0.5205(2) 1.6207(2) 0.0061(2)
H1 H 0.5060 1.6773 0.0101
C2 C 0.4567(2) 1.5623(2) 0.0069(2)
H2 H 0.4009 1.5788 0.0119
C3 C 0.4781(2) 1.4781(2) 0.0000
N2 N 0.41432(17) 1.41432(17) 0.0000
C4 C 0.3634(2) 1.4069(2) 0.0678(2)
O1 O -0.13423(17) 0.27148(17) 0.66880(15)
O2 O -0.23969(18) 0.36409(18) 0.67398(17)
C5 C -0.1729(2) 0.3349(3) 0.6445(2)
C6 C -0.1505(2) 0.4998(2) 0.4857(2)
H3 H -0.1801 0.5463 0.4675
C7 C -0.1807(2) 0.4533(2) 0.5484(2)
H4 H -0.2302 0.4701 0.5728
C8 C -0.1393(2) 0.3828(2) 0.57553(19)
C9 C -0.0644(2) 0.3589(2) 0.5391(2)
H5 H -0.0351 0.3119 0.5565
C10 C -0.0345(2) 0.4055(2) 0.47749(19)
H6 H 0.0152 0.3890 0.4531
C11 C -0.0757(2) 0.4763(2) 0.4503(2)
N3 N -0.0402(2) 0.5240(2) 0.3907(2)
C12 C -0.0772(2) 0.5665(2) 0.32909(19)
C13 C -0.0290(2) 0.6219(2) 0.2869(2)
H7 H 0.0255 0.6335 0.3034
C14 C -0.1593(2) 0.5522(3) 0.3048(2)
H8 H -0.1939 0.5166 0.3336
C15 C -0.1896(2) 0.5909(2) 0.2382(2)
H9 H -0.2444 0.5797 0.2223
C16 C -0.0600(2) 0.6610(2) 0.2200(2)
H10 H -0.0259 0.6980 0.1921
C17 C -0.1415(2) 0.6454(2) 0.1942(2)
Co1 Co -0.30607(3) 0.69393(3) 0.0000
Co2 Co -0.17977(3) 0.82023(3) 0.0000
N4 N 0.10059(18) 1.10059(18) 0.0000
N5 N -0.08734(17) 0.91266(17) 0.0000
O3 O -0.13240(18) 0.74539(18) 0.09171(15)
O4 O -0.23844(17) 0.65245(17) 0.09060(15)
C18 C 0.2887(2) 1.2887(2) 0.0000
O5 O 0.37201(17) 1.45463(18) 0.12151(16)
C19 C 0.1731(2) 1.2177(2) 0.0662(2)
C20 C 0.0359(2) 1.0359(2) 0.0000
C21 C 0.2989(2) 1.3385(2) 0.0678(2)
C22 C 0.2257(2) 1.2257(2) 0.0000
C23 C 0.1030(2) 1.1563(2) 0.0641(2)
O6 O 0.04938(18) 1.15285(18) 0.11441(16)
C24 C -0.1726(2) 0.6846(2) 0.1199(2)
C25 C 0.0476(3) 0.9627(3) 0.0410(2)
H11 H 0.0969 0.9537 0.0693
C26 C 0.1861(2) 1.2662(3) 0.1303(2)
H12 H 0.1526 1.2587 0.1745
C27 C -0.0148(2) 0.9028(3) 0.0395(2)
H13 H -0.0064 0.8530 0.0672
C28 C 0.2493(2) 1.3275(2) 0.1310(2)
H14 H 0.2571 1.3608 0.1753
H15 H 0.005(2) 0.5183(18) 0.3857(17)
C1F C 0.6207(2) 1.5205(2) -0.0061(2)
H1F H 0.6773 1.5060 -0.0101
C2F C 0.5623(2) 1.4567(2) -0.0069(2)
H2F H 0.5788 1.4009 -0.0119
C4F C 0.4069(2) 1.3634(2) -0.0678(2)
O5F O 0.45463(18) 1.37201(17) -0.12151(16)
C19F C 0.2177(2) 1.1731(2) -0.0662(2)
C21F C 0.3385(2) 1.2989(2) -0.0678(2)
C23F C 0.1563(2) 1.1030(2) -0.0641(2)
O6F O 0.15285(18) 1.04938(18) -0.11441(16)
C25F C -0.0373(3) 1.0476(3) -0.0410(2)
H11F H -0.0463 1.0969 -0.0693
C26F C 0.2662(3) 1.1861(2) -0.1303(2)
H12F H 0.2587 1.1526 -0.1745
C27F C -0.0972(3) 0.9852(2) -0.0395(2)
H13F H -0.1470 0.9936 -0.0672
C28F C 0.3275(2) 1.2493(2) -0.1310(2)
H14F H 0.3608 1.2571 -0.1753
O1F O -0.72852(17) 0.86577(17) -0.66880(15)
O2F O -0.63591(18) 0.76031(18) -0.67398(17)
C5F C -0.6651(3) 0.8271(2) -0.6445(2)
C6F C -0.5002(2) 0.8495(2) -0.4857(2)
H3F H -0.4537 0.8199 -0.4675
C7F C -0.5467(2) 0.8193(2) -0.5484(2)
H4F H -0.5299 0.7698 -0.5728
C8F C -0.6172(2) 0.8607(2) -0.57553(19)
C9F C -0.6411(2) 0.9356(2) -0.5391(2)
H5F H -0.6881 0.9649 -0.5565
C10F C -0.5945(2) 0.9655(2) -0.47749(19)
H6F H -0.6110 1.0152 -0.4531
C11F C -0.5237(2) 0.9243(2) -0.4503(2)
N3F N -0.4760(2) 0.9598(2) -0.3907(2)
C12F C -0.4335(2) 0.9228(2) -0.32909(19)
C13F C -0.3781(2) 0.9710(2) -0.2869(2)
H7F H -0.3665 1.0255 -0.3034
C14F C -0.4478(3) 0.8407(2) -0.3048(2)
H8F H -0.4834 0.8061 -0.3336
C15F C -0.4091(2) 0.8104(2) -0.2382(2)
H9F H -0.4203 0.7556 -0.2223
C16F C -0.3390(2) 0.9400(2) -0.2200(2)
H10F H -0.3020 0.9741 -0.1921
C17F C -0.3546(2) 0.8585(2) -0.1942(2)
O3F O -0.25461(18) 0.86760(18) -0.09171(15)
O4F O -0.34755(17) 0.76156(17) -0.09060(15)
C24F C -0.3154(2) 0.8274(2) -0.1199(2)
H15F H -0.4817(18) 1.005(2) -0.3857(17)
N1_2 N -0.39848(17) 0.60152(17) 0.0000
O1C O -0.22852(17) 0.63423(17) -0.08120(15)
O1D O -0.36577(17) 0.77148(17) 0.08120(15)
O2C O -0.13591(18) 0.73969(18) -0.07602(17)
O2D O -0.26031(18) 0.86409(18) 0.07602(17)
Co1_2 Co 0.69393(3) 1.69393(3) 0.0000
Co1B Co -0.19393(3) 0.19393(3) 0.7500
Co1C Co -0.80607(3) 0.80607(3) -0.7500
Co2B Co -0.32023(3) 0.32023(3) 0.7500
Co2C Co -0.67977(3) 0.67977(3) -0.7500
loop_
_geom_bond_atom_site_label_1
_geom_bond_atom_site_label_2
_geom_bond_site_symmetry_1
_geom_bond_site_symmetry_2
N1 C1 1_555 1_555
C1 H1 1_555 1_555
C2 C1 1_555 1_555
H2 C2 1_555 1_555
C3 C2 1_555 1_555
N2 C3 1_555 1_555
C4 N2 1_555 1_555
O1 C5 1_555 1_555
O2 C5 1_555 1_555
C5 C8 1_555 1_555
C6 H3 1_555 1_555
C7 C6 1_555 1_555
H4 C7 1_555 1_555
C8 C7 1_555 1_555
C9 C8 1_555 1_555
H5 C9 1_555 1_555
C10 C9 1_555 1_555
H6 C10 1_555 1_555
C11 C6 1_555 1_555
N3 C11 1_555 1_555
C12 N3 1_555 1_555
C13 C12 1_555 1_555
H7 C13 1_555 1_555
C14 C12 1_555 1_555
H8 C14 1_555 1_555
C15 C14 1_555 1_555
H9 C15 1_555 1_555
C16 C13 1_555 1_555
H10 C16 1_555 1_555
C17 C15 1_555 1_555
Co1 O4 1_555 1_555
Co2 N5 1_555 1_555
N4 C20 1_555 1_555
N5 C27 1_555 1_555
O3 Co2 1_555 1_555
O4 C24 1_555 1_555
C18 C21 1_555 1_555
O5 C4 1_555 1_555
C19 C22 1_555 1_555
C20 C25 1_555 1_555
C21 C4 1_555 1_555
C22 C18 1_555 1_555
C23 N4 1_555 1_555
O6 C23 1_555 1_555
C24 C17 1_555 1_555
C25 H11 1_555 1_555
C26 C19 1_555 1_555
H12 C26 1_555 1_555
C27 C25 1_555 1_555
H13 C27 1_555 1_555
C28 C21 1_555 1_555
H14 C28 1_555 1_555
H15 N3 1_555 1_555
C1F N1 1_555 1_555
H1F C1F 1_555 1_555
C2F C3 1_555 1_555
H2F C2F 1_555 1_555
C4F N2 1_555 1_555
O5F C4F 1_555 1_555
C19F C22 1_555 1_555
C21F C18 1_555 1_555
C23F N4 1_555 1_555
O6F C23F 1_555 1_555
C25F C20 1_555 1_555
H11F C25F 1_555 1_555
C26F C19F 1_555 1_555
H12F C26F 1_555 1_555
C27F N5 1_555 1_555
H13F C27F 1_555 1_555
C28F C21F 1_555 1_555
H14F C28F 1_555 1_555
O1F C5F 1_555 1_555
O2F C5F 1_555 1_555
C5F C8F 1_555 1_555
C6F H3F 1_555 1_555
C7F C6F 1_555 1_555
H4F C7F 1_555 1_555
C8F C7F 1_555 1_555
C9F C8F 1_555 1_555
H5F C9F 1_555 1_555
C10F C9F 1_555 1_555
H6F C10F 1_555 1_555
C11F C6F 1_555 1_555
N3F C11F 1_555 1_555
C12F N3F 1_555 1_555
C13F C12F 1_555 1_555
H7F C13F 1_555 1_555
C14F C12F 1_555 1_555
H8F C14F 1_555 1_555
C15F C14F 1_555 1_555
H9F C15F 1_555 1_555
C16F C13F 1_555 1_555
H10F C16F 1_555 1_555
C17F C15F 1_555 1_555
O3F Co2 1_555 1_555
O4F Co1 1_555 1_555
C24F C17F 1_555 1_555
H15F N3F 1_555 1_555
N1_2 Co1 1_555 1_555
O1C Co1 1_555 1_555
O1D Co1 1_555 1_555
O2C Co2 1_555 1_555
O2D Co2 1_555 1_555
Co1_2 N1 1_555 1_555
Co1B O1 1_555 1_555
Co1C O1F 1_555 1_555
Co2B O2 1_555 1_555
Co2C O2F 1_555 1_555
C10 C11 1_555 1_555
C16 C17 1_555 1_555
O3 C24 1_555 1_555
C19 C23 1_555 1_555
C26 C28 1_555 1_555
C1F C2F 1_555 1_555
C4F C21F 1_555 1_555
C19F C23F 1_555 1_555
C25F C27F 1_555 1_555
C26F C28F 1_555 1_555
C10F C11F 1_555 1_555
C16F C17F 1_555 1_555
O3F C24F 1_555 1_555
O4F C24F 1_555 1_555

#END
