
#######################################################################
#
#                 Cambridge Crystallographic Data Centre
#                                CCDC 
#
#######################################################################
#
# If this CIF has been generated from an entry in the Cambridge 
# Structural Database, then it will include bibliographic, chemical, 
# crystal, experimental, refinement or atomic coordinate data resulting 
# from the CCDC's data processing and validation procedures.
#
#######################################################################

data_WIGCOG
_symmetry_cell_setting           monoclinic
_symmetry_space_group_name_H-M   'P 21/c'
_symmetry_Int_Tables_number      14
_space_group_name_Hall           '-P 2ybc'
loop_
_symmetry_equiv_pos_site_id
_symmetry_equiv_pos_as_xyz
1 x,y,z
2 -x,1/2+y,1/2-z
3 -x,-y,-z
4 x,1/2-y,1/2+z
_cell_length_a                   16.060(2)
_cell_length_b                   15.2142(19)
_cell_length_c                   17.819(2)
_cell_angle_alpha                90
_cell_angle_beta                 100.199(2)
_cell_angle_gamma                90
_cell_volume                     4285.1
loop_
_atom_site_label
_atom_site_type_symbol
_atom_site_fract_x
_atom_site_fract_y
_atom_site_fract_z
Cd1 Cd 0.228096(19) 0.57390(2) 0.080844(18)
Cd2 Cd 0.21744(2) 0.33708(2) -0.062701(19)
C1 C 0.2008(3) 0.7705(3) 0.1099(2)
C2 C 0.2027(3) 0.7682(3) 0.0268(3)
C3 C 0.2002(3) 0.8402(3) 0.1583(2)
C4 C 0.2036(3) 0.9368(3) 0.1477(3)
C5 C 0.1987(3) 0.7161(3) 0.2217(3)
C6 C 0.1998(3) 0.6530(3) 0.2860(3)
H1 H 0.1603 0.6042 0.2686
H2 H 0.1789 0.6834 0.3281
C7 C 0.2868(3) 0.6148(4) 0.3164(3)
H3 H 0.2805 0.5656 0.3514
H4 H 0.3107 0.5905 0.2732
C8 C 0.3473(4) 0.6796(5) 0.3576(4)
H5 H 0.3539 0.7287 0.3235
H6 H 0.4022 0.6513 0.3744
H7 H 0.3256 0.7017 0.4021
C9 C 0.4060(3) 0.4993(3) 0.0772(2)
C10 C 0.3501(3) 0.4313(3) 0.0355(2)
C11 C 0.4920(3) 0.5023(3) 0.0959(2)
C12 C 0.5605(3) 0.4393(3) 0.0914(3)
C13 C 0.4376(3) 0.6268(3) 0.1287(3)
C14 C 0.4316(3) 0.7171(4) 0.1600(4)
H8 H 0.3749 0.7249 0.1736
H9 H 0.4741 0.7233 0.2072
C15 C 0.4455(5) 0.7865(4) 0.1059(5)
H10 H 0.4013 0.7833 0.0596
H11 H 0.5013 0.7786 0.0907
C16 C 0.4416(6) 0.8785(5) 0.1461(6)
H12 H 0.3878 0.8840 0.1644
H13 H 0.4461 0.9256 0.1096
H14 H 0.4885 0.8831 0.1894
C17 C 0.1271(3) 0.2595(3) 0.0662(2)
C18 C 0.0664(3) 0.3260(3) 0.0280(3)
C19 C 0.1209(3) 0.2029(3) 0.1244(3)
C20 C 0.0576(3) 0.1879(3) 0.1746(3)
C21 C 0.2426(3) 0.1828(3) 0.0845(3)
C22 C 0.2369(3) 0.2095(3) -0.1963(2)
C23 C 0.3155(3) 0.2617(3) -0.1893(3)
C24 C 0.2082(3) 0.1411(3) -0.2443(3)
C25 C 0.2468(3) 0.0911(3) -0.3006(3)
C26 C 0.1125(3) 0.1756(3) -0.1750(3)
C27 C 0.0324(3) 0.1725(3) -0.1432(3)
H15 H -0.0149 0.1568 -0.1846
H16 H 0.0208 0.2318 -0.1245
C28 C 0.0354(4) 0.1066(4) -0.0780(3)
H17 H 0.0836 0.1219 -0.0374
H18 H -0.0170 0.1130 -0.0564
C29 C 0.0439(5) 0.0141(4) -0.0993(4)
H19 H -0.0036 -0.0021 -0.1394
H20 H 0.0437 -0.0233 -0.0545
H21 H 0.0971 0.0061 -0.1180
N1 N 0.2008(2) 0.6933(2) 0.1499(2)
N2 N 0.1987(2) 0.8043(2) 0.2288(2)
H22 H 0.1979 0.8337 0.2712
N3 N 0.3722(2) 0.5768(2) 0.0979(2)
N4 N 0.5106(2) 0.5836(3) 0.1276(2)
H23 H 0.5617 0.6042 0.1444
N5 N 0.2026(2) 0.2472(2) 0.0414(2)
N6 N 0.1946(2) 0.1551(2) 0.1351(2)
H24 H 0.2084 0.1133 0.1692
N7 N 0.1773(2) 0.2295(2) -0.1521(2)
N8 N 0.1297(2) 0.1210(2) -0.2298(2)
H25 H 0.0960 0.0795 -0.2524
O1 O 0.2103(2) 0.6944(2) -0.00199(17)
O2 O 0.1978(2) 0.8398(2) -0.00977(18)
O3 O 0.2009(3) 0.9644(2) 0.07834(18)
H26 H 0.1919 0.9217 0.0481
O4 O 0.2091(2) 0.9865(2) 0.20195(18)
O5 O 0.27250(18) 0.45104(19) 0.01494(17)
O6 O 0.38069(19) 0.3591(2) 0.02040(18)
O7 O 0.5396(2) 0.3618(2) 0.0616(2)
H27 H 0.4869 0.3593 0.0476
O8 O 0.6336(2) 0.4602(2) 0.1152(2)
O9 O 0.08635(19) 0.3683(2) -0.02643(18)
O10 O -0.0027(2) 0.3352(2) 0.0516(2)
O11 O -0.0115(2) 0.2351(2) 0.1620(2)
H28 H -0.0110 0.2677 0.1240
O12 O 0.0706(2) 0.1339(2) 0.22534(18)
O13 O 0.3269(2) 0.3224(2) -0.14119(19)
O14 O 0.3676(2) 0.2429(2) -0.23334(19)
O15 O 0.3198(2) 0.1145(2) -0.31212(19)
H29 H 0.3369 0.1575 -0.2840
O16 O 0.20592(19) 0.0282(2) -0.33252(18)
O17 O 0.0956(2) 0.5377(2) 0.0264(2)
O18 O 0.1608(3) 0.4442(3) -0.1476(2)
H30 H 0.152(4) 0.425(3) -0.190(3)
H31 H 0.097(4) 0.489(3) 0.000(3)
H32 H 0.178(3) 0.494(3) -0.140(3)
H33 H 0.071(4) 0.576(3) -0.001(3)
C30 C 0.3276(3) 0.1462(3) 0.0810(3)
H34 H 0.3385 0.0938 0.1142
H35 H 0.3718 0.1905 0.0990
C31 C 0.3304(6) 0.1207(8) -0.0025(5)
H36 H 0.2812 0.0827 -0.0218
H37 H 0.3252 0.1746 -0.0341
C32 C 0.4117(8) 0.0724(9) -0.0115(8)
H38 H 0.4608 0.1064 0.0132
H39 H 0.4138 0.0655 -0.0658
H40 H 0.4125 0.0143 0.0125
Cd1C Cd 0.228096(19) -0.07390(2) -0.419156(18)
O16C O 0.20592(19) 0.4718(2) 0.16748(18)
O19 O 0.78382(19) 0.3843(2) 0.13435(16)
O20 O 0.0285(2) 0.5050(3) 0.1843(2)
C33? C 0.3276(3) 0.1462(3) 0.0810(3)
H41? H 0.3268 0.0851 0.1001
H42? H 0.3676 0.1789 0.1198
C34? C 0.3693(10) 0.1413(10) 0.0119(7)
H43? H 0.4294 0.1235 0.0257
H44? H 0.3657 0.1981 -0.0155
C35? C 0.3160(9) 0.0700(10) -0.0356(9)
H45? H 0.3233 0.0139 -0.0082
H46? H 0.3345 0.0638 -0.0849
H47? H 0.2562 0.0870 -0.0441
loop_
_geom_bond_atom_site_label_1
_geom_bond_atom_site_label_2
_geom_bond_site_symmetry_1
_geom_bond_site_symmetry_2
Cd1 N1 1_555 1_555
Cd2 N5 1_555 1_555
C1 C2 1_555 1_555
C2 O1 1_555 1_555
C3 C1 1_555 1_555
C4 C3 1_555 1_555
C5 C6 1_555 1_555
C6 H1 1_555 1_555
H2 C6 1_555 1_555
C7 C6 1_555 1_555
H3 C7 1_555 1_555
H4 C7 1_555 1_555
C8 C7 1_555 1_555
H5 C8 1_555 1_555
H6 C8 1_555 1_555
H7 C8 1_555 1_555
C9 C10 1_555 1_555
C10 O5 1_555 1_555
C11 C9 1_555 1_555
C12 C11 1_555 1_555
C13 C14 1_555 1_555
C14 H8 1_555 1_555
H9 C14 1_555 1_555
C15 C14 1_555 1_555
H10 C15 1_555 1_555
H11 C15 1_555 1_555
C16 C15 1_555 1_555
H12 C16 1_555 1_555
H13 C16 1_555 1_555
H14 C16 1_555 1_555
C17 C18 1_555 1_555
C18 O9 1_555 1_555
C19 C17 1_555 1_555
C20 C19 1_555 1_555
C21 N5 1_555 1_555
C22 C23 1_555 1_555
C23 O13 1_555 1_555
C24 C22 1_555 1_555
C25 C24 1_555 1_555
C26 C27 1_555 1_555
C27 H15 1_555 1_555
H16 C27 1_555 1_555
C28 C27 1_555 1_555
H17 C28 1_555 1_555
H18 C28 1_555 1_555
C29 C28 1_555 1_555
H19 C29 1_555 1_555
H20 C29 1_555 1_555
H21 C29 1_555 1_555
N1 C1 1_555 1_555
N2 C3 1_555 1_555
H22 N2 1_555 1_555
N3 Cd1 1_555 1_555
N4 C11 1_555 1_555
H23 N4 1_555 1_555
N5 C17 1_555 1_555
N6 C19 1_555 1_555
H24 N6 1_555 1_555
N7 Cd2 1_555 1_555
N8 C24 1_555 1_555
H25 N8 1_555 1_555
O1 Cd1 1_555 1_555
O2 C2 1_555 1_555
O3 C4 1_555 1_555
H26 O3 1_555 1_555
O4 C4 1_555 1_555
O5 Cd1 1_555 1_555
O6 Cd2 1_555 1_555
O7 C12 1_555 1_555
H27 O7 1_555 1_555
O8 C12 1_555 1_555
O9 Cd2 1_555 1_555
O10 C18 1_555 1_555
O11 C20 1_555 1_555
H28 O11 1_555 1_555
O12 C20 1_555 1_555
O13 Cd2 1_555 1_555
O14 C23 1_555 1_555
O15 C25 1_555 1_555
H29 O15 1_555 1_555
O16 C25 1_555 1_555
O17 Cd1 1_555 1_555
O18 Cd2 1_555 1_555
H30 O18 1_555 1_555
H31 O17 1_555 1_555
H32 O18 1_555 1_555
H33 O17 1_555 1_555
C30 C21 1_555 1_555
H34 C30 1_555 1_555
H35 C30 1_555 1_555
C31 C30 1_555 1_555
H36 C31 1_555 1_555
H37 C31 1_555 1_555
C32 C31 1_555 1_555
H38 C32 1_555 1_555
H39 C32 1_555 1_555
H40 C32 1_555 1_555
Cd1C O16 1_555 1_555
O16C Cd1 1_555 1_555
Cd2 O5 1_555 1_555
C5 N1 1_555 1_555
C5 N2 1_555 1_555
C9 N3 1_555 1_555
C10 O6 1_555 1_555
C13 N3 1_555 1_555
C13 N4 1_555 1_555
C21 N6 1_555 1_555
C22 N7 1_555 1_555
C26 N7 1_555 1_555
C26 N8 1_555 1_555

#END
