
#######################################################################
#
#                 Cambridge Crystallographic Data Centre
#                                CCDC 
#
#######################################################################
#
# If this CIF has been generated from an entry in the Cambridge 
# Structural Database, then it will include bibliographic, chemical, 
# crystal, experimental, refinement or atomic coordinate data resulting 
# from the CCDC's data processing and validation procedures.
#
#######################################################################

data_WIGDOG
_symmetry_cell_setting           monoclinic
_symmetry_space_group_name_H-M   'P 21'
_symmetry_Int_Tables_number      4
_space_group_name_Hall           'P 2yb'
loop_
_symmetry_equiv_pos_site_id
_symmetry_equiv_pos_as_xyz
1 x,y,z
2 -x,1/2+y,-z
_cell_length_a                   7.6429(15)
_cell_length_b                   20.753(4)
_cell_length_c                   8.1058(16)
_cell_angle_alpha                90
_cell_angle_beta                 112.06(3)
_cell_angle_gamma                90
_cell_volume                     1191.56
loop_
_atom_site_label
_atom_site_type_symbol
_atom_site_fract_x
_atom_site_fract_y
_atom_site_fract_z
Cu1 Cu 0.46522(14) 0.99060(6) 0.82745(13)
Cu2 Cu 0.82693(14) 0.87986(6) 0.45220(13)
Na1 Na 0.0334(6) 0.7814(2) 0.2143(5)
K1 K 0.5005(5) 0.70347(16) 0.2178(4)
O1 O 0.3540(9) 1.0402(3) 0.6150(7)
O2 O 0.2516(11) 1.0493(4) 0.3215(9)
O3 O 0.4250(9) 0.9115(3) 0.6042(8)
O4 O 0.6416(8) 0.9504(3) 0.4150(7)
O5 O 0.6019(9) 0.8284(3) 0.3387(9)
O6 O 0.2943(9) 0.8334(4) 0.1873(10)
O7 O 0.6100(9) 0.9374(3) 1.0316(8)
O8 O 0.8895(8) 0.8962(3) 1.1962(7)
O9 O 0.7285(8) 0.9988(3) 0.8179(8)
O10 O 0.8107(8) 0.8718(3) 0.7503(8)
O11 O 1.0383(9) 0.9328(3) 0.6052(7)
O12 O 1.2288(9) 0.9706(3) 0.8725(8)
O13 O 0.9899(9) 0.8035(3) 0.4800(9)
O14 O 0.9392(9) 0.7557(3) 0.7066(9)
O15 O 1.2339(10) 0.7177(3) 0.4651(9)
O16 O 0.8624(10) 0.6511(4) 0.3878(10)
O17 O 1.2762(10) 0.5648(3) 0.6380(9)
O18 O 1.1175(10) 0.5705(4) 0.3481(8)
O19 O 0.5150(11) 1.0881(4) 0.9975(10)
O20 O 0.6018(11) 0.6802(4) 0.6166(11)
O21 O 0.1236(11) 0.7005(4) 0.0355(10)
O24 O -0.2764(12) 0.7483(5) 0.0143(11)
C1 C 0.3135(13) 1.0173(5) 0.4588(13)
C2 C 0.3366(13) 0.9438(5) 0.4382(11)
H1 H 0.2101 0.9254 0.3798
C3 C 0.4479(12) 0.9305(5) 0.3188(12)
H2 H 0.3939 0.9555 0.2086
C4 C 0.4434(13) 0.8589(4) 0.2740(12)
C5 C 0.7836(13) 0.9283(5) 1.0669(11)
C6 C 0.8733(12) 0.9633(5) 0.9488(10)
H3 H 0.9720 0.9928 1.0222
C7 C 0.9610(12) 0.9120(5) 0.8647(11)
H4 H 1.0437 0.8848 0.9614
C8 C 1.0815(13) 0.9405(4) 0.7672(12)
C9 C 1.0143(12) 0.7591(4) 0.5891(11)
C10 C 1.1449(12) 0.7029(5) 0.5889(12)
H5 H 1.2420 0.6980 0.7084
C11 C 1.0320(13) 0.6418(5) 0.5370(11)
H6 H 0.9978 0.6289 0.6373
C12 C 1.1489(14) 0.5871(4) 0.5029(13)
Cu1_2 Cu 1.46522(14) 0.99060(6) 0.82745(13)
Cu2_2 Cu 0.82693(14) 0.87986(6) 1.45220(13)
Na1_2 Na 1.0334(6) 0.7814(2) 1.2143(5)
Na1_3 Na 1.0334(6) 0.7814(2) 0.2143(5)
K1_2 K 1.5005(5) 0.70347(16) 0.2178(4)
K1A K 0.4995(5) 1.20347(16) 0.7822(4)
K1_3 K -0.4995(5) 0.70347(16) 0.2178(4)
O8_2 O 0.8895(8) 0.8962(3) 0.1962(7)
O8_3 O -0.1105(8) 0.8962(3) 0.1962(7)
O12_2 O 0.2288(9) 0.9706(3) 0.8725(8)
O13_2 O -0.0101(9) 0.8035(3) 0.4800(9)
O15_2 O 0.2339(10) 0.7177(3) 0.4651(9)
O19A O 0.4850(11) 0.5881(4) 0.0025(10)
O24_2 O 0.7236(12) 0.7483(5) 0.0143(11)
O22 O 0.3827(12) 0.8143(4) 0.8482(11)
O23 O 0.1527(11) 1.1073(4) 0.9886(10)
loop_
_geom_bond_atom_site_label_1
_geom_bond_atom_site_label_2
_geom_bond_site_symmetry_1
_geom_bond_site_symmetry_2
Cu1 O1 1_555 1_555
Cu2 O4 1_555 1_555
Na1 O6 1_555 1_555
K1 O5 1_555 1_555
O1 C1 1_555 1_555
O2 C1 1_555 1_555
O3 Cu1 1_555 1_555
O4 C3 1_555 1_555
O5 Cu2 1_555 1_555
O6 K1 1_555 1_555
O7 Cu1 1_555 1_555
O8 C5 1_555 1_555
O9 Cu1 1_555 1_555
O10 C7 1_555 1_555
O11 Cu2 1_555 1_555
O12 C8 1_555 1_555
O13 Cu2 1_555 1_555
O14 C9 1_555 1_555
O15 C10 1_555 1_555
O16 K1 1_555 1_555
O17 C12 1_555 1_555
O18 C12 1_555 1_555
O19 Cu1 1_555 1_555
O20 K1 1_555 1_555
O21 Na1 1_555 1_555
O24 Na1 1_555 1_555
C1 C2 1_555 1_555
C2 O3 1_555 1_555
H1 C2 1_555 1_555
C3 C2 1_555 1_555
H2 C3 1_555 1_555
C4 O5 1_555 1_555
C5 O7 1_555 1_555
C6 O9 1_555 1_555
H3 C6 1_555 1_555
C7 C6 1_555 1_555
H4 C7 1_555 1_555
C8 O11 1_555 1_555
C9 O13 1_555 1_555
C10 C9 1_555 1_555
H5 C10 1_555 1_555
C11 O16 1_555 1_555
H6 C11 1_555 1_555
C12 C11 1_555 1_555
Cu1_2 O12 1_555 1_555
Cu2_2 O8 1_555 1_555
Na1_2 O8 1_555 1_555
Na1_3 O13 1_555 1_555
K1_2 O15 1_555 1_555
K1A O19 1_555 1_555
K1_3 O24 1_555 1_555
O8_2 Cu2 1_555 1_555
O8_3 Na1 1_555 1_555
O12_2 Cu1 1_555 1_555
O13_2 Na1 1_555 1_555
O15_2 Na1 1_555 1_555
O19A K1 1_555 1_555
O24_2 K1 1_555 1_555
K1 O21 1_555 1_555
K1 O15_2 1_555 1_555
O6 C4 1_555 1_555
O15 Na1_3 1_555 1_555
C3 C4 1_555 1_555
C5 C6 1_555 1_555
C7 C8 1_555 1_555
C10 C11 1_555 1_555
Na1_3 O8_2 1_555 1_555
Na1_3 O24_2 1_555 1_555

#END
