
#######################################################################
#
#                 Cambridge Crystallographic Data Centre
#                                CCDC 
#
#######################################################################
#
# If this CIF has been generated from an entry in the Cambridge 
# Structural Database, then it will include bibliographic, chemical, 
# crystal, experimental, refinement or atomic coordinate data resulting 
# from the CCDC's data processing and validation procedures.
#
#######################################################################

data_WIGGOI
_symmetry_cell_setting           triclinic
_symmetry_space_group_name_H-M   'P -1'
_symmetry_Int_Tables_number      2
_space_group_name_Hall           '-P 1'
loop_
_symmetry_equiv_pos_site_id
_symmetry_equiv_pos_as_xyz
1 x,y,z
2 -x,-y,-z
_cell_length_a                   7.499(3)
_cell_length_b                   10.385(4)
_cell_length_c                   11.430(4)
_cell_angle_alpha                111.44(3)
_cell_angle_beta                 106.30(3)
_cell_angle_gamma                94.62(3)
_cell_volume                     778.348
loop_
_atom_site_label
_atom_site_type_symbol
_atom_site_fract_x
_atom_site_fract_y
_atom_site_fract_z
Cu1 Cu 0.0649(1) 0.1992(1) 0.0674(1)
Na1 Na -0.1242(2) 0.5419(2) 0.3471(1)
O1 O -0.0684(5) 0.7927(3) 0.4383(3)
O2 O -0.0309(5) 0.5793(3) 0.1788(3)
N1 N -0.7663(4) 0.4078(3) 0.0727(3)
N2 N -0.6086(4) 0.4466(3) 0.1467(3)
N3 N -0.4541(5) 0.4828(4) 0.2194(4)
O3 O 0.1122(4) 0.0713(3) -0.0899(3)
O4 O 0.0196(4) 0.0129(3) -0.3088(3)
C1 C -0.0014(5) 0.0650(4) -0.1997(4)
N4 N -0.1743(4) 0.1911(3) -0.0636(3)
C2 C -0.3235(5) 0.2475(4) -0.0424(4)
C3 C -0.4786(6) 0.2393(4) -0.1472(5)
C4 C -0.4767(6) 0.1753(5) -0.2760(5)
C5 C -0.3223(6) 0.1174(4) -0.2980(4)
C6 C -0.1749(5) 0.1269(4) -0.1893(4)
O5 O -0.0006(3) 0.3025(3) 0.2242(3)
O6 O 0.1363(4) 0.4269(3) 0.4408(3)
C7 C 0.1357(5) 0.3402(4) 0.3337(3)
N5 N 0.2958(4) 0.1951(3) 0.1999(3)
C8 C 0.4445(5) 0.1400(4) 0.1791(4)
C9 C 0.6075(5) 0.1612(4) 0.2837(5)
C10 C 0.6173(6) 0.2406(4) 0.4117(5)
C11 C 0.4631(5) 0.3012(4) 0.4334(4)
C12 C 0.3069(5) 0.2757(3) 0.3251(4)
H1 H -0.323 0.301 0.059
H2 H -0.599 0.283 -0.128
H3 H -0.595 0.170 -0.359
H4 H -0.318 0.066 -0.398
H5 H 0.439 0.078 0.078
H6 H 0.726 0.115 0.264
H7 H 0.742 0.256 0.495
H8 H 0.468 0.366 0.533
H9 H -0.048(8) 0.852(5) 0.398(5)
H10 H -0.057(8) 0.860(5) 0.520(3)
H11 H -0.116(6) 0.589(6) 0.107(4)
H12 H 0.068(6) 0.544(6) 0.152(6)
Cu1_2 Cu -0.9351(1) 0.1992(1) 0.0674(1)
N1_2 N 0.2337(4) 0.4078(3) 0.0727(3)
O6A O -0.1363(4) 0.5731(3) 0.5592(3)
Na1A Na 0.1242(2) 0.4581(2) 0.6529(1)
loop_
_geom_bond_atom_site_label_1
_geom_bond_atom_site_label_2
_geom_bond_site_symmetry_1
_geom_bond_site_symmetry_2
Cu1 O3 1_555 1_555
Na1 O1 1_555 1_555
O1 H9 1_555 1_555
O2 Na1 1_555 1_555
N1 N2 1_555 1_555
N2 N3 1_555 1_555
N3 Na1 1_555 1_555
O3 C1 1_555 1_555
O4 C1 1_555 1_555
C1 C6 1_555 1_555
N4 Cu1 1_555 1_555
C2 N4 1_555 1_555
C3 C2 1_555 1_555
C4 C3 1_555 1_555
C5 C4 1_555 1_555
C6 N4 1_555 1_555
O5 Cu1 1_555 1_555
O6 Na1 1_555 1_555
C7 O5 1_555 1_555
N5 Cu1 1_555 1_555
C8 N5 1_555 1_555
C9 C8 1_555 1_555
C10 C9 1_555 1_555
C11 C10 1_555 1_555
C12 C7 1_555 1_555
H1 C2 1_555 1_555
H2 C3 1_555 1_555
H3 C4 1_555 1_555
H4 C5 1_555 1_555
H5 C8 1_555 1_555
H6 C9 1_555 1_555
H7 C10 1_555 1_555
H8 C11 1_555 1_555
H10 O1 1_555 1_555
H11 O2 1_555 1_555
H12 O2 1_555 1_555
Cu1_2 N1 1_555 1_555
N1_2 Cu1 1_555 1_555
O6A Na1 1_555 1_555
Na1A O6 1_555 1_555
Na1 O5 1_555 1_555
C5 C6 1_555 1_555
O6 C7 1_555 1_555
N5 C12 1_555 1_555
C11 C12 1_555 1_555
O6A Na1A 1_555 1_555

#END
