
#######################################################################
#
#                 Cambridge Crystallographic Data Centre
#                                CCDC 
#
#######################################################################
#
# If this CIF has been generated from an entry in the Cambridge 
# Structural Database, then it will include bibliographic, chemical, 
# crystal, experimental, refinement or atomic coordinate data resulting 
# from the CCDC's data processing and validation procedures.
#
#######################################################################

data_WIGHUQ
_symmetry_cell_setting           monoclinic
_symmetry_space_group_name_H-M   'P 21/n'
_symmetry_Int_Tables_number      14
_space_group_name_Hall           '-P 2yn'
loop_
_symmetry_equiv_pos_site_id
_symmetry_equiv_pos_as_xyz
1 x,y,z
2 1/2-x,1/2+y,1/2-z
3 -x,-y,-z
4 1/2+x,1/2-y,1/2+z
_cell_length_a                   9.2800(2)
_cell_length_b                   9.4132(2)
_cell_length_c                   14.9675(3)
_cell_angle_alpha                90
_cell_angle_beta                 99.630(1)
_cell_angle_gamma                90
_cell_volume                     1289.05
loop_
_atom_site_label
_atom_site_type_symbol
_atom_site_fract_x
_atom_site_fract_y
_atom_site_fract_z
Mn1 Mn 0.0000 0.0000 0.0000
Mn2 Mn 0.19973(3) 0.07377(3) 0.208595(16)
O1 O 0.14524(12) 0.16472(12) -0.02529(7)
O2 O 0.27911(13) 0.21356(13) 0.11012(8)
O3 O 0.17803(12) -0.09183(11) 0.09965(7)
O4 O 0.27888(13) -0.25190(12) 0.19868(8)
O5 O -0.02176(12) 0.10724(12) 0.12875(7)
O6 O -0.12048(14) 0.25958(14) 0.21598(9)
O7 O 0.08791(15) -0.05328(13) 0.29658(9)
H1 H 0.017(3) -0.101(3) 0.2697(18)
H2 H 0.139(3) -0.109(3) 0.3285(18)
O8 O 0.42568(15) 0.01783(18) 0.26573(10)
H3 H 0.458(3) -0.058(3) 0.2663(17)
H4 H 0.490(3) 0.080(3) 0.2703(18)
C1 C 0.25157(18) 0.22088(17) 0.02520(11)
C2 C 0.3531(2) 0.30072(19) -0.02079(12)
C3 C 0.4304(2) 0.3606(2) -0.06316(14)
H7 H 0.4921 0.4084 -0.0970
C4 C 0.21471(17) -0.21902(17) 0.12210(11)
C5 C 0.1785(2) -0.32682(19) 0.05204(12)
C6 C 0.1487(3) -0.4103(2) -0.00655(15)
H8 H 0.1248 -0.4771 -0.0534
C7 C -0.12979(18) 0.16343(19) 0.15948(11)
C8 C -0.2741(2) 0.1035(2) 0.12487(12)
C9 C -0.3909(2) 0.0539(3) 0.10285(15)
H9 H -0.4843 0.0142 0.0852
Mn2B Mn -0.19973(3) -0.07377(3) -0.208595(16)
Mn2A Mn 0.30027(3) -0.42623(3) 0.291405(16)
Mn2C Mn -0.30027(3) 0.42623(3) -0.291405(16)
O1B O -0.14524(12) -0.16472(12) 0.02529(7)
O2B O -0.27911(13) -0.21356(13) -0.11012(8)
O3B O -0.17803(12) 0.09183(11) -0.09965(7)
O4B O -0.27888(13) 0.25190(12) -0.19868(8)
O4A O 0.22112(13) 0.24810(12) 0.30132(8)
O4C O -0.22112(13) -0.24810(12) -0.30132(8)
O5B O 0.02176(12) -0.10724(12) -0.12875(7)
O6B O 0.12048(14) -0.25958(14) -0.21598(9)
O7B O -0.08791(15) 0.05328(13) -0.29658(9)
H1B H -0.017(3) 0.101(3) -0.2697(18)
H2B H -0.139(3) 0.109(3) -0.3285(18)
O8B O -0.42568(15) -0.01783(18) -0.26573(10)
H3B H -0.458(3) 0.058(3) -0.2663(17)
H4B H -0.490(3) -0.080(3) -0.2703(18)
C1B C -0.25157(18) -0.22088(17) -0.02520(11)
C2B C -0.3531(2) -0.30072(19) 0.02079(12)
C3B C -0.4304(2) -0.3606(2) 0.06316(14)
H7B H -0.4921 -0.4084 0.0970
C4B C -0.21471(17) 0.21902(17) -0.12210(11)
C5B C -0.1785(2) 0.32682(19) -0.05204(12)
C6B C -0.1487(3) 0.4103(2) 0.00655(15)
H8B H -0.1248 0.4771 0.0534
C7B C 0.12979(18) -0.16343(19) -0.15948(11)
C8B C 0.2741(2) -0.1035(2) -0.12487(12)
C9B C 0.3909(2) -0.0539(3) -0.10285(15)
H9B H 0.4843 -0.0142 -0.0852
O9 O 0.11291(16) 0.23683(15) -0.20892(10)
H5 H 0.130(2) 0.213(2) -0.1571(18)
H6 H 0.191(3) 0.233(3) -0.2286(17)
loop_
_geom_bond_atom_site_label_1
_geom_bond_atom_site_label_2
_geom_bond_site_symmetry_1
_geom_bond_site_symmetry_2
Mn1 O1 1_555 1_555
Mn2 O2 1_555 1_555
O1 C1 1_555 1_555
O2 C1 1_555 1_555
O3 Mn1 1_555 1_555
O4 C4 1_555 1_555
O5 Mn1 1_555 1_555
O6 C7 1_555 1_555
O7 Mn2 1_555 1_555
H1 O7 1_555 1_555
H2 O7 1_555 1_555
O8 Mn2 1_555 1_555
H3 O8 1_555 1_555
H4 O8 1_555 1_555
O9 H5 1_555 1_555
H6 O9 1_555 1_555
C1 C2 1_555 1_555
C2 C3 1_555 1_555
C3 H7 1_555 1_555
C4 O3 1_555 1_555
C5 C4 1_555 1_555
C6 C5 1_555 1_555
H8 C6 1_555 1_555
C7 O5 1_555 1_555
C8 C7 1_555 1_555
C9 C8 1_555 1_555
H9 C9 1_555 1_555
Mn2B O2B 1_555 1_555
Mn2A O4 1_555 1_555
Mn2C O4B 1_555 1_555
O1B Mn1 1_555 1_555
O2B C1B 1_555 1_555
O3B Mn1 1_555 1_555
O4B C4B 1_555 1_555
O4A Mn2 1_555 1_555
O4C Mn2B 1_555 1_555
O5B Mn1 1_555 1_555
O6B C7B 1_555 1_555
O7B Mn2B 1_555 1_555
H1B O7B 1_555 1_555
H2B O7B 1_555 1_555
O8B Mn2B 1_555 1_555
H3B O8B 1_555 1_555
H4B O8B 1_555 1_555
C1B O1B 1_555 1_555
C2B C1B 1_555 1_555
C3B C2B 1_555 1_555
H7B C3B 1_555 1_555
C4B O3B 1_555 1_555
C5B C4B 1_555 1_555
C6B C5B 1_555 1_555
H8B C6B 1_555 1_555
C7B O5B 1_555 1_555
C8B C7B 1_555 1_555
C9B C8B 1_555 1_555
H9B C9B 1_555 1_555
Mn2 O3 1_555 1_555
Mn2 O5 1_555 1_555
Mn2B O3B 1_555 1_555
Mn2B O5B 1_555 1_555

#END
