
#######################################################################
#
#                 Cambridge Crystallographic Data Centre
#                                CCDC 
#
#######################################################################
#
# If this CIF has been generated from an entry in the Cambridge 
# Structural Database, then it will include bibliographic, chemical, 
# crystal, experimental, refinement or atomic coordinate data resulting 
# from the CCDC's data processing and validation procedures.
#
#######################################################################

data_WIGMII
_symmetry_cell_setting           monoclinic
_symmetry_space_group_name_H-M   'P 21/c'
_symmetry_Int_Tables_number      14
_space_group_name_Hall           '-P 2ybc'
loop_
_symmetry_equiv_pos_site_id
_symmetry_equiv_pos_as_xyz
1 x,y,z
2 -x,1/2+y,1/2-z
3 -x,-y,-z
4 x,1/2-y,1/2+z
_cell_length_a                   5.662(1)
_cell_length_b                   12.514(2)
_cell_length_c                   7.848(3)
_cell_angle_alpha                90
_cell_angle_beta                 91.81(3)
_cell_angle_gamma                90
_cell_volume                     555.787
loop_
_atom_site_label
_atom_site_type_symbol
_atom_site_fract_x
_atom_site_fract_y
_atom_site_fract_z
Hg1 Hg 0.0000 0.0000 0.0000
N1 N -0.1286(8) -0.1588(4) 0.0206(5)
C1 C -0.3314(9) -0.1759(4) 0.1005(7)
C2 C -0.4628(10) -0.0798(4) 0.1712(7)
O1 O -0.6674(7) -0.0961(3) 0.2134(5)
C3 C -0.4096(10) -0.2792(4) 0.1255(7)
H1 H -0.5513(10) -0.2911(4) 0.1792(7)
C4 C -0.2771(11) -0.3652(4) 0.0705(8)
H2 H -0.3268(11) -0.4350(4) 0.0894(8)
C5 C -0.0731(12) -0.3458(6) -0.0118(8)
H3 H 0.0175(12) -0.4024(6) -0.0502(8)
O2 O -0.3506(9) 0.0078(3) 0.1792(6)
C6 C -0.0014(10) -0.2418(6) -0.0379(7)
H4 H 0.1359(10) -0.2286(6) -0.0964(7)
N1B N 0.1286(8) 0.1588(4) -0.0206(5)
O1B O -0.3326(7) 0.0961(3) -0.2134(5)
O2B O 0.3506(9) -0.0078(3) -0.1792(6)
O1_2 O 0.3326(7) -0.0961(3) 0.2134(5)
C1B C 0.3314(9) 0.1759(4) -0.1005(7)
C2B C 0.4628(10) 0.0798(4) -0.1712(7)
O1B_2 O 0.6674(7) 0.0961(3) -0.2134(5)
Hg1B Hg 1.0000 0.0000 0.0000
C3B C 0.4096(10) 0.2792(4) -0.1255(7)
H1B H 0.5513(10) 0.2911(4) -0.1792(7)
C4B C 0.2771(11) 0.3652(4) -0.0705(8)
H2B H 0.3268(11) 0.4350(4) -0.0894(8)
C5B C 0.0731(12) 0.3458(6) 0.0118(8)
H3B H -0.0175(12) 0.4024(6) 0.0502(8)
C6B C 0.0014(10) 0.2418(6) 0.0379(7)
H4B H -0.1359(10) 0.2286(6) 0.0964(7)
Hg1_2 Hg -1.0000 0.0000 0.0000
loop_
_geom_bond_atom_site_label_1
_geom_bond_atom_site_label_2
_geom_bond_site_symmetry_1
_geom_bond_site_symmetry_2
Hg1 N1 1_555 1_555
N1 C1 1_555 1_555
C1 C2 1_555 1_555
C2 O1 1_555 1_555
O1 Hg1_2 1_555 1_555
C3 C1 1_555 1_555
H1 C3 1_555 1_555
C4 C3 1_555 1_555
H2 C4 1_555 1_555
C5 C4 1_555 1_555
H3 C5 1_555 1_555
O2 Hg1 1_555 1_555
C6 N1 1_555 1_555
H4 C6 1_555 1_555
N1B Hg1 1_555 1_555
O1B Hg1 1_555 1_555
O2B Hg1 1_555 1_555
O1_2 Hg1 1_555 1_555
C1B N1B 1_555 1_555
C2B O2B 1_555 1_555
O1B_2 C2B 1_555 1_555
Hg1B O1B_2 1_555 1_555
C3B C1B 1_555 1_555
H1B C3B 1_555 1_555
C4B C3B 1_555 1_555
H2B C4B 1_555 1_555
C5B C4B 1_555 1_555
H3B C5B 1_555 1_555
C6B N1B 1_555 1_555
H4B C6B 1_555 1_555
C2 O2 1_555 1_555
C5 C6 1_555 1_555
C1B C2B 1_555 1_555
C5B C6B 1_555 1_555

#END
