
#######################################################################
#
#                 Cambridge Crystallographic Data Centre
#                                CCDC 
#
#######################################################################
#
# If this CIF has been generated from an entry in the Cambridge 
# Structural Database, then it will include bibliographic, chemical, 
# crystal, experimental, refinement or atomic coordinate data resulting 
# from the CCDC's data processing and validation procedures.
#
#######################################################################

data_WIGROU
_symmetry_cell_setting           triclinic
_symmetry_space_group_name_H-M   'P -1'
_symmetry_Int_Tables_number      2
_space_group_name_Hall           '-P 1'
loop_
_symmetry_equiv_pos_site_id
_symmetry_equiv_pos_as_xyz
1 x,y,z
2 -x,-y,-z
_cell_length_a                   7.4801(9)
_cell_length_b                   7.6352(9)
_cell_length_c                   8.6505(11)
_cell_angle_alpha                70.031(9)
_cell_angle_beta                 81.126(10)
_cell_angle_gamma                66.128(9)
_cell_volume                     424.547
loop_
_atom_site_label
_atom_site_type_symbol
_atom_site_fract_x
_atom_site_fract_y
_atom_site_fract_z
Cs1 Cs 0.5000 -0.5000 0.5000
O1 O 0.7652(2) -0.1628(2) 0.3351(2)
O2 O 0.54073(19) 0.3193(2) 0.2006(2)
O3 O 0.6315(3) -0.2774(3) 0.1162(2)
H1 H 0.719(5) -0.381(6) 0.118(4)
H2 H 0.659(5) -0.228(6) 0.147(4)
O4 O 1.0625(2) -0.3669(2) 0.4303(2)
O5 O 0.6999(2) 0.1627(3) 0.0154(2)
H3 H 0.589(5) 0.202(6) -0.020(5)
N1 N 1.1830(2) -0.0606(2) 0.34310(19)
N2 N 0.9390(2) 0.3245(2) 0.1696(2)
C1 C 1.2381(2) 0.0943(3) 0.3004(2)
H4 H 1.3639 0.0727 0.3275
C2 C 1.1156(3) 0.2872(3) 0.2169(3)
H5 H 1.1579 0.3942 0.1930
C3 C 0.8866(2) 0.1668(2) 0.20647(19)
C4 C 1.0056(2) -0.0248(2) 0.29693(19)
C5 C 0.6880(2) 0.2210(2) 0.1433(2)
C6 C 0.9360(2) -0.1975(3) 0.3563(2)
O1A O 0.2348(2) -0.8372(2) 0.6649(2)
O2A O 0.45927(19) -1.3193(2) 0.7994(2)
O4A O -0.0625(2) -0.6331(2) 0.5697(2)
O5A O 0.3001(2) -1.1627(3) 0.9846(2)
H3A H 0.411(5) -1.202(6) 1.020(5)
N1A N -0.1830(2) -0.9394(2) 0.65690(19)
N2A N 0.0610(2) -1.3245(2) 0.8304(2)
C1A C -0.2381(2) -1.0943(3) 0.6996(2)
H4A H -0.3639 -1.0727 0.6725
C2A C -0.1156(3) -1.2872(3) 0.7831(3)
H5A H -0.1579 -1.3942 0.8070
C3A C 0.1134(2) -1.1668(2) 0.79353(19)
C4A C -0.0056(2) -0.9752(2) 0.70307(19)
C5A C 0.3120(2) -1.2210(2) 0.8567(2)
C6A C 0.0640(2) -0.8025(3) 0.6437(2)
O3A O 0.3685(3) -0.7226(3) 0.8838(2)
H1A H 0.281(5) -0.619(6) 0.882(4)
H2A H 0.341(5) -0.772(6) 0.853(4)
O2_2 O 0.54073(19) -0.6807(2) 0.2006(2)
O2A_2 O 0.45927(19) -0.3193(2) 0.7994(2)
O4_2 O 0.0625(2) -0.3669(2) 0.4303(2)
O4A_2 O 0.9375(2) -0.6331(2) 0.5697(2)
N1_2 N 0.1830(2) -0.0606(2) 0.34310(19)
N1A_2 N 0.8170(2) -0.9394(2) 0.65690(19)
Cs1_2 Cs 0.5000 0.5000 0.5000
Cs1_3 Cs 1.5000 -0.5000 0.5000
Cs1_4 Cs 0.5000 -1.5000 0.5000
Cs1_5 Cs -0.5000 -0.5000 0.5000
loop_
_geom_bond_atom_site_label_1
_geom_bond_atom_site_label_2
_geom_bond_site_symmetry_1
_geom_bond_site_symmetry_2
Cs1 O1 1_555 1_555
O1 C6 1_555 1_555
O2 C5 1_555 1_555
O3 Cs1 1_555 1_555
H1 O3 1_555 1_555
H2 O3 1_555 1_555
O4 C6 1_555 1_555
O5 H3 1_555 1_555
N1 C1 1_555 1_555
N2 C2 1_555 1_555
C1 H4 1_555 1_555
C2 C1 1_555 1_555
H5 C2 1_555 1_555
C3 N2 1_555 1_555
C4 N1 1_555 1_555
C5 O5 1_555 1_555
C6 C4 1_555 1_555
O1A Cs1 1_555 1_555
O2A C5A 1_555 1_555
O4A C6A 1_555 1_555
O5A H3A 1_555 1_555
N1A C1A 1_555 1_555
N2A C2A 1_555 1_555
C1A H4A 1_555 1_555
C2A C1A 1_555 1_555
H5A C2A 1_555 1_555
C3A N2A 1_555 1_555
C4A N1A 1_555 1_555
C5A O5A 1_555 1_555
C6A O1A 1_555 1_555
O3A Cs1 1_555 1_555
H1A O3A 1_555 1_555
H2A O3A 1_555 1_555
O2_2 Cs1 1_555 1_555
O2A_2 Cs1 1_555 1_555
O4_2 Cs1 1_555 1_555
O4A_2 Cs1 1_555 1_555
N1_2 Cs1 1_555 1_555
N1A_2 Cs1 1_555 1_555
Cs1_2 O2 1_555 1_555
Cs1_3 O4 1_555 1_555
Cs1_4 O2A 1_555 1_555
Cs1_5 O4A 1_555 1_555
N1 Cs1_3 1_555 1_555
C3 C5 1_555 1_555
C3 C4 1_555 1_555
N1A Cs1_5 1_555 1_555
C3A C5A 1_555 1_555
C3A C4A 1_555 1_555
C4A C6A 1_555 1_555

#END
