
#######################################################################
#
#                 Cambridge Crystallographic Data Centre
#                                CCDC 
#
#######################################################################
#
# If this CIF has been generated from an entry in the Cambridge 
# Structural Database, then it will include bibliographic, chemical, 
# crystal, experimental, refinement or atomic coordinate data resulting 
# from the CCDC's data processing and validation procedures.
#
#######################################################################

data_WIGSAH
_symmetry_cell_setting           monoclinic
_symmetry_space_group_name_H-M   'P c'
_symmetry_Int_Tables_number      7
_space_group_name_Hall           'P -2yc'
loop_
_symmetry_equiv_pos_site_id
_symmetry_equiv_pos_as_xyz
1 x,y,z
2 x,-y,1/2+z
_cell_length_a                   7.6088(15)
_cell_length_b                   9.3094(19)
_cell_length_c                   12.270(4)
_cell_angle_alpha                90
_cell_angle_beta                 122.38(2)
_cell_angle_gamma                90
_cell_volume                     733.989
loop_
_atom_site_label
_atom_site_type_symbol
_atom_site_fract_x
_atom_site_fract_y
_atom_site_fract_z
Co1 Co 0.50834(8) 0.24293(4) 0.20068(6)
O1 O 0.4769(4) 0.0409(2) 0.2777(3)
O2 O 0.2656(4) 0.2200(3) 0.2460(3)
O3 O -0.2251(4) 0.2032(3) 0.2097(3)
O4 O -0.1534(4) 0.0769(3) 0.0818(2)
N1 N 0.2994(5) -0.1568(3) 0.5116(3)
N2 N 0.4530(5) 0.4600(3) 0.1544(3)
N3 N 0.6816(5) 0.3421(3) 0.3838(3)
C1 C 0.3287(5) 0.0950(3) 0.2830(4)
C2 C 0.2350(6) 0.0062(4) 0.3423(4)
C3 C 0.3636(5) -0.0813(3) 0.4451(4)
H1 H 0.5052 -0.0892 0.4708
C4 C 0.0944(5) -0.1461(3) 0.4696(4)
H2 H 0.0435 -0.2012 0.5122
C5 C -0.0422(5) -0.0603(3) 0.3693(4)
H3 H -0.1833 -0.0549 0.3451
C6 C 0.0253(5) 0.0196(3) 0.3022(3)
C7 C -0.1292(5) 0.1065(3) 0.1871(3)
C8 C 0.3328(7) 0.5112(4) 0.0342(4)
H4 H 0.2786 0.4457 -0.0360
C9 C 0.2839(7) 0.6566(4) 0.0078(4)
H5 H 0.1985 0.6901 -0.0784
C10 C 0.3635(7) 0.7499(4) 0.1107(4)
H6 H 0.3322 0.8495 0.0960
C11 C 0.4897(6) 0.6986(4) 0.2361(4)
H7 H 0.5466 0.7620 0.3077
C12 C 0.5303(6) 0.5526(4) 0.2537(4)
C13 C 0.6628(6) 0.4874(4) 0.3840(4)
C14 C 0.7617(6) 0.5654(4) 0.4969(4)
H8 H 0.7477 0.6669 0.4952
C15 C 0.8815(7) 0.4939(4) 0.6129(4)
H9 H 0.9502 0.5458 0.6918
C16 C 0.9007(7) 0.3454(4) 0.6133(4)
H10 H 0.9821 0.2941 0.6920
C17 C 0.7985(6) 0.2745(4) 0.4967(4)
H11 H 0.8117 0.1731 0.4964
Co1_2 Co -0.49166(8) 0.24293(4) 0.20068(6)
Co1A Co 0.50834(8) -0.24293(4) 0.70068(6)
O3_2 O 0.7749(4) 0.2032(3) 0.2097(3)
N1A N 0.2994(5) 0.1568(3) 0.0116(3)
loop_
_geom_bond_atom_site_label_1
_geom_bond_atom_site_label_2
_geom_bond_site_symmetry_1
_geom_bond_site_symmetry_2
Co1 O1 1_555 1_555
O1 C1 1_555 1_555
O2 Co1 1_555 1_555
O3 C7 1_555 1_555
O4 C7 1_555 1_555
N1 C3 1_555 1_555
N2 Co1 1_555 1_555
N3 Co1 1_555 1_555
C1 O2 1_555 1_555
C2 C1 1_555 1_555
C3 C2 1_555 1_555
H1 C3 1_555 1_555
C4 N1 1_555 1_555
H2 C4 1_555 1_555
C5 C4 1_555 1_555
H3 C5 1_555 1_555
C6 C2 1_555 1_555
C7 C6 1_555 1_555
C8 N2 1_555 1_555
H4 C8 1_555 1_555
C9 C8 1_555 1_555
H5 C9 1_555 1_555
C10 C9 1_555 1_555
H6 C10 1_555 1_555
C11 C10 1_555 1_555
H7 C11 1_555 1_555
C12 N2 1_555 1_555
C13 N3 1_555 1_555
C14 C13 1_555 1_555
H8 C14 1_555 1_555
C15 C14 1_555 1_555
H9 C15 1_555 1_555
C16 C15 1_555 1_555
H10 C16 1_555 1_555
C17 N3 1_555 1_555
H11 C17 1_555 1_555
Co1_2 O3 1_555 1_555
Co1A N1 1_555 1_555
O3_2 Co1 1_555 1_555
N1A Co1 1_555 1_555
C5 C6 1_555 1_555
C11 C12 1_555 1_555
C12 C13 1_555 1_555
C16 C17 1_555 1_555

#END
