
#######################################################################
#
#                 Cambridge Crystallographic Data Centre
#                                CCDC 
#
#######################################################################
#
# If this CIF has been generated from an entry in the Cambridge 
# Structural Database, then it will include bibliographic, chemical, 
# crystal, experimental, refinement or atomic coordinate data resulting 
# from the CCDC's data processing and validation procedures.
#
#######################################################################

data_WIGTAH
_symmetry_cell_setting           monoclinic
_symmetry_space_group_name_H-M   'P 21/n'
_symmetry_Int_Tables_number      14
_space_group_name_Hall           '-P 2yn'
loop_
_symmetry_equiv_pos_site_id
_symmetry_equiv_pos_as_xyz
1 x,y,z
2 1/2-x,1/2+y,1/2-z
3 -x,-y,-z
4 1/2+x,1/2-y,1/2+z
_cell_length_a                   11.498(2)
_cell_length_b                   12.676(3)
_cell_length_c                   13.631(3)
_cell_angle_alpha                90
_cell_angle_beta                 110.38(2)
_cell_angle_gamma                90
_cell_volume                     1862.34
loop_
_atom_site_label
_atom_site_type_symbol
_atom_site_fract_x
_atom_site_fract_y
_atom_site_fract_z
Na1 Na 0.18750(6) 0.56180(5) 0.25081(5)
N1 N 0.23380(13) 0.55914(9) 0.44553(10)
N2 N -0.01965(13) 0.57896(10) 0.26556(10)
C1 C 0.2786(2) 0.23899(12) 0.34806(13)
H1 H 0.3606(20) 0.2434(18) 0.4004(16)
C2 C 0.2557(2) 0.30743(11) 0.26041(12)
C3 C 0.3468(2) 0.37535(12) 0.24536(13)
H2 H 0.4282(2) 0.37602(12) 0.29603(13)
C4 C 0.3194(2) 0.44076(12) 0.15822(14)
H3 H 0.3832(2) 0.48243(12) 0.14846(14)
C5 C 0.1996(2) 0.44581(12) 0.08519(13)
H4 H 0.1806(2) 0.49182(12) 0.02669(13)
C6 C 0.1079(2) 0.38202(12) 0.09951(12)
H5 H 0.0254(2) 0.38634(12) 0.05102(12)
C7 C 0.1345(2) 0.31239(11) 0.18310(12)
C8 C 0.0428(2) 0.23028(12) 0.19108(13)
H6 H -0.0477(21) 0.2428(19) 0.1464(17)
H7 H 0.0654(20) 0.1608(20) 0.1578(18)
C9 C 0.0532(2) 0.20995(11) 0.30285(13)
C10 C -0.0482(2) 0.18410(14) 0.3300(2)
H8 H -0.1288(2) 0.18705(14) 0.2783(2)
C11 C -0.0349(2) 0.1537(2) 0.4316(2)
H9 H -0.1052(2) 0.1354(2) 0.4494(2)
C12 C 0.0838(2) 0.15088(14) 0.50644(15)
H10 H 0.0948(2) 0.12942(14) 0.57588(15)
C13 C 0.1861(2) 0.17890(12) 0.48098(13)
H11 H 0.2659(2) 0.17810(12) 0.53401(13)
C14 C 0.1751(2) 0.20871(11) 0.37814(13)
C15 C 0.2896(2) 0.65876(14) 0.49479(14)
H12 H 0.3745(5) 0.6640(5) 0.4944(10)
H13 H 0.2913(12) 0.6606(5) 0.5671(4)
H14 H 0.2403(7) 0.71809(14) 0.4557(6)
C16 C 0.3133(2) 0.47208(14) 0.5020(2)
H15 H 0.2773(7) 0.4048(2) 0.4704(7)
H16 H 0.3194(11) 0.4734(7) 0.5755(3)
H17 H 0.3962(4) 0.4800(6) 0.4978(10)
C17 C 0.1097(2) 0.54706(13) 0.45223(13)
H18 H 0.1137(2) 0.56558(13) 0.52390(13)
H19 H 0.0844(2) 0.47215(13) 0.43996(13)
C18 C 0.0114(2) 0.61517(12) 0.37422(12)
H20 H -0.0646(2) 0.61467(12) 0.39256(12)
H21 H 0.0418(2) 0.68881(12) 0.37971(12)
C19 C -0.0971(2) 0.48404(13) 0.24654(15)
H22 H -0.1177(11) 0.4617(7) 0.1736(3)
H23 H -0.1737(6) 0.4995(3) 0.2601(11)
H24 H -0.0518(6) 0.4274(4) 0.2932(8)
C20 C -0.0888(2) 0.66258(14) 0.19494(14)
H25 H -0.0381(5) 0.7267(4) 0.2071(8)
H26 H -0.1656(7) 0.6773(8) 0.2083(8)
H27 H -0.1090(11) 0.6397(5) 0.12222(14)
C1A C 0.2214(2) 0.73899(12) 0.15194(13)
Na1A Na 0.31250(6) 0.06180(5) 0.24919(5)
H1A H 0.1394(20) 0.7434(18) 0.0996(16)
loop_
_geom_bond_atom_site_label_1
_geom_bond_atom_site_label_2
_geom_bond_site_symmetry_1
_geom_bond_site_symmetry_2
Na1 N1 1_555 1_555
N1 C15 1_555 1_555
N2 Na1 1_555 1_555
C1 H1 1_555 1_555
C2 C1 1_555 1_555
C3 C2 1_555 1_555
H2 C3 1_555 1_555
C4 Na1 1_555 1_555
H3 C4 1_555 1_555
C5 Na1 1_555 1_555
H4 C5 1_555 1_555
C6 C5 1_555 1_555
H5 C6 1_555 1_555
C7 C2 1_555 1_555
C8 C7 1_555 1_555
H6 C8 1_555 1_555
H7 C8 1_555 1_555
C9 C8 1_555 1_555
C10 C9 1_555 1_555
H8 C10 1_555 1_555
C11 C10 1_555 1_555
H9 C11 1_555 1_555
C12 C11 1_555 1_555
H10 C12 1_555 1_555
C13 C12 1_555 1_555
H11 C13 1_555 1_555
C14 C1 1_555 1_555
C15 H12 1_555 1_555
H13 C15 1_555 1_555
H14 C15 1_555 1_555
C16 N1 1_555 1_555
H15 C16 1_555 1_555
H16 C16 1_555 1_555
H17 C16 1_555 1_555
C17 N1 1_555 1_555
H18 C17 1_555 1_555
H19 C17 1_555 1_555
C18 N2 1_555 1_555
H20 C18 1_555 1_555
H21 C18 1_555 1_555
C19 N2 1_555 1_555
H22 C19 1_555 1_555
H23 C19 1_555 1_555
H24 C19 1_555 1_555
C20 N2 1_555 1_555
H25 C20 1_555 1_555
H26 C20 1_555 1_555
H27 C20 1_555 1_555
C1A Na1 1_555 1_555
Na1A C1 1_555 1_555
H1A C1A 1_555 1_555
C3 C4 1_555 1_555
C4 C5 1_555 1_555
C6 C7 1_555 1_555
C9 C14 1_555 1_555
C13 C14 1_555 1_555
C17 C18 1_555 1_555

#END
