
#######################################################################
#
#                 Cambridge Crystallographic Data Centre
#                                CCDC 
#
#######################################################################
#
# If this CIF has been generated from an entry in the Cambridge 
# Structural Database, then it will include bibliographic, chemical, 
# crystal, experimental, refinement or atomic coordinate data resulting 
# from the CCDC's data processing and validation procedures.
#
#######################################################################

data_WIGWOZ
_symmetry_cell_setting           monoclinic
_symmetry_space_group_name_H-M   'P 21/c'
_symmetry_Int_Tables_number      14
_space_group_name_Hall           '-P 2ybc'
loop_
_symmetry_equiv_pos_site_id
_symmetry_equiv_pos_as_xyz
1 x,y,z
2 -x,1/2+y,1/2-z
3 -x,-y,-z
4 x,1/2-y,1/2+z
_cell_length_a                   9.0767(18)
_cell_length_b                   22.897(4)
_cell_length_c                   7.2953(14)
_cell_angle_alpha                90
_cell_angle_beta                 96.448(3)
_cell_angle_gamma                90
_cell_volume                     1506.59
loop_
_atom_site_label
_atom_site_type_symbol
_atom_site_fract_x
_atom_site_fract_y
_atom_site_fract_z
Cu1 Cu 0.09615(4) 0.257917(13) 0.30458(4)
Cl1 Cl 0.09232(11) 0.04857(4) 0.36375(15)
Cl2 Cl 0.65892(15) 0.03398(6) 0.2224(2)
O1 O 0.1433(2) 0.17315(8) 0.3618(3)
N1 N 0.3197(3) 0.27140(10) 0.3065(3)
N2 N 0.0927(3) 0.35075(11) 0.2526(3)
N3 N -0.0139(3) 0.26061(10) 0.5403(3)
N4 N -0.1446(3) 0.26976(12) 0.5340(3)
N5 N -0.2703(4) 0.27769(19) 0.5282(5)
C1 C 0.2593(3) 0.14407(12) 0.3292(4)
C2 C 0.2569(4) 0.08268(13) 0.3269(4)
C3 C 0.3771(4) 0.04916(15) 0.2956(5)
H1 H 0.3704 0.0086 0.2953
C4 C 0.5069(4) 0.07609(17) 0.2650(5)
C5 C 0.5183(4) 0.13493(16) 0.2671(4)
H2 H 0.6078 0.1524 0.2481
C6 C 0.3963(3) 0.17011(13) 0.2977(4)
C7 C 0.4186(3) 0.23208(14) 0.2918(4)
H3 H 0.5135 0.2450 0.2758
C8 C 0.3617(4) 0.33280(14) 0.2894(4)
H4 H 0.3820 0.3407 0.1640
H5 H 0.4510 0.3409 0.3715
C9 C 0.2379(4) 0.37133(14) 0.3377(4)
H6 H 0.2380 0.3722 0.4707
H7 H 0.2543 0.4108 0.2965
C10 C -0.0293(5) 0.38750(15) 0.3046(6)
H8 H -0.0044 0.4283 0.2895
H9 H -0.0408 0.3811 0.4336
C11 C -0.1735(5) 0.3744(2) 0.1897(7)
H10 H -0.1638 0.3822 0.0624
H11 H -0.2503 0.3985 0.2295
H12 H -0.1984 0.3340 0.2039
H13 H 0.096(4) 0.3509(15) 0.1300(16)
Cu1C Cu 0.09615(4) 0.242083(13) 0.80458(4)
N3C N -0.0139(3) 0.23939(10) 0.0403(3)
loop_
_geom_bond_atom_site_label_1
_geom_bond_atom_site_label_2
_geom_bond_site_symmetry_1
_geom_bond_site_symmetry_2
Cu1 O1 1_555 1_555
Cl1 C2 1_555 1_555
Cl2 C4 1_555 1_555
O1 C1 1_555 1_555
N1 Cu1 1_555 1_555
N2 Cu1 1_555 1_555
N3 Cu1 1_555 1_555
N4 N3 1_555 1_555
N5 N4 1_555 1_555
C1 C2 1_555 1_555
C2 C3 1_555 1_555
C3 H1 1_555 1_555
C4 C3 1_555 1_555
C5 C4 1_555 1_555
H2 C5 1_555 1_555
C6 C1 1_555 1_555
C7 N1 1_555 1_555
H3 C7 1_555 1_555
C8 N1 1_555 1_555
H4 C8 1_555 1_555
H5 C8 1_555 1_555
C9 N2 1_555 1_555
H6 C9 1_555 1_555
H7 C9 1_555 1_555
C10 N2 1_555 1_555
H8 C10 1_555 1_555
H9 C10 1_555 1_555
C11 C10 1_555 1_555
H10 C11 1_555 1_555
H11 C11 1_555 1_555
H12 C11 1_555 1_555
H13 N2 1_555 1_555
Cu1C N3 1_555 1_555
N3C Cu1 1_555 1_555
C5 C6 1_555 1_555
C6 C7 1_555 1_555
C8 C9 1_555 1_555

#END
