
#######################################################################
#
#                 Cambridge Crystallographic Data Centre
#                                CCDC 
#
#######################################################################
#
# If this CIF has been generated from an entry in the Cambridge 
# Structural Database, then it will include bibliographic, chemical, 
# crystal, experimental, refinement or atomic coordinate data resulting 
# from the CCDC's data processing and validation procedures.
#
#######################################################################

data_WIHBUK
_symmetry_cell_setting           monoclinic
_symmetry_space_group_name_H-M   'P 21/c'
_symmetry_Int_Tables_number      14
_space_group_name_Hall           '-P 2ybc'
loop_
_symmetry_equiv_pos_site_id
_symmetry_equiv_pos_as_xyz
1 x,y,z
2 -x,1/2+y,1/2-z
3 -x,-y,-z
4 x,1/2-y,1/2+z
_cell_length_a                   11.015(3)
_cell_length_b                   12.023(3)
_cell_length_c                   14.524(9)
_cell_angle_alpha                90
_cell_angle_beta                 100.18(5)
_cell_angle_gamma                90
_cell_volume                     1893.18
loop_
_atom_site_label
_atom_site_type_symbol
_atom_site_fract_x
_atom_site_fract_y
_atom_site_fract_z
Cu1 Cu 0.82839(5) 0.23979(5) 0.34872(5)
O1 O 0.7900(3) 0.3412(3) 0.2238(3)
O2 O 0.6607(3) 0.1823(3) 0.3145(3)
O3 O 0.8211(3) 0.4779(3) 0.1261(3)
O4 O 0.4555(3) 0.1937(4) 0.2923(3)
N1 N 0.9982(3) 0.2959(3) 0.3701(3)
N2 N 0.7824(4) 0.3301(4) 0.4514(3)
N3 N 1.1076(4) 0.5902(4) 0.1889(4)
N4 N 0.3567(5) 0.3946(6) 0.4258(5)
C1 C 1.0420(4) 0.3722(4) 0.3235(4)
C2 C 0.9816(4) 0.4345(4) 0.2467(4)
C3 C 0.8577(5) 0.4134(5) 0.2007(4)
C4 C 0.6689(5) 0.3525(5) 0.4593(4)
C5 C 0.5629(5) 0.3088(5) 0.4041(4)
C6 C 0.5666(5) 0.2264(5) 0.3364(4)
C7 C 1.0811(4) 0.2432(5) 0.4474(4)
C8 C 1.0176(5) 0.2165(5) 0.5291(4)
C9 C 0.9682(6) 0.3149(6) 0.5766(5)
C10 C 0.8789(5) 0.3904(5) 0.5143(4)
C11 C 0.6996(6) 0.4538(6) 0.0721(5)
C12 C 0.6773(7) 0.5289(7) -0.0077(6)
C13 C 0.4478(6) 0.1208(7) 0.2138(6)
C14 C 0.3170(8) 0.1145(9) 0.1698(6)
C15 C 1.0499(5) 0.5206(4) 0.2136(4)
C16 C 0.4477(5) 0.3542(6) 0.4169(5)
H1 H 1.126(4) 0.385(4) 0.342(4)
H2 H 0.664(5) 0.402(4) 0.504(3)
H3 H 1.116(4) 0.177(4) 0.423(4)
H4 H 1.144(4) 0.291(4) 0.469(3)
H5 H 0.950(4) 0.169(4) 0.507(4)
H6 H 1.079(4) 0.179(4) 0.580(4)
H7 H 1.054(4) 0.362(4) 0.609(4)
H8 H 0.938(4) 0.291(4) 0.621(3)
H9 H 0.853(4) 0.437(4) 0.557(3)
H10 H 0.916(4) 0.444(4) 0.472(3)
H11 H 0.647(4) 0.474(4) 0.119(3)
H12 H 0.689(5) 0.379(4) 0.057(4)
H13 H 0.670(5) 0.604(4) 0.021(4)
H14 H 0.604(5) 0.511(4) -0.048(4)
H15 H 0.746(4) 0.536(4) -0.046(3)
H16 H 0.462(4) 0.164(4) 0.148(4)
H17 H 0.478(4) 0.062(4) 0.234(3)
H18 H 0.314(5) 0.077(4) 0.094(4)
H19 H 0.261(4) 0.113(4) 0.239(3)
H20 H 0.276(4) 0.208(4) 0.174(3)
N3A N 0.8924(4) 0.0902(4) 0.3111(4)
Cu1A Cu 1.17161(5) 0.73979(5) 0.15128(5)
loop_
_geom_bond_atom_site_label_1
_geom_bond_atom_site_label_2
_geom_bond_site_symmetry_1
_geom_bond_site_symmetry_2
Cu1 O1 1_555 1_555
O1 C3 1_555 1_555
O2 Cu1 1_555 1_555
O3 C3 1_555 1_555
O4 C6 1_555 1_555
N1 Cu1 1_555 1_555
N2 Cu1 1_555 1_555
N3 C15 1_555 1_555
N4 C16 1_555 1_555
C1 N1 1_555 1_555
C2 C1 1_555 1_555
C3 C2 1_555 1_555
C4 N2 1_555 1_555
C5 C4 1_555 1_555
C6 O2 1_555 1_555
C7 N1 1_555 1_555
C8 C7 1_555 1_555
C9 C8 1_555 1_555
C10 N2 1_555 1_555
C11 O3 1_555 1_555
C12 C11 1_555 1_555
C13 O4 1_555 1_555
C14 C13 1_555 1_555
C15 C2 1_555 1_555
C16 C5 1_555 1_555
H1 C1 1_555 1_555
H2 C4 1_555 1_555
H3 C7 1_555 1_555
H4 C7 1_555 1_555
H5 C8 1_555 1_555
H6 C8 1_555 1_555
H7 C9 1_555 1_555
H8 C9 1_555 1_555
H9 C10 1_555 1_555
H10 C10 1_555 1_555
H11 C11 1_555 1_555
H12 C11 1_555 1_555
H13 C12 1_555 1_555
H14 C12 1_555 1_555
H15 C12 1_555 1_555
H16 C13 1_555 1_555
H17 C13 1_555 1_555
H18 C14 1_555 1_555
H19 C14 1_555 1_555
H20 C14 1_555 1_555
N3A Cu1 1_555 1_555
Cu1A N3 1_555 1_555
C5 C6 1_555 1_555
C9 C10 1_555 1_555

#END
