
#######################################################################
#
#                 Cambridge Crystallographic Data Centre
#                                CCDC 
#
#######################################################################
#
# If this CIF has been generated from an entry in the Cambridge 
# Structural Database, then it will include bibliographic, chemical, 
# crystal, experimental, refinement or atomic coordinate data resulting 
# from the CCDC's data processing and validation procedures.
#
#######################################################################

data_WIHDEW
_symmetry_cell_setting           monoclinic
_symmetry_space_group_name_H-M   'C 2/c'
_symmetry_Int_Tables_number      15
_space_group_name_Hall           '-C 2yn'
loop_
_symmetry_equiv_pos_site_id
_symmetry_equiv_pos_as_xyz
1 x,y,z
2 -x,y,1/2-z
3 1/2+x,1/2+y,z
4 1/2-x,1/2+y,1/2-z
5 -x,-y,-z
6 x,-y,1/2+z
7 1/2-x,1/2-y,-z
8 1/2+x,1/2-y,1/2+z
_cell_length_a                   22.280(6)
_cell_length_b                   13.896(3)
_cell_length_c                   17.733(9)
_cell_angle_alpha                90
_cell_angle_beta                 112.43(3)
_cell_angle_gamma                90
_cell_volume                     5074.84
loop_
_atom_site_label
_atom_site_type_symbol
_atom_site_fract_x
_atom_site_fract_y
_atom_site_fract_z
Eu1 Eu 0.00000 0.49920(9) 0.75000
La1 La 0.24502(4) 0.19504(8) 0.73157(7)
O1 O 0.0887(5) 0.4220(8) 0.7221(9)
O2 O 0.1469(5) 0.2915(9) 0.7203(9)
O3 O -0.1362(5) 0.7269(9) 0.7780(8)
O4 O -0.0798(5) 0.6234(9) 0.7306(8)
O5 O 0.0830(5) 0.4502(9) 0.8811(8)
O6 O 0.1347(6) 0.459(1) 1.0174(8)
O7 O 0.1627(5) 0.0641(9) 0.692(1)
O8 O 0.0793(9) -0.016(2) 0.603(1)
O9 O 0.2537(6) 0.317(1) 0.634(1)
O10 O 0.2344(7) 0.382(1) 0.512(1)
O11 O 0.2777(6) 0.358(1) 0.818(1)
O12 O 0.3092(6) 0.043(1) 0.8151(9)
O13 O 0.2871(5) 0.078(1) 0.6463(8)
O14 O 0.228 0.167 0.869
N1 N 0.00000 0.320(1) 0.75000
N2 N 0.0015(5) 0.5854(7) 0.8767(9)
N3 N 0.1644(6) 0.186(1) 0.5811(9)
C1 C 0.0477(7) 0.272(1) 0.742(1)
C2 C 0.0513(8) 0.171(1) 0.744(2)
C3 C 0.00000 0.117(2) 0.75000
C4 C 0.0988(6) 0.333(1) 0.7270(9)
C5 C -0.0418(7) 0.654(1) 0.871(1)
C6 C -0.0438(8) 0.705(1) 0.939(1)
C7 C 0.0021(8) 0.684(1) 1.012(2)
C8 C 0.0493(7) 0.609(1) 1.020(1)
C9 C 0.0448(7) 0.567(1) 0.953(1)
C10 C -0.0897(7) 0.668(1) 0.786(1)
C11 C 0.0917(7) 0.484(1) 0.952(1)
C12 C 0.1198(9) 0.117(2) 0.553(2)
C13 C 0.076(1) 0.110(2) 0.475(2)
C14 C 0.0799(9) 0.172(2) 0.417(1)
C15 C 0.1298(9) 0.247(2) 0.441(2)
C16 C 0.1693(8) 0.249(1) 0.523(1)
C17 C 0.1202(9) 0.050(2) 0.622(2)
C18 C 0.225(1) 0.320(1) 0.556(2)
C1A C -0.0477(7) 0.272(1) 0.758(1)
C2A C -0.0513(8) 0.171(1) 0.756(2)
C4A C -0.0988(6) 0.333(1) 0.7730(9)
O1A O -0.0887(5) 0.4220(8) 0.7779(9)
O2A O -0.1469(5) 0.2915(9) 0.7797(9)
O3A O 0.1362(5) 0.7269(9) 0.7220(8)
O4A O 0.0798(5) 0.6234(9) 0.7694(8)
O5A O -0.0830(5) 0.4502(9) 0.6189(8)
O6A O -0.1347(6) 0.459(1) 0.4826(8)
N2A N -0.0015(5) 0.5854(7) 0.6233(9)
C5A C 0.0418(7) 0.654(1) 0.629(1)
C6A C 0.0438(8) 0.705(1) 0.561(1)
C7A C -0.0021(8) 0.684(1) 0.488(2)
C8A C -0.0493(7) 0.609(1) 0.480(1)
C9A C -0.0448(7) 0.567(1) 0.547(1)
C10A C 0.0897(7) 0.668(1) 0.714(1)
C11A C -0.0917(7) 0.484(1) 0.548(1)
La1A La -0.24502(4) 0.19504(8) 0.76843(7)
O7A O -0.1627(5) 0.0641(9) 0.808(1)
O8A O -0.0793(9) -0.016(2) 0.897(1)
O9A O -0.2537(6) 0.317(1) 0.866(1)
O10A O -0.2344(7) 0.382(1) 0.988(1)
N3A N -0.1644(6) 0.186(1) 0.9189(9)
C12A C -0.1198(9) 0.117(2) 0.947(2)
C13A C -0.076(1) 0.110(2) 1.025(2)
C14A C -0.0799(9) 0.172(2) 1.083(1)
C15A C -0.1298(9) 0.247(2) 1.059(2)
C16A C -0.1693(8) 0.249(1) 0.977(1)
C17A C -0.1202(9) 0.050(2) 0.878(2)
C18A C -0.225(1) 0.320(1) 0.944(2)
O11A O -0.2777(6) 0.358(1) 0.682(1)
O12A O -0.3092(6) 0.043(1) 0.6849(9)
O13A O -0.2871(5) 0.078(1) 0.8537(8)
O14A O -0.228 0.167 0.631
O3B O 0.3638(5) 0.2269(9) 0.7780(8)
La1B La -0.25498(4) 0.69504(8) 0.73157(7)
La1C La 0.25498(4) 0.69504(8) 0.76843(7)
O3C O -0.3638(5) 0.2269(9) 0.7220(8)
O15 O 0.3222(9) 0.516(1) 0.599(1)
O16 O 0.631(2) 0.368(2) 0.498(2)
O17 O 0.419(2) 0.407(2) 0.755(2)
O18 O 0.181(1) 0.685(2) 0.439(2)
loop_
_geom_bond_atom_site_label_1
_geom_bond_atom_site_label_2
_geom_bond_site_symmetry_1
_geom_bond_site_symmetry_2
Eu1 O1 1_555 1_555
La1 O2 1_555 1_555
O1 C4 1_555 1_555
O2 C4 1_555 1_555
O3 C10 1_555 1_555
O4 Eu1 1_555 1_555
O5 Eu1 1_555 1_555
O6 C11 1_555 1_555
O7 La1 1_555 1_555
O8 C17 1_555 1_555
O9 La1 1_555 1_555
O10 C18 1_555 1_555
O11 La1 1_555 1_555
O12 La1 1_555 1_555
O13 La1 1_555 1_555
O14 La1 1_555 1_555
N1 Eu1 1_555 1_555
N2 Eu1 1_555 1_555
N3 La1 1_555 1_555
C1 N1 1_555 1_555
C2 C1 1_555 1_555
C3 C2 1_555 1_555
C4 C1 1_555 1_555
C5 N2 1_555 1_555
C6 C5 1_555 1_555
C7 C6 1_555 1_555
C8 C7 1_555 1_555
C9 N2 1_555 1_555
C10 O4 1_555 1_555
C11 O5 1_555 1_555
C12 N3 1_555 1_555
C13 C12 1_555 1_555
C14 C13 1_555 1_555
C15 C14 1_555 1_555
C16 N3 1_555 1_555
C17 O7 1_555 1_555
C18 O9 1_555 1_555
C1A N1 1_555 1_555
C2A C3 1_555 1_555
C4A C1A 1_555 1_555
O1A Eu1 1_555 1_555
O2A C4A 1_555 1_555
O3A C10A 1_555 1_555
O4A Eu1 1_555 1_555
O5A Eu1 1_555 1_555
O6A C11A 1_555 1_555
N2A Eu1 1_555 1_555
C5A N2A 1_555 1_555
C6A C5A 1_555 1_555
C7A C6A 1_555 1_555
C8A C7A 1_555 1_555
C9A N2A 1_555 1_555
C10A O4A 1_555 1_555
C11A O5A 1_555 1_555
La1A O2A 1_555 1_555
O7A La1A 1_555 1_555
O8A C17A 1_555 1_555
O9A La1A 1_555 1_555
O10A C18A 1_555 1_555
N3A La1A 1_555 1_555
C12A N3A 1_555 1_555
C13A C12A 1_555 1_555
C14A C13A 1_555 1_555
C15A C14A 1_555 1_555
C16A N3A 1_555 1_555
C17A O7A 1_555 1_555
C18A O9A 1_555 1_555
O11A La1A 1_555 1_555
O12A La1A 1_555 1_555
O13A La1A 1_555 1_555
O14A La1A 1_555 1_555
O3B La1 1_555 1_555
La1B O3 1_555 1_555
La1C O3A 1_555 1_555
O3C La1A 1_555 1_555
C5 C10 1_555 1_555
C8 C9 1_555 1_555
C9 C11 1_555 1_555
C12 C17 1_555 1_555
C15 C16 1_555 1_555
C16 C18 1_555 1_555
C1A C2A 1_555 1_555
C4A O1A 1_555 1_555
C5A C10A 1_555 1_555
C8A C9A 1_555 1_555
C9A C11A 1_555 1_555
C12A C17A 1_555 1_555
C15A C16A 1_555 1_555
C16A C18A 1_555 1_555

#END
