
#######################################################################
#
#                 Cambridge Crystallographic Data Centre
#                                CCDC 
#
#######################################################################
#
# If this CIF has been generated from an entry in the Cambridge 
# Structural Database, then it will include bibliographic, chemical, 
# crystal, experimental, refinement or atomic coordinate data resulting 
# from the CCDC's data processing and validation procedures.
#
#######################################################################

data_WIHDUN
_symmetry_cell_setting           orthorhombic
_symmetry_space_group_name_H-M   'I m a 2'
_symmetry_Int_Tables_number      46
_space_group_name_Hall           'I 2 -2a'
loop_
_symmetry_equiv_pos_site_id
_symmetry_equiv_pos_as_xyz
1 x,y,z
2 -x,-y,z
3 1/2+x,-y,z
4 1/2-x,y,z
5 1/2+x,1/2+y,1/2+z
6 1/2-x,1/2-y,1/2+z
7 x,1/2-y,1/2+z
8 -x,1/2+y,1/2+z
_cell_length_a                   16.3724(6)
_cell_length_b                   7.1673(4)
_cell_length_c                   14.1857(8)
_cell_angle_alpha                90
_cell_angle_beta                 90
_cell_angle_gamma                90
_cell_volume                     1664.63
loop_
_atom_site_label
_atom_site_type_symbol
_atom_site_fract_x
_atom_site_fract_y
_atom_site_fract_z
N1 N 0.59831(9) 0.2336(2) 0.13471(12)
H1 H 0.5517 0.2517 0.1007
H2 H 0.6023 0.3068 0.1862
H3 H 0.5982 0.1168 0.1618
C1 C 0.67406(11) 0.2598(3) 0.07757(14)
H4 H 0.6754 0.3883 0.0521
H5 H 0.6737 0.1719 0.0237
C2 C 0.7500 0.2259(4) 0.1374(2)
H6 H 0.7500 0.0960 0.1611
H7 H 0.7500 0.3113 0.1922
N1C N 0.90169(9) 0.2336(2) 0.13471(12)
H1C H 0.9483 0.2517 0.1007
H2C H 0.8977 0.3068 0.1862
H3C H 0.9018 0.1168 0.1618
C1C C 0.82594(11) 0.2598(3) 0.07757(14)
H4C H 0.8246 0.3883 0.0521
H5C H 0.8263 0.1719 0.0237
Ni1 Ni 0.5000 0.5000 0.35324(4)
O1 O 0.40867(9) 0.4393(2) 0.44765(10)
O2 O 0.46016(8) 0.19013(19) 0.52250(10)
O3 O 0.41573(8) 0.0581(2) 0.74825(10)
O4 O 0.43957(8) 0.36127(18) 0.71826(10)
O5 O 0.54310(7) 0.22702(15) 0.35648(11)
H8 H 0.5196 0.1739 0.3058
H9 H 0.5204 0.1936 0.4118
C3 C 0.2500 0.3097(4) 0.50968(18)
H10 H 0.2500 0.3499 0.4459
C4 C 0.32398(11) 0.2805(3) 0.55610(13)
C5 C 0.32397(11) 0.2229(2) 0.65041(13)
C6 C 0.2500 0.1941(4) 0.69672(17)
H11 H 0.2500 0.1544 0.7606
C7 C 0.40460(11) 0.3053(3) 0.50457(12)
C8 C 0.40005(11) 0.2128(2) 0.70882(13)
Ni1F Ni 0.5000 0.0000 0.85324(4)
Ni1D Ni 0.0000 0.0000 0.85324(4)
Ni1B Ni 0.0000 0.5000 0.35324(4)
O1C O 0.09133(9) 0.4393(2) 0.44765(10)
O1A O 0.59133(9) 0.5607(2) 0.44765(10)
O2C O 0.03984(8) 0.19013(19) 0.52250(10)
O3C O 0.08427(8) 0.0581(2) 0.74825(10)
O3F O 0.41573(8) 0.4419(2) 0.24825(10)
O3G O 0.58427(8) 0.5581(2) 0.24825(10)
O4C O 0.06043(8) 0.36127(18) 0.71826(10)
O5A O 0.45690(7) 0.77298(15) 0.35648(11)
H8A H 0.4804 0.8261 0.3058
H9A H 0.4796 0.8064 0.4118
C4C C 0.17602(11) 0.2805(3) 0.55610(13)
C5C C 0.17603(11) 0.2229(2) 0.65041(13)
C7C C 0.09540(11) 0.3053(3) 0.50457(12)
C8C C 0.09995(11) 0.2128(2) 0.70882(13)
O6 O 0.7040(7) 0.0338(19) 0.3588(14)
H13 H 0.6575 -0.0252 0.3298
H12? H 0.7500 -0.0326 0.3312
loop_
_geom_bond_atom_site_label_1
_geom_bond_atom_site_label_2
_geom_bond_site_symmetry_1
_geom_bond_site_symmetry_2
N1 H1 1_555 1_555
H2 N1 1_555 1_555
H3 N1 1_555 1_555
C1 N1 1_555 1_555
H4 C1 1_555 1_555
H5 C1 1_555 1_555
C2 C1 1_555 1_555
H6 C2 1_555 1_555
H7 C2 1_555 1_555
Ni1 O1 1_555 1_555
O1 C7 1_555 1_555
O2 C7 1_555 1_555
O3 C8 1_555 1_555
O4 C8 1_555 1_555
O5 Ni1 1_555 1_555
H8 O5 1_555 1_555
H9 O5 1_555 1_555
C3 H10 1_555 1_555
C4 C3 1_555 1_555
C5 C4 1_555 1_555
C6 C5 1_555 1_555
H11 C6 1_555 1_555
C7 C4 1_555 1_555
C8 C5 1_555 1_555
O6 H13 1_555 1_555
N1C H1C 1_555 1_555
H2C N1C 1_555 1_555
H3C N1C 1_555 1_555
C1C C2 1_555 1_555
H4C C1C 1_555 1_555
H5C C1C 1_555 1_555
Ni1F O3 1_555 1_555
Ni1D O3C 1_555 1_555
Ni1B O1C 1_555 1_555
O1C C7C 1_555 1_555
O1A Ni1 1_555 1_555
O2C C7C 1_555 1_555
O3C C8C 1_555 1_555
O3F Ni1 1_555 1_555
O3G Ni1 1_555 1_555
O4C C8C 1_555 1_555
O5A Ni1 1_555 1_555
H8A O5A 1_555 1_555
H9A O5A 1_555 1_555
C4C C3 1_555 1_555
C5C C6 1_555 1_555
C7C C4C 1_555 1_555
C8C C5C 1_555 1_555
N1C C1C 1_555 1_555
C4C C5C 1_555 1_555

#END
