
#######################################################################
#
#                 Cambridge Crystallographic Data Centre
#                                CCDC 
#
#######################################################################
#
# If this CIF has been generated from an entry in the Cambridge 
# Structural Database, then it will include bibliographic, chemical, 
# crystal, experimental, refinement or atomic coordinate data resulting 
# from the CCDC's data processing and validation procedures.
#
#######################################################################

data_WIHDAT
_symmetry_cell_setting           monoclinic
_symmetry_space_group_name_H-M   'C 2/c'
_symmetry_Int_Tables_number      15
_space_group_name_Hall           '-C 2yn'
loop_
_symmetry_equiv_pos_site_id
_symmetry_equiv_pos_as_xyz
1 x,y,z
2 1/2+x,1/2+y,z
3 -x,y,1/2-z
4 1/2-x,1/2+y,1/2-z
5 -x,-y,-z
6 1/2-x,1/2-y,-z
7 x,-y,1/2+z
8 1/2+x,1/2-y,1/2+z
_cell_length_a                   11.055(2)
_cell_length_b                   6.7804(14)
_cell_length_c                   30.727(6)
_cell_angle_alpha                90
_cell_angle_beta                 98.84(3)
_cell_angle_gamma                90
_cell_volume                     2275.85
loop_
_atom_site_label
_atom_site_type_symbol
_atom_site_fract_x
_atom_site_fract_y
_atom_site_fract_z
C1 C 1.1736(4) 0.1737(7) 0.38143(14)
C2 C 1.0880(4) 0.1162(7) 0.40799(15)
C3 C 1.1320(5) 0.0464(8) 0.45013(17)
H1 H 1.0773 0.0046 0.4684
C4 C 1.2558(6) 0.0389(8) 0.46494(18)
C5 C 1.3403(5) 0.0914(9) 0.43893(19)
H2 H 1.4237 0.0823 0.4493
C6 C 1.2983(5) 0.1585(9) 0.39678(18)
H3 H 1.3543 0.1940 0.3785
C7 C 0.9501(4) 0.1302(8) 0.39352(17)
H4 H 0.9086 0.0788 0.4163
H5 H 0.9274 0.0550 0.3671
H6 H 0.9274 0.2657 0.3881
N1 N 1.0374(4) 0.4476(6) 0.32821(13)
O1 O 1.0613(3) 0.1212(5) 0.30020(11)
O2 O 1.2460(3) 0.3238(6) 0.31310(12)
O3 O 0.7076(3) -0.1898(6) 0.20927(12)
H7 H 0.6490 -0.1190 0.2001
H8 H 0.7490 -0.2170 0.1886
O4 O 1.0000 -0.2798(8) 0.2500
H9 H 1.0070 -0.3652 0.2695
S1 S 1.13097(10) 0.27141(19) 0.32722(4)
Cl1 Cl 1.30599(19) -0.0332(3) 0.51941(5)
Br1 Br 1.10784(5) 0.65106(9) 0.366130(17)
Na1 Na 0.85419(18) -0.0126(3) 0.26251(7)
C1B C 0.8264(4) 0.1737(7) 0.11857(14)
C2B C 0.9120(4) 0.1162(7) 0.09201(15)
C3B C 0.8680(5) 0.0464(8) 0.04987(17)
H1B H 0.9227 0.0046 0.0316
C4B C 0.7442(6) 0.0389(8) 0.03506(18)
C5B C 0.6597(5) 0.0914(9) 0.06107(19)
H2B H 0.5763 0.0823 0.0507
C6B C 0.7017(5) 0.1585(9) 0.10322(18)
H3B H 0.6457 0.1940 0.1215
C7B C 1.0499(4) 0.1302(8) 0.10648(17)
H4B H 1.0914 0.0788 0.0837
H5B H 1.0726 0.0550 0.1329
H6B H 1.0726 0.2657 0.1119
N1B N 0.9626(4) 0.4476(6) 0.17179(13)
O1B O 0.9387(3) 0.1212(5) 0.19980(11)
O2B O 0.7540(3) 0.3238(6) 0.18690(12)
O2A O 0.7460(3) -0.1762(6) 0.31310(12)
O2C O 1.2540(3) -0.1762(6) 0.18690(12)
O3C O 0.7924(3) 0.3102(6) 0.29073(12)
O3A O 1.2076(3) 0.3102(6) 0.20927(12)
O3B O 1.2924(3) -0.1898(6) 0.29073(12)
H7C H 0.8510 0.3810 0.2999
H7A H 1.1490 0.3810 0.2001
H7B H 1.3510 -0.1190 0.2999
H8C H 0.7510 0.2830 0.3114
H8A H 1.2490 0.2830 0.1886
H8B H 1.2510 -0.2170 0.3114
H9B H 0.9930 -0.3652 0.2305
S1B S 0.86903(10) 0.27141(19) 0.17278(4)
Cl1B Cl 0.69401(19) -0.0332(3) -0.01941(5)
Br1B Br 0.89216(5) 0.65106(9) 0.133870(17)
Na1B Na 1.14581(18) -0.0126(3) 0.23749(7)
Na1A Na 1.35419(18) 0.4874(3) 0.26251(7)
Na1C Na 0.64581(18) -0.5126(3) 0.23749(7)
Na1C_2 Na 0.64581(18) 0.4874(3) 0.23749(7)
loop_
_geom_bond_atom_site_label_1
_geom_bond_atom_site_label_2
_geom_bond_site_symmetry_1
_geom_bond_site_symmetry_2
C1 C2 1_555 1_555
C2 C3 1_555 1_555
C3 H1 1_555 1_555
C4 C3 1_555 1_555
C5 C4 1_555 1_555
H2 C5 1_555 1_555
C6 C1 1_555 1_555
H3 C6 1_555 1_555
C7 C2 1_555 1_555
H4 C7 1_555 1_555
H5 C7 1_555 1_555
H6 C7 1_555 1_555
N1 S1 1_555 1_555
O1 S1 1_555 1_555
O2 S1 1_555 1_555
O3 H7 1_555 1_555
H8 O3 1_555 1_555
O4 H9 1_555 1_555
S1 C1 1_555 1_555
Cl1 C4 1_555 1_555
Br1 N1 1_555 1_555
Na1 O1 1_555 1_555
C1B C2B 1_555 1_555
C2B C3B 1_555 1_555
C3B H1B 1_555 1_555
C4B C3B 1_555 1_555
C5B C4B 1_555 1_555
H2B C5B 1_555 1_555
C6B C1B 1_555 1_555
H3B C6B 1_555 1_555
C7B C2B 1_555 1_555
H4B C7B 1_555 1_555
H5B C7B 1_555 1_555
H6B C7B 1_555 1_555
N1B S1B 1_555 1_555
O1B Na1 1_555 1_555
O2B S1B 1_555 1_555
O2A Na1 1_555 1_555
O2C Na1B 1_555 1_555
O3C Na1 1_555 1_555
O3A H7A 1_555 1_555
O3B H7B 1_555 1_555
H7C O3C 1_555 1_555
H8C O3C 1_555 1_555
H8A O3A 1_555 1_555
H8B O3B 1_555 1_555
H9B O4 1_555 1_555
S1B C1B 1_555 1_555
Cl1B C4B 1_555 1_555
Br1B N1B 1_555 1_555
Na1B O1 1_555 1_555
Na1A O2 1_555 1_555
Na1C O3 1_555 1_555
Na1C_2 O2B 1_555 1_555
C5 C6 1_555 1_555
O3 Na1 1_555 1_555
O4 Na1 1_555 1_555
O4 Na1B 1_555 1_555
C5B C6B 1_555 1_555
O1B S1B 1_555 1_555
O1B Na1B 1_555 1_555
O3C Na1C_2 1_555 1_555
O3A Na1B 1_555 1_555
O3A Na1A 1_555 1_555
O3B Na1B 1_555 1_555

#END
