
#######################################################################
#
#                 Cambridge Crystallographic Data Centre
#                                CCDC 
#
#######################################################################
#
# If this CIF has been generated from an entry in the Cambridge 
# Structural Database, then it will include bibliographic, chemical, 
# crystal, experimental, refinement or atomic coordinate data resulting 
# from the CCDC's data processing and validation procedures.
#
#######################################################################

data_WIHKOP
_symmetry_cell_setting           triclinic
_symmetry_space_group_name_H-M   'P -1'
_symmetry_Int_Tables_number      2
_space_group_name_Hall           '-P 1'
loop_
_symmetry_equiv_pos_site_id
_symmetry_equiv_pos_as_xyz
1 x,y,z
2 -x,-y,-z
_cell_length_a                   7.2182(12)
_cell_length_b                   9.0635(14)
_cell_length_c                   9.9589(15)
_cell_angle_alpha                79.202(2)
_cell_angle_beta                 71.683(2)
_cell_angle_gamma                85.494(3)
_cell_volume                     607.434
loop_
_atom_site_label
_atom_site_type_symbol
_atom_site_fract_x
_atom_site_fract_y
_atom_site_fract_z
Pb1 Pb 0.24557(3) 0.11141(2) 0.47717(2)
O1 O 0.0452(5) 0.9117(4) 0.6086(4)
O2 O 0.3224(5) 0.8538(4) 0.6568(5)
O3 O 0.2253(5) 0.1995(4) 0.7194(4)
O4 O -0.0248(6) 0.2448(5) 0.6332(5)
O5 O 0.3782(6) -0.0957(5) 0.3132(5)
H1 H 0.4881 -0.1412 0.3019
H2 H 0.2924 -0.1629 0.3379
N1 N -0.2153(6) 0.5547(5) 0.9379(5)
C1 C -0.1131(7) 0.6798(6) 0.8704(6)
C2 C 0.0591(7) 0.6774(5) 0.7553(5)
C3 C 0.1282(7) 0.5404(6) 0.7125(5)
C4 C 0.0148(7) 0.4140(6) 0.7758(5)
C5 C -0.1579(7) 0.4255(6) 0.8888(6)
C6 C -0.1922(8) 0.8214(6) 0.9291(6)
H3 H -0.2907 0.8662 0.8872
H4 H -0.0882 0.8906 0.9060
H5 H -0.2481 0.7975 1.0315
C7 C 0.1542(7) 0.8222(6) 0.6705(6)
C8 C 0.0752(7) 0.2736(6) 0.7103(6)
C9 C -0.2867(8) 0.2946(7) 0.9630(7)
H6 H -0.2869 0.2692 1.0611
H7 H -0.2388 0.2102 0.9154
H8 H -0.4172 0.3203 0.9603
C10 C 0.3206(7) 0.5253(5) 0.5999(5)
C11 C 0.3313(7) 0.5098(6) 0.4608(5)
H9 H 0.2177 0.5160 0.4347
C12 C 0.5090(7) 0.4854(6) 0.3615(5)
H10 H 0.5146 0.4761 0.2689
O1A O 0.9548(5) 0.0883(4) 0.3914(4)
O2A O 0.6776(5) 0.1462(4) 0.3432(5)
O3A O 0.7747(5) 0.8005(4) 0.2806(4)
O4A O 1.0248(6) 0.7552(5) 0.3668(5)
N1A N 1.2153(6) 0.4453(5) 0.0621(5)
C1A C 1.1131(7) 0.3202(6) 0.1296(6)
C2A C 0.9409(7) 0.3226(5) 0.2447(5)
C3A C 0.8718(7) 0.4596(6) 0.2875(5)
C4A C 0.9852(7) 0.5860(6) 0.2242(5)
C5A C 1.1579(7) 0.5745(6) 0.1112(6)
C6A C 1.1922(8) 0.1786(6) 0.0709(6)
H3A H 1.2907 0.1338 0.1128
H4A H 1.0882 0.1094 0.0940
H5A H 1.2481 0.2025 -0.0315
C7A C 0.8458(7) 0.1778(6) 0.3295(6)
C8A C 0.9248(7) 0.7264(6) 0.2897(6)
C9A C 1.2867(8) 0.7054(7) 0.0370(7)
H6A H 1.2869 0.7308 -0.0611
H7A H 1.2388 0.7898 0.0846
H8A H 1.4172 0.6797 0.0397
C10A C 0.6794(7) 0.4747(5) 0.4001(5)
C11A C 0.6687(7) 0.4902(6) 0.5392(5)
H9A H 0.7823 0.4840 0.5653
C12A C 0.4910(7) 0.5146(6) 0.6385(5)
H10A H 0.4854 0.5239 0.7311
Pb1A Pb -0.24557(3) 0.88859(2) 0.52283(2)
O5A O -0.3782(6) 1.0957(5) 0.6868(5)
H1A H -0.4881 1.1412 0.6981
H2A H -0.2924 1.1629 0.6621
Pb1_2 Pb 0.24557(3) 1.11141(2) 0.47717(2)
Pb1_3 Pb 1.24557(3) 0.11141(2) 0.47717(2)
Pb1A_2 Pb 0.75443(3) -0.11141(2) 0.52283(2)
Pb1A_3 Pb 0.75443(3) 0.88859(2) 0.52283(2)
O1_2 O 0.0452(5) -0.0883(4) 0.6086(4)
O1A_2 O -0.0452(5) 0.0883(4) 0.3914(4)
O1A_3 O -0.0452(5) 1.0883(4) 0.3914(4)
O2_2 O 0.3224(5) -0.1462(4) 0.6568(5)
O2A_2 O -0.3224(5) 1.1462(4) 0.3432(5)
O3A_2 O -0.2253(5) 0.8005(4) 0.2806(4)
O4A_2 O 0.0248(6) 0.7552(5) 0.3668(5)
loop_
_geom_bond_atom_site_label_1
_geom_bond_atom_site_label_2
_geom_bond_site_symmetry_1
_geom_bond_site_symmetry_2
Pb1 O3 1_555 1_555
O1 C7 1_555 1_555
O2 C7 1_555 1_555
O3 C8 1_555 1_555
O4 Pb1 1_555 1_555
O5 Pb1 1_555 1_555
H1 O5 1_555 1_555
H2 O5 1_555 1_555
N1 C1 1_555 1_555
C1 C2 1_555 1_555
C2 C3 1_555 1_555
C3 C4 1_555 1_555
C4 C5 1_555 1_555
C5 N1 1_555 1_555
C6 C1 1_555 1_555
H3 C6 1_555 1_555
H4 C6 1_555 1_555
H5 C6 1_555 1_555
C7 C2 1_555 1_555
C8 O4 1_555 1_555
C9 C5 1_555 1_555
H6 C9 1_555 1_555
H7 C9 1_555 1_555
H8 C9 1_555 1_555
C10 C3 1_555 1_555
C11 C10 1_555 1_555
H9 C11 1_555 1_555
C12 C11 1_555 1_555
H10 C12 1_555 1_555
O1A C7A 1_555 1_555
O2A C7A 1_555 1_555
O3A C8A 1_555 1_555
O4A C8A 1_555 1_555
N1A C1A 1_555 1_555
C1A C2A 1_555 1_555
C2A C3A 1_555 1_555
C3A C4A 1_555 1_555
C4A C5A 1_555 1_555
C5A N1A 1_555 1_555
C6A C1A 1_555 1_555
H3A C6A 1_555 1_555
H4A C6A 1_555 1_555
H5A C6A 1_555 1_555
C7A C2A 1_555 1_555
C8A C4A 1_555 1_555
C9A C5A 1_555 1_555
H6A C9A 1_555 1_555
H7A C9A 1_555 1_555
H8A C9A 1_555 1_555
C10A C12 1_555 1_555
C11A C10A 1_555 1_555
H9A C11A 1_555 1_555
C12A C10 1_555 1_555
H10A C12A 1_555 1_555
Pb1A O1 1_555 1_555
O5A Pb1A 1_555 1_555
H1A O5A 1_555 1_555
H2A O5A 1_555 1_555
Pb1_2 O1 1_555 1_555
Pb1_3 O1A 1_555 1_555
Pb1A_2 O1A 1_555 1_555
Pb1A_3 O3A 1_555 1_555
O1_2 Pb1 1_555 1_555
O1A_2 Pb1 1_555 1_555
O1A_3 Pb1A 1_555 1_555
O2_2 Pb1 1_555 1_555
O2A_2 Pb1A 1_555 1_555
O3A_2 Pb1A 1_555 1_555
O4A_2 Pb1A 1_555 1_555
O2 Pb1_2 1_555 1_555
C4 C8 1_555 1_555
O2A Pb1A_2 1_555 1_555
O4A Pb1A_3 1_555 1_555
C3A C10A 1_555 1_555
C11A C12A 1_555 1_555
Pb1_2 O1A_3 1_555 1_555

#END
