
#######################################################################
#
#                 Cambridge Crystallographic Data Centre
#                                CCDC 
#
#######################################################################
#
# If this CIF has been generated from an entry in the Cambridge 
# Structural Database, then it will include bibliographic, chemical, 
# crystal, experimental, refinement or atomic coordinate data resulting 
# from the CCDC's data processing and validation procedures.
#
#######################################################################

data_WIHLUW
_symmetry_cell_setting           monoclinic
_symmetry_space_group_name_H-M   'C 2/c'
_symmetry_Int_Tables_number      15
_space_group_name_Hall           '-C 2yn'
loop_
_symmetry_equiv_pos_site_id
_symmetry_equiv_pos_as_xyz
1 x,y,z
2 -x,y,1/2-z
3 1/2+x,1/2+y,z
4 1/2-x,1/2+y,1/2-z
5 -x,-y,-z
6 x,-y,1/2+z
7 1/2-x,1/2-y,-z
8 1/2+x,1/2-y,1/2+z
_cell_length_a                   19.1840(10)
_cell_length_b                   9.7854(4)
_cell_length_c                   17.3468(9)
_cell_angle_alpha                90
_cell_angle_beta                 108.624(4)
_cell_angle_gamma                90
_cell_volume                     3085.87
loop_
_atom_site_label
_atom_site_type_symbol
_atom_site_fract_x
_atom_site_fract_y
_atom_site_fract_z
Mn1 Mn 0.5000 1.0000 0.5000
N1 N 0.58695(16) 0.8976(3) 0.59516(18)
C1 C 0.63537(18) 0.8574(3) 0.64832(19)
Se1 Se 0.71095(2) 0.79679(6) 0.72941(2)
N2 N 0.51948(13) 1.1948(3) 0.58050(15)
C2 C 0.48071(18) 1.3084(3) 0.55279(19)
H1 H 0.4496 1.3092 0.4992
C3 C 0.48422(19) 1.4238(3) 0.59895(19)
H2 H 0.4558 1.4997 0.5765
C4 C 0.52999(17) 1.4274(3) 0.67895(18)
C5 C 0.57134(18) 1.3113(3) 0.70726(19)
H3 H 0.6036 1.3087 0.7602
C6 C 0.56489(18) 1.1998(3) 0.65745(18)
H4 H 0.5936 1.1235 0.6782
C7 C 0.5318(2) 1.5500(3) 0.7320(2)
H5 H 0.5292 1.6324 0.7002
H6 H 0.5782 1.5512 0.7761
O1 O 0.41951(12) 0.9297(2) 0.55852(13)
H7 H 0.3981 0.8571 0.5437
C8 C 0.4253(2) 0.9473(4) 0.6411(2)
H8 H 0.4674 0.8985 0.6747
H9 H 0.3817 0.9126 0.6502
H10 H 0.4305 1.0427 0.6546
N2A N 0.48052(13) 1.1948(3) 0.91950(15)
C2A C 0.51929(18) 1.3084(3) 0.94721(19)
H1A H 0.5504 1.3092 1.0008
C3A C 0.51578(19) 1.4238(3) 0.90105(19)
H2A H 0.5442 1.4997 0.9235
C4A C 0.47001(17) 1.4274(3) 0.82105(18)
C5A C 0.42866(18) 1.3113(3) 0.79274(19)
H3A H 0.3964 1.3087 0.7398
C6A C 0.43511(18) 1.1998(3) 0.84255(18)
H4A H 0.4064 1.1235 0.8218
C7A C 0.4682(2) 1.5500(3) 0.7680(2)
H5A H 0.4708 1.6324 0.7998
H6A H 0.4218 1.5512 0.7239
O1D O 0.58049(12) 1.0703(2) 0.44148(13)
H7D H 0.6019 1.1429 0.4563
C8D C 0.5747(2) 1.0527(4) 0.3589(2)
H8D H 0.5326 1.1015 0.3253
H9D H 0.6183 1.0874 0.3498
H10D H 0.5695 0.9573 0.3454
N1D N 0.41305(16) 1.1024(3) 0.40484(18)
C1D C 0.36463(18) 1.1426(3) 0.35168(19)
Se1D Se 0.28905(2) 1.20321(6) 0.27059(2)
Mn1A Mn 0.5000 1.0000 1.0000
N2D N 0.48052(13) 0.8052(3) 0.41950(15)
N3 N 0.34138(14) 0.6923(3) 0.51881(16)
C9 C 0.31374(17) 0.6393(3) 0.57385(19)
H11 H 0.3201 0.6876 0.6218
C10 C 0.27652(18) 0.5175(3) 0.5634(2)
H12 H 0.2592 0.4845 0.6042
C11 C 0.26479(16) 0.4436(3) 0.49260(19)
C12 C 0.29261(19) 0.4991(4) 0.4349(2)
H13 H 0.2864 0.4537 0.3861
C13 C 0.32931(18) 0.6210(4) 0.4504(2)
H14 H 0.3470 0.6565 0.4105
C14 C 0.22544(19) 0.3082(3) 0.4790(2)
H15 H 0.2067 0.2898 0.4211
H16 H 0.1838 0.3135 0.4991
N3F N 0.15862(14) -0.1923(3) 0.48119(16)
C9F C 0.18626(17) -0.1393(3) 0.42615(19)
H11F H 0.1799 -0.1876 0.3782
C10F C 0.22348(18) -0.0175(3) 0.4366(2)
H12F H 0.2408 0.0155 0.3958
C11F C 0.23521(16) 0.0564(3) 0.50740(19)
C12F C 0.20739(19) 0.0009(4) 0.5651(2)
H13F H 0.2136 0.0463 0.6139
C13F C 0.17069(18) -0.1210(4) 0.5496(2)
H14F H 0.1530 -0.1565 0.5895
C14F C 0.27456(19) 0.1918(3) 0.5210(2)
H15F H 0.2933 0.2102 0.5789
H16F H 0.3162 0.1865 0.5009
loop_
_geom_bond_atom_site_label_1
_geom_bond_atom_site_label_2
_geom_bond_site_symmetry_1
_geom_bond_site_symmetry_2
Mn1 N1 1_555 1_555
N1 C1 1_555 1_555
C1 Se1 1_555 1_555
N2 Mn1 1_555 1_555
C2 N2 1_555 1_555
H1 C2 1_555 1_555
C3 C2 1_555 1_555
H2 C3 1_555 1_555
C4 C3 1_555 1_555
C5 C4 1_555 1_555
H3 C5 1_555 1_555
C6 N2 1_555 1_555
H4 C6 1_555 1_555
C7 C4 1_555 1_555
H5 C7 1_555 1_555
H6 C7 1_555 1_555
O1 Mn1 1_555 1_555
H7 O1 1_555 1_555
C8 O1 1_555 1_555
H8 C8 1_555 1_555
H9 C8 1_555 1_555
H10 C8 1_555 1_555
N3 C9 1_555 1_555
C9 H11 1_555 1_555
C10 C9 1_555 1_555
H12 C10 1_555 1_555
C11 C10 1_555 1_555
C12 C11 1_555 1_555
H13 C12 1_555 1_555
C13 N3 1_555 1_555
H14 C13 1_555 1_555
C14 C11 1_555 1_555
H15 C14 1_555 1_555
H16 C14 1_555 1_555
N2A C2A 1_555 1_555
C2A H1A 1_555 1_555
C3A C2A 1_555 1_555
H2A C3A 1_555 1_555
C4A C3A 1_555 1_555
C5A C4A 1_555 1_555
H3A C5A 1_555 1_555
C6A N2A 1_555 1_555
H4A C6A 1_555 1_555
C7A C7 1_555 1_555
H5A C7A 1_555 1_555
H6A C7A 1_555 1_555
O1D Mn1 1_555 1_555
H7D O1D 1_555 1_555
C8D O1D 1_555 1_555
H8D C8D 1_555 1_555
H9D C8D 1_555 1_555
H10D C8D 1_555 1_555
N1D Mn1 1_555 1_555
C1D N1D 1_555 1_555
Se1D C1D 1_555 1_555
Mn1A N2A 1_555 1_555
N2D Mn1 1_555 1_555
N3F C9F 1_555 1_555
C9F H11F 1_555 1_555
C10F C9F 1_555 1_555
H12F C10F 1_555 1_555
C11F C10F 1_555 1_555
C12F C11F 1_555 1_555
H13F C12F 1_555 1_555
C13F N3F 1_555 1_555
H14F C13F 1_555 1_555
C14F C14 1_555 1_555
H15F C14F 1_555 1_555
H16F C14F 1_555 1_555
C5 C6 1_555 1_555
C12 C13 1_555 1_555
C4A C7A 1_555 1_555
C5A C6A 1_555 1_555
C11F C14F 1_555 1_555
C12F C13F 1_555 1_555

#END
