
#######################################################################
#
#                 Cambridge Crystallographic Data Centre
#                                CCDC 
#
#######################################################################
#
# If this CIF has been generated from an entry in the Cambridge 
# Structural Database, then it will include bibliographic, chemical, 
# crystal, experimental, refinement or atomic coordinate data resulting 
# from the CCDC's data processing and validation procedures.
#
#######################################################################

data_WIHMIL
_symmetry_cell_setting           orthorhombic
_symmetry_space_group_name_H-M   'I b c a'
_symmetry_Int_Tables_number      73
_space_group_name_Hall           '-I 2b 2c'
loop_
_symmetry_equiv_pos_site_id
_symmetry_equiv_pos_as_xyz
1 x,y,z
2 -x,1/2-y,z
3 x,-y,1/2-z
4 1/2-x,y,-z
5 1/2+x,1/2+y,1/2+z
6 1/2-x,-y,1/2+z
7 1/2+x,1/2-y,-z
8 -x,1/2+y,1/2-z
9 -x,-y,-z
10 x,1/2+y,-z
11 -x,y,1/2+z
12 1/2+x,-y,z
13 1/2-x,1/2-y,1/2-z
14 1/2+x,y,1/2-z
15 1/2-x,1/2+y,z
16 x,1/2-y,1/2+z
_cell_length_a                   8.9643(11)
_cell_length_b                   30.539(6)
_cell_length_c                   8.9625(12)
_cell_angle_alpha                90
_cell_angle_beta                 90
_cell_angle_gamma                90
_cell_volume                     2453.58
loop_
_atom_site_label
_atom_site_type_symbol
_atom_site_fract_x
_atom_site_fract_y
_atom_site_fract_z
Ba1 Ba 0.61452(2) 0.0000 0.2500
O1 O 0.4190(2) 0.05878(6) 0.5240(3)
C1 C 0.3754(3) 0.07360(9) 0.4035(4)
O2 O 0.3671(2) 0.05119(7) 0.2858(2)
C2 C 0.3410(3) 0.12190(9) 0.3935(3)
O3 O 0.7500 -0.04396(9) 0.0000
H1 H 0.7197 -0.0594 -0.0742
C3 C 0.2500 0.14342(12) 0.5000
C4 C 0.2500 0.19041(12) 0.5000
C5 C 0.3323(4) 0.21277(11) 0.3902(5)
H2 H 0.3325 0.2432 0.3899
C6 C 0.4105(4) 0.19121(11) 0.2860(4)
H3 H 0.4610 0.2067 0.2123
C7 C 0.4163(4) 0.14507(10) 0.2877(3)
H4 H 0.4720 0.1303 0.2160
O1C O 0.0810(2) 0.05878(6) 0.4760(3)
C1C C 0.1246(3) 0.07360(9) 0.5965(4)
O2C O 0.1329(2) 0.05119(7) 0.7142(2)
C2C C 0.1590(3) 0.12190(9) 0.6065(3)
C5C C 0.1677(4) 0.21277(11) 0.6098(5)
H2C H 0.1675 0.2432 0.6101
C6C C 0.0895(4) 0.19121(11) 0.7140(4)
H3C H 0.0390 0.2067 0.7877
C7C C 0.0837(4) 0.14507(10) 0.7123(3)
H4C H 0.0280 0.1303 0.7840
H1C H 0.7803 -0.0594 0.0742
Ba1C Ba -0.11452(2) 0.0000 0.7500
Ba1C_2 Ba 0.88548(2) 0.0000 -0.2500
Ba1H Ba 0.38548(2) 0.0000 0.7500
Ba1K Ba 0.11452(2) 0.0000 0.2500
O1H O 0.5810(2) -0.05878(6) 0.4760(3)
O1J O 0.5810(2) 0.05878(6) 0.0240(3)
O2B O 0.3671(2) -0.05119(7) 0.2142(2)
O2K O 0.8671(2) -0.05119(7) 0.2858(2)
O2M O 0.8671(2) 0.05119(7) 0.2142(2)
O3B O 0.7500 0.04396(9) 0.5000
loop_
_geom_bond_atom_site_label_1
_geom_bond_atom_site_label_2
_geom_bond_site_symmetry_1
_geom_bond_site_symmetry_2
Ba1 O2 1_555 1_555
O1 C1 1_555 1_555
C1 O2 1_555 1_555
O2 Ba1K 1_555 1_555
C2 C1 1_555 1_555
O3 Ba1 1_555 1_555
H1 O3 1_555 1_555
C3 C2 1_555 1_555
C4 C3 1_555 1_555
C5 C4 1_555 1_555
H2 C5 1_555 1_555
C6 C5 1_555 1_555
H3 C6 1_555 1_555
C7 C2 1_555 1_555
H4 C7 1_555 1_555
O1C C1C 1_555 1_555
C1C O2C 1_555 1_555
O2C Ba1C 1_555 1_555
C2C C3 1_555 1_555
C5C C4 1_555 1_555
H2C C5C 1_555 1_555
C6C C5C 1_555 1_555
H3C C6C 1_555 1_555
C7C C2C 1_555 1_555
H4C C7C 1_555 1_555
H1C O3 1_555 1_555
Ba1C_2 O3 1_555 1_555
Ba1H O1 1_555 1_555
Ba1K O1C 1_555 1_555
O1H Ba1 1_555 1_555
O1J Ba1 1_555 1_555
O2B Ba1 1_555 1_555
O2K Ba1 1_555 1_555
O2M Ba1 1_555 1_555
O3B Ba1 1_555 1_555
C6 C7 1_555 1_555
C1C C2C 1_555 1_555
O2C Ba1H 1_555 1_555
C6C C7C 1_555 1_555
Ba1K O2B 1_555 1_555

#END
