
#######################################################################
#
#                 Cambridge Crystallographic Data Centre
#                                CCDC 
#
#######################################################################
#
# If this CIF has been generated from an entry in the Cambridge 
# Structural Database, then it will include bibliographic, chemical, 
# crystal, experimental, refinement or atomic coordinate data resulting 
# from the CCDC's data processing and validation procedures.
#
#######################################################################

data_WIHMEG
_symmetry_cell_setting           monoclinic
_symmetry_space_group_name_H-M   'P 21/n'
_symmetry_Int_Tables_number      14
_space_group_name_Hall           '-P 2yn'
loop_
_symmetry_equiv_pos_site_id
_symmetry_equiv_pos_as_xyz
1 x,y,z
2 1/2-x,1/2+y,1/2-z
3 -x,-y,-z
4 1/2+x,1/2-y,1/2+z
_cell_length_a                   8.9056(9)
_cell_length_b                   11.4712(10)
_cell_length_c                   12.5918(11)
_cell_angle_alpha                90
_cell_angle_beta                 106.484(8)
_cell_angle_gamma                90
_cell_volume                     1233.48
loop_
_atom_site_label
_atom_site_type_symbol
_atom_site_fract_x
_atom_site_fract_y
_atom_site_fract_z
Ag1 Ag 1.17340(3) 0.82881(2) 1.67239(2)
Cu1 Cu 0.0000 1.0000 1.0000
N1 N 0.0760(3) 0.9291(3) 0.8833(2)
N2 N 0.1216(4) 1.1913(3) 0.9593(3)
N3 N 0.2061(3) 0.9593(3) 1.1172(2)
N4 N 0.9171(3) 0.8550(3) 1.5329(2)
C1 C 0.1135(4) 0.8918(3) 0.8110(3)
C2 C 0.1904(4) 1.2467(3) 0.9156(3)
C3 C 0.3430(4) 0.9961(4) 1.1058(3)
H1 H 0.3437 1.0357 1.0415
C4 C 0.4829(4) 0.9777(4) 1.1853(3)
H2 H 0.5754 1.0053 1.1741
C5 C 0.4869(4) 0.9184(3) 1.2819(3)
C6 C 0.3451(4) 0.8779(3) 1.2912(3)
H3 H 0.3415 0.8355 1.3533
C7 C 0.2092(4) 0.9001(3) 1.2089(3)
H4 H 0.1152 0.8726 1.2176
C8 C 0.6358(4) 0.8986(3) 1.3694(3)
C9 C 0.7772(4) 0.8921(3) 1.3440(3)
H5 H 0.7809 0.9030 1.2716
C10 C 0.9128(4) 0.8692(3) 1.4276(3)
H6 H 1.0063 0.8634 1.4089
C11 C 0.7813(4) 0.8638(4) 1.5570(3)
H7 H 0.7821 0.8560 1.6307
C12 C 0.6401(4) 0.8835(3) 1.4798(3)
H8 H 0.5483 0.8867 1.5010
Ag1B Ag -1.17340(3) 1.17119(2) 0.32761(2)
Ag1_2 Ag 0.17340(3) 0.82881(2) 0.67239(2)
Ag1A Ag 0.32660(3) 1.32881(2) 0.82761(2)
Ag1B_2 Ag -0.17340(3) 1.17119(2) 1.32761(2)
Ag1C Ag -0.32660(3) 0.67119(2) 1.17239(2)
N1B N -0.0760(3) 1.0709(3) 1.1167(2)
N2B N -0.1216(4) 0.8087(3) 1.0407(3)
N3B N -0.2061(3) 1.0407(3) 0.8828(2)
N4B N -0.9171(3) 1.1450(3) 0.4671(2)
C1B C -0.1135(4) 1.1082(3) 1.1890(3)
C1_2 C 1.1135(4) 0.8918(3) 1.8110(3)
C1B_2 C -1.1135(4) 1.1082(3) 0.1890(3)
C2B C -0.1904(4) 0.7533(3) 1.0844(3)
C2A C 1.3096(4) 0.7467(3) 1.5844(3)
C2C C -1.3096(4) 1.2533(3) 0.4156(3)
C3B C -0.3430(4) 1.0039(4) 0.8942(3)
H1B H -0.3437 0.9643 0.9585
C4B C -0.4829(4) 1.0223(4) 0.8147(3)
H2B H -0.5754 0.9947 0.8259
C5B C -0.4869(4) 1.0816(3) 0.7181(3)
C6B C -0.3451(4) 1.1221(3) 0.7088(3)
H3B H -0.3415 1.1645 0.6467
C7B C -0.2092(4) 1.0999(3) 0.7911(3)
H4B H -0.1152 1.1274 0.7824
C8B C -0.6358(4) 1.1014(3) 0.6306(3)
C9B C -0.7772(4) 1.1079(3) 0.6560(3)
H5B H -0.7809 1.0970 0.7284
C10B C -0.9128(4) 1.1308(3) 0.5724(3)
H6B H -1.0063 1.1366 0.5911
C11B C -0.7813(4) 1.1362(4) 0.4430(3)
H7B H -0.7821 1.1440 0.3693
C12B C -0.6401(4) 1.1165(3) 0.5202(3)
H8B H -0.5483 1.1133 0.4990
loop_
_geom_bond_atom_site_label_1
_geom_bond_atom_site_label_2
_geom_bond_site_symmetry_1
_geom_bond_site_symmetry_2
Ag1 N4 1_555 1_555
Cu1 N1 1_555 1_555
N1 C1 1_555 1_555
N2 Cu1 1_555 1_555
N3 Cu1 1_555 1_555
N4 C10 1_555 1_555
C1 Ag1_2 1_555 1_555
C2 N2 1_555 1_555
C3 N3 1_555 1_555
H1 C3 1_555 1_555
C4 C3 1_555 1_555
H2 C4 1_555 1_555
C5 C4 1_555 1_555
C6 C5 1_555 1_555
H3 C6 1_555 1_555
C7 N3 1_555 1_555
H4 C7 1_555 1_555
C8 C5 1_555 1_555
C9 C8 1_555 1_555
H5 C9 1_555 1_555
C10 C9 1_555 1_555
H6 C10 1_555 1_555
C11 N4 1_555 1_555
H7 C11 1_555 1_555
C12 C8 1_555 1_555
H8 C12 1_555 1_555
Ag1B N4B 1_555 1_555
Ag1A C2 1_555 1_555
Ag1B_2 C1B 1_555 1_555
Ag1C C2B 1_555 1_555
N1B Cu1 1_555 1_555
N2B Cu1 1_555 1_555
N3B Cu1 1_555 1_555
N4B C10B 1_555 1_555
C1B N1B 1_555 1_555
C1_2 Ag1 1_555 1_555
C1B_2 Ag1B 1_555 1_555
C2B N2B 1_555 1_555
C2A Ag1 1_555 1_555
C2C Ag1B 1_555 1_555
C3B N3B 1_555 1_555
H1B C3B 1_555 1_555
C4B C3B 1_555 1_555
H2B C4B 1_555 1_555
C5B C4B 1_555 1_555
C6B C5B 1_555 1_555
H3B C6B 1_555 1_555
C7B N3B 1_555 1_555
H4B C7B 1_555 1_555
C8B C5B 1_555 1_555
C9B C8B 1_555 1_555
H5B C9B 1_555 1_555
C10B C9B 1_555 1_555
H6B C10B 1_555 1_555
C11B N4B 1_555 1_555
H7B C11B 1_555 1_555
C12B C8B 1_555 1_555
H8B C12B 1_555 1_555
C6 C7 1_555 1_555
C11 C12 1_555 1_555
C6B C7B 1_555 1_555
C11B C12B 1_555 1_555

#END
