
#######################################################################
#
#                 Cambridge Crystallographic Data Centre
#                                CCDC 
#
#######################################################################
#
# If this CIF has been generated from an entry in the Cambridge 
# Structural Database, then it will include bibliographic, chemical, 
# crystal, experimental, refinement or atomic coordinate data resulting 
# from the CCDC's data processing and validation procedures.
#
#######################################################################

data_WIHMAC
_symmetry_cell_setting           orthorhombic
_symmetry_space_group_name_H-M   'P b c a'
_symmetry_Int_Tables_number      61
_space_group_name_Hall           '-P 2ac 2ab'
loop_
_symmetry_equiv_pos_site_id
_symmetry_equiv_pos_as_xyz
1 x,y,z
2 1/2-x,-y,1/2+z
3 -x,1/2+y,1/2-z
4 1/2+x,1/2-y,-z
5 -x,-y,-z
6 1/2+x,y,1/2-z
7 x,1/2-y,1/2+z
8 1/2-x,1/2+y,z
_cell_length_a                   7.8086(16)
_cell_length_b                   16.342(3)
_cell_length_c                   18.316(4)
_cell_angle_alpha                90
_cell_angle_beta                 90
_cell_angle_gamma                90
_cell_volume                     2337.27
loop_
_atom_site_label
_atom_site_type_symbol
_atom_site_fract_x
_atom_site_fract_y
_atom_site_fract_z
V1 V 0.01940(5) 0.56611(2) 0.17052(2)
K1 K 0.20989(6) 0.71723(3) 0.29356(3)
O1 O 0.1877(2) 0.65071(9) 0.13611(9)
O2 O -0.0321(2) 0.45032(10) 0.19712(9)
O3 O 0.4445(2) 0.67819(10) 0.08618(9)
O4 O 0.0627(2) 0.32230(10) 0.21357(9)
O5 O -0.0230(2) 0.60987(10) 0.24834(9)
O6 O -0.1336(2) 0.58848(10) 0.11431(9)
O7 O 0.7845(2) 0.40826(10) 0.03885(9)
H1 H 0.8721 0.3804 0.0325
O8 O 0.6847(2) 0.29294(10) 0.09009(9)
N1 N 0.2394(2) 0.50057(11) 0.14296(10)
C1 C 0.3378(3) 0.63102(14) 0.11050(12)
C2 C 0.3713(3) 0.54026(14) 0.11337(12)
C3 C 0.5159(3) 0.49909(14) 0.09037(12)
H4 H 0.6112 0.5277 0.0694
C4 C 0.5181(3) 0.41440(15) 0.09881(12)
C5 C 0.3811(3) 0.37328(14) 0.13113(12)
H5 H 0.3828 0.3150 0.1377
C6 C 0.2425(3) 0.42000(14) 0.15330(12)
C7 C 0.0808(3) 0.39222(14) 0.19098(13)
C8 C 0.6716(3) 0.36540(14) 0.07538(12)
K1E K 0.70989(6) 0.71723(3) 0.20644(3)
K1G K 0.29011(6) 0.21723(3) 0.29356(3)
K1B K -0.20989(6) 0.21723(3) 0.20644(3)
K1E_2 K -0.29011(6) 0.71723(3) 0.20644(3)
K1B_2 K 0.79011(6) 0.21723(3) 0.20644(3)
O3E O -0.0555(2) 0.67819(10) 0.41382(9)
O4G O 0.4373(2) 0.82230(10) 0.21357(9)
O4B O -0.0627(2) 0.82230(10) 0.28643(9)
O5E O 0.4770(2) 0.60987(10) 0.25166(9)
O6E O 0.3664(2) 0.58848(10) 0.38569(9)
O8B O 0.3153(2) 0.79294(10) 0.40991(9)
O9 O 1.0655(2) 0.33250(12) 0.02454(11)
H2 H 1.067(5) 0.288(2) 0.0436(19)
H3 H 1.104(5) 0.333(2) -0.017(2)
loop_
_geom_bond_atom_site_label_1
_geom_bond_atom_site_label_2
_geom_bond_site_symmetry_1
_geom_bond_site_symmetry_2
V1 O1 1_555 1_555
K1 O1 1_555 1_555
O1 C1 1_555 1_555
O2 V1 1_555 1_555
O3 C1 1_555 1_555
O4 C7 1_555 1_555
O5 V1 1_555 1_555
O6 V1 1_555 1_555
O7 H1 1_555 1_555
O8 C8 1_555 1_555
O9 H2 1_555 1_555
H3 O9 1_555 1_555
N1 V1 1_555 1_555
C1 C2 1_555 1_555
C2 N1 1_555 1_555
C3 C2 1_555 1_555
H4 C3 1_555 1_555
C4 C3 1_555 1_555
C5 C4 1_555 1_555
H5 C5 1_555 1_555
C6 N1 1_555 1_555
C7 O2 1_555 1_555
C8 O7 1_555 1_555
K1E O3 1_555 1_555
K1G O4 1_555 1_555
K1B O4 1_555 1_555
K1E_2 O5 1_555 1_555
K1B_2 O8 1_555 1_555
O3E K1 1_555 1_555
O4G K1 1_555 1_555
O4B K1 1_555 1_555
O5E K1 1_555 1_555
O6E K1 1_555 1_555
O8B K1 1_555 1_555
K1 O5 1_555 1_555
O6 K1E_2 1_555 1_555
C4 C8 1_555 1_555
C5 C6 1_555 1_555
C6 C7 1_555 1_555
K1E O4G 1_555 1_555
K1E O5E 1_555 1_555
K1E_2 O4B 1_555 1_555

#END
