
#######################################################################
#
#                 Cambridge Crystallographic Data Centre
#                                CCDC 
#
#######################################################################
#
# If this CIF has been generated from an entry in the Cambridge 
# Structural Database, then it will include bibliographic, chemical, 
# crystal, experimental, refinement or atomic coordinate data resulting 
# from the CCDC's data processing and validation procedures.
#
#######################################################################

data_WIHNOR
_symmetry_cell_setting           orthorhombic
_symmetry_space_group_name_H-M   'P b c a'
_symmetry_Int_Tables_number      61
_space_group_name_Hall           '-P 2ac 2ab'
loop_
_symmetry_equiv_pos_site_id
_symmetry_equiv_pos_as_xyz
1 x,y,z
2 1/2-x,-y,1/2+z
3 -x,1/2+y,1/2-z
4 1/2+x,1/2-y,-z
5 -x,-y,-z
6 1/2+x,y,1/2-z
7 x,1/2-y,1/2+z
8 1/2-x,1/2+y,z
_cell_length_a                   11.7563(4)
_cell_length_b                   16.3925(5)
_cell_length_c                   19.7019(7)
_cell_angle_alpha                90
_cell_angle_beta                 90
_cell_angle_gamma                90
_cell_volume                     3796.85
loop_
_atom_site_label
_atom_site_type_symbol
_atom_site_fract_x
_atom_site_fract_y
_atom_site_fract_z
Zn1 Zn 0.03302(3) 0.11133(2) 0.628053(18)
O1 O 0.13272(19) 0.23097(12) 0.56729(11)
O2 O -0.01621(18) 0.15596(12) 0.53795(11)
O3 O 0.0110(2) 0.32360(13) 0.20996(12)
O4 O 0.1115(3) 0.42520(19) 0.25268(15)
N1 N 0.1814(2) 0.04851(14) 0.60977(13)
N2 N 0.9127(2) 0.01958(15) 0.63451(13)
C1 C 0.0592(3) 0.24763(17) 0.45592(17)
C2 C -0.0246(3) 0.22873(18) 0.40925(17)
H1 H -0.0842 0.1945 0.4217
C3 C -0.0204(3) 0.26049(18) 0.34390(18)
H2 H -0.0761 0.2464 0.3125
C4 C 0.0664(3) 0.31303(19) 0.32547(17)
C5 C 0.1504(3) 0.3327(2) 0.37208(18)
H3 H 0.2086 0.3682 0.3600
C6 C 0.1473(3) 0.29935(18) 0.43646(17)
H4 H 0.2048 0.3116 0.4672
C7 C 0.0599(3) 0.21031(18) 0.52526(17)
C8 C 0.0673(3) 0.3545(2) 0.2571(2)
C9 C 0.1854(3) -0.03344(18) 0.60805(18)
H5 H 0.1177 -0.0623 0.6123
C10 C 0.2853(3) -0.07658(19) 0.60027(19)
H6 H 0.2839 -0.1333 0.5988
C11 C 0.3881(3) -0.03531(18) 0.59467(17)
C12 C 0.3835(3) 0.04878(18) 0.59680(18)
H7 H 0.4501 0.0790 0.5928
C13 C 0.2810(3) 0.08814(19) 0.60476(18)
H8 H 0.2807 0.1448 0.6068
C14 C 0.5000(2) -0.07953(19) 0.58788(18)
H9 H 0.5587 -0.0406 0.5757
H10 H 0.4943 -0.1190 0.5514
C15 C 0.5349(3) -0.12322(18) 0.65255(19)
H11 H 0.4779 -0.1639 0.6636
H12 H 0.5372 -0.0841 0.6895
C16 C 0.6511(3) -0.16502(19) 0.6468(2)
H13 H 0.6632 -0.1994 0.6863
H14 H 0.6521 -0.1996 0.6069
C17 C 0.7464(3) -0.10311(19) 0.64198(17)
C18 C 0.7910(3) -0.0679(2) 0.69933(18)
H15 H 0.7660 -0.0847 0.7418
C19 C 0.8727(3) -0.0077(2) 0.69445(18)
H16 H 0.9012 0.0151 0.7342
C20 C 0.7884(3) -0.07596(18) 0.58023(18)
H17 H 0.7619 -0.0988 0.5400
C21 C 0.8697(3) -0.01512(18) 0.57826(17)
H18 H 0.8957 0.0026 0.5362
Zn1F Zn 0.03302(3) 0.38867(2) 0.128053(18)
Zn1_2 Zn 1.03302(3) 0.11133(2) 0.628053(18)
O3F O 0.0110(2) 0.17640(13) 0.70996(12)
N2_2 N -0.0873(2) 0.01958(15) 0.63451(13)
loop_
_geom_bond_atom_site_label_1
_geom_bond_atom_site_label_2
_geom_bond_site_symmetry_1
_geom_bond_site_symmetry_2
Zn1 O2 1_555 1_555
O1 C7 1_555 1_555
O2 C7 1_555 1_555
O3 C8 1_555 1_555
O4 C8 1_555 1_555
N1 Zn1 1_555 1_555
N2 C19 1_555 1_555
C1 C2 1_555 1_555
C2 H1 1_555 1_555
C3 C2 1_555 1_555
H2 C3 1_555 1_555
C4 C3 1_555 1_555
C5 C4 1_555 1_555
H3 C5 1_555 1_555
C6 C1 1_555 1_555
H4 C6 1_555 1_555
C7 C1 1_555 1_555
C8 C4 1_555 1_555
C9 N1 1_555 1_555
H5 C9 1_555 1_555
C10 C9 1_555 1_555
H6 C10 1_555 1_555
C11 C10 1_555 1_555
C12 C11 1_555 1_555
H7 C12 1_555 1_555
C13 N1 1_555 1_555
H8 C13 1_555 1_555
C14 C11 1_555 1_555
H9 C14 1_555 1_555
H10 C14 1_555 1_555
C15 C14 1_555 1_555
H11 C15 1_555 1_555
H12 C15 1_555 1_555
C16 C15 1_555 1_555
H13 C16 1_555 1_555
H14 C16 1_555 1_555
C17 C16 1_555 1_555
C18 C17 1_555 1_555
H15 C18 1_555 1_555
C19 C18 1_555 1_555
H16 C19 1_555 1_555
C20 C17 1_555 1_555
H17 C20 1_555 1_555
C21 N2 1_555 1_555
H18 C21 1_555 1_555
Zn1F O3 1_555 1_555
Zn1_2 N2 1_555 1_555
O3F Zn1 1_555 1_555
N2_2 Zn1 1_555 1_555
C5 C6 1_555 1_555
C12 C13 1_555 1_555
C20 C21 1_555 1_555

#END
