
#######################################################################
#
#                 Cambridge Crystallographic Data Centre
#                                CCDC 
#
#######################################################################
#
# If this CIF has been generated from an entry in the Cambridge 
# Structural Database, then it will include bibliographic, chemical, 
# crystal, experimental, refinement or atomic coordinate data resulting 
# from the CCDC's data processing and validation procedures.
#
#######################################################################

data_WIHPUA
_symmetry_cell_setting           triclinic
_symmetry_space_group_name_H-M   'P -1'
_symmetry_Int_Tables_number      2
_space_group_name_Hall           '-P 1'
loop_
_symmetry_equiv_pos_site_id
_symmetry_equiv_pos_as_xyz
1 x,y,z
2 -x,-y,-z
_cell_length_a                   8.132(5)
_cell_length_b                   11.001(7)
_cell_length_c                   12.752(8)
_cell_angle_alpha                89.618(8)
_cell_angle_beta                 88.362(8)
_cell_angle_gamma                70.727(7)
_cell_volume                     1076.42
loop_
_atom_site_label
_atom_site_type_symbol
_atom_site_fract_x
_atom_site_fract_y
_atom_site_fract_z
Zn1 Zn -0.00352(4) 0.86606(2) 0.31757(2)
O1 O 0.2449(2) 0.82357(15) 0.32551(14)
O2 O 0.2496(2) 0.62216(17) 0.32256(16)
O3 O 0.9481(3) 0.08622(17) 0.16197(15)
O4 O 0.8911(2) 0.05181(15) 0.32851(14)
C1 C 0.3234(3) 0.7021(2) 0.32498(19)
C2 C 0.5185(3) 0.6658(2) 0.3309(3)
H1 H 0.5463 0.6876 0.4002
H2 H 0.5580 0.7175 0.2807
C3 C 0.6192(3) 0.5255(2) 0.3098(2)
C4 C 0.6604(3) 0.4802(2) 0.2085(2)
H3 H 0.6268 0.5371 0.1527
C5 C 0.7505(3) 0.3520(2) 0.1884(2)
H4 H 0.7790 0.3236 0.1196
C6 C 0.7987(3) 0.2656(2) 0.27019(18)
C7 C 0.7576(3) 0.3112(2) 0.3714(2)
H5 H 0.7890 0.2542 0.4273
C8 C 0.6711(3) 0.4397(2) 0.3911(2)
H6 H 0.6474 0.4687 0.4600
C9 C 0.8873(3) 0.1247(2) 0.2500(2)
C10 C -0.1159(3) 0.7018(2) 0.4721(2)
H7 H -0.0563 0.6360 0.4258
C11 C -0.1921(3) 0.6706(2) 0.5602(2)
H8 H -0.1837 0.5854 0.5726
C12 C -0.2810(3) 0.7645(3) 0.6306(2)
C13 C -0.2858(4) 0.8891(3) 0.6073(2)
H9 H -0.3429 0.9562 0.6530
C14 C -0.2070(4) 0.9131(2) 0.5175(2)
H10 H -0.2126 0.9975 0.5035
C15 C -0.3644(4) 0.7349(3) 0.7291(2)
H11 H -0.4850 0.7906 0.7336
H12 H -0.3636 0.6466 0.7261
C16 C -0.2739(4) 0.7526(3) 0.8251(2)
H13 H -0.2808 0.8421 0.8300
H14 H -0.1517 0.7009 0.8183
C17 C -0.3504(4) 0.7151(3) 0.9259(2)
H15 H -0.4749 0.7606 0.9297
H16 H -0.3328 0.6235 0.9245
C18 C -0.2683(4) 0.7463(3) 1.02174(19)
C19 C -0.3576(4) 0.8434(3) 1.0890(2)
H17 H -0.4737 0.8905 1.0777
C20 C -0.2752(4) 0.8709(3) 1.1727(2)
H18 H -0.3381 0.9382 1.2168
C21 C -0.0234(4) 0.7128(3) 1.1304(2)
H19 H 0.0920 0.6662 1.1442
C22 C -0.0975(4) 0.6812(3) 1.0435(2)
H20 H -0.0313 0.6153 0.9992
N1 N -0.1222(2) 0.82147(18) 0.44875(14)
N2 N -0.1106(3) 0.80714(18) 1.19517(15)
Zn1_2 Zn -0.00352(4) 0.86606(2) 1.31757(2)
Zn1_3 Zn 0.99648(4) -0.13394(2) 0.31757(2)
O4_2 O -0.1089(2) 1.05181(15) 0.32851(14)
N2_2 N -0.1106(3) 0.80714(18) 0.19517(15)
O5 O 0.2202(3) 0.8935(3) 0.04047(19)
H21 H 0.1502 0.9434 0.0847
H22 H 0.1841 0.8916 -0.0212
loop_
_geom_bond_atom_site_label_1
_geom_bond_atom_site_label_2
_geom_bond_site_symmetry_1
_geom_bond_site_symmetry_2
Zn1 O1 1_555 1_555
O1 C1 1_555 1_555
O2 C1 1_555 1_555
O3 C9 1_555 1_555
O4 C9 1_555 1_555
C1 C2 1_555 1_555
C2 H1 1_555 1_555
H2 C2 1_555 1_555
C3 C2 1_555 1_555
C4 C3 1_555 1_555
H3 C4 1_555 1_555
C5 C4 1_555 1_555
H4 C5 1_555 1_555
C6 C5 1_555 1_555
C7 C6 1_555 1_555
H5 C7 1_555 1_555
C8 C3 1_555 1_555
H6 C8 1_555 1_555
C9 C6 1_555 1_555
C10 H7 1_555 1_555
C11 C10 1_555 1_555
H8 C11 1_555 1_555
C12 C11 1_555 1_555
C13 C12 1_555 1_555
H9 C13 1_555 1_555
C14 C13 1_555 1_555
H10 C14 1_555 1_555
C15 C12 1_555 1_555
H11 C15 1_555 1_555
H12 C15 1_555 1_555
C16 C15 1_555 1_555
H13 C16 1_555 1_555
H14 C16 1_555 1_555
C17 C16 1_555 1_555
H15 C17 1_555 1_555
H16 C17 1_555 1_555
C18 C17 1_555 1_555
C19 C18 1_555 1_555
H17 C19 1_555 1_555
C20 C19 1_555 1_555
H18 C20 1_555 1_555
C21 H19 1_555 1_555
C22 C18 1_555 1_555
H20 C22 1_555 1_555
N1 Zn1 1_555 1_555
N2 C20 1_555 1_555
O5 H21 1_555 1_555
H22 O5 1_555 1_555
Zn1_2 N2 1_555 1_555
Zn1_3 O4 1_555 1_555
O4_2 Zn1 1_555 1_555
N2_2 Zn1 1_555 1_555
C7 C8 1_555 1_555
C10 N1 1_555 1_555
C14 N1 1_555 1_555
C21 C22 1_555 1_555
C21 N2 1_555 1_555

#END
