
#######################################################################
#
#                 Cambridge Crystallographic Data Centre
#                                CCDC 
#
#######################################################################
#
# If this CIF has been generated from an entry in the Cambridge 
# Structural Database, then it will include bibliographic, chemical, 
# crystal, experimental, refinement or atomic coordinate data resulting 
# from the CCDC's data processing and validation procedures.
#
#######################################################################

data_WIHQIN
_symmetry_cell_setting           monoclinic
_symmetry_space_group_name_H-M   'P 21/n'
_symmetry_Int_Tables_number      14
_space_group_name_Hall           '-P 2yn'
loop_
_symmetry_equiv_pos_site_id
_symmetry_equiv_pos_as_xyz
1 x,y,z
2 1/2+x,1/2-y,1/2+z
3 -x,-y,-z
4 1/2-x,1/2+y,1/2-z
_cell_length_a                   7.77710(10)
_cell_length_b                   10.3595(2)
_cell_length_c                   25.7150(4)
_cell_angle_alpha                90
_cell_angle_beta                 92.2860(10)
_cell_angle_gamma                90
_cell_volume                     2070.13
loop_
_atom_site_label
_atom_site_type_symbol
_atom_site_fract_x
_atom_site_fract_y
_atom_site_fract_z
V2 V 0.25960(7) 0.21390(6) 0.23014(2)
V3 V -0.05334(7) 0.45226(6) 0.25595(2)
V4 V -0.04555(7) -0.01921(6) 0.27488(2)
V5 V 0.62579(7) 0.22498(6) 0.27618(2)
O3 O 0.0934(3) 0.0950(2) 0.25322(10)
O4 O 0.0875(3) 0.3461(2) 0.22991(11)
O5 O 0.2855(3) 0.1891(3) 0.16978(10)
O6 O 0.4402(3) 0.1063(2) 0.26573(10)
O7 O 0.4350(3) 0.3374(2) 0.25546(10)
O8 O -0.0265(3) 0.4449(3) 0.31767(10)
O9 O -0.2508(3) 0.0817(2) 0.25934(10)
O10 O -0.0169(3) -0.0255(3) 0.33694(10)
O11 O -0.2425(3) -0.1521(2) 0.25879(10)
O12 O 0.6609(3) 0.2464(2) 0.33715(10)
O6C O 0.0598(3) 0.6063(2) 0.23427(10)
O9C O -0.2492(3) 0.5817(2) 0.24066(10)
O11C O -0.2575(3) 0.3479(2) 0.24121(10)
O7C O 0.0650(3) -0.1626(2) 0.24454(10)
O9_2 O 0.7492(3) 0.0817(2) 0.25934(10)
O11C_2 O 0.7425(3) 0.3479(2) 0.24121(10)
V3C V 0.55334(7) -0.04774(6) 0.24405(2)
V4C V 0.54555(7) 0.48079(6) 0.22512(2)
V3C_2 V -0.44666(7) -0.04774(6) 0.24405(2)
V5_2 V -0.37421(7) 0.22498(6) 0.27618(2)
V5C V -0.12579(7) -0.27502(6) 0.22382(2)
V1 V 0.20332(8) 0.18660(6) -0.00227(2)
O1 O 0.2463(4) 0.0885(3) 0.04540(10)
O2 O 0.3670(4) 0.2791(3) -0.01169(11)
N1 N 0.0541(4) 0.3202(3) 0.03828(12)
N2 N -0.0319(4) 0.1981(3) -0.04509(12)
N3 N 0.2213(4) 0.0501(3) -0.06225(12)
C1 C 0.1105(6) 0.3738(4) 0.08340(16)
C2 C 0.0116(6) 0.4636(4) 0.10915(16)
C3 C -0.1500(6) 0.4958(4) 0.08883(17)
C4 C -0.2098(5) 0.4392(4) 0.04275(16)
C5 C -0.1040(5) 0.3522(4) 0.01772(15)
C6 C -0.1509(5) 0.2867(4) -0.03142(15)
C7 C -0.2970(5) 0.3087(4) -0.06335(16)
C8 C -0.3208(5) 0.2348(4) -0.10782(17)
C9 C -0.2021(5) 0.1420(4) -0.12070(16)
C10 C -0.0558(5) 0.1260(4) -0.08801(14)
C11 C 0.0836(5) 0.0326(4) -0.09555(14)
C12 C 0.0773(5) -0.0670(4) -0.13120(15)
C13 C 0.2166(5) -0.1503(4) -0.13372(16)
C14 C 0.3592(6) -0.1315(4) -0.10103(16)
C15 C 0.3572(5) -0.0297(4) -0.06613(15)
H1 H 0.221(7) 0.351(5) 0.095(2)
H2 H 0.056(6) 0.497(5) 0.1377(19)
H3 H -0.213(7) 0.551(5) 0.105(2)
H4 H -0.320(7) 0.455(5) 0.0260(19)
H5 H -0.384(7) 0.373(5) -0.0523(19)
H6 H -0.418(6) 0.252(5) -0.1286(18)
H7 H -0.222(6) 0.093(5) -0.148(2)
H8 H -0.019(7) -0.076(5) -0.153(2)
H9 H 0.214(6) -0.210(5) -0.1601(19)
H10 H 0.445(6) -0.179(5) -0.1041(18)
H11 H 0.448(6) -0.016(5) -0.0435(18)
loop_
_geom_bond_atom_site_label_1
_geom_bond_atom_site_label_2
_geom_bond_site_symmetry_1
_geom_bond_site_symmetry_2
V1 O1 1_555 1_555
V2 O3 1_555 1_555
V3 O4 1_555 1_555
V4 O3 1_555 1_555
V5 O6 1_555 1_555
O2 V1 1_555 1_555
O4 V2 1_555 1_555
O5 V2 1_555 1_555
O6 V2 1_555 1_555
O7 V2 1_555 1_555
O8 V3 1_555 1_555
O9 V4 1_555 1_555
O10 V4 1_555 1_555
O11 V4 1_555 1_555
O12 V5 1_555 1_555
N1 V1 1_555 1_555
N2 V1 1_555 1_555
N3 V1 1_555 1_555
C1 N1 1_555 1_555
C2 C1 1_555 1_555
C3 C2 1_555 1_555
C4 C3 1_555 1_555
C5 N1 1_555 1_555
C6 N2 1_555 1_555
C7 C6 1_555 1_555
C8 C7 1_555 1_555
C9 C8 1_555 1_555
C10 N2 1_555 1_555
C11 N3 1_555 1_555
C12 C11 1_555 1_555
C13 C12 1_555 1_555
C14 C13 1_555 1_555
C15 N3 1_555 1_555
H1 C1 1_555 1_555
H2 C2 1_555 1_555
H3 C3 1_555 1_555
H4 C4 1_555 1_555
H5 C7 1_555 1_555
H6 C8 1_555 1_555
H7 C9 1_555 1_555
H8 C12 1_555 1_555
H9 C13 1_555 1_555
H10 C14 1_555 1_555
H11 C15 1_555 1_555
O6C V3 1_555 1_555
O9C V3 1_555 1_555
O11C V3 1_555 1_555
O7C V4 1_555 1_555
O9_2 V5 1_555 1_555
O11C_2 V5 1_555 1_555
V3C O6 1_555 1_555
V4C O7 1_555 1_555
V3C_2 O9 1_555 1_555
V5_2 O9 1_555 1_555
V5C O11 1_555 1_555
V5 O7 1_555 1_555
O11 V3C_2 1_555 1_555
C4 C5 1_555 1_555
C5 C6 1_555 1_555
C9 C10 1_555 1_555
C10 C11 1_555 1_555
C14 C15 1_555 1_555
O11C V5_2 1_555 1_555
O7C V5C 1_555 1_555
O9_2 V3C 1_555 1_555
O11C_2 V4C 1_555 1_555

#END
