
#######################################################################
#
#                 Cambridge Crystallographic Data Centre
#                                CCDC 
#
#######################################################################
#
# If this CIF has been generated from an entry in the Cambridge 
# Structural Database, then it will include bibliographic, chemical, 
# crystal, experimental, refinement or atomic coordinate data resulting 
# from the CCDC's data processing and validation procedures.
#
#######################################################################

data_WIHQEJ
_symmetry_cell_setting           triclinic
_symmetry_space_group_name_H-M   'P -1'
_symmetry_Int_Tables_number      2
_space_group_name_Hall           '-P 1'
loop_
_symmetry_equiv_pos_site_id
_symmetry_equiv_pos_as_xyz
1 x,y,z
2 -x,-y,-z
_cell_length_a                   12.2071(7)
_cell_length_b                   13.8855(8)
_cell_length_c                   16.9832(10)
_cell_angle_alpha                69.5840(10)
_cell_angle_beta                 71.2040(10)
_cell_angle_gamma                84.6400(10)
_cell_volume                     2553.4
loop_
_atom_site_label
_atom_site_type_symbol
_atom_site_fract_x
_atom_site_fract_y
_atom_site_fract_z
V1 V -0.36234(6) -0.52728(5) 0.46424(5)
O1 O -0.2265(2) -0.4983(2) 0.42296(19)
O2 O -0.4303(2) -0.4204(2) 0.47222(18)
N1 N -0.3861(3) -0.5345(3) 0.3500(2)
N2 N -0.3803(3) -0.6858(3) 0.4862(2)
N3 N -0.3565(3) -0.6028(3) 0.5931(2)
C1 C -0.3783(4) -0.4494(4) 0.2789(3)
C2 C -0.3908(4) -0.4536(4) 0.2025(3)
C3 C -0.4145(4) -0.5474(4) 0.1993(3)
C4 C -0.4225(4) -0.6355(4) 0.2717(3)
C5 C -0.4060(4) -0.6273(3) 0.3458(3)
C6 C -0.4086(4) -0.7137(3) 0.4273(3)
C7 C -0.4382(4) -0.8160(3) 0.4449(3)
C8 C -0.4391(4) -0.8870(3) 0.5272(3)
C9 C -0.4123(4) -0.8563(3) 0.5872(3)
C10 C -0.3821(4) -0.7541(3) 0.5651(3)
C11 C -0.3600(3) -0.7067(3) 0.6244(3)
C12 C -0.3444(4) -0.7625(3) 0.7056(3)
C13 C -0.3264(4) -0.7082(4) 0.7548(3)
C14 C -0.3240(4) -0.6027(4) 0.7241(3)
C15 C -0.3389(4) -0.5514(3) 0.6425(3)
H1 H -0.364(4) -0.394(3) 0.284(3)
H2 H -0.383(3) -0.395(3) 0.158(3)
H3 H -0.424(3) -0.553(3) 0.150(3)
H4 H -0.442(4) -0.702(4) 0.275(3)
H5 H -0.456(4) -0.837(4) 0.403(3)
H6 H -0.466(3) -0.960(3) 0.543(3)
H7 H -0.420(4) -0.892(3) 0.634(3)
H8 H -0.343(4) -0.844(4) 0.728(3)
H9 H -0.315(4) -0.741(4) 0.803(3)
H10 H -0.316(3) -0.572(3) 0.758(3)
H11 H -0.342(3) -0.471(3) 0.621(2)
V1A V -0.63766(6) -0.47272(5) 0.53576(5)
O1A O -0.7735(2) -0.5017(2) 0.57704(19)
O2A O -0.5697(2) -0.5796(2) 0.52778(18)
N1A N -0.6139(3) -0.4655(3) 0.6500(2)
C1A C -0.6217(4) -0.5506(4) 0.7211(3)
C2A C -0.6092(4) -0.5464(4) 0.7975(3)
C3A C -0.5855(4) -0.4526(4) 0.8007(3)
C4A C -0.5775(4) -0.3645(4) 0.7283(3)
C5A C -0.5940(4) -0.3727(3) 0.6542(3)
C6A C -0.5914(4) -0.2863(3) 0.5727(3)
N2A N -0.6197(3) -0.3142(3) 0.5138(2)
N3A N -0.6435(3) -0.3972(3) 0.4069(2)
C11A C -0.6400(3) -0.2933(3) 0.3756(3)
C10A C -0.6179(4) -0.2459(3) 0.4349(3)
C9A C -0.5877(4) -0.1437(3) 0.4128(3)
C8A C -0.5609(4) -0.1130(3) 0.4728(3)
C7A C -0.5618(4) -0.1840(3) 0.5551(3)
H5A H -0.544(4) -0.163(4) 0.597(3)
H6A H -0.534(3) -0.040(3) 0.457(3)
H7A H -0.580(4) -0.108(3) 0.366(3)
C12A C -0.6556(4) -0.2375(3) 0.2944(3)
C13A C -0.6736(4) -0.2918(4) 0.2452(3)
C14A C -0.6760(4) -0.3973(4) 0.2759(3)
C15A C -0.6611(4) -0.4486(3) 0.3575(3)
H11A H -0.658(3) -0.529(3) 0.379(2)
H10A H -0.684(3) -0.428(3) 0.242(3)
H9A H -0.685(4) -0.259(4) 0.197(3)
H8A H -0.657(4) -0.156(4) 0.272(3)
H4A H -0.558(4) -0.298(4) 0.725(3)
H3A H -0.576(3) -0.447(3) 0.850(3)
H2A H -0.617(3) -0.605(3) 0.842(3)
H1A H -0.636(4) -0.606(3) 0.716(3)
V2 V -0.02101(6) -0.20253(5) 0.13147(5)
V3 V -0.28169(6) -0.15629(5) 0.21632(5)
O3 O 0.1117(2) -0.1673(2) 0.08101(19)
O4 O -0.0894(2) -0.0968(2) 0.14483(19)
O5 O -0.2112(2) -0.2610(2) 0.20307(18)
O6 O -0.4133(2) -0.1950(2) 0.26677(19)
N4 N -0.0525(3) -0.2106(3) 0.0190(2)
N5 N -0.0279(3) -0.3625(3) 0.1506(2)
N6 N 0.0039(3) -0.2797(3) 0.2550(2)
N7 N -0.3088(3) -0.0820(3) 0.0934(2)
N8 N -0.2793(3) 0.0035(3) 0.1970(2)
N9 N -0.2537(3) -0.1470(3) 0.3294(2)
C16 C -0.0517(4) -0.1261(4) -0.0514(3)
C17 C -0.0737(4) -0.1317(4) -0.1243(3)
C18 C -0.1008(4) -0.2267(4) -0.1245(3)
C19 C -0.1015(4) -0.3138(4) -0.0529(3)
C20 C -0.0740(3) -0.3043(3) 0.0174(3)
C21 C -0.0641(3) -0.3914(3) 0.0951(3)
C22 C -0.0928(4) -0.4939(3) 0.1146(3)
C23 C -0.0823(4) -0.5652(3) 0.1926(3)
C24 C -0.0458(4) -0.5345(3) 0.2496(3)
C25 C -0.0197(3) -0.4313(3) 0.2271(3)
C26 C 0.0088(4) -0.3843(3) 0.2833(3)
C27 C 0.0371(4) -0.4387(4) 0.3597(3)
C28 C 0.0565(4) -0.3852(4) 0.4093(3)
C29 C 0.0496(4) -0.2794(4) 0.3815(3)
C30 C 0.0246(4) -0.2292(4) 0.3034(3)
C31 C -0.3313(4) -0.1340(4) 0.0462(3)
C32 C -0.3570(4) -0.0851(4) -0.0311(3)
C33 C -0.3608(4) 0.0208(4) -0.0609(3)
C34 C -0.3392(4) 0.0750(4) -0.0131(3)
C35 C -0.3127(3) 0.0218(3) 0.0642(3)
C36 C -0.2852(3) 0.0712(3) 0.1200(3)
C37 C -0.2632(4) 0.1744(4) 0.0981(3)
C38 C -0.2340(4) 0.2074(3) 0.1567(3)
C39 C -0.2284(4) 0.1376(3) 0.2369(3)
C40 C -0.2512(4) 0.0344(3) 0.2550(3)
C41 C -0.2456(4) -0.0522(3) 0.3348(3)
C42 C -0.2365(4) -0.0416(4) 0.4104(3)
C43 C -0.2372(4) -0.1288(4) 0.4821(3)
C44 C -0.2469(4) -0.2241(4) 0.4767(3)
C45 C -0.2548(4) -0.2310(4) 0.3992(3)
H12 H -0.031(4) -0.066(4) -0.047(3)
H13 H -0.075(4) -0.079(4) -0.167(3)
H14 H -0.116(4) -0.234(3) -0.177(3)
H15 H -0.123(4) -0.379(4) -0.043(3)
H16 H -0.114(3) -0.512(3) 0.072(3)
H17 H -0.112(3) -0.638(3) 0.208(3)
H18 H -0.039(4) -0.583(4) 0.294(3)
H19 H 0.049(3) -0.511(3) 0.377(3)
H20 H 0.084(4) -0.429(4) 0.463(3)
H21 H 0.063(3) -0.241(3) 0.413(3)
H22 H 0.014(4) -0.157(4) 0.287(3)
H23 H -0.325(4) -0.207(4) 0.064(3)
H24 H -0.365(3) -0.116(3) -0.061(3)
H25 H -0.376(4) 0.049(3) -0.108(3)
H26 H -0.344(4) 0.146(4) -0.029(3)
H27 H -0.261(3) 0.213(3) 0.050(3)
H28 H -0.213(4) 0.282(4) 0.140(3)
H29 H -0.210(4) 0.160(4) 0.278(3)
H30 H -0.231(4) 0.025(4) 0.412(3)
H31 H -0.234(4) -0.125(4) 0.533(3)
H32 H -0.251(4) -0.277(4) 0.519(3)
H33 H -0.268(4) -0.293(4) 0.398(3)
V4 V -0.69865(7) -0.43342(6) 0.04909(5)
V5 V -0.57813(7) -0.65559(6) 0.07726(5)
V6 V -0.40245(6) -0.11107(5) -0.25100(5)
V7 V -0.13967(6) -0.00062(5) -0.36245(5)
V8 V 0.05606(6) -0.17289(6) -0.41921(5)
O7 O -0.7419(3) -0.3601(2) 0.1092(2)
O8 O -0.8022(3) -0.4424(2) 0.0105(2)
O9 O -0.6599(3) -0.5598(2) 0.1163(2)
O10 O -0.6112(3) -0.6598(3) -0.0056(2)
O11 O -0.5691(3) -0.3749(2) -0.0448(2)
O12 O -0.6133(3) -0.7736(2) 0.1619(2)
O13 O -0.4456(3) -0.0193(2) -0.20999(19)
O14 O -0.4962(3) -0.1260(2) -0.2961(2)
O15 O -0.2636(3) -0.0720(2) -0.34022(19)
O16 O -0.0208(3) -0.0823(2) -0.3644(2)
O17 O -0.1579(3) 0.0442(2) -0.28355(19)
O18 O 0.1176(3) -0.1016(2) -0.5376(2)
O19 O -0.1575(3) 0.2227(2) -0.62463(19)
O20 O 0.0313(3) 0.2644(2) -0.5959(2)
O11A O -0.4309(3) -0.6251(2) 0.0448(2)
V4A V -0.30135(7) -0.56658(6) -0.04909(5)
O7A O -0.2581(3) -0.6399(2) -0.1092(2)
O8A O -0.1978(3) -0.5576(2) -0.0105(2)
O9A O -0.3401(3) -0.4402(2) -0.1163(2)
V5A V -0.42187(7) -0.34441(6) -0.07726(5)
O10A O -0.3888(3) -0.3402(3) 0.0056(2)
O12A O -0.3867(3) -0.2264(2) -0.1619(2)
V6A V -0.59755(6) -0.88893(5) 0.25100(5)
V7A V 0.13967(6) 0.00062(5) -0.63755(5)
O15A O 0.2636(3) 0.0720(2) -0.65978(19)
V6A_2 V 0.40245(6) 0.11107(5) -0.74900(5)
O12_2 O 0.3867(3) 0.2264(2) -0.8381(2)
O13A O 0.4456(3) 0.0193(2) -0.79001(19)
O14A O 0.4962(3) 0.1260(2) -0.7039(2)
O16A O 0.0208(3) 0.0823(2) -0.6356(2)
V8A V -0.05606(6) 0.17289(6) -0.58079(5)
O18A O -0.1176(3) 0.1016(2) -0.4624(2)
O17A O 0.1579(3) -0.0442(2) -0.71645(19)
O19A O 0.1575(3) -0.2227(2) -0.37537(19)
O20A O -0.0313(3) -0.2644(2) -0.4041(2)
O21 O -1.2518(3) -1.3635(3) 0.6844(2)
loop_
_geom_bond_atom_site_label_1
_geom_bond_atom_site_label_2
_geom_bond_site_symmetry_1
_geom_bond_site_symmetry_2
V1 O1 1_555 1_555
V2 O3 1_555 1_555
V3 O4 1_555 1_555
V4 O7 1_555 1_555
V5 O9 1_555 1_555
V6 O13 1_555 1_555
V7 O15 1_555 1_555
V8 O16 1_555 1_555
O2 V1 1_555 1_555
O4 V2 1_555 1_555
O5 V2 1_555 1_555
O6 V3 1_555 1_555
O8 V4 1_555 1_555
O9 V4 1_555 1_555
O10 V5 1_555 1_555
O11 V4 1_555 1_555
O12 V5 1_555 1_555
O14 V6 1_555 1_555
O15 V6 1_555 1_555
O16 V7 1_555 1_555
O17 V7 1_555 1_555
O18 V8 1_555 1_555
O19 V8A 1_555 1_555
O20 V8A 1_555 1_555
N1 V1 1_555 1_555
N2 V1 1_555 1_555
N3 V1 1_555 1_555
N4 V2 1_555 1_555
N5 V2 1_555 1_555
N6 V2 1_555 1_555
N7 V3 1_555 1_555
N8 V3 1_555 1_555
N9 V3 1_555 1_555
C1 N1 1_555 1_555
C2 C1 1_555 1_555
C3 C2 1_555 1_555
C4 C3 1_555 1_555
C5 N1 1_555 1_555
C6 N2 1_555 1_555
C7 C6 1_555 1_555
C8 C7 1_555 1_555
C9 C8 1_555 1_555
C10 N2 1_555 1_555
C11 N3 1_555 1_555
C12 C11 1_555 1_555
C13 C12 1_555 1_555
C14 C13 1_555 1_555
C15 N3 1_555 1_555
C16 N4 1_555 1_555
C17 C16 1_555 1_555
C18 C17 1_555 1_555
C19 C18 1_555 1_555
C20 N4 1_555 1_555
C21 N5 1_555 1_555
C22 C21 1_555 1_555
C23 C22 1_555 1_555
C24 C23 1_555 1_555
C25 N5 1_555 1_555
C26 N6 1_555 1_555
C27 C26 1_555 1_555
C28 C27 1_555 1_555
C29 C28 1_555 1_555
C30 N6 1_555 1_555
C31 N7 1_555 1_555
C32 C31 1_555 1_555
C33 C32 1_555 1_555
C34 C33 1_555 1_555
C35 N7 1_555 1_555
C36 N8 1_555 1_555
C37 C36 1_555 1_555
C38 C37 1_555 1_555
C39 C38 1_555 1_555
C40 N8 1_555 1_555
C41 N9 1_555 1_555
C42 C41 1_555 1_555
C43 C42 1_555 1_555
C44 C43 1_555 1_555
C45 N9 1_555 1_555
H1 C1 1_555 1_555
H2 C2 1_555 1_555
H3 C3 1_555 1_555
H4 C4 1_555 1_555
H5 C7 1_555 1_555
H6 C8 1_555 1_555
H7 C9 1_555 1_555
H8 C12 1_555 1_555
H9 C13 1_555 1_555
H10 C14 1_555 1_555
H11 C15 1_555 1_555
H12 C16 1_555 1_555
H13 C17 1_555 1_555
H14 C18 1_555 1_555
H15 C19 1_555 1_555
H16 C22 1_555 1_555
H17 C23 1_555 1_555
H18 C24 1_555 1_555
H19 C27 1_555 1_555
H20 C28 1_555 1_555
H21 C29 1_555 1_555
H22 C30 1_555 1_555
H23 C31 1_555 1_555
H24 C32 1_555 1_555
H25 C33 1_555 1_555
H26 C34 1_555 1_555
H27 C37 1_555 1_555
H28 C38 1_555 1_555
H29 C39 1_555 1_555
H30 C42 1_555 1_555
H31 C43 1_555 1_555
H32 C44 1_555 1_555
H33 C45 1_555 1_555
V1A O2 1_555 1_555
O1A V1A 1_555 1_555
O2A V1 1_555 1_555
N1A V1A 1_555 1_555
C1A N1A 1_555 1_555
C2A C1A 1_555 1_555
C3A C2A 1_555 1_555
C4A C3A 1_555 1_555
C5A N1A 1_555 1_555
C6A C5A 1_555 1_555
N2A V1A 1_555 1_555
N3A V1A 1_555 1_555
C11A N3A 1_555 1_555
C10A N2A 1_555 1_555
C9A C10A 1_555 1_555
C8A C9A 1_555 1_555
C7A C6A 1_555 1_555
H5A C7A 1_555 1_555
H6A C8A 1_555 1_555
H7A C9A 1_555 1_555
C12A C11A 1_555 1_555
C13A C12A 1_555 1_555
C14A C13A 1_555 1_555
C15A N3A 1_555 1_555
H11A C15A 1_555 1_555
H10A C14A 1_555 1_555
H9A C13A 1_555 1_555
H8A C12A 1_555 1_555
H4A C4A 1_555 1_555
H3A C3A 1_555 1_555
H2A C2A 1_555 1_555
H1A C1A 1_555 1_555
O11A V5 1_555 1_555
V4A O11A 1_555 1_555
O7A V4A 1_555 1_555
O8A V4A 1_555 1_555
O9A V4A 1_555 1_555
V5A O11 1_555 1_555
O10A V5A 1_555 1_555
O12A V6 1_555 1_555
V6A O12 1_555 1_555
V7A O18 1_555 1_555
O15A V7A 1_555 1_555
V6A_2 O15A 1_555 1_555
O12_2 V6A_2 1_555 1_555
O13A V6A_2 1_555 1_555
O14A V6A_2 1_555 1_555
O16A V7A 1_555 1_555
V8A O16A 1_555 1_555
O18A V7 1_555 1_555
O17A V7A 1_555 1_555
O19A V8 1_555 1_555
O20A V8 1_555 1_555
V3 O5 1_555 1_555
C4 C5 1_555 1_555
C5 C6 1_555 1_555
C9 C10 1_555 1_555
C10 C11 1_555 1_555
C14 C15 1_555 1_555
C19 C20 1_555 1_555
C20 C21 1_555 1_555
C24 C25 1_555 1_555
C25 C26 1_555 1_555
C29 C30 1_555 1_555
C34 C35 1_555 1_555
C35 C36 1_555 1_555
C39 C40 1_555 1_555
C40 C41 1_555 1_555
C44 C45 1_555 1_555
V1A O2A 1_555 1_555
C4A C5A 1_555 1_555
C6A N2A 1_555 1_555
C11A C10A 1_555 1_555
C8A C7A 1_555 1_555
C14A C15A 1_555 1_555
O9A V5A 1_555 1_555
V5A O12A 1_555 1_555
V8A O18A 1_555 1_555

#END
