
#######################################################################
#
#                 Cambridge Crystallographic Data Centre
#                                CCDC 
#
#######################################################################
#
# If this CIF has been generated from an entry in the Cambridge 
# Structural Database, then it will include bibliographic, chemical, 
# crystal, experimental, refinement or atomic coordinate data resulting 
# from the CCDC's data processing and validation procedures.
#
#######################################################################

data_WIHQAG
_symmetry_cell_setting           triclinic
_symmetry_space_group_name_H-M   'P -1'
_symmetry_Int_Tables_number      2
_space_group_name_Hall           '-P 1'
loop_
_symmetry_equiv_pos_site_id
_symmetry_equiv_pos_as_xyz
1 x,y,z
2 -x,-y,-z
_cell_length_a                   7.1268(5)
_cell_length_b                   10.0900(8)
_cell_length_c                   12.2110(9)
_cell_angle_alpha                92.6760(10)
_cell_angle_beta                 100.8090(10)
_cell_angle_gamma                90.3820(10)
_cell_volume                     861.46
loop_
_atom_site_label
_atom_site_type_symbol
_atom_site_fract_x
_atom_site_fract_y
_atom_site_fract_z
Cd1 Cd 0.17038(4) 0.02430(3) 0.23625(2)
N1 N 0.1757(5) -0.1635(4) 0.3463(3)
N2 N 0.2500(5) 0.0849(4) 0.4289(3)
O1 O -0.0341(4) 0.1911(3) 0.2320(3)
O2 O 0.3260(5) -0.1045(3) 0.1228(3)
O3 O -0.1092(5) -0.0851(3) 0.1248(3)
C1 C -0.0826(6) 0.2393(4) 0.1376(4)
C2 C -0.2245(6) 0.3485(4) 0.1321(3)
C3 C -0.1681(7) 0.4770(4) 0.1130(4)
H1 H -0.0472 0.4919 0.0973
C4 C -0.2906(8) 0.5825(5) 0.1172(4)
H2 H -0.2524 0.6674 0.1032
C5 C -0.4691(8) 0.5617(5) 0.1420(4)
H3 H -0.5498 0.6330 0.1462
C6 C -0.5291(7) 0.4355(5) 0.1608(4)
H4 H -0.6495 0.4219 0.1777
C7 C -0.4064(6) 0.3275(4) 0.1542(3)
C8 C -0.4824(6) 0.1897(4) 0.1651(3)
C9 C 0.1466(7) -0.2885(5) 0.3006(4)
H5 H 0.1229 -0.3007 0.2232
C10 C 0.1505(8) -0.3987(5) 0.3640(5)
H6 H 0.1322 -0.4835 0.3301
C11 C 0.1822(9) -0.3802(5) 0.4781(5)
H7 H 0.1841 -0.4525 0.5229
C12 C 0.2110(8) -0.2535(5) 0.5255(4)
H8 H 0.2329 -0.2397 0.6027
C13 C 0.2073(6) -0.1463(4) 0.4578(3)
C14 C 0.2451(6) -0.0068(4) 0.5035(3)
C15 C 0.2745(7) 0.0255(5) 0.6174(4)
H9 H 0.2672 -0.0394 0.6681
C16 C 0.3146(7) 0.1553(5) 0.6536(4)
H10 H 0.3362 0.1790 0.7295
C17 C 0.3227(7) 0.2497(5) 0.5776(4)
H11 H 0.3508 0.3380 0.6007
C18 C 0.2879(7) 0.2104(5) 0.4658(4)
H12 H 0.2911 0.2744 0.4138
O4 O -0.0222(5) 0.2038(4) 0.0518(3)
O5 O -0.6024(5) 0.1793(3) 0.2278(3)
O6 O -0.4241(4) 0.0953(3) 0.1102(3)
H13 H 0.399(7) -0.051(5) 0.104(4)
H14 H -0.191(6) -0.029(4) 0.118(4)
H15 H -0.097(8) -0.110(5) 0.062(2)
H16 H 0.257(7) -0.134(5) 0.065(3)
Cd1_2 Cd -0.82962(4) 0.02430(3) 0.23625(2)
O5_2 O 0.3976(5) 0.1793(3) 0.2278(3)
loop_
_geom_bond_atom_site_label_1
_geom_bond_atom_site_label_2
_geom_bond_site_symmetry_1
_geom_bond_site_symmetry_2
Cd1 N1 1_555 1_555
N1 C9 1_555 1_555
N2 Cd1 1_555 1_555
O1 Cd1 1_555 1_555
O2 Cd1 1_555 1_555
O3 Cd1 1_555 1_555
C1 O1 1_555 1_555
C2 C1 1_555 1_555
C3 C2 1_555 1_555
H1 C3 1_555 1_555
C4 C3 1_555 1_555
H2 C4 1_555 1_555
C5 C4 1_555 1_555
H3 C5 1_555 1_555
C6 C5 1_555 1_555
H4 C6 1_555 1_555
C7 C2 1_555 1_555
C8 C7 1_555 1_555
C9 H5 1_555 1_555
C10 C9 1_555 1_555
H6 C10 1_555 1_555
C11 C10 1_555 1_555
H7 C11 1_555 1_555
C12 C11 1_555 1_555
H8 C12 1_555 1_555
C13 N1 1_555 1_555
C14 N2 1_555 1_555
C15 C14 1_555 1_555
H9 C15 1_555 1_555
C16 C15 1_555 1_555
H10 C16 1_555 1_555
C17 C16 1_555 1_555
H11 C17 1_555 1_555
C18 N2 1_555 1_555
H12 C18 1_555 1_555
O4 C1 1_555 1_555
O5 C8 1_555 1_555
O6 C8 1_555 1_555
H13 O2 1_555 1_555
H14 O3 1_555 1_555
H15 O3 1_555 1_555
H16 O2 1_555 1_555
Cd1_2 O5 1_555 1_555
O5_2 Cd1 1_555 1_555
C6 C7 1_555 1_555
C12 C13 1_555 1_555
C13 C14 1_555 1_555
C17 C18 1_555 1_555

#END
