
#######################################################################
#
#                 Cambridge Crystallographic Data Centre
#                                CCDC 
#
#######################################################################
#
# If this CIF has been generated from an entry in the Cambridge 
# Structural Database, then it will include bibliographic, chemical, 
# crystal, experimental, refinement or atomic coordinate data resulting 
# from the CCDC's data processing and validation procedures.
#
#######################################################################

data_WIHQOT
_symmetry_cell_setting           monoclinic
_symmetry_space_group_name_H-M   'C 2/c'
_symmetry_Int_Tables_number      15
_space_group_name_Hall           '-C 2yn'
loop_
_symmetry_equiv_pos_site_id
_symmetry_equiv_pos_as_xyz
1 x,y,z
2 1/2+x,1/2+y,z
3 x,-y,1/2+z
4 1/2+x,1/2-y,1/2+z
5 -x,-y,-z
6 1/2-x,1/2-y,-z
7 -x,y,1/2-z
8 1/2-x,1/2+y,1/2-z
_cell_length_a                   23.7735(16)
_cell_length_b                   9.4309(6)
_cell_length_c                   25.3804(17)
_cell_angle_alpha                90
_cell_angle_beta                 112.0470(10)
_cell_angle_gamma                90
_cell_volume                     5274.32
loop_
_atom_site_label
_atom_site_type_symbol
_atom_site_fract_x
_atom_site_fract_y
_atom_site_fract_z
V1 V 0.14218(2) -0.08730(5) 0.520053(19)
V2 V 0.22039(2) 0.10276(5) 0.453011(19)
V3 V 0.20422(2) -0.38802(5) 0.608920(19)
V4 V 0.09556(2) -0.50860(5) 0.66971(2)
V5 V 0.0000 -0.49372(7) 0.7500
O1 O 0.18128(9) -0.2323(2) 0.56754(8)
O2 O 0.07866(9) -0.1358(2) 0.47070(8)
O3 O 0.12856(9) 0.0442(2) 0.55462(8)
O4 O 0.19641(9) -0.0268(2) 0.48757(8)
O5 O 0.2500 0.2500 0.5000
O6 O 0.16373(9) 0.1534(2) 0.39821(8)
O7 O 0.22449(9) -0.5274(2) 0.56875(8)
O8 O 0.26092(8) -0.3563(2) 0.66754(8)
O9 O 0.14582(8) -0.4471(2) 0.62380(8)
O10 O 0.11242(11) -0.6696(2) 0.66104(10)
O11 O 0.05082(9) -0.5239(3) 0.70765(8)
O12 O 0.0000 -0.3256(4) 0.7500
N1 N 0.16897(10) -0.4382(2) 0.74179(9)
N2 N 0.08958(10) -0.2798(2) 0.66892(9)
N3 N 0.01957(10) -0.4555(2) 0.59643(9)
N4 N -0.07473(10) -0.5546(2) 0.67721(9)
N5 N 0.0000 -0.7231(3) 0.7500
C1 C -0.01703(13) -0.5550(3) 0.56274(12)
C2 C -0.06756(14) -0.5195(4) 0.51528(13)
C3 C -0.08033(14) -0.3796(3) 0.50118(13)
C4 C -0.04319(13) -0.2752(4) 0.53586(12)
C5 C 0.00593(12) -0.3163(3) 0.58364(11)
C6 C 0.04642(12) -0.2149(3) 0.62506(11)
C7 C 0.04276(14) -0.0691(3) 0.62199(14)
C8 C 0.08469(15) 0.0089(4) 0.66587(16)
C9 C 0.12897(14) -0.0579(3) 0.71049(14)
C10 C 0.13103(12) -0.2053(3) 0.71080(12)
C11 C 0.17601(12) -0.2967(3) 0.75310(11)
C12 C 0.22290(13) -0.2453(3) 0.80083(12)
C13 C 0.26257(14) -0.3401(3) 0.83780(13)
C14 C 0.25465(14) -0.4837(4) 0.82668(13)
C15 C 0.20790(13) -0.5286(3) 0.77874(12)
C16 C -0.11224(14) -0.4598(3) 0.64136(12)
C17 C -0.16115(14) -0.5006(4) 0.59402(13)
C18 C -0.17267(14) -0.6422(4) 0.58222(13)
C19 C -0.13459(13) -0.7410(4) 0.61864(12)
C20 C -0.08609(12) -0.6955(3) 0.66587(11)
C21 C -0.04320(12) -0.7917(3) 0.70765(12)
C22 C -0.04439(16) -0.9386(4) 0.70647(16)
C23 C 0.0000 -1.0103(5) 0.7500
H1 H -0.0085(13) -0.648(3) 0.5729(12)
H2 H -0.0883(14) -0.587(3) 0.4956(13)
H3 H -0.1139(13) -0.354(3) 0.4686(12)
H4 H -0.0520(12) -0.174(4) 0.5265(11)
H5 H 0.0106(14) -0.026(3) 0.5900(13)
H6 H 0.0842(16) 0.104(4) 0.6635(15)
H7 H 0.1576(14) -0.003(3) 0.7418(13)
H8 H 0.2239(12) -0.150(3) 0.8056(11)
H9 H 0.2938(14) -0.312(3) 0.8675(13)
H10 H 0.2793(13) -0.546(3) 0.8484(12)
H11 H 0.2023(14) -0.622(3) 0.7735(13)
H12 H -0.1053(14) -0.368(3) 0.6497(13)
H13 H -0.1838(14) -0.440(3) 0.5761(12)
H14 H -0.2026(13) -0.669(3) 0.5510(12)
H15 H -0.1414(13) -0.838(3) 0.6130(12)
H16 H -0.0743(15) -0.988(3) 0.6778(14)
H17 H 0.0000 -1.114(7) 0.7500
O7E O 0.27551(9) 0.0274(2) 0.43125(8)
O11F O -0.05082(9) -0.5239(3) 0.79235(8)
N4F N 0.07473(10) -0.5546(2) 0.82279(9)
V2E V 0.27961(2) 0.39724(5) 0.546989(19)
V2E_2 V 0.27961(2) -0.60276(5) 0.546989(19)
C21F C 0.04320(12) -0.7917(3) 0.79235(12)
C22F C 0.04439(16) -0.9386(4) 0.79353(16)
V3E V 0.29578(2) -0.11198(5) 0.391080(19)
V4F V -0.09556(2) -0.50860(5) 0.83029(2)
C16F C 0.11224(14) -0.4598(3) 0.85864(12)
C20F C 0.08609(12) -0.6955(3) 0.83413(11)
O4E O 0.30359(9) -0.4732(2) 0.51243(8)
O5_2 O 0.2500 -0.7500 0.5000
O6E O 0.33627(9) -0.6534(2) 0.60179(8)
H16F H 0.0743(15) -0.988(3) 0.8222(14)
O1E O 0.31872(9) -0.2677(2) 0.43246(8)
O8E O 0.23908(8) -0.1437(2) 0.33246(8)
O9E O 0.35418(8) -0.0529(2) 0.37620(8)
O9F O -0.14582(8) -0.4471(2) 0.87620(8)
O10F O -0.11242(11) -0.6696(2) 0.83896(10)
N1F N -0.16897(10) -0.4382(2) 0.75821(9)
N2F N -0.08958(10) -0.2798(2) 0.83108(9)
N3F N -0.01957(10) -0.4555(2) 0.90357(9)
C17F C 0.16115(14) -0.5006(4) 0.90598(13)
H12F H 0.1053(14) -0.368(3) 0.8503(13)
C19F C 0.13459(13) -0.7410(4) 0.88136(12)
V1E V 0.35782(2) -0.41270(5) 0.479947(19)
V4E V 0.40444(2) 0.00860(5) 0.33029(2)
C11F C -0.17601(12) -0.2967(3) 0.74690(11)
C15F C -0.20790(13) -0.5286(3) 0.72126(12)
C6F C -0.04642(12) -0.2149(3) 0.87494(11)
C10F C -0.13103(12) -0.2053(3) 0.78920(12)
C1F C 0.01703(13) -0.5550(3) 0.93726(12)
C5F C -0.00593(12) -0.3163(3) 0.91636(11)
C18F C 0.17267(14) -0.6422(4) 0.91778(13)
H13F H 0.1838(14) -0.440(3) 0.9239(12)
H15F H 0.1414(13) -0.838(3) 0.8870(12)
O2E O 0.42134(9) -0.3642(2) 0.52930(8)
O3E O 0.37144(9) -0.5442(2) 0.44538(8)
C12F C -0.22290(13) -0.2453(3) 0.69917(12)
C14F C -0.25465(14) -0.4837(4) 0.67332(13)
H11F H -0.2023(14) -0.622(3) 0.7265(13)
C7F C -0.04276(14) -0.0691(3) 0.87801(14)
C9F C -0.12897(14) -0.0579(3) 0.78951(14)
C2F C 0.06756(14) -0.5195(4) 0.98472(13)
H1F H 0.0085(13) -0.648(3) 0.9271(12)
C4F C 0.04319(13) -0.2752(4) 0.96414(12)
H14F H 0.2026(13) -0.669(3) 0.9490(12)
C13F C -0.26257(14) -0.3401(3) 0.66220(13)
H8F H -0.2239(12) -0.150(3) 0.6944(11)
H10F H -0.2793(13) -0.546(3) 0.6516(12)
C8F C -0.08469(15) 0.0089(4) 0.83413(16)
H5F H -0.0106(14) -0.026(3) 0.9100(13)
H7F H -0.1576(14) -0.003(3) 0.7582(13)
C3F C 0.08033(14) -0.3796(3) 0.99882(13)
H2F H 0.0883(14) -0.587(3) 1.0044(13)
H4F H 0.0520(12) -0.174(4) 0.9735(11)
H9F H -0.2938(14) -0.312(3) 0.6325(13)
H6F H -0.0842(16) 0.104(4) 0.8365(15)
H3F H 0.1139(13) -0.354(3) 1.0314(12)
loop_
_geom_bond_atom_site_label_1
_geom_bond_atom_site_label_2
_geom_bond_site_symmetry_1
_geom_bond_site_symmetry_2
V1 O1 1_555 1_555
V2 O4 1_555 1_555
V3 O1 1_555 1_555
V4 O9 1_555 1_555
V5 O11 1_555 1_555
O2 V1 1_555 1_555
O3 V1 1_555 1_555
O4 V1 1_555 1_555
O5 V2 1_555 1_555
O6 V2 1_555 1_555
O7 V3 1_555 1_555
O8 V3 1_555 1_555
O9 V3 1_555 1_555
O10 V4 1_555 1_555
O11 V4 1_555 1_555
O12 V5 1_555 1_555
N1 V4 1_555 1_555
N2 V4 1_555 1_555
N3 V4 1_555 1_555
N4 V5 1_555 1_555
N5 V5 1_555 1_555
C1 N3 1_555 1_555
C2 C1 1_555 1_555
C3 C2 1_555 1_555
C4 C3 1_555 1_555
C5 N3 1_555 1_555
C6 N2 1_555 1_555
C7 C6 1_555 1_555
C8 C7 1_555 1_555
C9 C8 1_555 1_555
C10 N2 1_555 1_555
C11 N1 1_555 1_555
C12 C11 1_555 1_555
C13 C12 1_555 1_555
C14 C13 1_555 1_555
C15 N1 1_555 1_555
C16 N4 1_555 1_555
C17 C16 1_555 1_555
C18 C17 1_555 1_555
C19 C18 1_555 1_555
C20 N4 1_555 1_555
C21 N5 1_555 1_555
C22 C21 1_555 1_555
C23 C22 1_555 1_555
H1 C1 1_555 1_555
H2 C2 1_555 1_555
H3 C3 1_555 1_555
H4 C4 1_555 1_555
H5 C7 1_555 1_555
H6 C8 1_555 1_555
H7 C9 1_555 1_555
H8 C12 1_555 1_555
H9 C13 1_555 1_555
H10 C14 1_555 1_555
H11 C15 1_555 1_555
H12 C16 1_555 1_555
H13 C17 1_555 1_555
H14 C18 1_555 1_555
H15 C19 1_555 1_555
H16 C22 1_555 1_555
H17 C23 1_555 1_555
O7E V2 1_555 1_555
O11F V5 1_555 1_555
N4F V5 1_555 1_555
V2E O5 1_555 1_555
V2E_2 O7 1_555 1_555
C21F N5 1_555 1_555
C22F C23 1_555 1_555
V3E O7E 1_555 1_555
V4F O11F 1_555 1_555
C16F N4F 1_555 1_555
C20F N4F 1_555 1_555
O4E V2E_2 1_555 1_555
O5_2 V2E_2 1_555 1_555
O6E V2E_2 1_555 1_555
H16F C22F 1_555 1_555
O1E V3E 1_555 1_555
O8E V3E 1_555 1_555
O9E V3E 1_555 1_555
O9F V4F 1_555 1_555
O10F V4F 1_555 1_555
N1F V4F 1_555 1_555
N2F V4F 1_555 1_555
N3F V4F 1_555 1_555
C17F C16F 1_555 1_555
H12F C16F 1_555 1_555
C19F C20F 1_555 1_555
V1E O4E 1_555 1_555
V4E O9E 1_555 1_555
C11F N1F 1_555 1_555
C15F N1F 1_555 1_555
C6F N2F 1_555 1_555
C10F N2F 1_555 1_555
C1F N3F 1_555 1_555
C5F N3F 1_555 1_555
C18F C17F 1_555 1_555
H13F C17F 1_555 1_555
H15F C19F 1_555 1_555
O2E V1E 1_555 1_555
O3E V1E 1_555 1_555
C12F C11F 1_555 1_555
C14F C15F 1_555 1_555
H11F C15F 1_555 1_555
C7F C6F 1_555 1_555
C9F C10F 1_555 1_555
C2F C1F 1_555 1_555
H1F C1F 1_555 1_555
C4F C5F 1_555 1_555
H14F C18F 1_555 1_555
C13F C12F 1_555 1_555
H8F C12F 1_555 1_555
H10F C14F 1_555 1_555
C8F C7F 1_555 1_555
H5F C7F 1_555 1_555
H7F C9F 1_555 1_555
C3F C2F 1_555 1_555
H2F C2F 1_555 1_555
H4F C4F 1_555 1_555
H9F C13F 1_555 1_555
H6F C8F 1_555 1_555
H3F C3F 1_555 1_555
C4 C5 1_555 1_555
C5 C6 1_555 1_555
C9 C10 1_555 1_555
C10 C11 1_555 1_555
C14 C15 1_555 1_555
C19 C20 1_555 1_555
C20 C21 1_555 1_555
C21F C22F 1_555 1_555
C21F C20F 1_555 1_555
O1E V1E 1_555 1_555
C19F C18F 1_555 1_555
C11F C10F 1_555 1_555
C6F C5F 1_555 1_555
C14F C13F 1_555 1_555
C9F C8F 1_555 1_555
C4F C3F 1_555 1_555

#END
