
#######################################################################
#
#                 Cambridge Crystallographic Data Centre
#                                CCDC 
#
#######################################################################
#
# If this CIF has been generated from an entry in the Cambridge 
# Structural Database, then it will include bibliographic, chemical, 
# crystal, experimental, refinement or atomic coordinate data resulting 
# from the CCDC's data processing and validation procedures.
#
#######################################################################

data_WIHTUE
_symmetry_cell_setting           triclinic
_symmetry_space_group_name_H-M   'P -1'
_symmetry_Int_Tables_number      2
_space_group_name_Hall           '-P 1'
loop_
_symmetry_equiv_pos_site_id
_symmetry_equiv_pos_as_xyz
1 x,y,z
2 -x,-y,-z
_cell_length_a                   8.4942(5)
_cell_length_b                   9.8122(6)
_cell_length_c                   12.9285(8)
_cell_angle_alpha                81.7780(10)
_cell_angle_beta                 85.1860(10)
_cell_angle_gamma                87.5320(10)
_cell_volume                     1062.18
loop_
_atom_site_label
_atom_site_type_symbol
_atom_site_fract_x
_atom_site_fract_y
_atom_site_fract_z
Eu1 Eu 0.751990(18) 0.246808(17) 0.729193(12)
O1 O 0.8375(3) 0.0240(3) 0.83230(19)
N1 N 1.6346(3) 0.4592(3) 0.8092(2)
O2 O 0.8432(3) 0.4574(3) 0.61046(18)
O3 O 0.9511(3) 0.1508(3) 0.61017(18)
H1 H 1.0317 0.1590 0.6433
H2 H 0.9901 0.1841 0.5496
O4 O 0.6506(3) 0.3417(3) 0.56422(18)
C1 C 0.7450(4) 0.4402(4) 0.5453(3)
N2 N 1.4536(3) 0.2609(3) 0.7646(2)
N3 N 1.5948(3) 0.0521(3) 0.6754(2)
C2 C 0.7767(4) 0.0594(4) 0.9175(3)
O5 O 0.9863(3) 0.3040(3) 0.79736(19)
N4 N 1.2237(3) 0.3803(3) 0.8256(2)
O6 O 0.7076(3) 0.1745(3) 0.9194(2)
C3 C 1.7274(4) 0.5582(4) 0.8289(3)
H3 H 1.8378 0.5500 0.8109
N5 N 1.2014(3) 0.1859(3) 0.7359(2)
C4 C 1.4783(4) 0.4722(4) 0.8358(3)
C5 C 1.3586(4) 0.1734(4) 0.7307(2)
C6 C 1.1340(4) 0.2903(4) 0.7865(3)
C7 C 1.4346(4) 0.0552(4) 0.6842(2)
C8 C 1.3788(4) 0.3637(4) 0.8086(2)
C9 C 0.7390(5) 0.5359(4) 0.4446(3)
H4 H 0.6355 0.5839 0.4427
H5 H 0.7557 0.4830 0.3856
H6 H 0.8220 0.6034 0.4396
C10 C 1.5891(5) -0.1594(4) 0.6036(3)
H7 H 1.6461 -0.2330 0.5757
C11 C 0.7868(5) -0.0363(4) 1.0180(3)
H8 H 0.6843 -0.0784 1.0387
H9 H 0.8150 0.0154 1.0729
H10 H 0.8678 -0.1085 1.0082
C12 C 1.3472(4) -0.0472(4) 0.6553(3)
H11 H 1.2351 -0.0432 0.6644
C13 C 1.4121(4) 0.5822(4) 0.8819(3)
H12 H 1.3015 0.5883 0.8998
C14 C 1.6699(4) 0.6714(4) 0.8740(3)
H13 H 1.7393 0.7399 0.8860
C15 C 1.5099(4) 0.6834(4) 0.9015(3)
H14 H 1.4676 0.7598 0.9334
C16 C 1.4255(5) -0.1554(4) 0.6129(3)
H15 H 1.3681 -0.2255 0.5906
C17 C 1.6683(4) -0.0545(4) 0.6356(3)
H16 H 1.7806 -0.0582 0.6289
Eu1_2 Eu 1.751990(18) 0.246808(17) 0.729193(12)
N1_2 N 0.6346(3) 0.4592(3) 0.8092(2)
N2_2 N 0.4536(3) 0.2609(3) 0.7646(2)
N3_2 N 0.5948(3) 0.0521(3) 0.6754(2)
O7 O 1.0298(3) -0.1973(3) 0.7790(2)
H17 H 1.0685 -0.2430 0.8324
H18 H 0.9946 -0.1221 0.7990
O8 O 1.0136(3) 0.2832(3) 0.4139(2)
H19 H 1.0390 0.3670 0.3991
H20 H 0.9817 0.2621 0.3578
O9 O 0.0452(3) 0.6490(3) 0.9842(2)
H21 H -0.0270 0.6077 1.0248
H22 H 0.0993 0.6703 1.0316
loop_
_geom_bond_atom_site_label_1
_geom_bond_atom_site_label_2
_geom_bond_site_symmetry_1
_geom_bond_site_symmetry_2
Eu1 O1 1_555 1_555
O1 C2 1_555 1_555
N1 C3 1_555 1_555
O2 Eu1 1_555 1_555
O3 Eu1 1_555 1_555
H1 O3 1_555 1_555
H2 O3 1_555 1_555
O4 Eu1 1_555 1_555
C1 O2 1_555 1_555
N2 C5 1_555 1_555
N3 C7 1_555 1_555
C2 O6 1_555 1_555
O5 Eu1 1_555 1_555
N4 C6 1_555 1_555
O6 Eu1 1_555 1_555
C3 H3 1_555 1_555
N5 C5 1_555 1_555
C4 N1 1_555 1_555
C5 C7 1_555 1_555
C6 O5 1_555 1_555
C7 C12 1_555 1_555
C8 N2 1_555 1_555
C9 C1 1_555 1_555
H4 C9 1_555 1_555
H5 C9 1_555 1_555
H6 C9 1_555 1_555
C10 H7 1_555 1_555
C11 C2 1_555 1_555
H8 C11 1_555 1_555
H9 C11 1_555 1_555
H10 C11 1_555 1_555
C12 H11 1_555 1_555
C13 C4 1_555 1_555
H12 C13 1_555 1_555
C14 C3 1_555 1_555
H13 C14 1_555 1_555
C15 C13 1_555 1_555
H14 C15 1_555 1_555
C16 C10 1_555 1_555
H15 C16 1_555 1_555
C17 N3 1_555 1_555
H16 C17 1_555 1_555
O7 H17 1_555 1_555
H18 O7 1_555 1_555
O8 H19 1_555 1_555
H20 O8 1_555 1_555
O9 H21 1_555 1_555
H22 O9 1_555 1_555
Eu1_2 N1 1_555 1_555
N1_2 Eu1 1_555 1_555
N2_2 Eu1 1_555 1_555
N3_2 Eu1 1_555 1_555
O4 C1 1_555 1_555
N2 Eu1_2 1_555 1_555
N3 Eu1_2 1_555 1_555
N4 C8 1_555 1_555
N5 C6 1_555 1_555
C4 C8 1_555 1_555
C10 C17 1_555 1_555
C12 C16 1_555 1_555
C14 C15 1_555 1_555

#END
