
#######################################################################
#
#                 Cambridge Crystallographic Data Centre
#                                CCDC 
#
#######################################################################
#
# If this CIF has been generated from an entry in the Cambridge 
# Structural Database, then it will include bibliographic, chemical, 
# crystal, experimental, refinement or atomic coordinate data resulting 
# from the CCDC's data processing and validation procedures.
#
#######################################################################

data_WIHWER
_symmetry_cell_setting           monoclinic
_symmetry_space_group_name_H-M   'P 21/c'
_symmetry_Int_Tables_number      14
_space_group_name_Hall           '-P 2ybc'
loop_
_symmetry_equiv_pos_site_id
_symmetry_equiv_pos_as_xyz
1 x,y,z
2 -x,1/2+y,1/2-z
3 -x,-y,-z
4 x,1/2-y,1/2+z
_cell_length_a                   11.591(2)
_cell_length_b                   16.092(3)
_cell_length_c                   15.338(3)
_cell_angle_alpha                90
_cell_angle_beta                 99.32(3)
_cell_angle_gamma                90
_cell_volume                     2823.11
loop_
_atom_site_label
_atom_site_type_symbol
_atom_site_fract_x
_atom_site_fract_y
_atom_site_fract_z
Ag1 Ag 0.89429(5) 0.03567(3) 0.42743(3)
Ag2 Ag 0.61759(4) 0.53986(2) 0.55388(3)
N1 N 0.8911(5) -0.0459(3) 0.3162(3)
N2 N 0.6832(5) -0.1887(3) 0.1898(3)
H1 H 0.6786 -0.2152 0.1407
N3 N 0.6192(4) -0.3668(3) 0.4545(3)
N4 N 0.8918(4) 0.1314(3) 0.5234(3)
N5 N 0.8386(5) 0.3155(3) 0.7860(3)
H2 H 0.8452 0.2884 0.8349
N6 N 0.6272(4) 0.4587(2) 0.6646(3)
C1 C 0.8004(5) -0.0965(3) 0.2932(3)
H3 H 0.7457 -0.1012 0.3311
C2 C 0.7831(5) -0.1419(3) 0.2170(3)
C3 C 0.8671(6) -0.1348(4) 0.1617(4)
H4 H 0.8594 -0.1638 0.1087
C4 C 0.9615(6) -0.0837(5) 0.1878(5)
H5 H 1.0192 -0.0785 0.1525
C5 C 0.9708(6) -0.0409(3) 0.2651(5)
H6 H 1.0355 -0.0070 0.2820
C6 C 0.5890(6) -0.1961(4) 0.2364(4)
H7 H 0.5212 -0.2146 0.1955
H8 H 0.5713 -0.1413 0.2570
C7 C 0.6957(5) -0.3704(3) 0.3957(4)
H9 H 0.7527 -0.4116 0.4024
C8 C 0.6912(5) -0.3151(3) 0.3273(4)
H10 H 0.7456 -0.3184 0.2890
C9 C 0.6058(5) -0.2546(3) 0.3153(4)
C10 C 0.5297(5) -0.2497(3) 0.3762(4)
H11 H 0.4726 -0.2086 0.3717
C11 C 0.5410(5) -0.3073(4) 0.4435(4)
H12 H 0.4895 -0.3037 0.4840
C12 C 0.8170(6) 0.1311(4) 0.5801(4)
H13 H 0.7585 0.0910 0.5742
C13 C 0.8229(5) 0.1885(3) 0.6479(4)
H14 H 0.7682 0.1872 0.6861
C14 C 0.9105(5) 0.2479(3) 0.6588(4)
C15 C 0.9880(5) 0.2494(3) 0.5979(4)
H15 H 1.0465 0.2894 0.6012
C16 C 0.9746(6) 0.1888(4) 0.5322(4)
H16 H 1.0269 0.1887 0.4922
C17 C 0.9299(6) 0.3085(4) 0.7371(4)
H17 H 0.9997 0.2914 0.7768
H18 H 0.9451 0.3632 0.7147
C18 C 0.7188(5) 0.4079(3) 0.6862(3)
H19 H 0.7718 0.4033 0.6469
C19 C 0.7392(5) 0.3623(3) 0.7624(3)
C20 C 0.6565(6) 0.3682(4) 0.8182(4)
H20 H 0.6654 0.3375 0.8703
C21 C 0.5627(5) 0.4187(4) 0.7965(4)
H21 H 0.5071 0.4229 0.8337
C22 C 0.5499(6) 0.4638(3) 0.7195(4)
H22 H 0.4856 0.4986 0.7054
Ag2_2 Ag 0.61759(4) -0.46014(2) 0.55388(3)
N3_2 N 0.6192(4) 0.6332(3) 0.4545(3)
Cl1 Cl 0.74678(16) -0.11203(11) 0.56630(13)
O1 O 0.7199(7) -0.0645(4) 0.4914(4)
O2 O 0.6696(10) -0.1130(9) 0.6115(7)
O3 O 0.8598(7) -0.0959(7) 0.6032(8)
O4 O 0.7616(9) -0.1957(4) 0.5345(7)
Cl2 Cl 0.26711(14) 0.61841(10) 0.58174(11)
O5 O 0.3837(5) 0.5988(5) 0.5779(5)
O6 O 0.2560(10) 0.6056(8) 0.6665(6)
O7 O 0.2508(10) 0.6971(4) 0.5561(7)
O8 O 0.1994(6) 0.5673(4) 0.5214(4)
loop_
_geom_bond_atom_site_label_1
_geom_bond_atom_site_label_2
_geom_bond_site_symmetry_1
_geom_bond_site_symmetry_2
Ag1 N1 1_555 1_555
Ag2 N6 1_555 1_555
N1 C1 1_555 1_555
N2 H1 1_555 1_555
N3 C7 1_555 1_555
N4 Ag1 1_555 1_555
N5 H2 1_555 1_555
N6 C18 1_555 1_555
C1 H3 1_555 1_555
C2 N2 1_555 1_555
C3 C2 1_555 1_555
H4 C3 1_555 1_555
C4 C3 1_555 1_555
H5 C4 1_555 1_555
C5 N1 1_555 1_555
H6 C5 1_555 1_555
C6 N2 1_555 1_555
H7 C6 1_555 1_555
H8 C6 1_555 1_555
C7 H9 1_555 1_555
C8 C7 1_555 1_555
H10 C8 1_555 1_555
C9 C6 1_555 1_555
C10 C9 1_555 1_555
H11 C10 1_555 1_555
C11 N3 1_555 1_555
H12 C11 1_555 1_555
C12 N4 1_555 1_555
H13 C12 1_555 1_555
C13 C12 1_555 1_555
H14 C13 1_555 1_555
C14 C13 1_555 1_555
C15 C14 1_555 1_555
H15 C15 1_555 1_555
C16 N4 1_555 1_555
H16 C16 1_555 1_555
C17 N5 1_555 1_555
H17 C17 1_555 1_555
H18 C17 1_555 1_555
C18 H19 1_555 1_555
C19 N5 1_555 1_555
C20 C19 1_555 1_555
H20 C20 1_555 1_555
C21 C20 1_555 1_555
H21 C21 1_555 1_555
C22 N6 1_555 1_555
H22 C22 1_555 1_555
Cl1 O1 1_555 1_555
O2 Cl1 1_555 1_555
O3 Cl1 1_555 1_555
O4 Cl1 1_555 1_555
Cl2 O5 1_555 1_555
O6 Cl2 1_555 1_555
O7 Cl2 1_555 1_555
O8 Cl2 1_555 1_555
Ag2_2 N3 1_555 1_555
N3_2 Ag2 1_555 1_555
C1 C2 1_555 1_555
C4 C5 1_555 1_555
C8 C9 1_555 1_555
C10 C11 1_555 1_555
C14 C17 1_555 1_555
C15 C16 1_555 1_555
C18 C19 1_555 1_555
C21 C22 1_555 1_555

#END
