
#######################################################################
#
#                 Cambridge Crystallographic Data Centre
#                                CCDC 
#
#######################################################################
#
# If this CIF has been generated from an entry in the Cambridge 
# Structural Database, then it will include bibliographic, chemical, 
# crystal, experimental, refinement or atomic coordinate data resulting 
# from the CCDC's data processing and validation procedures.
#
#######################################################################

data_WIHWUG
_symmetry_cell_setting           monoclinic
_symmetry_space_group_name_H-M   'P 21/c'
_symmetry_Int_Tables_number      14
_space_group_name_Hall           '-P 2ybc'
loop_
_symmetry_equiv_pos_site_id
_symmetry_equiv_pos_as_xyz
1 x,y,z
2 -x,1/2+y,1/2-z
3 -x,-y,-z
4 x,1/2-y,1/2+z
_cell_length_a                   8.8029(10)
_cell_length_b                   10.2661(11)
_cell_length_c                   7.2466(8)
_cell_angle_alpha                90
_cell_angle_beta                 100.1050(10)
_cell_angle_gamma                90
_cell_volume                     644.727
loop_
_atom_site_label
_atom_site_type_symbol
_atom_site_fract_x
_atom_site_fract_y
_atom_site_fract_z
Cd1 Cd 0.5000 0.5000 0.0000
N1 N 0.3204(2) 0.3328(2) -0.0100(3)
O1 O 0.2566(2) -0.12364(17) -0.0610(3)
O2 O 0.4150(2) -0.04888(19) 0.1892(2)
O3 O 0.3054(2) 0.63126(19) 0.0693(3)
H1 H 0.292(4) 0.629(4) 0.182(2)
H2 H 0.284(5) 0.7089(19) 0.031(6)
C1 C 0.1758(3) 0.3527(3) -0.1026(4)
H3 H 0.155(3) 0.435(3) -0.130(4)
C2 C 0.0722(3) 0.2540(3) -0.1569(4)
H4 H -0.020(4) 0.275(3) -0.219(4)
C3 C 0.1195(3) 0.1275(3) -0.1145(4)
H5 H 0.051(3) 0.062(3) -0.146(4)
C4 C 0.2651(3) 0.1040(2) -0.0125(3)
C5 C 0.3613(3) 0.2096(2) 0.0373(3)
H6 H 0.461(3) 0.200(2) 0.104(4)
C6 C 0.3173(3) -0.0328(2) 0.0447(4)
Cd1C Cd 0.5000 0.0000 0.5000
Cd1C_2 Cd 0.5000 1.0000 -0.5000
N1B N 0.6796(2) 0.6672(2) 0.0100(3)
O1B O 0.7434(2) 1.12364(17) 0.0610(3)
O2B O 0.5850(2) 1.04888(19) -0.1892(2)
O2C O 0.4150(2) 0.54888(19) -0.3108(2)
O2A O 0.5850(2) 0.45112(19) 0.3108(2)
O3B O 0.6946(2) 0.36874(19) -0.0693(3)
H1B H 0.708(4) 0.371(4) -0.182(2)
H2B H 0.716(5) 0.2911(19) -0.031(6)
C1B C 0.8242(3) 0.6473(3) 0.1026(4)
H3B H 0.845(3) 0.565(3) 0.130(4)
C2B C 0.9278(3) 0.7460(3) 0.1569(4)
H4B H 1.020(4) 0.725(3) 0.219(4)
C3B C 0.8805(3) 0.8725(3) 0.1145(4)
H5B H 0.949(3) 0.938(3) 0.146(4)
C4B C 0.7349(3) 0.8960(2) 0.0125(3)
C5B C 0.6387(3) 0.7904(2) -0.0373(3)
H6B H 0.539(3) 0.800(2) -0.104(4)
C6B C 0.6827(3) 1.0328(2) -0.0447(4)
loop_
_geom_bond_atom_site_label_1
_geom_bond_atom_site_label_2
_geom_bond_site_symmetry_1
_geom_bond_site_symmetry_2
Cd1 N1 1_555 1_555
N1 C1 1_555 1_555
O1 C6 1_555 1_555
O2 C6 1_555 1_555
O3 Cd1 1_555 1_555
H1 O3 1_555 1_555
H2 O3 1_555 1_555
C1 H3 1_555 1_555
C2 C1 1_555 1_555
H4 C2 1_555 1_555
C3 C2 1_555 1_555
H5 C3 1_555 1_555
C4 C3 1_555 1_555
C5 N1 1_555 1_555
H6 C5 1_555 1_555
C6 C4 1_555 1_555
Cd1C O2 1_555 1_555
Cd1C_2 O2B 1_555 1_555
N1B Cd1 1_555 1_555
O1B C6B 1_555 1_555
O2B C6B 1_555 1_555
O2C Cd1 1_555 1_555
O2A Cd1 1_555 1_555
O3B Cd1 1_555 1_555
H1B O3B 1_555 1_555
H2B O3B 1_555 1_555
C1B N1B 1_555 1_555
H3B C1B 1_555 1_555
C2B C1B 1_555 1_555
H4B C2B 1_555 1_555
C3B C2B 1_555 1_555
H5B C3B 1_555 1_555
C4B C3B 1_555 1_555
C5B N1B 1_555 1_555
H6B C5B 1_555 1_555
C6B C4B 1_555 1_555
C4 C5 1_555 1_555
C4B C5B 1_555 1_555

#END
