
#######################################################################
#
#                 Cambridge Crystallographic Data Centre
#                                CCDC 
#
#######################################################################
#
# If this CIF has been generated from an entry in the Cambridge 
# Structural Database, then it will include bibliographic, chemical, 
# crystal, experimental, refinement or atomic coordinate data resulting 
# from the CCDC's data processing and validation procedures.
#
#######################################################################

data_WIHXAO
_symmetry_cell_setting           orthorhombic
_symmetry_space_group_name_H-M   'P 21 21 21'
_symmetry_Int_Tables_number      19
_space_group_name_Hall           'P 2ac 2ab'
loop_
_symmetry_equiv_pos_site_id
_symmetry_equiv_pos_as_xyz
1 x,y,z
2 1/2-x,-y,1/2+z
3 1/2+x,1/2-y,-z
4 -x,1/2+y,1/2-z
_cell_length_a                   7.1294(3)
_cell_length_b                   11.9506(4)
_cell_length_c                   15.2184(5)
_cell_angle_alpha                90
_cell_angle_beta                 90
_cell_angle_gamma                90
_cell_volume                     1296.62
loop_
_atom_site_label
_atom_site_type_symbol
_atom_site_fract_x
_atom_site_fract_y
_atom_site_fract_z
Ag1 Ag 0.48124(7) 0.65201(4) 0.05286(3)
O1 O 0.5790(9) 0.7785(4) -0.0698(4)
O2 O 0.6067(9) 0.9301(4) -0.1371(4)
O3 O 0.3665(8) 0.9009(6) -0.0630(6)
N1 N 0.4999(9) 0.7721(4) 0.1620(3)
N2 N 0.1893(9) 0.8768(4) 0.3319(4)
H1 H 0.1932 0.9248 0.3740
N3 N 0.0255(8) 0.5023(4) 0.4746(3)
N4 N 0.5116(9) 0.8690(4) -0.0906(3)
C1 C 0.3638(9) 0.7787(5) 0.2194(4)
H2 H 0.2791 0.7197 0.2230
C2 C 0.3393(10) 0.8704(5) 0.2758(4)
C3 C 0.4723(11) 0.9532(5) 0.2723(4)
H3 H 0.4636 1.0146 0.3096
C4 C 0.6174(11) 0.9456(6) 0.2141(5)
H4 H 0.7080 1.0015 0.2114
C5 C 0.6280(9) 0.8528(6) 0.1585(5)
H5 H 0.7262 0.8474 0.1185
C6 C 0.0273(10) 0.8078(5) 0.3237(4)
H6 H 0.0109 0.7895 0.2621
H7 H -0.0812 0.8510 0.3419
C7 C 0.1540(11) 0.5809(6) 0.4851(5)
H8 H 0.2469 0.5688 0.5270
C8 C 0.1594(10) 0.6801(5) 0.4380(5)
H9 H 0.2522 0.7328 0.4494
C9 C 0.0294(9) 0.6997(5) 0.3757(4)
C10 C -0.1025(10) 0.6200(6) 0.3625(5)
H10 H -0.1937 0.6306 0.3196
C11 C -0.1033(10) 0.5216(6) 0.4129(5)
H11 H -0.1962 0.4684 0.4030
Ag1A Ag 0.01876(7) 0.34799(4) 0.55286(3)
N3A N 0.4745(8) 0.4977(4) -0.0254(3)
loop_
_geom_bond_atom_site_label_1
_geom_bond_atom_site_label_2
_geom_bond_site_symmetry_1
_geom_bond_site_symmetry_2
Ag1 O1 1_555 1_555
O1 N4 1_555 1_555
O2 N4 1_555 1_555
O3 N4 1_555 1_555
N1 Ag1 1_555 1_555
N2 H1 1_555 1_555
N3 C7 1_555 1_555
C1 N1 1_555 1_555
H2 C1 1_555 1_555
C2 N2 1_555 1_555
C3 C2 1_555 1_555
H3 C3 1_555 1_555
C4 C3 1_555 1_555
H4 C4 1_555 1_555
C5 N1 1_555 1_555
H5 C5 1_555 1_555
C6 N2 1_555 1_555
H6 C6 1_555 1_555
H7 C6 1_555 1_555
C7 H8 1_555 1_555
C8 C7 1_555 1_555
H9 C8 1_555 1_555
C9 C6 1_555 1_555
C10 C9 1_555 1_555
H10 C10 1_555 1_555
C11 N3 1_555 1_555
H11 C11 1_555 1_555
Ag1A N3 1_555 1_555
N3A Ag1 1_555 1_555
C1 C2 1_555 1_555
C4 C5 1_555 1_555
C8 C9 1_555 1_555
C10 C11 1_555 1_555

#END
