
#######################################################################
#
#                 Cambridge Crystallographic Data Centre
#                                CCDC 
#
#######################################################################
#
# If this CIF has been generated from an entry in the Cambridge 
# Structural Database, then it will include bibliographic, chemical, 
# crystal, experimental, refinement or atomic coordinate data resulting 
# from the CCDC's data processing and validation procedures.
#
#######################################################################

data_WIHXES
_symmetry_cell_setting           monoclinic
_symmetry_space_group_name_H-M   'P 21/c'
_symmetry_Int_Tables_number      14
_space_group_name_Hall           '-P 2ybc'
loop_
_symmetry_equiv_pos_site_id
_symmetry_equiv_pos_as_xyz
1 x,y,z
2 -x,1/2+y,1/2-z
3 -x,-y,-z
4 x,1/2-y,1/2+z
_cell_length_a                   7.3958(15)
_cell_length_b                   17.016(3)
_cell_length_c                   10.135(2)
_cell_angle_alpha                90
_cell_angle_beta                 90.60(3)
_cell_angle_gamma                90
_cell_volume                     1275.39
loop_
_atom_site_label
_atom_site_type_symbol
_atom_site_fract_x
_atom_site_fract_y
_atom_site_fract_z
Ag1 Ag 0.28725(6) 0.43479(3) 0.60244(4)
O1 O 0.3300(6) 0.5600(2) 0.4574(5)
O2 O 0.0991(6) 0.5404(3) 0.3327(6)
O3 O 0.2737(8) 0.6377(3) 0.2996(5)
N1 N 0.2192(6) 0.3413(2) 0.4659(4)
N2 N 0.4792(6) 0.2728(3) 0.5143(5)
H1 H 0.4990 0.3060 0.5767
N3 N 0.6566(6) 0.0133(3) 0.7326(4)
N4 N 0.2313(6) 0.5784(3) 0.3630(5)
C1 C 0.7669(8) 0.0245(4) 0.6309(6)
H2 H 0.8579 -0.0121 0.6161
C2 C 0.7520(9) 0.0873(4) 0.5478(7)
H3 H 0.8313 0.0923 0.4777
C3 C 0.6217(7) 0.1426(3) 0.5668(5)
C4 C 0.5037(7) 0.1299(3) 0.6671(5)
H4 H 0.4091 0.1648 0.6812
C5 C 0.5246(8) 0.0659(3) 0.7465(6)
H5 H 0.4423 0.0585 0.8142
C6 C 0.6196(8) 0.2165(3) 0.4837(6)
H6 H 0.7359 0.2424 0.4936
H7 H 0.6064 0.2015 0.3918
C7 C 0.3179(7) 0.2756(3) 0.4494(5)
C8 C 0.2573(8) 0.2149(4) 0.3691(6)
H8 H 0.3254 0.1693 0.3604
C9 C 0.0972(9) 0.2226(4) 0.3030(7)
H9 H 0.0545 0.1821 0.2497
C10 C -0.0010(8) 0.2906(4) 0.3154(6)
H10 H -0.1086 0.2976 0.2686
C11 C 0.0626(8) 0.3474(4) 0.3977(6)
H11 H -0.0056 0.3929 0.4075
Ag1A Ag 0.71275(6) -0.06521(3) 0.89756(4)
N3A N 0.3434(6) 0.5133(3) 0.7674(4)
loop_
_geom_bond_atom_site_label_1
_geom_bond_atom_site_label_2
_geom_bond_site_symmetry_1
_geom_bond_site_symmetry_2
Ag1 O1 1_555 1_555
O1 N4 1_555 1_555
O2 N4 1_555 1_555
O3 N4 1_555 1_555
N1 Ag1 1_555 1_555
N2 H1 1_555 1_555
N3 C1 1_555 1_555
C1 H2 1_555 1_555
C2 C1 1_555 1_555
H3 C2 1_555 1_555
C3 C2 1_555 1_555
C4 C3 1_555 1_555
H4 C4 1_555 1_555
C5 N3 1_555 1_555
H5 C5 1_555 1_555
C6 N2 1_555 1_555
H6 C6 1_555 1_555
H7 C6 1_555 1_555
C7 N1 1_555 1_555
C8 C7 1_555 1_555
H8 C8 1_555 1_555
C9 C8 1_555 1_555
H9 C9 1_555 1_555
C10 C9 1_555 1_555
H10 C10 1_555 1_555
C11 N1 1_555 1_555
H11 C11 1_555 1_555
Ag1A N3 1_555 1_555
N3A Ag1 1_555 1_555
N2 C7 1_555 1_555
C3 C6 1_555 1_555
C4 C5 1_555 1_555
C10 C11 1_555 1_555

#END
