
#######################################################################
#
#                 Cambridge Crystallographic Data Centre
#                                CCDC 
#
#######################################################################
#
# If this CIF has been generated from an entry in the Cambridge 
# Structural Database, then it will include bibliographic, chemical, 
# crystal, experimental, refinement or atomic coordinate data resulting 
# from the CCDC's data processing and validation procedures.
#
#######################################################################

data_WIHXOC
_symmetry_cell_setting           monoclinic
_symmetry_space_group_name_H-M   'P 21/c'
_symmetry_Int_Tables_number      14
_space_group_name_Hall           '-P 2ybc'
loop_
_symmetry_equiv_pos_site_id
_symmetry_equiv_pos_as_xyz
1 x,y,z
2 -x,1/2+y,1/2-z
3 -x,-y,-z
4 x,1/2-y,1/2+z
_cell_length_a                   8.3872(4)
_cell_length_b                   5.6936(3)
_cell_length_c                   25.8904(12)
_cell_angle_alpha                90
_cell_angle_beta                 100.486(4)
_cell_angle_gamma                90
_cell_volume                     1215.71
loop_
_atom_site_label
_atom_site_type_symbol
_atom_site_fract_x
_atom_site_fract_y
_atom_site_fract_z
Ag1 Ag 0.70081(3) -0.05755(6) 0.364797(9)
O1 O 0.9790(3) 0.1036(5) 0.42497(10)
O2 O 1.0290(3) -0.1888(7) 0.37805(12)
O3 O 1.2168(3) 0.0560(6) 0.40654(11)
N1 N 0.7354(3) 0.1825(6) 0.30256(9)
N2 N 0.6148(3) 0.2393(6) 0.15902(9)
H1 H 0.6014 0.3529 0.1368
N3 N 0.3356(3) 0.1735(6) 0.07857(9)
N4 N 1.0741(3) -0.0113(7) 0.40335(10)
C1 C 0.6678(4) 0.1381(7) 0.25222(11)
H2 H 0.6035 0.0049 0.2450
C2 C 0.6891(3) 0.2811(7) 0.21055(10)
C3 C 0.7874(4) 0.4781(7) 0.22284(12)
H3 H 0.8062 0.5792 0.1964
C4 C 0.8567(4) 0.5224(8) 0.27436(13)
H4 H 0.9220 0.6539 0.2828
C5 C 0.8287(4) 0.3713(8) 0.31323(12)
H5 H 0.8765 0.4021 0.3479
C6 C 0.5599(5) 0.0071(8) 0.14253(14)
H6 H 0.5066 -0.0612 0.1692
H7 H 0.6535 -0.0894 0.1400
C7 C 0.4438(3) 0.0001(7) 0.09022(11)
C8 C 0.4456(4) -0.1883(8) 0.05739(12)
H8 H 0.5216 -0.3073 0.0663
C9 C 0.3351(4) -0.2011(8) 0.01122(12)
H9 H 0.3345 -0.3293 -0.0111
C10 C 0.2258(4) -0.0218(8) -0.00139(12)
H10 H 0.1507 -0.0248 -0.0326
C11 C 0.2296(4) 0.1609(8) 0.03285(11)
H11 H 0.1555 0.2825 0.0242
Ag1A Ag 0.29919(3) 0.44245(6) 0.135203(9)
N3A N 0.6644(3) -0.3265(6) 0.42143(9)
loop_
_geom_bond_atom_site_label_1
_geom_bond_atom_site_label_2
_geom_bond_site_symmetry_1
_geom_bond_site_symmetry_2
Ag1 O1 1_555 1_555
O1 N4 1_555 1_555
O2 N4 1_555 1_555
O3 N4 1_555 1_555
N1 Ag1 1_555 1_555
N2 H1 1_555 1_555
N3 C7 1_555 1_555
C1 N1 1_555 1_555
H2 C1 1_555 1_555
C2 N2 1_555 1_555
C3 C2 1_555 1_555
H3 C3 1_555 1_555
C4 C3 1_555 1_555
H4 C4 1_555 1_555
C5 N1 1_555 1_555
H5 C5 1_555 1_555
C6 N2 1_555 1_555
H6 C6 1_555 1_555
H7 C6 1_555 1_555
C7 C6 1_555 1_555
C8 C7 1_555 1_555
H8 C8 1_555 1_555
C9 C8 1_555 1_555
H9 C9 1_555 1_555
C10 C9 1_555 1_555
H10 C10 1_555 1_555
C11 N3 1_555 1_555
H11 C11 1_555 1_555
Ag1A N3 1_555 1_555
N3A Ag1 1_555 1_555
C1 C2 1_555 1_555
C4 C5 1_555 1_555
C10 C11 1_555 1_555

#END
