
#######################################################################
#
#                 Cambridge Crystallographic Data Centre
#                                CCDC 
#
#######################################################################
#
# If this CIF has been generated from an entry in the Cambridge 
# Structural Database, then it will include bibliographic, chemical, 
# crystal, experimental, refinement or atomic coordinate data resulting 
# from the CCDC's data processing and validation procedures.
#
#######################################################################

data_WIHXIW
_symmetry_cell_setting           monoclinic
_symmetry_space_group_name_H-M   'P 21/n'
_symmetry_Int_Tables_number      14
_space_group_name_Hall           '-P 2yn'
loop_
_symmetry_equiv_pos_site_id
_symmetry_equiv_pos_as_xyz
1 x,y,z
2 1/2-x,1/2+y,1/2-z
3 -x,-y,-z
4 1/2+x,1/2-y,1/2+z
_cell_length_a                   9.6939(19)
_cell_length_b                   9.5621(19)
_cell_length_c                   13.715(3)
_cell_angle_alpha                90
_cell_angle_beta                 102.13(3)
_cell_angle_gamma                90
_cell_volume                     1242.91
loop_
_atom_site_label
_atom_site_type_symbol
_atom_site_fract_x
_atom_site_fract_y
_atom_site_fract_z
Ag1 Ag 0.88138(6) 0.59257(6) 0.70112(4)
O1 O 0.8328(6) 0.8380(6) 0.7619(4)
O2 O 0.9796(7) 0.8975(7) 0.6728(5)
O3 O 0.8741(6) 1.0547(6) 0.7435(4)
N1 N 0.8452(6) 0.5830(5) 0.5371(4)
N2 N 0.6785(6) 0.4105(5) 0.5319(4)
H1 H 0.7074 0.4046 0.5955
N3 N 0.5170(6) -0.0071(5) 0.3386(4)
N4 N 0.8988(7) 0.9294(7) 0.7247(4)
C1 C 0.9209(7) 0.6684(7) 0.4901(5)
H2 H 0.9890 0.7252 0.5288
C2 C 0.9024(8) 0.6760(8) 0.3881(6)
H3 H 0.9569 0.7359 0.3582
C3 C 0.8010(9) 0.5921(8) 0.3316(6)
H4 H 0.7846 0.5972 0.2625
C4 C 0.7240(8) 0.5015(8) 0.3758(5)
H5 H 0.6565 0.4439 0.3373
C5 C 0.7488(7) 0.4968(6) 0.4807(5)
C6 C 0.5580(7) 0.3283(7) 0.4856(5)
H6 H 0.5049 0.3807 0.4295
H7 H 0.4976 0.3166 0.5331
C7 C 0.5894(7) 0.1859(6) 0.4489(5)
C8 C 0.7089(8) 0.1114(7) 0.4944(5)
H8 H 0.7732 0.1501 0.5475
C9 C 0.7310(8) -0.0193(8) 0.4604(5)
H9 H 0.8118 -0.0693 0.4885
C10 C 0.6317(8) -0.0760(7) 0.3836(5)
H10 H 0.6457 -0.1663 0.3625
C11 C 0.4977(7) 0.1219(7) 0.3721(5)
H11 H 0.4173 0.1708 0.3414
Ag1C Ag 0.38138(6) -0.09257(6) 0.20112(4)
N3C N 1.0170(6) 0.5071(5) 0.8386(4)
loop_
_geom_bond_atom_site_label_1
_geom_bond_atom_site_label_2
_geom_bond_site_symmetry_1
_geom_bond_site_symmetry_2
Ag1 O1 1_555 1_555
O1 N4 1_555 1_555
O2 N4 1_555 1_555
O3 N4 1_555 1_555
N1 Ag1 1_555 1_555
N2 H1 1_555 1_555
N3 C10 1_555 1_555
C1 N1 1_555 1_555
H2 C1 1_555 1_555
C2 C1 1_555 1_555
H3 C2 1_555 1_555
C3 C2 1_555 1_555
H4 C3 1_555 1_555
C4 C3 1_555 1_555
H5 C4 1_555 1_555
C5 N1 1_555 1_555
C6 N2 1_555 1_555
H6 C6 1_555 1_555
H7 C6 1_555 1_555
C7 C6 1_555 1_555
C8 C7 1_555 1_555
H8 C8 1_555 1_555
C9 C8 1_555 1_555
H9 C9 1_555 1_555
C10 C9 1_555 1_555
H10 C10 1_555 1_555
C11 N3 1_555 1_555
H11 C11 1_555 1_555
Ag1C N3 1_555 1_555
N3C Ag1 1_555 1_555
N2 C5 1_555 1_555
C4 C5 1_555 1_555
C7 C11 1_555 1_555

#END
