
#######################################################################
#
#                 Cambridge Crystallographic Data Centre
#                                CCDC 
#
#######################################################################
#
# If this CIF has been generated from an entry in the Cambridge 
# Structural Database, then it will include bibliographic, chemical, 
# crystal, experimental, refinement or atomic coordinate data resulting 
# from the CCDC's data processing and validation procedures.
#
#######################################################################

data_WIJDID
_symmetry_cell_setting           orthorhombic
_symmetry_space_group_name_H-M   'P n a 21'
_symmetry_Int_Tables_number      33
_space_group_name_Hall           'P 2c -2n'
loop_
_symmetry_equiv_pos_site_id
_symmetry_equiv_pos_as_xyz
1 x,y,z
2 -x,-y,1/2+z
3 1/2+x,1/2-y,z
4 1/2-x,1/2+y,1/2+z
_cell_length_a                   17.8255(18)
_cell_length_b                   3.6689(4)
_cell_length_c                   15.9805(18)
_cell_angle_alpha                90
_cell_angle_beta                 90
_cell_angle_gamma                90
_cell_volume                     1045.12
loop_
_atom_site_label
_atom_site_type_symbol
_atom_site_fract_x
_atom_site_fract_y
_atom_site_fract_z
Cu1 Cu 0.80219(3) 0.15850(17) 0.84979(3)
Cu2 Cu 0.99175(3) -0.18339(18) 0.83767(4)
Cu3 Cu 0.88565(3) 0.58741(18) 0.65315(4)
Cl1 Cl 0.80771(6) 0.1088(3) 0.70626(7)
Cl2 Cl 0.87900(6) -0.3269(3) 0.90140(7)
Cl3 Cl 1.00100(6) -0.4820(3) 0.71385(8)
N1 N 0.62501(17) 0.2026(9) 1.0292(2)
N2 N 0.6513(2) 0.4874(10) 0.7872(2)
H1 H 0.6936 0.4522 0.7625
H2 H 0.6147 0.5862 0.7604
C1 C 0.6897(2) 0.1459(10) 0.9871(2)
N3 N 0.70112(18) 0.2352(10) 0.9064(2)
N4 N 0.57444(19) 0.4535(9) 0.90255(19)
C2 C 0.6426(2) 0.3898(11) 0.8660(2)
N5 N 0.74621(19) -0.0037(10) 1.0287(2)
H3 H 0.7409 -0.0610 1.0806
H4 H 0.7882 -0.0435 1.0039
N6 N 0.5048(2) 0.4202(10) 1.0226(2)
H5 H 0.4683 0.5181 0.9956
H6 H 0.4994 0.3631 1.0745
C3 C 0.5693(2) 0.3573(11) 0.9845(2)
Cu1_2 Cu 0.80219(3) -0.84150(17) 0.84979(3)
Cu2B Cu 0.49175(3) 0.68339(18) 0.83767(4)
Cu3_2 Cu 0.88565(3) -0.41259(18) 0.65315(4)
Cu3C Cu 0.61435(3) 0.08741(18) 1.15315(4)
Cl1_2 Cl 0.80771(6) 1.1088(3) 0.70626(7)
Cl2_2 Cl 0.87900(6) 0.6731(3) 0.90140(7)
Cl3_2 Cl 1.00100(6) 0.5180(3) 0.71385(8)
N1C N 0.87499(17) 0.7026(9) 0.5292(2)
N4B N 1.07444(19) 0.0465(9) 0.90255(19)
loop_
_geom_bond_atom_site_label_1
_geom_bond_atom_site_label_2
_geom_bond_site_symmetry_1
_geom_bond_site_symmetry_2
Cu1 Cl1 1_555 1_555
Cu2 Cl2 1_555 1_555
Cu3 Cl1 1_555 1_555
Cl1 Cu3_2 1_555 1_555
Cl2 Cu1 1_555 1_555
Cl3 Cu2 1_555 1_555
N1 C1 1_555 1_555
N2 H1 1_555 1_555
H2 N2 1_555 1_555
C1 N3 1_555 1_555
N3 Cu1 1_555 1_555
N4 C2 1_555 1_555
C2 N2 1_555 1_555
N5 C1 1_555 1_555
H3 N5 1_555 1_555
H4 N5 1_555 1_555
N6 H5 1_555 1_555
H6 N6 1_555 1_555
C3 N1 1_555 1_555
Cu1_2 Cl2 1_555 1_555
Cu2B N4 1_555 1_555
Cu3_2 Cl3 1_555 1_555
Cu3C N1 1_555 1_555
Cl1_2 Cu3 1_555 1_555
Cl2_2 Cu1 1_555 1_555
Cl3_2 Cu3 1_555 1_555
N1C Cu3 1_555 1_555
N4B Cu2 1_555 1_555
N3 C2 1_555 1_555
N4 C3 1_555 1_555
N6 C3 1_555 1_555

#END
