
#######################################################################
#
#                 Cambridge Crystallographic Data Centre
#                                CCDC 
#
#######################################################################
#
# If this CIF has been generated from an entry in the Cambridge 
# Structural Database, then it will include bibliographic, chemical, 
# crystal, experimental, refinement or atomic coordinate data resulting 
# from the CCDC's data processing and validation procedures.
#
#######################################################################

data_WIJDEZ
_symmetry_cell_setting           monoclinic
_symmetry_space_group_name_H-M   'P 21/m'
_symmetry_Int_Tables_number      11
_space_group_name_Hall           '-P 2yb'
loop_
_symmetry_equiv_pos_site_id
_symmetry_equiv_pos_as_xyz
1 x,y,z
2 -x,1/2+y,-z
3 -x,-y,-z
4 x,1/2-y,z
_cell_length_a                   3.872(3)
_cell_length_b                   16.647(10)
_cell_length_c                   7.377(5)
_cell_angle_alpha                90
_cell_angle_beta                 99.074(8)
_cell_angle_gamma                90
_cell_volume                     469.55
loop_
_atom_site_label
_atom_site_type_symbol
_atom_site_fract_x
_atom_site_fract_y
_atom_site_fract_z
C1 C 1.4422(10) 0.6824(2) 0.1847(5)
C2 C 1.2702(13) 0.7500 0.4253(6)
N1 N 1.3230(8) 0.67817(17) 0.3486(4)
N2 N 1.5059(12) 0.7500 0.0993(6)
N3 N 1.5036(12) 0.6131(2) 0.1048(6)
N4 N 1.1543(16) 0.7500 0.5853(7)
Cu1 Cu 1.27545(16) 0.57366(3) 0.47738(8)
Br1 Br 1.14573(9) 0.44466(2) 0.29787(5)
H1 H 1.109(10) 0.707(2) 0.632(5)
H2 H 1.549(19) 0.569(4) 0.185(12)
H3 H 1.568(13) 0.614(3) 0.025(7)
C1C C 1.4422(10) 0.8176(2) 0.1847(5)
N1C N 1.3230(8) 0.82183(17) 0.3486(4)
N3C N 1.5036(12) 0.8869(2) 0.1048(6)
Cu1C Cu 1.27545(16) 0.92634(3) 0.47738(8)
Cu1B Cu 0.72455(16) 0.42634(3) 0.52262(8)
Cu1B_2 Cu 1.72455(16) 0.42634(3) 0.52262(8)
Cu1_2 Cu 0.27545(16) 0.57366(3) 0.47738(8)
Br1B Br 0.85427(9) 0.55534(2) 0.70213(5)
Br1B_2 Br 1.85427(9) 0.55534(2) 0.70213(5)
Br1C Br 1.14573(9) 1.05534(2) 0.29787(5)
Br1A Br 0.85427(9) 0.94466(2) 0.70213(5)
Br1A_2 Br 1.85427(9) 0.94466(2) 0.70213(5)
H1C H 1.109(10) 0.793(2) 0.632(5)
H2C H 1.549(19) 0.931(4) 0.185(12)
H3C H 1.568(13) 0.886(3) 0.025(7)
loop_
_geom_bond_atom_site_label_1
_geom_bond_atom_site_label_2
_geom_bond_site_symmetry_1
_geom_bond_site_symmetry_2
C1 N1 1_555 1_555
C2 N1 1_555 1_555
N1 Cu1 1_555 1_555
N2 C1 1_555 1_555
N3 C1 1_555 1_555
N4 C2 1_555 1_555
Cu1 Br1 1_555 1_555
Br1 Cu1B 1_555 1_555
H1 N4 1_555 1_555
H2 N3 1_555 1_555
H3 N3 1_555 1_555
C1C N2 1_555 1_555
N1C C2 1_555 1_555
N3C C1C 1_555 1_555
Cu1C N1C 1_555 1_555
Cu1B Br1B 1_555 1_555
Cu1B_2 Br1 1_555 1_555
Cu1_2 Br1B 1_555 1_555
Br1B Cu1 1_555 1_555
Br1B_2 Cu1 1_555 1_555
Br1C Cu1C 1_555 1_555
Br1A Cu1C 1_555 1_555
Br1A_2 Cu1C 1_555 1_555
H1C N4 1_555 1_555
H2C N3C 1_555 1_555
H3C N3C 1_555 1_555
C1C N1C 1_555 1_555
Cu1B_2 Br1B_2 1_555 1_555

#END
