
#######################################################################
#
#                 Cambridge Crystallographic Data Centre
#                                CCDC 
#
#######################################################################
#
# If this CIF has been generated from an entry in the Cambridge 
# Structural Database, then it will include bibliographic, chemical, 
# crystal, experimental, refinement or atomic coordinate data resulting 
# from the CCDC's data processing and validation procedures.
#
#######################################################################

data_WIJFUQ
_symmetry_cell_setting           monoclinic
_symmetry_space_group_name_H-M   'P 21'
_symmetry_Int_Tables_number      4
_space_group_name_Hall           'P 2yb'
loop_
_symmetry_equiv_pos_site_id
_symmetry_equiv_pos_as_xyz
1 x,y,z
2 -x,1/2+y,-z
_cell_length_a                   5.2051(8)
_cell_length_b                   12.736(2)
_cell_length_c                   9.773(1)
_cell_angle_alpha                90
_cell_angle_beta                 95.162(6)
_cell_angle_gamma                90
_cell_volume                     645.246
loop_
_atom_site_label
_atom_site_type_symbol
_atom_site_fract_x
_atom_site_fract_y
_atom_site_fract_z
Ag1 Ag -0.05273(8) -0.0372 0.38693(4)
Ag2 Ag -0.51117(8) -0.09505(5) 0.21210(5)
O1 O -0.295(1) -0.2407(4) 0.1921(7)
O2 O -0.2728(9) 0.1033(4) 0.4303(6)
O3 O 0.0744(9) -0.1873(3) 0.2993(4)
O4 O -0.6303(9) 0.0553(3) 0.3018(5)
O5 O -0.254(1) -0.5653(4) 0.0155(5)
O6 O -0.2753(9) 0.4518(4) 0.4116(4)
N1 N -0.113(1) -0.4403(4) 0.1712(5)
N2 N -0.456(1) 0.2984(4) 0.4739(6)
C1 C -0.115(1) -0.4888(5) 0.0495(7)
C2 C -0.435(1) 0.3796(4) 0.3920(6)
C3 C 0.084(2) -0.4380(6) -0.0317(7)
C4 C -0.639(2) 0.3704(8) 0.2699(9)
C5 C 0.167(1) -0.3395(6) 0.0466(7)
C6 C -0.781(2) 0.2738(6) 0.294(1)
C7 C 0.067(1) -0.3532(5) 0.1912(6)
C8 C -0.636(1) 0.2172(5) 0.4187(7)
C9 C -0.066(1) -0.2515(5) 0.2313(6)
C10 C -0.500(1) 0.1170(5) 0.3797(6)
H1 H 0.2255 -0.4841 -0.0374
H2 H 0.0096 -0.4214 -0.1213
H3 H 0.3499 -0.3329 0.0540
H4 H 0.0926 -0.2790 0.0014
H5 H -0.7498 0.4298 0.2664
H6 H -0.5580 0.3654 0.1874
H7 H -0.7917 0.2296 0.2166
H8 H -0.9534 0.2903 0.3165
H9 H -0.7537 0.2012 0.4848
H10 H 0.2048 -0.3700 0.2576
H11 H -0.2220 -0.4619 0.2403
H12 H -0.3603 0.2924 0.5617
Ag2A Ag -0.48883(8) -0.59505(5) -0.21210(5)
O5A O -0.746(1) -0.0653(4) -0.0155(5)
loop_
_geom_bond_atom_site_label_1
_geom_bond_atom_site_label_2
_geom_bond_site_symmetry_1
_geom_bond_site_symmetry_2
Ag1 Ag2 1_555 1_555
Ag2 O1 1_555 1_555
O1 C9 1_555 1_555
O2 Ag1 1_555 1_555
O3 Ag1 1_555 1_555
O4 Ag2 1_555 1_555
O5 C1 1_555 1_555
O6 C2 1_555 1_555
N1 C1 1_555 1_555
N2 C2 1_555 1_555
C1 C3 1_555 1_555
C2 C4 1_555 1_555
C3 C5 1_555 1_555
C4 C6 1_555 1_555
C5 C7 1_555 1_555
C6 C8 1_555 1_555
C7 N1 1_555 1_555
C8 N2 1_555 1_555
C9 O3 1_555 1_555
C10 O2 1_555 1_555
H1 C3 1_555 1_555
H2 C3 1_555 1_555
H3 C5 1_555 1_555
H4 C5 1_555 1_555
H5 C4 1_555 1_555
H6 C4 1_555 1_555
H7 C6 1_555 1_555
H8 C6 1_555 1_555
H9 C8 1_555 1_555
H10 C7 1_555 1_555
H11 N1 1_555 1_555
H12 N2 1_555 1_555
Ag2A O5 1_555 1_555
O5A Ag2 1_555 1_555
O4 C10 1_555 1_555
C7 C9 1_555 1_555
C8 C10 1_555 1_555

#END
