
#######################################################################
#
#                 Cambridge Crystallographic Data Centre
#                                CCDC 
#
#######################################################################
#
# If this CIF has been generated from an entry in the Cambridge 
# Structural Database, then it will include bibliographic, chemical, 
# crystal, experimental, refinement or atomic coordinate data resulting 
# from the CCDC's data processing and validation procedures.
#
#######################################################################

data_WIJMIM
_symmetry_cell_setting           triclinic
_symmetry_space_group_name_H-M   'P -1'
_symmetry_Int_Tables_number      2
_space_group_name_Hall           '-P 1'
loop_
_symmetry_equiv_pos_site_id
_symmetry_equiv_pos_as_xyz
1 x,y,z
2 -x,-y,-z
_cell_length_a                   14.824(3)
_cell_length_b                   19.384(4)
_cell_length_c                   29.616(6)
_cell_angle_alpha                99.043(8)
_cell_angle_beta                 97.751(11)
_cell_angle_gamma                101.782(9)
_cell_volume                     8103.65
loop_
_atom_site_label
_atom_site_type_symbol
_atom_site_fract_x
_atom_site_fract_y
_atom_site_fract_z
Cu1 Cu 0.56432(7) 0.61800(6) 0.40139(4)
Cu2 Cu 0.92752(7) 0.22464(5) 0.40239(4)
Cu3 Cu 0.93271(7) 0.39317(6) 0.09949(4)
Cu4 Cu 0.57416(7) 0.78275(5) 0.10399(4)
O1 O 0.6659(4) 0.6300(3) 0.4516(2)
O2 O 0.5147(4) 0.5209(3) 0.4073(2)
O3 O 0.9629(4) 0.3095(3) 0.4503(2)
O4 O 0.7981(4) 0.2078(3) 0.4106(2)
O5 O 0.8837(4) 0.1511(3) 0.3471(2)
O6 O 1.0464(4) 0.2544(3) 0.3833(2)
O7 O 0.8784(4) 0.2968(3) 0.1053(2)
O8 O 1.0478(4) 0.3939(3) 0.1383(2)
O9 O 0.9916(4) 0.4854(3) 0.0875(2)
O10 O 0.8267(4) 0.3837(3) 0.0516(2)
O11 O 0.7038(4) 0.8015(3) 0.0947(2)
O12 O 0.5411(4) 0.6963(3) 0.0578(2)
O13 O 0.4509(4) 0.7562(3) 0.1200(2)
O14 O 0.6181(4) 0.8513(3) 0.1606(2)
O15 O 0.4508(4) 0.6099(3) 0.3589(2)
O16 O 0.6037(4) 0.7195(3) 0.4019(2)
N1 N 0.6487(5) 0.5825(4) 0.3432(3)
N2 N 0.8700(5) 0.4464(4) 0.1617(3)
N3 N 0.9657(5) 0.1476(4) 0.4471(3)
N4 N 0.5371(5) 0.8599(4) 0.0592(3)
C1 C 0.7758(7) 0.6062(6) 0.5091(4)
H1 H 0.8126 0.6511 0.5034
H2 H 0.8130 0.5697 0.5072
H3 H 0.7588 0.6143 0.5400
C2 C 0.6878(6) 0.5805(5) 0.4727(3)
C3 C 0.6368(6) 0.5095(5) 0.4648(3)
C4 C 0.5519(6) 0.4843(5) 0.4333(3)
C5 C 0.4963(7) 0.4088(5) 0.4304(4)
H4 H 0.4831 0.4023 0.4612
H5 H 0.5324 0.3745 0.4193
H6 H 0.4372 0.4005 0.4088
C6 C 0.6731(6) 0.4564(5) 0.4909(3)
C7 C 0.6556(6) 0.4501(5) 0.5346(4)
H7 H 0.6215 0.4808 0.5494
C8 C 0.6870(7) 0.3991(5) 0.5581(4)
H8 H 0.6736 0.3947 0.5881
C9 C 0.7381(7) 0.3556(5) 0.5361(4)
H9 H 0.7615 0.3220 0.5517
C10 C 0.7554(6) 0.3605(5) 0.4915(4)
C11 C 0.7227(6) 0.4118(5) 0.4697(3)
H10 H 0.7350 0.4160 0.4395
C12 C 0.9553(7) 0.4032(5) 0.5089(4)
H11 H 0.9477 0.3934 0.5398
H12 H 0.9272 0.4433 0.5032
H13 H 1.0220 0.4156 0.5071
C13 C 0.9079(6) 0.3381(5) 0.4730(3)
C14 C 0.8100(6) 0.3137(4) 0.4662(3)
C15 C 0.7608(6) 0.2508(5) 0.4360(3)
C16 C 0.6557(6) 0.2260(5) 0.4308(4)
H14 H 0.6346 0.1790 0.4101
H15 H 0.6258 0.2608 0.4177
H16 H 0.6386 0.2221 0.4613
C17 C 0.8682(7) 0.0850(6) 0.2714(4)
H17 H 0.8934 0.0422 0.2722
H18 H 0.8742 0.1006 0.2418
H19 H 0.8021 0.0737 0.2745
C18 C 0.9219(6) 0.1440(5) 0.3107(3)
C19 C 1.0086(6) 0.1857(5) 0.3058(3)
C20 C 1.0656(6) 0.2380(5) 0.3431(3)
C21 C 1.1599(6) 0.2791(6) 0.3358(4)
H20 H 1.1934 0.3102 0.3651
H21 H 1.1503 0.3085 0.3123
H22 H 1.1969 0.2451 0.3253
C22 C 1.0368(6) 0.1808(5) 0.2596(3)
C23 C 1.0920(8) 0.1350(6) 0.2432(4)
H23 H 1.1112 0.1031 0.2618
C24 C 1.1185(9) 0.1354(7) 0.2010(4)
H24 H 1.1574 0.1048 0.1910
C25 C 1.0893(8) 0.1805(6) 0.1719(4)
H25 H 1.1070 0.1790 0.1421
C26 C 1.0354(6) 0.2264(5) 0.1864(3)
C27 C 1.0105(6) 0.2260(5) 0.2302(3)
H26 H 0.9737 0.2581 0.2406
C28 C 0.8537(8) 0.1842(5) 0.1283(4)
H27 H 0.8367 0.1800 0.1588
H28 H 0.8878 0.1475 0.1190
H29 H 0.7968 0.1773 0.1054
C29 C 0.9147(6) 0.2575(5) 0.1310(3)
C30 C 1.0040(6) 0.2772(4) 0.1574(3)
C31 C 1.0661(6) 0.3446(5) 0.1599(3)
C32 C 1.1614(7) 0.3616(6) 0.1895(4)
H30 H 1.1957 0.4094 0.1871
H31 H 1.1958 0.3259 0.1787
H32 H 1.1548 0.3607 0.2219
C33 C 1.0173(7) 0.5938(5) 0.0601(4)
H33 H 1.0771 0.6003 0.0808
H34 H 0.9866 0.6322 0.0705
H35 H 1.0285 0.5954 0.0284
C34 C 0.9556(6) 0.5224(5) 0.0611(3)
C35 C 0.8667(6) 0.5024(5) 0.0343(3)
C36 C 0.8084(6) 0.4333(5) 0.0293(3)
C37 C 0.7165(7) 0.4121(6) -0.0042(4)
H36 H 0.6787 0.3677 0.0017
H37 H 0.7286 0.4042 -0.0361
H38 H 0.6827 0.4504 0.0002
C38 C 0.8300(6) 0.5565(5) 0.0092(3)
C39 C 0.8433(6) 0.5639(5) -0.0348(3)
H39 H 0.8763 0.5337 -0.0510
C40 C 0.8096(7) 0.6143(5) -0.0562(4)
H40 H 0.8186 0.6181 -0.0869
C41 C 0.7625(7) 0.6595(5) -0.0324(4)
H41 H 0.7410 0.6952 -0.0466
C42 C 0.7468(6) 0.6526(5) 0.0123(3)
C43 C 0.7812(6) 0.6013(5) 0.0319(3)
H42 H 0.7711 0.5963 0.0623
C44 C 0.8412(6) 0.7915(5) 0.0657(4)
H43 H 0.8654 0.8351 0.0895
H44 H 0.8471 0.8031 0.0350
H45 H 0.8772 0.7557 0.0715
C45 C 0.7399(6) 0.7618(5) 0.0673(3)
C46 C 0.6932(6) 0.6972(5) 0.0389(3)
C47 C 0.5973(6) 0.6681(5) 0.0354(3)
C48 C 0.5498(6) 0.5988(5) 0.0025(4)
H46 H 0.4888 0.5799 0.0106
H47 H 0.5887 0.5638 0.0047
H48 H 0.5410 0.6076 -0.0294
C49 C 0.3281(6) 0.7404(6) 0.1624(3)
H49 H 0.2895 0.7756 0.1602
H50 H 0.3273 0.7248 0.1923
H51 H 0.3032 0.6988 0.1371
C50 C 0.4271(6) 0.7741(5) 0.1587(3)
C51 C 0.4855(6) 0.8213(5) 0.1973(3)
C52 C 0.5776(6) 0.8573(5) 0.1964(3)
C53 C 0.6344(8) 0.9084(7) 0.2392(4)
H52 H 0.6709 0.8826 0.2577
H53 H 0.5923 0.9283 0.2577
H54 H 0.6769 0.9475 0.2300
C54 C 0.4526(7) 0.8254(5) 0.2429(3)
C55 C 0.3956(7) 0.8709(5) 0.2578(4)
H55 H 0.3778 0.9024 0.2385
C56 C 0.3649(8) 0.8707(6) 0.2999(4)
H56 H 0.3263 0.9021 0.3091
C57 C 0.3894(7) 0.8257(5) 0.3286(3)
H57 H 0.3679 0.8261 0.3574
C58 C 0.4461(6) 0.7795(5) 0.3152(3)
C59 C 0.4770(6) 0.7813(5) 0.2727(3)
H58 H 0.5167 0.7507 0.2639
C60 C 0.3336(6) 0.6354(5) 0.3068(4)
H59 H 0.2963 0.5926 0.3149
H60 H 0.3440 0.6242 0.2748
H61 H 0.3000 0.6741 0.3098
C61 C 0.4260(6) 0.6590(5) 0.3390(3)
C62 C 0.4786(6) 0.7304(5) 0.3452(3)
C63 C 0.5639(6) 0.7569(5) 0.3769(3)
C64 C 0.6132(8) 0.8332(5) 0.3823(4)
H62 H 0.6601 0.8470 0.4108
H63 H 0.5679 0.8636 0.3841
H64 H 0.6442 0.8396 0.3555
C65 C 0.6263(6) 0.5914(5) 0.3001(3)
H65 H 0.5785 0.6164 0.2938
C66 C 0.6679(6) 0.5666(5) 0.2633(3)
H66 H 0.6489 0.5745 0.2329
C67 C 0.7377(6) 0.5300(5) 0.2719(3)
C68 C 0.7615(7) 0.5219(6) 0.3168(4)
H67 H 0.8102 0.4984 0.3244
C69 C 0.7161(7) 0.5472(6) 0.3507(4)
H68 H 0.7333 0.5392 0.3812
C70 C 0.8418(6) 0.5080(5) 0.1627(3)
H69 H 0.8508 0.5328 0.1379
C71 C 0.8007(6) 0.5371(5) 0.1975(3)
H70 H 0.7838 0.5817 0.1967
C72 C 0.7836(6) 0.5016(5) 0.2339(3)
C73 C 0.8149(7) 0.4380(5) 0.2335(4)
H71 H 0.8076 0.4124 0.2581
C74 C 0.8562(6) 0.4126(5) 0.1975(4)
H72 H 0.8760 0.3691 0.1978
C75 C 0.9154(7) 0.1254(5) 0.4786(3)
H73 H 0.8692 0.1503 0.4869
C76 C 0.9267(7) 0.0688(5) 0.4996(4)
H74 H 0.8883 0.0555 0.5215
C77 C 0.9929(6) 0.0310(4) 0.4896(3)
C78 C 1.0476(6) 0.0561(5) 0.4579(3)
H75 H 1.0966 0.0340 0.4503
C79 C 1.0309(6) 0.1122(5) 0.4379(4)
H76 H 1.0685 0.1268 0.4160
C80 C 0.5730(10) 0.8709(6) 0.0223(4)
H77 H 0.6114 0.8404 0.0116
C81 C 0.5585(10) 0.9242(7) -0.0021(4)
H78 H 0.5857 0.9285 -0.0291
C82 C 0.5063(6) 0.9698(5) 0.0119(4)
C83 C 0.4650(11) 0.9567(8) 0.0485(6)
H79 H 0.4232 0.9846 0.0586
C84 C 0.4834(12) 0.9021(9) 0.0717(6)
H80 H 0.4549 0.8955 0.0980
Cu1A Cu 1.43568(7) -0.61800(6) 0.59861(4)
Cu2A Cu 1.07248(7) -0.22464(5) 0.59761(4)
Cu3A Cu 1.06729(7) -0.39317(6) 0.90051(4)
Cu4A Cu 0.42584(7) 1.21725(5) -0.10399(4)
Cu4A_2 Cu 1.42584(7) -0.78275(5) 0.89601(4)
O1A O 1.3341(4) -0.6300(3) 0.5484(2)
O2A O 1.4853(4) -0.5209(3) 0.5927(2)
O3A O 1.0371(4) -0.3095(3) 0.5497(2)
O4A O 1.2019(4) -0.2078(3) 0.5894(2)
O5A O 1.1163(4) -0.1511(3) 0.6529(2)
O6A O 0.9536(4) -0.2544(3) 0.6167(2)
O7A O 1.1216(4) -0.2968(3) 0.8947(2)
O8A O 0.9522(4) -0.3939(3) 0.8617(2)
O9A O 1.0084(4) -0.4854(3) 0.9125(2)
O10A O 1.1733(4) -0.3837(3) 0.9484(2)
O11A O 1.2962(4) -0.8015(3) 0.9053(2)
O12A O 1.4589(4) -0.6963(3) 0.9422(2)
O13A O 1.5491(4) -0.7562(3) 0.8800(2)
O14A O 1.3819(4) -0.8513(3) 0.8394(2)
O15A O 1.5492(4) -0.6099(3) 0.6411(2)
O16A O 1.3963(4) -0.7195(3) 0.5981(2)
N1A N 1.3513(5) -0.5825(4) 0.6568(3)
N2A N 1.1300(5) -0.4464(4) 0.8383(3)
N3A N 1.0343(5) -0.1476(4) 0.5529(3)
N4A N 0.4629(5) 1.1401(4) -0.0592(3)
N4A_2 N 1.4629(5) -0.8599(4) 0.9408(3)
C1A C 1.2242(7) -0.6062(6) 0.4909(4)
H1A H 1.1874 -0.6511 0.4966
H2A H 1.1870 -0.5697 0.4928
H3A H 1.2412 -0.6143 0.4600
C2A C 1.3122(6) -0.5805(5) 0.5273(3)
C3A C 1.3632(6) -0.5095(5) 0.5352(3)
C4A C 1.4481(6) -0.4843(5) 0.5667(3)
C5A C 1.5037(7) -0.4088(5) 0.5696(4)
H4A H 1.5169 -0.4023 0.5388
H5A H 1.4676 -0.3745 0.5807
H6A H 1.5628 -0.4005 0.5912
C6A C 1.3269(6) -0.4564(5) 0.5091(3)
C7A C 1.3444(6) -0.4501(5) 0.4654(4)
H7A H 1.3785 -0.4808 0.4506
C8A C 1.3130(7) -0.3991(5) 0.4419(4)
H8A H 1.3264 -0.3947 0.4119
C9A C 1.2619(7) -0.3556(5) 0.4639(4)
H9A H 1.2385 -0.3220 0.4483
C10A C 1.2446(6) -0.3605(5) 0.5085(4)
C11A C 1.2773(6) -0.4118(5) 0.5303(3)
H10A H 1.2650 -0.4160 0.5605
C12A C 1.0447(7) -0.4032(5) 0.4911(4)
H11A H 1.0523 -0.3934 0.4602
H12A H 1.0728 -0.4433 0.4968
H13A H 0.9780 -0.4156 0.4929
C13A C 1.0921(6) -0.3381(5) 0.5270(3)
C14A C 1.1900(6) -0.3137(4) 0.5338(3)
C15A C 1.2392(6) -0.2508(5) 0.5640(3)
C16A C 1.3443(6) -0.2260(5) 0.5692(4)
H14A H 1.3654 -0.1790 0.5899
H15A H 1.3742 -0.2608 0.5823
H16A H 1.3614 -0.2221 0.5387
C17A C 1.1318(7) -0.0850(6) 0.7286(4)
H17A H 1.1066 -0.0422 0.7278
H18A H 1.1258 -0.1006 0.7582
H19A H 1.1979 -0.0737 0.7255
C18A C 1.0781(6) -0.1440(5) 0.6893(3)
C19A C 0.9914(6) -0.1857(5) 0.6942(3)
C20A C 0.9344(6) -0.2380(5) 0.6569(3)
C21A C 0.8401(6) -0.2791(6) 0.6642(4)
H20A H 0.8066 -0.3102 0.6349
H21A H 0.8497 -0.3085 0.6877
H22A H 0.8031 -0.2451 0.6747
C22A C 0.9632(6) -0.1808(5) 0.7404(3)
C23A C 0.9080(8) -0.1350(6) 0.7568(4)
H23A H 0.8888 -0.1031 0.7382
C24A C 0.8815(9) -0.1354(7) 0.7990(4)
H24A H 0.8426 -0.1048 0.8090
C25A C 0.9107(8) -0.1805(6) 0.8281(4)
H25A H 0.8930 -0.1790 0.8579
C26A C 0.9646(6) -0.2264(5) 0.8136(3)
C27A C 0.9895(6) -0.2260(5) 0.7698(3)
H26A H 1.0263 -0.2581 0.7594
C28A C 1.1463(8) -0.1842(5) 0.8717(4)
H27A H 1.1633 -0.1800 0.8412
H28A H 1.1122 -0.1475 0.8810
H29A H 1.2032 -0.1773 0.8946
C29A C 1.0853(6) -0.2575(5) 0.8690(3)
C30A C 0.9960(6) -0.2772(4) 0.8426(3)
C31A C 0.9339(6) -0.3446(5) 0.8401(3)
C32A C 0.8386(7) -0.3616(6) 0.8105(4)
H30A H 0.8043 -0.4094 0.8129
H31A H 0.8042 -0.3259 0.8213
H32A H 0.8452 -0.3607 0.7781
C33A C 0.9827(7) -0.5938(5) 0.9399(4)
H33A H 0.9229 -0.6003 0.9192
H34A H 1.0134 -0.6322 0.9295
H35A H 0.9715 -0.5954 0.9716
C34A C 1.0444(6) -0.5224(5) 0.9389(3)
C35A C 1.1333(6) -0.5024(5) 0.9657(3)
C36A C 1.1916(6) -0.4333(5) 0.9707(3)
C37A C 1.2835(7) -0.4121(6) 1.0042(4)
H36A H 1.3213 -0.3677 0.9983
H37A H 1.2714 -0.4042 1.0361
H38A H 1.3173 -0.4504 0.9998
C38A C 1.1700(6) -0.5565(5) 0.9908(3)
C39A C 1.1567(6) -0.5639(5) 1.0348(3)
H39A H 1.1237 -0.5337 1.0510
C40A C 1.1904(7) -0.6143(5) 1.0562(4)
H40A H 1.1814 -0.6181 1.0869
C41A C 1.2375(7) -0.6595(5) 1.0324(4)
H41A H 1.2590 -0.6952 1.0466
C42A C 1.2532(6) -0.6526(5) 0.9877(3)
C43A C 1.2188(6) -0.6013(5) 0.9681(3)
H42A H 1.2289 -0.5963 0.9377
C44A C 1.1588(6) -0.7915(5) 0.9343(4)
H43A H 1.1346 -0.8351 0.9105
H44A H 1.1529 -0.8031 0.9650
H45A H 1.1228 -0.7557 0.9285
C45A C 1.2601(6) -0.7618(5) 0.9327(3)
C46A C 1.3068(6) -0.6972(5) 0.9611(3)
C47A C 1.4027(6) -0.6681(5) 0.9646(3)
C48A C 1.4502(6) -0.5988(5) 0.9975(4)
H46A H 1.5112 -0.5799 0.9894
H47A H 1.4113 -0.5638 0.9953
H48A H 1.4590 -0.6076 1.0294
C49A C 1.6719(6) -0.7404(6) 0.8376(3)
H49A H 1.7105 -0.7756 0.8398
H50A H 1.6727 -0.7248 0.8077
H51A H 1.6968 -0.6988 0.8629
C50A C 1.5729(6) -0.7741(5) 0.8413(3)
C51A C 1.5145(6) -0.8213(5) 0.8027(3)
C52A C 1.4224(6) -0.8573(5) 0.8036(3)
C53A C 1.3656(8) -0.9084(7) 0.7608(4)
H52A H 1.3291 -0.8826 0.7423
H53A H 1.4077 -0.9283 0.7423
H54A H 1.3231 -0.9475 0.7700
C54A C 1.5474(7) -0.8254(5) 0.7571(3)
C55A C 1.6044(7) -0.8709(5) 0.7422(4)
H55A H 1.6222 -0.9024 0.7615
C56A C 1.6351(8) -0.8707(6) 0.7001(4)
H56A H 1.6737 -0.9021 0.6909
C57A C 1.6106(7) -0.8257(5) 0.6714(3)
H57A H 1.6321 -0.8261 0.6426
C58A C 1.5539(6) -0.7795(5) 0.6848(3)
C59A C 1.5230(6) -0.7813(5) 0.7273(3)
H58A H 1.4833 -0.7507 0.7361
C60A C 1.6664(6) -0.6354(5) 0.6932(4)
H59A H 1.7037 -0.5926 0.6851
H60A H 1.6560 -0.6242 0.7252
H61A H 1.7000 -0.6741 0.6902
C61A C 1.5740(6) -0.6590(5) 0.6610(3)
C62A C 1.5214(6) -0.7304(5) 0.6548(3)
C63A C 1.4361(6) -0.7569(5) 0.6231(3)
C64A C 1.3868(8) -0.8332(5) 0.6177(4)
H62A H 1.3399 -0.8470 0.5892
H63A H 1.4321 -0.8636 0.6159
H64A H 1.3558 -0.8396 0.6445
C65A C 1.3737(6) -0.5914(5) 0.6999(3)
H65A H 1.4215 -0.6164 0.7062
C66A C 1.3321(6) -0.5666(5) 0.7367(3)
H66A H 1.3511 -0.5745 0.7671
C67A C 1.2623(6) -0.5300(5) 0.7281(3)
C68A C 1.2385(7) -0.5219(6) 0.6832(4)
H67A H 1.1898 -0.4984 0.6756
C69A C 1.2839(7) -0.5472(6) 0.6493(4)
H68A H 1.2667 -0.5392 0.6188
C70A C 1.1582(6) -0.5080(5) 0.8373(3)
H69A H 1.1492 -0.5328 0.8621
C71A C 1.1993(6) -0.5371(5) 0.8025(3)
H70A H 1.2162 -0.5817 0.8033
C72A C 1.2164(6) -0.5016(5) 0.7661(3)
C73A C 1.1851(7) -0.4380(5) 0.7665(4)
H71A H 1.1924 -0.4124 0.7419
C74A C 1.1438(6) -0.4126(5) 0.8025(4)
H72A H 1.1240 -0.3691 0.8022
C75A C 1.0846(7) -0.1254(5) 0.5214(3)
H73A H 1.1308 -0.1503 0.5131
C76A C 1.0733(7) -0.0688(5) 0.5004(4)
H74A H 1.1117 -0.0555 0.4785
C77A C 1.0071(6) -0.0310(4) 0.5104(3)
C78A C 0.9524(6) -0.0561(5) 0.5421(3)
H75A H 0.9034 -0.0340 0.5497
C79A C 0.9691(6) -0.1122(5) 0.5621(4)
H76A H 0.9315 -0.1268 0.5840
C80A C 0.4270(10) 1.1291(6) -0.0223(4)
H77A H 0.3886 1.1596 -0.0116
C81A C 0.4415(10) 1.0758(7) 0.0021(4)
H78A H 0.4143 1.0715 0.0291
C82A C 0.4937(6) 1.0302(5) -0.0119(4)
C83A C 0.5350(11) 1.0433(8) -0.0485(6)
H79A H 0.5768 1.0154 -0.0586
C84A C 0.5166(12) 1.0979(9) -0.0717(6)
H80A H 0.5451 1.1045 -0.0980
Cl1 Cl 0.8597(2) 0.72945(17) 0.17244(12)
Cl2 Cl 0.8696(2) 0.8495(2) 0.24572(13)
Cl3 Cl 0.7073(3) 0.73258(19) 0.22230(17)
C85 C 0.7958(7) 0.7843(6) 0.2010(4)
H81 H 0.7664 0.8093 0.1780
Cl4 Cl 0.3895(2) 0.51242(15) 0.10230(10)
Cl5 Cl 0.47369(18) 0.61740(14) 0.18508(9)
Cl6 Cl 0.5903(2) 0.56602(19) 0.12340(11)
C86 C 0.4808(6) 0.5869(5) 0.1270(4)
H82 H 0.4751 0.6263 0.1095
Cl7 Cl 0.5115(3) 0.39607(19) 0.30240(14)
Cl8 Cl 0.3235(3) 0.4039(3) 0.31412(15)
Cl9 Cl 0.4081(2) 0.47350(17) 0.24695(11)
C87 C 0.4269(8) 0.4489(6) 0.3014(4)
H83 H 0.4518 0.4937 0.3255
Cl10 Cl 0.6583(3) 0.2701(3) 0.1516(2)
Cl11 Cl 0.6015(3) 0.2496(3) 0.0527(2)
Cl12 Cl 0.6212(2) 0.3881(2) 0.10994(16)
C88 C 0.6649(10) 0.3098(8) 0.1016(5)
H84 H 0.7318 0.3232 0.0976
Cl13 Cl 0.6439(2) 0.0364(2) 0.34016(14)
Cl14 Cl 0.8015(2) -0.02107(15) 0.36991(13)
Cl15 Cl 0.6866(2) 0.02243(16) 0.43571(13)
C89 C 0.7339(7) 0.0397(6) 0.3862(4)
H85 H 0.7751 0.0892 0.3937
Cl16 Cl 0.22339(19) 0.55680(16) 0.17471(12)
Cl17 Cl 0.0982(2) 0.52841(18) 0.24029(11)
Cl18 Cl 0.0878(3) 0.64179(17) 0.18814(13)
C90 C 0.1099(7) 0.5547(6) 0.1869(4)
H86 H 0.0636 0.5197 0.1617
Cl19 Cl 0.3765(4) 0.2017(3) 0.3232(2)
Cl20 Cl 0.2967(3) 0.0519(3) 0.28078(16)
Cl21 Cl 0.4352(3) 0.0882(2) 0.36238(17)
C91 C 0.3418(11) 0.1149(8) 0.3339(6)
H87 H 0.2919 0.1139 0.3536
Cl22 Cl 0.2360(5) 0.7611(3) 0.05063(15)
Cl23 Cl 0.0520(4) 0.7516(3) 0.00019(18)
Cl24 Cl 0.2059(4) 0.8710(2) -0.00062(19)
C92 C 0.1705(10) 0.7774(8) 0.0013(5)
H88 H 0.1859 0.7491 -0.0267
Cl25 Cl 0.1000(3) 0.8286(4) 0.13373(18)
Cl26 Cl 0.1407(5) 0.8366(3) 0.2261(2)
Cl27 Cl 0.0891(4) 0.9560(3) 0.1971(3)
C93 C 0.0795(14) 0.8663(11) 0.1831(7)
H89 H 0.0123 0.8446 0.1833
Cl28 Cl 0.20118(19) 0.95977(18) 0.37983(11)
Cl29 Cl 0.0075(2) 0.88874(18) 0.36695(14)
Cl30 Cl 0.0594(3) 1.0135(2) 0.32822(14)
C94 C 0.0931(8) 0.9372(6) 0.3422(4)
H90 H 0.0994 0.9064 0.3129
Cl31 Cl 0.0703(4) 0.6238(2) 0.35255(15)
Cl32 Cl 0.1481(3) 0.7557(2) 0.3262(3)
Cl33 Cl -0.0339(4) 0.6811(4) 0.28423(19)
C95 C 0.0479(11) 0.6948(9) 0.3263(6)
H91 H 0.0216 0.7217 0.3510
Cl34 Cl 0.1300(2) 0.47631(16) 0.39673(11)
Cl35 Cl -0.0671(2) 0.45670(17) 0.39569(11)
Cl36 Cl 0.0031(3) 0.4016(2) 0.31388(12)
C96 C 0.0222(7) 0.4196(6) 0.3753(4)
H92 H 0.0211 0.3733 0.3864
Cl37 Cl 0.4730(2) 0.25724(18) 0.49683(14)
Cl38 Cl 0.3384(3) 0.12200(17) 0.48576(13)
Cl39 Cl 0.2914(3) 0.2334(2) 0.43951(13)
C97 C 0.3538(7) 0.2153(6) 0.4896(4)
H93 H 0.3284 0.2350 0.5172
Cl40 Cl 0.1536(2) 0.18426(18) 0.55225(11)
Cl41 Cl 0.1916(2) 0.25109(18) 0.64941(11)
Cl42 Cl 0.0904(2) 0.3120(2) 0.58198(14)
C98 C 0.1782(8) 0.2650(6) 0.5921(4)
H94 H 0.2384 0.2951 0.5876
Cl43 Cl 0.7951(4) 0.9874(2) 0.06845(15)
Cl44 Cl 0.8660(3) 0.9778(2) 0.16013(14)
Cl45 Cl 0.7009(3) 1.0285(2) 0.1431(2)
C99 C 0.7664(8) 0.9706(7) 0.1222(4)
H95 H 0.7282 0.9203 0.1174
Cl46 Cl 0.5142(5) 0.0359(4) 0.2208(3)
Cl47 Cl 0.4941(5) 0.1119(4) 0.1487(3)
Cl48 Cl 0.3384(4) -0.0119(5) 0.1553(2)
C100 C 0.4406(18) 0.0674(15) 0.1880(10)
H96 H 0.4146 0.1018 0.2084
Cl49 Cl 0.7052(3) 0.16150(19) 0.54608(13)
Cl50 Cl 0.5752(2) 0.03524(17) 0.55804(12)
C101 C 0.5894(9) 0.1113(7) 0.5328(5)
H97 H 0.5477 0.1417 0.5441
H98 H 0.5708 0.0965 0.4987
C102 C 0.7135(8) 0.2320(7) 0.3044(4)
H99 H 0.7344 0.1962 0.3218
Cl51 Cl 0.7500(4) 0.2252(3) 0.25095(18)
Cl52 Cl 0.5931(4) 0.2202(4) 0.2976(3)
Cl53 Cl 0.7617(6) 0.3199(3) 0.3356(2)
C103 C 0.1192(11) 0.0452(9) 0.0397(7)
H100 H 0.1167 0.0118 0.0100
Cl54 Cl 0.0431(5) 0.1031(4) 0.0358(3)
Cl55 Cl 0.0890(8) 0.0024(6) 0.0847(4)
Cl56 Cl 0.2300(11) 0.0981(9) 0.0635(6)
O17 O 0.3485(17) 0.2134(14) 0.1020(9)
Cl57? Cl 0.1320(18) 0.9251(11) 0.2256(7)
Cl58? Cl 0.8115(12) 0.2722(10) 0.2902(7)
Cl59? Cl 0.6366(12) 0.1713(10) 0.2598(7)
Cl60? Cl 0.6688(14) 0.3068(10) 0.3283(7)
C104? C 0.4239(19) 0.2876(15) 0.1760(10)
Cl61? Cl 0.3544(4) 0.2407(3) 0.2050(2)
Cl62? Cl 0.3882(6) 0.3437(5) 0.1405(3)
Cl63? Cl 0.3790(11) 0.2924(9) 0.1287(6)
loop_
_geom_bond_atom_site_label_1
_geom_bond_atom_site_label_2
_geom_bond_site_symmetry_1
_geom_bond_site_symmetry_2
Cu1 O1 1_555 1_555
Cu2 O3 1_555 1_555
Cu3 O7 1_555 1_555
Cu4 O11 1_555 1_555
O1 C2 1_555 1_555
O2 Cu1 1_555 1_555
O3 C13 1_555 1_555
O4 Cu2 1_555 1_555
O5 Cu2 1_555 1_555
O6 Cu2 1_555 1_555
O7 C29 1_555 1_555
O8 Cu3 1_555 1_555
O9 Cu3 1_555 1_555
O10 Cu3 1_555 1_555
O11 C45 1_555 1_555
O12 Cu4 1_555 1_555
O13 Cu4 1_555 1_555
O14 Cu4 1_555 1_555
O15 Cu1 1_555 1_555
O16 Cu1 1_555 1_555
N1 Cu1 1_555 1_555
N2 Cu3 1_555 1_555
N3 Cu2 1_555 1_555
N4 Cu4 1_555 1_555
C1 H1 1_555 1_555
H2 C1 1_555 1_555
H3 C1 1_555 1_555
C2 C1 1_555 1_555
C3 C2 1_555 1_555
C4 O2 1_555 1_555
C5 C4 1_555 1_555
H4 C5 1_555 1_555
H5 C5 1_555 1_555
H6 C5 1_555 1_555
C6 C3 1_555 1_555
C7 C6 1_555 1_555
H7 C7 1_555 1_555
C8 C7 1_555 1_555
H8 C8 1_555 1_555
C9 C8 1_555 1_555
H9 C9 1_555 1_555
C10 C9 1_555 1_555
C11 C6 1_555 1_555
H10 C11 1_555 1_555
C12 H11 1_555 1_555
H12 C12 1_555 1_555
H13 C12 1_555 1_555
C13 C12 1_555 1_555
C14 C10 1_555 1_555
C15 O4 1_555 1_555
C16 C15 1_555 1_555
H14 C16 1_555 1_555
H15 C16 1_555 1_555
H16 C16 1_555 1_555
C17 H17 1_555 1_555
H18 C17 1_555 1_555
H19 C17 1_555 1_555
C18 O5 1_555 1_555
C19 C18 1_555 1_555
C20 O6 1_555 1_555
C21 C20 1_555 1_555
H20 C21 1_555 1_555
H21 C21 1_555 1_555
H22 C21 1_555 1_555
C22 C19 1_555 1_555
C23 C22 1_555 1_555
H23 C23 1_555 1_555
C24 C23 1_555 1_555
H24 C24 1_555 1_555
C25 C24 1_555 1_555
H25 C25 1_555 1_555
C26 C25 1_555 1_555
C27 C22 1_555 1_555
H26 C27 1_555 1_555
C28 H27 1_555 1_555
H28 C28 1_555 1_555
H29 C28 1_555 1_555
C29 C28 1_555 1_555
C30 C26 1_555 1_555
C31 O8 1_555 1_555
C32 C31 1_555 1_555
H30 C32 1_555 1_555
H31 C32 1_555 1_555
H32 C32 1_555 1_555
C33 H33 1_555 1_555
H34 C33 1_555 1_555
H35 C33 1_555 1_555
C34 O9 1_555 1_555
C35 C34 1_555 1_555
C36 O10 1_555 1_555
C37 C36 1_555 1_555
H36 C37 1_555 1_555
H37 C37 1_555 1_555
H38 C37 1_555 1_555
C38 C35 1_555 1_555
C39 C38 1_555 1_555
H39 C39 1_555 1_555
C40 C39 1_555 1_555
H40 C40 1_555 1_555
C41 C40 1_555 1_555
H41 C41 1_555 1_555
C42 C41 1_555 1_555
C43 C38 1_555 1_555
H42 C43 1_555 1_555
C44 H43 1_555 1_555
H44 C44 1_555 1_555
H45 C44 1_555 1_555
C45 C44 1_555 1_555
C46 C42 1_555 1_555
C47 O12 1_555 1_555
C48 C47 1_555 1_555
H46 C48 1_555 1_555
H47 C48 1_555 1_555
H48 C48 1_555 1_555
C49 H49 1_555 1_555
H50 C49 1_555 1_555
H51 C49 1_555 1_555
C50 O13 1_555 1_555
C51 C50 1_555 1_555
C52 O14 1_555 1_555
C53 C52 1_555 1_555
H52 C53 1_555 1_555
H53 C53 1_555 1_555
H54 C53 1_555 1_555
C54 C51 1_555 1_555
C55 C54 1_555 1_555
H55 C55 1_555 1_555
C56 C55 1_555 1_555
H56 C56 1_555 1_555
C57 C56 1_555 1_555
H57 C57 1_555 1_555
C58 C57 1_555 1_555
C59 C54 1_555 1_555
H58 C59 1_555 1_555
C60 H59 1_555 1_555
H60 C60 1_555 1_555
H61 C60 1_555 1_555
C61 O15 1_555 1_555
C62 C58 1_555 1_555
C63 O16 1_555 1_555
C64 C63 1_555 1_555
H62 C64 1_555 1_555
H63 C64 1_555 1_555
H64 C64 1_555 1_555
C65 N1 1_555 1_555
H65 C65 1_555 1_555
C66 C65 1_555 1_555
H66 C66 1_555 1_555
C67 C66 1_555 1_555
C68 C67 1_555 1_555
H67 C68 1_555 1_555
C69 N1 1_555 1_555
H68 C69 1_555 1_555
C70 N2 1_555 1_555
H69 C70 1_555 1_555
C71 C70 1_555 1_555
H70 C71 1_555 1_555
C72 C67 1_555 1_555
C73 C72 1_555 1_555
H71 C73 1_555 1_555
C74 N2 1_555 1_555
H72 C74 1_555 1_555
C75 N3 1_555 1_555
H73 C75 1_555 1_555
C76 C75 1_555 1_555
H74 C76 1_555 1_555
C77 C76 1_555 1_555
C78 C77 1_555 1_555
H75 C78 1_555 1_555
C79 N3 1_555 1_555
H76 C79 1_555 1_555
C80 N4 1_555 1_555
H77 C80 1_555 1_555
C81 C80 1_555 1_555
H78 C81 1_555 1_555
C82 C81 1_555 1_555
C83 C82 1_555 1_555
H79 C83 1_555 1_555
C84 N4 1_555 1_555
H80 C84 1_555 1_555
Cl1 C85 1_555 1_555
Cl2 C85 1_555 1_555
Cl3 C85 1_555 1_555
C85 H81 1_555 1_555
Cl4 C86 1_555 1_555
Cl5 C86 1_555 1_555
Cl6 C86 1_555 1_555
C86 H82 1_555 1_555
Cl7 C87 1_555 1_555
Cl8 C87 1_555 1_555
Cl9 C87 1_555 1_555
C87 H83 1_555 1_555
Cl10 C88 1_555 1_555
Cl11 C88 1_555 1_555
Cl12 C88 1_555 1_555
C88 H84 1_555 1_555
Cl13 C89 1_555 1_555
Cl14 C89 1_555 1_555
Cl15 C89 1_555 1_555
C89 H85 1_555 1_555
Cl16 C90 1_555 1_555
Cl17 C90 1_555 1_555
Cl18 C90 1_555 1_555
C90 H86 1_555 1_555
Cl19 C91 1_555 1_555
Cl20 C91 1_555 1_555
Cl21 C91 1_555 1_555
C91 H87 1_555 1_555
Cl22 C92 1_555 1_555
Cl23 C92 1_555 1_555
Cl24 C92 1_555 1_555
C92 H88 1_555 1_555
Cl25 C93 1_555 1_555
Cl26 C93 1_555 1_555
Cl27 C93 1_555 1_555
C93 H89 1_555 1_555
Cl28 C94 1_555 1_555
Cl29 C94 1_555 1_555
Cl30 C94 1_555 1_555
C94 H90 1_555 1_555
Cl31 C95 1_555 1_555
Cl32 C95 1_555 1_555
Cl33 C95 1_555 1_555
C95 H91 1_555 1_555
Cl34 C96 1_555 1_555
Cl35 C96 1_555 1_555
Cl36 C96 1_555 1_555
C96 H92 1_555 1_555
Cl37 C97 1_555 1_555
Cl38 C97 1_555 1_555
Cl39 C97 1_555 1_555
C97 H93 1_555 1_555
Cl40 C98 1_555 1_555
Cl41 C98 1_555 1_555
Cl42 C98 1_555 1_555
C98 H94 1_555 1_555
Cl43 C99 1_555 1_555
Cl44 C99 1_555 1_555
Cl45 C99 1_555 1_555
C99 H95 1_555 1_555
Cl46 C100 1_555 1_555
Cl47 C100 1_555 1_555
Cl48 C100 1_555 1_555
C100 H96 1_555 1_555
Cl49 C101 1_555 1_555
Cl50 C101 1_555 1_555
C101 H97 1_555 1_555
H98 C101 1_555 1_555
C102 H99 1_555 1_555
Cl51 C102 1_555 1_555
Cl52 C102 1_555 1_555
Cl53 C102 1_555 1_555
C103 H100 1_555 1_555
Cl54 C103 1_555 1_555
Cl55 C103 1_555 1_555
Cl56 C103 1_555 1_555
Cu1A O1A 1_555 1_555
Cu2A O3A 1_555 1_555
Cu3A O7A 1_555 1_555
Cu4A N4A 1_555 1_555
Cu4A_2 O11A 1_555 1_555
O1A C2A 1_555 1_555
O2A Cu1A 1_555 1_555
O3A C13A 1_555 1_555
O4A Cu2A 1_555 1_555
O5A Cu2A 1_555 1_555
O6A Cu2A 1_555 1_555
O7A C29A 1_555 1_555
O8A Cu3A 1_555 1_555
O9A Cu3A 1_555 1_555
O10A Cu3A 1_555 1_555
O11A C45A 1_555 1_555
O12A Cu4A_2 1_555 1_555
O13A Cu4A_2 1_555 1_555
O14A Cu4A_2 1_555 1_555
O15A Cu1A 1_555 1_555
O16A Cu1A 1_555 1_555
N1A Cu1A 1_555 1_555
N2A Cu3A 1_555 1_555
N3A Cu2A 1_555 1_555
N4A C80A 1_555 1_555
N4A_2 Cu4A_2 1_555 1_555
C1A H1A 1_555 1_555
H2A C1A 1_555 1_555
H3A C1A 1_555 1_555
C2A C1A 1_555 1_555
C3A C2A 1_555 1_555
C4A O2A 1_555 1_555
C5A C4A 1_555 1_555
H4A C5A 1_555 1_555
H5A C5A 1_555 1_555
H6A C5A 1_555 1_555
C6A C3A 1_555 1_555
C7A C6A 1_555 1_555
H7A C7A 1_555 1_555
C8A C7A 1_555 1_555
H8A C8A 1_555 1_555
C9A C8A 1_555 1_555
H9A C9A 1_555 1_555
C10A C9A 1_555 1_555
C11A C6A 1_555 1_555
H10A C11A 1_555 1_555
C12A H11A 1_555 1_555
H12A C12A 1_555 1_555
H13A C12A 1_555 1_555
C13A C12A 1_555 1_555
C14A C10A 1_555 1_555
C15A O4A 1_555 1_555
C16A C15A 1_555 1_555
H14A C16A 1_555 1_555
H15A C16A 1_555 1_555
H16A C16A 1_555 1_555
C17A H17A 1_555 1_555
H18A C17A 1_555 1_555
H19A C17A 1_555 1_555
C18A O5A 1_555 1_555
C19A C18A 1_555 1_555
C20A O6A 1_555 1_555
C21A C20A 1_555 1_555
H20A C21A 1_555 1_555
H21A C21A 1_555 1_555
H22A C21A 1_555 1_555
C22A C19A 1_555 1_555
C23A C22A 1_555 1_555
H23A C23A 1_555 1_555
C24A C23A 1_555 1_555
H24A C24A 1_555 1_555
C25A C24A 1_555 1_555
H25A C25A 1_555 1_555
C26A C25A 1_555 1_555
C27A C22A 1_555 1_555
H26A C27A 1_555 1_555
C28A H27A 1_555 1_555
H28A C28A 1_555 1_555
H29A C28A 1_555 1_555
C29A C28A 1_555 1_555
C30A C26A 1_555 1_555
C31A O8A 1_555 1_555
C32A C31A 1_555 1_555
H30A C32A 1_555 1_555
H31A C32A 1_555 1_555
H32A C32A 1_555 1_555
C33A H33A 1_555 1_555
H34A C33A 1_555 1_555
H35A C33A 1_555 1_555
C34A O9A 1_555 1_555
C35A C34A 1_555 1_555
C36A O10A 1_555 1_555
C37A C36A 1_555 1_555
H36A C37A 1_555 1_555
H37A C37A 1_555 1_555
H38A C37A 1_555 1_555
C38A C35A 1_555 1_555
C39A C38A 1_555 1_555
H39A C39A 1_555 1_555
C40A C39A 1_555 1_555
H40A C40A 1_555 1_555
C41A C40A 1_555 1_555
H41A C41A 1_555 1_555
C42A C41A 1_555 1_555
C43A C38A 1_555 1_555
H42A C43A 1_555 1_555
C44A H43A 1_555 1_555
H44A C44A 1_555 1_555
H45A C44A 1_555 1_555
C45A C44A 1_555 1_555
C46A C42A 1_555 1_555
C47A O12A 1_555 1_555
C48A C47A 1_555 1_555
H46A C48A 1_555 1_555
H47A C48A 1_555 1_555
H48A C48A 1_555 1_555
C49A H49A 1_555 1_555
H50A C49A 1_555 1_555
H51A C49A 1_555 1_555
C50A O13A 1_555 1_555
C51A C50A 1_555 1_555
C52A O14A 1_555 1_555
C53A C52A 1_555 1_555
H52A C53A 1_555 1_555
H53A C53A 1_555 1_555
H54A C53A 1_555 1_555
C54A C51A 1_555 1_555
C55A C54A 1_555 1_555
H55A C55A 1_555 1_555
C56A C55A 1_555 1_555
H56A C56A 1_555 1_555
C57A C56A 1_555 1_555
H57A C57A 1_555 1_555
C58A C57A 1_555 1_555
C59A C54A 1_555 1_555
H58A C59A 1_555 1_555
C60A H59A 1_555 1_555
H60A C60A 1_555 1_555
H61A C60A 1_555 1_555
C61A O15A 1_555 1_555
C62A C58A 1_555 1_555
C63A O16A 1_555 1_555
C64A C63A 1_555 1_555
H62A C64A 1_555 1_555
H63A C64A 1_555 1_555
H64A C64A 1_555 1_555
C65A N1A 1_555 1_555
H65A C65A 1_555 1_555
C66A C65A 1_555 1_555
H66A C66A 1_555 1_555
C67A C66A 1_555 1_555
C68A C67A 1_555 1_555
H67A C68A 1_555 1_555
C69A N1A 1_555 1_555
H68A C69A 1_555 1_555
C70A N2A 1_555 1_555
H69A C70A 1_555 1_555
C71A C70A 1_555 1_555
H70A C71A 1_555 1_555
C72A C67A 1_555 1_555
C73A C72A 1_555 1_555
H71A C73A 1_555 1_555
C74A N2A 1_555 1_555
H72A C74A 1_555 1_555
C75A N3A 1_555 1_555
H73A C75A 1_555 1_555
C76A C75A 1_555 1_555
H74A C76A 1_555 1_555
C77A C77 1_555 1_555
C78A C77A 1_555 1_555
H75A C78A 1_555 1_555
C79A N3A 1_555 1_555
H76A C79A 1_555 1_555
C80A H77A 1_555 1_555
C81A C80A 1_555 1_555
H78A C81A 1_555 1_555
C82A C82 1_555 1_555
C83A C82A 1_555 1_555
H79A C83A 1_555 1_555
C84A N4A 1_555 1_555
H80A C84A 1_555 1_555
C3 C4 1_555 1_555
C10 C11 1_555 1_555
C13 C14 1_555 1_555
C14 C15 1_555 1_555
C17 C18 1_555 1_555
C19 C20 1_555 1_555
C26 C27 1_555 1_555
C29 C30 1_555 1_555
C30 C31 1_555 1_555
C33 C34 1_555 1_555
C35 C36 1_555 1_555
C42 C43 1_555 1_555
C45 C46 1_555 1_555
C46 C47 1_555 1_555
C49 C50 1_555 1_555
C51 C52 1_555 1_555
C58 C59 1_555 1_555
C60 C61 1_555 1_555
C61 C62 1_555 1_555
C62 C63 1_555 1_555
C68 C69 1_555 1_555
C71 C72 1_555 1_555
C73 C74 1_555 1_555
C78 C79 1_555 1_555
C83 C84 1_555 1_555
C3A C4A 1_555 1_555
C10A C11A 1_555 1_555
C13A C14A 1_555 1_555
C14A C15A 1_555 1_555
C17A C18A 1_555 1_555
C19A C20A 1_555 1_555
C26A C27A 1_555 1_555
C29A C30A 1_555 1_555
C30A C31A 1_555 1_555
C33A C34A 1_555 1_555
C35A C36A 1_555 1_555
C42A C43A 1_555 1_555
C45A C46A 1_555 1_555
C46A C47A 1_555 1_555
C49A C50A 1_555 1_555
C51A C52A 1_555 1_555
C58A C59A 1_555 1_555
C60A C61A 1_555 1_555
C61A C62A 1_555 1_555
C62A C63A 1_555 1_555
C68A C69A 1_555 1_555
C71A C72A 1_555 1_555
C73A C74A 1_555 1_555
C76A C77A 1_555 1_555
C78A C79A 1_555 1_555
C81A C82A 1_555 1_555
C83A C84A 1_555 1_555

#END
