
#######################################################################
#
#                 Cambridge Crystallographic Data Centre
#                                CCDC 
#
#######################################################################
#
# If this CIF has been generated from an entry in the Cambridge 
# Structural Database, then it will include bibliographic, chemical, 
# crystal, experimental, refinement or atomic coordinate data resulting 
# from the CCDC's data processing and validation procedures.
#
#######################################################################

data_WIJTOY
_symmetry_cell_setting           monoclinic
_symmetry_space_group_name_H-M   'P 21'
_symmetry_Int_Tables_number      4
_space_group_name_Hall           'P 2yb'
loop_
_symmetry_equiv_pos_site_id
_symmetry_equiv_pos_as_xyz
1 x,y,z
2 -x,1/2+y,-z
_cell_length_a                   8.0248(4)
_cell_length_b                   25.9554(14)
_cell_length_c                   9.0127(5)
_cell_angle_alpha                90.00
_cell_angle_beta                 100.1510(10)
_cell_angle_gamma                90.00
_cell_volume                     1847.84
loop_
_atom_site_label
_atom_site_type_symbol
_atom_site_fract_x
_atom_site_fract_y
_atom_site_fract_z
P1 P 0.2164(2) 0.33268(7) -0.0196(2)
P2 P 0.2952(2) 0.34319(7) -0.4914(2)
P3 P -0.1721(2) 0.26044(8) -0.6741(2)
P4 P 0.1635(2) 0.17398(9) -0.3925(2)
P5 P 0.3536(2) 0.50208(8) -0.1120(2)
P6 P 0.6853(2) 0.41554(8) 0.1640(2)
O1 O 0.1553(5) 0.2894(2) -0.1300(4)
O2 O 0.3123(5) 0.3751(2) -0.0849(5)
O3 O 0.3248(5) 0.3065(2) 0.1172(4)
O4 O 0.0677(5) 0.3599(2) 0.0363(4)
O5 O 0.3544(5) 0.3857(2) -0.3806(5)
O6 O 0.2009(5) 0.3004(2) -0.4272(5)
O7 O 0.1845(6) 0.3701(2) -0.6286(5)
O8 O 0.4434(5) 0.3164(2) -0.5475(4)
O9 O -0.1464(6) 0.2839(2) -0.5182(5)
O10 O -0.0387(6) 0.2816(2) -0.7633(5)
O11 O -0.3462(5) 0.2783(2) -0.7603(5)
O12 O -0.1675(6) 0.2019(2) -0.6781(6)
O13 O 0.0548(6) 0.2127(2) -0.3263(5)
O14 O 0.2361(7) 0.1329(2) -0.2840(6)
O15 O 0.0638(8) 0.1479(3) -0.5355(6)
O16 O 0.3150(8) 0.2040(3) -0.4414(8)
O17 O 0.4522(6) 0.4638(2) -0.1873(5)
O18 O 0.2675(7) 0.5427(2) -0.2176(6)
O19 O 0.4712(7) 0.5299(2) 0.0193(5)
O20 O 0.2139(8) 0.4724(3) -0.0408(8)
O21 O 0.6601(5) 0.3949(2) 0.0064(5)
O22 O 0.5478(6) 0.3938(2) 0.2483(5)
O23 O 0.8589(6) 0.3972(3) 0.2505(5)
O24 O 0.6845(6) 0.4731(2) 0.1747(6)
O25 O -0.1964(5) 0.2731(2) -0.2296(5)
O26 O -0.0627(5) 0.3595(2) -0.3179(5)
O27 O -0.4259(5) 0.3170(2) -0.1922(5)
O28 O -0.2935(6) 0.4033(2) -0.2822(5)
C11 C -0.2072(8) 0.3629(3) -0.2831(6)
C12 C -0.2837(8) 0.3122(3) -0.2320(6)
Ga1 Ga 0.00934(8) 0.2850 -0.32853(7)
Ga2 Ga 0.50180(8) 0.39120(3) -0.18296(7)
Ga3 Ga 0.01355(8) 0.34913(4) -0.77810(7)
Ga4 Ga 0.49963(8) 0.32627(4) 0.26741(7)
Ga3_2 Ga 0.01355(8) 0.34913(4) 0.22190(7)
Ga4_2 Ga 0.49963(8) 0.32627(4) -0.73259(7)
Ga4_3 Ga -0.50037(8) 0.32627(4) -0.73259(7)
Ga3_3 Ga 1.01355(8) 0.34913(4) 0.22190(7)
Ga2_2 Ga -0.49820(8) 0.39120(3) -0.18296(7)
O27_2 O 0.5741(5) 0.3170(2) -0.1922(5)
O28_2 O 0.7065(6) 0.4033(2) -0.2822(5)
O8_2 O 0.4434(5) 0.3164(2) 0.4525(4)
O11_2 O 0.6538(5) 0.2783(2) 0.2397(5)
O4_2 O 0.0677(5) 0.3599(2) -0.9637(4)
O23_2 O -0.1411(6) 0.3972(3) -0.7495(5)
N1 N 0.1041(9) 0.0385(3) -0.3544(7)
N2 N -0.1583(8) -0.0202(3) -0.5352(7)
C1 C 0.0242(11) -0.0280(4) -0.5506(9)
C2 C -0.1812(11) -0.0037(3) -0.3802(8)
C3 C -0.3626(11) 0.0065(4) -0.3787(10)
C4 C 0.1194(10) 0.0213(4) -0.5119(9)
C5 C -0.0765(11) 0.0464(4) -0.3401(10)
N3 N 0.3977(8) 0.6385(3) -0.1477(7)
N4 N 0.6694(10) 0.6958(3) 0.0301(8)
C6 C 0.2117(11) 0.6568(3) 0.0345(9)
C7 C 0.3925(12) 0.6509(4) 0.0172(8)
C8 C 0.5784(11) 0.6323(4) -0.1737(10)
C9 C 0.4914(13) 0.7029(4) 0.0519(9)
C10 C 0.6777(12) 0.6814(5) -0.1328(9)
O29 O -0.1203(13) 0.5317(6) -0.0609(17)
O30 O 0.6303(11) 0.1492(4) -0.4628(10)
loop_
_geom_bond_atom_site_label_1
_geom_bond_atom_site_label_2
_geom_bond_site_symmetry_1
_geom_bond_site_symmetry_2
P1 O1 1_555 1_555
P2 O5 1_555 1_555
P3 O9 1_555 1_555
P4 O13 1_555 1_555
P5 O17 1_555 1_555
P6 O21 1_555 1_555
O1 Ga1 1_555 1_555
O2 P1 1_555 1_555
O3 P1 1_555 1_555
O4 P1 1_555 1_555
O5 Ga2 1_555 1_555
O6 P2 1_555 1_555
O7 P2 1_555 1_555
O8 P2 1_555 1_555
O9 Ga1 1_555 1_555
O10 P3 1_555 1_555
O11 P3 1_555 1_555
O12 P3 1_555 1_555
O13 Ga1 1_555 1_555
O14 P4 1_555 1_555
O15 P4 1_555 1_555
O16 P4 1_555 1_555
O17 Ga2 1_555 1_555
O18 P5 1_555 1_555
O19 P5 1_555 1_555
O20 P5 1_555 1_555
O21 Ga2 1_555 1_555
O22 P6 1_555 1_555
O23 P6 1_555 1_555
O24 P6 1_555 1_555
O25 C12 1_555 1_555
O26 C11 1_555 1_555
O27 C12 1_555 1_555
O28 C11 1_555 1_555
N1 C4 1_555 1_555
N2 C1 1_555 1_555
C1 C4 1_555 1_555
C2 N2 1_555 1_555
C3 C2 1_555 1_555
C5 N1 1_555 1_555
N3 C7 1_555 1_555
N4 C9 1_555 1_555
C6 C7 1_555 1_555
C7 C9 1_555 1_555
C8 N3 1_555 1_555
C10 N4 1_555 1_555
C11 C12 1_555 1_555
Ga1 O6 1_555 1_555
Ga2 O2 1_555 1_555
Ga3 O7 1_555 1_555
Ga4 O3 1_555 1_555
Ga3_2 O4 1_555 1_555
Ga4_2 O8 1_555 1_555
Ga4_3 O11 1_555 1_555
Ga3_3 O23 1_555 1_555
Ga2_2 O27 1_555 1_555
O27_2 Ga2 1_555 1_555
O28_2 Ga2 1_555 1_555
O8_2 Ga4 1_555 1_555
O11_2 Ga4 1_555 1_555
O4_2 Ga3 1_555 1_555
O23_2 Ga3 1_555 1_555
O10 Ga3 1_555 1_555
O22 Ga4 1_555 1_555
O25 Ga1 1_555 1_555
O26 Ga1 1_555 1_555
O28 Ga2_2 1_555 1_555
C2 C5 1_555 1_555
C8 C10 1_555 1_555

#END
