
#######################################################################
#
#                 Cambridge Crystallographic Data Centre
#                                CCDC 
#
#######################################################################
#
# If this CIF has been generated from an entry in the Cambridge 
# Structural Database, then it will include bibliographic, chemical, 
# crystal, experimental, refinement or atomic coordinate data resulting 
# from the CCDC's data processing and validation procedures.
#
#######################################################################

data_WIJWES
_symmetry_cell_setting           monoclinic
_symmetry_space_group_name_H-M   'P 21/n'
_symmetry_Int_Tables_number      14
_space_group_name_Hall           '-P 2yn'
loop_
_symmetry_equiv_pos_site_id
_symmetry_equiv_pos_as_xyz
1 x,y,z
2 1/2-x,1/2+y,1/2-z
3 -x,-y,-z
4 1/2+x,1/2-y,1/2+z
_cell_length_a                   6.682(3)
_cell_length_b                   21.981(6)
_cell_length_c                   15.509(8)
_cell_angle_alpha                90
_cell_angle_beta                 92.08(12)
_cell_angle_gamma                90
_cell_volume                     2276.42
loop_
_atom_site_label
_atom_site_type_symbol
_atom_site_fract_x
_atom_site_fract_y
_atom_site_fract_z
N1 N 0.8567(13) 0.1045(3) 0.8335(5)
N2 N 1.1049(12) 0.2152(4) 0.5800(4)
N3 N 1.1884(14) 0.2583(4) 0.5581(6)
N4 N 0.8228(19) 0.0918(5) 0.9018(6)
N5 N 0.2599(11) 0.0199(3) 0.7793(4)
N6 N 0.5130(11) 0.1160(3) 0.6039(5)
N7 N 0.5997(11) 0.0709(4) 0.5853(4)
N8 N 0.4019(12) 0.1725(4) 0.7642(5)
N9 N 0.6817(13) 0.0266(4) 0.5668(5)
N10 N 0.3597(13) 0.1871(3) 0.8345(5)
N11 N 0.3155(18) 0.2022(4) 0.9027(6)
Cd1 Cd 0.70574(11) 0.18623(3) 0.68369(4)
Cd2 Cd 0.20299(10) 0.10424(3) 0.68979(4)
C1 C 0.3027(14) 0.0214(5) 0.8620(6)
H1 H 0.3243 0.0592 0.8877
N12 N 0.7697(11) 0.2739(4) 0.7630(5)
C2 C 0.7468(13) 0.3270(4) 0.7218(6)
C3 C 0.2327(13) -0.0354(4) 0.7416(6)
C4 C 0.7755(14) 0.3830(4) 0.7641(7)
N13 N 0.8960(12) 0.1187(4) 0.7625(5)
N14 N 1.0164(11) 0.1696(3) 0.6013(5)
C5 C 0.8165(15) 0.2737(5) 0.8468(6)
H2 H 0.8295 0.2367 0.8754
C6 C 0.1757(13) -0.0389(4) 0.6521(6)
C7 C 0.7513(14) 0.4385(4) 0.7170(8)
H3 H 0.7714 0.4757 0.7446
C8 C 0.6883(13) 0.3261(4) 0.6320(6)
C9 C 0.2536(13) -0.0909(4) 0.7886(6)
C10 C 0.8470(15) 0.3280(5) 0.8939(6)
H4 H 0.8804 0.3262 0.9526
N15 N 0.1398(11) 0.0170(3) 0.6058(4)
H5 H 0.0115 0.0177 0.5861
H6 H 0.2180 0.0179 0.5598
N16 N 0.6477(11) 0.2698(3) 0.5908(4)
H7 H 0.7255 0.2662 0.5449
H8 H 0.5191 0.2693 0.5714
C11 C 0.2289(15) -0.1468(4) 0.7457(8)
H9 H 0.2451 -0.1829 0.7765
C12 C 0.6691(14) 0.3808(5) 0.5889(7)
H10 H 0.6357 0.3806 0.5302
C13 C 0.1820(14) -0.1490(4) 0.6603(7)
H11 H 0.1688 -0.1864 0.6327
C14 C 0.6982(16) 0.4364(5) 0.6308(8)
H12 H 0.6815 0.4724 0.5999
C15 C 0.8280(14) 0.3826(5) 0.8546(7)
H13 H 0.8483 0.4187 0.8850
C16 C 0.1532(15) -0.0952(4) 0.6132(7)
H14 H 0.1182 -0.0974 0.5547
C17 C 0.2972(14) -0.0856(5) 0.8785(7)
H15 H 0.3110 -0.1204 0.9125
C18 C 0.3182(15) -0.0302(5) 0.9144(6)
H16 H 0.3429 -0.0263 0.9735
Cd2_2 Cd 1.20299(10) 0.10424(3) 0.68979(4)
N13_2 N -0.1040(12) 0.1187(4) 0.7625(5)
N14_2 N 0.0164(11) 0.1696(3) 0.6013(5)
loop_
_geom_bond_atom_site_label_1
_geom_bond_atom_site_label_2
_geom_bond_site_symmetry_1
_geom_bond_site_symmetry_2
N1 N4 1_555 1_555
N2 N3 1_555 1_555
N5 Cd2 1_555 1_555
N6 N7 1_555 1_555
N7 N9 1_555 1_555
N8 N10 1_555 1_555
N10 N11 1_555 1_555
Cd1 N6 1_555 1_555
Cd2 N6 1_555 1_555
C1 N5 1_555 1_555
H1 C1 1_555 1_555
N12 Cd1 1_555 1_555
C2 N12 1_555 1_555
C3 N5 1_555 1_555
C4 C2 1_555 1_555
N13 N1 1_555 1_555
N14 N2 1_555 1_555
C5 N12 1_555 1_555
H2 C5 1_555 1_555
C6 C3 1_555 1_555
C7 C4 1_555 1_555
H3 C7 1_555 1_555
C8 C2 1_555 1_555
C9 C3 1_555 1_555
C10 C5 1_555 1_555
H4 C10 1_555 1_555
N15 Cd2 1_555 1_555
H5 N15 1_555 1_555
H6 N15 1_555 1_555
N16 Cd1 1_555 1_555
H7 N16 1_555 1_555
H8 N16 1_555 1_555
C11 C9 1_555 1_555
H9 C11 1_555 1_555
C12 C8 1_555 1_555
H10 C12 1_555 1_555
C13 C11 1_555 1_555
H11 C13 1_555 1_555
C14 C7 1_555 1_555
H12 C14 1_555 1_555
C15 C4 1_555 1_555
H13 C15 1_555 1_555
C16 C6 1_555 1_555
H14 C16 1_555 1_555
C17 C9 1_555 1_555
H15 C17 1_555 1_555
C18 C1 1_555 1_555
H16 C18 1_555 1_555
Cd2_2 N13 1_555 1_555
N13_2 Cd2 1_555 1_555
N14_2 Cd2 1_555 1_555
N8 Cd1 1_555 1_555
N8 Cd2 1_555 1_555
Cd1 N13 1_555 1_555
Cd1 N14 1_555 1_555
N14 Cd2_2 1_555 1_555
C6 N15 1_555 1_555
C8 N16 1_555 1_555
C10 C15 1_555 1_555
C12 C14 1_555 1_555
C13 C16 1_555 1_555
C17 C18 1_555 1_555

#END
