
#######################################################################
#
#                 Cambridge Crystallographic Data Centre
#                                CCDC 
#
#######################################################################
#
# If this CIF has been generated from an entry in the Cambridge 
# Structural Database, then it will include bibliographic, chemical, 
# crystal, experimental, refinement or atomic coordinate data resulting 
# from the CCDC's data processing and validation procedures.
#
#######################################################################

data_WIJYOD
_symmetry_cell_setting           orthorhombic
_symmetry_space_group_name_H-M   'P 21 21 21'
_symmetry_Int_Tables_number      19
_space_group_name_Hall           'P 2ac 2ab'
loop_
_symmetry_equiv_pos_site_id
_symmetry_equiv_pos_as_xyz
1 x,y,z
2 1/2+x,1/2-y,-z
3 -x,1/2+y,1/2-z
4 1/2-x,-y,1/2+z
_cell_length_a                   7.144(2)
_cell_length_b                   11.328(3)
_cell_length_c                   32.658(9)
_cell_angle_alpha                90
_cell_angle_beta                 90
_cell_angle_gamma                90
_cell_volume                     2642.92
loop_
_atom_site_label
_atom_site_type_symbol
_atom_site_fract_x
_atom_site_fract_y
_atom_site_fract_z
Pb1 Pb -0.10660(5) 0.12863(3) 0.12396(1)
S1 S 0.3925(4) 0.2386(2) 0.13672(6)
S2 S 0.1973(3) -0.1410(2) 0.11534(6)
O1 O 0.2039(8) 0.2252(5) 0.1191(2)
O2 O 0.4548(7) 0.3619(6) 0.1341(2)
O3 O 0.5307(7) 0.1572(5) 0.1184(2)
O4 O 0.0617(8) -0.2324(5) 0.1272(2)
O5 O 0.3875(9) -0.1669(5) 0.1283(2)
O6 O 0.1355(9) -0.0234(5) 0.1295(2)
C1 C -0.1162(13) 0.1392(8) 0.1897(2)
C2 C -0.0615(4) 0.0455(9) 0.2124(3)
C3 C -0.0692(15) 0.0548(11) 0.2557(3)
C4 C -0.1339(16) 0.1546(10) 0.2731(3)
C5 C -0.1805(16) 0.2497(10) 0.2508(3)
C6 C -0.168(41) 0.2459(9) 0.2087(3)
C7 C 0.3791(15) 0.2012(7) 0.1893(3)
C8 C 0.4201(14) 0.0896(7) 0.2023(3)
C9 C 0.4151(15) 0.0645(8) 0.2439(3)
C10 C 0.3679(14) 0.1489(8) 0.2725(2)
C11 C 0.3228(14) 0.2605(9) 0.2586(3)
C12 C 0.3331(14) 0.2875(8) 0.2176(3)
C13 C 0.3606(17) 0.1197(11) 0.3176(3)
C14 C -0.1146(13) 0.1218(8) 0.0583(2)
C15 C -0.0342(13) 0.2100(9) 0.0365(3)
C16 C -0.0435(15) 0.2094(9) -0.0057(3)
C17 C -0.1318(14) 0.1172(9) -0.0257(3)
C18 C -0.2112(7) 0.0310(9) -0.0038(3)
C19 C -0.2078(14) 0.0306(8) 0.0387(3)
C20 C 0.1998(11) -0.1354(9) 0.0613(2)
C21 C 0.2786(14) -0.0408(8) 0.0412(3)
C22 C 0.2731(15) -0.0339(8) -0.0008(3)
C23 C 0.1846(12) -0.1208(10) -0.0243(3)
C24 C 0.1106(17) -0.2162(8) -0.0036(3)
C25 C 0.1134(14) -0.2234(7) 0.0390(2)
C26 C 0.1669(14) -0.1127(10) -0.0700(2)
O7 O -0.1622(9) 0.3451(5) 0.1171(2)
O8 O -0.2576(9) -0.0714(5) 0.1304(2)
H1 H -0.0198(14) -0.0234(9) 0.1999(3)
H2 H -0.0297(15) -0.0078(11) 0.2720(3)
H3 H -0.1466(16) 0.1577(10) 0.3014(3)
H4 H -0.2214(16) 0.3181(10) 0.2638(3)
H5 H -0.1928(13) 0.3127(9) 0.1931(3)
H6 H 0.4511(14) 0.0310(7) 0.1835(3)
H7 H 0.4443(15) -0.0113(8) 0.2527(3)
H8 H 0.2850(14) 0.3181(9) 0.2771(3)
H9 H 0.3092(14) 0.3641(8) 0.2088(3)
H10 H 0.3255(17) 0.1889(11) 0.3328(3)
H11 H 0.4816(17) 0.0933(11) 0.3266(3)
H12 H 0.2702(17) 0.0585(11) 0.3222(3)
H13 H 0.0274(13) 0.2710(9) 0.0500(3)
H14 H 0.0093(15) 0.2707(9) -0.0207(3)
H15 H -0.1358(14) 0.1152(9) -0.0542(3)
H16 H -0.2706(17) -0.0305(9) -0.0175(3)
H17 H -0.2662(14) -0.0289(8) 0.0535(3)
H18 H 0.3361(14) 0.0189(8) 0.0562(3)
H19 H 0.3294(15) 0.0299(8) -0.0139(3)
H20 H 0.0573(17) -0.2775(8) -0.0185(3)
H21 H 0.0576(14) -0.2870(7) 0.0523(2)
H22 H 0.2255(14) -0.0415(10) -0.0794(2)
H23 H 0.0368(14) -0.1119(10) -0.0774(2)
H24 H 0.2269(14) -0.1796(10) -0.0824(2)
O3_2 O -0.4693(7) 0.1572(5) 0.1184(2)
Pb1_2 Pb 0.89340(5) 0.12863(3) 0.12396(1)
O9 O 0.1202(12) 0.5082(6) 0.1219(4)
loop_
_geom_bond_atom_site_label_1
_geom_bond_atom_site_label_2
_geom_bond_site_symmetry_1
_geom_bond_site_symmetry_2
Pb1 O1 1_555 1_555
S1 O1 1_555 1_555
S2 O4 1_555 1_555
O2 S1 1_555 1_555
O3 S1 1_555 1_555
O5 S2 1_555 1_555
O6 Pb1 1_555 1_555
C1 Pb1 1_555 1_555
C2 C1 1_555 1_555
C3 C2 1_555 1_555
C4 C3 1_555 1_555
C5 C4 1_555 1_555
C6 C1 1_555 1_555
C7 S1 1_555 1_555
C8 C7 1_555 1_555
C9 C8 1_555 1_555
C10 C9 1_555 1_555
C11 C10 1_555 1_555
C12 C7 1_555 1_555
C13 C10 1_555 1_555
C14 Pb1 1_555 1_555
C15 C14 1_555 1_555
C16 C15 1_555 1_555
C17 C16 1_555 1_555
C18 C17 1_555 1_555
C19 C14 1_555 1_555
C20 S2 1_555 1_555
C21 C20 1_555 1_555
C22 C21 1_555 1_555
C23 C22 1_555 1_555
C24 C23 1_555 1_555
C25 C20 1_555 1_555
C26 C23 1_555 1_555
O7 Pb1 1_555 1_555
O8 Pb1 1_555 1_555
H1 C2 1_555 1_555
H2 C3 1_555 1_555
H3 C4 1_555 1_555
H4 C5 1_555 1_555
H5 C6 1_555 1_555
H6 C8 1_555 1_555
H7 C9 1_555 1_555
H8 C11 1_555 1_555
H9 C12 1_555 1_555
H10 C13 1_555 1_555
H11 C13 1_555 1_555
H12 C13 1_555 1_555
H13 C15 1_555 1_555
H14 C16 1_555 1_555
H15 C17 1_555 1_555
H16 C18 1_555 1_555
H17 C19 1_555 1_555
H18 C21 1_555 1_555
H19 C22 1_555 1_555
H20 C24 1_555 1_555
H21 C25 1_555 1_555
H22 C26 1_555 1_555
H23 C26 1_555 1_555
H24 C26 1_555 1_555
O3_2 Pb1 1_555 1_555
Pb1_2 O3 1_555 1_555
S2 O6 1_555 1_555
C5 C6 1_555 1_555
C11 C12 1_555 1_555
C18 C19 1_555 1_555
C24 C25 1_555 1_555

#END
