
#######################################################################
#
#                 Cambridge Crystallographic Data Centre
#                                CCDC 
#
#######################################################################
#
# If this CIF has been generated from an entry in the Cambridge 
# Structural Database, then it will include bibliographic, chemical, 
# crystal, experimental, refinement or atomic coordinate data resulting 
# from the CCDC's data processing and validation procedures.
#
#######################################################################

data_WIJZUM
_symmetry_cell_setting           triclinic
_symmetry_space_group_name_H-M   'P -1'
_symmetry_Int_Tables_number      2
_space_group_name_Hall           '-P 1'
loop_
_symmetry_equiv_pos_site_id
_symmetry_equiv_pos_as_xyz
1 x,y,z
2 -x,-y,-z
_cell_length_a                   14.2882(4)
_cell_length_b                   14.3346(4)
_cell_length_c                   16.6764(3)
_cell_angle_alpha                89.810(2)
_cell_angle_beta                 67.121(2)
_cell_angle_gamma                76.957(2)
_cell_volume                     3052.1
loop_
_atom_site_label
_atom_site_type_symbol
_atom_site_fract_x
_atom_site_fract_y
_atom_site_fract_z
Cu1 Cu -0.41359(4) -0.10465(4) 0.49284(3)
Cu2 Cu -0.22491(4) 0.05071(4) 0.26054(3)
Cu3 Cu -0.08136(4) 0.24861(4) 0.05224(3)
Cu4 Cu 0.0000 0.0000 0.0000
Cl1 Cl -0.34261(9) 0.40433(9) 0.12397(8)
O1 O -0.3008(2) -0.0497(2) 0.42796(19)
O2 O -0.4640(2) -0.0663(2) 0.40346(19)
O3 O -0.1430(2) 0.1433(2) 0.09149(18)
O4 O -0.0509(2) 0.2402(2) 0.15507(19)
O5 O 0.0912(2) 0.0975(2) -0.17099(19)
O6 O 0.2137(2) 0.1585(2) -0.1155(2)
O7 O -0.3900(3) 0.3265(3) 0.1227(3)
O8 O -0.2506(3) 0.3676(2) 0.1415(2)
O9 O -0.3130(3) 0.4418(3) 0.0405(3)
O10 O -0.4125(4) 0.4772(4) 0.1911(3)
N1 N -0.5156(3) -0.1817(3) 0.5476(2)
N2 N -0.3662(3) -0.1487(3) 0.5858(2)
N3 N -0.3091(3) -0.0201(3) 0.3513(2)
N4 N -0.3379(3) 0.0493(3) 0.2159(2)
N5 N -0.1419(3) 0.0887(3) 0.3238(2)
N6 N -0.1487(3) 0.1291(3) 0.1754(2)
N7 N -0.1190(3) 0.2675(3) -0.0494(2)
N8 N 0.0099(3) 0.3341(3) -0.0053(2)
N9 N 0.0848(3) 0.0764(3) -0.0877(2)
N10 N 0.0917(3) 0.0256(2) 0.0601(2)
C1 C -0.5899(4) -0.1960(4) 0.5214(3)
H1 H -0.5988 -0.1634 0.4742
C2 C -0.6529(4) -0.2562(4) 0.5613(3)
H2 H -0.7047 -0.2652 0.5416
C3 C -0.6411(4) -0.3038(4) 0.6301(4)
H3 H -0.6844 -0.3457 0.6582
C4 C -0.5657(4) -0.2896(4) 0.6572(3)
H4 H -0.5570 -0.3209 0.7051
C5 C -0.5024(4) -0.2294(3) 0.6142(3)
C6 C -0.4183(4) -0.2090(3) 0.6372(3)
C7 C -0.3931(4) -0.2462(4) 0.7052(3)
H5 H -0.4305 -0.2883 0.7411
C8 C -0.3125(4) -0.2209(4) 0.7200(3)
H6 H -0.2934 -0.2459 0.7658
C9 C -0.2607(4) -0.1589(4) 0.6670(3)
H7 H -0.2056 -0.1404 0.6762
C10 C -0.2892(4) -0.1239(4) 0.6002(3)
H8 H -0.2532 -0.0813 0.5639
C11 C -0.3947(3) -0.0308(3) 0.3445(3)
C12 C -0.4082(3) -0.0004(3) 0.2646(3)
C13 C -0.4848(4) -0.0174(3) 0.2412(3)
H9 H -0.5317 -0.0535 0.2757
C14 C -0.4932(4) 0.0186(4) 0.1663(3)
H10 H -0.5452 0.0067 0.1483
C15 C -0.4249(4) 0.0720(4) 0.1184(3)
H11 H -0.4309 0.0993 0.0681
C16 C -0.3479(3) 0.0854(3) 0.1443(3)
H12 H -0.3003 0.1212 0.1104
C17 C -0.1364(4) 0.0604(3) 0.3994(3)
H13 H -0.1714 0.0128 0.4273
C18 C -0.0810(4) 0.0990(4) 0.4373(3)
H14 H -0.0774 0.0774 0.4902
C19 C -0.0316(4) 0.1684(4) 0.3979(3)
H15 H 0.0062 0.1958 0.4234
C20 C -0.0373(3) 0.1982(4) 0.3201(3)
H16 H -0.0036 0.2464 0.2918
C21 C -0.0924(3) 0.1571(3) 0.2850(3)
C22 C -0.0979(3) 0.1789(3) 0.2008(3)
C23 C 0.0798(4) 0.3599(3) 0.0209(3)
H17 H 0.0844 0.3393 0.0737
C24 C 0.1445(4) 0.4156(3) -0.0281(3)
H18 H 0.1931 0.4334 -0.0089
C25 C 0.1384(4) 0.4457(4) -0.1056(4)
H19 H 0.1827 0.4840 -0.1399
C26 C 0.0677(4) 0.4192(3) -0.1316(3)
H20 H 0.0625 0.4392 -0.1844
C27 C 0.0036(3) 0.3632(3) -0.0807(3)
C28 C -0.0745(3) 0.3304(3) -0.1031(3)
C29 C -0.1022(4) 0.3592(4) -0.1712(3)
H21 H -0.0721 0.4053 -0.2069
C30 C -0.1742(4) 0.3206(4) -0.1874(3)
H22 H -0.1938 0.3392 -0.2345
C31 C -0.2171(4) 0.2547(4) -0.1340(3)
H23 H -0.2655 0.2263 -0.1447
C32 C -0.1894(4) 0.2300(4) -0.0644(3)
H24 H -0.2206 0.1858 -0.0268
C33 C 0.0924(3) -0.0044(3) 0.1363(3)
H25 H 0.0465 -0.0429 0.1674
C34 C 0.1595(4) 0.0201(4) 0.1707(3)
H26 H 0.1597 -0.0023 0.2243
C35 C 0.2251(4) 0.0768(4) 0.1264(3)
H27 H 0.2709 0.0941 0.1492
C36 C 0.2238(4) 0.1083(4) 0.0488(3)
H28 H 0.2683 0.1478 0.0174
C37 C 0.1569(3) 0.0816(3) 0.0176(3)
C38 C 0.1522(3) 0.1089(3) -0.0666(3)
Cu5 Cu 0.18251(4) 0.18075(4) -0.21653(4)
N11 N 0.2855(3) 0.2571(3) -0.2688(3)
N12 N 0.1388(3) 0.2242(3) -0.3115(2)
C39 C 0.3606(4) 0.2676(4) -0.2424(3)
H29 H 0.3664 0.2357 -0.1939
C40 C 0.4294(4) 0.3233(4) -0.2837(4)
H30 H 0.4822 0.3292 -0.2642
C41 C 0.4207(5) 0.3699(5) -0.3529(4)
H31 H 0.4674 0.4087 -0.3819
C42 C 0.3438(5) 0.3603(4) -0.3805(4)
H32 H 0.3364 0.3930 -0.4282
C43 C 0.2770(4) 0.3022(3) -0.3377(3)
C44 C 0.1943(4) 0.2837(3) -0.3626(3)
C45 C 0.1711(5) 0.3212(4) -0.4314(3)
H33 H 0.2095 0.3628 -0.4671
C46 C 0.0899(5) 0.2967(4) -0.4472(3)
H34 H 0.0711 0.3227 -0.4929
C47 C 0.0378(4) 0.2341(4) -0.3956(3)
H35 H -0.0157 0.2150 -0.4069
C48 C 0.0628(4) 0.1996(4) -0.3283(3)
H36 H 0.0255 0.1573 -0.2927
Cu1A Cu -0.58641(4) 0.10465(4) 0.50716(3)
Cu2A Cu -0.77509(4) -0.05071(4) 0.73946(3)
Cu3A Cu -0.91864(4) -0.24861(4) 0.94776(3)
Cl1A Cl -0.65739(9) -0.40433(9) 0.87603(8)
O1A O -0.6992(2) 0.0497(2) 0.57204(19)
O2A O -0.5360(2) 0.0663(2) 0.59654(19)
O3A O -0.8570(2) -0.1433(2) 0.90851(18)
O4A O -0.9491(2) -0.2402(2) 0.84493(19)
O7A O -0.6100(3) -0.3265(3) 0.8773(3)
O8A O -0.7494(3) -0.3676(2) 0.8585(2)
O9A O -0.6870(3) -0.4418(3) 0.9595(3)
O10A O -0.5875(4) -0.4772(4) 0.8089(3)
N1A N -0.4844(3) 0.1817(3) 0.4524(2)
N2A N -0.6338(3) 0.1487(3) 0.4142(2)
N3A N -0.6909(3) 0.0201(3) 0.6487(2)
N4A N -0.6621(3) -0.0493(3) 0.7841(2)
N5A N -0.8581(3) -0.0887(3) 0.6762(2)
N6A N -0.8513(3) -0.1291(3) 0.8246(2)
N7A N -0.8810(3) -0.2675(3) 1.0494(2)
N8A N -1.0099(3) -0.3341(3) 1.0053(2)
C1A C -0.4101(4) 0.1960(4) 0.4786(3)
H1A H -0.4012 0.1634 0.5258
C2A C -0.3471(4) 0.2562(4) 0.4387(3)
H2A H -0.2953 0.2652 0.4584
C3A C -0.3589(4) 0.3038(4) 0.3699(4)
H3A H -0.3156 0.3457 0.3418
C4A C -0.4343(4) 0.2896(4) 0.3428(3)
H4A H -0.4430 0.3209 0.2949
C5A C -0.4976(4) 0.2294(3) 0.3858(3)
C6A C -0.5817(4) 0.2090(3) 0.3628(3)
C7A C -0.6069(4) 0.2462(4) 0.2948(3)
H5A H -0.5695 0.2883 0.2589
C8A C -0.6875(4) 0.2209(4) 0.2800(3)
H6A H -0.7066 0.2459 0.2342
C9A C -0.7393(4) 0.1589(4) 0.3330(3)
H7A H -0.7944 0.1404 0.3238
C10A C -0.7108(4) 0.1239(4) 0.3998(3)
H8A H -0.7468 0.0813 0.4361
C11A C -0.6053(3) 0.0308(3) 0.6555(3)
C12A C -0.5918(3) 0.0004(3) 0.7354(3)
C13A C -0.5152(4) 0.0174(3) 0.7588(3)
H9A H -0.4683 0.0535 0.7243
C14A C -0.5068(4) -0.0186(4) 0.8337(3)
H10A H -0.4548 -0.0067 0.8517
C15A C -0.5751(4) -0.0720(4) 0.8816(3)
H11A H -0.5691 -0.0993 0.9319
C16A C -0.6521(3) -0.0854(3) 0.8557(3)
H12A H -0.6997 -0.1212 0.8896
C17A C -0.8636(4) -0.0604(3) 0.6006(3)
H13A H -0.8286 -0.0128 0.5727
C18A C -0.9190(4) -0.0990(4) 0.5627(3)
H14A H -0.9226 -0.0774 0.5098
C19A C -0.9684(4) -0.1684(4) 0.6021(3)
H15A H -1.0062 -0.1958 0.5766
C20A C -0.9627(3) -0.1982(4) 0.6799(3)
H16A H -0.9964 -0.2464 0.7082
C21A C -0.9076(3) -0.1571(3) 0.7150(3)
C22A C -0.9021(3) -0.1789(3) 0.7992(3)
C23A C -1.0798(4) -0.3599(3) 0.9791(3)
H17A H -1.0844 -0.3393 0.9263
C24A C -1.1445(4) -0.4156(3) 1.0281(3)
H18A H -1.1931 -0.4334 1.0089
C25A C -1.1384(4) -0.4457(4) 1.1056(4)
H19A H -1.1827 -0.4840 1.1399
C26A C -1.0677(4) -0.4192(3) 1.1316(3)
H20A H -1.0625 -0.4392 1.1844
C27A C -1.0036(3) -0.3632(3) 1.0807(3)
C28A C -0.9255(3) -0.3304(3) 1.1031(3)
C29A C -0.8978(4) -0.3592(4) 1.1712(3)
H21A H -0.9279 -0.4053 1.2069
C30A C -0.8258(4) -0.3206(4) 1.1874(3)
H22A H -0.8062 -0.3392 1.2345
C31A C -0.7829(4) -0.2547(4) 1.1340(3)
H23A H -0.7345 -0.2263 1.1447
C32A C -0.8106(4) -0.2300(4) 1.0644(3)
H24A H -0.7794 -0.1858 1.0268
O5A O -0.0912(2) -0.0975(2) 0.17099(19)
O6A O -0.2137(2) -0.1585(2) 0.1155(2)
N9A N -0.0848(3) -0.0764(3) 0.0877(2)
N10A N -0.0917(3) -0.0256(2) -0.0601(2)
C33A C -0.0924(3) 0.0044(3) -0.1363(3)
H25A H -0.0465 0.0429 -0.1674
C34A C -0.1595(4) -0.0201(4) -0.1707(3)
H26A H -0.1597 0.0023 -0.2243
C35A C -0.2251(4) -0.0768(4) -0.1264(3)
H27A H -0.2709 -0.0941 -0.1492
C36A C -0.2238(4) -0.1083(4) -0.0488(3)
H28A H -0.2683 -0.1478 -0.0174
C37A C -0.1569(3) -0.0816(3) -0.0176(3)
C38A C -0.1522(3) -0.1089(3) 0.0666(3)
Cu5A Cu -0.18251(4) -0.18075(4) 0.21653(4)
N11A N -0.2855(3) -0.2571(3) 0.2688(3)
N12A N -0.1388(3) -0.2242(3) 0.3115(2)
C39A C -0.3606(4) -0.2676(4) 0.2424(3)
H29A H -0.3664 -0.2357 0.1939
C40A C -0.4294(4) -0.3233(4) 0.2837(4)
H30A H -0.4822 -0.3292 0.2642
C41A C -0.4207(5) -0.3699(5) 0.3529(4)
H31A H -0.4674 -0.4087 0.3819
C42A C -0.3438(5) -0.3603(4) 0.3805(4)
H32A H -0.3364 -0.3930 0.4282
C43A C -0.2770(4) -0.3022(3) 0.3377(3)
C44A C -0.1943(4) -0.2837(3) 0.3626(3)
C45A C -0.1711(5) -0.3212(4) 0.4314(3)
H33A H -0.2095 -0.3628 0.4671
C46A C -0.0899(5) -0.2967(4) 0.4472(3)
H34A H -0.0711 -0.3227 0.4929
C47A C -0.0378(4) -0.2341(4) 0.3956(3)
H35A H 0.0157 -0.2150 0.4069
C48A C -0.0628(4) -0.1996(4) 0.3283(3)
H36A H -0.0255 -0.1573 0.2927
Cu2A_2 Cu 0.22491(4) -0.05071(4) -0.26054(3)
Cu4_2 Cu -1.0000 0.0000 1.0000
O3A_2 O 0.1430(2) -0.1433(2) -0.09149(18)
O5_2 O -0.9088(2) 0.0975(2) 0.82901(19)
Cl2 Cl 0.06830(10) 0.42330(9) 0.30464(8)
O11 O 0.0574(3) 0.3615(3) 0.3722(2)
O12 O 0.1156(3) 0.3669(4) 0.2221(3)
O13 O 0.1326(5) 0.4854(4) 0.3072(4)
O14 O -0.0323(4) 0.4799(4) 0.3142(3)
Cl3 Cl 0.26602(9) 0.85603(9) 0.32720(8)
O15 O 0.3415(17) 0.8362(16) 0.2413(9)
O16 O 0.3042(7) 0.8904(8) 0.3841(4)
O17 O 0.2523(17) 0.7665(8) 0.3404(10)
O18 O 0.1637(6) 0.9147(13) 0.3446(7)
S1 S 0.32220(12) 0.54011(11) 0.42202(10)
O23 O 0.3373(4) 0.4392(3) 0.4425(3)
C49 C 0.1854(5) 0.5925(5) 0.4683(4)
H37 H 0.1496 0.5534 0.4478
H38 H 0.1717 0.6577 0.4504
H39 H 0.1594 0.5955 0.5322
C50 C 0.3407(5) 0.5407(5) 0.3116(4)
H40 H 0.4142 0.5111 0.2746
H41 H 0.3223 0.6071 0.2979
H42 H 0.2959 0.5041 0.3006
S2 S 0.38006(12) 0.31379(12) 0.02291(10)
O24 O 0.4016(3) 0.2209(3) 0.0617(3)
C51 C 0.3633(5) 0.4078(4) 0.0998(4)
H43 H 0.2993 0.4107 0.1521
H44 H 0.3577 0.4692 0.0738
H45 H 0.4237 0.3954 0.1160
C52 C 0.5026(5) 0.3276(5) -0.0566(4)
H46 H 0.5539 0.3198 -0.0300
H47 H 0.4929 0.3919 -0.0771
H48 H 0.5280 0.2789 -0.1062
O25 O -0.1805(9) 0.4279(7) 0.2841(7)
H49 H -0.1212 0.4025 0.2955
H50 H -0.1839 0.3982 0.2427
O19? O 0.328(2) 0.8751(17) 0.2379(13)
O20? O 0.1841(11) 0.8153(15) 0.3331(7)
O21? O 0.2307(19) 0.9502(7) 0.3532(8)
O22? O 0.3071(11) 0.8041(14) 0.3846(7)
loop_
_geom_bond_atom_site_label_1
_geom_bond_atom_site_label_2
_geom_bond_site_symmetry_1
_geom_bond_site_symmetry_2
Cu1 O1 1_555 1_555
Cu2 N3 1_555 1_555
Cu3 O3 1_555 1_555
Cu4 O3 1_555 1_555
Cl1 O7 1_555 1_555
O1 N3 1_555 1_555
O2 Cu1 1_555 1_555
O3 N6 1_555 1_555
O4 Cu3 1_555 1_555
O5 N9 1_555 1_555
O6 C38 1_555 1_555
O8 Cu3 1_555 1_555
O9 Cl1 1_555 1_555
O10 Cl1 1_555 1_555
N1 Cu1 1_555 1_555
N2 Cu1 1_555 1_555
N3 C11 1_555 1_555
N4 Cu2 1_555 1_555
N5 Cu2 1_555 1_555
N6 Cu2 1_555 1_555
N7 Cu3 1_555 1_555
N8 Cu3 1_555 1_555
N9 Cu4 1_555 1_555
N10 Cu4 1_555 1_555
C1 N1 1_555 1_555
H1 C1 1_555 1_555
C2 C1 1_555 1_555
H2 C2 1_555 1_555
C3 C2 1_555 1_555
H3 C3 1_555 1_555
C4 C3 1_555 1_555
H4 C4 1_555 1_555
C5 N1 1_555 1_555
C6 N2 1_555 1_555
C7 C6 1_555 1_555
H5 C7 1_555 1_555
C8 C7 1_555 1_555
H6 C8 1_555 1_555
C9 C8 1_555 1_555
H7 C9 1_555 1_555
C10 N2 1_555 1_555
H8 C10 1_555 1_555
C11 O2 1_555 1_555
C12 N4 1_555 1_555
C13 C12 1_555 1_555
H9 C13 1_555 1_555
C14 C13 1_555 1_555
H10 C14 1_555 1_555
C15 C14 1_555 1_555
H11 C15 1_555 1_555
C16 N4 1_555 1_555
H12 C16 1_555 1_555
C17 N5 1_555 1_555
H13 C17 1_555 1_555
C18 C17 1_555 1_555
H14 C18 1_555 1_555
C19 C18 1_555 1_555
H15 C19 1_555 1_555
C20 C19 1_555 1_555
H16 C20 1_555 1_555
C21 N5 1_555 1_555
C22 O4 1_555 1_555
C23 N8 1_555 1_555
H17 C23 1_555 1_555
C24 C23 1_555 1_555
H18 C24 1_555 1_555
C25 C24 1_555 1_555
H19 C25 1_555 1_555
C26 C25 1_555 1_555
H20 C26 1_555 1_555
C27 N8 1_555 1_555
C28 N7 1_555 1_555
C29 C28 1_555 1_555
H21 C29 1_555 1_555
C30 C29 1_555 1_555
H22 C30 1_555 1_555
C31 C30 1_555 1_555
H23 C31 1_555 1_555
C32 N7 1_555 1_555
H24 C32 1_555 1_555
C33 N10 1_555 1_555
H25 C33 1_555 1_555
C34 C33 1_555 1_555
H26 C34 1_555 1_555
C35 C34 1_555 1_555
H27 C35 1_555 1_555
C36 C35 1_555 1_555
H28 C36 1_555 1_555
C37 N10 1_555 1_555
C38 N9 1_555 1_555
Cu5 O5 1_555 1_555
N11 Cu5 1_555 1_555
N12 Cu5 1_555 1_555
C39 N11 1_555 1_555
H29 C39 1_555 1_555
C40 C39 1_555 1_555
H30 C40 1_555 1_555
C41 C40 1_555 1_555
H31 C41 1_555 1_555
C42 C41 1_555 1_555
H32 C42 1_555 1_555
C43 N11 1_555 1_555
C44 N12 1_555 1_555
C45 C44 1_555 1_555
H33 C45 1_555 1_555
C46 C45 1_555 1_555
H34 C46 1_555 1_555
C47 C46 1_555 1_555
H35 C47 1_555 1_555
C48 N12 1_555 1_555
H36 C48 1_555 1_555
Cl2 O11 1_555 1_555
O12 Cl2 1_555 1_555
O13 Cl2 1_555 1_555
O14 Cl2 1_555 1_555
Cl3 O15 1_555 1_555
O16 Cl3 1_555 1_555
O17 Cl3 1_555 1_555
O18 Cl3 1_555 1_555
S1 O23 1_555 1_555
C49 S1 1_555 1_555
H37 C49 1_555 1_555
H38 C49 1_555 1_555
H39 C49 1_555 1_555
C50 S1 1_555 1_555
H40 C50 1_555 1_555
H41 C50 1_555 1_555
H42 C50 1_555 1_555
S2 O24 1_555 1_555
C51 S2 1_555 1_555
H43 C51 1_555 1_555
H44 C51 1_555 1_555
H45 C51 1_555 1_555
C52 S2 1_555 1_555
H46 C52 1_555 1_555
H47 C52 1_555 1_555
H48 C52 1_555 1_555
O25 H49 1_555 1_555
H50 O25 1_555 1_555
Cu1A O2 1_555 1_555
Cu2A N3A 1_555 1_555
Cu3A O3A 1_555 1_555
Cl1A O7A 1_555 1_555
O1A Cu1A 1_555 1_555
O2A Cu1 1_555 1_555
O3A N6A 1_555 1_555
O4A Cu3A 1_555 1_555
O8A Cu3A 1_555 1_555
O9A Cl1A 1_555 1_555
O10A Cl1A 1_555 1_555
N1A Cu1A 1_555 1_555
N2A Cu1A 1_555 1_555
N3A O1A 1_555 1_555
N4A Cu2A 1_555 1_555
N5A Cu2A 1_555 1_555
N6A Cu2A 1_555 1_555
N7A Cu3A 1_555 1_555
N8A Cu3A 1_555 1_555
C1A N1A 1_555 1_555
H1A C1A 1_555 1_555
C2A C1A 1_555 1_555
H2A C2A 1_555 1_555
C3A C2A 1_555 1_555
H3A C3A 1_555 1_555
C4A C3A 1_555 1_555
H4A C4A 1_555 1_555
C5A N1A 1_555 1_555
C6A N2A 1_555 1_555
C7A C6A 1_555 1_555
H5A C7A 1_555 1_555
C8A C7A 1_555 1_555
H6A C8A 1_555 1_555
C9A C8A 1_555 1_555
H7A C9A 1_555 1_555
C10A N2A 1_555 1_555
H8A C10A 1_555 1_555
C11A O2A 1_555 1_555
C12A N4A 1_555 1_555
C13A C12A 1_555 1_555
H9A C13A 1_555 1_555
C14A C13A 1_555 1_555
H10A C14A 1_555 1_555
C15A C14A 1_555 1_555
H11A C15A 1_555 1_555
C16A N4A 1_555 1_555
H12A C16A 1_555 1_555
C17A N5A 1_555 1_555
H13A C17A 1_555 1_555
C18A C17A 1_555 1_555
H14A C18A 1_555 1_555
C19A C18A 1_555 1_555
H15A C19A 1_555 1_555
C20A C19A 1_555 1_555
H16A C20A 1_555 1_555
C21A N5A 1_555 1_555
C22A O4A 1_555 1_555
C23A N8A 1_555 1_555
H17A C23A 1_555 1_555
C24A C23A 1_555 1_555
H18A C24A 1_555 1_555
C25A C24A 1_555 1_555
H19A C25A 1_555 1_555
C26A C25A 1_555 1_555
H20A C26A 1_555 1_555
C27A N8A 1_555 1_555
C28A N7A 1_555 1_555
C29A C28A 1_555 1_555
H21A C29A 1_555 1_555
C30A C29A 1_555 1_555
H22A C30A 1_555 1_555
C31A C30A 1_555 1_555
H23A C31A 1_555 1_555
C32A N7A 1_555 1_555
H24A C32A 1_555 1_555
O5A Cu2 1_555 1_555
O6A C38A 1_555 1_555
N9A Cu4 1_555 1_555
N10A Cu4 1_555 1_555
C33A N10A 1_555 1_555
H25A C33A 1_555 1_555
C34A C33A 1_555 1_555
H26A C34A 1_555 1_555
C35A C34A 1_555 1_555
H27A C35A 1_555 1_555
C36A C35A 1_555 1_555
H28A C36A 1_555 1_555
C37A N10A 1_555 1_555
C38A N9A 1_555 1_555
Cu5A O5A 1_555 1_555
N11A Cu5A 1_555 1_555
N12A Cu5A 1_555 1_555
C39A N11A 1_555 1_555
H29A C39A 1_555 1_555
C40A C39A 1_555 1_555
H30A C40A 1_555 1_555
C41A C40A 1_555 1_555
H31A C41A 1_555 1_555
C42A C41A 1_555 1_555
H32A C42A 1_555 1_555
C43A N11A 1_555 1_555
C44A N12A 1_555 1_555
C45A C44A 1_555 1_555
H33A C45A 1_555 1_555
C46A C45A 1_555 1_555
H34A C46A 1_555 1_555
C47A C46A 1_555 1_555
H35A C47A 1_555 1_555
C48A N12A 1_555 1_555
H36A C48A 1_555 1_555
Cu2A_2 O5 1_555 1_555
Cu4_2 O3A 1_555 1_555
O3A_2 Cu4 1_555 1_555
O5_2 Cu2A 1_555 1_555
Cl1 O8 1_555 1_555
O6 Cu5 1_555 1_555
N6 C22 1_555 1_555
C4 C5 1_555 1_555
C5 C6 1_555 1_555
C9 C10 1_555 1_555
C11 C12 1_555 1_555
C15 C16 1_555 1_555
C20 C21 1_555 1_555
C21 C22 1_555 1_555
C26 C27 1_555 1_555
C27 C28 1_555 1_555
C31 C32 1_555 1_555
C36 C37 1_555 1_555
C37 C38 1_555 1_555
C42 C43 1_555 1_555
C43 C44 1_555 1_555
C47 C48 1_555 1_555
Cu1A O2A 1_555 1_555
Cl1A O8A 1_555 1_555
N3A C11A 1_555 1_555
N6A C22A 1_555 1_555
C4A C5A 1_555 1_555
C5A C6A 1_555 1_555
C9A C10A 1_555 1_555
C11A C12A 1_555 1_555
C15A C16A 1_555 1_555
C20A C21A 1_555 1_555
C21A C22A 1_555 1_555
C26A C27A 1_555 1_555
C27A C28A 1_555 1_555
C31A C32A 1_555 1_555
O5A N9A 1_555 1_555
O6A Cu5A 1_555 1_555
C36A C37A 1_555 1_555
C37A C38A 1_555 1_555
C42A C43A 1_555 1_555
C43A C44A 1_555 1_555
C47A C48A 1_555 1_555

#END
