
#######################################################################
#
#                 Cambridge Crystallographic Data Centre
#                                CCDC 
#
#######################################################################
#
# If this CIF has been generated from an entry in the Cambridge 
# Structural Database, then it will include bibliographic, chemical, 
# crystal, experimental, refinement or atomic coordinate data resulting 
# from the CCDC's data processing and validation procedures.
#
#######################################################################

data_WIJZUL
_symmetry_cell_setting           monoclinic
_symmetry_space_group_name_H-M   'P 21/n'
_symmetry_Int_Tables_number      14
_space_group_name_Hall           '-P 2yn'
loop_
_symmetry_equiv_pos_site_id
_symmetry_equiv_pos_as_xyz
1 x,y,z
2 1/2-x,1/2+y,1/2-z
3 -x,-y,-z
4 1/2+x,1/2-y,1/2+z
_cell_length_a                   6.896(3)
_cell_length_b                   9.014(3)
_cell_length_c                   21.774(4)
_cell_angle_alpha                90
_cell_angle_beta                 98.01(2)
_cell_angle_gamma                90
_cell_volume                     1340.28
loop_
_atom_site_label
_atom_site_type_symbol
_atom_site_fract_x
_atom_site_fract_y
_atom_site_fract_z
Cu1 Cu 0.82400(3) 0.36211(2) 0.620784(8)
O1 O 0.9175(2) 0.15226(13) 0.63316(6)
H1 H 1.032(3) 0.139(3) 0.6232(12)
H2 H 0.927(4) 0.129(3) 0.6704(8)
N1 N 0.8053(2) 0.34353(15) 0.52784(7)
N2 N 0.7810(2) 0.57857(17) 0.59925(6)
N3 N 0.7212(2) 0.45480(18) 0.43820(6)
H3 H 0.6882 0.5234 0.4113
N4 N 0.7294(2) 0.74552(16) 0.52476(6)
H4 H 0.7082 0.7840 0.4883
C1 C 0.7579(2) 0.47181(19) 0.49974(7)
C2 C 0.7462(3) 0.3073(2) 0.42610(8)
H5 H 0.7313 0.2625 0.3872
C3 C 0.7965(3) 0.2390(2) 0.48142(8)
H6 H 0.8210 0.1381 0.4871
C4 C 0.7521(2) 0.60162(19) 0.53830(7)
C5 C 0.7462(3) 0.8208(2) 0.58033(9)
H7 H 0.7382 0.9228 0.5857
C6 C 0.7770(3) 0.7160(2) 0.62582(8)
H8 H 0.7928 0.7350 0.6682
O2 O 0.86144(17) 0.39997(15) 0.70954(6)
O3 O 1.16871(19) 0.44180(18) 0.69536(6)
O4 O 0.99987(18) 0.81184(17) 0.88458(6)
O5 O 1.2270(2) 0.63885(16) 0.90696(6)
C7 C 1.0393(2) 0.43504(18) 0.72947(7)
C8 C 1.0825(3) 0.4757(2) 0.79717(7)
H9 H 1.2183 0.4541 0.8126
H10 H 1.0006 0.4177 0.8209
C9 C 1.0425(3) 0.6400(2) 0.80483(8)
H11 H 0.9049 0.6584 0.7908
H12 H 1.1172 0.6954 0.7780
C10 C 1.0917(2) 0.7000(2) 0.87048(7)
Cu1A Cu 0.67600(3) 0.86211(2) 0.879216(8)
O4A O 0.50013(18) 0.31184(17) 0.61542(6)
O6 O 0.9648(3) 0.0379(3) 0.74853(10)
H13 H 0.879(7) -0.006(5) 0.756(2)
H14 H 1.079(7) 0.025(5) 0.773(2)
loop_
_geom_bond_atom_site_label_1
_geom_bond_atom_site_label_2
_geom_bond_site_symmetry_1
_geom_bond_site_symmetry_2
Cu1 O1 1_555 1_555
O1 H1 1_555 1_555
H2 O1 1_555 1_555
N1 Cu1 1_555 1_555
N2 Cu1 1_555 1_555
N3 H3 1_555 1_555
N4 H4 1_555 1_555
C1 N1 1_555 1_555
C2 N3 1_555 1_555
H5 C2 1_555 1_555
C3 N1 1_555 1_555
H6 C3 1_555 1_555
C4 N2 1_555 1_555
C5 N4 1_555 1_555
H7 C5 1_555 1_555
C6 N2 1_555 1_555
H8 C6 1_555 1_555
O2 Cu1 1_555 1_555
O3 C7 1_555 1_555
O4 C10 1_555 1_555
O5 C10 1_555 1_555
C7 O2 1_555 1_555
C8 C7 1_555 1_555
H9 C8 1_555 1_555
H10 C8 1_555 1_555
C9 C8 1_555 1_555
H11 C9 1_555 1_555
H12 C9 1_555 1_555
C10 C9 1_555 1_555
O6 H13 1_555 1_555
H14 O6 1_555 1_555
Cu1A O4 1_555 1_555
O4A Cu1 1_555 1_555
N3 C1 1_555 1_555
N4 C4 1_555 1_555
C1 C4 1_555 1_555
C2 C3 1_555 1_555
C5 C6 1_555 1_555

#END
