
#######################################################################
#
#                 Cambridge Crystallographic Data Centre
#                                CCDC 
#
#######################################################################
#
# If this CIF has been generated from an entry in the Cambridge 
# Structural Database, then it will include bibliographic, chemical, 
# crystal, experimental, refinement or atomic coordinate data resulting 
# from the CCDC's data processing and validation procedures.
#
#######################################################################

data_WIJZOG
_symmetry_cell_setting           monoclinic
_symmetry_space_group_name_H-M   'C 2/c'
_symmetry_Int_Tables_number      15
_space_group_name_Hall           '-C 2yn'
loop_
_symmetry_equiv_pos_site_id
_symmetry_equiv_pos_as_xyz
1 x,y,z
2 -x,y,1/2-z
3 1/2+x,1/2+y,z
4 1/2-x,1/2+y,1/2-z
5 -x,-y,-z
6 x,-y,1/2+z
7 1/2-x,1/2-y,-z
8 1/2+x,1/2-y,1/2+z
_cell_length_a                   16.9500(10)
_cell_length_b                   13.8215(10)
_cell_length_c                   17.9208(14)
_cell_angle_alpha                90
_cell_angle_beta                 107.710(4)
_cell_angle_gamma                90
_cell_volume                     3999.42
loop_
_atom_site_label
_atom_site_type_symbol
_atom_site_fract_x
_atom_site_fract_y
_atom_site_fract_z
O7 O 0.5000 -0.1090(5) 0.7500
N5 N 0.4826(13) -0.2719(9) 0.7672(13)
C15 C 0.5000 -0.1971(13) 0.7500
C16 C 0.5000 -0.3672(10) 0.7500
C17 C 0.4269(12) -0.2726(13) 0.8172(11)
N5A N 0.5174(13) -0.2719(9) 0.7328(13)
C17A C 0.5731(12) -0.2726(13) 0.6828(11)
O8 O 0.5000 0.5000 0.5000
Cu1 Cu 0.59459(5) 0.04670(7) 0.51889(5)
Cl1 Cl 0.78280(12) -0.03723(15) 0.67969(11)
O1 O 0.5478(3) -0.0402(3) 0.5784(3)
O2 O 0.5676(3) 0.1477(4) 0.5826(3)
O3 O 0.7266(4) 0.0418(5) 0.6526(5)
O4 O 0.8296(5) -0.0486(5) 0.6266(5)
O5 O 0.7358(4) -0.1226(5) 0.6821(4)
O6 O 0.8335(5) -0.0213(6) 0.7551(5)
N1 N 0.6400(3) 0.1361(5) 0.4557(3)
N2 N 0.6414(4) -0.0517(5) 0.4641(4)
N3 N 0.5389(4) 0.0137(4) 0.6399(3)
H1 H 0.5281 -0.0146 0.6797
N4 N 0.5000 0.1152(6) 0.7500
C1 C 0.6366(4) 0.2314(6) 0.4561(4)
H2 H 0.6086 0.2617 0.4884
C2 C 0.6714(5) 0.2891(7) 0.4122(4)
H3 H 0.6681 0.3576 0.4144
C3 C 0.7116(5) 0.2444(7) 0.3645(5)
H4 H 0.7371 0.2819 0.3339
C4 C 0.7137(5) 0.1460(7) 0.3623(4)
H5 H 0.7407 0.1146 0.3297
C5 C 0.6760(4) 0.0907(6) 0.4080(4)
C6 C 0.6758(4) -0.0146(7) 0.4109(4)
C7 C 0.7056(5) -0.0762(7) 0.3648(5)
H6 H 0.7297 -0.0501 0.3278
C8 C 0.7006(5) -0.1726(8) 0.3722(5)
H7 H 0.7199 -0.2141 0.3392
C9 C 0.6674(5) -0.2122(7) 0.4276(5)
H8 H 0.6648 -0.2802 0.4346
C10 C 0.6383(5) -0.1463(7) 0.4721(5)
H9 H 0.6150 -0.1710 0.5102
C11 C 0.5469(4) 0.1069(5) 0.6381(4)
C12 C 0.5260(5) 0.1667(6) 0.6987(4)
C13 C 0.5304(5) 0.2663(6) 0.6981(5)
H10 H 0.5535 0.2993 0.6632
C14 C 0.5000 0.3164(9) 0.7500
H11 H 0.5000 0.3851 0.7500
O1A O 0.4522(3) -0.0402(3) 0.9216(3)
O2A O 0.4324(3) 0.1477(4) 0.9174(3)
N3A N 0.4611(4) 0.0137(4) 0.8601(3)
H1A H 0.4719 -0.0146 0.8203
C11A C 0.4531(4) 0.1069(5) 0.8619(4)
C12A C 0.4740(5) 0.1667(6) 0.8013(4)
C13A C 0.4696(5) 0.2663(6) 0.8019(5)
H10A H 0.4465 0.2993 0.8368
Cu1A Cu 0.40541(5) 0.04670(7) 0.98111(5)
Cl1A Cl 0.21720(12) -0.03723(15) 0.82031(11)
O3A O 0.2734(4) 0.0418(5) 0.8474(5)
O4A O 0.1704(5) -0.0486(5) 0.8734(5)
O5A O 0.2642(4) -0.1226(5) 0.8179(4)
O6A O 0.1665(5) -0.0213(6) 0.7449(5)
N1A N 0.3600(3) 0.1361(5) 1.0443(3)
N2A N 0.3586(4) -0.0517(5) 1.0359(4)
C1A C 0.3634(4) 0.2314(6) 1.0439(4)
H2A H 0.3914 0.2617 1.0116
C2A C 0.3286(5) 0.2891(7) 1.0878(4)
H3A H 0.3319 0.3576 1.0856
C3A C 0.2884(5) 0.2444(7) 1.1355(5)
H4A H 0.2629 0.2819 1.1661
C4A C 0.2863(5) 0.1460(7) 1.1377(4)
H5A H 0.2593 0.1146 1.1703
C5A C 0.3240(4) 0.0907(6) 1.0920(4)
C6A C 0.3242(4) -0.0146(7) 1.0891(4)
C7A C 0.2944(5) -0.0762(7) 1.1352(5)
H6A H 0.2703 -0.0501 1.1722
C8A C 0.2994(5) -0.1726(8) 1.1278(5)
H7A H 0.2801 -0.2141 1.1608
C9A C 0.3326(5) -0.2122(7) 1.0724(5)
H8A H 0.3352 -0.2802 1.0654
C10A C 0.3617(5) -0.1463(7) 1.0279(5)
H9A H 0.3850 -0.1710 0.9898
Cu1D Cu 0.40541(5) -0.04670(7) 0.48111(5)
Cu1E Cu 0.59459(5) -0.04670(7) 1.01889(5)
O1D O 0.4522(3) 0.0402(3) 0.4216(3)
O1E O 0.5478(3) 0.0402(3) 1.0784(3)
O9? O 0.5051(14) 0.3908(19) 0.477(2)
loop_
_geom_bond_atom_site_label_1
_geom_bond_atom_site_label_2
_geom_bond_site_symmetry_1
_geom_bond_site_symmetry_2
Cu1 O1 1_555 1_555
Cl1 O3 1_555 1_555
O1 N3 1_555 1_555
O2 Cu1 1_555 1_555
O3 Cu1 1_555 1_555
O4 Cl1 1_555 1_555
O5 Cl1 1_555 1_555
O6 Cl1 1_555 1_555
N1 Cu1 1_555 1_555
N2 Cu1 1_555 1_555
N3 H1 1_555 1_555
N4 C12 1_555 1_555
C1 N1 1_555 1_555
H2 C1 1_555 1_555
C2 C1 1_555 1_555
H3 C2 1_555 1_555
C3 C2 1_555 1_555
H4 C3 1_555 1_555
C4 C3 1_555 1_555
H5 C4 1_555 1_555
C5 N1 1_555 1_555
C6 N2 1_555 1_555
C7 C6 1_555 1_555
H6 C7 1_555 1_555
C8 C7 1_555 1_555
H7 C8 1_555 1_555
C9 C8 1_555 1_555
H8 C9 1_555 1_555
C10 N2 1_555 1_555
H9 C10 1_555 1_555
C11 O2 1_555 1_555
C12 C11 1_555 1_555
C13 C12 1_555 1_555
H10 C13 1_555 1_555
C14 C13 1_555 1_555
H11 C14 1_555 1_555
O7 C15 1_555 1_555
N5 C15 1_555 1_555
C15 N5A 1_555 1_555
C16 N5 1_555 1_555
C17 N5 1_555 1_555
O1A N3A 1_555 1_555
O2A C11A 1_555 1_555
N3A H1A 1_555 1_555
C11A N3A 1_555 1_555
C12A N4 1_555 1_555
C13A C14 1_555 1_555
H10A C13A 1_555 1_555
Cu1A O1A 1_555 1_555
Cl1A O3A 1_555 1_555
O3A Cu1A 1_555 1_555
O4A Cl1A 1_555 1_555
O5A Cl1A 1_555 1_555
O6A Cl1A 1_555 1_555
N1A Cu1A 1_555 1_555
N2A Cu1A 1_555 1_555
C1A N1A 1_555 1_555
H2A C1A 1_555 1_555
C2A C1A 1_555 1_555
H3A C2A 1_555 1_555
C3A C2A 1_555 1_555
H4A C3A 1_555 1_555
C4A C3A 1_555 1_555
H5A C4A 1_555 1_555
C5A N1A 1_555 1_555
C6A N2A 1_555 1_555
C7A C6A 1_555 1_555
H6A C7A 1_555 1_555
C8A C7A 1_555 1_555
H7A C8A 1_555 1_555
C9A C8A 1_555 1_555
H8A C9A 1_555 1_555
C10A N2A 1_555 1_555
H9A C10A 1_555 1_555
Cu1D O1 1_555 1_555
Cu1E O1A 1_555 1_555
O1D Cu1 1_555 1_555
O1E Cu1A 1_555 1_555
N5A C16 1_555 1_555
C17A N5A 1_555 1_555
N3 C11 1_555 1_555
C4 C5 1_555 1_555
C5 C6 1_555 1_555
C9 C10 1_555 1_555
O2A Cu1A 1_555 1_555
C11A C12A 1_555 1_555
C12A C13A 1_555 1_555
C4A C5A 1_555 1_555
C5A C6A 1_555 1_555
C9A C10A 1_555 1_555
Cu1D O1D 1_555 1_555
Cu1E O1E 1_555 1_555

#END
