
#######################################################################
#
#                 Cambridge Crystallographic Data Centre
#                                CCDC 
#
#######################################################################
#
# If this CIF has been generated from an entry in the Cambridge 
# Structural Database, then it will include bibliographic, chemical, 
# crystal, experimental, refinement or atomic coordinate data resulting 
# from the CCDC's data processing and validation procedures.
#
#######################################################################

data_WIKBIC
_symmetry_cell_setting           orthorhombic
_symmetry_space_group_name_H-M   'P c c n'
_symmetry_Int_Tables_number      56
_space_group_name_Hall           '-P 2ab 2ac'
loop_
_symmetry_equiv_pos_site_id
_symmetry_equiv_pos_as_xyz
1 x,y,z
2 1/2+x,-y,1/2-z
3 -x,1/2+y,1/2-z
4 1/2-x,1/2-y,z
5 -x,-y,-z
6 1/2-x,y,1/2+z
7 x,1/2-y,1/2+z
8 1/2+x,1/2+y,-z
_cell_length_a                   20.948(3)
_cell_length_b                   10.5793(12)
_cell_length_c                   20.858(2)
_cell_angle_alpha                90
_cell_angle_beta                 90
_cell_angle_gamma                90
_cell_volume                     4622.45
loop_
_atom_site_label
_atom_site_type_symbol
_atom_site_fract_x
_atom_site_fract_y
_atom_site_fract_z
O4 O 0.3883(8) 0.7238(15) 0.0125(7)
Ca1 Ca 0.2500 1.2500 0.22447(7)
Cu1 Cu 0.32273(3) 0.94985(6) 0.24031(3)
C1 C 0.3159(4) 1.4501(7) 0.1132(4)
C2 C 0.3662(3) 1.2485(6) 0.1134(3)
C3 C 0.4076(3) 1.2831(6) 0.0646(3)
C4 C 0.4530(3) 1.1961(7) 0.0430(3)
C5 C 0.4557(3) 1.0782(6) 0.0695(3)
C6 C 0.4143(3) 1.0418(6) 0.1192(3)
C7 C 0.3682(2) 1.1257(5) 0.1413(3)
C8 C 0.4216(3) 0.9172(6) 0.1450(3)
C9 C 0.4071(3) 0.7346(6) 0.2045(3)
C10 C 0.4187(3) 0.7046(6) 0.2761(3)
C11 C 0.3569(3) 0.7088(6) 0.3115(3)
C12 C 0.3030(3) 0.8640(6) 0.3700(3)
C13 C 0.2610(3) 0.9673(5) 0.3857(3)
C14 C 0.2387(4) 0.9738(7) 0.4496(3)
C15 C 0.1931(4) 1.0602(8) 0.4662(3)
C16 C 0.1693(4) 1.1440(7) 0.4206(3)
C17 C 0.1897(3) 1.1372(6) 0.3577(3)
C18 C 0.2368(2) 1.0498(5) 0.3389(2)
C19 C 0.1145(3) 1.2932(6) 0.3228(4)
C20 C 0.4416(3) 0.5677(6) 0.2784(4)
C21 C 0.4686(3) 0.7923(7) 0.3039(4)
N2 N 0.3915(2) 0.8676(4) 0.1924(2)
N3 N 0.3254(2) 0.8357(4) 0.3150(2)
O5 O 0.3201(2) 1.3272(4) 0.1393(2)
O6 O 0.32635(19) 1.1008(4) 0.18691(18)
O7 O 0.25441(19) 1.0483(3) 0.27855(16)
O8 O 0.1690(2) 1.2148(4) 0.3093(2)
N4 N 0.2500 0.7500 0.1251(4)
O9 O 0.2500 0.7500 0.1845(5)
O10 O 0.2862(3) 0.8180(7) 0.0952(3)
H1 H 0.2813 1.4981 0.1354
H2 H 0.3575 1.4949 0.1192
H3 H 0.3060 1.4443 0.0664
H4 H 0.4050 1.3692 0.0451
H5 H 0.4835 1.2203 0.0083
H6 H 0.4878 1.0163 0.0530
H7 H 0.4541 0.8622 0.1236
H8 H 0.4466 0.7129 0.1799
H9 H 0.3709 0.6812 0.1889
H10 H 0.3649 0.6794 0.3564
H11 H 0.3266 0.6493 0.2899
H12 H 0.3160 0.8081 0.4064
H13 H 0.2564 0.9151 0.4828
H14 H 0.1767 1.0632 0.5112
H15 H 0.1373 1.2095 0.4334
H16 H 0.1040 1.3452 0.2842
H17 H 0.1245 1.3504 0.3597
H18 H 0.0772 1.2386 0.3341
H19 H 0.4500 0.5429 0.3239
H20 H 0.4819 0.5592 0.2529
H21 H 0.4081 0.5113 0.2599
H22 H 0.4754 0.7714 0.3501
H23 H 0.4537 0.8817 0.2999
H24 H 0.5096 0.7816 0.2799
Cu1C Cu 0.17727(3) 0.55015(6) 0.24031(3)
O5C O 0.1799(2) 1.1728(4) 0.1393(2)
O6C O 0.17365(19) 1.3992(4) 0.18691(18)
O7C O 0.24559(19) 1.4517(3) 0.27855(16)
O8C O 0.3310(2) 1.2852(4) 0.3093(2)
O10C O 0.2138(3) 0.6820(7) 0.0952(3)
N1 N 0.5178(6) 0.5356(12) 0.0589(6)
O1 O 0.5012(5) 0.5852(10) 0.1063(5)
O2 O 0.5720(6) 0.4920(14) 0.0543(6)
O3 O 0.4812(6) 0.5339(12) 0.0124(6)
N1D N 0.4822(6) 0.4644(12) -0.0589(6)
O2D O 0.4280(6) 0.5080(14) -0.0543(6)
O3D O 0.5188(6) 0.4661(12) -0.0124(6)
loop_
_geom_bond_atom_site_label_1
_geom_bond_atom_site_label_2
_geom_bond_site_symmetry_1
_geom_bond_site_symmetry_2
N1 O1 1_555 1_555
O2 N1 1_555 1_555
O3 N1 1_555 1_555
Ca1 O5 1_555 1_555
Cu1 N2 1_555 1_555
C1 O5 1_555 1_555
C2 C3 1_555 1_555
C3 C4 1_555 1_555
C4 C5 1_555 1_555
C5 C6 1_555 1_555
C6 C7 1_555 1_555
C7 C2 1_555 1_555
C8 C6 1_555 1_555
C9 C10 1_555 1_555
C10 C11 1_555 1_555
C11 N3 1_555 1_555
C12 C13 1_555 1_555
C13 C14 1_555 1_555
C14 C15 1_555 1_555
C15 C16 1_555 1_555
C16 C17 1_555 1_555
C17 C18 1_555 1_555
C18 C13 1_555 1_555
C19 O8 1_555 1_555
C20 C10 1_555 1_555
C21 C10 1_555 1_555
N2 C8 1_555 1_555
N3 Cu1 1_555 1_555
O5 C2 1_555 1_555
O6 Ca1 1_555 1_555
O7 Ca1 1_555 1_555
O8 Ca1 1_555 1_555
N4 O9 1_555 1_555
O9 Cu1 1_555 1_555
O10 N4 1_555 1_555
H1 C1 1_555 1_555
H2 C1 1_555 1_555
H3 C1 1_555 1_555
H4 C3 1_555 1_555
H5 C4 1_555 1_555
H6 C5 1_555 1_555
H7 C8 1_555 1_555
H8 C9 1_555 1_555
H9 C9 1_555 1_555
H10 C11 1_555 1_555
H11 C11 1_555 1_555
H12 C12 1_555 1_555
H13 C14 1_555 1_555
H14 C15 1_555 1_555
H15 C16 1_555 1_555
H16 C19 1_555 1_555
H17 C19 1_555 1_555
H18 C19 1_555 1_555
H19 C20 1_555 1_555
H20 C20 1_555 1_555
H21 C20 1_555 1_555
H22 C21 1_555 1_555
H23 C21 1_555 1_555
H24 C21 1_555 1_555
N1D O3 1_555 1_555
O2D O3 1_555 1_555
O3D N1 1_555 1_555
Cu1C O9 1_555 1_555
O5C Ca1 1_555 1_555
O6C Ca1 1_555 1_555
O7C Ca1 1_555 1_555
O8C Ca1 1_555 1_555
O10C N4 1_555 1_555
O2 O3D 1_555 1_555
O3 O3D 1_555 1_555
Cu1 O6 1_555 1_555
Cu1 O7 1_555 1_555
C7 O6 1_555 1_555
C9 N2 1_555 1_555
C12 N3 1_555 1_555
C17 O8 1_555 1_555
C18 O7 1_555 1_555
N1D O2D 1_555 1_555
N1D O3D 1_555 1_555

#END
