
#######################################################################
#
#                 Cambridge Crystallographic Data Centre
#                                CCDC 
#
#######################################################################
#
# If this CIF has been generated from an entry in the Cambridge 
# Structural Database, then it will include bibliographic, chemical, 
# crystal, experimental, refinement or atomic coordinate data resulting 
# from the CCDC's data processing and validation procedures.
#
#######################################################################

data_WIKDEB
_symmetry_cell_setting           triclinic
_symmetry_space_group_name_H-M   'P -1'
_symmetry_Int_Tables_number      2
_space_group_name_Hall           '-P 1'
loop_
_symmetry_equiv_pos_site_id
_symmetry_equiv_pos_as_xyz
1 x,y,z
2 -x,-y,-z
_cell_length_a                   5.9537(2)
_cell_length_b                   7.7298(2)
_cell_length_c                   10.0994(3)
_cell_angle_alpha                84.2842(5)
_cell_angle_beta                 79.0115(5)
_cell_angle_gamma                87.5204(5)
_cell_volume                     453.853
loop_
_atom_site_label
_atom_site_type_symbol
_atom_site_fract_x
_atom_site_fract_y
_atom_site_fract_z
C1 C -0.0061(2) 0.20021(16) 0.84757(13)
C2 C 0.1676(2) 0.21648(16) 0.72151(13)
Cs1 Cs 0.26456(12) 0.302135(9) 1.168574(7)
N1 N -0.04238(19) 0.33184(15) 0.92616(11)
N2 N -0.21361(19) 0.27669(15) 1.02571(12)
N3 N -0.27441(19) 0.11966(15) 1.00547(12)
N4 N -0.14615(19) 0.06790(15) 0.89140(12)
N5 N 0.3020(2) 0.04869(15) 0.68582(11)
N6 N 0.33871(19) 0.35622(15) 0.73052(12)
N7 N 0.0636(2) 0.27789(15) 0.59494(11)
O1 O 0.1844(2) -0.07318(13) 0.67806(11)
O2 O 0.50915(18) 0.05140(15) 0.66622(12)
O3 O 0.3548(2) 0.48100(14) 0.64625(12)
O4 O 0.44147(17) 0.32915(14) 0.82382(11)
O5 O -0.10737(18) 0.37006(14) 0.61420(11)
O6 O 0.1647(2) 0.23124(16) 0.48752(11)
Cs1_2 Cs -0.73544(12) 0.302135(9) 1.168574(7)
Cs1_3 Cs 0.26456(12) 0.302135(9) 0.168574(7)
Cs1A Cs -0.26456(12) -0.302135(9) 0.831426(7)
Cs1A_2 Cs -0.26456(12) 0.697865(9) 0.831426(7)
Cs1A_3 Cs 0.73544(12) -0.302135(9) 0.831426(7)
Cs1A_4 Cs 0.73544(12) 0.697865(9) 0.831426(7)
N1A N 0.04238(19) 0.66816(15) 1.07384(11)
N2_2 N 0.78639(19) 0.27669(15) 1.02571(12)
N3_2 N 0.72559(19) 0.11966(15) 1.00547(12)
N4A N 0.14615(19) -0.06790(15) 1.10860(12)
O1A O -0.1844(2) 0.07318(13) 1.32194(11)
O2A O 0.49085(18) -0.05140(15) 1.33378(12)
O4A O 0.55853(17) 0.67085(14) 1.17618(11)
O5A O 0.10737(18) 0.62994(14) 1.38580(11)
O6_2 O 0.1647(2) 0.23124(16) 1.48752(11)
loop_
_geom_bond_atom_site_label_1
_geom_bond_atom_site_label_2
_geom_bond_site_symmetry_1
_geom_bond_site_symmetry_2
C1 C2 1_555 1_555
C2 N5 1_555 1_555
Cs1 N1 1_555 1_555
N1 C1 1_555 1_555
N2 Cs1 1_555 1_555
N3 N2 1_555 1_555
N4 C1 1_555 1_555
N5 O1 1_555 1_555
N6 C2 1_555 1_555
N7 C2 1_555 1_555
O1 Cs1A 1_555 1_555
O2 N5 1_555 1_555
O3 N6 1_555 1_555
O4 Cs1 1_555 1_555
O5 N7 1_555 1_555
O6 N7 1_555 1_555
Cs1_2 N2 1_555 1_555
Cs1_3 O6 1_555 1_555
Cs1A N4 1_555 1_555
Cs1A_2 N1 1_555 1_555
Cs1A_3 O2 1_555 1_555
Cs1A_4 O4 1_555 1_555
N1A Cs1 1_555 1_555
N2_2 Cs1 1_555 1_555
N3_2 Cs1 1_555 1_555
N4A Cs1 1_555 1_555
O1A Cs1 1_555 1_555
O2A Cs1 1_555 1_555
O4A Cs1 1_555 1_555
O5A Cs1 1_555 1_555
O6_2 Cs1 1_555 1_555
N1 N2 1_555 1_555
N3 N4 1_555 1_555
N3 Cs1_2 1_555 1_555
N6 O4 1_555 1_555
O5 Cs1A_2 1_555 1_555
Cs1A_2 N1A 1_555 1_555
Cs1A_4 O4A 1_555 1_555
N2_2 N3_2 1_555 1_555

#END
