
#######################################################################
#
#                 Cambridge Crystallographic Data Centre
#                                CCDC 
#
#######################################################################
#
# If this CIF has been generated from an entry in the Cambridge 
# Structural Database, then it will include bibliographic, chemical, 
# crystal, experimental, refinement or atomic coordinate data resulting 
# from the CCDC's data processing and validation procedures.
#
#######################################################################

data_WIKDAX
_symmetry_cell_setting           triclinic
_symmetry_space_group_name_H-M   'P -1'
_symmetry_Int_Tables_number      2
_space_group_name_Hall           '-P 1'
loop_
_symmetry_equiv_pos_site_id
_symmetry_equiv_pos_as_xyz
1 x,y,z
2 -x,-y,-z
_cell_length_a                   5.85770(10)
_cell_length_b                   7.5152(2)
_cell_length_c                   9.8610(2)
_cell_angle_alpha                85.1310(10)
_cell_angle_beta                 78.4680(10)
_cell_angle_gamma                88.4250(10)
_cell_volume                     423.776
loop_
_atom_site_label
_atom_site_type_symbol
_atom_site_fract_x
_atom_site_fract_y
_atom_site_fract_z
C1 C -0.01615(18) 0.20161(14) 0.84791(11)
C2 C 0.16493(18) 0.21799(14) 0.71962(11)
N1 N -0.05873(17) 0.34029(13) 0.92575(10)
N2 N -0.23083(17) 0.28186(13) 1.03048(10)
N3 N -0.28572(17) 0.11646(13) 1.01353(10)
N4 N -0.15266(16) 0.06170(12) 0.89662(10)
N5 N 0.29893(17) 0.04523(13) 0.68316(10)
N6 N 0.33932(16) 0.36231(13) 0.73184(10)
N7 N 0.06553(17) 0.28062(13) 0.58907(10)
O1 O 0.17672(17) -0.07832(12) 0.67095(10)
O2 O 0.51024(15) 0.04649(13) 0.66729(10)
O3 O 0.35977(17) 0.49108(12) 0.64679(10)
O4 O 0.44038(15) 0.33507(12) 0.82832(9)
O5 O -0.11231(15) 0.36946(13) 0.60877(10)
O6 O 0.17793(18) 0.23807(13) 0.47842(9)
Rb1 Rb 0.258928(18) 0.301000(13) 0.164839(11)
N1_2 N -0.05873(17) 0.34029(13) -0.07425(10)
N1A N 0.05873(17) 0.65971(13) 0.07425(10)
N2_2 N -0.23083(17) 0.28186(13) 0.03048(10)
N2_3 N 0.76917(17) 0.28186(13) 0.03048(10)
N3_2 N 0.71428(17) 0.11646(13) 0.01353(10)
N4A N 0.15266(16) -0.06170(12) 0.10338(10)
O1A O -0.17672(17) 0.07832(12) 0.32905(10)
O2A O 0.48976(15) -0.04649(13) 0.33271(10)
O4_2 O 0.44038(15) 0.33507(12) -0.17168(9)
O4A O 0.55962(15) 0.66493(12) 0.17168(9)
O5A O 0.11231(15) 0.63054(13) 0.39123(10)
Rb1_2 Rb -0.741072(18) 0.301000(13) 1.164839(11)
Rb1_3 Rb 0.258928(18) 0.301000(13) 1.164839(11)
Rb1A Rb -0.258928(18) -0.301000(13) 0.835161(11)
Rb1A_2 Rb -0.258928(18) 0.699000(13) 0.835161(11)
Rb1A_3 Rb 0.741072(18) -0.301000(13) 0.835161(11)
Rb1A_4 Rb 0.741072(18) 0.699000(13) 0.835161(11)
loop_
_geom_bond_atom_site_label_1
_geom_bond_atom_site_label_2
_geom_bond_site_symmetry_1
_geom_bond_site_symmetry_2
C1 C2 1_555 1_555
C2 N5 1_555 1_555
N1 C1 1_555 1_555
N2 N1 1_555 1_555
N3 N2 1_555 1_555
N4 C1 1_555 1_555
N5 O1 1_555 1_555
N6 C2 1_555 1_555
N7 C2 1_555 1_555
O1 Rb1A 1_555 1_555
O2 N5 1_555 1_555
O3 N6 1_555 1_555
O4 N6 1_555 1_555
O5 N7 1_555 1_555
O6 N7 1_555 1_555
Rb1 O6 1_555 1_555
N1_2 Rb1 1_555 1_555
N1A Rb1 1_555 1_555
N2_2 Rb1 1_555 1_555
N2_3 Rb1 1_555 1_555
N3_2 Rb1 1_555 1_555
N4A Rb1 1_555 1_555
O1A Rb1 1_555 1_555
O2A Rb1 1_555 1_555
O4_2 Rb1 1_555 1_555
O4A Rb1 1_555 1_555
O5A Rb1 1_555 1_555
Rb1_2 N2 1_555 1_555
Rb1_3 N1 1_555 1_555
Rb1A N4 1_555 1_555
Rb1A_2 N1 1_555 1_555
Rb1A_3 O2 1_555 1_555
Rb1A_4 O4 1_555 1_555
N2 Rb1_3 1_555 1_555
N3 N4 1_555 1_555
N3 Rb1_2 1_555 1_555
O4 Rb1_3 1_555 1_555
O5 Rb1A_2 1_555 1_555
N1_2 N2_2 1_555 1_555
N2_3 N3_2 1_555 1_555

#END
