
#######################################################################
#
#                 Cambridge Crystallographic Data Centre
#                                CCDC 
#
#######################################################################
#
# If this CIF has been generated from an entry in the Cambridge 
# Structural Database, then it will include bibliographic, chemical, 
# crystal, experimental, refinement or atomic coordinate data resulting 
# from the CCDC's data processing and validation procedures.
#
#######################################################################

data_WIKGED
_symmetry_cell_setting           monoclinic
_symmetry_space_group_name_H-M   'P 21/n'
_symmetry_Int_Tables_number      14
_space_group_name_Hall           '-P 2yn'
loop_
_symmetry_equiv_pos_site_id
_symmetry_equiv_pos_as_xyz
1 x,y,z
2 1/2-x,1/2+y,1/2-z
3 -x,-y,-z
4 1/2+x,1/2-y,1/2+z
_cell_length_a                   7.094(3)
_cell_length_b                   28.999(6)
_cell_length_c                   12.828(3)
_cell_angle_alpha                90
_cell_angle_beta                 92.61(3)
_cell_angle_gamma                90
_cell_volume                     2636.22
loop_
_atom_site_label
_atom_site_type_symbol
_atom_site_fract_x
_atom_site_fract_y
_atom_site_fract_z
Ag1 Ag 0.57875(9) 0.10670(2) 0.34573(5)
C1 C -0.0236(10) 0.0654(3) 0.3280(7)
H1 H -0.0656 0.0392 0.3663
H2 H -0.0524 0.0608 0.2549
C13 C 0.1876(11) 0.0665(3) 0.3551(7)
H8 H 0.2428 0.0374 0.3376
H9 H 0.2011 0.0712 0.4292
N3 N 0.2874(8) 0.1037(2) 0.3035(5)
H17 H 0.2339 0.1308 0.3194
H18 H 0.2732 0.0999 0.2339
N5 N -0.1222(8) 0.1067(2) 0.3635(5)
H21 H -0.0787 0.1312 0.3287
H22 H -0.0903 0.1109 0.4316
Ag1_2 Ag -0.42125(9) 0.10670(2) 0.34573(5)
N5_2 N 0.8778(8) 0.1067(2) 0.3635(5)
H21_2 H 0.9213 0.1312 0.3287
H22_2 H 0.9097 0.1109 0.4316
Ag2 Ag 0.59350(10) 0.21182(2) 0.33697(5)
C14 C 0.3930(11) 0.2531(3) 0.1400(6)
H10 H 0.3147 0.2702 0.1852
H11 H 0.5068 0.2700 0.1295
C16 C 0.2841(12) 0.2474(3) 0.0366(6)
H12 H 0.3581 0.2289 -0.0082
H13 H 0.1670 0.2320 0.0481
N2 N 0.4429(10) 0.2091(2) 0.1887(5)
H15 H 0.5132 0.1932 0.1445
H16 H 0.3359 0.1931 0.1965
N4 N 0.2451(10) 0.2915(2) -0.0153(5)
H19 H 0.1791 0.3092 0.0276
H20 H 0.3558 0.3058 -0.0244
Ag2C Ag 0.09350(10) 0.28818(2) -0.16303(5)
N4C N 0.7451(10) 0.2085(2) 0.4847(5)
H19C H 0.6791 0.1908 0.5276
H20C H 0.8558 0.1942 0.4756
C2 C 0.9133(12) 0.0496(3) 0.8037(8)
H3 H 0.9391 0.0216 0.7668
C3 C 0.8435(11) 0.1318(3) 0.9098(7)
C4 C 0.8713(13) 0.0487(3) 0.9064(8)
H4 H 0.8662 0.0196 0.9418
C5 C 0.8039(14) 0.1768(4) 0.9643(8)
C9 C 0.8884(11) 0.1319(3) 0.8061(7)
H7 H 0.8974 0.1607 0.7696
C11 C 0.9212(11) 0.0918(3) 0.7540(7)
C12 C 0.8355(12) 0.0890(4) 0.9607(7)
N1 N 0.9666(10) 0.0917(3) 0.6450(6)
O2 O 0.7994(11) 0.2129(2) 0.9140(6)
O3 O 0.9813(11) 0.0552(3) 0.5999(6)
O4 O 0.9799(10) 0.1292(3) 0.6019(5)
O7 O 0.7687(9) 0.1726(3) 1.0609(5)
O10 O 0.7889(10) 0.0859(3) 1.0595(5)
H25 H 0.7719 0.1130 1.0826
C6 C 0.3689(11) 0.0269(3) 0.8855(7)
H5 H 0.3462 0.0076 0.9443
C7 C 0.4384(11) 0.0371(3) 0.7061(7)
C8 C 0.4067(11) 0.0085(3) 0.7909(7)
H6 H 0.4116 -0.0244 0.7826
C10 C 0.3637(11) 0.0739(3) 0.8957(6)
C15 C 0.4337(11) 0.0853(3) 0.7177(7)
C17 C 0.3943(11) 0.1036(3) 0.8131(6)
H14 H 0.3879 0.1364 0.8224
C18 C 0.4744(13) 0.1160(4) 0.6266(7)
N6 N 0.3249(11) 0.0932(3) 0.9986(6)
O5 O 0.2920(10) 0.0662(2) 1.0692(5)
O6 O 0.3269(11) 0.1348(3) 1.0088(5)
O8 O 0.5188(10) 0.0961(2) 0.5441(5)
O9 O 0.4596(9) 0.1588(2) 0.6357(5)
O11 O 0.4743(9) 0.0173(2) 0.6157(5)
H26 H 0.4969 0.0382 0.5716
O1 O 0.2145(9) 0.1949(2) 0.4591(5)
H23 H 0.1788 0.1675 0.4715
H24 H 0.1496 0.2176 0.4788
O12 O 0.0209(10) 0.1842(2) 0.2285(5)
H29 H 0.0230 0.2162 0.2596
H30 H -0.0226 0.1877 0.1551
O13 O 0.4602(12) 0.22620(19) 0.7855(6)
H27 H 0.4759 0.1952 0.7427
H28 H 0.4476 0.2628 0.7971
loop_
_geom_bond_atom_site_label_1
_geom_bond_atom_site_label_2
_geom_bond_site_symmetry_1
_geom_bond_site_symmetry_2
Ag1 N3 1_555 1_555
Ag2 N2 1_555 1_555
C1 H1 1_555 1_555
H2 C1 1_555 1_555
C2 H3 1_555 1_555
C3 C5 1_555 1_555
C4 C2 1_555 1_555
H4 C4 1_555 1_555
C5 O2 1_555 1_555
C6 H5 1_555 1_555
C7 C8 1_555 1_555
C8 C6 1_555 1_555
H6 C8 1_555 1_555
C9 C3 1_555 1_555
H7 C9 1_555 1_555
C10 C6 1_555 1_555
C11 C2 1_555 1_555
C12 C3 1_555 1_555
C13 C1 1_555 1_555
H8 C13 1_555 1_555
H9 C13 1_555 1_555
C14 H10 1_555 1_555
H11 C14 1_555 1_555
C15 C7 1_555 1_555
C16 C14 1_555 1_555
H12 C16 1_555 1_555
H13 C16 1_555 1_555
C17 C10 1_555 1_555
H14 C17 1_555 1_555
C18 C15 1_555 1_555
N1 C11 1_555 1_555
N2 C14 1_555 1_555
H15 N2 1_555 1_555
H16 N2 1_555 1_555
N3 C13 1_555 1_555
H17 N3 1_555 1_555
H18 N3 1_555 1_555
N4 C16 1_555 1_555
H19 N4 1_555 1_555
H20 N4 1_555 1_555
N5 C1 1_555 1_555
H21 N5 1_555 1_555
H22 N5 1_555 1_555
N6 C10 1_555 1_555
O1 H23 1_555 1_555
H24 O1 1_555 1_555
O3 N1 1_555 1_555
O4 N1 1_555 1_555
O5 N6 1_555 1_555
O6 N6 1_555 1_555
O7 C5 1_555 1_555
O8 C18 1_555 1_555
O9 C18 1_555 1_555
O10 C12 1_555 1_555
H25 O10 1_555 1_555
O11 C7 1_555 1_555
H26 O11 1_555 1_555
O12 H29 1_555 1_555
O13 H27 1_555 1_555
H28 O13 1_555 1_555
H30 O12 1_555 1_555
Ag1_2 N5 1_555 1_555
Ag2C N4 1_555 1_555
N4C Ag2 1_555 1_555
H19C N4C 1_555 1_555
H20C N4C 1_555 1_555
N5_2 Ag1 1_555 1_555
H21_2 N5_2 1_555 1_555
H22_2 N5_2 1_555 1_555
C4 C12 1_555 1_555
C9 C11 1_555 1_555
C15 C17 1_555 1_555

#END
