
#######################################################################
#
#                 Cambridge Crystallographic Data Centre
#                                CCDC 
#
#######################################################################
#
# If this CIF has been generated from an entry in the Cambridge 
# Structural Database, then it will include bibliographic, chemical, 
# crystal, experimental, refinement or atomic coordinate data resulting 
# from the CCDC's data processing and validation procedures.
#
#######################################################################

data_WIKJIK
_symmetry_cell_setting           monoclinic
_symmetry_space_group_name_H-M   'P 21/c'
_symmetry_Int_Tables_number      14
_space_group_name_Hall           '-P 2ybc'
loop_
_symmetry_equiv_pos_site_id
_symmetry_equiv_pos_as_xyz
1 x,y,z
2 -x,1/2+y,1/2-z
3 -x,-y,-z
4 x,1/2-y,1/2+z
_cell_length_a                   8.7503(4)
_cell_length_b                   25.6708(10)
_cell_length_c                   6.9821(3)
_cell_angle_alpha                90
_cell_angle_beta                 103.6890(10)
_cell_angle_gamma                90
_cell_volume                     1523.82
loop_
_atom_site_label
_atom_site_type_symbol
_atom_site_fract_x
_atom_site_fract_y
_atom_site_fract_z
Cu1 Cu 0.91094(3) 0.151440(9) 0.82447(4)
S1 S 1.01316(6) 0.151570(19) 1.36279(7)
O1 O 0.89630(18) 0.13588(6) 1.1789(2)
O2 O 1.12277(18) 0.10885(6) 1.4307(2)
O3 O 1.09997(18) 0.19795(6) 1.3130(2)
O4 O 0.92950(19) 0.16738(7) 1.5121(2)
O5 O 1.06625(18) 0.20404(6) 0.9330(2)
N1 N 1.06002(19) 0.08974(7) 0.8557(3)
N2 N 0.76350(19) 0.09594(6) 0.7292(2)
N3 N 0.7059(2) 0.19176(7) 0.7811(3)
C1 C 1.2149(2) 0.09037(8) 0.9340(3)
H1 H 1.2631 0.1220 0.9877
C2 C 1.3081(2) 0.04612(9) 0.9395(3)
H2 H 1.4179 0.0475 0.9969
C3 C 1.2379(2) 0.00013(9) 0.8598(3)
H3 H 1.2993 -0.0304 0.8608
C4 C 1.0764(2) -0.00086(8) 0.7784(3)
H4 H 1.0258 -0.0320 0.7234
C5 C 0.9912(2) 0.04468(8) 0.7793(3)
C6 C 0.8188(2) 0.04866(8) 0.7028(3)
C7 C 0.7174(2) 0.00939(8) 0.6132(3)
H5 H 0.7567 -0.0243 0.5955
C8 C 0.5560(2) 0.02025(8) 0.5493(3)
C9 C 0.5024(2) 0.07036(8) 0.5797(3)
H6 H 0.3939 0.0788 0.5383
C10 C 0.6106(2) 0.10750(8) 0.6712(3)
C11 C 0.5762(2) 0.16214(8) 0.7120(3)
C12 C 0.4251(2) 0.18230(8) 0.6814(3)
H7 H 0.3358 0.1607 0.6355
C13 C 0.4079(3) 0.23490(9) 0.7195(3)
H8 H 0.3059 0.2497 0.7017
C14 C 0.5400(3) 0.26551(9) 0.7834(3)
H9 H 0.5301 0.3018 0.8052
C15 C 0.6882(2) 0.24245(8) 0.8156(3)
H10 H 0.7790 0.2633 0.8632
H11 H 1.061(4) 0.2329(13) 0.886(5)
H12 H 1.076(5) 0.2048(16) 1.044(6)
Cu1_2 Cu 0.91094(3) 0.151440(9) -0.17553(4)
Cu1_3 Cu 0.91094(3) 0.151440(9) 1.82447(4)
Cu1B Cu 0.08906(3) -0.151440(9) 0.17553(4)
S1_2 S 1.01316(6) 0.151570(19) 0.36279(7)
O1_2 O 0.89630(18) 0.13588(6) 0.1789(2)
O2_2 O 1.12277(18) 0.10885(6) 0.4307(2)
O3_2 O 1.09997(18) 0.19795(6) 0.3130(2)
O4_2 O 0.92950(19) 0.16738(7) 0.5121(2)
O4_3 O 0.92950(19) 0.16738(7) -0.4879(2)
O5_2 O 1.06625(18) 0.20404(6) -0.0670(2)
N1B N -0.06002(19) -0.08974(7) 0.1443(3)
N1_2 N 1.06002(19) 0.08974(7) -0.1443(3)
N2B N 0.23650(19) -0.09594(6) 0.2708(2)
N2_2 N 0.76350(19) 0.09594(6) -0.2708(2)
N3B N 0.2941(2) -0.19176(7) 0.2189(3)
N3_2 N 0.7059(2) 0.19176(7) -0.2189(3)
C1B C -0.2149(2) -0.09037(8) 0.0660(3)
H1B H -0.2631 -0.1220 0.0123
C2B C -0.3081(2) -0.04612(9) 0.0605(3)
H2B H -0.4179 -0.0475 0.0031
C3B C -0.2379(2) -0.00013(9) 0.1402(3)
H3B H -0.2993 0.0304 0.1392
C4B C -0.0764(2) 0.00086(8) 0.2216(3)
H4B H -0.0258 0.0320 0.2766
C5B C 0.0088(2) -0.04468(8) 0.2207(3)
C6B C 0.1812(2) -0.04866(8) 0.2972(3)
C7B C 0.2826(2) -0.00939(8) 0.3868(3)
H5B H 0.2433 0.0243 0.4045
C8B C 0.4440(2) -0.02025(8) 0.4507(3)
C9B C 0.4976(2) -0.07036(8) 0.4203(3)
H6B H 0.6061 -0.0788 0.4617
C10B C 0.3894(2) -0.10750(8) 0.3288(3)
C11B C 0.4238(2) -0.16214(8) 0.2880(3)
C12B C 0.5749(2) -0.18230(8) 0.3186(3)
H7B H 0.6642 -0.1607 0.3645
C13B C 0.5921(3) -0.23490(9) 0.2805(3)
H8B H 0.6941 -0.2497 0.2983
C14B C 0.4600(3) -0.26551(9) 0.2166(3)
H9B H 0.4699 -0.3018 0.1948
C15B C 0.3118(2) -0.24245(8) 0.1844(3)
H10B H 0.2210 -0.2633 0.1368
H11_2 H 1.061(4) 0.2329(13) -0.114(5)
H12_2 H 1.076(5) 0.2048(16) 0.044(6)
O6 O 0.61925(19) 0.11549(6) 0.1733(3)
loop_
_geom_bond_atom_site_label_1
_geom_bond_atom_site_label_2
_geom_bond_site_symmetry_1
_geom_bond_site_symmetry_2
Cu1 O1 1_555 1_555
S1 O1 1_555 1_555
O2 S1 1_555 1_555
O3 S1 1_555 1_555
O4 S1 1_555 1_555
O5 Cu1 1_555 1_555
N1 Cu1 1_555 1_555
N2 Cu1 1_555 1_555
N3 Cu1 1_555 1_555
C1 N1 1_555 1_555
H1 C1 1_555 1_555
C2 C1 1_555 1_555
H2 C2 1_555 1_555
C3 C2 1_555 1_555
H3 C3 1_555 1_555
C4 C3 1_555 1_555
H4 C4 1_555 1_555
C5 N1 1_555 1_555
C6 N2 1_555 1_555
C7 C6 1_555 1_555
H5 C7 1_555 1_555
C8 C7 1_555 1_555
C9 C8 1_555 1_555
H6 C9 1_555 1_555
C10 N2 1_555 1_555
C11 N3 1_555 1_555
C12 C11 1_555 1_555
H7 C12 1_555 1_555
C13 C12 1_555 1_555
H8 C13 1_555 1_555
C14 C13 1_555 1_555
H9 C14 1_555 1_555
C15 N3 1_555 1_555
H10 C15 1_555 1_555
H11 O5 1_555 1_555
H12 O5 1_555 1_555
Cu1_2 O1_2 1_555 1_555
Cu1_3 O4 1_555 1_555
Cu1B N1B 1_555 1_555
S1_2 O1_2 1_555 1_555
O2_2 S1_2 1_555 1_555
O3_2 S1_2 1_555 1_555
O4_2 Cu1 1_555 1_555
O4_3 Cu1_2 1_555 1_555
O5_2 Cu1_2 1_555 1_555
N1B C1B 1_555 1_555
N1_2 Cu1_2 1_555 1_555
N2B Cu1B 1_555 1_555
N2_2 Cu1_2 1_555 1_555
N3B Cu1B 1_555 1_555
N3_2 Cu1_2 1_555 1_555
C1B H1B 1_555 1_555
C2B C1B 1_555 1_555
H2B C2B 1_555 1_555
C3B C2B 1_555 1_555
H3B C3B 1_555 1_555
C4B C3B 1_555 1_555
H4B C4B 1_555 1_555
C5B N1B 1_555 1_555
C6B N2B 1_555 1_555
C7B C6B 1_555 1_555
H5B C7B 1_555 1_555
C8B C8 1_555 1_555
C9B C8B 1_555 1_555
H6B C9B 1_555 1_555
C10B N2B 1_555 1_555
C11B N3B 1_555 1_555
C12B C11B 1_555 1_555
H7B C12B 1_555 1_555
C13B C12B 1_555 1_555
H8B C13B 1_555 1_555
C14B C13B 1_555 1_555
H9B C14B 1_555 1_555
C15B N3B 1_555 1_555
H10B C15B 1_555 1_555
H11_2 O5_2 1_555 1_555
H12_2 O5_2 1_555 1_555
C4 C5 1_555 1_555
C5 C6 1_555 1_555
C9 C10 1_555 1_555
C10 C11 1_555 1_555
C14 C15 1_555 1_555
S1_2 O4_2 1_555 1_555
C4B C5B 1_555 1_555
C5B C6B 1_555 1_555
C7B C8B 1_555 1_555
C9B C10B 1_555 1_555
C10B C11B 1_555 1_555
C14B C15B 1_555 1_555

#END
