
#######################################################################
#
#                 Cambridge Crystallographic Data Centre
#                                CCDC 
#
#######################################################################
#
# If this CIF has been generated from an entry in the Cambridge 
# Structural Database, then it will include bibliographic, chemical, 
# crystal, experimental, refinement or atomic coordinate data resulting 
# from the CCDC's data processing and validation procedures.
#
#######################################################################

data_WIKKOS
_symmetry_cell_setting           orthorhombic
_symmetry_space_group_name_H-M   'P n n m'
_symmetry_Int_Tables_number      58
_space_group_name_Hall           '-P 2 2n'
loop_
_symmetry_equiv_pos_site_id
_symmetry_equiv_pos_as_xyz
1 x,y,z
2 1/2+x,1/2-y,1/2-z
3 1/2-x,1/2+y,1/2-z
4 -x,-y,z
5 -x,-y,-z
6 1/2-x,1/2+y,1/2+z
7 1/2+x,1/2-y,1/2+z
8 x,y,-z
_cell_length_a                   11.78396(18)
_cell_length_b                   13.56871(17)
_cell_length_c                   3.61331(5)
_cell_angle_alpha                90
_cell_angle_beta                 90
_cell_angle_gamma                90
_cell_volume                     577.743
loop_
_atom_site_label
_atom_site_type_symbol
_atom_site_fract_x
_atom_site_fract_y
_atom_site_fract_z
Ni1 Ni 0.50000 0.50000 0.00000
Cl1 Cl 0.35739(19) 0.4978(6) 0.50000
N1 N 0.5095(5) 0.6568(4) 0.00000
C1 C 0.6008(7) 0.7176(4) 0.00000
C2 C 0.5881(6) 0.8194(5) 0.00000
C3 C 0.4762(4) 0.8599(3) 0.00000
C4 C 0.3826(6) 0.7963(4) 0.00000
C5 C 0.4017(6) 0.6951(5) 0.00000
C6 C 0.4559(5) 0.9681(4) 0.00000
N1C N 0.4905(5) 1.3432(4) 0.00000
C1C C 0.3992(7) 1.2824(4) 0.00000
C2C C 0.4119(6) 1.1806(5) 0.00000
C3C C 0.5238(4) 1.1401(3) 0.00000
C4C C 0.6174(6) 1.2037(4) 0.00000
C5C C 0.5983(6) 1.3049(5) 0.00000
C6C C 0.5441(5) 1.0319(4) 0.00000
Cl1C Cl 0.64261(19) 0.5022(6) 0.50000
Ni1_2 Ni 0.50000 0.50000 1.00000
Ni1_3 Ni 0.50000 1.50000 0.00000
Cl1_2 Cl 0.35739(19) 0.4978(6) -0.50000
Cl1C_2 Cl 0.64261(19) 0.5022(6) -0.50000
N1C_2 N 0.4905(5) 0.3432(4) 0.00000
loop_
_geom_bond_atom_site_label_1
_geom_bond_atom_site_label_2
_geom_bond_site_symmetry_1
_geom_bond_site_symmetry_2
Ni1 Cl1 1_555 1_555
Cl1 Ni1_2 1_555 1_555
N1 Ni1 1_555 1_555
C1 N1 1_555 1_555
C2 C1 1_555 1_555
C3 C2 1_555 1_555
C4 C3 1_555 1_555
C5 N1 1_555 1_555
C6 C3 1_555 1_555
N1C C1C 1_555 1_555
C1C C2C 1_555 1_555
C2C C3C 1_555 1_555
C3C C4C 1_555 1_555
C4C C5C 1_555 1_555
C5C N1C 1_555 1_555
C6C C6 1_555 1_555
Cl1C Ni1 1_555 1_555
Ni1_2 Cl1C 1_555 1_555
Ni1_3 N1C 1_555 1_555
Cl1_2 Ni1 1_555 1_555
Cl1C_2 Ni1 1_555 1_555
N1C_2 Ni1 1_555 1_555
C4 C5 1_555 1_555
C3C C6C 1_555 1_555

#END
