
#######################################################################
#
#                 Cambridge Crystallographic Data Centre
#                                CCDC 
#
#######################################################################
#
# If this CIF has been generated from an entry in the Cambridge 
# Structural Database, then it will include bibliographic, chemical, 
# crystal, experimental, refinement or atomic coordinate data resulting 
# from the CCDC's data processing and validation procedures.
#
#######################################################################

data_WIKLOT
_symmetry_cell_setting           monoclinic
_symmetry_space_group_name_H-M   'C 2/c'
_symmetry_Int_Tables_number      15
_space_group_name_Hall           '-C 2yn'
loop_
_symmetry_equiv_pos_site_id
_symmetry_equiv_pos_as_xyz
1 x,y,z
2 -x,y,1/2-z
3 1/2+x,1/2+y,z
4 1/2-x,1/2+y,1/2-z
5 -x,-y,-z
6 x,-y,1/2+z
7 1/2-x,1/2-y,-z
8 1/2+x,1/2-y,1/2+z
_cell_length_a                   25.4936(10)
_cell_length_b                   11.6771(5)
_cell_length_c                   13.4533(5)
_cell_angle_alpha                90
_cell_angle_beta                 93.6380(10)
_cell_angle_gamma                90
_cell_volume                     3996.86
loop_
_atom_site_label
_atom_site_type_symbol
_atom_site_fract_x
_atom_site_fract_y
_atom_site_fract_z
U1 U 0.307140(7) 0.050744(17) 0.054968(13)
P1 P 0.33630(5) 0.09996(13) 0.32221(10)
P2 P 0.24016(5) 0.28532(12) 0.16068(10)
P3 P 0.44522(6) -0.03021(13) 0.12008(11)
O1 O 0.26738(15) -0.0739(3) 0.0575(3)
O2 O 0.34665(14) 0.1762(3) 0.0547(3)
O3 O 0.34268(15) 0.0283(3) 0.4145(3)
O4 O 0.31649(15) 0.0305(3) 0.2330(3)
O5 O 0.39009(14) 0.1601(3) 0.3029(3)
H1 H 0.4065 0.1204 0.2653
O6 O 0.18739(14) 0.2998(3) 0.2157(3)
H2 H 0.1842 0.3668 0.2326
O7 O 0.24478(14) 0.3777(3) 0.0826(2)
O8 O 0.24051(14) 0.1635(3) 0.1240(3)
O9 O 0.47293(15) -0.1365(3) 0.1659(3)
O10 O 0.38694(15) -0.0481(3) 0.1068(3)
O11 O 0.45898(15) 0.0744(3) 0.1880(3)
H3 H 0.4859 0.0609 0.2226
C1 C 0.2942(2) 0.2201(5) 0.3410(4)
H4 H 0.2590 0.1920 0.3494
H5 H 0.3063 0.2583 0.4023
C2 C 0.2918(2) 0.3088(5) 0.2556(4)
H6 H 0.3251 0.3083 0.2248
H7 H 0.2873 0.3843 0.2839
C3 C 0.4699(2) -0.0039(6) -0.0009(4)
H8 H 0.4581 -0.0651 -0.0457
H9 H 0.4550 0.0671 -0.0272
P3D P 0.55478(6) 0.03021(13) -0.12008(11)
O9D O 0.52707(15) 0.1365(3) -0.1659(3)
O10D O 0.61306(15) 0.0481(3) -0.1068(3)
O11D O 0.54102(15) -0.0744(3) -0.1880(3)
H3D H 0.5141 -0.0609 -0.2226
C3D C 0.5301(2) 0.0039(6) 0.0009(4)
H8D H 0.5419 0.0651 0.0457
H9D H 0.5450 -0.0671 0.0272
U1D U 0.692860(7) -0.050744(17) -0.054968(13)
P1D P 0.66370(5) -0.09996(13) -0.32221(10)
P2D P 0.75984(5) -0.28532(12) -0.16068(10)
O1D O 0.73262(15) 0.0739(3) -0.0575(3)
O2D O 0.65335(14) -0.1762(3) -0.0547(3)
O3D O 0.65732(15) -0.0283(3) -0.4145(3)
O4D O 0.68351(15) -0.0305(3) -0.2330(3)
O5D O 0.60991(14) -0.1601(3) -0.3029(3)
H1D H 0.5935 -0.1204 -0.2653
O6D O 0.81261(14) -0.2998(3) -0.2157(3)
H2D H 0.8158 -0.3668 -0.2326
O7D O 0.75522(14) -0.3777(3) -0.0826(2)
O8D O 0.75949(14) -0.1635(3) -0.1240(3)
C1D C 0.7058(2) -0.2201(5) -0.3410(4)
H4D H 0.7410 -0.1920 -0.3494
H5D H 0.6937 -0.2583 -0.4023
C2D C 0.7082(2) -0.3088(5) -0.2556(4)
H6D H 0.6749 -0.3083 -0.2248
H7D H 0.7127 -0.3843 -0.2839
U1A U 0.692860(7) 0.050744(17) -0.554968(13)
U1B U 0.807140(7) -0.449256(17) 0.054968(13)
U1E U 0.307140(7) -0.050744(17) 0.554968(13)
U1F U 0.192860(7) 0.449256(17) -0.054968(13)
O3A O 0.65732(15) 0.0283(3) 0.0855(3)
O3E O 0.34268(15) -0.0283(3) -0.0855(3)
O7B O 0.74478(14) -0.1223(3) 0.0826(2)
O7F O 0.25522(14) 0.1223(3) -0.0826(2)
N1 N 0.06985(17) -0.1562(4) -0.1129(3)
H10 H 0.0508 -0.2164 -0.1226
N2 N -0.03616(18) -0.1489(4) -0.1384(3)
C4 C 0.1219(2) -0.1693(5) -0.0974(4)
H11 H 0.1369 -0.2419 -0.0983
C5 C 0.1536(2) -0.0731(6) -0.0799(4)
H12 H 0.1897 -0.0810 -0.0681
C6 C 0.1307(2) 0.0336(5) -0.0804(4)
H13 H 0.1516 0.0979 -0.0679
C7 C 0.0765(2) 0.0463(5) -0.0995(4)
C8 C 0.0499(2) 0.1538(5) -0.1045(4)
H14 H 0.0693 0.2207 -0.0951
C9 C -0.0024(2) 0.1610(5) -0.1223(4)
H15 H -0.0184 0.2325 -0.1271
C10 C -0.0339(2) 0.0596(5) -0.1341(4)
C11 C -0.0891(2) 0.0612(5) -0.1495(4)
H16 H -0.1072 0.1303 -0.1547
C12 C -0.1159(2) -0.0414(6) -0.1567(4)
H17 H -0.1524 -0.0426 -0.1658
C13 C -0.0876(2) -0.1429(6) -0.1501(4)
H18 H -0.1063 -0.2112 -0.1542
C14 C -0.0096(2) -0.0481(5) -0.1301(4)
C15 C 0.0460(2) -0.0540(5) -0.1140(4)
loop_
_geom_bond_atom_site_label_1
_geom_bond_atom_site_label_2
_geom_bond_site_symmetry_1
_geom_bond_site_symmetry_2
U1 O1 1_555 1_555
P1 O3 1_555 1_555
P2 O6 1_555 1_555
P3 O9 1_555 1_555
O2 U1 1_555 1_555
O3 U1E 1_555 1_555
O4 U1 1_555 1_555
O5 P1 1_555 1_555
H1 O5 1_555 1_555
O6 H2 1_555 1_555
O7 P2 1_555 1_555
O8 U1 1_555 1_555
O10 U1 1_555 1_555
O11 P3 1_555 1_555
H3 O11 1_555 1_555
C1 P1 1_555 1_555
H4 C1 1_555 1_555
H5 C1 1_555 1_555
C2 P2 1_555 1_555
H6 C2 1_555 1_555
H7 C2 1_555 1_555
C3 P3 1_555 1_555
H8 C3 1_555 1_555
H9 C3 1_555 1_555
N1 H10 1_555 1_555
N2 C13 1_555 1_555
C4 N1 1_555 1_555
H11 C4 1_555 1_555
C5 C4 1_555 1_555
H12 C5 1_555 1_555
C6 C5 1_555 1_555
H13 C6 1_555 1_555
C7 C6 1_555 1_555
C8 C7 1_555 1_555
H14 C8 1_555 1_555
C9 C8 1_555 1_555
H15 C9 1_555 1_555
C10 C9 1_555 1_555
C11 C10 1_555 1_555
H16 C11 1_555 1_555
C12 C11 1_555 1_555
H17 C12 1_555 1_555
C13 C12 1_555 1_555
H18 C13 1_555 1_555
C14 N2 1_555 1_555
C15 N1 1_555 1_555
P3D O9D 1_555 1_555
O10D P3D 1_555 1_555
O11D P3D 1_555 1_555
H3D O11D 1_555 1_555
C3D C3 1_555 1_555
H8D C3D 1_555 1_555
H9D C3D 1_555 1_555
U1D O10D 1_555 1_555
P1D O3D 1_555 1_555
P2D O6D 1_555 1_555
O1D U1D 1_555 1_555
O2D U1D 1_555 1_555
O3D U1A 1_555 1_555
O4D U1D 1_555 1_555
O5D P1D 1_555 1_555
H1D O5D 1_555 1_555
O6D H2D 1_555 1_555
O7D P2D 1_555 1_555
O8D U1D 1_555 1_555
C1D P1D 1_555 1_555
H4D C1D 1_555 1_555
H5D C1D 1_555 1_555
C2D P2D 1_555 1_555
H6D C2D 1_555 1_555
H7D C2D 1_555 1_555
U1B O7D 1_555 1_555
U1F O7 1_555 1_555
O3A U1D 1_555 1_555
O3E U1 1_555 1_555
O7B U1D 1_555 1_555
O7F U1 1_555 1_555
P1 O4 1_555 1_555
P2 O8 1_555 1_555
P3 O10 1_555 1_555
C1 C2 1_555 1_555
C7 C15 1_555 1_555
C10 C14 1_555 1_555
C14 C15 1_555 1_555
P3D C3D 1_555 1_555
P1D O4D 1_555 1_555
P2D O8D 1_555 1_555
C1D C2D 1_555 1_555

#END
