
#######################################################################
#
#                 Cambridge Crystallographic Data Centre
#                                CCDC 
#
#######################################################################
#
# If this CIF has been generated from an entry in the Cambridge 
# Structural Database, then it will include bibliographic, chemical, 
# crystal, experimental, refinement or atomic coordinate data resulting 
# from the CCDC's data processing and validation procedures.
#
#######################################################################

data_WIKLAF
_symmetry_cell_setting           triclinic
_symmetry_space_group_name_H-M   'P -1'
_symmetry_Int_Tables_number      2
_space_group_name_Hall           '-P 1'
loop_
_symmetry_equiv_pos_site_id
_symmetry_equiv_pos_as_xyz
1 x,y,z
2 -x,-y,-z
_cell_length_a                   8.4769(8)
_cell_length_b                   9.7317(9)
_cell_length_c                   14.7070(15)
_cell_angle_alpha                83.8480(10)
_cell_angle_beta                 85.1580(10)
_cell_angle_gamma                89.3040(10)
_cell_volume                     1201.95
loop_
_atom_site_label
_atom_site_type_symbol
_atom_site_fract_x
_atom_site_fract_y
_atom_site_fract_z
U1 U 0.0000 0.5000 0.5000
U2 U -0.00862(3) 0.61681(2) 0.832030(15)
P1 P 0.2733(2) 0.65328(18) 0.63720(11)
P2 P 0.7292(2) 0.45347(18) 0.69739(11)
P3 P 0.26738(19) 0.60380(17) 1.00212(11)
O1 O 0.0860(6) 0.3350(5) 0.4826(3)
O2 O 0.0845(6) 0.4539(5) 0.8202(3)
O3 O -0.0996(5) 0.7814(5) 0.8406(3)
O4 O 0.2069(6) 0.5449(5) 0.5829(3)
O5 O 0.3519(6) 0.7746(5) 0.5733(3)
H1 H 0.3047 0.7884 0.5268
O6 O 0.1488(6) 0.7093(5) 0.7049(3)
O7 O 0.8012(6) 0.5738(5) 0.7397(3)
O8 O 0.6660(6) 0.3389(5) 0.7683(3)
O9 O 0.8518(6) 0.3982(5) 0.6254(3)
O10 O 0.1864(5) 0.6751(5) 0.9210(3)
O11 O 0.1741(6) 0.4799(5) 1.0497(3)
O12 O 0.2967(6) 0.7119(5) 1.0680(3)
H2 H 0.3060 0.6728 1.1195
C1 C 0.4336(8) 0.5784(7) 0.6979(4)
H3 H 0.4758 0.6474 0.7322
H4 H 0.3933 0.5027 0.7416
C2 C 0.5675(8) 0.5246(7) 0.6349(5)
H5 H 0.6067 0.5996 0.5903
H6 H 0.5263 0.4538 0.6018
C3 C 0.4565(8) 0.5386(7) 0.9614(4)
H7 H 0.4414 0.4766 0.9154
H8 H 0.5214 0.6150 0.9323
P3A P 0.73262(19) 0.39620(17) 0.99788(11)
O10A O 0.8136(5) 0.3249(5) 1.0790(3)
O11A O 0.8259(6) 0.5201(5) 0.9503(3)
O12A O 0.7033(6) 0.2881(5) 0.9320(3)
H2A H 0.6940 0.3272 0.8805
C3A C 0.5435(8) 0.4614(7) 1.0386(4)
H7A H 0.5586 0.5234 1.0846
H8A H 0.4786 0.3850 1.0677
U2A U 0.00862(3) 0.38319(2) 0.167970(15)
P1A P -0.2733(2) 0.34672(18) 0.36280(11)
P2A P -0.7292(2) 0.54653(18) 0.30261(11)
O1A O -0.0860(6) 0.6650(5) 0.5174(3)
O2A O -0.0845(6) 0.5461(5) 0.1798(3)
O3A O 0.0996(5) 0.2186(5) 0.1594(3)
O4A O -0.2069(6) 0.4551(5) 0.4171(3)
O5A O -0.3519(6) 0.2254(5) 0.4267(3)
H1A H -0.3047 0.2116 0.4732
O6A O -0.1488(6) 0.2907(5) 0.2951(3)
O7A O -0.8012(6) 0.4262(5) 0.2603(3)
O8A O -0.6660(6) 0.6611(5) 0.2317(3)
O9A O -0.8518(6) 0.6018(5) 0.3746(3)
C1A C -0.4336(8) 0.4216(7) 0.3021(4)
H3A H -0.4758 0.3526 0.2678
H4A H -0.3933 0.4973 0.2584
C2A C -0.5675(8) 0.4754(7) 0.3651(5)
H5A H -0.6067 0.4004 0.4097
H6A H -0.5263 0.5462 0.3982
U1_2 U -1.0000 0.5000 0.5000
U1_3 U 1.0000 0.5000 0.5000
U2_2 U 0.99138(3) 0.61681(2) 0.832030(15)
U2A_2 U -0.99138(3) 0.38319(2) 0.167970(15)
U2A_3 U 0.00862(3) 0.38319(2) 1.167970(15)
U2A_4 U 1.00862(3) 0.38319(2) 1.167970(15)
O7_2 O -0.1988(6) 0.5738(5) 0.7397(3)
O7A_2 O 0.1988(6) 0.4262(5) 0.2603(3)
O9_2 O -0.1482(6) 0.3982(5) 0.6254(3)
O9A_2 O 0.1482(6) 0.6018(5) 0.3746(3)
O10A_2 O -0.1864(5) 0.3249(5) 0.0790(3)
O11_2 O 0.1741(6) 0.4799(5) 0.0497(3)
O11A_2 O -0.1741(6) 0.5201(5) 0.9503(3)
O13 O 0.0852(17) 0.0878(14) 0.3929(10)
O14 O 0.2479(8) 0.8551(7) 0.4212(4)
C4 C 0.1249(8) 0.0271(8) 0.7902(6)
H9 H 0.1217 -0.0258 0.7381
H10 H 0.1040 -0.0364 0.8453
C5 C -0.0064(9) 0.1315(9) 0.7865(7)
H11 H -0.1058 0.0850 0.7870
H12 H 0.0101 0.1936 0.7313
H13 H -0.0078 0.1828 0.8388
C6 C 0.3354(9) 0.1839(7) 0.7042(5)
H14 H 0.2639 0.2624 0.7051
H15 H 0.4416 0.2180 0.7074
C7 C 0.3287(12) 0.1240(10) 0.6128(6)
H16 H 0.3564 0.1943 0.5633
H17 H 0.2235 0.0917 0.6079
H18 H 0.4020 0.0483 0.6098
C8 C 0.3056(10) 0.1640(8) 0.8716(6)
H19 H 0.4134 0.1973 0.8697
H20 H 0.2369 0.2443 0.8652
C9 C 0.2646(13) 0.0864(11) 0.9632(7)
H21 H 0.2761 0.1459 1.0102
H22 H 0.3342 0.0083 0.9715
H23 H 0.1571 0.0550 0.9668
C10 C 0.4020(8) -0.0409(7) 0.7936(5)
H24 H 0.3673 -0.1038 0.8470
H25 H 0.3909 -0.0885 0.7398
C11 C 0.5751(9) -0.0101(8) 0.7978(6)
H26 H 0.6346 -0.0948 0.7994
H27 H 0.5888 0.0336 0.8521
H28 H 0.6121 0.0505 0.7447
N1 N 0.2925(7) 0.0832(6) 0.7898(4)
loop_
_geom_bond_atom_site_label_1
_geom_bond_atom_site_label_2
_geom_bond_site_symmetry_1
_geom_bond_site_symmetry_2
U1 O1 1_555 1_555
U2 O2 1_555 1_555
P1 O4 1_555 1_555
P2 O7 1_555 1_555
P3 O10 1_555 1_555
O3 U2 1_555 1_555
O4 U1 1_555 1_555
O5 P1 1_555 1_555
H1 O5 1_555 1_555
O6 U2 1_555 1_555
O7 U2_2 1_555 1_555
O8 P2 1_555 1_555
O9 P2 1_555 1_555
O10 U2 1_555 1_555
O11 P3 1_555 1_555
O12 P3 1_555 1_555
H2 O12 1_555 1_555
C1 P1 1_555 1_555
H3 C1 1_555 1_555
H4 C1 1_555 1_555
C2 P2 1_555 1_555
H5 C2 1_555 1_555
H6 C2 1_555 1_555
C3 P3 1_555 1_555
H7 C3 1_555 1_555
H8 C3 1_555 1_555
C4 H9 1_555 1_555
H10 C4 1_555 1_555
C5 C4 1_555 1_555
H11 C5 1_555 1_555
H12 C5 1_555 1_555
H13 C5 1_555 1_555
C6 H14 1_555 1_555
H15 C6 1_555 1_555
C7 C6 1_555 1_555
H16 C7 1_555 1_555
H17 C7 1_555 1_555
H18 C7 1_555 1_555
C8 H19 1_555 1_555
H20 C8 1_555 1_555
C9 C8 1_555 1_555
H21 C9 1_555 1_555
H22 C9 1_555 1_555
H23 C9 1_555 1_555
C10 H24 1_555 1_555
H25 C10 1_555 1_555
C11 C10 1_555 1_555
H26 C11 1_555 1_555
H27 C11 1_555 1_555
H28 C11 1_555 1_555
N1 C4 1_555 1_555
P3A O10A 1_555 1_555
O10A U2A_4 1_555 1_555
O11A P3A 1_555 1_555
O12A P3A 1_555 1_555
H2A O12A 1_555 1_555
C3A C3 1_555 1_555
H7A C3A 1_555 1_555
H8A C3A 1_555 1_555
U2A O2A 1_555 1_555
P1A O4A 1_555 1_555
P2A O7A 1_555 1_555
O1A U1 1_555 1_555
O3A U2A 1_555 1_555
O4A U1 1_555 1_555
O5A P1A 1_555 1_555
H1A O5A 1_555 1_555
O6A U2A 1_555 1_555
O7A U2A_2 1_555 1_555
O8A P2A 1_555 1_555
O9A P2A 1_555 1_555
C1A P1A 1_555 1_555
H3A C1A 1_555 1_555
H4A C1A 1_555 1_555
C2A P2A 1_555 1_555
H5A C2A 1_555 1_555
H6A C2A 1_555 1_555
U1_2 O9A 1_555 1_555
U1_3 O9 1_555 1_555
U2_2 O11A 1_555 1_555
U2A_3 O11 1_555 1_555
O7_2 U2 1_555 1_555
O7A_2 U2A 1_555 1_555
O9_2 U1 1_555 1_555
O9A_2 U1 1_555 1_555
O10A_2 U2A 1_555 1_555
O11_2 U2A 1_555 1_555
O11A_2 U2 1_555 1_555
P1 O6 1_555 1_555
C1 C2 1_555 1_555
C6 N1 1_555 1_555
C8 N1 1_555 1_555
C10 N1 1_555 1_555
P3A C3A 1_555 1_555
P1A O6A 1_555 1_555
C1A C2A 1_555 1_555

#END
