
#######################################################################
#
#                 Cambridge Crystallographic Data Centre
#                                CCDC 
#
#######################################################################
#
# If this CIF has been generated from an entry in the Cambridge 
# Structural Database, then it will include bibliographic, chemical, 
# crystal, experimental, refinement or atomic coordinate data resulting 
# from the CCDC's data processing and validation procedures.
#
#######################################################################

data_WIKWOD
_symmetry_cell_setting           rhombohedral
_symmetry_space_group_name_H-M   'R -3'
_symmetry_Int_Tables_number      148
_space_group_name_Hall           '-R 3'
loop_
_symmetry_equiv_pos_site_id
_symmetry_equiv_pos_as_xyz
1 x,y,z
2 -y,x-y,z
3 -x+y,-x,z
4 2/3+x,1/3+y,1/3+z
5 2/3-y,1/3+x-y,1/3+z
6 2/3-x+y,1/3-x,1/3+z
7 1/3+x,2/3+y,2/3+z
8 1/3-y,2/3+x-y,2/3+z
9 1/3-x+y,2/3-x,2/3+z
10 -x,-y,-z
11 y,-x+y,-z
12 x-y,x,-z
13 1/3-x,2/3-y,2/3-z
14 1/3+y,2/3-x+y,2/3-z
15 1/3+x-y,2/3+x,2/3-z
16 2/3-x,1/3-y,1/3-z
17 2/3+y,1/3-x+y,1/3-z
18 2/3+x-y,1/3+x,1/3-z
_cell_length_a                   19.552(8)
_cell_length_b                   19.552(8)
_cell_length_c                   21.204(10)
_cell_angle_alpha                90
_cell_angle_beta                 90
_cell_angle_gamma                120.00
_cell_volume                     7019.9
loop_
_atom_site_label
_atom_site_type_symbol
_atom_site_fract_x
_atom_site_fract_y
_atom_site_fract_z
Ni1 Ni 0.8333 0.6667 0.1667
S1 S 0.55581(10) 0.54384(12) 0.13143(10)
O1 O 0.8656(2) 0.7867(2) 0.15610(18)
N1 N 0.8167(3) 0.8274(3) 0.2349(3)
H1 H 0.8247 0.8677 0.2586
N2 N 0.7194(3) 0.6240(3) 0.1398(2)
N3 N 0.8024(3) 0.6645(3) 0.2630(2)
C1 C 0.6514(4) 0.5903(3) 0.1370(3)
C2 C 0.9368(3) 0.9233(3) 0.1848(3)
C3 C 1.0130(3) 0.9363(3) 0.1844(3)
H2 H 1.0221 0.8929 0.1837
C4 C 0.8693(3) 0.8388(4) 0.1901(3)
C5 C 0.7467(3) 0.7510(3) 0.2461(3)
H3 H 0.7257 0.7240 0.2053
H4 H 0.7055 0.7590 0.2662
C6 C 0.7639(3) 0.6996(3) 0.2876(3)
C7 C 0.7426(4) 0.6911(4) 0.3499(4)
H5 H 0.7146 0.7154 0.3659
C8 C 0.7619(5) 0.6472(5) 0.3891(4)
H6 H 0.7471 0.6408 0.4323
C9 C 0.8026(5) 0.6130(5) 0.3654(3)
H7 H 0.8174 0.5833 0.3918
C10 C 0.8216(4) 0.6227(4) 0.3016(3)
H8 H 0.8496 0.5987 0.2848
Ni1B Ni 0.8334 1.1667 0.1667
Ni1A Ni 1.3333 1.1666 0.1667
Ni1B_2 Ni 0.8334 0.1667 0.1667
Ni1A_2 Ni 0.3333 0.1666 0.1667
S1O S 1.11086(10) 0.78949(12) 0.20190(10)
S1B S 0.98803(16) 1.44419(10) 0.13143(10)
S1Q S 0.67864(16) 0.88914(10) 0.20190(10)
S1A S 1.45616(12) 1.01197(16) 0.13143(10)
S1P S 1.21051(12) 1.32136(16) 0.20190(10)
O1B O 0.9211(3) 1.1344(2) 0.15610(18)
O1A O 1.2133(2) 1.0789(3) 0.15610(18)
O1O O 0.8011(2) 0.5466(2) 0.17723(18)
O1Q O 0.7456(3) 0.1989(2) 0.17723(18)
O1P O 0.4534(2) 0.2544(3) 0.17723(18)
O1Q_2 O 0.7456(3) 1.1989(2) 0.17723(18)
O1P_2 O 1.4534(2) 1.2544(3) 0.17723(18)
N1B N 1.0107(4) 1.1833(3) 0.2349(3)
N1A N 1.1726(3) 0.9893(4) 0.2349(3)
N1O N 0.8500(3) 0.5059(3) 0.0984(3)
N1Q N 0.6560(4) 0.1500(3) 0.0984(3)
N1P N 0.4941(3) 0.3440(4) 0.0984(3)
H1B H 1.0430 1.1753 0.2586
H1A H 1.1323 0.9570 0.2586
H1O H 0.8420 0.4656 0.0747
H1Q H 0.6237 0.1580 0.0747
H1P H 0.5344 0.3763 0.0747
N2O N 0.9473(3) 0.7093(3) 0.1935(2)
N2B N 0.9046(4) 1.2806(3) 0.1398(2)
N2Q N 0.7621(4) 1.0527(3) 0.1935(2)
N2A N 1.3760(3) 1.0954(4) 0.1398(2)
N2P N 1.2907(3) 1.2379(4) 0.1935(2)
N3B N 0.8621(4) 1.1976(3) 0.2630(2)
N3A N 1.3355(3) 1.1379(4) 0.2630(2)
N3O N 0.8643(3) 0.6688(3) 0.0703(2)
N3Q N 0.8046(4) 0.1357(3) 0.0703(2)
N3P N 0.3312(3) 0.1954(4) 0.0703(2)
N3Q_2 N 0.8046(4) 1.1357(3) 0.0703(2)
N3P_2 N 1.3312(3) 1.1954(4) 0.0703(2)
C1O C 1.0153(4) 0.7430(3) 0.1963(3)
C1B C 0.9389(5) 1.3486(4) 0.1370(3)
C1Q C 0.7278(5) 0.9847(4) 0.1963(3)
C1A C 1.4097(3) 1.0611(5) 0.1370(3)
C1P C 1.2570(3) 1.2722(5) 0.1963(3)
C2A C 1.0767(3) 1.0135(4) 0.1848(3)
C2B C 0.9865(4) 1.0632(3) 0.1848(3)
C2O C 0.7299(3) 0.4100(3) 0.1485(3)
C2P C 0.5900(3) 0.3198(4) 0.1485(3)
C2Q C 0.6802(4) 0.2701(3) 0.1485(3)
C3A C 1.0637(3) 1.0767(4) 0.1844(3)
C3B C 0.9233(4) 0.9870(3) 0.1844(3)
C3O C 0.6537(3) 0.3970(3) 0.1489(3)
C3P C 0.6030(3) 0.2566(4) 0.1489(3)
C3Q C 0.7434(4) 0.3463(3) 0.1489(3)
H2B H 0.8708 0.9779 0.1837
H2A H 1.1071 1.1292 0.1837
H2O H 0.6446 0.4404 0.1496
H2Q H 0.7959 0.3554 0.1496
H2P H 0.5596 0.2041 0.1496
C4B C 0.9695(5) 1.1307(3) 0.1901(3)
C4A C 1.1612(4) 1.0305(5) 0.1901(3)
C4O C 0.7974(3) 0.4945(4) 0.1432(3)
C4Q C 0.6972(5) 0.2026(3) 0.1432(3)
C4P C 0.5055(4) 0.3028(5) 0.1432(3)
C5B C 1.0043(4) 1.2533(3) 0.2461(3)
C5A C 1.2490(3) 0.9957(4) 0.2461(3)
C5O C 0.9200(3) 0.5823(3) 0.0872(3)
C5Q C 0.6624(4) 0.0800(3) 0.0872(3)
C5P C 0.4177(3) 0.3376(4) 0.0872(3)
H3B H 0.9983 1.2743 0.2053
H3A H 1.2760 1.0017 0.2053
H3O H 0.9410 0.6093 0.1280
H3Q H 0.6684 0.0590 0.1280
H3P H 0.3907 0.3316 0.1280
H4B H 1.0535 1.2945 0.2662
H4A H 1.2410 0.9465 0.2662
H4O H 0.9612 0.5743 0.0671
H4Q H 0.6132 0.0388 0.0671
H4P H 0.4257 0.3868 0.0671
C6B C 0.9357(4) 1.2361(3) 0.2876(3)
C6A C 1.3004(3) 1.0643(4) 0.2876(3)
C6O C 0.9028(3) 0.6337(3) 0.0457(3)
C6Q C 0.7310(4) 0.0972(3) 0.0457(3)
C6P C 0.3663(3) 0.2690(4) 0.0457(3)
C7B C 0.9485(6) 1.2574(4) 0.3499(4)
C7A C 1.3089(4) 1.0515(6) 0.3499(4)
C7O C 0.9241(4) 0.6422(4) -0.0166(4)
C7Q C 0.7182(6) 0.0759(4) -0.0166(4)
C7P C 0.3578(4) 0.2818(6) -0.0166(4)
H5B H 1.0008 1.2854 0.3659
H5A H 1.2846 0.9992 0.3659
H5O H 0.9521 0.6179 -0.0326
H5Q H 0.6659 0.0479 -0.0326
H5P H 0.3821 0.3341 -0.0326
C8B C 0.8853(7) 1.2381(5) 0.3891(4)
C8A C 1.3528(5) 1.1147(7) 0.3891(4)
C8O C 0.9048(5) 0.6861(5) -0.0558(4)
C8Q C 0.7814(7) 0.0952(5) -0.0558(4)
C8P C 0.3139(5) 0.2186(7) -0.0558(4)
H6B H 0.8937 1.2529 0.4323
H6A H 1.3592 1.1063 0.4323
H6O H 0.9196 0.6925 -0.0990
H6Q H 0.7730 0.0804 -0.0990
H6P H 0.3075 0.2270 -0.0990
C9B C 0.8104(7) 1.1974(5) 0.3654(3)
C9A C 1.3870(5) 1.1896(7) 0.3654(3)
C9O C 0.8641(5) 0.7203(5) -0.0321(3)
C9Q C 0.8563(7) 0.1359(5) -0.0321(3)
C9P C 0.2797(5) 0.1437(7) -0.0321(3)
H7B H 0.7659 1.1826 0.3918
H7A H 1.4167 1.2341 0.3918
H7O H 0.8493 0.7500 -0.0585
H7Q H 0.9008 0.1507 -0.0585
H7P H 0.2500 0.0992 -0.0585
C10B C 0.8011(6) 1.1784(4) 0.3016(3)
C10A C 1.3773(4) 1.1989(6) 0.3016(3)
C10O C 0.8451(4) 0.7106(4) 0.0317(3)
C10Q C 0.8656(6) 0.1549(4) 0.0317(3)
C10P C 0.2894(4) 0.1344(6) 0.0317(3)
H8B H 0.7491 1.1504 0.2848
H8A H 1.4013 1.2509 0.2848
H8O H 0.8171 0.7346 0.0485
H8Q H 0.9176 0.1829 0.0485
H8P H 0.2654 0.0824 0.0485
O2 O 0.3893(4) 0.5705(4) -0.0034(3)
C11 C 0.3207(11) 0.4962(9) 0.0014(7)
H9 H 0.3284 0.4565 -0.0217
H10 H 0.2759 0.4983 -0.0181
C13 C 0.3030(13) 0.4731(12) 0.0656(7)
H13 H 0.3028 0.4230 0.0729
H14 H 0.2501 0.4649 0.0765
C15 C 0.3620(11) 0.5344(11) 0.1040(8)
H17 H 0.3387 0.5586 0.1311
H18 H 0.3891 0.5139 0.1309
C17 C 0.4151(12) 0.5899(14) 0.0590(6)
H21 H 0.4224 0.6427 0.0687
H22 H 0.4672 0.5933 0.0632
O3 O 0.665(2) 0.2687(12) 0.3345(9)
C12? C 0.3112(11) 0.552(2) 0.0088(12)
H11? H 0.2730 0.5047 -0.0153
H12? H 0.3031 0.5966 -0.0016
C14? C 0.304(2) 0.536(2) 0.0751(12)
H15? H 0.2481 0.5007 0.0867
H16? H 0.3240 0.5862 0.0991
C16? C 0.3547(19) 0.497(2) 0.0899(12)
H19? H 0.3937 0.5242 0.1239
H20? H 0.3216 0.4399 0.1003
C18? C 0.3907(18) 0.5091(15) 0.0294(11)
H23? H 0.4461 0.5217 0.0345
H24? H 0.3626 0.4598 0.0044
loop_
_geom_bond_atom_site_label_1
_geom_bond_atom_site_label_2
_geom_bond_site_symmetry_1
_geom_bond_site_symmetry_2
Ni1 O1 1_555 1_555
S1 C1 1_555 1_555
O1 C4 1_555 1_555
O2 C11 1_555 1_555
N1 H1 1_555 1_555
N2 Ni1 1_555 1_555
N3 Ni1 1_555 1_555
C1 N2 1_555 1_555
C2 C3 1_555 1_555
C3 H2 1_555 1_555
C4 N1 1_555 1_555
C5 N1 1_555 1_555
H3 C5 1_555 1_555
H4 C5 1_555 1_555
C6 N3 1_555 1_555
C7 C6 1_555 1_555
H5 C7 1_555 1_555
C8 C7 1_555 1_555
H6 C8 1_555 1_555
C9 C8 1_555 1_555
H7 C9 1_555 1_555
C10 N3 1_555 1_555
H8 C10 1_555 1_555
C11 H9 1_555 1_555
H10 C11 1_555 1_555
C13 C11 1_555 1_555
H13 C13 1_555 1_555
H14 C13 1_555 1_555
C15 C13 1_555 1_555
H17 C15 1_555 1_555
H18 C15 1_555 1_555
C17 O2 1_555 1_555
H21 C17 1_555 1_555
H22 C17 1_555 1_555
Ni1B O1B 1_555 1_555
Ni1A O1A 1_555 1_555
Ni1B_2 O1Q 1_555 1_555
Ni1A_2 O1P 1_555 1_555
S1O C1O 1_555 1_555
S1B C1B 1_555 1_555
S1Q C1Q 1_555 1_555
S1A C1A 1_555 1_555
S1P C1P 1_555 1_555
O1B C4B 1_555 1_555
O1A C4A 1_555 1_555
O1O Ni1 1_555 1_555
O1Q C4Q 1_555 1_555
O1P C4P 1_555 1_555
O1Q_2 Ni1B 1_555 1_555
O1P_2 Ni1A 1_555 1_555
N1B H1B 1_555 1_555
N1A H1A 1_555 1_555
N1O H1O 1_555 1_555
N1Q H1Q 1_555 1_555
N1P H1P 1_555 1_555
N2O Ni1 1_555 1_555
N2B Ni1B 1_555 1_555
N2Q Ni1B 1_555 1_555
N2A Ni1A 1_555 1_555
N2P Ni1A 1_555 1_555
N3B Ni1B 1_555 1_555
N3A Ni1A 1_555 1_555
N3O Ni1 1_555 1_555
N3Q Ni1B_2 1_555 1_555
N3P Ni1A_2 1_555 1_555
N3Q_2 Ni1B 1_555 1_555
N3P_2 Ni1A 1_555 1_555
C1O N2O 1_555 1_555
C1B N2B 1_555 1_555
C1Q N2Q 1_555 1_555
C1A N2A 1_555 1_555
C1P N2P 1_555 1_555
C2A C3 1_555 1_555
C2B C3A 1_555 1_555
C2O C3O 1_555 1_555
C2P C3O 1_555 1_555
C2Q C3P 1_555 1_555
C3A C2A 1_555 1_555
C3B C2 1_555 1_555
C3O H2O 1_555 1_555
C3P C2P 1_555 1_555
C3Q C2O 1_555 1_555
H2B C3B 1_555 1_555
H2A C3A 1_555 1_555
H2Q C3Q 1_555 1_555
H2P C3P 1_555 1_555
C4B N1B 1_555 1_555
C4A N1A 1_555 1_555
C4O O1O 1_555 1_555
C4Q N1Q 1_555 1_555
C4P N1P 1_555 1_555
C5B N1B 1_555 1_555
C5A N1A 1_555 1_555
C5O N1O 1_555 1_555
C5Q N1Q 1_555 1_555
C5P N1P 1_555 1_555
H3B C5B 1_555 1_555
H3A C5A 1_555 1_555
H3O C5O 1_555 1_555
H3Q C5Q 1_555 1_555
H3P C5P 1_555 1_555
H4B C5B 1_555 1_555
H4A C5A 1_555 1_555
H4O C5O 1_555 1_555
H4Q C5Q 1_555 1_555
H4P C5P 1_555 1_555
C6B N3B 1_555 1_555
C6A N3A 1_555 1_555
C6O N3O 1_555 1_555
C6Q N3Q 1_555 1_555
C6P N3P 1_555 1_555
C7B C6B 1_555 1_555
C7A C6A 1_555 1_555
C7O C6O 1_555 1_555
C7Q C6Q 1_555 1_555
C7P C6P 1_555 1_555
H5B C7B 1_555 1_555
H5A C7A 1_555 1_555
H5O C7O 1_555 1_555
H5Q C7Q 1_555 1_555
H5P C7P 1_555 1_555
C8B C7B 1_555 1_555
C8A C7A 1_555 1_555
C8O C7O 1_555 1_555
C8Q C7Q 1_555 1_555
C8P C7P 1_555 1_555
H6B C8B 1_555 1_555
H6A C8A 1_555 1_555
H6O C8O 1_555 1_555
H6Q C8Q 1_555 1_555
H6P C8P 1_555 1_555
C9B C8B 1_555 1_555
C9A C8A 1_555 1_555
C9O C8O 1_555 1_555
C9Q C8Q 1_555 1_555
C9P C8P 1_555 1_555
H7B C9B 1_555 1_555
H7A C9A 1_555 1_555
H7O C9O 1_555 1_555
H7Q C9Q 1_555 1_555
H7P C9P 1_555 1_555
C10B N3B 1_555 1_555
C10A N3A 1_555 1_555
C10O N3O 1_555 1_555
C10Q N3Q 1_555 1_555
C10P N3P 1_555 1_555
H8B C10B 1_555 1_555
H8A C10A 1_555 1_555
H8O C10O 1_555 1_555
H8Q C10Q 1_555 1_555
H8P C10P 1_555 1_555
C2 C4 1_555 1_555
C5 C6 1_555 1_555
C9 C10 1_555 1_555
C15 C17 1_555 1_555
N1O C4O 1_555 1_555
C2A C4A 1_555 1_555
C2B C3B 1_555 1_555
C2B C4B 1_555 1_555
C2O C4O 1_555 1_555
C2P C4P 1_555 1_555
C2Q C3Q 1_555 1_555
C2Q C4Q 1_555 1_555
C5B C6B 1_555 1_555
C5A C6A 1_555 1_555
C5O C6O 1_555 1_555
C5Q C6Q 1_555 1_555
C5P C6P 1_555 1_555
C9B C10B 1_555 1_555
C9A C10A 1_555 1_555
C9O C10O 1_555 1_555
C9Q C10Q 1_555 1_555
C9P C10P 1_555 1_555

#END
