
#######################################################################
#
#                 Cambridge Crystallographic Data Centre
#                                CCDC 
#
#######################################################################
#
# If this CIF has been generated from an entry in the Cambridge 
# Structural Database, then it will include bibliographic, chemical, 
# crystal, experimental, refinement or atomic coordinate data resulting 
# from the CCDC's data processing and validation procedures.
#
#######################################################################

data_WIKWAQ
_symmetry_cell_setting           orthorhombic
_symmetry_space_group_name_H-M   'P n m a'
_symmetry_Int_Tables_number      62
_space_group_name_Hall           '-P 2ac 2n'
loop_
_symmetry_equiv_pos_site_id
_symmetry_equiv_pos_as_xyz
1 x,y,z
2 1/2-x,-y,1/2+z
3 1/2+x,1/2-y,1/2-z
4 -x,1/2+y,-z
5 -x,-y,-z
6 1/2+x,y,1/2-z
7 1/2-x,1/2+y,1/2+z
8 x,1/2-y,z
_cell_length_a                   6.9900(12)
_cell_length_b                   6.3339(12)
_cell_length_c                   15.124(3)
_cell_angle_alpha                90
_cell_angle_beta                 90
_cell_angle_gamma                90
_cell_volume                     669.599
loop_
_atom_site_label
_atom_site_type_symbol
_atom_site_fract_x
_atom_site_fract_y
_atom_site_fract_z
Ag1 Ag 0.98331(2) 0.25000 0.65882(1)
Cl1 Cl 1.06753(7) 0.25000 0.81128(3)
N1 N 1.1171(2) 0.25000 0.45923(12)
N2 N 1.0539(2) 0.25000 0.37612(12)
N3 N 0.8690(2) 0.25000 0.38723(12)
N4 N 0.8102(2) 0.25000 0.47149(12)
C1 C 0.9721(3) 0.25000 0.52026(15)
C2 C 1.3261(3) 0.25000 0.47342(15)
C3 C 0.7391(3) 0.25000 0.31138(16)
H1 H 1.341(4) 0.25000 0.5371(11)
H2 H 1.375(2) 0.1266(19) 0.4473(11)
H3 H 0.808(3) 0.25000 0.2574(13)
H4 H 0.661(2) 0.1255(18) 0.3141(11)
H2G H 1.375(2) 0.3734(19) 0.4473(11)
H4G H 0.661(2) 0.3745(18) 0.3141(11)
Ag1B Ag 1.48331(2) 0.25000 0.84118(1)
Cl1B Cl 0.56753(7) 0.25000 0.68872(3)
loop_
_geom_bond_atom_site_label_1
_geom_bond_atom_site_label_2
_geom_bond_site_symmetry_1
_geom_bond_site_symmetry_2
Ag1 Cl1 1_555 1_555
Cl1 Ag1B 1_555 1_555
N1 N2 1_555 1_555
N2 N3 1_555 1_555
N3 N4 1_555 1_555
N4 C1 1_555 1_555
C1 Ag1 1_555 1_555
C2 N1 1_555 1_555
C3 N3 1_555 1_555
H1 C2 1_555 1_555
H2 C2 1_555 1_555
H3 C3 1_555 1_555
H4 C3 1_555 1_555
H2G C2 1_555 1_555
H4G C3 1_555 1_555
Cl1B Ag1 1_555 1_555
N1 C1 1_555 1_555

#END
