
#######################################################################
#
#                 Cambridge Crystallographic Data Centre
#                                CCDC 
#
#######################################################################
#
# If this CIF has been generated from an entry in the Cambridge 
# Structural Database, then it will include bibliographic, chemical, 
# crystal, experimental, refinement or atomic coordinate data resulting 
# from the CCDC's data processing and validation procedures.
#
#######################################################################

data_WIKWIX
_symmetry_cell_setting           rhombohedral
_symmetry_space_group_name_H-M   'R -3'
_symmetry_Int_Tables_number      148
_space_group_name_Hall           '-R 3'
loop_
_symmetry_equiv_pos_site_id
_symmetry_equiv_pos_as_xyz
1 x,y,z
2 -y,x-y,z
3 -x+y,-x,z
4 2/3+x,1/3+y,1/3+z
5 2/3-y,1/3+x-y,1/3+z
6 2/3-x+y,1/3-x,1/3+z
7 1/3+x,2/3+y,2/3+z
8 1/3-y,2/3+x-y,2/3+z
9 1/3-x+y,2/3-x,2/3+z
10 -x,-y,-z
11 y,-x+y,-z
12 x-y,x,-z
13 1/3-x,2/3-y,2/3-z
14 1/3+y,2/3-x+y,2/3-z
15 1/3+x-y,2/3+x,2/3-z
16 2/3-x,1/3-y,1/3-z
17 2/3+y,1/3-x+y,1/3-z
18 2/3+x-y,1/3+x,1/3-z
_cell_length_a                   20.126(6)
_cell_length_b                   20.126(6)
_cell_length_c                   20.554(7)
_cell_angle_alpha                90
_cell_angle_beta                 90
_cell_angle_gamma                120.00
_cell_volume                     7210.11
loop_
_atom_site_label
_atom_site_type_symbol
_atom_site_fract_x
_atom_site_fract_y
_atom_site_fract_z
Cu1 Cu 0.5000 0.5000 0.0000
S1 S 0.76589(5) 0.64216(6) 0.03858(6)
O1 O 0.53230(11) 0.40149(11) -0.01424(10)
N1 N 0.60776(13) 0.56450(14) 0.02656(12)
N2 N 0.48716(13) 0.32454(13) 0.07350(14)
H3 H 0.4949 0.2963 0.1018
N3 N 0.46989(13) 0.47073(14) 0.09653(12)
C1 C 0.67368(16) 0.59655(15) 0.03110(14)
C2 C 0.60404(14) 0.34481(14) 0.02454(14)
C3 C 0.67814(15) 0.40751(14) 0.02452(14)
H4 H 0.6860 0.4581 0.0245
C4 C 0.53760(14) 0.35910(14) 0.02612(14)
C5 C 0.41903(16) 0.33222(17) 0.07981(19)
H5 H 0.3768 0.2845 0.0987
H6 H 0.4027 0.3390 0.0361
C6 C 0.43326(16) 0.39932(18) 0.12214(16)
C7 C 0.4112(2) 0.3879(3) 0.1869(2)
H7 H 0.3851 0.3374 0.2041
C8 C 0.4264(3) 0.4487(3) 0.2262(2)
H8 H 0.4108 0.4406 0.2705
C9 C 0.4650(3) 0.5219(3) 0.20069(18)
H9 H 0.4769 0.5653 0.2270
C10 C 0.4860(2) 0.5306(2) 0.13556(16)
H10 H 0.5128 0.5809 0.1178
Cu1B Cu 1.0000 0.5000 0.0000
Cu1A Cu 0.5000 0.0000 0.0000
Cu1B_2 Cu 0.0000 0.5000 0.0000
Cu1A_2 Cu 0.5000 1.0000 0.0000
S1I S 0.23411(5) 0.35784(6) -0.03858(6)
S1B S 0.87627(8) 0.23411(5) 0.03858(6)
S1K S 1.12373(8) 0.76589(5) -0.03858(6)
S1A S 0.35784(6) 0.12373(8) 0.03858(6)
S1J S 0.64216(6) -0.12373(8) -0.03858(6)
O1B O 0.86919(16) 0.46770(11) -0.01424(10)
O1A O 0.59851(11) 0.13081(16) -0.01424(10)
O1I O 0.46770(11) 0.59851(11) 0.01424(10)
O1K O 0.13081(16) 0.53230(11) 0.01424(10)
O1J O 0.40149(11) 0.86919(16) 0.01424(10)
O1K_2 O 1.13081(16) 0.53230(11) 0.01424(10)
O1J_2 O 0.40149(11) -0.13081(16) 0.01424(10)
N1I N 0.39224(13) 0.43550(14) -0.02656(12)
N1B N 0.95674(19) 0.39224(13) 0.02656(12)
N1K N 1.04326(19) 0.60776(13) -0.02656(12)
N1A N 0.43550(14) 0.04326(19) 0.02656(12)
N1J N 0.56450(14) -0.04326(19) -0.02656(12)
N2B N 0.83738(18) 0.51284(13) 0.07350(14)
N2A N 0.67546(13) 0.16262(18) 0.07350(14)
N2I N 0.51284(13) 0.67546(13) -0.07350(14)
N2K N 0.16262(18) 0.48716(13) -0.07350(14)
N2J N 0.32454(13) 0.83738(18) -0.07350(14)
H3B H 0.8014 0.5051 0.1018
H3A H 0.7037 0.1986 0.1018
H3I H 0.5051 0.7037 -0.1018
H3K H 0.1986 0.4949 -0.1018
H3J H 0.2963 0.8014 -0.1018
N3B N 1.00084(19) 0.53011(13) 0.09653(12)
N3A N 0.52927(14) -0.00084(19) 0.09653(12)
N3I N 0.53011(13) 0.52927(14) -0.09653(12)
N3K N -0.00084(19) 0.46989(13) -0.09653(12)
N3J N 0.47073(14) 1.00084(19) -0.09653(12)
N3K_2 N 0.99916(19) 0.46989(13) -0.09653(12)
N3J_2 N 0.47073(14) 0.00084(19) -0.09653(12)
C1I C 0.32632(16) 0.40345(15) -0.03110(14)
C1B C 0.92287(22) 0.32632(16) 0.03110(14)
C1K C 1.07713(22) 0.67368(16) -0.03110(14)
C1A C 0.40345(15) 0.07713(22) 0.03110(14)
C1J C 0.59655(15) -0.07713(22) -0.03110(14)
C2B C 0.74077(20) 0.39596(14) 0.02454(14)
C2A C 0.65519(14) 0.25923(20) 0.02454(14)
C2I C 0.39596(14) 0.65519(14) -0.02454(14)
C2K C 0.25923(20) 0.60404(14) -0.02454(14)
C2J C 0.34481(14) 0.74077(20) -0.02454(14)
C3B C 0.72937(21) 0.32186(15) 0.02452(14)
C3A C 0.59249(14) 0.27063(21) 0.02452(14)
C3I C 0.32186(15) 0.59249(14) -0.02452(14)
C3K C 0.27063(21) 0.67814(15) -0.02452(14)
C3J C 0.40751(14) 0.72937(21) -0.02452(14)
H4B H 0.7721 0.3140 0.0245
H4A H 0.5419 0.2279 0.0245
H4I H 0.3140 0.5419 -0.0245
H4K H 0.2279 0.6860 -0.0245
H4J H 0.4581 0.7721 -0.0245
C4B C 0.82150(20) 0.46240(14) 0.02612(14)
C4A C 0.64090(14) 0.17850(20) 0.02612(14)
C4I C 0.46240(14) 0.64090(14) -0.02612(14)
C4K C 0.17850(20) 0.53760(14) -0.02612(14)
C4J C 0.35910(14) 0.82150(20) -0.02612(14)
C5B C 0.91319(23) 0.58097(16) 0.07981(19)
C5A C 0.66778(17) 0.08681(23) 0.07981(19)
C5I C 0.58097(16) 0.66778(17) -0.07981(19)
C5K C 0.08681(23) 0.41903(16) -0.07981(19)
C5J C 0.33222(17) 0.91319(23) -0.07981(19)
H5B H 0.9077 0.6232 0.0987
H5A H 0.7155 0.0923 0.0987
H5I H 0.6232 0.7155 -0.0987
H5K H 0.0923 0.3768 -0.0987
H5J H 0.2845 0.9077 -0.0987
H6B H 0.9363 0.5973 0.0361
H6A H 0.6610 0.0637 0.0361
H6I H 0.5973 0.6610 -0.0361
H6K H 0.0637 0.4027 -0.0361
H6J H 0.3390 0.9363 -0.0361
C6B C 0.96606(24) 0.56674(16) 0.12214(16)
C6A C 0.60068(18) 0.03394(24) 0.12214(16)
C6I C 0.56674(16) 0.60068(18) -0.12214(16)
C6K C 0.03394(24) 0.43326(16) -0.12214(16)
C6J C 0.39932(18) 0.96606(24) -0.12214(16)
C7B C 0.9767(4) 0.5888(2) 0.1869(2)
C7A C 0.6121(3) 0.0233(4) 0.1869(2)
C7I C 0.5888(2) 0.6121(3) -0.1869(2)
C7K C 0.0233(4) 0.4112(2) -0.1869(2)
C7J C 0.3879(3) 0.9767(4) -0.1869(2)
H7B H 0.9523 0.6149 0.2041
H7A H 0.6626 0.0477 0.2041
H7I H 0.6149 0.6626 -0.2041
H7K H 0.0477 0.3851 -0.2041
H7J H 0.3374 0.9523 -0.2041
C8B C 1.0223(4) 0.5736(3) 0.2262(2)
C8A C 0.5513(3) -0.0223(4) 0.2262(2)
C8I C 0.5736(3) 0.5513(3) -0.2262(2)
C8K C -0.0223(4) 0.4264(3) -0.2262(2)
C8J C 0.4487(3) 1.0223(4) -0.2262(2)
H8B H 1.0298 0.5892 0.2705
H8A H 0.5594 -0.0298 0.2705
H8I H 0.5892 0.5594 -0.2705
H8K H -0.0298 0.4108 -0.2705
H8J H 0.4406 1.0298 -0.2705
C9B C 1.0569(4) 0.5350(3) 0.20069(18)
C9A C 0.4781(3) -0.0569(4) 0.20069(18)
C9I C 0.5350(3) 0.4781(3) -0.20069(18)
C9K C -0.0569(4) 0.4650(3) -0.20069(18)
C9J C 0.5219(3) 1.0569(4) -0.20069(18)
H9B H 1.0884 0.5231 0.2270
H9A H 0.4347 -0.0884 0.2270
H9I H 0.5231 0.4347 -0.2270
H9K H -0.0884 0.4769 -0.2270
H9J H 0.5653 1.0884 -0.2270
C10B C 1.0446(3) 0.5140(2) 0.13556(16)
C10A C 0.4694(2) -0.0446(3) 0.13556(16)
C10I C 0.5140(2) 0.4694(2) -0.13556(16)
C10K C -0.0446(3) 0.4860(2) -0.13556(16)
C10J C 0.5306(2) 1.0446(3) -0.13556(16)
H10B H 1.0681 0.4872 0.1178
H10A H 0.4191 -0.0681 0.1178
H10I H 0.4872 0.4191 -0.1178
H10K H -0.0681 0.5128 -0.1178
H10J H 0.5809 1.0681 -0.1178
O2 O 0.60750(18) 0.18225(19) 0.49045(17)
C11 C 0.5814(6) 0.1577(12) 0.4347(8)
H11 H 0.5733 0.1962 0.4113
H12 H 0.5312 0.1099 0.4384
C13 C 0.6369(4) 0.1421(5) 0.3967(4)
H15 H 0.6114 0.0881 0.3819
H16 H 0.6569 0.1762 0.3582
C15 C 0.6920(6) 0.1563(9) 0.4374(6)
H19 H 0.7423 0.1874 0.4157
H20 H 0.6881 0.1074 0.4517
C17 C 0.6869(4) 0.1964(7) 0.4919(3)
H23 H 0.7243 0.2520 0.4884
H24 H 0.6968 0.1767 0.5327
O3 O 0.6640(8) 0.2684(5) 0.8324(5)
H1 H 0.6628 0.2479 0.7968
H2? H 0.6950 0.3065 0.8268
C12? C 0.6004(12) 0.1174(8) 0.4601(10)
H13? H 0.5456 0.0781 0.4550
H14? H 0.6260 0.0952 0.4860
C14? C 0.6369(4) 0.1421(5) 0.3967(4)
H17? H 0.6052 0.1515 0.3653
H18? H 0.6519 0.1062 0.3778
C16? C 0.7073(9) 0.2182(12) 0.4221(11)
H21? H 0.7408 0.2085 0.4511
H22? H 0.7379 0.2529 0.3862
C18? C 0.6610(11) 0.2477(9) 0.4593(11)
H25? H 0.6935 0.2884 0.4907
H26? H 0.6364 0.2674 0.4292
loop_
_geom_bond_atom_site_label_1
_geom_bond_atom_site_label_2
_geom_bond_site_symmetry_1
_geom_bond_site_symmetry_2
Cu1 O1 1_555 1_555
S1 C1 1_555 1_555
O1 C4 1_555 1_555
O2 C11 1_555 1_555
O3 H1 1_555 1_555
N1 Cu1 1_555 1_555
N2 H3 1_555 1_555
N3 Cu1 1_555 1_555
C1 N1 1_555 1_555
C2 C3 1_555 1_555
C3 H4 1_555 1_555
C4 N2 1_555 1_555
C5 N2 1_555 1_555
H5 C5 1_555 1_555
H6 C5 1_555 1_555
C6 N3 1_555 1_555
C7 C6 1_555 1_555
H7 C7 1_555 1_555
C8 C7 1_555 1_555
H8 C8 1_555 1_555
C9 C8 1_555 1_555
H9 C9 1_555 1_555
C10 N3 1_555 1_555
H10 C10 1_555 1_555
C11 H11 1_555 1_555
H12 C11 1_555 1_555
C13 C11 1_555 1_555
H15 C13 1_555 1_555
H16 C13 1_555 1_555
C15 C13 1_555 1_555
H19 C15 1_555 1_555
H20 C15 1_555 1_555
C17 O2 1_555 1_555
H23 C17 1_555 1_555
H24 C17 1_555 1_555
Cu1B O1B 1_555 1_555
Cu1A O1A 1_555 1_555
Cu1B_2 O1K 1_555 1_555
Cu1A_2 O1J 1_555 1_555
S1I C1I 1_555 1_555
S1B C1B 1_555 1_555
S1K C1K 1_555 1_555
S1A C1A 1_555 1_555
S1J C1J 1_555 1_555
O1B C4B 1_555 1_555
O1A C4A 1_555 1_555
O1I Cu1 1_555 1_555
O1K C4K 1_555 1_555
O1J C4J 1_555 1_555
O1K_2 Cu1B 1_555 1_555
O1J_2 Cu1A 1_555 1_555
N1I Cu1 1_555 1_555
N1B Cu1B 1_555 1_555
N1K Cu1B 1_555 1_555
N1A Cu1A 1_555 1_555
N1J Cu1A 1_555 1_555
N2B H3B 1_555 1_555
N2A H3A 1_555 1_555
N2I H3I 1_555 1_555
N2K H3K 1_555 1_555
N2J H3J 1_555 1_555
N3B Cu1B 1_555 1_555
N3A Cu1A 1_555 1_555
N3I Cu1 1_555 1_555
N3K Cu1B_2 1_555 1_555
N3J Cu1A_2 1_555 1_555
N3K_2 Cu1B 1_555 1_555
N3J_2 Cu1A 1_555 1_555
C1I N1I 1_555 1_555
C1B N1B 1_555 1_555
C1K N1K 1_555 1_555
C1A N1A 1_555 1_555
C1J N1J 1_555 1_555
C2B C3 1_555 1_555
C2A C3B 1_555 1_555
C2I C3I 1_555 1_555
C2K C3I 1_555 1_555
C2J C3K 1_555 1_555
C3B C2B 1_555 1_555
C3A C2 1_555 1_555
C3I H4I 1_555 1_555
C3K C2K 1_555 1_555
C3J C2I 1_555 1_555
H4B C3B 1_555 1_555
H4A C3A 1_555 1_555
H4K C3K 1_555 1_555
H4J C3J 1_555 1_555
C4B N2B 1_555 1_555
C4A N2A 1_555 1_555
C4I O1I 1_555 1_555
C4K N2K 1_555 1_555
C4J N2J 1_555 1_555
C5B N2B 1_555 1_555
C5A N2A 1_555 1_555
C5I N2I 1_555 1_555
C5K N2K 1_555 1_555
C5J N2J 1_555 1_555
H5B C5B 1_555 1_555
H5A C5A 1_555 1_555
H5I C5I 1_555 1_555
H5K C5K 1_555 1_555
H5J C5J 1_555 1_555
H6B C5B 1_555 1_555
H6A C5A 1_555 1_555
H6I C5I 1_555 1_555
H6K C5K 1_555 1_555
H6J C5J 1_555 1_555
C6B N3B 1_555 1_555
C6A N3A 1_555 1_555
C6I N3I 1_555 1_555
C6K N3K 1_555 1_555
C6J N3J 1_555 1_555
C7B C6B 1_555 1_555
C7A C6A 1_555 1_555
C7I C6I 1_555 1_555
C7K C6K 1_555 1_555
C7J C6J 1_555 1_555
H7B C7B 1_555 1_555
H7A C7A 1_555 1_555
H7I C7I 1_555 1_555
H7K C7K 1_555 1_555
H7J C7J 1_555 1_555
C8B C7B 1_555 1_555
C8A C7A 1_555 1_555
C8I C7I 1_555 1_555
C8K C7K 1_555 1_555
C8J C7J 1_555 1_555
H8B C8B 1_555 1_555
H8A C8A 1_555 1_555
H8I C8I 1_555 1_555
H8K C8K 1_555 1_555
H8J C8J 1_555 1_555
C9B C8B 1_555 1_555
C9A C8A 1_555 1_555
C9I C8I 1_555 1_555
C9K C8K 1_555 1_555
C9J C8J 1_555 1_555
H9B C9B 1_555 1_555
H9A C9A 1_555 1_555
H9I C9I 1_555 1_555
H9K C9K 1_555 1_555
H9J C9J 1_555 1_555
C10B N3B 1_555 1_555
C10A N3A 1_555 1_555
C10I N3I 1_555 1_555
C10K N3K 1_555 1_555
C10J N3J 1_555 1_555
H10B C10B 1_555 1_555
H10A C10A 1_555 1_555
H10I C10I 1_555 1_555
H10K C10K 1_555 1_555
H10J C10J 1_555 1_555
C2 C4 1_555 1_555
C5 C6 1_555 1_555
C9 C10 1_555 1_555
C15 C17 1_555 1_555
N2I C4I 1_555 1_555
C2B C4B 1_555 1_555
C2A C3A 1_555 1_555
C2A C4A 1_555 1_555
C2I C4I 1_555 1_555
C2K C4K 1_555 1_555
C2J C3J 1_555 1_555
C2J C4J 1_555 1_555
C5B C6B 1_555 1_555
C5A C6A 1_555 1_555
C5I C6I 1_555 1_555
C5K C6K 1_555 1_555
C5J C6J 1_555 1_555
C9B C10B 1_555 1_555
C9A C10A 1_555 1_555
C9I C10I 1_555 1_555
C9K C10K 1_555 1_555
C9J C10J 1_555 1_555

#END
