
#######################################################################
#
#                 Cambridge Crystallographic Data Centre
#                                CCDC 
#
#######################################################################
#
# If this CIF has been generated from an entry in the Cambridge 
# Structural Database, then it will include bibliographic, chemical, 
# crystal, experimental, refinement or atomic coordinate data resulting 
# from the CCDC's data processing and validation procedures.
#
#######################################################################

data_WIKWUJ
_symmetry_cell_setting           triclinic
_symmetry_space_group_name_H-M   'P -1'
_symmetry_Int_Tables_number      2
_space_group_name_Hall           '-P 1'
loop_
_symmetry_equiv_pos_site_id
_symmetry_equiv_pos_as_xyz
1 x,y,z
2 -x,-y,-z
_cell_length_a                   10.4845(19)
_cell_length_b                   13.174(2)
_cell_length_c                   13.832(2)
_cell_angle_alpha                78.042(3)
_cell_angle_beta                 75.359(3)
_cell_angle_gamma                82.623(4)
_cell_volume                     1802.52
loop_
_atom_site_label
_atom_site_type_symbol
_atom_site_fract_x
_atom_site_fract_y
_atom_site_fract_z
Cd1 Cd -0.42722(5) 0.19671(4) 0.42309(4)
Cd2 Cd -0.06613(5) -0.19729(4) 0.83197(4)
C1 C -0.4746(7) -0.0850(5) 0.8650(5)
C2 C -0.5863(7) -0.0753(5) 0.9403(5)
H1 H -0.6062 -0.1292 0.9956
C3 C -0.6701(7) 0.0158(6) 0.9336(5)
C4 C -0.6374(7) 0.0961(6) 0.8525(5)
H2 H -0.6913 0.1580 0.8496
C5 C -0.5262(7) 0.0862(6) 0.7756(5)
C6 C -0.4460(7) -0.0056(6) 0.7812(5)
H3 H -0.3724 -0.0142 0.7287
C7 C -0.3782(8) -0.1807(6) 0.8658(6)
C8 C -0.3296(8) -0.3623(6) 0.9309(7)
H4 H -0.3903 -0.4166 0.9494
H5 H -0.2819 -0.3617 0.8609
C9 C -0.2330(8) -0.3882(6) 0.9972(6)
C10 C -0.0375(8) -0.3577(6) 1.0298(6)
H6 H 0.0368 -0.3201 1.0129
C11 C -0.0546(9) -0.4346(7) 1.1160(6)
H7 H 0.0081 -0.4503 1.1550
C12 C -0.1658(10) -0.4864(7) 1.1419(7)
H8 H -0.1811 -0.5376 1.2001
C13 C -0.2544(9) -0.4628(6) 1.0824(7)
H9 H -0.3306 -0.4982 1.1001
C14 C -0.7966(8) 0.0298(6) 1.0111(5)
C15 C -0.9826(8) -0.0493(6) 1.1357(6)
H10 H -1.0330 0.0161 1.1184
H11 H -1.0341 -0.1054 1.1356
C16 C -0.9587(7) -0.0581(6) 1.2405(6)
C17 C -0.9005(8) 0.0193(7) 1.3538(6)
H12 H -0.8824 0.0790 1.3721
C18 C -0.8936(10) -0.0746(8) 1.4207(6)
H13 H -0.8668 -0.0789 1.4807
C19 C -0.9277(12) -0.1606(8) 1.3949(7)
H14 H -0.9305 -0.2241 1.4395
C20 C -0.9575(11) -0.1519(7) 1.3028(7)
H15 H -0.9769 -0.2103 1.2829
C21 C -0.4913(7) 0.1674(6) 0.6825(6)
C22 C -0.4822(9) 0.3520(6) 0.6103(6)
H16 H -0.4675 0.4112 0.6366
H17 H -0.4001 0.3316 0.5652
C23 C -0.5880(8) 0.3834(6) 0.5513(6)
C24 C -0.6783(9) 0.3603(7) 0.4236(7)
H18 H -0.6745 0.3270 0.3697
C25 C -0.7818(10) 0.4317(8) 0.4469(9)
H19 H -0.8471 0.4461 0.4102
C26 C -0.7878(12) 0.4813(8) 0.5245(10)
H20 H -0.8561 0.5317 0.5411
C27 C -0.6911(11) 0.4560(8) 0.5786(8)
H21 H -0.6952 0.4878 0.6335
C28 C -0.2557(9) 0.2408(6) 0.1867(6)
C29 C -0.1313(8) 0.2911(6) 0.3688(6)
C30 C -0.6588(8) 0.0521(6) 0.5233(7)
O1 O -0.2756(5) -0.1788(4) 0.7978(4)
O2 O -0.8423(6) 0.1186(4) 1.0237(4)
O3 O -0.4415(6) 0.1421(4) 0.6003(4)
N1 N -0.4062(6) -0.2617(5) 0.9381(5)
H22 H -0.4700 -0.2558 0.9903
N2 N -0.1233(6) -0.3352(5) 0.9695(5)
N3 N -0.8581(6) -0.0544(5) 1.0600(5)
H23 H -0.8232 -0.1141 1.0466
N4 N -0.9317(6) 0.0279(5) 1.2650(4)
N5 N -0.5189(7) 0.2657(5) 0.6946(5)
H24 H -0.5595 0.2791 0.7534
N6 N -0.5820(6) 0.3354(5) 0.4739(5)
N7 N -0.1484(7) 0.2096(6) 0.1596(5)
N8 N -0.2399(7) 0.2808(5) 0.4083(5)
N9 N -0.6159(8) 0.1126(6) 0.4536(6)
S1 S -0.4089(2) 0.28761(18) 0.22616(16)
S2 S 0.0249(2) 0.30940(19) 0.31451(17)
S3 S -0.7284(2) -0.03172(17) 0.62389(17)
Cd1A Cd -0.57278(5) -0.19671(4) 0.57691(4)
Cd2A Cd -0.93387(5) 0.19729(4) 1.16803(4)
Cd2A_2 Cd 0.06613(5) 0.19729(4) 0.16803(4)
O2A O -0.1577(6) -0.1186(4) 0.9763(4)
N4A N -0.0683(6) -0.0279(5) 0.7350(4)
N7A N 0.1484(7) -0.2096(6) 0.8404(5)
S2A S -0.0249(2) -0.30940(19) 0.68549(17)
S3A S -0.2716(2) 0.03172(17) 0.37611(17)
O4 O 0.7903(13) 0.2802(10) 0.9006(9)
O5 O 0.653(2) 0.4070(17) 0.9203(17)
O8 O 0.6085(15) 0.2705(12) 0.8580(11)
O9 O 0.7604(18) 0.3657(15) 0.7482(14)
Cl1 Cl 0.6994(3) 0.3456(2) 0.8501(2)
O6? O 0.561(3) 0.364(2) 0.8516(19)
O7? O 0.760(3) 0.436(2) 0.796(2)
loop_
_geom_bond_atom_site_label_1
_geom_bond_atom_site_label_2
_geom_bond_site_symmetry_1
_geom_bond_site_symmetry_2
Cd1 O3 1_555 1_555
Cd2 O1 1_555 1_555
C1 C2 1_555 1_555
C2 H1 1_555 1_555
C3 C2 1_555 1_555
C4 C3 1_555 1_555
H2 C4 1_555 1_555
C5 C4 1_555 1_555
C6 C1 1_555 1_555
H3 C6 1_555 1_555
C7 C1 1_555 1_555
C8 H4 1_555 1_555
H5 C8 1_555 1_555
C9 C8 1_555 1_555
C10 H6 1_555 1_555
C11 C10 1_555 1_555
H7 C11 1_555 1_555
C12 C11 1_555 1_555
H8 C12 1_555 1_555
C13 C9 1_555 1_555
H9 C13 1_555 1_555
C14 C3 1_555 1_555
C15 H10 1_555 1_555
H11 C15 1_555 1_555
C16 C15 1_555 1_555
C17 H12 1_555 1_555
C18 C17 1_555 1_555
H13 C18 1_555 1_555
C19 C18 1_555 1_555
H14 C19 1_555 1_555
C20 C16 1_555 1_555
H15 C20 1_555 1_555
C21 C5 1_555 1_555
C22 H16 1_555 1_555
H17 C22 1_555 1_555
C23 C22 1_555 1_555
C24 H18 1_555 1_555
C25 C24 1_555 1_555
H19 C25 1_555 1_555
C26 C25 1_555 1_555
H20 C26 1_555 1_555
C27 C23 1_555 1_555
H21 C27 1_555 1_555
C28 N7 1_555 1_555
C29 N8 1_555 1_555
C30 N9 1_555 1_555
O1 C7 1_555 1_555
O2 C14 1_555 1_555
O3 C21 1_555 1_555
O4 Cl1 1_555 1_555
O5 Cl1 1_555 1_555
O8 Cl1 1_555 1_555
O9 Cl1 1_555 1_555
N1 C7 1_555 1_555
H22 N1 1_555 1_555
N2 Cd2 1_555 1_555
N3 C14 1_555 1_555
H23 N3 1_555 1_555
N4 C16 1_555 1_555
N5 C21 1_555 1_555
H24 N5 1_555 1_555
N6 Cd1 1_555 1_555
N7 Cd2A_2 1_555 1_555
N8 Cd1 1_555 1_555
N9 Cd1 1_555 1_555
S1 Cd1 1_555 1_555
S2 C29 1_555 1_555
S3 C30 1_555 1_555
Cd1A S3 1_555 1_555
Cd2A O2 1_555 1_555
Cd2A_2 S2 1_555 1_555
O2A Cd2 1_555 1_555
N4A Cd2 1_555 1_555
N7A Cd2 1_555 1_555
S2A Cd2 1_555 1_555
S3A Cd1 1_555 1_555
C5 C6 1_555 1_555
C8 N1 1_555 1_555
C9 N2 1_555 1_555
C10 N2 1_555 1_555
C12 C13 1_555 1_555
C15 N3 1_555 1_555
C17 N4 1_555 1_555
C19 C20 1_555 1_555
C22 N5 1_555 1_555
C23 N6 1_555 1_555
C24 N6 1_555 1_555
C26 C27 1_555 1_555
C28 S1 1_555 1_555
N4 Cd2A 1_555 1_555

#END
