
#######################################################################
#
#                 Cambridge Crystallographic Data Centre
#                                CCDC 
#
#######################################################################
#
# If this CIF has been generated from an entry in the Cambridge 
# Structural Database, then it will include bibliographic, chemical, 
# crystal, experimental, refinement or atomic coordinate data resulting 
# from the CCDC's data processing and validation procedures.
#
#######################################################################

data_WIKWET
_symmetry_cell_setting           rhombohedral
_symmetry_space_group_name_H-M   'R -3'
_symmetry_Int_Tables_number      148
_space_group_name_Hall           '-R 3'
loop_
_symmetry_equiv_pos_site_id
_symmetry_equiv_pos_as_xyz
1 x,y,z
2 -y,x-y,z
3 -x+y,-x,z
4 2/3+x,1/3+y,1/3+z
5 2/3-y,1/3+x-y,1/3+z
6 2/3-x+y,1/3-x,1/3+z
7 1/3+x,2/3+y,2/3+z
8 1/3-y,2/3+x-y,2/3+z
9 1/3-x+y,2/3-x,2/3+z
10 -x,-y,-z
11 y,-x+y,-z
12 x-y,x,-z
13 1/3-x,2/3-y,2/3-z
14 1/3+y,2/3-x+y,2/3-z
15 1/3+x-y,2/3+x,2/3-z
16 2/3-x,1/3-y,1/3-z
17 2/3+y,1/3-x+y,1/3-z
18 2/3+x-y,1/3+x,1/3-z
_cell_length_a                   19.750(3)
_cell_length_b                   19.750(3)
_cell_length_c                   21.590(4)
_cell_angle_alpha                90
_cell_angle_beta                 90
_cell_angle_gamma                120.00
_cell_volume                     7293.19
loop_
_atom_site_label
_atom_site_type_symbol
_atom_site_fract_x
_atom_site_fract_y
_atom_site_fract_z
Cd1 Cd 0.5000 0.0000 0.0000
C1 C 0.4762(3) -0.0461(3) 0.14123(19)
H1 H 0.5026 -0.0716 0.1258
C2 C 0.4535(3) -0.0563(3) 0.2028(2)
H2 H 0.4640 -0.0883 0.2293
C3 C 0.4152(3) -0.0188(4) 0.2243(2)
H3 H 0.3991 -0.0245 0.2663
C4 C 0.4006(3) 0.0266(3) 0.1849(2)
H4 H 0.3736 0.0521 0.1994
C5 C 0.4250(2) 0.0354(2) 0.12448(18)
C6 C 0.4124(2) 0.0869(2) 0.0802(2)
H5 H 0.3949 0.0600 0.0398
H6 H 0.3706 0.0958 0.0964
C7 C 0.53346(19) 0.17718(19) 0.02502(17)
C8 C 0.60176(18) 0.25841(18) 0.02272(16)
C9 C 0.67664(19) 0.26813(19) 0.02250(16)
C10 C 0.6923(2) 0.0827(2) 0.02898(17)
N1 N 0.46213(19) -0.00137(18) 0.10271(14)
N2 N 0.48405(19) 0.16286(18) 0.07112(18)
N3 N 0.6248(2) 0.0502(2) 0.03206(19)
O1 O 0.52577(15) 0.12770(13) -0.01372(12)
S1 S 0.78627(7) 0.12557(9) 0.02763(8)
H7 H 0.684(2) 0.221(3) 0.026(2)
H8 H 0.495(4) 0.193(4) 0.096(3)
Cd1A Cd 1.0000 0.5000 0.0000
Cd1B Cd 0.5000 0.5000 0.0000
Cd1A_2 Cd 0.0000 -0.5000 0.0000
Cd1B_2 Cd 0.5000 -0.5000 0.0000
C1A C 1.0461(3) 0.5223(4) 0.14123(19)
C1B C 0.4777(4) 0.5238(3) 0.14123(19)
C1I C 0.5238(3) 0.0461(3) -0.14123(19)
C1J C -0.0461(3) -0.5223(4) -0.14123(19)
C1K C 0.5223(4) -0.5238(3) -0.14123(19)
H1A H 1.0716 0.5742 0.1258
H1B H 0.4258 0.4974 0.1258
H1I H 0.4974 0.0716 -0.1258
H1J H -0.0716 -0.5742 -0.1258
H1K H 0.5742 -0.4974 -0.1258
C2A C 1.0563(3) 0.5098(4) 0.2028(2)
C2B C 0.4902(4) 0.5465(3) 0.2028(2)
C2I C 0.5465(3) 0.0563(3) -0.2028(2)
C2J C -0.0563(3) -0.5098(4) -0.2028(2)
C2K C 0.5098(4) -0.5465(3) -0.2028(2)
H2A H 1.0883 0.5523 0.2293
H2B H 0.4477 0.5360 0.2293
H2I H 0.5360 0.0883 -0.2293
H2J H -0.0883 -0.5523 -0.2293
H2K H 0.5523 -0.5360 -0.2293
C3A C 1.0188(4) 0.4340(5) 0.2243(2)
C3B C 0.5660(5) 0.5848(3) 0.2243(2)
C3I C 0.5848(3) 0.0188(4) -0.2243(2)
C3J C -0.0188(4) -0.4340(5) -0.2243(2)
C3K C 0.4340(5) -0.5848(3) -0.2243(2)
H3A H 1.0245 0.4236 0.2663
H3B H 0.5764 0.6009 0.2663
H3I H 0.6009 0.0245 -0.2663
H3J H -0.0245 -0.4236 -0.2663
H3K H 0.4236 -0.6009 -0.2663
C4A C 0.9734(3) 0.3740(4) 0.1849(2)
C4B C 0.6260(4) 0.5994(3) 0.1849(2)
C4I C 0.5994(3) -0.0266(3) -0.1849(2)
C4J C 0.0266(3) -0.3740(4) -0.1849(2)
C4K C 0.3740(4) -0.5994(3) -0.1849(2)
H4A H 0.9479 0.3215 0.1994
H4B H 0.6785 0.6264 0.1994
H4I H 0.6264 -0.0521 -0.1994
H4J H 0.0521 -0.3215 -0.1994
H4K H 0.3215 -0.6264 -0.1994
C5A C 0.9646(2) 0.3896(3) 0.12448(18)
C5B C 0.6104(3) 0.5750(2) 0.12448(18)
C5I C 0.5750(2) -0.0354(2) -0.12448(18)
C5J C 0.0354(2) -0.3896(3) -0.12448(18)
C5K C 0.3896(3) -0.5750(2) -0.12448(18)
C6A C 0.9131(2) 0.3255(3) 0.0802(2)
C6B C 0.6745(3) 0.5876(2) 0.0802(2)
C6I C 0.5876(2) -0.0869(2) -0.0802(2)
C6J C 0.0869(2) -0.3255(3) -0.0802(2)
C6K C 0.3255(3) -0.5876(2) -0.0802(2)
H5A H 0.9400 0.3349 0.0398
H5B H 0.6651 0.6051 0.0398
H5I H 0.6051 -0.0600 -0.0398
H5J H 0.0600 -0.3349 -0.0398
H5K H 0.3349 -0.6051 -0.0398
H6A H 0.9042 0.2748 0.0964
H6B H 0.7252 0.6294 0.0964
H6I H 0.6294 -0.0958 -0.0964
H6J H 0.0958 -0.2748 -0.0964
H6K H 0.2748 -0.6294 -0.0964
C7A C 0.82282(19) 0.35628(27) 0.02502(17)
C7B C 0.64372(27) 0.46654(19) 0.02502(17)
C7I C 0.46654(19) -0.17718(19) -0.02502(17)
C7J C 0.17718(19) -0.35628(27) -0.02502(17)
C7K C 0.35628(27) -0.46654(19) -0.02502(17)
C8A C 0.74159(18) 0.34335(25) 0.02272(16)
C8B C 0.65665(25) 0.39824(18) 0.02272(16)
C8I C 0.39824(18) -0.25841(18) -0.02272(16)
C8J C 0.25841(18) -0.34335(25) -0.02272(16)
C8K C 0.34335(25) -0.39824(18) -0.02272(16)
C9A C 0.73187(19) 0.40851(27) 0.02250(16)
C9B C 0.59149(27) 0.32336(19) 0.02250(16)
C9I C 0.32336(19) -0.26813(19) -0.02250(16)
C9J C 0.26813(19) -0.40851(27) -0.02250(16)
C9K C 0.40851(27) -0.32336(19) -0.02250(16)
C10I C 0.3077(2) -0.0827(2) -0.02898(17)
C10A C 0.9173(2) 0.6096(3) 0.02898(17)
C10J C 1.0827(2) 0.3904(3) -0.02898(17)
C10B C 0.3904(3) 0.3077(2) 0.02898(17)
C10K C 0.6096(3) 0.6923(2) -0.02898(17)
N1A N 1.00137(18) 0.46350(26) 0.10271(14)
N1B N 0.53650(26) 0.53787(19) 0.10271(14)
N1I N 0.53787(19) 0.00137(18) -0.10271(14)
N1J N -0.00137(18) -0.46350(26) -0.10271(14)
N1K N 0.46350(26) -0.53787(19) -0.10271(14)
N1J_2 N 0.99863(18) 0.53650(26) -0.10271(14)
N1K_2 N 0.46350(26) 0.46213(19) -0.10271(14)
N2A N 0.83714(18) 0.32119(26) 0.07112(18)
N2B N 0.67881(26) 0.51595(19) 0.07112(18)
N2I N 0.51595(19) -0.16286(18) -0.07112(18)
N2J N 0.16286(18) -0.32119(26) -0.07112(18)
N2K N 0.32119(26) -0.51595(19) -0.07112(18)
N3I N 0.3752(2) -0.0502(2) -0.03206(19)
N3A N 0.9498(2) 0.5746(3) 0.03206(19)
N3J N 1.0502(2) 0.4254(3) -0.03206(19)
N3B N 0.4254(3) 0.3752(2) 0.03206(19)
N3K N 0.5746(3) 0.6248(2) -0.03206(19)
O1A O 0.87230(13) 0.39807(20) -0.01372(12)
O1B O 0.60193(20) 0.47423(15) -0.01372(12)
O1I O 0.47423(15) -0.12770(13) 0.01372(12)
O1J O 0.12770(13) -0.39807(20) 0.01372(12)
O1K O 0.39807(20) -0.47423(15) 0.01372(12)
O1J_2 O 1.12770(13) 0.60193(20) 0.01372(12)
O1K_2 O 0.39807(20) 0.52577(15) 0.01372(12)
S1I S 0.21373(7) -0.12557(9) -0.02763(8)
S1A S 0.87443(9) 0.66070(11) 0.02763(8)
S1J S 1.12557(9) 0.33930(11) -0.02763(8)
S1B S 0.33930(11) 0.21373(7) 0.02763(8)
S1K S 0.66070(11) 0.78627(7) -0.02763(8)
H7B H 0.537(4) 0.316(2) 0.026(2)
H7A H 0.779(3) 0.463(4) 0.026(2)
H7I H 0.316(2) -0.221(3) -0.026(2)
H7K H 0.463(4) -0.316(2) -0.026(2)
H7J H 0.221(3) -0.463(4) -0.026(2)
H8A H 0.807(4) 0.302(6) 0.096(3)
H8B H 0.698(6) 0.505(4) 0.096(3)
H8I H 0.505(4) -0.193(4) -0.096(3)
H8J H 0.193(4) -0.302(6) -0.096(3)
H8K H 0.302(6) -0.505(4) -0.096(3)
C13 C 0.5173(11) 0.6907(10) 0.7368(8)
C15 C 0.4397(13) 0.6356(12) 0.8346(9)
C16 C 0.4472(12) 0.6214(11) 0.7645(9)
C18 C 0.4841(18) 0.7447(19) 0.7728(15)
O2 O 0.4870(3) 0.7271(3) 0.8328(2)
O3 O 0.3315(10) 0.7280(8) 0.1663(8)
C11? C 0.5059(15) 0.6594(13) 0.8320(10)
C12? C 0.5097(11) 0.6387(11) 0.7730(8)
C14? C 0.5491(15) 0.7280(15) 0.8075(11)
C17? C 0.4766(13) 0.6872(11) 0.7263(9)
loop_
_geom_bond_atom_site_label_1
_geom_bond_atom_site_label_2
_geom_bond_site_symmetry_1
_geom_bond_site_symmetry_2
Cd1 N1 1_555 1_555
C1 H1 1_555 1_555
C2 C1 1_555 1_555
H2 C2 1_555 1_555
C3 C2 1_555 1_555
H3 C3 1_555 1_555
C4 C3 1_555 1_555
H4 C4 1_555 1_555
C5 C4 1_555 1_555
C6 C5 1_555 1_555
H5 C6 1_555 1_555
H6 C6 1_555 1_555
C7 C8 1_555 1_555
C8 C9 1_555 1_555
C9 H7 1_555 1_555
C10 N3 1_555 1_555
C13 C16 1_555 1_555
C15 C16 1_555 1_555
C18 C13 1_555 1_555
N1 C1 1_555 1_555
N2 C6 1_555 1_555
N3 Cd1 1_555 1_555
O1 Cd1 1_555 1_555
O2 C15 1_555 1_555
S1 C10 1_555 1_555
H8 N2 1_555 1_555
Cd1A N1A 1_555 1_555
Cd1B N1B 1_555 1_555
Cd1A_2 N1J 1_555 1_555
Cd1B_2 N1K 1_555 1_555
C1A H1A 1_555 1_555
C1B H1B 1_555 1_555
C1I H1I 1_555 1_555
C1J H1J 1_555 1_555
C1K H1K 1_555 1_555
C2A C1A 1_555 1_555
C2B C1B 1_555 1_555
C2I C1I 1_555 1_555
C2J C1J 1_555 1_555
C2K C1K 1_555 1_555
H2A C2A 1_555 1_555
H2B C2B 1_555 1_555
H2I C2I 1_555 1_555
H2J C2J 1_555 1_555
H2K C2K 1_555 1_555
C3A C2A 1_555 1_555
C3B C2B 1_555 1_555
C3I C2I 1_555 1_555
C3J C2J 1_555 1_555
C3K C2K 1_555 1_555
H3A C3A 1_555 1_555
H3B C3B 1_555 1_555
H3I C3I 1_555 1_555
H3J C3J 1_555 1_555
H3K C3K 1_555 1_555
C4A C3A 1_555 1_555
C4B C3B 1_555 1_555
C4I C3I 1_555 1_555
C4J C3J 1_555 1_555
C4K C3K 1_555 1_555
H4A C4A 1_555 1_555
H4B C4B 1_555 1_555
H4I C4I 1_555 1_555
H4J C4J 1_555 1_555
H4K C4K 1_555 1_555
C5A C4A 1_555 1_555
C5B C4B 1_555 1_555
C5I C4I 1_555 1_555
C5J C4J 1_555 1_555
C5K C4K 1_555 1_555
C6A C5A 1_555 1_555
C6B C5B 1_555 1_555
C6I C5I 1_555 1_555
C6J C5J 1_555 1_555
C6K C5K 1_555 1_555
H5A C6A 1_555 1_555
H5B C6B 1_555 1_555
H5I C6I 1_555 1_555
H5J C6J 1_555 1_555
H5K C6K 1_555 1_555
H6A C6A 1_555 1_555
H6B C6B 1_555 1_555
H6I C6I 1_555 1_555
H6J C6J 1_555 1_555
H6K C6K 1_555 1_555
C7A C8A 1_555 1_555
C7B C8B 1_555 1_555
C7I C8I 1_555 1_555
C7J C8J 1_555 1_555
C7K C8K 1_555 1_555
C8A C9 1_555 1_555
C8B C9A 1_555 1_555
C8I C9I 1_555 1_555
C8J C9I 1_555 1_555
C8K C9J 1_555 1_555
C9A C8A 1_555 1_555
C9B C8 1_555 1_555
C9I H7I 1_555 1_555
C9J C8J 1_555 1_555
C9K C8I 1_555 1_555
C10I N3I 1_555 1_555
C10A N3A 1_555 1_555
C10J N3J 1_555 1_555
C10B N3B 1_555 1_555
C10K N3K 1_555 1_555
N1A C1A 1_555 1_555
N1B C1B 1_555 1_555
N1I Cd1 1_555 1_555
N1J C1J 1_555 1_555
N1K C1K 1_555 1_555
N1J_2 Cd1A 1_555 1_555
N1K_2 Cd1B 1_555 1_555
N2A C6A 1_555 1_555
N2B C6B 1_555 1_555
N2I C6I 1_555 1_555
N2J C6J 1_555 1_555
N2K C6K 1_555 1_555
N3I Cd1 1_555 1_555
N3A Cd1A 1_555 1_555
N3J Cd1A 1_555 1_555
N3B Cd1B 1_555 1_555
N3K Cd1B 1_555 1_555
O1A Cd1A 1_555 1_555
O1B Cd1B 1_555 1_555
O1I Cd1 1_555 1_555
O1J Cd1A_2 1_555 1_555
O1K Cd1B_2 1_555 1_555
O1J_2 Cd1A 1_555 1_555
O1K_2 Cd1B 1_555 1_555
S1I C10I 1_555 1_555
S1A C10A 1_555 1_555
S1J C10J 1_555 1_555
S1B C10B 1_555 1_555
S1K C10K 1_555 1_555
H7B C9B 1_555 1_555
H7A C9A 1_555 1_555
H7K C9K 1_555 1_555
H7J C9J 1_555 1_555
H8A N2A 1_555 1_555
H8B N2B 1_555 1_555
H8I N2I 1_555 1_555
H8J N2J 1_555 1_555
H8K N2K 1_555 1_555
C5 N1 1_555 1_555
C7 N2 1_555 1_555
C7 O1 1_555 1_555
C18 O2 1_555 1_555
C1I N1I 1_555 1_555
C5A N1A 1_555 1_555
C5B N1B 1_555 1_555
C5I N1I 1_555 1_555
C5J N1J 1_555 1_555
C5K N1K 1_555 1_555
C7A N2A 1_555 1_555
C7A O1A 1_555 1_555
C7B N2B 1_555 1_555
C7B O1B 1_555 1_555
C7I N2I 1_555 1_555
C7I O1I 1_555 1_555
C7J N2J 1_555 1_555
C7J O1J 1_555 1_555
C7K N2K 1_555 1_555
C7K O1K 1_555 1_555
C8B C9B 1_555 1_555
C8K C9K 1_555 1_555

#END
