
#######################################################################
#
#                 Cambridge Crystallographic Data Centre
#                                CCDC 
#
#######################################################################
#
# If this CIF has been generated from an entry in the Cambridge 
# Structural Database, then it will include bibliographic, chemical, 
# crystal, experimental, refinement or atomic coordinate data resulting 
# from the CCDC's data processing and validation procedures.
#
#######################################################################

data_WIKXUJ
_symmetry_cell_setting           orthorhombic
_symmetry_space_group_name_H-M   'P 21 21 21'
_symmetry_Int_Tables_number      19
_space_group_name_Hall           'P 2ac 2ab'
loop_
_symmetry_equiv_pos_site_id
_symmetry_equiv_pos_as_xyz
1 x,y,z
2 1/2-x,-y,1/2+z
3 -x,1/2+y,1/2-z
4 1/2+x,1/2-y,-z
_cell_length_a                   15.360(1)
_cell_length_b                   22.493(1)
_cell_length_c                   23.830(1)
_cell_angle_alpha                90
_cell_angle_beta                 90
_cell_angle_gamma                90
_cell_volume                     8233.09
loop_
_atom_site_label
_atom_site_type_symbol
_atom_site_fract_x
_atom_site_fract_y
_atom_site_fract_z
Co1 Co 0.29304(3) 0.098814(18) 0.218785(19)
C1 C 0.2612(2) 0.12333(15) 0.14593(16)
N1 N 0.2395(2) 0.13900(15) 0.10166(15)
C2 C 0.1916(2) 0.19000(14) 0.27380(15)
C3 C 0.0945(2) 0.21006(15) 0.26838(15)
C4 C 0.0454(2) 0.14915(15) 0.27361(15)
H1 H -0.0097 0.1509 0.2513
C5 C 0.1094(2) 0.10875(15) 0.24432(14)
C6 C 0.0856(2) 0.05407(14) 0.21487(15)
C7 C 0.1482(2) 0.01523(15) 0.19726(15)
C8 C 0.1367(2) -0.04525(16) 0.16647(17)
C9 C 0.2211(2) -0.07689(15) 0.18615(17)
H2 H 0.2415 -0.1057 0.1570
C10 C 0.2828(2) -0.02480(15) 0.18987(16)
C11 C 0.3692(2) -0.02763(16) 0.17782(17)
H3 H 0.3930 -0.0658 0.1705
C12 C 0.4254(2) 0.02049(15) 0.17538(15)
C13 C 0.5141(2) 0.01854(15) 0.14683(16)
C14 C 0.5575(2) 0.07478(15) 0.17199(16)
H4 H 0.5907 0.0960 0.1419
C15 C 0.4798(2) 0.11178(15) 0.18880(15)
C16 C 0.4832(2) 0.17092(15) 0.20226(15)
C17 C 0.4080(2) 0.20257(14) 0.22203(15)
C18 C 0.4002(2) 0.27048(14) 0.22937(14)
C19 C 0.3103(2) 0.27583(14) 0.25949(15)
H5 H 0.3204 0.2699 0.3006
C20 C 0.2614(2) 0.22101(15) 0.23751(15)
H6 H 0.2358 0.2306 0.2000
C21 C 0.2234(2) 0.18647(15) 0.33561(15)
H7 H 0.1875 0.1579 0.3563
H8 H 0.2185 0.2257 0.3531
H9 H 0.2843 0.1735 0.3364
N2 N 0.18804(18) 0.12894(12) 0.24776(12)
N3 N 0.23760(19) 0.02439(12) 0.20411(12)
N4 N 0.40608(19) 0.07509(12) 0.19266(13)
N5 N 0.33248(18) 0.17717(12) 0.23001(12)
C22 C 0.0666(3) 0.25717(17) 0.31138(19)
H10 H 0.0969 0.2946 0.3035
H11 H 0.0815 0.2435 0.3492
H12 H 0.0036 0.2634 0.3088
C23 C 0.0758(2) 0.23471(16) 0.20796(17)
H13 H 0.1137 0.2696 0.2011
H14 H 0.0913 0.2038 0.1801
C24 C -0.0179(3) 0.25282(19) 0.1990(2)
O1 O -0.07946(19) 0.22183(16) 0.21202(18)
N6 N -0.0320(3) 0.3087(2) 0.1845(2)
H15 H -0.0853 0.3230 0.1844
H16 H 0.0120 0.3316 0.1750
C25 C 0.0241(3) 0.12808(17) 0.33500(16)
H17 H 0.0766 0.1092 0.3512
H18 H 0.0100 0.1633 0.3582
C26 C -0.0503(2) 0.08502(17) 0.33803(16)
H19 H -0.0313 0.0461 0.3229
H20 H -0.0986 0.0997 0.3143
C27 C -0.0831(2) 0.07656(17) 0.39809(15)
O2 O -0.08763(17) 0.11930(11) 0.43175(11)
N7 N -0.1076(2) 0.02202(13) 0.41221(14)
H21 H -0.1278 0.0150 0.4461
H22 H -0.1037 -0.0071 0.3877
C28 C -0.0094(2) 0.04487(17) 0.20138(16)
H23 H -0.0149 0.0269 0.1641
H24 H -0.0396 0.0833 0.2019
H25 H -0.0355 0.0184 0.2294
C29 C 0.0561(3) -0.08224(17) 0.17855(19)
H26 H 0.0436 -0.0813 0.2189
H27 H 0.0663 -0.1234 0.1668
H28 H 0.0065 -0.0659 0.1578
C30 C 0.1468(3) -0.03523(18) 0.10124(17)
H29 H 0.2023 -0.0140 0.0947
H30 H 0.1517 -0.0747 0.0831
C31 C 0.0753(3) -0.00115(19) 0.07189(16)
O3 O 0.01220(19) -0.02780(16) 0.05072(13)
N8 N 0.0828(2) 0.05725(17) 0.06836(15)
H31 H 0.0428 0.0781 0.0508
H32 H 0.1279 0.0753 0.0836
C32 C 0.2125(2) -0.10841(16) 0.24398(18)
H33 H 0.1798 -0.0822 0.2698
H34 H 0.1784 -0.1454 0.2391
C33 C 0.2999(2) -0.12395(17) 0.27066(19)
H35 H 0.3382 -0.1414 0.2416
H36 H 0.3277 -0.0869 0.2841
C34 C 0.2932(3) -0.16652(19) 0.3185(2)
O4 O 0.2429(2) -0.21069(14) 0.31604(14)
N9 N 0.3447(4) -0.1583(2) 0.3630(2)
H37 H 0.3437 -0.1838 0.3910
H38 H 0.3796 -0.1273 0.3644
C35 C 0.4970(3) 0.02781(18) 0.08291(16)
H39 H 0.4652 -0.0065 0.0680
H40 H 0.5527 0.0318 0.0632
H41 H 0.4623 0.0639 0.0774
C36 C 0.5635(2) -0.03987(16) 0.15560(18)
H42 H 0.5704 -0.0473 0.1959
H43 H 0.6210 -0.0371 0.1379
H44 H 0.5306 -0.0726 0.1386
C37 C 0.6169(2) 0.06448(15) 0.22243(17)
H45 H 0.5960 0.0293 0.2435
H46 H 0.6133 0.0993 0.2477
C38 C 0.7127(2) 0.05461(16) 0.20569(17)
H47 H 0.7439 0.0345 0.2367
H48 H 0.7155 0.0287 0.1722
C39 C 0.7563(2) 0.11326(18) 0.19302(18)
O5 O 0.76441(17) 0.15054(11) 0.23125(13)
N10 N 0.7831(3) 0.12219(18) 0.14101(18)
H49 H 0.8082 0.1560 0.1319
H50 H 0.7758 0.0943 0.1155
C40 C 0.5690(2) 0.20328(15) 0.19638(18)
H51 H 0.5947 0.2092 0.2336
H52 H 0.5592 0.2420 0.1786
H53 H 0.6087 0.1796 0.1732
C41 C 0.4008(2) 0.29810(15) 0.17023(15)
H54 H 0.4532 0.2852 0.1501
H55 H 0.4007 0.3415 0.1733
H56 H 0.3490 0.2851 0.1496
C42 C 0.4692(2) 0.29983(14) 0.26838(15)
H57 H 0.5246 0.3029 0.2474
H58 H 0.4498 0.3408 0.2770
C43 C 0.4873(2) 0.26745(16) 0.32451(17)
H59 H 0.4317 0.2615 0.3448
H60 H 0.5125 0.2278 0.3167
C44 C 0.5492(2) 0.30242(15) 0.36099(16)
O6 O 0.62426(16) 0.31334(11) 0.34548(11)
N11 N 0.5171(2) 0.32337(13) 0.41018(14)
H61 H 0.4634 0.3145 0.4198
C45 C 0.2663(2) 0.33584(15) 0.25193(16)
H62 H 0.2145 0.3309 0.2277
H63 H 0.3070 0.3632 0.2326
C46 C 0.2384(2) 0.36370(15) 0.30751(16)
O7 O 0.26978(17) 0.34735(11) 0.35300(11)
N12 N 0.1812(2) 0.40717(13) 0.30358(15)
H64 H 0.1637 0.4259 0.3340
H65 H 0.1604 0.4175 0.2706
C47 C 0.5698(3) 0.36040(16) 0.44757(17)
H66 H 0.5303 0.3828 0.4726
H67 H 0.6021 0.3897 0.4246
C48 C 0.6344(3) 0.32649(16) 0.48338(16)
H68 H 0.6711 0.3005 0.4589
C49 C 0.6932(3) 0.36800(18) 0.51753(18)
H69 H 0.6574 0.3922 0.5427
H70 H 0.7256 0.3940 0.4920
H71 H 0.7342 0.3443 0.5397
P1 P 0.59742(6) 0.22042(4) 0.52579(4)
O8 O 0.57985(17) 0.20307(10) 0.46053(10)
O9 O 0.58485(17) 0.28983(10) 0.52243(11)
O10 O 0.68948(17) 0.20553(11) 0.53912(11)
O11 O 0.52861(17) 0.19567(11) 0.56306(11)
C50 C 0.4916(2) 0.06456(16) 0.40716(16)
H72 H 0.4993 0.0298 0.4328
C51 C 0.4771(2) 0.12120(15) 0.44185(16)
H73 H 0.4485 0.1130 0.4787
C52 C 0.5720(2) 0.14145(15) 0.44835(16)
H74 H 0.6017 0.1174 0.4780
C53 C 0.6110(2) 0.12740(15) 0.39066(16)
H75 H 0.5968 0.1598 0.3634
C54 C 0.7071(3) 0.11667(17) 0.39197(16)
H76 H 0.7373 0.1544 0.4009
H77 H 0.7206 0.0878 0.4221
O12 O 0.56820(17) 0.07260(11) 0.37429(11)
O13 O 0.42877(16) 0.16169(11) 0.40831(11)
H78 H 0.4026 0.1860 0.4292
O14 O 0.73926(18) 0.09412(14) 0.33934(13)
H79 H 0.7471 0.1225 0.3170
N13 N 0.4204(2) 0.05301(12) 0.36842(13)
C55 C 0.4071(2) 0.08017(14) 0.31797(15)
H80 H 0.4496 0.1043 0.3001
N14 N 0.32976(18) 0.06980(12) 0.29641(13)
C56 C 0.2037(3) 0.01099(14) 0.33928(16)
H81 H 0.1636 0.0180 0.3097
C57 C 0.1796(2) -0.02387(16) 0.38582(17)
C58 C 0.2387(3) -0.03404(18) 0.43065(17)
C59 C 0.3213(3) -0.00945(17) 0.42906(17)
H82 H 0.3614 -0.0155 0.4589
C60 C 0.3435(2) 0.02424(15) 0.38246(15)
C61 C 0.2861(2) 0.03485(14) 0.33725(15)
C62 C 0.0914(3) -0.0522(2) 0.3870(2)
H83 H 0.0563 -0.0339 0.4166
H84 H 0.0975 -0.0948 0.3943
H85 H 0.0627 -0.0463 0.3506
C63 C 0.2114(3) -0.0721(3) 0.4800(2)
H86 H 0.2621 -0.0801 0.5038
H87 H 0.1875 -0.1098 0.4662
H88 H 0.1670 -0.0511 0.5018
Li1 Li 0.2337(4) 0.3647(3) 0.4285(3)
Li2 Li -0.1969(4) 0.2322(3) 0.2379(3)
O15 O -0.2206(2) 0.25165(13) 0.31737(13)
H89 H -0.1873 0.2485 0.3493
H90 H -0.2744 0.2655 0.3269
O16 O 0.33088(19) 0.40199(12) 0.46608(12)
H91 H 0.3254 0.4424 0.4659
H92 H 0.3627 0.3905 0.4969
O17 O 0.1523(2) 0.43545(14) 0.42372(13)
H93 H 0.1824 0.4665 0.4390
H94 H 0.0941 0.4436 0.4247
Li2B Li 0.1969(4) -0.2678(3) 0.2621(3)
Li2_2 Li 0.8031(4) 0.2322(3) 0.2379(3)
Li1C Li 0.7337(4) 0.1353(3) 0.5715(3)
O10C O 0.18948(17) 0.29447(11) 0.46088(11)
O4B O -0.2429(2) 0.28931(14) 0.18396(14)
O5_2 O -0.23559(17) 0.15054(11) 0.23125(13)
Cl1 Cl 0.10912(9) 0.41595(6) 0.17729(6)
Cl2 Cl 0.72645(8) 0.03776(5) 0.03059(5)
O18 O 0.86069(18) 0.24434(12) 0.53478(12)
H95 H 0.8014 0.2429 0.5366
H96 H 0.8786 0.2321 0.4997
O19 O 0.38469(17) 0.25942(12) 0.58690(12)
H97 H 0.4347 0.2381 0.5821
H98 H 0.3965 0.2990 0.5834
O20 O 0.6884(3) -0.03345(19) 0.33195(18)
O21 O 0.1729(4) 0.3236(2) 0.1030(2)
O22 O 0.1780(5) -0.2600(4) 0.4163(4)
O23 O 0.2276(7) 0.2356(5) 0.0208(5)
O24 O 0.4907(10) -0.0814(7) 0.3963(7)
O25 O 0.8277(7) 0.0951(5) -0.0634(5)
O26 O 0.4187(7) -0.2236(5) 0.4521(4)
O27 O -0.0653(15) 0.1034(10) 0.0021(9)
O28 O 0.5073(18) -0.0596(12) 0.3138(12)
O29? O 0.6352(10) -0.0400(6) 0.3355(6)
O30? O 0.0073(10) 0.1249(6) -0.0323(6)
O31? O 0.6231(12) -0.0603(7) 0.4391(7)
O32? O 0.5033(8) -0.0697(5) 0.3653(6)
loop_
_geom_bond_atom_site_label_1
_geom_bond_atom_site_label_2
_geom_bond_site_symmetry_1
_geom_bond_site_symmetry_2
Co1 C1 1_555 1_555
C1 N1 1_555 1_555
C2 C3 1_555 1_555
C3 C4 1_555 1_555
C4 H1 1_555 1_555
C5 C4 1_555 1_555
C6 C5 1_555 1_555
C7 C6 1_555 1_555
C8 C7 1_555 1_555
C9 C8 1_555 1_555
H2 C9 1_555 1_555
C10 C9 1_555 1_555
C11 C10 1_555 1_555
H3 C11 1_555 1_555
C12 C11 1_555 1_555
C13 C12 1_555 1_555
C14 C13 1_555 1_555
H4 C14 1_555 1_555
C15 C14 1_555 1_555
C16 C15 1_555 1_555
C17 C16 1_555 1_555
C18 C17 1_555 1_555
C19 C18 1_555 1_555
H5 C19 1_555 1_555
C20 C2 1_555 1_555
H6 C20 1_555 1_555
C21 C2 1_555 1_555
H7 C21 1_555 1_555
H8 C21 1_555 1_555
H9 C21 1_555 1_555
N2 Co1 1_555 1_555
N3 Co1 1_555 1_555
N4 Co1 1_555 1_555
N5 Co1 1_555 1_555
C22 C3 1_555 1_555
H10 C22 1_555 1_555
H11 C22 1_555 1_555
H12 C22 1_555 1_555
C23 C3 1_555 1_555
H13 C23 1_555 1_555
H14 C23 1_555 1_555
C24 C23 1_555 1_555
O1 C24 1_555 1_555
N6 C24 1_555 1_555
H15 N6 1_555 1_555
H16 N6 1_555 1_555
C25 C4 1_555 1_555
H17 C25 1_555 1_555
H18 C25 1_555 1_555
C26 C25 1_555 1_555
H19 C26 1_555 1_555
H20 C26 1_555 1_555
C27 C26 1_555 1_555
O2 C27 1_555 1_555
N7 C27 1_555 1_555
H21 N7 1_555 1_555
H22 N7 1_555 1_555
C28 C6 1_555 1_555
H23 C28 1_555 1_555
H24 C28 1_555 1_555
H25 C28 1_555 1_555
C29 C8 1_555 1_555
H26 C29 1_555 1_555
H27 C29 1_555 1_555
H28 C29 1_555 1_555
C30 C8 1_555 1_555
H29 C30 1_555 1_555
H30 C30 1_555 1_555
C31 C30 1_555 1_555
O3 C31 1_555 1_555
N8 C31 1_555 1_555
H31 N8 1_555 1_555
H32 N8 1_555 1_555
C32 C9 1_555 1_555
H33 C32 1_555 1_555
H34 C32 1_555 1_555
C33 C32 1_555 1_555
H35 C33 1_555 1_555
H36 C33 1_555 1_555
C34 C33 1_555 1_555
O4 C34 1_555 1_555
N9 C34 1_555 1_555
H37 N9 1_555 1_555
H38 N9 1_555 1_555
C35 C13 1_555 1_555
H39 C35 1_555 1_555
H40 C35 1_555 1_555
H41 C35 1_555 1_555
C36 C13 1_555 1_555
H42 C36 1_555 1_555
H43 C36 1_555 1_555
H44 C36 1_555 1_555
C37 C14 1_555 1_555
H45 C37 1_555 1_555
H46 C37 1_555 1_555
C38 C37 1_555 1_555
H47 C38 1_555 1_555
H48 C38 1_555 1_555
C39 C38 1_555 1_555
O5 C39 1_555 1_555
N10 C39 1_555 1_555
H49 N10 1_555 1_555
H50 N10 1_555 1_555
C40 C16 1_555 1_555
H51 C40 1_555 1_555
H52 C40 1_555 1_555
H53 C40 1_555 1_555
C41 C18 1_555 1_555
H54 C41 1_555 1_555
H55 C41 1_555 1_555
H56 C41 1_555 1_555
C42 C18 1_555 1_555
H57 C42 1_555 1_555
H58 C42 1_555 1_555
C43 C42 1_555 1_555
H59 C43 1_555 1_555
H60 C43 1_555 1_555
C44 C43 1_555 1_555
O6 C44 1_555 1_555
N11 C44 1_555 1_555
H61 N11 1_555 1_555
C45 C19 1_555 1_555
H62 C45 1_555 1_555
H63 C45 1_555 1_555
C46 C45 1_555 1_555
O7 C46 1_555 1_555
N12 C46 1_555 1_555
H64 N12 1_555 1_555
H65 N12 1_555 1_555
C47 N11 1_555 1_555
H66 C47 1_555 1_555
H67 C47 1_555 1_555
C48 C47 1_555 1_555
H68 C48 1_555 1_555
C49 C48 1_555 1_555
H69 C49 1_555 1_555
H70 C49 1_555 1_555
H71 C49 1_555 1_555
P1 O8 1_555 1_555
O8 C52 1_555 1_555
O9 C48 1_555 1_555
O10 P1 1_555 1_555
O11 P1 1_555 1_555
C50 H72 1_555 1_555
C51 C50 1_555 1_555
H73 C51 1_555 1_555
C52 C51 1_555 1_555
H74 C52 1_555 1_555
C53 C52 1_555 1_555
H75 C53 1_555 1_555
C54 C53 1_555 1_555
H76 C54 1_555 1_555
H77 C54 1_555 1_555
O12 C50 1_555 1_555
O13 C51 1_555 1_555
H78 O13 1_555 1_555
O14 C54 1_555 1_555
H79 O14 1_555 1_555
N13 C50 1_555 1_555
C55 N13 1_555 1_555
H80 C55 1_555 1_555
N14 Co1 1_555 1_555
C56 H81 1_555 1_555
C57 C56 1_555 1_555
C58 C57 1_555 1_555
C59 C58 1_555 1_555
H82 C59 1_555 1_555
C60 N13 1_555 1_555
C61 N14 1_555 1_555
C62 C57 1_555 1_555
H83 C62 1_555 1_555
H84 C62 1_555 1_555
H85 C62 1_555 1_555
C63 C58 1_555 1_555
H86 C63 1_555 1_555
H87 C63 1_555 1_555
H88 C63 1_555 1_555
Li1 O7 1_555 1_555
Li2 O1 1_555 1_555
O15 Li2 1_555 1_555
H89 O15 1_555 1_555
H90 O15 1_555 1_555
O16 Li1 1_555 1_555
H91 O16 1_555 1_555
H92 O16 1_555 1_555
O17 Li1 1_555 1_555
H93 O17 1_555 1_555
H94 O17 1_555 1_555
O18 H95 1_555 1_555
H96 O18 1_555 1_555
O19 H97 1_555 1_555
H98 O19 1_555 1_555
Li2B O4 1_555 1_555
Li2_2 O5 1_555 1_555
Li1C O10 1_555 1_555
O10C Li1 1_555 1_555
O4B Li2 1_555 1_555
O5_2 Li2 1_555 1_555
C2 N2 1_555 1_555
C5 N2 1_555 1_555
C7 N3 1_555 1_555
C10 N3 1_555 1_555
C12 N4 1_555 1_555
C15 N4 1_555 1_555
C17 N5 1_555 1_555
C19 C20 1_555 1_555
C20 N5 1_555 1_555
P1 O9 1_555 1_555
C53 O12 1_555 1_555
C55 N14 1_555 1_555
C56 C61 1_555 1_555
C59 C60 1_555 1_555
C60 C61 1_555 1_555

#END
