
#######################################################################
#
#                 Cambridge Crystallographic Data Centre
#                                CCDC 
#
#######################################################################
#
# If this CIF has been generated from an entry in the Cambridge 
# Structural Database, then it will include bibliographic, chemical, 
# crystal, experimental, refinement or atomic coordinate data resulting 
# from the CCDC's data processing and validation procedures.
#
#######################################################################

data_WIKYAQ
_symmetry_cell_setting           orthorhombic
_symmetry_space_group_name_H-M   'P 21 21 21'
_symmetry_Int_Tables_number      19
_space_group_name_Hall           'P 2ac 2ab'
loop_
_symmetry_equiv_pos_site_id
_symmetry_equiv_pos_as_xyz
1 x,y,z
2 1/2-x,-y,1/2+z
3 -x,1/2+y,1/2-z
4 1/2+x,1/2-y,-z
_cell_length_a                   16.015(5)
_cell_length_b                   21.146(5)
_cell_length_c                   23.843(5)
_cell_angle_alpha                90
_cell_angle_beta                 90
_cell_angle_gamma                90
_cell_volume                     8074.51
loop_
_atom_site_label
_atom_site_type_symbol
_atom_site_fract_x
_atom_site_fract_y
_atom_site_fract_z
Co1 Co 0.26692(5) 0.11980(4) 0.21419(4)
C1 C 0.2495(4) 0.1407(3) 0.1390(3)
N1 N 0.2357(4) 0.1501(3) 0.0930(3)
N2 N 0.1567(3) 0.1398(2) 0.2320(2)
N3 N 0.2352(3) 0.0356(2) 0.1957(2)
N4 N 0.3831(3) 0.1093(2) 0.1993(2)
N5 N 0.2851(3) 0.2067(2) 0.2296(2)
C2 C 0.1407(4) 0.2032(3) 0.2591(3)
C3 C 0.0460(4) 0.2147(3) 0.2452(3)
C4 C 0.0111(4) 0.1458(3) 0.2420(3)
H1 H -0.0333 0.1442 0.2125
C5 C 0.0870(4) 0.1099(3) 0.2208(3)
C6 C 0.0841(4) 0.0492(3) 0.1941(3)
C7 C 0.1520(4) 0.0136(3) 0.1841(3)
C8 C 0.1621(4) -0.0525(3) 0.1588(3)
C9 C 0.2468(4) -0.0741(3) 0.1824(3)
H2 H 0.2763 -0.1023 0.1552
C10 C 0.2906(4) -0.0104(3) 0.1871(3)
C11 C 0.3751(4) -0.0025(3) 0.1792(3)
H3 H 0.4066 -0.0393 0.1705
C12 C 0.4184(4) 0.0534(3) 0.1827(3)
C13 C 0.5076(4) 0.0634(3) 0.1648(3)
C14 C 0.5312(4) 0.1254(3) 0.1960(3)
H4 H 0.5683 0.1524 0.1722
C15 C 0.4445(4) 0.1562(3) 0.2029(3)
C16 C 0.4344(4) 0.2173(3) 0.2174(3)
C17 C 0.3505(4) 0.2431(3) 0.2293(3)
C18 C 0.3292(4) 0.3128(3) 0.2383(3)
C19 C 0.2363(4) 0.3066(3) 0.2610(4)
H5 H 0.2366 0.3009 0.3026
C20 C 0.2072(4) 0.2439(3) 0.2316(3)
H6 H 0.1893 0.2539 0.1924
C21 C 0.1583(4) 0.1985(3) 0.3233(3)
H7 H 0.2178 0.1905 0.3294
H8 H 0.1254 0.1638 0.3393
H9 H 0.1426 0.2384 0.3415
C22 C 0.0009(4) 0.2567(3) 0.2891(4)
H10 H 0.0319 0.2963 0.2940
H11 H -0.0019 0.2343 0.3250
H12 H -0.0558 0.2662 0.2761
C23 C 0.0383(4) 0.2442(3) 0.1853(3)
H13 H 0.0619 0.2875 0.1862
H14 H 0.0724 0.2188 0.1590
C24 C -0.0489(5) 0.2476(4) 0.1634(4)
O1 O -0.1125(4) 0.2610(4) 0.1891(4)
N6 N -0.0582(7) 0.2379(7) 0.1108(6)
H15 H -0.1081 0.2411 0.0955
H16 H -0.0148 0.2280 0.0899
C25 C -0.0222(4) 0.1139(3) 0.2952(3)
H17 H 0.0099 0.1296 0.3278
H18 H -0.0128 0.0678 0.2923
C26 C -0.1158(4) 0.1260(4) 0.3056(4)
H19 H -0.1251 0.1717 0.3120
H20 H -0.1481 0.1133 0.2720
C27 C -0.1454(5) 0.0892(5) 0.3553(4)
O2 O -0.1697(4) 0.0326(3) 0.3469(3)
N7 N -0.1475(4) 0.1180(4) 0.4044(3)
H21 H -0.1666 0.0979 0.4341
H22 H -0.1297 0.1572 0.4074
C28 C -0.0049(4) 0.0263(4) 0.1758(3)
H23 H 0.0004 -0.0104 0.1509
H24 H -0.0337 0.0605 0.1560
H25 H -0.0372 0.0143 0.2091
C29 C 0.0934(5) -0.1018(3) 0.1721(4)
H26 H 0.0715 -0.0942 0.2099
H27 H 0.1171 -0.1444 0.1701
H28 H 0.0480 -0.0978 0.1448
C30 C 0.1748(5) -0.0452(3) 0.0941(3)
H29 H 0.2257 -0.0196 0.0876
H30 H 0.1850 -0.0877 0.0780
C31 C 0.1022(5) -0.0145(3) 0.0618(3)
O3 O 0.0395(3) -0.0472(3) 0.0493(3)
N8 N 0.1074(5) 0.0448(3) 0.0504(3)
H31 H 0.0659 0.0640 0.0332
H32 H 0.1524 0.0662 0.0598
C32 C 0.2408(4) -0.1056(3) 0.2408(3)
H33 H 0.1998 -0.0821 0.2639
H34 H 0.2201 -0.1494 0.2363
C33 C 0.3249(5) -0.1069(3) 0.2713(3)
H35 H 0.3444 -0.0627 0.2754
H36 H 0.3655 -0.1290 0.2469
C34 C 0.3271(6) -0.1381(4) 0.3290(4)
O4 O 0.3892(4) -0.1291(3) 0.3597(3)
N9 N 0.2639(4) -0.1740(3) 0.3447(3)
H37 H 0.2647 -0.1925 0.3777
H38 H 0.2210 -0.1794 0.3221
C35 C 0.5065(5) 0.0771(4) 0.1008(3)
H39 H 0.5634 0.0859 0.0878
H40 H 0.4709 0.1139 0.0933
H41 H 0.4844 0.0403 0.0808
C36 C 0.5642(4) 0.0050(3) 0.1771(4)
H42 H 0.5502 -0.0124 0.2141
H43 H 0.6230 0.0181 0.1768
H44 H 0.5551 -0.0273 0.1483
C37 C 0.5682(4) 0.1173(4) 0.2549(3)
H45 H 0.5588 0.1569 0.2761
H46 H 0.5370 0.0833 0.2743
C38 C 0.6614(4) 0.1014(4) 0.2575(4)
H47 H 0.6807 0.1085 0.2964
H48 H 0.6678 0.0557 0.2495
C39 C 0.7157(5) 0.1351(5) 0.2210(5)
O5 O 0.7519(4) 0.1012(4) 0.1811(3)
N10 N 0.7244(5) 0.1938(4) 0.2302(5)
H49 H 0.7576 0.2165 0.2088
H50 H 0.6972 0.2118 0.2580
C40 C 0.5104(4) 0.2612(3) 0.2182(4)
H51 H 0.5573 0.2404 0.1993
H52 H 0.5257 0.2705 0.2571
H53 H 0.4968 0.3006 0.1987
C41 C 0.3322(5) 0.3460(3) 0.1802(3)
H54 H 0.3847 0.3356 0.1613
H55 H 0.3285 0.3919 0.1854
H56 H 0.2851 0.3316 0.1573
C42 C 0.3845(4) 0.3490(3) 0.2796(3)
H57 H 0.3582 0.3905 0.2869
H58 H 0.4389 0.3571 0.2613
C43 C 0.4015(5) 0.3166(3) 0.3370(3)
H59 H 0.3520 0.3219 0.3614
H60 H 0.4101 0.2708 0.3310
C44 C 0.4763(5) 0.3436(3) 0.3656(4)
O6 O 0.5465(4) 0.3427(3) 0.3422(3)
N11 N 0.4665(4) 0.3680(3) 0.4163(3)
H61 H 0.4166 0.3675 0.4317
C45 C 0.1809(5) 0.3663(4) 0.2445(4)
H62 H 0.1963 0.3810 0.2064
H63 H 0.1212 0.3543 0.2440
C46 C 0.1943(5) 0.4181(4) 0.2854(6)
O7 O 0.1991(6) 0.4073(3) 0.3364(3)
N12 N 0.1980(4) 0.4755(3) 0.2627(4)
H64 H 0.2042 0.5089 0.2843
H65 H 0.1942 0.4800 0.2261
C47 C 0.5374(5) 0.3962(3) 0.4482(4)
H66 H 0.5795 0.4121 0.4212
H67 H 0.5166 0.4329 0.4699
C48 C 0.5783(5) 0.3516(3) 0.4870(3)
H68 H 0.5997 0.3141 0.4659
C49 C 0.6505(5) 0.3843(4) 0.5190(3)
H69 H 0.6316 0.4254 0.5330
H70 H 0.6979 0.3904 0.4936
H71 H 0.6678 0.3577 0.5506
P1 P 0.50268(12) 0.25978(9) 0.54234(8)
O8 O 0.4734(3) 0.2362(2) 0.4814(2)
O9 O 0.5177(3) 0.3318(2) 0.5289(2)
O10 O 0.5818(3) 0.2268(3) 0.5577(2)
O11 O 0.4314(3) 0.2586(3) 0.5829(2)
C50 C 0.4240(4) 0.0884(3) 0.4143(3)
H72 H 0.4332 0.0517 0.4401
C51 C 0.3944(4) 0.1449(3) 0.4476(3)
H73 H 0.3582 0.1324 0.4799
C52 C 0.4773(4) 0.1713(3) 0.4666(3)
H74 H 0.4992 0.1460 0.4989
C53 C 0.5337(4) 0.1618(3) 0.4146(3)
H75 H 0.5269 0.1985 0.3886
C54 C 0.6243(5) 0.1515(4) 0.4261(4)
H76 H 0.6544 0.1451 0.3903
H77 H 0.6479 0.1894 0.4446
O12 O 0.5003(3) 0.1051(2) 0.3881(2)
O13 O 0.3534(3) 0.1864(2) 0.4107(2)
H78 H 0.3263 0.2132 0.4293
O14 O 0.6361(3) 0.0985(3) 0.4607(2)
H79 H 0.6860 0.0974 0.4717
N13 N 0.3659(3) 0.0704(3) 0.3698(2)
C55 C 0.3570(4) 0.1032(3) 0.3207(3)
H80 H 0.3965 0.1334 0.3079
N14 N 0.2893(3) 0.0891(2) 0.2934(2)
C56 C 0.1668(4) 0.0176(3) 0.3259(3)
H81 H 0.1315 0.0261 0.2948
C57 C 0.1408(5) -0.0234(3) 0.3667(3)
C58 C 0.1932(4) -0.0362(3) 0.4147(3)
C59 C 0.2696(4) -0.0060(3) 0.4195(3)
H82 H 0.3043 -0.0132 0.4512
C60 C 0.2948(4) 0.0354(3) 0.3768(3)
C61 C 0.2452(4) 0.0475(3) 0.3295(3)
C62 C 0.0565(5) -0.0554(5) 0.3614(4)
H83 H 0.0296 -0.0420 0.3265
H84 H 0.0213 -0.0434 0.3934
H85 H 0.0640 -0.1014 0.3611
C63 C 0.1641(5) -0.0790(4) 0.4612(4)
H86 H 0.2066 -0.0804 0.4908
H87 H 0.1550 -0.1216 0.4464
H88 H 0.1117 -0.0627 0.4768
K1 K -0.11901(19) -0.09460(16) 0.07163(13)
Cl1 Cl -0.3020(3) -0.0826(4) 0.0325(2)
K1B K 0.11901(19) 0.40540(16) 0.42837(13)
K1A K 0.61901(19) 0.09460(16) 0.57163(13)
O7B O -0.1991(6) -0.0927(3) 0.1636(3)
O10A O -0.0818(3) -0.2268(3) 0.0577(2)
O14A O -0.1361(3) -0.0985(3) -0.0393(2)
O15 O 0.1804(4) 0.2395(3) 0.6670(3)
H89 H 0.2060 0.2634 0.6371
H90 H 0.1401 0.2106 0.6510
O16 O 0.2789(3) 0.2082(3) 0.5734(3)
H91 H 0.2617 0.2021 0.5349
H92 H 0.3301 0.2324 0.5738
O17 O 0.2471(3) 0.2680(3) 0.4665(3)
H93 H 0.1908 0.2568 0.4628
H94 H 0.2518 0.3120 0.4661
O18 O 0.5118(4) -0.0348(3) 0.3294(4)
O19 O 0.8143(6) 0.1278(4) 0.0807(3)
O20 O 0.1158(5) 0.5246(3) 0.5775(3)
H95 H 0.0651 0.5433 0.5919
H96 H 0.1098 0.5181 0.5376
O21 O 0.7358(5) -0.2342(4) 0.5639(3)
O22 O 0.1026(4) 0.2303(3) 0.0399(2)
O23 O 0.4450(4) 0.4008(3) -0.0073(2)
O24 O 0.2145(4) 0.4468(3) 0.0798(2)
O25 O 0.5286(4) 0.2958(3) 0.0556(2)
O26 O 0.6757(4) -0.1193(3) 0.4683(3)
O27 O 0.6288(5) -0.2694(3) 0.4597(3)
O28 O 0.8137(4) -0.1491(4) 0.4822(3)
O29? O 0.8026(11) 0.0459(9) 0.0879(8)
O30? O 0.1724(5) 0.5101(3) 0.5998(3)
O31? O 0.8611(4) -0.1482(4) 0.4158(3)
O32? O 0.4633(4) -0.1377(3) 0.4606(3)
O33? O 0.8743(4) -0.0419(4) 0.4543(3)
loop_
_geom_bond_atom_site_label_1
_geom_bond_atom_site_label_2
_geom_bond_site_symmetry_1
_geom_bond_site_symmetry_2
Co1 C1 1_555 1_555
C1 N1 1_555 1_555
N2 Co1 1_555 1_555
N3 Co1 1_555 1_555
N4 Co1 1_555 1_555
N5 Co1 1_555 1_555
C2 N2 1_555 1_555
C3 C2 1_555 1_555
C4 C3 1_555 1_555
H1 C4 1_555 1_555
C5 N2 1_555 1_555
C6 C5 1_555 1_555
C7 N3 1_555 1_555
C8 C7 1_555 1_555
C9 C8 1_555 1_555
H2 C9 1_555 1_555
C10 N3 1_555 1_555
C11 C10 1_555 1_555
H3 C11 1_555 1_555
C12 N4 1_555 1_555
C13 C12 1_555 1_555
C14 C13 1_555 1_555
H4 C14 1_555 1_555
C15 N4 1_555 1_555
C16 C15 1_555 1_555
C17 N5 1_555 1_555
C18 C17 1_555 1_555
C19 C18 1_555 1_555
H5 C19 1_555 1_555
C20 N5 1_555 1_555
H6 C20 1_555 1_555
C21 C2 1_555 1_555
H7 C21 1_555 1_555
H8 C21 1_555 1_555
H9 C21 1_555 1_555
C22 C3 1_555 1_555
H10 C22 1_555 1_555
H11 C22 1_555 1_555
H12 C22 1_555 1_555
C23 C3 1_555 1_555
H13 C23 1_555 1_555
H14 C23 1_555 1_555
C24 C23 1_555 1_555
O1 C24 1_555 1_555
N6 C24 1_555 1_555
H15 N6 1_555 1_555
H16 N6 1_555 1_555
C25 C4 1_555 1_555
H17 C25 1_555 1_555
H18 C25 1_555 1_555
C26 C25 1_555 1_555
H19 C26 1_555 1_555
H20 C26 1_555 1_555
C27 C26 1_555 1_555
O2 C27 1_555 1_555
N7 C27 1_555 1_555
H21 N7 1_555 1_555
H22 N7 1_555 1_555
C28 C6 1_555 1_555
H23 C28 1_555 1_555
H24 C28 1_555 1_555
H25 C28 1_555 1_555
C29 C8 1_555 1_555
H26 C29 1_555 1_555
H27 C29 1_555 1_555
H28 C29 1_555 1_555
C30 C8 1_555 1_555
H29 C30 1_555 1_555
H30 C30 1_555 1_555
C31 C30 1_555 1_555
O3 C31 1_555 1_555
N8 C31 1_555 1_555
H31 N8 1_555 1_555
H32 N8 1_555 1_555
C32 C9 1_555 1_555
H33 C32 1_555 1_555
H34 C32 1_555 1_555
C33 C32 1_555 1_555
H35 C33 1_555 1_555
H36 C33 1_555 1_555
C34 C33 1_555 1_555
O4 C34 1_555 1_555
N9 C34 1_555 1_555
H37 N9 1_555 1_555
H38 N9 1_555 1_555
C35 C13 1_555 1_555
H39 C35 1_555 1_555
H40 C35 1_555 1_555
H41 C35 1_555 1_555
C36 C13 1_555 1_555
H42 C36 1_555 1_555
H43 C36 1_555 1_555
H44 C36 1_555 1_555
C37 C14 1_555 1_555
H45 C37 1_555 1_555
H46 C37 1_555 1_555
C38 C37 1_555 1_555
H47 C38 1_555 1_555
H48 C38 1_555 1_555
C39 C38 1_555 1_555
O5 C39 1_555 1_555
N10 C39 1_555 1_555
H49 N10 1_555 1_555
H50 N10 1_555 1_555
C40 C16 1_555 1_555
H51 C40 1_555 1_555
H52 C40 1_555 1_555
H53 C40 1_555 1_555
C41 C18 1_555 1_555
H54 C41 1_555 1_555
H55 C41 1_555 1_555
H56 C41 1_555 1_555
C42 C18 1_555 1_555
H57 C42 1_555 1_555
H58 C42 1_555 1_555
C43 C42 1_555 1_555
H59 C43 1_555 1_555
H60 C43 1_555 1_555
C44 C43 1_555 1_555
O6 C44 1_555 1_555
N11 C44 1_555 1_555
H61 N11 1_555 1_555
C45 C19 1_555 1_555
H62 C45 1_555 1_555
H63 C45 1_555 1_555
C46 C45 1_555 1_555
O7 C46 1_555 1_555
N12 C46 1_555 1_555
H64 N12 1_555 1_555
H65 N12 1_555 1_555
C47 N11 1_555 1_555
H66 C47 1_555 1_555
H67 C47 1_555 1_555
C48 C47 1_555 1_555
H68 C48 1_555 1_555
C49 C48 1_555 1_555
H69 C49 1_555 1_555
H70 C49 1_555 1_555
H71 C49 1_555 1_555
P1 O8 1_555 1_555
O8 C52 1_555 1_555
O9 C48 1_555 1_555
O10 P1 1_555 1_555
O11 P1 1_555 1_555
C50 H72 1_555 1_555
C51 C50 1_555 1_555
H73 C51 1_555 1_555
C52 C51 1_555 1_555
H74 C52 1_555 1_555
C53 C52 1_555 1_555
H75 C53 1_555 1_555
C54 C53 1_555 1_555
H76 C54 1_555 1_555
H77 C54 1_555 1_555
O12 C50 1_555 1_555
O13 C51 1_555 1_555
H78 O13 1_555 1_555
O14 C54 1_555 1_555
H79 O14 1_555 1_555
N13 C50 1_555 1_555
C55 N13 1_555 1_555
H80 C55 1_555 1_555
N14 Co1 1_555 1_555
C56 H81 1_555 1_555
C57 C56 1_555 1_555
C58 C57 1_555 1_555
C59 C58 1_555 1_555
H82 C59 1_555 1_555
C60 N13 1_555 1_555
C61 N14 1_555 1_555
C62 C57 1_555 1_555
H83 C62 1_555 1_555
H84 C62 1_555 1_555
H85 C62 1_555 1_555
C63 C58 1_555 1_555
H86 C63 1_555 1_555
H87 C63 1_555 1_555
H88 C63 1_555 1_555
K1 O3 1_555 1_555
Cl1 K1 1_555 1_555
O15 H89 1_555 1_555
H90 O15 1_555 1_555
O16 H91 1_555 1_555
H92 O16 1_555 1_555
O17 H93 1_555 1_555
H94 O17 1_555 1_555
O20 H95 1_555 1_555
H96 O20 1_555 1_555
K1B O7 1_555 1_555
K1A O10 1_555 1_555
O7B K1 1_555 1_555
O10A K1 1_555 1_555
O14A K1 1_555 1_555
C2 C20 1_555 1_555
C4 C5 1_555 1_555
C6 C7 1_555 1_555
C9 C10 1_555 1_555
C11 C12 1_555 1_555
C14 C15 1_555 1_555
C16 C17 1_555 1_555
C19 C20 1_555 1_555
P1 O9 1_555 1_555
C53 O12 1_555 1_555
O14 K1A 1_555 1_555
C55 N14 1_555 1_555
C56 C61 1_555 1_555
C59 C60 1_555 1_555
C60 C61 1_555 1_555

#END
