
#######################################################################
#
#                 Cambridge Crystallographic Data Centre
#                                CCDC 
#
#######################################################################
#
# If this CIF has been generated from an entry in the Cambridge 
# Structural Database, then it will include bibliographic, chemical, 
# crystal, experimental, refinement or atomic coordinate data resulting 
# from the CCDC's data processing and validation procedures.
#
#######################################################################

data_WILFIG
_symmetry_cell_setting           cubic
_symmetry_space_group_name_H-M   'P 21 3'
_symmetry_Int_Tables_number      198
_space_group_name_Hall           'P 2ac 2ab 3'
loop_
_symmetry_equiv_pos_site_id
_symmetry_equiv_pos_as_xyz
1 x,y,z
2 1/2-x,-y,1/2+z
3 1/2+x,1/2-y,-z
4 z,x,y
5 -x,1/2+y,1/2-z
6 1/2-z,-x,1/2+y
7 1/2+z,1/2-x,-y
8 -z,1/2+x,1/2-y
9 y,z,x
10 1/2+y,1/2-z,-x
11 -y,1/2+z,1/2-x
12 1/2-y,-z,1/2+x
_cell_length_a                   15.120(5)
_cell_length_b                   15.120(5)
_cell_length_c                   15.120(5)
_cell_angle_alpha                90
_cell_angle_beta                 90
_cell_angle_gamma                90
_cell_volume                     3456.65
loop_
_atom_site_label
_atom_site_type_symbol
_atom_site_fract_x
_atom_site_fract_y
_atom_site_fract_z
C7 C 0.9201(10) 0.4202(10) 0.0796(11)
C8 C 0.8456(10) 0.4044(10) 0.0437(11)
C9 C 0.8174(10) 0.3472(10) 0.1175(11)
C8G C 0.9563(11) 0.3456(10) 0.0956(10)
C8I C 0.9044(10) 0.4563(11) 0.1544(10)
C9G C 0.8825(11) 0.3174(10) 0.1528(10)
C9I C 0.8472(10) 0.3825(11) 0.1826(10)
C10 C 0.0385(10) 0.1244(10) 0.0797(11)
C11 C 0.0666(10) 0.1587(10) 0.0024(11)
C12 C -0.0186(10) 0.1377(10) 0.1187(11)
C10C C 0.0797(11) 0.0385(10) 0.1244(10)
C10H C 0.1244(10) 0.0797(11) 0.0385(10)
C11C C 0.0024(11) 0.0666(10) 0.1587(10)
C12H C 0.1377(10) 0.1187(11) -0.0186(10)
C11H C 0.1587(10) 0.0024(11) 0.0666(10)
C12C C 0.1187(11) -0.0186(10) 0.1377(10)
W1 W 0.2637(1) 0.6163(1) 0.1130(1)
Cl1 Cl 0.2584(2) 0.6090(3) -0.0453(2)
Cl2 Cl 0.1012(2) 0.6037(3) 0.1009(3)
Cl3 Cl 0.2320(2) 0.7709(3) 0.1145(4)
O1 O 0.3990(6) 0.6010(3) 0.1010(6)
O2 O 0.2612(7) 0.4760(6) 0.0998(7)
C1 C 0.3141(11) 0.4243(11) 0.0392(12)
C2 C 0.2831(45) 0.3287(26) 0.0410(37)
C3 C 0.2418(45) 0.3319(27) 0.1339(34)
C6 C 0.1970(10) 0.4209(11) 0.1473(10)
H1 H 0.3759(11) 0.4274(11) 0.0563(12)
H2 H 0.3084(11) 0.4479(11) -0.0201(12)
H3 H 0.3318(45) 0.2870(26) 0.0372(37)
H4 H 0.2399(45) 0.3161(26) -0.0047(37)
H5 H 0.1988(45) 0.2848(27) 0.1402(34)
H6 H 0.2874(45) 0.3237(27) 0.1783(34)
H11 H 0.1388(10) 0.4230(11) 0.1203(10)
H12 H 0.1928(10) 0.4368(11) 0.2093(10)
Na1 Na 0.0813(4) 0.5813(4) -0.0813(4)
W1E W 0.3870(1) 0.7363(1) 0.1163(1)
W1J W 0.3837(1) 0.6130(1) 0.2363(1)
Cl3J Cl 0.2291(3) 0.6145(4) 0.2680(2)
Cl1I Cl 0.1090(3) 0.5453(2) -0.2584(2)
Cl1G Cl 0.0453(2) 0.7584(2) -0.1090(3)
Cl2I Cl 0.1037(3) 0.3991(3) -0.1012(2)
Cl2G Cl -0.1009(3) 0.6012(2) -0.1037(3)
Cl1E Cl 0.5453(2) 0.7416(2) 0.1090(3)
Cl2E Cl 0.3991(3) 0.8988(2) 0.1037(3)
Cl3E Cl 0.3855(4) 0.7680(2) 0.2709(3)
O2E O 0.4002(7) 0.7388(7) -0.0240(6)
Cl1J Cl 0.3910(3) 0.4547(2) 0.2416(2)
Cl2J Cl 0.3963(3) 0.6009(3) 0.3988(2)
O2J O 0.5240(6) 0.5998(7) 0.2388(7)
W1I W 0.1163(1) 0.3870(1) -0.2637(1)
W1G W -0.1130(1) 0.7637(1) -0.1163(1)
Na1B Na 0.5813(4) 0.9187(4) 0.0813(4)
C1E C 0.4608(12) 0.6859(11) -0.0757(11)
C6E C 0.3527(10) 0.8030(10) -0.0791(11)
Na1A Na 0.4187(4) 0.4187(4) 0.4187(4)
C1J C 0.5757(11) 0.5392(12) 0.1859(11)
C6J C 0.5791(11) 0.6473(10) 0.3030(10)
C2E C 0.4590(37) 0.7169(45) -0.1713(26)
H1E H 0.4437(12) 0.6241(11) -0.0726(11)
H2E H 0.5201(12) 0.6916(11) -0.0521(11)
C3E C 0.3661(34) 0.7582(45) -0.1681(27)
H11E H 0.3797(10) 0.8612(10) -0.0770(11)
H12E H 0.2907(10) 0.8072(10) -0.0632(11)
C2J C 0.6713(26) 0.5410(37) 0.2169(45)
H1J H 0.5726(11) 0.5563(12) 0.1241(11)
H2J H 0.5521(11) 0.4799(12) 0.1916(11)
C3J C 0.6681(27) 0.6339(34) 0.2582(45)
H11J H 0.5770(11) 0.6203(10) 0.3612(10)
H12J H 0.5632(11) 0.7093(10) 0.3072(10)
H3E H 0.4628(37) 0.6682(45) -0.2130(26)
H4E H 0.5047(37) 0.7601(45) -0.1839(26)
H5E H 0.3598(34) 0.8012(45) -0.2152(27)
H6E H 0.3217(34) 0.7126(45) -0.1763(27)
H3J H 0.7130(26) 0.5372(37) 0.1682(45)
H4J H 0.6839(26) 0.4953(37) 0.2601(45)
H5J H 0.7152(27) 0.6402(34) 0.3012(45)
H6J H 0.6763(27) 0.6783(34) 0.2126(45)
C4? C 0.4276(34) 0.6980(22) -0.1725(20)
C5? C 0.3913(29) 0.7937(26) -0.1707(18)
H7? H 0.4756(34) 0.6919(22) -0.2146(20)
H8? H 0.3815(34) 0.6558(22) -0.1869(20)
H9? H 0.4384(29) 0.8363(26) -0.1802(18)
H10? H 0.3463(29) 0.8021(26) -0.2156(18)
loop_
_geom_bond_atom_site_label_1
_geom_bond_atom_site_label_2
_geom_bond_site_symmetry_1
_geom_bond_site_symmetry_2
W1 Cl1 1_555 1_555
Cl1 Na1 1_555 1_555
Cl2 W1 1_555 1_555
Cl3 W1 1_555 1_555
O1 W1 1_555 1_555
O2 W1 1_555 1_555
C1 O2 1_555 1_555
C2 C1 1_555 1_555
C3 C2 1_555 1_555
C6 O2 1_555 1_555
C7 C8 1_555 1_555
C8 C9 1_555 1_555
C9 C9G 1_555 1_555
C10 C11 1_555 1_555
C11 C10H 1_555 1_555
C12 C10 1_555 1_555
H1 C1 1_555 1_555
H2 C1 1_555 1_555
H3 C2 1_555 1_555
H4 C2 1_555 1_555
H5 C3 1_555 1_555
H6 C3 1_555 1_555
H11 C6 1_555 1_555
H12 C6 1_555 1_555
Na1 Cl2 1_555 1_555
W1E W1 1_555 1_555
W1J W1 1_555 1_555
Cl3J W1 1_555 1_555
C8G C7 1_555 1_555
C8I C7 1_555 1_555
C9G C8G 1_555 1_555
C9I C9 1_555 1_555
C10C C10 1_555 1_555
C10H C10 1_555 1_555
C11C C10 1_555 1_555
C12H C11 1_555 1_555
Cl1I Na1 1_555 1_555
Cl1G Na1 1_555 1_555
Cl2I Na1 1_555 1_555
Cl2G Na1 1_555 1_555
Cl1E W1E 1_555 1_555
Cl2E W1E 1_555 1_555
Cl3E W1E 1_555 1_555
O2E W1E 1_555 1_555
Cl1J W1J 1_555 1_555
Cl2J W1J 1_555 1_555
O2J W1J 1_555 1_555
C11H C10C 1_555 1_555
C12C C10C 1_555 1_555
W1I Cl1I 1_555 1_555
W1G Cl1G 1_555 1_555
Na1B Cl1E 1_555 1_555
C1E O2E 1_555 1_555
C6E O2E 1_555 1_555
Na1A Cl1J 1_555 1_555
C1J O2J 1_555 1_555
C6J O2J 1_555 1_555
C2E C1E 1_555 1_555
H1E C1E 1_555 1_555
H2E C1E 1_555 1_555
C3E C6E 1_555 1_555
H11E C6E 1_555 1_555
H12E C6E 1_555 1_555
C2J C1J 1_555 1_555
H1J C1J 1_555 1_555
H2J C1J 1_555 1_555
C3J C6J 1_555 1_555
H11J C6J 1_555 1_555
H12J C6J 1_555 1_555
H3E C2E 1_555 1_555
H4E C2E 1_555 1_555
H5E C3E 1_555 1_555
H6E C3E 1_555 1_555
H3J C2J 1_555 1_555
H4J C2J 1_555 1_555
H5J C3J 1_555 1_555
H6J C3J 1_555 1_555
Cl3 W1E 1_555 1_555
O1 W1J 1_555 1_555
O1 W1E 1_555 1_555
C3 C6 1_555 1_555
C12 C11C 1_555 1_555
W1E W1J 1_555 1_555
W1J Cl3J 1_555 1_555
W1J Cl3E 1_555 1_555
C8I C9I 1_555 1_555
C9G C9I 1_555 1_555
C10C C10H 1_555 1_555
C10C C11C 1_555 1_555
C10H C12H 1_555 1_555
C10H C11H 1_555 1_555
Cl2I W1I 1_555 1_555
Cl2G W1G 1_555 1_555
Cl2E Na1B 1_555 1_555
Cl2J Na1A 1_555 1_555
C11H C12C 1_555 1_555
C2E C3E 1_555 1_555
C2J C3J 1_555 1_555

#END
