
#######################################################################
#
#                 Cambridge Crystallographic Data Centre
#                                CCDC 
#
#######################################################################
#
# If this CIF has been generated from an entry in the Cambridge 
# Structural Database, then it will include bibliographic, chemical, 
# crystal, experimental, refinement or atomic coordinate data resulting 
# from the CCDC's data processing and validation procedures.
#
#######################################################################

data_WILFUT
_symmetry_cell_setting           rhombohedral
_symmetry_space_group_name_H-M   'R -3'
_symmetry_Int_Tables_number      148
_space_group_name_Hall           '-R 3'
loop_
_symmetry_equiv_pos_site_id
_symmetry_equiv_pos_as_xyz
1 x,y,z
2 -y,x-y,z
3 -x+y,-x,z
4 2/3+x,1/3+y,1/3+z
5 2/3-y,1/3+x-y,1/3+z
6 2/3-x+y,1/3-x,1/3+z
7 1/3+x,2/3+y,2/3+z
8 1/3-y,2/3+x-y,2/3+z
9 1/3-x+y,2/3-x,2/3+z
10 -x,-y,-z
11 y,-x+y,-z
12 x-y,x,-z
13 1/3-x,2/3-y,2/3-z
14 1/3+y,2/3-x+y,2/3-z
15 1/3+x-y,2/3+x,2/3-z
16 2/3-x,1/3-y,1/3-z
17 2/3+y,1/3-x+y,1/3-z
18 2/3+x-y,1/3+x,1/3-z
_cell_length_a                   25.2810(10)
_cell_length_b                   25.2810(10)
_cell_length_c                   7.4007(4)
_cell_angle_alpha                90
_cell_angle_beta                 90
_cell_angle_gamma                120.00
_cell_volume                     4096.3
loop_
_atom_site_label
_atom_site_type_symbol
_atom_site_fract_x
_atom_site_fract_y
_atom_site_fract_z
Ag1 Ag 0.366175(8) 0.980631(9) 0.01447(3)
O1 O 0.38482(10) 0.92168(9) 0.2306(3)
O2 O 0.30488(9) 0.89464(9) 0.4167(2)
N1 N 0.42786(9) 0.98637(10) -0.2514(3)
N2 N 0.42014(9) 1.02090(9) -0.3823(3)
C1 C 0.46752(11) 0.96871(12) -0.2761(3)
H1 H 0.4724 0.9459 -0.1858
C2 C 0.50378(10) 0.98252(11) -0.4344(3)
C3 C 0.45285(11) 1.03609(11) -0.5303(3)
H2 H 0.4474 1.0600 -0.6155
C4 C 0.34828(13) 0.89112(12) 0.3504(4)
C5 C 0.35867(15) 0.84066(15) 0.4410(4)
C6 C 0.31744(17) 0.77873(17) 0.3670(6)
F1 F 0.34789(11) 0.83822(10) 0.6256(3)
F2 F 0.41705(9) 0.85300(9) 0.4218(3)
F3 F 0.33053(14) 0.73827(11) 0.4438(5)
F4 F 0.32494(9) 0.77958(10) 0.1911(3)
F5 F 0.25906(9) 0.76189(9) 0.4010(4)
Ag1G Ag 0.352702(9) 1.052211(12) -0.31886(3)
Ag1E Ag 0.281123(12) 0.967158(8) 0.34780(3)
Ag1I Ag 0.633825(8) 1.019369(9) -1.01447(3)
Ag1P Ag 0.647298(9) 0.947789(12) -0.68114(3)
O1G O 0.41165(9) 1.12981(13) -0.1027(3)
O2G O 0.43869(9) 1.07691(13) 0.0834(2)
O2E O 0.25643(13) 1.02845(9) -0.2500(2)
N1I N 0.57214(9) 1.01363(10) -0.7486(3)
N1G N 0.34696(10) 1.10816(13) -0.5847(3)
N2I N 0.57986(9) 0.97910(9) -0.6177(3)
N2E N 0.26743(13) 0.91319(9) -0.0490(3)
C1I C 0.53248(11) 1.03129(12) -0.7239(3)
H1I H 0.5276 1.0541 -0.8142
C2I C 0.49622(10) 1.01748(11) -0.5656(3)
C3I C 0.54715(11) 0.96391(11) -0.4697(3)
H2I H 0.5526 0.9400 -0.3845
C4G C 0.44221(12) 1.12383(18) 0.0171(4)
C5G C 0.49267(15) 1.18468(21) 0.1077(4)
C6G C 0.55460(17) 1.20538(24) 0.0337(6)
F1G F 0.49511(10) 1.17634(15) 0.2923(3)
F2G F 0.48033(9) 1.23072(13) 0.0885(3)
F3G F 0.59506(11) 1.25893(18) 0.1105(5)
F4G F 0.55375(10) 1.21203(13) -0.1422(3)
F5G F 0.57144(9) 1.16384(13) 0.0677(4)
loop_
_geom_bond_atom_site_label_1
_geom_bond_atom_site_label_2
_geom_bond_site_symmetry_1
_geom_bond_site_symmetry_2
Ag1 O1 1_555 1_555
O1 C4 1_555 1_555
O2 C4 1_555 1_555
N1 Ag1 1_555 1_555
N2 N1 1_555 1_555
C1 N1 1_555 1_555
H1 C1 1_555 1_555
C2 C1 1_555 1_555
C3 N2 1_555 1_555
H2 C3 1_555 1_555
C4 C5 1_555 1_555
C5 C6 1_555 1_555
C6 F3 1_555 1_555
F1 C5 1_555 1_555
F2 C5 1_555 1_555
F4 C6 1_555 1_555
F5 C6 1_555 1_555
Ag1G N2 1_555 1_555
Ag1E O2 1_555 1_555
Ag1I N1I 1_555 1_555
Ag1P N2I 1_555 1_555
O1G Ag1G 1_555 1_555
O2G Ag1 1_555 1_555
O2E Ag1G 1_555 1_555
N1I N2I 1_555 1_555
N1G Ag1G 1_555 1_555
N2I C3I 1_555 1_555
N2E Ag1 1_555 1_555
C1I N1I 1_555 1_555
H1I C1I 1_555 1_555
C2I C2 1_555 1_555
C3I C2 1_555 1_555
H2I C3I 1_555 1_555
C4G O1G 1_555 1_555
C5G C4G 1_555 1_555
C6G C5G 1_555 1_555
F1G C5G 1_555 1_555
F2G C5G 1_555 1_555
F3G C6G 1_555 1_555
F4G C6G 1_555 1_555
F5G C6G 1_555 1_555
C3 C2I 1_555 1_555
O2G C4G 1_555 1_555
C1I C2I 1_555 1_555

#END
