
#######################################################################
#
#                 Cambridge Crystallographic Data Centre
#                                CCDC 
#
#######################################################################
#
# If this CIF has been generated from an entry in the Cambridge 
# Structural Database, then it will include bibliographic, chemical, 
# crystal, experimental, refinement or atomic coordinate data resulting 
# from the CCDC's data processing and validation procedures.
#
#######################################################################

data_WILFAZ
_symmetry_cell_setting           orthorhombic
_symmetry_space_group_name_H-M   'P n n m'
_symmetry_Int_Tables_number      58
_space_group_name_Hall           '-P 2 2n'
loop_
_symmetry_equiv_pos_site_id
_symmetry_equiv_pos_as_xyz
1 x,y,z
2 -x,-y,z
3 1/2-x,1/2+y,1/2-z
4 1/2+x,1/2-y,1/2-z
5 -x,-y,-z
6 x,y,-z
7 1/2+x,1/2-y,1/2+z
8 1/2-x,1/2+y,1/2+z
_cell_length_a                   17.0801(11)
_cell_length_b                   17.0782(11)
_cell_length_c                   7.5920(7)
_cell_angle_alpha                90
_cell_angle_beta                 90
_cell_angle_gamma                90
_cell_volume                     2214.57
loop_
_atom_site_label
_atom_site_type_symbol
_atom_site_fract_x
_atom_site_fract_y
_atom_site_fract_z
Ag1 Ag 0.81416(3) 0.18978(3) 0.24346(4)
N1 N 0.9031(3) 0.1005(3) 0.0904(6)
N2 N 0.6932(3) 0.1931(3) 0.0913(7)
N3 N 0.4214(3) 0.2627(3) 0.0929(7)
N4 N 0.8408(4) 0.3208(3) 0.0909(8)
N5 N 0.7499(4) 0.5858(3) 0.0874(7)
C1 C 0.9487(5) 0.0530(4) 0.1757(8)
H1 H 0.9478 0.0537 0.2995
C2 C 1.0000 0.0000 0.0883(10)
C3 C 0.6269(4) 0.2049(4) 0.1747(10)
H2 H 0.6276 0.2014 0.2983
C4 C 0.5554(4) 0.2220(3) 0.0943(8)
C5 C 0.4852(3) 0.2431(4) 0.1731(9)
H3 H 0.4839 0.2432 0.2969
C6 C 0.8241(5) 0.3864(4) 0.1778(11)
H4 H 0.8263 0.3864 0.3015
C7 C 0.8027(4) 0.4568(4) 0.0875(10)
C8 C 0.7755(5) 0.5238(4) 0.1820(12)
H5 H 0.7754 0.5247 0.3058
Ag1E Ag 0.81416(3) 0.18978(3) -0.24346(4)
Ag1D Ag 1.18584(3) -0.18978(3) -0.24346(4)
Ag1A Ag 1.18584(3) -0.18978(3) 0.24346(4)
Ag1C Ag 0.31416(3) 0.31022(3) 0.25654(4)
Ag1B Ag 0.68584(3) 0.68978(3) 0.25654(4)
Ag1F Ag 0.31416(3) 0.31022(3) -0.25654(4)
Ag1G Ag 0.68584(3) 0.68978(3) -0.25654(4)
Ag1C_2 Ag 1.31416(3) 0.31022(3) 0.25654(4)
Ag1F_2 Ag 1.31416(3) 0.31022(3) 0.74346(4)
Ag1E_2 Ag 0.81416(3) 0.18978(3) 0.75654(4)
Ag1B_2 Ag 0.68584(3) -0.31022(3) 0.25654(4)
Ag1G_2 Ag 0.68584(3) -0.31022(3) 0.74346(4)
N1E N 0.9031(3) 0.1005(3) -0.0904(6)
N1D N 1.0969(3) -0.1005(3) -0.0904(6)
N1A N 1.0969(3) -0.1005(3) 0.0904(6)
N2E N 0.6932(3) 0.1931(3) -0.0913(7)
N2C N 1.1932(3) 0.3069(3) 0.4087(7)
N2F N 1.1932(3) 0.3069(3) 0.5913(7)
N2D N 1.3068(3) -0.1931(3) -0.0913(7)
N2A N 1.3068(3) -0.1931(3) 0.0913(7)
N3E N 0.4214(3) 0.2627(3) -0.0929(7)
N3C N 0.9214(3) 0.2373(3) 0.4071(7)
N3F N 0.9214(3) 0.2373(3) 0.5929(7)
N3F_2 N 0.9214(3) 0.2373(3) -0.4071(7)
N3G N 1.0786(3) -0.2373(3) -0.4071(7)
N3B N 1.0786(3) -0.2373(3) 0.4071(7)
N4E N 0.8408(4) 0.3208(3) -0.0909(8)
N4B N 0.6592(4) -0.1792(3) 0.4091(8)
N4G N 0.6592(4) -0.1792(3) 0.5909(8)
N4D N 1.1592(4) -0.3208(3) -0.0909(8)
N4A N 1.1592(4) -0.3208(3) 0.0909(8)
N5E N 0.7499(4) 0.5858(3) -0.0874(7)
N5B N 0.7501(4) 0.0858(3) 0.4126(7)
N5G N 0.7501(4) 0.0858(3) 0.5874(7)
N5G_2 N 0.7501(4) 0.0858(3) -0.4126(7)
N5F N 1.2499(4) -0.0858(3) -0.4126(7)
N5C N 1.2499(4) -0.0858(3) 0.4126(7)
C1E C 0.9487(5) 0.0530(4) -0.1757(8)
C1D C 1.0513(5) -0.0530(4) -0.1757(8)
C1A C 1.0513(5) -0.0530(4) 0.1757(8)
H1E H 0.9478 0.0537 -0.2995
H1A H 1.0522 -0.0537 0.2995
H1D H 1.0522 -0.0537 -0.2995
C2E C 1.0000 0.0000 -0.0883(10)
C3E C 0.6269(4) 0.2049(4) -0.1747(10)
C3C C 1.1269(4) 0.2951(4) 0.3253(10)
C3F C 1.1269(4) 0.2951(4) 0.6747(10)
H2E H 0.6276 0.2014 -0.2983
H2C H 1.1276 0.2986 0.2017
H2F H 1.1276 0.2986 0.7983
C4E C 0.5554(4) 0.2220(3) -0.0943(8)
C4C C 1.0554(4) 0.2780(3) 0.4057(8)
C4F C 1.0554(4) 0.2780(3) 0.5943(8)
C5E C 0.4852(3) 0.2431(4) -0.1731(9)
C5C C 0.9852(3) 0.2569(4) 0.3269(9)
C5F C 0.9852(3) 0.2569(4) 0.6731(9)
H3E H 0.4839 0.2432 -0.2969
H3C H 0.9839 0.2568 0.2031
H3F H 0.9839 0.2568 0.7969
C6E C 0.8241(5) 0.3864(4) -0.1778(11)
C6B C 0.6759(5) -0.1136(4) 0.3222(11)
C6G C 0.6759(5) -0.1136(4) 0.6778(11)
H4E H 0.8263 0.3864 -0.3015
H4B H 0.6737 -0.1136 0.1985
H4G H 0.6737 -0.1136 0.8015
C7E C 0.8027(4) 0.4568(4) -0.0875(10)
C7B C 0.6973(4) -0.0432(4) 0.4125(10)
C7G C 0.6973(4) -0.0432(4) 0.5875(10)
C8E C 0.7755(5) 0.5238(4) -0.1820(12)
C8B C 0.7245(5) 0.0238(4) 0.3180(12)
C8G C 0.7245(5) 0.0238(4) 0.6820(12)
H5E H 0.7754 0.5247 -0.3058
H5B H 0.7246 0.0247 0.1942
H5G H 0.7246 0.0247 0.8058
Si1 Si 0.5000 0.0000 0.0000
F4 F 0.5000 0.0000 0.2143(16)
F5 F 0.5848(7) 0.0365(7) 0.0000
F6 F 0.4504(7) 0.0817(6) 0.0000
F4E F 0.5000 0.0000 -0.2143(16)
F5D F 0.4152(7) -0.0365(7) 0.0000
F6D F 0.5496(7) -0.0817(6) 0.0000
B1 B 0.6559(8) 0.3557(6) 0.5000
F1 F 0.7153(4) 0.3012(4) 0.5000
F2 F 0.5803(5) 0.3259(6) 0.5000
F3 F 0.6584(7) 0.3980(6) 0.6469(7)
F3E F 0.6584(7) 0.3980(6) 0.3531(7)
O1 O 1.0864(7) 0.0773(7) 0.5000
O2 O 0.4619(7) -0.1072(8) 0.5000
loop_
_geom_bond_atom_site_label_1
_geom_bond_atom_site_label_2
_geom_bond_site_symmetry_1
_geom_bond_site_symmetry_2
Ag1 N1 1_555 1_555
Si1 F4 1_555 1_555
B1 F1 1_555 1_555
F2 B1 1_555 1_555
F3 B1 1_555 1_555
F5 Si1 1_555 1_555
F6 Si1 1_555 1_555
N1 C1 1_555 1_555
N2 Ag1 1_555 1_555
N3 C5 1_555 1_555
N4 Ag1 1_555 1_555
N5 C8 1_555 1_555
C1 H1 1_555 1_555
C2 C1 1_555 1_555
C3 N2 1_555 1_555
H2 C3 1_555 1_555
C4 C3 1_555 1_555
C5 C4 1_555 1_555
H3 C5 1_555 1_555
C6 N4 1_555 1_555
H4 C6 1_555 1_555
C7 C6 1_555 1_555
C8 C7 1_555 1_555
H5 C8 1_555 1_555
Ag1E N1E 1_555 1_555
Ag1D N1D 1_555 1_555
Ag1A N1A 1_555 1_555
Ag1C N3 1_555 1_555
Ag1B N5 1_555 1_555
Ag1F N3E 1_555 1_555
Ag1G N5E 1_555 1_555
Ag1C_2 N2C 1_555 1_555
Ag1F_2 N2F 1_555 1_555
Ag1E_2 N3F 1_555 1_555
Ag1B_2 N4B 1_555 1_555
Ag1G_2 N4G 1_555 1_555
F3E B1 1_555 1_555
F4E Si1 1_555 1_555
F5D Si1 1_555 1_555
F6D Si1 1_555 1_555
N1E N1 1_555 1_555
N1D N1A 1_555 1_555
N1A C1A 1_555 1_555
N2E N2 1_555 1_555
N2C N2F 1_555 1_555
N2F C3F 1_555 1_555
N2D Ag1D 1_555 1_555
N2A Ag1A 1_555 1_555
N3E N3 1_555 1_555
N3C Ag1 1_555 1_555
N3F N3C 1_555 1_555
N3F_2 Ag1E 1_555 1_555
N3G Ag1D 1_555 1_555
N3B Ag1A 1_555 1_555
N4E N4 1_555 1_555
N4B N4G 1_555 1_555
N4G C6G 1_555 1_555
N4D Ag1D 1_555 1_555
N4A Ag1A 1_555 1_555
N5E N5 1_555 1_555
N5B Ag1 1_555 1_555
N5G Ag1E_2 1_555 1_555
N5G_2 Ag1E 1_555 1_555
N5F Ag1D 1_555 1_555
N5C Ag1A 1_555 1_555
C1E N1E 1_555 1_555
C1D N1D 1_555 1_555
C1A C2 1_555 1_555
H1E C1E 1_555 1_555
H1A C1A 1_555 1_555
H1D C1D 1_555 1_555
C2E C2 1_555 1_555
C3E N2E 1_555 1_555
C3C N2C 1_555 1_555
C3F H2F 1_555 1_555
H2E C3E 1_555 1_555
H2C C3C 1_555 1_555
C4E C4 1_555 1_555
C4C C3C 1_555 1_555
C4F C3F 1_555 1_555
C5E N3E 1_555 1_555
C5C N3C 1_555 1_555
C5F N3F 1_555 1_555
H3E C5E 1_555 1_555
H3C C5C 1_555 1_555
H3F C5F 1_555 1_555
C6E N4E 1_555 1_555
C6B N4B 1_555 1_555
C6G H4G 1_555 1_555
H4E C6E 1_555 1_555
H4B C6B 1_555 1_555
C7E C7 1_555 1_555
C7B C6B 1_555 1_555
C7G C6G 1_555 1_555
C8E N5E 1_555 1_555
C8B N5B 1_555 1_555
C8G N5G 1_555 1_555
H5E C8E 1_555 1_555
H5B C8B 1_555 1_555
H5G C8G 1_555 1_555
Ag1E N2E 1_555 1_555
Ag1E N4E 1_555 1_555
N2D N2A 1_555 1_555
N4D N4A 1_555 1_555
N5B N5G 1_555 1_555
C1E C2E 1_555 1_555
C1D C2E 1_555 1_555
C3E C4E 1_555 1_555
C4E C5E 1_555 1_555
C4C C4F 1_555 1_555
C4C C5C 1_555 1_555
C4F C5F 1_555 1_555
C6E C7E 1_555 1_555
C7E C8E 1_555 1_555
C7B C7G 1_555 1_555
C7B C8B 1_555 1_555
C7G C8G 1_555 1_555

#END
