
#######################################################################
#
#                 Cambridge Crystallographic Data Centre
#                                CCDC 
#
#######################################################################
#
# If this CIF has been generated from an entry in the Cambridge 
# Structural Database, then it will include bibliographic, chemical, 
# crystal, experimental, refinement or atomic coordinate data resulting 
# from the CCDC's data processing and validation procedures.
#
#######################################################################

data_WILFED
_symmetry_cell_setting           rhombohedral
_symmetry_space_group_name_H-M   'R 3 c'
_symmetry_Int_Tables_number      161
_space_group_name_Hall           'R 3 -2"c'
loop_
_symmetry_equiv_pos_site_id
_symmetry_equiv_pos_as_xyz
1 x,y,z
2 -y,x-y,z
3 -x+y,-x,z
4 -x+y,y,1/2+z
5 x,x-y,1/2+z
6 -y,-x,1/2+z
7 2/3+x,1/3+y,1/3+z
8 2/3-y,1/3+x-y,1/3+z
9 2/3-x+y,1/3-x,1/3+z
10 2/3-x+y,1/3+y,5/6+z
11 2/3+x,1/3+x-y,5/6+z
12 2/3-y,1/3-x,5/6+z
13 1/3+x,2/3+y,2/3+z
14 1/3-y,2/3+x-y,2/3+z
15 1/3-x+y,2/3-x,2/3+z
16 1/3-x+y,2/3+y,1/6+z
17 1/3+x,2/3+x-y,1/6+z
18 1/3-y,2/3-x,1/6+z
_cell_length_a                   15.6887(9)
_cell_length_b                   15.6887(9)
_cell_length_c                   24.4805(18)
_cell_angle_alpha                90
_cell_angle_beta                 90
_cell_angle_gamma                120.00
_cell_volume                     5218.25
loop_
_atom_site_label
_atom_site_type_symbol
_atom_site_fract_x
_atom_site_fract_y
_atom_site_fract_z
Ag1 Ag 0.3333 0.6667 0.484452(18)
Ag2 Ag 0.3333 0.6667 0.33674(5)
Ag3 Ag 0.3334 0.6666 0.68739(2)
O1 O 0.3333 0.6667 0.5820(7)
N1 N 0.4097(3) 0.8253(4) 0.4478(3)
N2 N 0.4120(3) 0.8243(4) 0.3912(3)
N3 N 0.6002(3) 1.1769(4) 0.4478(2)
N4 N 0.6023(4) 1.1768(4) 0.3909(2)
C1 C 0.4541(4) 0.9073(5) 0.4742(3)
H1 H 0.4517 0.9055 0.5134
C2 C 0.5065(4) 1.0005(4) 0.4483(2)
C3 C 0.5550(4) 1.0935(4) 0.4753(3)
H2 H 0.5546 1.0957 0.5145
C4 C 0.4592(4) 0.9082(5) 0.3654(3)
H3 H 0.4601 0.9073 0.3262
C5 C 0.5092(3) 1.0007(4) 0.3917(2)
C6 C 0.5603(4) 1.0929(4) 0.3638(3)
H4 H 0.5654 1.0938 0.3247
Ag2O Ag 0.6667 1.3334 0.50341(5)
Ag2O_2 Ag -0.3333 0.3334 0.50341(5)
Ag2O_3 Ag 0.6667 0.3334 0.50341(5)
Ag3L Ag 0.6667 1.3333 0.35406(2)
Ag3L_2 Ag -0.3333 0.3333 0.35406(2)
Ag3L_3 Ag 0.6667 0.3333 0.35406(2)
N1A N 0.1747(4) 0.5844(5) 0.4478(3)
N1B N 0.4156(5) 0.5903(3) 0.4478(3)
N2A N 0.1757(4) 0.5877(5) 0.3912(3)
N2B N 0.4123(5) 0.5880(3) 0.3912(3)
N3A N -0.1769(4) 0.4233(5) 0.4478(2)
N3B N 0.5767(5) 0.3998(3) 0.4478(2)
N3I N 0.2434(5) 0.5102(4) 0.2811(2)
N3J N 0.2669(3) 0.7566(5) 0.2811(2)
N3K N 0.4898(4) 0.7331(3) 0.2811(2)
N4A N -0.1768(4) 0.4255(6) 0.3909(2)
N4B N 0.5745(6) 0.3977(4) 0.3909(2)
N4F N 0.2690(4) 0.5101(4) 0.7242(2)
N4G N 0.4899(4) 0.7588(6) 0.7242(2)
N4H N 0.2412(6) 0.7310(4) 0.7242(2)
C1A C 0.0927(5) 0.5468(6) 0.4742(3)
C1B C 0.4532(6) 0.5459(4) 0.4742(3)
H1A H 0.0945 0.5462 0.5134
H1B H 0.4538 0.5483 0.5134
C2A C -0.0005(4) 0.5060(6) 0.4483(2)
C2B C 0.4940(6) 0.4935(4) 0.4483(2)
C3A C -0.0935(4) 0.4615(6) 0.4753(3)
C3B C 0.5385(6) 0.4450(4) 0.4753(3)
H2A H -0.0957 0.4589 0.5145
H2B H 0.5411 0.4454 0.5145
C4A C 0.0918(5) 0.5510(6) 0.3654(3)
C4B C 0.4490(6) 0.5408(4) 0.3654(3)
H3A H 0.0927 0.5528 0.3262
H3B H 0.4472 0.5399 0.3262
C5A C -0.0007(4) 0.5085(5) 0.3917(2)
C5B C 0.4915(5) 0.4908(3) 0.3917(2)
C6A C -0.0929(4) 0.4674(6) 0.3638(3)
C6B C 0.5326(6) 0.4397(4) 0.3638(3)
H4A H -0.0938 0.4716 0.3247
H4B H 0.5284 0.4346 0.3247
S1 S 0.36488(11) 1.11396(11) 0.29874(8)
O2 O 0.4608(3) 1.1952(4) 0.2870(2)
O3 O 0.2911(4) 1.0927(5) 0.2577(2)
O4 O 0.3613(4) 1.0296(4) 0.3226(2)
F1 F 0.3271(4) 1.2457(4) 0.3351(4)
F2 F 0.3865(4) 1.1842(5) 0.3975(2)
F3 F 0.2345(4) 1.0951(4) 0.3714(2)
C7 C 0.3259(5) 1.1582(6) 0.3553(3)
loop_
_geom_bond_atom_site_label_1
_geom_bond_atom_site_label_2
_geom_bond_site_symmetry_1
_geom_bond_site_symmetry_2
Ag1 O1 1_555 1_555
Ag2 N2 1_555 1_555
Ag3 O1 1_555 1_555
S1 O2 1_555 1_555
O3 S1 1_555 1_555
O4 S1 1_555 1_555
F1 C7 1_555 1_555
F2 C7 1_555 1_555
F3 C7 1_555 1_555
N1 Ag1 1_555 1_555
N2 N1 1_555 1_555
N3 N4 1_555 1_555
N4 C6 1_555 1_555
C1 N1 1_555 1_555
H1 C1 1_555 1_555
C2 C1 1_555 1_555
C3 N3 1_555 1_555
H2 C3 1_555 1_555
C4 N2 1_555 1_555
H3 C4 1_555 1_555
C5 C2 1_555 1_555
C6 C5 1_555 1_555
H4 C6 1_555 1_555
C7 S1 1_555 1_555
Ag2O N3 1_555 1_555
Ag2O_2 N3A 1_555 1_555
Ag2O_3 N3B 1_555 1_555
Ag3L N4 1_555 1_555
Ag3L_2 N4A 1_555 1_555
Ag3L_3 N4B 1_555 1_555
N1A Ag1 1_555 1_555
N1B Ag1 1_555 1_555
N2A Ag2 1_555 1_555
N2B Ag2 1_555 1_555
N3A N4A 1_555 1_555
N3B N4B 1_555 1_555
N3I Ag2 1_555 1_555
N3J Ag2 1_555 1_555
N3K Ag2 1_555 1_555
N4A C6A 1_555 1_555
N4B C6B 1_555 1_555
N4F Ag3 1_555 1_555
N4G Ag3 1_555 1_555
N4H Ag3 1_555 1_555
C1A N1A 1_555 1_555
C1B N1B 1_555 1_555
H1A C1A 1_555 1_555
H1B C1B 1_555 1_555
C2A C1A 1_555 1_555
C2B C1B 1_555 1_555
C3A N3A 1_555 1_555
C3B N3B 1_555 1_555
H2A C3A 1_555 1_555
H2B C3B 1_555 1_555
C4A N2A 1_555 1_555
C4B N2B 1_555 1_555
H3A C4A 1_555 1_555
H3B C4B 1_555 1_555
C5A C2A 1_555 1_555
C5B C2B 1_555 1_555
C6A C5A 1_555 1_555
C6B C5B 1_555 1_555
H4A C6A 1_555 1_555
H4B C6B 1_555 1_555
C2 C3 1_555 1_555
C4 C5 1_555 1_555
N1A N2A 1_555 1_555
N1B N2B 1_555 1_555
C2A C3A 1_555 1_555
C2B C3B 1_555 1_555
C4A C5A 1_555 1_555
C4B C5B 1_555 1_555

#END
