
#######################################################################
#
#                 Cambridge Crystallographic Data Centre
#                                CCDC 
#
#######################################################################
#
# If this CIF has been generated from an entry in the Cambridge 
# Structural Database, then it will include bibliographic, chemical, 
# crystal, experimental, refinement or atomic coordinate data resulting 
# from the CCDC's data processing and validation procedures.
#
#######################################################################

data_WILFON
_symmetry_cell_setting           orthorhombic
_symmetry_space_group_name_H-M   'P n m a'
_symmetry_Int_Tables_number      62
_space_group_name_Hall           '-P 2ac 2n'
loop_
_symmetry_equiv_pos_site_id
_symmetry_equiv_pos_as_xyz
1 x,y,z
2 1/2-x,-y,1/2+z
3 -x,1/2+y,-z
4 1/2+x,1/2-y,1/2-z
5 -x,-y,-z
6 1/2+x,y,1/2-z
7 x,1/2-y,z
8 1/2-x,1/2+y,1/2+z
_cell_length_a                   7.3514(2)
_cell_length_b                   12.5897(3)
_cell_length_c                   11.3054(3)
_cell_angle_alpha                90
_cell_angle_beta                 90
_cell_angle_gamma                90
_cell_volume                     1046.34
loop_
_atom_site_label
_atom_site_type_symbol
_atom_site_fract_x
_atom_site_fract_y
_atom_site_fract_z
Ag1 Ag 0.05432(4) 0.2500 0.82500(2)
O1 O -0.1103(5) 0.3347(4) 1.0105(4)
N1 N 0.3076(4) 0.3759(2) 0.8829(2)
N2 N 0.4723(4) 0.3812(2) 0.8256(2)
F1 F -0.4555(5) 0.2500 1.1093(4)
F2 F -0.2712(6) 0.3332(3) 1.2200(3)
C1 C 0.2823(4) 0.4307(2) 0.9797(2)
H1 H 0.1677 0.4246 1.0198
C2 C 0.4178(4) 0.4969(2) 1.0291(2)
C3 C 0.6018(4) 0.4416(2) 0.8666(3)
H2 H 0.7139 0.4460 0.8233
C4 C -0.1517(7) 0.2500 1.0497(4)
C5 C -0.2860(8) 0.2500 1.1536(4)
Ag1E Ag 0.55432(4) 0.2500 0.67500(2)
Ag1D Ag 0.94568(4) 0.7500 1.17500(2)
Ag1G Ag 0.44568(4) 0.7500 1.32500(2)
O1F O -0.1103(5) 0.1653(4) 1.0105(4)
N1D N 0.6924(4) 0.6241(2) 1.1171(2)
N1F N 0.3076(4) 0.1241(2) 0.8829(2)
N2D N 0.5277(4) 0.6188(2) 1.1744(2)
N2E N -0.0277(4) 0.3812(2) 0.6744(2)
N2C N -0.0277(4) 0.1188(2) 0.6744(2)
F2F F -0.2712(6) 0.1668(3) 1.2200(3)
C1D C 0.7177(4) 0.5693(2) 1.0203(2)
H1D H 0.8323 0.5754 0.9802
C2D C 0.5822(4) 0.5031(2) 0.9709(2)
C3D C 0.3982(4) 0.5584(2) 1.1334(3)
H2D H 0.2861 0.5540 1.1767
loop_
_geom_bond_atom_site_label_1
_geom_bond_atom_site_label_2
_geom_bond_site_symmetry_1
_geom_bond_site_symmetry_2
Ag1 O1 1_555 1_555
O1 C4 1_555 1_555
N1 Ag1 1_555 1_555
N2 N1 1_555 1_555
F1 C5 1_555 1_555
F2 C5 1_555 1_555
C1 N1 1_555 1_555
H1 C1 1_555 1_555
C2 C1 1_555 1_555
C3 N2 1_555 1_555
H2 C3 1_555 1_555
C4 C5 1_555 1_555
C5 F2F 1_555 1_555
Ag1E N2 1_555 1_555
Ag1D N1D 1_555 1_555
Ag1G N2D 1_555 1_555
O1F Ag1 1_555 1_555
N1D N2D 1_555 1_555
N1F Ag1 1_555 1_555
N2D C3D 1_555 1_555
N2E Ag1 1_555 1_555
N2C Ag1 1_555 1_555
C1D N1D 1_555 1_555
H1D C1D 1_555 1_555
C2D C2 1_555 1_555
C3D C2 1_555 1_555
H2D C3D 1_555 1_555
C3 C2D 1_555 1_555
C4 O1F 1_555 1_555
C1D C2D 1_555 1_555

#END
