
#######################################################################
#
#                 Cambridge Crystallographic Data Centre
#                                CCDC 
#
#######################################################################
#
# If this CIF has been generated from an entry in the Cambridge 
# Structural Database, then it will include bibliographic, chemical, 
# crystal, experimental, refinement or atomic coordinate data resulting 
# from the CCDC's data processing and validation procedures.
#
#######################################################################

data_WILFIH
_symmetry_cell_setting           monoclinic
_symmetry_space_group_name_H-M   'P 21/c'
_symmetry_Int_Tables_number      14
_space_group_name_Hall           '-P 2ybc'
loop_
_symmetry_equiv_pos_site_id
_symmetry_equiv_pos_as_xyz
1 x,y,z
2 -x,1/2+y,1/2-z
3 -x,-y,-z
4 x,1/2-y,1/2+z
_cell_length_a                   8.85070(10)
_cell_length_b                   17.2093(3)
_cell_length_c                   12.0859(2)
_cell_angle_alpha                90
_cell_angle_beta                 100.7850(10)
_cell_angle_gamma                90
_cell_volume                     1808.34
loop_
_atom_site_label
_atom_site_type_symbol
_atom_site_fract_x
_atom_site_fract_y
_atom_site_fract_z
Ag1 Ag -0.13478(3) -0.09522(2) -0.16329(3)
Ag2 Ag -0.05257(3) -0.10507(2) 0.13012(2)
O1 O -0.2311(9) -0.2067(3) -0.2918(6)
O2 O 0.1099(7) -0.2114(3) 0.2460(4)
O3 O -0.0990(6) -0.2450(3) 0.0242(5)
C1 C 0.2374(4) -0.1033(2) -0.1299(3)
H1 H 0.2152 -0.1089 -0.2078
C2 C 0.3922(4) -0.1032(2) -0.0740(3)
C3 C -0.4798(4) -0.1064(2) -0.1290(3)
H2 H -0.4970 -0.1120 -0.2069
C4 C 0.2939(4) -0.0902(2) 0.0960(3)
H3 H 0.3113 -0.0868 0.1741
C5 C 0.4217(4) -0.0967(2) 0.0419(3)
C6 C -0.4222(4) -0.0950(2) 0.0970(3)
H4 H -0.4000 -0.0919 0.1752
C7 C 0.1277(5) 0.0496(3) 0.4192(3)
H5 H 0.2084 0.0851 0.4323
C8 C 0.0585(4) 0.0265(2) 0.5108(3)
C9 C 0.0975(5) 0.0566(3) 0.6213(3)
H6 H 0.1731 0.0946 0.6367
N1 N 0.1234(4) -0.0958(2) -0.0745(3)
N2 N 0.1528(4) -0.0889(2) 0.0407(3)
N3 N -0.3379(3) -0.10189(18) -0.0735(2)
N4 N -0.3083(3) -0.09747(19) 0.0424(3)
N5 N 0.0824(4) 0.0229(2) 0.3172(3)
N6 N 0.0303(4) 0.0325(2) 0.7026(3)
Ag1_2 Ag -0.13478(3) -0.09522(2) 0.83671(3)
Ag1B Ag 0.13478(3) 0.09522(2) 0.16329(3)
Ag1_3 Ag 0.86522(3) -0.09522(2) -0.16329(3)
Ag1_4 Ag -1.13478(3) -0.09522(2) -0.16329(3)
Ag2B Ag 0.05257(3) 0.10507(2) 0.86988(2)
Ag2_2 Ag 0.94743(3) -0.10507(2) 0.13012(2)
Ag2_3 Ag -1.05257(3) -0.10507(2) 0.13012(2)
O1_2 O 0.7689(9) -0.2067(3) -0.2918(6)
O2_2 O 1.1099(7) -0.2114(3) 0.2460(4)
O3_2 O 0.9010(6) -0.2450(3) 0.0242(5)
C1_2 C -0.7626(4) -0.1033(2) -0.1299(3)
H1_2 H -0.7848 -0.1089 -0.2078
C2_2 C -0.6078(4) -0.1032(2) -0.0740(3)
C3_2 C 0.5202(4) -0.1064(2) -0.1290(3)
H2_2 H 0.5030 -0.1120 -0.2069
C4_2 C -0.7061(4) -0.0902(2) 0.0960(3)
H3_2 H -0.6887 -0.0868 0.1741
C5_2 C -0.5783(4) -0.0967(2) 0.0419(3)
C6_2 C 0.5778(4) -0.0950(2) 0.0970(3)
H4_2 H 0.6000 -0.0919 0.1752
C7B C -0.1277(5) -0.0496(3) 0.5808(3)
H5B H -0.2084 -0.0851 0.5677
C8B C -0.0585(4) -0.0265(2) 0.4892(3)
C9B C -0.0975(5) -0.0566(3) 0.3787(3)
H6B H -0.1731 -0.0946 0.3633
N1_2 N 1.1234(4) -0.0958(2) -0.0745(3)
N1_3 N -0.8766(4) -0.0958(2) -0.0745(3)
N2_2 N 1.1528(4) -0.0889(2) 0.0407(3)
N2_3 N -0.8472(4) -0.0889(2) 0.0407(3)
N3_2 N 0.6621(3) -0.10189(18) -0.0735(2)
N4_2 N 0.6917(3) -0.09747(19) 0.0424(3)
N5B N -0.0824(4) -0.0229(2) 0.6828(3)
N5B_2 N -0.0824(4) -0.0229(2) -0.3172(3)
N5B_3 N 0.9176(4) -0.0229(2) -0.3172(3)
N6B N -0.0303(4) -0.0325(2) 0.2974(3)
N6B_2 N 0.9697(4) -0.0325(2) 0.2974(3)
Si1 Si -0.34360(19) 0.32634(8) -0.04392(11)
F1 F -0.1913(8) 0.2749(5) 0.0036(6)
F2 F -0.4332(8) 0.2685(3) 0.0320(5)
F3 F -0.3803(9) 0.2672(3) -0.1547(5)
F4 F -0.3062(7) 0.3851(3) 0.0645(4)
F5 F -0.2602(7) 0.3853(3) -0.1211(4)
F6 F -0.5084(5) 0.3726(3) -0.0919(5)
O4 O -0.5140(7) 0.0290(3) -0.3300(4)
O5 O 0.3345(8) 0.2987(4) 0.1425(6)
loop_
_geom_bond_atom_site_label_1
_geom_bond_atom_site_label_2
_geom_bond_site_symmetry_1
_geom_bond_site_symmetry_2
Ag1 O1 1_555 1_555
Ag2 O2 1_555 1_555
Si1 F1 1_555 1_555
F2 Si1 1_555 1_555
F3 Si1 1_555 1_555
F4 Si1 1_555 1_555
F5 Si1 1_555 1_555
F6 Si1 1_555 1_555
O3 Ag2 1_555 1_555
C1 H1 1_555 1_555
C2 C1 1_555 1_555
C3 H2 1_555 1_555
C4 H3 1_555 1_555
C5 C2 1_555 1_555
C6 H4 1_555 1_555
C7 H5 1_555 1_555
C8 C7 1_555 1_555
C9 C8 1_555 1_555
H6 C9 1_555 1_555
N1 Ag1 1_555 1_555
N2 Ag2 1_555 1_555
N3 Ag1 1_555 1_555
N4 Ag2 1_555 1_555
N5 C7 1_555 1_555
N6 C9 1_555 1_555
Ag1_2 N5B 1_555 1_555
Ag1B N5 1_555 1_555
Ag1_3 O1_2 1_555 1_555
Ag1_4 N1_3 1_555 1_555
Ag2B N6 1_555 1_555
Ag2_2 O2_2 1_555 1_555
Ag2_3 N2_3 1_555 1_555
O3_2 Ag2_2 1_555 1_555
C1_2 H1_2 1_555 1_555
C2_2 C3 1_555 1_555
C3_2 C2 1_555 1_555
H2_2 C3_2 1_555 1_555
C4_2 H3_2 1_555 1_555
C5_2 C6 1_555 1_555
C6_2 C5 1_555 1_555
H4_2 C6_2 1_555 1_555
C7B H5B 1_555 1_555
C8B C8 1_555 1_555
C9B C8B 1_555 1_555
H6B C9B 1_555 1_555
N1_2 Ag1_3 1_555 1_555
N1_3 C1_2 1_555 1_555
N2_2 Ag2_2 1_555 1_555
N2_3 C4_2 1_555 1_555
N3_2 Ag1_3 1_555 1_555
N4_2 Ag2_2 1_555 1_555
N5B N6 1_555 1_555
N5B_2 Ag1 1_555 1_555
N5B_3 Ag1_3 1_555 1_555
N6B Ag2 1_555 1_555
N6B_2 Ag2_2 1_555 1_555
C1 N1 1_555 1_555
C3 N3 1_555 1_555
C4 C5 1_555 1_555
C4 N2 1_555 1_555
C6 N4 1_555 1_555
N1 N2 1_555 1_555
N3 N4 1_555 1_555
N5 N6B 1_555 1_555
C1_2 C2_2 1_555 1_555
C2_2 C5_2 1_555 1_555
C3_2 N3_2 1_555 1_555
C4_2 C5_2 1_555 1_555
C6_2 N4_2 1_555 1_555
C7B C8B 1_555 1_555
C7B N5B 1_555 1_555
C9B N6B 1_555 1_555
N1_2 N2_2 1_555 1_555
N1_3 N2_3 1_555 1_555
N3_2 N4_2 1_555 1_555

#END
