
#######################################################################
#
#                 Cambridge Crystallographic Data Centre
#                                CCDC 
#
#######################################################################
#
# If this CIF has been generated from an entry in the Cambridge 
# Structural Database, then it will include bibliographic, chemical, 
# crystal, experimental, refinement or atomic coordinate data resulting 
# from the CCDC's data processing and validation procedures.
#
#######################################################################

data_WILGUU
_symmetry_cell_setting           rhombohedral
_symmetry_space_group_name_H-M   'R -3'
_symmetry_Int_Tables_number      148
_space_group_name_Hall           '-R 3'
loop_
_symmetry_equiv_pos_site_id
_symmetry_equiv_pos_as_xyz
1 x,y,z
2 -y,x-y,z
3 -x+y,-x,z
4 2/3+x,1/3+y,1/3+z
5 2/3-y,1/3+x-y,1/3+z
6 2/3-x+y,1/3-x,1/3+z
7 1/3+x,2/3+y,2/3+z
8 1/3-y,2/3+x-y,2/3+z
9 1/3-x+y,2/3-x,2/3+z
10 -x,-y,-z
11 y,-x+y,-z
12 x-y,x,-z
13 1/3-x,2/3-y,2/3-z
14 1/3+y,2/3-x+y,2/3-z
15 1/3+x-y,2/3+x,2/3-z
16 2/3-x,1/3-y,1/3-z
17 2/3+y,1/3-x+y,1/3-z
18 2/3+x-y,1/3+x,1/3-z
_cell_length_a                   26.9862(12)
_cell_length_b                   26.9862(12)
_cell_length_c                   7.6176(4)
_cell_angle_alpha                90
_cell_angle_beta                 90
_cell_angle_gamma                120.00
_cell_volume                     4804.32
loop_
_atom_site_label
_atom_site_type_symbol
_atom_site_fract_x
_atom_site_fract_y
_atom_site_fract_z
Ag1 Ag 0.025664(13) 0.317573(14) 0.93617(4)
N1 N -0.06894(13) 0.25508(15) 0.8929(4)
N2 N -0.10031(14) 0.25606(16) 1.0284(4)
C1 C -0.09435(16) 0.22098(16) 0.7571(5)
H1 H -0.0711 0.2209 0.6619
C2 C -0.15356(15) 0.18480(15) 0.7445(4)
C3 C -0.18474(18) 0.18580(19) 0.8837(5)
H2 H -0.2256 0.1615 0.8857
C4 C -0.15613(18) 0.2230(2) 1.0232(5)
H3 H -0.1782 0.2240 1.1205
C5 C 0.0156(2) 0.23211(19) 1.2417(6)
C6 C 0.0266(3) 0.1831(2) 1.2981(9)
O1 O 0.04883(15) 0.26232(17) 1.1276(5)
O2 O -0.01980(14) 0.23744(14) 1.3298(5)
C7 C -0.0064(4) 0.1318(4) 1.1898(15)
F1 F 0.0131(4) 0.1686(3) 1.4669(8)
F2 F 0.0833(2) 0.1942(2) 1.2722(10)
F3 F -0.0605(3) 0.1172(3) 1.2197(16)
F4 F 0.0093(4) 0.1451(4) 1.0232(10)
F5 F 0.0060(5) 0.0913(3) 1.2425(17)
Ag1O Ag -0.358997(13) 0.015760(14) 0.39716(4)
Ag1E Ag -0.041424(19) 0.307669(13) 1.26950(4)
Ag1K Ag -0.291909(19) 0.025664(13) 0.06383(4)
Ag1G Ag 0.015760(14) 0.374758(19) 0.60284(4)
N1O N -0.26439(13) 0.07825(15) 0.4404(4)
N2O N -0.23302(14) 0.07727(16) 0.3049(4)
N2G N 0.07727(16) 0.31030(21) 0.6951(4)
N2M N -0.41061(16) 0.02304(21) 0.6383(4)
C1O C -0.23898(16) 0.11235(16) 0.5762(5)
H1O H -0.2622 0.1124 0.6714
C2O C -0.17977(15) 0.14853(15) 0.5888(4)
C3O C -0.14859(18) 0.14753(19) 0.4496(5)
H2O H -0.1077 0.1718 0.4476
C4O C -0.17720(18) 0.1103(2) 0.3101(5)
H3O H -0.1551 0.1093 0.2128
C5G C 0.10122(19) 0.45016(28) 0.9084(6)
C6G C 0.1502(2) 0.5102(4) 0.9648(9)
O1G O 0.07101(17) 0.45318(23) 0.7943(5)
O1O O -0.38216(15) 0.07101(17) 0.2057(5)
O2G O 0.09589(14) 0.40943(20) 0.9965(5)
O2M O -0.42923(14) -0.07609(20) 0.3369(5)
C7G C 0.2015(4) 0.5285(6) 0.8565(15)
F1G F 0.1647(3) 0.5112(5) 1.1336(8)
F2G F 0.1391(2) 0.5558(3) 0.9389(10)
F3G F 0.2161(3) 0.4890(4) 0.8864(16)
F4G F 0.1882(4) 0.5309(6) 0.6899(10)
F5G F 0.2420(3) 0.5814(6) 0.9092(17)
loop_
_geom_bond_atom_site_label_1
_geom_bond_atom_site_label_2
_geom_bond_site_symmetry_1
_geom_bond_site_symmetry_2
Ag1 N1 1_555 1_555
N1 N2 1_555 1_555
N2 C4 1_555 1_555
C1 N1 1_555 1_555
H1 C1 1_555 1_555
C2 C1 1_555 1_555
C3 C2 1_555 1_555
H2 C3 1_555 1_555
C4 C3 1_555 1_555
H3 C4 1_555 1_555
C5 C6 1_555 1_555
C6 C7 1_555 1_555
O1 Ag1 1_555 1_555
O2 C5 1_555 1_555
C7 F3 1_555 1_555
F1 C6 1_555 1_555
F2 C6 1_555 1_555
F4 C7 1_555 1_555
F5 C7 1_555 1_555
Ag1O N1O 1_555 1_555
Ag1E N2 1_555 1_555
Ag1K N2O 1_555 1_555
Ag1G O1G 1_555 1_555
N1O N2O 1_555 1_555
N2O C4O 1_555 1_555
N2G Ag1 1_555 1_555
N2M Ag1O 1_555 1_555
C1O N1O 1_555 1_555
H1O C1O 1_555 1_555
C2O C2 1_555 1_555
C3O C2O 1_555 1_555
H2O C3O 1_555 1_555
C4O C3O 1_555 1_555
H3O C4O 1_555 1_555
C5G C6G 1_555 1_555
C6G C7G 1_555 1_555
O1G C5G 1_555 1_555
O1O Ag1O 1_555 1_555
O2G Ag1 1_555 1_555
O2M Ag1O 1_555 1_555
C7G F3G 1_555 1_555
F1G C6G 1_555 1_555
F2G C6G 1_555 1_555
F4G C7G 1_555 1_555
F5G C7G 1_555 1_555
C5 O1 1_555 1_555
O2 Ag1E 1_555 1_555
C1O C2O 1_555 1_555
C5G O2G 1_555 1_555

#END
