
#######################################################################
#
#                 Cambridge Crystallographic Data Centre
#                                CCDC 
#
#######################################################################
#
# If this CIF has been generated from an entry in the Cambridge 
# Structural Database, then it will include bibliographic, chemical, 
# crystal, experimental, refinement or atomic coordinate data resulting 
# from the CCDC's data processing and validation procedures.
#
#######################################################################

data_WILGII
_symmetry_cell_setting           monoclinic
_symmetry_space_group_name_H-M   'P 21'
_symmetry_Int_Tables_number      4
_space_group_name_Hall           'P 2yb'
loop_
_symmetry_equiv_pos_site_id
_symmetry_equiv_pos_as_xyz
1 x,y,z
2 -x,1/2+y,-z
_cell_length_a                   8.7652(6)
_cell_length_b                   22.1004(15)
_cell_length_c                   10.4417(7)
_cell_angle_alpha                90
_cell_angle_beta                 91.8740(10)
_cell_angle_gamma                90
_cell_volume                     2021.63
loop_
_atom_site_label
_atom_site_type_symbol
_atom_site_fract_x
_atom_site_fract_y
_atom_site_fract_z
Ag1 Ag 0.34332(2) 0.803470(7) 0.51196(2)
Ag2 Ag 0.25102(2) 0.707808(10) 0.756727(17)
Ag3 Ag 0.17730(2) 0.795840(6) 0.01653(2)
O1 O 0.2322(2) 0.80915(10) 0.26325(17)
H1 H 0.1387 0.7973 0.2962
H2 H 0.2455 0.8495 0.2541
N1 N 0.3731(3) 0.70413(9) 0.4793(2)
N2 N 0.3732(3) 0.66854(9) 0.5847(2)
N3 N 0.5545(3) 0.39579(9) 0.4629(2)
N4 N 0.6042(3) 0.43221(10) 0.3694(2)
N5 N 0.1141(3) 0.82542(10) 0.6224(2)
N6 N 0.0631(3) 0.77886(10) 0.6922(2)
N7 N -0.5494(3) 0.77395(10) 0.8260(2)
N8 N -0.6008(3) 0.81906(10) 0.9018(2)
N9 N 0.1249(3) 0.66478(9) 0.9221(2)
N10 N 0.1226(3) 0.69635(9) 1.0331(2)
N11 N -0.0643(3) 0.38783(10) 1.0062(2)
N12 N -0.1106(3) 0.42100(10) 1.1059(2)
C1 C 0.4029(3) 0.61020(11) 0.5751(3)
H5 H 0.4044 0.5868 0.6503
C2 C 0.4325(3) 0.58104(11) 0.4587(3)
C3 C 0.4271(3) 0.61687(11) 0.3513(3)
H6 H 0.4416 0.6002 0.2697
C4 C 0.3995(3) 0.67893(11) 0.3664(3)
H7 H 0.3995 0.7039 0.2934
C5 C 0.5617(4) 0.48944(12) 0.3682(3)
H8 H 0.5965 0.5143 0.3022
C6 C 0.4679(3) 0.51562(10) 0.4593(3)
C7 C 0.4151(3) 0.47784(12) 0.5520(3)
H9 H 0.3489 0.4918 0.6145
C8 C 0.4638(4) 0.41756(12) 0.5498(3)
H10 H 0.4299 0.3912 0.6136
C9 C 0.0285(3) 0.87444(11) 0.6085(3)
H11 H 0.0668 0.9070 0.5613
C10 C -0.1152(3) 0.88040(12) 0.6597(3)
H12 H -0.1722 0.9162 0.6486
C11 C -0.1714(3) 0.83226(12) 0.7272(3)
C12 C -0.0737(3) 0.78222(12) 0.7418(3)
H13 H -0.1075 0.7491 0.7897
C13 C -0.4167(3) 0.77984(12) 0.7710(3)
H14 H -0.3833 0.7481 0.7190
C14 C -0.3224(3) 0.83111(11) 0.7861(3)
C15 C -0.3786(3) 0.87780(12) 0.8569(3)
H15 H -0.3242 0.9142 0.8671
C16 C -0.5194(3) 0.86948(12) 0.9134(3)
H16 H -0.5584 0.9013 0.9622
C17 C 0.0902(3) 0.60634(11) 0.9215(2)
H17 H 0.0895 0.5856 0.8429
C18 C 0.0547(3) 0.57376(10) 1.0320(2)
C19 C 0.0554(3) 0.60556(11) 1.1448(3)
H18 H 0.0353 0.5864 1.2228
C20 C 0.0871(3) 0.66761(11) 1.1399(3)
H19 H 0.0831 0.6901 1.2162
C21 C 0.0207(4) 0.41280(11) 0.9187(3)
H20 H 0.0519 0.3886 0.8503
C22 C 0.0669(3) 0.47331(12) 0.9223(3)
H21 H 0.1293 0.4895 0.8593
C23 C 0.0174(3) 0.50830(10) 1.0219(2)
C24 C -0.0700(3) 0.47845(12) 1.1124(3)
H22 H -0.1021 0.5010 1.1830
Ag1A Ag 0.65668(2) 0.303470(7) 0.48804(2)
Ag2_2 Ag -0.74898(2) 0.707808(10) 0.756727(17)
Ag3_2 Ag -0.82270(2) 0.795840(6) 1.01653(2)
Ag3_3 Ag 0.17730(2) 0.795840(6) 1.01653(2)
Ag3A Ag -0.17730(2) 0.295840(6) 0.98347(2)
N3A N 0.4455(3) 0.89579(9) 0.5371(2)
N7_2 N 0.4506(3) 0.77395(10) 0.8260(2)
N8_2 N 0.3992(3) 0.81906(10) -0.0982(2)
N10_2 N 0.1226(3) 0.69635(9) 0.0331(2)
N11A N 0.0643(3) 0.88783(10) -0.0062(2)
S1 S 0.48847(9) 0.53751(3) 0.96002(7)
F1 F 0.6590(4) 0.62484(16) 0.8791(4)
F2 F 0.6928(3) 0.60390(13) 1.0775(3)
F3 F 0.4931(3) 0.65268(10) 1.0123(3)
O2 O 0.6095(3) 0.49491(11) 0.9391(3)
O3 O 0.4134(3) 0.52897(13) 1.0790(2)
O4 O 0.3886(3) 0.54795(12) 0.8520(2)
C25 C 0.5890(5) 0.60815(17) 0.9809(4)
S2 S 0.98949(9) 0.54006(3) 0.53371(6)
F4 F 0.8128(3) 0.61871(12) 0.4156(3)
F5 F 1.0259(3) 0.65394(11) 0.4852(3)
F6 F 0.8475(4) 0.63545(15) 0.6151(3)
O5 O 1.0953(3) 0.54618(11) 0.6407(2)
O6 O 0.8574(3) 0.50413(12) 0.5561(3)
O7 O 1.0582(3) 0.52741(11) 0.4133(2)
C26 C 0.9144(5) 0.61627(16) 0.5128(4)
S3 S -0.18853(9) 0.79606(4) 0.34953(7)
F7 F -0.4210(3) 0.79138(15) 0.1866(3)
F8 F -0.2037(3) 0.78220(14) 0.1004(2)
F9 F -0.2987(3) 0.70872(12) 0.2085(2)
O8 O -0.1786(3) 0.86036(10) 0.3296(3)
O9 O -0.0425(3) 0.76661(11) 0.3483(3)
O10 O -0.2895(3) 0.77788(11) 0.4471(2)
C27 C -0.2833(5) 0.7685(2) 0.2031(4)
O11 O 0.2664(3) 0.92981(13) 1.2588(2)
H3 H 0.2932 0.9560 1.2044
H4 H 0.2118 0.9534 1.3110
loop_
_geom_bond_atom_site_label_1
_geom_bond_atom_site_label_2
_geom_bond_site_symmetry_1
_geom_bond_site_symmetry_2
Ag1 O1 1_555 1_555
Ag2 N2 1_555 1_555
Ag3 O1 1_555 1_555
S1 O2 1_555 1_555
S2 O5 1_555 1_555
S3 O8 1_555 1_555
F1 C25 1_555 1_555
F2 C25 1_555 1_555
F3 C25 1_555 1_555
F4 C26 1_555 1_555
F5 C26 1_555 1_555
F6 C26 1_555 1_555
F7 C27 1_555 1_555
F8 C27 1_555 1_555
F9 C27 1_555 1_555
O1 H1 1_555 1_555
H2 O1 1_555 1_555
O3 S1 1_555 1_555
O4 S1 1_555 1_555
O6 S2 1_555 1_555
O7 S2 1_555 1_555
O9 S3 1_555 1_555
O10 S3 1_555 1_555
O11 H3 1_555 1_555
H4 O11 1_555 1_555
N1 Ag1 1_555 1_555
N2 N1 1_555 1_555
N3 N4 1_555 1_555
N4 C5 1_555 1_555
N5 Ag1 1_555 1_555
N6 Ag2 1_555 1_555
N7 N8 1_555 1_555
N8 C16 1_555 1_555
N9 Ag2 1_555 1_555
N10 N9 1_555 1_555
N11 N12 1_555 1_555
N12 C24 1_555 1_555
C1 N2 1_555 1_555
H5 C1 1_555 1_555
C2 C1 1_555 1_555
C3 C2 1_555 1_555
H6 C3 1_555 1_555
C4 N1 1_555 1_555
H7 C4 1_555 1_555
C5 H8 1_555 1_555
C6 C2 1_555 1_555
C7 C6 1_555 1_555
H9 C7 1_555 1_555
C8 N3 1_555 1_555
H10 C8 1_555 1_555
C9 N5 1_555 1_555
H11 C9 1_555 1_555
C10 C9 1_555 1_555
H12 C10 1_555 1_555
C11 C10 1_555 1_555
C12 N6 1_555 1_555
H13 C12 1_555 1_555
C13 N7 1_555 1_555
H14 C13 1_555 1_555
C14 C11 1_555 1_555
C15 C14 1_555 1_555
H15 C15 1_555 1_555
C16 C15 1_555 1_555
H16 C16 1_555 1_555
C17 N9 1_555 1_555
H17 C17 1_555 1_555
C18 C17 1_555 1_555
C19 C18 1_555 1_555
H18 C19 1_555 1_555
C20 N10 1_555 1_555
H19 C20 1_555 1_555
C21 N11 1_555 1_555
H20 C21 1_555 1_555
C22 C21 1_555 1_555
H21 C22 1_555 1_555
C23 C18 1_555 1_555
C24 C23 1_555 1_555
H22 C24 1_555 1_555
C25 S1 1_555 1_555
C26 S2 1_555 1_555
C27 S3 1_555 1_555
Ag1A N3 1_555 1_555
Ag2_2 N7 1_555 1_555
Ag3_2 N8 1_555 1_555
Ag3_3 N10 1_555 1_555
Ag3A N11 1_555 1_555
N3A Ag1 1_555 1_555
N7_2 Ag2 1_555 1_555
N8_2 Ag3 1_555 1_555
N10_2 Ag3 1_555 1_555
N11A Ag3 1_555 1_555
N5 N6 1_555 1_555
C3 C4 1_555 1_555
C5 C6 1_555 1_555
C7 C8 1_555 1_555
C11 C12 1_555 1_555
C13 C14 1_555 1_555
C19 C20 1_555 1_555
C22 C23 1_555 1_555

#END
