
#######################################################################
#
#                 Cambridge Crystallographic Data Centre
#                                CCDC 
#
#######################################################################
#
# If this CIF has been generated from an entry in the Cambridge 
# Structural Database, then it will include bibliographic, chemical, 
# crystal, experimental, refinement or atomic coordinate data resulting 
# from the CCDC's data processing and validation procedures.
#
#######################################################################

data_WILGAA
_symmetry_cell_setting           monoclinic
_symmetry_space_group_name_H-M   'P 21/n'
_symmetry_Int_Tables_number      14
_space_group_name_Hall           '-P 2yn'
loop_
_symmetry_equiv_pos_site_id
_symmetry_equiv_pos_as_xyz
1 x,y,z
2 1/2-x,1/2+y,1/2-z
3 -x,-y,-z
4 1/2+x,1/2-y,1/2+z
_cell_length_a                   10.6823(8)
_cell_length_b                   12.1323(7)
_cell_length_c                   14.6844(9)
_cell_angle_alpha                90
_cell_angle_beta                 97.017(8)
_cell_angle_gamma                90
_cell_volume                     1888.86
loop_
_atom_site_label
_atom_site_type_symbol
_atom_site_fract_x
_atom_site_fract_y
_atom_site_fract_z
Ag1 Ag 0.41740(3) 0.57643(2) 0.15513(2)
Ag2 Ag 0.61457(3) 0.39720(3) 0.08458(2)
N1 N 0.4862(3) 0.4439(3) 0.2615(2)
N2 N 0.5838(3) 0.3862(3) 0.2365(2)
N3 N 0.8232(4) 0.0684(3) 0.5593(2)
N4 N 0.8080(3) 0.0547(3) 0.4673(2)
N5 N 0.4539(3) 0.7510(3) 0.0079(2)
N6 N 0.4615(3) 0.7407(3) 0.0997(2)
C1 C 0.4540(4) 0.4310(3) 0.3443(3)
H1 H 0.3849 0.4715 0.3604
C2 C 0.5166(4) 0.3605(3) 0.4097(3)
H2 H 0.4910 0.3535 0.4684
C3 C 0.6176(4) 0.3012(3) 0.3853(3)
C4 C 0.6475(4) 0.3180(3) 0.2958(3)
H3 H 0.7160 0.2791 0.2771
C5 C 0.7733(5) 0.1555(4) 0.5953(3)
H4 H 0.7845 0.1639 0.6594
C6 C 0.7046(4) 0.2353(4) 0.5419(3)
H5 H 0.6700 0.2962 0.5695
C7 C 0.6887(4) 0.2230(3) 0.4480(3)
C8 C 0.7435(4) 0.1278(3) 0.4138(3)
H6 H 0.7336 0.1159 0.3500
C9 C 0.4679(4) 0.8494(3) -0.0284(3)
H7 H 0.4600 0.8549 -0.0927
C10 C 0.4936(4) 0.9462(3) 0.0229(3)
C11 C 0.5062(7) 0.9330(4) 0.1170(4)
H8 H 0.5263 0.9930 0.1565
C12 C 0.4882(6) 0.8286(4) 0.1513(3)
H9 H 0.4955 0.8198 0.2154
B1 B 0.8549(6) 0.1755(6) 0.1340(4)
F1 F 0.8145(4) 0.2841(4) 0.1269(3)
F2 F 0.8201(4) 0.1178(5) 0.0534(3)
F3 F 0.8025(4) 0.1274(4) 0.2048(3)
F4 F 0.9859(3) 0.1729(3) 0.1516(3)
Ag1C Ag -0.08260(3) -0.07643(2) -0.34487(2)
Ag1C_2 Ag 0.91740(3) -0.07643(2) 0.65513(2)
Ag1B Ag 0.58260(3) 1.42357(2) -0.15513(2)
Ag2C Ag 0.11457(3) 0.10280(3) -0.41542(2)
Ag2A Ag 0.88543(3) -0.10280(3) 0.41542(2)
Ag2B Ag 0.38543(3) 0.60280(3) -0.08458(2)
Ag2_2 Ag 0.61457(3) 1.39720(3) 0.08458(2)
N1C N -0.0138(3) 0.0561(3) -0.2385(2)
N2C N 0.0838(3) 0.1138(3) -0.2635(2)
N3C N 0.3232(4) 0.4316(3) 0.0593(2)
N3_2 N -0.1768(4) 0.0684(3) -0.4407(2)
N4C N 0.3080(3) 0.4453(3) -0.0327(2)
N4A N 0.6920(3) 0.5547(3) 0.0327(2)
N4B N 0.1920(3) -0.0547(3) -0.4673(2)
N5B N 0.5461(3) 1.2490(3) -0.0079(2)
N5B_2 N 0.5461(3) 0.2490(3) -0.0079(2)
N5A N 0.0461(3) 0.2510(3) -0.5079(2)
N6B N 0.5385(3) 1.2593(3) -0.0997(2)
N6C N -0.0385(3) -0.2407(3) -0.4003(2)
C1C C -0.0460(4) 0.0690(3) -0.1557(3)
H1C H -0.1151 0.0285 -0.1396
C2C C 0.0166(4) 0.1395(3) -0.0903(3)
H2C H -0.0090 0.1465 -0.0316
C3C C 0.1176(4) 0.1988(3) -0.1147(3)
C4C C 0.1475(4) 0.1820(3) -0.2042(3)
H3C H 0.2160 0.2209 -0.2229
C5C C 0.2733(5) 0.3445(4) 0.0953(3)
H4C H 0.2845 0.3361 0.1594
C6C C 0.2046(4) 0.2647(4) 0.0419(3)
H5C H 0.1700 0.2038 0.0695
C7C C 0.1887(4) 0.2770(3) -0.0520(3)
C8C C 0.2435(4) 0.3722(3) -0.0862(3)
H6C H 0.2336 0.3841 -0.1500
C9B C 0.5321(4) 1.1506(3) 0.0284(3)
H7B H 0.5400 1.1451 0.0927
C10B C 0.5064(4) 1.0538(3) -0.0229(3)
C11B C 0.4938(7) 1.0670(4) -0.1170(4)
H8B H 0.4737 1.0070 -0.1565
C12B C 0.5118(6) 1.1714(4) -0.1513(3)
H9B H 0.5045 1.1802 -0.2154
B1C B 0.3549(6) 0.3245(6) -0.3660(4)
F1C F 0.3145(4) 0.2159(4) -0.3731(3)
F2C F 0.3201(4) 0.3822(5) -0.4466(3)
F3C F 0.3025(4) 0.3726(4) -0.2952(3)
F4C F 0.4859(3) 0.3271(3) -0.3484(3)
B2 B 0.1313(5) 0.6080(5) 0.2180(5)
F5 F 0.0167(6) 0.6284(8) 0.2462(6)
F6 F 0.1688(10) 0.5028(6) 0.2282(8)
F7 F 0.2177(9) 0.6883(8) 0.2245(7)
F8 F 0.0859(11) 0.6029(10) 0.1185(5)
O1 O 0.0374(14) 0.5648(13) -0.0246(13)
F9? F 0.0701(8) 0.6725(7) 0.2781(6)
F10? F 0.2137(9) 0.5456(8) 0.2717(8)
F11? F 0.1926(9) 0.6747(9) 0.1627(7)
F12? F 0.0427(9) 0.5542(9) 0.1605(7)
loop_
_geom_bond_atom_site_label_1
_geom_bond_atom_site_label_2
_geom_bond_site_symmetry_1
_geom_bond_site_symmetry_2
Ag1 N1 1_555 1_555
Ag2 N2 1_555 1_555
N1 N2 1_555 1_555
N2 C4 1_555 1_555
N3 N4 1_555 1_555
N4 C8 1_555 1_555
N5 N6 1_555 1_555
N6 Ag1 1_555 1_555
C1 N1 1_555 1_555
H1 C1 1_555 1_555
C2 C1 1_555 1_555
H2 C2 1_555 1_555
C3 C2 1_555 1_555
C4 C3 1_555 1_555
H3 C4 1_555 1_555
C5 N3 1_555 1_555
H4 C5 1_555 1_555
C6 C5 1_555 1_555
H5 C6 1_555 1_555
C7 C3 1_555 1_555
C8 C7 1_555 1_555
H6 C8 1_555 1_555
C9 N5 1_555 1_555
H7 C9 1_555 1_555
C10 C9 1_555 1_555
C11 C10 1_555 1_555
H8 C11 1_555 1_555
C12 N6 1_555 1_555
H9 C12 1_555 1_555
B1 F1 1_555 1_555
F1 Ag2 1_555 1_555
F2 B1 1_555 1_555
F3 B1 1_555 1_555
F4 B1 1_555 1_555
B2 F5 1_555 1_555
F6 B2 1_555 1_555
F7 B2 1_555 1_555
F8 B2 1_555 1_555
Ag1C N1C 1_555 1_555
Ag1C_2 N3 1_555 1_555
Ag1B N6B 1_555 1_555
Ag2C N2C 1_555 1_555
Ag2A N4 1_555 1_555
Ag2B N5 1_555 1_555
Ag2_2 N5B 1_555 1_555
N1C N2C 1_555 1_555
N2C C4C 1_555 1_555
N3C Ag1 1_555 1_555
N3_2 Ag1C 1_555 1_555
N4C Ag2B 1_555 1_555
N4A Ag2 1_555 1_555
N4B Ag2C 1_555 1_555
N5B N6B 1_555 1_555
N5B_2 Ag2 1_555 1_555
N5A Ag2C 1_555 1_555
N6B C12B 1_555 1_555
N6C Ag1C 1_555 1_555
C1C N1C 1_555 1_555
H1C C1C 1_555 1_555
C2C C1C 1_555 1_555
H2C C2C 1_555 1_555
C3C C2C 1_555 1_555
C4C C3C 1_555 1_555
H3C C4C 1_555 1_555
C5C N3C 1_555 1_555
H4C C5C 1_555 1_555
C6C C5C 1_555 1_555
H5C C6C 1_555 1_555
C7C C3C 1_555 1_555
C8C N4C 1_555 1_555
H6C C8C 1_555 1_555
C9B N5B 1_555 1_555
H7B C9B 1_555 1_555
C10B C10 1_555 1_555
C11B C10B 1_555 1_555
H8B C11B 1_555 1_555
C12B C11B 1_555 1_555
H9B C12B 1_555 1_555
B1C F1C 1_555 1_555
F1C Ag2C 1_555 1_555
F2C B1C 1_555 1_555
F3C B1C 1_555 1_555
F4C B1C 1_555 1_555
C6 C7 1_555 1_555
C11 C12 1_555 1_555
N3C N4C 1_555 1_555
C6C C7C 1_555 1_555
C7C C8C 1_555 1_555
C9B C10B 1_555 1_555

#END
