
#######################################################################
#
#                 Cambridge Crystallographic Data Centre
#                                CCDC 
#
#######################################################################
#
# If this CIF has been generated from an entry in the Cambridge 
# Structural Database, then it will include bibliographic, chemical, 
# crystal, experimental, refinement or atomic coordinate data resulting 
# from the CCDC's data processing and validation procedures.
#
#######################################################################

data_WILGEE
_symmetry_cell_setting           orthorhombic
_symmetry_space_group_name_H-M   'F d d d'
_symmetry_Int_Tables_number      70
_space_group_name_Hall           '-F 2uv 2vw'
loop_
_symmetry_equiv_pos_site_id
_symmetry_equiv_pos_as_xyz
1 x,y,z
2 x,1/2+y,1/2+z
3 x,1/4-y,1/4-z
4 1/2+x,y,1/2+z
5 1/4-x,y,1/4-z
6 1/2+x,1/2+y,z
7 1/4-x,1/4-y,z
8 3/4-x,3/4-y,z
9 3/4-x,y,3/4-z
10 x,3/4-y,3/4-z
11 3/4-x,1/4-y,1/2+z
12 3/4-x,1/2+y,1/4-z
13 1/4-x,3/4-y,1/2+z
14 1/2+x,3/4-y,1/4-z
15 1/4-x,1/2+y,3/4-z
16 1/2+x,1/4-y,3/4-z
17 -x,-y,-z
18 -x,1/2-y,1/2-z
19 -x,3/4+y,3/4+z
20 1/2-x,-y,1/2-z
21 3/4+x,-y,3/4+z
22 1/2-x,1/2-y,-z
23 3/4+x,3/4+y,-z
24 1/4+x,1/4+y,-z
25 1/4+x,-y,1/4+z
26 -x,1/4+y,1/4+z
27 1/4+x,3/4+y,1/2-z
28 1/4+x,1/2-y,3/4+z
29 3/4+x,1/4+y,1/2-z
30 1/2-x,1/4+y,3/4+z
31 3/4+x,1/2-y,1/4+z
32 1/2-x,3/4+y,1/4+z
_cell_length_a                   7.7384(2)
_cell_length_b                   38.1690(8)
_cell_length_c                   50.8067(10)
_cell_angle_alpha                90
_cell_angle_beta                 90
_cell_angle_gamma                90
_cell_volume                     15006.6
loop_
_atom_site_label
_atom_site_type_symbol
_atom_site_fract_x
_atom_site_fract_y
_atom_site_fract_z
Ag1 Ag 0.53320(6) 0.266956(10) 1.030621(7)
Ag2 Ag -0.03118(6) 0.284650(10) 1.026390(7)
O1 O 0.2464(5) 0.27966(11) 1.05259(11)
H1 H 0.2232 0.2706 1.0687
H2 H 0.2611 0.3009 1.0568
N1 N 0.5652(5) 0.29650(10) 0.99217(8)
N2 N 0.5737(6) 0.27645(11) 0.97044(8)
N3 N 0.7161(6) 0.43933(10) 0.98881(8)
N4 N 0.7010(6) 0.45815(10) 0.96705(8)
N5 N 0.8358(5) 0.29853(10) 1.06465(7)
N6 N 0.6788(5) 0.28399(10) 1.06783(7)
C1 C 0.5917(10) 0.29230(14) 0.94700(10)
H4 H 0.5914 0.2785 0.9319
C2 C 0.6107(9) 0.32834(13) 0.94423(10)
H5 H 0.6258 0.3384 0.9277
C3 C 0.6066(6) 0.34860(11) 0.96663(9)
C4 C 0.5803(7) 0.33100(12) 0.99043(9)
H6 H 0.5730 0.3442 1.0058
C5 C 0.6466(12) 0.44254(15) 0.94526(12)
H7 H 0.6314 0.4562 0.9303
C6 C 0.6110(11) 0.40680(14) 0.94361(11)
H8 H 0.5743 0.3967 0.9279
C7 C 0.6319(6) 0.38708(11) 0.96590(9)
C8 C 0.6822(8) 0.40521(12) 0.98821(10)
H9 H 0.6930 0.3927 1.0038
C9 C 0.9079(7) 0.31559(14) 1.08454(9)
H10 H 1.0153 0.3259 1.0819
C10 C 0.8313(7) 0.31876(14) 1.10906(9)
H11 H 0.8864 0.3304 1.1228
C11 C 0.6724(6) 0.30414(12) 1.11233(8)
C12 C 0.5993(6) 0.28707(13) 1.09077(9)
H12 H 0.4897 0.2774 1.0926
Ag1V Ag 0.28320(6) 0.016956(10) 0.969379(7)
Ag1W Ag 0.78320(6) 0.516956(10) 0.969379(7)
Ag1D Ag 0.71680(6) 0.266956(10) 1.219379(7)
Ag2U Ag 0.53118(6) 0.215350(10) 0.973610(7)
Ag2G Ag 0.78118(6) 0.465350(10) 1.026390(7)
Ag2_2 Ag 0.96882(6) 0.284650(10) 1.026390(7)
Ag2D Ag 0.28118(6) 0.284650(10) 1.223610(7)
Ag2F Ag 0.28118(6) -0.034650(10) 1.026390(7)
Ag2V Ag -0.28118(6) 0.034650(10) 0.973610(7)
O1V O -0.0036(5) 0.02966(11) 0.94741(11)
O1U O 0.2536(5) 0.22034(11) 0.94741(11)
H1V H -0.0268 0.0206 0.9313
H1U H 0.2768 0.2294 0.9313
H2V H 0.0111 0.0509 0.9432
H2U H 0.2389 0.1991 0.9432
N1V N 0.3152(5) 0.04650(10) 1.00783(8)
N2V N 0.3237(6) 0.02645(11) 1.02956(8)
N2U N -0.0737(6) 0.22355(11) 1.02956(8)
N3V N 0.4661(6) 0.18933(10) 1.01119(8)
N3G N 0.0339(6) 0.31067(10) 0.98881(8)
N4V N 0.4510(6) 0.20815(10) 1.03295(8)
N4E N 0.2010(6) -0.04185(10) 0.96705(8)
N5D N 0.4142(5) 0.29853(10) 1.18535(7)
N5_2 N -0.1642(5) 0.29853(10) 1.06465(7)
N5U N 0.6642(5) 0.20147(10) 0.93535(7)
N6D N 0.5712(5) 0.28399(10) 1.18217(7)
N6V N 0.4288(5) 0.03399(10) 0.93217(7)
C1V C 0.3417(10) 0.04230(14) 1.05300(10)
H4V H 0.3414 0.0285 1.0681
C2V C 0.3607(9) 0.07834(13) 1.05577(10)
H5V H 0.3758 0.0884 1.0723
C3V C 0.3566(6) 0.09860(11) 1.03337(9)
C4V C 0.3303(7) 0.08100(12) 1.00957(9)
H6V H 0.3230 0.0942 0.9942
C5V C 0.3966(12) 0.19254(15) 1.05474(12)
H7V H 0.3814 0.2062 1.0697
C6V C 0.3610(11) 0.15680(14) 1.05639(11)
H8V H 0.3243 0.1467 1.0721
C7V C 0.3819(6) 0.13708(11) 1.03410(9)
C8V C 0.4322(8) 0.15521(12) 1.01179(10)
H9V H 0.4430 0.1427 0.9962
C9D C 0.3421(7) 0.31559(14) 1.16546(9)
H10D H 0.2347 0.3259 1.1681
C10D C 0.4187(7) 0.31876(14) 1.14094(9)
H11D H 0.3636 0.3304 1.1272
C11D C 0.5776(6) 0.30414(12) 1.13767(8)
C12D C 0.6507(6) 0.28707(13) 1.15923(9)
H12D H 0.7603 0.2774 1.1574
Si1 Si 0.3750 0.27263(4) 0.8750
F1 F 0.5849(8) 0.26923(18) 0.88631(13)
F2 F 0.3273(10) 0.2400(2) 0.89775(16)
F3 F 0.3333(11) 0.30495(19) 0.89698(12)
F1H F 0.1651(8) 0.26923(18) 0.86369(13)
F2H F 0.4227(10) 0.2400(2) 0.85225(16)
F3H F 0.4167(11) 0.30495(19) 0.85302(12)
Si2 Si 0.1250 0.1250 0.94105(4)
F4 F 0.1880(7) 0.15315(13) 0.96476(9)
F5 F 0.1842(5) 0.15407(11) 0.91866(8)
F6 F -0.0734(5) 0.14198(13) 0.94159(12)
F4F F 0.0620(7) 0.09685(13) 0.96476(9)
F5F F 0.0658(5) 0.09593(11) 0.91866(8)
F6F F 0.3234(5) 0.10802(13) 0.94159(12)
O2 O 0.6250 0.1250 0.96404(12)
H3 H 0.5235 0.1200 0.9539
H3F H 0.7265 0.1300 0.9539
loop_
_geom_bond_atom_site_label_1
_geom_bond_atom_site_label_2
_geom_bond_site_symmetry_1
_geom_bond_site_symmetry_2
Ag1 O1 1_555 1_555
Ag2 O1 1_555 1_555
Si1 F1 1_555 1_555
Si2 F4 1_555 1_555
F2 Si1 1_555 1_555
F3 Si1 1_555 1_555
F5 Si2 1_555 1_555
F6 Si2 1_555 1_555
O1 H1 1_555 1_555
H2 O1 1_555 1_555
O2 H3 1_555 1_555
N1 Ag1 1_555 1_555
N2 N1 1_555 1_555
N3 N4 1_555 1_555
N4 C5 1_555 1_555
N5 N6 1_555 1_555
N6 Ag1 1_555 1_555
C1 N2 1_555 1_555
H4 C1 1_555 1_555
C2 C1 1_555 1_555
H5 C2 1_555 1_555
C3 C2 1_555 1_555
C4 N1 1_555 1_555
H6 C4 1_555 1_555
C5 H7 1_555 1_555
C6 C5 1_555 1_555
H8 C6 1_555 1_555
C7 C3 1_555 1_555
C8 N3 1_555 1_555
H9 C8 1_555 1_555
C9 N5 1_555 1_555
H10 C9 1_555 1_555
C10 C9 1_555 1_555
H11 C10 1_555 1_555
C11 C10 1_555 1_555
C12 N6 1_555 1_555
H12 C12 1_555 1_555
Ag1V O1V 1_555 1_555
Ag1W N4 1_555 1_555
Ag1D N6D 1_555 1_555
Ag2U N2 1_555 1_555
Ag2G N3 1_555 1_555
Ag2_2 N5 1_555 1_555
Ag2D N5D 1_555 1_555
Ag2F N2V 1_555 1_555
Ag2V O1V 1_555 1_555
F1H Si1 1_555 1_555
F2H Si1 1_555 1_555
F3H Si1 1_555 1_555
F4F Si2 1_555 1_555
F5F Si2 1_555 1_555
F6F Si2 1_555 1_555
O1V H1V 1_555 1_555
O1U Ag2U 1_555 1_555
H1U O1U 1_555 1_555
H2V O1V 1_555 1_555
H2U O1U 1_555 1_555
H3F O2 1_555 1_555
N1V Ag1V 1_555 1_555
N2V N1V 1_555 1_555
N2U Ag2 1_555 1_555
N3V Ag2U 1_555 1_555
N3G Ag2 1_555 1_555
N4V Ag1 1_555 1_555
N4E Ag1V 1_555 1_555
N5D N6D 1_555 1_555
N5_2 Ag2 1_555 1_555
N5U Ag2U 1_555 1_555
N6D C12D 1_555 1_555
N6V Ag1V 1_555 1_555
C1V N2V 1_555 1_555
H4V C1V 1_555 1_555
C2V C1V 1_555 1_555
H5V C2V 1_555 1_555
C3V C2V 1_555 1_555
C4V N1V 1_555 1_555
H6V C4V 1_555 1_555
C5V N4V 1_555 1_555
H7V C5V 1_555 1_555
C6V C5V 1_555 1_555
H8V C6V 1_555 1_555
C7V C3V 1_555 1_555
C8V N3V 1_555 1_555
H9V C8V 1_555 1_555
C9D N5D 1_555 1_555
H10D C9D 1_555 1_555
C10D C9D 1_555 1_555
H11D C10D 1_555 1_555
C11D C11 1_555 1_555
C12D C11D 1_555 1_555
H12D C12D 1_555 1_555
C3 C4 1_555 1_555
C6 C7 1_555 1_555
C7 C8 1_555 1_555
C11 C12 1_555 1_555
N3V N4V 1_555 1_555
C3V C4V 1_555 1_555
C6V C7V 1_555 1_555
C7V C8V 1_555 1_555
C10D C11D 1_555 1_555

#END
