
#######################################################################
#
#                 Cambridge Crystallographic Data Centre
#                                CCDC 
#
#######################################################################
#
# If this CIF has been generated from an entry in the Cambridge 
# Structural Database, then it will include bibliographic, chemical, 
# crystal, experimental, refinement or atomic coordinate data resulting 
# from the CCDC's data processing and validation procedures.
#
#######################################################################

data_WILHOQ
_symmetry_cell_setting           triclinic
_symmetry_space_group_name_H-M   'P -1'
_symmetry_Int_Tables_number      2
_space_group_name_Hall           '-P 1'
loop_
_symmetry_equiv_pos_site_id
_symmetry_equiv_pos_as_xyz
1 x,y,z
2 -x,-y,-z
_cell_length_a                   8.127(3)
_cell_length_b                   9.909(3)
_cell_length_c                   11.353(4)
_cell_angle_alpha                107.182(2)
_cell_angle_beta                 90.439(4)
_cell_angle_gamma                113.787(3)
_cell_volume                     790.807
loop_
_atom_site_label
_atom_site_type_symbol
_atom_site_fract_x
_atom_site_fract_y
_atom_site_fract_z
Zn1 Zn 0.5000 0.5000 0.0000
Zn2 Zn 0.13790(4) 0.59115(3) 0.12528(2)
O1 O 0.4913(3) 0.5044(2) 0.18007(18)
O2 O 0.2531(3) 0.5429(2) 0.25465(17)
O3 O 0.2363(3) 0.8445(2) 0.25723(18)
O4 O -0.0326(3) 0.6557(2) 0.24476(16)
O5 O 0.3532(2) 0.6389(2) 0.02657(16)
O6 O 0.0353(2) 0.6421(2) -0.02613(16)
O7 O 0.2431(3) 0.3019(2) -0.07366(18)
N1 N 0.3229(3) 0.8960(2) -0.1877(2)
C1 C 0.3948(4) 0.5209(3) 0.2635(2)
C2 C 0.4490(4) 0.5087(3) 0.3861(2)
C3 C 0.5866(4) 0.4620(3) 0.3979(3)
H1 H 0.6449 0.4355 0.3282
C4 C 0.3610(4) 0.5459(3) 0.4880(3)
H2 H 0.2659 0.5765 0.4794
C5 C 0.0864(4) 0.7958(3) 0.2950(2)
C6 C 0.0423(4) 0.9022(3) 0.4010(2)
C7 C 0.1674(4) 1.0554(3) 0.4592(3)
H3 H 0.2823 1.0939 0.4317
C8 C -0.1252(4) 0.8472(3) 0.4421(3)
H4 H -0.2115 0.7425 0.4027
C9 C 0.1785(3) 0.7251(3) -0.0725(2)
C10 C 0.3476(4) 0.7215(3) -0.0427(2)
C11 C 0.4999(4) 0.8102(3) -0.0877(2)
H5 H 0.6149 0.8124 -0.0679
C12 C 0.4831(4) 0.8937(3) -0.1602(2)
H6 H 0.5868 0.9513 -0.1919
C13 C 0.1685(4) 0.8153(3) -0.1429(2)
C14 C -0.0019(4) 0.8310(3) -0.1720(3)
H7 H 0.0234 0.9418 -0.1469
H8 H -0.0955 0.7788 -0.1265
H9 H -0.0449 0.7827 -0.2618
C15 C 0.3147(4) 0.9895(3) -0.2662(3)
H10 H 0.4339 1.0364 -0.2919
H11 H 0.2810 1.0722 -0.2185
H12 H 0.2237 0.9219 -0.3403
H13 H 0.1397(14) 0.294(2) -0.0275(15)
H14 H 0.190(2) 0.281(2) -0.1593(10)
O1A O 0.5087(3) 0.4956(2) 0.81993(18)
O2A O 0.7469(3) 0.4571(2) 0.74535(17)
C1A C 0.6052(4) 0.4791(3) 0.7365(2)
C2A C 0.5510(4) 0.4913(3) 0.6139(2)
C3A C 0.4134(4) 0.5380(3) 0.6021(3)
H1A H 0.3551 0.5645 0.6718
C4A C 0.6390(4) 0.4541(3) 0.5120(3)
H2A H 0.7341 0.4235 0.5206
O3A O -0.2363(3) 1.1555(2) 0.74277(18)
O4A O 0.0326(3) 1.3443(2) 0.75524(16)
C5A C -0.0864(4) 1.2042(3) 0.7050(2)
C6A C -0.0423(4) 1.0978(3) 0.5990(2)
C7A C -0.1674(4) 0.9446(3) 0.5408(3)
H3A H -0.2823 0.9061 0.5683
C8A C 0.1252(4) 1.1528(3) 0.5579(3)
H4A H 0.2115 1.2575 0.5973
Zn2A Zn -0.13790(4) 0.40885(3) -0.12528(2)
O5A O -0.3532(2) 0.3611(2) -0.02657(16)
O6A O -0.0353(2) 0.3579(2) 0.02613(16)
N1A N -0.3229(3) 0.1040(2) 0.1877(2)
C9A C -0.1785(3) 0.2749(3) 0.0725(2)
C10A C -0.3476(4) 0.2785(3) 0.0427(2)
C11A C -0.4999(4) 0.1898(3) 0.0877(2)
H5A H -0.6149 0.1876 0.0679
C12A C -0.4831(4) 0.1063(3) 0.1602(2)
H6A H -0.5868 0.0487 0.1919
C13A C -0.1685(4) 0.1847(3) 0.1429(2)
C14A C 0.0019(4) 0.1690(3) 0.1720(3)
H7A H -0.0234 0.0582 0.1469
H8A H 0.0955 0.2212 0.1265
H9A H 0.0449 0.2173 0.2618
C15A C -0.3147(4) 0.0105(3) 0.2662(3)
H10A H -0.4339 -0.0364 0.2919
H11A H -0.2810 -0.0722 0.2185
H12A H -0.2237 0.0781 0.3403
O7A O 0.7569(3) 0.6981(2) 0.07366(18)
H13A H 0.8603(14) 0.706(2) 0.0275(15)
H14A H 0.810(2) 0.719(2) 0.1593(10)
Zn1_2 Zn -0.5000 0.5000 0.0000
Zn1_3 Zn 0.5000 0.5000 1.0000
Zn2A_2 Zn -0.13790(4) 1.40885(3) 0.87472(2)
Zn2A_3 Zn 0.86210(4) 0.40885(3) 0.87472(2)
O1A_2 O 0.5087(3) 0.4956(2) -0.18007(18)
O2A_2 O -0.2531(3) 0.4571(2) -0.25465(17)
O3A_2 O -0.2363(3) 0.1555(2) -0.25723(18)
O4A_2 O 0.0326(3) 0.3443(2) -0.24476(16)
O5A_2 O 0.6468(2) 0.3611(2) -0.02657(16)
loop_
_geom_bond_atom_site_label_1
_geom_bond_atom_site_label_2
_geom_bond_site_symmetry_1
_geom_bond_site_symmetry_2
Zn1 O1 1_555 1_555
Zn2 O2 1_555 1_555
O1 C1 1_555 1_555
O2 C1 1_555 1_555
O3 Zn2 1_555 1_555
O4 Zn2 1_555 1_555
O5 Zn1 1_555 1_555
O6 Zn2 1_555 1_555
O7 Zn1 1_555 1_555
N1 C12 1_555 1_555
C1 C2 1_555 1_555
C2 C3 1_555 1_555
C3 H1 1_555 1_555
C4 C2 1_555 1_555
H2 C4 1_555 1_555
C5 O3 1_555 1_555
C6 C5 1_555 1_555
C7 C6 1_555 1_555
H3 C7 1_555 1_555
C8 C6 1_555 1_555
H4 C8 1_555 1_555
C9 O6 1_555 1_555
C10 O5 1_555 1_555
C11 C10 1_555 1_555
H5 C11 1_555 1_555
C12 C11 1_555 1_555
H6 C12 1_555 1_555
C13 N1 1_555 1_555
C14 C13 1_555 1_555
H7 C14 1_555 1_555
H8 C14 1_555 1_555
H9 C14 1_555 1_555
C15 N1 1_555 1_555
H10 C15 1_555 1_555
H11 C15 1_555 1_555
H12 C15 1_555 1_555
H13 O7 1_555 1_555
H14 O7 1_555 1_555
O1A C1A 1_555 1_555
O2A C1A 1_555 1_555
C1A C2A 1_555 1_555
C2A C3A 1_555 1_555
C3A C4 1_555 1_555
H1A C3A 1_555 1_555
C4A C3 1_555 1_555
H2A C4A 1_555 1_555
O3A C5A 1_555 1_555
O4A C5A 1_555 1_555
C5A C6A 1_555 1_555
C6A C7A 1_555 1_555
C7A C8 1_555 1_555
H3A C7A 1_555 1_555
C8A C7 1_555 1_555
H4A C8A 1_555 1_555
Zn2A O6 1_555 1_555
O5A Zn2A 1_555 1_555
O6A Zn2 1_555 1_555
N1A C12A 1_555 1_555
C9A O6A 1_555 1_555
C10A O5A 1_555 1_555
C11A C10A 1_555 1_555
H5A C11A 1_555 1_555
C12A C11A 1_555 1_555
H6A C12A 1_555 1_555
C13A N1A 1_555 1_555
C14A C13A 1_555 1_555
H7A C14A 1_555 1_555
H8A C14A 1_555 1_555
H9A C14A 1_555 1_555
C15A N1A 1_555 1_555
H10A C15A 1_555 1_555
H11A C15A 1_555 1_555
H12A C15A 1_555 1_555
O7A Zn1 1_555 1_555
H13A O7A 1_555 1_555
H14A O7A 1_555 1_555
Zn1_2 O5A 1_555 1_555
Zn1_3 O1A 1_555 1_555
Zn2A_2 O3A 1_555 1_555
Zn2A_3 O2A 1_555 1_555
O1A_2 Zn1 1_555 1_555
O2A_2 Zn2A 1_555 1_555
O3A_2 Zn2A 1_555 1_555
O4A_2 Zn2A 1_555 1_555
O5A_2 Zn1 1_555 1_555
Zn2 O5 1_555 1_555
O4 C5 1_555 1_555
C9 C10 1_555 1_555
C9 C13 1_555 1_555
C2A C4A 1_555 1_555
O4A Zn2A_2 1_555 1_555
C6A C8A 1_555 1_555
Zn2A O6A 1_555 1_555
C9A C10A 1_555 1_555
C9A C13A 1_555 1_555

#END
