
#######################################################################
#
#                 Cambridge Crystallographic Data Centre
#                                CCDC 
#
#######################################################################
#
# If this CIF has been generated from an entry in the Cambridge 
# Structural Database, then it will include bibliographic, chemical, 
# crystal, experimental, refinement or atomic coordinate data resulting 
# from the CCDC's data processing and validation procedures.
#
#######################################################################

data_WILHOO
_symmetry_cell_setting           monoclinic
_symmetry_space_group_name_H-M   'C 2/c'
_symmetry_Int_Tables_number      15
_space_group_name_Hall           '-C 2yn'
loop_
_symmetry_equiv_pos_site_id
_symmetry_equiv_pos_as_xyz
1 x,y,z
2 -x,y,1/2-z
3 1/2+x,1/2+y,z
4 1/2-x,1/2+y,1/2-z
5 -x,-y,-z
6 x,-y,1/2+z
7 1/2-x,1/2-y,-z
8 1/2+x,1/2-y,1/2+z
_cell_length_a                   10.160(2)
_cell_length_b                   16.750(2)
_cell_length_c                   7.494(1)
_cell_angle_alpha                90
_cell_angle_beta                 131.25(1)
_cell_angle_gamma                90
_cell_volume                     958.843
loop_
_atom_site_label
_atom_site_type_symbol
_atom_site_fract_x
_atom_site_fract_y
_atom_site_fract_z
Na1 Na 0.5000 0.3080(1) 0.2500
C1 C 0.0000 0.4329(1) -0.2500
N1 N 0.1602(1) 0.3950(1) -0.0958(1)
O1 O 0.2920(1) 0.4361(1) 0.0526(1)
O2 O 0.1715(1) 0.3211(1) -0.1058(1)
N2 N 0.0000 0.5195(1) -0.2500
O3 O -0.0925(1) 0.5534(1) -0.2228(1)
O4 O 0.5340(1) 0.3192(1) -0.0327(1)
C2 C 0.4726(1) 0.2488(1) -0.1775(2)
C3 C 0.4716(1) 0.3892(1) -0.1787(2)
H1 H -0.1946 0.5662 -0.3061
H2 H 0.3465(16) 0.2440(7) -0.2793(22)
H3 H 0.5215(16) 0.2054(7) -0.0756(22)
H4 H 0.3451(19) 0.3918(7) -0.2850(23)
H5 H 0.5220(18) 0.4345(8) -0.0710(24)
N1A N -0.1602(1) 0.3950(1) -0.4042(1)
O1A O -0.2920(1) 0.4361(1) -0.5526(1)
O2A O -0.1715(1) 0.3211(1) -0.3942(1)
O3A O 0.0925(1) 0.5534(1) -0.2772(1)
H1A H 0.1946 0.5662 -0.1939
C2A C 0.5274(1) 0.2488(1) -0.3225(2)
O4A O 0.4660(1) 0.3192(1) -0.4673(1)
C3A C 0.5284(1) 0.3892(1) -0.3213(2)
H4A H 0.6549(19) 0.3918(7) -0.2150(23)
H5A H 0.4780(18) 0.4345(8) -0.4290(24)
H2A H 0.6535(16) 0.2440(7) -0.2207(22)
H3A H 0.4785(16) 0.2054(7) -0.4244(22)
O1A_2 O 0.7080(1) 0.4361(1) 0.4474(1)
O2A_2 O 0.8285(1) 0.3211(1) 0.6058(1)
O2F O 0.3285(1) 0.1789(1) 0.1058(1)
O2G O 0.6715(1) 0.1789(1) 0.3942(1)
O4A_2 O 0.4660(1) 0.3192(1) 0.5327(1)
Na1F Na 0.0000 0.1920(1) -0.2500
Na1_2 Na -0.5000 0.3080(1) -0.7500
Na1_3 Na 0.5000 0.3080(1) -0.7500
loop_
_geom_bond_atom_site_label_1
_geom_bond_atom_site_label_2
_geom_bond_site_symmetry_1
_geom_bond_site_symmetry_2
Na1 O1 1_555 1_555
C1 N1 1_555 1_555
N1 O1 1_555 1_555
O2 Na1 1_555 1_555
N2 C1 1_555 1_555
O3 N2 1_555 1_555
O4 Na1 1_555 1_555
C2 O4 1_555 1_555
C3 O4 1_555 1_555
H1 O3 1_555 1_555
H2 C2 1_555 1_555
H3 C2 1_555 1_555
H4 C3 1_555 1_555
H5 C3 1_555 1_555
N1A C1 1_555 1_555
O1A N1A 1_555 1_555
O2A N1A 1_555 1_555
O3A N2 1_555 1_555
H1A O3A 1_555 1_555
C2A C2 1_555 1_555
O4A C2A 1_555 1_555
C3A C3 1_555 1_555
H4A C3A 1_555 1_555
H5A C3A 1_555 1_555
H2A C2A 1_555 1_555
H3A C2A 1_555 1_555
O1A_2 Na1 1_555 1_555
O2A_2 Na1 1_555 1_555
O2F Na1 1_555 1_555
O2G Na1 1_555 1_555
O4A_2 Na1 1_555 1_555
Na1F O2 1_555 1_555
Na1_2 O1A 1_555 1_555
Na1_3 O4A 1_555 1_555
N1 O2 1_555 1_555
O2A Na1_2 1_555 1_555
O2A Na1F 1_555 1_555
O4A C3A 1_555 1_555
O2F Na1F 1_555 1_555

#END
