
#######################################################################
#
#                 Cambridge Crystallographic Data Centre
#                                CCDC 
#
#######################################################################
#
# If this CIF has been generated from an entry in the Cambridge 
# Structural Database, then it will include bibliographic, chemical, 
# crystal, experimental, refinement or atomic coordinate data resulting 
# from the CCDC's data processing and validation procedures.
#
#######################################################################

data_WILHIK
_symmetry_cell_setting           monoclinic
_symmetry_space_group_name_H-M   'P 21/n'
_symmetry_Int_Tables_number      14
_space_group_name_Hall           '-P 2yn'
loop_
_symmetry_equiv_pos_site_id
_symmetry_equiv_pos_as_xyz
1 x,y,z
2 1/2-x,1/2+y,1/2-z
3 -x,-y,-z
4 1/2+x,1/2-y,1/2+z
_cell_length_a                   9.7750(1)
_cell_length_b                   18.9580(2)
_cell_length_c                   11.4690(1)
_cell_angle_alpha                90
_cell_angle_beta                 111.3540(10)
_cell_angle_gamma                90
_cell_volume                     1979.46
loop_
_atom_site_label
_atom_site_type_symbol
_atom_site_fract_x
_atom_site_fract_y
_atom_site_fract_z
Zn1 Zn 0.0000 0.0000 0.5000
Zn2 Zn 0.364991(18) -0.005567(8) 0.546540(15)
O1 O 0.36148(12) 0.07760(6) 0.65014(10)
O2 O 0.13669(12) 0.05859(6) 0.65517(10)
O3 O 0.16235(12) 0.39950(5) 0.89576(11)
O4 O 0.40361(12) 0.40315(5) 0.92753(11)
O5 O 0.40641(11) 0.00979(5) 0.38635(10)
O6 O 0.15512(11) 0.01280(5) 0.41942(10)
N1 N 0.16225(14) 0.06785(7) 0.07934(11)
C1 C 0.24942(16) 0.09492(7) 0.67498(13)
C2 C 0.25741(17) 0.16627(8) 0.73526(14)
C3 C 0.39257(17) 0.19526(8) 0.80759(16)
H1 H 0.4802 0.1694 0.8209
C4 C 0.40009(17) 0.26172(8) 0.86040(16)
H2 H 0.4927 0.2811 0.9099
C5 C 0.27176(17) 0.30006(8) 0.84077(14)
C6 C 0.13642(17) 0.27034(8) 0.77029(15)
H3 H 0.0487 0.2959 0.7580
C7 C 0.12848(17) 0.20365(8) 0.71786(14)
H4 H 0.0358 0.1836 0.6704
C8 C 0.28135(16) 0.37369(8) 0.89317(13)
C9 C 0.28873(16) 0.02960(7) 0.28915(13)
C10 C 0.15200(16) 0.03157(7) 0.30963(13)
C11 C 0.02554(16) 0.05347(8) 0.21095(14)
H5 H -0.0661 0.0555 0.2221
C12 C 0.03413(17) 0.07199(8) 0.09859(14)
H6 H -0.0516 0.0880 0.0329
C13 C 0.28995(16) 0.04528(8) 0.17158(13)
C14 C 0.1643(2) 0.09194(10) -0.04244(15)
H7 H 0.0653 0.1068 -0.0962
H8 H 0.1967 0.0532 -0.0828
H9 H 0.2321 0.1318 -0.0292
C15 C 0.42422(18) 0.03724(10) 0.13877(15)
H10 H 0.3993 0.0105 0.0606
H11 H 0.5002 0.0119 0.2061
H12 H 0.4610 0.0840 0.1281
Zn2B Zn -0.364991(18) 0.005567(8) 0.453460(15)
O1B O -0.36148(12) -0.07760(6) 0.34986(10)
O2B O -0.13669(12) -0.05859(6) 0.34483(10)
O3B O -0.16235(12) -0.39950(5) 0.10424(11)
O4B O -0.40361(12) -0.40315(5) 0.07247(11)
O5B O -0.40641(11) -0.00979(5) 0.61365(10)
O6B O -0.15512(11) -0.01280(5) 0.58058(10)
N1B N -0.16225(14) -0.06785(7) 0.92066(11)
C1B C -0.24942(16) -0.09492(7) 0.32502(13)
C2B C -0.25741(17) -0.16627(8) 0.26474(14)
C3B C -0.39257(17) -0.19526(8) 0.19241(16)
H1B H -0.4802 -0.1694 0.1791
C4B C -0.40009(17) -0.26172(8) 0.13960(16)
H2B H -0.4927 -0.2811 0.0901
C5B C -0.27176(17) -0.30006(8) 0.15923(14)
C6B C -0.13642(17) -0.27034(8) 0.22971(15)
H3B H -0.0487 -0.2959 0.2420
C7B C -0.12848(17) -0.20365(8) 0.28214(14)
H4B H -0.0358 -0.1836 0.3296
C8B C -0.28135(16) -0.37369(8) 0.10683(13)
C9B C -0.28873(16) -0.02960(7) 0.71085(13)
C10B C -0.15200(16) -0.03157(7) 0.69037(13)
C11B C -0.02554(16) -0.05347(8) 0.78905(14)
H5B H 0.0661 -0.0555 0.7779
C12B C -0.03413(17) -0.07199(8) 0.90141(14)
H6B H 0.0516 -0.0880 0.9671
C13B C -0.28995(16) -0.04528(8) 0.82842(13)
C14B C -0.1643(2) -0.09194(10) 1.04244(15)
H7B H -0.0653 -0.1068 1.0962
H8B H -0.1967 -0.0532 1.0828
H9B H -0.2321 -0.1318 1.0292
C15B C -0.42422(18) -0.03724(10) 0.86123(15)
H10B H -0.3993 -0.0105 0.9394
H11B H -0.5002 -0.0119 0.7939
H12B H -0.4610 -0.0840 0.8719
Zn1A Zn -0.5000 -0.5000 0.0000
Zn1A_2 Zn 0.5000 0.5000 1.0000
Zn2_2 Zn -0.635009(18) -0.005567(8) 0.546540(15)
Zn2A Zn 0.135009(18) 0.494433(8) 0.953460(15)
Zn2B_2 Zn 0.635009(18) 0.005567(8) 0.453460(15)
Zn2C Zn -0.135009(18) -0.494433(8) 0.046540(15)
O3A O 0.33765(12) -0.10050(5) 0.60424(11)
O3C O -0.33765(12) 0.10050(5) 0.39576(11)
O4A O 0.09639(12) -0.09685(5) 0.57247(11)
O4C O -0.09639(12) 0.09685(5) 0.42753(11)
O5_2 O -0.59359(11) 0.00979(5) 0.38635(10)
O5B_2 O 0.59359(11) -0.00979(5) 0.61365(10)
O7 O -0.18857(18) 0.13998(8) -0.15288(14)
N2 N -0.32485(17) 0.21428(8) -0.30525(14)
C16 C -0.2822(2) 0.15093(10) -0.25605(18)
H13 H -0.3280 0.1111 -0.3048
C17 C -0.2646(3) 0.27725(11) -0.2341(2)
H14 H -0.1903 0.2641 -0.1532
H15 H -0.3434 0.3038 -0.2202
H16 H -0.2194 0.3066 -0.2805
C18 C -0.4440(2) 0.22264(12) -0.42564(18)
H17 H -0.4776 0.1761 -0.4619
H18 H -0.4091 0.2496 -0.4822
H19 H -0.5257 0.2478 -0.4139
loop_
_geom_bond_atom_site_label_1
_geom_bond_atom_site_label_2
_geom_bond_site_symmetry_1
_geom_bond_site_symmetry_2
Zn1 O2 1_555 1_555
Zn2 O1 1_555 1_555
O1 C1 1_555 1_555
O2 C1 1_555 1_555
O3 C8 1_555 1_555
O4 C8 1_555 1_555
O5 Zn2 1_555 1_555
O6 Zn1 1_555 1_555
N1 C12 1_555 1_555
C1 C2 1_555 1_555
C2 C3 1_555 1_555
C3 H1 1_555 1_555
C4 C3 1_555 1_555
H2 C4 1_555 1_555
C5 C4 1_555 1_555
C6 C5 1_555 1_555
H3 C6 1_555 1_555
C7 C2 1_555 1_555
H4 C7 1_555 1_555
C8 C5 1_555 1_555
C9 O5 1_555 1_555
C10 O6 1_555 1_555
C11 C10 1_555 1_555
H5 C11 1_555 1_555
C12 C11 1_555 1_555
H6 C12 1_555 1_555
C13 N1 1_555 1_555
C14 N1 1_555 1_555
H7 C14 1_555 1_555
H8 C14 1_555 1_555
H9 C14 1_555 1_555
C15 C13 1_555 1_555
H10 C15 1_555 1_555
H11 C15 1_555 1_555
H12 C15 1_555 1_555
O7 C16 1_555 1_555
N2 C16 1_555 1_555
C16 H13 1_555 1_555
C17 N2 1_555 1_555
H14 C17 1_555 1_555
H15 C17 1_555 1_555
H16 C17 1_555 1_555
C18 N2 1_555 1_555
H17 C18 1_555 1_555
H18 C18 1_555 1_555
H19 C18 1_555 1_555
Zn2B O1B 1_555 1_555
O1B C1B 1_555 1_555
O2B Zn1 1_555 1_555
O3B C8B 1_555 1_555
O4B C8B 1_555 1_555
O5B Zn2B 1_555 1_555
O6B Zn1 1_555 1_555
N1B C12B 1_555 1_555
C1B O2B 1_555 1_555
C2B C1B 1_555 1_555
C3B C2B 1_555 1_555
H1B C3B 1_555 1_555
C4B C3B 1_555 1_555
H2B C4B 1_555 1_555
C5B C4B 1_555 1_555
C6B C5B 1_555 1_555
H3B C6B 1_555 1_555
C7B C2B 1_555 1_555
H4B C7B 1_555 1_555
C8B C5B 1_555 1_555
C9B O5B 1_555 1_555
C10B O6B 1_555 1_555
C11B C10B 1_555 1_555
H5B C11B 1_555 1_555
C12B C11B 1_555 1_555
H6B C12B 1_555 1_555
C13B N1B 1_555 1_555
C14B N1B 1_555 1_555
H7B C14B 1_555 1_555
H8B C14B 1_555 1_555
H9B C14B 1_555 1_555
C15B C13B 1_555 1_555
H10B C15B 1_555 1_555
H11B C15B 1_555 1_555
H12B C15B 1_555 1_555
Zn1A O4B 1_555 1_555
Zn1A_2 O4 1_555 1_555
Zn2_2 O5B 1_555 1_555
Zn2A O3 1_555 1_555
Zn2B_2 O5 1_555 1_555
Zn2C O3B 1_555 1_555
O3A Zn2 1_555 1_555
O3C Zn2B 1_555 1_555
O4A Zn1 1_555 1_555
O4C Zn1 1_555 1_555
O5_2 Zn2B 1_555 1_555
O5B_2 Zn2 1_555 1_555
Zn2 O6 1_555 1_555
C6 C7 1_555 1_555
C9 C10 1_555 1_555
C9 C13 1_555 1_555
Zn2B O6B 1_555 1_555
C6B C7B 1_555 1_555
C9B C10B 1_555 1_555
C9B C13B 1_555 1_555
Zn2_2 O5_2 1_555 1_555
Zn2B_2 O5B_2 1_555 1_555

#END
