
#######################################################################
#
#                 Cambridge Crystallographic Data Centre
#                                CCDC 
#
#######################################################################
#
# If this CIF has been generated from an entry in the Cambridge 
# Structural Database, then it will include bibliographic, chemical, 
# crystal, experimental, refinement or atomic coordinate data resulting 
# from the CCDC's data processing and validation procedures.
#
#######################################################################

data_WILJEI
_symmetry_cell_setting           orthorhombic
_symmetry_space_group_name_H-M   'P b c n'
_symmetry_Int_Tables_number      60
_space_group_name_Hall           '-P 2n 2ab'
loop_
_symmetry_equiv_pos_site_id
_symmetry_equiv_pos_as_xyz
1 x,y,z
2 1/2-x,1/2-y,1/2+z
3 1/2+x,1/2-y,-z
4 -x,y,1/2-z
5 -x,-y,-z
6 1/2+x,1/2+y,1/2-z
7 1/2-x,1/2+y,z
8 x,-y,1/2+z
_cell_length_a                   13.5733(5)
_cell_length_b                   15.9205(7)
_cell_length_c                   20.8014(9)
_cell_angle_alpha                90
_cell_angle_beta                 90
_cell_angle_gamma                90
_cell_volume                     4495.05
loop_
_atom_site_label
_atom_site_type_symbol
_atom_site_fract_x
_atom_site_fract_y
_atom_site_fract_z
Cd1 Cd 0.86212(4) 0.05640(4) 0.08118(3)
O1 O 1.0000 -0.4239(5) 0.2500
O2 O 0.9176(6) -0.0567(4) 0.1463(3)
O3 O 0.9089(4) -0.1023(4) 0.0457(3)
O4 O 1.1221(4) -0.0761(3) 0.0328(3)
O5 O 1.1325(5) -0.1930(4) -0.0238(3)
O6 O 1.0341(4) 0.0702(4) 0.0750(3)
H1 H 1.0628 0.0231 0.0783
H2 H 1.0502 0.0947 0.0400
N1 N 0.8571(6) 0.2988(4) 0.3332(3)
N2 N 0.9186(5) 0.4099(4) 0.4329(3)
N3 N 0.8412(6) 0.1413(5) 0.1701(4)
N4 N 1.2059(5) 0.5101(4) 0.4307(3)
C1 C 1.0000 -0.3488(8) 0.2500
C2 C 1.0330(7) -0.2988(5) 0.1938(4)
C3 C 0.9763(7) -0.2283(5) 0.1749(4)
H3 H 0.9220 -0.2124 0.1993
C4 C 1.0010(7) -0.1828(5) 0.1206(4)
C5 C 1.0830(5) -0.2054(5) 0.0859(4)
C6 C 1.1411(7) -0.2737(5) 0.1034(4)
H4 H 1.1962 -0.2882 0.0792
C7 C 1.1158(7) -0.3201(5) 0.1575(4)
H5 H 1.1543 -0.3657 0.1696
C8 C 0.9383(6) -0.1084(5) 0.1016(4)
C9 C 1.1150(6) -0.1547(5) 0.0276(4)
C10 C 0.9152(7) 0.2672(5) 0.3883(4)
H6 H 0.9845 0.2666 0.3767
H7 H 0.8956 0.2099 0.3977
C11 C 0.9012(7) 0.3211(5) 0.4483(4)
H8 H 0.8347 0.3141 0.4646
H9 H 0.9467 0.3031 0.4815
C12 C 0.8451(6) 0.4376(6) 0.3863(4)
H10 H 0.8525 0.4974 0.3787
H11 H 0.7796 0.4279 0.4035
C13 C 0.8568(7) 0.3902(5) 0.3232(4)
H12 H 0.8031 0.4051 0.2945
H13 H 0.9180 0.4069 0.3028
C14 C 0.8193(6) 0.2227(6) 0.1669(4)
H14 H 0.8001 0.2443 0.1273
C15 C 0.8233(7) 0.2772(6) 0.2186(4)
H15 H 0.8076 0.3336 0.2129
C16 C 0.8512(6) 0.2478(5) 0.2801(4)
C17 C 0.8733(9) 0.1604(6) 0.2829(5)
H16 H 0.8913 0.1358 0.3218
C18 C 0.8680(8) 0.1128(6) 0.2282(4)
H17 H 0.8843 0.0563 0.2316
C19 C 1.1852(6) 0.4370(5) 0.4593(4)
H18 H 1.2363 0.4087 0.4797
C20 C 1.0939(6) 0.4010(5) 0.4604(4)
H19 H 1.0850 0.3496 0.4808
C21 C 1.0131(6) 0.4410(5) 0.4311(3)
C22 C 1.0355(7) 0.5176(5) 0.4011(4)
H20 H 0.9859 0.5481 0.3809
C23 C 1.1299(7) 0.5477(6) 0.4016(4)
H21 H 1.1420 0.5979 0.3801
O2C O 1.0824(6) -0.0567(4) 0.3537(3)
O3C O 1.0911(4) -0.1023(4) 0.4543(3)
O4C O 0.8779(4) -0.0761(3) 0.4672(3)
O5C O 0.8675(5) -0.1930(4) 0.5238(3)
C2C C 0.9670(7) -0.2988(5) 0.3062(4)
C3C C 1.0237(7) -0.2283(5) 0.3251(4)
H3C H 1.0780 -0.2124 0.3007
C4C C 0.9990(7) -0.1828(5) 0.3794(4)
C5C C 0.9170(5) -0.2054(5) 0.4141(4)
C6C C 0.8589(7) -0.2737(5) 0.3966(4)
H4C H 0.8038 -0.2882 0.4208
C7C C 0.8842(7) -0.3201(5) 0.3425(4)
H5C H 0.8457 -0.3657 0.3304
C8C C 1.0617(6) -0.1084(5) 0.3984(4)
C9C C 0.8850(6) -0.1547(5) 0.4724(4)
Cd1C Cd 1.13788(4) 0.05640(4) 0.41882(3)
O6C O 0.9659(4) 0.0702(4) 0.4250(3)
H1C H 0.9372 0.0231 0.4217
H2C H 0.9498 0.0947 0.4600
N1C N 1.1429(6) 0.2988(4) 0.1668(3)
N2C N 1.0814(5) 0.4099(4) 0.0671(3)
N3C N 1.1588(6) 0.1413(5) 0.3299(4)
N4C N 0.7941(5) 0.5101(4) 0.0693(3)
C10C C 1.0848(7) 0.2672(5) 0.1117(4)
H6C H 1.0155 0.2666 0.1233
H7C H 1.1044 0.2099 0.1023
C11C C 1.0988(7) 0.3211(5) 0.0517(4)
H8C H 1.1653 0.3141 0.0354
H9C H 1.0533 0.3031 0.0185
C12C C 1.1549(6) 0.4376(6) 0.1137(4)
H10C H 1.1475 0.4974 0.1213
H11C H 1.2204 0.4279 0.0965
C13C C 1.1432(7) 0.3902(5) 0.1768(4)
H12C H 1.1969 0.4051 0.2055
H13C H 1.0820 0.4069 0.1972
C14C C 1.1807(6) 0.2227(6) 0.3331(4)
H14C H 1.1999 0.2443 0.3727
C15C C 1.1767(7) 0.2772(6) 0.2814(4)
H15C H 1.1924 0.3336 0.2871
C16C C 1.1488(6) 0.2478(5) 0.2199(4)
C17C C 1.1267(9) 0.1604(6) 0.2171(5)
H16C H 1.1087 0.1358 0.1782
C18C C 1.1320(8) 0.1128(6) 0.2718(4)
H17C H 1.1157 0.0563 0.2684
C19C C 0.8148(6) 0.4370(5) 0.0407(4)
H18C H 0.7637 0.4087 0.0203
C20C C 0.9061(6) 0.4010(5) 0.0396(4)
H19C H 0.9150 0.3496 0.0192
C21C C 0.9869(6) 0.4410(5) 0.0689(3)
C22C C 0.9645(7) 0.5176(5) 0.0989(4)
H20C H 1.0141 0.5481 0.1191
C23C C 0.8701(7) 0.5477(6) 0.0984(4)
H21C H 0.8580 0.5979 0.1199
Cd1D Cd 1.13788(4) -0.05640(4) -0.08118(3)
Cd1E Cd 1.36212(4) 0.55640(4) 0.41882(3)
Cd1F Cd 0.63788(4) 0.55640(4) 0.08118(3)
Cd1G Cd 0.86212(4) -0.05640(4) 0.58118(3)
O4D O 0.8779(4) 0.0761(3) -0.0328(3)
O4G O 1.1221(4) 0.0761(3) 0.5328(3)
O5D O 0.8675(5) 0.1930(4) 0.0238(3)
O5G O 1.1325(5) 0.1930(4) 0.4762(3)
N4E N 0.7059(5) 0.0101(4) 0.0693(3)
N4F N 1.2941(5) 0.0101(4) 0.4307(3)
O7 O 0.8835(12) 0.9272(11) 0.2772(8)
H22 H 0.9431 0.9321 0.2837
H23 H 0.8520 0.9123 0.3090
loop_
_geom_bond_atom_site_label_1
_geom_bond_atom_site_label_2
_geom_bond_site_symmetry_1
_geom_bond_site_symmetry_2
Cd1 O2 1_555 1_555
O1 C1 1_555 1_555
O2 C8 1_555 1_555
O3 Cd1 1_555 1_555
O4 C9 1_555 1_555
O5 C9 1_555 1_555
O6 Cd1 1_555 1_555
H1 O6 1_555 1_555
H2 O6 1_555 1_555
N1 C10 1_555 1_555
N2 C11 1_555 1_555
N3 Cd1 1_555 1_555
N4 C19 1_555 1_555
C1 C2 1_555 1_555
C2 C3 1_555 1_555
C3 H3 1_555 1_555
C4 C3 1_555 1_555
C5 C4 1_555 1_555
C6 C5 1_555 1_555
H4 C6 1_555 1_555
C7 C2 1_555 1_555
H5 C7 1_555 1_555
C8 O3 1_555 1_555
C9 C5 1_555 1_555
C10 H6 1_555 1_555
H7 C10 1_555 1_555
C11 C10 1_555 1_555
H8 C11 1_555 1_555
H9 C11 1_555 1_555
C12 N2 1_555 1_555
H10 C12 1_555 1_555
H11 C12 1_555 1_555
C13 N1 1_555 1_555
H12 C13 1_555 1_555
H13 C13 1_555 1_555
C14 N3 1_555 1_555
H14 C14 1_555 1_555
C15 C14 1_555 1_555
H15 C15 1_555 1_555
C16 N1 1_555 1_555
C17 C16 1_555 1_555
H16 C17 1_555 1_555
C18 N3 1_555 1_555
H17 C18 1_555 1_555
C19 H18 1_555 1_555
C20 C19 1_555 1_555
H19 C20 1_555 1_555
C21 N2 1_555 1_555
C22 C21 1_555 1_555
H20 C22 1_555 1_555
C23 N4 1_555 1_555
H21 C23 1_555 1_555
O7 H22 1_555 1_555
H23 O7 1_555 1_555
O2C C8C 1_555 1_555
O3C C8C 1_555 1_555
O4C C9C 1_555 1_555
O5C C9C 1_555 1_555
C2C C1 1_555 1_555
C3C C2C 1_555 1_555
H3C C3C 1_555 1_555
C4C C3C 1_555 1_555
C5C C4C 1_555 1_555
C6C C5C 1_555 1_555
H4C C6C 1_555 1_555
C7C C2C 1_555 1_555
H5C C7C 1_555 1_555
C8C C4C 1_555 1_555
C9C C5C 1_555 1_555
Cd1C O2C 1_555 1_555
O6C Cd1C 1_555 1_555
H1C O6C 1_555 1_555
H2C O6C 1_555 1_555
N1C C10C 1_555 1_555
N2C C11C 1_555 1_555
N3C Cd1C 1_555 1_555
N4C C19C 1_555 1_555
C10C H6C 1_555 1_555
H7C C10C 1_555 1_555
C11C C10C 1_555 1_555
H8C C11C 1_555 1_555
H9C C11C 1_555 1_555
C12C N2C 1_555 1_555
H10C C12C 1_555 1_555
H11C C12C 1_555 1_555
C13C N1C 1_555 1_555
H12C C13C 1_555 1_555
H13C C13C 1_555 1_555
C14C N3C 1_555 1_555
H14C C14C 1_555 1_555
C15C C14C 1_555 1_555
H15C C15C 1_555 1_555
C16C N1C 1_555 1_555
C17C C16C 1_555 1_555
H16C C17C 1_555 1_555
C18C N3C 1_555 1_555
H17C C18C 1_555 1_555
C19C H18C 1_555 1_555
C20C C19C 1_555 1_555
H19C C20C 1_555 1_555
C21C N2C 1_555 1_555
C22C C21C 1_555 1_555
H20C C22C 1_555 1_555
C23C N4C 1_555 1_555
H21C C23C 1_555 1_555
Cd1D O4 1_555 1_555
Cd1E N4 1_555 1_555
Cd1F N4C 1_555 1_555
Cd1G O4C 1_555 1_555
O4D Cd1 1_555 1_555
O4G Cd1C 1_555 1_555
O5D Cd1 1_555 1_555
O5G Cd1C 1_555 1_555
N4E Cd1 1_555 1_555
N4F Cd1C 1_555 1_555
O5 Cd1D 1_555 1_555
C4 C8 1_555 1_555
C6 C7 1_555 1_555
C12 C13 1_555 1_555
C15 C16 1_555 1_555
C17 C18 1_555 1_555
C20 C21 1_555 1_555
C22 C23 1_555 1_555
O3C Cd1C 1_555 1_555
O5C Cd1G 1_555 1_555
C6C C7C 1_555 1_555
C12C C13C 1_555 1_555
C15C C16C 1_555 1_555
C17C C18C 1_555 1_555
C20C C21C 1_555 1_555
C22C C23C 1_555 1_555

#END
