
#######################################################################
#
#                 Cambridge Crystallographic Data Centre
#                                CCDC 
#
#######################################################################
#
# If this CIF has been generated from an entry in the Cambridge 
# Structural Database, then it will include bibliographic, chemical, 
# crystal, experimental, refinement or atomic coordinate data resulting 
# from the CCDC's data processing and validation procedures.
#
#######################################################################

data_WILJUY
_symmetry_cell_setting           monoclinic
_symmetry_space_group_name_H-M   'C 2/c'
_symmetry_Int_Tables_number      15
_space_group_name_Hall           '-C 2yn'
loop_
_symmetry_equiv_pos_site_id
_symmetry_equiv_pos_as_xyz
1 x,y,z
2 -x,y,1/2-z
3 1/2+x,1/2+y,z
4 1/2-x,1/2+y,1/2-z
5 -x,-y,-z
6 x,-y,1/2+z
7 1/2-x,1/2-y,-z
8 1/2+x,1/2-y,1/2+z
_cell_length_a                   26.278(6)
_cell_length_b                   14.401(3)
_cell_length_c                   8.0107(19)
_cell_angle_alpha                90
_cell_angle_beta                 107.248(5)
_cell_angle_gamma                90
_cell_volume                     2895.16
loop_
_atom_site_label
_atom_site_type_symbol
_atom_site_fract_x
_atom_site_fract_y
_atom_site_fract_z
Co1 Co 0.2500 0.2500 0.0000
Cl1 Cl 0.28986(4) 0.11566(6) -0.12385(13)
N1 N 0.35669(11) 0.15432(19) 0.4806(4)
N2 N 0.30486(12) 0.2210(2) 0.2499(4)
N3 N 0.36365(16) 0.2458(2) 0.5116(5)
N4 N 0.19572(12) 0.15455(19) 0.0593(4)
N5 N 0.13475(12) 0.1000(2) 0.1648(4)
N6 N 0.15933(13) 0.0243(2) 0.1241(5)
C1 C 0.33129(17) 0.2823(3) 0.3687(5)
H1 H 0.3272 0.3460 0.3519
C2 C 0.32231(15) 0.1407(2) 0.3251(5)
H2 H 0.3118 0.0828 0.2755
C3 C 0.38364(14) 0.0872(2) 0.6143(5)
H3 H 0.3766 0.0251 0.5658
H4 H 0.3688 0.0914 0.7114
C4 C 0.44311(15) 0.1016(2) 0.6820(5)
C5 C 0.46932(16) 0.1056(2) 0.8600(5)
C6 C 0.52421(15) 0.1049(2) 0.9252(4)
C7 C 0.19571(15) 0.0610(3) 0.0617(5)
H5 H 0.2194 0.0255 0.0226
C8 C 0.15639(15) 0.1771(2) 0.1241(5)
H6 H 0.1456 0.2373 0.1388
C9 C 0.09161(15) 0.0904(3) 0.2428(5)
H7 H 0.0813 0.1513 0.2730
H8 H 0.1038 0.0543 0.3494
C10 C 0.04413(14) 0.0433(3) 0.1185(5)
C11 C 0.00537(16) 0.0933(2) -0.0013(5)
C12 C -0.03753(14) 0.0525(3) -0.1164(5)
F1 F 0.01000(10) 0.18677(15) -0.0063(4)
F2 F -0.07356(10) 0.10422(16) -0.2327(3)
F3 F 0.44059(9) 0.10477(18) 0.9740(3)
F4 F 0.54630(9) 0.10214(17) 1.1003(3)
N1A N 0.64331(11) 0.15432(19) 1.0194(4)
N2A N 0.69514(12) 0.2210(2) 1.2501(4)
N3A N 0.63635(16) 0.2458(2) 0.9884(5)
C1A C 0.66871(17) 0.2823(3) 1.1313(5)
H1A H 0.6728 0.3460 1.1481
C2A C 0.67769(15) 0.1407(2) 1.1749(5)
H2A H 0.6882 0.0828 1.2245
C3A C 0.61636(14) 0.0872(2) 0.8857(5)
H3A H 0.6234 0.0251 0.9342
H4A H 0.6312 0.0914 0.7886
C4A C 0.55689(15) 0.1016(2) 0.8180(5)
C5A C 0.53068(16) 0.1056(2) 0.6400(5)
C6A C 0.47579(15) 0.1049(2) 0.5748(4)
F3A F 0.55941(9) 0.10477(18) 0.5260(3)
F4A F 0.45370(9) 0.10214(17) 0.3997(3)
N4D N -0.19572(12) -0.15455(19) -0.0593(4)
N5D N -0.13475(12) -0.1000(2) -0.1648(4)
N6D N -0.15933(13) -0.0243(2) -0.1241(5)
C7D C -0.19571(15) -0.0610(3) -0.0617(5)
H5D H -0.2194 -0.0255 -0.0226
C8D C -0.15639(15) -0.1771(2) -0.1241(5)
H6D H -0.1456 -0.2373 -0.1388
C9D C -0.09161(15) -0.0904(3) -0.2428(5)
H7D H -0.0813 -0.1513 -0.2730
H8D H -0.1038 -0.0543 -0.3494
C10D C -0.04413(14) -0.0433(3) -0.1185(5)
C11D C -0.00537(16) -0.0933(2) 0.0013(5)
C12D C 0.03753(14) -0.0525(3) 0.1164(5)
F1D F -0.01000(10) -0.18677(15) 0.0063(4)
F2D F 0.07356(10) -0.10422(16) 0.2327(3)
Cl1F Cl 0.21014(4) 0.38434(6) 0.12385(13)
Co1A Co 0.7500 0.2500 1.5000
Co1B Co -0.2500 -0.2500 0.0000
N2F N 0.19514(12) 0.2790(2) -0.2499(4)
N4F N 0.30428(12) 0.34545(19) -0.0593(4)
loop_
_geom_bond_atom_site_label_1
_geom_bond_atom_site_label_2
_geom_bond_site_symmetry_1
_geom_bond_site_symmetry_2
Co1 Cl1 1_555 1_555
N1 N3 1_555 1_555
N2 Co1 1_555 1_555
N3 C1 1_555 1_555
N4 Co1 1_555 1_555
N5 N6 1_555 1_555
N6 C7 1_555 1_555
C1 N2 1_555 1_555
H1 C1 1_555 1_555
C2 N1 1_555 1_555
H2 C2 1_555 1_555
C3 N1 1_555 1_555
H3 C3 1_555 1_555
H4 C3 1_555 1_555
C4 C3 1_555 1_555
C5 C4 1_555 1_555
C6 C5 1_555 1_555
C7 N4 1_555 1_555
H5 C7 1_555 1_555
C8 N4 1_555 1_555
H6 C8 1_555 1_555
C9 N5 1_555 1_555
H7 C9 1_555 1_555
H8 C9 1_555 1_555
C10 C9 1_555 1_555
C11 C10 1_555 1_555
C12 C11 1_555 1_555
F1 C11 1_555 1_555
F2 C12 1_555 1_555
F3 C5 1_555 1_555
F4 C6 1_555 1_555
N1A N3A 1_555 1_555
N2A C1A 1_555 1_555
N3A C1A 1_555 1_555
C1A H1A 1_555 1_555
C2A N1A 1_555 1_555
H2A C2A 1_555 1_555
C3A N1A 1_555 1_555
H3A C3A 1_555 1_555
H4A C3A 1_555 1_555
C4A C6 1_555 1_555
C5A C4A 1_555 1_555
C6A C4 1_555 1_555
F3A C5A 1_555 1_555
F4A C6A 1_555 1_555
N4D C7D 1_555 1_555
N5D N6D 1_555 1_555
N6D C7D 1_555 1_555
C7D H5D 1_555 1_555
C8D N4D 1_555 1_555
H6D C8D 1_555 1_555
C9D N5D 1_555 1_555
H7D C9D 1_555 1_555
H8D C9D 1_555 1_555
C10D C12 1_555 1_555
C11D C10D 1_555 1_555
C12D C10 1_555 1_555
F1D C11D 1_555 1_555
F2D C12D 1_555 1_555
Cl1F Co1 1_555 1_555
Co1A N2A 1_555 1_555
Co1B N4D 1_555 1_555
N2F Co1 1_555 1_555
N4F Co1 1_555 1_555
N2 C2 1_555 1_555
N5 C8 1_555 1_555
N2A C2A 1_555 1_555
C3A C4A 1_555 1_555
C5A C6A 1_555 1_555
N5D C8D 1_555 1_555
C9D C10D 1_555 1_555
C11D C12D 1_555 1_555

#END
