
#######################################################################
#
#                 Cambridge Crystallographic Data Centre
#                                CCDC 
#
#######################################################################
#
# If this CIF has been generated from an entry in the Cambridge 
# Structural Database, then it will include bibliographic, chemical, 
# crystal, experimental, refinement or atomic coordinate data resulting 
# from the CCDC's data processing and validation procedures.
#
#######################################################################

data_WILJOS
_symmetry_cell_setting           monoclinic
_symmetry_space_group_name_H-M   'C 2/c'
_symmetry_Int_Tables_number      15
_space_group_name_Hall           '-C 2yn'
loop_
_symmetry_equiv_pos_site_id
_symmetry_equiv_pos_as_xyz
1 x,y,z
2 -x,y,1/2-z
3 1/2+x,1/2+y,z
4 1/2-x,1/2+y,1/2-z
5 -x,-y,-z
6 x,-y,1/2+z
7 1/2-x,1/2-y,-z
8 1/2+x,1/2-y,1/2+z
_cell_length_a                   26.5360(11)
_cell_length_b                   14.4560(6)
_cell_length_c                   8.0914(4)
_cell_angle_alpha                90
_cell_angle_beta                 106.9430(10)
_cell_angle_gamma                90
_cell_volume                     2969.17
loop_
_atom_site_label
_atom_site_type_symbol
_atom_site_fract_x
_atom_site_fract_y
_atom_site_fract_z
Mn1 Mn 0.7500 0.2500 0.5000
C1 C 0.69392(8) 0.05790(14) 0.5677(3)
H1 H 0.7176 0.0224 0.5300
C2 C 0.65448(8) 0.17302(14) 0.6256(3)
H2 H 0.6436 0.2330 0.6388
C3 C 0.59026(8) 0.08744(16) 0.7454(3)
H3 H 0.5802 0.1479 0.7769
H4 H 0.6018 0.0503 0.8495
C4 C 0.54349(7) 0.04193(14) 0.6192(2)
C5 C 0.50607(8) 0.09332(13) 0.5015(3)
C6 C 0.46354(7) 0.05294(14) 0.3841(3)
C7 C 0.83380(9) 0.28060(15) 0.8783(3)
H5 H 0.8302 0.3441 0.8600
C8 C 0.82373(8) 0.13915(13) 0.8376(3)
H6 H 0.8128 0.0813 0.7901
C9 C 0.88494(7) 0.08650(13) 1.1226(3)
H7 H 0.8778 0.0245 1.0758
H8 H 0.8705 0.0914 1.2195
C10 C 0.94404(7) 0.10077(12) 1.1868(2)
C11 C 0.97547(8) 0.10323(13) 1.0772(2)
C12 C 0.97024(8) 0.10423(13) 1.3613(3)
Cl1 Cl 0.70915(2) 0.38618(3) 0.62174(8)
F1 F 0.51135(6) 0.18574(8) 0.4994(2)
F2 F 0.42893(5) 0.10638(9) 0.2703(2)
F3 F 0.95290(5) 0.10141(9) 0.90515(15)
F4 F 0.94246(5) 0.10456(9) 1.47660(16)
N1 N 0.69330(6) 0.15105(11) 0.5612(2)
N2 N 0.65829(7) 0.02130(12) 0.6317(3)
N3 N 0.63337(6) 0.09716(11) 0.6686(2)
N4 N 0.80680(6) 0.21864(11) 0.7620(2)
N5 N 0.86566(8) 0.24493(11) 1.0194(3)
N6 N 0.85844(6) 0.15290(10) 0.9906(2)
C1D C 0.30608(8) -0.05790(14) 0.4323(3)
H1D H 0.2824 -0.0224 0.4700
C2D C 0.34552(8) -0.17302(14) 0.3744(3)
H2D H 0.3564 -0.2330 0.3612
C3D C 0.40974(8) -0.08744(16) 0.2546(3)
H3D H 0.4198 -0.1479 0.2231
H4D H 0.3982 -0.0503 0.1505
C4D C 0.45651(7) -0.04193(14) 0.3808(2)
C5D C 0.49393(8) -0.09332(13) 0.4985(3)
C6D C 0.53646(7) -0.05294(14) 0.6159(3)
F1D F 0.48865(6) -0.18574(8) 0.5006(2)
F2D F 0.57107(5) -0.10638(9) 0.7297(2)
N1D N 0.30670(6) -0.15105(11) 0.4388(2)
N2D N 0.34171(7) -0.02130(12) 0.3683(3)
N3D N 0.36663(6) -0.09716(11) 0.3314(2)
C7A C 1.16620(9) 0.28060(15) 1.6217(3)
H5A H 1.1698 0.3441 1.6400
C8A C 1.17627(8) 0.13915(13) 1.6624(3)
H6A H 1.1872 0.0813 1.7099
C9A C 1.11506(7) 0.08650(13) 1.3774(3)
H7A H 1.1222 0.0245 1.4242
H8A H 1.1295 0.0914 1.2805
C10A C 1.05596(7) 0.10077(12) 1.3132(2)
C11A C 1.02453(8) 0.10323(13) 1.4228(2)
C12A C 1.02976(8) 0.10423(13) 1.1387(3)
F3A F 1.04710(5) 0.10141(9) 1.59485(15)
F4A F 1.05754(5) 0.10456(9) 1.02340(16)
N4A N 1.19320(6) 0.21864(11) 1.7380(2)
N5A N 1.13434(8) 0.24493(11) 1.4806(3)
N6A N 1.14156(6) 0.15290(10) 1.5094(2)
Cl1F Cl 0.79085(2) 0.11382(3) 0.37826(8)
Mn1A Mn 1.2500 0.2500 2.0000
Mn1B Mn 0.2500 -0.2500 0.5000
N1F N 0.80670(6) 0.34895(11) 0.4388(2)
N4F N 0.69320(6) 0.28136(11) 0.2380(2)
loop_
_geom_bond_atom_site_label_1
_geom_bond_atom_site_label_2
_geom_bond_site_symmetry_1
_geom_bond_site_symmetry_2
Mn1 Cl1 1_555 1_555
C1 H1 1_555 1_555
C2 H2 1_555 1_555
C3 H3 1_555 1_555
H4 C3 1_555 1_555
C4 C3 1_555 1_555
C5 C4 1_555 1_555
C6 C5 1_555 1_555
C7 H5 1_555 1_555
C8 H6 1_555 1_555
C9 H7 1_555 1_555
H8 C9 1_555 1_555
C10 C9 1_555 1_555
C11 C10 1_555 1_555
C12 C10 1_555 1_555
F1 C5 1_555 1_555
F2 C6 1_555 1_555
F3 C11 1_555 1_555
F4 C12 1_555 1_555
N1 Mn1 1_555 1_555
N2 C1 1_555 1_555
N3 C2 1_555 1_555
N4 Mn1 1_555 1_555
N5 C7 1_555 1_555
N6 C8 1_555 1_555
C1D H1D 1_555 1_555
C2D H2D 1_555 1_555
C3D H3D 1_555 1_555
H4D C3D 1_555 1_555
C4D C6 1_555 1_555
C5D C4D 1_555 1_555
C6D C4 1_555 1_555
F1D C5D 1_555 1_555
F2D C6D 1_555 1_555
N1D C1D 1_555 1_555
N2D C1D 1_555 1_555
N3D C2D 1_555 1_555
C7A H5A 1_555 1_555
C8A H6A 1_555 1_555
C9A H7A 1_555 1_555
H8A C9A 1_555 1_555
C10A C9A 1_555 1_555
C11A C12 1_555 1_555
C12A C11 1_555 1_555
F3A C11A 1_555 1_555
F4A C12A 1_555 1_555
N4A C7A 1_555 1_555
N5A C7A 1_555 1_555
N6A C8A 1_555 1_555
Cl1F Mn1 1_555 1_555
Mn1A N4A 1_555 1_555
Mn1B N1D 1_555 1_555
N1F Mn1 1_555 1_555
N4F Mn1 1_555 1_555
C1 N1 1_555 1_555
C2 N1 1_555 1_555
C3 N3 1_555 1_555
C7 N4 1_555 1_555
C8 N4 1_555 1_555
C9 N6 1_555 1_555
N2 N3 1_555 1_555
N5 N6 1_555 1_555
C2D N1D 1_555 1_555
C3D C4D 1_555 1_555
C3D N3D 1_555 1_555
C5D C6D 1_555 1_555
N2D N3D 1_555 1_555
C8A N4A 1_555 1_555
C9A N6A 1_555 1_555
C10A C11A 1_555 1_555
C10A C12A 1_555 1_555
N5A N6A 1_555 1_555

#END
