
#######################################################################
#
#                 Cambridge Crystallographic Data Centre
#                                CCDC 
#
#######################################################################
#
# If this CIF has been generated from an entry in the Cambridge 
# Structural Database, then it will include bibliographic, chemical, 
# crystal, experimental, refinement or atomic coordinate data resulting 
# from the CCDC's data processing and validation procedures.
#
#######################################################################

data_WILKAF
_symmetry_cell_setting           orthorhombic
_symmetry_space_group_name_H-M   'P b a m'
_symmetry_Int_Tables_number      55
_space_group_name_Hall           '-P 2 2ab'
loop_
_symmetry_equiv_pos_site_id
_symmetry_equiv_pos_as_xyz
1 x,y,z
2 -x,-y,z
3 1/2-x,1/2+y,-z
4 1/2+x,1/2-y,-z
5 -x,-y,-z
6 x,y,-z
7 1/2+x,1/2-y,z
8 1/2-x,1/2+y,z
_cell_length_a                   19.385(12)
_cell_length_b                   7.570(5)
_cell_length_c                   11.540(7)
_cell_angle_alpha                90
_cell_angle_beta                 90
_cell_angle_gamma                90
_cell_volume                     1693.43
loop_
_atom_site_label
_atom_site_type_symbol
_atom_site_fract_x
_atom_site_fract_y
_atom_site_fract_z
Co1 Co 0.0000 0.0000 0.0000
N1 N 0.06910(16) 0.1148(4) 0.1257(3)
N2 N 0.13621(19) 0.3077(4) 0.2048(3)
N3 N 0.1664(3) 0.1521(5) 0.2254(5)
Cl1 Cl 0.06850(7) -0.28216(16) 0.0000
C1 C 0.1242(3) 0.0408(6) 0.1758(6)
H1 H 0.1318 -0.0805 0.1753
C2 C 0.0785(2) 0.2820(5) 0.1472(4)
H2 H 0.0483 0.3714 0.1249
C3 C 0.1672(3) 0.4722(5) 0.2484(5)
H3 H 0.1409 0.5724 0.2202
H4 H 0.2139 0.4828 0.2193
C4 C 0.1681(2) 0.4742(4) 0.3771(5)
C5 C 0.1135(2) 0.5412(5) 0.4404(5)
C6 C 0.22291(19) 0.4130(4) 0.4407(4)
F1 F 0.05866(14) 0.6064(4) 0.3827(4)
F2 F 0.27896(12) 0.3494(3) 0.3850(2)
N1E N 0.06910(16) 0.1148(4) 0.8743(3)
N2E N 0.13621(19) 0.3077(4) 0.7952(3)
N3E N 0.1664(3) 0.1521(5) 0.7746(5)
C1E C 0.1242(3) 0.0408(6) 0.8242(6)
H1E H 0.1318 -0.0805 0.8247
C2E C 0.0785(2) 0.2820(5) 0.8528(4)
H2E H 0.0483 0.3714 0.8751
C3E C 0.1672(3) 0.4722(5) 0.7516(5)
H3E H 0.1409 0.5724 0.7798
H4E H 0.2139 0.4828 0.7807
C4E C 0.1681(2) 0.4742(4) 0.6229(5)
C5E C 0.1135(2) 0.5412(5) 0.5596(5)
C6E C 0.22291(19) 0.4130(4) 0.5593(4)
F1E F 0.05866(14) 0.6064(4) 0.6173(4)
F2E F 0.27896(12) 0.3494(3) 0.6150(2)
N1A N -0.06910(16) -0.1148(4) 0.1257(3)
N2A N -0.13621(19) -0.3077(4) 0.2048(3)
N3A N -0.1664(3) -0.1521(5) 0.2254(5)
Cl1A Cl -0.06850(7) 0.28216(16) 0.0000
C1A C -0.1242(3) -0.0408(6) 0.1758(6)
H1A H -0.1318 0.0805 0.1753
C2A C -0.0785(2) -0.2820(5) 0.1472(4)
H2A H -0.0483 -0.3714 0.1249
C3A C -0.1672(3) -0.4722(5) 0.2484(5)
H3A H -0.1409 -0.5724 0.2202
H4A H -0.2139 -0.4828 0.2193
C4A C -0.1681(2) -0.4742(4) 0.3771(5)
C5A C -0.1135(2) -0.5412(5) 0.4404(5)
C6A C -0.22291(19) -0.4130(4) 0.4407(4)
F1A F -0.05866(14) -0.6064(4) 0.3827(4)
F2A F -0.27896(12) -0.3494(3) 0.3850(2)
N1D N -0.06910(16) -0.1148(4) 0.8743(3)
N2D N -0.13621(19) -0.3077(4) 0.7952(3)
N3D N -0.1664(3) -0.1521(5) 0.7746(5)
C1D C -0.1242(3) -0.0408(6) 0.8242(6)
H1D H -0.1318 0.0805 0.8247
C2D C -0.0785(2) -0.2820(5) 0.8528(4)
H2D H -0.0483 -0.3714 0.8751
C3D C -0.1672(3) -0.4722(5) 0.7516(5)
H3D H -0.1409 -0.5724 0.7798
H4D H -0.2139 -0.4828 0.7807
C4D C -0.1681(2) -0.4742(4) 0.6229(5)
C5D C -0.1135(2) -0.5412(5) 0.5596(5)
C6D C -0.22291(19) -0.4130(4) 0.5593(4)
F1D F -0.05866(14) -0.6064(4) 0.6173(4)
F2D F -0.27896(12) -0.3494(3) 0.6150(2)
Co1_2 Co 0.0000 0.0000 1.0000
N1D_2 N -0.06910(16) -0.1148(4) -0.1257(3)
N1E_2 N 0.06910(16) 0.1148(4) -0.1257(3)
Cl2 Cl 0.43036(19) 0.5585(6) 0.5000
C7 C 0.5000 0.5000 0.573(2)
H5 H 0.4743 0.4079 0.6120
Cl2A Cl 0.56964(19) 0.4415(6) 0.5000
H5A H 0.5257 0.5921 0.6120
H6? H 0.5010 0.6131 0.6120
loop_
_geom_bond_atom_site_label_1
_geom_bond_atom_site_label_2
_geom_bond_site_symmetry_1
_geom_bond_site_symmetry_2
Co1 N1 1_555 1_555
N1 C1 1_555 1_555
N2 N3 1_555 1_555
N3 C1 1_555 1_555
Cl1 Co1 1_555 1_555
C1 H1 1_555 1_555
C2 N1 1_555 1_555
H2 C2 1_555 1_555
C3 N2 1_555 1_555
H3 C3 1_555 1_555
H4 C3 1_555 1_555
C4 C3 1_555 1_555
C5 C4 1_555 1_555
C6 C4 1_555 1_555
F1 C5 1_555 1_555
F2 C6 1_555 1_555
Cl2 C7 1_555 1_555
C7 H5 1_555 1_555
N1E C1E 1_555 1_555
N2E N3E 1_555 1_555
N3E C1E 1_555 1_555
C1E H1E 1_555 1_555
C2E N1E 1_555 1_555
H2E C2E 1_555 1_555
C3E N2E 1_555 1_555
H3E C3E 1_555 1_555
H4E C3E 1_555 1_555
C4E C3E 1_555 1_555
C5E C5 1_555 1_555
C6E C6 1_555 1_555
F1E C5E 1_555 1_555
F2E C6E 1_555 1_555
N1A Co1 1_555 1_555
N2A N3A 1_555 1_555
N3A C1A 1_555 1_555
Cl1A Co1 1_555 1_555
C1A N1A 1_555 1_555
H1A C1A 1_555 1_555
C2A N1A 1_555 1_555
H2A C2A 1_555 1_555
C3A N2A 1_555 1_555
H3A C3A 1_555 1_555
H4A C3A 1_555 1_555
C4A C3A 1_555 1_555
C5A C4A 1_555 1_555
C6A C4A 1_555 1_555
F1A C5A 1_555 1_555
F2A C6A 1_555 1_555
N1D C1D 1_555 1_555
N2D N3D 1_555 1_555
N3D C1D 1_555 1_555
C1D H1D 1_555 1_555
C2D N1D 1_555 1_555
H2D C2D 1_555 1_555
C3D N2D 1_555 1_555
H3D C3D 1_555 1_555
H4D C3D 1_555 1_555
C4D C3D 1_555 1_555
C5D C5A 1_555 1_555
C6D C6A 1_555 1_555
F1D C5D 1_555 1_555
F2D C6D 1_555 1_555
Co1_2 N1E 1_555 1_555
N1D_2 Co1 1_555 1_555
N1E_2 Co1 1_555 1_555
Cl2A C7 1_555 1_555
H5A C7 1_555 1_555
N2 C2 1_555 1_555
N2E C2E 1_555 1_555
C4E C5E 1_555 1_555
C4E C6E 1_555 1_555
N2A C2A 1_555 1_555
N1D Co1_2 1_555 1_555
N2D C2D 1_555 1_555
C4D C5D 1_555 1_555
C4D C6D 1_555 1_555

#END
