
#######################################################################
#
#                 Cambridge Crystallographic Data Centre
#                                CCDC 
#
#######################################################################
#
# If this CIF has been generated from an entry in the Cambridge 
# Structural Database, then it will include bibliographic, chemical, 
# crystal, experimental, refinement or atomic coordinate data resulting 
# from the CCDC's data processing and validation procedures.
#
#######################################################################

data_WILKEJ
_symmetry_cell_setting           orthorhombic
_symmetry_space_group_name_H-M   'P n m a'
_symmetry_Int_Tables_number      62
_space_group_name_Hall           '-P 2ac 2n'
loop_
_symmetry_equiv_pos_site_id
_symmetry_equiv_pos_as_xyz
1 x,y,z
2 1/2-x,-y,1/2+z
3 -x,1/2+y,-z
4 1/2+x,1/2-y,1/2-z
5 -x,-y,-z
6 1/2+x,y,1/2-z
7 x,1/2-y,z
8 1/2-x,1/2+y,1/2+z
_cell_length_a                   19.5396(16)
_cell_length_b                   23.505(2)
_cell_length_c                   7.5642(6)
_cell_angle_alpha                90
_cell_angle_beta                 90
_cell_angle_gamma                90
_cell_volume                     3474.07
loop_
_atom_site_label
_atom_site_type_symbol
_atom_site_fract_x
_atom_site_fract_y
_atom_site_fract_z
Fe1 Fe 0.51155(3) 0.2500 0.98393(8)
N1 N 0.57987(14) 0.31410(12) 0.8694(3)
N2 N 0.64403(15) 0.35886(13) 0.6812(3)
N3 N 0.6722(2) 0.36997(19) 0.8406(4)
N4 N 0.55750(14) 0.68608(12) 0.9009(3)
N5 N 0.6527(2) 0.63398(19) 0.8688(4)
N6 N 0.62628(16) 0.64818(13) 0.7094(3)
C1 C 0.58927(17) 0.32638(15) 0.7019(4)
H1 H 0.5613 0.3140 0.6103
C2 C 0.6316(2) 0.3418(2) 0.9483(5)
H2 H 0.6383 0.3411 1.0700
C3 C 0.6735(2) 0.38356(17) 0.5203(4)
H3 H 0.6484 0.3699 0.4182
H4 H 0.7207 0.3713 0.5086
C4 C 0.67089(18) 0.44698(16) 0.5246(4)
C5 C 0.61483(18) 0.4767(2) 0.4610(5)
C6 C 0.61211(18) 0.5356(2) 0.4672(5)
C7 C 0.66454(18) 0.56754(17) 0.5358(4)
C8 C 0.72107(17) 0.53784(15) 0.5960(4)
C9 C 0.72440(17) 0.47957(16) 0.5903(4)
C10 C 0.6604(2) 0.63078(17) 0.5468(5)
H5 H 0.6354 0.6453 0.4457
H6 H 0.7062 0.6467 0.5436
C11 C 0.57022(17) 0.67802(15) 0.7312(4)
H7 H 0.5431 0.6917 0.6396
C12 C 0.6095(2) 0.6581(2) 0.9779(5)
H8 H 0.6145 0.6560 1.1000
Cl1 Cl 0.44291(6) 0.2500 0.70067(14)
Cl2 Cl 0.57894(6) 0.2500 1.26993(15)
F1 F 0.78044(10) 0.45316(9) 0.6509(3)
F2 F 0.77435(10) 0.56640(9) 0.6625(3)
F3 F 0.55676(11) 0.56146(14) 0.4023(4)
F4 F 0.56232(12) 0.44741(14) 0.3926(3)
N1D N 0.42013(14) 0.68590(12) 1.1306(3)
N2D N 0.35597(15) 0.64114(13) 1.3188(3)
N3D N 0.3278(2) 0.63003(19) 1.1594(4)
N4D N 0.44250(14) 0.31392(12) 1.0991(3)
N5D N 0.3473(2) 0.36602(19) 1.1312(4)
N6D N 0.37372(16) 0.35182(13) 1.2906(3)
C1D C 0.41073(17) 0.67362(15) 1.2981(4)
H1D H 0.4387 0.6860 1.3897
C2D C 0.3684(2) 0.6582(2) 1.0517(5)
H2D H 0.3617 0.6589 0.9300
C3D C 0.3265(2) 0.61644(17) 1.4797(4)
H3D H 0.3516 0.6301 1.5818
H4D H 0.2793 0.6287 1.4914
C4D C 0.32911(18) 0.55302(16) 1.4754(4)
C5D C 0.38517(18) 0.5233(2) 1.5390(5)
C6D C 0.38789(18) 0.4644(2) 1.5328(5)
C7D C 0.33546(18) 0.43246(17) 1.4642(4)
C8D C 0.27893(17) 0.46216(15) 1.4040(4)
C9D C 0.27560(17) 0.52043(16) 1.4097(4)
C10D C 0.3396(2) 0.36922(17) 1.4532(5)
H5D H 0.3646 0.3547 1.5543
H6D H 0.2938 0.3533 1.4564
C11D C 0.42978(17) 0.32198(15) 1.2688(4)
H7D H 0.4569 0.3083 1.3604
C12D C 0.3905(2) 0.3419(2) 1.0221(5)
H8D H 0.3855 0.3440 0.9000
F1D F 0.21956(10) 0.54684(9) 1.3491(3)
F2D F 0.22565(10) 0.43360(9) 1.3375(3)
F3D F 0.44324(11) 0.43854(14) 1.5977(4)
F4D F 0.43768(12) 0.55259(14) 1.6074(3)
Fe1B Fe 0.48845(3) 0.7500 1.01607(8)
N1F N 0.57987(14) 0.18590(12) 0.8694(3)
N4B N 0.44250(14) 0.18608(12) 1.0991(3)
C13 C 0.4964(9) 0.4691(8) 1.001(2)
H9 H 0.5063 0.4442 1.0982
H10 H 0.4814 0.4468 0.9018
Cl3D Cl 0.4299(5) 0.4991(7) 1.0564(14)
Cl4D Cl 0.5645(6) 0.4882(9) 0.946(2)
Cl3 Cl 0.5701(5) 0.5009(7) 0.9436(14)
Cl4 Cl 0.4355(6) 0.5118(9) 1.054(2)
C13D C 0.5036(9) 0.5309(8) 0.999(2)
H9D H 0.4937 0.5558 0.9018
H10D H 0.5186 0.5532 1.0982
loop_
_geom_bond_atom_site_label_1
_geom_bond_atom_site_label_2
_geom_bond_site_symmetry_1
_geom_bond_site_symmetry_2
Fe1 N1 1_555 1_555
N1 C1 1_555 1_555
N2 N3 1_555 1_555
N3 C2 1_555 1_555
N4 C11 1_555 1_555
N5 N6 1_555 1_555
N6 C10 1_555 1_555
C1 N2 1_555 1_555
H1 C1 1_555 1_555
C2 N1 1_555 1_555
H2 C2 1_555 1_555
C3 N2 1_555 1_555
H3 C3 1_555 1_555
H4 C3 1_555 1_555
C4 C3 1_555 1_555
C5 C4 1_555 1_555
C6 C5 1_555 1_555
C7 C6 1_555 1_555
C8 C7 1_555 1_555
C9 C4 1_555 1_555
C10 C7 1_555 1_555
H5 C10 1_555 1_555
H6 C10 1_555 1_555
C11 N6 1_555 1_555
H7 C11 1_555 1_555
C12 N4 1_555 1_555
H8 C12 1_555 1_555
Cl1 Fe1 1_555 1_555
Cl2 Fe1 1_555 1_555
F1 C9 1_555 1_555
F2 C8 1_555 1_555
F3 C6 1_555 1_555
F4 C5 1_555 1_555
C13 H9 1_555 1_555
H10 C13 1_555 1_555
Cl3 C13D 1_555 1_555
Cl4 C13D 1_555 1_555
N1D C1D 1_555 1_555
N2D N3D 1_555 1_555
N3D C2D 1_555 1_555
N4D Fe1 1_555 1_555
N5D N6D 1_555 1_555
N6D C10D 1_555 1_555
C1D N2D 1_555 1_555
H1D C1D 1_555 1_555
C2D N1D 1_555 1_555
H2D C2D 1_555 1_555
C3D N2D 1_555 1_555
H3D C3D 1_555 1_555
H4D C3D 1_555 1_555
C4D C3D 1_555 1_555
C5D C4D 1_555 1_555
C6D C5D 1_555 1_555
C7D C6D 1_555 1_555
C8D C7D 1_555 1_555
C9D C4D 1_555 1_555
C10D C7D 1_555 1_555
H5D C10D 1_555 1_555
H6D C10D 1_555 1_555
C11D N4D 1_555 1_555
H7D C11D 1_555 1_555
C12D N4D 1_555 1_555
H8D C12D 1_555 1_555
F1D C9D 1_555 1_555
F2D C8D 1_555 1_555
F3D C6D 1_555 1_555
F4D C5D 1_555 1_555
Fe1B N4 1_555 1_555
N1F Fe1 1_555 1_555
N4B Fe1 1_555 1_555
Cl3D C13 1_555 1_555
Cl4D C13 1_555 1_555
C13D H9D 1_555 1_555
H10D C13D 1_555 1_555
N5 C12 1_555 1_555
C8 C9 1_555 1_555
N1D Fe1B 1_555 1_555
N5D C12D 1_555 1_555
N6D C11D 1_555 1_555
C8D C9D 1_555 1_555

#END
