
#######################################################################
#
#                 Cambridge Crystallographic Data Centre
#                                CCDC 
#
#######################################################################
#
# If this CIF has been generated from an entry in the Cambridge 
# Structural Database, then it will include bibliographic, chemical, 
# crystal, experimental, refinement or atomic coordinate data resulting 
# from the CCDC's data processing and validation procedures.
#
#######################################################################

data_WILLOT
_symmetry_cell_setting           triclinic
_symmetry_space_group_name_H-M   'P -1'
_symmetry_Int_Tables_number      2
_space_group_name_Hall           '-P 1'
loop_
_symmetry_equiv_pos_site_id
_symmetry_equiv_pos_as_xyz
1 x,y,z
2 -x,-y,-z
_cell_length_a                   11.413(6)
_cell_length_b                   12.236(5)
_cell_length_c                   16.274(5)
_cell_angle_alpha                98.19(3)
_cell_angle_beta                 105.66(2)
_cell_angle_gamma                99.55(4)
_cell_volume                     2115.6
loop_
_atom_site_label
_atom_site_type_symbol
_atom_site_fract_x
_atom_site_fract_y
_atom_site_fract_z
Li1 Li 0.1175(8) 0.1987(7) 0.1915(5)
Li2 Li 0.3686(9) 0.8785(7) 0.3893(6)
S1 S 0.16559(14) -0.03142(13) 0.25158(9)
S2 S 0.63968(13) 1.02682(11) 0.41736(9)
N1 N 0.2892(4) 0.5282(3) 0.3054(3)
O1 O 0.2224(3) 0.3384(3) 0.2682(2)
O2 O 0.3408(4) 0.7173(3) 0.3472(2)
O3 O 0.0234(5) 0.3728(4) 0.3788(4)
O4 O -0.0623(4) 0.2219(4) 0.2128(3)
O5 O -0.0010(5) 0.1639(5) 0.0702(3)
O6 O 0.2433(5) 0.1945(4) 0.1107(4)
O7 O 0.5198(7) 0.6650(5) 0.8120(6)
O8 O 0.1510(5) 0.0832(4) 0.2554(4)
O9 O 0.2632(4) -0.0411(4) 0.3239(3)
O10 O 0.1649(6) -0.0870(8) 0.1700(4)
O11 O 0.6490(4) 1.0765(3) 0.3441(3)
O12 O 0.5389(4) 0.9306(3) 0.3980(3)
O13 O 0.6548(4) 1.1063(3) 0.4953(3)
C1 C 0.3580(5) 0.6265(4) 0.3636(3)
C2 C 0.4501(4) 0.6142(4) 0.4439(3)
C3 C 0.4568(4) 0.5057(4) 0.4610(3)
C4 C 0.3791(4) 0.4083(4) 0.4035(3)
C5 C 0.2907(4) 0.4195(4) 0.3213(3)
C6 C 0.3856(4) 0.3027(4) 0.4224(3)
H1 H 0.3319 0.2373 0.3834
C7 C 0.5283(5) 0.7082(4) 0.5007(3)
H2 H 0.5241 0.7811 0.4880
C8 C 0.2014(5) 0.5384(5) 0.2213(3)
H3 H 0.2019 0.4767 0.1749
H4 H 0.2328 0.6109 0.2062
C9 C 0.0678(6) 0.5335(8) 0.2218(5)
H5 H 0.0361 0.4618 0.2379
H6 H 0.0660 0.5966 0.2666
C10 C -0.0153(6) 0.5411(8) 0.1357(5)
H7 H 0.0109 0.6170 0.1236
H8 H -0.0035 0.4848 0.0902
C11 C -0.1493(6) 0.5221(9) 0.1283(7)
H9 H -0.1644 0.5851 0.1668
H10 H -0.1742 0.4513 0.1479
C12 C -0.2283(9) 0.5142(13) 0.0352(8)
H11 H -0.2133 0.5890 0.0188
H12 H -0.2036 0.4598 -0.0045
C13 C -0.3604(11) 0.478(2) 0.0253(10)
H13 H -0.4089 0.4729 -0.0353
H14 H -0.3855 0.5327 0.0636
H15 H -0.3756 0.4035 0.0410
C14 C 0.1289(7) 0.5515(5) 0.4609(6)
H16 H 0.0828 0.5824 0.4154
C15 C 0.2131(7) 0.6203(5) 0.5308(6)
H17 H 0.2277 0.6995 0.5332
C16 C 0.2805(7) 0.5781(5) 0.6008(6)
C17 C 0.3671(7) 0.6489(6) 0.6723(7)
H18 H 0.3814 0.7284 0.6759
C18 C 0.4321(9) 0.6050(7) 0.7379(8)
C19 C 0.4103(10) 0.4848(7) 0.7341(7)
H19 H 0.4546 0.4551 0.7811
C20 C 0.3288(9) 0.4161(6) 0.6653(6)
H20 H 0.3167 0.3368 0.6626
C21 C 0.2581(7) 0.4581(5) 0.5946(6)
C22 C 0.1708(8) 0.3873(5) 0.5202(6)
H21 H 0.1555 0.3076 0.5157
C23 C 0.1083(8) 0.4326(5) 0.4547(6)
C24 C -0.0028(8) 0.2524(5) 0.3681(5)
H22 H -0.0283 0.2298 0.4179
H23 H 0.0726 0.2235 0.3661
C25 C -0.1049(7) 0.2044(7) 0.2856(6)
H24 H -0.1337 0.1224 0.2819
H25 H -0.1761 0.2411 0.2849
C26 C -0.1602(6) 0.1756(7) 0.1325(6)
H26 H -0.2343 0.2077 0.1325
H27 H -0.1844 0.0924 0.1253
C27 C -0.1121(8) 0.2052(8) 0.0612(6)
H28 H -0.1739 0.1696 0.0040
H29 H -0.0944 0.2881 0.0655
C28 C 0.0573(9) 0.1900(12) 0.0069(5)
H30 H 0.0792 0.2729 0.0118
H31 H 0.0005 0.1559 -0.0523
C29 C 0.1693(10) 0.1439(10) 0.0229(6)
H32 H 0.1475 0.0607 0.0158
H33 H 0.2156 0.1628 -0.0185
C30 C 0.3520(8) 0.1547(9) 0.1218(10)
H34 H 0.3772 0.1554 0.0682
H35 H 0.3344 0.0751 0.1288
C31 C 0.5425(14) 0.7811(8) 0.8034(12)
H36 H 0.5625 0.7870 0.7484
H37 H 0.4674 0.8121 0.8020
C32 C 0.0276(8) -0.0991(7) 0.2709(7)
C33 C 0.7750(6) 0.9641(5) 0.4438(4)
F1 F 0.0275(10) -0.2022(6) 0.2724(11)
F2 F -0.0740(5) -0.0932(8) 0.2066(5)
F3 F 0.0123(5) -0.0493(7) 0.3408(4)
F4 F 0.7752(4) 0.8914(3) 0.3750(3)
F5 F 0.8789(3) 1.0422(3) 0.4673(3)
F6 F 0.7771(3) 0.9080(3) 0.5082(3)
Li1A Li 0.8825(8) 0.8013(7) 0.8085(5)
Li1_2 Li 0.1175(8) 1.1987(7) 0.1915(5)
Li2A Li 0.6314(9) 0.1215(7) 0.6107(6)
Li2_2 Li 0.3686(9) -0.1215(7) 0.3893(6)
Li2A_2 Li 0.6314(9) 1.1215(7) 0.6107(6)
S1_2 S 0.16559(14) 0.96858(13) 0.25158(9)
S2A S 0.36032(13) 0.97318(11) 0.58264(9)
N1A N 0.7108(4) 0.4718(3) 0.6946(3)
O1A O 0.7776(3) 0.6616(3) 0.7318(2)
O2A O 0.6592(4) 0.2827(3) 0.6528(2)
O3A O 0.9766(5) 0.6272(4) 0.6212(4)
O4A O 1.0623(4) 0.7781(4) 0.7872(3)
O5A O 1.0010(5) 0.8361(5) 0.9298(3)
O6A O 0.7567(5) 0.8055(4) 0.8893(4)
O7A O 0.4802(7) 0.3350(5) 0.1880(6)
O8_2 O 0.1510(5) 1.0832(4) 0.2554(4)
O8A O 0.8490(5) 0.9168(4) 0.7446(4)
O9_2 O 0.2632(4) 0.9589(4) 0.3239(3)
O9A O 0.7368(4) 0.0411(4) 0.6761(3)
O10_2 O 0.1649(6) 0.9130(8) 0.1700(4)
O11A O 0.3510(4) 0.9235(3) 0.6559(3)
O12A O 0.4611(4) 1.0694(3) 0.6020(3)
O12A_2 O 0.4611(4) 0.0694(3) 0.6020(3)
O13A O 0.3452(4) 0.8937(3) 0.5047(3)
O13_2 O 0.6548(4) 0.1063(3) 0.4953(3)
C1A C 0.6420(5) 0.3735(4) 0.6364(3)
C2A C 0.5499(4) 0.3858(4) 0.5561(3)
C3A C 0.5432(4) 0.4943(4) 0.5390(3)
C4A C 0.6209(4) 0.5917(4) 0.5965(3)
C5A C 0.7093(4) 0.5805(4) 0.6787(3)
C6A C 0.6144(4) 0.6973(4) 0.5776(3)
H1A H 0.6681 0.7627 0.6166
C7A C 0.4717(5) 0.2918(4) 0.4993(3)
H2A H 0.4759 0.2189 0.5120
C8A C 0.7986(5) 0.4616(5) 0.7787(3)
H3A H 0.7981 0.5233 0.8251
H4A H 0.7672 0.3891 0.7938
C9A C 0.9322(6) 0.4665(8) 0.7782(5)
H5A H 0.9639 0.5382 0.7621
H6A H 0.9340 0.4034 0.7334
C10A C 1.0153(6) 0.4589(8) 0.8643(5)
H7A H 0.9891 0.3830 0.8764
H8A H 1.0035 0.5152 0.9098
C11A C 1.1493(6) 0.4779(9) 0.8717(7)
H9A H 1.1644 0.4149 0.8332
H10A H 1.1742 0.5487 0.8521
C12A C 1.2283(9) 0.4858(13) 0.9648(8)
H11A H 1.2133 0.4110 0.9812
H12A H 1.2036 0.5402 1.0045
C13A C 1.3604(11) 0.522(2) 0.9747(10)
H13A H 1.4089 0.5271 1.0353
H14A H 1.3855 0.4673 0.9364
H15A H 1.3756 0.5965 0.9590
C14A C 0.8711(7) 0.4485(5) 0.5391(6)
H16A H 0.9172 0.4176 0.5846
C15A C 0.7869(7) 0.3797(5) 0.4692(6)
H17A H 0.7723 0.3005 0.4668
C16A C 0.7195(7) 0.4219(5) 0.3992(6)
C17A C 0.6329(7) 0.3511(6) 0.3277(7)
H18A H 0.6186 0.2716 0.3241
C18A C 0.5679(9) 0.3950(7) 0.2621(8)
C19A C 0.5897(10) 0.5152(7) 0.2659(7)
H19A H 0.5454 0.5449 0.2189
C20A C 0.6712(9) 0.5839(6) 0.3347(6)
H20A H 0.6833 0.6632 0.3374
C21A C 0.7419(7) 0.5419(5) 0.4054(6)
C22A C 0.8292(8) 0.6127(5) 0.4798(6)
H21A H 0.8445 0.6924 0.4843
C23A C 0.8917(8) 0.5674(5) 0.5453(6)
C24A C 1.0028(8) 0.7476(5) 0.6319(5)
H22A H 1.0283 0.7702 0.5821
H23A H 0.9274 0.7765 0.6339
C25A C 1.1049(7) 0.7956(7) 0.7144(6)
H24A H 1.1337 0.8776 0.7181
H25A H 1.1761 0.7589 0.7151
C26A C 1.1602(6) 0.8244(7) 0.8675(6)
H26A H 1.2343 0.7923 0.8675
H27A H 1.1844 0.9076 0.8747
C27A C 1.1121(8) 0.7948(8) 0.9388(6)
H28A H 1.1739 0.8304 0.9960
H29A H 1.0944 0.7119 0.9345
C28A C 0.9427(9) 0.8100(12) 0.9931(5)
H30A H 0.9208 0.7271 0.9882
H31A H 0.9995 0.8441 1.0523
C29A C 0.8307(10) 0.8561(10) 0.9771(6)
H32A H 0.8525 0.9393 0.9842
H33A H 0.7844 0.8372 1.0185
C30A C 0.6480(8) 0.8453(9) 0.8782(10)
H34A H 0.6228 0.8446 0.9318
H35A H 0.6656 0.9249 0.8712
C31A C 0.4575(14) 0.2189(8) 0.1966(12)
H36A H 0.4375 0.2130 0.2516
H37A H 0.5326 0.1879 0.1980
C32_2 C 0.0276(8) 0.9009(7) 0.2709(7)
C33A C 0.2250(6) 1.0359(5) 0.5562(4)
F1_2 F 0.0275(10) 0.7978(6) 0.2724(11)
F2_2 F -0.0740(5) 0.9068(8) 0.2066(5)
F3_2 F 0.0123(5) 0.9507(7) 0.3408(4)
F4A F 0.2248(4) 1.1086(3) 0.6250(3)
F5A F 0.1211(3) 0.9578(3) 0.5327(3)
F6A F 0.2229(3) 1.0920(3) 0.4918(3)
C34 C 0.5466(8) 0.8710(7) 0.1691(4)
H38 H 0.5897 0.9220 0.2270
Cl1 Cl 0.6314(3) 0.7679(2) 0.1576(2)
Cl2 Cl 0.5509(4) 0.9523(2) 0.08906(19)
Cl3 Cl 0.4006(3) 0.8230(4) 0.1660(2)
loop_
_geom_bond_atom_site_label_1
_geom_bond_atom_site_label_2
_geom_bond_site_symmetry_1
_geom_bond_site_symmetry_2
Li1 O1 1_555 1_555
Li2 O2 1_555 1_555
S1 O8 1_555 1_555
S2 O11 1_555 1_555
N1 C1 1_555 1_555
O1 C5 1_555 1_555
O2 C1 1_555 1_555
O3 C23 1_555 1_555
O4 Li1 1_555 1_555
O5 Li1 1_555 1_555
O6 Li1 1_555 1_555
O7 C18 1_555 1_555
O8 Li1 1_555 1_555
O9 S1 1_555 1_555
O10 S1 1_555 1_555
O12 Li2 1_555 1_555
O13 S2 1_555 1_555
C1 C2 1_555 1_555
C2 C3 1_555 1_555
C3 C4 1_555 1_555
C4 C5 1_555 1_555
C5 N1 1_555 1_555
C6 C4 1_555 1_555
H1 C6 1_555 1_555
C7 C2 1_555 1_555
H2 C7 1_555 1_555
C8 N1 1_555 1_555
H3 C8 1_555 1_555
H4 C8 1_555 1_555
C9 C8 1_555 1_555
H5 C9 1_555 1_555
H6 C9 1_555 1_555
C10 C9 1_555 1_555
H7 C10 1_555 1_555
H8 C10 1_555 1_555
C11 C10 1_555 1_555
H9 C11 1_555 1_555
H10 C11 1_555 1_555
C12 C11 1_555 1_555
H11 C12 1_555 1_555
H12 C12 1_555 1_555
C13 C12 1_555 1_555
H13 C13 1_555 1_555
H14 C13 1_555 1_555
H15 C13 1_555 1_555
C14 H16 1_555 1_555
C15 C14 1_555 1_555
H17 C15 1_555 1_555
C16 C15 1_555 1_555
C17 C16 1_555 1_555
H18 C17 1_555 1_555
C18 C17 1_555 1_555
C19 C18 1_555 1_555
H19 C19 1_555 1_555
C20 C19 1_555 1_555
H20 C20 1_555 1_555
C21 C16 1_555 1_555
C22 C21 1_555 1_555
H21 C22 1_555 1_555
C23 C14 1_555 1_555
C24 O3 1_555 1_555
H22 C24 1_555 1_555
H23 C24 1_555 1_555
C25 O4 1_555 1_555
H24 C25 1_555 1_555
H25 C25 1_555 1_555
C26 O4 1_555 1_555
H26 C26 1_555 1_555
H27 C26 1_555 1_555
C27 O5 1_555 1_555
H28 C27 1_555 1_555
H29 C27 1_555 1_555
C28 O5 1_555 1_555
H30 C28 1_555 1_555
H31 C28 1_555 1_555
C29 O6 1_555 1_555
H32 C29 1_555 1_555
H33 C29 1_555 1_555
C30 O6 1_555 1_555
H34 C30 1_555 1_555
H35 C30 1_555 1_555
C31 O7 1_555 1_555
H36 C31 1_555 1_555
H37 C31 1_555 1_555
C32 S1 1_555 1_555
C33 S2 1_555 1_555
C34 H38 1_555 1_555
F1 C32 1_555 1_555
F2 C32 1_555 1_555
F3 C32 1_555 1_555
F4 C33 1_555 1_555
F5 C33 1_555 1_555
F6 C33 1_555 1_555
Cl1 C34 1_555 1_555
Cl2 C34 1_555 1_555
Cl3 C34 1_555 1_555
Li1A O1A 1_555 1_555
Li1_2 O8_2 1_555 1_555
Li2A O2A 1_555 1_555
Li2_2 O9 1_555 1_555
Li2A_2 O13 1_555 1_555
S1_2 O8_2 1_555 1_555
S2A O11A 1_555 1_555
N1A C1A 1_555 1_555
O1A C5A 1_555 1_555
O2A C1A 1_555 1_555
O3A C23A 1_555 1_555
O4A Li1A 1_555 1_555
O5A Li1A 1_555 1_555
O6A Li1A 1_555 1_555
O7A C18A 1_555 1_555
O8A Li1A 1_555 1_555
O9_2 Li2 1_555 1_555
O9A Li2A 1_555 1_555
O10_2 S1_2 1_555 1_555
O12A Li2A_2 1_555 1_555
O12A_2 Li2A 1_555 1_555
O13A Li2 1_555 1_555
O13_2 Li2A 1_555 1_555
C1A C2A 1_555 1_555
C2A C3A 1_555 1_555
C3A C3 1_555 1_555
C4A C3A 1_555 1_555
C5A N1A 1_555 1_555
C6A C7 1_555 1_555
H1A C6A 1_555 1_555
C7A C6 1_555 1_555
H2A C7A 1_555 1_555
C8A N1A 1_555 1_555
H3A C8A 1_555 1_555
H4A C8A 1_555 1_555
C9A C8A 1_555 1_555
H5A C9A 1_555 1_555
H6A C9A 1_555 1_555
C10A C9A 1_555 1_555
H7A C10A 1_555 1_555
H8A C10A 1_555 1_555
C11A C10A 1_555 1_555
H9A C11A 1_555 1_555
H10A C11A 1_555 1_555
C12A C11A 1_555 1_555
H11A C12A 1_555 1_555
H12A C12A 1_555 1_555
C13A C12A 1_555 1_555
H13A C13A 1_555 1_555
H14A C13A 1_555 1_555
H15A C13A 1_555 1_555
C14A H16A 1_555 1_555
C15A C14A 1_555 1_555
H17A C15A 1_555 1_555
C16A C15A 1_555 1_555
C17A C16A 1_555 1_555
H18A C17A 1_555 1_555
C18A C17A 1_555 1_555
C19A C18A 1_555 1_555
H19A C19A 1_555 1_555
C20A C19A 1_555 1_555
H20A C20A 1_555 1_555
C21A C16A 1_555 1_555
C22A C21A 1_555 1_555
H21A C22A 1_555 1_555
C23A C14A 1_555 1_555
C24A O3A 1_555 1_555
H22A C24A 1_555 1_555
H23A C24A 1_555 1_555
C25A O4A 1_555 1_555
H24A C25A 1_555 1_555
H25A C25A 1_555 1_555
C26A O4A 1_555 1_555
H26A C26A 1_555 1_555
H27A C26A 1_555 1_555
C27A O5A 1_555 1_555
H28A C27A 1_555 1_555
H29A C27A 1_555 1_555
C28A O5A 1_555 1_555
H30A C28A 1_555 1_555
H31A C28A 1_555 1_555
C29A O6A 1_555 1_555
H32A C29A 1_555 1_555
H33A C29A 1_555 1_555
C30A C31 1_555 1_555
H34A C30A 1_555 1_555
H35A C30A 1_555 1_555
C31A C30 1_555 1_555
H36A C31A 1_555 1_555
H37A C31A 1_555 1_555
C32_2 S1_2 1_555 1_555
C33A S2A 1_555 1_555
F1_2 C32_2 1_555 1_555
F2_2 C32_2 1_555 1_555
F3_2 C32_2 1_555 1_555
F4A C33A 1_555 1_555
F5A C33A 1_555 1_555
F6A C33A 1_555 1_555
S2 O12 1_555 1_555
C20 C21 1_555 1_555
C22 C23 1_555 1_555
C24 C25 1_555 1_555
C26 C27 1_555 1_555
C28 C29 1_555 1_555
S1_2 O9_2 1_555 1_555
S2A O12A 1_555 1_555
S2A O13A 1_555 1_555
O6A C30A 1_555 1_555
O7A C31A 1_555 1_555
C2A C7A 1_555 1_555
C4A C5A 1_555 1_555
C4A C6A 1_555 1_555
C20A C21A 1_555 1_555
C22A C23A 1_555 1_555
C24A C25A 1_555 1_555
C26A C27A 1_555 1_555
C28A C29A 1_555 1_555

#END
