
#######################################################################
#
#                 Cambridge Crystallographic Data Centre
#                                CCDC 
#
#######################################################################
#
# If this CIF has been generated from an entry in the Cambridge 
# Structural Database, then it will include bibliographic, chemical, 
# crystal, experimental, refinement or atomic coordinate data resulting 
# from the CCDC's data processing and validation procedures.
#
#######################################################################

data_WILNEL02
_symmetry_cell_setting           rhombohedral
_symmetry_space_group_name_H-M   'R 3'
_symmetry_Int_Tables_number      146
_space_group_name_Hall           'R 3'
loop_
_symmetry_equiv_pos_site_id
_symmetry_equiv_pos_as_xyz
1 x,y,z
2 -y,x-y,z
3 -x+y,-x,z
4 2/3+x,1/3+y,1/3+z
5 2/3-y,1/3+x-y,1/3+z
6 2/3-x+y,1/3-x,1/3+z
7 1/3+x,2/3+y,2/3+z
8 1/3-y,2/3+x-y,2/3+z
9 1/3-x+y,2/3-x,2/3+z
_cell_length_a                   17.6018(8)
_cell_length_b                   17.6018(8)
_cell_length_c                   21.0633(14)
_cell_angle_alpha                90
_cell_angle_beta                 90
_cell_angle_gamma                120.00
_cell_volume                     5651.6
loop_
_atom_site_label
_atom_site_type_symbol
_atom_site_fract_x
_atom_site_fract_y
_atom_site_fract_z
Fe1 Fe 0.0000 0.0000 0.27688(7)
Fe2 Fe 0.3334 0.6666 0.44315(6)
N1 N 0.1979(4) 0.4326(3) 0.5603(3)
N2 N 0.2603(3) 0.4236(3) 0.5284(3)
N3 N 0.3117(3) 0.4914(3) 0.4936(2)
N4 N 0.2865(3) 0.5499(3) 0.5031(2)
C1 C 0.2188(4) 0.5131(4) 0.5448(3)
H1 H 0.1904 0.5416 0.5607
N5 N 0.0467(4) 0.2287(4) 0.3874(3)
N6 N 0.1221(3) 0.2281(3) 0.3871(3)
N7 N 0.1178(3) 0.1614(3) 0.3565(3)
N8 N 0.0367(3) 0.1153(3) 0.3360(3)
C2 C -0.0047(5) 0.1574(4) 0.3566(4)
H2 H -0.0639 0.1375 0.3494
N9 N 0.4367(4) 0.2325(4) -0.0091(3)
N10 N 0.4246(3) 0.1646(4) 0.0259(2)
N11 N 0.4896(3) 0.1813(3) 0.0630(3)
N12 N 0.5497(3) 0.2634(3) 0.0511(2)
C3 C 0.5160(4) 0.2930(5) 0.0078(3)
H3 H 0.5450 0.3497 -0.0085
N13 N 0.2205(5) 0.1862(5) 0.1626(4)
N14 N 0.2303(4) 0.1183(4) 0.1669(3)
N15 N 0.1687(4) 0.0519(4) 0.1996(3)
N16 N 0.1159(3) 0.0791(3) 0.2185(2)
C4 C 0.1492(6) 0.1618(5) 0.1967(5)
H4 H 0.1248 0.1972 0.2048
C5 C 0.2654(5) 0.3432(3) 0.5303(3)
H5 H 0.2632 0.3247 0.5740
H6 H 0.3204 0.3539 0.5119
C6 C 0.1881(4) 0.2710(4) 0.4928(4)
H7 H 0.1336 0.2663 0.5074
H8 H 0.1849 0.2151 0.5000
C7 C 0.2001(5) 0.2929(5) 0.4211(4)
H9 H 0.2087 0.3511 0.4142
H10 H 0.2514 0.2919 0.4055
C11 C 0.3426(5) 0.0795(5) 0.0267(4)
H17 H 0.3525 0.0356 0.0467
H18 H 0.3225 0.0608 -0.0164
C12 C 0.2744(6) 0.0891(7) 0.0631(4)
H19 H 0.2668 0.1347 0.0434
H20 H 0.2189 0.0346 0.0602
C13 C 0.2966(5) 0.1113(6) 0.1315(4)
H21 H 0.3057 0.0665 0.1509
H22 H 0.3513 0.1666 0.1344
Fe2F Fe 0.6667 0.3333 0.10982(6)
Fe2_2 Fe -0.6666 -0.3334 0.44315(6)
Fe2_3 Fe 0.3334 -0.3334 0.44315(6)
Fe2F_2 Fe -0.3333 0.3333 0.10982(6)
Fe2F_3 Fe -0.3333 -0.6667 0.10982(6)
N1A N -0.4326(3) -0.2347(5) 0.5603(3)
N1B N 0.2347(5) -0.1979(4) 0.5603(3)
N2A N -0.4236(3) -0.1633(4) 0.5284(3)
N2B N 0.1633(4) -0.2603(3) 0.5284(3)
N3A N -0.4914(3) -0.1797(4) 0.4936(2)
N3B N 0.1797(4) -0.3117(3) 0.4936(2)
N4A N -0.5499(3) -0.2634(4) 0.5031(2)
N4B N 0.2634(4) -0.2865(3) 0.5031(2)
N4A_2 N 0.4501(3) 0.7366(4) 0.5031(2)
N4B_2 N 0.2634(4) 0.7135(3) 0.5031(2)
C1A C -0.5131(4) -0.2943(6) 0.5448(3)
C1B C 0.2943(6) -0.2188(4) 0.5448(3)
H1A H -0.5416 -0.3512 0.5607
H1B H 0.3512 -0.1904 0.5607
N5A N -0.2287(4) -0.1820(6) 0.3874(3)
N5B N 0.1820(6) -0.0467(4) 0.3874(3)
N6A N -0.2281(3) -0.1060(4) 0.3871(3)
N6B N 0.1060(4) -0.1221(3) 0.3871(3)
N7A N -0.1614(3) -0.0436(4) 0.3565(3)
N7B N 0.0436(4) -0.1178(3) 0.3565(3)
N8A N -0.1153(3) -0.0786(4) 0.3360(3)
N8B N 0.0786(4) -0.0367(3) 0.3360(3)
C2A C -0.1574(4) -0.1621(6) 0.3566(4)
C2B C 0.1621(6) 0.0047(5) 0.3566(4)
H2A H -0.1375 -0.2014 0.3494
H2B H 0.2014 0.0639 0.3494
N9A N -0.2325(4) 0.2042(6) -0.0091(3)
N9B N -0.2042(6) -0.4367(4) -0.0091(3)
N10A N -0.1646(4) 0.2600(5) 0.0259(2)
N10B N -0.2600(5) -0.4246(3) 0.0259(2)
N11A N -0.1813(3) 0.3083(4) 0.0630(3)
N11B N -0.3083(4) -0.4896(3) 0.0630(3)
N12A N -0.2634(3) 0.2863(4) 0.0511(2)
N12B N -0.2863(4) -0.5497(3) 0.0511(2)
N12C N 0.2164(3) 0.5967(3) 0.3844(2)
N12D N 0.4033(3) 0.6196(4) 0.3844(2)
N12E N 0.3804(4) 0.7836(3) 0.3844(2)
C3A C -0.2930(5) 0.2230(6) 0.0078(3)
C3B C -0.2230(6) -0.5160(4) 0.0078(3)
H3A H -0.3497 0.1953 -0.0085
H3B H -0.1953 -0.5450 -0.0085
N13A N -0.1862(5) 0.0343(7) 0.1626(4)
N13B N -0.0343(7) -0.2205(5) 0.1626(4)
N14A N -0.1183(4) 0.1120(6) 0.1669(3)
N14B N -0.1120(6) -0.2303(4) 0.1669(3)
N15A N -0.0519(4) 0.1168(6) 0.1996(3)
N15B N -0.1168(6) -0.1687(4) 0.1996(3)
N16A N -0.0791(3) 0.0368(4) 0.2185(2)
N16B N -0.0368(4) -0.1159(3) 0.2185(2)
C4A C -0.1618(5) -0.0126(8) 0.1967(5)
C4B C 0.0126(8) -0.1492(6) 0.1967(5)
H4A H -0.1972 -0.0724 0.2048
H4B H 0.0724 -0.1248 0.2048
C5A C -0.3432(3) -0.0778(6) 0.5303(3)
C5B C 0.0778(6) -0.2654(5) 0.5303(3)
H5A H -0.3247 -0.0615 0.5740
H5B H 0.0615 -0.2632 0.5740
H6A H -0.3539 -0.0335 0.5119
H6B H 0.0335 -0.3204 0.5119
C6A C -0.2710(4) -0.0829(6) 0.4928(4)
C6B C 0.0829(6) -0.1881(4) 0.4928(4)
H7A H -0.2663 -0.1327 0.5074
H7B H 0.1327 -0.1336 0.5074
H8A H -0.2151 -0.0302 0.5000
H8B H 0.0302 -0.1849 0.5000
C7A C -0.2929(5) -0.0928(7) 0.4211(4)
C7B C 0.0928(7) -0.2001(5) 0.4211(4)
H9A H -0.3511 -0.1424 0.4142
H9B H 0.1424 -0.2087 0.4142
H10A H -0.2919 -0.0405 0.4055
H10B H 0.0405 -0.2514 0.4055
C11A C -0.0795(5) 0.2631(7) 0.0267(4)
C11B C -0.2631(7) -0.3426(5) 0.0267(4)
H17A H -0.0356 0.3169 0.0467
H17B H -0.3169 -0.3525 0.0467
H18A H -0.0608 0.2617 -0.0164
H18B H -0.2617 -0.3225 -0.0164
C12A C -0.0891(7) 0.1853(9) 0.0631(4)
C12B C -0.1853(9) -0.2744(6) 0.0631(4)
H19A H -0.1347 0.1321 0.0434
H19B H -0.1321 -0.2668 0.0434
H20A H -0.0346 0.1843 0.0602
H20B H -0.1843 -0.2189 0.0602
C13A C -0.1113(6) 0.1853(8) 0.1315(4)
C13B C -0.1853(8) -0.2966(5) 0.1315(4)
H21A H -0.0665 0.2392 0.1509
H21B H -0.2392 -0.3057 0.1509
H22A H -0.1666 0.1847 0.1344
H22B H -0.1847 -0.3513 0.1344
Cl1 Cl 0.44295(17) 0.49305(17) -0.34576(12)
O1 O 0.4730(8) 0.5140(9) -0.2827(4)
O2 O 0.3810(6) 0.5159(7) -0.3635(6)
O3 O 0.4221(11) 0.4088(7) -0.3618(9)
O4 O 0.5237(6) 0.5545(8) -0.3803(7)
Cl2 Cl 0.6667 0.3333 -0.15575(16)
O5 O 0.6667 0.3333 -0.0919(8)
O6 O 0.6556(14) 0.3983(10) -0.1810(8)
O6A O 0.6017(10) 0.2573(17) -0.1810(8)
O6B O 0.7427(17) 0.3444(14) -0.1810(8)
C21 C 0.620(4) 0.550(3) -0.108(4)
O9 O 0.552(4) 0.536(4) -0.150(3)
C22 C 0.5976(9) 0.4715(9) -0.0721(7)
C8? C 0.5987(5) 0.0099(3) 0.1970(3)
H11? H 0.5451 -0.0375 0.2149
H12? H 0.6473 0.0187 0.2238
C9? C 0.612(2) -0.014(5) 0.1303(12)
H13? H 0.6627 0.0359 0.1116
H14? H 0.6239 -0.0620 0.1326
C10? C 0.5334(5) -0.0404(5) 0.0878(4)
H15? H 0.5071 -0.0115 0.1107
H16? H 0.5634 -0.0012 0.0526
C14? C 0.3426(5) 0.0795(5) 0.0267(4)
H23? H 0.3518 0.0364 0.0047
H24? H 0.2976 0.0850 0.0041
C15? C 0.311(2) 0.0474(15) 0.0937(8)
H25? H 0.2563 -0.0081 0.0916
H26? H 0.3538 0.0374 0.1152
C16? C 0.2966(5) 0.1113(6) 0.1315(4)
H27? H 0.3437 0.1316 0.1623
H28? H 0.3156 0.1595 0.1017
O7? O 0.071(3) 0.097(3) 0.080(2)
H29? H 0.0901 0.0987 0.1160
C17? C 0.030(2) 0.011(3) 0.058(2)
H30? H -0.0083 -0.0287 0.0903
H31? H 0.0739 -0.0056 0.0480
C18? C -0.021(6) 0.001(7) 0.001(3)
H32? H -0.0306 -0.0507 -0.0214
H33? H 0.0107 0.0514 -0.0252
H34? H -0.0761 -0.0051 0.0132
C19? C 0.5451(13) 0.5004(14) -0.0983(11)
C20? C 0.595(3) 0.572(3) -0.142(2)
O8? O 0.5976(9) 0.4715(9) -0.0721(7)
loop_
_geom_bond_atom_site_label_1
_geom_bond_atom_site_label_2
_geom_bond_site_symmetry_1
_geom_bond_site_symmetry_2
Fe1 N8 1_555 1_555
Fe2 N4 1_555 1_555
N1 N2 1_555 1_555
N2 N3 1_555 1_555
N3 N4 1_555 1_555
N4 C1 1_555 1_555
C1 N1 1_555 1_555
H1 C1 1_555 1_555
N5 N6 1_555 1_555
N6 N7 1_555 1_555
N7 N8 1_555 1_555
N8 C2 1_555 1_555
C2 N5 1_555 1_555
H2 C2 1_555 1_555
N9 N10 1_555 1_555
N10 N11 1_555 1_555
N11 N12 1_555 1_555
N12 C3 1_555 1_555
C3 N9 1_555 1_555
H3 C3 1_555 1_555
N13 N14 1_555 1_555
N14 N15 1_555 1_555
N15 N16 1_555 1_555
N16 Fe1 1_555 1_555
C4 N13 1_555 1_555
H4 C4 1_555 1_555
C5 N2 1_555 1_555
H5 C5 1_555 1_555
H6 C5 1_555 1_555
C6 C5 1_555 1_555
H7 C6 1_555 1_555
H8 C6 1_555 1_555
C7 N6 1_555 1_555
H9 C7 1_555 1_555
H10 C7 1_555 1_555
C11 N10 1_555 1_555
H17 C11 1_555 1_555
H18 C11 1_555 1_555
C12 C11 1_555 1_555
H19 C12 1_555 1_555
H20 C12 1_555 1_555
C13 N14 1_555 1_555
H21 C13 1_555 1_555
H22 C13 1_555 1_555
Cl1 O1 1_555 1_555
O2 Cl1 1_555 1_555
O3 Cl1 1_555 1_555
O4 Cl1 1_555 1_555
Cl2 O5 1_555 1_555
O6 Cl2 1_555 1_555
C21 O9 1_555 1_555
C22 C21 1_555 1_555
Fe2F N12 1_555 1_555
Fe2_2 N4A 1_555 1_555
Fe2_3 N4B 1_555 1_555
Fe2F_2 N12A 1_555 1_555
Fe2F_3 N12B 1_555 1_555
N1A N2A 1_555 1_555
N1B N2B 1_555 1_555
N2A N3A 1_555 1_555
N2B N3B 1_555 1_555
N3A N4A 1_555 1_555
N3B N4B 1_555 1_555
N4A C1A 1_555 1_555
N4B C1B 1_555 1_555
N4A_2 Fe2 1_555 1_555
N4B_2 Fe2 1_555 1_555
C1A N1A 1_555 1_555
C1B N1B 1_555 1_555
H1A C1A 1_555 1_555
H1B C1B 1_555 1_555
N5A N6A 1_555 1_555
N5B N6B 1_555 1_555
N6A N7A 1_555 1_555
N6B N7B 1_555 1_555
N7A N8A 1_555 1_555
N7B N8B 1_555 1_555
N8A Fe1 1_555 1_555
N8B Fe1 1_555 1_555
C2A N5A 1_555 1_555
C2B N5B 1_555 1_555
H2A C2A 1_555 1_555
H2B C2B 1_555 1_555
N9A N10A 1_555 1_555
N9B N10B 1_555 1_555
N10A N11A 1_555 1_555
N10B N11B 1_555 1_555
N11A N12A 1_555 1_555
N11B N12B 1_555 1_555
N12A C3A 1_555 1_555
N12B C3B 1_555 1_555
N12C Fe2 1_555 1_555
N12D Fe2 1_555 1_555
N12E Fe2 1_555 1_555
C3A N9A 1_555 1_555
C3B N9B 1_555 1_555
H3A C3A 1_555 1_555
H3B C3B 1_555 1_555
N13A N14A 1_555 1_555
N13B N14B 1_555 1_555
N14A N15A 1_555 1_555
N14B N15B 1_555 1_555
N15A N16A 1_555 1_555
N15B N16B 1_555 1_555
N16A Fe1 1_555 1_555
N16B Fe1 1_555 1_555
C4A N13A 1_555 1_555
C4B N13B 1_555 1_555
H4A C4A 1_555 1_555
H4B C4B 1_555 1_555
C5A N2A 1_555 1_555
C5B N2B 1_555 1_555
H5A C5A 1_555 1_555
H5B C5B 1_555 1_555
H6A C5A 1_555 1_555
H6B C5B 1_555 1_555
C6A C5A 1_555 1_555
C6B C5B 1_555 1_555
H7A C6A 1_555 1_555
H7B C6B 1_555 1_555
H8A C6A 1_555 1_555
H8B C6B 1_555 1_555
C7A N6A 1_555 1_555
C7B N6B 1_555 1_555
H9A C7A 1_555 1_555
H9B C7B 1_555 1_555
H10A C7A 1_555 1_555
H10B C7B 1_555 1_555
C11A N10A 1_555 1_555
C11B N10B 1_555 1_555
H17A C11A 1_555 1_555
H17B C11B 1_555 1_555
H18A C11A 1_555 1_555
H18B C11B 1_555 1_555
C12A C11A 1_555 1_555
C12B C11B 1_555 1_555
H19A C12A 1_555 1_555
H19B C12B 1_555 1_555
H20A C12A 1_555 1_555
H20B C12B 1_555 1_555
C13A N14A 1_555 1_555
C13B N14B 1_555 1_555
H21A C13A 1_555 1_555
H21B C13B 1_555 1_555
H22A C13A 1_555 1_555
H22B C13B 1_555 1_555
O6A Cl2 1_555 1_555
O6B Cl2 1_555 1_555
N16 C4 1_555 1_555
C6 C7 1_555 1_555
C12 C13 1_555 1_555
N8A C2A 1_555 1_555
N8B C2B 1_555 1_555
N16A C4A 1_555 1_555
N16B C4B 1_555 1_555
C6A C7A 1_555 1_555
C6B C7B 1_555 1_555
C12A C13A 1_555 1_555
C12B C13B 1_555 1_555

#END
