
#######################################################################
#
#                 Cambridge Crystallographic Data Centre
#                                CCDC 
#
#######################################################################
#
# If this CIF has been generated from an entry in the Cambridge 
# Structural Database, then it will include bibliographic, chemical, 
# crystal, experimental, refinement or atomic coordinate data resulting 
# from the CCDC's data processing and validation procedures.
#
#######################################################################

data_WILNEL01
_symmetry_cell_setting           rhombohedral
_symmetry_space_group_name_H-M   'R 3'
_symmetry_Int_Tables_number      146
_space_group_name_Hall           'R 3'
loop_
_symmetry_equiv_pos_site_id
_symmetry_equiv_pos_as_xyz
1 x,y,z
2 -y,x-y,z
3 -x+y,-x,z
4 2/3+x,1/3+y,1/3+z
5 2/3-y,1/3+x-y,1/3+z
6 2/3-x+y,1/3-x,1/3+z
7 1/3+x,2/3+y,2/3+z
8 1/3-y,2/3+x-y,2/3+z
9 1/3-x+y,2/3-x,2/3+z
_cell_length_a                   17.2576(8)
_cell_length_b                   17.2576(8)
_cell_length_c                   20.8493(13)
_cell_angle_alpha                90
_cell_angle_beta                 90
_cell_angle_gamma                120.00
_cell_volume                     5377.53
loop_
_atom_site_label
_atom_site_type_symbol
_atom_site_fract_x
_atom_site_fract_y
_atom_site_fract_z
Fe1 Fe 1.0000 0.0000 0.31756(6)
Fe2 Fe 0.6666 0.3334 0.14955(5)
N1 N 0.8020(3) 0.2407(3) 0.0329(2)
N2 N 0.7424(3) 0.1692(3) 0.0658(2)
N3 N 0.6889(2) 0.1827(2) 0.10262(19)
N4 N 0.7137(2) 0.2684(2) 0.09369(17)
C1 C 0.7808(3) 0.3018(3) 0.0508(2)
H1 H 0.8094 0.3615 0.0351
N5 N 0.9556(3) 0.1835(3) 0.2125(2)
N6 N 0.8803(3) 0.1047(3) 0.2085(2)
N7 N 0.8838(2) 0.0383(3) 0.2373(2)
N8 N 0.9653(2) 0.0749(2) 0.26181(19)
C2 C 1.0075(3) 0.1625(3) 0.2462(3)
H2 H 1.0674 0.2042 0.2581
N9 N 0.5575(3) -0.2038(3) 0.6006(2)
N10 N 0.5717(3) -0.2600(3) 0.5657(2)
N11 N 0.5052(2) -0.3113(3) 0.5271(2)
N12 N 0.4437(2) -0.2878(2) 0.53772(19)
C3 C 0.4769(3) -0.2229(3) 0.5823(2)
H3 H 0.4460 -0.1944 0.5986
N13 N 0.7839(3) -0.0240(3) 0.4248(3)
N14 N 0.7743(3) -0.1046(3) 0.4256(2)
N15 N 0.8362(3) -0.1129(3) 0.3944(2)
N16 N 0.8906(2) -0.0323(2) 0.3724(2)
C4 C 0.8582(4) 0.0211(4) 0.3909(4)
H4 H 0.8853 0.0829 0.3810
C5 C 0.7375(3) 0.0818(3) 0.0621(3)
H5 H 0.7412 0.0669 0.0167
H6 H 0.6798 0.0348 0.0799
C6 C 0.8154(3) 0.0859(3) 0.1005(3)
H7 H 0.8197 0.0319 0.0913
H8 H 0.8722 0.1389 0.0869
C7 C 0.8028(3) 0.0914(4) 0.1720(3)
H9 H 0.7919 0.1416 0.1805
H10 H 0.7494 0.0355 0.1863
C8 C 0.6569(3) -0.2603(3) 0.5662(3)
H11 H 0.6479 -0.3164 0.5465
H12 H 0.6765 -0.2585 0.6111
C9 C 0.7290(3) -0.1813(4) 0.5300(3)
H13 H 0.7850 -0.1839 0.5310
H14 H 0.7407 -0.1253 0.5514
C10 C 0.7023(3) -0.1799(4) 0.4605(3)
H15 H 0.6887 -0.2367 0.4393
H16 H 0.6476 -0.1749 0.4593
Fe2C Fe 0.3333 -0.3333 0.48288(5)
Fe2_2 Fe 0.6666 -0.6666 0.14955(5)
Fe2_3 Fe 1.6666 0.3334 0.14955(5)
Fe2C_2 Fe 1.3333 -0.3333 0.48288(5)
Fe2C_3 Fe 1.3333 0.6667 0.48288(5)
N1A N 0.7593(3) -0.4387(4) 0.0329(2)
N1B N 1.4387(4) 0.1980(3) 0.0329(2)
N2A N 0.8308(3) -0.4268(4) 0.0658(2)
N2B N 1.4268(4) 0.2576(3) 0.0658(2)
N3A N 0.8173(2) -0.4938(3) 0.10262(19)
N3B N 1.4938(3) 0.3111(2) 0.10262(19)
N4A N 0.7316(2) -0.5547(3) 0.09369(17)
N4B N 1.5547(3) 0.2863(2) 0.09369(17)
N4A_2 N 0.7316(2) 0.4453(3) 0.09369(17)
N4B_2 N 0.5547(3) 0.2863(2) 0.09369(17)
C1A C 0.6982(3) -0.5210(4) 0.0508(2)
C1B C 1.5210(4) 0.2192(3) 0.0508(2)
H1A H 0.6385 -0.5521 0.0351
H1B H 1.5521 0.1906 0.0351
N5A N 0.8165(3) -0.2279(4) 0.2125(2)
N5B N 1.2279(4) 0.0444(3) 0.2125(2)
N6A N 0.8953(3) -0.2244(4) 0.2085(2)
N6B N 1.2244(4) 0.1197(3) 0.2085(2)
N7A N 0.9617(3) -0.1545(4) 0.2373(2)
N7B N 1.1545(4) 0.1162(2) 0.2373(2)
N8A N 0.9251(2) -0.1096(3) 0.26181(19)
N8B N 1.1096(3) 0.0347(2) 0.26181(19)
C2A C 0.8375(3) -0.1550(4) 0.2462(3)
C2B C 1.1550(4) -0.0075(3) 0.2462(3)
H2A H 0.7958 -0.1368 0.2581
H2B H 1.1368 -0.0674 0.2581
N9A N 1.2038(3) -0.2387(4) 0.6006(2)
N9B N 1.2387(4) 0.4425(3) 0.6006(2)
N10A N 1.2600(3) -0.1683(4) 0.5657(2)
N10B N 1.1683(4) 0.4283(3) 0.5657(2)
N11A N 1.3113(3) -0.1835(4) 0.5271(2)
N11B N 1.1835(4) 0.4948(2) 0.5271(2)
N12A N 1.2878(2) -0.2685(3) 0.53772(19)
N12B N 1.2685(3) 0.5563(2) 0.53772(19)
N12F N 0.7770(2) 0.3789(2) 0.20439(19)
N12G N 0.6211(2) 0.3982(3) 0.20439(19)
N12H N 0.6018(3) 0.2230(2) 0.20439(19)
C3A C 1.2229(3) -0.3002(4) 0.5823(2)
C3B C 1.3002(4) 0.5231(3) 0.5823(2)
H3A H 1.1944 -0.3596 0.5986
H3B H 1.3596 0.5540 0.5986
N13A N 1.0240(3) -0.1921(4) 0.4248(3)
N13B N 1.1921(4) 0.2161(3) 0.4248(3)
N14A N 1.1046(3) -0.1211(4) 0.4256(2)
N14B N 1.1211(4) 0.2257(3) 0.4256(2)
N15A N 1.1129(3) -0.0509(4) 0.3944(2)
N15B N 1.0509(4) 0.1638(3) 0.3944(2)
N16A N 1.0323(2) -0.0771(3) 0.3724(2)
N16B N 1.0771(3) 0.1094(2) 0.3724(2)
C4A C 0.9789(4) -0.1629(6) 0.3909(4)
C4B C 1.1629(6) 0.1418(4) 0.3909(4)
H4A H 0.9171 -0.1976 0.3810
H4B H 1.1976 0.1147 0.3810
C5A C 0.9182(3) -0.3443(4) 0.0621(3)
C5B C 1.3443(4) 0.2625(3) 0.0621(3)
H5A H 0.9331 -0.3257 0.0167
H5B H 1.3257 0.2588 0.0167
H6A H 0.9652 -0.3550 0.0799
H6B H 1.3550 0.3202 0.0799
C6A C 0.9141(3) -0.2705(4) 0.1005(3)
C6B C 1.2705(4) 0.1846(3) 0.1005(3)
H7A H 0.9681 -0.2122 0.0913
H7B H 1.2122 0.1803 0.0913
H8A H 0.8611 -0.2667 0.0869
H8B H 1.2667 0.1278 0.0869
C7A C 0.9086(4) -0.2886(5) 0.1720(3)
C7B C 1.2886(5) 0.1972(3) 0.1720(3)
H9A H 0.8584 -0.3497 0.1805
H9B H 1.3497 0.2081 0.1805
H10A H 0.9645 -0.2861 0.1863
H10B H 1.2861 0.2506 0.1863
C8A C 1.2603(3) -0.0828(4) 0.5662(3)
C8B C 1.0828(4) 0.3431(3) 0.5662(3)
H11A H 1.3164 -0.0357 0.5465
H11B H 1.0357 0.3521 0.5465
H12A H 1.2585 -0.0650 0.6111
H12B H 1.0650 0.3235 0.6111
C9A C 1.1813(4) -0.0897(5) 0.5300(3)
C9B C 1.0897(5) 0.2710(3) 0.5300(3)
H13A H 1.1839 -0.0311 0.5310
H13B H 1.0311 0.2150 0.5310
H14A H 1.1253 -0.1340 0.5514
H14B H 1.1340 0.2593 0.5514
C10A C 1.1799(4) -0.1178(5) 0.4605(3)
C10B C 1.1178(5) 0.2977(3) 0.4605(3)
H15A H 1.2367 -0.0746 0.4393
H15B H 1.0746 0.3113 0.4393
H16A H 1.1749 -0.1775 0.4593
H16B H 1.1775 0.3524 0.4593
O1 O 0.3966(3) -0.1278(3) 0.6669(3)
C11 C 0.4530(7) -0.0456(6) 0.6950(5)
C12 C 0.3998(7) -0.0205(7) 0.7368(6)
Cl1 Cl 0.3333 -0.3333 0.75521(9)
O3 O 0.3333 -0.3333 0.6860(3)
O4 O 0.3488(3) -0.2482(3) 0.7783(2)
O4A O 0.2482(3) -0.4030(4) 0.7783(2)
O4B O 0.4030(4) -0.3488(3) 0.7783(2)
Cl2 Cl 0.55510(11) 0.05044(9) 0.94033(8)
O5 O 0.4751(4) 0.0311(4) 0.9783(3)
O6 O 0.5721(7) -0.0167(6) 0.9543(6)
O7 O 0.6224(3) 0.1359(3) 0.9589(3)
O8 O 0.5238(4) 0.0434(4) 0.8763(3)
C13? C 0.3966(3) -0.1278(3) 0.6669(3)
O2? O 0.4499(17) -0.0237(17) 0.7584(11)
C14? C 0.4045(14) -0.0484(12) 0.6999(9)
O9? O 0.9321(10) 0.0359(10) 0.5109(8)
H17? H 0.8805 0.0127 0.4950
C15? C 0.9467(14) -0.0323(13) 0.5358(13)
H18? H 0.9418 -0.0746 0.5017
H19? H 0.9038 -0.0660 0.5705
C16? C 1.0397(13) 0.0196(19) 0.5607(13)
H20? H 1.0573 -0.0215 0.5793
H21? H 1.0427 0.0615 0.5937
H22? H 1.0804 0.0531 0.5255
loop_
_geom_bond_atom_site_label_1
_geom_bond_atom_site_label_2
_geom_bond_site_symmetry_1
_geom_bond_site_symmetry_2
Fe1 N8 1_555 1_555
Fe2 N4 1_555 1_555
N1 N2 1_555 1_555
N2 N3 1_555 1_555
N3 N4 1_555 1_555
N4 C1 1_555 1_555
C1 N1 1_555 1_555
H1 C1 1_555 1_555
N5 N6 1_555 1_555
N6 N7 1_555 1_555
N7 N8 1_555 1_555
N8 C2 1_555 1_555
C2 N5 1_555 1_555
H2 C2 1_555 1_555
N9 N10 1_555 1_555
N10 N11 1_555 1_555
N11 N12 1_555 1_555
N12 C3 1_555 1_555
C3 N9 1_555 1_555
H3 C3 1_555 1_555
N13 N14 1_555 1_555
N14 N15 1_555 1_555
N15 N16 1_555 1_555
N16 Fe1 1_555 1_555
C4 N13 1_555 1_555
H4 C4 1_555 1_555
C5 N2 1_555 1_555
H5 C5 1_555 1_555
H6 C5 1_555 1_555
C6 C5 1_555 1_555
H7 C6 1_555 1_555
H8 C6 1_555 1_555
C7 N6 1_555 1_555
H9 C7 1_555 1_555
H10 C7 1_555 1_555
C8 N10 1_555 1_555
H11 C8 1_555 1_555
H12 C8 1_555 1_555
C9 C8 1_555 1_555
H13 C9 1_555 1_555
H14 C9 1_555 1_555
C10 N14 1_555 1_555
H15 C10 1_555 1_555
H16 C10 1_555 1_555
O1 C11 1_555 1_555
C11 C12 1_555 1_555
Cl1 O3 1_555 1_555
O4 Cl1 1_555 1_555
Cl2 O5 1_555 1_555
O6 Cl2 1_555 1_555
O7 Cl2 1_555 1_555
O8 Cl2 1_555 1_555
Fe2C N12 1_555 1_555
Fe2_2 N4A 1_555 1_555
Fe2_3 N4B 1_555 1_555
Fe2C_2 N12A 1_555 1_555
Fe2C_3 N12B 1_555 1_555
N1A N2A 1_555 1_555
N1B N2B 1_555 1_555
N2A N3A 1_555 1_555
N2B N3B 1_555 1_555
N3A N4A 1_555 1_555
N3B N4B 1_555 1_555
N4A C1A 1_555 1_555
N4B C1B 1_555 1_555
N4A_2 Fe2 1_555 1_555
N4B_2 Fe2 1_555 1_555
C1A N1A 1_555 1_555
C1B N1B 1_555 1_555
H1A C1A 1_555 1_555
H1B C1B 1_555 1_555
N5A N6A 1_555 1_555
N5B N6B 1_555 1_555
N6A N7A 1_555 1_555
N6B N7B 1_555 1_555
N7A N8A 1_555 1_555
N7B N8B 1_555 1_555
N8A Fe1 1_555 1_555
N8B Fe1 1_555 1_555
C2A N5A 1_555 1_555
C2B N5B 1_555 1_555
H2A C2A 1_555 1_555
H2B C2B 1_555 1_555
N9A N10A 1_555 1_555
N9B N10B 1_555 1_555
N10A N11A 1_555 1_555
N10B N11B 1_555 1_555
N11A N12A 1_555 1_555
N11B N12B 1_555 1_555
N12A C3A 1_555 1_555
N12B C3B 1_555 1_555
N12F Fe2 1_555 1_555
N12G Fe2 1_555 1_555
N12H Fe2 1_555 1_555
C3A N9A 1_555 1_555
C3B N9B 1_555 1_555
H3A C3A 1_555 1_555
H3B C3B 1_555 1_555
N13A N14A 1_555 1_555
N13B N14B 1_555 1_555
N14A N15A 1_555 1_555
N14B N15B 1_555 1_555
N15A N16A 1_555 1_555
N15B N16B 1_555 1_555
N16A Fe1 1_555 1_555
N16B Fe1 1_555 1_555
C4A N13A 1_555 1_555
C4B N13B 1_555 1_555
H4A C4A 1_555 1_555
H4B C4B 1_555 1_555
C5A N2A 1_555 1_555
C5B N2B 1_555 1_555
H5A C5A 1_555 1_555
H5B C5B 1_555 1_555
H6A C5A 1_555 1_555
H6B C5B 1_555 1_555
C6A C5A 1_555 1_555
C6B C5B 1_555 1_555
H7A C6A 1_555 1_555
H7B C6B 1_555 1_555
H8A C6A 1_555 1_555
H8B C6B 1_555 1_555
C7A N6A 1_555 1_555
C7B N6B 1_555 1_555
H9A C7A 1_555 1_555
H9B C7B 1_555 1_555
H10A C7A 1_555 1_555
H10B C7B 1_555 1_555
C8A N10A 1_555 1_555
C8B N10B 1_555 1_555
H11A C8A 1_555 1_555
H11B C8B 1_555 1_555
H12A C8A 1_555 1_555
H12B C8B 1_555 1_555
C9A C8A 1_555 1_555
C9B C8B 1_555 1_555
H13A C9A 1_555 1_555
H13B C9B 1_555 1_555
H14A C9A 1_555 1_555
H14B C9B 1_555 1_555
C10A N14A 1_555 1_555
C10B N14B 1_555 1_555
H15A C10A 1_555 1_555
H15B C10B 1_555 1_555
H16A C10A 1_555 1_555
H16B C10B 1_555 1_555
O4A Cl1 1_555 1_555
O4B Cl1 1_555 1_555
N16 C4 1_555 1_555
C6 C7 1_555 1_555
C9 C10 1_555 1_555
N8A C2A 1_555 1_555
N8B C2B 1_555 1_555
N16A C4A 1_555 1_555
N16B C4B 1_555 1_555
C6A C7A 1_555 1_555
C6B C7B 1_555 1_555
C9A C10A 1_555 1_555
C9B C10B 1_555 1_555

#END
