
#######################################################################
#
#                 Cambridge Crystallographic Data Centre
#                                CCDC 
#
#######################################################################
#
# If this CIF has been generated from an entry in the Cambridge 
# Structural Database, then it will include bibliographic, chemical, 
# crystal, experimental, refinement or atomic coordinate data resulting 
# from the CCDC's data processing and validation procedures.
#
#######################################################################

data_WILNEL
_symmetry_cell_setting           rhombohedral
_symmetry_space_group_name_H-M   'R 3'
_symmetry_Int_Tables_number      146
_space_group_name_Hall           'R 3'
loop_
_symmetry_equiv_pos_site_id
_symmetry_equiv_pos_as_xyz
1 x,y,z
2 -y,x-y,z
3 -x+y,-x,z
4 2/3+x,1/3+y,1/3+z
5 2/3-y,1/3+x-y,1/3+z
6 2/3-x+y,1/3-x,1/3+z
7 1/3+x,2/3+y,2/3+z
8 1/3-y,2/3+x-y,2/3+z
9 1/3-x+y,2/3-x,2/3+z
_cell_length_a                   17.6017(14)
_cell_length_b                   17.6017(14)
_cell_length_c                   21.056(2)
_cell_angle_alpha                90
_cell_angle_beta                 90
_cell_angle_gamma                120.00
_cell_volume                     5649.57
loop_
_atom_site_label
_atom_site_type_symbol
_atom_site_fract_x
_atom_site_fract_y
_atom_site_fract_z
Fe1 Fe 0.0000 0.0000 0.27726(6)
Fe2 Fe 0.3334 0.6666 0.44338(6)
N1 N 0.1975(4) 0.4323(3) 0.5594(3)
N2 N 0.2597(3) 0.4233(3) 0.5275(2)
N3 N 0.3113(3) 0.4910(3) 0.4927(2)
N4 N 0.2866(3) 0.5504(3) 0.50257(19)
C1 C 0.2189(4) 0.5133(4) 0.5442(3)
H1 H 0.1907 0.5419 0.5604
N5 N 0.0468(4) 0.2283(3) 0.3873(3)
N6 N 0.1224(3) 0.2286(3) 0.3868(3)
N7 N 0.1182(3) 0.1620(3) 0.3559(2)
N8 N 0.0365(3) 0.1152(3) 0.3353(2)
C2 C -0.0050(4) 0.1570(4) 0.3561(3)
H2 H -0.0642 0.1372 0.3491
N9 N 0.4367(4) 0.2333(4) -0.0092(3)
N10 N 0.4247(3) 0.1653(4) 0.0254(2)
N11 N 0.4896(3) 0.1815(3) 0.0626(2)
N12 N 0.5494(3) 0.2632(3) 0.05074(19)
C3 C 0.5159(4) 0.2931(4) 0.0073(3)
H3 H 0.5453 0.3496 -0.0092
N13 N 0.2206(5) 0.1857(4) 0.1620(4)
N14 N 0.2303(4) 0.1178(4) 0.1668(3)
N15 N 0.1684(3) 0.0514(3) 0.1994(3)
N16 N 0.1158(3) 0.0786(3) 0.2177(2)
C4 C 0.1500(5) 0.1619(5) 0.1966(4)
H4 H 0.1265 0.1978 0.2054
C5 C 0.2649(4) 0.3429(3) 0.5301(3)
H5 H 0.2621 0.3246 0.5739
H6 H 0.3201 0.3535 0.5121
C6 C 0.1882(4) 0.2712(3) 0.4925(3)
H7 H 0.1336 0.2660 0.5073
H8 H 0.1855 0.2154 0.4993
C7 C 0.1995(5) 0.2933(5) 0.4211(4)
H9 H 0.2073 0.3513 0.4145
H10 H 0.2513 0.2933 0.4053
C11 C 0.3423(4) 0.0801(5) 0.0274(3)
H17 H 0.3526 0.0367 0.0479
H18 H 0.3218 0.0603 -0.0154
C12 C 0.2744(6) 0.0899(7) 0.0635(4)
H19 H 0.2679 0.1364 0.0443
H20 H 0.2186 0.0359 0.0599
C13 C 0.2960(4) 0.1104(6) 0.1323(4)
H21 H 0.3038 0.0646 0.1514
H22 H 0.3512 0.1651 0.1360
Fe2F Fe 0.6667 0.3333 0.11005(6)
Fe2_2 Fe -0.6666 -0.3334 0.44338(6)
Fe2_3 Fe 0.3334 -0.3334 0.44338(6)
Fe2F_2 Fe -0.3333 0.3333 0.11005(6)
Fe2F_3 Fe -0.3333 -0.6667 0.11005(6)
N1A N -0.4323(3) -0.2348(5) 0.5594(3)
N1B N 0.2348(5) -0.1975(4) 0.5594(3)
N2A N -0.4233(3) -0.1636(4) 0.5275(2)
N2B N 0.1636(4) -0.2597(3) 0.5275(2)
N3A N -0.4910(3) -0.1797(4) 0.4927(2)
N3B N 0.1797(4) -0.3113(3) 0.4927(2)
N4A N -0.5504(3) -0.2638(4) 0.50257(19)
N4B N 0.2638(4) -0.2866(3) 0.50257(19)
N4A_2 N 0.4496(3) 0.7362(4) 0.50257(19)
N4B_2 N 0.2638(4) 0.7134(3) 0.50257(19)
C1A C -0.5133(4) -0.2944(6) 0.5442(3)
C1B C 0.2944(6) -0.2189(4) 0.5442(3)
H1A H -0.5419 -0.3512 0.5604
H1B H 0.3512 -0.1907 0.5604
N5A N -0.2283(3) -0.1815(5) 0.3873(3)
N5B N 0.1815(5) -0.0468(4) 0.3873(3)
N6A N -0.2286(3) -0.1062(4) 0.3868(3)
N6B N 0.1062(4) -0.1224(3) 0.3868(3)
N7A N -0.1620(3) -0.0438(4) 0.3559(2)
N7B N 0.0438(4) -0.1182(3) 0.3559(2)
N8A N -0.1152(3) -0.0787(4) 0.3353(2)
N8B N 0.0787(4) -0.0365(3) 0.3353(2)
C2A C -0.1570(4) -0.1620(6) 0.3561(3)
C2B C 0.1620(6) 0.0050(4) 0.3561(3)
H2A H -0.1372 -0.2014 0.3491
H2B H 0.2014 0.0642 0.3491
N9A N -0.2333(4) 0.2034(6) -0.0092(3)
N9B N -0.2034(6) -0.4367(4) -0.0092(3)
N10A N -0.1653(4) 0.2594(5) 0.0254(2)
N10B N -0.2594(5) -0.4247(3) 0.0254(2)
N11A N -0.1815(3) 0.3081(4) 0.0626(2)
N11B N -0.3081(4) -0.4896(3) 0.0626(2)
N12A N -0.2632(3) 0.2862(4) 0.05074(19)
N12B N -0.2862(4) -0.5494(3) 0.05074(19)
N12C N 0.2161(3) 0.5965(3) 0.38407(19)
N12D N 0.4035(3) 0.6195(4) 0.38407(19)
N12E N 0.3805(4) 0.7839(3) 0.38407(19)
C3A C -0.2931(4) 0.2228(6) 0.0073(3)
C3B C -0.2228(6) -0.5159(4) 0.0073(3)
H3A H -0.3496 0.1957 -0.0092
H3B H -0.1957 -0.5453 -0.0092
N13A N -0.1857(4) 0.0349(6) 0.1620(4)
N13B N -0.0349(6) -0.2206(5) 0.1620(4)
N14A N -0.1178(4) 0.1125(6) 0.1668(3)
N14B N -0.1125(6) -0.2303(4) 0.1668(3)
N15A N -0.0514(3) 0.1170(4) 0.1994(3)
N15B N -0.1170(4) -0.1684(3) 0.1994(3)
N16A N -0.0786(3) 0.0372(4) 0.2177(2)
N16B N -0.0372(4) -0.1158(3) 0.2177(2)
C4A C -0.1619(5) -0.0119(7) 0.1966(4)
C4B C 0.0119(7) -0.1500(5) 0.1966(4)
H4A H -0.1978 -0.0713 0.2054
H4B H 0.0713 -0.1265 0.2054
C5A C -0.3429(3) -0.0780(5) 0.5301(3)
C5B C 0.0780(5) -0.2649(4) 0.5301(3)
H5A H -0.3246 -0.0625 0.5739
H5B H 0.0625 -0.2621 0.5739
H6A H -0.3535 -0.0334 0.5121
H6B H 0.0334 -0.3201 0.5121
C6A C -0.2712(3) -0.0830(5) 0.4925(3)
C6B C 0.0830(5) -0.1882(4) 0.4925(3)
H7A H -0.2660 -0.1324 0.5073
H7B H 0.1324 -0.1336 0.5073
H8A H -0.2154 -0.0299 0.4993
H8B H 0.0299 -0.1855 0.4993
C7A C -0.2933(5) -0.0938(7) 0.4211(4)
C7B C 0.0938(7) -0.1995(5) 0.4211(4)
H9A H -0.3513 -0.1440 0.4145
H9B H 0.1440 -0.2073 0.4145
H10A H -0.2933 -0.0420 0.4053
H10B H 0.0420 -0.2513 0.4053
C11A C -0.0801(5) 0.2622(6) 0.0274(3)
C11B C -0.2622(6) -0.3423(4) 0.0274(3)
H17A H -0.0367 0.3159 0.0479
H17B H -0.3159 -0.3526 0.0479
H18A H -0.0603 0.2615 -0.0154
H18B H -0.2615 -0.3218 -0.0154
C12A C -0.0899(7) 0.1845(9) 0.0635(4)
C12B C -0.1845(9) -0.2744(6) 0.0635(4)
H19A H -0.1364 0.1315 0.0443
H19B H -0.1315 -0.2679 0.0443
H20A H -0.0359 0.1827 0.0599
H20B H -0.1827 -0.2186 0.0599
C13A C -0.1104(6) 0.1856(7) 0.1323(4)
C13B C -0.1856(7) -0.2960(4) 0.1323(4)
H21A H -0.0646 0.2392 0.1514
H21B H -0.2392 -0.3038 0.1514
H22A H -0.1651 0.1861 0.1360
H22B H -0.1861 -0.3512 0.1360
C19 C 0.626(3) 0.549(2) -0.111(3)
O2 O 0.559(3) 0.528(3) -0.1569(19)
C20 C 0.5976(9) 0.4706(9) -0.0731(6)
Cl1 Cl 0.6667 0.3333 -0.15571(14)
O3 O 0.6667 0.3333 -0.0928(7)
O4 O 0.6604(14) 0.3999(10) -0.1822(7)
O4A O 0.6001(10) 0.2605(17) -0.1822(7)
O4B O 0.7395(17) 0.3396(14) -0.1822(7)
Cl2 Cl 0.44280(16) 0.49303(16) -0.34611(10)
O6 O 0.4734(7) 0.5157(8) -0.2844(4)
O7 O 0.3817(6) 0.5155(6) -0.3645(6)
O8 O 0.4249(11) 0.4112(7) -0.3623(8)
O9 O 0.5231(6) 0.5545(7) -0.3807(6)
C8? C 0.5982(4) 0.0096(3) 0.1968(3)
H11? H 0.5455 -0.0364 0.2167
H12? H 0.6478 0.0199 0.2230
C9? C 0.608(2) -0.021(4) 0.1316(11)
H13? H 0.6625 0.0243 0.1127
H14? H 0.6127 -0.0733 0.1362
C10? C 0.5328(5) -0.0400(5) 0.0878(4)
H15? H 0.5075 -0.0101 0.1106
H16? H 0.5648 -0.0005 0.0531
C14? C 0.3423(4) 0.0801(5) 0.0274(3)
H23? H 0.3510 0.0369 0.0051
H24? H 0.2971 0.0857 0.0051
C15? C 0.311(3) 0.0473(15) 0.0942(8)
H25? H 0.2561 -0.0083 0.0918
H26? H 0.3536 0.0372 0.1156
C16? C 0.2960(4) 0.1104(6) 0.1323(4)
H27? H 0.3421 0.1293 0.1639
H28? H 0.3165 0.1595 0.1032
C17? C 0.5480(12) 0.5025(13) -0.0995(9)
C18? C 0.597(3) 0.579(2) -0.1383(19)
O1? O 0.5976(9) 0.4706(9) -0.0731(6)
O5? O 0.071(2) 0.100(2) 0.0801(17)
H29? H 0.0901 0.1047 0.1161
C21? C -0.025(4) -0.002(6) 0.007(2)
H30? H -0.0344 -0.0530 -0.0157
H31? H 0.0027 0.0484 -0.0207
H32? H -0.0797 -0.0093 0.0217
C22? C 0.031(2) 0.012(2) 0.0603(19)
H33? H -0.0025 -0.0262 0.0948
H34? H 0.0765 -0.0015 0.0485
loop_
_geom_bond_atom_site_label_1
_geom_bond_atom_site_label_2
_geom_bond_site_symmetry_1
_geom_bond_site_symmetry_2
Fe1 N8 1_555 1_555
Fe2 N4 1_555 1_555
N1 N2 1_555 1_555
N2 N3 1_555 1_555
N3 N4 1_555 1_555
N4 C1 1_555 1_555
C1 N1 1_555 1_555
H1 C1 1_555 1_555
N5 N6 1_555 1_555
N6 N7 1_555 1_555
N7 N8 1_555 1_555
N8 C2 1_555 1_555
C2 N5 1_555 1_555
H2 C2 1_555 1_555
N9 N10 1_555 1_555
N10 N11 1_555 1_555
N11 N12 1_555 1_555
N12 C3 1_555 1_555
C3 N9 1_555 1_555
H3 C3 1_555 1_555
N13 N14 1_555 1_555
N14 N15 1_555 1_555
N15 N16 1_555 1_555
N16 Fe1 1_555 1_555
C4 N13 1_555 1_555
H4 C4 1_555 1_555
C5 N2 1_555 1_555
H5 C5 1_555 1_555
H6 C5 1_555 1_555
C6 C5 1_555 1_555
H7 C6 1_555 1_555
H8 C6 1_555 1_555
C7 N6 1_555 1_555
H9 C7 1_555 1_555
H10 C7 1_555 1_555
C11 N10 1_555 1_555
H17 C11 1_555 1_555
H18 C11 1_555 1_555
C12 C11 1_555 1_555
H19 C12 1_555 1_555
H20 C12 1_555 1_555
C13 N14 1_555 1_555
H21 C13 1_555 1_555
H22 C13 1_555 1_555
C19 O2 1_555 1_555
C20 C19 1_555 1_555
Cl1 O3 1_555 1_555
O4 Cl1 1_555 1_555
Cl2 O6 1_555 1_555
O7 Cl2 1_555 1_555
O8 Cl2 1_555 1_555
O9 Cl2 1_555 1_555
Fe2F N12 1_555 1_555
Fe2_2 N4A 1_555 1_555
Fe2_3 N4B 1_555 1_555
Fe2F_2 N12A 1_555 1_555
Fe2F_3 N12B 1_555 1_555
N1A N2A 1_555 1_555
N1B N2B 1_555 1_555
N2A N3A 1_555 1_555
N2B N3B 1_555 1_555
N3A N4A 1_555 1_555
N3B N4B 1_555 1_555
N4A C1A 1_555 1_555
N4B C1B 1_555 1_555
N4A_2 Fe2 1_555 1_555
N4B_2 Fe2 1_555 1_555
C1A N1A 1_555 1_555
C1B N1B 1_555 1_555
H1A C1A 1_555 1_555
H1B C1B 1_555 1_555
N5A N6A 1_555 1_555
N5B N6B 1_555 1_555
N6A N7A 1_555 1_555
N6B N7B 1_555 1_555
N7A N8A 1_555 1_555
N7B N8B 1_555 1_555
N8A Fe1 1_555 1_555
N8B Fe1 1_555 1_555
C2A N5A 1_555 1_555
C2B N5B 1_555 1_555
H2A C2A 1_555 1_555
H2B C2B 1_555 1_555
N9A N10A 1_555 1_555
N9B N10B 1_555 1_555
N10A N11A 1_555 1_555
N10B N11B 1_555 1_555
N11A N12A 1_555 1_555
N11B N12B 1_555 1_555
N12A C3A 1_555 1_555
N12B C3B 1_555 1_555
N12C Fe2 1_555 1_555
N12D Fe2 1_555 1_555
N12E Fe2 1_555 1_555
C3A N9A 1_555 1_555
C3B N9B 1_555 1_555
H3A C3A 1_555 1_555
H3B C3B 1_555 1_555
N13A N14A 1_555 1_555
N13B N14B 1_555 1_555
N14A N15A 1_555 1_555
N14B N15B 1_555 1_555
N15A N16A 1_555 1_555
N15B N16B 1_555 1_555
N16A Fe1 1_555 1_555
N16B Fe1 1_555 1_555
C4A N13A 1_555 1_555
C4B N13B 1_555 1_555
H4A C4A 1_555 1_555
H4B C4B 1_555 1_555
C5A N2A 1_555 1_555
C5B N2B 1_555 1_555
H5A C5A 1_555 1_555
H5B C5B 1_555 1_555
H6A C5A 1_555 1_555
H6B C5B 1_555 1_555
C6A C5A 1_555 1_555
C6B C5B 1_555 1_555
H7A C6A 1_555 1_555
H7B C6B 1_555 1_555
H8A C6A 1_555 1_555
H8B C6B 1_555 1_555
C7A N6A 1_555 1_555
C7B N6B 1_555 1_555
H9A C7A 1_555 1_555
H9B C7B 1_555 1_555
H10A C7A 1_555 1_555
H10B C7B 1_555 1_555
C11A N10A 1_555 1_555
C11B N10B 1_555 1_555
H17A C11A 1_555 1_555
H17B C11B 1_555 1_555
H18A C11A 1_555 1_555
H18B C11B 1_555 1_555
C12A C11A 1_555 1_555
C12B C11B 1_555 1_555
H19A C12A 1_555 1_555
H19B C12B 1_555 1_555
H20A C12A 1_555 1_555
H20B C12B 1_555 1_555
C13A N14A 1_555 1_555
C13B N14B 1_555 1_555
H21A C13A 1_555 1_555
H21B C13B 1_555 1_555
H22A C13A 1_555 1_555
H22B C13B 1_555 1_555
O4A Cl1 1_555 1_555
O4B Cl1 1_555 1_555
N16 C4 1_555 1_555
C6 C7 1_555 1_555
C12 C13 1_555 1_555
N8A C2A 1_555 1_555
N8B C2B 1_555 1_555
N16A C4A 1_555 1_555
N16B C4B 1_555 1_555
C6A C7A 1_555 1_555
C6B C7B 1_555 1_555
C12A C13A 1_555 1_555
C12B C13B 1_555 1_555

#END
