
#######################################################################
#
#                 Cambridge Crystallographic Data Centre
#                                CCDC 
#
#######################################################################
#
# If this CIF has been generated from an entry in the Cambridge 
# Structural Database, then it will include bibliographic, chemical, 
# crystal, experimental, refinement or atomic coordinate data resulting 
# from the CCDC's data processing and validation procedures.
#
#######################################################################

data_WILNIP01
_symmetry_cell_setting           rhombohedral
_symmetry_space_group_name_H-M   'R 3'
_symmetry_Int_Tables_number      146
_space_group_name_Hall           'R 3'
loop_
_symmetry_equiv_pos_site_id
_symmetry_equiv_pos_as_xyz
1 x,y,z
2 -y,x-y,z
3 -x+y,-x,z
4 2/3+x,1/3+y,1/3+z
5 2/3-y,1/3+x-y,1/3+z
6 2/3-x+y,1/3-x,1/3+z
7 1/3+x,2/3+y,2/3+z
8 1/3-y,2/3+x-y,2/3+z
9 1/3-x+y,2/3-x,2/3+z
_cell_length_a                   11.7898(9)
_cell_length_b                   11.7898(9)
_cell_length_c                   19.0756(13)
_cell_angle_alpha                90
_cell_angle_beta                 90
_cell_angle_gamma                120.00
_cell_volume                     2296.26
loop_
_atom_site_label
_atom_site_type_symbol
_atom_site_fract_x
_atom_site_fract_y
_atom_site_fract_z
Fe1 Fe 0.0000 0.0000 1.00000(3)
N1 N 0.1405(3) -0.0225(3) 0.93332(15)
N2 N 0.1964(3) 0.0627(3) 0.88192(14)
N3 N 0.2864(3) 0.0388(3) 0.85345(16)
C1 C 0.1943(3) -0.1005(3) 0.93704(18)
H1 H 0.1711 -0.1686 0.9687
N4 N 0.2881(4) -0.0624(4) 0.88646(19)
C2 C 0.3672(3) 0.1222(3) 0.79558(18)
H2 H 0.3107 0.1274 0.7603
H3 H 0.4135 0.0825 0.7741
C3 C 0.4663(3) 0.2602(3) 0.82004(19)
H4 H 0.5215 0.3073 0.7805
H5 H 0.5220 0.2531 0.8551
C4 C 0.4111(3) 0.3430(3) 0.85091(18)
H6 H 0.3515 0.2949 0.8889
H7 H 0.4825 0.4231 0.8703
N5 N 0.3412(3) 0.3767(3) 0.79832(15)
N6 N 0.3089(3) 0.4966(3) 0.72705(15)
N7 N 0.3956(3) 0.4972(3) 0.77225(14)
N8 N 0.2219(4) 0.2964(4) 0.77111(19)
C5 C 0.2026(3) 0.3747(3) 0.72517(18)
H8 H 0.1288 0.3485 0.6974
Fe1F Fe 0.3333 0.6667 0.66667(3)
Fe1F_2 Fe -0.6667 -0.3333 0.66667(3)
Fe1F_3 Fe 0.3333 -0.3333 0.66667(3)
N1A N 0.0225(3) 0.1630(4) 0.93332(15)
N1B N -0.1630(4) -0.1405(3) 0.93332(15)
N2A N -0.0627(3) 0.1337(4) 0.88192(14)
N2B N -0.1337(4) -0.1964(3) 0.88192(14)
N3A N -0.0388(3) 0.2476(4) 0.85345(16)
N3B N -0.2476(4) -0.2864(3) 0.85345(16)
C1A C 0.1005(3) 0.2948(4) 0.93704(18)
C1B C -0.2948(4) -0.1943(3) 0.93704(18)
H1A H 0.1686 0.3397 0.9687
H1B H -0.3397 -0.1711 0.9687
N4A N 0.0624(4) 0.3505(6) 0.88646(19)
N4B N -0.3505(6) -0.2881(4) 0.88646(19)
C2A C -0.1222(3) 0.2450(4) 0.79558(18)
C2B C -0.2450(4) -0.3672(3) 0.79558(18)
H2A H -0.1274 0.1833 0.7603
H2B H -0.1833 -0.3107 0.7603
H3A H -0.0825 0.3310 0.7741
H3B H -0.3310 -0.4135 0.7741
C3A C -0.2602(3) 0.2061(4) 0.82004(19)
C3B C -0.2061(4) -0.4663(3) 0.82004(19)
H4A H -0.3073 0.2142 0.7805
H4B H -0.2142 -0.5215 0.7805
H5A H -0.2531 0.2689 0.8551
H5B H -0.2689 -0.5220 0.8551
C4A C -0.3430(3) 0.0681(4) 0.85091(18)
C4B C -0.0681(4) -0.4111(3) 0.85091(18)
H6A H -0.2949 0.0566 0.8889
H6B H -0.0566 -0.3515 0.8889
H7A H -0.4231 0.0594 0.8703
H7B H -0.0594 -0.4825 0.8703
N5A N -0.3767(3) -0.0355(4) 0.79832(15)
N5B N 0.0355(4) -0.3412(3) 0.79832(15)
N6A N -0.4966(3) -0.1877(4) 0.72705(15)
N6B N 0.1877(4) -0.3089(3) 0.72705(15)
N6C N -0.0244(3) -0.1701(3) 1.06038(15)
N6D N 0.1701(3) 0.1456(4) 1.06038(15)
N6E N -0.1456(4) 0.0244(3) 1.06038(15)
N7A N -0.4972(3) -0.1016(4) 0.77225(14)
N7B N 0.1016(4) -0.3956(3) 0.77225(14)
N8A N -0.2964(4) -0.0745(6) 0.77111(19)
N8B N 0.0745(6) -0.2219(4) 0.77111(19)
C5A C -0.3747(3) -0.1721(4) 0.72517(18)
C5B C 0.1721(4) -0.2026(3) 0.72517(18)
H8A H -0.3485 -0.2197 0.6974
H8B H 0.2197 -0.1288 0.6974
Cl1 Cl -0.3333 0.3333 1.00400(7)
O1 O -0.3333 0.3333 1.0801(2)
O2 O -0.4251(3) 0.2042(3) 0.97870(14)
O2A O -0.2042(3) 0.3707(4) 0.97870(14)
O2B O -0.3707(4) 0.4251(3) 0.97870(14)
Cl2 Cl -0.6667 -0.3333 0.95825(9)
O3 O -0.6667 -0.3333 0.8843(3)
O4 O -0.5785(3) -0.2030(3) 0.9829(2)
O4A O -0.7970(3) -0.3755(4) 0.9829(2)
O4B O -0.6245(4) -0.4215(3) 0.9829(2)
loop_
_geom_bond_atom_site_label_1
_geom_bond_atom_site_label_2
_geom_bond_site_symmetry_1
_geom_bond_site_symmetry_2
Fe1 N1 1_555 1_555
Cl1 O1 1_555 1_555
N1 N2 1_555 1_555
N2 N3 1_555 1_555
N3 N4 1_555 1_555
C1 N1 1_555 1_555
H1 C1 1_555 1_555
O2 Cl1 1_555 1_555
N4 C1 1_555 1_555
C2 N3 1_555 1_555
H2 C2 1_555 1_555
H3 C2 1_555 1_555
C3 C2 1_555 1_555
H4 C3 1_555 1_555
H5 C3 1_555 1_555
Cl2 O3 1_555 1_555
O4 Cl2 1_555 1_555
C4 C3 1_555 1_555
H6 C4 1_555 1_555
H7 C4 1_555 1_555
N5 C4 1_555 1_555
N6 N7 1_555 1_555
N7 N5 1_555 1_555
N8 N5 1_555 1_555
C5 N6 1_555 1_555
H8 C5 1_555 1_555
Fe1F N6 1_555 1_555
Fe1F_2 N6A 1_555 1_555
Fe1F_3 N6B 1_555 1_555
N1A Fe1 1_555 1_555
N1B Fe1 1_555 1_555
N2A N1A 1_555 1_555
N2B N1B 1_555 1_555
N3A N2A 1_555 1_555
N3B N2B 1_555 1_555
C1A N1A 1_555 1_555
C1B N1B 1_555 1_555
H1A C1A 1_555 1_555
H1B C1B 1_555 1_555
O2A Cl1 1_555 1_555
O2B Cl1 1_555 1_555
N4A N3A 1_555 1_555
N4B N3B 1_555 1_555
C2A N3A 1_555 1_555
C2B N3B 1_555 1_555
H2A C2A 1_555 1_555
H2B C2B 1_555 1_555
H3A C2A 1_555 1_555
H3B C2B 1_555 1_555
C3A C2A 1_555 1_555
C3B C2B 1_555 1_555
H4A C3A 1_555 1_555
H4B C3B 1_555 1_555
H5A C3A 1_555 1_555
H5B C3B 1_555 1_555
O4A Cl2 1_555 1_555
O4B Cl2 1_555 1_555
C4A C3A 1_555 1_555
C4B C3B 1_555 1_555
H6A C4A 1_555 1_555
H6B C4B 1_555 1_555
H7A C4A 1_555 1_555
H7B C4B 1_555 1_555
N5A C4A 1_555 1_555
N5B C4B 1_555 1_555
N6A N7A 1_555 1_555
N6B N7B 1_555 1_555
N6C Fe1 1_555 1_555
N6D Fe1 1_555 1_555
N6E Fe1 1_555 1_555
N7A N5A 1_555 1_555
N7B N5B 1_555 1_555
N8A N5A 1_555 1_555
N8B N5B 1_555 1_555
C5A N6A 1_555 1_555
C5B N6B 1_555 1_555
H8A C5A 1_555 1_555
H8B C5B 1_555 1_555
N8 C5 1_555 1_555
C1A N4A 1_555 1_555
C1B N4B 1_555 1_555
N8A C5A 1_555 1_555
N8B C5B 1_555 1_555

#END
