
#######################################################################
#
#                 Cambridge Crystallographic Data Centre
#                                CCDC 
#
#######################################################################
#
# If this CIF has been generated from an entry in the Cambridge 
# Structural Database, then it will include bibliographic, chemical, 
# crystal, experimental, refinement or atomic coordinate data resulting 
# from the CCDC's data processing and validation procedures.
#
#######################################################################

data_WILNIP
_symmetry_cell_setting           rhombohedral
_symmetry_space_group_name_H-M   'R 3'
_symmetry_Int_Tables_number      146
_space_group_name_Hall           'R 3'
loop_
_symmetry_equiv_pos_site_id
_symmetry_equiv_pos_as_xyz
1 x,y,z
2 -y,x-y,z
3 -x+y,-x,z
4 2/3+x,1/3+y,1/3+z
5 2/3-y,1/3+x-y,1/3+z
6 2/3-x+y,1/3-x,1/3+z
7 1/3+x,2/3+y,2/3+z
8 1/3-y,2/3+x-y,2/3+z
9 1/3-x+y,2/3-x,2/3+z
_cell_length_a                   11.869(3)
_cell_length_b                   11.869(3)
_cell_length_c                   19.284(4)
_cell_angle_alpha                90
_cell_angle_beta                 90
_cell_angle_gamma                120.00
_cell_volume                     2352.64
loop_
_atom_site_label
_atom_site_type_symbol
_atom_site_fract_x
_atom_site_fract_y
_atom_site_fract_z
Fe1 Fe 1.0000 1.0000 0.88852(4)
N1 N 1.1405(4) 0.9804(4) 0.8219(2)
N2 N 1.1960(4) 1.0655(4) 0.7708(2)
N3 N 1.2850(4) 1.0417(4) 0.7425(2)
C1 C 1.1945(5) 0.9026(5) 0.8255(3)
H1 H 1.1719 0.8348 0.8567
N4 N 1.2880(5) 0.9419(5) 0.7749(3)
C2 C 1.3642(5) 1.1232(5) 0.6849(3)
H2 H 1.3078 1.1281 0.6501
H3 H 1.4100 1.0836 0.6636
C3 C 1.4630(5) 1.2610(5) 0.7090(3)
H4 H 1.5176 1.2538 0.7442
H5 H 1.5187 1.3070 0.6700
C4 C 1.4103(5) 1.3445(5) 0.7383(3)
H6 H 1.3510 1.2980 0.7761
H7 H 1.4819 1.4238 0.7572
N5 N 1.3417(4) 1.3787(4) 0.6860(2)
N6 N 1.3101(4) 1.4977(4) 0.6159(2)
N7 N 1.3947(4) 1.4968(4) 0.6601(2)
N8 N 1.2228(5) 1.2996(5) 0.6596(3)
C5 C 1.2037(5) 1.3763(5) 0.6137(3)
H8 H 1.1309 1.3501 0.5858
Fe1F Fe 1.3333 1.6667 0.55519(4)
Fe1F_2 Fe 0.3333 0.6667 0.55519(4)
Fe1F_3 Fe 1.3333 0.6667 0.55519(4)
N1A N 1.0196(4) 1.1601(6) 0.8219(2)
N1B N 0.8399(6) 0.8595(4) 0.8219(2)
N2A N 0.9345(4) 1.1305(6) 0.7708(2)
N2B N 0.8695(6) 0.8040(4) 0.7708(2)
N3A N 0.9583(4) 1.2433(6) 0.7425(2)
N3B N 0.7567(6) 0.7150(4) 0.7425(2)
C1A C 1.0974(5) 1.2919(7) 0.8255(3)
C1B C 0.7081(7) 0.8055(5) 0.8255(3)
H1A H 1.1652 1.3371 0.8567
H1B H 0.6629 0.8281 0.8567
N4A N 1.0581(5) 1.3461(7) 0.7749(3)
N4B N 0.6539(7) 0.7120(5) 0.7749(3)
C2A C 0.8768(5) 1.2410(7) 0.6849(3)
C2B C 0.7590(7) 0.6358(5) 0.6849(3)
H2A H 0.8719 1.1797 0.6501
H2B H 0.8203 0.6922 0.6501
H3A H 0.9164 1.3264 0.6636
H3B H 0.6736 0.5900 0.6636
C3A C 0.7390(5) 1.2020(7) 0.7090(3)
C3B C 0.7980(7) 0.5370(5) 0.7090(3)
H4A H 0.7462 1.2638 0.7442
H4B H 0.7362 0.4824 0.7442
H5A H 0.6930 1.2117 0.6700
H5B H 0.7883 0.4813 0.6700
C4A C 0.6555(5) 1.0658(7) 0.7383(3)
C4B C 0.9342(7) 0.5897(5) 0.7383(3)
H6A H 0.7020 1.0530 0.7761
H6B H 0.9470 0.6490 0.7761
H7A H 0.5762 1.0581 0.7572
H7B H 0.9419 0.5181 0.7572
N5A N 0.6213(4) 0.9630(6) 0.6860(2)
N5B N 1.0370(6) 0.6583(4) 0.6860(2)
N6A N 0.5023(4) 0.8124(6) 0.6159(2)
N6B N 1.1876(6) 0.6899(4) 0.6159(2)
N6C N 0.9768(4) 0.8310(4) 0.9492(2)
N6D N 1.1690(4) 1.1457(6) 0.9492(2)
N6E N 0.8543(6) 1.0232(4) 0.9492(2)
N7A N 0.5032(4) 0.8979(6) 0.6601(2)
N7B N 1.1021(6) 0.6053(4) 0.6601(2)
N8A N 0.7004(5) 0.9232(7) 0.6596(3)
N8B N 1.0768(7) 0.7772(5) 0.6596(3)
C5A C 0.6237(5) 0.8274(7) 0.6137(3)
C5B C 1.1726(7) 0.7963(5) 0.6137(3)
H8A H 0.6499 0.7808 0.5858
H8B H 1.2192 0.8691 0.5858
Cl1 Cl 0.6667 1.3333 0.89204(13)
O1 O 0.6667 1.3333 0.9659(4)
O2 O 0.5752(5) 1.2062(5) 0.8677(3)
O2A O 0.7938(5) 1.3690(7) 0.8677(3)
O2B O 0.6310(7) 1.4248(5) 0.8677(3)
Cl2 Cl 0.3333 0.6667 0.84691(17)
O3 O 0.3333 0.6667 0.7797(6)
O4 O 0.4214(11) 0.7901(10) 0.8693(6)
O4A O 0.2099(10) 0.6313(15) 0.8693(6)
O4B O 0.3687(15) 0.5786(11) 0.8693(6)
loop_
_geom_bond_atom_site_label_1
_geom_bond_atom_site_label_2
_geom_bond_site_symmetry_1
_geom_bond_site_symmetry_2
Fe1 N1 1_555 1_555
Cl1 O1 1_555 1_555
N1 N2 1_555 1_555
N2 N3 1_555 1_555
N3 N4 1_555 1_555
C1 N1 1_555 1_555
H1 C1 1_555 1_555
O2 Cl1 1_555 1_555
N4 C1 1_555 1_555
C2 N3 1_555 1_555
H2 C2 1_555 1_555
H3 C2 1_555 1_555
C3 C2 1_555 1_555
H4 C3 1_555 1_555
H5 C3 1_555 1_555
Cl2 O3 1_555 1_555
O4 Cl2 1_555 1_555
C4 C3 1_555 1_555
H6 C4 1_555 1_555
H7 C4 1_555 1_555
N5 C4 1_555 1_555
N6 N7 1_555 1_555
N7 N5 1_555 1_555
N8 N5 1_555 1_555
C5 N6 1_555 1_555
H8 C5 1_555 1_555
Fe1F N6 1_555 1_555
Fe1F_2 N6A 1_555 1_555
Fe1F_3 N6B 1_555 1_555
N1A Fe1 1_555 1_555
N1B Fe1 1_555 1_555
N2A N1A 1_555 1_555
N2B N1B 1_555 1_555
N3A N2A 1_555 1_555
N3B N2B 1_555 1_555
C1A N1A 1_555 1_555
C1B N1B 1_555 1_555
H1A C1A 1_555 1_555
H1B C1B 1_555 1_555
O2A Cl1 1_555 1_555
O2B Cl1 1_555 1_555
N4A N3A 1_555 1_555
N4B N3B 1_555 1_555
C2A N3A 1_555 1_555
C2B N3B 1_555 1_555
H2A C2A 1_555 1_555
H2B C2B 1_555 1_555
H3A C2A 1_555 1_555
H3B C2B 1_555 1_555
C3A C2A 1_555 1_555
C3B C2B 1_555 1_555
H4A C3A 1_555 1_555
H4B C3B 1_555 1_555
H5A C3A 1_555 1_555
H5B C3B 1_555 1_555
O4A Cl2 1_555 1_555
O4B Cl2 1_555 1_555
C4A C3A 1_555 1_555
C4B C3B 1_555 1_555
H6A C4A 1_555 1_555
H6B C4B 1_555 1_555
H7A C4A 1_555 1_555
H7B C4B 1_555 1_555
N5A C4A 1_555 1_555
N5B C4B 1_555 1_555
N6A N7A 1_555 1_555
N6B N7B 1_555 1_555
N6C Fe1 1_555 1_555
N6D Fe1 1_555 1_555
N6E Fe1 1_555 1_555
N7A N5A 1_555 1_555
N7B N5B 1_555 1_555
N8A N5A 1_555 1_555
N8B N5B 1_555 1_555
C5A N6A 1_555 1_555
C5B N6B 1_555 1_555
H8A C5A 1_555 1_555
H8B C5B 1_555 1_555
N8 C5 1_555 1_555
C1A N4A 1_555 1_555
C1B N4B 1_555 1_555
N8A C5A 1_555 1_555
N8B C5B 1_555 1_555

#END
