
#######################################################################
#
#                 Cambridge Crystallographic Data Centre
#                                CCDC 
#
#######################################################################
#
# If this CIF has been generated from an entry in the Cambridge 
# Structural Database, then it will include bibliographic, chemical, 
# crystal, experimental, refinement or atomic coordinate data resulting 
# from the CCDC's data processing and validation procedures.
#
#######################################################################

data_WILPEN
_symmetry_cell_setting           triclinic
_symmetry_space_group_name_H-M   'P -1'
_symmetry_Int_Tables_number      2
_space_group_name_Hall           '-P 1'
loop_
_symmetry_equiv_pos_site_id
_symmetry_equiv_pos_as_xyz
1 x,y,z
2 -x,-y,-z
_cell_length_a                   6.8124(14)
_cell_length_b                   8.1738(16)
_cell_length_c                   18.070(4)
_cell_angle_alpha                90.88(3)
_cell_angle_beta                 93.82(3)
_cell_angle_gamma                102.61(3)
_cell_volume                     979.281
loop_
_atom_site_label
_atom_site_type_symbol
_atom_site_fract_x
_atom_site_fract_y
_atom_site_fract_z
C1 C 0.5758(10) 0.6979(10) 0.3088(4)
H1 H 0.6619 0.7000 0.3511
C2 C 0.6477(12) 0.7917(11) 0.2479(4)
H2 H 0.7786 0.8563 0.2501
C3 C 0.5229(11) 0.7864(11) 0.1860(4)
H3 H 0.5702 0.8452 0.1448
C4 C 0.3247(11) 0.6942(9) 0.1832(4)
C5 C 0.2625(10) 0.6015(8) 0.2463(3)
C6 C 0.0588(9) 0.4995(8) 0.2469(3)
C7 C -0.0801(10) 0.4978(9) 0.1872(4)
C8 C -0.2703(12) 0.3974(11) 0.1904(4)
H4 H -0.3660 0.3939 0.1509
C9 C -0.3202(11) 0.3024(11) 0.2512(4)
H5 H -0.4477 0.2336 0.2536
C10 C -0.1714(10) 0.3138(10) 0.3091(4)
H6 H -0.2029 0.2503 0.3507
C11 C -0.0222(11) 0.5978(9) 0.1223(3)
C12 C 0.1797(11) 0.6939(9) 0.1206(4)
C13 C 0.0993(13) 0.7836(10) 0.0064(4)
C14 C -0.1011(12) 0.6941(10) 0.0092(4)
C15 C -0.2436(15) 0.7056(13) -0.0505(4)
H7 H -0.3768 0.6475 -0.0491
C16 C 0.1555(15) 0.8830(12) -0.0562(4)
H8 H 0.2876 0.9426 -0.0589
C17 C 0.0130(15) 0.8894(12) -0.1119(4)
H9 H 0.0495 0.9545 -0.1527
C18 C -0.1868(16) 0.8008(14) -0.1096(5)
H10 H -0.2809 0.8070 -0.1486
C19 C 0.5627(9) 0.7999(7) 0.5407(3)
C20 C -0.0435(8) 0.2079(7) 0.5401(3)
C21 C 0.0047(9) 0.0401(8) 0.5320(3)
H11 H 0.0435 -0.0108 0.5746
C22 C 0.5112(9) 0.9660(8) 0.5323(4)
H12 H 0.4938 1.0251 0.5748
N1 N 0.0112(8) 0.4094(7) 0.3083(3)
N2 N 0.3906(8) 0.6072(7) 0.3078(3)
N3 N 0.2421(10) 0.7838(8) 0.0625(3)
N4 N -0.1614(9) 0.5993(8) 0.0682(3)
O1 O 0.5596(7) 0.7077(5) 0.4837(2)
O2 O 0.6137(8) 0.7591(6) 0.6049(2)
O4 O -0.0675(7) 0.2897(5) 0.4835(2)
O5 O -0.0648(7) 0.2575(6) 0.6050(3)
Pb1 Pb 0.23679(3) 0.49416(3) 0.429244(12)
C1A C 0.4242(10) 1.3021(10) 0.6912(4)
H1A H 0.3381 1.3000 0.6489
C2A C 0.3523(12) 1.2083(11) 0.7521(4)
H2A H 0.2214 1.1437 0.7499
C3A C 0.4771(11) 1.2136(11) 0.8140(4)
H3A H 0.4298 1.1548 0.8552
C4A C 0.6753(11) 1.3058(9) 0.8168(4)
C5A C 0.7375(10) 1.3985(8) 0.7537(3)
C6A C 0.9412(9) 1.5005(8) 0.7531(3)
C7A C 1.0801(10) 1.5022(9) 0.8128(4)
C8A C 1.2703(12) 1.6026(11) 0.8096(4)
H4A H 1.3660 1.6061 0.8491
C9A C 1.3202(11) 1.6976(11) 0.7488(4)
H5A H 1.4477 1.7664 0.7464
C10A C 1.1714(10) 1.6862(10) 0.6909(4)
H6A H 1.2029 1.7497 0.6493
C11A C 1.0222(11) 1.4022(9) 0.8777(3)
C12A C 0.8203(11) 1.3061(9) 0.8794(4)
C13A C 0.9007(13) 1.2164(10) 0.9936(4)
C14A C 1.1011(12) 1.3059(10) 0.9908(4)
C15A C 1.2436(15) 1.2944(13) 1.0505(4)
H7A H 1.3768 1.3525 1.0491
C16A C 0.8445(15) 1.1170(12) 1.0562(4)
H8A H 0.7124 1.0574 1.0589
C17A C 0.9870(15) 1.1106(12) 1.1119(4)
H9A H 0.9505 1.0455 1.1527
C18A C 1.1868(16) 1.1992(14) 1.1096(5)
H10A H 1.2809 1.1930 1.1486
C19A C 0.4373(9) 1.2001(7) 0.4593(3)
C20A C 0.0435(8) -0.2079(7) 0.4599(3)
C21A C -0.0047(9) -0.0401(8) 0.4680(3)
H11A H -0.0435 0.0108 0.4254
C22A C 0.4888(9) 1.0340(8) 0.4677(4)
H12A H 0.5062 0.9749 0.4252
N1A N 0.9888(8) 1.5906(7) 0.6917(3)
N2A N 0.6094(8) 1.3928(7) 0.6922(3)
N3A N 0.7579(10) 1.2162(8) 0.9375(3)
N4A N 1.1614(9) 1.4007(8) 0.9318(3)
O1A O 0.4404(7) 1.2923(5) 0.5163(2)
O2A O 0.3863(8) 1.2409(6) 0.3951(2)
O2A_2 O 0.3863(8) 0.2409(6) 0.3951(2)
O2_2 O 0.6137(8) 1.7591(6) 0.6049(2)
O4A O 0.0675(7) -0.2897(5) 0.5165(2)
O4A_2 O 1.0675(7) 1.7103(5) 0.5165(2)
O5A O 0.0648(7) -0.2575(6) 0.3950(3)
O5A_2 O 0.0648(7) 0.7425(6) 0.3950(3)
O5_2 O 0.9352(7) 1.2575(6) 0.6050(3)
Pb1A Pb 0.76321(3) 1.50584(3) 0.570756(12)
Pb1A_2 Pb 0.76321(3) 0.50584(3) 0.570756(12)
Pb1A_3 Pb -0.23679(3) 0.50584(3) 0.570756(12)
Pb1_2 Pb 0.23679(3) 1.49416(3) 0.429244(12)
Pb1A_4 Pb -0.23679(3) -0.49416(3) 0.570756(12)
Pb1_3 Pb 0.23679(3) -0.50584(3) 0.429244(12)
O3 O 1.1615(13) 0.9962(10) 0.2843(3)
H13 H 1.249(13) 1.072(8) 0.307(5)
H14 H 1.135(16) 0.917(8) 0.314(4)
loop_
_geom_bond_atom_site_label_1
_geom_bond_atom_site_label_2
_geom_bond_site_symmetry_1
_geom_bond_site_symmetry_2
C1 H1 1_555 1_555
C2 C1 1_555 1_555
H2 C2 1_555 1_555
C3 C2 1_555 1_555
H3 C3 1_555 1_555
C4 C3 1_555 1_555
C5 C4 1_555 1_555
C6 C5 1_555 1_555
C7 C6 1_555 1_555
C8 C7 1_555 1_555
H4 C8 1_555 1_555
C9 C8 1_555 1_555
H5 C9 1_555 1_555
C10 C9 1_555 1_555
H6 C10 1_555 1_555
C11 C7 1_555 1_555
C12 C4 1_555 1_555
C13 C14 1_555 1_555
C14 C15 1_555 1_555
C15 H7 1_555 1_555
C16 C13 1_555 1_555
H8 C16 1_555 1_555
C17 C16 1_555 1_555
H9 C17 1_555 1_555
C18 C15 1_555 1_555
H10 C18 1_555 1_555
C19 C22 1_555 1_555
C20 C21 1_555 1_555
C21 H11 1_555 1_555
C22 H12 1_555 1_555
N1 C6 1_555 1_555
N2 C1 1_555 1_555
N3 C12 1_555 1_555
N4 C11 1_555 1_555
O1 C19 1_555 1_555
O2 C19 1_555 1_555
O3 H13 1_555 1_555
H14 O3 1_555 1_555
O4 C20 1_555 1_555
O5 C20 1_555 1_555
Pb1 N1 1_555 1_555
C1A H1A 1_555 1_555
C2A C1A 1_555 1_555
H2A C2A 1_555 1_555
C3A C2A 1_555 1_555
H3A C3A 1_555 1_555
C4A C3A 1_555 1_555
C5A C4A 1_555 1_555
C6A C5A 1_555 1_555
C7A C6A 1_555 1_555
C8A C7A 1_555 1_555
H4A C8A 1_555 1_555
C9A C8A 1_555 1_555
H5A C9A 1_555 1_555
C10A C9A 1_555 1_555
H6A C10A 1_555 1_555
C11A C7A 1_555 1_555
C12A C4A 1_555 1_555
C13A C14A 1_555 1_555
C14A C15A 1_555 1_555
C15A H7A 1_555 1_555
C16A C13A 1_555 1_555
H8A C16A 1_555 1_555
C17A C16A 1_555 1_555
H9A C17A 1_555 1_555
C18A C15A 1_555 1_555
H10A C18A 1_555 1_555
C19A C22A 1_555 1_555
C20A C21A 1_555 1_555
C21A C21 1_555 1_555
H11A C21A 1_555 1_555
C22A C22 1_555 1_555
H12A C22A 1_555 1_555
N1A C6A 1_555 1_555
N2A C1A 1_555 1_555
N3A C12A 1_555 1_555
N4A C11A 1_555 1_555
O1A C19A 1_555 1_555
O2A C19A 1_555 1_555
O2A_2 Pb1 1_555 1_555
O2_2 Pb1A 1_555 1_555
O4A C20A 1_555 1_555
O4A_2 Pb1A 1_555 1_555
O5A C20A 1_555 1_555
O5A_2 Pb1 1_555 1_555
O5_2 Pb1A 1_555 1_555
Pb1A N1A 1_555 1_555
Pb1A_2 O2 1_555 1_555
Pb1A_3 O5 1_555 1_555
Pb1_2 O2A 1_555 1_555
Pb1A_4 O4A 1_555 1_555
Pb1_3 O5A 1_555 1_555
C5 N2 1_555 1_555
C10 N1 1_555 1_555
C11 C12 1_555 1_555
C13 N3 1_555 1_555
C14 N4 1_555 1_555
C17 C18 1_555 1_555
N2 Pb1 1_555 1_555
O1 Pb1 1_555 1_555
O4 Pb1 1_555 1_555
C5A N2A 1_555 1_555
C10A N1A 1_555 1_555
C11A C12A 1_555 1_555
C13A N3A 1_555 1_555
C14A N4A 1_555 1_555
C17A C18A 1_555 1_555
N2A Pb1A 1_555 1_555
O1A Pb1A 1_555 1_555

#END
