
#######################################################################
#
#                 Cambridge Crystallographic Data Centre
#                                CCDC 
#
#######################################################################
#
# If this CIF has been generated from an entry in the Cambridge 
# Structural Database, then it will include bibliographic, chemical, 
# crystal, experimental, refinement or atomic coordinate data resulting 
# from the CCDC's data processing and validation procedures.
#
#######################################################################

data_WILPOX
_symmetry_cell_setting           triclinic
_symmetry_space_group_name_H-M   'P -1'
_symmetry_Int_Tables_number      2
_space_group_name_Hall           '-P 1'
loop_
_symmetry_equiv_pos_site_id
_symmetry_equiv_pos_as_xyz
1 x,y,z
2 -x,-y,-z
_cell_length_a                   9.677(3)
_cell_length_b                   11.884(4)
_cell_length_c                   11.988(4)
_cell_angle_alpha                100.375(5)
_cell_angle_beta                 112.273(4)
_cell_angle_gamma                95.158(5)
_cell_volume                     1235.83
loop_
_atom_site_label
_atom_site_type_symbol
_atom_site_fract_x
_atom_site_fract_y
_atom_site_fract_z
C1 C 0.2111(8) 0.4268(7) 0.8952(7)
C2 C 0.1011(8) 0.4641(6) 0.9486(7)
C3 C 0.1314(8) 0.4637(7) 1.0728(7)
H1 H 0.2181 0.4386 1.1208
C4 C -0.0311(8) 0.4991(7) 0.8764(7)
H2 H -0.0524 0.4975 0.7936
C5 C 0.2626(8) 0.1788(7) 0.6481(6)
C6 C 0.1279(8) 0.0831(6) 0.5711(6)
C7 C 0.0839(8) -0.0018(6) 0.6218(6)
H3 H 0.1399 -0.0030 0.7039
C8 C 0.0426(9) 0.0841(7) 0.4492(6)
H4 H 0.0715 0.1415 0.4150
C9 C 0.6852(11) 0.2384(8) 0.6832(7)
H5 H 0.6095 0.2529 0.6142
C10 C 0.8132(11) 0.2009(9) 0.6723(7)
H6 H 0.8239 0.1931 0.5976
C11 C 0.9200(11) 0.1765(8) 0.7700(8)
H7 H 1.0052 0.1509 0.7633
C12 C 0.9036(9) 0.1895(6) 0.8837(7)
C13 C 0.7758(8) 0.2314(6) 0.8883(6)
C14 C 0.7547(8) 0.2511(6) 1.0058(6)
C15 C 0.8635(8) 0.2320(6) 1.1118(6)
C16 C 0.8407(10) 0.2557(8) 1.2219(7)
H8 H 0.9149 0.2477 1.2954
C17 C 0.7115(11) 0.2901(9) 1.2212(8)
H9 H 0.6923 0.3007 1.2925
C18 C 0.6068(9) 0.3096(7) 1.1113(7)
H10 H 0.5195 0.3365 1.1113
C19 C 1.0167(8) 0.1640(6) 0.9933(7)
C20 C 1.0015(9) 0.1891(7) 1.1083(7)
C21 C 1.2382(9) 0.1007(7) 1.0897(8)
C22 C 1.3641(10) 0.0504(8) 1.0846(10)
H11 H 1.3748 0.0321 1.0099
C23 C 1.4666(11) 0.0294(9) 1.1861(10)
H12 H 1.5465 -0.0063 1.1811
C24 C 1.4560(11) 0.0600(10) 1.2996(11)
H13 H 1.5309 0.0475 1.3703
C25 C 1.3372(11) 0.1083(9) 1.3087(9)
H14 H 1.3303 0.1270 1.3850
C26 C 1.2243(9) 0.1300(7) 1.2026(7)
N1 N 0.6692(7) 0.2538(6) 0.7899(6)
N2 N 0.6284(7) 0.2908(5) 1.0066(5)
N3 N 1.1333(7) 0.1192(6) 0.9836(6)
N4 N 1.1043(7) 0.1732(6) 1.2111(6)
O1 O 0.3103(7) 0.2473(5) 0.5987(5)
O2 O 0.3197(6) 0.1871(5) 0.7657(4)
O3 O 0.1790(7) 0.4153(7) 0.7827(5)
O4 O 0.3390(7) 0.4125(6) 0.9702(5)
Pb1 Pb 0.46569(3) 0.37395(2) 0.82556(2)
C1A C -0.2111(8) 0.5732(7) 1.1048(7)
C2A C -0.1011(8) 0.5359(6) 1.0514(7)
C3A C -0.1314(8) 0.5363(7) 0.9272(7)
H1A H -0.2181 0.5614 0.8792
C4A C 0.0311(8) 0.5009(7) 1.1236(7)
H2A H 0.0524 0.5025 1.2064
C5A C -0.2626(8) -0.1788(7) 0.3519(6)
C6A C -0.1279(8) -0.0831(6) 0.4289(6)
C7A C -0.0839(8) 0.0018(6) 0.3782(6)
H3A H -0.1399 0.0030 0.2961
C8A C -0.0426(9) -0.0841(7) 0.5508(6)
H4A H -0.0715 -0.1415 0.5850
C9A C -0.6852(11) -0.2384(8) 0.3168(7)
H5A H -0.6095 -0.2529 0.3858
C10A C -0.8132(11) -0.2009(9) 0.3277(7)
H6A H -0.8239 -0.1931 0.4024
C11A C -0.9200(11) -0.1765(8) 0.2300(8)
H7A H -1.0052 -0.1509 0.2367
C12A C -0.9036(9) -0.1895(6) 0.1163(7)
C13A C -0.7758(8) -0.2314(6) 0.1117(6)
C14A C -0.7547(8) -0.2511(6) -0.0058(6)
C15A C -0.8635(8) -0.2320(6) -0.1118(6)
C16A C -0.8407(10) -0.2557(8) -0.2219(7)
H8A H -0.9149 -0.2477 -0.2954
C17A C -0.7115(11) -0.2901(9) -0.2212(8)
H9A H -0.6923 -0.3007 -0.2925
C18A C -0.6068(9) -0.3096(7) -0.1113(7)
H10A H -0.5195 -0.3365 -0.1113
C19A C -1.0167(8) -0.1640(6) 0.0067(7)
C20A C -1.0015(9) -0.1891(7) -0.1083(7)
C21A C -1.2382(9) -0.1007(7) -0.0897(8)
C22A C -1.3641(10) -0.0504(8) -0.0846(10)
H11A H -1.3748 -0.0321 -0.0099
C23A C -1.4666(11) -0.0294(9) -0.1861(10)
H12A H -1.5465 0.0063 -0.1811
C24A C -1.4560(11) -0.0600(10) -0.2996(11)
H13A H -1.5309 -0.0475 -0.3703
C25A C -1.3372(11) -0.1083(9) -0.3087(9)
H14A H -1.3303 -0.1270 -0.3850
C26A C -1.2243(9) -0.1300(7) -0.2026(7)
N1A N -0.6692(7) -0.2538(6) 0.2101(6)
N2A N -0.6284(7) -0.2908(5) -0.0066(5)
N3A N -1.1333(7) -0.1192(6) 0.0164(6)
N4A N -1.1043(7) -0.1732(6) -0.2111(6)
O1A O -0.3103(7) -0.2473(5) 0.4013(5)
O2A O -0.3197(6) -0.1871(5) 0.2343(4)
O3A O -0.1790(7) 0.5847(7) 1.2173(5)
O3A_2 O -0.1790(7) -0.4153(7) 0.2173(5)
O4A O -0.3390(7) 0.5875(6) 1.0298(5)
O4A_2 O -0.3390(7) -0.4125(6) 0.0298(5)
Pb1A Pb -0.46569(3) -0.37395(2) 0.17444(2)
Pb1A_2 Pb -0.46569(3) 0.62605(2) 1.17444(2)
O5 O -0.038(2) 0.3964(17) 0.5373(14)
loop_
_geom_bond_atom_site_label_1
_geom_bond_atom_site_label_2
_geom_bond_site_symmetry_1
_geom_bond_site_symmetry_2
C1 C2 1_555 1_555
C2 C3 1_555 1_555
C3 H1 1_555 1_555
C4 C2 1_555 1_555
H2 C4 1_555 1_555
C5 C6 1_555 1_555
C6 C7 1_555 1_555
C7 H3 1_555 1_555
C8 C6 1_555 1_555
H4 C8 1_555 1_555
C9 H5 1_555 1_555
C10 C9 1_555 1_555
H6 C10 1_555 1_555
C11 C10 1_555 1_555
H7 C11 1_555 1_555
C12 C11 1_555 1_555
C13 C12 1_555 1_555
C14 C13 1_555 1_555
C15 C14 1_555 1_555
C16 C15 1_555 1_555
H8 C16 1_555 1_555
C17 C16 1_555 1_555
H9 C17 1_555 1_555
C18 C17 1_555 1_555
H10 C18 1_555 1_555
C19 C12 1_555 1_555
C20 C15 1_555 1_555
C21 C22 1_555 1_555
C22 H11 1_555 1_555
C23 C22 1_555 1_555
H12 C23 1_555 1_555
C24 C23 1_555 1_555
H13 C24 1_555 1_555
C25 C24 1_555 1_555
H14 C25 1_555 1_555
C26 C21 1_555 1_555
N1 C9 1_555 1_555
N2 C14 1_555 1_555
N3 C19 1_555 1_555
N4 C20 1_555 1_555
O1 C5 1_555 1_555
O2 C5 1_555 1_555
O3 C1 1_555 1_555
O4 C1 1_555 1_555
Pb1 N1 1_555 1_555
C1A C2A 1_555 1_555
C2A C3A 1_555 1_555
C3A C4 1_555 1_555
H1A C3A 1_555 1_555
C4A C3 1_555 1_555
H2A C4A 1_555 1_555
C5A C6A 1_555 1_555
C6A C7A 1_555 1_555
C7A C8 1_555 1_555
H3A C7A 1_555 1_555
C8A C7 1_555 1_555
H4A C8A 1_555 1_555
C9A H5A 1_555 1_555
C10A C9A 1_555 1_555
H6A C10A 1_555 1_555
C11A C10A 1_555 1_555
H7A C11A 1_555 1_555
C12A C11A 1_555 1_555
C13A C12A 1_555 1_555
C14A C13A 1_555 1_555
C15A C14A 1_555 1_555
C16A C15A 1_555 1_555
H8A C16A 1_555 1_555
C17A C16A 1_555 1_555
H9A C17A 1_555 1_555
C18A C17A 1_555 1_555
H10A C18A 1_555 1_555
C19A C12A 1_555 1_555
C20A C15A 1_555 1_555
C21A C22A 1_555 1_555
C22A H11A 1_555 1_555
C23A C22A 1_555 1_555
H12A C23A 1_555 1_555
C24A C23A 1_555 1_555
H13A C24A 1_555 1_555
C25A C24A 1_555 1_555
H14A C25A 1_555 1_555
C26A C21A 1_555 1_555
N1A C9A 1_555 1_555
N2A C14A 1_555 1_555
N3A C19A 1_555 1_555
N4A C20A 1_555 1_555
O1A C5A 1_555 1_555
O2A C5A 1_555 1_555
O3A C1A 1_555 1_555
O3A_2 Pb1A 1_555 1_555
O4A C1A 1_555 1_555
O4A_2 Pb1A 1_555 1_555
Pb1A N1A 1_555 1_555
Pb1A_2 O3A 1_555 1_555
C13 N1 1_555 1_555
C18 N2 1_555 1_555
C19 C20 1_555 1_555
C21 N3 1_555 1_555
C25 C26 1_555 1_555
C26 N4 1_555 1_555
N2 Pb1 1_555 1_555
O1 Pb1 1_555 1_555
O2 Pb1 1_555 1_555
O3 Pb1 1_555 1_555
O4 Pb1 1_555 1_555
C2A C4A 1_555 1_555
C6A C8A 1_555 1_555
C13A N1A 1_555 1_555
C18A N2A 1_555 1_555
C19A C20A 1_555 1_555
C21A N3A 1_555 1_555
C25A C26A 1_555 1_555
C26A N4A 1_555 1_555
N2A Pb1A 1_555 1_555
O1A Pb1A 1_555 1_555
O2A Pb1A 1_555 1_555
O4A Pb1A_2 1_555 1_555

#END
