
#######################################################################
#
#                 Cambridge Crystallographic Data Centre
#                                CCDC 
#
#######################################################################
#
# If this CIF has been generated from an entry in the Cambridge 
# Structural Database, then it will include bibliographic, chemical, 
# crystal, experimental, refinement or atomic coordinate data resulting 
# from the CCDC's data processing and validation procedures.
#
#######################################################################

data_WILPAJ
_symmetry_cell_setting           monoclinic
_symmetry_space_group_name_H-M   'P 21/c'
_symmetry_Int_Tables_number      14
_space_group_name_Hall           '-P 2ybc'
loop_
_symmetry_equiv_pos_site_id
_symmetry_equiv_pos_as_xyz
1 x,y,z
2 -x,1/2+y,1/2-z
3 -x,-y,-z
4 x,1/2-y,1/2+z
_cell_length_a                   15.106(5)
_cell_length_b                   7.885(5)
_cell_length_c                   15.741(5)
_cell_angle_alpha                90
_cell_angle_beta                 93.945(5)
_cell_angle_gamma                90
_cell_volume                     1870.48
loop_
_atom_site_label
_atom_site_type_symbol
_atom_site_fract_x
_atom_site_fract_y
_atom_site_fract_z
C1 C 0.6812(4) 0.4221(7) 0.3938(4)
H1 H 0.6231 0.4559 0.3796
C2 C 0.7250(4) 0.3314(8) 0.3344(4)
H2 H 0.6968 0.3054 0.2816
C3 C 0.8105(3) 0.2805(7) 0.3546(3)
H3 H 0.8410 0.2188 0.3156
C4 C 0.8519(3) 0.3220(6) 0.4344(3)
C5 C 0.8020(3) 0.4148(6) 0.4904(3)
C6 C 0.8415(3) 0.4626(6) 0.5749(3)
C7 C 0.9288(3) 0.4155(5) 0.5995(3)
C8 C 0.9645(3) 0.4656(6) 0.6789(3)
H4 H 1.0221 0.4344 0.6972
C9 C 0.9142(4) 0.5621(6) 0.7310(3)
H5 H 0.9374 0.5986 0.7841
C10 C 0.8277(4) 0.6032(6) 0.7015(4)
H6 H 0.7937 0.6687 0.7361
C11 C 0.9805(3) 0.3142(6) 0.5428(3)
C12 C 0.9416(3) 0.2657(6) 0.4606(3)
C13 C 1.1090(3) 0.1769(6) 0.5152(3)
C14 C 1.0701(3) 0.1252(6) 0.4352(3)
C15 C 1.1197(3) 0.0229(7) 0.3817(3)
H7 H 1.0945 -0.0133 0.3292
C16 C 1.2042(4) -0.0221(7) 0.4074(4)
H8 H 1.2368 -0.0881 0.3718
C17 C 1.2426(3) 0.0291(7) 0.4862(4)
H9 H 1.3006 -0.0032 0.5020
C18 C 1.1971(3) 0.1264(7) 0.5412(4)
H10 H 1.2232 0.1583 0.5940
C19 C 0.5677(3) 0.2529(7) 0.6024(3)
C20 C 0.4336(4) 0.0968(8) 0.7337(4)
C21 C 0.4485(4) 0.0485(9) 0.6436(4)
H11 H 0.4100 0.1169 0.6056
H12 H 0.4314 -0.0691 0.6350
C22 C 0.5435(4) 0.0700(7) 0.6192(4)
H13 H 0.5835 0.0259 0.6648
H14 H 0.5517 0.0034 0.5686
N1 N 0.7913(3) 0.5534(5) 0.6263(3)
N2 N 0.7178(3) 0.4633(6) 0.4701(3)
N3 N 0.9856(3) 0.1713(5) 0.4080(3)
N4 N 1.0625(3) 0.2717(5) 0.5695(3)
O1 O 0.6380(2) 0.3125(5) 0.6352(3)
O2 O 0.5159(3) 0.3417(6) 0.5541(3)
O3 O 0.3545(3) 0.1279(8) 0.7497(4)
O4 O 0.4951(3) 0.0956(7) 0.7901(4)
Pb1 Pb 0.619339(12) 0.59655(2) 0.592538(13)
O3A O 0.6455(3) 0.6279(8) 0.7503(4)
O4A O 0.5049(3) 0.5956(7) 0.7099(4)
Pb1A Pb 0.380661(12) 0.09655(2) 0.907462(13)
loop_
_geom_bond_atom_site_label_1
_geom_bond_atom_site_label_2
_geom_bond_site_symmetry_1
_geom_bond_site_symmetry_2
C1 H1 1_555 1_555
C2 C1 1_555 1_555
H2 C2 1_555 1_555
C3 C2 1_555 1_555
H3 C3 1_555 1_555
C4 C3 1_555 1_555
C5 C4 1_555 1_555
C6 C5 1_555 1_555
C7 C6 1_555 1_555
C8 C7 1_555 1_555
H4 C8 1_555 1_555
C9 C8 1_555 1_555
H5 C9 1_555 1_555
C10 C9 1_555 1_555
H6 C10 1_555 1_555
C11 C7 1_555 1_555
C12 C4 1_555 1_555
C13 C14 1_555 1_555
C14 C15 1_555 1_555
C15 H7 1_555 1_555
C16 C15 1_555 1_555
H8 C16 1_555 1_555
C17 C16 1_555 1_555
H9 C17 1_555 1_555
C18 C13 1_555 1_555
H10 C18 1_555 1_555
C19 C22 1_555 1_555
C20 C21 1_555 1_555
C21 H11 1_555 1_555
H12 C21 1_555 1_555
C22 C21 1_555 1_555
H13 C22 1_555 1_555
H14 C22 1_555 1_555
N1 C6 1_555 1_555
N2 C1 1_555 1_555
N3 C12 1_555 1_555
N4 C11 1_555 1_555
O1 C19 1_555 1_555
O2 C19 1_555 1_555
O3 C20 1_555 1_555
O4 C20 1_555 1_555
Pb1 N1 1_555 1_555
O3A Pb1 1_555 1_555
O4A Pb1 1_555 1_555
Pb1A O3 1_555 1_555
C5 N2 1_555 1_555
C10 N1 1_555 1_555
C11 C12 1_555 1_555
C13 N4 1_555 1_555
C14 N3 1_555 1_555
C17 C18 1_555 1_555
N2 Pb1 1_555 1_555
O1 Pb1 1_555 1_555
O2 Pb1 1_555 1_555
O4 Pb1A 1_555 1_555

#END
