
#######################################################################
#
#                 Cambridge Crystallographic Data Centre
#                                CCDC 
#
#######################################################################
#
# If this CIF has been generated from an entry in the Cambridge 
# Structural Database, then it will include bibliographic, chemical, 
# crystal, experimental, refinement or atomic coordinate data resulting 
# from the CCDC's data processing and validation procedures.
#
#######################################################################

data_WILQIS
_symmetry_cell_setting           monoclinic
_symmetry_space_group_name_H-M   'P 21/n'
_symmetry_Int_Tables_number      14
_space_group_name_Hall           '-P 2yn'
loop_
_symmetry_equiv_pos_site_id
_symmetry_equiv_pos_as_xyz
1 x,y,z
2 1/2-x,1/2+y,1/2-z
3 -x,-y,-z
4 1/2+x,1/2-y,1/2+z
_cell_length_a                   11.798(2)
_cell_length_b                   6.6642(13)
_cell_length_c                   16.946(3)
_cell_angle_alpha                90
_cell_angle_beta                 92.23(3)
_cell_angle_gamma                90
_cell_volume                     1331.36
loop_
_atom_site_label
_atom_site_type_symbol
_atom_site_fract_x
_atom_site_fract_y
_atom_site_fract_z
C1 C 0.4301(3) -0.2320(7) 1.1341(2)
C2 C 0.4661(3) -0.1103(6) 1.0648(2)
C3 C 0.4349(3) 0.0881(6) 1.0565(2)
H1 H 0.3911 0.1478 1.0945
C4 C 0.5324(3) -0.1998(7) 1.0075(2)
H2 H 0.5542 -0.3334 1.0126
C5 C 0.1620(3) -0.5185(6) 1.1328(2)
C6 C 0.0778(3) -0.5079(6) 1.0640(2)
C7 C 0.0139(3) -0.3360(7) 1.0494(2)
H3 H 0.0230 -0.2254 1.0825
C8 C 0.0633(3) -0.6714(7) 1.0141(2)
H4 H 0.1057 -0.7872 1.0234
C9 C 0.7547(9) -0.0100(15) 1.3524(8)
H5 H 0.8234 -0.0159 1.3846
H6 H 0.7063 0.0929 1.3720
H7 H 0.7726 0.0200 1.2989
C10 C 0.7465(6) -0.348(2) 1.4093(5)
H8 H 0.8167 -0.2977 1.4319
H9 H 0.7606 -0.4708 1.3814
H10 H 0.6950 -0.3743 1.4506
C11 C 0.6027(4) -0.2405(12) 1.3176(3)
H11 H 0.5718 -0.1391 1.2857
N1 N 0.6972(3) -0.2015(10) 1.3550(3)
O1 O 0.2134(2) -0.6804(4) 1.14764(14)
O2 O 0.1801(2) -0.3595(5) 1.17198(16)
O3 O 0.4411(3) -0.4180(5) 1.13281(18)
O4 O 0.3905(2) -0.1393(5) 1.19281(15)
O5 O 0.5499(3) -0.3967(8) 1.3198(3)
Pb1 Pb 0.344123(11) -0.46242(2) 1.259337(8)
O6 O 0.5063(10) -0.7721(18) 1.2279(7)
C1B C 0.5699(3) 0.2320(7) 0.8659(2)
C2B C 0.5339(3) 0.1103(6) 0.9352(2)
C3B C 0.5651(3) -0.0881(6) 0.9435(2)
H1B H 0.6089 -0.1478 0.9055
C4B C 0.4676(3) 0.1998(7) 0.9925(2)
H2B H 0.4458 0.3334 0.9874
C5B C -0.1620(3) -0.4815(6) 0.8672(2)
C6B C -0.0778(3) -0.4921(6) 0.9360(2)
C7B C -0.0139(3) -0.6640(7) 0.9506(2)
H3B H -0.0230 -0.7746 0.9175
C8B C -0.0633(3) -0.3286(7) 0.9859(2)
H4B H -0.1057 -0.2128 0.9766
C9B C -0.7547(9) -0.9900(15) 0.6476(8)
H5B H -0.8234 -0.9841 0.6154
H6B H -0.7063 -1.0929 0.6280
H7B H -0.7726 -1.0200 0.7011
C10B C -0.7465(6) -0.652(2) 0.5907(5)
H8B H -0.8167 -0.7023 0.5681
H9B H -0.7606 -0.5292 0.6186
H10B H -0.6950 -0.6257 0.5494
C11B C -0.6027(4) -0.7595(12) 0.6824(3)
H11B H -0.5718 -0.8609 0.7143
N1B N -0.6972(3) -0.7985(10) 0.6450(3)
O1B O -0.2134(2) -0.3196(4) 0.85236(14)
O1A O 0.2866(2) -0.1804(4) 1.35236(14)
O1C O -0.2866(2) -0.8196(4) 0.64764(14)
O2B O -0.1801(2) -0.6405(5) 0.82802(16)
O2A O 0.3199(2) -0.8595(5) 1.32802(16)
O2C O -0.3199(2) -0.1405(5) 0.67198(16)
O3B O 0.5589(3) 0.4180(5) 0.86719(18)
O3B_2 O -0.4411(3) -0.5820(5) 0.86719(18)
O4B O 0.6095(2) 0.1393(5) 0.80719(15)
O4B_2 O -0.3905(2) -0.8607(5) 0.80719(15)
O5B O -0.5499(3) -0.6033(8) 0.6802(3)
Pb1B Pb -0.344123(11) -0.53758(2) 0.740663(8)
Pb1A Pb 0.155877(11) -0.96242(2) 1.240663(8)
Pb1A_2 Pb 0.155877(11) 0.03758(2) 1.240663(8)
Pb1B_2 Pb 0.655877(11) 0.46242(2) 0.740663(8)
Pb1C Pb -0.155877(11) -0.03758(2) 0.759337(8)
Pb1C_2 Pb -0.155877(11) -1.03758(2) 0.759337(8)
O6B O -0.5063(10) -0.2279(18) 0.7721(7)
loop_
_geom_bond_atom_site_label_1
_geom_bond_atom_site_label_2
_geom_bond_site_symmetry_1
_geom_bond_site_symmetry_2
C1 C2 1_555 1_555
C2 C3 1_555 1_555
C3 H1 1_555 1_555
C4 C2 1_555 1_555
H2 C4 1_555 1_555
C5 C6 1_555 1_555
C6 C7 1_555 1_555
C7 H3 1_555 1_555
C8 C6 1_555 1_555
H4 C8 1_555 1_555
C9 H5 1_555 1_555
H6 C9 1_555 1_555
H7 C9 1_555 1_555
C10 H8 1_555 1_555
H9 C10 1_555 1_555
H10 C10 1_555 1_555
C11 H11 1_555 1_555
N1 C9 1_555 1_555
O1 C5 1_555 1_555
O2 C5 1_555 1_555
O3 C1 1_555 1_555
O4 C1 1_555 1_555
O5 C11 1_555 1_555
Pb1 O1 1_555 1_555
O6 Pb1 1_555 1_555
C1B C2B 1_555 1_555
C2B C3B 1_555 1_555
C3B C4 1_555 1_555
H1B C3B 1_555 1_555
C4B C3 1_555 1_555
H2B C4B 1_555 1_555
C5B C6B 1_555 1_555
C6B C7B 1_555 1_555
C7B C8 1_555 1_555
H3B C7B 1_555 1_555
C8B C7 1_555 1_555
H4B C8B 1_555 1_555
C9B H5B 1_555 1_555
H6B C9B 1_555 1_555
H7B C9B 1_555 1_555
C10B H8B 1_555 1_555
H9B C10B 1_555 1_555
H10B C10B 1_555 1_555
C11B H11B 1_555 1_555
N1B C9B 1_555 1_555
O1B C5B 1_555 1_555
O1A Pb1 1_555 1_555
O1C Pb1B 1_555 1_555
O2B C5B 1_555 1_555
O2A Pb1 1_555 1_555
O2C Pb1B 1_555 1_555
O3B C1B 1_555 1_555
O3B_2 Pb1B 1_555 1_555
O4B C1B 1_555 1_555
O4B_2 Pb1B 1_555 1_555
O5B C11B 1_555 1_555
Pb1B O1B 1_555 1_555
Pb1A O1 1_555 1_555
Pb1A_2 O2 1_555 1_555
Pb1B_2 O3B 1_555 1_555
Pb1C O1B 1_555 1_555
Pb1C_2 O1C 1_555 1_555
O6B Pb1B 1_555 1_555
C10 N1 1_555 1_555
C11 N1 1_555 1_555
O2 Pb1 1_555 1_555
O3 Pb1 1_555 1_555
O4 Pb1 1_555 1_555
O5 Pb1 1_555 1_555
C2B C4B 1_555 1_555
C6B C8B 1_555 1_555
C10B N1B 1_555 1_555
C11B N1B 1_555 1_555
O1A Pb1A_2 1_555 1_555
O2B Pb1B 1_555 1_555
O2B Pb1C_2 1_555 1_555
O2A Pb1A 1_555 1_555
O2C Pb1C 1_555 1_555
O4B Pb1B_2 1_555 1_555
O5B Pb1B 1_555 1_555

#END
