
#######################################################################
#
#                 Cambridge Crystallographic Data Centre
#                                CCDC 
#
#######################################################################
#
# If this CIF has been generated from an entry in the Cambridge 
# Structural Database, then it will include bibliographic, chemical, 
# crystal, experimental, refinement or atomic coordinate data resulting 
# from the CCDC's data processing and validation procedures.
#
#######################################################################

data_WILQAK
_symmetry_cell_setting           triclinic
_symmetry_space_group_name_H-M   'P -1'
_symmetry_Int_Tables_number      2
_space_group_name_Hall           '-P 1'
loop_
_symmetry_equiv_pos_site_id
_symmetry_equiv_pos_as_xyz
1 x,y,z
2 -x,-y,-z
_cell_length_a                   6.1464(12)
_cell_length_b                   9.902(2)
_cell_length_c                   19.151(4)
_cell_angle_alpha                104.74(3)
_cell_angle_beta                 90.03(3)
_cell_angle_gamma                104.59(3)
_cell_volume                     1088.25
loop_
_atom_site_label
_atom_site_type_symbol
_atom_site_fract_x
_atom_site_fract_y
_atom_site_fract_z
C1 C 0.3774(11) 0.5082(7) 0.2626(3)
H1 H 0.3584 0.5472 0.3111
C2 C 0.2525(10) 0.5375(7) 0.2110(3)
H2 H 0.1548 0.5961 0.2246
C3 C 0.2756(9) 0.4784(6) 0.1396(3)
H3 H 0.1944 0.4971 0.1038
C4 C 0.4220(9) 0.3897(6) 0.1209(3)
C5 C 0.5472(9) 0.3683(6) 0.1766(3)
C6 C 0.7042(9) 0.2772(6) 0.1583(3)
C7 C 0.7320(9) 0.2126(6) 0.0866(3)
C8 C 0.8827(10) 0.1267(6) 0.0721(3)
H4 H 0.9040 0.0816 0.0246
C9 C 0.9995(10) 0.1098(7) 0.1290(4)
H5 H 1.1007 0.0526 0.1209
C10 C 0.9636(10) 0.1794(7) 0.1986(4)
H6 H 1.0446 0.1677 0.2367
C11 C 0.4439(9) 0.3189(6) 0.0456(3)
C12 C 0.5977(9) 0.2322(6) 0.0277(3)
C13 C 0.3353(9) 0.2687(6) -0.0745(3)
C14 C 0.4944(9) 0.1857(6) -0.0923(3)
C15 C 0.1969(11) 0.2813(7) -0.1305(3)
H7 H 0.0915 0.3351 -0.1195
C16 C 0.2193(11) 0.2144(8) -0.2000(4)
H8 H 0.1283 0.2234 -0.2364
C17 C 0.3769(11) 0.1311(7) -0.2190(3)
H9 H 0.3882 0.0862 -0.2673
C18 C 0.5132(11) 0.1165(7) -0.1660(3)
H10 H 0.6171 0.0618 -0.1782
C19 C 0.3126(9) 0.1906(6) 0.3611(3)
C20 C 0.1113(9) 0.0986(6) 0.3871(3)
C21 C -0.0346(11) 0.1634(7) 0.4300(4)
H11 H -0.0072 0.2636 0.4437
C22 C -0.2203(12) 0.0786(8) 0.4522(4)
H12 H -0.3209 0.1219 0.4799
C23 C -0.2595(11) -0.0702(7) 0.4340(4)
H13 H -0.3868 -0.1266 0.4488
C24 C -0.1092(9) -0.1346(6) 0.3939(3)
C25 C 0.0764(9) -0.0489(6) 0.3699(3)
H14 H 0.1771 -0.0919 0.3421
C26 C -0.1478(10) -0.2950(6) 0.3768(3)
N1 N 0.5240(8) 0.4272(5) 0.2471(3)
N2 N 0.8223(8) 0.2613(5) 0.2146(3)
N3 N 0.3135(8) 0.3364(5) -0.0049(3)
N4 N 0.6245(8) 0.1664(5) -0.0406(3)
O1 O 0.3506(8) 0.3276(4) 0.3849(3)
O2 O 0.4314(7) 0.1332(5) 0.3175(3)
O4 O -0.0252(8) -0.3535(5) 0.3345(3)
O5 O -0.3117(7) -0.3666(4) 0.4042(2)
Pb1 Pb 0.73737(4) 0.39297(3) 0.352980(13)
O4_2 O 0.9748(8) 0.6465(5) 0.3345(3)
O5_2 O 0.6883(7) 0.6334(4) 0.4042(2)
Pb1_2 Pb -0.26263(4) -0.60703(3) 0.352980(13)
O3 O 0.7230(9) 0.4256(6) 0.5120(3)
loop_
_geom_bond_atom_site_label_1
_geom_bond_atom_site_label_2
_geom_bond_site_symmetry_1
_geom_bond_site_symmetry_2
C1 H1 1_555 1_555
C2 C1 1_555 1_555
H2 C2 1_555 1_555
C3 C2 1_555 1_555
H3 C3 1_555 1_555
C4 C3 1_555 1_555
C5 C4 1_555 1_555
C6 C5 1_555 1_555
C7 C6 1_555 1_555
C8 C7 1_555 1_555
H4 C8 1_555 1_555
C9 C8 1_555 1_555
H5 C9 1_555 1_555
C10 C9 1_555 1_555
H6 C10 1_555 1_555
C11 C4 1_555 1_555
C12 C7 1_555 1_555
C13 C14 1_555 1_555
C14 C18 1_555 1_555
C15 C13 1_555 1_555
H7 C15 1_555 1_555
C16 C15 1_555 1_555
H8 C16 1_555 1_555
C17 C16 1_555 1_555
H9 C17 1_555 1_555
C18 C17 1_555 1_555
H10 C18 1_555 1_555
C19 C20 1_555 1_555
C20 C21 1_555 1_555
C21 H11 1_555 1_555
C22 C21 1_555 1_555
H12 C22 1_555 1_555
C23 C22 1_555 1_555
H13 C23 1_555 1_555
C24 C23 1_555 1_555
C25 C20 1_555 1_555
H14 C25 1_555 1_555
C26 C24 1_555 1_555
N1 C1 1_555 1_555
N2 C6 1_555 1_555
N3 C11 1_555 1_555
N4 C12 1_555 1_555
O1 C19 1_555 1_555
O2 C19 1_555 1_555
O4 C26 1_555 1_555
O5 C26 1_555 1_555
Pb1 N1 1_555 1_555
O4_2 Pb1 1_555 1_555
O5_2 Pb1 1_555 1_555
Pb1_2 O4 1_555 1_555
C5 N1 1_555 1_555
C10 N2 1_555 1_555
C11 C12 1_555 1_555
C13 N3 1_555 1_555
C14 N4 1_555 1_555
C24 C25 1_555 1_555
N2 Pb1 1_555 1_555
O1 Pb1 1_555 1_555
O2 Pb1 1_555 1_555
O5 Pb1_2 1_555 1_555

#END
