
#######################################################################
#
#                 Cambridge Crystallographic Data Centre
#                                CCDC 
#
#######################################################################
#
# If this CIF has been generated from an entry in the Cambridge 
# Structural Database, then it will include bibliographic, chemical, 
# crystal, experimental, refinement or atomic coordinate data resulting 
# from the CCDC's data processing and validation procedures.
#
#######################################################################

data_WILXAS
_symmetry_cell_setting           monoclinic
_symmetry_space_group_name_H-M   'C 2/c'
_symmetry_Int_Tables_number      15
_space_group_name_Hall           '-C 2yn'
loop_
_symmetry_equiv_pos_site_id
_symmetry_equiv_pos_as_xyz
1 x,y,z
2 -x,y,1/2-z
3 1/2+x,1/2+y,z
4 1/2-x,1/2+y,1/2-z
5 -x,-y,-z
6 x,-y,1/2+z
7 1/2-x,1/2-y,-z
8 1/2+x,1/2-y,1/2+z
_cell_length_a                   36.526(3)
_cell_length_b                   8.3639(5)
_cell_length_c                   19.3470(9)
_cell_angle_alpha                90
_cell_angle_beta                 109.594(6)
_cell_angle_gamma                90
_cell_volume                     5568.24
loop_
_atom_site_label
_atom_site_type_symbol
_atom_site_fract_x
_atom_site_fract_y
_atom_site_fract_z
Co1 Co 0.11891(3) 0.22330(10) 0.42314(4)
O1 O 0.10312(13) 0.3606(5) 0.49136(18)
N1 N 0.08583(15) 0.0238(6) 0.4176(2)
C1 C 0.11959(15) 0.5640(6) 0.5810(2)
N2 N 0.23400(14) 0.0563(5) 0.5031(2)
N3 N 0.05836(17) -0.2118(6) 0.3785(3)
O2 O 0.14149(15) 0.5562(6) 0.4794(2)
C2 C 0.06678(17) 0.0320(7) 0.5324(3)
H1 H 0.0783 0.1304 0.5488
N4 N 0.17446(15) 0.1551(6) 0.4796(2)
C3 C 0.1024(2) 0.4828(7) 0.6242(3)
H2 H 0.0903 0.3852 0.6082
C4 C 0.05081(17) -0.1790(7) 0.4435(3)
C5 C 0.13603(19) 0.7744(7) 0.6715(3)
H3 H 0.1474 0.8735 0.6870
C6 C 0.19282(17) 0.1456(6) 0.5558(2)
C7 C 0.23017(18) 0.0849(6) 0.5708(3)
C8 C 0.13608(18) 0.7113(7) 0.6045(3)
H4 H 0.1473 0.7690 0.5757
C9 C 0.20045(18) 0.0989(6) 0.4521(3)
H5 H 0.1959 0.0898 0.4020
C10 C 0.06846(17) -0.0332(6) 0.4666(2)
C11 C 0.04831(18) -0.0491(7) 0.5718(3)
C12 C 0.12166(17) 0.4916(7) 0.5111(3)
C13 C 0.17888(19) 0.1796(7) 0.6127(3)
H6 H 0.1539 0.2193 0.6030
C14 C 0.2554(2) 0.0625(7) 0.6422(3)
H7 H 0.2806 0.0249 0.6514
C15 C 0.11948(18) 0.6918(6) 0.7144(2)
C16 C 0.2418(2) 0.0980(7) 0.6987(3)
C17 C 0.26564(19) -0.0304(7) 0.4891(3)
H8 H 0.2695 0.0146 0.4459
H9 H 0.2894 -0.0139 0.5302
C18 C 0.02963(19) -0.1963(7) 0.5462(3)
C19 C 0.2032(2) 0.1532(7) 0.6848(3)
C20 C 0.1027(2) 0.5442(7) 0.6908(3)
H10 H 0.0917 0.4863 0.7198
C21 C 0.0314(2) -0.2633(7) 0.4813(4)
H11 H 0.0198 -0.3613 0.4643
C22 C 0.0790(2) -0.0903(8) 0.3671(3)
H12 H 0.0878 -0.0854 0.3273
C23 C 0.0469(2) 0.0196(8) 0.6435(3)
H13 H 0.0572 0.1263 0.6497
H14 H 0.0621 -0.0459 0.6836
H15 H 0.0204 0.0220 0.6426
C24 C 0.1876(2) 0.1880(8) 0.7463(3)
H16 H 0.1617 0.2299 0.7263
H17 H 0.2040 0.2651 0.7791
H18 H 0.1872 0.0912 0.7727
C25 C 0.0083(3) -0.364(2) 0.2904(3)
H19 H -0.0042 -0.2754 0.3062
H20 H -0.0015 -0.4603 0.3059
C26 C 0.0083(2) -0.2849(9) 0.5891(5)
H21 H -0.0025 -0.3817 0.5638
H22 H -0.0122 -0.2188 0.5939
H23 H 0.0261 -0.3105 0.6370
C27 C 0.2683(2) 0.0765(10) 0.7780(3)
H24 H 0.2934 0.0411 0.7787
H25 H 0.2573 -0.0016 0.8016
H26 H 0.2709 0.1766 0.8034
C28 C 0.0476(2) -0.3552(12) 0.3339(5)
H27 H 0.0632 -0.3611 0.3021
H28 H 0.0539 -0.4476 0.3660
C29 C 0.2588(3) -0.2023(9) 0.4779(7)
H29 H 0.2838 -0.2509 0.4835
H30 H 0.2428 -0.2169 0.4270
C30 C 0.1208(2) 0.7553(7) 0.7883(3)
O3 O 0.13401(15) 0.8907(6) 0.8075(2)
O4 O 0.10738(14) 0.6690(5) 0.82747(18)
N1A N -0.08583(15) 0.0238(6) 0.0824(2)
N3A N -0.05836(17) -0.2118(6) 0.1215(3)
C2A C -0.06678(17) 0.0320(7) -0.0324(3)
H1A H -0.0783 0.1304 -0.0488
C4A C -0.05081(17) -0.1790(7) 0.0565(3)
C10A C -0.06846(17) -0.0332(6) 0.0334(2)
C11A C -0.04831(18) -0.0491(7) -0.0718(3)
C18A C -0.02963(19) -0.1963(7) -0.0462(3)
C21A C -0.0314(2) -0.2633(7) 0.0187(4)
H11A H -0.0198 -0.3613 0.0357
C22A C -0.0790(2) -0.0903(8) 0.1329(3)
H12A H -0.0878 -0.0854 0.1727
C23A C -0.0469(2) 0.0196(8) -0.1435(3)
H13A H -0.0572 0.1263 -0.1497
H14A H -0.0621 -0.0459 -0.1836
H15A H -0.0204 0.0220 -0.1426
C25A C -0.0083(3) -0.364(2) 0.2096(3)
H19A H 0.0042 -0.2754 0.1938
H20A H 0.0015 -0.4603 0.1941
C26A C -0.0083(2) -0.2849(9) -0.0891(5)
H21A H 0.0025 -0.3817 -0.0638
H22A H 0.0122 -0.2188 -0.0939
H23A H -0.0261 -0.3105 -0.1370
C28A C -0.0476(2) -0.3552(12) 0.1661(5)
H27A H -0.0632 -0.3611 0.1979
H28A H -0.0539 -0.4476 0.1340
N2F N 0.26600(14) -0.5563(5) 0.4969(2)
N4F N 0.32554(15) -0.6551(6) 0.5204(2)
C6F C 0.30718(17) -0.6456(6) 0.4442(2)
C7F C 0.26983(18) -0.5849(6) 0.4292(3)
C9F C 0.29955(18) -0.5989(6) 0.5479(3)
H5F H 0.3041 -0.5898 0.5980
C13F C 0.32112(19) -0.6796(7) 0.3873(3)
H6F H 0.3461 -0.7193 0.3970
C14F C 0.2446(2) -0.5625(7) 0.3578(3)
H7F H 0.2194 -0.5249 0.3486
C16F C 0.2582(2) -0.5980(7) 0.3013(3)
C17F C 0.23436(19) -0.4696(7) 0.5109(3)
H8F H 0.2305 -0.5146 0.5541
H9F H 0.2106 -0.4861 0.4698
C19F C 0.2968(2) -0.6532(7) 0.3152(3)
C24F C 0.3124(2) -0.6880(8) 0.2537(3)
H16F H 0.3383 -0.7299 0.2737
H17F H 0.2960 -0.7651 0.2209
H18F H 0.3128 -0.5912 0.2273
C27F C 0.2317(2) -0.5765(10) 0.2220(3)
H24F H 0.2066 -0.5411 0.2213
H25F H 0.2427 -0.4984 0.1984
H26F H 0.2291 -0.6766 0.1966
C29F C 0.2412(3) -0.2977(9) 0.5221(7)
H29F H 0.2162 -0.2491 0.5165
H30F H 0.2572 -0.2831 0.5730
Co1A Co -0.11891(3) 0.22330(10) 0.07686(4)
O1A O -0.10312(13) 0.3606(5) 0.00864(18)
C1A C -0.11959(15) 0.5640(6) -0.0810(2)
O2A O -0.14149(15) 0.5562(6) 0.0206(2)
C3A C -0.1024(2) 0.4828(7) -0.1242(3)
H2A H -0.0903 0.3852 -0.1082
C5A C -0.13603(19) 0.7744(7) -0.1715(3)
H3A H -0.1474 0.8735 -0.1870
C8A C -0.13608(18) 0.7113(7) -0.1045(3)
H4A H -0.1473 0.7690 -0.0757
C12A C -0.12166(17) 0.4916(7) -0.0111(3)
C15A C -0.11948(18) 0.6918(6) -0.2144(2)
C20A C -0.1027(2) 0.5442(7) -0.1908(3)
H10A H -0.0917 0.4863 -0.2198
C30A C -0.1208(2) 0.7553(7) -0.2883(3)
O3A O -0.13401(15) 0.8907(6) -0.3075(2)
O4A O -0.10738(14) 0.6690(5) -0.32747(18)
Co1D Co -0.11891(3) 0.77670(10) -0.42314(4)
Co1E Co 0.11891(3) 0.77670(10) 0.92314(4)
Co1F Co 0.38109(3) -0.72330(10) 0.57686(4)
N4A N -0.17446(15) 0.1551(6) 0.0204(2)
O4D O -0.10738(14) 0.3310(5) 0.17253(18)
O4E O 0.10738(14) 0.3310(5) 0.32747(18)
O5 O 0.1491(3) 0.6692(16) 0.3530(5)
loop_
_geom_bond_atom_site_label_1
_geom_bond_atom_site_label_2
_geom_bond_site_symmetry_1
_geom_bond_site_symmetry_2
Co1 O1 1_555 1_555
O1 C12 1_555 1_555
N1 Co1 1_555 1_555
C1 C3 1_555 1_555
N2 C7 1_555 1_555
N3 C4 1_555 1_555
O2 C12 1_555 1_555
C2 H1 1_555 1_555
N4 Co1 1_555 1_555
C3 H2 1_555 1_555
C4 C10 1_555 1_555
C5 H3 1_555 1_555
C6 N4 1_555 1_555
C7 C6 1_555 1_555
C8 C1 1_555 1_555
H4 C8 1_555 1_555
C9 N2 1_555 1_555
H5 C9 1_555 1_555
C10 N1 1_555 1_555
C11 C2 1_555 1_555
C12 C1 1_555 1_555
C13 C6 1_555 1_555
H6 C13 1_555 1_555
C14 C7 1_555 1_555
H7 C14 1_555 1_555
C15 C5 1_555 1_555
C16 C14 1_555 1_555
C17 N2 1_555 1_555
H8 C17 1_555 1_555
H9 C17 1_555 1_555
C18 C11 1_555 1_555
C19 C13 1_555 1_555
C20 C3 1_555 1_555
H10 C20 1_555 1_555
C21 C4 1_555 1_555
H11 C21 1_555 1_555
C22 N1 1_555 1_555
H12 C22 1_555 1_555
C23 C11 1_555 1_555
H13 C23 1_555 1_555
H14 C23 1_555 1_555
H15 C23 1_555 1_555
C24 C19 1_555 1_555
H16 C24 1_555 1_555
H17 C24 1_555 1_555
H18 C24 1_555 1_555
C25 H19 1_555 1_555
H20 C25 1_555 1_555
C26 C18 1_555 1_555
H21 C26 1_555 1_555
H22 C26 1_555 1_555
H23 C26 1_555 1_555
C27 C16 1_555 1_555
H24 C27 1_555 1_555
H25 C27 1_555 1_555
H26 C27 1_555 1_555
C28 N3 1_555 1_555
H27 C28 1_555 1_555
H28 C28 1_555 1_555
C29 C17 1_555 1_555
H29 C29 1_555 1_555
H30 C29 1_555 1_555
C30 C15 1_555 1_555
O3 C30 1_555 1_555
O4 C30 1_555 1_555
N1A C10A 1_555 1_555
N3A C4A 1_555 1_555
C2A H1A 1_555 1_555
C4A C10A 1_555 1_555
C10A C2A 1_555 1_555
C11A C2A 1_555 1_555
C18A C11A 1_555 1_555
C21A C4A 1_555 1_555
H11A C21A 1_555 1_555
C22A N1A 1_555 1_555
H12A C22A 1_555 1_555
C23A C11A 1_555 1_555
H13A C23A 1_555 1_555
H14A C23A 1_555 1_555
H15A C23A 1_555 1_555
C25A C25 1_555 1_555
H19A C25A 1_555 1_555
H20A C25A 1_555 1_555
C26A C18A 1_555 1_555
H21A C26A 1_555 1_555
H22A C26A 1_555 1_555
H23A C26A 1_555 1_555
C28A N3A 1_555 1_555
H27A C28A 1_555 1_555
H28A C28A 1_555 1_555
N2F C7F 1_555 1_555
N4F C6F 1_555 1_555
C6F C7F 1_555 1_555
C7F C14F 1_555 1_555
C9F N2F 1_555 1_555
H5F C9F 1_555 1_555
C13F C6F 1_555 1_555
H6F C13F 1_555 1_555
C14F H7F 1_555 1_555
C16F C14F 1_555 1_555
C17F N2F 1_555 1_555
H8F C17F 1_555 1_555
H9F C17F 1_555 1_555
C19F C13F 1_555 1_555
C24F C19F 1_555 1_555
H16F C24F 1_555 1_555
H17F C24F 1_555 1_555
H18F C24F 1_555 1_555
C27F C16F 1_555 1_555
H24F C27F 1_555 1_555
H25F C27F 1_555 1_555
H26F C27F 1_555 1_555
C29F C29 1_555 1_555
H29F C29F 1_555 1_555
H30F C29F 1_555 1_555
Co1A N1A 1_555 1_555
O1A Co1A 1_555 1_555
C1A C3A 1_555 1_555
O2A C12A 1_555 1_555
C3A H2A 1_555 1_555
C5A H3A 1_555 1_555
C8A C1A 1_555 1_555
H4A C8A 1_555 1_555
C12A O1A 1_555 1_555
C15A C5A 1_555 1_555
C20A C3A 1_555 1_555
H10A C20A 1_555 1_555
C30A C15A 1_555 1_555
O3A C30A 1_555 1_555
O4A C30A 1_555 1_555
Co1D O4A 1_555 1_555
Co1E O4 1_555 1_555
Co1F N4F 1_555 1_555
N4A Co1A 1_555 1_555
O4D Co1A 1_555 1_555
O4E Co1 1_555 1_555
N3 C22 1_555 1_555
C2 C10 1_555 1_555
N4 C9 1_555 1_555
C5 C8 1_555 1_555
C15 C20 1_555 1_555
C16 C19 1_555 1_555
C18 C21 1_555 1_555
C25 C28 1_555 1_555
N3A C22A 1_555 1_555
C18A C21A 1_555 1_555
C25A C28A 1_555 1_555
N4F C9F 1_555 1_555
C16F C19F 1_555 1_555
C17F C29F 1_555 1_555
C1A C12A 1_555 1_555
C5A C8A 1_555 1_555
C15A C20A 1_555 1_555

#END
