
#######################################################################
#
#                 Cambridge Crystallographic Data Centre
#                                CCDC 
#
#######################################################################
#
# If this CIF has been generated from an entry in the Cambridge 
# Structural Database, then it will include bibliographic, chemical, 
# crystal, experimental, refinement or atomic coordinate data resulting 
# from the CCDC's data processing and validation procedures.
#
#######################################################################

data_WILZIC
_symmetry_cell_setting           monoclinic
_symmetry_space_group_name_H-M   'C 2/c'
_symmetry_Int_Tables_number      15
_space_group_name_Hall           '-C 2yn'
loop_
_symmetry_equiv_pos_site_id
_symmetry_equiv_pos_as_xyz
1 x,y,z
2 -x,y,1/2-z
3 1/2+x,1/2+y,z
4 1/2-x,1/2+y,1/2-z
5 -x,-y,-z
6 x,-y,1/2+z
7 1/2-x,1/2-y,-z
8 1/2+x,1/2-y,1/2+z
_cell_length_a                   12.4796(12)
_cell_length_b                   22.354(3)
_cell_length_c                   31.006(3)
_cell_angle_alpha                90
_cell_angle_beta                 96.757(2)
_cell_angle_gamma                90
_cell_volume                     8589.63
loop_
_atom_site_label
_atom_site_type_symbol
_atom_site_fract_x
_atom_site_fract_y
_atom_site_fract_z
Ag1 Ag 0.25611(3) 0.615807(19) 0.860790(12)
P1 P 0.33650(11) 0.71420(6) 0.86109(4)
P2 P 0.06821(12) 0.59785(7) 0.87583(5)
C1 C 0.4811(4) 0.7217(2) 0.87393(16)
C2 C 0.3703(4) 0.5498(2) 0.96138(15)
H1 H 0.3855 0.5886 0.9533
C3 C 0.3686(5) 0.7433(3) 0.7764(2)
H2 H 0.4308 0.7201 0.7812
N1 N 0.3172(4) 0.5614(3) 0.80109(13)
C4 C 0.0444(5) 0.6044(3) 0.9329(2)
C5 C 0.3710(4) 0.5358(2) 1.00550(15)
C6 C -0.0283(6) 0.6492(3) 0.8480(2)
H3 H -0.0930 0.6476 0.8625
H4 H 0.0010 0.6892 0.8523
C7 C 0.5309(5) 0.7760(3) 0.8779(2)
H5 H 0.4889 0.8103 0.8739
C8 C -0.0856(5) 0.5038(3) 0.8696(2)
H6 H -0.1232 0.5254 0.8886
C9 C 0.3055(4) 0.7526(3) 0.80948(17)
C10 C 0.0117(4) 0.5249(3) 0.85939(19)
C11 C 0.6406(6) 0.7820(3) 0.8876(2)
H7 H 0.6719 0.8198 0.8906
C12 C -0.0070(6) 0.6536(4) 0.9479(2)
H8 H -0.0330 0.6843 0.9293
C13 C 0.3474(4) 0.5068(2) 0.93005(15)
C14 C 0.6559(6) 0.6762(4) 0.8882(3)
H9 H 0.6986 0.6421 0.8920
C15 C 0.0194(9) 0.6126(5) 1.0201(3)
H10 H 0.0089 0.6148 1.0493
C16 C 0.5434(5) 0.6707(3) 0.8778(2)
H11 H 0.5117 0.6332 0.8735
C17 C 0.3238(5) 0.4491(3) 0.94147(18)
H12 H 0.3093 0.4200 0.9202
C18 C 0.2832(5) 0.7627(3) 0.90077(17)
H13 H 0.3201 0.8010 0.9019
H14 H 0.2069 0.7698 0.8923
C19 C 0.3465(4) 0.4780(3) 1.01573(16)
C20 C 0.3911(5) 0.5779(3) 1.03989(17)
H15 H 0.4070 0.6173 1.0336
C21 C 0.2436(5) 0.7656(3) 0.97826(18)
H16 H 0.1674 0.7690 0.9679
H17 H 0.2728 0.8058 0.9818
C22 C 0.3522(5) 0.5069(3) 0.81056(17)
C23 C 0.2993(5) 0.7332(3) 0.94536(18)
H18 H 0.2723 0.6925 0.9429
H19 H 0.3759 0.7314 0.9553
C24 C 0.3217(6) 0.4348(3) 0.98481(19)
H20 H 0.3037 0.3963 0.9928
C25 C 0.3389(6) 0.7686(4) 0.7361(2)
H21 H 0.3827 0.7627 0.7142
C26 C 0.2138(5) 0.7868(3) 0.8005(2)
H22 H 0.1707 0.7946 0.8224
C27 C -0.0748(8) 0.4177(4) 0.8258(3)
H23 H -0.1041 0.3818 0.8148
C28 C 0.3052(5) 0.5777(4) 0.75877(18)
H24 H 0.2800 0.6159 0.7512
C29 C -0.1277(7) 0.4517(4) 0.8523(3)
H25 H -0.1949 0.4392 0.8590
C30 C 0.2498(7) 0.8010(4) 0.7277(2)
H26 H 0.2324 0.8176 0.7002
C31 C 0.0220(8) 0.4368(3) 0.8154(3)
H27 H 0.0595 0.4137 0.7972
C32 C 0.0841(5) 0.5615(3) 0.9619(2)
H28 H 0.1196 0.5287 0.9519
C33 C 0.0735(7) 0.5652(5) 1.0050(2)
H29 H 0.1029 0.5358 1.0241
C34 C 0.3290(7) 0.5397(5) 0.7269(2)
H30 H 0.3213 0.5523 0.6981
C35 C 0.3652(5) 0.4884(3) 0.85667(17)
H31 H 0.3886 0.4499 0.8644
C36 C 0.3759(6) 0.4665(4) 0.7792(2)
H32 H 0.3997 0.4281 0.7867
C37 C 0.0654(6) 0.4901(3) 0.8314(2)
H33 H 0.1312 0.5031 0.8234
C38 C 0.1846(6) 0.8101(4) 0.7587(3)
H34 H 0.1208 0.8315 0.7525
C39 C 0.7028(6) 0.7320(5) 0.8928(3)
H35 H 0.7772 0.7354 0.8995
C40 C 0.3631(7) 0.4850(5) 0.7370(2)
H36 H 0.3785 0.4589 0.7152
C41 C -0.0182(8) 0.6555(5) 0.9925(3)
H37 H -0.0533 0.6880 1.0032
N2 N 0.3440(3) 0.52543(19) 0.88570(13)
O1 O 0.3426(3) 0.46102(18) 1.05878(12)
C42 C 0.3876(5) 0.5619(3) 1.08051(18)
H38 H 0.4004 0.5905 1.1023
C43 C 0.3648(5) 0.5018(3) 1.09220(19)
O2 O 0.3655(4) 0.4817(2) 1.12861(13)
C44 C -0.0595(7) 0.6420(4) 0.8039(3)
H39 H -0.1183 0.6695 0.7952
H40 H -0.0874 0.6017 0.7990
C45 C 0.0247(8) 0.6517(4) 0.7756(3)
H41 H 0.0786 0.6204 0.7806
H42 H 0.0598 0.6897 0.7827
P1F P 0.16350(11) 0.78580(6) 1.13891(4)
C1F C 0.0189(4) 0.7783(2) 1.12607(16)
C3F C 0.1314(5) 0.7567(3) 1.2236(2)
H2F H 0.0692 0.7799 1.2188
C7F C -0.0309(5) 0.7240(3) 1.1221(2)
H5F H 0.0111 0.6897 1.1261
C9F C 0.1945(4) 0.7474(3) 1.19052(17)
C11F C -0.1406(6) 0.7180(3) 1.1124(2)
H7F H -0.1719 0.6802 1.1094
C14F C -0.1559(6) 0.8238(4) 1.1118(3)
H9F H -0.1986 0.8579 1.1080
C16F C -0.0434(5) 0.8293(3) 1.1222(2)
H11F H -0.0117 0.8668 1.1265
C18F C 0.2168(5) 0.7373(3) 1.09923(17)
H13F H 0.1799 0.6990 1.0981
H14F H 0.2931 0.7302 1.1077
C21F C 0.2564(5) 0.7344(3) 1.02174(18)
H16F H 0.3326 0.7310 1.0321
H17F H 0.2272 0.6942 1.0182
C23F C 0.2007(5) 0.7668(3) 1.05464(18)
H18F H 0.2277 0.8075 1.0571
H19F H 0.1241 0.7686 1.0447
C25F C 0.1611(6) 0.7314(4) 1.2639(2)
H21F H 0.1173 0.7373 1.2858
C26F C 0.2862(5) 0.7132(3) 1.1995(2)
H22F H 0.3293 0.7054 1.1776
C30F C 0.2502(7) 0.6990(4) 1.2723(2)
H26F H 0.2676 0.6824 1.2998
C38F C 0.3154(6) 0.6899(4) 1.2413(3)
H34F H 0.3792 0.6685 1.2475
C39F C -0.2028(6) 0.7680(5) 1.1072(3)
H35F H -0.2772 0.7646 1.1005
P2A P -0.06821(12) 0.59785(7) 0.62417(5)
C4A C -0.0444(5) 0.6044(3) 0.5671(2)
C6A C 0.0283(6) 0.6492(3) 0.6520(2)
H3A H 0.0930 0.6476 0.6375
H4A H -0.0010 0.6892 0.6477
C8A C 0.0856(5) 0.5038(3) 0.6304(2)
H6A H 0.1232 0.5254 0.6114
C10A C -0.0117(4) 0.5249(3) 0.64061(19)
C12A C 0.0070(6) 0.6536(4) 0.5521(2)
H8A H 0.0330 0.6843 0.5707
C15A C -0.0194(9) 0.6126(5) 0.4799(3)
H10A H -0.0089 0.6148 0.4507
C27A C 0.0748(8) 0.4177(4) 0.6742(3)
H23A H 0.1041 0.3818 0.6852
C29A C 0.1277(7) 0.4517(4) 0.6477(3)
H25A H 0.1949 0.4392 0.6410
C31A C -0.0220(8) 0.4368(3) 0.6846(3)
H27A H -0.0595 0.4137 0.7028
C32A C -0.0841(5) 0.5615(3) 0.5381(2)
H28A H -0.1196 0.5287 0.5481
C33A C -0.0735(7) 0.5652(5) 0.4950(2)
H29A H -0.1029 0.5358 0.4759
C37A C -0.0654(6) 0.4901(3) 0.6686(2)
H33A H -0.1312 0.5031 0.6766
C41A C 0.0182(8) 0.6555(5) 0.5075(3)
H37A H 0.0533 0.6880 0.4968
C44A C 0.0595(7) 0.6420(4) 0.6961(3)
H39A H 0.1183 0.6695 0.7048
H40A H 0.0874 0.6017 0.7010
C45A C -0.0247(8) 0.6517(4) 0.7244(3)
H41A H -0.0786 0.6204 0.7194
H42A H -0.0598 0.6897 0.7173
Ag1A Ag -0.25611(3) 0.615807(19) 0.639210(12)
C2A C -0.3703(4) 0.5498(2) 0.53862(15)
H1A H -0.3855 0.5886 0.5467
N1A N -0.3172(4) 0.5614(3) 0.69891(13)
C5A C -0.3710(4) 0.5358(2) 0.49450(15)
C13A C -0.3474(4) 0.5068(2) 0.56995(15)
C17A C -0.3238(5) 0.4491(3) 0.55853(18)
H12A H -0.3093 0.4200 0.5798
C19A C -0.3465(4) 0.4780(3) 0.48427(16)
C20A C -0.3911(5) 0.5779(3) 0.46011(17)
H15A H -0.4070 0.6173 0.4664
C22A C -0.3522(5) 0.5069(3) 0.68944(17)
C24A C -0.3217(6) 0.4348(3) 0.51519(19)
H20A H -0.3037 0.3963 0.5072
C28A C -0.3052(5) 0.5777(4) 0.74123(18)
H24A H -0.2800 0.6159 0.7488
C34A C -0.3290(7) 0.5397(5) 0.7731(2)
H30A H -0.3213 0.5523 0.8019
C35A C -0.3652(5) 0.4884(3) 0.64333(17)
H31A H -0.3886 0.4499 0.6356
C36A C -0.3759(6) 0.4665(4) 0.7208(2)
H32A H -0.3997 0.4281 0.7133
C40A C -0.3631(7) 0.4850(5) 0.7630(2)
H36A H -0.3785 0.4589 0.7848
N2A N -0.3440(3) 0.52543(19) 0.61430(13)
O1A O -0.3426(3) 0.46102(18) 0.44122(12)
C42A C -0.3876(5) 0.5619(3) 0.41949(18)
H38A H -0.4004 0.5905 0.3977
C43A C -0.3648(5) 0.5018(3) 0.40780(19)
O2A O -0.3655(4) 0.4817(2) 0.37139(13)
Ag1F Ag 0.24389(3) 0.884193(19) 1.139210(12)
P1A P -0.33650(11) 0.71420(6) 0.63891(4)
O3 O 0.0017(6) 0.8492(5) 0.8387(3)
O4 O 0.0129(7) 0.7900(3) 0.8878(3)
O5 O -0.1273(5) 0.8427(3) 0.8737(2)
N3 N -0.0409(6) 0.8245(3) 0.8703(4)
loop_
_geom_bond_atom_site_label_1
_geom_bond_atom_site_label_2
_geom_bond_site_symmetry_1
_geom_bond_site_symmetry_2
Ag1 P1 1_555 1_555
P1 C1 1_555 1_555
P2 Ag1 1_555 1_555
C1 C7 1_555 1_555
C2 H1 1_555 1_555
C3 H2 1_555 1_555
N1 Ag1 1_555 1_555
C4 P2 1_555 1_555
C5 C2 1_555 1_555
C6 P2 1_555 1_555
H3 C6 1_555 1_555
H4 C6 1_555 1_555
C7 H5 1_555 1_555
C8 H6 1_555 1_555
C9 P1 1_555 1_555
C10 P2 1_555 1_555
C11 C7 1_555 1_555
H7 C11 1_555 1_555
C12 C4 1_555 1_555
H8 C12 1_555 1_555
C13 C2 1_555 1_555
C14 H9 1_555 1_555
C15 H10 1_555 1_555
C16 C1 1_555 1_555
H11 C16 1_555 1_555
C17 C13 1_555 1_555
H12 C17 1_555 1_555
C18 P1 1_555 1_555
H13 C18 1_555 1_555
H14 C18 1_555 1_555
C19 C5 1_555 1_555
C20 C5 1_555 1_555
H15 C20 1_555 1_555
C21 H16 1_555 1_555
H17 C21 1_555 1_555
C22 N1 1_555 1_555
C23 C18 1_555 1_555
H18 C23 1_555 1_555
H19 C23 1_555 1_555
C24 C17 1_555 1_555
H20 C24 1_555 1_555
C25 C3 1_555 1_555
H21 C25 1_555 1_555
C26 C9 1_555 1_555
H22 C26 1_555 1_555
C27 H23 1_555 1_555
C28 N1 1_555 1_555
H24 C28 1_555 1_555
C29 C8 1_555 1_555
H25 C29 1_555 1_555
C30 C25 1_555 1_555
H26 C30 1_555 1_555
C31 C27 1_555 1_555
H27 C31 1_555 1_555
C32 C4 1_555 1_555
H28 C32 1_555 1_555
C33 C15 1_555 1_555
H29 C33 1_555 1_555
C34 C28 1_555 1_555
H30 C34 1_555 1_555
C35 C22 1_555 1_555
H31 C35 1_555 1_555
C36 C22 1_555 1_555
H32 C36 1_555 1_555
C37 C10 1_555 1_555
H33 C37 1_555 1_555
C38 C26 1_555 1_555
H34 C38 1_555 1_555
C39 C11 1_555 1_555
H35 C39 1_555 1_555
C40 C34 1_555 1_555
H36 C40 1_555 1_555
C41 C12 1_555 1_555
H37 C41 1_555 1_555
N2 Ag1 1_555 1_555
O1 C19 1_555 1_555
C42 C20 1_555 1_555
H38 C42 1_555 1_555
C43 O1 1_555 1_555
O2 C43 1_555 1_555
C44 C6 1_555 1_555
H39 C44 1_555 1_555
H40 C44 1_555 1_555
C45 C44 1_555 1_555
H41 C45 1_555 1_555
H42 C45 1_555 1_555
O3 N3 1_555 1_555
O4 N3 1_555 1_555
O5 N3 1_555 1_555
P1F C1F 1_555 1_555
C1F C7F 1_555 1_555
C3F H2F 1_555 1_555
C7F H5F 1_555 1_555
C9F P1F 1_555 1_555
C11F C7F 1_555 1_555
H7F C11F 1_555 1_555
C14F H9F 1_555 1_555
C16F C1F 1_555 1_555
H11F C16F 1_555 1_555
C18F P1F 1_555 1_555
H13F C18F 1_555 1_555
H14F C18F 1_555 1_555
C21F C21 1_555 1_555
H16F C21F 1_555 1_555
H17F C21F 1_555 1_555
C23F C18F 1_555 1_555
H18F C23F 1_555 1_555
H19F C23F 1_555 1_555
C25F C3F 1_555 1_555
H21F C25F 1_555 1_555
C26F C9F 1_555 1_555
H22F C26F 1_555 1_555
C30F C25F 1_555 1_555
H26F C30F 1_555 1_555
C38F C26F 1_555 1_555
H34F C38F 1_555 1_555
C39F C11F 1_555 1_555
H35F C39F 1_555 1_555
P2A C4A 1_555 1_555
C4A C12A 1_555 1_555
C6A P2A 1_555 1_555
H3A C6A 1_555 1_555
H4A C6A 1_555 1_555
C8A H6A 1_555 1_555
C10A P2A 1_555 1_555
C12A H8A 1_555 1_555
C15A H10A 1_555 1_555
C27A H23A 1_555 1_555
C29A C8A 1_555 1_555
H25A C29A 1_555 1_555
C31A C27A 1_555 1_555
H27A C31A 1_555 1_555
C32A C4A 1_555 1_555
H28A C32A 1_555 1_555
C33A C15A 1_555 1_555
H29A C33A 1_555 1_555
C37A C10A 1_555 1_555
H33A C37A 1_555 1_555
C41A C12A 1_555 1_555
H37A C41A 1_555 1_555
C44A C6A 1_555 1_555
H39A C44A 1_555 1_555
H40A C44A 1_555 1_555
C45A C45 1_555 1_555
H41A C45A 1_555 1_555
H42A C45A 1_555 1_555
Ag1A P2A 1_555 1_555
C2A H1A 1_555 1_555
N1A Ag1A 1_555 1_555
C5A C2A 1_555 1_555
C13A C2A 1_555 1_555
C17A C13A 1_555 1_555
H12A C17A 1_555 1_555
C19A C5A 1_555 1_555
C20A C5A 1_555 1_555
H15A C20A 1_555 1_555
C22A N1A 1_555 1_555
C24A C17A 1_555 1_555
H20A C24A 1_555 1_555
C28A N1A 1_555 1_555
H24A C28A 1_555 1_555
C34A C28A 1_555 1_555
H30A C34A 1_555 1_555
C35A C22A 1_555 1_555
H31A C35A 1_555 1_555
C36A C22A 1_555 1_555
H32A C36A 1_555 1_555
C40A C34A 1_555 1_555
H36A C40A 1_555 1_555
N2A Ag1A 1_555 1_555
O1A C19A 1_555 1_555
C42A C20A 1_555 1_555
H38A C42A 1_555 1_555
C43A O1A 1_555 1_555
O2A C43A 1_555 1_555
Ag1F P1F 1_555 1_555
P1A Ag1A 1_555 1_555
C3 C9 1_555 1_555
C8 C10 1_555 1_555
C13 N2 1_555 1_555
C14 C16 1_555 1_555
C14 C39 1_555 1_555
C15 C41 1_555 1_555
C19 C24 1_555 1_555
C21 C23 1_555 1_555
C27 C29 1_555 1_555
C30 C38 1_555 1_555
C31 C37 1_555 1_555
C32 C33 1_555 1_555
C35 N2 1_555 1_555
C36 C40 1_555 1_555
C42 C43 1_555 1_555
C3F C9F 1_555 1_555
C14F C16F 1_555 1_555
C14F C39F 1_555 1_555
C21F C23F 1_555 1_555
C30F C38F 1_555 1_555
C8A C10A 1_555 1_555
C15A C41A 1_555 1_555
C27A C29A 1_555 1_555
C31A C37A 1_555 1_555
C32A C33A 1_555 1_555
C44A C45A 1_555 1_555
C13A N2A 1_555 1_555
C19A C24A 1_555 1_555
C35A N2A 1_555 1_555
C36A C40A 1_555 1_555
C42A C43A 1_555 1_555

#END
