
#######################################################################
#
#                 Cambridge Crystallographic Data Centre
#                                CCDC 
#
#######################################################################
#
# If this CIF has been generated from an entry in the Cambridge 
# Structural Database, then it will include bibliographic, chemical, 
# crystal, experimental, refinement or atomic coordinate data resulting 
# from the CCDC's data processing and validation procedures.
#
#######################################################################

data_WIMBAX
_symmetry_cell_setting           triclinic
_symmetry_space_group_name_H-M   'P -1'
_symmetry_Int_Tables_number      2
_space_group_name_Hall           '-P 1'
loop_
_symmetry_equiv_pos_site_id
_symmetry_equiv_pos_as_xyz
1 x,y,z
2 -x,-y,-z
_cell_length_a                   7.430(2)
_cell_length_b                   9.591(3)
_cell_length_c                   10.315(3)
_cell_angle_alpha                98.582(5)
_cell_angle_beta                 96.634(6)
_cell_angle_gamma                93.822(4)
_cell_volume                     719.323
loop_
_atom_site_label
_atom_site_type_symbol
_atom_site_fract_x
_atom_site_fract_y
_atom_site_fract_z
Eu1 Eu 0.31408(4) 0.08887(3) 0.87738(3)
S1 S 0.3452(2) 0.18633(19) 0.59817(17)
O1 O 0.1683(7) 0.1231(5) 1.0780(5)
O2 O 0.5227(9) -0.0555(8) 0.7597(6)
H1 H 0.632(7) -0.081(13) 0.777(12)
H2 H 0.527(17) -0.092(12) 0.678(4)
O3 O -0.0641(7) 0.0716(5) 1.1843(5)
O4 O -0.5189(7) 0.2957(5) 1.0177(6)
O5 O -0.3604(7) 0.1128(5) 1.0091(5)
O6 O 0.4672(9) 0.1634(7) 0.5006(6)
O7 O 0.4415(7) 0.2481(6) 0.7294(5)
O8 O 0.2319(8) 0.0626(6) 0.6158(6)
N1 N 0.1936(8) 0.6714(6) 1.2232(6)
H3 H 0.3081 0.6788 1.2508
N2 N -0.0830(8) 0.7375(6) 1.1669(6)
C1 C 0.0263(9) 0.1550(7) 1.1282(6)
C2 C -0.0250(9) 0.3049(7) 1.1306(7)
C3 C 0.1183(9) 0.4065(7) 1.1728(7)
H4 H 0.2356 0.3807 1.1927
C4 C 0.0842(9) 0.5484(7) 1.1851(7)
C5 C -0.0901(9) 0.5895(7) 1.1507(6)
C6 C -0.2349(9) 0.4879(7) 1.1085(7)
H5 H -0.3511 0.5149 1.0868
C7 C -0.2051(9) 0.3448(7) 1.0990(6)
C8 C -0.3699(9) 0.2457(7) 1.0411(6)
C9 C 0.0883(9) 0.7793(7) 1.2093(7)
H6 H 0.1330 0.8740 1.2281
C10 C 0.238(2) 0.5830(15) 0.5567(16)
H7 H 0.3108 0.6680 0.5701
C11 C 0.294(2) 0.4533(12) 0.5738(18)
H8 H 0.4164 0.4568 0.6075
C12 C 0.2081(14) 0.3174(11) 0.5517(9)
C13 C 0.0282(17) 0.3101(16) 0.5042(17)
H9 H -0.0400 0.2231 0.4851
C14 C -0.0555(15) 0.4364(12) 0.4838(10)
S1A S -0.3452(2) 0.81367(19) 0.40183(17)
O6A O -0.4672(9) 0.8366(7) 0.4994(6)
O7A O -0.4415(7) 0.7519(6) 0.2706(5)
O8A O -0.2319(8) 0.9374(6) 0.3842(6)
C10A C -0.238(2) 0.4170(15) 0.4433(16)
H7A H -0.3108 0.3320 0.4299
C11A C -0.294(2) 0.5467(12) 0.4262(18)
H8A H -0.4164 0.5432 0.3925
C12A C -0.2081(14) 0.6826(11) 0.4483(9)
C13A C -0.0282(17) 0.6899(16) 0.4958(17)
H9A H 0.0400 0.7769 0.5149
C14A C 0.0555(15) 0.5636(12) 0.5162(10)
Eu1A Eu -0.31408(4) -0.08887(3) 1.12262(3)
O1A O -0.1683(7) -0.1231(5) 0.9220(5)
O2A O -0.5227(9) 0.0555(8) 1.2403(6)
H1A H -0.632(7) 0.081(13) 1.223(12)
H2A H -0.527(17) 0.092(12) 1.322(4)
O3A O 0.0641(7) -0.0716(5) 0.8157(5)
O4A O 0.5189(7) -0.2957(5) 0.9823(6)
O5A O 0.3604(7) -0.1128(5) 0.9909(5)
N1A N -0.1936(8) -0.6714(6) 0.7768(6)
H3A H -0.3081 -0.6788 0.7492
N2A N 0.0830(8) -0.7375(6) 0.8331(6)
C1A C -0.0263(9) -0.1550(7) 0.8718(6)
C2A C 0.0250(9) -0.3049(7) 0.8694(7)
C3A C -0.1183(9) -0.4065(7) 0.8272(7)
H4A H -0.2356 -0.3807 0.8073
C4A C -0.0842(9) -0.5484(7) 0.8149(7)
C5A C 0.0901(9) -0.5895(7) 0.8493(6)
C6A C 0.2349(9) -0.4879(7) 0.8915(7)
H5A H 0.3511 -0.5149 0.9132
C7A C 0.2051(9) -0.3448(7) 0.9010(6)
C8A C 0.3699(9) -0.2457(7) 0.9589(6)
C9A C -0.0883(9) -0.7793(7) 0.7907(7)
H6A H -0.1330 -0.8740 0.7719
Eu1_2 Eu -0.68592(4) 0.08887(3) 0.87738(3)
Eu1_3 Eu 0.31408(4) -0.91113(3) 0.87738(3)
Eu1A_2 Eu -0.31408(4) 0.91113(3) 0.12262(3)
Eu1A_3 Eu -0.31408(4) 0.91113(3) 1.12262(3)
Eu1A_4 Eu 0.68592(4) -0.08887(3) 1.12262(3)
O4_2 O 0.4811(7) 0.2957(5) 1.0177(6)
O4A_2 O -0.4811(7) -0.2957(5) 0.9823(6)
O5_2 O 0.6396(7) 0.1128(5) 1.0091(5)
O5A_2 O -0.6396(7) -0.1128(5) 0.9909(5)
O7A_2 O -0.4415(7) -0.2481(6) 1.2706(5)
O8A_2 O -0.2319(8) -0.0626(6) 1.3842(6)
N2_2 N -0.0830(8) -0.2625(6) 1.1669(6)
N2A_2 N 0.0830(8) 0.2625(6) 0.8331(6)
loop_
_geom_bond_atom_site_label_1
_geom_bond_atom_site_label_2
_geom_bond_site_symmetry_1
_geom_bond_site_symmetry_2
Eu1 O1 1_555 1_555
S1 O6 1_555 1_555
O1 C1 1_555 1_555
O2 Eu1 1_555 1_555
H1 O2 1_555 1_555
H2 O2 1_555 1_555
O3 C1 1_555 1_555
O4 C8 1_555 1_555
O5 C8 1_555 1_555
O7 Eu1 1_555 1_555
O8 Eu1 1_555 1_555
N1 H3 1_555 1_555
N2 C5 1_555 1_555
C1 C2 1_555 1_555
C2 C3 1_555 1_555
C3 H4 1_555 1_555
C4 N1 1_555 1_555
C5 C4 1_555 1_555
C6 C5 1_555 1_555
H5 C6 1_555 1_555
C7 C2 1_555 1_555
C8 C7 1_555 1_555
C9 N1 1_555 1_555
H6 C9 1_555 1_555
C10 H7 1_555 1_555
C11 C10 1_555 1_555
H8 C11 1_555 1_555
C12 S1 1_555 1_555
C13 C12 1_555 1_555
H9 C13 1_555 1_555
C14 C13 1_555 1_555
S1A O6A 1_555 1_555
O7A S1A 1_555 1_555
O8A S1A 1_555 1_555
C10A C14 1_555 1_555
H7A C10A 1_555 1_555
C11A C10A 1_555 1_555
H8A C11A 1_555 1_555
C12A S1A 1_555 1_555
C13A C12A 1_555 1_555
H9A C13A 1_555 1_555
C14A C10 1_555 1_555
Eu1A O3 1_555 1_555
O1A Eu1A 1_555 1_555
O2A Eu1A 1_555 1_555
H1A O2A 1_555 1_555
H2A O2A 1_555 1_555
O3A Eu1 1_555 1_555
O4A C8A 1_555 1_555
O5A Eu1 1_555 1_555
N1A H3A 1_555 1_555
N2A C5A 1_555 1_555
C1A O1A 1_555 1_555
C2A C1A 1_555 1_555
C3A C2A 1_555 1_555
H4A C3A 1_555 1_555
C4A N1A 1_555 1_555
C5A C4A 1_555 1_555
C6A C5A 1_555 1_555
H5A C6A 1_555 1_555
C7A C2A 1_555 1_555
C8A O5A 1_555 1_555
C9A N1A 1_555 1_555
H6A C9A 1_555 1_555
Eu1_2 O4 1_555 1_555
Eu1_3 N2A 1_555 1_555
Eu1A_2 O7A 1_555 1_555
Eu1A_3 N2 1_555 1_555
Eu1A_4 O4A 1_555 1_555
O4_2 Eu1 1_555 1_555
O4A_2 Eu1A 1_555 1_555
O5_2 Eu1 1_555 1_555
O5A_2 Eu1A 1_555 1_555
O7A_2 Eu1A 1_555 1_555
O8A_2 Eu1A 1_555 1_555
N2_2 Eu1A 1_555 1_555
N2A_2 Eu1 1_555 1_555
S1 O7 1_555 1_555
S1 O8 1_555 1_555
O5 Eu1A 1_555 1_555
O5 Eu1_2 1_555 1_555
N2 C9 1_555 1_555
C3 C4 1_555 1_555
C6 C7 1_555 1_555
C11 C12 1_555 1_555
C14 C14A 1_555 1_555
O8A Eu1A_2 1_555 1_555
C11A C12A 1_555 1_555
C13A C14A 1_555 1_555
O3A C1A 1_555 1_555
O5A Eu1A_4 1_555 1_555
N2A C9A 1_555 1_555
C3A C4A 1_555 1_555
C6A C7A 1_555 1_555
C7A C8A 1_555 1_555
Eu1_2 O5A_2 1_555 1_555
Eu1A_4 O5_2 1_555 1_555

#END
