
#######################################################################
#
#                 Cambridge Crystallographic Data Centre
#                                CCDC 
#
#######################################################################
#
# If this CIF has been generated from an entry in the Cambridge 
# Structural Database, then it will include bibliographic, chemical, 
# crystal, experimental, refinement or atomic coordinate data resulting 
# from the CCDC's data processing and validation procedures.
#
#######################################################################

data_WIMCAW
_symmetry_cell_setting           monoclinic
_symmetry_space_group_name_H-M   'C c'
_symmetry_Int_Tables_number      9
_space_group_name_Hall           'C -2yc'
loop_
_symmetry_equiv_pos_site_id
_symmetry_equiv_pos_as_xyz
1 x,y,z
2 x,-y,1/2+z
3 1/2+x,1/2+y,z
4 1/2+x,1/2-y,1/2+z
_cell_length_a                   19.071(2)
_cell_length_b                   9.946(1)
_cell_length_c                   13.938(2)
_cell_angle_alpha                90
_cell_angle_beta                 108.59(1)
_cell_angle_gamma                90
_cell_volume                     2505.82
loop_
_atom_site_label
_atom_site_type_symbol
_atom_site_fract_x
_atom_site_fract_y
_atom_site_fract_z
C1 C -0.1317(3) -0.1507(5) 0.1725(4)
N1 N -0.1591(3) -0.0637(5) 0.2325(5)
H1 H -0.188(5) -0.086(8) 0.240(7)
P1 P -0.1226(1) 0.0763(1) 0.2904(2)
N2 N -0.1124(3) 0.1806(5) 0.2025(4)
H2 H -0.058(4) 0.213(8) 0.206(5)
C2 C -0.1581(3) 0.2035(5) 0.1032(4)
C3 C -0.2276(4) 0.1447(7) 0.0617(5)
H3 H -0.246(4) 0.083(8) 0.102(6)
C4 C -0.2680(4) 0.1697(8) -0.0391(6)
H4 H -0.299(5) 0.155(9) -0.068(6)
C5 C -0.2408(4) 0.2494(7) -0.0985(5)
H5 H -0.266(4) 0.263(8) -0.152(6)
C6 C -0.1740(3) 0.3120(6) -0.0592(4)
C7 C -0.1438(4) 0.4000(7) -0.1243(5)
H6 H -0.159(4) 0.502(8) -0.109(5)
H7 H -0.150(4) 0.365(7) -0.181(6)
O1 O -0.0659(2) 0.3880(4) -0.0928(3)
C8 C -0.0343(4) 0.4530(7) -0.1603(5)
H8 H -0.050(4) 0.405(7) -0.232(6)
H9 H -0.043(4) 0.554(7) -0.154(6)
C9 C 0.0480(4) 0.4299(8) -0.1224(6)
H10 H 0.070(4) 0.475(7) -0.053(6)
H11 H 0.068(4) 0.492(7) -0.166(6)
O2 O 0.0613(2) 0.2906(5) -0.1196(4)
C10 C 0.1353(5) 0.261(1) -0.1080(8)
H12 H 0.161(4) 0.275(7) -0.153(6)
H13 H 0.169(4) 0.308(7) -0.060(6)
C11 C 0.1489(5) 0.115(1) -0.0896(7)
H14 H 0.193(5) 0.082(8) -0.094(6)
H15 H 0.118(4) 0.060(8) -0.149(6)
O3 O 0.1421(3) 0.0828(5) 0.0073(4)
C12 C 0.1614(4) -0.0530(7) 0.0382(7)
H16 H 0.137(3) -0.131(6) -0.014(4)
H17 H 0.216(2) -0.083(7) 0.058(5)
C13 C 0.1472(4) -0.0728(8) 0.1383(6)
H18 H 0.178(4) 0.002(5) 0.195(5)
H19 H 0.174(4) -0.163(4) 0.164(5)
O4 O 0.0716(2) -0.0813(4) 0.1292(4)
C14 C 0.0404(4) -0.2105(6) 0.0975(6)
H20 H 0.044(4) -0.240(8) 0.034(6)
H21 H 0.074(4) -0.288(8) 0.141(5)
C15 C -0.0346(3) -0.2228(5) 0.1083(5)
C16 C -0.0778(4) -0.3305(6) 0.0626(5)
H22 H -0.061(4) -0.392(8) 0.032(6)
C17 C -0.1481(4) -0.3472(7) 0.0692(5)
H23 H -0.175(4) -0.418(8) 0.036(6)
C18 C -0.1758(4) -0.2554(6) 0.1226(5)
H24 H -0.222(4) -0.267(7) 0.116(5)
C19 C -0.0610(3) -0.1334(6) 0.1661(4)
H25 H -0.025(4) -0.059(8) 0.199(6)
C20 C -0.1331(3) 0.2908(5) 0.0427(4)
H26 H -0.086(4) 0.328(8) 0.063(6)
C21 C -0.1943(5) 0.1408(9) 0.3332(7)
H27 H -0.175(4) 0.249(7) 0.359(6)
H28 H -0.189(5) 0.105(9) 0.380(7)
H29 H -0.239(4) 0.168(8) 0.271(6)
O5 O -0.0499(3) 0.0619(4) 0.3689(4)
K1 K 0.00000 0.1371(1) 0.00000
K1A K 0.00000 -0.1371(1) 0.50000
O5A O -0.0499(3) -0.0619(4) -0.1311(4)
S1 S 0.1480(2) 0.4440(3) 0.1687(2)
C22 C 0.0905(8) 0.341(1) 0.1904(6)
N3 N 0.0616(3) 0.2606(6) 0.2192(4)
loop_
_geom_bond_atom_site_label_1
_geom_bond_atom_site_label_2
_geom_bond_site_symmetry_1
_geom_bond_site_symmetry_2
C1 N1 1_555 1_555
N1 H1 1_555 1_555
P1 N1 1_555 1_555
N2 P1 1_555 1_555
H2 N2 1_555 1_555
C2 N2 1_555 1_555
C3 C2 1_555 1_555
H3 C3 1_555 1_555
C4 C3 1_555 1_555
H4 C4 1_555 1_555
C5 C4 1_555 1_555
H5 C5 1_555 1_555
C6 C5 1_555 1_555
C7 C6 1_555 1_555
H6 C7 1_555 1_555
H7 C7 1_555 1_555
O1 C7 1_555 1_555
C8 O1 1_555 1_555
H8 C8 1_555 1_555
H9 C8 1_555 1_555
C9 C8 1_555 1_555
H10 C9 1_555 1_555
H11 C9 1_555 1_555
O2 C9 1_555 1_555
C10 O2 1_555 1_555
H12 C10 1_555 1_555
H13 C10 1_555 1_555
C11 C10 1_555 1_555
H14 C11 1_555 1_555
H15 C11 1_555 1_555
O3 C11 1_555 1_555
C12 O3 1_555 1_555
H16 C12 1_555 1_555
H17 C12 1_555 1_555
C13 C12 1_555 1_555
H18 C13 1_555 1_555
H19 C13 1_555 1_555
O4 C13 1_555 1_555
C14 O4 1_555 1_555
H20 C14 1_555 1_555
H21 C14 1_555 1_555
C15 C14 1_555 1_555
C16 C15 1_555 1_555
H22 C16 1_555 1_555
C17 C16 1_555 1_555
H23 C17 1_555 1_555
C18 C1 1_555 1_555
H24 C18 1_555 1_555
C19 C1 1_555 1_555
H25 C19 1_555 1_555
C20 C2 1_555 1_555
H26 C20 1_555 1_555
C21 P1 1_555 1_555
H27 C21 1_555 1_555
H28 C21 1_555 1_555
H29 C21 1_555 1_555
O5 P1 1_555 1_555
K1 O1 1_555 1_555
S1 C22 1_555 1_555
C22 N3 1_555 1_555
K1A O5 1_555 1_555
O5A K1 1_555 1_555
C6 C20 1_555 1_555
O2 K1 1_555 1_555
O3 K1 1_555 1_555
O4 K1 1_555 1_555
C15 C19 1_555 1_555
C17 C18 1_555 1_555

#END
