
#######################################################################
#
#                 Cambridge Crystallographic Data Centre
#                                CCDC 
#
#######################################################################
#
# If this CIF has been generated from an entry in the Cambridge 
# Structural Database, then it will include bibliographic, chemical, 
# crystal, experimental, refinement or atomic coordinate data resulting 
# from the CCDC's data processing and validation procedures.
#
#######################################################################

data_WIMHUW
_symmetry_cell_setting           triclinic
_symmetry_space_group_name_H-M   'P -1'
_symmetry_Int_Tables_number      2
_space_group_name_Hall           '-P 1'
loop_
_symmetry_equiv_pos_site_id
_symmetry_equiv_pos_as_xyz
1 x,y,z
2 -x,-y,-z
_cell_length_a                   3.5731(4)
_cell_length_b                   10.4293(11)
_cell_length_c                   21.196(2)
_cell_angle_alpha                89.031(5)
_cell_angle_beta                 89.322(5)
_cell_angle_gamma                85.546(5)
_cell_volume                     787.326
loop_
_atom_site_label
_atom_site_type_symbol
_atom_site_fract_x
_atom_site_fract_y
_atom_site_fract_z
Ag1 Ag 0.9860(4) 0.94686(14) 0.25214(5)
N1 N 0.807(3) 0.9665(11) 0.1577(5)
N2 N 1.174(3) 0.9630(12) 0.3458(5)
C1 C 0.693(4) 0.8661(14) 0.1262(6)
H1 H 0.6884 0.7864 0.1465
C2 C 0.583(4) 0.8797(13) 0.0649(6)
H2 H 0.5152 0.8076 0.0438
C3 C 0.569(4) 0.9943(16) 0.0333(6)
C4 C 0.680(4) 1.0982(12) 0.0659(7)
H3 H 0.6771 1.1792 0.0469
C5 C 0.793(4) 1.0790(14) 0.1268(7)
H4 H 0.8653 1.1498 0.1483
C6 C 1.234(4) 0.8604(14) 0.3859(7)
H5 H 1.1864 0.7792 0.3720
C7 C 1.361(4) 0.8721(13) 0.4456(6)
H6 H 1.4015 0.7995 0.4715
C8 C 1.430(4) 0.9904(13) 0.4678(6)
C9 C 1.359(4) 1.0978(12) 0.4258(7)
H7 H 1.4010 1.1802 0.4387
C10 C 1.232(4) 1.0795(14) 0.3673(7)
H8 H 1.1833 1.1507 0.3409
Ag1A Ag 0.0140(4) 1.05314(14) -0.25214(5)
Ag1A_2 Ag 2.0140(4) 1.05314(14) 0.74786(5)
N1A N 0.193(3) 1.0335(11) -0.1577(5)
N2A N 1.826(3) 1.0370(12) 0.6542(5)
N2A_2 N -0.174(3) 1.0370(12) -0.3458(5)
C1A C 0.307(4) 1.1339(14) -0.1262(6)
H1A H 0.3116 1.2136 -0.1465
C2A C 0.417(4) 1.1203(13) -0.0649(6)
H2A H 0.4848 1.1924 -0.0438
C3A C 0.431(4) 1.0057(16) -0.0333(6)
C4A C 0.320(4) 0.9018(12) -0.0659(7)
H3A H 0.3229 0.8208 -0.0469
C5A C 0.207(4) 0.9210(14) -0.1268(7)
H4A H 0.1347 0.8502 -0.1483
C6A C 1.766(4) 1.1396(14) 0.6141(7)
H5A H 1.8136 1.2208 0.6280
C7A C 1.639(4) 1.1279(13) 0.5544(6)
H6A H 1.5985 1.2005 0.5285
C8A C 1.570(4) 1.0096(13) 0.5322(6)
C9A C 1.641(4) 0.9022(12) 0.5742(7)
H7A H 1.5990 0.8198 0.5613
C10A C 1.768(4) 0.9205(14) 0.6327(7)
H8A H 1.8167 0.8493 0.6591
V1 V 0.7291(6) 0.5672(2) 0.28484(10)
V2 V 1.2739(6) 0.3913(2) 0.20798(10)
V3 V 1.2455(6) 0.4921(2) 0.06019(10)
V4 V 0.7597(6) 0.4867(2) 0.44038(10)
O1 O 0.758(2) 0.4677(9) 0.0349(4)
O2 O 1.209(3) 0.6228(9) 0.0963(5)
O3 O 1.273(2) 0.3741(8) 0.1214(4)
O4 O 0.761(2) 0.4477(10) 0.2098(4)
O5 O 0.245(2) 0.5110(12) 0.2837(4)
O6 O 0.731(2) 0.5851(9) 0.3715(4)
O7 O 0.800(3) 0.3439(10) 0.4173(5)
O8 O 0.247(2) 0.5192(10) 0.4632(4)
O9 O 0.695(3) 0.7116(9) 0.2589(4)
O10 O 1.306(3) 0.2471(9) 0.2341(4)
V1_2 V 1.7291(6) 0.5672(2) 0.28484(10)
V1_3 V -0.2709(6) 0.5672(2) 0.28484(10)
V2_2 V 0.2739(6) 0.3913(2) 0.20798(10)
V2_3 V 2.2739(6) 0.3913(2) 0.20798(10)
V3_2 V 0.2455(6) 0.4921(2) 0.06019(10)
V3A V 0.7545(6) 0.5079(2) -0.06019(10)
V3_3 V 2.2455(6) 0.4921(2) 0.06019(10)
V3A_2 V 1.7545(6) 0.5079(2) -0.06019(10)
V4_2 V 1.7597(6) 0.4867(2) 0.44038(10)
V4_3 V -0.2403(6) 0.4867(2) 0.44038(10)
V4A V 0.2403(6) 0.5133(2) 0.55962(10)
V4A_2 V 1.2403(6) 0.5133(2) 0.55962(10)
O1_2 O 1.758(2) 0.4677(9) 0.0349(4)
O1A O 1.242(2) 0.5323(9) -0.0349(4)
O1_3 O -0.242(2) 0.4677(9) 0.0349(4)
O1A_2 O 0.242(2) 0.5323(9) -0.0349(4)
O2_2 O 0.209(3) 0.6228(9) 0.0963(5)
O3_2 O 0.273(2) 0.3741(8) 0.1214(4)
O4_2 O 1.761(2) 0.4477(10) 0.2098(4)
O4_3 O -0.239(2) 0.4477(10) 0.2098(4)
O5_2 O 1.245(2) 0.5110(12) 0.2837(4)
O5_3 O 2.245(2) 0.5110(12) 0.2837(4)
O6_2 O 1.731(2) 0.5851(9) 0.3715(4)
O7_2 O 1.800(3) 0.3439(10) 0.4173(5)
O8_2 O 1.247(2) 0.5192(10) 0.4632(4)
O8A O 0.753(2) 0.4808(10) 0.5368(4)
O8_3 O 2.247(2) 0.5192(10) 0.4632(4)
O8A_2 O 1.753(2) 0.4808(10) 0.5368(4)
O9_2 O 1.695(3) 0.7116(9) 0.2589(4)
O10_2 O 0.306(3) 0.2471(9) 0.2341(4)
loop_
_geom_bond_atom_site_label_1
_geom_bond_atom_site_label_2
_geom_bond_site_symmetry_1
_geom_bond_site_symmetry_2
Ag1 N1 1_555 1_555
V1 O4 1_555 1_555
V2 O3 1_555 1_555
V3 O1 1_555 1_555
V4 O6 1_555 1_555
O1 V3_2 1_555 1_555
O2 V3 1_555 1_555
O3 V3 1_555 1_555
O4 V2 1_555 1_555
O5 V1 1_555 1_555
O6 V1 1_555 1_555
O7 V4 1_555 1_555
O8 V4 1_555 1_555
O9 V1 1_555 1_555
O10 V2 1_555 1_555
N1 C1 1_555 1_555
N2 Ag1 1_555 1_555
C1 H1 1_555 1_555
C2 C1 1_555 1_555
H2 C2 1_555 1_555
C3 C2 1_555 1_555
C4 C3 1_555 1_555
H3 C4 1_555 1_555
C5 N1 1_555 1_555
H4 C5 1_555 1_555
C6 N2 1_555 1_555
H5 C6 1_555 1_555
C7 C6 1_555 1_555
H6 C7 1_555 1_555
C8 C7 1_555 1_555
C9 C8 1_555 1_555
H7 C9 1_555 1_555
C10 N2 1_555 1_555
H8 C10 1_555 1_555
Ag1A N1A 1_555 1_555
Ag1A_2 N2A 1_555 1_555
V1_2 O4_2 1_555 1_555
V1_3 O5 1_555 1_555
V2_2 O4 1_555 1_555
V2_3 O4_2 1_555 1_555
V3_2 O1_3 1_555 1_555
V3A O1 1_555 1_555
V3_3 O1_2 1_555 1_555
V3A_2 O1_2 1_555 1_555
V4_2 O6_2 1_555 1_555
V4_3 O8 1_555 1_555
V4A O8 1_555 1_555
V4A_2 O8_2 1_555 1_555
O1_2 V3 1_555 1_555
O1A V3 1_555 1_555
O1A_2 V3_2 1_555 1_555
O2_2 V3_2 1_555 1_555
O3_2 V2_2 1_555 1_555
O4_2 V2 1_555 1_555
O4_3 V1_3 1_555 1_555
O5_2 V1 1_555 1_555
O5_3 V1_2 1_555 1_555
O6_2 V1_2 1_555 1_555
O7_2 V4_2 1_555 1_555
O8_2 V4 1_555 1_555
O8A V4 1_555 1_555
O8_3 V4_2 1_555 1_555
O8A_2 V4_2 1_555 1_555
O9_2 V1_2 1_555 1_555
O10_2 V2_2 1_555 1_555
N1A C1A 1_555 1_555
N2A C6A 1_555 1_555
N2A_2 Ag1A 1_555 1_555
C1A H1A 1_555 1_555
C2A C1A 1_555 1_555
H2A C2A 1_555 1_555
C3A C3 1_555 1_555
C4A C3A 1_555 1_555
H3A C4A 1_555 1_555
C5A N1A 1_555 1_555
H4A C5A 1_555 1_555
C6A H5A 1_555 1_555
C7A C6A 1_555 1_555
H6A C7A 1_555 1_555
C8A C8 1_555 1_555
C9A C8A 1_555 1_555
H7A C9A 1_555 1_555
C10A N2A 1_555 1_555
H8A C10A 1_555 1_555
V2 O5_2 1_555 1_555
O5 V2_2 1_555 1_555
C4 C5 1_555 1_555
C9 C10 1_555 1_555
V1_2 O5_2 1_555 1_555
V2_2 O4_3 1_555 1_555
V2_3 O5_3 1_555 1_555
V3_2 O3_2 1_555 1_555
V3A O1A 1_555 1_555
V3A O1A_2 1_555 1_555
V3A_2 O1A 1_555 1_555
V4_2 O8_2 1_555 1_555
V4A O8A 1_555 1_555
V4A_2 O8A 1_555 1_555
V4A_2 O8A_2 1_555 1_555
C2A C3A 1_555 1_555
C4A C5A 1_555 1_555
C7A C8A 1_555 1_555
C9A C10A 1_555 1_555

#END
