
#######################################################################
#
#                 Cambridge Crystallographic Data Centre
#                                CCDC 
#
#######################################################################
#
# If this CIF has been generated from an entry in the Cambridge 
# Structural Database, then it will include bibliographic, chemical, 
# crystal, experimental, refinement or atomic coordinate data resulting 
# from the CCDC's data processing and validation procedures.
#
#######################################################################

data_WIMJAE
_symmetry_cell_setting           monoclinic
_symmetry_space_group_name_H-M   'P 21/c'
_symmetry_Int_Tables_number      14
_space_group_name_Hall           '-P 2ybc'
loop_
_symmetry_equiv_pos_site_id
_symmetry_equiv_pos_as_xyz
1 x,y,z
2 -x,1/2+y,1/2-z
3 -x,-y,-z
4 x,1/2-y,1/2+z
_cell_length_a                   3.6154(3)
_cell_length_b                   21.2165(14)
_cell_length_c                   20.2666(13)
_cell_angle_alpha                90
_cell_angle_beta                 90.028(3)
_cell_angle_gamma                90
_cell_volume                     1554.57
loop_
_atom_site_label
_atom_site_type_symbol
_atom_site_fract_x
_atom_site_fract_y
_atom_site_fract_z
V1 V 0.2468(5) 0.53310(5) 0.71934(4)
V2 V -0.2545(5) 0.44227(5) 0.79289(4)
V3 V -0.2546(6) 0.49301(5) 0.93905(5)
V4 V 0.2492(6) 0.49067(5) 0.56049(5)
Cu1 Cu 0.4997(3) 0.70741(5) 0.75227(4)
O1 O -0.252(2) 0.5056(2) 0.72150(19)
O2 O -0.251(2) 0.42885(19) 0.88272(19)
O3 O 0.254(2) 0.54169(18) 0.62942(18)
O4 O 0.255(2) 0.4918(2) 0.4627(2)
O5 O -0.751(2) 0.4811(2) 0.9660(2)
O6 O 0.244(2) 0.47100(19) 0.79158(18)
O7 O 0.252(2) 0.60423(18) 0.7459(2)
O8 O 0.260(2) 0.4208(2) 0.5875(3)
O9 O -0.247(2) 0.5544(2) 0.8935(2)
O10 O -0.248(2) 0.37396(18) 0.7610(2)
N1 N 0.3465(15) 0.7227(3) 0.8407(3)
N2 N -0.306(3) 0.7810(3) 1.1660(3)
C1 C 0.231(4) 0.6754(3) 0.8788(3)
H1 H 0.2377 0.6345 0.8623
C2 C 0.099(2) 0.6857(3) 0.9428(3)
H2 H 0.0059 0.6520 0.9670
C3 C -0.090(2) 0.7093(4) 1.0835(3)
H3 H -0.0431 0.6677 1.0716
C4 C -0.218(3) 0.7224(3) 1.1455(3)
H4 H -0.2465 0.6892 1.1750
C5 C -0.241(3) 0.8288(3) 1.1221(3)
H5 H -0.2787 0.8701 1.1358
C6 C -0.125(2) 0.8183(3) 1.0593(3)
H6 H -0.1080 0.8521 1.0302
C7 C 0.227(3) 0.7938(3) 0.9296(3)
H7 H 0.2242 0.8351 0.9451
C8 C 0.352(2) 0.7818(4) 0.8666(3)
H8 H 0.4423 0.8149 0.8411
C9 C -0.029(2) 0.7577(3) 1.0373(3)
C10 C 0.1044(19) 0.7456(3) 0.9707(3)
V1_2 V -0.7532(5) 0.53310(5) 0.71934(4)
V2_2 V 0.7455(5) 0.44227(5) 0.79289(4)
V3_2 V -1.2546(6) 0.49301(5) 0.93905(5)
V3B V -0.7454(6) 0.50699(5) 1.06095(5)
V4B V -0.2492(6) 0.50933(5) 0.43951(5)
V4B_2 V 0.7508(6) 0.50933(5) 0.43951(5)
Cu1C Cu -0.5003(3) 0.79259(5) 1.25227(4)
O1_2 O 0.748(2) 0.5056(2) 0.72150(19)
O4B O -0.255(2) 0.5082(2) 0.5373(2)
O4B_2 O 0.745(2) 0.5082(2) 0.5373(2)
O5_2 O 0.249(2) 0.4811(2) 0.9660(2)
O5B O -0.249(2) 0.5189(2) 1.0340(2)
O6_2 O -0.756(2) 0.47100(19) 0.79158(18)
N2C N 0.694(3) 0.7190(3) 0.6660(3)
loop_
_geom_bond_atom_site_label_1
_geom_bond_atom_site_label_2
_geom_bond_site_symmetry_1
_geom_bond_site_symmetry_2
V1 O1 1_555 1_555
V2 O1 1_555 1_555
V3 O2 1_555 1_555
V4 O3 1_555 1_555
Cu1 O7 1_555 1_555
O1 V1_2 1_555 1_555
O2 V2 1_555 1_555
O3 V1 1_555 1_555
O4 V4 1_555 1_555
O5 V3 1_555 1_555
O6 V1 1_555 1_555
O7 V1 1_555 1_555
O8 V4 1_555 1_555
O9 V3 1_555 1_555
O10 V2 1_555 1_555
N1 Cu1 1_555 1_555
N2 C4 1_555 1_555
C1 N1 1_555 1_555
H1 C1 1_555 1_555
C2 C1 1_555 1_555
H2 C2 1_555 1_555
C3 H3 1_555 1_555
C4 C3 1_555 1_555
H4 C4 1_555 1_555
C5 N2 1_555 1_555
H5 C5 1_555 1_555
C6 C5 1_555 1_555
H6 C6 1_555 1_555
C7 H7 1_555 1_555
C8 N1 1_555 1_555
H8 C8 1_555 1_555
C9 C3 1_555 1_555
C10 C2 1_555 1_555
V1_2 O6_2 1_555 1_555
V2_2 O6 1_555 1_555
V3_2 O5 1_555 1_555
V3B O5 1_555 1_555
V4B O4 1_555 1_555
V4B_2 O4 1_555 1_555
Cu1C N2 1_555 1_555
O1_2 V1 1_555 1_555
O4B V4 1_555 1_555
O4B_2 V4 1_555 1_555
O5_2 V3 1_555 1_555
O5B V3 1_555 1_555
O6_2 V2 1_555 1_555
N2C Cu1 1_555 1_555
V2 O6 1_555 1_555
C6 C9 1_555 1_555
C7 C8 1_555 1_555
C7 C10 1_555 1_555
C9 C10 1_555 1_555
V2_2 O1_2 1_555 1_555
V3B O5B 1_555 1_555
V4B O4B 1_555 1_555
V4B_2 O4B_2 1_555 1_555

#END
