
#######################################################################
#
#                 Cambridge Crystallographic Data Centre
#                                CCDC 
#
#######################################################################
#
# If this CIF has been generated from an entry in the Cambridge 
# Structural Database, then it will include bibliographic, chemical, 
# crystal, experimental, refinement or atomic coordinate data resulting 
# from the CCDC's data processing and validation procedures.
#
#######################################################################

data_WIMJUZ
_symmetry_cell_setting           monoclinic
_symmetry_space_group_name_H-M   'P 21/c'
_symmetry_Int_Tables_number      14
_space_group_name_Hall           '-P 2ybc'
loop_
_symmetry_equiv_pos_site_id
_symmetry_equiv_pos_as_xyz
1 x,y,z
2 -x,1/2+y,1/2-z
3 -x,-y,-z
4 x,1/2-y,1/2+z
_cell_length_a                   11.5427(7)
_cell_length_b                   18.4575(10)
_cell_length_c                   10.4085(6)
_cell_angle_alpha                90
_cell_angle_beta                 102.5120(10)
_cell_angle_gamma                90
_cell_volume                     2164.86
loop_
_atom_site_label
_atom_site_type_symbol
_atom_site_fract_x
_atom_site_fract_y
_atom_site_fract_z
Cd1 Cd 0.941776(14) 0.077521(9) 0.634476(14)
C1 C 0.3918(3) -0.19972(17) 0.6171(3)
H1 H 0.3524 -0.2373 0.5660
C2 C 0.4727(3) -0.15844(16) 0.5692(3)
H2 H 0.4865 -0.1685 0.4863
C3 C 0.5334(2) -0.10247(14) 0.6422(2)
C4 C 0.5141(3) -0.09067(16) 0.7679(3)
H3 H 0.5568 -0.0548 0.8205
C5 C 0.4325(3) -0.13138(17) 0.8156(3)
H4 H 0.4204 -0.1220 0.8995
C6 C 0.3680(2) -0.18621(14) 0.7405(2)
C7 C 0.2783(2) -0.22860(13) 0.7887(2)
C8 C 0.2368(2) -0.29764(14) 0.7666(3)
H5 H 0.2630 -0.3306 0.7115
C9 C 0.1409(2) -0.25219(13) 0.9006(3)
H6 H 0.0889 -0.2462 0.9567
C10 C 0.6201(2) -0.05790(14) 0.5945(2)
C11 C 0.7082(2) -0.01438(13) 0.6612(2)
H7 H 0.7225 -0.0050 0.7511
C12 C 0.7238(2) -0.01191(14) 0.4589(2)
H8 H 0.7494 -0.0016 0.3821
C13 C 1.0716(2) 0.12210(12) 1.0433(2)
C14 C 1.1622(2) 0.17332(13) 1.0674(2)
H9 H 1.1983 0.1886 1.0005
C15 C 1.1971(2) 0.20098(13) 1.1936(2)
C16 C 1.1487(2) 0.17794(13) 1.2973(2)
H10 H 1.1740 0.1975 1.3811
C17 C 1.0232(2) 0.09750(12) 1.1464(2)
H11 H 0.9644 0.0622 1.1305
C18 C 1.0612(2) 0.12477(12) 1.2728(2)
C19 C 1.0092(2) 0.09580(13) 1.3835(2)
C20 C 1.0249(2) 0.09631(13) 0.9048(2)
N1 N 0.77319(18) 0.01382(11) 0.5757(2)
N2 N 0.6317(2) -0.05492(13) 0.4650(2)
H12 H 0.5873 -0.0769 0.3996
N3 N 0.15153(19) -0.31211(11) 0.8363(2)
N4 N 0.21501(19) -0.20043(11) 0.8749(2)
H13 H 0.2216 -0.1573 0.9068
N5 N 1.2897(2) 0.25655(12) 1.2184(2)
O1 O 0.92514(17) 0.06639(10) 0.87607(17)
O2 O 1.08679(16) 0.10708(11) 0.82029(16)
O3 O 0.95328(16) 0.03715(10) 1.36633(17)
O4 O 1.02608(18) 0.13279(10) 1.48819(16)
O5 O 1.3220(2) 0.28042(12) 1.32975(19)
O6 O 1.3317(3) 0.27662(15) 1.1261(2)
Cd1_2 Cd 0.941776(14) 0.077521(9) 1.634476(14)
Cd1A Cd 0.058224(14) -0.422479(9) 0.865524(14)
Cd1B Cd 1.058224(14) -0.077521(9) 1.365524(14)
N3A N 0.84847(19) 0.18789(11) 0.6637(2)
O3B O 1.04672(16) -0.03715(10) 0.63367(17)
O4_2 O 1.02608(18) 0.13279(10) 0.48819(16)
O7 O 0.72399(19) 0.07254(10) 0.9679(2)
H14 H 0.7857 0.0687 0.9416
H15 H 0.7050 0.0316 0.9859
O8 O 0.50180(19) 0.10590(12) 0.7947(2)
H16 H 0.4915 0.1427 0.8351
H17 H 0.5620 0.0965 0.8503
O9 O 0.6918(2) 0.95842(15) 0.1151(3)
H18 H 0.7433 0.9300 0.1510
H19 H 0.6429 0.9372 0.1481
loop_
_geom_bond_atom_site_label_1
_geom_bond_atom_site_label_2
_geom_bond_site_symmetry_1
_geom_bond_site_symmetry_2
Cd1 N1 1_555 1_555
C1 H1 1_555 1_555
C2 C1 1_555 1_555
H2 C2 1_555 1_555
C3 C2 1_555 1_555
C4 C3 1_555 1_555
H3 C4 1_555 1_555
C5 C4 1_555 1_555
H4 C5 1_555 1_555
C6 C1 1_555 1_555
C7 C6 1_555 1_555
C8 C7 1_555 1_555
H5 C8 1_555 1_555
C9 H6 1_555 1_555
C10 C3 1_555 1_555
C11 C10 1_555 1_555
H7 C11 1_555 1_555
C12 H8 1_555 1_555
C13 C14 1_555 1_555
C14 H9 1_555 1_555
C15 C14 1_555 1_555
C16 C15 1_555 1_555
H10 C16 1_555 1_555
C17 C13 1_555 1_555
H11 C17 1_555 1_555
C18 C16 1_555 1_555
C19 C18 1_555 1_555
C20 C13 1_555 1_555
N1 C11 1_555 1_555
N2 C10 1_555 1_555
H12 N2 1_555 1_555
N3 C8 1_555 1_555
N4 C7 1_555 1_555
H13 N4 1_555 1_555
N5 C15 1_555 1_555
O1 Cd1 1_555 1_555
O2 Cd1 1_555 1_555
O3 C19 1_555 1_555
O4 C19 1_555 1_555
O5 N5 1_555 1_555
O6 N5 1_555 1_555
O7 H14 1_555 1_555
H15 O7 1_555 1_555
O8 H16 1_555 1_555
H17 O8 1_555 1_555
O9 H18 1_555 1_555
H19 O9 1_555 1_555
Cd1_2 O4 1_555 1_555
Cd1A N3 1_555 1_555
Cd1B O3 1_555 1_555
N3A Cd1 1_555 1_555
O3B Cd1 1_555 1_555
O4_2 Cd1 1_555 1_555
C5 C6 1_555 1_555
C9 N3 1_555 1_555
C9 N4 1_555 1_555
C12 N1 1_555 1_555
C12 N2 1_555 1_555
C17 C18 1_555 1_555
C20 O1 1_555 1_555
C20 O2 1_555 1_555

#END
