
#######################################################################
#
#                 Cambridge Crystallographic Data Centre
#                                CCDC 
#
#######################################################################
#
# If this CIF has been generated from an entry in the Cambridge 
# Structural Database, then it will include bibliographic, chemical, 
# crystal, experimental, refinement or atomic coordinate data resulting 
# from the CCDC's data processing and validation procedures.
#
#######################################################################

data_WIMJIN
_symmetry_cell_setting           triclinic
_symmetry_space_group_name_H-M   'P -1'
_symmetry_Int_Tables_number      2
_space_group_name_Hall           '-P 1'
loop_
_symmetry_equiv_pos_site_id
_symmetry_equiv_pos_as_xyz
1 x,y,z
2 -x,-y,-z
_cell_length_a                   12.8713(7)
_cell_length_b                   14.7090(8)
_cell_length_c                   17.8704(9)
_cell_angle_alpha                81.8980(10)
_cell_angle_beta                 88.842(2)
_cell_angle_gamma                81.6580(10)
_cell_volume                     3314.09
loop_
_atom_site_label
_atom_site_type_symbol
_atom_site_fract_x
_atom_site_fract_y
_atom_site_fract_z
Ni1 Ni 0.28501(3) 0.93698(2) 0.54252(2)
Ni2 Ni 0.71934(3) 0.49465(3) -0.04940(2)
C1 C 0.7093(3) -0.3414(2) -0.11436(18)
C2 C 0.7130(3) -0.2419(2) -0.14491(18)
C3 C 0.7814(3) -0.1929(2) -0.11430(19)
H1 H 0.8242 -0.2215 -0.0739
C4 C 0.7865(3) -0.1011(3) -0.1437(2)
H2 H 0.8312 -0.0676 -0.1223
C5 C 0.7249(4) -0.0600(2) -0.2050(2)
C6 C 0.6559(4) -0.1082(3) -0.2349(2)
H3 H 0.6129 -0.0793 -0.2751
C7 C 0.6502(3) -0.1983(3) -0.2061(2)
H4 H 0.6042 -0.2308 -0.2273
C8 C 0.7311(4) 0.1036(2) -0.2040(2)
C9 C 0.7754(4) 0.1766(3) -0.2424(2)
H5 H 0.8089 0.1706 -0.2884
C10 C 0.7697(3) 0.2586(3) -0.2121(2)
H6 H 0.7986 0.3083 -0.2381
C11 C 0.7208(3) 0.2667(2) -0.14268(18)
C12 C 0.6780(3) 0.1923(2) -0.1051(2)
H7 H 0.6452 0.1971 -0.0586
C13 C 0.6833(3) 0.1109(2) -0.1358(2)
H8 H 0.6545 0.0610 -0.1100
C14 C 0.7152(3) 0.3562(2) -0.11059(18)
C15 C 1.0312(3) 0.2950(2) 0.23786(18)
H9 H 1.0504 0.3539 0.2350
C16 C 1.0666(3) 0.2285(2) 0.29716(18)
H10 H 1.1096 0.2427 0.3337
C17 C 1.0382(2) 0.1395(2) 0.30296(17)
C18 C 0.9750(3) 0.1205(2) 0.2469(2)
H11 H 0.9558 0.0616 0.2493
C19 C 0.9398(3) 0.1884(3) 0.1872(2)
H12 H 0.8972 0.1745 0.1501
C20 C 0.9674(2) 0.2761(2) 0.18231(18)
C21 C 0.9258(3) 0.3485(2) 0.12110(18)
C22 C 0.8563(3) 0.3491(2) 0.06379(19)
H13 H 0.8251 0.2984 0.0551
C23 C 0.8974(3) 0.4865(2) 0.05282(19)
H14 H 0.9004 0.5489 0.0362
C24 C 1.0769(2) 0.0696(2) 0.36595(17)
C25 C 1.1657(2) 0.0591(2) 0.40863(17)
H15 H 1.2160 0.0990 0.4029
C26 C 1.0836(2) -0.0555(2) 0.45163(17)
H16 H 1.0651 -0.1088 0.4799
C27 C 0.5675(3) 0.7431(3) 0.1889(2)
H17 H 0.5902 0.7671 0.1414
C28 C 0.5425(3) 0.8020(3) 0.2424(2)
H18 H 0.5481 0.8647 0.2306
C29 C 0.5092(3) 0.7677(2) 0.31348(19)
C30 C 0.5054(4) 0.6733(3) 0.3302(2)
H19 H 0.4860 0.6488 0.3784
C31 C 0.5300(4) 0.6155(3) 0.2762(2)
H20 H 0.5267 0.5524 0.2884
C32 C 0.5597(3) 0.6500(3) 0.20383(19)
C33 C 0.5817(3) 0.5903(3) 0.14456(19)
C34 C 0.6324(3) 0.6045(3) 0.0772(2)
H21 H 0.6637 0.6567 0.0598
C35 C 0.5798(3) 0.4729(3) 0.0821(2)
H22 H 0.5668 0.4161 0.0701
C36 C 0.4726(3) 0.8296(2) 0.36902(18)
C37 C 0.4054(3) 0.8196(2) 0.42872(19)
H23 H 0.3744 0.7668 0.4445
C38 C 0.4473(2) 0.9570(2) 0.42280(18)
H24 H 0.4517 1.0168 0.4325
C39 C 0.2398(2) 0.7581(2) 0.62574(18)
C40 C 0.1863(3) 0.6727(2) 0.62768(18)
C41 C 0.1141(3) 0.6691(2) 0.5720(2)
H25 H 0.0990 0.7189 0.5337
C42 C 0.0644(3) 0.5915(2) 0.5733(2)
H26 H 0.0161 0.5887 0.5360
C43 C 0.0871(3) 0.5203(2) 0.6292(2)
C44 C 0.1570(3) 0.5220(2) 0.6858(2)
H27 H 0.1707 0.4721 0.7242
C45 C 0.2069(3) 0.6002(2) 0.6844(2)
H28 H 0.2545 0.6029 0.7222
C46 C 0.0877(3) 0.3592(2) 0.6227(2)
C47 C 0.0407(3) 0.2840(2) 0.6516(2)
H29 H -0.0231 0.2920 0.6770
C48 C 0.0895(3) 0.1956(2) 0.6428(2)
H30 H 0.0593 0.1442 0.6639
C49 C 0.1827(2) 0.1830(2) 0.60273(18)
C50 C 0.2294(3) 0.2607(2) 0.5756(2)
H31 H 0.2931 0.2533 0.5501
C51 C 0.1826(3) 0.3485(2) 0.5861(2)
H32 H 0.2151 0.3999 0.5686
C52 C 0.2292(2) 0.08991(19) 0.58640(16)
N1 N 0.8395(2) 0.43460(19) 0.02142(15)
N2 N 0.9510(2) 0.4364(2) 0.11205(16)
H33 H 0.9941 0.4564 0.1398
N3 N 0.6305(2) 0.5305(2) 0.03868(16)
N4 N 0.5490(3) 0.5061(2) 0.14603(18)
H34 H 0.5144 0.4789 0.1820
N5 N 0.3902(2) 0.89918(17) 0.46198(14)
N6 N 0.4978(2) 0.91709(19) 0.36729(15)
H35 H 0.5397 0.9424 0.3354
N7 N 1.0255(2) -0.00366(17) 0.39433(14)
H36 H 0.9665 -0.0146 0.3784
N8 N 1.1701(2) -0.02019(16) 0.46203(14)
O1 O 0.7654(2) 0.41914(15) -0.14067(13)
O2 O 0.66185(18) 0.36724(16) -0.05176(13)
O3 O 0.7349(3) 0.02776(18) -0.24247(15)
O4 O 0.6348(2) -0.38170(18) -0.13091(14)
O5 O 0.78166(19) -0.38436(16) -0.07094(14)
O6 O 0.22906(18) 0.81494(14) 0.56675(12)
O7 O 0.2936(2) 0.76412(17) 0.68212(13)
O8 O 0.03133(19) 0.44457(15) 0.63077(17)
O9 O 0.19040(16) 0.01892(13) 0.61739(11)
O10 O 0.30459(16) 0.08020(13) 0.54071(12)
O11 O 0.40140(19) 0.89838(16) 0.62784(13)
H37 H 0.3782 0.8662 0.6637
H38 H 0.454(3) 0.868(3) 0.617(2)
Ni1_2 Ni 0.28501(3) -0.06302(2) 0.54252(2)
Ni1_3 Ni 1.28501(3) -0.06302(2) 0.54252(2)
Ni2_2 Ni 0.71934(3) -0.50535(3) -0.04940(2)
N8_2 N 0.1701(2) 0.97981(16) 0.46203(14)
O4_2 O 0.6348(2) 0.61830(18) -0.13091(14)
O5_2 O 0.78166(19) 0.61564(16) -0.07094(14)
O9_2 O 0.19040(16) 1.01892(13) 0.61739(11)
O10_2 O 0.30459(16) 1.08020(13) 0.54071(12)
C53 C -0.0667(3) 0.0811(3) 0.9819(3)
H39 H -0.1134 0.1355 0.9700
C54 C 0.0348(3) 0.0765(3) 0.9541(2)
C55 C 0.0997(3) -0.0070(3) 0.9733(3)
H40 H 0.1682 -0.0131 0.9551
C56 C 0.0686(3) 0.1559(3) 0.9078(2)
C57 C 0.0241(4) 0.2485(3) 0.8949(3)
H41 H -0.0371 0.2730 0.9178
C58 C 0.1597(4) 0.2399(3) 0.8263(3)
H42 H 0.2121 0.2557 0.7924
N9 N 0.1572(2) 0.1528(2) 0.86199(19)
H43 H 0.2019 0.1045 0.8572
N10 N 0.0819(3) 0.2990(3) 0.8442(2)
C53A C 0.0667(3) -0.0811(3) 1.0181(3)
H39A H 0.1134 -0.1355 1.0300
C54A C -0.0348(3) -0.0765(3) 1.0459(2)
C55A C -0.0997(3) 0.0070(3) 1.0267(3)
H40A H -0.1682 0.0131 1.0449
C56A C -0.0686(3) -0.1559(3) 1.0922(2)
C57A C -0.0241(4) -0.2485(3) 1.1051(3)
H41A H 0.0371 -0.2730 1.0822
C58A C -0.1597(4) -0.2399(3) 1.1737(3)
H42A H -0.2121 -0.2557 1.2076
N9A N -0.1572(2) -0.1528(2) 1.13801(19)
H43A H -0.2019 -0.1045 1.1428
N10A N -0.0819(3) -0.2990(3) 1.1558(2)
C59 C 0.4790(3) 0.5637(3) 0.54973(19)
H44 H 0.4639 0.6074 0.5827
C60 C 0.5812(3) 0.5206(2) 0.54410(17)
C61 C 0.6013(3) 0.4566(2) 0.49253(19)
H45 H 0.6696 0.4275 0.4867
C62 C 0.6654(3) 0.5382(2) 0.59252(18)
C63 C 0.7566(3) 0.4833(3) 0.6134(2)
H46 H 0.7824 0.4274 0.5964
C64 C 0.7410(3) 0.6016(3) 0.6730(2)
H47 H 0.7546 0.6423 0.7057
N11 N 0.6559(2) 0.6143(2) 0.6303(2)
N12 N 0.8041(2) 0.5255(2) 0.66416(18)
H48 H 0.8636 0.5059 0.6860
C59A C 0.5210(3) 0.4363(3) 0.45027(19)
H44A H 0.5361 0.3926 0.4173
C60A C 0.4188(3) 0.4794(2) 0.45590(17)
C61A C 0.3987(3) 0.5434(2) 0.50747(19)
H45A H 0.3304 0.5725 0.5133
C62A C 0.3346(3) 0.4618(2) 0.40748(18)
C63A C 0.2434(3) 0.5167(3) 0.3866(2)
H46A H 0.2176 0.5726 0.4036
C64A C 0.2590(3) 0.3984(3) 0.3270(2)
H47A H 0.2454 0.3577 0.2943
N11A N 0.3441(2) 0.3857(2) 0.3697(2)
N12A N 0.1959(2) 0.4745(2) 0.33584(18)
H48A H 0.1364 0.4941 0.3140
C65 C 0.5338(3) 0.9144(2) 0.9781(2)
H49 H 0.5577 0.8567 0.9635
C66 C 0.4439(3) 0.9669(2) 0.94528(17)
C67 C 0.4117(3) 1.0535(2) 0.96753(19)
H50 H 0.3523 1.0904 0.9455
C68 C 0.3863(3) 0.9330(2) 0.88694(18)
C69 C 0.3944(3) 0.8441(3) 0.8702(2)
H51 H 0.4359 0.7914 0.8942
C70 C 0.2848(3) 0.9373(4) 0.7933(2)
H52 H 0.2377 0.9587 0.7538
N13 N 0.3162(2) 0.9907(2) 0.83895(17)
N14 N 0.3280(3) 0.8496(3) 0.81010(18)
H53 H 0.3165 0.8043 0.7874
C65A C 0.4662(3) 1.0856(2) 1.0219(2)
H49A H 0.4423 1.1433 1.0365
C66A C 0.5561(3) 1.0331(2) 1.05472(17)
C67A C 0.5883(3) 0.9465(2) 1.03247(19)
H50A H 0.6477 0.9096 1.0545
C68A C 0.6137(3) 1.0670(2) 1.11306(18)
C69A C 0.6056(3) 1.1559(3) 1.1298(2)
H51A H 0.5641 1.2086 1.1058
C70A C 0.7152(3) 1.0627(4) 1.2067(2)
H52A H 0.7623 1.0413 1.2462
N13A N 0.6838(2) 1.0093(2) 1.16105(17)
N14A N 0.6720(3) 1.1504(3) 1.18990(18)
H53A H 0.6835 1.1957 1.2126
O12 O 0.94484(19) 0.46326(17) 0.79334(14)
H54 H 0.8984 0.4465 0.8219
H55 H 0.9932 0.4227 0.8088
O13 O 0.4063(2) 0.18860(17) 0.41687(15)
H56 H 0.3704 0.1638 0.4499
H57 H 0.3972 0.2454 0.4078
O14 O 0.5104(4) 0.3632(3) 0.2555(3)
loop_
_geom_bond_atom_site_label_1
_geom_bond_atom_site_label_2
_geom_bond_site_symmetry_1
_geom_bond_site_symmetry_2
Ni1 N5 1_555 1_555
Ni2 N1 1_555 1_555
C1 C2 1_555 1_555
C2 C3 1_555 1_555
C3 H1 1_555 1_555
C4 C3 1_555 1_555
H2 C4 1_555 1_555
C5 C4 1_555 1_555
C6 C5 1_555 1_555
H3 C6 1_555 1_555
C7 C2 1_555 1_555
H4 C7 1_555 1_555
C8 C9 1_555 1_555
C9 H5 1_555 1_555
C10 C9 1_555 1_555
H6 C10 1_555 1_555
C11 C10 1_555 1_555
C12 C11 1_555 1_555
H7 C12 1_555 1_555
C13 C8 1_555 1_555
H8 C13 1_555 1_555
C14 C11 1_555 1_555
C15 H9 1_555 1_555
C16 C15 1_555 1_555
H10 C16 1_555 1_555
C17 C16 1_555 1_555
C18 C17 1_555 1_555
H11 C18 1_555 1_555
C19 C18 1_555 1_555
H12 C19 1_555 1_555
C20 C15 1_555 1_555
C21 C20 1_555 1_555
C22 C21 1_555 1_555
H13 C22 1_555 1_555
C23 H14 1_555 1_555
C24 C17 1_555 1_555
C25 C24 1_555 1_555
H15 C25 1_555 1_555
C26 H16 1_555 1_555
C27 H17 1_555 1_555
C28 C27 1_555 1_555
H18 C28 1_555 1_555
C29 C28 1_555 1_555
C30 C29 1_555 1_555
H19 C30 1_555 1_555
C31 C30 1_555 1_555
H20 C31 1_555 1_555
C32 C27 1_555 1_555
C33 C32 1_555 1_555
C34 C33 1_555 1_555
H21 C34 1_555 1_555
C35 H22 1_555 1_555
C36 C29 1_555 1_555
C37 C36 1_555 1_555
H23 C37 1_555 1_555
C38 H24 1_555 1_555
C39 C40 1_555 1_555
C40 C41 1_555 1_555
C41 H25 1_555 1_555
C42 C41 1_555 1_555
H26 C42 1_555 1_555
C43 C42 1_555 1_555
C44 C43 1_555 1_555
H27 C44 1_555 1_555
C45 C40 1_555 1_555
H28 C45 1_555 1_555
C46 C47 1_555 1_555
C47 H29 1_555 1_555
C48 C47 1_555 1_555
H30 C48 1_555 1_555
C49 C48 1_555 1_555
C50 C49 1_555 1_555
H31 C50 1_555 1_555
C51 C46 1_555 1_555
H32 C51 1_555 1_555
C52 C49 1_555 1_555
N1 C22 1_555 1_555
N2 C21 1_555 1_555
H33 N2 1_555 1_555
N3 Ni2 1_555 1_555
N4 C33 1_555 1_555
H34 N4 1_555 1_555
N5 C37 1_555 1_555
N6 C36 1_555 1_555
H35 N6 1_555 1_555
N7 C24 1_555 1_555
H36 N7 1_555 1_555
N8 C25 1_555 1_555
O1 Ni2 1_555 1_555
O2 Ni2 1_555 1_555
O3 C5 1_555 1_555
O4 C1 1_555 1_555
O5 C1 1_555 1_555
O6 Ni1 1_555 1_555
O7 C39 1_555 1_555
O8 C43 1_555 1_555
O9 C52 1_555 1_555
O10 C52 1_555 1_555
O11 Ni1 1_555 1_555
H37 O11 1_555 1_555
H38 O11 1_555 1_555
C53 H39 1_555 1_555
C54 C53 1_555 1_555
C55 C54 1_555 1_555
H40 C55 1_555 1_555
C56 C54 1_555 1_555
C57 C56 1_555 1_555
H41 C57 1_555 1_555
C58 H42 1_555 1_555
N9 C56 1_555 1_555
H43 N9 1_555 1_555
N10 C57 1_555 1_555
C59 H44 1_555 1_555
C60 C59 1_555 1_555
C61 C60 1_555 1_555
H45 C61 1_555 1_555
C62 C60 1_555 1_555
C63 C62 1_555 1_555
H46 C63 1_555 1_555
C64 H47 1_555 1_555
N11 C62 1_555 1_555
N12 C63 1_555 1_555
H48 N12 1_555 1_555
C65 H49 1_555 1_555
C66 C65 1_555 1_555
C67 C66 1_555 1_555
H50 C67 1_555 1_555
C68 C66 1_555 1_555
C69 C68 1_555 1_555
H51 C69 1_555 1_555
C70 H52 1_555 1_555
N13 C68 1_555 1_555
N14 C69 1_555 1_555
H53 N14 1_555 1_555
O12 H54 1_555 1_555
H55 O12 1_555 1_555
O13 H56 1_555 1_555
H57 O13 1_555 1_555
Ni1_2 O9 1_555 1_555
Ni1_3 N8 1_555 1_555
Ni2_2 O4 1_555 1_555
N8_2 Ni1 1_555 1_555
O4_2 Ni2 1_555 1_555
O5_2 Ni2 1_555 1_555
O9_2 Ni1 1_555 1_555
O10_2 Ni1 1_555 1_555
C53A C55 1_555 1_555
H39A C53A 1_555 1_555
C54A C53A 1_555 1_555
C55A C53 1_555 1_555
H40A C55A 1_555 1_555
C56A C54A 1_555 1_555
C57A C56A 1_555 1_555
H41A C57A 1_555 1_555
C58A H42A 1_555 1_555
N9A C56A 1_555 1_555
H43A N9A 1_555 1_555
N10A C57A 1_555 1_555
C59A C61 1_555 1_555
H44A C59A 1_555 1_555
C60A C59A 1_555 1_555
C61A C59 1_555 1_555
H45A C61A 1_555 1_555
C62A C60A 1_555 1_555
C63A C62A 1_555 1_555
H46A C63A 1_555 1_555
C64A H47A 1_555 1_555
N11A C62A 1_555 1_555
N12A C63A 1_555 1_555
H48A N12A 1_555 1_555
C65A C67 1_555 1_555
H49A C65A 1_555 1_555
C66A C65A 1_555 1_555
C67A C65 1_555 1_555
H50A C67A 1_555 1_555
C68A C66A 1_555 1_555
C69A C68A 1_555 1_555
H51A C69A 1_555 1_555
C70A H52A 1_555 1_555
N13A C68A 1_555 1_555
N14A C69A 1_555 1_555
H53A N14A 1_555 1_555
C6 C7 1_555 1_555
C8 O3 1_555 1_555
C12 C13 1_555 1_555
C14 O1 1_555 1_555
C14 O2 1_555 1_555
C19 C20 1_555 1_555
C23 N1 1_555 1_555
C23 N2 1_555 1_555
C26 N7 1_555 1_555
C26 N8 1_555 1_555
C31 C32 1_555 1_555
C34 N3 1_555 1_555
C35 N3 1_555 1_555
C35 N4 1_555 1_555
C38 N5 1_555 1_555
C38 N6 1_555 1_555
C39 O6 1_555 1_555
C44 C45 1_555 1_555
C46 O8 1_555 1_555
C50 C51 1_555 1_555
O5 Ni2_2 1_555 1_555
O10 Ni1_2 1_555 1_555
C58 N9 1_555 1_555
C58 N10 1_555 1_555
C64 N11 1_555 1_555
C64 N12 1_555 1_555
C70 N13 1_555 1_555
C70 N14 1_555 1_555
C54A C55A 1_555 1_555
C58A N9A 1_555 1_555
C58A N10A 1_555 1_555
C60A C61A 1_555 1_555
C64A N11A 1_555 1_555
C64A N12A 1_555 1_555
C66A C67A 1_555 1_555
C70A N13A 1_555 1_555
C70A N14A 1_555 1_555

#END
