
#######################################################################
#
#                 Cambridge Crystallographic Data Centre
#                                CCDC 
#
#######################################################################
#
# If this CIF has been generated from an entry in the Cambridge 
# Structural Database, then it will include bibliographic, chemical, 
# crystal, experimental, refinement or atomic coordinate data resulting 
# from the CCDC's data processing and validation procedures.
#
#######################################################################

data_WIMKAG
_symmetry_cell_setting           triclinic
_symmetry_space_group_name_H-M   'P -1'
_symmetry_Int_Tables_number      2
_space_group_name_Hall           '-P 1'
loop_
_symmetry_equiv_pos_site_id
_symmetry_equiv_pos_as_xyz
1 x,y,z
2 -x,-y,-z
_cell_length_a                   8.2485(5)
_cell_length_b                   11.8546(7)
_cell_length_c                   14.3959(9)
_cell_angle_alpha                103.0260(10)
_cell_angle_beta                 95.760(2)
_cell_angle_gamma                94.0550(10)
_cell_volume                     1358.18
loop_
_atom_site_label
_atom_site_type_symbol
_atom_site_fract_x
_atom_site_fract_y
_atom_site_fract_z
Co1 Co 0.83851(4) 0.85651(3) 0.72806(2)
C1 C 0.4667(3) 1.2718(2) 1.15138(18)
H1 H 0.3952 1.3291 1.1640
C2 C 0.5001(3) 1.2296(2) 1.05767(18)
H2 H 0.4507 1.2589 1.0083
C3 C 0.6066(3) 1.14396(18) 1.03732(16)
C4 C 0.6778(3) 1.1013(2) 1.11313(18)
H3 H 0.7486 1.0435 1.1008
C5 C 0.6448(3) 1.1433(2) 1.20562(18)
H4 H 0.6938 1.1138 1.2550
C6 C 0.5388(3) 1.2295(2) 1.22637(17)
C7 C 0.5025(3) 1.2725(2) 1.32588(18)
C8 C 0.6015(4) 1.3378(3) 1.4032(2)
H5 H 0.7109 1.3644 1.4051
C9 C 0.3603(4) 1.3024(2) 1.44591(19)
H6 H 0.2749 1.3017 1.4834
C10 C 0.6466(3) 1.09661(18) 0.93977(16)
C11 C 0.7441(3) 1.01121(19) 0.90748(17)
H7 H 0.8040 0.9718 0.9461
C12 C 0.6428(3) 1.0666(2) 0.78387(18)
H8 H 0.6183 1.0735 0.7210
C13 C 1.3927(3) 0.9002(2) 0.48066(17)
H9 H 1.3210 0.8329 0.4672
C14 C 1.3542(3) 1.00035(19) 0.54382(15)
C15 C 1.4646(3) 1.1001(2) 0.56190(17)
H10 H 1.4415 1.1678 0.6033
C16 C 1.2078(3) 0.99672(19) 0.59302(16)
C17 C 1.0965(3) 0.9072(2) 0.59597(16)
H11 H 1.0931 0.8316 0.5590
C18 C 1.0366(4) 1.0576(2) 0.6968(2)
H12 H 0.9855 1.1066 0.7424
C19 C 1.0038(3) 0.70606(19) 0.78864(19)
C20 C 1.0878(3) 0.63118(18) 0.84604(17)
C21 C 1.1612(3) 0.53504(18) 0.79938(17)
H13 H 1.1582 0.5183 0.7329
C22 C 1.2384(3) 0.46420(19) 0.85119(18)
C23 C 1.2467(3) 0.4916(2) 0.95061(19)
H14 H 1.3014 0.4467 0.9865
C24 C 1.1726(3) 0.5864(2) 0.99530(17)
C25 C 1.0925(3) 0.65662(19) 0.94513(18)
H15 H 1.0426 0.7196 0.9771
C26 C 1.3073(4) 0.3550(2) 0.8006(2)
N1 N 0.7405(2) 0.99216(16) 0.80944(14)
N2 N 0.5837(2) 1.13089(17) 0.85978(15)
H16 H 0.5182 1.1840 0.8586
N3 N 0.5084(3) 1.3568(2) 1.47760(17)
H17 H 0.5403 1.3970 1.5350
N4 N 0.3502(3) 1.24925(18) 1.35404(15)
N5 N 0.9895(3) 0.94522(17) 0.66197(15)
N6 N 1.1671(3) 1.09148(18) 0.65776(17)
H18 H 1.2167 1.1605 0.6709
N7 N 1.1779(4) 0.6127(2) 1.10113(17)
O1 O 0.9969(3) 0.68317(17) 0.70012(14)
O2 O 0.9402(2) 0.79330(14) 0.83442(13)
O3 O 1.1080(4) 0.6946(2) 1.14025(17)
O4 O 1.2494(4) 0.5484(3) 1.14319(18)
O5 O 1.3824(4) 0.3007(2) 0.8518(2)
O6 O 1.2764(3) 0.32437(17) 0.71096(16)
C13A C 1.6073(3) 1.0998(2) 0.51934(17)
H9A H 1.6790 1.1671 0.5328
C14A C 1.6458(3) 0.99965(19) 0.45618(15)
C15A C 1.5354(3) 0.8999(2) 0.43810(17)
H10A H 1.5585 0.8322 0.3967
C16A C 1.7922(3) 1.00328(19) 0.40698(16)
C17A C 1.9035(3) 1.0928(2) 0.40403(16)
H11A H 1.9069 1.1684 0.4410
C18A C 1.9634(4) 0.9424(2) 0.3032(2)
H12A H 2.0145 0.8934 0.2576
N5A N 2.0105(3) 1.05478(17) 0.33803(15)
N6A N 1.8329(3) 0.90852(18) 0.34224(17)
H18A H 1.7833 0.8395 0.3291
Co1A Co 0.16149(4) 1.14349(3) 1.27194(2)
C1A C 0.5333(3) 0.7282(2) 0.84862(18)
H1A H 0.6048 0.6709 0.8360
C2A C 0.4999(3) 0.7704(2) 0.94233(18)
H2A H 0.5493 0.7411 0.9917
C3A C 0.3934(3) 0.85604(18) 0.96268(16)
C4A C 0.3222(3) 0.8987(2) 0.88687(18)
H3A H 0.2514 0.9565 0.8992
C5A C 0.3552(3) 0.8567(2) 0.79438(18)
H4A H 0.3062 0.8862 0.7450
C6A C 0.4612(3) 0.7705(2) 0.77363(17)
C7A C 0.4975(3) 0.7275(2) 0.67412(18)
C8A C 0.3985(4) 0.6622(3) 0.5968(2)
H5A H 0.2891 0.6356 0.5949
C9A C 0.6397(4) 0.6976(2) 0.55409(19)
H6A H 0.7251 0.6983 0.5166
C10A C 0.3534(3) 0.90339(18) 1.06023(16)
C11A C 0.2559(3) 0.98879(19) 1.09252(17)
H7A H 0.1960 1.0282 1.0539
C12A C 0.3572(3) 0.9334(2) 1.21613(18)
H8A H 0.3817 0.9265 1.2790
C19A C -0.0038(3) 1.29394(19) 1.21136(19)
C20A C -0.0878(3) 1.36882(18) 1.15396(17)
C21A C -0.1612(3) 1.46496(18) 1.20062(17)
H13A H -0.1582 1.4817 1.2671
C22A C -0.2384(3) 1.53580(19) 1.14881(18)
C23A C -0.2467(3) 1.5084(2) 1.04939(19)
H14A H -0.3014 1.5533 1.0135
C24A C -0.1726(3) 1.4136(2) 1.00470(17)
C25A C -0.0925(3) 1.34338(19) 1.05487(18)
H15A H -0.0426 1.2804 1.0229
C26A C -0.3073(4) 1.6450(2) 1.1994(2)
N1A N 0.2595(2) 1.00784(16) 1.19056(14)
N2A N 0.4163(2) 0.86911(17) 1.14022(15)
H16A H 0.4818 0.8160 1.1414
N3A N 0.4916(3) 0.6432(2) 0.52240(17)
H17A H 0.4597 0.6030 0.4650
N4A N 0.6498(3) 0.75075(18) 0.64596(15)
N7A N -0.1779(4) 1.3873(2) 0.89887(17)
O1A O 0.0031(3) 1.31683(17) 1.29988(14)
O2A O 0.0598(2) 1.20670(14) 1.16558(13)
O3A O -0.1080(4) 1.3054(2) 0.85975(17)
O4A O -0.2494(4) 1.4516(3) 0.85681(18)
O5A O -0.3824(4) 1.6993(2) 1.1482(2)
O6A O -0.2764(3) 1.67563(17) 1.28904(16)
Co1A_2 Co 2.16149(4) 1.14349(3) 0.27194(2)
N5A_2 N 0.0105(3) 1.05478(17) 1.33803(15)
O7 O 0.0196(6) 0.6716(3) 0.4109(3)
H19 H 0.0428 0.6127 0.3704
H20 H -0.0768 0.6704 0.3833
O8 O 0.6868(10) 0.4499(5) 0.6576(3)
O9 O 0.037(2) 0.4791(10) 0.4634(6)
loop_
_geom_bond_atom_site_label_1
_geom_bond_atom_site_label_2
_geom_bond_site_symmetry_1
_geom_bond_site_symmetry_2
Co1 N1 1_555 1_555
C1 H1 1_555 1_555
C2 C1 1_555 1_555
H2 C2 1_555 1_555
C3 C2 1_555 1_555
C4 C3 1_555 1_555
H3 C4 1_555 1_555
C5 C4 1_555 1_555
H4 C5 1_555 1_555
C6 C1 1_555 1_555
C7 C6 1_555 1_555
C8 C7 1_555 1_555
H5 C8 1_555 1_555
C9 H6 1_555 1_555
C10 C3 1_555 1_555
C11 C10 1_555 1_555
H7 C11 1_555 1_555
C12 H8 1_555 1_555
C13 H9 1_555 1_555
C14 C13 1_555 1_555
C15 C14 1_555 1_555
H10 C15 1_555 1_555
C16 C14 1_555 1_555
C17 C16 1_555 1_555
H11 C17 1_555 1_555
C18 H12 1_555 1_555
C19 C20 1_555 1_555
C20 C21 1_555 1_555
C21 H13 1_555 1_555
C22 C21 1_555 1_555
C23 C22 1_555 1_555
H14 C23 1_555 1_555
C24 C23 1_555 1_555
C25 C20 1_555 1_555
H15 C25 1_555 1_555
C26 C22 1_555 1_555
N1 C11 1_555 1_555
N2 C10 1_555 1_555
H16 N2 1_555 1_555
N3 C8 1_555 1_555
H17 N3 1_555 1_555
N4 C7 1_555 1_555
N5 Co1 1_555 1_555
N6 C16 1_555 1_555
H18 N6 1_555 1_555
N7 C24 1_555 1_555
O1 C19 1_555 1_555
O2 Co1 1_555 1_555
O3 N7 1_555 1_555
O4 N7 1_555 1_555
O5 C26 1_555 1_555
O6 C26 1_555 1_555
O7 H19 1_555 1_555
H20 O7 1_555 1_555
C13A C15 1_555 1_555
H9A C13A 1_555 1_555
C14A C13A 1_555 1_555
C15A C13 1_555 1_555
H10A C15A 1_555 1_555
C16A C14A 1_555 1_555
C17A C16A 1_555 1_555
H11A C17A 1_555 1_555
C18A H12A 1_555 1_555
N5A C17A 1_555 1_555
N6A C16A 1_555 1_555
H18A N6A 1_555 1_555
Co1A N4 1_555 1_555
C1A H1A 1_555 1_555
C2A C1A 1_555 1_555
H2A C2A 1_555 1_555
C3A C2A 1_555 1_555
C4A C3A 1_555 1_555
H3A C4A 1_555 1_555
C5A C4A 1_555 1_555
H4A C5A 1_555 1_555
C6A C1A 1_555 1_555
C7A C6A 1_555 1_555
C8A C7A 1_555 1_555
H5A C8A 1_555 1_555
C9A H6A 1_555 1_555
C10A C3A 1_555 1_555
C11A C10A 1_555 1_555
H7A C11A 1_555 1_555
C12A H8A 1_555 1_555
C19A C20A 1_555 1_555
C20A C21A 1_555 1_555
C21A H13A 1_555 1_555
C22A C21A 1_555 1_555
C23A C22A 1_555 1_555
H14A C23A 1_555 1_555
C24A C23A 1_555 1_555
C25A C20A 1_555 1_555
H15A C25A 1_555 1_555
C26A C22A 1_555 1_555
N1A Co1A 1_555 1_555
N2A C10A 1_555 1_555
H16A N2A 1_555 1_555
N3A C8A 1_555 1_555
H17A N3A 1_555 1_555
N4A Co1 1_555 1_555
N7A C24A 1_555 1_555
O1A C19A 1_555 1_555
O2A Co1A 1_555 1_555
O3A N7A 1_555 1_555
O4A N7A 1_555 1_555
O5A C26A 1_555 1_555
O6A C26A 1_555 1_555
Co1A_2 N5A 1_555 1_555
N5A_2 Co1A 1_555 1_555
C5 C6 1_555 1_555
C9 N3 1_555 1_555
C9 N4 1_555 1_555
C12 N1 1_555 1_555
C12 N2 1_555 1_555
C17 N5 1_555 1_555
C18 N5 1_555 1_555
C18 N6 1_555 1_555
C19 O2 1_555 1_555
C24 C25 1_555 1_555
C14A C15A 1_555 1_555
C18A N5A 1_555 1_555
C18A N6A 1_555 1_555
C5A C6A 1_555 1_555
C7A N4A 1_555 1_555
C9A N3A 1_555 1_555
C9A N4A 1_555 1_555
C11A N1A 1_555 1_555
C12A N1A 1_555 1_555
C12A N2A 1_555 1_555
C19A O2A 1_555 1_555
C24A C25A 1_555 1_555

#END
