
#######################################################################
#
#                 Cambridge Crystallographic Data Centre
#                                CCDC 
#
#######################################################################
#
# If this CIF has been generated from an entry in the Cambridge 
# Structural Database, then it will include bibliographic, chemical, 
# crystal, experimental, refinement or atomic coordinate data resulting 
# from the CCDC's data processing and validation procedures.
#
#######################################################################

data_WIMKUZ
_symmetry_cell_setting           monoclinic
_symmetry_space_group_name_H-M   'P 21/n'
_symmetry_Int_Tables_number      14
_space_group_name_Hall           '-P 2yn'
loop_
_symmetry_equiv_pos_site_id
_symmetry_equiv_pos_as_xyz
1 x,y,z
2 1/2-x,1/2+y,1/2-z
3 -x,-y,-z
4 1/2+x,1/2-y,1/2+z
_cell_length_a                   11.6713(7)
_cell_length_b                   15.5691(10)
_cell_length_c                   11.8091(8)
_cell_angle_alpha                90
_cell_angle_beta                 96.1220(10)
_cell_angle_gamma                90
_cell_volume                     2133.61
loop_
_atom_site_label
_atom_site_type_symbol
_atom_site_fract_x
_atom_site_fract_y
_atom_site_fract_z
Pb1 Pb 0.346352(16) 0.044345(12) 0.910994(15)
S1 S -0.33516(11) 0.10309(9) 0.81405(11)
N1 N 0.4026(4) -0.0735(3) 0.7814(4)
N2 N 0.3134(4) 0.0786(3) 0.7082(3)
N3 N 0.3609(4) 0.2220(3) 0.9219(4)
O1 O 0.1772(3) -0.0473(2) 0.8808(4)
O2 O 0.1299(3) 0.0896(2) 0.8828(3)
O3 O 0.0244(3) -0.1641(3) 0.8689(4)
O4 O -0.3946(4) 0.0934(3) 0.7013(3)
O5 O -0.4093(3) 0.0788(3) 0.9008(3)
O6 O -0.2815(4) 0.1852(2) 0.8346(4)
C1 C 0.1014(5) 0.0130(4) 0.8755(4)
C2 C -0.0217(4) -0.0135(3) 0.8582(4)
C3 C -0.0527(5) -0.1002(3) 0.8506(4)
C4 C -0.1677(5) -0.1237(3) 0.8233(4)
H1 H -0.1877 -0.1813 0.8144
C5 C -0.2509(5) -0.0613(3) 0.8099(4)
H2 H -0.3275 -0.0770 0.7910
C6 C -0.2227(4) 0.0251(3) 0.8241(4)
C7 C -0.1092(4) 0.0485(3) 0.8463(4)
H3 H -0.0900 0.1064 0.8536
C8 C 0.4410(5) -0.1498(3) 0.8220(5)
H4 H 0.4465 -0.1591 0.9002
C9 C 0.4726(5) -0.2147(4) 0.7537(6)
H5 H 0.4985 -0.2670 0.7848
C10 C 0.4652(5) -0.2011(4) 0.6373(6)
H6 H 0.4861 -0.2440 0.5888
C11 C 0.4263(5) -0.1228(4) 0.5945(5)
H7 H 0.4217 -0.1121 0.5167
C12 C 0.3940(4) -0.0599(3) 0.6683(4)
C13 C 0.3471(4) 0.0247(3) 0.6280(4)
C14 C 0.3374(5) 0.0483(4) 0.5147(5)
H8 H 0.3600 0.0108 0.4599
C15 C 0.2933(5) 0.1286(4) 0.4840(5)
H9 H 0.2877 0.1459 0.4082
C16 C 0.2582(5) 0.1819(4) 0.5644(5)
H10 H 0.2283 0.2359 0.5446
C17 C 0.2678(5) 0.1545(4) 0.6759(5)
H11 H 0.2415 0.1902 0.7308
C18 C 0.4464(5) 0.2617(4) 0.8776(5)
H12 H 0.4833 0.2330 0.8227
C19 C 0.4829(5) 0.3422(4) 0.9082(5)
H13 H 0.5432 0.3670 0.8742
C20 C 0.4309(5) 0.3875(3) 0.9893(4)
C21 C 0.3429(5) 0.3458(4) 1.0372(5)
H14 H 0.3058 0.3725 1.0936
C22 C 0.3110(5) 0.2646(4) 1.0003(5)
H15 H 0.2507 0.2381 1.0324
C23 C 0.4650(5) 0.4750(4) 1.0250(5)
H16 H 0.4343 0.4970 1.0886
H17 H 0.091(3) -0.142(4) 0.881(6)
Pb1B Pb 0.653648(16) 0.955655(12) 1.089006(15)
Pb1_2 Pb -0.653648(16) 0.044345(12) 0.910994(15)
Pb1B_2 Pb -0.346352(16) -0.044345(12) 1.089006(15)
Pb1_3 Pb 1.346352(16) 0.044345(12) 0.910994(15)
Pb1B_3 Pb 0.653648(16) -0.044345(12) 1.089006(15)
S1_2 S 0.66484(11) 0.10309(9) 0.81405(11)
N1B N 0.5974(4) 1.0735(3) 1.2186(4)
N2B N 0.6866(4) 0.9214(3) 1.2918(3)
N3B N 0.6391(4) 0.7780(3) 1.0781(4)
O1_2 O 1.1772(3) -0.0473(2) 0.8808(4)
O1B O 0.8228(3) 1.0473(2) 1.1192(4)
O2_2 O 1.1299(3) 0.0896(2) 0.8828(3)
O2B O 0.8701(3) 0.9104(2) 1.1172(3)
O3_2 O 1.0244(3) -0.1641(3) 0.8689(4)
O4_2 O 0.6054(4) 0.0934(3) 0.7013(3)
O5_2 O 0.5907(3) 0.0788(3) 0.9008(3)
O5B O 0.4093(3) -0.0788(3) 1.0992(3)
O5_3 O 0.5907(3) 1.0788(3) 0.9008(3)
O5B_2 O 0.4093(3) 0.9212(3) 1.0992(3)
O6_2 O 0.7185(4) 0.1852(2) 0.8346(4)
C1_2 C 1.1014(5) 0.0130(4) 0.8755(4)
C2_2 C 0.9783(4) -0.0135(3) 0.8582(4)
C3_2 C 0.9473(5) -0.1002(3) 0.8506(4)
C4_2 C 0.8323(5) -0.1237(3) 0.8233(4)
H1_2 H 0.8123 -0.1813 0.8144
C5_2 C 0.7491(5) -0.0613(3) 0.8099(4)
H2_2 H 0.6725 -0.0770 0.7910
C6_2 C 0.7773(4) 0.0251(3) 0.8241(4)
C7_2 C 0.8908(4) 0.0485(3) 0.8463(4)
H3_2 H 0.9100 0.1064 0.8536
C8B C 0.5590(5) 1.1498(3) 1.1780(5)
H4B H 0.5535 1.1591 1.0998
C9B C 0.5274(5) 1.2147(4) 1.2463(6)
H5B H 0.5015 1.2670 1.2152
C10B C 0.5348(5) 1.2011(4) 1.3627(6)
H6B H 0.5139 1.2440 1.4112
C11B C 0.5737(5) 1.1228(4) 1.4055(5)
H7B H 0.5783 1.1121 1.4833
C12B C 0.6060(4) 1.0599(3) 1.3317(4)
C13B C 0.6529(4) 0.9753(3) 1.3720(4)
C14B C 0.6626(5) 0.9517(4) 1.4853(5)
H8B H 0.6400 0.9892 1.5401
C15B C 0.7067(5) 0.8714(4) 1.5160(5)
H9B H 0.7123 0.8541 1.5918
C16B C 0.7418(5) 0.8181(4) 1.4356(5)
H10B H 0.7717 0.7641 1.4554
C17B C 0.7322(5) 0.8455(4) 1.3241(5)
H11B H 0.7585 0.8098 1.2692
C18B C 0.5536(5) 0.7383(4) 1.1224(5)
H12B H 0.5167 0.7670 1.1773
C19B C 0.5171(5) 0.6578(4) 1.0918(5)
H13B H 0.4568 0.6330 1.1258
C20B C 0.5691(5) 0.6125(3) 1.0107(4)
C21B C 0.6571(5) 0.6542(4) 0.9628(5)
H14B H 0.6942 0.6275 0.9064
C22B C 0.6890(5) 0.7354(4) 0.9997(5)
H15B H 0.7493 0.7619 0.9676
C23B C 0.5350(5) 0.5250(4) 0.9750(5)
H16B H 0.5657 0.5030 0.9114
H17_2 H 1.091(3) -0.142(4) 0.881(6)
loop_
_geom_bond_atom_site_label_1
_geom_bond_atom_site_label_2
_geom_bond_site_symmetry_1
_geom_bond_site_symmetry_2
Pb1 N1 1_555 1_555
S1 O4 1_555 1_555
N1 C8 1_555 1_555
N2 Pb1 1_555 1_555
N3 Pb1 1_555 1_555
O1 Pb1 1_555 1_555
O2 Pb1 1_555 1_555
O3 C3 1_555 1_555
O5 S1 1_555 1_555
O6 S1 1_555 1_555
C1 O1 1_555 1_555
C2 C1 1_555 1_555
C3 C2 1_555 1_555
C4 C3 1_555 1_555
H1 C4 1_555 1_555
C5 C4 1_555 1_555
H2 C5 1_555 1_555
C6 S1 1_555 1_555
C7 C2 1_555 1_555
H3 C7 1_555 1_555
C8 H4 1_555 1_555
C9 C8 1_555 1_555
H5 C9 1_555 1_555
C10 C9 1_555 1_555
H6 C10 1_555 1_555
C11 C10 1_555 1_555
H7 C11 1_555 1_555
C12 N1 1_555 1_555
C13 N2 1_555 1_555
C14 C13 1_555 1_555
H8 C14 1_555 1_555
C15 C14 1_555 1_555
H9 C15 1_555 1_555
C16 C15 1_555 1_555
H10 C16 1_555 1_555
C17 N2 1_555 1_555
H11 C17 1_555 1_555
C18 N3 1_555 1_555
H12 C18 1_555 1_555
C19 C18 1_555 1_555
H13 C19 1_555 1_555
C20 C19 1_555 1_555
C21 C20 1_555 1_555
H14 C21 1_555 1_555
C22 N3 1_555 1_555
H15 C22 1_555 1_555
C23 C20 1_555 1_555
H16 C23 1_555 1_555
H17 O3 1_555 1_555
Pb1B N1B 1_555 1_555
Pb1_2 O5 1_555 1_555
Pb1B_2 O5 1_555 1_555
Pb1_3 O1_2 1_555 1_555
Pb1B_3 O5_2 1_555 1_555
S1_2 O4_2 1_555 1_555
N1B C8B 1_555 1_555
N2B Pb1B 1_555 1_555
N3B Pb1B 1_555 1_555
O1_2 C1_2 1_555 1_555
O1B Pb1B 1_555 1_555
O2_2 Pb1_3 1_555 1_555
O2B Pb1B 1_555 1_555
O3_2 C3_2 1_555 1_555
O5_2 Pb1 1_555 1_555
O5B Pb1 1_555 1_555
O5_3 Pb1B 1_555 1_555
O5B_2 Pb1B 1_555 1_555
O6_2 S1_2 1_555 1_555
C1_2 O2_2 1_555 1_555
C2_2 C1_2 1_555 1_555
C3_2 C2_2 1_555 1_555
C4_2 C3_2 1_555 1_555
H1_2 C4_2 1_555 1_555
C5_2 C4_2 1_555 1_555
H2_2 C5_2 1_555 1_555
C6_2 S1_2 1_555 1_555
C7_2 C2_2 1_555 1_555
H3_2 C7_2 1_555 1_555
C8B H4B 1_555 1_555
C9B C8B 1_555 1_555
H5B C9B 1_555 1_555
C10B C9B 1_555 1_555
H6B C10B 1_555 1_555
C11B C10B 1_555 1_555
H7B C11B 1_555 1_555
C12B N1B 1_555 1_555
C13B N2B 1_555 1_555
C14B C13B 1_555 1_555
H8B C14B 1_555 1_555
C15B C14B 1_555 1_555
H9B C15B 1_555 1_555
C16B C15B 1_555 1_555
H10B C16B 1_555 1_555
C17B N2B 1_555 1_555
H11B C17B 1_555 1_555
C18B N3B 1_555 1_555
H12B C18B 1_555 1_555
C19B C18B 1_555 1_555
H13B C19B 1_555 1_555
C20B C19B 1_555 1_555
C21B C20B 1_555 1_555
H14B C21B 1_555 1_555
C22B N3B 1_555 1_555
H15B C22B 1_555 1_555
C23B C23 1_555 1_555
H16B C23B 1_555 1_555
H17_2 O3_2 1_555 1_555
O2 C1 1_555 1_555
C5 C6 1_555 1_555
C6 C7 1_555 1_555
C11 C12 1_555 1_555
C12 C13 1_555 1_555
C16 C17 1_555 1_555
C21 C22 1_555 1_555
Pb1B_3 O5B 1_555 1_555
S1_2 O5_2 1_555 1_555
C5_2 C6_2 1_555 1_555
C6_2 C7_2 1_555 1_555
C11B C12B 1_555 1_555
C12B C13B 1_555 1_555
C16B C17B 1_555 1_555
C20B C23B 1_555 1_555
C21B C22B 1_555 1_555

#END
