
#######################################################################
#
#                 Cambridge Crystallographic Data Centre
#                                CCDC 
#
#######################################################################
#
# If this CIF has been generated from an entry in the Cambridge 
# Structural Database, then it will include bibliographic, chemical, 
# crystal, experimental, refinement or atomic coordinate data resulting 
# from the CCDC's data processing and validation procedures.
#
#######################################################################

data_WIMMIP
_symmetry_cell_setting           monoclinic
_symmetry_space_group_name_H-M   'C 2/c'
_symmetry_Int_Tables_number      15
_space_group_name_Hall           '-C 2yn'
loop_
_symmetry_equiv_pos_site_id
_symmetry_equiv_pos_as_xyz
1 x,y,z
2 1/2+x,1/2+y,z
3 -x,y,1/2-z
4 1/2-x,1/2+y,1/2-z
5 -x,-y,-z
6 1/2-x,1/2-y,-z
7 x,-y,1/2+z
8 1/2+x,1/2-y,1/2+z
_cell_length_a                   12.7214(8)
_cell_length_b                   19.6454(12)
_cell_length_c                   17.0646(14)
_cell_angle_alpha                90.00
_cell_angle_beta                 98.8960(10)
_cell_angle_gamma                90.00
_cell_volume                     4213.43
loop_
_atom_site_label
_atom_site_type_symbol
_atom_site_fract_x
_atom_site_fract_y
_atom_site_fract_z
U1 U 0.160220(15) 0.116788(9) 0.085897(9)
O1 O 0.1820(3) 0.19167(17) 0.20336(19)
O2 O 0.0371(3) 0.08965(19) 0.1089(2)
O3 O 0.1359(3) 0.06206(16) -0.05138(19)
O4 O 0.0616(3) 0.16030(18) -0.03697(19)
O5 O 0.2810(3) 0.49688(17) 0.40113(18)
O6 O 0.2517(3) 0.55707(17) 0.29269(19)
O7 O 0.2848(3) 0.1422(2) 0.0643(2)
O8 O 0.1107(4) 0.23753(18) 0.0918(2)
C1 C 0.0250(4) 0.1807(2) -0.2089(3)
C2 C 0.0215(4) 0.0569(2) -0.2097(3)
H1 H 0.0344 0.0157 -0.1830
C3 C 0.0449(4) 0.1167(2) -0.1697(3)
C4 C 0.0836(4) 0.1128(2) -0.0817(3)
C5 C 0.2629(4) 0.3781(2) 0.3094(3)
H2 H 0.3138 0.3792 0.3548
C6 C 0.1337(4) 0.4365(2) 0.2132(3)
C7 C 0.2392(4) 0.3165(2) 0.2696(3)
H3 H 0.2751 0.2771 0.2887
C8 C 0.2122(4) 0.4368(2) 0.2823(3)
C9 C 0.1639(4) 0.3131(2) 0.2031(3)
C10 C 0.1081(4) 0.3729(2) 0.1725(3)
C11 C 0.2486(4) 0.5004(2) 0.3270(3)
C12 C 0.0540(4) 0.2443(2) -0.1728(3)
H4 H 0.0913 0.2452 -0.1214
C13 C 0.0762(4) 0.4953(3) 0.1834(3)
H5 H 0.0908 0.5366 0.2095
C14 C 0.1497(5) 0.2446(3) 0.1637(3)
C15 C 0.0004(4) 0.4929(3) 0.1178(3)
H6 H -0.0354 0.5324 0.0990
C16 C -0.0236(5) 0.4309(3) 0.0785(3)
H7 H -0.0752 0.4295 0.0336
C17 C 0.0275(5) 0.3727(3) 0.1051(3)
H8 H 0.0093 0.3320 0.0786
C18 C 0.0282(5) 0.3045(3) -0.2116(3)
H9 H 0.0485 0.3455 -0.1866
U1C U 0.339780(15) -0.383212(9) 0.414103(9)
U1C_2 U 0.339780(15) 0.616788(9) 0.414103(9)
U1B U -0.160220(15) 0.116788(9) -0.585897(9)
O1C O 0.3180(3) -0.30833(17) 0.29664(19)
O2C O 0.4629(3) -0.41035(19) 0.3911(2)
O3B O -0.1359(3) 0.06206(16) -0.44862(19)
O3C O 0.3641(3) -0.43794(16) 0.55138(19)
O4B O -0.0616(3) 0.16030(18) -0.46303(19)
O4C O 0.4384(3) -0.33970(18) 0.53697(19)
O5C O 0.2190(3) -0.00312(17) 0.09887(18)
O5_2 O 0.2810(3) -0.50312(17) 0.40113(18)
O6C O 0.2483(3) 0.05707(17) 0.20731(19)
O6_2 O 0.2517(3) -0.44293(17) 0.29269(19)
O7C O 0.2152(3) -0.3578(2) 0.4357(2)
O8C O 0.3893(4) -0.26247(18) 0.4082(2)
C1B C -0.0250(4) 0.1807(2) -0.2911(3)
C2B C -0.0215(4) 0.0569(2) -0.2903(3)
H1B H -0.0344 0.0157 -0.3170
C3B C -0.0449(4) 0.1167(2) -0.3303(3)
C4B C -0.0836(4) 0.1128(2) -0.4183(3)
C5C C 0.2371(4) -0.1219(2) 0.1906(3)
H2C H 0.1862 -0.1208 0.1452
C6C C 0.3663(4) -0.0635(2) 0.2868(3)
C7C C 0.2608(4) -0.1835(2) 0.2304(3)
H3C H 0.2249 -0.2229 0.2113
C8C C 0.2878(4) -0.0632(2) 0.2177(3)
C9C C 0.3361(4) -0.1869(2) 0.2969(3)
C10C C 0.3919(4) -0.1271(2) 0.3275(3)
C11C C 0.2514(4) 0.0004(2) 0.1730(3)
C12B C -0.0540(4) 0.2443(2) -0.3272(3)
H4B H -0.0913 0.2452 -0.3786
C13C C 0.4238(4) -0.0047(3) 0.3166(3)
H5C H 0.4092 0.0366 0.2905
C14C C 0.3503(5) -0.2554(3) 0.3363(3)
C15C C 0.4996(4) -0.0071(3) 0.3822(3)
H6C H 0.5354 0.0324 0.4010
C16C C 0.5236(5) -0.0691(3) 0.4215(3)
H7C H 0.5752 -0.0705 0.4664
C17C C 0.4725(5) -0.1273(3) 0.3949(3)
H8C H 0.4907 -0.1680 0.4214
C18B C -0.0282(5) 0.3045(3) -0.2884(3)
H9B H -0.0485 0.3455 -0.3134
C19 C -0.1990(5) 0.1153(3) 0.0884(3)
N1 N -0.1925(5) 0.1138(3) 0.0118(3)
N2 N -0.2144(4) 0.0592(3) 0.1266(3)
N3 N -0.1902(5) 0.1762(3) 0.1270(3)
O9 O -0.1135(4) 0.2472(2) -0.0248(3)
loop_
_geom_bond_atom_site_label_1
_geom_bond_atom_site_label_2
_geom_bond_site_symmetry_1
_geom_bond_site_symmetry_2
U1 O1 1_555 1_555
O1 C14 1_555 1_555
O2 U1 1_555 1_555
O3 U1 1_555 1_555
O4 U1 1_555 1_555
O5 C11 1_555 1_555
O6 C11 1_555 1_555
O7 U1 1_555 1_555
O8 U1 1_555 1_555
C1 C3 1_555 1_555
C2 H1 1_555 1_555
C3 C2 1_555 1_555
C4 O3 1_555 1_555
C5 H2 1_555 1_555
C6 C8 1_555 1_555
C7 C5 1_555 1_555
H3 C7 1_555 1_555
C8 C5 1_555 1_555
C9 C7 1_555 1_555
C10 C6 1_555 1_555
C11 C8 1_555 1_555
C12 C1 1_555 1_555
H4 C12 1_555 1_555
C13 C6 1_555 1_555
H5 C13 1_555 1_555
C14 O8 1_555 1_555
C15 C13 1_555 1_555
H6 C15 1_555 1_555
C16 C15 1_555 1_555
H7 C16 1_555 1_555
C17 C10 1_555 1_555
H8 C17 1_555 1_555
C18 C12 1_555 1_555
H9 C18 1_555 1_555
C19 N1 1_555 1_555
N2 C19 1_555 1_555
N3 C19 1_555 1_555
U1C O1C 1_555 1_555
U1C_2 O5 1_555 1_555
U1B O3B 1_555 1_555
O1C C14C 1_555 1_555
O2C U1C 1_555 1_555
O3B C4B 1_555 1_555
O3C U1C 1_555 1_555
O4B U1B 1_555 1_555
O4C U1C 1_555 1_555
O5C U1 1_555 1_555
O5_2 U1C 1_555 1_555
O6C U1 1_555 1_555
O6_2 U1C 1_555 1_555
O7C U1C 1_555 1_555
O8C U1C 1_555 1_555
C1B C1 1_555 1_555
C2B C2 1_555 1_555
H1B C2B 1_555 1_555
C3B C1B 1_555 1_555
C4B O4B 1_555 1_555
C5C H2C 1_555 1_555
C6C C8C 1_555 1_555
C7C C5C 1_555 1_555
H3C C7C 1_555 1_555
C8C C5C 1_555 1_555
C9C C7C 1_555 1_555
C10C C6C 1_555 1_555
C11C O5C 1_555 1_555
C12B C1B 1_555 1_555
H4B C12B 1_555 1_555
C13C C6C 1_555 1_555
H5C C13C 1_555 1_555
C14C O8C 1_555 1_555
C15C C13C 1_555 1_555
H6C C15C 1_555 1_555
C16C C15C 1_555 1_555
H7C C16C 1_555 1_555
C17C C10C 1_555 1_555
H8C C17C 1_555 1_555
C18B C18 1_555 1_555
H9B C18B 1_555 1_555
O4 C4 1_555 1_555
O6 U1C_2 1_555 1_555
C3 C4 1_555 1_555
C9 C10 1_555 1_555
C9 C14 1_555 1_555
C16 C17 1_555 1_555
O6C C11C 1_555 1_555
C2B C3B 1_555 1_555
C3B C4B 1_555 1_555
C8C C11C 1_555 1_555
C9C C10C 1_555 1_555
C9C C14C 1_555 1_555
C12B C18B 1_555 1_555
C16C C17C 1_555 1_555

#END
