
#######################################################################
#
#                 Cambridge Crystallographic Data Centre
#                                CCDC 
#
#######################################################################
#
# If this CIF has been generated from an entry in the Cambridge 
# Structural Database, then it will include bibliographic, chemical, 
# crystal, experimental, refinement or atomic coordinate data resulting 
# from the CCDC's data processing and validation procedures.
#
#######################################################################

data_WIMMEL
_symmetry_cell_setting           monoclinic
_symmetry_space_group_name_H-M   'C 2/c'
_symmetry_Int_Tables_number      15
_space_group_name_Hall           '-C 2yn'
loop_
_symmetry_equiv_pos_site_id
_symmetry_equiv_pos_as_xyz
1 x,y,z
2 1/2+x,1/2+y,z
3 -x,y,1/2-z
4 1/2-x,1/2+y,1/2-z
5 -x,-y,-z
6 1/2-x,1/2-y,-z
7 x,-y,1/2+z
8 1/2+x,1/2-y,1/2+z
_cell_length_a                   12.7795(9)
_cell_length_b                   19.7282(13)
_cell_length_c                   15.3788(10)
_cell_angle_alpha                90.00
_cell_angle_beta                 92.2470(10)
_cell_angle_gamma                90.00
_cell_volume                     3874.27
loop_
_atom_site_label
_atom_site_type_symbol
_atom_site_fract_x
_atom_site_fract_y
_atom_site_fract_z
U1 U 0.345253(11) 0.109174(7) 0.094034(9)
K1 K 0.68960(9) 0.06763(6) 0.10095(9)
O1 O 0.4755(2) 0.08258(17) 0.1198(2)
O2 O 0.4137(3) 0.16982(15) -0.02887(19)
O3 O 0.3640(2) 0.06665(14) -0.05888(18)
O4 O 0.2169(3) 0.13509(19) 0.0684(2)
O5 O 0.2849(3) 0.03614(15) 0.20924(18)
O6 O 0.1706(2) -0.32352(15) 0.26677(19)
O7 O 0.2885(3) -0.01109(14) 0.08092(18)
O8 O 0.1017(3) -0.27668(16) 0.3763(2)
C1 C 0.4047(3) 0.1212(2) -0.0826(3)
C2 C 0.4498(3) 0.12773(19) -0.1699(2)
C3 C 0.4767(3) 0.06825(19) -0.2101(2)
H1 H 0.4632 0.0271 -0.1832
C4 C 0.4733(3) 0.19109(18) -0.2105(2)
C5 C 0.2215(3) -0.0781(2) 0.1970(3)
C6 C 0.4409(3) 0.25453(19) -0.1754(3)
H2 H 0.4008 0.2551 -0.1263
C7 C 0.1628(3) -0.2016(2) 0.2677(2)
C8 C 0.1264(3) -0.1407(2) 0.3073(3)
C9 C 0.2216(3) -0.1991(2) 0.1964(3)
H3 H 0.2424 -0.2393 0.1708
C10 C 0.1430(3) -0.2709(2) 0.3044(3)
C11 C 0.1563(3) -0.0771(2) 0.2694(3)
C12 C 0.2657(3) -0.0142(2) 0.1602(3)
C13 C 0.2517(3) -0.1372(2) 0.1601(3)
H4 H 0.2920 -0.1366 0.1111
C14 C 0.1143(4) -0.0160(2) 0.3054(3)
H5 H 0.1305 0.0255 0.2805
C15 C 0.0611(4) -0.1375(3) 0.3802(3)
H6 H 0.0421 -0.1778 0.4066
C16 C 0.4681(4) 0.3140(2) -0.2130(3)
H7 H 0.4449 0.3548 -0.1905
C17 C 0.0520(4) -0.0173(3) 0.3742(3)
H8 H 0.0263 0.0231 0.3962
C18 C 0.0257(4) -0.0788(3) 0.4127(3)
H9 H -0.0163 -0.0792 0.4607
O9 O 0.6146(4) 0.2129(4) 0.0279(4)
O10 O 0.8436(4) 0.1586(4) 0.0706(5)
H10 H 0.550(3) 0.211(6) 0.010(6)
H11 H 0.816(7) 0.189(5) 0.035(6)
H12 H 0.614(7) 0.228(6) 0.081(3)
H13 H 0.909(3) 0.155(6) 0.059(7)
U1B U 0.654747(11) 0.109174(7) -0.594034(9)
U1C U 0.154747(11) -0.390826(7) 0.405966(9)
U1C_2 U 0.154747(11) 0.609174(7) 0.405966(9)
K1D K 0.31040(9) -0.06763(6) -0.10095(9)
K1B K 0.31040(9) 0.06763(6) 0.39905(9)
K1F K 0.68960(9) -0.06763(6) -0.39905(9)
K1A K 0.18960(9) 0.56763(6) 0.10095(9)
K1G K 0.18960(9) 0.43237(6) 0.60095(9)
K1B_2 K 0.31040(9) 0.06763(6) -0.60095(9)
O1B O 0.5245(2) 0.08258(17) -0.6198(2)
O1D O 0.5245(2) -0.08258(17) -0.1198(2)
O2B O 0.5863(3) 0.16982(15) -0.47113(19)
O3B O 0.6360(2) 0.06665(14) -0.44112(18)
O3D O 0.6360(2) -0.06665(14) 0.05888(18)
O4B O 0.7831(3) 0.13509(19) -0.5684(2)
O5C O 0.2151(3) 0.53614(15) 0.29076(18)
O5B O 0.7151(3) 0.03614(15) 0.29076(18)
O5B_2 O 0.7151(3) 0.03614(15) -0.70924(18)
O5F O 0.2849(3) -0.03614(15) -0.29076(18)
O6C O 0.3294(2) 0.17648(15) 0.23323(19)
O6A O 0.6706(2) 0.17648(15) -0.73323(19)
O7C O 0.2115(3) 0.48891(14) 0.41908(18)
O7D O 0.7115(3) 0.01109(14) -0.08092(18)
O7B O 0.7115(3) -0.01109(14) -0.58092(18)
O8C O 0.3983(3) 0.22332(16) 0.1237(2)
O8A O 0.6017(3) 0.22332(16) -0.6237(2)
C1B C 0.5953(3) 0.1212(2) -0.4174(3)
C2B C 0.5502(3) 0.12773(19) -0.3301(2)
C3B C 0.5233(3) 0.06825(19) -0.2899(2)
H1B H 0.5368 0.0271 -0.3168
C4B C 0.5267(3) 0.19109(18) -0.2895(2)
C5C C 0.2785(3) 0.4219(2) 0.3030(3)
C6B C 0.5591(3) 0.25453(19) -0.3246(3)
H2B H 0.5992 0.2551 -0.3737
C7C C 0.3372(3) 0.2984(2) 0.2323(2)
C8C C 0.3736(3) 0.3593(2) 0.1927(3)
C9C C 0.2784(3) 0.3009(2) 0.3036(3)
H3C H 0.2576 0.2607 0.3292
C10C C 0.3570(3) 0.2291(2) 0.1956(3)
C11C C 0.3437(3) 0.4229(2) 0.2306(3)
C12C C 0.2343(3) 0.4858(2) 0.3398(3)
C13C C 0.2483(3) 0.3628(2) 0.3399(3)
H4C H 0.2080 0.3634 0.3889
C14C C 0.3857(4) 0.4840(2) 0.1946(3)
H5C H 0.3695 0.5255 0.2195
C15C C 0.4389(4) 0.3625(3) 0.1198(3)
H6C H 0.4579 0.3222 0.0934
C16B C 0.5319(4) 0.3140(2) -0.2870(3)
H7B H 0.5551 0.3548 -0.3095
C17C C 0.4480(4) 0.4827(3) 0.1258(3)
H8C H 0.4737 0.5231 0.1038
C18C C 0.4743(4) 0.4212(3) 0.0873(3)
H9C H 0.5163 0.4208 0.0393
O9D O 0.3854(4) -0.2129(4) -0.0279(4)
O10D O 0.1564(4) -0.1586(4) -0.0706(5)
H10D H 0.450(3) -0.211(6) -0.010(6)
H11D H 0.184(7) -0.189(5) -0.035(6)
H12D H 0.386(7) -0.228(6) -0.081(3)
H13D H 0.091(3) -0.155(6) -0.059(7)
loop_
_geom_bond_atom_site_label_1
_geom_bond_atom_site_label_2
_geom_bond_site_symmetry_1
_geom_bond_site_symmetry_2
U1 O1 1_555 1_555
K1 O1 1_555 1_555
O2 U1 1_555 1_555
O3 U1 1_555 1_555
O4 U1 1_555 1_555
O5 U1 1_555 1_555
O6 C10 1_555 1_555
O7 U1 1_555 1_555
O8 C10 1_555 1_555
C1 O2 1_555 1_555
C2 C1 1_555 1_555
C3 C2 1_555 1_555
H1 C3 1_555 1_555
C4 C2 1_555 1_555
C5 C11 1_555 1_555
C6 C4 1_555 1_555
H2 C6 1_555 1_555
C7 C8 1_555 1_555
C8 C11 1_555 1_555
C9 C7 1_555 1_555
H3 C9 1_555 1_555
C10 C7 1_555 1_555
C11 C14 1_555 1_555
C12 O5 1_555 1_555
C13 C5 1_555 1_555
H4 C13 1_555 1_555
C14 H5 1_555 1_555
C15 C8 1_555 1_555
H6 C15 1_555 1_555
C16 C6 1_555 1_555
H7 C16 1_555 1_555
C17 C14 1_555 1_555
H8 C17 1_555 1_555
C18 C15 1_555 1_555
H9 C18 1_555 1_555
O9 K1 1_555 1_555
O10 K1 1_555 1_555
H10 O9 1_555 1_555
H11 O10 1_555 1_555
H12 O9 1_555 1_555
H13 O10 1_555 1_555
U1B O1B 1_555 1_555
U1C O6 1_555 1_555
U1C_2 O5C 1_555 1_555
K1D O3 1_555 1_555
K1B O5 1_555 1_555
K1F O3B 1_555 1_555
K1A O5C 1_555 1_555
K1G O7C 1_555 1_555
K1B_2 O1B 1_555 1_555
O1D K1D 1_555 1_555
O2B U1B 1_555 1_555
O3B U1B 1_555 1_555
O3D K1 1_555 1_555
O4B U1B 1_555 1_555
O5C C12C 1_555 1_555
O5B K1 1_555 1_555
O5B_2 U1B 1_555 1_555
O5F K1D 1_555 1_555
O6C U1 1_555 1_555
O6A U1B 1_555 1_555
O7C U1C_2 1_555 1_555
O7D K1 1_555 1_555
O7B U1B 1_555 1_555
O8C U1 1_555 1_555
O8A U1B 1_555 1_555
C1B O2B 1_555 1_555
C2B C1B 1_555 1_555
C3B C3 1_555 1_555
H1B C3B 1_555 1_555
C4B C4 1_555 1_555
C5C C11C 1_555 1_555
C6B C4B 1_555 1_555
H2B C6B 1_555 1_555
C7C C8C 1_555 1_555
C8C C11C 1_555 1_555
C9C C7C 1_555 1_555
H3C C9C 1_555 1_555
C10C O6C 1_555 1_555
C11C C14C 1_555 1_555
C12C O7C 1_555 1_555
C13C C5C 1_555 1_555
H4C C13C 1_555 1_555
C14C H5C 1_555 1_555
C15C C8C 1_555 1_555
H6C C15C 1_555 1_555
C16B C16 1_555 1_555
H7B C16B 1_555 1_555
C17C C14C 1_555 1_555
H8C C17C 1_555 1_555
C18C C15C 1_555 1_555
H9C C18C 1_555 1_555
O9D K1D 1_555 1_555
O10D K1D 1_555 1_555
H10D O9D 1_555 1_555
H11D O10D 1_555 1_555
H12D O9D 1_555 1_555
H13D O10D 1_555 1_555
O3 C1 1_555 1_555
O7 C12 1_555 1_555
O7 K1D 1_555 1_555
O8 U1C 1_555 1_555
C5 C12 1_555 1_555
C9 C13 1_555 1_555
C17 C18 1_555 1_555
K1F O7B 1_555 1_555
O3B C1B 1_555 1_555
O8C C10C 1_555 1_555
C2B C3B 1_555 1_555
C2B C4B 1_555 1_555
C5C C12C 1_555 1_555
C6B C16B 1_555 1_555
C7C C10C 1_555 1_555
C9C C13C 1_555 1_555
C17C C18C 1_555 1_555

#END
