
#######################################################################
#
#                 Cambridge Crystallographic Data Centre
#                                CCDC 
#
#######################################################################
#
# If this CIF has been generated from an entry in the Cambridge 
# Structural Database, then it will include bibliographic, chemical, 
# crystal, experimental, refinement or atomic coordinate data resulting 
# from the CCDC's data processing and validation procedures.
#
#######################################################################

data_WIMMOV
_symmetry_cell_setting           monoclinic
_symmetry_space_group_name_H-M   'P 21/c'
_symmetry_Int_Tables_number      14
_space_group_name_Hall           '-P 2ybc'
loop_
_symmetry_equiv_pos_site_id
_symmetry_equiv_pos_as_xyz
1 x,y,z
2 -x,1/2+y,1/2-z
3 -x,-y,-z
4 x,1/2-y,1/2+z
_cell_length_a                   7.873(5)
_cell_length_b                   18.358(14)
_cell_length_c                   6.893(5)
_cell_angle_alpha                90.00
_cell_angle_beta                 115.96(2)
_cell_angle_gamma                90.00
_cell_volume                     895.74
loop_
_atom_site_label
_atom_site_type_symbol
_atom_site_fract_x
_atom_site_fract_y
_atom_site_fract_z
U1 U 0.0000 0.0000 0.0000
Br1 Br 0.6870(3) 0.14611(7) 0.2931(5)
O1 O 0.3012(17) 0.0770(4) 0.147(4)
O2 O 0.0344(15) 0.1346(4) -0.019(3)
O3 O 0.4242(16) 0.4792(4) 0.210(5)
O4 O 0.7128(16) 0.4321(4) 0.321(3)
O5 O 0.014(5) -0.0079(7) -0.240(3)
C1 C 0.2637(7) 0.3404(2) 0.1211(9)
H1 H 0.1840 0.3806 0.0896
C2 C 0.4575(7) 0.3504(2) 0.1997(9)
C3 C 0.5767(7) 0.2904(2) 0.2468(9)
H2 H 0.7063 0.2971 0.2994
C4 C 0.5020(7) 0.2204(2) 0.2155(9)
C5 C 0.3082(7) 0.2104(2) 0.1369(9)
C6 C 0.1890(7) 0.2704(2) 0.0898(9)
H3 H 0.0593 0.2637 0.0372
C7 C 0.2089(7) 0.1358(2) 0.0844(9)
C8 C 0.5432(7) 0.4247(2) 0.2437(9)
U1C U 1.0000 0.5000 0.5000
U1C_2 U -1.0000 -0.5000 -0.5000
Br1B Br -0.6870(3) -0.14611(7) -0.2931(5)
O1B O -0.3012(17) -0.0770(4) -0.147(4)
O2B O -0.0344(15) -0.1346(4) 0.019(3)
O3B O -0.4242(16) -0.4792(4) -0.210(5)
O4B O -0.7128(16) -0.4321(4) -0.321(3)
O4C O -0.2872(16) 0.0679(4) -0.179(3)
O4A O 0.2872(16) -0.0679(4) 0.179(3)
O5B O -0.014(5) 0.0079(7) 0.240(3)
C1B C -0.2637(7) -0.3404(2) -0.1211(9)
H1B H -0.1840 -0.3806 -0.0896
C2B C -0.4575(7) -0.3504(2) -0.1997(9)
C3B C -0.5767(7) -0.2904(2) -0.2468(9)
H2B H -0.7063 -0.2971 -0.2994
C4B C -0.5020(7) -0.2204(2) -0.2155(9)
C5B C -0.3082(7) -0.2104(2) -0.1369(9)
C6B C -0.1890(7) -0.2704(2) -0.0898(9)
H3B H -0.0593 -0.2637 -0.0372
C7B C -0.2089(7) -0.1358(2) -0.0844(9)
C8B C -0.5432(7) -0.4247(2) -0.2437(9)
loop_
_geom_bond_atom_site_label_1
_geom_bond_atom_site_label_2
_geom_bond_site_symmetry_1
_geom_bond_site_symmetry_2
U1 O1 1_555 1_555
Br1 C4 1_555 1_555
O1 C7 1_555 1_555
O2 U1 1_555 1_555
O3 C8 1_555 1_555
O4 C8 1_555 1_555
O5 U1 1_555 1_555
C1 H1 1_555 1_555
C2 C1 1_555 1_555
C3 C2 1_555 1_555
H2 C3 1_555 1_555
C4 C3 1_555 1_555
C5 C4 1_555 1_555
C6 C1 1_555 1_555
H3 C6 1_555 1_555
C7 O2 1_555 1_555
C8 C2 1_555 1_555
U1C O4 1_555 1_555
U1C_2 O4B 1_555 1_555
Br1B C4B 1_555 1_555
O1B U1 1_555 1_555
O2B U1 1_555 1_555
O3B C8B 1_555 1_555
O4B C8B 1_555 1_555
O4C U1 1_555 1_555
O4A U1 1_555 1_555
O5B U1 1_555 1_555
C1B H1B 1_555 1_555
C2B C1B 1_555 1_555
C3B C2B 1_555 1_555
H2B C3B 1_555 1_555
C4B C3B 1_555 1_555
C5B C4B 1_555 1_555
C6B C1B 1_555 1_555
H3B C6B 1_555 1_555
C7B O1B 1_555 1_555
C8B C2B 1_555 1_555
C5 C6 1_555 1_555
C5 C7 1_555 1_555
O2B C7B 1_555 1_555
C5B C6B 1_555 1_555
C5B C7B 1_555 1_555

#END
