
#######################################################################
#
#                 Cambridge Crystallographic Data Centre
#                                CCDC 
#
#######################################################################
#
# If this CIF has been generated from an entry in the Cambridge 
# Structural Database, then it will include bibliographic, chemical, 
# crystal, experimental, refinement or atomic coordinate data resulting 
# from the CCDC's data processing and validation procedures.
#
#######################################################################

data_WIMNUD
_symmetry_cell_setting           monoclinic
_symmetry_space_group_name_H-M   'C 2/c'
_symmetry_Int_Tables_number      15
_space_group_name_Hall           '-C 2yn'
loop_
_symmetry_equiv_pos_site_id
_symmetry_equiv_pos_as_xyz
1 x,y,z
2 -x,y,1/2-z
3 1/2+x,1/2+y,z
4 1/2-x,1/2+y,1/2-z
5 -x,-y,-z
6 x,-y,1/2+z
7 1/2-x,1/2-y,-z
8 1/2+x,1/2-y,1/2+z
_cell_length_a                   26.2190(7)
_cell_length_b                   14.3442(3)
_cell_length_c                   23.7863(7)
_cell_angle_alpha                90
_cell_angle_beta                 102.167(2)
_cell_angle_gamma                90
_cell_volume                     8744.86
loop_
_atom_site_label
_atom_site_type_symbol
_atom_site_fract_x
_atom_site_fract_y
_atom_site_fract_z
Hg1 Hg 0.660848(9) 1.024940(16) 0.086030(10)
Hg2 Hg 0.683632(8) 1.261413(14) -0.067618(8)
Cl1 Cl 0.71177(9) 1.0831(2) 0.17160(8)
Cl2 Cl 0.63548(6) 0.91000(10) 0.01583(7)
Cl3 Cl 0.71073(4) 1.14892(8) 0.02142(5)
Cl4 Cl 0.64383(4) 1.39206(9) -0.03682(6)
S1 S 0.62768(4) 0.86869(8) 0.19016(5)
C1 C 0.56607(15) 0.8132(3) 0.16475(18)
C2 C 0.52095(16) 0.8649(3) 0.14300(17)
C3 C 0.47508(16) 0.8145(3) 0.11986(18)
C4 C 0.47558(16) 0.7177(3) 0.11707(19)
H1 H 0.4445 0.6856 0.1000
C5 C 0.52111(16) 0.6663(3) 0.13889(19)
C6 C 0.56575(16) 0.7156(3) 0.16257(19)
H2 H 0.5970 0.6824 0.1777
S2 S 0.52267(4) 0.98791(7) 0.14480(5)
C7 C 0.5220(2) 1.0090(3) 0.0697(2)
H3 H 0.5472 0.9673 0.0566
H4 H 0.4868 0.9961 0.0462
C8 C 0.5363(2) 1.1091(3) 0.0625(2)
N1 N 0.58727(18) 1.1316(3) 0.0739(2)
C9 C 0.6001(2) 1.2209(4) 0.0687(3)
H5 H 0.6360 1.2371 0.0765
C10 C 0.5639(3) 1.2907(4) 0.0525(3)
H6 H 0.5745 1.3536 0.0499
C11 C 0.5123(3) 1.2669(4) 0.0404(3)
H7 H 0.4864 1.3132 0.0284
C12 C 0.4981(2) 1.1760(4) 0.0457(3)
H8 H 0.4623 1.1590 0.0380
C13 C 0.51909(18) 0.5601(3) 0.1356(2)
C14 C 0.5084(3) 0.5307(4) 0.0724(3)
H9 H 0.4749 0.5566 0.0524
H10 H 0.5071 0.4625 0.0698
H11 H 0.5363 0.5541 0.0545
C15 C 0.4751(2) 0.5239(4) 0.1631(3)
H12 H 0.4798 0.5479 0.2024
H13 H 0.4758 0.4556 0.1640
H14 H 0.4414 0.5451 0.1405
C16 C 0.5702(2) 0.5152(4) 0.1670(3)
H15 H 0.5988 0.5355 0.1491
H16 H 0.5670 0.4472 0.1646
H17 H 0.5776 0.5342 0.2075
S3 S 0.41488(4) 0.87190(7) 0.08888(4)
C17 C 0.39872(15) 0.9257(3) 0.15045(18)
C18 C 0.38864(14) 0.8741(3) 0.19711(17)
C19 C 0.38097(15) 0.9244(3) 0.24552(18)
C20 C 0.37866(17) 1.0210(3) 0.2441(2)
H18 H 0.3721 1.0532 0.2768
C21 C 0.38557(18) 1.0727(3) 0.1965(2)
C22 C 0.39649(18) 1.0228(3) 0.1499(2)
H19 H 0.4025 1.0557 0.1173
S4 S 0.38491(4) 0.75073(7) 0.19194(5)
C23 C 0.31975(17) 0.7265(3) 0.2048(2)
H20 H 0.3085 0.6642 0.1890
H21 H 0.3217 0.7244 0.2468
C24 C 0.27958(16) 0.7966(3) 0.1787(2)
N2 N 0.27306(14) 0.8152(3) 0.12201(17)
C25 C 0.2370(2) 0.8774(4) 0.0975(2)
H22 H 0.2330 0.8903 0.0576
C26 C 0.2057(2) 0.9227(5) 0.1280(3)
H23 H 0.1801 0.9658 0.1095
C27 C 0.2119(2) 0.9051(5) 0.1859(3)
H24 H 0.1907 0.9358 0.2080
C28 C 0.24971(19) 0.8416(4) 0.2113(2)
H25 H 0.2549 0.8291 0.2514
C29 C 0.3831(3) 1.1791(4) 0.1976(3)
C30 C 0.3246(5) 1.2053(7) 0.1914(7)
H26 H 0.3101 1.1716 0.2203
H27 H 0.3053 1.1882 0.1528
H28 H 0.3215 1.2726 0.1971
C31 C 0.4017(5) 1.2225(5) 0.1481(5)
H29 H 0.4023 1.2905 0.1522
H30 H 0.3781 1.2053 0.1119
H31 H 0.4370 1.2001 0.1477
C32 C 0.4123(8) 1.2160(6) 0.2541(5)
H32 H 0.4495 1.2018 0.2585
H33 H 0.3991 1.1866 0.2854
H34 H 0.4075 1.2836 0.2554
S1A S 0.37232(4) 0.86869(8) 0.30984(5)
C1A C 0.43393(15) 0.8132(3) 0.33525(18)
C2A C 0.47905(16) 0.8649(3) 0.35700(17)
C3A C 0.52492(16) 0.8145(3) 0.38014(18)
C4A C 0.52442(16) 0.7177(3) 0.38293(19)
H1A H 0.5555 0.6856 0.4000
C5A C 0.47889(16) 0.6663(3) 0.36111(19)
C6A C 0.43425(16) 0.7156(3) 0.33743(19)
H2A H 0.4030 0.6824 0.3223
S2A S 0.47733(4) 0.98791(7) 0.35520(5)
C7A C 0.4780(2) 1.0090(3) 0.4303(2)
H3A H 0.4528 0.9673 0.4434
H4A H 0.5132 0.9961 0.4538
C8A C 0.4637(2) 1.1091(3) 0.4375(2)
N1A N 0.41273(18) 1.1316(3) 0.4261(2)
C9A C 0.3999(2) 1.2209(4) 0.4313(3)
H5A H 0.3640 1.2371 0.4235
C10A C 0.4361(3) 1.2907(4) 0.4475(3)
H6A H 0.4255 1.3536 0.4501
C11A C 0.4877(3) 1.2669(4) 0.4596(3)
H7A H 0.5136 1.3132 0.4716
C12A C 0.5019(2) 1.1760(4) 0.4543(3)
H8A H 0.5377 1.1590 0.4620
C13A C 0.48091(18) 0.5601(3) 0.3644(2)
C14A C 0.4916(3) 0.5307(4) 0.4276(3)
H9A H 0.5251 0.5566 0.4476
H10A H 0.4929 0.4625 0.4302
H11A H 0.4637 0.5541 0.4455
C15A C 0.5249(2) 0.5239(4) 0.3369(3)
H12A H 0.5202 0.5479 0.2976
H13A H 0.5242 0.4556 0.3360
H14A H 0.5586 0.5451 0.3595
C16A C 0.4298(2) 0.5152(4) 0.3330(3)
H15A H 0.4012 0.5355 0.3509
H16A H 0.4330 0.4472 0.3354
H17A H 0.4224 0.5342 0.2925
S3A S 0.58512(4) 0.87190(7) 0.41112(4)
C17A C 0.60128(15) 0.9257(3) 0.34955(18)
C18A C 0.61136(14) 0.8741(3) 0.30289(17)
C19A C 0.61903(15) 0.9244(3) 0.25448(18)
C20A C 0.62134(17) 1.0210(3) 0.2559(2)
H18A H 0.6279 1.0532 0.2232
C21A C 0.61443(18) 1.0727(3) 0.3035(2)
C22A C 0.60351(18) 1.0228(3) 0.3501(2)
H19A H 0.5975 1.0557 0.3827
S4A S 0.61509(4) 0.75073(7) 0.30806(5)
C23A C 0.68025(17) 0.7265(3) 0.2952(2)
H20A H 0.6915 0.6642 0.3110
H21A H 0.6783 0.7244 0.2532
C24A C 0.72042(16) 0.7966(3) 0.3213(2)
N2A N 0.72694(14) 0.8152(3) 0.37799(17)
C25A C 0.7630(2) 0.8774(4) 0.4025(2)
H22A H 0.7670 0.8903 0.4424
C26A C 0.7943(2) 0.9227(5) 0.3720(3)
H23A H 0.8199 0.9658 0.3905
C27A C 0.7881(2) 0.9051(5) 0.3141(3)
H24A H 0.8093 0.9358 0.2920
C28A C 0.75029(19) 0.8416(4) 0.2887(2)
H25A H 0.7451 0.8291 0.2486
C29A C 0.6169(3) 1.1791(4) 0.3024(3)
C30A C 0.6754(5) 1.2053(7) 0.3086(7)
H26A H 0.6899 1.1716 0.2797
H27A H 0.6947 1.1882 0.3472
H28A H 0.6785 1.2726 0.3029
C31A C 0.5983(5) 1.2225(5) 0.3519(5)
H29A H 0.5977 1.2905 0.3478
H30A H 0.6219 1.2053 0.3881
H31A H 0.5630 1.2001 0.3523
C32A C 0.5877(8) 1.2160(6) 0.2459(5)
H32A H 0.5505 1.2018 0.2415
H33A H 0.6009 1.1866 0.2146
H34A H 0.5925 1.2836 0.2446
Hg1A Hg 0.339152(9) 1.024940(16) 0.413970(10)
Hg2A Hg 0.316368(8) 1.261413(14) 0.567618(8)
Cl1A Cl 0.28823(9) 1.0831(2) 0.32840(8)
Cl2A Cl 0.36452(6) 0.91000(10) 0.48417(7)
Cl3A Cl 0.28927(4) 1.14892(8) 0.47858(5)
Cl4A Cl 0.35617(4) 1.39206(9) 0.53682(6)
Hg2D Hg 0.316368(8) 0.738587(14) 0.067618(8)
Hg2E Hg 0.683632(8) 0.738587(14) 0.432382(8)
Hg2F Hg 0.816368(8) 1.238587(14) 0.067618(8)
Hg2G Hg 0.183632(8) 1.238587(14) 0.432382(8)
Cl3F Cl 0.78927(4) 1.35108(8) -0.02142(5)
Cl3G Cl 0.21073(4) 1.35108(8) 0.52142(5)
S3D S 0.58512(4) 1.12810(7) -0.08888(4)
S3E S 0.41488(4) 1.12810(7) 0.58888(4)
S4D S 0.61509(4) 1.24927(7) -0.19194(5)
S4E S 0.38491(4) 1.24927(7) 0.69194(5)
N2D N 0.72694(14) 1.1848(3) -0.12201(17)
N2E N 0.27306(14) 1.1848(3) 0.62201(17)
C33 C 0.1860(3) 0.8142(5) 0.5360(4)
H35 H 0.1871 0.7503 0.5196
Cl5 Cl 0.24027(10) 0.87588(16) 0.52466(13)
Cl6 Cl 0.12878(11) 0.86750(19) 0.50174(19)
Cl7 Cl 0.18721(14) 0.8037(3) 0.60990(16)
loop_
_geom_bond_atom_site_label_1
_geom_bond_atom_site_label_2
_geom_bond_site_symmetry_1
_geom_bond_site_symmetry_2
Hg1 Cl1 1_555 1_555
Hg2 Cl3 1_555 1_555
Cl2 Hg1 1_555 1_555
Cl3 Hg1 1_555 1_555
Cl4 Hg2 1_555 1_555
S1 C1 1_555 1_555
C1 C2 1_555 1_555
C2 C3 1_555 1_555
C3 C4 1_555 1_555
C4 H1 1_555 1_555
C5 C4 1_555 1_555
C6 C1 1_555 1_555
H2 C6 1_555 1_555
S2 C2 1_555 1_555
C7 S2 1_555 1_555
H3 C7 1_555 1_555
H4 C7 1_555 1_555
C8 C7 1_555 1_555
N1 Hg1 1_555 1_555
C9 N1 1_555 1_555
H5 C9 1_555 1_555
C10 C9 1_555 1_555
H6 C10 1_555 1_555
C11 C10 1_555 1_555
H7 C11 1_555 1_555
C12 C8 1_555 1_555
H8 C12 1_555 1_555
C13 C5 1_555 1_555
C14 C13 1_555 1_555
H9 C14 1_555 1_555
H10 C14 1_555 1_555
H11 C14 1_555 1_555
C15 C13 1_555 1_555
H12 C15 1_555 1_555
H13 C15 1_555 1_555
H14 C15 1_555 1_555
C16 C13 1_555 1_555
H15 C16 1_555 1_555
H16 C16 1_555 1_555
H17 C16 1_555 1_555
S3 C3 1_555 1_555
C17 S3 1_555 1_555
C18 C17 1_555 1_555
C19 C18 1_555 1_555
C20 C19 1_555 1_555
H18 C20 1_555 1_555
C21 C20 1_555 1_555
C22 C17 1_555 1_555
H19 C22 1_555 1_555
S4 C18 1_555 1_555
C23 S4 1_555 1_555
H20 C23 1_555 1_555
H21 C23 1_555 1_555
C24 C23 1_555 1_555
N2 C24 1_555 1_555
C25 N2 1_555 1_555
H22 C25 1_555 1_555
C26 C25 1_555 1_555
H23 C26 1_555 1_555
C27 C26 1_555 1_555
H24 C27 1_555 1_555
C28 C24 1_555 1_555
H25 C28 1_555 1_555
C29 C21 1_555 1_555
C30 C29 1_555 1_555
H26 C30 1_555 1_555
H27 C30 1_555 1_555
H28 C30 1_555 1_555
C31 C29 1_555 1_555
H29 C31 1_555 1_555
H30 C31 1_555 1_555
H31 C31 1_555 1_555
C32 C29 1_555 1_555
H32 C32 1_555 1_555
H33 C32 1_555 1_555
H34 C32 1_555 1_555
C33 H35 1_555 1_555
Cl5 C33 1_555 1_555
Cl6 C33 1_555 1_555
Cl7 C33 1_555 1_555
S1A C19 1_555 1_555
C1A S1A 1_555 1_555
C2A C1A 1_555 1_555
C3A C2A 1_555 1_555
C4A C3A 1_555 1_555
H1A C4A 1_555 1_555
C5A C4A 1_555 1_555
C6A C1A 1_555 1_555
H2A C6A 1_555 1_555
S2A C2A 1_555 1_555
C7A S2A 1_555 1_555
H3A C7A 1_555 1_555
H4A C7A 1_555 1_555
C8A C7A 1_555 1_555
N1A C8A 1_555 1_555
C9A N1A 1_555 1_555
H5A C9A 1_555 1_555
C10A C9A 1_555 1_555
H6A C10A 1_555 1_555
C11A C10A 1_555 1_555
H7A C11A 1_555 1_555
C12A C8A 1_555 1_555
H8A C12A 1_555 1_555
C13A C5A 1_555 1_555
C14A C13A 1_555 1_555
H9A C14A 1_555 1_555
H10A C14A 1_555 1_555
H11A C14A 1_555 1_555
C15A C13A 1_555 1_555
H12A C15A 1_555 1_555
H13A C15A 1_555 1_555
H14A C15A 1_555 1_555
C16A C13A 1_555 1_555
H15A C16A 1_555 1_555
H16A C16A 1_555 1_555
H17A C16A 1_555 1_555
S3A C3A 1_555 1_555
C17A S3A 1_555 1_555
C18A C17A 1_555 1_555
C19A S1 1_555 1_555
C20A C19A 1_555 1_555
H18A C20A 1_555 1_555
C21A C20A 1_555 1_555
C22A C17A 1_555 1_555
H19A C22A 1_555 1_555
S4A C18A 1_555 1_555
C23A S4A 1_555 1_555
H20A C23A 1_555 1_555
H21A C23A 1_555 1_555
C24A C23A 1_555 1_555
N2A C24A 1_555 1_555
C25A N2A 1_555 1_555
H22A C25A 1_555 1_555
C26A C25A 1_555 1_555
H23A C26A 1_555 1_555
C27A C26A 1_555 1_555
H24A C27A 1_555 1_555
C28A C24A 1_555 1_555
H25A C28A 1_555 1_555
C29A C21A 1_555 1_555
C30A C29A 1_555 1_555
H26A C30A 1_555 1_555
H27A C30A 1_555 1_555
H28A C30A 1_555 1_555
C31A C29A 1_555 1_555
H29A C31A 1_555 1_555
H30A C31A 1_555 1_555
H31A C31A 1_555 1_555
C32A C29A 1_555 1_555
H32A C32A 1_555 1_555
H33A C32A 1_555 1_555
H34A C32A 1_555 1_555
Hg1A N1A 1_555 1_555
Hg2A Cl3A 1_555 1_555
Cl1A Hg1A 1_555 1_555
Cl2A Hg1A 1_555 1_555
Cl3A Hg1A 1_555 1_555
Cl4A Hg2A 1_555 1_555
Hg2D S3 1_555 1_555
Hg2E S3A 1_555 1_555
Hg2F Cl3 1_555 1_555
Hg2G Cl3A 1_555 1_555
Cl3F Hg2 1_555 1_555
Cl3G Hg2A 1_555 1_555
S3D Hg2 1_555 1_555
S3E Hg2A 1_555 1_555
S4D Hg2 1_555 1_555
S4E Hg2A 1_555 1_555
N2D Hg2 1_555 1_555
N2E Hg2A 1_555 1_555
C5 C6 1_555 1_555
C8 N1 1_555 1_555
C11 C12 1_555 1_555
C21 C22 1_555 1_555
S4 Hg2D 1_555 1_555
N2 Hg2D 1_555 1_555
C27 C28 1_555 1_555
C5A C6A 1_555 1_555
C11A C12A 1_555 1_555
C18A C19A 1_555 1_555
C21A C22A 1_555 1_555
S4A Hg2E 1_555 1_555
N2A Hg2E 1_555 1_555
C27A C28A 1_555 1_555
Hg2F Cl3F 1_555 1_555
Hg2G Cl3G 1_555 1_555

#END
