
#######################################################################
#
#                 Cambridge Crystallographic Data Centre
#                                CCDC 
#
#######################################################################
#
# If this CIF has been generated from an entry in the Cambridge 
# Structural Database, then it will include bibliographic, chemical, 
# crystal, experimental, refinement or atomic coordinate data resulting 
# from the CCDC's data processing and validation procedures.
#
#######################################################################

data_WIMPAL
_symmetry_cell_setting           triclinic
_symmetry_space_group_name_H-M   'P 1'
_symmetry_Int_Tables_number      1
_space_group_name_Hall           'P 1'
loop_
_symmetry_equiv_pos_site_id
_symmetry_equiv_pos_as_xyz
1 x,y,z
_cell_length_a                   14.2909(8)
_cell_length_b                   14.8409(10)
_cell_length_c                   20.5286(15)
_cell_angle_alpha                97.916(2)
_cell_angle_beta                 106.771(2)
_cell_angle_gamma                96.289(2)
_cell_volume                     4077.52
loop_
_atom_site_label
_atom_site_type_symbol
_atom_site_fract_x
_atom_site_fract_y
_atom_site_fract_z
N1 N 0.2630(7) -0.2908(6) 0.0387(7)
C1 C 0.3155(6) -0.2030(6) 0.0678(7)
H1 H 0.3835 -0.1898 0.0711
C2 C 0.2686(7) -0.1344(5) 0.0919(8)
C3 C 0.1691(8) -0.1538(6) 0.0870(8)
H2 H 0.1371 -0.1069 0.1035
C4 C 0.1166(6) -0.2416(7) 0.0579(8)
H3 H 0.0486 -0.2548 0.0546
C5 C 0.1635(7) -0.3101(5) 0.0338(7)
H4 H 0.1276 -0.3702 0.0139
Hg1 Hg 0.33835(4) -0.41192(3) -0.00124(3)
Cl1 Cl 0.5095(3) -0.3592(3) 0.05096(18)
Cl2 Cl 0.2026(4) -0.5299(2) -0.0234(2)
Hg2 Hg 0.49473(4) 0.47417(3) 0.61905(2)
Cl3 Cl 0.6486(3) 0.4210(3) 0.6546(2)
Cl4 Cl 0.3984(4) 0.5934(2) 0.62085(19)
Hg3 Hg 0.07331(4) -0.18078(4) 0.54602(3)
Cl5 Cl 0.0911(3) -0.0186(3) 0.5678(2)
Cl6 Cl 0.0418(4) -0.3091(5) 0.5971(4)
Hg4 Hg 0.14736(4) 0.24975(3) 1.11080(3)
Cl7 Cl 0.1079(3) 0.0867(2) 1.08880(19)
Cl8 Cl 0.1808(3) 0.3819(3) 1.2000(2)
S1 S 0.6119(2) -0.11151(19) 0.17360(14)
C6 C 0.5987(9) 0.0104(8) 0.1931(5)
C7 C 0.5165(7) 0.0349(7) 0.2041(5)
C8 C 0.5182(8) 0.1307(8) 0.2147(6)
C9 C 0.5958(7) 0.1915(8) 0.2156(5)
H5 H 0.5914 0.2553 0.2224
C10 C 0.6814(10) 0.1647(8) 0.2072(5)
C11 C 0.6783(8) 0.0708(8) 0.1936(5)
H6 H 0.7331 0.0473 0.1843
S2 S 0.4151(2) -0.0442(2) 0.20382(17)
C12 C 0.3259(9) -0.0430(8) 0.1191(6)
H7 H 0.2814 0.0023 0.1241
H8 H 0.3615 -0.0250 0.0869
C13 C 0.7749(10) 0.2336(8) 0.2187(6)
C14 C 0.8158(12) 0.2600(17) 0.2996(9)
H9 H 0.8851 0.2506 0.3153
H10 H 0.7765 0.2211 0.3201
H11 H 0.8116 0.3248 0.3138
C15 C 0.7483(14) 0.3129(11) 0.1795(11)
H12 H 0.8087 0.3470 0.1757
H13 H 0.7166 0.3544 0.2047
H14 H 0.7027 0.2879 0.1332
C16 C 0.8509(10) 0.1993(13) 0.1948(8)
H15 H 0.8565 0.1371 0.2050
H16 H 0.9140 0.2400 0.2183
H17 H 0.8344 0.1971 0.1448
S3 S 0.4068(2) 0.1797(2) 0.22151(14)
C17 C 0.3825(9) 0.1509(7) 0.2969(5)
C18 C 0.4548(7) 0.1626(7) 0.3630(6)
C19 C 0.4221(8) 0.1438(7) 0.4168(5)
C20 C 0.3274(8) 0.1205(10) 0.4103(7)
H18 H 0.3087 0.1149 0.4505
C21 C 0.2505(8) 0.1032(11) 0.3433(7)
C22 C 0.2875(8) 0.1216(9) 0.2885(6)
H19 H 0.2420 0.1124 0.2432
S4 S 0.57768(19) 0.2208(2) 0.37988(14)
C23 C 0.5572(9) 0.3355(8) 0.3631(6)
H20 H 0.6206 0.3785 0.3818
H21 H 0.5324 0.3339 0.3126
C24 C 0.4828(9) 0.3694(7) 0.3964(7)
C25 C 0.5068(9) 0.3937(8) 0.4635(6)
H22 H 0.5727 0.3912 0.4903
N2 N 0.4432(8) 0.4224(6) 0.4977(5)
C26 C 0.3531(12) 0.4296(9) 0.4594(7)
H23 H 0.3099 0.4527 0.4828
C27 C 0.3167(9) 0.4059(8) 0.3874(5)
H24 H 0.2514 0.4124 0.3622
C28 C 0.3833(13) 0.3717(10) 0.3543(7)
H25 H 0.3630 0.3508 0.3057
C29 C 0.1519(14) 0.0752(18) 0.3348(8)
C30 C 0.1292(13) 0.018(2) 0.3874(10)
H26 H 0.1215 -0.0481 0.3686
H27 H 0.0680 0.0315 0.3961
H28 H 0.1840 0.0330 0.4308
C31 C 0.0853(14) 0.026(2) 0.2602(8)
H29 H 0.0172 0.0092 0.2605
H30 H 0.1111 -0.0294 0.2462
H31 H 0.0862 0.0682 0.2274
C32 C 0.1104(15) 0.1695(17) 0.3436(10)
H32 H 0.1592 0.2141 0.3809
H33 H 0.0486 0.1589 0.3551
H34 H 0.0978 0.1936 0.3003
S5 S 0.4996(2) 0.1632(2) 0.50492(14)
C33 C 0.6032(8) 0.1072(8) 0.5053(5)
C34 C 0.5998(7) 0.0164(8) 0.4772(5)
C35 C 0.6923(10) -0.0170(7) 0.4846(5)
C36 C 0.7790(8) 0.0373(9) 0.5197(6)
H35 H 0.8396 0.0144 0.5238
C37 C 0.7796(9) 0.1278(8) 0.5502(6)
C38 C 0.6946(7) 0.1621(7) 0.5426(5)
H36 H 0.6963 0.2241 0.5626
S6 S 0.4855(2) -0.0591(2) 0.43433(13)
C39 C 0.4337(13) -0.0641(11) 0.5071(7)
H37 H 0.4886 -0.0626 0.5498
H38 H 0.4027 -0.0085 0.5138
C40 C 0.3634(8) -0.1423(10) 0.4975(5)
C41 C 0.2764(8) -0.1387(7) 0.5096(5)
H39 H 0.2623 -0.0789 0.5222
N3 N 0.2072(7) -0.2092(7) 0.5058(5)
C42 C 0.2268(12) -0.2945(8) 0.4857(8)
H40 H 0.1814 -0.3452 0.4875
C43 C 0.2984(17) -0.3140(17) 0.4652(12)
H41 H 0.3001 -0.3750 0.4448
C44 C 0.3782(13) -0.2393(10) 0.4737(7)
H42 H 0.4377 -0.2511 0.4646
C45 C 0.8843(10) 0.1833(9) 0.5900(8)
C46 C 0.8690(12) 0.2828(11) 0.6220(12)
H43 H 0.9304 0.3136 0.6575
H44 H 0.8155 0.2762 0.6428
H45 H 0.8517 0.3195 0.5854
C47 C 0.9345(14) 0.1358(17) 0.6456(9)
H46 H 0.9731 0.0932 0.6282
H47 H 0.8849 0.1013 0.6611
H48 H 0.9787 0.1813 0.6845
C48 C 0.9382(11) 0.1969(15) 0.5382(11)
H49 H 0.9987 0.2417 0.5603
H50 H 0.8955 0.2199 0.4995
H51 H 0.9554 0.1380 0.5211
S7 S 0.6968(2) -0.13529(19) 0.45523(13)
C49 C 0.6283(8) -0.1690(6) 0.3650(5)
C50 C 0.6493(8) -0.1206(7) 0.3144(5)
C51 C 0.5958(9) -0.1598(8) 0.2451(6)
C52 C 0.5308(9) -0.2417(8) 0.2297(6)
H52 H 0.4962 -0.2676 0.1828
C53 C 0.5149(10) -0.2872(8) 0.2821(6)
C54 C 0.5620(8) -0.2460(7) 0.3498(5)
H53 H 0.5473 -0.2723 0.3860
S8 S 0.7421(2) -0.0229(2) 0.33926(15)
C55 C 0.8372(10) -0.0609(13) 0.3082(7)
H54 H 0.8143 -0.0729 0.2570
H55 H 0.8959 -0.0119 0.3239
C56 C 0.8669(7) -0.1509(7) 0.3350(5)
C57 C 0.9301(6) -0.1394(6) 0.4022(4)
H56 H 0.9530 -0.0794 0.4292
N4 N 0.9600(7) -0.2157(7) 0.4299(4)
C58 C 0.9265(8) -0.3035(6) 0.3905(6)
H57 H 0.9469 -0.3557 0.4094
C59 C 0.8633(8) -0.3150(7) 0.3233(5)
H58 H 0.8404 -0.3750 0.2963
C60 C 0.8334(7) -0.2387(9) 0.2955(4)
H59 H 0.7902 -0.2466 0.2496
C61 C 0.4433(11) -0.3801(7) 0.2599(6)
C62 C 0.3879(15) -0.3917(12) 0.3154(9)
H60 H 0.3543 -0.3385 0.3217
H61 H 0.4360 -0.3956 0.3595
H62 H 0.3390 -0.4481 0.2995
C63 C 0.3666(12) -0.3844(10) 0.1978(7)
H63 H 0.3941 -0.3606 0.1638
H64 H 0.3177 -0.3470 0.2067
H65 H 0.3347 -0.4484 0.1797
C64 C 0.5002(18) -0.4560(11) 0.2488(11)
H66 H 0.4561 -0.5076 0.2151
H67 H 0.5282 -0.4765 0.2928
H68 H 0.5539 -0.4337 0.2314
S9 S 0.6496(2) 0.16224(18) 0.71045(12)
C65 C 0.6518(8) 0.2123(7) 0.7963(5)
C66 C 0.6950(7) 0.1743(6) 0.8557(5)
C67 C 0.6938(8) 0.2213(7) 0.9182(5)
C68 C 0.6527(8) 0.3041(7) 0.9217(5)
H69 H 0.6481 0.3324 0.9648
C69 C 0.6196(10) 0.3442(7) 0.8650(6)
C70 C 0.6179(9) 0.2959(7) 0.7993(6)
H70 H 0.5939 0.3208 0.7585
S10 S 0.7628(3) 0.0840(3) 0.85261(16)
C71 C 0.8642(11) 0.1369(17) 0.8417(7)
H71 H 0.9108 0.0923 0.8417
H72 H 0.8460 0.1549 0.7956
C72 C 0.9197(9) 0.2245(17) 0.8966(8)
C73 C 0.9880(9) 0.2118(13) 0.9606(7)
H73 H 1.0052 0.1522 0.9639
N5 N 1.0275(9) 0.2775(11) 1.0140(9)
C74 C 1.0078(13) 0.3673(13) 1.0114(13)
H74 H 1.0406 0.4165 1.0487
C75 C 0.9419(15) 0.3811(16) 0.9550(14)
H75 H 0.9233 0.4406 0.9538
C76 C 0.8977(10) 0.3106(16) 0.8962(12)
H76 H 0.8523 0.3242 0.8562
C77 C 0.5792(11) 0.4358(8) 0.8692(6)
C78 C 0.5288(12) 0.4443(9) 0.9247(6)
H77 H 0.4897 0.3849 0.9226
H78 H 0.4850 0.4909 0.9172
H79 H 0.5788 0.4628 0.9702
C79 C 0.5026(12) 0.4516(9) 0.8005(6)
H80 H 0.5376 0.4647 0.7674
H81 H 0.4696 0.5037 0.8110
H82 H 0.4531 0.3960 0.7804
C80 C 0.6720(10) 0.5085(8) 0.8808(7)
H83 H 0.7314 0.4790 0.8920
H84 H 0.6768 0.5579 0.9192
H85 H 0.6664 0.5343 0.8387
S11 S 0.7483(2) 0.19223(19) 0.99883(13)
C81 C 0.7044(8) 0.0750(8) 0.9953(5)
C82 C 0.6003(7) 0.0429(7) 0.9809(5)
C83 C 0.5733(7) -0.0506(6) 0.9860(5)
C84 C 0.6437(8) -0.0997(8) 1.0052(5)
H86 H 0.6226 -0.1611 1.0091
C85 C 0.7472(8) -0.0735(7) 1.0209(5)
C86 C 0.7699(9) 0.0179(8) 1.0126(6)
H87 H 0.8375 0.0410 1.0198
S12 S 0.5117(2) 0.11713(17) 0.95857(13)
C87 C 0.4590(11) 0.1138(10) 1.0290(7)
H88 H 0.4049 0.0608 1.0164
H89 H 0.5105 0.1053 1.0708
C88 C 0.4181(10) 0.2046(8) 1.0448(6)
C89 C 0.3286(9) 0.1978(8) 1.0536(5)
H90 H 0.2898 0.1385 1.0443
N6 N 0.2910(6) 0.2728(6) 1.0756(4)
C90 C 0.3429(9) 0.3515(8) 1.0870(6)
H91 H 0.3177 0.4041 1.1027
C91 C 0.4368(10) 0.3634(8) 1.0772(7)
H92 H 0.4722 0.4239 1.0844
C92 C 0.4773(10) 0.2906(8) 1.0576(6)
H93 H 0.5417 0.2972 1.0529
C93 C 0.8243(9) -0.1331(8) 1.0395(8)
C94 C 0.7782(11) -0.2300(9) 1.0435(13)
H94 H 0.8293 -0.2602 1.0713
H95 H 0.7505 -0.2665 0.9968
H96 H 0.7255 -0.2252 1.0649
C95 C 0.8983(16) -0.0892(12) 1.1109(10)
H97 H 0.9615 -0.0650 1.1052
H98 H 0.9086 -0.1360 1.1405
H99 H 0.8718 -0.0389 1.1322
C96 C 0.8798(17) -0.1385(13) 0.9842(11)
H100 H 0.9488 -0.1450 1.0060
H101 H 0.8777 -0.0820 0.9644
H102 H 0.8477 -0.1917 0.9475
S13 S 0.45196(19) -0.10512(18) 0.97286(12)
C97 C 0.3794(8) -0.0895(7) 0.8916(5)
C98 C 0.4037(6) -0.1105(6) 0.8294(5)
C99 C 0.3361(7) -0.0996(7) 0.7683(5)
C100 C 0.2428(8) -0.0770(7) 0.7673(6)
H103 H 0.1985 -0.0690 0.7248
C101 C 0.2127(9) -0.0660(8) 0.8267(6)
C102 C 0.2857(7) -0.0705(8) 0.8897(5)
H104 H 0.2699 -0.0602 0.9317
S14 S 0.5162(2) -0.15467(19) 0.83374(13)
C103 C 0.4631(10) -0.2732(8) 0.7854(7)
H105 H 0.4402 -0.2711 0.7354
H106 H 0.5160 -0.3120 0.7932
C104 C 0.3783(9) -0.3181(7) 0.8049(5)
C105 C 0.3929(8) -0.3325(6) 0.8691(5)
H107 H 0.4571 -0.3169 0.9019
N7 N 0.3139(9) -0.3704(8) 0.8881(6)
C106 C 0.2260(11) -0.3876(9) 0.8411(8)
H108 H 0.1718 -0.4157 0.8532
C107 C 0.2080(11) -0.3672(10) 0.7756(8)
H109 H 0.1429 -0.3779 0.7440
C108 C 0.2881(11) -0.3306(10) 0.7578(7)
H110 H 0.2799 -0.3147 0.7134
C109 C 0.1059(9) -0.0586(9) 0.8222(7)
C110 C 0.0500(16) -0.1538(11) 0.7993(11)
H111 H 0.0316 -0.1700 0.7489
H112 H -0.0099 -0.1572 0.8136
H113 H 0.0916 -0.1969 0.8204
C111 C 0.1076(15) 0.0071(19) 0.8916(8)
H114 H 0.0417 -0.0011 0.8975
H115 H 0.1264 0.0715 0.8884
H116 H 0.1558 -0.0088 0.9314
C112 C 0.0549(10) -0.0090(10) 0.7618(7)
H117 H 0.0576 -0.0425 0.7179
H118 H 0.0895 0.0542 0.7699
H119 H -0.0143 -0.0078 0.7597
S15 S 0.3500(2) -0.12758(19) 0.68427(13)
C113 C 0.4710(9) -0.0800(8) 0.6890(5)
C114 C 0.5057(9) 0.0157(6) 0.7030(5)
C115 C 0.6027(8) 0.0447(7) 0.6996(5)
C116 C 0.6584(9) -0.0190(8) 0.6836(5)
H120 H 0.7228 0.0021 0.6820
C117 C 0.6254(9) -0.1120(8) 0.6697(5)
C118 C 0.5315(10) -0.1409(7) 0.6695(5)
H121 H 0.5057 -0.2047 0.6558
S16 S 0.4327(2) 0.0951(2) 0.72575(15)
C119 C 0.3586(9) 0.1034(7) 0.6400(6)
H122 H 0.3965 0.0911 0.6071
H123 H 0.2981 0.0566 0.6252
C120 C 0.3309(9) 0.1957(8) 0.6391(7)
C121 C 0.3997(9) 0.2742(9) 0.6343(6)
H124 H 0.4636 0.2647 0.6325
N8 N 0.3756(9) 0.3560(7) 0.6323(7)
C122 C 0.2933(11) 0.3678(11) 0.6398(15)
H125 H 0.2792 0.4291 0.6423
C123 C 0.2262(18) 0.3061(12) 0.6445(17)
H126 H 0.1663 0.3239 0.6493
C124 C 0.2384(14) 0.2125(13) 0.6426(16)
H127 H 0.1883 0.1656 0.6436
C125 C 0.6921(12) -0.1855(10) 0.6612(7)
C126 C 0.6372(15) -0.2609(10) 0.5961(9)
H128 H 0.6431 -0.3221 0.6082
H129 H 0.6670 -0.2536 0.5593
H130 H 0.5671 -0.2544 0.5800
C127 C 0.7889(9) -0.1417(9) 0.6494(6)
H131 H 0.8399 -0.1196 0.6941
H132 H 0.7755 -0.0899 0.6250
H133 H 0.8122 -0.1880 0.6216
C128 C 0.7176(18) -0.225(2) 0.7298(11)
H134 H 0.7094 -0.2921 0.7191
H135 H 0.6732 -0.2065 0.7561
H136 H 0.7863 -0.2003 0.7574
Hg1_2 Hg 0.33835(4) -0.41192(3) 0.99876(3)
Hg3_2 Hg 1.07331(4) -0.18078(4) 0.54602(3)
Hg4_2 Hg 1.14736(4) 0.24975(3) 1.11080(3)
N4_2 N -0.0400(7) -0.2157(7) 0.4299(4)
N5_2 N 0.0275(9) 0.2775(11) 1.0140(9)
N7_2 N 0.3139(9) -0.3704(8) -0.1119(6)
loop_
_geom_bond_atom_site_label_1
_geom_bond_atom_site_label_2
_geom_bond_site_symmetry_1
_geom_bond_site_symmetry_2
N1 C1 1_555 1_555
C1 H1 1_555 1_555
C2 C1 1_555 1_555
C3 C2 1_555 1_555
H2 C3 1_555 1_555
C4 C3 1_555 1_555
H3 C4 1_555 1_555
C5 N1 1_555 1_555
H4 C5 1_555 1_555
Hg1 N1 1_555 1_555
Cl1 Hg1 1_555 1_555
Cl2 Hg1 1_555 1_555
Hg2 Cl3 1_555 1_555
Cl4 Hg2 1_555 1_555
Hg3 Cl5 1_555 1_555
Cl6 Hg3 1_555 1_555
Hg4 Cl7 1_555 1_555
Cl8 Hg4 1_555 1_555
S1 C6 1_555 1_555
C6 C7 1_555 1_555
C7 C8 1_555 1_555
C8 C9 1_555 1_555
C9 H5 1_555 1_555
C10 C9 1_555 1_555
C11 C6 1_555 1_555
H6 C11 1_555 1_555
S2 C7 1_555 1_555
C12 C2 1_555 1_555
H7 C12 1_555 1_555
H8 C12 1_555 1_555
C13 C10 1_555 1_555
C14 C13 1_555 1_555
H9 C14 1_555 1_555
H10 C14 1_555 1_555
H11 C14 1_555 1_555
C15 C13 1_555 1_555
H12 C15 1_555 1_555
H13 C15 1_555 1_555
H14 C15 1_555 1_555
C16 C13 1_555 1_555
H15 C16 1_555 1_555
H16 C16 1_555 1_555
H17 C16 1_555 1_555
S3 C8 1_555 1_555
C17 S3 1_555 1_555
C18 C17 1_555 1_555
C19 C18 1_555 1_555
C20 C19 1_555 1_555
H18 C20 1_555 1_555
C21 C20 1_555 1_555
C22 C17 1_555 1_555
H19 C22 1_555 1_555
S4 C18 1_555 1_555
C23 S4 1_555 1_555
H20 C23 1_555 1_555
H21 C23 1_555 1_555
C24 C23 1_555 1_555
C25 C24 1_555 1_555
H22 C25 1_555 1_555
N2 Hg2 1_555 1_555
C26 N2 1_555 1_555
H23 C26 1_555 1_555
C27 C26 1_555 1_555
H24 C27 1_555 1_555
C28 C24 1_555 1_555
H25 C28 1_555 1_555
C29 C21 1_555 1_555
C30 C29 1_555 1_555
H26 C30 1_555 1_555
H27 C30 1_555 1_555
H28 C30 1_555 1_555
C31 C29 1_555 1_555
H29 C31 1_555 1_555
H30 C31 1_555 1_555
H31 C31 1_555 1_555
C32 C29 1_555 1_555
H32 C32 1_555 1_555
H33 C32 1_555 1_555
H34 C32 1_555 1_555
S5 C19 1_555 1_555
C33 S5 1_555 1_555
C34 C33 1_555 1_555
C35 C34 1_555 1_555
C36 C35 1_555 1_555
H35 C36 1_555 1_555
C37 C36 1_555 1_555
C38 C33 1_555 1_555
H36 C38 1_555 1_555
S6 C34 1_555 1_555
C39 S6 1_555 1_555
H37 C39 1_555 1_555
H38 C39 1_555 1_555
C40 C39 1_555 1_555
C41 C40 1_555 1_555
H39 C41 1_555 1_555
N3 Hg3 1_555 1_555
C42 N3 1_555 1_555
H40 C42 1_555 1_555
C43 C42 1_555 1_555
H41 C43 1_555 1_555
C44 C40 1_555 1_555
H42 C44 1_555 1_555
C45 C37 1_555 1_555
C46 C45 1_555 1_555
H43 C46 1_555 1_555
H44 C46 1_555 1_555
H45 C46 1_555 1_555
C47 C45 1_555 1_555
H46 C47 1_555 1_555
H47 C47 1_555 1_555
H48 C47 1_555 1_555
C48 C45 1_555 1_555
H49 C48 1_555 1_555
H50 C48 1_555 1_555
H51 C48 1_555 1_555
S7 C35 1_555 1_555
C49 S7 1_555 1_555
C50 C49 1_555 1_555
C51 S1 1_555 1_555
C52 C51 1_555 1_555
H52 C52 1_555 1_555
C53 C52 1_555 1_555
C54 C49 1_555 1_555
H53 C54 1_555 1_555
S8 C50 1_555 1_555
C55 S8 1_555 1_555
H54 C55 1_555 1_555
H55 C55 1_555 1_555
C56 C55 1_555 1_555
C57 C56 1_555 1_555
H56 C57 1_555 1_555
N4 C57 1_555 1_555
C58 N4 1_555 1_555
H57 C58 1_555 1_555
C59 C58 1_555 1_555
H58 C59 1_555 1_555
C60 C56 1_555 1_555
H59 C60 1_555 1_555
C61 C53 1_555 1_555
C62 C61 1_555 1_555
H60 C62 1_555 1_555
H61 C62 1_555 1_555
H62 C62 1_555 1_555
C63 C61 1_555 1_555
H63 C63 1_555 1_555
H64 C63 1_555 1_555
H65 C63 1_555 1_555
C64 C61 1_555 1_555
H66 C64 1_555 1_555
H67 C64 1_555 1_555
H68 C64 1_555 1_555
S9 C65 1_555 1_555
C65 C66 1_555 1_555
C66 C67 1_555 1_555
C67 C68 1_555 1_555
C68 H69 1_555 1_555
C69 C68 1_555 1_555
C70 C65 1_555 1_555
H70 C70 1_555 1_555
S10 C66 1_555 1_555
C71 S10 1_555 1_555
H71 C71 1_555 1_555
H72 C71 1_555 1_555
C72 C71 1_555 1_555
C73 C72 1_555 1_555
H73 C73 1_555 1_555
N5 C73 1_555 1_555
C74 N5 1_555 1_555
H74 C74 1_555 1_555
C75 C74 1_555 1_555
H75 C75 1_555 1_555
C76 C72 1_555 1_555
H76 C76 1_555 1_555
C77 C69 1_555 1_555
C78 C77 1_555 1_555
H77 C78 1_555 1_555
H78 C78 1_555 1_555
H79 C78 1_555 1_555
C79 C77 1_555 1_555
H80 C79 1_555 1_555
H81 C79 1_555 1_555
H82 C79 1_555 1_555
C80 C77 1_555 1_555
H83 C80 1_555 1_555
H84 C80 1_555 1_555
H85 C80 1_555 1_555
S11 C67 1_555 1_555
C81 S11 1_555 1_555
C82 C81 1_555 1_555
C83 C82 1_555 1_555
C84 C83 1_555 1_555
H86 C84 1_555 1_555
C85 C84 1_555 1_555
C86 C81 1_555 1_555
H87 C86 1_555 1_555
S12 C82 1_555 1_555
C87 S12 1_555 1_555
H88 C87 1_555 1_555
H89 C87 1_555 1_555
C88 C87 1_555 1_555
C89 C88 1_555 1_555
H90 C89 1_555 1_555
N6 Hg4 1_555 1_555
C90 N6 1_555 1_555
H91 C90 1_555 1_555
C91 C90 1_555 1_555
H92 C91 1_555 1_555
C92 C88 1_555 1_555
H93 C92 1_555 1_555
C93 C85 1_555 1_555
C94 C93 1_555 1_555
H94 C94 1_555 1_555
H95 C94 1_555 1_555
H96 C94 1_555 1_555
C95 C93 1_555 1_555
H97 C95 1_555 1_555
H98 C95 1_555 1_555
H99 C95 1_555 1_555
C96 C93 1_555 1_555
H100 C96 1_555 1_555
H101 C96 1_555 1_555
H102 C96 1_555 1_555
S13 C83 1_555 1_555
C97 S13 1_555 1_555
C98 C97 1_555 1_555
C99 C98 1_555 1_555
C100 C99 1_555 1_555
H103 C100 1_555 1_555
C101 C100 1_555 1_555
C102 C97 1_555 1_555
H104 C102 1_555 1_555
S14 C98 1_555 1_555
C103 S14 1_555 1_555
H105 C103 1_555 1_555
H106 C103 1_555 1_555
C104 C103 1_555 1_555
C105 C104 1_555 1_555
H107 C105 1_555 1_555
N7 C105 1_555 1_555
C106 N7 1_555 1_555
H108 C106 1_555 1_555
C107 C106 1_555 1_555
H109 C107 1_555 1_555
C108 C104 1_555 1_555
H110 C108 1_555 1_555
C109 C101 1_555 1_555
C110 C109 1_555 1_555
H111 C110 1_555 1_555
H112 C110 1_555 1_555
H113 C110 1_555 1_555
C111 C109 1_555 1_555
H114 C111 1_555 1_555
H115 C111 1_555 1_555
H116 C111 1_555 1_555
C112 C109 1_555 1_555
H117 C112 1_555 1_555
H118 C112 1_555 1_555
H119 C112 1_555 1_555
S15 C99 1_555 1_555
C113 S15 1_555 1_555
C114 C113 1_555 1_555
C115 S9 1_555 1_555
C116 C115 1_555 1_555
H120 C116 1_555 1_555
C117 C116 1_555 1_555
C118 C113 1_555 1_555
H121 C118 1_555 1_555
S16 C114 1_555 1_555
C119 S16 1_555 1_555
H122 C119 1_555 1_555
H123 C119 1_555 1_555
C120 C119 1_555 1_555
C121 C120 1_555 1_555
H124 C121 1_555 1_555
N8 Hg2 1_555 1_555
C122 N8 1_555 1_555
H125 C122 1_555 1_555
C123 C122 1_555 1_555
H126 C123 1_555 1_555
C124 C120 1_555 1_555
H127 C124 1_555 1_555
C125 C117 1_555 1_555
C126 C125 1_555 1_555
H128 C126 1_555 1_555
H129 C126 1_555 1_555
H130 C126 1_555 1_555
C127 C125 1_555 1_555
H131 C127 1_555 1_555
H132 C127 1_555 1_555
H133 C127 1_555 1_555
C128 C125 1_555 1_555
H134 C128 1_555 1_555
H135 C128 1_555 1_555
H136 C128 1_555 1_555
Hg1_2 N7 1_555 1_555
Hg3_2 N4 1_555 1_555
Hg4_2 N5 1_555 1_555
N4_2 Hg3 1_555 1_555
N5_2 Hg4 1_555 1_555
N7_2 Hg1 1_555 1_555
C4 C5 1_555 1_555
C10 C11 1_555 1_555
S2 C12 1_555 1_555
C21 C22 1_555 1_555
C25 N2 1_555 1_555
C27 C28 1_555 1_555
C37 C38 1_555 1_555
C41 N3 1_555 1_555
C43 C44 1_555 1_555
C50 C51 1_555 1_555
C53 C54 1_555 1_555
C59 C60 1_555 1_555
C69 C70 1_555 1_555
C75 C76 1_555 1_555
C85 C86 1_555 1_555
C89 N6 1_555 1_555
C91 C92 1_555 1_555
C101 C102 1_555 1_555
C107 C108 1_555 1_555
C114 C115 1_555 1_555
C117 C118 1_555 1_555
C121 N8 1_555 1_555
C123 C124 1_555 1_555

#END
