
#######################################################################
#
#                 Cambridge Crystallographic Data Centre
#                                CCDC 
#
#######################################################################
#
# If this CIF has been generated from an entry in the Cambridge 
# Structural Database, then it will include bibliographic, chemical, 
# crystal, experimental, refinement or atomic coordinate data resulting 
# from the CCDC's data processing and validation procedures.
#
#######################################################################

data_WIMPEP
_symmetry_cell_setting           triclinic
_symmetry_space_group_name_H-M   'P -1'
_symmetry_Int_Tables_number      2
_space_group_name_Hall           '-P 1'
loop_
_symmetry_equiv_pos_site_id
_symmetry_equiv_pos_as_xyz
1 x,y,z
2 -x,-y,-z
_cell_length_a                   15.7893(5)
_cell_length_b                   16.0491(6)
_cell_length_c                   17.3803(6)
_cell_angle_alpha                68.2110(10)
_cell_angle_beta                 71.5470(10)
_cell_angle_gamma                81.3960(10)
_cell_volume                     3876.74
loop_
_atom_site_label
_atom_site_type_symbol
_atom_site_fract_x
_atom_site_fract_y
_atom_site_fract_z
Hg1 Hg 1.174265(15) 0.308593(14) 0.400481(14)
Cl1 Cl 1.10465(11) 0.17190(10) 0.45088(10)
Cl2 Cl 1.28877(10) 0.39296(10) 0.39339(10)
Hg2 Hg 0.061088(16) 0.873073(14) 0.355955(15)
Cl3 Cl -0.03341(12) 0.80841(11) 0.31471(13)
Cl4 Cl 0.10641(11) 0.95229(10) 0.42421(10)
S1 S 0.60684(8) 0.57552(8) 0.43271(7)
C1 C 0.6646(3) 0.5124(3) 0.3647(3)
C2 C 0.7490(3) 0.5329(3) 0.3052(3)
C3 C 0.7858(3) 0.4756(3) 0.2585(3)
C4 C 0.7427(3) 0.3985(3) 0.2738(3)
H1 H 0.7704 0.3606 0.2412
C5 C 0.6608(3) 0.3757(3) 0.3352(3)
C6 C 0.6225(3) 0.4353(3) 0.3797(3)
H2 H 0.5658 0.4227 0.4215
S2 S 0.80602(9) 0.62933(8) 0.28530(8)
C7 C 0.8299(4) 0.6044(4) 0.3881(4)
H3 H 0.8454 0.6604 0.3912
H4 H 0.7758 0.5814 0.4363
C8 C 0.9056(4) 0.5361(4) 0.3984(3)
C9 C 0.8922(4) 0.4445(4) 0.4338(4)
H5 H 0.8335 0.4230 0.4533
C10 C 0.9641(4) 0.3845(4) 0.4407(4)
H6 H 0.9534 0.3221 0.4656
N1 N 1.0475(3) 0.4106(3) 0.4140(3)
C11 C 1.0605(4) 0.4988(4) 0.3814(5)
H7 H 1.1197 0.5183 0.3644
C12 C 0.9928(4) 0.5630(4) 0.3712(5)
H8 H 1.0056 0.6249 0.3458
C13 C 0.6125(6) 0.2928(5) 0.3511(6)
C14 C 0.6107(6) 0.2251(5) 0.4410(5)
H9 H 0.5852 0.2545 0.4842
H10 H 0.6717 0.2028 0.4423
H11 H 0.5740 0.1747 0.4543
C15 C 0.6586(6) 0.2457(5) 0.2861(6)
H12 H 0.6244 0.1938 0.2983
H13 H 0.7191 0.2255 0.2906
H14 H 0.6619 0.2875 0.2275
C16 C 0.5184(5) 0.3177(5) 0.3466(6)
H15 H 0.4849 0.3393 0.3941
H16 H 0.4900 0.2649 0.3516
H17 H 0.5188 0.3652 0.2912
S3 S 0.89287(9) 0.48862(9) 0.18120(9)
C17 C 0.8937(3) 0.5984(3) 0.1026(3)
C18 C 0.8275(3) 0.6348(3) 0.0599(3)
C19 C 0.8407(3) 0.7202(3) -0.0037(3)
C20 C 0.9184(4) 0.7651(4) -0.0257(3)
H18 H 0.9259 0.8229 -0.0693
C21 C 0.9853(4) 0.7279(4) 0.0142(4)
C22 C 0.9705(4) 0.6444(4) 0.0797(4)
H19 H 1.0143 0.6183 0.1096
S4 S 0.72934(9) 0.57673(10) 0.08530(9)
C23 C 0.7752(4) 0.4970(4) 0.0296(4)
H20 H 0.8332 0.4720 0.0405
H21 H 0.7342 0.4468 0.0530
C24 C 0.7885(4) 0.5402(4) -0.0662(4)
C25 C 0.8696(4) 0.5737(4) -0.1233(4)
H22 H 0.9198 0.5677 -0.1024
C26 C 0.8779(4) 0.6157(4) -0.2100(4)
H23 H 0.9342 0.6381 -0.2477
N2 N 0.8097(3) 0.6263(3) -0.2433(3)
C27 C 0.7307(4) 0.5931(4) -0.1881(4)
H24 H 0.6814 0.5996 -0.2105
C28 C 0.7187(4) 0.5505(4) -0.1014(4)
H25 H 0.6620 0.5278 -0.0650
C29 C 1.0726(4) 0.7767(4) -0.0135(5)
C30 C 1.1375(6) 0.7484(8) -0.0863(8)
H26 H 1.1087 0.7581 -0.1314
H27 H 1.1547 0.6847 -0.0634
H28 H 1.1909 0.7844 -0.1108
C31 C 1.1114(7) 0.7528(8) 0.0623(7)
H29 H 1.1658 0.7861 0.0436
H30 H 1.1260 0.6882 0.0824
H31 H 1.0676 0.7687 0.1094
C32 C 1.0600(6) 0.8773(5) -0.0486(9)
H32 H 1.0359 0.8944 -0.0981
H33 H 1.1177 0.9051 -0.0671
H34 H 1.0182 0.8980 -0.0035
S5 S 0.77094(9) 0.77422(10) -0.07241(8)
C33 C 0.6585(4) 0.7763(3) -0.0087(3)
C34 C 0.6289(3) 0.8086(3) 0.0605(3)
C35 C 0.5363(3) 0.8157(3) 0.0976(3)
C36 C 0.4766(4) 0.7940(3) 0.0640(3)
H35 H 0.4143 0.8009 0.0890
C37 C 0.5057(4) 0.7624(4) -0.0050(3)
C38 C 0.5971(4) 0.7527(4) -0.0397(3)
H36 H 0.6187 0.7295 -0.0857
S6 S 0.70752(9) 0.83485(9) 0.10109(8)
C39 C 0.6947(4) 0.9559(4) 0.0645(4)
H37 H 0.6306 0.9737 0.0724
H38 H 0.7169 0.9790 0.0999
C40 C 0.7455(4) 0.9970(3) -0.0292(4)
C41 C 0.8365(4) 1.0046(4) -0.0527(4)
H39 H 0.8670 0.9865 -0.0096
C42 C 0.8836(4) 1.0387(4) -0.1394(4)
H40 H 0.9465 1.0427 -0.1544
N3 N 0.8442(3) 1.0660(3) -0.2024(3)
C43 C 0.7554(4) 1.0587(4) -0.1787(4)
H41 H 0.7259 1.0780 -0.2227
C44 C 0.7044(4) 1.0245(4) -0.0939(4)
H42 H 0.6417 1.0200 -0.0803
C45 C 0.4382(6) 0.7387(6) -0.0397(6)
C46 C 0.3632(6) 0.6839(6) 0.0355(6)
H43 H 0.3894 0.6319 0.0733
H44 H 0.3244 0.6631 0.0126
H45 H 0.3280 0.7216 0.0685
C47 C 0.3982(6) 0.8235(6) -0.0912(6)
H46 H 0.3693 0.8596 -0.0545
H47 H 0.3539 0.8086 -0.1123
H48 H 0.4454 0.8579 -0.1405
C48 C 0.4800(6) 0.6821(6) -0.0964(6)
H49 H 0.5254 0.7165 -0.1476
H50 H 0.4337 0.6661 -0.1144
H51 H 0.5079 0.6273 -0.0638
S7 S 0.48356(9) 0.85983(8) 0.18172(8)
C49 C 0.5415(3) 0.8115(3) 0.2619(3)
C50 C 0.5518(3) 0.7181(3) 0.3025(3)
C51 C 0.5968(3) 0.6895(3) 0.3662(3)
C52 C 0.6286(3) 0.7518(3) 0.3883(3)
H52 H 0.6582 0.7304 0.4322
C53 C 0.6183(3) 0.8435(3) 0.3486(3)
C54 C 0.5730(3) 0.8722(3) 0.2854(3)
H53 H 0.5634 0.9347 0.2579
S8 S 0.51834(9) 0.64217(8) 0.26581(8)
C55 C 0.4242(4) 0.5878(3) 0.3564(4)
H54 H 0.4126 0.5315 0.3510
H55 H 0.4399 0.5718 0.4111
C56 C 0.3410(4) 0.6468(3) 0.3600(3)
C57 C 0.3194(4) 0.7028(4) 0.4076(3)
H56 H 0.3576 0.7041 0.4398
C58 C 0.2430(4) 0.7571(4) 0.4090(4)
H57 H 0.2302 0.7952 0.4423
N4 N 0.1865(3) 0.7585(3) 0.3662(3)
C59 C 0.2056(4) 0.7044(4) 0.3198(4)
H58 H 0.1651 0.7038 0.2896
C60 C 0.2826(4) 0.6483(4) 0.3136(4)
H59 H 0.2949 0.6121 0.2785
C61 C 0.6586(4) 0.9128(3) 0.3673(3)
C62 C 0.7186(5) 0.9751(5) 0.2820(4)
H60 H 0.6839 1.0026 0.2404
H61 H 0.7694 0.9399 0.2584
H62 H 0.7404 1.0222 0.2933
C63 C 0.7172(4) 0.8678(4) 0.4277(4)
H63 H 0.7431 0.9139 0.4370
H64 H 0.7654 0.8319 0.4016
H65 H 0.6809 0.8288 0.4832
C64 C 0.5846(5) 0.9685(4) 0.4080(5)
H66 H 0.5470 0.9291 0.4624
H67 H 0.5483 0.9995 0.3684
H68 H 0.6108 1.0127 0.4194
Hg1A Hg 0.825735(15) 0.691407(14) -0.400481(14)
Hg2A Hg 0.938912(16) 1.126927(14) -0.355955(15)
N2A N 1.1903(3) 0.3737(3) 0.2433(3)
N3A N 0.1558(3) 0.9340(3) 0.2024(3)
C65 C 0.9592(4) 0.1340(4) 0.3480(4)
H69 H 0.9825 0.1085 0.3997
Cl5 Cl 0.89006(16) 0.05592(13) 0.35219(17)
Cl6 Cl 1.05009(16) 0.15487(15) 0.25463(12)
Cl7 Cl 0.89880(14) 0.23516(12) 0.35039(14)
C66 C 0.3082(5) 0.0745(4) 0.3416(4)
H70 H 0.2427 0.0893 0.3593
Cl8 Cl 0.3436(3) 0.0660(3) 0.2361(2)
Cl9 Cl 0.3719(4) 0.1548(4) 0.3451(3)
Cl10 Cl 0.3371(3) -0.0187(3) 0.4160(3)
Cl11? Cl 0.3580(3) -0.0332(3) 0.3684(4)
Cl12? Cl 0.2775(4) 0.1125(3) 0.2516(3)
Cl13? Cl 0.3567(5) 0.1748(4) 0.3257(4)
loop_
_geom_bond_atom_site_label_1
_geom_bond_atom_site_label_2
_geom_bond_site_symmetry_1
_geom_bond_site_symmetry_2
Hg1 Cl1 1_555 1_555
Cl2 Hg1 1_555 1_555
Hg2 Cl3 1_555 1_555
Cl4 Hg2 1_555 1_555
S1 C1 1_555 1_555
C1 C2 1_555 1_555
C2 C3 1_555 1_555
C3 C4 1_555 1_555
C4 H1 1_555 1_555
C5 C4 1_555 1_555
C6 C1 1_555 1_555
H2 C6 1_555 1_555
S2 C2 1_555 1_555
C7 S2 1_555 1_555
H3 C7 1_555 1_555
H4 C7 1_555 1_555
C8 C7 1_555 1_555
C9 C8 1_555 1_555
H5 C9 1_555 1_555
C10 C9 1_555 1_555
H6 C10 1_555 1_555
N1 Hg1 1_555 1_555
C11 N1 1_555 1_555
H7 C11 1_555 1_555
C12 C8 1_555 1_555
H8 C12 1_555 1_555
C13 C5 1_555 1_555
C14 C13 1_555 1_555
H9 C14 1_555 1_555
H10 C14 1_555 1_555
H11 C14 1_555 1_555
C15 C13 1_555 1_555
H12 C15 1_555 1_555
H13 C15 1_555 1_555
H14 C15 1_555 1_555
C16 C13 1_555 1_555
H15 C16 1_555 1_555
H16 C16 1_555 1_555
H17 C16 1_555 1_555
S3 C3 1_555 1_555
C17 S3 1_555 1_555
C18 C17 1_555 1_555
C19 C18 1_555 1_555
C20 C19 1_555 1_555
H18 C20 1_555 1_555
C21 C20 1_555 1_555
C22 C17 1_555 1_555
H19 C22 1_555 1_555
S4 C18 1_555 1_555
C23 S4 1_555 1_555
H20 C23 1_555 1_555
H21 C23 1_555 1_555
C24 C23 1_555 1_555
C25 C24 1_555 1_555
H22 C25 1_555 1_555
C26 C25 1_555 1_555
H23 C26 1_555 1_555
N2 C26 1_555 1_555
C27 N2 1_555 1_555
H24 C27 1_555 1_555
C28 C24 1_555 1_555
H25 C28 1_555 1_555
C29 C21 1_555 1_555
C30 C29 1_555 1_555
H26 C30 1_555 1_555
H27 C30 1_555 1_555
H28 C30 1_555 1_555
C31 C29 1_555 1_555
H29 C31 1_555 1_555
H30 C31 1_555 1_555
H31 C31 1_555 1_555
C32 C29 1_555 1_555
H32 C32 1_555 1_555
H33 C32 1_555 1_555
H34 C32 1_555 1_555
S5 C19 1_555 1_555
C33 S5 1_555 1_555
C34 C33 1_555 1_555
C35 C34 1_555 1_555
C36 C35 1_555 1_555
H35 C36 1_555 1_555
C37 C36 1_555 1_555
C38 C33 1_555 1_555
H36 C38 1_555 1_555
S6 C34 1_555 1_555
C39 S6 1_555 1_555
H37 C39 1_555 1_555
H38 C39 1_555 1_555
C40 C39 1_555 1_555
C41 C40 1_555 1_555
H39 C41 1_555 1_555
C42 C41 1_555 1_555
H40 C42 1_555 1_555
N3 C42 1_555 1_555
C43 N3 1_555 1_555
H41 C43 1_555 1_555
C44 C40 1_555 1_555
H42 C44 1_555 1_555
C45 C37 1_555 1_555
C46 C45 1_555 1_555
H43 C46 1_555 1_555
H44 C46 1_555 1_555
H45 C46 1_555 1_555
C47 C45 1_555 1_555
H46 C47 1_555 1_555
H47 C47 1_555 1_555
H48 C47 1_555 1_555
C48 C45 1_555 1_555
H49 C48 1_555 1_555
H50 C48 1_555 1_555
H51 C48 1_555 1_555
S7 C35 1_555 1_555
C49 S7 1_555 1_555
C50 C49 1_555 1_555
C51 S1 1_555 1_555
C52 C51 1_555 1_555
H52 C52 1_555 1_555
C53 C52 1_555 1_555
C54 C49 1_555 1_555
H53 C54 1_555 1_555
S8 C50 1_555 1_555
C55 S8 1_555 1_555
H54 C55 1_555 1_555
H55 C55 1_555 1_555
C56 C55 1_555 1_555
C57 C56 1_555 1_555
H56 C57 1_555 1_555
C58 C57 1_555 1_555
H57 C58 1_555 1_555
N4 Hg2 1_555 1_555
C59 N4 1_555 1_555
H58 C59 1_555 1_555
C60 C56 1_555 1_555
H59 C60 1_555 1_555
C61 C53 1_555 1_555
C62 C61 1_555 1_555
H60 C62 1_555 1_555
H61 C62 1_555 1_555
H62 C62 1_555 1_555
C63 C61 1_555 1_555
H63 C63 1_555 1_555
H64 C63 1_555 1_555
H65 C63 1_555 1_555
C64 C61 1_555 1_555
H66 C64 1_555 1_555
H67 C64 1_555 1_555
H68 C64 1_555 1_555
C65 H69 1_555 1_555
Cl5 C65 1_555 1_555
Cl6 C65 1_555 1_555
Cl7 C65 1_555 1_555
C66 H70 1_555 1_555
Cl8 C66 1_555 1_555
Cl9 C66 1_555 1_555
Cl10 C66 1_555 1_555
Hg1A N2 1_555 1_555
Hg2A N3 1_555 1_555
N2A Hg1 1_555 1_555
N3A Hg2 1_555 1_555
C5 C6 1_555 1_555
C10 N1 1_555 1_555
C11 C12 1_555 1_555
C21 C22 1_555 1_555
C27 C28 1_555 1_555
C37 C38 1_555 1_555
C43 C44 1_555 1_555
C50 C51 1_555 1_555
C53 C54 1_555 1_555
C58 N4 1_555 1_555
C59 C60 1_555 1_555

#END
