
#######################################################################
#
#                 Cambridge Crystallographic Data Centre
#                                CCDC 
#
#######################################################################
#
# If this CIF has been generated from an entry in the Cambridge 
# Structural Database, then it will include bibliographic, chemical, 
# crystal, experimental, refinement or atomic coordinate data resulting 
# from the CCDC's data processing and validation procedures.
#
#######################################################################

data_WIMRAL
_symmetry_cell_setting           monoclinic
_symmetry_space_group_name_H-M   'C 2/c'
_symmetry_Int_Tables_number      15
_space_group_name_Hall           '-C 2yn'
loop_
_symmetry_equiv_pos_site_id
_symmetry_equiv_pos_as_xyz
1 x,y,z
2 -x,y,1/2-z
3 1/2+x,1/2+y,z
4 1/2-x,1/2+y,1/2-z
5 -x,-y,-z
6 x,-y,1/2+z
7 1/2-x,1/2-y,-z
8 1/2+x,1/2-y,1/2+z
_cell_length_a                   27.438(5)
_cell_length_b                   6.0049(12)
_cell_length_c                   16.645(3)
_cell_angle_alpha                90
_cell_angle_beta                 101.143(15)
_cell_angle_gamma                90
_cell_volume                     2690.77
loop_
_atom_site_label
_atom_site_type_symbol
_atom_site_fract_x
_atom_site_fract_y
_atom_site_fract_z
Ag1 Ag -0.561800(9) -0.59554(5) 0.197710(15)
S1 S -0.37689(3) -0.16243(13) 0.23359(5)
S2 S -0.53802(3) -0.32703(14) 0.37353(4)
N1 N -0.57844(9) -0.3398(4) 0.28906(14)
O1 O -0.35767(8) -0.1923(4) 0.31970(12)
O2 O -0.39081(8) 0.0597(4) 0.20590(15)
O3 O -0.49157(8) -0.5254(4) 0.12576(13)
O4 O -0.51140(9) -0.1176(4) 0.38279(14)
O5 O -0.5000 -0.8611(5) 0.2500
H1 H -0.4944(17) -0.9473(62) 0.2099(20)
C1 C -0.32921(10) -0.2507(6) 0.1832(2)
C2 C -0.31020(11) -0.1059(6) 0.1326(2)
H2 H -0.32501(11) 0.0378(6) 0.1198(2)
C3 C -0.26928(13) -0.1715(7) 0.1003(2)
H3 H -0.25549(13) -0.0717(7) 0.0656(2)
C4 C -0.24829(12) -0.3800(7) 0.1181(2)
H4 H -0.21985(12) -0.4235(7) 0.0961(2)
C5 C -0.26814(12) -0.5252(7) 0.1673(2)
H5 H -0.25367(12) -0.6700(7) 0.1789(2)
C6 C -0.30893(12) -0.4633(6) 0.2002(2)
H6 H -0.32299(12) -0.5647(6) 0.2341(2)
C7 C -0.57146(10) -0.3486(5) 0.4539(2)
C8 C -0.57331(12) -0.1685(6) 0.5049(2)
H7 H -0.44519(12) -0.0354(6) 0.0003(2)
C9 C -0.60270(12) -0.1849(7) 0.5643(2)
H8 H -0.39532(12) -0.0620(7) -0.1004(2)
C10 C -0.37095(12) -0.3788(7) -0.0712(2)
H9 H -0.34993(12) -0.3879(7) -0.1110(2)
C11 C -0.37481(12) -0.5598(6) -0.0209(2)
H10 H -0.35742(12) -0.6952(6) -0.0275(2)
C12 C -0.40337(11) -0.5462(6) 0.0383(2)
H11 H -0.40590(11) -0.6705(6) 0.0735(2)
Ag1E Ag -0.561800(9) -0.40446(5) 0.697710(15)
S2A S -0.46198(3) -0.32703(14) 0.12647(4)
N1A N -0.42156(9) -0.3398(4) 0.21094(14)
Ag1A Ag -0.438200(9) -0.59554(5) 0.302290(15)
O3A O -0.50843(8) -0.5254(4) 0.37424(13)
C9E C -0.60270(12) -0.8151(7) 0.0643(2)
Ag1D Ag -0.438200(9) -0.40446(5) -0.197710(15)
C10D C -0.62905(12) -0.6212(7) 0.0712(2)
H8D H -0.60468(12) -0.9380(7) 0.1004(2)
H9D H -0.65007(12) -0.6121(7) 0.1110(2)
H1A H -0.5056(17) -0.9473(62) 0.2901(20)
C9D C -0.39730(12) -0.8151(7) 0.4357(2)
C10E C -0.37095(12) -0.6212(7) 0.4288(2)
H8E H -0.39532(12) -0.9380(7) 0.3996(2)
H9E H -0.34993(12) -0.6121(7) 0.3890(2)
O4A O -0.48860(9) -0.1176(4) 0.11721(14)
C7A C -0.42854(10) -0.3486(5) 0.0461(2)
C8A C -0.42669(12) -0.1685(6) -0.0049(2)
C9A C -0.39730(12) -0.1849(7) -0.0643(2)
S1A S -0.62311(3) -0.16243(13) 0.26641(5)
O1A O -0.64233(8) -0.1923(4) 0.18030(12)
O2A O -0.60919(8) 0.0597(4) 0.29410(15)
C1A C -0.67079(10) -0.2507(6) 0.3168(2)
C2A C -0.68980(11) -0.1059(6) 0.3674(2)
H2A H -0.67499(11) 0.0378(6) 0.3802(2)
C3A C -0.73072(13) -0.1715(7) 0.3997(2)
H3A H -0.74451(13) -0.0717(7) 0.4344(2)
C4A C -0.75171(12) -0.3800(7) 0.3819(2)
H4A H -0.78015(12) -0.4235(7) 0.4039(2)
C5A C -0.73186(12) -0.5252(7) 0.3327(2)
H5A H -0.74633(12) -0.6700(7) 0.3211(2)
C6A C -0.69107(12) -0.4633(6) 0.2998(2)
H6A H -0.67701(12) -0.5647(6) 0.2659(2)
C12A C -0.59663(11) -0.5462(6) 0.4617(2)
C11A C -0.62519(12) -0.5598(6) 0.5209(2)
C10A C -0.62905(12) -0.3788(7) 0.5712(2)
H8A H -0.60468(12) -0.0620(7) 0.6004(2)
H9A H -0.65007(12) -0.3879(7) 0.6110(2)
H10A H -0.64258(12) -0.6952(6) 0.5275(2)
H11A H -0.59410(11) -0.6705(6) 0.4265(2)
H7A H -0.55481(12) -0.0354(6) 0.4997(2)
loop_
_geom_bond_atom_site_label_1
_geom_bond_atom_site_label_2
_geom_bond_site_symmetry_1
_geom_bond_site_symmetry_2
Ag1 N1 1_555 1_555
S1 O1 1_555 1_555
S2 N1 1_555 1_555
N1 S1A 1_555 1_555
O2 S1 1_555 1_555
O3 Ag1 1_555 1_555
O4 S2 1_555 1_555
O5 Ag1 1_555 1_555
H1 O5 1_555 1_555
C1 S1 1_555 1_555
C2 C1 1_555 1_555
H2 C2 1_555 1_555
C3 C2 1_555 1_555
H3 C3 1_555 1_555
C4 C3 1_555 1_555
H4 C4 1_555 1_555
C5 C4 1_555 1_555
H5 C5 1_555 1_555
C6 C1 1_555 1_555
H6 C6 1_555 1_555
C7 S2 1_555 1_555
C8 C7 1_555 1_555
H7 C8A 1_555 1_555
C9 C8 1_555 1_555
H8 C9A 1_555 1_555
C10 H9 1_555 1_555
C11 C10 1_555 1_555
H10 C11 1_555 1_555
C12 C11 1_555 1_555
H11 C12 1_555 1_555
Ag1E C9 1_555 1_555
S2A O3 1_555 1_555
N1A S1 1_555 1_555
Ag1A O5 1_555 1_555
O3A S2 1_555 1_555
C9E Ag1 1_555 1_555
Ag1D C10 1_555 1_555
C10D Ag1 1_555 1_555
H8D C9E 1_555 1_555
H9D C10D 1_555 1_555
H1A O5 1_555 1_555
C9D Ag1A 1_555 1_555
C10E Ag1A 1_555 1_555
H8E C9D 1_555 1_555
H9E C10E 1_555 1_555
O4A S2A 1_555 1_555
C7A C12 1_555 1_555
C8A C7A 1_555 1_555
C9A C10 1_555 1_555
S1A O1A 1_555 1_555
O2A S1A 1_555 1_555
C1A S1A 1_555 1_555
C2A C1A 1_555 1_555
H2A C2A 1_555 1_555
C3A C2A 1_555 1_555
H3A C3A 1_555 1_555
C4A C3A 1_555 1_555
H4A C4A 1_555 1_555
C5A C4A 1_555 1_555
H5A C5A 1_555 1_555
C6A C1A 1_555 1_555
H6A C6A 1_555 1_555
C12A C7 1_555 1_555
C11A C12A 1_555 1_555
C10A C9 1_555 1_555
H8A C9 1_555 1_555
H9A C10A 1_555 1_555
H10A C11A 1_555 1_555
H11A C12A 1_555 1_555
H7A C8 1_555 1_555
C5 C6 1_555 1_555
Ag1E C10A 1_555 1_555
S2A N1A 1_555 1_555
S2A C7A 1_555 1_555
N1A Ag1A 1_555 1_555
Ag1A O3A 1_555 1_555
C9E C10D 1_555 1_555
Ag1D C9A 1_555 1_555
C9D C10E 1_555 1_555
C8A C9A 1_555 1_555
C5A C6A 1_555 1_555
C11A C10A 1_555 1_555

#END
