
#######################################################################
#
#                 Cambridge Crystallographic Data Centre
#                                CCDC 
#
#######################################################################
#
# If this CIF has been generated from an entry in the Cambridge 
# Structural Database, then it will include bibliographic, chemical, 
# crystal, experimental, refinement or atomic coordinate data resulting 
# from the CCDC's data processing and validation procedures.
#
#######################################################################

data_WIMSOB
_symmetry_cell_setting           monoclinic
_symmetry_space_group_name_H-M   'P 2/n'
_symmetry_Int_Tables_number      13
_space_group_name_Hall           '-P 2yac'
loop_
_symmetry_equiv_pos_site_id
_symmetry_equiv_pos_as_xyz
1 x,y,z
2 1/2-x,y,1/2-z
3 -x,-y,-z
4 1/2+x,-y,1/2+z
_cell_length_a                   10.563(2)
_cell_length_b                   8.117(2)
_cell_length_c                   14.629(3)
_cell_angle_alpha                90
_cell_angle_beta                 104.33(3)
_cell_angle_gamma                90
_cell_volume                     1215.26
loop_
_atom_site_label
_atom_site_type_symbol
_atom_site_fract_x
_atom_site_fract_y
_atom_site_fract_z
Ag1 Ag -0.2500 -0.19723(6) -0.2500
N1 N 0.0767(3) 0.0428(4) 0.2749(2)
N2 N -0.0832(3) -0.1348(5) 0.2824(2)
H1 H -0.1376 -0.2206 0.2645
N3 N -0.3001(3) -0.4759(5) -0.0051(2)
H2 H -0.2972 -0.4686 0.0568
N4 N -0.2502(3) -0.4067(4) -0.1407(2)
C1 C 0.0415(4) 0.0766(6) 0.3644(3)
H3 H 0.0186 0.1903 0.3686
H4 H 0.1140 0.0511 0.4165
C2 C -0.0739(4) -0.0369(6) 0.3664(3)
H5 H -0.0572 -0.1044 0.4220
H6 H -0.1520 0.0261 0.3624
C3 C 0.0029(4) -0.0770(5) 0.2348(2)
C4 C 0.0042(4) -0.1494(5) 0.1422(2)
C5 C 0.1092(4) -0.1224(5) 0.1012(3)
H7 H 0.1846 -0.0624 0.1351
C6 C 0.1044(4) -0.1825(5) 0.0128(3)
H8 H 0.1756 -0.1615 -0.0155
C7 C -0.0018(4) -0.2714(5) -0.0372(2)
H9 H -0.0030 -0.3129 -0.0988
C8 C -0.1060(3) -0.3014(4) 0.0028(2)
C9 C -0.1019(4) -0.2398(5) 0.0925(2)
H10 H -0.1735 -0.2603 0.1207
C10 C -0.2195(3) -0.3964(5) -0.0502(2)
C11 C -0.3920(4) -0.5749(6) -0.0746(3)
H11 H -0.4806 -0.5527 -0.0728
H12 H -0.3749 -0.6906 -0.0650
C12 C -0.3653(4) -0.5169(6) -0.1670(3)
H13 H -0.8466 0.6088 -0.7028
H14 H -0.9394 0.4588 -0.7042
Ag1C Ag 0.2500 0.19723(6) 0.2500
Ag1C_2 Ag -0.7500 0.19723(6) -0.7500
N1C N -0.4233(3) -0.0428(4) -0.2251(2)
N1B N -0.0767(3) -0.0428(4) -0.2749(2)
N2C N -0.5832(3) 0.1348(5) -0.2176(2)
H1C H -0.6376 0.2206 -0.2355
N3C N -0.8001(3) 0.4759(5) -0.5051(2)
H2C H -0.7972 0.4686 -0.4432
N4C N -0.7502(3) 0.4067(4) -0.6407(2)
N4A N -0.2498(3) -0.4067(4) -0.3593(2)
C1C C -0.4585(4) -0.0766(6) -0.1356(3)
H3C H -0.4814 -0.1903 -0.1314
H4C H -0.3860 -0.0511 -0.0835
C2C C -0.5739(4) 0.0369(6) -0.1336(3)
H5C H -0.5572 0.1044 -0.0780
H6C H -0.6520 -0.0261 -0.1376
C3C C -0.4971(4) 0.0770(5) -0.2652(2)
C4C C -0.4958(4) 0.1494(5) -0.3578(2)
C5C C -0.3908(4) 0.1224(5) -0.3988(3)
H7C H -0.3154 0.0624 -0.3649
C6C C -0.3956(4) 0.1825(5) -0.4872(3)
H8C H -0.3244 0.1615 -0.5155
C7C C -0.5018(4) 0.2714(5) -0.5372(2)
H9C H -0.5030 0.3129 -0.5988
C8C C -0.6060(3) 0.3014(4) -0.4972(2)
C9C C -0.6019(4) 0.2398(5) -0.4075(2)
H10C H -0.6735 0.2603 -0.3793
C10C C -0.7195(3) 0.3964(5) -0.5502(2)
C11C C -0.8920(4) 0.5749(6) -0.5746(3)
H11C H -0.9806 0.5527 -0.5728
H12C H -0.8749 0.6906 -0.5650
C12C C -0.8653(4) 0.5169(6) -0.6670(3)
H13C H -0.3466 -0.6088 -0.2028
H14C H -0.4394 -0.4588 -0.2042
O1 O 0.2583(7) 0.6613(5) 0.6795(3)
O2 O 0.2500 0.4344(6) 0.7500
N5 N 0.2500 0.5959(5) 0.7500
O1A O 0.2417(7) 0.6613(5) 0.8205(3)
loop_
_geom_bond_atom_site_label_1
_geom_bond_atom_site_label_2
_geom_bond_site_symmetry_1
_geom_bond_site_symmetry_2
Ag1 N4 1_555 1_555
O1 N5 1_555 1_555
O2 N5 1_555 1_555
N1 C1 1_555 1_555
N2 H1 1_555 1_555
N3 H2 1_555 1_555
N4 C10 1_555 1_555
N5 O1A 1_555 1_555
C1 H3 1_555 1_555
H4 C1 1_555 1_555
C2 N2 1_555 1_555
H5 C2 1_555 1_555
H6 C2 1_555 1_555
C3 N1 1_555 1_555
C4 C3 1_555 1_555
C5 C4 1_555 1_555
H7 C5 1_555 1_555
C6 C5 1_555 1_555
H8 C6 1_555 1_555
C7 C6 1_555 1_555
H9 C7 1_555 1_555
C8 C7 1_555 1_555
C9 C4 1_555 1_555
H10 C9 1_555 1_555
C10 N3 1_555 1_555
C11 N3 1_555 1_555
H11 C11 1_555 1_555
H12 C11 1_555 1_555
C12 N4 1_555 1_555
H13 C12C 1_555 1_555
H14 C12C 1_555 1_555
Ag1C N1 1_555 1_555
Ag1C_2 N4C 1_555 1_555
N1C Ag1 1_555 1_555
N1B Ag1 1_555 1_555
N2C H1C 1_555 1_555
N3C H2C 1_555 1_555
N4C C10C 1_555 1_555
N4A Ag1 1_555 1_555
C1C N1C 1_555 1_555
H3C C1C 1_555 1_555
H4C C1C 1_555 1_555
C2C N2C 1_555 1_555
H5C C2C 1_555 1_555
H6C C2C 1_555 1_555
C3C N1C 1_555 1_555
C4C C3C 1_555 1_555
C5C C4C 1_555 1_555
H7C C5C 1_555 1_555
C6C C5C 1_555 1_555
H8C C6C 1_555 1_555
C7C C6C 1_555 1_555
H9C C7C 1_555 1_555
C8C C7C 1_555 1_555
C9C C4C 1_555 1_555
H10C C9C 1_555 1_555
C10C N3C 1_555 1_555
C11C N3C 1_555 1_555
H11C C11C 1_555 1_555
H12C C11C 1_555 1_555
C12C N4C 1_555 1_555
H13C C12 1_555 1_555
H14C C12 1_555 1_555
N2 C3 1_555 1_555
C1 C2 1_555 1_555
C8 C9 1_555 1_555
C8 C10 1_555 1_555
C11 C12 1_555 1_555
N2C C3C 1_555 1_555
C1C C2C 1_555 1_555
C8C C9C 1_555 1_555
C8C C10C 1_555 1_555
C11C C12C 1_555 1_555

#END
