
#######################################################################
#
#                 Cambridge Crystallographic Data Centre
#                                CCDC 
#
#######################################################################
#
# If this CIF has been generated from an entry in the Cambridge 
# Structural Database, then it will include bibliographic, chemical, 
# crystal, experimental, refinement or atomic coordinate data resulting 
# from the CCDC's data processing and validation procedures.
#
#######################################################################

data_WIMSER
_symmetry_cell_setting           monoclinic
_symmetry_space_group_name_H-M   'P 21/c'
_symmetry_Int_Tables_number      14
_space_group_name_Hall           '-P 2ybc'
loop_
_symmetry_equiv_pos_site_id
_symmetry_equiv_pos_as_xyz
1 x,y,z
2 -x,1/2+y,1/2-z
3 -x,-y,-z
4 x,1/2-y,1/2+z
_cell_length_a                   8.576(7)
_cell_length_b                   22.685(19)
_cell_length_c                   8.342(7)
_cell_angle_alpha                90
_cell_angle_beta                 116.034(9)
_cell_angle_gamma                90
_cell_volume                     1458.24
loop_
_atom_site_label
_atom_site_type_symbol
_atom_site_fract_x
_atom_site_fract_y
_atom_site_fract_z
Mn1 Mn 0.29535(6) 0.168828(18) 0.76571(6)
N1 N -0.1304(3) 0.11014(11) 0.2646(3)
N2 N 0.1040(3) 0.14419(12) 0.4896(3)
N3 N -0.2831(3) 0.02067(11) 0.1259(3)
N4 N -0.2756(3) -0.07649(11) 0.1439(3)
O1 O 0.3348(3) 0.25274(9) 0.6577(3)
O2 O 0.4774(3) 0.30439(9) 0.5372(3)
O3 O 0.5177(3) 0.14096(9) 0.7227(3)
O4 O 0.7803(3) 0.15015(11) 0.7385(4)
O5 O 0.0919(3) 0.20151(11) 0.8311(3)
H1 H 0.1275 0.2142 0.9372
H2 H -0.0111 0.1894 0.8001
C1 C -0.0477(4) 0.11905(15) 0.4420(4)
H5 H -0.0927 0.1086 0.5212
C2 C 0.1186(5) 0.15223(16) 0.3334(5)
H6 H 0.2128 0.1695 0.3242
C3 C -0.0243(5) 0.13124(16) 0.1957(5)
H7 H -0.0463 0.1312 0.0762
C4 C -0.2916(4) -0.02689(13) 0.2178(4)
H8 H -0.3070 -0.0250 0.3213
C5 C -0.2562(5) -0.05910(15) -0.0035(5)
H9 H -0.2418 -0.0846 -0.0833
C6 C -0.2610(5) 0.00026(16) -0.0166(5)
H10 H -0.2512 0.0227 -0.1050
C7 C -0.3003(4) 0.08224(14) 0.1678(5)
H11 H -0.3663 0.1037 0.0579
H12 H -0.3636 0.0841 0.2396
C8 C 0.4722(4) 0.26720(12) 0.6462(4)
C9 C 0.6429(4) 0.23814(13) 0.7703(4)
H13 H 0.6635 0.2450 0.8928
H14 H 0.7365 0.2567 0.7533
C10 C 0.6475(4) 0.17183(13) 0.7408(4)
Mn1B Mn -0.29535(6) -0.168828(18) 0.23429(6)
Mn1C Mn 0.29535(6) 0.331172(18) 0.26571(6)
N4B N 0.2756(3) 0.07649(11) 0.8561(3)
O2C O 0.4774(3) 0.19561(9) 1.0372(3)
O6 O 0.3981(14) 0.5493(2) 0.9909(9)
H3 H 0.5047 0.5446 1.0163
H4 H 0.3823 0.5863 0.9784
loop_
_geom_bond_atom_site_label_1
_geom_bond_atom_site_label_2
_geom_bond_site_symmetry_1
_geom_bond_site_symmetry_2
Mn1 N2 1_555 1_555
N1 C1 1_555 1_555
N2 C1 1_555 1_555
N3 C4 1_555 1_555
N4 C4 1_555 1_555
O1 Mn1 1_555 1_555
O2 C8 1_555 1_555
O3 Mn1 1_555 1_555
O4 C10 1_555 1_555
O5 Mn1 1_555 1_555
H1 O5 1_555 1_555
H2 O5 1_555 1_555
O6 H3 1_555 1_555
H4 O6 1_555 1_555
C1 H5 1_555 1_555
C2 N2 1_555 1_555
H6 C2 1_555 1_555
C3 N1 1_555 1_555
H7 C3 1_555 1_555
C4 H8 1_555 1_555
C5 N4 1_555 1_555
H9 C5 1_555 1_555
C6 N3 1_555 1_555
H10 C6 1_555 1_555
C7 N1 1_555 1_555
H11 C7 1_555 1_555
H12 C7 1_555 1_555
C8 O1 1_555 1_555
C9 C8 1_555 1_555
H13 C9 1_555 1_555
H14 C9 1_555 1_555
C10 O3 1_555 1_555
Mn1B N4 1_555 1_555
Mn1C O2 1_555 1_555
N4B Mn1 1_555 1_555
O2C Mn1 1_555 1_555
N3 C7 1_555 1_555
C2 C3 1_555 1_555
C5 C6 1_555 1_555
C9 C10 1_555 1_555

#END
