
#######################################################################
#
#                 Cambridge Crystallographic Data Centre
#                                CCDC 
#
#######################################################################
#
# If this CIF has been generated from an entry in the Cambridge 
# Structural Database, then it will include bibliographic, chemical, 
# crystal, experimental, refinement or atomic coordinate data resulting 
# from the CCDC's data processing and validation procedures.
#
#######################################################################

data_WIMSUH
_symmetry_cell_setting           monoclinic
_symmetry_space_group_name_H-M   'P 2/n'
_symmetry_Int_Tables_number      13
_space_group_name_Hall           '-P 2yac'
loop_
_symmetry_equiv_pos_site_id
_symmetry_equiv_pos_as_xyz
1 x,y,z
2 1/2-x,y,1/2-z
3 -x,-y,-z
4 1/2+x,-y,1/2+z
_cell_length_a                   10.975(2)
_cell_length_b                   7.994(2)
_cell_length_c                   14.652(3)
_cell_angle_alpha                90
_cell_angle_beta                 102.76(3)
_cell_angle_gamma                90
_cell_volume                     1253.73
loop_
_atom_site_label
_atom_site_type_symbol
_atom_site_fract_x
_atom_site_fract_y
_atom_site_fract_z
Ag1 Ag 0.2500 0.17778(5) 0.2500
N1 N 0.0835(2) 0.0231(4) 0.27913(18)
N2 N -0.0793(3) -0.1426(4) 0.2843(2)
H1 H -0.1376 -0.2212 0.2637
N3 N -0.2460(3) -0.3927(4) -0.14000(19)
N4 N -0.2964(3) -0.4641(4) -0.0052(2)
H2 H -0.2955 -0.4550 0.0562
C1 C 0.0525(3) 0.0535(5) 0.3709(2)
H3 H 0.0350 0.1698 0.3783
H4 H 0.1210 0.0209 0.4206
C2 C -0.0627(3) -0.0531(5) 0.3726(2)
H5 H -0.0478 -0.1292 0.4245
H6 H -0.1339 0.0152 0.3749
C3 C 0.0071(3) -0.0880(4) 0.2373(2)
C4 C 0.0048(3) -0.1546(4) 0.1422(2)
C5 C -0.1011(3) -0.2369(4) 0.0924(2)
H7 H -0.1713 -0.2534 0.1205
C6 C -0.1065(3) -0.2941(4) 0.0022(2)
C7 C -0.0051(3) -0.2688(4) -0.0389(2)
H8 H -0.0088 -0.3055 -0.1019
C8 C 0.1004(3) -0.1887(4) 0.0106(2)
H9 H 0.1707 -0.1732 -0.0174
C9 C 0.1064(3) -0.1329(4) 0.1010(2)
H10 H 0.1807 -0.0785 0.1350
C10 C -0.2172(3) -0.3848(4) -0.0505(2)
C11 C -0.3563(4) -0.5033(5) -0.1658(3)
H11 H -0.3380 -0.5960 -0.2023
H12 H -0.4267 -0.4436 -0.2017
C12 C -0.3825(4) -0.5655(5) -0.0736(3)
H13 H -0.4677 -0.5444 -0.0707
H14 H -0.3651 -0.6827 -0.0642
Ag1C Ag -0.2500 -0.17778(5) -0.2500
Ag1C_2 Ag 0.7500 -0.17778(5) 0.7500
N1A N 0.4165(2) 0.0231(4) 0.22087(18)
N2A N 0.5793(3) -0.1426(4) 0.2157(2)
H1A H 0.6376 -0.2212 0.2363
N3A N 0.7460(3) -0.3927(4) 0.64000(19)
N3C N 0.2540(3) 0.3927(4) 0.36000(19)
N3B N 0.2460(3) 0.3927(4) 0.14000(19)
N4A N 0.7964(3) -0.4641(4) 0.5052(2)
H2A H 0.7955 -0.4550 0.4438
C1A C 0.4475(3) 0.0535(5) 0.1291(2)
H3A H 0.4650 0.1698 0.1217
H4A H 0.3790 0.0209 0.0794
C2A C 0.5627(3) -0.0531(5) 0.1274(2)
H5A H 0.5478 -0.1292 0.0755
H6A H 0.6339 0.0152 0.1251
C3A C 0.4929(3) -0.0880(4) 0.2627(2)
C4A C 0.4952(3) -0.1546(4) 0.3578(2)
C5A C 0.6011(3) -0.2369(4) 0.4076(2)
H7A H 0.6713 -0.2534 0.3795
C6A C 0.6065(3) -0.2941(4) 0.4978(2)
C7A C 0.5051(3) -0.2688(4) 0.5389(2)
H8A H 0.5088 -0.3055 0.6019
C8A C 0.3996(3) -0.1887(4) 0.4894(2)
H9A H 0.3293 -0.1732 0.5174
C9A C 0.3936(3) -0.1329(4) 0.3990(2)
H10A H 0.3193 -0.0785 0.3650
C10A C 0.7172(3) -0.3848(4) 0.5505(2)
C11A C 0.8563(4) -0.5033(5) 0.6658(3)
H11A H 0.8380 -0.5960 0.7023
H12A H 0.9267 -0.4436 0.7017
C12A C 0.8825(4) -0.5655(5) 0.5736(3)
H13A H 0.9677 -0.5444 0.5707
H14A H 0.8651 -0.6827 0.5642
Cl1 Cl -0.2500 -0.61621(15) 0.2500
O2 O -0.1578(15) -0.6766(19) 0.2115(13)
O3 O -0.3496(12) -0.612(3) 0.1794(14)
O2A O -0.3422(15) -0.6766(19) 0.2885(13)
O3A O -0.1504(12) -0.612(3) 0.3206(14)
O1? O -0.2500 -0.4433(8) 0.2500
O4? O -0.248(3) -0.6981(15) 0.1726(10)
loop_
_geom_bond_atom_site_label_1
_geom_bond_atom_site_label_2
_geom_bond_site_symmetry_1
_geom_bond_site_symmetry_2
Ag1 N1 1_555 1_555
Cl1 O2 1_555 1_555
O3 Cl1 1_555 1_555
N1 C1 1_555 1_555
N2 H1 1_555 1_555
N3 C10 1_555 1_555
N4 H2 1_555 1_555
C1 H3 1_555 1_555
H4 C1 1_555 1_555
C2 N2 1_555 1_555
H5 C2 1_555 1_555
H6 C2 1_555 1_555
C3 N1 1_555 1_555
C4 C3 1_555 1_555
C5 C4 1_555 1_555
H7 C5 1_555 1_555
C6 C5 1_555 1_555
C7 C6 1_555 1_555
H8 C7 1_555 1_555
C8 C7 1_555 1_555
H9 C8 1_555 1_555
C9 C4 1_555 1_555
H10 C9 1_555 1_555
C10 N4 1_555 1_555
C11 N3 1_555 1_555
H11 C11 1_555 1_555
H12 C11 1_555 1_555
C12 N4 1_555 1_555
H13 C12 1_555 1_555
H14 C12 1_555 1_555
Ag1C N3 1_555 1_555
Ag1C_2 N3A 1_555 1_555
O2A Cl1 1_555 1_555
O3A Cl1 1_555 1_555
N1A Ag1 1_555 1_555
N2A H1A 1_555 1_555
N3A C10A 1_555 1_555
N3C Ag1 1_555 1_555
N3B Ag1 1_555 1_555
N4A H2A 1_555 1_555
C1A N1A 1_555 1_555
H3A C1A 1_555 1_555
H4A C1A 1_555 1_555
C2A N2A 1_555 1_555
H5A C2A 1_555 1_555
H6A C2A 1_555 1_555
C3A N1A 1_555 1_555
C4A C3A 1_555 1_555
C5A C4A 1_555 1_555
H7A C5A 1_555 1_555
C6A C5A 1_555 1_555
C7A C6A 1_555 1_555
H8A C7A 1_555 1_555
C8A C7A 1_555 1_555
H9A C8A 1_555 1_555
C9A C4A 1_555 1_555
H10A C9A 1_555 1_555
C10A N4A 1_555 1_555
C11A N3A 1_555 1_555
H11A C11A 1_555 1_555
H12A C11A 1_555 1_555
C12A N4A 1_555 1_555
H13A C12A 1_555 1_555
H14A C12A 1_555 1_555
N2 C3 1_555 1_555
C1 C2 1_555 1_555
C6 C10 1_555 1_555
C8 C9 1_555 1_555
C11 C12 1_555 1_555
N2A C3A 1_555 1_555
C1A C2A 1_555 1_555
C6A C10A 1_555 1_555
C8A C9A 1_555 1_555
C11A C12A 1_555 1_555

#END
