
#######################################################################
#
#                 Cambridge Crystallographic Data Centre
#                                CCDC 
#
#######################################################################
#
# If this CIF has been generated from an entry in the Cambridge 
# Structural Database, then it will include bibliographic, chemical, 
# crystal, experimental, refinement or atomic coordinate data resulting 
# from the CCDC's data processing and validation procedures.
#
#######################################################################

data_WIMSIV
_symmetry_cell_setting           monoclinic
_symmetry_space_group_name_H-M   'P 21'
_symmetry_Int_Tables_number      4
_space_group_name_Hall           'P 2yb'
loop_
_symmetry_equiv_pos_site_id
_symmetry_equiv_pos_as_xyz
1 x,y,z
2 -x,1/2+y,-z
_cell_length_a                   7.8970(16)
_cell_length_b                   9.4670(19)
_cell_length_c                   8.5660(17)
_cell_angle_alpha                90
_cell_angle_beta                 97.97(3)
_cell_angle_gamma                90
_cell_volume                     634.216
loop_
_atom_site_label
_atom_site_type_symbol
_atom_site_fract_x
_atom_site_fract_y
_atom_site_fract_z
Mn1 Mn 0.20843(6) -0.1147(2) 0.14541(6)
O1 O 0.2184(10) 0.0311(8) -0.0144(10)
O2 O 0.3150(11) 0.1705(8) -0.1788(11)
O3 O 0.2208(11) -0.2661(8) -0.0205(10)
O4 O 0.3086(9) -0.3989(7) -0.1703(10)
O5 O -0.0781(3) -0.1125(11) 0.1091(4)
H1 H -0.1347 -0.0467 0.0914
H2 H -0.1358 -0.1836 0.0901
O6 O 0.4842(3) -0.1136(10) 0.2304(3)
H3 H 0.5426 -0.0445 0.2042
H4 H 0.5404 -0.1871 0.2031
N1 N 0.2024(11) 0.0645(8) 0.2920(10)
N2 N 0.1087(9) 0.2578(7) 0.3855(8)
N3 N 0.1999(11) 0.7036(8) 0.2937(10)
N4 N 0.1048(9) 0.5123(7) 0.3780(8)
C1 C 0.2245(14) 0.2012(9) 0.4849(11)
H5 H 0.2633 0.2393 0.5834
C2 C 0.2846(14) 0.0791(9) 0.4303(11)
H6 H 0.3674 0.0192 0.4822
C3 C 0.1019(11) 0.1726(9) 0.2682(9)
H7 H 0.0305 0.1874 0.1738
C4 C 0.0078(6) 0.3900(13) 0.3925(6)
H8 H -0.0882 0.3885 0.3086
H9 H -0.0376 0.3930 0.4920
C5 C 0.0951(12) 0.5928(9) 0.2634(10)
H10 H 0.0243 0.5784 0.1686
C6 C 0.2730(13) 0.6857(9) 0.4319(11)
H11 H 0.3551 0.7452 0.4853
C7 C 0.2169(14) 0.5727(11) 0.4877(11)
H12 H 0.2493 0.5382 0.5890
C8 C 0.3215(13) 0.0560(11) -0.1042(12)
C9 C 0.4559(14) -0.0452(10) -0.1327(11)
H13 H 0.5579 -0.0054 -0.1538
C10 C 0.4510(11) -0.1858(10) -0.1324(10)
H14 H 0.5520 -0.2273 -0.1538
C11 C 0.3180(11) -0.2900(9) -0.1049(10)
Mn1_2 Mn 0.20843(6) 0.8853(2) 0.14541(6)
N3_2 N 0.1999(11) -0.2964(8) 0.2937(10)
loop_
_geom_bond_atom_site_label_1
_geom_bond_atom_site_label_2
_geom_bond_site_symmetry_1
_geom_bond_site_symmetry_2
Mn1 O1 1_555 1_555
O1 C8 1_555 1_555
O2 C8 1_555 1_555
O3 Mn1 1_555 1_555
O4 C11 1_555 1_555
O5 Mn1 1_555 1_555
H1 O5 1_555 1_555
H2 O5 1_555 1_555
O6 Mn1 1_555 1_555
H3 O6 1_555 1_555
H4 O6 1_555 1_555
N1 Mn1 1_555 1_555
N2 C1 1_555 1_555
N3 C5 1_555 1_555
N4 C4 1_555 1_555
C1 H5 1_555 1_555
C2 N1 1_555 1_555
H6 C2 1_555 1_555
C3 N1 1_555 1_555
H7 C3 1_555 1_555
C4 N2 1_555 1_555
H8 C4 1_555 1_555
H9 C4 1_555 1_555
C5 N4 1_555 1_555
H10 C5 1_555 1_555
C6 N3 1_555 1_555
H11 C6 1_555 1_555
C7 N4 1_555 1_555
H12 C7 1_555 1_555
C8 C9 1_555 1_555
C9 H13 1_555 1_555
C10 C9 1_555 1_555
H14 C10 1_555 1_555
C11 O3 1_555 1_555
Mn1_2 N3 1_555 1_555
N3_2 Mn1 1_555 1_555
N2 C3 1_555 1_555
C1 C2 1_555 1_555
C6 C7 1_555 1_555
C10 C11 1_555 1_555

#END
