
#######################################################################
#
#                 Cambridge Crystallographic Data Centre
#                                CCDC 
#
#######################################################################
#
# If this CIF has been generated from an entry in the Cambridge 
# Structural Database, then it will include bibliographic, chemical, 
# crystal, experimental, refinement or atomic coordinate data resulting 
# from the CCDC's data processing and validation procedures.
#
#######################################################################

data_WIMSAN
_symmetry_cell_setting           triclinic
_symmetry_space_group_name_H-M   'P -1'
_symmetry_Int_Tables_number      2
_space_group_name_Hall           '-P 1'
loop_
_symmetry_equiv_pos_site_id
_symmetry_equiv_pos_as_xyz
1 x,y,z
2 -x,-y,-z
_cell_length_a                   9.105(3)
_cell_length_b                   9.142(3)
_cell_length_c                   9.351(3)
_cell_angle_alpha                112.806(4)
_cell_angle_beta                 90.229(4)
_cell_angle_gamma                93.032(4)
_cell_volume                     716.249
loop_
_atom_site_label
_atom_site_type_symbol
_atom_site_fract_x
_atom_site_fract_y
_atom_site_fract_z
Mn1 Mn 0.0000 1.0000 0.5000
N1 N -0.0607(2) 0.4928(2) 0.1786(2)
N2 N -0.0718(2) 0.7433(2) 0.3390(2)
N3 N -0.0447(2) 0.2225(2) 0.1581(2)
N4 N -0.0485(2) 0.0864(2) 0.3072(2)
O3 O -0.22535(18) 1.0338(2) 0.5677(2)
H1 H -0.2724 0.9940 0.6236
H2 H -0.2823 1.0947 0.5479
C1 C 0.0146(3) 0.6254(3) 0.2765(3)
H9 H 0.1153 0.6324 0.2971
C2 C -0.2106(3) 0.6822(3) 0.2779(3)
H10 H -0.2955 0.7383 0.3015
C3 C -0.2051(3) 0.5292(3) 0.1789(3)
H11 H -0.2834 0.4619 0.1222
C4 C 0.0200(3) 0.2008(3) 0.2770(3)
H12 H 0.1033 0.2597 0.3314
C5 C -0.1627(3) 0.0317(3) 0.2006(3)
H13 H -0.2309 -0.0506 0.1928
C6 C -0.1617(3) 0.1144(3) 0.1087(3)
H14 H -0.2278 0.1005 0.0277
C7 C -0.0001(3) 0.3394(3) 0.0938(3)
H15 H 0.1064 0.3528 0.0972
H16 H -0.0329 0.3006 -0.0140
Mn1_2 Mn 0.0000 0.0000 0.5000
Mn1_3 Mn 0.0000 2.0000 0.5000
N1A N 0.0607(2) 1.5072(2) 0.8214(2)
N2A N 0.0718(2) 1.2567(2) 0.6610(2)
N3A N 0.0447(2) 1.7775(2) 0.8419(2)
N4_2 N -0.0485(2) 1.0864(2) 0.3072(2)
N4A N 0.0485(2) 0.9136(2) 0.6928(2)
N4A_2 N 0.0485(2) 1.9136(2) 0.6928(2)
O3A O 0.22535(18) 0.9662(2) 0.4323(2)
H1A H 0.2724 1.0060 0.3764
H2A H 0.2823 0.9053 0.4521
C1A C -0.0146(3) 1.3746(3) 0.7235(3)
H9A H -0.1153 1.3676 0.7029
C2A C 0.2106(3) 1.3178(3) 0.7221(3)
H10A H 0.2955 1.2617 0.6985
C3A C 0.2051(3) 1.4708(3) 0.8211(3)
H11A H 0.2834 1.5381 0.8778
C4A C -0.0200(3) 1.7992(3) 0.7230(3)
H12A H -0.1033 1.7403 0.6686
C5A C 0.1627(3) 1.9683(3) 0.7994(3)
H13A H 0.2309 2.0506 0.8072
C6A C 0.1617(3) 1.8856(3) 0.8913(3)
H14A H 0.2278 1.8995 0.9723
C7A C 0.0001(3) 1.6606(3) 0.9062(3)
H15A H -0.1064 1.6472 0.9028
H16A H 0.0329 1.6994 1.0140
O1 O -0.3661(2) 0.4173(2) 0.7074(2)
O2 O -0.4084(2) 0.2095(2) 0.4898(2)
C8 C -0.4017(3) 0.3542(3) 0.5662(3)
C9 C -0.4277(3) 0.4658(4) 0.4818(4)
H17 H -0.3511 0.5509 0.5129
H18 H -0.4224 0.4071 0.3707
O1A O -0.6339(2) 0.5827(2) 0.2926(2)
O2A O -0.5916(2) 0.7905(2) 0.5102(2)
C8A C -0.5983(3) 0.6458(3) 0.4338(3)
C9A C -0.5723(3) 0.5342(4) 0.5182(4)
H17A H -0.6489 0.4491 0.4871
H18A H -0.5776 0.5929 0.6293
O4 O -0.3584(2) 0.7268(2) 0.9018(2)
H3 H -0.3669 0.6326 0.8333
H4 H -0.4216 0.7263 0.9684
O5 O -0.4134(3) 0.2505(3) 0.8973(2)
H5 H -0.4033 0.2894 0.8286
H6 H -0.4212 0.1501 0.8493
O6 O -0.6020(2) 0.0757(2) 0.2496(2)
H7 H -0.5330 0.1213 0.3159
H8 H -0.6099 0.1342 0.1984
loop_
_geom_bond_atom_site_label_1
_geom_bond_atom_site_label_2
_geom_bond_site_symmetry_1
_geom_bond_site_symmetry_2
Mn1 N2 1_555 1_555
N1 C1 1_555 1_555
N2 C1 1_555 1_555
N3 C4 1_555 1_555
N4 C4 1_555 1_555
O1 C8 1_555 1_555
O2 C8 1_555 1_555
O3 Mn1 1_555 1_555
H1 O3 1_555 1_555
H2 O3 1_555 1_555
O4 H3 1_555 1_555
H4 O4 1_555 1_555
O5 H5 1_555 1_555
H6 O5 1_555 1_555
O6 H7 1_555 1_555
H8 O6 1_555 1_555
C1 H9 1_555 1_555
C2 N2 1_555 1_555
H10 C2 1_555 1_555
C3 N1 1_555 1_555
H11 C3 1_555 1_555
C4 H12 1_555 1_555
C5 N4 1_555 1_555
H13 C5 1_555 1_555
C6 N3 1_555 1_555
H14 C6 1_555 1_555
C7 N1 1_555 1_555
H15 C7 1_555 1_555
H16 C7 1_555 1_555
C8 C9 1_555 1_555
C9 H17 1_555 1_555
H18 C9 1_555 1_555
Mn1_2 N4 1_555 1_555
Mn1_3 N4A_2 1_555 1_555
N1A C1A 1_555 1_555
N2A Mn1 1_555 1_555
N3A C4A 1_555 1_555
N4_2 Mn1 1_555 1_555
N4A Mn1 1_555 1_555
N4A_2 C4A 1_555 1_555
O1A C8A 1_555 1_555
O2A C8A 1_555 1_555
O3A Mn1 1_555 1_555
H1A O3A 1_555 1_555
H2A O3A 1_555 1_555
C1A N2A 1_555 1_555
H9A C1A 1_555 1_555
C2A N2A 1_555 1_555
H10A C2A 1_555 1_555
C3A N1A 1_555 1_555
H11A C3A 1_555 1_555
C4A H12A 1_555 1_555
C5A N4A_2 1_555 1_555
H13A C5A 1_555 1_555
C6A N3A 1_555 1_555
H14A C6A 1_555 1_555
C7A N1A 1_555 1_555
H15A C7A 1_555 1_555
H16A C7A 1_555 1_555
C8A C9A 1_555 1_555
C9A C9 1_555 1_555
H17A C9A 1_555 1_555
H18A C9A 1_555 1_555
N3 C7 1_555 1_555
C2 C3 1_555 1_555
C5 C6 1_555 1_555
N3A C7A 1_555 1_555
C2A C3A 1_555 1_555
C5A C6A 1_555 1_555

#END
