
#######################################################################
#
#                 Cambridge Crystallographic Data Centre
#                                CCDC 
#
#######################################################################
#
# If this CIF has been generated from an entry in the Cambridge 
# Structural Database, then it will include bibliographic, chemical, 
# crystal, experimental, refinement or atomic coordinate data resulting 
# from the CCDC's data processing and validation procedures.
#
#######################################################################

data_WIMTES
_symmetry_cell_setting           monoclinic
_symmetry_space_group_name_H-M   'P 21/c'
_symmetry_Int_Tables_number      14
_space_group_name_Hall           '-P 2ybc'
loop_
_symmetry_equiv_pos_site_id
_symmetry_equiv_pos_as_xyz
1 x,y,z
2 -x,1/2+y,1/2-z
3 -x,-y,-z
4 x,1/2-y,1/2+z
_cell_length_a                   13.034(3)
_cell_length_b                   11.137(2)
_cell_length_c                   24.931(5)
_cell_angle_alpha                90
_cell_angle_beta                 94.01(3)
_cell_angle_gamma                90
_cell_volume                     3610.12
loop_
_atom_site_label
_atom_site_type_symbol
_atom_site_fract_x
_atom_site_fract_y
_atom_site_fract_z
Ag1 Ag 0.09622(3) -0.25793(4) 0.285710(18)
Ag2 Ag -0.05094(3) -0.53149(4) 0.317960(19)
N1 N -0.0829(4) -0.0929(4) 0.13939(18)
N2 N -0.2422(4) -0.1435(5) 0.1124(2)
H1 H -0.3095 -0.1572 0.1158
N3 N -0.0032(4) -0.2260(4) 0.34689(18)
N4 N -0.1291(4) -0.1938(5) 0.3998(2)
H2 H -0.1928 -0.1738 0.4085
N5 N -0.1854(3) -0.4705(4) 0.2759(2)
N6 N -0.3118(4) -0.4281(5) 0.2146(3)
H3 H -0.3414 -0.4119 0.1817
N7 N 0.1705(3) -0.3051(4) 0.21641(19)
N8 N 0.2103(4) -0.3592(5) 0.1355(2)
H4 H 0.2000 -0.3911 0.1024
C1 C -0.0837(5) -0.1086(6) 0.0803(2)
H5 H -0.0349 -0.1684 0.0712
H6 H -0.0675 -0.0344 0.0632
C2 C -0.1942(5) -0.1471(6) 0.0628(3)
H7 H -0.2260 -0.0931 0.0367
H8 H -0.1952 -0.2269 0.0482
C3 C -0.1738(4) -0.1161(5) 0.1532(2)
C4 C -0.2061(4) -0.1165(5) 0.2088(2)
C5 C -0.3080(5) -0.0892(6) 0.2182(3)
H9 H -0.3556 -0.0659 0.1889
C6 C -0.3394(5) -0.0974(7) 0.2699(3)
H10 H -0.4093 -0.0782 0.2762
C7 C -0.2721(4) -0.1291(6) 0.3120(3)
H11 H -0.2955 -0.1338 0.3476
C8 C -0.1696(4) -0.1557(4) 0.3034(2)
C9 C -0.1378(4) -0.1474(4) 0.2517(2)
H12 H -0.0673 -0.1635 0.2454
C10 C -0.0985(4) -0.1930(5) 0.3495(2)
C11 C -0.0482(6) -0.2312(7) 0.4378(3)
H13 H -0.0666 -0.3019 0.4570
H14 H -0.0297 -0.1687 0.4632
C12 C 0.0386(5) -0.2570(6) 0.4017(2)
H15 H 0.0977 -0.2085 0.4119
H16 H 0.0581 -0.3401 0.4038
C13 C -0.2794(5) -0.4569(6) 0.3064(3)
H17 H -0.2724 -0.3897 0.3305
H18 H -0.2914 -0.5280 0.3268
C14 C -0.3650(5) -0.4353(7) 0.2636(4)
H19 H -0.4127 -0.5011 0.2621
H20 H -0.4014 -0.3624 0.2702
C15 C -0.2110(4) -0.4487(5) 0.2261(3)
C16 C -0.1383(4) -0.4410(5) 0.1827(3)
C17 C -0.1699(5) -0.4604(5) 0.1298(3)
H21 H -0.2401 -0.4822 0.1204
C18 C -0.1027(6) -0.4488(6) 0.0904(3)
H22 H -0.1254 -0.4637 0.0536
C19 C -0.0011(5) -0.4155(5) 0.1034(3)
H23 H 0.0463 -0.4082 0.0758
C20 C 0.0321(4) -0.3924(4) 0.1568(2)
C21 C -0.0368(4) -0.4076(4) 0.1960(2)
H24 H -0.0140 -0.3953 0.2330
C22 C 0.1381(4) -0.3508(5) 0.1709(2)
C23 C 0.2815(4) -0.2821(6) 0.2148(3)
H25 H 0.3200 -0.3340 0.2395
H26 H 0.2976 -0.2002 0.2240
C24 C 0.3061(5) -0.3105(6) 0.1567(3)
H27 H 0.3235 -0.2387 0.1380
H28 H 0.3612 -0.3674 0.1553
N9 N 0.2632(6) -0.2730(11) 0.3491(4)
C25 C 0.3396(7) -0.2454(9) 0.3647(4)
C26 C 0.4397(7) -0.2086(10) 0.3849(5)
H29 H 0.4426 -0.1227 0.3880
H30 H 0.4575 -0.2452 0.4191
H31 H 0.4872 -0.2358 0.3597
Ag2A Ag 0.05094(3) -0.03149(4) 0.182040(19)
N1A N 0.0829(4) -0.5929(4) 0.36061(18)
V1 V 0.33148(7) -0.97415(10) 0.52810(4)
V2 V 0.53809(7) -1.14492(10) 0.56658(4)
O1 O 0.4241(4) -1.0705(7) 0.5591(3)
O2 O 0.3270(4) -0.8494(6) 0.5624(2)
O3 O 0.2193(3) -1.0381(4) 0.52845(19)
O4 O 0.3622(3) -0.9404(4) 0.46162(16)
O5 O 0.5739(12) -1.1972(11) 0.6232(8)
O6 O 0.5009(10) -1.2557(11) 0.5265(5)
V1B V 0.66852(7) -1.02585(10) 0.47190(4)
V2B V 0.46191(7) -0.85508(10) 0.43342(4)
O1B O 0.5759(4) -0.9295(7) 0.4409(3)
O2B O 0.6730(4) -1.1506(6) 0.4376(2)
O3B O 0.7807(3) -0.9619(4) 0.47155(19)
O4B O 0.6378(3) -1.0596(4) 0.53838(16)
O5B O 0.4261(12) -0.8028(11) 0.3768(8)
O6B O 0.4991(10) -0.7443(11) 0.4735(5)
N10 N -0.1546(8) -0.5295(11) 0.4181(5)
C27 C -0.1928(13) -0.5930(15) 0.4491(7)
C28 C -0.2296(14) -0.6799(12) 0.4868(5)
H32 H -0.3020 -0.6686 0.4897
H33 H -0.2172 -0.7602 0.4749
H34 H -0.1937 -0.6671 0.5212
O7 O 0.5145(6) -0.5356(6) 0.3740(3)
H35 H 0.4788 -0.5075 0.3983
H36 H 0.5364 -0.6061 0.3857
O8 O 0.3771(6) -0.6081(7) 0.5468(4)
H37 H 0.3528 -0.6635 0.5595
H38 H 0.4109 -0.5645 0.5698
O9 O -0.3676(18) -0.5784(18) 0.5252(9)
H39 H -0.3757 -0.5171 0.5050
H40 H -0.4115 -0.6236 0.5084
O10? O 0.4349(15) -0.860(2) 0.3686(9)
O11? O 0.4462(12) -0.7124(13) 0.4464(11)
loop_
_geom_bond_atom_site_label_1
_geom_bond_atom_site_label_2
_geom_bond_site_symmetry_1
_geom_bond_site_symmetry_2
Ag1 N3 1_555 1_555
Ag2 N5 1_555 1_555
V1 O1 1_555 1_555
V2 O1 1_555 1_555
O2 V1 1_555 1_555
O3 V1 1_555 1_555
O4 V1 1_555 1_555
O5 V2 1_555 1_555
O6 V2 1_555 1_555
N1 C1 1_555 1_555
N2 H1 1_555 1_555
N3 C10 1_555 1_555
N4 H2 1_555 1_555
N5 C13 1_555 1_555
N6 H3 1_555 1_555
N7 Ag1 1_555 1_555
N8 H4 1_555 1_555
C1 H5 1_555 1_555
H6 C1 1_555 1_555
C2 N2 1_555 1_555
H7 C2 1_555 1_555
H8 C2 1_555 1_555
C3 N1 1_555 1_555
C4 C3 1_555 1_555
C5 C4 1_555 1_555
H9 C5 1_555 1_555
C6 C5 1_555 1_555
H10 C6 1_555 1_555
C7 C6 1_555 1_555
H11 C7 1_555 1_555
C8 C7 1_555 1_555
C9 C4 1_555 1_555
H12 C9 1_555 1_555
C10 N4 1_555 1_555
C11 N4 1_555 1_555
H13 C11 1_555 1_555
H14 C11 1_555 1_555
C12 N3 1_555 1_555
H15 C12 1_555 1_555
H16 C12 1_555 1_555
C13 H17 1_555 1_555
H18 C13 1_555 1_555
C14 N6 1_555 1_555
H19 C14 1_555 1_555
H20 C14 1_555 1_555
C15 N5 1_555 1_555
C16 C15 1_555 1_555
C17 C16 1_555 1_555
H21 C17 1_555 1_555
C18 C17 1_555 1_555
H22 C18 1_555 1_555
C19 C18 1_555 1_555
H23 C19 1_555 1_555
C20 C19 1_555 1_555
C21 C16 1_555 1_555
H24 C21 1_555 1_555
C22 N7 1_555 1_555
C23 N7 1_555 1_555
H25 C23 1_555 1_555
H26 C23 1_555 1_555
C24 N8 1_555 1_555
H27 C24 1_555 1_555
H28 C24 1_555 1_555
N9 Ag1 1_555 1_555
C25 N9 1_555 1_555
C26 C25 1_555 1_555
H29 C26 1_555 1_555
H30 C26 1_555 1_555
H31 C26 1_555 1_555
N10 C27 1_555 1_555
C27 C28 1_555 1_555
C28 H32 1_555 1_555
H33 C28 1_555 1_555
H34 C28 1_555 1_555
O7 H35 1_555 1_555
H36 O7 1_555 1_555
O8 H37 1_555 1_555
H38 O8 1_555 1_555
O9 H39 1_555 1_555
H40 O9 1_555 1_555
Ag2A N1 1_555 1_555
V1B O1B 1_555 1_555
V2B O4 1_555 1_555
O1B V2B 1_555 1_555
O2B V1B 1_555 1_555
O3B V1B 1_555 1_555
O4B V2 1_555 1_555
O5B V2B 1_555 1_555
O6B V2B 1_555 1_555
N1A Ag2 1_555 1_555
N2 C3 1_555 1_555
N6 C15 1_555 1_555
N8 C22 1_555 1_555
C1 C2 1_555 1_555
C8 C9 1_555 1_555
C8 C10 1_555 1_555
C11 C12 1_555 1_555
C13 C14 1_555 1_555
C20 C21 1_555 1_555
C20 C22 1_555 1_555
C23 C24 1_555 1_555
V1B O4B 1_555 1_555

#END
