
#######################################################################
#
#                 Cambridge Crystallographic Data Centre
#                                CCDC 
#
#######################################################################
#
# If this CIF has been generated from an entry in the Cambridge 
# Structural Database, then it will include bibliographic, chemical, 
# crystal, experimental, refinement or atomic coordinate data resulting 
# from the CCDC's data processing and validation procedures.
#
#######################################################################

data_WIMVUK
_symmetry_cell_setting           orthorhombic
_symmetry_space_group_name_H-M   'P b c n'
_symmetry_Int_Tables_number      60
_space_group_name_Hall           '-P 2n 2ab'
loop_
_symmetry_equiv_pos_site_id
_symmetry_equiv_pos_as_xyz
1 x,y,z
2 1/2-x,1/2-y,1/2+z
3 -x,y,1/2-z
4 1/2+x,1/2-y,-z
5 -x,-y,-z
6 1/2+x,1/2+y,1/2-z
7 x,-y,1/2+z
8 1/2-x,1/2+y,z
_cell_length_a                   19.6407(19)
_cell_length_b                   12.9690(12)
_cell_length_c                   9.8195(9)
_cell_angle_alpha                90
_cell_angle_beta                 90
_cell_angle_gamma                90
_cell_volume                     2501.23
loop_
_atom_site_label
_atom_site_type_symbol
_atom_site_fract_x
_atom_site_fract_y
_atom_site_fract_z
Pb1 Pb 0.5000 0.681947(12) 1.2500
O1 O 0.39415(14) 0.73146(19) 1.0950(3)
O2 O 0.46065(14) 0.6121(2) 1.0038(3)
O3 O 0.41486(16) 0.4894(2) 0.8289(3)
H1 H 0.4414 0.5131 0.8854
N1 N 0.54686(15) 0.8440(2) 1.1448(3)
C1 C 0.59274(19) 0.8427(3) 1.0457(4)
C2 C 0.61983(19) 0.9346(3) 0.9934(4)
H2 H 0.6525 0.9320 0.9249
C3 C 0.5986(2) 1.0276(3) 1.0422(4)
H3 H 0.6164 1.0884 1.0069
C4 C 0.54957(19) 1.0310(3) 1.1463(4)
C5 C 0.52573(17) 0.9357(3) 1.1951(3)
C6 C 0.5238(2) 1.1256(3) 1.2008(4)
H4 H 0.5401 1.1880 1.1675
C7 C 0.6143(2) 0.7411(3) 0.9886(4)
H5 H 0.6383 0.7027 1.0571
H6 H 0.6437 0.7521 0.9118
H7 H 0.5749 0.7030 0.9601
C8 C 0.3607(2) 0.5531(3) 0.8161(4)
C9 C 0.35326(18) 0.6393(3) 0.9001(4)
C10 C 0.29722(19) 0.7031(3) 0.8802(4)
H8 H 0.2917 0.7608 0.9353
C11 C 0.2497(2) 0.6826(3) 0.7808(4)
H9 H 0.2128 0.7264 0.7677
C12 C 0.2578(2) 0.5956(4) 0.7005(5)
H10 H 0.2257 0.5810 0.6336
C13 C 0.3120(2) 0.5310(3) 0.7180(4)
H11 H 0.3163 0.4723 0.6642
C14 C 0.40548(19) 0.6634(3) 1.0067(4)
Pb1F Pb 0.5000 0.318053(12) 0.7500
Pb1F_2 Pb 0.5000 0.318053(12) 1.7500
O1B O 0.60585(14) 0.73146(19) 1.4050(3)
O2B O 0.53935(14) 0.6121(2) 1.4962(3)
O3B O 0.58514(16) 0.4894(2) 1.6711(3)
O3F O 0.41486(16) 0.5106(2) 1.3289(3)
O3D O 0.58514(16) 0.5106(2) 1.1711(3)
H1B H 0.5586 0.5131 1.6146
H1F H 0.4414 0.4869 1.3854
H1D H 0.5586 0.4869 1.1146
N1B N 0.45314(15) 0.8440(2) 1.3552(3)
C1B C 0.40726(19) 0.8427(3) 1.4543(4)
C2B C 0.38017(19) 0.9346(3) 1.5066(4)
H2B H 0.3475 0.9320 1.5751
C3B C 0.4014(2) 1.0276(3) 1.4578(4)
H3B H 0.3836 1.0884 1.4931
C4B C 0.45043(19) 1.0310(3) 1.3537(4)
C5B C 0.47427(17) 0.9357(3) 1.3049(3)
C6B C 0.4762(2) 1.1256(3) 1.2992(4)
H4B H 0.4599 1.1880 1.3325
C7B C 0.3857(2) 0.7411(3) 1.5114(4)
H5B H 0.3617 0.7027 1.4429
H6B H 0.3563 0.7521 1.5882
H7B H 0.4251 0.7030 1.5399
C8B C 0.6393(2) 0.5531(3) 1.6839(4)
C9B C 0.64674(18) 0.6393(3) 1.5999(4)
C10B C 0.70278(19) 0.7031(3) 1.6198(4)
H8B H 0.7083 0.7608 1.5647
C11B C 0.7503(2) 0.6826(3) 1.7192(4)
H9B H 0.7872 0.7264 1.7323
C12B C 0.7422(2) 0.5956(4) 1.7995(5)
H10B H 0.7743 0.5810 1.8664
C13B C 0.6880(2) 0.5310(3) 1.7820(4)
H11B H 0.6837 0.4723 1.8358
C14B C 0.59452(19) 0.6634(3) 1.4933(4)
loop_
_geom_bond_atom_site_label_1
_geom_bond_atom_site_label_2
_geom_bond_site_symmetry_1
_geom_bond_site_symmetry_2
Pb1 O1 1_555 1_555
O1 C14 1_555 1_555
O2 Pb1 1_555 1_555
O3 H1 1_555 1_555
N1 Pb1 1_555 1_555
C1 N1 1_555 1_555
C2 C1 1_555 1_555
H2 C2 1_555 1_555
C3 C2 1_555 1_555
H3 C3 1_555 1_555
C4 C3 1_555 1_555
C5 N1 1_555 1_555
C6 C4 1_555 1_555
H4 C6 1_555 1_555
C7 C1 1_555 1_555
H5 C7 1_555 1_555
H6 C7 1_555 1_555
H7 C7 1_555 1_555
C8 O3 1_555 1_555
C9 C8 1_555 1_555
C10 C9 1_555 1_555
H8 C10 1_555 1_555
C11 C10 1_555 1_555
H9 C11 1_555 1_555
C12 C11 1_555 1_555
H10 C12 1_555 1_555
C13 C8 1_555 1_555
H11 C13 1_555 1_555
C14 O2 1_555 1_555
Pb1F O3 1_555 1_555
Pb1F_2 O3B 1_555 1_555
O1B Pb1 1_555 1_555
O2B Pb1 1_555 1_555
O3B H1B 1_555 1_555
O3F Pb1 1_555 1_555
O3D Pb1 1_555 1_555
H1F O3F 1_555 1_555
H1D O3D 1_555 1_555
N1B Pb1 1_555 1_555
C1B N1B 1_555 1_555
C2B C1B 1_555 1_555
H2B C2B 1_555 1_555
C3B C2B 1_555 1_555
H3B C3B 1_555 1_555
C4B C3B 1_555 1_555
C5B C5 1_555 1_555
C6B C6 1_555 1_555
H4B C6B 1_555 1_555
C7B C1B 1_555 1_555
H5B C7B 1_555 1_555
H6B C7B 1_555 1_555
H7B C7B 1_555 1_555
C8B O3B 1_555 1_555
C9B C8B 1_555 1_555
C10B C9B 1_555 1_555
H8B C10B 1_555 1_555
C11B C10B 1_555 1_555
H9B C11B 1_555 1_555
C12B C11B 1_555 1_555
H10B C12B 1_555 1_555
C13B C8B 1_555 1_555
H11B C13B 1_555 1_555
C14B O1B 1_555 1_555
C4 C5 1_555 1_555
C9 C14 1_555 1_555
C12 C13 1_555 1_555
O2B C14B 1_555 1_555
N1B C5B 1_555 1_555
C4B C5B 1_555 1_555
C4B C6B 1_555 1_555
C9B C14B 1_555 1_555
C12B C13B 1_555 1_555

#END
