
#######################################################################
#
#                 Cambridge Crystallographic Data Centre
#                                CCDC 
#
#######################################################################
#
# If this CIF has been generated from an entry in the Cambridge 
# Structural Database, then it will include bibliographic, chemical, 
# crystal, experimental, refinement or atomic coordinate data resulting 
# from the CCDC's data processing and validation procedures.
#
#######################################################################

data_WIMVAQ
_symmetry_cell_setting           monoclinic
_symmetry_space_group_name_H-M   'C 2/c'
_symmetry_Int_Tables_number      15
_space_group_name_Hall           '-C 2yn'
loop_
_symmetry_equiv_pos_site_id
_symmetry_equiv_pos_as_xyz
1 x,y,z
2 1/2+x,1/2+y,z
3 -x,y,1/2-z
4 1/2-x,1/2+y,1/2-z
5 -x,-y,-z
6 1/2-x,1/2-y,-z
7 x,-y,1/2+z
8 1/2+x,1/2-y,1/2+z
_cell_length_a                   15.817(3)
_cell_length_b                   7.2249(14)
_cell_length_c                   17.509(4)
_cell_angle_alpha                90
_cell_angle_beta                 108.29(3)
_cell_angle_gamma                90
_cell_volume                     1899.78
loop_
_atom_site_label
_atom_site_type_symbol
_atom_site_fract_x
_atom_site_fract_y
_atom_site_fract_z
C1 C 1.14471(14) -0.2801(3) 0.55401(13)
H1 H 1.1061 -0.3779 0.5332
C2 C 1.2802(2) -0.4741(4) 0.6142(2)
H2 H 1.3402 -0.4590 0.6118
H3 H 1.2508 -0.5680 0.5753
C3 C 1.26507(16) -0.1258(4) 0.61419(16)
H4 H 1.3238 -0.0954 0.6420
C4 C 1.19657(18) -0.0070(4) 0.58733(19)
H5 H 1.2000 0.1208 0.5937
C5 C 1.02334(13) 0.2495(3) 0.61465(13)
C6 C 1.01289(13) 0.3540(3) 0.68534(13)
C7 C 1.0000 0.2586(4) 0.7500
H6 H 1.0000 0.1299 0.7500
C8 C 1.01330(17) 0.5460(4) 0.68607(19)
H7 H 1.0225 0.6109 0.6435
C9 C 1.0000 0.6412(5) 0.7500
H8 H 1.0000 0.7699 0.7500
C10 C 1.2842(2) -0.5379(5) 0.6975(2)
H9 H 1.3160 -0.6528 0.7095
H10 H 1.2248 -0.5549 0.6998
H11 H 1.3142 -0.4463 0.7363
N1 N 1.12108(11) -0.1053(3) 0.54914(11)
N2 N 1.23206(12) -0.2991(3) 0.59294(12)
O1 O 0.99755(10) 0.0808(2) 0.60769(9)
O2 O 1.05357(11) 0.3279(3) 0.56545(10)
Cu1 Cu 1.0000 0.0000 0.5000
C1D C 0.85529(14) 0.2801(3) 0.44599(13)
H1D H 0.8939 0.3779 0.4668
C2D C 0.7198(2) 0.4741(4) 0.3858(2)
H2D H 0.6598 0.4590 0.3882
H3D H 0.7492 0.5680 0.4247
C3D C 0.73493(16) 0.1258(4) 0.38581(16)
H4D H 0.6762 0.0954 0.3580
C4D C 0.80343(18) 0.0070(4) 0.41267(19)
H5D H 0.8000 -0.1208 0.4063
C5B C 0.97666(13) 0.2495(3) 0.88535(13)
C6B C 0.98711(13) 0.3540(3) 0.81466(13)
C8B C 0.98670(17) 0.5460(4) 0.81393(19)
H7B H 0.9775 0.6109 0.8565
C10D C 0.7158(2) 0.5379(5) 0.3025(2)
H9D H 0.6840 0.6528 0.2905
H10D H 0.7752 0.5549 0.3002
H11D H 0.6858 0.4463 0.2637
N1D N 0.87892(11) 0.1053(3) 0.45086(11)
N2D N 0.76794(12) 0.2991(3) 0.40706(12)
O1B O 1.00245(10) 0.0808(2) 0.89231(9)
O1D O 1.00245(10) -0.0808(2) 0.39231(9)
O2B O 0.94643(11) 0.3279(3) 0.93455(10)
Cu1F Cu 1.0000 0.0000 1.0000
loop_
_geom_bond_atom_site_label_1
_geom_bond_atom_site_label_2
_geom_bond_site_symmetry_1
_geom_bond_site_symmetry_2
C1 H1 1_555 1_555
C2 H2 1_555 1_555
H3 C2 1_555 1_555
C3 H4 1_555 1_555
C4 C3 1_555 1_555
H5 C4 1_555 1_555
C5 C6 1_555 1_555
C6 C7 1_555 1_555
C7 H6 1_555 1_555
C8 C6 1_555 1_555
H7 C8 1_555 1_555
C9 C8 1_555 1_555
H8 C9 1_555 1_555
C10 C2 1_555 1_555
H9 C10 1_555 1_555
H10 C10 1_555 1_555
H11 C10 1_555 1_555
N1 C1 1_555 1_555
N2 C1 1_555 1_555
O1 C5 1_555 1_555
O2 C5 1_555 1_555
Cu1 N1 1_555 1_555
C1D H1D 1_555 1_555
C2D H2D 1_555 1_555
H3D C2D 1_555 1_555
C3D H4D 1_555 1_555
C4D C3D 1_555 1_555
H5D C4D 1_555 1_555
C5B C6B 1_555 1_555
C6B C7 1_555 1_555
C8B C9 1_555 1_555
H7B C8B 1_555 1_555
C10D C2D 1_555 1_555
H9D C10D 1_555 1_555
H10D C10D 1_555 1_555
H11D C10D 1_555 1_555
N1D Cu1 1_555 1_555
N2D C1D 1_555 1_555
O1B C5B 1_555 1_555
O1D Cu1 1_555 1_555
O2B C5B 1_555 1_555
Cu1F O1B 1_555 1_555
C2 N2 1_555 1_555
C3 N2 1_555 1_555
C4 N1 1_555 1_555
O1 Cu1 1_555 1_555
C1D N1D 1_555 1_555
C2D N2D 1_555 1_555
C3D N2D 1_555 1_555
C4D N1D 1_555 1_555
C6B C8B 1_555 1_555

#END
