
#######################################################################
#
#                 Cambridge Crystallographic Data Centre
#                                CCDC 
#
#######################################################################
#
# If this CIF has been generated from an entry in the Cambridge 
# Structural Database, then it will include bibliographic, chemical, 
# crystal, experimental, refinement or atomic coordinate data resulting 
# from the CCDC's data processing and validation procedures.
#
#######################################################################

data_WIMWUM
_symmetry_cell_setting           triclinic
_symmetry_space_group_name_H-M   'P 1'
_symmetry_Int_Tables_number      1
_space_group_name_Hall           'P 1'
loop_
_symmetry_equiv_pos_site_id
_symmetry_equiv_pos_as_xyz
1 x,y,z
_cell_length_a                   9.873(2)
_cell_length_b                   10.470(2)
_cell_length_c                   12.138(2)
_cell_angle_alpha                100.95(3)
_cell_angle_beta                 111.89(3)
_cell_angle_gamma                92.56(3)
_cell_volume                     1133.83
loop_
_atom_site_label
_atom_site_type_symbol
_atom_site_fract_x
_atom_site_fract_y
_atom_site_fract_z
Cd1 Cd -0.07508(3) 0.47918(3) 0.55325(3)
Cd2 Cd 0.09963(13) 0.75583(11) 0.80164(11)
Cd3 Cd 0.27469(3) 1.03231(3) 1.05033(3)
O1 O -0.0798(13) 0.2650(9) 0.5789(10)
O2 O -0.1772(11) 0.2954(9) 0.3935(9)
O3 O -0.1127(13) -0.3646(9) 0.4517(9)
O4 O -0.0098(12) -0.1959(11) 0.6155(9)
O5 O 0.1464(9) 0.5609(8) 0.7042(7)
O6 O 0.2056(10) 0.4406(7) 0.5619(7)
O7 O 0.7424(10) 0.5164(10) 0.6134(9)
O8 O 0.9026(10) 0.6388(10) 0.7940(10)
O9 O 0.2665(12) 1.2558(8) 1.0265(8)
O10 O 0.3794(12) 1.2083(8) 1.2047(7)
O11 O 0.2193(10) 1.7167(6) 0.9869(6)
O12 O 0.3038(11) 1.8755(8) 1.1536(8)
O13 O 0.0531(10) 0.9522(9) 0.9016(9)
O14 O -0.0090(11) 1.0637(10) 1.0466(9)
O15 O -0.7017(11) 0.8773(11) 0.8090(10)
O16 O -0.5401(10) 0.9849(8) 0.9876(8)
C1 C -0.1793(7) 0.0758(4) 0.4105(6)
C2 C -0.1200(7) -0.0129(5) 0.4818(4)
H1 H -0.0627 0.0171 0.5644
C3 C -0.1464(8) -0.1465(5) 0.4298(4)
C4 C -0.2321(9) -0.1913(4) 0.3064(5)
H2 H -0.2497 -0.2807 0.2716
C5 C -0.2914(9) -0.1026(6) 0.2350(4)
H3 H -0.3487 -0.1326 0.1525
C6 C -0.2650(8) 0.0310(5) 0.2871(5)
H4 H -0.3047 0.0903 0.2393
C7 C -0.1384(16) 0.2215(12) 0.4665(13)
C8 C -0.0874(12) -0.2516(13) 0.5022(11)
C9 C 0.4009(5) 0.5605(6) 0.7473(5)
C10 C 0.5072(6) 0.5551(6) 0.6976(4)
H5 H 0.4793 0.5292 0.6137
C11 C 0.6552(6) 0.5884(6) 0.7732(6)
C12 C 0.6969(5) 0.6271(7) 0.8986(5)
H6 H 0.7960 0.6494 0.9492
C13 C 0.5907(7) 0.6325(8) 0.9483(4)
H7 H 0.6186 0.6583 1.0321
C14 C 0.4427(6) 0.5992(6) 0.8726(5)
H8 H 0.3716 0.6027 0.9059
C15 C 0.2403(12) 0.5195(10) 0.6631(9)
C16 C 0.7792(15) 0.5897(9) 0.7240(14)
C17 C 0.3838(8) 1.4366(4) 1.1906(5)
C18 C 0.3231(6) 1.5274(6) 1.1221(4)
H9 H 0.2631 1.4991 1.0400
C19 C 0.3522(8) 1.6604(5) 1.1764(6)
C20 C 0.4419(9) 1.7027(4) 1.2992(6)
H10 H 0.4614 1.7917 1.3356
C21 C 0.5026(7) 1.6120(5) 1.3677(4)
H11 H 0.5626 1.6403 1.4499
C22 C 0.4735(8) 1.4789(4) 1.3134(5)
H12 H 0.5141 1.4182 1.3592
C23 C 0.3429(10) 1.2936(9) 1.1399(10)
C24 C 0.2831(12) 1.7531(8) 1.0966(10)
C25 C -0.2027(6) 0.9612(6) 0.8630(5)
C26 C -0.3117(8) 0.9602(7) 0.9096(4)
H13 H -0.2871 0.9884 0.9929
C27 C -0.4573(7) 0.9169(7) 0.8318(6)
C28 C -0.4940(6) 0.8747(7) 0.7073(6)
H14 H -0.5915 0.8458 0.6552
C29 C -0.3851(7) 0.8757(6) 0.6607(4)
H15 H -0.4096 0.8475 0.5775
C30 C -0.2394(7) 0.9190(6) 0.7386(5)
H16 H -0.1665 0.9197 0.7074
C31 C -0.0436(12) 0.9948(11) 0.9428(11)
C32 C -0.5738(11) 0.9345(11) 0.8826(11)
Cd1_2 Cd -0.07508(3) -0.52082(3) 0.55325(3)
Cd1_3 Cd 0.92492(3) 0.47918(3) 0.55325(3)
Cd2_2 Cd -0.90037(13) 0.75583(11) 0.80164(11)
Cd2_3 Cd 0.09963(13) -0.24417(11) 0.80164(11)
Cd2_4 Cd 0.09963(13) 1.75583(11) 0.80164(11)
Cd2_5 Cd 1.09963(13) 0.75583(11) 0.80164(11)
Cd3_2 Cd -0.72531(3) 1.03231(3) 1.05033(3)
Cd3_3 Cd 0.27469(3) 2.03231(3) 1.05033(3)
O3_2 O -0.1127(13) 0.6354(9) 0.4517(9)
O4_2 O -0.0098(12) 0.8041(11) 0.6155(9)
O7_2 O -0.2576(10) 0.5164(10) 0.6134(9)
O8_2 O -0.0974(10) 0.6388(10) 0.7940(10)
O11_2 O 0.2193(10) 0.7167(6) 0.9869(6)
O12_2 O 0.3038(11) 0.8755(8) 1.1536(8)
O15_2 O 0.2983(11) 0.8773(11) 0.8090(10)
O16_2 O 0.4599(10) 0.9849(8) 0.9876(8)
N1 N 0.3123(10) 0.1989(6) 0.5450(8)
H17 H 0.2735 0.2811 0.5520
C33 C 0.2194(11) 0.0662(14) 0.4779(10)
H18 H 0.2829 -0.0023 0.4892
H19 H 0.1486 0.0513 0.5135
C34 C 0.137(3) 0.057(4) 0.3408(15)
H20 H 0.1097 0.1411 0.3275
H21 H 0.0497 -0.0055 0.3106
H22 H 0.1992 0.0286 0.2988
C35 C 0.4207(13) 0.2329(10) 0.4874(9)
H23 H 0.3704 0.2099 0.3994
H24 H 0.4510 0.3268 0.5115
C36 C 0.297(3) 0.204(2) 0.7426(17)
H25 H 0.3534 0.2078 0.8272
H26 H 0.2282 0.1251 0.7084
H27 H 0.2440 0.2787 0.7348
C37 C 0.3925(10) 0.2039(9) 0.6797(7)
H28 H 0.4466 0.1289 0.6891
H29 H 0.4634 0.2825 0.7164
C38 C 0.541(2) 0.171(3) 0.520(3)
H30 H 0.6048 0.1958 0.4819
H31 H 0.5125 0.0775 0.4942
H32 H 0.5928 0.1940 0.6068
N2 N -0.0979(16) 0.3281(17) 0.0624(14)
H33 H -0.0992 0.2394 0.0464
C39 C -0.2577(15) 0.3489(17) 0.030(2)
H34 H -0.2693 0.4336 0.0083
H35 H -0.3163 0.2830 -0.0428
C40 C -0.319(2) 0.345(3) 0.119(2)
H36 H -0.4247 0.3262 0.0797
H37 H -0.2935 0.4280 0.1762
H38 H -0.2816 0.2775 0.1618
C41 C -0.0438(12) 0.3714(11) -0.0235(10)
H39 H 0.0618 0.3694 0.0094
H40 H -0.0583 0.4630 -0.0188
C42 C -0.097(2) 0.309(2) -0.1544(16)
H41 H -0.0397 0.3498 -0.1904
H42 H -0.1985 0.3201 -0.1938
H43 H -0.0867 0.2175 -0.1641
C43 C -0.0005(18) 0.3731(12) 0.1937(14)
H44 H -0.0464 0.3355 0.2403
H45 H 0.0913 0.3366 0.2064
C44 C 0.031(3) 0.499(3) 0.239(2)
H46 H 0.0782 0.5150 0.3265
H47 H -0.0577 0.5397 0.2174
H48 H 0.0962 0.5358 0.2080
loop_
_geom_bond_atom_site_label_1
_geom_bond_atom_site_label_2
_geom_bond_site_symmetry_1
_geom_bond_site_symmetry_2
Cd1 O1 1_555 1_555
Cd2 O5 1_555 1_555
Cd3 O9 1_555 1_555
O1 C7 1_555 1_555
O2 Cd1 1_555 1_555
O3 C8 1_555 1_555
O4 C8 1_555 1_555
O5 Cd1 1_555 1_555
O6 Cd1 1_555 1_555
O7 C16 1_555 1_555
O8 C16 1_555 1_555
O9 C23 1_555 1_555
O10 Cd3 1_555 1_555
O11 C24 1_555 1_555
O12 C24 1_555 1_555
O13 Cd2 1_555 1_555
O14 Cd3 1_555 1_555
O15 C32 1_555 1_555
O16 C32 1_555 1_555
C1 C2 1_555 1_555
C2 H1 1_555 1_555
C3 C2 1_555 1_555
C4 C3 1_555 1_555
H2 C4 1_555 1_555
C5 C4 1_555 1_555
H3 C5 1_555 1_555
C6 C1 1_555 1_555
H4 C6 1_555 1_555
C7 O2 1_555 1_555
C8 C3 1_555 1_555
C9 C10 1_555 1_555
C10 H5 1_555 1_555
C11 C10 1_555 1_555
C12 C11 1_555 1_555
H6 C12 1_555 1_555
C13 C12 1_555 1_555
H7 C13 1_555 1_555
C14 C9 1_555 1_555
H8 C14 1_555 1_555
C15 O5 1_555 1_555
C16 C11 1_555 1_555
C17 C18 1_555 1_555
C18 H9 1_555 1_555
C19 C18 1_555 1_555
C20 C19 1_555 1_555
H10 C20 1_555 1_555
C21 C20 1_555 1_555
H11 C21 1_555 1_555
C22 C17 1_555 1_555
H12 C22 1_555 1_555
C23 O10 1_555 1_555
C24 C19 1_555 1_555
C25 C26 1_555 1_555
C26 H13 1_555 1_555
C27 C26 1_555 1_555
C28 C27 1_555 1_555
H14 C28 1_555 1_555
C29 C28 1_555 1_555
H15 C29 1_555 1_555
C30 C25 1_555 1_555
H16 C30 1_555 1_555
C31 O13 1_555 1_555
C32 C27 1_555 1_555
N1 H17 1_555 1_555
C33 N1 1_555 1_555
H18 C33 1_555 1_555
H19 C33 1_555 1_555
C34 C33 1_555 1_555
H20 C34 1_555 1_555
H21 C34 1_555 1_555
H22 C34 1_555 1_555
C35 N1 1_555 1_555
H23 C35 1_555 1_555
H24 C35 1_555 1_555
C36 H25 1_555 1_555
H26 C36 1_555 1_555
H27 C36 1_555 1_555
C37 N1 1_555 1_555
H28 C37 1_555 1_555
H29 C37 1_555 1_555
C38 C35 1_555 1_555
H30 C38 1_555 1_555
H31 C38 1_555 1_555
H32 C38 1_555 1_555
N2 H33 1_555 1_555
C39 N2 1_555 1_555
H34 C39 1_555 1_555
H35 C39 1_555 1_555
C40 C39 1_555 1_555
H36 C40 1_555 1_555
H37 C40 1_555 1_555
H38 C40 1_555 1_555
C41 N2 1_555 1_555
H39 C41 1_555 1_555
H40 C41 1_555 1_555
C42 C41 1_555 1_555
H41 C42 1_555 1_555
H42 C42 1_555 1_555
H43 C42 1_555 1_555
C43 N2 1_555 1_555
H44 C43 1_555 1_555
H45 C43 1_555 1_555
C44 C43 1_555 1_555
H46 C44 1_555 1_555
H47 C44 1_555 1_555
H48 C44 1_555 1_555
Cd1_2 O3 1_555 1_555
Cd1_3 O7 1_555 1_555
Cd2_2 O15 1_555 1_555
Cd2_3 O4 1_555 1_555
Cd2_4 O11 1_555 1_555
Cd2_5 O8 1_555 1_555
Cd3_2 O16 1_555 1_555
Cd3_3 O12 1_555 1_555
O3_2 Cd1 1_555 1_555
O4_2 Cd2 1_555 1_555
O7_2 Cd1 1_555 1_555
O8_2 Cd2 1_555 1_555
O11_2 Cd2 1_555 1_555
O12_2 Cd3 1_555 1_555
O15_2 Cd2 1_555 1_555
O16_2 Cd3 1_555 1_555
Cd3 O13 1_555 1_555
O6 C15 1_555 1_555
O14 C31 1_555 1_555
C1 C7 1_555 1_555
C5 C6 1_555 1_555
C9 C15 1_555 1_555
C13 C14 1_555 1_555
C17 C23 1_555 1_555
C21 C22 1_555 1_555
C25 C31 1_555 1_555
C29 C30 1_555 1_555
C36 C37 1_555 1_555

#END
