
#######################################################################
#
#                 Cambridge Crystallographic Data Centre
#                                CCDC 
#
#######################################################################
#
# If this CIF has been generated from an entry in the Cambridge 
# Structural Database, then it will include bibliographic, chemical, 
# crystal, experimental, refinement or atomic coordinate data resulting 
# from the CCDC's data processing and validation procedures.
#
#######################################################################

data_WIMWIA
_symmetry_cell_setting           orthorhombic
_symmetry_space_group_name_H-M   'P b c a'
_symmetry_Int_Tables_number      61
_space_group_name_Hall           '-P 2ac 2ab'
loop_
_symmetry_equiv_pos_site_id
_symmetry_equiv_pos_as_xyz
1 x,y,z
2 1/2-x,-y,1/2+z
3 -x,1/2+y,1/2-z
4 1/2+x,1/2-y,-z
5 -x,-y,-z
6 1/2+x,y,1/2-z
7 x,1/2-y,1/2+z
8 1/2-x,1/2+y,z
_cell_length_a                   14.085(3)
_cell_length_b                   14.019(3)
_cell_length_c                   24.130(5)
_cell_angle_alpha                90
_cell_angle_beta                 90
_cell_angle_gamma                90
_cell_volume                     4764.65
loop_
_atom_site_label
_atom_site_type_symbol
_atom_site_fract_x
_atom_site_fract_y
_atom_site_fract_z
Zn1 Zn 0.43961(6) 0.09067(6) 0.37345(3)
Zn2 Zn 0.5000 0.0000 0.5000
O1 O 0.5491(4) 0.1640(4) 0.3941(2)
O2 O 0.5910(4) 0.1133(4) 0.4778(2)
O3 O 0.8070(5) 0.3252(5) 0.5917(3)
O4 O 0.8789(4) 0.4416(4) 0.5504(2)
O5 O 0.4798(4) -0.0417(4) 0.3557(2)
O6 O 0.5360(4) -0.0860(4) 0.4383(2)
O7 O 0.5933(4) -0.3867(4) 0.2037(2)
O8 O 0.5633(4) -0.2317(4) 0.1931(2)
C1 C 0.6506(5) 0.2594(5) 0.4460(3)
C2 C 0.7022(5) 0.2786(5) 0.4937(3)
H1 H 0.7003 0.2352 0.5229
C3 C 0.7566(6) 0.3611(5) 0.4992(3)
C4 C 0.7559(6) 0.4264(6) 0.4572(3)
H2 H 0.7893 0.4832 0.4610
C5 C 0.7061(6) 0.4086(6) 0.4091(4)
H3 H 0.7073 0.4530 0.3804
C6 C 0.6547(6) 0.3263(6) 0.4032(3)
H4 H 0.6222 0.3148 0.3703
C7 C 0.5920(6) 0.1716(6) 0.4390(4)
C8 C 0.8172(6) 0.3762(7) 0.5508(4)
C9 C 0.5554(6) -0.1909(5) 0.3638(3)
C10 C 0.5522(5) -0.2062(6) 0.3069(3)
H5 H 0.5274 -0.1589 0.2840
C11 C 0.5848(5) -0.2897(6) 0.2836(3)
C12 C 0.6209(7) -0.3585(6) 0.3177(4)
H6 H 0.6421 -0.4158 0.3028
C13 C 0.6262(8) -0.3436(7) 0.3740(4)
H7 H 0.6538 -0.3896 0.3966
C14 C 0.5908(7) -0.2608(6) 0.3971(4)
H8 H 0.5911 -0.2528 0.4354
C15 C 0.5208(5) -0.0992(6) 0.3880(4)
C16 C 0.5804(5) -0.3021(7) 0.2225(3)
Zn1D Zn 0.56039(6) -0.09067(6) 0.62655(3)
O1D O 0.4509(4) -0.1640(4) 0.6059(2)
O2D O 0.4090(4) -0.1133(4) 0.5222(2)
O3D O 0.1930(5) -0.3252(5) 0.4083(3)
O4D O 0.1211(4) -0.4416(4) 0.4496(2)
O5D O 0.5202(4) 0.0417(4) 0.6443(2)
O6D O 0.4640(4) 0.0860(4) 0.5617(2)
O7D O 0.4067(4) 0.3867(4) 0.7963(2)
O8D O 0.4367(4) 0.2317(4) 0.8069(2)
C1D C 0.3494(5) -0.2594(5) 0.5540(3)
C2D C 0.2978(5) -0.2786(5) 0.5063(3)
H1D H 0.2997 -0.2352 0.4771
C3D C 0.2434(6) -0.3611(5) 0.5008(3)
C4D C 0.2441(6) -0.4264(6) 0.5428(3)
H2D H 0.2107 -0.4832 0.5390
C5D C 0.2939(6) -0.4086(6) 0.5909(4)
H3D H 0.2927 -0.4530 0.6196
C6D C 0.3453(6) -0.3263(6) 0.5968(3)
H4D H 0.3778 -0.3148 0.6297
C7D C 0.4080(6) -0.1716(6) 0.5610(4)
C8D C 0.1828(6) -0.3762(7) 0.4492(4)
C9D C 0.4446(6) 0.1909(5) 0.6362(3)
C10D C 0.4478(5) 0.2062(6) 0.6931(3)
H5D H 0.4726 0.1589 0.7160
C11D C 0.4152(5) 0.2897(6) 0.7164(3)
C12D C 0.3791(7) 0.3585(6) 0.6823(4)
H6D H 0.3579 0.4158 0.6972
C13D C 0.3738(8) 0.3436(7) 0.6260(4)
H7D H 0.3462 0.3896 0.6034
C14D C 0.4092(7) 0.2608(6) 0.6029(4)
H8D H 0.4089 0.2528 0.5646
C15D C 0.4792(5) 0.0992(6) 0.6120(4)
C16D C 0.4196(5) 0.3021(7) 0.7775(3)
Zn1B Zn 0.56039(6) -0.40933(6) 0.12655(3)
Zn1C Zn 0.93961(6) 0.40933(6) 0.62655(3)
Zn1F Zn 0.43961(6) 0.40933(6) 0.87345(3)
Zn1G Zn 0.06039(6) -0.40933(6) 0.37345(3)
Zn2C Zn 0.0000 -0.5000 0.5000
Zn2C_2 Zn 1.0000 0.5000 0.5000
O3C O 0.3070(5) 0.1748(5) 0.4083(3)
O3G O 0.6930(5) -0.1748(5) 0.5917(3)
O4C O 0.3789(4) 0.0584(4) 0.4496(2)
O4G O 0.6211(4) -0.0584(4) 0.5504(2)
O7B O 0.4067(4) 0.1133(4) 0.2963(2)
O7F O 0.5933(4) -0.1133(4) 0.7037(2)
N1 N 0.6576(12) -0.4274(9) 0.6660(7)
H9 H 0.6290 -0.3720 0.6764
C17 C 0.7512(18) -0.4123(18) 0.6840(16)
H10 H 0.7735 -0.4755 0.6939
H11 H 0.7853 -0.3956 0.6504
C18 C 0.7876(14) -0.3570(17) 0.7216(13)
H12 H 0.8555 -0.3623 0.7209
H13 H 0.7644 -0.3756 0.7574
H14 H 0.7696 -0.2921 0.7143
C19 C 0.665(3) -0.4130(17) 0.5941(16)
H15 H 0.6769 -0.3474 0.5831
H16 H 0.7118 -0.4550 0.5771
C20 C 0.5897(19) -0.437(3) 0.5867(16)
H17 H 0.5761 -0.4349 0.5478
H18 H 0.5472 -0.3945 0.6060
H19 H 0.5815 -0.5005 0.6003
C21 C 0.6087(13) -0.5013(14) 0.7051(13)
H20 H 0.6154 -0.4797 0.7431
H21 H 0.5414 -0.5032 0.6966
C22 C 0.6446(12) -0.5920(15) 0.7011(14)
H22 H 0.6063 -0.6347 0.7227
H23 H 0.7086 -0.5928 0.7147
H24 H 0.6439 -0.6119 0.6630
loop_
_geom_bond_atom_site_label_1
_geom_bond_atom_site_label_2
_geom_bond_site_symmetry_1
_geom_bond_site_symmetry_2
Zn1 O1 1_555 1_555
Zn2 O2 1_555 1_555
O1 C7 1_555 1_555
O2 C7 1_555 1_555
O3 C8 1_555 1_555
O4 C8 1_555 1_555
O5 Zn1 1_555 1_555
O6 Zn2 1_555 1_555
O7 C16 1_555 1_555
O8 C16 1_555 1_555
C1 C2 1_555 1_555
C2 H1 1_555 1_555
C3 C2 1_555 1_555
C4 C3 1_555 1_555
H2 C4 1_555 1_555
C5 C4 1_555 1_555
H3 C5 1_555 1_555
C6 C1 1_555 1_555
H4 C6 1_555 1_555
C7 C1 1_555 1_555
C8 C3 1_555 1_555
C9 C10 1_555 1_555
C10 H5 1_555 1_555
C11 C10 1_555 1_555
C12 C11 1_555 1_555
H6 C12 1_555 1_555
C13 C12 1_555 1_555
H7 C13 1_555 1_555
C14 C9 1_555 1_555
H8 C14 1_555 1_555
C15 O5 1_555 1_555
C16 C11 1_555 1_555
N1 H9 1_555 1_555
C17 N1 1_555 1_555
H10 C17 1_555 1_555
H11 C17 1_555 1_555
C18 C17 1_555 1_555
H12 C18 1_555 1_555
H13 C18 1_555 1_555
H14 C18 1_555 1_555
C19 N1 1_555 1_555
H15 C19 1_555 1_555
H16 C19 1_555 1_555
C20 C19 1_555 1_555
H17 C20 1_555 1_555
H18 C20 1_555 1_555
H19 C20 1_555 1_555
C21 N1 1_555 1_555
H20 C21 1_555 1_555
H21 C21 1_555 1_555
C22 C21 1_555 1_555
H22 C22 1_555 1_555
H23 C22 1_555 1_555
H24 C22 1_555 1_555
Zn1D O1D 1_555 1_555
O1D C7D 1_555 1_555
O2D Zn2 1_555 1_555
O3D C8D 1_555 1_555
O4D C8D 1_555 1_555
O5D Zn1D 1_555 1_555
O6D Zn2 1_555 1_555
O7D C16D 1_555 1_555
O8D C16D 1_555 1_555
C1D C2D 1_555 1_555
C2D H1D 1_555 1_555
C3D C2D 1_555 1_555
C4D C3D 1_555 1_555
H2D C4D 1_555 1_555
C5D C4D 1_555 1_555
H3D C5D 1_555 1_555
C6D C1D 1_555 1_555
H4D C6D 1_555 1_555
C7D O2D 1_555 1_555
C8D C3D 1_555 1_555
C9D C10D 1_555 1_555
C10D H5D 1_555 1_555
C11D C10D 1_555 1_555
C12D C11D 1_555 1_555
H6D C12D 1_555 1_555
C13D C12D 1_555 1_555
H7D C13D 1_555 1_555
C14D C9D 1_555 1_555
H8D C14D 1_555 1_555
C15D O5D 1_555 1_555
C16D C11D 1_555 1_555
Zn1B O7 1_555 1_555
Zn1C O3 1_555 1_555
Zn1F O7D 1_555 1_555
Zn1G O3D 1_555 1_555
Zn2C O4D 1_555 1_555
Zn2C_2 O4 1_555 1_555
O3C Zn1 1_555 1_555
O3G Zn1D 1_555 1_555
O4C Zn1 1_555 1_555
O4G Zn2 1_555 1_555
O7B Zn1 1_555 1_555
O7F Zn1D 1_555 1_555
Zn2 O4C 1_555 1_555
O4 Zn1C 1_555 1_555
O6 C15 1_555 1_555
C5 C6 1_555 1_555
C9 C15 1_555 1_555
C13 C14 1_555 1_555
Zn1D O4G 1_555 1_555
O4D Zn1G 1_555 1_555
O6D C15D 1_555 1_555
C1D C7D 1_555 1_555
C5D C6D 1_555 1_555
C9D C15D 1_555 1_555
C13D C14D 1_555 1_555

#END
