
#######################################################################
#
#                 Cambridge Crystallographic Data Centre
#                                CCDC 
#
#######################################################################
#
# If this CIF has been generated from an entry in the Cambridge 
# Structural Database, then it will include bibliographic, chemical, 
# crystal, experimental, refinement or atomic coordinate data resulting 
# from the CCDC's data processing and validation procedures.
#
#######################################################################

data_WIMWOG
_symmetry_cell_setting           orthorhombic
_symmetry_space_group_name_H-M   'P c a 21'
_symmetry_Int_Tables_number      29
_space_group_name_Hall           'P 2c -2ac'
loop_
_symmetry_equiv_pos_site_id
_symmetry_equiv_pos_as_xyz
1 x,y,z
2 -x,-y,1/2+z
3 1/2+x,-y,z
4 1/2-x,y,1/2+z
_cell_length_a                   34.8919(16)
_cell_length_b                   9.5607(4)
_cell_length_c                   13.4581(6)
_cell_angle_alpha                90
_cell_angle_beta                 90
_cell_angle_gamma                90
_cell_volume                     4489.5
loop_
_atom_site_label
_atom_site_type_symbol
_atom_site_fract_x
_atom_site_fract_y
_atom_site_fract_z
Fe1 Fe 0.496170(17) -0.39844(5) 0.53689(5)
Fe2 Fe 0.579047(16) -0.35666(5) 0.69194(4)
Fe3 Fe 0.588834(16) -0.57668(5) 0.88648(4)
O1 O 0.60107(9) -0.3917(3) 0.5485(2)
O2 O 0.54661(10) -0.4001(3) 0.4570(2)
O3 O 0.55375(9) -0.5894(3) 0.1219(2)
O4 O 0.60622(9) -0.5482(3) 0.0317(2)
O5 O 0.57818(8) -0.6134(3) 0.7264(2)
O6 O 0.53166(8) -0.4902(3) 0.6618(2)
O7 O 0.50733(10) -1.2193(3) 0.6145(2)
O8 O 0.56410(10) -1.1520(3) 0.6716(2)
O9 O 0.64267(8) -0.4996(3) 0.8526(2)
O10 O 0.63311(9) -0.3295(3) 0.7410(2)
O11 O 0.73869(12) -0.0165(4) 0.6499(4)
O12 O 0.78539(12) 0.0209(5) 0.7583(3)
O13 O 0.58873(9) -0.8264(3) 0.8930(2)
O14 O 0.53823(8) -0.6951(2) 0.91729(19)
O15 O 0.51659(10) -1.4163(3) 0.9645(2)
O16 O 0.56342(8) -1.3744(3) 0.8564(2)
C1 C 0.60545(12) -0.4248(5) 0.3744(3)
C2 C 0.58774(13) -0.4802(4) 0.2917(3)
H1 H 0.5621 -0.5064 0.2947
C3 C 0.60826(12) -0.4971(4) 0.2034(3)
C4 C 0.64587(14) -0.4599(5) 0.1989(4)
H2 H 0.6593 -0.4705 0.1397
C5 C 0.66453(16) -0.4055(7) 0.2828(4)
H3 H 0.6903 -0.3814 0.2804
C6 C 0.64337(14) -0.3887(5) 0.3696(4)
H4 H 0.6553 -0.3520 0.4256
C7 C 0.58212(14) -0.4039(4) 0.4682(3)
C8 C 0.58709(13) -0.5506(4) 0.1110(3)
C9 C 0.52158(12) -0.7348(4) 0.6778(3)
C10 C 0.53775(12) -0.8668(4) 0.6720(3)
H5 H 0.5641 -0.8782 0.6787
C11 C 0.51419(13) -0.9831(4) 0.6559(3)
C12 C 0.47441(13) -0.9662(4) 0.6524(3)
H6 H 0.4587 -1.0434 0.6423
C13 C 0.45857(13) -0.8352(4) 0.6638(3)
H7 H 0.4321 -0.8243 0.6642
C14 C 0.48210(13) -0.7203(4) 0.6748(3)
H8 H 0.4713 -0.6318 0.6802
C15 C 0.54569(11) -0.6076(4) 0.6893(3)
C16 C 0.53042(15) -1.1291(4) 0.6462(3)
C17 C 0.69068(13) -0.3267(5) 0.8325(3)
C18 C 0.70590(14) -0.2224(5) 0.7720(4)
H9 H 0.6933 -0.1980 0.7135
C19 C 0.73975(14) -0.1540(5) 0.7979(4)
C20 C 0.75856(14) -0.1905(6) 0.8843(5)
H10 H 0.7808 -0.1436 0.9025
C21 C 0.74440(16) -0.2966(6) 0.9439(5)
H11 H 0.7574 -0.3226 1.0014
C22 C 0.71030(14) -0.3644(5) 0.9170(4)
H12 H 0.7008 -0.4359 0.9569
C23 C 0.65308(12) -0.3900(5) 0.8066(3)
C24 C 0.75541(18) -0.0388(6) 0.7288(6)
C25 C 0.52784(12) -0.9412(4) 0.9010(3)
C26 C 0.54265(11) -1.0768(4) 0.8941(3)
H13 H 0.5689 -1.0898 0.8866
C27 C 0.51874(12) -1.1912(4) 0.8984(3)
C28 C 0.47955(13) -1.1715(4) 0.9047(3)
H14 H 0.4633 -1.2484 0.9082
C29 C 0.46459(13) -1.0384(4) 0.9057(3)
H15 H 0.4382 -1.0258 0.9073
C30 C 0.48838(12) -0.9238(4) 0.9045(3)
H16 H 0.4780 -0.8343 0.9059
C31 C 0.55363(13) -0.8174(4) 0.9039(3)
C32 C 0.53462(12) -1.3397(4) 0.9053(3)
Fe1_2 Fe 0.496170(17) -1.39844(5) 0.53689(5)
Fe1A Fe 0.503830(17) -1.60156(5) 1.03689(5)
Fe1A_2 Fe 0.503830(17) -0.60156(5) 0.03689(5)
Fe1A_3 Fe 0.503830(17) -0.60156(5) 1.03689(5)
Fe2_2 Fe 0.579047(16) -1.35666(5) 0.69194(4)
Fe3_2 Fe 0.588834(16) -1.57668(5) 0.88648(4)
Fe3_3 Fe 0.588834(16) -0.57668(5) -0.11352(4)
O3A O 0.44625(9) -0.4106(3) 0.6219(2)
O4_2 O 0.60622(9) -0.5482(3) 1.0317(2)
O7_2 O 0.50733(10) -0.2193(3) 0.6145(2)
O8_2 O 0.56410(10) -0.1520(3) 0.6716(2)
O14A O 0.46177(8) -0.3049(2) 0.41729(19)
O15A O 0.48341(10) -0.5837(3) 0.4645(2)
O16_2 O 0.56342(8) -0.3744(3) 0.8564(2)
N1 N 0.83270(14) 0.0465(5) 0.5988(4)
H17 H 0.8080 0.0448 0.6569
C33 C 0.83804(19) -0.1099(6) 0.5926(5)
H18 H 0.8458 -0.1444 0.6573
H19 H 0.8136 -0.1527 0.5763
C34 C 0.8664(2) -0.1537(7) 0.5191(5)
H20 H 0.8689 -0.2537 0.5204
H21 H 0.8907 -0.1117 0.5343
H22 H 0.8583 -0.1245 0.4541
C35 C 0.8150(2) 0.0998(9) 0.5039(6)
H23 H 0.8340 0.0962 0.4513
H24 H 0.7940 0.0387 0.4852
C36 C 0.8005(3) 0.2446(9) 0.5128(8)
H25 H 0.7908 0.2750 0.4497
H26 H 0.8210 0.3052 0.5332
H27 H 0.7803 0.2475 0.5613
C37 C 0.8664(2) 0.1261(7) 0.6312(6)
H28 H 0.8793 0.1877 0.5895
C38 C 0.8779(2) 0.1018(8) 0.7328(6)
H29 H 0.9007 0.1545 0.7469
H30 H 0.8830 0.0040 0.7422
H31 H 0.8578 0.1307 0.7768
H32 H 0.7051 0.1061 0.6177
N2 N 0.67516(18) 0.1367(8) 0.6115(6)
C39 C 0.6842(4) 0.1991(9) 0.5171(11)
H33 H 0.6901 0.1271 0.4688
H34 H 0.7063 0.2601 0.5236
C40 C 0.6500(8) 0.2813(16) 0.4842(13)
H35 H 0.6552 0.3242 0.4212
H36 H 0.6444 0.3524 0.5324
H37 H 0.6283 0.2199 0.4778
C41 C 0.6700(4) 0.2428(15) 0.6909(11)
H38 H 0.6620 0.1972 0.7519
H39 H 0.6502 0.3085 0.6717
C42 C 0.7084(3) 0.3224(12) 0.7085(12)
H40 H 0.7050 0.3909 0.7599
H41 H 0.7161 0.3682 0.6482
H42 H 0.7279 0.2571 0.7283
C43 C 0.6411(3) 0.0323(11) 0.6134(10)
H43 H 0.6409 -0.0181 0.6760
H44 H 0.6171 0.0829 0.6075
C44 C 0.6452(2) -0.0709(9) 0.5270(7)
H45 H 0.6242 -0.1357 0.5279
H46 H 0.6689 -0.1211 0.5335
H47 H 0.6452 -0.0205 0.4653
loop_
_geom_bond_atom_site_label_1
_geom_bond_atom_site_label_2
_geom_bond_site_symmetry_1
_geom_bond_site_symmetry_2
Fe1 O2 1_555 1_555
Fe2 O1 1_555 1_555
Fe3 O5 1_555 1_555
O1 C7 1_555 1_555
O2 C7 1_555 1_555
O3 C8 1_555 1_555
O4 C8 1_555 1_555
O5 C15 1_555 1_555
O6 Fe1 1_555 1_555
O7 C16 1_555 1_555
O8 C16 1_555 1_555
O9 Fe3 1_555 1_555
O10 Fe2 1_555 1_555
O11 C24 1_555 1_555
O12 C24 1_555 1_555
O13 Fe3 1_555 1_555
O14 Fe3 1_555 1_555
O15 C32 1_555 1_555
O16 C32 1_555 1_555
C1 C2 1_555 1_555
C2 H1 1_555 1_555
C3 C2 1_555 1_555
C4 C3 1_555 1_555
H2 C4 1_555 1_555
C5 C4 1_555 1_555
H3 C5 1_555 1_555
C6 C1 1_555 1_555
H4 C6 1_555 1_555
C7 C1 1_555 1_555
C8 C3 1_555 1_555
C9 C10 1_555 1_555
C10 H5 1_555 1_555
C11 C10 1_555 1_555
C12 C11 1_555 1_555
H6 C12 1_555 1_555
C13 C12 1_555 1_555
H7 C13 1_555 1_555
C14 C9 1_555 1_555
H8 C14 1_555 1_555
C15 O6 1_555 1_555
C16 C11 1_555 1_555
C17 C18 1_555 1_555
C18 H9 1_555 1_555
C19 C18 1_555 1_555
C20 C19 1_555 1_555
H10 C20 1_555 1_555
C21 C20 1_555 1_555
H11 C21 1_555 1_555
C22 C17 1_555 1_555
H12 C22 1_555 1_555
C23 O9 1_555 1_555
C24 C19 1_555 1_555
C25 C26 1_555 1_555
C26 H13 1_555 1_555
C27 C26 1_555 1_555
C28 C27 1_555 1_555
H14 C28 1_555 1_555
C29 C28 1_555 1_555
H15 C29 1_555 1_555
C30 C25 1_555 1_555
H16 C30 1_555 1_555
C31 O13 1_555 1_555
C32 C27 1_555 1_555
N1 H17 1_555 1_555
C33 N1 1_555 1_555
H18 C33 1_555 1_555
H19 C33 1_555 1_555
C34 C33 1_555 1_555
H20 C34 1_555 1_555
H21 C34 1_555 1_555
H22 C34 1_555 1_555
C35 N1 1_555 1_555
H23 C35 1_555 1_555
H24 C35 1_555 1_555
C36 C35 1_555 1_555
H25 C36 1_555 1_555
H26 C36 1_555 1_555
H27 C36 1_555 1_555
C37 N1 1_555 1_555
H28 C37 1_555 1_555
C38 C37 1_555 1_555
H29 C38 1_555 1_555
H30 C38 1_555 1_555
H31 C38 1_555 1_555
H32 N2 1_555 1_555
N2 C39 1_555 1_555
C39 H33 1_555 1_555
H34 C39 1_555 1_555
C40 C39 1_555 1_555
H35 C40 1_555 1_555
H36 C40 1_555 1_555
H37 C40 1_555 1_555
C41 N2 1_555 1_555
H38 C41 1_555 1_555
H39 C41 1_555 1_555
C42 C41 1_555 1_555
H40 C42 1_555 1_555
H41 C42 1_555 1_555
H42 C42 1_555 1_555
C43 N2 1_555 1_555
H43 C43 1_555 1_555
H44 C43 1_555 1_555
C44 C43 1_555 1_555
H45 C44 1_555 1_555
H46 C44 1_555 1_555
H47 C44 1_555 1_555
Fe1_2 O7 1_555 1_555
Fe1A O15 1_555 1_555
Fe1A_2 O3 1_555 1_555
Fe1A_3 O14 1_555 1_555
Fe2_2 O8 1_555 1_555
Fe3_2 O16 1_555 1_555
Fe3_3 O4 1_555 1_555
O3A Fe1 1_555 1_555
O4_2 Fe3 1_555 1_555
O7_2 Fe1 1_555 1_555
O8_2 Fe2 1_555 1_555
O14A Fe1 1_555 1_555
O15A Fe1 1_555 1_555
O16_2 Fe2 1_555 1_555
Fe2 O6 1_555 1_555
Fe3 O16_2 1_555 1_555
O10 C23 1_555 1_555
O14 C31 1_555 1_555
O16 Fe2_2 1_555 1_555
C5 C6 1_555 1_555
C9 C15 1_555 1_555
C13 C14 1_555 1_555
C17 C23 1_555 1_555
C21 C22 1_555 1_555
C25 C31 1_555 1_555
C29 C30 1_555 1_555

#END
