
#######################################################################
#
#                 Cambridge Crystallographic Data Centre
#                                CCDC 
#
#######################################################################
#
# If this CIF has been generated from an entry in the Cambridge 
# Structural Database, then it will include bibliographic, chemical, 
# crystal, experimental, refinement or atomic coordinate data resulting 
# from the CCDC's data processing and validation procedures.
#
#######################################################################

data_WIMWEW
_symmetry_cell_setting           orthorhombic
_symmetry_space_group_name_H-M   'P b c a'
_symmetry_Int_Tables_number      61
_space_group_name_Hall           '-P 2ac 2ab'
loop_
_symmetry_equiv_pos_site_id
_symmetry_equiv_pos_as_xyz
1 x,y,z
2 1/2-x,-y,1/2+z
3 -x,1/2+y,1/2-z
4 1/2+x,1/2-y,-z
5 -x,-y,-z
6 1/2+x,y,1/2-z
7 x,1/2-y,1/2+z
8 1/2-x,1/2+y,z
_cell_length_a                   13.9335(6)
_cell_length_b                   14.1020(6)
_cell_length_c                   24.5722(11)
_cell_angle_alpha                90
_cell_angle_beta                 90
_cell_angle_gamma                90
_cell_volume                     4828.2
loop_
_atom_site_label
_atom_site_type_symbol
_atom_site_fract_x
_atom_site_fract_y
_atom_site_fract_z
Co1 Co 0.43012(4) 0.09594(4) 0.62672(2)
Co2 Co 0.5000 0.0000 0.5000
O1 O 0.3039(2) 0.1573(3) 0.59249(13)
O2 O 0.3811(2) 0.0538(2) 0.54455(11)
O3 O 0.0860(2) 0.3821(2) 0.48295(13)
O4 O 0.0384(3) 0.3315(3) 0.40122(14)
O5 O 0.4675(3) -0.0369(2) 0.64380(12)
O6 O 0.5411(2) -0.0745(2) 0.56599(12)
O7 O 0.5589(3) -0.2245(3) 0.80657(13)
O8 O 0.5854(3) -0.3779(2) 0.79436(13)
C1 C 0.2507(3) 0.1325(3) 0.50050(16)
C2 C 0.1969(3) 0.2153(3) 0.49686(17)
H1 H 0.1968 0.2582 0.5256
C3 C 0.1434(3) 0.2344(3) 0.45045(17)
C4 C 0.1429(4) 0.1688(3) 0.40796(19)
H2 H 0.1075 0.1812 0.3766
C5 C 0.1946(4) 0.0860(3) 0.4122(2)
H3 H 0.1926 0.0421 0.3840
C6 C 0.2494(3) 0.0673(3) 0.45792(19)
H4 H 0.2851 0.0117 0.4602
C7 C 0.3151(3) 0.1146(3) 0.54806(16)
C8 C 0.0847(3) 0.3242(3) 0.44506(17)
C9 C 0.5529(4) -0.1814(3) 0.63812(17)
C10 C 0.5467(3) -0.1972(3) 0.69384(15)
H5 H 0.5190 -0.1515 0.7161
C11 C 0.5815(4) -0.2802(3) 0.71656(17)
C12 C 0.6222(6) -0.3484(4) 0.6833(2)
H6 H 0.6453 -0.4045 0.6982
C13 C 0.6287(8) -0.3327(5) 0.6275(2)
H7 H 0.6555 -0.3789 0.6052
C14 C 0.5955(6) -0.2489(4) 0.6049(2)
H8 H 0.6017 -0.2379 0.5678
C15 C 0.5173(3) -0.0906(3) 0.61367(16)
C16 C 0.5748(3) -0.2940(3) 0.77724(17)
Co1D Co 0.56988(4) -0.09594(4) 0.37328(2)
O1D O 0.6961(2) -0.1573(3) 0.40751(13)
O2D O 0.6189(2) -0.0538(2) 0.45545(11)
O3D O 0.9140(2) -0.3821(2) 0.51705(13)
O4D O 0.9616(3) -0.3315(3) 0.59878(14)
O5D O 0.5325(3) 0.0369(2) 0.35620(12)
O6D O 0.4589(2) 0.0745(2) 0.43401(12)
O7D O 0.4411(3) 0.2245(3) 0.19343(13)
O8D O 0.4146(3) 0.3779(2) 0.20564(13)
C1D C 0.7493(3) -0.1325(3) 0.49950(16)
C2D C 0.8031(3) -0.2153(3) 0.50314(17)
H1D H 0.8032 -0.2582 0.4744
C3D C 0.8566(3) -0.2344(3) 0.54955(17)
C4D C 0.8571(4) -0.1688(3) 0.59204(19)
H2D H 0.8925 -0.1812 0.6234
C5D C 0.8054(4) -0.0860(3) 0.5878(2)
H3D H 0.8074 -0.0421 0.6160
C6D C 0.7506(3) -0.0673(3) 0.54208(19)
H4D H 0.7149 -0.0117 0.5398
C7D C 0.6849(3) -0.1146(3) 0.45194(16)
C8D C 0.9153(3) -0.3242(3) 0.55494(17)
C9D C 0.4471(4) 0.1814(3) 0.36188(17)
C10D C 0.4533(3) 0.1972(3) 0.30616(15)
H5D H 0.4810 0.1515 0.2839
C11D C 0.4185(4) 0.2802(3) 0.28344(17)
C12D C 0.3778(6) 0.3484(4) 0.3167(2)
H6D H 0.3547 0.4045 0.3018
C13D C 0.3713(8) 0.3327(5) 0.3725(2)
H7D H 0.3445 0.3789 0.3948
C14D C 0.4045(6) 0.2489(4) 0.3951(2)
H8D H 0.3983 0.2379 0.4322
C15D C 0.4827(3) 0.0906(3) 0.38633(16)
C16D C 0.4252(3) 0.2940(3) 0.22276(17)
Co1B Co 0.56988(4) -0.40406(4) 0.87328(2)
Co1C Co -0.06988(4) 0.40406(4) 0.37328(2)
Co1F Co 0.43012(4) 0.40406(4) 0.12672(2)
Co1G Co 1.06988(4) -0.40406(4) 0.62672(2)
Co2C Co 0.0000 0.5000 0.5000
Co2C_2 Co 1.0000 -0.5000 0.5000
O3C O 0.5860(2) 0.1179(2) 0.51705(13)
O3G O 0.4140(2) -0.1179(2) 0.48295(13)
O4C O 0.5384(3) 0.1685(3) 0.59878(14)
O4G O 0.4616(3) -0.1685(3) 0.40122(14)
O8B O 0.4146(3) 0.1221(2) 0.70564(13)
O8F O 0.5854(3) -0.1221(2) 0.29436(13)
N1 N 0.8452(10) 0.0642(10) 0.3244(5)
H9 H 0.8754 0.1201 0.3175
C17 C 0.8917(15) -0.0101(13) 0.2833(8)
H10 H 0.8841 0.0105 0.2459
H11 H 0.9594 -0.0190 0.2909
C18 C 0.7183(15) 0.1195(14) 0.2703(8)
H12 H 0.6512 0.1340 0.2730
H13 H 0.7276 0.0699 0.2441
H14 H 0.7528 0.1751 0.2590
C19 C 0.8700(12) 0.0916(11) 0.4191(7)
H15 H 0.8962 0.0706 0.4532
H16 H 0.8015 0.0970 0.4222
H17 H 0.8968 0.1522 0.4099
C20 C 0.758(2) 0.085(2) 0.3294(10)
H18 H 0.7503 0.1351 0.3560
H19 H 0.7222 0.0300 0.3418
C21 C 0.836(2) -0.100(2) 0.2940(12)
H20 H 0.8579 -0.1487 0.2700
H21 H 0.7689 -0.0881 0.2877
H22 H 0.8454 -0.1189 0.3310
C22 C 0.893(2) 0.025(2) 0.3779(11)
H23 H 0.8675 -0.0371 0.3869
H24 H 0.9620 0.0198 0.3735
loop_
_geom_bond_atom_site_label_1
_geom_bond_atom_site_label_2
_geom_bond_site_symmetry_1
_geom_bond_site_symmetry_2
Co1 O1 1_555 1_555
Co2 O2 1_555 1_555
O1 C7 1_555 1_555
O2 Co1 1_555 1_555
O3 C8 1_555 1_555
O4 C8 1_555 1_555
O5 Co1 1_555 1_555
O6 Co2 1_555 1_555
O7 C16 1_555 1_555
O8 C16 1_555 1_555
C1 C2 1_555 1_555
C2 H1 1_555 1_555
C3 C2 1_555 1_555
C4 C3 1_555 1_555
H2 C4 1_555 1_555
C5 C4 1_555 1_555
H3 C5 1_555 1_555
C6 C1 1_555 1_555
H4 C6 1_555 1_555
C7 O2 1_555 1_555
C8 C3 1_555 1_555
C9 C10 1_555 1_555
C10 H5 1_555 1_555
C11 C10 1_555 1_555
C12 C11 1_555 1_555
H6 C12 1_555 1_555
C13 C12 1_555 1_555
H7 C13 1_555 1_555
C14 C9 1_555 1_555
H8 C14 1_555 1_555
C15 O5 1_555 1_555
C16 C11 1_555 1_555
N1 H9 1_555 1_555
C17 N1 1_555 1_555
H10 C17 1_555 1_555
H11 C17 1_555 1_555
C18 H12 1_555 1_555
H13 C18 1_555 1_555
H14 C18 1_555 1_555
C19 H15 1_555 1_555
H16 C19 1_555 1_555
H17 C19 1_555 1_555
C20 N1 1_555 1_555
H18 C20 1_555 1_555
H19 C20 1_555 1_555
C21 C17 1_555 1_555
H20 C21 1_555 1_555
H21 C21 1_555 1_555
H22 C21 1_555 1_555
C22 N1 1_555 1_555
H23 C22 1_555 1_555
H24 C22 1_555 1_555
Co1D O1D 1_555 1_555
O1D C7D 1_555 1_555
O2D Co2 1_555 1_555
O3D C8D 1_555 1_555
O4D C8D 1_555 1_555
O5D Co1D 1_555 1_555
O6D Co2 1_555 1_555
O7D C16D 1_555 1_555
O8D C16D 1_555 1_555
C1D C2D 1_555 1_555
C2D H1D 1_555 1_555
C3D C2D 1_555 1_555
C4D C3D 1_555 1_555
H2D C4D 1_555 1_555
C5D C4D 1_555 1_555
H3D C5D 1_555 1_555
C6D C1D 1_555 1_555
H4D C6D 1_555 1_555
C7D O2D 1_555 1_555
C8D C3D 1_555 1_555
C9D C10D 1_555 1_555
C10D H5D 1_555 1_555
C11D C10D 1_555 1_555
C12D C11D 1_555 1_555
H6D C12D 1_555 1_555
C13D C12D 1_555 1_555
H7D C13D 1_555 1_555
C14D C9D 1_555 1_555
H8D C14D 1_555 1_555
C15D O5D 1_555 1_555
C16D C11D 1_555 1_555
Co1B O8 1_555 1_555
Co1C O4 1_555 1_555
Co1F O8D 1_555 1_555
Co1G O4D 1_555 1_555
Co2C O3 1_555 1_555
Co2C_2 O3D 1_555 1_555
O3C Co2 1_555 1_555
O3G Co2 1_555 1_555
O4C Co1 1_555 1_555
O4G Co1D 1_555 1_555
O8B Co1 1_555 1_555
O8F Co1D 1_555 1_555
O6 C15 1_555 1_555
C1 C7 1_555 1_555
C5 C6 1_555 1_555
C9 C15 1_555 1_555
C13 C14 1_555 1_555
C18 C20 1_555 1_555
C19 C22 1_555 1_555
Co1D O2D 1_555 1_555
O6D C15D 1_555 1_555
C1D C7D 1_555 1_555
C5D C6D 1_555 1_555
C9D C15D 1_555 1_555
C13D C14D 1_555 1_555

#END
