
#######################################################################
#
#                 Cambridge Crystallographic Data Centre
#                                CCDC 
#
#######################################################################
#
# If this CIF has been generated from an entry in the Cambridge 
# Structural Database, then it will include bibliographic, chemical, 
# crystal, experimental, refinement or atomic coordinate data resulting 
# from the CCDC's data processing and validation procedures.
#
#######################################################################

data_WIMXAT
_symmetry_cell_setting           orthorhombic
_symmetry_space_group_name_H-M   'P b c a'
_symmetry_Int_Tables_number      61
_space_group_name_Hall           '-P 2ac 2ab'
loop_
_symmetry_equiv_pos_site_id
_symmetry_equiv_pos_as_xyz
1 x,y,z
2 1/2-x,-y,1/2+z
3 -x,1/2+y,1/2-z
4 1/2+x,1/2-y,-z
5 -x,-y,-z
6 1/2+x,y,1/2-z
7 x,1/2-y,1/2+z
8 1/2-x,1/2+y,z
_cell_length_a                   13.6934(5)
_cell_length_b                   15.0491(6)
_cell_length_c                   15.9793(6)
_cell_angle_alpha                90
_cell_angle_beta                 90
_cell_angle_gamma                90
_cell_volume                     3292.91
loop_
_atom_site_label
_atom_site_type_symbol
_atom_site_fract_x
_atom_site_fract_y
_atom_site_fract_z
Zn1 Zn 0.51984(2) 0.38490(2) 0.56147(2)
Cl1 Cl 0.52236(8) 0.42548(7) 0.69438(6)
O1 O 0.58700(14) 0.27273(13) 0.53878(13)
O2 O 0.46096(15) 0.20699(15) 0.59869(15)
O3 O 0.89054(14) -0.03970(14) 0.49349(13)
O4 O 0.89060(13) 0.10802(13) 0.49112(13)
C1 C 0.5987(2) 0.11855(18) 0.56390(17)
C2 C 0.69477(19) 0.11588(18) 0.53644(17)
H1 H 0.7253 0.1681 0.5196
C3 C 0.7461(2) 0.03636(18) 0.53379(17)
C4 C 0.7001(2) -0.0414(2) 0.5588(2)
H2 H 0.7337 -0.0951 0.5570
C5 C 0.6049(3) -0.0392(2) 0.5860(3)
H3 H 0.5740 -0.0915 0.6021
C6 C 0.5554(2) 0.0404(2) 0.5895(2)
H4 H 0.4916 0.0414 0.6095
C7 C 0.5444(2) 0.2048(2) 0.56784(19)
C8 C 0.8500(2) 0.0343(2) 0.50478(17)
Zn1C Zn 1.01984(2) 0.11510(2) 0.43853(2)
Zn1G Zn 0.98016(2) -0.11510(2) 0.56147(2)
O3G O 0.60946(14) 0.46030(14) 0.49349(13)
O4C O 0.39060(13) 0.39198(13) 0.50888(13)
N1 N 0.3279(2) 0.1935(2) 0.72406(19)
H5 H 0.3733 0.2109 0.6859
C9 C 0.2716(5) 0.1164(5) 0.6832(6)
H6 H 0.2392 0.1426 0.6351
H7 H 0.3216 0.0776 0.6606
C10 C 0.2135(7) 0.0684(5) 0.7125(6)
H8 H 0.1924 0.0264 0.6711
H9 H 0.1584 0.1023 0.7317
H10 H 0.2420 0.0372 0.7589
C11 C 0.2677(4) 0.2717(4) 0.7407(4)
H11 H 0.2120 0.2526 0.7736
H12 H 0.3055 0.3118 0.7754
C12 C 0.2328(5) 0.3198(5) 0.6739(4)
H13 H 0.1963 0.3699 0.6941
H14 H 0.1911 0.2828 0.6405
H15 H 0.2866 0.3403 0.6405
C13 C 0.3819(4) 0.1654(6) 0.7972(4)
H16 H 0.3376 0.1708 0.8444
H17 H 0.3947 0.1025 0.7902
C14 C 0.4680(4) 0.2033(4) 0.8216(3)
H18 H 0.4905 0.1753 0.8719
H19 H 0.4581 0.2656 0.8316
H20 H 0.5158 0.1957 0.7782
loop_
_geom_bond_atom_site_label_1
_geom_bond_atom_site_label_2
_geom_bond_site_symmetry_1
_geom_bond_site_symmetry_2
Zn1 Cl1 1_555 1_555
O1 Zn1 1_555 1_555
O2 C7 1_555 1_555
O3 C8 1_555 1_555
O4 C8 1_555 1_555
C1 C2 1_555 1_555
C2 H1 1_555 1_555
C3 C2 1_555 1_555
C4 C3 1_555 1_555
H2 C4 1_555 1_555
C5 C4 1_555 1_555
H3 C5 1_555 1_555
C6 C1 1_555 1_555
H4 C6 1_555 1_555
C7 O1 1_555 1_555
C8 C3 1_555 1_555
N1 H5 1_555 1_555
C9 N1 1_555 1_555
H6 C9 1_555 1_555
H7 C9 1_555 1_555
C10 C9 1_555 1_555
H8 C10 1_555 1_555
H9 C10 1_555 1_555
H10 C10 1_555 1_555
C11 N1 1_555 1_555
H11 C11 1_555 1_555
H12 C11 1_555 1_555
C12 C11 1_555 1_555
H13 C12 1_555 1_555
H14 C12 1_555 1_555
H15 C12 1_555 1_555
C13 N1 1_555 1_555
H16 C13 1_555 1_555
H17 C13 1_555 1_555
C14 C13 1_555 1_555
H18 C14 1_555 1_555
H19 C14 1_555 1_555
H20 C14 1_555 1_555
Zn1C O4 1_555 1_555
Zn1G O3 1_555 1_555
O3G Zn1 1_555 1_555
O4C Zn1 1_555 1_555
C1 C7 1_555 1_555
C5 C6 1_555 1_555

#END
