
#######################################################################
#
#                 Cambridge Crystallographic Data Centre
#                                CCDC 
#
#######################################################################
#
# If this CIF has been generated from an entry in the Cambridge 
# Structural Database, then it will include bibliographic, chemical, 
# crystal, experimental, refinement or atomic coordinate data resulting 
# from the CCDC's data processing and validation procedures.
#
#######################################################################

data_WIMXIB
_symmetry_cell_setting           monoclinic
_symmetry_space_group_name_H-M   'P 21/n'
_symmetry_Int_Tables_number      14
_space_group_name_Hall           '-P 2yn'
loop_
_symmetry_equiv_pos_site_id
_symmetry_equiv_pos_as_xyz
1 x,y,z
2 1/2-x,1/2+y,1/2-z
3 -x,-y,-z
4 1/2+x,1/2-y,1/2+z
_cell_length_a                   12.842(3)
_cell_length_b                   10.050(2)
_cell_length_c                   17.404(4)
_cell_angle_alpha                90
_cell_angle_beta                 109.48(3)
_cell_angle_gamma                90
_cell_volume                     2117.62
loop_
_atom_site_label
_atom_site_type_symbol
_atom_site_fract_x
_atom_site_fract_y
_atom_site_fract_z
Co1 Co 0.5000 1.0000 0.0000
Co2 Co 0.30655(5) 0.93464(7) 0.07437(3)
O1 O 0.2239(3) 1.0608(4) -0.0116(2)
O2 O 0.3645(3) 1.1082(5) -0.0560(3)
O3 O 0.0096(5) 1.4259(5) -0.3896(3)
O4 O -0.1126(3) 1.4616(4) -0.3273(2)
O5 O 0.4006(3) 0.8340(3) 0.0226(2)
O6 O 0.4556(5) 0.7404(5) 0.1451(3)
Cl1 Cl 0.17095(13) 0.80004(18) 0.08715(11)
C1 C 0.1908(4) 1.1982(6) -0.1267(3)
C2 C 0.0814(4) 1.2193(6) -0.1336(3)
H1 H 0.0547 1.1855 -0.0941
C3 C 0.0111(4) 1.2905(6) -0.1989(3)
H2 H -0.0624 1.3032 -0.2033
C4 C 0.0513(4) 1.3423(6) -0.2573(3)
C5 C 0.1607(5) 1.3247(8) -0.2504(4)
H3 H 0.1874 1.3600 -0.2897
C6 C 0.2315(5) 1.2539(7) -0.1844(4)
H4 H 0.3056 1.2440 -0.1790
C7 C 0.2659(4) 1.1171(6) -0.0595(3)
C8 C -0.0222(5) 1.4159(6) -0.3295(3)
C9 C 0.5116(6) 0.5032(6) 0.0819(4)
H5 H 0.5197 0.5049 0.1370
C10 C 0.4751(5) 0.6157(5) 0.0347(3)
C11 C 0.4638(6) 0.6124(6) -0.0474(4)
H6 H 0.4397 0.6877 -0.0795
C12 C 0.4445(4) 0.7372(5) 0.0712(3)
O5B O 0.5994(3) 0.1660(3) -0.0226(2)
O6B O 0.5444(5) 0.2596(5) -0.1451(3)
C9B C 0.4884(6) 0.4968(6) -0.0819(4)
H5B H 0.4803 0.4951 -0.1370
C10B C 0.5249(5) 0.3843(5) -0.0347(3)
C11B C 0.5362(6) 0.3876(6) 0.0474(4)
H6B H 0.5603 0.3123 0.0795
C12B C 0.5555(4) 0.2628(5) -0.0712(3)
Co2B Co 0.69345(5) 0.06536(7) -0.07437(3)
O1B O 0.7761(3) -0.0608(4) 0.0116(2)
O2B O 0.6355(3) -0.1082(5) 0.0560(3)
O3B O 0.9904(5) -0.4259(5) 0.3896(3)
O4B O 1.1126(3) -0.4616(4) 0.3273(2)
Cl1B Cl 0.82905(13) 0.19996(18) -0.08715(11)
C1B C 0.8092(4) -0.1982(6) 0.1267(3)
C2B C 0.9186(4) -0.2193(6) 0.1336(3)
H1B H 0.9453 -0.1855 0.0941
C3B C 0.9889(4) -0.2905(6) 0.1989(3)
H2B H 1.0624 -0.3032 0.2033
C4B C 0.9487(4) -0.3423(6) 0.2573(3)
C5B C 0.8393(5) -0.3247(8) 0.2504(4)
H3B H 0.8126 -0.3600 0.2897
C6B C 0.7685(5) -0.2539(7) 0.1844(4)
H4B H 0.6944 -0.2440 0.1790
C7B C 0.7341(4) -0.1171(6) 0.0595(3)
C8B C 1.0222(5) -0.4159(6) 0.3295(3)
Co1_2 Co 0.5000 0.0000 0.0000
Co1A Co 0.0000 1.5000 -0.5000
Co1A_2 Co 1.0000 -0.5000 0.5000
Co2A Co 1.19345(5) -0.56536(7) 0.42563(3)
Co2C Co -0.19345(5) 1.56536(7) -0.42563(3)
O2B_2 O 0.6355(3) 0.8918(5) 0.0560(3)
O3A O 0.4904(5) 0.9259(5) -0.1104(3)
O3C O 0.5096(5) 1.0741(5) 0.1104(3)
O4A O 0.6126(3) -0.0384(4) -0.1727(2)
O4C O 0.3874(3) 1.0384(4) 0.1727(2)
O5B_2 O 0.5994(3) 1.1660(3) -0.0226(2)
N1 N 0.0650 0.2557 0.1902
H7 H 0.0525 0.2614 0.2386
C13 C 0.127(3) 0.367(2) 0.171(2)
H8 H 0.2021 0.3666 0.2098
H9 H 0.0931 0.4503 0.1775
C14 C 0.132(2) 0.358(3) 0.0798(14)
H10 H 0.1845 0.4217 0.0734
H11 H 0.0605 0.3766 0.0413
H12 H 0.1547 0.2700 0.0703
C15 C -0.0270(18) 0.290(3) 0.1188(13)
H13 H -0.0351 0.2239 0.0766
H14 H -0.0134 0.3756 0.0979
C16 C -0.1334(18) 0.297(3) 0.1405(9)
H15 H -0.1956 0.3093 0.0917
H16 H -0.1289 0.3705 0.1768
H17 H -0.1422 0.2158 0.1667
C17 C 0.061(3) 0.110(2) 0.154(3)
H18 H -0.0085 0.0639 0.1451
H19 H 0.0818 0.1060 0.1049
C18 C 0.1495(18) 0.069(3) 0.2281(16)
H20 H 0.1760 -0.0175 0.2203
H21 H 0.1213 0.0660 0.2727
H22 H 0.2090 0.1320 0.2400
loop_
_geom_bond_atom_site_label_1
_geom_bond_atom_site_label_2
_geom_bond_site_symmetry_1
_geom_bond_site_symmetry_2
Co1 O2 1_555 1_555
Co2 O1 1_555 1_555
O1 C7 1_555 1_555
O2 C7 1_555 1_555
O3 C8 1_555 1_555
O4 C8 1_555 1_555
O5 Co1 1_555 1_555
O6 C12 1_555 1_555
Cl1 Co2 1_555 1_555
C1 C2 1_555 1_555
C2 H1 1_555 1_555
C3 C2 1_555 1_555
H2 C3 1_555 1_555
C4 C3 1_555 1_555
C5 C4 1_555 1_555
H3 C5 1_555 1_555
C6 C1 1_555 1_555
H4 C6 1_555 1_555
C7 C1 1_555 1_555
C8 C4 1_555 1_555
C9 H5 1_555 1_555
C10 C9 1_555 1_555
C11 C10 1_555 1_555
H6 C11 1_555 1_555
C12 O5 1_555 1_555
N1 H7 1_555 1_555
C13 N1 1_555 1_555
H8 C13 1_555 1_555
H9 C13 1_555 1_555
C14 C13 1_555 1_555
H10 C14 1_555 1_555
H11 C14 1_555 1_555
H12 C14 1_555 1_555
C15 N1 1_555 1_555
H13 C15 1_555 1_555
H14 C15 1_555 1_555
C16 C15 1_555 1_555
H15 C16 1_555 1_555
H16 C16 1_555 1_555
H17 C16 1_555 1_555
C17 N1 1_555 1_555
H18 C17 1_555 1_555
H19 C17 1_555 1_555
C18 C17 1_555 1_555
H20 C18 1_555 1_555
H21 C18 1_555 1_555
H22 C18 1_555 1_555
O5B C12B 1_555 1_555
O6B C12B 1_555 1_555
C9B C11 1_555 1_555
H5B C9B 1_555 1_555
C10B C9B 1_555 1_555
C11B C9 1_555 1_555
H6B C11B 1_555 1_555
C12B C10B 1_555 1_555
Co2B O5B 1_555 1_555
O1B Co2B 1_555 1_555
O2B C7B 1_555 1_555
O3B C8B 1_555 1_555
O4B C8B 1_555 1_555
Cl1B Co2B 1_555 1_555
C1B C2B 1_555 1_555
C2B H1B 1_555 1_555
C3B C2B 1_555 1_555
H2B C3B 1_555 1_555
C4B C3B 1_555 1_555
C5B C4B 1_555 1_555
H3B C5B 1_555 1_555
C6B C1B 1_555 1_555
H4B C6B 1_555 1_555
C7B O1B 1_555 1_555
C8B C4B 1_555 1_555
Co1_2 O5B 1_555 1_555
Co1A O3 1_555 1_555
Co1A_2 O3B 1_555 1_555
Co2A O4B 1_555 1_555
Co2C O4 1_555 1_555
O2B_2 Co1 1_555 1_555
O3A Co1 1_555 1_555
O3C Co1 1_555 1_555
O4A Co2B 1_555 1_555
O4C Co2 1_555 1_555
O5B_2 Co1 1_555 1_555
Co2 O5 1_555 1_555
C5 C6 1_555 1_555
C10 C12 1_555 1_555
C10B C11B 1_555 1_555
O2B Co1_2 1_555 1_555
C1B C7B 1_555 1_555
C5B C6B 1_555 1_555

#END
