
#######################################################################
#
#                 Cambridge Crystallographic Data Centre
#                                CCDC 
#
#######################################################################
#
# If this CIF has been generated from an entry in the Cambridge 
# Structural Database, then it will include bibliographic, chemical, 
# crystal, experimental, refinement or atomic coordinate data resulting 
# from the CCDC's data processing and validation procedures.
#
#######################################################################

data_WIMXEX
_symmetry_cell_setting           monoclinic
_symmetry_space_group_name_H-M   'P 21/c'
_symmetry_Int_Tables_number      14
_space_group_name_Hall           '-P 2ybc'
loop_
_symmetry_equiv_pos_site_id
_symmetry_equiv_pos_as_xyz
1 x,y,z
2 -x,1/2+y,1/2-z
3 -x,-y,-z
4 x,1/2-y,1/2+z
_cell_length_a                   13.434(3)
_cell_length_b                   11.284(2)
_cell_length_c                   15.127(3)
_cell_angle_alpha                90
_cell_angle_beta                 111.01(3)
_cell_angle_gamma                90
_cell_volume                     2140.64
loop_
_atom_site_label
_atom_site_type_symbol
_atom_site_fract_x
_atom_site_fract_y
_atom_site_fract_z
Fe1 Fe 0.76716(7) 0.09936(7) 0.07018(7)
Fe2 Fe 0.5000 0.0000 0.0000
Cl1 Cl 0.93064(13) 0.19349(15) 0.08833(14)
O1 O 0.6463(3) -0.0015(4) 0.1172(3)
O2 O 0.8185(4) -0.0249(4) 0.1831(4)
O3 O 0.7531(4) -0.4868(4) 0.4632(4)
O4 O 0.5773(4) -0.4577(4) 0.4057(4)
O5 O 0.6838(4) 0.2477(4) 0.0577(4)
O6 O 0.5170(4) 0.1801(3) -0.0142(4)
C1 C 0.7104(5) -0.1514(5) 0.2376(5)
C2 C 0.7968(5) -0.2196(6) 0.2906(5)
H1 H 0.8640 -0.2039 0.2887
C3 C 0.7838(5) -0.3114(6) 0.3464(6)
H2 H 0.8421 -0.3570 0.3819
C4 C 0.6834(5) -0.3349(5) 0.3493(5)
C5 C 0.5975(5) -0.2657(6) 0.2963(6)
H3 H 0.5304 -0.2801 0.2988
C6 C 0.6107(5) -0.1759(6) 0.2402(5)
H4 H 0.5522 -0.1312 0.2037
C7 C 0.7245(5) -0.0539(5) 0.1748(5)
C8 C 0.6694(6) -0.4334(5) 0.4110(5)
C9 C 0.5835(5) 0.2604(5) 0.0181(6)
C10 C 0.5408(5) 0.3859(5) 0.0091(6)
C11 C 0.4329(6) 0.4049(6) -0.0288(7)
H5 H 0.3869 0.3404 -0.0473
C12 C 0.3907(6) 0.5195(6) -0.0402(7)
H6 H 0.3175 0.5317 -0.0682
O5B O 0.3162(4) 0.7523(4) -0.0577(4)
O6B O 0.4830(4) 0.8199(3) 0.0142(4)
C9B C 0.4165(5) 0.7396(5) -0.0181(6)
C10B C 0.4592(5) 0.6141(5) -0.0091(6)
C11B C 0.5671(6) 0.5951(6) 0.0288(7)
H5B H 0.6131 0.6596 0.0473
C12B C 0.6093(6) 0.4805(6) 0.0402(7)
H6B H 0.6825 0.4683 0.0682
Fe1B Fe 0.23284(7) -0.09936(7) -0.07018(7)
Cl1B Cl 0.06936(13) -0.19349(15) -0.08833(14)
O1B O 0.3537(3) 0.0015(4) -0.1172(3)
O2B O 0.1815(4) 0.0249(4) -0.1831(4)
O3B O 0.2469(4) 0.4868(4) -0.4632(4)
O4B O 0.4227(4) 0.4577(4) -0.4057(4)
C1B C 0.2896(5) 0.1514(5) -0.2376(5)
C2B C 0.2032(5) 0.2196(6) -0.2906(5)
H1B H 0.1360 0.2039 -0.2887
C3B C 0.2162(5) 0.3114(6) -0.3464(6)
H2B H 0.1579 0.3570 -0.3819
C4B C 0.3166(5) 0.3349(5) -0.3493(5)
C5B C 0.4025(5) 0.2657(6) -0.2963(6)
H3B H 0.4696 0.2801 -0.2988
C6B C 0.3893(5) 0.1759(6) -0.2402(5)
H4B H 0.4478 0.1312 -0.2037
C7B C 0.2755(5) 0.0539(5) -0.1748(5)
C8B C 0.3306(6) 0.4334(5) -0.4110(5)
Fe1A Fe 0.23284(7) 0.59936(7) -0.57018(7)
Fe1B_2 Fe 0.23284(7) 0.90064(7) -0.07018(7)
Fe1C Fe 0.76716(7) -0.59936(7) 0.57018(7)
Fe2_2 Fe 0.5000 1.0000 0.0000
Fe2A Fe 0.5000 -0.5000 0.5000
Fe2A_2 Fe 0.5000 0.5000 -0.5000
O3A O 0.2469(4) 0.0132(4) 0.0368(4)
O3C O 0.7531(4) -0.0132(4) -0.0368(4)
O4A O 0.4227(4) 0.0423(4) 0.0943(4)
O4C O 0.5773(4) -0.0423(4) -0.0943(4)
O5B_2 O 0.3162(4) -0.2477(4) -0.0577(4)
O6B_2 O 0.4830(4) -0.1801(3) 0.0142(4)
N1 N 1.0851(6) -0.2299(6) 0.1221(6)
H7 H 1.0757 -0.2372 0.0596
C13 C 1.2010(16) -0.2651(14) 0.1780(11)
H8 H 1.2417 -0.1921 0.1938
H9 H 1.2020 -0.2987 0.2374
C14 C 1.2540(12) -0.3371(18) 0.1446(13)
H10 H 1.3257 -0.3443 0.1890
H11 H 1.2551 -0.3069 0.0856
H12 H 1.2204 -0.4136 0.1344
C15 C 1.0082(17) -0.3069(17) 0.1387(13)
H13 H 1.0473 -0.3767 0.1699
H14 H 0.9855 -0.2669 0.1851
C16 C 0.9206(13) -0.346(2) 0.0727(13)
H15 H 0.8836 -0.3980 0.1007
H16 H 0.9389 -0.3884 0.0256
H17 H 0.8755 -0.2802 0.0437
C17 C 1.0696(8) -0.1022(7) 0.1387(7)
H18 H 1.1172 -0.0560 0.1169
H19 H 0.9972 -0.0805 0.0999
C18 C 1.0880(9) -0.0681(8) 0.2383(7)
H20 H 1.0754 0.0153 0.2412
H21 H 1.1604 -0.0859 0.2773
H22 H 1.0403 -0.1116 0.2605
loop_
_geom_bond_atom_site_label_1
_geom_bond_atom_site_label_2
_geom_bond_site_symmetry_1
_geom_bond_site_symmetry_2
Fe1 Cl1 1_555 1_555
Fe2 O1 1_555 1_555
O1 Fe1 1_555 1_555
O2 Fe1 1_555 1_555
O3 C8 1_555 1_555
O4 C8 1_555 1_555
O5 Fe1 1_555 1_555
O6 Fe2 1_555 1_555
C1 C2 1_555 1_555
C2 H1 1_555 1_555
C3 C2 1_555 1_555
H2 C3 1_555 1_555
C4 C3 1_555 1_555
C5 C4 1_555 1_555
H3 C5 1_555 1_555
C6 C1 1_555 1_555
H4 C6 1_555 1_555
C7 O1 1_555 1_555
C8 C4 1_555 1_555
C9 O5 1_555 1_555
C10 C9 1_555 1_555
C11 C10 1_555 1_555
H5 C11 1_555 1_555
C12 C11 1_555 1_555
H6 C12 1_555 1_555
N1 H7 1_555 1_555
C13 N1 1_555 1_555
H8 C13 1_555 1_555
H9 C13 1_555 1_555
C14 C13 1_555 1_555
H10 C14 1_555 1_555
H11 C14 1_555 1_555
H12 C14 1_555 1_555
C15 N1 1_555 1_555
H13 C15 1_555 1_555
H14 C15 1_555 1_555
C16 C15 1_555 1_555
H15 C16 1_555 1_555
H16 C16 1_555 1_555
H17 C16 1_555 1_555
C17 N1 1_555 1_555
H18 C17 1_555 1_555
H19 C17 1_555 1_555
C18 C17 1_555 1_555
H20 C18 1_555 1_555
H21 C18 1_555 1_555
H22 C18 1_555 1_555
O5B C9B 1_555 1_555
O6B C9B 1_555 1_555
C9B C10B 1_555 1_555
C10B C12 1_555 1_555
C11B C10B 1_555 1_555
H5B C11B 1_555 1_555
C12B C10 1_555 1_555
H6B C12B 1_555 1_555
Fe1B Cl1B 1_555 1_555
O1B Fe2 1_555 1_555
O2B Fe1B 1_555 1_555
O3B C8B 1_555 1_555
O4B C8B 1_555 1_555
C1B C2B 1_555 1_555
C2B H1B 1_555 1_555
C3B C2B 1_555 1_555
H2B C3B 1_555 1_555
C4B C3B 1_555 1_555
C5B C4B 1_555 1_555
H3B C5B 1_555 1_555
C6B C1B 1_555 1_555
H4B C6B 1_555 1_555
C7B O1B 1_555 1_555
C8B C4B 1_555 1_555
Fe1A O3B 1_555 1_555
Fe1B_2 O5B 1_555 1_555
Fe1C O3 1_555 1_555
Fe2_2 O6B 1_555 1_555
Fe2A O4 1_555 1_555
Fe2A_2 O4B 1_555 1_555
O3A Fe1B 1_555 1_555
O3C Fe1 1_555 1_555
O4A Fe2 1_555 1_555
O4C Fe2 1_555 1_555
O5B_2 Fe1B 1_555 1_555
O6B_2 Fe2 1_555 1_555
O2 C7 1_555 1_555
O6 C9 1_555 1_555
C1 C7 1_555 1_555
C5 C6 1_555 1_555
C11B C12B 1_555 1_555
Fe1B O1B 1_555 1_555
O2B C7B 1_555 1_555
C1B C7B 1_555 1_555
C5B C6B 1_555 1_555

#END
