
#######################################################################
#
#                 Cambridge Crystallographic Data Centre
#                                CCDC 
#
#######################################################################
#
# If this CIF has been generated from an entry in the Cambridge 
# Structural Database, then it will include bibliographic, chemical, 
# crystal, experimental, refinement or atomic coordinate data resulting 
# from the CCDC's data processing and validation procedures.
#
#######################################################################

data_WIMYAT
_symmetry_cell_setting           orthorhombic
_symmetry_space_group_name_H-M   'P n a 21'
_symmetry_Int_Tables_number      33
_space_group_name_Hall           'P 2c -2n'
loop_
_symmetry_equiv_pos_site_id
_symmetry_equiv_pos_as_xyz
1 x,y,z
2 -x,-y,1/2+z
3 1/2-x,1/2+y,1/2+z
4 1/2+x,1/2-y,z
_cell_length_a                   14.671(3)
_cell_length_b                   11.947(2)
_cell_length_c                   8.2025(16)
_cell_angle_alpha                90
_cell_angle_beta                 90
_cell_angle_gamma                90
_cell_volume                     1437.69
loop_
_atom_site_label
_atom_site_type_symbol
_atom_site_fract_x
_atom_site_fract_y
_atom_site_fract_z
Ag1 Ag 0.243272(14) 0.646505(19) 0.76476(5)
S1 S 0.07812(5) 0.76842(6) 1.01266(12)
Cl1 Cl 0.08916(7) 0.48754(8) 1.52741(16)
O1 O 0.08442(16) 0.7030(2) 0.8637(3)
O2 O -0.01398(14) 0.77287(18) 1.0795(3)
N1 N 0.24774(17) 0.7932(2) 0.5917(4)
C1 C 0.3268(2) 0.8382(3) 0.5426(4)
N2 N 0.28661(17) 0.7479(2) 1.0269(4)
O3 O 0.12086(18) 0.87723(19) 1.0001(4)
C2 C 0.14351(19) 0.6928(2) 1.1575(4)
C3 C 0.23964(19) 0.6899(3) 1.1469(4)
C4 C 0.1702(2) 0.8401(3) 0.5413(4)
H1 H 0.1152 0.8104 0.5772
C5 C 0.09859(17) 0.6303(2) 1.2728(6)
H2 H 0.0353 0.6322 1.2789
C6 C 0.1481(2) 0.5643(3) 1.3803(4)
C7 C 0.2415(2) 0.5588(3) 1.3718(5)
H3 H 0.2737 0.5136 1.4439
C8 C 0.28739(18) 0.6210(2) 1.2549(7)
H4 H 0.3506 0.6169 1.2485
C9 C 0.4135(2) 0.7864(3) 0.5991(6)
H5 H 0.4174 0.7917 0.7157
H6 H 0.4641 0.8250 0.5508
H7 H 0.4148 0.7091 0.5673
C10 C 0.1686(2) 0.9322(3) 0.4367(4)
N3 N 0.24766(18) 0.9781(2) 0.3873(4)
C11 C 0.0810(2) 0.9820(3) 0.3801(6)
H8 H 0.0731 1.0544 0.4291
H9 H 0.0314 0.9342 0.4113
H10 H 0.0821 0.9896 0.2636
C12 C 0.3255(2) 0.9311(3) 0.4415(4)
H11 H 0.3807 0.9624 0.4097
H12 H 0.3438(7) 0.752(2) 1.029(4)
H13 H 0.272(2) 0.8154(13) 1.015(8)
Ag1B Ag 0.256728(14) 1.146505(19) 0.26476(5)
N3B N 0.25234(18) 0.4781(2) 0.8873(4)
loop_
_geom_bond_atom_site_label_1
_geom_bond_atom_site_label_2
_geom_bond_site_symmetry_1
_geom_bond_site_symmetry_2
Ag1 O1 1_555 1_555
S1 O1 1_555 1_555
Cl1 C6 1_555 1_555
O2 S1 1_555 1_555
N1 Ag1 1_555 1_555
C1 N1 1_555 1_555
N2 Ag1 1_555 1_555
O3 S1 1_555 1_555
C2 S1 1_555 1_555
C3 N2 1_555 1_555
C4 N1 1_555 1_555
H1 C4 1_555 1_555
C5 C2 1_555 1_555
H2 C5 1_555 1_555
C6 C5 1_555 1_555
C7 C6 1_555 1_555
H3 C7 1_555 1_555
C8 C3 1_555 1_555
H4 C8 1_555 1_555
C9 C1 1_555 1_555
H5 C9 1_555 1_555
H6 C9 1_555 1_555
H7 C9 1_555 1_555
C10 C4 1_555 1_555
N3 C10 1_555 1_555
C11 C10 1_555 1_555
H8 C11 1_555 1_555
H9 C11 1_555 1_555
H10 C11 1_555 1_555
C12 C1 1_555 1_555
H11 C12 1_555 1_555
H12 N2 1_555 1_555
H13 N2 1_555 1_555
Ag1B N3 1_555 1_555
N3B Ag1 1_555 1_555
C2 C3 1_555 1_555
C7 C8 1_555 1_555
N3 C12 1_555 1_555

#END
