
#######################################################################
#
#                 Cambridge Crystallographic Data Centre
#                                CCDC 
#
#######################################################################
#
# If this CIF has been generated from an entry in the Cambridge 
# Structural Database, then it will include bibliographic, chemical, 
# crystal, experimental, refinement or atomic coordinate data resulting 
# from the CCDC's data processing and validation procedures.
#
#######################################################################

data_WIMYUN
_symmetry_cell_setting           monoclinic
_symmetry_space_group_name_H-M   'P 21/n'
_symmetry_Int_Tables_number      14
_space_group_name_Hall           '-P 2yn'
loop_
_symmetry_equiv_pos_site_id
_symmetry_equiv_pos_as_xyz
1 x,y,z
2 1/2-x,1/2+y,1/2-z
3 -x,-y,-z
4 1/2+x,1/2-y,1/2+z
_cell_length_a                   7.8535(4)
_cell_length_b                   16.5308(7)
_cell_length_c                   16.7344(8)
_cell_angle_alpha                90
_cell_angle_beta                 96.3500(10)
_cell_angle_gamma                90
_cell_volume                     2159.21
loop_
_atom_site_label
_atom_site_type_symbol
_atom_site_fract_x
_atom_site_fract_y
_atom_site_fract_z
Co1 Co 0.91070(5) 0.18840(2) 0.78370(2)
C1 C 0.9365(4) 0.31872(16) 0.58113(17)
C2 C 1.0894(4) 0.36035(17) 0.57876(16)
H1 H 1.1715 0.3605 0.6233
C3 C 1.1189(3) 0.40177(17) 0.50920(16)
C4 C 0.9958(3) 0.40212(17) 0.44239(16)
H2 H 1.0159 0.4304 0.3963
C5 C 0.8430(3) 0.36021(17) 0.44470(16)
C6 C 0.8149(4) 0.31896(17) 0.51446(17)
H3 H 0.7127 0.2910 0.5164
C7 C 0.9062(4) 0.26952(17) 0.65377(17)
C8 C 1.2853(4) 0.44426(18) 0.50588(17)
C9 C 0.7107(4) 0.35829(17) 0.37216(16)
C10 C 0.3481(4) -0.02287(17) 0.62968(18)
C11 C 0.2631(4) 0.04946(18) 0.61044(18)
H4 H 0.2456 0.0857 0.6512
C12 C 0.2038(4) 0.06864(18) 0.53144(18)
C13 C 0.2269(4) 0.01358(19) 0.47063(19)
H5 H 0.1864 0.0254 0.4176
C14 C 0.3102(4) -0.0589(2) 0.48938(19)
H6 H 0.3265 -0.0954 0.4486
C15 C 0.3694(4) -0.07736(19) 0.56790(19)
H7 H 0.4240 -0.1265 0.5798
C16 C 0.4167(4) -0.04058(18) 0.71596(18)
H8 H 0.3418 -0.0165 0.7517
H9 H 0.4181 -0.0986 0.7247
C17 C 0.1128(4) 0.1487(2) 0.5173(2)
H10 H -0.0070 0.1414 0.5246
H11 H 0.1610 0.1869 0.5576
C18 C 0.6342(4) 0.06991(18) 0.74057(18)
H12 H 0.5559 0.1122 0.7343
C19 C 0.7410(4) -0.05168(19) 0.74705(17)
H13 H 0.7518 -0.1077 0.7463
C20 C 0.8687(4) 0.00252(18) 0.76034(19)
H14 H 0.9845 -0.0100 0.7706
C21 C 0.2584(4) 0.22522(18) 0.41509(18)
H15 H 0.3587 0.2352 0.4486
C22 C 0.0010(4) 0.18314(19) 0.3727(2)
H16 H -0.1069 0.1596 0.3705
C23 C 0.0662(4) 0.22343(19) 0.31230(19)
H17 H 0.0103 0.2319 0.2610
N1 N 0.8011(3) 0.07952(15) 0.75631(14)
N2 N 0.5918(3) -0.00812(14) 0.73483(14)
N3 N 0.1237(3) 0.18368(15) 0.43720(16)
N4 N 0.2298(3) 0.24994(14) 0.33969(14)
O1 O 0.7668(3) 0.23374(14) 0.65682(13)
O2 O 1.0259(3) 0.26347(13) 0.71064(12)
O3 O 1.4018(3) 0.43829(16) 0.56198(14)
O4 O 1.2972(3) 0.48619(14) 0.44202(13)
H18 H 1.3920 0.5075 0.4448
O5 O 0.7363(3) 0.39334(15) 0.30987(12)
O6 O 0.5753(3) 0.31807(13) 0.38107(13)
Co1C Co 0.41070(5) 0.31160(2) 0.28370(2)
N4C N 0.7298(3) 0.25006(14) 0.83969(14)
O6C O 1.0753(3) 0.18193(13) 0.88107(13)
O7 O 0.4422(6) 0.2569(4) 0.5980(4)
H19 H 0.559(4) 0.247(5) 0.610(6)
H20 H 0.436(11) 0.3110(17) 0.588(6)
loop_
_geom_bond_atom_site_label_1
_geom_bond_atom_site_label_2
_geom_bond_site_symmetry_1
_geom_bond_site_symmetry_2
Co1 N1 1_555 1_555
C1 C2 1_555 1_555
C2 H1 1_555 1_555
C3 C2 1_555 1_555
C4 C3 1_555 1_555
H2 C4 1_555 1_555
C5 C4 1_555 1_555
C6 C1 1_555 1_555
H3 C6 1_555 1_555
C7 C1 1_555 1_555
C8 C3 1_555 1_555
C9 C5 1_555 1_555
C10 C11 1_555 1_555
C11 H4 1_555 1_555
C12 C11 1_555 1_555
C13 C12 1_555 1_555
H5 C13 1_555 1_555
C14 C13 1_555 1_555
H6 C14 1_555 1_555
C15 C10 1_555 1_555
H7 C15 1_555 1_555
C16 C10 1_555 1_555
H8 C16 1_555 1_555
H9 C16 1_555 1_555
C17 C12 1_555 1_555
H10 C17 1_555 1_555
H11 C17 1_555 1_555
C18 H12 1_555 1_555
C19 H13 1_555 1_555
C20 C19 1_555 1_555
H14 C20 1_555 1_555
C21 H15 1_555 1_555
C22 H16 1_555 1_555
C23 C22 1_555 1_555
H17 C23 1_555 1_555
N1 C18 1_555 1_555
N2 C16 1_555 1_555
N3 C17 1_555 1_555
N4 C21 1_555 1_555
O1 C7 1_555 1_555
O2 Co1 1_555 1_555
O3 C8 1_555 1_555
O4 C8 1_555 1_555
H18 O4 1_555 1_555
O5 C9 1_555 1_555
O6 C9 1_555 1_555
O7 H19 1_555 1_555
H20 O7 1_555 1_555
Co1C N4 1_555 1_555
N4C Co1 1_555 1_555
O6C Co1 1_555 1_555
C5 C6 1_555 1_555
C7 O2 1_555 1_555
C14 C15 1_555 1_555
C18 N2 1_555 1_555
C19 N2 1_555 1_555
C20 N1 1_555 1_555
C21 N3 1_555 1_555
C22 N3 1_555 1_555
C23 N4 1_555 1_555
O6 Co1C 1_555 1_555

#END
