
#######################################################################
#
#                 Cambridge Crystallographic Data Centre
#                                CCDC 
#
#######################################################################
#
# If this CIF has been generated from an entry in the Cambridge 
# Structural Database, then it will include bibliographic, chemical, 
# crystal, experimental, refinement or atomic coordinate data resulting 
# from the CCDC's data processing and validation procedures.
#
#######################################################################

data_WIMZEY
_symmetry_cell_setting           monoclinic
_symmetry_space_group_name_H-M   'P 21/n'
_symmetry_Int_Tables_number      14
_space_group_name_Hall           '-P 2yn'
loop_
_symmetry_equiv_pos_site_id
_symmetry_equiv_pos_as_xyz
1 x,y,z
2 1/2-x,1/2+y,1/2-z
3 -x,-y,-z
4 1/2+x,1/2-y,1/2+z
_cell_length_a                   17.025(3)
_cell_length_b                   11.048(2)
_cell_length_c                   18.736(4)
_cell_angle_alpha                90
_cell_angle_beta                 110.281(3)
_cell_angle_gamma                90
_cell_volume                     3305.62
loop_
_atom_site_label
_atom_site_type_symbol
_atom_site_fract_x
_atom_site_fract_y
_atom_site_fract_z
Ni1 Ni -0.10704(3) -0.35121(4) 0.19611(3)
O1 O -0.09235(17) -0.4511(2) 0.29935(15)
O2 O -0.09626(17) -0.2523(2) 0.29665(15)
O3 O -0.21789(18) -0.3563(3) 0.61865(15)
O4 O -0.08263(18) -0.3273(3) 0.68384(15)
N1 N -0.2371(2) -0.3543(3) 0.17926(18)
N2 N -0.4845(2) -0.3707(3) 0.17493(19)
H1 H -0.510(3) -0.296(5) 0.186(3)
N3 N -0.6716(2) -0.6287(4) 0.0703(2)
N4 N 0.0226(2) -0.3487(3) 0.21577(18)
N5 N 0.2732(2) -0.2601(4) 0.2528(2)
H2 H 0.278(3) -0.219(4) 0.210(3)
N6 N 0.4651(3) -0.2209(6) 0.4648(2)
N7 N -0.1165(2) -0.5033(3) 0.12859(18)
N8 N -0.1610(2) -0.8508(3) 0.03052(19)
H3 H -0.199(3) -0.852(4) -0.017(3)
N9 N -0.1216(2) -1.1977(3) 0.12899(18)
C1 C -0.2745(2) -0.4605(4) 0.1831(2)
H4 H -0.2436 -0.5310 0.1864
C2 C -0.3552(2) -0.4717(3) 0.1824(2)
H5 H -0.3773 -0.5474 0.1862
C3 C -0.4031(2) -0.3677(3) 0.1759(2)
C4 C -0.3640(2) -0.2557(4) 0.1748(2)
H6 H -0.3930 -0.1837 0.1725
C5 C -0.2828(2) -0.2544(3) 0.1770(2)
H7 H -0.2578 -0.1796 0.1769
C6 C -0.6762(3) -0.5530(5) 0.1237(3)
H8 H -0.7240 -0.5560 0.1370
C7 C -0.6151(3) -0.4701(4) 0.1610(3)
H9 H -0.6221 -0.4196 0.1980
C8 C -0.5431(3) -0.4631(4) 0.1424(2)
C9 C -0.5371(3) -0.5429(4) 0.0871(2)
H10 H -0.4899 -0.5429 0.0729
C10 C -0.6017(3) -0.6217(4) 0.0536(3)
H11 H -0.5964 -0.6739 0.0166
C11 C 0.0816(2) -0.3563(4) 0.2848(2)
H12 H 0.0646 -0.3784 0.3251
C12 C 0.1652(3) -0.3340(4) 0.3008(2)
H13 H 0.2031 -0.3436 0.3500
C13 C 0.1925(2) -0.2968(4) 0.2422(2)
C14 C 0.1316(3) -0.2929(4) 0.1691(2)
H14 H 0.1466 -0.2723 0.1275
C15 C 0.0502(3) -0.3195(3) 0.1592(2)
H15 H 0.0114 -0.3172 0.1099
C16 C 0.4283(3) -0.3258(6) 0.4430(3)
H16 H 0.4462 -0.3910 0.4761
C17 C 0.3634(3) -0.3466(5) 0.3728(3)
H17 H 0.3389 -0.4226 0.3603
C18 C 0.3377(3) -0.2501(4) 0.3236(2)
C19 C 0.3794(3) -0.1379(5) 0.3451(3)
H18 H 0.3654 -0.0714 0.3128
C20 C 0.4403(3) -0.1306(6) 0.4146(3)
H19 H 0.4671 -0.0564 0.4285
C21 C -0.1059(2) -0.3501(4) 0.4072(2)
C22 C -0.1268(3) -0.2444(4) 0.4357(2)
H20 H -0.1336 -0.1732 0.4077
C23 C -0.1375(3) -0.2435(4) 0.5055(2)
H21 H -0.1525 -0.1718 0.5235
C24 C -0.1264(2) -0.3472(4) 0.5489(2)
C25 C -0.1043(3) -0.4536(4) 0.5212(2)
H22 H -0.0952 -0.5239 0.5502
C26 C -0.0958(3) -0.4553(4) 0.4500(2)
H23 H -0.0831 -0.5276 0.4309
C27 C -0.0971(2) -0.3520(4) 0.3309(2)
C28 C -0.1430(2) -0.3440(4) 0.6235(2)
C29 C -0.0876(3) -0.6025(4) 0.1706(2)
H24 H -0.0567 -0.5927 0.2220
C30 C -0.1013(3) -0.7185(4) 0.1417(2)
H25 H -0.0825 -0.7841 0.1743
C31 C -0.1424(2) -0.7383(3) 0.0654(2)
C32 C -0.1699(2) -0.6341(3) 0.0207(2)
H26 H -0.1968 -0.6416 -0.0316
C33 C -0.1575(3) -0.5203(3) 0.0536(2)
C34 C -0.0688(2) -1.1059(3) 0.1603(2)
H27 H -0.0245 -1.1210 0.2052
C35 C -0.0763(2) -0.9910(3) 0.1299(2)
H28 H -0.0366 -0.9321 0.1531
C36 C -0.1439(2) -0.9637(3) 0.0640(2)
C37 C -0.1961(2) -1.0605(4) 0.0296(2)
H29 H -0.2400 -1.0487 -0.0161
C38 C -0.1829(2) -1.1734(3) 0.0629(2)
H30 H -0.2184 -1.2362 0.0383
Ni1_2 Ni -0.10704(3) -1.35121(4) 0.19611(3)
N9_2 N -0.1216(2) -0.1977(3) 0.12899(18)
loop_
_geom_bond_atom_site_label_1
_geom_bond_atom_site_label_2
_geom_bond_site_symmetry_1
_geom_bond_site_symmetry_2
Ni1 O1 1_555 1_555
O1 C27 1_555 1_555
O2 Ni1 1_555 1_555
O3 C28 1_555 1_555
O4 C28 1_555 1_555
N1 Ni1 1_555 1_555
N2 H1 1_555 1_555
N3 C6 1_555 1_555
N4 Ni1 1_555 1_555
N5 H2 1_555 1_555
N6 C16 1_555 1_555
N7 Ni1 1_555 1_555
N8 H3 1_555 1_555
N9 C34 1_555 1_555
C1 N1 1_555 1_555
H4 C1 1_555 1_555
C2 C1 1_555 1_555
H5 C2 1_555 1_555
C3 N2 1_555 1_555
C4 C3 1_555 1_555
H6 C4 1_555 1_555
C5 N1 1_555 1_555
H7 C5 1_555 1_555
C6 H8 1_555 1_555
C7 C6 1_555 1_555
H9 C7 1_555 1_555
C8 N2 1_555 1_555
C9 C8 1_555 1_555
H10 C9 1_555 1_555
C10 N3 1_555 1_555
H11 C10 1_555 1_555
C11 N4 1_555 1_555
H12 C11 1_555 1_555
C12 C11 1_555 1_555
H13 C12 1_555 1_555
C13 N5 1_555 1_555
C14 C13 1_555 1_555
H14 C14 1_555 1_555
C15 N4 1_555 1_555
H15 C15 1_555 1_555
C16 H16 1_555 1_555
C17 C16 1_555 1_555
H17 C17 1_555 1_555
C18 N5 1_555 1_555
C19 C18 1_555 1_555
H18 C19 1_555 1_555
C20 N6 1_555 1_555
H19 C20 1_555 1_555
C21 C22 1_555 1_555
C22 H20 1_555 1_555
C23 C22 1_555 1_555
H21 C23 1_555 1_555
C24 C23 1_555 1_555
C25 C24 1_555 1_555
H22 C25 1_555 1_555
C26 C21 1_555 1_555
H23 C26 1_555 1_555
C27 O2 1_555 1_555
C28 C24 1_555 1_555
C29 N7 1_555 1_555
H24 C29 1_555 1_555
C30 C29 1_555 1_555
H25 C30 1_555 1_555
C31 N8 1_555 1_555
C32 C31 1_555 1_555
H26 C32 1_555 1_555
C33 N7 1_555 1_555
C34 H27 1_555 1_555
C35 C34 1_555 1_555
H28 C35 1_555 1_555
C36 N8 1_555 1_555
C37 C36 1_555 1_555
H29 C37 1_555 1_555
C38 N9 1_555 1_555
H30 C38 1_555 1_555
Ni1_2 N9 1_555 1_555
N9_2 Ni1 1_555 1_555
C2 C3 1_555 1_555
C4 C5 1_555 1_555
C7 C8 1_555 1_555
C9 C10 1_555 1_555
C12 C13 1_555 1_555
C14 C15 1_555 1_555
C17 C18 1_555 1_555
C19 C20 1_555 1_555
C21 C27 1_555 1_555
C25 C26 1_555 1_555
C30 C31 1_555 1_555
C32 C33 1_555 1_555
C35 C36 1_555 1_555
C37 C38 1_555 1_555

#END
