
#######################################################################
#
#                 Cambridge Crystallographic Data Centre
#                                CCDC 
#
#######################################################################
#
# If this CIF has been generated from an entry in the Cambridge 
# Structural Database, then it will include bibliographic, chemical, 
# crystal, experimental, refinement or atomic coordinate data resulting 
# from the CCDC's data processing and validation procedures.
#
#######################################################################

data_WINBIF
_symmetry_cell_setting           monoclinic
_symmetry_space_group_name_H-M   'P 21/n'
_symmetry_Int_Tables_number      14
_space_group_name_Hall           '-P 2yn'
loop_
_symmetry_equiv_pos_site_id
_symmetry_equiv_pos_as_xyz
1 x,y,z
2 1/2-x,1/2+y,1/2-z
3 -x,-y,-z
4 1/2+x,1/2-y,1/2+z
_cell_length_a                   11.1722(5)
_cell_length_b                   24.8188(11)
_cell_length_c                   13.9443(6)
_cell_angle_alpha                90
_cell_angle_beta                 97.9680(10)
_cell_angle_gamma                90
_cell_volume                     3829.16
loop_
_atom_site_label
_atom_site_type_symbol
_atom_site_fract_x
_atom_site_fract_y
_atom_site_fract_z
Zn1 Zn -0.14399(3) -0.857130(13) 0.16492(2)
S1 S -1.11009(8) -1.07300(4) -0.17523(7)
O1 O -0.59927(19) -0.67880(9) 0.54995(15)
O2 O -0.5151(2) -0.74012(12) 0.65341(16)
O3 O -0.1890(2) -0.83652(10) 0.29338(17)
O4 O 0.1951(2) -0.71184(13) -0.31478(17)
O5 O -0.2673(2) -0.91262(9) 0.12520(16)
O6 O -0.1877(2) -0.95312(10) 0.00593(19)
O7 O -1.0176(2) -1.10747(10) -0.21670(17)
C1 C -0.5326(3) -0.72000(13) 0.5728(2)
C2 C -0.4686(3) -0.74255(13) 0.4923(2)
C3 C -0.4834(3) -0.71959(14) 0.4013(2)
H1 H -0.5360 -0.6901 0.3878
C4 C -0.4214(3) -0.73963(15) 0.3296(2)
H2 H -0.4339 -0.7242 0.2674
C5 C -0.3412(3) -0.78209(13) 0.3485(2)
C6 C -0.3251(3) -0.80457(15) 0.4402(2)
H3 H -0.2704 -0.8332 0.4543
C7 C -0.3888(3) -0.78525(15) 0.5113(2)
H4 H -0.3779 -0.8012 0.5730
C8 C -0.2740(3) -0.80337(14) 0.2692(2)
C9 C -0.2701(2) -0.94486(11) 0.0538(2)
C10 C -0.3894(2) -0.97407(11) 0.0268(2)
C11 C -0.4800(3) -0.97137(12) 0.0859(2)
H5 H -0.4665 -0.9520 0.1444
C12 C -0.5895(3) -0.99688(12) 0.0594(2)
H6 H -0.3499 -1.0054 -0.0997
C13 C -1.0989(3) -1.08585(16) -0.0495(3)
H7 H -1.1301 -1.1216 -0.0393
H8 H -1.0150 -1.0838 -0.0206
H9 H -1.1457 -1.0593 -0.0197
C14 C -1.0479(4) -1.00670(17) -0.1675(3)
H10 H -1.0464 -0.9926 -0.2322
H11 H -1.0972 -0.9835 -0.1329
H12 H -0.9662 -1.0079 -0.1332
Zn1C Zn -0.64399(3) -0.642870(13) 0.66492(2)
Zn1C_2 Zn 0.35601(3) -0.642870(13) -0.33508(2)
Zn1B Zn -0.85601(3) -1.142870(13) -0.16492(2)
S1B S 0.11009(8) -0.92700(4) 0.17523(7)
O1C O -0.09927(19) -0.82120(9) 0.04995(15)
O1A O -0.90073(19) -1.17880(9) -0.04995(15)
O2C O -0.0151(2) -0.75988(12) 0.15341(16)
O3C O 0.3110(2) -0.66348(10) -0.20662(17)
O3B O -0.8110(2) -1.16348(10) -0.29338(17)
O4C O -0.3049(2) -0.78816(13) 0.18522(17)
O5B O -0.7327(2) -1.08738(9) -0.12520(16)
O6B O -0.8123(2) -1.04688(10) -0.00593(19)
O7B O 0.0176(2) -0.89253(10) 0.21670(17)
C1C C -0.0326(3) -0.78000(13) 0.0728(2)
C2C C 0.0314(3) -0.75745(13) -0.0077(2)
C3C C 0.0166(3) -0.78041(14) -0.0987(2)
H1C H -0.0360 -0.8099 -0.1122
C4C C 0.0786(3) -0.76037(15) -0.1704(2)
H2C H 0.0661 -0.7758 -0.2326
C5C C 0.1588(3) -0.71791(13) -0.1515(2)
C6C C 0.1749(3) -0.69543(15) -0.0598(2)
H3C H 0.2296 -0.6668 -0.0457
C7C C 0.1112(3) -0.71475(15) 0.0113(2)
H4C H 0.1221 -0.6988 0.0730
C8C C 0.2260(3) -0.69663(14) -0.2308(2)
C9B C -0.7299(2) -1.05514(11) -0.0538(2)
C10B C -0.6106(2) -1.02593(11) -0.0268(2)
C11B C -0.5200(3) -1.02863(12) -0.0859(2)
H5B H -0.5335 -1.0480 -0.1444
C12B C -0.4105(3) -1.00312(12) -0.0594(2)
H6B H -0.6501 -0.9946 0.0997
C13B C 0.0989(3) -0.91415(16) 0.0495(3)
H7B H 0.1301 -0.8784 0.0393
H8B H 0.0150 -0.9162 0.0206
H9B H 0.1457 -0.9407 0.0197
C14B C 0.0479(4) -0.99330(17) 0.1675(3)
H10B H 0.0464 -1.0074 0.2322
H11B H 0.0972 -1.0165 0.1329
H12B H -0.0338 -0.9921 0.1332
S2 S -0.4312(3) -0.01844(14) -0.33374(17)
O8 O -0.4809(8) 0.0295(4) -0.3672(7)
C15 C -0.5479(17) -0.0620(6) -0.3685(9)
H13 H -0.6120 -0.0558 -0.3295
H14 H -0.5193 -0.0988 -0.3596
H15 H -0.5787 -0.0561 -0.4363
C16 C -0.3388(17) -0.0352(10) -0.4047(10)
H16 H -0.2680 -0.0123 -0.3935
H17 H -0.3769 -0.0312 -0.4712
H18 H -0.3150 -0.0725 -0.3930
N1 N -0.0194(2) -0.31477(11) -0.40284(18)
C17 C -0.1265(3) -0.34826(13) -0.3807(2)
H19 H -0.1962 -0.3395 -0.4289
H20 H -0.1073 -0.3863 -0.3891
C18 C -0.1636(4) -0.34139(16) -0.2812(3)
H21 H -0.1932 -0.3047 -0.2737
H22 H -0.0942 -0.3476 -0.2313
C19 C -0.2633(3) -0.38206(15) -0.2704(3)
H23 H -0.3275 -0.3782 -0.3255
H24 H -0.2301 -0.4185 -0.2728
C20 C -0.3183(5) -0.3760(2) -0.1775(4)
H25 H -0.3806 -0.4030 -0.1754
H26 H -0.3535 -0.3404 -0.1751
H27 H -0.2559 -0.3807 -0.1224
C21 C -0.0015(3) -0.33020(14) -0.5051(2)
H28 H 0.0147 -0.3690 -0.5058
H29 H -0.0781 -0.3241 -0.5472
C22 C 0.0968(3) -0.30206(15) -0.5500(2)
H30 H 0.1731 -0.3037 -0.5060
H31 H 0.0755 -0.2641 -0.5618
C23 C 0.1112(3) -0.32969(16) -0.6450(2)
H32 H 0.0320 -0.3318 -0.6850
H33 H 0.1399 -0.3666 -0.6314
C24 C 0.1989(4) -0.3008(2) -0.7019(3)
H34 H 0.2036 -0.3200 -0.7619
H35 H 0.2783 -0.2996 -0.6637
H36 H 0.1706 -0.2643 -0.7165
C25 C 0.0928(3) -0.32630(15) -0.3317(3)
H37 H 0.0782 -0.3146 -0.2672
H38 H 0.1594 -0.3045 -0.3497
C26 C 0.1329(4) -0.38484(19) -0.3253(4)
H39 H 0.0694 -0.4071 -0.3037
H40 H 0.1470 -0.3976 -0.3893
C27 C 0.2475(5) -0.3898(3) -0.2547(5)
H41 H 0.3083 -0.3656 -0.2756
H42 H 0.2311 -0.3773 -0.1911
C28 C 0.2987(10) -0.4445(4) -0.2441(10)
H43 H 0.3708 -0.4441 -0.1965
H44 H 0.3193 -0.4566 -0.3059
H45 H 0.2397 -0.4688 -0.2228
C29 C -0.0437(3) -0.25466(13) -0.3949(2)
H46 H -0.0468 -0.2459 -0.3268
H47 H 0.0244 -0.2348 -0.4152
C30 C -0.1596(3) -0.23497(14) -0.4545(3)
H48 H -0.2293 -0.2485 -0.4263
H49 H -0.1647 -0.2491 -0.5206
C31 C -0.1635(5) -0.17379(16) -0.4575(4)
H50 H -0.1574 -0.1601 -0.3912
H51 H -0.2417 -0.1623 -0.4922
C32 C -0.0632(9) -0.1489(4) -0.5064(10)
H54 H -0.0704 -0.1100 -0.5059
H55 H -0.0698 -0.1615 -0.5728
H56 H 0.0146 -0.1594 -0.4718
N2 N -0.5645(13) -0.4999(6) -0.9268(9)
C34 C -0.4757(17) -0.4675(8) -0.9302(14)
H60 H -0.4572 -0.4419 -0.8807
C35 C -0.585(2) -0.5308(8) -1.0040(14)
H61 H -0.6532 -0.5535 -1.0087
N2B N -0.4355(13) -0.5001(6) -1.0732(9)
C34B C -0.5243(17) -0.5325(8) -1.0698(14)
H60B H -0.5428 -0.5581 -1.1193
C35B C -0.415(2) -0.4692(8) -0.9960(14)
H61B H -0.3468 -0.4465 -0.9913
H52? H -0.1422 -0.1594 -0.3920
H53? H -0.1044 -0.1604 -0.4975
C33? C -0.2891(11) -0.1548(9) -0.499(2)
H57? H -0.2908 -0.1157 -0.5009
H58? H -0.3473 -0.1678 -0.4591
H59? H -0.3095 -0.1687 -0.5645
loop_
_geom_bond_atom_site_label_1
_geom_bond_atom_site_label_2
_geom_bond_site_symmetry_1
_geom_bond_site_symmetry_2
Zn1 O3 1_555 1_555
S1 O7 1_555 1_555
S2 O8 1_555 1_555
O1 C1 1_555 1_555
O2 C1 1_555 1_555
O3 C8 1_555 1_555
O4 C8C 1_555 1_555
O5 Zn1 1_555 1_555
O6 C9 1_555 1_555
O7 Zn1B 1_555 1_555
N1 C17 1_555 1_555
C1 C2 1_555 1_555
C2 C3 1_555 1_555
C3 H1 1_555 1_555
C4 C3 1_555 1_555
H2 C4 1_555 1_555
C5 C4 1_555 1_555
C6 C5 1_555 1_555
H3 C6 1_555 1_555
C7 C2 1_555 1_555
H4 C7 1_555 1_555
C8 C5 1_555 1_555
C9 O5 1_555 1_555
C10 C9 1_555 1_555
C11 C10 1_555 1_555
H5 C11 1_555 1_555
C12 C11 1_555 1_555
H6 C12B 1_555 1_555
C13 S1 1_555 1_555
H7 C13 1_555 1_555
H8 C13 1_555 1_555
H9 C13 1_555 1_555
C14 S1 1_555 1_555
H10 C14 1_555 1_555
H11 C14 1_555 1_555
H12 C14 1_555 1_555
C15 S2 1_555 1_555
H13 C15 1_555 1_555
H14 C15 1_555 1_555
H15 C15 1_555 1_555
C16 S2 1_555 1_555
H16 C16 1_555 1_555
H17 C16 1_555 1_555
H18 C16 1_555 1_555
C17 H19 1_555 1_555
H20 C17 1_555 1_555
C18 C17 1_555 1_555
H21 C18 1_555 1_555
H22 C18 1_555 1_555
C19 C18 1_555 1_555
H23 C19 1_555 1_555
H24 C19 1_555 1_555
C20 C19 1_555 1_555
H25 C20 1_555 1_555
H26 C20 1_555 1_555
H27 C20 1_555 1_555
C21 N1 1_555 1_555
H28 C21 1_555 1_555
H29 C21 1_555 1_555
C22 C21 1_555 1_555
H30 C22 1_555 1_555
H31 C22 1_555 1_555
C23 C22 1_555 1_555
H32 C23 1_555 1_555
H33 C23 1_555 1_555
C24 C23 1_555 1_555
H34 C24 1_555 1_555
H35 C24 1_555 1_555
H36 C24 1_555 1_555
C25 N1 1_555 1_555
H37 C25 1_555 1_555
H38 C25 1_555 1_555
C26 C25 1_555 1_555
H39 C26 1_555 1_555
H40 C26 1_555 1_555
C27 C26 1_555 1_555
H41 C27 1_555 1_555
H42 C27 1_555 1_555
C28 C27 1_555 1_555
H43 C28 1_555 1_555
H44 C28 1_555 1_555
H45 C28 1_555 1_555
C29 N1 1_555 1_555
H46 C29 1_555 1_555
H47 C29 1_555 1_555
C30 C29 1_555 1_555
H48 C30 1_555 1_555
H49 C30 1_555 1_555
C31 C30 1_555 1_555
H50 C31 1_555 1_555
H51 C31 1_555 1_555
C32 C31 1_555 1_555
H54 C32 1_555 1_555
H55 C32 1_555 1_555
H56 C32 1_555 1_555
N2 C34 1_555 1_555
C34 H60 1_555 1_555
C35 N2 1_555 1_555
H61 C35 1_555 1_555
Zn1C O1 1_555 1_555
Zn1C_2 O3C 1_555 1_555
Zn1B O1A 1_555 1_555
S1B O7B 1_555 1_555
O1C Zn1 1_555 1_555
O2C C1C 1_555 1_555
O3C C8C 1_555 1_555
O3B Zn1B 1_555 1_555
O4C C8 1_555 1_555
O5B Zn1B 1_555 1_555
O6B C9B 1_555 1_555
O7B Zn1 1_555 1_555
C1C O1C 1_555 1_555
C2C C1C 1_555 1_555
C3C C2C 1_555 1_555
H1C C3C 1_555 1_555
C4C C3C 1_555 1_555
H2C C4C 1_555 1_555
C5C C4C 1_555 1_555
C6C C5C 1_555 1_555
H3C C6C 1_555 1_555
C7C C2C 1_555 1_555
H4C C7C 1_555 1_555
C8C C5C 1_555 1_555
C9B O5B 1_555 1_555
C10B C12 1_555 1_555
C11B C10B 1_555 1_555
H5B C11B 1_555 1_555
C12B C10 1_555 1_555
H6B C12 1_555 1_555
C13B S1B 1_555 1_555
H7B C13B 1_555 1_555
H8B C13B 1_555 1_555
H9B C13B 1_555 1_555
C14B S1B 1_555 1_555
H10B C14B 1_555 1_555
H11B C14B 1_555 1_555
H12B C14B 1_555 1_555
N2B C34B 1_555 1_555
C34B C35 1_555 1_555
H60B C34B 1_555 1_555
C35B C34 1_555 1_555
H61B C35B 1_555 1_555
C6 C7 1_555 1_555
C6C C7C 1_555 1_555
C9B C10B 1_555 1_555
C11B C12B 1_555 1_555
N2B C35B 1_555 1_555

#END
