
#######################################################################
#
#                 Cambridge Crystallographic Data Centre
#                                CCDC 
#
#######################################################################
#
# If this CIF has been generated from an entry in the Cambridge 
# Structural Database, then it will include bibliographic, chemical, 
# crystal, experimental, refinement or atomic coordinate data resulting 
# from the CCDC's data processing and validation procedures.
#
#######################################################################

data_WINBUS
_symmetry_cell_setting           monoclinic
_symmetry_space_group_name_H-M   'P 21/c'
_symmetry_Int_Tables_number      14
_space_group_name_Hall           '-P 2ybc'
loop_
_symmetry_equiv_pos_site_id
_symmetry_equiv_pos_as_xyz
1 x,y,z
2 -x,1/2+y,1/2-z
3 -x,-y,-z
4 x,1/2-y,1/2+z
_cell_length_a                   19.4348(4)
_cell_length_b                   8.7495(2)
_cell_length_c                   15.6181(4)
_cell_angle_alpha                90
_cell_angle_beta                 105.429(2)
_cell_angle_gamma                90
_cell_volume                     2560.06
loop_
_atom_site_label
_atom_site_type_symbol
_atom_site_fract_x
_atom_site_fract_y
_atom_site_fract_z
Pb1 Pb 0.020321(10) 0.500848(19) 0.286410(12)
N1 N -0.1029(2) 0.3755(4) 0.2238(3)
N2 N -0.1748(2) 0.5940(5) 0.2035(3)
N3 N -0.2367(3) 0.6441(5) 0.1989(3)
N4 N -0.2883(3) 0.7045(5) 0.1959(3)
C1 C -0.1693(3) 0.4337(6) 0.2029(3)
N5 N -0.1133(2) 0.2206(4) 0.2168(3)
N6 N -0.2228(2) 0.3335(5) 0.1814(3)
N7 N -0.2155(2) 0.0555(5) 0.1764(3)
C2 C -0.1835(3) 0.2056(5) 0.1920(3)
O1 O -0.1738(2) -0.0553(4) 0.1871(3)
O2 O -0.2804(2) 0.0444(4) 0.1530(3)
N8 N 0.0878(2) 0.3335(4) 0.0304(3)
N9 N 0.0436(2) 0.3834(4) 0.1478(3)
C3 C 0.0692(3) 0.2068(5) 0.0687(3)
O3 O 0.1040(2) 0.0429(4) -0.0270(2)
O4 O 0.06019(19) -0.0541(4) 0.0764(2)
N10 N 0.0790(2) 0.0551(4) 0.0370(3)
N11 N 0.0431(2) 0.2273(4) 0.1376(3)
N12 N 0.0797(3) 0.5982(5) 0.0788(3)
N13 N 0.1131(2) 0.6353(5) 0.0227(3)
C4 C 0.0709(3) 0.4395(5) 0.0840(3)
N14 N 0.1420(3) 0.6846(5) -0.0236(3)
O5 O -0.0483(2) 0.6916(4) 0.1669(2)
H1 H -0.053(3) 0.674(7) 0.1089(12)
H2 H -0.0948(13) 0.681(10) 0.164(6)
Pb1A Pb -0.020321(10) 0.000848(19) 0.213590(12)
Pb1A_2 Pb -0.020321(10) 1.000848(19) 0.213590(12)
N5A N 0.1133(2) 0.7206(4) 0.2832(3)
N11A N -0.0431(2) 0.7273(4) 0.3624(3)
O5A O 0.0483(2) 0.1916(4) 0.3331(2)
Pb2 Pb 0.522575(10) 0.45796(2) 0.287130(12)
N15 N 0.4003(2) 0.5576(4) 0.2077(3)
N16 N 0.3374(2) 0.3357(5) 0.1430(3)
N17 N 0.2847(3) 0.2943(5) 0.0799(4)
N18 N 0.2423(3) 0.2420(7) 0.0236(4)
C5 C 0.3382(3) 0.4929(5) 0.1635(4)
N19 N 0.2822(2) 0.8681(5) 0.1584(3)
N20 N 0.3857(2) 0.7097(4) 0.2124(3)
N21 N 0.2827(2) 0.5884(5) 0.1406(3)
C6 C 0.3172(3) 0.7191(5) 0.1728(3)
O6 O 0.3213(2) 0.9821(4) 0.1807(3)
O7 O 0.2179(2) 0.8735(4) 0.1257(2)
N22 N 0.5475(2) 0.5900(4) 0.1511(3)
N23 N 0.5454(2) 0.7465(4) 0.1402(3)
N24 N 0.5922(2) 0.6420(5) 0.0342(3)
N25 N 0.5822(3) 0.3776(5) 0.0830(3)
C7 C 0.5719(3) 0.7678(5) 0.0714(3)
C8 C 0.5753(3) 0.5367(5) 0.0872(3)
O8 O 0.5588(2) 1.0280(4) 0.0790(2)
O9 O 0.6076(2) 0.9361(4) -0.0212(2)
N26 N 0.5805(2) 0.9200(5) 0.0410(3)
N27 N 0.6226(2) 0.3296(5) 0.0373(3)
N28 N 0.6565(3) 0.2696(5) 0.0004(3)
O10 O 0.4802(2) 0.2643(4) 0.1662(2)
H3 H 0.4353(13) 0.281(7) 0.134(4)
H4 H 0.510(3) 0.269(7) 0.132(3)
Pb2A Pb 0.477425(10) -0.04204(2) 0.212870(12)
Pb2A_2 Pb 0.477425(10) 0.95796(2) 0.212870(12)
N20A N 0.6143(2) 0.2097(4) 0.2876(3)
N23A N 0.4546(2) 0.2465(4) 0.3598(3)
O10A O 0.5198(2) 0.7643(4) 0.3338(2)
loop_
_geom_bond_atom_site_label_1
_geom_bond_atom_site_label_2
_geom_bond_site_symmetry_1
_geom_bond_site_symmetry_2
Pb1 N1 1_555 1_555
N1 C1 1_555 1_555
N2 N3 1_555 1_555
N3 N4 1_555 1_555
C1 N2 1_555 1_555
N5 N1 1_555 1_555
N6 C1 1_555 1_555
N7 C2 1_555 1_555
C2 N5 1_555 1_555
O1 N7 1_555 1_555
O2 N7 1_555 1_555
N8 C3 1_555 1_555
N9 Pb1 1_555 1_555
C3 N10 1_555 1_555
O3 N10 1_555 1_555
O4 N10 1_555 1_555
N11 N9 1_555 1_555
N12 N13 1_555 1_555
N13 N14 1_555 1_555
C4 N8 1_555 1_555
O5 Pb1 1_555 1_555
H1 O5 1_555 1_555
H2 O5 1_555 1_555
Pb2 N15 1_555 1_555
N15 C5 1_555 1_555
N16 N17 1_555 1_555
N17 N18 1_555 1_555
C5 N16 1_555 1_555
N19 C6 1_555 1_555
N20 N15 1_555 1_555
N21 C5 1_555 1_555
C6 N20 1_555 1_555
O6 N19 1_555 1_555
O7 N19 1_555 1_555
N22 Pb2 1_555 1_555
N23 N22 1_555 1_555
N24 C7 1_555 1_555
N25 C8 1_555 1_555
C7 N23 1_555 1_555
C8 N22 1_555 1_555
O8 N26 1_555 1_555
O9 N26 1_555 1_555
N26 C7 1_555 1_555
N27 N25 1_555 1_555
N28 N27 1_555 1_555
O10 Pb2 1_555 1_555
H3 O10 1_555 1_555
H4 O10 1_555 1_555
Pb1A N5 1_555 1_555
Pb1A_2 O5 1_555 1_555
N5A Pb1 1_555 1_555
N11A Pb1 1_555 1_555
O5A Pb1 1_555 1_555
Pb2A O10 1_555 1_555
Pb2A_2 N20 1_555 1_555
N20A Pb2 1_555 1_555
N23A Pb2 1_555 1_555
O10A Pb2 1_555 1_555
N6 C2 1_555 1_555
N9 C4 1_555 1_555
C3 N11 1_555 1_555
N11 Pb1A 1_555 1_555
N12 C4 1_555 1_555
N21 C6 1_555 1_555
N23 Pb2A_2 1_555 1_555
N24 C8 1_555 1_555
Pb1A O5A 1_555 1_555
Pb2A_2 O10A 1_555 1_555

#END
