
#######################################################################
#
#                 Cambridge Crystallographic Data Centre
#                                CCDC 
#
#######################################################################
#
# If this CIF has been generated from an entry in the Cambridge 
# Structural Database, then it will include bibliographic, chemical, 
# crystal, experimental, refinement or atomic coordinate data resulting 
# from the CCDC's data processing and validation procedures.
#
#######################################################################

data_WINCAY
_symmetry_cell_setting           monoclinic
_symmetry_space_group_name_H-M   'P 2/c'
_symmetry_Int_Tables_number      13
_space_group_name_Hall           '-P 2yc'
loop_
_symmetry_equiv_pos_site_id
_symmetry_equiv_pos_as_xyz
1 x,y,z
2 -x,y,1/2-z
3 -x,-y,-z
4 x,-y,1/2+z
_cell_length_a                   11.109(2)
_cell_length_b                   6.0063(12)
_cell_length_c                   22.871(5)
_cell_angle_alpha                90
_cell_angle_beta                 90.54(3)
_cell_angle_gamma                90
_cell_volume                     1525.98
loop_
_atom_site_label
_atom_site_type_symbol
_atom_site_fract_x
_atom_site_fract_y
_atom_site_fract_z
Zn1 Zn 0.5000 0.44267(8) 0.7500
O1 O 0.5000 0.1010(5) 0.7500
O2 O 0.2947(2) 0.3990(4) 0.74492(10)
O3 O 0.3670(2) 0.7310(4) 0.73806(10)
O5 O 0.1899(2) 0.7907(4) 0.62824(9)
O6 O 0.1688(2) 1.1631(4) 0.36930(9)
O7 O 0.1102(3) 1.4599(4) 0.41913(9)
N1 N 0.5053(2) 0.4529(4) 0.65511(9)
C1 C 0.2792(3) 0.6033(6) 0.73615(11)
C2 C 0.1545(3) 0.6905(5) 0.72592(13)
H1 H 0.1222 0.7403 0.7629
H2 H 0.1040 0.5698 0.7118
C3 C 0.1476(3) 0.8794(6) 0.68294(12)
H3 H 0.0654 0.9321 0.6789
H4 H 0.1980 1.0023 0.6957
C4 C 0.1775(3) 0.9169(5) 0.57937(12)
C5 C 0.1268(3) 1.1283(5) 0.57735(13)
H5 H 0.1000 1.1966 0.6113
C6 C 0.1166(3) 1.2357(5) 0.52392(13)
H6 H 0.0826 1.3771 0.5224
C7 C 0.1560(3) 1.1377(5) 0.47271(12)
C8 C 0.2079(3) 0.9277(5) 0.47588(12)
H7 H 0.2356 0.8604 0.4420
C9 C 0.2191(3) 0.8180(5) 0.52833(12)
H8 H 0.2544 0.6777 0.5298
C10 C 0.1456(3) 1.2510(5) 0.41552(13)
C11 C 0.4569(4) 0.2967(6) 0.62145(13)
H9 H 0.4239 0.1722 0.6394
C12 C 0.4531(3) 0.3088(6) 0.56117(13)
H10 H 0.4175 0.1945 0.5397
C13 C 0.5017(2) 0.4896(5) 0.53254(11)
C14 C 0.5498(3) 0.6531(6) 0.56790(13)
H11 H 0.5819 0.7809 0.5512
C15 C 0.5506(3) 0.6288(6) 0.62788(13)
H12 H 0.5847 0.7417 0.6504
H13 H 0.4378(6) 0.021(3) 0.7461(18)
H16 H 0.119(4) 1.523(6) 0.3861(9)
Zn1C Zn 0.5000 0.55733(8) 0.2500
O2A O 0.7053(2) 0.3990(4) 0.75508(10)
O3A O 0.6330(2) 0.7310(4) 0.76194(10)
O5A O 0.8101(2) 0.7907(4) 0.87176(9)
O6A O 0.8312(2) 1.1631(4) 1.13070(9)
O7A O 0.8898(3) 1.4599(4) 1.08087(9)
N1B N 0.4947(2) 0.5471(4) 0.34489(9)
N1A N 0.4947(2) 0.4529(4) 0.84489(9)
C1A C 0.7208(3) 0.6033(6) 0.76385(11)
C2A C 0.8455(3) 0.6905(5) 0.77408(13)
H1A H 0.8778 0.7403 0.7371
H2A H 0.8960 0.5698 0.7882
C3A C 0.8524(3) 0.8794(6) 0.81706(12)
H3A H 0.9346 0.9321 0.8211
H4A H 0.8020 1.0023 0.8043
C4A C 0.8225(3) 0.9169(5) 0.92063(12)
C5A C 0.8732(3) 1.1283(5) 0.92265(13)
H5A H 0.9000 1.1966 0.8887
C6A C 0.8834(3) 1.2357(5) 0.97608(13)
H6A H 0.9174 1.3771 0.9776
C7A C 0.8440(3) 1.1377(5) 1.02729(12)
C8A C 0.7921(3) 0.9277(5) 1.02412(12)
H7A H 0.7644 0.8604 1.0580
C9A C 0.7809(3) 0.8180(5) 0.97167(12)
H8A H 0.7456 0.6777 0.9702
C10A C 0.8544(3) 1.2510(5) 1.08448(13)
C11B C 0.5431(4) 0.7033(6) 0.37855(13)
H9B H 0.5761 0.8278 0.3606
C12B C 0.5469(3) 0.6912(6) 0.43883(13)
H10B H 0.5825 0.8055 0.4603
C13B C 0.4983(2) 0.5104(5) 0.46746(11)
C14B C 0.4502(3) 0.3469(6) 0.43210(13)
H11B H 0.4181 0.2191 0.4488
C15B C 0.4494(3) 0.3712(6) 0.37212(13)
H12B H 0.4153 0.2583 0.3496
H13A H 0.5622(6) 0.021(3) 0.7539(18)
H16A H 0.881(4) 1.523(6) 1.1139(9)
O4 O 0.1267(3) 1.7261(4) 0.32819(10)
H14 H 0.178(3) 1.692(5) 0.3021(14)
H15 H 0.145(3) 1.854(4) 0.3420(15)
loop_
_geom_bond_atom_site_label_1
_geom_bond_atom_site_label_2
_geom_bond_site_symmetry_1
_geom_bond_site_symmetry_2
Zn1 O1 1_555 1_555
O1 H13 1_555 1_555
O2 Zn1 1_555 1_555
O3 Zn1 1_555 1_555
O4 H14 1_555 1_555
O5 C3 1_555 1_555
O6 C10 1_555 1_555
O7 C10 1_555 1_555
N1 Zn1 1_555 1_555
C1 O2 1_555 1_555
C2 C1 1_555 1_555
H1 C2 1_555 1_555
H2 C2 1_555 1_555
C3 C2 1_555 1_555
H3 C3 1_555 1_555
H4 C3 1_555 1_555
C4 O5 1_555 1_555
C5 C4 1_555 1_555
H5 C5 1_555 1_555
C6 C5 1_555 1_555
H6 C6 1_555 1_555
C7 C6 1_555 1_555
C8 C7 1_555 1_555
H7 C8 1_555 1_555
C9 C4 1_555 1_555
H8 C9 1_555 1_555
C10 C7 1_555 1_555
C11 N1 1_555 1_555
H9 C11 1_555 1_555
C12 C11 1_555 1_555
H10 C12 1_555 1_555
C13 C12 1_555 1_555
C14 C13 1_555 1_555
H11 C14 1_555 1_555
C15 N1 1_555 1_555
H12 C15 1_555 1_555
H15 O4 1_555 1_555
H16 O7 1_555 1_555
Zn1C N1B 1_555 1_555
O2A Zn1 1_555 1_555
O3A Zn1 1_555 1_555
O5A C3A 1_555 1_555
O6A C10A 1_555 1_555
O7A C10A 1_555 1_555
N1B C11B 1_555 1_555
N1A Zn1 1_555 1_555
C1A O2A 1_555 1_555
C2A C1A 1_555 1_555
H1A C2A 1_555 1_555
H2A C2A 1_555 1_555
C3A C2A 1_555 1_555
H3A C3A 1_555 1_555
H4A C3A 1_555 1_555
C4A O5A 1_555 1_555
C5A C4A 1_555 1_555
H5A C5A 1_555 1_555
C6A C5A 1_555 1_555
H6A C6A 1_555 1_555
C7A C6A 1_555 1_555
C8A C7A 1_555 1_555
H7A C8A 1_555 1_555
C9A C4A 1_555 1_555
H8A C9A 1_555 1_555
C10A C7A 1_555 1_555
C11B H9B 1_555 1_555
C12B C11B 1_555 1_555
H10B C12B 1_555 1_555
C13B C13 1_555 1_555
C14B C13B 1_555 1_555
H11B C14B 1_555 1_555
C15B N1B 1_555 1_555
H12B C15B 1_555 1_555
H13A O1 1_555 1_555
H16A O7A 1_555 1_555
O3 C1 1_555 1_555
C8 C9 1_555 1_555
C14 C15 1_555 1_555
O3A C1A 1_555 1_555
C8A C9A 1_555 1_555
C12B C13B 1_555 1_555
C14B C15B 1_555 1_555

#END
