
#######################################################################
#
#                 Cambridge Crystallographic Data Centre
#                                CCDC 
#
#######################################################################
#
# If this CIF has been generated from an entry in the Cambridge 
# Structural Database, then it will include bibliographic, chemical, 
# crystal, experimental, refinement or atomic coordinate data resulting 
# from the CCDC's data processing and validation procedures.
#
#######################################################################

data_WINDIH
_symmetry_cell_setting           monoclinic
_symmetry_space_group_name_H-M   'P 21'
_symmetry_Int_Tables_number      4
_space_group_name_Hall           'P 2yb'
loop_
_symmetry_equiv_pos_site_id
_symmetry_equiv_pos_as_xyz
1 x,y,z
2 -x,1/2+y,-z
_cell_length_a                   6.960(5)
_cell_length_b                   14.094(5)
_cell_length_c                   14.947(5)
_cell_angle_alpha                90
_cell_angle_beta                 95.099(5)
_cell_angle_gamma                90
_cell_volume                     1460.41
loop_
_atom_site_label
_atom_site_type_symbol
_atom_site_fract_x
_atom_site_fract_y
_atom_site_fract_z
Pb1 Pb 0.11553(3) 0.852058(17) 0.206648(12)
Pb2 Pb 0.63592(3) 0.724710(16) 0.285160(12)
C1 C 0.7542(9) 1.2163(6) -0.0764(4)
C2 C 0.7151(9) 1.1357(5) -0.0145(4)
C3 C 0.5552(9) 1.1417(5) 0.0397(4)
C4 C 0.4240(10) 1.2174(6) 0.0304(4)
H1 H 0.4453 1.2664 -0.0092
C5 C 0.2649(10) 1.2205(6) 0.0783(4)
H2 H 0.1741 1.2687 0.0688
C6 C 0.2425(10) 1.1494(6) 0.1422(4)
H3 H 0.1371 1.1522 0.1762
C7 C 0.3699(10) 1.0763(5) 0.1562(4)
H4 H 0.3540 1.0319 0.2010
C8 C 0.5286(9) 1.0677(5) 0.1017(4)
C9 C 0.8295(10) 1.0580(6) -0.0108(4)
H5 H 0.9300 1.0543 -0.0477
C10 C 0.7989(9) 0.9835(5) 0.0474(3)
H6 H 0.8772 0.9300 0.0474
C11 C 0.6551(9) 0.9871(6) 0.1050(3)
C12 C 0.6404(9) 0.9025(5) 0.1662(4)
C13 C 0.6061(9) 0.6196(6) 0.4927(4)
H7 H 0.5861 0.6838 0.5029
C14 C 0.6668(9) 0.5000(5) 0.3950(4)
C15 C 0.6957(10) 0.4721(6) 0.2996(5)
C16 C 0.7061(12) 0.5217(7) 0.1540(5)
H8 H 0.7039 0.5710 0.1126
C17 C 0.7291(13) 0.4311(9) 0.1243(6)
H9 H 0.7390 0.4186 0.0638
C18 C 0.7371(13) 0.3594(9) 0.1861(7)
H10 H 0.7530 0.2972 0.1676
C19 C 0.7224(12) 0.3779(6) 0.2725(7)
H11 H 0.7298 0.3291 0.3145
C20 C 0.6594(11) 0.4339(7) 0.4635(6)
H12 H 0.6769 0.3699 0.4517
C21 C 0.6268(11) 0.4623(8) 0.5474(5)
H13 H 0.6233 0.4182 0.5935
C22 C 0.5983(10) 0.5589(8) 0.5636(5)
H14 H 0.5751 0.5809 0.6203
C23 C 0.1397(9) 0.7015(5) 0.3389(4)
C24 C 0.1379(10) 0.3971(5) 0.5987(4)
C25 C 0.1344(8) 0.6205(5) 0.4014(3)
C26 C 0.1083(9) 0.6386(5) 0.4902(4)
H15 H 0.0925 0.7007 0.5095
C27 C 0.1627(8) 0.5280(5) 0.3715(4)
C28 C 0.1967(9) 0.5088(5) 0.2806(4)
H16 H 0.1987 0.5585 0.2397
C29 C 0.1055(9) 0.5641(5) 0.5508(4)
H17 H 0.0836 0.5771 0.6100
C30 C 0.1647(8) 0.4506(5) 0.4340(3)
C31 C 0.1917(9) 0.3573(6) 0.4014(4)
H18 H 0.1874 0.3060 0.4403
C32 C 0.2239(10) 0.3418(6) 0.3137(4)
H19 H 0.2443 0.2804 0.2939
C33 C 0.2265(10) 0.4179(6) 0.2532(4)
H20 H 0.2487 0.4063 0.1938
C34 C 0.1345(8) 0.4712(5) 0.5257(3)
N1 N 0.6866(9) 0.5430(5) 0.2403(4)
N2 N 0.6401(8) 0.5932(5) 0.4102(3)
O1 O 0.5140(7) 0.8992(4) 0.2213(3)
O2 O 0.7629(6) 0.8358(3) 0.1602(2)
O3 O 0.8567(11) 1.2825(5) -0.0449(4)
O4 O 0.6910(8) 1.2106(4) -0.1561(3)
O5 O 0.0016(6) 0.7099(3) 0.2755(2)
O6 O 0.2754(6) 0.7594(4) 0.3457(3)
O7 O 0.2291(8) 0.3220(4) 0.5901(3)
O8 O 0.0526(7) 0.4206(4) 0.6673(3)
Pb1_2 Pb 1.11553(3) 0.852058(17) 0.206648(12)
Pb1A Pb 0.88447(3) 1.352058(17) -0.206648(12)
Pb1A_2 Pb -0.11553(3) 0.352058(17) 0.793352(12)
Pb2A Pb 0.36408(3) 1.224710(16) -0.285160(12)
Pb2_2 Pb -0.36408(3) 0.724710(16) 0.285160(12)
Pb2A_2 Pb 0.36408(3) 0.224710(16) 0.714840(12)
O2_2 O -0.2371(6) 0.8358(3) 0.1602(2)
O3A O 0.1433(11) 0.7825(5) 0.0449(4)
O4A O 0.3090(8) 0.7106(4) 0.1561(3)
O5_2 O 1.0016(6) 0.7099(3) 0.2755(2)
O7A O 0.7709(8) 0.8220(4) 0.4099(3)
O8A O -0.0526(7) 0.9206(4) 0.3327(3)
loop_
_geom_bond_atom_site_label_1
_geom_bond_atom_site_label_2
_geom_bond_site_symmetry_1
_geom_bond_site_symmetry_2
Pb1 O1 1_555 1_555
Pb2 N1 1_555 1_555
C1 C2 1_555 1_555
C2 C3 1_555 1_555
C3 C4 1_555 1_555
C4 H1 1_555 1_555
C5 C4 1_555 1_555
H2 C5 1_555 1_555
C6 C5 1_555 1_555
H3 C6 1_555 1_555
C7 C6 1_555 1_555
H4 C7 1_555 1_555
C8 C3 1_555 1_555
C9 C2 1_555 1_555
H5 C9 1_555 1_555
C10 C9 1_555 1_555
H6 C10 1_555 1_555
C11 C8 1_555 1_555
C12 C11 1_555 1_555
C13 H7 1_555 1_555
C14 C15 1_555 1_555
C15 C19 1_555 1_555
C16 H8 1_555 1_555
C17 C16 1_555 1_555
H9 C17 1_555 1_555
C18 C17 1_555 1_555
H10 C18 1_555 1_555
C19 C18 1_555 1_555
H11 C19 1_555 1_555
C20 C14 1_555 1_555
H12 C20 1_555 1_555
C21 C20 1_555 1_555
H13 C21 1_555 1_555
C22 C13 1_555 1_555
H14 C22 1_555 1_555
C23 C25 1_555 1_555
C24 C34 1_555 1_555
C25 C26 1_555 1_555
C26 H15 1_555 1_555
C27 C25 1_555 1_555
C28 C27 1_555 1_555
H16 C28 1_555 1_555
C29 C26 1_555 1_555
H17 C29 1_555 1_555
C30 C27 1_555 1_555
C31 C30 1_555 1_555
H18 C31 1_555 1_555
C32 C31 1_555 1_555
H19 C32 1_555 1_555
C33 C28 1_555 1_555
H20 C33 1_555 1_555
C34 C29 1_555 1_555
N1 C15 1_555 1_555
N2 Pb2 1_555 1_555
O1 Pb2 1_555 1_555
O2 Pb2 1_555 1_555
O3 C1 1_555 1_555
O4 C1 1_555 1_555
O5 Pb1 1_555 1_555
O6 Pb1 1_555 1_555
O7 C24 1_555 1_555
O8 C24 1_555 1_555
Pb1_2 O2 1_555 1_555
Pb1A O3 1_555 1_555
Pb1A_2 O8 1_555 1_555
Pb2A O4 1_555 1_555
Pb2_2 O5 1_555 1_555
Pb2A_2 O7 1_555 1_555
O2_2 Pb1 1_555 1_555
O3A Pb1 1_555 1_555
O4A Pb1 1_555 1_555
O5_2 Pb2 1_555 1_555
O7A Pb2 1_555 1_555
O8A Pb1 1_555 1_555
Pb2 O6 1_555 1_555
Pb2 O4A 1_555 1_555
C7 C8 1_555 1_555
C10 C11 1_555 1_555
C12 O1 1_555 1_555
C12 O2 1_555 1_555
C13 N2 1_555 1_555
C14 N2 1_555 1_555
C16 N1 1_555 1_555
C21 C22 1_555 1_555
C23 O5 1_555 1_555
C23 O6 1_555 1_555
C30 C34 1_555 1_555
C32 C33 1_555 1_555
O4 Pb1A 1_555 1_555
Pb1_2 O5_2 1_555 1_555
Pb2_2 O2_2 1_555 1_555

#END
