
#######################################################################
#
#                 Cambridge Crystallographic Data Centre
#                                CCDC 
#
#######################################################################
#
# If this CIF has been generated from an entry in the Cambridge 
# Structural Database, then it will include bibliographic, chemical, 
# crystal, experimental, refinement or atomic coordinate data resulting 
# from the CCDC's data processing and validation procedures.
#
#######################################################################

data_WINDEE
_symmetry_cell_setting           orthorhombic
_symmetry_space_group_name_H-M   'P b c n'
_symmetry_Int_Tables_number      60
_space_group_name_Hall           '-P 2n 2ab'
loop_
_symmetry_equiv_pos_site_id
_symmetry_equiv_pos_as_xyz
1 x,y,z
2 1/2-x,1/2-y,1/2+z
3 1/2+x,1/2-y,-z
4 -x,y,1/2-z
5 -x,-y,-z
6 1/2+x,1/2+y,1/2-z
7 1/2-x,1/2+y,z
8 x,-y,1/2+z
_cell_length_a                   25.419(3)
_cell_length_b                   10.6458(13)
_cell_length_c                   11.6200(13)
_cell_angle_alpha                90
_cell_angle_beta                 90
_cell_angle_gamma                90
_cell_volume                     3144.44
loop_
_atom_site_label
_atom_site_type_symbol
_atom_site_fract_x
_atom_site_fract_y
_atom_site_fract_z
Co1 Co 0.5000 0.10105(9) 0.2500
Br1 Br 0.78016(3) -0.29353(9) 0.03004(8)
N1 N 0.46327(16) 0.2205(4) 0.1351(4)
O1 O 0.56165(16) -0.0499(4) 0.2917(4)
C1 C 0.4549(2) 0.3408(6) -0.1567(5)
H1 H 0.4207 0.3633 -0.1874
H2 H 0.4661 0.2642 -0.1948
N2 N 0.44937(17) 0.3153(4) -0.0339(4)
O2 O 0.56011(15) 0.0614(4) 0.1341(4)
C2 C 0.4937(2) 0.4447(5) -0.1861(4)
H3 H 0.4789 0.5252 -0.1646
H4 H 0.5259 0.4326 -0.1425
C3 C 0.4205(2) 0.3019(5) 0.1453(5)
C4 C 0.4119(2) 0.3615(5) 0.0399(5)
C5 C 0.5807(2) -0.0205(6) 0.1974(6)
C6 C 0.6301(2) -0.0851(5) 0.1551(5)
C7 C 0.4783(2) 0.2321(5) 0.0261(5)
H5 H 0.5062 0.1871 -0.0056
C8 C 0.6445(2) -0.0799(5) 0.0406(5)
H6 H 0.6240 -0.0346 -0.0112
C9 C 0.6896(2) -0.1424(6) 0.0018(5)
H7 H 0.6990 -0.1402 -0.0756
C10 C 0.3874(2) 0.3231(5) 0.2381(5)
H8 H 0.3924 0.2827 0.3082
C11 C 0.3464(2) 0.4075(6) 0.2214(6)
H9 H 0.3231 0.4237 0.2814
C12 C 0.7195(2) -0.2061(6) 0.0791(6)
C13 C 0.3396(3) 0.4686(6) 0.1156(7)
H10 H 0.3121 0.5254 0.1075
C14 C 0.6607(2) -0.1509(6) 0.2317(6)
H11 H 0.6511 -0.1554 0.3088
C15 C 0.7064(2) -0.2110(6) 0.1936(7)
H12 H 0.7278 -0.2539 0.2454
C16 C 0.3718(2) 0.4478(6) 0.0245(6)
H13 H 0.3671 0.4896 -0.0450
N1C N 0.53673(16) 0.2205(4) -0.6351(4)
C1C C 0.5451(2) 0.3408(6) -0.3433(5)
H1C H 0.5793 0.3633 -0.3126
H2C H 0.5339 0.2642 -0.3052
N2C N 0.55063(17) 0.3153(4) -0.4661(4)
C2C C 0.5063(2) 0.4447(5) -0.3139(4)
H3C H 0.5211 0.5252 -0.3354
H4C H 0.4741 0.4326 -0.3575
C3C C 0.5795(2) 0.3019(5) -0.6453(5)
C4C C 0.5881(2) 0.3615(5) -0.5399(5)
C7C C 0.5217(2) 0.2321(5) -0.5261(5)
H5C H 0.4938 0.1871 -0.4944
C10C C 0.6126(2) 0.3231(5) -0.7381(5)
H8C H 0.6076 0.2827 -0.8082
C11C C 0.6536(2) 0.4075(6) -0.7214(6)
H9C H 0.6769 0.4237 -0.7814
C13C C 0.6604(3) 0.4686(6) -0.6156(7)
H10C H 0.6879 0.5254 -0.6075
C16C C 0.6282(2) 0.4478(6) -0.5245(6)
H13C H 0.6329 0.4896 -0.4550
Br1C Br 0.21984(3) -0.29353(9) 0.46996(8)
O1C O 0.43835(16) -0.0499(4) 0.2083(4)
O2C O 0.43989(15) 0.0614(4) 0.3659(4)
C5C C 0.4193(2) -0.0205(6) 0.3026(6)
C6C C 0.3699(2) -0.0851(5) 0.3449(5)
C8C C 0.3555(2) -0.0799(5) 0.4594(5)
H6C H 0.3760 -0.0346 0.5112
C9C C 0.3104(2) -0.1424(6) 0.4982(5)
H7C H 0.3010 -0.1402 0.5756
C12C C 0.2805(2) -0.2061(6) 0.4209(6)
C14C C 0.3393(2) -0.1509(6) 0.2683(6)
H11C H 0.3489 -0.1554 0.1912
C15C C 0.2936(2) -0.2110(6) 0.3064(7)
H12C H 0.2722 -0.2539 0.2546
Co1_2 Co 0.5000 0.10105(9) -0.7500
N1C_2 N 0.53673(16) 0.2205(4) 0.3649(4)
loop_
_geom_bond_atom_site_label_1
_geom_bond_atom_site_label_2
_geom_bond_site_symmetry_1
_geom_bond_site_symmetry_2
Co1 N1 1_555 1_555
Br1 C12 1_555 1_555
N1 C3 1_555 1_555
O1 Co1 1_555 1_555
C1 H1 1_555 1_555
H2 C1 1_555 1_555
N2 C1 1_555 1_555
O2 Co1 1_555 1_555
C2 C1 1_555 1_555
H3 C2 1_555 1_555
H4 C2 1_555 1_555
C3 C4 1_555 1_555
C4 N2 1_555 1_555
C5 O1 1_555 1_555
C6 C5 1_555 1_555
C7 N1 1_555 1_555
H5 C7 1_555 1_555
C8 C6 1_555 1_555
H6 C8 1_555 1_555
C9 C8 1_555 1_555
H7 C9 1_555 1_555
C10 C3 1_555 1_555
H8 C10 1_555 1_555
C11 C10 1_555 1_555
H9 C11 1_555 1_555
C12 C9 1_555 1_555
C13 C11 1_555 1_555
H10 C13 1_555 1_555
C14 C6 1_555 1_555
H11 C14 1_555 1_555
C15 C12 1_555 1_555
H12 C15 1_555 1_555
C16 C4 1_555 1_555
H13 C16 1_555 1_555
N1C C3C 1_555 1_555
C1C H1C 1_555 1_555
H2C C1C 1_555 1_555
N2C C1C 1_555 1_555
C2C C2 1_555 1_555
H3C C2C 1_555 1_555
H4C C2C 1_555 1_555
C3C C4C 1_555 1_555
C4C N2C 1_555 1_555
C7C N1C 1_555 1_555
H5C C7C 1_555 1_555
C10C C3C 1_555 1_555
H8C C10C 1_555 1_555
C11C C10C 1_555 1_555
H9C C11C 1_555 1_555
C13C C11C 1_555 1_555
H10C C13C 1_555 1_555
C16C C4C 1_555 1_555
H13C C16C 1_555 1_555
Br1C C12C 1_555 1_555
O1C Co1 1_555 1_555
O2C Co1 1_555 1_555
C5C O1C 1_555 1_555
C6C C5C 1_555 1_555
C8C C6C 1_555 1_555
H6C C8C 1_555 1_555
C9C C8C 1_555 1_555
H7C C9C 1_555 1_555
C12C C9C 1_555 1_555
C14C C6C 1_555 1_555
H11C C14C 1_555 1_555
C15C C12C 1_555 1_555
H12C C15C 1_555 1_555
Co1_2 N1C 1_555 1_555
N1C_2 Co1 1_555 1_555
N2 C7 1_555 1_555
O2 C5 1_555 1_555
C13 C16 1_555 1_555
C14 C15 1_555 1_555
C1C C2C 1_555 1_555
N2C C7C 1_555 1_555
C13C C16C 1_555 1_555
O2C C5C 1_555 1_555
C14C C15C 1_555 1_555

#END
