
#######################################################################
#
#                 Cambridge Crystallographic Data Centre
#                                CCDC 
#
#######################################################################
#
# If this CIF has been generated from an entry in the Cambridge 
# Structural Database, then it will include bibliographic, chemical, 
# crystal, experimental, refinement or atomic coordinate data resulting 
# from the CCDC's data processing and validation procedures.
#
#######################################################################

data_WINGUV
_symmetry_cell_setting           monoclinic
_symmetry_space_group_name_H-M   'P 21'
_symmetry_Int_Tables_number      4
_space_group_name_Hall           'P 2yb'
loop_
_symmetry_equiv_pos_site_id
_symmetry_equiv_pos_as_xyz
1 x,y,z
2 -x,1/2+y,-z
_cell_length_a                   8.497(3)
_cell_length_b                   9.902(3)
_cell_length_c                   21.030(5)
_cell_angle_alpha                90
_cell_angle_beta                 92.14(1)
_cell_angle_gamma                90
_cell_volume                     1768.17
loop_
_atom_site_label
_atom_site_type_symbol
_atom_site_fract_x
_atom_site_fract_y
_atom_site_fract_z
Cu1 Cu 0.0693(1) 0.8314 0.3776(1)
C1 C -0.0950(8) 0.9844(7) 0.4606(3)
C2 C 0.0050(8) 0.8898(7) 0.5040(3)
C3 C 0.0495(8) 0.9568(7) 0.5679(3)
C4 C 0.1438(8) 1.0861(7) 0.5630(3)
N1 N 0.1389(6) 0.8381(6) 0.4695(2)
O1 O -0.0691(5) 0.9786(4) 0.4011(2)
O2 O -0.1984(5) 1.0532(5) 0.4835(2)
O3 O 0.1304(5) 1.1729(5) 0.6065(2)
O4 O 0.2265(6) 1.1016(5) 0.5154(2)
C5 C -0.0768(7) 0.9452(8) 0.2568(3)
C6 C -0.1026(8) 0.9454(10) 0.1896(3)
C7 C -0.0256(9) 0.8504(10) 0.1543(3)
C8 C 0.0821(8) 0.7602(8) 0.1819(3)
C9 C 0.1742(9) 0.6657(10) 0.1482(3)
C10 C 0.2753(9) 0.5793(9) 0.1791(3)
C11 C 0.3001(8) 0.5888(7) 0.2467(3)
C12 C 0.4093(9) 0.5099(8) 0.2816(4)
C13 C 0.4250(9) 0.5260(8) 0.3465(3)
C14 C 0.3312(9) 0.6202(8) 0.3767(3)
C15 C 0.1009(8) 0.7676(7) 0.2485(3)
C16 C 0.2097(7) 0.6801(7) 0.2808(3)
N2 N 0.0204(6) 0.8559(5) 0.2846(2)
N3 N 0.2255(6) 0.6954(6) 0.3452(2)
H13 H -0.0609 0.8134 0.5122
H14 H 0.1106 0.8916 0.5919
H15 H -0.0443 0.9743 0.5906
H16 H 0.2226 0.8933 0.4746
H17 H 0.1659 0.7549 0.4832
H18 H -0.1294 1.0131 0.2807
H19 H -0.1735 1.0086 0.1690
H20 H -0.0415 0.8526 0.1089
H21 H 0.1640 0.6617 0.1026
H22 H 0.3360 0.5153 0.1560
H23 H 0.4675 0.4400 0.2614
H24 H 0.5013 0.4772 0.3722
H25 H 0.3464 0.6339 0.4217
O3A O -0.1304(5) 0.6729(5) 0.3935(2)
Cu1A Cu -0.0693(1) 1.3314 0.6224(1)
Cu2 Cu 0.4212(1) 0.9361(1) 0.1213(1)
C17 C 0.5931(8) 0.7626(7) 0.0554(3)
C18 C 0.5213(8) 0.8536(7) 0.0041(3)
C19 C 0.6333(8) 0.9653(7) -0.0137(3)
C20 C 0.6840(8) 1.0718(7) 0.0362(3)
N4 N 0.3717(6) 0.9106(5) 0.0288(2)
O5 O 0.6953(6) 0.6792(5) 0.0392(2)
O6 O 0.5490(5) 0.7733(5) 0.1114(2)
O7 O 0.6164(5) 1.0678(5) 0.0905(2)
O8 O 0.7803(5) 1.1561(5) 0.0209(2)
C21 C 0.5538(7) 0.8502(7) 0.2504(3)
C22 C 0.5699(8) 0.8615(8) 0.3168(3)
C23 C 0.4800(8) 0.9545(9) 0.3473(3)
C24 C 0.3737(8) 1.0379(8) 0.3126(3)
C25 C 0.2717(8) 1.1374(9) 0.3401(3)
C26 C 0.1751(9) 1.2143(9) 0.3031(3)
C27 C 0.1712(8) 1.2024(7) 0.2346(3)
C28 C 0.0719(8) 1.2792(8) 0.1926(3)
C29 C 0.0736(9) 1.2546(8) 0.1291(3)
C30 C 0.1719(8) 1.1572(8) 0.1062(3)
C31 C 0.3702(7) 1.0236(7) 0.2467(3)
C32 C 0.2662(7) 1.1043(7) 0.2075(3)
N5 N 0.4565(6) 0.9301(6) 0.2160(2)
N6 N 0.2679(6) 1.0818(6) 0.1437(2)
H26 H 0.4962 0.8002 -0.0330
H27 H 0.5860 1.0100 -0.0501
H28 H 0.7276 0.9225 -0.0273
H29 H 0.3420 0.9876 0.0090
H30 H 0.2948 0.8488 0.0232
H31 H 0.6116 0.7839 0.2274
H32 H 0.6455 0.8053 0.3392
H33 H 0.4845 0.9621 0.3928
H34 H 0.2774 1.1480 0.3855
H35 H 0.1091 1.2736 0.3265
H36 H -0.0059 1.3375 0.2099
H37 H 0.0074 1.3094 0.1016
H38 H 0.1693 1.1402 0.0612
O9 O -0.6267(6) 0.7311(6) 0.5939(3)
H1 H -0.6681(76) 0.8199(29) 0.5926(33)
H2 H -0.5561(70) 0.7195(64) 0.5604(24)
O10 O -0.4293(6) 0.8150(7) 0.4984(3)
H3 H -0.3575(68) 0.7487(50) 0.4848(35)
H4 H -0.3812(77) 0.9009(33) 0.4998(37)
O11 O 0.2537(7) 1.7707(7) 0.7135(3)
H5 H 0.3422(52) 1.7130(53) 0.7145(38)
H6 H 0.2848(74) 1.8598(27) 0.7245(36)
O12 O 0.4053(7) 1.7951(7) 0.8329(3)
H7 H 0.5163(16) 1.7989(65) 0.8382(34)
H8 H 0.3695(69) 1.7058(28) 0.8392(39)
O13 O 0.2103(7) 2.0133(8) 0.8566(3)
H9 H 0.2910(54) 2.0378(73) 0.8274(30)
H10 H 0.2544(68) 1.9515(66) 0.8867(27)
O14 O 0.1554(8) 2.0371(8) 0.7263(3)
H11 H 0.1047(72) 2.0030(79) 0.6892(18)
H12 H 0.2401(61) 2.0940(67) 0.7168(31)
O15 O 1.0312(10) 0.9841(10) -0.0167(4)
loop_
_geom_bond_atom_site_label_1
_geom_bond_atom_site_label_2
_geom_bond_site_symmetry_1
_geom_bond_site_symmetry_2
Cu1 N1 1_555 1_555
C1 C2 1_555 1_555
C2 C3 1_555 1_555
C3 C4 1_555 1_555
C4 O3 1_555 1_555
N1 C2 1_555 1_555
O1 Cu1 1_555 1_555
O2 C1 1_555 1_555
O3 Cu1A 1_555 1_555
O4 C4 1_555 1_555
C5 C6 1_555 1_555
C6 C7 1_555 1_555
C7 C8 1_555 1_555
C8 C9 1_555 1_555
C9 C10 1_555 1_555
C10 C11 1_555 1_555
C11 C12 1_555 1_555
C12 C13 1_555 1_555
C13 C14 1_555 1_555
C14 N3 1_555 1_555
C15 C8 1_555 1_555
C16 C11 1_555 1_555
N2 Cu1 1_555 1_555
N3 Cu1 1_555 1_555
Cu2 N4 1_555 1_555
C17 C18 1_555 1_555
C18 C19 1_555 1_555
C19 C20 1_555 1_555
C20 O7 1_555 1_555
N4 C18 1_555 1_555
O5 C17 1_555 1_555
O6 Cu2 1_555 1_555
O7 Cu2 1_555 1_555
O8 C20 1_555 1_555
C21 C22 1_555 1_555
C22 C23 1_555 1_555
C23 C24 1_555 1_555
C24 C25 1_555 1_555
C25 C26 1_555 1_555
C26 C27 1_555 1_555
C27 C28 1_555 1_555
C28 C29 1_555 1_555
C29 C30 1_555 1_555
C30 N6 1_555 1_555
C31 C24 1_555 1_555
C32 C27 1_555 1_555
N5 Cu2 1_555 1_555
N6 Cu2 1_555 1_555
O9 H1 1_555 1_555
O10 H3 1_555 1_555
O11 H5 1_555 1_555
O12 H7 1_555 1_555
O13 H9 1_555 1_555
O14 H11 1_555 1_555
H2 O9 1_555 1_555
H4 O10 1_555 1_555
H6 O11 1_555 1_555
H8 O12 1_555 1_555
H10 O13 1_555 1_555
H12 O14 1_555 1_555
H13 C2 1_555 1_555
H14 C3 1_555 1_555
H15 C3 1_555 1_555
H16 N1 1_555 1_555
H17 N1 1_555 1_555
H18 C5 1_555 1_555
H19 C6 1_555 1_555
H20 C7 1_555 1_555
H21 C9 1_555 1_555
H22 C10 1_555 1_555
H23 C12 1_555 1_555
H24 C13 1_555 1_555
H25 C14 1_555 1_555
H26 C18 1_555 1_555
H27 C19 1_555 1_555
H28 C19 1_555 1_555
H29 N4 1_555 1_555
H30 N4 1_555 1_555
H31 C21 1_555 1_555
H32 C22 1_555 1_555
H33 C23 1_555 1_555
H34 C25 1_555 1_555
H35 C26 1_555 1_555
H36 C28 1_555 1_555
H37 C29 1_555 1_555
H38 C30 1_555 1_555
O3A Cu1 1_555 1_555
C1 O1 1_555 1_555
C5 N2 1_555 1_555
C15 C16 1_555 1_555
C15 N2 1_555 1_555
C16 N3 1_555 1_555
C17 O6 1_555 1_555
C21 N5 1_555 1_555
C31 C32 1_555 1_555
C31 N5 1_555 1_555
C32 N6 1_555 1_555

#END
