
#######################################################################
#
#                 Cambridge Crystallographic Data Centre
#                                CCDC 
#
#######################################################################
#
# If this CIF has been generated from an entry in the Cambridge 
# Structural Database, then it will include bibliographic, chemical, 
# crystal, experimental, refinement or atomic coordinate data resulting 
# from the CCDC's data processing and validation procedures.
#
#######################################################################

data_WINGEF
_symmetry_cell_setting           monoclinic
_symmetry_space_group_name_H-M   'P 21/n'
_symmetry_Int_Tables_number      14
_space_group_name_Hall           '-P 2yn'
loop_
_symmetry_equiv_pos_site_id
_symmetry_equiv_pos_as_xyz
1 x,y,z
2 1/2-x,1/2+y,1/2-z
3 -x,-y,-z
4 1/2+x,1/2-y,1/2+z
_cell_length_a                   10.537(2)
_cell_length_b                   10.615(3)
_cell_length_c                   21.101(4)
_cell_angle_alpha                90
_cell_angle_beta                 92.24(2)
_cell_angle_gamma                90
_cell_volume                     2358.35
loop_
_atom_site_label
_atom_site_type_symbol
_atom_site_fract_x
_atom_site_fract_y
_atom_site_fract_z
Cd1 Cd 0.0000 0.0000 0.0000
Ni1 Ni 0.0000 0.5000 0.0000
Ni2 Ni 0.5000 0.0000 0.0000
N1 N -0.0060(4) 0.2176(3) 0.0118(2)
N2 N -0.0864(4) 0.5334(4) 0.1334(2)
N3 N 0.2190(3) 0.0019(5) 0.0214(2)
N4 N 0.5626(4) 0.1063(5) 0.1303(2)
C1 C -0.0053(5) 0.3249(4) 0.0083(2)
C2 C -0.0534(4) 0.5193(4) 0.0828(2)
C3 C 0.3260(3) 0.0012(5) 0.0147(2)
C4 C 0.5366(4) 0.0669(4) 0.0811(2)
N5 N -0.0537(3) -0.0314(3) 0.1106(2)
C5 C 0.0644(5) -0.0631(5) 0.1478(2)
C6 C 0.0431(5) -0.0591(6) 0.2189(3)
C7 C -0.1462(5) -0.1342(5) 0.1202(2)
C8 C -0.1579(6) -0.1638(5) 0.1908(2)
C9 C -0.1085(5) 0.0854(4) 0.1372(2)
C10 C -0.1499(5) 0.0639(5) 0.2051(3)
N6 N -0.0969(4) -0.0583(4) 0.2279(2)
H1 H 0.133(4) -0.011(4) 0.135(2)
H2 H 0.089(4) -0.153(4) 0.133(2)
H3 H 0.076(4) 0.006(4) 0.241(2)
H4 H 0.075(5) -0.130(5) 0.239(2)
H5 H -0.126(4) -0.204(4) 0.098(2)
H6 H -0.225(4) -0.111(5) 0.102(2)
H7 H -0.242(4) -0.168(4) 0.204(2)
H8 H -0.115(5) -0.244(5) 0.204(2)
H9 H -0.189(4) 0.106(4) 0.109(2)
H10 H -0.045(4) 0.150(4) 0.135(2)
H11 H -0.119(4) 0.122(4) 0.235(2)
H12 H -0.238(4) 0.059(4) 0.208(2)
H13 H -0.115(4) -0.060(4) 0.272(2)
N1B N 0.0060(4) -0.2176(3) -0.0118(2)
N3B N -0.2190(3) -0.0019(5) -0.0214(2)
N5B N 0.0537(3) 0.0314(3) -0.1106(2)
C5B C -0.0644(5) 0.0631(5) -0.1478(2)
C6B C -0.0431(5) 0.0591(6) -0.2189(3)
C7B C 0.1462(5) 0.1342(5) -0.1202(2)
C8B C 0.1579(6) 0.1638(5) -0.1908(2)
C9B C 0.1085(5) -0.0854(4) -0.1372(2)
C10B C 0.1499(5) -0.0639(5) -0.2051(3)
N6B N 0.0969(4) 0.0583(4) -0.2279(2)
H1B H -0.133(4) 0.011(4) -0.135(2)
H2B H -0.089(4) 0.153(4) -0.133(2)
H3B H -0.076(4) -0.006(4) -0.241(2)
H4B H -0.075(5) 0.130(5) -0.239(2)
H5B H 0.126(4) 0.204(4) -0.098(2)
H6B H 0.225(4) 0.111(5) -0.102(2)
H7B H 0.242(4) 0.168(4) -0.204(2)
H8B H 0.115(5) 0.244(5) -0.204(2)
H9B H 0.189(4) -0.106(4) -0.109(2)
H10B H 0.045(4) -0.150(4) -0.135(2)
H11B H 0.119(4) -0.122(4) -0.235(2)
H12B H 0.238(4) -0.059(4) -0.208(2)
H13B H 0.115(4) 0.060(4) -0.272(2)
N1B_2 N 0.0060(4) 0.7824(3) -0.0118(2)
C1B C 0.0053(5) 0.6751(4) -0.0083(2)
N2B N 0.0864(4) 0.4666(4) -0.1334(2)
C2B C 0.0534(4) 0.4807(4) -0.0828(2)
N3B_2 N 0.7810(3) -0.0019(5) -0.0214(2)
C3B C 0.6740(3) -0.0012(5) -0.0147(2)
N4B N 0.4374(4) -0.1063(5) -0.1303(2)
C4B C 0.4634(4) -0.0669(4) -0.0811(2)
Cd1B Cd 0.0000 1.0000 0.0000
Cd1B_2 Cd 1.0000 0.0000 0.0000
N7 N -0.0113(5) 0.3800(6) 0.2568(3)
C11 C 0.0993(5) 0.3101(5) 0.2488(3)
C12 C 0.1588(6) 0.2480(6) 0.2995(3)
C13 C 0.2624(7) 0.1718(7) 0.2901(4)
C14 C 0.3053(7) 0.1540(7) 0.2308(5)
C15 C 0.2478(7) 0.2145(6) 0.1803(3)
C16 C 0.1458(6) 0.2915(5) 0.1887(3)
H14 H -0.010(6) 0.402(6) 0.293(2)
H15 H -0.026(5) 0.432(5) 0.223(2)
H16 H 0.127(4) 0.266(4) 0.339(2)
H17 H 0.290(6) 0.134(6) 0.324(3)
H18 H 0.365(5) 0.113(5) 0.229(3)
H19 H 0.272(5) 0.202(5) 0.138(2)
H20 H 0.105(4) 0.334(4) 0.155(2)
N8 N -0.1329(5) -0.0909(5) 0.3566(2)
C17 C -0.0492(5) -0.0093(6) 0.3924(2)
C18 C 0.0733(7) -0.0448(7) 0.4075(3)
C19 C 0.1547(8) 0.0364(9) 0.4416(4)
C20 C 0.1134(9) 0.1528(8) 0.4600(3)
C21 C -0.0070(9) 0.1871(7) 0.4437(3)
C22 C -0.0892(6) 0.1093(6) 0.4102(3)
H21 H -0.212(4) -0.073(4) 0.362(2)
H22 H -0.118(5) -0.160(5) 0.365(2)
H23 H 0.104(5) -0.121(5) 0.393(2)
H24 H 0.229(6) 0.012(7) 0.444(3)
H25 H 0.187(7) 0.206(6) 0.483(3)
H26 H -0.036(6) 0.262(6) 0.455(3)
H27 H -0.178(4) 0.129(4) 0.400(2)
loop_
_geom_bond_atom_site_label_1
_geom_bond_atom_site_label_2
_geom_bond_site_symmetry_1
_geom_bond_site_symmetry_2
Cd1 N1 1_555 1_555
Ni1 C1 1_555 1_555
Ni2 C3 1_555 1_555
N1 C1 1_555 1_555
N2 C2 1_555 1_555
N3 Cd1 1_555 1_555
N4 C4 1_555 1_555
C2 Ni1 1_555 1_555
C3 N3 1_555 1_555
C4 Ni2 1_555 1_555
N5 Cd1 1_555 1_555
C5 N5 1_555 1_555
C6 C5 1_555 1_555
C7 N5 1_555 1_555
C8 C7 1_555 1_555
C9 N5 1_555 1_555
C10 C9 1_555 1_555
N6 C6 1_555 1_555
H1 C5 1_555 1_555
H2 C5 1_555 1_555
H3 C6 1_555 1_555
H4 C6 1_555 1_555
H5 C7 1_555 1_555
H6 C7 1_555 1_555
H7 C8 1_555 1_555
H8 C8 1_555 1_555
H9 C9 1_555 1_555
H10 C9 1_555 1_555
H11 C10 1_555 1_555
H12 C10 1_555 1_555
H13 N6 1_555 1_555
N7 C11 1_555 1_555
C11 C12 1_555 1_555
C12 C13 1_555 1_555
C13 C14 1_555 1_555
C14 C15 1_555 1_555
C15 C16 1_555 1_555
C16 C11 1_555 1_555
H14 N7 1_555 1_555
H15 N7 1_555 1_555
H16 C12 1_555 1_555
H17 C13 1_555 1_555
H18 C14 1_555 1_555
H19 C15 1_555 1_555
H20 C16 1_555 1_555
N8 C17 1_555 1_555
C17 C18 1_555 1_555
C18 C19 1_555 1_555
C19 C20 1_555 1_555
C20 C21 1_555 1_555
C21 C22 1_555 1_555
C22 C17 1_555 1_555
H21 N8 1_555 1_555
H22 N8 1_555 1_555
H23 C18 1_555 1_555
H24 C19 1_555 1_555
H25 C20 1_555 1_555
H26 C21 1_555 1_555
H27 C22 1_555 1_555
N1B Cd1 1_555 1_555
N3B Cd1 1_555 1_555
N5B Cd1 1_555 1_555
C5B N5B 1_555 1_555
C6B C5B 1_555 1_555
C7B N5B 1_555 1_555
C8B C7B 1_555 1_555
C9B N5B 1_555 1_555
C10B C9B 1_555 1_555
N6B C6B 1_555 1_555
H1B C5B 1_555 1_555
H2B C5B 1_555 1_555
H3B C6B 1_555 1_555
H4B C6B 1_555 1_555
H5B C7B 1_555 1_555
H6B C7B 1_555 1_555
H7B C8B 1_555 1_555
H8B C8B 1_555 1_555
H9B C9B 1_555 1_555
H10B C9B 1_555 1_555
H11B C10B 1_555 1_555
H12B C10B 1_555 1_555
H13B N6B 1_555 1_555
N1B_2 C1B 1_555 1_555
C1B Ni1 1_555 1_555
N2B C2B 1_555 1_555
C2B Ni1 1_555 1_555
N3B_2 C3B 1_555 1_555
C3B Ni2 1_555 1_555
N4B C4B 1_555 1_555
C4B Ni2 1_555 1_555
Cd1B N1B_2 1_555 1_555
Cd1B_2 N3B_2 1_555 1_555
C8 N6 1_555 1_555
C10 N6 1_555 1_555
C8B N6B 1_555 1_555
C10B N6B 1_555 1_555

#END
