
#######################################################################
#
#                 Cambridge Crystallographic Data Centre
#                                CCDC 
#
#######################################################################
#
# If this CIF has been generated from an entry in the Cambridge 
# Structural Database, then it will include bibliographic, chemical, 
# crystal, experimental, refinement or atomic coordinate data resulting 
# from the CCDC's data processing and validation procedures.
#
#######################################################################

data_WINHIM
_symmetry_cell_setting           monoclinic
_symmetry_space_group_name_H-M   'P 21/c'
_symmetry_Int_Tables_number      14
_space_group_name_Hall           '-P 2ybc'
loop_
_symmetry_equiv_pos_site_id
_symmetry_equiv_pos_as_xyz
1 x,y,z
2 -x,1/2+y,1/2-z
3 -x,-y,-z
4 x,1/2-y,1/2+z
_cell_length_a                   10.031(5)
_cell_length_b                   17.727(8)
_cell_length_c                   12.635(6)
_cell_angle_alpha                90
_cell_angle_beta                 105.937(5)
_cell_angle_gamma                90
_cell_volume                     2160.39
loop_
_atom_site_label
_atom_site_type_symbol
_atom_site_fract_x
_atom_site_fract_y
_atom_site_fract_z
Mn1 Mn 0.64849(3) 1.052459(18) 0.43152(2)
O1 O 1.13907(16) 0.95285(9) 0.59206(14)
N1 N -0.09706(19) 1.08196(10) -0.23076(14)
N2 N 0.37983(18) 1.00543(11) 0.10455(14)
O2 O 1.24974(16) 0.84631(10) 0.64358(15)
O3 O 0.52283(15) 0.87229(10) 0.58129(13)
C1 C 0.2582(2) 1.02463(13) 0.01891(16)
O4 O 0.62509(17) 0.93905(9) 0.47786(14)
N3 N 0.54093(19) 1.01284(12) 0.26277(15)
C2 C 0.76508(19) 0.85690(11) 0.61100(16)
C3 C 1.1422(2) 0.88636(13) 0.62636(17)
C4 C 1.0134(2) 0.85418(12) 0.64801(16)
C5 C 0.4729(3) 0.94818(15) 0.1055(2)
H1 H 0.4692 0.9128 0.0505
C6 C 0.9015(2) 0.77655(12) 0.75654(18)
N4 N -0.24773(18) 1.08246(11) -0.39440(14)
C7 C 0.8851(2) 0.88158(12) 0.58790(16)
H2 H 0.8798 0.9166 0.5320
C8 C -0.1243(2) 1.05926(12) -0.33684(17)
H3 H -0.0639 1.0311 -0.3653
C9 C 0.6278(2) 0.89187(12) 0.55146(16)
C10 C 0.0244(2) 1.06314(13) -0.14475(16)
C11 C 0.0681(2) 0.98891(13) -0.13247(17)
H4 H 0.0185 0.9520 -0.1794
C12 C 0.1857(3) 0.96943(14) -0.05042(18)
H5 H 0.2156 0.9196 -0.0421
C13 C 0.5707(3) 0.95399(15) 0.2029(2)
H6 H 0.6474 0.9225 0.2259
C14 C 0.0970(3) 1.11797(14) -0.07568(18)
H7 H 0.0669 1.1678 -0.0840
C15 C 1.0207(2) 0.80154(12) 0.73096(17)
H8 H 1.1066 0.7827 0.7701
C16 C -0.2097(2) 1.12280(14) -0.22095(19)
H9 H -0.2203 1.1463 -0.1579
C17 C -0.3017(2) 1.12179(14) -0.32175(19)
H10 H -0.3887 1.1444 -0.3394
C18 C 0.7743(2) 0.80484(12) 0.69542(18)
H11 H 0.6936 0.7887 0.7112
C19 C 0.4260(2) 1.04220(13) 0.20128(17)
H12 H 0.3814 1.0835 0.2218
C20 C 0.2154(3) 1.09880(13) 0.00654(18)
H13 H 0.2655 1.1358 0.0530
C21 C 0.9095(3) 0.72153(16) 0.8490(2)
H14 H 0.8865 0.6719 0.8192
H15 H 0.8453 0.7363 0.8892
H16 H 1.0019 0.7214 0.8975
Mn1_2 Mn -0.35151(3) 1.052459(18) -0.56848(2)
Mn1B Mn 0.35151(3) 0.947541(18) 0.56848(2)
Mn1B_2 Mn 1.35151(3) 0.947541(18) 0.56848(2)
O1B O 0.86093(16) 1.04715(9) 0.40794(14)
O2B O 0.75026(16) 1.15369(10) 0.35642(15)
O3B O 0.47717(15) 1.12771(10) 0.41871(13)
N4_2 N 0.75227(18) 1.08246(11) 0.60560(14)
O5 O 1.4515(6) 0.8082(3) 0.8566(5)
H17 H 1.4757 0.7794 0.9123
H18 H 1.4612 0.7853 0.8001
O6 O 1.3157(7) 0.7752(2) 1.0245(4)
H19 H 1.3556 0.7741 0.9732
H20 H 1.3730 0.7627 1.0850
loop_
_geom_bond_atom_site_label_1
_geom_bond_atom_site_label_2
_geom_bond_site_symmetry_1
_geom_bond_site_symmetry_2
Mn1 O4 1_555 1_555
O1 C3 1_555 1_555
N1 C8 1_555 1_555
N2 C1 1_555 1_555
O2 C3 1_555 1_555
O3 C9 1_555 1_555
C1 C12 1_555 1_555
O4 C9 1_555 1_555
N3 Mn1 1_555 1_555
C2 C7 1_555 1_555
C3 C4 1_555 1_555
C4 C7 1_555 1_555
C5 N2 1_555 1_555
H1 C5 1_555 1_555
C6 C15 1_555 1_555
N4 C8 1_555 1_555
C7 H2 1_555 1_555
C8 H3 1_555 1_555
C9 C2 1_555 1_555
C10 N1 1_555 1_555
C11 C10 1_555 1_555
H4 C11 1_555 1_555
C12 C11 1_555 1_555
H5 C12 1_555 1_555
C13 N3 1_555 1_555
H6 C13 1_555 1_555
C14 C10 1_555 1_555
H7 C14 1_555 1_555
C15 C4 1_555 1_555
H8 C15 1_555 1_555
C16 N1 1_555 1_555
H9 C16 1_555 1_555
C17 N4 1_555 1_555
H10 C17 1_555 1_555
C18 C2 1_555 1_555
H11 C18 1_555 1_555
C19 N2 1_555 1_555
H12 C19 1_555 1_555
C20 C1 1_555 1_555
H13 C20 1_555 1_555
C21 C6 1_555 1_555
H14 C21 1_555 1_555
H15 C21 1_555 1_555
H16 C21 1_555 1_555
O5 H17 1_555 1_555
H18 O5 1_555 1_555
O6 H19 1_555 1_555
H20 O6 1_555 1_555
Mn1_2 N4 1_555 1_555
Mn1B O3 1_555 1_555
Mn1B_2 O1 1_555 1_555
O1B Mn1 1_555 1_555
O2B Mn1 1_555 1_555
O3B Mn1 1_555 1_555
N4_2 Mn1 1_555 1_555
O2 Mn1B_2 1_555 1_555
N3 C19 1_555 1_555
C5 C13 1_555 1_555
C6 C18 1_555 1_555
C14 C20 1_555 1_555
C16 C17 1_555 1_555

#END
