
#######################################################################
#
#                 Cambridge Crystallographic Data Centre
#                                CCDC 
#
#######################################################################
#
# If this CIF has been generated from an entry in the Cambridge 
# Structural Database, then it will include bibliographic, chemical, 
# crystal, experimental, refinement or atomic coordinate data resulting 
# from the CCDC's data processing and validation procedures.
#
#######################################################################

data_WINJUA
_symmetry_cell_setting           triclinic
_symmetry_space_group_name_H-M   'P -1'
_symmetry_Int_Tables_number      2
_space_group_name_Hall           '-P 1'
loop_
_symmetry_equiv_pos_site_id
_symmetry_equiv_pos_as_xyz
1 x,y,z
2 -x,-y,-z
_cell_length_a                   7.644(3)
_cell_length_b                   10.634(4)
_cell_length_c                   14.374(5)
_cell_angle_alpha                75.506(5)
_cell_angle_beta                 84.422(6)
_cell_angle_gamma                75.941(5)
_cell_volume                     1096.51
loop_
_atom_site_label
_atom_site_type_symbol
_atom_site_fract_x
_atom_site_fract_y
_atom_site_fract_z
Gd1 Gd 0.196543(19) 1.085984(14) 0.336981(10)
O1 O 0.4228(4) 0.9432(3) 0.2523(2)
O2 O 0.4294(5) 1.1491(3) 0.1864(2)
O3 O 0.5478(6) 1.2804(3) 0.0427(2)
H1 H 0.5320 1.2360 0.0970
O4 O 0.6860(4) 1.2499(3) -0.0908(2)
O5 O 0.0576(3) 0.8642(2) 0.56751(18)
O6 O 0.2802(3) 0.8916(2) 0.45973(16)
O7 O 0.5282(3) 0.8727(2) 0.60728(19)
O8 O 0.7637(3) 0.7069(2) 0.6363(2)
O9 O 1.0234(4) 0.2361(2) 0.21575(18)
O10 O -0.0406(3) 0.0457(2) 0.7076(2)
C1 C 0.6849(5) 1.0529(3) 0.0289(3)
C2 C 0.8043(5) 0.9854(4) -0.0307(3)
H2 H 0.8469 1.0343 -0.0877
C3 C 0.8624(5) 0.8485(4) -0.0086(3)
H3 H 0.9444 0.8059 -0.0494
C4 C 0.7973(5) 0.7763(3) 0.0744(2)
C5 C 0.6767(5) 0.8400(3) 0.1343(2)
H4 H 0.6335 0.7894 0.1903
C6 C 0.4824(5) 1.0266(4) 0.1892(3)
C7 C 0.6386(5) 1.2032(4) -0.0100(3)
C8 C 1.0344(5) 0.5742(4) 0.1011(3)
H5 H 1.1174 0.6261 0.0758
C9 C 1.0945(5) 0.4413(4) 0.1371(3)
H6 H 1.2177 0.4037 0.1354
C10 C 0.9726(5) 0.3588(3) 0.1772(2)
C11 C 0.7880(5) 0.4230(3) 0.1701(2)
H7 H 0.7017 0.3726 0.1909
C12 C 0.7336(5) 0.5554(4) 0.1341(3)
H8 H 0.6109 0.5948 0.1314
C13 C 0.3145(4) 0.6884(3) 0.5773(2)
C14 C 0.4929(4) 0.6547(3) 0.6076(2)
C15 C 0.5745(5) 0.5203(3) 0.6386(3)
H9 H 0.6930 0.4968 0.6581
C16 C 0.4867(5) 0.4209(3) 0.6416(3)
H10 H 0.5459 0.3317 0.6606
C17 C 0.3094(4) 0.4557(3) 0.6158(2)
C18 C 0.2241(4) 0.5886(3) 0.5833(2)
H11 H 0.1048 0.6109 0.5653
C19 C 0.2114(4) 0.8275(3) 0.5327(2)
C20 C 0.5992(4) 0.7525(3) 0.6165(2)
C21 C 0.2882(5) 0.2335(3) 0.6072(2)
H12 H 0.4022 0.2220 0.5769
C22 C 0.2045(5) 0.1316(3) 0.6287(3)
H13 H 0.2582 0.0531 0.6097
C23 C 0.0360(5) 0.1421(3) 0.6800(3)
C24 C -0.0403(5) 0.2679(3) 0.7018(3)
H14 H -0.1514 0.2809 0.7350
C25 C 0.0457(5) 0.3683(3) 0.6754(3)
H15 H -0.0086 0.4501 0.6893
C26 C 0.6178(4) 0.9774(4) 0.1138(2)
N1 N 0.8561(4) 0.6330(3) 0.1014(2)
N2 N 0.2105(4) 0.3532(3) 0.62859(19)
Gd1_2 Gd 1.196543(19) 0.085984(14) 0.336981(10)
Gd1A Gd -0.196543(19) -0.085984(14) 0.663019(10)
Gd1A_2 Gd -0.196543(19) 0.914016(14) 0.663019(10)
Gd1A_3 Gd 0.803457(19) 0.914016(14) 0.663019(10)
O5A O -0.0576(3) 1.1358(2) 0.43249(18)
O7A O 0.4718(3) 1.1273(2) 0.39272(19)
O8A O 0.2363(3) 1.2931(2) 0.3637(2)
O9_2 O 0.0234(4) 1.2361(2) 0.21575(18)
O10A O 0.0406(3) 0.9543(2) 0.2924(2)
loop_
_geom_bond_atom_site_label_1
_geom_bond_atom_site_label_2
_geom_bond_site_symmetry_1
_geom_bond_site_symmetry_2
Gd1 O1 1_555 1_555
O1 C6 1_555 1_555
O2 Gd1 1_555 1_555
O3 H1 1_555 1_555
O4 C7 1_555 1_555
O5 C19 1_555 1_555
O6 Gd1 1_555 1_555
O7 C20 1_555 1_555
O8 C20 1_555 1_555
O9 C10 1_555 1_555
O10 C23 1_555 1_555
C1 C2 1_555 1_555
C2 H2 1_555 1_555
C3 C2 1_555 1_555
H3 C3 1_555 1_555
C4 C3 1_555 1_555
C5 C4 1_555 1_555
H4 C5 1_555 1_555
C6 O2 1_555 1_555
C7 O3 1_555 1_555
C8 H5 1_555 1_555
C9 C8 1_555 1_555
H6 C9 1_555 1_555
C10 C9 1_555 1_555
C11 C10 1_555 1_555
H7 C11 1_555 1_555
C12 C11 1_555 1_555
H8 C12 1_555 1_555
C13 C14 1_555 1_555
C14 C15 1_555 1_555
C15 H9 1_555 1_555
C16 C15 1_555 1_555
H10 C16 1_555 1_555
C17 C16 1_555 1_555
C18 C13 1_555 1_555
H11 C18 1_555 1_555
C19 O6 1_555 1_555
C20 C14 1_555 1_555
C21 H12 1_555 1_555
C22 C21 1_555 1_555
H13 C22 1_555 1_555
C23 C22 1_555 1_555
C24 C23 1_555 1_555
H14 C24 1_555 1_555
C25 C24 1_555 1_555
H15 C25 1_555 1_555
C26 C1 1_555 1_555
N1 C4 1_555 1_555
N2 C17 1_555 1_555
Gd1_2 O9 1_555 1_555
Gd1A O10 1_555 1_555
Gd1A_2 O5 1_555 1_555
Gd1A_3 O7 1_555 1_555
O5A Gd1 1_555 1_555
O7A Gd1 1_555 1_555
O8A Gd1 1_555 1_555
O9_2 Gd1 1_555 1_555
O10A Gd1 1_555 1_555
O8 Gd1A_3 1_555 1_555
C1 C7 1_555 1_555
C5 C26 1_555 1_555
C6 C26 1_555 1_555
C8 N1 1_555 1_555
C12 N1 1_555 1_555
C13 C19 1_555 1_555
C17 C18 1_555 1_555
C21 N2 1_555 1_555
C25 N2 1_555 1_555

#END
