
#######################################################################
#
#                 Cambridge Crystallographic Data Centre
#                                CCDC 
#
#######################################################################
#
# If this CIF has been generated from an entry in the Cambridge 
# Structural Database, then it will include bibliographic, chemical, 
# crystal, experimental, refinement or atomic coordinate data resulting 
# from the CCDC's data processing and validation procedures.
#
#######################################################################

data_WINJAG
_symmetry_cell_setting           monoclinic
_symmetry_space_group_name_H-M   'P 21/c'
_symmetry_Int_Tables_number      14
_space_group_name_Hall           '-P 2ybc'
loop_
_symmetry_equiv_pos_site_id
_symmetry_equiv_pos_as_xyz
1 x,y,z
2 -x,1/2+y,1/2-z
3 -x,-y,-z
4 x,1/2-y,1/2+z
_cell_length_a                   8.223(4)
_cell_length_b                   15.256(7)
_cell_length_c                   11.677(5)
_cell_angle_alpha                90
_cell_angle_beta                 90.00
_cell_angle_gamma                90
_cell_volume                     1464.88
loop_
_atom_site_label
_atom_site_type_symbol
_atom_site_fract_x
_atom_site_fract_y
_atom_site_fract_z
Pr1 Pr 0.28714(4) 0.368476(18) 0.56890(3)
O1 O 0.2876(5) 0.3321(3) 0.7733(4)
O2 O 0.2916(5) 0.2341(3) 0.9121(4)
O3 O 0.5060(6) 0.0882(3) 0.9495(4)
O4 O 0.5985(7) -0.0095(3) 0.8235(4)
O5 O 0.1439(6) 0.4483(3) 0.4124(4)
O6 O -0.0516(7) 0.5420(4) 0.3675(4)
O7 O 0.0638(6) 0.2630(4) 0.6023(5)
H1 H -0.011(7) 0.284(3) 0.639(7)
H2 H 0.096(6) 0.215(3) 0.621(7)
N1 N 0.4771(6) 0.2390(3) 0.6318(4)
N2 N 0.5916(7) 0.1087(4) 0.6507(5)
N3 N 0.8369(8) 0.2056(5) 0.2712(5)
C1 C 0.3315(7) 0.2597(4) 0.8153(5)
C2 C 0.4383(7) 0.2056(4) 0.7401(5)
C3 C 0.5120(8) 0.1246(3) 0.7525(5)
C4 C 0.5695(8) 0.1784(4) 0.5831(5)
C5 C 0.6581(8) 0.1874(4) 0.4710(5)
C6 C 0.7484(9) 0.2627(5) 0.4523(6)
C7 C 0.8364(10) 0.2675(5) 0.3480(7)
C8 C 0.7461(12) 0.1339(5) 0.2890(7)
C9 C 0.6539(10) 0.1215(5) 0.3888(7)
C10 C 0.5374(8) 0.0626(4) 0.8486(5)
C11 C 0.0267(8) 0.4974(4) 0.4351(5)
O5B O -0.1439(6) 0.5517(3) 0.5876(4)
O6B O 0.0516(7) 0.4580(4) 0.6325(4)
C11B C -0.0267(8) 0.5026(4) 0.5649(5)
Pr1B Pr -0.28714(4) 0.631524(18) 0.43110(3)
O1B O -0.2876(5) 0.6679(3) 0.2267(4)
O2B O -0.2916(5) 0.7659(3) 0.0879(4)
O3B O -0.5060(6) 0.9118(3) 0.0505(4)
O4B O -0.5985(7) 1.0095(3) 0.1765(4)
O7B O -0.0638(6) 0.7370(4) 0.3977(5)
H1B H 0.011(7) 0.716(3) 0.361(7)
H2B H -0.096(6) 0.785(3) 0.379(7)
N1B N -0.4771(6) 0.7610(3) 0.3682(4)
N2B N -0.5916(7) 0.8913(4) 0.3493(5)
N3B N -0.8369(8) 0.7944(5) 0.7288(5)
C1B C -0.3315(7) 0.7403(4) 0.1847(5)
C2B C -0.4383(7) 0.7944(4) 0.2599(5)
C3B C -0.5120(8) 0.8754(3) 0.2475(5)
C4B C -0.5695(8) 0.8216(4) 0.4169(5)
C5B C -0.6581(8) 0.8126(4) 0.5290(5)
C6B C -0.7484(9) 0.7373(5) 0.5477(6)
C7B C -0.8364(10) 0.7325(5) 0.6520(7)
C8B C -0.7461(12) 0.8661(5) 0.7110(7)
C9B C -0.6539(10) 0.8785(5) 0.6112(7)
C10B C -0.5374(8) 0.9374(4) 0.1514(5)
Pr1A Pr -0.28714(4) 0.868476(18) -0.06890(3)
Pr1A_2 Pr 0.71286(4) -0.131524(18) 0.93110(3)
Pr1C Pr -0.71286(4) 1.131524(18) 0.06890(3)
Pr1C_2 Pr 0.28714(4) 0.131524(18) 1.06890(3)
O2A O -0.2916(5) 0.7341(3) 0.5879(4)
O2C O 0.2916(5) 0.2659(3) 0.4121(4)
O3A O -0.5060(6) 0.5882(3) 0.5505(4)
O3C O 0.5060(6) 0.4118(3) 0.4495(4)
O4A O 0.4015(7) 0.4905(3) 0.6765(4)
O4C O -0.4015(7) 0.5095(3) 0.3235(4)
O8 O 0.0784(9) 0.0733(4) 0.6474(6)
H3 H 0.006(3) 0.0368(9) 0.655(8)
H4 H 0.0806 0.1269 0.6490
O9 O -0.1991(8) -0.0304(3) 0.5847(5)
H5 H -0.139(7) -0.0159(19) 0.532(5)
H6 H -0.2323 -0.0702 0.6257
loop_
_geom_bond_atom_site_label_1
_geom_bond_atom_site_label_2
_geom_bond_site_symmetry_1
_geom_bond_site_symmetry_2
Pr1 O1 1_555 1_555
O1 C1 1_555 1_555
O2 C1 1_555 1_555
O3 C10 1_555 1_555
O4 C10 1_555 1_555
O5 Pr1 1_555 1_555
O6 C11 1_555 1_555
O7 Pr1 1_555 1_555
H1 O7 1_555 1_555
H2 O7 1_555 1_555
N1 Pr1 1_555 1_555
N2 C3 1_555 1_555
N3 C7 1_555 1_555
C1 C2 1_555 1_555
C2 N1 1_555 1_555
C3 C2 1_555 1_555
C4 N1 1_555 1_555
C5 C4 1_555 1_555
C6 C5 1_555 1_555
C7 C6 1_555 1_555
C8 N3 1_555 1_555
C9 C5 1_555 1_555
C10 C3 1_555 1_555
C11 O5 1_555 1_555
O8 H3 1_555 1_555
H4 O8 1_555 1_555
O9 H5 1_555 1_555
H6 O9 1_555 1_555
O5B C11B 1_555 1_555
O6B Pr1 1_555 1_555
C11B C11 1_555 1_555
Pr1B O6 1_555 1_555
O1B Pr1B 1_555 1_555
O2B C1B 1_555 1_555
O3B C10B 1_555 1_555
O4B C10B 1_555 1_555
O7B Pr1B 1_555 1_555
H1B O7B 1_555 1_555
H2B O7B 1_555 1_555
N1B Pr1B 1_555 1_555
N2B C3B 1_555 1_555
N3B C7B 1_555 1_555
C1B O1B 1_555 1_555
C2B N1B 1_555 1_555
C3B C2B 1_555 1_555
C4B N1B 1_555 1_555
C5B C4B 1_555 1_555
C6B C5B 1_555 1_555
C7B C6B 1_555 1_555
C8B N3B 1_555 1_555
C9B C5B 1_555 1_555
C10B C3B 1_555 1_555
Pr1A O2B 1_555 1_555
Pr1A_2 O4 1_555 1_555
Pr1C O4B 1_555 1_555
Pr1C_2 O2 1_555 1_555
O2A Pr1B 1_555 1_555
O2C Pr1 1_555 1_555
O3A Pr1B 1_555 1_555
O3C Pr1 1_555 1_555
O4A Pr1 1_555 1_555
O4C Pr1B 1_555 1_555
O3 Pr1C_2 1_555 1_555
N2 C4 1_555 1_555
C8 C9 1_555 1_555
O5B Pr1B 1_555 1_555
O6B C11B 1_555 1_555
O3B Pr1A 1_555 1_555
N2B C4B 1_555 1_555
C1B C2B 1_555 1_555
C8B C9B 1_555 1_555

#END
