
#######################################################################
#
#                 Cambridge Crystallographic Data Centre
#                                CCDC 
#
#######################################################################
#
# If this CIF has been generated from an entry in the Cambridge 
# Structural Database, then it will include bibliographic, chemical, 
# crystal, experimental, refinement or atomic coordinate data resulting 
# from the CCDC's data processing and validation procedures.
#
#######################################################################

data_WINKEL
_symmetry_cell_setting           triclinic
_symmetry_space_group_name_H-M   'P -1'
_symmetry_Int_Tables_number      2
_space_group_name_Hall           '-P 1'
loop_
_symmetry_equiv_pos_site_id
_symmetry_equiv_pos_as_xyz
1 x,y,z
2 -x,-y,-z
_cell_length_a                   7.6350(4)
_cell_length_b                   10.6255(5)
_cell_length_c                   14.3727(8)
_cell_angle_alpha                75.6702(7)
_cell_angle_beta                 84.5632(8)
_cell_angle_gamma                75.8766(7)
_cell_volume                     1094.84
loop_
_atom_site_label
_atom_site_type_symbol
_atom_site_fract_x
_atom_site_fract_y
_atom_site_fract_z
Er1 Er 0.804235(17) 0.414172(12) 0.662384(9)
O1 O 0.7653(3) 0.2072(2) 0.6363(2)
O2 O 0.5295(3) 0.3744(2) 0.60659(19)
O3 O 0.2803(3) 0.3925(2) 0.45924(17)
O4 O 0.0568(3) 0.3652(2) 0.56694(19)
O5 O -0.0421(4) -0.4544(3) 0.7074(2)
O6 O 0.5785(4) 0.5528(3) 0.7477(2)
O7 O 0.5693(6) 0.3484(3) 0.8128(2)
O8 O 0.4511(6) 0.2184(3) 0.9577(3)
H1 H 0.4563 0.2626 0.9007
O9 O 0.3148(4) 0.2504(3) 1.0923(3)
O10 O -0.0240(4) 1.2648(2) 0.78279(19)
N1 N 0.2117(3) -0.1468(3) 0.62825(19)
N2 N 0.1448(4) 0.8676(3) 0.8977(2)
C1 C 0.6002(4) 0.2536(3) 0.6164(2)
C2 C 0.4932(4) 0.1556(3) 0.6072(2)
C3 C 0.5755(4) 0.0212(3) 0.6385(3)
H2 H 0.6939 -0.0017 0.6584
C4 C 0.4886(4) -0.0798(3) 0.6413(3)
H3 H 0.5484 -0.1690 0.6601
C5 C 0.3105(4) -0.0443(3) 0.6153(2)
C6 C 0.2239(4) 0.0885(3) 0.5829(2)
H4 H 0.1044 0.1105 0.5649
C7 C 0.3151(4) 0.1894(3) 0.5772(2)
C8 C 0.2107(4) 0.3284(3) 0.5323(2)
C9 C 0.2900(4) -0.2673(3) 0.6069(2)
H5 H 0.4042 -0.2791 0.5767
C10 C 0.2058(5) -0.3694(3) 0.6285(2)
H6 H 0.2600 -0.4484 0.6100
C11 C 0.0360(4) -0.3581(3) 0.6790(2)
C12 C -0.0416(4) -0.2316(3) 0.7012(3)
H7 H -0.1529 -0.2188 0.7343
C13 C 0.0446(4) -0.1302(3) 0.6748(3)
H8 H -0.0100 -0.0481 0.6884
C14 C 0.5182(5) 0.4713(4) 0.8107(3)
C15 C 0.3817(4) 0.5205(3) 0.8861(2)
C16 C 0.3149(4) 0.4463(3) 0.9715(3)
C17 C 0.1958(5) 0.5152(4) 1.0309(3)
H9 H 0.1537 0.4666 1.0880
C18 C 0.1368(5) 0.6528(4) 1.0091(2)
H10 H 0.0552 0.6959 1.0498
C19 C 0.2029(4) 0.7242(3) 0.9250(2)
C20 C 0.3234(4) 0.6593(3) 0.8648(2)
H11 H 0.3669 0.7093 0.8088
C21 C 0.3617(5) 0.2959(4) 1.0111(3)
C22 C 0.2670(5) 0.9447(4) 0.8652(3)
H12 H 0.3899 0.9050 0.8680
C23 C 0.2132(5) 1.0773(3) 0.8290(3)
H13 H 0.2997 1.1274 0.8082
C24 C 0.0266(5) 1.1422(3) 0.8220(2)
C25 C -0.0956(5) 1.0596(4) 0.8624(3)
H14 H -0.2191 1.0971 0.8641
C26 C -0.0344(5) 0.9269(4) 0.8984(3)
H15 H -0.1171 0.8750 0.9243
Er1_2 Er -0.195765(17) -0.585828(12) 0.662384(9)
Er1_3 Er -0.195765(17) 0.414172(12) 0.662384(9)
Er1_4 Er -0.195765(17) 1.414172(12) 0.662384(9)
Er1A Er 0.195765(17) 0.585828(12) 0.337616(9)
O3A O 0.7197(3) 0.6075(2) 0.54076(17)
O4_2 O 1.0568(3) 0.3652(2) 0.56694(19)
O5_2 O 0.9579(4) 0.5456(3) 0.7074(2)
O10_2 O 0.9760(4) 0.2648(2) 0.78279(19)
loop_
_geom_bond_atom_site_label_1
_geom_bond_atom_site_label_2
_geom_bond_site_symmetry_1
_geom_bond_site_symmetry_2
Er1 O1 1_555 1_555
O1 C1 1_555 1_555
O2 Er1 1_555 1_555
O3 C8 1_555 1_555
O4 C8 1_555 1_555
O5 C11 1_555 1_555
O6 Er1 1_555 1_555
O7 Er1 1_555 1_555
O8 H1 1_555 1_555
O9 C21 1_555 1_555
O10 C24 1_555 1_555
N1 C5 1_555 1_555
N2 C19 1_555 1_555
C1 O2 1_555 1_555
C2 C1 1_555 1_555
C3 C2 1_555 1_555
H2 C3 1_555 1_555
C4 C3 1_555 1_555
H3 C4 1_555 1_555
C5 C4 1_555 1_555
C6 C5 1_555 1_555
H4 C6 1_555 1_555
C7 C2 1_555 1_555
C8 C7 1_555 1_555
C9 N1 1_555 1_555
H5 C9 1_555 1_555
C10 C9 1_555 1_555
H6 C10 1_555 1_555
C11 C10 1_555 1_555
C12 C11 1_555 1_555
H7 C12 1_555 1_555
C13 N1 1_555 1_555
H8 C13 1_555 1_555
C14 O6 1_555 1_555
C15 C14 1_555 1_555
C16 C15 1_555 1_555
C17 C16 1_555 1_555
H9 C17 1_555 1_555
C18 C17 1_555 1_555
H10 C18 1_555 1_555
C19 C18 1_555 1_555
C20 C15 1_555 1_555
H11 C20 1_555 1_555
C21 O8 1_555 1_555
C22 N2 1_555 1_555
H12 C22 1_555 1_555
C23 C22 1_555 1_555
H13 C23 1_555 1_555
C24 C23 1_555 1_555
C25 C24 1_555 1_555
H14 C25 1_555 1_555
C26 N2 1_555 1_555
H15 C26 1_555 1_555
Er1_2 O5 1_555 1_555
Er1_3 O4 1_555 1_555
Er1_4 O10 1_555 1_555
Er1A O3 1_555 1_555
O3A Er1 1_555 1_555
O4_2 Er1 1_555 1_555
O5_2 Er1 1_555 1_555
O10_2 Er1 1_555 1_555
O7 C14 1_555 1_555
C6 C7 1_555 1_555
C12 C13 1_555 1_555
C16 C21 1_555 1_555
C19 C20 1_555 1_555
C25 C26 1_555 1_555

#END
