
#######################################################################
#
#                 Cambridge Crystallographic Data Centre
#                                CCDC 
#
#######################################################################
#
# If this CIF has been generated from an entry in the Cambridge 
# Structural Database, then it will include bibliographic, chemical, 
# crystal, experimental, refinement or atomic coordinate data resulting 
# from the CCDC's data processing and validation procedures.
#
#######################################################################

data_WINKIP
_symmetry_cell_setting           triclinic
_symmetry_space_group_name_H-M   'P -1'
_symmetry_Int_Tables_number      2
_space_group_name_Hall           '-P 1'
loop_
_symmetry_equiv_pos_site_id
_symmetry_equiv_pos_as_xyz
1 x,y,z
2 -x,-y,-z
_cell_length_a                   7.627(2)
_cell_length_b                   10.595(3)
_cell_length_c                   14.368(4)
_cell_angle_alpha                75.900(4)
_cell_angle_beta                 84.592(4)
_cell_angle_gamma                75.795(4)
_cell_volume                     1090.91
loop_
_atom_site_label
_atom_site_type_symbol
_atom_site_fract_x
_atom_site_fract_y
_atom_site_fract_z
Dy1 Dy 0.195147(16) 0.085623(12) 0.338074(9)
O1 O 0.4693(3) 0.1244(2) 0.39348(16)
O2 O 0.2326(3) 0.2922(2) 0.36438(17)
O3 O 0.7196(3) 0.1065(2) 0.54112(14)
O4 O 0.9437(3) 0.1342(2) 0.43299(16)
O5 O 1.0426(3) 0.9543(2) 0.29367(17)
O6 O 0.0258(3) 0.2337(2) 0.21807(16)
O7 O -0.5807(3) 0.9522(3) 0.25068(19)
O8 O -0.5651(6) 1.1548(3) 0.1866(2)
O9 O -0.4466(5) 1.2831(3) 0.0416(2)
H1 H -0.487(8) 1.201(6) 0.153(4)
O10 O -0.3150(4) 1.2498(3) -0.0941(2)
N1 N 0.7876(3) 0.6474(2) 0.37116(17)
N2 N -0.1449(4) 0.6325(3) 0.10271(18)
C1 C 0.3974(4) 0.2466(3) 0.3842(2)
C2 C 0.5060(4) 0.3437(3) 0.3929(2)
C3 C 0.6845(4) 0.3109(3) 0.42341(19)
C4 C 0.7750(4) 0.4110(3) 0.4170(2)
H2 H 0.8950 0.3888 0.4346
C5 C 0.6891(4) 0.5442(3) 0.3845(2)
C6 C 0.5107(4) 0.5797(3) 0.3584(2)
H3 H 0.4511 0.6690 0.3389
C7 C 0.4233(4) 0.4787(3) 0.3622(2)
H4 H 0.3040 0.5018 0.3433
C8 C 0.9538(4) 0.6311(3) 0.3247(2)
H5 H 1.0081 0.5487 0.3109
C9 C 1.0409(4) 0.7315(3) 0.2984(2)
H6 H 1.1522 0.7179 0.2652
C10 C 0.9646(4) 0.8585(3) 0.3207(2)
C11 C 0.7942(4) 0.8698(3) 0.3711(2)
H7 H 0.7398 0.9491 0.3895
C12 C 0.7096(4) 0.7681(3) 0.3927(2)
H8 H 0.5955 0.7803 0.4230
C13 C 0.7892(4) 0.1708(3) 0.46789(19)
C14 C -0.0246(5) 0.3573(3) 0.1787(2)
C15 C -0.2118(5) 0.4214(3) 0.1724(2)
H9 H -0.2978 0.3710 0.1939
C16 C -0.2669(5) 0.5550(3) 0.1357(2)
H10 H -0.3900 0.5945 0.1329
C17 C 0.0350(4) 0.5728(3) 0.1021(2)
H11 H 0.1179 0.6245 0.0763
C18 C 0.0962(5) 0.4394(3) 0.1382(2)
H12 H 0.2198 0.4016 0.1361
C19 C -0.2037(4) 0.7762(3) 0.0753(2)
C20 C -0.3240(4) 0.8419(3) 0.1353(2)
H13 H -0.3680 0.7926 0.1913
C21 C -0.3808(4) 0.9808(3) 0.1135(2)
C22 C -0.3138(4) 1.0540(3) 0.0278(2)
C23 C -0.1956(4) 0.9845(3) -0.0318(2)
H14 H -0.1539 1.0323 -0.0892
C24 C -0.1377(4) 0.8469(3) -0.0088(2)
H15 H -0.0559 0.8028 -0.0491
C25 C -0.5162(5) 1.0327(4) 0.1881(3)
C26 C -0.3599(5) 1.2046(3) -0.0122(3)
Dy1_2 Dy -0.804853(16) 1.085623(12) 0.338074(9)
Dy1_3 Dy 1.195147(16) 0.085623(12) 0.338074(9)
Dy1_4 Dy 1.195147(16) 1.085623(12) 0.338074(9)
Dy1A Dy 0.804853(16) -0.085623(12) 0.661926(9)
O3A O 0.2804(3) -0.1065(2) 0.45888(14)
O4_2 O -0.0563(3) 0.1342(2) 0.43299(16)
O5_2 O 0.0426(3) -0.0457(2) 0.29367(17)
O7_2 O 0.4193(3) -0.0478(3) 0.25068(19)
O8_2 O 0.4349(6) 0.1548(3) 0.1866(2)
loop_
_geom_bond_atom_site_label_1
_geom_bond_atom_site_label_2
_geom_bond_site_symmetry_1
_geom_bond_site_symmetry_2
Dy1 O1 1_555 1_555
O1 C1 1_555 1_555
O2 Dy1 1_555 1_555
O3 C13 1_555 1_555
O4 C13 1_555 1_555
O5 C10 1_555 1_555
O6 Dy1 1_555 1_555
O7 C25 1_555 1_555
O8 H1 1_555 1_555
O9 C26 1_555 1_555
O10 C26 1_555 1_555
N1 C5 1_555 1_555
N2 C16 1_555 1_555
C1 O2 1_555 1_555
C2 C1 1_555 1_555
C3 C2 1_555 1_555
C4 C3 1_555 1_555
H2 C4 1_555 1_555
C5 C4 1_555 1_555
C6 C5 1_555 1_555
H3 C6 1_555 1_555
C7 C2 1_555 1_555
H4 C7 1_555 1_555
C8 N1 1_555 1_555
H5 C8 1_555 1_555
C9 C8 1_555 1_555
H6 C9 1_555 1_555
C10 C9 1_555 1_555
C11 C10 1_555 1_555
H7 C11 1_555 1_555
C12 N1 1_555 1_555
H8 C12 1_555 1_555
C13 C3 1_555 1_555
C14 O6 1_555 1_555
C15 C14 1_555 1_555
H9 C15 1_555 1_555
C16 C15 1_555 1_555
H10 C16 1_555 1_555
C17 N2 1_555 1_555
H11 C17 1_555 1_555
C18 C14 1_555 1_555
H12 C18 1_555 1_555
C19 N2 1_555 1_555
C20 C19 1_555 1_555
H13 C20 1_555 1_555
C21 C20 1_555 1_555
C22 C21 1_555 1_555
C23 C22 1_555 1_555
H14 C23 1_555 1_555
C24 C19 1_555 1_555
H15 C24 1_555 1_555
C25 O8 1_555 1_555
C26 C22 1_555 1_555
Dy1_2 O7 1_555 1_555
Dy1_3 O4 1_555 1_555
Dy1_4 O5 1_555 1_555
Dy1A O3 1_555 1_555
O3A Dy1 1_555 1_555
O4_2 Dy1 1_555 1_555
O5_2 Dy1 1_555 1_555
O7_2 Dy1 1_555 1_555
O8_2 Dy1 1_555 1_555
O8 Dy1_2 1_555 1_555
C6 C7 1_555 1_555
C11 C12 1_555 1_555
C17 C18 1_555 1_555
C21 C25 1_555 1_555
C23 C24 1_555 1_555

#END
