
#######################################################################
#
#                 Cambridge Crystallographic Data Centre
#                                CCDC 
#
#######################################################################
#
# If this CIF has been generated from an entry in the Cambridge 
# Structural Database, then it will include bibliographic, chemical, 
# crystal, experimental, refinement or atomic coordinate data resulting 
# from the CCDC's data processing and validation procedures.
#
#######################################################################

data_WINLAI
_symmetry_cell_setting           monoclinic
_symmetry_space_group_name_H-M   'P 21/c'
_symmetry_Int_Tables_number      14
_space_group_name_Hall           '-P 2ybc'
loop_
_symmetry_equiv_pos_site_id
_symmetry_equiv_pos_as_xyz
1 x,y,z
2 -x,1/2+y,1/2-z
3 -x,-y,-z
4 x,1/2-y,1/2+z
_cell_length_a                   9.4709(11)
_cell_length_b                   19.227(2)
_cell_length_c                   13.7580(17)
_cell_angle_alpha                90
_cell_angle_beta                 106.206(2)
_cell_angle_gamma                90
_cell_volume                     2405.74
loop_
_atom_site_label
_atom_site_type_symbol
_atom_site_fract_x
_atom_site_fract_y
_atom_site_fract_z
Co1 Co 0.03050(5) 0.14614(2) -0.14032(3)
C1 C 0.0732(3) 0.20061(17) 0.0838(3)
H1 H 0.0672 0.2448 0.0553
N1 N 0.0738(3) 0.14518(14) 0.0241(2)
O1 O 0.0774(3) -0.00863(12) 0.29757(18)
O2 O 0.0677(2) -0.05043(11) 0.14473(17)
N2 N 0.2396(3) 0.09851(14) -0.1278(2)
C2 C 0.0809(3) 0.19511(17) 0.1857(2)
O3 O 0.0297(3) 0.31533(12) 0.20537(18)
N3 N 0.4141(3) 0.02951(14) -0.1561(2)
C3 C 0.0755(3) 0.25803(18) 0.2485(3)
O4 O 0.1138(2) 0.25232(12) 0.34391(17)
N4 N 0.3516(3) -0.22801(15) -0.3532(2)
C4 C 0.0876(4) 0.12938(17) 0.2277(3)
H2 H 0.0923 0.1243 0.2958
C5 C 0.0871(3) 0.07110(16) 0.1685(2)
N5 N 0.1773(3) -0.30049(15) -0.3322(2)
C6 C 0.0788(4) -0.00153(17) 0.2080(3)
C7 C 0.0829(3) 0.08207(17) 0.0680(2)
H3 H 0.0865 0.0433 0.0283
C8 C 0.2696(4) 0.04595(17) -0.1798(3)
H4 H 0.1980 0.0222 -0.2284
C9 C 0.4863(4) 0.07646(17) -0.0829(3)
C10 C 0.3768(4) 0.11993(17) -0.0657(3)
C11 C 0.4156(4) 0.17521(19) 0.0021(3)
H5 H 0.3448 0.2053 0.0132
C12 C 0.5622(4) 0.18359(19) 0.0521(3)
H6 H 0.5904 0.2199 0.0981
C13 C 0.6699(4) 0.1390(2) 0.0354(3)
H7 H 0.7676 0.1460 0.0715
C14 C 0.6349(4) 0.08508(19) -0.0332(3)
H8 H 0.7066 0.0561 -0.0455
C15 C 0.4899(4) -0.02541(18) -0.1962(3)
H9 H 0.5386 -0.0558 -0.1408
H10 H 0.5657 -0.0039 -0.2211
C16 C 0.3947(4) -0.06958(18) -0.2802(3)
H11 H 0.3374 -0.0401 -0.3341
H12 H 0.3273 -0.0973 -0.2545
C17 C 0.4945(4) -0.1170(2) -0.3206(3)
H13 H 0.5541 -0.0881 -0.3514
H14 H 0.5606 -0.1407 -0.2636
C18 C 0.4177(4) -0.17127(19) -0.3973(3)
H15 H 0.3413 -0.1487 -0.4497
H16 H 0.4882 -0.1909 -0.4289
C19 C 0.2070(4) -0.24490(19) -0.3787(3)
H17 H 0.1352 -0.2195 -0.4249
C20 C 0.4230(4) -0.27689(19) -0.2826(3)
C21 C 0.3137(4) -0.32130(19) -0.2676(3)
C22 C 0.3490(4) -0.37331(19) -0.1954(3)
H18 H 0.2769 -0.4017 -0.1823
C23 C 0.4953(5) -0.3814(2) -0.1436(3)
H19 H 0.5221 -0.4158 -0.0944
C24 C 0.6041(5) -0.3393(2) -0.1632(3)
H20 H 0.7019 -0.3473 -0.1281
C25 C 0.5708(4) -0.2868(2) -0.2326(3)
H21 H 0.6436 -0.2589 -0.2458
Co1A Co -0.03050(5) -0.35386(2) -0.35968(3)
Co1B Co -0.03050(5) -0.14614(2) 0.14032(3)
Co1C Co 0.03050(5) 0.35386(2) 0.35968(3)
O2B O -0.0677(2) 0.05043(11) -0.14473(17)
O3C O 0.0297(3) 0.18467(12) -0.29463(18)
O4C O 0.1138(2) 0.24768(12) -0.15609(17)
N5A N -0.1773(3) 0.19951(15) -0.1678(2)
O5 O -0.0338(4) 0.10920(17) -0.4789(2)
H22 H -0.0506 0.1515 -0.4686
H23 H 0.0300 0.0954 -0.4243
H24 H 0.2871 0.0302 -0.4939
O6 O 0.1960(4) 0.0212(2) -0.5026(3)
H25 H 0.1581 0.0196 -0.5666
loop_
_geom_bond_atom_site_label_1
_geom_bond_atom_site_label_2
_geom_bond_site_symmetry_1
_geom_bond_site_symmetry_2
Co1 N1 1_555 1_555
C1 H1 1_555 1_555
N1 C1 1_555 1_555
O1 C6 1_555 1_555
O2 C6 1_555 1_555
N2 Co1 1_555 1_555
C2 C1 1_555 1_555
O3 C3 1_555 1_555
N3 C8 1_555 1_555
C3 C2 1_555 1_555
O4 C3 1_555 1_555
N4 C18 1_555 1_555
C4 C2 1_555 1_555
H2 C4 1_555 1_555
C5 C4 1_555 1_555
N5 C19 1_555 1_555
C6 C5 1_555 1_555
C7 N1 1_555 1_555
H3 C7 1_555 1_555
C8 N2 1_555 1_555
H4 C8 1_555 1_555
C9 N3 1_555 1_555
C10 N2 1_555 1_555
C11 C10 1_555 1_555
H5 C11 1_555 1_555
C12 C11 1_555 1_555
H6 C12 1_555 1_555
C13 C12 1_555 1_555
H7 C13 1_555 1_555
C14 C9 1_555 1_555
H8 C14 1_555 1_555
C15 N3 1_555 1_555
H9 C15 1_555 1_555
H10 C15 1_555 1_555
C16 C15 1_555 1_555
H11 C16 1_555 1_555
H12 C16 1_555 1_555
C17 C16 1_555 1_555
H13 C17 1_555 1_555
H14 C17 1_555 1_555
C18 C17 1_555 1_555
H15 C18 1_555 1_555
H16 C18 1_555 1_555
C19 N4 1_555 1_555
H17 C19 1_555 1_555
C20 N4 1_555 1_555
C21 N5 1_555 1_555
C22 C21 1_555 1_555
H18 C22 1_555 1_555
C23 C22 1_555 1_555
H19 C23 1_555 1_555
C24 C23 1_555 1_555
H20 C24 1_555 1_555
C25 C20 1_555 1_555
H21 C25 1_555 1_555
O5 H22 1_555 1_555
H23 O5 1_555 1_555
H24 O6 1_555 1_555
O6 H25 1_555 1_555
Co1A N5 1_555 1_555
Co1B O2 1_555 1_555
Co1C O3 1_555 1_555
O2B Co1 1_555 1_555
O3C Co1 1_555 1_555
O4C Co1 1_555 1_555
N5A Co1 1_555 1_555
O4 Co1C 1_555 1_555
C5 C7 1_555 1_555
C9 C10 1_555 1_555
C13 C14 1_555 1_555
C20 C21 1_555 1_555
C24 C25 1_555 1_555

#END
