
#######################################################################
#
#                 Cambridge Crystallographic Data Centre
#                                CCDC 
#
#######################################################################
#
# If this CIF has been generated from an entry in the Cambridge 
# Structural Database, then it will include bibliographic, chemical, 
# crystal, experimental, refinement or atomic coordinate data resulting 
# from the CCDC's data processing and validation procedures.
#
#######################################################################

data_WINVEW
_symmetry_cell_setting           monoclinic
_symmetry_space_group_name_H-M   'C 2/c'
_symmetry_Int_Tables_number      15
_space_group_name_Hall           '-C 2yn'
loop_
_symmetry_equiv_pos_site_id
_symmetry_equiv_pos_as_xyz
1 x,y,z
2 -x,y,1/2-z
3 1/2+x,1/2+y,z
4 1/2-x,1/2+y,1/2-z
5 -x,-y,-z
6 x,-y,1/2+z
7 1/2-x,1/2-y,-z
8 1/2+x,1/2-y,1/2+z
_cell_length_a                   13.698(3)
_cell_length_b                   10.820(2)
_cell_length_c                   9.954(2)
_cell_angle_alpha                90
_cell_angle_beta                 107.16(3)
_cell_angle_gamma                90
_cell_volume                     1409.63
loop_
_atom_site_label
_atom_site_type_symbol
_atom_site_fract_x
_atom_site_fract_y
_atom_site_fract_z
Gd1 Gd 0.5000 0.86441(2) 0.2500
O1 O 0.4390(2) 0.6403(2) 0.1525(3)
O2 O 0.62156(18) 1.1158(2) -0.0359(2)
O3 O 0.5000 0.4660(4) 0.2500
O4 O 0.57949(17) 1.0331(2) 0.1809(2)
O5 O 0.87889(18) 1.2779(2) 0.3475(2)
O6 O 0.75746(19) 1.0291(3) 0.1714(3)
P1 P 0.65234(6) 1.09906(8) 0.12018(8)
N1 N 0.7174(2) 1.2486(3) 0.3520(3)
N2 N 0.5000 0.5788(5) 0.2500
C1 C 0.8163(2) 1.2643(3) 0.4146(3)
C2 C 0.8571(3) 1.2648(4) 0.5717(4)
C3 C 0.6771(3) 1.2519(3) 0.1972(3)
H1 H 0.910(3) 1.202(4) 0.600(4)
H2 H 0.893(3) 1.340(4) 0.602(4)
H3 H 0.614(3) 1.300(4) 0.172(4)
H4 H 0.723(3) 1.298(4) 0.165(4)
H5 H 0.796(3) 1.058(5) 0.151(5)
O1A O 0.5610(2) 0.6403(2) 0.3475(3)
O4F O 0.92051(17) 1.4669(2) 0.8191(2)
O6F O 0.74254(19) 1.4709(3) 0.8286(3)
P1F P 0.84766(6) 1.40094(8) 0.87982(8)
C3F C 0.8229(3) 1.2481(3) 0.8028(3)
H3F H 0.886(3) 1.200(4) 0.828(4)
H4F H 0.777(3) 1.202(4) 0.835(4)
H5F H 0.704(3) 1.442(5) 0.849(5)
O5F O 0.62111(18) 1.2221(2) 0.6525(2)
N1F N 0.7826(2) 1.2514(3) 0.6480(3)
C1F C 0.6837(2) 1.2357(3) 0.5854(3)
C2F C 0.6429(3) 1.2352(4) 0.4283(4)
H1F H 0.590(3) 1.298(4) 0.400(4)
H2F H 0.607(3) 1.160(4) 0.398(4)
O2F O 0.87844(18) 1.3842(2) 1.0359(2)
Gd1B Gd 1.0000 1.36441(2) 0.2500
Gd1B_2 Gd 1.0000 1.36441(2) 1.2500
Gd1D Gd 0.5000 1.13559(2) -0.2500
Gd1D_2 Gd 0.5000 1.13559(2) 0.7500
Gd1F Gd 1.0000 1.63559(2) 0.7500
O2D O 0.37844(18) 0.8842(2) 0.0359(2)
O2E O 0.62156(18) 0.8842(2) 0.4641(2)
O4A O 0.42051(17) 1.0331(2) 0.3191(2)
O5B O 0.37889(18) 0.7779(2) 0.3475(2)
O5C O 0.62111(18) 0.7779(2) 0.1525(2)
loop_
_geom_bond_atom_site_label_1
_geom_bond_atom_site_label_2
_geom_bond_site_symmetry_1
_geom_bond_site_symmetry_2
Gd1 O1 1_555 1_555
O1 N2 1_555 1_555
O2 P1 1_555 1_555
O3 N2 1_555 1_555
O4 Gd1 1_555 1_555
O5 C1 1_555 1_555
O6 P1 1_555 1_555
P1 O4 1_555 1_555
N1 C1 1_555 1_555
N2 O1A 1_555 1_555
C1 C2 1_555 1_555
C2 H1 1_555 1_555
C3 P1 1_555 1_555
H2 C2 1_555 1_555
H3 C3 1_555 1_555
H4 C3 1_555 1_555
H5 O6 1_555 1_555
O1A Gd1 1_555 1_555
O4F P1F 1_555 1_555
O6F P1F 1_555 1_555
P1F C3F 1_555 1_555
C3F H3F 1_555 1_555
H4F C3F 1_555 1_555
H5F O6F 1_555 1_555
O5F C1F 1_555 1_555
N1F C2 1_555 1_555
C1F N1F 1_555 1_555
C2F N1 1_555 1_555
H1F C2F 1_555 1_555
H2F C2F 1_555 1_555
O2F P1F 1_555 1_555
Gd1B O5 1_555 1_555
Gd1B_2 O2F 1_555 1_555
Gd1D O2 1_555 1_555
Gd1D_2 O5F 1_555 1_555
Gd1F O4F 1_555 1_555
O2D Gd1 1_555 1_555
O2E Gd1 1_555 1_555
O4A Gd1 1_555 1_555
O5B Gd1 1_555 1_555
O5C Gd1 1_555 1_555
N1 C3 1_555 1_555
C3F N1F 1_555 1_555
C1F C2F 1_555 1_555

#END
