
#######################################################################
#
#                 Cambridge Crystallographic Data Centre
#                                CCDC 
#
#######################################################################
#
# If this CIF has been generated from an entry in the Cambridge 
# Structural Database, then it will include bibliographic, chemical, 
# crystal, experimental, refinement or atomic coordinate data resulting 
# from the CCDC's data processing and validation procedures.
#
#######################################################################

data_WINVIA
_symmetry_cell_setting           monoclinic
_symmetry_space_group_name_H-M   'C 2/c'
_symmetry_Int_Tables_number      15
_space_group_name_Hall           '-C 2yn'
loop_
_symmetry_equiv_pos_site_id
_symmetry_equiv_pos_as_xyz
1 x,y,z
2 -x,y,1/2-z
3 1/2+x,1/2+y,z
4 1/2-x,1/2+y,1/2-z
5 -x,-y,-z
6 x,-y,1/2+z
7 1/2-x,1/2-y,-z
8 1/2+x,1/2-y,1/2+z
_cell_length_a                   13.710(4)
_cell_length_b                   10.753(3)
_cell_length_c                   9.960(3)
_cell_angle_alpha                90
_cell_angle_beta                 107.421(4)
_cell_angle_gamma                90
_cell_volume                     1400.99
loop_
_atom_site_label
_atom_site_type_symbol
_atom_site_fract_x
_atom_site_fract_y
_atom_site_fract_z
Eu1 Eu 0.5000 0.363486(16) 0.2500
P1 P 0.65282(5) 0.59955(6) 0.12048(6)
O1 O 0.57892(14) 0.53366(17) 0.17991(18)
O2 O 0.62315(15) 0.61579(18) -0.03601(19)
O3 O 0.75844(15) 0.52862(19) 0.1741(2)
O4 O 0.87971(15) 0.77655(18) 0.3492(2)
O5 O 0.43795(16) 0.13939(18) 0.1525(2)
O6 O 0.5000 -0.0365(3) 0.2500
N1 N 0.71750(17) 0.7490(2) 0.3520(2)
N2 N 0.5000 0.0779(3) 0.2500
C1 C 0.6778(2) 0.7533(2) 0.1976(3)
H1 H 0.7281 0.7961 0.1601
H2 H 0.6138 0.8024 0.1699
C2 C 0.8166(2) 0.7636(2) 0.4152(3)
C3 C 0.8580(2) 0.7633(3) 0.5732(3)
H3 H 0.9075 0.6941 0.6020
H4 H 0.8960 0.8418 0.6033
H5 H 0.802(3) 0.555(4) 0.152(4)
P1F P 0.84718(5) 0.90045(6) 0.87952(6)
O1F O 0.92108(14) 0.96634(17) 0.82009(18)
O2F O 0.87685(15) 0.88421(18) 1.03601(19)
O3F O 0.74156(15) 0.97138(19) 0.8259(2)
O4F O 0.62029(15) 0.72345(18) 0.6508(2)
N1F N 0.78250(17) 0.7510(2) 0.6480(2)
C1F C 0.8222(2) 0.7467(2) 0.8024(3)
H1F H 0.7719 0.7039 0.8399
H2F H 0.8862 0.6976 0.8301
C2F C 0.6834(2) 0.7364(2) 0.5848(3)
C3F C 0.6420(2) 0.7367(3) 0.4268(3)
H3F H 0.5925 0.8059 0.3980
H4F H 0.6040 0.6582 0.3967
H5F H 0.698(3) 0.945(4) 0.848(4)
O5A O 0.56205(16) 0.13939(18) 0.3475(2)
Eu1B Eu 1.0000 0.863486(16) 0.2500
Eu1B_2 Eu 1.0000 0.863486(16) 1.2500
Eu1D Eu 0.5000 0.636514(16) -0.2500
Eu1D_2 Eu 0.5000 0.636514(16) 0.7500
Eu1F Eu 1.0000 1.136514(16) 0.7500
O1A O 0.42108(14) 0.53366(17) 0.32009(18)
O2D O 0.37685(15) 0.38421(18) 0.03601(19)
O2E O 0.62315(15) 0.38421(18) 0.46399(19)
O4B O 0.37971(15) 0.27655(18) 0.3492(2)
O4C O 0.62029(15) 0.27655(18) 0.1508(2)
loop_
_geom_bond_atom_site_label_1
_geom_bond_atom_site_label_2
_geom_bond_site_symmetry_1
_geom_bond_site_symmetry_2
Eu1 O1 1_555 1_555
P1 O1 1_555 1_555
O2 P1 1_555 1_555
O3 P1 1_555 1_555
O4 C2 1_555 1_555
O5 Eu1 1_555 1_555
O6 N2 1_555 1_555
N1 C1 1_555 1_555
N2 O5 1_555 1_555
C1 P1 1_555 1_555
H1 C1 1_555 1_555
H2 C1 1_555 1_555
C2 N1 1_555 1_555
C3 C2 1_555 1_555
H3 C3 1_555 1_555
H4 C3 1_555 1_555
H5 O3 1_555 1_555
P1F O1F 1_555 1_555
O1F Eu1F 1_555 1_555
O2F P1F 1_555 1_555
O3F P1F 1_555 1_555
O4F C2F 1_555 1_555
N1F C3 1_555 1_555
C1F P1F 1_555 1_555
H1F C1F 1_555 1_555
H2F C1F 1_555 1_555
C2F N1F 1_555 1_555
C3F N1 1_555 1_555
H3F C3F 1_555 1_555
H4F C3F 1_555 1_555
H5F O3F 1_555 1_555
O5A Eu1 1_555 1_555
Eu1B O4 1_555 1_555
Eu1B_2 O2F 1_555 1_555
Eu1D O2 1_555 1_555
Eu1D_2 O4F 1_555 1_555
O1A Eu1 1_555 1_555
O2D Eu1 1_555 1_555
O2E Eu1 1_555 1_555
O4B Eu1 1_555 1_555
O4C Eu1 1_555 1_555
N2 O5A 1_555 1_555
N1F C1F 1_555 1_555
C2F C3F 1_555 1_555

#END
