
#######################################################################
#
#                 Cambridge Crystallographic Data Centre
#                                CCDC 
#
#######################################################################
#
# If this CIF has been generated from an entry in the Cambridge 
# Structural Database, then it will include bibliographic, chemical, 
# crystal, experimental, refinement or atomic coordinate data resulting 
# from the CCDC's data processing and validation procedures.
#
#######################################################################

data_WINVIZ01
_symmetry_cell_setting           orthorhombic
_symmetry_space_group_name_H-M   'P b c a'
_symmetry_Int_Tables_number      61
_space_group_name_Hall           '-P 2ac 2ab'
loop_
_symmetry_equiv_pos_site_id
_symmetry_equiv_pos_as_xyz
1 x,y,z
2 1/2-x,-y,1/2+z
3 -x,1/2+y,1/2-z
4 1/2+x,1/2-y,-z
5 -x,-y,-z
6 1/2+x,y,1/2-z
7 x,1/2-y,1/2+z
8 1/2-x,1/2+y,z
_cell_length_a                   8.623(3)
_cell_length_b                   9.893(3)
_cell_length_c                   18.924(5)
_cell_angle_alpha                90
_cell_angle_beta                 90
_cell_angle_gamma                90
_cell_volume                     1614.36
loop_
_atom_site_label
_atom_site_type_symbol
_atom_site_fract_x
_atom_site_fract_y
_atom_site_fract_z
Cu1 Cu 1.12942(3) 0.14794(3) 0.351455(15)
P1 P 1.30373(7) 0.01399(6) 0.14347(3)
C1 C 1.3444(3) 0.0260(2) 0.23832(13)
H1 H 1.4298 -0.0353 0.2501
C2 C 1.3910(3) 0.1697(2) 0.25754(13)
O1 O 1.2118(2) -0.01073(17) 0.27818(9)
H2 H 1.2116 -0.0927 0.2845
O2 O 1.31411(19) 0.23080(16) 0.30487(9)
O3 O 1.50089(19) 0.22468(16) 0.22513(9)
O4 O 1.2400(2) -0.12267(17) 0.12682(10)
O5 O 1.1736(2) 0.12007(18) 0.12740(11)
H3 H 1.2106 0.1964 0.1283
O6 O 1.4538(2) 0.05066(18) 0.10577(9)
O7 O 1.2581(2) 0.0957(2) 0.43315(10)
H4 H 1.3129 0.1596 0.4448
O8 O 1.0717(3) 0.3583(2) 0.41525(14)
H5 H 0.989(5) 0.375(4) 0.403(2)
H7 H 1.051(4) 0.334(4) 0.450(2)
H8 H 1.304(4) 0.035(4) 0.429(2)
Cu1E Cu 1.62942(3) 0.14794(3) 0.148545(15)
O3E O 1.00089(19) 0.22468(16) 0.27487(9)
O6E O 0.9538(2) 0.05066(18) 0.39423(9)
O9 O 0.4438(3) 0.3040(2) 0.47415(14)
H6 H 0.432(5) 0.351(4) 0.508(2)
H9 H 0.478(6) 0.349(4) 0.448(2)
loop_
_geom_bond_atom_site_label_1
_geom_bond_atom_site_label_2
_geom_bond_site_symmetry_1
_geom_bond_site_symmetry_2
Cu1 O1 1_555 1_555
P1 C1 1_555 1_555
C1 H1 1_555 1_555
C2 C1 1_555 1_555
O1 C1 1_555 1_555
H2 O1 1_555 1_555
O2 Cu1 1_555 1_555
O3 C2 1_555 1_555
O4 P1 1_555 1_555
O5 P1 1_555 1_555
H3 O5 1_555 1_555
O6 P1 1_555 1_555
O7 Cu1 1_555 1_555
H4 O7 1_555 1_555
O8 Cu1 1_555 1_555
O9 H6 1_555 1_555
H5 O8 1_555 1_555
H7 O8 1_555 1_555
H8 O7 1_555 1_555
H9 O9 1_555 1_555
Cu1E O3 1_555 1_555
O3E Cu1 1_555 1_555
O6E Cu1 1_555 1_555
C2 O2 1_555 1_555
O6 Cu1E 1_555 1_555

#END
