
#######################################################################
#
#                 Cambridge Crystallographic Data Centre
#                                CCDC 
#
#######################################################################
#
# If this CIF has been generated from an entry in the Cambridge 
# Structural Database, then it will include bibliographic, chemical, 
# crystal, experimental, refinement or atomic coordinate data resulting 
# from the CCDC's data processing and validation procedures.
#
#######################################################################

data_WINXIC
_symmetry_cell_setting           monoclinic
_symmetry_space_group_name_H-M   'P 21/c'
_symmetry_Int_Tables_number      14
_space_group_name_Hall           '-P 2ybc'
loop_
_symmetry_equiv_pos_site_id
_symmetry_equiv_pos_as_xyz
1 x,y,z
2 -x,1/2+y,1/2-z
3 -x,-y,-z
4 x,1/2-y,1/2+z
_cell_length_a                   9.175(3)
_cell_length_b                   10.157(3)
_cell_length_c                   10.215(2)
_cell_angle_alpha                90
_cell_angle_beta                 117.48(2)
_cell_angle_gamma                90
_cell_volume                     844.535
loop_
_atom_site_label
_atom_site_type_symbol
_atom_site_fract_x
_atom_site_fract_y
_atom_site_fract_z
Ni1 Ni 0.00000 0.50000 0.00000
Ni2 Ni 0.00000 0.50000 0.50000
C1 C 0.025(3) 0.509(4) 0.325(3)
N1 N 0.026(2) 0.509(3) 0.214(4)
C2 C 0.001(3) 0.686(4) 0.524(3)
N2 N 0.001(2) 0.798(3) 0.524(4)
N3 N 0.286(3) 0.495(5) 0.092(4)
N4 N 0.545(3) 0.484(3) 0.205(5)
C3 C 0.405(4) 0.542(3) 0.184(3)
C4 C 0.535(3) 0.394(4) 0.133(4)
C5 C 0.634(2) 0.293(4) 0.093(4)
C6 C 0.553(4) 0.208(5) -0.005(4)
C7 C 0.386(4) 0.187(3) -0.075(5)
C8 C 0.293(3) 0.267(3) -0.073(3)
C9 C 0.363(4) 0.365(4) 0.054(5)
C1B C -0.025(3) 0.491(4) -0.325(3)
N1B N -0.026(2) 0.491(3) -0.214(4)
N3B N -0.286(3) 0.505(5) -0.092(4)
N4B N -0.545(3) 0.516(3) -0.205(5)
C3B C -0.405(4) 0.458(3) -0.184(3)
C4B C -0.535(3) 0.606(4) -0.133(4)
C5B C -0.634(2) 0.707(4) -0.093(4)
C6B C -0.553(4) 0.792(5) 0.005(4)
C7B C -0.386(4) 0.813(3) 0.075(5)
C8B C -0.293(3) 0.733(3) 0.073(3)
C9B C -0.363(4) 0.635(4) -0.054(5)
C2C C 0.001(3) 0.814(4) 0.024(3)
N2C N 0.001(2) 0.702(3) 0.024(4)
Ni1A Ni 0.00000 1.00000 0.50000
Ni2_2 Ni 0.00000 0.50000 -0.50000
Ni2A Ni 0.00000 1.00000 0.00000
C1B_2 C -0.025(3) 0.491(4) 0.675(3)
C2B C -0.001(3) 0.314(4) 0.476(3)
N2A N -0.001(2) 0.298(3) -0.024(4)
loop_
_geom_bond_atom_site_label_1
_geom_bond_atom_site_label_2
_geom_bond_site_symmetry_1
_geom_bond_site_symmetry_2
Ni1 N1 1_555 1_555
Ni2 C1 1_555 1_555
C1 N1 1_555 1_555
C2 Ni2 1_555 1_555
N2 C2 1_555 1_555
N3 Ni1 1_555 1_555
N4 C3 1_555 1_555
C3 N3 1_555 1_555
C4 N4 1_555 1_555
C5 C4 1_555 1_555
C6 C5 1_555 1_555
C7 C6 1_555 1_555
C8 C7 1_555 1_555
C9 N3 1_555 1_555
C1B N1B 1_555 1_555
N1B Ni1 1_555 1_555
N3B Ni1 1_555 1_555
N4B C3B 1_555 1_555
C3B N3B 1_555 1_555
C4B N4B 1_555 1_555
C5B C4B 1_555 1_555
C6B C5B 1_555 1_555
C7B C6B 1_555 1_555
C8B C7B 1_555 1_555
C9B N3B 1_555 1_555
C2C N2C 1_555 1_555
N2C Ni1 1_555 1_555
Ni1A N2 1_555 1_555
Ni2_2 C1B 1_555 1_555
Ni2A C2C 1_555 1_555
C1B_2 Ni2 1_555 1_555
C2B Ni2 1_555 1_555
N2A Ni1 1_555 1_555
C4 C9 1_555 1_555
C8 C9 1_555 1_555
C4B C9B 1_555 1_555
C8B C9B 1_555 1_555

#END
