
#######################################################################
#
#                 Cambridge Crystallographic Data Centre
#                                CCDC 
#
#######################################################################
#
# If this CIF has been generated from an entry in the Cambridge 
# Structural Database, then it will include bibliographic, chemical, 
# crystal, experimental, refinement or atomic coordinate data resulting 
# from the CCDC's data processing and validation procedures.
#
#######################################################################

data_WINXEY
_symmetry_cell_setting           orthorhombic
_symmetry_space_group_name_H-M   'P n c 2'
_symmetry_Int_Tables_number      30
_space_group_name_Hall           'P 2 -2bc'
loop_
_symmetry_equiv_pos_site_id
_symmetry_equiv_pos_as_xyz
1 x,y,z
2 -x,1/2+y,1/2+z
3 x,1/2-y,1/2+z
4 -x,-y,z
_cell_length_a                   7.183(2)
_cell_length_b                   14.641(4)
_cell_length_c                   7.177(2)
_cell_angle_alpha                90
_cell_angle_beta                 90
_cell_angle_gamma                90
_cell_volume                     754.779
loop_
_atom_site_label
_atom_site_type_symbol
_atom_site_fract_x
_atom_site_fract_y
_atom_site_fract_z
Ni1 Ni 0.00000 0.50000 0.032(2)
C1 C 0.185(2) 0.497(3) -0.157(3)
C2 C 0.196(2) 0.501(3) 0.211(3)
N1 N 0.296(2) 0.497(3) -0.274(3)
N2 N 0.315(2) 0.501(3) 0.319(3)
Ni2 Ni 0.50000 0.50000 -0.476(2)
N3 N 0.454(2) 0.363(3) -0.483(2)
C3 C 0.282(2) 0.333(3) -0.434(2)
C4 C 0.592(2) 0.303(3) -0.514(2)
C5 C 0.292(2) 0.245(3) -0.414(3)
N4 N 0.522(2) 0.213(3) -0.495(3)
C6 C 0.845(2) 0.256(3) -0.482(2)
C7 C 0.893(2) 0.334(3) -0.338(2)
C1C C -0.185(2) 0.503(3) -0.157(3)
C2C C -0.196(2) 0.499(3) 0.211(3)
N1C N -0.296(2) 0.503(3) -0.274(3)
N2C N -0.315(2) 0.499(3) 0.319(3)
N3C N 0.546(2) 0.637(3) -0.483(2)
C3C C 0.718(2) 0.667(3) -0.434(2)
C4C C 0.408(2) 0.697(3) -0.514(2)
C5C C 0.708(2) 0.755(3) -0.414(3)
N4C N 0.478(2) 0.787(3) -0.495(3)
C6C C 0.155(2) 0.744(3) -0.482(2)
C7C C 0.107(2) 0.666(3) -0.338(2)
N1C_2 N 0.704(2) 0.503(3) -0.274(3)
N2_2 N 0.315(2) 0.501(3) -0.681(3)
N2C_2 N 0.685(2) 0.499(3) -0.681(3)
Ni2_2 Ni -0.50000 0.50000 -0.476(2)
Ni2_3 Ni -0.50000 0.50000 0.524(2)
Ni2_4 Ni 0.50000 0.50000 0.524(2)
loop_
_geom_bond_atom_site_label_1
_geom_bond_atom_site_label_2
_geom_bond_site_symmetry_1
_geom_bond_site_symmetry_2
Ni1 C1 1_555 1_555
C1 N1 1_555 1_555
C2 Ni1 1_555 1_555
N1 Ni2 1_555 1_555
N2 C2 1_555 1_555
Ni2 N3 1_555 1_555
N3 C3 1_555 1_555
C3 C5 1_555 1_555
C4 N3 1_555 1_555
C5 N4 1_555 1_555
N4 C4 1_555 1_555
C6 C4 1_555 1_555
C7 C6 1_555 1_555
C1C Ni1 1_555 1_555
C2C Ni1 1_555 1_555
N1C C1C 1_555 1_555
N2C C2C 1_555 1_555
N3C Ni2 1_555 1_555
C3C N3C 1_555 1_555
C4C N3C 1_555 1_555
C5C C3C 1_555 1_555
N4C C4C 1_555 1_555
C6C C4C 1_555 1_555
C7C C6C 1_555 1_555
N1C_2 Ni2 1_555 1_555
N2_2 Ni2 1_555 1_555
N2C_2 Ni2 1_555 1_555
Ni2_2 N1C 1_555 1_555
Ni2_3 N2C 1_555 1_555
Ni2_4 N2 1_555 1_555
C5C N4C 1_555 1_555

#END
