
#######################################################################
#
#                 Cambridge Crystallographic Data Centre
#                                CCDC 
#
#######################################################################
#
# If this CIF has been generated from an entry in the Cambridge 
# Structural Database, then it will include bibliographic, chemical, 
# crystal, experimental, refinement or atomic coordinate data resulting 
# from the CCDC's data processing and validation procedures.
#
#######################################################################

data_WINXOH
_symmetry_cell_setting           orthorhombic
_symmetry_space_group_name_H-M   'F d d 2'
_symmetry_Int_Tables_number      43
_space_group_name_Hall           'F 2 -2d'
loop_
_symmetry_equiv_pos_site_id
_symmetry_equiv_pos_as_xyz
1 x,y,z
2 -x,-y,z
3 1/4+x,1/4-y,1/4+z
4 1/4-x,1/4+y,1/4+z
5 x,1/2+y,1/2+z
6 -x,1/2-y,1/2+z
7 1/4+x,3/4-y,3/4+z
8 1/4-x,3/4+y,3/4+z
9 1/2+x,y,1/2+z
10 1/2-x,-y,1/2+z
11 3/4+x,1/4-y,3/4+z
12 3/4-x,1/4+y,3/4+z
13 1/2+x,1/2+y,z
14 1/2-x,1/2-y,z
15 3/4+x,3/4-y,1/4+z
16 3/4-x,3/4+y,1/4+z
_cell_length_a                   28.899(6)
_cell_length_b                   12.5518(16)
_cell_length_c                   23.849(3)
_cell_angle_alpha                90
_cell_angle_beta                 90
_cell_angle_gamma                90
_cell_volume                     8650.85
loop_
_atom_site_label
_atom_site_type_symbol
_atom_site_fract_x
_atom_site_fract_y
_atom_site_fract_z
Mn1 Mn 0.0000 0.5000 0.48031(4)
N1 N 0.04471(16) 0.4481(4) 0.4172(2)
C1 C 0.0444(2) 0.3555(4) 0.3916(2)
H1 H 0.0252 0.3007 0.4063
C2 C 0.0704(2) 0.3330(5) 0.3442(3)
H2 H 0.0690 0.2650 0.3267
C3 C 0.0984(2) 0.4121(5) 0.3233(2)
H3 H 0.1170 0.3992 0.2912
C4 C 0.0994(2) 0.5096(5) 0.3490(2)
H4 H 0.1180 0.5651 0.3342
C5 C 0.07334(19) 0.5269(4) 0.3962(2)
C6 C 0.0715(2) 0.6297(5) 0.4283(2)
C7 C 0.0989(2) 0.7165(5) 0.4137(3)
H5 H 0.1206 0.7119 0.3839
C8 C 0.0935(2) 0.8112(5) 0.4445(3)
H6 H 0.1101 0.8732 0.4337
C9 C 0.06426(19) 0.8151(4) 0.4904(3)
H7 H 0.0615 0.8775 0.5127
C10 C 0.0391(2) 0.7234(5) 0.5022(3)
H8 H 0.0187 0.7248 0.5335
N2 N 0.04177(17) 0.6337(4) 0.4726(2)
N3 N 0.03812(16) 0.4410(4) 0.5468(2)
C11 C 0.0761(2) 0.3810(5) 0.5432(3)
H9 H 0.0882 0.3653 0.5071
C12 C 0.0988(2) 0.3407(5) 0.5900(3)
H10 H 0.1258 0.2978 0.5865
C13 C 0.0804(2) 0.3656(5) 0.6421(3)
H11 H 0.0949 0.3388 0.6750
C14 C 0.0420(2) 0.4280(5) 0.6470(3)
H12 H 0.0296 0.4451 0.6829
C15 C 0.0212(2) 0.4659(4) 0.5983(2)
N1A N -0.04471(16) 0.5519(4) 0.4172(2)
C1A C -0.0444(2) 0.6445(4) 0.3916(2)
H1A H -0.0252 0.6993 0.4063
C2A C -0.0704(2) 0.6670(5) 0.3442(3)
H2A H -0.0690 0.7350 0.3267
C3A C -0.0984(2) 0.5879(5) 0.3233(2)
H3A H -0.1170 0.6008 0.2912
C4A C -0.0994(2) 0.4904(5) 0.3490(2)
H4A H -0.1180 0.4349 0.3342
C5A C -0.07334(19) 0.4731(4) 0.3962(2)
C6A C -0.0715(2) 0.3703(5) 0.4283(2)
C7A C -0.0989(2) 0.2835(5) 0.4137(3)
H5A H -0.1206 0.2881 0.3839
C8A C -0.0935(2) 0.1888(5) 0.4445(3)
H6A H -0.1101 0.1268 0.4337
C9A C -0.06426(19) 0.1849(4) 0.4904(3)
H7A H -0.0615 0.1225 0.5127
C10A C -0.0391(2) 0.2766(5) 0.5022(3)
H8A H -0.0187 0.2752 0.5335
N2A N -0.04177(17) 0.3663(4) 0.4726(2)
N3A N -0.03812(16) 0.5590(4) 0.5468(2)
C11A C -0.0761(2) 0.6190(5) 0.5432(3)
H9A H -0.0882 0.6347 0.5071
C12A C -0.0988(2) 0.6593(5) 0.5900(3)
H10A H -0.1258 0.7022 0.5865
C13A C -0.0804(2) 0.6344(5) 0.6421(3)
H11A H -0.0949 0.6612 0.6750
C14A C -0.0420(2) 0.5720(5) 0.6470(3)
H12A H -0.0296 0.5549 0.6829
C15A C -0.0212(2) 0.5341(4) 0.5983(2)
Mn2 Mn 0.0000 0.5000 0.82935(4)
Mn3 Mn 0.0000 0.5000 1.14683(7)
N4 N 0.04139(18) 0.5731(4) 0.8970(2)
C16 C 0.0538(2) 0.5995(5) 0.9417(3)
N5 N 0.07034(18) 0.6367(4) 0.9888(2)
C17 C 0.0563(2) 0.5965(5) 1.0359(3)
N6 N 0.04595(19) 0.5661(4) 1.0796(2)
N7 N 0.0472(2) 0.3640(5) 0.8197(3)
C18 C 0.0611(2) 0.2914(6) 0.7950(3)
N8 N 0.08194(18) 0.2137(5) 0.7686(2)
C19 C 0.0579(2) 0.1463(5) 0.7393(3)
N9 N 0.04159(19) 0.0782(5) 0.7116(2)
N10 N 0.04298(19) 0.5837(5) 0.7643(2)
C20 C 0.0586(2) 0.6434(5) 0.7343(3)
N11 N 0.08056(19) 0.7103(6) 0.7022(3)
C21 C 0.0588(2) 0.7835(6) 0.6739(3)
N12 N 0.04331(18) 0.8523(4) 0.6471(3)
Mn3D Mn 0.0000 0.0000 0.64683(7)
Mn3D_2 Mn 0.0000 1.0000 0.64683(7)
N4A N -0.04139(18) 0.4269(4) 0.8970(2)
C16A C -0.0538(2) 0.4005(5) 0.9417(3)
N5A N -0.07034(18) 0.3633(4) 0.9888(2)
C17A C -0.0563(2) 0.4035(5) 1.0359(3)
N6A N -0.04595(19) 0.4339(4) 1.0796(2)
N7A N -0.0472(2) 0.6360(5) 0.8197(3)
C18A C -0.0611(2) 0.7086(6) 0.7950(3)
N8A N -0.08194(18) 0.7863(5) 0.7686(2)
C19A C -0.0579(2) 0.8537(5) 0.7393(3)
N9A N -0.04159(19) 0.9218(5) 0.7116(2)
N9D N 0.04159(19) 0.5782(5) 1.2116(2)
N9E N -0.04159(19) 0.4218(5) 1.2116(2)
N10A N -0.04298(19) 0.4163(5) 0.7643(2)
C20A C -0.0586(2) 0.3566(5) 0.7343(3)
N11A N -0.08056(19) 0.2897(6) 0.7022(3)
C21A C -0.0588(2) 0.2165(6) 0.6739(3)
N12A N -0.04331(18) 0.1477(4) 0.6471(3)
N12D N 0.04331(18) 0.3523(4) 1.1471(3)
N12E N -0.04331(18) 0.6477(4) 1.1471(3)
loop_
_geom_bond_atom_site_label_1
_geom_bond_atom_site_label_2
_geom_bond_site_symmetry_1
_geom_bond_site_symmetry_2
Mn1 N1 1_555 1_555
N1 C1 1_555 1_555
C1 H1 1_555 1_555
C2 C1 1_555 1_555
H2 C2 1_555 1_555
C3 C2 1_555 1_555
H3 C3 1_555 1_555
C4 C3 1_555 1_555
H4 C4 1_555 1_555
C5 N1 1_555 1_555
C6 C5 1_555 1_555
C7 C6 1_555 1_555
H5 C7 1_555 1_555
C8 C7 1_555 1_555
H6 C8 1_555 1_555
C9 C8 1_555 1_555
H7 C9 1_555 1_555
C10 C9 1_555 1_555
H8 C10 1_555 1_555
N2 Mn1 1_555 1_555
N3 Mn1 1_555 1_555
C11 N3 1_555 1_555
H9 C11 1_555 1_555
C12 C11 1_555 1_555
H10 C12 1_555 1_555
C13 C12 1_555 1_555
H11 C13 1_555 1_555
C14 C13 1_555 1_555
H12 C14 1_555 1_555
C15 N3 1_555 1_555
Mn2 N4 1_555 1_555
Mn3 N6 1_555 1_555
N4 C16 1_555 1_555
C16 N5 1_555 1_555
N5 C17 1_555 1_555
C17 N6 1_555 1_555
N7 Mn2 1_555 1_555
C18 N7 1_555 1_555
N8 C18 1_555 1_555
C19 N8 1_555 1_555
N9 C19 1_555 1_555
N10 Mn2 1_555 1_555
C20 N10 1_555 1_555
N11 C20 1_555 1_555
C21 N11 1_555 1_555
N12 C21 1_555 1_555
N1A Mn1 1_555 1_555
C1A N1A 1_555 1_555
H1A C1A 1_555 1_555
C2A C1A 1_555 1_555
H2A C2A 1_555 1_555
C3A C2A 1_555 1_555
H3A C3A 1_555 1_555
C4A C3A 1_555 1_555
H4A C4A 1_555 1_555
C5A N1A 1_555 1_555
C6A C5A 1_555 1_555
C7A C6A 1_555 1_555
H5A C7A 1_555 1_555
C8A C7A 1_555 1_555
H6A C8A 1_555 1_555
C9A C8A 1_555 1_555
H7A C9A 1_555 1_555
C10A C9A 1_555 1_555
H8A C10A 1_555 1_555
N2A Mn1 1_555 1_555
N3A Mn1 1_555 1_555
C11A N3A 1_555 1_555
H9A C11A 1_555 1_555
C12A C11A 1_555 1_555
H10A C12A 1_555 1_555
C13A C12A 1_555 1_555
H11A C13A 1_555 1_555
C14A C13A 1_555 1_555
H12A C14A 1_555 1_555
C15A C15 1_555 1_555
Mn3D N9 1_555 1_555
Mn3D_2 N12 1_555 1_555
N4A Mn2 1_555 1_555
C16A N4A 1_555 1_555
N5A C16A 1_555 1_555
C17A N5A 1_555 1_555
N6A Mn3 1_555 1_555
N7A Mn2 1_555 1_555
C18A N7A 1_555 1_555
N8A C18A 1_555 1_555
C19A N8A 1_555 1_555
N9A Mn3D_2 1_555 1_555
N9D Mn3 1_555 1_555
N9E Mn3 1_555 1_555
N10A Mn2 1_555 1_555
C20A N10A 1_555 1_555
N11A C20A 1_555 1_555
C21A N11A 1_555 1_555
N12A Mn3D 1_555 1_555
N12D Mn3 1_555 1_555
N12E Mn3 1_555 1_555
C4 C5 1_555 1_555
C6 N2 1_555 1_555
C10 N2 1_555 1_555
C14 C15 1_555 1_555
C4A C5A 1_555 1_555
C6A N2A 1_555 1_555
C10A N2A 1_555 1_555
N3A C15A 1_555 1_555
C14A C15A 1_555 1_555
C17A N6A 1_555 1_555
C19A N9A 1_555 1_555
C21A N12A 1_555 1_555

#END
