
#######################################################################
#
#                 Cambridge Crystallographic Data Centre
#                                CCDC 
#
#######################################################################
#
# If this CIF has been generated from an entry in the Cambridge 
# Structural Database, then it will include bibliographic, chemical, 
# crystal, experimental, refinement or atomic coordinate data resulting 
# from the CCDC's data processing and validation procedures.
#
#######################################################################

data_WINXUO
_symmetry_cell_setting           monoclinic
_symmetry_space_group_name_H-M   'P 21/c'
_symmetry_Int_Tables_number      14
_space_group_name_Hall           '-P 2ybc'
loop_
_symmetry_equiv_pos_site_id
_symmetry_equiv_pos_as_xyz
1 x,y,z
2 -x,1/2+y,1/2-z
3 -x,-y,-z
4 x,1/2-y,1/2+z
_cell_length_a                   9.235(2)
_cell_length_b                   10.418(2)
_cell_length_c                   10.465(2)
_cell_angle_alpha                90
_cell_angle_beta                 118.84(2)
_cell_angle_gamma                90
_cell_volume                     881.962
loop_
_atom_site_label
_atom_site_type_symbol
_atom_site_fract_x
_atom_site_fract_y
_atom_site_fract_z
Mn1 Mn 0.00000 0.50000 0.00000
Ni1 Ni 0.00000 0.50000 0.50000
C1 C 0.024(3) 0.509(4) 0.329(3)
N1 N 0.025(2) 0.509(3) 0.222(4)
C2 C 0.002(3) 0.681(4) 0.525(3)
N2 N 0.001(2) 0.791(3) 0.523(4)
N3 N 0.288(3) 0.494(3) 0.093(3)
N4 N 0.547(3) 0.481(4) 0.208(4)
C3 C 0.403(4) 0.545(3) 0.181(4)
C4 C 0.538(3) 0.391(5) 0.130(3)
C5 C 0.632(2) 0.297(4) 0.091(5)
C6 C 0.556(4) 0.204(3) -0.003(4)
C7 C 0.382(4) 0.184(3) -0.079(3)
C8 C 0.289(3) 0.264(2) -0.069(2)
C9 C 0.367(4) 0.363(3) 0.052(3)
C1B C -0.024(3) 0.491(4) -0.329(3)
N1B N -0.025(2) 0.491(3) -0.222(4)
N3B N -0.288(3) 0.506(3) -0.093(3)
N4B N -0.547(3) 0.519(4) -0.208(4)
C3B C -0.403(4) 0.455(3) -0.181(4)
C4B C -0.538(3) 0.609(5) -0.130(3)
C5B C -0.632(2) 0.703(4) -0.091(5)
C6B C -0.556(4) 0.796(3) 0.003(4)
C7B C -0.382(4) 0.816(3) 0.079(3)
C8B C -0.289(3) 0.736(2) 0.069(2)
C9B C -0.367(4) 0.637(3) -0.052(3)
C2C C 0.002(3) 0.819(4) 0.025(3)
N2C N 0.001(2) 0.709(3) 0.023(4)
Mn1A Mn 0.00000 1.00000 0.50000
Ni1_2 Ni 0.00000 0.50000 -0.50000
Ni1A Ni 0.00000 1.00000 0.00000
C1B_2 C -0.024(3) 0.491(4) 0.671(3)
C2B C -0.002(3) 0.319(4) 0.475(3)
N2A N -0.001(2) 0.291(3) -0.023(4)
loop_
_geom_bond_atom_site_label_1
_geom_bond_atom_site_label_2
_geom_bond_site_symmetry_1
_geom_bond_site_symmetry_2
Mn1 N1 1_555 1_555
Ni1 C1 1_555 1_555
C1 N1 1_555 1_555
C2 Ni1 1_555 1_555
N2 C2 1_555 1_555
N3 Mn1 1_555 1_555
N4 C3 1_555 1_555
C3 N3 1_555 1_555
C4 N4 1_555 1_555
C5 C4 1_555 1_555
C6 C5 1_555 1_555
C7 C6 1_555 1_555
C8 C7 1_555 1_555
C9 N3 1_555 1_555
C1B N1B 1_555 1_555
N1B Mn1 1_555 1_555
N3B Mn1 1_555 1_555
N4B C3B 1_555 1_555
C3B N3B 1_555 1_555
C4B N4B 1_555 1_555
C5B C4B 1_555 1_555
C6B C5B 1_555 1_555
C7B C6B 1_555 1_555
C8B C7B 1_555 1_555
C9B N3B 1_555 1_555
C2C N2C 1_555 1_555
N2C Mn1 1_555 1_555
Mn1A N2 1_555 1_555
Ni1_2 C1B 1_555 1_555
Ni1A C2C 1_555 1_555
C1B_2 Ni1 1_555 1_555
C2B Ni1 1_555 1_555
N2A Mn1 1_555 1_555
C4 C9 1_555 1_555
C8 C9 1_555 1_555
C4B C9B 1_555 1_555
C8B C9B 1_555 1_555

#END
