
#######################################################################
#
#                 Cambridge Crystallographic Data Centre
#                                CCDC 
#
#######################################################################
#
# If this CIF has been generated from an entry in the Cambridge 
# Structural Database, then it will include bibliographic, chemical, 
# crystal, experimental, refinement or atomic coordinate data resulting 
# from the CCDC's data processing and validation procedures.
#
#######################################################################

data_WINYAU
_symmetry_cell_setting           monoclinic
_symmetry_space_group_name_H-M   'P 21/c'
_symmetry_Int_Tables_number      14
_space_group_name_Hall           '-P 2ybc'
loop_
_symmetry_equiv_pos_site_id
_symmetry_equiv_pos_as_xyz
1 x,y,z
2 -x,1/2+y,1/2-z
3 -x,-y,-z
4 x,1/2-y,1/2+z
_cell_length_a                   5.939(5)
_cell_length_b                   21.462(5)
_cell_length_c                   13.195(5)
_cell_angle_alpha                90
_cell_angle_beta                 100.379(5)
_cell_angle_gamma                90
_cell_volume                     1654.35
loop_
_atom_site_label
_atom_site_type_symbol
_atom_site_fract_x
_atom_site_fract_y
_atom_site_fract_z
Zn1 Zn 0.0000 0.0000 0.0000
F1 F 0.7028(4) -0.25309(10) 0.1511(2)
O1 O -0.2163(4) 0.00200(9) 0.10564(17)
O2 O -0.3559(5) -0.01418(13) 0.2467(2)
O3 O 0.1554(4) -0.07728(9) 0.07895(16)
N1 N 0.0097(5) -0.17002(12) 0.3316(2)
N2 N 0.2788(5) -0.24618(12) 0.3150(2)
N3 N 0.5399(5) -0.32489(12) 0.3052(2)
N4 N 0.7437(4) -0.43997(12) 0.3958(2)
H1 H 0.643(4) -0.4663(13) 0.368(2)
C1 C -0.2234(5) -0.02747(15) 0.1872(2)
C2 C -0.0685(5) -0.08300(14) 0.2142(2)
C3 C 0.1067(5) -0.10269(13) 0.1585(2)
C4 C 0.2312(5) -0.15796(14) 0.1985(2)
C5 C 0.4137(6) -0.18112(15) 0.1555(3)
H2 H 0.4628 -0.1594 0.1024
C6 C 0.5176(5) -0.23413(15) 0.1903(3)
C7 C 0.4442(5) -0.26994(14) 0.2697(2)
C8 C 0.1791(5) -0.19215(14) 0.2814(2)
C9 C -0.1021(6) -0.11752(15) 0.2975(2)
H3 H -0.2125 -0.1033 0.3338
C10 C -0.0425(7) -0.20155(18) 0.4252(3)
H4 H -0.2013 -0.1941 0.4301
H5 H -0.0217 -0.2461 0.4191
C11 C 0.1054(10) -0.1790(3) 0.5195(4)
H6 H 0.2629 -0.1838 0.5131
H7 H 0.0761 -0.2027 0.5775
H8 H 0.0737 -0.1358 0.5296
C12 C 0.6307(7) -0.37106(16) 0.2414(3)
H9 H 0.6937 -0.3501 0.1876
H10 H 0.5084 -0.3983 0.2089
C13 C 0.8164(6) -0.40928(16) 0.3081(3)
H11 H 0.8701 -0.4408 0.2655
H12 H 0.9446 -0.3821 0.3338
C14 C 0.4505(6) -0.35619(17) 0.3882(3)
H13 H 0.3251 -0.3834 0.3590
H14 H 0.3922 -0.3254 0.4307
C15 C 0.6372(6) -0.39388(16) 0.4535(3)
H15 H 0.7545 -0.3656 0.4874
H16 H 0.5731 -0.4152 0.5066
Zn1A Zn 1.0000 -0.5000 0.5000
Zn1A_2 Zn -1.0000 0.5000 -0.5000
F1B F -0.7028(4) 0.25309(10) -0.1511(2)
O1B O 0.2163(4) -0.00200(9) -0.10564(17)
O2B O 0.3559(5) 0.01418(13) -0.2467(2)
O3B O -0.1554(4) 0.07728(9) -0.07895(16)
N1B N -0.0097(5) 0.17002(12) -0.3316(2)
N2B N -0.2788(5) 0.24618(12) -0.3150(2)
N3B N -0.5399(5) 0.32489(12) -0.3052(2)
N4B N -0.7437(4) 0.43997(12) -0.3958(2)
N4C N -0.2563(4) -0.06003(12) -0.1042(2)
N4A N 0.2563(4) 0.06003(12) 0.1042(2)
H1B H -0.643(4) 0.4663(13) -0.368(2)
H1C H -0.357(4) -0.0337(13) -0.132(2)
H1A H 0.357(4) 0.0337(13) 0.132(2)
C1B C 0.2234(5) 0.02747(15) -0.1872(2)
C2B C 0.0685(5) 0.08300(14) -0.2142(2)
C3B C -0.1067(5) 0.10269(13) -0.1585(2)
C4B C -0.2312(5) 0.15796(14) -0.1985(2)
C5B C -0.4137(6) 0.18112(15) -0.1555(3)
H2B H -0.4628 0.1594 -0.1024
C6B C -0.5176(5) 0.23413(15) -0.1903(3)
C7B C -0.4442(5) 0.26994(14) -0.2697(2)
C8B C -0.1791(5) 0.19215(14) -0.2814(2)
C9B C 0.1021(6) 0.11752(15) -0.2975(2)
H3B H 0.2125 0.1033 -0.3338
C10B C 0.0425(7) 0.20155(18) -0.4252(3)
H4B H 0.2013 0.1941 -0.4301
H5B H 0.0217 0.2461 -0.4191
C11B C -0.1054(10) 0.1790(3) -0.5195(4)
H6B H -0.2629 0.1838 -0.5131
H7B H -0.0761 0.2027 -0.5775
H8B H -0.0737 0.1358 -0.5296
C12B C -0.6307(7) 0.37106(16) -0.2414(3)
H9B H -0.6937 0.3501 -0.1876
H10B H -0.5084 0.3983 -0.2089
C13B C -0.8164(6) 0.40928(16) -0.3081(3)
H11B H -0.8701 0.4408 -0.2655
H12B H -0.9446 0.3821 -0.3338
C14B C -0.4505(6) 0.35619(17) -0.3882(3)
H13B H -0.3251 0.3834 -0.3590
H14B H -0.3922 0.3254 -0.4307
C15B C -0.6372(6) 0.39388(16) -0.4535(3)
H15B H -0.7545 0.3656 -0.4874
H16B H -0.5731 0.4152 -0.5066
O4 O -0.202(3) 0.0035(6) 0.4625(8)
O5? O -0.506(4) -0.0505(8) 0.4265(9)
loop_
_geom_bond_atom_site_label_1
_geom_bond_atom_site_label_2
_geom_bond_site_symmetry_1
_geom_bond_site_symmetry_2
Zn1 O1 1_555 1_555
F1 C6 1_555 1_555
O1 C1 1_555 1_555
O2 C1 1_555 1_555
O3 Zn1 1_555 1_555
N1 C8 1_555 1_555
N2 C7 1_555 1_555
N3 C7 1_555 1_555
N4 H1 1_555 1_555
C1 C2 1_555 1_555
C2 C3 1_555 1_555
C3 O3 1_555 1_555
C4 C3 1_555 1_555
C5 C4 1_555 1_555
H2 C5 1_555 1_555
C6 C5 1_555 1_555
C7 C6 1_555 1_555
C8 N2 1_555 1_555
C9 N1 1_555 1_555
H3 C9 1_555 1_555
C10 N1 1_555 1_555
H4 C10 1_555 1_555
H5 C10 1_555 1_555
C11 C10 1_555 1_555
H6 C11 1_555 1_555
H7 C11 1_555 1_555
H8 C11 1_555 1_555
C12 N3 1_555 1_555
H9 C12 1_555 1_555
H10 C12 1_555 1_555
C13 N4 1_555 1_555
H11 C13 1_555 1_555
H12 C13 1_555 1_555
C14 N3 1_555 1_555
H13 C14 1_555 1_555
H14 C14 1_555 1_555
C15 N4 1_555 1_555
H15 C15 1_555 1_555
H16 C15 1_555 1_555
Zn1A N4 1_555 1_555
Zn1A_2 N4B 1_555 1_555
F1B C6B 1_555 1_555
O1B Zn1 1_555 1_555
O2B C1B 1_555 1_555
O3B Zn1 1_555 1_555
N1B C8B 1_555 1_555
N2B C7B 1_555 1_555
N3B C7B 1_555 1_555
N4B H1B 1_555 1_555
N4C Zn1 1_555 1_555
N4A Zn1 1_555 1_555
H1C N4C 1_555 1_555
H1A N4A 1_555 1_555
C1B O1B 1_555 1_555
C2B C1B 1_555 1_555
C3B O3B 1_555 1_555
C4B C3B 1_555 1_555
C5B C4B 1_555 1_555
H2B C5B 1_555 1_555
C6B C5B 1_555 1_555
C7B C6B 1_555 1_555
C8B N2B 1_555 1_555
C9B N1B 1_555 1_555
H3B C9B 1_555 1_555
C10B N1B 1_555 1_555
H4B C10B 1_555 1_555
H5B C10B 1_555 1_555
C11B C10B 1_555 1_555
H6B C11B 1_555 1_555
H7B C11B 1_555 1_555
H8B C11B 1_555 1_555
C12B N3B 1_555 1_555
H9B C12B 1_555 1_555
H10B C12B 1_555 1_555
C13B N4B 1_555 1_555
H11B C13B 1_555 1_555
H12B C13B 1_555 1_555
C14B N3B 1_555 1_555
H13B C14B 1_555 1_555
H14B C14B 1_555 1_555
C15B N4B 1_555 1_555
H15B C15B 1_555 1_555
H16B C15B 1_555 1_555
C2 C9 1_555 1_555
C4 C8 1_555 1_555
C12 C13 1_555 1_555
C14 C15 1_555 1_555
C2B C3B 1_555 1_555
C2B C9B 1_555 1_555
C4B C8B 1_555 1_555
C12B C13B 1_555 1_555
C14B C15B 1_555 1_555

#END
