
#######################################################################
#
#                 Cambridge Crystallographic Data Centre
#                                CCDC 
#
#######################################################################
#
# If this CIF has been generated from an entry in the Cambridge 
# Structural Database, then it will include bibliographic, chemical, 
# crystal, experimental, refinement or atomic coordinate data resulting 
# from the CCDC's data processing and validation procedures.
#
#######################################################################

data_WINZUP
_symmetry_cell_setting           orthorhombic
_symmetry_space_group_name_H-M   'C 2 2 21'
_symmetry_Int_Tables_number      20
_space_group_name_Hall           'C 2n 2'
loop_
_symmetry_equiv_pos_site_id
_symmetry_equiv_pos_as_xyz
1 x,y,z
2 -x,-y,1/2+z
3 -x,y,1/2-z
4 x,-y,-z
5 1/2+x,1/2+y,z
6 1/2-x,1/2-y,1/2+z
7 1/2-x,1/2+y,1/2-z
8 1/2+x,1/2-y,-z
_cell_length_a                   12.4035(10)
_cell_length_b                   20.6762(17)
_cell_length_c                   11.3968(9)
_cell_angle_alpha                90
_cell_angle_beta                 90
_cell_angle_gamma                90
_cell_volume                     2922.79
loop_
_atom_site_label
_atom_site_type_symbol
_atom_site_fract_x
_atom_site_fract_y
_atom_site_fract_z
Ag1 Ag 0.38805(4) 0.0000 0.0000
Ag2 Ag 0.5000 0.07794(3) 0.2500
N3 N 0.3886(4) -0.09627(19) 0.0557(4)
N4 N 0.4295(4) -0.1974(2) 0.1088(4)
H1 H 0.4670 -0.2278 0.1401
N5 N 0.8355(4) 0.0550(3) 0.1645(5)
H2 H 0.8886 0.0323 0.1387
N6 N 0.6674(4) 0.0747(2) 0.2120(4)
C1 C 0.2863(5) -0.1322(3) 0.0565(6)
H3 H 0.2473 -0.1256 -0.0163
H4 H 0.2412 -0.1184 0.1214
C2 C 0.3178(5) -0.2021(3) 0.0702(6)
H5 H 0.2734 -0.2235 0.1285
H6 H 0.3121 -0.2251 -0.0036
C3 C 0.4637(4) -0.1361(3) 0.0861(5)
C4 C 0.5772(4) -0.1178(3) 0.1043(5)
C5 C 0.6597(5) -0.1644(3) 0.0996(6)
H7 H 0.6438 -0.2073 0.0821
C6 C 0.7650(5) -0.1455(3) 0.1214(6)
H8 H 0.8197 -0.1762 0.1195
C7 C 0.7898(5) -0.0824(4) 0.1458(6)
H9 H 0.8612 -0.0707 0.1593
C8 C 0.7099(5) -0.0361(3) 0.1505(5)
C9 C 0.6035(4) -0.0548(2) 0.1290(4)
H10 H 0.5492 -0.0238 0.1315
C10 C 0.7340(5) 0.0320(3) 0.1786(5)
C11 C 0.8435(6) 0.1217(4) 0.1979(7)
H11 H 0.8720 0.1481 0.1348
H12 H 0.8878 0.1273 0.2673
C12 C 0.7278(3) 0.13691(16) 0.2221(4)
H13 H 0.7197 0.1548 0.3003
H14 H 0.7008 0.1681 0.1657
Ag1A Ag 0.61195(4) 0.0000 0.5000
N3C N 0.3886(4) 0.09627(19) -0.0557(4)
N3B N 0.6114(4) -0.09627(19) 0.4443(4)
N4B N 0.5705(4) -0.1974(2) 0.3912(4)
H1B H 0.5330 -0.2278 0.3599
N5B N 0.1645(4) 0.0550(3) 0.3355(5)
H2B H 0.1114 0.0323 0.3613
N6B N 0.3326(4) 0.0747(2) 0.2880(4)
C1B C 0.7137(5) -0.1322(3) 0.4435(6)
H3B H 0.7527 -0.1256 0.5163
H4B H 0.7588 -0.1184 0.3786
C2B C 0.6822(5) -0.2021(3) 0.4298(6)
H5B H 0.7266 -0.2235 0.3715
H6B H 0.6879 -0.2251 0.5036
C3B C 0.5363(4) -0.1361(3) 0.4139(5)
C4B C 0.4228(4) -0.1178(3) 0.3957(5)
C5B C 0.3403(5) -0.1644(3) 0.4004(6)
H7B H 0.3562 -0.2073 0.4179
C6B C 0.2350(5) -0.1455(3) 0.3786(6)
H8B H 0.1803 -0.1762 0.3805
C7B C 0.2102(5) -0.0824(4) 0.3542(6)
H9B H 0.1388 -0.0707 0.3407
C8B C 0.2901(5) -0.0361(3) 0.3495(5)
C9B C 0.3965(4) -0.0548(2) 0.3710(4)
H10B H 0.4508 -0.0238 0.3685
C10B C 0.2660(5) 0.0320(3) 0.3214(5)
C11B C 0.1565(6) 0.1217(4) 0.3021(7)
H11B H 0.1280 0.1481 0.3652
H12B H 0.1122 0.1273 0.2327
C12B C 0.2722(3) 0.13691(16) 0.2779(4)
H13B H 0.2803 0.1548 0.1997
H14B H 0.2992 0.1681 0.3343
O3 O 0.4954(7) -0.2086(3) -0.1567(4)
O4 O 0.5000 -0.2978(4) -0.2500
N2 N 0.5000 -0.2382(4) -0.2500
O3B O 0.5046(7) -0.2086(3) -0.3433(4)
O5 O 0.5436(3) -0.31366(16) 0.0175(4)
H15 H 0.5092 -0.3413 -0.0231
H16 H 0.5298 -0.2841 -0.0322
O1? O 0.6594(8) -0.4932(9) 0.0518(10)
O2? O 0.5263(6) -0.4531(3) 0.0107(10)
N1? N 0.5743(5) -0.5000 0.0000
loop_
_geom_bond_atom_site_label_1
_geom_bond_atom_site_label_2
_geom_bond_site_symmetry_1
_geom_bond_site_symmetry_2
Ag1 N3 1_555 1_555
Ag2 N6 1_555 1_555
O3 N2 1_555 1_555
O4 N2 1_555 1_555
N2 O3B 1_555 1_555
N3 C1 1_555 1_555
N4 H1 1_555 1_555
N5 H2 1_555 1_555
N6 C10 1_555 1_555
C1 H3 1_555 1_555
H4 C1 1_555 1_555
C2 N4 1_555 1_555
H5 C2 1_555 1_555
H6 C2 1_555 1_555
C3 N3 1_555 1_555
C4 C3 1_555 1_555
C5 C4 1_555 1_555
H7 C5 1_555 1_555
C6 C5 1_555 1_555
H8 C6 1_555 1_555
C7 C6 1_555 1_555
H9 C7 1_555 1_555
C8 C7 1_555 1_555
C9 C4 1_555 1_555
H10 C9 1_555 1_555
C10 N5 1_555 1_555
C11 N5 1_555 1_555
H11 C11 1_555 1_555
H12 C11 1_555 1_555
C12 N6 1_555 1_555
H13 C12 1_555 1_555
H14 C12 1_555 1_555
O5 H15 1_555 1_555
H16 O5 1_555 1_555
Ag1A N3B 1_555 1_555
N3C Ag1 1_555 1_555
N3B C1B 1_555 1_555
N4B H1B 1_555 1_555
N5B H2B 1_555 1_555
N6B Ag2 1_555 1_555
C1B H3B 1_555 1_555
H4B C1B 1_555 1_555
C2B N4B 1_555 1_555
H5B C2B 1_555 1_555
H6B C2B 1_555 1_555
C3B N3B 1_555 1_555
C4B C3B 1_555 1_555
C5B C4B 1_555 1_555
H7B C5B 1_555 1_555
C6B C5B 1_555 1_555
H8B C6B 1_555 1_555
C7B C6B 1_555 1_555
H9B C7B 1_555 1_555
C8B C7B 1_555 1_555
C9B C4B 1_555 1_555
H10B C9B 1_555 1_555
C10B N5B 1_555 1_555
C11B N5B 1_555 1_555
H11B C11B 1_555 1_555
H12B C11B 1_555 1_555
C12B N6B 1_555 1_555
H13B C12B 1_555 1_555
H14B C12B 1_555 1_555
N4 C3 1_555 1_555
C1 C2 1_555 1_555
C8 C9 1_555 1_555
C8 C10 1_555 1_555
C11 C12 1_555 1_555
N4B C3B 1_555 1_555
N6B C10B 1_555 1_555
C1B C2B 1_555 1_555
C8B C9B 1_555 1_555
C8B C10B 1_555 1_555
C11B C12B 1_555 1_555

#END
