
#######################################################################
#
#                 Cambridge Crystallographic Data Centre
#                                CCDC 
#
#######################################################################
#
# If this CIF has been generated from an entry in the Cambridge 
# Structural Database, then it will include bibliographic, chemical, 
# crystal, experimental, refinement or atomic coordinate data resulting 
# from the CCDC's data processing and validation procedures.
#
#######################################################################

data_WIPBED
_symmetry_cell_setting           monoclinic
_symmetry_space_group_name_H-M   'C 2/c'
_symmetry_Int_Tables_number      15
_space_group_name_Hall           '-C 2yn'
loop_
_symmetry_equiv_pos_site_id
_symmetry_equiv_pos_as_xyz
1 x,y,z
2 1/2+x,1/2+y,z
3 -x,y,1/2-z
4 1/2-x,1/2+y,1/2-z
5 -x,-y,-z
6 1/2-x,1/2-y,-z
7 x,-y,1/2+z
8 1/2+x,1/2-y,1/2+z
_cell_length_a                   11.3254(15)
_cell_length_b                   7.8829(10)
_cell_length_c                   13.1264(17)
_cell_angle_alpha                90
_cell_angle_beta                 100.519(2)
_cell_angle_gamma                90
_cell_volume                     1152.19
loop_
_atom_site_label
_atom_site_type_symbol
_atom_site_fract_x
_atom_site_fract_y
_atom_site_fract_z
Zn1 Zn 0.5000 0.20313(9) 0.2500
N1 N 0.4346(3) 0.4119(4) 0.1576(2)
O1 O 0.3250(2) 0.1908(3) 0.2842(2)
H1 H 0.2660 0.2311 0.2436
H2 H 0.3135 0.0913 0.3028
O2 O 0.4605(2) 1.0082(3) 0.1389(2)
O3 O 0.6348(2) 0.8655(4) 0.1726(2)
C1 C 0.3727(3) 0.3937(5) 0.0605(3)
H3 H 0.3487 0.2856 0.0370
C2 C 0.3435(4) 0.5300(5) -0.0057(3)
H4 H 0.2948 0.5163 -0.0703
C3 C 0.3891(3) 0.6873(5) 0.0275(3)
H5 H 0.3746 0.7803 -0.0166
C4 C 0.4571(3) 0.7073(5) 0.1272(3)
C5 C 0.4707(3) 0.5671(5) 0.1932(3)
C6 C 0.5228(4) 0.8741(5) 0.1492(3)
Zn1_2 Zn 0.5000 1.20313(9) 0.2500
N1B N 0.5654(3) 0.4119(4) 0.3424(2)
O1B O 0.6750(2) 0.1908(3) 0.2158(2)
H1B H 0.7340 0.2311 0.2564
H2B H 0.6865 0.0913 0.1972
O2B O 0.5395(2) 1.0082(3) 0.3611(2)
O2_2 O 0.4605(2) 0.0082(3) 0.1389(2)
O2B_2 O 0.5395(2) 0.0082(3) 0.3611(2)
O3B O 0.3652(2) 0.8655(4) 0.3274(2)
C1B C 0.6273(3) 0.3937(5) 0.4395(3)
H3B H 0.6513 0.2856 0.4630
C2B C 0.6565(4) 0.5300(5) 0.5057(3)
H4B H 0.7052 0.5163 0.5703
C3B C 0.6109(3) 0.6873(5) 0.4725(3)
H5B H 0.6254 0.7803 0.5166
C4B C 0.5429(3) 0.7073(5) 0.3728(3)
C5B C 0.5293(3) 0.5671(5) 0.3068(3)
C6B C 0.4772(4) 0.8741(5) 0.3508(3)
loop_
_geom_bond_atom_site_label_1
_geom_bond_atom_site_label_2
_geom_bond_site_symmetry_1
_geom_bond_site_symmetry_2
Zn1 N1 1_555 1_555
N1 C1 1_555 1_555
O1 Zn1 1_555 1_555
H1 O1 1_555 1_555
H2 O1 1_555 1_555
O2 C6 1_555 1_555
O3 C6 1_555 1_555
C1 H3 1_555 1_555
C2 C1 1_555 1_555
H4 C2 1_555 1_555
C3 C2 1_555 1_555
H5 C3 1_555 1_555
C4 C3 1_555 1_555
C5 N1 1_555 1_555
C6 C4 1_555 1_555
Zn1_2 O2 1_555 1_555
N1B Zn1 1_555 1_555
O1B Zn1 1_555 1_555
H1B O1B 1_555 1_555
H2B O1B 1_555 1_555
O2B Zn1_2 1_555 1_555
O2_2 Zn1 1_555 1_555
O2B_2 Zn1 1_555 1_555
O3B C6B 1_555 1_555
C1B N1B 1_555 1_555
H3B C1B 1_555 1_555
C2B C1B 1_555 1_555
H4B C2B 1_555 1_555
C3B C2B 1_555 1_555
H5B C3B 1_555 1_555
C4B C3B 1_555 1_555
C5B C5 1_555 1_555
C6B O2B 1_555 1_555
C4 C5 1_555 1_555
N1B C5B 1_555 1_555
C4B C5B 1_555 1_555
C4B C6B 1_555 1_555

#END
