
#######################################################################
#
#                 Cambridge Crystallographic Data Centre
#                                CCDC 
#
#######################################################################
#
# If this CIF has been generated from an entry in the Cambridge 
# Structural Database, then it will include bibliographic, chemical, 
# crystal, experimental, refinement or atomic coordinate data resulting 
# from the CCDC's data processing and validation procedures.
#
#######################################################################

data_WIPBED01
_symmetry_cell_setting           monoclinic
_symmetry_space_group_name_H-M   'C 2/c'
_symmetry_Int_Tables_number      15
_space_group_name_Hall           '-C 2yn'
loop_
_symmetry_equiv_pos_site_id
_symmetry_equiv_pos_as_xyz
1 x,y,z
2 1/2+x,1/2+y,z
3 -x,y,1/2-z
4 1/2-x,1/2+y,1/2-z
5 -x,-y,-z
6 1/2-x,1/2-y,-z
7 x,-y,1/2+z
8 1/2+x,1/2-y,1/2+z
_cell_length_a                   11.4801(6)
_cell_length_b                   7.8552(6)
_cell_length_c                   13.1871(8)
_cell_angle_alpha                90
_cell_angle_beta                 100.5130(10)
_cell_angle_gamma                90
_cell_volume                     1169.23
loop_
_atom_site_label
_atom_site_type_symbol
_atom_site_fract_x
_atom_site_fract_y
_atom_site_fract_z
Zn1 Zn 0.5000 -0.79894(4) -0.2500
N1 N 0.43323(15) -0.5887(2) -0.34244(14)
O1 O 0.46301(13) 0.00880(19) -0.36122(12)
O2 O 0.63378(13) -0.1372(2) -0.32756(13)
O3 O 0.67662(15) -0.8093(2) -0.28701(14)
C1 C 0.52357(19) -0.1264(3) -0.35064(16)
C2 C 0.45768(19) -0.2932(3) -0.37237(17)
C3 C 0.47116(17) -0.4338(3) -0.30636(16)
C4 C 0.3905(2) -0.3121(3) -0.47098(18)
H1 H 0.3765 -0.2185 -0.5147
C5 C 0.3443(2) -0.4696(3) -0.50424(18)
H2 H 0.2962 -0.4830 -0.5686
C6 C 0.3725(2) -0.6059(3) -0.43839(18)
H3 H 0.3482 -0.7142 -0.4618
H4 H 0.686(4) -0.911(2) -0.303(3)
H5 H 0.735(3) -0.773(5) -0.245(3)
Zn1_2 Zn 0.5000 0.20106(4) -0.2500
N1B N 0.56677(15) -0.5887(2) -0.15756(14)
O1B O 0.53699(13) 0.00880(19) -0.13878(12)
O1_2 O 0.46301(13) -0.99120(19) -0.36122(12)
O1B_2 O 0.53699(13) -0.99120(19) -0.13878(12)
O2B O 0.36622(13) -0.1372(2) -0.17244(13)
O3B O 0.32338(15) -0.8093(2) -0.21299(14)
C1B C 0.47643(19) -0.1264(3) -0.14936(16)
C2B C 0.54232(19) -0.2932(3) -0.12763(17)
C3B C 0.52884(17) -0.4338(3) -0.19364(16)
C4B C 0.6095(2) -0.3121(3) -0.02902(18)
H1B H 0.6235 -0.2185 0.0147
C5B C 0.6557(2) -0.4696(3) 0.00424(18)
H2B H 0.7038 -0.4830 0.0686
C6B C 0.6275(2) -0.6059(3) -0.06161(18)
H3B H 0.6518 -0.7142 -0.0382
H4B H 0.314(4) -0.911(2) -0.197(3)
H5B H 0.265(3) -0.773(5) -0.255(3)
loop_
_geom_bond_atom_site_label_1
_geom_bond_atom_site_label_2
_geom_bond_site_symmetry_1
_geom_bond_site_symmetry_2
Zn1 N1 1_555 1_555
N1 C3 1_555 1_555
O1 C1 1_555 1_555
O2 C1 1_555 1_555
O3 Zn1 1_555 1_555
C1 C2 1_555 1_555
C2 C3 1_555 1_555
C3 C3B 1_555 1_555
C4 C2 1_555 1_555
H1 C4 1_555 1_555
C5 C4 1_555 1_555
H2 C5 1_555 1_555
C6 N1 1_555 1_555
H3 C6 1_555 1_555
H4 O3 1_555 1_555
H5 O3 1_555 1_555
Zn1_2 O1 1_555 1_555
N1B Zn1 1_555 1_555
O1B Zn1_2 1_555 1_555
O1_2 Zn1 1_555 1_555
O1B_2 Zn1 1_555 1_555
O2B C1B 1_555 1_555
O3B Zn1 1_555 1_555
C1B O1B 1_555 1_555
C2B C1B 1_555 1_555
C3B N1B 1_555 1_555
C4B C2B 1_555 1_555
H1B C4B 1_555 1_555
C5B C4B 1_555 1_555
H2B C5B 1_555 1_555
C6B N1B 1_555 1_555
H3B C6B 1_555 1_555
H4B O3B 1_555 1_555
H5B O3B 1_555 1_555
C5 C6 1_555 1_555
C2B C3B 1_555 1_555
C5B C6B 1_555 1_555

#END
