
#######################################################################
#
#                 Cambridge Crystallographic Data Centre
#                                CCDC 
#
#######################################################################
#
# If this CIF has been generated from an entry in the Cambridge 
# Structural Database, then it will include bibliographic, chemical, 
# crystal, experimental, refinement or atomic coordinate data resulting 
# from the CCDC's data processing and validation procedures.
#
#######################################################################

data_WIPCEF
_symmetry_cell_setting           tetragonal
_symmetry_space_group_name_H-M   'P 43'
_symmetry_Int_Tables_number      78
_space_group_name_Hall           'P 4cw'
loop_
_symmetry_equiv_pos_site_id
_symmetry_equiv_pos_as_xyz
1 x,y,z
2 -x,-y,1/2+z
3 -y,x,3/4+z
4 y,-x,1/4+z
_cell_length_a                   13.1297(3)
_cell_length_b                   13.1297(3)
_cell_length_c                   16.7858(8)
_cell_angle_alpha                90
_cell_angle_beta                 90
_cell_angle_gamma                90
_cell_volume                     2893.69
loop_
_atom_site_label
_atom_site_type_symbol
_atom_site_fract_x
_atom_site_fract_y
_atom_site_fract_z
Pb1 Pb 0.95112(4) 0.03469(4) 0.19050(3)
N1 N 1.1738(8) 0.0862(7) 0.2817(6)
O1 O 1.4099(8) 0.1229(9) 0.4424(8)
C1 C 1.1937(10) 0.0951(9) 0.2002(8)
N2 N 1.1174(8) 0.0797(8) 0.1543(7)
H1 H 1.1286 0.0867 0.1041
C2 C 1.2397(10) 0.1026(10) 0.3424(8)
O2 O 1.4953(8) 0.2010(8) 0.3556(7)
O3 O 1.4166(8) 0.1524(9) 0.0850(7)
N3 N 1.2084(9) 0.0911(9) 0.4139(7)
H2 H 1.2503 0.0985 0.4528
C3 C 1.3415(10) 0.1337(10) 0.3180(8)
O4 O 1.2678(9) 0.1091(12) 0.0456(6)
C4 C 1.3673(10) 0.1426(10) 0.2400(9)
H3 H 1.4329 0.1626 0.2263
N4 N 1.4199(10) 0.1535(9) 0.3753(8)
C5 C 1.2960(9) 0.1218(9) 0.1797(8)
N5 N 1.3284(9) 0.1287(9) 0.0999(7)
O5 O 1.0759(7) 0.0617(7) 0.3012(5)
O6 O 0.9751(8) -0.1494(7) 0.1053(6)
C6 C 1.0170(12) -0.2329(12) 0.1123(9)
C7 C 1.1523(12) -0.3524(11) 0.1240(10)
H4 H 1.1921 -0.3564 0.1726
H5 H 1.1930 -0.3777 0.0801
N6 N 1.1185(9) -0.2477(10) 0.1090(7)
C8 C 1.0551(12) -0.4113(11) 0.1317(10)
H6 H 1.0526 -0.4461 0.1826
H7 H 1.0500 -0.4616 0.0896
C9 C 0.9667(12) -0.3335(11) 0.1254(11)
H8 H 0.9223 -0.3503 0.0811
H9 H 0.9268 -0.3328 0.1740
C10 C 1.1912(14) -0.1642(14) 0.1069(11)
H10 H 1.1559 -0.1015 0.0965
H11 H 1.2402 -0.1762 0.0655
H12 H 1.2255 -0.1596 0.1573
Pb1C Pb 1.03469(4) 0.04888(4) 0.44050(3)
N3B N 0.9089(9) 0.2084(9) 0.1639(7)
O5B O 0.9383(7) 0.0759(7) 0.0512(5)
Pb2 Pb -0.43970(4) 0.48573(4) 0.15428(2)
O7 O -0.9751(8) 0.2878(9) 0.3201(7)
N7 N -0.6531(8) 0.4058(8) 0.2459(6)
O8 O -0.8743(7) 0.3327(9) 0.4148(7)
N8 N -0.6065(8) 0.4374(9) 0.1186(7)
H13 H -0.6210 0.4411 0.0687
O9 O -0.8980(7) 0.3272(10) 0.0514(7)
O10 O -0.7503(8) 0.3749(10) 0.0109(6)
N9 N -0.8930(9) 0.3215(9) 0.3427(8)
C11 C -0.8180(10) 0.3483(11) 0.2834(9)
N10 N -0.8115(9) 0.3561(9) 0.0661(7)
O11 O -0.5557(7) 0.4302(7) 0.2642(5)
C12 C -0.8461(10) 0.3403(10) 0.2057(9)
H14 H -0.9104 0.3161 0.1925
C13 C -0.7785(10) 0.3685(9) 0.1464(8)
O12 O -0.3356(8) 0.4137(8) 0.2902(5)
C14 C -0.2646(9) 0.4483(9) 0.3240(6)
C15 C -0.6776(10) 0.4066(10) 0.1640(8)
N11 N -0.2075(8) 0.3903(9) 0.3710(6)
N12 N -0.6784(8) 0.3884(8) 0.3795(7)
H15 H -0.7163 0.3726 0.4193
C16 C -0.7172(11) 0.3818(10) 0.3078(8)
C17 C -0.2159(11) 0.5516(11) 0.3172(8)
H16 H -0.2610 0.6041 0.3373
H17 H -0.1993 0.5668 0.2621
C18 C -0.1204(11) 0.5448(13) 0.3672(10)
H18 H -0.0603 0.5551 0.3346
H19 H -0.1212 0.5957 0.4091
C19 C -0.1212(10) 0.4440(11) 0.4005(9)
H20 H -0.0592 0.4084 0.3859
H21 H -0.1243 0.4479 0.4582
C20 C -0.2292(13) 0.2841(11) 0.3906(10)
H22 H -0.2913 0.2636 0.3651
H23 H -0.2362 0.2771 0.4472
H24 H -0.1743 0.2419 0.3723
Pb2C Pb -0.51427(4) 0.43970(4) 0.40428(2)
O11B O -0.4302(7) 0.4443(7) 0.0142(5)
N12B N -0.3884(8) 0.3216(8) 0.1295(7)
loop_
_geom_bond_atom_site_label_1
_geom_bond_atom_site_label_2
_geom_bond_site_symmetry_1
_geom_bond_site_symmetry_2
Pb1 N2 1_555 1_555
N1 C1 1_555 1_555
O1 N4 1_555 1_555
C1 N2 1_555 1_555
N2 H1 1_555 1_555
C2 N1 1_555 1_555
O2 N4 1_555 1_555
O3 N5 1_555 1_555
N3 C2 1_555 1_555
H2 N3 1_555 1_555
C3 C2 1_555 1_555
O4 N5 1_555 1_555
C4 C3 1_555 1_555
H3 C4 1_555 1_555
N4 C3 1_555 1_555
C5 C1 1_555 1_555
N5 C5 1_555 1_555
O5 Pb1 1_555 1_555
O6 Pb1 1_555 1_555
C6 O6 1_555 1_555
C7 H4 1_555 1_555
H5 C7 1_555 1_555
N6 C6 1_555 1_555
C8 C7 1_555 1_555
H6 C8 1_555 1_555
H7 C8 1_555 1_555
C9 C6 1_555 1_555
H8 C9 1_555 1_555
H9 C9 1_555 1_555
C10 N6 1_555 1_555
H10 C10 1_555 1_555
H11 C10 1_555 1_555
H12 C10 1_555 1_555
Pb2 N8 1_555 1_555
O7 N9 1_555 1_555
N7 O11 1_555 1_555
O8 N9 1_555 1_555
N8 H13 1_555 1_555
O9 N10 1_555 1_555
O10 N10 1_555 1_555
N9 C11 1_555 1_555
C11 C12 1_555 1_555
N10 C13 1_555 1_555
O11 Pb2 1_555 1_555
C12 H14 1_555 1_555
C13 C12 1_555 1_555
O12 Pb2 1_555 1_555
C14 O12 1_555 1_555
C15 N7 1_555 1_555
N11 C14 1_555 1_555
N12 H15 1_555 1_555
C16 N7 1_555 1_555
C17 C14 1_555 1_555
H16 C17 1_555 1_555
H17 C17 1_555 1_555
C18 C17 1_555 1_555
H18 C18 1_555 1_555
H19 C18 1_555 1_555
C19 N11 1_555 1_555
H20 C19 1_555 1_555
H21 C19 1_555 1_555
C20 N11 1_555 1_555
H22 C20 1_555 1_555
H23 C20 1_555 1_555
H24 C20 1_555 1_555
Pb1C N3 1_555 1_555
N3B Pb1 1_555 1_555
O5B Pb1 1_555 1_555
Pb2C O11 1_555 1_555
O11B Pb2 1_555 1_555
N12B Pb2 1_555 1_555
N1 O5 1_555 1_555
C4 C5 1_555 1_555
O5 Pb1C 1_555 1_555
C7 N6 1_555 1_555
C8 C9 1_555 1_555
N8 C15 1_555 1_555
C11 C16 1_555 1_555
C13 C15 1_555 1_555
N12 C16 1_555 1_555
N12 Pb2C 1_555 1_555
C18 C19 1_555 1_555

#END
