
#######################################################################
#
#                 Cambridge Crystallographic Data Centre
#                                CCDC 
#
#######################################################################
#
# If this CIF has been generated from an entry in the Cambridge 
# Structural Database, then it will include bibliographic, chemical, 
# crystal, experimental, refinement or atomic coordinate data resulting 
# from the CCDC's data processing and validation procedures.
#
#######################################################################

data_WIPCIJ
_symmetry_cell_setting           triclinic
_symmetry_space_group_name_H-M   'P -1'
_symmetry_Int_Tables_number      2
_space_group_name_Hall           '-P 1'
loop_
_symmetry_equiv_pos_site_id
_symmetry_equiv_pos_as_xyz
1 x,y,z
2 -x,-y,-z
_cell_length_a                   9.9653(15)
_cell_length_b                   10.5546(15)
_cell_length_c                   14.521(2)
_cell_angle_alpha                85.115(3)
_cell_angle_beta                 77.177(3)
_cell_angle_gamma                74.563(3)
_cell_volume                     1434.95
loop_
_atom_site_label
_atom_site_type_symbol
_atom_site_fract_x
_atom_site_fract_y
_atom_site_fract_z
Ag1 Ag 1.0000 0.5000 0.5000
O1 O 0.8161(5) 1.3483(4) 0.7207(3)
H1 H 0.8422 1.2858 0.7558
O2 O 0.7733(4) 1.3787(4) 0.5783(3)
O3 O 0.8886(4) 1.1744(4) 0.8281(3)
O4 O 0.9557(5) 0.9595(5) 0.8351(3)
O5 O 0.9464(4) 0.6663(3) 0.6165(3)
O6 O 0.8655(4) 0.7306(4) 0.4872(2)
C1 C 0.8269(5) 1.1565(5) 0.6345(3)
C2 C 0.7982(5) 1.1251(5) 0.5514(3)
H2 H 0.7666 1.1926 0.5097
C3 C 0.8150(5) 0.9973(5) 0.5288(3)
H3 H 0.7932 0.9797 0.4730
C4 C 0.8646(5) 0.8944(4) 0.5889(3)
C5 C 0.8924(5) 0.9254(5) 0.6718(3)
H4 H 0.9249 0.8568 0.7125
C6 C 0.8746(5) 1.0538(5) 0.6982(3)
C7 C 0.8038(6) 1.3055(6) 0.6431(5)
C8 C 0.9110(6) 1.0614(7) 0.7932(4)
C9 C 0.8934(5) 0.7531(5) 0.5630(3)
O1A O 1.1839(5) -0.3483(4) 0.2793(3)
H1A H 1.1578 -0.2858 0.2442
O2A O 1.2267(4) -0.3787(4) 0.4217(3)
O3A O 1.1114(4) -0.1744(4) 0.1719(3)
O4A O 1.0443(5) 0.0405(5) 0.1649(3)
O5A O 1.0536(4) 0.3337(3) 0.3835(3)
O6A O 1.1345(4) 0.2694(4) 0.5128(2)
C1A C 1.1731(5) -0.1565(5) 0.3655(3)
C2A C 1.2018(5) -0.1251(5) 0.4486(3)
H2A H 1.2334 -0.1926 0.4903
C3A C 1.1850(5) 0.0027(5) 0.4712(3)
H3A H 1.2068 0.0203 0.5270
C4A C 1.1354(5) 0.1056(4) 0.4111(3)
C5A C 1.1076(5) 0.0746(5) 0.3282(3)
H4A H 1.0751 0.1432 0.2875
C6A C 1.1254(5) -0.0538(5) 0.3018(3)
C7A C 1.1962(6) -0.3055(6) 0.3569(5)
C8A C 1.0890(6) -0.0614(7) 0.2068(4)
C9A C 1.1066(5) 0.2469(5) 0.4370(3)
Ag2 Ag 0.57859(5) 0.79599(4) 0.49501(3)
N1 N 0.5209(5) 0.6663(4) -0.2210(2)
N2 N 0.5118(5) 0.7478(4) -0.3632(2)
N3 N 0.6316(4) 0.8584(4) 0.3555(2)
N4 N 0.6246(4) 0.9205(4) 0.2089(2)
C10 C 0.5760(7) 0.5910(5) -0.1424(3)
H5 H 0.5162 0.5329 -0.1145
H6 H 0.6713 0.5372 -0.1657
C11 C 0.5929(6) 0.6698(5) -0.3098(3)
H7 H 0.6870 0.6240 -0.3312
C12 C 0.3824(6) 0.7930(5) -0.3047(3)
H8 H 0.3030 0.8491 -0.3230
C13 C 0.3874(6) 0.7440(5) -0.2169(3)
H9 H 0.3140 0.7601 -0.1638
C14 C 0.5487(5) 0.9094(5) 0.2955(3)
H10 H 0.4499 0.9345 0.3116
C15 C 0.7671(6) 0.8367(5) 0.3030(3)
H11 H 0.8493 0.8001 0.3261
C16 C 0.7638(5) 0.8763(5) 0.2127(3)
H12 H 0.8414 0.8738 0.1630
C17 C 0.5681(6) 0.9720(5) 0.1244(3)
H13 H 0.6211 1.0325 0.0905
H14 H 0.4696 1.0209 0.1436
C18 C 0.5760(5) 0.8657(5) 0.0586(3)
C19 C 0.4664(5) 0.8055(5) 0.0705(3)
H15 H 0.3900 0.8271 0.1214
C20 C 0.4685(6) 0.7139(5) 0.0081(3)
H16 H 0.3939 0.6737 0.0175
C21 C 0.5799(6) 0.6809(5) -0.0683(3)
C22 C 0.6915(5) 0.7402(5) -0.0787(3)
H17 H 0.7687 0.7185 -0.1292
C23 C 0.6890(5) 0.8301(5) -0.0154(3)
H18 H 0.7653 0.8677 -0.0229
Ag2_2 Ag 0.57859(5) 0.79599(4) -0.50499(3)
N2_2 N 0.5118(5) 0.7478(4) 0.6368(2)
Ag3 Ag 0.5000 0.5000 0.5000
N5 N 0.8048(4) 0.5180(4) 0.2501(2)
N6 N 0.6200(4) 0.5245(4) 0.3647(2)
C24 C 0.9763(5) 0.5017(5) 0.0981(3)
C25 C 0.9464(5) 0.4052(5) 0.0539(3)
H19 H 0.9101 0.3402 0.0901
C26 C 0.9696(5) 0.4038(5) -0.0428(3)
H20 H 0.9483 0.3379 -0.0713
C27 C 0.9528(5) 0.5038(6) 0.2037(3)
H21 H 1.0102 0.4228 0.2263
H22 H 0.9846 0.5761 0.2209
C28 C 0.6874(5) 0.5798(5) 0.2146(3)
H23 H 0.6864 0.6134 0.1534
C29 C 0.5741(5) 0.5829(5) 0.2849(3)
H24 H 0.4797 0.6187 0.2805
C30 C 0.7570(5) 0.4873(5) 0.3405(3)
H25 H 0.8157 0.4442 0.3812
N5A N 1.1952(4) 0.4820(4) -0.2501(2)
N6A N 1.3800(4) 0.4755(4) -0.3647(2)
C24A C 1.0237(5) 0.4983(5) -0.0981(3)
C25A C 1.0536(5) 0.5948(5) -0.0539(3)
H19A H 1.0899 0.6598 -0.0901
C26A C 1.0304(5) 0.5962(5) 0.0428(3)
H20A H 1.0517 0.6621 0.0713
C27A C 1.0472(5) 0.4962(6) -0.2037(3)
H21A H 0.9898 0.5772 -0.2263
H22A H 1.0154 0.4239 -0.2209
C28A C 1.3126(5) 0.4202(5) -0.2146(3)
H23A H 1.3136 0.3866 -0.1534
C29A C 1.4259(5) 0.4171(5) -0.2849(3)
H24A H 1.5203 0.3813 -0.2805
C30A C 1.2430(5) 0.5127(5) -0.3405(3)
H25A H 1.1843 0.5558 -0.3812
Ag3_2 Ag 1.5000 0.5000 -0.5000
N6A_2 N 0.3800(4) 0.4755(4) 0.6353(2)
O7 O 0.1507(4) 0.8910(4) 0.9591(3)
H26 H 0.0764 0.9332 0.9396
H27 H 0.1299 0.8339 1.0008
loop_
_geom_bond_atom_site_label_1
_geom_bond_atom_site_label_2
_geom_bond_site_symmetry_1
_geom_bond_site_symmetry_2
Ag1 O5 1_555 1_555
O1 H1 1_555 1_555
O2 C7 1_555 1_555
O3 C8 1_555 1_555
O4 C8 1_555 1_555
O5 C9 1_555 1_555
O6 Ag1 1_555 1_555
C1 C2 1_555 1_555
C2 H2 1_555 1_555
C3 C2 1_555 1_555
H3 C3 1_555 1_555
C4 C3 1_555 1_555
C5 C4 1_555 1_555
H4 C5 1_555 1_555
C6 C1 1_555 1_555
C7 O1 1_555 1_555
C8 C6 1_555 1_555
C9 O6 1_555 1_555
Ag2 N3 1_555 1_555
N1 C10 1_555 1_555
N2 C11 1_555 1_555
N3 C14 1_555 1_555
N4 C14 1_555 1_555
C10 H5 1_555 1_555
H6 C10 1_555 1_555
C11 N1 1_555 1_555
H7 C11 1_555 1_555
C12 N2 1_555 1_555
H8 C12 1_555 1_555
C13 N1 1_555 1_555
H9 C13 1_555 1_555
C14 H10 1_555 1_555
C15 N3 1_555 1_555
H11 C15 1_555 1_555
C16 N4 1_555 1_555
H12 C16 1_555 1_555
C17 N4 1_555 1_555
H13 C17 1_555 1_555
H14 C17 1_555 1_555
C18 C17 1_555 1_555
C19 C18 1_555 1_555
H15 C19 1_555 1_555
C20 C19 1_555 1_555
H16 C20 1_555 1_555
C21 C10 1_555 1_555
C22 C21 1_555 1_555
H17 C22 1_555 1_555
C23 C18 1_555 1_555
H18 C23 1_555 1_555
Ag3 N6 1_555 1_555
N5 C27 1_555 1_555
N6 C29 1_555 1_555
C24 C25 1_555 1_555
C25 H19 1_555 1_555
C26 C25 1_555 1_555
H20 C26 1_555 1_555
C27 C24 1_555 1_555
H21 C27 1_555 1_555
H22 C27 1_555 1_555
C28 N5 1_555 1_555
H23 C28 1_555 1_555
C29 C28 1_555 1_555
H24 C29 1_555 1_555
C30 N5 1_555 1_555
H25 C30 1_555 1_555
O7 H26 1_555 1_555
H27 O7 1_555 1_555
O1A H1A 1_555 1_555
O2A C7A 1_555 1_555
O3A C8A 1_555 1_555
O4A C8A 1_555 1_555
O5A Ag1 1_555 1_555
O6A Ag1 1_555 1_555
C1A C2A 1_555 1_555
C2A H2A 1_555 1_555
C3A C2A 1_555 1_555
H3A C3A 1_555 1_555
C4A C3A 1_555 1_555
C5A C4A 1_555 1_555
H4A C5A 1_555 1_555
C6A C1A 1_555 1_555
C7A O1A 1_555 1_555
C8A C6A 1_555 1_555
C9A O5A 1_555 1_555
Ag2_2 N2 1_555 1_555
N2_2 Ag2 1_555 1_555
N5A C27A 1_555 1_555
N6A C29A 1_555 1_555
C24A C26 1_555 1_555
C25A C24A 1_555 1_555
H19A C25A 1_555 1_555
C26A C24 1_555 1_555
H20A C26A 1_555 1_555
C27A C24A 1_555 1_555
H21A C27A 1_555 1_555
H22A C27A 1_555 1_555
C28A N5A 1_555 1_555
H23A C28A 1_555 1_555
C29A C28A 1_555 1_555
H24A C29A 1_555 1_555
C30A N5A 1_555 1_555
H25A C30A 1_555 1_555
Ag3_2 N6A 1_555 1_555
N6A_2 Ag3 1_555 1_555
C1 C7 1_555 1_555
C4 C9 1_555 1_555
C5 C6 1_555 1_555
C12 C13 1_555 1_555
C15 C16 1_555 1_555
C20 C21 1_555 1_555
C22 C23 1_555 1_555
N6 C30 1_555 1_555
O6A C9A 1_555 1_555
C1A C7A 1_555 1_555
C4A C9A 1_555 1_555
C5A C6A 1_555 1_555
N6A C30A 1_555 1_555
C25A C26A 1_555 1_555

#END
