
#######################################################################
#
#                 Cambridge Crystallographic Data Centre
#                                CCDC 
#
#######################################################################
#
# If this CIF has been generated from an entry in the Cambridge 
# Structural Database, then it will include bibliographic, chemical, 
# crystal, experimental, refinement or atomic coordinate data resulting 
# from the CCDC's data processing and validation procedures.
#
#######################################################################

data_WIPCUU
_symmetry_cell_setting           monoclinic
_symmetry_space_group_name_H-M   'P 21/c'
_symmetry_Int_Tables_number      14
_space_group_name_Hall           '-P 2ybc'
loop_
_symmetry_equiv_pos_site_id
_symmetry_equiv_pos_as_xyz
1 x,y,z
2 -x,1/2+y,1/2-z
3 -x,-y,-z
4 x,1/2-y,1/2+z
_cell_length_a                   8.5491(3)
_cell_length_b                   29.7815(12)
_cell_length_c                   20.6511(8)
_cell_angle_alpha                90
_cell_angle_beta                 101.369(2)
_cell_angle_gamma                90
_cell_volume                     5154.7
loop_
_atom_site_label
_atom_site_type_symbol
_atom_site_fract_x
_atom_site_fract_y
_atom_site_fract_z
Mo1 Mo 0.29240(4) 0.374260(13) 0.128000(18)
Mo2 Mo 0.25319(4) 0.266406(13) 0.163274(19)
Mo3 Mo 0.11908(4) 0.259372(13) 0.307002(19)
Mo4 Mo 0.22077(4) 0.439196(13) 0.254256(19)
Mo5 Mo 0.02442(4) 0.361012(13) 0.350377(19)
Cu1 Cu 0.62006(6) 0.42289(2) 0.33253(3)
P1 P -0.03088(12) 0.34217(4) 0.18805(5)
P2 P 0.39304(12) 0.33587(4) 0.29566(5)
Cu2 Cu 0.67009(6) 0.353410(18) 0.05674(3)
O1 O 0.1215(4) 0.22642(11) 0.12543(16)
O2 O 0.3516(4) 0.47581(11) 0.30127(17)
O3 O 0.4298(4) 0.24841(12) 0.14678(17)
O4 O 0.0793(4) 0.47429(11) 0.21160(17)
O5 O -0.1507(4) 0.38112(12) 0.36760(16)
O6 O 0.2343(4) 0.24180(12) 0.37942(17)
O7 O 0.1431(4) 0.35857(12) 0.42667(16)
O8 O 0.4854(4) 0.36915(11) 0.11544(17)
O9 O 0.1931(4) 0.40109(11) 0.05960(16)
O10 O -0.0009(4) 0.21456(11) 0.28023(17)
O11 O 0.2087(3) 0.31593(10) 0.10453(14)
O12 O 0.3443(3) 0.42425(10) 0.18936(15)
O13 O 0.2914(3) 0.24643(10) 0.25548(15)
O14 O -0.0282(3) 0.29762(11) 0.33753(15)
O15 O 0.1114(3) 0.41315(11) 0.31582(15)
O16 O 0.3800(3) 0.32828(10) 0.22043(14)
O17 O 0.1049(3) 0.37728(10) 0.18533(15)
O18 O 0.2276(3) 0.32647(10) 0.31351(15)
O19 O 0.0456(3) 0.29505(10) 0.20491(14)
O20 O 0.4291(3) 0.38546(10) 0.31212(15)
O21 O -0.1098(3) 0.35749(10) 0.24435(15)
O22 O -0.1444(3) 0.34034(11) 0.12257(15)
O23 O 0.6633(4) 0.41845(12) 0.24236(15)
H1 H 0.5795 0.4140 0.2161
O24 O 0.6249(4) 0.28887(12) 0.04938(18)
H2 H 0.6958 0.2751 0.0740
O25 O 0.6900(4) 0.26934(13) 0.24143(18)
H3 H 0.6502 0.2913 0.2204
N1 N 0.7567(4) 0.47824(13) 0.3490(2)
N2 N 0.7013(4) 0.22494(14) 0.37765(19)
N3 N 0.7343(4) 0.41708(13) 0.04508(19)
N4 N 0.5329(4) 0.17733(13) 0.2799(2)
N5 N 0.5056(4) 0.36822(13) -0.02610(19)
N6 N 0.6036(4) 0.43270(15) 0.4269(2)
C1 C 0.7463(5) 0.18150(18) 0.3722(2)
C2 C 0.6573(5) 0.15579(17) 0.3191(3)
C3 C 0.3871(6) 0.34372(18) -0.0595(3)
H4 H 0.3727 0.3147 -0.0451
C4 C 0.5225(5) 0.41073(16) -0.0479(2)
C5 C 0.4469(6) 0.15470(18) 0.2301(3)
H5 H 0.3614 0.1690 0.2032
C6 C 0.6458(5) 0.43740(16) -0.0095(2)
C7 C 0.2838(6) 0.35957(19) -0.1152(3)
H6 H 0.2021 0.3412 -0.1370
C8 C 0.7663(5) 0.49463(17) 0.4112(3)
C9 C 0.7005(6) 0.4823(2) 0.5199(3)
C10 C 0.6874(5) 0.46936(17) 0.4541(3)
C11 C 0.8537(6) 0.53311(18) 0.4348(3)
C12 C 0.8359(6) 0.49926(17) 0.3089(3)
H7 H 0.8337 0.4876 0.2669
C13 C 0.4241(6) 0.42942(19) -0.1041(2)
C14 C 0.8487(6) 0.44103(17) 0.0820(3)
H8 H 0.9090 0.4277 0.1195
C15 C 0.7837(6) 0.2504(2) 0.4251(3)
H9 H 0.7557 0.2804 0.4284
C16 C 0.6734(6) 0.48088(17) -0.0286(3)
C17 C 0.4805(8) 0.1098(2) 0.2166(3)
H10 H 0.4175 0.0947 0.1814
C18 C 0.8735(5) 0.1615(2) 0.4167(3)
C19 C 0.3010(6) 0.4018(2) -0.1383(3)
H11 H 0.2326 0.4122 -0.1760
C20 C 0.6980(6) 0.11106(19) 0.3094(3)
C21 C 0.6226(7) 0.4545(2) 0.5591(3)
H12 H 0.6280 0.4614 0.6034
C22 C 0.9139(6) 0.2323(2) 0.4707(3)
H13 H 0.9709 0.2506 0.5036
C23 C 0.8830(6) 0.48499(19) 0.0675(3)
H14 H 0.9639 0.5007 0.0951
C24 C 0.9301(7) 0.55534(19) 0.3899(3)
H15 H 0.9862 0.5817 0.4024
C25 C 0.5319(6) 0.4079(2) 0.4654(3)
H16 H 0.4738 0.3829 0.4476
C26 C 0.9227(7) 0.5386(2) 0.3282(3)
H17 H 0.9752 0.5531 0.2989
C27 C 0.7960(6) 0.50514(19) 0.0119(3)
H18 H 0.8181 0.5345 0.0012
C28 C 0.8283(7) 0.0917(2) 0.3547(3)
H19 H 0.8582 0.0623 0.3486
C29 C 0.9562(6) 0.1889(2) 0.4670(3)
H20 H 1.0403 0.1772 0.4979
C30 C 0.6056(8) 0.0885(2) 0.2554(3)
H21 H 0.6299 0.0591 0.2462
C31 C 0.4577(7) 0.4737(2) -0.1230(3)
H22 H 0.3962 0.4859 -0.1611
C32 C 0.5407(8) 0.4183(3) 0.5325(3)
H23 H 0.4899 0.4000 0.5585
C33 C 0.9079(7) 0.1153(2) 0.4058(3)
H24 H 0.9890 0.1011 0.4354
C34 C 0.7893(7) 0.5221(2) 0.5417(3)
H25 H 0.7971 0.5315 0.5852
C35 C 0.8615(7) 0.5463(2) 0.5015(3)
H26 H 0.9176 0.5720 0.5174
C36 C 0.5755(7) 0.4982(2) -0.0876(3)
H27 H 0.5940 0.5270 -0.1016
O26 O 0.5158(3) 0.30453(11) 0.33507(15)
Cu3 Cu 0.51623(6) 0.242337(19) 0.30615(3)
Cu1_2 Cu -0.37994(6) 0.42289(2) 0.33253(3)
Cu2_2 Cu -0.32991(6) 0.353410(18) 0.05674(3)
O5_2 O 0.8493(4) 0.38112(12) 0.36760(16)
O22_2 O 0.8556(3) 0.34034(11) 0.12257(15)
O27 O 0.7893(5) 0.22824(15) 0.1326(2)
O28 O 0.2682(7) 0.34265(19) 0.5622(2)
O29 O 0.4350(11) 0.2238(3) 0.9954(3)
O30 O 0.973(2) 0.1345(3) 0.2068(6)
O31 O 0.8537(16) 0.3504(4) 0.5500(13)
loop_
_geom_bond_atom_site_label_1
_geom_bond_atom_site_label_2
_geom_bond_site_symmetry_1
_geom_bond_site_symmetry_2
Mo1 O8 1_555 1_555
Mo2 O1 1_555 1_555
Mo3 O6 1_555 1_555
Mo4 O2 1_555 1_555
Mo5 O5 1_555 1_555
Cu1 O20 1_555 1_555
P1 O17 1_555 1_555
P2 O16 1_555 1_555
Cu2 O8 1_555 1_555
O3 Mo2 1_555 1_555
O4 Mo4 1_555 1_555
O5 Cu1_2 1_555 1_555
O7 Mo5 1_555 1_555
O9 Mo1 1_555 1_555
O10 Mo3 1_555 1_555
O11 Mo1 1_555 1_555
O12 Mo1 1_555 1_555
O13 Mo2 1_555 1_555
O14 Mo3 1_555 1_555
O15 Mo4 1_555 1_555
O16 Mo1 1_555 1_555
O17 Mo1 1_555 1_555
O18 Mo3 1_555 1_555
O19 Mo2 1_555 1_555
O20 Mo4 1_555 1_555
O21 Mo5 1_555 1_555
O22 P1 1_555 1_555
O23 Cu1 1_555 1_555
H1 O23 1_555 1_555
O24 Cu2 1_555 1_555
H2 O24 1_555 1_555
O25 H3 1_555 1_555
N1 Cu1 1_555 1_555
N2 C1 1_555 1_555
N3 Cu2 1_555 1_555
N4 C2 1_555 1_555
N5 Cu2 1_555 1_555
N6 Cu1 1_555 1_555
C1 C2 1_555 1_555
C2 C20 1_555 1_555
C3 N5 1_555 1_555
H4 C3 1_555 1_555
C4 N5 1_555 1_555
C5 N4 1_555 1_555
H5 C5 1_555 1_555
C6 N3 1_555 1_555
C7 C3 1_555 1_555
H6 C7 1_555 1_555
C8 N1 1_555 1_555
C9 C10 1_555 1_555
C10 N6 1_555 1_555
C11 C8 1_555 1_555
C12 N1 1_555 1_555
H7 C12 1_555 1_555
C13 C4 1_555 1_555
C14 N3 1_555 1_555
H8 C14 1_555 1_555
C15 N2 1_555 1_555
H9 C15 1_555 1_555
C16 C6 1_555 1_555
C17 C5 1_555 1_555
H10 C17 1_555 1_555
C18 C1 1_555 1_555
C19 C7 1_555 1_555
H11 C19 1_555 1_555
C20 C28 1_555 1_555
C21 C9 1_555 1_555
H12 C21 1_555 1_555
C22 C15 1_555 1_555
H13 C22 1_555 1_555
C23 C14 1_555 1_555
H14 C23 1_555 1_555
C24 C11 1_555 1_555
H15 C24 1_555 1_555
C25 N6 1_555 1_555
H16 C25 1_555 1_555
C26 C12 1_555 1_555
H17 C26 1_555 1_555
C27 C16 1_555 1_555
H18 C27 1_555 1_555
C28 H19 1_555 1_555
C29 C18 1_555 1_555
H20 C29 1_555 1_555
C30 C17 1_555 1_555
H21 C30 1_555 1_555
C31 C13 1_555 1_555
H22 C31 1_555 1_555
C32 C21 1_555 1_555
H23 C32 1_555 1_555
C33 C18 1_555 1_555
H24 C33 1_555 1_555
C34 C9 1_555 1_555
H25 C34 1_555 1_555
C35 C11 1_555 1_555
H26 C35 1_555 1_555
C36 C16 1_555 1_555
H27 C36 1_555 1_555
O26 P2 1_555 1_555
Cu3 O13 1_555 1_555
Cu2_2 O22 1_555 1_555
O5_2 Cu1 1_555 1_555
O22_2 Cu2 1_555 1_555
Mo2 O11 1_555 1_555
Mo2 O16 1_555 1_555
Mo3 O13 1_555 1_555
Mo3 O19 1_555 1_555
Mo4 O12 1_555 1_555
Mo4 O17 1_555 1_555
Mo5 O14 1_555 1_555
Mo5 O15 1_555 1_555
Mo5 O18 1_555 1_555
P1 O19 1_555 1_555
P1 O21 1_555 1_555
P2 O18 1_555 1_555
P2 O20 1_555 1_555
O25 Cu3 1_555 1_555
N2 Cu3 1_555 1_555
N4 Cu3 1_555 1_555
C4 C6 1_555 1_555
C8 C10 1_555 1_555
C13 C19 1_555 1_555
C20 C30 1_555 1_555
C22 C29 1_555 1_555
C23 C27 1_555 1_555
C24 C26 1_555 1_555
C25 C32 1_555 1_555
C28 C33 1_555 1_555
C31 C36 1_555 1_555
C34 C35 1_555 1_555
O26 Cu3 1_555 1_555

#END
