
#######################################################################
#
#                 Cambridge Crystallographic Data Centre
#                                CCDC 
#
#######################################################################
#
# If this CIF has been generated from an entry in the Cambridge 
# Structural Database, then it will include bibliographic, chemical, 
# crystal, experimental, refinement or atomic coordinate data resulting 
# from the CCDC's data processing and validation procedures.
#
#######################################################################

data_WIPDUW
_symmetry_cell_setting           triclinic
_symmetry_space_group_name_H-M   'P -1'
_symmetry_Int_Tables_number      2
_space_group_name_Hall           '-P 1'
loop_
_symmetry_equiv_pos_site_id
_symmetry_equiv_pos_as_xyz
1 x,y,z
2 -x,-y,-z
_cell_length_a                   13.1731(12)
_cell_length_b                   13.4283(13)
_cell_length_c                   20.930(2)
_cell_angle_alpha                89.831(2)
_cell_angle_beta                 87.071(2)
_cell_angle_gamma                84.933(2)
_cell_volume                     3683.07
loop_
_atom_site_label
_atom_site_type_symbol
_atom_site_fract_x
_atom_site_fract_y
_atom_site_fract_z
Ag1 Ag -0.11383(4) 0.19403(3) 0.11389(3)
Ag2 Ag 0.08822(5) 0.13839(4) 0.16702(3)
Ag3 Ag 0.45435(4) -0.22013(4) 0.11175(3)
Ag4 Ag 0.53959(3) -0.43830(3) 0.09952(3)
O1 O -0.0172(3) 0.7826(3) 0.0265(2)
O2 O -0.1260(3) 0.6721(3) 0.0231(2)
O3 O 0.1109(3) 0.2912(3) 0.1345(2)
O4 O -0.0445(3) 0.3354(3) 0.1012(2)
O5 O 0.8604(3) 0.0420(3) 0.1412(2)
O6 O 1.0231(3) -0.0064(3) 0.1600(2)
O7 O 0.3132(3) 0.6976(3) 0.1192(2)
O8 O 0.3760(3) 0.5406(3) 0.1013(2)
O9 O 0.6238(3) -0.2218(3) 0.1202(3)
O10 O 0.6856(3) -0.3803(3) 0.1246(2)
O11 O 0.9958(4) -0.4415(4) 0.2541(3)
O12 O 1.1013(5) -0.3321(4) 0.2495(3)
N1 N -0.0427(4) 0.6983(3) 0.0360(2)
N2 N 0.2647(4) 0.0561(3) 0.1991(2)
N3 N 0.3991(3) -0.0676(3) 0.1648(2)
N4 N 0.4365(4) 0.0949(4) 0.1986(3)
N5 N 0.2318(4) -0.1012(4) 0.1695(3)
H1 H 0.1677 -0.0844 0.1769
H2 H 0.2520 -0.1606 0.1562
N6 N 0.5633(4) -0.0232(4) 0.1645(3)
H3 H 0.6068 0.0192 0.1714
H4 H 0.5839 -0.0818 0.1501
N7 N 0.5950(3) -0.6055(3) 0.0584(2)
N8 N 0.5676(3) -0.7635(3) 0.0135(2)
N9 N 0.7319(3) -0.7354(3) 0.0486(2)
N10 N 0.4365(3) -0.6413(4) 0.0295(3)
H5 H 0.4124 -0.5825 0.0419
H6 H 0.3968 -0.6816 0.0140
N11 N 0.7603(3) -0.5772(3) 0.0762(2)
H7 H 0.7398 -0.5158 0.0847
H8 H 0.8238 -0.5975 0.0779
N12 N 1.0185(4) -0.3595(4) 0.2399(3)
C1 C 0.1259(4) 0.6506(4) 0.0754(3)
H9 H 0.1416 0.7162 0.0688
C2 C 0.0319(4) 0.6234(4) 0.0632(3)
C3 C 0.0033(4) 0.5282(4) 0.0751(3)
H10 H -0.0621 0.5122 0.0670
C4 C 0.0741(4) 0.4568(4) 0.0993(3)
C5 C 0.1722(4) 0.4819(4) 0.1089(3)
H11 H 0.2208 0.4333 0.1228
C6 C 0.0459(4) 0.3521(4) 0.1132(3)
C7 C 0.9300(4) -0.0221(4) 0.1552(3)
C8 C 0.2989(4) -0.0359(4) 0.1784(3)
C9 C 0.4634(4) 0.0021(4) 0.1762(3)
C10 C 0.3371(4) 0.1161(4) 0.2092(3)
C11 C 0.3049(4) 0.2199(4) 0.2328(3)
C12 C 0.3675(5) 0.2965(5) 0.2203(4)
H12 H 0.4317 0.2817 0.2003
C13 C 0.3362(6) 0.3942(5) 0.2371(4)
H13 H 0.3794 0.4443 0.2289
C14 C 0.2405(6) 0.4175(5) 0.2662(3)
H14 H 0.2181 0.4834 0.2766
C15 C 0.1791(5) 0.3419(5) 0.2795(3)
H15 H 0.1151 0.3573 0.2996
C16 C 0.2099(5) 0.2435(4) 0.2638(3)
H16 H 0.1674 0.1934 0.2740
C17 C 0.1988(4) 0.5786(4) 0.0981(3)
C18 C 0.3038(4) 0.6077(4) 0.1076(3)
C19 C 0.6908(4) -0.2888(4) 0.1326(3)
C20 C 0.7893(4) -0.2557(4) 0.1568(3)
C21 C 0.8120(4) -0.1583(4) 0.1474(3)
H17 H 0.7661 -0.1136 0.1273
C22 C 0.9028(4) -0.1257(4) 0.1677(3)
C23 C 0.9700(4) -0.1935(4) 0.1987(3)
H18 H 1.0315 -0.1743 0.2121
C24 C 0.9437(4) -0.2890(4) 0.2090(3)
C25 C 0.8554(4) -0.3228(4) 0.1884(3)
H19 H 0.8405 -0.3884 0.1955
C26 C 0.5367(4) -0.6703(4) 0.0343(3)
C27 C 0.6946(4) -0.6395(4) 0.0607(3)
C28 C 0.6661(4) -0.7923(4) 0.0238(3)
C29 C 0.7022(4) -0.8968(4) 0.0058(3)
C30 C 0.8050(5) -0.9252(4) -0.0061(3)
H20 H 0.8524 -0.8781 -0.0038
C31 C 0.8378(5) -1.0238(5) -0.0214(3)
H21 H 0.9071 -1.0428 -0.0281
C32 C 0.7686(5) -1.0930(5) -0.0266(3)
H22 H 0.7912 -1.1588 -0.0370
C33 C 0.6648(5) -1.0659(5) -0.0164(4)
H23 H 0.6176 -1.1127 -0.0205
C34 C 0.6330(5) -0.9682(4) 0.0001(3)
H24 H 0.5637 -0.9498 0.0076
Ag1_2 Ag 0.88617(4) -0.80597(3) 0.11389(3)
Ag1_3 Ag 0.88617(4) 0.19403(3) 0.11389(3)
Ag2_2 Ag 1.08822(5) 0.13839(4) 0.16702(3)
Ag3_2 Ag 0.45435(4) 0.77987(4) 0.11175(3)
Ag3A Ag 0.54565(4) -0.77987(4) -0.11175(3)
Ag4_2 Ag 0.53959(3) 0.56170(3) 0.09952(3)
O5_2 O -0.1396(3) 0.0420(3) 0.1412(2)
O6_2 O 0.0231(3) -0.0064(3) 0.1600(2)
O7_2 O 0.3132(3) -0.3024(3) 0.1192(2)
O8_2 O 0.3760(3) -0.4594(3) 0.1013(2)
N8A N 0.4324(3) -0.2365(3) -0.0135(2)
N9_2 N -0.2681(3) 0.2646(3) 0.0486(2)
Ag5 Ag 0.59588(4) -0.19476(3) 0.62209(3)
Ag6 Ag 0.37956(4) -0.13280(3) 0.65635(3)
Ag7 Ag 0.02639(3) 0.21748(4) 0.60448(3)
Ag8 Ag -0.05558(3) 0.43699(3) 0.59998(3)
O13 O -0.6426(3) 0.3518(3) 0.7341(2)
O14 O -0.5260(3) 0.4450(3) 0.7594(3)
O15 O -0.2029(3) 0.3779(3) 0.6265(2)
O16 O -0.1437(3) 0.2181(3) 0.6165(2)
O17 O 0.1070(3) 0.4629(3) 0.5993(2)
O18 O 0.1651(3) 0.3055(3) 0.6137(2)
O19 O -0.5507(3) 0.0086(3) 0.6655(2)
O20 O -0.3837(3) -0.0420(3) 0.6484(2)
O21 O 0.3625(3) 0.7130(3) 0.6268(2)
O22 O 0.5277(3) 0.6645(3) 0.6077(2)
O23 O 0.5125(3) 0.2186(3) 0.5267(2)
O24 O 0.6233(3) 0.3288(3) 0.5263(2)
N13 N -0.5538(4) 0.3687(4) 0.7369(2)
N14 N -0.0729(3) 0.7637(3) 0.5169(2)
N15 N -0.1066(3) 0.6051(3) 0.5604(2)
N16 N 0.0563(4) 0.6402(4) 0.5293(3)
H25 H 0.0780 0.5807 0.5405
H26 H 0.0986 0.6804 0.5139
N17 N 0.0748(3) 0.0706(3) 0.6627(2)
N18 N 0.0369(4) -0.0880(4) 0.7061(3)
N19 N 0.2091(3) -0.0489(3) 0.6923(2)
N20 N 0.2427(4) 0.1079(3) 0.6594(2)
H27 H 0.2241 0.1671 0.6462
H28 H 0.3061 0.0907 0.6649
N21 N -0.0888(4) 0.0275(4) 0.6761(3)
H29 H -0.1097 0.0846 0.6606
H30 H -0.1321 -0.0140 0.6880
N22 N -0.2411(3) 0.7368(3) 0.5546(2)
N23 N 0.5377(4) 0.3036(3) 0.5366(2)
N24 N -0.2739(3) 0.5770(3) 0.5819(2)
H31 H -0.2541 0.5157 0.5901
H32 H -0.3377 0.5971 0.5850
C35 C -0.5022(4) 0.1980(4) 0.7014(3)
H33 H -0.5669 0.1810 0.7146
C36 C -0.4748(4) 0.2931(4) 0.7097(3)
C37 C -0.3814(4) 0.3230(4) 0.6894(3)
H34 H -0.3656 0.3882 0.6959
C38 C -0.3117(4) 0.2539(4) 0.6590(3)
C39 C -0.2106(4) 0.2863(4) 0.6320(3)
C40 C -0.0444(4) 0.6706(4) 0.5362(3)
C41 C -0.1723(4) 0.7934(4) 0.5291(3)
C42 C -0.2057(4) 0.8973(4) 0.5116(3)
C43 C -0.3083(4) 0.9260(4) 0.5003(3)
H35 H -0.3563 0.8792 0.5035
C44 C -0.3382(5) 1.0247(5) 0.4843(3)
H36 H -0.4062 1.0437 0.4770
C45 C -0.2676(5) 1.0937(5) 0.4793(3)
H37 H -0.2881 1.1596 0.4691
C46 C -0.1664(5) 1.0664(5) 0.4893(3)
H38 H -0.1185 1.1132 0.4849
C47 C -0.1364(5) 0.9685(4) 0.5059(3)
H39 H -0.0683 0.9504 0.5132
C48 C -0.2062(4) 0.6400(4) 0.5647(3)
C49 C 0.1767(4) 0.3948(4) 0.6035(3)
C50 C 0.2847(4) 0.4236(4) 0.5946(3)
C51 C 0.3089(4) 0.5202(4) 0.6056(3)
H40 H 0.2572 0.5690 0.6181
C52 C 0.4089(4) 0.5456(4) 0.5982(3)
C53 C 0.4840(4) 0.4729(4) 0.5761(3)
H41 H 0.5513 0.4881 0.5702
C54 C 0.4583(4) 0.3779(4) 0.5630(3)
C55 C 0.3594(4) 0.3512(4) 0.5733(3)
H42 H 0.3439 0.2861 0.5660
C56 C 0.0098(4) 0.0037(4) 0.6818(3)
C57 C 0.1737(4) 0.0433(4) 0.6713(3)
C58 C 0.1378(4) -0.1096(4) 0.7092(3)
C59 C 0.1731(4) -0.2095(4) 0.7336(3)
C60 C 0.2641(5) -0.2239(5) 0.7650(3)
H43 H 0.2995 -0.1691 0.7740
C61 C 0.3026(6) -0.3189(5) 0.7831(3)
H44 H 0.3633 -0.3282 0.8040
C62 C 0.2487(6) -0.3992(5) 0.7691(4)
H45 H 0.2742 -0.4633 0.7804
C63 C 0.1587(6) -0.3863(5) 0.7390(4)
H46 H 0.1230 -0.4412 0.7306
C64 C 0.1205(5) -0.2915(5) 0.7211(3)
H47 H 0.0595 -0.2829 0.7005
C65 C 0.4345(4) 0.6499(4) 0.6126(3)
C66 C -0.4563(4) 0.0224(4) 0.6613(3)
C67 C -0.4297(4) 0.1275(4) 0.6727(3)
C68 C -0.3357(4) 0.1560(4) 0.6516(3)
H48 H -0.2878 0.1092 0.6322
Ag5_2 Ag -0.40412(4) -0.19476(3) 0.62209(3)
Ag5_3 Ag -0.40412(4) 0.80524(3) 0.62209(3)
Ag5_4 Ag 0.59588(4) 0.80524(3) 0.62209(3)
Ag6_2 Ag -0.62044(4) -0.13280(3) 0.65635(3)
Ag6_3 Ag 0.37956(4) 0.86720(3) 0.65635(3)
Ag7A Ag -0.02639(3) 0.78252(4) 0.39552(3)
O19_2 O 0.4493(3) 0.0086(3) 0.6655(2)
O20_2 O 0.6163(3) -0.0420(3) 0.6484(2)
O21_2 O 0.3625(3) -0.2870(3) 0.6268(2)
O22_2 O 0.5277(3) -0.3355(3) 0.6077(2)
N14A N 0.0729(3) 0.2363(3) 0.4831(2)
N22_2 N 0.7589(3) -0.2632(3) 0.5546(2)
loop_
_geom_bond_atom_site_label_1
_geom_bond_atom_site_label_2
_geom_bond_site_symmetry_1
_geom_bond_site_symmetry_2
Ag1 Ag2 1_555 1_555
Ag2 O3 1_555 1_555
Ag3 Ag4 1_555 1_555
Ag4 O10 1_555 1_555
O1 N1 1_555 1_555
O2 N1 1_555 1_555
O3 C6 1_555 1_555
O4 Ag1 1_555 1_555
O5 C7 1_555 1_555
O6 C7 1_555 1_555
O7 C18 1_555 1_555
O8 C18 1_555 1_555
O9 Ag3 1_555 1_555
O10 C19 1_555 1_555
O11 N12 1_555 1_555
O12 N12 1_555 1_555
N1 C2 1_555 1_555
N2 Ag2 1_555 1_555
N3 Ag3 1_555 1_555
N4 C9 1_555 1_555
N5 H1 1_555 1_555
H2 N5 1_555 1_555
N6 H3 1_555 1_555
H4 N6 1_555 1_555
N7 Ag4 1_555 1_555
N8 C26 1_555 1_555
N9 C27 1_555 1_555
N10 H5 1_555 1_555
H6 N10 1_555 1_555
N11 H7 1_555 1_555
H8 N11 1_555 1_555
N12 C24 1_555 1_555
C1 H9 1_555 1_555
C2 C1 1_555 1_555
C3 C2 1_555 1_555
H10 C3 1_555 1_555
C4 C3 1_555 1_555
C5 C4 1_555 1_555
H11 C5 1_555 1_555
C6 O4 1_555 1_555
C7 C22 1_555 1_555
C8 N2 1_555 1_555
C9 N3 1_555 1_555
C10 N2 1_555 1_555
C11 C10 1_555 1_555
C12 C11 1_555 1_555
H12 C12 1_555 1_555
C13 C12 1_555 1_555
H13 C13 1_555 1_555
C14 C13 1_555 1_555
H14 C14 1_555 1_555
C15 C14 1_555 1_555
H15 C15 1_555 1_555
C16 C11 1_555 1_555
H16 C16 1_555 1_555
C17 C1 1_555 1_555
C18 C17 1_555 1_555
C19 O9 1_555 1_555
C20 C19 1_555 1_555
C21 C20 1_555 1_555
H17 C21 1_555 1_555
C22 C21 1_555 1_555
C23 C22 1_555 1_555
H18 C23 1_555 1_555
C24 C23 1_555 1_555
C25 C20 1_555 1_555
H19 C25 1_555 1_555
C26 N7 1_555 1_555
C27 N7 1_555 1_555
C28 N8 1_555 1_555
C29 C28 1_555 1_555
C30 C29 1_555 1_555
H20 C30 1_555 1_555
C31 C30 1_555 1_555
H21 C31 1_555 1_555
C32 C31 1_555 1_555
H22 C32 1_555 1_555
C33 C32 1_555 1_555
H23 C33 1_555 1_555
C34 C29 1_555 1_555
H24 C34 1_555 1_555
Ag5 Ag6 1_555 1_555
Ag6 N19 1_555 1_555
Ag7 Ag8 1_555 1_555
Ag8 O15 1_555 1_555
O13 N13 1_555 1_555
O14 N13 1_555 1_555
O15 C39 1_555 1_555
O16 Ag7 1_555 1_555
O17 Ag8 1_555 1_555
O18 Ag7 1_555 1_555
O19 C66 1_555 1_555
O20 C66 1_555 1_555
O21 C65 1_555 1_555
O22 C65 1_555 1_555
O23 N23 1_555 1_555
O24 N23 1_555 1_555
N13 C36 1_555 1_555
N14 C40 1_555 1_555
N15 Ag8 1_555 1_555
N16 H25 1_555 1_555
H26 N16 1_555 1_555
N17 Ag7 1_555 1_555
N18 C56 1_555 1_555
N19 C57 1_555 1_555
N20 H27 1_555 1_555
H28 N20 1_555 1_555
N21 H29 1_555 1_555
H30 N21 1_555 1_555
N22 C41 1_555 1_555
N23 C54 1_555 1_555
N24 H31 1_555 1_555
H32 N24 1_555 1_555
C35 H33 1_555 1_555
C36 C35 1_555 1_555
C37 C36 1_555 1_555
H34 C37 1_555 1_555
C38 C37 1_555 1_555
C39 O16 1_555 1_555
C40 N15 1_555 1_555
C41 N14 1_555 1_555
C42 C41 1_555 1_555
C43 C42 1_555 1_555
H35 C43 1_555 1_555
C44 C43 1_555 1_555
H36 C44 1_555 1_555
C45 C44 1_555 1_555
H37 C45 1_555 1_555
C46 C45 1_555 1_555
H38 C46 1_555 1_555
C47 C42 1_555 1_555
H39 C47 1_555 1_555
C48 N15 1_555 1_555
C49 O17 1_555 1_555
C50 C49 1_555 1_555
C51 C50 1_555 1_555
H40 C51 1_555 1_555
C52 C51 1_555 1_555
C53 C52 1_555 1_555
H41 C53 1_555 1_555
C54 C53 1_555 1_555
C55 C50 1_555 1_555
H42 C55 1_555 1_555
C56 N17 1_555 1_555
C57 N17 1_555 1_555
C58 N18 1_555 1_555
C59 C58 1_555 1_555
C60 C59 1_555 1_555
H43 C60 1_555 1_555
C61 C60 1_555 1_555
H44 C61 1_555 1_555
C62 C61 1_555 1_555
H45 C62 1_555 1_555
C63 C62 1_555 1_555
H46 C63 1_555 1_555
C64 C59 1_555 1_555
H47 C64 1_555 1_555
C65 C52 1_555 1_555
C66 C67 1_555 1_555
C67 C35 1_555 1_555
C68 C38 1_555 1_555
H48 C68 1_555 1_555
Ag1_2 N9 1_555 1_555
Ag1_3 O5 1_555 1_555
Ag2_2 O6 1_555 1_555
Ag3_2 O7 1_555 1_555
Ag3A N8 1_555 1_555
Ag4_2 O8 1_555 1_555
O5_2 Ag1 1_555 1_555
O6_2 Ag2 1_555 1_555
O7_2 Ag3 1_555 1_555
O8_2 Ag4 1_555 1_555
N8A Ag3 1_555 1_555
N9_2 Ag1 1_555 1_555
Ag5_2 O20 1_555 1_555
Ag5_3 N22 1_555 1_555
Ag5_4 O22 1_555 1_555
Ag6_2 O19 1_555 1_555
Ag6_3 O21 1_555 1_555
Ag7A N14 1_555 1_555
O19_2 Ag6 1_555 1_555
O20_2 Ag5 1_555 1_555
O21_2 Ag6 1_555 1_555
O22_2 Ag5 1_555 1_555
N14A Ag7 1_555 1_555
N22_2 Ag5 1_555 1_555
N3 C8 1_555 1_555
N4 C10 1_555 1_555
N5 C8 1_555 1_555
N6 C9 1_555 1_555
N9 C28 1_555 1_555
N10 C26 1_555 1_555
N11 C27 1_555 1_555
C4 C6 1_555 1_555
C5 C17 1_555 1_555
C15 C16 1_555 1_555
C24 C25 1_555 1_555
C33 C34 1_555 1_555
O18 C49 1_555 1_555
N16 C40 1_555 1_555
N19 C58 1_555 1_555
N20 C57 1_555 1_555
N21 C56 1_555 1_555
N22 C48 1_555 1_555
N24 C48 1_555 1_555
C38 C39 1_555 1_555
C46 C47 1_555 1_555
C54 C55 1_555 1_555
C63 C64 1_555 1_555
C67 C68 1_555 1_555
Ag1_3 Ag2_2 1_555 1_555
Ag3_2 Ag4_2 1_555 1_555
Ag5_2 Ag6_2 1_555 1_555
Ag5_4 Ag6_3 1_555 1_555

#END
