
#######################################################################
#
#                 Cambridge Crystallographic Data Centre
#                                CCDC 
#
#######################################################################
#
# If this CIF has been generated from an entry in the Cambridge 
# Structural Database, then it will include bibliographic, chemical, 
# crystal, experimental, refinement or atomic coordinate data resulting 
# from the CCDC's data processing and validation procedures.
#
#######################################################################

data_WIPFOS
_symmetry_cell_setting           triclinic
_symmetry_space_group_name_H-M   'P -1'
_symmetry_Int_Tables_number      2
_space_group_name_Hall           '-P 1'
loop_
_symmetry_equiv_pos_site_id
_symmetry_equiv_pos_as_xyz
1 x,y,z
2 -x,-y,-z
_cell_length_a                   9.02480(10)
_cell_length_b                   12.1416(2)
_cell_length_c                   12.1644(2)
_cell_angle_alpha                65.8380(10)
_cell_angle_beta                 73.6520(10)
_cell_angle_gamma                82.0220(10)
_cell_volume                     1166.55
loop_
_atom_site_label
_atom_site_type_symbol
_atom_site_fract_x
_atom_site_fract_y
_atom_site_fract_z
Co1 Co 0.83788(3) -0.08563(3) 0.18996(2)
N1 N 0.73452(18) -0.24631(16) 0.30275(16)
P1 P 0.84969(6) 0.03354(6) 0.38463(5)
O1 O 0.79437(16) 0.00331(16) 0.29480(14)
O2 O 1.01311(15) 0.07660(14) 0.33902(13)
O3 O 0.83219(15) -0.08230(13) 0.50930(14)
H1 H 0.8828 -0.0750 0.5523
C1 C 0.7966(2) 0.2999(2) 0.6577(2)
C2 C 0.8562(3) 0.3489(2) 0.5301(2)
H2 H 0.9143 0.4180 0.4958
C3 C 0.8342(3) 0.3010(2) 0.4516(2)
C4 C 0.7453(2) 0.1974(2) 0.50237(19)
C5 C 0.6845(2) 0.14335(19) 0.63217(18)
C6 C 0.7126(2) 0.19400(19) 0.70953(18)
C7 C 0.8230(3) 0.3636(3) 0.7344(3)
H3 H 0.8832 0.4338 0.6807
H4 H 0.8773 0.3099 0.7944
H5 H 0.7253 0.3875 0.7766
C8 C 0.9051(4) 0.3624(3) 0.3124(2)
H6 H 0.9608 0.4315 0.2963
H7 H 0.8246 0.3879 0.2690
H8 H 0.9745 0.3066 0.2840
C9 C 0.7144(2) 0.1475(2) 0.4162(2)
H9 H 0.7124 0.2142 0.3376
H10 H 0.6122 0.1137 0.4515
C10 C 0.5867(2) 0.0331(2) 0.6868(2)
H11 H 0.5548 0.0073 0.7756
H12 H 0.6459 -0.0306 0.6657
H13 H 0.4972 0.0527 0.6537
C11 C 0.6780(3) -0.3103(2) 0.2574(2)
H14 H 0.7010 -0.2865 0.1715
C12 C 0.5881(3) -0.4090(2) 0.3305(2)
H15 H 0.5527 -0.4506 0.2938
C13 C 0.5496(2) -0.44723(19) 0.4588(2)
C14 C 0.6080(3) -0.3809(2) 0.5060(2)
H16 H 0.5854 -0.4023 0.5915
C15 C 0.6992(3) -0.2837(2) 0.4271(2)
H17 H 0.7383 -0.2419 0.4615
P2 P 0.79729(5) 0.02969(5) 0.91920(5)
C16 C 0.6555(2) 0.1336(2) 0.85007(18)
H18 H 0.5621 0.0907 0.8706
H19 H 0.6300 0.1951 0.8846
O4 O 0.94430(14) 0.09678(14) 0.87779(13)
O5 O 0.73119(14) -0.02410(15) 1.05781(12)
O6 O 0.82143(16) -0.07778(14) 0.87506(13)
H20 H 0.8780 -0.0569 0.8045
N1A N 0.26548(18) -0.75369(16) 0.69725(16)
C11A C 0.3220(3) -0.6897(2) 0.7426(2)
H14A H 0.2990 -0.7135 0.8285
C12A C 0.4119(3) -0.5910(2) 0.6695(2)
H15A H 0.4473 -0.5494 0.7062
C13A C 0.4504(2) -0.55277(19) 0.5412(2)
C14A C 0.3920(3) -0.6191(2) 0.4940(2)
H16A H 0.4146 -0.5977 0.4085
C15A C 0.3008(3) -0.7163(2) 0.5729(2)
H17A H 0.2617 -0.7581 0.5385
Co1A Co 0.16212(3) -0.91437(3) 0.81004(2)
P1A P 0.15031(6) -1.03354(6) 0.61537(5)
O1A O 0.20563(16) -1.00331(16) 0.70520(14)
O2A O -0.01311(15) -1.07660(14) 0.66098(13)
O3A O 0.16781(15) -0.91770(13) 0.49070(14)
H1A H 0.1172 -0.9250 0.4477
C1A C 0.2034(2) -1.2999(2) 0.3423(2)
C2A C 0.1438(3) -1.3489(2) 0.4699(2)
H2A H 0.0857 -1.4180 0.5042
C3A C 0.1658(3) -1.3010(2) 0.5484(2)
C4A C 0.2547(2) -1.1974(2) 0.49763(19)
C5A C 0.3155(2) -1.14335(19) 0.36783(18)
C6A C 0.2874(2) -1.19400(19) 0.29047(18)
C7A C 0.1770(3) -1.3636(3) 0.2656(3)
H3A H 0.1168 -1.4338 0.3193
H4A H 0.1227 -1.3099 0.2056
H5A H 0.2747 -1.3875 0.2234
C8A C 0.0949(4) -1.3624(3) 0.6876(2)
H6A H 0.0392 -1.4315 0.7037
H7A H 0.1754 -1.3879 0.7310
H8A H 0.0255 -1.3066 0.7160
C9A C 0.2856(2) -1.1475(2) 0.5838(2)
H9A H 0.2876 -1.2142 0.6624
H10A H 0.3878 -1.1137 0.5485
C10A C 0.4133(2) -1.0331(2) 0.3132(2)
H11A H 0.4452 -1.0073 0.2244
H12A H 0.3541 -0.9694 0.3343
H13A H 0.5028 -1.0527 0.3463
P2A P 0.20271(5) -1.02969(5) 0.08080(5)
C16A C 0.3445(2) -1.1336(2) 0.14993(18)
H18A H 0.4379 -1.0907 0.1294
H19A H 0.3700 -1.1951 0.1154
O4A O 0.05570(14) -1.09678(14) 0.12221(13)
O5A O 0.26881(14) -0.97590(15) -0.05781(12)
O6A O 0.17857(16) -0.92222(14) 0.12494(13)
H20A H 0.1220 -0.9431 0.1955
Co1_2 Co -0.16212(3) -1.08563(3) 0.18996(2)
Co1_3 Co 0.83788(3) -0.08563(3) 1.18996(2)
Co1A_2 Co 0.16212(3) -0.91437(3) -0.18996(2)
Co1A_3 Co 1.16212(3) 0.08563(3) 0.81004(2)
O4_2 O -0.05570(14) -0.90322(14) 0.87779(13)
O4A_2 O 1.05570(14) -0.09678(14) 0.12221(13)
O5_2 O 0.73119(14) -0.02410(15) 0.05781(12)
O5A_2 O 0.26881(14) -0.97590(15) 0.94219(12)
loop_
_geom_bond_atom_site_label_1
_geom_bond_atom_site_label_2
_geom_bond_site_symmetry_1
_geom_bond_site_symmetry_2
Co1 N1 1_555 1_555
N1 C11 1_555 1_555
P1 O1 1_555 1_555
O1 Co1 1_555 1_555
O2 P1 1_555 1_555
O3 P1 1_555 1_555
H1 O3 1_555 1_555
C1 C2 1_555 1_555
C2 H2 1_555 1_555
C3 C2 1_555 1_555
C4 C3 1_555 1_555
C5 C4 1_555 1_555
C6 C1 1_555 1_555
C7 C1 1_555 1_555
H3 C7 1_555 1_555
H4 C7 1_555 1_555
H5 C7 1_555 1_555
C8 C3 1_555 1_555
H6 C8 1_555 1_555
H7 C8 1_555 1_555
H8 C8 1_555 1_555
C9 P1 1_555 1_555
H9 C9 1_555 1_555
H10 C9 1_555 1_555
C10 C5 1_555 1_555
H11 C10 1_555 1_555
H12 C10 1_555 1_555
H13 C10 1_555 1_555
C11 H14 1_555 1_555
C12 C11 1_555 1_555
H15 C12 1_555 1_555
C13 C12 1_555 1_555
C14 C13 1_555 1_555
H16 C14 1_555 1_555
C15 N1 1_555 1_555
H17 C15 1_555 1_555
P2 C16 1_555 1_555
C16 C6 1_555 1_555
H18 C16 1_555 1_555
H19 C16 1_555 1_555
O4 P2 1_555 1_555
O5 P2 1_555 1_555
O6 P2 1_555 1_555
H20 O6 1_555 1_555
N1A C11A 1_555 1_555
C11A H14A 1_555 1_555
C12A C11A 1_555 1_555
H15A C12A 1_555 1_555
C13A C13 1_555 1_555
C14A C13A 1_555 1_555
H16A C14A 1_555 1_555
C15A N1A 1_555 1_555
H17A C15A 1_555 1_555
Co1A N1A 1_555 1_555
P1A O1A 1_555 1_555
O1A Co1A 1_555 1_555
O2A P1A 1_555 1_555
O3A P1A 1_555 1_555
H1A O3A 1_555 1_555
C1A C2A 1_555 1_555
C2A H2A 1_555 1_555
C3A C2A 1_555 1_555
C4A C3A 1_555 1_555
C5A C4A 1_555 1_555
C6A C1A 1_555 1_555
C7A C1A 1_555 1_555
H3A C7A 1_555 1_555
H4A C7A 1_555 1_555
H5A C7A 1_555 1_555
C8A C3A 1_555 1_555
H6A C8A 1_555 1_555
H7A C8A 1_555 1_555
H8A C8A 1_555 1_555
C9A P1A 1_555 1_555
H9A C9A 1_555 1_555
H10A C9A 1_555 1_555
C10A C5A 1_555 1_555
H11A C10A 1_555 1_555
H12A C10A 1_555 1_555
H13A C10A 1_555 1_555
P2A C16A 1_555 1_555
C16A C6A 1_555 1_555
H18A C16A 1_555 1_555
H19A C16A 1_555 1_555
O4A P2A 1_555 1_555
O5A P2A 1_555 1_555
O6A P2A 1_555 1_555
H20A O6A 1_555 1_555
Co1_2 O4A 1_555 1_555
Co1_3 O5 1_555 1_555
Co1A_2 O5A 1_555 1_555
Co1A_3 O4 1_555 1_555
O4_2 Co1A 1_555 1_555
O4A_2 Co1 1_555 1_555
O5_2 Co1 1_555 1_555
O5A_2 Co1A 1_555 1_555
C4 C9 1_555 1_555
C5 C6 1_555 1_555
C14 C15 1_555 1_555
C12A C13A 1_555 1_555
C14A C15A 1_555 1_555
C4A C9A 1_555 1_555
C5A C6A 1_555 1_555

#END
