
#######################################################################
#
#                 Cambridge Crystallographic Data Centre
#                                CCDC 
#
#######################################################################
#
# If this CIF has been generated from an entry in the Cambridge 
# Structural Database, then it will include bibliographic, chemical, 
# crystal, experimental, refinement or atomic coordinate data resulting 
# from the CCDC's data processing and validation procedures.
#
#######################################################################

data_WIPFAE
_symmetry_cell_setting           orthorhombic
_symmetry_space_group_name_H-M   'P 21 21 21'
_symmetry_Int_Tables_number      19
_space_group_name_Hall           'P 2ac 2ab'
loop_
_symmetry_equiv_pos_site_id
_symmetry_equiv_pos_as_xyz
1 x,y,z
2 1/2-x,-y,1/2+z
3 -x,1/2+y,1/2-z
4 1/2+x,1/2-y,-z
_cell_length_a                   7.5686(5)
_cell_length_b                   10.3971(7)
_cell_length_c                   21.4920(14)
_cell_angle_alpha                90
_cell_angle_beta                 90
_cell_angle_gamma                90
_cell_volume                     1691.24
loop_
_atom_site_label
_atom_site_type_symbol
_atom_site_fract_x
_atom_site_fract_y
_atom_site_fract_z
Ag1 Ag -0.18099(4) 0.40734(3) 0.583457(12)
Ag2 Ag -0.04821(4) 0.33521(3) 0.824332(13)
O1 O -0.1608(3) 0.4080(2) 0.69311(11)
O2 O -0.3038(4) 0.4027(3) 0.78188(12)
O3 O -0.1827(4) 0.7137(2) 0.69458(11)
O4 O -0.1814(3) 0.6683(3) 0.59358(11)
N1 N 0.1316(3) 0.0848(2) 0.50147(12)
N2 N 0.0141(4) 0.2264(2) 0.57764(13)
N3 N 0.0635(4) 0.0056(3) 0.60270(12)
N4 N -0.0165(5) 0.1527(3) 0.67756(13)
H1 H -0.0144 0.0927 0.7051
H2 H -0.0435 0.2300 0.6882
N5 N 0.1513(5) -0.1297(3) 0.52449(14)
H3 H 0.1420 -0.1932 0.5499
H4 H 0.1843 -0.1429 0.4867
C1 C 0.0727(4) 0.1993(3) 0.52089(15)
C2 C 0.0721(4) 0.3045(3) 0.47459(15)
C3 C 0.0094(5) 0.2828(3) 0.41463(17)
H5 H -0.0319 0.2018 0.4035
C4 C 0.0083(5) 0.3814(4) 0.37144(18)
H6 H -0.0362 0.3671 0.3317
C5 C 0.0730(6) 0.5006(4) 0.38722(19)
H7 H 0.0728 0.5669 0.3582
C6 C 0.1388(6) 0.5216(4) 0.4469(2)
H8 H 0.1856 0.6015 0.4571
C7 C 0.1356(5) 0.4258(3) 0.49076(18)
H9 H 0.1755 0.4416 0.5310
C8 C -0.2917(4) 0.4322(3) 0.72673(15)
C9 C -0.4484(4) 0.4971(3) 0.69704(14)
C10 C -0.6164(4) 0.4471(3) 0.70813(17)
H10 H -0.6315 0.3805 0.7365
C11 C -0.7605(5) 0.4969(4) 0.67676(18)
H11 H -0.8728 0.4640 0.6842
C12 C -0.7381(5) 0.5966(4) 0.63394(18)
H12 H -0.8347 0.6288 0.6122
C13 C -0.5710(5) 0.6472(3) 0.62400(17)
H13 H -0.5568 0.7145 0.5959
C14 C -0.4255(4) 0.5996(3) 0.65498(15)
C15 C -0.2490(4) 0.6632(3) 0.64704(15)
C16 C 0.0217(4) 0.1260(3) 0.61885(15)
C17 C 0.1146(5) -0.0114(3) 0.54352(16)
Ag1C Ag 0.31901(4) 0.09266(3) 0.416543(12)
Ag2B Ag 0.04821(4) -0.16479(3) 0.675668(13)
Ag2B_2 Ag 0.04821(4) 0.83521(3) 0.675668(13)
O3B O 0.1827(4) 0.2137(2) 0.80542(11)
N1C N -0.3684(3) 0.4152(2) 0.49853(12)
N3B N -0.0635(4) 0.5056(3) 0.89730(12)
loop_
_geom_bond_atom_site_label_1
_geom_bond_atom_site_label_2
_geom_bond_site_symmetry_1
_geom_bond_site_symmetry_2
Ag1 O1 1_555 1_555
Ag2 O2 1_555 1_555
O1 C8 1_555 1_555
O2 C8 1_555 1_555
O3 C15 1_555 1_555
O4 C15 1_555 1_555
N1 C1 1_555 1_555
N2 Ag1 1_555 1_555
N3 C16 1_555 1_555
N4 H1 1_555 1_555
H2 N4 1_555 1_555
N5 H3 1_555 1_555
H4 N5 1_555 1_555
C1 N2 1_555 1_555
C2 C1 1_555 1_555
C3 C2 1_555 1_555
H5 C3 1_555 1_555
C4 C3 1_555 1_555
H6 C4 1_555 1_555
C5 C4 1_555 1_555
H7 C5 1_555 1_555
C6 C5 1_555 1_555
H8 C6 1_555 1_555
C7 C2 1_555 1_555
H9 C7 1_555 1_555
C8 C9 1_555 1_555
C9 C10 1_555 1_555
C10 H10 1_555 1_555
C11 C10 1_555 1_555
H11 C11 1_555 1_555
C12 C11 1_555 1_555
H12 C12 1_555 1_555
C13 C12 1_555 1_555
H13 C13 1_555 1_555
C14 C9 1_555 1_555
C15 C14 1_555 1_555
C16 N2 1_555 1_555
C17 N1 1_555 1_555
Ag1C N1 1_555 1_555
Ag2B N3 1_555 1_555
Ag2B_2 O3 1_555 1_555
O3B Ag2 1_555 1_555
N1C Ag1 1_555 1_555
N3B Ag2 1_555 1_555
N3 C17 1_555 1_555
N4 C16 1_555 1_555
N5 C17 1_555 1_555
C6 C7 1_555 1_555
C13 C14 1_555 1_555

#END
