
#######################################################################
#
#                 Cambridge Crystallographic Data Centre
#                                CCDC 
#
#######################################################################
#
# If this CIF has been generated from an entry in the Cambridge 
# Structural Database, then it will include bibliographic, chemical, 
# crystal, experimental, refinement or atomic coordinate data resulting 
# from the CCDC's data processing and validation procedures.
#
#######################################################################

data_WIPFEI
_symmetry_cell_setting           monoclinic
_symmetry_space_group_name_H-M   'C c'
_symmetry_Int_Tables_number      9
_space_group_name_Hall           'C -2yc'
loop_
_symmetry_equiv_pos_site_id
_symmetry_equiv_pos_as_xyz
1 x,y,z
2 x,-y,1/2+z
3 1/2+x,1/2+y,z
4 1/2+x,1/2-y,1/2+z
_cell_length_a                   30.0876(10)
_cell_length_b                   8.0644(3)
_cell_length_c                   17.5212(5)
_cell_angle_alpha                90
_cell_angle_beta                 96.476(2)
_cell_angle_gamma                90
_cell_volume                     4224.19
loop_
_atom_site_label
_atom_site_type_symbol
_atom_site_fract_x
_atom_site_fract_y
_atom_site_fract_z
Ni1 Ni 0.08097(4) 0.86377(16) 0.38329(6)
Ni2 Ni 0.18488(4) 0.86202(16) 0.40313(6)
Ni3 Ni 0.13299(5) 0.94295(15) 0.56827(7)
P1 P 0.02121(9) 0.6740(3) 0.22921(15)
P2 P 0.00386(10) 0.8457(4) -0.13024(15)
P3 P 0.24671(10) 0.6746(3) 0.27246(15)
P4 P 0.26037(10) 0.8460(4) -0.08073(15)
N1 N 0.0653(3) 0.7240(10) 0.4749(4)
N2 N 0.0839(3) 0.7636(11) 0.5487(4)
N3 N 0.0439(3) 0.5397(11) 0.5541(5)
H1 H 0.0311 0.4547 0.5717
N4 N 0.1818(3) 0.7630(11) 0.5680(4)
N5 N 0.2010(3) 0.7241(10) 0.5017(4)
N6 N 0.2235(3) 0.5465(11) 0.5903(5)
H2 H 0.2375 0.4651 0.6138
N7 N 0.1568(3) 0.9864(10) 0.3065(4)
N8 N 0.1099(3) 0.9863(10) 0.2979(4)
N9 N 0.1332(3) 1.0643(10) 0.1860(5)
O1 O 0.0301(2) 0.7657(8) 0.3060(3)
O2 O 0.1330(2) 0.6735(8) 0.3660(3)
H3 H 0.1528 0.7425 0.3841
H4 H 0.1303 0.6309 0.3213
O3 O 0.0286(3) 0.4824(8) 0.2386(4)
H5 H 0.0204 0.4520 0.2794
O4 O 0.0850(2) 1.1348(9) 0.5522(4)
H6 H 0.0785 1.0971 0.5948
H7 H 0.0728 1.1151 0.5070
O5 O 0.0486(2) 0.7275(8) 0.1679(4)
O6 O 0.18172(14) 1.1331(5) 0.5725(2)
H8 H 0.1993 1.1235 0.5380
H9 H 0.1652 1.0481 0.5638
O7 O 0.03744(14) 0.9517(5) -0.0820(2)
O8 O 0.0168(3) 0.6705(9) -0.1424(4)
O9 O -0.0079(2) 0.9341(9) -0.2102(4)
H10 H 0.0138 0.9879 -0.2206
O10 O 0.2371(2) 0.7631(8) 0.3457(3)
O11 O 0.2190(2) 0.7245(8) 0.2005(4)
O12 O 0.2413(3) 0.4811(8) 0.2788(4)
H11 H 0.2482 0.4521 0.3235
O13 O 0.2273(2) 0.9550(8) -0.0461(4)
O14 O 0.2458(3) 0.6714(9) -0.0976(4)
O15 O 0.2718(3) 0.9311(8) -0.1575(4)
H12 H 0.2653 1.0298 -0.1568
O16 O 0.1329(2) 0.9612(8) 0.4533(3)
H13 H 0.1361 1.0649 0.4473
C1 C 0.0415(4) 0.5925(14) 0.4792(6)
H14 H 0.0251 0.5407 0.4378
C2 C 0.0708(4) 0.6505(13) 0.5938(6)
H15 H 0.0788 0.6466 0.6465
C3 C 0.1962(4) 0.6504(13) 0.6190(6)
H16 H 0.1883 0.6452 0.6687
C4 C 0.2252(4) 0.5926(13) 0.5156(6)
H17 H 0.2411 0.5384 0.4806
C5 C 0.1682(4) 1.0309(13) 0.2401(6)
H18 H 0.1979 1.0392 0.2303
C6 C 0.0985(4) 1.0342(14) 0.2270(6)
H19 H 0.0688 1.0466 0.2063
C7 C -0.0370(3) 0.7113(12) 0.1958(6)
H20 H -0.0555 0.6511 0.2282
H21 H -0.0433 0.8286 0.2007
C8 C -0.0496(3) 0.6583(13) 0.1118(5)
C9 C -0.0653(4) 0.4979(13) 0.0943(6)
C10 C -0.0741(4) 0.4512(14) 0.0175(6)
H22 H -0.0838 0.3436 0.0059
C11 C -0.0690(3) 0.5610(14) -0.0428(5)
C12 C -0.0540(3) 0.7233(13) -0.0246(5)
C13 C -0.0447(3) 0.7710(13) 0.0517(6)
C14 C -0.0297(4) 0.9528(12) 0.0710(6)
H23 H -0.0014 0.9732 0.0522
H24 H -0.0268 0.9688 0.1256
H25 H -0.0516 1.0283 0.0469
C15 C -0.0492(3) 0.8453(13) -0.0913(6)
H26 H -0.0548 0.9565 -0.0735
H27 H -0.0725 0.8202 -0.1327
C16 C -0.0816(4) 0.5017(15) -0.1242(6)
H28 H -0.1063 0.5659 -0.1477
H29 H -0.0900 0.3869 -0.1235
H30 H -0.0565 0.5145 -0.1530
C17 C -0.0724(4) 0.3703(14) 0.1545(6)
H31 H -0.0860 0.2733 0.1302
H32 H -0.0916 0.4153 0.1895
H33 H -0.0441 0.3411 0.1822
C18 C 0.3044(3) 0.7150(12) 0.2617(5)
H34 H 0.3102 0.8325 0.2690
H35 H 0.3231 0.6556 0.3013
C19 C 0.3172(3) 0.6626(14) 0.1820(6)
C20 C 0.3100(3) 0.7754(13) 0.1200(6)
C21 C 0.3189(3) 0.7245(14) 0.0454(6)
C22 C 0.3345(3) 0.5644(15) 0.0367(6)
C23 C 0.3432(4) 0.4618(14) 0.0990(6)
H36 H 0.3553 0.3576 0.0918
C24 C 0.3348(4) 0.5061(15) 0.1716(6)
C25 C 0.3453(4) 0.3846(14) 0.2379(6)
H37 H 0.3556 0.2817 0.2186
H38 H 0.3188 0.3651 0.2624
H39 H 0.3682 0.4303 0.2745
C26 C 0.3448(4) 0.4996(15) -0.0414(6)
H40 H 0.3536 0.3853 -0.0367
H41 H 0.3687 0.5634 -0.0586
H42 H 0.3187 0.5095 -0.0779
C27 C 0.3136(3) 0.8415(14) -0.0219(6)
H43 H 0.3364 0.8142 -0.0549
H44 H 0.3199 0.9527 -0.0026
C28 C 0.2958(4) 0.9567(13) 0.1313(6)
H45 H 0.2759 0.9613 0.1704
H46 H 0.2809 0.9987 0.0840
H47 H 0.3218 1.0228 0.1466
Ni1A Ni 0.08097(4) 1.13623(16) -0.11671(6)
Ni2A Ni 0.18488(4) 1.13798(16) -0.09687(6)
Ni3A Ni 0.13299(5) 1.05705(15) 0.06827(7)
N9A N 0.1332(3) 0.9357(10) 0.6860(5)
O7A O 0.03744(14) 1.0483(5) 0.4180(2)
O13A O 0.2273(2) 1.0450(8) 0.4539(4)
O17 O 0.13383(14) 0.6055(5) 0.2185(2)
H48 H 0.1677 0.6525 0.2216
H49 H 0.1377 0.5962 0.1729
O18 O 0.1359(6) 0.3595(12) 0.4369(6)
H50 H 0.1398 0.3698 0.3898
H51 H 0.1556 0.4352 0.4442
loop_
_geom_bond_atom_site_label_1
_geom_bond_atom_site_label_2
_geom_bond_site_symmetry_1
_geom_bond_site_symmetry_2
Ni1 N1 1_555 1_555
Ni2 N5 1_555 1_555
Ni3 N2 1_555 1_555
P1 O1 1_555 1_555
P2 O7 1_555 1_555
P3 O10 1_555 1_555
P4 O13 1_555 1_555
N1 N2 1_555 1_555
N2 C2 1_555 1_555
N3 H1 1_555 1_555
N4 Ni3 1_555 1_555
N5 N4 1_555 1_555
N6 H2 1_555 1_555
N7 Ni2 1_555 1_555
N8 Ni1 1_555 1_555
N9 C5 1_555 1_555
O1 Ni1 1_555 1_555
O2 Ni1 1_555 1_555
H3 O2 1_555 1_555
H4 O2 1_555 1_555
O3 P1 1_555 1_555
H5 O3 1_555 1_555
O4 Ni3 1_555 1_555
H6 O4 1_555 1_555
H7 O4 1_555 1_555
O5 P1 1_555 1_555
O6 Ni3 1_555 1_555
H8 O6 1_555 1_555
H9 O6 1_555 1_555
O7 Ni1A 1_555 1_555
O8 P2 1_555 1_555
O9 P2 1_555 1_555
H10 O9 1_555 1_555
O10 Ni2 1_555 1_555
O11 P3 1_555 1_555
O12 P3 1_555 1_555
H11 O12 1_555 1_555
O13 Ni2A 1_555 1_555
O14 P4 1_555 1_555
O15 P4 1_555 1_555
H12 O15 1_555 1_555
O16 Ni1 1_555 1_555
H13 O16 1_555 1_555
C1 N1 1_555 1_555
H14 C1 1_555 1_555
C2 N3 1_555 1_555
H15 C2 1_555 1_555
C3 N4 1_555 1_555
H16 C3 1_555 1_555
C4 N5 1_555 1_555
H17 C4 1_555 1_555
C5 N7 1_555 1_555
H18 C5 1_555 1_555
C6 N8 1_555 1_555
H19 C6 1_555 1_555
C7 P1 1_555 1_555
H20 C7 1_555 1_555
H21 C7 1_555 1_555
C8 C7 1_555 1_555
C9 C8 1_555 1_555
C10 C9 1_555 1_555
H22 C10 1_555 1_555
C11 C10 1_555 1_555
C12 C11 1_555 1_555
C13 C8 1_555 1_555
C14 C13 1_555 1_555
H23 C14 1_555 1_555
H24 C14 1_555 1_555
H25 C14 1_555 1_555
C15 P2 1_555 1_555
H26 C15 1_555 1_555
H27 C15 1_555 1_555
C16 C11 1_555 1_555
H28 C16 1_555 1_555
H29 C16 1_555 1_555
H30 C16 1_555 1_555
C17 C9 1_555 1_555
H31 C17 1_555 1_555
H32 C17 1_555 1_555
H33 C17 1_555 1_555
C18 P3 1_555 1_555
H34 C18 1_555 1_555
H35 C18 1_555 1_555
C19 C18 1_555 1_555
C20 C19 1_555 1_555
C21 C20 1_555 1_555
C22 C21 1_555 1_555
C23 C22 1_555 1_555
H36 C23 1_555 1_555
C24 C19 1_555 1_555
C25 C24 1_555 1_555
H37 C25 1_555 1_555
H38 C25 1_555 1_555
H39 C25 1_555 1_555
C26 C22 1_555 1_555
H40 C26 1_555 1_555
H41 C26 1_555 1_555
H42 C26 1_555 1_555
C27 P4 1_555 1_555
H43 C27 1_555 1_555
H44 C27 1_555 1_555
C28 C20 1_555 1_555
H45 C28 1_555 1_555
H46 C28 1_555 1_555
H47 C28 1_555 1_555
O17 H48 1_555 1_555
H49 O17 1_555 1_555
O18 H50 1_555 1_555
H51 O18 1_555 1_555
Ni3A N9 1_555 1_555
N9A Ni3 1_555 1_555
O7A Ni1 1_555 1_555
O13A Ni2 1_555 1_555
Ni2 O2 1_555 1_555
Ni2 O16 1_555 1_555
Ni3 O16 1_555 1_555
N3 C1 1_555 1_555
N6 C3 1_555 1_555
N6 C4 1_555 1_555
N7 N8 1_555 1_555
N9 C6 1_555 1_555
C12 C13 1_555 1_555
C12 C15 1_555 1_555
C21 C27 1_555 1_555
C23 C24 1_555 1_555

#END
