
#######################################################################
#
#                 Cambridge Crystallographic Data Centre
#                                CCDC 
#
#######################################################################
#
# If this CIF has been generated from an entry in the Cambridge 
# Structural Database, then it will include bibliographic, chemical, 
# crystal, experimental, refinement or atomic coordinate data resulting 
# from the CCDC's data processing and validation procedures.
#
#######################################################################

data_WIPJUC
_symmetry_cell_setting           monoclinic
_symmetry_space_group_name_H-M   'P 21/c'
_symmetry_Int_Tables_number      14
_space_group_name_Hall           '-P 2ybc'
loop_
_symmetry_equiv_pos_site_id
_symmetry_equiv_pos_as_xyz
1 x,y,z
2 -x,1/2+y,1/2-z
3 -x,-y,-z
4 x,1/2-y,1/2+z
_cell_length_a                   15.3567(5)
_cell_length_b                   15.6711(4)
_cell_length_c                   15.2073(6)
_cell_angle_alpha                90
_cell_angle_beta                 116.440(4)
_cell_angle_gamma                90
_cell_volume                     3276.93
loop_
_atom_site_label
_atom_site_type_symbol
_atom_site_fract_x
_atom_site_fract_y
_atom_site_fract_z
Pb1 Pb 0.736865(18) 0.876952(19) 0.82550(2)
Pb2 Pb 0.487407(18) 0.615550(18) 0.39836(2)
Pb3 Pb 0.751764(18) 0.408280(19) 0.49608(2)
C1 C 0.9539(5) 0.8982(4) 1.0211(5)
C2 C 1.0522(4) 0.9024(4) 1.0439(5)
C3 C 0.8974(5) 0.9037(5) 1.0770(6)
C4 C 1.1355(5) 0.9188(5) 1.1403(6)
C5 C 0.9711(5) 0.8913(4) 0.8890(5)
C6 C 0.9399(5) 0.8807(5) 0.7838(5)
C7 C 1.0045(5) 0.8769(6) 0.7422(6)
H1 H 1.0709 0.8846 0.7807
C8 C 0.9675(7) 0.8611(7) 0.6415(7)
H2 H 1.0089 0.8579 0.6119
C9 C 0.8692(7) 0.8506(7) 0.5872(7)
H3 H 0.8427 0.8394 0.5202
C10 C 0.8117(6) 0.8570(6) 0.6331(6)
H4 H 0.7449 0.8515 0.5951
C11 C 0.6970(5) 0.6849(5) 0.7101(5)
C12 C 0.6530(5) 0.6255(4) 0.6380(5)
C13 C 0.7817(5) 0.6770(5) 0.8066(5)
C14 C 0.6736(5) 0.5349(5) 0.6279(5)
C15 C 0.5718(5) 0.7417(5) 0.5947(5)
C16 C 0.4946(5) 0.8020(5) 0.5350(5)
C17 C 0.4850(5) 0.8835(5) 0.5640(6)
H5 H 0.5297 0.9042 0.6247
C18 C 0.4091(6) 0.9335(6) 0.5026(6)
H6 H 0.4002 0.9877 0.5221
C19 C 0.3459(6) 0.9020(6) 0.4110(7)
H7 H 0.2950 0.9353 0.3669
C20 C 0.3602(6) 0.8199(6) 0.3870(6)
H8 H 0.3167 0.7983 0.3262
C21 C 0.5072(4) 0.2900(4) 0.2306(5)
C22 C 0.5518(4) 0.3587(4) 0.2911(5)
C23 C 0.4137(5) 0.2856(5) 0.1407(5)
C24 C 0.5287(5) 0.4503(5) 0.2881(5)
C25 C 0.6411(4) 0.2462(4) 0.3466(5)
C26 C 0.7260(5) 0.1967(5) 0.4118(5)
C27 C 0.7395(5) 0.1119(5) 0.3941(6)
H9 H 0.6940 0.0838 0.3388
C28 C 0.8210(6) 0.0706(5) 0.4594(7)
H10 H 0.8316 0.0139 0.4490
C29 C 0.8879(6) 0.1137(6) 0.5416(7)
H11 H 0.9432 0.0864 0.5877
C30 C 0.8696(6) 0.1989(6) 0.5526(6)
H12 H 0.9146 0.2284 0.6069
N1 N 0.9043(4) 0.8915(4) 0.9223(4)
N2 N 1.0632(4) 0.8981(4) 0.9609(4)
N3 N 0.8439(4) 0.8706(4) 0.7293(4)
N4 N 0.5737(4) 0.6620(4) 0.5651(4)
N5 N 0.6459(4) 0.7603(4) 0.6842(4)
N6 N 0.4328(4) 0.7698(4) 0.4460(5)
N7 N 0.6359(4) 0.3298(4) 0.3656(4)
N8 N 0.5643(4) 0.2196(4) 0.2633(4)
N9 N 0.7905(4) 0.2405(4) 0.4891(4)
O1 O 0.8088(3) 0.9080(4) 1.0336(4)
O2 O 0.9436(4) 0.9071(4) 1.1725(4)
O3 O 1.1234(4) 0.9160(4) 1.2162(4)
O4 O 1.2177(3) 0.9362(3) 1.1424(4)
O5 O 0.8068(3) 0.7380(3) 0.8647(3)
O6 O 0.8288(4) 0.6055(3) 0.8306(4)
O7 O 0.7463(4) 0.4996(3) 0.6980(4)
O8 O 0.6182(3) 0.4959(4) 0.5514(4)
O9 O 0.3841(3) 0.2158(3) 0.0987(4)
O10 O 0.3641(3) 0.3552(3) 0.1099(4)
O11 O 0.4469(3) 0.4753(3) 0.2219(4)
O12 O 0.5880(3) 0.4991(3) 0.3506(4)
H13 H 0.4174 0.4330 0.1850
H14 H 0.8000 0.5666 0.7887
H15 H 1.0045 0.8997 1.1927
Pb2A Pb 0.512593(18) 0.115550(18) 0.10164(2)
Pb2B Pb 0.512593(18) 0.384450(18) 0.60164(2)
Pb3A Pb 1.248236(18) 0.908280(19) 1.00392(2)
N2A N 0.9368(4) 0.3981(4) 0.5391(4)
N8A N 0.4357(4) 0.7196(4) 0.2367(4)
O4A O 0.7823(3) 0.4362(3) 0.3576(4)
O8B O 0.3818(3) 0.5041(4) 0.4486(4)
O9A O 0.6159(3) 0.7158(3) 0.4013(4)
loop_
_geom_bond_atom_site_label_1
_geom_bond_atom_site_label_2
_geom_bond_site_symmetry_1
_geom_bond_site_symmetry_2
Pb1 N1 1_555 1_555
Pb2 N4 1_555 1_555
Pb3 N7 1_555 1_555
C1 C2 1_555 1_555
C2 C4 1_555 1_555
C3 C1 1_555 1_555
C4 O3 1_555 1_555
C5 C6 1_555 1_555
C6 C7 1_555 1_555
C7 H1 1_555 1_555
C8 C7 1_555 1_555
H2 C8 1_555 1_555
C9 C8 1_555 1_555
H3 C9 1_555 1_555
C10 C9 1_555 1_555
H4 C10 1_555 1_555
C11 C12 1_555 1_555
C12 C14 1_555 1_555
C13 C11 1_555 1_555
C14 O7 1_555 1_555
C15 C16 1_555 1_555
C16 C17 1_555 1_555
C17 H5 1_555 1_555
C18 C17 1_555 1_555
H6 C18 1_555 1_555
C19 C18 1_555 1_555
H7 C19 1_555 1_555
C20 C19 1_555 1_555
H8 C20 1_555 1_555
C21 C22 1_555 1_555
C22 C24 1_555 1_555
C23 C21 1_555 1_555
C24 O11 1_555 1_555
C25 C26 1_555 1_555
C26 C27 1_555 1_555
C27 H9 1_555 1_555
C28 C27 1_555 1_555
H10 C28 1_555 1_555
C29 C28 1_555 1_555
H11 C29 1_555 1_555
C30 C29 1_555 1_555
H12 C30 1_555 1_555
N1 C1 1_555 1_555
N2 C2 1_555 1_555
N3 Pb1 1_555 1_555
N4 C12 1_555 1_555
N5 Pb1 1_555 1_555
N6 Pb2 1_555 1_555
N7 C22 1_555 1_555
N8 C21 1_555 1_555
N9 Pb3 1_555 1_555
O1 Pb1 1_555 1_555
O2 C3 1_555 1_555
O4 C4 1_555 1_555
O5 Pb1 1_555 1_555
O6 C13 1_555 1_555
O8 Pb3 1_555 1_555
O9 C23 1_555 1_555
O10 C23 1_555 1_555
O11 H13 1_555 1_555
O12 Pb2 1_555 1_555
H14 O6 1_555 1_555
H15 O2 1_555 1_555
Pb2A N8 1_555 1_555
Pb2B O8 1_555 1_555
Pb3A N2 1_555 1_555
N2A Pb3 1_555 1_555
N8A Pb2 1_555 1_555
O4A Pb3 1_555 1_555
O8B Pb2 1_555 1_555
O9A Pb2 1_555 1_555
Pb3 O12 1_555 1_555
C3 O1 1_555 1_555
C5 N1 1_555 1_555
C5 N2 1_555 1_555
C6 N3 1_555 1_555
C10 N3 1_555 1_555
C11 N5 1_555 1_555
C13 O5 1_555 1_555
C14 O8 1_555 1_555
C15 N4 1_555 1_555
C15 N5 1_555 1_555
C16 N6 1_555 1_555
C20 N6 1_555 1_555
C24 O12 1_555 1_555
C25 N7 1_555 1_555
C25 N8 1_555 1_555
C26 N9 1_555 1_555
C30 N9 1_555 1_555
O4 Pb3A 1_555 1_555
O9 Pb2A 1_555 1_555

#END
