
#######################################################################
#
#                 Cambridge Crystallographic Data Centre
#                                CCDC 
#
#######################################################################
#
# If this CIF has been generated from an entry in the Cambridge 
# Structural Database, then it will include bibliographic, chemical, 
# crystal, experimental, refinement or atomic coordinate data resulting 
# from the CCDC's data processing and validation procedures.
#
#######################################################################

data_WIPKEN
_symmetry_cell_setting           monoclinic
_symmetry_space_group_name_H-M   'P 21/c'
_symmetry_Int_Tables_number      14
_space_group_name_Hall           '-P 2ybc'
loop_
_symmetry_equiv_pos_site_id
_symmetry_equiv_pos_as_xyz
1 x,y,z
2 -x,1/2+y,1/2-z
3 -x,-y,-z
4 x,1/2-y,1/2+z
_cell_length_a                   8.9386(2)
_cell_length_b                   10.9038(3)
_cell_length_c                   13.9396(4)
_cell_angle_alpha                90
_cell_angle_beta                 105.176(3)
_cell_angle_gamma                90
_cell_volume                     1311.24
loop_
_atom_site_label
_atom_site_type_symbol
_atom_site_fract_x
_atom_site_fract_y
_atom_site_fract_z
Pb1 Pb 0.98851(2) 0.97471(2) 0.172030(16)
C1 C 0.8290(6) 1.2593(5) 0.1036(4)
H1 H 0.9325 1.2752 0.1071
C2 C 0.7255(6) 1.3553(5) 0.0821(4)
H2 H 0.7583 1.4338 0.0710
C3 C 0.5715(7) 1.3322(5) 0.0776(4)
H3 H 0.4984 1.3949 0.0638
C4 C 0.5291(6) 1.2147(5) 0.0938(4)
H4 H 0.4263 1.1971 0.0913
C5 C 0.6385(6) 1.1228(5) 0.1139(3)
C6 C 0.6047(6) 0.9952(4) 0.1347(4)
C7 C 0.4846(6) 0.8261(5) 0.1556(4)
C8 C 0.6419(6) 0.8053(4) 0.1753(4)
C9 C 0.3479(6) 0.7464(5) 0.1562(4)
C10 C 0.7348(6) 0.6930(5) 0.2081(4)
Cl1 Cl 0.85524(15) 0.89827(12) -0.03345(10)
N1 N 0.7888(5) 1.1449(4) 0.1196(3)
N2 N 0.7134(5) 0.9122(4) 0.1620(3)
N3 N 0.4641(5) 0.9474(4) 0.1299(3)
H5 H 0.3772 0.9859 0.1137
O1 O 0.8771(4) 0.6985(4) 0.2304(3)
O2 O 0.6591(5) 0.5927(3) 0.2135(3)
O3 O 0.3771(4) 0.6323(4) 0.1700(3)
O4 O 0.2201(4) 0.7934(4) 0.1422(3)
O5 O 0.9223(5) 1.0219(3) 0.3474(3)
H6 H 0.9907 1.0665 0.3855
H7 H 0.8431 1.0635 0.3502
H8 H 0.4719 0.6101 0.1826
Pb1A Pb 1.01149(2) 0.47471(2) 0.327970(16)
Pb1B Pb 1.01149(2) 1.02529(2) -0.172030(16)
Cl1B Cl 1.14476(15) 1.10173(12) 0.03345(10)
O1A O 1.1229(4) 1.1985(4) 0.2696(3)
O6 O 0.1611(5) 0.3845(4) 0.0009(3)
H9 H 0.1569 0.4214 0.0539
H10 H 0.1805 0.3110 0.0207
loop_
_geom_bond_atom_site_label_1
_geom_bond_atom_site_label_2
_geom_bond_site_symmetry_1
_geom_bond_site_symmetry_2
Pb1 Cl1 1_555 1_555
C1 H1 1_555 1_555
C2 C1 1_555 1_555
H2 C2 1_555 1_555
C3 C2 1_555 1_555
H3 C3 1_555 1_555
C4 C3 1_555 1_555
H4 C4 1_555 1_555
C5 C4 1_555 1_555
C6 C5 1_555 1_555
C7 C8 1_555 1_555
C8 C10 1_555 1_555
C9 C7 1_555 1_555
C10 O1 1_555 1_555
Cl1 Pb1B 1_555 1_555
N1 Pb1 1_555 1_555
N2 Pb1 1_555 1_555
N3 C6 1_555 1_555
H5 N3 1_555 1_555
O1 Pb1A 1_555 1_555
O2 C10 1_555 1_555
O3 C9 1_555 1_555
O4 C9 1_555 1_555
O5 Pb1 1_555 1_555
H6 O5 1_555 1_555
H7 O5 1_555 1_555
H8 O3 1_555 1_555
O6 H9 1_555 1_555
H10 O6 1_555 1_555
Pb1B Cl1B 1_555 1_555
Cl1B Pb1 1_555 1_555
O1A Pb1 1_555 1_555
C1 N1 1_555 1_555
C5 N1 1_555 1_555
C6 N2 1_555 1_555
C7 N3 1_555 1_555
C8 N2 1_555 1_555

#END
