
#######################################################################
#
#                 Cambridge Crystallographic Data Centre
#                                CCDC 
#
#######################################################################
#
# If this CIF has been generated from an entry in the Cambridge 
# Structural Database, then it will include bibliographic, chemical, 
# crystal, experimental, refinement or atomic coordinate data resulting 
# from the CCDC's data processing and validation procedures.
#
#######################################################################

data_WIPKAJ
_symmetry_cell_setting           orthorhombic
_symmetry_space_group_name_H-M   'F d d 2'
_symmetry_Int_Tables_number      43
_space_group_name_Hall           'F 2 -2d'
loop_
_symmetry_equiv_pos_site_id
_symmetry_equiv_pos_as_xyz
1 x,y,z
2 -x,-y,z
3 1/4+x,1/4-y,1/4+z
4 1/4-x,1/4+y,1/4+z
5 x,1/2+y,1/2+z
6 -x,1/2-y,1/2+z
7 1/4+x,3/4-y,3/4+z
8 1/4-x,3/4+y,3/4+z
9 1/2+x,y,1/2+z
10 1/2-x,-y,1/2+z
11 3/4+x,1/4-y,3/4+z
12 3/4-x,1/4+y,3/4+z
13 1/2+x,1/2+y,z
14 1/2-x,1/2-y,z
15 3/4+x,3/4-y,1/4+z
16 3/4-x,3/4+y,1/4+z
_cell_length_a                   22.5309(19)
_cell_length_b                   27.5242(19)
_cell_length_c                   6.8757(6)
_cell_angle_alpha                90
_cell_angle_beta                 90
_cell_angle_gamma                90
_cell_volume                     4263.93
loop_
_atom_site_label
_atom_site_type_symbol
_atom_site_fract_x
_atom_site_fract_y
_atom_site_fract_z
Pb1 Pb 0.7500 0.2500 0.11975(8)
C1 C 0.6212(3) 0.1721(2) 0.1467(11)
C2 C 0.6042(3) 0.1245(2) 0.1471(10)
C3 C 0.5885(4) 0.2173(3) 0.1921(10)
C4 C 0.5466(4) 0.1005(3) 0.1984(10)
C5 C 0.6973(3) 0.1298(3) 0.0620(9)
C6 C 0.7573(3) 0.1175(3) 0.0000(10)
C7 C 0.7768(4) 0.0703(3) -0.0250(11)
H1 H 0.7512 0.0442 -0.0049
C8 C 0.8349(4) 0.0624(3) -0.0802(11)
H2 H 0.8494 0.0310 -0.0966
C9 C 0.8711(3) 0.1024(3) -0.1108(12)
H3 H 0.9104 0.0983 -0.1489
C10 C 0.8479(4) 0.1482(3) -0.0837(12)
H4 H 0.8723 0.1748 -0.1078
N1 N 0.6795(3) 0.1750(2) 0.0921(9)
N2 N 0.6523(3) 0.09793(19) 0.0946(8)
H5 H 0.6541 0.0668 0.0841
N3 N 0.7927(3) 0.1566(2) -0.0251(9)
O1 O 0.6160(3) 0.25616(18) 0.1823(8)
O2 O 0.5335(3) 0.21352(19) 0.2370(8)
O3 O 0.5038(2) 0.1288(2) 0.2442(8)
O4 O 0.5425(3) 0.05562(18) 0.1954(7)
O5 O 0.7500 0.2500 -0.2388(10)
H6 H 0.7506 0.2710 -0.3295
H7 H 0.5073 0.1584 0.2809
H6M H 0.7494 0.2290 -0.3295
C1M C 0.8788(3) 0.3279(2) 0.1467(11)
C2M C 0.8958(3) 0.3755(2) 0.1471(10)
C3M C 0.9115(4) 0.2827(3) 0.1921(10)
C4M C 0.9534(4) 0.3995(3) 0.1984(10)
C5M C 0.8027(3) 0.3702(3) 0.0620(9)
C6M C 0.7427(3) 0.3825(3) 0.0000(10)
C7M C 0.7232(4) 0.4297(3) -0.0250(11)
H1M H 0.7488 0.4558 -0.0049
C8M C 0.6651(4) 0.4376(3) -0.0802(11)
H2M H 0.6506 0.4690 -0.0966
C9M C 0.6289(3) 0.3976(3) -0.1108(12)
H3M H 0.5896 0.4017 -0.1489
C10M C 0.6521(4) 0.3518(3) -0.0837(12)
H4M H 0.6277 0.3252 -0.1078
N1M N 0.8205(3) 0.3250(2) 0.0921(9)
N2M N 0.8477(3) 0.40207(19) 0.0946(8)
H5M H 0.8459 0.4332 0.0841
N3M N 0.7073(3) 0.3434(2) -0.0251(9)
O1M O 0.8840(3) 0.24384(18) 0.1823(8)
O2M O 0.9665(3) 0.28648(19) 0.2370(8)
O3M O 0.9962(2) 0.3712(2) 0.2442(8)
O4M O 0.9575(3) 0.44438(18) 0.1954(7)
H7M H 0.9927 0.3416 0.2809
Pb1F Pb 1.0000 0.5000 -0.13025(8)
Pb1G Pb 0.5000 0.0000 -0.13025(8)
O4B O 0.7925(3) 0.19438(18) 0.4454(7)
O4C O 0.7075(3) 0.30562(18) 0.4454(7)
loop_
_geom_bond_atom_site_label_1
_geom_bond_atom_site_label_2
_geom_bond_site_symmetry_1
_geom_bond_site_symmetry_2
Pb1 N1 1_555 1_555
C1 C2 1_555 1_555
C2 C4 1_555 1_555
C3 C1 1_555 1_555
C4 O3 1_555 1_555
C5 C6 1_555 1_555
C6 C7 1_555 1_555
C7 H1 1_555 1_555
C8 C7 1_555 1_555
H2 C8 1_555 1_555
C9 C8 1_555 1_555
H3 C9 1_555 1_555
C10 C9 1_555 1_555
H4 C10 1_555 1_555
N1 C1 1_555 1_555
N2 C2 1_555 1_555
H5 N2 1_555 1_555
N3 Pb1 1_555 1_555
O1 C3 1_555 1_555
O2 C3 1_555 1_555
O3 H7 1_555 1_555
O4 C4 1_555 1_555
O5 Pb1 1_555 1_555
H6 O5 1_555 1_555
H6M O5 1_555 1_555
C1M C2M 1_555 1_555
C2M C4M 1_555 1_555
C3M C1M 1_555 1_555
C4M O3M 1_555 1_555
C5M C6M 1_555 1_555
C6M C7M 1_555 1_555
C7M H1M 1_555 1_555
C8M C7M 1_555 1_555
H2M C8M 1_555 1_555
C9M C8M 1_555 1_555
H3M C9M 1_555 1_555
C10M C9M 1_555 1_555
H4M C10M 1_555 1_555
N1M Pb1 1_555 1_555
N2M C2M 1_555 1_555
H5M N2M 1_555 1_555
N3M Pb1 1_555 1_555
O1M C3M 1_555 1_555
O2M C3M 1_555 1_555
O3M H7M 1_555 1_555
O4M C4M 1_555 1_555
Pb1F O4M 1_555 1_555
Pb1G O4 1_555 1_555
O4B Pb1 1_555 1_555
O4C Pb1 1_555 1_555
C5 N1 1_555 1_555
C5 N2 1_555 1_555
C6 N3 1_555 1_555
C10 N3 1_555 1_555
C1M N1M 1_555 1_555
C5M N1M 1_555 1_555
C5M N2M 1_555 1_555
C6M N3M 1_555 1_555
C10M N3M 1_555 1_555

#END
