
#######################################################################
#
#                 Cambridge Crystallographic Data Centre
#                                CCDC 
#
#######################################################################
#
# If this CIF has been generated from an entry in the Cambridge 
# Structural Database, then it will include bibliographic, chemical, 
# crystal, experimental, refinement or atomic coordinate data resulting 
# from the CCDC's data processing and validation procedures.
#
#######################################################################

data_WIPKEL
_symmetry_cell_setting           triclinic
_symmetry_space_group_name_H-M   'P 1'
_symmetry_Int_Tables_number      1
_space_group_name_Hall           'P 1'
loop_
_symmetry_equiv_pos_site_id
_symmetry_equiv_pos_as_xyz
1 x,y,z
_cell_length_a                   11.0353(3)
_cell_length_b                   11.2938(3)
_cell_length_c                   11.4311(4)
_cell_angle_alpha                81.612(1)
_cell_angle_beta                 65.755(1)
_cell_angle_gamma                61.907(1)
_cell_volume                     1143.96
loop_
_atom_site_label
_atom_site_type_symbol
_atom_site_fract_x
_atom_site_fract_y
_atom_site_fract_z
Cu1 Cu -0.2023(1) 0.0922(1) 0.3698(1)
Cu2 Cu -0.0092(1) -0.1053(1) 0.0284(1)
Cu3 Cu 0.0600(1) -0.1587(1) -0.2850(1)
Cu4 Cu 0.6145(1) -0.3187(1) -0.6197(1)
V1 V 0.0716(1) 0.2010(1) 0.3229(1)
V2 V 0.2023(1) 0.0422(1) 0.0405(1)
V3 V 0.1526(1) 0.0782(1) -0.2274(1)
V4 V 0.3032(1) -0.0402(1) -0.5202(1)
O1 O 0.0412(5) 0.3518(4) 0.3527(4)
O2 O -0.0920(5) 0.2000(4) 0.3747(4)
O3 O 0.1675(5) 0.1677(4) 0.1508(4)
O4 O 0.0642(5) 0.0007(5) 0.1000(4)
O5 O 0.2170(5) 0.1100(4) -0.1174(4)
O6 O 0.3587(5) -0.0910(5) 0.0251(5)
O7 O 0.0055(5) 0.2165(4) -0.2283(4)
O8 O 0.2953(5) 0.0350(4) -0.3861(4)
O9 O 0.1079(5) -0.0469(4) -0.1790(4)
O10 O 0.2425(5) -0.1522(4) -0.4602(4)
O11 O 0.4808(5) -0.1167(4) -0.6212(4)
O12 O 0.1862(5) 0.0828(4) -0.5963(5)
N1 N 0.1748(6) -0.3555(5) -0.2754(5)
N2 N 0.4174(6) -0.7721(5) -0.2450(5)
N3 N 0.8567(6) -1.0296(5) -0.2730(5)
N4 N 0.1183(6) -0.2929(5) 0.0374(5)
N5 N 0.3518(5) -0.7031(5) 0.0908(5)
N6 N 0.7867(5) -0.9750(5) 0.0582(5)
N7 N -0.0816(6) -0.0969(5) 0.3780(5)
N8 N 0.1683(5) -0.5115(5) 0.4020(5)
N9 N 0.5995(6) -0.7733(5) 0.3869(6)
N10 N 0.6459(6) -0.3719(5) -0.4625(5)
N11 N 0.7921(6) -0.5228(5) -0.1604(5)
N12 N 0.6715(6) -0.3828(5) 0.2113(5)
C1 C 0.1236(7) -0.4438(6) -0.2728(6)
C2 C 0.2045(7) -0.5819(6) -0.2654(6)
C3 C 0.3455(7) -0.6332(6) -0.2611(6)
C4 C 0.3992(7) -0.5425(6) -0.2641(6)
C5 C 0.3095(7) -0.4075(7) -0.2708(6)
C6 C 0.5637(7) -0.8520(6) -0.2565(6)
C7 C 0.5952(7) -0.9723(6) -0.1926(7)
C8 C 0.7399(7) -1.0544(6) -0.2037(7)
C9 C 0.8256(6) -0.9151(6) -0.3372(6)
C10 C 0.6839(7) -0.8255(6) -0.3324(6)
C11 C 0.0717(6) -0.3850(6) 0.0372(6)
C12 C 0.1488(7) -0.5200(6) 0.0547(6)
C13 C 0.2829(6) -0.5670(6) 0.0716(6)
C14 C 0.3315(7) -0.4729(6) 0.0723(6)
C15 C 0.2458(7) -0.3395(6) 0.0579(6)
C16 C 0.4955(6) -0.7861(6) 0.0830(6)
C17 C 0.5246(7) -0.9109(6) 0.1350(6)
C18 C 0.6691(7) -1.0003(6) 0.1216(6)
C19 C 0.7572(7) -0.8538(6) 0.0085(7)
C20 C 0.6161(7) -0.7568(6) 0.0170(7)
C21 C -0.1190(7) -0.1910(6) 0.3634(6)
C22 C -0.0383(7) -0.3248(6) 0.3694(6)
C23 C 0.0921(7) -0.3732(6) 0.3937(6)
C24 C 0.1294(7) -0.2774(6) 0.4126(6)
C25 C 0.0410(7) -0.1427(6) 0.4021(6)
C26 C 0.3120(7) -0.5895(6) 0.3987(6)
C27 C 0.3466(7) -0.7226(6) 0.4320(6)
C28 C 0.4885(7) -0.8085(6) 0.4253(7)
C29 C 0.5636(7) -0.6455(7) 0.3588(7)
C30 C 0.4251(7) -0.5511(7) 0.3629(7)
C31 C 0.5890(7) -0.3143(6) 0.1437(6)
C32 C 0.6180(7) -0.3537(6) 0.0224(6)
C33 C 0.7476(7) -0.4709(6) -0.0386(6)
C34 C 0.8362(7) -0.5470(6) 0.0317(6)
C35 C 0.7960(7) -0.4998(6) 0.1523(6)
C36 C 0.7366(7) -0.4658(6) -0.2552(6)
C37 C 0.6466(7) -0.3276(6) -0.2631(6)
C38 C 0.6069(7) -0.2861(6) -0.3682(6)
C39 C 0.7309(6) -0.5025(6) -0.4541(6)
C40 C 0.7783(7) -0.5528(6) -0.3548(6)
H1 H 0.3632(6) -0.8129(5) -0.2254(5)
H2 H 0.2958(5) -0.7421(5) 0.1109(5)
H3 H 0.1193(5) -0.5552(5) 0.4103(5)
H4 H 0.8653(6) -0.6026(5) -0.1803(5)
H5 H 0.0304(7) -0.4113(6) -0.2761(6)
H6 H 0.1651(7) -0.6395(6) -0.2633(6)
H7 H 0.4922(7) -0.5718(6) -0.2617(6)
H8 H 0.3460(7) -0.3477(7) -0.2722(6)
H9 H 0.5197(7) -0.9961(6) -0.1436(7)
H10 H 0.7581(7) -1.1330(6) -0.1599(7)
H11 H 0.9040(6) -0.8953(6) -0.3874(6)
H12 H 0.6691(7) -0.7488(6) -0.3791(6)
H13 H -0.0160(6) -0.3559(6) 0.0247(6)
H14 H 0.1120(7) -0.5792(6) 0.0552(6)
H15 H 0.4202(7) -0.4999(6) 0.0823(6)
H16 H 0.2772(7) -0.2777(6) 0.0625(6)
H17 H 0.4475(7) -0.9342(6) 0.1785(6)
H18 H 0.6858(7) -1.0826(6) 0.1585(6)
H19 H 0.8366(7) -0.8334(6) -0.0345(7)
H20 H 0.6021(7) -0.6749(6) -0.0200(7)
H21 H -0.2052(7) -0.1617(6) 0.3484(6)
H22 H -0.0688(7) -0.3846(6) 0.3576(6)
H23 H 0.2122(7) -0.3035(6) 0.4320(6)
H24 H 0.0690(7) -0.0804(6) 0.4126(6)
H25 H 0.2744(7) -0.7525(6) 0.4583(6)
H26 H 0.5091(7) -0.8962(6) 0.4487(7)
H27 H 0.6375(7) -0.6181(7) 0.3347(7)
H28 H 0.4072(7) -0.4632(7) 0.3422(7)
H29 H 0.5051(7) -0.2336(6) 0.1810(6)
H30 H 0.5527(7) -0.3032(6) -0.0179(6)
H31 H 0.9208(7) -0.6280(6) -0.0035(6)
H32 H 0.8566(7) -0.5499(6) 0.1968(6)
H33 H 0.6143(7) -0.2653(6) -0.1986(6)
H34 H 0.5507(7) -0.1946(6) -0.3739(6)
H35 H 0.7596(6) -0.5629(6) -0.5189(6)
H36 H 0.8380(7) -0.6444(6) -0.3543(6)
N12_2 N 0.6715(6) -0.3828(5) -0.7887(5)
Cu4_2 Cu 0.6145(1) -0.3187(1) 0.3803(1)
O12_2 O 0.1862(5) 0.0828(4) 0.4037(5)
V1_2 V 0.0716(1) 0.2010(1) -0.6771(1)
N3_2 N -0.1433(6) -0.0296(5) -0.2730(5)
Cu3_2 Cu 1.0600(1) -1.1587(1) -0.2850(1)
N6_2 N -0.2133(5) 0.0250(5) 0.0582(5)
Cu2_2 Cu 0.9908(1) -1.1053(1) 0.0284(1)
N9_2 N -0.4005(6) 0.2267(5) 0.3869(6)
Cu1_2 Cu 0.7977(1) -0.9078(1) 0.3698(1)
loop_
_geom_bond_atom_site_label_1
_geom_bond_atom_site_label_2
_geom_bond_site_symmetry_1
_geom_bond_site_symmetry_2
Cu1 O2 1_555 1_555
Cu2 O4 1_555 1_555
Cu3 O9 1_555 1_555
Cu4 O11 1_555 1_555
V1 O1 1_555 1_555
V2 O3 1_555 1_555
V3 O5 1_555 1_555
V4 O8 1_555 1_555
O2 V1 1_555 1_555
O3 V1 1_555 1_555
O4 V2 1_555 1_555
O5 V2 1_555 1_555
O6 V2 1_555 1_555
O7 V3 1_555 1_555
O8 V3 1_555 1_555
O9 Cu2 1_555 1_555
O10 Cu3 1_555 1_555
O11 V4 1_555 1_555
O12 V4 1_555 1_555
N1 Cu3 1_555 1_555
N2 C3 1_555 1_555
N3 C8 1_555 1_555
N4 Cu2 1_555 1_555
N5 C13 1_555 1_555
N6 C18 1_555 1_555
N7 Cu1 1_555 1_555
N8 C23 1_555 1_555
N9 C28 1_555 1_555
N10 Cu4 1_555 1_555
N11 C33 1_555 1_555
N12 C31 1_555 1_555
C1 N1 1_555 1_555
C2 C1 1_555 1_555
C3 C2 1_555 1_555
C4 C3 1_555 1_555
C5 N1 1_555 1_555
C6 N2 1_555 1_555
C7 C6 1_555 1_555
C8 C7 1_555 1_555
C9 N3 1_555 1_555
C10 C6 1_555 1_555
C11 N4 1_555 1_555
C12 C11 1_555 1_555
C13 C12 1_555 1_555
C14 C13 1_555 1_555
C15 N4 1_555 1_555
C16 N5 1_555 1_555
C17 C16 1_555 1_555
C18 C17 1_555 1_555
C19 N6 1_555 1_555
C20 C16 1_555 1_555
C21 N7 1_555 1_555
C22 C21 1_555 1_555
C23 C22 1_555 1_555
C24 C23 1_555 1_555
C25 N7 1_555 1_555
C26 N8 1_555 1_555
C27 C26 1_555 1_555
C28 C27 1_555 1_555
C29 N9 1_555 1_555
C30 C26 1_555 1_555
C31 C32 1_555 1_555
C32 C33 1_555 1_555
C33 C34 1_555 1_555
C34 C35 1_555 1_555
C35 N12 1_555 1_555
C36 N11 1_555 1_555
C37 C36 1_555 1_555
C38 N10 1_555 1_555
C39 N10 1_555 1_555
C40 C36 1_555 1_555
H1 N2 1_555 1_555
H2 N5 1_555 1_555
H3 N8 1_555 1_555
H4 N11 1_555 1_555
H5 C1 1_555 1_555
H6 C2 1_555 1_555
H7 C4 1_555 1_555
H8 C5 1_555 1_555
H9 C7 1_555 1_555
H10 C8 1_555 1_555
H11 C9 1_555 1_555
H12 C10 1_555 1_555
H13 C11 1_555 1_555
H14 C12 1_555 1_555
H15 C14 1_555 1_555
H16 C15 1_555 1_555
H17 C17 1_555 1_555
H18 C18 1_555 1_555
H19 C19 1_555 1_555
H20 C20 1_555 1_555
H21 C21 1_555 1_555
H22 C22 1_555 1_555
H23 C24 1_555 1_555
H24 C25 1_555 1_555
H25 C27 1_555 1_555
H26 C28 1_555 1_555
H27 C29 1_555 1_555
H28 C30 1_555 1_555
H29 C31 1_555 1_555
H30 C32 1_555 1_555
H31 C34 1_555 1_555
H32 C35 1_555 1_555
H33 C37 1_555 1_555
H34 C38 1_555 1_555
H35 C39 1_555 1_555
H36 C40 1_555 1_555
N12_2 Cu4 1_555 1_555
Cu4_2 N12 1_555 1_555
O12_2 V1 1_555 1_555
V1_2 O12 1_555 1_555
N3_2 Cu3 1_555 1_555
Cu3_2 N3 1_555 1_555
N6_2 Cu2 1_555 1_555
Cu2_2 N6 1_555 1_555
N9_2 Cu1 1_555 1_555
Cu1_2 N9 1_555 1_555
V3 O9 1_555 1_555
V4 O10 1_555 1_555
C4 C5 1_555 1_555
C9 C10 1_555 1_555
C14 C15 1_555 1_555
C19 C20 1_555 1_555
C24 C25 1_555 1_555
C29 C30 1_555 1_555
C37 C38 1_555 1_555
C39 C40 1_555 1_555

#END
