
#######################################################################
#
#                 Cambridge Crystallographic Data Centre
#                                CCDC 
#
#######################################################################
#
# If this CIF has been generated from an entry in the Cambridge 
# Structural Database, then it will include bibliographic, chemical, 
# crystal, experimental, refinement or atomic coordinate data resulting 
# from the CCDC's data processing and validation procedures.
#
#######################################################################

data_WIPLUE
_symmetry_cell_setting           triclinic
_symmetry_space_group_name_H-M   'P -1'
_symmetry_Int_Tables_number      2
_space_group_name_Hall           '-P 1'
loop_
_symmetry_equiv_pos_site_id
_symmetry_equiv_pos_as_xyz
1 x,y,z
2 -x,-y,-z
_cell_length_a                   7.067(3)
_cell_length_b                   10.845(5)
_cell_length_c                   16.579(8)
_cell_angle_alpha                82.204(11)
_cell_angle_beta                 87.236(9)
_cell_angle_gamma                87.007(9)
_cell_volume                     1256.09
loop_
_atom_site_label
_atom_site_type_symbol
_atom_site_fract_x
_atom_site_fract_y
_atom_site_fract_z
O13 O 0.2574(6) 1.1418(3) 0.3100(2)
H16 H 0.1308 1.1519 0.3119
H17 H 0.3071 1.1885 0.2682
Eu1 Eu 0.61441(3) 0.243150(16) 0.079507(11)
O1 O 0.5859(4) 0.4605(3) 0.12713(16)
C1 C 0.4988(5) 0.4173(4) 0.1920(2)
O2 O 0.4696(5) 0.3016(3) 0.20641(17)
C2 C 0.4267(5) 0.4998(3) 0.2529(2)
O3 O 0.3557(4) 0.3621(3) 0.00754(17)
C3 C 0.4156(5) 0.6291(4) 0.2320(2)
H1 H 0.4518 0.6648 0.1797
O4 O 0.5277(6) 0.1380(4) -0.0383(2)
C4 C 0.3502(5) 0.7034(4) 0.2900(2)
O5 O 0.9123(4) 0.2797(3) 0.1470(2)
C5 C 0.2998(6) 0.6511(4) 0.3681(2)
H2 H 0.2580 0.7027 0.4064
O6 O 0.3067(5) 0.1294(3) 0.10727(19)
C6 C 0.3105(6) 0.5215(4) 0.3910(2)
O7 O 0.3301(4) 0.8905(3) 0.19606(17)
C7 C 0.3726(6) 0.4488(4) 0.3311(2)
H3 H 0.3779 0.3625 0.3441
O8 O 0.2997(6) 0.9036(3) 0.3286(2)
C8 C 0.3265(6) 0.8411(4) 0.2663(2)
O9 O -0.1110(4) 0.5129(2) 0.90136(17)
C9 C 0.2628(6) 0.4656(4) 0.4760(2)
O10 O -0.2002(4) 0.3399(3) 0.97723(17)
C10 C 0.2384(7) 0.3376(4) 0.4962(3)
H4 H 0.2495 0.2863 0.4553
O11 O 0.1784(7) -0.0553(3) 0.9304(2)
C11 C 0.1977(7) 0.2857(4) 0.5761(3)
H5 H 0.1819 0.2004 0.5874
O12 O 0.3255(4) -0.0646(3) 0.81393(18)
C12 C 0.1797(5) 0.3579(4) 0.6404(2)
C13 C 0.1983(6) 0.4857(4) 0.6195(2)
H6 H 0.1839 0.5370 0.6601
C14 C 0.2377(6) 0.5389(4) 0.5395(2)
H7 H 0.2476 0.6247 0.5280
C15 C 0.1402(5) 0.3015(4) 0.7255(2)
C16 C 0.0500(5) 0.3717(4) 0.7818(2)
H8 H 0.0203 0.4558 0.7660
C17 C 0.0032(5) 0.3195(3) 0.8610(2)
C18 C 0.0538(5) 0.1948(3) 0.8865(2)
H9 H 0.0219 0.1587 0.9392
C19 C 0.1531(5) 0.1244(3) 0.8321(2)
C20 C 0.1937(5) 0.1778(3) 0.7524(2)
H10 H 0.2579 0.1299 0.7164
C21 C 0.2213(6) -0.0062(4) 0.8595(2)
C22 C -0.1072(5) 0.3970(3) 0.9175(2)
H11 H 0.3800 0.4103 -0.0355
H12 H 0.3022 0.0638 0.1449
H13 H 0.3034 0.4176 0.0391
H14 H 0.5728 0.1757 -0.0778
H15 H 0.9603 0.3535 0.1484
Eu1_2 Eu -0.38559(3) 0.243150(16) 1.079507(11)
Eu1A Eu 0.38559(3) -0.243150(16) 0.920493(11)
O10_2 O 0.7998(4) 0.3399(3) -0.02277(17)
O11A O 0.8216(7) 0.0553(3) 0.0696(2)
O12A O 0.6745(4) 0.0646(3) 0.18607(18)
N1? N 0.7593(12) 0.0936(8) 0.4289(5)
O14? O 0.8902(9) 0.2073(6) 0.3194(4)
C23? C 0.7691(15) 0.1572(9) 0.3502(6)
H18? H 0.6614 0.1574 0.3200
C24? C 0.5825(17) 0.0423(13) 0.4682(8)
C25? C 0.9375(18) 0.0686(15) 0.4708(8)
loop_
_geom_bond_atom_site_label_1
_geom_bond_atom_site_label_2
_geom_bond_site_symmetry_1
_geom_bond_site_symmetry_2
Eu1 O1 1_555 1_555
O1 C1 1_555 1_555
C1 O2 1_555 1_555
O2 Eu1 1_555 1_555
C2 C1 1_555 1_555
O3 Eu1 1_555 1_555
C3 C2 1_555 1_555
H1 C3 1_555 1_555
O4 Eu1 1_555 1_555
C4 C3 1_555 1_555
O5 Eu1 1_555 1_555
C5 C4 1_555 1_555
H2 C5 1_555 1_555
O6 Eu1 1_555 1_555
C6 C5 1_555 1_555
O7 C8 1_555 1_555
C7 C2 1_555 1_555
H3 C7 1_555 1_555
O8 C8 1_555 1_555
C8 C4 1_555 1_555
O9 C22 1_555 1_555
C9 C6 1_555 1_555
O10 C22 1_555 1_555
C10 C9 1_555 1_555
H4 C10 1_555 1_555
O11 C21 1_555 1_555
C11 C10 1_555 1_555
H5 C11 1_555 1_555
O12 C21 1_555 1_555
C12 C11 1_555 1_555
C13 C12 1_555 1_555
H6 C13 1_555 1_555
C14 C9 1_555 1_555
H7 C14 1_555 1_555
C15 C12 1_555 1_555
C16 C15 1_555 1_555
H8 C16 1_555 1_555
C17 C16 1_555 1_555
C18 C17 1_555 1_555
H9 C18 1_555 1_555
C19 C18 1_555 1_555
C20 C15 1_555 1_555
H10 C20 1_555 1_555
C21 C19 1_555 1_555
C22 C17 1_555 1_555
H11 O3 1_555 1_555
H12 O6 1_555 1_555
H13 O3 1_555 1_555
H14 O4 1_555 1_555
H15 O5 1_555 1_555
O13 H16 1_555 1_555
H17 O13 1_555 1_555
Eu1_2 O10 1_555 1_555
Eu1A O11 1_555 1_555
O10_2 Eu1 1_555 1_555
O11A Eu1 1_555 1_555
O12A Eu1 1_555 1_555
C6 C7 1_555 1_555
O12 Eu1A 1_555 1_555
C13 C14 1_555 1_555
C19 C20 1_555 1_555

#END
