
#######################################################################
#
#                 Cambridge Crystallographic Data Centre
#                                CCDC 
#
#######################################################################
#
# If this CIF has been generated from an entry in the Cambridge 
# Structural Database, then it will include bibliographic, chemical, 
# crystal, experimental, refinement or atomic coordinate data resulting 
# from the CCDC's data processing and validation procedures.
#
#######################################################################

data_WIPLOY
_symmetry_cell_setting           triclinic
_symmetry_space_group_name_H-M   'P -1'
_symmetry_Int_Tables_number      2
_space_group_name_Hall           '-P 1'
loop_
_symmetry_equiv_pos_site_id
_symmetry_equiv_pos_as_xyz
1 x,y,z
2 -x,-y,-z
_cell_length_a                   10.984(4)
_cell_length_b                   16.101(6)
_cell_length_c                   19.692(8)
_cell_angle_alpha                74.149(14)
_cell_angle_beta                 74.035(14)
_cell_angle_gamma                72.054(14)
_cell_volume                     3117.07
loop_
_atom_site_label
_atom_site_type_symbol
_atom_site_fract_x
_atom_site_fract_y
_atom_site_fract_z
Eu1 Eu 0.39854(3) 0.90186(2) 0.239002(19)
Eu2 Eu -0.05620(3) 1.17628(2) 0.226584(19)
O1 O 0.3321(5) 0.7652(3) 0.3200(3)
O2 O 0.3195(5) 0.8741(3) 0.3715(3)
O3 O 0.1362(6) 0.8383(3) 0.6412(3)
O4 O 0.0883(5) 0.7103(3) 0.7011(3)
O5 O 0.3678(7) 1.0164(4) 0.1278(4)
O6 O -0.0107(5) 1.0237(3) 0.2430(4)
O7 O -0.4039(5) 0.9358(3) 0.2506(3)
O8 O -0.4036(5) 0.7946(3) 0.2797(3)
O9 O 0.1334(5) 0.1407(3) 0.2778(3)
O10 O 0.3266(5) 0.0426(3) 0.2733(3)
O11 O 0.7279(5) 0.1370(3) 0.2517(3)
O12 O 0.7195(5) 0.2791(3) 0.2266(3)
O13 O -0.1126(10) 1.1932(7) 0.1074(5)
O14 O 0.0543(5) 1.2894(3) 0.1394(3)
O15 O 0.1434(5) 1.1506(3) 0.1269(3)
O16 O 0.4170(5) 1.1311(4) -0.1279(3)
O17 O 0.5758(6) 1.2011(4) -0.1615(3)
C1 C 0.2976(7) 0.7980(5) 0.3748(4)
C2 C 0.2277(8) 0.7517(5) 0.4446(4)
C3 C 0.2069(7) 0.7793(5) 0.5090(4)
H1 H 0.2361 0.8277 0.5093
C4 C 0.1430(8) 0.7347(5) 0.5723(4)
C5 C 0.0943(8) 0.6651(6) 0.5703(4)
H2 H 0.0493 0.6360 0.6128
C6 C 0.1113(9) 0.6382(5) 0.5063(4)
C7 C 0.1799(8) 0.6809(6) 0.4436(4)
H3 H 0.1943 0.6626 0.4005
C8 C 0.1224(7) 0.7622(5) 0.6424(4)
C9 C 0.0552(10) 0.5669(6) 0.5036(4)
C10 C 0.0097(13) 0.5705(7) 0.4445(5)
H4 H 0.0131 0.6192 0.4062
C11 C 0.0404(12) 0.4949(7) 0.5602(5)
H5 H 0.0654 0.4911 0.6026
C12 C 0.0592(7) 0.9465(5) 0.2440(4)
C13 C -0.0055(7) 0.8741(4) 0.2490(4)
C14 C -0.1405(7) 0.8958(5) 0.2547(4)
H6 H -0.1895 0.9543 0.2546
C15 C -0.2014(7) 0.8297(5) 0.2605(4)
C16 C -0.1272(7) 0.7425(5) 0.2600(4)
H7 H -0.1695 0.6985 0.2655
C17 C 0.0116(7) 0.7184(5) 0.2514(4)
C18 C 0.0698(6) 0.7859(4) 0.2470(4)
H8 H 0.1599 0.7725 0.2426
C19 C -0.3449(7) 0.8548(5) 0.2642(4)
C20 C 0.0879(7) 0.6248(4) 0.2496(4)
C21 C 0.0378(8) 0.5635(5) 0.2353(5)
H9 H -0.0447 0.5817 0.2243
C22 C 0.1093(7) 0.4755(5) 0.2374(5)
H10 H 0.0718 0.4359 0.2288
C23 C 0.2331(7) 0.4444(4) 0.2515(4)
C24 C 0.2848(7) 0.5070(5) 0.2634(5)
H11 H 0.3688 0.4887 0.2725
C25 C 0.2168(7) 0.5953(5) 0.2620(4)
H12 H 0.2556 0.6351 0.2693
C26 C 0.3098(7) 0.3493(4) 0.2545(4)
C27 C 0.4444(7) 0.3269(4) 0.2461(4)
H13 H 0.4868 0.3716 0.2382
C28 C 0.5181(6) 0.2385(4) 0.2493(4)
C29 C 0.4565(6) 0.1717(4) 0.2588(4)
H14 H 0.5051 0.1128 0.2617
C30 C 0.3231(7) 0.1924(4) 0.2640(4)
C31 C 0.2520(7) 0.2811(5) 0.2631(4)
H15 H 0.1616 0.2948 0.2686
C32 C 0.6638(7) 0.2170(4) 0.2414(4)
C33 C 0.2564(7) 0.1192(5) 0.2711(4)
C34 C 0.1437(8) 1.2316(5) 0.1086(4)
C35 C 0.2508(8) 1.2589(5) 0.0491(4)
C36 C 0.3070(8) 1.2125(5) -0.0056(4)
H16 H 0.2770 1.1647 -0.0062
C37 C 0.4096(8) 1.2371(5) -0.0605(4)
C38 C 0.4525(9) 1.3077(6) -0.0586(5)
H17 H 0.5199 1.3242 -0.0954
C39 C 0.3989(9) 1.3551(5) -0.0040(5)
C40 C 0.2948(8) 1.3304(5) 0.0491(4)
H18 H 0.2543 1.3630 0.0852
C41 C 0.4691(8) 1.1875(5) -0.1196(4)
C42 C 0.4614(11) 1.4427(7) 0.0627(5)
H19 H 0.4368 1.4039 0.1054
C43 C 0.4500(10) 1.4296(6) -0.0030(5)
C44 C 0.4911(12) 1.4868(7) -0.0648(5)
H20 H 0.4873 1.4788 -0.1091
O18 O 0.1791(5) 0.9262(4) 0.2391(4)
N1 N -0.1198(13) 1.2812(9) -0.0024(7)
C45 C -0.1488(16) 1.2612(12) 0.0676(8)
H21 H -0.2061 1.3068 0.0898
C46 C -0.0276(16) 1.2229(12) -0.0419(8)
H22 H 0.0575 1.2172 -0.0343
H23 H -0.0290 1.2451 -0.0922
H24 H -0.0470 1.1656 -0.0267
C47 C -0.1681(18) 1.3632(11) -0.0469(9)
H25 H -0.2536 1.3916 -0.0231
H26 H -0.1734 1.3528 -0.0916
H27 H -0.1103 1.4011 -0.0564
O1A O -0.3321(5) 0.2348(3) 0.6800(3)
O2A O -0.3195(5) 0.1259(3) 0.6285(3)
O3A O -0.1362(6) 0.1617(3) 0.3588(3)
O4A O -0.0883(5) 0.2897(3) 0.2989(3)
C1A C -0.2976(7) 0.2020(5) 0.6252(4)
C2A C -0.2277(8) 0.2483(5) 0.5554(4)
C3A C -0.2069(7) 0.2207(5) 0.4910(4)
H1A H -0.2361 0.1723 0.4907
C4A C -0.1430(8) 0.2653(5) 0.4277(4)
C5A C -0.0943(8) 0.3349(6) 0.4297(4)
H2A H -0.0493 0.3640 0.3872
C6A C -0.1113(9) 0.3618(5) 0.4937(4)
C7A C -0.1799(8) 0.3191(6) 0.5564(4)
H3A H -0.1943 0.3374 0.5995
C8A C -0.1224(7) 0.2378(5) 0.3576(4)
C9A C -0.0552(10) 0.4331(6) 0.4964(4)
C10A C -0.0097(13) 0.4295(7) 0.5555(5)
H4A H -0.0131 0.3808 0.5938
C11A C -0.0404(12) 0.5051(7) 0.4398(5)
H5A H -0.0654 0.5089 0.3974
O14A O 0.9457(5) 1.7106(3) -0.1394(3)
O15A O 0.8566(5) 1.8494(3) -0.1269(3)
O16A O 0.5830(5) 1.8689(4) 0.1279(3)
O17A O 0.4242(6) 1.7989(4) 0.1615(3)
C34A C 0.8563(8) 1.7684(5) -0.1086(4)
C35A C 0.7492(8) 1.7411(5) -0.0491(4)
C36A C 0.6930(8) 1.7875(5) 0.0056(4)
H16A H 0.7230 1.8353 0.0062
C37A C 0.5904(8) 1.7629(5) 0.0605(4)
C38A C 0.5475(9) 1.6923(6) 0.0586(5)
H17A H 0.4801 1.6758 0.0954
C39A C 0.6011(9) 1.6449(5) 0.0040(5)
C40A C 0.7052(8) 1.6696(5) -0.0491(4)
H18A H 0.7457 1.6370 -0.0852
C41A C 0.5309(8) 1.8125(5) 0.1196(4)
C42A C 0.5386(11) 1.5573(7) -0.0627(5)
H19A H 0.5632 1.5961 -0.1054
C43A C 0.5500(10) 1.5704(6) 0.0030(5)
C44A C 0.5089(12) 1.5132(7) 0.0648(5)
H20A H 0.5127 1.5212 0.1091
Eu1A Eu -0.39854(3) 0.09814(2) 0.760998(19)
Eu2A Eu 0.05620(3) -0.17628(2) 0.773416(19)
O5A O -0.3678(7) -0.0164(4) 0.8722(4)
O6A O 0.0107(5) -0.0237(3) 0.7570(4)
O7A O 0.4039(5) 0.0642(3) 0.7494(3)
O8A O 0.4036(5) 0.2054(3) 0.7203(3)
O9A O -0.1334(5) 0.8593(3) 0.7222(3)
O10A O -0.3266(5) 0.9574(3) 0.7267(3)
O11A O -0.7279(5) 0.8630(3) 0.7483(3)
O12A O -0.7195(5) 0.7209(3) 0.7734(3)
O13A O 0.1126(10) -0.1932(7) 0.8926(5)
C12A C -0.0592(7) 0.0535(5) 0.7560(4)
C13A C 0.0055(7) 0.1259(4) 0.7510(4)
C14A C 0.1405(7) 0.1042(5) 0.7453(4)
H6A H 0.1895 0.0457 0.7454
C15A C 0.2014(7) 0.1703(5) 0.7395(4)
C16A C 0.1272(7) 0.2575(5) 0.7400(4)
H7A H 0.1695 0.3015 0.7345
C17A C -0.0116(7) 0.2816(5) 0.7486(4)
C18A C -0.0698(6) 0.2141(4) 0.7530(4)
H8A H -0.1599 0.2275 0.7574
C19A C 0.3449(7) 0.1452(5) 0.7358(4)
C20A C -0.0879(7) 0.3752(4) 0.7504(4)
C21A C -0.0378(8) 0.4365(5) 0.7647(5)
H9A H 0.0447 0.4183 0.7757
C22A C -0.1093(7) 0.5245(5) 0.7626(5)
H10A H -0.0718 0.5641 0.7712
C23A C -0.2331(7) 0.5556(4) 0.7485(4)
C24A C -0.2848(7) 0.4930(5) 0.7366(5)
H11A H -0.3688 0.5113 0.7275
C25A C -0.2168(7) 0.4047(5) 0.7380(4)
H12A H -0.2556 0.3649 0.7307
C26A C -0.3098(7) 0.6507(4) 0.7455(4)
C27A C -0.4444(7) 0.6731(4) 0.7539(4)
H13A H -0.4868 0.6284 0.7618
C28A C -0.5181(6) 0.7615(4) 0.7507(4)
C29A C -0.4565(6) 0.8283(4) 0.7412(4)
H14A H -0.5051 0.8872 0.7383
C30A C -0.3231(7) 0.8076(4) 0.7360(4)
C31A C -0.2520(7) 0.7189(5) 0.7369(4)
H15A H -0.1616 0.7052 0.7314
C32A C -0.6638(7) 0.7830(4) 0.7586(4)
C33A C -0.2564(7) 0.8808(5) 0.7289(4)
O18A O -0.1791(5) 0.0738(4) 0.7609(4)
N1A N 0.1198(13) -0.2812(9) 1.0024(7)
C45A C 0.1488(16) -0.2612(12) 0.9324(8)
H21A H 0.2061 -0.3068 0.9102
C46A C 0.0276(16) -0.2229(12) 1.0419(8)
H22A H -0.0575 -0.2172 1.0343
H23A H 0.0290 -0.2451 1.0922
H24A H 0.0470 -0.1656 1.0267
C47A C 0.1681(18) -0.3632(11) 1.0469(9)
H25A H 0.2536 -0.3916 1.0231
H26A H 0.1734 -0.3528 1.0916
H27A H 0.1103 -0.4011 1.0564
Eu1_2 Eu -0.60146(3) 0.90186(2) 0.239002(19)
Eu1_3 Eu 0.39854(3) -0.09814(2) 0.239002(19)
Eu1_4 Eu 0.39854(3) 1.90186(2) 0.239002(19)
Eu1A_2 Eu -0.39854(3) 1.09814(2) 0.760998(19)
Eu1A_3 Eu 0.60146(3) 0.09814(2) 0.760998(19)
Eu1A_4 Eu 0.60146(3) 1.09814(2) -0.239002(19)
Eu2_2 Eu -0.05620(3) 0.17628(2) 0.226584(19)
Eu2_3 Eu 0.94380(3) 0.17628(2) 0.226584(19)
Eu2A_2 Eu -0.94380(3) 0.82372(2) 0.773416(19)
Eu2A_3 Eu 0.05620(3) 0.82372(2) 0.773416(19)
Eu2A_4 Eu 1.05620(3) 1.82372(2) -0.226584(19)
O3_2 O 0.1362(6) -0.1617(3) 0.6412(3)
O3A_2 O -0.1362(6) 1.1617(3) 0.3588(3)
O4_2 O 0.0883(5) -0.2897(3) 0.7011(3)
O4A_2 O -0.0883(5) 1.2897(3) 0.2989(3)
O7_2 O 0.5961(5) 0.9358(3) 0.2506(3)
O7A_2 O -0.5961(5) 0.0642(3) 0.7494(3)
O8_2 O 0.5964(5) 0.7946(3) 0.2797(3)
O8A_2 O -0.5964(5) 0.2054(3) 0.7203(3)
O9_2 O 0.1334(5) 1.1407(3) 0.2778(3)
O9A_2 O -0.1334(5) -0.1407(3) 0.7222(3)
O10_2 O 0.3266(5) 1.0426(3) 0.2733(3)
O10A_2 O -0.3266(5) -0.0426(3) 0.7267(3)
O11_2 O -0.2721(5) 1.1370(3) 0.2517(3)
O11A_2 O 0.2721(5) -0.1370(3) 0.7483(3)
O12_2 O -0.2805(5) 1.2791(3) 0.2266(3)
O12A_2 O 0.2805(5) -0.2791(3) 0.7734(3)
O14A_2 O -0.0543(5) -0.2894(3) 0.8606(3)
O15A_2 O -0.1434(5) -0.1506(3) 0.8731(3)
O16_2 O -0.5830(5) 0.1311(4) 0.8721(3)
O16A_2 O 0.5830(5) 0.8689(4) 0.1279(3)
O17_2 O -0.4242(6) 0.2011(4) 0.8385(3)
O17A_2 O 0.4242(6) 0.7989(4) 0.1615(3)
loop_
_geom_bond_atom_site_label_1
_geom_bond_atom_site_label_2
_geom_bond_site_symmetry_1
_geom_bond_site_symmetry_2
Eu1 O1 1_555 1_555
Eu2 O6 1_555 1_555
O1 C1 1_555 1_555
O2 Eu1 1_555 1_555
O3 C8 1_555 1_555
O4 C8 1_555 1_555
O5 Eu1 1_555 1_555
O6 C12 1_555 1_555
O7 C19 1_555 1_555
O8 C19 1_555 1_555
O9 C33 1_555 1_555
O10 C33 1_555 1_555
O11 C32 1_555 1_555
O12 C32 1_555 1_555
O13 Eu2 1_555 1_555
O14 Eu2 1_555 1_555
O15 Eu2 1_555 1_555
O16 C41 1_555 1_555
O17 C41 1_555 1_555
C1 O2 1_555 1_555
C2 C1 1_555 1_555
C3 C2 1_555 1_555
H1 C3 1_555 1_555
C4 C3 1_555 1_555
C5 C4 1_555 1_555
H2 C5 1_555 1_555
C6 C5 1_555 1_555
C7 C2 1_555 1_555
H3 C7 1_555 1_555
C8 C4 1_555 1_555
C9 C6 1_555 1_555
C10 C9 1_555 1_555
H4 C10 1_555 1_555
C11 C9 1_555 1_555
H5 C11 1_555 1_555
C12 C13 1_555 1_555
C13 C14 1_555 1_555
C14 H6 1_555 1_555
C15 C14 1_555 1_555
C16 C15 1_555 1_555
H7 C16 1_555 1_555
C17 C16 1_555 1_555
C18 C13 1_555 1_555
H8 C18 1_555 1_555
C19 C15 1_555 1_555
C20 C17 1_555 1_555
C21 C20 1_555 1_555
H9 C21 1_555 1_555
C22 C21 1_555 1_555
H10 C22 1_555 1_555
C23 C22 1_555 1_555
C24 C23 1_555 1_555
H11 C24 1_555 1_555
C25 C20 1_555 1_555
H12 C25 1_555 1_555
C26 C23 1_555 1_555
C27 C26 1_555 1_555
H13 C27 1_555 1_555
C28 C27 1_555 1_555
C29 C28 1_555 1_555
H14 C29 1_555 1_555
C30 C29 1_555 1_555
C31 C26 1_555 1_555
H15 C31 1_555 1_555
C32 C28 1_555 1_555
C33 C30 1_555 1_555
C34 O14 1_555 1_555
C35 C34 1_555 1_555
C36 C35 1_555 1_555
H16 C36 1_555 1_555
C37 C36 1_555 1_555
C38 C37 1_555 1_555
H17 C38 1_555 1_555
C39 C38 1_555 1_555
C40 C35 1_555 1_555
H18 C40 1_555 1_555
C41 C37 1_555 1_555
C42 H19 1_555 1_555
C43 C39 1_555 1_555
C44 C43 1_555 1_555
H20 C44 1_555 1_555
O18 Eu1 1_555 1_555
N1 C45 1_555 1_555
C45 O13 1_555 1_555
H21 C45 1_555 1_555
C46 N1 1_555 1_555
H22 C46 1_555 1_555
H23 C46 1_555 1_555
H24 C46 1_555 1_555
C47 N1 1_555 1_555
H25 C47 1_555 1_555
H26 C47 1_555 1_555
H27 C47 1_555 1_555
O1A C1A 1_555 1_555
O2A C1A 1_555 1_555
O3A C8A 1_555 1_555
O4A C8A 1_555 1_555
C1A C2A 1_555 1_555
C2A C3A 1_555 1_555
C3A H1A 1_555 1_555
C4A C3A 1_555 1_555
C5A C4A 1_555 1_555
H2A C5A 1_555 1_555
C6A C5A 1_555 1_555
C7A C2A 1_555 1_555
H3A C7A 1_555 1_555
C8A C4A 1_555 1_555
C9A C6A 1_555 1_555
C10A C11 1_555 1_555
H4A C10A 1_555 1_555
C11A C10 1_555 1_555
H5A C11A 1_555 1_555
O14A C34A 1_555 1_555
O15A C34A 1_555 1_555
O16A C41A 1_555 1_555
O17A C41A 1_555 1_555
C34A C35A 1_555 1_555
C35A C36A 1_555 1_555
C36A H16A 1_555 1_555
C37A C36A 1_555 1_555
C38A C37A 1_555 1_555
H17A C38A 1_555 1_555
C39A C38A 1_555 1_555
C40A C35A 1_555 1_555
H18A C40A 1_555 1_555
C41A C37A 1_555 1_555
C42A C44 1_555 1_555
H19A C42A 1_555 1_555
C43A C39A 1_555 1_555
C44A C42 1_555 1_555
H20A C44A 1_555 1_555
Eu1A O1A 1_555 1_555
Eu2A O6A 1_555 1_555
O5A Eu1A 1_555 1_555
O6A C12A 1_555 1_555
O7A C19A 1_555 1_555
O8A C19A 1_555 1_555
O9A C33A 1_555 1_555
O10A C33A 1_555 1_555
O11A C32A 1_555 1_555
O12A C32A 1_555 1_555
O13A Eu2A 1_555 1_555
C12A C13A 1_555 1_555
C13A C14A 1_555 1_555
C14A H6A 1_555 1_555
C15A C14A 1_555 1_555
C16A C15A 1_555 1_555
H7A C16A 1_555 1_555
C17A C16A 1_555 1_555
C18A C13A 1_555 1_555
H8A C18A 1_555 1_555
C19A C15A 1_555 1_555
C20A C17A 1_555 1_555
C21A C20A 1_555 1_555
H9A C21A 1_555 1_555
C22A C21A 1_555 1_555
H10A C22A 1_555 1_555
C23A C22A 1_555 1_555
C24A C23A 1_555 1_555
H11A C24A 1_555 1_555
C25A C20A 1_555 1_555
H12A C25A 1_555 1_555
C26A C23A 1_555 1_555
C27A C26A 1_555 1_555
H13A C27A 1_555 1_555
C28A C27A 1_555 1_555
C29A C28A 1_555 1_555
H14A C29A 1_555 1_555
C30A C29A 1_555 1_555
C31A C26A 1_555 1_555
H15A C31A 1_555 1_555
C32A C28A 1_555 1_555
C33A C30A 1_555 1_555
O18A Eu1A 1_555 1_555
N1A C45A 1_555 1_555
C45A O13A 1_555 1_555
H21A C45A 1_555 1_555
C46A N1A 1_555 1_555
H22A C46A 1_555 1_555
H23A C46A 1_555 1_555
H24A C46A 1_555 1_555
C47A N1A 1_555 1_555
H25A C47A 1_555 1_555
H26A C47A 1_555 1_555
H27A C47A 1_555 1_555
Eu1_2 O7 1_555 1_555
Eu1_3 O10 1_555 1_555
Eu1_4 O16A 1_555 1_555
Eu1A_2 O10A 1_555 1_555
Eu1A_3 O7A 1_555 1_555
Eu1A_4 O16 1_555 1_555
Eu2_2 O9 1_555 1_555
Eu2_3 O11 1_555 1_555
Eu2A_2 O11A 1_555 1_555
Eu2A_3 O3 1_555 1_555
Eu2A_4 O14A 1_555 1_555
O3_2 Eu2A 1_555 1_555
O3A_2 Eu2 1_555 1_555
O4_2 Eu2A 1_555 1_555
O4A_2 Eu2 1_555 1_555
O7_2 Eu1 1_555 1_555
O7A_2 Eu1A 1_555 1_555
O8_2 Eu1 1_555 1_555
O8A_2 Eu1A 1_555 1_555
O9_2 Eu2 1_555 1_555
O9A_2 Eu2A 1_555 1_555
O10_2 Eu1 1_555 1_555
O10A_2 Eu1A 1_555 1_555
O11_2 Eu2 1_555 1_555
O11A_2 Eu2A 1_555 1_555
O12_2 Eu2 1_555 1_555
O12A_2 Eu2A 1_555 1_555
O14A_2 Eu2A 1_555 1_555
O15A_2 Eu2A 1_555 1_555
O16_2 Eu1A 1_555 1_555
O16A_2 Eu1 1_555 1_555
O17_2 Eu1A 1_555 1_555
O17A_2 Eu1 1_555 1_555
O4 Eu2A_3 1_555 1_555
O8 Eu1_2 1_555 1_555
O12 Eu2_3 1_555 1_555
O15 C34 1_555 1_555
O17 Eu1A_4 1_555 1_555
C6 C7 1_555 1_555
C12 O18 1_555 1_555
C17 C18 1_555 1_555
C24 C25 1_555 1_555
C30 C31 1_555 1_555
C39 C40 1_555 1_555
C42 C43 1_555 1_555
O2A Eu1A 1_555 1_555
O3A Eu2_2 1_555 1_555
O4A Eu2_2 1_555 1_555
C6A C7A 1_555 1_555
C9A C10A 1_555 1_555
C9A C11A 1_555 1_555
O15A Eu2A_4 1_555 1_555
O17A Eu1_4 1_555 1_555
C39A C40A 1_555 1_555
C42A C43A 1_555 1_555
C43A C44A 1_555 1_555
O8A Eu1A_3 1_555 1_555
O9A Eu2A_3 1_555 1_555
O12A Eu2A_2 1_555 1_555
C12A O18A 1_555 1_555
C17A C18A 1_555 1_555
C24A C25A 1_555 1_555
C30A C31A 1_555 1_555

#END
