
#######################################################################
#
#                 Cambridge Crystallographic Data Centre
#                                CCDC 
#
#######################################################################
#
# If this CIF has been generated from an entry in the Cambridge 
# Structural Database, then it will include bibliographic, chemical, 
# crystal, experimental, refinement or atomic coordinate data resulting 
# from the CCDC's data processing and validation procedures.
#
#######################################################################

data_WIPNEO01
_symmetry_cell_setting           monoclinic
_symmetry_space_group_name_H-M   'P 21'
_symmetry_Int_Tables_number      4
_space_group_name_Hall           'P 2yb'
loop_
_symmetry_equiv_pos_site_id
_symmetry_equiv_pos_as_xyz
1 x,y,z
2 -x,1/2+y,-z
_cell_length_a                   10.371(2)
_cell_length_b                   7.1020(14)
_cell_length_c                   20.446(4)
_cell_angle_alpha                90
_cell_angle_beta                 94.07(3)
_cell_angle_gamma                90
_cell_volume                     1502.15
loop_
_atom_site_label
_atom_site_type_symbol
_atom_site_fract_x
_atom_site_fract_y
_atom_site_fract_z
Mn1 Mn 0.26655(11) -0.6090(2) 0.32590(6)
S1 S 0.1930(2) -0.2532(4) 0.33788(11)
S2 S 0.27248(17) -0.0726(3) 0.27697(10)
O1 O 0.3170(8) 0.0960(11) 0.3141(4)
O2 O 0.3865(7) -0.1595(12) 0.2507(4)
O3 O 0.1757(6) -0.0222(12) 0.2238(3)
N1 N 0.3819(7) -0.6188(15) 0.4244(4)
N2 N 0.1231(7) -0.6743(14) 0.4016(4)
C1 C 0.5079(10) -0.5983(19) 0.4370(6)
H1 H 0.5581 -0.5805 0.4016
C2 C 0.5702(13) -0.601(2) 0.4989(8)
H2 H 0.6598 -0.5909 0.5036
C3 C 0.5016(16) -0.619(2) 0.5536(8)
H3 H 0.5426 -0.6136 0.5955
C4 C 0.3672(14) -0.647(2) 0.5441(5)
C5 C 0.2809(17) -0.681(3) 0.5947(6)
H4 H 0.3152 -0.6811 0.6380
C6 C 0.1553(17) -0.713(3) 0.5835(5)
H5 H 0.1051 -0.7370 0.6185
C7 C 0.0975(14) -0.710(2) 0.5196(5)
C8 C -0.0359(13) -0.739(2) 0.5042(7)
H6 H -0.0905 -0.7593 0.5377
C9 C -0.0859(11) -0.737(2) 0.4394(6)
H7 H -0.1731 -0.7610 0.4288
C10 C -0.0035(10) -0.699(2) 0.3910(5)
H8 H -0.0390 -0.6911 0.3481
C11 C 0.1742(11) -0.6764(16) 0.4646(5)
C12 C 0.3133(10) -0.6397(15) 0.4769(4)
O7 O 0.1275(6) -0.6434(11) 0.2422(3)
O8 O 0.4215(6) -0.5262(12) 0.2699(4)
O1_2 O 0.3170(8) -0.9040(11) 0.3141(4)
Mn1_2 Mn 0.26655(11) 0.3910(2) 0.32590(6)
Mn2 Mn 0.74602(11) -0.0867(2) 0.17075(6)
S3 S 0.8086(2) 0.2687(4) 0.15161(12)
S4 S 0.76259(17) 0.4501(3) 0.22155(10)
O4 O 0.7003(7) 0.6203(11) 0.1901(4)
O5 O 0.6735(6) 0.3612(11) 0.2648(3)
O6 O 0.8819(6) 0.5031(11) 0.2597(4)
N3 N 0.5799(6) -0.0690(12) 0.0911(3)
N4 N 0.8359(6) -0.1168(13) 0.0732(4)
C13 C 0.4574(8) -0.0531(18) 0.1019(4)
H9 H 0.4328 -0.0557 0.1447
C14 C 0.3599(8) -0.032(2) 0.0485(4)
H10 H 0.2732 -0.0214 0.0568
C15 C 0.3962(9) -0.0264(17) -0.0140(5)
H11 H 0.3336 -0.0133 -0.0486
C16 C 0.5257(9) -0.0406(18) -0.0270(4)
C17 C 0.5711(10) -0.0350(19) -0.0913(4)
H12 H 0.5129 -0.0161 -0.1274
C18 C 0.6965(10) -0.057(2) -0.0999(5)
H13 H 0.7238 -0.0491 -0.1422
C19 C 0.7912(8) -0.0911(16) -0.0466(4)
C20 C 0.9207(10) -0.1204(19) -0.0550(5)
H14 H 0.9507 -0.1219 -0.0968
C21 C 1.0043(9) -0.147(2) -0.0010(6)
H15 H 1.0918 -0.1656 -0.0062
C22 C 0.9595(9) -0.1466(18) 0.0619(5)
H16 H 1.0186 -0.1682 0.0975
C23 C 0.7536(8) -0.0895(15) 0.0194(4)
C24 C 0.6154(7) -0.0648(14) 0.0295(4)
O9 O 0.9223(6) -0.1379(14) 0.2297(4)
O10 O 0.6304(6) -0.0112(11) 0.2500(3)
O4_2 O 0.7003(7) -0.3797(11) 0.1901(4)
Mn2_2 Mn 0.74602(11) 0.9133(2) 0.17075(6)
loop_
_geom_bond_atom_site_label_1
_geom_bond_atom_site_label_2
_geom_bond_site_symmetry_1
_geom_bond_site_symmetry_2
Mn1 S1 1_555 1_555
S1 S2 1_555 1_555
S2 O1 1_555 1_555
O1 Mn1_2 1_555 1_555
O2 S2 1_555 1_555
O3 S2 1_555 1_555
N1 Mn1 1_555 1_555
N2 Mn1 1_555 1_555
C1 N1 1_555 1_555
H1 C1 1_555 1_555
C2 C1 1_555 1_555
H2 C2 1_555 1_555
C3 C2 1_555 1_555
H3 C3 1_555 1_555
C4 C3 1_555 1_555
C5 C4 1_555 1_555
H4 C5 1_555 1_555
C6 C5 1_555 1_555
H5 C6 1_555 1_555
C7 C6 1_555 1_555
C8 C7 1_555 1_555
H6 C8 1_555 1_555
C9 C8 1_555 1_555
H7 C9 1_555 1_555
C10 N2 1_555 1_555
H8 C10 1_555 1_555
C11 N2 1_555 1_555
C12 N1 1_555 1_555
Mn2 S3 1_555 1_555
S3 S4 1_555 1_555
S4 O4 1_555 1_555
O4 Mn2_2 1_555 1_555
O5 S4 1_555 1_555
O6 S4 1_555 1_555
N3 Mn2 1_555 1_555
N4 Mn2 1_555 1_555
C13 N3 1_555 1_555
H9 C13 1_555 1_555
C14 C13 1_555 1_555
H10 C14 1_555 1_555
C15 C14 1_555 1_555
H11 C15 1_555 1_555
C16 C15 1_555 1_555
C17 C16 1_555 1_555
H12 C17 1_555 1_555
C18 C17 1_555 1_555
H13 C18 1_555 1_555
C19 C18 1_555 1_555
C20 C19 1_555 1_555
H14 C20 1_555 1_555
C21 C20 1_555 1_555
H15 C21 1_555 1_555
C22 N4 1_555 1_555
H16 C22 1_555 1_555
C23 N4 1_555 1_555
C24 N3 1_555 1_555
O7 Mn1 1_555 1_555
O8 Mn1 1_555 1_555
O9 Mn2 1_555 1_555
O10 Mn2 1_555 1_555
O1_2 Mn1 1_555 1_555
O4_2 Mn2 1_555 1_555
C4 C12 1_555 1_555
C7 C11 1_555 1_555
C9 C10 1_555 1_555
C11 C12 1_555 1_555
C16 C24 1_555 1_555
C19 C23 1_555 1_555
C21 C22 1_555 1_555
C23 C24 1_555 1_555

#END
