
#######################################################################
#
#                 Cambridge Crystallographic Data Centre
#                                CCDC 
#
#######################################################################
#
# If this CIF has been generated from an entry in the Cambridge 
# Structural Database, then it will include bibliographic, chemical, 
# crystal, experimental, refinement or atomic coordinate data resulting 
# from the CCDC's data processing and validation procedures.
#
#######################################################################

data_WIPPES
_symmetry_cell_setting           triclinic
_symmetry_space_group_name_H-M   'P -1'
_symmetry_Int_Tables_number      2
_space_group_name_Hall           '-P 1'
loop_
_symmetry_equiv_pos_site_id
_symmetry_equiv_pos_as_xyz
1 x,y,z
2 -x,-y,-z
_cell_length_a                   11.687(2)
_cell_length_b                   14.419(3)
_cell_length_c                   14.710(3)
_cell_angle_alpha                112.180(5)
_cell_angle_beta                 104.093(5)
_cell_angle_gamma                100.391(6)
_cell_volume                     2121.56
loop_
_atom_site_label
_atom_site_type_symbol
_atom_site_fract_x
_atom_site_fract_y
_atom_site_fract_z
Cd1 Cd -1.0000 -0.5000 0.5000
Cd2 Cd -0.81476(3) -0.50468(3) 0.34753(3)
O1 O -0.6571(3) -0.3895(3) 0.3313(3)
O2 O -0.7817(4) -0.5296(3) 0.1919(3)
O3 O -0.4668(4) -0.3111(4) -0.0092(3)
O4 O -0.7923(3) -0.4281(3) -0.4746(3)
O5 O -0.6305(4) -0.4781(3) -0.5001(3)
O6 O -1.0396(4) -0.3909(3) 0.4353(3)
O7 O -0.9496(4) -0.4187(3) 0.3138(3)
O8 O -1.2227(4) -0.0939(3) 0.2511(4)
O9 O -0.8439(4) 0.3205(3) 0.3152(3)
O10 O -1.0003(4) 0.3781(3) 0.3429(3)
C1 C -0.6962(5) -0.4443(4) 0.2349(4)
C2 C -0.6384(5) -0.4093(4) 0.1682(4)
C3 C -0.5560(5) -0.3103(5) 0.2099(4)
H1 H -0.5363 -0.2648 0.2799
C4 C -0.5025(5) -0.2779(5) 0.1489(4)
H2 H -0.4475 -0.2107 0.1772
C5 C -0.5314(5) -0.3462(5) 0.0455(4)
C6 C -0.6131(5) -0.4455(5) 0.0018(4)
H3 H -0.6318 -0.4912 -0.0680
C7 C -0.6665(5) -0.4757(4) 0.0639(4)
H4 H -0.7229 -0.5424 0.0351
C8 C -0.5247(5) -0.3431(5) -0.1140(4)
C9 C -0.6469(5) -0.3490(5) -0.1548(4)
H5 H -0.6935 -0.3326 -0.1112
C10 C -0.7000(5) -0.3795(5) -0.2608(4)
H6 H -0.7824 -0.3839 -0.2883
C11 C -0.6307(5) -0.4036(4) -0.3261(4)
C12 C -0.5053(5) -0.3956(4) -0.2827(4)
H7 H -0.4580 -0.4116 -0.3257
C13 C -0.4529(5) -0.3643(5) -0.1771(4)
H8 H -0.3698 -0.3575 -0.1485
C14 C -0.6865(5) -0.4386(4) -0.4396(4)
C15 C -0.9500(5) 0.3056(4) 0.3231(4)
C16 C -1.0200(5) 0.1994(4) 0.3056(4)
C17 C -1.1388(6) 0.1794(5) 0.3063(5)
H9 H -1.1756 0.2329 0.3191
C18 C -1.2044(6) 0.0809(5) 0.2883(6)
H10 H -1.2854 0.0678 0.2879
C19 C -1.1499(5) 0.0028(4) 0.2709(5)
C20 C -1.0305(6) 0.0208(5) 0.2716(6)
H11 H -0.9927 -0.0320 0.2616
C21 C -0.9683(6) 0.1188(5) 0.2876(5)
H12 H -0.8880 0.1312 0.2861
C22 C -1.1658(5) -0.1608(5) 0.2789(5)
C23 C -1.1158(6) -0.1379(5) 0.3819(5)
H13 H -1.1145 -0.0752 0.4335
C24 C -1.0669(6) -0.2081(5) 0.4092(5)
H14 H -1.0345 -0.1932 0.4793
C25 C -1.0662(5) -0.2991(4) 0.3340(4)
C26 C -1.1159(7) -0.3212(5) 0.2297(5)
H15 H -1.1151 -0.3827 0.1778
C27 C -1.1672(7) -0.2510(5) 0.2026(5)
H16 H -1.2019 -0.2661 0.1327
C28 C -1.0138(5) -0.3764(4) 0.3633(4)
Cd2A Cd -1.18524(3) -0.49532(3) -0.34753(3)
O1A O -1.3429(3) -0.6105(3) -0.3313(3)
O2A O -1.2183(4) -0.4704(3) -0.1919(3)
O3A O -1.5332(4) -0.6889(4) 0.0092(3)
O4A O -1.2077(3) -0.5719(3) 0.4746(3)
O5A O -1.3695(4) -0.5219(3) 0.5001(3)
O6A O -0.9604(4) -0.6091(3) -0.4353(3)
O7A O -1.0504(4) -0.5813(3) -0.3138(3)
O8A O -0.7773(4) -0.9061(3) -0.2511(4)
O9A O -1.1561(4) -1.3205(3) -0.3152(3)
O10A O -0.9997(4) -1.3781(3) -0.3429(3)
C1A C -1.3038(5) -0.5557(4) -0.2349(4)
C2A C -1.3616(5) -0.5907(4) -0.1682(4)
C3A C -1.4440(5) -0.6897(5) -0.2099(4)
H1A H -1.4637 -0.7352 -0.2799
C4A C -1.4975(5) -0.7221(5) -0.1489(4)
H2A H -1.5525 -0.7893 -0.1772
C5A C -1.4686(5) -0.6538(5) -0.0455(4)
C6A C -1.3869(5) -0.5545(5) -0.0018(4)
H3A H -1.3682 -0.5088 0.0680
C7A C -1.3335(5) -0.5243(4) -0.0639(4)
H4A H -1.2771 -0.4576 -0.0351
C8A C -1.4753(5) -0.6569(5) 0.1140(4)
C9A C -1.3531(5) -0.6510(5) 0.1548(4)
H5A H -1.3065 -0.6674 0.1112
C10A C -1.3000(5) -0.6205(5) 0.2608(4)
H6A H -1.2176 -0.6161 0.2883
C11A C -1.3693(5) -0.5964(4) 0.3261(4)
C12A C -1.4947(5) -0.6044(4) 0.2827(4)
H7A H -1.5420 -0.5884 0.3257
C13A C -1.5471(5) -0.6357(5) 0.1771(4)
H8A H -1.6302 -0.6425 0.1485
C14A C -1.3135(5) -0.5614(4) 0.4396(4)
C15A C -1.0500(5) -1.3056(4) -0.3231(4)
C16A C -0.9800(5) -1.1994(4) -0.3056(4)
C17A C -0.8612(6) -1.1794(5) -0.3063(5)
H9A H -0.8244 -1.2329 -0.3191
C18A C -0.7956(6) -1.0809(5) -0.2883(6)
H10A H -0.7146 -1.0678 -0.2879
C19A C -0.8501(5) -1.0028(4) -0.2709(5)
C20A C -0.9695(6) -1.0208(5) -0.2716(6)
H11A H -1.0073 -0.9680 -0.2616
C21A C -1.0317(6) -1.1188(5) -0.2876(5)
H12A H -1.1120 -1.1312 -0.2861
C22A C -0.8342(5) -0.8392(5) -0.2789(5)
C23A C -0.8842(6) -0.8621(5) -0.3819(5)
H13A H -0.8855 -0.9248 -0.4335
C24A C -0.9331(6) -0.7919(5) -0.4092(5)
H14A H -0.9655 -0.8068 -0.4793
C25A C -0.9338(5) -0.7009(4) -0.3340(4)
C26A C -0.8841(7) -0.6788(5) -0.2297(5)
H15A H -0.8849 -0.6173 -0.1778
C27A C -0.8328(7) -0.7490(5) -0.2026(5)
H16A H -0.7981 -0.7339 -0.1327
C28A C -0.9862(5) -0.6236(4) -0.3633(4)
Cd1_2 Cd -1.0000 -1.5000 -0.5000
Cd1_3 Cd -1.0000 -0.5000 -0.5000
Cd1_4 Cd -1.0000 0.5000 0.5000
Cd2_2 Cd -0.81476(3) -0.50468(3) -0.65247(3)
Cd2_3 Cd -0.81476(3) 0.49532(3) 0.34753(3)
Cd2A_2 Cd -1.18524(3) -1.49532(3) -0.34753(3)
Cd2A_3 Cd -1.18524(3) -0.49532(3) 0.65247(3)
O4_2 O -0.7923(3) -0.4281(3) 0.5254(3)
O4A_2 O -1.2077(3) -0.5719(3) -0.5254(3)
O5_2 O -0.6305(4) -0.4781(3) 0.4999(3)
O5A_2 O -1.3695(4) -0.5219(3) -0.4999(3)
O6A_2 O -0.9604(4) -0.6091(3) 0.5647(3)
O9_2 O -0.8439(4) -0.6795(3) 0.3152(3)
O9A_2 O -1.1561(4) -0.3205(3) -0.3152(3)
O10_2 O -1.0003(4) -0.6219(3) 0.3429(3)
O10A_2 O -0.9997(4) -0.3781(3) -0.3429(3)
O10A_3 O -0.9997(4) -0.3781(3) 0.6571(3)
N1 N -1.5766(5) -0.6597(4) -0.4759(4)
H17 H -1.5036 -0.6489 -0.4292
H18 H -1.5735 -0.6008 -0.4844
C29 C -1.6744(7) -0.6776(6) -0.4329(7)
H19 H -1.6588 -0.6170 -0.3688
H20 H -1.6756 -0.7379 -0.4195
H21 H -1.7530 -0.6895 -0.4821
C30 C -1.5932(7) -0.7457(5) -0.5764(6)
H22 H -1.5268 -0.7276 -0.6002
H23 H -1.6707 -0.7574 -0.6267
H24 H -1.5930 -0.8086 -0.5680
O11 O -1.5993(7) -0.8922(6) -0.4433(6)
C31 C -1.6087(8) -0.9773(7) -0.4373(7)
H25 H -1.5624 -0.9765 -0.3757
N2 N -1.6819(7) -1.0681(6) -0.5149(6)
C32 C -1.7497(13) -1.0746(11) -0.6111(10)
H26 H -1.7486 -1.0054 -0.6038
H27 H -1.8336 -1.1171 -0.6331
H28 H -1.7132 -1.1059 -0.6624
C33 C -1.6856(12) -1.1646(9) -0.5065(9)
H29 H -1.6367 -1.1492 -0.4370
H30 H -1.6530 -1.2066 -0.5556
H31 H -1.7697 -1.2023 -0.5214
O12 O -1.518(3) 0.061(2) 0.2353(19)
N3 N -1.654(3) 0.0293(19) 0.084(3)
C34 C -1.598(3) 0.080(2) 0.184(2)
H32 H -1.6229 0.1365 0.2200
C35 C -1.751(3) 0.054(3) 0.024(3)
H33 H -1.7708 0.1113 0.0702
H34 H -1.8235 -0.0067 -0.0133
H35 H -1.7239 0.0728 -0.0248
C36 C -1.6134(16) -0.0628(16) 0.0268(12)
H36 H -1.5508 -0.0718 0.0759
H37 H -1.5804 -0.0499 -0.0226
H38 H -1.6831 -0.1254 -0.0096
O13 O -1.1692(16) -0.8917(16) -0.1613(12)
C37 C -1.1566(16) -0.7933(16) -0.1090(12)
H39 H -1.2119 -0.7655 -0.1392
N4 N -1.069(2) -0.726(2) -0.0133(19)
C38 C -0.986(3) -0.775(3) 0.029(2)
H40 H -1.0071 -0.8473 -0.0199
H41 H -0.9933 -0.7702 0.0938
H42 H -0.9025 -0.7390 0.0401
C39 C -1.066(3) -0.624(2) 0.033(2)
H43 H -1.1253 -0.6102 -0.0138
H44 H -0.9849 -0.5794 0.0512
H45 H -1.0868 -0.6111 0.0955
loop_
_geom_bond_atom_site_label_1
_geom_bond_atom_site_label_2
_geom_bond_site_symmetry_1
_geom_bond_site_symmetry_2
Cd1 O6 1_555 1_555
Cd2 O1 1_555 1_555
O1 C1 1_555 1_555
O2 Cd2 1_555 1_555
O3 C5 1_555 1_555
O4 C14 1_555 1_555
O5 C14 1_555 1_555
O6 C28 1_555 1_555
O7 Cd2 1_555 1_555
O8 C19 1_555 1_555
O9 C15 1_555 1_555
O10 C15 1_555 1_555
C1 O2 1_555 1_555
C2 C1 1_555 1_555
C3 C2 1_555 1_555
H1 C3 1_555 1_555
C4 C3 1_555 1_555
H2 C4 1_555 1_555
C5 C4 1_555 1_555
C6 C5 1_555 1_555
H3 C6 1_555 1_555
C7 C2 1_555 1_555
H4 C7 1_555 1_555
C8 O3 1_555 1_555
C9 C8 1_555 1_555
H5 C9 1_555 1_555
C10 C9 1_555 1_555
H6 C10 1_555 1_555
C11 C10 1_555 1_555
C12 C11 1_555 1_555
H7 C12 1_555 1_555
C13 C8 1_555 1_555
H8 C13 1_555 1_555
C14 C11 1_555 1_555
C15 C16 1_555 1_555
C16 C17 1_555 1_555
C17 H9 1_555 1_555
C18 C17 1_555 1_555
H10 C18 1_555 1_555
C19 C18 1_555 1_555
C20 C19 1_555 1_555
H11 C20 1_555 1_555
C21 C16 1_555 1_555
H12 C21 1_555 1_555
C22 O8 1_555 1_555
C23 C22 1_555 1_555
H13 C23 1_555 1_555
C24 C23 1_555 1_555
H14 C24 1_555 1_555
C25 C24 1_555 1_555
C26 C25 1_555 1_555
H15 C26 1_555 1_555
C27 C22 1_555 1_555
H16 C27 1_555 1_555
C28 O7 1_555 1_555
N1 H17 1_555 1_555
H18 N1 1_555 1_555
C29 N1 1_555 1_555
H19 C29 1_555 1_555
H20 C29 1_555 1_555
H21 C29 1_555 1_555
C30 N1 1_555 1_555
H22 C30 1_555 1_555
H23 C30 1_555 1_555
H24 C30 1_555 1_555
O11 C31 1_555 1_555
C31 H25 1_555 1_555
N2 C31 1_555 1_555
C32 N2 1_555 1_555
H26 C32 1_555 1_555
H27 C32 1_555 1_555
H28 C32 1_555 1_555
C33 N2 1_555 1_555
H29 C33 1_555 1_555
H30 C33 1_555 1_555
H31 C33 1_555 1_555
O12 C34 1_555 1_555
N3 C34 1_555 1_555
C34 H32 1_555 1_555
C35 N3 1_555 1_555
H33 C35 1_555 1_555
H34 C35 1_555 1_555
H35 C35 1_555 1_555
C36 N3 1_555 1_555
H36 C36 1_555 1_555
H37 C36 1_555 1_555
H38 C36 1_555 1_555
O13 C37 1_555 1_555
C37 H39 1_555 1_555
N4 C37 1_555 1_555
C38 N4 1_555 1_555
H40 C38 1_555 1_555
H41 C38 1_555 1_555
H42 C38 1_555 1_555
C39 N4 1_555 1_555
H43 C39 1_555 1_555
H44 C39 1_555 1_555
H45 C39 1_555 1_555
Cd2A O1A 1_555 1_555
O1A C1A 1_555 1_555
O2A Cd2A 1_555 1_555
O3A C5A 1_555 1_555
O4A Cd1 1_555 1_555
O5A C14A 1_555 1_555
O6A C28A 1_555 1_555
O7A Cd2A 1_555 1_555
O8A C19A 1_555 1_555
O9A C15A 1_555 1_555
O10A C15A 1_555 1_555
C1A O2A 1_555 1_555
C2A C1A 1_555 1_555
C3A C2A 1_555 1_555
H1A C3A 1_555 1_555
C4A C3A 1_555 1_555
H2A C4A 1_555 1_555
C5A C4A 1_555 1_555
C6A C5A 1_555 1_555
H3A C6A 1_555 1_555
C7A C2A 1_555 1_555
H4A C7A 1_555 1_555
C8A O3A 1_555 1_555
C9A C8A 1_555 1_555
H5A C9A 1_555 1_555
C10A C9A 1_555 1_555
H6A C10A 1_555 1_555
C11A C10A 1_555 1_555
C12A C11A 1_555 1_555
H7A C12A 1_555 1_555
C13A C8A 1_555 1_555
H8A C13A 1_555 1_555
C14A O4A 1_555 1_555
C15A C16A 1_555 1_555
C16A C17A 1_555 1_555
C17A H9A 1_555 1_555
C18A C17A 1_555 1_555
H10A C18A 1_555 1_555
C19A C18A 1_555 1_555
C20A C19A 1_555 1_555
H11A C20A 1_555 1_555
C21A C16A 1_555 1_555
H12A C21A 1_555 1_555
C22A O8A 1_555 1_555
C23A C22A 1_555 1_555
H13A C23A 1_555 1_555
C24A C23A 1_555 1_555
H14A C24A 1_555 1_555
C25A C24A 1_555 1_555
C26A C25A 1_555 1_555
H15A C26A 1_555 1_555
C27A C22A 1_555 1_555
H16A C27A 1_555 1_555
C28A O7A 1_555 1_555
Cd1_2 O10A 1_555 1_555
Cd1_3 O4 1_555 1_555
Cd1_4 O10 1_555 1_555
Cd2_2 O4 1_555 1_555
Cd2_3 O9 1_555 1_555
Cd2A_2 O9A 1_555 1_555
Cd2A_3 O4A 1_555 1_555
O4_2 Cd1 1_555 1_555
O4A_2 Cd2A 1_555 1_555
O5_2 Cd2 1_555 1_555
O5A_2 Cd2A 1_555 1_555
O6A_2 Cd1 1_555 1_555
O9_2 Cd2 1_555 1_555
O9A_2 Cd2A 1_555 1_555
O10_2 Cd1 1_555 1_555
O10A_2 Cd2A 1_555 1_555
O10A_3 Cd1 1_555 1_555
Cd2 O4_2 1_555 1_555
Cd2 O10_2 1_555 1_555
O5 Cd2_2 1_555 1_555
O10 Cd2_3 1_555 1_555
C6 C7 1_555 1_555
C12 C13 1_555 1_555
C20 C21 1_555 1_555
C25 C28 1_555 1_555
C26 C27 1_555 1_555
O5A Cd2A_3 1_555 1_555
O6A Cd1_3 1_555 1_555
O10A Cd2A_2 1_555 1_555
C6A C7A 1_555 1_555
C11A C14A 1_555 1_555
C12A C13A 1_555 1_555
C20A C21A 1_555 1_555
C25A C28A 1_555 1_555
C26A C27A 1_555 1_555
Cd1_3 O4A_2 1_555 1_555
Cd1_3 O10A_2 1_555 1_555
Cd2A_3 O10A_3 1_555 1_555

#END
