
#######################################################################
#
#                 Cambridge Crystallographic Data Centre
#                                CCDC 
#
#######################################################################
#
# If this CIF has been generated from an entry in the Cambridge 
# Structural Database, then it will include bibliographic, chemical, 
# crystal, experimental, refinement or atomic coordinate data resulting 
# from the CCDC's data processing and validation procedures.
#
#######################################################################

data_WIPPIW
_symmetry_cell_setting           orthorhombic
_symmetry_space_group_name_H-M   'F d d 2'
_symmetry_Int_Tables_number      43
_space_group_name_Hall           'F 2 -2d'
loop_
_symmetry_equiv_pos_site_id
_symmetry_equiv_pos_as_xyz
1 x,y,z
2 -x,-y,z
3 1/4+x,1/4-y,1/4+z
4 1/4-x,1/4+y,1/4+z
5 x,1/2+y,1/2+z
6 -x,1/2-y,1/2+z
7 1/4+x,3/4-y,3/4+z
8 1/4-x,3/4+y,3/4+z
9 1/2+x,y,1/2+z
10 1/2-x,-y,1/2+z
11 3/4+x,1/4-y,3/4+z
12 3/4-x,1/4+y,3/4+z
13 1/2+x,1/2+y,z
14 1/2-x,1/2-y,z
15 3/4+x,3/4-y,1/4+z
16 3/4-x,3/4+y,1/4+z
_cell_length_a                   32.68(7)
_cell_length_b                   34.95(8)
_cell_length_c                   25.12(4)
_cell_angle_alpha                90
_cell_angle_beta                 90
_cell_angle_gamma                90
_cell_volume                     28691.2
loop_
_atom_site_label
_atom_site_type_symbol
_atom_site_fract_x
_atom_site_fract_y
_atom_site_fract_z
N1 N 0.5369(5) 0.2941(5) 0.5166(9)
H25 H 0.5422 0.3106 0.4901
H26 H 0.5601 0.2916 0.5357
C49 C 0.5042(8) 0.3117(7) 0.5527(12)
H27 H 0.5133 0.3362 0.5651
H28 H 0.4995 0.2952 0.5827
H29 H 0.4792 0.3147 0.5330
C50 C 0.5278(7) 0.2584(7) 0.4939(10)
H30 H 0.5498 0.2507 0.4710
H31 H 0.5030 0.2604 0.4735
H32 H 0.5243 0.2398 0.5216
Cd1 Cd 0.49786(2) 0.14656(2) 0.88496(4)
Cd2 Cd 0.56981(3) 0.24939(3) 0.66463(5)
Cd3 Cd 0.53199(3) 0.19610(3) 0.77117(5)
C1 C 0.6454(5) 0.1628(4) 0.7849(8)
H1 H 0.6269 0.1772 0.8046
C2 C 0.6468(4) 0.1681(3) 0.7355(7)
C3 C 0.6753(5) 0.1431(5) 0.6991(8)
H2 H 0.6774 0.1469 0.6613
C4 C 0.6983(5) 0.1141(6) 0.7308(9)
H3 H 0.7140 0.0964 0.7121
C5 C 0.6983(4) 0.1118(4) 0.7793(8)
C6 C 0.6717(5) 0.1347(5) 0.8138(9)
C7 C 0.6712(6) 0.1289(5) 0.8690(9)
H4 H 0.6499 0.1407 0.8896
C8 C 0.6975(6) 0.1045(6) 0.8918(8)
H5 H 0.6972 0.1015 0.9286
C9 C 0.7253(5) 0.0835(4) 0.8618(7)
C10 C 0.7266(5) 0.0861(5) 0.8078(10)
H6 H 0.7454 0.0716 0.7887
C11 C 0.6191(5) 0.1936(4) 0.6999(8)
C12 C 0.7589(6) 0.0562(6) 0.8850(10)
O1 O 0.6263(3) 0.1987(3) 0.6548(5)
O2 O 0.5940(3) 0.2115(3) 0.7329(4)
O3 O 0.7541(3) 0.0567(3) 0.9376(6)
O4 O 0.7778(3) 0.0339(3) 0.8610(5)
C13 C 0.6582(5) 0.3251(4) 0.9845(8)
H7 H 0.6702 0.3415 0.9599
C14 C 0.6653(5) 0.3292(4) 1.0344(8)
C15 C 0.6515(4) 0.3000(3) 1.0724(5)
H8 H 0.6580 0.3022 1.1095
C16 C 0.6268(5) 0.2721(4) 1.0522(7)
H9 H 0.6153 0.2546 1.0758
C17 C 0.6180(4) 0.2682(4) 0.9997(7)
C18 C 0.6315(5) 0.2949(4) 0.9669(8)
C19 C 0.6249(6) 0.2939(4) 0.9088(10)
H10 H 0.6375 0.3115 0.8864
C20 C 0.5976(5) 0.2640(5) 0.8875(7)
H11 H 0.5887 0.2636 0.8511
C21 C 0.5838(4) 0.2353(4) 0.9267(7)
C22 C 0.5925(4) 0.2382(3) 0.9788(6)
H12 H 0.5817 0.2202 1.0021
C23 C 0.6941(5) 0.3609(4) 1.0537(8)
C24 C 0.5578(5) 0.2029(5) 0.9040(8)
O5 O 0.7038(3) 0.3562(3) 1.1000(5)
O6 O 0.7047(3) 0.3840(3) 1.0214(5)
O7 O 0.5573(3) 0.2012(3) 0.8542(6)
O8 O 0.5382(3) 0.1846(3) 0.9357(4)
C25 C 0.3936(6) 0.0455(6) 0.9458(9)
H13 H 0.3908 0.0400 0.9098
C26 C 0.4186(6) 0.0718(5) 0.9715(9)
C27 C 0.4206(6) 0.0753(5) 1.0261(9)
H14 H 0.4378 0.0941 1.0396
C28 C 0.3994(7) 0.0537(7) 1.0626(10)
H15 H 0.4015 0.0587 1.0989
C29 C 0.3755(6) 0.0251(6) 1.0447(9)
C30 C 0.3735(6) 0.0296(6) 0.9904(9)
C31 C 0.3502(7) 0.0017(6) 0.9683(9)
H16 H 0.3474 -0.0028 0.9320
C32 C 0.3310(5) -0.0195(5) 1.0087(8)
H17 H 0.3137 -0.0380 0.9945
C33 C 0.3306(5) -0.0203(5) 1.0646(8)
C34 C 0.3575(6) 0.0057(5) 1.0873(9)
H18 H 0.3618 0.0087 1.1249
C35 C 0.4506(6) 0.0985(5) 0.9393(10)
C36 C 0.3032(4) -0.0508(4) 1.0903(8)
O9 O 0.4476(3) 0.0988(3) 0.8911(5)
O10 O 0.4697(4) 0.1208(4) 0.9666(5)
O11 O 0.3068(3) -0.0530(3) 1.1408(6)
O12 O 0.2798(3) -0.0690(2) 1.0619(4)
C37 C 0.7281(5) 0.4277(4) 0.5702(5)
H19 H 0.7415 0.4437 0.5961
C38 C 0.7356(4) 0.4335(4) 0.5164(6)
C39 C 0.7140(5) 0.4121(5) 0.4788(5)
H20 H 0.7156 0.4185 0.4429
C40 C 0.6900(7) 0.3812(6) 0.4949(5)
H21 H 0.6824 0.3614 0.4702
C41 C 0.6814(4) 0.3767(3) 0.5470(5)
C42 C 0.7006(4) 0.3993(4) 0.5866(4)
C43 C 0.6931(5) 0.3906(5) 0.6393(5)
H22 H 0.7061 0.4045 0.6676
C44 C 0.6675(5) 0.3606(5) 0.6535(6)
H23 H 0.6577 0.3543 0.6884
C45 C 0.6486(4) 0.3389(4) 0.6139(7)
C46 C 0.6558(5) 0.3463(4) 0.5610(7)
H24 H 0.6414 0.3303 0.5361
C47 C 0.7627(5) 0.4650(5) 0.4965(9)
C48 C 0.6181(7) 0.3055(6) 0.6234(14)
O13 O 0.7704(3) 0.4931(3) 0.5239(4)
O14 O 0.7725(3) 0.4619(3) 0.4489(6)
O15 O 0.5969(5) 0.2859(4) 0.5951(7)
O16 O 0.6201(4) 0.2976(4) 0.6737(7)
Cd1C Cd 0.75214(2) 0.39656(2) 1.13496(4)
Cd1O Cd 0.25214(2) -0.10344(2) 1.13496(4)
Cd2B Cd 0.81981(3) 0.00061(3) 0.91463(5)
Cd2F Cd 0.81981(3) 0.50061(3) 0.41463(5)
Cd3B Cd 0.78199(3) 0.05390(3) 1.02117(5)
Cd3C Cd 0.71801(3) 0.44610(3) 1.02117(5)
Cd3F Cd 0.78199(3) 0.55390(3) 0.52117(5)
Cd3O Cd 0.21801(3) -0.05390(3) 1.02117(5)
O3J O 0.5041(3) 0.1933(3) 0.6876(6)
O4J O 0.5278(3) 0.2161(3) 0.6110(5)
O5G O 0.5462(3) 0.1062(3) 0.8500(5)
O6G O 0.5453(3) 0.1340(3) 0.7714(5)
O11K O 0.4432(3) 0.1970(3) 0.8908(6)
O12K O 0.4702(3) 0.1810(2) 0.8119(4)
O13N O 0.5204(3) 0.2569(3) 0.7739(4)
O14N O 0.5225(3) 0.2881(3) 0.6989(6)
N2? N 0.5000 0.0000 0.9779(13)
H33? H 0.4753 0.0059 0.9916
H34? H 0.5088 -0.0224 0.9916
C51? C 0.5000 0.0000 0.9105(11)
H35? H 0.4814 -0.0192 0.8978
H36? H 0.5271 -0.0054 0.8978
H37? H 0.4915 0.0246 0.8978
C52? C 0.5333(7) 0.0320(7) 0.9820(9)
H38? H 0.5386 0.0375 1.0187
H39? H 0.5236 0.0547 0.9645
H40? H 0.5580 0.0235 0.9651
loop_
_geom_bond_atom_site_label_1
_geom_bond_atom_site_label_2
_geom_bond_site_symmetry_1
_geom_bond_site_symmetry_2
Cd1 O8 1_555 1_555
Cd2 O1 1_555 1_555
Cd3 O2 1_555 1_555
C1 H1 1_555 1_555
C2 C1 1_555 1_555
C3 C2 1_555 1_555
H2 C3 1_555 1_555
C4 C3 1_555 1_555
H3 C4 1_555 1_555
C5 C4 1_555 1_555
C6 C1 1_555 1_555
C7 C6 1_555 1_555
H4 C7 1_555 1_555
C8 C7 1_555 1_555
H5 C8 1_555 1_555
C9 C8 1_555 1_555
C10 C5 1_555 1_555
H6 C10 1_555 1_555
C11 C2 1_555 1_555
C12 C9 1_555 1_555
O1 C11 1_555 1_555
O2 Cd2 1_555 1_555
O3 C12 1_555 1_555
O4 C12 1_555 1_555
C13 H7 1_555 1_555
C14 C13 1_555 1_555
C15 C14 1_555 1_555
H8 C15 1_555 1_555
C16 C15 1_555 1_555
H9 C16 1_555 1_555
C17 C16 1_555 1_555
C18 C13 1_555 1_555
C19 C18 1_555 1_555
H10 C19 1_555 1_555
C20 C19 1_555 1_555
H11 C20 1_555 1_555
C21 C20 1_555 1_555
C22 C17 1_555 1_555
H12 C22 1_555 1_555
C23 C14 1_555 1_555
C24 C21 1_555 1_555
O5 C23 1_555 1_555
O6 C23 1_555 1_555
O7 Cd3 1_555 1_555
O8 C24 1_555 1_555
C25 H13 1_555 1_555
C26 C25 1_555 1_555
C27 C26 1_555 1_555
H14 C27 1_555 1_555
C28 C27 1_555 1_555
H15 C28 1_555 1_555
C29 C28 1_555 1_555
C30 C25 1_555 1_555
C31 C30 1_555 1_555
H16 C31 1_555 1_555
C32 C31 1_555 1_555
H17 C32 1_555 1_555
C33 C32 1_555 1_555
C34 C29 1_555 1_555
H18 C34 1_555 1_555
C35 C26 1_555 1_555
C36 C33 1_555 1_555
O9 Cd1 1_555 1_555
O10 Cd1 1_555 1_555
O11 C36 1_555 1_555
O12 C36 1_555 1_555
C37 H19 1_555 1_555
C38 C37 1_555 1_555
C39 C38 1_555 1_555
H20 C39 1_555 1_555
C40 C39 1_555 1_555
H21 C40 1_555 1_555
C41 C40 1_555 1_555
C42 C37 1_555 1_555
C43 C42 1_555 1_555
H22 C43 1_555 1_555
C44 C43 1_555 1_555
H23 C44 1_555 1_555
C45 C44 1_555 1_555
C46 C41 1_555 1_555
H24 C46 1_555 1_555
C47 C38 1_555 1_555
C48 C45 1_555 1_555
O13 C47 1_555 1_555
O14 C47 1_555 1_555
O15 Cd2 1_555 1_555
O16 Cd2 1_555 1_555
N1 H25 1_555 1_555
H26 N1 1_555 1_555
C49 N1 1_555 1_555
H27 C49 1_555 1_555
H28 C49 1_555 1_555
H29 C49 1_555 1_555
C50 N1 1_555 1_555
H30 C50 1_555 1_555
H31 C50 1_555 1_555
H32 C50 1_555 1_555
Cd1C O5 1_555 1_555
Cd1O O11 1_555 1_555
Cd2B O4 1_555 1_555
Cd2F O14 1_555 1_555
Cd3B O3 1_555 1_555
Cd3C O6 1_555 1_555
Cd3F O13 1_555 1_555
Cd3O O12 1_555 1_555
O3J Cd3 1_555 1_555
O4J Cd2 1_555 1_555
O5G Cd1 1_555 1_555
O6G Cd3 1_555 1_555
O11K Cd1 1_555 1_555
O12K Cd1 1_555 1_555
O13N Cd3 1_555 1_555
O14N Cd2 1_555 1_555
Cd3 O12K 1_555 1_555
C5 C6 1_555 1_555
C9 C10 1_555 1_555
C11 O2 1_555 1_555
C17 C18 1_555 1_555
C21 C22 1_555 1_555
C24 O7 1_555 1_555
C29 C30 1_555 1_555
C33 C34 1_555 1_555
C35 O9 1_555 1_555
C35 O10 1_555 1_555
O12 Cd1O 1_555 1_555
C41 C42 1_555 1_555
C45 C46 1_555 1_555
C48 O15 1_555 1_555
C48 O16 1_555 1_555

#END
