
#######################################################################
#
#                 Cambridge Crystallographic Data Centre
#                                CCDC 
#
#######################################################################
#
# If this CIF has been generated from an entry in the Cambridge 
# Structural Database, then it will include bibliographic, chemical, 
# crystal, experimental, refinement or atomic coordinate data resulting 
# from the CCDC's data processing and validation procedures.
#
#######################################################################

data_WIPQAP
_symmetry_cell_setting           monoclinic
_symmetry_space_group_name_H-M   'P 21/n'
_symmetry_Int_Tables_number      14
_space_group_name_Hall           '-P 2yn'
loop_
_symmetry_equiv_pos_site_id
_symmetry_equiv_pos_as_xyz
1 x,y,z
2 1/2-x,1/2+y,1/2-z
3 -x,-y,-z
4 1/2+x,1/2-y,1/2+z
_cell_length_a                   17.438
_cell_length_b                   11.119
_cell_length_c                   18.114
_cell_angle_alpha                90
_cell_angle_beta                 115.64
_cell_angle_gamma                90
_cell_volume                     3166.34
loop_
_atom_site_label
_atom_site_type_symbol
_atom_site_fract_x
_atom_site_fract_y
_atom_site_fract_z
O1 O 0.07298(18) 0.6350(3) 0.48712(17)
O2 O 0.1693(2) 0.7081(3) 0.60660(19)
C1 C 0.1435(3) 0.6805(4) 0.5325(3)
C2 C 0.2046(3) 0.7054(4) 0.4955(3)
C3 C 0.2808(3) 0.7641(4) 0.5408(3)
H1 H 0.2929 0.7917 0.5932
C4 C 0.1866(3) 0.6657(4) 0.4175(3)
H2 H 0.1354 0.6269 0.3866
O3 O 0.08492(16) 1.3806(3) 0.48279(17)
C5 C 0.1629(2) 1.3573(4) 0.5265(2)
C6 C 0.2101(3) 1.3031(4) 0.4819(3)
C7 C 0.1815(3) 1.3248(4) 0.3987(3)
H3 H 0.1327 1.3706 0.3713
C8 C 0.2241(3) 1.2794(5) 0.3563(3)
H4 H 0.2046 1.2952 0.3006
C9 C 0.9583(5) 0.8890(8) 0.4120(5)
H5 H 0.9723 0.8178 0.3903
H6 H 0.9750 0.8786 0.4695
H7 H 0.9878 0.9566 0.4036
C10 C 0.8270(5) 0.9932(7) 0.4152(5)
H8 H 0.7668 1.0002 0.3822
H9 H 0.8526 1.0714 0.4236
H10 H 0.8373 0.9584 0.4671
C11 C 0.8099(6) 0.8883(8) 0.3116(5)
C12 C 0.8561(5) 0.8025(8) 0.2597(5)
H11 H 0.8417 0.8373 0.2069
H12 H 0.8349 0.7216 0.2532
H13 H 0.9168 0.8020 0.2908
C13 C 0.5288(3) 0.9662(4) 0.2687(3)
C14 C 0.4735(2) 0.9652(4) 0.3141(2)
C15 C 0.4553(3) 0.8596(4) 0.3429(3)
H14 H 0.4817 0.7882 0.3400
C16 C 0.4357(3) 1.0717(4) 0.3204(3)
H15 H 0.4486 1.1433 0.3017
C17 C 0.3784(3) 1.0709(4) 0.3547(3)
C18 C 0.3582(3) 0.9654(4) 0.3828(3)
H16 H 0.3194 0.9651 0.4054
C19 C 0.3972(3) 0.8608(4) 0.3765(3)
C20 C 0.3200(3) 0.7401(4) 0.4309(3)
C21 C 0.2445(4) 0.6832(5) 0.3848(3)
H17 H 0.2323 0.6565 0.3322
C22 C 0.3393(3) 0.7822(5) 0.5087(3)
H18 H 0.3903 0.8219 0.5389
C23 C 0.2959(3) 1.2106(4) 0.3968(3)
C24 C 0.3259(3) 1.1864(4) 0.4795(3)
H19 H 0.3743 1.1395 0.5064
C25 C 0.2824(3) 1.2337(4) 0.5217(3)
H20 H 0.3021 1.2184 0.5774
Co1 Co 0.62576(3) 0.82493(5) 0.19296(3)
Co2 Co 0.5000 1.0000 0.0000
N1 N 0.8668(6) 0.9100(9) 0.3701(6)
O4 O 0.3803(3) 0.7491(3) 0.3995(3)
O5 O 0.3379(3) 1.1796(3) 0.3495(3)
O6 O 0.5316(3) 1.0614(3) 0.2347(2)
O7 O 0.5643(2) 0.8690(3) 0.2663(2)
O8 O 0.6642(2) 0.6591(3) 0.2543(2)
H21 H 0.7068 0.6692 0.2974
O9 O 0.7360(2) 0.9056(4) 0.2728(2)
O10 O 0.58271(16) 0.9973(2) 0.12931(16)
O11 O 0.5161(2) 0.7217(3) 0.1218(2)
H22 H 0.4777 0.7666 0.0922
O12 O 0.20050(19) 1.3787(3) 0.60062(18)
H23 H 0.495(4) 0.683(5) 0.151(4)
H24 H 0.629(5) 0.623(8) 0.252(5)
O1B O 0.92702(18) 1.3650(3) -0.48712(17)
O2B O 0.8307(2) 1.2919(3) -0.60660(19)
C1B C 0.8565(3) 1.3195(4) -0.5325(3)
C2B C 0.7954(3) 1.2946(4) -0.4955(3)
C3B C 0.7192(3) 1.2359(4) -0.5408(3)
H1B H 0.7071 1.2083 -0.5932
C4B C 0.8134(3) 1.3343(4) -0.4175(3)
H2B H 0.8646 1.3731 -0.3866
O3B O 0.91508(16) 0.6194(3) -0.48279(17)
C5B C 0.8371(2) 0.6427(4) -0.5265(2)
C6B C 0.7899(3) 0.6969(4) -0.4819(3)
C7B C 0.8185(3) 0.6752(4) -0.3987(3)
H3B H 0.8673 0.6294 -0.3713
C8B C 0.7759(3) 0.7206(5) -0.3563(3)
H4B H 0.7954 0.7048 -0.3006
C9B C 0.0417(5) 1.1110(8) -0.4120(5)
H5B H 0.0277 1.1822 -0.3903
H6B H 0.0250 1.1214 -0.4695
H7B H 0.0122 1.0434 -0.4036
C10B C 0.1730(5) 1.0068(7) -0.4152(5)
H8B H 0.2332 0.9998 -0.3822
H9B H 0.1474 0.9286 -0.4236
H10B H 0.1627 1.0416 -0.4671
C11B C 0.1901(6) 1.1117(8) -0.3116(5)
C12B C 0.1439(5) 1.1975(8) -0.2597(5)
H11B H 0.1583 1.1627 -0.2069
H12B H 0.1651 1.2784 -0.2532
H13B H 0.0832 1.1980 -0.2908
C13B C 0.4712(3) 1.0338(4) -0.2687(3)
C14B C 0.5265(2) 1.0348(4) -0.3141(2)
C15B C 0.5447(3) 1.1404(4) -0.3429(3)
H14B H 0.5183 1.2118 -0.3400
C16B C 0.5643(3) 0.9283(4) -0.3204(3)
H15B H 0.5514 0.8567 -0.3017
C17B C 0.6216(3) 0.9291(4) -0.3547(3)
C18B C 0.6418(3) 1.0346(4) -0.3828(3)
H16B H 0.6806 1.0349 -0.4054
C19B C 0.6028(3) 1.1392(4) -0.3765(3)
C20B C 0.6800(3) 1.2599(4) -0.4309(3)
C21B C 0.7555(4) 1.3168(5) -0.3848(3)
H17B H 0.7677 1.3435 -0.3322
C22B C 0.6607(3) 1.2178(5) -0.5087(3)
H18B H 0.6097 1.1781 -0.5389
C23B C 0.7041(3) 0.7894(4) -0.3968(3)
C24B C 0.6741(3) 0.8136(4) -0.4795(3)
H19B H 0.6257 0.8605 -0.5064
C25B C 0.7176(3) 0.7663(4) -0.5217(3)
H20B H 0.6979 0.7816 -0.5774
Co1B Co 0.37424(3) 1.17507(5) -0.19296(3)
N1B N 0.1332(6) 1.0900(9) -0.3701(6)
O4B O 0.6197(3) 1.2509(3) -0.3995(3)
O5B O 0.6621(3) 0.8204(3) -0.3495(3)
O6B O 0.4684(3) 0.9386(3) -0.2347(2)
O7B O 0.4357(2) 1.1310(3) -0.2663(2)
O8B O 0.3358(2) 1.3409(3) -0.2543(2)
H21B H 0.2932 1.3308 -0.2974
O9B O 0.2640(2) 1.0944(4) -0.2728(2)
O10B O 0.41729(16) 1.0027(2) -0.12931(16)
O11B O 0.4839(2) 1.2783(3) -0.1218(2)
H22B H 0.5223 1.2334 -0.0922
O12B O 0.79950(19) 0.6213(3) -0.60062(18)
H23B H 0.505(4) 1.317(5) -0.151(4)
H24B H 0.371(5) 1.377(8) -0.252(5)
O1A O 0.42702(18) 1.1350(3) 0.01288(17)
O1C O 0.57298(18) 0.8650(3) -0.01288(17)
O2A O 0.3307(2) 1.2081(3) -0.10660(19)
O2C O 0.6693(2) 0.7919(3) 0.10660(19)
O3A O 0.41508(16) 0.8806(3) 0.01721(17)
O3C O 0.58492(16) 1.1194(3) -0.01721(17)
Co1A Co 0.87424(3) 1.32493(5) -0.69296(3)
Co1C Co 0.12576(3) 0.67507(5) 0.69296(3)
Co2A Co 0.0000 0.5000 0.5000
Co2A_2 Co 0.0000 1.5000 0.5000
Co2A_3 Co 1.0000 0.5000 -0.5000
Co2A_4 Co 1.0000 1.5000 -0.5000
C26 C 0.5812(6) 0.5298(9) 0.4003(5)
H25 H 0.6052 0.5728 0.3693
H26 H 0.6153 0.4602 0.4248
H27 H 0.5800 0.5811 0.4424
C27 C 0.4432(8) 0.4381(10) 0.3841(8)
H28 H 0.3868 0.4205 0.3434
H29 H 0.4402 0.4936 0.4233
H30 H 0.4701 0.3651 0.4114
C28 C 0.3754(6) 0.4746(11) 0.2121(8)
H31 H 0.3663 0.3937 0.2251
H32 H 0.3679 0.4781 0.1564
H33 H 0.3353 0.5273 0.2189
C29 C 0.4653(6) 0.5136(6) 0.2690(6)
N2 N 0.4927(6) 0.4913(6) 0.3448(5)
O13 O 0.5107(3) 0.5630(5) 0.2399(3)
loop_
_geom_bond_atom_site_label_1
_geom_bond_atom_site_label_2
_geom_bond_site_symmetry_1
_geom_bond_site_symmetry_2
O1 C1 1_555 1_555
O2 C1 1_555 1_555
C1 C2 1_555 1_555
C2 C3 1_555 1_555
C3 H1 1_555 1_555
C4 C2 1_555 1_555
H2 C4 1_555 1_555
O3 C5 1_555 1_555
C5 C6 1_555 1_555
C6 C7 1_555 1_555
C7 H3 1_555 1_555
C8 C7 1_555 1_555
H4 C8 1_555 1_555
C9 H5 1_555 1_555
H6 C9 1_555 1_555
H7 C9 1_555 1_555
C10 H8 1_555 1_555
H9 C10 1_555 1_555
H10 C10 1_555 1_555
C11 C12 1_555 1_555
C12 H11 1_555 1_555
H12 C12 1_555 1_555
H13 C12 1_555 1_555
C13 C14 1_555 1_555
C14 C15 1_555 1_555
C15 H14 1_555 1_555
C16 C14 1_555 1_555
H15 C16 1_555 1_555
C17 C16 1_555 1_555
C18 C17 1_555 1_555
H16 C18 1_555 1_555
C19 C15 1_555 1_555
C20 C21 1_555 1_555
C21 C4 1_555 1_555
H17 C21 1_555 1_555
C22 C3 1_555 1_555
H18 C22 1_555 1_555
C23 C8 1_555 1_555
C24 C23 1_555 1_555
H19 C24 1_555 1_555
C25 C6 1_555 1_555
H20 C25 1_555 1_555
Co1 O7 1_555 1_555
Co2 O10 1_555 1_555
N1 C9 1_555 1_555
O4 C19 1_555 1_555
O5 C17 1_555 1_555
O6 C13 1_555 1_555
O7 C13 1_555 1_555
O8 Co1 1_555 1_555
H21 O8 1_555 1_555
O9 C11 1_555 1_555
O10 Co1 1_555 1_555
O11 Co1 1_555 1_555
H22 O11 1_555 1_555
O12 C5 1_555 1_555
H23 O11 1_555 1_555
H24 O8 1_555 1_555
C26 H25 1_555 1_555
H26 C26 1_555 1_555
H27 C26 1_555 1_555
C27 H28 1_555 1_555
H29 C27 1_555 1_555
H30 C27 1_555 1_555
C28 H31 1_555 1_555
H32 C28 1_555 1_555
H33 C28 1_555 1_555
C29 C28 1_555 1_555
N2 C26 1_555 1_555
O13 C29 1_555 1_555
O1B C1B 1_555 1_555
O2B C1B 1_555 1_555
C1B C2B 1_555 1_555
C2B C3B 1_555 1_555
C3B H1B 1_555 1_555
C4B C2B 1_555 1_555
H2B C4B 1_555 1_555
O3B C5B 1_555 1_555
C5B C6B 1_555 1_555
C6B C7B 1_555 1_555
C7B H3B 1_555 1_555
C8B C7B 1_555 1_555
H4B C8B 1_555 1_555
C9B H5B 1_555 1_555
H6B C9B 1_555 1_555
H7B C9B 1_555 1_555
C10B H8B 1_555 1_555
H9B C10B 1_555 1_555
H10B C10B 1_555 1_555
C11B C12B 1_555 1_555
C12B H11B 1_555 1_555
H12B C12B 1_555 1_555
H13B C12B 1_555 1_555
C13B C14B 1_555 1_555
C14B C15B 1_555 1_555
C15B H14B 1_555 1_555
C16B C14B 1_555 1_555
H15B C16B 1_555 1_555
C17B C16B 1_555 1_555
C18B C17B 1_555 1_555
H16B C18B 1_555 1_555
C19B C15B 1_555 1_555
C20B C21B 1_555 1_555
C21B C4B 1_555 1_555
H17B C21B 1_555 1_555
C22B C3B 1_555 1_555
H18B C22B 1_555 1_555
C23B C8B 1_555 1_555
C24B C23B 1_555 1_555
H19B C24B 1_555 1_555
C25B C6B 1_555 1_555
H20B C25B 1_555 1_555
Co1B O7B 1_555 1_555
N1B C9B 1_555 1_555
O4B C19B 1_555 1_555
O5B C17B 1_555 1_555
O6B C13B 1_555 1_555
O7B C13B 1_555 1_555
O8B Co1B 1_555 1_555
H21B O8B 1_555 1_555
O9B C11B 1_555 1_555
O10B Co2 1_555 1_555
O11B Co1B 1_555 1_555
H22B O11B 1_555 1_555
O12B C5B 1_555 1_555
H23B O11B 1_555 1_555
H24B O8B 1_555 1_555
O1A Co2 1_555 1_555
O1C Co2 1_555 1_555
O2A Co1B 1_555 1_555
O2C Co1 1_555 1_555
O3A Co2 1_555 1_555
O3C Co2 1_555 1_555
Co1A O2B 1_555 1_555
Co1C O2 1_555 1_555
Co2A O1 1_555 1_555
Co2A_2 O3 1_555 1_555
Co2A_3 O3B 1_555 1_555
Co2A_4 O1B 1_555 1_555
C10 N1 1_555 1_555
C11 N1 1_555 1_555
C18 C19 1_555 1_555
C20 C22 1_555 1_555
C20 O4 1_555 1_555
C23 O5 1_555 1_555
C24 C25 1_555 1_555
Co1 O9 1_555 1_555
C27 N2 1_555 1_555
C29 N2 1_555 1_555
C10B N1B 1_555 1_555
C11B N1B 1_555 1_555
C18B C19B 1_555 1_555
C20B C22B 1_555 1_555
C20B O4B 1_555 1_555
C23B O5B 1_555 1_555
C24B C25B 1_555 1_555
Co1B O9B 1_555 1_555
Co1B O10B 1_555 1_555

#END
