
#######################################################################
#
#                 Cambridge Crystallographic Data Centre
#                                CCDC 
#
#######################################################################
#
# If this CIF has been generated from an entry in the Cambridge 
# Structural Database, then it will include bibliographic, chemical, 
# crystal, experimental, refinement or atomic coordinate data resulting 
# from the CCDC's data processing and validation procedures.
#
#######################################################################

data_WIPXUQ
_symmetry_cell_setting           monoclinic
_symmetry_space_group_name_H-M   'P 21/n'
_symmetry_Int_Tables_number      14
_space_group_name_Hall           '-P 2yn'
loop_
_symmetry_equiv_pos_site_id
_symmetry_equiv_pos_as_xyz
1 x,y,z
2 1/2-x,1/2+y,1/2-z
3 -x,-y,-z
4 1/2+x,1/2-y,1/2+z
_cell_length_a                   8.7097(11)
_cell_length_b                   34.276(4)
_cell_length_c                   13.7281(17)
_cell_angle_alpha                90
_cell_angle_beta                 95.397(2)
_cell_angle_gamma                90
_cell_volume                     4080.13
loop_
_atom_site_label
_atom_site_type_symbol
_atom_site_fract_x
_atom_site_fract_y
_atom_site_fract_z
La1 La 0.54303(4) 0.632096(11) 0.29160(3)
Br1 Br 0.25143(12) 0.63041(2) -0.04393(6)
Br2 Br 0.22459(8) 0.50490(2) 0.64599(6)
Br3 Br 0.17008(8) 0.53775(2) 0.41534(6)
Br4 Br 0.06289(13) 0.72444(2) 0.25529(6)
Br5 Br 0.26443(13) 0.70822(3) -0.18762(6)
Br6 Br 0.11130(17) 0.80341(3) 0.12392(7)
O1 O 0.3972(8) 0.50744(17) 0.2357(4)
O2 O 0.0467(6) 0.62937(15) 0.1633(4)
C1 C 0.6935(9) 0.6352(2) 0.0556(5)
N1 N 0.3679(6) 0.63157(17) 0.4449(4)
C2 C 0.5762(7) 0.60201(18) 0.5451(5)
C3 C 0.4207(7) 0.61702(18) 0.5335(5)
N2 N 0.6635(6) 0.60388(16) 0.4695(4)
C4 C 0.1836(9) 0.6338(2) 0.6000(6)
H1 H 0.1216 0.6346 0.6516
O3 O 0.4903(6) 0.56476(14) 0.2882(4)
O4 O 0.2906(6) 0.64240(15) 0.2136(4)
C5 C 0.6313(8) 0.58584(19) 0.6373(5)
C6 C 0.2077(8) 0.68079(19) 0.0013(5)
C7 C 0.7731(10) 0.6252(3) -0.0253(6)
C8 C 0.3600(7) 0.51626(17) 0.4656(5)
C9 C 0.4778(8) 0.51414(18) 0.4044(5)
N3 N 0.6543(8) 0.60854(18) 0.1215(4)
C10 C 0.5371(10) 0.5859(2) 0.7162(5)
H2 H 0.5748 0.5753 0.7760
C11 C 0.1655(8) 0.64850(19) 0.1623(5)
C12 C 0.1314(8) 0.7207(2) 0.1286(5)
C13 C 0.2144(9) 0.7134(2) -0.0576(5)
C14 C 0.1665(7) 0.68414(18) 0.0958(5)
C15 C 0.1840(8) 0.75048(19) -0.0224(5)
C16 C 0.6945(12) 0.5712(2) 0.1074(7)
H3 H 0.6685 0.5526 0.1524
C17 C 0.1437(9) 0.7535(2) 0.0719(5)
C18 C 0.3321(9) 0.6172(2) 0.6143(5)
O5 O 0.0894(6) 0.80390(14) -0.1224(4)
O6 O 0.8298(6) 0.63939(15) 0.2982(4)
H4 H 0.8618 0.6616 0.3279
H5 H 0.8617 0.6398 0.2381
N4 N 0.5808(7) 0.68435(17) 0.1496(4)
C19 C 0.3810(7) 0.50207(18) 0.5613(5)
C20 C 0.8039(8) 0.5889(2) 0.4811(6)
H6 H 0.8642 0.5900 0.4288
O7 O 0.3427(7) 0.79785(16) -0.0862(4)
C21 C 0.4521(8) 0.5295(2) 0.3001(5)
C22 C 0.7807(9) 0.5704(2) 0.6470(6)
H7 H 0.8213 0.5596 0.7060
C23 C 0.2080(9) 0.7870(2) -0.0828(5)
C24 C 0.2263(8) 0.6466(2) 0.4359(6)
H8 H 0.1882 0.6565 0.3753
C25 C 0.6550(8) 0.6750(2) 0.0700(5)
C26 C 0.3932(10) 0.6012(2) 0.7057(5)
H9 H 0.3338 0.6013 0.7586
C27 C 0.5401(10) 0.7216(2) 0.1591(6)
H10 H 0.4889 0.7282 0.2133
C28 C 0.1316(9) 0.6483(2) 0.5130(6)
H11 H 0.0340 0.6595 0.5036
C29 C 0.8665(9) 0.5714(2) 0.5682(6)
H12 H 0.9649 0.5606 0.5725
C30 C 0.6922(11) 0.7039(3) 0.0015(6)
C31 C 0.5680(12) 0.7511(3) 0.0953(7)
H13 H 0.5340 0.7763 0.1054
C32 C 0.6460(13) 0.7424(3) 0.0174(7)
H14 H 0.6691 0.7621 -0.0257
C33 C 0.8124(12) 0.5852(3) -0.0375(7)
H15 H 0.8643 0.5774 -0.0904
C34 C 0.8146(12) 0.6554(4) -0.0910(7)
H16 H 0.8712 0.6491 -0.1429
C35 C 0.7728(13) 0.5589(3) 0.0292(8)
H17 H 0.7978 0.5327 0.0227
C36 C 0.7731(13) 0.6919(4) -0.0782(8)
H18 H 0.7980 0.7105 -0.1233
Br2B Br 0.77541(8) 0.49510(2) 0.35401(6)
Br3B Br 0.82992(8) 0.46225(2) 0.58466(6)
O1B O 0.6028(8) 0.49256(17) 0.7643(4)
O3B O 0.5097(6) 0.43524(14) 0.7118(4)
C8B C 0.6400(7) 0.48374(17) 0.5344(5)
C9B C 0.5222(8) 0.48586(18) 0.5956(5)
C19B C 0.6190(7) 0.49793(18) 0.4387(5)
C21B C 0.5479(8) 0.4705(2) 0.6999(5)
La1B La 0.45697(4) 0.367904(11) 0.70840(3)
Br1B Br 0.74857(12) 0.36959(2) 1.04393(6)
Br4B Br 0.93711(13) 0.27556(2) 0.74471(6)
Br5B Br 0.73557(13) 0.29178(3) 1.18762(6)
Br6B Br 0.88870(17) 0.19659(3) 0.87608(7)
O2B O 0.9533(6) 0.37063(15) 0.8367(4)
C1B C 0.3065(9) 0.3648(2) 0.9444(5)
N1B N 0.6321(6) 0.36843(17) 0.5551(4)
C2B C 0.4238(7) 0.39799(18) 0.4549(5)
C3B C 0.5793(7) 0.38298(18) 0.4665(5)
N2B N 0.3365(6) 0.39612(16) 0.5305(4)
C4B C 0.8164(9) 0.3662(2) 0.4000(6)
H1B H 0.8784 0.3654 0.3484
O4B O 0.7094(6) 0.35760(15) 0.7864(4)
C5B C 0.3687(8) 0.41416(19) 0.3627(5)
C6B C 0.7923(8) 0.31921(19) 0.9987(5)
C7B C 0.2269(10) 0.3748(3) 1.0253(6)
N3B N 0.3457(8) 0.39146(18) 0.8785(4)
C10B C 0.4629(10) 0.4141(2) 0.2838(5)
H2B H 0.4252 0.4247 0.2240
C11B C 0.8345(8) 0.35150(19) 0.8377(5)
C12B C 0.8686(8) 0.2793(2) 0.8714(5)
C13B C 0.7856(9) 0.2866(2) 1.0576(5)
C14B C 0.8335(7) 0.31586(18) 0.9042(5)
C15B C 0.8160(8) 0.24952(19) 1.0224(5)
C16B C 0.3055(12) 0.4288(2) 0.8926(7)
H3B H 0.3315 0.4474 0.8476
C17B C 0.8563(9) 0.2465(2) 0.9281(5)
C18B C 0.6679(9) 0.3828(2) 0.3857(5)
O5B O 0.9106(6) 0.19610(14) 1.1224(4)
O6B O 0.1702(6) 0.36061(15) 0.7018(4)
H4B H 0.1382 0.3384 0.6721
H5B H 0.1383 0.3602 0.7619
N4B N 0.4192(7) 0.31565(17) 0.8504(4)
C20B C 0.1961(8) 0.4111(2) 0.5189(6)
H6B H 0.1358 0.4100 0.5712
O7B O 0.6573(7) 0.20215(16) 1.0862(4)
C22B C 0.2193(9) 0.4296(2) 0.3530(6)
H7B H 0.1787 0.4404 0.2940
C23B C 0.7920(9) 0.2130(2) 1.0828(5)
C24B C 0.7737(8) 0.3534(2) 0.5641(6)
H8B H 0.8118 0.3435 0.6247
C25B C 0.3450(8) 0.3250(2) 0.9300(5)
C26B C 0.6068(10) 0.3988(2) 0.2943(5)
H9B H 0.6662 0.3987 0.2414
C27B C 0.4599(10) 0.2784(2) 0.8409(6)
H10B H 0.5111 0.2718 0.7867
C28B C 0.8684(9) 0.3517(2) 0.4870(6)
H11B H 0.9660 0.3405 0.4964
C29B C 0.1335(9) 0.4286(2) 0.4318(6)
H12B H 0.0351 0.4394 0.4275
C30B C 0.3078(11) 0.2961(3) 0.9985(6)
C31B C 0.4320(12) 0.2489(3) 0.9047(7)
H13B H 0.4660 0.2237 0.8946
C32B C 0.3540(13) 0.2576(3) 0.9826(7)
H14B H 0.3309 0.2379 1.0257
C33B C 0.1876(12) 0.4148(3) 1.0375(7)
H15B H 0.1357 0.4226 1.0904
C34B C 0.1854(12) 0.3446(4) 1.0910(7)
H16B H 0.1288 0.3509 1.1429
C35B C 0.2272(13) 0.4411(3) 0.9708(8)
H17B H 0.2022 0.4673 0.9773
C36B C 0.2269(13) 0.3081(4) 1.0782(8)
H18B H 0.2020 0.2895 1.1233
La1A La 0.95697(4) 0.132096(11) 1.20840(3)
La1C La 0.04303(4) 0.867904(11) -0.20840(3)
O5A O 0.4106(6) 0.30390(14) 0.6224(4)
O5C O 0.5894(6) 0.69610(14) 0.3776(4)
O8 O 0.0170(13) 0.5226(3) 0.8179(7)
H19 H 0.0531 0.5222 0.7626
H20 H -0.0367 0.5023 0.8247
O9 O 0.1538(13) 0.5453(3) 0.1231(6)
H21 H 0.1032 0.5624 0.0890
H22 H 0.2208 0.5351 0.0896
loop_
_geom_bond_atom_site_label_1
_geom_bond_atom_site_label_2
_geom_bond_site_symmetry_1
_geom_bond_site_symmetry_2
La1 N1 1_555 1_555
Br1 C6 1_555 1_555
Br2 C19 1_555 1_555
Br3 C8 1_555 1_555
Br4 C12 1_555 1_555
Br5 C13 1_555 1_555
Br6 C17 1_555 1_555
O1 C21 1_555 1_555
O2 C11 1_555 1_555
C1 C7 1_555 1_555
N1 C3 1_555 1_555
C2 C3 1_555 1_555
C3 C18 1_555 1_555
N2 La1 1_555 1_555
C4 H1 1_555 1_555
O3 La1 1_555 1_555
O4 La1 1_555 1_555
C5 C2 1_555 1_555
C6 C13 1_555 1_555
C7 C33 1_555 1_555
C8 C9 1_555 1_555
C9 C21 1_555 1_555
N3 La1 1_555 1_555
C10 C5 1_555 1_555
H2 C10 1_555 1_555
C11 O4 1_555 1_555
C12 C14 1_555 1_555
C13 C15 1_555 1_555
C14 C6 1_555 1_555
C15 C17 1_555 1_555
C16 N3 1_555 1_555
H3 C16 1_555 1_555
C17 C12 1_555 1_555
C18 C4 1_555 1_555
O5 C23 1_555 1_555
O6 La1 1_555 1_555
H4 O6 1_555 1_555
H5 O6 1_555 1_555
N4 La1 1_555 1_555
C19 C8 1_555 1_555
C20 N2 1_555 1_555
H6 C20 1_555 1_555
O7 C23 1_555 1_555
C21 O3 1_555 1_555
C22 C5 1_555 1_555
H7 C22 1_555 1_555
C23 C15 1_555 1_555
C24 N1 1_555 1_555
H8 C24 1_555 1_555
C25 C1 1_555 1_555
C26 C10 1_555 1_555
H9 C26 1_555 1_555
C27 N4 1_555 1_555
H10 C27 1_555 1_555
C28 C4 1_555 1_555
H11 C28 1_555 1_555
C29 C20 1_555 1_555
H12 C29 1_555 1_555
C30 C25 1_555 1_555
C31 C27 1_555 1_555
H13 C31 1_555 1_555
C32 C30 1_555 1_555
H14 C32 1_555 1_555
C33 H15 1_555 1_555
C34 C7 1_555 1_555
H16 C34 1_555 1_555
C35 C16 1_555 1_555
H17 C35 1_555 1_555
C36 C30 1_555 1_555
H18 C36 1_555 1_555
O8 H19 1_555 1_555
H20 O8 1_555 1_555
O9 H21 1_555 1_555
H22 O9 1_555 1_555
Br2B C19B 1_555 1_555
Br3B C8B 1_555 1_555
O1B C21B 1_555 1_555
O3B C21B 1_555 1_555
C8B C9B 1_555 1_555
C9B C19 1_555 1_555
C19B C9 1_555 1_555
C21B C9B 1_555 1_555
La1B O3B 1_555 1_555
Br1B C6B 1_555 1_555
Br4B C12B 1_555 1_555
Br5B C13B 1_555 1_555
Br6B C17B 1_555 1_555
O2B C11B 1_555 1_555
C1B C7B 1_555 1_555
N1B La1B 1_555 1_555
C2B C3B 1_555 1_555
C3B N1B 1_555 1_555
N2B La1B 1_555 1_555
C4B H1B 1_555 1_555
O4B La1B 1_555 1_555
C5B C2B 1_555 1_555
C6B C13B 1_555 1_555
C7B C33B 1_555 1_555
N3B La1B 1_555 1_555
C10B C5B 1_555 1_555
H2B C10B 1_555 1_555
C11B O4B 1_555 1_555
C12B C14B 1_555 1_555
C13B C15B 1_555 1_555
C14B C6B 1_555 1_555
C15B C17B 1_555 1_555
C16B N3B 1_555 1_555
H3B C16B 1_555 1_555
C17B C12B 1_555 1_555
C18B C3B 1_555 1_555
O5B C23B 1_555 1_555
O6B La1B 1_555 1_555
H4B O6B 1_555 1_555
H5B O6B 1_555 1_555
N4B La1B 1_555 1_555
C20B N2B 1_555 1_555
H6B C20B 1_555 1_555
O7B C23B 1_555 1_555
C22B C5B 1_555 1_555
H7B C22B 1_555 1_555
C23B C15B 1_555 1_555
C24B N1B 1_555 1_555
H8B C24B 1_555 1_555
C25B C1B 1_555 1_555
C26B C10B 1_555 1_555
H9B C26B 1_555 1_555
C27B N4B 1_555 1_555
H10B C27B 1_555 1_555
C28B C4B 1_555 1_555
H11B C28B 1_555 1_555
C29B C20B 1_555 1_555
H12B C29B 1_555 1_555
C30B C25B 1_555 1_555
C31B C27B 1_555 1_555
H13B C31B 1_555 1_555
C32B C30B 1_555 1_555
H14B C32B 1_555 1_555
C33B H15B 1_555 1_555
C34B C7B 1_555 1_555
H16B C34B 1_555 1_555
C35B C16B 1_555 1_555
H17B C35B 1_555 1_555
C36B C30B 1_555 1_555
H18B C36B 1_555 1_555
La1A O5B 1_555 1_555
La1C O5 1_555 1_555
O5A La1B 1_555 1_555
O5C La1 1_555 1_555
C1 N3 1_555 1_555
C2 N2 1_555 1_555
C11 C14 1_555 1_555
C18 C26 1_555 1_555
N4 C25 1_555 1_555
C22 C29 1_555 1_555
C24 C28 1_555 1_555
C31 C32 1_555 1_555
C33 C35 1_555 1_555
C34 C36 1_555 1_555
C8B C19B 1_555 1_555
C1B N3B 1_555 1_555
C2B N2B 1_555 1_555
C4B C18B 1_555 1_555
C11B C14B 1_555 1_555
C18B C26B 1_555 1_555
N4B C25B 1_555 1_555
C22B C29B 1_555 1_555
C24B C28B 1_555 1_555
C31B C32B 1_555 1_555
C33B C35B 1_555 1_555
C34B C36B 1_555 1_555

#END
