
#######################################################################
#
#                 Cambridge Crystallographic Data Centre
#                                CCDC 
#
#######################################################################
#
# If this CIF has been generated from an entry in the Cambridge 
# Structural Database, then it will include bibliographic, chemical, 
# crystal, experimental, refinement or atomic coordinate data resulting 
# from the CCDC's data processing and validation procedures.
#
#######################################################################

data_WIPXAW
_symmetry_cell_setting           triclinic
_symmetry_space_group_name_H-M   'P -1'
_symmetry_Int_Tables_number      2
_space_group_name_Hall           '-P 1'
loop_
_symmetry_equiv_pos_site_id
_symmetry_equiv_pos_as_xyz
1 x,y,z
2 -x,-y,-z
_cell_length_a                   9.985(5)
_cell_length_b                   10.768(5)
_cell_length_c                   12.512(5)
_cell_angle_alpha                68.959(5)
_cell_angle_beta                 80.354(5)
_cell_angle_gamma                79.663(5)
_cell_volume                     1227.38
loop_
_atom_site_label
_atom_site_type_symbol
_atom_site_fract_x
_atom_site_fract_y
_atom_site_fract_z
C1 C 0.7862(3) -0.1486(3) 0.4336(2)
H1 H 0.8060 -0.1512 0.5045
C2 C 0.7089(3) -0.2436(3) 0.4322(2)
H2 H 0.6782 -0.3078 0.5004
C3 C 0.6790(3) -0.2408(3) 0.3284(2)
H3 H 0.6280 -0.3034 0.3252
C4 C 0.7262(2) -0.1423(2) 0.2269(2)
C5 C 0.8049(2) -0.0512(2) 0.23586(19)
C6 C 0.8547(2) 0.0542(2) 0.13338(19)
C7 C 0.9742(3) 0.2372(3) 0.0565(2)
H4 H 1.0247 0.2956 0.0673
C8 C 0.9501(3) 0.2565(3) -0.0553(2)
H5 H 0.9840 0.3261 -0.1174
C9 C 0.8755(3) 0.1711(2) -0.0725(2)
H6 H 0.8583 0.1822 -0.1464
C10 C 0.8254(2) 0.0668(2) 0.0231(2)
C11 C 0.7451(2) -0.0276(2) 0.0187(2)
C12 C 0.6968(2) -0.1269(2) 0.1138(2)
C13 C 0.6216(3) -0.1449(3) -0.0289(2)
C14 C 0.5477(3) -0.1852(3) -0.1008(2)
C15 C 0.4719(3) -0.2920(3) -0.0497(2)
H7 H 0.4708 -0.3386 0.0290
C16 C 0.5492(3) -0.1168(3) -0.2182(2)
H8 H 0.5999 -0.0452 -0.2532
C17 C 0.3977(3) -0.3302(3) -0.1148(3)
H9 H 0.3467 -0.4016 -0.0810
C18 C 0.4022(3) -0.2594(3) -0.2295(3)
C19 C 0.4761(3) -0.1540(3) -0.2835(3)
H10 H 0.4770 -0.1086 -0.3624
C20 C 1.0755(3) 0.3289(2) 0.2985(2)
C21 C 1.1415(2) 0.4413(2) 0.30237(19)
C22 C 1.2777(3) 0.4541(2) 0.2581(2)
H11 H 1.3238 0.4012 0.2153
C23 C 1.0731(3) 0.5249(2) 0.3613(2)
H12 H 0.9807 0.5205 0.3876
C24 C 1.1392(3) 0.6148(2) 0.3821(2)
H13 H 1.0919 0.6698 0.4225
C25 C 1.2766(2) 0.6220(2) 0.3421(2)
C26 C 1.3453(3) 0.5445(2) 0.2768(2)
H14 H 1.4360 0.5533 0.2460
C27 C 1.2957(3) 0.7680(3) 0.4430(2)
H15 H 1.3684 0.7968 0.4675
H16 H 1.2528 0.7034 0.5103
C28 C 1.1908(2) 0.8877(2) 0.3973(2)
N1 N 0.8329(2) -0.0549(2) 0.33941(16)
N2 N 0.9288(2) 0.14012(19) 0.14768(16)
N3 N 0.6968(2) -0.0395(2) -0.07254(17)
H17 H 0.7109 0.0098 -0.1437
N4 N 0.6197(2) -0.2012(2) 0.08437(17)
O1 O 1.1468(2) 0.2427(2) 0.2605(2)
O2 O 0.9542(2) 0.3168(2) 0.33974(19)
O3 O 1.35418(17) 0.70365(18) 0.36139(16)
O4 O 1.1274(2) 0.94349(18) 0.46711(15)
O5 O 1.16889(19) 0.92803(17) 0.29486(14)
F1 F 0.3295(2) -0.2946(2) -0.29467(18)
Cd1 Cd 0.974120(19) 0.099182(17) 0.335097(14)
O4_2 O 1.1274(2) -0.05651(18) 0.46711(15)
O4A O 0.8726(2) 0.05651(18) 0.53289(15)
O5_2 O 1.16889(19) -0.07197(17) 0.29486(14)
Cd1_2 Cd 0.974120(19) 1.099182(17) 0.335097(14)
Cd1A Cd 1.025880(19) 0.900818(17) 0.664903(14)
O6 O 0.1806(6) -0.5322(5) -0.1280(5)
H18 H 0.252(5) -0.589(6) -0.126(6)
H19 H 0.178(8) -0.489(7) -0.1999(18)
loop_
_geom_bond_atom_site_label_1
_geom_bond_atom_site_label_2
_geom_bond_site_symmetry_1
_geom_bond_site_symmetry_2
C1 H1 1_555 1_555
C2 C1 1_555 1_555
H2 C2 1_555 1_555
C3 C2 1_555 1_555
H3 C3 1_555 1_555
C4 C3 1_555 1_555
C5 C4 1_555 1_555
C6 C5 1_555 1_555
C7 H4 1_555 1_555
C8 C7 1_555 1_555
H5 C8 1_555 1_555
C9 C8 1_555 1_555
H6 C9 1_555 1_555
C10 C6 1_555 1_555
C11 C10 1_555 1_555
C12 C4 1_555 1_555
C13 C14 1_555 1_555
C14 C15 1_555 1_555
C15 H7 1_555 1_555
C16 C14 1_555 1_555
H8 C16 1_555 1_555
C17 C15 1_555 1_555
H9 C17 1_555 1_555
C18 C17 1_555 1_555
C19 C16 1_555 1_555
H10 C19 1_555 1_555
C20 C21 1_555 1_555
C21 C22 1_555 1_555
C22 H11 1_555 1_555
C23 C21 1_555 1_555
H12 C23 1_555 1_555
C24 C23 1_555 1_555
H13 C24 1_555 1_555
C25 C24 1_555 1_555
C26 C22 1_555 1_555
H14 C26 1_555 1_555
C27 H15 1_555 1_555
H16 C27 1_555 1_555
C28 C27 1_555 1_555
N1 C1 1_555 1_555
N2 C6 1_555 1_555
N3 C11 1_555 1_555
H17 N3 1_555 1_555
N4 C12 1_555 1_555
O1 C20 1_555 1_555
O2 C20 1_555 1_555
O3 C25 1_555 1_555
O4 C28 1_555 1_555
O5 C28 1_555 1_555
F1 C18 1_555 1_555
Cd1 N1 1_555 1_555
O6 H18 1_555 1_555
H19 O6 1_555 1_555
O4_2 Cd1 1_555 1_555
O4A Cd1 1_555 1_555
O5_2 Cd1 1_555 1_555
Cd1_2 O4 1_555 1_555
Cd1A O4 1_555 1_555
C5 N1 1_555 1_555
C7 N2 1_555 1_555
C9 C10 1_555 1_555
C11 C12 1_555 1_555
C13 N3 1_555 1_555
C13 N4 1_555 1_555
C18 C19 1_555 1_555
C25 C26 1_555 1_555
C27 O3 1_555 1_555
N2 Cd1 1_555 1_555
O1 Cd1 1_555 1_555
O2 Cd1 1_555 1_555
O5 Cd1_2 1_555 1_555

#END
