
#######################################################################
#
#                 Cambridge Crystallographic Data Centre
#                                CCDC 
#
#######################################################################
#
# If this CIF has been generated from an entry in the Cambridge 
# Structural Database, then it will include bibliographic, chemical, 
# crystal, experimental, refinement or atomic coordinate data resulting 
# from the CCDC's data processing and validation procedures.
#
#######################################################################

data_WIPYAX
_symmetry_cell_setting           monoclinic
_symmetry_space_group_name_H-M   'P 21/n'
_symmetry_Int_Tables_number      14
_space_group_name_Hall           '-P 2yn'
loop_
_symmetry_equiv_pos_site_id
_symmetry_equiv_pos_as_xyz
1 x,y,z
2 1/2-x,1/2+y,1/2-z
3 -x,-y,-z
4 1/2+x,1/2-y,1/2+z
_cell_length_a                   8.709(2)
_cell_length_b                   34.202(9)
_cell_length_c                   13.685(4)
_cell_angle_alpha                90
_cell_angle_beta                 95.714(4)
_cell_angle_gamma                90
_cell_volume                     4056.03
loop_
_atom_site_label
_atom_site_type_symbol
_atom_site_fract_x
_atom_site_fract_y
_atom_site_fract_z
Ce1 Ce 0.95902(6) 0.632080(15) 0.70917(4)
Br1 Br 1.25029(17) 0.62997(3) 1.04524(9)
Br2 Br 0.72559(12) 0.49535(3) 0.64653(9)
Br3 Br 1.33119(12) 0.53765(3) 0.58491(9)
Br4 Br 1.44022(18) 0.72419(3) 0.74588(9)
Br5 Br 1.23672(18) 0.70810(4) 1.18874(9)
Br6 Br 1.3913(2) 0.80332(4) 0.87697(10)
O1 O 1.1028(11) 0.5077(2) 0.7653(6)
C1 C 1.0230(11) 0.5145(2) 0.5958(7)
C2 C 0.6963(11) 0.5889(3) 0.5209(8)
H1 H 0.6365 0.5898 0.5735
C3 C 0.9242(11) 0.6017(2) 0.4573(7)
O2 O 0.67485(18) 0.64001(4) 0.70376(11)
H2 H 0.6358 0.6231 0.7428
H3 H 0.6309 0.6362 0.6439
C4 C 1.16642(18) 0.61747(6) 0.38732(11)
O3 O 1.01278(18) 0.56513(4) 0.71157(17)
C5 C 1.33725(18) 0.68397(6) 0.90490(13)
C6 C 0.96484(18) 0.72074(5) 0.83994(14)
H4 H 1.0177 0.7268 0.7861
C7 C 1.04962(18) 0.52959(4) 0.69958(17)
C8 C 1.37117(18) 0.72073(5) 0.87131(14)
N1 N 0.85181(18) 0.60822(6) 0.87763(13)
C9 C 1.07922(18) 0.61648(6) 0.46836(12)
C10 C 1.29639(18) 0.68020(6) 0.99979(12)
C11 C 0.81076(18) 0.63508(7) 0.94434(11)
N2 N 0.92214(18) 0.68415(6) 0.85012(13)
N3 N 1.13151(18) 0.63112(6) 0.55785(11)
N4 N 0.83789(18) 0.60388(6) 0.53285(13)
C12 C 1.28957(18) 0.71340(5) 1.05900(15)
C13 C 1.14062(18) 0.51599(5) 0.53442(16)
C14 C 0.88286(18) 0.49809(5) 0.56150(16)
C15 C 1.10617(18) 0.60092(6) 0.29578(12)
H5 H 1.1659 0.6005 0.2431
C16 C 1.31640(18) 0.63350(6) 0.40130(11)
H6 H 1.3787 0.6339 0.3499
O4 O 1.20979(18) 0.64191(6) 0.78756(12)
C17 C 1.33480(18) 0.64813(6) 0.83930(12)
C18 C 1.31819(18) 0.75019(5) 1.02355(14)
C19 C 0.71625(18) 0.57036(6) 0.35362(13)
H7 H 0.6754 0.5597 0.2941
C20 C 0.86698(18) 0.58571(6) 0.36510(12)
C21 C 0.63198(18) 0.57152(6) 0.43232(13)
H8 H 0.5331 0.5610 0.4278
C22 C 1.35845(18) 0.75315(5) 0.92966(13)
C23 C 0.84867(18) 0.67493(6) 0.92931(12)
O5 O 1.45500(18) 0.62892(7) 0.83704(11)
O6 O 1.41413(18) 0.80399(5) 1.12334(14)
C24 C 1.36869(18) 0.64829(6) 0.49030(12)
H9 H 1.4660 0.6597 0.5003
C25 C 1.29396(18) 0.78721(5) 1.08330(14)
C26 C 0.96185(18) 0.58579(6) 0.28578(12)
H10 H 0.9235 0.5752 0.2257
C27 C 1.27414(18) 0.64614(6) 0.56668(12)
H11 H 1.3128 0.6558 0.6278
C28 C 0.73077(18) 0.62457(7) 1.02560(12)
C29 C 0.69284(18) 0.58453(6) 1.03777(13)
H12 H 0.6405 0.5763 1.0901
C30 C 0.81359(18) 0.70370(6) 0.99875(12)
C31 C 0.73269(18) 0.69195(6) 1.07902(12)
H13 H 0.7080 0.7108 1.1240
C32 C 0.85607(18) 0.74232(6) 0.98112(13)
H14 H 0.8291 0.7622 1.0225
C33 C 0.93691(18) 0.75094(5) 0.90345(14)
H15 H 0.9720 0.7762 0.8934
C34 C 0.81264(18) 0.57010(6) 0.89244(14)
H16 H 0.8388 0.5511 0.8484
C35 C 0.73523(18) 0.55929(6) 0.97118(14)
H17 H 0.7113 0.5330 0.9783
C36 C 0.69128(18) 0.65549(7) 1.09229(11)
H18 H 0.6360 0.6493 1.1450
O7 O 1.16078(18) 0.79753(5) 1.08682(14)
Br2B Br 1.27441(12) 0.50465(3) 0.35347(9)
Br3B Br 0.66881(12) 0.46235(3) 0.41509(9)
O1B O 0.8972(11) 0.4923(2) 0.2347(6)
C1B C 0.9770(11) 0.4855(2) 0.4042(7)
O3B O 0.98722(18) 0.43487(4) 0.28843(17)
C7B C 0.95038(18) 0.47041(4) 0.30042(17)
C13B C 0.85938(18) 0.48401(5) 0.46558(16)
C14B C 1.11714(18) 0.50191(5) 0.43850(16)
Ce1B Ce 1.04098(6) 0.367920(15) 0.29083(4)
Br1B Br 0.74971(17) 0.37003(3) -0.04524(9)
Br4B Br 0.55978(18) 0.27581(3) 0.25412(9)
Br5B Br 0.76328(18) 0.29190(4) -0.18874(9)
Br6B Br 0.6087(2) 0.19668(4) 0.12303(10)
C2B C 1.3037(11) 0.4111(3) 0.4791(8)
H1B H 1.3635 0.4102 0.4265
C3B C 1.0758(11) 0.3983(2) 0.5427(7)
O2B O 1.32515(18) 0.35999(4) 0.29624(11)
H2B H 1.3642 0.3769 0.2572
H3B H 1.3691 0.3638 0.3561
C4B C 0.83358(18) 0.38253(6) 0.61268(11)
C5B C 0.66275(18) 0.31603(6) 0.09510(13)
C6B C 1.03516(18) 0.27926(5) 0.16006(14)
H4B H 0.9823 0.2732 0.2139
C8B C 0.62883(18) 0.27927(5) 0.12869(14)
N1B N 1.14819(18) 0.39178(6) 0.12237(13)
C9B C 0.92078(18) 0.38352(6) 0.53164(12)
C10B C 0.70361(18) 0.31980(6) 0.00021(12)
C11B C 1.18924(18) 0.36492(7) 0.05566(11)
N2B N 1.07786(18) 0.31585(6) 0.14988(13)
N3B N 0.86849(18) 0.36888(6) 0.44215(11)
N4B N 1.16211(18) 0.39612(6) 0.46715(13)
C12B C 0.71043(18) 0.28660(5) -0.05900(15)
C15B C 0.89383(18) 0.39908(6) 0.70422(12)
H5B H 0.8341 0.3995 0.7569
C16B C 0.68360(18) 0.36650(6) 0.59870(11)
H6B H 0.6213 0.3661 0.6501
O4B O 0.79021(18) 0.35809(6) 0.21244(12)
C17B C 0.66520(18) 0.35187(6) 0.16070(12)
C18B C 0.68181(18) 0.24981(5) -0.02355(14)
C19B C 1.28375(18) 0.42964(6) 0.64638(13)
H7B H 1.3246 0.4403 0.7059
C20B C 1.13302(18) 0.41429(6) 0.63490(12)
C21B C 1.36802(18) 0.42848(6) 0.56768(13)
H8B H 1.4669 0.4390 0.5722
C22B C 0.64155(18) 0.24685(5) 0.07034(13)
C23B C 1.15133(18) 0.32507(6) 0.07069(12)
O5B O 0.54500(18) 0.37108(7) 0.16296(11)
O6B O 0.58587(18) 0.19601(5) -0.12334(14)
C24B C 0.63131(18) 0.35171(6) 0.50970(12)
H9B H 0.5340 0.3403 0.4997
C25B C 0.70604(18) 0.21279(5) -0.08330(14)
C26B C 1.03815(18) 0.41421(6) 0.71422(12)
H10B H 1.0765 0.4248 0.7743
C27B C 0.72586(18) 0.35386(6) 0.43332(12)
H11B H 0.6872 0.3442 0.3722
C28B C 1.26923(18) 0.37543(7) -0.02560(12)
C29B C 1.30716(18) 0.41547(6) -0.03777(13)
H12B H 1.3595 0.4237 -0.0901
C30B C 1.18641(18) 0.29630(6) 0.00125(12)
C31B C 1.26731(18) 0.30805(6) -0.07902(12)
H13B H 1.2920 0.2892 -0.1240
C32B C 1.14393(18) 0.25768(6) 0.01888(13)
H14B H 1.1709 0.2378 -0.0225
C33B C 1.06309(18) 0.24906(5) 0.09655(14)
H15B H 1.0280 0.2238 0.1066
C34B C 1.18736(18) 0.42990(6) 0.10756(14)
H16B H 1.1612 0.4489 0.1516
C35B C 1.26477(18) 0.44071(6) 0.02882(14)
H17B H 1.2887 0.4670 0.0217
C36B C 1.30872(18) 0.34451(7) -0.09229(11)
H18B H 1.3640 0.3507 -0.1450
O7B O 0.83922(18) 0.20247(5) -0.08682(14)
Ce1A Ce 0.54098(6) 0.132080(15) -0.20917(4)
Ce1C Ce 1.45902(6) 0.867920(15) 1.20917(4)
O6A O 1.08587(18) 0.30399(5) 0.37666(14)
O6C O 0.91413(18) 0.69601(5) 0.62334(14)
O8 O 0.64645(18) 0.45544(5) 0.12085(14)
H19 H 0.5730 0.4433 0.1439
H20 H 0.6335 0.4549 0.0585
loop_
_geom_bond_atom_site_label_1
_geom_bond_atom_site_label_2
_geom_bond_site_symmetry_1
_geom_bond_site_symmetry_2
Ce1 O2 1_555 1_555
Br1 C10 1_555 1_555
Br2 C14 1_555 1_555
Br3 C13 1_555 1_555
Br4 C8 1_555 1_555
Br5 C12 1_555 1_555
Br6 C22 1_555 1_555
O1 C7 1_555 1_555
C1 C7 1_555 1_555
C2 H1 1_555 1_555
C3 C9 1_555 1_555
O2 H2 1_555 1_555
H3 O2 1_555 1_555
C4 C9 1_555 1_555
O3 Ce1 1_555 1_555
C5 C8 1_555 1_555
C6 H4 1_555 1_555
C7 O3 1_555 1_555
C8 C22 1_555 1_555
N1 Ce1 1_555 1_555
C9 N3 1_555 1_555
C10 C5 1_555 1_555
C11 N1 1_555 1_555
N2 Ce1 1_555 1_555
N3 Ce1 1_555 1_555
N4 Ce1 1_555 1_555
C12 C10 1_555 1_555
C13 C1 1_555 1_555
C14 C1 1_555 1_555
C15 C4 1_555 1_555
H5 C15 1_555 1_555
C16 C4 1_555 1_555
H6 C16 1_555 1_555
O4 Ce1 1_555 1_555
C17 C5 1_555 1_555
C18 C12 1_555 1_555
C19 H7 1_555 1_555
C20 C3 1_555 1_555
C21 C2 1_555 1_555
H8 C21 1_555 1_555
C22 C18 1_555 1_555
C23 C11 1_555 1_555
O5 C17 1_555 1_555
O6 C25 1_555 1_555
C24 C16 1_555 1_555
H9 C24 1_555 1_555
C25 C18 1_555 1_555
C26 C15 1_555 1_555
H10 C26 1_555 1_555
C27 N3 1_555 1_555
H11 C27 1_555 1_555
C28 C11 1_555 1_555
C29 C28 1_555 1_555
H12 C29 1_555 1_555
C30 C23 1_555 1_555
C31 C30 1_555 1_555
H13 C31 1_555 1_555
C32 C30 1_555 1_555
H14 C32 1_555 1_555
C33 C6 1_555 1_555
H15 C33 1_555 1_555
C34 N1 1_555 1_555
H16 C34 1_555 1_555
C35 C29 1_555 1_555
H17 C35 1_555 1_555
C36 C28 1_555 1_555
H18 C36 1_555 1_555
O7 C25 1_555 1_555
O8 H19 1_555 1_555
H20 O8 1_555 1_555
Br2B C14B 1_555 1_555
Br3B C13B 1_555 1_555
O1B C7B 1_555 1_555
C1B C7B 1_555 1_555
O3B C7B 1_555 1_555
C13B C14 1_555 1_555
C14B C13 1_555 1_555
Ce1B O3B 1_555 1_555
Br1B C10B 1_555 1_555
Br4B C8B 1_555 1_555
Br5B C12B 1_555 1_555
Br6B C22B 1_555 1_555
C2B H1B 1_555 1_555
C3B C9B 1_555 1_555
O2B Ce1B 1_555 1_555
H2B O2B 1_555 1_555
H3B O2B 1_555 1_555
C4B C9B 1_555 1_555
C5B C8B 1_555 1_555
C6B H4B 1_555 1_555
C8B C22B 1_555 1_555
N1B Ce1B 1_555 1_555
C9B N3B 1_555 1_555
C10B C5B 1_555 1_555
C11B N1B 1_555 1_555
N2B Ce1B 1_555 1_555
N3B Ce1B 1_555 1_555
N4B Ce1B 1_555 1_555
C12B C10B 1_555 1_555
C15B C4B 1_555 1_555
H5B C15B 1_555 1_555
C16B C4B 1_555 1_555
H6B C16B 1_555 1_555
O4B Ce1B 1_555 1_555
C17B C5B 1_555 1_555
C18B C12B 1_555 1_555
C19B H7B 1_555 1_555
C20B C3B 1_555 1_555
C21B C2B 1_555 1_555
H8B C21B 1_555 1_555
C22B C18B 1_555 1_555
C23B C11B 1_555 1_555
O5B C17B 1_555 1_555
O6B C25B 1_555 1_555
C24B C16B 1_555 1_555
H9B C24B 1_555 1_555
C25B C18B 1_555 1_555
C26B C15B 1_555 1_555
H10B C26B 1_555 1_555
C27B N3B 1_555 1_555
H11B C27B 1_555 1_555
C28B C11B 1_555 1_555
C29B C28B 1_555 1_555
H12B C29B 1_555 1_555
C30B C23B 1_555 1_555
C31B C30B 1_555 1_555
H13B C31B 1_555 1_555
C32B C30B 1_555 1_555
H14B C32B 1_555 1_555
C33B C6B 1_555 1_555
H15B C33B 1_555 1_555
C34B N1B 1_555 1_555
H16B C34B 1_555 1_555
C35B C29B 1_555 1_555
H17B C35B 1_555 1_555
C36B C28B 1_555 1_555
H18B C36B 1_555 1_555
O7B C25B 1_555 1_555
Ce1A O6B 1_555 1_555
Ce1C O6 1_555 1_555
O6A Ce1B 1_555 1_555
O6C Ce1 1_555 1_555
C2 N4 1_555 1_555
C3 N4 1_555 1_555
C6 N2 1_555 1_555
N2 C23 1_555 1_555
O4 C17 1_555 1_555
C19 C20 1_555 1_555
C19 C21 1_555 1_555
C20 C26 1_555 1_555
C24 C27 1_555 1_555
C31 C36 1_555 1_555
C32 C33 1_555 1_555
C34 C35 1_555 1_555
C1B C13B 1_555 1_555
C1B C14B 1_555 1_555
C2B N4B 1_555 1_555
C3B N4B 1_555 1_555
C6B N2B 1_555 1_555
N2B C23B 1_555 1_555
O4B C17B 1_555 1_555
C19B C20B 1_555 1_555
C19B C21B 1_555 1_555
C20B C26B 1_555 1_555
C24B C27B 1_555 1_555
C31B C36B 1_555 1_555
C32B C33B 1_555 1_555
C34B C35B 1_555 1_555

#END
