
#######################################################################
#
#                 Cambridge Crystallographic Data Centre
#                                CCDC 
#
#######################################################################
#
# If this CIF has been generated from an entry in the Cambridge 
# Structural Database, then it will include bibliographic, chemical, 
# crystal, experimental, refinement or atomic coordinate data resulting 
# from the CCDC's data processing and validation procedures.
#
#######################################################################

data_WIQBAB
_symmetry_cell_setting           hexagonal
_symmetry_space_group_name_H-M   'P 63/m'
_symmetry_Int_Tables_number      176
_space_group_name_Hall           '-P 6c'
loop_
_symmetry_equiv_pos_site_id
_symmetry_equiv_pos_as_xyz
1 x,y,z
2 -y,x-y,z
3 -x+y,-x,z
4 -x,-y,1/2+z
5 y,-x+y,1/2+z
6 x-y,x,1/2+z
7 -x,-y,-z
8 y,-x+y,-z
9 x-y,x,-z
10 x,y,1/2-z
11 -y,x-y,1/2-z
12 -x+y,-x,1/2-z
_cell_length_a                   10.9401(15)
_cell_length_b                   10.9401(15)
_cell_length_c                   31.863(6)
_cell_angle_alpha                90
_cell_angle_beta                 90
_cell_angle_gamma                120
_cell_volume                     3302.63
loop_
_atom_site_label
_atom_site_type_symbol
_atom_site_fract_x
_atom_site_fract_y
_atom_site_fract_z
Cd1 Cd 1.0000 1.0000 0.0000
C1 C 0.7177(7) 0.7342(6) 0.04612(18)
H1 H 0.6544 0.7484 0.0303
C2 C 0.5180(6) 0.5323(7) 0.2268(2)
C3 C 0.5305(6) 0.5338(7) 0.1382(2)
C4 C 0.8967(8) 0.7428(8) 0.0699(2)
H2 H 0.9911 0.7699 0.0737
C5 C 0.5374(7) 0.5319(8) 0.0909(2)
H3 H 0.5159 0.4390 0.0814
H4 H 0.4677 0.5521 0.0790
C6 C 0.5169(12) 0.4246(9) 0.2041(3)
H5 H 0.5169 0.3509 0.2186
C7 C 0.5157(12) 0.4207(9) 0.1619(3)
H6 H 0.5047 0.3405 0.1483
C8 C 0.5339(12) 0.6439(10) 0.1600(3)
H7 H 0.5452 0.7227 0.1455
C9 C 0.5209(12) 0.6386(10) 0.2025(3)
H8 H 0.5136 0.7101 0.2160
N1 N 0.6809(6) 0.6393(6) 0.07620(16)
N2 N 0.8544(6) 0.8055(6) 0.04149(15)
N3 N 0.7966(7) 0.6425(7) 0.0914(2)
C1I C 0.7177(7) 0.7342(6) 0.45388(18)
H1I H 0.6544 0.7484 0.4697
C2I C 0.5180(6) 0.5323(7) 0.2732(2)
C3I C 0.5305(6) 0.5338(7) 0.3618(2)
C4I C 0.8967(8) 0.7428(8) 0.4301(2)
H2I H 0.9911 0.7699 0.4263
C5I C 0.5374(7) 0.5319(8) 0.4091(2)
H3I H 0.5159 0.4390 0.4186
H4I H 0.4677 0.5521 0.4210
C6I C 0.5169(12) 0.4246(9) 0.2959(3)
H5I H 0.5169 0.3509 0.2814
C7I C 0.5157(12) 0.4207(9) 0.3381(3)
H6I H 0.5047 0.3405 0.3517
C8I C 0.5339(12) 0.6439(10) 0.3400(3)
H7I H 0.5452 0.7227 0.3545
C9I C 0.5209(12) 0.6386(10) 0.2975(3)
H8I H 0.5136 0.7101 0.2840
N1I N 0.6809(6) 0.6393(6) 0.42380(16)
N2I N 0.8544(6) 0.8055(6) 0.45851(15)
N3I N 0.7966(7) 0.6425(7) 0.4086(2)
C1A C 1.2658(6) 0.9835(9) 0.04612(18)
H1A H 1.2516 0.9060 0.0303
C2A C 1.4677(7) 0.9857(9) 0.2268(2)
C3A C 1.4662(7) 0.9967(9) 0.1382(2)
C4A C 1.2572(8) 1.1539(11) 0.0699(2)
H2A H 1.2301 1.2212 0.0737
C5A C 1.4681(8) 1.0055(11) 0.0909(2)
H3A H 1.5610 1.0769 0.0814
H4A H 1.4479 0.9156 0.0790
C6A C 1.5754(9) 1.0923(15) 0.2041(3)
H5A H 1.6491 1.1660 0.2186
C7A C 1.5793(9) 1.0950(15) 0.1619(3)
H6A H 1.6595 1.1642 0.1483
C8A C 1.3561(10) 0.8900(16) 0.1600(3)
H7A H 1.2773 0.8225 0.1455
C9A C 1.3614(10) 0.8823(16) 0.2025(3)
H8A H 1.2899 0.8035 0.2160
N1A N 1.3607(6) 1.0416(8) 0.07620(16)
N2A N 1.1945(6) 1.0489(8) 0.04149(15)
N3A N 1.3575(7) 1.1541(10) 0.0914(2)
C1J C 1.2658(6) 0.9835(9) 0.45388(18)
H1J H 1.2516 0.9060 0.4697
C2J C 1.4677(7) 0.9857(9) 0.2732(2)
C3J C 1.4662(7) 0.9967(9) 0.3618(2)
C4J C 1.2572(8) 1.1539(11) 0.4301(2)
H2J H 1.2301 1.2212 0.4263
C5J C 1.4681(8) 1.0055(11) 0.4091(2)
H3J H 1.5610 1.0769 0.4186
H4J H 1.4479 0.9156 0.4210
C6J C 1.5754(9) 1.0923(15) 0.2959(3)
H5J H 1.6491 1.1660 0.2814
C7J C 1.5793(9) 1.0950(15) 0.3381(3)
H6J H 1.6595 1.1642 0.3517
C8J C 1.3561(10) 0.8900(16) 0.3400(3)
H7J H 1.2773 0.8225 0.3545
C9J C 1.3614(10) 0.8823(16) 0.2975(3)
H8J H 1.2899 0.8035 0.2840
N1J N 1.3607(6) 1.0416(8) 0.42380(16)
N2J N 1.1945(6) 1.0489(8) 0.45851(15)
N3J N 1.3575(7) 1.1541(10) 0.4086(2)
C1B C 1.0165(9) 1.2823(7) 0.04612(18)
H1B H 1.0940 1.3456 0.0303
C2B C 1.0143(9) 1.4820(6) 0.2268(2)
C3B C 1.0033(9) 1.4695(6) 0.1382(2)
C4B C 0.8461(11) 1.1033(8) 0.0699(2)
H2B H 0.7788 1.0089 0.0737
C5B C 0.9945(11) 1.4626(7) 0.0909(2)
H3B H 0.9231 1.4841 0.0814
H4B H 1.0844 1.5323 0.0790
C6B C 0.9077(15) 1.4831(12) 0.2041(3)
H5B H 0.8340 1.4831 0.2186
C7B C 0.9050(15) 1.4843(12) 0.1619(3)
H6B H 0.8358 1.4953 0.1483
C8B C 1.1100(16) 1.4661(12) 0.1600(3)
H7B H 1.1775 1.4548 0.1455
C9B C 1.1177(16) 1.4791(12) 0.2025(3)
H8B H 1.1965 1.4864 0.2160
N1B N 0.9584(8) 1.3191(6) 0.07620(16)
N2B N 0.9511(8) 1.1456(6) 0.04149(15)
N3B N 0.8459(10) 1.2034(7) 0.0914(2)
C1K C 1.0165(9) 1.2823(7) 0.45388(18)
H1K H 1.0940 1.3456 0.4697
C2K C 1.0143(9) 1.4820(6) 0.2732(2)
C3K C 1.0033(9) 1.4695(6) 0.3618(2)
C4K C 0.8461(11) 1.1033(8) 0.4301(2)
H2K H 0.7788 1.0089 0.4263
C5K C 0.9945(11) 1.4626(7) 0.4091(2)
H3K H 0.9231 1.4841 0.4186
H4K H 1.0844 1.5323 0.4210
C6K C 0.9077(15) 1.4831(12) 0.2959(3)
H5K H 0.8340 1.4831 0.2814
C7K C 0.9050(15) 1.4843(12) 0.3381(3)
H6K H 0.8358 1.4953 0.3517
C8K C 1.1100(16) 1.4661(12) 0.3400(3)
H7K H 1.1775 1.4548 0.3545
C9K C 1.1177(16) 1.4791(12) 0.2975(3)
H8K H 1.1965 1.4864 0.2840
N1K N 0.9584(8) 1.3191(6) 0.42380(16)
N2K N 0.9511(8) 1.1456(6) 0.45851(15)
N3K N 0.8459(10) 1.2034(7) 0.4086(2)
Cd1C Cd 1.0000 1.0000 0.5000
N2F N 1.1456(6) 1.1945(6) -0.04149(15)
N2G N 0.8055(6) 0.9511(8) -0.04149(15)
N2H N 1.0489(8) 0.8544(6) -0.04149(15)
Cl1 Cl 0.3333 0.6667 0.00899(12)
O1 O 0.3333 0.6667 0.0563(3)
O2 O 0.1939(15) 0.6610(16) 0.0021(3)
O2A O 0.3390(16) 0.5329(22) 0.0021(3)
O2B O 0.4671(22) 0.8061(15) 0.0021(3)
O3 O 0.182(4) 0.145(4) 0.1974(10)
loop_
_geom_bond_atom_site_label_1
_geom_bond_atom_site_label_2
_geom_bond_site_symmetry_1
_geom_bond_site_symmetry_2
Cd1 N2 1_555 1_555
C1 H1 1_555 1_555
C2 C6 1_555 1_555
C3 C5 1_555 1_555
C4 H2 1_555 1_555
C5 H3 1_555 1_555
H4 C5 1_555 1_555
C6 H5 1_555 1_555
C7 C3 1_555 1_555
H6 C7 1_555 1_555
C8 C3 1_555 1_555
H7 C8 1_555 1_555
C9 C2 1_555 1_555
H8 C9 1_555 1_555
N1 C1 1_555 1_555
N2 C1 1_555 1_555
N3 C4 1_555 1_555
Cl1 O1 1_555 1_555
O2 Cl1 1_555 1_555
C1I H1I 1_555 1_555
C2I C2 1_555 1_555
C3I C5I 1_555 1_555
C4I H2I 1_555 1_555
C5I H3I 1_555 1_555
H4I C5I 1_555 1_555
C6I C2I 1_555 1_555
H5I C6I 1_555 1_555
C7I C3I 1_555 1_555
H6I C7I 1_555 1_555
C8I C3I 1_555 1_555
H7I C8I 1_555 1_555
C9I C2I 1_555 1_555
H8I C9I 1_555 1_555
N1I C1I 1_555 1_555
N2I C1I 1_555 1_555
N3I C4I 1_555 1_555
C1A H1A 1_555 1_555
C2A C6A 1_555 1_555
C3A C5A 1_555 1_555
C4A H2A 1_555 1_555
C5A H3A 1_555 1_555
H4A C5A 1_555 1_555
C6A H5A 1_555 1_555
C7A C3A 1_555 1_555
H6A C7A 1_555 1_555
C8A C3A 1_555 1_555
H7A C8A 1_555 1_555
C9A C2A 1_555 1_555
H8A C9A 1_555 1_555
N1A C1A 1_555 1_555
N2A Cd1 1_555 1_555
N3A C4A 1_555 1_555
C1J H1J 1_555 1_555
C2J C2A 1_555 1_555
C3J C5J 1_555 1_555
C4J H2J 1_555 1_555
C5J H3J 1_555 1_555
H4J C5J 1_555 1_555
C6J C2J 1_555 1_555
H5J C6J 1_555 1_555
C7J C3J 1_555 1_555
H6J C7J 1_555 1_555
C8J C3J 1_555 1_555
H7J C8J 1_555 1_555
C9J C2J 1_555 1_555
H8J C9J 1_555 1_555
N1J C1J 1_555 1_555
N2J C1J 1_555 1_555
N3J C4J 1_555 1_555
C1B H1B 1_555 1_555
C2B C6B 1_555 1_555
C3B C5B 1_555 1_555
C4B H2B 1_555 1_555
C5B H3B 1_555 1_555
H4B C5B 1_555 1_555
C6B H5B 1_555 1_555
C7B C3B 1_555 1_555
H6B C7B 1_555 1_555
C8B C3B 1_555 1_555
H7B C8B 1_555 1_555
C9B C2B 1_555 1_555
H8B C9B 1_555 1_555
N1B C1B 1_555 1_555
N2B Cd1 1_555 1_555
N3B C4B 1_555 1_555
C1K H1K 1_555 1_555
C2K C2B 1_555 1_555
C3K C5K 1_555 1_555
C4K H2K 1_555 1_555
C5K H3K 1_555 1_555
H4K C5K 1_555 1_555
C6K C2K 1_555 1_555
H5K C6K 1_555 1_555
C7K C3K 1_555 1_555
H6K C7K 1_555 1_555
C8K C3K 1_555 1_555
H7K C8K 1_555 1_555
C9K C2K 1_555 1_555
H8K C9K 1_555 1_555
N1K C1K 1_555 1_555
N2K C1K 1_555 1_555
N3K C4K 1_555 1_555
Cd1C N2I 1_555 1_555
N2F Cd1 1_555 1_555
N2G Cd1 1_555 1_555
N2H Cd1 1_555 1_555
O2A Cl1 1_555 1_555
O2B Cl1 1_555 1_555
C4 N2 1_555 1_555
C5 N1 1_555 1_555
C6 C7 1_555 1_555
C8 C9 1_555 1_555
N1 N3 1_555 1_555
C4I N2I 1_555 1_555
C5I N1I 1_555 1_555
C6I C7I 1_555 1_555
C8I C9I 1_555 1_555
N1I N3I 1_555 1_555
C1A N2A 1_555 1_555
C4A N2A 1_555 1_555
C5A N1A 1_555 1_555
C6A C7A 1_555 1_555
C8A C9A 1_555 1_555
N1A N3A 1_555 1_555
C4J N2J 1_555 1_555
C5J N1J 1_555 1_555
C6J C7J 1_555 1_555
C8J C9J 1_555 1_555
N1J N3J 1_555 1_555
N2J Cd1C 1_555 1_555
C1B N2B 1_555 1_555
C4B N2B 1_555 1_555
C5B N1B 1_555 1_555
C6B C7B 1_555 1_555
C8B C9B 1_555 1_555
N1B N3B 1_555 1_555
C4K N2K 1_555 1_555
C5K N1K 1_555 1_555
C6K C7K 1_555 1_555
C8K C9K 1_555 1_555
N1K N3K 1_555 1_555
N2K Cd1C 1_555 1_555

#END
