
#######################################################################
#
#                 Cambridge Crystallographic Data Centre
#                                CCDC 
#
#######################################################################
#
# If this CIF has been generated from an entry in the Cambridge 
# Structural Database, then it will include bibliographic, chemical, 
# crystal, experimental, refinement or atomic coordinate data resulting 
# from the CCDC's data processing and validation procedures.
#
#######################################################################

data_WIQHAH
_symmetry_cell_setting           orthorhombic
_symmetry_space_group_name_H-M   'P n c a'
_symmetry_Int_Tables_number      60
_space_group_name_Hall           '-P 2a 2n'
loop_
_symmetry_equiv_pos_site_id
_symmetry_equiv_pos_as_xyz
1 x,y,z
2 1/2-x,-y,z
3 1/2+x,1/2-y,1/2-z
4 -x,1/2+y,1/2-z
5 -x,-y,-z
6 1/2+x,y,-z
7 1/2-x,1/2+y,1/2+z
8 x,1/2-y,1/2+z
_cell_length_a                   6.2960(2)
_cell_length_b                   6.8703(2)
_cell_length_c                   22.9826(8)
_cell_angle_alpha                90
_cell_angle_beta                 90
_cell_angle_gamma                90
_cell_volume                     994.122
loop_
_atom_site_label
_atom_site_type_symbol
_atom_site_fract_x
_atom_site_fract_y
_atom_site_fract_z
C1 C 0.7500 0.0000 0.1056(6)
C2 C 0.7500 0.0000 0.1682(6)
C3 C 0.9247(14) -0.0686(11) 0.2614(4)
C4 C 0.9265(12) -0.0592(13) 0.2018(4)
C5 C 0.7500 0.0000 0.2894(5)
C6 C 0.7500 0.0000 0.3582(6)
O1 O 0.8947(9) -0.0970(8) 0.3831(2)
H1 H 1.048(11) -0.107(9) 0.184(3)
H2 H 1.067(11) -0.120(9) 0.277(3)
H3 H 1.201(15) 0.297(14) -0.006(4)
H4 H 1.175(15) 0.238(14) 0.046(5)
Cu1 Cu 1.0000 0.0000 0.0000
O2 O 0.9331(16) -0.0266(8) 0.0811(3)
O3 O 1.1969(11) 0.2184(9) 0.0198(3)
C3A C 0.5753(14) 0.0686(11) 0.2614(4)
C4A C 0.5735(12) 0.0592(13) 0.2018(4)
H1A H 0.452(11) 0.107(9) 0.184(3)
H2A H 0.433(11) 0.120(9) 0.277(3)
O2A O 0.5669(16) 0.0266(8) 0.0811(3)
O1A O 0.6053(9) 0.0970(8) 0.3831(2)
H3A H 1.299(15) -0.297(14) -0.006(4)
H4A H 1.325(15) -0.238(14) 0.046(5)
O3A O 1.3031(11) -0.2184(9) 0.0198(3)
Cu1A Cu 0.5000 0.0000 0.0000
Cu1A_2 Cu 1.5000 0.0000 0.0000
O2D O 1.0669(16) 0.0266(8) -0.0811(3)
O3D O 0.8031(11) -0.2184(9) -0.0198(3)
O3E O 0.6969(11) 0.2184(9) -0.0198(3)
loop_
_geom_bond_atom_site_label_1
_geom_bond_atom_site_label_2
_geom_bond_site_symmetry_1
_geom_bond_site_symmetry_2
C1 C2 1_555 1_555
C2 C4 1_555 1_555
C3 C4 1_555 1_555
C4 H1 1_555 1_555
C5 C3 1_555 1_555
C6 C5 1_555 1_555
O1 C6 1_555 1_555
H2 C3 1_555 1_555
H3 O3 1_555 1_555
H4 O3 1_555 1_555
Cu1 O2 1_555 1_555
O2 C1 1_555 1_555
O3 Cu1 1_555 1_555
C3A C5 1_555 1_555
C4A C2 1_555 1_555
H1A C4A 1_555 1_555
H2A C3A 1_555 1_555
O2A C1 1_555 1_555
O1A C6 1_555 1_555
H3A O3A 1_555 1_555
H4A O3A 1_555 1_555
O3A Cu1 1_555 1_555
Cu1A O2A 1_555 1_555
Cu1A_2 O3 1_555 1_555
O2D Cu1 1_555 1_555
O3D Cu1 1_555 1_555
O3E Cu1 1_555 1_555
C3A C4A 1_555 1_555
O3A Cu1A_2 1_555 1_555
Cu1A O3D 1_555 1_555
Cu1A O3E 1_555 1_555

#END
