
#######################################################################
#
#                 Cambridge Crystallographic Data Centre
#                                CCDC 
#
#######################################################################
#
# If this CIF has been generated from an entry in the Cambridge 
# Structural Database, then it will include bibliographic, chemical, 
# crystal, experimental, refinement or atomic coordinate data resulting 
# from the CCDC's data processing and validation procedures.
#
#######################################################################

data_WIQHOV
_symmetry_cell_setting           monoclinic
_symmetry_space_group_name_H-M   'P 21/c'
_symmetry_Int_Tables_number      14
_space_group_name_Hall           '-P 2ybc'
loop_
_symmetry_equiv_pos_site_id
_symmetry_equiv_pos_as_xyz
1 x,y,z
2 -x,1/2+y,1/2-z
3 -x,-y,-z
4 x,1/2-y,1/2+z
_cell_length_a                   9.3607(9)
_cell_length_b                   22.276(5)
_cell_length_c                   13.218(3)
_cell_angle_alpha                90
_cell_angle_beta                 103.525(11)
_cell_angle_gamma                90
_cell_volume                     2679.77
loop_
_atom_site_label
_atom_site_type_symbol
_atom_site_fract_x
_atom_site_fract_y
_atom_site_fract_z
C1 C 0.1506(4) 0.60336(14) 0.7552(3)
C2 C 0.2602(4) 0.60592(15) 0.8465(3)
C3 C 0.2294(4) 0.61680(16) 0.9423(3)
H1 H 0.3061 0.6174 1.0037
C4 C 0.0858(4) 0.62677(16) 0.9475(3)
H2 H 0.0628 0.634 1.0127
C5 C 0.0046(4) 0.61391(14) 0.7607(3)
C6 C -0.0235(4) 0.62611(15) 0.8578(3)
C7 C -0.0518(4) 0.54756(14) 0.2903(3)
C8 C -0.0163(4) 0.53873(15) 0.1951(3)
C9 C -0.1214(4) 0.54138(15) 0.1031(3)
H3 H -0.0948 0.5353 0.0388
C10 C -0.2665(4) 0.55303(15) 0.1046(3)
H4 H -0.3406 0.554 0.0417
C11 C -0.3013(4) 0.56321(15) 0.1988(3)
C12 C -0.1974(4) 0.56164(14) 0.2936(3)
C13 C 0.5047(6) 0.7035(2) 0.6210(4)
H5 H 0.5427 0.672 0.6731
H6 H 0.3996 0.7102 0.619
C14 C 0.5876(7) 0.7589(2) 0.6480(4)
H7 H 0.5283 0.7888 0.6757
H8 H 0.679 0.7512 0.7015
C15 C 0.6216(7) 0.7808(2) 0.5534(4)
H9 H 0.5597 0.816 0.5268
H10 H 0.726 0.7929 0.5668
C16 C 0.5926(7) 0.7326(2) 0.4786(4)
H11 H 0.5284 0.7468 0.4124
H12 H 0.6857 0.7178 0.4643
C17 C 0.2017(6) 0.7007(3) 0.2271(4)
H13 H 0.2194 0.6718 0.1745
H14 H 0.2608 0.7373 0.2242
C18 C 0.0419(7) 0.7161(3) 0.2073(5)
H15 H 0.0225 0.7565 0.176
H16 H -0.0186 0.6863 0.1604
C19 C 0.0108(6) 0.7143(2) 0.3114(6)
H17 H -0.0358 0.7522 0.326
H18 H -0.0557 0.6805 0.3167
C20 C 0.1541(8) 0.7062(2) 0.3847(5)
H19 H 0.1991 0.7455 0.4086
H20 H 0.1438 0.6826 0.4461
Cl1 Cl 0.44312(10) 0.59332(5) 0.84308(8)
Cl2 Cl -0.20423(11) 0.63943(4) 0.86675(8)
Cl3 Cl -0.48533(10) 0.57796(5) 0.19743(8)
Cl4 Cl 0.16497(10) 0.52460(4) 0.18950(7)
O1 O 0.5443(3) 0.53663(11) 0.61820(19)
H21 H 0.4787 0.5412 0.6666
H22 H 0.6395 0.5562 0.6487
O2 O 0.5219(4) 0.68579(13) 0.5221(3)
O3 O 0.2390(4) 0.67509(14) 0.3272(3)
S1 S 0.18583(10) 0.58514(4) 0.63427(7)
S2 S -0.13454(10) 0.61288(4) 0.64602(7)
S3 S 0.07972(9) 0.53926(4) 0.40940(7)
S4 S -0.24004(10) 0.57804(4) 0.41230(7)
Fe1 Fe -0.03422(5) 0.56406(2) 0.53382(4)
K1 K 0.41650(9) 0.58446(4) 0.42397(7)
Cl3_2 Cl 0.51467(10) 0.57796(5) 0.19743(8)
O1B O 0.4557(3) 0.46337(11) 0.38180(19)
S3B S -0.07972(9) 0.46074(4) 0.59060(7)
S4_2 S 0.75996(10) 0.57804(4) 0.41230(7)
Fe1B Fe 0.03422(5) 0.43594(2) 0.46618(4)
K1_2 K -0.58350(9) 0.58446(4) 0.42397(7)
K1B K 0.58350(9) 0.41554(4) 0.57603(7)
loop_
_geom_bond_atom_site_label_1
_geom_bond_atom_site_label_2
_geom_bond_site_symmetry_1
_geom_bond_site_symmetry_2
C1 C2 1_555 1_555
C2 C3 1_555 1_555
C3 H1 1_555 1_555
C4 C3 1_555 1_555
H2 C4 1_555 1_555
C5 C1 1_555 1_555
C6 C4 1_555 1_555
C7 C8 1_555 1_555
C8 C9 1_555 1_555
C9 H3 1_555 1_555
C10 C9 1_555 1_555
H4 C10 1_555 1_555
C11 C10 1_555 1_555
C12 C7 1_555 1_555
C13 H5 1_555 1_555
H6 C13 1_555 1_555
C14 C13 1_555 1_555
H7 C14 1_555 1_555
H8 C14 1_555 1_555
C15 C14 1_555 1_555
H9 C15 1_555 1_555
H10 C15 1_555 1_555
C16 C15 1_555 1_555
H11 C16 1_555 1_555
H12 C16 1_555 1_555
C17 H13 1_555 1_555
H14 C17 1_555 1_555
C18 C17 1_555 1_555
H15 C18 1_555 1_555
H16 C18 1_555 1_555
C19 C18 1_555 1_555
H17 C19 1_555 1_555
H18 C19 1_555 1_555
C20 C19 1_555 1_555
H19 C20 1_555 1_555
H20 C20 1_555 1_555
Cl1 C2 1_555 1_555
Cl2 C6 1_555 1_555
Cl3 C11 1_555 1_555
Cl4 C8 1_555 1_555
O1 H21 1_555 1_555
H22 O1 1_555 1_555
O2 C13 1_555 1_555
O3 C17 1_555 1_555
S1 C1 1_555 1_555
S2 C5 1_555 1_555
S3 C7 1_555 1_555
S4 C12 1_555 1_555
Fe1 S1 1_555 1_555
K1 O1 1_555 1_555
Cl3_2 K1 1_555 1_555
O1B K1 1_555 1_555
S3B Fe1 1_555 1_555
S4_2 K1 1_555 1_555
Fe1B S3 1_555 1_555
K1_2 Cl3 1_555 1_555
K1B O1 1_555 1_555
C5 C6 1_555 1_555
C11 C12 1_555 1_555
C16 O2 1_555 1_555
C20 O3 1_555 1_555
O2 K1 1_555 1_555
O3 K1 1_555 1_555
S2 Fe1 1_555 1_555
S3 Fe1 1_555 1_555
S3 K1 1_555 1_555
S4 Fe1 1_555 1_555
S4 K1_2 1_555 1_555
O1B K1B 1_555 1_555
S3B Fe1B 1_555 1_555

#END
