
#######################################################################
#
#                 Cambridge Crystallographic Data Centre
#                                CCDC 
#
#######################################################################
#
# If this CIF has been generated from an entry in the Cambridge 
# Structural Database, then it will include bibliographic, chemical, 
# crystal, experimental, refinement or atomic coordinate data resulting 
# from the CCDC's data processing and validation procedures.
#
#######################################################################

data_WIQJEN
_symmetry_cell_setting           monoclinic
_symmetry_space_group_name_H-M   'P 21/n'
_symmetry_Int_Tables_number      14
_space_group_name_Hall           '-P 2yn'
loop_
_symmetry_equiv_pos_site_id
_symmetry_equiv_pos_as_xyz
1 x,y,z
2 1/2-x,1/2+y,1/2-z
3 -x,-y,-z
4 1/2+x,1/2-y,1/2+z
_cell_length_a                   7.5524(9)
_cell_length_b                   14.0579(19)
_cell_length_c                   9.9730(13)
_cell_angle_alpha                90
_cell_angle_beta                 96.162(11)
_cell_angle_gamma                90
_cell_volume                     1052.72
loop_
_atom_site_label
_atom_site_type_symbol
_atom_site_fract_x
_atom_site_fract_y
_atom_site_fract_z
Cd1 Cd 0.22225(4) 0.45250(2) 0.92741(4)
I1 I 0.12067(4) 0.49993(2) 1.20036(3)
O1 O 0.3197(5) 0.4116(2) 0.7147(3)
H1 H 0.318(7) 0.460(2) 0.663(4)
H2 H 0.253(6) 0.372(2) 0.670(4)
N1 N 0.3530(5) 0.6013(3) 0.9202(4)
N2 N 0.5149(5) 0.6223(3) 0.9748(4)
N3 N 0.3708(5) 0.7541(3) 0.9126(4)
N4 N 0.2647(5) 0.6794(3) 0.8813(4)
N5 N 0.8267(5) 0.7158(3) 1.0618(4)
N6 N 0.8390(6) 0.9139(3) 1.0719(4)
C1 C 0.5234(6) 0.7163(3) 0.9700(4)
C2 C 0.6836(6) 0.7685(3) 1.0215(5)
C3 C 0.9784(6) 0.7615(3) 1.1030(5)
H3 H 1.0814 0.7271 1.1296
C4 C 0.9817(7) 0.8603(4) 1.1060(5)
H4 H 1.0892 0.8904 1.1332
C5 C 0.6910(7) 0.8673(3) 1.0296(5)
H5 H 0.5880 0.9020 1.0043
Cd1B Cd -0.22225(4) 0.54750(2) 1.07259(4)
Cd1B_2 Cd 0.77775(4) 0.54750(2) 1.07259(4)
I1B I -0.12067(4) 0.50007(2) 0.79964(3)
N2B N 0.4851(5) 0.3777(3) 1.0252(4)
N5B N 0.1733(5) 0.2842(3) 0.9382(4)
O2 O 0.1172(5) 0.2362(3) 1.2440(5)
H6 H 0.054(6) 0.187(2) 1.251(7)
H7 H 0.042(6) 0.279(3) 1.217(7)
loop_
_geom_bond_atom_site_label_1
_geom_bond_atom_site_label_2
_geom_bond_site_symmetry_1
_geom_bond_site_symmetry_2
Cd1 I1 1_555 1_555
I1 Cd1B 1_555 1_555
O1 Cd1 1_555 1_555
H1 O1 1_555 1_555
H2 O1 1_555 1_555
N1 Cd1 1_555 1_555
N2 N1 1_555 1_555
N3 N4 1_555 1_555
N4 N1 1_555 1_555
N5 C2 1_555 1_555
N6 C4 1_555 1_555
C1 N2 1_555 1_555
C2 C1 1_555 1_555
C3 N5 1_555 1_555
H3 C3 1_555 1_555
C4 C3 1_555 1_555
H4 C4 1_555 1_555
C5 N6 1_555 1_555
H5 C5 1_555 1_555
O2 H6 1_555 1_555
H7 O2 1_555 1_555
Cd1B I1B 1_555 1_555
Cd1B_2 N2 1_555 1_555
I1B Cd1 1_555 1_555
N2B Cd1 1_555 1_555
N5B Cd1 1_555 1_555
N3 C1 1_555 1_555
N5 Cd1B_2 1_555 1_555
C2 C5 1_555 1_555

#END
