
#######################################################################
#
#                 Cambridge Crystallographic Data Centre
#                                CCDC 
#
#######################################################################
#
# If this CIF has been generated from an entry in the Cambridge 
# Structural Database, then it will include bibliographic, chemical, 
# crystal, experimental, refinement or atomic coordinate data resulting 
# from the CCDC's data processing and validation procedures.
#
#######################################################################

data_WIQSUM
_symmetry_cell_setting           triclinic
_symmetry_space_group_name_H-M   'P -1'
_symmetry_Int_Tables_number      2
_space_group_name_Hall           '-P 1'
loop_
_symmetry_equiv_pos_site_id
_symmetry_equiv_pos_as_xyz
1 x,y,z
2 -x,-y,-z
_cell_length_a                   11.8891(19)
_cell_length_b                   14.0668(17)
_cell_length_c                   15.8196(11)
_cell_angle_alpha                112.635(2)
_cell_angle_beta                 103.240(3)
_cell_angle_gamma                98.954(2)
_cell_volume                     2287.82
loop_
_atom_site_label
_atom_site_type_symbol
_atom_site_fract_x
_atom_site_fract_y
_atom_site_fract_z
C1 C 0.9140(4) 1.1848(3) 0.4162(3)
C2 C 0.9309(4) 1.2521(4) 0.5138(3)
H1 H 0.9495 1.2283 0.5613
C3 C 0.9188(4) 1.3548(4) 0.5364(4)
H2 H 0.9315 1.4011 0.6005
C4 C 0.8889(4) 1.3891(4) 0.4671(4)
H3 H 0.8788 1.4575 0.4838
C5 C 0.8735(4) 1.3235(4) 0.3725(3)
H4 H 0.8546 1.3479 0.3254
C6 C 0.8864(4) 1.2191(3) 0.3469(3)
C7 C 0.8744(4) 1.1544(4) 0.2458(3)
H5 H 0.8724 1.1877 0.2050
C8 C 0.7931(4) 0.7795(4) -0.1491(3)
C9 C 0.8395(4) 0.8112(4) -0.2122(3)
H6 H 0.8733 0.8830 -0.1946
C10 C 0.8330(4) 0.7308(4) -0.3028(4)
H7 H 0.8608 0.7511 -0.3453
C11 C 0.7855(4) 0.6204(4) -0.3306(4)
H8 H 0.7808 0.5689 -0.3907
C12 C 0.7459(4) 0.5913(4) -0.2651(3)
H9 H 0.7174 0.5192 -0.2810
C13 C 0.7484(4) 0.6697(3) -0.1750(3)
C14 C 0.7048(4) 0.6348(4) -0.1125(3)
H10 H 0.6683 0.5621 -0.1365
C15 C 0.6537(4) 0.5506(4) 0.2244(3)
C16 C 0.5935(4) 0.4404(4) 0.1942(4)
H11 H 0.5590 0.3938 0.1290
C17 C 0.5879(4) 0.4049(4) 0.2638(4)
H12 H 0.5513 0.3333 0.2450
C18 C 0.6369(4) 0.4759(4) 0.3628(3)
H13 H 0.6305 0.4517 0.4090
C19 C 0.6957(4) 0.5836(4) 0.3913(4)
H14 H 0.7279 0.6305 0.4567
C20 C 0.7058(4) 0.6204(4) 0.3224(4)
C21 C 0.7700(4) 0.7312(4) 0.3590(3)
H15 H 0.8015 0.7724 0.4255
C22 C 1.1211(4) 0.9235(4) 0.3204(3)
C23 C 1.2099(4) 0.8733(4) 0.2799(3)
C24 C 1.2750(4) 0.9186(4) 0.2375(3)
C25 C 1.3517(4) 0.8686(4) 0.1928(3)
C26 C 1.3635(4) 0.7712(3) 0.1924(3)
C27 C 1.2972(4) 0.7256(4) 0.2339(3)
C28 C 1.2230(4) 0.7760(4) 0.2786(3)
C29 C 1.4466(4) 0.7153(4) 0.1439(3)
F1 F 1.4117(2) 0.9128(2) 0.15010(18)
F2 F 1.2680(2) 1.0113(2) 0.23815(18)
F3 F 1.1597(2) 0.7287(2) 0.31617(19)
F4 F 1.3065(2) 0.6344(2) 0.23431(19)
Mn1 Mn 0.86172(6) 0.96387(5) 0.28143(5)
Mn2 Mn 0.78871(6) 0.85285(5) 0.04645(5)
Mn3 Mn 0.72209(6) 0.71183(5) 0.15908(5)
N1 N 0.8664(3) 1.0528(3) 0.2105(3)
N2 N 0.7115(3) 0.6947(3) -0.0263(3)
N3 N 0.7855(3) 0.7754(3) 0.3027(3)
Na1 Na 1.0000 1.0000 0.5000
Na2 Na 0.5000 0.5000 0.0000
O1 O 0.7862(2) 0.8432(2) 0.1614(2)
O2 O 0.9312(2) 1.0863(2) 0.3979(2)
O3 O 0.8603(3) 1.0042(2) 0.1149(2)
O4 O 0.7963(3) 0.8571(2) -0.0683(2)
O5 O 0.6594(3) 0.6449(2) 0.0196(2)
O6 O 0.6556(2) 0.5801(2) 0.1547(2)
O7 O 0.8539(2) 0.8810(2) 0.3527(2)
O8 O 1.0388(3) 0.9384(2) 0.2678(2)
O9 O 1.1369(3) 0.9544(2) 0.4115(2)
O10 O 1.5551(3) 0.7695(2) 0.1722(2)
O11 O 1.4039(2) 0.6230(2) 0.0782(2)
O12 O 0.9794(2) 0.8325(2) 0.0731(2)
H16 H 0.9768 0.7581 0.0505
H17 H 1.0229 0.8698 0.1409
O13 O 0.9014(3) 0.6810(3) 0.1474(3)
H18 H 0.8910 0.6387 0.0885
H19 H 0.9580 0.7384 0.1804
O14 O 0.6002(3) 0.8752(4) 0.0272(3)
H20 H 0.5761 0.8754 0.0812
H21 H 0.5636 0.8164 -0.0224
O15 O 0.6759(2) 0.9840(2) 0.2860(2)
H22 H 0.6158 0.9272 0.2299
H23 H 0.6633 0.9818 0.3431
C1A C 0.0860(4) -0.1848(3) -0.4162(3)
C2A C 0.0691(4) -0.2521(4) -0.5138(3)
H1A H 0.0505 -0.2283 -0.5613
C3A C 0.0812(4) -0.3548(4) -0.5364(4)
H2A H 0.0685 -0.4011 -0.6005
C4A C 0.1111(4) -0.3891(4) -0.4671(4)
H3A H 0.1212 -0.4575 -0.4838
C5A C 0.1265(4) -0.3235(4) -0.3725(3)
H4A H 0.1454 -0.3479 -0.3254
C6A C 0.1136(4) -0.2191(3) -0.3469(3)
C7A C 0.1256(4) -0.1544(4) -0.2458(3)
H5A H 0.1276 -0.1877 -0.2050
C8A C 0.2069(4) 0.2205(4) 0.1491(3)
C9A C 0.1605(4) 0.1888(4) 0.2122(3)
H6A H 0.1267 0.1170 0.1946
C10A C 0.1670(4) 0.2692(4) 0.3028(4)
H7A H 0.1392 0.2489 0.3453
C11A C 0.2145(4) 0.3796(4) 0.3306(4)
H8A H 0.2192 0.4311 0.3907
C12A C 0.2541(4) 0.4087(4) 0.2651(3)
H9A H 0.2826 0.4808 0.2810
C13A C 0.2516(4) 0.3303(3) 0.1750(3)
C14A C 0.2952(4) 0.3652(4) 0.1125(3)
H10A H 0.3317 0.4379 0.1365
C15A C 0.3463(4) 0.4494(4) -0.2244(3)
C16A C 0.4065(4) 0.5596(4) -0.1942(4)
H11A H 0.4410 0.6062 -0.1290
C17A C 0.4121(4) 0.5951(4) -0.2638(4)
H12A H 0.4487 0.6667 -0.2450
C18A C 0.3631(4) 0.5241(4) -0.3628(3)
H13A H 0.3695 0.5483 -0.4090
C19A C 0.3043(4) 0.4164(4) -0.3913(4)
H14A H 0.2721 0.3695 -0.4567
C20A C 0.2942(4) 0.3796(4) -0.3224(4)
C21A C 0.2300(4) 0.2688(4) -0.3590(3)
H15A H 0.1985 0.2276 -0.4255
C22A C -0.1211(4) 0.0765(4) -0.3204(3)
C23A C -0.2099(4) 0.1267(4) -0.2799(3)
C24A C -0.2750(4) 0.0814(4) -0.2375(3)
C25A C -0.3517(4) 0.1314(4) -0.1928(3)
C26A C -0.3635(4) 0.2288(3) -0.1924(3)
C27A C -0.2972(4) 0.2744(4) -0.2339(3)
C28A C -0.2230(4) 0.2240(4) -0.2786(3)
C29A C -0.4466(4) 0.2847(4) -0.1439(3)
F1A F -0.4117(2) 0.0872(2) -0.15010(18)
F2A F -0.2680(2) -0.0113(2) -0.23815(18)
F3A F -0.1597(2) 0.2713(2) -0.31617(19)
F4A F -0.3065(2) 0.3656(2) -0.23431(19)
Mn1A Mn 0.13828(6) 0.03613(5) -0.28143(5)
Mn2A Mn 0.21129(6) 0.14715(5) -0.04645(5)
Mn3A Mn 0.27791(6) 0.28817(5) -0.15908(5)
N1A N 0.1336(3) -0.0528(3) -0.2105(3)
N2A N 0.2885(3) 0.3053(3) 0.0263(3)
N3A N 0.2145(3) 0.2246(3) -0.3027(3)
O1A O 0.2138(2) 0.1568(2) -0.1614(2)
O2A O 0.0688(2) -0.0863(2) -0.3979(2)
O3A O 0.1397(3) -0.0042(2) -0.1149(2)
O4A O 0.2037(3) 0.1429(2) 0.0683(2)
O5A O 0.3406(3) 0.3551(2) -0.0196(2)
O6A O 0.3444(2) 0.4199(2) -0.1547(2)
O7A O 0.1461(2) 0.1190(2) -0.3527(2)
O8A O -0.0388(3) 0.0616(2) -0.2678(2)
O9A O -0.1369(3) 0.0456(2) -0.4115(2)
O10A O -0.5551(3) 0.2305(2) -0.1722(2)
O11A O -0.4039(2) 0.3770(2) -0.0782(2)
O12A O 0.0206(2) 0.1675(2) -0.0731(2)
H16A H 0.0232 0.2419 -0.0505
H17A H -0.0229 0.1302 -0.1409
O13A O 0.0986(3) 0.3190(3) -0.1474(3)
H18A H 0.1090 0.3613 -0.0885
H19A H 0.0420 0.2616 -0.1804
O14A O 0.3998(3) 0.1248(4) -0.0272(3)
H20A H 0.4239 0.1246 -0.0812
H21A H 0.4364 0.1836 0.0224
O15A O 0.3241(2) 0.0160(2) -0.2860(2)
H22A H 0.3842 0.0728 -0.2299
H23A H 0.3367 0.0182 -0.3431
Mn3_2 Mn 1.72209(6) 0.71183(5) 0.15908(5)
Mn3A_2 Mn -0.72209(6) 0.28817(5) -0.15908(5)
Na1_2 Na 0.0000 0.0000 -0.5000
Na2_2 Na -0.5000 0.5000 0.0000
Na2_3 Na 1.5000 0.5000 0.0000
O2A_2 O 1.0688(2) 0.9137(2) 0.6021(2)
O7A_2 O 1.1461(2) 1.1190(2) 0.6473(2)
O9A_2 O 0.8631(3) 1.0456(2) 0.5885(2)
O10_2 O 0.5551(3) 0.7695(2) 0.1722(2)
O10A_2 O 0.4449(3) 0.2305(2) -0.1722(2)
O11_2 O 0.4039(2) 0.6230(2) 0.0782(2)
O11A_2 O 0.5961(2) 0.3770(2) -0.0782(2)
C30 C 0.6109(10) 0.1990(9) 0.2963(8)
H24 H 0.6765 0.2603 0.3161
H25 H 0.6401 0.1477 0.3150
H26 H 0.5521 0.2206 0.3267
C31 C 0.5528(9) 0.1475(9) 0.1847(9)
H27 H 0.5407 0.0729 0.1724
H28 H 0.4740 0.1597 0.1712
H29 H 0.5964 0.1414 0.0826
O16 O 0.6118(6) 0.1857(6) 0.1405(6)
C32 C 0.5346(9) 0.7984(8) 0.5063(9)
H30 H 0.5649 0.7457 0.4652
H31 H 0.4584 0.7643 0.5068
H32 H 0.5901 0.8327 0.5707
C33 C 0.5196(9) 0.8793(8) 0.4694(7)
H33 H 0.4588 0.8482 0.4065
H34 H 0.4988 0.9386 0.5138
O17 O 0.6327(7) 0.9110(6) 0.4640(5)
H35 H 0.6656 0.9863 0.5053
C34 C 0.9668(5) 0.4133(4) 0.1306(4)
H36 H 1.0172 0.4855 0.1631
H37 H 1.0157 0.3646 0.1271
H38 H 0.9133 0.4042 0.1658
C35 C 0.8970(5) 0.3917(5) 0.0331(4)
H39 H 0.9525 0.3905 -0.0034
H40 H 0.8435 0.3200 0.0038
O18 O 0.8328(3) 0.4547(3) 0.0210(3)
H41 H 0.7984 0.4343 -0.0389
O19 O 0.5000 0.5000 0.5000
H42 H 0.5445 0.5457 0.5562
H42A H 0.4555 0.4543 0.4438
O20 O 0.1432(8) 0.9045(7) 0.0110(6)
H43 H 0.1137 0.9018 -0.0444
H44 H 0.2061 0.9567 0.0427
H45? H 0.4767 0.4401 0.5007
loop_
_geom_bond_atom_site_label_1
_geom_bond_atom_site_label_2
_geom_bond_site_symmetry_1
_geom_bond_site_symmetry_2
C1 C2 1_555 1_555
C2 H1 1_555 1_555
C3 C2 1_555 1_555
H2 C3 1_555 1_555
C4 C3 1_555 1_555
H3 C4 1_555 1_555
C5 C4 1_555 1_555
H4 C5 1_555 1_555
C6 C1 1_555 1_555
C7 C6 1_555 1_555
H5 C7 1_555 1_555
C8 C9 1_555 1_555
C9 H6 1_555 1_555
C10 C9 1_555 1_555
H7 C10 1_555 1_555
C11 C10 1_555 1_555
H8 C11 1_555 1_555
C12 C11 1_555 1_555
H9 C12 1_555 1_555
C13 C8 1_555 1_555
C14 C13 1_555 1_555
H10 C14 1_555 1_555
C15 C16 1_555 1_555
C16 H11 1_555 1_555
C17 C16 1_555 1_555
H12 C17 1_555 1_555
C18 C17 1_555 1_555
H13 C18 1_555 1_555
C19 C18 1_555 1_555
H14 C19 1_555 1_555
C20 C15 1_555 1_555
C21 C20 1_555 1_555
H15 C21 1_555 1_555
C22 C23 1_555 1_555
C23 C24 1_555 1_555
C24 C25 1_555 1_555
C25 C26 1_555 1_555
C26 C27 1_555 1_555
C27 C28 1_555 1_555
C28 C23 1_555 1_555
C29 C26 1_555 1_555
F1 C25 1_555 1_555
F2 C24 1_555 1_555
F3 C28 1_555 1_555
F4 C27 1_555 1_555
Mn1 N1 1_555 1_555
Mn2 N2 1_555 1_555
Mn3 N3 1_555 1_555
N1 C7 1_555 1_555
N2 C14 1_555 1_555
N3 C21 1_555 1_555
Na1 O2 1_555 1_555
Na2 O5 1_555 1_555
O1 Mn1 1_555 1_555
O2 C1 1_555 1_555
O3 Mn2 1_555 1_555
O4 C8 1_555 1_555
O5 Mn3 1_555 1_555
O6 C15 1_555 1_555
O7 Mn1 1_555 1_555
O8 C22 1_555 1_555
O9 C22 1_555 1_555
O10 C29 1_555 1_555
O11 C29 1_555 1_555
O12 Mn2 1_555 1_555
H16 O12 1_555 1_555
H17 O12 1_555 1_555
O13 Mn3 1_555 1_555
H18 O13 1_555 1_555
H19 O13 1_555 1_555
O14 Mn2 1_555 1_555
H20 O14 1_555 1_555
H21 O14 1_555 1_555
O15 Mn1 1_555 1_555
H22 O15 1_555 1_555
H23 O15 1_555 1_555
C30 H24 1_555 1_555
H25 C30 1_555 1_555
H26 C30 1_555 1_555
C31 C30 1_555 1_555
H27 C31 1_555 1_555
H28 C31 1_555 1_555
H29 O16 1_555 1_555
O16 C31 1_555 1_555
C32 H30 1_555 1_555
H31 C32 1_555 1_555
H32 C32 1_555 1_555
C33 C32 1_555 1_555
H33 C33 1_555 1_555
H34 C33 1_555 1_555
O17 C33 1_555 1_555
H35 O17 1_555 1_555
C34 H36 1_555 1_555
H37 C34 1_555 1_555
H38 C34 1_555 1_555
C35 C34 1_555 1_555
H39 C35 1_555 1_555
H40 C35 1_555 1_555
O18 C35 1_555 1_555
H41 O18 1_555 1_555
O19 H42 1_555 1_555
O20 H43 1_555 1_555
H44 O20 1_555 1_555
C1A C2A 1_555 1_555
C2A H1A 1_555 1_555
C3A C2A 1_555 1_555
H2A C3A 1_555 1_555
C4A C3A 1_555 1_555
H3A C4A 1_555 1_555
C5A C4A 1_555 1_555
H4A C5A 1_555 1_555
C6A C1A 1_555 1_555
C7A C6A 1_555 1_555
H5A C7A 1_555 1_555
C8A C9A 1_555 1_555
C9A H6A 1_555 1_555
C10A C9A 1_555 1_555
H7A C10A 1_555 1_555
C11A C10A 1_555 1_555
H8A C11A 1_555 1_555
C12A C11A 1_555 1_555
H9A C12A 1_555 1_555
C13A C8A 1_555 1_555
C14A C13A 1_555 1_555
H10A C14A 1_555 1_555
C15A C16A 1_555 1_555
C16A H11A 1_555 1_555
C17A C16A 1_555 1_555
H12A C17A 1_555 1_555
C18A C17A 1_555 1_555
H13A C18A 1_555 1_555
C19A C18A 1_555 1_555
H14A C19A 1_555 1_555
C20A C15A 1_555 1_555
C21A C20A 1_555 1_555
H15A C21A 1_555 1_555
C22A C23A 1_555 1_555
C23A C24A 1_555 1_555
C24A C25A 1_555 1_555
C25A C26A 1_555 1_555
C26A C27A 1_555 1_555
C27A C28A 1_555 1_555
C28A C23A 1_555 1_555
C29A C26A 1_555 1_555
F1A C25A 1_555 1_555
F2A C24A 1_555 1_555
F3A C28A 1_555 1_555
F4A C27A 1_555 1_555
Mn1A N1A 1_555 1_555
Mn2A N2A 1_555 1_555
Mn3A N3A 1_555 1_555
N1A C7A 1_555 1_555
N2A C14A 1_555 1_555
N3A C21A 1_555 1_555
O1A Mn1A 1_555 1_555
O2A C1A 1_555 1_555
O3A Mn2A 1_555 1_555
O4A C8A 1_555 1_555
O5A Na2 1_555 1_555
O6A Na2 1_555 1_555
O7A Mn1A 1_555 1_555
O8A C22A 1_555 1_555
O9A C22A 1_555 1_555
O10A C29A 1_555 1_555
O11A C29A 1_555 1_555
O12A Mn2A 1_555 1_555
H16A O12A 1_555 1_555
H17A O12A 1_555 1_555
O13A Mn3A 1_555 1_555
H18A O13A 1_555 1_555
H19A O13A 1_555 1_555
O14A Mn2A 1_555 1_555
H20A O14A 1_555 1_555
H21A O14A 1_555 1_555
O15A Mn1A 1_555 1_555
H22A O15A 1_555 1_555
H23A O15A 1_555 1_555
Mn3_2 O10 1_555 1_555
Mn3A_2 O10A 1_555 1_555
Na1_2 O2A 1_555 1_555
Na2_2 O11A 1_555 1_555
Na2_3 O11 1_555 1_555
O2A_2 Na1 1_555 1_555
O7A_2 Na1 1_555 1_555
O9A_2 Na1 1_555 1_555
O10_2 Mn3 1_555 1_555
O10A_2 Mn3A 1_555 1_555
O11_2 Na2 1_555 1_555
O11A_2 Na2 1_555 1_555
H42A O19 1_555 1_555
C5 C6 1_555 1_555
C12 C13 1_555 1_555
C19 C20 1_555 1_555
Mn1 O2 1_555 1_555
Mn1 O8 1_555 1_555
Mn2 O1 1_555 1_555
Mn2 O4 1_555 1_555
Mn3 O1 1_555 1_555
Mn3 O6 1_555 1_555
N1 O3 1_555 1_555
N2 O5 1_555 1_555
N3 O7 1_555 1_555
Na1 O7 1_555 1_555
Na1 O9 1_555 1_555
Na2 O6 1_555 1_555
C5A C6A 1_555 1_555
C12A C13A 1_555 1_555
C15A O6A 1_555 1_555
C19A C20A 1_555 1_555
Mn1A O2A 1_555 1_555
Mn1A O8A 1_555 1_555
Mn2A O1A 1_555 1_555
Mn2A O4A 1_555 1_555
Mn3A O1A 1_555 1_555
Mn3A O5A 1_555 1_555
Mn3A O6A 1_555 1_555
N1A O3A 1_555 1_555
N2A O5A 1_555 1_555
N3A O7A 1_555 1_555
O7A Na1_2 1_555 1_555
O9A Na1_2 1_555 1_555

#END
