
#######################################################################
#
#                 Cambridge Crystallographic Data Centre
#                                CCDC 
#
#######################################################################
#
# If this CIF has been generated from an entry in the Cambridge 
# Structural Database, then it will include bibliographic, chemical, 
# crystal, experimental, refinement or atomic coordinate data resulting 
# from the CCDC's data processing and validation procedures.
#
#######################################################################

data_WIQSAS
_symmetry_cell_setting           monoclinic
_symmetry_space_group_name_H-M   'C 2/c'
_symmetry_Int_Tables_number      15
_space_group_name_Hall           '-C 2yn'
loop_
_symmetry_equiv_pos_site_id
_symmetry_equiv_pos_as_xyz
1 x,y,z
2 -x,y,1/2-z
3 1/2+x,1/2+y,z
4 1/2-x,1/2+y,1/2-z
5 -x,-y,-z
6 x,-y,1/2+z
7 1/2-x,1/2-y,-z
8 1/2+x,1/2-y,1/2+z
_cell_length_a                   20.232(2)
_cell_length_b                   15.2753(18)
_cell_length_c                   23.776(4)
_cell_angle_alpha                90
_cell_angle_beta                 113.435(2)
_cell_angle_gamma                90
_cell_volume                     6741.85
loop_
_atom_site_label
_atom_site_type_symbol
_atom_site_fract_x
_atom_site_fract_y
_atom_site_fract_z
Zn1 Zn 0.26884(2) 0.28035(3) 0.29188(2)
O1 O 0.29018(18) 0.36173(19) 0.37182(14)
O2 O 0.20095(16) 0.39471(19) 0.28787(14)
O3 O 0.04899(16) 0.8805(2) 0.52637(14)
H1 H 0.0075(13) 0.882(4) 0.503(2)
O4 O 0.29515(15) 0.13024(18) 0.38180(13)
O5 O 0.34530(14) 0.19343(17) 0.32436(13)
O6 O 0.70850(18) -0.3407(2) 0.44481(16)
H2 H 0.728(3) -0.335(4) 0.421(2)
N1 N 0.30715(17) 0.33704(19) 0.23202(14)
N2 N 0.68274(16) 0.70508(19) 0.23849(13)
C1 C 0.2369(3) 0.4094(3) 0.3435(2)
C2 C 0.2152(2) 0.4812(2) 0.37474(16)
C3 C 0.1705(2) 0.5457(3) 0.34003(18)
H3 H 0.1567 0.5459 0.2978
C4 C 0.1457(2) 0.6103(3) 0.36722(18)
H4 H 0.1163 0.6542 0.3429
C5 C 0.1633(2) 0.6117(2) 0.42927(17)
C6 C 0.2085(2) 0.5458(3) 0.46359(18)
H5 H 0.2216 0.5447 0.5058
C7 C 0.2343(2) 0.4818(3) 0.43668(18)
H6 H 0.2650 0.4387 0.4609
C8 C 0.1327(2) 0.6794(2) 0.45681(18)
C9 C 0.0622(2) 0.7072(2) 0.42648(18)
H7 H 0.0337 0.6810 0.3894
C10 C 0.0327(2) 0.7720(2) 0.44914(19)
H8 H -0.0150 0.7886 0.4278
C11 C 0.0741(2) 0.8122(3) 0.50349(18)
C12 C 0.1436(2) 0.7846(3) 0.5358(2)
H9 H 0.1714 0.8103 0.5733
C13 C 0.1723(2) 0.7183(3) 0.51253(19)
H10 H 0.2193 0.6997 0.5349
C14 C 0.3407(2) 0.1321(3) 0.35968(18)
C15 C 0.39446(19) 0.0601(2) 0.37174(16)
C16 C 0.4052(2) -0.0014(3) 0.41649(18)
H11 H 0.3780 0.0012 0.4401
C17 C 0.4555(2) -0.0671(2) 0.42718(18)
H12 H 0.4608 -0.1083 0.4575
C18 C 0.49830(19) -0.0736(2) 0.39429(16)
C19 C 0.4857(2) -0.0129(2) 0.34801(17)
H13 H 0.5118 -0.0166 0.3235
C20 C 0.4358(2) 0.0529(2) 0.33728(17)
H14 H 0.4295 0.0933 0.3063
C21 C 0.55427(19) -0.1426(2) 0.40711(17)
C22 C 0.5826(2) -0.1857(3) 0.46268(18)
H15 H 0.5666 -0.1709 0.4931
C23 C 0.6343(2) -0.2506(3) 0.4744(2)
H16 H 0.6524 -0.2782 0.5124
C24 C 0.6590(2) -0.2743(2) 0.4310(2)
C25 C 0.6322(2) -0.2325(2) 0.3758(2)
H17 H 0.6484 -0.2482 0.3457
C26 C 0.5816(2) -0.1673(2) 0.36427(18)
H18 H 0.5650 -0.1389 0.3266
C27 C 0.2724(2) 0.4012(3) 0.19389(18)
H19 H 0.2286 0.4197 0.1937
C28 C 0.2976(2) 0.4414(3) 0.15497(18)
H20 H 0.2711 0.4860 0.1293
C29 C 0.3618(2) 0.4159(3) 0.15398(19)
C30 C 0.3969(3) 0.3481(3) 0.1929(2)
H21 H 0.4403 0.3274 0.1931
C31 C 0.3690(2) 0.3111(3) 0.2308(2)
H22 H 0.3944 0.2661 0.2567
C32 C 0.3945(2) 0.4612(3) 0.1149(2)
H23 H 0.3595 0.5003 0.0861
H24 H 0.4088 0.4183 0.0919
C33 C 0.4617(3) 0.5144(3) 0.1580(2)
H25 H 0.4460 0.5624 0.1764
H26 H 0.4926 0.4767 0.1907
C34 C 0.5026(3) 0.5492(3) 0.1244(2)
H27 H 0.4716 0.5864 0.0914
H28 H 0.5188 0.5012 0.1064
C35 C 0.5670(2) 0.6014(3) 0.1660(2)
C36 C 0.6346(3) 0.5666(3) 0.1943(2)
H29 H 0.6425 0.5074 0.1904
C37 C 0.6906(2) 0.6203(3) 0.2286(2)
H30 H 0.7366 0.5963 0.2459
C38 C 0.6169(3) 0.7357(3) 0.2113(2)
H31 H 0.6091 0.7946 0.2166
C39 C 0.5600(3) 0.6868(4) 0.1761(3)
H32 H 0.5148 0.7128 0.1584
Zn1B Zn 0.76884(2) 0.78035(3) 0.29188(2)
N2B N 0.18274(16) 0.20508(19) 0.23849(13)
O7 O 0.41527(18) 0.4360(2) 0.45842(18)
H33 H 0.380(2) 0.417(3) 0.4288(19)
H34 H 0.415(3) 0.4890(14) 0.463(2)
loop_
_geom_bond_atom_site_label_1
_geom_bond_atom_site_label_2
_geom_bond_site_symmetry_1
_geom_bond_site_symmetry_2
Zn1 O1 1_555 1_555
O1 C1 1_555 1_555
O2 Zn1 1_555 1_555
O3 H1 1_555 1_555
O4 C14 1_555 1_555
O5 Zn1 1_555 1_555
O6 H2 1_555 1_555
N1 Zn1 1_555 1_555
N2 C37 1_555 1_555
C1 O2 1_555 1_555
C2 C1 1_555 1_555
C3 C2 1_555 1_555
H3 C3 1_555 1_555
C4 C3 1_555 1_555
H4 C4 1_555 1_555
C5 C4 1_555 1_555
C6 C5 1_555 1_555
H5 C6 1_555 1_555
C7 C2 1_555 1_555
H6 C7 1_555 1_555
C8 C5 1_555 1_555
C9 C8 1_555 1_555
H7 C9 1_555 1_555
C10 C9 1_555 1_555
H8 C10 1_555 1_555
C11 O3 1_555 1_555
C12 C11 1_555 1_555
H9 C12 1_555 1_555
C13 C8 1_555 1_555
H10 C13 1_555 1_555
C14 O5 1_555 1_555
C15 C14 1_555 1_555
C16 C15 1_555 1_555
H11 C16 1_555 1_555
C17 C16 1_555 1_555
H12 C17 1_555 1_555
C18 C17 1_555 1_555
C19 C18 1_555 1_555
H13 C19 1_555 1_555
C20 C15 1_555 1_555
H14 C20 1_555 1_555
C21 C18 1_555 1_555
C22 C21 1_555 1_555
H15 C22 1_555 1_555
C23 C22 1_555 1_555
H16 C23 1_555 1_555
C24 O6 1_555 1_555
C25 C24 1_555 1_555
H17 C25 1_555 1_555
C26 C21 1_555 1_555
H18 C26 1_555 1_555
C27 N1 1_555 1_555
H19 C27 1_555 1_555
C28 C27 1_555 1_555
H20 C28 1_555 1_555
C29 C28 1_555 1_555
C30 C29 1_555 1_555
H21 C30 1_555 1_555
C31 N1 1_555 1_555
H22 C31 1_555 1_555
C32 C29 1_555 1_555
H23 C32 1_555 1_555
H24 C32 1_555 1_555
C33 C32 1_555 1_555
H25 C33 1_555 1_555
H26 C33 1_555 1_555
C34 C33 1_555 1_555
H27 C34 1_555 1_555
H28 C34 1_555 1_555
C35 C34 1_555 1_555
C36 C35 1_555 1_555
H29 C36 1_555 1_555
C37 C36 1_555 1_555
H30 C37 1_555 1_555
C38 N2 1_555 1_555
H31 C38 1_555 1_555
C39 C35 1_555 1_555
H32 C39 1_555 1_555
O7 H33 1_555 1_555
H34 O7 1_555 1_555
Zn1B N2 1_555 1_555
N2B Zn1 1_555 1_555
C6 C7 1_555 1_555
C10 C11 1_555 1_555
C12 C13 1_555 1_555
C19 C20 1_555 1_555
C23 C24 1_555 1_555
C25 C26 1_555 1_555
C30 C31 1_555 1_555
C38 C39 1_555 1_555

#END
