
#######################################################################
#
#                 Cambridge Crystallographic Data Centre
#                                CCDC 
#
#######################################################################
#
# If this CIF has been generated from an entry in the Cambridge 
# Structural Database, then it will include bibliographic, chemical, 
# crystal, experimental, refinement or atomic coordinate data resulting 
# from the CCDC's data processing and validation procedures.
#
#######################################################################

data_WIQSOG
_symmetry_cell_setting           monoclinic
_symmetry_space_group_name_H-M   'P 21/c'
_symmetry_Int_Tables_number      14
_space_group_name_Hall           '-P 2ybc'
loop_
_symmetry_equiv_pos_site_id
_symmetry_equiv_pos_as_xyz
1 x,y,z
2 -x,1/2+y,1/2-z
3 -x,-y,-z
4 x,1/2-y,1/2+z
_cell_length_a                   9.903(3)
_cell_length_b                   13.561(5)
_cell_length_c                   9.958(3)
_cell_angle_alpha                90
_cell_angle_beta                 113.312(6)
_cell_angle_gamma                90
_cell_volume                     1228.13
loop_
_atom_site_label
_atom_site_type_symbol
_atom_site_fract_x
_atom_site_fract_y
_atom_site_fract_z
Br1 Br 1.32201(5) 1.01639(4) 0.41855(6)
Ni1 Ni 0.5000 1.0000 0.0000
O1 O 0.5166(3) 0.61746(18) 0.3769(3)
O2 O 0.3034(3) 0.95703(18) 0.0128(3)
O3 O 0.2085(3) 0.83850(19) 0.1034(3)
O4 O 0.3034(3) 0.6951(2) 0.2647(3)
N1 N 0.5820(3) 0.9018(2) 0.1746(3)
C1 C 0.3163(4) 0.8830(3) 0.0918(4)
N2 N 0.6692(4) 0.7706(2) 0.3125(4)
C2 C 0.7026(4) 0.8547(2) 0.2586(4)
C3 C 0.5174(4) 0.7649(3) 0.2612(4)
C4 C 0.4664(4) 0.8475(2) 0.1769(4)
C5 C 0.4422(4) 0.6861(3) 0.3039(4)
C6 C 0.8743(5) 0.9917(3) 0.2934(4)
H1 H 0.7941 1.0342 0.2664
C7 C 0.8531(4) 0.8902(3) 0.2980(4)
C8 C 0.9735(5) 0.8266(3) 0.3418(4)
H2 H 0.9599 0.7590 0.3459
C9 C 1.0139(4) 1.0295(3) 0.3290(4)
H3 H 1.0283 1.0970 0.3253
C10 C 1.1137(5) 0.8646(3) 0.3790(4)
H4 H 1.1950 0.8230 0.4097
C11 C 1.1308(5) 0.9657(3) 0.3698(4)
H5 H 0.275(8) 0.730(6) 0.206(8)
H6 H 0.728(6) 0.733(4) 0.373(6)
Br1B Br -0.32201(5) 0.98361(4) -0.41855(6)
O1B O 0.4834(3) 1.38254(18) -0.3769(3)
O2B O 0.6966(3) 1.04297(18) -0.0128(3)
O3B O 0.7915(3) 1.16150(19) -0.1034(3)
O4B O 0.6966(3) 1.3049(2) -0.2647(3)
N1B N 0.4180(3) 1.0982(2) -0.1746(3)
C1B C 0.6837(4) 1.1170(3) -0.0918(4)
N2B N 0.3308(4) 1.2294(2) -0.3125(4)
C2B C 0.2974(4) 1.1453(2) -0.2586(4)
C3B C 0.4826(4) 1.2351(3) -0.2612(4)
C4B C 0.5336(4) 1.1525(2) -0.1769(4)
C5B C 0.5578(4) 1.3139(3) -0.3039(4)
C6B C 0.1257(5) 1.0083(3) -0.2934(4)
H1B H 0.2059 0.9658 -0.2664
C7B C 0.1469(4) 1.1098(3) -0.2980(4)
C8B C 0.0265(5) 1.1734(3) -0.3418(4)
H2B H 0.0401 1.2410 -0.3459
C9B C -0.0139(4) 0.9705(3) -0.3290(4)
H3B H -0.0283 0.9030 -0.3253
C10B C -0.1137(5) 1.1354(3) -0.3790(4)
H4B H -0.1950 1.1770 -0.4097
C11B C -0.1308(5) 1.0343(3) -0.3698(4)
H5B H 0.725(8) 1.270(6) -0.206(8)
H6B H 0.272(6) 1.267(4) -0.373(6)
Ni1A Ni 0.5000 0.5000 0.5000
Ni1A_2 Ni 0.5000 1.5000 -0.5000
O1A O 0.4834(3) 1.11746(18) 0.1231(3)
O1C O 0.5166(3) 0.88254(18) -0.1231(3)
O5 O 0.8738(4) 0.6250(2) 0.4671(3)
H7 H 0.845(6) 0.577(4) 0.484(6)
loop_
_geom_bond_atom_site_label_1
_geom_bond_atom_site_label_2
_geom_bond_site_symmetry_1
_geom_bond_site_symmetry_2
Br1 C11 1_555 1_555
Ni1 O2 1_555 1_555
O1 C5 1_555 1_555
O2 C1 1_555 1_555
O3 C1 1_555 1_555
O4 C5 1_555 1_555
N1 Ni1 1_555 1_555
C1 C4 1_555 1_555
N2 C2 1_555 1_555
C2 N1 1_555 1_555
C3 N2 1_555 1_555
C4 N1 1_555 1_555
C5 C3 1_555 1_555
C6 H1 1_555 1_555
C7 C2 1_555 1_555
C8 C7 1_555 1_555
H2 C8 1_555 1_555
C9 C6 1_555 1_555
H3 C9 1_555 1_555
C10 C8 1_555 1_555
H4 C10 1_555 1_555
C11 C9 1_555 1_555
H5 O4 1_555 1_555
H6 N2 1_555 1_555
O5 H7 1_555 1_555
Br1B C11B 1_555 1_555
O1B C5B 1_555 1_555
O2B Ni1 1_555 1_555
O3B C1B 1_555 1_555
O4B C5B 1_555 1_555
N1B Ni1 1_555 1_555
C1B O2B 1_555 1_555
N2B C2B 1_555 1_555
C2B N1B 1_555 1_555
C3B N2B 1_555 1_555
C4B N1B 1_555 1_555
C5B C3B 1_555 1_555
C6B H1B 1_555 1_555
C7B C2B 1_555 1_555
C8B C7B 1_555 1_555
H2B C8B 1_555 1_555
C9B C6B 1_555 1_555
H3B C9B 1_555 1_555
C10B C8B 1_555 1_555
H4B C10B 1_555 1_555
C11B C9B 1_555 1_555
H5B O4B 1_555 1_555
H6B N2B 1_555 1_555
Ni1A O1 1_555 1_555
Ni1A_2 O1B 1_555 1_555
O1A Ni1 1_555 1_555
O1C Ni1 1_555 1_555
C3 C4 1_555 1_555
C6 C7 1_555 1_555
C10 C11 1_555 1_555
C1B C4B 1_555 1_555
C3B C4B 1_555 1_555
C6B C7B 1_555 1_555
C10B C11B 1_555 1_555

#END
