
#######################################################################
#
#                 Cambridge Crystallographic Data Centre
#                                CCDC 
#
#######################################################################
#
# If this CIF has been generated from an entry in the Cambridge 
# Structural Database, then it will include bibliographic, chemical, 
# crystal, experimental, refinement or atomic coordinate data resulting 
# from the CCDC's data processing and validation procedures.
#
#######################################################################

data_WIQVID
_symmetry_cell_setting           orthorhombic
_symmetry_space_group_name_H-M   'P n a 21'
_symmetry_Int_Tables_number      33
_space_group_name_Hall           'P 2c -2n'
loop_
_symmetry_equiv_pos_site_id
_symmetry_equiv_pos_as_xyz
1 x,y,z
2 -x,-y,1/2+z
3 1/2-x,1/2+y,1/2+z
4 1/2+x,1/2-y,z
_cell_length_a                   11.8394(11)
_cell_length_b                   16.5929(13)
_cell_length_c                   23.7092(17)
_cell_angle_alpha                90
_cell_angle_beta                 90
_cell_angle_gamma                90
_cell_volume                     4657.67
loop_
_atom_site_label
_atom_site_type_symbol
_atom_site_fract_x
_atom_site_fract_y
_atom_site_fract_z
Co1 Co 0.61727(6) 0.21308(4) 0.34208(3)
Co2 Co 0.32846(6) 0.14204(4) 0.32720(3)
Co3 Co 0.41438(6) 0.31759(4) 0.36045(3)
S1 S 0.77068(16) 0.07945(11) -0.02050(8)
S2 S 0.66739(17) 0.24647(11) 0.00109(9)
S3 S 0.71091(18) 0.42639(11) -0.01471(8)
S4 S -0.00491(16) 0.07222(10) 0.70335(7)
S5 S 0.05814(15) 0.24916(10) 0.68420(9)
S6 S -0.02982(15) 0.42136(10) 0.70098(7)
O1 O 0.5962(3) 0.1365(2) 0.27384(17)
O2 O 0.4130(3) 0.1460(2) 0.24952(16)
O3 O 0.5263(3) 0.3058(2) 0.28597(17)
O4 O 0.6759(3) 0.3878(2) 0.28918(17)
O5 O 0.2668(3) 0.1305(2) 0.41016(17)
O6 O 0.0970(3) 0.1879(2) 0.40568(17)
O7 O 0.3338(3) 0.3230(2) 0.43712(16)
O8 O 0.1650(3) 0.3655(2) 0.40616(16)
O9 O 0.4569(3) 0.1977(2) 0.36877(15)
H1 H 0.4578 0.1842 0.4035
O10 O 0.7780(3) 0.2314(2) 0.31650(16)
H2 H 0.7858 0.2210 0.2813
N1 N 0.8626(5) 0.2219(4) -0.0412(3)
N2 N 0.8502(5) 0.3040(4) -0.0393(3)
N3 N -0.1256(5) 0.2013(4) 0.7285(3)
N4 N -0.1320(5) 0.2851(4) 0.7274(3)
N5 N 0.3684(4) 0.0144(2) 0.33538(19)
N6 N 0.4057(4) -0.5553(3) 0.3479(2)
C1 C 0.5153(5) 0.1380(3) 0.2386(2)
C2 C 0.5483(5) 0.1259(3) 0.1779(3)
C3 C 0.4695(5) 0.1334(4) 0.1349(3)
H3 H 0.3965 0.1505 0.1432
C4 C 0.4987(6) 0.1158(4) 0.0798(3)
H4 H 0.4450 0.1214 0.0515
C5 C 0.6062(6) 0.0899(4) 0.0661(3)
C6 C 0.6865(5) 0.0854(3) 0.1083(3)
H5 H 0.7600 0.0702 0.0995
C7 C 0.6585(5) 0.1033(4) 0.1632(3)
H6 H 0.7137 0.1003 0.1911
C8 C 0.6296(6) 0.0628(4) 0.0055(3)
H7 H 0.5773 0.0906 -0.0192
H8 H 0.6133 0.0057 0.0028
C9 C 0.7751(5) 0.1834(4) -0.0217(3)
C10 C 0.7506(6) 0.3261(4) -0.0193(3)
C11 C 0.5767(6) 0.4171(4) 0.0218(3)
H9 H 0.5358 0.4674 0.0175
H10 H 0.5328 0.3754 0.0033
C12 C 0.5833(6) 0.3973(4) 0.0842(3)
C13 C 0.4978(6) 0.3561(4) 0.1109(3)
H11 H 0.4369 0.3379 0.0896
C14 C 0.4991(6) 0.3409(3) 0.1678(3)
H12 H 0.4403 0.3123 0.1844
C15 C 0.5880(5) 0.3682(3) 0.2006(3)
C16 C 0.6758(6) 0.4079(4) 0.1746(3)
H13 H 0.7373 0.4248 0.1960
C17 C 0.6737(6) 0.4231(4) 0.1171(3)
H14 H 0.7332 0.4508 0.1004
C18 C 0.5963(5) 0.3530(3) 0.2629(2)
C19 C 0.1760(5) 0.1521(3) 0.4317(2)
C20 C 0.1620(5) 0.1360(3) 0.4939(2)
C21 C 0.0575(6) 0.1190(4) 0.5164(3)
H15 H -0.0063 0.1209 0.4935
C22 C 0.0466(5) 0.0992(4) 0.5730(3)
H16 H -0.0244 0.0868 0.5873
C23 C 0.1382(6) 0.0974(3) 0.6081(3)
C24 C 0.2421(6) 0.1180(4) 0.5862(3)
H17 H 0.3047 0.1204 0.6099
C25 C 0.2544(5) 0.1352(4) 0.5292(3)
H18 H 0.3257 0.1462 0.5147
C26 C 0.1317(6) 0.0710(4) 0.6693(3)
H19 H 0.1820 0.1053 0.6909
H20 H 0.1611 0.0166 0.6716
C27 C -0.0315(5) 0.1753(4) 0.7080(3)
C28 C -0.0417(5) 0.3170(4) 0.7072(3)
C29 C 0.1130(5) 0.4302(4) 0.6746(3)
H21 H 0.1346 0.4865 0.6769
H22 H 0.1621 0.4006 0.7000
C30 C 0.1369(5) 0.4017(4) 0.6154(3)
C31 C 0.2369(5) 0.3634(4) 0.6038(3)
H23 H 0.2851 0.3501 0.6333
C32 C 0.2676(5) 0.3441(4) 0.5492(3)
H24 H 0.3352 0.3171 0.5426
C33 C 0.1986(5) 0.3645(3) 0.5046(2)
C34 C 0.0938(5) 0.3988(4) 0.5160(3)
H25 H 0.0434 0.4092 0.4868
C35 C 0.0651(5) 0.4175(4) 0.5710(3)
H26 H -0.0045 0.4413 0.5782
C36 C 0.2349(5) 0.3498(3) 0.4445(2)
C37 C 0.2940(5) -0.0418(3) 0.3192(3)
H27 H 0.2256 -0.0250 0.3039
C38 C 0.3139(5) -0.1239(3) 0.3243(3)
H28 H 0.2589 -0.1605 0.3129
C39 C 0.4143(5) -0.1517(3) 0.3460(2)
C40 C 0.4902(5) -0.0936(3) 0.3630(3)
H29 H 0.5586 -0.1090 0.3789
C41 C 0.4658(5) -0.0128(3) 0.3565(3)
H30 H 0.5199 0.0247 0.3675
C42 C 0.4420(5) -0.2403(3) 0.3508(3)
H31 H 0.5068 -0.2513 0.3270
H32 H 0.4644 -0.2511 0.3894
C43 C 0.3508(5) -0.2978(3) 0.3354(3)
H33 H 0.3281 -0.2863 0.2970
H34 H 0.2862 -0.2865 0.3594
C44 C 0.3757(5) -0.3870(3) 0.3395(3)
C45 C 0.2951(5) -0.4412(3) 0.3205(3)
H35 H 0.2289 -0.4222 0.3041
C46 C 0.3126(5) -0.5229(3) 0.3257(3)
H36 H 0.2562 -0.5574 0.3130
C47 C 0.4840(5) -0.5031(3) 0.3650(3)
H37 H 0.5508 -0.5239 0.3797
C48 C 0.4733(5) -0.4209(3) 0.3625(3)
H38 H 0.5308 -0.3879 0.3760
Co1C Co 0.11727(6) 0.28692(4) 0.34208(3)
Co2C Co 0.82846(6) 0.35796(4) 0.32720(3)
Co3_2 Co 0.41438(6) -0.68241(4) 0.36045(3)
Co3C Co -0.08562(6) 0.18241(4) 0.36045(3)
Co3C_2 Co 0.91438(6) 0.18241(4) 0.36045(3)
O4C O 0.1759(3) 0.1122(2) 0.28918(17)
O6C O 0.5970(3) 0.3121(2) 0.40568(17)
O8C O 0.6650(3) 0.1345(2) 0.40616(16)
O10C O 0.2780(3) 0.2686(2) 0.31650(16)
N6_2 N 0.4057(4) 0.4447(3) 0.3479(2)
loop_
_geom_bond_atom_site_label_1
_geom_bond_atom_site_label_2
_geom_bond_site_symmetry_1
_geom_bond_site_symmetry_2
Co1 O1 1_555 1_555
Co2 O2 1_555 1_555
Co3 O3 1_555 1_555
S1 C8 1_555 1_555
S2 C9 1_555 1_555
S3 C10 1_555 1_555
S4 C26 1_555 1_555
S5 C27 1_555 1_555
S6 C28 1_555 1_555
O1 C1 1_555 1_555
O2 C1 1_555 1_555
O3 Co1 1_555 1_555
O4 C18 1_555 1_555
O5 Co2 1_555 1_555
O6 C19 1_555 1_555
O7 Co3 1_555 1_555
O8 C36 1_555 1_555
O9 Co1 1_555 1_555
H1 O9 1_555 1_555
O10 Co1 1_555 1_555
H2 O10 1_555 1_555
N1 N2 1_555 1_555
N2 C10 1_555 1_555
N3 N4 1_555 1_555
N4 C28 1_555 1_555
N5 Co2 1_555 1_555
N6 C46 1_555 1_555
C1 C2 1_555 1_555
C2 C3 1_555 1_555
C3 H3 1_555 1_555
C4 C3 1_555 1_555
H4 C4 1_555 1_555
C5 C4 1_555 1_555
C6 C5 1_555 1_555
H5 C6 1_555 1_555
C7 C2 1_555 1_555
H6 C7 1_555 1_555
C8 C5 1_555 1_555
H7 C8 1_555 1_555
H8 C8 1_555 1_555
C9 S1 1_555 1_555
C10 S2 1_555 1_555
C11 S3 1_555 1_555
H9 C11 1_555 1_555
H10 C11 1_555 1_555
C12 C11 1_555 1_555
C13 C12 1_555 1_555
H11 C13 1_555 1_555
C14 C13 1_555 1_555
H12 C14 1_555 1_555
C15 C14 1_555 1_555
C16 C15 1_555 1_555
H13 C16 1_555 1_555
C17 C12 1_555 1_555
H14 C17 1_555 1_555
C18 O3 1_555 1_555
C19 O5 1_555 1_555
C20 C19 1_555 1_555
C21 C20 1_555 1_555
H15 C21 1_555 1_555
C22 C21 1_555 1_555
H16 C22 1_555 1_555
C23 C22 1_555 1_555
C24 C23 1_555 1_555
H17 C24 1_555 1_555
C25 C20 1_555 1_555
H18 C25 1_555 1_555
C26 C23 1_555 1_555
H19 C26 1_555 1_555
H20 C26 1_555 1_555
C27 S4 1_555 1_555
C28 S5 1_555 1_555
C29 S6 1_555 1_555
H21 C29 1_555 1_555
H22 C29 1_555 1_555
C30 C29 1_555 1_555
C31 C30 1_555 1_555
H23 C31 1_555 1_555
C32 C31 1_555 1_555
H24 C32 1_555 1_555
C33 C32 1_555 1_555
C34 C33 1_555 1_555
H25 C34 1_555 1_555
C35 C30 1_555 1_555
H26 C35 1_555 1_555
C36 O7 1_555 1_555
C37 N5 1_555 1_555
H27 C37 1_555 1_555
C38 C37 1_555 1_555
H28 C38 1_555 1_555
C39 C38 1_555 1_555
C40 C39 1_555 1_555
H29 C40 1_555 1_555
C41 N5 1_555 1_555
H30 C41 1_555 1_555
C42 C39 1_555 1_555
H31 C42 1_555 1_555
H32 C42 1_555 1_555
C43 C42 1_555 1_555
H33 C43 1_555 1_555
H34 C43 1_555 1_555
C44 C43 1_555 1_555
C45 C44 1_555 1_555
H35 C45 1_555 1_555
C46 C45 1_555 1_555
H36 C46 1_555 1_555
C47 N6 1_555 1_555
H37 C47 1_555 1_555
C48 C44 1_555 1_555
H38 C48 1_555 1_555
Co1C O6 1_555 1_555
Co2C O4 1_555 1_555
Co3_2 N6 1_555 1_555
Co3C O6 1_555 1_555
Co3C_2 O10 1_555 1_555
O4C Co2 1_555 1_555
O6C Co1 1_555 1_555
O8C Co1 1_555 1_555
O10C Co2 1_555 1_555
N6_2 Co3 1_555 1_555
Co2 O9 1_555 1_555
Co3 O9 1_555 1_555
Co3 O6C 1_555 1_555
Co3 O10C 1_555 1_555
O8 Co1C 1_555 1_555
O10 Co2C 1_555 1_555
N1 C9 1_555 1_555
N3 C27 1_555 1_555
C6 C7 1_555 1_555
C15 C18 1_555 1_555
C16 C17 1_555 1_555
C24 C25 1_555 1_555
C33 C36 1_555 1_555
C34 C35 1_555 1_555
C40 C41 1_555 1_555
C47 C48 1_555 1_555
Co1C O10C 1_555 1_555

#END
