
#######################################################################
#
#                 Cambridge Crystallographic Data Centre
#                                CCDC 
#
#######################################################################
#
# If this CIF has been generated from an entry in the Cambridge 
# Structural Database, then it will include bibliographic, chemical, 
# crystal, experimental, refinement or atomic coordinate data resulting 
# from the CCDC's data processing and validation procedures.
#
#######################################################################

data_WIQYAY
_symmetry_cell_setting           triclinic
_symmetry_space_group_name_H-M   'P -1'
_symmetry_Int_Tables_number      2
_space_group_name_Hall           '-P 1'
loop_
_symmetry_equiv_pos_site_id
_symmetry_equiv_pos_as_xyz
1 x,y,z
2 -x,-y,-z
_cell_length_a                   12.8162(2)
_cell_length_b                   13.0129(2)
_cell_length_c                   17.0064(3)
_cell_angle_alpha                85.6330(10)
_cell_angle_beta                 77.2570(10)
_cell_angle_gamma                80.8610(10)
_cell_volume                     2728.79
loop_
_atom_site_label
_atom_site_type_symbol
_atom_site_fract_x
_atom_site_fract_y
_atom_site_fract_z
Cu1 Cu 0.42221(6) 0.25763(6) 0.22553(4)
I1 I 0.60184(3) 0.22385(3) 0.119630(18)
P1 P 0.42535(15) 0.12465(13) 0.32111(10)
P2 P 0.27908(11) 0.26603(12) 0.16621(8)
P3 P -0.40189(10) 0.58669(10) 0.71564(8)
C1 C 0.4991(6) 0.1557(6) 0.3960(4)
C2 C 0.5885(6) 0.2095(6) 0.3682(4)
H1 H 0.6100 0.2245 0.3119
C3 C 0.6461(7) 0.2413(7) 0.4195(4)
H2 H 0.7059 0.2776 0.3994
C4 C 0.6137(8) 0.2184(7) 0.5004(5)
H3 H 0.6515 0.2398 0.5371
C5 C 0.5306(9) 0.1670(7) 0.5285(5)
H4 H 0.5109 0.1502 0.5847
C6 C 0.4731(8) 0.1379(6) 0.4771(5)
H5 H 0.4123 0.1037 0.4992
C7 C 0.4954(8) -0.0022(6) 0.2853(5)
C8 C 0.6047(8) -0.0382(7) 0.2914(6)
H6 H 0.6440 0.0036 0.3140
C9 C 0.6528(10) -0.1377(8) 0.2630(7)
H7 H 0.7253 -0.1642 0.2664
C10 C 0.5909(13) -0.1973(8) 0.2294(7)
H8 H 0.6234 -0.2642 0.2107
C11 C 0.4838(13) -0.1617(9) 0.2225(9)
H9 H 0.4423 -0.2033 0.2018
C12 C 0.4415(10) -0.0588(8) 0.2486(7)
H10 H 0.3722 -0.0287 0.2399
C13 C 0.3047(7) 0.0934(6) 0.3849(5)
C14 C 0.2242(7) 0.0774(6) 0.4355(5)
C15 C 0.1283(8) 0.0561(6) 0.4953(5)
C16 C 0.1115(8) 0.0792(6) 0.5698(4)
H11 H 0.1676 0.1072 0.5853
C17 C 0.0217(6) 0.0679(5) 0.6295(4)
H12 H 0.0175 0.0897 0.6823
C18 C 0.0646(8) -0.0235(6) 0.3878(5)
H13 H 0.1284 -0.0152 0.3485
C19 C 0.0472(6) 0.0099(5) 0.4744(4)
C20 C 0.2609(5) 0.3567(5) 0.0818(4)
C21 C 0.1646(5) 0.4255(5) 0.0814(4)
H14 H 0.1056 0.4258 0.1264
C22 C 0.1562(5) 0.4922(6) 0.0158(4)
H15 H 0.0914 0.5393 0.0160
C23 C 0.2411(6) 0.4916(6) -0.0507(4)
H16 H 0.2343 0.5380 -0.0958
C24 C 0.3355(6) 0.4237(7) -0.0514(4)
H17 H 0.3932 0.4226 -0.0974
C25 C 0.3465(5) 0.3570(6) 0.0149(4)
H18 H 0.4123 0.3116 0.0148
C26 C 0.2638(5) 0.1419(5) 0.1305(4)
C27 C 0.1770(5) 0.0900(5) 0.1608(4)
H19 H 0.1203 0.1191 0.2026
C28 C 0.1721(6) -0.0038(6) 0.1307(5)
H20 H 0.1129 -0.0401 0.1529
C29 C 0.2526(7) -0.0458(6) 0.0683(6)
H21 H 0.2464 -0.1085 0.0457
C30 C 0.3423(7) 0.0035(7) 0.0389(6)
H22 H 0.3987 -0.0257 -0.0031
C31 C 0.3485(6) 0.0963(7) 0.0718(6)
H23 H 0.4113 0.1289 0.0539
C32 C 0.1591(4) 0.2983(5) 0.2382(3)
C33 C 0.0877(5) 0.3188(5) 0.2948(4)
C34 C 0.0026(4) 0.3386(5) 0.3659(3)
C35 C -0.0384(5) 0.2558(5) 0.4092(3)
H24 H -0.0130 0.1875 0.3904
C36 C -0.0372(4) 0.4427(4) 0.3919(3)
C37 C -0.0002(4) 0.5311(5) 0.3474(3)
H25 H 0.0509 0.5223 0.2977
C38 C -0.0377(5) 0.6298(5) 0.3753(3)
H26 H -0.0115 0.6886 0.3454
C39 C -0.5132(5) 0.5353(4) 0.6875(3)
C40 C -0.5005(5) 0.4792(6) 0.6189(4)
H27 H -0.4322 0.4687 0.5827
C41 C -0.5878(6) 0.4380(6) 0.6027(5)
H28 H -0.5788 0.3990 0.5560
C42 C -0.6863(6) 0.4546(6) 0.6548(4)
H29 H -0.7464 0.4294 0.6427
C43 C -0.6993(5) 0.5060(6) 0.7229(4)
H30 H -0.7671 0.5142 0.7599
C44 C -0.6126(5) 0.5469(5) 0.7387(4)
H31 H -0.6226 0.5840 0.7864
C45 C -0.3487(4) 0.4797(4) 0.7791(3)
C46 C -0.3982(5) 0.4779(5) 0.8602(4)
H32 H -0.4577 0.5294 0.8798
C47 C -0.3611(6) 0.4011(6) 0.9128(4)
H33 H -0.3963 0.3993 0.9682
C48 C -0.2748(6) 0.3287(6) 0.8856(5)
H34 H -0.2493 0.2765 0.9219
C49 C -0.2235(6) 0.3306(6) 0.8047(5)
H35 H -0.1624 0.2802 0.7861
C50 C -0.2606(5) 0.4054(5) 0.7508(4)
H36 H -0.2262 0.4058 0.6953
C51 C -0.3032(4) 0.5776(4) 0.6256(3)
C52 C -0.2349(4) 0.5739(4) 0.5649(3)
C53 C -0.1538(4) 0.5598(4) 0.4914(3)
C54 C -0.1139(4) 0.6430(5) 0.4472(3)
H37 H -0.1390 0.7112 0.4662
C55 C -0.1165(4) 0.4562(4) 0.4642(3)
C56 C -0.1552(5) 0.3677(4) 0.5077(3)
H38 H -0.2084 0.3766 0.5563
C57 C -0.1170(5) 0.2694(5) 0.4808(3)
H39 H -0.1438 0.2107 0.5104
P1A P -0.42535(15) -0.12465(13) 0.67889(10)
C1A C -0.4991(6) -0.1557(6) 0.6040(4)
C2A C -0.5885(6) -0.2095(6) 0.6318(4)
H1A H -0.6100 -0.2245 0.6881
C3A C -0.6461(7) -0.2413(7) 0.5805(4)
H2A H -0.7059 -0.2776 0.6006
C4A C -0.6137(8) -0.2184(7) 0.4996(5)
H3A H -0.6515 -0.2398 0.4629
C5A C -0.5306(9) -0.1670(7) 0.4715(5)
H4A H -0.5109 -0.1502 0.4153
C6A C -0.4731(8) -0.1379(6) 0.5229(5)
H5A H -0.4123 -0.1037 0.5008
C7A C -0.4954(8) 0.0022(6) 0.7147(5)
C8A C -0.6047(8) 0.0382(7) 0.7086(6)
H6A H -0.6440 -0.0036 0.6860
C9A C -0.6528(10) 0.1377(8) 0.7370(7)
H7A H -0.7253 0.1642 0.7336
C10A C -0.5909(13) 0.1973(8) 0.7706(7)
H8A H -0.6234 0.2642 0.7893
C11A C -0.4838(13) 0.1617(9) 0.7775(9)
H9A H -0.4423 0.2033 0.7982
C12A C -0.4415(10) 0.0588(8) 0.7514(7)
H10A H -0.3722 0.0287 0.7601
C13A C -0.3047(7) -0.0934(6) 0.6151(5)
C14A C -0.2242(7) -0.0774(6) 0.5645(5)
C15A C -0.1283(8) -0.0561(6) 0.5047(5)
C16A C -0.1115(8) -0.0792(6) 0.4302(4)
H11A H -0.1676 -0.1072 0.4147
C17A C -0.0217(6) -0.0679(5) 0.3705(4)
H12A H -0.0175 -0.0897 0.3177
C18A C -0.0646(8) 0.0235(6) 0.6122(5)
H13A H -0.1284 0.0152 0.6515
C19A C -0.0472(6) -0.0099(5) 0.5256(4)
Cu1A Cu -0.42221(6) -0.25763(6) 0.77447(4)
I1A I -0.60184(3) -0.22385(3) 0.880370(18)
P2A P -0.27908(11) -0.26603(12) 0.83379(8)
P3A P 0.40189(10) -0.58669(10) 0.28436(8)
C20A C -0.2609(5) -0.3567(5) 0.9182(4)
C21A C -0.1646(5) -0.4255(5) 0.9186(4)
H14A H -0.1056 -0.4258 0.8736
C22A C -0.1562(5) -0.4922(6) 0.9842(4)
H15A H -0.0914 -0.5393 0.9840
C23A C -0.2411(6) -0.4916(6) 1.0507(4)
H16A H -0.2343 -0.5380 1.0958
C24A C -0.3355(6) -0.4237(7) 1.0514(4)
H17A H -0.3932 -0.4226 1.0974
C25A C -0.3465(5) -0.3570(6) 0.9851(4)
H18A H -0.4123 -0.3116 0.9852
C26A C -0.2638(5) -0.1419(5) 0.8695(4)
C27A C -0.1770(5) -0.0900(5) 0.8392(4)
H19A H -0.1203 -0.1191 0.7974
C28A C -0.1721(6) 0.0038(6) 0.8693(5)
H20A H -0.1129 0.0401 0.8471
C29A C -0.2526(7) 0.0458(6) 0.9317(6)
H21A H -0.2464 0.1085 0.9543
C30A C -0.3423(7) -0.0035(7) 0.9611(6)
H22A H -0.3987 0.0257 1.0031
C31A C -0.3485(6) -0.0963(7) 0.9282(6)
H23A H -0.4113 -0.1289 0.9461
C32A C -0.1591(4) -0.2983(5) 0.7618(3)
C33A C -0.0877(5) -0.3188(5) 0.7052(4)
C34A C -0.0026(4) -0.3386(5) 0.6341(3)
C35A C 0.0384(5) -0.2558(5) 0.5908(3)
H24A H 0.0130 -0.1875 0.6096
C36A C 0.0372(4) -0.4427(4) 0.6081(3)
C37A C 0.0002(4) -0.5311(5) 0.6526(3)
H25A H -0.0509 -0.5223 0.7023
C38A C 0.0377(5) -0.6298(5) 0.6247(3)
H26A H 0.0115 -0.6886 0.6546
C39A C 0.5132(5) -0.5353(4) 0.3125(3)
C40A C 0.5005(5) -0.4792(6) 0.3811(4)
H27A H 0.4322 -0.4687 0.4173
C41A C 0.5878(6) -0.4380(6) 0.3973(5)
H28A H 0.5788 -0.3990 0.4440
C42A C 0.6863(6) -0.4546(6) 0.3452(4)
H29A H 0.7464 -0.4294 0.3573
C43A C 0.6993(5) -0.5060(6) 0.2771(4)
H30A H 0.7671 -0.5142 0.2401
C44A C 0.6126(5) -0.5469(5) 0.2613(4)
H31A H 0.6226 -0.5840 0.2136
C45A C 0.3487(4) -0.4797(4) 0.2209(3)
C46A C 0.3982(5) -0.4779(5) 0.1398(4)
H32A H 0.4577 -0.5294 0.1202
C47A C 0.3611(6) -0.4011(6) 0.0872(4)
H33A H 0.3963 -0.3993 0.0318
C48A C 0.2748(6) -0.3287(6) 0.1144(5)
H34A H 0.2493 -0.2765 0.0781
C49A C 0.2235(6) -0.3306(6) 0.1953(5)
H35A H 0.1624 -0.2802 0.2139
C50A C 0.2606(5) -0.4054(5) 0.2492(4)
H36A H 0.2262 -0.4058 0.3047
C51A C 0.3032(4) -0.5776(4) 0.3744(3)
C52A C 0.2349(4) -0.5739(4) 0.4351(3)
C53A C 0.1538(4) -0.5598(4) 0.5086(3)
C54A C 0.1139(4) -0.6430(5) 0.5528(3)
H37A H 0.1390 -0.7112 0.5338
C55A C 0.1165(4) -0.4562(4) 0.5358(3)
C56A C 0.1552(5) -0.3677(4) 0.4923(3)
H38A H 0.2084 -0.3766 0.4437
C57A C 0.1170(5) -0.2694(5) 0.5192(3)
H39A H 0.1438 -0.2107 0.4896
Cu1_2 Cu 0.42221(6) -0.74237(6) 0.22553(4)
Cu1A_2 Cu -0.42221(6) 0.74237(6) 0.77447(4)
P3_2 P -0.40189(10) -0.41331(10) 0.71564(8)
P3A_2 P 0.40189(10) 0.41331(10) 0.28436(8)
O1 O 0.9755(4) 0.8351(4) 0.2017(3)
N1 N 0.8977(6) 0.7623(6) 0.1175(4)
C58 C 0.9308(7) 0.8387(7) 0.1442(5)
H40 H 0.9196 0.9045 0.1167
C59 C 0.9132(9) 0.6599(7) 0.1561(6)
H41 H 0.8839 0.6109 0.1289
H42 H 0.8756 0.6626 0.2129
H43 H 0.9906 0.6368 0.1527
C60 C 0.8353(10) 0.7793(11) 0.0528(6)
H44 H 0.8174 0.7127 0.0406
H45 H 0.8788 0.8093 0.0043
H46 H 0.7685 0.8273 0.0708
N2 N 0.8937(5) 0.1905(5) 0.1627(4)
O2 O 0.9206(5) 0.3615(6) 0.1443(5)
C61 C 0.8949(6) 0.2854(7) 0.1870(6)
H47 H 0.8736 0.2950 0.2434
C62 C 0.8613(7) 0.1129(7) 0.2195(5)
H48 H 0.8648 0.0484 0.1921
H49 H 0.7868 0.1347 0.2484
H50 H 0.9092 0.1009 0.2579
C63 C 0.9176(7) 0.1703(9) 0.0795(6)
H51 H 0.9129 0.0971 0.0729
H52 H 0.9909 0.1845 0.0551
H53 H 0.8656 0.2152 0.0528
loop_
_geom_bond_atom_site_label_1
_geom_bond_atom_site_label_2
_geom_bond_site_symmetry_1
_geom_bond_site_symmetry_2
Cu1 I1 1_555 1_555
P1 Cu1 1_555 1_555
P2 Cu1 1_555 1_555
P3 C39 1_555 1_555
C1 P1 1_555 1_555
C2 C1 1_555 1_555
H1 C2 1_555 1_555
C3 C2 1_555 1_555
H2 C3 1_555 1_555
C4 C3 1_555 1_555
H3 C4 1_555 1_555
C5 C4 1_555 1_555
H4 C5 1_555 1_555
C6 C1 1_555 1_555
H5 C6 1_555 1_555
C7 P1 1_555 1_555
C8 C7 1_555 1_555
H6 C8 1_555 1_555
C9 C8 1_555 1_555
H7 C9 1_555 1_555
C10 C9 1_555 1_555
H8 C10 1_555 1_555
C11 C10 1_555 1_555
H9 C11 1_555 1_555
C12 C7 1_555 1_555
H10 C12 1_555 1_555
C13 P1 1_555 1_555
C14 C13 1_555 1_555
C15 C14 1_555 1_555
C16 C15 1_555 1_555
H11 C16 1_555 1_555
C17 C16 1_555 1_555
H12 C17 1_555 1_555
C18 H13 1_555 1_555
C19 C15 1_555 1_555
C20 P2 1_555 1_555
C21 C20 1_555 1_555
H14 C21 1_555 1_555
C22 C21 1_555 1_555
H15 C22 1_555 1_555
C23 C22 1_555 1_555
H16 C23 1_555 1_555
C24 C23 1_555 1_555
H17 C24 1_555 1_555
C25 C20 1_555 1_555
H18 C25 1_555 1_555
C26 P2 1_555 1_555
C27 C26 1_555 1_555
H19 C27 1_555 1_555
C28 C27 1_555 1_555
H20 C28 1_555 1_555
C29 C28 1_555 1_555
H21 C29 1_555 1_555
C30 C29 1_555 1_555
H22 C30 1_555 1_555
C31 C26 1_555 1_555
H23 C31 1_555 1_555
C32 P2 1_555 1_555
C33 C32 1_555 1_555
C34 C33 1_555 1_555
C35 C34 1_555 1_555
H24 C35 1_555 1_555
C36 C34 1_555 1_555
C37 C36 1_555 1_555
H25 C37 1_555 1_555
C38 C37 1_555 1_555
H26 C38 1_555 1_555
C39 C40 1_555 1_555
C40 H27 1_555 1_555
C41 C40 1_555 1_555
H28 C41 1_555 1_555
C42 C41 1_555 1_555
H29 C42 1_555 1_555
C43 C42 1_555 1_555
H30 C43 1_555 1_555
C44 C39 1_555 1_555
H31 C44 1_555 1_555
C45 P3 1_555 1_555
C46 C45 1_555 1_555
H32 C46 1_555 1_555
C47 C46 1_555 1_555
H33 C47 1_555 1_555
C48 C47 1_555 1_555
H34 C48 1_555 1_555
C49 C48 1_555 1_555
H35 C49 1_555 1_555
C50 C45 1_555 1_555
H36 C50 1_555 1_555
C51 P3 1_555 1_555
C52 C51 1_555 1_555
C53 C52 1_555 1_555
C54 C38 1_555 1_555
H37 C54 1_555 1_555
C55 C36 1_555 1_555
C56 C55 1_555 1_555
H38 C56 1_555 1_555
C57 C35 1_555 1_555
H39 C57 1_555 1_555
O1 C58 1_555 1_555
N1 C58 1_555 1_555
C58 H40 1_555 1_555
C59 N1 1_555 1_555
H41 C59 1_555 1_555
H42 C59 1_555 1_555
H43 C59 1_555 1_555
C60 N1 1_555 1_555
H44 C60 1_555 1_555
H45 C60 1_555 1_555
H46 C60 1_555 1_555
N2 C61 1_555 1_555
O2 C61 1_555 1_555
C61 H47 1_555 1_555
C62 N2 1_555 1_555
H48 C62 1_555 1_555
H49 C62 1_555 1_555
H50 C62 1_555 1_555
C63 N2 1_555 1_555
H51 C63 1_555 1_555
H52 C63 1_555 1_555
H53 C63 1_555 1_555
P1A C1A 1_555 1_555
C1A C2A 1_555 1_555
C2A H1A 1_555 1_555
C3A C2A 1_555 1_555
H2A C3A 1_555 1_555
C4A C3A 1_555 1_555
H3A C4A 1_555 1_555
C5A C4A 1_555 1_555
H4A C5A 1_555 1_555
C6A C1A 1_555 1_555
H5A C6A 1_555 1_555
C7A P1A 1_555 1_555
C8A C7A 1_555 1_555
H6A C8A 1_555 1_555
C9A C8A 1_555 1_555
H7A C9A 1_555 1_555
C10A C9A 1_555 1_555
H8A C10A 1_555 1_555
C11A C10A 1_555 1_555
H9A C11A 1_555 1_555
C12A C7A 1_555 1_555
H10A C12A 1_555 1_555
C13A P1A 1_555 1_555
C14A C13A 1_555 1_555
C15A C14A 1_555 1_555
C16A C15A 1_555 1_555
H11A C16A 1_555 1_555
C17A C18 1_555 1_555
H12A C17A 1_555 1_555
C18A C17 1_555 1_555
H13A C18A 1_555 1_555
C19A C19 1_555 1_555
Cu1A P1A 1_555 1_555
I1A Cu1A 1_555 1_555
P2A Cu1A 1_555 1_555
P3A C39A 1_555 1_555
C20A P2A 1_555 1_555
C21A C20A 1_555 1_555
H14A C21A 1_555 1_555
C22A C21A 1_555 1_555
H15A C22A 1_555 1_555
C23A C22A 1_555 1_555
H16A C23A 1_555 1_555
C24A C23A 1_555 1_555
H17A C24A 1_555 1_555
C25A C20A 1_555 1_555
H18A C25A 1_555 1_555
C26A P2A 1_555 1_555
C27A C26A 1_555 1_555
H19A C27A 1_555 1_555
C28A C27A 1_555 1_555
H20A C28A 1_555 1_555
C29A C28A 1_555 1_555
H21A C29A 1_555 1_555
C30A C29A 1_555 1_555
H22A C30A 1_555 1_555
C31A C26A 1_555 1_555
H23A C31A 1_555 1_555
C32A P2A 1_555 1_555
C33A C32A 1_555 1_555
C34A C33A 1_555 1_555
C35A C34A 1_555 1_555
H24A C35A 1_555 1_555
C36A C34A 1_555 1_555
C37A C36A 1_555 1_555
H25A C37A 1_555 1_555
C38A C37A 1_555 1_555
H26A C38A 1_555 1_555
C39A C40A 1_555 1_555
C40A H27A 1_555 1_555
C41A C40A 1_555 1_555
H28A C41A 1_555 1_555
C42A C41A 1_555 1_555
H29A C42A 1_555 1_555
C43A C42A 1_555 1_555
H30A C43A 1_555 1_555
C44A C39A 1_555 1_555
H31A C44A 1_555 1_555
C45A P3A 1_555 1_555
C46A C45A 1_555 1_555
H32A C46A 1_555 1_555
C47A C46A 1_555 1_555
H33A C47A 1_555 1_555
C48A C47A 1_555 1_555
H34A C48A 1_555 1_555
C49A C48A 1_555 1_555
H35A C49A 1_555 1_555
C50A C45A 1_555 1_555
H36A C50A 1_555 1_555
C51A P3A 1_555 1_555
C52A C51A 1_555 1_555
C53A C52A 1_555 1_555
C54A C38A 1_555 1_555
H37A C54A 1_555 1_555
C55A C36A 1_555 1_555
C56A C55A 1_555 1_555
H38A C56A 1_555 1_555
C57A C35A 1_555 1_555
H39A C57A 1_555 1_555
Cu1_2 P3A 1_555 1_555
Cu1A_2 P3 1_555 1_555
P3_2 Cu1A 1_555 1_555
P3A_2 Cu1 1_555 1_555
C5 C6 1_555 1_555
C11 C12 1_555 1_555
C18 C19 1_555 1_555
C24 C25 1_555 1_555
C30 C31 1_555 1_555
C43 C44 1_555 1_555
C49 C50 1_555 1_555
C53 C54 1_555 1_555
C53 C55 1_555 1_555
C56 C57 1_555 1_555
C5A C6A 1_555 1_555
C11A C12A 1_555 1_555
C15A C19A 1_555 1_555
C16A C17A 1_555 1_555
C18A C19A 1_555 1_555
C24A C25A 1_555 1_555
C30A C31A 1_555 1_555
C43A C44A 1_555 1_555
C49A C50A 1_555 1_555
C53A C54A 1_555 1_555
C53A C55A 1_555 1_555
C56A C57A 1_555 1_555

#END
