
#######################################################################
#
#                 Cambridge Crystallographic Data Centre
#                                CCDC 
#
#######################################################################
#
# If this CIF has been generated from an entry in the Cambridge 
# Structural Database, then it will include bibliographic, chemical, 
# crystal, experimental, refinement or atomic coordinate data resulting 
# from the CCDC's data processing and validation procedures.
#
#######################################################################

data_WIRBUW
_symmetry_cell_setting           monoclinic
_symmetry_space_group_name_H-M   'C 2/c'
_symmetry_Int_Tables_number      15
_space_group_name_Hall           '-C 2yn'
loop_
_symmetry_equiv_pos_site_id
_symmetry_equiv_pos_as_xyz
1 x,y,z
2 -x,y,1/2-z
3 1/2+x,1/2+y,z
4 1/2-x,1/2+y,1/2-z
5 -x,-y,-z
6 x,-y,1/2+z
7 1/2-x,1/2-y,-z
8 1/2+x,1/2-y,1/2+z
_cell_length_a                   12.366(3)
_cell_length_b                   17.150(3)
_cell_length_c                   19.206(4)
_cell_angle_alpha                90
_cell_angle_beta                 100.99(3)
_cell_angle_gamma                90
_cell_volume                     3998.45
loop_
_atom_site_label
_atom_site_type_symbol
_atom_site_fract_x
_atom_site_fract_y
_atom_site_fract_z
Cd1 Cd 0.0000 0.232864(15) 0.2500
O1 O 0.0000 0.09826(15) 0.2500
O2 O 0.0000 0.36703(16) 0.2500
N1 N 0.16961(16) 0.22851(12) 0.21215(11)
N2 N 0.57356(16) 0.26509(13) -0.12664(11)
C1 C 0.2423(2) 0.17189(15) 0.23136(14)
H1 H 0.2318 0.1380 0.2686
C2 C 0.3324(2) 0.15967(14) 0.19998(15)
H2 H 0.3821 0.1183 0.2157
C3 C 0.3501(2) 0.20751(15) 0.14595(15)
C4 C 0.2742(2) 0.26645(16) 0.12557(15)
H3 H 0.2822 0.3006 0.0879
C5 C 0.1873(2) 0.27537(16) 0.15985(16)
H4 H 0.1372 0.3170 0.1457
C6 C 0.4494(2) 0.19884(16) 0.11145(17)
H5 H 0.4252 0.1973 0.0593
H6 H 0.4871 0.1490 0.1266
C7 C 0.5294(2) 0.26623(16) 0.13158(14)
H7 H 0.5490 0.2698 0.1839
H8 H 0.4926 0.3155 0.1137
C8 C 0.6357(2) 0.25723(17) 0.10159(14)
H9 H 0.6873 0.2996 0.1204
H10 H 0.6712 0.2071 0.1180
C9 C 0.61463(18) 0.25956(16) 0.02174(14)
C10 C 0.6143(2) 0.19314(16) -0.01862(15)
H11 H 0.6283 0.1439 0.0039
C11 C 0.5938(2) 0.19808(17) -0.09106(15)
H12 H 0.5939 0.1513 -0.1175
C12 C 0.5765(2) 0.32979(16) -0.08724(15)
H13 H 0.5639 0.3785 -0.1109
C13 C 0.5966(2) 0.32942(16) -0.01450(15)
H14 H 0.5981 0.3771 0.0109
H15 H 0.0528(19) 0.3913(15) 0.2651(15)
H16 H -0.033(2) 0.0672(13) 0.2704(13)
H16A H 0.033(2) 0.0672(13) 0.2296(13)
H15A H -0.0528(19) 0.3913(15) 0.2349(15)
N1A N -0.16961(16) 0.22851(12) 0.28785(11)
N2A N -0.57356(16) 0.26509(13) 0.62664(11)
C1A C -0.2423(2) 0.17189(15) 0.26864(14)
H1A H -0.2318 0.1380 0.2314
C2A C -0.3324(2) 0.15967(14) 0.30002(15)
H2A H -0.3821 0.1183 0.2843
C3A C -0.3501(2) 0.20751(15) 0.35405(15)
C4A C -0.2742(2) 0.26645(16) 0.37443(15)
H3A H -0.2822 0.3006 0.4121
C5A C -0.1873(2) 0.27537(16) 0.34015(16)
H4A H -0.1372 0.3170 0.3543
C6A C -0.4494(2) 0.19884(16) 0.38855(17)
H5A H -0.4252 0.1973 0.4407
H6A H -0.4871 0.1490 0.3734
C7A C -0.5294(2) 0.26623(16) 0.36842(14)
H7A H -0.5490 0.2698 0.3161
H8A H -0.4926 0.3155 0.3863
C8A C -0.6357(2) 0.25723(17) 0.39841(14)
H9A H -0.6873 0.2996 0.3796
H10A H -0.6712 0.2071 0.3820
C9A C -0.61463(18) 0.25956(16) 0.47826(14)
C10A C -0.6143(2) 0.19314(16) 0.51862(15)
H11A H -0.6283 0.1439 0.4961
C11A C -0.5938(2) 0.19808(17) 0.59106(15)
H12A H -0.5939 0.1513 0.6175
C12A C -0.5765(2) 0.32979(16) 0.58724(15)
H13A H -0.5639 0.3785 0.6109
C13A C -0.5966(2) 0.32942(16) 0.51450(15)
H14A H -0.5981 0.3771 0.4891
Cd1F Cd -0.5000 0.267136(15) 0.7500
Cd1F_2 Cd 0.5000 0.267136(15) -0.2500
N2F N -0.07356(16) 0.23491(13) 0.12664(11)
N2G N 0.07356(16) 0.23491(13) 0.37336(11)
N3 N 0.8918(2) 0.95847(14) 0.03992(13)
H17 H 0.9594 0.9506 0.0632
H18 H 0.8780 0.9595 -0.0067
N4 N 0.86183(16) 0.99599(12) 0.30688(11)
N5 N 0.84645(19) 0.98629(13) 0.37368(12)
N6 N 0.74690(19) 0.95970(14) 0.37286(12)
N7 N 0.69423(17) 0.95146(12) 0.30481(11)
C14 C 0.8074(2) 0.96918(15) 0.07658(14)
C15 C 0.6991(3) 0.97900(17) 0.04124(15)
H19 H 0.6824 0.9793 -0.0091
C16 C 0.6161(3) 0.98830(19) 0.07944(16)
H20 H 0.5426 0.9953 0.0547
C17 C 0.6371(2) 0.98764(15) 0.15220(15)
H21 H 0.5789 0.9947 0.1775
C18 C 0.7441(2) 0.97664(14) 0.18841(13)
C19 C 0.8283(2) 0.96765(14) 0.15030(14)
H22 H 0.9017 0.9603 0.1752
C20 C 0.7673(2) 0.97419(13) 0.26587(13)
loop_
_geom_bond_atom_site_label_1
_geom_bond_atom_site_label_2
_geom_bond_site_symmetry_1
_geom_bond_site_symmetry_2
Cd1 O1 1_555 1_555
O1 H16 1_555 1_555
O2 Cd1 1_555 1_555
N1 Cd1 1_555 1_555
N2 C11 1_555 1_555
C1 N1 1_555 1_555
H1 C1 1_555 1_555
C2 C1 1_555 1_555
H2 C2 1_555 1_555
C3 C2 1_555 1_555
C4 C3 1_555 1_555
H3 C4 1_555 1_555
C5 N1 1_555 1_555
H4 C5 1_555 1_555
C6 C3 1_555 1_555
H5 C6 1_555 1_555
H6 C6 1_555 1_555
C7 C6 1_555 1_555
H7 C7 1_555 1_555
H8 C7 1_555 1_555
C8 C7 1_555 1_555
H9 C8 1_555 1_555
H10 C8 1_555 1_555
C9 C8 1_555 1_555
C10 C9 1_555 1_555
H11 C10 1_555 1_555
C11 C10 1_555 1_555
H12 C11 1_555 1_555
C12 N2 1_555 1_555
H13 C12 1_555 1_555
C13 C9 1_555 1_555
H14 C13 1_555 1_555
H15 O2 1_555 1_555
N3 H17 1_555 1_555
H18 N3 1_555 1_555
N4 N5 1_555 1_555
N5 N6 1_555 1_555
N6 N7 1_555 1_555
N7 C20 1_555 1_555
C14 N3 1_555 1_555
C15 C14 1_555 1_555
H19 C15 1_555 1_555
C16 C15 1_555 1_555
H20 C16 1_555 1_555
C17 C16 1_555 1_555
H21 C17 1_555 1_555
C18 C17 1_555 1_555
C19 C14 1_555 1_555
H22 C19 1_555 1_555
C20 N4 1_555 1_555
H16A O1 1_555 1_555
H15A O2 1_555 1_555
N1A Cd1 1_555 1_555
N2A C11A 1_555 1_555
C1A N1A 1_555 1_555
H1A C1A 1_555 1_555
C2A C1A 1_555 1_555
H2A C2A 1_555 1_555
C3A C2A 1_555 1_555
C4A C3A 1_555 1_555
H3A C4A 1_555 1_555
C5A N1A 1_555 1_555
H4A C5A 1_555 1_555
C6A C3A 1_555 1_555
H5A C6A 1_555 1_555
H6A C6A 1_555 1_555
C7A C6A 1_555 1_555
H7A C7A 1_555 1_555
H8A C7A 1_555 1_555
C8A C7A 1_555 1_555
H9A C8A 1_555 1_555
H10A C8A 1_555 1_555
C9A C8A 1_555 1_555
C10A C9A 1_555 1_555
H11A C10A 1_555 1_555
C11A C10A 1_555 1_555
H12A C11A 1_555 1_555
C12A N2A 1_555 1_555
H13A C12A 1_555 1_555
C13A C9A 1_555 1_555
H14A C13A 1_555 1_555
Cd1F N2A 1_555 1_555
Cd1F_2 N2 1_555 1_555
N2F Cd1 1_555 1_555
N2G Cd1 1_555 1_555
C4 C5 1_555 1_555
C12 C13 1_555 1_555
C18 C19 1_555 1_555
C18 C20 1_555 1_555
C4A C5A 1_555 1_555
C12A C13A 1_555 1_555

#END
