
#######################################################################
#
#                 Cambridge Crystallographic Data Centre
#                                CCDC 
#
#######################################################################
#
# If this CIF has been generated from an entry in the Cambridge 
# Structural Database, then it will include bibliographic, chemical, 
# crystal, experimental, refinement or atomic coordinate data resulting 
# from the CCDC's data processing and validation procedures.
#
#######################################################################

data_WIRCAD
_symmetry_cell_setting           monoclinic
_symmetry_space_group_name_H-M   'P 21/c'
_symmetry_Int_Tables_number      14
_space_group_name_Hall           '-P 2ybc'
loop_
_symmetry_equiv_pos_site_id
_symmetry_equiv_pos_as_xyz
1 x,y,z
2 -x,1/2+y,1/2-z
3 -x,-y,-z
4 x,1/2-y,1/2+z
_cell_length_a                   11.4903(9)
_cell_length_b                   21.7478(3)
_cell_length_c                   20.8346(5)
_cell_angle_alpha                90
_cell_angle_beta                 91.029(4)
_cell_angle_gamma                90
_cell_volume                     5205.49
loop_
_atom_site_label
_atom_site_type_symbol
_atom_site_fract_x
_atom_site_fract_y
_atom_site_fract_z
Co1 Co 0.4641 0.5216 0.3067
Co2 Co 0.2996 0.4561 0.4046
Co3 Co 0.3622 0.3169 0.4368
Co4 Co 0.5459 0.5748 0.4467
O1 O 0.4933(2) 0.4281(1) 0.2876(1)
O2 O 0.3773(2) 0.3812(1) 0.3566(1)
O3 O 0.4508(3) 0.1510(1) 0.1083(1)
O4 O 0.5654(2) 0.1164(1) 0.1873(1)
O5 O 0.2832(2) 0.5043(1) 0.3162(1)
O6 O 0.2277(3) 0.5276(2) 0.2173(2)
O7 O -0.3588(2) 0.5352(1) 0.3029(1)
O8 O -0.2979(2) 0.5412(1) 0.4046(1)
O9 O 0.5443(2) 0.3172(1) 0.4422(1)
O10 O 0.5948(2) 0.4004(1) 0.4981(1)
O11 O 1.1400(2) 0.4122(1) 0.4027(1)
O12 O 1.1825(2) 0.3137(1) 0.4251(1)
O13 O 0.4549(2) 0.5345(1) 0.2065(1)
H1 H 0.4707 0.5273 0.1674
H2 H 0.3991 0.5604 0.2066
O14 O 0.4624(2) 0.5024(1) 0.4078(1)
H3 H 0.5113 0.4733 0.4121
O15 O 0.2312(2) 0.5242(1) 0.4627(1)
O16 O 0.3411(2) 0.4003(1) 0.4845(1)
H4 H 0.3474 0.4092 0.5241
O17 O 0.3484(3) 0.2693(1) 0.5251(1)
H5 H 0.3755 0.2441 0.5526
H6 H 0.3008 0.2927 0.5442
C1 C 0.4508(3) 0.3241(1) 0.2686(2)
C2 C 0.5601(3) 0.3035(2) 0.2538(2)
H7 H 0.6251 0.3263 0.2665
C3 C 0.5749(3) 0.2483(2) 0.2196(2)
H8 H 0.6496 0.2346 0.2107
C4 C 0.4812(3) 0.2146(2) 0.1994(2)
C5 C 0.2649(3) 0.2001(2) 0.1948(2)
H9 H 0.2737 0.1638 0.1718
C6 C 0.1567(4) 0.2192(2) 0.2105(2)
H10 H 0.0922 0.1953 0.1996
C7 C 0.1421(4) 0.2752(2) 0.2432(2)
H11 H 0.0675 0.2886 0.2526
C8 C 0.2355(3) 0.3100(2) 0.2613(2)
H12 H 0.2239 0.3471 0.2824
C9 C 0.3499(3) 0.2903(2) 0.2483(2)
C10 C 0.3655(3) 0.2350(2) 0.2129(2)
C11 C 0.4402(3) 0.3820(1) 0.3069(2)
C12 C 0.5019(3) 0.1560(2) 0.1628(2)
C13 C 0.0798(3) 0.5158(2) 0.2930(2)
C14 C 0.0460(3) 0.5543(2) 0.3414(2)
H13 H 0.1016 0.5774 0.3636
C15 C -0.0721(3) 0.5591(2) 0.3577(2)
H14 H -0.0932 0.5853 0.3908
C16 C -0.1565(3) 0.5259(2) 0.3258(2)
C17 C -0.2062(3) 0.4469(2) 0.2418(2)
H15 H -0.2846 0.4489 0.2520
C18 C -0.1704(4) 0.4072(2) 0.1954(2)
H16 H -0.2251 0.3828 0.1740
C19 C -0.0535(4) 0.4027(2) 0.1794(2)
H17 H -0.0311 0.3755 0.1475
C20 C 0.0270(4) 0.4372(2) 0.2097(2)
H18 H 0.1048 0.4331 0.1989
C21 C -0.0046(3) 0.4802(2) 0.2585(2)
C22 C -0.1247(3) 0.4852(2) 0.2749(2)
C23 C 0.2054(3) 0.5156(2) 0.2734(2)
C24 C -0.2804(3) 0.5344(2) 0.3461(2)
C25 C 0.7441(3) 0.3459(2) 0.4493(2)
C26 C 0.7883(3) 0.3738(2) 0.3969(2)
H19 H 0.7384 0.3921 0.3670
C27 C 0.9083(3) 0.3751(2) 0.3875(2)
H20 H 0.9367 0.3959 0.3521
C28 C 0.9848(3) 0.3470(2) 0.4284(2)
C29 C 1.0144(4) 0.2823(2) 0.5268(2)
H21 H 1.0944 0.2815 0.5207
C30 C 0.9698(4) 0.2536(3) 0.5783(3)
H22 H 1.0192 0.2327 0.6067
C31 C 0.8483(5) 0.2548(3) 0.5896(3)
H23 H 0.8188 0.2356 0.6258
C32 C 0.7743(4) 0.2844(3) 0.5471(3)
H24 H 0.6947 0.2848 0.5545
C33 C 0.8185(3) 0.3141(2) 0.4925(2)
C34 C 0.9415(3) 0.3137(2) 0.4818(2)
C35 C 0.6166(3) 0.3536(1) 0.4643(2)
C36 C 1.1133(3) 0.3578(2) 0.4178(2)
C37 C 0.4646(3) 0.1975(2) 0.3736(2)
H25 H 0.5413 0.2105 0.3790
C38 C 0.2830(3) 0.1970(2) 0.3753(2)
H26 H 0.2057 0.2078 0.3814
C39 C 0.2476(5) 0.0923(2) 0.3273(2)
H27 H 0.2986 0.0605 0.3111
H28 H 0.1976 0.1059 0.2921
C40 C 0.1749(5) 0.0660(2) 0.3786(2)
C41 C 0.2217(7) 0.0326(5) 0.4266(4)
H29 H 0.3015 0.0254 0.4272
C42 C 0.1555(6) 0.0085(5) 0.4754(4)
H30 H 0.1922 -0.0116 0.5096
C43 C 0.0376(5) 0.0137(3) 0.4742(3)
C44 C -0.0108(6) 0.0438(4) 0.4238(3)
H31 H -0.0915 0.0466 0.4202
C45 C 0.0594(6) 0.0712(4) 0.3761(3)
H32 H 0.0242 0.0931 0.3426
N1 N 0.3727(2) 0.2320(1) 0.3902(1)
N2 N 0.4357(3) 0.1431(2) 0.3487(2)
N3 N 0.3181(3) 0.1441(1) 0.3505(2)
C37B C -0.4646(3) -0.1975(2) 0.6264(2)
H25B H -0.5413 -0.2105 0.6210
C38B C -0.2830(3) -0.1970(2) 0.6247(2)
H26B H -0.2057 -0.2078 0.6186
C39B C -0.2476(5) -0.0923(2) 0.6727(2)
H27B H -0.2986 -0.0605 0.6889
H28B H -0.1976 -0.1059 0.7079
C40B C -0.1749(5) -0.0660(2) 0.6214(2)
C41B C -0.2217(7) -0.0326(5) 0.5734(4)
H29B H -0.3015 -0.0254 0.5728
C42B C -0.1555(6) -0.0085(5) 0.5246(4)
H30B H -0.1922 0.0116 0.4904
C43B C -0.0376(5) -0.0137(3) 0.5258(3)
C44B C 0.0108(6) -0.0438(4) 0.5762(3)
H31B H 0.0915 -0.0466 0.5798
C45B C -0.0594(6) -0.0712(4) 0.6239(3)
H32B H -0.0242 -0.0931 0.6574
N1B N -0.3727(2) -0.2320(1) 0.6098(1)
N2B N -0.4357(3) -0.1431(2) 0.6513(2)
N3B N -0.3181(3) -0.1441(1) 0.6495(2)
Co1B Co -0.4641 -0.5216 0.6933
Co2B Co -0.2996 -0.4561 0.5954
Co3B Co -0.3622 -0.3169 0.5632
Co4B Co -0.5459 -0.5748 0.5533
O1B O -0.4933(2) -0.4281(1) 0.7124(1)
O2B O -0.3773(2) -0.3812(1) 0.6434(1)
O3B O -0.4508(3) -0.1510(1) 0.8917(1)
O4B O -0.5654(2) -0.1164(1) 0.8127(1)
O5B O -0.2832(2) -0.5043(1) 0.6838(1)
O6B O -0.2277(3) -0.5276(2) 0.7827(2)
O7B O 0.3588(2) -0.5352(1) 0.6971(1)
O8B O 0.2979(2) -0.5412(1) 0.5954(1)
O9B O -0.5443(2) -0.3172(1) 0.5578(1)
O10B O -0.5948(2) -0.4004(1) 0.5019(1)
O11B O -1.1400(2) -0.4122(1) 0.5973(1)
O12B O -1.1825(2) -0.3137(1) 0.5749(1)
O13B O -0.4549(2) -0.5345(1) 0.7935(1)
H1B H -0.4707 -0.5273 0.8326
H2B H -0.3991 -0.5604 0.7934
O14B O -0.4624(2) -0.5024(1) 0.5922(1)
H3B H -0.5113 -0.4733 0.5879
O15B O -0.2312(2) -0.5242(1) 0.5373(1)
O16B O -0.3411(2) -0.4003(1) 0.5155(1)
H4B H -0.3474 -0.4092 0.4759
O17B O -0.3484(3) -0.2693(1) 0.4749(1)
H5B H -0.3755 -0.2441 0.4474
H6B H -0.3008 -0.2927 0.4558
C1B C -0.4508(3) -0.3241(1) 0.7314(2)
C2B C -0.5601(3) -0.3035(2) 0.7462(2)
H7B H -0.6251 -0.3263 0.7335
C3B C -0.5749(3) -0.2483(2) 0.7804(2)
H8B H -0.6496 -0.2346 0.7893
C4B C -0.4812(3) -0.2146(2) 0.8006(2)
C5B C -0.2649(3) -0.2001(2) 0.8052(2)
H9B H -0.2737 -0.1638 0.8282
C6B C -0.1567(4) -0.2192(2) 0.7895(2)
H10B H -0.0922 -0.1953 0.8004
C7B C -0.1421(4) -0.2752(2) 0.7568(2)
H11B H -0.0675 -0.2886 0.7474
C8B C -0.2355(3) -0.3100(2) 0.7387(2)
H12B H -0.2239 -0.3471 0.7176
C9B C -0.3499(3) -0.2903(2) 0.7517(2)
C10B C -0.3655(3) -0.2350(2) 0.7871(2)
C11B C -0.4402(3) -0.3820(1) 0.6931(2)
C12B C -0.5019(3) -0.1560(2) 0.8372(2)
C13B C -0.0798(3) -0.5158(2) 0.7070(2)
C14B C -0.0460(3) -0.5543(2) 0.6586(2)
H13B H -0.1016 -0.5774 0.6364
C15B C 0.0721(3) -0.5591(2) 0.6423(2)
H14B H 0.0932 -0.5853 0.6092
C16B C 0.1565(3) -0.5259(2) 0.6742(2)
C17B C 0.2062(3) -0.4469(2) 0.7582(2)
H15B H 0.2846 -0.4489 0.7480
C18B C 0.1704(4) -0.4072(2) 0.8046(2)
H16B H 0.2251 -0.3828 0.8260
C19B C 0.0535(4) -0.4027(2) 0.8206(2)
H17B H 0.0311 -0.3755 0.8525
C20B C -0.0270(4) -0.4372(2) 0.7903(2)
H18B H -0.1048 -0.4331 0.8011
C21B C 0.0046(3) -0.4802(2) 0.7415(2)
C22B C 0.1247(3) -0.4852(2) 0.7251(2)
C23B C -0.2054(3) -0.5156(2) 0.7266(2)
C24B C 0.2804(3) -0.5344(2) 0.6539(2)
C25B C -0.7441(3) -0.3459(2) 0.5507(2)
C26B C -0.7883(3) -0.3738(2) 0.6031(2)
H19B H -0.7384 -0.3921 0.6330
C27B C -0.9083(3) -0.3751(2) 0.6125(2)
H20B H -0.9367 -0.3959 0.6479
C28B C -0.9848(3) -0.3470(2) 0.5716(2)
C29B C -1.0144(4) -0.2823(2) 0.4732(2)
H21B H -1.0944 -0.2815 0.4793
C30B C -0.9698(4) -0.2536(3) 0.4217(3)
H22B H -1.0192 -0.2327 0.3933
C31B C -0.8483(5) -0.2548(3) 0.4104(3)
H23B H -0.8188 -0.2356 0.3742
C32B C -0.7743(4) -0.2844(3) 0.4529(3)
H24B H -0.6947 -0.2848 0.4455
C33B C -0.8185(3) -0.3141(2) 0.5075(2)
C34B C -0.9415(3) -0.3137(2) 0.5182(2)
C35B C -0.6166(3) -0.3536(1) 0.5357(2)
C36B C -1.1133(3) -0.3578(2) 0.5822(2)
Co1_2 Co -0.5359 0.5216 0.3067
Co1A Co 0.5359 0.0216 0.1933
Co1B_2 Co 0.5359 -0.5216 0.6933
Co1C Co -0.5359 -0.0216 0.8067
Co2_2 Co 1.2996 0.4561 0.4046
Co2B_2 Co -1.2996 -0.4561 0.5954
Co3_2 Co 1.3622 0.3169 0.4368
Co3B_2 Co -1.3622 -0.3169 0.5632
Co4_2 Co -0.4541 -0.4252 0.4467
Co4_3 Co -0.4541 0.5748 0.4467
Co4A Co 0.4541 0.0748 0.0533
Co4B_2 Co 0.4541 -0.5748 0.5533
Co4B_3 Co 0.4541 0.4252 0.5533
Co4C Co -0.4541 -0.0748 0.9467
O3A O 0.5492(3) 0.6510(1) 0.3917(1)
O3C O -0.5492(3) -0.6510(1) 0.6083(1)
O4A O 0.4346(2) 0.6164(1) 0.3127(1)
O4C O -0.4346(2) -0.6164(1) 0.6873(1)
O7_2 O 0.6412(2) 0.5352(1) 0.3029(1)
O7B_2 O -0.6412(2) -0.5352(1) 0.6971(1)
O8_2 O 0.7021(2) 0.5412(1) 0.4046(1)
O8B_2 O -0.7021(2) -0.5412(1) 0.5954(1)
O10_2 O -0.4052(2) -0.5996(1) 0.4981(1)
O10B_2 O 0.4052(2) 0.5996(1) 0.5019(1)
O11_2 O 0.1400(2) 0.4122(1) 0.4027(1)
O11B_2 O -0.1400(2) -0.4122(1) 0.5973(1)
O12_2 O 0.1825(2) 0.3137(1) 0.4251(1)
O12B_2 O -0.1825(2) -0.3137(1) 0.5749(1)
O16_2 O -0.6589(2) -0.5997(1) 0.4845(1)
O16B_2 O 0.6589(2) 0.5997(1) 0.5155(1)
O18 O 0.0000 0.5000 0.5000
loop_
_geom_bond_atom_site_label_1
_geom_bond_atom_site_label_2
_geom_bond_site_symmetry_1
_geom_bond_site_symmetry_2
Co1 O1 1_555 1_555
Co2 O2 1_555 1_555
Co3 O2 1_555 1_555
Co4 O14 1_555 1_555
O1 C11 1_555 1_555
O2 C11 1_555 1_555
O3 C12 1_555 1_555
O4 C12 1_555 1_555
O5 Co1 1_555 1_555
O6 C23 1_555 1_555
O7 C24 1_555 1_555
O8 C24 1_555 1_555
O9 Co3 1_555 1_555
O10 C35 1_555 1_555
O11 C36 1_555 1_555
O12 C36 1_555 1_555
O13 Co1 1_555 1_555
H1 O13 1_555 1_555
H2 O13 1_555 1_555
O14 Co1 1_555 1_555
H3 O14 1_555 1_555
O15 Co2 1_555 1_555
O16 Co2 1_555 1_555
H4 O16 1_555 1_555
O17 Co3 1_555 1_555
H5 O17 1_555 1_555
H6 O17 1_555 1_555
C1 C2 1_555 1_555
C2 H7 1_555 1_555
C3 C2 1_555 1_555
H8 C3 1_555 1_555
C4 C3 1_555 1_555
C5 H9 1_555 1_555
C6 C5 1_555 1_555
H10 C6 1_555 1_555
C7 C6 1_555 1_555
H11 C7 1_555 1_555
C8 C7 1_555 1_555
H12 C8 1_555 1_555
C9 C1 1_555 1_555
C10 C4 1_555 1_555
C11 C1 1_555 1_555
C12 C4 1_555 1_555
C13 C14 1_555 1_555
C14 H13 1_555 1_555
C15 C14 1_555 1_555
H14 C15 1_555 1_555
C16 C15 1_555 1_555
C17 H15 1_555 1_555
C18 C17 1_555 1_555
H16 C18 1_555 1_555
C19 C18 1_555 1_555
H17 C19 1_555 1_555
C20 C19 1_555 1_555
H18 C20 1_555 1_555
C21 C13 1_555 1_555
C22 C16 1_555 1_555
C23 O5 1_555 1_555
C24 C16 1_555 1_555
C25 C26 1_555 1_555
C26 H19 1_555 1_555
C27 C26 1_555 1_555
H20 C27 1_555 1_555
C28 C27 1_555 1_555
C29 H21 1_555 1_555
C30 C29 1_555 1_555
H22 C30 1_555 1_555
C31 C30 1_555 1_555
H23 C31 1_555 1_555
C32 C31 1_555 1_555
H24 C32 1_555 1_555
C33 C25 1_555 1_555
C34 C28 1_555 1_555
C35 O9 1_555 1_555
C36 C28 1_555 1_555
C37 H25 1_555 1_555
C38 H26 1_555 1_555
C39 H27 1_555 1_555
H28 C39 1_555 1_555
C40 C39 1_555 1_555
C41 C40 1_555 1_555
H29 C41 1_555 1_555
C42 C41 1_555 1_555
H30 C42 1_555 1_555
C43 C42 1_555 1_555
C44 C43 1_555 1_555
H31 C44 1_555 1_555
C45 C40 1_555 1_555
H32 C45 1_555 1_555
N1 Co3 1_555 1_555
N2 C37 1_555 1_555
N3 C38 1_555 1_555
C37B H25B 1_555 1_555
C38B H26B 1_555 1_555
C39B H27B 1_555 1_555
H28B C39B 1_555 1_555
C40B C39B 1_555 1_555
C41B C40B 1_555 1_555
H29B C41B 1_555 1_555
C42B C41B 1_555 1_555
H30B C42B 1_555 1_555
C43B C43 1_555 1_555
C44B C43B 1_555 1_555
H31B C44B 1_555 1_555
C45B C40B 1_555 1_555
H32B C45B 1_555 1_555
N1B C37B 1_555 1_555
N2B C37B 1_555 1_555
N3B C38B 1_555 1_555
Co1B O1B 1_555 1_555
Co2B O2B 1_555 1_555
Co3B N1B 1_555 1_555
Co4B O14B 1_555 1_555
O1B C11B 1_555 1_555
O2B Co3B 1_555 1_555
O3B C12B 1_555 1_555
O4B C12B 1_555 1_555
O5B Co1B 1_555 1_555
O6B C23B 1_555 1_555
O7B C24B 1_555 1_555
O8B C24B 1_555 1_555
O9B Co3B 1_555 1_555
O10B C35B 1_555 1_555
O11B C36B 1_555 1_555
O12B C36B 1_555 1_555
O13B Co1B 1_555 1_555
H1B O13B 1_555 1_555
H2B O13B 1_555 1_555
O14B Co1B 1_555 1_555
H3B O14B 1_555 1_555
O15B Co2B 1_555 1_555
O16B Co2B 1_555 1_555
H4B O16B 1_555 1_555
O17B Co3B 1_555 1_555
H5B O17B 1_555 1_555
H6B O17B 1_555 1_555
C1B C2B 1_555 1_555
C2B H7B 1_555 1_555
C3B C2B 1_555 1_555
H8B C3B 1_555 1_555
C4B C3B 1_555 1_555
C5B H9B 1_555 1_555
C6B C5B 1_555 1_555
H10B C6B 1_555 1_555
C7B C6B 1_555 1_555
H11B C7B 1_555 1_555
C8B C7B 1_555 1_555
H12B C8B 1_555 1_555
C9B C1B 1_555 1_555
C10B C4B 1_555 1_555
C11B O2B 1_555 1_555
C12B C4B 1_555 1_555
C13B C14B 1_555 1_555
C14B H13B 1_555 1_555
C15B C14B 1_555 1_555
H14B C15B 1_555 1_555
C16B C15B 1_555 1_555
C17B H15B 1_555 1_555
C18B C17B 1_555 1_555
H16B C18B 1_555 1_555
C19B C18B 1_555 1_555
H17B C19B 1_555 1_555
C20B C19B 1_555 1_555
H18B C20B 1_555 1_555
C21B C13B 1_555 1_555
C22B C16B 1_555 1_555
C23B O5B 1_555 1_555
C24B C16B 1_555 1_555
C25B C26B 1_555 1_555
C26B H19B 1_555 1_555
C27B C26B 1_555 1_555
H20B C27B 1_555 1_555
C28B C27B 1_555 1_555
C29B H21B 1_555 1_555
C30B C29B 1_555 1_555
H22B C30B 1_555 1_555
C31B C30B 1_555 1_555
H23B C31B 1_555 1_555
C32B C31B 1_555 1_555
H24B C32B 1_555 1_555
C33B C25B 1_555 1_555
C34B C28B 1_555 1_555
C35B O9B 1_555 1_555
C36B C28B 1_555 1_555
Co1_2 O7 1_555 1_555
Co1A O4 1_555 1_555
Co1B_2 O7B 1_555 1_555
Co1C O4B 1_555 1_555
Co2_2 O11 1_555 1_555
Co2B_2 O11B 1_555 1_555
Co3_2 O12 1_555 1_555
Co3B_2 O12B 1_555 1_555
Co4_2 O10B 1_555 1_555
Co4_3 O8 1_555 1_555
Co4A O3 1_555 1_555
Co4B_2 O8B 1_555 1_555
Co4B_3 O10 1_555 1_555
Co4C O3B 1_555 1_555
O3A Co4 1_555 1_555
O3C Co4B 1_555 1_555
O4A Co1 1_555 1_555
O4C Co1B 1_555 1_555
O7_2 Co1 1_555 1_555
O7B_2 Co1B 1_555 1_555
O8_2 Co4 1_555 1_555
O8B_2 Co4B 1_555 1_555
O10_2 Co4B 1_555 1_555
O10B_2 Co4 1_555 1_555
O11_2 Co2 1_555 1_555
O11B_2 Co2B 1_555 1_555
O12_2 Co3 1_555 1_555
O12B_2 Co3B 1_555 1_555
O16_2 Co4B 1_555 1_555
O16B_2 Co4 1_555 1_555
Co2 O5 1_555 1_555
Co2 O14 1_555 1_555
Co3 O16 1_555 1_555
O16 Co4B_3 1_555 1_555
C5 C10 1_555 1_555
C8 C9 1_555 1_555
C9 C10 1_555 1_555
C13 C23 1_555 1_555
C17 C22 1_555 1_555
C20 C21 1_555 1_555
C21 C22 1_555 1_555
C25 C35 1_555 1_555
C29 C34 1_555 1_555
C32 C33 1_555 1_555
C33 C34 1_555 1_555
C37 N1 1_555 1_555
C38 N1 1_555 1_555
C39 N3 1_555 1_555
C44 C45 1_555 1_555
N2 N3 1_555 1_555
C38B N1B 1_555 1_555
C39B N3B 1_555 1_555
C42B C43B 1_555 1_555
C44B C45B 1_555 1_555
N2B N3B 1_555 1_555
Co2B O5B 1_555 1_555
Co2B O14B 1_555 1_555
Co3B O16B 1_555 1_555
O16B Co4_2 1_555 1_555
C1B C11B 1_555 1_555
C5B C10B 1_555 1_555
C8B C9B 1_555 1_555
C9B C10B 1_555 1_555
C13B C23B 1_555 1_555
C17B C22B 1_555 1_555
C20B C21B 1_555 1_555
C21B C22B 1_555 1_555
C25B C35B 1_555 1_555
C29B C34B 1_555 1_555
C32B C33B 1_555 1_555
C33B C34B 1_555 1_555

#END
